
     RDKit          3D

  0  0  0  0  0  0  0  0  0  0999 V3000
M  V30 BEGIN CTAB
M  V30 COUNTS 40 42 0 0 0
M  V30 BEGIN ATOM
M  V30 1 N 6.30233 -1.46117 1.08093 0
M  V30 2 C 5.38507 -0.651738 0.364898 0
M  V30 3 N 5.77416 0.310119 -0.492606 0
M  V30 4 C 4.89259 1.07035 -1.16501 0
M  V30 5 N 5.3357 2.08107 -2.06624 0
M  V30 6 N 3.58015 0.873724 -0.984169 0
M  V30 7 C 3.09645 -0.0610308 -0.150352 0
M  V30 8 C 4.0115 -0.829988 0.529665 0
M  V30 9 C 1.64753 -0.207224 -0.0137493 0
M  V30 10 C 0.81362 0.621037 -0.746867 0
M  V30 11 C -0.548763 0.527591 -0.65758 0
M  V30 12 C -1.16109 -0.39502 0.166009 0
M  V30 13 C -0.310023 -1.20749 0.885003 0
M  V30 14 C 1.06354 -1.13654 0.81568 0
M  V30 15 C -2.64063 -0.502174 0.268034 0
M  V30 16 C -3.27241 -0.906569 -1.03767 0
M  V30 17 C -4.2757 0.0763512 -1.55339 0
M  V30 18 C -5.23504 0.584137 -0.539567 0
M  V30 19 C -4.74877 0.551555 0.868992 0
M  V30 20 C -3.24833 0.754665 0.844673 0
M  V30 21 H 6.12588 -1.80188 2.04554 0
M  V30 22 H 7.19631 -1.73116 0.626482 0
M  V30 23 H 4.70652 2.8412 -2.36526 0
M  V30 24 H 6.31473 2.0274 -2.41294 0
M  V30 25 H 3.69147 -1.58847 1.20591 0
M  V30 26 H 1.27715 1.36667 -1.41233 0
M  V30 27 H -1.19825 1.1787 -1.23392 0
M  V30 28 H -0.767815 -1.94708 1.54507 0
M  V30 29 H 1.69648 -1.79427 1.39799 0
M  V30 30 H -2.85218 -1.31623 0.993093 0
M  V30 31 H -2.44453 -0.959213 -1.7898 0
M  V30 32 H -3.7182 -1.9232 -1.00976 0
M  V30 33 H -4.87483 -0.454394 -2.34557 0
M  V30 34 H -3.73981 0.894371 -2.11125 0
M  V30 35 H -6.22233 0.0445481 -0.561152 0
M  V30 36 H -5.46133 1.65771 -0.798635 0
M  V30 37 H -4.97244 -0.456123 1.28338 0
M  V30 38 H -5.26627 1.35782 1.42845 0
M  V30 39 H -2.89321 0.859443 1.88853 0
M  V30 40 H -3.05921 1.6525 0.227987 0
M  V30 END ATOM
M  V30 BEGIN BOND
M  V30 1 1 1 2
M  V30 2 2 2 3
M  V30 3 1 3 4
M  V30 4 1 4 5
M  V30 5 2 4 6
M  V30 6 1 6 7
M  V30 7 2 7 8
M  V30 8 1 7 9
M  V30 9 2 9 10
M  V30 10 1 10 11
M  V30 11 2 11 12
M  V30 12 1 12 13
M  V30 13 2 13 14
M  V30 14 1 12 15
M  V30 15 1 15 16
M  V30 16 1 16 17
M  V30 17 1 17 18
M  V30 18 1 18 19
M  V30 19 1 19 20
M  V30 20 1 8 2
M  V30 21 1 14 9
M  V30 22 1 20 15
M  V30 23 1 1 21
M  V30 24 1 1 22
M  V30 25 1 5 23
M  V30 26 1 5 24
M  V30 27 1 8 25
M  V30 28 1 10 26
M  V30 29 1 11 27
M  V30 30 1 13 28
M  V30 31 1 14 29
M  V30 32 1 15 30
M  V30 33 1 16 31
M  V30 34 1 16 32
M  V30 35 1 17 33
M  V30 36 1 17 34
M  V30 37 1 18 35
M  V30 38 1 18 36
M  V30 39 1 19 37
M  V30 40 1 19 38
M  V30 41 1 20 39
M  V30 42 1 20 40
M  V30 END BOND
M  V30 END CTAB
M  END
