
     RDKit          3D

  0  0  0  0  0  0  0  0  0  0999 V3000
M  V30 BEGIN CTAB
M  V30 COUNTS 42 43 0 0 0
M  V30 BEGIN ATOM
M  V30 1 C 4.2815 1.26729 0.436723 0
M  V30 2 C 3.72091 -0.134357 0.583038 0
M  V30 3 C 2.96583 -0.476833 -0.682279 0
M  V30 4 C 2.37027 -1.85549 -0.63073 0
M  V30 5 C 0.906572 -1.6557 -0.34656 0
M  V30 6 N 0.62016 -0.245894 -0.30492 0
M  V30 7 C 1.79835 0.409056 -0.919446 0
M  V30 8 C -0.493658 0.479792 0.17343 0
M  V30 9 O -0.432554 1.76745 0.0754068 0
M  V30 10 C -1.7258 -0.0472071 0.773866 0
M  V30 11 C -2.90228 0.427648 -0.0119494 0
M  V30 12 C -4.04289 0.924485 0.561394 0
M  V30 13 C -5.12042 1.35797 -0.205292 0
M  V30 14 C -5.03949 1.28653 -1.56707 0
M  V30 15 C -3.90445 0.791119 -2.17457 0
M  V30 16 C -2.83017 0.359627 -1.38409 0
M  V30 17 Br -6.53779 1.8899 -2.61347 0
M  V30 18 N -1.83777 -1.47178 0.840505 0
M  V30 19 C -1.84441 0.437162 2.22326 0
M  V30 20 N 4.82071 -1.02812 0.784811 0
M  V30 21 H 4.26775 1.56294 -0.641879 0
M  V30 22 H 3.71432 2.00504 1.061 0
M  V30 23 H 5.33134 1.31676 0.792892 0
M  V30 24 H 3.08229 -0.144056 1.48309 0
M  V30 25 H 3.67547 -0.358812 -1.52651 0
M  V30 26 H 2.83326 -2.50241 0.141325 0
M  V30 27 H 2.52868 -2.33671 -1.61595 0
M  V30 28 H 0.339663 -2.06332 -1.23065 0
M  V30 29 H 0.606035 -2.20856 0.571907 0
M  V30 30 H 1.55204 0.611267 -1.96102 0
M  V30 31 H 1.94598 1.37573 -0.383152 0
M  V30 32 H -4.11994 0.986044 1.6203 0
M  V30 33 H -5.99973 1.74163 0.259569 0
M  V30 34 H -3.88911 0.755191 -3.25137 0
M  V30 35 H -1.95551 -0.0231647 -1.88837 0
M  V30 36 H -1.4204 -1.81256 1.71614 0
M  V30 37 H -1.70269 -2.00978 0.00380001 0
M  V30 38 H -2.02235 1.53456 2.16331 0
M  V30 39 H -2.62419 -0.10438 2.77694 0
M  V30 40 H -0.883779 0.277581 2.75325 0
M  V30 41 H 5.20865 -1.451 -0.0625082 0
M  V30 42 H 4.75961 -1.63464 1.60583 0
M  V30 END ATOM
M  V30 BEGIN BOND
M  V30 1 1 1 2
M  V30 2 1 2 3
M  V30 3 1 3 4
M  V30 4 1 4 5
M  V30 5 1 5 6
M  V30 6 1 6 7
M  V30 7 1 6 8
M  V30 8 2 8 9
M  V30 9 1 8 10
M  V30 10 1 10 11
M  V30 11 2 11 12
M  V30 12 1 12 13
M  V30 13 2 13 14
M  V30 14 1 14 15
M  V30 15 2 15 16
M  V30 16 1 14 17
M  V30 17 1 10 18
M  V30 18 1 10 19
M  V30 19 1 2 20
M  V30 20 1 7 3
M  V30 21 1 16 11
M  V30 22 1 1 21
M  V30 23 1 1 22
M  V30 24 1 1 23
M  V30 25 1 2 24
M  V30 26 1 3 25
M  V30 27 1 4 26
M  V30 28 1 4 27
M  V30 29 1 5 28
M  V30 30 1 5 29
M  V30 31 1 7 30
M  V30 32 1 7 31
M  V30 33 1 12 32
M  V30 34 1 13 33
M  V30 35 1 15 34
M  V30 36 1 16 35
M  V30 37 1 18 36
M  V30 38 1 18 37
M  V30 39 1 19 38
M  V30 40 1 19 39
M  V30 41 1 19 40
M  V30 42 1 20 41
M  V30 43 1 20 42
M  V30 END BOND
M  V30 END CTAB
M  END
