
     RDKit          3D

  0  0  0  0  0  0  0  0  0  0999 V3000
M  V30 BEGIN CTAB
M  V30 COUNTS 18 19 0 0 0
M  V30 BEGIN ATOM
M  V30 1 N 2.93806 0.57919 -0.367151 0
M  V30 2 C 1.81109 -0.253347 -0.22163 0
M  V30 3 N 1.82404 -1.5809 -0.211825 0
M  V30 4 C 0.731726 -2.35567 -0.0710619 0
M  V30 5 N -0.475004 -1.77513 0.0721145 0
M  V30 6 C -0.543496 -0.431514 0.0689917 0
M  V30 7 C 0.578817 0.371599 -0.0756967 0
M  V30 8 N 0.476365 1.70536 -0.074576 0
M  V30 9 C -0.738676 2.27217 0.0697311 0
M  V30 10 Cl -0.935562 4.01255 0.0789769 0
M  V30 11 N -1.86328 1.51823 0.21428 0
M  V30 12 C -1.78129 0.168119 0.215812 0
M  V30 13 N -2.92834 -0.661635 0.363765 0
M  V30 14 H 3.57986 0.395804 -1.16766 0
M  V30 15 H 3.16847 1.36889 0.279204 0
M  V30 16 H 0.819095 -3.45236 -0.0723745 0
M  V30 17 H -3.3689 -0.653686 1.32662 0
M  V30 18 H -3.29297 -1.22765 -0.427521 0
M  V30 END ATOM
M  V30 BEGIN BOND
M  V30 1 1 1 2
M  V30 2 2 2 3
M  V30 3 1 3 4
M  V30 4 2 4 5
M  V30 5 1 5 6
M  V30 6 2 6 7
M  V30 7 1 7 8
M  V30 8 2 8 9
M  V30 9 1 9 10
M  V30 10 1 9 11
M  V30 11 2 11 12
M  V30 12 1 12 13
M  V30 13 1 7 2
M  V30 14 1 12 6
M  V30 15 1 1 14
M  V30 16 1 1 15
M  V30 17 1 4 16
M  V30 18 1 13 17
M  V30 19 1 13 18
M  V30 END BOND
M  V30 END CTAB
M  END
