
     RDKit          3D

  0  0  0  0  0  0  0  0  0  0999 V3000
M  V30 BEGIN CTAB
M  V30 COUNTS 38 39 0 0 0
M  V30 BEGIN ATOM
M  V30 1 N -5.24949 2.21492 0.0916323 0
M  V30 2 C -3.82816 2.11322 -0.147787 0 CFG=1
M  V30 3 C -2.99923 2.51914 1.04681 0
M  V30 4 C -1.57386 2.12213 0.761891 0 CFG=1
M  V30 5 N -0.632829 2.7976 1.63078 0
M  V30 6 C -1.51667 0.59483 1.01614 0 CFG=2
M  V30 7 N -0.237184 0.146148 0.91832 0
M  V30 8 C 1.02506 -0.297687 0.822841 0
M  V30 9 O 1.57114 -1.27344 1.44576 0
M  V30 10 O 1.95692 0.344664 -0.0658224 0
M  V30 11 C 3.26291 -0.104923 -0.175606 0
M  V30 12 C 3.37691 -1.48778 -0.656271 0
M  V30 13 C 2.80714 -1.81586 -1.88418 0
M  V30 14 C 2.94311 -3.12332 -2.35213 0
M  V30 15 C 3.63839 -4.07337 -1.59471 0
M  V30 16 C 4.19446 -3.71616 -0.374283 0
M  V30 17 C 4.05157 -2.43246 0.0679553 0
M  V30 18 C -2.4259 0.0637291 -0.100735 0
M  V30 19 C -3.42556 0.755344 -0.583977 0
M  V30 20 H -5.67483 1.27889 -0.149549 0
M  V30 21 H -5.69367 2.92496 -0.48296 0
M  V30 22 H -3.57791 2.81885 -0.982244 0
M  V30 23 H -3.38985 1.92989 1.93304 0
M  V30 24 H -3.10003 3.59495 1.29358 0
M  V30 25 H -1.30547 2.24955 -0.302744 0
M  V30 26 H -0.937154 3.78968 1.71723 0
M  V30 27 H 0.289159 2.81164 1.12148 0
M  V30 28 H -2.13534 0.395017 1.93532 0
M  V30 29 H -0.542937 -0.878578 1.77331 0
M  V30 30 H 3.80012 0.559986 -0.898808 0
M  V30 31 H 3.76874 0.0162281 0.822267 0
M  V30 32 H 2.26624 -1.07639 -2.46785 0
M  V30 33 H 2.52209 -3.41401 -3.29026 0
M  V30 34 H 3.75459 -5.08908 -1.93627 0
M  V30 35 H 4.72474 -4.47688 0.184872 0
M  V30 36 H 4.49217 -2.15595 1.02263 0
M  V30 37 H -2.17551 -0.920946 -0.455286 0
M  V30 38 H -4.02387 0.295474 -1.3842 0
M  V30 END ATOM
M  V30 BEGIN BOND
M  V30 1 1 1 2
M  V30 2 1 2 3
M  V30 3 1 3 4
M  V30 4 1 4 5
M  V30 5 1 4 6
M  V30 6 1 6 7
M  V30 7 1 7 8
M  V30 8 2 8 9
M  V30 9 1 8 10
M  V30 10 1 10 11
M  V30 11 1 11 12
M  V30 12 2 12 13
M  V30 13 1 13 14
M  V30 14 2 14 15
M  V30 15 1 15 16
M  V30 16 2 16 17
M  V30 17 1 6 18
M  V30 18 2 18 19
M  V30 19 1 19 2
M  V30 20 1 17 12
M  V30 21 1 1 20
M  V30 22 1 1 21
M  V30 23 1 2 22 CFG=3
M  V30 24 1 3 23
M  V30 25 1 3 24
M  V30 26 1 4 25 CFG=3
M  V30 27 1 5 26
M  V30 28 1 5 27
M  V30 29 1 6 28 CFG=1
M  V30 30 1 7 29
M  V30 31 1 11 30
M  V30 32 1 11 31
M  V30 33 1 13 32
M  V30 34 1 14 33
M  V30 35 1 15 34
M  V30 36 1 16 35
M  V30 37 1 17 36
M  V30 38 1 18 37
M  V30 39 1 19 38
M  V30 END BOND
M  V30 END CTAB
M  END
