
     RDKit          3D

  0  0  0  0  0  0  0  0  0  0999 V3000
M  V30 BEGIN CTAB
M  V30 COUNTS 32 32 0 0 0
M  V30 BEGIN ATOM
M  V30 1 C -2.67636 0.136409 1.69134 0
M  V30 2 O -1.70878 -0.436438 0.904 0
M  V30 3 C -1.81014 -0.142961 -0.432787 0
M  V30 4 C -0.690064 -0.806187 -1.18069 0
M  V30 5 C 0.660607 -0.379455 -0.73258 0
M  V30 6 N 1.46842 0.537022 -1.30587 0
M  V30 7 C 2.59519 0.665999 -0.591037 0
M  V30 8 N 2.5286 -0.173475 0.462567 0
M  V30 9 C 1.34589 -0.811958 0.373643 0
M  V30 10 N 0.88601 -1.808 1.29264 0
M  V30 11 N 3.48315 -0.358804 1.4648 0
M  V30 12 C 3.77332 1.56793 -0.851896 0
M  V30 13 C -1.84797 1.35391 -0.710744 0
M  V30 14 C -3.11264 -0.683299 -1.02614 0
M  V30 15 H -3.69781 -0.141638 1.44476 0
M  V30 16 H -2.41258 -0.092288 2.76208 0
M  V30 17 H -2.58256 1.25591 1.62986 0
M  V30 18 H -0.799638 -1.91175 -0.994168 0
M  V30 19 H -0.806092 -0.709239 -2.2866 0
M  V30 20 H 0.544958 -2.70483 0.83737 0
M  V30 21 H 0.90243 -1.63074 2.30001 0
M  V30 22 H 3.21917 -0.454258 2.46424 0
M  V30 23 H 4.48977 -0.403566 1.2218 0
M  V30 24 H 4.43761 1.58215 0.0148515 0
M  V30 25 H 3.34909 2.59381 -1.03653 0
M  V30 26 H 4.33971 1.20653 -1.72575 0
M  V30 27 H -2.89012 1.73107 -0.824675 0
M  V30 28 H -1.3687 1.55796 -1.69868 0
M  V30 29 H -1.38864 1.94227 0.101492 0
M  V30 30 H -2.90386 -1.05388 -2.04863 0
M  V30 31 H -3.44019 -1.53194 -0.391466 0
M  V30 32 H -3.88778 0.103742 -1.12719 0
M  V30 END ATOM
M  V30 BEGIN BOND
M  V30 1 1 1 2
M  V30 2 1 2 3
M  V30 3 1 3 4
M  V30 4 1 4 5
M  V30 5 1 5 6
M  V30 6 2 6 7
M  V30 7 1 7 8
M  V30 8 1 8 9
M  V30 9 1 9 10
M  V30 10 1 8 11
M  V30 11 1 7 12
M  V30 12 1 3 13
M  V30 13 1 3 14
M  V30 14 2 9 5
M  V30 15 1 1 15
M  V30 16 1 1 16
M  V30 17 1 1 17
M  V30 18 1 4 18
M  V30 19 1 4 19
M  V30 20 1 10 20
M  V30 21 1 10 21
M  V30 22 1 11 22
M  V30 23 1 11 23
M  V30 24 1 12 24
M  V30 25 1 12 25
M  V30 26 1 12 26
M  V30 27 1 13 27
M  V30 28 1 13 28
M  V30 29 1 13 29
M  V30 30 1 14 30
M  V30 31 1 14 31
M  V30 32 1 14 32
M  V30 END BOND
M  V30 END CTAB
M  END
