
     RDKit          3D

  0  0  0  0  0  0  0  0  0  0999 V3000
M  V30 BEGIN CTAB
M  V30 COUNTS 23 24 0 0 0
M  V30 BEGIN ATOM
M  V30 1 N -2.95943 -2.03067 1.08143 0
M  V30 2 C -2.2366 -0.989966 0.457593 0
M  V30 3 N -1.10162 -1.18898 -0.249002 0
M  V30 4 C -0.420828 -0.212858 -0.835964 0
M  V30 5 C 0.823124 -0.415192 -1.61274 0
M  V30 6 N 1.99879 -0.315816 -0.742279 0
M  V30 7 C 2.58411 -1.32955 -0.0763791 0
M  V30 8 N 3.64507 -0.849641 0.623809 0
M  V30 9 C 3.74062 0.474411 0.406738 0
M  V30 10 C 2.70737 0.782059 -0.444666 0
M  V30 11 N -0.878713 1.05747 -0.728113 0
M  V30 12 C -2.00355 1.2994 -0.0344909 0
M  V30 13 N -2.66711 0.288568 0.546467 0
M  V30 14 N -2.47124 2.6401 0.0692369 0
M  V30 15 H -2.81351 -2.21648 2.09788 0
M  V30 16 H -3.6493 -2.64925 0.595718 0
M  V30 17 H 0.93113 0.277535 -2.45043 0
M  V30 18 H 0.82884 -1.46603 -2.0065 0
M  V30 19 H 2.25165 -2.37506 -0.100003 0
M  V30 20 H 4.50427 1.09914 0.849628 0
M  V30 21 H 2.50696 1.78321 -0.815721 0
M  V30 22 H -1.9933 3.35777 0.665898 0
M  V30 23 H -3.32675 2.97983 -0.452086 0
M  V30 END ATOM
M  V30 BEGIN BOND
M  V30 1 1 1 2
M  V30 2 2 2 3
M  V30 3 1 3 4
M  V30 4 1 4 5
M  V30 5 1 5 6
M  V30 6 1 6 7
M  V30 7 2 7 8
M  V30 8 1 8 9
M  V30 9 2 9 10
M  V30 10 2 4 11
M  V30 11 1 11 12
M  V30 12 2 12 13
M  V30 13 1 12 14
M  V30 14 1 13 2
M  V30 15 1 10 6
M  V30 16 1 1 15
M  V30 17 1 1 16
M  V30 18 1 5 17
M  V30 19 1 5 18
M  V30 20 1 7 19
M  V30 21 1 9 20
M  V30 22 1 10 21
M  V30 23 1 14 22
M  V30 24 1 14 23
M  V30 END BOND
M  V30 END CTAB
M  END
