
     RDKit          3D

  0  0  0  0  0  0  0  0  0  0999 V3000
M  V30 BEGIN CTAB
M  V30 COUNTS 47 47 0 0 0
M  V30 BEGIN ATOM
M  V30 1 N 5.31643 0.478814 2.46751 0
M  V30 2 C 4.5167 -0.163009 1.45943 0
M  V30 3 C 5.24762 -0.352274 0.171341 0
M  V30 4 C 4.41617 -0.281933 -1.04844 0
M  V30 5 C 2.97532 -0.65417 -0.867917 0
M  V30 6 C 2.35225 -0.154877 0.382219 0
M  V30 7 C 3.30283 0.728385 1.15578 0
M  V30 8 C 1.03512 0.495247 0.179308 0
M  V30 9 O 0.930612 1.69963 0.524693 0
M  V30 10 N -0.0796547 -0.18193 -0.377328 0
M  V30 11 C -1.33692 0.475875 -0.559403 0
M  V30 12 C -2.18961 0.29831 0.684386 0
M  V30 13 C -3.52838 0.985948 0.518961 0
M  V30 14 C -4.30624 0.435459 -0.644489 0
M  V30 15 C -4.60607 -1.03157 -0.52176 0
M  V30 16 C -5.65673 1.15829 -0.648529 0
M  V30 17 N -4.32917 0.821762 1.71689 0
M  V30 18 C 0.0366307 -1.57833 -0.778153 0
M  V30 19 H 4.94233 0.268453 3.40642 0
M  V30 20 H 6.27734 0.0399012 2.4236 0
M  V30 21 H 4.16306 -1.17876 1.79876 0
M  V30 22 H 6.04479 0.433109 0.109434 0
M  V30 23 H 5.812 -1.32438 0.227458 0
M  V30 24 H 4.48579 0.735726 -1.5345 0
M  V30 25 H 4.8407 -0.981634 -1.80397 0
M  V30 26 H 2.83352 -1.73721 -0.989505 0
M  V30 27 H 2.41741 -0.183313 -1.73102 0
M  V30 28 H 2.16536 -1.04918 1.04945 0
M  V30 29 H 3.7053 1.56411 0.542438 0
M  V30 30 H 2.87192 1.07158 2.10425 0
M  V30 31 H -1.88157 -0.029166 -1.38171 0
M  V30 32 H -1.23462 1.56803 -0.735189 0
M  V30 33 H -1.66825 0.835824 1.51462 0
M  V30 34 H -2.36419 -0.756959 0.931155 0
M  V30 35 H -3.36673 2.05263 0.361335 0
M  V30 36 H -3.78775 0.667541 -1.58538 0
M  V30 37 H -4.95326 -1.36893 -1.54184 0
M  V30 38 H -5.48413 -1.22531 0.146223 0
M  V30 39 H -3.73765 -1.65352 -0.281706 0
M  V30 40 H -5.49358 2.12174 -1.16826 0
M  V30 41 H -6.35379 0.49853 -1.20877 0
M  V30 42 H -6.00194 1.39407 0.367657 0
M  V30 43 H -4.68482 -0.150765 1.83022 0
M  V30 44 H -3.79047 1.05578 2.58112 0
M  V30 45 H 0.639305 -2.08313 0.0114202 0
M  V30 46 H 0.462603 -1.68309 -1.78724 0
M  V30 47 H -0.955592 -2.0813 -0.802313 0
M  V30 END ATOM
M  V30 BEGIN BOND
M  V30 1 1 1 2
M  V30 2 1 2 3
M  V30 3 1 3 4
M  V30 4 1 4 5
M  V30 5 1 5 6
M  V30 6 1 6 7
M  V30 7 1 6 8
M  V30 8 2 8 9
M  V30 9 1 8 10
M  V30 10 1 10 11
M  V30 11 1 11 12
M  V30 12 1 12 13
M  V30 13 1 13 14
M  V30 14 1 14 15
M  V30 15 1 14 16
M  V30 16 1 13 17
M  V30 17 1 10 18
M  V30 18 1 7 2
M  V30 19 1 1 19
M  V30 20 1 1 20
M  V30 21 1 2 21
M  V30 22 1 3 22
M  V30 23 1 3 23
M  V30 24 1 4 24
M  V30 25 1 4 25
M  V30 26 1 5 26
M  V30 27 1 5 27
M  V30 28 1 6 28
M  V30 29 1 7 29
M  V30 30 1 7 30
M  V30 31 1 11 31
M  V30 32 1 11 32
M  V30 33 1 12 33
M  V30 34 1 12 34
M  V30 35 1 13 35
M  V30 36 1 14 36
M  V30 37 1 15 37
M  V30 38 1 15 38
M  V30 39 1 15 39
M  V30 40 1 16 40
M  V30 41 1 16 41
M  V30 42 1 16 42
M  V30 43 1 17 43
M  V30 44 1 17 44
M  V30 45 1 18 45
M  V30 46 1 18 46
M  V30 47 1 18 47
M  V30 END BOND
M  V30 END CTAB
M  END
