
     RDKit          3D

  0  0  0  0  0  0  0  0  0  0999 V3000
M  V30 BEGIN CTAB
M  V30 COUNTS 29 29 0 0 0
M  V30 BEGIN ATOM
M  V30 1 C 2.51742 1.2782 0.857691 0
M  V30 2 C 2.329 -0.214238 0.803319 0
M  V30 3 S 0.771624 -0.801463 1.41851 0
M  V30 4 C -0.658849 -0.313601 0.533557 0
M  V30 5 C -0.678701 0.517027 -0.568365 0
M  V30 6 C -1.87151 0.834325 -1.20211 0
M  V30 7 C -3.08072 0.348703 -0.776845 0
M  V30 8 C -3.06829 -0.480899 0.322726 0
M  V30 9 C -1.88396 -0.797805 0.954319 0
M  V30 10 F -1.9137 -1.62739 2.04629 0
M  V30 11 N -4.32653 -0.996501 0.77835 0
M  V30 12 N -4.29062 0.687942 -1.44327 0
M  V30 13 C 2.76852 -0.782646 -0.517633 0
M  V30 14 C 4.25754 -0.433624 -0.652266 0
M  V30 15 H 3.43479 1.59698 1.39298 0
M  V30 16 H 2.64895 1.67438 -0.190957 0
M  V30 17 H 1.67419 1.80045 1.36941 0
M  V30 18 H 3.10748 -0.613376 1.54234 0
M  V30 19 H 0.270822 0.903846 -0.901204 0
M  V30 20 H -1.84499 1.48401 -2.05661 0
M  V30 21 H -4.79232 -1.70315 0.17116 0
M  V30 22 H -4.77807 -0.697472 1.66967 0
M  V30 23 H -5.01942 1.29804 -1.0176 0
M  V30 24 H -4.44871 0.309637 -2.39189 0
M  V30 25 H 2.2181 -0.353324 -1.35265 0
M  V30 26 H 2.72484 -1.88848 -0.500411 0
M  V30 27 H 4.52808 0.412905 0.000899623 0
M  V30 28 H 4.51213 -0.145351 -1.68801 0
M  V30 29 H 4.89291 -1.29714 -0.328051 0
M  V30 END ATOM
M  V30 BEGIN BOND
M  V30 1 1 1 2
M  V30 2 1 2 3
M  V30 3 1 3 4
M  V30 4 2 4 5
M  V30 5 1 5 6
M  V30 6 2 6 7
M  V30 7 1 7 8
M  V30 8 2 8 9
M  V30 9 1 9 10
M  V30 10 1 8 11
M  V30 11 1 7 12
M  V30 12 1 2 13
M  V30 13 1 13 14
M  V30 14 1 9 4
M  V30 15 1 1 15
M  V30 16 1 1 16
M  V30 17 1 1 17
M  V30 18 1 2 18
M  V30 19 1 5 19
M  V30 20 1 6 20
M  V30 21 1 11 21
M  V30 22 1 11 22
M  V30 23 1 12 23
M  V30 24 1 12 24
M  V30 25 1 13 25
M  V30 26 1 13 26
M  V30 27 1 14 27
M  V30 28 1 14 28
M  V30 29 1 14 29
M  V30 END BOND
M  V30 END CTAB
M  END
