
     RDKit          3D

  0  0  0  0  0  0  0  0  0  0999 V3000
M  V30 BEGIN CTAB
M  V30 COUNTS 19 20 0 0 0
M  V30 BEGIN ATOM
M  V30 1 N -1.13379 -1.29374 -0.93571 0
M  V30 2 N -1.11533 -0.157389 -0.134922 0
M  V30 3 C -0.0330452 0.50947 0.274085 0
M  V30 4 N -0.511396 1.52354 1.01684 0
M  V30 5 N -1.83404 1.47551 1.05816 0
M  V30 6 C -2.2514 0.419323 0.336624 0
M  V30 7 N -3.593 -0.0167768 0.105192 0
M  V30 8 C 1.38241 0.231194 -0.00275562 0
M  V30 9 C 2.43409 0.984989 0.469344 0
M  V30 10 C 3.60416 0.443538 0.0207534 0
M  V30 11 N 3.26681 -0.640804 -0.725203 0
M  V30 12 N 1.93521 -0.738794 -0.718634 0
M  V30 13 H -0.786908 -2.21539 -0.589847 0
M  V30 14 H -1.49368 -1.28241 -1.91818 0
M  V30 15 H -4.00859 -0.838728 0.599273 0
M  V30 16 H -4.22332 0.470912 -0.574014 0
M  V30 17 H 2.33338 1.85514 1.08907 0
M  V30 18 H 4.60344 0.761482 0.188287 0
M  V30 19 H 1.42499 -1.49106 -1.22045 0
M  V30 END ATOM
M  V30 BEGIN BOND
M  V30 1 1 1 2
M  V30 2 1 2 3
M  V30 3 2 3 4
M  V30 4 1 4 5
M  V30 5 2 5 6
M  V30 6 1 6 7
M  V30 7 1 3 8
M  V30 8 2 8 9
M  V30 9 1 9 10
M  V30 10 2 10 11
M  V30 11 1 11 12
M  V30 12 1 6 2
M  V30 13 1 12 8
M  V30 14 1 1 13
M  V30 15 1 1 14
M  V30 16 1 7 15
M  V30 17 1 7 16
M  V30 18 1 9 17
M  V30 19 1 10 18
M  V30 20 1 12 19
M  V30 END BOND
M  V30 END CTAB
M  END
