
     RDKit          3D

  0  0  0  0  0  0  0  0  0  0999 V3000
M  V30 BEGIN CTAB
M  V30 COUNTS 33 34 0 0 0
M  V30 BEGIN ATOM
M  V30 1 C 3.85759 1.58991 -1.4044 0
M  V30 2 O 2.63757 1.90184 -1.98922 0
M  V30 3 C 1.40599 1.35775 -1.74159 0
M  V30 4 C 0.316277 1.78606 -2.47796 0
M  V30 5 O 0.49686 2.75569 -3.44292 0
M  V30 6 C -0.94022 1.25977 -2.2614 0
M  V30 7 C -1.1635 0.285261 -1.30079 0
M  V30 8 C -0.100535 -0.156008 -0.554223 0
M  V30 9 C 1.1627 0.387262 -0.79103 0
M  V30 10 C -0.190663 -1.13047 0.568357 0
M  V30 11 C -0.167327 -0.382321 1.84449 0
M  V30 12 C 1.13499 0.0443561 2.40703 0
M  V30 13 N 2.14477 0.368746 2.85582 0
M  V30 14 C -1.25162 -0.0724778 2.5019 0
M  V30 15 N -1.24545 0.63758 3.70792 0
M  V30 16 S -2.82172 -0.610266 1.83115 0
M  V30 17 C -2.34258 -2.12998 0.937914 0
M  V30 18 N -3.31042 -3.1424 0.850636 0
M  V30 19 C -1.1315 -2.19504 0.438648 0
M  V30 20 C -0.833428 -3.44549 -0.241234 0
M  V30 21 N -0.603228 -4.45545 -0.767779 0
M  V30 22 H 3.94949 0.472379 -1.42411 0
M  V30 23 H 3.81463 1.89243 -0.322118 0
M  V30 24 H 4.69937 2.05866 -1.92905 0
M  V30 25 H 1.41021 3.15459 -3.61346 0
M  V30 26 H -1.80035 1.57882 -2.82178 0
M  V30 27 H -2.13968 -0.123393 -1.15053 0
M  V30 28 H 2.02129 0.0465467 -0.212519 0
M  V30 29 H 0.851049 -1.64082 0.565882 0
M  V30 30 H -1.9791 0.496411 4.40915 0
M  V30 31 H -0.50035 1.32764 3.92092 0
M  V30 32 H -3.83904 -3.49079 1.67445 0
M  V30 33 H -3.54207 -3.5946 -0.0681388 0
M  V30 END ATOM
M  V30 BEGIN BOND
M  V30 1 1 1 2
M  V30 2 1 2 3
M  V30 3 2 3 4
M  V30 4 1 4 5
M  V30 5 1 4 6
M  V30 6 2 6 7
M  V30 7 1 7 8
M  V30 8 2 8 9
M  V30 9 1 8 10
M  V30 10 1 10 11
M  V30 11 1 11 12
M  V30 12 3 12 13
M  V30 13 2 11 14
M  V30 14 1 14 15
M  V30 15 1 14 16
M  V30 16 1 16 17
M  V30 17 1 17 18
M  V30 18 2 17 19
M  V30 19 1 19 20
M  V30 20 3 20 21
M  V30 21 1 9 3
M  V30 22 1 19 10
M  V30 23 1 1 22
M  V30 24 1 1 23
M  V30 25 1 1 24
M  V30 26 1 5 25
M  V30 27 1 6 26
M  V30 28 1 7 27
M  V30 29 1 9 28
M  V30 30 1 10 29
M  V30 31 1 15 30
M  V30 32 1 15 31
M  V30 33 1 18 32
M  V30 34 1 18 33
M  V30 END BOND
M  V30 END CTAB
M  END
