
     RDKit          3D

  0  0  0  0  0  0  0  0  0  0999 V3000
M  V30 BEGIN CTAB
M  V30 COUNTS 39 42 0 0 0
M  V30 BEGIN ATOM
M  V30 1 N -3.24691 -1.70742 -0.00211615 0
M  V30 2 C -2.0702 -2.46563 0.0398369 0
M  V30 3 C -0.769086 -1.78706 0.0282525 0
M  V30 4 C 0.354497 -2.65566 0.0778171 0
M  V30 5 N 0.14122 -4.05998 0.128592 0
M  V30 6 N 1.57567 -2.11178 0.0745973 0
M  V30 7 C 1.77899 -0.782658 0.0265426 0
M  V30 8 C 2.9826 0.0624803 0.0116216 0
M  V30 9 C 4.33272 -0.245794 0.0430881 0
M  V30 10 C 5.25543 0.772434 0.0174226 0
M  V30 11 C 4.88293 2.10215 -0.0390371 0
M  V30 12 C 3.53499 2.40429 -0.0702351 0
M  V30 13 C 2.60298 1.3877 -0.0447681 0
M  V30 14 C 1.12754 1.47075 -0.0693959 0
M  V30 15 C 0.697597 0.0651489 -0.0217417 0
M  V30 16 C -0.617142 -0.450679 -0.0210914 0
M  V30 17 C -1.70712 0.491659 -0.0807232 0
M  V30 18 C -2.27219 0.965353 -1.2525 0
M  V30 19 Cl -1.68319 0.37798 -2.77619 0
M  V30 20 C -3.28286 1.8924 -1.15549 0
M  V30 21 C -3.76012 2.37228 0.0481024 0
M  V30 22 Cl -5.05202 3.55464 0.0996297 0
M  V30 23 C -3.20148 1.90416 1.21232 0
M  V30 24 C -2.19483 0.981734 1.14098 0
M  V30 25 H -3.73159 -1.75909 0.92562 0
M  V30 26 H -3.86549 -2.01462 -0.779641 0
M  V30 27 H -2.08172 -3.19635 0.927871 0
M  V30 28 H -2.1269 -3.21427 -0.825375 0
M  V30 29 H -0.328513 -4.44415 0.975829 0
M  V30 30 H 0.416397 -4.72543 -0.6095 0
M  V30 31 H 4.67135 -1.27427 0.0874917 0
M  V30 32 H 6.33235 0.578326 0.0405193 0
M  V30 33 H 5.6232 2.89065 -0.0585443 0
M  V30 34 H 3.23788 3.45746 -0.114988 0
M  V30 35 H 0.76569 2.01231 -0.965494 0
M  V30 36 H 0.719034 2.00617 0.814992 0
M  V30 37 H -3.70752 2.24601 -2.1021 0
M  V30 38 H -3.56078 2.26768 2.17991 0
M  V30 39 H -1.77338 0.631065 2.0879 0
M  V30 END ATOM
M  V30 BEGIN BOND
M  V30 1 1 1 2
M  V30 2 1 2 3
M  V30 3 2 3 4
M  V30 4 1 4 5
M  V30 5 1 4 6
M  V30 6 2 6 7
M  V30 7 1 7 8
M  V30 8 2 8 9
M  V30 9 1 9 10
M  V30 10 2 10 11
M  V30 11 1 11 12
M  V30 12 2 12 13
M  V30 13 1 13 14
M  V30 14 1 14 15
M  V30 15 2 15 16
M  V30 16 1 16 17
M  V30 17 2 17 18
M  V30 18 1 18 19
M  V30 19 1 18 20
M  V30 20 2 20 21
M  V30 21 1 21 22
M  V30 22 1 21 23
M  V30 23 2 23 24
M  V30 24 1 16 3
M  V30 25 1 24 17
M  V30 26 1 15 7
M  V30 27 1 13 8
M  V30 28 1 1 25
M  V30 29 1 1 26
M  V30 30 1 2 27
M  V30 31 1 2 28
M  V30 32 1 5 29
M  V30 33 1 5 30
M  V30 34 1 9 31
M  V30 35 1 10 32
M  V30 36 1 11 33
M  V30 37 1 12 34
M  V30 38 1 14 35
M  V30 39 1 14 36
M  V30 40 1 20 37
M  V30 41 1 23 38
M  V30 42 1 24 39
M  V30 END BOND
M  V30 END CTAB
M  END
