
     RDKit          3D

  0  0  0  0  0  0  0  0  0  0999 V3000
M  V30 BEGIN CTAB
M  V30 COUNTS 137 141 0 0 0
M  V30 BEGIN ATOM
M  V30 1 N -8.8591 -5.64821 -1.00979 0
M  V30 2 C -7.78058 -4.73953 -1.14316 0
M  V30 3 C -6.87835 -4.90396 0.0632921 0
M  V30 4 C -5.68158 -3.97928 0.0385997 0
M  V30 5 C -6.05282 -2.54354 0.00011264 0
M  V30 6 C -4.72894 -1.71498 -0.0283836 0 CFG=1
M  V30 7 N -4.06938 -2.16545 -1.23345 0
M  V30 8 C -2.76487 -2.52784 -1.48515 0
M  V30 9 O -2.07241 -1.87447 -2.36933 0
M  V30 10 C -1.91996 -3.63808 -0.871996 0 CFG=2
M  V30 11 N -1.25572 -3.19131 0.294945 0
M  V30 12 C -0.054551 -3.30531 0.956967 0
M  V30 13 O 0.00470196 -4.12862 1.96907 0
M  V30 14 C 1.2832 -2.6441 0.756326 0 CFG=2
M  V30 15 C 2.32072 -3.64754 1.22716 0
M  V30 16 C 3.71983 -3.21344 1.08794 0
M  V30 17 C 4.40602 -3.42095 -0.118766 0
M  V30 18 C 5.71501 -3.04329 -0.198548 0
M  V30 19 C 6.38843 -2.46538 0.860188 0
M  V30 20 C 5.68321 -2.27784 2.02619 0
M  V30 21 C 4.37473 -2.63999 2.1506 0
M  V30 22 N 1.34681 -1.55704 1.73 0
M  V30 23 C 2.01358 -0.343199 1.66912 0
M  V30 24 O 2.32126 0.231808 2.78989 0
M  V30 25 C 2.45632 0.450724 0.500734 0 CFG=1
M  V30 26 C 1.65329 1.77748 0.63953 0
M  V30 27 S 1.41431 2.59257 -0.936769 0
M  V30 28 S 0.352043 4.39841 -0.583327 0
M  V30 29 C -1.35451 4.27603 -1.18285 0
M  V30 30 C -2.26857 4.32827 0.0352128 0 CFG=2
M  V30 31 N -3.54097 3.69471 -0.161559 0
M  V30 32 C -4.41303 3.00524 0.665667 0
M  V30 33 O -5.54245 3.5789 0.981865 0
M  V30 34 C -4.31645 1.66522 1.2992 0 CFG=1
M  V30 35 N -5.27935 0.74466 0.734283 0
M  V30 36 C -5.18126 -0.297318 -0.161301 0
M  V30 37 O -5.54873 -0.0406892 -1.37524 0
M  V30 38 C -2.9423 1.14885 1.49327 0 CFG=1
M  V30 39 O -2.93234 0.0488309 2.39386 0
M  V30 40 C -2.22124 0.808195 0.231734 0
M  V30 41 C -2.48402 5.76272 0.357491 0
M  V30 42 O -3.40531 6.03939 1.18578 0
M  V30 43 N -1.71676 6.79986 -0.217369 0
M  V30 44 C -2.00364 8.16869 0.178715 0 CFG=1
M  V30 45 C -0.83422 9.05456 -0.0814594 0 CFG=2
M  V30 46 O -1.16679 10.3471 0.362256 0
M  V30 47 C -0.569539 9.09701 -1.58992 0
M  V30 48 C -3.21585 8.59964 -0.678068 0
M  V30 49 O -3.5885 9.89954 -0.407266 0
M  V30 50 N 3.83115 0.89768 0.696308 0
M  V30 51 C 4.84585 0.893621 -0.276697 0
M  V30 52 O 4.58715 0.470653 -1.43013 0
M  V30 53 C 6.22409 1.37233 -0.00758154 0 CFG=1
M  V30 54 C 6.6614 2.49174 -0.915674 0
M  V30 55 C 8.04238 2.87696 -0.502666 0
M  V30 56 C 8.19996 3.86132 0.461656 0
M  V30 57 C 9.45163 4.27041 0.898716 0
M  V30 58 C 10.5809 3.66763 0.346734 0
M  V30 59 C 10.4395 2.69316 -0.607807 0
M  V30 60 C 9.16782 2.30456 -1.02614 0
M  V30 61 N 6.347 1.85164 1.37201 0
M  V30 62 C -1.21862 -4.3192 -1.97464 0
M  V30 63 C -0.338001 -5.44837 -1.70369 0
M  V30 64 C 1.0413 -5.42758 -1.9208 0
M  V30 65 N 1.53027 -6.64803 -1.64202 0
M  V30 66 C 0.570161 -7.4722 -1.25694 0
M  V30 67 C -0.610666 -6.74873 -1.28571 0
M  V30 68 C -1.81096 -7.31503 -0.944446 0
M  V30 69 C -1.84587 -8.64041 -0.56125 0
M  V30 70 C -0.656164 -9.35446 -0.535937 0
M  V30 71 C 0.552941 -8.78275 -0.880018 0
M  V30 72 H -9.61045 -5.46173 -1.6014 0
M  V30 73 H -8.87073 -6.26708 -0.254509 0
M  V30 74 H -7.25659 -4.98783 -2.08675 0
M  V30 75 H -8.16243 -3.70601 -1.2651 0
M  V30 76 H -7.44433 -4.86496 1.01061 0
M  V30 77 H -6.46699 -5.9512 -0.0157967 0
M  V30 78 H -5.10106 -4.20969 0.959664 0
M  V30 79 H -5.07573 -4.2833 -0.841958 0
M  V30 80 H -6.60049 -2.35507 -0.971466 0
M  V30 81 H -6.6638 -2.27367 0.86118 0
M  V30 82 H -4.25806 -1.96559 0.905846 0
M  V30 83 H -4.73373 -2.19388 -2.08348 0
M  V30 84 H -2.68054 -4.42957 -0.505356 0
M  V30 85 H -1.96996 -2.55482 0.881229 0
M  V30 86 H 1.45134 -2.25511 -0.233319 0
M  V30 87 H 2.23321 -4.64019 0.763684 0
M  V30 88 H 2.13946 -3.86261 2.3337 0
M  V30 89 H 3.86823 -3.87513 -0.937867 0
M  V30 90 H 6.2368 -3.20855 -1.14834 0
M  V30 91 H 7.42901 -2.18065 0.748642 0
M  V30 92 H 6.16074 -1.82548 2.89636 0
M  V30 93 H 3.81664 -2.48783 3.09019 0
M  V30 94 H 0.786508 -1.75061 2.63071 0
M  V30 95 H 2.26345 0.00593521 -0.471557 0
M  V30 96 H 0.710323 1.58631 1.15737 0
M  V30 97 H 2.25447 2.45279 1.28627 0
M  V30 98 H -1.49565 3.28515 -1.71711 0
M  V30 99 H -1.5554 5.05819 -1.90233 0
M  V30 100 H -1.71786 3.9028 0.913327 0
M  V30 101 H -3.8777 3.80713 -1.18783 0
M  V30 102 H -4.69999 1.83817 2.37522 0
M  V30 103 H -6.29324 0.965703 1.08715 0
M  V30 104 H -2.36125 1.91616 2.03742 0
M  V30 105 H -3.86253 -0.17853 2.63602 0
M  V30 106 H -1.79098 -0.240044 0.29448 0
M  V30 107 H -2.922 0.918222 -0.624177 0
M  V30 108 H -1.33517 1.42923 0.0288316 0
M  V30 109 H -0.955209 6.67817 -0.906578 0
M  V30 110 H -2.3193 8.22854 1.238 0
M  V30 111 H 0.0437974 8.69721 0.479423 0
M  V30 112 H -1.34335 10.9435 -0.388431 0
M  V30 113 H -1.03994 8.25454 -2.11619 0
M  V30 114 H 0.508159 9.14563 -1.7623 0
M  V30 115 H -1.09592 10.0244 -1.96356 0
M  V30 116 H -3.02484 8.48446 -1.75162 0
M  V30 117 H -4.03705 7.88282 -0.394242 0
M  V30 118 H -4.37739 9.92997 0.171146 0
M  V30 119 H 4.05233 1.25605 1.67634 0
M  V30 120 H 6.93774 0.53293 -0.0902917 0
M  V30 121 H 6.0092 3.36121 -0.791276 0
M  V30 122 H 6.693 2.13464 -1.96253 0
M  V30 123 H 7.29854 4.31537 0.871159 0
M  V30 124 H 9.52206 5.03509 1.64146 0
M  V30 125 H 11.5478 3.98396 0.690688 0
M  V30 126 H 11.3319 2.23561 -1.02665 0
M  V30 127 H 9.07259 1.5221 -1.79281 0
M  V30 128 H 5.63129 2.60287 1.46568 0
M  V30 129 H 6.05572 1.09732 2.03339 0
M  V30 130 H -2.05654 -4.76043 -2.6325 0
M  V30 131 H -0.754127 -3.60027 -2.70837 0
M  V30 132 H 1.6264 -4.58244 -2.25533 0
M  V30 133 H 2.54023 -6.90149 -1.72447 0
M  V30 134 H -2.75358 -6.76333 -0.958997 0
M  V30 135 H -2.77885 -9.15048 -0.276559 0
M  V30 136 H -0.73776 -10.4047 -0.223123 0
M  V30 137 H 1.45691 -9.40186 -0.838588 0
M  V30 END ATOM
M  V30 BEGIN BOND
M  V30 1 1 1 2
M  V30 2 1 2 3
M  V30 3 1 3 4
M  V30 4 1 4 5
M  V30 5 1 5 6
M  V30 6 1 6 7
M  V30 7 1 7 8
M  V30 8 2 8 9
M  V30 9 1 8 10
M  V30 10 1 10 11
M  V30 11 1 11 12
M  V30 12 2 12 13
M  V30 13 1 12 14
M  V30 14 1 14 15
M  V30 15 1 15 16
M  V30 16 2 16 17
M  V30 17 1 17 18
M  V30 18 2 18 19
M  V30 19 1 19 20
M  V30 20 2 20 21
M  V30 21 1 14 22
M  V30 22 1 22 23
M  V30 23 2 23 24
M  V30 24 1 23 25
M  V30 25 1 25 26
M  V30 26 1 26 27
M  V30 27 1 27 28
M  V30 28 1 28 29
M  V30 29 1 29 30
M  V30 30 1 30 31
M  V30 31 1 31 32
M  V30 32 2 32 33
M  V30 33 1 32 34
M  V30 34 1 34 35
M  V30 35 1 35 36
M  V30 36 2 36 37
M  V30 37 1 34 38
M  V30 38 1 38 39
M  V30 39 1 38 40
M  V30 40 1 30 41
M  V30 41 2 41 42
M  V30 42 1 41 43
M  V30 43 1 43 44
M  V30 44 1 44 45
M  V30 45 1 45 46
M  V30 46 1 45 47
M  V30 47 1 44 48
M  V30 48 1 48 49
M  V30 49 1 25 50
M  V30 50 1 50 51
M  V30 51 2 51 52
M  V30 52 1 51 53
M  V30 53 1 53 54
M  V30 54 1 54 55
M  V30 55 2 55 56
M  V30 56 1 56 57
M  V30 57 2 57 58
M  V30 58 1 58 59
M  V30 59 2 59 60
M  V30 60 1 53 61
M  V30 61 1 10 62
M  V30 62 1 62 63
M  V30 63 2 63 64
M  V30 64 1 64 65
M  V30 65 1 65 66
M  V30 66 2 66 67
M  V30 67 1 67 68
M  V30 68 2 68 69
M  V30 69 1 69 70
M  V30 70 2 70 71
M  V30 71 1 36 6
M  V30 72 1 60 55
M  V30 73 1 67 63
M  V30 74 1 21 16
M  V30 75 1 71 66
M  V30 76 1 1 72
M  V30 77 1 1 73
M  V30 78 1 2 74
M  V30 79 1 2 75
M  V30 80 1 3 76
M  V30 81 1 3 77
M  V30 82 1 4 78
M  V30 83 1 4 79
M  V30 84 1 5 80
M  V30 85 1 5 81
M  V30 86 1 6 82 CFG=1
M  V30 87 1 7 83
M  V30 88 1 10 84 CFG=1
M  V30 89 1 11 85
M  V30 90 1 14 86 CFG=3
M  V30 91 1 15 87
M  V30 92 1 15 88
M  V30 93 1 17 89
M  V30 94 1 18 90
M  V30 95 1 19 91
M  V30 96 1 20 92
M  V30 97 1 21 93
M  V30 98 1 22 94
M  V30 99 1 25 95 CFG=3
M  V30 100 1 26 96
M  V30 101 1 26 97
M  V30 102 1 29 98
M  V30 103 1 29 99
M  V30 104 1 30 100 CFG=1
M  V30 105 1 31 101
M  V30 106 1 34 102 CFG=1
M  V30 107 1 35 103
M  V30 108 1 38 104 CFG=1
M  V30 109 1 39 105
M  V30 110 1 40 106
M  V30 111 1 40 107
M  V30 112 1 40 108
M  V30 113 1 43 109
M  V30 114 1 44 110 CFG=1
M  V30 115 1 45 111 CFG=1
M  V30 116 1 46 112
M  V30 117 1 47 113
M  V30 118 1 47 114
M  V30 119 1 47 115
M  V30 120 1 48 116
M  V30 121 1 48 117
M  V30 122 1 49 118
M  V30 123 1 50 119
M  V30 124 1 53 120 CFG=1
M  V30 125 1 54 121
M  V30 126 1 54 122
M  V30 127 1 56 123
M  V30 128 1 57 124
M  V30 129 1 58 125
M  V30 130 1 59 126
M  V30 131 1 60 127
M  V30 132 1 61 128
M  V30 133 1 61 129
M  V30 134 1 62 130
M  V30 135 1 62 131
M  V30 136 1 64 132
M  V30 137 1 65 133
M  V30 138 1 68 134
M  V30 139 1 69 135
M  V30 140 1 70 136
M  V30 141 1 71 137
M  V30 END BOND
M  V30 END CTAB
M  END
