
     RDKit          3D

  0  0  0  0  0  0  0  0  0  0999 V3000
M  V30 BEGIN CTAB
M  V30 COUNTS 24 25 0 0 0
M  V30 BEGIN ATOM
M  V30 1 C 1.43944 -2.13221 -0.018231 0
M  V30 2 C 1.70032 -0.631154 0.127046 0
M  V30 3 C 0.725547 0.284163 0.29833 0
M  V30 4 S 1.71554 1.73583 0.525135 0
M  V30 5 C 3.24131 1.02459 0.373473 0
M  V30 6 N 4.53868 1.66459 0.454267 0
M  V30 7 N 2.94686 -0.230062 0.168199 0
M  V30 8 C -0.738386 0.326104 0.239299 0
M  V30 9 C -1.73142 -0.299899 -0.40507 0
M  V30 10 C -1.50678 -1.4182 -1.41993 0
M  V30 11 N -2.96269 0.118895 -0.207221 0
M  V30 12 C -3.21095 1.12146 0.594507 0
M  V30 13 N -4.49305 1.71617 0.931728 0
M  V30 14 S -1.65511 1.5376 1.1295 0
M  V30 15 H 2.29414 -2.71408 0.404663 0
M  V30 16 H 0.574631 -2.41598 0.566274 0
M  V30 17 H 1.40314 -2.35322 -1.09412 0
M  V30 18 H 5.36942 1.31204 -0.0266638 0
M  V30 19 H 4.61536 2.52657 1.03486 0
M  V30 20 H -2.39322 -1.49942 -2.10403 0
M  V30 21 H -0.59786 -1.18306 -1.99038 0
M  V30 22 H -1.42034 -2.39353 -0.93511 0
M  V30 23 H -4.50179 2.73178 1.06743 0
M  V30 24 H -5.3528 1.17102 1.03337 0
M  V30 END ATOM
M  V30 BEGIN BOND
M  V30 1 1 1 2
M  V30 2 2 2 3
M  V30 3 1 3 4
M  V30 4 1 4 5
M  V30 5 1 5 6
M  V30 6 2 5 7
M  V30 7 1 3 8
M  V30 8 2 8 9
M  V30 9 1 9 10
M  V30 10 1 9 11
M  V30 11 2 11 12
M  V30 12 1 12 13
M  V30 13 1 12 14
M  V30 14 1 7 2
M  V30 15 1 14 8
M  V30 16 1 1 15
M  V30 17 1 1 16
M  V30 18 1 1 17
M  V30 19 1 6 18
M  V30 20 1 6 19
M  V30 21 1 10 20
M  V30 22 1 10 21
M  V30 23 1 10 22
M  V30 24 1 13 23
M  V30 25 1 13 24
M  V30 END BOND
M  V30 END CTAB
M  END
