
     RDKit          3D

  0  0  0  0  0  0  0  0  0  0999 V3000
M  V30 BEGIN CTAB
M  V30 COUNTS 69 70 0 0 0
M  V30 BEGIN ATOM
M  V30 1 N -8.10319 2.39134 -2.44997 0
M  V30 2 C -9.21076 1.67773 -1.96471 0
M  V30 3 C -8.92225 1.00836 -0.643586 0
M  V30 4 C -8.5444 2.02922 0.41968 0
M  V30 5 C -8.25632 1.37401 1.73495 0
M  V30 6 C -7.15473 0.383466 1.74561 0
M  V30 7 C -5.81842 0.893164 1.39265 0
M  V30 8 O -5.66039 2.11299 1.17708 0
M  V30 9 N -4.67841 0.059795 1.28157 0
M  V30 10 C -3.36648 0.570274 0.933418 0
M  V30 11 C -2.37405 -0.503252 0.888425 0
M  V30 12 C -1.572 -1.40221 0.852996 0
M  V30 13 C -0.611593 -2.49143 0.786339 0
M  V30 14 C 0.735457 -2.19205 0.599344 0
M  V30 15 N 1.61445 -3.21806 0.539659 0
M  V30 16 C 3.02488 -2.99819 0.348562 0 CFG=1
M  V30 17 C 3.47024 -3.23624 -1.07094 0
M  V30 18 C 4.73251 -2.3776 -1.17245 0
M  V30 19 C 4.75037 -1.7159 0.179426 0 CFG=1
M  V30 20 C 5.30569 -0.316018 0.0222487 0
M  V30 21 O 4.54819 0.367931 -0.924185 0
M  V30 22 P 5.08795 1.93374 -1.16898 0
M  V30 23 O 4.55281 2.52209 -2.67227 0
M  V30 24 O 4.57209 2.7991 -0.0450332 0
M  V30 25 O 6.77898 2.0265 -1.18897 0
M  V30 26 P 7.34026 3.33514 -0.276833 0
M  V30 27 O 6.52284 4.74935 -0.724736 0
M  V30 28 O 7.06165 3.07059 1.16772 0
M  V30 29 O 8.98175 3.53081 -0.604306 0
M  V30 30 P 9.91907 2.28519 -0.0122682 0
M  V30 31 O 10.6506 1.4989 -1.34109 0
M  V30 32 O 9.01344 1.1174 0.804753 0
M  V30 33 O 11.0431 2.76385 0.879641 0
M  V30 34 O 3.42445 -1.69966 0.599742 0
M  V30 35 C 1.16035 -4.4579 0.660837 0
M  V30 36 O 1.98836 -5.41659 0.604244 0
M  V30 37 N -0.142546 -4.77838 0.843284 0
M  V30 38 C -1.06397 -3.78878 0.91023 0
M  V30 39 N -2.43986 -4.03065 1.09795 0
M  V30 40 H -8.31393 3.28175 -2.80509 0
M  V30 41 H -7.3574 1.91929 -2.86564 0
M  V30 42 H -10.1017 2.33476 -1.81643 0
M  V30 43 H -9.47935 0.910662 -2.69747 0
M  V30 44 H -8.12531 0.264099 -0.809359 0
M  V30 45 H -9.86088 0.521749 -0.315289 0
M  V30 46 H -7.71765 2.64415 0.0928054 0
M  V30 47 H -9.4719 2.65869 0.562558 0
M  V30 48 H -8.12079 2.11778 2.55688 0
M  V30 49 H -9.19874 0.806237 2.00155 0
M  V30 50 H -7.4547 -0.457849 1.05226 0
M  V30 51 H -7.09232 -0.109625 2.76266 0
M  V30 52 H -4.78012 -0.973525 1.45754 0
M  V30 53 H -3.3987 1.0395 -0.0539774 0
M  V30 54 H -3.10375 1.33964 1.6959 0
M  V30 55 H 1.07796 -1.17735 0.503852 0
M  V30 56 H 3.64771 -3.66211 1.00708 0
M  V30 57 H 3.77912 -4.28425 -1.23654 0
M  V30 58 H 2.70818 -2.89155 -1.79534 0
M  V30 59 H 5.64162 -3.00902 -1.29512 0
M  V30 60 H 4.60032 -1.68189 -2.00177 0
M  V30 61 H 5.33783 -2.31365 0.903955 0
M  V30 62 H 6.34286 -0.344727 -0.348601 0
M  V30 63 H 5.27408 0.267772 0.956112 0
M  V30 64 H 5.28043 2.60557 -3.32483 0
M  V30 65 H 7.06618 5.56908 -0.534345 0
M  V30 66 H 10.7885 0.525616 -1.13999 0
M  V30 67 H 9.56098 0.313816 0.94247 0
M  V30 68 H -2.84098 -4.9511 0.863532 0
M  V30 69 H -3.04755 -3.28582 1.4706 0
M  V30 END ATOM
M  V30 BEGIN BOND
M  V30 1 1 1 2
M  V30 2 1 2 3
M  V30 3 1 3 4
M  V30 4 1 4 5
M  V30 5 1 5 6
M  V30 6 1 6 7
M  V30 7 2 7 8
M  V30 8 1 7 9
M  V30 9 1 9 10
M  V30 10 1 10 11
M  V30 11 3 11 12
M  V30 12 1 12 13
M  V30 13 2 13 14
M  V30 14 1 14 15
M  V30 15 1 15 16
M  V30 16 1 16 17
M  V30 17 1 17 18
M  V30 18 1 18 19
M  V30 19 1 19 20
M  V30 20 1 20 21
M  V30 21 1 21 22
M  V30 22 1 22 23
M  V30 23 2 22 24
M  V30 24 1 22 25
M  V30 25 1 25 26
M  V30 26 1 26 27
M  V30 27 2 26 28
M  V30 28 1 26 29
M  V30 29 1 29 30
M  V30 30 1 30 31
M  V30 31 1 30 32
M  V30 32 2 30 33
M  V30 33 1 19 34
M  V30 34 1 15 35
M  V30 35 2 35 36
M  V30 36 1 35 37
M  V30 37 2 37 38
M  V30 38 1 38 39
M  V30 39 1 38 13
M  V30 40 1 34 16
M  V30 41 1 1 40
M  V30 42 1 1 41
M  V30 43 1 2 42
M  V30 44 1 2 43
M  V30 45 1 3 44
M  V30 46 1 3 45
M  V30 47 1 4 46
M  V30 48 1 4 47
M  V30 49 1 5 48
M  V30 50 1 5 49
M  V30 51 1 6 50
M  V30 52 1 6 51
M  V30 53 1 9 52
M  V30 54 1 10 53
M  V30 55 1 10 54
M  V30 56 1 14 55
M  V30 57 1 16 56 CFG=1
M  V30 58 1 17 57
M  V30 59 1 17 58
M  V30 60 1 18 59
M  V30 61 1 18 60
M  V30 62 1 19 61 CFG=1
M  V30 63 1 20 62
M  V30 64 1 20 63
M  V30 65 1 23 64
M  V30 66 1 27 65
M  V30 67 1 31 66
M  V30 68 1 32 67
M  V30 69 1 39 68
M  V30 70 1 39 69
M  V30 END BOND
M  V30 END CTAB
M  END
