
     RDKit          3D

  0  0  0  0  0  0  0  0  0  0999 V3000
M  V30 BEGIN CTAB
M  V30 COUNTS 72 71 0 0 0
M  V30 BEGIN ATOM
M  V30 1 N 6.74201 3.73648 0.752238 0
M  V30 2 C 7.25192 2.95205 1.79259 0 CFG=1
M  V30 3 C 7.09454 1.49632 1.73817 0
M  V30 4 C 5.79685 0.823207 1.67764 0
M  V30 5 C 4.92652 0.971471 0.517675 0
M  V30 6 O 5.12359 1.77181 -0.406229 0
M  V30 7 N 3.72732 0.136025 0.37909 0
M  V30 8 C 2.8815 0.338562 -0.7977 0 CFG=2
M  V30 9 C 1.57322 0.861358 -0.276764 0
M  V30 10 S 0.707813 -0.320553 0.763746 0
M  V30 11 S -0.214761 -1.88538 -0.404679 0
M  V30 12 C -1.9039 -1.20391 -0.85562 0
M  V30 13 C -2.72108 -1.05245 0.343726 0 CFG=1
M  V30 14 N -3.96107 -0.36929 0.0993413 0
M  V30 15 C -4.28223 0.845779 0.721343 0
M  V30 16 O -3.52628 1.36746 1.5449 0
M  V30 17 C -5.60827 1.45478 0.30048 0
M  V30 18 C -5.94912 2.6202 1.16203 0
M  V30 19 C -7.24729 3.25221 0.642119 0 CFG=2
M  V30 20 N -7.55149 4.35809 1.54359 0
M  V30 21 C -8.36364 2.34505 0.52473 0
M  V30 22 O -8.44581 1.37502 -0.472099 0
M  V30 23 O -9.3675 2.35574 1.31254 0
M  V30 24 C -3.09364 -2.34175 1.05695 0
M  V30 25 O -3.10222 -2.43554 2.31772 0
M  V30 26 N -3.4648 -3.43764 0.282293 0
M  V30 27 C -3.87571 -4.71125 0.691217 0
M  V30 28 C -2.92269 -5.55977 1.37893 0
M  V30 29 O -3.39216 -6.81779 1.87846 0
M  V30 30 O -1.73821 -5.25353 1.55556 0
M  V30 31 C 2.75676 -0.892889 -1.57892 0
M  V30 32 O 3.24309 -1.95664 -1.08816 0
M  V30 33 N 2.13593 -0.944693 -2.83104 0
M  V30 34 C 2.04654 -2.22988 -3.5644 0
M  V30 35 C 3.38388 -2.78808 -3.84719 0
M  V30 36 O 3.48676 -4.0393 -4.44688 0
M  V30 37 O 4.4237 -2.16151 -3.56253 0
M  V30 38 C 8.78845 3.1848 1.73763 0
M  V30 39 O 9.52065 2.73332 2.77617 0
M  V30 40 O 9.25338 3.77045 0.735381 0
M  V30 41 H 7.31482 3.67911 -0.0884134 0
M  V30 42 H 6.43478 4.65893 1.01513 0
M  V30 43 H 7.02104 3.41897 2.79294 0
M  V30 44 H 7.73383 1.13676 0.85766 0
M  V30 45 H 7.66528 1.02237 2.61084 0
M  V30 46 H 5.20382 1.03847 2.62933 0
M  V30 47 H 5.98223 -0.304054 1.79654 0
M  V30 48 H 3.53173 -0.533506 1.10708 0
M  V30 49 H 3.33063 1.14627 -1.4466 0
M  V30 50 H 1.7645 1.79606 0.324334 0
M  V30 51 H 0.880773 1.15619 -1.11509 0
M  V30 52 H -2.32219 -1.97639 -1.53543 0
M  V30 53 H -1.76978 -0.309953 -1.47626 0
M  V30 54 H -2.13431 -0.490547 1.15468 0
M  V30 55 H -4.62808 -0.848074 -0.584562 0
M  V30 56 H -6.32531 0.618257 0.356606 0
M  V30 57 H -5.55559 1.76685 -0.791616 0
M  V30 58 H -6.06006 2.32791 2.24208 0
M  V30 59 H -5.16943 3.39725 1.04517 0
M  V30 60 H -6.94593 3.69173 -0.358421 0
M  V30 61 H -7.2947 3.9895 2.50069 0
M  V30 62 H -6.83967 5.1179 1.32384 0
M  V30 63 H -9.03135 0.588939 -0.34229 0
M  V30 64 H -3.47592 -3.27056 -0.801153 0
M  V30 65 H -4.2824 -5.30084 -0.229503 0
M  V30 66 H -4.78069 -4.65488 1.40883 0
M  V30 67 H -3.37329 -7.57638 1.2307 0
M  V30 68 H 1.71231 -0.118302 -3.2896 0
M  V30 69 H 1.45691 -2.951 -2.93759 0
M  V30 70 H 1.45733 -2.04084 -4.47732 0
M  V30 71 H 3.89988 -4.83598 -3.9638 0
M  V30 72 H 10.4663 2.31149 2.6561 0
M  V30 END ATOM
M  V30 BEGIN BOND
M  V30 1 1 1 2
M  V30 2 1 2 3
M  V30 3 1 3 4
M  V30 4 1 4 5
M  V30 5 2 5 6
M  V30 6 1 5 7
M  V30 7 1 7 8
M  V30 8 1 8 9
M  V30 9 1 9 10
M  V30 10 1 10 11
M  V30 11 1 11 12
M  V30 12 1 12 13
M  V30 13 1 13 14
M  V30 14 1 14 15
M  V30 15 2 15 16
M  V30 16 1 15 17
M  V30 17 1 17 18
M  V30 18 1 18 19
M  V30 19 1 19 20
M  V30 20 1 19 21
M  V30 21 1 21 22
M  V30 22 2 21 23
M  V30 23 1 13 24
M  V30 24 2 24 25
M  V30 25 1 24 26
M  V30 26 1 26 27
M  V30 27 1 27 28
M  V30 28 1 28 29
M  V30 29 2 28 30
M  V30 30 1 8 31
M  V30 31 2 31 32
M  V30 32 1 31 33
M  V30 33 1 33 34
M  V30 34 1 34 35
M  V30 35 1 35 36
M  V30 36 2 35 37
M  V30 37 1 2 38
M  V30 38 1 38 39
M  V30 39 2 38 40
M  V30 40 1 1 41
M  V30 41 1 1 42
M  V30 42 1 2 43 CFG=1
M  V30 43 1 3 44
M  V30 44 1 3 45
M  V30 45 1 4 46
M  V30 46 1 4 47
M  V30 47 1 7 48
M  V30 48 1 8 49 CFG=3
M  V30 49 1 9 50
M  V30 50 1 9 51
M  V30 51 1 12 52
M  V30 52 1 12 53
M  V30 53 1 13 54 CFG=1
M  V30 54 1 14 55
M  V30 55 1 17 56
M  V30 56 1 17 57
M  V30 57 1 18 58
M  V30 58 1 18 59
M  V30 59 1 19 60 CFG=3
M  V30 60 1 20 61
M  V30 61 1 20 62
M  V30 62 1 22 63
M  V30 63 1 26 64
M  V30 64 1 27 65
M  V30 65 1 27 66
M  V30 66 1 29 67
M  V30 67 1 33 68
M  V30 68 1 34 69
M  V30 69 1 34 70
M  V30 70 1 36 71
M  V30 71 1 39 72
M  V30 END BOND
M  V30 END CTAB
M  END
