
     RDKit          3D

  0  0  0  0  0  0  0  0  0  0999 V3000
M  V30 BEGIN CTAB
M  V30 COUNTS 34 35 0 0 0
M  V30 BEGIN ATOM
M  V30 1 C -1.63211 -2.1352 -0.485447 0
M  V30 2 N -2.18511 -1.1289 0.35953 0
M  V30 3 C -2.86808 -1.54935 1.5739 0
M  V30 4 C -2.11962 0.254675 0.105179 0
M  V30 5 N -3.22838 1.01116 -0.0394889 0
M  V30 6 C -3.18954 2.33432 -0.282855 0
M  V30 7 N -4.39947 3.07687 -0.425453 0
M  V30 8 N -1.99933 2.96956 -0.393965 0
M  V30 9 C -0.857909 2.29646 -0.264488 0
M  V30 10 N 0.434062 2.92176 -0.373285 0
M  V30 11 C -0.918281 0.945128 -0.0160411 0
M  V30 12 N 0.270764 0.203852 0.126232 0
M  V30 13 N 1.38426 0.561944 -0.363276 0
M  V30 14 C 2.53568 -0.247369 -0.171358 0
M  V30 15 C 3.63879 0.338287 0.384783 0
M  V30 16 C 4.77927 -0.385902 0.596076 0
M  V30 17 C 4.79259 -1.71295 0.237888 0
M  V30 18 Cl 6.29059 -2.60682 0.531105 0
M  V30 19 C 3.6964 -2.32913 -0.324124 0
M  V30 20 C 2.55122 -1.5921 -0.53359 0
M  V30 21 H -2.3615 -2.98623 -0.619373 0
M  V30 22 H -0.717006 -2.6193 -0.0885809 0
M  V30 23 H -1.47358 -1.76378 -1.53943 0
M  V30 24 H -2.9948 -0.711381 2.28469 0
M  V30 25 H -2.35047 -2.39178 2.06704 0
M  V30 26 H -3.90488 -1.83722 1.25919 0
M  V30 27 H -5.2676 2.83487 0.101927 0
M  V30 28 H -4.46675 3.89777 -1.067 0
M  V30 29 H 0.916806 3.25804 0.474673 0
M  V30 30 H 0.912443 3.05186 -1.29182 0
M  V30 31 H 3.61699 1.37273 0.659902 0
M  V30 32 H 5.6602 0.0952526 1.04388 0
M  V30 33 H 3.77382 -3.38031 -0.583858 0
M  V30 34 H 1.68051 -2.04684 -0.97051 0
M  V30 END ATOM
M  V30 BEGIN BOND
M  V30 1 1 1 2
M  V30 2 1 2 3
M  V30 3 1 2 4
M  V30 4 2 4 5
M  V30 5 1 5 6
M  V30 6 1 6 7
M  V30 7 2 6 8
M  V30 8 1 8 9
M  V30 9 1 9 10
M  V30 10 2 9 11
M  V30 11 1 11 12
M  V30 12 2 12 13 CFG=2
M  V30 13 1 13 14
M  V30 14 2 14 15
M  V30 15 1 15 16
M  V30 16 2 16 17
M  V30 17 1 17 18
M  V30 18 1 17 19
M  V30 19 2 19 20
M  V30 20 1 11 4
M  V30 21 1 20 14
M  V30 22 1 1 21
M  V30 23 1 1 22
M  V30 24 1 1 23
M  V30 25 1 3 24
M  V30 26 1 3 25
M  V30 27 1 3 26
M  V30 28 1 7 27
M  V30 29 1 7 28
M  V30 30 1 10 29
M  V30 31 1 10 30
M  V30 32 1 15 31
M  V30 33 1 16 32
M  V30 34 1 19 33
M  V30 35 1 20 34
M  V30 END BOND
M  V30 END CTAB
M  END
