
     RDKit          3D

  0  0  0  0  0  0  0  0  0  0999 V3000
M  V30 BEGIN CTAB
M  V30 COUNTS 26 27 0 0 0
M  V30 BEGIN ATOM
M  V30 1 N -3.20854 2.44494 0.631544 0
M  V30 2 C -3.06713 1.16234 0.0328473 0
M  V30 3 N -4.01498 0.820605 -0.890338 0
M  V30 4 C -3.9982 -0.362294 -1.53055 0
M  V30 5 C -2.98023 -1.24285 -1.228 0
M  V30 6 C -2.00271 -0.937315 -0.301822 0
M  V30 7 C -2.05023 0.284932 0.33631 0
M  V30 8 S -0.842498 0.759022 1.53396 0
M  V30 9 S 0.6209 -0.741293 1.83937 0
M  V30 10 C 2.00191 -0.566399 0.750662 0
M  V30 11 C 1.95208 -1.21149 -0.4679 0
M  V30 12 C 2.9887 -1.11137 -1.34645 0
M  V30 13 C 4.10822 -0.363527 -1.03557 0
M  V30 14 N 4.15201 0.263548 0.153772 0
M  V30 15 C 3.13495 0.170569 1.02609 0
M  V30 16 N 3.19967 0.844275 2.28557 0
M  V30 17 H -2.49956 3.17546 0.373694 0
M  V30 18 H -4.00004 2.63423 1.30441 0
M  V30 19 H -4.77605 -0.603163 -2.26631 0
M  V30 20 H -2.98626 -2.20154 -1.76208 0
M  V30 21 H -1.23379 -1.66975 -0.110465 0
M  V30 22 H 1.09815 -1.80122 -0.743023 0
M  V30 23 H 2.98248 -1.60261 -2.3073 0
M  V30 24 H 4.94171 -0.281308 -1.73859 0
M  V30 25 H 2.49212 1.56787 2.54697 0
M  V30 26 H 3.98733 0.568356 2.91319 0
M  V30 END ATOM
M  V30 BEGIN BOND
M  V30 1 1 1 2
M  V30 2 2 2 3
M  V30 3 1 3 4
M  V30 4 2 4 5
M  V30 5 1 5 6
M  V30 6 2 6 7
M  V30 7 1 7 8
M  V30 8 1 8 9
M  V30 9 1 9 10
M  V30 10 2 10 11
M  V30 11 1 11 12
M  V30 12 2 12 13
M  V30 13 1 13 14
M  V30 14 2 14 15
M  V30 15 1 15 16
M  V30 16 1 7 2
M  V30 17 1 15 10
M  V30 18 1 1 17
M  V30 19 1 1 18
M  V30 20 1 4 19
M  V30 21 1 5 20
M  V30 22 1 6 21
M  V30 23 1 11 22
M  V30 24 1 12 23
M  V30 25 1 13 24
M  V30 26 1 16 25
M  V30 27 1 16 26
M  V30 END BOND
M  V30 END CTAB
M  END
