
     RDKit          3D

  0  0  0  0  0  0  0  0  0  0999 V3000
M  V30 BEGIN CTAB
M  V30 COUNTS 60 63 0 0 0
M  V30 BEGIN ATOM
M  V30 1 C 9.77896 -0.660313 -0.675474 0
M  V30 2 O 8.8362 -0.578547 0.314458 0
M  V30 3 C 8.27495 0.692119 0.469758 0
M  V30 4 C 7.57869 1.1864 -0.762559 0
M  V30 5 O 6.54789 0.426114 -1.20969 0
M  V30 6 C 5.34104 0.121707 -0.672702 0
M  V30 7 C 4.89917 0.608744 0.523658 0
M  V30 8 C 3.64801 0.273302 1.0591 0
M  V30 9 C 2.80188 -0.570029 0.393618 0
M  V30 10 C 3.24923 -1.05717 -0.810581 0
M  V30 11 C 4.46546 -0.745899 -1.3547 0
M  V30 12 N 1.54313 -0.914883 0.904017 0
M  V30 13 C 0.9076 -0.283177 2.04054 0
M  V30 14 C -0.339817 0.385318 1.51069 0
M  V30 15 N -1.09428 -0.362981 0.598977 0
M  V30 16 C -2.4988 -0.435511 0.760313 0
M  V30 17 C -3.09786 0.916848 0.479352 0
M  V30 18 N -4.52162 0.94052 0.616618 0
M  V30 19 N -5.1531 1.22231 1.74208 0
M  V30 20 C -6.48693 1.16629 1.5556 0
M  V30 21 C -6.72122 0.834416 0.25583 0
M  V30 22 C -7.8615 0.633888 -0.50298 0
M  V30 23 N -9.15674 0.770481 0.0693461 0
M  V30 24 N -9.83506 -0.307495 0.660416 0
M  V30 25 N -7.68113 0.306802 -1.79356 0
M  V30 26 C -6.45081 0.172496 -2.35226 0
M  V30 27 N -6.35698 -0.179567 -3.73503 0
M  V30 28 N -5.35632 0.371518 -1.59898 0
M  V30 29 C -5.47177 0.695566 -0.322535 0
M  V30 30 C -0.46491 -1.26302 -0.276002 0
M  V30 31 C 0.724053 -1.97016 0.341387 0
M  V30 32 H 9.40217 -0.412084 -1.66673 0
M  V30 33 H 10.1484 -1.7094 -0.692841 0
M  V30 34 H 10.6541 0.00653098 -0.426283 0
M  V30 35 H 7.60301 0.649317 1.31384 0
M  V30 36 H 9.09803 1.39686 0.745582 0
M  V30 37 H 8.35341 1.30695 -1.58424 0
M  V30 38 H 7.25577 2.24585 -0.521999 0
M  V30 39 H 5.49443 1.29728 1.09471 0
M  V30 40 H 3.38582 0.695804 1.99628 0
M  V30 41 H 2.62351 -1.72497 -1.38491 0
M  V30 42 H 4.80486 -1.14194 -2.31302 0
M  V30 43 H 0.55882 -1.10158 2.72949 0
M  V30 44 H 1.49955 0.431944 2.58772 0
M  V30 45 H 0.00167458 1.3372 1.01917 0
M  V30 46 H -0.949047 0.674724 2.37074 0
M  V30 47 H -2.90464 -1.23819 0.148071 0
M  V30 48 H -2.74763 -0.694407 1.82986 0
M  V30 49 H -2.87939 1.13085 -0.608528 0
M  V30 50 H -2.55842 1.67163 1.06034 0
M  V30 51 H -7.28857 1.34334 2.27137 0
M  V30 52 H -9.64111 1.68481 0.0648301 0
M  V30 53 H -10.3606 -0.872535 -0.0323964 0
M  V30 54 H -9.19877 -0.881766 1.25704 0
M  V30 55 H -5.78984 0.397374 -4.3754 0
M  V30 56 H -6.85326 -1.00945 -4.1027 0
M  V30 57 H -0.0757315 -0.730522 -1.18269 0
M  V30 58 H -1.19611 -2.00824 -0.654984 0
M  V30 59 H 1.20716 -2.64561 -0.341022 0
M  V30 60 H 0.30498 -2.60481 1.17 0
M  V30 END ATOM
M  V30 BEGIN BOND
M  V30 1 1 1 2
M  V30 2 1 2 3
M  V30 3 1 3 4
M  V30 4 1 4 5
M  V30 5 1 5 6
M  V30 6 2 6 7
M  V30 7 1 7 8
M  V30 8 2 8 9
M  V30 9 1 9 10
M  V30 10 2 10 11
M  V30 11 1 9 12
M  V30 12 1 12 13
M  V30 13 1 13 14
M  V30 14 1 14 15
M  V30 15 1 15 16
M  V30 16 1 16 17
M  V30 17 1 17 18
M  V30 18 1 18 19
M  V30 19 2 19 20
M  V30 20 1 20 21
M  V30 21 2 21 22
M  V30 22 1 22 23
M  V30 23 1 23 24
M  V30 24 1 22 25
M  V30 25 2 25 26
M  V30 26 1 26 27
M  V30 27 1 26 28
M  V30 28 2 28 29
M  V30 29 1 15 30
M  V30 30 1 30 31
M  V30 31 1 11 6
M  V30 32 1 31 12
M  V30 33 1 29 18
M  V30 34 1 29 21
M  V30 35 1 1 32
M  V30 36 1 1 33
M  V30 37 1 1 34
M  V30 38 1 3 35
M  V30 39 1 3 36
M  V30 40 1 4 37
M  V30 41 1 4 38
M  V30 42 1 7 39
M  V30 43 1 8 40
M  V30 44 1 10 41
M  V30 45 1 11 42
M  V30 46 1 13 43
M  V30 47 1 13 44
M  V30 48 1 14 45
M  V30 49 1 14 46
M  V30 50 1 16 47
M  V30 51 1 16 48
M  V30 52 1 17 49
M  V30 53 1 17 50
M  V30 54 1 20 51
M  V30 55 1 23 52
M  V30 56 1 24 53
M  V30 57 1 24 54
M  V30 58 1 27 55
M  V30 59 1 27 56
M  V30 60 1 30 57
M  V30 61 1 30 58
M  V30 62 1 31 59
M  V30 63 1 31 60
M  V30 END BOND
M  V30 END CTAB
M  END
