
     RDKit          3D

  0  0  0  0  0  0  0  0  0  0999 V3000
M  V30 BEGIN CTAB
M  V30 COUNTS 82 89 0 0 0
M  V30 BEGIN ATOM
M  V30 1 N 8.23275 2.21691 -2.24842 0
M  V30 2 C 7.38543 1.53614 -1.3309 0
M  V30 3 C 7.92438 0.587759 -0.489397 0
M  V30 4 C 9.36909 0.295073 -0.582171 0
M  V30 5 O 10.0739 0.938069 -1.42123 0
M  V30 6 C 9.9509 -0.714488 0.281415 0
M  V30 7 C 11.2924 -1.0225 0.232106 0
M  V30 8 C 11.8334 -1.99295 1.06632 0
M  V30 9 C 11.0385 -2.65362 1.94698 0
M  V30 10 C 9.68162 -2.35694 2.01209 0
M  V30 11 C 9.14865 -1.38685 1.17586 0
M  V30 12 C 7.69853 -1.11311 1.28971 0
M  V30 13 O 7.04278 -1.77092 2.12399 0
M  V30 14 C 7.13146 -0.0992269 0.420895 0
M  V30 15 C 5.76585 0.209948 0.451518 0
M  V30 16 C 5.24831 1.17981 -0.418268 0
M  V30 17 C 6.05404 1.83101 -1.29685 0
M  V30 18 S 5.42862 3.05707 -2.4071 0
M  V30 19 O 3.94375 3.20896 -2.23275 0
M  V30 20 O 5.6463 2.58129 -3.82561 0
M  V30 21 O 6.16659 4.53451 -2.15408 0
M  V30 22 N 4.9404 -0.367587 1.42369 0
M  V30 23 C 3.52526 -0.464726 1.26617 0
M  V30 24 C 2.90731 -0.660617 0.0767807 0
M  V30 25 C 1.51407 -0.735162 -0.0309727 0
M  V30 26 C 0.704847 -0.612357 1.07568 0
M  V30 27 C 1.34352 -0.413875 2.28051 0
M  V30 28 C 2.6977 -0.340023 2.39293 0
M  V30 29 C -0.743644 -0.690282 0.945217 0
M  V30 30 C -1.42384 -0.259037 -0.175402 0
M  V30 31 C -2.80102 -0.344018 -0.271963 0
M  V30 32 C -3.50122 -0.864499 0.76178 0
M  V30 33 C -2.83859 -1.30824 1.9063 0
M  V30 34 C -1.46951 -1.21811 1.98924 0
M  V30 35 N -4.92231 -0.971401 0.750857 0
M  V30 36 C -5.80747 -0.0822299 0.106214 0
M  V30 37 C -5.39806 1.2371 -0.10003 0
M  V30 38 C -6.27711 2.18201 -0.638557 0
M  V30 39 C -7.56224 1.83005 -0.97443 0
M  V30 40 C -7.9839 0.527783 -0.777054 0
M  V30 41 C -7.1098 -0.41652 -0.241794 0
M  V30 42 C -7.6314 -1.75205 -0.0936663 0
M  V30 43 O -6.92886 -2.67037 0.368274 0
M  V30 44 C -9.00741 -2.15467 -0.466942 0
M  V30 45 C -9.44769 -3.44377 -0.300712 0
M  V30 46 C -10.7314 -3.84226 -0.642949 0
M  V30 47 C -11.564 -2.87239 -1.16719 0
M  V30 48 C -11.1348 -1.5731 -1.33983 0
M  V30 49 C -9.839 -1.19532 -0.988368 0
M  V30 50 C -9.35318 0.163474 -1.15699 0
M  V30 51 O -10.1424 1.01313 -1.63756 0
M  V30 52 N -8.42175 2.82287 -1.51696 0
M  V30 53 S -5.68383 3.80007 -0.862479 0
M  V30 54 O -4.27833 3.90226 -0.356923 0
M  V30 55 O -5.77018 4.2039 -2.30845 0
M  V30 56 O -6.60512 4.9094 0.0372951 0
M  V30 57 H 8.7666 3.06557 -2.00057 0
M  V30 58 H 8.31397 1.83796 -3.20915 0
M  V30 59 H 11.9364 -0.506497 -0.46139 0
M  V30 60 H 12.8844 -2.22791 1.02119 0
M  V30 61 H 11.4415 -3.41982 2.61234 0
M  V30 62 H 9.05324 -2.89125 2.72037 0
M  V30 63 H 4.21035 1.42953 -0.373999 0
M  V30 64 H 6.84485 4.44251 -1.44132 0
M  V30 65 H 5.29579 -0.712582 2.32288 0
M  V30 66 H 3.49419 -0.774744 -0.836518 0
M  V30 67 H 1.03667 -0.891289 -0.988742 0
M  V30 68 H 0.752965 -0.308778 3.19692 0
M  V30 69 H 3.20419 -0.184256 3.3382 0
M  V30 70 H -0.876518 0.160809 -1.01344 0
M  V30 71 H -3.27722 0.00992213 -1.19575 0
M  V30 72 H -3.41575 -1.72304 2.7245 0
M  V30 73 H -0.948505 -1.55351 2.8578 0
M  V30 74 H -5.32683 -1.76456 1.31264 0
M  V30 75 H -4.4043 1.54884 0.17722 0
M  V30 76 H -8.76686 -4.16475 0.109575 0
M  V30 77 H -11.0763 -4.85917 -0.511797 0
M  V30 78 H -12.5933 -3.11781 -1.45988 0
M  V30 79 H -11.7758 -0.796038 -1.7514 0
M  V30 80 H -8.63975 2.88995 -2.53438 0
M  V30 81 H -8.8519 3.51594 -0.855244 0
M  V30 82 H -6.59431 4.58957 0.973264 0
M  V30 END ATOM
M  V30 BEGIN BOND
M  V30 1 1 1 2
M  V30 2 2 2 3
M  V30 3 1 3 4
M  V30 4 2 4 5
M  V30 5 1 4 6
M  V30 6 2 6 7
M  V30 7 1 7 8
M  V30 8 2 8 9
M  V30 9 1 9 10
M  V30 10 2 10 11
M  V30 11 1 11 12
M  V30 12 2 12 13
M  V30 13 1 12 14
M  V30 14 2 14 15
M  V30 15 1 15 16
M  V30 16 2 16 17
M  V30 17 1 17 18
M  V30 18 2 18 19
M  V30 19 2 18 20
M  V30 20 1 18 21
M  V30 21 1 15 22
M  V30 22 1 22 23
M  V30 23 2 23 24
M  V30 24 1 24 25
M  V30 25 2 25 26
M  V30 26 1 26 27
M  V30 27 2 27 28
M  V30 28 1 26 29
M  V30 29 2 29 30
M  V30 30 1 30 31
M  V30 31 2 31 32
M  V30 32 1 32 33
M  V30 33 2 33 34
M  V30 34 1 32 35
M  V30 35 1 35 36
M  V30 36 2 36 37
M  V30 37 1 37 38
M  V30 38 2 38 39
M  V30 39 1 39 40
M  V30 40 2 40 41
M  V30 41 1 41 42
M  V30 42 2 42 43
M  V30 43 1 42 44
M  V30 44 2 44 45
M  V30 45 1 45 46
M  V30 46 2 46 47
M  V30 47 1 47 48
M  V30 48 2 48 49
M  V30 49 1 49 50
M  V30 50 2 50 51
M  V30 51 1 39 52
M  V30 52 1 38 53
M  V30 53 2 53 54
M  V30 54 2 53 55
M  V30 55 1 53 56
M  V30 56 1 17 2
M  V30 57 1 28 23
M  V30 58 1 34 29
M  V30 59 1 41 36
M  V30 60 1 49 44
M  V30 61 1 14 3
M  V30 62 1 50 40
M  V30 63 1 11 6
M  V30 64 1 1 57
M  V30 65 1 1 58
M  V30 66 1 7 59
M  V30 67 1 8 60
M  V30 68 1 9 61
M  V30 69 1 10 62
M  V30 70 1 16 63
M  V30 71 1 21 64
M  V30 72 1 22 65
M  V30 73 1 24 66
M  V30 74 1 25 67
M  V30 75 1 27 68
M  V30 76 1 28 69
M  V30 77 1 30 70
M  V30 78 1 31 71
M  V30 79 1 33 72
M  V30 80 1 34 73
M  V30 81 1 35 74
M  V30 82 1 37 75
M  V30 83 1 45 76
M  V30 84 1 46 77
M  V30 85 1 47 78
M  V30 86 1 48 79
M  V30 87 1 52 80
M  V30 88 1 52 81
M  V30 89 1 56 82
M  V30 END BOND
M  V30 END CTAB
M  END
