
     RDKit          3D

  0  0  0  0  0  0  0  0  0  0999 V3000
M  V30 BEGIN CTAB
M  V30 COUNTS 19 20 0 0 0
M  V30 BEGIN ATOM
M  V30 1 Cl 4.04982 2.29363 -0.0390824 0
M  V30 2 C 2.969 0.913386 0.073412 0
M  V30 3 C 3.39649 -0.373446 0.2834 0
M  V30 4 C 2.26042 -1.1731 0.31123 0
M  V30 5 C 1.19944 -0.318233 0.114825 0
M  V30 6 O 1.66246 0.887678 -0.0187072 0
M  V30 7 C -0.2245 -0.715841 0.0657503 0
M  V30 8 N -0.721192 -1.9425 0.199695 0
M  V30 9 N -2.03979 -1.88225 0.0947588 0
M  V30 10 C -2.38597 -0.61443 -0.106629 0
M  V30 11 N -1.27616 0.1007 -0.124647 0
M  V30 12 N -1.16696 1.50025 -0.310982 0
M  V30 13 N -3.69197 -0.0555514 -0.279876 0
M  V30 14 H 4.40315 -0.743395 0.408496 0
M  V30 15 H 2.21112 -2.2462 0.45663 0
M  V30 16 H -1.47831 1.9189 -1.20196 0
M  V30 17 H -0.780449 2.12693 0.425312 0
M  V30 18 H -4.12057 0.578261 0.440167 0
M  V30 19 H -4.26602 -0.254786 -1.12341 0
M  V30 END ATOM
M  V30 BEGIN BOND
M  V30 1 1 1 2
M  V30 2 2 2 3
M  V30 3 1 3 4
M  V30 4 2 4 5
M  V30 5 1 5 6
M  V30 6 1 5 7
M  V30 7 2 7 8
M  V30 8 1 8 9
M  V30 9 2 9 10
M  V30 10 1 10 11
M  V30 11 1 11 12
M  V30 12 1 10 13
M  V30 13 1 6 2
M  V30 14 1 11 7
M  V30 15 1 3 14
M  V30 16 1 4 15
M  V30 17 1 12 16
M  V30 18 1 12 17
M  V30 19 1 13 18
M  V30 20 1 13 19
M  V30 END BOND
M  V30 END CTAB
M  END
