
     RDKit          3D

  0  0  0  0  0  0  0  0  0  0999 V3000
M  V30 BEGIN CTAB
M  V30 COUNTS 40 42 0 0 0
M  V30 BEGIN ATOM
M  V30 1 C 2.75419 -0.644605 0.938346 0 CFG=2
M  V30 2 C 1.74403 -1.69535 0.722973 0
M  V30 3 C 0.544163 -0.822022 0.126942 0 CFG=1
M  V30 4 O 0.090842 -0.0367374 1.10768 0
M  V30 5 C -1.0605 -0.172116 1.72694 0
M  V30 6 C -2.36985 -0.038597 1.10972 0
M  V30 7 C -2.66756 -0.195269 -0.208309 0
M  V30 8 C -3.95923 -0.0473056 -0.732746 0
M  V30 9 N -4.21367 -0.223211 -2.12207 0
M  V30 10 C -4.96495 0.273688 0.142764 0
M  V30 11 C -4.72463 0.44398 1.48154 0
M  V30 12 C -3.45434 0.290834 1.9564 0
M  V30 13 C 1.34061 -0.114249 -0.921927 0 CFG=1
M  V30 14 N 1.75089 -1.06484 -1.89616 0
M  V30 15 C 0.687573 1.04988 -1.53019 0
M  V30 16 O 0.541261 1.07754 -2.92811 0
M  V30 17 O 0.246695 2.02867 -0.890114 0
M  V30 18 C 2.53532 0.378943 -0.0930735 0 CFG=2
M  V30 19 C 3.80514 -0.356832 -0.109197 0 CFG=2
M  V30 20 F 4.08999 -1.29622 -1.05615 0
M  V30 21 C 5.00816 0.389946 0.393014 0
M  V30 22 O 4.93629 1.08766 1.58914 0
M  V30 23 O 6.08167 0.399552 -0.245703 0
M  V30 24 H 3.009 -0.414428 1.96444 0
M  V30 25 H 1.37176 -2.18162 1.61704 0
M  V30 26 H 2.03497 -2.33206 -0.115921 0
M  V30 27 H -0.0988162 -1.60299 -0.291595 0
M  V30 28 H -1.08221 -1.2067 2.26352 0
M  V30 29 H -1.04802 0.49849 2.68301 0
M  V30 30 H -1.92683 -0.441761 -0.928173 0
M  V30 31 H -3.45631 -0.589126 -2.7336 0
M  V30 32 H -5.14656 0.0142915 -2.50172 0
M  V30 33 H -5.97981 0.400175 -0.217361 0
M  V30 34 H -5.49201 0.699805 2.2102 0
M  V30 35 H -3.20492 0.411636 3.00304 0
M  V30 36 H 2.30813 -0.702642 -2.67931 0
M  V30 37 H 1.09185 -1.81915 -2.11299 0
M  V30 38 H 1.22648 1.60813 -3.46495 0
M  V30 39 H 2.45812 1.41602 0.264981 0
M  V30 40 H 5.19311 0.658758 2.47766 0
M  V30 END ATOM
M  V30 BEGIN BOND
M  V30 1 1 1 2
M  V30 2 1 2 3
M  V30 3 1 3 4
M  V30 4 1 4 5
M  V30 5 1 5 6
M  V30 6 2 6 7
M  V30 7 1 7 8
M  V30 8 1 8 9
M  V30 9 2 8 10
M  V30 10 1 10 11
M  V30 11 2 11 12
M  V30 12 1 3 13
M  V30 13 1 13 14
M  V30 14 1 13 15 CFG=3
M  V30 15 1 15 16
M  V30 16 2 15 17
M  V30 17 1 13 18
M  V30 18 1 18 19
M  V30 19 1 19 20 CFG=3
M  V30 20 1 19 21
M  V30 21 1 21 22
M  V30 22 2 21 23
M  V30 23 1 18 1
M  V30 24 1 19 1
M  V30 25 1 12 6
M  V30 26 1 1 24 CFG=1
M  V30 27 1 2 25
M  V30 28 1 2 26
M  V30 29 1 3 27 CFG=3
M  V30 30 1 5 28
M  V30 31 1 5 29
M  V30 32 1 7 30
M  V30 33 1 9 31
M  V30 34 1 9 32
M  V30 35 1 10 33
M  V30 36 1 11 34
M  V30 37 1 12 35
M  V30 38 1 14 36
M  V30 39 1 14 37
M  V30 40 1 16 38
M  V30 41 1 18 39 CFG=1
M  V30 42 1 22 40
M  V30 END BOND
M  V30 END CTAB
M  END
