
     RDKit          3D

  0  0  0  0  0  0  0  0  0  0999 V3000
M  V30 BEGIN CTAB
M  V30 COUNTS 34 35 0 0 0
M  V30 BEGIN ATOM
M  V30 1 C -1.76878 -1.52141 1.45638 0
M  V30 2 C -1.87608 -0.691521 0.229038 0
M  V30 3 C -2.16203 -1.64348 -0.948813 0
M  V30 4 N -3.11538 0.0983332 0.333909 0
M  V30 5 C -3.23727 1.30106 0.0466236 0
M  V30 6 N -4.50071 2.02135 0.154344 0
M  V30 7 N -2.11138 2.07543 -0.393457 0
M  V30 8 C -0.983207 1.5398 -0.461274 0
M  V30 9 N 0.130123 2.28229 -0.879097 0
M  V30 10 N -0.763931 0.122577 -0.0573441 0
M  V30 11 C 0.634667 -0.128303 0.0236669 0
M  V30 12 C 1.40518 0.33382 1.05814 0
M  V30 13 C 2.77613 0.186666 1.0141 0
M  V30 14 C 3.41755 -0.415245 -0.0433415 0
M  V30 15 C 2.67391 -0.889208 -1.09259 0
M  V30 16 C 1.26698 -0.74535 -1.04911 0
M  V30 17 C 4.91877 -0.459428 -0.10886 0
M  V30 18 F 5.36088 -1.71903 0.141295 0
M  V30 19 F 5.29223 -0.167462 -1.41951 0
M  V30 20 F 5.51106 0.481869 0.68535 0
M  V30 21 H -2.77796 -1.57326 1.97926 0
M  V30 22 H -1.03074 -1.18145 2.17845 0
M  V30 23 H -1.60874 -2.60195 1.18446 0
M  V30 24 H -1.52741 -2.52132 -0.962963 0
M  V30 25 H -2.05218 -1.00536 -1.85904 0
M  V30 26 H -3.22841 -1.90881 -0.860244 0
M  V30 27 H -5.41273 1.58487 -0.0241902 0
M  V30 28 H -4.50237 3.02742 0.388045 0
M  V30 29 H 0.745413 2.78719 -0.16929 0
M  V30 30 H 0.44659 2.42808 -1.88707 0
M  V30 31 H 0.899375 0.821669 1.90346 0
M  V30 32 H 3.37004 0.589076 1.83478 0
M  V30 33 H 3.10993 -1.37729 -1.95618 0
M  V30 34 H 0.700491 -1.13163 -1.89015 0
M  V30 END ATOM
M  V30 BEGIN BOND
M  V30 1 1 1 2
M  V30 2 1 2 3
M  V30 3 1 2 4
M  V30 4 2 4 5
M  V30 5 1 5 6
M  V30 6 1 5 7
M  V30 7 2 7 8
M  V30 8 1 8 9
M  V30 9 1 8 10
M  V30 10 1 10 11
M  V30 11 2 11 12
M  V30 12 1 12 13
M  V30 13 2 13 14
M  V30 14 1 14 15
M  V30 15 2 15 16
M  V30 16 1 14 17
M  V30 17 1 17 18
M  V30 18 1 17 19
M  V30 19 1 17 20
M  V30 20 1 10 2
M  V30 21 1 16 11
M  V30 22 1 1 21
M  V30 23 1 1 22
M  V30 24 1 1 23
M  V30 25 1 3 24
M  V30 26 1 3 25
M  V30 27 1 3 26
M  V30 28 1 6 27
M  V30 29 1 6 28
M  V30 30 1 9 29
M  V30 31 1 9 30
M  V30 32 1 12 31
M  V30 33 1 13 32
M  V30 34 1 15 33
M  V30 35 1 16 34
M  V30 END BOND
M  V30 END CTAB
M  END
