
     RDKit          3D

  0  0  0  0  0  0  0  0  0  0999 V3000
M  V30 BEGIN CTAB
M  V30 COUNTS 89 93 0 0 0
M  V30 BEGIN ATOM
M  V30 1 C -2.39998 1.53962 -1.24189 0 CFG=2
M  V30 2 C -3.48348 0.553707 -0.836221 0
M  V30 3 C -3.13517 -0.846675 -1.28543 0
M  V30 4 C -4.20038 -1.8027 -0.864892 0
M  V30 5 O -5.28839 -1.33055 -0.48107 0
M  V30 6 N -3.92782 -3.18124 -0.918776 0
M  V30 7 C -4.94475 -4.13803 -0.527826 0
M  V30 8 C -4.91105 -5.32594 -1.42731 0
M  V30 9 C -4.69759 -4.49443 0.893947 0
M  V30 10 C -5.75222 -4.51774 1.77598 0
M  V30 11 C -5.62064 -4.83311 3.11164 0
M  V30 12 C -4.38071 -5.14374 3.60913 0
M  V30 13 C -3.30528 -5.13093 2.76016 0
M  V30 14 C -3.45989 -4.80885 1.41072 0
M  V30 15 N -1.11002 1.28532 -0.688029 0
M  V30 16 C -0.759232 0.589036 0.47766 0
M  V30 17 O -1.61246 0.101816 1.24167 0
M  V30 18 C 0.638373 0.388685 0.868454 0
M  V30 19 C 1.03425 0.198713 2.17569 0
M  V30 20 C 2.36105 -0.0273362 2.52235 0
M  V30 21 C 3.3417 -0.0710764 1.56439 0
M  V30 22 C 2.9591 0.120068 0.244162 0
M  V30 23 C 1.6448 0.343787 -0.0949249 0
M  V30 24 N 4.72909 -0.318241 1.88143 0
M  V30 25 C 5.15165 -1.69745 2.02704 0
M  V30 26 C 5.67487 0.740037 2.04314 0
M  V30 27 C 7.01941 0.168597 2.28598 0
M  V30 28 N 7.79259 -0.171224 1.22294 0
M  V30 29 C 9.01916 -0.691738 1.35697 0
M  V30 30 C 9.55452 -0.906658 2.60498 0
M  V30 31 N 8.78715 -0.568844 3.67367 0
M  V30 32 C 7.55195 -0.0449132 3.53552 0
M  V30 33 N 10.7943 -1.43504 2.75639 0
M  V30 34 C 11.5556 -1.77311 1.6807 0
M  V30 35 N 12.8527 -2.32475 1.83418 0
M  V30 36 N 11.0242 -1.56023 0.465367 0
M  V30 37 C 9.80524 -1.0413 0.255898 0
M  V30 38 N 9.23913 -0.81256 -1.02655 0
M  V30 39 C -2.81673 2.94149 -1.25495 0
M  V30 40 O -2.00531 3.83248 -0.815516 0
M  V30 41 N -4.05871 3.44346 -1.71215 0
M  V30 42 C -4.42282 4.83576 -1.70086 0
M  V30 43 C -5.47817 5.13204 -0.649769 0
M  V30 44 C -4.89241 5.35893 -2.99779 0
M  V30 45 C -5.78626 4.64655 -3.7558 0
M  V30 46 C -6.24876 5.11172 -4.97017 0
M  V30 47 C -5.80655 6.3246 -5.44457 0
M  V30 48 C -4.91732 7.05528 -4.7124 0
M  V30 49 C -4.4557 6.57105 -3.48068 0
M  V30 50 H -2.26926 1.21665 -2.3545 0
M  V30 51 H -4.44414 0.792532 -1.35567 0
M  V30 52 H -3.72171 0.534077 0.224523 0
M  V30 53 H -3.22367 -0.869419 -2.4359 0
M  V30 54 H -2.12291 -1.18256 -1.09839 0
M  V30 55 H -3.00367 -3.51699 -1.23664 0
M  V30 56 H -5.96711 -3.65754 -0.5934 0
M  V30 57 H -5.46584 -5.19133 -2.37196 0
M  V30 58 H -5.30344 -6.25194 -0.949278 0
M  V30 59 H -3.85361 -5.55382 -1.74766 0
M  V30 60 H -6.74314 -4.26439 1.36366 0
M  V30 61 H -6.49841 -4.83185 3.75697 0
M  V30 62 H -4.26046 -5.39816 4.67124 0
M  V30 63 H -2.33255 -5.38207 3.18007 0
M  V30 64 H -2.59101 -4.80144 0.745805 0
M  V30 65 H -0.244736 1.67844 -1.21686 0
M  V30 66 H 0.251944 0.233535 2.92995 0
M  V30 67 H 2.62451 -0.171611 3.56175 0
M  V30 68 H 3.75841 0.080243 -0.478977 0
M  V30 69 H 1.36586 0.486923 -1.1382 0
M  V30 70 H 5.34422 -1.9371 3.09684 0
M  V30 71 H 5.97905 -1.98172 1.35658 0
M  V30 72 H 4.29594 -2.34308 1.73363 0
M  V30 73 H 5.38085 1.4321 2.85693 0
M  V30 74 H 5.72821 1.27981 1.05331 0
M  V30 75 H 6.9488 0.221137 4.41083 0
M  V30 76 H 13.4821 -2.08669 2.63134 0
M  V30 77 H 13.2121 -2.99524 1.13518 0
M  V30 78 H 8.95847 -1.65013 -1.61069 0
M  V30 79 H 9.06991 0.105303 -1.45867 0
M  V30 80 H -4.74852 2.76021 -2.07919 0
M  V30 81 H -3.49344 5.37946 -1.35257 0
M  V30 82 H -5.48076 4.24816 0.0376741 0
M  V30 83 H -5.20703 6.05584 -0.136499 0
M  V30 84 H -6.47449 5.14894 -1.11687 0
M  V30 85 H -6.14851 3.67233 -3.38599 0
M  V30 86 H -6.96109 4.51539 -5.54304 0
M  V30 87 H -6.15502 6.72608 -6.40734 0
M  V30 88 H -4.58463 8.0085 -5.10688 0
M  V30 89 H -3.75423 7.20705 -2.96368 0
M  V30 END ATOM
M  V30 BEGIN BOND
M  V30 1 1 1 2
M  V30 2 1 2 3
M  V30 3 1 3 4
M  V30 4 2 4 5
M  V30 5 1 4 6
M  V30 6 1 6 7
M  V30 7 1 7 8
M  V30 8 1 7 9
M  V30 9 2 9 10
M  V30 10 1 10 11
M  V30 11 2 11 12
M  V30 12 1 12 13
M  V30 13 2 13 14
M  V30 14 1 1 15
M  V30 15 1 15 16
M  V30 16 2 16 17
M  V30 17 1 16 18
M  V30 18 2 18 19
M  V30 19 1 19 20
M  V30 20 2 20 21
M  V30 21 1 21 22
M  V30 22 2 22 23
M  V30 23 1 21 24
M  V30 24 1 24 25
M  V30 25 1 24 26
M  V30 26 1 26 27
M  V30 27 2 27 28
M  V30 28 1 28 29
M  V30 29 2 29 30
M  V30 30 1 30 31
M  V30 31 2 31 32
M  V30 32 1 30 33
M  V30 33 2 33 34
M  V30 34 1 34 35
M  V30 35 1 34 36
M  V30 36 2 36 37
M  V30 37 1 37 38
M  V30 38 1 1 39
M  V30 39 2 39 40
M  V30 40 1 39 41
M  V30 41 1 41 42
M  V30 42 1 42 43
M  V30 43 1 42 44
M  V30 44 2 44 45
M  V30 45 1 45 46
M  V30 46 2 46 47
M  V30 47 1 47 48
M  V30 48 2 48 49
M  V30 49 1 14 9
M  V30 50 1 23 18
M  V30 51 1 32 27
M  V30 52 1 49 44
M  V30 53 1 37 29
M  V30 54 1 1 50 CFG=3
M  V30 55 1 2 51
M  V30 56 1 2 52
M  V30 57 1 3 53
M  V30 58 1 3 54
M  V30 59 1 6 55
M  V30 60 1 7 56
M  V30 61 1 8 57
M  V30 62 1 8 58
M  V30 63 1 8 59
M  V30 64 1 10 60
M  V30 65 1 11 61
M  V30 66 1 12 62
M  V30 67 1 13 63
M  V30 68 1 14 64
M  V30 69 1 15 65
M  V30 70 1 19 66
M  V30 71 1 20 67
M  V30 72 1 22 68
M  V30 73 1 23 69
M  V30 74 1 25 70
M  V30 75 1 25 71
M  V30 76 1 25 72
M  V30 77 1 26 73
M  V30 78 1 26 74
M  V30 79 1 32 75
M  V30 80 1 35 76
M  V30 81 1 35 77
M  V30 82 1 38 78
M  V30 83 1 38 79
M  V30 84 1 41 80
M  V30 85 1 42 81
M  V30 86 1 43 82
M  V30 87 1 43 83
M  V30 88 1 43 84
M  V30 89 1 45 85
M  V30 90 1 46 86
M  V30 91 1 47 87
M  V30 92 1 48 88
M  V30 93 1 49 89
M  V30 END BOND
M  V30 END CTAB
M  END
