
     RDKit          3D

  0  0  0  0  0  0  0  0  0  0999 V3000
M  V30 BEGIN CTAB
M  V30 COUNTS 50 51 0 0 0
M  V30 BEGIN ATOM
M  V30 1 C 7.77779 -2.13637 -0.0822272 0
M  V30 2 C 6.67212 -1.36769 0.607022 0
M  V30 3 N 7.06279 0.0227436 0.802306 0
M  V30 4 S 5.78917 0.902088 1.59467 0
M  V30 5 O 5.50509 0.339815 2.93669 0
M  V30 6 O 6.20296 2.33272 1.76811 0
M  V30 7 C 4.34588 0.89279 0.597776 0
M  V30 8 C 4.16569 1.90419 -0.318471 0
M  V30 9 C 3.06417 1.96039 -1.1289 0
M  V30 10 C 2.06837 0.973366 -1.05003 0
M  V30 11 C 2.2553 -0.0229348 -0.140546 0
M  V30 12 C 3.38665 -0.0748955 0.687166 0
M  V30 13 S 1.07629 -1.32353 0.0462527 0
M  V30 14 S -0.614068 -1.15392 -1.16883 0
M  V30 15 C -1.94584 -0.256328 -0.416074 0
M  V30 16 C -3.10728 -0.0670668 -1.16216 0
M  V30 17 C -4.1987 0.612963 -0.6661 0
M  V30 18 C -4.1042 1.11219 0.621443 0
M  V30 19 C -2.95522 0.925554 1.36116 0
M  V30 20 C -1.84862 0.237762 0.86249 0
M  V30 21 N -0.699666 0.0802274 1.68439 0
M  V30 22 S -5.65639 0.846234 -1.61285 0
M  V30 23 O -6.29421 2.17474 -1.32075 0
M  V30 24 O -5.26283 0.79256 -3.07914 0
M  V30 25 N -6.75794 -0.464636 -1.3556 0
M  V30 26 C -7.16567 -0.542413 0.03375 0
M  V30 27 C -8.12322 -1.71889 0.139839 0
M  V30 28 N 0.932905 1.03381 -1.89727 0
M  V30 29 H 7.71431 -3.22742 0.150029 0
M  V30 30 H 8.78305 -1.78073 0.268113 0
M  V30 31 H 7.76966 -2.02038 -1.1671 0
M  V30 32 H 5.78295 -1.42009 -0.0870392 0
M  V30 33 H 6.40866 -1.82062 1.58373 0
M  V30 34 H 7.90506 0.00918644 1.41731 0
M  V30 35 H 4.91296 2.67857 -0.404022 0
M  V30 36 H 2.89992 2.74411 -1.85603 0
M  V30 37 H 3.50983 -0.874681 1.39827 0
M  V30 38 H -3.19603 -0.458081 -2.18582 0
M  V30 39 H -4.96801 1.64238 0.99474 0
M  V30 40 H -2.90452 1.32746 2.3716 0
M  V30 41 H -0.0122705 0.85083 1.83127 0
M  V30 42 H -0.50306 -0.818135 2.1772 0
M  V30 43 H -7.60053 -0.316726 -1.9205 0
M  V30 44 H -6.2853 -0.671367 0.682119 0
M  V30 45 H -7.70324 0.366343 0.37333 0
M  V30 46 H -8.82242 -1.70139 -0.720405 0
M  V30 47 H -8.68159 -1.66312 1.09417 0
M  V30 48 H -7.5622 -2.68968 0.0578714 0
M  V30 49 H 0.16688 1.68766 -1.6384 0
M  V30 50 H 0.814588 0.472255 -2.76454 0
M  V30 END ATOM
M  V30 BEGIN BOND
M  V30 1 1 1 2
M  V30 2 1 2 3
M  V30 3 1 3 4
M  V30 4 2 4 5
M  V30 5 2 4 6
M  V30 6 1 4 7
M  V30 7 2 7 8
M  V30 8 1 8 9
M  V30 9 2 9 10
M  V30 10 1 10 11
M  V30 11 2 11 12
M  V30 12 1 11 13
M  V30 13 1 13 14
M  V30 14 1 14 15
M  V30 15 2 15 16
M  V30 16 1 16 17
M  V30 17 2 17 18
M  V30 18 1 18 19
M  V30 19 2 19 20
M  V30 20 1 20 21
M  V30 21 1 17 22
M  V30 22 2 22 23
M  V30 23 2 22 24
M  V30 24 1 22 25
M  V30 25 1 25 26
M  V30 26 1 26 27
M  V30 27 1 10 28
M  V30 28 1 12 7
M  V30 29 1 20 15
M  V30 30 1 1 29
M  V30 31 1 1 30
M  V30 32 1 1 31
M  V30 33 1 2 32
M  V30 34 1 2 33
M  V30 35 1 3 34
M  V30 36 1 8 35
M  V30 37 1 9 36
M  V30 38 1 12 37
M  V30 39 1 16 38
M  V30 40 1 18 39
M  V30 41 1 19 40
M  V30 42 1 21 41
M  V30 43 1 21 42
M  V30 44 1 25 43
M  V30 45 1 26 44
M  V30 46 1 26 45
M  V30 47 1 27 46
M  V30 48 1 27 47
M  V30 49 1 27 48
M  V30 50 1 28 49
M  V30 51 1 28 50
M  V30 END BOND
M  V30 END CTAB
M  END
