
     RDKit          3D

  0  0  0  0  0  0  0  0  0  0999 V3000
M  V30 BEGIN CTAB
M  V30 COUNTS 19 19 0 0 0
M  V30 BEGIN ATOM
M  V30 1 C 3.31258 0.462447 -0.216256 0
M  V30 2 O 2.54104 -0.703208 -0.0461909 0
M  V30 3 C 1.14586 -0.630383 0.0173652 0
M  V30 4 N 0.548342 0.557004 -0.0847766 0
M  V30 5 C -0.788889 0.726077 -0.0349699 0
M  V30 6 N -1.33902 2.02495 -0.152012 0
M  V30 7 C -1.56767 -0.399081 0.130946 0
M  V30 8 N -2.98034 -0.259124 0.187886 0
M  V30 9 C -0.929405 -1.62799 0.235644 0
M  V30 10 O -1.62065 -2.67581 0.38842 0
M  V30 11 N 0.418797 -1.73981 0.178861 0
M  V30 12 H 4.33353 0.143762 -0.487317 0
M  V30 13 H 3.27909 1.0949 0.69199 0
M  V30 14 H 2.818 1.05278 -1.02518 0
M  V30 15 H -1.28721 2.7381 0.606601 0
M  V30 16 H -1.8243 2.2881 -1.04499 0
M  V30 17 H -3.54937 -0.809201 0.873115 0
M  V30 18 H -3.43033 0.408404 -0.474293 0
M  V30 19 H 0.919953 -2.65192 0.25516 0
M  V30 END ATOM
M  V30 BEGIN BOND
M  V30 1 1 1 2
M  V30 2 1 2 3
M  V30 3 2 3 4
M  V30 4 1 4 5
M  V30 5 1 5 6
M  V30 6 2 5 7
M  V30 7 1 7 8
M  V30 8 1 7 9
M  V30 9 2 9 10
M  V30 10 1 9 11
M  V30 11 1 11 3
M  V30 12 1 1 12
M  V30 13 1 1 13
M  V30 14 1 1 14
M  V30 15 1 6 15
M  V30 16 1 6 16
M  V30 17 1 8 17
M  V30 18 1 8 18
M  V30 19 1 11 19
M  V30 END BOND
M  V30 END CTAB
M  END
