
     RDKit          3D

  0  0  0  0  0  0  0  0  0  0999 V3000
M  V30 BEGIN CTAB
M  V30 COUNTS 106 108 0 0 0
M  V30 BEGIN ATOM
M  V30 1 C -5.7733 1.78537 0.329834 0 CFG=1
M  V30 2 N -6.16829 2.77609 1.2865 0
M  V30 3 C -5.17092 2.37757 -0.938068 0
M  V30 4 C -6.04928 3.2826 -1.70724 0
M  V30 5 C -7.34566 2.65726 -2.19125 0
M  V30 6 C -6.3054 4.62386 -1.09552 0
M  V30 7 C -4.64634 1.0118 0.969903 0
M  V30 8 O -4.15513 1.40301 2.01882 0
M  V30 9 N -4.18536 -0.154504 0.317677 0
M  V30 10 C -3.07122 -0.920261 0.875272 0 CFG=1
M  V30 11 C -3.50546 -2.28467 1.27837 0
M  V30 12 C -4.57082 -2.36266 2.2911 0
M  V30 13 C -4.35724 -2.463 3.68697 0
M  V30 14 N -5.52663 -2.46821 4.30979 0
M  V30 15 C -6.54167 -2.37788 3.43213 0
M  V30 16 C -5.95716 -2.31306 2.17826 0
M  V30 17 C -6.74151 -2.23185 1.06908 0
M  V30 18 C -8.11973 -2.21175 1.18237 0
M  V30 19 C -8.69582 -2.27352 2.41668 0
M  V30 20 C -7.91769 -2.35674 3.56311 0
M  V30 21 C -1.98897 -1.02771 -0.190126 0
M  V30 22 O -2.32176 -1.28636 -1.34861 0
M  V30 23 N -0.637148 -0.831297 0.146378 0
M  V30 24 C 0.468698 -0.942038 -0.855159 0 CFG=1
M  V30 25 C 0.303344 0.360944 -1.65117 0
M  V30 26 C 1.20751 0.541767 -2.79737 0
M  V30 27 S 1.0243 -0.575009 -4.16172 0
M  V30 28 C 1.35538 -2.29155 -3.89202 0
M  V30 29 C 1.72717 -0.959083 -0.13193 0
M  V30 30 O 1.67701 -0.708197 1.15077 0
M  V30 31 N 3.04866 -1.205 -0.579796 0
M  V30 32 C 4.13702 -1.11581 0.417764 0 CFG=1
M  V30 33 C 5.08013 -2.24849 0.407338 0
M  V30 34 C 4.6643 -3.63165 0.649786 0
M  V30 35 C 3.6999 -4.26737 -0.288587 0
M  V30 36 N 3.48546 -5.63603 0.19971 0
M  V30 37 C 2.65318 -6.57738 -0.457548 0
M  V30 38 N 1.86079 -7.51799 0.25764 0
M  V30 39 N 2.61288 -6.58572 -1.74259 0
M  V30 40 C 5.01246 0.0777106 0.0132959 0
M  V30 41 O 5.4093 0.114797 -1.16583 0
M  V30 42 N 5.34134 1.07442 0.932771 0
M  V30 43 C 6.18908 2.22542 0.707859 0 CFG=1
M  V30 44 C 5.6855 3.08167 -0.438065 0
M  V30 45 C 6.55647 4.26175 -0.628313 0
M  V30 46 C 6.22423 5.54279 -0.18739 0
M  V30 47 C 7.04909 6.62778 -0.366715 0
M  V30 48 C 8.27757 6.45115 -1.01844 0
M  V30 49 C 8.63665 5.207 -1.46434 0
M  V30 50 C 7.78372 4.12197 -1.27038 0
M  V30 51 C 6.48206 2.95165 1.92417 0
M  V30 52 O 7.34467 3.99059 2.08707 0
M  V30 53 O 5.84967 2.56609 2.98871 0
M  V30 54 H -6.57616 1.09747 0.0795722 0
M  V30 55 H -7.1902 2.91783 1.27722 0
M  V30 56 H -5.63657 3.65195 1.29685 0
M  V30 57 H -4.84994 1.54374 -1.57125 0
M  V30 58 H -4.24708 2.97042 -0.658304 0
M  V30 59 H -5.48038 3.51727 -2.67673 0
M  V30 60 H -7.15042 1.62033 -2.50169 0
M  V30 61 H -7.70616 3.24526 -3.06825 0
M  V30 62 H -8.16218 2.75836 -1.4345 0
M  V30 63 H -6.54708 5.34737 -1.9348 0
M  V30 64 H -5.45544 5.07417 -0.584493 0
M  V30 65 H -7.20091 4.59049 -0.441048 0
M  V30 66 H -4.64822 -0.45778 -0.558482 0
M  V30 67 H -2.70329 -0.380804 1.76399 0
M  V30 68 H -2.64903 -2.93295 1.59705 0
M  V30 69 H -3.90903 -2.83746 0.373679 0
M  V30 70 H -3.3683 -2.52461 4.10062 0
M  V30 71 H -5.65649 -2.531 5.33097 0
M  V30 72 H -6.33397 -2.19368 0.053317 0
M  V30 73 H -8.73516 -2.14747 0.281394 0
M  V30 74 H -9.77781 -2.26095 2.53107 0
M  V30 75 H -8.36373 -2.40847 4.54591 0
M  V30 76 H -0.360301 -0.603417 1.10685 0
M  V30 77 H 0.234888 -1.73273 -1.52198 0
M  V30 78 H 0.530674 1.18142 -0.910043 0
M  V30 79 H -0.772326 0.481229 -1.89049 0
M  V30 80 H 2.26834 0.505556 -2.42721 0
M  V30 81 H 1.13403 1.62099 -3.16098 0
M  V30 82 H 1.60803 -2.74006 -4.91267 0
M  V30 83 H 0.460973 -2.88741 -3.5867 0
M  V30 84 H 2.24827 -2.53363 -3.28846 0
M  V30 85 H 3.24067 -1.43532 -1.55158 0
M  V30 86 H 3.70756 -0.863726 1.37222 0
M  V30 87 H 5.98735 -2.05601 1.04933 0
M  V30 88 H 5.54781 -2.24011 -0.647729 0
M  V30 89 H 4.40175 -3.83886 1.72405 0
M  V30 90 H 5.62451 -4.25835 0.533812 0
M  V30 91 H 2.72941 -3.80116 -0.393802 0
M  V30 92 H 4.17639 -4.41655 -1.30009 0
M  V30 93 H 3.9596 -5.95486 1.07851 0
M  V30 94 H 1.91618 -7.63596 1.30164 0
M  V30 95 H 1.19623 -8.12715 -0.253051 0
M  V30 96 H 3.13915 -5.96054 -2.3657 0
M  V30 97 H 4.93622 1.04006 1.93188 0
M  V30 98 H 7.14098 1.77538 0.251413 0
M  V30 99 H 4.65295 3.43808 -0.293154 0
M  V30 100 H 5.72699 2.45297 -1.38312 0
M  V30 101 H 5.26672 5.69561 0.317108 0
M  V30 102 H 6.78842 7.6218 -0.0220228 0
M  V30 103 H 8.90154 7.32264 -1.14833 0
M  V30 104 H 9.59319 5.08711 -1.96511 0
M  V30 105 H 8.12497 3.16412 -1.64022 0
M  V30 106 H 7.14134 4.7491 2.75216 0
M  V30 END ATOM
M  V30 BEGIN BOND
M  V30 1 1 1 2
M  V30 2 1 1 3
M  V30 3 1 3 4
M  V30 4 1 4 5
M  V30 5 1 4 6
M  V30 6 1 1 7
M  V30 7 2 7 8
M  V30 8 1 7 9
M  V30 9 1 9 10
M  V30 10 1 10 11
M  V30 11 1 11 12
M  V30 12 2 12 13
M  V30 13 1 13 14
M  V30 14 1 14 15
M  V30 15 2 15 16
M  V30 16 1 16 17
M  V30 17 2 17 18
M  V30 18 1 18 19
M  V30 19 2 19 20
M  V30 20 1 10 21
M  V30 21 2 21 22
M  V30 22 1 21 23
M  V30 23 1 23 24
M  V30 24 1 24 25
M  V30 25 1 25 26
M  V30 26 1 26 27
M  V30 27 1 27 28
M  V30 28 1 24 29
M  V30 29 2 29 30
M  V30 30 1 29 31
M  V30 31 1 31 32
M  V30 32 1 32 33
M  V30 33 1 33 34
M  V30 34 1 34 35
M  V30 35 1 35 36
M  V30 36 1 36 37
M  V30 37 1 37 38
M  V30 38 2 37 39 CFG=2
M  V30 39 1 32 40
M  V30 40 2 40 41
M  V30 41 1 40 42
M  V30 42 1 42 43
M  V30 43 1 43 44
M  V30 44 1 44 45
M  V30 45 2 45 46
M  V30 46 1 46 47
M  V30 47 2 47 48
M  V30 48 1 48 49
M  V30 49 2 49 50
M  V30 50 1 43 51
M  V30 51 1 51 52
M  V30 52 2 51 53
M  V30 53 1 16 12
M  V30 54 1 50 45
M  V30 55 1 20 15
M  V30 56 1 1 54 CFG=3
M  V30 57 1 2 55
M  V30 58 1 2 56
M  V30 59 1 3 57
M  V30 60 1 3 58
M  V30 61 1 4 59
M  V30 62 1 5 60
M  V30 63 1 5 61
M  V30 64 1 5 62
M  V30 65 1 6 63
M  V30 66 1 6 64
M  V30 67 1 6 65
M  V30 68 1 9 66
M  V30 69 1 10 67 CFG=1
M  V30 70 1 11 68
M  V30 71 1 11 69
M  V30 72 1 13 70
M  V30 73 1 14 71
M  V30 74 1 17 72
M  V30 75 1 18 73
M  V30 76 1 19 74
M  V30 77 1 20 75
M  V30 78 1 23 76
M  V30 79 1 24 77 CFG=3
M  V30 80 1 25 78
M  V30 81 1 25 79
M  V30 82 1 26 80
M  V30 83 1 26 81
M  V30 84 1 28 82
M  V30 85 1 28 83
M  V30 86 1 28 84
M  V30 87 1 31 85
M  V30 88 1 32 86 CFG=1
M  V30 89 1 33 87
M  V30 90 1 33 88
M  V30 91 1 34 89
M  V30 92 1 34 90
M  V30 93 1 35 91
M  V30 94 1 35 92
M  V30 95 1 36 93
M  V30 96 1 38 94
M  V30 97 1 38 95
M  V30 98 1 39 96
M  V30 99 1 42 97
M  V30 100 1 43 98 CFG=3
M  V30 101 1 44 99
M  V30 102 1 44 100
M  V30 103 1 46 101
M  V30 104 1 47 102
M  V30 105 1 48 103
M  V30 106 1 49 104
M  V30 107 1 50 105
M  V30 108 1 52 106
M  V30 END BOND
M  V30 END CTAB
M  END
