
     RDKit          3D

  0  0  0  0  0  0  0  0  0  0999 V3000
M  V30 BEGIN CTAB
M  V30 COUNTS 19 19 0 0 0
M  V30 BEGIN ATOM
M  V30 1 N 2.72584 -1.2132 0.0883389 0
M  V30 2 C 1.67156 -0.269613 0.0214449 0
M  V30 3 C 1.93974 1.08872 -0.0702985 0
M  V30 4 C 0.923438 2.0124 -0.135755 0
M  V30 5 C -0.405236 1.56999 -0.109057 0
M  V30 6 C -0.735228 0.238962 -0.0193324 0
M  V30 7 C 0.359113 -0.650418 0.043994 0
M  V30 8 C -2.07432 -0.306702 0.0142676 0
M  V30 9 N -3.15276 0.263092 -0.0274447 0
M  V30 10 N -2.16429 -1.76762 0.113637 0
M  V30 11 Cl -1.68224 2.76721 -0.193758 0
M  V30 12 H 3.52927 -1.04731 0.724502 0
M  V30 13 H 2.72991 -2.08001 -0.482185 0
M  V30 14 H 2.95724 1.43551 -0.0912937 0
M  V30 15 H 1.0948 3.08023 -0.207976 0
M  V30 16 H 0.168963 -1.71227 0.115773 0
M  V30 17 H -3.49837 1.1692 -0.0901154 0
M  V30 18 H -2.73498 -2.2989 -0.554536 0
M  V30 19 H -1.65245 -2.27926 0.859795 0
M  V30 END ATOM
M  V30 BEGIN BOND
M  V30 1 1 1 2
M  V30 2 2 2 3
M  V30 3 1 3 4
M  V30 4 2 4 5
M  V30 5 1 5 6
M  V30 6 2 6 7
M  V30 7 1 6 8
M  V30 8 2 8 9 CFG=2
M  V30 9 1 8 10
M  V30 10 1 5 11
M  V30 11 1 7 2
M  V30 12 1 1 12
M  V30 13 1 1 13
M  V30 14 1 3 14
M  V30 15 1 4 15
M  V30 16 1 7 16
M  V30 17 1 9 17
M  V30 18 1 10 18
M  V30 19 1 10 19
M  V30 END BOND
M  V30 END CTAB
M  END
