
     RDKit          3D

  0  0  0  0  0  0  0  0  0  0999 V3000
M  V30 BEGIN CTAB
M  V30 COUNTS 39 40 0 0 0
M  V30 BEGIN ATOM
M  V30 1 N 4.31336 1.54468 0.377975 0
M  V30 2 C 3.08856 1.1674 1.01483 0
M  V30 3 C 2.83126 -0.319335 0.865252 0
M  V30 4 C 2.72624 -0.763208 -0.552294 0
M  V30 5 C 1.28168 -0.782775 -0.904448 0
M  V30 6 N 0.551071 -0.470235 0.306899 0
M  V30 7 C 1.47 -0.654731 1.45544 0
M  V30 8 C -0.790051 -0.0584504 0.500584 0
M  V30 9 O -1.14902 0.150191 1.72093 0
M  V30 10 C -1.81147 0.156462 -0.521622 0
M  V30 11 N -1.46174 -0.0786028 -1.86867 0
M  V30 12 C -3.03567 -0.688604 -0.144647 0
M  V30 13 C -3.75282 0.0552517 0.930171 0
M  V30 14 C -3.34844 1.49923 0.764703 0
M  V30 15 C -2.43707 1.5527 -0.419346 0
M  V30 16 C 0.931542 -2.16817 -1.4213 0
M  V30 17 H 4.26583 1.63757 -0.63948 0
M  V30 18 H 4.86224 2.26206 0.875869 0
M  V30 19 H 2.21296 1.75878 0.715375 0
M  V30 20 H 3.2075 1.34245 2.12141 0
M  V30 21 H 3.5741 -0.901367 1.44272 0
M  V30 22 H 3.34494 -0.15124 -1.24793 0
M  V30 23 H 3.15964 -1.79699 -0.598325 0
M  V30 24 H 1.06184 -0.0390256 -1.72023 0
M  V30 25 H 1.20018 0.0434916 2.26188 0
M  V30 26 H 1.39614 -1.71945 1.75787 0
M  V30 27 H -1.88558 -0.894679 -2.32509 0
M  V30 28 H -1.63421 0.750014 -2.47385 0
M  V30 29 H -3.68738 -0.774855 -1.03951 0
M  V30 30 H -2.7108 -1.70293 0.151919 0
M  V30 31 H -3.5621 -0.297988 1.94977 0
M  V30 32 H -4.85788 -0.0754672 0.758784 0
M  V30 33 H -4.26161 2.10287 0.580808 0
M  V30 34 H -2.87553 1.91577 1.66933 0
M  V30 35 H -3.08903 1.63593 -1.33268 0
M  V30 36 H -1.68559 2.33835 -0.366863 0
M  V30 37 H 0.768533 -2.17229 -2.51795 0
M  V30 38 H 0.0218628 -2.56317 -0.924438 0
M  V30 39 H 1.76652 -2.83964 -1.20385 0
M  V30 END ATOM
M  V30 BEGIN BOND
M  V30 1 1 1 2
M  V30 2 1 2 3
M  V30 3 1 3 4
M  V30 4 1 4 5
M  V30 5 1 5 6
M  V30 6 1 6 7
M  V30 7 1 6 8
M  V30 8 2 8 9
M  V30 9 1 8 10
M  V30 10 1 10 11
M  V30 11 1 10 12
M  V30 12 1 12 13
M  V30 13 1 13 14
M  V30 14 1 14 15
M  V30 15 1 5 16
M  V30 16 1 7 3
M  V30 17 1 15 10
M  V30 18 1 1 17
M  V30 19 1 1 18
M  V30 20 1 2 19
M  V30 21 1 2 20
M  V30 22 1 3 21
M  V30 23 1 4 22
M  V30 24 1 4 23
M  V30 25 1 5 24
M  V30 26 1 7 25
M  V30 27 1 7 26
M  V30 28 1 11 27
M  V30 29 1 11 28
M  V30 30 1 12 29
M  V30 31 1 12 30
M  V30 32 1 13 31
M  V30 33 1 13 32
M  V30 34 1 14 33
M  V30 35 1 14 34
M  V30 36 1 15 35
M  V30 37 1 15 36
M  V30 38 1 16 37
M  V30 39 1 16 38
M  V30 40 1 16 39
M  V30 END BOND
M  V30 END CTAB
M  END
