
     RDKit          3D

  0  0  0  0  0  0  0  0  0  0999 V3000
M  V30 BEGIN CTAB
M  V30 COUNTS 25 25 0 0 0
M  V30 BEGIN ATOM
M  V30 1 N -1.95261 1.54498 -0.0533453 0
M  V30 2 C -1.2541 0.738631 0.93079 0
M  V30 3 C -1.22819 -0.708856 0.533818 0
M  V30 4 C -0.514162 -0.817004 -0.800152 0
M  V30 5 C 0.870246 -0.272922 -0.5679 0
M  V30 6 C 1.92218 -0.890548 0.0586956 0
M  V30 7 N 3.03609 -0.24036 0.151833 0
M  V30 8 C 3.12776 0.9832 -0.352215 0
M  V30 9 S 1.55991 1.23532 -0.993804 0
M  V30 10 N 4.27447 1.86584 -0.349619 0
M  V30 11 O -0.471003 -2.11295 -1.25949 0
M  V30 12 C -2.63791 -1.23666 0.468358 0
M  V30 13 H -2.43548 0.996198 -0.775799 0
M  V30 14 H -2.58429 2.20876 0.450047 0
M  V30 15 H -1.7841 0.804012 1.90805 0
M  V30 16 H -0.239061 1.12512 1.03943 0
M  V30 17 H -0.705385 -1.2689 1.32721 0
M  V30 18 H -0.969498 -0.180112 -1.56861 0
M  V30 19 H 1.78916 -1.91737 0.462681 0
M  V30 20 H 4.76781 2.04024 -1.24283 0
M  V30 21 H 4.57239 2.2965 0.528005 0
M  V30 22 H -0.127484 -2.11725 -2.17236 0
M  V30 23 H -2.653 -2.34391 0.519141 0
M  V30 24 H -3.20346 -0.856314 -0.40215 0
M  V30 25 H -3.16028 -0.875668 1.39434 0
M  V30 END ATOM
M  V30 BEGIN BOND
M  V30 1 1 1 2
M  V30 2 1 2 3
M  V30 3 1 3 4
M  V30 4 1 4 5
M  V30 5 2 5 6
M  V30 6 1 6 7
M  V30 7 2 7 8
M  V30 8 1 8 9
M  V30 9 1 8 10
M  V30 10 1 4 11
M  V30 11 1 3 12
M  V30 12 1 9 5
M  V30 13 1 1 13
M  V30 14 1 1 14
M  V30 15 1 2 15
M  V30 16 1 2 16
M  V30 17 1 3 17
M  V30 18 1 4 18
M  V30 19 1 6 19
M  V30 20 1 10 20
M  V30 21 1 10 21
M  V30 22 1 11 22
M  V30 23 1 12 23
M  V30 24 1 12 24
M  V30 25 1 12 25
M  V30 END BOND
M  V30 END CTAB
M  END
