
     RDKit          3D

  0  0  0  0  0  0  0  0  0  0999 V3000
M  V30 BEGIN CTAB
M  V30 COUNTS 56 60 0 0 0
M  V30 BEGIN ATOM
M  V30 1 F -7.37607 2.84959 -2.6047 0
M  V30 2 C -6.53566 2.39659 -1.63446 0
M  V30 3 C -5.65524 3.23723 -1.02829 0
M  V30 4 C -4.81392 2.76403 -0.0508435 0
M  V30 5 C -4.84173 1.45284 0.330751 0
M  V30 6 C -5.73094 0.603259 -0.281289 0
M  V30 7 C -6.59528 1.07091 -1.27972 0
M  V30 8 S -3.78617 0.874679 1.55227 0
M  V30 9 O -4.45011 -0.249985 2.3174 0
M  V30 10 O -3.49374 1.9492 2.57067 0
M  V30 11 C -2.2702 0.295611 0.951709 0
M  V30 12 C -1.08655 0.981653 0.753192 0
M  V30 13 N -0.927217 2.35334 1.03083 0
M  V30 14 N -0.200266 0.0911956 0.270488 0
M  V30 15 C -0.737975 -1.12135 0.146341 0
M  V30 16 C -2.04 -1.0081 0.571195 0
M  V30 17 N -2.80036 -2.13187 0.536201 0
M  V30 18 C -2.32824 -3.3076 0.112191 0
M  V30 19 C -3.11554 -4.44031 0.0832959 0
M  V30 20 C -2.63884 -5.66218 -0.3531 0
M  V30 21 C -1.32667 -5.75258 -0.775617 0
M  V30 22 C -0.537395 -4.62158 -0.747732 0
M  V30 23 C -1.0178 -3.38895 -0.307647 0
M  V30 24 N -0.222935 -2.30389 -0.292405 0
M  V30 25 C 1.16437 0.449426 -0.061324 0
M  V30 26 C 2.03615 0.246973 1.18317 0
M  V30 27 C 3.44288 0.604118 0.882009 0
M  V30 28 C 4.2917 -0.3707 0.410369 0
M  V30 29 C 5.61802 -0.112375 0.107337 0
M  V30 30 C 6.09919 1.15746 0.283874 0
M  V30 31 C 5.27541 2.16401 0.756336 0
M  V30 32 C 3.94468 1.8753 1.05318 0
M  V30 33 S 7.78051 1.50405 -0.0955809 0
M  V30 34 O 8.60065 0.271172 0.132961 0
M  V30 35 O 8.23301 2.58714 0.835428 0
M  V30 36 N 7.90153 1.98812 -1.74676 0
M  V30 37 H -5.62042 4.30469 -1.32695 0
M  V30 38 H -4.11973 3.4859 0.408675 0
M  V30 39 H -5.82226 -0.447733 -0.0435016 0
M  V30 40 H -7.30482 0.426516 -1.77855 0
M  V30 41 H -0.204248 2.63597 1.72704 0
M  V30 42 H -1.48062 3.11956 0.59111 0
M  V30 43 H -4.14385 -4.38466 0.410793 0
M  V30 44 H -3.2385 -6.55023 -0.381126 0
M  V30 45 H -0.912873 -6.70003 -1.1275 0
M  V30 46 H 0.496788 -4.67462 -1.0764 0
M  V30 47 H 1.25704 1.53281 -0.315276 0
M  V30 48 H 1.56368 -0.12518 -0.903157 0
M  V30 49 H 2.02787 -0.807182 1.5012 0
M  V30 50 H 1.67675 0.939789 1.95808 0
M  V30 51 H 3.95858 -1.39423 0.252979 0
M  V30 52 H 6.27112 -0.888153 -0.261822 0
M  V30 53 H 5.6723 3.1597 0.889345 0
M  V30 54 H 3.28192 2.64137 1.42264 0
M  V30 55 H 8.18284 2.98831 -1.74793 0
M  V30 56 H 8.59918 1.44095 -2.28208 0
M  V30 END ATOM
M  V30 BEGIN BOND
M  V30 1 1 1 2
M  V30 2 2 2 3
M  V30 3 1 3 4
M  V30 4 2 4 5
M  V30 5 1 5 6
M  V30 6 2 6 7
M  V30 7 1 5 8
M  V30 8 2 8 9
M  V30 9 2 8 10
M  V30 10 1 8 11
M  V30 11 2 11 12
M  V30 12 1 12 13
M  V30 13 1 12 14
M  V30 14 1 14 15
M  V30 15 2 15 16
M  V30 16 1 16 17
M  V30 17 2 17 18
M  V30 18 1 18 19
M  V30 19 2 19 20
M  V30 20 1 20 21
M  V30 21 2 21 22
M  V30 22 1 22 23
M  V30 23 2 23 24
M  V30 24 1 14 25
M  V30 25 1 25 26
M  V30 26 1 26 27
M  V30 27 2 27 28
M  V30 28 1 28 29
M  V30 29 2 29 30
M  V30 30 1 30 31
M  V30 31 2 31 32
M  V30 32 1 30 33
M  V30 33 2 33 34
M  V30 34 2 33 35
M  V30 35 1 33 36
M  V30 36 1 7 2
M  V30 37 1 16 11
M  V30 38 1 23 18
M  V30 39 1 32 27
M  V30 40 1 24 15
M  V30 41 1 3 37
M  V30 42 1 4 38
M  V30 43 1 6 39
M  V30 44 1 7 40
M  V30 45 1 13 41
M  V30 46 1 13 42
M  V30 47 1 19 43
M  V30 48 1 20 44
M  V30 49 1 21 45
M  V30 50 1 22 46
M  V30 51 1 25 47
M  V30 52 1 25 48
M  V30 53 1 26 49
M  V30 54 1 26 50
M  V30 55 1 28 51
M  V30 56 1 29 52
M  V30 57 1 31 53
M  V30 58 1 32 54
M  V30 59 1 36 55
M  V30 60 1 36 56
M  V30 END BOND
M  V30 END CTAB
M  END
