
     RDKit          3D

  0  0  0  0  0  0  0  0  0  0999 V3000
M  V30 BEGIN CTAB
M  V30 COUNTS 32 33 0 0 0
M  V30 BEGIN ATOM
M  V30 1 C -3.91885 -2.59294 0.56755 0
M  V30 2 O -2.82309 -1.71808 0.384182 0
M  V30 3 C -3.09884 -0.39064 0.0915516 0
M  V30 4 C -4.40394 0.067297 -0.0184611 0
M  V30 5 C -4.60701 1.39727 -0.311117 0
M  V30 6 C -3.56222 2.2729 -0.494971 0
M  V30 7 C -2.26357 1.76949 -0.375047 0
M  V30 8 C -2.0307 0.45321 -0.0851541 0
M  V30 9 C -0.660112 -0.0703793 0.0396562 0
M  V30 10 S 0.507007 1.25841 -0.242637 0
M  V30 11 C 2.20268 0.699741 -0.109125 0
M  V30 12 N 2.85039 0.229325 -1.20874 0
M  V30 13 C 4.10552 -0.203746 -1.19976 0
M  V30 14 N 4.78513 -0.695789 -2.34737 0
M  V30 15 C 4.7865 -0.166911 0.0207255 0
M  V30 16 C 4.15848 0.307554 1.16899 0
M  V30 17 N 2.89337 0.715731 1.03318 0
M  V30 18 N 4.87323 0.335848 2.40247 0
M  V30 19 Br -3.91091 4.09453 -0.896257 0
M  V30 20 H -4.38352 -2.79161 -0.417359 0
M  V30 21 H -3.53724 -3.56798 0.97914 0
M  V30 22 H -4.63918 -2.18565 1.31305 0
M  V30 23 H -5.21673 -0.629538 0.128 0
M  V30 24 H -5.62575 1.78522 -0.40368 0
M  V30 25 H -1.47668 2.48852 -0.526634 0
M  V30 26 H -0.547031 -0.886864 -0.716591 0
M  V30 27 H -0.557477 -0.550312 1.03085 0
M  V30 28 H 4.68176 -0.143821 -3.22662 0
M  V30 29 H 5.36572 -1.5461 -2.3782 0
M  V30 30 H 5.81935 -0.506025 0.105437 0
M  V30 31 H 5.37752 -0.478946 2.78204 0
M  V30 32 H 4.85617 1.25026 2.9109 0
M  V30 END ATOM
M  V30 BEGIN BOND
M  V30 1 1 1 2
M  V30 2 1 2 3
M  V30 3 2 3 4
M  V30 4 1 4 5
M  V30 5 2 5 6
M  V30 6 1 6 7
M  V30 7 2 7 8
M  V30 8 1 8 9
M  V30 9 1 9 10
M  V30 10 1 10 11
M  V30 11 2 11 12
M  V30 12 1 12 13
M  V30 13 1 13 14
M  V30 14 2 13 15
M  V30 15 1 15 16
M  V30 16 2 16 17
M  V30 17 1 16 18
M  V30 18 1 6 19
M  V30 19 1 8 3
M  V30 20 1 17 11
M  V30 21 1 1 20
M  V30 22 1 1 21
M  V30 23 1 1 22
M  V30 24 1 4 23
M  V30 25 1 5 24
M  V30 26 1 7 25
M  V30 27 1 9 26
M  V30 28 1 9 27
M  V30 29 1 14 28
M  V30 30 1 14 29
M  V30 31 1 15 30
M  V30 32 1 18 31
M  V30 33 1 18 32
M  V30 END BOND
M  V30 END CTAB
M  END
