
     RDKit          3D

  0  0  0  0  0  0  0  0  0  0999 V3000
M  V30 BEGIN CTAB
M  V30 COUNTS 49 51 0 0 0
M  V30 BEGIN ATOM
M  V30 1 N 5.88052 -0.0398388 -0.360254 0
M  V30 2 C 4.89355 0.608266 -1.10874 0
M  V30 3 C 3.6298 0.874071 -0.368103 0
M  V30 4 N 2.92407 -0.216709 0.150943 0
M  V30 5 C 3.14824 -0.727908 1.44919 0
M  V30 6 O 3.73072 -0.0189165 2.26608 0
M  V30 7 C 2.63988 -2.12098 1.70713 0
M  V30 8 C 1.15204 -2.01874 1.47967 0
M  V30 9 C 0.813645 -1.52629 0.0814272 0 CFG=2
M  V30 10 C 1.92116 -0.8859 -0.65021 0 CFG=1
M  V30 11 C 1.35185 -0.0305473 -1.75102 0
M  V30 12 C -0.00151343 -0.64032 -2.12393 0
M  V30 13 N -0.931043 -0.232067 -1.00003 0
M  V30 14 C -0.449565 -0.706241 0.249733 0
M  V30 15 C -2.0127 0.520293 -1.33677 0
M  V30 16 O -1.97888 0.749633 -2.69209 0
M  V30 17 C -3.17909 1.16381 -0.763888 0
M  V30 18 S -4.25758 2.19202 -1.76283 0
M  V30 19 C -5.37025 2.62807 -0.574055 0
M  V30 20 N -4.90786 2.01241 0.468739 0
M  V30 21 C -3.81967 1.27373 0.409086 0
M  V30 22 C -3.4145 0.533269 1.67472 0
M  V30 23 C -3.93895 -0.861018 1.66467 0
M  V30 24 N -6.54774 3.45772 -0.617691 0
M  V30 25 H 6.1861 -0.887654 -0.741556 0
M  V30 26 H 6.45695 0.411831 0.266218 0
M  V30 27 H 5.345 1.62076 -1.34163 0
M  V30 28 H 4.74282 0.155156 -2.11629 0
M  V30 29 H 3.89366 1.55785 0.485371 0
M  V30 30 H 2.97867 1.48107 -1.02242 0
M  V30 31 H 2.81324 -2.31487 2.77467 0
M  V30 32 H 3.13843 -2.82852 1.03245 0
M  V30 33 H 0.784139 -1.27572 2.24769 0
M  V30 34 H 0.703377 -2.98966 1.7204 0
M  V30 35 H 0.505087 -2.47585 -0.45971 0
M  V30 36 H 2.49063 -1.71237 -1.19305 0
M  V30 37 H 1.08278 1.00816 -1.40898 0
M  V30 38 H 1.98549 -0.0477281 -2.64975 0
M  V30 39 H -0.0159197 -1.71277 -2.19133 0
M  V30 40 H -0.299839 -0.134161 -3.04965 0
M  V30 41 H -1.18753 -1.43887 0.668475 0
M  V30 42 H -0.252296 0.126946 0.981753 0
M  V30 43 H -2.36845 0.603766 1.87827 0
M  V30 44 H -3.94888 1.03298 2.56142 0
M  V30 45 H -3.59003 -1.42847 0.757525 0
M  V30 46 H -3.72626 -1.41192 2.5963 0
M  V30 47 H -5.05392 -0.798117 1.53868 0
M  V30 48 H -6.84989 4.03868 0.171567 0
M  V30 49 H -7.08949 3.43165 -1.52527 0
M  V30 END ATOM
M  V30 BEGIN BOND
M  V30 1 1 1 2
M  V30 2 1 2 3
M  V30 3 1 3 4
M  V30 4 1 4 5
M  V30 5 2 5 6
M  V30 6 1 5 7
M  V30 7 1 7 8
M  V30 8 1 8 9
M  V30 9 1 9 10
M  V30 10 1 10 11
M  V30 11 1 11 12
M  V30 12 1 12 13
M  V30 13 1 13 14
M  V30 14 1 13 15
M  V30 15 2 15 16
M  V30 16 1 15 17
M  V30 17 1 17 18
M  V30 18 1 18 19
M  V30 19 2 19 20
M  V30 20 1 20 21
M  V30 21 1 21 22
M  V30 22 1 22 23
M  V30 23 1 19 24
M  V30 24 1 10 4
M  V30 25 2 21 17
M  V30 26 1 14 9
M  V30 27 1 1 25
M  V30 28 1 1 26
M  V30 29 1 2 27
M  V30 30 1 2 28
M  V30 31 1 3 29
M  V30 32 1 3 30
M  V30 33 1 7 31
M  V30 34 1 7 32
M  V30 35 1 8 33
M  V30 36 1 8 34
M  V30 37 1 9 35 CFG=3
M  V30 38 1 10 36 CFG=3
M  V30 39 1 11 37
M  V30 40 1 11 38
M  V30 41 1 12 39
M  V30 42 1 12 40
M  V30 43 1 14 41
M  V30 44 1 14 42
M  V30 45 1 22 43
M  V30 46 1 22 44
M  V30 47 1 23 45
M  V30 48 1 23 46
M  V30 49 1 23 47
M  V30 50 1 24 48
M  V30 51 1 24 49
M  V30 END BOND
M  V30 END CTAB
M  END
