
     RDKit          3D

  0  0  0  0  0  0  0  0  0  0999 V3000
M  V30 BEGIN CTAB
M  V30 COUNTS 39 39 0 0 0
M  V30 BEGIN ATOM
M  V30 1 N -4.71435 2.18054 0.0744015 0
M  V30 2 C -3.64246 1.36147 0.581865 0
M  V30 3 C -3.33427 0.316344 -0.444231 0
M  V30 4 N -2.26435 -0.58782 -0.0608524 0
M  V30 5 C -0.896342 -0.288759 -0.37055 0
M  V30 6 O -0.0348054 -1.12566 -0.00595841 0
M  V30 7 N -0.525883 0.888062 -1.05235 0
M  V30 8 C 0.77996 1.31581 -1.42616 0
M  V30 9 C 1.88101 0.40815 -1.05332 0
M  V30 10 C 2.32413 -0.606697 -1.89974 0
M  V30 11 C 3.35161 -1.45797 -1.57971 0
M  V30 12 C 4.00129 -1.33011 -0.364944 0
M  V30 13 C 3.5957 -0.338947 0.504439 0
M  V30 14 C 2.56166 0.502996 0.159916 0
M  V30 15 C 4.31341 -0.221605 1.81011 0
M  V30 16 N 5.44087 0.674393 1.68454 0
M  V30 17 C -2.57787 -1.78374 0.62097 0
M  V30 18 O -1.64817 -2.55445 0.951671 0
M  V30 19 C -3.9899 -2.14362 0.951997 0
M  V30 20 H -4.45269 3.17223 -0.0770996 0
M  V30 21 H -5.20563 1.75334 -0.739253 0
M  V30 22 H -3.90906 0.933957 1.562 0
M  V30 23 H -2.76704 2.02442 0.75712 0
M  V30 24 H -4.26233 -0.314208 -0.567189 0
M  V30 25 H -3.15956 0.737533 -1.45278 0
M  V30 26 H -1.31075 1.54666 -1.32566 0
M  V30 27 H 0.934471 2.34637 -0.991331 0
M  V30 28 H 0.774313 1.50556 -2.53906 0
M  V30 29 H 1.81202 -0.698167 -2.84313 0
M  V30 30 H 3.6708 -2.23658 -2.26172 0
M  V30 31 H 4.81666 -2.00009 -0.102543 0
M  V30 32 H 2.25735 1.26787 0.844448 0
M  V30 33 H 3.60667 0.178119 2.56524 0
M  V30 34 H 4.70459 -1.22024 2.08391 0
M  V30 35 H 5.41566 1.24323 0.811273 0
M  V30 36 H 5.4752 1.28154 2.51721 0
M  V30 37 H -3.99938 -3.10278 1.51055 0
M  V30 38 H -4.44239 -1.389 1.61094 0
M  V30 39 H -4.58016 -2.23812 0.00474316 0
M  V30 END ATOM
M  V30 BEGIN BOND
M  V30 1 1 1 2
M  V30 2 1 2 3
M  V30 3 1 3 4
M  V30 4 1 4 5
M  V30 5 2 5 6
M  V30 6 1 5 7
M  V30 7 1 7 8
M  V30 8 1 8 9
M  V30 9 2 9 10
M  V30 10 1 10 11
M  V30 11 2 11 12
M  V30 12 1 12 13
M  V30 13 2 13 14
M  V30 14 1 13 15
M  V30 15 1 15 16
M  V30 16 1 4 17
M  V30 17 2 17 18
M  V30 18 1 17 19
M  V30 19 1 14 9
M  V30 20 1 1 20
M  V30 21 1 1 21
M  V30 22 1 2 22
M  V30 23 1 2 23
M  V30 24 1 3 24
M  V30 25 1 3 25
M  V30 26 1 7 26
M  V30 27 1 8 27
M  V30 28 1 8 28
M  V30 29 1 10 29
M  V30 30 1 11 30
M  V30 31 1 12 31
M  V30 32 1 14 32
M  V30 33 1 15 33
M  V30 34 1 15 34
M  V30 35 1 16 35
M  V30 36 1 16 36
M  V30 37 1 19 37
M  V30 38 1 19 38
M  V30 39 1 19 39
M  V30 END BOND
M  V30 END CTAB
M  END
