
     RDKit          3D

  0  0  0  0  0  0  0  0  0  0999 V3000
M  V30 BEGIN CTAB
M  V30 COUNTS 30 32 0 0 0
M  V30 BEGIN ATOM
M  V30 1 N -3.37677 2.92638 -0.171145 0
M  V30 2 C -2.3251 2.42343 -0.10102 0
M  V30 3 C -1.01885 1.76836 -0.00382287 0
M  V30 4 C 0.00933475 2.50096 -0.341649 0
M  V30 5 N -0.196067 3.8716 -0.778096 0
M  V30 6 O 1.31813 2.04774 -0.310946 0
M  V30 7 C 1.5345 0.734308 0.106182 0
M  V30 8 C 0.492434 -0.074669 0.470741 0
M  V30 9 C -0.879848 0.397502 0.435337 0
M  V30 10 C -1.81094 -0.531459 -0.236148 0
M  V30 11 N -2.07221 -0.529463 -1.53682 0
M  V30 12 C -2.95261 -1.49727 -1.78164 0
M  V30 13 C -3.24915 -2.12092 -0.600121 0
M  V30 14 N -2.51487 -1.4904 0.354184 0
M  V30 15 C 0.733903 -1.40113 0.890892 0
M  V30 16 C 2.02777 -1.82968 0.915602 0
M  V30 17 C 3.09645 -1.04419 0.556216 0
M  V30 18 C 2.84581 0.24497 0.149506 0
M  V30 19 N 4.42326 -1.53378 0.598135 0
M  V30 20 H 0.034995 4.10605 -1.75801 0
M  V30 21 H -0.563837 4.54078 -0.0815196 0
M  V30 22 H -1.21589 0.401642 1.53212 0
M  V30 23 H -3.39221 -1.78293 -2.74288 0
M  V30 24 H -3.93734 -2.96388 -0.424358 0
M  V30 25 H -2.56946 -1.79021 1.35704 0
M  V30 26 H -0.120601 -1.96955 1.15971 0
M  V30 27 H 2.20935 -2.84755 1.23831 0
M  V30 28 H 3.64177 0.901808 -0.142048 0
M  V30 29 H 5.2064 -1.0578 0.116577 0
M  V30 30 H 4.62164 -2.40065 1.12968 0
M  V30 END ATOM
M  V30 BEGIN BOND
M  V30 1 3 1 2
M  V30 2 1 2 3
M  V30 3 2 3 4
M  V30 4 1 4 5
M  V30 5 1 4 6
M  V30 6 1 6 7
M  V30 7 2 7 8
M  V30 8 1 8 9
M  V30 9 1 9 10
M  V30 10 2 10 11
M  V30 11 1 11 12
M  V30 12 2 12 13
M  V30 13 1 13 14
M  V30 14 1 8 15
M  V30 15 2 15 16
M  V30 16 1 16 17
M  V30 17 2 17 18
M  V30 18 1 17 19
M  V30 19 1 9 3
M  V30 20 1 14 10
M  V30 21 1 18 7
M  V30 22 1 5 20
M  V30 23 1 5 21
M  V30 24 1 9 22
M  V30 25 1 12 23
M  V30 26 1 13 24
M  V30 27 1 14 25
M  V30 28 1 15 26
M  V30 29 1 16 27
M  V30 30 1 18 28
M  V30 31 1 19 29
M  V30 32 1 19 30
M  V30 END BOND
M  V30 END CTAB
M  END
