
     RDKit          3D

  0  0  0  0  0  0  0  0  0  0999 V3000
M  V30 BEGIN CTAB
M  V30 COUNTS 53 55 0 0 0
M  V30 BEGIN ATOM
M  V30 1 C 5.28264 -0.32586 -1.2481 0
M  V30 2 C 4.66614 -1.08625 -0.106888 0
M  V30 3 C 5.76084 -1.79741 0.648746 0
M  V30 4 C 3.92126 -0.149631 0.842612 0
M  V30 5 N 3.35494 -0.944325 1.91318 0
M  V30 6 C 2.83283 0.482676 0.0683975 0
M  V30 7 O 3.07967 1.21957 -0.910636 0
M  V30 8 O 1.51146 0.338456 0.324498 0
M  V30 9 C 0.395584 0.815646 -0.244915 0 CFG=2
M  V30 10 C -0.289201 1.71249 0.776023 0 CFG=1
M  V30 11 C -0.513287 3.10161 0.226242 0
M  V30 12 O -1.33929 3.0987 -0.891321 0
M  V30 13 P -1.55088 4.65666 -1.45426 0
M  V30 14 O -3.1155 5.15879 -1.03679 0
M  V30 15 O -0.376278 5.65099 -0.754499 0
M  V30 16 O -1.38024 4.73268 -2.97093 0
M  V30 17 O -1.45031 1.08843 1.16542 0
M  V30 18 C -1.4086 -0.232695 0.720604 0 CFG=2
M  V30 19 C -0.74706 -0.0181194 -0.627862 0 CFG=2
M  V30 20 O -0.563298 -1.1211 -1.36983 0
M  V30 21 N -2.71533 -0.779538 0.628192 0
M  V30 22 C -3.8635 -0.125982 0.820339 0
M  V30 23 N -4.91508 -0.934023 0.657239 0
M  V30 24 C -4.40133 -2.14579 0.349639 0
M  V30 25 C -3.03262 -2.06015 0.329046 0
M  V30 26 N -2.31482 -3.15174 0.0442632 0
M  V30 27 C -2.89877 -4.31778 -0.219244 0
M  V30 28 N -4.2395 -4.4183 -0.203085 0
M  V30 29 C -5.01579 -3.35787 0.0759463 0
M  V30 30 N -6.42649 -3.48202 0.0884726 0
M  V30 31 H 4.65729 -0.33492 -2.1591 0
M  V30 32 H 6.23157 -0.843896 -1.5251 0
M  V30 33 H 5.49267 0.724214 -0.998875 0
M  V30 34 H 3.91817 -1.80762 -0.481157 0
M  V30 35 H 6.10679 -1.15865 1.48914 0
M  V30 36 H 5.43208 -2.75015 1.08812 0
M  V30 37 H 6.64426 -1.96887 0.00391828 0
M  V30 38 H 4.60453 0.58666 1.30673 0
M  V30 39 H 3.27037 -1.93406 1.57996 0
M  V30 40 H 2.37721 -0.618978 2.09757 0
M  V30 41 H 0.660092 1.4705 -1.11761 0
M  V30 42 H 0.327183 1.85278 1.70102 0
M  V30 43 H 0.478093 3.47766 -0.102463 0
M  V30 44 H -0.985143 3.70116 1.00188 0
M  V30 45 H -3.49636 4.57314 -0.33972 0
M  V30 46 H -0.713806 5.99803 0.121228 0
M  V30 47 H -0.769833 -0.803707 1.4127 0
M  V30 48 H -1.46526 0.62797 -1.18517 0
M  V30 49 H -0.778254 -1.06437 -2.33022 0
M  V30 50 H -4.00203 0.939545 1.08138 0
M  V30 51 H -2.34786 -5.22363 -0.454211 0
M  V30 52 H -6.95941 -3.30025 -0.780824 0
M  V30 53 H -6.93056 -3.75068 0.950282 0
M  V30 END ATOM
M  V30 BEGIN BOND
M  V30 1 1 1 2
M  V30 2 1 2 3
M  V30 3 1 2 4
M  V30 4 1 4 5
M  V30 5 1 4 6
M  V30 6 2 6 7
M  V30 7 1 6 8
M  V30 8 1 8 9
M  V30 9 1 9 10
M  V30 10 1 10 11
M  V30 11 1 11 12
M  V30 12 1 12 13
M  V30 13 1 13 14
M  V30 14 1 13 15
M  V30 15 2 13 16
M  V30 16 1 10 17
M  V30 17 1 17 18
M  V30 18 1 18 19
M  V30 19 1 19 20
M  V30 20 1 18 21
M  V30 21 1 21 22
M  V30 22 2 22 23
M  V30 23 1 23 24
M  V30 24 2 24 25
M  V30 25 1 25 26
M  V30 26 2 26 27
M  V30 27 1 27 28
M  V30 28 2 28 29
M  V30 29 1 29 30
M  V30 30 1 19 9
M  V30 31 1 25 21
M  V30 32 1 29 24
M  V30 33 1 1 31
M  V30 34 1 1 32
M  V30 35 1 1 33
M  V30 36 1 2 34
M  V30 37 1 3 35
M  V30 38 1 3 36
M  V30 39 1 3 37
M  V30 40 1 4 38
M  V30 41 1 5 39
M  V30 42 1 5 40
M  V30 43 1 9 41 CFG=3
M  V30 44 1 10 42 CFG=1
M  V30 45 1 11 43
M  V30 46 1 11 44
M  V30 47 1 14 45
M  V30 48 1 15 46
M  V30 49 1 18 47 CFG=1
M  V30 50 1 19 48 CFG=3
M  V30 51 1 20 49
M  V30 52 1 22 50
M  V30 53 1 27 51
M  V30 54 1 30 52
M  V30 55 1 30 53
M  V30 END BOND
M  V30 END CTAB
M  END
