
     RDKit          3D

  0  0  0  0  0  0  0  0  0  0999 V3000
M  V30 BEGIN CTAB
M  V30 COUNTS 34 36 0 0 0
M  V30 BEGIN ATOM
M  V30 1 N 5.92742 0.990596 -0.761327 0
M  V30 2 C 4.62915 0.559971 -0.383603 0
M  V30 3 C 3.93565 1.16111 0.658689 0
M  V30 4 C 2.67579 0.699354 0.980849 0
M  V30 5 C 2.13413 -0.346392 0.262596 0
M  V30 6 N 0.820215 -0.853495 0.572742 0
M  V30 7 N -0.160962 -0.232471 0.0659084 0
M  V30 8 C -1.49959 -0.651248 0.309605 0
M  V30 9 C -1.77286 -1.96746 0.618267 0
M  V30 10 C -3.07775 -2.34666 0.849718 0
M  V30 11 C -4.08742 -1.40942 0.769913 0
M  V30 12 C -3.8482 -0.0829443 0.463051 0
M  V30 13 C -2.52869 0.263097 0.236873 0
M  V30 14 C -2.28553 1.59366 -0.0713082 0
M  V30 15 C -3.31266 2.51077 -0.144848 0
M  V30 16 C -4.61623 2.14872 0.0828466 0
M  V30 17 C -4.87816 0.834059 0.389861 0
M  V30 18 C 2.81778 -0.947855 -0.77385 0
M  V30 19 N 2.21769 -2.03632 -1.4987 0
M  V30 20 C 4.07658 -0.485565 -1.09482 0
M  V30 21 H 6.78796 0.715047 -0.234501 0
M  V30 22 H 5.99389 1.61085 -1.60943 0
M  V30 23 H 4.38641 1.98221 1.2067 0
M  V30 24 H 2.11127 1.14805 1.78819 0
M  V30 25 H -0.968252 -2.69479 0.67775 0
M  V30 26 H -3.29635 -3.39258 1.09517 0
M  V30 27 H -5.11866 -1.73405 0.95807 0
M  V30 28 H -1.24886 1.88885 -0.253927 0
M  V30 29 H -3.09019 3.53808 -0.386829 0
M  V30 30 H -5.44318 2.86384 0.0285294 0
M  V30 31 H -5.88258 0.513569 0.574034 0
M  V30 32 H 2.22947 -2.07565 -2.52116 0
M  V30 33 H 1.76772 -2.78746 -0.9318 0
M  V30 34 H 4.605 -0.9775 -1.92326 0
M  V30 END ATOM
M  V30 BEGIN BOND
M  V30 1 1 1 2
M  V30 2 2 2 3
M  V30 3 1 3 4
M  V30 4 2 4 5
M  V30 5 1 5 6
M  V30 6 2 6 7 CFG=2
M  V30 7 1 7 8
M  V30 8 2 8 9
M  V30 9 1 9 10
M  V30 10 2 10 11
M  V30 11 1 11 12
M  V30 12 2 12 13
M  V30 13 1 13 14
M  V30 14 2 14 15
M  V30 15 1 15 16
M  V30 16 2 16 17
M  V30 17 1 5 18
M  V30 18 1 18 19
M  V30 19 2 18 20
M  V30 20 1 20 2
M  V30 21 1 13 8
M  V30 22 1 17 12
M  V30 23 1 1 21
M  V30 24 1 1 22
M  V30 25 1 3 23
M  V30 26 1 4 24
M  V30 27 1 9 25
M  V30 28 1 10 26
M  V30 29 1 11 27
M  V30 30 1 14 28
M  V30 31 1 15 29
M  V30 32 1 16 30
M  V30 33 1 17 31
M  V30 34 1 19 32
M  V30 35 1 19 33
M  V30 36 1 20 34
M  V30 END BOND
M  V30 END CTAB
M  END
