
     RDKit          3D

  0  0  0  0  0  0  0  0  0  0999 V3000
M  V30 BEGIN CTAB
M  V30 COUNTS 32 33 0 0 0
M  V30 BEGIN ATOM
M  V30 1 F 6.40802 -1.10031 1.93101 0
M  V30 2 C 6.03542 -0.0182981 1.14451 0
M  V30 3 O 4.6687 0.181056 1.12376 0
M  V30 4 C 3.81664 0.221074 0.0422372 0
M  V30 5 C 4.19438 0.0620268 -1.26897 0
M  V30 6 C 3.28476 0.112109 -2.33012 0
M  V30 7 C 1.96136 0.329417 -2.04373 0
M  V30 8 C 1.58592 0.488341 -0.729951 0
M  V30 9 C 2.46066 0.442554 0.320824 0
M  V30 10 C 0.155498 0.722584 -0.430815 0
M  V30 11 S -0.616769 -0.916438 -0.187398 0
M  V30 12 C -2.34408 -0.644078 0.176673 0
M  V30 13 N -3.20822 -0.592474 -0.847847 0
M  V30 14 C -4.5224 -0.388006 -0.610301 0
M  V30 15 N -5.42434 -0.335427 -1.69991 0
M  V30 16 C -4.98109 -0.231712 0.683405 0
M  V30 17 C -4.08523 -0.286425 1.72812 0
M  V30 18 N -2.78002 -0.49248 1.44952 0
M  V30 19 N -4.59509 -0.121317 3.04438 0
M  V30 20 F 6.62389 1.1213 1.70261 0
M  V30 21 H 6.42603 -0.155748 0.137453 0
M  V30 22 H 5.24878 -0.109974 -1.48291 0
M  V30 23 H 3.67824 -0.0249653 -3.33327 0
M  V30 24 H 1.25478 0.367902 -2.87295 0
M  V30 25 H 2.14263 0.571839 1.36552 0
M  V30 26 H 0.0516491 1.35405 0.454924 0
M  V30 27 H -0.371219 1.2515 -1.27385 0
M  V30 28 H -5.67484 -1.17189 -2.25749 0
M  V30 29 H -5.85132 0.575024 -1.95047 0
M  V30 30 H -6.02729 -0.0679567 0.886365 0
M  V30 31 H -5.4754 -0.520564 3.3931 0
M  V30 32 H -4.04006 0.454487 3.73557 0
M  V30 END ATOM
M  V30 BEGIN BOND
M  V30 1 1 1 2
M  V30 2 1 2 3
M  V30 3 1 3 4
M  V30 4 2 4 5
M  V30 5 1 5 6
M  V30 6 2 6 7
M  V30 7 1 7 8
M  V30 8 2 8 9
M  V30 9 1 8 10
M  V30 10 1 10 11
M  V30 11 1 11 12
M  V30 12 2 12 13
M  V30 13 1 13 14
M  V30 14 1 14 15
M  V30 15 2 14 16
M  V30 16 1 16 17
M  V30 17 2 17 18
M  V30 18 1 17 19
M  V30 19 1 2 20
M  V30 20 1 9 4
M  V30 21 1 18 12
M  V30 22 1 2 21
M  V30 23 1 5 22
M  V30 24 1 6 23
M  V30 25 1 7 24
M  V30 26 1 9 25
M  V30 27 1 10 26
M  V30 28 1 10 27
M  V30 29 1 15 28
M  V30 30 1 15 29
M  V30 31 1 16 30
M  V30 32 1 19 31
M  V30 33 1 19 32
M  V30 END BOND
M  V30 END CTAB
M  END
