
     RDKit          3D

  0  0  0  0  0  0  0  0  0  0999 V3000
M  V30 BEGIN CTAB
M  V30 COUNTS 26 26 0 0 0
M  V30 BEGIN ATOM
M  V30 1 C 3.88085 1.36721 0.557009 0
M  V30 2 C 3.14053 0.283227 -0.197931 0
M  V30 3 O 1.74978 0.419822 0.093888 0
M  V30 4 C 0.80282 -0.421757 -0.442943 0
M  V30 5 O 1.16538 -1.34142 -1.21477 0
M  V30 6 C -0.585734 -0.232809 -0.110214 0
M  V30 7 C -1.02223 0.766033 0.733735 0
M  V30 8 N -0.0377906 1.63351 1.28601 0
M  V30 9 C -2.36501 0.905948 1.02172 0
M  V30 10 C -3.30883 0.0595405 0.480588 0
M  V30 11 C -2.88577 -0.95459 -0.373611 0
M  V30 12 C -1.54462 -1.09298 -0.660177 0
M  V30 13 N -1.1573 -2.14338 -1.53815 0
M  V30 14 C -3.82005 -1.86708 -0.968032 0
M  V30 15 N -4.58783 -2.60945 -1.43253 0
M  V30 16 H 3.20142 2.18848 0.880597 0
M  V30 17 H 4.26361 0.886445 1.49558 0
M  V30 18 H 4.73312 1.7617 -0.0601607 0
M  V30 19 H 3.27856 0.413331 -1.30389 0
M  V30 20 H 3.46059 -0.728494 0.0653411 0
M  V30 21 H 0.0630307 2.57675 0.847768 0
M  V30 22 H 0.574585 1.38147 2.08802 0
M  V30 23 H -2.63822 1.70564 1.6873 0
M  V30 24 H -4.35367 0.161038 0.698879 0
M  V30 25 H -1.18514 -2.08417 -2.56639 0
M  V30 26 H -0.822087 -3.03402 -1.06765 0
M  V30 END ATOM
M  V30 BEGIN BOND
M  V30 1 1 1 2
M  V30 2 1 2 3
M  V30 3 1 3 4
M  V30 4 2 4 5
M  V30 5 1 4 6
M  V30 6 2 6 7
M  V30 7 1 7 8
M  V30 8 1 7 9
M  V30 9 2 9 10
M  V30 10 1 10 11
M  V30 11 2 11 12
M  V30 12 1 12 13
M  V30 13 1 11 14
M  V30 14 3 14 15
M  V30 15 1 12 6
M  V30 16 1 1 16
M  V30 17 1 1 17
M  V30 18 1 1 18
M  V30 19 1 2 19
M  V30 20 1 2 20
M  V30 21 1 8 21
M  V30 22 1 8 22
M  V30 23 1 9 23
M  V30 24 1 10 24
M  V30 25 1 13 25
M  V30 26 1 13 26
M  V30 END BOND
M  V30 END CTAB
M  END
