
     RDKit          3D

  0  0  0  0  0  0  0  0  0  0999 V3000
M  V30 BEGIN CTAB
M  V30 COUNTS 60 62 0 0 0
M  V30 BEGIN ATOM
M  V30 1 C -6.10619 -0.682943 -3.98666 0
M  V30 2 N -7.02264 -0.74987 -2.8642 0
M  V30 3 C -8.35807 -0.942942 -2.96159 0
M  V30 4 C -8.91949 -0.952628 -1.70612 0
M  V30 5 N -10.2544 -1.11712 -1.28648 0
M  V30 6 C -7.84645 -0.753917 -0.837638 0
M  V30 7 C -6.69191 -0.632081 -1.57106 0
M  V30 8 C -5.35688 -0.412471 -0.990674 0
M  V30 9 O -4.38383 -0.318593 -1.76756 0
M  V30 10 N -5.22105 -0.317665 0.38225 0
M  V30 11 C -3.98389 -0.108048 1.03124 0
M  V30 12 C -3.80138 -0.00616457 2.42099 0
M  V30 13 N -2.47441 0.194412 2.68242 0
M  V30 14 C -1.93922 0.320882 4.04641 0
M  V30 15 C -1.78497 0.229848 1.5476 0
M  V30 16 C -2.73467 0.0389842 0.508527 0
M  V30 17 C -0.371917 0.442094 1.26039 0
M  V30 18 O 0.0623767 0.203612 0.0791847 0
M  V30 19 N 0.538086 0.894447 2.20049 0
M  V30 20 C 1.9335 1.07195 1.86603 0
M  V30 21 C 2.8104 1.90575 2.52897 0
M  V30 22 N 4.02416 1.76745 1.9426 0
M  V30 23 C 5.20177 2.47444 2.38698 0
M  V30 24 C 3.95959 0.888392 0.941141 0
M  V30 25 C 2.61404 0.436292 0.888369 0
M  V30 26 C 4.94735 0.408414 -0.0164418 0
M  V30 27 O 4.6567 -0.628041 -0.726867 0
M  V30 28 N 6.19945 0.983947 -0.236713 0
M  V30 29 C 7.1477 0.442378 -1.19889 0
M  V30 30 C 7.56617 -0.93773 -0.800835 0
M  V30 31 C 8.55221 -1.38675 -1.85523 0
M  V30 32 N 8.09014 -1.4441 -3.18778 0
M  V30 33 N 9.73736 -1.69194 -1.52214 0
M  V30 34 H -6.67295 -0.68694 -4.94399 0
M  V30 35 H -5.38052 -1.51145 -4.00474 0
M  V30 36 H -5.53392 0.281959 -3.9934 0
M  V30 37 H -8.90197 -1.0701 -3.88136 0
M  V30 38 H -11.0182 -0.601867 -1.75658 0
M  V30 39 H -10.4646 -1.75957 -0.501812 0
M  V30 40 H -7.95542 -0.709062 0.253469 0
M  V30 41 H -6.08619 -0.405577 0.992086 0
M  V30 42 H -4.56323 -0.072153 3.16673 0
M  V30 43 H -1.69085 1.349 4.31898 0
M  V30 44 H -1.08716 -0.361569 4.21603 0
M  V30 45 H -2.72377 -0.00388926 4.77471 0
M  V30 46 H -2.4548 0.0222088 -0.532541 0
M  V30 47 H 0.331855 1.15712 3.20368 0
M  V30 48 H 2.56898 2.54903 3.36215 0
M  V30 49 H 4.9877 2.85737 3.43862 0
M  V30 50 H 6.08999 1.82713 2.53976 0
M  V30 51 H 5.49586 3.3187 1.7442 0
M  V30 52 H 2.26301 -0.312618 0.159998 0
M  V30 53 H 6.51158 1.83776 0.26669 0
M  V30 54 H 8.02601 1.12472 -1.34534 0
M  V30 55 H 6.64663 0.42346 -2.20102 0
M  V30 56 H 8.106 -0.89531 0.18109 0
M  V30 57 H 6.74713 -1.64652 -0.769513 0
M  V30 58 H 8.06395 -2.35655 -3.67122 0
M  V30 59 H 7.78817 -0.590287 -3.65874 0
M  V30 60 H 10.1171 -1.6636 -0.55465 0
M  V30 END ATOM
M  V30 BEGIN BOND
M  V30 1 1 1 2
M  V30 2 1 2 3
M  V30 3 2 3 4
M  V30 4 1 4 5
M  V30 5 1 4 6
M  V30 6 2 6 7
M  V30 7 1 7 8
M  V30 8 2 8 9
M  V30 9 1 8 10
M  V30 10 1 10 11
M  V30 11 2 11 12
M  V30 12 1 12 13
M  V30 13 1 13 14
M  V30 14 1 13 15
M  V30 15 2 15 16
M  V30 16 1 15 17
M  V30 17 2 17 18
M  V30 18 1 17 19
M  V30 19 1 19 20
M  V30 20 2 20 21
M  V30 21 1 21 22
M  V30 22 1 22 23
M  V30 23 1 22 24
M  V30 24 2 24 25
M  V30 25 1 24 26
M  V30 26 2 26 27
M  V30 27 1 26 28
M  V30 28 1 28 29
M  V30 29 1 29 30
M  V30 30 1 30 31
M  V30 31 1 31 32
M  V30 32 2 31 33 CFG=2
M  V30 33 1 7 2
M  V30 34 1 16 11
M  V30 35 1 25 20
M  V30 36 1 1 34
M  V30 37 1 1 35
M  V30 38 1 1 36
M  V30 39 1 3 37
M  V30 40 1 5 38
M  V30 41 1 5 39
M  V30 42 1 6 40
M  V30 43 1 10 41
M  V30 44 1 12 42
M  V30 45 1 14 43
M  V30 46 1 14 44
M  V30 47 1 14 45
M  V30 48 1 16 46
M  V30 49 1 19 47
M  V30 50 1 21 48
M  V30 51 1 23 49
M  V30 52 1 23 50
M  V30 53 1 23 51
M  V30 54 1 25 52
M  V30 55 1 28 53
M  V30 56 1 29 54
M  V30 57 1 29 55
M  V30 58 1 30 56
M  V30 59 1 30 57
M  V30 60 1 32 58
M  V30 61 1 32 59
M  V30 62 1 33 60
M  V30 END BOND
M  V30 END CTAB
M  END
