
     RDKit          3D

  0  0  0  0  0  0  0  0  0  0999 V3000
M  V30 BEGIN CTAB
M  V30 COUNTS 21 22 0 0 0
M  V30 BEGIN ATOM
M  V30 1 Cl 3.61375 -2.36476 -1.26495 0
M  V30 2 C 2.5651 -1.11511 -0.631179 0
M  V30 3 C 3.10989 0.0419297 -0.106065 0
M  V30 4 C 2.29502 1.04248 0.400379 0
M  V30 5 Cl 3.03149 2.49319 1.05661 0
M  V30 6 C 0.91886 0.92346 0.4001 0
M  V30 7 C 0.36116 -0.243958 -0.129398 0
M  V30 8 C 1.18735 -1.24128 -0.634777 0
M  V30 9 C -1.00663 -0.351421 -0.124534 0
M  V30 10 N -1.61165 -1.51948 -0.652429 0
M  V30 11 C -1.84595 0.624274 0.371162 0
M  V30 12 C -1.23843 1.75946 0.883379 0
M  V30 13 N 0.104113 1.88768 0.889362 0
M  V30 14 N -3.26011 0.48908 0.36483 0
M  V30 15 H 4.18942 0.132022 -0.107398 0
M  V30 16 H 0.718148 -2.12783 -1.03503 0
M  V30 17 H -1.32758 -2.4437 -0.278087 0
M  V30 18 H -2.32418 -1.39178 -1.40323 0
M  V30 19 H -1.89688 2.52619 1.27288 0
M  V30 20 H -3.85687 1.0133 1.03848 0
M  V30 21 H -3.72602 -0.133758 -0.310115 0
M  V30 END ATOM
M  V30 BEGIN BOND
M  V30 1 1 1 2
M  V30 2 2 2 3
M  V30 3 1 3 4
M  V30 4 1 4 5
M  V30 5 2 4 6
M  V30 6 1 6 7
M  V30 7 2 7 8
M  V30 8 1 7 9
M  V30 9 1 9 10
M  V30 10 2 9 11
M  V30 11 1 11 12
M  V30 12 2 12 13
M  V30 13 1 11 14
M  V30 14 1 8 2
M  V30 15 1 13 6
M  V30 16 1 3 15
M  V30 17 1 8 16
M  V30 18 1 10 17
M  V30 19 1 10 18
M  V30 20 1 12 19
M  V30 21 1 14 20
M  V30 22 1 14 21
M  V30 END BOND
M  V30 END CTAB
M  END
