
     RDKit          3D

  0  0  0  0  0  0  0  0  0  0999 V3000
M  V30 BEGIN CTAB
M  V30 COUNTS 24 25 0 0 0
M  V30 BEGIN ATOM
M  V30 1 N 4.24642 0.419375 0.837863 0
M  V30 2 C 3.48916 -0.517687 0.0729685 0
M  V30 3 C 2.04615 -0.120405 -0.0232902 0
M  V30 4 O 1.53724 0.957067 0.527161 0
M  V30 5 N 0.270799 1.02495 0.267729 0
M  V30 6 C -0.107489 -0.0222916 -0.475251 0
M  V30 7 N 1.0544 -0.741295 -0.646717 0
M  V30 8 C -1.42326 -0.413358 -1.02837 0
M  V30 9 C -2.59207 0.35184 -0.584523 0
M  V30 10 C -2.83399 0.319786 0.921342 0
M  V30 11 C -2.67482 1.59504 0.169448 0
M  V30 12 N -1.5552 -1.85797 -0.752743 0
M  V30 13 H 4.6269 1.21538 0.282933 0
M  V30 14 H 4.91318 0.00897144 1.51134 0
M  V30 15 H 3.90844 -0.600105 -0.9462 0
M  V30 16 H 3.54367 -1.50092 0.58123 0
M  V30 17 H -1.34799 -0.359302 -2.16428 0
M  V30 18 H -3.56038 0.0708133 -1.14831 0
M  V30 19 H -3.81423 -0.0110031 1.31007 0
M  V30 20 H -1.98016 0.0183424 1.57346 0
M  V30 21 H -3.65981 2.17216 0.0774144 0
M  V30 22 H -1.8273 2.25225 0.399584 0
M  V30 23 H -0.67911 -2.3272 -1.0578 0
M  V30 24 H -1.58057 -1.93443 0.289992 0
M  V30 END ATOM
M  V30 BEGIN BOND
M  V30 1 1 1 2
M  V30 2 1 2 3
M  V30 3 1 3 4
M  V30 4 1 4 5
M  V30 5 2 5 6
M  V30 6 1 6 7
M  V30 7 1 6 8
M  V30 8 1 8 9
M  V30 9 1 9 10
M  V30 10 1 10 11
M  V30 11 1 8 12
M  V30 12 2 7 3
M  V30 13 1 11 9
M  V30 14 1 1 13
M  V30 15 1 1 14
M  V30 16 1 2 15
M  V30 17 1 2 16
M  V30 18 1 8 17
M  V30 19 1 9 18
M  V30 20 1 10 19
M  V30 21 1 10 20
M  V30 22 1 11 21
M  V30 23 1 11 22
M  V30 24 1 12 23
M  V30 25 1 12 24
M  V30 END BOND
M  V30 END CTAB
M  END
