
     RDKit          3D

  0  0  0  0  0  0  0  0  0  0999 V3000
M  V30 BEGIN CTAB
M  V30 COUNTS 35 37 0 0 0
M  V30 BEGIN ATOM
M  V30 1 O -0.536263 -0.810616 1.24583 0
M  V30 2 C -0.135403 -0.724463 0.0512994 0
M  V30 3 C -1.04815 -0.873498 -1.11137 0
M  V30 4 C -2.42549 -1.12677 -0.533021 0
M  V30 5 C -2.84547 -2.40309 -0.261714 0
M  V30 6 S -4.42313 -2.11328 0.354797 0
M  V30 7 C -4.4365 -0.41929 0.226061 0
M  V30 8 N -3.24721 -0.15676 -0.276774 0
M  V30 9 C -5.51528 0.544761 0.586986 0
M  V30 10 C -6.69912 0.0867008 1.10312 0
M  V30 11 S -7.59068 1.51273 1.3516 0
M  V30 12 C -6.45646 2.65207 0.80164 0
M  V30 13 C -5.38758 1.87831 0.429636 0
M  V30 14 O 1.21699 -0.480085 -0.166446 0
M  V30 15 C 2.06799 -0.341567 0.953578 0
M  V30 16 C 3.47709 -0.0842467 0.501726 0
M  V30 17 N 4.47697 0.083956 1.37496 0
M  V30 18 C 5.7533 0.316882 0.976805 0
M  V30 19 N 6.81025 0.494602 1.90699 0
M  V30 20 N 6.00078 0.377023 -0.343882 0
M  V30 21 C 5.01539 0.211949 -1.26175 0
M  V30 22 N 3.76334 -0.0173017 -0.808379 0
M  V30 23 N 5.30136 0.279771 -2.64929 0
M  V30 24 H -1.04089 0.0588489 -1.71407 0
M  V30 25 H -0.741739 -1.74759 -1.69401 0
M  V30 26 H -2.29117 -3.34734 -0.4116 0
M  V30 27 H -6.96667 -0.971375 1.29534 0
M  V30 28 H -6.51417 3.75687 0.737555 0
M  V30 29 H -4.45918 2.3558 0.015504 0
M  V30 30 H 1.69826 0.521523 1.53636 0
M  V30 31 H 2.00646 -1.23663 1.5942 0
M  V30 32 H 7.72091 0.0715993 1.70269 0
M  V30 33 H 6.64491 1.0483 2.77662 0
M  V30 34 H 4.69268 -0.214388 -3.3317 0
M  V30 35 H 6.11387 0.816589 -3.01491 0
M  V30 END ATOM
M  V30 BEGIN BOND
M  V30 1 2 1 2
M  V30 2 1 2 3
M  V30 3 1 3 4
M  V30 4 2 4 5
M  V30 5 1 5 6
M  V30 6 1 6 7
M  V30 7 2 7 8
M  V30 8 1 7 9
M  V30 9 2 9 10
M  V30 10 1 10 11
M  V30 11 1 11 12
M  V30 12 2 12 13
M  V30 13 1 2 14
M  V30 14 1 14 15
M  V30 15 1 15 16
M  V30 16 2 16 17
M  V30 17 1 17 18
M  V30 18 1 18 19
M  V30 19 2 18 20
M  V30 20 1 20 21
M  V30 21 2 21 22
M  V30 22 1 21 23
M  V30 23 1 8 4
M  V30 24 1 13 9
M  V30 25 1 22 16
M  V30 26 1 3 24
M  V30 27 1 3 25
M  V30 28 1 5 26
M  V30 29 1 10 27
M  V30 30 1 12 28
M  V30 31 1 13 29
M  V30 32 1 15 30
M  V30 33 1 15 31
M  V30 34 1 19 32
M  V30 35 1 19 33
M  V30 36 1 23 34
M  V30 37 1 23 35
M  V30 END BOND
M  V30 END CTAB
M  END
