
     RDKit          3D

  0  0  0  0  0  0  0  0  0  0999 V3000
M  V30 BEGIN CTAB
M  V30 COUNTS 30 32 0 0 0
M  V30 BEGIN ATOM
M  V30 1 C 4.75413 1.25954 -0.47073 0
M  V30 2 N 3.61787 0.353029 -0.435512 0
M  V30 3 N 3.72994 -0.936737 -0.662491 0
M  V30 4 C 2.54309 -1.50675 -0.564636 0
M  V30 5 C 1.61629 -0.535219 -0.258642 0
M  V30 6 C 2.33289 0.630856 -0.18453 0
M  V30 7 N 1.81293 1.92125 0.10793 0
M  V30 8 C 0.16933 -0.730226 -0.0583313 0
M  V30 9 N -0.622414 0.314488 0.237882 0
M  V30 10 C -1.96199 0.132238 0.423047 0
M  V30 11 C -2.53779 -1.11166 0.313743 0
M  V30 12 C -3.89301 -1.00732 0.547853 0
M  V30 13 N -4.10869 0.298188 0.793989 0
M  V30 14 N -2.96978 0.971159 0.720521 0
M  V30 15 C -2.81872 2.41187 0.929781 0
M  V30 16 C -1.70625 -2.16408 0.00990584 0
M  V30 17 N -2.27095 -3.4642 -0.11029 0
M  V30 18 N -0.395593 -1.9445 -0.16458 0
M  V30 19 H 4.55052 2.21459 0.0279771 0
M  V30 20 H 5.60597 0.727133 0.0178784 0
M  V30 21 H 5.04638 1.37232 -1.54 0
M  V30 22 H 2.24669 -2.5507 -0.686311 0
M  V30 23 H 1.81093 2.2501 1.11185 0
M  V30 24 H 1.45137 2.49768 -0.682089 0
M  V30 25 H -4.63588 -1.82104 0.535038 0
M  V30 26 H -1.76839 2.6842 1.00616 0
M  V30 27 H -3.42654 2.7423 1.80541 0
M  V30 28 H -3.26696 2.91169 0.028036 0
M  V30 29 H -3.27805 -3.621 -0.158962 0
M  V30 30 H -1.62733 -4.29919 -0.150854 0
M  V30 END ATOM
M  V30 BEGIN BOND
M  V30 1 1 1 2
M  V30 2 1 2 3
M  V30 3 2 3 4
M  V30 4 1 4 5
M  V30 5 2 5 6
M  V30 6 1 6 7
M  V30 7 1 5 8
M  V30 8 2 8 9
M  V30 9 1 9 10
M  V30 10 2 10 11
M  V30 11 1 11 12
M  V30 12 2 12 13
M  V30 13 1 13 14
M  V30 14 1 14 15
M  V30 15 1 11 16
M  V30 16 1 16 17
M  V30 17 2 16 18
M  V30 18 1 6 2
M  V30 19 1 18 8
M  V30 20 1 14 10
M  V30 21 1 1 19
M  V30 22 1 1 20
M  V30 23 1 1 21
M  V30 24 1 4 22
M  V30 25 1 7 23
M  V30 26 1 7 24
M  V30 27 1 12 25
M  V30 28 1 15 26
M  V30 29 1 15 27
M  V30 30 1 15 28
M  V30 31 1 17 29
M  V30 32 1 17 30
M  V30 END BOND
M  V30 END CTAB
M  END
