
     RDKit          3D

  0  0  0  0  0  0  0  0  0  0999 V3000
M  V30 BEGIN CTAB
M  V30 COUNTS 21 20 0 0 0
M  V30 BEGIN ATOM
M  V30 1 C 2.8873 -0.17033 -0.556232 0
M  V30 2 C 1.52921 0.412181 -0.317996 0
M  V30 3 C 0.723222 -0.425168 0.678084 0
M  V30 4 C -0.62891 0.172399 0.902609 0
M  V30 5 C -1.45477 0.269525 -0.344012 0
M  V30 6 N -1.69927 -1.012 -0.959612 0
M  V30 7 N -2.77064 0.788698 0.060819 0
M  V30 8 H 3.6911 0.607559 -0.559305 0
M  V30 9 H 2.88193 -0.718016 -1.52464 0
M  V30 10 H 3.13389 -0.850236 0.300399 0
M  V30 11 H 1.65555 1.43025 0.0849252 0
M  V30 12 H 0.983505 0.474759 -1.26903 0
M  V30 13 H 0.709332 -1.47124 0.370887 0
M  V30 14 H 1.28316 -0.339845 1.64589 0
M  V30 15 H -0.489284 1.20892 1.28593 0
M  V30 16 H -1.18333 -0.397481 1.65091 0
M  V30 17 H -1.02766 0.98582 -1.0733 0
M  V30 18 H -1.78164 -1.75804 -0.242047 0
M  V30 19 H -2.60574 -0.923518 -1.50657 0
M  V30 20 H -3.26171 0.0979457 0.673468 0
M  V30 21 H -2.57525 1.61783 0.698809 0
M  V30 END ATOM
M  V30 BEGIN BOND
M  V30 1 1 1 2
M  V30 2 1 2 3
M  V30 3 1 3 4
M  V30 4 1 4 5
M  V30 5 1 5 6
M  V30 6 1 5 7
M  V30 7 1 1 8
M  V30 8 1 1 9
M  V30 9 1 1 10
M  V30 10 1 2 11
M  V30 11 1 2 12
M  V30 12 1 3 13
M  V30 13 1 3 14
M  V30 14 1 4 15
M  V30 15 1 4 16
M  V30 16 1 5 17
M  V30 17 1 6 18
M  V30 18 1 6 19
M  V30 19 1 7 20
M  V30 20 1 7 21
M  V30 END BOND
M  V30 END CTAB
M  END
