
     RDKit          3D

  0  0  0  0  0  0  0  0  0  0999 V3000
M  V30 BEGIN CTAB
M  V30 COUNTS 60 59 0 0 0
M  V30 BEGIN ATOM
M  V30 1 N 7.7925 1.43576 1.56707 0
M  V30 2 C 8.4293 0.1618 1.20069 0
M  V30 3 C 8.4076 0.037053 -0.311504 0
M  V30 4 N 7.09926 0.0263316 -0.865564 0
M  V30 5 C 6.34065 -1.15991 -0.642502 0
M  V30 6 C 4.94015 -0.979245 -1.20674 0
M  V30 7 N 4.18402 0.000490737 -0.552559 0
M  V30 8 C 2.96449 0.448648 -1.10823 0
M  V30 9 C 2.20861 1.26361 -0.0544319 0
M  V30 10 N 1.83832 0.401157 1.05785 0
M  V30 11 C 0.781167 -0.532319 0.664822 0
M  V30 12 C -0.530528 0.169562 0.512441 0
M  V30 13 N -1.61413 -0.625807 0.0995109 0
M  V30 14 C -2.09189 -1.63919 0.975353 0
M  V30 15 C -3.4047 -2.26867 0.561456 0
M  V30 16 N -4.519 -1.40449 0.530604 0
M  V30 17 C -4.62027 -0.383066 -0.423142 0
M  V30 18 C -5.89265 0.429427 -0.0603543 0
M  V30 19 N -7.07844 -0.323616 -0.11144 0
M  V30 20 C -8.26387 0.205005 0.438327 0
M  V30 21 C -8.82777 1.38832 -0.26533 0
M  V30 22 N -7.93954 2.50452 -0.256647 0
M  V30 23 H 8.49912 2.01847 2.07763 0
M  V30 24 H 7.53035 1.91949 0.67802 0
M  V30 25 H 9.50097 0.18799 1.52522 0
M  V30 26 H 7.88966 -0.626982 1.71901 0
M  V30 27 H 9.05845 0.83829 -0.709675 0
M  V30 28 H 8.94735 -0.911506 -0.602942 0
M  V30 29 H 6.58118 0.924055 -0.80395 0
M  V30 30 H 6.79778 -2.01544 -1.20046 0
M  V30 31 H 6.3145 -1.48371 0.429336 0
M  V30 32 H 5.01209 -0.776554 -2.29333 0
M  V30 33 H 4.40904 -1.95897 -1.05883 0
M  V30 34 H 4.53394 0.495584 0.251763 0
M  V30 35 H 2.35461 -0.309312 -1.59933 0
M  V30 36 H 3.20819 1.1985 -1.91898 0
M  V30 37 H 1.3823 1.8067 -0.514158 0
M  V30 38 H 2.93555 1.99016 0.339025 0
M  V30 39 H 1.32732 1.04252 1.74379 0
M  V30 40 H 0.687281 -1.25226 1.49537 0
M  V30 41 H 1.00805 -1.10312 -0.243346 0
M  V30 42 H -0.40563 0.985999 -0.245322 0
M  V30 43 H -0.73561 0.705134 1.48723 0
M  V30 44 H -1.78161 -0.741374 -0.893657 0
M  V30 45 H -1.34673 -2.49405 0.925917 0
M  V30 46 H -2.08486 -1.35027 2.05569 0
M  V30 47 H -3.18771 -2.7588 -0.433535 0
M  V30 48 H -3.61539 -3.12015 1.2551 0
M  V30 49 H -5.4233 -1.77847 0.893048 0
M  V30 50 H -4.8856 -0.820853 -1.4206 0
M  V30 51 H -3.84191 0.372686 -0.488344 0
M  V30 52 H -5.95718 1.27436 -0.78328 0
M  V30 53 H -5.73767 0.86494 0.969215 0
M  V30 54 H -7.17214 -1.03427 -0.843723 0
M  V30 55 H -8.15609 0.467788 1.53929 0
M  V30 56 H -9.0425 -0.635442 0.448768 0
M  V30 57 H -9.84173 1.64011 0.155473 0
M  V30 58 H -8.96341 1.08012 -1.34279 0
M  V30 59 H -8.30099 3.35006 0.276693 0
M  V30 60 H -7.70094 2.85323 -1.20868 0
M  V30 END ATOM
M  V30 BEGIN BOND
M  V30 1 1 1 2
M  V30 2 1 2 3
M  V30 3 1 3 4
M  V30 4 1 4 5
M  V30 5 1 5 6
M  V30 6 1 6 7
M  V30 7 1 7 8
M  V30 8 1 8 9
M  V30 9 1 9 10
M  V30 10 1 10 11
M  V30 11 1 11 12
M  V30 12 1 12 13
M  V30 13 1 13 14
M  V30 14 1 14 15
M  V30 15 1 15 16
M  V30 16 1 16 17
M  V30 17 1 17 18
M  V30 18 1 18 19
M  V30 19 1 19 20
M  V30 20 1 20 21
M  V30 21 1 21 22
M  V30 22 1 1 23
M  V30 23 1 1 24
M  V30 24 1 2 25
M  V30 25 1 2 26
M  V30 26 1 3 27
M  V30 27 1 3 28
M  V30 28 1 4 29
M  V30 29 1 5 30
M  V30 30 1 5 31
M  V30 31 1 6 32
M  V30 32 1 6 33
M  V30 33 1 7 34
M  V30 34 1 8 35
M  V30 35 1 8 36
M  V30 36 1 9 37
M  V30 37 1 9 38
M  V30 38 1 10 39
M  V30 39 1 11 40
M  V30 40 1 11 41
M  V30 41 1 12 42
M  V30 42 1 12 43
M  V30 43 1 13 44
M  V30 44 1 14 45
M  V30 45 1 14 46
M  V30 46 1 15 47
M  V30 47 1 15 48
M  V30 48 1 16 49
M  V30 49 1 17 50
M  V30 50 1 17 51
M  V30 51 1 18 52
M  V30 52 1 18 53
M  V30 53 1 19 54
M  V30 54 1 20 55
M  V30 55 1 20 56
M  V30 56 1 21 57
M  V30 57 1 21 58
M  V30 58 1 22 59
M  V30 59 1 22 60
M  V30 END BOND
M  V30 END CTAB
M  END
