
     RDKit          3D

  0  0  0  0  0  0  0  0  0  0999 V3000
M  V30 BEGIN CTAB
M  V30 COUNTS 21 22 0 0 0
M  V30 BEGIN ATOM
M  V30 1 N -3.06044 1.47527 -1.10897 0
M  V30 2 C -2.00249 0.738792 -0.514696 0
M  V30 3 C -0.684861 1.02691 -0.784096 0
M  V30 4 C 0.27818 0.245113 -0.14984 0
M  V30 5 C -0.0715192 -0.773631 0.710872 0
M  V30 6 N -1.36844 -1.02826 0.951799 0
M  V30 7 C -2.32499 -0.286252 0.350718 0
M  V30 8 N -3.698 -0.564453 0.613141 0
M  V30 9 S 1.23067 -1.74535 1.49727 0
M  V30 10 C 2.82776 -1.15768 0.972478 0
M  V30 11 N 3.51807 -0.203788 1.58323 0
M  V30 12 N 4.64562 0.14326 1.13164 0
M  V30 13 C 5.14053 -0.443451 0.0491142 0
M  V30 14 S 3.87419 -1.55685 -0.309665 0
M  V30 15 H -2.86102 2.32531 -1.70188 0
M  V30 16 H -4.04225 1.21901 -0.990572 0
M  V30 17 H -0.431049 1.82784 -1.46033 0
M  V30 18 H 1.31737 0.452013 -0.345275 0
M  V30 19 H -3.96819 -1.57362 0.61031 0
M  V30 20 H -4.41718 0.140443 0.799127 0
M  V30 21 H 6.09805 -0.260614 -0.468183 0
M  V30 END ATOM
M  V30 BEGIN BOND
M  V30 1 1 1 2
M  V30 2 2 2 3
M  V30 3 1 3 4
M  V30 4 2 4 5
M  V30 5 1 5 6
M  V30 6 2 6 7
M  V30 7 1 7 8
M  V30 8 1 5 9
M  V30 9 1 9 10
M  V30 10 2 10 11
M  V30 11 1 11 12
M  V30 12 2 12 13
M  V30 13 1 13 14
M  V30 14 1 7 2
M  V30 15 1 14 10
M  V30 16 1 1 15
M  V30 17 1 1 16
M  V30 18 1 3 17
M  V30 19 1 4 18
M  V30 20 1 8 19
M  V30 21 1 8 20
M  V30 22 1 13 21
M  V30 END BOND
M  V30 END CTAB
M  END
