
     RDKit          3D

  0  0  0  0  0  0  0  0  0  0999 V3000
M  V30 BEGIN CTAB
M  V30 COUNTS 37 38 0 0 0
M  V30 BEGIN ATOM
M  V30 1 N -2.69689 1.539 -0.89099 0
M  V30 2 C -2.85876 1.29227 0.507814 0
M  V30 3 C -2.21555 -0.00640089 0.980439 0
M  V30 4 N -0.856851 0.0435388 0.728334 0
M  V30 5 C -0.267375 0.114891 -0.553703 0
M  V30 6 C 1.04087 -0.273806 0.158043 0
M  V30 7 C 0.0342885 -1.03747 1.03563 0
M  V30 8 C 1.95514 -1.07651 -0.656166 0
M  V30 9 C 3.40567 -1.00725 -0.294412 0
M  V30 10 C 3.88392 0.306756 0.192184 0
M  V30 11 C 2.84012 1.40107 0.184564 0
M  V30 12 C 1.64523 0.845518 0.9338 0
M  V30 13 C -3.00852 -1.14809 0.402847 0
M  V30 14 N -3.02232 -1.11805 -1.05222 0
M  V30 15 H -2.10802 2.41551 -1.02158 0
M  V30 16 H -3.63004 1.79536 -1.31618 0
M  V30 17 H -3.93598 1.28274 0.758847 0
M  V30 18 H -2.45052 2.16258 1.10206 0
M  V30 19 H -2.37894 -0.0162627 2.09647 0
M  V30 20 H -0.494211 -0.719788 -1.25258 0
M  V30 21 H -0.113883 1.09671 -1.01522 0
M  V30 22 H -0.166286 -2.01168 0.535067 0
M  V30 23 H 0.361713 -1.09744 2.09938 0
M  V30 24 H 1.80371 -0.820698 -1.74161 0
M  V30 25 H 1.64851 -2.15708 -0.577409 0
M  V30 26 H 3.99052 -1.29697 -1.19227 0
M  V30 27 H 3.63512 -1.80037 0.475531 0
M  V30 28 H 4.75205 0.709812 -0.371224 0
M  V30 29 H 4.21815 0.236193 1.26866 0
M  V30 30 H 2.59015 1.69106 -0.849473 0
M  V30 31 H 3.24231 2.26785 0.731773 0
M  V30 32 H 1.96645 0.582428 1.95654 0
M  V30 33 H 0.91736 1.69315 1.0419 0
M  V30 34 H -4.0822 -0.963738 0.698379 0
M  V30 35 H -2.7509 -2.12726 0.794584 0
M  V30 36 H -3.88262 -0.687476 -1.4506 0
M  V30 37 H -3.0114 -2.1101 -1.41539 0
M  V30 END ATOM
M  V30 BEGIN BOND
M  V30 1 1 1 2
M  V30 2 1 2 3
M  V30 3 1 3 4
M  V30 4 1 4 5
M  V30 5 1 5 6
M  V30 6 1 6 7
M  V30 7 1 6 8
M  V30 8 1 8 9
M  V30 9 1 9 10
M  V30 10 1 10 11
M  V30 11 1 11 12
M  V30 12 1 3 13
M  V30 13 1 13 14
M  V30 14 1 7 4
M  V30 15 1 12 6
M  V30 16 1 1 15
M  V30 17 1 1 16
M  V30 18 1 2 17
M  V30 19 1 2 18
M  V30 20 1 3 19
M  V30 21 1 5 20
M  V30 22 1 5 21
M  V30 23 1 7 22
M  V30 24 1 7 23
M  V30 25 1 8 24
M  V30 26 1 8 25
M  V30 27 1 9 26
M  V30 28 1 9 27
M  V30 29 1 10 28
M  V30 30 1 10 29
M  V30 31 1 11 30
M  V30 32 1 11 31
M  V30 33 1 12 32
M  V30 34 1 12 33
M  V30 35 1 13 34
M  V30 36 1 13 35
M  V30 37 1 14 36
M  V30 38 1 14 37
M  V30 END BOND
M  V30 END CTAB
M  END
