
     RDKit          3D

  0  0  0  0  0  0  0  0  0  0999 V3000
M  V30 BEGIN CTAB
M  V30 COUNTS 54 53 0 0 0
M  V30 BEGIN ATOM
M  V30 1 N -8.61721 2.18305 -1.32405 0
M  V30 2 C -7.81183 1.52587 -0.300236 0
M  V30 3 C -7.90715 0.0474648 -0.465487 0
M  V30 4 O -7.20387 -0.709365 0.427773 0
M  V30 5 C -5.83858 -0.467941 0.397147 0
M  V30 6 C -5.14439 -1.35578 1.40688 0
M  V30 7 O -3.78573 -1.17517 1.43704 0
M  V30 8 C -3.38622 0.0977522 1.75692 0
M  V30 9 C -1.83864 0.0828974 1.73496 0
M  V30 10 O -1.40516 -0.269995 0.488361 0
M  V30 11 C -0.0119337 -0.285161 0.308617 0
M  V30 12 C 0.667008 -1.26707 1.19405 0
M  V30 13 O 1.96339 -1.43793 1.21651 0
M  V30 14 C 2.78529 -1.78073 0.252415 0
M  V30 15 C 2.99371 -0.773074 -0.830671 0
M  V30 16 O 3.88538 -1.2118 -1.80881 0
M  V30 17 C 5.13903 -1.53413 -1.41408 0
M  V30 18 C 5.8124 -0.325844 -0.773035 0
M  V30 19 O 7.07788 -0.596866 -0.365361 0
M  V30 20 C 7.75566 0.363417 0.27513 0
M  V30 21 C 8.04004 1.66333 -0.374652 0
M  V30 22 N 6.92806 2.4572 -0.777017 0
M  V30 23 H -9.59988 2.25178 -0.982235 0
M  V30 24 H -8.21241 3.07388 -1.64331 0
M  V30 25 H -8.16062 1.82803 0.685932 0
M  V30 26 H -6.77017 1.89702 -0.484495 0
M  V30 27 H -7.5668 -0.194881 -1.5137 0
M  V30 28 H -8.97294 -0.262735 -0.442279 0
M  V30 29 H -5.67541 0.605938 0.607252 0
M  V30 30 H -5.46843 -0.662515 -0.62775 0
M  V30 31 H -5.64513 -1.27482 2.39079 0
M  V30 32 H -5.32725 -2.4124 1.06977 0
M  V30 33 H -3.67662 0.832809 0.978998 0
M  V30 34 H -3.64718 0.412296 2.78185 0
M  V30 35 H -1.47988 -0.557473 2.54365 0
M  V30 36 H -1.51219 1.11641 1.94154 0
M  V30 37 H 0.37961 0.733293 0.347385 0
M  V30 38 H 0.0568888 -0.624685 -0.774715 0
M  V30 39 H 0.127859 -2.26789 0.961412 0
M  V30 40 H 0.348359 -1.07438 2.29714 0
M  V30 41 H 3.81612 -1.96733 0.750636 0
M  V30 42 H 2.55579 -2.79434 -0.222936 0
M  V30 43 H 2.08023 -0.517119 -1.39576 0
M  V30 44 H 3.29811 0.181641 -0.34572 0
M  V30 45 H 5.70959 -1.86327 -2.31768 0
M  V30 46 H 5.11423 -2.37767 -0.709491 0
M  V30 47 H 5.84831 0.423902 -1.59711 0
M  V30 48 H 5.21098 -0.0380577 0.0934822 0
M  V30 49 H 8.76916 -0.0848114 0.562398 0
M  V30 50 H 7.24611 0.553129 1.27054 0
M  V30 51 H 8.61127 2.29556 0.375833 0
M  V30 52 H 8.78178 1.5733 -1.21949 0
M  V30 53 H 6.87218 2.64535 -1.79372 0
M  V30 54 H 6.79123 3.31992 -0.225187 0
M  V30 END ATOM
M  V30 BEGIN BOND
M  V30 1 1 1 2
M  V30 2 1 2 3
M  V30 3 1 3 4
M  V30 4 1 4 5
M  V30 5 1 5 6
M  V30 6 1 6 7
M  V30 7 1 7 8
M  V30 8 1 8 9
M  V30 9 1 9 10
M  V30 10 1 10 11
M  V30 11 1 11 12
M  V30 12 1 12 13
M  V30 13 1 13 14
M  V30 14 1 14 15
M  V30 15 1 15 16
M  V30 16 1 16 17
M  V30 17 1 17 18
M  V30 18 1 18 19
M  V30 19 1 19 20
M  V30 20 1 20 21
M  V30 21 1 21 22
M  V30 22 1 1 23
M  V30 23 1 1 24
M  V30 24 1 2 25
M  V30 25 1 2 26
M  V30 26 1 3 27
M  V30 27 1 3 28
M  V30 28 1 5 29
M  V30 29 1 5 30
M  V30 30 1 6 31
M  V30 31 1 6 32
M  V30 32 1 8 33
M  V30 33 1 8 34
M  V30 34 1 9 35
M  V30 35 1 9 36
M  V30 36 1 11 37
M  V30 37 1 11 38
M  V30 38 1 12 39
M  V30 39 1 12 40
M  V30 40 1 14 41
M  V30 41 1 14 42
M  V30 42 1 15 43
M  V30 43 1 15 44
M  V30 44 1 17 45
M  V30 45 1 17 46
M  V30 46 1 18 47
M  V30 47 1 18 48
M  V30 48 1 20 49
M  V30 49 1 20 50
M  V30 50 1 21 51
M  V30 51 1 21 52
M  V30 52 1 22 53
M  V30 53 1 22 54
M  V30 END BOND
M  V30 END CTAB
M  END
