
     RDKit          3D

  0  0  0  0  0  0  0  0  0  0999 V3000
M  V30 BEGIN CTAB
M  V30 COUNTS 44 43 0 0 0
M  V30 BEGIN ATOM
M  V30 1 C -3.65198 1.18601 0.322206 0 CFG=1
M  V30 2 N -3.75578 2.62776 0.00801151 0
M  V30 3 C -4.69687 0.527439 -0.554124 0
M  V30 4 C -6.04551 1.11216 -0.182856 0
M  V30 5 C -4.8036 -0.950639 -0.390635 0
M  V30 6 C -2.28263 0.703337 0.0850613 0
M  V30 7 O -1.48526 1.50177 -0.467879 0
M  V30 8 N -1.8533 -0.586837 0.449797 0
M  V30 9 C -0.527282 -1.12397 0.250001 0
M  V30 10 C 0.499754 -0.318048 1.00329 0
M  V30 11 N 1.84895 -0.797826 0.873556 0
M  V30 12 C 2.56091 -0.881654 -0.344292 0
M  V30 13 O 1.96619 -0.505874 -1.40758 0
M  V30 14 C 3.94067 -1.37144 -0.492217 0 CFG=1
M  V30 15 N 4.1962 -1.60112 -1.9156 0
M  V30 16 C 4.99668 -0.417409 0.014563 0
M  V30 17 C 4.83109 -0.128372 1.47135 0
M  V30 18 C 4.96103 0.898365 -0.732361 0
M  V30 19 H -3.92439 1.07465 1.387 0
M  V30 20 H -3.26845 3.1707 0.741558 0
M  V30 21 H -3.20977 2.75976 -0.873544 0
M  V30 22 H -4.50003 0.798687 -1.60159 0
M  V30 23 H -6.52016 0.470148 0.596948 0
M  V30 24 H -6.73826 1.09222 -1.05388 0
M  V30 25 H -5.98925 2.12603 0.209873 0
M  V30 26 H -5.79256 -1.24676 -0.84851 0
M  V30 27 H -4.04773 -1.53901 -0.91497 0
M  V30 28 H -4.92161 -1.20451 0.687566 0
M  V30 29 H -2.53833 -1.24938 0.922798 0
M  V30 30 H -0.470648 -2.20164 0.517153 0
M  V30 31 H -0.282834 -1.06283 -0.843099 0
M  V30 32 H 0.489647 0.748792 0.655667 0
M  V30 33 H 0.19209 -0.249562 2.07455 0
M  V30 34 H 2.36456 -1.12905 1.74468 0
M  V30 35 H 4.09488 -2.33932 0.0204358 0
M  V30 36 H 3.75706 -0.88008 -2.51129 0
M  V30 37 H 5.20792 -1.68853 -2.10165 0
M  V30 38 H 5.97259 -0.914748 -0.14476 0
M  V30 39 H 4.70212 -1.07552 2.05236 0
M  V30 40 H 3.99245 0.573527 1.62782 0
M  V30 41 H 5.75435 0.371609 1.86276 0
M  V30 42 H 5.98861 1.33889 -0.688429 0
M  V30 43 H 4.26122 1.6096 -0.252308 0
M  V30 44 H 4.72729 0.772663 -1.8049 0
M  V30 END ATOM
M  V30 BEGIN BOND
M  V30 1 1 1 2
M  V30 2 1 1 3
M  V30 3 1 3 4
M  V30 4 1 3 5
M  V30 5 1 1 6
M  V30 6 2 6 7
M  V30 7 1 6 8
M  V30 8 1 8 9
M  V30 9 1 9 10
M  V30 10 1 10 11
M  V30 11 1 11 12
M  V30 12 2 12 13
M  V30 13 1 12 14
M  V30 14 1 14 15
M  V30 15 1 14 16
M  V30 16 1 16 17
M  V30 17 1 16 18
M  V30 18 1 1 19 CFG=1
M  V30 19 1 2 20
M  V30 20 1 2 21
M  V30 21 1 3 22
M  V30 22 1 4 23
M  V30 23 1 4 24
M  V30 24 1 4 25
M  V30 25 1 5 26
M  V30 26 1 5 27
M  V30 27 1 5 28
M  V30 28 1 8 29
M  V30 29 1 9 30
M  V30 30 1 9 31
M  V30 31 1 10 32
M  V30 32 1 10 33
M  V30 33 1 11 34
M  V30 34 1 14 35 CFG=1
M  V30 35 1 15 36
M  V30 36 1 15 37
M  V30 37 1 16 38
M  V30 38 1 17 39
M  V30 39 1 17 40
M  V30 40 1 17 41
M  V30 41 1 18 42
M  V30 42 1 18 43
M  V30 43 1 18 44
M  V30 END BOND
M  V30 END CTAB
M  END
