
     RDKit          3D

  0  0  0  0  0  0  0  0  0  0999 V3000
M  V30 BEGIN CTAB
M  V30 COUNTS 43 45 0 0 0
M  V30 BEGIN ATOM
M  V30 1 N 2.54954 2.87172 -0.547454 0
M  V30 2 N 2.75571 1.64792 -1.18861 0
M  V30 3 C 3.06545 0.503422 -0.363447 0
M  V30 4 N 4.3643 0.296357 -0.131448 0
M  V30 5 C 4.80633 -0.70076 0.626014 0
M  V30 6 N 6.19804 -0.907803 0.863365 0
M  V30 7 N 7.10713 -0.0244008 0.272311 0
M  V30 8 N 3.89762 -1.52545 1.17396 0
M  V30 9 C 2.55827 -1.33544 0.951714 0
M  V30 10 C 2.06415 -0.323745 0.179144 0
M  V30 11 C 0.700645 -0.263153 0.0593512 0
M  V30 12 C -0.0861055 0.748185 -0.76577 0
M  V30 13 C -1.42542 0.130302 -1.12748 0
M  V30 14 C -2.14462 -0.10746 0.183477 0
M  V30 15 C -1.50965 -1.33633 0.756467 0
M  V30 16 C -0.0246477 -1.2106 0.722062 0
M  V30 17 S 1.16834 -2.15895 1.48593 0
M  V30 18 C -3.62075 -0.206957 0.0292795 0
M  V30 19 C -4.23902 -0.441837 1.37969 0
M  V30 20 C -4.05223 -1.33675 -0.87434 0
M  V30 21 C -4.14142 1.0908 -0.520329 0
M  V30 22 H 2.19082 2.68823 0.40941 0
M  V30 23 H 1.79688 3.36996 -1.07676 0
M  V30 24 H 2.6901 1.58653 -2.22428 0
M  V30 25 H 6.5017 -1.70772 1.46797 0
M  V30 26 H 6.74951 0.350011 -0.627549 0
M  V30 27 H 7.27394 0.799182 0.911656 0
M  V30 28 H 0.456712 1.02555 -1.69297 0
M  V30 29 H -0.283148 1.62245 -0.125687 0
M  V30 30 H -1.97651 0.758471 -1.8213 0
M  V30 31 H -1.16819 -0.868685 -1.58681 0
M  V30 32 H -1.92452 0.734186 0.866088 0
M  V30 33 H -1.76668 -2.25394 0.21215 0
M  V30 34 H -1.8119 -1.46808 1.80851 0
M  V30 35 H -4.68539 -1.4584 1.48091 0
M  V30 36 H -5.05809 0.291776 1.58767 0
M  V30 37 H -3.47947 -0.311048 2.20293 0
M  V30 38 H -3.69578 -1.23776 -1.90735 0
M  V30 39 H -5.1674 -1.32026 -0.903903 0
M  V30 40 H -3.78182 -2.32114 -0.408212 0
M  V30 41 H -3.35814 1.89564 -0.520497 0
M  V30 42 H -4.96768 1.48005 0.102572 0
M  V30 43 H -4.52663 0.935939 -1.55627 0
M  V30 END ATOM
M  V30 BEGIN BOND
M  V30 1 1 1 2
M  V30 2 1 2 3
M  V30 3 2 3 4
M  V30 4 1 4 5
M  V30 5 1 5 6
M  V30 6 1 6 7
M  V30 7 2 5 8
M  V30 8 1 8 9
M  V30 9 2 9 10
M  V30 10 1 10 11
M  V30 11 1 11 12
M  V30 12 1 12 13
M  V30 13 1 13 14
M  V30 14 1 14 15
M  V30 15 1 15 16
M  V30 16 1 16 17
M  V30 17 1 14 18
M  V30 18 1 18 19
M  V30 19 1 18 20
M  V30 20 1 18 21
M  V30 21 1 10 3
M  V30 22 2 16 11
M  V30 23 1 17 9
M  V30 24 1 1 22
M  V30 25 1 1 23
M  V30 26 1 2 24
M  V30 27 1 6 25
M  V30 28 1 7 26
M  V30 29 1 7 27
M  V30 30 1 12 28
M  V30 31 1 12 29
M  V30 32 1 13 30
M  V30 33 1 13 31
M  V30 34 1 14 32
M  V30 35 1 15 33
M  V30 36 1 15 34
M  V30 37 1 19 35
M  V30 38 1 19 36
M  V30 39 1 19 37
M  V30 40 1 20 38
M  V30 41 1 20 39
M  V30 42 1 20 40
M  V30 43 1 21 41
M  V30 44 1 21 42
M  V30 45 1 21 43
M  V30 END BOND
M  V30 END CTAB
M  END
