
     RDKit          3D

  0  0  0  0  0  0  0  0  0  0999 V3000
M  V30 BEGIN CTAB
M  V30 COUNTS 28 28 0 0 0
M  V30 BEGIN ATOM
M  V30 1 N 3.93997 0.910679 -1.0336 0
M  V30 2 N 2.73187 0.895326 -0.334741 0
M  V30 3 C 2.0633 -0.182894 -0.209196 0
M  V30 4 N 0.846156 -0.184953 0.498157 0
M  V30 5 C -0.405033 -0.549807 -0.0502486 0
M  V30 6 C -0.584787 -1.81247 -0.561715 0
M  V30 7 C -1.81277 -2.19734 -1.10951 0
M  V30 8 C -2.86467 -1.31026 -1.14375 0
M  V30 9 C -2.68972 -0.0455727 -0.633163 0
M  V30 10 C -1.4735 0.318103 -0.0968722 0
M  V30 11 O -1.26469 1.58867 0.427139 0
M  V30 12 C -2.24698 2.595 0.45872 0
M  V30 13 C 0.897153 0.223382 1.90415 0
M  V30 14 N 2.54273 -1.37749 -0.779709 0
M  V30 15 H 4.83503 0.655769 -0.56376 0
M  V30 16 H 3.99756 1.17588 -2.04779 0
M  V30 17 H 0.198152 -2.5336 -0.557986 0
M  V30 18 H -1.95173 -3.18263 -1.50819 0
M  V30 19 H -3.81163 -1.62577 -1.57289 0
M  V30 20 H -3.5152 0.639538 -0.663917 0
M  V30 21 H -2.91948 2.50038 1.34323 0
M  V30 22 H -1.75241 3.60754 0.478383 0
M  V30 23 H -2.85151 2.55806 -0.47111 0
M  V30 24 H -0.110634 0.112306 2.38467 0
M  V30 25 H 1.58001 -0.427169 2.49147 0
M  V30 26 H 1.14946 1.29429 1.98773 0
M  V30 27 H 3.22082 -1.94831 -0.19241 0
M  V30 28 H 2.25253 -1.69665 -1.73326 0
M  V30 END ATOM
M  V30 BEGIN BOND
M  V30 1 1 1 2
M  V30 2 2 2 3 CFG=2
M  V30 3 1 3 4
M  V30 4 1 4 5
M  V30 5 2 5 6
M  V30 6 1 6 7
M  V30 7 2 7 8
M  V30 8 1 8 9
M  V30 9 2 9 10
M  V30 10 1 10 11
M  V30 11 1 11 12
M  V30 12 1 4 13
M  V30 13 1 3 14
M  V30 14 1 10 5
M  V30 15 1 1 15
M  V30 16 1 1 16
M  V30 17 1 6 17
M  V30 18 1 7 18
M  V30 19 1 8 19
M  V30 20 1 9 20
M  V30 21 1 12 21
M  V30 22 1 12 22
M  V30 23 1 12 23
M  V30 24 1 13 24
M  V30 25 1 13 25
M  V30 26 1 13 26
M  V30 27 1 14 27
M  V30 28 1 14 28
M  V30 END BOND
M  V30 END CTAB
M  END
