
     RDKit          3D

  0  0  0  0  0  0  0  0  0  0999 V3000
M  V30 BEGIN CTAB
M  V30 COUNTS 30 31 0 0 0
M  V30 BEGIN ATOM
M  V30 1 C 3.85418 0.828145 -1.09616 0
M  V30 2 C 3.26736 -0.0268671 -0.031111 0
M  V30 3 C 2.22032 0.667411 0.8539 0
M  V30 4 C 1.56446 -0.698212 0.916652 0
M  V30 5 C 2.06926 -0.888106 -0.486297 0
M  V30 6 N 0.16914 -0.756897 1.13666 0
M  V30 7 C -0.881777 -0.171378 0.453504 0
M  V30 8 N -0.718497 0.644744 -0.622714 0
M  V30 9 C -1.73852 1.22088 -1.27817 0
M  V30 10 C -3.04286 1.01083 -0.885231 0
M  V30 11 C -3.26632 0.191259 0.200999 0
M  V30 12 C -2.18939 -0.369397 0.831101 0
M  V30 13 N -2.43989 -1.20807 1.94438 0
M  V30 14 N -4.59044 -0.0816478 0.677473 0
M  V30 15 H 4.17133 1.80514 -0.639874 0
M  V30 16 H 3.19521 1.021 -1.9534 0
M  V30 17 H 4.82679 0.347929 -1.40834 0
M  V30 18 H 3.98788 -0.62968 0.532293 0
M  V30 19 H 1.61631 1.34745 0.257414 0
M  V30 20 H 2.69742 1.02528 1.75431 0
M  V30 21 H 2.17472 -1.44251 1.53048 0
M  V30 22 H 2.3825 -1.92213 -0.744396 0
M  V30 23 H 1.49679 -0.352166 -1.23047 0
M  V30 24 H -0.113049 -1.3624 1.98375 0
M  V30 25 H -1.59137 1.87158 -2.13779 0
M  V30 26 H -3.8933 1.45188 -1.38061 0
M  V30 27 H -2.10791 -1.00217 2.90979 0
M  V30 28 H -2.98923 -2.0793 1.77681 0
M  V30 29 H -5.24147 0.638338 1.02616 0
M  V30 30 H -4.88964 -1.08092 0.659536 0
M  V30 END ATOM
M  V30 BEGIN BOND
M  V30 1 1 1 2
M  V30 2 1 2 3
M  V30 3 1 3 4
M  V30 4 1 4 5
M  V30 5 1 4 6
M  V30 6 1 6 7
M  V30 7 2 7 8
M  V30 8 1 8 9
M  V30 9 2 9 10
M  V30 10 1 10 11
M  V30 11 2 11 12
M  V30 12 1 12 13
M  V30 13 1 11 14
M  V30 14 1 5 2
M  V30 15 1 12 7
M  V30 16 1 1 15
M  V30 17 1 1 16
M  V30 18 1 1 17
M  V30 19 1 2 18
M  V30 20 1 3 19
M  V30 21 1 3 20
M  V30 22 1 4 21
M  V30 23 1 5 22
M  V30 24 1 5 23
M  V30 25 1 6 24
M  V30 26 1 9 25
M  V30 27 1 10 26
M  V30 28 1 13 27
M  V30 29 1 13 28
M  V30 30 1 14 29
M  V30 31 1 14 30
M  V30 END BOND
M  V30 END CTAB
M  END
