
     RDKit          3D

  0  0  0  0  0  0  0  0  0  0999 V3000
M  V30 BEGIN CTAB
M  V30 COUNTS 45 46 0 0 0
M  V30 BEGIN ATOM
M  V30 1 N 6.49109 2.60257 -1.76398 0
M  V30 2 C 5.41251 1.81315 -1.27692 0
M  V30 3 C 5.21968 1.5922 0.0662722 0
M  V30 4 C 4.16176 0.816461 0.545972 0
M  V30 5 C 3.26908 0.242421 -0.323559 0
M  V30 6 C 3.45737 0.459847 -1.66697 0
M  V30 7 C 4.4993 1.22491 -2.15207 0
M  V30 8 N 2.14908 -0.567131 0.169197 0
M  V30 9 C 1.21079 0.119432 0.934878 0
M  V30 10 O 1.4378 1.41268 1.15227 0
M  V30 11 C 0.00294155 -0.319081 1.55399 0
M  V30 12 O -0.441163 -1.46789 1.4919 0
M  V30 13 N -0.787678 0.605822 2.31343 0
M  V30 14 C -2.02055 0.220037 2.95728 0
M  V30 15 C -3.06055 0.157664 1.8964 0
M  V30 16 C -4.28437 -0.43244 2.12711 0
M  V30 17 C -5.2386 -0.466931 1.14127 0
M  V30 18 C -5.04545 0.0677053 -0.105233 0
M  V30 19 C -3.81305 0.662076 -0.33931 0
M  V30 20 C -2.85029 0.700418 0.645931 0
M  V30 21 S -6.31731 -0.0206067 -1.29433 0
M  V30 22 O -6.29638 1.17484 -2.20696 0
M  V30 23 O -7.63322 -0.0675366 -0.545855 0
M  V30 24 N -6.11332 -1.47224 -2.20382 0
M  V30 25 C 2.16788 -1.89719 -0.188266 0
M  V30 26 O 1.3291 -2.74794 0.127785 0
M  V30 27 C 3.29217 -2.44526 -1.05194 0
M  V30 28 H 7.04773 2.24264 -2.55986 0
M  V30 29 H 6.74346 3.5203 -1.35684 0
M  V30 30 H 5.92264 2.0429 0.774279 0
M  V30 31 H 4.05511 0.673947 1.61452 0
M  V30 32 H 2.72757 -0.0141398 -2.33556 0
M  V30 33 H 4.6325 1.38442 -3.21386 0
M  V30 34 H -0.48218 1.61175 2.42186 0
M  V30 35 H -2.36112 0.993979 3.68142 0
M  V30 36 H -1.89164 -0.712563 3.51342 0
M  V30 37 H -4.42746 -0.856258 3.12373 0
M  V30 38 H -6.19298 -0.949652 1.38331 0
M  V30 39 H -3.66993 1.08228 -1.32966 0
M  V30 40 H -1.90391 1.17133 0.430248 0
M  V30 41 H -5.28945 -1.29615 -2.85245 0
M  V30 42 H -5.83102 -2.22167 -1.56553 0
M  V30 43 H 3.4652 -3.53304 -0.810624 0
M  V30 44 H 3.0193 -2.41342 -2.1161 0
M  V30 45 H 4.23757 -1.93363 -0.806766 0
M  V30 END ATOM
M  V30 BEGIN BOND
M  V30 1 1 1 2
M  V30 2 2 2 3
M  V30 3 1 3 4
M  V30 4 2 4 5
M  V30 5 1 5 6
M  V30 6 2 6 7
M  V30 7 1 5 8
M  V30 8 1 8 9
M  V30 9 2 9 10
M  V30 10 1 9 11
M  V30 11 2 11 12
M  V30 12 1 11 13
M  V30 13 1 13 14
M  V30 14 1 14 15
M  V30 15 2 15 16
M  V30 16 1 16 17
M  V30 17 2 17 18
M  V30 18 1 18 19
M  V30 19 2 19 20
M  V30 20 1 18 21
M  V30 21 2 21 22
M  V30 22 2 21 23
M  V30 23 1 21 24
M  V30 24 1 8 25
M  V30 25 2 25 26
M  V30 26 1 25 27
M  V30 27 1 7 2
M  V30 28 1 20 15
M  V30 29 1 1 28
M  V30 30 1 1 29
M  V30 31 1 3 30
M  V30 32 1 4 31
M  V30 33 1 6 32
M  V30 34 1 7 33
M  V30 35 1 13 34
M  V30 36 1 14 35
M  V30 37 1 14 36
M  V30 38 1 16 37
M  V30 39 1 17 38
M  V30 40 1 19 39
M  V30 41 1 20 40
M  V30 42 1 24 41
M  V30 43 1 24 42
M  V30 44 1 27 43
M  V30 45 1 27 44
M  V30 46 1 27 45
M  V30 END BOND
M  V30 END CTAB
M  END
