
     RDKit          3D

  0  0  0  0  0  0  0  0  0  0999 V3000
M  V30 BEGIN CTAB
M  V30 COUNTS 22 22 0 0 0
M  V30 BEGIN ATOM
M  V30 1 N -3.73343 1.16065 -0.461873 0
M  V30 2 S -3.04473 -0.397237 -0.755376 0
M  V30 3 O -3.72746 -1.3664 0.150857 0
M  V30 4 O -3.26873 -0.72803 -2.19944 0
M  V30 5 C -1.33882 -0.368863 -0.358764 0
M  V30 6 C -0.387508 -0.0412632 -1.28842 0
M  V30 7 C 0.962216 -0.0265865 -0.945934 0
M  V30 8 Cl 2.20415 0.383862 -2.09594 0
M  V30 9 C 1.34904 -0.342649 0.334392 0
M  V30 10 C 0.390532 -0.668099 1.25401 0
M  V30 11 C -0.937013 -0.681546 0.9135 0
M  V30 12 S 3.04575 -0.336367 0.809906 0
M  V30 13 N 3.66269 1.25572 0.563867 0
M  V30 14 O 3.77824 -1.3398 -0.0512191 0
M  V30 15 O 3.154 -0.719029 2.23567 0
M  V30 16 H -4.68839 1.07712 -0.0331037 0
M  V30 17 H -3.14695 1.70577 0.193806 0
M  V30 18 H -0.660628 0.209705 -2.29507 0
M  V30 19 H 0.694553 -0.924373 2.28927 0
M  V30 20 H -1.68337 -0.950533 1.68705 0
M  V30 21 H 2.94392 1.90775 0.202567 0
M  V30 22 H 4.43195 1.19019 -0.149747 0
M  V30 END ATOM
M  V30 BEGIN BOND
M  V30 1 1 1 2
M  V30 2 2 2 3
M  V30 3 2 2 4
M  V30 4 1 2 5
M  V30 5 2 5 6
M  V30 6 1 6 7
M  V30 7 1 7 8
M  V30 8 2 7 9
M  V30 9 1 9 10
M  V30 10 2 10 11
M  V30 11 1 9 12
M  V30 12 1 12 13
M  V30 13 2 12 14
M  V30 14 2 12 15
M  V30 15 1 11 5
M  V30 16 1 1 16
M  V30 17 1 1 17
M  V30 18 1 6 18
M  V30 19 1 10 19
M  V30 20 1 11 20
M  V30 21 1 13 21
M  V30 22 1 13 22
M  V30 END BOND
M  V30 END CTAB
M  END
