
     RDKit          3D

  0  0  0  0  0  0  0  0  0  0999 V3000
M  V30 BEGIN CTAB
M  V30 COUNTS 44 44 0 0 0
M  V30 BEGIN ATOM
M  V30 1 C -7.11418 1.54706 0.336613 0
M  V30 2 C -6.5258 0.172926 0.0230323 0
M  V30 3 C -5.00761 0.341628 0.161308 0
M  V30 4 C -4.29197 -0.938192 -0.120202 0
M  V30 5 C -2.80785 -0.733438 0.0415376 0
M  V30 6 C -2.23423 0.297832 -0.875934 0
M  V30 7 C -0.765152 0.467472 -0.670062 0
M  V30 8 C -0.0145543 -0.791098 -0.928383 0
M  V30 9 N 1.43436 -0.655201 -0.762665 0
M  V30 10 C 2.08277 -0.298152 0.414567 0
M  V30 11 O 1.38638 -0.0639974 1.4627 0
M  V30 12 C 3.52555 -0.170345 0.537927 0
M  V30 13 C 4.3717 -0.391461 -0.501382 0
M  V30 14 C 5.76571 -0.275923 -0.41206 0
M  V30 15 N 6.57337 -0.524994 -1.54691 0
M  V30 16 C 6.27149 0.0839869 0.814302 0
M  V30 17 N 7.68663 0.207744 0.929261 0
M  V30 18 C 5.46184 0.321059 1.90451 0
M  V30 19 C 4.09991 0.190462 1.75072 0
M  V30 20 H -8.19676 1.58302 0.217361 0
M  V30 21 H -6.59156 2.25322 -0.36913 0
M  V30 22 H -6.76507 1.85022 1.35327 0
M  V30 23 H -6.70796 -0.0692091 -1.04298 0
M  V30 24 H -6.8981 -0.590742 0.717934 0
M  V30 25 H -4.74806 1.08535 -0.634383 0
M  V30 26 H -4.75327 0.697518 1.15825 0
M  V30 27 H -4.44785 -1.29242 -1.16943 0
M  V30 28 H -4.58486 -1.73374 0.598972 0
M  V30 29 H -2.65385 -0.349102 1.09051 0
M  V30 30 H -2.26982 -1.7208 -0.0720605 0
M  V30 31 H -2.76338 1.25971 -0.66228 0
M  V30 32 H -2.50126 0.0599187 -1.92654 0
M  V30 33 H -0.525225 0.895351 0.334969 0
M  V30 34 H -0.445949 1.29645 -1.37547 0
M  V30 35 H -0.32372 -1.58068 -0.184949 0
M  V30 36 H -0.289071 -1.19003 -1.90935 0
M  V30 37 H 1.99547 -0.84972 -1.61933 0
M  V30 38 H 3.98386 -0.672255 -1.45984 0
M  V30 39 H 6.8327 0.272368 -2.15287 0
M  V30 40 H 6.91517 -1.46767 -1.79664 0
M  V30 41 H 8.17482 1.13406 0.920427 0
M  V30 42 H 8.28576 -0.634487 1.02703 0
M  V30 43 H 5.91608 0.598737 2.83489 0
M  V30 44 H 3.46354 0.377559 2.61046 0
M  V30 END ATOM
M  V30 BEGIN BOND
M  V30 1 1 1 2
M  V30 2 1 2 3
M  V30 3 1 3 4
M  V30 4 1 4 5
M  V30 5 1 5 6
M  V30 6 1 6 7
M  V30 7 1 7 8
M  V30 8 1 8 9
M  V30 9 1 9 10
M  V30 10 2 10 11
M  V30 11 1 10 12
M  V30 12 2 12 13
M  V30 13 1 13 14
M  V30 14 1 14 15
M  V30 15 2 14 16
M  V30 16 1 16 17
M  V30 17 1 16 18
M  V30 18 2 18 19
M  V30 19 1 19 12
M  V30 20 1 1 20
M  V30 21 1 1 21
M  V30 22 1 1 22
M  V30 23 1 2 23
M  V30 24 1 2 24
M  V30 25 1 3 25
M  V30 26 1 3 26
M  V30 27 1 4 27
M  V30 28 1 4 28
M  V30 29 1 5 29
M  V30 30 1 5 30
M  V30 31 1 6 31
M  V30 32 1 6 32
M  V30 33 1 7 33
M  V30 34 1 7 34
M  V30 35 1 8 35
M  V30 36 1 8 36
M  V30 37 1 9 37
M  V30 38 1 13 38
M  V30 39 1 15 39
M  V30 40 1 15 40
M  V30 41 1 17 41
M  V30 42 1 17 42
M  V30 43 1 18 43
M  V30 44 1 19 44
M  V30 END BOND
M  V30 END CTAB
M  END
