
     RDKit          3D

  0  0  0  0  0  0  0  0  0  0999 V3000
M  V30 BEGIN CTAB
M  V30 COUNTS 64 67 0 0 0
M  V30 BEGIN ATOM
M  V30 1 N 5.58873 2.27157 -3.31491 0
M  V30 2 N 4.55789 2.02822 -2.39601 0
M  V30 3 C 4.7249 1.26821 -1.36996 0
M  V30 4 N 5.98707 0.659523 -1.16236 0
M  V30 5 C 3.64467 1.0172 -0.414884 0
M  V30 6 C 2.39998 1.58668 -0.578414 0
M  V30 7 C 1.37915 1.35457 0.317549 0
M  V30 8 C 1.55193 0.533063 1.43467 0
M  V30 9 C 0.45687 0.347616 2.3904 0
M  V30 10 C -0.483824 -0.741395 2.0867 0 CFG=2
M  V30 11 N -1.53451 -0.901767 3.04278 0
M  V30 12 S -3.11793 -0.910671 2.54537 0
M  V30 13 O -4.00517 -1.05173 3.75734 0
M  V30 14 O -3.49559 -2.09172 1.66691 0
M  V30 15 C -3.62822 0.596886 1.77139 0
M  V30 16 C -3.50772 0.766561 0.417151 0
M  V30 17 C -3.89318 1.92632 -0.245471 0
M  V30 18 C -4.41397 2.91176 0.565592 0
M  V30 19 C -4.81244 4.09343 -0.0738368 0
M  V30 20 C -4.67857 4.23127 -1.43403 0
M  V30 21 C -4.15334 3.22499 -2.21517 0
M  V30 22 C -3.75231 2.05113 -1.61717 0
M  V30 23 C -4.54712 2.7704 1.9271 0
M  V30 24 C -4.15268 1.60836 2.53304 0
M  V30 25 C 0.258385 -2.03918 2.08669 0
M  V30 26 O 0.501295 -2.54935 3.24209 0
M  V30 27 N 0.699963 -2.74105 0.968679 0
M  V30 28 O 1.3849 -3.89718 1.14626 0
M  V30 29 C 0.481712 -2.3749 -0.42268 0
M  V30 30 C -0.440435 -3.43318 -1.07968 0
M  V30 31 C -0.109009 -3.19555 -2.54533 0
M  V30 32 C 1.41309 -3.25598 -2.49209 0
M  V30 33 C 1.74324 -2.56437 -1.18466 0
M  V30 34 C 2.80339 -0.031441 1.58572 0
M  V30 35 C 3.81917 0.205688 0.685228 0
M  V30 36 H 5.49514 2.07454 -4.33348 0
M  V30 37 H 6.47417 2.66255 -2.9563 0
M  V30 38 H 6.60375 1.03292 -0.421484 0
M  V30 39 H 6.28974 -0.137926 -1.73315 0
M  V30 40 H 2.25998 2.22968 -1.44952 0
M  V30 41 H 0.421142 1.82454 0.145619 0
M  V30 42 H -0.00130259 1.34504 2.539 0
M  V30 43 H 0.959748 0.150815 3.39042 0
M  V30 44 H -0.913118 -0.621399 1.08095 0
M  V30 45 H -1.31684 -1.68879 3.67535 0
M  V30 46 H -3.08799 -0.0350273 -0.216662 0
M  V30 47 H -5.22208 4.86755 0.564641 0
M  V30 48 H -4.99929 5.16961 -1.91191 0
M  V30 49 H -4.06085 3.37171 -3.30497 0
M  V30 50 H -3.33436 1.23184 -2.18403 0
M  V30 51 H -4.96568 3.58942 2.50087 0
M  V30 52 H -4.26073 1.49631 3.63089 0
M  V30 53 H 1.49365 -4.14489 2.08681 0
M  V30 54 H -0.0591264 -1.4427 -0.563749 0
M  V30 55 H -1.46852 -3.16873 -0.83238 0
M  V30 56 H -0.126875 -4.44709 -0.803445 0
M  V30 57 H -0.551608 -3.97605 -3.16161 0
M  V30 58 H -0.375387 -2.1624 -2.83806 0
M  V30 59 H 1.89335 -2.72127 -3.3153 0
M  V30 60 H 1.69548 -4.31563 -2.51231 0
M  V30 61 H 2.39293 -3.29033 -0.623819 0
M  V30 62 H 2.31892 -1.64696 -1.33371 0
M  V30 63 H 2.96799 -0.676056 2.44442 0
M  V30 64 H 4.80744 -0.245262 0.812957 0
M  V30 END ATOM
M  V30 BEGIN BOND
M  V30 1 1 1 2
M  V30 2 2 2 3
M  V30 3 1 3 4
M  V30 4 1 3 5
M  V30 5 2 5 6
M  V30 6 1 6 7
M  V30 7 2 7 8
M  V30 8 1 8 9
M  V30 9 1 9 10
M  V30 10 1 10 11
M  V30 11 1 11 12
M  V30 12 2 12 13
M  V30 13 2 12 14
M  V30 14 1 12 15
M  V30 15 2 15 16
M  V30 16 1 16 17
M  V30 17 2 17 18
M  V30 18 1 18 19
M  V30 19 2 19 20
M  V30 20 1 20 21
M  V30 21 2 21 22
M  V30 22 1 18 23
M  V30 23 2 23 24
M  V30 24 1 10 25
M  V30 25 2 25 26
M  V30 26 1 25 27
M  V30 27 1 27 28
M  V30 28 1 27 29
M  V30 29 1 29 30
M  V30 30 1 30 31
M  V30 31 1 31 32
M  V30 32 1 32 33
M  V30 33 1 8 34
M  V30 34 2 34 35
M  V30 35 1 35 5
M  V30 36 1 24 15
M  V30 37 1 33 29
M  V30 38 1 22 17
M  V30 39 1 1 36
M  V30 40 1 1 37
M  V30 41 1 4 38
M  V30 42 1 4 39
M  V30 43 1 6 40
M  V30 44 1 7 41
M  V30 45 1 9 42
M  V30 46 1 9 43
M  V30 47 1 10 44 CFG=3
M  V30 48 1 11 45
M  V30 49 1 16 46
M  V30 50 1 19 47
M  V30 51 1 20 48
M  V30 52 1 21 49
M  V30 53 1 22 50
M  V30 54 1 23 51
M  V30 55 1 24 52
M  V30 56 1 28 53
M  V30 57 1 29 54
M  V30 58 1 30 55
M  V30 59 1 30 56
M  V30 60 1 31 57
M  V30 61 1 31 58
M  V30 62 1 32 59
M  V30 63 1 32 60
M  V30 64 1 33 61
M  V30 65 1 33 62
M  V30 66 1 34 63
M  V30 67 1 35 64
M  V30 END BOND
M  V30 END CTAB
M  END
