
     RDKit          3D

  0  0  0  0  0  0  0  0  0  0999 V3000
M  V30 BEGIN CTAB
M  V30 COUNTS 24 24 0 0 0
M  V30 BEGIN ATOM
M  V30 1 N -3.17954 2.53148 0.915696 0
M  V30 2 C -2.67126 1.96765 0.0440458 0
M  V30 3 C -2.01243 1.26236 -1.08963 0
M  V30 4 C -0.993768 0.373263 -0.483686 0
M  V30 5 C 0.324929 0.727257 -0.489699 0
M  V30 6 C 1.26141 -0.120919 0.0967093 0
M  V30 7 O 2.6022 0.15646 0.137352 0
M  V30 8 C 3.26992 1.26289 -0.356172 0
M  V30 9 C 0.82679 -1.29729 0.666431 0
M  V30 10 C -0.50873 -1.68376 0.686404 0
M  V30 11 C -1.4149 -0.801428 0.0873541 0
M  V30 12 N -2.79445 -1.10786 0.0649545 0
M  V30 13 N 1.77948 -2.16716 1.27001 0
M  V30 14 H -2.83619 0.68371 -1.58531 0
M  V30 15 H -1.57759 1.96233 -1.82097 0
M  V30 16 H 0.646141 1.64204 -0.939771 0
M  V30 17 H 3.79497 1.78219 0.499727 0
M  V30 18 H 2.65348 1.98443 -0.927653 0
M  V30 19 H 4.08632 0.901968 -1.01935 0
M  V30 20 H -0.854776 -2.60656 1.12931 0
M  V30 21 H -3.48629 -0.836994 0.779089 0
M  V30 22 H -3.15498 -1.65748 -0.745047 0
M  V30 23 H 1.79639 -2.1963 2.33475 0
M  V30 24 H 2.44287 -2.76228 0.745455 0
M  V30 END ATOM
M  V30 BEGIN BOND
M  V30 1 3 1 2
M  V30 2 1 2 3
M  V30 3 1 3 4
M  V30 4 2 4 5
M  V30 5 1 5 6
M  V30 6 1 6 7
M  V30 7 1 7 8
M  V30 8 2 6 9
M  V30 9 1 9 10
M  V30 10 2 10 11
M  V30 11 1 11 12
M  V30 12 1 9 13
M  V30 13 1 11 4
M  V30 14 1 3 14
M  V30 15 1 3 15
M  V30 16 1 5 16
M  V30 17 1 8 17
M  V30 18 1 8 18
M  V30 19 1 8 19
M  V30 20 1 10 20
M  V30 21 1 12 21
M  V30 22 1 12 22
M  V30 23 1 13 23
M  V30 24 1 13 24
M  V30 END BOND
M  V30 END CTAB
M  END
