
     RDKit          3D

  0  0  0  0  0  0  0  0  0  0999 V3000
M  V30 BEGIN CTAB
M  V30 COUNTS 103 108 0 0 0
M  V30 BEGIN ATOM
M  V30 1 N -3.50004 -4.307 -1.95344 0
M  V30 2 C -4.59456 -3.55753 -2.50635 0
M  V30 3 C -4.7239 -2.27657 -1.6693 0
M  V30 4 C -4.98884 -2.73167 -0.256348 0
M  V30 5 C -5.13468 -1.52036 0.617508 0
M  V30 6 C -3.9449 -0.622952 0.660205 0 CFG=2
M  V30 7 N -2.76884 -1.34397 1.16287 0
M  V30 8 C -1.52261 -0.955384 0.628538 0
M  V30 9 O -1.46236 -0.0442862 -0.2145 0
M  V30 10 C -0.289765 -1.63696 1.08052 0 CFG=1
M  V30 11 C -0.446016 -3.09371 0.738325 0
M  V30 12 C 0.662004 -3.96139 1.11731 0
M  V30 13 C 1.65818 -4.27077 0.229708 0
M  V30 14 C 2.71846 -5.09481 0.606025 0
M  V30 15 Br 4.10529 -5.5333 -0.607733 0
M  V30 16 C 2.77286 -5.61015 1.88522 0
M  V30 17 N 3.85663 -6.44906 2.2584 0
M  V30 18 C 1.75922 -5.2903 2.77098 0
M  V30 19 Br 1.79567 -5.99681 4.5667 0
M  V30 20 C 0.707941 -4.47978 2.41845 0
M  V30 21 N 0.82475 -0.976684 0.470608 0
M  V30 22 C 1.13789 -0.924181 -0.90428 0
M  V30 23 O 0.421605 -1.49767 -1.76008 0
M  V30 24 N 2.27534 -0.218137 -1.35951 0
M  V30 25 C 3.11785 0.479779 -0.416559 0
M  V30 26 C 3.95799 1.47985 -1.15778 0
M  V30 27 C 4.76424 0.861555 -2.2561 0
M  V30 28 C 4.14815 -0.371936 -2.82438 0
M  V30 29 C 2.62932 -0.181398 -2.77087 0
M  V30 30 N 6.12051 0.686177 -1.80997 0
M  V30 31 C 6.79155 1.65508 -1.13515 0
M  V30 32 C 8.06289 1.2155 -0.83235 0
M  V30 33 N 8.14518 -0.032487 -1.33659 0
M  V30 34 C 6.96113 -0.329333 -1.9218 0
M  V30 35 O 6.74695 -1.42463 -2.47555 0
M  V30 36 C 9.11632 1.93929 -0.112351 0
M  V30 37 C 10.3388 1.35897 0.115675 0
M  V30 38 C 11.343 2.03997 0.800595 0
M  V30 39 C 11.1309 3.30589 1.26192 0
M  V30 40 C 9.9177 3.91445 1.04959 0
M  V30 41 C 8.92465 3.20965 0.358997 0
M  V30 42 C -4.22993 0.453653 1.66975 0
M  V30 43 O -3.79792 0.288654 2.82967 0
M  V30 44 N -4.95728 1.58724 1.26609 0
M  V30 45 C -5.41419 1.76902 -0.0657738 0
M  V30 46 C -6.90042 2.14419 -0.0219254 0
M  V30 47 N -6.94643 3.33319 0.788726 0
M  V30 48 C -6.61871 3.13396 2.18035 0
M  V30 49 C -5.21483 2.59029 2.29334 0
M  V30 50 C -7.27988 4.58733 0.244256 0
M  V30 51 C -7.20655 5.76189 1.00562 0
M  V30 52 C -7.53773 6.97764 0.450829 0
M  V30 53 N -7.93919 7.10197 -0.818432 0
M  V30 54 C -8.02684 6.00475 -1.59299 0
M  V30 55 C -7.69741 4.77206 -1.05099 0
M  V30 56 H -3.81688 -4.89762 -1.17192 0
M  V30 57 H -2.68368 -3.73379 -1.65351 0
M  V30 58 H -5.55556 -4.121 -2.32337 0
M  V30 59 H -4.49289 -3.30772 -3.56686 0
M  V30 60 H -3.79004 -1.69788 -1.68999 0
M  V30 61 H -5.56517 -1.67889 -2.04783 0
M  V30 62 H -4.14465 -3.33489 0.121041 0
M  V30 63 H -5.9359 -3.31156 -0.173326 0
M  V30 64 H -5.44123 -1.82745 1.6721 0
M  V30 65 H -6.00925 -0.960904 0.246998 0
M  V30 66 H -3.7171 -0.200198 -0.309844 0
M  V30 67 H -2.86481 -2.09561 1.87224 0
M  V30 68 H -0.191292 -1.51773 2.1917 0
M  V30 69 H -1.35675 -3.4711 1.30013 0
M  V30 70 H -0.708495 -3.23994 -0.324444 0
M  V30 71 H 1.69645 -3.92723 -0.800331 0
M  V30 72 H 4.1582 -6.44311 3.2508 0
M  V30 73 H 4.31628 -7.03908 1.5424 0
M  V30 74 H -0.0719786 -4.24864 3.14571 0
M  V30 75 H 1.51368 -0.460536 1.1108 0
M  V30 76 H 2.52054 1.0646 0.325492 0
M  V30 77 H 3.74124 -0.216226 0.184763 0
M  V30 78 H 4.59908 1.9978 -0.398441 0
M  V30 79 H 3.25869 2.28526 -1.53113 0
M  V30 80 H 4.77394 1.61943 -3.09472 0
M  V30 81 H 4.33473 -1.30152 -2.24701 0
M  V30 82 H 4.42416 -0.455251 -3.88967 0
M  V30 83 H 2.17849 -1.07159 -3.25593 0
M  V30 84 H 2.31075 0.748784 -3.23864 0
M  V30 85 H 6.44677 2.65314 -0.843067 0
M  V30 86 H 8.98004 -0.654083 -1.28025 0
M  V30 87 H 10.5609 0.36381 -0.2234 0
M  V30 88 H 12.2929 1.52992 0.953354 0
M  V30 89 H 11.9111 3.81971 1.78637 0
M  V30 90 H 9.74224 4.91063 1.40981 0
M  V30 91 H 7.99083 3.71782 0.212018 0
M  V30 92 H -5.25914 0.96839 -0.761967 0
M  V30 93 H -4.92321 2.68343 -0.492018 0
M  V30 94 H -7.46426 1.35712 0.559247 0
M  V30 95 H -7.36924 2.17961 -0.990093 0
M  V30 96 H -6.78931 3.96687 2.84604 0
M  V30 97 H -7.28529 2.2793 2.52242 0
M  V30 98 H -5.14334 2.14952 3.3233 0
M  V30 99 H -4.4248 3.36102 2.24697 0
M  V30 100 H -6.89893 5.75614 2.01522 0
M  V30 101 H -7.48156 7.88462 1.03606 0
M  V30 102 H -8.34945 6.05696 -2.63159 0
M  V30 103 H -7.786 3.94086 -1.71598 0
M  V30 END ATOM
M  V30 BEGIN BOND
M  V30 1 1 1 2
M  V30 2 1 2 3
M  V30 3 1 3 4
M  V30 4 1 4 5
M  V30 5 1 5 6
M  V30 6 1 6 7
M  V30 7 1 7 8
M  V30 8 2 8 9
M  V30 9 1 8 10
M  V30 10 1 10 11
M  V30 11 1 11 12
M  V30 12 2 12 13
M  V30 13 1 13 14
M  V30 14 1 14 15
M  V30 15 2 14 16
M  V30 16 1 16 17
M  V30 17 1 16 18
M  V30 18 1 18 19
M  V30 19 2 18 20
M  V30 20 1 10 21
M  V30 21 1 21 22
M  V30 22 2 22 23
M  V30 23 1 22 24
M  V30 24 1 24 25
M  V30 25 1 25 26
M  V30 26 1 26 27
M  V30 27 1 27 28
M  V30 28 1 28 29
M  V30 29 1 27 30
M  V30 30 1 30 31
M  V30 31 2 31 32
M  V30 32 1 32 33
M  V30 33 1 33 34
M  V30 34 2 34 35
M  V30 35 1 32 36
M  V30 36 2 36 37
M  V30 37 1 37 38
M  V30 38 2 38 39
M  V30 39 1 39 40
M  V30 40 2 40 41
M  V30 41 1 6 42
M  V30 42 2 42 43
M  V30 43 1 42 44
M  V30 44 1 44 45
M  V30 45 1 45 46
M  V30 46 1 46 47
M  V30 47 1 47 48
M  V30 48 1 48 49
M  V30 49 1 47 50
M  V30 50 2 50 51
M  V30 51 1 51 52
M  V30 52 2 52 53
M  V30 53 1 53 54
M  V30 54 2 54 55
M  V30 55 1 20 12
M  V30 56 1 29 24
M  V30 57 1 34 30
M  V30 58 1 41 36
M  V30 59 1 49 44
M  V30 60 1 55 50
M  V30 61 1 1 56
M  V30 62 1 1 57
M  V30 63 1 2 58
M  V30 64 1 2 59
M  V30 65 1 3 60
M  V30 66 1 3 61
M  V30 67 1 4 62
M  V30 68 1 4 63
M  V30 69 1 5 64
M  V30 70 1 5 65
M  V30 71 1 6 66 CFG=3
M  V30 72 1 7 67
M  V30 73 1 10 68 CFG=1
M  V30 74 1 11 69
M  V30 75 1 11 70
M  V30 76 1 13 71
M  V30 77 1 17 72
M  V30 78 1 17 73
M  V30 79 1 20 74
M  V30 80 1 21 75
M  V30 81 1 25 76
M  V30 82 1 25 77
M  V30 83 1 26 78
M  V30 84 1 26 79
M  V30 85 1 27 80
M  V30 86 1 28 81
M  V30 87 1 28 82
M  V30 88 1 29 83
M  V30 89 1 29 84
M  V30 90 1 31 85
M  V30 91 1 33 86
M  V30 92 1 37 87
M  V30 93 1 38 88
M  V30 94 1 39 89
M  V30 95 1 40 90
M  V30 96 1 41 91
M  V30 97 1 45 92
M  V30 98 1 45 93
M  V30 99 1 46 94
M  V30 100 1 46 95
M  V30 101 1 48 96
M  V30 102 1 48 97
M  V30 103 1 49 98
M  V30 104 1 49 99
M  V30 105 1 51 100
M  V30 106 1 52 101
M  V30 107 1 54 102
M  V30 108 1 55 103
M  V30 END BOND
M  V30 END CTAB
M  END
