
     RDKit          3D

  0  0  0  0  0  0  0  0  0  0999 V3000
M  V30 BEGIN CTAB
M  V30 COUNTS 25 25 0 0 0
M  V30 BEGIN ATOM
M  V30 1 C -2.53636 -1.20093 -0.728891 0
M  V30 2 C -1.86599 0.0901883 -0.327146 0
M  V30 3 C -2.44309 0.491928 1.01676 0
M  V30 4 N -0.415164 -0.0723409 -0.229529 0
M  V30 5 N 0.275336 -1.19335 -0.279471 0
M  V30 6 C 1.59098 -0.949503 -0.154832 0
M  V30 7 C 2.71438 -1.94463 -0.159501 0
M  V30 8 C 1.70065 0.419358 -0.0198927 0
M  V30 9 N 2.89523 1.15758 0.140986 0
M  V30 10 C 0.42698 0.955974 -0.0691866 0
M  V30 11 N 0.101245 2.33523 0.0329155 0
M  V30 12 H -1.87107 -2.08951 -0.563657 0
M  V30 13 H -2.86386 -1.18908 -1.79113 0
M  V30 14 H -3.45731 -1.40528 -0.129634 0
M  V30 15 H -2.05551 0.859276 -1.10658 0
M  V30 16 H -1.85764 1.2853 1.50531 0
M  V30 17 H -2.50332 -0.437554 1.62004 0
M  V30 18 H -3.49463 0.805199 0.836226 0
M  V30 19 H 3.5711 -1.49355 -0.740066 0
M  V30 20 H 3.01474 -2.22612 0.859401 0
M  V30 21 H 2.4291 -2.86494 -0.704773 0
M  V30 22 H 2.85716 2.13821 0.516388 0
M  V30 23 H 3.83674 0.788476 -0.0925539 0
M  V30 24 H 0.118549 2.84217 0.946503 0
M  V30 25 H -0.168229 2.89789 -0.798788 0
M  V30 END ATOM
M  V30 BEGIN BOND
M  V30 1 1 1 2
M  V30 2 1 2 3
M  V30 3 1 2 4
M  V30 4 1 4 5
M  V30 5 2 5 6
M  V30 6 1 6 7
M  V30 7 1 6 8
M  V30 8 1 8 9
M  V30 9 2 8 10
M  V30 10 1 10 11
M  V30 11 1 10 4
M  V30 12 1 1 12
M  V30 13 1 1 13
M  V30 14 1 1 14
M  V30 15 1 2 15
M  V30 16 1 3 16
M  V30 17 1 3 17
M  V30 18 1 3 18
M  V30 19 1 7 19
M  V30 20 1 7 20
M  V30 21 1 7 21
M  V30 22 1 9 22
M  V30 23 1 9 23
M  V30 24 1 11 24
M  V30 25 1 11 25
M  V30 END BOND
M  V30 END CTAB
M  END
