
     RDKit          3D

  0  0  0  0  0  0  0  0  0  0999 V3000
M  V30 BEGIN CTAB
M  V30 COUNTS 40 43 0 0 0
M  V30 BEGIN ATOM
M  V30 1 C -4.64189 -0.925802 0.133992 0
M  V30 2 C -3.26917 -1.48209 -0.016344 0
M  V30 3 C -3.09414 -2.82874 -0.185435 0
M  V30 4 C -1.81858 -3.3306 -0.323156 0
M  V30 5 C -0.718177 -2.46625 -0.289201 0
M  V30 6 N 0.523275 -2.96089 -0.422887 0
M  V30 7 C 1.58878 -2.12485 -0.389077 0
M  V30 8 C 2.87336 -2.61556 -0.52438 0
M  V30 9 C 3.95988 -1.79917 -0.493285 0
M  V30 10 N 5.29108 -2.22381 -0.621773 0
M  V30 11 C 3.75456 -0.425652 -0.318698 0
M  V30 12 C 2.49026 0.0975575 -0.180894 0
M  V30 13 C 1.41504 -0.765023 -0.218219 0
M  V30 14 C 0.139795 -0.230743 -0.0779817 0
M  V30 15 C -0.0354306 1.19849 0.0995856 0
M  V30 16 C -0.0381832 2.10396 -0.927513 0
M  V30 17 C -0.210268 3.44077 -0.681284 0
M  V30 18 C -0.386139 3.93144 0.594287 0
M  V30 19 N -0.563621 5.31335 0.850667 0
M  V30 20 C -0.383081 3.01522 1.63132 0
M  V30 21 C -0.209359 1.65967 1.38866 0
M  V30 22 C -0.916865 -1.11298 -0.117699 0
M  V30 23 C -2.19308 -0.592314 0.0221588 0
M  V30 24 H -4.98251 -0.428019 -0.800401 0
M  V30 25 H -4.64001 -0.146319 0.915386 0
M  V30 26 H -5.33315 -1.73843 0.436415 0
M  V30 27 H -3.96632 -3.4652 -0.205534 0
M  V30 28 H -1.67834 -4.40665 -0.460463 0
M  V30 29 H 3.00717 -3.67452 -0.658873 0
M  V30 30 H 5.60656 -2.7007 -1.48206 0
M  V30 31 H 5.97021 -2.06488 0.141392 0
M  V30 32 H 4.5956 0.255515 -0.289056 0
M  V30 33 H 2.29762 1.14659 -0.0450336 0
M  V30 34 H 0.0982531 1.75414 -1.95088 0
M  V30 35 H -0.204675 4.11189 -1.51666 0
M  V30 36 H -0.235442 6.04646 0.170185 0
M  V30 37 H -1.0389 5.57743 1.75208 0
M  V30 38 H -0.518965 3.37162 2.65054 0
M  V30 39 H -0.220263 1.01817 2.2582 0
M  V30 40 H -2.31489 0.466933 0.151908 0
M  V30 END ATOM
M  V30 BEGIN BOND
M  V30 1 1 1 2
M  V30 2 2 2 3
M  V30 3 1 3 4
M  V30 4 2 4 5
M  V30 5 1 5 6
M  V30 6 2 6 7
M  V30 7 1 7 8
M  V30 8 2 8 9
M  V30 9 1 9 10
M  V30 10 1 9 11
M  V30 11 2 11 12
M  V30 12 1 12 13
M  V30 13 2 13 14
M  V30 14 1 14 15
M  V30 15 2 15 16
M  V30 16 1 16 17
M  V30 17 2 17 18
M  V30 18 1 18 19
M  V30 19 1 18 20
M  V30 20 2 20 21
M  V30 21 1 14 22
M  V30 22 2 22 23
M  V30 23 1 23 2
M  V30 24 1 22 5
M  V30 25 1 13 7
M  V30 26 1 21 15
M  V30 27 1 1 24
M  V30 28 1 1 25
M  V30 29 1 1 26
M  V30 30 1 3 27
M  V30 31 1 4 28
M  V30 32 1 8 29
M  V30 33 1 10 30
M  V30 34 1 10 31
M  V30 35 1 11 32
M  V30 36 1 12 33
M  V30 37 1 16 34
M  V30 38 1 17 35
M  V30 39 1 19 36
M  V30 40 1 19 37
M  V30 41 1 20 38
M  V30 42 1 21 39
M  V30 43 1 23 40
M  V30 END BOND
M  V30 END CTAB
M  END
