
     RDKit          3D

  0  0  0  0  0  0  0  0  0  0999 V3000
M  V30 BEGIN CTAB
M  V30 COUNTS 22 22 0 0 0
M  V30 BEGIN ATOM
M  V30 1 N -1.61241 -1.93748 -0.746623 0
M  V30 2 C -0.620318 -1.00471 -0.353825 0
M  V30 3 C 0.699399 -1.37238 -0.163385 0
M  V30 4 C 1.64415 -0.480656 0.257042 0
M  V30 5 C 1.2183 0.809168 0.481277 0
M  V30 6 C -0.0941052 1.215 0.299029 0
M  V30 7 C -1.02949 0.31236 -0.121407 0
M  V30 8 C -2.42542 0.674696 -0.391319 0
M  V30 9 F -2.68982 2.01006 -0.14434 0
M  V30 10 F -2.69226 0.558268 -1.78806 0
M  V30 11 F -3.37443 -0.0641752 0.224737 0
M  V30 12 N -0.491931 2.53983 0.581122 0
M  V30 13 C 3.08428 -0.876253 0.429042 0
M  V30 14 F 3.93154 0.180654 0.0933305 0
M  V30 15 F 3.44065 -1.90085 -0.471498 0
M  V30 16 F 3.41912 -1.29232 1.66874 0
M  V30 17 H -2.27652 -2.26041 0.000233218 0
M  V30 18 H -1.72689 -2.29852 -1.70052 0
M  V30 19 H 0.95311 -2.42812 -0.367109 0
M  V30 20 H 1.93034 1.55332 0.808273 0
M  V30 21 H -0.344866 3.30714 -0.0857599 0
M  V30 22 H -0.942425 2.7554 1.49102 0
M  V30 END ATOM
M  V30 BEGIN BOND
M  V30 1 1 1 2
M  V30 2 2 2 3
M  V30 3 1 3 4
M  V30 4 2 4 5
M  V30 5 1 5 6
M  V30 6 2 6 7
M  V30 7 1 7 8
M  V30 8 1 8 9
M  V30 9 1 8 10
M  V30 10 1 8 11
M  V30 11 1 6 12
M  V30 12 1 4 13
M  V30 13 1 13 14
M  V30 14 1 13 15
M  V30 15 1 13 16
M  V30 16 1 7 2
M  V30 17 1 1 17
M  V30 18 1 1 18
M  V30 19 1 3 19
M  V30 20 1 5 20
M  V30 21 1 12 21
M  V30 22 1 12 22
M  V30 END BOND
M  V30 END CTAB
M  END
