
     RDKit          3D

  0  0  0  0  0  0  0  0  0  0999 V3000
M  V30 BEGIN CTAB
M  V30 COUNTS 18 17 0 0 0
M  V30 BEGIN ATOM
M  V30 1 C 2.92506 -0.380073 0.53035 0
M  V30 2 O 2.22476 0.265651 -0.456732 0
M  V30 3 C 1.27712 1.14987 -0.00617352 0
M  V30 4 O 0.282184 0.559001 0.79265 0
M  V30 5 C -0.515768 -0.44818 0.274338 0
M  V30 6 C -1.83749 -0.301184 0.141867 0
M  V30 7 N -2.50899 0.877801 0.516244 0
M  V30 8 N -2.59286 -1.37359 -0.39636 0
M  V30 9 H 3.48632 0.324748 1.19943 0
M  V30 10 H 3.72917 -0.978311 0.0236218 0
M  V30 11 H 2.29168 -1.02766 1.17727 0
M  V30 12 H 1.71705 1.98411 0.605027 0
M  V30 13 H 0.820959 1.62924 -0.911331 0
M  V30 14 H -0.0138836 -1.3586 -0.0171725 0
M  V30 15 H -2.67962 1.11104 1.50453 0
M  V30 16 H -2.83884 1.52493 -0.215361 0
M  V30 17 H -2.32676 -2.36645 -0.234815 0
M  V30 18 H -3.4401 -1.19235 -0.971701 0
M  V30 END ATOM
M  V30 BEGIN BOND
M  V30 1 1 1 2
M  V30 2 1 2 3
M  V30 3 1 3 4
M  V30 4 1 4 5
M  V30 5 2 5 6 CFG=2
M  V30 6 1 6 7
M  V30 7 1 6 8
M  V30 8 1 1 9
M  V30 9 1 1 10
M  V30 10 1 1 11
M  V30 11 1 3 12
M  V30 12 1 3 13
M  V30 13 1 5 14
M  V30 14 1 7 15
M  V30 15 1 7 16
M  V30 16 1 8 17
M  V30 17 1 8 18
M  V30 END BOND
M  V30 END CTAB
M  END
