
     RDKit          3D

  0  0  0  0  0  0  0  0  0  0999 V3000
M  V30 BEGIN CTAB
M  V30 COUNTS 30 30 0 0 0
M  V30 BEGIN ATOM
M  V30 1 O -1.86598 2.14799 2.03278 0
M  V30 2 C -1.68552 0.940138 1.31582 0
M  V30 3 C -0.439381 1.12941 0.518019 0
M  V30 4 C -0.0844037 -0.10338 -0.332779 0
M  V30 5 C -1.18383 -0.388071 -1.27355 0
M  V30 6 C -2.11894 -1.49093 -1.01997 0
M  V30 7 S -1.12317 -2.98073 -0.611294 0
M  V30 8 C -0.297478 -2.33271 0.895645 0
M  V30 9 C 0.503338 -1.15282 0.490149 0
M  V30 10 N 1.00088 0.422608 -1.15469 0
M  V30 11 C 2.1562 0.773142 -0.822264 0
M  V30 12 N 3.00947 1.25386 -1.85602 0
M  V30 13 N 2.74064 0.755728 0.471294 0
M  V30 14 H -2.24267 2.84942 1.44306 0
M  V30 15 H -2.59739 0.789098 0.758975 0
M  V30 16 H -1.58587 0.147746 2.08093 0
M  V30 17 H -0.556816 1.96203 -0.20685 0
M  V30 18 H 0.356102 1.41212 1.20663 0
M  V30 19 H -1.81214 0.55087 -1.36938 0
M  V30 20 H -0.820799 -0.523874 -2.34223 0
M  V30 21 H -2.83427 -1.38414 -0.206504 0
M  V30 22 H -2.71162 -1.67131 -1.94354 0
M  V30 23 H -1.04944 -2.15225 1.67436 0
M  V30 24 H 0.358344 -3.13346 1.24515 0
M  V30 25 H 0.849042 -0.685005 1.4668 0
M  V30 26 H 1.4785 -1.56745 0.081467 0
M  V30 27 H 3.12003 2.27247 -2.0039 0
M  V30 28 H 3.5271 0.598791 -2.46933 0
M  V30 29 H 2.7343 1.64105 1.06161 0
M  V30 30 H 3.17578 -0.0803466 0.869605 0
M  V30 END ATOM
M  V30 BEGIN BOND
M  V30 1 1 1 2
M  V30 2 1 2 3
M  V30 3 1 3 4
M  V30 4 1 4 5
M  V30 5 1 5 6
M  V30 6 1 6 7
M  V30 7 1 7 8
M  V30 8 1 8 9
M  V30 9 1 4 10
M  V30 10 2 10 11 CFG=2
M  V30 11 1 11 12
M  V30 12 1 11 13
M  V30 13 1 9 4
M  V30 14 1 1 14
M  V30 15 1 2 15
M  V30 16 1 2 16
M  V30 17 1 3 17
M  V30 18 1 3 18
M  V30 19 1 5 19
M  V30 20 1 5 20
M  V30 21 1 6 21
M  V30 22 1 6 22
M  V30 23 1 8 23
M  V30 24 1 8 24
M  V30 25 1 9 25
M  V30 26 1 9 26
M  V30 27 1 12 27
M  V30 28 1 12 28
M  V30 29 1 13 29
M  V30 30 1 13 30
M  V30 END BOND
M  V30 END CTAB
M  END
