
     RDKit          3D

  0  0  0  0  0  0  0  0  0  0999 V3000
M  V30 BEGIN CTAB
M  V30 COUNTS 28 27 0 0 0
M  V30 BEGIN ATOM
M  V30 1 C 2.51509 -0.667935 0.75579 0 CFG=2
M  V30 2 N 2.2234 -0.466292 -0.634142 0
M  V30 3 C 1.52213 0.0106638 1.63261 0
M  V30 4 S -0.170525 -0.515107 1.44487 0
M  V30 5 C -0.931857 -0.124581 -0.121442 0 CFG=2
M  V30 6 C -1.09653 1.36229 -0.340752 0
M  V30 7 C -2.26632 -0.84337 -0.184359 0 CFG=2
M  V30 8 N -2.95881 -0.585093 -1.42822 0
M  V30 9 C -3.1621 -0.425671 0.925834 0
M  V30 10 O -4.42854 0.107011 0.728115 0
M  V30 11 O -2.77825 -0.550004 2.11625 0
M  V30 12 C 3.86079 -0.105085 1.03928 0
M  V30 13 O 4.59396 0.499301 0.0319376 0
M  V30 14 O 4.37522 -0.15706 2.19159 0
M  V30 15 H 2.58251 -1.75949 0.933855 0
M  V30 16 H 2.17111 0.512894 -0.924243 0
M  V30 17 H 2.77382 -1.07946 -1.25727 0
M  V30 18 H 1.81653 -0.208369 2.69582 0
M  V30 19 H 1.6607 1.11512 1.51185 0
M  V30 20 H -0.324387 -0.540341 -0.944764 0
M  V30 21 H -2.14685 1.6915 -0.331604 0
M  V30 22 H -0.581489 1.93513 0.459949 0
M  V30 23 H -0.651354 1.70823 -1.29597 0
M  V30 24 H -2.04487 -1.93069 -0.161816 0
M  V30 25 H -2.66457 -1.17319 -2.21204 0
M  V30 26 H -3.97247 -0.431642 -1.32481 0
M  V30 27 H -4.47124 1.13078 0.623912 0
M  V30 28 H 4.55488 1.49046 -0.188102 0
M  V30 END ATOM
M  V30 BEGIN BOND
M  V30 1 1 1 2
M  V30 2 1 1 3
M  V30 3 1 3 4
M  V30 4 1 4 5
M  V30 5 1 5 6
M  V30 6 1 5 7
M  V30 7 1 7 8
M  V30 8 1 7 9
M  V30 9 1 9 10
M  V30 10 2 9 11
M  V30 11 1 1 12
M  V30 12 1 12 13
M  V30 13 2 12 14
M  V30 14 1 1 15 CFG=3
M  V30 15 1 2 16
M  V30 16 1 2 17
M  V30 17 1 3 18
M  V30 18 1 3 19
M  V30 19 1 5 20 CFG=3
M  V30 20 1 6 21
M  V30 21 1 6 22
M  V30 22 1 6 23
M  V30 23 1 7 24 CFG=1
M  V30 24 1 8 25
M  V30 25 1 8 26
M  V30 26 1 10 27
M  V30 27 1 13 28
M  V30 END BOND
M  V30 END CTAB
M  END
