
     RDKit          3D

  0  0  0  0  0  0  0  0  0  0999 V3000
M  V30 BEGIN CTAB
M  V30 COUNTS 29 30 0 0 0
M  V30 BEGIN ATOM
M  V30 1 N -3.93196 1.21316 -1.2087 0
M  V30 2 C -3.32715 -0.0600562 -1.209 0
M  V30 3 C -2.16125 -0.11511 -0.265752 0
M  V30 4 C -2.33438 -0.484094 1.05021 0
M  V30 5 C -1.2702 -0.530153 1.90312 0
M  V30 6 C 0.0112944 -0.204766 1.45841 0
M  V30 7 C 0.222977 0.158031 0.174254 0
M  V30 8 C -0.898876 0.198304 -0.684546 0
M  V30 9 C 1.50704 0.390047 -0.468723 0
M  V30 10 C 1.57138 1.29005 -1.56285 0
M  V30 11 N 2.81714 1.25628 -2.00924 0
M  V30 12 C 3.51785 0.396541 -1.26428 0
M  V30 13 N 2.70297 -0.156314 -0.293259 0
M  V30 14 C 3.20015 -1.18275 0.604429 0
M  V30 15 N 1.03258 -0.175252 2.46022 0
M  V30 16 H -4.95402 1.25117 -1.11738 0
M  V30 17 H -3.49234 1.94859 -1.76929 0
M  V30 18 H -4.06673 -0.808043 -0.831385 0
M  V30 19 H -2.97927 -0.438774 -2.18064 0
M  V30 20 H -3.34632 -0.741082 1.40148 0
M  V30 21 H -1.39778 -0.824899 2.9604 0
M  V30 22 H -0.772647 0.489925 -1.7406 0
M  V30 23 H 0.780105 1.89349 -1.97047 0
M  V30 24 H 4.56699 0.147794 -1.37502 0
M  V30 25 H 3.7095 -0.817865 1.48833 0
M  V30 26 H 4.03179 -1.72796 0.0235115 0
M  V30 27 H 2.4793 -2.00542 0.787301 0
M  V30 28 H 1.61156 0.658213 2.60781 0
M  V30 29 H 1.1703 -1.01907 3.03166 0
M  V30 END ATOM
M  V30 BEGIN BOND
M  V30 1 1 1 2
M  V30 2 1 2 3
M  V30 3 2 3 4
M  V30 4 1 4 5
M  V30 5 2 5 6
M  V30 6 1 6 7
M  V30 7 2 7 8
M  V30 8 1 7 9
M  V30 9 2 9 10
M  V30 10 1 10 11
M  V30 11 2 11 12
M  V30 12 1 12 13
M  V30 13 1 13 14
M  V30 14 1 6 15
M  V30 15 1 8 3
M  V30 16 1 13 9
M  V30 17 1 1 16
M  V30 18 1 1 17
M  V30 19 1 2 18
M  V30 20 1 2 19
M  V30 21 1 4 20
M  V30 22 1 5 21
M  V30 23 1 8 22
M  V30 24 1 10 23
M  V30 25 1 12 24
M  V30 26 1 14 25
M  V30 27 1 14 26
M  V30 28 1 14 27
M  V30 29 1 15 28
M  V30 30 1 15 29
M  V30 END BOND
M  V30 END CTAB
M  END
