
     RDKit          3D

  0  0  0  0  0  0  0  0  0  0999 V3000
M  V30 BEGIN CTAB
M  V30 COUNTS 96 97 0 0 0
M  V30 BEGIN ATOM
M  V30 1 C -4.82885 -3.48188 2.53993 0
M  V30 2 S -4.77491 -2.18651 3.73736 0
M  V30 3 C -5.06539 -0.519799 3.20151 0
M  V30 4 C -3.99767 -0.0153265 2.30721 0
M  V30 5 C -3.82107 -0.65328 0.989484 0 CFG=2
M  V30 6 N -2.60401 -0.0227919 0.34215 0
M  V30 7 C -1.52109 -0.798568 -0.0226897 0
M  V30 8 O -1.68695 -2.09066 0.23402 0
M  V30 9 C -0.241397 -0.475167 -0.620907 0 CFG=2
M  V30 10 C -0.133857 0.199369 -1.93395 0
M  V30 11 C -0.721043 1.54238 -1.98584 0
M  V30 12 C 0.0063542 2.61621 -1.456 0
M  V30 13 C -0.456979 3.90208 -1.53187 0
M  V30 14 C -1.65544 4.15337 -2.13667 0
M  V30 15 C -2.38571 3.11366 -2.66364 0
M  V30 16 C -1.90861 1.84178 -2.57853 0
M  V30 17 N 0.62026 -1.69261 -0.709859 0
M  V30 18 C 1.95018 -1.67165 -0.234763 0
M  V30 19 O 2.37519 -0.59717 0.253632 0
M  V30 20 C 2.77486 -2.89212 -0.330382 0
M  V30 21 N 4.11001 -2.73302 0.169581 0
M  V30 22 C 4.42638 -2.39619 1.49987 0
M  V30 23 O 3.41819 -2.25563 2.28582 0
M  V30 24 C 5.79297 -2.21729 1.9737 0
M  V30 25 N 6.84204 -2.319 1.02636 0
M  V30 26 C 7.05342 -1.45256 -0.0837357 0
M  V30 27 O 6.23397 -0.496217 -0.225621 0
M  V30 28 C 8.13984 -1.596 -1.05919 0 CFG=1
M  V30 29 N 7.93111 -0.668158 -2.1729 0
M  V30 30 C 9.52635 -1.40256 -0.476172 0
M  V30 31 C 9.72427 -0.0780917 0.106654 0
M  V30 32 C 10.1654 0.972843 -0.663676 0
M  V30 33 C 10.3513 2.21506 -0.0986649 0
M  V30 34 C 10.0968 2.41508 1.24229 0
M  V30 35 O 10.2844 3.67544 1.82001 0
M  V30 36 C 9.65533 1.37824 2.0305 0
M  V30 37 C 9.47647 0.138306 1.43787 0
M  V30 38 C -4.87746 -0.504569 -0.00648923 0
M  V30 39 O -4.54433 0.0702258 -1.09712 0
M  V30 40 N -6.23178 -0.903766 0.0359077 0
M  V30 41 C -7.11396 -0.708217 -1.06161 0 CFG=1
M  V30 42 C -7.75355 0.578828 -1.33044 0
M  V30 43 C -8.67638 1.10854 -0.304785 0
M  V30 44 C -8.10643 1.42898 1.01906 0
M  V30 45 C -7.05796 2.51769 0.985514 0
M  V30 46 N -7.67895 3.73102 0.464908 0
M  V30 47 C -6.63163 -1.31381 -2.35342 0
M  V30 48 O -7.457 -1.04045 -3.46024 0
M  V30 49 O -5.62392 -1.99382 -2.50719 0
M  V30 50 H -3.79425 -3.79651 2.24876 0
M  V30 51 H -5.34463 -3.22217 1.63196 0
M  V30 52 H -5.2745 -4.38973 3.03568 0
M  V30 53 H -4.96677 0.132626 4.16308 0
M  V30 54 H -6.10758 -0.344408 2.87204 0
M  V30 55 H -4.20112 1.10505 2.16331 0
M  V30 56 H -3.0454 -0.0588045 2.91193 0
M  V30 57 H -3.56151 -1.71345 1.09848 0
M  V30 58 H -2.66458 0.983733 0.226945 0
M  V30 59 H 0.361092 0.186476 0.0861332 0
M  V30 60 H 0.975 0.312005 -2.13889 0
M  V30 61 H -0.58969 -0.412893 -2.7644 0
M  V30 62 H 0.948672 2.43512 -0.978238 0
M  V30 63 H 0.0915115 4.75179 -1.12657 0
M  V30 64 H -2.03446 5.15873 -2.20484 0
M  V30 65 H -3.34319 3.34906 -3.14258 0
M  V30 66 H -2.47736 1.01265 -2.99151 0
M  V30 67 H 0.246057 -2.56949 -1.12371 0
M  V30 68 H 2.28187 -3.7081 0.255696 0
M  V30 69 H 2.81833 -3.26435 -1.37595 0
M  V30 70 H 4.89507 -2.90282 -0.497999 0
M  V30 71 H 5.99457 -2.89554 2.83952 0
M  V30 72 H 5.82963 -1.18163 2.432 0
M  V30 73 H 7.56453 -3.10002 1.10994 0
M  V30 74 H 8.10806 -2.61651 -1.4858 0
M  V30 75 H 6.89931 -0.640819 -2.39514 0
M  V30 76 H 8.3884 -1.0251 -3.05909 0
M  V30 77 H 10.2504 -1.68108 -1.24979 0
M  V30 78 H 9.61717 -2.17147 0.345457 0
M  V30 79 H 10.3811 0.869323 -1.7247 0
M  V30 80 H 10.7048 3.0591 -0.71581 0
M  V30 81 H 9.4567 4.28476 1.79602 0
M  V30 82 H 9.46671 1.57623 3.08302 0
M  V30 83 H 9.12488 -0.648398 2.12233 0
M  V30 84 H -6.58593 -1.36415 0.894494 0
M  V30 85 H -8.02514 -1.43857 -0.858512 0
M  V30 86 H -6.98409 1.34453 -1.64138 0
M  V30 87 H -8.36884 0.475046 -2.28926 0
M  V30 88 H -9.52617 0.372519 -0.161805 0
M  V30 89 H -9.20893 2.03363 -0.672845 0
M  V30 90 H -8.95288 1.87129 1.63561 0
M  V30 91 H -7.7823 0.561862 1.59452 0
M  V30 92 H -6.17419 2.26335 0.403053 0
M  V30 93 H -6.76624 2.73397 2.02548 0
M  V30 94 H -7.1277 4.55491 0.792979 0
M  V30 95 H -7.8006 3.71728 -0.56223 0
M  V30 96 H -7.09474 -0.421214 -4.19832 0
M  V30 END ATOM
M  V30 BEGIN BOND
M  V30 1 1 1 2
M  V30 2 1 2 3
M  V30 3 1 3 4
M  V30 4 1 4 5
M  V30 5 1 5 6
M  V30 6 1 6 7
M  V30 7 2 7 8
M  V30 8 1 7 9
M  V30 9 1 9 10
M  V30 10 1 10 11
M  V30 11 2 11 12
M  V30 12 1 12 13
M  V30 13 2 13 14
M  V30 14 1 14 15
M  V30 15 2 15 16
M  V30 16 1 9 17
M  V30 17 1 17 18
M  V30 18 2 18 19
M  V30 19 1 18 20
M  V30 20 1 20 21
M  V30 21 1 21 22
M  V30 22 2 22 23
M  V30 23 1 22 24
M  V30 24 1 24 25
M  V30 25 1 25 26
M  V30 26 2 26 27
M  V30 27 1 26 28
M  V30 28 1 28 29
M  V30 29 1 28 30
M  V30 30 1 30 31
M  V30 31 2 31 32
M  V30 32 1 32 33
M  V30 33 2 33 34
M  V30 34 1 34 35
M  V30 35 1 34 36
M  V30 36 2 36 37
M  V30 37 1 5 38
M  V30 38 2 38 39
M  V30 39 1 38 40
M  V30 40 1 40 41
M  V30 41 1 41 42
M  V30 42 1 42 43
M  V30 43 1 43 44
M  V30 44 1 44 45
M  V30 45 1 45 46
M  V30 46 1 41 47
M  V30 47 1 47 48
M  V30 48 2 47 49
M  V30 49 1 16 11
M  V30 50 1 37 31
M  V30 51 1 1 50
M  V30 52 1 1 51
M  V30 53 1 1 52
M  V30 54 1 3 53
M  V30 55 1 3 54
M  V30 56 1 4 55
M  V30 57 1 4 56
M  V30 58 1 5 57 CFG=1
M  V30 59 1 6 58
M  V30 60 1 9 59 CFG=1
M  V30 61 1 10 60
M  V30 62 1 10 61
M  V30 63 1 12 62
M  V30 64 1 13 63
M  V30 65 1 14 64
M  V30 66 1 15 65
M  V30 67 1 16 66
M  V30 68 1 17 67
M  V30 69 1 20 68
M  V30 70 1 20 69
M  V30 71 1 21 70
M  V30 72 1 24 71
M  V30 73 1 24 72
M  V30 74 1 25 73
M  V30 75 1 28 74 CFG=3
M  V30 76 1 29 75
M  V30 77 1 29 76
M  V30 78 1 30 77
M  V30 79 1 30 78
M  V30 80 1 32 79
M  V30 81 1 33 80
M  V30 82 1 35 81
M  V30 83 1 36 82
M  V30 84 1 37 83
M  V30 85 1 40 84
M  V30 86 1 41 85 CFG=1
M  V30 87 1 42 86
M  V30 88 1 42 87
M  V30 89 1 43 88
M  V30 90 1 43 89
M  V30 91 1 44 90
M  V30 92 1 44 91
M  V30 93 1 45 92
M  V30 94 1 45 93
M  V30 95 1 46 94
M  V30 96 1 46 95
M  V30 97 1 48 96
M  V30 END BOND
M  V30 END CTAB
M  END
