
     RDKit          3D

  0  0  0  0  0  0  0  0  0  0999 V3000
M  V30 BEGIN CTAB
M  V30 COUNTS 16 16 0 0 0
M  V30 BEGIN ATOM
M  V30 1 N -1.88919 0.204474 1.72834 0
M  V30 2 P -0.947174 0.00622357 0.244822 0
M  V30 3 N -2.04456 -0.229428 -1.1124 0
M  V30 4 N -0.108785 1.31073 0.0647643 0
M  V30 5 P 1.52051 1.36829 -0.463412 0
M  V30 6 Cl 1.63987 2.7702 -2.00523 0
M  V30 7 Cl 2.79697 2.04058 1.05097 0
M  V30 8 N 2.05501 -0.0302874 -0.920202 0
M  V30 9 P 1.45284 -1.532 -0.320132 0
M  V30 10 Cl 2.74607 -2.34718 1.10381 0
M  V30 11 Cl 1.39774 -2.86942 -1.9128 0
M  V30 12 N 0.0463782 -1.41404 0.337652 0
M  V30 13 H -2.07743 1.22956 1.88567 0
M  V30 14 H -1.35882 -0.157101 2.55495 0
M  V30 15 H -2.53466 0.642147 -1.37872 0
M  V30 16 H -2.69475 -0.992757 -0.858076 0
M  V30 END ATOM
M  V30 BEGIN BOND
M  V30 1 1 1 2
M  V30 2 1 2 3
M  V30 3 2 2 4
M  V30 4 1 4 5
M  V30 5 1 5 6
M  V30 6 1 5 7
M  V30 7 2 5 8
M  V30 8 1 8 9
M  V30 9 1 9 10
M  V30 10 1 9 11
M  V30 11 2 9 12
M  V30 12 1 12 2
M  V30 13 1 1 13
M  V30 14 1 1 14
M  V30 15 1 3 15
M  V30 16 1 3 16
M  V30 END BOND
M  V30 END CTAB
M  END
