
     RDKit          3D

  0  0  0  0  0  0  0  0  0  0999 V3000
M  V30 BEGIN CTAB
M  V30 COUNTS 49 52 0 0 0
M  V30 BEGIN ATOM
M  V30 1 N -1.86456 -0.327687 1.77001 0
M  V30 2 C -2.10888 -1.66762 1.38681 0 CFG=2
M  V30 3 C -0.747524 -2.37642 1.29606 0
M  V30 4 O 0.0823642 -1.8455 0.463724 0
M  V30 5 C 0.915712 -1.31223 -0.372899 0
M  V30 6 C 0.688899 -1.20011 -1.74951 0
M  V30 7 N 1.54755 -0.652707 -2.59923 0
M  V30 8 C 2.71655 -0.166901 -2.13885 0
M  V30 9 C 3.05674 -0.21804 -0.804998 0
M  V30 10 C 2.16099 -0.783267 0.0462401 0
M  V30 11 C 4.33828 0.325608 -0.377178 0
M  V30 12 C 4.9244 1.4095 -1.02442 0
M  V30 13 C 6.13832 1.92259 -0.619753 0
M  V30 14 C 6.83066 1.38047 0.45221 0
M  V30 15 N 8.08277 1.90783 0.869427 0
M  V30 16 C 6.25164 0.307225 1.09384 0
M  V30 17 C 5.02996 -0.210104 0.687532 0
M  V30 18 C -2.78844 -1.74993 0.0619953 0
M  V30 19 C -4.10702 -1.06824 0.04194 0
M  V30 20 C -5.32815 -1.70651 0.275884 0
M  V30 21 N -6.31667 -0.805796 0.232218 0
M  V30 22 C -5.7902 0.398767 -0.0229343 0
M  V30 23 C -6.34991 1.63932 -0.179163 0
M  V30 24 C -5.59471 2.76147 -0.457194 0
M  V30 25 C -4.22939 2.621 -0.580964 0
M  V30 26 C -3.65332 1.37211 -0.42473 0
M  V30 27 C -4.4085 0.257931 -0.146495 0
M  V30 28 H -1.78324 -0.140455 2.76791 0
M  V30 29 H -1.07474 0.063953 1.23269 0
M  V30 30 H -2.72118 -2.2036 2.18467 0
M  V30 31 H -1.0462 -3.46894 1.06087 0
M  V30 32 H -0.370018 -2.48258 2.38987 0
M  V30 33 H -0.274464 -1.60757 -2.09305 0
M  V30 34 H 3.44192 0.285499 -2.79927 0
M  V30 35 H 2.39918 -0.836386 1.09119 0
M  V30 36 H 4.38388 1.83472 -1.86376 0
M  V30 37 H 6.58349 2.77052 -1.13688 0
M  V30 38 H 8.61525 1.38635 1.59424 0
M  V30 39 H 8.49893 2.78224 0.495781 0
M  V30 40 H 6.79829 -0.107117 1.92764 0
M  V30 41 H 4.6027 -1.04852 1.20735 0
M  V30 42 H -2.88544 -2.79333 -0.309162 0
M  V30 43 H -2.14419 -1.17787 -0.66002 0
M  V30 44 H -5.4724 -2.75307 0.462351 0
M  V30 45 H -7.3321 -1.00965 0.37398 0
M  V30 46 H -7.41575 1.75363 -0.085131 0
M  V30 47 H -6.05469 3.7356 -0.576241 0
M  V30 48 H -3.63058 3.50201 -0.801402 0
M  V30 49 H -2.59621 1.30181 -0.546341 0
M  V30 END ATOM
M  V30 BEGIN BOND
M  V30 1 1 1 2
M  V30 2 1 2 3
M  V30 3 1 3 4
M  V30 4 1 4 5
M  V30 5 2 5 6
M  V30 6 1 6 7
M  V30 7 2 7 8
M  V30 8 1 8 9
M  V30 9 2 9 10
M  V30 10 1 9 11
M  V30 11 2 11 12
M  V30 12 1 12 13
M  V30 13 2 13 14
M  V30 14 1 14 15
M  V30 15 1 14 16
M  V30 16 2 16 17
M  V30 17 1 2 18
M  V30 18 1 18 19
M  V30 19 2 19 20
M  V30 20 1 20 21
M  V30 21 1 21 22
M  V30 22 2 22 23
M  V30 23 1 23 24
M  V30 24 2 24 25
M  V30 25 1 25 26
M  V30 26 2 26 27
M  V30 27 1 10 5
M  V30 28 1 17 11
M  V30 29 1 27 19
M  V30 30 1 27 22
M  V30 31 1 1 28
M  V30 32 1 1 29
M  V30 33 1 2 30 CFG=1
M  V30 34 1 3 31
M  V30 35 1 3 32
M  V30 36 1 6 33
M  V30 37 1 8 34
M  V30 38 1 10 35
M  V30 39 1 12 36
M  V30 40 1 13 37
M  V30 41 1 15 38
M  V30 42 1 15 39
M  V30 43 1 16 40
M  V30 44 1 17 41
M  V30 45 1 18 42
M  V30 46 1 18 43
M  V30 47 1 20 44
M  V30 48 1 21 45
M  V30 49 1 23 46
M  V30 50 1 24 47
M  V30 51 1 25 48
M  V30 52 1 26 49
M  V30 END BOND
M  V30 END CTAB
M  END
