
     RDKit          3D

  0  0  0  0  0  0  0  0  0  0999 V3000
M  V30 BEGIN CTAB
M  V30 COUNTS 20 20 0 0 0
M  V30 BEGIN ATOM
M  V30 1 N -1.73498 2.12783 0.358345 0
M  V30 2 C -1.64438 0.722518 0.128058 0
M  V30 3 C -0.260161 0.230812 0.0144346 0
M  V30 4 N 0.827901 1.01987 0.115874 0
M  V30 5 C 2.08062 0.535245 0.00658255 0
M  V30 6 N 3.22345 1.39869 0.118767 0
M  V30 7 N 2.25829 -0.781451 -0.211445 0
M  V30 8 C 1.23273 -1.64769 -0.326938 0
M  V30 9 C -0.0484612 -1.11206 -0.208676 0
M  V30 10 C -1.21993 -2.0121 -0.326101 0
M  V30 11 H -2.64273 2.47307 -0.0196885 0
M  V30 12 H -1.76645 2.28881 1.38984 0
M  V30 13 H -2.22479 0.494264 -0.810856 0
M  V30 14 H -2.15281 0.184777 0.954446 0
M  V30 15 H 3.17465 2.42081 -0.10439 0
M  V30 16 H 4.14804 1.03824 0.427908 0
M  V30 17 H 1.3634 -2.70371 -0.50151 0
M  V30 18 H -1.82081 -1.69138 -1.1979 0
M  V30 19 H -0.913074 -3.077 -0.372736 0
M  V30 20 H -1.88049 -1.90955 0.565991 0
M  V30 END ATOM
M  V30 BEGIN BOND
M  V30 1 1 1 2
M  V30 2 1 2 3
M  V30 3 2 3 4
M  V30 4 1 4 5
M  V30 5 1 5 6
M  V30 6 2 5 7
M  V30 7 1 7 8
M  V30 8 2 8 9
M  V30 9 1 9 10
M  V30 10 1 9 3
M  V30 11 1 1 11
M  V30 12 1 1 12
M  V30 13 1 2 13
M  V30 14 1 2 14
M  V30 15 1 6 15
M  V30 16 1 6 16
M  V30 17 1 8 17
M  V30 18 1 10 18
M  V30 19 1 10 19
M  V30 20 1 10 20
M  V30 END BOND
M  V30 END CTAB
M  END
