
     RDKit          3D

  0  0  0  0  0  0  0  0  0  0999 V3000
M  V30 BEGIN CTAB
M  V30 COUNTS 48 49 0 0 0
M  V30 BEGIN ATOM
M  V30 1 C -5.30108 2.0482 -1.36414 0
M  V30 2 O -5.17357 0.682197 -1.08516 0
M  V30 3 C -4.11351 0.213908 -0.318125 0
M  V30 4 C -3.19303 1.11585 0.163422 0
M  V30 5 C -2.14352 0.652937 0.922743 0
M  V30 6 C -1.16199 1.61734 1.43506 0
M  V30 7 N 0.119963 1.31792 0.774911 0
M  V30 8 C 0.289487 1.72863 -0.556162 0
M  V30 9 O -0.649246 2.3446 -1.15274 0
M  V30 10 C 1.54229 1.45728 -1.2823 0
M  V30 11 S 1.64743 -0.248099 -1.74504 0
M  V30 12 C 1.91065 -1.42437 -0.421097 0
M  V30 13 C 3.31634 -1.19615 0.102459 0
M  V30 14 N 3.53873 -0.339001 1.0931 0
M  V30 15 C 4.75379 -0.105948 1.58371 0
M  V30 16 N 4.97781 0.829607 2.6607 0
M  V30 17 N 5.79792 -0.776039 1.04251 0
M  V30 18 C 5.57851 -1.65058 0.0327072 0
M  V30 19 N 4.34647 -1.86278 -0.437699 0
M  V30 20 N 6.68151 -2.35903 -0.541175 0
M  V30 21 C 1.62515 2.3979 -2.47032 0
M  V30 22 C -2.00666 -0.695676 1.20329 0
M  V30 23 C -2.95394 -1.55935 0.698495 0
M  V30 24 C -4.02654 -1.16399 -0.066415 0
M  V30 25 O -4.98987 -2.01615 -0.582644 0
M  V30 26 C -4.94614 -3.39717 -0.358611 0
M  V30 27 H -4.48698 2.44223 -2.01526 0
M  V30 28 H -6.26144 2.17894 -1.93977 0
M  V30 29 H -5.34519 2.62053 -0.413055 0
M  V30 30 H -3.29771 2.18637 -0.0517602 0
M  V30 31 H -1.46787 2.66189 1.21717 0
M  V30 32 H -1.10912 1.50931 2.52885 0
M  V30 33 H 0.80204 0.831358 1.3575 0
M  V30 34 H 2.44468 1.69878 -0.66762 0
M  V30 35 H 1.21028 -1.26685 0.416361 0
M  V30 36 H 1.82378 -2.47538 -0.787837 0
M  V30 37 H 4.24793 1.52432 2.84366 0
M  V30 38 H 5.83476 0.806477 3.22768 0
M  V30 39 H 6.77262 -3.38074 -0.53077 0
M  V30 40 H 7.44314 -1.79711 -0.999776 0
M  V30 41 H 0.594288 2.50319 -2.87238 0
M  V30 42 H 1.91897 3.41393 -2.12608 0
M  V30 43 H 2.23514 2.01526 -3.29631 0
M  V30 44 H -1.18475 -1.07403 1.80068 0
M  V30 45 H -2.87392 -2.62705 0.901113 0
M  V30 46 H -4.59365 -3.6631 0.657429 0
M  V30 47 H -5.94471 -3.87879 -0.463805 0
M  V30 48 H -4.22924 -3.84156 -1.08909 0
M  V30 END ATOM
M  V30 BEGIN BOND
M  V30 1 1 1 2
M  V30 2 1 2 3
M  V30 3 2 3 4
M  V30 4 1 4 5
M  V30 5 1 5 6
M  V30 6 1 6 7
M  V30 7 1 7 8
M  V30 8 2 8 9
M  V30 9 1 8 10
M  V30 10 1 10 11
M  V30 11 1 11 12
M  V30 12 1 12 13
M  V30 13 2 13 14
M  V30 14 1 14 15
M  V30 15 1 15 16
M  V30 16 2 15 17
M  V30 17 1 17 18
M  V30 18 2 18 19
M  V30 19 1 18 20
M  V30 20 1 10 21
M  V30 21 2 5 22
M  V30 22 1 22 23
M  V30 23 2 23 24
M  V30 24 1 24 25
M  V30 25 1 25 26
M  V30 26 1 24 3
M  V30 27 1 19 13
M  V30 28 1 1 27
M  V30 29 1 1 28
M  V30 30 1 1 29
M  V30 31 1 4 30
M  V30 32 1 6 31
M  V30 33 1 6 32
M  V30 34 1 7 33
M  V30 35 1 10 34
M  V30 36 1 12 35
M  V30 37 1 12 36
M  V30 38 1 16 37
M  V30 39 1 16 38
M  V30 40 1 20 39
M  V30 41 1 20 40
M  V30 42 1 21 41
M  V30 43 1 21 42
M  V30 44 1 21 43
M  V30 45 1 22 44
M  V30 46 1 23 45
M  V30 47 1 26 46
M  V30 48 1 26 47
M  V30 49 1 26 48
M  V30 END BOND
M  V30 END CTAB
M  END
