
     RDKit          3D

  0  0  0  0  0  0  0  0  0  0999 V3000
M  V30 BEGIN CTAB
M  V30 COUNTS 26 26 0 0 0
M  V30 BEGIN ATOM
M  V30 1 C -3.01801 2.07462 0.0647906 0
M  V30 2 O -2.84486 0.66328 -0.0368458 0
M  V30 3 C -1.59532 0.0631986 0.0551606 0
M  V30 4 C -0.444711 0.809313 0.25139 0
M  V30 5 C 0.757969 0.161448 0.333712 0
M  V30 6 C 2.02562 0.891384 0.540764 0
M  V30 7 C 2.80162 0.986514 -0.697169 0
M  V30 8 O 2.33625 0.466175 -1.74373 0
M  V30 9 O 4.02756 1.6265 -0.761547 0
M  V30 10 C 0.791904 -1.21839 0.218988 0
M  V30 11 C -0.347472 -1.97177 0.02355 0
M  V30 12 C -1.57555 -1.32128 -0.0614453 0
M  V30 13 N -2.78089 -2.04598 -0.261671 0
M  V30 14 N 2.04218 -1.87087 0.305855 0
M  V30 15 H -2.74967 2.51946 -0.914572 0
M  V30 16 H -2.39281 2.49978 0.890792 0
M  V30 17 H -4.07664 2.30516 0.354464 0
M  V30 18 H -0.518894 1.89373 0.33659 0
M  V30 19 H 1.81867 1.90694 0.970583 0
M  V30 20 H 2.64572 0.371711 1.31611 0
M  V30 21 H 4.87011 1.15747 -1.12463 0
M  V30 22 H -0.322842 -3.06126 -0.0670602 0
M  V30 23 H -3.36976 -2.25248 0.569573 0
M  V30 24 H -3.11852 -2.3863 -1.18381 0
M  V30 25 H 2.35283 -2.44666 -0.504258 0
M  V30 26 H 2.68552 -1.8217 1.12441 0
M  V30 END ATOM
M  V30 BEGIN BOND
M  V30 1 1 1 2
M  V30 2 1 2 3
M  V30 3 2 3 4
M  V30 4 1 4 5
M  V30 5 1 5 6
M  V30 6 1 6 7
M  V30 7 2 7 8
M  V30 8 1 7 9
M  V30 9 2 5 10
M  V30 10 1 10 11
M  V30 11 2 11 12
M  V30 12 1 12 13
M  V30 13 1 10 14
M  V30 14 1 12 3
M  V30 15 1 1 15
M  V30 16 1 1 16
M  V30 17 1 1 17
M  V30 18 1 4 18
M  V30 19 1 6 19
M  V30 20 1 6 20
M  V30 21 1 9 21
M  V30 22 1 11 22
M  V30 23 1 13 23
M  V30 24 1 13 24
M  V30 25 1 14 25
M  V30 26 1 14 26
M  V30 END BOND
M  V30 END CTAB
M  END
