
     RDKit          3D

  0  0  0  0  0  0  0  0  0  0999 V3000
M  V30 BEGIN CTAB
M  V30 COUNTS 33 35 0 0 0
M  V30 BEGIN ATOM
M  V30 1 N -5.23755 1.87493 -0.957809 0
M  V30 2 C -4.09267 1.18392 -0.477476 0
M  V30 3 N -4.15679 0.224778 0.463482 0
M  V30 4 C -3.05533 -0.417624 0.903898 0
M  V30 5 C -3.10013 -1.39976 1.86396 0
M  V30 6 C -1.94806 -2.0297 2.28389 0
M  V30 7 C -0.736001 -1.67634 1.74012 0
M  V30 8 C -0.686391 -0.693822 0.778892 0
M  V30 9 O 0.505877 -0.290589 0.190028 0
M  V30 10 C 1.68007 -0.915337 0.60125 0
M  V30 11 C 2.89222 -0.437437 -0.0633603 0
M  V30 12 C 3.57364 0.623925 0.519369 0
M  V30 13 C 4.72309 1.14705 -0.0264373 0
M  V30 14 C 5.20509 0.591863 -1.18973 0
M  V30 15 N 4.52886 -0.433668 -1.73455 0
M  V30 16 C 3.41016 -0.95689 -1.22034 0
M  V30 17 C -1.83797 -0.0514898 0.346854 0
M  V30 18 C -1.75616 0.929855 -0.618579 0
M  V30 19 N -0.496902 1.28598 -1.17286 0
M  V30 20 N -2.89283 1.522 -1.00441 0
M  V30 21 H -6.17376 1.40596 -1.07206 0
M  V30 22 H -5.19542 2.87999 -1.2177 0
M  V30 23 H -4.06996 -1.65657 2.27391 0
M  V30 24 H -1.99873 -2.81891 3.05779 0
M  V30 25 H 0.192676 -2.13831 2.03418 0
M  V30 26 H 1.5984 -2.02719 0.460868 0
M  V30 27 H 1.78182 -0.757585 1.69977 0
M  V30 28 H 3.19257 1.07064 1.44843 0
M  V30 29 H 5.22621 1.97548 0.457838 0
M  V30 30 H 6.11534 0.994205 -1.63633 0
M  V30 31 H 2.87518 -1.78438 -1.67088 0
M  V30 32 H 0.0981172 2.04526 -0.824343 0
M  V30 33 H -0.164645 0.729765 -1.99064 0
M  V30 END ATOM
M  V30 BEGIN BOND
M  V30 1 1 1 2
M  V30 2 2 2 3
M  V30 3 1 3 4
M  V30 4 2 4 5
M  V30 5 1 5 6
M  V30 6 2 6 7
M  V30 7 1 7 8
M  V30 8 1 8 9
M  V30 9 1 9 10
M  V30 10 1 10 11
M  V30 11 2 11 12
M  V30 12 1 12 13
M  V30 13 2 13 14
M  V30 14 1 14 15
M  V30 15 2 15 16
M  V30 16 2 8 17
M  V30 17 1 17 18
M  V30 18 1 18 19
M  V30 19 2 18 20
M  V30 20 1 20 2
M  V30 21 1 17 4
M  V30 22 1 16 11
M  V30 23 1 1 21
M  V30 24 1 1 22
M  V30 25 1 5 23
M  V30 26 1 6 24
M  V30 27 1 7 25
M  V30 28 1 10 26
M  V30 29 1 10 27
M  V30 30 1 12 28
M  V30 31 1 13 29
M  V30 32 1 14 30
M  V30 33 1 16 31
M  V30 34 1 19 32
M  V30 35 1 19 33
M  V30 END BOND
M  V30 END CTAB
M  END
