
     RDKit          3D

  0  0  0  0  0  0  0  0  0  0999 V3000
M  V30 BEGIN CTAB
M  V30 COUNTS 28 29 0 0 0
M  V30 BEGIN ATOM
M  V30 1 N -2.83694 2.26652 0.535328 0
M  V30 2 C -3.4721 1.01528 0.427607 0
M  V30 3 C -2.77291 -0.17908 0.308653 0
M  V30 4 N -1.35808 -0.332513 0.276997 0
M  V30 5 N -0.578238 0.399611 -0.380377 0
M  V30 6 C 0.845369 0.222417 -0.394363 0
M  V30 7 C 1.5595 -0.128113 0.714374 0
M  V30 8 C 2.92281 -0.279998 0.625006 0
M  V30 9 C 3.62224 -0.093535 -0.548328 0
M  V30 10 C 2.87859 0.26117 -1.65891 0
M  V30 11 C 1.51138 0.417167 -1.58496 0
M  V30 12 C 5.07388 -0.260202 -0.622477 0
M  V30 13 O 5.75359 -0.6178 0.534711 0
M  V30 14 O 5.72894 -0.100194 -1.65879 0
M  V30 15 C -3.69719 -1.20027 0.225745 0
M  V30 16 N -3.39214 -2.56933 0.0955127 0
M  V30 17 N -4.91732 -0.612874 0.295074 0
M  V30 18 N -4.7803 0.698082 0.41447 0
M  V30 19 H -2.11442 2.58591 -0.176074 0
M  V30 20 H -3.03064 2.94227 1.3012 0
M  V30 21 H 1.00147 -0.273956 1.63804 0
M  V30 22 H 3.4503 -0.555398 1.51429 0
M  V30 23 H 3.39921 0.41931 -2.61479 0
M  V30 24 H 0.958429 0.694473 -2.46859 0
M  V30 25 H 6.35942 0.0267277 1.0247 0
M  V30 26 H -4.07308 -3.21204 -0.331403 0
M  V30 27 H -2.48558 -2.9242 0.429011 0
M  V30 28 H -5.55618 1.39056 0.488015 0
M  V30 END ATOM
M  V30 BEGIN BOND
M  V30 1 1 1 2
M  V30 2 2 2 3
M  V30 3 1 3 4
M  V30 4 2 4 5
M  V30 5 1 5 6
M  V30 6 2 6 7
M  V30 7 1 7 8
M  V30 8 2 8 9
M  V30 9 1 9 10
M  V30 10 2 10 11
M  V30 11 1 9 12
M  V30 12 1 12 13
M  V30 13 2 12 14
M  V30 14 1 3 15
M  V30 15 1 15 16
M  V30 16 2 15 17
M  V30 17 1 17 18
M  V30 18 1 18 2
M  V30 19 1 11 6
M  V30 20 1 1 19
M  V30 21 1 1 20
M  V30 22 1 7 21
M  V30 23 1 8 22
M  V30 24 1 10 23
M  V30 25 1 11 24
M  V30 26 1 13 25
M  V30 27 1 16 26
M  V30 28 1 16 27
M  V30 29 1 18 28
M  V30 END BOND
M  V30 END CTAB
M  END
