
     RDKit          3D

  0  0  0  0  0  0  0  0  0  0999 V3000
M  V30 BEGIN CTAB
M  V30 COUNTS 26 26 0 0 0
M  V30 BEGIN ATOM
M  V30 1 O -4.48903 0.461332 -1.63776 0
M  V30 2 C -3.15997 0.668665 -1.22173 0
M  V30 3 O -2.64306 1.79685 -1.30363 0
M  V30 4 C -2.48178 -0.552235 -0.701236 0
M  V30 5 C -1.1054 -0.332358 -0.270224 0
M  V30 6 C -0.00548614 -0.721899 -1.00188 0
M  V30 7 C 1.30915 -0.500021 -0.563817 0
M  V30 8 N 2.3878 -0.933039 -1.37985 0
M  V30 9 C 1.52085 0.128987 0.639365 0
M  V30 10 C 0.390801 0.538318 1.40828 0
M  V30 11 C -0.866643 0.296945 0.933249 0
M  V30 12 N -1.99186 0.70657 1.69916 0
M  V30 13 O 2.74231 0.384035 1.13999 0
M  V30 14 C 4.04887 0.248302 0.897192 0
M  V30 15 F 4.73869 -0.512881 1.86684 0
M  V30 16 F 4.76325 1.45471 0.86437 0
M  V30 17 H -5.0857 0.0471707 -0.90731 0
M  V30 18 H -3.15237 -0.980637 0.0798206 0
M  V30 19 H -2.50476 -1.31176 -1.53361 0
M  V30 20 H -0.132186 -1.2166 -1.94752 0
M  V30 21 H 2.87978 -1.83144 -1.16137 0
M  V30 22 H 2.74541 -0.411311 -2.21089 0
M  V30 23 H 0.5723 1.03065 2.35131 0
M  V30 24 H -1.85892 1.51687 2.34554 0
M  V30 25 H -2.92322 0.269605 1.66666 0
M  V30 26 H 4.3012 -0.244818 -0.0509281 0
M  V30 END ATOM
M  V30 BEGIN BOND
M  V30 1 1 1 2
M  V30 2 2 2 3
M  V30 3 1 2 4
M  V30 4 1 4 5
M  V30 5 2 5 6
M  V30 6 1 6 7
M  V30 7 1 7 8
M  V30 8 2 7 9
M  V30 9 1 9 10
M  V30 10 2 10 11
M  V30 11 1 11 12
M  V30 12 1 9 13
M  V30 13 1 13 14
M  V30 14 1 14 15
M  V30 15 1 14 16
M  V30 16 1 11 5
M  V30 17 1 1 17
M  V30 18 1 4 18
M  V30 19 1 4 19
M  V30 20 1 6 20
M  V30 21 1 8 21
M  V30 22 1 8 22
M  V30 23 1 10 23
M  V30 24 1 12 24
M  V30 25 1 12 25
M  V30 26 1 14 26
M  V30 END BOND
M  V30 END CTAB
M  END
