
     RDKit          3D

  0  0  0  0  0  0  0  0  0  0999 V3000
M  V30 BEGIN CTAB
M  V30 COUNTS 34 34 0 0 0
M  V30 BEGIN ATOM
M  V30 1 N 2.77786 1.72641 1.1591 0
M  V30 2 N 3.79058 0.850861 0.799839 0
M  V30 3 C 3.50281 -0.297417 0.322455 0
M  V30 4 N 2.1373 -0.664054 0.165469 0
M  V30 5 C 1.5647 -0.646685 -1.14342 0
M  V30 6 C 0.113526 -0.955757 -1.25676 0
M  V30 7 C -0.850462 -0.0201962 -0.617607 0
M  V30 8 O -0.760461 1.27594 -1.13081 0
M  V30 9 C -2.23563 -0.523854 -1.08368 0
M  V30 10 C -3.33692 0.377697 -0.613402 0
M  V30 11 C -3.376 0.165528 0.911266 0
M  V30 12 C -2.07824 0.762053 1.39289 0
M  V30 13 C -0.885917 -0.017669 0.875625 0
M  V30 14 N 4.58083 -1.14725 -0.0267019 0
M  V30 15 H 2.8534 2.3387 2.01683 0
M  V30 16 H 1.89218 1.82617 0.603883 0
M  V30 17 H 1.65873 -0.943819 1.04141 0
M  V30 18 H 2.1567 -1.39803 -1.76013 0
M  V30 19 H 1.79962 0.322216 -1.6767 0
M  V30 20 H -0.0960125 -1.0698 -2.3679 0
M  V30 21 H -0.0565699 -2.01607 -0.885956 0
M  V30 22 H -0.492288 1.85075 -0.372674 0
M  V30 23 H -2.36643 -1.49937 -0.528394 0
M  V30 24 H -2.24488 -0.734181 -2.15219 0
M  V30 25 H -3.07337 1.4606 -0.740043 0
M  V30 26 H -4.2626 0.0870178 -1.10192 0
M  V30 27 H -3.31573 -0.920412 1.08858 0
M  V30 28 H -4.253 0.64541 1.33594 0
M  V30 29 H -2.0942 0.799365 2.48478 0
M  V30 30 H -2.04413 1.81248 0.989351 0
M  V30 31 H -0.974929 -1.04833 1.26335 0
M  V30 32 H -0.00875134 0.543095 1.30695 0
M  V30 33 H 5.08562 -1.67411 0.718586 0
M  V30 34 H 4.89267 -1.26729 -1.01801 0
M  V30 END ATOM
M  V30 BEGIN BOND
M  V30 1 1 1 2
M  V30 2 2 2 3 CFG=2
M  V30 3 1 3 4
M  V30 4 1 4 5
M  V30 5 1 5 6
M  V30 6 1 6 7
M  V30 7 1 7 8
M  V30 8 1 7 9
M  V30 9 1 9 10
M  V30 10 1 10 11
M  V30 11 1 11 12
M  V30 12 1 12 13
M  V30 13 1 3 14
M  V30 14 1 13 7
M  V30 15 1 1 15
M  V30 16 1 1 16
M  V30 17 1 4 17
M  V30 18 1 5 18
M  V30 19 1 5 19
M  V30 20 1 6 20
M  V30 21 1 6 21
M  V30 22 1 8 22
M  V30 23 1 9 23
M  V30 24 1 9 24
M  V30 25 1 10 25
M  V30 26 1 10 26
M  V30 27 1 11 27
M  V30 28 1 11 28
M  V30 29 1 12 29
M  V30 30 1 12 30
M  V30 31 1 13 31
M  V30 32 1 13 32
M  V30 33 1 14 33
M  V30 34 1 14 34
M  V30 END BOND
M  V30 END CTAB
M  END
