
     RDKit          3D

  0  0  0  0  0  0  0  0  0  0999 V3000
M  V30 BEGIN CTAB
M  V30 COUNTS 40 40 0 0 0
M  V30 BEGIN ATOM
M  V30 1 C 6.01464 -0.471649 0.369737 0
M  V30 2 C 5.15984 -0.948556 -0.76674 0
M  V30 3 O 3.92753 -1.48626 -0.375892 0
M  V30 4 C 2.94249 -0.839084 0.31771 0
M  V30 5 O 3.13908 0.357908 0.649205 0
M  V30 6 C 1.64838 -1.52455 0.684855 0
M  V30 7 S 0.446815 -1.24464 -0.626948 0
M  V30 8 C -0.0366855 0.484587 -0.744357 0
M  V30 9 C -1.16456 0.965383 -0.128992 0
M  V30 10 C -1.48548 2.29975 -0.2699 0
M  V30 11 C -0.734065 3.20012 -1.00283 0
M  V30 12 C -1.13221 4.64044 -1.11971 0
M  V30 13 C 0.393723 2.69364 -1.61223 0
M  V30 14 Cl 1.37636 3.79521 -2.552 0
M  V30 15 C 0.734317 1.36844 -1.48629 0
M  V30 16 S -2.17953 -0.119553 0.798384 0
M  V30 17 O -3.34843 0.65155 1.36676 0
M  V30 18 O -1.46807 -0.71306 1.97703 0
M  V30 19 N -2.76708 -1.40937 -0.185646 0
M  V30 20 C -3.5214 -2.29219 0.31497 0
M  V30 21 N -4.04348 -3.39514 -0.462123 0
M  V30 22 N -3.92579 -2.2875 1.67693 0
M  V30 23 N -5.27338 -2.20667 2.06193 0
M  V30 24 H 6.90035 -1.1603 0.436072 0
M  V30 25 H 6.46431 0.534694 0.123052 0
M  V30 26 H 5.4969 -0.456444 1.33401 0
M  V30 27 H 4.98192 -0.111083 -1.46203 0
M  V30 28 H 5.67077 -1.75957 -1.36129 0
M  V30 29 H 1.32767 -1.08946 1.63412 0
M  V30 30 H 1.82298 -2.6015 0.847537 0
M  V30 31 H -2.37957 2.67096 0.221328 0
M  V30 32 H -1.39377 5.05082 -0.133648 0
M  V30 33 H -1.95265 4.80239 -1.83329 0
M  V30 34 H -0.22429 5.18789 -1.45714 0
M  V30 35 H 1.63199 0.955999 -1.96936 0
M  V30 36 H -4.2775 -4.31559 -0.0309082 0
M  V30 37 H -4.20353 -3.30369 -1.48461 0
M  V30 38 H -3.23306 -2.34636 2.42957 0
M  V30 39 H -5.8968 -2.25745 1.23684 0
M  V30 40 H -5.43877 -1.32011 2.58586 0
M  V30 END ATOM
M  V30 BEGIN BOND
M  V30 1 1 1 2
M  V30 2 1 2 3
M  V30 3 1 3 4
M  V30 4 2 4 5
M  V30 5 1 4 6
M  V30 6 1 6 7
M  V30 7 1 7 8
M  V30 8 2 8 9
M  V30 9 1 9 10
M  V30 10 2 10 11
M  V30 11 1 11 12
M  V30 12 1 11 13
M  V30 13 1 13 14
M  V30 14 2 13 15
M  V30 15 1 9 16
M  V30 16 2 16 17
M  V30 17 2 16 18
M  V30 18 1 16 19
M  V30 19 2 19 20
M  V30 20 1 20 21
M  V30 21 1 20 22
M  V30 22 1 22 23
M  V30 23 1 15 8
M  V30 24 1 1 24
M  V30 25 1 1 25
M  V30 26 1 1 26
M  V30 27 1 2 27
M  V30 28 1 2 28
M  V30 29 1 6 29
M  V30 30 1 6 30
M  V30 31 1 10 31
M  V30 32 1 12 32
M  V30 33 1 12 33
M  V30 34 1 12 34
M  V30 35 1 15 35
M  V30 36 1 21 36
M  V30 37 1 21 37
M  V30 38 1 22 38
M  V30 39 1 23 39
M  V30 40 1 23 40
M  V30 END BOND
M  V30 END CTAB
M  END
