
     RDKit          3D

  0  0  0  0  0  0  0  0  0  0999 V3000
M  V30 BEGIN CTAB
M  V30 COUNTS 54 58 0 0 0
M  V30 BEGIN ATOM
M  V30 1 C -7.52138 2.44508 -0.164698 0
M  V30 2 C -6.78025 1.25016 0.443014 0
M  V30 3 C -7.07937 -0.00270609 -0.344765 0
M  V30 4 C -6.40988 -1.23648 0.176194 0
M  V30 5 C -4.94082 -1.05388 0.148266 0
M  V30 6 C -4.20658 -1.38429 -0.983871 0
M  V30 7 C -2.83616 -1.24026 -1.05029 0
M  V30 8 C -2.13934 -0.754269 0.0264222 0
M  V30 9 C -2.86882 -0.422082 1.16175 0
M  V30 10 C -4.23659 -0.56945 1.2183 0
M  V30 11 N -0.72829 -0.597007 -0.0177906 0
M  V30 12 C -0.0343317 0.386952 0.574225 0
M  V30 13 O -0.489436 1.33235 1.26284 0
M  V30 14 C 1.32049 0.231497 0.324317 0
M  V30 15 C 2.45544 0.931711 0.677151 0
M  V30 16 N 2.31652 2.09497 1.47951 0
M  V30 17 C 3.70067 0.502889 0.253875 0
M  V30 18 C 3.84964 -0.630047 -0.529007 0
M  V30 19 C 5.0993 -1.05506 -0.95019 0
M  V30 20 O 5.2255 -2.08517 -1.66103 0
M  V30 21 C 6.24085 -0.365196 -0.605076 0
M  V30 22 C 6.11076 0.76781 0.175837 0
M  V30 23 C 7.25994 1.45098 0.515603 0
M  V30 24 C 8.51913 1.03452 0.0991929 0
M  V30 25 C 8.61374 -0.0965873 -0.676642 0
M  V30 26 C 7.4961 -0.787258 -1.02485 0
M  V30 27 C 4.85607 1.18729 0.59381 0
M  V30 28 O 4.76938 2.21828 1.30102 0
M  V30 29 C 2.69939 -1.30881 -0.86569 0
M  V30 30 N 2.80291 -2.47034 -1.66306 0
M  V30 31 C 1.44035 -0.899029 -0.453827 0
M  V30 32 C 0.157947 -1.37207 -0.637129 0
M  V30 33 O -0.0897874 -2.40436 -1.30951 0
M  V30 34 H -7.61763 3.27183 0.550188 0
M  V30 35 H -8.50347 2.13524 -0.574501 0
M  V30 36 H -6.88001 2.82066 -1.00388 0
M  V30 37 H -7.10344 1.13832 1.47797 0
M  V30 38 H -5.689 1.47207 0.388939 0
M  V30 39 H -8.20048 -0.129941 -0.405014 0
M  V30 40 H -6.7885 0.219123 -1.40379 0
M  V30 41 H -6.62983 -2.05136 -0.560144 0
M  V30 42 H -6.7628 -1.51759 1.18548 0
M  V30 43 H -4.78367 -1.7675 -1.82373 0
M  V30 44 H -2.3249 -1.5186 -1.96847 0
M  V30 45 H -2.38549 -0.0332348 2.04782 0
M  V30 46 H -4.77349 -0.294514 2.13583 0
M  V30 47 H 2.56728 2.16152 2.48132 0
M  V30 48 H 1.93121 2.95003 1.02288 0
M  V30 49 H 7.12298 2.33865 1.13115 0
M  V30 50 H 9.39559 1.59746 0.386695 0
M  V30 51 H 9.59112 -0.424061 -1.0027 0
M  V30 52 H 7.58394 -1.67914 -1.63801 0
M  V30 53 H 2.6584 -2.39313 -2.68438 0
M  V30 54 H 3.0191 -3.39599 -1.25487 0
M  V30 END ATOM
M  V30 BEGIN BOND
M  V30 1 1 1 2
M  V30 2 1 2 3
M  V30 3 1 3 4
M  V30 4 1 4 5
M  V30 5 2 5 6
M  V30 6 1 6 7
M  V30 7 2 7 8
M  V30 8 1 8 9
M  V30 9 2 9 10
M  V30 10 1 8 11
M  V30 11 1 11 12
M  V30 12 2 12 13
M  V30 13 1 12 14
M  V30 14 2 14 15
M  V30 15 1 15 16
M  V30 16 1 15 17
M  V30 17 2 17 18
M  V30 18 1 18 19
M  V30 19 2 19 20
M  V30 20 1 19 21
M  V30 21 2 21 22
M  V30 22 1 22 23
M  V30 23 2 23 24
M  V30 24 1 24 25
M  V30 25 2 25 26
M  V30 26 1 22 27
M  V30 27 2 27 28
M  V30 28 1 18 29
M  V30 29 1 29 30
M  V30 30 2 29 31
M  V30 31 1 31 32
M  V30 32 2 32 33
M  V30 33 1 10 5
M  V30 34 1 32 11
M  V30 35 1 31 14
M  V30 36 1 27 17
M  V30 37 1 26 21
M  V30 38 1 1 34
M  V30 39 1 1 35
M  V30 40 1 1 36
M  V30 41 1 2 37
M  V30 42 1 2 38
M  V30 43 1 3 39
M  V30 44 1 3 40
M  V30 45 1 4 41
M  V30 46 1 4 42
M  V30 47 1 6 43
M  V30 48 1 7 44
M  V30 49 1 9 45
M  V30 50 1 10 46
M  V30 51 1 16 47
M  V30 52 1 16 48
M  V30 53 1 23 49
M  V30 54 1 24 50
M  V30 55 1 25 51
M  V30 56 1 26 52
M  V30 57 1 30 53
M  V30 58 1 30 54
M  V30 END BOND
M  V30 END CTAB
M  END
