
     RDKit          3D

  0  0  0  0  0  0  0  0  0  0999 V3000
M  V30 BEGIN CTAB
M  V30 COUNTS 21 22 0 0 0
M  V30 BEGIN ATOM
M  V30 1 N -1.52739 1.67057 -0.0591071 0
M  V30 2 N -1.50324 0.288679 0.203352 0
M  V30 3 C -2.60604 -0.458686 0.476462 0
M  V30 4 N -3.93942 0.0872726 0.528386 0
M  V30 5 N -2.22709 -1.71908 0.673899 0
M  V30 6 N -0.945777 -1.76471 0.532052 0
M  V30 7 C -0.466597 -0.542779 0.241134 0
M  V30 8 C 0.966513 -0.250919 0.0166716 0
M  V30 9 C 1.89428 -1.298 0.108671 0
M  V30 10 C 3.24458 -1.11109 -0.0859068 0
M  V30 11 C 3.69598 0.156333 -0.382298 0
M  V30 12 N 2.82282 1.17386 -0.475041 0
M  V30 13 C 1.47989 0.966225 -0.277348 0
M  V30 14 H -1.79604 1.95681 -1.02288 0
M  V30 15 H -1.29415 2.38971 0.652213 0
M  V30 16 H -4.14765 0.996952 0.073589 0
M  V30 17 H -4.66574 -0.464737 1.0336 0
M  V30 18 H 1.48727 -2.28133 0.345303 0
M  V30 19 H 3.92369 -1.944 -0.00579856 0
M  V30 20 H 4.76374 0.326852 -0.540519 0
M  V30 21 H 0.840347 1.82208 -0.366509 0
M  V30 END ATOM
M  V30 BEGIN BOND
M  V30 1 1 1 2
M  V30 2 1 2 3
M  V30 3 1 3 4
M  V30 4 2 3 5
M  V30 5 1 5 6
M  V30 6 2 6 7
M  V30 7 1 7 8
M  V30 8 2 8 9
M  V30 9 1 9 10
M  V30 10 2 10 11
M  V30 11 1 11 12
M  V30 12 2 12 13
M  V30 13 1 7 2
M  V30 14 1 13 8
M  V30 15 1 1 14
M  V30 16 1 1 15
M  V30 17 1 4 16
M  V30 18 1 4 17
M  V30 19 1 9 18
M  V30 20 1 10 19
M  V30 21 1 11 20
M  V30 22 1 13 21
M  V30 END BOND
M  V30 END CTAB
M  END
