
     RDKit          3D

  0  0  0  0  0  0  0  0  0  0999 V3000
M  V30 BEGIN CTAB
M  V30 COUNTS 36 37 0 0 0
M  V30 BEGIN ATOM
M  V30 1 C -6.05874 1.5577 0.931086 0
M  V30 2 O -4.7612 2.12638 0.81183 0
M  V30 3 C -3.75432 1.37624 0.199527 0
M  V30 4 C -2.48056 1.87323 0.0557923 0
M  V30 5 C -1.48914 1.10736 -0.559 0
M  V30 6 C -1.71525 -0.134809 -1.03697 0
M  V30 7 S -0.539727 -1.20623 -1.83758 0
M  V30 8 S 0.407341 -2.38713 -0.383015 0
M  V30 9 C 1.88909 -1.63061 0.18378 0
M  V30 10 C 2.49606 -0.566653 -0.417276 0
M  V30 11 N 1.96157 0.0225826 -1.58877 0
M  V30 12 C 3.69576 -0.028544 0.07127 0
M  V30 13 C 4.29558 -0.569863 1.18142 0
M  V30 14 O 5.48645 -0.0231575 1.65301 0
M  V30 15 C 6.07487 1.07057 1.00603 0
M  V30 16 C 3.68794 -1.64342 1.78982 0
M  V30 17 C 2.51147 -2.16225 1.30236 0
M  V30 18 C -3.01174 -0.643493 -0.891899 0
M  V30 19 N -3.33423 -1.94316 -1.36765 0
M  V30 20 C -4.01085 0.110223 -0.280225 0
M  V30 21 H -6.71544 2.16068 1.5674 0
M  V30 22 H -6.52477 1.37305 -0.0640652 0
M  V30 23 H -5.97754 0.556538 1.42935 0
M  V30 24 H -2.27392 2.85687 0.426462 0
M  V30 25 H -0.523541 1.53503 -0.645518 0
M  V30 26 H 1.57968 0.979261 -1.53612 0
M  V30 27 H 1.96667 -0.506762 -2.4784 0
M  V30 28 H 4.15667 0.806521 -0.412414 0
M  V30 29 H 6.23029 0.84165 -0.086643 0
M  V30 30 H 5.38509 1.96245 1.0148 0
M  V30 31 H 7.03288 1.32384 1.5037 0
M  V30 32 H 4.18342 -2.06241 2.67581 0
M  V30 33 H 2.08008 -3.0184 1.83462 0
M  V30 34 H -2.83329 -2.80596 -1.03207 0
M  V30 35 H -4.10311 -2.03283 -2.08066 0
M  V30 36 H -5.01356 -0.274507 -0.164284 0
M  V30 END ATOM
M  V30 BEGIN BOND
M  V30 1 1 1 2
M  V30 2 1 2 3
M  V30 3 2 3 4
M  V30 4 1 4 5
M  V30 5 2 5 6
M  V30 6 1 6 7
M  V30 7 1 7 8
M  V30 8 1 8 9
M  V30 9 2 9 10
M  V30 10 1 10 11
M  V30 11 1 10 12
M  V30 12 2 12 13
M  V30 13 1 13 14
M  V30 14 1 14 15
M  V30 15 1 13 16
M  V30 16 2 16 17
M  V30 17 1 6 18
M  V30 18 1 18 19
M  V30 19 2 18 20
M  V30 20 1 20 3
M  V30 21 1 17 9
M  V30 22 1 1 21
M  V30 23 1 1 22
M  V30 24 1 1 23
M  V30 25 1 4 24
M  V30 26 1 5 25
M  V30 27 1 11 26
M  V30 28 1 11 27
M  V30 29 1 12 28
M  V30 30 1 15 29
M  V30 31 1 15 30
M  V30 32 1 15 31
M  V30 33 1 16 32
M  V30 34 1 17 33
M  V30 35 1 19 34
M  V30 36 1 19 35
M  V30 37 1 20 36
M  V30 END BOND
M  V30 END CTAB
M  END
