
     RDKit          3D

  0  0  0  0  0  0  0  0  0  0999 V3000
M  V30 BEGIN CTAB
M  V30 COUNTS 37 38 0 0 0
M  V30 BEGIN ATOM
M  V30 1 C 3.29441 0.978173 1.56384 0
M  V30 2 C 1.83712 0.872229 1.06418 0
M  V30 3 C 1.68708 -0.363188 0.276753 0
M  V30 4 C 2.77352 -1.25029 0.21879 0
M  V30 5 C 2.72336 -2.40518 -0.501535 0
M  V30 6 C 1.5889 -2.71881 -1.19151 0
M  V30 7 C 0.52369 -1.85668 -1.13916 0
M  V30 8 C 0.537845 -0.659764 -0.408069 0
M  V30 9 N -0.649833 0.136398 -0.429426 0
M  V30 10 C -0.656019 1.20255 -1.37795 0
M  V30 11 N 0.487864 1.43284 -2.22895 0
M  V30 12 N -1.69306 1.95654 -1.49467 0
M  V30 13 C -2.8584 1.75621 -0.697838 0
M  V30 14 N -3.98566 2.60481 -0.841753 0
M  V30 15 N -2.84264 0.807267 0.1276 0
M  V30 16 C -1.78848 -0.139006 0.394064 0
M  V30 17 C -2.40014 -1.49977 0.00766006 0
M  V30 18 C -1.54832 -0.0891085 1.8762 0
M  V30 19 H 3.54053 0.222771 2.30208 0
M  V30 20 H 4.00267 1.00265 0.7178 0
M  V30 21 H 3.39723 1.99758 2.04086 0
M  V30 22 H 1.23416 0.903783 1.98302 0
M  V30 23 H 1.70861 1.80851 0.465786 0
M  V30 24 H 3.68347 -1.02685 0.752342 0
M  V30 25 H 3.57834 -3.07194 -0.525335 0
M  V30 26 H 1.57397 -3.65078 -1.75799 0
M  V30 27 H -0.349318 -2.15779 -1.71169 0
M  V30 28 H 1.22395 0.716458 -2.2555 0
M  V30 29 H 0.538328 2.29099 -2.77833 0
M  V30 30 H -4.81529 2.27907 -1.37257 0
M  V30 31 H -4.01443 3.55698 -0.428027 0
M  V30 32 H -3.34206 -1.61116 0.577104 0
M  V30 33 H -2.64159 -1.45832 -1.05753 0
M  V30 34 H -1.7472 -2.34085 0.209326 0
M  V30 35 H -1.40887 0.992842 2.14814 0
M  V30 36 H -0.719731 -0.727918 2.22047 0
M  V30 37 H -2.474 -0.491241 2.35687 0
M  V30 END ATOM
M  V30 BEGIN BOND
M  V30 1 1 1 2
M  V30 2 1 2 3
M  V30 3 2 3 4
M  V30 4 1 4 5
M  V30 5 2 5 6
M  V30 6 1 6 7
M  V30 7 2 7 8
M  V30 8 1 8 9
M  V30 9 1 9 10
M  V30 10 1 10 11
M  V30 11 2 10 12
M  V30 12 1 12 13
M  V30 13 1 13 14
M  V30 14 2 13 15
M  V30 15 1 15 16
M  V30 16 1 16 17
M  V30 17 1 16 18
M  V30 18 1 8 3
M  V30 19 1 16 9
M  V30 20 1 1 19
M  V30 21 1 1 20
M  V30 22 1 1 21
M  V30 23 1 2 22
M  V30 24 1 2 23
M  V30 25 1 4 24
M  V30 26 1 5 25
M  V30 27 1 6 26
M  V30 28 1 7 27
M  V30 29 1 11 28
M  V30 30 1 11 29
M  V30 31 1 14 30
M  V30 32 1 14 31
M  V30 33 1 17 32
M  V30 34 1 17 33
M  V30 35 1 17 34
M  V30 36 1 18 35
M  V30 37 1 18 36
M  V30 38 1 18 37
M  V30 END BOND
M  V30 END CTAB
M  END
