
     RDKit          3D

  0  0  0  0  0  0  0  0  0  0999 V3000
M  V30 BEGIN CTAB
M  V30 COUNTS 34 35 0 0 0
M  V30 BEGIN ATOM
M  V30 1 N 5.30199 -0.0170287 -0.448432 0
M  V30 2 C 4.44958 -0.407347 0.630309 0
M  V30 3 C 3.00914 -0.164522 0.335507 0
M  V30 4 C 2.05971 -0.489809 1.28053 0
M  V30 5 C 0.707085 -0.297758 1.08815 0
M  V30 6 C 0.251597 0.245121 -0.0993649 0
M  V30 7 C 1.20722 0.569363 -1.04304 0
M  V30 8 C 2.56215 0.377406 -0.851244 0
M  V30 9 C -1.15038 0.469179 -0.362359 0
M  V30 10 C -1.87727 1.34582 0.611597 0
M  V30 11 C -3.34706 1.04012 0.695609 0
M  V30 12 N -3.93023 0.557891 -0.50102 0
M  V30 13 C -3.2072 -0.439227 -1.21008 0
M  V30 14 C -1.90795 -0.854796 -0.544517 0
M  V30 15 N -2.11039 -1.56555 0.670064 0
M  V30 16 H 5.34826 0.999482 -0.583263 0
M  V30 17 H 6.21584 -0.492512 -0.418975 0
M  V30 18 H 4.75615 0.201497 1.52867 0
M  V30 19 H 4.57237 -1.45346 0.897516 0
M  V30 20 H 2.3979 -0.916604 2.21781 0
M  V30 21 H -0.0335885 -0.547014 1.81787 0
M  V30 22 H 0.918046 1.00617 -2.01314 0
M  V30 23 H 3.3057 0.634944 -1.59781 0
M  V30 24 H -1.25252 0.961205 -1.36411 0
M  V30 25 H -1.47361 1.26169 1.65326 0
M  V30 26 H -1.75255 2.4154 0.338951 0
M  V30 27 H -3.87853 2.00285 0.961829 0
M  V30 28 H -3.55446 0.379851 1.5895 0
M  V30 29 H -4.87689 0.175636 -0.277935 0
M  V30 30 H -3.8308 -1.33033 -1.48263 0
M  V30 31 H -2.90463 0.0023327 -2.20265 0
M  V30 32 H -1.33591 -1.43016 -1.29878 0
M  V30 33 H -3.12435 -1.8289 0.730519 0
M  V30 34 H -1.51443 -2.41095 0.72891 0
M  V30 END ATOM
M  V30 BEGIN BOND
M  V30 1 1 1 2
M  V30 2 1 2 3
M  V30 3 2 3 4
M  V30 4 1 4 5
M  V30 5 2 5 6
M  V30 6 1 6 7
M  V30 7 2 7 8
M  V30 8 1 6 9
M  V30 9 1 9 10
M  V30 10 1 10 11
M  V30 11 1 11 12
M  V30 12 1 12 13
M  V30 13 1 13 14
M  V30 14 1 14 15
M  V30 15 1 8 3
M  V30 16 1 14 9
M  V30 17 1 1 16
M  V30 18 1 1 17
M  V30 19 1 2 18
M  V30 20 1 2 19
M  V30 21 1 4 20
M  V30 22 1 5 21
M  V30 23 1 7 22
M  V30 24 1 8 23
M  V30 25 1 9 24
M  V30 26 1 10 25
M  V30 27 1 10 26
M  V30 28 1 11 27
M  V30 29 1 11 28
M  V30 30 1 12 29
M  V30 31 1 13 30
M  V30 32 1 13 31
M  V30 33 1 14 32
M  V30 34 1 15 33
M  V30 35 1 15 34
M  V30 END BOND
M  V30 END CTAB
M  END
