
     RDKit          3D

  0  0  0  0  0  0  0  0  0  0999 V3000
M  V30 BEGIN CTAB
M  V30 COUNTS 16 16 0 0 0
M  V30 BEGIN ATOM
M  V30 1 H 2.67676 -0.336819 -0.598569 0 MASS=2
M  V30 2 N 2.08251 -0.510308 0.239625 0
M  V30 3 H 2.57366 -0.729173 1.13159 0 MASS=2
M  V30 4 C 0.667122 -0.441109 0.125689 0
M  V30 5 C -0.109115 -1.56654 0.262401 0
M  V30 6 C -1.47534 -1.4703 0.147388 0
M  V30 7 C -2.03475 -0.234773 -0.10451 0
M  V30 8 C -1.26829 0.903847 -0.244193 0
M  V30 9 C 0.10424 0.809027 -0.128963 0
M  V30 10 N 0.924897 1.95123 -0.265365 0
M  V30 11 H 0.495793 2.87514 -0.475955 0 MASS=2
M  V30 12 H 1.95148 1.88201 -0.158369 0 MASS=2
M  V30 13 H 0.387301 -2.50087 0.458179 0
M  V30 14 H -2.12994 -2.34704 0.2503 0
M  V30 15 H -3.1135 -0.162351 -0.194729 0
M  V30 16 H -1.73284 1.87802 -0.444518 0
M  V30 END ATOM
M  V30 BEGIN BOND
M  V30 1 1 1 2
M  V30 2 1 2 3
M  V30 3 1 2 4
M  V30 4 2 4 5
M  V30 5 1 5 6
M  V30 6 2 6 7
M  V30 7 1 7 8
M  V30 8 2 8 9
M  V30 9 1 9 10
M  V30 10 1 10 11
M  V30 11 1 10 12
M  V30 12 1 9 4
M  V30 13 1 5 13
M  V30 14 1 6 14
M  V30 15 1 7 15
M  V30 16 1 8 16
M  V30 END BOND
M  V30 END CTAB
M  END
