
     RDKit          3D

  0  0  0  0  0  0  0  0  0  0999 V3000
M  V30 BEGIN CTAB
M  V30 COUNTS 25 25 0 0 0
M  V30 BEGIN ATOM
M  V30 1 C -0.127821 2.76652 -0.830423 0
M  V30 2 C 0.575668 1.49482 -0.46131 0
M  V30 3 S 2.2331 1.1498 -0.706878 0
M  V30 4 C 2.21451 -0.495554 -0.174058 0
M  V30 5 C 0.916961 -0.694018 0.172216 0
M  V30 6 C 0.0529682 0.320343 0.0359068 0
M  V30 7 C -1.33545 0.289396 0.608604 0
M  V30 8 C -2.10625 -0.958346 0.175503 0
M  V30 9 N -2.30224 -0.90832 -1.268 0
M  V30 10 N -1.12042 0.0830862 2.0209 0
M  V30 11 C 3.40404 -1.38983 -0.116975 0
M  V30 12 H -0.0462016 2.88878 -1.96484 0
M  V30 13 H -1.16708 2.75975 -0.537048 0
M  V30 14 H 0.43766 3.60772 -0.428346 0
M  V30 15 H 0.656505 -1.70782 0.56114 0
M  V30 16 H -1.9017 1.18409 0.494264 0
M  V30 17 H -3.02197 -1.006 0.757749 0
M  V30 18 H -1.46666 -1.8464 0.408468 0
M  V30 19 H -3.23746 -1.27553 -1.48614 0
M  V30 20 H -1.55842 -1.41077 -1.72875 0
M  V30 21 H -0.767807 -0.81281 2.31343 0
M  V30 22 H -1.41907 0.771103 2.66535 0
M  V30 23 H 3.72818 -1.55496 -1.18484 0
M  V30 24 H 4.25126 -0.908101 0.371351 0
M  V30 25 H 3.1077 -2.34696 0.302732 0
M  V30 END ATOM
M  V30 BEGIN BOND
M  V30 1 1 1 2
M  V30 2 1 2 3
M  V30 3 1 3 4
M  V30 4 2 4 5
M  V30 5 1 5 6
M  V30 6 1 6 7
M  V30 7 1 7 8
M  V30 8 1 8 9
M  V30 9 1 7 10
M  V30 10 1 4 11
M  V30 11 2 6 2
M  V30 12 1 1 12
M  V30 13 1 1 13
M  V30 14 1 1 14
M  V30 15 1 5 15
M  V30 16 1 7 16
M  V30 17 1 8 17
M  V30 18 1 8 18
M  V30 19 1 9 19
M  V30 20 1 9 20
M  V30 21 1 10 21
M  V30 22 1 10 22
M  V30 23 1 11 23
M  V30 24 1 11 24
M  V30 25 1 11 25
M  V30 END BOND
M  V30 END CTAB
M  END
