
     RDKit          3D

  0  0  0  0  0  0  0  0  0  0999 V3000
M  V30 BEGIN CTAB
M  V30 COUNTS 58 59 0 0 0
M  V30 BEGIN ATOM
M  V30 1 C -5.1058 2.75923 0.939697 0
M  V30 2 C -4.02149 1.70016 1.10429 0
M  V30 3 C -4.07397 1.18424 2.51254 0
M  V30 4 O -4.06356 0.744548 0.134069 0
M  V30 5 S -2.90752 0.865747 -1.07437 0
M  V30 6 O -1.87203 1.79592 -0.63532 0
M  V30 7 O -3.55018 1.46564 -2.30434 0
M  V30 8 C -2.32325 -0.739947 -1.52694 0
M  V30 9 C -2.80964 -1.26559 -2.74661 0
M  V30 10 C -2.5753 -2.5581 -3.13551 0
M  V30 11 N -3.05611 -3.04571 -4.37826 0
M  V30 12 C -1.8267 -3.34212 -2.2604 0
M  V30 13 C -1.35642 -2.84728 -1.096 0
M  V30 14 C -1.60149 -1.50993 -0.70814 0
M  V30 15 C -0.833652 -1.036 0.512442 0
M  V30 16 C 0.643406 -1.09932 0.170893 0
M  V30 17 C 1.61204 -0.749388 1.19524 0
M  V30 18 C 2.27986 0.443204 1.32215 0
M  V30 19 C 3.15942 0.665177 2.3908 0
M  V30 20 C 3.41802 -0.25659 3.36154 0
M  V30 21 N 4.33246 0.0322762 4.40161 0
M  V30 22 C 2.75606 -1.45902 3.24882 0
M  V30 23 C 1.89579 -1.69626 2.21746 0
M  V30 24 S 2.11966 1.70118 0.135782 0
M  V30 25 O 3.33478 2.65371 0.349946 0
M  V30 26 O 0.966446 2.60833 0.326251 0
M  V30 27 O 2.36331 1.14116 -1.41489 0
M  V30 28 C 3.68447 1.2344 -1.83846 0
M  V30 29 C 4.3136 -0.130777 -2.0772 0
M  V30 30 C 3.63849 2.02337 -3.1507 0
M  V30 31 H -4.77993 3.5895 0.282876 0
M  V30 32 H -5.4134 3.20237 1.90874 0
M  V30 33 H -6.03858 2.30084 0.513869 0
M  V30 34 H -3.06387 2.28903 0.97991 0
M  V30 35 H -3.75574 0.103316 2.59028 0
M  V30 36 H -3.40396 1.75901 3.20627 0
M  V30 37 H -5.08713 1.29826 2.93469 0
M  V30 38 H -3.40109 -0.622908 -3.4036 0
M  V30 39 H -2.54951 -2.86751 -5.28289 0
M  V30 40 H -3.93954 -3.59858 -4.39556 0
M  V30 41 H -1.6404 -4.3657 -2.56365 0
M  V30 42 H -0.765836 -3.46041 -0.40871 0
M  V30 43 H -1.08876 -1.8131 1.27495 0
M  V30 44 H -1.14443 -0.0290962 0.730676 0
M  V30 45 H 0.861796 -0.700211 -0.858363 0
M  V30 46 H 0.800614 -2.22727 -0.0136163 0
M  V30 47 H 3.68262 1.62999 2.47762 0
M  V30 48 H 5.26303 -0.428189 4.42178 0
M  V30 49 H 4.08184 0.701067 5.14167 0
M  V30 50 H 2.9407 -2.21937 4.01161 0
M  V30 51 H 1.35962 -2.65238 2.11248 0
M  V30 52 H 4.3515 1.73135 -1.10397 0
M  V30 53 H 5.30605 -0.229679 -1.5542 0
M  V30 54 H 3.66368 -0.95722 -1.7764 0
M  V30 55 H 4.53514 -0.244471 -3.1752 0
M  V30 56 H 4.61548 2.16959 -3.60364 0
M  V30 57 H 2.97339 1.40226 -3.81589 0
M  V30 58 H 3.09599 2.95723 -2.90832 0
M  V30 END ATOM
M  V30 BEGIN BOND
M  V30 1 1 1 2
M  V30 2 1 2 3
M  V30 3 1 2 4
M  V30 4 1 4 5
M  V30 5 2 5 6
M  V30 6 2 5 7
M  V30 7 1 5 8
M  V30 8 2 8 9
M  V30 9 1 9 10
M  V30 10 1 10 11
M  V30 11 2 10 12
M  V30 12 1 12 13
M  V30 13 2 13 14
M  V30 14 1 14 15
M  V30 15 1 15 16
M  V30 16 1 16 17
M  V30 17 2 17 18
M  V30 18 1 18 19
M  V30 19 2 19 20
M  V30 20 1 20 21
M  V30 21 1 20 22
M  V30 22 2 22 23
M  V30 23 1 18 24
M  V30 24 2 24 25
M  V30 25 2 24 26
M  V30 26 1 24 27
M  V30 27 1 27 28
M  V30 28 1 28 29
M  V30 29 1 28 30
M  V30 30 1 14 8
M  V30 31 1 23 17
M  V30 32 1 1 31
M  V30 33 1 1 32
M  V30 34 1 1 33
M  V30 35 1 2 34
M  V30 36 1 3 35
M  V30 37 1 3 36
M  V30 38 1 3 37
M  V30 39 1 9 38
M  V30 40 1 11 39
M  V30 41 1 11 40
M  V30 42 1 12 41
M  V30 43 1 13 42
M  V30 44 1 15 43
M  V30 45 1 15 44
M  V30 46 1 16 45
M  V30 47 1 16 46
M  V30 48 1 19 47
M  V30 49 1 21 48
M  V30 50 1 21 49
M  V30 51 1 22 50
M  V30 52 1 23 51
M  V30 53 1 28 52
M  V30 54 1 29 53
M  V30 55 1 29 54
M  V30 56 1 29 55
M  V30 57 1 30 56
M  V30 58 1 30 57
M  V30 59 1 30 58
M  V30 END BOND
M  V30 END CTAB
M  END
