
     RDKit          3D

  0  0  0  0  0  0  0  0  0  0999 V3000
M  V30 BEGIN CTAB
M  V30 COUNTS 33 35 0 0 0
M  V30 BEGIN ATOM
M  V30 1 N -4.04045 -0.512792 1.42258 0
M  V30 2 C -3.03445 0.547242 1.36078 0
M  V30 3 C -2.44165 0.494366 -0.0235871 0 CFG=1
M  V30 4 O -1.47488 1.42188 -0.264452 0
M  V30 5 C -0.441813 0.852053 -0.962707 0 CFG=2
M  V30 6 C -0.899792 -0.485288 -1.44368 0 CFG=2
M  V30 7 O -1.63027 -0.317585 -2.61515 0
M  V30 8 C -1.86487 -0.871236 -0.339616 0 CFG=2
M  V30 9 O -2.81619 -1.77267 -0.753771 0
M  V30 10 N 0.69946 0.754947 -0.0458806 0
M  V30 11 C 0.764148 1.11112 1.24805 0
M  V30 12 N 1.99566 0.856016 1.72105 0
M  V30 13 C 2.74754 0.332093 0.745556 0
M  V30 14 C 1.92325 0.273419 -0.358862 0
M  V30 15 N 2.44177 -0.220646 -1.4875 0
M  V30 16 C 3.70254 -0.646939 -1.57039 0
M  V30 17 N 4.48167 -0.579586 -0.485645 0
M  V30 18 C 4.06043 -0.100312 0.698784 0
M  V30 19 N 4.91838 -0.0442496 1.83111 0
M  V30 20 H -4.69679 -0.388023 2.19772 0
M  V30 21 H -4.5597 -0.600212 0.5353 0
M  V30 22 H -3.46528 1.5457 1.51459 0
M  V30 23 H -2.2498 0.380409 2.12726 0
M  V30 24 H -3.28658 0.64905 -0.737906 0
M  V30 25 H -0.174682 1.51756 -1.8285 0
M  V30 26 H -0.0930332 -1.22509 -1.5718 0
M  V30 27 H -1.32507 0.517801 -3.08914 0
M  V30 28 H -1.24926 -1.25864 0.50271 0
M  V30 29 H -2.47656 -2.68675 -0.507264 0
M  V30 30 H -0.0776286 1.54026 1.79947 0
M  V30 31 H 4.0593 -1.03963 -2.52813 0
M  V30 32 H 4.55496 -0.109022 2.80381 0
M  V30 33 H 5.94963 0.0647609 1.71825 0
M  V30 END ATOM
M  V30 BEGIN BOND
M  V30 1 1 1 2
M  V30 2 1 2 3
M  V30 3 1 3 4
M  V30 4 1 4 5
M  V30 5 1 5 6
M  V30 6 1 6 7
M  V30 7 1 6 8
M  V30 8 1 8 9
M  V30 9 1 5 10
M  V30 10 1 10 11
M  V30 11 2 11 12
M  V30 12 1 12 13
M  V30 13 2 13 14
M  V30 14 1 14 15
M  V30 15 2 15 16
M  V30 16 1 16 17
M  V30 17 2 17 18
M  V30 18 1 18 19
M  V30 19 1 8 3
M  V30 20 1 14 10
M  V30 21 1 18 13
M  V30 22 1 1 20
M  V30 23 1 1 21
M  V30 24 1 2 22
M  V30 25 1 2 23
M  V30 26 1 3 24 CFG=3
M  V30 27 1 5 25 CFG=3
M  V30 28 1 6 26 CFG=3
M  V30 29 1 7 27
M  V30 30 1 8 28 CFG=1
M  V30 31 1 9 29
M  V30 32 1 11 30
M  V30 33 1 16 31
M  V30 34 1 19 32
M  V30 35 1 19 33
M  V30 END BOND
M  V30 END CTAB
M  END
