
     RDKit          3D

  0  0  0  0  0  0  0  0  0  0999 V3000
M  V30 BEGIN CTAB
M  V30 COUNTS 31 32 0 0 0
M  V30 BEGIN ATOM
M  V30 1 Cl 0.0909999 -0.806704 -2.70453 0
M  V30 2 C -1.26721 -0.572389 -1.58183 0
M  V30 3 C -2.53705 -0.978446 -1.94568 0
M  V30 4 C -3.60931 -0.790246 -1.06493 0
M  V30 5 C -3.4376 -0.207686 0.164505 0
M  V30 6 C -2.16816 0.189303 0.517363 0
M  V30 7 C -1.09262 0.00271971 -0.360062 0
M  V30 8 N 0.215175 0.402877 0.049487 0
M  V30 9 N 0.643172 1.63219 0.307059 0
M  V30 10 C 1.9368 1.61641 0.689167 0
M  V30 11 C 2.29631 0.279303 0.649938 0
M  V30 12 C 1.21427 -0.490252 0.249164 0
M  V30 13 N 1.19668 -1.90387 0.103859 0
M  V30 14 C 3.62075 -0.212855 0.993206 0
M  V30 15 S 4.38616 0.424662 2.27777 0
M  V30 16 N 4.27492 -1.23036 0.274873 0
M  V30 17 C 2.76734 2.79277 1.0711 0
M  V30 18 C -4.59606 0.0116742 1.08993 0
M  V30 19 F -5.08053 -1.17211 1.52404 0
M  V30 20 F -4.14014 0.741533 2.1911 0
M  V30 21 F -5.54958 0.825897 0.478081 0
M  V30 22 H -2.70274 -1.43689 -2.90205 0
M  V30 23 H -4.62842 -1.11366 -1.34356 0
M  V30 24 H -2.03145 0.649133 1.48395 0
M  V30 25 H 2.00089 -2.49607 -0.184666 0
M  V30 26 H 0.290146 -2.37662 0.30772 0
M  V30 27 H 4.27225 -2.19816 0.606219 0
M  V30 28 H 4.76666 -0.984318 -0.603523 0
M  V30 29 H 3.64301 2.87815 0.397639 0
M  V30 30 H 3.06125 2.80326 2.12352 0
M  V30 31 H 2.16412 3.72074 0.8567 0
M  V30 END ATOM
M  V30 BEGIN BOND
M  V30 1 1 1 2
M  V30 2 2 2 3
M  V30 3 1 3 4
M  V30 4 2 4 5
M  V30 5 1 5 6
M  V30 6 2 6 7
M  V30 7 1 7 8
M  V30 8 1 8 9
M  V30 9 2 9 10
M  V30 10 1 10 11
M  V30 11 2 11 12
M  V30 12 1 12 13
M  V30 13 1 11 14
M  V30 14 2 14 15
M  V30 15 1 14 16
M  V30 16 1 10 17
M  V30 17 1 5 18
M  V30 18 1 18 19
M  V30 19 1 18 20
M  V30 20 1 18 21
M  V30 21 1 7 2
M  V30 22 1 12 8
M  V30 23 1 3 22
M  V30 24 1 4 23
M  V30 25 1 6 24
M  V30 26 1 13 25
M  V30 27 1 13 26
M  V30 28 1 16 27
M  V30 29 1 16 28
M  V30 30 1 17 29
M  V30 31 1 17 30
M  V30 32 1 17 31
M  V30 END BOND
M  V30 END CTAB
M  END
