
     RDKit          3D

  0  0  0  0  0  0  0  0  0  0999 V3000
M  V30 BEGIN CTAB
M  V30 COUNTS 23 25 0 0 0
M  V30 BEGIN ATOM
M  V30 1 N 3.97006 -0.331621 0.966552 0
M  V30 2 C 2.55237 -0.439924 0.883566 0
M  V30 3 N 1.70296 -0.989708 1.78374 0
M  V30 4 N 0.459412 -0.896546 1.34229 0
M  V30 5 C 0.471024 -0.284036 0.144778 0
M  V30 6 N 1.75406 -0.0106426 -0.123644 0
M  V30 7 N 2.20752 0.628406 -1.28119 0
M  V30 8 C -0.73213 0.0226569 -0.70668 0
M  V30 9 C -1.75211 -1.15468 -0.845499 0
M  V30 10 C -2.04777 0.0782674 -0.182608 0
M  V30 11 C -3.11216 1.00521 -0.258868 0
M  V30 12 C -2.60658 0.402289 1.07615 0
M  V30 13 H 4.59457 -0.941264 0.402948 0
M  V30 14 H 4.35297 0.387431 1.61877 0
M  V30 15 H 2.34428 1.65959 -1.2671 0
M  V30 16 H 2.41795 0.11777 -2.16803 0
M  V30 17 H -0.488259 0.538118 -1.66449 0
M  V30 18 H -1.44945 -2.0839 -0.319729 0
M  V30 19 H -2.12056 -1.34574 -1.87675 0
M  V30 20 H -4.18556 0.765242 -0.487033 0
M  V30 21 H -2.90855 2.08993 -0.383169 0
M  V30 22 H -2.11344 1.10601 1.77251 0
M  V30 23 H -3.31059 -0.322872 1.57349 0
M  V30 END ATOM
M  V30 BEGIN BOND
M  V30 1 1 1 2
M  V30 2 2 2 3
M  V30 3 1 3 4
M  V30 4 2 4 5
M  V30 5 1 5 6
M  V30 6 1 6 7
M  V30 7 1 5 8
M  V30 8 1 8 9
M  V30 9 1 9 10
M  V30 10 1 10 11
M  V30 11 1 11 12
M  V30 12 1 6 2
M  V30 13 1 10 8
M  V30 14 1 12 10
M  V30 15 1 1 13
M  V30 16 1 1 14
M  V30 17 1 7 15
M  V30 18 1 7 16
M  V30 19 1 8 17
M  V30 20 1 9 18
M  V30 21 1 9 19
M  V30 22 1 11 20
M  V30 23 1 11 21
M  V30 24 1 12 22
M  V30 25 1 12 23
M  V30 END BOND
M  V30 END CTAB
M  END
