
     RDKit          3D

  0  0  0  0  0  0  0  0  0  0999 V3000
M  V30 BEGIN CTAB
M  V30 COUNTS 40 41 0 0 0
M  V30 BEGIN ATOM
M  V30 1 N -0.899364 2.76074 -2.13016 0
M  V30 2 C -1.45896 2.02154 -1.41135 0
M  V30 3 C -2.15048 1.10664 -0.485061 0
M  V30 4 C -3.44856 1.08512 -0.654628 0
M  V30 5 N -4.11466 1.86666 -1.63646 0
M  V30 6 S -4.4096 0.0137919 0.446524 0
M  V30 7 C -3.20568 -1.19736 1.01884 0
M  V30 8 C -1.93909 -0.917538 0.991176 0
M  V30 9 C -1.40318 0.358911 0.511443 0
M  V30 10 C 0.0371136 0.176904 0.108551 0
M  V30 11 C 1.04335 0.525558 0.989493 0
M  V30 12 O 0.725532 1.08092 2.23602 0
M  V30 13 C 1.7078 1.4566 3.17693 0
M  V30 14 C 2.3811 0.359808 0.718873 0
M  V30 15 C 2.74327 -0.184682 -0.499199 0
M  V30 16 C 1.74163 -0.539532 -1.39225 0
M  V30 17 C 0.385782 -0.365622 -1.10264 0
M  V30 18 O -0.560088 -0.747641 -2.03914 0
M  V30 19 C -0.161935 -1.30203 -3.27386 0
M  V30 20 O 4.07927 -0.37412 -0.825977 0
M  V30 21 C 5.05976 -0.00558718 0.0967323 0
M  V30 22 C -1.02412 -1.95493 1.47046 0
M  V30 23 N -0.302405 -2.75988 1.85432 0
M  V30 24 N -3.73214 -2.43618 1.48528 0
M  V30 25 H -5.09256 1.6761 -1.88006 0
M  V30 26 H -3.60304 2.63093 -2.104 0
M  V30 27 H -1.36042 1.02466 1.42994 0
M  V30 28 H 2.43912 2.11609 2.68192 0
M  V30 29 H 2.16064 0.551731 3.62669 0
M  V30 30 H 1.18515 2.08909 3.94178 0
M  V30 31 H 3.16912 0.63328 1.40979 0
M  V30 32 H 2.03748 -0.96272 -2.33777 0
M  V30 33 H 0.420854 -2.22031 -3.0557 0
M  V30 34 H 0.532234 -0.622114 -3.8225 0
M  V30 35 H -1.04701 -1.48809 -3.91014 0
M  V30 36 H 4.88733 1.06387 0.361344 0
M  V30 37 H 4.93597 -0.613105 1.0275 0
M  V30 38 H 6.08421 -0.104793 -0.265071 0
M  V30 39 H -3.84646 -3.19048 0.769053 0
M  V30 40 H -3.99701 -2.61223 2.47331 0
M  V30 END ATOM
M  V30 BEGIN BOND
M  V30 1 3 1 2
M  V30 2 1 2 3
M  V30 3 2 3 4
M  V30 4 1 4 5
M  V30 5 1 4 6
M  V30 6 1 6 7
M  V30 7 2 7 8
M  V30 8 1 8 9
M  V30 9 1 9 10
M  V30 10 2 10 11
M  V30 11 1 11 12
M  V30 12 1 12 13
M  V30 13 1 11 14
M  V30 14 2 14 15
M  V30 15 1 15 16
M  V30 16 2 16 17
M  V30 17 1 17 18
M  V30 18 1 18 19
M  V30 19 1 15 20
M  V30 20 1 20 21
M  V30 21 1 8 22
M  V30 22 3 22 23
M  V30 23 1 7 24
M  V30 24 1 9 3
M  V30 25 1 17 10
M  V30 26 1 5 25
M  V30 27 1 5 26
M  V30 28 1 9 27
M  V30 29 1 13 28
M  V30 30 1 13 29
M  V30 31 1 13 30
M  V30 32 1 14 31
M  V30 33 1 16 32
M  V30 34 1 19 33
M  V30 35 1 19 34
M  V30 36 1 19 35
M  V30 37 1 21 36
M  V30 38 1 21 37
M  V30 39 1 21 38
M  V30 40 1 24 39
M  V30 41 1 24 40
M  V30 END BOND
M  V30 END CTAB
M  END
