
     RDKit          3D

  0  0  0  0  0  0  0  0  0  0999 V3000
M  V30 BEGIN CTAB
M  V30 COUNTS 56 60 0 0 0
M  V30 BEGIN ATOM
M  V30 1 C -0.0287448 -1.83997 1.39172 0
M  V30 2 C 1.12265 -1.0535 0.933251 0
M  V30 3 N 2.33356 -1.09006 1.52825 0
M  V30 4 N 3.17679 -0.273488 0.946049 0
M  V30 5 C 2.5131 0.316525 -0.0553717 0
M  V30 6 C 1.19108 -0.150094 -0.106827 0
M  V30 7 C 0.146532 0.226237 -1.08538 0
M  V30 8 C -1.1164 0.674241 -0.528825 0
M  V30 9 C -1.34114 1.82505 0.183649 0
M  V30 10 C -0.320703 2.8506 0.535299 0
M  V30 11 N -2.63851 1.90854 0.532655 0
M  V30 12 N -3.2307 0.830236 0.0513456 0
M  V30 13 C -2.33152 0.0515229 -0.604214 0
M  V30 14 N -2.65945 -1.15254 -1.2219 0
M  V30 15 C -4.62083 0.536529 0.205202 0
M  V30 16 C -5.00111 -0.712466 0.649412 0
M  V30 17 C -6.35455 -1.0154 0.804822 0
M  V30 18 C -7.35102 -0.105321 0.529291 0
M  V30 19 C -6.94665 1.15129 0.0815505 0
M  V30 20 C -5.61128 1.45293 -0.0727251 0
M  V30 21 C 0.05758 -0.669138 -2.28301 0
M  V30 22 C -0.546364 -0.229925 -3.44075 0
M  V30 23 S -0.399052 -1.54169 -4.51395 0
M  V30 24 C 0.420057 -2.62657 -3.49524 0
M  V30 25 C 0.560288 -1.92745 -2.32531 0
M  V30 26 N 3.06237 1.28254 -0.948973 0
M  V30 27 C 4.54253 -0.0767131 1.33596 0
M  V30 28 C 5.43769 -1.13555 1.33054 0
M  V30 29 C 6.75673 -0.951137 1.70573 0
M  V30 30 C 7.21558 0.297982 2.09651 0
M  V30 31 C 6.34482 1.34857 2.10631 0
M  V30 32 C 5.02864 1.15396 1.72961 0
M  V30 33 H 0.284597 -2.59994 2.14187 0
M  V30 34 H -0.485626 -2.36286 0.536864 0
M  V30 35 H -0.830037 -1.22847 1.84768 0
M  V30 36 H 0.586497 1.2209 -1.52289 0
M  V30 37 H 0.358945 2.46377 1.3392 0
M  V30 38 H 0.2504 3.17466 -0.365865 0
M  V30 39 H -0.789047 3.7566 0.947282 0
M  V30 40 H -3.24875 -1.14348 -2.1058 0
M  V30 41 H -2.38395 -2.1105 -0.907765 0
M  V30 42 H -4.23082 -1.43247 0.86811 0
M  V30 43 H -6.64456 -2.00277 1.15555 0
M  V30 44 H -8.40591 -0.339469 0.649708 0
M  V30 45 H -7.73087 1.86384 -0.134045 0
M  V30 46 H -5.3261 2.43395 -0.421075 0
M  V30 47 H -1.01373 0.759135 -3.60606 0
M  V30 48 H 0.776361 -3.66311 -3.68738 0
M  V30 49 H 1.08687 -2.41595 -1.4505 0
M  V30 50 H 2.50399 2.14695 -1.1625 0
M  V30 51 H 3.99437 1.17552 -1.40422 0
M  V30 52 H 5.09367 -2.11607 1.02791 0
M  V30 53 H 7.47315 -1.77184 1.70728 0
M  V30 54 H 8.24246 0.457258 2.39202 0
M  V30 55 H 6.66816 2.35231 2.40886 0
M  V30 56 H 4.35794 2.0263 1.75108 0
M  V30 END ATOM
M  V30 BEGIN BOND
M  V30 1 1 1 2
M  V30 2 2 2 3
M  V30 3 1 3 4
M  V30 4 1 4 5
M  V30 5 2 5 6
M  V30 6 1 6 7
M  V30 7 1 7 8
M  V30 8 1 8 9
M  V30 9 1 9 10
M  V30 10 2 9 11
M  V30 11 1 11 12
M  V30 12 1 12 13
M  V30 13 1 13 14
M  V30 14 1 12 15
M  V30 15 2 15 16
M  V30 16 1 16 17
M  V30 17 2 17 18
M  V30 18 1 18 19
M  V30 19 2 19 20
M  V30 20 1 7 21
M  V30 21 2 21 22
M  V30 22 1 22 23
M  V30 23 1 23 24
M  V30 24 2 24 25
M  V30 25 1 5 26
M  V30 26 1 4 27
M  V30 27 2 27 28
M  V30 28 1 28 29
M  V30 29 2 29 30
M  V30 30 1 30 31
M  V30 31 2 31 32
M  V30 32 1 6 2
M  V30 33 2 13 8
M  V30 34 1 20 15
M  V30 35 1 25 21
M  V30 36 1 32 27
M  V30 37 1 1 33
M  V30 38 1 1 34
M  V30 39 1 1 35
M  V30 40 1 7 36
M  V30 41 1 10 37
M  V30 42 1 10 38
M  V30 43 1 10 39
M  V30 44 1 14 40
M  V30 45 1 14 41
M  V30 46 1 16 42
M  V30 47 1 17 43
M  V30 48 1 18 44
M  V30 49 1 19 45
M  V30 50 1 20 46
M  V30 51 1 22 47
M  V30 52 1 24 48
M  V30 53 1 25 49
M  V30 54 1 26 50
M  V30 55 1 26 51
M  V30 56 1 28 52
M  V30 57 1 29 53
M  V30 58 1 30 54
M  V30 59 1 31 55
M  V30 60 1 32 56
M  V30 END BOND
M  V30 END CTAB
M  END
