
     RDKit          3D

  0  0  0  0  0  0  0  0  0  0999 V3000
M  V30 BEGIN CTAB
M  V30 COUNTS 56 58 0 0 0
M  V30 BEGIN ATOM
M  V30 1 C 5.70296 -0.07808 -0.963348 0 CFG=2
M  V30 2 C 6.16076 -1.02321 0.124575 0
M  V30 3 C 5.57706 -0.568426 1.44388 0
M  V30 4 C 5.96449 -1.42502 2.5621 0
M  V30 5 O 6.57014 -0.88549 3.67859 0
M  V30 6 O 5.75147 -2.65802 2.51678 0
M  V30 7 N 4.25348 -0.0765513 -1.07249 0
M  V30 8 C 3.52139 1.11224 -0.970964 0
M  V30 9 O 4.16215 2.19718 -0.77729 0
M  V30 10 C 2.07962 1.1822 -1.07449 0
M  V30 11 C 1.43997 2.41288 -0.98435 0
M  V30 12 C 0.085314 2.48266 -1.08032 0
M  V30 13 C -0.697561 1.33505 -1.27003 0
M  V30 14 C -2.14564 1.55913 -1.37949 0
M  V30 15 C -2.80722 1.74986 -0.0358198 0
M  V30 16 C -2.80354 0.557976 0.853582 0
M  V30 17 C -3.64972 -0.554145 0.438426 0
M  V30 18 C -3.28741 -1.66325 -0.272543 0
M  V30 19 N -4.36549 -2.44146 -0.488239 0
M  V30 20 C -5.42457 -1.82679 0.0906383 0
M  V30 21 C -5.01775 -0.631579 0.688923 0
M  V30 22 C -5.89721 0.168867 1.3598 0
M  V30 23 N -5.44647 1.35597 1.9929 0
M  V30 24 N -7.18954 -0.220346 1.43129 0
M  V30 25 C -7.59258 -1.36482 0.857786 0
M  V30 26 N -8.95479 -1.76346 0.943088 0
M  V30 27 N -6.73019 -2.15109 0.202672 0
M  V30 28 C -0.0861381 0.142529 -1.35939 0
M  V30 29 C 1.31571 0.0590494 -1.26084 0
M  V30 30 C 6.26975 -0.478553 -2.29673 0
M  V30 31 O 7.6366 -0.577069 -2.48869 0
M  V30 32 O 5.52179 -0.734872 -3.27631 0
M  V30 33 H 6.07034 0.952609 -0.793525 0
M  V30 34 H 5.82123 -2.05742 -0.0805345 0
M  V30 35 H 7.28356 -1.04457 0.144363 0
M  V30 36 H 5.8787 0.484796 1.59688 0
M  V30 37 H 4.46378 -0.558241 1.27979 0
M  V30 38 H 7.52192 -1.0879 3.96128 0
M  V30 39 H 3.76832 -1.01257 -1.2328 0
M  V30 40 H 2.04371 3.29586 -0.837019 0
M  V30 41 H -0.40845 3.45078 -1.00841 0
M  V30 42 H -2.61068 0.686144 -1.92652 0
M  V30 43 H -2.27157 2.47507 -2.02186 0
M  V30 44 H -3.84068 2.12678 -0.257305 0
M  V30 45 H -2.24311 2.58424 0.502347 0
M  V30 46 H -1.73277 0.164709 0.811011 0
M  V30 47 H -2.89704 0.814745 1.93228 0
M  V30 48 H -2.3215 -1.95592 -0.634871 0
M  V30 49 H -4.42431 -3.34433 -0.993431 0
M  V30 50 H -5.02627 1.25475 2.94125 0
M  V30 51 H -5.53403 2.28177 1.5252 0
M  V30 52 H -9.32825 -2.35869 1.72201 0
M  V30 53 H -9.61401 -1.45718 0.209925 0
M  V30 54 H -0.567678 -0.800358 -1.522 0
M  V30 55 H 1.77953 -0.925636 -1.33918 0
M  V30 56 H 8.27244 0.123266 -2.11257 0
M  V30 END ATOM
M  V30 BEGIN BOND
M  V30 1 1 1 2
M  V30 2 1 2 3
M  V30 3 1 3 4
M  V30 4 1 4 5
M  V30 5 2 4 6
M  V30 6 1 1 7
M  V30 7 1 7 8
M  V30 8 2 8 9
M  V30 9 1 8 10
M  V30 10 2 10 11
M  V30 11 1 11 12
M  V30 12 2 12 13
M  V30 13 1 13 14
M  V30 14 1 14 15
M  V30 15 1 15 16
M  V30 16 1 16 17
M  V30 17 2 17 18
M  V30 18 1 18 19
M  V30 19 1 19 20
M  V30 20 2 20 21
M  V30 21 1 21 22
M  V30 22 1 22 23
M  V30 23 2 22 24
M  V30 24 1 24 25
M  V30 25 1 25 26
M  V30 26 2 25 27
M  V30 27 1 13 28
M  V30 28 2 28 29
M  V30 29 1 1 30
M  V30 30 1 30 31
M  V30 31 2 30 32
M  V30 32 1 29 10
M  V30 33 1 21 17
M  V30 34 1 27 20
M  V30 35 1 1 33 CFG=1
M  V30 36 1 2 34
M  V30 37 1 2 35
M  V30 38 1 3 36
M  V30 39 1 3 37
M  V30 40 1 5 38
M  V30 41 1 7 39
M  V30 42 1 11 40
M  V30 43 1 12 41
M  V30 44 1 14 42
M  V30 45 1 14 43
M  V30 46 1 15 44
M  V30 47 1 15 45
M  V30 48 1 16 46
M  V30 49 1 16 47
M  V30 50 1 18 48
M  V30 51 1 19 49
M  V30 52 1 23 50
M  V30 53 1 23 51
M  V30 54 1 26 52
M  V30 55 1 26 53
M  V30 56 1 28 54
M  V30 57 1 29 55
M  V30 58 1 31 56
M  V30 END BOND
M  V30 END CTAB
M  END
