
     RDKit          3D

  0  0  0  0  0  0  0  0  0  0999 V3000
M  V30 BEGIN CTAB
M  V30 COUNTS 25 25 0 0 0
M  V30 BEGIN ATOM
M  V30 1 C 4.2907 -0.76622 -0.517777 0
M  V30 2 O 3.19193 -0.772152 0.362564 0
M  V30 3 C 1.91944 -0.410148 0.0226942 0
M  V30 4 O 1.64591 -0.0370965 -1.13601 0
M  V30 5 C 0.851934 -0.461098 1.0411 0
M  V30 6 C -0.460985 -0.0496104 0.526112 0
M  V30 7 C -0.722069 1.29559 0.325842 0
M  V30 8 N 0.304097 2.2245 0.632828 0
M  V30 9 C -1.96557 1.6927 -0.163827 0
M  V30 10 C -2.96793 0.787587 -0.463423 0
M  V30 11 C -2.69058 -0.55001 -0.257613 0
M  V30 12 C -1.46204 -0.955358 0.227088 0
M  V30 13 F -1.16375 -2.27839 0.442432 0
M  V30 14 N -3.69423 -1.50425 -0.550727 0
M  V30 15 H 5.15463 -1.18815 0.0776755 0
M  V30 16 H 4.56874 0.294154 -0.758098 0
M  V30 17 H 4.17771 -1.37749 -1.41205 0
M  V30 18 H 1.07727 0.205045 1.90949 0
M  V30 19 H 0.763145 -1.49877 1.4088 0
M  V30 20 H 0.868522 2.22117 1.50901 0
M  V30 21 H 0.508513 2.96428 -0.0722788 0
M  V30 22 H -2.13876 2.75398 -0.308746 0
M  V30 23 H -3.92817 1.12281 -0.841267 0
M  V30 24 H -3.64644 -2.06543 -1.41908 0
M  V30 25 H -4.48203 -1.64766 0.100266 0
M  V30 END ATOM
M  V30 BEGIN BOND
M  V30 1 1 1 2
M  V30 2 1 2 3
M  V30 3 2 3 4
M  V30 4 1 3 5
M  V30 5 1 5 6
M  V30 6 2 6 7
M  V30 7 1 7 8
M  V30 8 1 7 9
M  V30 9 2 9 10
M  V30 10 1 10 11
M  V30 11 2 11 12
M  V30 12 1 12 13
M  V30 13 1 11 14
M  V30 14 1 12 6
M  V30 15 1 1 15
M  V30 16 1 1 16
M  V30 17 1 1 17
M  V30 18 1 5 18
M  V30 19 1 5 19
M  V30 20 1 8 20
M  V30 21 1 8 21
M  V30 22 1 9 22
M  V30 23 1 10 23
M  V30 24 1 14 24
M  V30 25 1 14 25
M  V30 END BOND
M  V30 END CTAB
M  END
