
     RDKit          3D

  0  0  0  0  0  0  0  0  0  0999 V3000
M  V30 BEGIN CTAB
M  V30 COUNTS 44 46 0 0 0
M  V30 BEGIN ATOM
M  V30 1 N 6.2452 -0.403526 1.00307 0
M  V30 2 C 5.33107 0.646568 0.743332 0
M  V30 3 N 4.02668 0.426064 1.05356 0
M  V30 4 C 3.10401 1.38896 0.827718 0
M  V30 5 N 3.5337 2.54341 0.294676 0
M  V30 6 C 4.81791 2.80648 -0.0285087 0
M  V30 7 N 5.72723 1.82994 0.205163 0
M  V30 8 N 5.19674 4.04779 -0.585968 0
M  V30 9 S 1.36733 1.13913 1.23036 0
M  V30 10 C 0.465374 0.424947 -0.137346 0
M  V30 11 C 0.933033 -0.966698 -0.403763 0
M  V30 12 C 1.34537 -1.3954 -1.63911 0
M  V30 13 C 1.77681 -2.68996 -1.86145 0
M  V30 14 C 1.79763 -3.59101 -0.810924 0
M  V30 15 C 1.37859 -3.15151 0.441324 0
M  V30 16 C 0.95525 -1.86892 0.643887 0
M  V30 17 C -0.992929 0.461292 0.161723 0
M  V30 18 O -1.37306 0.950877 1.24361 0
M  V30 19 N -1.90179 -0.0499881 -0.767972 0
M  V30 20 C -3.31395 -0.0972067 -0.675646 0
M  V30 21 C -4.02698 -0.947851 -1.53297 0
M  V30 22 C -5.39805 -1.03347 -1.5168 0
M  V30 23 C -6.14004 -0.273795 -0.641789 0
M  V30 24 C -5.48224 0.574304 0.216964 0
M  V30 25 C -4.08079 0.647635 0.184672 0
M  V30 26 C -6.2557 1.41911 1.17909 0
M  V30 27 F -5.35573 2.22842 1.86392 0
M  V30 28 F -6.9638 0.67277 2.08066 0
M  V30 29 F -7.09732 2.30731 0.497319 0
M  V30 30 H 6.25426 -0.833912 1.94653 0
M  V30 31 H 6.89187 -0.732536 0.263333 0
M  V30 32 H 4.74486 4.37981 -1.44762 0
M  V30 33 H 5.92255 4.61412 -0.124699 0
M  V30 34 H 0.646845 1.0059 -1.05504 0
M  V30 35 H 1.32793 -0.680672 -2.46733 0
M  V30 36 H 2.10631 -3.05279 -2.82623 0
M  V30 37 H 2.12912 -4.60432 -0.958128 0
M  V30 38 H 1.40636 -3.87497 1.24019 0
M  V30 39 H 0.639434 -1.58177 1.64683 0
M  V30 40 H -1.47631 -0.457735 -1.6704 0
M  V30 41 H -3.44029 -1.55128 -2.22584 0
M  V30 42 H -5.92475 -1.70141 -2.19095 0
M  V30 43 H -7.22071 -0.307483 -0.593336 0
M  V30 44 H -3.62703 1.33336 0.872212 0
M  V30 END ATOM
M  V30 BEGIN BOND
M  V30 1 1 1 2
M  V30 2 2 2 3
M  V30 3 1 3 4
M  V30 4 2 4 5
M  V30 5 1 5 6
M  V30 6 2 6 7
M  V30 7 1 6 8
M  V30 8 1 4 9
M  V30 9 1 9 10
M  V30 10 1 10 11
M  V30 11 2 11 12
M  V30 12 1 12 13
M  V30 13 2 13 14
M  V30 14 1 14 15
M  V30 15 2 15 16
M  V30 16 1 10 17
M  V30 17 2 17 18
M  V30 18 1 17 19
M  V30 19 1 19 20
M  V30 20 2 20 21
M  V30 21 1 21 22
M  V30 22 2 22 23
M  V30 23 1 23 24
M  V30 24 2 24 25
M  V30 25 1 24 26
M  V30 26 1 26 27
M  V30 27 1 26 28
M  V30 28 1 26 29
M  V30 29 1 7 2
M  V30 30 1 16 11
M  V30 31 1 25 20
M  V30 32 1 1 30
M  V30 33 1 1 31
M  V30 34 1 8 32
M  V30 35 1 8 33
M  V30 36 1 10 34
M  V30 37 1 12 35
M  V30 38 1 13 36
M  V30 39 1 14 37
M  V30 40 1 15 38
M  V30 41 1 16 39
M  V30 42 1 19 40
M  V30 43 1 21 41
M  V30 44 1 22 42
M  V30 45 1 23 43
M  V30 46 1 25 44
M  V30 END BOND
M  V30 END CTAB
M  END
