
     RDKit          3D

  0  0  0  0  0  0  0  0  0  0999 V3000
M  V30 BEGIN CTAB
M  V30 COUNTS 52 55 0 0 0
M  V30 BEGIN ATOM
M  V30 1 O 6.63918 -1.62416 -0.00788157 0
M  V30 2 C 7.57325 -0.66132 -0.353507 0
M  V30 3 O 8.48475 -0.946571 -1.20341 0
M  V30 4 C 7.57836 0.688123 0.210239 0
M  V30 5 O 6.55104 1.01015 1.07131 0
M  V30 6 C 5.18929 1.05771 0.795922 0
M  V30 7 C 4.64065 0.795977 -0.435624 0
M  V30 8 C 3.26673 0.854264 -0.66226 0
M  V30 9 C 2.38205 1.17893 0.339576 0
M  V30 10 C 2.93443 1.44153 1.57372 0
M  V30 11 C 4.28581 1.38806 1.81275 0
M  V30 12 C 0.934905 1.2446 0.115833 0
M  V30 13 N 0.190953 0.0782536 0.364281 0
M  V30 14 C 0.446929 -1.09665 -0.346848 0
M  V30 15 C -0.440773 -1.324 -1.54892 0
M  V30 16 O -0.978388 -0.155873 -2.00594 0
M  V30 17 C -2.10443 0.297206 -1.39247 0
M  V30 18 C -2.259 0.000325264 0.0461568 0
M  V30 19 C -1.08496 0.30806 0.904191 0
M  V30 20 O -2.73603 -1.29229 0.325499 0
M  V30 21 C -4.0996 -1.30482 0.217442 0
M  V30 22 C -4.56864 -0.0164957 0.358352 0
M  V30 23 C -3.41816 0.864189 0.568432 0
M  V30 24 C -5.93501 0.255992 0.289823 0
M  V30 25 N -6.37961 1.59762 0.44052 0
M  V30 26 N -6.74278 -0.786786 0.0836051 0
M  V30 27 C -6.26074 -2.05278 -0.0532855 0
M  V30 28 N -4.94666 -2.32952 0.0105708 0
M  V30 29 N -7.14939 -3.14464 -0.273077 0
M  V30 30 H 6.84636 -2.24183 0.761812 0
M  V30 31 H 7.6507 1.48537 -0.560382 0
M  V30 32 H 8.53729 0.786418 0.80087 0
M  V30 33 H 5.3212 0.547211 -1.25336 0
M  V30 34 H 2.89171 0.636698 -1.65723 0
M  V30 35 H 2.21392 1.70018 2.36494 0
M  V30 36 H 4.66033 1.59929 2.78275 0
M  V30 37 H 0.543281 2.04209 0.81721 0
M  V30 38 H 0.749814 1.69782 -0.903782 0
M  V30 39 H 0.255303 -1.97813 0.33495 0
M  V30 40 H 1.52141 -1.16597 -0.591193 0
M  V30 41 H 0.240769 -1.70837 -2.36411 0
M  V30 42 H -1.18743 -2.11317 -1.40279 0
M  V30 43 H -2.20091 1.39526 -1.60457 0
M  V30 44 H -2.98665 -0.160222 -1.92916 0
M  V30 45 H -1.10916 1.36968 1.29129 0
M  V30 46 H -1.18888 -0.312842 1.84316 0
M  V30 47 H -3.2479 1.14429 1.62414 0
M  V30 48 H -3.4502 1.81179 -0.00519764 0
M  V30 49 H -6.97273 1.81944 1.27068 0
M  V30 50 H -6.11097 2.32736 -0.268445 0
M  V30 51 H -8.10497 -3.04312 0.166907 0
M  V30 52 H -6.86642 -3.96433 -0.82195 0
M  V30 END ATOM
M  V30 BEGIN BOND
M  V30 1 1 1 2
M  V30 2 2 2 3
M  V30 3 1 2 4
M  V30 4 1 4 5
M  V30 5 1 5 6
M  V30 6 2 6 7
M  V30 7 1 7 8
M  V30 8 2 8 9
M  V30 9 1 9 10
M  V30 10 2 10 11
M  V30 11 1 9 12
M  V30 12 1 12 13
M  V30 13 1 13 14
M  V30 14 1 14 15
M  V30 15 1 15 16
M  V30 16 1 16 17
M  V30 17 1 17 18
M  V30 18 1 18 19
M  V30 19 1 18 20
M  V30 20 1 20 21
M  V30 21 2 21 22
M  V30 22 1 22 23
M  V30 23 1 22 24
M  V30 24 1 24 25
M  V30 25 2 24 26
M  V30 26 1 26 27
M  V30 27 2 27 28
M  V30 28 1 27 29
M  V30 29 1 11 6
M  V30 30 1 19 13
M  V30 31 1 28 21
M  V30 32 1 23 18
M  V30 33 1 1 30
M  V30 34 1 4 31
M  V30 35 1 4 32
M  V30 36 1 7 33
M  V30 37 1 8 34
M  V30 38 1 10 35
M  V30 39 1 11 36
M  V30 40 1 12 37
M  V30 41 1 12 38
M  V30 42 1 14 39
M  V30 43 1 14 40
M  V30 44 1 15 41
M  V30 45 1 15 42
M  V30 46 1 17 43
M  V30 47 1 17 44
M  V30 48 1 19 45
M  V30 49 1 19 46
M  V30 50 1 23 47
M  V30 51 1 23 48
M  V30 52 1 25 49
M  V30 53 1 25 50
M  V30 54 1 29 51
M  V30 55 1 29 52
M  V30 END BOND
M  V30 END CTAB
M  END
