
     RDKit          3D

  0  0  0  0  0  0  0  0  0  0999 V3000
M  V30 BEGIN CTAB
M  V30 COUNTS 22 21 0 0 0
M  V30 BEGIN ATOM
M  V30 1 N 2.81565 1.46206 0.0452367 0
M  V30 2 C 1.95711 0.366017 0.501752 0
M  V30 3 C 1.72328 -0.542944 -0.687301 0
M  V30 4 O 0.918782 -1.61941 -0.365715 0
M  V30 5 C -0.329561 -1.26208 0.0854523 0
M  V30 6 C -1.12612 -0.462162 -0.922349 0
M  V30 7 S -2.70264 -0.0866928 -0.181243 0
M  V30 8 O -3.53807 0.755838 -1.10722 0
M  V30 9 O -3.43293 -1.35476 0.0660282 0
M  V30 10 N -2.44613 0.826859 1.25122 0
M  V30 11 H 3.65649 0.999571 -0.382943 0
M  V30 12 H 3.09058 2.04733 0.887822 0
M  V30 13 H 0.996039 0.82818 0.792623 0
M  V30 14 H 2.48301 -0.1245 1.32418 0
M  V30 15 H 2.71447 -0.950104 -0.976005 0
M  V30 16 H 1.35556 0.0508455 -1.53065 0
M  V30 17 H -0.305135 -0.721632 1.05352 0
M  V30 18 H -0.900632 -2.19594 0.272197 0
M  V30 19 H -1.34044 -1.13759 -1.7793 0
M  V30 20 H -0.645481 0.470676 -1.21597 0
M  V30 21 H -1.64211 1.45465 1.19994 0
M  V30 22 H -3.30171 1.19578 1.66872 0
M  V30 END ATOM
M  V30 BEGIN BOND
M  V30 1 1 1 2
M  V30 2 1 2 3
M  V30 3 1 3 4
M  V30 4 1 4 5
M  V30 5 1 5 6
M  V30 6 1 6 7
M  V30 7 2 7 8
M  V30 8 2 7 9
M  V30 9 1 7 10
M  V30 10 1 1 11
M  V30 11 1 1 12
M  V30 12 1 2 13
M  V30 13 1 2 14
M  V30 14 1 3 15
M  V30 15 1 3 16
M  V30 16 1 5 17
M  V30 17 1 5 18
M  V30 18 1 6 19
M  V30 19 1 6 20
M  V30 20 1 10 21
M  V30 21 1 10 22
M  V30 END BOND
M  V30 END CTAB
M  END
