
     RDKit          3D

  0  0  0  0  0  0  0  0  0  0999 V3000
M  V30 BEGIN CTAB
M  V30 COUNTS 34 34 0 0 0
M  V30 BEGIN ATOM
M  V30 1 N 4.19791 -0.630084 1.99854 0
M  V30 2 C 3.44216 0.255034 1.10252 0
M  V30 3 C 3.74982 -0.218079 -0.301168 0
M  V30 4 C 3.04646 0.594926 -1.34167 0
M  V30 5 C 1.57981 0.571338 -1.23203 0
M  V30 6 C 0.877118 1.48994 -0.480104 0
M  V30 7 C -0.4967 1.48717 -0.362868 0
M  V30 8 C -1.23087 0.523668 -1.02376 0
M  V30 9 C -2.72805 0.513023 -0.901733 0
M  V30 10 C -3.06211 -0.349697 0.276488 0
M  V30 11 C -4.53854 -0.460482 0.531016 0
M  V30 12 N -4.71171 -1.32432 1.69915 0
M  V30 13 C -0.55919 -0.402507 -1.77869 0
M  V30 14 C 0.813085 -0.392864 -1.89062 0
M  V30 15 H 5.11536 -0.867565 1.55925 0
M  V30 16 H 3.65063 -1.52105 2.02909 0
M  V30 17 H 3.82527 1.29619 1.19668 0
M  V30 18 H 2.35107 0.201311 1.33903 0
M  V30 19 H 3.5505 -1.30544 -0.410232 0
M  V30 20 H 4.8371 -0.0879797 -0.448947 0
M  V30 21 H 3.37025 1.66188 -1.1896 0
M  V30 22 H 3.32616 0.300914 -2.35996 0
M  V30 23 H 1.49398 2.24119 0.0313342 0
M  V30 24 H -0.996123 2.24655 0.251641 0
M  V30 25 H -3.15399 0.137443 -1.83432 0
M  V30 26 H -3.03886 1.56792 -0.76079 0
M  V30 27 H -2.63408 -1.34726 0.120282 0
M  V30 28 H -2.59709 0.095633 1.18263 0
M  V30 29 H -5.12785 -0.783136 -0.325894 0
M  V30 30 H -4.9085 0.558002 0.815981 0
M  V30 31 H -3.94081 -1.98989 1.81177 0
M  V30 32 H -5.65778 -1.76656 1.62556 0
M  V30 33 H -1.16824 -1.15663 -2.29297 0
M  V30 34 H 1.32382 -1.1386 -2.49585 0
M  V30 END ATOM
M  V30 BEGIN BOND
M  V30 1 1 1 2
M  V30 2 1 2 3
M  V30 3 1 3 4
M  V30 4 1 4 5
M  V30 5 2 5 6
M  V30 6 1 6 7
M  V30 7 2 7 8
M  V30 8 1 8 9
M  V30 9 1 9 10
M  V30 10 1 10 11
M  V30 11 1 11 12
M  V30 12 1 8 13
M  V30 13 2 13 14
M  V30 14 1 14 5
M  V30 15 1 1 15
M  V30 16 1 1 16
M  V30 17 1 2 17
M  V30 18 1 2 18
M  V30 19 1 3 19
M  V30 20 1 3 20
M  V30 21 1 4 21
M  V30 22 1 4 22
M  V30 23 1 6 23
M  V30 24 1 7 24
M  V30 25 1 9 25
M  V30 26 1 9 26
M  V30 27 1 10 27
M  V30 28 1 10 28
M  V30 29 1 11 29
M  V30 30 1 11 30
M  V30 31 1 12 31
M  V30 32 1 12 32
M  V30 33 1 13 33
M  V30 34 1 14 34
M  V30 END BOND
M  V30 END CTAB
M  END
