
     RDKit          3D

  0  0  0  0  0  0  0  0  0  0999 V3000
M  V30 BEGIN CTAB
M  V30 COUNTS 27 26 0 0 0
M  V30 BEGIN ATOM
M  V30 1 C -2.35005 -0.045269 0.682668 0 CFG=1
M  V30 2 N -3.36596 -1.11444 0.689795 0
M  V30 3 C -1.14285 -0.620297 0.0339599 0
M  V30 4 C 0.0334184 0.332365 -0.069466 0
M  V30 5 C 1.13922 -0.445696 -0.737478 0
M  V30 6 C 2.40985 0.327677 -0.962241 0 CFG=2
M  V30 7 N 3.35679 -0.602491 -1.63276 0
M  V30 8 C 2.98343 0.744029 0.315134 0
M  V30 9 O 4.14578 0.137437 0.78735 0
M  V30 10 O 2.50152 1.63448 1.05185 0
M  V30 11 C -2.94263 1.12063 0.044609 0
M  V30 12 O -4.21741 1.08515 -0.491143 0
M  V30 13 O -2.31684 2.19183 -0.0391362 0
M  V30 14 H -2.16521 0.166945 1.77132 0
M  V30 15 H -2.86232 -1.9762 1.00676 0
M  V30 16 H -4.14703 -0.896106 1.3274 0
M  V30 17 H -1.40644 -0.913483 -1.00747 0
M  V30 18 H -0.800745 -1.47798 0.636849 0
M  V30 19 H 0.329605 0.700477 0.913611 0
M  V30 20 H -0.198298 1.22446 -0.706464 0
M  V30 21 H 0.815377 -0.847169 -1.73089 0
M  V30 22 H 1.36621 -1.33294 -0.0958681 0
M  V30 23 H 2.27394 1.15245 -1.6623 0
M  V30 24 H 3.78626 -1.21249 -0.911751 0
M  V30 25 H 2.76137 -1.14586 -2.31491 0
M  V30 26 H 5.032 0.61359 0.872441 0
M  V30 27 H -5.01901 1.19888 0.124223 0
M  V30 END ATOM
M  V30 BEGIN BOND
M  V30 1 1 1 2
M  V30 2 1 1 3
M  V30 3 1 3 4
M  V30 4 1 4 5
M  V30 5 1 5 6
M  V30 6 1 6 7
M  V30 7 1 6 8
M  V30 8 1 8 9
M  V30 9 2 8 10
M  V30 10 1 1 11
M  V30 11 1 11 12
M  V30 12 2 11 13
M  V30 13 1 1 14 CFG=1
M  V30 14 1 2 15
M  V30 15 1 2 16
M  V30 16 1 3 17
M  V30 17 1 3 18
M  V30 18 1 4 19
M  V30 19 1 4 20
M  V30 20 1 5 21
M  V30 21 1 5 22
M  V30 22 1 6 23 CFG=3
M  V30 23 1 7 24
M  V30 24 1 7 25
M  V30 25 1 9 26
M  V30 26 1 12 27
M  V30 END BOND
M  V30 END CTAB
M  END
