
     RDKit          3D

  0  0  0  0  0  0  0  0  0  0999 V3000
M  V30 BEGIN CTAB
M  V30 COUNTS 56 58 0 0 0
M  V30 BEGIN ATOM
M  V30 1 N -3.89571 1.34071 -1.82011 0
M  V30 2 C -4.37254 0.761421 -0.570018 0
M  V30 3 C -5.88156 0.56333 -0.759834 0
M  V30 4 C -6.50382 -0.0681319 0.456829 0
M  V30 5 C -5.75221 -1.25985 0.964689 0
M  V30 6 C -4.2613 -1.02061 1.07314 0
M  V30 7 C -3.80192 -0.584397 -0.300897 0
M  V30 8 C -2.32877 -0.692829 -0.489791 0
M  V30 9 C -1.54339 0.195478 0.365386 0
M  V30 10 O -2.04776 0.990519 1.19619 0
M  V30 11 N -0.1254 0.165722 0.258485 0
M  V30 12 C 0.561817 -0.71726 -0.67115 0
M  V30 13 C 1.96637 -0.168689 -0.950277 0
M  V30 14 C 2.76981 -0.186853 0.324242 0
M  V30 15 C 1.89178 0.121888 1.52348 0
M  V30 16 C 0.736739 1.02139 1.07656 0
M  V30 17 C 3.88488 0.832165 0.316228 0
M  V30 18 O 4.57463 0.762517 1.50249 0
M  V30 19 C 5.16513 -0.448124 1.75914 0
M  V30 20 C 5.99931 -0.988553 0.642999 0
M  V30 21 C 5.37984 -0.793218 -0.720578 0
M  V30 22 C 4.85976 0.607323 -0.811012 0
M  V30 23 N 4.33943 0.959987 -2.09947 0
M  V30 24 H -4.46153 2.20884 -1.96978 0
M  V30 25 H -4.09361 0.668479 -2.61925 0
M  V30 26 H -4.25441 1.49888 0.223417 0
M  V30 27 H -6.35199 1.52675 -0.955042 0
M  V30 28 H -6.0322 -0.0868211 -1.64729 0
M  V30 29 H -6.67249 0.698026 1.25262 0
M  V30 30 H -7.51706 -0.416442 0.159853 0
M  V30 31 H -6.19863 -1.55084 1.93395 0
M  V30 32 H -5.89286 -2.10635 0.259733 0
M  V30 33 H -3.80753 -1.99984 1.36066 0
M  V30 34 H -4.09819 -0.251176 1.84287 0
M  V30 35 H -4.28095 -1.30237 -1.02268 0
M  V30 36 H -2.03276 -1.74055 -0.252877 0
M  V30 37 H -2.11479 -0.56445 -1.57535 0
M  V30 38 H 0.711629 -1.71394 -0.206506 0
M  V30 39 H 0.0261254 -0.831106 -1.62312 0
M  V30 40 H 1.85303 0.841936 -1.37393 0
M  V30 41 H 2.432 -0.894127 -1.64322 0
M  V30 42 H 3.17243 -1.21647 0.489756 0
M  V30 43 H 2.41793 0.663843 2.31168 0
M  V30 44 H 1.46783 -0.839313 1.91648 0
M  V30 45 H 1.18824 1.82607 0.479971 0
M  V30 46 H 0.222142 1.38496 1.97006 0
M  V30 47 H 3.43312 1.82847 0.23587 0
M  V30 48 H 4.44005 -1.23979 2.08913 0
M  V30 49 H 5.83874 -0.30479 2.64536 0
M  V30 50 H 7.04467 -0.565556 0.655968 0
M  V30 51 H 6.13678 -2.08181 0.799467 0
M  V30 52 H 6.22402 -0.877302 -1.46306 0
M  V30 53 H 4.64747 -1.5602 -0.989025 0
M  V30 54 H 5.73248 1.29016 -0.606174 0
M  V30 55 H 5.0217 0.687696 -2.81579 0
M  V30 56 H 4.18346 1.98358 -2.13047 0
M  V30 END ATOM
M  V30 BEGIN BOND
M  V30 1 1 1 2
M  V30 2 1 2 3
M  V30 3 1 3 4
M  V30 4 1 4 5
M  V30 5 1 5 6
M  V30 6 1 6 7
M  V30 7 1 7 8
M  V30 8 1 8 9
M  V30 9 2 9 10
M  V30 10 1 9 11
M  V30 11 1 11 12
M  V30 12 1 12 13
M  V30 13 1 13 14
M  V30 14 1 14 15
M  V30 15 1 15 16
M  V30 16 1 14 17
M  V30 17 1 17 18
M  V30 18 1 18 19
M  V30 19 1 19 20
M  V30 20 1 20 21
M  V30 21 1 21 22
M  V30 22 1 22 23
M  V30 23 1 7 2
M  V30 24 1 16 11
M  V30 25 1 22 17
M  V30 26 1 1 24
M  V30 27 1 1 25
M  V30 28 1 2 26
M  V30 29 1 3 27
M  V30 30 1 3 28
M  V30 31 1 4 29
M  V30 32 1 4 30
M  V30 33 1 5 31
M  V30 34 1 5 32
M  V30 35 1 6 33
M  V30 36 1 6 34
M  V30 37 1 7 35
M  V30 38 1 8 36
M  V30 39 1 8 37
M  V30 40 1 12 38
M  V30 41 1 12 39
M  V30 42 1 13 40
M  V30 43 1 13 41
M  V30 44 1 14 42
M  V30 45 1 15 43
M  V30 46 1 15 44
M  V30 47 1 16 45
M  V30 48 1 16 46
M  V30 49 1 17 47
M  V30 50 1 19 48
M  V30 51 1 19 49
M  V30 52 1 20 50
M  V30 53 1 20 51
M  V30 54 1 21 52
M  V30 55 1 21 53
M  V30 56 1 22 54
M  V30 57 1 23 55
M  V30 58 1 23 56
M  V30 END BOND
M  V30 END CTAB
M  END
