
     RDKit          3D

  0  0  0  0  0  0  0  0  0  0999 V3000
M  V30 BEGIN CTAB
M  V30 COUNTS 40 42 0 0 0
M  V30 BEGIN ATOM
M  V30 1 N -3.30277 -1.59435 2.44819 0
M  V30 2 C -2.2405 -1.41271 2.00506 0
M  V30 3 C -0.911633 -1.16548 1.47042 0
M  V30 4 C 0.116222 -2.06386 1.65293 0
M  V30 5 N -0.138312 -3.24996 2.3752 0
M  V30 6 N 1.36325 -1.8176 1.14521 0
M  V30 7 C 1.63949 -0.719715 0.463867 0
M  V30 8 C 0.634073 0.201153 0.262352 0
M  V30 9 C -0.640722 -0.0124929 0.760348 0
M  V30 10 C -1.71074 0.938509 0.55233 0
M  V30 11 C -1.91149 2.14883 1.17062 0
M  V30 12 C -3.06981 2.67693 0.619719 0
M  V30 13 N -3.5218 1.79765 -0.287788 0
M  V30 14 C -2.72746 0.725311 -0.362711 0
M  V30 15 C -2.88212 -0.478129 -1.24774 0
M  V30 16 C -4.7207 1.92603 -1.12904 0
M  V30 17 C -3.68591 3.94405 0.953365 0
M  V30 18 N -4.19721 4.95717 1.21242 0
M  V30 19 C 2.95186 -0.394125 -0.105509 0
M  V30 20 S 3.40844 1.01849 -0.993563 0
M  V30 21 C 5.04331 0.62228 -1.2827 0
M  V30 22 N 5.15317 -0.55652 -0.691941 0
M  V30 23 C 4.13488 -1.08885 -0.0990565 0
M  V30 24 C 4.22083 -2.44041 0.591491 0
M  V30 25 N 6.06934 1.33364 -1.97496 0
M  V30 26 H -0.354187 -4.15329 1.9125 0
M  V30 27 H -0.120035 -3.26764 3.42572 0
M  V30 28 H 0.830834 1.11407 -0.294746 0
M  V30 29 H -1.31243 2.627 1.93478 0
M  V30 30 H -3.64941 -1.17539 -0.848688 0
M  V30 31 H -1.92326 -1.04295 -1.21748 0
M  V30 32 H -3.13278 -0.197972 -2.289 0
M  V30 33 H -5.26891 0.984884 -1.14877 0
M  V30 34 H -4.33613 2.24383 -2.11741 0
M  V30 35 H -5.36402 2.70429 -0.675375 0
M  V30 36 H 5.1522 -2.96554 0.34726 0
M  V30 37 H 3.3941 -3.10838 0.224195 0
M  V30 38 H 4.11599 -2.24783 1.66531 0
M  V30 39 H 5.87553 1.78686 -2.88735 0
M  V30 40 H 7.01882 1.40223 -1.56617 0
M  V30 END ATOM
M  V30 BEGIN BOND
M  V30 1 3 1 2
M  V30 2 1 2 3
M  V30 3 2 3 4
M  V30 4 1 4 5
M  V30 5 1 4 6
M  V30 6 2 6 7
M  V30 7 1 7 8
M  V30 8 2 8 9
M  V30 9 1 9 10
M  V30 10 1 10 11
M  V30 11 2 11 12
M  V30 12 1 12 13
M  V30 13 1 13 14
M  V30 14 1 14 15
M  V30 15 1 13 16
M  V30 16 1 12 17
M  V30 17 3 17 18
M  V30 18 1 7 19
M  V30 19 1 19 20
M  V30 20 1 20 21
M  V30 21 2 21 22
M  V30 22 1 22 23
M  V30 23 1 23 24
M  V30 24 1 21 25
M  V30 25 1 9 3
M  V30 26 2 14 10
M  V30 27 2 23 19
M  V30 28 1 5 26
M  V30 29 1 5 27
M  V30 30 1 8 28
M  V30 31 1 11 29
M  V30 32 1 15 30
M  V30 33 1 15 31
M  V30 34 1 15 32
M  V30 35 1 16 33
M  V30 36 1 16 34
M  V30 37 1 16 35
M  V30 38 1 24 36
M  V30 39 1 24 37
M  V30 40 1 24 38
M  V30 41 1 25 39
M  V30 42 1 25 40
M  V30 END BOND
M  V30 END CTAB
M  END
