
     RDKit          3D

  0  0  0  0  0  0  0  0  0  0999 V3000
M  V30 BEGIN CTAB
M  V30 COUNTS 28 28 0 0 0
M  V30 BEGIN ATOM
M  V30 1 C 3.83519 0.12635 -0.592377 0
M  V30 2 O 2.70666 0.901607 -0.667249 0
M  V30 3 C 2.10137 1.17144 0.536782 0
M  V30 4 C 1.63769 -0.0678534 1.28623 0
M  V30 5 N 0.689352 -0.829118 0.542193 0
M  V30 6 C -0.635847 -0.491974 0.230472 0
M  V30 7 C -1.28418 0.64047 0.720591 0
M  V30 8 C -2.6093 0.933154 0.403197 0
M  V30 9 N -3.23062 2.09093 0.919494 0
M  V30 10 C -3.3264 0.093659 -0.418942 0
M  V30 11 C -2.71946 -1.03232 -0.920071 0
M  V30 12 C -1.3938 -1.30123 -0.587311 0
M  V30 13 N -0.779394 -2.47217 -1.11565 0
M  V30 14 H 3.65721 -0.864548 -0.164895 0
M  V30 15 H 4.32017 0.0603577 -1.59629 0
M  V30 16 H 4.55569 0.662077 0.0739642 0
M  V30 17 H 2.86227 1.73403 1.15557 0
M  V30 18 H 1.2521 1.81854 0.349242 0
M  V30 19 H 1.26033 0.216309 2.2985 0
M  V30 20 H 2.53522 -0.678838 1.48402 0
M  V30 21 H 1.03559 -1.77101 0.180219 0
M  V30 22 H -0.773709 1.30982 1.36693 0
M  V30 23 H -3.3673 2.93146 0.344945 0
M  V30 24 H -3.55635 2.09372 1.89978 0
M  V30 25 H -4.35462 0.301682 -0.677642 0
M  V30 26 H -3.25637 -1.71864 -1.57303 0
M  V30 27 H -1.13739 -3.38327 -0.759884 0
M  V30 28 H -0.0240859 -2.47465 -1.80837 0
M  V30 END ATOM
M  V30 BEGIN BOND
M  V30 1 1 1 2
M  V30 2 1 2 3
M  V30 3 1 3 4
M  V30 4 1 4 5
M  V30 5 1 5 6
M  V30 6 2 6 7
M  V30 7 1 7 8
M  V30 8 1 8 9
M  V30 9 2 8 10
M  V30 10 1 10 11
M  V30 11 2 11 12
M  V30 12 1 12 13
M  V30 13 1 12 6
M  V30 14 1 1 14
M  V30 15 1 1 15
M  V30 16 1 1 16
M  V30 17 1 3 17
M  V30 18 1 3 18
M  V30 19 1 4 19
M  V30 20 1 4 20
M  V30 21 1 5 21
M  V30 22 1 7 22
M  V30 23 1 9 23
M  V30 24 1 9 24
M  V30 25 1 10 25
M  V30 26 1 11 26
M  V30 27 1 13 27
M  V30 28 1 13 28
M  V30 END BOND
M  V30 END CTAB
M  END
