
     RDKit          3D

  0  0  0  0  0  0  0  0  0  0999 V3000
M  V30 BEGIN CTAB
M  V30 COUNTS 25 25 0 0 0
M  V30 BEGIN ATOM
M  V30 1 C -2.79471 1.76603 -0.0932645 0
M  V30 2 C -1.94029 0.537239 -0.299885 0
M  V30 3 C -1.14887 0.192385 0.931829 0
M  V30 4 C -0.317066 -1.01095 0.709616 0
M  V30 5 C -0.69635 -2.31754 1.06488 0
M  V30 6 C 0.326776 -3.11618 0.64599 0
M  V30 7 O 1.23508 -2.38183 0.0962168 0
M  V30 8 C 0.911108 -1.10628 0.102705 0
M  V30 9 C 1.7581 -0.0631934 -0.447324 0
M  V30 10 N 1.50435 1.18846 -0.447089 0
M  V30 11 N 2.37205 2.11531 -0.996567 0
M  V30 12 N 3.00944 -0.443987 -1.05829 0
M  V30 13 H -3.54418 1.54274 0.706652 0
M  V30 14 H -2.12824 2.61314 0.176243 0
M  V30 15 H -3.27192 1.98094 -1.07355 0
M  V30 16 H -1.28785 0.627185 -1.17496 0
M  V30 17 H -2.63419 -0.333503 -0.461893 0
M  V30 18 H -0.487783 1.07146 1.18161 0
M  V30 19 H -1.8031 0.0712966 1.82146 0
M  V30 20 H -1.62546 -2.55712 1.56673 0
M  V30 21 H 0.341433 -4.20192 0.772841 0
M  V30 22 H 3.39348 2.02476 -0.893969 0
M  V30 23 H 1.98673 2.91666 -1.52089 0
M  V30 24 H 3.60368 -1.12823 -0.588175 0
M  V30 25 H 3.23778 0.0131209 -1.9635 0
M  V30 END ATOM
M  V30 BEGIN BOND
M  V30 1 1 1 2
M  V30 2 1 2 3
M  V30 3 1 3 4
M  V30 4 1 4 5
M  V30 5 2 5 6
M  V30 6 1 6 7
M  V30 7 1 7 8
M  V30 8 1 8 9
M  V30 9 2 9 10
M  V30 10 1 10 11
M  V30 11 1 9 12
M  V30 12 2 8 4
M  V30 13 1 1 13
M  V30 14 1 1 14
M  V30 15 1 1 15
M  V30 16 1 2 16
M  V30 17 1 2 17
M  V30 18 1 3 18
M  V30 19 1 3 19
M  V30 20 1 5 20
M  V30 21 1 6 21
M  V30 22 1 11 22
M  V30 23 1 11 23
M  V30 24 1 12 24
M  V30 25 1 12 25
M  V30 END BOND
M  V30 END CTAB
M  END
