
     RDKit          3D

  0  0  0  0  0  0  0  0  0  0999 V3000
M  V30 BEGIN CTAB
M  V30 COUNTS 32 33 0 0 0
M  V30 BEGIN ATOM
M  V30 1 O -1.72465 1.0414 1.90637 0
M  V30 2 C -1.19113 0.498499 0.927249 0
M  V30 3 N -1.92095 -0.0987865 -0.0982465 0
M  V30 4 C -3.31312 -0.213452 -0.250901 0
M  V30 5 C -4.26123 0.384506 0.547559 0
M  V30 6 C -5.63656 0.212499 0.338578 0
M  V30 7 C -6.07814 -0.570046 -0.685664 0
M  V30 8 C -5.17123 -1.17772 -1.49685 0
M  V30 9 C -3.83839 -1.00405 -1.28494 0
M  V30 10 C 0.3321 0.515422 0.897397 0
M  V30 11 O 0.719165 -0.129147 -0.255451 0
M  V30 12 N 1.9009 -0.407888 -0.792619 0
M  V30 13 C 3.02102 -0.0502886 -0.286537 0
M  V30 14 C 4.30533 -0.390847 -0.931768 0
M  V30 15 N 4.53015 -1.0672 -2.05171 0
M  V30 16 O 5.81756 -1.14746 -2.27213 0
M  V30 17 N 6.44082 -0.531382 -1.30948 0
M  V30 18 C 5.53153 -0.029779 -0.42735 0
M  V30 19 N 5.83366 0.701366 0.745479 0
M  V30 20 N 2.99303 0.689101 0.922819 0
M  V30 21 H -1.34689 -0.535105 -0.894701 0
M  V30 22 H -3.94899 1.02249 1.37384 0
M  V30 23 H -6.32333 0.726415 1.02356 0
M  V30 24 H -7.14257 -0.67804 -0.814121 0
M  V30 25 H -5.50261 -1.81305 -2.32898 0
M  V30 26 H -3.12926 -1.49641 -1.94067 0
M  V30 27 H 0.655914 0.0647134 1.85148 0
M  V30 28 H 0.561574 1.6095 0.926244 0
M  V30 29 H 5.86831 0.259372 1.70335 0
M  V30 30 H 6.0455 1.73915 0.745562 0
M  V30 31 H 2.93726 1.72477 0.996131 0
M  V30 32 H 3.03525 0.151451 1.81239 0
M  V30 END ATOM
M  V30 BEGIN BOND
M  V30 1 2 1 2
M  V30 2 1 2 3
M  V30 3 1 3 4
M  V30 4 2 4 5
M  V30 5 1 5 6
M  V30 6 2 6 7
M  V30 7 1 7 8
M  V30 8 2 8 9
M  V30 9 1 2 10
M  V30 10 1 10 11
M  V30 11 1 11 12
M  V30 12 2 12 13
M  V30 13 1 13 14
M  V30 14 2 14 15
M  V30 15 1 15 16
M  V30 16 1 16 17
M  V30 17 2 17 18
M  V30 18 1 18 19
M  V30 19 1 13 20
M  V30 20 1 9 4
M  V30 21 1 18 14
M  V30 22 1 3 21
M  V30 23 1 5 22
M  V30 24 1 6 23
M  V30 25 1 7 24
M  V30 26 1 8 25
M  V30 27 1 9 26
M  V30 28 1 10 27
M  V30 29 1 10 28
M  V30 30 1 19 29
M  V30 31 1 19 30
M  V30 32 1 20 31
M  V30 33 1 20 32
M  V30 END BOND
M  V30 END CTAB
M  END
