
     RDKit          3D

  0  0  0  0  0  0  0  0  0  0999 V3000
M  V30 BEGIN CTAB
M  V30 COUNTS 27 28 0 0 0
M  V30 BEGIN ATOM
M  V30 1 N 5.22909 0.242833 1.70148 0
M  V30 2 N 3.86628 0.239205 1.4514 0
M  V30 3 C 3.39814 -0.163497 0.181577 0
M  V30 4 O 4.18292 -0.514045 -0.714377 0
M  V30 5 C 1.94613 -0.171933 -0.0983339 0
M  V30 6 S 0.647828 0.255489 0.934184 0
M  V30 7 C -0.654439 -0.0277153 -0.129705 0
M  V30 8 C -0.0324586 -0.45019 -1.26641 0
M  V30 9 C 1.3112 -0.526207 -1.25464 0
M  V30 10 N 2.10191 -0.961213 -2.39878 0
M  V30 11 C -2.10109 0.137467 0.103425 0
M  V30 12 C -3.03046 -0.13701 -0.869132 0
M  V30 13 C -4.4008 0.0281659 -0.622617 0
M  V30 14 C -4.85501 0.471023 0.603576 0
M  V30 15 C -3.91583 0.743917 1.57318 0
M  V30 16 C -2.56053 0.579114 1.32513 0
M  V30 17 H 5.75672 -0.407717 1.08167 0
M  V30 18 H 5.63823 1.18205 1.7933 0
M  V30 19 H 3.18899 0.531619 2.19483 0
M  V30 20 H -0.647776 -0.713265 -2.15033 0
M  V30 21 H 2.19454 -0.26496 -3.15923 0
M  V30 22 H 2.5393 -1.87913 -2.46391 0
M  V30 23 H -2.67459 -0.485965 -1.83569 0
M  V30 24 H -5.12133 -0.191014 -1.39542 0
M  V30 25 H -5.91639 0.600447 0.798898 0
M  V30 26 H -4.27902 1.08879 2.52639 0
M  V30 27 H -1.81157 0.79375 2.08955 0
M  V30 END ATOM
M  V30 BEGIN BOND
M  V30 1 1 1 2
M  V30 2 1 2 3
M  V30 3 2 3 4
M  V30 4 1 3 5
M  V30 5 1 5 6
M  V30 6 1 6 7
M  V30 7 2 7 8
M  V30 8 1 8 9
M  V30 9 1 9 10
M  V30 10 1 7 11
M  V30 11 2 11 12
M  V30 12 1 12 13
M  V30 13 2 13 14
M  V30 14 1 14 15
M  V30 15 2 15 16
M  V30 16 2 9 5
M  V30 17 1 16 11
M  V30 18 1 1 17
M  V30 19 1 1 18
M  V30 20 1 2 19
M  V30 21 1 8 20
M  V30 22 1 10 21
M  V30 23 1 10 22
M  V30 24 1 12 23
M  V30 25 1 13 24
M  V30 26 1 14 25
M  V30 27 1 15 26
M  V30 28 1 16 27
M  V30 END BOND
M  V30 END CTAB
M  END
