
     RDKit          3D

  0  0  0  0  0  0  0  0  0  0999 V3000
M  V30 BEGIN CTAB
M  V30 COUNTS 19 19 0 0 0
M  V30 BEGIN ATOM
M  V30 1 N 2.82612 -0.370357 -0.837374 0
M  V30 2 C 2.19708 -0.399805 0.475155 0
M  V30 3 C 0.785417 0.0716066 0.330885 0
M  V30 4 C 0.466375 1.40828 0.455957 0
M  V30 5 C -0.838716 1.83695 0.321666 0
M  V30 6 C -1.87761 0.954227 0.0578707 0
M  V30 7 Cl -3.53133 1.53559 -0.107421 0
M  V30 8 C -1.56693 -0.384752 -0.0687128 0
M  V30 9 N -2.5779 -1.33685 -0.337345 0
M  V30 10 C -0.25256 -0.798586 0.0688306 0
M  V30 11 H 2.78439 -1.36444 -1.19145 0
M  V30 12 H 2.28304 0.272338 -1.46733 0
M  V30 13 H 2.75878 0.244322 1.18713 0
M  V30 14 H 2.19494 -1.42281 0.916133 0
M  V30 15 H 1.294 2.1021 0.664899 0
M  V30 16 H -1.07851 2.87996 0.420593 0
M  V30 17 H -2.79187 -1.61624 -1.30828 0
M  V30 18 H -3.1091 -1.75857 0.443483 0
M  V30 19 H 0.0343856 -1.85297 -0.0246934 0
M  V30 END ATOM
M  V30 BEGIN BOND
M  V30 1 1 1 2
M  V30 2 1 2 3
M  V30 3 2 3 4
M  V30 4 1 4 5
M  V30 5 2 5 6
M  V30 6 1 6 7
M  V30 7 1 6 8
M  V30 8 1 8 9
M  V30 9 2 8 10
M  V30 10 1 10 3
M  V30 11 1 1 11
M  V30 12 1 1 12
M  V30 13 1 2 13
M  V30 14 1 2 14
M  V30 15 1 4 15
M  V30 16 1 5 16
M  V30 17 1 9 17
M  V30 18 1 9 18
M  V30 19 1 10 19
M  V30 END BOND
M  V30 END CTAB
M  END
