
     RDKit          3D

  0  0  0  0  0  0  0  0  0  0999 V3000
M  V30 BEGIN CTAB
M  V30 COUNTS 22 22 0 0 0
M  V30 BEGIN ATOM
M  V30 1 F 2.95032 1.39632 1.31146 0
M  V30 2 C 2.74451 0.726102 0.121239 0
M  V30 3 C 1.29879 0.350551 0.0549945 0
M  V30 4 C 0.321332 1.3251 0.00577604 0
M  V30 5 C -1.01422 0.96373 -0.0553437 0
M  V30 6 N -2.02564 1.93474 -0.106153 0
M  V30 7 C -1.32691 -0.395541 -0.0650379 0
M  V30 8 C -0.344986 -1.36576 -0.0156276 0
M  V30 9 C 0.980411 -0.992667 0.0449735 0
M  V30 10 N 2.03436 -1.96499 0.0977362 0
M  V30 11 C -2.74784 -0.754218 -0.130144 0
M  V30 12 F 3.10805 1.49812 -0.975002 0
M  V30 13 H 3.38324 -0.179237 0.154413 0
M  V30 14 H 0.617682 2.38218 0.0157999 0
M  V30 15 H -2.70295 2.00937 0.676453 0
M  V30 16 H -2.08371 2.56666 -0.926473 0
M  V30 17 H -0.603403 -2.41484 -0.023904 0
M  V30 18 H 2.51323 -2.23227 -0.799281 0
M  V30 19 H 2.33231 -2.40512 0.984766 0
M  V30 20 H -3.29978 -0.197781 0.670546 0
M  V30 21 H -3.21051 -0.414196 -1.09406 0
M  V30 22 H -2.92427 -1.83627 0.0528729 0
M  V30 END ATOM
M  V30 BEGIN BOND
M  V30 1 1 1 2
M  V30 2 1 2 3
M  V30 3 2 3 4
M  V30 4 1 4 5
M  V30 5 1 5 6
M  V30 6 2 5 7
M  V30 7 1 7 8
M  V30 8 2 8 9
M  V30 9 1 9 10
M  V30 10 1 7 11
M  V30 11 1 2 12
M  V30 12 1 9 3
M  V30 13 1 2 13
M  V30 14 1 4 14
M  V30 15 1 6 15
M  V30 16 1 6 16
M  V30 17 1 8 17
M  V30 18 1 10 18
M  V30 19 1 10 19
M  V30 20 1 11 20
M  V30 21 1 11 21
M  V30 22 1 11 22
M  V30 END BOND
M  V30 END CTAB
M  END
