
     RDKit          3D

  0  0  0  0  0  0  0  0  0  0999 V3000
M  V30 BEGIN CTAB
M  V30 COUNTS 29 30 0 0 0
M  V30 BEGIN ATOM
M  V30 1 F -5.512 0.880437 0.322716 0
M  V30 2 C -4.15065 0.733789 0.311845 0
M  V30 3 C -3.33182 1.53845 1.07451 0
M  V30 4 C -1.97387 1.31864 1.00034 0
M  V30 5 C -1.41484 0.32418 0.19103 0
M  V30 6 C -2.27197 -0.454311 -0.552365 0
M  V30 7 C -3.64932 -0.279144 -0.518281 0
M  V30 8 N -4.52122 -1.0847 -1.28623 0
M  V30 9 F -1.74122 -1.43147 -1.34969 0
M  V30 10 C 0.0133578 0.145853 0.159034 0
M  V30 11 C 0.841368 1.24179 0.0541643 0
M  V30 12 C 2.22899 1.10648 0.0207268 0
M  V30 13 C 2.79824 -0.137088 0.0927491 0
M  V30 14 C 1.97276 -1.25453 0.199097 0
M  V30 15 C 0.60562 -1.09806 0.230375 0
M  V30 16 S 4.5442 -0.358455 0.0543052 0
M  V30 17 O 5.22749 0.856533 0.613939 0
M  V30 18 O 4.9317 -1.61379 0.77558 0
M  V30 19 N 5.03134 -0.545084 -1.59478 0
M  V30 20 H -3.73298 2.30979 1.70499 0
M  V30 21 H -1.29787 1.94022 1.59316 0
M  V30 22 H -5.50376 -0.80507 -1.41966 0
M  V30 23 H -4.1759 -1.95494 -1.71522 0
M  V30 24 H 0.470885 2.26205 -0.00792777 0
M  V30 25 H 2.89021 1.96638 -0.0619188 0
M  V30 26 H 2.46088 -2.22876 0.2542 0
M  V30 27 H 0.0140497 -2.01458 0.315234 0
M  V30 28 H 4.79096 -1.49249 -1.97067 0
M  V30 29 H 4.45537 0.127874 -2.18002 0
M  V30 END ATOM
M  V30 BEGIN BOND
M  V30 1 1 1 2
M  V30 2 2 2 3
M  V30 3 1 3 4
M  V30 4 2 4 5
M  V30 5 1 5 6
M  V30 6 2 6 7
M  V30 7 1 7 8
M  V30 8 1 6 9
M  V30 9 1 5 10
M  V30 10 2 10 11
M  V30 11 1 11 12
M  V30 12 2 12 13
M  V30 13 1 13 14
M  V30 14 2 14 15
M  V30 15 1 13 16
M  V30 16 2 16 17
M  V30 17 2 16 18
M  V30 18 1 16 19
M  V30 19 1 7 2
M  V30 20 1 15 10
M  V30 21 1 3 20
M  V30 22 1 4 21
M  V30 23 1 8 22
M  V30 24 1 8 23
M  V30 25 1 11 24
M  V30 26 1 12 25
M  V30 27 1 14 26
M  V30 28 1 15 27
M  V30 29 1 19 28
M  V30 30 1 19 29
M  V30 END BOND
M  V30 END CTAB
M  END
