
     RDKit          3D

  0  0  0  0  0  0  0  0  0  0999 V3000
M  V30 BEGIN CTAB
M  V30 COUNTS 31 32 0 0 0
M  V30 BEGIN ATOM
M  V30 1 O -2.01374 1.60681 -1.75935 0
M  V30 2 C -2.4579 0.882662 -0.834282 0
M  V30 3 C -3.76114 1.22837 -0.187871 0
M  V30 4 O -4.41528 0.0347457 0.16592 0
M  V30 5 C -3.56914 -0.667516 1.01328 0
M  V30 6 C -2.45298 -1.3399 0.223799 0
M  V30 7 N -1.72862 -0.232288 -0.423057 0
M  V30 8 C -0.325313 -0.287093 -0.616711 0
M  V30 9 C 0.178753 -1.13355 -1.58175 0
M  V30 10 C 1.54961 -1.1788 -1.72877 0
M  V30 11 C 2.37148 -0.394489 -0.926351 0
M  V30 12 C 1.85633 0.447645 0.0341088 0
M  V30 13 C 0.481363 0.491509 0.17922 0
M  V30 14 S 2.89192 1.42472 1.07957 0
M  V30 15 O 3.76708 2.34382 0.291035 0
M  V30 16 O 2.04066 2.2273 2.00088 0
M  V30 17 N 3.8613 0.351046 2.06218 0
M  V30 18 N 3.79375 -0.430113 -1.06781 0
M  V30 19 H -4.3981 1.87397 -0.821841 0
M  V30 20 H -3.5641 1.74499 0.787664 0
M  V30 21 H -4.09961 -1.43202 1.6222 0
M  V30 22 H -3.07867 0.0652286 1.72203 0
M  V30 23 H -2.88475 -2.03389 -0.519204 0
M  V30 24 H -1.79625 -1.83325 0.967168 0
M  V30 25 H -0.482954 -1.74146 -2.20367 0
M  V30 26 H 1.98176 -1.8228 -2.47602 0
M  V30 27 H 0.110983 1.16922 0.949846 0
M  V30 28 H 3.23869 -0.0672937 2.82294 0
M  V30 29 H 4.25922 -0.406391 1.46497 0
M  V30 30 H 4.30243 -1.32512 -0.978127 0
M  V30 31 H 4.34323 0.43392 -1.26199 0
M  V30 END ATOM
M  V30 BEGIN BOND
M  V30 1 2 1 2
M  V30 2 1 2 3
M  V30 3 1 3 4
M  V30 4 1 4 5
M  V30 5 1 5 6
M  V30 6 1 6 7
M  V30 7 1 7 8
M  V30 8 2 8 9
M  V30 9 1 9 10
M  V30 10 2 10 11
M  V30 11 1 11 12
M  V30 12 2 12 13
M  V30 13 1 12 14
M  V30 14 2 14 15
M  V30 15 2 14 16
M  V30 16 1 14 17
M  V30 17 1 11 18
M  V30 18 1 7 2
M  V30 19 1 13 8
M  V30 20 1 3 19
M  V30 21 1 3 20
M  V30 22 1 5 21
M  V30 23 1 5 22
M  V30 24 1 6 23
M  V30 25 1 6 24
M  V30 26 1 9 25
M  V30 27 1 10 26
M  V30 28 1 13 27
M  V30 29 1 17 28
M  V30 30 1 17 29
M  V30 31 1 18 30
M  V30 32 1 18 31
M  V30 END BOND
M  V30 END CTAB
M  END
