
     RDKit          3D

  0  0  0  0  0  0  0  0  0  0999 V3000
M  V30 BEGIN CTAB
M  V30 COUNTS 42 44 0 0 0
M  V30 BEGIN ATOM
M  V30 1 C -2.22501 -1.18118 3.25457 0
M  V30 2 O -1.81238 -0.692277 1.99394 0
M  V30 3 C -2.77157 -0.268193 1.09554 0
M  V30 4 C -2.36266 0.202443 -0.119726 0
M  V30 5 C -3.39659 0.612912 -0.973663 0
M  V30 6 C -4.71825 0.56316 -0.655836 0
M  V30 7 C -5.09577 0.0796199 0.58644 0
M  V30 8 C -4.12488 -0.326353 1.43869 0
M  V30 9 C -5.73434 1.00649 -1.59309 0
M  V30 10 N -7.10522 0.942558 -1.23308 0
M  V30 11 N -5.36837 1.45428 -2.74603 0
M  V30 12 C -0.999332 0.298107 -0.556336 0
M  V30 13 C 0.167497 -0.0268124 0.0681383 0
M  V30 14 C 1.18719 0.264489 -0.797614 0
M  V30 15 N 0.613438 0.752184 -1.90931 0
M  V30 16 O -0.665967 0.772916 -1.77074 0
M  V30 17 C 2.6301 0.10124 -0.610704 0
M  V30 18 C 3.16336 -0.406071 0.555245 0
M  V30 19 C 4.53495 -0.553347 0.713554 0
M  V30 20 C 5.43284 -0.202506 -0.280339 0
M  V30 21 C 4.88969 0.30423 -1.44341 0
M  V30 22 C 3.51673 0.45296 -1.60509 0
M  V30 23 C 6.87149 -0.361279 -0.103731 0
M  V30 24 N 7.41089 -0.882889 1.09629 0
M  V30 25 N 7.66773 -0.0262569 -1.04368 0
M  V30 26 H -1.36722 -1.54675 3.84979 0
M  V30 27 H -2.74316 -0.423369 3.86079 0
M  V30 28 H -2.97432 -2.01077 3.09459 0
M  V30 29 H -3.15389 1.0045 -1.97037 0
M  V30 30 H -6.14204 0.0318652 0.858577 0
M  V30 31 H -4.39177 -0.709071 2.41722 0
M  V30 32 H -7.37614 1.27612 -0.291164 0
M  V30 33 H -7.8526 0.578879 -1.8639 0
M  V30 34 H -6.10305 1.77114 -3.41464 0
M  V30 35 H 0.296959 -0.430275 1.03894 0
M  V30 36 H 2.49559 -0.689999 1.35087 0
M  V30 37 H 4.95896 -0.954965 1.63632 0
M  V30 38 H 5.56744 0.585727 -2.23455 0
M  V30 39 H 3.11115 0.854857 -2.53126 0
M  V30 40 H 8.22144 -0.384103 1.54973 0
M  V30 41 H 7.05885 -1.73978 1.57314 0
M  V30 42 H 8.68827 -0.0944327 -1.02748 0
M  V30 END ATOM
M  V30 BEGIN BOND
M  V30 1 1 1 2
M  V30 2 1 2 3
M  V30 3 2 3 4
M  V30 4 1 4 5
M  V30 5 2 5 6
M  V30 6 1 6 7
M  V30 7 2 7 8
M  V30 8 1 6 9
M  V30 9 1 9 10
M  V30 10 2 9 11 CFG=2
M  V30 11 1 4 12
M  V30 12 2 12 13
M  V30 13 1 13 14
M  V30 14 2 14 15
M  V30 15 1 15 16
M  V30 16 1 14 17
M  V30 17 2 17 18
M  V30 18 1 18 19
M  V30 19 2 19 20
M  V30 20 1 20 21
M  V30 21 2 21 22
M  V30 22 1 20 23
M  V30 23 1 23 24
M  V30 24 2 23 25 CFG=2
M  V30 25 1 8 3
M  V30 26 1 16 12
M  V30 27 1 22 17
M  V30 28 1 1 26
M  V30 29 1 1 27
M  V30 30 1 1 28
M  V30 31 1 5 29
M  V30 32 1 7 30
M  V30 33 1 8 31
M  V30 34 1 10 32
M  V30 35 1 10 33
M  V30 36 1 11 34
M  V30 37 1 13 35
M  V30 38 1 18 36
M  V30 39 1 19 37
M  V30 40 1 21 38
M  V30 41 1 22 39
M  V30 42 1 24 40
M  V30 43 1 24 41
M  V30 44 1 25 42
M  V30 END BOND
M  V30 END CTAB
M  END
