
     RDKit          3D

  0  0  0  0  0  0  0  0  0  0999 V3000
M  V30 BEGIN CTAB
M  V30 COUNTS 37 39 0 0 0
M  V30 BEGIN ATOM
M  V30 1 N -6.03303 -0.146946 -0.115136 0
M  V30 2 C -4.63943 -0.0326857 0.064852 0
M  V30 3 C -3.95411 -0.798203 0.993034 0
M  V30 4 C -2.59694 -0.720811 1.20294 0
M  V30 5 C -1.83832 0.180426 0.443539 0
M  V30 6 C -2.54951 0.928592 -0.472494 0
M  V30 7 N -3.88296 0.825005 -0.650549 0
M  V30 8 C -0.381183 0.287771 0.641725 0 CFG=2
M  V30 9 C 0.138389 1.70375 0.624889 0
M  V30 10 C 1.61446 1.81595 0.780651 0
M  V30 11 N 2.34134 0.584248 0.565011 0
M  V30 12 C 1.77733 -0.406749 -0.269612 0
M  V30 13 C 0.408471 -0.587336 -0.253478 0
M  V30 14 C -0.171858 -1.54238 -1.04756 0
M  V30 15 C 0.636192 -2.33327 -1.87557 0
M  V30 16 C 2.01022 -2.13737 -1.87882 0
M  V30 17 C 2.61031 -1.17878 -1.0842 0
M  V30 18 S 3.89095 0.300135 1.29243 0
M  V30 19 O 4.35184 -1.10094 1.19198 0
M  V30 20 O 3.6467 0.538003 2.79204 0
M  V30 21 N 5.08133 1.37681 0.818515 0
M  V30 22 H -6.58168 0.640042 -0.499762 0
M  V30 23 H -6.51621 -1.02393 0.138226 0
M  V30 24 H -4.55332 -1.49444 1.57689 0
M  V30 25 H -2.06489 -1.31949 1.928 0
M  V30 26 H -1.9621 1.63698 -1.07299 0
M  V30 27 H -0.182526 -0.0827416 1.69182 0
M  V30 28 H -0.370342 2.27561 1.42777 0
M  V30 29 H -0.145669 2.15266 -0.348567 0
M  V30 30 H 1.83567 2.12148 1.83421 0
M  V30 31 H 2.02132 2.64433 0.152176 0
M  V30 32 H -1.2481 -1.68983 -1.03969 0
M  V30 33 H 0.164121 -3.06687 -2.48192 0
M  V30 34 H 2.64413 -2.7291 -2.50232 0
M  V30 35 H 3.68691 -0.993204 -1.06353 0
M  V30 36 H 5.96704 1.02493 0.493644 0
M  V30 37 H 4.84547 2.34834 0.686582 0
M  V30 END ATOM
M  V30 BEGIN BOND
M  V30 1 1 1 2
M  V30 2 2 2 3
M  V30 3 1 3 4
M  V30 4 2 4 5
M  V30 5 1 5 6
M  V30 6 2 6 7
M  V30 7 1 5 8
M  V30 8 1 8 9
M  V30 9 1 9 10
M  V30 10 1 10 11
M  V30 11 1 11 12
M  V30 12 2 12 13
M  V30 13 1 13 14
M  V30 14 2 14 15
M  V30 15 1 15 16
M  V30 16 2 16 17
M  V30 17 1 11 18
M  V30 18 2 18 19
M  V30 19 2 18 20
M  V30 20 1 18 21
M  V30 21 1 7 2
M  V30 22 1 13 8
M  V30 23 1 17 12
M  V30 24 1 1 22
M  V30 25 1 1 23
M  V30 26 1 3 24
M  V30 27 1 4 25
M  V30 28 1 6 26
M  V30 29 1 8 27 CFG=1
M  V30 30 1 9 28
M  V30 31 1 9 29
M  V30 32 1 10 30
M  V30 33 1 10 31
M  V30 34 1 14 32
M  V30 35 1 15 33
M  V30 36 1 16 34
M  V30 37 1 17 35
M  V30 38 1 21 36
M  V30 39 1 21 37
M  V30 END BOND
M  V30 END CTAB
M  END
