
     RDKit          3D

  0  0  0  0  0  0  0  0  0  0999 V3000
M  V30 BEGIN CTAB
M  V30 COUNTS 49 52 0 0 0
M  V30 BEGIN ATOM
M  V30 1 N 7.53233 -0.393557 0.671971 0
M  V30 2 C 6.83969 0.329928 -0.305125 0 CFG=2
M  V30 3 C 5.78886 1.27555 0.281406 0
M  V30 4 C 4.83285 0.741222 -0.749427 0 CFG=1
M  V30 5 C 5.75369 -0.442361 -1.0238 0
M  V30 6 C 3.5363 0.241068 -0.223921 0
M  V30 7 C 2.32191 0.556271 -0.833398 0
M  V30 8 C 1.11915 0.0943138 -0.348538 0
M  V30 9 N -0.088744 0.438247 -0.998981 0
M  V30 10 C -1.31203 -0.0887675 -0.428313 0
M  V30 11 C -2.53133 0.339845 -1.20175 0
M  V30 12 C -3.78052 -0.185423 -0.640068 0
M  V30 13 C -4.25053 -1.48707 -0.760759 0
M  V30 14 C -3.57665 -2.59448 -1.48295 0
M  V30 15 N -5.42175 -1.54007 -0.101508 0
M  V30 16 C -5.70054 -0.327705 0.42388 0
M  V30 17 C -4.68168 0.567444 0.105804 0
M  V30 18 C -4.73654 1.87078 0.529183 0
M  V30 19 C -5.78825 2.33655 1.27523 0
M  V30 20 F -5.8918 3.60303 1.71604 0
M  V30 21 C -6.80973 1.44042 1.59458 0
M  V30 22 C -6.75285 0.134774 1.1693 0
M  V30 23 F -7.76097 -0.700549 1.49891 0
M  V30 24 N 1.17769 -0.684483 0.754813 0
M  V30 25 C 2.31579 -1.00531 1.36189 0
M  V30 26 N 3.4718 -0.550676 0.880635 0
M  V30 27 N 2.31574 -1.82244 2.5117 0
M  V30 28 H 8.47021 -0.601309 0.458318 0
M  V30 29 H 7.02277 -0.92928 1.30873 0
M  V30 30 H 7.47835 0.842724 -1.05637 0
M  V30 31 H 5.50073 1.02455 1.32526 0
M  V30 32 H 6.01583 2.34336 0.0895521 0
M  V30 33 H 4.68072 1.38334 -1.64845 0
M  V30 34 H 5.46588 -1.38017 -0.510269 0
M  V30 35 H 5.93553 -0.635071 -2.08956 0
M  V30 36 H 2.38619 1.18611 -1.71062 0
M  V30 37 H -0.0390923 1.04382 -1.84214 0
M  V30 38 H -1.33972 0.262417 0.627415 0
M  V30 39 H -1.22782 -1.19453 -0.473219 0
M  V30 40 H -2.43586 -0.0447044 -2.23685 0
M  V30 41 H -2.56648 1.45075 -1.28759 0
M  V30 42 H -2.86233 -2.24413 -2.23397 0
M  V30 43 H -3.10471 -3.26402 -0.706538 0
M  V30 44 H -4.30811 -3.24576 -2.01756 0
M  V30 45 H -5.99116 -2.41684 -0.0374662 0
M  V30 46 H -3.94538 2.54949 0.276869 0
M  V30 47 H -7.65923 1.76493 2.18173 0
M  V30 48 H 1.83042 -2.76018 2.49159 0
M  V30 49 H 2.7714 -1.56954 3.41435 0
M  V30 END ATOM
M  V30 BEGIN BOND
M  V30 1 1 1 2
M  V30 2 1 2 3
M  V30 3 1 3 4
M  V30 4 1 4 5
M  V30 5 1 4 6
M  V30 6 2 6 7
M  V30 7 1 7 8
M  V30 8 1 8 9
M  V30 9 1 9 10
M  V30 10 1 10 11
M  V30 11 1 11 12
M  V30 12 2 12 13
M  V30 13 1 13 14
M  V30 14 1 13 15
M  V30 15 1 15 16
M  V30 16 2 16 17
M  V30 17 1 17 18
M  V30 18 2 18 19
M  V30 19 1 19 20
M  V30 20 1 19 21
M  V30 21 2 21 22
M  V30 22 1 22 23
M  V30 23 2 8 24
M  V30 24 1 24 25
M  V30 25 2 25 26
M  V30 26 1 25 27
M  V30 27 1 5 2
M  V30 28 1 26 6
M  V30 29 1 17 12
M  V30 30 1 22 16
M  V30 31 1 1 28
M  V30 32 1 1 29
M  V30 33 1 2 30 CFG=3
M  V30 34 1 3 31
M  V30 35 1 3 32
M  V30 36 1 4 33 CFG=3
M  V30 37 1 5 34
M  V30 38 1 5 35
M  V30 39 1 7 36
M  V30 40 1 9 37
M  V30 41 1 10 38
M  V30 42 1 10 39
M  V30 43 1 11 40
M  V30 44 1 11 41
M  V30 45 1 14 42
M  V30 46 1 14 43
M  V30 47 1 14 44
M  V30 48 1 15 45
M  V30 49 1 18 46
M  V30 50 1 21 47
M  V30 51 1 27 48
M  V30 52 1 27 49
M  V30 END BOND
M  V30 END CTAB
M  END
