
     RDKit          3D

  0  0  0  0  0  0  0  0  0  0999 V3000
M  V30 BEGIN CTAB
M  V30 COUNTS 18 18 0 0 0
M  V30 BEGIN ATOM
M  V30 1 N 3.19089 -0.0474901 0.148525 0
M  V30 2 C 1.80282 -0.296735 -0.0145139 0
M  V30 3 N 1.37304 -1.48516 -0.478434 0
M  V30 4 C 0.0586199 -1.74304 -0.64095 0
M  V30 5 C -0.870973 -0.761763 -0.322942 0
M  V30 6 C -0.448934 0.459651 0.152782 0
M  V30 7 C 0.913453 0.7048 0.313028 0
M  V30 8 F 1.30267 1.91867 0.784386 0
M  V30 9 C -1.43943 1.48749 0.482686 0
M  V30 10 F -0.766111 2.62902 0.947254 0
M  V30 11 F -2.31919 1.14164 1.46569 0
M  V30 12 F -2.11035 1.95748 -0.657557 0
M  V30 13 N -2.24849 -1.04835 -0.497329 0
M  V30 14 H 3.9332 -0.455251 -0.458799 0
M  V30 15 H 3.5045 0.585804 0.926009 0
M  V30 16 H -0.301655 -2.68934 -1.01124 0
M  V30 17 H -2.5694 -2.017 -0.729152 0
M  V30 18 H -3.00465 -0.340415 -0.409445 0
M  V30 END ATOM
M  V30 BEGIN BOND
M  V30 1 1 1 2
M  V30 2 2 2 3
M  V30 3 1 3 4
M  V30 4 2 4 5
M  V30 5 1 5 6
M  V30 6 2 6 7
M  V30 7 1 7 8
M  V30 8 1 6 9
M  V30 9 1 9 10
M  V30 10 1 9 11
M  V30 11 1 9 12
M  V30 12 1 5 13
M  V30 13 1 7 2
M  V30 14 1 1 14
M  V30 15 1 1 15
M  V30 16 1 4 16
M  V30 17 1 13 17
M  V30 18 1 13 18
M  V30 END BOND
M  V30 END CTAB
M  END
