
     RDKit          3D

  0  0  0  0  0  0  0  0  0  0999 V3000
M  V30 BEGIN CTAB
M  V30 COUNTS 38 39 0 0 0
M  V30 BEGIN ATOM
M  V30 1 N 4.60937 -1.53165 -1.73336 0
M  V30 2 C 4.80332 -0.156782 -2.07325 0
M  V30 3 C 5.37049 0.645212 -0.911834 0
M  V30 4 C 4.39083 0.546154 0.223663 0
M  V30 5 S 4.28699 -0.592735 1.49225 0
M  V30 6 C 2.90575 0.0338403 2.28464 0
M  V30 7 C 2.60649 1.11438 1.49322 0
M  V30 8 N 3.36786 1.34328 0.471777 0
M  V30 9 C 1.395 1.97015 1.82628 0
M  V30 10 C 0.293797 1.47504 0.938279 0
M  V30 11 O 0.414022 1.66811 -0.290912 0
M  V30 12 N -0.829124 0.817702 1.45064 0
M  V30 13 C -1.91432 0.321322 0.681539 0
M  V30 14 C -2.63796 -0.776188 1.19254 0
M  V30 15 C -3.70194 -1.30541 0.510316 0
M  V30 16 C -4.10633 -0.784601 -0.701565 0
M  V30 17 C -3.39751 0.274478 -1.17726 0
M  V30 18 C -2.31344 0.840597 -0.518641 0
M  V30 19 S -5.43787 -1.49262 -1.55293 0
M  V30 20 O -5.3756 -2.97634 -1.54626 0
M  V30 21 O -5.40329 -0.967872 -2.97045 0
M  V30 22 N -6.90831 -0.867441 -0.864858 0
M  V30 23 H 5.21526 -2.11297 -2.35631 0
M  V30 24 H 3.6308 -1.84343 -1.8793 0
M  V30 25 H 5.43934 -0.0407225 -2.9527 0
M  V30 26 H 3.79898 0.307685 -2.25987 0
M  V30 27 H 6.3491 0.296764 -0.591769 0
M  V30 28 H 5.40704 1.69515 -1.25874 0
M  V30 29 H 2.37611 -0.316752 3.19005 0
M  V30 30 H 1.60457 3.04119 1.61991 0
M  V30 31 H 1.11468 1.88224 2.88344 0
M  V30 32 H -0.886687 0.669123 2.50025 0
M  V30 33 H -2.303 -1.16591 2.14765 0
M  V30 34 H -4.21718 -2.15671 0.962839 0
M  V30 35 H -3.66511 0.717433 -2.11335 0
M  V30 36 H -1.80125 1.6888 -0.943983 0
M  V30 37 H -7.69659 -1.57006 -0.96754 0
M  V30 38 H -6.78431 -0.690457 0.176109 0
M  V30 END ATOM
M  V30 BEGIN BOND
M  V30 1 1 1 2
M  V30 2 1 2 3
M  V30 3 1 3 4
M  V30 4 1 4 5
M  V30 5 1 5 6
M  V30 6 2 6 7
M  V30 7 1 7 8
M  V30 8 1 7 9
M  V30 9 1 9 10
M  V30 10 2 10 11
M  V30 11 1 10 12
M  V30 12 1 12 13
M  V30 13 2 13 14
M  V30 14 1 14 15
M  V30 15 2 15 16
M  V30 16 1 16 17
M  V30 17 2 17 18
M  V30 18 1 16 19
M  V30 19 2 19 20
M  V30 20 2 19 21
M  V30 21 1 19 22
M  V30 22 2 8 4
M  V30 23 1 18 13
M  V30 24 1 1 23
M  V30 25 1 1 24
M  V30 26 1 2 25
M  V30 27 1 2 26
M  V30 28 1 3 27
M  V30 29 1 3 28
M  V30 30 1 6 29
M  V30 31 1 9 30
M  V30 32 1 9 31
M  V30 33 1 12 32
M  V30 34 1 14 33
M  V30 35 1 15 34
M  V30 36 1 17 35
M  V30 37 1 18 36
M  V30 38 1 22 37
M  V30 39 1 22 38
M  V30 END BOND
M  V30 END CTAB
M  END
