
     RDKit          3D

  0  0  0  0  0  0  0  0  0  0999 V3000
M  V30 BEGIN CTAB
M  V30 COUNTS 50 52 0 0 0
M  V30 BEGIN ATOM
M  V30 1 N -5.23914 2.68525 0.228567 0
M  V30 2 C -4.06513 2.02175 -0.228855 0
M  V30 3 C -4.3019 0.573863 -0.606882 0
M  V30 4 C -4.81228 -0.256366 0.540779 0
M  V30 5 C -3.56969 -0.306394 1.40724 0
M  V30 6 N -2.56795 -0.639644 0.376734 0
M  V30 7 C -2.95687 -0.0412524 -0.87388 0
M  V30 8 C -1.4095 -1.439 0.562852 0
M  V30 9 O -1.13292 -1.9664 1.67951 0
M  V30 10 C -0.494979 -1.6662 -0.570998 0
M  V30 11 C 0.527808 -2.75036 -0.245545 0
M  V30 12 C 1.64644 -1.99747 0.363379 0
M  V30 13 O 2.44012 -2.46467 1.211 0
M  V30 14 N 1.62769 -0.699422 -0.191192 0
M  V30 15 C 0.353196 -0.469688 -0.801271 0
M  V30 16 C 2.69678 0.264341 -0.170296 0
M  V30 17 C 2.54575 1.55047 0.273795 0
M  V30 18 C 3.6029 2.45646 0.287033 0
M  V30 19 C 4.84965 2.07417 -0.154631 0
M  V30 20 C 5.00049 0.776541 -0.602431 0
M  V30 21 C 3.94105 -0.126081 -0.614132 0
M  V30 22 S 6.55906 0.23796 -1.16772 0
M  V30 23 O 6.34691 -0.744362 -2.27758 0
M  V30 24 O 7.32775 1.42686 -1.69394 0
M  V30 25 N 7.3908 -0.438979 0.174443 0
M  V30 26 C -3.68446 -1.37299 2.44722 0
M  V30 27 H -5.9065 2.11833 0.755841 0
M  V30 28 H -4.94406 3.48622 0.833656 0
M  V30 29 H -3.20856 2.09395 0.462446 0
M  V30 30 H -3.72786 2.51983 -1.16808 0
M  V30 31 H -4.97782 0.50001 -1.49573 0
M  V30 32 H -5.6991 0.111757 1.03683 0
M  V30 33 H -4.95788 -1.28692 0.164961 0
M  V30 34 H -3.3319 0.661789 1.89046 0
M  V30 35 H -3.03088 -0.878905 -1.62476 0
M  V30 36 H -2.21675 0.704079 -1.23881 0
M  V30 37 H -1.04809 -1.8856 -1.49924 0
M  V30 38 H 0.781361 -3.23134 -1.20872 0
M  V30 39 H 0.0251168 -3.44367 0.454438 0
M  V30 40 H -0.0770517 0.422159 -0.257803 0
M  V30 41 H 0.434906 -0.183666 -1.8774 0
M  V30 42 H 1.56803 1.85916 0.62273 0
M  V30 43 H 3.47538 3.46433 0.637867 0
M  V30 44 H 5.71131 2.73169 -0.169407 0
M  V30 45 H 4.0631 -1.14888 -0.968279 0
M  V30 46 H 7.1835 0.088292 1.04513 0
M  V30 47 H 8.40488 -0.503648 -0.0184758 0
M  V30 48 H -4.67198 -1.29152 2.93465 0
M  V30 49 H -3.56465 -2.35736 1.94623 0
M  V30 50 H -2.90607 -1.23848 3.22284 0
M  V30 END ATOM
M  V30 BEGIN BOND
M  V30 1 1 1 2
M  V30 2 1 2 3
M  V30 3 1 3 4
M  V30 4 1 4 5
M  V30 5 1 5 6
M  V30 6 1 6 7
M  V30 7 1 6 8
M  V30 8 2 8 9
M  V30 9 1 8 10
M  V30 10 1 10 11
M  V30 11 1 11 12
M  V30 12 2 12 13
M  V30 13 1 12 14
M  V30 14 1 14 15
M  V30 15 1 14 16
M  V30 16 2 16 17
M  V30 17 1 17 18
M  V30 18 2 18 19
M  V30 19 1 19 20
M  V30 20 2 20 21
M  V30 21 1 20 22
M  V30 22 2 22 23
M  V30 23 2 22 24
M  V30 24 1 22 25
M  V30 25 1 5 26
M  V30 26 1 7 3
M  V30 27 1 15 10
M  V30 28 1 21 16
M  V30 29 1 1 27
M  V30 30 1 1 28
M  V30 31 1 2 29
M  V30 32 1 2 30
M  V30 33 1 3 31
M  V30 34 1 4 32
M  V30 35 1 4 33
M  V30 36 1 5 34
M  V30 37 1 7 35
M  V30 38 1 7 36
M  V30 39 1 10 37
M  V30 40 1 11 38
M  V30 41 1 11 39
M  V30 42 1 15 40
M  V30 43 1 15 41
M  V30 44 1 17 42
M  V30 45 1 18 43
M  V30 46 1 19 44
M  V30 47 1 21 45
M  V30 48 1 25 46
M  V30 49 1 25 47
M  V30 50 1 26 48
M  V30 51 1 26 49
M  V30 52 1 26 50
M  V30 END BOND
M  V30 END CTAB
M  END
