
     RDKit          3D

  0  0  0  0  0  0  0  0  0  0999 V3000
M  V30 BEGIN CTAB
M  V30 COUNTS 19 19 0 0 0
M  V30 BEGIN ATOM
M  V30 1 F -2.00596 -0.788477 1.81702 0
M  V30 2 C -1.83738 0.0278431 0.728114 0
M  V30 3 C -0.470972 0.0274094 0.190133 0
M  V30 4 C 0.265882 1.20162 0.1161 0
M  V30 5 N -0.314885 2.41468 0.567861 0
M  V30 6 C 1.55235 1.1521 -0.399403 0
M  V30 7 C 2.12209 -0.0374098 -0.842509 0
M  V30 8 C 1.37133 -1.19636 -0.7602 0
M  V30 9 C 0.0864215 -1.15517 -0.246837 0
M  V30 10 N -0.700254 -2.33675 -0.154617 0
M  V30 11 Br 3.88629 -0.0517048 -1.5396 0
M  V30 12 F -2.78247 -0.367175 -0.226636 0
M  V30 13 H -2.12869 1.07155 1.03485 0
M  V30 14 H -0.695518 3.07143 -0.136495 0
M  V30 15 H -0.36768 2.65987 1.58496 0
M  V30 16 H 2.14959 2.03802 -0.471497 0
M  V30 17 H 1.77371 -2.14782 -1.09364 0
M  V30 18 H -1.57684 -2.50409 -0.667507 0
M  V30 19 H -0.327008 -3.07957 0.499901 0
M  V30 END ATOM
M  V30 BEGIN BOND
M  V30 1 1 1 2
M  V30 2 1 2 3
M  V30 3 2 3 4
M  V30 4 1 4 5
M  V30 5 1 4 6
M  V30 6 2 6 7
M  V30 7 1 7 8
M  V30 8 2 8 9
M  V30 9 1 9 10
M  V30 10 1 7 11
M  V30 11 1 2 12
M  V30 12 1 9 3
M  V30 13 1 2 13
M  V30 14 1 5 14
M  V30 15 1 5 15
M  V30 16 1 6 16
M  V30 17 1 8 17
M  V30 18 1 10 18
M  V30 19 1 10 19
M  V30 END BOND
M  V30 END CTAB
M  END
