
     RDKit          3D

  0  0  0  0  0  0  0  0  0  0999 V3000
M  V30 BEGIN CTAB
M  V30 COUNTS 28 29 0 0 0
M  V30 BEGIN ATOM
M  V30 1 N -5.38427 0.116386 0.466095 0
M  V30 2 C -3.97415 0.258843 0.327806 0
M  V30 3 C -3.20421 -0.879048 0.428668 0
M  V30 4 C -1.81246 -0.817105 0.303595 0
M  V30 5 N -1.05476 -2.02342 0.415412 0
M  V30 6 C -1.22306 0.39842 0.0780843 0
M  V30 7 C -1.97328 1.53912 -0.0248268 0
M  V30 8 C -3.36503 1.48027 0.0997988 0
M  V30 9 N 0.176012 0.480519 -0.0505165 0
M  V30 10 N 1.00294 -0.369673 0.33744 0
M  V30 11 C 2.38389 -0.125834 0.126461 0
M  V30 12 C 3.00331 0.821538 0.905668 0
M  V30 13 C 4.35308 1.04327 0.682157 0
M  V30 14 C 5.04461 0.331667 -0.292836 0
M  V30 15 C 4.43181 -0.608999 -1.06728 0
M  V30 16 C 3.06793 -0.829932 -0.838186 0
M  V30 17 H -5.75098 0.0558582 1.44661 0
M  V30 18 H -6.04165 0.0718529 -0.349648 0
M  V30 19 H -3.6454 -1.84332 0.605371 0
M  V30 20 H -0.545595 -2.45338 -0.376854 0
M  V30 21 H -1.01673 -2.48882 1.34352 0
M  V30 22 H -1.53488 2.53016 -0.205171 0
M  V30 23 H -3.94941 2.36778 0.0197935 0
M  V30 24 H 2.50037 1.38752 1.66531 0
M  V30 25 H 4.83663 1.77986 1.28733 0
M  V30 26 H 6.08979 0.519795 -0.448768 0
M  V30 27 H 4.97889 -1.15908 -1.82519 0
M  V30 28 H 2.60661 -1.58424 -1.46934 0
M  V30 END ATOM
M  V30 BEGIN BOND
M  V30 1 1 1 2
M  V30 2 2 2 3
M  V30 3 1 3 4
M  V30 4 1 4 5
M  V30 5 2 4 6
M  V30 6 1 6 7
M  V30 7 2 7 8
M  V30 8 1 6 9
M  V30 9 2 9 10 CFG=2
M  V30 10 1 10 11
M  V30 11 2 11 12
M  V30 12 1 12 13
M  V30 13 2 13 14
M  V30 14 1 14 15
M  V30 15 2 15 16
M  V30 16 1 8 2
M  V30 17 1 16 11
M  V30 18 1 1 17
M  V30 19 1 1 18
M  V30 20 1 3 19
M  V30 21 1 5 20
M  V30 22 1 5 21
M  V30 23 1 7 22
M  V30 24 1 8 23
M  V30 25 1 12 24
M  V30 26 1 13 25
M  V30 27 1 14 26
M  V30 28 1 15 27
M  V30 29 1 16 28
M  V30 END BOND
M  V30 END CTAB
M  END
