
     RDKit          3D

  0  0  0  0  0  0  0  0  0  0999 V3000
M  V30 BEGIN CTAB
M  V30 COUNTS 48 50 0 0 0
M  V30 BEGIN ATOM
M  V30 1 C -2.04295 -0.392226 3.25913 0
M  V30 2 O -2.14503 0.118797 1.94665 0
M  V30 3 C -1.10937 -0.0938694 1.05899 0
M  V30 4 C -1.18218 0.401023 -0.246325 0
M  V30 5 C -2.33209 1.15867 -0.675451 0
M  V30 6 C -3.52791 0.462451 -1.12828 0
M  V30 7 C -4.59127 0.284869 -0.244941 0
M  V30 8 N -5.69361 -0.385807 -0.632359 0
M  V30 9 C -5.84206 -0.914629 -1.85838 0
M  V30 10 N -7.03142 -1.62264 -2.2108 0
M  V30 11 N -4.84716 -0.758377 -2.72327 0
M  V30 12 C -3.70596 -0.0830769 -2.37326 0
M  V30 13 N -2.70216 0.115411 -3.3526 0
M  V30 14 C -0.103731 0.128576 -1.03224 0
M  V30 15 C 1.02646 -0.583387 -0.638877 0
M  V30 16 O 2.06072 -0.797185 -1.56339 0
M  V30 17 C 3.27983 -1.45829 -1.20424 0
M  V30 18 C 4.02089 -0.673339 -0.16675 0
M  V30 19 C 4.94992 -1.28568 0.638428 0
M  V30 20 C 5.62108 -0.523114 1.57389 0
M  V30 21 C 5.3952 0.831774 1.73453 0
M  V30 22 C 4.4663 1.46192 0.933826 0
M  V30 23 C 3.81578 0.658763 0.00851407 0
M  V30 24 C 4.19254 2.85634 1.02182 0
M  V30 25 O 4.79908 3.74554 1.91373 0
M  V30 26 O 3.3192 3.36516 0.230388 0
M  V30 27 C 1.06592 -1.05315 0.651044 0
M  V30 28 C -0.008621 -0.803341 1.49358 0
M  V30 29 H -2.9394 -0.128874 3.86715 0
M  V30 30 H -1.14777 -0.0122514 3.76774 0
M  V30 31 H -2.0006 -1.49045 3.2103 0
M  V30 32 H -2.68635 1.88179 0.143418 0
M  V30 33 H -2.03802 1.89961 -1.48647 0
M  V30 34 H -4.55226 0.708939 0.762606 0
M  V30 35 H -7.3601 -1.61703 -3.22614 0
M  V30 36 H -7.62023 -2.16075 -1.55908 0
M  V30 37 H -2.57708 -0.523795 -4.1802 0
M  V30 38 H -2.07187 0.922552 -3.26727 0
M  V30 39 H -0.0866964 0.494058 -2.05411 0
M  V30 40 H 3.90118 -1.69773 -2.0725 0
M  V30 41 H 3.01212 -2.42288 -0.723658 0
M  V30 42 H 5.11952 -2.33317 0.512153 0
M  V30 43 H 6.34933 -1.06422 2.17035 0
M  V30 44 H 5.93451 1.39859 2.49432 0
M  V30 45 H 3.07165 1.16016 -0.62595 0
M  V30 46 H 4.58502 3.6305 2.91475 0
M  V30 47 H 1.91114 -1.62149 1.0152 0
M  V30 48 H 0.0485217 -1.18473 2.52991 0
M  V30 END ATOM
M  V30 BEGIN BOND
M  V30 1 1 1 2
M  V30 2 1 2 3
M  V30 3 2 3 4
M  V30 4 1 4 5
M  V30 5 1 5 6
M  V30 6 2 6 7
M  V30 7 1 7 8
M  V30 8 2 8 9
M  V30 9 1 9 10
M  V30 10 1 9 11
M  V30 11 2 11 12
M  V30 12 1 12 13
M  V30 13 1 4 14
M  V30 14 2 14 15
M  V30 15 1 15 16
M  V30 16 1 16 17
M  V30 17 1 17 18
M  V30 18 2 18 19
M  V30 19 1 19 20
M  V30 20 2 20 21
M  V30 21 1 21 22
M  V30 22 2 22 23
M  V30 23 1 22 24
M  V30 24 1 24 25
M  V30 25 2 24 26
M  V30 26 1 15 27
M  V30 27 2 27 28
M  V30 28 1 28 3
M  V30 29 1 12 6
M  V30 30 1 23 18
M  V30 31 1 1 29
M  V30 32 1 1 30
M  V30 33 1 1 31
M  V30 34 1 5 32
M  V30 35 1 5 33
M  V30 36 1 7 34
M  V30 37 1 10 35
M  V30 38 1 10 36
M  V30 39 1 13 37
M  V30 40 1 13 38
M  V30 41 1 14 39
M  V30 42 1 17 40
M  V30 43 1 17 41
M  V30 44 1 19 42
M  V30 45 1 20 43
M  V30 46 1 21 44
M  V30 47 1 23 45
M  V30 48 1 25 46
M  V30 49 1 27 47
M  V30 50 1 28 48
M  V30 END BOND
M  V30 END CTAB
M  END
