
     RDKit          3D

  0  0  0  0  0  0  0  0  0  0999 V3000
M  V30 BEGIN CTAB
M  V30 COUNTS 58 60 0 0 0
M  V30 BEGIN ATOM
M  V30 1 N 0.737359 3.02881 1.23241 0
M  V30 2 C 1.53079 2.03653 1.85532 0
M  V30 3 C 2.32609 1.24271 0.844789 0
M  V30 4 C 1.70659 0.813337 -0.302345 0
M  V30 5 C 2.42975 0.0895334 -1.2224 0
M  V30 6 C 3.75872 -0.205622 -1.00438 0
M  V30 7 C 4.39521 0.220776 0.146994 0
M  V30 8 C 3.65012 0.947021 1.05884 0
M  V30 9 C 4.52442 -0.992816 -2.01839 0
M  V30 10 C 5.03947 -2.2709 -1.38995 0
M  V30 11 C 5.74253 -0.192998 -2.46648 0
M  V30 12 C 0.891894 1.13948 2.85728 0
M  V30 13 N -0.180977 0.315398 2.46282 0
M  V30 14 C -1.43692 0.719687 2.00822 0
M  V30 15 O -1.76243 1.91748 1.90832 0
M  V30 16 C -2.49866 -0.281784 1.60166 0
M  V30 17 C -1.93855 -1.07385 0.481372 0
M  V30 18 C -2.92381 -1.7871 -0.370045 0
M  V30 19 C -2.69279 -1.32113 -1.81574 0
M  V30 20 C -2.81993 0.149334 -1.96433 0
M  V30 21 C -3.83996 0.82488 -1.14721 0
M  V30 22 C -4.39728 0.0936466 0.00639881 0
M  V30 23 C -3.74793 0.456071 1.32844 0
M  V30 24 C -4.36176 -1.40576 -0.101768 0
M  V30 25 N -4.90315 -1.98694 1.08419 0
M  V30 26 H 0.905402 4.0088 1.60305 0
M  V30 27 H 0.849889 3.1123 0.195132 0
M  V30 28 H 2.34224 2.59672 2.42836 0
M  V30 29 H 0.672187 1.03847 -0.480312 0
M  V30 30 H 1.95029 -0.259479 -2.14106 0
M  V30 31 H 5.45098 -0.0178709 0.312706 0
M  V30 32 H 4.15607 1.2853 1.97224 0
M  V30 33 H 3.86911 -1.24342 -2.86653 0
M  V30 34 H 5.97275 -2.0319 -0.8373 0
M  V30 35 H 4.27703 -2.7328 -0.729884 0
M  V30 36 H 5.3199 -2.97252 -2.20021 0
M  V30 37 H 6.69348 -0.714996 -2.22692 0
M  V30 38 H 5.69035 -0.0613365 -3.5837 0
M  V30 39 H 5.75901 0.795075 -1.96717 0
M  V30 40 H 0.557455 1.78368 3.7216 0
M  V30 41 H 1.72836 0.45945 3.23073 0
M  V30 42 H -0.0534573 -0.767245 2.50294 0
M  V30 43 H -2.57321 -0.957556 2.50285 0
M  V30 44 H -1.24373 -0.406624 -0.108098 0
M  V30 45 H -1.24446 -1.85257 0.915893 0
M  V30 46 H -2.82497 -2.88639 -0.350531 0
M  V30 47 H -1.65554 -1.65232 -2.09446 0
M  V30 48 H -3.39801 -1.86516 -2.44507 0
M  V30 49 H -1.79125 0.58949 -1.80097 0
M  V30 50 H -3.00656 0.353222 -3.0618 0
M  V30 51 H -4.67392 1.2033 -1.81107 0
M  V30 52 H -3.38541 1.78254 -0.748254 0
M  V30 53 H -5.48132 0.373445 0.119787 0
M  V30 54 H -3.68523 1.55843 1.38823 0
M  V30 55 H -4.49067 0.168888 2.13115 0
M  V30 56 H -4.95736 -1.69344 -0.993944 0
M  V30 57 H -5.24722 -2.93803 0.932735 0
M  V30 58 H -5.711 -1.41252 1.41583 0
M  V30 END ATOM
M  V30 BEGIN BOND
M  V30 1 1 1 2
M  V30 2 1 2 3
M  V30 3 2 3 4
M  V30 4 1 4 5
M  V30 5 2 5 6
M  V30 6 1 6 7
M  V30 7 2 7 8
M  V30 8 1 6 9
M  V30 9 1 9 10
M  V30 10 1 9 11
M  V30 11 1 2 12
M  V30 12 1 12 13
M  V30 13 1 13 14
M  V30 14 2 14 15
M  V30 15 1 14 16
M  V30 16 1 16 17
M  V30 17 1 17 18
M  V30 18 1 18 19
M  V30 19 1 19 20
M  V30 20 1 20 21
M  V30 21 1 21 22
M  V30 22 1 22 23
M  V30 23 1 22 24
M  V30 24 1 24 25
M  V30 25 1 8 3
M  V30 26 1 23 16
M  V30 27 1 24 18
M  V30 28 1 1 26
M  V30 29 1 1 27
M  V30 30 1 2 28
M  V30 31 1 4 29
M  V30 32 1 5 30
M  V30 33 1 7 31
M  V30 34 1 8 32
M  V30 35 1 9 33
M  V30 36 1 10 34
M  V30 37 1 10 35
M  V30 38 1 10 36
M  V30 39 1 11 37
M  V30 40 1 11 38
M  V30 41 1 11 39
M  V30 42 1 12 40
M  V30 43 1 12 41
M  V30 44 1 13 42
M  V30 45 1 16 43
M  V30 46 1 17 44
M  V30 47 1 17 45
M  V30 48 1 18 46
M  V30 49 1 19 47
M  V30 50 1 19 48
M  V30 51 1 20 49
M  V30 52 1 20 50
M  V30 53 1 21 51
M  V30 54 1 21 52
M  V30 55 1 22 53
M  V30 56 1 23 54
M  V30 57 1 23 55
M  V30 58 1 24 56
M  V30 59 1 25 57
M  V30 60 1 25 58
M  V30 END BOND
M  V30 END CTAB
M  END
