
     RDKit          3D

  0  0  0  0  0  0  0  0  0  0999 V3000
M  V30 BEGIN CTAB
M  V30 COUNTS 23 23 0 0 0
M  V30 BEGIN ATOM
M  V30 1 C 3.1822 -0.301724 -0.48725 0
M  V30 2 C 2.68958 0.432368 0.710524 0
M  V30 3 O 1.43202 1.04104 0.558046 0
M  V30 4 C 0.24165 0.389062 0.285436 0
M  V30 5 C 0.110273 -0.973754 0.128008 0
M  V30 6 C -1.11192 -1.56805 -0.143703 0
M  V30 7 C -2.27136 -0.835999 -0.273297 0
M  V30 8 N -3.52257 -1.45933 -0.552804 0
M  V30 9 C -2.15149 0.527679 -0.117545 0
M  V30 10 C -0.940292 1.12397 0.152322 0
M  V30 11 N -0.809548 2.54065 0.315206 0
M  V30 12 H 3.47572 -1.31499 -0.229252 0
M  V30 13 H 4.03554 0.269036 -0.911168 0
M  V30 14 H 2.38126 -0.28974 -1.25519 0
M  V30 15 H 2.60875 -0.297221 1.57199 0
M  V30 16 H 3.42171 1.19051 1.09007 0
M  V30 17 H 1.01068 -1.58239 0.230435 0
M  V30 18 H -1.16772 -2.65824 -0.261253 0
M  V30 19 H -4.20325 -1.0583 -1.2511 0
M  V30 20 H -3.82818 -2.34055 -0.083073 0
M  V30 21 H -3.05335 1.12204 -0.215791 0
M  V30 22 H -0.482476 3.10313 -0.499405 0
M  V30 23 H -1.04724 2.94081 1.23878 0
M  V30 END ATOM
M  V30 BEGIN BOND
M  V30 1 1 1 2
M  V30 2 1 2 3
M  V30 3 1 3 4
M  V30 4 2 4 5
M  V30 5 1 5 6
M  V30 6 2 6 7
M  V30 7 1 7 8
M  V30 8 1 7 9
M  V30 9 2 9 10
M  V30 10 1 10 11
M  V30 11 1 10 4
M  V30 12 1 1 12
M  V30 13 1 1 13
M  V30 14 1 1 14
M  V30 15 1 2 15
M  V30 16 1 2 16
M  V30 17 1 5 17
M  V30 18 1 6 18
M  V30 19 1 8 19
M  V30 20 1 8 20
M  V30 21 1 9 21
M  V30 22 1 11 22
M  V30 23 1 11 23
M  V30 END BOND
M  V30 END CTAB
M  END
