
     RDKit          3D

  0  0  0  0  0  0  0  0  0  0999 V3000
M  V30 BEGIN CTAB
M  V30 COUNTS 39 41 0 0 0
M  V30 BEGIN ATOM
M  V30 1 C 5.0478 -1.98008 1.50553 0
M  V30 2 O 3.7611 -1.39947 1.64182 0
M  V30 3 C 3.20574 -0.706269 0.551068 0
M  V30 4 C 1.95314 -0.12917 0.65215 0
M  V30 5 C 1.36152 0.550826 -0.360744 0
M  V30 6 C 2.08609 0.655079 -1.55532 0
M  V30 7 C 3.33772 0.104333 -1.72222 0
M  V30 8 C 3.86937 -0.57115 -0.647201 0
M  V30 9 C 0.0368821 1.16493 -0.347786 0
M  V30 10 C -1.16966 0.503167 -0.17036 0
M  V30 11 C -1.42205 -0.800308 0.0141452 0
M  V30 12 N -0.448762 -1.87176 0.048372 0
M  V30 13 C -2.72698 -1.19686 0.145451 0
M  V30 14 S -3.59153 0.257998 0.0071724 0
M  V30 15 C -2.28397 1.33335 -0.213233 0
M  V30 16 N -2.24121 2.66511 -0.410566 0
M  V30 17 C -1.04209 3.28425 -0.584844 0
M  V30 18 S -1.0298 5.04712 -0.845244 0
M  V30 19 C -0.920449 5.86933 0.750342 0
M  V30 20 N 0.0135749 2.51988 -0.545454 0
M  V30 21 C -3.31306 -2.52354 0.355294 0
M  V30 22 O -2.5766 -3.51856 0.441145 0
M  V30 23 N -4.70924 -2.67503 0.460067 0
M  V30 24 N -5.23479 -3.94658 0.65894 0
M  V30 25 H 5.30268 -2.6316 2.34242 0
M  V30 26 H 5.80138 -1.16364 1.41859 0
M  V30 27 H 5.01025 -2.56453 0.543931 0
M  V30 28 H 1.42979 -0.211544 1.59675 0
M  V30 29 H 1.64785 1.18614 -2.37441 0
M  V30 30 H 3.88686 0.189743 -2.64423 0
M  V30 31 H 4.84414 -1.007 -0.760671 0
M  V30 32 H -0.258586 -2.34729 0.958491 0
M  V30 33 H 0.0280113 -2.13591 -0.821548 0
M  V30 34 H -0.230921 5.27876 1.4149 0
M  V30 35 H -0.496415 6.88178 0.587259 0
M  V30 36 H -1.91305 5.93025 1.25005 0
M  V30 37 H -5.36805 -1.84011 0.390718 0
M  V30 38 H -5.69745 -4.02909 1.58723 0
M  V30 39 H -5.94923 -4.17258 -0.0646148 0
M  V30 END ATOM
M  V30 BEGIN BOND
M  V30 1 1 1 2
M  V30 2 1 2 3
M  V30 3 2 3 4
M  V30 4 1 4 5
M  V30 5 2 5 6
M  V30 6 1 6 7
M  V30 7 2 7 8
M  V30 8 1 5 9
M  V30 9 2 9 10
M  V30 10 1 10 11
M  V30 11 1 11 12
M  V30 12 2 11 13
M  V30 13 1 13 14
M  V30 14 1 14 15
M  V30 15 2 15 16
M  V30 16 1 16 17
M  V30 17 1 17 18
M  V30 18 1 18 19
M  V30 19 2 17 20
M  V30 20 1 13 21
M  V30 21 2 21 22
M  V30 22 1 21 23
M  V30 23 1 23 24
M  V30 24 1 8 3
M  V30 25 1 20 9
M  V30 26 1 15 10
M  V30 27 1 1 25
M  V30 28 1 1 26
M  V30 29 1 1 27
M  V30 30 1 4 28
M  V30 31 1 6 29
M  V30 32 1 7 30
M  V30 33 1 8 31
M  V30 34 1 12 32
M  V30 35 1 12 33
M  V30 36 1 19 34
M  V30 37 1 19 35
M  V30 38 1 19 36
M  V30 39 1 23 37
M  V30 40 1 24 38
M  V30 41 1 24 39
M  V30 END BOND
M  V30 END CTAB
M  END
