
     RDKit          3D

  0  0  0  0  0  0  0  0  0  0999 V3000
M  V30 BEGIN CTAB
M  V30 COUNTS 27 27 0 0 0
M  V30 BEGIN ATOM
M  V30 1 N 4.75568 0.2129 -1.41827 0
M  V30 2 C 3.63604 -0.305561 -0.700138 0
M  V30 3 N 3.71937 -1.37475 0.114553 0
M  V30 4 N 2.50432 -1.59902 0.628705 0
M  V30 5 C 1.65996 -0.673564 0.138603 0
M  V30 6 N 2.37056 0.115577 -0.677734 0
M  V30 7 C 0.22452 -0.628306 0.502935 0
M  V30 8 C -0.490977 0.511056 -0.190896 0
M  V30 9 C -1.94164 0.46542 0.249189 0
M  V30 10 N -1.97608 0.621163 1.68335 0
M  V30 11 C -2.48947 -0.873923 -0.145355 0
M  V30 12 C -2.75696 1.54801 -0.407116 0
M  V30 13 H 5.53806 -0.394911 -1.74805 0
M  V30 14 H 4.79986 1.21559 -1.62076 0
M  V30 15 H 2.2644 -2.36613 1.29668 0
M  V30 16 H 0.160478 -0.55971 1.60856 0
M  V30 17 H -0.223803 -1.60074 0.216397 0
M  V30 18 H -0.0114572 1.48687 0.0112478 0
M  V30 19 H -0.403872 0.319295 -1.28624 0
M  V30 20 H -2.91958 0.574421 2.09488 0
M  V30 21 H -1.4371 1.47386 1.94502 0
M  V30 22 H -2.47029 -1.58322 0.710649 0
M  V30 23 H -3.54745 -0.738234 -0.44893 0
M  V30 24 H -1.94914 -1.30707 -1.03097 0
M  V30 25 H -2.94778 1.33586 -1.47152 0
M  V30 26 H -3.74649 1.56605 0.10351 0
M  V30 27 H -2.32117 2.55905 -0.247453 0
M  V30 END ATOM
M  V30 BEGIN BOND
M  V30 1 1 1 2
M  V30 2 2 2 3
M  V30 3 1 3 4
M  V30 4 1 4 5
M  V30 5 2 5 6
M  V30 6 1 5 7
M  V30 7 1 7 8
M  V30 8 1 8 9
M  V30 9 1 9 10
M  V30 10 1 9 11
M  V30 11 1 9 12
M  V30 12 1 6 2
M  V30 13 1 1 13
M  V30 14 1 1 14
M  V30 15 1 4 15
M  V30 16 1 7 16
M  V30 17 1 7 17
M  V30 18 1 8 18
M  V30 19 1 8 19
M  V30 20 1 10 20
M  V30 21 1 10 21
M  V30 22 1 11 22
M  V30 23 1 11 23
M  V30 24 1 11 24
M  V30 25 1 12 25
M  V30 26 1 12 26
M  V30 27 1 12 27
M  V30 END BOND
M  V30 END CTAB
M  END
