
     RDKit          3D

  0  0  0  0  0  0  0  0  0  0999 V3000
M  V30 BEGIN CTAB
M  V30 COUNTS 93 95 0 0 0
M  V30 BEGIN ATOM
M  V30 1 C -3.16062 7.09881 0.368263 0
M  V30 2 C -4.04352 5.83274 0.29475 0
M  V30 3 C -5.18736 6.19831 -0.60793 0
M  V30 4 C -6.18043 5.09631 -0.826191 0
M  V30 5 C -5.48322 3.88493 -1.42954 0
M  V30 6 C -6.53158 2.83056 -1.73025 0
M  V30 7 N -5.90788 1.664 -2.29491 0
M  V30 8 C -5.05097 0.827101 -1.52538 0
M  V30 9 O -4.85107 1.08496 -0.334139 0
M  V30 10 C -4.42699 -0.337153 -2.16819 0
M  V30 11 C -4.18825 -1.47221 -1.26438 0
M  V30 12 C -3.37468 -1.33893 -0.0830472 0
M  V30 13 N -2.00032 -0.875938 -0.358151 0
M  V30 14 C -1.40059 0.10125 0.475161 0
M  V30 15 O -2.06444 0.571967 1.41851 0
M  V30 16 C -0.032921 0.520299 0.210462 0
M  V30 17 C 0.592244 1.44724 1.05553 0
M  V30 18 C 1.89905 1.83818 0.890332 0
M  V30 19 C 2.67099 1.33432 -0.125853 0
M  V30 20 C 2.06591 0.414891 -0.978714 0
M  V30 21 C 0.746691 0.0188902 -0.813006 0
M  V30 22 N 4.049 1.6958 -0.276442 0
M  V30 23 C 4.79208 1.13136 -1.3685 0
M  V30 24 C 4.69593 2.60977 0.635615 0
M  V30 25 C 6.15653 2.62561 0.528545 0
M  V30 26 N 6.80074 1.60993 1.17837 0
M  V30 27 C 8.11858 1.48941 1.18487 0
M  V30 28 C 8.75275 0.455609 1.84615 0
M  V30 29 N 7.97169 -0.499752 2.52587 0
M  V30 30 N 10.0898 0.443251 1.77762 0
M  V30 31 C 10.8007 1.36747 1.11341 0
M  V30 32 N 12.2317 1.29124 1.08316 0
M  V30 33 N 10.178 2.38671 0.461793 0
M  V30 34 C 8.83923 2.45616 0.490931 0
M  V30 35 N 8.23975 3.47823 -0.165553 0
M  V30 36 C 6.87915 3.55465 -0.139961 0
M  V30 37 C -3.19176 -2.68165 0.641948 0
M  V30 38 O -2.2957 -2.75016 1.47791 0
M  V30 39 N -4.0383 -3.73592 0.310532 0
M  V30 40 C -4.02656 -5.05594 0.815616 0
M  V30 41 C -2.9115 -5.95818 0.49268 0
M  V30 42 C -1.52484 -5.63799 0.843462 0
M  V30 43 C -0.600629 -6.79383 0.43038 0
M  V30 44 C -0.963268 -8.03158 1.15916 0
M  V30 45 C -0.0142275 -9.18596 0.772112 0
M  V30 46 H -2.12087 6.76429 0.477347 0
M  V30 47 H -3.50554 7.66262 1.23849 0
M  V30 48 H -3.27398 7.65687 -0.605358 0
M  V30 49 H -3.42086 5.01773 -0.102269 0
M  V30 50 H -4.34889 5.60155 1.31376 0
M  V30 51 H -5.72946 7.06553 -0.144362 0
M  V30 52 H -4.82425 6.52542 -1.61901 0
M  V30 53 H -6.60324 4.76842 0.162545 0
M  V30 54 H -6.97145 5.42631 -1.50145 0
M  V30 55 H -4.77527 3.46287 -0.709415 0
M  V30 56 H -4.99039 4.18866 -2.37705 0
M  V30 57 H -7.00665 2.58601 -0.732389 0
M  V30 58 H -7.30981 3.22914 -2.38159 0
M  V30 59 H -6.08177 1.42505 -3.2889 0
M  V30 60 H -3.4771 0.0263238 -2.6233 0
M  V30 61 H -5.08426 -0.686237 -3.02512 0
M  V30 62 H -3.82487 -2.33376 -1.88467 0
M  V30 63 H -5.25816 -1.75335 -0.900982 0
M  V30 64 H -3.77647 -0.686925 0.694457 0
M  V30 65 H -1.56502 -1.33558 -1.18262 0
M  V30 66 H -0.037592 1.84476 1.8627 0
M  V30 67 H 2.32711 2.56075 1.57837 0
M  V30 68 H 2.68426 0.0282853 -1.78367 0
M  V30 69 H 0.307444 -0.704442 -1.50224 0
M  V30 70 H 4.18155 1.36843 -2.29342 0
M  V30 71 H 5.77099 1.59714 -1.56013 0
M  V30 72 H 4.83848 0.0219561 -1.33466 0
M  V30 73 H 4.28332 3.63555 0.408636 0
M  V30 74 H 4.35358 2.42652 1.69584 0
M  V30 75 H 7.27644 -1.05774 2.00845 0
M  V30 76 H 8.09275 -0.64544 3.54089 0
M  V30 77 H 12.7652 1.70838 1.86307 0
M  V30 78 H 12.6788 0.828429 0.292358 0
M  V30 79 H 6.3959 4.35989 -0.657832 0
M  V30 80 H -4.81407 -3.55171 -0.432091 0
M  V30 81 H -4.98061 -5.57559 0.484999 0
M  V30 82 H -4.11782 -5.04788 1.9522 0
M  V30 83 H -3.21855 -6.97401 0.918255 0
M  V30 84 H -2.9342 -6.12459 -0.628311 0
M  V30 85 H -1.18893 -4.76007 0.200427 0
M  V30 86 H -1.3482 -5.42606 1.90204 0
M  V30 87 H 0.433956 -6.4719 0.576117 0
M  V30 88 H -0.778615 -6.92891 -0.662149 0
M  V30 89 H -0.900933 -7.94934 2.245 0
M  V30 90 H -1.97948 -8.41517 0.925664 0
M  V30 91 H -0.505579 -9.91153 0.113919 0
M  V30 92 H 0.407554 -9.68181 1.64854 0
M  V30 93 H 0.836636 -8.7696 0.160298 0
M  V30 END ATOM
M  V30 BEGIN BOND
M  V30 1 1 1 2
M  V30 2 1 2 3
M  V30 3 1 3 4
M  V30 4 1 4 5
M  V30 5 1 5 6
M  V30 6 1 6 7
M  V30 7 1 7 8
M  V30 8 2 8 9
M  V30 9 1 8 10
M  V30 10 1 10 11
M  V30 11 1 11 12
M  V30 12 1 12 13
M  V30 13 1 13 14
M  V30 14 2 14 15
M  V30 15 1 14 16
M  V30 16 2 16 17
M  V30 17 1 17 18
M  V30 18 2 18 19
M  V30 19 1 19 20
M  V30 20 2 20 21
M  V30 21 1 19 22
M  V30 22 1 22 23
M  V30 23 1 22 24
M  V30 24 1 24 25
M  V30 25 2 25 26
M  V30 26 1 26 27
M  V30 27 2 27 28
M  V30 28 1 28 29
M  V30 29 1 28 30
M  V30 30 2 30 31
M  V30 31 1 31 32
M  V30 32 1 31 33
M  V30 33 2 33 34
M  V30 34 1 34 35
M  V30 35 2 35 36
M  V30 36 1 12 37
M  V30 37 2 37 38
M  V30 38 1 37 39
M  V30 39 1 39 40
M  V30 40 1 40 41
M  V30 41 1 41 42
M  V30 42 1 42 43
M  V30 43 1 43 44
M  V30 44 1 44 45
M  V30 45 1 21 16
M  V30 46 1 36 25
M  V30 47 1 34 27
M  V30 48 1 1 46
M  V30 49 1 1 47
M  V30 50 1 1 48
M  V30 51 1 2 49
M  V30 52 1 2 50
M  V30 53 1 3 51
M  V30 54 1 3 52
M  V30 55 1 4 53
M  V30 56 1 4 54
M  V30 57 1 5 55
M  V30 58 1 5 56
M  V30 59 1 6 57
M  V30 60 1 6 58
M  V30 61 1 7 59
M  V30 62 1 10 60
M  V30 63 1 10 61
M  V30 64 1 11 62
M  V30 65 1 11 63
M  V30 66 1 12 64
M  V30 67 1 13 65
M  V30 68 1 17 66
M  V30 69 1 18 67
M  V30 70 1 20 68
M  V30 71 1 21 69
M  V30 72 1 23 70
M  V30 73 1 23 71
M  V30 74 1 23 72
M  V30 75 1 24 73
M  V30 76 1 24 74
M  V30 77 1 29 75
M  V30 78 1 29 76
M  V30 79 1 32 77
M  V30 80 1 32 78
M  V30 81 1 36 79
M  V30 82 1 39 80
M  V30 83 1 40 81
M  V30 84 1 40 82
M  V30 85 1 41 83
M  V30 86 1 41 84
M  V30 87 1 42 85
M  V30 88 1 42 86
M  V30 89 1 43 87
M  V30 90 1 43 88
M  V30 91 1 44 89
M  V30 92 1 44 90
M  V30 93 1 45 91
M  V30 94 1 45 92
M  V30 95 1 45 93
M  V30 END BOND
M  V30 END CTAB
M  END
