
     RDKit          3D

  0  0  0  0  0  0  0  0  0  0999 V3000
M  V30 BEGIN CTAB
M  V30 COUNTS 27 28 0 0 0
M  V30 BEGIN ATOM
M  V30 1 N 3.17465 -1.78877 0.335899 0
M  V30 2 C 1.80278 -1.48358 0.236977 0
M  V30 3 C 0.801225 -2.42388 0.282305 0
M  V30 4 N -0.496461 -2.05992 0.181122 0
M  V30 5 C -0.863336 -0.777413 0.0333056 0
M  V30 6 C 0.0941829 0.228441 -0.0208235 0
M  V30 7 C 1.39377 -0.146874 0.0815858 0
M  V30 8 N 2.43107 0.80009 0.0369426 0
M  V30 9 C -0.252357 1.56824 -0.17342 0
M  V30 10 C 0.746231 2.65234 -0.233023 0
M  V30 11 C -1.62225 1.82288 -0.267178 0
M  V30 12 C -2.59653 0.856589 -0.217892 0
M  V30 13 C -2.18771 -0.441365 -0.0664107 0
M  V30 14 C -3.1854 -1.55605 -0.00328246 0
M  V30 15 H 3.71554 -1.539 1.17917 0
M  V30 16 H 3.64524 -2.26983 -0.448052 0
M  V30 17 H 1.07724 -3.47246 0.401968 0
M  V30 18 H 2.7671 1.22598 0.925127 0
M  V30 19 H 2.85072 1.04267 -0.880968 0
M  V30 20 H 0.0991313 3.59974 -0.355872 0
M  V30 21 H 1.21936 2.9283 0.720997 0
M  V30 22 H 1.32255 2.75361 -1.14867 0
M  V30 23 H -1.92571 2.87508 -0.388624 0
M  V30 24 H -3.655 1.09837 -0.294865 0
M  V30 25 H -4.17592 -1.10153 0.258428 0
M  V30 26 H -3.22625 -2.11167 -0.963867 0
M  V30 27 H -2.95389 -2.27998 0.789119 0
M  V30 END ATOM
M  V30 BEGIN BOND
M  V30 1 1 1 2
M  V30 2 2 2 3
M  V30 3 1 3 4
M  V30 4 2 4 5
M  V30 5 1 5 6
M  V30 6 2 6 7
M  V30 7 1 7 8
M  V30 8 1 6 9
M  V30 9 1 9 10
M  V30 10 2 9 11
M  V30 11 1 11 12
M  V30 12 2 12 13
M  V30 13 1 13 14
M  V30 14 1 7 2
M  V30 15 1 13 5
M  V30 16 1 1 15
M  V30 17 1 1 16
M  V30 18 1 3 17
M  V30 19 1 8 18
M  V30 20 1 8 19
M  V30 21 1 10 20
M  V30 22 1 10 21
M  V30 23 1 10 22
M  V30 24 1 11 23
M  V30 25 1 12 24
M  V30 26 1 14 25
M  V30 27 1 14 26
M  V30 28 1 14 27
M  V30 END BOND
M  V30 END CTAB
M  END
