
     RDKit          3D

  0  0  0  0  0  0  0  0  0  0999 V3000
M  V30 BEGIN CTAB
M  V30 COUNTS 50 51 0 0 0
M  V30 BEGIN ATOM
M  V30 1 C 4.61277 0.057473 1.25712 0
M  V30 2 C 4.85378 0.280648 -0.179367 0
M  V30 3 C 3.66385 0.230131 -1.07055 0
M  V30 4 C 2.58153 1.20098 -0.887143 0
M  V30 5 C 1.74695 1.22666 0.312798 0
M  V30 6 C 0.865654 0.0890331 0.639149 0
M  V30 7 C -0.259503 -0.236786 -0.279451 0
M  V30 8 C 0.0712483 -0.609928 -1.67402 0
M  V30 9 C -0.997515 -1.40803 0.332603 0
M  V30 10 C -2.14205 -1.92934 -0.25742 0
M  V30 11 C -2.82843 -3.00299 0.280693 0
M  V30 12 C -2.38147 -3.58193 1.4291 0
M  V30 13 N -3.11179 -4.69847 1.97103 0
M  V30 14 C -1.25457 -3.09517 2.04216 0
M  V30 15 C -0.576461 -2.01327 1.48545 0
M  V30 16 C -1.22093 0.934115 -0.339949 0
M  V30 17 C -1.10025 1.97571 -1.22293 0
M  V30 18 C -2.01455 3.02756 -1.24217 0
M  V30 19 C -3.05803 3.03917 -0.371422 0
M  V30 20 N -4.00231 4.11364 -0.382454 0
M  V30 21 C -3.21173 2.02566 0.51939 0
M  V30 22 C -2.28812 0.97874 0.526866 0
M  V30 23 H 5.54385 -0.450734 1.67373 0
M  V30 24 H 4.59258 1.05868 1.78517 0
M  V30 25 H 3.73357 -0.510322 1.54492 0
M  V30 26 H 5.62426 -0.441171 -0.592451 0
M  V30 27 H 5.36383 1.28086 -0.286329 0
M  V30 28 H 3.21418 -0.807706 -1.04949 0
M  V30 29 H 4.09595 0.306867 -2.13261 0
M  V30 30 H 2.00107 1.23185 -1.85185 0
M  V30 31 H 3.08225 2.24761 -0.925823 0
M  V30 32 H 2.3783 1.42892 1.21108 0
M  V30 33 H 1.07758 2.17926 0.320598 0
M  V30 34 H 1.53289 -0.819486 0.790016 0
M  V30 35 H 0.41694 0.276322 1.64421 0
M  V30 36 H -0.706734 -1.38267 -2.01158 0
M  V30 37 H 0.00114468 0.163095 -2.44149 0
M  V30 38 H 1.01877 -1.20026 -1.78466 0
M  V30 39 H -2.49027 -1.44324 -1.17342 0
M  V30 40 H -3.71338 -3.35202 -0.23966 0
M  V30 41 H -4.14878 -4.75726 1.90973 0
M  V30 42 H -2.60441 -5.46519 2.434 0
M  V30 43 H -0.901907 -3.55942 2.95737 0
M  V30 44 H 0.297091 -1.6851 2.02576 0
M  V30 45 H -0.276701 2.00016 -1.9173 0
M  V30 46 H -1.87795 3.81267 -1.94686 0
M  V30 47 H -4.65818 4.2457 0.394422 0
M  V30 48 H -4.04922 4.78925 -1.1777 0
M  V30 49 H -4.04795 2.03841 1.21494 0
M  V30 50 H -2.44686 0.211305 1.24667 0
M  V30 END ATOM
M  V30 BEGIN BOND
M  V30 1 1 1 2
M  V30 2 1 2 3
M  V30 3 1 3 4
M  V30 4 1 4 5
M  V30 5 1 5 6
M  V30 6 1 6 7
M  V30 7 1 7 8
M  V30 8 1 7 9
M  V30 9 2 9 10
M  V30 10 1 10 11
M  V30 11 2 11 12
M  V30 12 1 12 13
M  V30 13 1 12 14
M  V30 14 2 14 15
M  V30 15 1 7 16
M  V30 16 2 16 17
M  V30 17 1 17 18
M  V30 18 2 18 19
M  V30 19 1 19 20
M  V30 20 1 19 21
M  V30 21 2 21 22
M  V30 22 1 15 9
M  V30 23 1 22 16
M  V30 24 1 1 23
M  V30 25 1 1 24
M  V30 26 1 1 25
M  V30 27 1 2 26
M  V30 28 1 2 27
M  V30 29 1 3 28
M  V30 30 1 3 29
M  V30 31 1 4 30
M  V30 32 1 4 31
M  V30 33 1 5 32
M  V30 34 1 5 33
M  V30 35 1 6 34
M  V30 36 1 6 35
M  V30 37 1 8 36
M  V30 38 1 8 37
M  V30 39 1 8 38
M  V30 40 1 10 39
M  V30 41 1 11 40
M  V30 42 1 13 41
M  V30 43 1 13 42
M  V30 44 1 14 43
M  V30 45 1 15 44
M  V30 46 1 17 45
M  V30 47 1 18 46
M  V30 48 1 20 47
M  V30 49 1 20 48
M  V30 50 1 21 49
M  V30 51 1 22 50
M  V30 END BOND
M  V30 END CTAB
M  END
