
     RDKit          3D

  0  0  0  0  0  0  0  0  0  0999 V3000
M  V30 BEGIN CTAB
M  V30 COUNTS 22 21 0 0 0
M  V30 BEGIN ATOM
M  V30 1 N -2.5707 0.491204 0.856241 0
M  V30 2 C -2.11644 -0.516867 -0.0328738 0
M  V30 3 C -0.649914 -0.732613 -0.234359 0
M  V30 4 N -0.00112345 0.420921 -0.746303 0
M  V30 5 C 1.3788 0.331835 -1.02754 0
M  V30 6 C 2.28771 0.200552 0.10813 0
M  V30 7 N 2.28134 -0.969919 0.893947 0
M  V30 8 N 3.13293 1.12557 0.455327 0
M  V30 9 O 3.26848 2.31101 -0.190706 0
M  V30 10 N -2.98143 -1.22762 -0.650873 0
M  V30 11 O -4.31878 -1.02233 -0.460712 0
M  V30 12 H -1.94959 1.30641 1.00307 0
M  V30 13 H -3.48108 0.452605 1.35947 0
M  V30 14 H -0.502456 -1.57598 -0.936364 0
M  V30 15 H -0.224079 -1.02956 0.759064 0
M  V30 16 H -0.3749 1.33411 -0.473316 0
M  V30 17 H 1.50598 -0.552974 -1.73067 0
M  V30 18 H 1.74312 1.18828 -1.67439 0
M  V30 19 H 2.63861 -1.85041 0.498725 0
M  V30 20 H 1.91926 -0.934675 1.8565 0
M  V30 21 H 4.06015 2.62322 -0.706572 0
M  V30 22 H -5.04589 -1.37277 -1.04904 0
M  V30 END ATOM
M  V30 BEGIN BOND
M  V30 1 1 1 2
M  V30 2 1 2 3
M  V30 3 1 3 4
M  V30 4 1 4 5
M  V30 5 1 5 6
M  V30 6 1 6 7
M  V30 7 2 6 8 CFG=2
M  V30 8 1 8 9
M  V30 9 2 2 10 CFG=2
M  V30 10 1 10 11
M  V30 11 1 1 12
M  V30 12 1 1 13
M  V30 13 1 3 14
M  V30 14 1 3 15
M  V30 15 1 4 16
M  V30 16 1 5 17
M  V30 17 1 5 18
M  V30 18 1 7 19
M  V30 19 1 7 20
M  V30 20 1 9 21
M  V30 21 1 11 22
M  V30 END BOND
M  V30 END CTAB
M  END
