
     RDKit          3D

  0  0  0  0  0  0  0  0  0  0999 V3000
M  V30 BEGIN CTAB
M  V30 COUNTS 23 23 0 0 0
M  V30 BEGIN ATOM
M  V30 1 O 2.62591 -0.831819 1.33025 0
M  V30 2 C 3.00775 0.198282 0.484639 0
M  V30 3 C 2.1754 0.164936 -0.793105 0
M  V30 4 C 0.725407 0.319377 -0.505024 0
M  V30 5 C 0.125151 1.5483 -0.462811 0
M  V30 6 C -1.22313 1.65052 -0.192177 0
M  V30 7 C -1.97766 0.517448 0.0380046 0
M  V30 8 C -1.40243 -0.754627 0.00379326 0
M  V30 9 C -0.0511667 -0.797761 -0.271362 0
M  V30 10 N -2.17162 -1.92406 0.239418 0
M  V30 11 N -3.36534 0.576214 0.31962 0
M  V30 12 H 2.98574 -1.68759 1.00898 0
M  V30 13 H 4.06186 0.0441593 0.159998 0
M  V30 14 H 2.96352 1.19121 0.959776 0
M  V30 15 H 2.54927 0.888277 -1.53887 0
M  V30 16 H 2.35292 -0.846158 -1.22614 0
M  V30 17 H 0.725072 2.42852 -0.644477 0
M  V30 18 H -1.72327 2.61114 -0.152827 0
M  V30 19 H 0.381737 -1.80407 -0.293866 0
M  V30 20 H -1.84956 -2.76782 0.752268 0
M  V30 21 H -3.14253 -1.9477 -0.129285 0
M  V30 22 H -4.11588 0.265684 -0.3288 0
M  V30 23 H -3.65716 0.957552 1.24201 0
M  V30 END ATOM
M  V30 BEGIN BOND
M  V30 1 1 1 2
M  V30 2 1 2 3
M  V30 3 1 3 4
M  V30 4 2 4 5
M  V30 5 1 5 6
M  V30 6 2 6 7
M  V30 7 1 7 8
M  V30 8 2 8 9
M  V30 9 1 8 10
M  V30 10 1 7 11
M  V30 11 1 9 4
M  V30 12 1 1 12
M  V30 13 1 2 13
M  V30 14 1 2 14
M  V30 15 1 3 15
M  V30 16 1 3 16
M  V30 17 1 5 17
M  V30 18 1 6 18
M  V30 19 1 9 19
M  V30 20 1 10 20
M  V30 21 1 10 21
M  V30 22 1 11 22
M  V30 23 1 11 23
M  V30 END BOND
M  V30 END CTAB
M  END
