
     RDKit          3D

  0  0  0  0  0  0  0  0  0  0999 V3000
M  V30 BEGIN CTAB
M  V30 COUNTS 39 40 0 0 0
M  V30 BEGIN ATOM
M  V30 1 N -2.75229 1.46236 1.59574 0
M  V30 2 C -2.6156 0.278662 0.748486 0
M  V30 3 C -2.24912 0.714303 -0.625219 0
M  V30 4 C -1.51444 -0.303099 -1.42958 0
M  V30 5 C -2.45279 -1.50159 -1.61986 0
M  V30 6 C -2.32517 -2.26161 -0.343519 0
M  V30 7 C -1.1273 -1.68738 0.403121 0
M  V30 8 C -1.68495 -0.678751 1.39033 0
M  V30 9 C -0.382917 -0.95958 -0.67731 0
M  V30 10 N 0.609894 -0.0569812 -0.213149 0
M  V30 11 C 1.95107 -0.175046 -0.622315 0
M  V30 12 O 2.26713 -1.09378 -1.40901 0
M  V30 13 C 3.0331 0.737666 -0.171464 0
M  V30 14 N 4.3099 0.37502 -0.755285 0
M  V30 15 C 2.72868 2.15206 -0.62408 0
M  V30 16 C 3.21016 0.713352 1.32955 0
M  V30 17 H -2.06949 1.44609 2.39511 0
M  V30 18 H -2.59705 2.34472 1.04374 0
M  V30 19 H -3.64121 -0.193128 0.748745 0
M  V30 20 H -3.21226 0.931608 -1.17483 0
M  V30 21 H -1.69099 1.67143 -0.64166 0
M  V30 22 H -1.17764 0.118183 -2.37106 0
M  V30 23 H -3.46957 -1.19221 -1.88148 0
M  V30 24 H -2.03346 -2.10737 -2.47155 0
M  V30 25 H -3.25049 -2.19803 0.297613 0
M  V30 26 H -2.08781 -3.33969 -0.5461 0
M  V30 27 H -0.549231 -2.44975 0.9196 0
M  V30 28 H -2.23009 -1.27197 2.1612 0
M  V30 29 H -0.832846 -0.204361 1.92391 0
M  V30 30 H 0.0667918 -1.70582 -1.36184 0
M  V30 31 H 0.344613 0.724752 0.455382 0
M  V30 32 H 4.44941 -0.654388 -0.826976 0
M  V30 33 H 5.06257 0.73284 -0.127597 0
M  V30 34 H 3.22543 2.91186 0.0129163 0
M  V30 35 H 3.14185 2.32138 -1.6608 0
M  V30 36 H 1.62874 2.25984 -0.658671 0
M  V30 37 H 3.48784 -0.322541 1.62771 0
M  V30 38 H 2.34375 1.1013 1.87423 0
M  V30 39 H 4.08577 1.35965 1.55455 0
M  V30 END ATOM
M  V30 BEGIN BOND
M  V30 1 1 1 2
M  V30 2 1 2 3
M  V30 3 1 3 4
M  V30 4 1 4 5
M  V30 5 1 5 6
M  V30 6 1 6 7
M  V30 7 1 7 8
M  V30 8 1 7 9
M  V30 9 1 9 10
M  V30 10 1 10 11
M  V30 11 2 11 12
M  V30 12 1 11 13
M  V30 13 1 13 14
M  V30 14 1 13 15
M  V30 15 1 13 16
M  V30 16 1 8 2
M  V30 17 1 9 4
M  V30 18 1 1 17
M  V30 19 1 1 18
M  V30 20 1 2 19
M  V30 21 1 3 20
M  V30 22 1 3 21
M  V30 23 1 4 22
M  V30 24 1 5 23
M  V30 25 1 5 24
M  V30 26 1 6 25
M  V30 27 1 6 26
M  V30 28 1 7 27
M  V30 29 1 8 28
M  V30 30 1 8 29
M  V30 31 1 9 30
M  V30 32 1 10 31
M  V30 33 1 14 32
M  V30 34 1 14 33
M  V30 35 1 15 34
M  V30 36 1 15 35
M  V30 37 1 15 36
M  V30 38 1 16 37
M  V30 39 1 16 38
M  V30 40 1 16 39
M  V30 END BOND
M  V30 END CTAB
M  END
