
     RDKit          3D

  0  0  0  0  0  0  0  0  0  0999 V3000
M  V30 BEGIN CTAB
M  V30 COUNTS 25 26 0 0 0
M  V30 BEGIN ATOM
M  V30 1 N -4.11572 -2.00142 0.547458 0
M  V30 2 C -3.00389 -1.12231 0.36611 0
M  V30 3 N -1.79927 -1.60792 0.0267687 0
M  V30 4 C -0.720487 -0.837433 -0.158411 0
M  V30 5 S 0.858629 -1.57314 -0.621548 0
M  V30 6 C 2.10646 -0.278023 -0.790918 0
M  V30 7 C 2.47233 0.423388 0.514553 0
M  V30 8 C 3.9031 0.461247 -0.0024522 0
M  V30 9 C 3.53913 -0.748185 -0.867938 0
M  V30 10 N -0.849696 0.484524 0.00217209 0
M  V30 11 C -2.03996 1.05001 0.345437 0
M  V30 12 C -3.14834 0.246609 0.535134 0
M  V30 13 N -2.19957 2.45309 0.516729 0
M  V30 14 H -3.93221 -2.99564 0.699669 0
M  V30 15 H -5.06359 -1.59436 0.515951 0
M  V30 16 H 1.82018 0.487117 -1.53043 0
M  V30 17 H 2.38334 -0.242871 1.39758 0
M  V30 18 H 1.99364 1.41969 0.634032 0
M  V30 19 H 4.04809 1.40373 -0.605229 0
M  V30 20 H 4.68866 0.273405 0.756586 0
M  V30 21 H 3.72208 -1.65413 -0.264199 0
M  V30 22 H 4.0027 -0.721062 -1.87524 0
M  V30 23 H -4.11381 0.663943 0.810082 0
M  V30 24 H -2.61064 3.02599 -0.276066 0
M  V30 25 H -1.94113 2.98374 1.3746 0
M  V30 END ATOM
M  V30 BEGIN BOND
M  V30 1 1 1 2
M  V30 2 2 2 3
M  V30 3 1 3 4
M  V30 4 1 4 5
M  V30 5 1 5 6
M  V30 6 1 6 7
M  V30 7 1 7 8
M  V30 8 1 8 9
M  V30 9 2 4 10
M  V30 10 1 10 11
M  V30 11 2 11 12
M  V30 12 1 11 13
M  V30 13 1 12 2
M  V30 14 1 9 6
M  V30 15 1 1 14
M  V30 16 1 1 15
M  V30 17 1 6 16
M  V30 18 1 7 17
M  V30 19 1 7 18
M  V30 20 1 8 19
M  V30 21 1 8 20
M  V30 22 1 9 21
M  V30 23 1 9 22
M  V30 24 1 12 23
M  V30 25 1 13 24
M  V30 26 1 13 25
M  V30 END BOND
M  V30 END CTAB
M  END
