
     RDKit          3D

  0  0  0  0  0  0  0  0  0  0999 V3000
M  V30 BEGIN CTAB
M  V30 COUNTS 24 23 0 0 0
M  V30 BEGIN ATOM
M  V30 1 N -0.0849074 3.18115 -0.505253 0
M  V30 2 C -0.782561 2.27366 -0.314147 0
M  V30 3 C -1.68479 1.15797 -0.0804236 0
M  V30 4 C -1.15629 -0.175408 -0.489006 0
M  V30 5 N 0.025482 -0.621959 0.150115 0
M  V30 6 C 1.26523 0.0355454 0.0155796 0
M  V30 7 N 1.87089 0.151992 -1.12296 0
M  V30 8 N 3.08593 0.799208 -1.24006 0
M  V30 9 N 1.87597 0.577689 1.16661 0
M  V30 10 C 0.000907923 -1.81122 0.993668 0
M  V30 11 C -2.29485 -1.17425 -0.392228 0
M  V30 12 H -2.63293 1.40956 -0.64273 0
M  V30 13 H -2.00439 1.17625 0.989611 0
M  V30 14 H -0.958206 -0.0946454 -1.60581 0
M  V30 15 H 3.96691 0.321958 -0.937148 0
M  V30 16 H 3.18409 1.75811 -1.62098 0
M  V30 17 H 2.31939 -0.0100688 1.91516 0
M  V30 18 H 1.87534 1.62342 1.25835 0
M  V30 19 H -0.462935 -1.60977 1.98136 0
M  V30 20 H -0.560913 -2.64124 0.479732 0
M  V30 21 H 1.00877 -2.20562 1.17765 0
M  V30 22 H -2.05412 -2.14823 -0.820183 0
M  V30 23 H -3.14072 -0.742248 -1.00267 0
M  V30 24 H -2.66129 -1.23186 0.64577 0
M  V30 END ATOM
M  V30 BEGIN BOND
M  V30 1 3 1 2
M  V30 2 1 2 3
M  V30 3 1 3 4
M  V30 4 1 4 5
M  V30 5 1 5 6
M  V30 6 2 6 7 CFG=2
M  V30 7 1 7 8
M  V30 8 1 6 9
M  V30 9 1 5 10
M  V30 10 1 4 11
M  V30 11 1 3 12
M  V30 12 1 3 13
M  V30 13 1 4 14
M  V30 14 1 8 15
M  V30 15 1 8 16
M  V30 16 1 9 17
M  V30 17 1 9 18
M  V30 18 1 10 19
M  V30 19 1 10 20
M  V30 20 1 10 21
M  V30 21 1 11 22
M  V30 22 1 11 23
M  V30 23 1 11 24
M  V30 END BOND
M  V30 END CTAB
M  END
