
     RDKit          3D

  0  0  0  0  0  0  0  0  0  0999 V3000
M  V30 BEGIN CTAB
M  V30 COUNTS 30 31 0 0 0
M  V30 BEGIN ATOM
M  V30 1 F 5.6657 1.52601 1.20263 0
M  V30 2 C 4.57192 0.901611 0.667564 0
M  V30 3 C 3.8685 -0.0377704 1.40577 0
M  V30 4 C 2.75272 -0.669294 0.845852 0
M  V30 5 C 2.32559 -0.384788 -0.428067 0
M  V30 6 C 3.04698 0.558072 -1.14326 0
M  V30 7 C 4.14195 1.18344 -0.605762 0
M  V30 8 Cl 2.56073 0.972122 -2.771 0
M  V30 9 C 1.17636 -1.0261 -1.07801 0
M  V30 10 S 0.289179 -2.2032 -0.0663169 0
M  V30 11 C -0.629809 -1.48519 1.28668 0
M  V30 12 C -1.78476 -0.663311 0.814801 0
M  V30 13 N -1.67259 0.635192 0.511166 0
M  V30 14 C -2.76106 1.345 0.0860035 0
M  V30 15 N -2.61558 2.71754 -0.232885 0
M  V30 16 N -3.96715 0.774021 -0.0408104 0
M  V30 17 C -4.09578 -0.525476 0.259779 0
M  V30 18 N -3.00846 -1.19595 0.67408 0
M  V30 19 N -5.36492 -1.19492 0.147721 0
M  V30 20 H 4.21997 -0.247637 2.40553 0
M  V30 21 H 2.23788 -1.39011 1.43347 0
M  V30 22 H 4.68869 1.91375 -1.18002 0
M  V30 23 H 1.58892 -1.58192 -1.96598 0
M  V30 24 H 0.520022 -0.24229 -1.51387 0
M  V30 25 H -1.06833 -2.33075 1.89591 0
M  V30 26 H -0.00382049 -0.934087 1.98256 0
M  V30 27 H -3.25505 3.17418 -0.904216 0
M  V30 28 H -1.85937 3.25991 0.214923 0
M  V30 29 H -5.464 -1.89018 -0.60411 0
M  V30 30 H -6.10446 -0.957884 0.808815 0
M  V30 END ATOM
M  V30 BEGIN BOND
M  V30 1 1 1 2
M  V30 2 2 2 3
M  V30 3 1 3 4
M  V30 4 2 4 5
M  V30 5 1 5 6
M  V30 6 2 6 7
M  V30 7 1 6 8
M  V30 8 1 5 9
M  V30 9 1 9 10
M  V30 10 1 10 11
M  V30 11 1 11 12
M  V30 12 2 12 13
M  V30 13 1 13 14
M  V30 14 1 14 15
M  V30 15 2 14 16
M  V30 16 1 16 17
M  V30 17 2 17 18
M  V30 18 1 17 19
M  V30 19 1 7 2
M  V30 20 1 18 12
M  V30 21 1 3 20
M  V30 22 1 4 21
M  V30 23 1 7 22
M  V30 24 1 9 23
M  V30 25 1 9 24
M  V30 26 1 11 25
M  V30 27 1 11 26
M  V30 28 1 15 27
M  V30 29 1 15 28
M  V30 30 1 19 29
M  V30 31 1 19 30
M  V30 END BOND
M  V30 END CTAB
M  END
