
     RDKit          3D

  0  0  0  0  0  0  0  0  0  0999 V3000
M  V30 BEGIN CTAB
M  V30 COUNTS 38 38 0 0 0
M  V30 BEGIN ATOM
M  V30 1 C -5.227 -0.612573 0.310085 0
M  V30 2 C -3.91325 0.0369775 -0.106509 0
M  V30 3 C -2.76021 -0.919311 0.163785 0 CFG=2
M  V30 4 C -1.49688 -0.292843 -0.252743 0
M  V30 5 O -0.945569 -0.673804 -1.3531 0
M  V30 6 N -0.802581 0.719055 0.461254 0
M  V30 7 C 0.434488 1.24504 -0.0726641 0
M  V30 8 C 1.58485 0.332399 0.113416 0
M  V30 9 C 1.5107 -0.881232 0.761301 0
M  V30 10 C 2.65964 -1.63498 0.865031 0
M  V30 11 C 3.86016 -1.24078 0.36059 0
M  V30 12 C 3.941 -0.0281787 -0.288439 0
M  V30 13 C 2.805 0.745253 -0.405655 0
M  V30 14 S 5.42212 0.584676 -0.976032 0
M  V30 15 O 6.27204 -0.580373 -1.4494 0
M  V30 16 O 5.0767 1.38506 -2.19697 0
M  V30 17 N 6.31826 1.53097 0.137031 0
M  V30 18 N -2.94104 -2.1172 -0.686666 0
M  V30 19 C -3.7318 1.35838 0.582186 0
M  V30 20 H -5.94682 0.185665 0.497307 0
M  V30 21 H -5.57327 -1.23008 -0.523827 0
M  V30 22 H -5.10149 -1.23402 1.19445 0
M  V30 23 H -4.00133 0.228658 -1.19382 0
M  V30 24 H -2.77677 -1.26104 1.21688 0
M  V30 25 H -1.20841 1.05248 1.36428 0
M  V30 26 H 0.293898 1.43685 -1.17224 0
M  V30 27 H 0.618473 2.24518 0.380702 0
M  V30 28 H 0.575216 -1.20525 1.16402 0
M  V30 29 H 2.60582 -2.59318 1.37571 0
M  V30 30 H 4.75882 -1.82856 0.440719 0
M  V30 31 H 2.86905 1.70717 -0.920271 0
M  V30 32 H 6.29194 1.10437 1.09266 0
M  V30 33 H 5.97217 2.51273 0.197322 0
M  V30 34 H -2.30492 -2.83312 -0.272142 0
M  V30 35 H -3.91878 -2.41942 -0.584964 0
M  V30 36 H -3.53555 1.27729 1.66394 0
M  V30 37 H -2.98801 1.9581 0.0282282 0
M  V30 38 H -4.69667 1.93964 0.443187 0
M  V30 END ATOM
M  V30 BEGIN BOND
M  V30 1 1 1 2
M  V30 2 1 2 3
M  V30 3 1 3 4
M  V30 4 2 4 5
M  V30 5 1 4 6
M  V30 6 1 6 7
M  V30 7 1 7 8
M  V30 8 2 8 9
M  V30 9 1 9 10
M  V30 10 2 10 11
M  V30 11 1 11 12
M  V30 12 2 12 13
M  V30 13 1 12 14
M  V30 14 2 14 15
M  V30 15 2 14 16
M  V30 16 1 14 17
M  V30 17 1 3 18
M  V30 18 1 2 19
M  V30 19 1 13 8
M  V30 20 1 1 20
M  V30 21 1 1 21
M  V30 22 1 1 22
M  V30 23 1 2 23
M  V30 24 1 3 24 CFG=1
M  V30 25 1 6 25
M  V30 26 1 7 26
M  V30 27 1 7 27
M  V30 28 1 9 28
M  V30 29 1 10 29
M  V30 30 1 11 30
M  V30 31 1 13 31
M  V30 32 1 17 32
M  V30 33 1 17 33
M  V30 34 1 18 34
M  V30 35 1 18 35
M  V30 36 1 19 36
M  V30 37 1 19 37
M  V30 38 1 19 38
M  V30 END BOND
M  V30 END CTAB
M  END
