
     RDKit          3D

  0  0  0  0  0  0  0  0  0  0999 V3000
M  V30 BEGIN CTAB
M  V30 COUNTS 35 36 0 0 0
M  V30 BEGIN ATOM
M  V30 1 C -4.33354 1.5981 -1.70676 0
M  V30 2 C -3.52427 0.904636 -0.648694 0
M  V30 3 C -4.02144 0.804188 0.624711 0
M  V30 4 C -3.27082 0.158797 1.61409 0
M  V30 5 C -3.7473 0.0141947 3.01113 0
M  V30 6 C -2.04359 -0.365186 1.29097 0
M  V30 7 C -1.52578 -0.277013 0.0247797 0
M  V30 8 C -2.28613 0.363359 -0.928541 0
M  V30 9 C -0.211332 -0.835772 -0.330217 0
M  V30 10 O 0.196486 -0.721334 -1.49194 0
M  V30 11 O 0.573036 -1.48187 0.600452 0
M  V30 12 C 1.84001 -2.04287 0.345645 0
M  V30 13 C 2.84805 -1.06189 -0.120976 0
M  V30 14 N 3.18397 -0.845873 -1.38817 0
M  V30 15 C 4.09054 0.0357267 -1.81405 0
M  V30 16 N 4.41154 0.225876 -3.18826 0
M  V30 17 N 4.72498 0.777287 -0.863118 0
M  V30 18 C 4.42797 0.605937 0.454102 0
M  V30 19 N 3.50052 -0.303949 0.80993 0
M  V30 20 N 5.10189 1.3906 1.43375 0
M  V30 21 H -4.9817 2.38044 -1.24605 0
M  V30 22 H -4.99187 0.875203 -2.23927 0
M  V30 23 H -3.66277 2.12296 -2.40997 0
M  V30 24 H -4.97468 1.20661 0.892421 0
M  V30 25 H -3.42314 0.895035 3.6156 0
M  V30 26 H -3.36918 -0.912073 3.47527 0
M  V30 27 H -4.85743 0.0218853 3.03076 0
M  V30 28 H -1.47534 -0.858072 2.05563 0
M  V30 29 H -1.93788 0.472384 -1.9618 0
M  V30 30 H 1.77868 -2.88433 -0.396644 0
M  V30 31 H 2.20294 -2.52527 1.28773 0
M  V30 32 H 4.27592 -0.589351 -3.8548 0
M  V30 33 H 4.76712 1.09804 -3.58785 0
M  V30 34 H 5.61998 0.900062 2.18962 0
M  V30 35 H 5.09459 2.42801 1.42052 0
M  V30 END ATOM
M  V30 BEGIN BOND
M  V30 1 1 1 2
M  V30 2 2 2 3
M  V30 3 1 3 4
M  V30 4 1 4 5
M  V30 5 2 4 6
M  V30 6 1 6 7
M  V30 7 2 7 8
M  V30 8 1 7 9
M  V30 9 2 9 10
M  V30 10 1 9 11
M  V30 11 1 11 12
M  V30 12 1 12 13
M  V30 13 2 13 14
M  V30 14 1 14 15
M  V30 15 1 15 16
M  V30 16 2 15 17
M  V30 17 1 17 18
M  V30 18 2 18 19
M  V30 19 1 18 20
M  V30 20 1 8 2
M  V30 21 1 19 13
M  V30 22 1 1 21
M  V30 23 1 1 22
M  V30 24 1 1 23
M  V30 25 1 3 24
M  V30 26 1 5 25
M  V30 27 1 5 26
M  V30 28 1 5 27
M  V30 29 1 6 28
M  V30 30 1 8 29
M  V30 31 1 12 30
M  V30 32 1 12 31
M  V30 33 1 16 32
M  V30 34 1 16 33
M  V30 35 1 20 34
M  V30 36 1 20 35
M  V30 END BOND
M  V30 END CTAB
M  END
