
     RDKit          3D

  0  0  0  0  0  0  0  0  0  0999 V3000
M  V30 BEGIN CTAB
M  V30 COUNTS 36 37 0 0 0
M  V30 BEGIN ATOM
M  V30 1 N 7.13771 0.448494 -0.104258 0
M  V30 2 C 5.72798 0.171439 -0.142652 0
M  V30 3 C 5.18399 -0.453626 -1.23727 0
M  V30 4 C 3.82054 -0.711035 -1.25241 0
M  V30 5 C 2.99585 -0.361865 -0.209448 0
M  V30 6 C 3.55063 0.261746 0.878009 0
M  V30 7 C 4.91895 0.523485 0.900307 0
M  V30 8 C 1.58167 -0.66278 -0.295845 0
M  V30 9 O 1.11849 -1.23775 -1.31873 0
M  V30 10 N 0.663032 -0.339837 0.730336 0
M  V30 11 N -0.68345 -0.624297 0.652387 0
M  V30 12 C -1.58999 0.215993 0.303801 0
M  V30 13 C -2.97187 -0.242938 0.271721 0
M  V30 14 C -3.31847 -1.536 0.601725 0
M  V30 15 C -4.59526 -2.00029 0.583618 0
M  V30 16 C -5.61287 -1.14874 0.218612 0
M  V30 17 C -5.32147 0.168658 -0.124917 0
M  V30 18 C -4.01703 0.596252 -0.0930061 0
M  V30 19 N -6.40615 0.99878 -0.491729 0
M  V30 20 C -1.21079 1.58377 -0.0437581 0
M  V30 21 H 7.50319 1.17801 0.533301 0
M  V30 22 H 7.82355 -0.0603696 -0.699794 0
M  V30 23 H 5.79124 -0.736828 -2.05964 0
M  V30 24 H 3.4358 -1.20728 -2.13947 0
M  V30 25 H 2.98141 0.572051 1.74229 0
M  V30 26 H 5.38433 1.01766 1.7522 0
M  V30 27 H 1.02315 0.133335 1.5802 0
M  V30 28 H -2.52016 -2.21928 0.892443 0
M  V30 29 H -4.82829 -3.02074 0.848848 0
M  V30 30 H -6.6233 -1.49831 0.199158 0
M  V30 31 H -3.79713 1.60985 -0.357818 0
M  V30 32 H -7.31088 0.877668 0.012088 0
M  V30 33 H -6.36553 1.72543 -1.23226 0
M  V30 34 H -1.2094 1.79788 -1.13296 0
M  V30 35 H -0.26235 1.91072 0.445884 0
M  V30 36 H -1.99712 2.27074 0.384177 0
M  V30 END ATOM
M  V30 BEGIN BOND
M  V30 1 1 1 2
M  V30 2 2 2 3
M  V30 3 1 3 4
M  V30 4 2 4 5
M  V30 5 1 5 6
M  V30 6 2 6 7
M  V30 7 1 5 8
M  V30 8 2 8 9
M  V30 9 1 8 10
M  V30 10 1 10 11
M  V30 11 2 11 12
M  V30 12 1 12 13
M  V30 13 2 13 14
M  V30 14 1 14 15
M  V30 15 2 15 16
M  V30 16 1 16 17
M  V30 17 2 17 18
M  V30 18 1 17 19
M  V30 19 1 12 20
M  V30 20 1 7 2
M  V30 21 1 18 13
M  V30 22 1 1 21
M  V30 23 1 1 22
M  V30 24 1 3 23
M  V30 25 1 4 24
M  V30 26 1 6 25
M  V30 27 1 7 26
M  V30 28 1 10 27
M  V30 29 1 14 28
M  V30 30 1 15 29
M  V30 31 1 16 30
M  V30 32 1 18 31
M  V30 33 1 19 32
M  V30 34 1 19 33
M  V30 35 1 20 34
M  V30 36 1 20 35
M  V30 37 1 20 36
M  V30 END BOND
M  V30 END CTAB
M  END
