
     RDKit          3D

  0  0  0  0  0  0  0  0  0  0999 V3000
M  V30 BEGIN CTAB
M  V30 COUNTS 27 28 0 0 0
M  V30 BEGIN ATOM
M  V30 1 N 2.96396 2.07248 -1.58552 0
M  V30 2 C 2.27108 1.03875 -0.857847 0
M  V30 3 N 0.927268 1.00338 -0.795095 0
M  V30 4 C 0.265368 0.0320133 -0.111055 0
M  V30 5 C 1.05227 -0.912001 0.512712 0
M  V30 6 C 2.42706 -0.868144 0.443264 0
M  V30 7 N 3.16487 -1.87421 1.11091 0
M  V30 8 N 3.04529 0.116767 -0.248799 0 CHG=1
M  V30 9 O 4.42983 0.171095 -0.325689 0 CHG=-1
M  V30 10 N -1.15403 0.00523448 -0.0520233 0
M  V30 11 C -1.90548 -1.00079 0.658139 0
M  V30 12 C -3.32485 -0.483781 0.747596 0
M  V30 13 C -3.39543 0.752285 -0.110071 0
M  V30 14 C -2.01766 0.97305 -0.689563 0
M  V30 15 H 2.92658 3.02361 -1.14777 0
M  V30 16 H 3.46428 1.87267 -2.48544 0
M  V30 17 H 0.5187 -1.6906 1.06112 0
M  V30 18 H 3.68969 -2.56943 0.577336 0
M  V30 19 H 3.16799 -1.89932 2.14497 0
M  V30 20 H -1.83992 -1.95408 0.101544 0
M  V30 21 H -1.54864 -1.18971 1.67853 0
M  V30 22 H -3.98668 -1.30087 0.394477 0
M  V30 23 H -3.58888 -0.22851 1.79381 0
M  V30 24 H -3.75497 1.6092 0.487987 0
M  V30 25 H -4.11152 0.526077 -0.939273 0
M  V30 26 H -1.66223 2.01768 -0.570601 0
M  V30 27 H -2.02394 0.757167 -1.79366 0
M  V30 END ATOM
M  V30 BEGIN BOND
M  V30 1 1 1 2
M  V30 2 2 2 3
M  V30 3 1 3 4
M  V30 4 2 4 5
M  V30 5 1 5 6
M  V30 6 1 6 7
M  V30 7 2 6 8
M  V30 8 1 8 9
M  V30 9 1 4 10
M  V30 10 1 10 11
M  V30 11 1 11 12
M  V30 12 1 12 13
M  V30 13 1 13 14
M  V30 14 1 8 2
M  V30 15 1 14 10
M  V30 16 1 1 15
M  V30 17 1 1 16
M  V30 18 1 5 17
M  V30 19 1 7 18
M  V30 20 1 7 19
M  V30 21 1 11 20
M  V30 22 1 11 21
M  V30 23 1 12 22
M  V30 24 1 12 23
M  V30 25 1 13 24
M  V30 26 1 13 25
M  V30 27 1 14 26
M  V30 28 1 14 27
M  V30 END BOND
M  V30 END CTAB
M  END
