
     RDKit          3D

  0  0  0  0  0  0  0  0  0  0999 V3000
M  V30 BEGIN CTAB
M  V30 COUNTS 46 49 0 0 0
M  V30 BEGIN ATOM
M  V30 1 C 6.30431 1.58528 0.250606 0
M  V30 2 O 6.3615 0.816723 -0.887907 0
M  V30 3 C 5.90235 -0.466151 -0.731142 0
M  V30 4 C 4.4763 -0.586144 -0.30296 0
M  V30 5 C 3.58424 0.0649149 -1.33743 0
M  V30 6 N 2.18466 -0.0127537 -0.99316 0
M  V30 7 C 1.53547 0.918306 -0.27378 0
M  V30 8 N 2.00971 2.01579 0.227592 0
M  V30 9 C 0.208323 0.488324 -0.15233 0
M  V30 10 C -0.856618 1.08421 0.489205 0
M  V30 11 N -0.711043 2.33248 1.17045 0
M  V30 12 C -2.07321 0.41171 0.439568 0
M  V30 13 C -2.24486 -0.792356 -0.208833 0
M  V30 14 C -3.47288 -1.4422 -0.242195 0
M  V30 15 O -3.60106 -2.53272 -0.837056 0
M  V30 16 C -4.55848 -0.872492 0.38996 0
M  V30 17 C -4.37416 0.332548 1.03539 0
M  V30 18 C -5.46931 0.903671 1.67101 0
M  V30 19 C -6.69472 0.279312 1.65164 0
M  V30 20 C -6.86219 -0.929779 0.999172 0
M  V30 21 C -5.79276 -1.52013 0.35961 0
M  V30 22 C -3.15143 0.975852 1.06644 0
M  V30 23 O -3.00512 2.07381 1.66055 0
M  V30 24 C -1.15577 -1.35792 -0.839566 0
M  V30 25 N -1.33278 -2.5841 -1.49927 0
M  V30 26 C 0.0641934 -0.715517 -0.808274 0
M  V30 27 C 1.31093 -1.0082 -1.32516 0
M  V30 28 O 1.57101 -2.02926 -1.98814 0
M  V30 29 H 5.27784 1.67733 0.617347 0
M  V30 30 H 7.01548 1.22935 1.02969 0
M  V30 31 H 6.64492 2.61316 -0.0198107 0
M  V30 32 H 6.56273 -1.04577 -0.0250617 0
M  V30 33 H 5.99476 -0.974681 -1.72295 0
M  V30 34 H 4.27346 -0.169032 0.694751 0
M  V30 35 H 4.22177 -1.66243 -0.272061 0
M  V30 36 H 3.83411 1.13052 -1.49653 0
M  V30 37 H 3.71621 -0.534047 -2.28114 0
M  V30 38 H 3.00948 2.21657 0.0639544 0
M  V30 39 H -0.371239 2.4092 2.14338 0
M  V30 40 H -0.979734 3.18787 0.600418 0
M  V30 41 H -5.29865 1.84224 2.16615 0
M  V30 42 H -7.51721 0.774095 2.16708 0
M  V30 43 H -7.81058 -1.41719 0.981769 0
M  V30 44 H -5.93417 -2.46443 -0.147022 0
M  V30 45 H -1.16818 -3.4711 -0.997534 0
M  V30 46 H -1.62761 -2.60066 -2.48641 0
M  V30 END ATOM
M  V30 BEGIN BOND
M  V30 1 1 1 2
M  V30 2 1 2 3
M  V30 3 1 3 4
M  V30 4 1 4 5
M  V30 5 1 5 6
M  V30 6 1 6 7
M  V30 7 2 7 8 CFG=2
M  V30 8 1 7 9
M  V30 9 2 9 10
M  V30 10 1 10 11
M  V30 11 1 10 12
M  V30 12 2 12 13
M  V30 13 1 13 14
M  V30 14 2 14 15
M  V30 15 1 14 16
M  V30 16 2 16 17
M  V30 17 1 17 18
M  V30 18 2 18 19
M  V30 19 1 19 20
M  V30 20 2 20 21
M  V30 21 1 17 22
M  V30 22 2 22 23
M  V30 23 1 13 24
M  V30 24 1 24 25
M  V30 25 2 24 26
M  V30 26 1 26 27
M  V30 27 2 27 28
M  V30 28 1 27 6
M  V30 29 1 26 9
M  V30 30 1 22 12
M  V30 31 1 21 16
M  V30 32 1 1 29
M  V30 33 1 1 30
M  V30 34 1 1 31
M  V30 35 1 3 32
M  V30 36 1 3 33
M  V30 37 1 4 34
M  V30 38 1 4 35
M  V30 39 1 5 36
M  V30 40 1 5 37
M  V30 41 1 8 38
M  V30 42 1 11 39
M  V30 43 1 11 40
M  V30 44 1 18 41
M  V30 45 1 19 42
M  V30 46 1 20 43
M  V30 47 1 21 44
M  V30 48 1 25 45
M  V30 49 1 25 46
M  V30 END BOND
M  V30 END CTAB
M  END
