
     RDKit          3D

  0  0  0  0  0  0  0  0  0  0999 V3000
M  V30 BEGIN CTAB
M  V30 COUNTS 24 25 0 0 0
M  V30 BEGIN ATOM
M  V30 1 C 3.00584 0.215788 0.256396 0
M  V30 2 C 1.94965 -0.602375 -0.525608 0
M  V30 3 C 1.97368 -1.96889 0.0423453 0
M  V30 4 S 0.208702 -2.42253 -0.0356335 0
M  V30 5 C -0.37983 -0.738892 0.0105664 0
M  V30 6 C -1.60699 -0.227064 0.272466 0
M  V30 7 N -2.73688 -1.01762 0.644846 0
M  V30 8 N -3.83588 -1.28956 -0.138054 0
M  V30 9 N -1.76478 1.12126 0.200734 0
M  V30 10 C -0.760701 1.95535 -0.113314 0
M  V30 11 N -0.949487 3.36873 -0.193017 0
M  V30 12 N 0.4266 1.38794 -0.356177 0
M  V30 13 C 0.661585 0.0568652 -0.305511 0
M  V30 14 H 3.61591 0.760271 -0.498426 0
M  V30 15 H 3.68512 -0.449886 0.782521 0
M  V30 16 H 2.52906 0.981176 0.878881 0
M  V30 17 H 2.24163 -0.621434 -1.59044 0
M  V30 18 H 2.61307 -2.61946 -0.589497 0
M  V30 19 H 2.24759 -2.03882 1.11993 0
M  V30 20 H -2.73993 -1.44444 1.61328 0
M  V30 21 H -4.63193 -0.718888 0.1621 0
M  V30 22 H -3.68104 -1.43239 -1.1344 0
M  V30 23 H -0.587815 4.038 0.502626 0
M  V30 24 H -1.48315 3.70685 -1.00662 0
M  V30 END ATOM
M  V30 BEGIN BOND
M  V30 1 1 1 2
M  V30 2 1 2 3
M  V30 3 1 3 4
M  V30 4 1 4 5
M  V30 5 2 5 6
M  V30 6 1 6 7
M  V30 7 1 7 8
M  V30 8 1 6 9
M  V30 9 2 9 10
M  V30 10 1 10 11
M  V30 11 1 10 12
M  V30 12 2 12 13
M  V30 13 1 13 2
M  V30 14 1 13 5
M  V30 15 1 1 14
M  V30 16 1 1 15
M  V30 17 1 1 16
M  V30 18 1 2 17
M  V30 19 1 3 18
M  V30 20 1 3 19
M  V30 21 1 7 20
M  V30 22 1 8 21
M  V30 23 1 8 22
M  V30 24 1 11 23
M  V30 25 1 11 24
M  V30 END BOND
M  V30 END CTAB
M  END
