
     RDKit          3D

  0  0  0  0  0  0  0  0  0  0999 V3000
M  V30 BEGIN CTAB
M  V30 COUNTS 30 32 0 0 0
M  V30 BEGIN ATOM
M  V30 1 N 6.23633 0.334046 0.466645 0
M  V30 2 C 4.97709 0.313069 -0.145754 0
M  V30 3 N 4.7348 0.745448 -1.40241 0
M  V30 4 N 3.45311 0.590841 -1.67797 0
M  V30 5 N 2.82574 0.0677213 -0.645251 0
M  V30 6 C 3.74834 -0.110478 0.308529 0
M  V30 7 C 1.37294 -0.260136 -0.559294 0
M  V30 8 C 0.623378 0.86814 -0.054382 0
M  V30 9 O 1.27915 1.93894 0.234393 0
M  V30 10 N -0.74948 0.925029 0.157021 0
M  V30 11 C -1.45034 2.01172 0.640386 0
M  V30 12 N -2.74627 1.74582 0.726502 0
M  V30 13 C -2.93956 0.470581 0.30075 0
M  V30 14 C -1.68851 -0.0101103 -0.0441363 0
M  V30 15 C -1.65879 -1.32526 -0.515121 0
M  V30 16 C -2.83182 -2.0591 -0.612231 0
M  V30 17 C -4.06213 -1.56186 -0.264361 0
M  V30 18 C -4.09893 -0.270144 0.199294 0
M  V30 19 N -5.36411 0.26914 0.566955 0
M  V30 20 H 6.3486 0.677821 1.43568 0
M  V30 21 H 7.07143 0.00394882 -0.0472817 0
M  V30 22 H 3.57565 -0.522283 1.29165 0
M  V30 23 H 1.11435 -0.615098 -1.56566 0
M  V30 24 H 1.28379 -1.12822 0.141717 0
M  V30 25 H -0.987984 2.97314 0.917267 0
M  V30 26 H -0.717752 -1.75396 -0.798372 0
M  V30 27 H -2.75663 -3.05933 -0.977764 0
M  V30 28 H -4.96925 -2.14992 -0.34676 0
M  V30 29 H -5.8835 0.896253 -0.05136 0
M  V30 30 H -5.73967 -0.005749 1.50079 0
M  V30 END ATOM
M  V30 BEGIN BOND
M  V30 1 1 1 2
M  V30 2 1 2 3
M  V30 3 2 3 4
M  V30 4 1 4 5
M  V30 5 1 5 6
M  V30 6 1 5 7
M  V30 7 1 7 8
M  V30 8 2 8 9
M  V30 9 1 8 10
M  V30 10 1 10 11
M  V30 11 2 11 12
M  V30 12 1 12 13
M  V30 13 2 13 14
M  V30 14 1 14 15
M  V30 15 2 15 16
M  V30 16 1 16 17
M  V30 17 2 17 18
M  V30 18 1 18 19
M  V30 19 2 6 2
M  V30 20 1 14 10
M  V30 21 1 18 13
M  V30 22 1 1 20
M  V30 23 1 1 21
M  V30 24 1 6 22
M  V30 25 1 7 23
M  V30 26 1 7 24
M  V30 27 1 11 25
M  V30 28 1 15 26
M  V30 29 1 16 27
M  V30 30 1 17 28
M  V30 31 1 19 29
M  V30 32 1 19 30
M  V30 END BOND
M  V30 END CTAB
M  END
