
     RDKit          3D

  0  0  0  0  0  0  0  0  0  0999 V3000
M  V30 BEGIN CTAB
M  V30 COUNTS 30 31 0 0 0
M  V30 BEGIN ATOM
M  V30 1 N 4.18441 1.54729 0.574108 0
M  V30 2 C 3.72905 0.208307 0.329943 0
M  V30 3 C 2.23236 0.16182 0.173143 0
M  V30 4 C 1.47786 1.3105 0.279826 0
M  V30 5 N 0.121228 1.27412 0.139588 0
M  V30 6 C -0.510502 0.109449 -0.111064 0
M  V30 7 N 0.22381 -1.01441 -0.212628 0
M  V30 8 C 1.57602 -1.0208 -0.0789171 0
M  V30 9 N 2.36264 -2.19362 -0.175135 0
M  V30 10 C -1.99412 0.0827697 -0.26279 0
M  V30 11 C -2.51601 -0.291578 -1.62153 0
M  V30 12 C -2.72911 1.17733 0.468986 0
M  V30 13 C -3.6885 0.0832528 0.954607 0
M  V30 14 C -2.55062 -0.898339 0.779392 0
M  V30 15 H 4.03891 2.09032 -0.308614 0
M  V30 16 H 5.17799 1.50326 0.883073 0
M  V30 17 H 3.97435 -0.389109 1.23834 0
M  V30 18 H 4.24923 -0.24787 -0.509232 0
M  V30 19 H 2.01344 2.22026 0.486743 0
M  V30 20 H 2.2273 -2.78302 -1.07091 0
M  V30 21 H 3.04734 -2.51893 0.532211 0
M  V30 22 H -3.58926 -0.0323647 -1.65316 0
M  V30 23 H -2.44978 -1.37092 -1.79827 0
M  V30 24 H -1.97865 0.273859 -2.42906 0
M  V30 25 H -2.14312 1.61715 1.27544 0
M  V30 26 H -3.19443 1.87562 -0.254237 0
M  V30 27 H -4.04374 0.228087 1.99165 0
M  V30 28 H -4.48743 -0.118002 0.217798 0
M  V30 29 H -1.9209 -1.02419 1.67489 0
M  V30 30 H -2.83979 -1.86024 0.340648 0
M  V30 END ATOM
M  V30 BEGIN BOND
M  V30 1 1 1 2
M  V30 2 1 2 3
M  V30 3 2 3 4
M  V30 4 1 4 5
M  V30 5 2 5 6
M  V30 6 1 6 7
M  V30 7 2 7 8
M  V30 8 1 8 9
M  V30 9 1 6 10
M  V30 10 1 10 11
M  V30 11 1 10 12
M  V30 12 1 12 13
M  V30 13 1 13 14
M  V30 14 1 8 3
M  V30 15 1 14 10
M  V30 16 1 1 15
M  V30 17 1 1 16
M  V30 18 1 2 17
M  V30 19 1 2 18
M  V30 20 1 4 19
M  V30 21 1 9 20
M  V30 22 1 9 21
M  V30 23 1 11 22
M  V30 24 1 11 23
M  V30 25 1 11 24
M  V30 26 1 12 25
M  V30 27 1 12 26
M  V30 28 1 13 27
M  V30 29 1 13 28
M  V30 30 1 14 29
M  V30 31 1 14 30
M  V30 END BOND
M  V30 END CTAB
M  END
