
     RDKit          3D

  0  0  0  0  0  0  0  0  0  0999 V3000
M  V30 BEGIN CTAB
M  V30 COUNTS 78 79 0 0 0
M  V30 BEGIN ATOM
M  V30 1 C 3.73939 -0.557624 0.534646 0 CFG=1
M  V30 2 N 3.73729 -0.279836 1.94108 0
M  V30 3 C 5.08555 -0.502412 -0.0984201 0
M  V30 4 C 5.79404 0.772185 -0.00710326 0
M  V30 5 C 5.38521 1.82858 -0.801592 0
M  V30 6 C 4.24179 1.74611 -1.75267 0
M  V30 7 C 6.09039 3.01466 -0.68631 0
M  V30 8 C 7.15873 3.18393 0.167601 0
M  V30 9 O 7.85942 4.36858 0.279768 0
M  V30 10 C 7.55955 2.12586 0.955763 0
M  V30 11 C 6.86144 0.916643 0.855959 0
M  V30 12 C 7.34483 -0.190449 1.72342 0
M  V30 13 C 3.26752 -1.98236 0.388679 0
M  V30 14 O 3.20602 -2.40919 -0.789498 0
M  V30 15 N 2.92343 -2.77241 1.4904 0
M  V30 16 C 2.47203 -4.1382 1.40783 0
M  V30 17 C 1.20858 -4.31751 0.602003 0
M  V30 18 C 0.0587914 -3.52071 1.17668 0
M  V30 19 C -1.20467 -3.6975 0.406246 0
M  V30 20 C -1.13307 -3.29959 -1.034 0
M  V30 21 C -0.778548 -1.8711 -1.28243 0
M  V30 22 N -1.72054 -0.980377 -0.683144 0
M  V30 23 C -3.08465 -0.915172 -0.979538 0
M  V30 24 O -3.59439 -1.67167 -1.83075 0
M  V30 25 C -3.98526 0.0702977 -0.281261 0 CFG=1
M  V30 26 N -3.27599 0.971888 0.555452 0
M  V30 27 C -4.89827 0.651722 -1.30356 0
M  V30 28 C -5.8664 1.64635 -0.834781 0
M  V30 29 C -5.6296 2.98275 -0.630836 0
M  V30 30 C -4.31779 3.58311 -0.953025 0
M  V30 31 C -6.62274 3.84169 -0.145679 0
M  V30 32 C -7.87578 3.3906 0.146619 0
M  V30 33 O -8.8578 4.25386 0.62906 0
M  V30 34 C -8.13939 2.05366 -0.0506264 0
M  V30 35 C -7.16359 1.20824 -0.526909 0
M  V30 36 C -7.49893 -0.218697 -0.724855 0
M  V30 37 H 2.96854 0.0632259 0.0407444 0
M  V30 38 H 2.8001 -0.279328 2.35218 0
M  V30 39 H 4.32326 0.541138 2.20831 0
M  V30 40 H 5.69852 -1.30625 0.406218 0
M  V30 41 H 4.96584 -0.785138 -1.1757 0
M  V30 42 H 4.47549 2.46335 -2.59433 0
M  V30 43 H 3.30066 2.08881 -1.29971 0
M  V30 44 H 4.18421 0.753972 -2.2403 0
M  V30 45 H 5.78245 3.85711 -1.30434 0
M  V30 46 H 7.69331 5.21202 -0.215875 0
M  V30 47 H 8.39701 2.23575 1.63474 0
M  V30 48 H 8.35221 0.0687556 2.1644 0
M  V30 49 H 7.58015 -1.11482 1.11521 0
M  V30 50 H 6.70069 -0.386146 2.57931 0
M  V30 51 H 3.00389 -2.32478 2.44422 0
M  V30 52 H 2.3486 -4.53192 2.43893 0
M  V30 53 H 3.25404 -4.74232 0.852191 0
M  V30 54 H 1.40575 -4.09353 -0.449254 0
M  V30 55 H 0.922378 -5.39515 0.719609 0
M  V30 56 H -0.121196 -3.87803 2.21271 0
M  V30 57 H 0.307045 -2.44601 1.21126 0
M  V30 58 H -1.98478 -3.06987 0.883912 0
M  V30 59 H -1.58623 -4.7424 0.438038 0
M  V30 60 H -0.420936 -3.9777 -1.59447 0
M  V30 61 H -2.11675 -3.53077 -1.48433 0
M  V30 62 H 0.271781 -1.64803 -0.977473 0
M  V30 63 H -0.774955 -1.7406 -2.4068 0
M  V30 64 H -1.32603 -0.320681 0.0521371 0
M  V30 65 H -4.56971 -0.603962 0.439319 0
M  V30 66 H -2.41265 1.35991 0.127127 0
M  V30 67 H -3.05566 0.643666 1.50056 0
M  V30 68 H -4.30346 1.04167 -2.18587 0
M  V30 69 H -5.45496 -0.219877 -1.76508 0
M  V30 70 H -3.73324 3.89183 -0.0637958 0
M  V30 71 H -3.7086 2.98115 -1.65886 0
M  V30 72 H -4.48837 4.55264 -1.50944 0
M  V30 73 H -6.40407 4.89252 0.00528165 0
M  V30 74 H -8.62061 5.22798 0.758376 0
M  V30 75 H -9.13654 1.70451 0.183628 0
M  V30 76 H -6.84173 -0.920912 -0.202962 0
M  V30 77 H -8.53272 -0.425524 -0.365643 0
M  V30 78 H -7.48929 -0.382167 -1.83806 0
M  V30 END ATOM
M  V30 BEGIN BOND
M  V30 1 1 1 2
M  V30 2 1 1 3
M  V30 3 1 3 4
M  V30 4 2 4 5
M  V30 5 1 5 6
M  V30 6 1 5 7
M  V30 7 2 7 8
M  V30 8 1 8 9
M  V30 9 1 8 10
M  V30 10 2 10 11
M  V30 11 1 11 12
M  V30 12 1 1 13
M  V30 13 2 13 14
M  V30 14 1 13 15
M  V30 15 1 15 16
M  V30 16 1 16 17
M  V30 17 1 17 18
M  V30 18 1 18 19
M  V30 19 1 19 20
M  V30 20 1 20 21
M  V30 21 1 21 22
M  V30 22 1 22 23
M  V30 23 2 23 24
M  V30 24 1 23 25
M  V30 25 1 25 26
M  V30 26 1 25 27
M  V30 27 1 27 28
M  V30 28 2 28 29
M  V30 29 1 29 30
M  V30 30 1 29 31
M  V30 31 2 31 32
M  V30 32 1 32 33
M  V30 33 1 32 34
M  V30 34 2 34 35
M  V30 35 1 35 36
M  V30 36 1 11 4
M  V30 37 1 35 28
M  V30 38 1 1 37 CFG=3
M  V30 39 1 2 38
M  V30 40 1 2 39
M  V30 41 1 3 40
M  V30 42 1 3 41
M  V30 43 1 6 42
M  V30 44 1 6 43
M  V30 45 1 6 44
M  V30 46 1 7 45
M  V30 47 1 9 46
M  V30 48 1 10 47
M  V30 49 1 12 48
M  V30 50 1 12 49
M  V30 51 1 12 50
M  V30 52 1 15 51
M  V30 53 1 16 52
M  V30 54 1 16 53
M  V30 55 1 17 54
M  V30 56 1 17 55
M  V30 57 1 18 56
M  V30 58 1 18 57
M  V30 59 1 19 58
M  V30 60 1 19 59
M  V30 61 1 20 60
M  V30 62 1 20 61
M  V30 63 1 21 62
M  V30 64 1 21 63
M  V30 65 1 22 64
M  V30 66 1 25 65 CFG=1
M  V30 67 1 26 66
M  V30 68 1 26 67
M  V30 69 1 27 68
M  V30 70 1 27 69
M  V30 71 1 30 70
M  V30 72 1 30 71
M  V30 73 1 30 72
M  V30 74 1 31 73
M  V30 75 1 33 74
M  V30 76 1 34 75
M  V30 77 1 36 76
M  V30 78 1 36 77
M  V30 79 1 36 78
M  V30 END BOND
M  V30 END CTAB
M  END
