
     RDKit          3D

  0  0  0  0  0  0  0  0  0  0999 V3000
M  V30 BEGIN CTAB
M  V30 COUNTS 30 30 0 0 0
M  V30 BEGIN ATOM
M  V30 1 N 3.4999 1.74754 0.974423 0
M  V30 2 C 2.91136 0.516976 0.508097 0
M  V30 3 N 3.4665 -0.667974 0.814347 0
M  V30 4 C 2.90245 -1.80518 0.369828 0
M  V30 5 C 1.75 -1.76418 -0.403703 0
M  V30 6 C 1.14802 -0.568224 -0.74085 0
M  V30 7 C 1.76274 0.567751 -0.262292 0
M  V30 8 C -0.0417542 -0.542384 -1.5751 0
M  V30 9 C -1.36705 -0.680518 -0.956312 0
M  V30 10 C -1.84113 0.281994 0.0426142 0
M  V30 11 N -1.91325 1.65026 -0.375415 0
M  V30 12 C -3.332 -0.100206 0.319488 0
M  V30 13 C -1.18707 0.208373 1.38653 0
M  V30 14 F -1.57044 -1.96106 -0.414956 0
M  V30 15 H 3.39795 2.57606 0.352485 0
M  V30 16 H 4.00018 1.8113 1.88108 0
M  V30 17 H 3.3316 -2.78197 0.603099 0
M  V30 18 H 1.28433 -2.66852 -0.76872 0
M  V30 19 H 1.35936 1.54167 -0.478391 0
M  V30 20 H 0.00391194 -1.33554 -2.39545 0
M  V30 21 H -0.0599654 0.402839 -2.19223 0
M  V30 22 H -2.11762 -0.657948 -1.81294 0
M  V30 23 H -2.02193 1.81039 -1.37324 0
M  V30 24 H -1.29734 2.29732 0.138701 0
M  V30 25 H -3.75853 0.649927 0.990387 0
M  V30 26 H -3.89607 -0.0903726 -0.622023 0
M  V30 27 H -3.29926 -1.11279 0.75851 0
M  V30 28 H -0.502483 -0.669 1.4804 0
M  V30 29 H -0.656653 1.18437 1.55471 0
M  V30 30 H -1.95577 0.159097 2.19693 0
M  V30 END ATOM
M  V30 BEGIN BOND
M  V30 1 1 1 2
M  V30 2 2 2 3
M  V30 3 1 3 4
M  V30 4 2 4 5
M  V30 5 1 5 6
M  V30 6 2 6 7
M  V30 7 1 6 8
M  V30 8 1 8 9
M  V30 9 1 9 10
M  V30 10 1 10 11
M  V30 11 1 10 12
M  V30 12 1 10 13
M  V30 13 1 9 14
M  V30 14 1 7 2
M  V30 15 1 1 15
M  V30 16 1 1 16
M  V30 17 1 4 17
M  V30 18 1 5 18
M  V30 19 1 7 19
M  V30 20 1 8 20
M  V30 21 1 8 21
M  V30 22 1 9 22
M  V30 23 1 11 23
M  V30 24 1 11 24
M  V30 25 1 12 25
M  V30 26 1 12 26
M  V30 27 1 12 27
M  V30 28 1 13 28
M  V30 29 1 13 29
M  V30 30 1 13 30
M  V30 END BOND
M  V30 END CTAB
M  END
