
     RDKit          3D

  0  0  0  0  0  0  0  0  0  0999 V3000
M  V30 BEGIN CTAB
M  V30 COUNTS 23 23 0 0 0
M  V30 BEGIN ATOM
M  V30 1 N -1.33791 -1.93181 0.283737 0
M  V30 2 C -0.598074 -0.78395 -0.263024 0
M  V30 3 C -1.07131 0.427078 0.441058 0
M  V30 4 N -2.39313 0.773285 -0.106582 0
M  V30 5 C -0.176782 1.59554 0.432086 0
M  V30 6 C 1.19399 1.36873 -0.104879 0
M  V30 7 C 1.68666 0.0322318 0.391672 0
M  V30 8 C 0.859132 -1.03675 -0.242821 0
M  V30 9 O 1.3644 -1.22591 -1.54989 0
M  V30 10 H -1.20484 -2.00981 1.31653 0
M  V30 11 H -1.16829 -2.79623 -0.238026 0
M  V30 12 H -0.936997 -0.718746 -1.33285 0
M  V30 13 H -1.28736 0.137859 1.51118 0
M  V30 14 H -2.39244 1.67998 -0.586526 0
M  V30 15 H -2.76314 0.00282274 -0.71307 0
M  V30 16 H -0.650893 2.41395 -0.161786 0
M  V30 17 H -0.0564554 2.02623 1.46884 0
M  V30 18 H 1.18938 1.34531 -1.20159 0
M  V30 19 H 1.87524 2.15451 0.300509 0
M  V30 20 H 1.68811 -0.0351282 1.49802 0
M  V30 21 H 2.74383 -0.0932461 0.0487873 0
M  V30 22 H 1.09172 -1.99516 0.290932 0
M  V30 23 H 2.34516 -1.3308 -1.4823 0
M  V30 END ATOM
M  V30 BEGIN BOND
M  V30 1 1 1 2
M  V30 2 1 2 3
M  V30 3 1 3 4
M  V30 4 1 3 5
M  V30 5 1 5 6
M  V30 6 1 6 7
M  V30 7 1 7 8
M  V30 8 1 8 9
M  V30 9 1 8 2
M  V30 10 1 1 10
M  V30 11 1 1 11
M  V30 12 1 2 12
M  V30 13 1 3 13
M  V30 14 1 4 14
M  V30 15 1 4 15
M  V30 16 1 5 16
M  V30 17 1 5 17
M  V30 18 1 6 18
M  V30 19 1 6 19
M  V30 20 1 7 20
M  V30 21 1 7 21
M  V30 22 1 8 22
M  V30 23 1 9 23
M  V30 END BOND
M  V30 END CTAB
M  END
