
     RDKit          3D

  0  0  0  0  0  0  0  0  0  0999 V3000
M  V30 BEGIN CTAB
M  V30 COUNTS 59 62 0 0 0
M  V30 BEGIN ATOM
M  V30 1 C 1.02197 3.22172 2.86456 0
M  V30 2 C 0.281692 1.921 2.96402 0
M  V30 3 N 0.578799 0.991449 1.8988 0
M  V30 4 C 1.60124 0.0365208 1.96873 0
M  V30 5 C 1.32067 -1.19249 2.52568 0
M  V30 6 O 0.179705 -1.42074 2.95326 0
M  V30 7 N 2.27261 -2.14271 2.60967 0
M  V30 8 C 3.50756 -1.86326 2.13563 0
M  V30 9 O 4.37642 -2.77069 2.23313 0
M  V30 10 N 3.86513 -0.692518 1.57735 0
M  V30 11 C 2.89301 0.256655 1.50138 0
M  V30 12 N 3.21685 1.51656 0.954505 0
M  V30 13 C 5.18351 -0.474934 1.07887 0
M  V30 14 C 5.42054 -0.749607 -0.342096 0
M  V30 15 C 5.57899 -2.00578 -0.844417 0
M  V30 16 C 5.8212 -2.24031 -2.21036 0
M  V30 17 C 5.90362 -1.17582 -3.07886 0
M  V30 18 C 5.74971 0.100493 -2.60472 0
M  V30 19 C 5.50977 0.294415 -1.23603 0
M  V30 20 C -0.239478 1.05678 0.709562 0
M  V30 21 O -1.15205 1.94496 0.674519 0
M  V30 22 C 0.0367445 0.10499 -0.361057 0
M  V30 23 S -0.937261 0.100476 -1.82579 0
M  V30 24 C -2.58031 -0.449376 -1.57497 0
M  V30 25 N -2.96039 -1.72786 -1.48849 0
M  V30 26 N -4.24522 -1.78939 -1.38759 0
M  V30 27 C -4.76295 -0.518549 -1.40519 0
M  V30 28 N -3.71716 0.283295 -1.52343 0
M  V30 29 N -3.7006 1.67468 -1.68361 0
M  V30 30 C -6.19073 -0.261686 -1.37048 0
M  V30 31 C -7.05014 -1.30882 -1.79512 0
M  V30 32 C -8.40056 -1.2293 -1.77866 0
M  V30 33 C -9.00025 -0.0826409 -1.33085 0
M  V30 34 C -8.19111 0.963712 -0.906284 0
M  V30 35 C -6.7938 0.874732 -0.924876 0
M  V30 36 F -6.13381 1.92494 -0.45106 0
M  V30 37 H 1.07043 3.61894 1.84396 0
M  V30 38 H 0.490203 3.97268 3.4984 0
M  V30 39 H 2.05462 3.05496 3.28441 0
M  V30 40 H 0.403179 1.4463 3.97118 0
M  V30 41 H -0.817852 2.16401 2.91572 0
M  V30 42 H 2.08931 -3.08905 3.02841 0
M  V30 43 H 2.85548 1.85109 0.0327525 0
M  V30 44 H 3.84718 2.16971 1.47065 0
M  V30 45 H 5.93324 -1.12554 1.63459 0
M  V30 46 H 5.56077 0.555765 1.27933 0
M  V30 47 H 5.54258 -2.9055 -0.260483 0
M  V30 48 H 5.94413 -3.24078 -2.60136 0
M  V30 49 H 6.09187 -1.35348 -4.14954 0
M  V30 50 H 5.8115 0.950104 -3.26967 0
M  V30 51 H 5.41949 1.33667 -0.963291 0
M  V30 52 H 1.12222 0.148859 -0.677725 0
M  V30 53 H 0.000529793 -0.931325 0.143365 0
M  V30 54 H -3.3429 2.28858 -0.960597 0
M  V30 55 H -4.07883 2.03419 -2.59137 0
M  V30 56 H -6.54269 -2.20265 -2.147 0
M  V30 57 H -8.95876 -2.09148 -2.12612 0
M  V30 58 H -10.0755 -0.0391056 -1.32757 0
M  V30 59 H -8.68411 1.86246 -0.55378 0
M  V30 END ATOM
M  V30 BEGIN BOND
M  V30 1 1 1 2
M  V30 2 1 2 3
M  V30 3 1 3 4
M  V30 4 1 4 5
M  V30 5 2 5 6
M  V30 6 1 5 7
M  V30 7 1 7 8
M  V30 8 2 8 9
M  V30 9 1 8 10
M  V30 10 1 10 11
M  V30 11 1 11 12
M  V30 12 1 10 13
M  V30 13 1 13 14
M  V30 14 2 14 15
M  V30 15 1 15 16
M  V30 16 2 16 17
M  V30 17 1 17 18
M  V30 18 2 18 19
M  V30 19 1 3 20
M  V30 20 2 20 21
M  V30 21 1 20 22
M  V30 22 1 22 23
M  V30 23 1 23 24
M  V30 24 2 24 25
M  V30 25 1 25 26
M  V30 26 2 26 27
M  V30 27 1 27 28
M  V30 28 1 28 29
M  V30 29 1 27 30
M  V30 30 2 30 31
M  V30 31 1 31 32
M  V30 32 2 32 33
M  V30 33 1 33 34
M  V30 34 2 34 35
M  V30 35 1 35 36
M  V30 36 2 11 4
M  V30 37 1 19 14
M  V30 38 1 28 24
M  V30 39 1 35 30
M  V30 40 1 1 37
M  V30 41 1 1 38
M  V30 42 1 1 39
M  V30 43 1 2 40
M  V30 44 1 2 41
M  V30 45 1 7 42
M  V30 46 1 12 43
M  V30 47 1 12 44
M  V30 48 1 13 45
M  V30 49 1 13 46
M  V30 50 1 15 47
M  V30 51 1 16 48
M  V30 52 1 17 49
M  V30 53 1 18 50
M  V30 54 1 19 51
M  V30 55 1 22 52
M  V30 56 1 22 53
M  V30 57 1 29 54
M  V30 58 1 29 55
M  V30 59 1 31 56
M  V30 60 1 32 57
M  V30 61 1 33 58
M  V30 62 1 34 59
M  V30 END BOND
M  V30 END CTAB
M  END
