
     RDKit          3D

  0  0  0  0  0  0  0  0  0  0999 V3000
M  V30 BEGIN CTAB
M  V30 COUNTS 21 21 0 0 0
M  V30 BEGIN ATOM
M  V30 1 N -3.80772 0.495764 0.0881505 0
M  V30 2 C -2.41181 0.321677 -0.142862 0
M  V30 3 C -1.60362 -0.252848 0.836159 0
M  V30 4 C -0.259262 -0.40283 0.572227 0
M  V30 5 C 0.317487 -0.00917495 -0.61697 0
M  V30 6 C -0.524975 0.552277 -1.54949 0
M  V30 7 C -1.87842 0.729298 -1.3448 0
M  V30 8 F 0.0093133 0.959348 -2.75108 0
M  V30 9 N 1.68925 -0.145353 -0.918493 0
M  V30 10 S 2.84277 -0.963601 0.0449901 0
M  V30 11 O 4.01816 -1.43774 -0.804503 0
M  V30 12 O 2.29114 -2.20751 0.670741 0
M  V30 13 N 3.52119 0.122138 1.21531 0
M  V30 14 H -4.46127 0.401852 -0.711115 0
M  V30 15 H -4.14701 0.712587 1.04697 0
M  V30 16 H -2.06652 -0.561647 1.77367 0
M  V30 17 H 0.368108 -0.85389 1.34879 0
M  V30 18 H -2.49777 1.17869 -2.11627 0
M  V30 19 H 2.04862 0.281977 -1.79626 0
M  V30 20 H 3.1271 -0.0340324 2.17063 0
M  V30 21 H 3.42524 1.11301 0.923614 0
M  V30 END ATOM
M  V30 BEGIN BOND
M  V30 1 1 1 2
M  V30 2 2 2 3
M  V30 3 1 3 4
M  V30 4 2 4 5
M  V30 5 1 5 6
M  V30 6 2 6 7
M  V30 7 1 6 8
M  V30 8 1 5 9
M  V30 9 1 9 10
M  V30 10 2 10 11
M  V30 11 2 10 12
M  V30 12 1 10 13
M  V30 13 1 7 2
M  V30 14 1 1 14
M  V30 15 1 1 15
M  V30 16 1 3 16
M  V30 17 1 4 17
M  V30 18 1 7 18
M  V30 19 1 9 19
M  V30 20 1 13 20
M  V30 21 1 13 21
M  V30 END BOND
M  V30 END CTAB
M  END
