
     RDKit          3D

  0  0  0  0  0  0  0  0  0  0999 V3000
M  V30 BEGIN CTAB
M  V30 COUNTS 30 29 0 0 0
M  V30 BEGIN ATOM
M  V30 1 C -0.41822 -1.29811 -0.482989 0 CFG=1
M  V30 2 N -0.0726416 -1.3972 -1.88094 0
M  V30 3 C 0.538364 -0.337596 0.169822 0
M  V30 4 C 1.93862 -0.925955 -0.0246087 0
M  V30 5 C 2.99155 -0.0466745 0.591288 0
M  V30 6 C 3.00189 1.32747 -0.0105076 0
M  V30 7 N 4.06191 2.07954 0.668688 0
M  V30 8 C -1.83028 -0.880805 -0.371207 0
M  V30 9 O -2.55127 -0.665338 -1.39264 0
M  V30 10 O -2.45748 -0.698064 0.85492 0
M  V30 11 C -3.78771 -0.305087 1.01439 0
M  V30 12 C -4.11157 1.02935 0.406628 0
M  V30 13 H -0.304761 -2.28622 -0.0076032 0
M  V30 14 H -0.82358 -0.977584 -2.48965 0
M  V30 15 H 0.131427 -2.35842 -2.18354 0
M  V30 16 H 0.513935 0.598306 -0.398191 0
M  V30 17 H 0.334595 -0.19283 1.24095 0
M  V30 18 H 1.98144 -1.90763 0.508994 0
M  V30 19 H 2.14577 -1.07825 -1.08479 0
M  V30 20 H 3.96621 -0.515146 0.40874 0
M  V30 21 H 2.81511 -0.00834694 1.70163 0
M  V30 22 H 3.30379 1.22871 -1.07161 0
M  V30 23 H 2.0321 1.85863 0.118241 0
M  V30 24 H 4.03334 1.85121 1.68327 0
M  V30 25 H 3.87711 3.10824 0.528593 0
M  V30 26 H -4.51501 -1.04006 0.574316 0
M  V30 27 H -4.00847 -0.290748 2.10074 0
M  V30 28 H -5.12121 1.32612 0.815692 0
M  V30 29 H -4.25128 0.975325 -0.689728 0
M  V30 30 H -3.4137 1.82718 0.725298 0
M  V30 END ATOM
M  V30 BEGIN BOND
M  V30 1 1 1 2
M  V30 2 1 1 3
M  V30 3 1 3 4
M  V30 4 1 4 5
M  V30 5 1 5 6
M  V30 6 1 6 7
M  V30 7 1 1 8
M  V30 8 2 8 9
M  V30 9 1 8 10
M  V30 10 1 10 11
M  V30 11 1 11 12
M  V30 12 1 1 13 CFG=1
M  V30 13 1 2 14
M  V30 14 1 2 15
M  V30 15 1 3 16
M  V30 16 1 3 17
M  V30 17 1 4 18
M  V30 18 1 4 19
M  V30 19 1 5 20
M  V30 20 1 5 21
M  V30 21 1 6 22
M  V30 22 1 6 23
M  V30 23 1 7 24
M  V30 24 1 7 25
M  V30 25 1 11 26
M  V30 26 1 11 27
M  V30 27 1 12 28
M  V30 28 1 12 29
M  V30 29 1 12 30
M  V30 END BOND
M  V30 END CTAB
M  END
