
     RDKit          3D

  0  0  0  0  0  0  0  0  0  0999 V3000
M  V30 BEGIN CTAB
M  V30 COUNTS 27 28 0 0 0
M  V30 BEGIN ATOM
M  V30 1 N 4.0316 1.2835 -1.15538 0
M  V30 2 C 3.0192 0.585364 -0.483903 0
M  V30 3 C 1.72976 0.621132 -0.961928 0
M  V30 4 C 0.701848 -0.0595278 -0.320805 0
M  V30 5 N -0.624053 -0.0319878 -0.799045 0
M  V30 6 C -1.66033 -0.754396 -0.100585 0
M  V30 7 C -3.00158 -0.586147 -0.78671 0
M  V30 8 C -3.41454 0.771766 -0.245608 0
M  V30 9 C -2.83894 0.783722 1.11774 0
M  V30 10 C -1.85787 -0.0731348 1.19319 0
M  V30 11 N 1.01397 -0.760972 0.793479 0
M  V30 12 C 2.26873 -0.804261 1.27088 0
M  V30 13 N 3.24736 -0.131873 0.625376 0
M  V30 14 N 2.5716 -1.54977 2.44558 0
M  V30 15 H 4.77195 0.760397 -1.67421 0
M  V30 16 H 4.08977 2.30954 -1.16743 0
M  V30 17 H 1.45803 1.17308 -1.84736 0
M  V30 18 H -0.876257 0.498312 -1.6468 0
M  V30 19 H -1.40329 -1.83212 0.0231739 0
M  V30 20 H -3.68046 -1.37355 -0.398613 0
M  V30 21 H -2.91333 -0.600477 -1.87751 0
M  V30 22 H -4.51478 0.788307 -0.162193 0
M  V30 23 H -3.09338 1.60455 -0.872561 0
M  V30 24 H -3.15328 1.39619 1.95963 0
M  V30 25 H -1.21648 -0.317139 2.05606 0
M  V30 26 H 1.97244 -2.36129 2.71144 0
M  V30 27 H 3.37232 -1.33922 3.08023 0
M  V30 END ATOM
M  V30 BEGIN BOND
M  V30 1 1 1 2
M  V30 2 2 2 3
M  V30 3 1 3 4
M  V30 4 1 4 5
M  V30 5 1 5 6
M  V30 6 1 6 7
M  V30 7 1 7 8
M  V30 8 1 8 9
M  V30 9 2 9 10
M  V30 10 2 4 11
M  V30 11 1 11 12
M  V30 12 2 12 13
M  V30 13 1 12 14
M  V30 14 1 13 2
M  V30 15 1 10 6
M  V30 16 1 1 15
M  V30 17 1 1 16
M  V30 18 1 3 17
M  V30 19 1 5 18
M  V30 20 1 6 19
M  V30 21 1 7 20
M  V30 22 1 7 21
M  V30 23 1 8 22
M  V30 24 1 8 23
M  V30 25 1 9 24
M  V30 26 1 10 25
M  V30 27 1 14 26
M  V30 28 1 14 27
M  V30 END BOND
M  V30 END CTAB
M  END
