
     RDKit          3D

  0  0  0  0  0  0  0  0  0  0999 V3000
M  V30 BEGIN CTAB
M  V30 COUNTS 38 39 0 0 0
M  V30 BEGIN ATOM
M  V30 1 N 3.1966 1.90906 -1.94524 0
M  V30 2 C 3.86144 1.17845 -0.908541 0
M  V30 3 C 3.05575 -0.0460959 -0.472772 0
M  V30 4 N 1.77774 0.290744 0.0299871 0
M  V30 5 C 1.68336 0.978395 1.24568 0
M  V30 6 C 1.57292 0.0328302 2.42467 0
M  V30 7 O 1.29596 -1.23911 1.87697 0
M  V30 8 C -0.00464229 -1.3508 1.47681 0
M  V30 9 C -0.234221 -1.17693 -0.0146999 0 CFG=2
M  V30 10 C 0.636335 -0.1523 -0.638329 0
M  V30 11 C -1.6731 -0.990921 -0.18043 0
M  V30 12 C -2.38754 -1.95858 -0.852315 0
M  V30 13 C -3.76287 -1.83185 -1.03743 0
M  V30 14 C -4.45025 -0.739441 -0.556756 0
M  V30 15 C -3.73647 0.238255 0.120324 0
M  V30 16 C -2.38703 0.0826952 0.284717 0
M  V30 17 N -4.43701 1.37719 0.624492 0
M  V30 18 H 2.84941 2.83975 -1.62978 0
M  V30 19 H 3.83247 2.09098 -2.74898 0
M  V30 20 H 4.87437 0.857496 -1.2228 0
M  V30 21 H 4.00501 1.87578 -0.04687 0
M  V30 22 H 3.71321 -0.601821 0.219933 0
M  V30 23 H 2.92794 -0.690117 -1.36713 0
M  V30 24 H 2.60142 1.58159 1.41082 0
M  V30 25 H 0.843251 1.70797 1.22488 0
M  V30 26 H 2.52904 -0.0803532 2.97642 0
M  V30 27 H 0.807309 0.337719 3.14799 0
M  V30 28 H -0.363608 -2.36911 1.81074 0
M  V30 29 H -0.611467 -0.635756 2.07753 0
M  V30 30 H 0.0246077 -2.16311 -0.450972 0
M  V30 31 H -0.00323777 0.735456 -0.88265 0
M  V30 32 H 0.956419 -0.530889 -1.64645 0
M  V30 33 H -1.94002 -2.85173 -1.26714 0
M  V30 34 H -4.33436 -2.58266 -1.56237 0
M  V30 35 H -5.52251 -0.616647 -0.687879 0
M  V30 36 H -1.83155 0.833994 0.807703 0
M  V30 37 H -5.30138 1.3124 1.17058 0
M  V30 38 H -4.06329 2.34747 0.437237 0
M  V30 END ATOM
M  V30 BEGIN BOND
M  V30 1 1 1 2
M  V30 2 1 2 3
M  V30 3 1 3 4
M  V30 4 1 4 5
M  V30 5 1 5 6
M  V30 6 1 6 7
M  V30 7 1 7 8
M  V30 8 1 8 9
M  V30 9 1 9 10
M  V30 10 1 9 11
M  V30 11 2 11 12
M  V30 12 1 12 13
M  V30 13 2 13 14
M  V30 14 1 14 15
M  V30 15 2 15 16
M  V30 16 1 15 17
M  V30 17 1 10 4
M  V30 18 1 16 11
M  V30 19 1 1 18
M  V30 20 1 1 19
M  V30 21 1 2 20
M  V30 22 1 2 21
M  V30 23 1 3 22
M  V30 24 1 3 23
M  V30 25 1 5 24
M  V30 26 1 5 25
M  V30 27 1 6 26
M  V30 28 1 6 27
M  V30 29 1 8 28
M  V30 30 1 8 29
M  V30 31 1 9 30 CFG=3
M  V30 32 1 10 31
M  V30 33 1 10 32
M  V30 34 1 12 33
M  V30 35 1 13 34
M  V30 36 1 14 35
M  V30 37 1 16 36
M  V30 38 1 17 37
M  V30 39 1 17 38
M  V30 END BOND
M  V30 END CTAB
M  END
