
     RDKit          3D

  0  0  0  0  0  0  0  0  0  0999 V3000
M  V30 BEGIN CTAB
M  V30 COUNTS 32 33 0 0 0
M  V30 BEGIN ATOM
M  V30 1 N -6.94113 1.53559 1.30983 0
M  V30 2 N -5.57013 1.24658 1.28463 0
M  V30 3 C -4.86298 1.03752 0.0925698 0
M  V30 4 O -5.48026 1.1092 -1.00094 0
M  V30 5 C -3.45013 0.741169 0.0612993 0
M  V30 6 C -2.82056 0.310659 -1.10294 0
M  V30 7 N -1.49719 0.034304 -1.15627 0
M  V30 8 C -0.703398 0.158615 -0.0842679 0
M  V30 9 C -1.30476 0.582162 1.07563 0
M  V30 10 C -2.6602 0.875513 1.16925 0
M  V30 11 C 0.723549 -0.133309 -0.116583 0
M  V30 12 N 1.51476 -0.00720497 0.960631 0
M  V30 13 C 2.80906 -0.255098 1.00284 0
M  V30 14 C 3.45479 -0.69077 -0.15821 0
M  V30 15 C 2.7063 -0.846426 -1.31558 0
M  V30 16 C 1.35207 -0.562207 -1.26492 0
M  V30 17 C 4.87576 -0.94913 -0.0855383 0
M  V30 18 O 5.50968 -0.602317 0.934495 0
M  V30 19 N 5.542 -1.58233 -1.14564 0
M  V30 20 N 6.91653 -1.8348 -1.08598 0
M  V30 21 H -7.39218 0.779777 1.86685 0
M  V30 22 H -7.33555 1.6577 0.358695 0
M  V30 23 H -5.09025 1.18935 2.19949 0
M  V30 24 H -3.42296 0.195606 -1.9979 0
M  V30 25 H -0.702139 0.697342 1.96517 0
M  V30 26 H -3.10663 1.20851 2.09313 0
M  V30 27 H 3.41531 -0.138663 1.91174 0
M  V30 28 H 3.19661 -1.17536 -2.19564 0
M  V30 29 H 0.78556 -0.69486 -2.19182 0
M  V30 30 H 5.02846 -1.87697 -1.9897 0
M  V30 31 H 7.15569 -2.82731 -1.17225 0
M  V30 32 H 7.35429 -1.4565 -0.222073 0
M  V30 END ATOM
M  V30 BEGIN BOND
M  V30 1 1 1 2
M  V30 2 1 2 3
M  V30 3 2 3 4
M  V30 4 1 3 5
M  V30 5 2 5 6
M  V30 6 1 6 7
M  V30 7 2 7 8
M  V30 8 1 8 9
M  V30 9 2 9 10
M  V30 10 1 8 11
M  V30 11 2 11 12
M  V30 12 1 12 13
M  V30 13 2 13 14
M  V30 14 1 14 15
M  V30 15 2 15 16
M  V30 16 1 14 17
M  V30 17 2 17 18
M  V30 18 1 17 19
M  V30 19 1 19 20
M  V30 20 1 10 5
M  V30 21 1 16 11
M  V30 22 1 1 21
M  V30 23 1 1 22
M  V30 24 1 2 23
M  V30 25 1 6 24
M  V30 26 1 9 25
M  V30 27 1 10 26
M  V30 28 1 13 27
M  V30 29 1 15 28
M  V30 30 1 16 29
M  V30 31 1 19 30
M  V30 32 1 20 31
M  V30 33 1 20 32
M  V30 END BOND
M  V30 END CTAB
M  END
