
     RDKit          3D

  0  0  0  0  0  0  0  0  0  0999 V3000
M  V30 BEGIN CTAB
M  V30 COUNTS 45 46 0 0 0
M  V30 BEGIN ATOM
M  V30 1 C 1.59811 -0.352499 -1.15448 0
M  V30 2 C 1.58197 -0.574364 0.343274 0
M  V30 3 C 0.375491 -1.26546 0.801187 0
M  V30 4 O 0.524431 -2.37563 1.41264 0
M  V30 5 C -0.97935 -0.780425 0.606135 0
M  V30 6 C -1.29642 0.41874 0.00948801 0
M  V30 7 C -2.60899 0.82326 -0.196563 0
M  V30 8 C -3.63777 0.00345829 0.206765 0
M  V30 9 C -3.35181 -1.19934 0.807124 0
M  V30 10 C -2.03774 -1.58585 1.00362 0
M  V30 11 C -5.07086 0.349236 0.000912952 0
M  V30 12 C -5.24104 1.62518 -0.786021 0
M  V30 13 C -5.83566 0.503008 1.2963 0
M  V30 14 C -5.72277 -0.801902 -0.77306 0
M  V30 15 S 3.01902 -1.67654 0.673769 0
M  V30 16 C 4.50654 -0.787196 0.316891 0
M  V30 17 N 5.04792 -0.769686 -0.914525 0
M  V30 18 C 6.18347 -0.107019 -1.18363 0
M  V30 19 N 6.7053 -0.127998 -2.51034 0
M  V30 20 C 6.81555 0.581168 -0.153279 0
M  V30 21 C 6.26113 0.560262 1.09621 0
M  V30 22 N 5.11267 -0.123315 1.31538 0
M  V30 23 N 6.9265 1.26955 2.13309 0
M  V30 24 H 2.37683 -0.953881 -1.68619 0
M  V30 25 H 0.630726 -0.511857 -1.65003 0
M  V30 26 H 1.87078 0.712404 -1.30883 0
M  V30 27 H 1.77196 0.346288 0.926359 0
M  V30 28 H -0.488789 1.07108 -0.305587 0
M  V30 29 H -2.81901 1.77201 -0.664832 0
M  V30 30 H -4.16659 -1.83462 1.12186 0
M  V30 31 H -1.89419 -2.54063 1.48368 0
M  V30 32 H -5.16076 2.4772 -0.0810358 0
M  V30 33 H -6.31764 1.6413 -1.12643 0
M  V30 34 H -4.56489 1.70624 -1.65874 0
M  V30 35 H -5.49345 -0.143638 2.10228 0
M  V30 36 H -6.91223 0.30848 1.03051 0
M  V30 37 H -5.81432 1.57924 1.56913 0
M  V30 38 H -6.13164 -1.50834 -0.0232911 0
M  V30 39 H -4.99307 -1.26401 -1.46018 0
M  V30 40 H -6.58219 -0.390859 -1.34871 0
M  V30 41 H 6.45717 0.697903 -3.11316 0
M  V30 42 H 7.28145 -0.909721 -2.84285 0
M  V30 43 H 7.72129 1.108 -0.375451 0
M  V30 44 H 7.70844 0.782958 2.62445 0
M  V30 45 H 6.64441 2.24779 2.39968 0
M  V30 END ATOM
M  V30 BEGIN BOND
M  V30 1 1 1 2
M  V30 2 1 2 3
M  V30 3 2 3 4
M  V30 4 1 3 5
M  V30 5 2 5 6
M  V30 6 1 6 7
M  V30 7 2 7 8
M  V30 8 1 8 9
M  V30 9 2 9 10
M  V30 10 1 8 11
M  V30 11 1 11 12
M  V30 12 1 11 13
M  V30 13 1 11 14
M  V30 14 1 2 15
M  V30 15 1 15 16
M  V30 16 2 16 17
M  V30 17 1 17 18
M  V30 18 1 18 19
M  V30 19 2 18 20
M  V30 20 1 20 21
M  V30 21 2 21 22
M  V30 22 1 21 23
M  V30 23 1 10 5
M  V30 24 1 22 16
M  V30 25 1 1 24
M  V30 26 1 1 25
M  V30 27 1 1 26
M  V30 28 1 2 27
M  V30 29 1 6 28
M  V30 30 1 7 29
M  V30 31 1 9 30
M  V30 32 1 10 31
M  V30 33 1 12 32
M  V30 34 1 12 33
M  V30 35 1 12 34
M  V30 36 1 13 35
M  V30 37 1 13 36
M  V30 38 1 13 37
M  V30 39 1 14 38
M  V30 40 1 14 39
M  V30 41 1 14 40
M  V30 42 1 19 41
M  V30 43 1 19 42
M  V30 44 1 20 43
M  V30 45 1 23 44
M  V30 46 1 23 45
M  V30 END BOND
M  V30 END CTAB
M  END
