
     RDKit          3D

  0  0  0  0  0  0  0  0  0  0999 V3000
M  V30 BEGIN CTAB
M  V30 COUNTS 27 27 0 0 0
M  V30 BEGIN ATOM
M  V30 1 N 3.64324 -0.417985 0.404781 0
M  V30 2 C 2.23665 -0.668103 0.274387 0
M  V30 3 C 1.60656 0.572496 -0.330483 0
M  V30 4 C 0.114562 0.423125 -0.515056 0 CFG=1
M  V30 5 C -0.16617 -0.733256 -1.43015 0
M  V30 6 C -0.794286 -1.8106 -0.560651 0
M  V30 7 C -1.41068 -0.982753 0.541192 0
M  V30 8 N -0.583268 0.18235 0.706771 0
M  V30 9 S -1.65784 1.5044 1.09949 0
M  V30 10 O -0.811539 2.74791 1.24575 0
M  V30 11 O -2.31296 1.22827 2.42347 0
M  V30 12 N -2.85303 1.69703 -0.119864 0
M  V30 13 H 3.96894 -0.248823 1.35023 0
M  V30 14 H 3.93621 0.297617 -0.228536 0
M  V30 15 H 2.13484 -1.54194 -0.40008 0
M  V30 16 H 1.77238 -0.921394 1.23447 0
M  V30 17 H 2.06698 0.724406 -1.32273 0
M  V30 18 H 1.8585 1.46304 0.279011 0
M  V30 19 H -0.244221 1.35989 -0.983358 0
M  V30 20 H 0.757105 -1.1622 -1.8541 0
M  V30 21 H -0.826967 -0.422729 -2.26066 0
M  V30 22 H -1.53468 -2.34138 -1.16434 0
M  V30 23 H -0.0481891 -2.50463 -0.14554 0
M  V30 24 H -1.55374 -1.5671 1.46402 0
M  V30 25 H -2.4269 -0.669459 0.168131 0
M  V30 26 H -3.19438 2.69356 -0.0519955 0
M  V30 27 H -3.67711 1.09827 0.175847 0
M  V30 END ATOM
M  V30 BEGIN BOND
M  V30 1 1 1 2
M  V30 2 1 2 3
M  V30 3 1 3 4
M  V30 4 1 4 5
M  V30 5 1 5 6
M  V30 6 1 6 7
M  V30 7 1 7 8
M  V30 8 1 8 9
M  V30 9 2 9 10
M  V30 10 2 9 11
M  V30 11 1 9 12
M  V30 12 1 8 4
M  V30 13 1 1 13
M  V30 14 1 1 14
M  V30 15 1 2 15
M  V30 16 1 2 16
M  V30 17 1 3 17
M  V30 18 1 3 18
M  V30 19 1 4 19 CFG=3
M  V30 20 1 5 20
M  V30 21 1 5 21
M  V30 22 1 6 22
M  V30 23 1 6 23
M  V30 24 1 7 24
M  V30 25 1 7 25
M  V30 26 1 12 26
M  V30 27 1 12 27
M  V30 END BOND
M  V30 END CTAB
M  END
