
     RDKit          3D

  0  0  0  0  0  0  0  0  0  0999 V3000
M  V30 BEGIN CTAB
M  V30 COUNTS 18 18 0 0 0
M  V30 BEGIN ATOM
M  V30 1 C 2.09784 -0.78957 0.27824 0
M  V30 2 C 0.923038 0.108256 0.0721041 0
M  V30 3 C 1.06932 1.47103 -0.0936505 0
M  V30 4 Cl 2.6799 2.2009 -0.0656244 0
M  V30 5 C -0.02684 2.29168 -0.283724 0
M  V30 6 N -1.27014 1.76912 -0.310659 0
M  V30 7 C -1.46666 0.462251 -0.155994 0
M  V30 8 N -2.73823 -0.17056 -0.170787 0
M  V30 9 C -0.368009 -0.382532 0.0374132 0
M  V30 10 N -0.530638 -1.78261 0.206795 0
M  V30 11 H 2.27058 -1.0412 1.32642 0
M  V30 12 H 1.87066 -1.74684 -0.25923 0
M  V30 13 H 2.97384 -0.271279 -0.203039 0
M  V30 14 H 0.122989 3.36967 -0.412212 0
M  V30 15 H -2.96877 -0.693427 -1.06607 0
M  V30 16 H -3.42255 -0.159115 0.59103 0
M  V30 17 H -0.0171432 -2.34673 0.919287 0
M  V30 18 H -1.19918 -2.28905 -0.410301 0
M  V30 END ATOM
M  V30 BEGIN BOND
M  V30 1 1 1 2
M  V30 2 2 2 3
M  V30 3 1 3 4
M  V30 4 1 3 5
M  V30 5 2 5 6
M  V30 6 1 6 7
M  V30 7 1 7 8
M  V30 8 2 7 9
M  V30 9 1 9 10
M  V30 10 1 9 2
M  V30 11 1 1 11
M  V30 12 1 1 12
M  V30 13 1 1 13
M  V30 14 1 5 14
M  V30 15 1 8 15
M  V30 16 1 8 16
M  V30 17 1 10 17
M  V30 18 1 10 18
M  V30 END BOND
M  V30 END CTAB
M  END
