
     RDKit          3D

  0  0  0  0  0  0  0  0  0  0999 V3000
M  V30 BEGIN CTAB
M  V30 COUNTS 24 24 0 0 0
M  V30 BEGIN ATOM
M  V30 1 N -3.5936 1.24709 -0.0860119 0
M  V30 2 C -2.37989 0.568731 0.302946 0
M  V30 3 C -1.84877 -0.35268 -0.764926 0
M  V30 4 N -0.634758 -0.957177 -0.263661 0
M  V30 5 C 0.599003 -0.286611 -0.0985474 0
M  V30 6 C 0.827147 0.997408 -0.521917 0
M  V30 7 C 2.08072 1.59928 -0.347581 0
M  V30 8 F 2.28884 2.87756 -0.774523 0
M  V30 9 C 3.0917 0.899216 0.251682 0
M  V30 10 C 2.87357 -0.398055 0.682751 0
M  V30 11 C 1.64115 -0.989946 0.511761 0
M  V30 12 N 1.40538 -2.33288 0.95508 0
M  V30 13 F 3.90602 -1.04938 1.26982 0
M  V30 14 H -3.43867 2.08783 -0.669155 0
M  V30 15 H -4.34718 0.626279 -0.373726 0
M  V30 16 H -1.57495 1.24197 0.625437 0
M  V30 17 H -2.67075 -0.123247 1.15551 0
M  V30 18 H -1.60806 0.217418 -1.70316 0
M  V30 19 H -2.62374 -1.11962 -0.998295 0
M  V30 20 H -0.717322 -1.98283 -0.0121706 0
M  V30 21 H 0.0426867 1.54677 -1.00418 0
M  V30 22 H 4.07133 1.35284 0.3944 0
M  V30 23 H 0.793579 -2.50407 1.79869 0
M  V30 24 H 1.81656 -3.16589 0.475851 0
M  V30 END ATOM
M  V30 BEGIN BOND
M  V30 1 1 1 2
M  V30 2 1 2 3
M  V30 3 1 3 4
M  V30 4 1 4 5
M  V30 5 2 5 6
M  V30 6 1 6 7
M  V30 7 1 7 8
M  V30 8 2 7 9
M  V30 9 1 9 10
M  V30 10 2 10 11
M  V30 11 1 11 12
M  V30 12 1 10 13
M  V30 13 1 11 5
M  V30 14 1 1 14
M  V30 15 1 1 15
M  V30 16 1 2 16
M  V30 17 1 2 17
M  V30 18 1 3 18
M  V30 19 1 3 19
M  V30 20 1 4 20
M  V30 21 1 6 21
M  V30 22 1 9 22
M  V30 23 1 12 23
M  V30 24 1 12 24
M  V30 END BOND
M  V30 END CTAB
M  END
