
     RDKit          3D

  0  0  0  0  0  0  0  0  0  0999 V3000
M  V30 BEGIN CTAB
M  V30 COUNTS 18 18 0 0 0
M  V30 BEGIN ATOM
M  V30 1 N -2.3716 -0.988563 -1.03556 0
M  V30 2 C -1.15128 -0.484896 -0.506216 0
M  V30 3 N -0.0219501 -1.23576 -0.633971 0
M  V30 4 C 1.14655 -0.757482 -0.127929 0
M  V30 5 N 2.35661 -1.4928 -0.230271 0
M  V30 6 C 1.13281 0.470328 0.493324 0
M  V30 7 N 0.0075211 1.20005 0.611006 0
M  V30 8 C -1.15473 0.743438 0.117346 0
M  V30 9 N -2.37194 1.45007 0.202421 0 CHG=1
M  V30 10 O -2.33894 2.83564 0.184105 0 CHG=-1
M  V30 11 O -3.48533 0.923251 0.293725 0
M  V30 12 N 2.35247 0.966452 1.02098 0 CHG=1
M  V30 13 O 3.39191 0.176844 1.45008 0 CHG=-1
M  V30 14 O 2.50807 2.20072 1.10736 0
M  V30 15 H -2.68477 -1.92686 -0.701289 0
M  V30 16 H -2.96156 -0.50034 -1.71616 0
M  V30 17 H 3.2305 -1.10696 -0.646712 0
M  V30 18 H 2.41565 -2.47314 0.117764 0
M  V30 END ATOM
M  V30 BEGIN BOND
M  V30 1 1 1 2
M  V30 2 2 2 3
M  V30 3 1 3 4
M  V30 4 1 4 5
M  V30 5 2 4 6
M  V30 6 1 6 7
M  V30 7 2 7 8
M  V30 8 1 8 9
M  V30 9 1 9 10
M  V30 10 2 9 11
M  V30 11 1 6 12
M  V30 12 1 12 13
M  V30 13 2 12 14
M  V30 14 1 8 2
M  V30 15 1 1 15
M  V30 16 1 1 16
M  V30 17 1 5 17
M  V30 18 1 5 18
M  V30 END BOND
M  V30 END CTAB
M  END
