
     RDKit          3D

  0  0  0  0  0  0  0  0  0  0999 V3000
M  V30 BEGIN CTAB
M  V30 COUNTS 44 46 0 0 0
M  V30 BEGIN ATOM
M  V30 1 C -6.21265 2.10238 1.84256 0
M  V30 2 C -5.77755 0.699688 2.07897 0
M  V30 3 O -4.61884 0.309469 1.37258 0
M  V30 4 C -4.50172 0.268802 0.0248323 0
M  V30 5 O -5.53034 0.600096 -0.664793 0
M  V30 6 C -3.32604 -0.109215 -0.762178 0
M  V30 7 S -3.19009 -0.0999969 -2.4613 0
M  V30 8 C -1.56937 -0.611257 -2.61544 0
M  V30 9 C -1.16608 -0.779196 -1.31715 0
M  V30 10 C -2.07844 -0.5194 -0.35662 0
M  V30 11 N -1.83475 -0.628186 1.08045 0
M  V30 12 C 0.16928 -1.20191 -1.19181 0
M  V30 13 C 0.84088 -1.43995 0.0716459 0
M  V30 14 O 0.472747 -2.3398 0.836675 0
M  V30 15 C 1.97915 -0.605666 0.454097 0
M  V30 16 C 2.19416 0.632458 -0.162208 0
M  V30 17 C 3.28536 1.4079 0.131533 0
M  V30 18 C 4.23211 0.977162 1.07252 0
M  V30 19 C 4.0235 -0.224912 1.67839 0
M  V30 20 C 2.93376 -1.00275 1.38993 0
M  V30 21 O 5.31819 1.79818 1.332 0
M  V30 22 C 6.31407 1.41595 2.24906 0
M  V30 23 C 0.943515 -1.41046 -2.32747 0
M  V30 24 C 0.473861 -1.22267 -3.60769 0
M  V30 25 N -0.794714 -0.821554 -3.72354 0
M  V30 26 N 1.26575 -1.41627 -4.75471 0
M  V30 27 C 2.31665 -1.89052 -2.20342 0
M  V30 28 N 3.39231 -2.279 -2.13475 0
M  V30 29 H -7.18208 2.23797 2.36871 0
M  V30 30 H -6.41785 2.28819 0.79034 0
M  V30 31 H -5.52021 2.85166 2.29056 0
M  V30 32 H -5.59693 0.567733 3.15929 0
M  V30 33 H -6.65316 0.0451029 1.8231 0
M  V30 34 H -2.42981 -1.33128 1.58139 0
M  V30 35 H -1.12709 -0.05098 1.56315 0
M  V30 36 H 1.4618 0.961471 -0.881769 0
M  V30 37 H 3.42599 2.35938 -0.366509 0
M  V30 38 H 4.75098 -0.593084 2.41904 0
M  V30 39 H 2.78754 -1.95498 1.89162 0
M  V30 40 H 5.94728 0.853466 3.12994 0
M  V30 41 H 7.02644 0.744649 1.67587 0
M  V30 42 H 6.87481 2.33369 2.57197 0
M  V30 43 H 1.26448 -0.654297 -5.45913 0
M  V30 44 H 1.83308 -2.26806 -4.9035 0
M  V30 END ATOM
M  V30 BEGIN BOND
M  V30 1 1 1 2
M  V30 2 1 2 3
M  V30 3 1 3 4
M  V30 4 2 4 5
M  V30 5 1 4 6
M  V30 6 1 6 7
M  V30 7 1 7 8
M  V30 8 2 8 9
M  V30 9 1 9 10
M  V30 10 1 10 11
M  V30 11 1 9 12
M  V30 12 1 12 13
M  V30 13 2 13 14
M  V30 14 1 13 15
M  V30 15 2 15 16
M  V30 16 1 16 17
M  V30 17 2 17 18
M  V30 18 1 18 19
M  V30 19 2 19 20
M  V30 20 1 18 21
M  V30 21 1 21 22
M  V30 22 2 12 23
M  V30 23 1 23 24
M  V30 24 2 24 25
M  V30 25 1 24 26
M  V30 26 1 23 27
M  V30 27 3 27 28
M  V30 28 2 10 6
M  V30 29 1 20 15
M  V30 30 1 25 8
M  V30 31 1 1 29
M  V30 32 1 1 30
M  V30 33 1 1 31
M  V30 34 1 2 32
M  V30 35 1 2 33
M  V30 36 1 11 34
M  V30 37 1 11 35
M  V30 38 1 16 36
M  V30 39 1 17 37
M  V30 40 1 19 38
M  V30 41 1 20 39
M  V30 42 1 22 40
M  V30 43 1 22 41
M  V30 44 1 22 42
M  V30 45 1 26 43
M  V30 46 1 26 44
M  V30 END BOND
M  V30 END CTAB
M  END
