
     RDKit          3D

  0  0  0  0  0  0  0  0  0  0999 V3000
M  V30 BEGIN CTAB
M  V30 COUNTS 16 16 0 0 0
M  V30 BEGIN ATOM
M  V30 1 N -2.24725 -1.4238 -0.487599 0
M  V30 2 C -1.30852 -0.374983 -0.219042 0
M  V30 3 C -1.7718 0.883472 0.106779 0
M  V30 4 C -0.882486 1.90645 0.368765 0
M  V30 5 N 0.436905 1.67827 0.306883 0
M  V30 6 C 0.883123 0.444001 -0.0126583 0
M  V30 7 N 0.019063 -0.580324 -0.275047 0
M  V30 8 C 2.30361 0.136868 -0.0951458 0
M  V30 9 S 3.34164 1.23108 -0.709061 0
M  V30 10 N 2.74859 -1.11516 0.364276 0
M  V30 11 H -1.97654 -2.40874 -0.473569 0
M  V30 12 H -3.23495 -1.17143 -0.703367 0
M  V30 13 H -2.85909 1.03747 0.149 0
M  V30 14 H -1.27576 2.9024 0.626717 0
M  V30 15 H 2.74502 -1.33242 1.37084 0
M  V30 16 H 3.07843 -1.81316 -0.317773 0
M  V30 END ATOM
M  V30 BEGIN BOND
M  V30 1 1 1 2
M  V30 2 2 2 3
M  V30 3 1 3 4
M  V30 4 2 4 5
M  V30 5 1 5 6
M  V30 6 2 6 7
M  V30 7 1 6 8
M  V30 8 2 8 9
M  V30 9 1 8 10
M  V30 10 1 7 2
M  V30 11 1 1 11
M  V30 12 1 1 12
M  V30 13 1 3 13
M  V30 14 1 4 14
M  V30 15 1 10 15
M  V30 16 1 10 16
M  V30 END BOND
M  V30 END CTAB
M  END
