
     RDKit          3D

  0  0  0  0  0  0  0  0  0  0999 V3000
M  V30 BEGIN CTAB
M  V30 COUNTS 51 54 0 0 0
M  V30 BEGIN ATOM
M  V30 1 N -7.76985 -1.52792 2.17841 0
M  V30 2 C -6.64018 -0.942086 1.50026 0
M  V30 3 N -6.76277 0.203321 0.806386 0
M  V30 4 C -5.69349 0.733995 0.179939 0
M  V30 5 C -5.79323 1.91325 -0.542071 0
M  V30 6 C -4.68766 2.43729 -1.17465 0
M  V30 7 C -3.46567 1.8039 -1.10354 0
M  V30 8 C -3.3452 0.631595 -0.391478 0
M  V30 9 O -2.13005 -0.0223657 -0.30517 0
M  V30 10 C -1.01584 0.541956 -0.966378 0
M  V30 11 C 0.185315 -0.348878 -0.724049 0
M  V30 12 C 1.35268 0.315992 -1.4659 0
M  V30 13 C 2.62881 -0.343175 -0.92829 0
M  V30 14 N 2.78255 0.164924 0.420724 0
M  V30 15 C 1.58343 0.533124 1.12822 0
M  V30 16 C 0.507171 -0.479747 0.734764 0
M  V30 17 C 4.04996 0.302146 1.03574 0
M  V30 18 O 4.15449 0.741347 2.19713 0
M  V30 19 C 5.28779 -0.0609151 0.346071 0
M  V30 20 C 5.84472 -1.31926 0.402672 0
M  V30 21 C 7.01593 -1.62791 -0.261277 0
M  V30 22 C 7.67449 -0.657532 -1.01777 0
M  V30 23 C 7.12403 0.606045 -1.08034 0
M  V30 24 C 5.9585 0.891656 -0.412418 0
M  V30 25 Cl 5.28185 2.49718 -0.507353 0
M  V30 26 C -4.44934 0.11367 0.236743 0
M  V30 27 C -4.3795 -1.07383 0.971517 0
M  V30 28 N -3.10944 -1.69379 1.01987 0
M  V30 29 N -5.46747 -1.59222 1.59533 0
M  V30 30 H -8.03698 -1.18855 3.14626 0
M  V30 31 H -8.33936 -2.27997 1.74901 0
M  V30 32 H -6.77487 2.37727 -0.570769 0
M  V30 33 H -4.81094 3.35677 -1.72526 0
M  V30 34 H -2.60242 2.2514 -1.62172 0
M  V30 35 H -0.804684 1.53438 -0.496025 0
M  V30 36 H -1.18069 0.732333 -2.033 0
M  V30 37 H 0.0365665 -1.35612 -1.14561 0
M  V30 38 H 1.38655 1.39058 -1.27402 0
M  V30 39 H 1.27031 0.0212336 -2.51458 0
M  V30 40 H 2.42374 -1.44887 -0.90551 0
M  V30 41 H 3.49843 -0.0956775 -1.53929 0
M  V30 42 H 1.68364 0.457231 2.23126 0
M  V30 43 H 1.19707 1.53425 0.85862 0
M  V30 44 H -0.389519 -0.362227 1.36388 0
M  V30 45 H 0.956208 -1.48897 0.964331 0
M  V30 46 H 5.34151 -2.07142 0.984039 0
M  V30 47 H 7.44071 -2.62155 -0.206815 0
M  V30 48 H 8.58351 -0.941227 -1.51831 0
M  V30 49 H 7.65503 1.353 -1.67834 0
M  V30 50 H -2.41304 -1.57696 1.78494 0
M  V30 51 H -2.84279 -2.31867 0.230847 0
M  V30 END ATOM
M  V30 BEGIN BOND
M  V30 1 1 1 2
M  V30 2 2 2 3
M  V30 3 1 3 4
M  V30 4 2 4 5
M  V30 5 1 5 6
M  V30 6 2 6 7
M  V30 7 1 7 8
M  V30 8 1 8 9
M  V30 9 1 9 10
M  V30 10 1 10 11
M  V30 11 1 11 12
M  V30 12 1 12 13
M  V30 13 1 13 14
M  V30 14 1 14 15
M  V30 15 1 15 16
M  V30 16 1 14 17
M  V30 17 2 17 18
M  V30 18 1 17 19
M  V30 19 2 19 20
M  V30 20 1 20 21
M  V30 21 2 21 22
M  V30 22 1 22 23
M  V30 23 2 23 24
M  V30 24 1 24 25
M  V30 25 2 8 26
M  V30 26 1 26 27
M  V30 27 1 27 28
M  V30 28 2 27 29
M  V30 29 1 29 2
M  V30 30 1 26 4
M  V30 31 1 16 11
M  V30 32 1 24 19
M  V30 33 1 1 30
M  V30 34 1 1 31
M  V30 35 1 5 32
M  V30 36 1 6 33
M  V30 37 1 7 34
M  V30 38 1 10 35
M  V30 39 1 10 36
M  V30 40 1 11 37
M  V30 41 1 12 38
M  V30 42 1 12 39
M  V30 43 1 13 40
M  V30 44 1 13 41
M  V30 45 1 15 42
M  V30 46 1 15 43
M  V30 47 1 16 44
M  V30 48 1 16 45
M  V30 49 1 20 46
M  V30 50 1 21 47
M  V30 51 1 22 48
M  V30 52 1 23 49
M  V30 53 1 28 50
M  V30 54 1 28 51
M  V30 END BOND
M  V30 END CTAB
M  END
