
     RDKit          3D

  0  0  0  0  0  0  0  0  0  0999 V3000
M  V30 BEGIN CTAB
M  V30 COUNTS 35 36 0 0 0
M  V30 BEGIN ATOM
M  V30 1 C -2.44238 -2.48552 -1.24018 0
M  V30 2 C -2.16093 -1.59667 -0.0728835 0
M  V30 3 O -1.20388 -0.595049 -0.331069 0
M  V30 4 C -1.47596 0.759474 -0.247397 0
M  V30 5 O -2.64812 1.05768 0.0797342 0
M  V30 6 C -0.42912 1.72804 -0.532425 0
M  V30 7 C -0.732323 3.09586 -0.440524 0
M  V30 8 C 0.236442 4.02139 -0.707274 0
M  V30 9 N -0.0837449 5.39625 -0.610596 0
M  V30 10 C 1.50373 3.60541 -1.06448 0
M  V30 11 C 1.80206 2.24266 -1.15494 0
M  V30 12 C 0.829711 1.30497 -0.887186 0
M  V30 13 S 1.19106 -0.436799 -0.998217 0
M  V30 14 C 1.78115 -0.966373 0.62299 0
M  V30 15 N 1.9346 -0.221266 1.73306 0
M  V30 16 N 2.38454 -0.94241 2.72091 0
M  V30 17 C 2.53883 -2.18995 2.27934 0
M  V30 18 N 2.16792 -2.20294 0.99107 0
M  V30 19 N 2.17135 -3.31218 0.137507 0
M  V30 20 C -1.79614 -2.39744 1.17691 0
M  V30 21 H -2.28605 -3.55171 -0.968962 0
M  V30 22 H -3.4902 -2.39449 -1.5882 0
M  V30 23 H -1.79545 -2.24095 -2.11162 0
M  V30 24 H -3.10593 -1.06928 0.189494 0
M  V30 25 H -1.74411 3.37268 -0.155605 0
M  V30 26 H -0.843526 5.823 -1.16796 0
M  V30 27 H 0.482715 5.98285 0.0559707 0
M  V30 28 H 2.23466 4.37143 -1.26544 0
M  V30 29 H 2.81216 1.97316 -1.43934 0
M  V30 30 H 2.89356 -3.02164 2.8529 0
M  V30 31 H 1.42824 -4.02568 0.269882 0
M  V30 32 H 2.92181 -3.35737 -0.583262 0
M  V30 33 H -0.808965 -2.86339 0.99417 0
M  V30 34 H -2.55668 -3.14131 1.41247 0
M  V30 35 H -1.71102 -1.72241 2.05116 0
M  V30 END ATOM
M  V30 BEGIN BOND
M  V30 1 1 1 2
M  V30 2 1 2 3
M  V30 3 1 3 4
M  V30 4 2 4 5
M  V30 5 1 4 6
M  V30 6 2 6 7
M  V30 7 1 7 8
M  V30 8 1 8 9
M  V30 9 2 8 10
M  V30 10 1 10 11
M  V30 11 2 11 12
M  V30 12 1 12 13
M  V30 13 1 13 14
M  V30 14 2 14 15
M  V30 15 1 15 16
M  V30 16 2 16 17
M  V30 17 1 17 18
M  V30 18 1 18 19
M  V30 19 1 2 20
M  V30 20 1 12 6
M  V30 21 1 18 14
M  V30 22 1 1 21
M  V30 23 1 1 22
M  V30 24 1 1 23
M  V30 25 1 2 24
M  V30 26 1 7 25
M  V30 27 1 9 26
M  V30 28 1 9 27
M  V30 29 1 10 28
M  V30 30 1 11 29
M  V30 31 1 17 30
M  V30 32 1 19 31
M  V30 33 1 19 32
M  V30 34 1 20 33
M  V30 35 1 20 34
M  V30 36 1 20 35
M  V30 END BOND
M  V30 END CTAB
M  END
