
     RDKit          3D

  0  0  0  0  0  0  0  0  0  0999 V3000
M  V30 BEGIN CTAB
M  V30 COUNTS 46 47 0 0 0
M  V30 BEGIN ATOM
M  V30 1 C 2.75371 0.15627 -0.660874 0 CFG=2
M  V30 2 N 3.66067 0.178254 -1.80032 0
M  V30 3 C 1.41518 0.608337 -1.14782 0
M  V30 4 S 0.149766 0.648549 0.124269 0
M  V30 5 S -0.347422 -1.262 0.863456 0
M  V30 6 C -1.65838 -2.0622 -0.024452 0
M  V30 7 C -3.00994 -1.45534 0.0694952 0 CFG=1
M  V30 8 N -3.52091 -1.38836 1.42334 0
M  V30 9 C -3.1878 -0.167459 -0.699042 0
M  V30 10 C -4.60168 0.280935 -0.484296 0
M  V30 11 C -4.85867 1.10876 0.586064 0
M  V30 12 C -6.15132 1.55807 0.83654 0
M  V30 13 C -7.15457 1.15081 -0.0136971 0
M  V30 14 C -6.9085 0.316535 -1.09616 0
M  V30 15 C -5.62449 -0.121176 -1.33301 0
M  V30 16 C 3.33915 1.08855 0.381845 0
M  V30 17 C 4.68828 0.593173 0.758962 0
M  V30 18 C 5.80747 1.0177 0.0785374 0
M  V30 19 C 7.08711 0.576467 0.399742 0
M  V30 20 C 7.23226 -0.30971 1.42814 0
M  V30 21 C 6.13448 -0.75047 2.12464 0
M  V30 22 C 4.8627 -0.298864 1.78972 0
M  V30 23 H 2.7027 -0.867555 -0.28958 0
M  V30 24 H 3.33417 -0.490291 -2.52824 0
M  V30 25 H 3.64105 1.1271 -2.27123 0
M  V30 26 H 1.09995 -0.0917137 -1.94966 0
M  V30 27 H 1.50858 1.60264 -1.58504 0
M  V30 28 H -1.38086 -2.13028 -1.09679 0
M  V30 29 H -1.74577 -3.11284 0.367671 0
M  V30 30 H -3.70743 -2.18409 -0.449866 0
M  V30 31 H -3.09226 -0.615046 1.97788 0
M  V30 32 H -3.28937 -2.29353 1.88063 0
M  V30 33 H -2.48524 0.619401 -0.431531 0
M  V30 34 H -3.12542 -0.445902 -1.79164 0
M  V30 35 H -4.09062 1.45174 1.28066 0
M  V30 36 H -6.37478 2.21494 1.67977 0
M  V30 37 H -8.17238 1.4642 0.126903 0
M  V30 38 H -7.7131 0.0074382 -1.7535 0
M  V30 39 H -5.38744 -0.771322 -2.16315 0
M  V30 40 H 2.71741 1.04986 1.31845 0
M  V30 41 H 3.40117 2.12289 0.0342038 0
M  V30 42 H 5.66382 1.71256 -0.72304 0
M  V30 43 H 7.92544 0.93969 -0.164144 0
M  V30 44 H 8.21163 -0.666753 1.69757 0
M  V30 45 H 6.23932 -1.45374 2.94227 0
M  V30 46 H 4.01233 -0.656215 2.34631 0
M  V30 END ATOM
M  V30 BEGIN BOND
M  V30 1 1 1 2
M  V30 2 1 1 3
M  V30 3 1 3 4
M  V30 4 1 4 5
M  V30 5 1 5 6
M  V30 6 1 6 7
M  V30 7 1 7 8
M  V30 8 1 7 9
M  V30 9 1 9 10
M  V30 10 2 10 11
M  V30 11 1 11 12
M  V30 12 2 12 13
M  V30 13 1 13 14
M  V30 14 2 14 15
M  V30 15 1 1 16
M  V30 16 1 16 17
M  V30 17 2 17 18
M  V30 18 1 18 19
M  V30 19 2 19 20
M  V30 20 1 20 21
M  V30 21 2 21 22
M  V30 22 1 15 10
M  V30 23 1 22 17
M  V30 24 1 1 23 CFG=1
M  V30 25 1 2 24
M  V30 26 1 2 25
M  V30 27 1 3 26
M  V30 28 1 3 27
M  V30 29 1 6 28
M  V30 30 1 6 29
M  V30 31 1 7 30 CFG=3
M  V30 32 1 8 31
M  V30 33 1 8 32
M  V30 34 1 9 33
M  V30 35 1 9 34
M  V30 36 1 11 35
M  V30 37 1 12 36
M  V30 38 1 13 37
M  V30 39 1 14 38
M  V30 40 1 15 39
M  V30 41 1 16 40
M  V30 42 1 16 41
M  V30 43 1 18 42
M  V30 44 1 19 43
M  V30 45 1 20 44
M  V30 46 1 21 45
M  V30 47 1 22 46
M  V30 END BOND
M  V30 END CTAB
M  END
