
     RDKit          3D

  0  0  0  0  0  0  0  0  0  0999 V3000
M  V30 BEGIN CTAB
M  V30 COUNTS 14 13 0 0 0
M  V30 BEGIN ATOM
M  V30 1 N 2.08289 -1.63856 1.75229 0
M  V30 2 N 1.42358 -0.83809 0.931688 0
M  V30 3 C 0.761769 -0.0345341 0.107928 0
M  V30 4 O 1.1864 0.898133 -0.655655 0
M  V30 5 C -0.768749 -0.118071 -0.0741588 0
M  V30 6 O -1.21781 -1.04641 0.574543 0
M  V30 7 N -1.40076 0.804361 -0.877447 0
M  V30 8 N -1.99614 1.65838 -1.62255 0
M  V30 9 H 2.36147 -2.57469 1.4889 0
M  V30 10 H 2.06024 -1.40636 2.76637 0
M  V30 11 H 2.61739 -0.250952 0.644142 0
M  V30 12 H -2.61254 0.127726 -0.606865 0
M  V30 13 H -3.0025 1.82053 -1.67906 0
M  V30 14 H -1.49524 2.59853 -1.82906 0
M  V30 END ATOM
M  V30 BEGIN BOND
M  V30 1 1 1 2
M  V30 2 1 2 3
M  V30 3 2 3 4
M  V30 4 1 3 5
M  V30 5 2 5 6
M  V30 6 1 5 7
M  V30 7 1 7 8
M  V30 8 1 1 9
M  V30 9 1 1 10
M  V30 10 1 2 11
M  V30 11 1 7 12
M  V30 12 1 8 13
M  V30 13 1 8 14
M  V30 END BOND
M  V30 END CTAB
M  END
