
     RDKit          3D

  0  0  0  0  0  0  0  0  0  0999 V3000
M  V30 BEGIN CTAB
M  V30 COUNTS 42 44 0 0 0
M  V30 BEGIN ATOM
M  V30 1 C -8.13125 0.167008 -0.404604 0
M  V30 2 O -6.72204 0.0688193 -0.489455 0
M  V30 3 C -5.95359 0.612305 0.529517 0
M  V30 4 O -6.56107 1.16598 1.47785 0
M  V30 5 C -4.4751 0.535413 0.486903 0
M  V30 6 C -3.73846 1.07209 1.49157 0
M  V30 7 C -2.34395 0.987552 1.42791 0
M  V30 8 C -1.68266 0.387383 0.397177 0
M  V30 9 C -2.5077 -0.145065 -0.605092 0
M  V30 10 C -3.86183 -0.0753589 -0.565399 0
M  V30 11 N -0.268391 0.29378 0.310062 0
M  V30 12 C 0.590081 0.855063 1.30946 0
M  V30 13 C 0.252038 -0.391497 -0.830488 0
M  V30 14 C 1.68498 -0.537789 -0.96692 0
M  V30 15 N 2.65697 -0.233266 -0.123309 0
M  V30 16 C 3.95914 -0.423837 -0.383229 0
M  V30 17 C 4.36163 -0.965374 -1.58401 0
M  V30 18 N 3.4113 -1.28892 -2.46872 0
M  V30 19 C 2.11928 -1.09077 -2.18996 0
M  V30 20 N 5.67866 -1.15149 -1.8309 0
M  V30 21 C 6.63984 -0.829409 -0.948623 0
M  V30 22 N 8.00374 -1.04514 -1.25693 0
M  V30 23 N 6.24831 -0.295007 0.2367 0
M  V30 24 C 4.95075 -0.0923651 0.525069 0
M  V30 25 N 4.52027 0.467583 1.76018 0
M  V30 26 H -8.61879 -0.23785 -1.32937 0
M  V30 27 H -8.43946 -0.472907 0.44583 0
M  V30 28 H -8.48011 1.17752 -0.1868 0
M  V30 29 H -4.2223 1.56248 2.33681 0
M  V30 30 H -1.81664 1.42905 2.25365 0
M  V30 31 H -2.01587 -0.629673 -1.43949 0
M  V30 32 H -4.48519 -0.499617 -1.36196 0
M  V30 33 H 1.14102 0.0580472 1.87269 0
M  V30 34 H 0.067896 1.43212 2.10664 0
M  V30 35 H 1.29298 1.62287 0.868509 0
M  V30 36 H -0.228099 -1.40988 -0.818663 0
M  V30 37 H -0.13968 0.183592 -1.73123 0
M  V30 38 H 1.37723 -1.36217 -2.92411 0
M  V30 39 H 8.69987 -0.289482 -1.14619 0
M  V30 40 H 8.30448 -1.97366 -1.59769 0
M  V30 41 H 4.71866 1.46695 1.95446 0
M  V30 42 H 4.01306 -0.10508 2.46676 0
M  V30 END ATOM
M  V30 BEGIN BOND
M  V30 1 1 1 2
M  V30 2 1 2 3
M  V30 3 2 3 4
M  V30 4 1 3 5
M  V30 5 2 5 6
M  V30 6 1 6 7
M  V30 7 2 7 8
M  V30 8 1 8 9
M  V30 9 2 9 10
M  V30 10 1 8 11
M  V30 11 1 11 12
M  V30 12 1 11 13
M  V30 13 1 13 14
M  V30 14 2 14 15
M  V30 15 1 15 16
M  V30 16 2 16 17
M  V30 17 1 17 18
M  V30 18 2 18 19
M  V30 19 1 17 20
M  V30 20 2 20 21
M  V30 21 1 21 22
M  V30 22 1 21 23
M  V30 23 2 23 24
M  V30 24 1 24 25
M  V30 25 1 10 5
M  V30 26 1 19 14
M  V30 27 1 24 16
M  V30 28 1 1 26
M  V30 29 1 1 27
M  V30 30 1 1 28
M  V30 31 1 6 29
M  V30 32 1 7 30
M  V30 33 1 9 31
M  V30 34 1 10 32
M  V30 35 1 12 33
M  V30 36 1 12 34
M  V30 37 1 12 35
M  V30 38 1 13 36
M  V30 39 1 13 37
M  V30 40 1 19 38
M  V30 41 1 22 39
M  V30 42 1 22 40
M  V30 43 1 25 41
M  V30 44 1 25 42
M  V30 END BOND
M  V30 END CTAB
M  END
