
     RDKit          3D

  0  0  0  0  0  0  0  0  0  0999 V3000
M  V30 BEGIN CTAB
M  V30 COUNTS 47 47 0 0 0
M  V30 BEGIN ATOM
M  V30 1 N 1.58387 -1.4011 -0.738967 0
M  V30 2 C 1.43352 -0.0090024 -0.69103 0 CFG=2
M  V30 3 C 2.48066 0.772706 0.0176915 0
M  V30 4 C 3.8679 0.722781 -0.478646 0
M  V30 5 C 4.48165 -0.633805 -0.472786 0
M  V30 6 N 5.87191 -0.515687 -0.951275 0
M  V30 7 C 6.83862 0.153589 -0.169336 0
M  V30 8 N 7.55981 -0.494025 0.856078 0
M  V30 9 N 7.10558 1.40995 -0.368308 0
M  V30 10 C 0.133017 0.281328 0.0281931 0
M  V30 11 O -0.158142 1.49069 0.181328 0
M  V30 12 O -0.677678 -0.706495 0.484047 0
M  V30 13 C -1.87346 -0.494022 1.13733 0
M  V30 14 C -2.93524 0.222002 0.334187 0 CFG=1
M  V30 15 O -3.1974 -0.528382 -0.770592 0
M  V30 16 C -4.49631 -0.928829 -0.912699 0 CFG=2
M  V30 17 O -4.71358 -1.55712 -2.13585 0
M  V30 18 C -5.34997 0.342897 -0.917388 0 CFG=2
M  V30 19 O -4.61825 1.31339 -1.6255 0
M  V30 20 C -5.37594 0.793769 0.526119 0 CFG=1
M  V30 21 O -6.43329 0.132167 1.14702 0
M  V30 22 C -4.10269 0.456251 1.25035 0 CFG=1
M  V30 23 O -4.27797 -0.60043 2.13776 0
M  V30 24 H 1.55417 -1.82242 0.182648 0
M  V30 25 H 1.14838 -1.89845 -1.48099 0
M  V30 26 H 1.33605 0.359621 -1.75358 0
M  V30 27 H 2.09925 1.84912 0.0413652 0
M  V30 28 H 2.46106 0.445752 1.10465 0
M  V30 29 H 4.49126 1.34727 0.23725 0
M  V30 30 H 3.98451 1.21036 -1.48343 0
M  V30 31 H 4.46417 -1.1095 0.507825 0
M  V30 32 H 3.96397 -1.30118 -1.19304 0
M  V30 33 H 6.11942 -0.930323 -1.86635 0
M  V30 34 H 7.3839 -0.251312 1.847 0
M  V30 35 H 8.26923 -1.21525 0.6318 0
M  V30 36 H 6.592 1.91977 -1.11877 0
M  V30 37 H -2.31805 -1.51236 1.35683 0
M  V30 38 H -1.75472 0.0462503 2.10448 0
M  V30 39 H -2.52266 1.19077 0.00203469 0
M  V30 40 H -4.76447 -1.58298 -0.0583836 0
M  V30 41 H -4.33759 -2.46927 -2.13453 0
M  V30 42 H -6.33042 0.178634 -1.35877 0
M  V30 43 H -5.08051 2.18776 -1.61704 0
M  V30 44 H -5.61438 1.88454 0.548098 0
M  V30 45 H -6.52086 0.349238 2.08995 0
M  V30 46 H -3.84619 1.34728 1.88028 0
M  V30 47 H -3.9241 -0.445925 3.02864 0
M  V30 END ATOM
M  V30 BEGIN BOND
M  V30 1 1 1 2
M  V30 2 1 2 3
M  V30 3 1 3 4
M  V30 4 1 4 5
M  V30 5 1 5 6
M  V30 6 1 6 7
M  V30 7 1 7 8
M  V30 8 2 7 9 CFG=2
M  V30 9 1 2 10
M  V30 10 2 10 11
M  V30 11 1 10 12
M  V30 12 1 12 13
M  V30 13 1 13 14
M  V30 14 1 14 15
M  V30 15 1 15 16
M  V30 16 1 16 17
M  V30 17 1 16 18
M  V30 18 1 18 19
M  V30 19 1 18 20
M  V30 20 1 20 21
M  V30 21 1 20 22
M  V30 22 1 22 23
M  V30 23 1 22 14
M  V30 24 1 1 24
M  V30 25 1 1 25
M  V30 26 1 2 26 CFG=3
M  V30 27 1 3 27
M  V30 28 1 3 28
M  V30 29 1 4 29
M  V30 30 1 4 30
M  V30 31 1 5 31
M  V30 32 1 5 32
M  V30 33 1 6 33
M  V30 34 1 8 34
M  V30 35 1 8 35
M  V30 36 1 9 36
M  V30 37 1 13 37
M  V30 38 1 13 38
M  V30 39 1 14 39 CFG=3
M  V30 40 1 16 40 CFG=1
M  V30 41 1 17 41
M  V30 42 1 18 42 CFG=3
M  V30 43 1 19 43
M  V30 44 1 20 44 CFG=3
M  V30 45 1 21 45
M  V30 46 1 22 46 CFG=1
M  V30 47 1 23 47
M  V30 END BOND
M  V30 END CTAB
M  END
