
     RDKit          3D

  0  0  0  0  0  0  0  0  0  0999 V3000
M  V30 BEGIN CTAB
M  V30 COUNTS 20 21 0 0 0
M  V30 BEGIN ATOM
M  V30 1 N -4.01548 0.781465 -0.403317 0
M  V30 2 C -2.62913 0.525215 -0.270511 0
M  V30 3 N -2.22915 -0.583034 0.355283 0
M  V30 4 C -0.949581 -0.944696 0.548928 0
M  V30 5 N -0.672902 -2.16289 1.2383 0
M  V30 6 C 0.0773777 -0.110575 0.0657039 0
M  V30 7 C -0.346882 1.00708 -0.565205 0
M  V30 8 N -1.66054 1.33112 -0.737172 0
M  V30 9 S 1.12994 1.77856 -1.01701 0
M  V30 10 C 2.23066 0.623516 -0.371084 0
M  V30 11 C 1.40401 -0.307779 0.165498 0
M  V30 12 C 3.71937 0.676288 -0.414784 0
M  V30 13 H -4.61031 0.18681 -1.01881 0
M  V30 14 H -4.48015 1.56536 0.105465 0
M  V30 15 H -1.06923 -3.05267 0.869775 0
M  V30 16 H -0.0970339 -2.20866 2.08824 0
M  V30 17 H 1.88397 -1.18152 0.65735 0
M  V30 18 H 4.09001 1.71981 -0.238994 0
M  V30 19 H 4.11438 0.380745 -1.41496 0
M  V30 20 H 4.11068 -0.0241526 0.357304 0
M  V30 END ATOM
M  V30 BEGIN BOND
M  V30 1 1 1 2
M  V30 2 2 2 3
M  V30 3 1 3 4
M  V30 4 1 4 5
M  V30 5 2 4 6
M  V30 6 1 6 7
M  V30 7 2 7 8
M  V30 8 1 7 9
M  V30 9 1 9 10
M  V30 10 2 10 11
M  V30 11 1 10 12
M  V30 12 1 8 2
M  V30 13 1 11 6
M  V30 14 1 1 13
M  V30 15 1 1 14
M  V30 16 1 5 15
M  V30 17 1 5 16
M  V30 18 1 11 17
M  V30 19 1 12 18
M  V30 20 1 12 19
M  V30 21 1 12 20
M  V30 END BOND
M  V30 END CTAB
M  END
