
     RDKit          3D

  0  0  0  0  0  0  0  0  0  0999 V3000
M  V30 BEGIN CTAB
M  V30 COUNTS 25 26 0 0 0
M  V30 BEGIN ATOM
M  V30 1 N -3.46862 1.18397 0.78644 0
M  V30 2 C -3.18525 -0.187857 0.381619 0
M  V30 3 C -1.99422 -0.153045 -0.518458 0
M  V30 4 O -1.58681 -1.36432 -0.995366 0
M  V30 5 C -0.222884 -1.45385 -0.938468 0
M  V30 6 C 0.324049 -0.109791 -0.572244 0
M  V30 7 C -0.820416 0.433401 0.278546 0
M  V30 8 C 1.59044 -0.183007 0.191269 0
M  V30 9 O 1.88987 -0.811413 1.27856 0
M  V30 10 N 3.14427 -0.600017 1.61354 0
M  V30 11 C 3.69531 0.212754 0.692465 0
M  V30 12 N 2.70948 0.462939 -0.188548 0
M  V30 13 N 5.04793 0.709219 0.655235 0
M  V30 14 H -3.83157 1.24956 1.74581 0
M  V30 15 H -4.13963 1.6519 0.155326 0
M  V30 16 H -4.07492 -0.567618 -0.196252 0
M  V30 17 H -2.98075 -0.816432 1.26085 0
M  V30 18 H -2.16867 0.588703 -1.35117 0
M  V30 19 H 0.241779 -1.83891 -1.88679 0
M  V30 20 H 0.0392901 -2.22506 -0.161983 0
M  V30 21 H 0.391666 0.514766 -1.4634 0
M  V30 22 H -0.825618 -0.0152521 1.29494 0
M  V30 23 H -0.85474 1.53136 0.284975 0
M  V30 24 H 5.45669 0.970237 -0.280331 0
M  V30 25 H 5.62335 0.817755 1.49437 0
M  V30 END ATOM
M  V30 BEGIN BOND
M  V30 1 1 1 2
M  V30 2 1 2 3
M  V30 3 1 3 4
M  V30 4 1 4 5
M  V30 5 1 5 6
M  V30 6 1 6 7
M  V30 7 1 6 8
M  V30 8 1 8 9
M  V30 9 1 9 10
M  V30 10 2 10 11
M  V30 11 1 11 12
M  V30 12 1 11 13
M  V30 13 1 7 3
M  V30 14 2 12 8
M  V30 15 1 1 14
M  V30 16 1 1 15
M  V30 17 1 2 16
M  V30 18 1 2 17
M  V30 19 1 3 18
M  V30 20 1 5 19
M  V30 21 1 5 20
M  V30 22 1 6 21
M  V30 23 1 7 22
M  V30 24 1 7 23
M  V30 25 1 13 24
M  V30 26 1 13 25
M  V30 END BOND
M  V30 END CTAB
M  END
