
     RDKit          3D

  0  0  0  0  0  0  0  0  0  0999 V3000
M  V30 BEGIN CTAB
M  V30 COUNTS 28 28 0 0 0
M  V30 BEGIN ATOM
M  V30 1 C -3.22414 -1.67606 -0.471822 0
M  V30 2 O -2.0844 -0.992555 -0.945865 0
M  V30 3 C -1.29387 -0.715839 0.153548 0
M  V30 4 C -0.0676274 -0.0310605 -0.160192 0
M  V30 5 C 1.1609 -0.747683 -0.169735 0
M  V30 6 N 1.0095 -2.18101 -0.171529 0
M  V30 7 C 2.33771 -0.132731 -0.247084 0
M  V30 8 C 3.56712 -1.02308 -0.131901 0
M  V30 9 N 2.47312 1.15632 -0.367841 0
M  V30 10 C 1.31974 1.88141 -0.389714 0
M  V30 11 C 0.0870401 1.31767 -0.266303 0
M  V30 12 C -1.04742 2.24329 0.0261498 0
M  V30 13 N -0.548306 3.06641 1.19961 0
M  V30 14 H -2.95321 -2.59036 0.0953209 0
M  V30 15 H -3.78875 -0.914229 0.0730858 0
M  V30 16 H -3.85521 -1.97454 -1.35888 0
M  V30 17 H -1.15213 -1.5734 0.788707 0
M  V30 18 H -1.94869 -0.0243513 0.846628 0
M  V30 19 H 0.948853 -2.75764 0.674816 0
M  V30 20 H 1.01072 -2.58458 -1.15753 0
M  V30 21 H 4.36916 -0.554888 0.472696 0
M  V30 22 H 3.27351 -1.94717 0.454759 0
M  V30 23 H 3.81959 -1.23964 -1.17133 0
M  V30 24 H 1.46811 2.96568 -0.552121 0
M  V30 25 H -2.02023 1.90782 0.113982 0
M  V30 26 H -0.981657 3.04773 -0.772081 0
M  V30 27 H -0.608735 2.32207 2.00099 0
M  V30 28 H -1.27072 3.75243 1.43363 0
M  V30 END ATOM
M  V30 BEGIN BOND
M  V30 1 1 1 2
M  V30 2 1 2 3
M  V30 3 1 3 4
M  V30 4 2 4 5
M  V30 5 1 5 6
M  V30 6 1 5 7
M  V30 7 1 7 8
M  V30 8 2 7 9
M  V30 9 1 9 10
M  V30 10 2 10 11
M  V30 11 1 11 12
M  V30 12 1 12 13
M  V30 13 1 11 4
M  V30 14 1 1 14
M  V30 15 1 1 15
M  V30 16 1 1 16
M  V30 17 1 3 17
M  V30 18 1 3 18
M  V30 19 1 6 19
M  V30 20 1 6 20
M  V30 21 1 8 21
M  V30 22 1 8 22
M  V30 23 1 8 23
M  V30 24 1 10 24
M  V30 25 1 12 25
M  V30 26 1 12 26
M  V30 27 1 13 27
M  V30 28 1 13 28
M  V30 END BOND
M  V30 END CTAB
M  END
