
     RDKit          3D

  0  0  0  0  0  0  0  0  0  0999 V3000
M  V30 BEGIN CTAB
M  V30 COUNTS 25 25 0 0 0
M  V30 BEGIN ATOM
M  V30 1 Cl -5.2228 0.92704 0.0376457 0
M  V30 2 C -3.49172 1.3147 0.108529 0
M  V30 3 C -2.70687 0.0907861 -0.0244464 0
M  V30 4 O -3.29298 -1.01287 -0.16318 0
M  V30 5 C -1.24595 0.0546932 -0.00745014 0
M  V30 6 C -0.482764 1.22139 0.141264 0
M  V30 7 C 0.892228 1.17391 0.155639 0
M  V30 8 N 1.6147 2.38322 0.308787 0
M  V30 9 C 1.58358 -0.0047099 0.0266497 0
M  V30 10 C 0.84914 -1.16321 -0.120677 0
M  V30 11 C -0.529264 -1.11544 -0.135069 0
M  V30 12 N -1.21116 -2.36185 -0.291996 0
M  V30 13 O 2.97177 -0.00751048 0.0464816 0
M  V30 14 C 3.73643 -1.17131 -0.0797016 0
M  V30 15 H -3.32461 1.86224 1.05635 0
M  V30 16 H -3.30135 2.0555 -0.703783 0
M  V30 17 H -1.03202 2.145 0.242231 0
M  V30 18 H 1.93682 2.85745 -0.578282 0
M  V30 19 H 1.82858 2.80154 1.24099 0
M  V30 20 H 1.407 -2.08516 -0.221326 0
M  V30 21 H -1.52481 -2.84636 0.577671 0
M  V30 22 H -1.36164 -2.72381 -1.24842 0
M  V30 23 H 4.75915 -0.852507 -0.413782 0
M  V30 24 H 3.8159 -1.70418 0.895805 0
M  V30 25 H 3.33264 -1.83855 -0.849933 0
M  V30 END ATOM
M  V30 BEGIN BOND
M  V30 1 1 1 2
M  V30 2 1 2 3
M  V30 3 2 3 4
M  V30 4 1 3 5
M  V30 5 2 5 6
M  V30 6 1 6 7
M  V30 7 1 7 8
M  V30 8 2 7 9
M  V30 9 1 9 10
M  V30 10 2 10 11
M  V30 11 1 11 12
M  V30 12 1 9 13
M  V30 13 1 13 14
M  V30 14 1 11 5
M  V30 15 1 2 15
M  V30 16 1 2 16
M  V30 17 1 6 17
M  V30 18 1 8 18
M  V30 19 1 8 19
M  V30 20 1 10 20
M  V30 21 1 12 21
M  V30 22 1 12 22
M  V30 23 1 14 23
M  V30 24 1 14 24
M  V30 25 1 14 25
M  V30 END BOND
M  V30 END CTAB
M  END
