
     RDKit          3D

  0  0  0  0  0  0  0  0  0  0999 V3000
M  V30 BEGIN CTAB
M  V30 COUNTS 22 23 0 0 0
M  V30 BEGIN ATOM
M  V30 1 N 3.12602 1.10173 1.05148 0
M  V30 2 C 1.89148 0.558441 0.60282 0
M  V30 3 N 0.693149 1.19441 0.487956 0
M  V30 4 C -0.231313 0.345505 0.0301344 0
M  V30 5 N 0.392869 -0.81593 -0.138852 0
M  V30 6 N 1.67081 -0.700701 0.202339 0
M  V30 7 C 2.66952 -1.73105 0.160159 0
M  V30 8 C -1.67283 0.591985 -0.250984 0
M  V30 9 C -2.25914 1.80111 -0.0596659 0
M  V30 10 C -3.58111 1.91533 -0.348329 0
M  V30 11 S -4.00081 0.356989 -0.879537 0
M  V30 12 C -2.472 -0.407207 -0.719955 0
M  V30 13 N -2.16462 -1.76324 -1.01926 0
M  V30 14 H 3.72738 1.75487 0.505935 0
M  V30 15 H 3.45889 0.827526 1.99984 0
M  V30 16 H 2.91559 -2.0807 1.20301 0
M  V30 17 H 3.61305 -1.36672 -0.285375 0
M  V30 18 H 2.26843 -2.61563 -0.358529 0
M  V30 19 H -1.70577 2.68749 0.318677 0
M  V30 20 H -4.2229 2.81046 -0.25699 0
M  V30 21 H -2.15511 -2.44386 -0.259346 0
M  V30 22 H -1.96159 -2.0208 -1.98554 0
M  V30 END ATOM
M  V30 BEGIN BOND
M  V30 1 1 1 2
M  V30 2 2 2 3
M  V30 3 1 3 4
M  V30 4 2 4 5
M  V30 5 1 5 6
M  V30 6 1 6 7
M  V30 7 1 4 8
M  V30 8 1 8 9
M  V30 9 2 9 10
M  V30 10 1 10 11
M  V30 11 1 11 12
M  V30 12 1 12 13
M  V30 13 1 6 2
M  V30 14 2 12 8
M  V30 15 1 1 14
M  V30 16 1 1 15
M  V30 17 1 7 16
M  V30 18 1 7 17
M  V30 19 1 7 18
M  V30 20 1 9 19
M  V30 21 1 10 20
M  V30 22 1 13 21
M  V30 23 1 13 22
M  V30 END BOND
M  V30 END CTAB
M  END
