
     RDKit          3D

  0  0  0  0  0  0  0  0  0  0999 V3000
M  V30 BEGIN CTAB
M  V30 COUNTS 51 54 0 0 0
M  V30 BEGIN ATOM
M  V30 1 N -6.76728 1.01537 -0.755597 0
M  V30 2 C -6.35334 -0.265928 -1.10992 0 CFG=2
M  V30 3 C -5.71991 -0.995816 0.0416494 0
M  V30 4 C -4.3689 -0.933007 -0.638133 0 CFG=1
M  V30 5 C -5.05715 -0.384561 -1.8747 0
M  V30 6 C -3.41654 0.0174168 -0.00632646 0
M  V30 7 C -2.15161 -0.3871 0.364717 0
M  V30 8 C -1.25845 0.477974 0.949906 0
M  V30 9 N 0.0364184 0.00493281 1.31398 0
M  V30 10 C 0.355864 -1.38167 1.04719 0
M  V30 11 C 1.77129 -1.62813 1.52335 0
M  V30 12 N 2.62595 -0.731891 0.776455 0
M  V30 13 C 2.6835 -1.08512 -0.592614 0
M  V30 14 C 4.03629 -1.30354 -1.17283 0
M  V30 15 C 4.98581 -0.253493 -0.728148 0
M  V30 16 C 4.88081 0.150368 0.587369 0
M  V30 17 C 3.86278 -0.469455 1.43008 0
M  V30 18 C 5.73226 1.11564 1.05366 0
M  V30 19 C 6.6784 1.66155 0.188619 0
M  V30 20 C 6.75667 1.23787 -1.11412 0
M  V30 21 C 5.91276 0.275315 -1.59156 0
M  V30 22 N -1.63627 1.75439 1.1637 0
M  V30 23 C -2.86538 2.16139 0.80726 0
M  V30 24 N -3.72367 1.30178 0.236772 0
M  V30 25 N -3.21561 3.5129 1.05278 0
M  V30 26 H -6.84761 1.17761 0.217197 0
M  V30 27 H -7.09642 1.67489 -1.38231 0
M  V30 28 H -7.15178 -0.819122 -1.64536 0
M  V30 29 H -6.12547 -2.02585 0.113616 0
M  V30 30 H -5.74978 -0.463788 1.02462 0
M  V30 31 H -3.96859 -1.94774 -0.787301 0
M  V30 32 H -5.07783 -1.06801 -2.7385 0
M  V30 33 H -4.5915 0.581885 -2.17372 0
M  V30 34 H -1.87478 -1.4288 0.178023 0
M  V30 35 H 0.742666 0.637994 1.76303 0
M  V30 36 H 0.26429 -1.52846 -0.0506763 0
M  V30 37 H -0.378773 -2.07031 1.51462 0
M  V30 38 H 1.79051 -1.38425 2.59914 0
M  V30 39 H 2.04828 -2.69034 1.38309 0
M  V30 40 H 2.1185 -0.339118 -1.19037 0
M  V30 41 H 2.11339 -2.05092 -0.735571 0
M  V30 42 H 4.43427 -2.3124 -1.00796 0
M  V30 43 H 3.9432 -1.18913 -2.29129 0
M  V30 44 H 4.22665 -1.39576 1.96276 0
M  V30 45 H 3.65084 0.255643 2.2708 0
M  V30 46 H 5.68872 1.46625 2.08049 0
M  V30 47 H 7.37521 2.42821 0.510297 0
M  V30 48 H 7.48544 1.6561 -1.78749 0
M  V30 49 H 5.92604 -0.0971366 -2.60001 0
M  V30 50 H -2.89889 4.05132 1.88273 0
M  V30 51 H -3.83129 4.01409 0.364377 0
M  V30 END ATOM
M  V30 BEGIN BOND
M  V30 1 1 1 2
M  V30 2 1 2 3
M  V30 3 1 3 4
M  V30 4 1 4 5
M  V30 5 1 4 6
M  V30 6 2 6 7
M  V30 7 1 7 8
M  V30 8 1 8 9
M  V30 9 1 9 10
M  V30 10 1 10 11
M  V30 11 1 11 12
M  V30 12 1 12 13
M  V30 13 1 13 14
M  V30 14 1 14 15
M  V30 15 2 15 16
M  V30 16 1 16 17
M  V30 17 1 16 18
M  V30 18 2 18 19
M  V30 19 1 19 20
M  V30 20 2 20 21
M  V30 21 2 8 22
M  V30 22 1 22 23
M  V30 23 2 23 24
M  V30 24 1 23 25
M  V30 25 1 5 2
M  V30 26 1 24 6
M  V30 27 1 17 12
M  V30 28 1 21 15
M  V30 29 1 1 26
M  V30 30 1 1 27
M  V30 31 1 2 28 CFG=3
M  V30 32 1 3 29
M  V30 33 1 3 30
M  V30 34 1 4 31 CFG=3
M  V30 35 1 5 32
M  V30 36 1 5 33
M  V30 37 1 7 34
M  V30 38 1 9 35
M  V30 39 1 10 36
M  V30 40 1 10 37
M  V30 41 1 11 38
M  V30 42 1 11 39
M  V30 43 1 13 40
M  V30 44 1 13 41
M  V30 45 1 14 42
M  V30 46 1 14 43
M  V30 47 1 17 44
M  V30 48 1 17 45
M  V30 49 1 18 46
M  V30 50 1 19 47
M  V30 51 1 20 48
M  V30 52 1 21 49
M  V30 53 1 25 50
M  V30 54 1 25 51
M  V30 END BOND
M  V30 END CTAB
M  END
