
     RDKit          3D

  0  0  0  0  0  0  0  0  0  0999 V3000
M  V30 BEGIN CTAB
M  V30 COUNTS 37 39 0 0 0
M  V30 BEGIN ATOM
M  V30 1 N -1.73997 -1.61603 -1.8973 0
M  V30 2 C -2.43037 -0.996917 -0.770926 0
M  V30 3 C -3.69389 -1.41616 -0.459984 0
M  V30 4 C -4.42644 -0.756241 0.541804 0
M  V30 5 C -3.82341 0.313168 1.19809 0
M  V30 6 C -2.5148 0.703735 0.835664 0
M  V30 7 C -1.77129 0.106074 -0.126124 0
M  V30 8 C -0.407862 0.302479 -0.45213 0 CFG=1
M  V30 9 C -0.0482921 1.69041 -1.10516 0
M  V30 10 N 1.14264 1.28227 -1.91585 0
M  V30 11 C 2.19336 0.5009 -1.36707 0
M  V30 12 C 1.95966 -0.00904974 -0.0581381 0
M  V30 13 N 0.672435 0.323581 0.543699 0
M  V30 14 S 0.738805 0.77369 2.15551 0
M  V30 15 O 0.481668 2.30674 2.32498 0
M  V30 16 O 2.12586 0.824207 2.7764 0
M  V30 17 N -0.241554 -0.092681 3.26056 0
M  V30 18 C 2.89011 -0.787171 0.602018 0
M  V30 19 C 4.09717 -1.07915 -0.0567229 0
M  V30 20 C 4.29802 -0.572493 -1.33549 0
M  V30 21 C 3.36905 0.208532 -2.00167 0
M  V30 22 H -1.9215 -1.1357 -2.84922 0
M  V30 23 H -1.17267 -2.44913 -1.84809 0
M  V30 24 H -4.18353 -2.22655 -0.945157 0
M  V30 25 H -5.42139 -1.02632 0.826598 0
M  V30 26 H -4.28731 0.865003 2.03508 0
M  V30 27 H -2.05802 1.52536 1.37377 0
M  V30 28 H -0.149315 -0.377457 -1.23596 0
M  V30 29 H -0.862663 1.99773 -1.73648 0
M  V30 30 H 0.255928 2.41808 -0.375029 0
M  V30 31 H 1.18013 1.56744 -2.91596 0
M  V30 32 H 0.361691 -0.565331 4.00729 0
M  V30 33 H -0.952576 0.494206 3.72935 0
M  V30 34 H 2.64512 -1.12579 1.58226 0
M  V30 35 H 4.84955 -1.66997 0.470899 0
M  V30 36 H 5.27467 -0.816581 -1.79653 0
M  V30 37 H 3.57099 0.515114 -3.01496 0
M  V30 END ATOM
M  V30 BEGIN BOND
M  V30 1 1 1 2
M  V30 2 2 2 3
M  V30 3 1 3 4
M  V30 4 2 4 5
M  V30 5 1 5 6
M  V30 6 2 6 7
M  V30 7 1 7 8
M  V30 8 1 8 9
M  V30 9 1 9 10
M  V30 10 1 10 11
M  V30 11 2 11 12
M  V30 12 1 12 13
M  V30 13 1 13 14
M  V30 14 2 14 15
M  V30 15 2 14 16
M  V30 16 1 14 17
M  V30 17 1 12 18
M  V30 18 2 18 19
M  V30 19 1 19 20
M  V30 20 2 20 21
M  V30 21 1 7 2
M  V30 22 1 13 8
M  V30 23 1 21 11
M  V30 24 1 1 22
M  V30 25 1 1 23
M  V30 26 1 3 24
M  V30 27 1 4 25
M  V30 28 1 5 26
M  V30 29 1 6 27
M  V30 30 1 8 28 CFG=3
M  V30 31 1 9 29
M  V30 32 1 9 30
M  V30 33 1 10 31
M  V30 34 1 17 32
M  V30 35 1 17 33
M  V30 36 1 18 34
M  V30 37 1 19 35
M  V30 38 1 20 36
M  V30 39 1 21 37
M  V30 END BOND
M  V30 END CTAB
M  END
