
     RDKit          3D

  0  0  0  0  0  0  0  0  0  0999 V3000
M  V30 BEGIN CTAB
M  V30 COUNTS 52 56 0 0 0
M  V30 BEGIN ATOM
M  V30 1 N -3.20361 -1.33288 2.1352 0
M  V30 2 C -3.67827 -0.738163 0.905366 0
M  V30 3 C -5.02806 -0.754468 0.624682 0
M  V30 4 C -5.61205 -0.213108 -0.496289 0
M  V30 5 C -4.73371 0.389776 -1.39339 0
M  V30 6 C -3.3852 0.426194 -1.15055 0
M  V30 7 C -2.8294 -0.136545 0.00280024 0
M  V30 8 N -1.4143 -0.09614 0.193445 0
M  V30 9 C -0.67378 0.886357 -0.603178 0
M  V30 10 C 0.617592 1.29645 0.0663752 0
M  V30 11 N 1.38393 0.118224 0.339375 0
M  V30 12 C 0.76414 -1.11545 0.729556 0
M  V30 13 C -0.705507 -0.966598 1.07921 0
M  V30 14 C 2.81007 0.118264 0.234982 0
M  V30 15 C 3.47344 -0.719933 -0.637559 0
M  V30 16 C 4.84984 -0.730498 -0.748731 0
M  V30 17 C 5.62863 0.109151 0.0196363 0
M  V30 18 C 4.96524 0.946709 0.89155 0
M  V30 19 C 3.58948 0.958196 1.00358 0
M  V30 20 N 2.95674 1.83812 1.9149 0
M  V30 21 N 7.05018 0.13077 -0.0632134 0
M  V30 22 C 7.81153 -0.151856 -1.13529 0
M  V30 23 N 9.10673 -0.0146279 -0.800241 0
M  V30 24 N 9.19771 0.352966 0.473683 0
M  V30 25 C 7.92853 0.436328 0.906287 0
M  V30 26 N -6.99415 -0.246713 -0.752628 0
M  V30 27 C -7.82389 0.800044 -0.750899 0
M  V30 28 N -9.08257 0.354031 -1.04493 0
M  V30 29 N -9.02145 -0.953909 -1.22459 0
M  V30 30 C -7.73353 -1.31637 -1.04315 0
M  V30 31 H -3.07007 -2.34127 2.26432 0
M  V30 32 H -3.00462 -0.647671 2.89588 0
M  V30 33 H -5.69519 -1.22878 1.33574 0
M  V30 34 H -5.16468 0.825311 -2.28576 0
M  V30 35 H -2.72366 0.891555 -1.85989 0
M  V30 36 H -0.420063 0.41023 -1.55893 0
M  V30 37 H -1.34435 1.76381 -0.724495 0
M  V30 38 H 0.397384 1.88865 0.976665 0
M  V30 39 H 1.17877 1.90313 -0.666255 0
M  V30 40 H 1.2982 -1.5624 1.57824 0
M  V30 41 H 0.852998 -1.81015 -0.156609 0
M  V30 42 H -1.11458 -2.01282 0.926157 0
M  V30 43 H -0.733838 -0.663429 2.14043 0
M  V30 44 H 2.85056 -1.38536 -1.24608 0
M  V30 45 H 5.34636 -1.40147 -1.44466 0
M  V30 46 H 5.59446 1.6124 1.49987 0
M  V30 47 H 2.45659 1.43728 2.73287 0
M  V30 48 H 2.96339 2.87282 1.81239 0
M  V30 49 H 7.45893 -0.44312 -2.11342 0
M  V30 50 H 7.63703 0.713448 1.90678 0
M  V30 51 H -7.61543 1.83701 -0.561726 0
M  V30 52 H -7.36254 -2.33351 -1.12402 0
M  V30 END ATOM
M  V30 BEGIN BOND
M  V30 1 1 1 2
M  V30 2 2 2 3
M  V30 3 1 3 4
M  V30 4 2 4 5
M  V30 5 1 5 6
M  V30 6 2 6 7
M  V30 7 1 7 8
M  V30 8 1 8 9
M  V30 9 1 9 10
M  V30 10 1 10 11
M  V30 11 1 11 12
M  V30 12 1 12 13
M  V30 13 1 11 14
M  V30 14 2 14 15
M  V30 15 1 15 16
M  V30 16 2 16 17
M  V30 17 1 17 18
M  V30 18 2 18 19
M  V30 19 1 19 20
M  V30 20 1 17 21
M  V30 21 1 21 22
M  V30 22 2 22 23
M  V30 23 1 23 24
M  V30 24 2 24 25
M  V30 25 1 4 26
M  V30 26 1 26 27
M  V30 27 2 27 28
M  V30 28 1 28 29
M  V30 29 2 29 30
M  V30 30 1 7 2
M  V30 31 1 13 8
M  V30 32 1 19 14
M  V30 33 1 25 21
M  V30 34 1 30 26
M  V30 35 1 1 31
M  V30 36 1 1 32
M  V30 37 1 3 33
M  V30 38 1 5 34
M  V30 39 1 6 35
M  V30 40 1 9 36
M  V30 41 1 9 37
M  V30 42 1 10 38
M  V30 43 1 10 39
M  V30 44 1 12 40
M  V30 45 1 12 41
M  V30 46 1 13 42
M  V30 47 1 13 43
M  V30 48 1 15 44
M  V30 49 1 16 45
M  V30 50 1 18 46
M  V30 51 1 20 47
M  V30 52 1 20 48
M  V30 53 1 22 49
M  V30 54 1 25 50
M  V30 55 1 27 51
M  V30 56 1 30 52
M  V30 END BOND
M  V30 END CTAB
M  END
