
     RDKit          3D

  0  0  0  0  0  0  0  0  0  0999 V3000
M  V30 BEGIN CTAB
M  V30 COUNTS 33 34 0 0 0
M  V30 BEGIN ATOM
M  V30 1 N -0.258527 0.0500974 2.46606 0
M  V30 2 C -1.01926 0.363452 1.30614 0
M  V30 3 C -0.786303 -0.353188 0.139413 0
M  V30 4 S 0.389683 -1.67608 0.187179 0
M  V30 5 C 2.07133 -1.1063 0.141307 0
M  V30 6 C 2.77003 -0.742961 -0.974258 0
M  V30 7 C 4.10397 -0.31844 -0.938099 0
M  V30 8 C 4.78661 -0.245533 0.241038 0
M  V30 9 C 4.07241 -0.616427 1.36669 0
M  V30 10 C 2.77283 -1.03291 1.35163 0
M  V30 11 C -1.50859 -0.0981571 -1.02671 0
M  V30 12 C -2.47382 0.914621 -0.9744 0
M  V30 13 C -2.71212 1.63047 0.174016 0
M  V30 14 C -1.97548 1.34352 1.31182 0
M  V30 15 C -3.73223 2.67407 0.23253 0
M  V30 16 O -3.93215 3.38836 1.385 0
M  V30 17 O -4.438 2.93696 -0.759253 0
M  V30 18 S -1.33923 -1.06052 -2.48074 0
M  V30 19 N -1.71111 -2.72329 -2.16588 0
M  V30 20 O -0.0847716 -0.852089 -3.20815 0
M  V30 21 O -2.46643 -0.603644 -3.42656 0
M  V30 22 H -0.191171 -0.949208 2.74571 0
M  V30 23 H 0.21392 0.759676 3.02515 0
M  V30 24 H 2.30728 -0.777282 -1.94153 0
M  V30 25 H 4.63284 -0.0299982 -1.84758 0
M  V30 26 H 5.83016 0.0817157 0.319679 0
M  V30 27 H 4.54211 -0.594599 2.36503 0
M  V30 28 H 2.26421 -1.34042 2.27059 0
M  V30 29 H -3.04647 1.12989 -1.89259 0
M  V30 30 H -2.17705 1.91451 2.19527 0
M  V30 31 H -3.19068 3.9329 1.82753 0
M  V30 32 H -2.69171 -2.77393 -1.80129 0
M  V30 33 H -1.0223 -3.22527 -1.61474 0
M  V30 END ATOM
M  V30 BEGIN BOND
M  V30 1 1 1 2
M  V30 2 2 2 3
M  V30 3 1 3 4
M  V30 4 1 4 5
M  V30 5 2 5 6
M  V30 6 1 6 7
M  V30 7 2 7 8
M  V30 8 1 8 9
M  V30 9 2 9 10
M  V30 10 1 3 11
M  V30 11 2 11 12
M  V30 12 1 12 13
M  V30 13 2 13 14
M  V30 14 1 13 15
M  V30 15 1 15 16
M  V30 16 2 15 17
M  V30 17 1 11 18
M  V30 18 1 18 19
M  V30 19 2 18 20
M  V30 20 2 18 21
M  V30 21 1 14 2
M  V30 22 1 10 5
M  V30 23 1 1 22
M  V30 24 1 1 23
M  V30 25 1 6 24
M  V30 26 1 7 25
M  V30 27 1 8 26
M  V30 28 1 9 27
M  V30 29 1 10 28
M  V30 30 1 12 29
M  V30 31 1 14 30
M  V30 32 1 16 31
M  V30 33 1 19 32
M  V30 34 1 19 33
M  V30 END BOND
M  V30 END CTAB
M  END
