
     RDKit          3D

  0  0  0  0  0  0  0  0  0  0999 V3000
M  V30 BEGIN CTAB
M  V30 COUNTS 55 56 0 0 0
M  V30 BEGIN ATOM
M  V30 1 C 4.03605 1.80683 4.17445 0
M  V30 2 N 3.17717 1.45744 3.06161 0
M  V30 3 C 3.96649 0.738862 2.11043 0
M  V30 4 C 3.18953 0.312819 0.884426 0 CFG=1
M  V30 5 C 4.16234 -0.200891 -0.107272 0
M  V30 6 C 3.61972 -1.08348 -1.18035 0
M  V30 7 C 2.38912 -1.85279 -0.68078 0 CFG=2
M  V30 8 N 1.79446 -2.62746 -1.72428 0
M  V30 9 C 1.50744 -0.842017 -0.0343104 0 CFG=1
M  V30 10 O 0.189354 -1.11793 0.0598747 0
M  V30 11 C -0.661304 -0.191545 -0.547701 0 CFG=2
M  V30 12 C -1.44467 0.432924 0.553534 0 CFG=2
M  V30 13 N -1.51116 -0.455048 1.70926 0
M  V30 14 C -2.80682 0.946993 0.19145 0
M  V30 15 C -3.04356 0.923749 -1.30568 0 CFG=2
M  V30 16 O -4.33785 1.33708 -1.55434 0
M  V30 17 C -4.37 2.42492 -2.44507 0
M  V30 18 C -2.8913 -0.519156 -1.7055 0 CFG=2
M  V30 19 N -3.74557 -1.39714 -0.965015 0
M  V30 20 C -5.14613 -1.13115 -1.19168 0
M  V30 21 C -1.43688 -0.89428 -1.60391 0 CFG=1
M  V30 22 O -0.901823 -0.659375 -2.89474 0
M  V30 23 O 2.12492 -0.51349 1.17568 0
M  V30 24 H 5.04548 2.01392 3.74531 0
M  V30 25 H 4.14126 0.945921 4.8356 0
M  V30 26 H 3.72372 2.7252 4.6878 0
M  V30 27 H 2.61974 2.23272 2.69126 0
M  V30 28 H 4.81641 1.36917 1.78028 0
M  V30 29 H 4.41254 -0.134443 2.64506 0
M  V30 30 H 2.72294 1.2669 0.494783 0
M  V30 31 H 5.00442 -0.733818 0.382878 0
M  V30 32 H 4.63145 0.688565 -0.621845 0
M  V30 33 H 4.39348 -1.76391 -1.54999 0
M  V30 34 H 3.27112 -0.448679 -2.02069 0
M  V30 35 H 2.8092 -2.51148 0.138124 0
M  V30 36 H 2.34755 -3.50944 -1.90482 0
M  V30 37 H 0.882031 -3.00075 -1.322 0
M  V30 38 H 1.58916 0.113894 -0.637143 0
M  V30 39 H 0.0241592 0.595042 -0.988488 0
M  V30 40 H -0.869847 1.33653 0.916572 0
M  V30 41 H -1.44995 -1.45951 1.45412 0
M  V30 42 H -0.770815 -0.24322 2.40289 0
M  V30 43 H -3.54778 0.22729 0.634401 0
M  V30 44 H -3.04735 1.93346 0.637358 0
M  V30 45 H -2.2999 1.53575 -1.85682 0
M  V30 46 H -3.8345 3.30115 -2.0811 0
M  V30 47 H -3.86483 2.08058 -3.37539 0
M  V30 48 H -5.40533 2.70302 -2.69729 0
M  V30 49 H -3.2496 -0.579425 -2.77658 0
M  V30 50 H -3.54612 -2.37378 -1.28994 0
M  V30 51 H -5.35508 -0.788246 -2.24375 0
M  V30 52 H -5.7593 -2.0716 -1.10845 0
M  V30 53 H -5.57956 -0.455371 -0.43092 0
M  V30 54 H -1.40666 -2.00774 -1.47156 0
M  V30 55 H -0.307561 0.116458 -2.89877 0
M  V30 END ATOM
M  V30 BEGIN BOND
M  V30 1 1 1 2
M  V30 2 1 2 3
M  V30 3 1 3 4
M  V30 4 1 4 5
M  V30 5 1 5 6
M  V30 6 1 6 7
M  V30 7 1 7 8
M  V30 8 1 7 9
M  V30 9 1 9 10
M  V30 10 1 10 11
M  V30 11 1 11 12
M  V30 12 1 12 13
M  V30 13 1 12 14
M  V30 14 1 14 15
M  V30 15 1 15 16
M  V30 16 1 16 17
M  V30 17 1 15 18
M  V30 18 1 18 19
M  V30 19 1 19 20
M  V30 20 1 18 21
M  V30 21 1 21 22
M  V30 22 1 9 23
M  V30 23 1 23 4
M  V30 24 1 21 11
M  V30 25 1 1 24
M  V30 26 1 1 25
M  V30 27 1 1 26
M  V30 28 1 2 27
M  V30 29 1 3 28
M  V30 30 1 3 29
M  V30 31 1 4 30 CFG=3
M  V30 32 1 5 31
M  V30 33 1 5 32
M  V30 34 1 6 33
M  V30 35 1 6 34
M  V30 36 1 7 35 CFG=1
M  V30 37 1 8 36
M  V30 38 1 8 37
M  V30 39 1 9 38 CFG=3
M  V30 40 1 11 39 CFG=3
M  V30 41 1 12 40 CFG=1
M  V30 42 1 13 41
M  V30 43 1 13 42
M  V30 44 1 14 43
M  V30 45 1 14 44
M  V30 46 1 15 45 CFG=3
M  V30 47 1 17 46
M  V30 48 1 17 47
M  V30 49 1 17 48
M  V30 50 1 18 49 CFG=3
M  V30 51 1 19 50
M  V30 52 1 20 51
M  V30 53 1 20 52
M  V30 54 1 20 53
M  V30 55 1 21 54 CFG=1
M  V30 56 1 22 55
M  V30 END BOND
M  V30 END CTAB
M  END
