
     RDKit          3D

  0  0  0  0  0  0  0  0  0  0999 V3000
M  V30 BEGIN CTAB
M  V30 COUNTS 25 26 0 0 0
M  V30 BEGIN ATOM
M  V30 1 N 3.36559 2.18393 0.0402091 0
M  V30 2 C 2.41278 1.13409 -0.0195026 0
M  V30 3 N 1.07362 1.24841 -0.237601 0
M  V30 4 N 0.496204 0.0656886 -0.227671 0
M  V30 5 C 1.45817 -0.842813 -0.00126819 0
M  V30 6 C 2.67666 -0.211378 0.135111 0
M  V30 7 N 1.28981 -2.2642 0.0924669 0
M  V30 8 C -0.869236 -0.277787 -0.41119 0
M  V30 9 C -1.30713 -1.23407 -1.28648 0
M  V30 10 C -2.6582 -1.49566 -1.39259 0
M  V30 11 N -3.58911 -0.840892 -0.659996 0
M  V30 12 C -3.17539 0.102035 0.205029 0
M  V30 13 C -1.82092 0.394614 0.340668 0
M  V30 14 C -1.39358 1.42833 1.29179 0
M  V30 15 H 4.19873 2.12845 0.659022 0
M  V30 16 H 3.23125 3.02981 -0.546686 0
M  V30 17 H 3.64492 -0.652609 0.323056 0
M  V30 18 H 0.950898 -2.70641 0.984003 0
M  V30 19 H 1.50727 -2.87528 -0.739651 0
M  V30 20 H -0.600001 -1.77469 -1.88473 0
M  V30 21 H -2.9826 -2.26557 -2.10035 0
M  V30 22 H -3.93374 0.619051 0.786018 0
M  V30 23 H -0.472653 1.15984 1.84224 0
M  V30 24 H -2.18801 1.5504 2.05666 0
M  V30 25 H -1.31533 2.39671 0.751443 0
M  V30 END ATOM
M  V30 BEGIN BOND
M  V30 1 1 1 2
M  V30 2 2 2 3
M  V30 3 1 3 4
M  V30 4 1 4 5
M  V30 5 2 5 6
M  V30 6 1 5 7
M  V30 7 1 4 8
M  V30 8 2 8 9
M  V30 9 1 9 10
M  V30 10 2 10 11
M  V30 11 1 11 12
M  V30 12 2 12 13
M  V30 13 1 13 14
M  V30 14 1 6 2
M  V30 15 1 13 8
M  V30 16 1 1 15
M  V30 17 1 1 16
M  V30 18 1 6 17
M  V30 19 1 7 18
M  V30 20 1 7 19
M  V30 21 1 9 20
M  V30 22 1 10 21
M  V30 23 1 12 22
M  V30 24 1 14 23
M  V30 25 1 14 24
M  V30 26 1 14 25
M  V30 END BOND
M  V30 END CTAB
M  END
