
     RDKit          3D

  0  0  0  0  0  0  0  0  0  0999 V3000
M  V30 BEGIN CTAB
M  V30 COUNTS 61 63 0 0 0
M  V30 BEGIN ATOM
M  V30 1 C 8.47674 -1.12953 0.897998 0
M  V30 2 C 7.00865 -0.682525 0.954688 0
M  V30 3 C 6.93483 0.627823 0.244231 0
M  V30 4 C 5.54126 1.20638 0.2152 0
M  V30 5 C 4.64106 0.237493 -0.493916 0
M  V30 6 C 3.20165 0.770055 -0.559474 0
M  V30 7 C 2.61429 1.00357 0.766733 0
M  V30 8 C 1.15216 0.885978 0.903499 0
M  V30 9 C 0.497177 -0.0982512 -0.0217019 0
M  V30 10 C 0.954147 0.186932 -1.43586 0
M  V30 11 C 2.44514 -0.172708 -1.44824 0
M  V30 12 C -0.99116 -0.132314 0.10544 0
M  V30 13 C -1.65174 1.17087 -0.186775 0
M  V30 14 C -3.05109 1.048 -0.754198 0
M  V30 15 C -3.70313 -0.23771 -0.47476 0
M  V30 16 C -2.96388 -1.32731 -0.551162 0
M  V30 17 C -1.51357 -1.13863 -0.921137 0
M  V30 18 C -5.11098 -0.311365 -0.125518 0
M  V30 19 C -5.69555 -1.52433 0.167562 0
M  V30 20 C -7.0474 -1.64779 0.500948 0
M  V30 21 N -7.61261 -2.91902 0.796851 0
M  V30 22 C -7.82112 -0.518433 0.537677 0
M  V30 23 C -7.25308 0.700786 0.247587 0
M  V30 24 N -8.05327 1.88297 0.283789 0
M  V30 25 C -5.91321 0.806159 -0.0807917 0
M  V30 26 H 8.7629 -1.36466 -0.151328 0
M  V30 27 H 9.14242 -0.372256 1.3295 0
M  V30 28 H 8.51011 -2.10324 1.44157 0
M  V30 29 H 6.44107 -1.49716 0.507279 0
M  V30 30 H 6.77914 -0.501123 2.02582 0
M  V30 31 H 7.39107 0.604376 -0.768151 0
M  V30 32 H 7.58353 1.34427 0.828781 0
M  V30 33 H 5.2045 1.32947 1.2818 0
M  V30 34 H 5.49328 2.16059 -0.331981 0
M  V30 35 H 4.6149 -0.772269 -0.00828491 0
M  V30 36 H 4.97207 0.180255 -1.55231 0
M  V30 37 H 3.28504 1.74433 -1.10406 0
M  V30 38 H 3.08639 0.273748 1.49096 0
M  V30 39 H 2.94653 2.00746 1.16723 0
M  V30 40 H 0.834262 0.608732 1.94021 0
M  V30 41 H 0.673714 1.87783 0.711687 0
M  V30 42 H 0.89373 -1.10516 0.23891 0
M  V30 43 H 0.834486 1.25023 -1.6783 0
M  V30 44 H 0.486061 -0.497866 -2.17359 0
M  V30 45 H 2.4983 -1.18904 -0.993616 0
M  V30 46 H 2.83355 -0.23435 -2.4626 0
M  V30 47 H -1.2864 -0.520179 1.09639 0
M  V30 48 H -1.044 1.77735 -0.893107 0
M  V30 49 H -1.72134 1.71558 0.799283 0
M  V30 50 H -3.62031 1.91753 -0.380793 0
M  V30 51 H -2.98226 1.22 -1.86785 0
M  V30 52 H -3.29398 -2.32016 -0.37779 0
M  V30 53 H -0.958133 -2.0755 -0.912352 0
M  V30 54 H -1.52982 -0.70804 -1.94315 0
M  V30 55 H -5.15253 -2.47953 0.163631 0
M  V30 56 H -7.62335 -3.30029 1.75239 0
M  V30 57 H -8.02846 -3.48318 0.0275046 0
M  V30 58 H -8.87355 -0.609274 0.796702 0
M  V30 59 H -8.11425 2.54108 -0.519184 0
M  V30 60 H -8.5844 2.07577 1.14748 0
M  V30 61 H -5.53957 1.81758 -0.303579 0
M  V30 END ATOM
M  V30 BEGIN BOND
M  V30 1 1 1 2
M  V30 2 1 2 3
M  V30 3 1 3 4
M  V30 4 1 4 5
M  V30 5 1 5 6
M  V30 6 1 6 7
M  V30 7 1 7 8
M  V30 8 1 8 9
M  V30 9 1 9 10
M  V30 10 1 10 11
M  V30 11 1 9 12
M  V30 12 1 12 13
M  V30 13 1 13 14
M  V30 14 1 14 15
M  V30 15 2 15 16
M  V30 16 1 16 17
M  V30 17 1 15 18
M  V30 18 2 18 19
M  V30 19 1 19 20
M  V30 20 1 20 21
M  V30 21 2 20 22
M  V30 22 1 22 23
M  V30 23 1 23 24
M  V30 24 2 23 25
M  V30 25 1 11 6
M  V30 26 1 17 12
M  V30 27 1 25 18
M  V30 28 1 1 26
M  V30 29 1 1 27
M  V30 30 1 1 28
M  V30 31 1 2 29
M  V30 32 1 2 30
M  V30 33 1 3 31
M  V30 34 1 3 32
M  V30 35 1 4 33
M  V30 36 1 4 34
M  V30 37 1 5 35
M  V30 38 1 5 36
M  V30 39 1 6 37
M  V30 40 1 7 38
M  V30 41 1 7 39
M  V30 42 1 8 40
M  V30 43 1 8 41
M  V30 44 1 9 42
M  V30 45 1 10 43
M  V30 46 1 10 44
M  V30 47 1 11 45
M  V30 48 1 11 46
M  V30 49 1 12 47
M  V30 50 1 13 48
M  V30 51 1 13 49
M  V30 52 1 14 50
M  V30 53 1 14 51
M  V30 54 1 16 52
M  V30 55 1 17 53
M  V30 56 1 17 54
M  V30 57 1 19 55
M  V30 58 1 21 56
M  V30 59 1 21 57
M  V30 60 1 22 58
M  V30 61 1 24 59
M  V30 62 1 24 60
M  V30 63 1 25 61
M  V30 END BOND
M  V30 END CTAB
M  END
