
     RDKit          3D

  0  0  0  0  0  0  0  0  0  0999 V3000
M  V30 BEGIN CTAB
M  V30 COUNTS 34 37 0 0 0
M  V30 BEGIN ATOM
M  V30 1 N 5.33097 -0.320858 -0.385426 0
M  V30 2 C 4.17796 0.526616 -0.255605 0
M  V30 3 C 4.33132 1.88694 -0.18454 0
M  V30 4 C 3.249 2.72782 -0.0599478 0
M  V30 5 C 1.95562 2.20557 -0.00263198 0
M  V30 6 C 1.79817 0.860897 -0.0724757 0
M  V30 7 C 2.90669 0.0113615 -0.199384 0
M  V30 8 N 2.78269 -1.3245 -0.27099 0
M  V30 9 C 1.56896 -1.88939 -0.221686 0
M  V30 10 N 1.39189 -3.30218 -0.294276 0
M  V30 11 C 0.484729 -1.06256 -0.0978058 0
M  V30 12 N -0.818609 -1.33824 -0.0250141 0
M  V30 13 N -1.52506 -0.230691 0.0898177 0
M  V30 14 C -0.652859 0.796179 0.0916187 0
M  V30 15 O -1.02005 1.97827 0.187667 0
M  V30 16 N 0.585267 0.292699 -0.0234269 0
M  V30 17 C -2.94621 -0.202887 0.188886 0
M  V30 18 C -3.75922 -0.629812 -0.867248 0
M  V30 19 C -5.13294 -0.602499 -0.770371 0
M  V30 20 C -5.76135 -0.153746 0.370243 0
M  V30 21 C -4.97838 0.274831 1.43113 0
M  V30 22 C -3.60181 0.241231 1.3184 0
M  V30 23 H 5.29323 -1.22574 -0.876112 0
M  V30 24 H 6.217 0.00391289 0.032786 0
M  V30 25 H 5.33249 2.29625 -0.228603 0
M  V30 26 H 3.41097 3.78208 -0.00782977 0
M  V30 27 H 1.14046 2.88289 0.0938443 0
M  V30 28 H 1.67002 -3.96396 0.450271 0
M  V30 29 H 0.951494 -3.69984 -1.15682 0
M  V30 30 H -3.27211 -0.975714 -1.74649 0
M  V30 31 H -5.76244 -0.931514 -1.58423 0
M  V30 32 H -6.83866 -0.123313 0.468856 0
M  V30 33 H -5.49441 0.624412 2.32022 0
M  V30 34 H -3.01481 0.585484 2.17142 0
M  V30 END ATOM
M  V30 BEGIN BOND
M  V30 1 1 1 2
M  V30 2 2 2 3
M  V30 3 1 3 4
M  V30 4 2 4 5
M  V30 5 1 5 6
M  V30 6 2 6 7
M  V30 7 1 7 8
M  V30 8 2 8 9
M  V30 9 1 9 10
M  V30 10 1 9 11
M  V30 11 2 11 12
M  V30 12 1 12 13
M  V30 13 1 13 14
M  V30 14 2 14 15
M  V30 15 1 14 16
M  V30 16 1 13 17
M  V30 17 2 17 18
M  V30 18 1 18 19
M  V30 19 2 19 20
M  V30 20 1 20 21
M  V30 21 2 21 22
M  V30 22 1 7 2
M  V30 23 1 16 11
M  V30 24 1 22 17
M  V30 25 1 16 6
M  V30 26 1 1 23
M  V30 27 1 1 24
M  V30 28 1 3 25
M  V30 29 1 4 26
M  V30 30 1 5 27
M  V30 31 1 10 28
M  V30 32 1 10 29
M  V30 33 1 18 30
M  V30 34 1 19 31
M  V30 35 1 20 32
M  V30 36 1 21 33
M  V30 37 1 22 34
M  V30 END BOND
M  V30 END CTAB
M  END
