
     RDKit          3D

  0  0  0  0  0  0  0  0  0  0999 V3000
M  V30 BEGIN CTAB
M  V30 COUNTS 23 25 0 0 0
M  V30 BEGIN ATOM
M  V30 1 N 3.62191 2.41742 -0.574958 0
M  V30 2 C 2.97656 1.16515 -0.374366 0
M  V30 3 N 3.1798 0.241601 0.551924 0
M  V30 4 C 2.48072 -0.839432 0.56369 0
M  V30 5 C 1.52191 -1.004 -0.410683 0
M  V30 6 S 1.71564 0.468455 -1.29509 0
M  V30 7 C 0.609801 -2.12036 -0.618918 0
M  V30 8 N 0.881572 -3.4056 -0.889215 0
M  V30 9 O -0.24675 -4.07042 -0.990213 0
M  V30 10 N -1.26772 -3.2807 -0.798041 0
M  V30 11 C -0.752664 -2.03786 -0.560757 0
M  V30 12 C -1.55985 -0.850374 -0.302886 0
M  V30 13 C -1.7832 0.215067 -1.13752 0
M  V30 14 N -2.53143 1.17503 -0.705158 0
M  V30 15 C -3.06052 1.12743 0.498381 0
M  V30 16 S -2.46116 -0.390314 1.07741 0
M  V30 17 N -3.90794 2.06731 1.17062 0
M  V30 18 H 4.62651 2.52191 -0.35542 0
M  V30 19 H 3.10276 3.23423 -0.93998 0
M  V30 20 H 2.61987 -1.63736 1.32226 0
M  V30 21 H -1.32796 0.227808 -2.15287 0
M  V30 22 H -3.79887 3.07874 1.03929 0
M  V30 23 H -4.63896 1.69627 1.79729 0
M  V30 END ATOM
M  V30 BEGIN BOND
M  V30 1 1 1 2
M  V30 2 2 2 3
M  V30 3 1 3 4
M  V30 4 2 4 5
M  V30 5 1 5 6
M  V30 6 1 5 7
M  V30 7 2 7 8
M  V30 8 1 8 9
M  V30 9 1 9 10
M  V30 10 2 10 11
M  V30 11 1 11 12
M  V30 12 2 12 13
M  V30 13 1 13 14
M  V30 14 2 14 15
M  V30 15 1 15 16
M  V30 16 1 15 17
M  V30 17 1 6 2
M  V30 18 1 11 7
M  V30 19 1 16 12
M  V30 20 1 1 18
M  V30 21 1 1 19
M  V30 22 1 4 20
M  V30 23 1 13 21
M  V30 24 1 17 22
M  V30 25 1 17 23
M  V30 END BOND
M  V30 END CTAB
M  END
