
     RDKit          3D

  0  0  0  0  0  0  0  0  0  0999 V3000
M  V30 BEGIN CTAB
M  V30 COUNTS 16 15 0 0 0
M  V30 BEGIN ATOM
M  V30 1 N -2.24071 0.627769 0.336432 0
M  V30 2 C -1.50966 -0.583422 0.654437 0
M  V30 3 C -0.938609 -1.10911 -0.641215 0
M  V30 4 S 0.156554 0.145367 -1.3407 0
M  V30 5 C 1.59332 0.349759 -0.310387 0
M  V30 6 N 2.59595 1.3171 -0.659985 0
M  V30 7 N 1.78893 -0.341064 0.750641 0
M  V30 8 H -1.71648 1.20726 -0.347735 0
M  V30 9 H -3.2208 0.448969 0.0727312 0
M  V30 10 H -2.18577 -1.33959 1.1161 0
M  V30 11 H -0.693265 -0.433744 1.36995 0
M  V30 12 H -0.39647 -2.04259 -0.396771 0
M  V30 13 H -1.76194 -1.36625 -1.34811 0
M  V30 14 H 3.58826 1.02257 -0.771605 0
M  V30 15 H 2.31631 2.30525 -0.797854 0
M  V30 16 H 2.62439 -0.208271 1.33212 0
M  V30 END ATOM
M  V30 BEGIN BOND
M  V30 1 1 1 2
M  V30 2 1 2 3
M  V30 3 1 3 4
M  V30 4 1 4 5
M  V30 5 1 5 6
M  V30 6 2 5 7 CFG=2
M  V30 7 1 1 8
M  V30 8 1 1 9
M  V30 9 1 2 10
M  V30 10 1 2 11
M  V30 11 1 3 12
M  V30 12 1 3 13
M  V30 13 1 6 14
M  V30 14 1 6 15
M  V30 15 1 7 16
M  V30 END BOND
M  V30 END CTAB
M  END
