
     RDKit          3D

  0  0  0  0  0  0  0  0  0  0999 V3000
M  V30 BEGIN CTAB
M  V30 COUNTS 23 23 0 0 0
M  V30 BEGIN ATOM
M  V30 1 C 4.31853 -0.44986 -0.0281171 0
M  V30 2 O 2.96157 -0.0296205 0.0126906 0
M  V30 3 C 1.89547 -0.891631 -0.0927635 0
M  V30 4 O 2.11981 -2.1175 -0.23291 0
M  V30 5 C 0.493463 -0.475765 -0.0527062 0
M  V30 6 C 0.236934 0.885972 0.102934 0
M  V30 7 C -1.01868 1.40957 0.156239 0
M  V30 8 N -1.21544 2.79815 0.315345 0
M  V30 9 C -2.07593 0.511309 0.0466394 0
M  V30 10 C -1.83391 -0.835697 -0.107378 0
M  V30 11 C -0.551165 -1.33415 -0.157631 0
M  V30 12 N -2.90152 -1.76374 -0.220456 0
M  V30 13 C -3.42237 1.00416 0.0958663 0
M  V30 14 N -4.52741 1.39105 0.124094 0
M  V30 15 H 4.60065 -0.642957 -1.06455 0
M  V30 16 H 4.38241 -1.35654 0.61332 0
M  V30 17 H 4.97336 0.321152 0.419168 0
M  V30 18 H 1.08466 1.57152 0.186815 0
M  V30 19 H -0.459977 3.37869 0.757296 0
M  V30 20 H -2.09357 3.2584 0.00375327 0
M  V30 21 H -0.353113 -2.40096 -0.279563 0
M  V30 22 H -3.37736 -2.18565 0.589393 0
M  V30 23 H -3.23644 -2.04591 -1.18748 0
M  V30 END ATOM
M  V30 BEGIN BOND
M  V30 1 1 1 2
M  V30 2 1 2 3
M  V30 3 2 3 4
M  V30 4 1 3 5
M  V30 5 2 5 6
M  V30 6 1 6 7
M  V30 7 1 7 8
M  V30 8 2 7 9
M  V30 9 1 9 10
M  V30 10 2 10 11
M  V30 11 1 10 12
M  V30 12 1 9 13
M  V30 13 3 13 14
M  V30 14 1 11 5
M  V30 15 1 1 15
M  V30 16 1 1 16
M  V30 17 1 1 17
M  V30 18 1 6 18
M  V30 19 1 8 19
M  V30 20 1 8 20
M  V30 21 1 11 21
M  V30 22 1 12 22
M  V30 23 1 12 23
M  V30 END BOND
M  V30 END CTAB
M  END
