
     RDKit          3D

  0  0  0  0  0  0  0  0  0  0999 V3000
M  V30 BEGIN CTAB
M  V30 COUNTS 38 39 0 0 0
M  V30 BEGIN ATOM
M  V30 1 N 5.05313 0.126492 0.0991566 0
M  V30 2 C 4.86099 1.2236 -0.85607 0
M  V30 3 C 3.41751 1.69837 -0.805967 0
M  V30 4 C 2.48127 0.600388 -1.15294 0
M  V30 5 O 2.97711 -0.521623 -1.42878 0
M  V30 6 N 1.07838 0.771079 -1.18292 0
M  V30 7 C 0.138435 -0.248997 -1.50901 0
M  V30 8 C -0.784492 -0.564919 -0.375595 0
M  V30 9 C -1.06892 -1.88579 -0.0362529 0
M  V30 10 C -1.9151 -2.21428 1.00261 0
M  V30 11 C -2.51087 -1.19341 1.74424 0
M  V30 12 C -2.21841 0.111177 1.39488 0
M  V30 13 C -1.37266 0.443547 0.356577 0
M  V30 14 C -2.7913 1.15195 2.10848 0
M  V30 15 C -3.64288 0.874833 3.15438 0
M  V30 16 C -3.91895 -0.434487 3.48354 0
M  V30 17 C -3.3646 -1.49962 2.79256 0
M  V30 18 C -0.65639 0.0719606 -2.76642 0
M  V30 19 N -1.59012 -0.978291 -3.0598 0
M  V30 20 H 5.54757 0.422636 0.949665 0
M  V30 21 H 5.44371 -0.708602 -0.376201 0
M  V30 22 H 5.03407 0.853877 -1.87998 0
M  V30 23 H 5.55603 2.01481 -0.549459 0
M  V30 24 H 3.29557 2.57394 -1.44428 0
M  V30 25 H 3.2386 2.00728 0.251672 0
M  V30 26 H 0.706069 1.72471 -0.945919 0
M  V30 27 H 0.704178 -1.18338 -1.73046 0
M  V30 28 H -0.600104 -2.68105 -0.619755 0
M  V30 29 H -2.13577 -3.23852 1.26591 0
M  V30 30 H -1.16988 1.48691 0.115468 0
M  V30 31 H -2.55485 2.18498 1.82588 0
M  V30 32 H -4.07631 1.7194 3.69475 0
M  V30 33 H -4.58548 -0.604563 4.30253 0
M  V30 34 H -3.56722 -2.52923 3.03359 0
M  V30 35 H 0.0370168 0.183316 -3.60332 0
M  V30 36 H -1.24902 0.986516 -2.54055 0
M  V30 37 H -2.53252 -0.817001 -2.679 0
M  V30 38 H -1.2638 -1.928 -2.80113 0
M  V30 END ATOM
M  V30 BEGIN BOND
M  V30 1 1 1 2
M  V30 2 1 2 3
M  V30 3 1 3 4
M  V30 4 2 4 5
M  V30 5 1 4 6
M  V30 6 1 6 7
M  V30 7 1 7 8
M  V30 8 2 8 9
M  V30 9 1 9 10
M  V30 10 2 10 11
M  V30 11 1 11 12
M  V30 12 2 12 13
M  V30 13 1 12 14
M  V30 14 2 14 15
M  V30 15 1 15 16
M  V30 16 2 16 17
M  V30 17 1 7 18
M  V30 18 1 18 19
M  V30 19 1 13 8
M  V30 20 1 17 11
M  V30 21 1 1 20
M  V30 22 1 1 21
M  V30 23 1 2 22
M  V30 24 1 2 23
M  V30 25 1 3 24
M  V30 26 1 3 25
M  V30 27 1 6 26
M  V30 28 1 7 27
M  V30 29 1 9 28
M  V30 30 1 10 29
M  V30 31 1 13 30
M  V30 32 1 14 31
M  V30 33 1 15 32
M  V30 34 1 16 33
M  V30 35 1 17 34
M  V30 36 1 18 35
M  V30 37 1 18 36
M  V30 38 1 19 37
M  V30 39 1 19 38
M  V30 END BOND
M  V30 END CTAB
M  END
