
     RDKit          3D

  0  0  0  0  0  0  0  0  0  0999 V3000
M  V30 BEGIN CTAB
M  V30 COUNTS 49 51 0 0 0
M  V30 BEGIN ATOM
M  V30 1 N 6.52621 -0.91373 0.728371 0
M  V30 2 C 6.42267 0.478411 1.0086 0 CFG=1
M  V30 3 C 5.59818 1.21862 0.00243266 0
M  V30 4 C 4.22094 0.772715 -0.123068 0
M  V30 5 C 3.93249 -0.220375 -1.03609 0
M  V30 6 C 2.66596 -0.711791 -1.23168 0
M  V30 7 C 1.59316 -0.214431 -0.496884 0
M  V30 8 C 1.84355 0.766632 0.412958 0
M  V30 9 C 3.14577 1.2504 0.592868 0
M  V30 10 C 0.248459 -0.73779 -0.706168 0
M  V30 11 N 0.0331591 -1.72068 -1.626 0
M  V30 12 C -1.17857 -2.24655 -1.86805 0
M  V30 13 N -1.32744 -3.26983 -2.84284 0
M  V30 14 N -2.20192 -1.75493 -1.15004 0
M  V30 15 C -2.07016 -0.793548 -0.232357 0
M  V30 16 O -3.11444 -0.288074 0.504098 0
M  V30 17 C -4.4511 -0.729377 0.373803 0
M  V30 18 C -5.261 0.470652 0.0151639 0
M  V30 19 C -5.10214 1.67885 0.660721 0
M  V30 20 N -5.84076 2.76049 0.328386 0
M  V30 21 C -6.75845 2.68715 -0.649189 0
M  V30 22 C -6.95108 1.49985 -1.32131 0
M  V30 23 C -6.20206 0.388599 -0.990031 0
M  V30 24 C -4.86814 -1.31824 1.69319 0
M  V30 25 F -4.01502 -2.37036 1.96249 0
M  V30 26 F -6.14199 -1.80162 1.69216 0
M  V30 27 F -4.77857 -0.378822 2.71387 0
M  V30 28 C -0.802241 -0.253236 0.0111188 0
M  V30 29 C 6.01077 0.759063 2.40605 0
M  V30 30 O 5.86923 2.06048 2.82135 0
M  V30 31 O 5.80892 -0.235242 3.15181 0
M  V30 32 H 7.38191 -1.26968 0.396614 0
M  V30 33 H 5.99257 -1.49145 1.31871 0
M  V30 34 H 7.46942 0.871333 0.917696 0
M  V30 35 H 5.59568 2.30227 0.308586 0
M  V30 36 H 6.12361 1.17526 -0.969162 0
M  V30 37 H 4.72231 -0.651045 -1.64062 0
M  V30 38 H 2.42174 -1.48854 -1.94156 0
M  V30 39 H 1.09125 1.21821 1.02951 0
M  V30 40 H 3.35663 2.02897 1.31218 0
M  V30 41 H -1.23466 -3.02636 -3.85097 0
M  V30 42 H -1.52691 -4.26527 -2.60952 0
M  V30 43 H -4.50448 -1.51259 -0.386551 0
M  V30 44 H -4.35053 1.73372 1.45932 0
M  V30 45 H -7.36795 3.55537 -0.933138 0
M  V30 46 H -7.69586 1.41437 -2.12505 0
M  V30 47 H -6.32427 -0.573048 -1.49949 0
M  V30 48 H -0.706689 0.539663 0.770959 0
M  V30 49 H 6.70182 2.60553 2.98781 0
M  V30 END ATOM
M  V30 BEGIN BOND
M  V30 1 1 1 2
M  V30 2 1 2 3
M  V30 3 1 3 4
M  V30 4 2 4 5
M  V30 5 1 5 6
M  V30 6 2 6 7
M  V30 7 1 7 8
M  V30 8 2 8 9
M  V30 9 1 7 10
M  V30 10 2 10 11
M  V30 11 1 11 12
M  V30 12 1 12 13
M  V30 13 2 12 14
M  V30 14 1 14 15
M  V30 15 1 15 16
M  V30 16 1 16 17
M  V30 17 1 17 18
M  V30 18 2 18 19
M  V30 19 1 19 20
M  V30 20 2 20 21
M  V30 21 1 21 22
M  V30 22 2 22 23
M  V30 23 1 17 24
M  V30 24 1 24 25
M  V30 25 1 24 26
M  V30 26 1 24 27
M  V30 27 2 15 28
M  V30 28 1 2 29
M  V30 29 1 29 30
M  V30 30 2 29 31
M  V30 31 1 9 4
M  V30 32 1 28 10
M  V30 33 1 23 18
M  V30 34 1 1 32
M  V30 35 1 1 33
M  V30 36 1 2 34 CFG=1
M  V30 37 1 3 35
M  V30 38 1 3 36
M  V30 39 1 5 37
M  V30 40 1 6 38
M  V30 41 1 8 39
M  V30 42 1 9 40
M  V30 43 1 13 41
M  V30 44 1 13 42
M  V30 45 1 17 43
M  V30 46 1 19 44
M  V30 47 1 21 45
M  V30 48 1 22 46
M  V30 49 1 23 47
M  V30 50 1 28 48
M  V30 51 1 30 49
M  V30 END BOND
M  V30 END CTAB
M  END
