
     RDKit          3D

  0  0  0  0  0  0  0  0  0  0999 V3000
M  V30 BEGIN CTAB
M  V30 COUNTS 12 11 0 0 0
M  V30 BEGIN ATOM
M  V30 1 N -2.20183 -0.161551 -1.03031 0
M  V30 2 N -1.21623 -0.488826 -0.100256 0
M  V30 3 C 0.105034 -0.0109794 -0.237894 0
M  V30 4 O 0.363606 0.718358 -1.22529 0
M  V30 5 N 1.13943 -0.329476 0.700555 0
M  V30 6 N 2.41992 0.185871 0.488242 0
M  V30 7 H -3.14976 -0.334215 -0.601789 0
M  V30 8 H -2.11612 0.848931 -1.27507 0
M  V30 9 H -1.42478 -1.09191 0.718471 0
M  V30 10 H 0.981352 -0.918651 1.52066 0
M  V30 11 H 2.40751 0.882893 -0.309196 0
M  V30 12 H 2.69185 0.699558 1.35188 0
M  V30 END ATOM
M  V30 BEGIN BOND
M  V30 1 1 1 2
M  V30 2 1 2 3
M  V30 3 2 3 4
M  V30 4 1 3 5
M  V30 5 1 5 6
M  V30 6 1 1 7
M  V30 7 1 1 8
M  V30 8 1 2 9
M  V30 9 1 5 10
M  V30 10 1 6 11
M  V30 11 1 6 12
M  V30 END BOND
M  V30 END CTAB
M  END
