
     RDKit          3D

  0  0  0  0  0  0  0  0  0  0999 V3000
M  V30 BEGIN CTAB
M  V30 COUNTS 45 47 0 0 0
M  V30 BEGIN ATOM
M  V30 1 N 5.72213 1.84291 0.767549 0
M  V30 2 C 5.38374 0.458528 0.882546 0
M  V30 3 C 4.088 0.215013 1.66031 0
M  V30 4 C 3.5592 -0.661318 0.551536 0
M  V30 5 C 4.68863 -0.143473 -0.320334 0
M  V30 6 C 2.23255 -0.165297 0.0281265 0
M  V30 7 C 1.22381 -1.05323 -0.206985 0
M  V30 8 C -0.00814824 -0.657223 -0.681964 0
M  V30 9 N -0.142047 0.672879 -0.896844 0
M  V30 10 C 0.847355 1.55131 -0.667168 0
M  V30 11 N 2.03189 1.13522 -0.206072 0
M  V30 12 N 0.697436 2.94822 -0.895699 0
M  V30 13 N -1.05606 -1.59193 -0.940756 0
M  V30 14 C -2.34264 -1.11572 -1.38336 0
M  V30 15 C -3.14216 -0.402949 -0.403528 0
M  V30 16 C -2.71212 -0.244257 0.887017 0
M  V30 17 C -3.47119 0.421071 1.85735 0
M  V30 18 C -4.69482 0.928701 1.48291 0
M  V30 19 C -5.10999 0.758916 0.18193 0
M  V30 20 C -4.35992 0.10624 -0.761679 0
M  V30 21 C -4.92142 -0.00942351 -2.13463 0
M  V30 22 C -0.761878 -3.00113 -0.739364 0
M  V30 23 H 5.69703 2.19386 -0.220211 0
M  V30 24 H 5.16085 2.44387 1.40075 0
M  V30 25 H 6.24004 -0.121245 1.27808 0
M  V30 26 H 3.51445 1.16126 1.77754 0
M  V30 27 H 4.27085 -0.266068 2.63078 0
M  V30 28 H 3.57776 -1.72596 0.763118 0
M  V30 29 H 4.38146 0.556678 -1.10662 0
M  V30 30 H 5.33244 -0.953293 -0.736224 0
M  V30 31 H 1.36043 -2.11145 -0.025855 0
M  V30 32 H -0.0849498 3.45592 -0.395486 0
M  V30 33 H 1.30042 3.50406 -1.51799 0
M  V30 34 H -2.12187 -0.466887 -2.28887 0
M  V30 35 H -2.94546 -1.9552 -1.84806 0
M  V30 36 H -1.76428 -0.621071 1.27986 0
M  V30 37 H -3.1456 0.551297 2.86831 0
M  V30 38 H -5.33391 1.46072 2.20366 0
M  V30 39 H -6.09028 1.16988 -0.101968 0
M  V30 40 H -5.65193 0.799477 -2.30846 0
M  V30 41 H -4.12111 0.111282 -2.88975 0
M  V30 42 H -5.34106 -1.02488 -2.28532 0
M  V30 43 H 0.14013 -3.31397 -1.32644 0
M  V30 44 H -1.63768 -3.642 -0.946151 0
M  V30 45 H -0.490073 -3.19933 0.32948 0
M  V30 END ATOM
M  V30 BEGIN BOND
M  V30 1 1 1 2
M  V30 2 1 2 3
M  V30 3 1 3 4
M  V30 4 1 4 5
M  V30 5 1 4 6
M  V30 6 2 6 7
M  V30 7 1 7 8
M  V30 8 2 8 9
M  V30 9 1 9 10
M  V30 10 2 10 11
M  V30 11 1 10 12
M  V30 12 1 8 13
M  V30 13 1 13 14
M  V30 14 1 14 15
M  V30 15 2 15 16
M  V30 16 1 16 17
M  V30 17 2 17 18
M  V30 18 1 18 19
M  V30 19 2 19 20
M  V30 20 1 20 21
M  V30 21 1 13 22
M  V30 22 1 5 2
M  V30 23 1 11 6
M  V30 24 1 20 15
M  V30 25 1 1 23
M  V30 26 1 1 24
M  V30 27 1 2 25
M  V30 28 1 3 26
M  V30 29 1 3 27
M  V30 30 1 4 28
M  V30 31 1 5 29
M  V30 32 1 5 30
M  V30 33 1 7 31
M  V30 34 1 12 32
M  V30 35 1 12 33
M  V30 36 1 14 34
M  V30 37 1 14 35
M  V30 38 1 16 36
M  V30 39 1 17 37
M  V30 40 1 18 38
M  V30 41 1 19 39
M  V30 42 1 21 40
M  V30 43 1 21 41
M  V30 44 1 21 42
M  V30 45 1 22 43
M  V30 46 1 22 44
M  V30 47 1 22 45
M  V30 END BOND
M  V30 END CTAB
M  END
