
     RDKit          3D

  0  0  0  0  0  0  0  0  0  0999 V3000
M  V30 BEGIN CTAB
M  V30 COUNTS 51 53 0 0 0
M  V30 BEGIN ATOM
M  V30 1 N 0.948789 0.1205 1.12974 0
M  V30 2 C 0.703774 0.0277753 -0.23196 0 CFG=2
M  V30 3 C 1.83603 0.277489 -1.12388 0
M  V30 4 O 1.55279 0.171187 -2.39144 0
M  V30 5 N 3.1503 0.607596 -0.787973 0
M  V30 6 C 3.60714 0.760446 0.559716 0
M  V30 7 C 5.04873 1.24182 0.620405 0
M  V30 8 N 5.9282 0.612194 -0.291992 0
M  V30 9 C 5.34072 -0.0382401 -1.41726 0
M  V30 10 C 4.13188 0.812692 -1.83239 0
M  V30 11 S 7.24891 -0.201041 0.400161 0
M  V30 12 O 8.15208 0.757641 1.09515 0
M  V30 13 O 8.02934 -0.855665 -0.730977 0
M  V30 14 N 6.70264 -1.47295 1.42124 0
M  V30 15 C -0.482177 0.941565 -0.547659 0
M  V30 16 C -1.62951 0.443036 0.254185 0
M  V30 17 N -1.69138 -0.596403 1.10859 0
M  V30 18 C -2.92923 -0.698867 1.62479 0
M  V30 19 N -3.66648 0.272991 1.10477 0
M  V30 20 C -2.89721 0.987532 0.262561 0
M  V30 21 C -5.06437 0.48618 1.42419 0
M  V30 22 C -5.98103 -0.239813 0.53953 0
M  V30 23 C -6.38612 -1.50779 0.857882 0
M  V30 24 C -7.24235 -2.24676 0.0769042 0
M  V30 25 C -7.70366 -1.65615 -1.08442 0
M  V30 26 C -7.31796 -0.37376 -1.4438 0
M  V30 27 C -6.44872 0.336516 -0.621057 0
M  V30 28 H 1.08622 -0.70389 1.61497 0
M  V30 29 H 0.721903 0.984085 1.53875 0
M  V30 30 H 0.313797 -0.997806 -0.437594 0
M  V30 31 H 3.02071 1.57571 1.03099 0
M  V30 32 H 3.46948 -0.142742 1.20169 0
M  V30 33 H 5.37949 1.09148 1.66843 0
M  V30 34 H 5.04803 2.33756 0.418021 0
M  V30 35 H 4.98156 -1.04575 -1.07387 0
M  V30 36 H 6.07907 -0.112082 -2.23601 0
M  V30 37 H 4.48978 1.87215 -1.78347 0
M  V30 38 H 3.76368 0.524923 -2.82415 0
M  V30 39 H 6.39027 -2.25812 0.808038 0
M  V30 40 H 5.95348 -1.13907 2.07421 0
M  V30 41 H -0.729415 0.877091 -1.62452 0
M  V30 42 H -0.222134 1.98808 -0.271622 0
M  V30 43 H -3.20413 -1.47835 2.34566 0
M  V30 44 H -3.23844 1.85738 -0.314614 0
M  V30 45 H -5.2528 1.58238 1.30741 0
M  V30 46 H -5.21969 0.215343 2.49394 0
M  V30 47 H -6.01866 -1.95639 1.76658 0
M  V30 48 H -7.55536 -3.24818 0.339092 0
M  V30 49 H -8.38496 -2.19607 -1.7419 0
M  V30 50 H -7.68909 0.0774116 -2.36022 0
M  V30 51 H -6.12394 1.32513 -0.855316 0
M  V30 END ATOM
M  V30 BEGIN BOND
M  V30 1 1 1 2
M  V30 2 1 2 3
M  V30 3 2 3 4
M  V30 4 1 3 5
M  V30 5 1 5 6
M  V30 6 1 6 7
M  V30 7 1 7 8
M  V30 8 1 8 9
M  V30 9 1 9 10
M  V30 10 1 8 11
M  V30 11 2 11 12
M  V30 12 2 11 13
M  V30 13 1 11 14
M  V30 14 1 2 15
M  V30 15 1 15 16
M  V30 16 1 16 17
M  V30 17 2 17 18
M  V30 18 1 18 19
M  V30 19 1 19 20
M  V30 20 1 19 21
M  V30 21 1 21 22
M  V30 22 2 22 23
M  V30 23 1 23 24
M  V30 24 2 24 25
M  V30 25 1 25 26
M  V30 26 2 26 27
M  V30 27 1 10 5
M  V30 28 2 20 16
M  V30 29 1 27 22
M  V30 30 1 1 28
M  V30 31 1 1 29
M  V30 32 1 2 30 CFG=1
M  V30 33 1 6 31
M  V30 34 1 6 32
M  V30 35 1 7 33
M  V30 36 1 7 34
M  V30 37 1 9 35
M  V30 38 1 9 36
M  V30 39 1 10 37
M  V30 40 1 10 38
M  V30 41 1 14 39
M  V30 42 1 14 40
M  V30 43 1 15 41
M  V30 44 1 15 42
M  V30 45 1 18 43
M  V30 46 1 20 44
M  V30 47 1 21 45
M  V30 48 1 21 46
M  V30 49 1 23 47
M  V30 50 1 24 48
M  V30 51 1 25 49
M  V30 52 1 26 50
M  V30 53 1 27 51
M  V30 END BOND
M  V30 END CTAB
M  END
