
     RDKit          3D

  0  0  0  0  0  0  0  0  0  0999 V3000
M  V30 BEGIN CTAB
M  V30 COUNTS 49 51 0 0 0
M  V30 BEGIN ATOM
M  V30 1 C 7.09904 -0.464236 1.89833 0
M  V30 2 C 7.46322 0.656674 0.954639 0
M  V30 3 O 6.83598 0.482337 -0.271386 0
M  V30 4 C 5.4885 0.438038 -0.532105 0
M  V30 5 C 4.5286 0.576234 0.445191 0
M  V30 6 C 3.18532 0.523521 0.133922 0
M  V30 7 C 2.81813 0.33032 -1.17232 0
M  V30 8 C 3.77478 0.19413 -2.13722 0
M  V30 9 C 5.12507 0.240578 -1.86831 0
M  V30 10 C 1.37189 0.274244 -1.50243 0
M  V30 11 C 0.940785 -1.16742 -1.39427 0
M  V30 12 N -0.460814 -1.26933 -1.70863 0
M  V30 13 C -1.41358 -0.703175 -0.824206 0
M  V30 14 C -2.77756 -0.776151 -1.14363 0
M  V30 15 C -3.74415 -0.254781 -0.310919 0
M  V30 16 N -3.34596 0.325324 0.815002 0
M  V30 17 C -2.04427 0.421845 1.16951 0
M  V30 18 N -1.12682 -0.0963415 0.336033 0
M  V30 19 N -1.64931 1.04905 2.38206 0
M  V30 20 C -5.15979 -0.376322 -0.727373 0
M  V30 21 C -5.9906 -1.00841 0.36561 0
M  V30 22 C -6.38947 0.383113 0.800951 0
M  V30 23 C -6.00394 0.867777 -0.578366 0
M  V30 24 N -7.81669 0.439578 1.06263 0
M  V30 25 H 6.30352 -1.1303 1.48293 0
M  V30 26 H 7.98564 -1.07414 2.13956 0
M  V30 27 H 6.65305 0.000822796 2.80789 0
M  V30 28 H 7.21974 1.64757 1.40103 0
M  V30 29 H 8.57796 0.598909 0.797069 0
M  V30 30 H 4.79243 0.735018 1.48717 0
M  V30 31 H 2.45766 0.637271 0.937266 0
M  V30 32 H 3.46853 0.041542 -3.16886 0
M  V30 33 H 5.89762 0.136537 -2.60698 0
M  V30 34 H 0.788198 0.963525 -0.900207 0
M  V30 35 H 1.29764 0.637972 -2.56471 0
M  V30 36 H 1.06137 -1.47297 -0.321768 0
M  V30 37 H 1.56163 -1.82898 -2.04652 0
M  V30 38 H -0.801328 -1.75726 -2.58519 0
M  V30 39 H -3.08147 -1.25528 -2.07021 0
M  V30 40 H -1.75663 2.06597 2.5349 0
M  V30 41 H -1.2346 0.48759 3.15962 0
M  V30 42 H -5.30594 -0.890454 -1.70249 0
M  V30 43 H -5.38688 -1.52058 1.14675 0
M  V30 44 H -6.84019 -1.62797 -0.0138085 0
M  V30 45 H -5.75911 0.749642 1.63485 0
M  V30 46 H -5.44279 1.8201 -0.599096 0
M  V30 47 H -6.88658 0.81363 -1.24303 0
M  V30 48 H -8.29418 -0.294278 0.521023 0
M  V30 49 H -7.98364 0.429508 2.07711 0
M  V30 END ATOM
M  V30 BEGIN BOND
M  V30 1 1 1 2
M  V30 2 1 2 3
M  V30 3 1 3 4
M  V30 4 2 4 5
M  V30 5 1 5 6
M  V30 6 2 6 7
M  V30 7 1 7 8
M  V30 8 2 8 9
M  V30 9 1 7 10
M  V30 10 1 10 11
M  V30 11 1 11 12
M  V30 12 1 12 13
M  V30 13 2 13 14
M  V30 14 1 14 15
M  V30 15 2 15 16
M  V30 16 1 16 17
M  V30 17 2 17 18
M  V30 18 1 17 19
M  V30 19 1 15 20
M  V30 20 1 20 21
M  V30 21 1 21 22
M  V30 22 1 22 23
M  V30 23 1 22 24
M  V30 24 1 9 4
M  V30 25 1 18 13
M  V30 26 1 23 20
M  V30 27 1 1 25
M  V30 28 1 1 26
M  V30 29 1 1 27
M  V30 30 1 2 28
M  V30 31 1 2 29
M  V30 32 1 5 30
M  V30 33 1 6 31
M  V30 34 1 8 32
M  V30 35 1 9 33
M  V30 36 1 10 34
M  V30 37 1 10 35
M  V30 38 1 11 36
M  V30 39 1 11 37
M  V30 40 1 12 38
M  V30 41 1 14 39
M  V30 42 1 19 40
M  V30 43 1 19 41
M  V30 44 1 20 42
M  V30 45 1 21 43
M  V30 46 1 21 44
M  V30 47 1 22 45
M  V30 48 1 23 46
M  V30 49 1 23 47
M  V30 50 1 24 48
M  V30 51 1 24 49
M  V30 END BOND
M  V30 END CTAB
M  END
