
     RDKit          3D

  0  0  0  0  0  0  0  0  0  0999 V3000
M  V30 BEGIN CTAB
M  V30 COUNTS 23 22 0 0 0
M  V30 BEGIN ATOM
M  V30 1 N -2.50297 1.32876 0.296109 0
M  V30 2 C -2.45453 0.0931462 -0.426554 0
M  V30 3 C -1.01096 -0.31441 -0.751724 0
M  V30 4 C -0.313098 -0.45848 0.58512 0
M  V30 5 C 1.14543 -0.86648 0.370254 0
M  V30 6 N 1.14172 -2.13993 -0.33754 0
M  V30 7 P 1.92929 0.443828 -0.587102 0
M  V30 8 O 1.15137 1.90738 -0.185763 0
M  V30 9 O 3.57165 0.608485 -0.185544 0
M  V30 10 O 1.75939 0.156281 -2.04897 0
M  V30 11 H -2.83768 2.13898 -0.258285 0
M  V30 12 H -2.97059 1.23714 1.22104 0
M  V30 13 H -2.98087 0.160581 -1.38438 0
M  V30 14 H -2.92751 -0.703969 0.204534 0
M  V30 15 H -0.568742 0.514121 -1.32244 0
M  V30 16 H -1.06937 -1.24256 -1.31783 0
M  V30 17 H -0.321414 0.54174 1.07264 0
M  V30 18 H -0.829726 -1.17419 1.2488 0
M  V30 19 H 1.61954 -1.00611 1.36055 0
M  V30 20 H 2.01869 -2.19534 -0.900564 0
M  V30 21 H 1.06787 -2.93909 0.330271 0
M  V30 22 H 1.448 2.62748 -0.794871 0
M  V30 23 H 3.93452 1.28263 -0.836554 0
M  V30 END ATOM
M  V30 BEGIN BOND
M  V30 1 1 1 2
M  V30 2 1 2 3
M  V30 3 1 3 4
M  V30 4 1 4 5
M  V30 5 1 5 6
M  V30 6 1 5 7
M  V30 7 1 7 8
M  V30 8 1 7 9
M  V30 9 2 7 10
M  V30 10 1 1 11
M  V30 11 1 1 12
M  V30 12 1 2 13
M  V30 13 1 2 14
M  V30 14 1 3 15
M  V30 15 1 3 16
M  V30 16 1 4 17
M  V30 17 1 4 18
M  V30 18 1 5 19
M  V30 19 1 6 20
M  V30 20 1 6 21
M  V30 21 1 8 22
M  V30 22 1 9 23
M  V30 END BOND
M  V30 END CTAB
M  END
