
     RDKit          3D

  0  0  0  0  0  0  0  0  0  0999 V3000
M  V30 BEGIN CTAB
M  V30 COUNTS 49 51 0 0 0
M  V30 BEGIN ATOM
M  V30 1 N 3.27278 -0.0402198 2.05626 0
M  V30 2 C 3.02606 -0.457753 0.660257 0
M  V30 3 C 1.61264 -0.237276 0.310484 0
M  V30 4 C 0.791389 -1.0398 1.29552 0
M  V30 5 O 1.34523 -1.71393 2.18314 0
M  V30 6 N -0.618823 -1.02745 1.21151 0
M  V30 7 C -1.41032 -0.281435 0.22057 0
M  V30 8 C -2.63542 0.0547341 1.08156 0 CFG=2
M  V30 9 C -2.91453 -1.25856 1.72433 0 CFG=1
M  V30 10 C -1.52585 -1.74491 2.08408 0
M  V30 11 N -3.72754 -1.15596 2.91684 0
M  V30 12 C -3.73168 0.564032 0.245984 0
M  V30 13 C -4.18373 1.8428 0.473744 0
M  V30 14 C -5.22202 2.37841 -0.289167 0
M  V30 15 C -5.81637 1.62956 -1.29107 0
M  V30 16 C -5.35133 0.343961 -1.50935 0
M  V30 17 C -4.31392 -0.176155 -0.739036 0
M  V30 18 C 1.35618 -0.850159 -1.07813 0
M  V30 19 C 4.05644 0.193638 -0.138558 0
M  V30 20 C 3.84285 1.00816 -1.20763 0
M  V30 21 C 4.91199 1.57094 -1.91739 0
M  V30 22 C 6.20009 1.30171 -1.53419 0
M  V30 23 C 6.42008 0.474235 -0.44713 0
M  V30 24 C 5.37537 -0.0811158 0.253081 0
M  V30 25 H 3.52048 0.957173 2.07864 0
M  V30 26 H 3.95799 -0.658434 2.5104 0
M  V30 27 H 3.23754 -1.55898 0.666515 0
M  V30 28 H 1.24988 0.785934 0.382771 0
M  V30 29 H -1.74892 -0.972141 -0.562215 0
M  V30 30 H -0.900691 0.614602 -0.12722 0
M  V30 31 H -2.28908 0.784433 1.82257 0
M  V30 32 H -3.32544 -1.96949 0.990592 0
M  V30 33 H -1.29999 -1.46631 3.13905 0
M  V30 34 H -1.40606 -2.83262 1.92242 0
M  V30 35 H -4.38916 -1.97627 2.90009 0
M  V30 36 H -3.12049 -1.25161 3.75389 0
M  V30 37 H -3.74971 2.46654 1.24656 0
M  V30 38 H -5.55698 3.39321 -0.0843912 0
M  V30 39 H -6.62673 2.04788 -1.88635 0
M  V30 40 H -5.79584 -0.278641 -2.29214 0
M  V30 41 H -3.93921 -1.18253 -0.899119 0
M  V30 42 H 2.31466 -1.14229 -1.49798 0
M  V30 43 H 0.71743 -1.73016 -0.92532 0
M  V30 44 H 0.822974 -0.0686697 -1.66387 0
M  V30 45 H 2.82485 1.22617 -1.49753 0
M  V30 46 H 4.65249 2.21128 -2.76077 0
M  V30 47 H 7.02509 1.73498 -2.08058 0
M  V30 48 H 7.46431 0.289578 -0.180031 0
M  V30 49 H 5.60106 -0.721059 1.09515 0
M  V30 END ATOM
M  V30 BEGIN BOND
M  V30 1 1 1 2
M  V30 2 1 2 3
M  V30 3 1 3 4
M  V30 4 2 4 5
M  V30 5 1 4 6
M  V30 6 1 6 7
M  V30 7 1 7 8
M  V30 8 1 8 9
M  V30 9 1 9 10
M  V30 10 1 9 11
M  V30 11 1 8 12
M  V30 12 2 12 13
M  V30 13 1 13 14
M  V30 14 2 14 15
M  V30 15 1 15 16
M  V30 16 2 16 17
M  V30 17 1 3 18
M  V30 18 1 2 19
M  V30 19 2 19 20
M  V30 20 1 20 21
M  V30 21 2 21 22
M  V30 22 1 22 23
M  V30 23 2 23 24
M  V30 24 1 10 6
M  V30 25 1 17 12
M  V30 26 1 24 19
M  V30 27 1 1 25
M  V30 28 1 1 26
M  V30 29 1 2 27
M  V30 30 1 3 28
M  V30 31 1 7 29
M  V30 32 1 7 30
M  V30 33 1 8 31 CFG=1
M  V30 34 1 9 32 CFG=3
M  V30 35 1 10 33
M  V30 36 1 10 34
M  V30 37 1 11 35
M  V30 38 1 11 36
M  V30 39 1 13 37
M  V30 40 1 14 38
M  V30 41 1 15 39
M  V30 42 1 16 40
M  V30 43 1 17 41
M  V30 44 1 18 42
M  V30 45 1 18 43
M  V30 46 1 18 44
M  V30 47 1 20 45
M  V30 48 1 21 46
M  V30 49 1 22 47
M  V30 50 1 23 48
M  V30 51 1 24 49
M  V30 END BOND
M  V30 END CTAB
M  END
