
     RDKit          3D

  0  0  0  0  0  0  0  0  0  0999 V3000
M  V30 BEGIN CTAB
M  V30 COUNTS 38 40 0 0 0
M  V30 BEGIN ATOM
M  V30 1 C 1.81585 -0.0767572 -2.28046 0
M  V30 2 C 1.91462 0.330611 -0.829624 0
M  V30 3 N 0.836888 -0.157771 -0.013636 0
M  V30 4 C -0.524682 0.198045 -0.191882 0
M  V30 5 C -1.5113 -0.405938 0.600841 0
M  V30 6 C -2.84333 -0.0988033 0.478477 0
M  V30 7 C -3.19391 0.844438 -0.469944 0
M  V30 8 C -2.22783 1.44448 -1.2552 0
M  V30 9 C -0.893975 1.13664 -1.13224 0
M  V30 10 N -4.50008 1.13391 -0.577602 0
M  V30 11 C -5.4744 0.577153 0.162977 0
M  V30 12 N -6.83973 0.902354 0.0263938 0
M  V30 13 N -5.11758 -0.345037 1.08808 0
M  V30 14 C -3.81214 -0.688967 1.2537 0
M  V30 15 N -3.43355 -1.6514 2.21821 0
M  V30 16 C 3.24278 -0.00803269 -0.254355 0
M  V30 17 C 4.25548 0.951335 -0.198142 0
M  V30 18 C 5.49923 0.676797 0.327199 0
M  V30 19 C 5.77034 -0.584421 0.819051 0
M  V30 20 Cl 7.36847 -0.929664 1.49172 0
M  V30 21 C 4.78172 -1.54418 0.771463 0
M  V30 22 C 3.53806 -1.26281 0.244006 0
M  V30 23 H 1.78614 0.791432 -2.97084 0
M  V30 24 H 0.957119 -0.743098 -2.48678 0
M  V30 25 H 2.7518 -0.631028 -2.5397 0
M  V30 26 H 1.83257 1.45854 -0.817694 0
M  V30 27 H 1.06164 -0.829087 0.777602 0
M  V30 28 H -1.19392 -1.1475 1.34008 0
M  V30 29 H -2.51046 2.1794 -1.99271 0
M  V30 30 H -0.136018 1.6271 -1.76372 0
M  V30 31 H -7.22763 1.09852 -0.905914 0
M  V30 32 H -7.44335 0.94249 0.858326 0
M  V30 33 H -3.81712 -1.66065 3.18713 0
M  V30 34 H -2.74646 -2.38854 1.97269 0
M  V30 35 H 4.05025 1.95666 -0.586353 0
M  V30 36 H 6.26834 1.45946 0.352914 0
M  V30 37 H 4.96695 -2.53857 1.14919 0
M  V30 38 H 2.74921 -2.01712 0.202424 0
M  V30 END ATOM
M  V30 BEGIN BOND
M  V30 1 1 1 2
M  V30 2 1 2 3
M  V30 3 1 3 4
M  V30 4 2 4 5
M  V30 5 1 5 6
M  V30 6 2 6 7
M  V30 7 1 7 8
M  V30 8 2 8 9
M  V30 9 1 7 10
M  V30 10 2 10 11
M  V30 11 1 11 12
M  V30 12 1 11 13
M  V30 13 2 13 14
M  V30 14 1 14 15
M  V30 15 1 2 16
M  V30 16 2 16 17
M  V30 17 1 17 18
M  V30 18 2 18 19
M  V30 19 1 19 20
M  V30 20 1 19 21
M  V30 21 2 21 22
M  V30 22 1 9 4
M  V30 23 1 22 16
M  V30 24 1 14 6
M  V30 25 1 1 23
M  V30 26 1 1 24
M  V30 27 1 1 25
M  V30 28 1 2 26
M  V30 29 1 3 27
M  V30 30 1 5 28
M  V30 31 1 8 29
M  V30 32 1 9 30
M  V30 33 1 12 31
M  V30 34 1 12 32
M  V30 35 1 15 33
M  V30 36 1 15 34
M  V30 37 1 17 35
M  V30 38 1 18 36
M  V30 39 1 21 37
M  V30 40 1 22 38
M  V30 END BOND
M  V30 END CTAB
M  END
