
     RDKit          3D

  0  0  0  0  0  0  0  0  0  0999 V3000
M  V30 BEGIN CTAB
M  V30 COUNTS 17 16 0 0 0
M  V30 BEGIN ATOM
M  V30 1 N -3.078 -0.229407 0.450294 0
M  V30 2 C -2.20159 -0.167691 -0.652248 0
M  V30 3 S -2.82318 -0.420451 -2.13503 0
M  V30 4 N -0.819726 0.103646 -0.5046 0
M  V30 5 C -0.284336 0.327915 0.843962 0
M  V30 6 N 1.11331 0.587415 0.831659 0
M  V30 7 C 2.07479 -0.340198 0.320513 0
M  V30 8 N 3.45919 -0.0559662 0.320694 0
M  V30 9 S 1.51212 -1.75217 -0.268735 0
M  V30 10 H -2.80454 0.238605 1.3335 0
M  V30 11 H -3.98548 -0.726103 0.40839 0
M  V30 12 H -0.194929 0.143929 -1.33104 0
M  V30 13 H -0.582653 -0.531072 1.48012 0
M  V30 14 H -0.821577 1.21552 1.22928 0
M  V30 15 H 1.47014 1.48983 1.20871 0
M  V30 16 H 3.83102 0.765914 -0.200231 0
M  V30 17 H 4.13544 -0.649717 0.832714 0
M  V30 END ATOM
M  V30 BEGIN BOND
M  V30 1 1 1 2
M  V30 2 2 2 3
M  V30 3 1 2 4
M  V30 4 1 4 5
M  V30 5 1 5 6
M  V30 6 1 6 7
M  V30 7 1 7 8
M  V30 8 2 7 9
M  V30 9 1 1 10
M  V30 10 1 1 11
M  V30 11 1 4 12
M  V30 12 1 5 13
M  V30 13 1 5 14
M  V30 14 1 6 15
M  V30 15 1 8 16
M  V30 16 1 8 17
M  V30 END BOND
M  V30 END CTAB
M  END
