
     RDKit          3D

  0  0  0  0  0  0  0  0  0  0999 V3000
M  V30 BEGIN CTAB
M  V30 COUNTS 34 36 0 0 0
M  V30 BEGIN ATOM
M  V30 1 N -5.22492 2.42293 -0.545632 0
M  V30 2 C -4.55389 1.17122 -0.497006 0
M  V30 3 N -5.17609 0.0410173 -0.910752 0
M  V30 4 C -4.56834 -1.15105 -0.876112 0
M  V30 5 N -5.25528 -2.32214 -1.32057 0
M  V30 6 N -3.31269 -1.19077 -0.414587 0
M  V30 7 C -2.66822 -0.0684175 0.00619208 0
M  V30 8 N -3.29549 1.11513 -0.0370939 0
M  V30 9 C -1.29234 -0.15152 0.505533 0
M  V30 10 C -0.618678 -1.35256 0.563272 0
M  V30 11 C 0.68271 -1.39863 1.0408 0
M  V30 12 C 1.29427 -0.232856 1.45631 0
M  V30 13 C 0.625392 0.957296 1.3986 0
M  V30 14 C -0.672294 1.00132 0.922118 0
M  V30 15 O 2.60963 -0.252304 1.94333 0
M  V30 16 C 3.64797 -0.0782261 1.03285 0
M  V30 17 C 4.0784 1.20656 0.790057 0
M  V30 18 C 5.1057 1.40716 -0.107591 0
M  V30 19 C 5.69765 0.344406 -0.755658 0
M  V30 20 C 5.27979 -0.957081 -0.52597 0
M  V30 21 C 4.25579 -1.12384 0.372479 0
M  V30 22 H -4.87132 3.19343 -1.13307 0
M  V30 23 H -6.07851 2.55371 0.0190245 0
M  V30 24 H -5.38428 -3.16175 -0.726631 0
M  V30 25 H -5.64166 -2.32878 -2.28336 0
M  V30 26 H -1.06582 -2.28911 0.245928 0
M  V30 27 H 1.22205 -2.3266 1.09244 0
M  V30 28 H 1.10481 1.87726 1.72531 0
M  V30 29 H -1.14804 1.97426 0.901419 0
M  V30 30 H 3.61263 2.06312 1.30223 0
M  V30 31 H 5.41873 2.42952 -0.274399 0
M  V30 32 H 6.50229 0.513485 -1.45742 0
M  V30 33 H 5.77015 -1.75936 -1.05414 0
M  V30 34 H 3.91992 -2.12684 0.561878 0
M  V30 END ATOM
M  V30 BEGIN BOND
M  V30 1 1 1 2
M  V30 2 2 2 3
M  V30 3 1 3 4
M  V30 4 1 4 5
M  V30 5 2 4 6
M  V30 6 1 6 7
M  V30 7 2 7 8
M  V30 8 1 7 9
M  V30 9 2 9 10
M  V30 10 1 10 11
M  V30 11 2 11 12
M  V30 12 1 12 13
M  V30 13 2 13 14
M  V30 14 1 12 15
M  V30 15 1 15 16
M  V30 16 2 16 17
M  V30 17 1 17 18
M  V30 18 2 18 19
M  V30 19 1 19 20
M  V30 20 2 20 21
M  V30 21 1 8 2
M  V30 22 1 14 9
M  V30 23 1 21 16
M  V30 24 1 1 22
M  V30 25 1 1 23
M  V30 26 1 5 24
M  V30 27 1 5 25
M  V30 28 1 10 26
M  V30 29 1 11 27
M  V30 30 1 13 28
M  V30 31 1 14 29
M  V30 32 1 17 30
M  V30 33 1 18 31
M  V30 34 1 19 32
M  V30 35 1 20 33
M  V30 36 1 21 34
M  V30 END BOND
M  V30 END CTAB
M  END
