
     RDKit          3D

  0  0  0  0  0  0  0  0  0  0999 V3000
M  V30 BEGIN CTAB
M  V30 COUNTS 24 25 0 0 0
M  V30 BEGIN ATOM
M  V30 1 N 5.37935 -0.027968 0.110322 0
M  V30 2 C 4.45337 0.986043 -0.296404 0
M  V30 3 C 3.05179 0.454196 -0.122604 0
M  V30 4 N 2.66888 -0.733856 0.323223 0
M  V30 5 C 1.40988 -1.01666 0.404878 0
M  V30 6 C 0.509103 -0.0582571 0.0198815 0
M  V30 7 S 1.55721 1.21241 -0.44357 0
M  V30 8 C -0.945623 -0.127405 0.0158248 0
M  V30 9 N -1.80658 0.811606 -0.360934 0
M  V30 10 N -3.04737 0.33491 -0.204805 0
M  V30 11 C -2.97197 -0.905276 0.270557 0
M  V30 12 N -1.66715 -1.18467 0.40462 0
M  V30 13 N -4.03883 -1.78229 0.583259 0
M  V30 14 C -4.23404 1.09802 -0.52118 0
M  V30 15 H 6.09797 -0.197308 -0.63976 0
M  V30 16 H 5.87824 0.249126 0.969129 0
M  V30 17 H 4.55985 1.28171 -1.34624 0
M  V30 18 H 4.5279 1.91135 0.328977 0
M  V30 19 H 1.04941 -1.9984 0.77236 0
M  V30 20 H -4.48746 -2.33692 -0.153905 0
M  V30 21 H -4.36513 -1.86332 1.55396 0
M  V30 22 H -4.13769 2.07883 -0.0102776 0
M  V30 23 H -5.14356 0.560329 -0.234346 0
M  V30 24 H -4.29754 1.25379 -1.62956 0
M  V30 END ATOM
M  V30 BEGIN BOND
M  V30 1 1 1 2
M  V30 2 1 2 3
M  V30 3 2 3 4
M  V30 4 1 4 5
M  V30 5 2 5 6
M  V30 6 1 6 7
M  V30 7 1 6 8
M  V30 8 2 8 9
M  V30 9 1 9 10
M  V30 10 1 10 11
M  V30 11 2 11 12
M  V30 12 1 11 13
M  V30 13 1 10 14
M  V30 14 1 7 3
M  V30 15 1 12 8
M  V30 16 1 1 15
M  V30 17 1 1 16
M  V30 18 1 2 17
M  V30 19 1 2 18
M  V30 20 1 5 19
M  V30 21 1 13 20
M  V30 22 1 13 21
M  V30 23 1 14 22
M  V30 24 1 14 23
M  V30 25 1 14 24
M  V30 END BOND
M  V30 END CTAB
M  END
