
     RDKit          3D

  0  0  0  0  0  0  0  0  0  0999 V3000
M  V30 BEGIN CTAB
M  V30 COUNTS 39 39 0 0 0
M  V30 BEGIN ATOM
M  V30 1 N -1.7325 2.1474 -1.95815 0
M  V30 2 C -1.30892 2.58607 -0.644469 0
M  V30 3 C -1.66054 1.59836 0.424607 0
M  V30 4 N -1.08072 0.303361 0.248867 0
M  V30 5 C -1.44056 -0.623702 1.29219 0
M  V30 6 C -2.90424 -0.988595 1.2541 0
M  V30 7 N -3.13413 -1.92049 2.34725 0
M  V30 8 C -3.30123 -1.67872 -0.0154803 0
M  V30 9 C 0.304393 0.421823 0.00828254 0
M  V30 10 C 1.06482 -0.854891 -0.185019 0
M  V30 11 C 2.51173 -0.546634 -0.432214 0
M  V30 12 C 3.04809 -0.340011 -1.67576 0
M  V30 13 C 4.39388 -0.0575522 -1.8625 0
M  V30 14 C 5.24377 0.0243768 -0.778513 0
M  V30 15 C 4.73722 -0.177507 0.481463 0
M  V30 16 C 3.402 -0.455895 0.641996 0
M  V30 17 H -1.75404 3.00015 -2.56847 0
M  V30 18 H -2.71147 1.77961 -1.93628 0
M  V30 19 H -0.249405 2.86344 -0.658833 0
M  V30 20 H -1.85917 3.55996 -0.477259 0
M  V30 21 H -1.30666 1.99737 1.40658 0
M  V30 22 H -2.76601 1.58711 0.502635 0
M  V30 23 H -1.24234 -0.200379 2.296 0
M  V30 24 H -0.900176 -1.57323 1.10327 0
M  V30 25 H -3.57704 -0.133096 1.42967 0
M  V30 26 H -4.04867 -2.38712 2.31223 0
M  V30 27 H -2.36207 -2.62196 2.35036 0
M  V30 28 H -2.72742 -2.60022 -0.197489 0
M  V30 29 H -3.23923 -1.02748 -0.908993 0
M  V30 30 H -4.3667 -1.97489 0.0886486 0
M  V30 31 H 0.850398 1.04246 0.761816 0
M  V30 32 H 0.426274 0.986034 -0.965215 0
M  V30 33 H 1.07233 -1.53388 0.680746 0
M  V30 34 H 0.680865 -1.42528 -1.05479 0
M  V30 35 H 2.41861 -0.396084 -2.53025 0
M  V30 36 H 4.81832 0.105203 -2.8437 0
M  V30 37 H 6.30523 0.246256 -0.91537 0
M  V30 38 H 5.3839 -0.118019 1.3477 0
M  V30 39 H 3.01141 -0.613347 1.63036 0
M  V30 END ATOM
M  V30 BEGIN BOND
M  V30 1 1 1 2
M  V30 2 1 2 3
M  V30 3 1 3 4
M  V30 4 1 4 5
M  V30 5 1 5 6
M  V30 6 1 6 7
M  V30 7 1 6 8
M  V30 8 1 4 9
M  V30 9 1 9 10
M  V30 10 1 10 11
M  V30 11 2 11 12
M  V30 12 1 12 13
M  V30 13 2 13 14
M  V30 14 1 14 15
M  V30 15 2 15 16
M  V30 16 1 16 11
M  V30 17 1 1 17
M  V30 18 1 1 18
M  V30 19 1 2 19
M  V30 20 1 2 20
M  V30 21 1 3 21
M  V30 22 1 3 22
M  V30 23 1 5 23
M  V30 24 1 5 24
M  V30 25 1 6 25
M  V30 26 1 7 26
M  V30 27 1 7 27
M  V30 28 1 8 28
M  V30 29 1 8 29
M  V30 30 1 8 30
M  V30 31 1 9 31
M  V30 32 1 9 32
M  V30 33 1 10 33
M  V30 34 1 10 34
M  V30 35 1 12 35
M  V30 36 1 13 36
M  V30 37 1 14 37
M  V30 38 1 15 38
M  V30 39 1 16 39
M  V30 END BOND
M  V30 END CTAB
M  END
