
     RDKit          3D

  0  0  0  0  0  0  0  0  0  0999 V3000
M  V30 BEGIN CTAB
M  V30 COUNTS 23 23 0 0 0
M  V30 BEGIN ATOM
M  V30 1 N 3.08427 -1.80765 -0.0637814 0
M  V30 2 C 2.1459 -0.752855 -0.041902 0
M  V30 3 C 0.827171 -0.979271 0.303287 0
M  V30 4 C -0.154574 -0.0355548 0.353481 0
M  V30 5 C -1.57467 -0.336611 0.725789 0
M  V30 6 C -2.46626 -0.374056 -0.486906 0
M  V30 7 O -3.76981 -0.656285 -0.0874179 0
M  V30 8 C 0.220743 1.27169 0.0244738 0
M  V30 9 N -0.753313 2.30134 0.0591312 0
M  V30 10 C 1.52183 1.55047 -0.326153 0
M  V30 11 C 2.47454 0.551876 -0.359604 0
M  V30 12 H 2.96922 -2.55988 -0.75169 0
M  V30 13 H 3.86423 -1.80936 0.602378 0
M  V30 14 H 0.534982 -2.00036 0.559695 0
M  V30 15 H -1.95825 0.453378 1.39332 0
M  V30 16 H -1.6202 -1.32203 1.21565 0
M  V30 17 H -2.14746 -1.15414 -1.22169 0
M  V30 18 H -2.43228 0.611531 -1.00615 0
M  V30 19 H -3.86657 -1.60719 0.140507 0
M  V30 20 H -0.892094 2.9802 -0.718084 0
M  V30 21 H -1.34649 2.363 0.907409 0
M  V30 22 H 1.83838 2.55642 -0.586848 0
M  V30 23 H 3.50072 0.755329 -0.634902 0
M  V30 END ATOM
M  V30 BEGIN BOND
M  V30 1 1 1 2
M  V30 2 2 2 3
M  V30 3 1 3 4
M  V30 4 1 4 5
M  V30 5 1 5 6
M  V30 6 1 6 7
M  V30 7 2 4 8
M  V30 8 1 8 9
M  V30 9 1 8 10
M  V30 10 2 10 11
M  V30 11 1 11 2
M  V30 12 1 1 12
M  V30 13 1 1 13
M  V30 14 1 3 14
M  V30 15 1 5 15
M  V30 16 1 5 16
M  V30 17 1 6 17
M  V30 18 1 6 18
M  V30 19 1 7 19
M  V30 20 1 9 20
M  V30 21 1 9 21
M  V30 22 1 10 22
M  V30 23 1 11 23
M  V30 END BOND
M  V30 END CTAB
M  END
