
     RDKit          3D

  0  0  0  0  0  0  0  0  0  0999 V3000
M  V30 BEGIN CTAB
M  V30 COUNTS 54 53 0 0 0
M  V30 BEGIN ATOM
M  V30 1 C -5.04803 1.98179 -0.670481 0
M  V30 2 C -6.36463 1.46618 -0.224986 0
M  V30 3 C -6.74063 0.083091 -0.556697 0
M  V30 4 C -5.9476 -1.03447 -0.00198305 0
M  V30 5 C -4.5116 -1.06234 -0.381824 0
M  V30 6 C -3.82094 -2.30983 0.196855 0
M  V30 7 C -2.37943 -2.33589 -0.209705 0
M  V30 8 C -1.58538 -1.16628 0.258396 0
M  V30 9 C -0.122517 -1.28515 -0.18434 0
M  V30 10 C 0.591888 -0.059104 0.336516 0
M  V30 11 C 2.0597 -0.0637946 -0.0421196 0
M  V30 12 C 2.66025 1.19221 0.525068 0
M  V30 13 C 4.12837 1.3605 0.239467 0
M  V30 14 C 4.95659 0.255414 0.794882 0
M  V30 15 C 6.41014 0.470083 0.491565 0
M  V30 16 N 6.86381 1.69996 1.06259 0
M  V30 17 C 6.68134 0.502144 -1.00056 0
M  V30 18 N 6.27188 -0.769956 -1.59732 0
M  V30 19 H -4.57037 1.44129 -1.50352 0
M  V30 20 H -4.36671 2.10875 0.211811 0
M  V30 21 H -5.12818 3.05079 -1.06171 0
M  V30 22 H -7.14475 2.18713 -0.626255 0
M  V30 23 H -6.48661 1.60494 0.901413 0
M  V30 24 H -6.79155 -0.0854691 -1.68153 0
M  V30 25 H -7.8139 -0.0823611 -0.216635 0
M  V30 26 H -6.03807 -0.96766 1.13379 0
M  V30 27 H -6.4634 -2.0073 -0.225048 0
M  V30 28 H -3.94543 -0.198655 0.0568976 0
M  V30 29 H -4.34242 -1.08091 -1.46093 0
M  V30 30 H -4.36029 -3.22771 -0.036553 0
M  V30 31 H -3.87821 -2.18839 1.31722 0
M  V30 32 H -1.88937 -3.30372 0.0292681 0
M  V30 33 H -2.3817 -2.3053 -1.34163 0
M  V30 34 H -1.67798 -1.08641 1.35644 0
M  V30 35 H -1.98369 -0.199255 -0.15721 0
M  V30 36 H 0.270146 -2.2056 0.285998 0
M  V30 37 H -0.111238 -1.35019 -1.27917 0
M  V30 38 H 0.52852 -0.042315 1.43646 0
M  V30 39 H 0.133844 0.857697 -0.0832266 0
M  V30 40 H 2.59272 -0.930415 0.350287 0
M  V30 41 H 2.15573 -0.0739695 -1.14342 0
M  V30 42 H 2.48221 1.25676 1.63123 0
M  V30 43 H 2.15268 2.0814 0.0464318 0
M  V30 44 H 4.24959 1.51608 -0.85066 0
M  V30 45 H 4.43362 2.31134 0.737722 0
M  V30 46 H 4.84631 0.278855 1.90453 0
M  V30 47 H 4.59617 -0.744902 0.481367 0
M  V30 48 H 7.0125 -0.372317 0.915578 0
M  V30 49 H 6.21832 2.15665 1.71358 0
M  V30 50 H 7.36527 2.30399 0.405467 0
M  V30 51 H 6.16297 1.33804 -1.51006 0
M  V30 52 H 7.76396 0.657936 -1.20553 0
M  V30 53 H 6.95368 -1.01676 -2.32906 0
M  V30 54 H 5.35241 -0.606579 -2.0636 0
M  V30 END ATOM
M  V30 BEGIN BOND
M  V30 1 1 1 2
M  V30 2 1 2 3
M  V30 3 1 3 4
M  V30 4 1 4 5
M  V30 5 1 5 6
M  V30 6 1 6 7
M  V30 7 1 7 8
M  V30 8 1 8 9
M  V30 9 1 9 10
M  V30 10 1 10 11
M  V30 11 1 11 12
M  V30 12 1 12 13
M  V30 13 1 13 14
M  V30 14 1 14 15
M  V30 15 1 15 16
M  V30 16 1 15 17
M  V30 17 1 17 18
M  V30 18 1 1 19
M  V30 19 1 1 20
M  V30 20 1 1 21
M  V30 21 1 2 22
M  V30 22 1 2 23
M  V30 23 1 3 24
M  V30 24 1 3 25
M  V30 25 1 4 26
M  V30 26 1 4 27
M  V30 27 1 5 28
M  V30 28 1 5 29
M  V30 29 1 6 30
M  V30 30 1 6 31
M  V30 31 1 7 32
M  V30 32 1 7 33
M  V30 33 1 8 34
M  V30 34 1 8 35
M  V30 35 1 9 36
M  V30 36 1 9 37
M  V30 37 1 10 38
M  V30 38 1 10 39
M  V30 39 1 11 40
M  V30 40 1 11 41
M  V30 41 1 12 42
M  V30 42 1 12 43
M  V30 43 1 13 44
M  V30 44 1 13 45
M  V30 45 1 14 46
M  V30 46 1 14 47
M  V30 47 1 15 48
M  V30 48 1 16 49
M  V30 49 1 16 50
M  V30 50 1 17 51
M  V30 51 1 17 52
M  V30 52 1 18 53
M  V30 53 1 18 54
M  V30 END BOND
M  V30 END CTAB
M  END
