
     RDKit          3D

  0  0  0  0  0  0  0  0  0  0999 V3000
M  V30 BEGIN CTAB
M  V30 COUNTS 57 59 0 0 0
M  V30 BEGIN ATOM
M  V30 1 N -4.44315 0.00444652 1.85032 0
M  V30 2 C -3.84089 -0.410943 0.580356 0 CFG=2
M  V30 3 C -2.43265 0.0432861 0.578994 0
M  V30 4 C -1.73672 -0.311364 -0.668287 0
M  V30 5 O -2.18135 -1.00824 -1.60131 0
M  V30 6 O -0.427959 0.223734 -0.76416 0
M  V30 7 C 0.374189 0.0121881 -1.86882 0
M  V30 8 O -0.0798687 -0.679059 -2.80215 0
M  V30 9 C 1.72964 0.58891 -1.94386 0
M  V30 10 C 2.50825 0.430378 -3.05919 0
M  V30 11 C 3.7877 0.989787 -3.11992 0
M  V30 12 C 4.30855 1.71787 -2.06514 0
M  V30 13 C 5.64508 2.34209 -2.11987 0
M  V30 14 C 6.7809 1.48582 -1.68668 0
M  V30 15 C 6.74558 0.971108 -0.321313 0
M  V30 16 C 7.29348 1.70501 0.723956 0
M  V30 17 C 7.26996 1.14194 1.9809 0
M  V30 18 C 6.70084 -0.127737 2.14853 0
M  V30 19 C 6.17263 -0.81191 1.09364 0
M  V30 20 N 5.59354 -2.12309 1.28016 0
M  V30 21 N 6.19804 -0.258202 -0.13574 0
M  V30 22 C 3.51725 1.87199 -0.941782 0
M  V30 23 C 2.24655 1.31349 -0.888033 0
M  V30 24 N -4.59082 0.149244 -0.485858 0
M  V30 25 S -5.74703 -0.836116 -1.23262 0
M  V30 26 O -5.23679 -2.06847 -1.87411 0
M  V30 27 O -6.3803 -0.0125717 -2.35088 0
M  V30 28 C -6.97075 -1.28109 -0.0323379 0
M  V30 29 C -8.07599 -0.488522 0.15396 0
M  V30 30 C -9.04668 -0.849817 1.09665 0
M  V30 31 C -8.90547 -1.99629 1.84282 0
M  V30 32 I -10.3907 -2.5246 3.26552 0
M  V30 33 C -7.79121 -2.79027 1.64953 0
M  V30 34 C -6.84442 -2.42454 0.72034 0
M  V30 35 H -4.79429 0.930184 1.73372 0
M  V30 36 H -3.85913 -0.199458 2.60922 0
M  V30 37 H -3.9747 -1.4998 0.642606 0
M  V30 38 H -2.36359 1.15032 0.781346 0
M  V30 39 H -1.9035 -0.515946 1.39707 0
M  V30 40 H 2.11646 -0.133256 -3.89204 0
M  V30 41 H 4.4093 0.87564 -3.9838 0
M  V30 42 H 5.8799 2.68293 -3.16149 0
M  V30 43 H 5.57218 3.30489 -1.54289 0
M  V30 44 H 7.71412 2.09458 -1.85369 0
M  V30 45 H 6.87136 0.667278 -2.45251 0
M  V30 46 H 7.71689 2.6783 0.532174 0
M  V30 47 H 7.69765 1.71043 2.81042 0
M  V30 48 H 6.69003 -0.541393 3.14666 0
M  V30 49 H 5.48964 -2.53574 2.22175 0
M  V30 50 H 5.28087 -2.65003 0.444167 0
M  V30 51 H 3.9164 2.43962 -0.0970624 0
M  V30 52 H 1.63752 1.43637 -0.0135932 0
M  V30 53 H -4.01803 0.72571 -1.15083 0
M  V30 54 H -8.24603 0.41498 -0.394673 0
M  V30 55 H -9.91878 -0.24444 1.2611 0
M  V30 56 H -7.69672 -3.69925 2.24666 0
M  V30 57 H -5.96693 -3.08036 0.597332 0
M  V30 END ATOM
M  V30 BEGIN BOND
M  V30 1 1 1 2
M  V30 2 1 2 3
M  V30 3 1 3 4
M  V30 4 2 4 5
M  V30 5 1 4 6
M  V30 6 1 6 7
M  V30 7 2 7 8
M  V30 8 1 7 9
M  V30 9 2 9 10
M  V30 10 1 10 11
M  V30 11 2 11 12
M  V30 12 1 12 13
M  V30 13 1 13 14
M  V30 14 1 14 15
M  V30 15 2 15 16
M  V30 16 1 16 17
M  V30 17 2 17 18
M  V30 18 1 18 19
M  V30 19 1 19 20
M  V30 20 2 19 21
M  V30 21 1 12 22
M  V30 22 2 22 23
M  V30 23 1 2 24
M  V30 24 1 24 25
M  V30 25 2 25 26
M  V30 26 2 25 27
M  V30 27 1 25 28
M  V30 28 2 28 29
M  V30 29 1 29 30
M  V30 30 2 30 31
M  V30 31 1 31 32
M  V30 32 1 31 33
M  V30 33 2 33 34
M  V30 34 1 23 9
M  V30 35 1 34 28
M  V30 36 1 21 15
M  V30 37 1 1 35
M  V30 38 1 1 36
M  V30 39 1 2 37 CFG=3
M  V30 40 1 3 38
M  V30 41 1 3 39
M  V30 42 1 10 40
M  V30 43 1 11 41
M  V30 44 1 13 42
M  V30 45 1 13 43
M  V30 46 1 14 44
M  V30 47 1 14 45
M  V30 48 1 16 46
M  V30 49 1 17 47
M  V30 50 1 18 48
M  V30 51 1 20 49
M  V30 52 1 20 50
M  V30 53 1 22 51
M  V30 54 1 23 52
M  V30 55 1 24 53
M  V30 56 1 29 54
M  V30 57 1 30 55
M  V30 58 1 33 56
M  V30 59 1 34 57
M  V30 END BOND
M  V30 END CTAB
M  END
