
     RDKit          3D

  0  0  0  0  0  0  0  0  0  0999 V3000
M  V30 BEGIN CTAB
M  V30 COUNTS 22 23 0 0 0
M  V30 BEGIN ATOM
M  V30 1 C 4.32179 1.02677 0.365441 0
M  V30 2 C 3.15248 0.140028 0.198858 0
M  V30 3 N 3.07439 -1.19202 0.0620947 0
M  V30 4 O 1.80603 -1.53598 -0.0576039 0
M  V30 5 C 1.03733 -0.502057 -0.00751538 0
M  V30 6 C 1.85379 0.595581 0.156026 0
M  V30 7 C -0.424525 -0.444303 -0.10064 0
M  V30 8 N -1.06923 0.723123 -0.0289473 0
M  V30 9 C -2.40534 0.81059 -0.11063 0
M  V30 10 N -3.00744 2.09632 -0.0243783 0
M  V30 11 N -3.10192 -0.313131 -0.268678 0
M  V30 12 C -2.50542 -1.51719 -0.347246 0
M  V30 13 N -1.16159 -1.56059 -0.260691 0
M  V30 14 N -3.28272 -2.71968 -0.518535 0
M  V30 15 H 4.44864 1.28612 1.45259 0
M  V30 16 H 5.22715 0.589301 -0.0647496 0
M  V30 17 H 4.15651 2.02406 -0.134708 0
M  V30 18 H 1.50413 1.62267 0.233764 0
M  V30 19 H -3.86299 2.33864 -0.572258 0
M  V30 20 H -2.62869 2.85493 0.584515 0
M  V30 21 H -3.81655 -3.14258 0.272376 0
M  V30 22 H -3.31583 -3.1806 -1.4496 0
M  V30 END ATOM
M  V30 BEGIN BOND
M  V30 1 1 1 2
M  V30 2 2 2 3
M  V30 3 1 3 4
M  V30 4 1 4 5
M  V30 5 2 5 6
M  V30 6 1 5 7
M  V30 7 2 7 8
M  V30 8 1 8 9
M  V30 9 1 9 10
M  V30 10 2 9 11
M  V30 11 1 11 12
M  V30 12 2 12 13
M  V30 13 1 12 14
M  V30 14 1 6 2
M  V30 15 1 13 7
M  V30 16 1 1 15
M  V30 17 1 1 16
M  V30 18 1 1 17
M  V30 19 1 6 18
M  V30 20 1 10 19
M  V30 21 1 10 20
M  V30 22 1 14 21
M  V30 23 1 14 22
M  V30 END BOND
M  V30 END CTAB
M  END
