
     RDKit          3D

  0  0  0  0  0  0  0  0  0  0999 V3000
M  V30 BEGIN CTAB
M  V30 COUNTS 58 60 0 0 0
M  V30 BEGIN ATOM
M  V30 1 C -5.46237 -1.05431 0.418542 0 CFG=2
M  V30 2 C -6.06344 -1.42771 -0.892016 0
M  V30 3 C -7.54753 -1.28766 -0.978624 0
M  V30 4 C -8.07419 0.0632223 -0.766053 0
M  V30 5 O -9.3311 0.199607 -0.647752 0
M  V30 6 O -7.25337 1.16335 -0.695914 0
M  V30 7 C -7.86716 2.42579 -0.490282 0
M  V30 8 N -3.99482 -1.23756 0.368183 0
M  V30 9 C -3.12279 -0.14073 0.580462 0
M  V30 10 O -3.63804 1.01511 0.819455 0
M  V30 11 C -1.67887 -0.207273 0.551371 0
M  V30 12 C -0.930816 0.919393 0.855072 0
M  V30 13 C 0.434305 0.896153 0.833117 0
M  V30 14 C 1.05394 -0.276624 0.501021 0
M  V30 15 C 0.336825 -1.40601 0.196358 0
M  V30 16 C -1.04633 -1.38182 0.218673 0
M  V30 17 N 2.49747 -0.323554 0.466536 0
M  V30 18 C 3.2508 -0.664571 1.63427 0
M  V30 19 C 3.08944 -0.00685479 -0.810759 0
M  V30 20 C 4.58518 -0.0492522 -0.753777 0
M  V30 21 N 5.30738 1.05666 -0.492307 0
M  V30 22 C 6.64793 1.00535 -0.443409 0
M  V30 23 C 7.24668 -0.230594 -0.673465 0
M  V30 24 N 6.52821 -1.33173 -0.93383 0
M  V30 25 C 5.18906 -1.26722 -0.97976 0
M  V30 26 N 8.58373 -0.29375 -0.627525 0
M  V30 27 C 9.36375 0.771228 -0.372094 0
M  V30 28 N 10.7577 0.564616 -0.353897 0
M  V30 29 N 8.77817 1.95464 -0.152345 0
M  V30 30 C 7.44008 2.09036 -0.183222 0
M  V30 31 N 6.79276 3.35216 0.0494912 0
M  V30 32 C -6.01795 -1.79662 1.56454 0
M  V30 33 O -7.34872 -1.73779 1.87028 0
M  V30 34 O -5.2412 -2.50801 2.28917 0
M  V30 35 H -5.62413 0.0134338 0.619342 0
M  V30 36 H -5.5558 -0.876184 -1.72213 0
M  V30 37 H -5.80549 -2.51366 -1.0996 0
M  V30 38 H -8.06133 -2.0796 -0.365422 0
M  V30 39 H -7.80805 -1.6029 -2.05647 0
M  V30 40 H -8.9454 2.39741 -0.811563 0
M  V30 41 H -7.311 3.15879 -1.08627 0
M  V30 42 H -7.8612 2.67107 0.587307 0
M  V30 43 H -3.59419 -2.17301 0.177786 0
M  V30 44 H -1.42546 1.86357 1.12218 0
M  V30 45 H 1.05927 1.74306 1.06071 0
M  V30 46 H 0.820602 -2.3227 -0.0632843 0
M  V30 47 H -1.62132 -2.29022 -0.0274312 0
M  V30 48 H 4.04924 0.107075 1.78984 0
M  V30 49 H 2.59793 -0.588482 2.53891 0
M  V30 50 H 3.65926 -1.68372 1.64083 0
M  V30 51 H 2.7543 0.989404 -1.16373 0
M  V30 52 H 2.77807 -0.738866 -1.5782 0
M  V30 53 H 4.58288 -2.16711 -1.19337 0
M  V30 54 H 11.2318 0.206376 -1.19443 0
M  V30 55 H 11.2958 0.772454 0.498336 0
M  V30 56 H 6.552 3.6363 1.02316 0
M  V30 57 H 6.56157 3.98492 -0.739966 0
M  V30 58 H -7.59404 -1.35542 2.79051 0
M  V30 END ATOM
M  V30 BEGIN BOND
M  V30 1 1 1 2
M  V30 2 1 2 3
M  V30 3 1 3 4
M  V30 4 2 4 5
M  V30 5 1 4 6
M  V30 6 1 6 7
M  V30 7 1 1 8
M  V30 8 1 8 9
M  V30 9 2 9 10
M  V30 10 1 9 11
M  V30 11 2 11 12
M  V30 12 1 12 13
M  V30 13 2 13 14
M  V30 14 1 14 15
M  V30 15 2 15 16
M  V30 16 1 14 17
M  V30 17 1 17 18
M  V30 18 1 17 19
M  V30 19 1 19 20
M  V30 20 2 20 21
M  V30 21 1 21 22
M  V30 22 2 22 23
M  V30 23 1 23 24
M  V30 24 2 24 25
M  V30 25 1 23 26
M  V30 26 2 26 27
M  V30 27 1 27 28
M  V30 28 1 27 29
M  V30 29 2 29 30
M  V30 30 1 30 31
M  V30 31 1 1 32
M  V30 32 1 32 33
M  V30 33 2 32 34
M  V30 34 1 16 11
M  V30 35 1 25 20
M  V30 36 1 30 22
M  V30 37 1 1 35 CFG=1
M  V30 38 1 2 36
M  V30 39 1 2 37
M  V30 40 1 3 38
M  V30 41 1 3 39
M  V30 42 1 7 40
M  V30 43 1 7 41
M  V30 44 1 7 42
M  V30 45 1 8 43
M  V30 46 1 12 44
M  V30 47 1 13 45
M  V30 48 1 15 46
M  V30 49 1 16 47
M  V30 50 1 18 48
M  V30 51 1 18 49
M  V30 52 1 18 50
M  V30 53 1 19 51
M  V30 54 1 19 52
M  V30 55 1 25 53
M  V30 56 1 28 54
M  V30 57 1 28 55
M  V30 58 1 31 56
M  V30 59 1 31 57
M  V30 60 1 33 58
M  V30 END BOND
M  V30 END CTAB
M  END
