
     RDKit          3D

  0  0  0  0  0  0  0  0  0  0999 V3000
M  V30 BEGIN CTAB
M  V30 COUNTS 16 16 0 0 0
M  V30 BEGIN ATOM
M  V30 1 N 2.38659 -0.838377 -0.684386 0
M  V30 2 C 1.59318 -0.400581 0.383611 0
M  V30 3 S 2.27019 0.011196 1.78722 0
M  V30 4 C 0.15092 -0.31488 0.231719 0
M  V30 5 N -0.579243 -1.44419 0.257096 0
M  V30 6 C -1.89504 -1.35608 0.117672 0
M  V30 7 C -2.56368 -0.158843 -0.0536771 0
M  V30 8 N -1.80206 0.9437 -0.0735704 0
M  V30 9 C -0.480176 0.907984 0.0618909 0
M  V30 10 N 0.343721 2.0635 0.0436267 0
M  V30 11 H 2.95048 -0.139707 -1.21356 0
M  V30 12 H 2.40901 -1.8542 -0.942965 0
M  V30 13 H -2.47116 -2.27518 0.140137 0
M  V30 14 H -3.64708 -0.144832 -0.163346 0
M  V30 15 H 0.330108 2.77007 -0.720676 0
M  V30 16 H 1.00425 2.23041 0.829213 0
M  V30 END ATOM
M  V30 BEGIN BOND
M  V30 1 1 1 2
M  V30 2 2 2 3
M  V30 3 1 2 4
M  V30 4 2 4 5
M  V30 5 1 5 6
M  V30 6 2 6 7
M  V30 7 1 7 8
M  V30 8 2 8 9
M  V30 9 1 9 10
M  V30 10 1 9 4
M  V30 11 1 1 11
M  V30 12 1 1 12
M  V30 13 1 6 13
M  V30 14 1 7 14
M  V30 15 1 10 15
M  V30 16 1 10 16
M  V30 END BOND
M  V30 END CTAB
M  END
