
     RDKit          3D

  0  0  0  0  0  0  0  0  0  0999 V3000
M  V30 BEGIN CTAB
M  V30 COUNTS 85 87 0 0 0
M  V30 BEGIN ATOM
M  V30 1 C 0.696327 0.282547 -0.518606 0 CFG=2
M  V30 2 O 1.87214 0.503702 0.179789 0
M  V30 3 C 3.00982 7.48927e-05 -0.436924 0 CFG=1
M  V30 4 O 3.80206 1.11555 -0.749578 0
M  V30 5 C 5.18186 1.04971 -0.685628 0
M  V30 6 C 6.07289 1.61975 -1.68918 0
M  V30 7 N 7.46476 1.40428 -1.55188 0
M  V30 8 C 7.94881 0.0957468 -1.83137 0
M  V30 9 C 7.83973 -0.247427 -3.31381 0
M  V30 10 O 8.34953 -1.55409 -3.43474 0
M  V30 11 C 8.63634 0.670699 -4.18841 0
M  V30 12 O 9.98232 0.675251 -3.81852 0
M  V30 13 C 5.68971 0.410477 0.384828 0
M  V30 14 C 4.6742 -0.147975 1.36686 0
M  V30 15 C 3.7176 -0.924603 0.482364 0 CFG=1
M  V30 16 N 2.84892 -1.76398 1.28993 0
M  V30 17 C 0.148117 1.57508 -1.05553 0 CFG=1
M  V30 18 N -0.579063 1.43541 -2.29132 0
M  V30 19 C -0.640071 2.37103 -0.0736484 0
M  V30 20 C -1.31103 1.4835 0.978881 0 CFG=1
M  V30 21 N -2.50443 2.20126 1.3948 0
M  V30 22 C -2.62276 2.69681 2.72418 0
M  V30 23 O -1.66597 2.49254 3.51859 0
M  V30 24 C -3.79872 3.42456 3.19638 0
M  V30 25 O -3.64147 3.77111 4.53154 0
M  V30 26 C -1.60948 0.178378 0.353376 0 CFG=2
M  V30 27 O -2.50294 -0.637465 1.03982 0
M  V30 28 C -3.63226 -0.982853 0.373664 0 CFG=1
M  V30 29 O -3.70653 -2.37723 0.239121 0
M  V30 30 C -4.69724 -2.72975 -0.667988 0
M  V30 31 C -6.03654 -2.12021 -0.295383 0 CFG=2
M  V30 32 C -7.01867 -3.26861 -0.32079 0
M  V30 33 O -6.47327 -1.165 -1.1983 0
M  V30 34 C -6.0067 -1.52116 1.06959 0 CFG=2
M  V30 35 N -7.15214 -0.821118 1.50559 0
M  V30 36 C -8.37871 -1.49352 1.66852 0
M  V30 37 C -4.83219 -0.554924 1.15392 0 CFG=1
M  V30 38 O -4.482 -0.498706 2.50182 0
M  V30 39 C -0.317568 -0.56924 0.086285 0 CFG=1
M  V30 40 O -0.646813 -1.68363 -0.704808 0
M  V30 41 H 1.05589 -0.271245 -1.45146 0
M  V30 42 H 2.7402 -0.56303 -1.3746 0
M  V30 43 H 5.87232 2.73535 -1.79695 0
M  V30 44 H 5.7793 1.23406 -2.7117 0
M  V30 45 H 8.08047 2.16528 -1.86763 0
M  V30 46 H 7.40197 -0.683831 -1.30928 0
M  V30 47 H 9.04461 0.0879614 -1.60268 0
M  V30 48 H 6.80297 -0.272641 -3.66526 0
M  V30 49 H 7.86467 -2.19433 -2.8521 0
M  V30 50 H 8.60569 0.210436 -5.21713 0
M  V30 51 H 8.19609 1.66586 -4.27078 0
M  V30 52 H 10.1836 -0.255384 -3.52819 0
M  V30 53 H 6.707 0.278293 0.620135 0
M  V30 54 H 4.20269 0.706385 1.88267 0
M  V30 55 H 5.16905 -0.79537 2.10739 0
M  V30 56 H 4.38199 -1.64617 -0.0748696 0
M  V30 57 H 3.42268 -2.46242 1.77683 0
M  V30 58 H 2.23602 -1.19356 1.91566 0
M  V30 59 H 1.0324 2.2301 -1.32157 0
M  V30 60 H -1.09004 2.29079 -2.55224 0
M  V30 61 H 0.101371 1.20547 -3.04821 0
M  V30 62 H -0.0512477 3.17946 0.417351 0
M  V30 63 H -1.45332 2.88924 -0.620894 0
M  V30 64 H -0.578471 1.43421 1.81468 0
M  V30 65 H -3.29276 2.36973 0.738793 0
M  V30 66 H -3.99122 4.37771 2.64686 0
M  V30 67 H -4.75012 2.83844 3.06639 0
M  V30 68 H -4.51988 4.00738 4.87794 0
M  V30 69 H -2.09508 0.347076 -0.626092 0
M  V30 70 H -3.67528 -0.493967 -0.625518 0
M  V30 71 H -4.4153 -2.32633 -1.65351 0
M  V30 72 H -4.74743 -3.81043 -0.706271 0
M  V30 73 H -8.0572 -2.98594 -0.485979 0
M  V30 74 H -6.66704 -3.98398 -1.12846 0
M  V30 75 H -6.83617 -3.85958 0.621435 0
M  V30 76 H -7.46929 -1.15385 -1.23562 0
M  V30 77 H -5.78962 -2.33446 1.83112 0
M  V30 78 H -6.97199 -0.0593646 2.19257 0
M  V30 79 H -8.9291 -0.992697 2.53778 0
M  V30 80 H -8.36666 -2.56459 1.85793 0
M  V30 81 H -9.10143 -1.31 0.815066 0
M  V30 82 H -5.18268 0.465793 0.876106 0
M  V30 83 H -4.05811 -1.35519 2.80499 0
M  V30 84 H -0.0406515 -1.00104 1.08275 0
M  V30 85 H -0.42942 -2.54561 -0.272014 0
M  V30 END ATOM
M  V30 BEGIN BOND
M  V30 1 1 1 2
M  V30 2 1 2 3
M  V30 3 1 3 4
M  V30 4 1 4 5
M  V30 5 1 5 6
M  V30 6 1 6 7
M  V30 7 1 7 8
M  V30 8 1 8 9
M  V30 9 1 9 10
M  V30 10 1 9 11
M  V30 11 1 11 12
M  V30 12 2 5 13
M  V30 13 1 13 14
M  V30 14 1 14 15
M  V30 15 1 15 16
M  V30 16 1 1 17
M  V30 17 1 17 18
M  V30 18 1 17 19
M  V30 19 1 19 20
M  V30 20 1 20 21
M  V30 21 1 21 22
M  V30 22 2 22 23
M  V30 23 1 22 24
M  V30 24 1 24 25
M  V30 25 1 20 26
M  V30 26 1 26 27
M  V30 27 1 27 28
M  V30 28 1 28 29
M  V30 29 1 29 30
M  V30 30 1 30 31
M  V30 31 1 31 32
M  V30 32 1 31 33 CFG=3
M  V30 33 1 31 34
M  V30 34 1 34 35
M  V30 35 1 35 36
M  V30 36 1 34 37
M  V30 37 1 37 38
M  V30 38 1 26 39
M  V30 39 1 39 40
M  V30 40 1 39 1
M  V30 41 1 15 3
M  V30 42 1 37 28
M  V30 43 1 1 41 CFG=3
M  V30 44 1 3 42 CFG=3
M  V30 45 1 6 43
M  V30 46 1 6 44
M  V30 47 1 7 45
M  V30 48 1 8 46
M  V30 49 1 8 47
M  V30 50 1 9 48
M  V30 51 1 10 49
M  V30 52 1 11 50
M  V30 53 1 11 51
M  V30 54 1 12 52
M  V30 55 1 13 53
M  V30 56 1 14 54
M  V30 57 1 14 55
M  V30 58 1 15 56 CFG=3
M  V30 59 1 16 57
M  V30 60 1 16 58
M  V30 61 1 17 59 CFG=3
M  V30 62 1 18 60
M  V30 63 1 18 61
M  V30 64 1 19 62
M  V30 65 1 19 63
M  V30 66 1 20 64 CFG=1
M  V30 67 1 21 65
M  V30 68 1 24 66
M  V30 69 1 24 67
M  V30 70 1 25 68
M  V30 71 1 26 69 CFG=3
M  V30 72 1 28 70 CFG=3
M  V30 73 1 30 71
M  V30 74 1 30 72
M  V30 75 1 32 73
M  V30 76 1 32 74
M  V30 77 1 32 75
M  V30 78 1 33 76
M  V30 79 1 34 77 CFG=1
M  V30 80 1 35 78
M  V30 81 1 36 79
M  V30 82 1 36 80
M  V30 83 1 36 81
M  V30 84 1 37 82 CFG=3
M  V30 85 1 38 83
M  V30 86 1 39 84 CFG=1
M  V30 87 1 40 85
M  V30 END BOND
M  V30 END CTAB
M  END
