
     RDKit          3D

  0  0  0  0  0  0  0  0  0  0999 V3000
M  V30 BEGIN CTAB
M  V30 COUNTS 58 58 0 0 0
M  V30 BEGIN ATOM
M  V30 1 C 1.25661 2.33502 -0.589388 0
M  V30 2 C 0.651422 1.03505 -0.206521 0
M  V30 3 C -0.647602 1.1055 0.283889 0
M  V30 4 C -1.20184 2.49596 0.474773 0
M  V30 5 C -1.37042 -0.0359715 0.635386 0
M  V30 6 C -2.7403 0.00774303 1.10013 0
M  V30 7 C -3.88867 0.0900206 0.206313 0
M  V30 8 C -3.99425 -1.10208 -0.763583 0
M  V30 9 C -5.16966 -0.0860005 1.06864 0
M  V30 10 C -4.13953 1.29414 -0.61795 0
M  V30 11 N -5.36954 1.13418 -1.41707 0
M  V30 12 C -0.718616 -1.23667 0.472822 0
M  V30 13 C -1.38235 -2.50907 0.855649 0
M  V30 14 C 0.607916 -1.3116 -0.0262676 0
M  V30 15 C 1.14768 -2.68165 -0.150063 0
M  V30 16 C 1.3002 -0.171329 -0.368696 0
M  V30 17 C 2.67163 -0.222035 -0.855111 0
M  V30 18 C 3.80547 -0.0507832 0.0549539 0
M  V30 19 C 3.98803 1.17142 0.847724 0
M  V30 20 C 4.01265 -1.22135 1.03362 0
M  V30 21 C 5.07557 -0.159514 -0.841453 0
M  V30 22 N 6.26931 -0.0114007 -0.0826046 0
M  V30 23 H 1.57198 2.96539 0.259789 0
M  V30 24 H 0.447884 2.96498 -1.08363 0
M  V30 25 H 2.04592 2.30092 -1.32484 0
M  V30 26 H -2.00298 2.58044 1.18592 0
M  V30 27 H -1.51263 2.89658 -0.492725 0
M  V30 28 H -0.335395 3.17868 0.78103 0
M  V30 29 H -2.9934 -0.798099 1.87139 0
M  V30 30 H -2.78607 0.923815 1.80009 0
M  V30 31 H -3.06817 -1.18936 -1.35407 0
M  V30 32 H -4.7933 -0.893988 -1.51973 0
M  V30 33 H -4.20038 -2.01571 -0.215489 0
M  V30 34 H -5.97681 -0.510553 0.443365 0
M  V30 35 H -5.43241 0.915197 1.47099 0
M  V30 36 H -4.89465 -0.766588 1.87788 0
M  V30 37 H -4.24124 2.24692 -0.118212 0
M  V30 38 H -3.34086 1.40871 -1.4125 0
M  V30 39 H -6.1644 1.62986 -0.953365 0
M  V30 40 H -5.20719 1.41567 -2.38433 0
M  V30 41 H -2.139 -2.46096 1.61446 0
M  V30 42 H -0.603607 -3.23469 1.27675 0
M  V30 43 H -1.69568 -3.09052 -0.065356 0
M  V30 44 H 1.45919 -3.04265 0.87498 0
M  V30 45 H 0.32842 -3.36559 -0.529278 0
M  V30 46 H 2.01697 -2.82539 -0.775321 0
M  V30 47 H 2.81232 0.490703 -1.75042 0
M  V30 48 H 2.83949 -1.20147 -1.39004 0
M  V30 49 H 4.93486 1.03449 1.4674 0
M  V30 50 H 3.22293 1.3776 1.6193 0
M  V30 51 H 4.24935 2.04015 0.209571 0
M  V30 52 H 4.13371 -2.17959 0.54367 0
M  V30 53 H 4.89878 -0.963299 1.69019 0
M  V30 54 H 3.1584 -1.18807 1.73471 0
M  V30 55 H 5.03422 -1.21422 -1.22333 0
M  V30 56 H 5.00594 0.548163 -1.67197 0
M  V30 57 H 6.51668 0.940751 0.192155 0
M  V30 58 H 6.54742 -0.787869 0.512258 0
M  V30 END ATOM
M  V30 BEGIN BOND
M  V30 1 1 1 2
M  V30 2 2 2 3
M  V30 3 1 3 4
M  V30 4 1 3 5
M  V30 5 1 5 6
M  V30 6 1 6 7
M  V30 7 1 7 8
M  V30 8 1 7 9
M  V30 9 1 7 10
M  V30 10 1 10 11
M  V30 11 2 5 12
M  V30 12 1 12 13
M  V30 13 1 12 14
M  V30 14 1 14 15
M  V30 15 2 14 16
M  V30 16 1 16 17
M  V30 17 1 17 18
M  V30 18 1 18 19
M  V30 19 1 18 20
M  V30 20 1 18 21
M  V30 21 1 21 22
M  V30 22 1 16 2
M  V30 23 1 1 23
M  V30 24 1 1 24
M  V30 25 1 1 25
M  V30 26 1 4 26
M  V30 27 1 4 27
M  V30 28 1 4 28
M  V30 29 1 6 29
M  V30 30 1 6 30
M  V30 31 1 8 31
M  V30 32 1 8 32
M  V30 33 1 8 33
M  V30 34 1 9 34
M  V30 35 1 9 35
M  V30 36 1 9 36
M  V30 37 1 10 37
M  V30 38 1 10 38
M  V30 39 1 11 39
M  V30 40 1 11 40
M  V30 41 1 13 41
M  V30 42 1 13 42
M  V30 43 1 13 43
M  V30 44 1 15 44
M  V30 45 1 15 45
M  V30 46 1 15 46
M  V30 47 1 17 47
M  V30 48 1 17 48
M  V30 49 1 19 49
M  V30 50 1 19 50
M  V30 51 1 19 51
M  V30 52 1 20 52
M  V30 53 1 20 53
M  V30 54 1 20 54
M  V30 55 1 21 55
M  V30 56 1 21 56
M  V30 57 1 22 57
M  V30 58 1 22 58
M  V30 END BOND
M  V30 END CTAB
M  END
