
     RDKit          3D

  0  0  0  0  0  0  0  0  0  0999 V3000
M  V30 BEGIN CTAB
M  V30 COUNTS 48 50 0 0 0
M  V30 BEGIN ATOM
M  V30 1 N 10.0264 -0.701732 -0.27572 0
M  V30 2 C 9.2891 0.0483495 0.666565 0
M  V30 3 N 9.91076 0.8151 1.48247 0
M  V30 4 C 7.83265 -0.0418058 0.718776 0
M  V30 5 C 7.15857 -0.859488 -0.150061 0
M  V30 6 C 5.78466 -0.929775 -0.0838257 0
M  V30 7 C 5.0557 -0.201839 0.831972 0
M  V30 8 O 3.67803 -0.342231 0.817928 0
M  V30 9 C 2.82029 0.429233 0.0710836 0
M  V30 10 O 3.31361 1.32912 -0.654024 0
M  V30 11 C 1.37649 0.266115 0.0700959 0
M  V30 12 C 0.570431 1.0701 -0.699594 0
M  V30 13 C -0.818486 0.924247 -0.710074 0
M  V30 14 C -1.43089 -0.0385884 0.0574115 0
M  V30 15 C -0.622987 -0.84339 0.827982 0
M  V30 16 C 0.751188 -0.693274 0.833361 0
M  V30 17 C -2.86867 -0.217766 0.070777 0
M  V30 18 O -3.38107 -1.11121 0.788457 0
M  V30 19 O -3.74676 0.552945 -0.677421 0
M  V30 20 C -5.11707 0.371186 -0.655236 0
M  V30 21 C -5.75344 -0.482428 -1.52472 0
M  V30 22 C -7.11622 -0.655348 -1.49369 0
M  V30 23 C -7.91277 0.0332981 -0.572309 0
M  V30 24 C -7.28179 0.887175 0.298378 0
M  V30 25 C -5.90371 1.04561 0.248218 0
M  V30 26 C -9.36568 -0.184779 -0.577767 0
M  V30 27 N -9.92669 -1.09861 -1.52861 0
M  V30 28 N -10.1792 0.396207 0.223224 0
M  V30 29 C 5.70628 0.623179 1.71177 0
M  V30 30 C 7.08797 0.681875 1.63136 0
M  V30 31 H 10.3215 -1.66399 -0.0398806 0
M  V30 32 H 10.2768 -0.302886 -1.20072 0
M  V30 33 H 10.9319 0.886499 1.45527 0
M  V30 34 H 7.72627 -1.44009 -0.879027 0
M  V30 35 H 5.30621 -1.60278 -0.807106 0
M  V30 36 H 1.01013 1.8352 -1.31405 0
M  V30 37 H -1.44998 1.56027 -1.31836 0
M  V30 38 H -1.04767 -1.62596 1.45892 0
M  V30 39 H 1.38958 -1.33928 1.4509 0
M  V30 40 H -5.12038 -1.01221 -2.23696 0
M  V30 41 H -7.61764 -1.32091 -2.17075 0
M  V30 42 H -7.88835 1.4268 1.01743 0
M  V30 43 H -5.44712 1.72376 0.947206 0
M  V30 44 H -9.83855 -2.11589 -1.4249 0
M  V30 45 H -10.4358 -0.712872 -2.34362 0
M  V30 46 H -9.85382 1.05808 0.925514 0
M  V30 47 H 5.14813 1.18604 2.41929 0
M  V30 48 H 7.65214 1.32759 2.31406 0
M  V30 END ATOM
M  V30 BEGIN BOND
M  V30 1 1 1 2
M  V30 2 2 2 3 CFG=2
M  V30 3 1 2 4
M  V30 4 2 4 5
M  V30 5 1 5 6
M  V30 6 2 6 7
M  V30 7 1 7 8
M  V30 8 1 8 9
M  V30 9 2 9 10
M  V30 10 1 9 11
M  V30 11 2 11 12
M  V30 12 1 12 13
M  V30 13 2 13 14
M  V30 14 1 14 15
M  V30 15 2 15 16
M  V30 16 1 14 17
M  V30 17 2 17 18
M  V30 18 1 17 19
M  V30 19 1 19 20
M  V30 20 2 20 21
M  V30 21 1 21 22
M  V30 22 2 22 23
M  V30 23 1 23 24
M  V30 24 2 24 25
M  V30 25 1 23 26
M  V30 26 1 26 27
M  V30 27 2 26 28 CFG=2
M  V30 28 1 7 29
M  V30 29 2 29 30
M  V30 30 1 30 4
M  V30 31 1 16 11
M  V30 32 1 25 20
M  V30 33 1 1 31
M  V30 34 1 1 32
M  V30 35 1 3 33
M  V30 36 1 5 34
M  V30 37 1 6 35
M  V30 38 1 12 36
M  V30 39 1 13 37
M  V30 40 1 15 38
M  V30 41 1 16 39
M  V30 42 1 21 40
M  V30 43 1 22 41
M  V30 44 1 24 42
M  V30 45 1 25 43
M  V30 46 1 27 44
M  V30 47 1 27 45
M  V30 48 1 28 46
M  V30 49 1 29 47
M  V30 50 1 30 48
M  V30 END BOND
M  V30 END CTAB
M  END
