
     RDKit          3D

  0  0  0  0  0  0  0  0  0  0999 V3000
M  V30 BEGIN CTAB
M  V30 COUNTS 21 21 0 0 0
M  V30 BEGIN ATOM
M  V30 1 N -0.381414 1.84015 -0.749046 0
M  V30 2 C 0.633843 1.00709 -0.237667 0
M  V30 3 C 1.81923 1.44851 0.193652 0
M  V30 4 C 2.72969 0.530167 0.716751 0
M  V30 5 C 2.44904 -0.836805 0.802438 0
M  V30 6 C 1.18715 -1.28166 0.337876 0
M  V30 7 C 0.303357 -0.395573 -0.165519 0
M  V30 8 C -1.0282 -0.611712 -0.741723 0
M  V30 9 N -1.93882 -0.874637 0.419764 0
M  V30 10 N -3.21918 -0.379527 -0.0913367 0
M  V30 11 Br 3.75149 -2.07181 1.45434 0
M  V30 12 H -1.19367 2.18988 -0.206888 0
M  V30 13 H -0.29279 2.09797 -1.78645 0
M  V30 14 H 2.12556 2.49455 0.216223 0
M  V30 15 H 3.71532 0.896175 1.06481 0
M  V30 16 H 0.92196 -2.31067 0.391598 0
M  V30 17 H -1.39744 0.0761601 -1.47182 0
M  V30 18 H -0.923245 -1.68375 -1.22633 0
M  V30 19 H -2.07291 -1.92683 0.552379 0
M  V30 20 H -3.99144 -0.887361 0.322991 0
M  V30 21 H -3.19754 0.679671 0.203956 0
M  V30 END ATOM
M  V30 BEGIN BOND
M  V30 1 1 1 2
M  V30 2 2 2 3
M  V30 3 1 3 4
M  V30 4 2 4 5
M  V30 5 1 5 6
M  V30 6 2 6 7
M  V30 7 1 7 8
M  V30 8 1 8 9
M  V30 9 1 9 10
M  V30 10 1 5 11
M  V30 11 1 7 2
M  V30 12 1 1 12
M  V30 13 1 1 13
M  V30 14 1 3 14
M  V30 15 1 4 15
M  V30 16 1 6 16
M  V30 17 1 8 17
M  V30 18 1 8 18
M  V30 19 1 9 19
M  V30 20 1 10 20
M  V30 21 1 10 21
M  V30 END BOND
M  V30 END CTAB
M  END
