
     RDKit          3D

  0  0  0  0  0  0  0  0  0  0999 V3000
M  V30 BEGIN CTAB
M  V30 COUNTS 48 50 0 0 0
M  V30 BEGIN ATOM
M  V30 1 N 6.85666 -1.25329 0.454099 0
M  V30 2 C 6.52768 0.113847 0.085011 0
M  V30 3 C 5.40232 0.7168 0.93752 0
M  V30 4 C 4.64754 1.05358 -0.315863 0
M  V30 5 C 5.606 0.176237 -1.11252 0
M  V30 6 C 3.26992 0.498363 -0.330842 0
M  V30 7 C 2.18743 1.23787 -0.710979 0
M  V30 8 C 0.931718 0.678971 -0.704162 0
M  V30 9 N -0.167273 1.47136 -1.11603 0
M  V30 10 C -1.52903 1.01319 -1.13154 0
M  V30 11 C -2.07953 0.692172 0.238697 0
M  V30 12 C -3.4748 0.233214 0.192518 0
M  V30 13 C -4.47504 1.12127 0.537345 0
M  V30 14 C -5.80021 0.756914 0.504868 0
M  V30 15 C -6.89072 1.69664 0.869156 0
M  V30 16 C -6.13047 -0.521264 0.120076 0
M  V30 17 C -5.13277 -1.40813 -0.224012 0
M  V30 18 C -3.78698 -1.043 -0.192687 0
M  V30 19 C -2.78865 -2.05864 -0.573788 0
M  V30 20 N 0.816868 -0.594346 -0.317171 0
M  V30 21 C 1.8847 -1.33533 0.0612153 0
M  V30 22 N 3.09901 -0.772662 0.0477509 0
M  V30 23 N 1.67468 -2.68833 0.457994 0
M  V30 24 H 5.96632 -1.68712 0.817575 0
M  V30 25 H 7.10758 -1.74799 -0.453984 0
M  V30 26 H 7.37464 0.801165 -0.00706818 0
M  V30 27 H 5.72848 1.59226 1.55055 0
M  V30 28 H 4.90154 -0.0617981 1.57788 0
M  V30 29 H 4.69965 2.13373 -0.607789 0
M  V30 30 H 6.05634 0.668748 -1.99392 0
M  V30 31 H 5.15649 -0.803626 -1.35375 0
M  V30 32 H 2.32978 2.2819 -1.02199 0
M  V30 33 H -0.0230937 2.47468 -1.44261 0
M  V30 34 H -1.50872 0.0392399 -1.70689 0
M  V30 35 H -2.19668 1.6718 -1.70996 0
M  V30 36 H -2.00943 1.64595 0.821308 0
M  V30 37 H -1.44087 -0.0302692 0.775899 0
M  V30 38 H -4.25076 2.1516 0.850398 0
M  V30 39 H -7.30941 1.46238 1.85757 0
M  V30 40 H -6.52073 2.74921 0.914834 0
M  V30 41 H -7.65693 1.6752 0.0495235 0
M  V30 42 H -7.16597 -0.819392 0.0907509 0
M  V30 43 H -5.39878 -2.41955 -0.528225 0
M  V30 44 H -2.61915 -2.0865 -1.66472 0
M  V30 45 H -1.85783 -1.98721 0.0337781 0
M  V30 46 H -3.18957 -3.08525 -0.321328 0
M  V30 47 H 2.13987 -3.09896 1.29047 0
M  V30 48 H 1.03814 -3.30563 -0.0883971 0
M  V30 END ATOM
M  V30 BEGIN BOND
M  V30 1 1 1 2
M  V30 2 1 2 3
M  V30 3 1 3 4
M  V30 4 1 4 5
M  V30 5 1 4 6
M  V30 6 2 6 7
M  V30 7 1 7 8
M  V30 8 1 8 9
M  V30 9 1 9 10
M  V30 10 1 10 11
M  V30 11 1 11 12
M  V30 12 2 12 13
M  V30 13 1 13 14
M  V30 14 1 14 15
M  V30 15 2 14 16
M  V30 16 1 16 17
M  V30 17 2 17 18
M  V30 18 1 18 19
M  V30 19 2 8 20
M  V30 20 1 20 21
M  V30 21 2 21 22
M  V30 22 1 21 23
M  V30 23 1 5 2
M  V30 24 1 22 6
M  V30 25 1 18 12
M  V30 26 1 1 24
M  V30 27 1 1 25
M  V30 28 1 2 26
M  V30 29 1 3 27
M  V30 30 1 3 28
M  V30 31 1 4 29
M  V30 32 1 5 30
M  V30 33 1 5 31
M  V30 34 1 7 32
M  V30 35 1 9 33
M  V30 36 1 10 34
M  V30 37 1 10 35
M  V30 38 1 11 36
M  V30 39 1 11 37
M  V30 40 1 13 38
M  V30 41 1 15 39
M  V30 42 1 15 40
M  V30 43 1 15 41
M  V30 44 1 16 42
M  V30 45 1 17 43
M  V30 46 1 19 44
M  V30 47 1 19 45
M  V30 48 1 19 46
M  V30 49 1 23 47
M  V30 50 1 23 48
M  V30 END BOND
M  V30 END CTAB
M  END
