
     RDKit          3D

  0  0  0  0  0  0  0  0  0  0999 V3000
M  V30 BEGIN CTAB
M  V30 COUNTS 27 27 0 0 0
M  V30 BEGIN ATOM
M  V30 1 C -2.60381 -0.144061 -1.3745 0
M  V30 2 C -1.91639 0.272716 -0.0717125 0
M  V30 3 C -0.51305 -0.153474 -0.0442291 0
M  V30 4 C -0.152029 -1.37179 0.497165 0
M  V30 5 C 1.15696 -1.80659 0.535564 0
M  V30 6 C 2.14643 -0.988067 0.00980602 0
M  V30 7 C 1.77856 0.229754 -0.529798 0
M  V30 8 N 0.489016 0.610244 -0.544139 0
M  V30 9 S 3.03488 1.26111 -1.18878 0
M  V30 10 O 3.05473 2.5214 -0.336148 0
M  V30 11 O 2.67579 1.65858 -2.57206 0
M  V30 12 N 4.58131 0.526205 -1.08425 0
M  V30 13 N -2.05757 1.71858 0.00770818 0
M  V30 14 C -2.68954 -0.362732 1.04496 0
M  V30 15 H -2.51967 -1.22938 -1.56729 0
M  V30 16 H -3.67797 0.0837377 -1.22054 0
M  V30 17 H -2.26375 0.48356 -2.22333 0
M  V30 18 H -0.910413 -2.03837 0.919324 0
M  V30 19 H 1.42727 -2.77498 0.966772 0
M  V30 20 H 3.15203 -1.3639 0.0599671 0
M  V30 21 H 5.12346 0.854152 -0.237527 0
M  V30 22 H 4.57338 -0.509675 -1.09896 0
M  V30 23 H -3.01775 1.93921 -0.398503 0
M  V30 24 H -2.00734 2.07957 0.96505 0
M  V30 25 H -2.28394 -0.143358 2.04588 0
M  V30 26 H -3.72114 0.100806 1.00696 0
M  V30 27 H -2.85943 -1.45324 0.882165 0
M  V30 END ATOM
M  V30 BEGIN BOND
M  V30 1 1 1 2
M  V30 2 1 2 3
M  V30 3 2 3 4
M  V30 4 1 4 5
M  V30 5 2 5 6
M  V30 6 1 6 7
M  V30 7 2 7 8
M  V30 8 1 7 9
M  V30 9 2 9 10
M  V30 10 2 9 11
M  V30 11 1 9 12
M  V30 12 1 2 13
M  V30 13 1 2 14
M  V30 14 1 8 3
M  V30 15 1 1 15
M  V30 16 1 1 16
M  V30 17 1 1 17
M  V30 18 1 4 18
M  V30 19 1 5 19
M  V30 20 1 6 20
M  V30 21 1 12 21
M  V30 22 1 12 22
M  V30 23 1 13 23
M  V30 24 1 13 24
M  V30 25 1 14 25
M  V30 26 1 14 26
M  V30 27 1 14 27
M  V30 END BOND
M  V30 END CTAB
M  END
