
     RDKit          3D

  0  0  0  0  0  0  0  0  0  0999 V3000
M  V30 BEGIN CTAB
M  V30 COUNTS 29 30 0 0 0
M  V30 BEGIN ATOM
M  V30 1 N -3.8362 -1.79732 -1.49453 0
M  V30 2 N -2.55564 -1.31217 -0.995771 0
M  V30 3 C -2.49406 -0.0793949 -0.349154 0
M  V30 4 O -3.66343 0.491606 -0.275626 0
M  V30 5 C -1.33574 0.629652 0.237586 0
M  V30 6 C -1.58446 1.85324 0.877447 0
M  V30 7 N -2.83632 2.5419 1.0486 0
M  V30 8 S -0.0609165 2.35478 1.41676 0
M  V30 9 C 0.868044 1.06409 0.855039 0
M  V30 10 C -0.0467765 0.231506 0.233415 0
M  V30 11 C 0.697258 -0.970177 -0.342769 0
M  V30 12 C 1.78136 -0.318264 -1.23822 0
M  V30 13 N 2.81042 0.268135 -0.414771 0
M  V30 14 C 2.31707 0.646076 0.882724 0
M  V30 15 C 3.96269 -0.576688 -0.290187 0
M  V30 16 H -4.57899 -1.10912 -1.20173 0
M  V30 17 H -3.98018 -2.73249 -1.04682 0
M  V30 18 H -1.83302 -2.00664 -1.20114 0
M  V30 19 H -3.30914 2.93858 0.239894 0
M  V30 20 H -3.24963 2.63111 1.98851 0
M  V30 21 H 1.18123 -1.49938 0.521222 0
M  V30 22 H 0.135797 -1.60198 -0.978547 0
M  V30 23 H 2.20411 -1.06473 -1.929 0
M  V30 24 H 1.25975 0.51077 -1.75715 0
M  V30 25 H 2.36305 -0.240795 1.54046 0
M  V30 26 H 2.9154 1.49246 1.29214 0
M  V30 27 H 4.87769 -0.0114319 -0.632486 0
M  V30 28 H 3.85139 -1.53413 -0.855005 0
M  V30 29 H 4.13924 -0.799206 0.779192 0
M  V30 END ATOM
M  V30 BEGIN BOND
M  V30 1 1 1 2
M  V30 2 1 2 3
M  V30 3 2 3 4
M  V30 4 1 3 5
M  V30 5 2 5 6
M  V30 6 1 6 7
M  V30 7 1 6 8
M  V30 8 1 8 9
M  V30 9 2 9 10
M  V30 10 1 10 11
M  V30 11 1 11 12
M  V30 12 1 12 13
M  V30 13 1 13 14
M  V30 14 1 13 15
M  V30 15 1 10 5
M  V30 16 1 14 9
M  V30 17 1 1 16
M  V30 18 1 1 17
M  V30 19 1 2 18
M  V30 20 1 7 19
M  V30 21 1 7 20
M  V30 22 1 11 21
M  V30 23 1 11 22
M  V30 24 1 12 23
M  V30 25 1 12 24
M  V30 26 1 14 25
M  V30 27 1 14 26
M  V30 28 1 15 27
M  V30 29 1 15 28
M  V30 30 1 15 29
M  V30 END BOND
M  V30 END CTAB
M  END
