
     RDKit          3D

  0  0  0  0  0  0  0  0  0  0999 V3000
M  V30 BEGIN CTAB
M  V30 COUNTS 35 36 0 0 0
M  V30 BEGIN ATOM
M  V30 1 N -4.39733 -2.42493 -0.531593 0
M  V30 2 C -3.98446 -1.07078 -0.482438 0
M  V30 3 C -4.94643 -0.10352 -0.296674 0
M  V30 4 C -4.54916 1.20572 -0.248893 0
M  V30 5 N -5.46353 2.2692 -0.0602801 0
M  V30 6 N -3.22909 1.51729 -0.384732 0
M  V30 7 C -2.29664 0.574506 -0.565318 0
M  V30 8 N -2.67689 -0.712721 -0.613196 0
M  V30 9 S -0.587842 1.05972 -0.738304 0
M  V30 10 C 0.152244 1.10541 0.940364 0
M  V30 11 C 0.183283 -0.271685 1.48964 0
M  V30 12 C 0.99273 -1.1818 0.588771 0
M  V30 13 O 2.23932 -0.914763 0.379627 0
M  V30 14 C 3.40047 -0.429869 0.0682365 0
M  V30 15 C 3.59128 0.797069 -0.563105 0
M  V30 16 C 4.84775 1.22516 -0.850488 0
M  V30 17 C 5.96918 0.450236 -0.521899 0
M  V30 18 C 5.7904 -0.757065 0.0987563 0
M  V30 19 C 4.54684 -1.19854 0.392143 0
M  V30 20 H -5.15484 -2.66257 -1.21342 0
M  V30 21 H -3.997 -3.18513 0.0626057 0
M  V30 22 H -6.00532 -0.380378 -0.18967 0
M  V30 23 H -5.92345 2.68468 -0.892537 0
M  V30 24 H -5.69552 2.65258 0.872346 0
M  V30 25 H -0.547143 1.69424 1.6225 0
M  V30 26 H 1.08143 1.67231 0.967082 0
M  V30 27 H 0.562797 -0.321911 2.51351 0
M  V30 28 H -0.881904 -0.651106 1.47061 0
M  V30 29 H 0.823446 -2.23439 0.998589 0
M  V30 30 H 0.437008 -1.24936 -0.427284 0
M  V30 31 H 2.73029 1.3741 -0.808342 0
M  V30 32 H 4.96803 2.18577 -1.34221 0
M  V30 33 H 6.95035 0.803754 -0.757091 0
M  V30 34 H 6.66123 -1.37754 0.364854 0
M  V30 35 H 4.40847 -2.14368 0.877755 0
M  V30 END ATOM
M  V30 BEGIN BOND
M  V30 1 1 1 2
M  V30 2 2 2 3
M  V30 3 1 3 4
M  V30 4 1 4 5
M  V30 5 2 4 6
M  V30 6 1 6 7
M  V30 7 2 7 8
M  V30 8 1 7 9
M  V30 9 1 9 10
M  V30 10 1 10 11
M  V30 11 1 11 12
M  V30 12 1 12 13
M  V30 13 1 13 14
M  V30 14 2 14 15
M  V30 15 1 15 16
M  V30 16 2 16 17
M  V30 17 1 17 18
M  V30 18 2 18 19
M  V30 19 1 8 2
M  V30 20 1 19 14
M  V30 21 1 1 20
M  V30 22 1 1 21
M  V30 23 1 3 22
M  V30 24 1 5 23
M  V30 25 1 5 24
M  V30 26 1 10 25
M  V30 27 1 10 26
M  V30 28 1 11 27
M  V30 29 1 11 28
M  V30 30 1 12 29
M  V30 31 1 12 30
M  V30 32 1 15 31
M  V30 33 1 16 32
M  V30 34 1 17 33
M  V30 35 1 18 34
M  V30 36 1 19 35
M  V30 END BOND
M  V30 END CTAB
M  END
