
     RDKit          3D

  0  0  0  0  0  0  0  0  0  0999 V3000
M  V30 BEGIN CTAB
M  V30 COUNTS 33 34 0 0 0
M  V30 BEGIN ATOM
M  V30 1 N 2.77035 2.57989 -0.41963 0
M  V30 2 C 2.30615 1.50383 0.401242 0
M  V30 3 C 1.14482 0.901557 -0.275462 0
M  V30 4 N 0.575293 -0.165234 0.591465 0
M  V30 5 C 1.58053 -1.21605 0.636474 0
M  V30 6 C 1.13063 -2.58065 0.323593 0
M  V30 7 N -0.148935 -2.9394 0.779471 0
M  V30 8 C -1.13896 -1.94191 0.719019 0
M  V30 9 C -0.636224 -0.688101 0.105953 0 CFG=1
M  V30 10 C -1.71694 0.161223 -0.359356 0
M  V30 11 C -2.47523 -0.0837202 -1.52059 0
M  V30 12 N -3.23464 0.972692 -1.76382 0
M  V30 13 N -3.00901 1.8784 -0.816839 0
M  V30 14 C -2.0942 1.41364 0.045423 0
M  V30 15 N -1.68701 2.07392 1.27235 0
M  V30 16 H 2.74167 3.48476 -0.0366994 0
M  V30 17 H 2.751 2.40092 -1.39174 0
M  V30 18 H 2.16925 1.8718 1.42039 0
M  V30 19 H 3.19796 0.789786 0.406466 0
M  V30 20 H 1.51269 0.437935 -1.23086 0
M  V30 21 H 0.440598 1.6504 -0.543741 0
M  V30 22 H 2.35993 -0.95689 -0.152646 0
M  V30 23 H 2.05671 -1.14065 1.60224 0
M  V30 24 H 1.29047 -2.85997 -0.756305 0
M  V30 25 H 1.86206 -3.28556 0.843517 0
M  V30 26 H -0.513626 -3.81215 0.350346 0
M  V30 27 H -2.10072 -2.21793 0.239456 0
M  V30 28 H -1.43097 -1.75919 1.80028 0
M  V30 29 H -0.223795 -1.16786 -0.947188 0
M  V30 30 H -2.42772 -0.960072 -2.14829 0
M  V30 31 H -3.92684 1.06325 -2.56775 0
M  V30 32 H -1.96089 3.04116 1.41726 0
M  V30 33 H -1.16439 1.55016 1.97596 0
M  V30 END ATOM
M  V30 BEGIN BOND
M  V30 1 1 1 2
M  V30 2 1 2 3
M  V30 3 1 3 4
M  V30 4 1 4 5
M  V30 5 1 5 6
M  V30 6 1 6 7
M  V30 7 1 7 8
M  V30 8 1 8 9
M  V30 9 1 9 10
M  V30 10 2 10 11
M  V30 11 1 11 12
M  V30 12 1 12 13
M  V30 13 2 13 14
M  V30 14 1 14 15
M  V30 15 1 9 4
M  V30 16 1 14 10
M  V30 17 1 1 16
M  V30 18 1 1 17
M  V30 19 1 2 18
M  V30 20 1 2 19
M  V30 21 1 3 20
M  V30 22 1 3 21
M  V30 23 1 5 22
M  V30 24 1 5 23
M  V30 25 1 6 24
M  V30 26 1 6 25
M  V30 27 1 7 26
M  V30 28 1 8 27
M  V30 29 1 8 28
M  V30 30 1 9 29 CFG=3
M  V30 31 1 11 30
M  V30 32 1 12 31
M  V30 33 1 15 32
M  V30 34 1 15 33
M  V30 END BOND
M  V30 END CTAB
M  END
