
     RDKit          3D

  0  0  0  0  0  0  0  0  0  0999 V3000
M  V30 BEGIN CTAB
M  V30 COUNTS 32 33 0 0 0
M  V30 BEGIN ATOM
M  V30 1 C -4.07172 -0.871285 -1.01365 0
M  V30 2 C -2.64729 -0.981393 -0.4423 0
M  V30 3 C -1.8959 0.191782 -0.938851 0
M  V30 4 C -0.491809 0.306935 -0.517059 0
M  V30 5 N 0.578931 -0.0375242 -1.23646 0
M  V30 6 C 1.7258 0.196272 -0.512336 0
M  V30 7 N 1.34119 0.689479 0.661414 0
M  V30 8 C -0.0196981 0.766429 0.680805 0
M  V30 9 N -0.716728 1.26777 1.80396 0
M  V30 10 N 2.17494 1.08635 1.74449 0
M  V30 11 C 3.10192 -0.0833276 -1.02006 0
M  V30 12 C 4.11508 -0.560008 -0.03414 0
M  V30 13 C 4.18512 0.816586 -0.623454 0
M  V30 14 C -2.7707 -1.16115 1.02228 0
M  V30 15 H -4.05344 -0.759886 -2.11724 0
M  V30 16 H -4.65375 -1.78659 -0.801365 0
M  V30 17 H -4.57862 0.0258268 -0.607213 0
M  V30 18 H -2.25453 -1.95443 -0.864182 0
M  V30 19 H -2.43934 1.15507 -0.718693 0
M  V30 20 H -1.93377 0.134988 -2.06803 0
M  V30 21 H -0.788622 0.676304 2.64725 0
M  V30 22 H -1.14668 2.20593 1.78489 0
M  V30 23 H 2.41882 0.403892 2.49149 0
M  V30 24 H 2.54014 2.04247 1.81663 0
M  V30 25 H 3.10622 -0.525017 -2.05469 0
M  V30 26 H 3.84999 -0.723417 1.00939 0
M  V30 27 H 4.84366 -1.33478 -0.404528 0
M  V30 28 H 5.0828 0.980759 -1.2709 0
M  V30 29 H 4.01898 1.67686 0.0413043 0
M  V30 30 H -1.85458 -1.51219 1.53859 0
M  V30 31 H -3.49153 -2.02792 1.17309 0
M  V30 32 H -3.27489 -0.304795 1.4974 0
M  V30 END ATOM
M  V30 BEGIN BOND
M  V30 1 1 1 2
M  V30 2 1 2 3
M  V30 3 1 3 4
M  V30 4 1 4 5
M  V30 5 2 5 6
M  V30 6 1 6 7
M  V30 7 1 7 8
M  V30 8 1 8 9
M  V30 9 1 7 10
M  V30 10 1 6 11
M  V30 11 1 11 12
M  V30 12 1 12 13
M  V30 13 1 2 14
M  V30 14 2 8 4
M  V30 15 1 13 11
M  V30 16 1 1 15
M  V30 17 1 1 16
M  V30 18 1 1 17
M  V30 19 1 2 18
M  V30 20 1 3 19
M  V30 21 1 3 20
M  V30 22 1 9 21
M  V30 23 1 9 22
M  V30 24 1 10 23
M  V30 25 1 10 24
M  V30 26 1 11 25
M  V30 27 1 12 26
M  V30 28 1 12 27
M  V30 29 1 13 28
M  V30 30 1 13 29
M  V30 31 1 14 30
M  V30 32 1 14 31
M  V30 33 1 14 32
M  V30 END BOND
M  V30 END CTAB
M  END
