
     RDKit          3D

  0  0  0  0  0  0  0  0  0  0999 V3000
M  V30 BEGIN CTAB
M  V30 COUNTS 36 38 0 0 0
M  V30 BEGIN ATOM
M  V30 1 O 6.94933 0.304641 0.182311 0 CHG=-1
M  V30 2 N 5.7281 0.862904 0.44933 0 CHG=1
M  V30 3 O 5.52944 1.74561 1.31679 0
M  V30 4 C 4.61391 0.403066 -0.318658 0
M  V30 5 C 4.80528 -0.00395158 -1.61379 0
M  V30 6 C 3.71699 -0.439707 -2.34412 0
M  V30 7 C 2.44638 -0.460507 -1.76122 0
M  V30 8 C 2.27238 -0.0499054 -0.463915 0
M  V30 9 C 3.35795 0.382658 0.259571 0
M  V30 10 N 3.21421 0.804649 1.59605 0
M  V30 11 C 0.920725 -0.0687506 0.127916 0
M  V30 12 O 0.621677 0.281963 1.35201 0
M  V30 13 N -0.657184 0.14981 1.55691 0
M  V30 14 C -1.22837 -0.303059 0.434469 0
M  V30 15 N -0.224135 -0.431835 -0.442654 0
M  V30 16 C -2.64723 -0.597733 0.168788 0
M  V30 17 N -2.89196 -1.99489 -0.0470485 0
M  V30 18 C -3.16433 0.237667 -1.00513 0
M  V30 19 C -4.39462 0.965721 -0.509242 0
M  V30 20 C -4.84398 0.0400095 0.611793 0
M  V30 21 C -3.52285 -0.156017 1.34908 0
M  V30 22 H 5.79256 0.0219065 -2.04327 0
M  V30 23 H 3.80769 -0.77464 -3.37733 0
M  V30 24 H 1.60979 -0.807651 -2.36101 0
M  V30 25 H 2.98064 1.76728 1.89502 0
M  V30 26 H 3.35908 0.0668246 2.32538 0
M  V30 27 H -2.03788 -2.57334 0.123156 0
M  V30 28 H -3.63613 -2.40091 0.569633 0
M  V30 29 H -3.42794 -0.447971 -1.83 0
M  V30 30 H -2.35022 0.946582 -1.2633 0
M  V30 31 H -4.10692 1.9261 0.00120509 0
M  V30 32 H -5.15767 1.10386 -1.27243 0
M  V30 33 H -5.1214 -0.91798 0.165473 0
M  V30 34 H -5.62144 0.505598 1.24197 0
M  V30 35 H -3.56992 -0.911925 2.1297 0
M  V30 36 H -3.12197 0.823918 1.68185 0
M  V30 END ATOM
M  V30 BEGIN BOND
M  V30 1 1 1 2
M  V30 2 2 2 3
M  V30 3 1 2 4
M  V30 4 2 4 5
M  V30 5 1 5 6
M  V30 6 2 6 7
M  V30 7 1 7 8
M  V30 8 2 8 9
M  V30 9 1 9 10
M  V30 10 1 8 11
M  V30 11 1 11 12
M  V30 12 1 12 13
M  V30 13 2 13 14
M  V30 14 1 14 15
M  V30 15 1 14 16
M  V30 16 1 16 17
M  V30 17 1 16 18
M  V30 18 1 18 19
M  V30 19 1 19 20
M  V30 20 1 20 21
M  V30 21 1 9 4
M  V30 22 2 15 11
M  V30 23 1 21 16
M  V30 24 1 5 22
M  V30 25 1 6 23
M  V30 26 1 7 24
M  V30 27 1 10 25
M  V30 28 1 10 26
M  V30 29 1 17 27
M  V30 30 1 17 28
M  V30 31 1 18 29
M  V30 32 1 18 30
M  V30 33 1 19 31
M  V30 34 1 19 32
M  V30 35 1 20 33
M  V30 36 1 20 34
M  V30 37 1 21 35
M  V30 38 1 21 36
M  V30 END BOND
M  V30 END CTAB
M  END
