
     RDKit          3D

  0  0  0  0  0  0  0  0  0  0999 V3000
M  V30 BEGIN CTAB
M  V30 COUNTS 27 29 0 0 0
M  V30 BEGIN ATOM
M  V30 1 N -2.42348 2.19819 0.173821 0
M  V30 2 C -2.41642 0.775681 0.162398 0
M  V30 3 C -3.60634 0.0819375 0.234887 0
M  V30 4 C -3.57016 -1.30034 0.221877 0
M  V30 5 C -2.34048 -1.93901 0.136525 0
M  V30 6 C -1.16174 -1.2164 0.0649901 0
M  V30 7 C 0.0746095 -1.82207 -0.0205426 0
M  V30 8 C 1.22305 -1.05638 -0.0897627 0
M  V30 9 C 2.47122 -1.63936 -0.175889 0
M  V30 10 C 3.62409 -0.890329 -0.245525 0
M  V30 11 C 3.57585 0.488021 -0.231754 0
M  V30 12 C 2.3371 1.09013 -0.146099 0
M  V30 13 N 2.27431 2.51125 -0.131052 0
M  V30 14 C 1.18191 0.324113 -0.0764413 0
M  V30 15 N -0.0323543 0.895729 0.00738324 0
M  V30 16 C -1.17948 0.163024 0.0767732 0
M  V30 17 H -2.58217 2.68694 -0.72911 0
M  V30 18 H -2.27925 2.76361 1.03167 0
M  V30 19 H -4.5735 0.597777 0.302119 0
M  V30 20 H -4.47413 -1.85468 0.276741 0
M  V30 21 H -2.25666 -3.00317 0.122847 0
M  V30 22 H 0.11748 -2.91188 -0.0317416 0
M  V30 23 H 2.48488 -2.7323 -0.185199 0
M  V30 24 H 4.59568 -1.36496 -0.312728 0
M  V30 25 H 4.48519 1.09321 -0.286569 0
M  V30 26 H 1.81894 2.94171 0.726313 0
M  V30 27 H 2.63187 3.11954 -0.875933 0
M  V30 END ATOM
M  V30 BEGIN BOND
M  V30 1 1 1 2
M  V30 2 2 2 3
M  V30 3 1 3 4
M  V30 4 2 4 5
M  V30 5 1 5 6
M  V30 6 2 6 7
M  V30 7 1 7 8
M  V30 8 2 8 9
M  V30 9 1 9 10
M  V30 10 2 10 11
M  V30 11 1 11 12
M  V30 12 1 12 13
M  V30 13 2 12 14
M  V30 14 1 14 15
M  V30 15 2 15 16
M  V30 16 1 16 2
M  V30 17 1 16 6
M  V30 18 1 14 8
M  V30 19 1 1 17
M  V30 20 1 1 18
M  V30 21 1 3 19
M  V30 22 1 4 20
M  V30 23 1 5 21
M  V30 24 1 7 22
M  V30 25 1 9 23
M  V30 26 1 10 24
M  V30 27 1 11 25
M  V30 28 1 13 26
M  V30 29 1 13 27
M  V30 END BOND
M  V30 END CTAB
M  END
