
     RDKit          3D

  0  0  0  0  0  0  0  0  0  0999 V3000
M  V30 BEGIN CTAB
M  V30 COUNTS 19 20 0 0 0
M  V30 BEGIN ATOM
M  V30 1 N 4.20531 -0.653047 0.0061618 0
M  V30 2 C 2.92113 -0.0657584 -0.108113 0
M  V30 3 N 2.57019 1.18521 -0.455757 0
M  V30 4 O 1.25473 1.28463 -0.427102 0
M  V30 5 C 0.726333 0.15145 -0.0751937 0
M  V30 6 N 1.73874 -0.695098 0.126186 0
M  V30 7 C -0.69683 -0.192389 0.086782 0
M  V30 8 N -1.09124 -1.41241 0.458004 0
M  V30 9 C -2.40983 -1.71117 0.602316 0
M  V30 10 C -3.38812 -0.752491 0.366915 0
M  V30 11 N -2.98809 0.476108 -0.00704064 0
M  V30 12 C -1.67103 0.755683 -0.145719 0
M  V30 13 N -1.24383 2.04399 -0.538146 0
M  V30 14 H 5.0153 -0.0683968 0.3052 0
M  V30 15 H 4.3822 -1.65984 -0.198125 0
M  V30 16 H -2.73301 -2.69958 0.903232 0
M  V30 17 H -4.42356 -1.03106 0.492984 0
M  V30 18 H -1.07308 2.80306 0.154966 0
M  V30 19 H -1.09533 2.24111 -1.54755 0
M  V30 END ATOM
M  V30 BEGIN BOND
M  V30 1 1 1 2
M  V30 2 2 2 3
M  V30 3 1 3 4
M  V30 4 1 4 5
M  V30 5 2 5 6
M  V30 6 1 5 7
M  V30 7 2 7 8
M  V30 8 1 8 9
M  V30 9 2 9 10
M  V30 10 1 10 11
M  V30 11 2 11 12
M  V30 12 1 12 13
M  V30 13 1 6 2
M  V30 14 1 12 7
M  V30 15 1 1 14
M  V30 16 1 1 15
M  V30 17 1 9 16
M  V30 18 1 10 17
M  V30 19 1 13 18
M  V30 20 1 13 19
M  V30 END BOND
M  V30 END CTAB
M  END
