
     RDKit          3D

  0  0  0  0  0  0  0  0  0  0999 V3000
M  V30 BEGIN CTAB
M  V30 COUNTS 31 33 0 0 0
M  V30 BEGIN ATOM
M  V30 1 N -4.29047 1.26241 -0.574617 0
M  V30 2 C -3.70545 1.15248 0.761336 0
M  V30 3 C -2.22909 0.930212 0.707723 0
M  V30 4 C -1.88381 -0.327322 -0.0168583 0
M  V30 5 C -2.69604 -1.2863 -0.572492 0
M  V30 6 N -1.90481 -2.25186 -1.12265 0
M  V30 7 C -0.627587 -1.90176 -0.914011 0
M  V30 8 C -0.554447 -0.709869 -0.228887 0
M  V30 9 C 0.654912 -0.127037 0.113949 0
M  V30 10 C 1.83998 -0.739771 -0.230636 0
M  V30 11 C 1.76775 -1.93182 -0.916211 0
M  V30 12 C 0.56289 -2.51832 -1.26085 0
M  V30 13 C 3.14156 -0.135308 0.125321 0
M  V30 14 N 3.27505 1.01151 0.783641 0
M  V30 15 C 4.60433 1.2348 0.921598 0
M  V30 16 N 5.20605 2.35882 1.57112 0
M  V30 17 N 5.21017 0.200169 0.332899 0
M  V30 18 O 4.32829 -0.600369 -0.13252 0
M  V30 19 H -4.38413 2.25698 -0.873368 0
M  V30 20 H -5.25709 0.864345 -0.531006 0
M  V30 21 H -3.87905 2.11509 1.29721 0
M  V30 22 H -4.18146 0.324997 1.33906 0
M  V30 23 H -1.74406 1.82096 0.238417 0
M  V30 24 H -1.88301 0.869887 1.78181 0
M  V30 25 H -3.78174 -1.26305 -0.563499 0
M  V30 26 H -2.29645 -3.09059 -1.60667 0
M  V30 27 H 0.67987 0.806885 0.650706 0
M  V30 28 H 2.70593 -2.40784 -1.18452 0
M  V30 29 H 0.495071 -3.45334 -1.7989 0
M  V30 30 H 4.69591 3.25288 1.58949 0
M  V30 31 H 6.13095 2.28214 2.01351 0
M  V30 END ATOM
M  V30 BEGIN BOND
M  V30 1 1 1 2
M  V30 2 1 2 3
M  V30 3 1 3 4
M  V30 4 2 4 5
M  V30 5 1 5 6
M  V30 6 1 6 7
M  V30 7 2 7 8
M  V30 8 1 8 9
M  V30 9 2 9 10
M  V30 10 1 10 11
M  V30 11 2 11 12
M  V30 12 1 10 13
M  V30 13 2 13 14
M  V30 14 1 14 15
M  V30 15 1 15 16
M  V30 16 2 15 17
M  V30 17 1 17 18
M  V30 18 1 8 4
M  V30 19 1 18 13
M  V30 20 1 12 7
M  V30 21 1 1 19
M  V30 22 1 1 20
M  V30 23 1 2 21
M  V30 24 1 2 22
M  V30 25 1 3 23
M  V30 26 1 3 24
M  V30 27 1 5 25
M  V30 28 1 6 26
M  V30 29 1 9 27
M  V30 30 1 11 28
M  V30 31 1 12 29
M  V30 32 1 16 30
M  V30 33 1 16 31
M  V30 END BOND
M  V30 END CTAB
M  END
