
     RDKit          3D

  0  0  0  0  0  0  0  0  0  0999 V3000
M  V30 BEGIN CTAB
M  V30 COUNTS 67 69 0 0 0
M  V30 BEGIN ATOM
M  V30 1 C -6.5266 2.42371 -0.344841 0
M  V30 2 C -6.59152 1.22612 -1.28097 0
M  V30 3 C -5.2396 0.918572 -1.77215 0
M  V30 4 C -4.13366 0.634436 -0.846737 0
M  V30 5 N -4.04917 -0.377663 0.0281998 0
M  V30 6 C -4.61813 -0.696785 1.22701 0
M  V30 7 C -6.04154 -1.08927 1.4039 0
M  V30 8 C -6.42071 -2.30461 0.577446 0
M  V30 9 C -7.89432 -2.58503 0.854833 0
M  V30 10 C -3.2342 -1.48092 -0.49267 0
M  V30 11 C -1.78847 -1.1779 -0.613329 0
M  V30 12 C -1.16611 -0.793888 0.731995 0
M  V30 13 N 0.226835 -0.536702 0.537138 0
M  V30 14 C 1.07743 -0.157214 1.59553 0
M  V30 15 O 0.589126 -0.0385454 2.74474 0
M  V30 16 C 2.49284 0.0932192 1.37643 0
M  V30 17 N 3.03275 -0.0399568 0.150485 0
M  V30 18 C 4.35116 0.182031 -0.0659698 0
M  V30 19 C 5.1389 0.552947 1.00496 0
M  V30 20 N 4.63387 0.698816 2.25234 0
M  V30 21 C 3.32007 0.467902 2.42455 0
M  V30 22 N 2.68671 0.596808 3.69123 0
M  V30 23 N 6.45217 0.765921 0.757159 0
M  V30 24 C 7.02939 0.641805 -0.44434 0
M  V30 25 N 6.24461 0.279938 -1.47507 0
M  V30 26 C 4.9229 0.048519 -1.31094 0
M  V30 27 N 4.12259 -0.332323 -2.41531 0
M  V30 28 C 8.45715 0.882034 -0.657399 0
M  V30 29 C 9.28391 1.24746 0.380001 0
M  V30 30 C 10.65 1.48058 0.187149 0
M  V30 31 C 11.1997 1.3436 -1.0756 0
M  V30 32 C 10.3645 0.976989 -2.11397 0
M  V30 33 C 9.01895 0.752826 -1.89641 0
M  V30 34 H -6.32843 3.30482 -0.980553 0
M  V30 35 H -5.76413 2.26285 0.432217 0
M  V30 36 H -7.54067 2.53035 0.124196 0
M  V30 37 H -7.25333 1.54538 -2.17113 0
M  V30 38 H -7.16819 0.43857 -0.81304 0
M  V30 39 H -5.31906 0.0559988 -2.51736 0
M  V30 40 H -4.9609 1.77803 -2.48847 0
M  V30 41 H -3.92962 1.66047 -0.303357 0
M  V30 42 H -3.20451 0.565871 -1.5622 0
M  V30 43 H -4.02401 -1.56783 1.705 0
M  V30 44 H -4.44388 0.158036 1.9853 0
M  V30 45 H -6.10552 -1.48496 2.48604 0
M  V30 46 H -6.74883 -0.270334 1.37946 0
M  V30 47 H -5.81232 -3.17728 0.861065 0
M  V30 48 H -6.2662 -2.07496 -0.488476 0
M  V30 49 H -8.03917 -2.50329 1.96114 0
M  V30 50 H -8.49245 -1.79599 0.369954 0
M  V30 51 H -8.20068 -3.58719 0.492409 0
M  V30 52 H -3.32452 -2.35463 0.207226 0
M  V30 53 H -3.62309 -1.81359 -1.46672 0
M  V30 54 H -1.25296 -2.11016 -0.956443 0
M  V30 55 H -1.49151 -0.404193 -1.31489 0
M  V30 56 H -1.32625 -1.6034 1.45229 0
M  V30 57 H -1.69482 0.142969 1.03202 0
M  V30 58 H 0.634203 -0.63078 -0.416782 0
M  V30 59 H 2.69996 -0.135723 4.42332 0
M  V30 60 H 2.17757 1.48138 3.89441 0
M  V30 61 H 3.95691 -1.35172 -2.64365 0
M  V30 62 H 3.65637 0.342893 -3.05871 0
M  V30 63 H 8.84305 1.35098 1.35896 0
M  V30 64 H 11.2949 1.7732 1.01362 0
M  V30 65 H 12.2543 1.52758 -1.19514 0
M  V30 66 H 10.8323 0.878875 -3.08886 0
M  V30 67 H 8.37389 0.464379 -2.72238 0
M  V30 END ATOM
M  V30 BEGIN BOND
M  V30 1 1 1 2
M  V30 2 1 2 3
M  V30 3 1 3 4
M  V30 4 1 4 5
M  V30 5 1 5 6
M  V30 6 1 6 7
M  V30 7 1 7 8
M  V30 8 1 8 9
M  V30 9 1 5 10
M  V30 10 1 10 11
M  V30 11 1 11 12
M  V30 12 1 12 13
M  V30 13 1 13 14
M  V30 14 2 14 15
M  V30 15 1 14 16
M  V30 16 2 16 17
M  V30 17 1 17 18
M  V30 18 2 18 19
M  V30 19 1 19 20
M  V30 20 2 20 21
M  V30 21 1 21 22
M  V30 22 1 19 23
M  V30 23 2 23 24
M  V30 24 1 24 25
M  V30 25 2 25 26
M  V30 26 1 26 27
M  V30 27 1 24 28
M  V30 28 2 28 29
M  V30 29 1 29 30
M  V30 30 2 30 31
M  V30 31 1 31 32
M  V30 32 2 32 33
M  V30 33 1 21 16
M  V30 34 1 33 28
M  V30 35 1 26 18
M  V30 36 1 1 34
M  V30 37 1 1 35
M  V30 38 1 1 36
M  V30 39 1 2 37
M  V30 40 1 2 38
M  V30 41 1 3 39
M  V30 42 1 3 40
M  V30 43 1 4 41
M  V30 44 1 4 42
M  V30 45 1 6 43
M  V30 46 1 6 44
M  V30 47 1 7 45
M  V30 48 1 7 46
M  V30 49 1 8 47
M  V30 50 1 8 48
M  V30 51 1 9 49
M  V30 52 1 9 50
M  V30 53 1 9 51
M  V30 54 1 10 52
M  V30 55 1 10 53
M  V30 56 1 11 54
M  V30 57 1 11 55
M  V30 58 1 12 56
M  V30 59 1 12 57
M  V30 60 1 13 58
M  V30 61 1 22 59
M  V30 62 1 22 60
M  V30 63 1 27 61
M  V30 64 1 27 62
M  V30 65 1 29 63
M  V30 66 1 30 64
M  V30 67 1 31 65
M  V30 68 1 32 66
M  V30 69 1 33 67
M  V30 END BOND
M  V30 END CTAB
M  END
