
     RDKit          3D

  0  0  0  0  0  0  0  0  0  0999 V3000
M  V30 BEGIN CTAB
M  V30 COUNTS 33 34 0 0 0
M  V30 BEGIN ATOM
M  V30 1 C 6.08324 0.0406564 -0.884494 0
M  V30 2 O 5.26097 0.259001 0.212237 0
M  V30 3 C 3.87763 0.389282 0.15308 0
M  V30 4 C 3.15323 0.60507 1.30753 0
M  V30 5 C 1.77202 0.74179 1.30182 0
M  V30 6 C 1.07302 0.661698 0.0996893 0
M  V30 7 C 1.7843 0.446196 -1.06297 0
M  V30 8 C 3.15719 0.314837 -1.02082 0
M  V30 9 N -0.323634 0.808458 0.162113 0
M  V30 10 C -1.16044 -0.150514 -0.0325637 0
M  V30 11 N -0.730202 -1.47998 -0.336486 0
M  V30 12 C -2.59268 0.0894891 0.0512879 0
M  V30 13 C -3.03332 1.36352 0.34315 0
M  V30 14 C -4.36923 1.69793 0.445881 0
M  V30 15 C -5.27937 0.676561 0.238945 0
M  V30 16 C -4.85036 -0.611264 -0.0557293 0
M  V30 17 C -3.51539 -0.912045 -0.150985 0
M  V30 18 N -3.09212 -2.23889 -0.454191 0
M  V30 19 H 7.07141 -0.30621 -0.567949 0
M  V30 20 H 5.58974 -0.625511 -1.62239 0
M  V30 21 H 6.20058 1.02839 -1.41825 0
M  V30 22 H 3.72033 0.664512 2.23835 0
M  V30 23 H 1.23354 0.910441 2.22636 0
M  V30 24 H 1.20632 0.390058 -1.97596 0
M  V30 25 H 3.68177 0.146712 -1.95216 0
M  V30 26 H -0.521926 -1.68494 -1.33717 0
M  V30 27 H -0.619442 -2.22924 0.37732 0
M  V30 28 H -2.2927 2.15873 0.50357 0
M  V30 29 H -4.66945 2.71033 0.676757 0
M  V30 30 H -6.34033 0.915987 0.314725 0
M  V30 31 H -5.58596 -1.40447 -0.215822 0
M  V30 32 H -2.88284 -2.43498 -1.45804 0
M  V30 33 H -3.00589 -2.94159 0.28668 0
M  V30 END ATOM
M  V30 BEGIN BOND
M  V30 1 1 1 2
M  V30 2 1 2 3
M  V30 3 2 3 4
M  V30 4 1 4 5
M  V30 5 2 5 6
M  V30 6 1 6 7
M  V30 7 2 7 8
M  V30 8 1 6 9
M  V30 9 2 9 10 CFG=2
M  V30 10 1 10 11
M  V30 11 1 10 12
M  V30 12 2 12 13
M  V30 13 1 13 14
M  V30 14 2 14 15
M  V30 15 1 15 16
M  V30 16 2 16 17
M  V30 17 1 17 18
M  V30 18 1 8 3
M  V30 19 1 17 12
M  V30 20 1 1 19
M  V30 21 1 1 20
M  V30 22 1 1 21
M  V30 23 1 4 22
M  V30 24 1 5 23
M  V30 25 1 7 24
M  V30 26 1 8 25
M  V30 27 1 11 26
M  V30 28 1 11 27
M  V30 29 1 13 28
M  V30 30 1 14 29
M  V30 31 1 15 30
M  V30 32 1 16 31
M  V30 33 1 18 32
M  V30 34 1 18 33
M  V30 END BOND
M  V30 END CTAB
M  END
