
     RDKit          3D

  0  0  0  0  0  0  0  0  0  0999 V3000
M  V30 BEGIN CTAB
M  V30 COUNTS 55 57 0 0 0
M  V30 BEGIN ATOM
M  V30 1 O 1.35357 0.474406 0.466181 0
M  V30 2 C 1.53469 0.813639 -0.716975 0
M  V30 3 C 0.37356 0.99517 -1.66199 0
M  V30 4 S -1.13293 0.673415 -0.749561 0
M  V30 5 C -1.21216 -1.04562 -0.287053 0
M  V30 6 N -0.229972 -1.93216 -0.625843 0
M  V30 7 C -0.284252 -3.23053 -0.281745 0
M  V30 8 O 0.647111 -4.03726 -0.611121 0
M  V30 9 C -1.38229 -3.64982 0.437437 0
M  V30 10 C -2.37715 -2.72634 0.774594 0
M  V30 11 N -2.2902 -1.43804 0.41479 0
M  V30 12 C -3.31301 -0.525059 0.777877 0
M  V30 13 C -4.43003 -0.397189 -0.235568 0
M  V30 14 C -5.45541 0.579888 0.218594 0
M  V30 15 C -5.33453 1.92284 -0.120959 0
M  V30 16 C -6.26366 2.86494 0.281722 0
M  V30 17 C -7.34192 2.47978 1.03862 0
M  V30 18 C -7.48764 1.17095 1.38716 0
M  V30 19 C -6.55512 0.24169 0.979867 0
M  V30 20 N -3.4956 -3.14997 1.50551 0
M  V30 21 C 0.52821 0.0903562 -2.86659 0
M  V30 22 N 2.82904 1.04261 -1.22142 0
M  V30 23 C 4.05997 0.934728 -0.531645 0
M  V30 24 C 5.18332 1.51253 -1.15523 0
M  V30 25 C 6.4242 1.44661 -0.562466 0
M  V30 26 C 6.58443 0.817664 0.643344 0
M  V30 27 C 5.47592 0.244514 1.26354 0
M  V30 28 C 4.23466 0.309698 0.671296 0
M  V30 29 S 8.14033 0.71833 1.42741 0
M  V30 30 O 7.98557 0.727478 2.93364 0
M  V30 31 O 8.92083 1.94796 0.994952 0
M  V30 32 N 8.95063 -0.709887 0.902192 0
M  V30 33 H 0.345527 2.04464 -2.01579 0
M  V30 34 H -1.44059 -4.68786 0.720946 0
M  V30 35 H -2.91101 0.509941 0.923204 0
M  V30 36 H -3.81442 -0.772529 1.7568 0
M  V30 37 H -4.95193 -1.39681 -0.236868 0
M  V30 38 H -3.99825 -0.157417 -1.21333 0
M  V30 39 H -4.50863 2.2398 -0.705161 0
M  V30 40 H -6.17381 3.89955 0.0221161 0
M  V30 41 H -8.10274 3.18312 1.38165 0
M  V30 42 H -8.32631 0.81227 1.98734 0
M  V30 43 H -6.66001 -0.799135 1.24961 0
M  V30 44 H -4.24154 -3.68053 0.987743 0
M  V30 45 H -3.65911 -2.98898 2.5165 0
M  V30 46 H 0.765708 0.668315 -3.78513 0
M  V30 47 H 1.29154 -0.693344 -2.7211 0
M  V30 48 H -0.446135 -0.426267 -3.08705 0
M  V30 49 H 2.87751 1.32817 -2.26537 0
M  V30 50 H 5.03936 1.99797 -2.09052 0
M  V30 51 H 7.28715 1.89704 -1.05203 0
M  V30 52 H 5.65019 -0.238764 2.21166 0
M  V30 53 H 3.42891 -0.149726 1.17935 0
M  V30 54 H 9.63896 -0.420814 0.155352 0
M  V30 55 H 8.26945 -1.33597 0.449381 0
M  V30 END ATOM
M  V30 BEGIN BOND
M  V30 1 2 1 2
M  V30 2 1 2 3
M  V30 3 1 3 4
M  V30 4 1 4 5
M  V30 5 2 5 6
M  V30 6 1 6 7
M  V30 7 2 7 8
M  V30 8 1 7 9
M  V30 9 2 9 10
M  V30 10 1 10 11
M  V30 11 1 11 12
M  V30 12 1 12 13
M  V30 13 1 13 14
M  V30 14 2 14 15
M  V30 15 1 15 16
M  V30 16 2 16 17
M  V30 17 1 17 18
M  V30 18 2 18 19
M  V30 19 1 10 20
M  V30 20 1 3 21
M  V30 21 1 2 22
M  V30 22 1 22 23
M  V30 23 2 23 24
M  V30 24 1 24 25
M  V30 25 2 25 26
M  V30 26 1 26 27
M  V30 27 2 27 28
M  V30 28 1 26 29
M  V30 29 2 29 30
M  V30 30 2 29 31
M  V30 31 1 29 32
M  V30 32 1 11 5
M  V30 33 1 19 14
M  V30 34 1 28 23
M  V30 35 1 3 33
M  V30 36 1 9 34
M  V30 37 1 12 35
M  V30 38 1 12 36
M  V30 39 1 13 37
M  V30 40 1 13 38
M  V30 41 1 15 39
M  V30 42 1 16 40
M  V30 43 1 17 41
M  V30 44 1 18 42
M  V30 45 1 19 43
M  V30 46 1 20 44
M  V30 47 1 20 45
M  V30 48 1 21 46
M  V30 49 1 21 47
M  V30 50 1 21 48
M  V30 51 1 22 49
M  V30 52 1 24 50
M  V30 53 1 25 51
M  V30 54 1 27 52
M  V30 55 1 28 53
M  V30 56 1 32 54
M  V30 57 1 32 55
M  V30 END BOND
M  V30 END CTAB
M  END
