
     RDKit          3D

  0  0  0  0  0  0  0  0  0  0999 V3000
M  V30 BEGIN CTAB
M  V30 COUNTS 22 21 0 0 0
M  V30 BEGIN ATOM
M  V30 1 O 1.32361 1.39713 2.15384 0
M  V30 2 N 0.626548 0.699074 1.22386 0
M  V30 3 C 1.13037 -0.0286365 0.303595 0
M  V30 4 C 0.227933 -0.724104 -0.631252 0
M  V30 5 C -1.22843 -0.445289 -0.329613 0
M  V30 6 C -1.63419 -0.877316 1.04094 0
M  V30 7 C -1.56297 1.02584 -0.545345 0
M  V30 8 N 0.606524 -0.409118 -1.96388 0
M  V30 9 N 2.52805 -0.159091 0.190956 0
M  V30 10 H 2.30598 1.56246 1.98062 0
M  V30 11 H 0.343296 -1.84202 -0.509681 0
M  V30 12 H -1.85901 -1.00523 -1.05166 0
M  V30 13 H -1.90103 0.0273762 1.63446 0
M  V30 14 H -2.51325 -1.56428 1.03136 0
M  V30 15 H -0.84191 -1.40303 1.60498 0
M  V30 16 H -0.797414 1.54019 -1.14009 0
M  V30 17 H -1.6948 1.53608 0.429513 0
M  V30 18 H -2.55542 1.13955 -1.06827 0
M  V30 19 H -0.145456 -0.109101 -2.59106 0
M  V30 20 H 1.50661 0.0667998 -2.07845 0
M  V30 21 H 3.03677 0.135339 -0.67126 0
M  V30 22 H 3.0982 -0.562613 0.986432 0
M  V30 END ATOM
M  V30 BEGIN BOND
M  V30 1 1 1 2
M  V30 2 2 2 3 CFG=2
M  V30 3 1 3 4
M  V30 4 1 4 5
M  V30 5 1 5 6
M  V30 6 1 5 7
M  V30 7 1 4 8
M  V30 8 1 3 9
M  V30 9 1 1 10
M  V30 10 1 4 11
M  V30 11 1 5 12
M  V30 12 1 6 13
M  V30 13 1 6 14
M  V30 14 1 6 15
M  V30 15 1 7 16
M  V30 16 1 7 17
M  V30 17 1 7 18
M  V30 18 1 8 19
M  V30 19 1 8 20
M  V30 20 1 9 21
M  V30 21 1 9 22
M  V30 END BOND
M  V30 END CTAB
M  END
