
     RDKit          3D

  0  0  0  0  0  0  0  0  0  0999 V3000
M  V30 BEGIN CTAB
M  V30 COUNTS 62 65 0 0 0
M  V30 BEGIN ATOM
M  V30 1 C -6.55448 3.89037 3.23172 0
M  V30 2 C -6.87931 2.81945 2.25728 0
M  V30 3 N -8.19153 2.68743 1.91314 0
M  V30 4 C -8.58121 1.75717 1.04803 0
M  V30 5 C -7.63232 0.922792 0.500794 0
M  V30 6 C -6.2921 1.00784 0.809666 0
M  V30 7 C -5.9218 1.98852 1.71452 0
M  V30 8 C -5.27049 0.135065 0.243593 0
M  V30 9 C -5.37392 -0.375522 -1.02676 0
M  V30 10 C -4.39435 -1.21552 -1.57945 0
M  V30 11 C -3.27164 -1.58014 -0.886664 0
M  V30 12 C -2.17912 -2.44759 -1.36147 0
M  V30 13 O -0.96913 -1.66485 -1.40461 0
M  V30 14 C 0.234982 -2.13964 -0.910069 0
M  V30 15 C 1.33974 -1.2878 -0.978339 0
M  V30 16 C 2.53866 -1.74315 -0.495196 0
M  V30 17 N 2.64365 -2.99318 0.0358531 0
M  V30 18 C 1.58779 -3.80842 0.101618 0
M  V30 19 N 1.72553 -5.11896 0.66526 0
M  V30 20 N 0.429194 -3.34513 -0.374684 0
M  V30 21 C 3.70458 -0.879786 -0.553817 0
M  V30 22 C 4.91944 -1.34873 -0.0696001 0
M  V30 23 C 6.04744 -0.584376 -0.0972114 0
M  V30 24 C 6.02807 0.695297 -0.610968 0
M  V30 25 C 7.26982 1.48242 -0.624046 0
M  V30 26 C 7.48806 2.2912 0.63232 0 CFG=2
M  V30 27 N 7.55518 1.41049 1.80018 0
M  V30 28 C 6.42674 3.2718 0.865021 0
M  V30 29 O 6.17975 4.24614 -0.0811667 0
M  V30 30 O 5.71513 3.25777 1.92231 0
M  V30 31 C 4.83534 1.17552 -1.09428 0
M  V30 32 C 3.68828 0.383329 -1.06019 0
M  V30 33 C -2.47211 -3.00778 -2.72382 0
M  V30 34 F -3.62338 -3.74089 -2.67337 0
M  V30 35 F -1.47308 -3.9334 -3.08581 0
M  V30 36 F -2.5082 -1.98864 -3.64145 0
M  V30 37 C -3.18204 -1.04689 0.415608 0
M  V30 38 F -2.07014 -1.39383 1.13713 0
M  V30 39 C -4.14563 -0.226705 0.945638 0
M  V30 40 H -7.12356 4.81118 2.92589 0
M  V30 41 H -5.47434 4.14036 3.23463 0
M  V30 42 H -6.92517 3.61765 4.23964 0
M  V30 43 H -9.60906 1.59589 0.728945 0
M  V30 44 H -7.91085 0.148777 -0.211114 0
M  V30 45 H -4.90155 2.14551 2.02858 0
M  V30 46 H -6.24761 -0.11093 -1.60825 0
M  V30 47 H -4.56102 -1.56551 -2.57899 0
M  V30 48 H -1.93783 -3.26932 -0.639627 0
M  V30 49 H 1.16997 -0.309391 -1.41572 0
M  V30 50 H 0.940859 -5.45829 1.25716 0
M  V30 51 H 2.54827 -5.71015 0.505979 0
M  V30 52 H 4.9466 -2.35456 0.337088 0
M  V30 53 H 6.95465 -1.03058 0.302582 0
M  V30 54 H 7.21526 2.23101 -1.46624 0
M  V30 55 H 8.10725 0.813038 -0.816711 0
M  V30 56 H 8.44377 2.82452 0.549393 0
M  V30 57 H 6.58404 1.05439 1.95883 0
M  V30 58 H 8.19812 0.613678 1.60732 0
M  V30 59 H 6.70416 5.10533 -0.0111754 0
M  V30 60 H 4.75894 2.17661 -1.51261 0
M  V30 61 H 2.78621 0.817611 -1.45365 0
M  V30 62 H -4.03852 0.161534 1.94971 0
M  V30 END ATOM
M  V30 BEGIN BOND
M  V30 1 1 1 2
M  V30 2 2 2 3
M  V30 3 1 3 4
M  V30 4 2 4 5
M  V30 5 1 5 6
M  V30 6 2 6 7
M  V30 7 1 6 8
M  V30 8 2 8 9
M  V30 9 1 9 10
M  V30 10 2 10 11
M  V30 11 1 11 12
M  V30 12 1 12 13
M  V30 13 1 13 14
M  V30 14 2 14 15
M  V30 15 1 15 16
M  V30 16 2 16 17
M  V30 17 1 17 18
M  V30 18 1 18 19
M  V30 19 2 18 20
M  V30 20 1 16 21
M  V30 21 2 21 22
M  V30 22 1 22 23
M  V30 23 2 23 24
M  V30 24 1 24 25
M  V30 25 1 25 26
M  V30 26 1 26 27
M  V30 27 1 26 28
M  V30 28 1 28 29
M  V30 29 2 28 30
M  V30 30 1 24 31
M  V30 31 2 31 32
M  V30 32 1 12 33
M  V30 33 1 33 34
M  V30 34 1 33 35
M  V30 35 1 33 36
M  V30 36 1 11 37
M  V30 37 1 37 38
M  V30 38 2 37 39
M  V30 39 1 7 2
M  V30 40 1 39 8
M  V30 41 1 20 14
M  V30 42 1 32 21
M  V30 43 1 1 40
M  V30 44 1 1 41
M  V30 45 1 1 42
M  V30 46 1 4 43
M  V30 47 1 5 44
M  V30 48 1 7 45
M  V30 49 1 9 46
M  V30 50 1 10 47
M  V30 51 1 12 48
M  V30 52 1 15 49
M  V30 53 1 19 50
M  V30 54 1 19 51
M  V30 55 1 22 52
M  V30 56 1 23 53
M  V30 57 1 25 54
M  V30 58 1 25 55
M  V30 59 1 26 56 CFG=3
M  V30 60 1 27 57
M  V30 61 1 27 58
M  V30 62 1 29 59
M  V30 63 1 31 60
M  V30 64 1 32 61
M  V30 65 1 39 62
M  V30 END BOND
M  V30 END CTAB
M  END
