
     RDKit          3D

  0  0  0  0  0  0  0  0  0  0999 V3000
M  V30 BEGIN CTAB
M  V30 COUNTS 42 43 0 0 0
M  V30 BEGIN ATOM
M  V30 1 C -4.83504 -0.441531 0.647 0
M  V30 2 C -4.47991 0.992204 0.445678 0
M  V30 3 O -3.19504 1.36349 0.873464 0
M  V30 4 C -2.06442 0.765789 0.33248 0
M  V30 5 C -1.47159 -0.341282 0.94431 0
M  V30 6 O -2.07129 -0.807231 2.12029 0
M  V30 7 C -1.47992 -1.92618 2.74867 0
M  V30 8 C -0.358256 -0.941747 0.42207 0
M  V30 9 C 0.221059 -0.47033 -0.734861 0
M  V30 10 C 1.39359 -1.13406 -1.28016 0
M  V30 11 C 2.67509 -0.881884 -0.639235 0
M  V30 12 C 3.20624 -1.84284 0.216167 0
M  V30 13 N 4.38269 -1.67037 0.845372 0
M  V30 14 C 5.10143 -0.536721 0.664262 0
M  V30 15 N 6.34652 -0.351479 1.3289 0
M  V30 16 N 4.61698 0.409172 -0.154346 0
M  V30 17 C 3.42102 0.25855 -0.807657 0
M  V30 18 N 2.94905 1.28558 -1.67177 0
M  V30 19 C -0.345984 0.616224 -1.35141 0
M  V30 20 C -1.48486 1.24172 -0.829877 0
M  V30 21 O -2.07944 2.33812 -1.42715 0
M  V30 22 C -1.65566 2.96617 -2.59302 0
M  V30 23 H -4.91945 -0.733183 1.70923 0
M  V30 24 H -5.83302 -0.671814 0.160901 0
M  V30 25 H -4.14203 -1.15618 0.15525 0
M  V30 26 H -4.64208 1.25437 -0.636822 0
M  V30 27 H -5.19704 1.58615 1.08678 0
M  V30 28 H -2.05486 -2.24831 3.63803 0
M  V30 29 H -0.4349 -1.70732 3.07198 0
M  V30 30 H -1.40906 -2.79981 2.0477 0
M  V30 31 H 0.0456909 -1.80526 0.961632 0
M  V30 32 H 1.53753 -0.906324 -2.3809 0
M  V30 33 H 1.18002 -2.24697 -1.29776 0
M  V30 34 H 2.60756 -2.74475 0.344127 0
M  V30 35 H 7.01754 -1.12606 1.50423 0
M  V30 36 H 6.60717 0.598645 1.6587 0
M  V30 37 H 2.57632 2.15368 -1.23793 0
M  V30 38 H 2.96442 1.19833 -2.70313 0
M  V30 39 H 0.0352355 1.04735 -2.2683 0
M  V30 40 H -0.550572 2.93482 -2.75662 0
M  V30 41 H -2.02071 4.02693 -2.63582 0
M  V30 42 H -2.16003 2.45433 -3.45882 0
M  V30 END ATOM
M  V30 BEGIN BOND
M  V30 1 1 1 2
M  V30 2 1 2 3
M  V30 3 1 3 4
M  V30 4 2 4 5
M  V30 5 1 5 6
M  V30 6 1 6 7
M  V30 7 1 5 8
M  V30 8 2 8 9
M  V30 9 1 9 10
M  V30 10 1 10 11
M  V30 11 2 11 12
M  V30 12 1 12 13
M  V30 13 2 13 14
M  V30 14 1 14 15
M  V30 15 1 14 16
M  V30 16 2 16 17
M  V30 17 1 17 18
M  V30 18 1 9 19
M  V30 19 2 19 20
M  V30 20 1 20 21
M  V30 21 1 21 22
M  V30 22 1 20 4
M  V30 23 1 17 11
M  V30 24 1 1 23
M  V30 25 1 1 24
M  V30 26 1 1 25
M  V30 27 1 2 26
M  V30 28 1 2 27
M  V30 29 1 7 28
M  V30 30 1 7 29
M  V30 31 1 7 30
M  V30 32 1 8 31
M  V30 33 1 10 32
M  V30 34 1 10 33
M  V30 35 1 12 34
M  V30 36 1 15 35
M  V30 37 1 15 36
M  V30 38 1 18 37
M  V30 39 1 18 38
M  V30 40 1 19 39
M  V30 41 1 22 40
M  V30 42 1 22 41
M  V30 43 1 22 42
M  V30 END BOND
M  V30 END CTAB
M  END
