
     RDKit          3D

  0  0  0  0  0  0  0  0  0  0999 V3000
M  V30 BEGIN CTAB
M  V30 COUNTS 53 55 0 0 0
M  V30 BEGIN ATOM
M  V30 1 C 8.20424 0.225153 0.621325 0
M  V30 2 C 6.72844 0.536083 0.382697 0
M  V30 3 O 6.08111 0.745284 1.58166 0
M  V30 4 C 4.77226 1.0618 1.40241 0
M  V30 5 C 3.9898 0.00261509 0.699994 0
M  V30 6 N 2.5793 0.391856 0.540863 0
M  V30 7 C 1.70169 -0.519613 -0.103737 0
M  V30 8 N 2.19611 -1.73103 -0.512616 0
M  V30 9 C 1.48715 -2.67661 -1.10055 0
M  V30 10 N 2.08973 -3.90298 -1.48581 0
M  V30 11 N 0.196276 -2.44541 -1.31653 0
M  V30 12 C -0.358674 -1.30186 -0.952561 0
M  V30 13 C 0.368055 -0.294949 -0.334712 0
M  V30 14 C -0.045974 1.04588 0.127351 0
M  V30 15 C -1.34449 1.5433 -0.372673 0
M  V30 16 N -2.514 0.728794 -0.113104 0
M  V30 17 C -2.45807 -0.696661 0.0311075 0
M  V30 18 C -1.82185 -1.2269 -1.24817 0
M  V30 19 C -3.7262 1.42366 -0.0208969 0
M  V30 20 O -3.57361 2.70468 -0.192515 0
M  V30 21 C -5.08474 0.993502 0.223452 0
M  V30 22 N -5.99398 2.18345 0.156852 0
M  V30 23 C -5.39205 0.189462 1.45599 0
M  V30 24 C -6.33211 -0.652461 0.630639 0
M  V30 25 C -5.71802 -0.0663731 -0.597547 0
M  V30 26 H 8.26468 -0.788439 1.05034 0
M  V30 27 H 8.77944 0.289884 -0.331825 0
M  V30 28 H 8.65226 0.969757 1.31424 0
M  V30 29 H 6.28398 -0.384937 -0.0901394 0
M  V30 30 H 6.62193 1.40338 -0.272765 0
M  V30 31 H 4.65241 1.99813 0.777892 0
M  V30 32 H 4.27578 1.30339 2.38927 0
M  V30 33 H 4.36866 -0.0606355 -0.36651 0
M  V30 34 H 4.03187 -0.989055 1.15961 0
M  V30 35 H 2.32496 1.31022 0.922412 0
M  V30 36 H 2.92553 -3.88732 -2.07877 0
M  V30 37 H 1.65971 -4.78279 -1.15191 0
M  V30 38 H 0.793264 1.75599 -0.145724 0
M  V30 39 H -0.0627174 1.03202 1.23203 0
M  V30 40 H -1.22701 1.77125 -1.47405 0
M  V30 41 H -1.55076 2.54804 0.0861933 0
M  V30 42 H -1.76608 -0.976529 0.86319 0
M  V30 43 H -3.36662 -1.23636 0.204773 0
M  V30 44 H -1.985 -0.574957 -2.10529 0
M  V30 45 H -2.19714 -2.23623 -1.41412 0
M  V30 46 H -5.60936 2.94017 0.744996 0
M  V30 47 H -6.09165 2.42334 -0.858294 0
M  V30 48 H -6.02934 0.800229 2.16597 0
M  V30 49 H -4.56701 -0.316333 1.96983 0
M  V30 50 H -6.13745 -1.73671 0.775302 0
M  V30 51 H -7.41252 -0.447452 0.773388 0
M  V30 52 H -6.56229 0.317408 -1.25998 0
M  V30 53 H -5.09992 -0.706146 -1.24275 0
M  V30 END ATOM
M  V30 BEGIN BOND
M  V30 1 1 1 2
M  V30 2 1 2 3
M  V30 3 1 3 4
M  V30 4 1 4 5
M  V30 5 1 5 6
M  V30 6 1 6 7
M  V30 7 2 7 8
M  V30 8 1 8 9
M  V30 9 1 9 10
M  V30 10 2 9 11
M  V30 11 1 11 12
M  V30 12 2 12 13
M  V30 13 1 13 14
M  V30 14 1 14 15
M  V30 15 1 15 16
M  V30 16 1 16 17
M  V30 17 1 17 18
M  V30 18 1 16 19
M  V30 19 2 19 20
M  V30 20 1 19 21
M  V30 21 1 21 22
M  V30 22 1 21 23
M  V30 23 1 23 24
M  V30 24 1 24 25
M  V30 25 1 13 7
M  V30 26 1 25 21
M  V30 27 1 18 12
M  V30 28 1 1 26
M  V30 29 1 1 27
M  V30 30 1 1 28
M  V30 31 1 2 29
M  V30 32 1 2 30
M  V30 33 1 4 31
M  V30 34 1 4 32
M  V30 35 1 5 33
M  V30 36 1 5 34
M  V30 37 1 6 35
M  V30 38 1 10 36
M  V30 39 1 10 37
M  V30 40 1 14 38
M  V30 41 1 14 39
M  V30 42 1 15 40
M  V30 43 1 15 41
M  V30 44 1 17 42
M  V30 45 1 17 43
M  V30 46 1 18 44
M  V30 47 1 18 45
M  V30 48 1 22 46
M  V30 49 1 22 47
M  V30 50 1 23 48
M  V30 51 1 23 49
M  V30 52 1 24 50
M  V30 53 1 24 51
M  V30 54 1 25 52
M  V30 55 1 25 53
M  V30 END BOND
M  V30 END CTAB
M  END
