
     RDKit          3D

  0  0  0  0  0  0  0  0  0  0999 V3000
M  V30 BEGIN CTAB
M  V30 COUNTS 24 24 0 0 0
M  V30 BEGIN ATOM
M  V30 1 N -1.56396 -0.884616 1.78276 0
M  V30 2 C -1.25568 -0.108921 0.616256 0
M  V30 3 C 0.0878148 0.116519 0.311847 0
M  V30 4 N 1.09494 -0.411782 1.14854 0
M  V30 5 C 2.4787 -0.178639 0.823496 0
M  V30 6 C 2.8421 -0.775738 -0.469846 0
M  V30 7 C 3.30633 -0.0172901 -1.45495 0
M  V30 8 Cl 2.6773 -2.51168 -0.762753 0
M  V30 9 N 0.31287 0.847191 -0.78882 0
M  V30 10 C -0.681531 1.33024 -1.54805 0
M  V30 11 C -2.009 1.11601 -1.26017 0
M  V30 12 C -2.3056 0.359034 -0.121633 0
M  V30 13 N -3.66108 0.0958926 0.239607 0
M  V30 14 H -1.33339 -0.599045 2.74201 0
M  V30 15 H -2.05336 -1.79565 1.64245 0
M  V30 16 H 0.802488 -0.959011 1.98295 0
M  V30 17 H 3.12636 -0.615246 1.62946 0
M  V30 18 H 2.7141 0.92307 0.797319 0
M  V30 19 H 3.57454 -0.444389 -2.40356 0
M  V30 20 H 3.43489 1.0552 -1.34952 0
M  V30 21 H -0.420001 1.90953 -2.41841 0
M  V30 22 H -2.82138 1.49951 -1.86355 0
M  V30 23 H -4.37056 0.819868 0.00767078 0
M  V30 24 H -3.97687 -0.770074 0.716912 0
M  V30 END ATOM
M  V30 BEGIN BOND
M  V30 1 1 1 2
M  V30 2 2 2 3
M  V30 3 1 3 4
M  V30 4 1 4 5
M  V30 5 1 5 6
M  V30 6 2 6 7 CFG=2
M  V30 7 1 6 8
M  V30 8 1 3 9
M  V30 9 2 9 10
M  V30 10 1 10 11
M  V30 11 2 11 12
M  V30 12 1 12 13
M  V30 13 1 12 2
M  V30 14 1 1 14
M  V30 15 1 1 15
M  V30 16 1 4 16
M  V30 17 1 5 17
M  V30 18 1 5 18
M  V30 19 1 7 19
M  V30 20 1 7 20
M  V30 21 1 10 21
M  V30 22 1 11 22
M  V30 23 1 13 23
M  V30 24 1 13 24
M  V30 END BOND
M  V30 END CTAB
M  END
