
     RDKit          3D

  0  0  0  0  0  0  0  0  0  0999 V3000
M  V30 BEGIN CTAB
M  V30 COUNTS 44 46 0 0 0
M  V30 BEGIN ATOM
M  V30 1 N -3.59063 -2.36326 1.21032 0
M  V30 2 C -3.60123 -1.98255 -0.156971 0
M  V30 3 C -2.1321 -1.7931 -0.619614 0
M  V30 4 C -1.86307 -0.463235 0.0364501 0
M  V30 5 C -3.08249 0.31678 -0.312203 0
M  V30 6 C -4.12041 -0.580126 -0.387016 0
M  V30 7 C -5.38052 -0.107536 -0.672442 0
M  V30 8 C -5.65732 1.22949 -0.890569 0
M  V30 9 C -4.57945 2.08739 -0.805177 0
M  V30 10 C -3.29223 1.68775 -0.522831 0
M  V30 11 N -0.687339 0.219735 -0.36235 0
M  V30 12 C -0.233297 0.987782 0.80161 0
M  V30 13 C 0.984009 1.79352 0.543705 0
M  V30 14 C 2.19853 1.03791 0.189691 0
M  V30 15 C 2.51259 0.690304 -1.10153 0
M  V30 16 C 3.67778 0.00463822 -1.31565 0
M  V30 17 C 4.53477 -0.34475 -0.310552 0
M  V30 18 C 4.23596 -0.00254946 1.00825 0
M  V30 19 C 3.06738 0.684482 1.22745 0
M  V30 20 S 6.04167 -1.19915 -0.578799 0
M  V30 21 O 6.42139 -2.00058 0.651627 0
M  V30 22 O 5.92188 -2.11434 -1.76029 0
M  V30 23 N 7.2569 -0.0090254 -0.898798 0
M  V30 24 H -4.00477 -1.73167 1.89717 0
M  V30 25 H -3.68471 -3.37903 1.38914 0
M  V30 26 H -4.13538 -2.68921 -0.798111 0
M  V30 27 H -2.1554 -1.75926 -1.70806 0
M  V30 28 H -1.53667 -2.61458 -0.189178 0
M  V30 29 H -1.85725 -0.63006 1.14229 0
M  V30 30 H -6.2115 -0.811283 -0.738432 0
M  V30 31 H -6.65979 1.58382 -1.11073 0
M  V30 32 H -4.75653 3.16281 -0.969425 0
M  V30 33 H -2.46514 2.39073 -0.472179 0
M  V30 34 H 0.102275 -0.410151 -0.64497 0
M  V30 35 H -0.0413216 0.201848 1.57069 0
M  V30 36 H -1.0162 1.63165 1.20537 0
M  V30 37 H 1.20705 2.34325 1.50494 0
M  V30 38 H 0.772067 2.61888 -0.175211 0
M  V30 39 H 1.85999 0.952241 -1.9374 0
M  V30 40 H 3.9519 -0.28345 -2.33409 0
M  V30 41 H 4.91263 -0.278735 1.80013 0
M  V30 42 H 2.8432 0.942405 2.26901 0
M  V30 43 H 7.28844 0.101171 -1.95482 0
M  V30 44 H 6.95433 0.879038 -0.421616 0
M  V30 END ATOM
M  V30 BEGIN BOND
M  V30 1 1 1 2
M  V30 2 1 2 3
M  V30 3 1 3 4
M  V30 4 1 4 5
M  V30 5 2 5 6
M  V30 6 1 6 7
M  V30 7 2 7 8
M  V30 8 1 8 9
M  V30 9 2 9 10
M  V30 10 1 4 11
M  V30 11 1 11 12
M  V30 12 1 12 13
M  V30 13 1 13 14
M  V30 14 2 14 15
M  V30 15 1 15 16
M  V30 16 2 16 17
M  V30 17 1 17 18
M  V30 18 2 18 19
M  V30 19 1 17 20
M  V30 20 2 20 21
M  V30 21 2 20 22
M  V30 22 1 20 23
M  V30 23 1 6 2
M  V30 24 1 19 14
M  V30 25 1 10 5
M  V30 26 1 1 24
M  V30 27 1 1 25
M  V30 28 1 2 26
M  V30 29 1 3 27
M  V30 30 1 3 28
M  V30 31 1 4 29
M  V30 32 1 7 30
M  V30 33 1 8 31
M  V30 34 1 9 32
M  V30 35 1 10 33
M  V30 36 1 11 34
M  V30 37 1 12 35
M  V30 38 1 12 36
M  V30 39 1 13 37
M  V30 40 1 13 38
M  V30 41 1 15 39
M  V30 42 1 16 40
M  V30 43 1 18 41
M  V30 44 1 19 42
M  V30 45 1 23 43
M  V30 46 1 23 44
M  V30 END BOND
M  V30 END CTAB
M  END
