
     RDKit          3D

  0  0  0  0  0  0  0  0  0  0999 V3000
M  V30 BEGIN CTAB
M  V30 COUNTS 24 24 0 0 0
M  V30 BEGIN ATOM
M  V30 1 N -3.72749 -1.20263 -0.117373 0
M  V30 2 C -2.66702 -0.242992 -0.0444323 0
M  V30 3 C -2.90251 1.05377 0.372698 0
M  V30 4 C -1.90123 1.99886 0.452745 0
M  V30 5 C -0.63942 1.57869 0.0912256 0
M  V30 6 C -0.390415 0.291327 -0.325789 0
M  V30 7 C -1.39643 -0.638845 -0.400656 0
M  V30 8 C 0.978535 -0.104311 -0.70072 0
M  V30 9 N 1.66198 -0.602177 0.476698 0
M  V30 10 S 3.25712 -1.05283 -0.00715261 0
M  V30 11 O 3.22815 -1.42268 -1.44837 0
M  V30 12 O 3.68132 -2.19223 0.869239 0
M  V30 13 N 4.27864 0.318558 0.174952 0
M  V30 14 H -3.7228 -1.88164 -0.905951 0
M  V30 15 H -4.44801 -1.16266 0.632005 0
M  V30 16 H -3.91047 1.31466 0.640027 0
M  V30 17 H -2.08514 3.01348 0.779034 0
M  V30 18 H 0.161343 2.31099 0.148515 0
M  V30 19 H -1.20298 -1.67251 -0.734269 0
M  V30 20 H 1.51407 0.802801 -1.03219 0
M  V30 21 H 0.956831 -0.888679 -1.49349 0
M  V30 22 H 1.14451 -1.40244 0.915827 0
M  V30 23 H 3.88866 0.903431 0.946986 0
M  V30 24 H 4.24275 0.880057 -0.693538 0
M  V30 END ATOM
M  V30 BEGIN BOND
M  V30 1 1 1 2
M  V30 2 2 2 3
M  V30 3 1 3 4
M  V30 4 2 4 5
M  V30 5 1 5 6
M  V30 6 2 6 7
M  V30 7 1 6 8
M  V30 8 1 8 9
M  V30 9 1 9 10
M  V30 10 2 10 11
M  V30 11 2 10 12
M  V30 12 1 10 13
M  V30 13 1 7 2
M  V30 14 1 1 14
M  V30 15 1 1 15
M  V30 16 1 3 16
M  V30 17 1 4 17
M  V30 18 1 5 18
M  V30 19 1 7 19
M  V30 20 1 8 20
M  V30 21 1 8 21
M  V30 22 1 9 22
M  V30 23 1 13 23
M  V30 24 1 13 24
M  V30 END BOND
M  V30 END CTAB
M  END
