
     RDKit          3D

  0  0  0  0  0  0  0  0  0  0999 V3000
M  V30 BEGIN CTAB
M  V30 COUNTS 38 37 0 0 0
M  V30 BEGIN ATOM
M  V30 1 C 5.54559 1.43501 -1.22493 0
M  V30 2 C 4.51106 0.441954 -0.765514 0
M  V30 3 C 3.14456 1.04947 -0.99976 0
M  V30 4 C 2.07848 0.0538703 -0.537984 0
M  V30 5 C 0.739698 0.708066 -0.793402 0
M  V30 6 C -0.354571 -0.216431 -0.361973 0
M  V30 7 N -0.0546848 -1.34703 0.127279 0
M  V30 8 N -0.905409 -2.31893 0.573806 0
M  V30 9 C -1.08871 -2.52475 1.96457 0
M  V30 10 N -1.96118 -3.52142 2.44448 0
M  V30 11 S -0.27258 -1.58823 3.0408 0
M  V30 12 C -1.74462 0.174537 -0.500917 0
M  V30 13 C -2.05591 1.51321 -1.0813 0
M  V30 14 N -2.66746 -0.630683 -0.125723 0
M  V30 15 N -3.99316 -0.215875 -0.27664 0
M  V30 16 C -4.6612 0.370742 0.825289 0
M  V30 17 N -3.98447 0.537445 2.08309 0
M  V30 18 S -6.19868 0.852563 0.652445 0
M  V30 19 H 5.08566 2.18414 -1.90019 0
M  V30 20 H 5.92719 1.9699 -0.343567 0
M  V30 21 H 6.33899 0.900968 -1.78784 0
M  V30 22 H 4.63412 0.122342 0.282179 0
M  V30 23 H 4.57094 -0.454442 -1.42388 0
M  V30 24 H 2.9554 1.26167 -2.05578 0
M  V30 25 H 2.98228 1.97899 -0.416762 0
M  V30 26 H 2.14486 -0.856615 -1.18653 0
M  V30 27 H 2.20475 -0.207514 0.520607 0
M  V30 28 H 0.705303 1.65665 -0.244148 0
M  V30 29 H 0.68446 0.888994 -1.89203 0
M  V30 30 H -1.43012 -2.921 -0.0907069 0
M  V30 31 H -2.62636 -3.99162 1.7715 0
M  V30 32 H -1.96747 -3.80358 3.43398 0
M  V30 33 H -2.31612 1.45786 -2.14614 0
M  V30 34 H -2.87063 1.96618 -0.472844 0
M  V30 35 H -1.18168 2.18908 -0.987946 0
M  V30 36 H -4.49784 -0.328259 -1.17735 0
M  V30 37 H -4.43514 0.382982 3.00315 0
M  V30 38 H -2.98534 0.829778 2.07068 0
M  V30 END ATOM
M  V30 BEGIN BOND
M  V30 1 1 1 2
M  V30 2 1 2 3
M  V30 3 1 3 4
M  V30 4 1 4 5
M  V30 5 1 5 6
M  V30 6 2 6 7 CFG=2
M  V30 7 1 7 8
M  V30 8 1 8 9
M  V30 9 1 9 10
M  V30 10 2 9 11
M  V30 11 1 6 12
M  V30 12 1 12 13
M  V30 13 2 12 14 CFG=2
M  V30 14 1 14 15
M  V30 15 1 15 16
M  V30 16 1 16 17
M  V30 17 2 16 18
M  V30 18 1 1 19
M  V30 19 1 1 20
M  V30 20 1 1 21
M  V30 21 1 2 22
M  V30 22 1 2 23
M  V30 23 1 3 24
M  V30 24 1 3 25
M  V30 25 1 4 26
M  V30 26 1 4 27
M  V30 27 1 5 28
M  V30 28 1 5 29
M  V30 29 1 8 30
M  V30 30 1 10 31
M  V30 31 1 10 32
M  V30 32 1 13 33
M  V30 33 1 13 34
M  V30 34 1 13 35
M  V30 35 1 15 36
M  V30 36 1 17 37
M  V30 37 1 17 38
M  V30 END BOND
M  V30 END CTAB
M  END
