
     RDKit          3D

  0  0  0  0  0  0  0  0  0  0999 V3000
M  V30 BEGIN CTAB
M  V30 COUNTS 36 37 0 0 0
M  V30 BEGIN ATOM
M  V30 1 C 4.31685 0.865748 -0.458125 0
M  V30 2 C 3.14189 0.822017 0.503773 0
M  V30 3 C 2.06969 -0.0854843 -0.101854 0
M  V30 4 C 0.927113 -0.230818 0.84574 0
M  V30 5 C -0.200378 -1.04457 0.378326 0
M  V30 6 C -1.32363 -0.531705 -0.203456 0
M  V30 7 N -2.26896 -1.42788 -0.644341 0
M  V30 8 C -2.15987 -2.7433 -0.540088 0
M  V30 9 N -3.16811 -3.64913 -1.01974 0
M  V30 10 N -1.04732 -3.25495 0.0368031 0
M  V30 11 C -0.0895854 -2.43362 0.485925 0
M  V30 12 N 1.08566 -3.00754 1.06458 0
M  V30 13 C -1.67205 0.877346 -0.296095 0
M  V30 14 C -0.93085 1.81315 -0.937948 0
M  V30 15 C -1.30781 3.15947 -0.92987 0
M  V30 16 C -2.43849 3.57142 -0.274879 0
M  V30 17 C -3.21242 2.64031 0.385203 0
M  V30 18 C -2.83467 1.32194 0.373369 0
M  V30 19 H 3.97632 0.496264 -1.43315 0
M  V30 20 H 5.10155 0.149255 -0.117691 0
M  V30 21 H 4.71939 1.88281 -0.622431 0
M  V30 22 H 3.45174 0.494686 1.50115 0
M  V30 23 H 2.6617 1.83229 0.506174 0
M  V30 24 H 1.82866 0.225978 -1.11905 0
M  V30 25 H 2.53775 -1.1309 -0.187575 0
M  V30 26 H 0.58053 0.810309 1.09119 0
M  V30 27 H 1.29387 -0.637555 1.8459 0
M  V30 28 H -4.10364 -3.27125 -1.27569 0
M  V30 29 H -2.98479 -4.64229 -1.10596 0
M  V30 30 H 1.21701 -3.0325 2.08215 0
M  V30 31 H 1.83145 -3.40365 0.457651 0
M  V30 32 H -0.0332328 1.5478 -1.51476 0
M  V30 33 H -0.686707 3.86014 -1.45821 0
M  V30 34 H -2.76352 4.60939 -0.240266 0
M  V30 35 H -4.10354 2.97001 0.90561 0
M  V30 36 H -3.41161 0.576793 0.872398 0
M  V30 END ATOM
M  V30 BEGIN BOND
M  V30 1 1 1 2
M  V30 2 1 2 3
M  V30 3 1 3 4
M  V30 4 1 4 5
M  V30 5 2 5 6
M  V30 6 1 6 7
M  V30 7 2 7 8
M  V30 8 1 8 9
M  V30 9 1 8 10
M  V30 10 2 10 11
M  V30 11 1 11 12
M  V30 12 1 6 13
M  V30 13 2 13 14
M  V30 14 1 14 15
M  V30 15 2 15 16
M  V30 16 1 16 17
M  V30 17 2 17 18
M  V30 18 1 11 5
M  V30 19 1 18 13
M  V30 20 1 1 19
M  V30 21 1 1 20
M  V30 22 1 1 21
M  V30 23 1 2 22
M  V30 24 1 2 23
M  V30 25 1 3 24
M  V30 26 1 3 25
M  V30 27 1 4 26
M  V30 28 1 4 27
M  V30 29 1 9 28
M  V30 30 1 9 29
M  V30 31 1 12 30
M  V30 32 1 12 31
M  V30 33 1 14 32
M  V30 34 1 15 33
M  V30 35 1 16 34
M  V30 36 1 17 35
M  V30 37 1 18 36
M  V30 END BOND
M  V30 END CTAB
M  END
