
     RDKit          3D

  0  0  0  0  0  0  0  0  0  0999 V3000
M  V30 BEGIN CTAB
M  V30 COUNTS 38 39 0 0 0
M  V30 BEGIN ATOM
M  V30 1 C 1.83107 2.14493 -0.328142 0
M  V30 2 C 1.14567 0.795771 -0.531862 0
M  V30 3 O 0.136396 0.562206 0.269666 0
M  V30 4 N -1.13763 0.520993 0.0180275 0
M  V30 5 C -1.80781 1.09894 -1.07776 0
M  V30 6 N -1.10511 1.86078 -2.10605 0
M  V30 7 N -3.08558 0.987352 -1.18847 0
M  V30 8 C -3.92795 0.313528 -0.274652 0
M  V30 9 N -5.34841 0.224936 -0.463212 0
M  V30 10 N -3.34173 -0.216108 0.737854 0
M  V30 11 C -1.94737 -0.188518 1.02356 0
M  V30 12 C -1.78162 0.514667 2.36977 0
M  V30 13 C -1.46899 -1.61198 1.13847 0
M  V30 14 C 2.21906 -0.248887 -0.369391 0
M  V30 15 C 3.50618 0.128696 -0.0499199 0
M  V30 16 C 4.5313 -0.798133 0.0816004 0
M  V30 17 C 4.26271 -2.13154 -0.110712 0
M  V30 18 Cl 5.46983 -3.38926 0.0277283 0
M  V30 19 C 2.95131 -2.49867 -0.43465 0
M  V30 20 Cl 2.5845 -4.19318 -0.684647 0
M  V30 21 C 1.93718 -1.59007 -0.565762 0
M  V30 22 H 2.26448 2.25027 0.680643 0
M  V30 23 H 1.12069 2.99924 -0.419276 0
M  V30 24 H 2.63708 2.23891 -1.07331 0
M  V30 25 H 0.900323 0.705967 -1.638 0
M  V30 26 H -0.774175 2.81854 -1.96335 0
M  V30 27 H -0.976886 1.33047 -2.99483 0
M  V30 28 H -5.78125 -0.534758 -1.03084 0
M  V30 29 H -6.00607 0.917506 -0.039725 0
M  V30 30 H -1.78496 1.60127 2.14945 0
M  V30 31 H -0.850585 0.191329 2.86511 0
M  V30 32 H -2.65038 0.265654 2.97799 0
M  V30 33 H -2.20596 -2.27098 1.60456 0
M  V30 34 H -0.489286 -1.59092 1.65747 0
M  V30 35 H -1.28031 -2.01192 0.116963 0
M  V30 36 H 3.80917 1.1519 0.118591 0
M  V30 37 H 5.52261 -0.486306 0.32977 0
M  V30 38 H 0.92251 -1.86261 -0.822656 0
M  V30 END ATOM
M  V30 BEGIN BOND
M  V30 1 1 1 2
M  V30 2 1 2 3
M  V30 3 1 3 4
M  V30 4 1 4 5
M  V30 5 1 5 6
M  V30 6 2 5 7
M  V30 7 1 7 8
M  V30 8 1 8 9
M  V30 9 2 8 10
M  V30 10 1 10 11
M  V30 11 1 11 12
M  V30 12 1 11 13
M  V30 13 1 2 14
M  V30 14 2 14 15
M  V30 15 1 15 16
M  V30 16 2 16 17
M  V30 17 1 17 18
M  V30 18 1 17 19
M  V30 19 1 19 20
M  V30 20 2 19 21
M  V30 21 1 11 4
M  V30 22 1 21 14
M  V30 23 1 1 22
M  V30 24 1 1 23
M  V30 25 1 1 24
M  V30 26 1 2 25
M  V30 27 1 6 26
M  V30 28 1 6 27
M  V30 29 1 9 28
M  V30 30 1 9 29
M  V30 31 1 12 30
M  V30 32 1 12 31
M  V30 33 1 12 32
M  V30 34 1 13 33
M  V30 35 1 13 34
M  V30 36 1 13 35
M  V30 37 1 15 36
M  V30 38 1 16 37
M  V30 39 1 21 38
M  V30 END BOND
M  V30 END CTAB
M  END
