
     RDKit          3D

  0  0  0  0  0  0  0  0  0  0999 V3000
M  V30 BEGIN CTAB
M  V30 COUNTS 38 40 0 0 0
M  V30 BEGIN ATOM
M  V30 1 N 5.06261 0.884353 0.999881 0
M  V30 2 N 5.1008 0.583456 -0.373245 0
M  V30 3 C 5.87799 1.17294 -1.29355 0
M  V30 4 S 7.05674 2.49716 -0.957532 0
M  V30 5 N 5.59975 0.588458 -2.4675 0
M  V30 6 N 4.66189 -0.347188 -2.25998 0
M  V30 7 C 4.32795 -0.374651 -0.955379 0
M  V30 8 C 3.34185 -1.24245 -0.270216 0
M  V30 9 O 2.05384 -0.654471 -0.249464 0
M  V30 10 C 0.96096 -1.26609 0.33208 0
M  V30 11 C -0.256619 -0.587169 0.289211 0
M  V30 12 C -1.3928 -1.12956 0.846331 0
M  V30 13 O -2.59454 -0.448994 0.798698 0
M  V30 14 C -2.72923 0.821626 0.186926 0
M  V30 15 C -4.11825 1.32663 0.274913 0
M  V30 16 N -4.60731 2.07609 1.2756 0
M  V30 17 N -5.88571 2.3362 1.00941 0
M  V30 18 C -6.23447 1.76409 -0.154084 0
M  V30 19 S -7.85199 1.86415 -0.87942 0
M  V30 20 N -5.11169 1.14473 -0.583408 0
M  V30 21 N -5.05594 0.419062 -1.78353 0
M  V30 22 C -1.30219 -2.35926 1.44829 0
M  V30 23 C -0.0943562 -3.05828 1.50379 0
M  V30 24 C 1.04181 -2.50182 0.939525 0
M  V30 25 H 5.91693 1.24481 1.47896 0
M  V30 26 H 4.21675 0.76415 1.56675 0
M  V30 27 H 8.29209 1.85581 -0.691115 0
M  V30 28 H 3.62088 -1.4335 0.78404 0
M  V30 29 H 3.29467 -2.19196 -0.844368 0
M  V30 30 H -0.29651 0.373295 -0.188614 0
M  V30 31 H -2.44646 0.676795 -0.886271 0
M  V30 32 H -1.98983 1.51655 0.608194 0
M  V30 33 H -8.23371 3.19358 -1.11836 0
M  V30 34 H -5.53012 0.800524 -2.61312 0
M  V30 35 H -4.52737 -0.495613 -1.7917 0
M  V30 36 H -2.17391 -2.79069 1.8835 0
M  V30 37 H 0.000191828 -4.02729 1.9724 0
M  V30 38 H 2.00531 -2.99545 0.9513 0
M  V30 END ATOM
M  V30 BEGIN BOND
M  V30 1 1 1 2
M  V30 2 1 2 3
M  V30 3 1 3 4
M  V30 4 2 3 5
M  V30 5 1 5 6
M  V30 6 2 6 7
M  V30 7 1 7 8
M  V30 8 1 8 9
M  V30 9 1 9 10
M  V30 10 2 10 11
M  V30 11 1 11 12
M  V30 12 1 12 13
M  V30 13 1 13 14
M  V30 14 1 14 15
M  V30 15 2 15 16
M  V30 16 1 16 17
M  V30 17 2 17 18
M  V30 18 1 18 19
M  V30 19 1 18 20
M  V30 20 1 20 21
M  V30 21 2 12 22
M  V30 22 1 22 23
M  V30 23 2 23 24
M  V30 24 1 7 2
M  V30 25 1 24 10
M  V30 26 1 20 15
M  V30 27 1 1 25
M  V30 28 1 1 26
M  V30 29 1 4 27
M  V30 30 1 8 28
M  V30 31 1 8 29
M  V30 32 1 11 30
M  V30 33 1 14 31
M  V30 34 1 14 32
M  V30 35 1 19 33
M  V30 36 1 21 34
M  V30 37 1 21 35
M  V30 38 1 22 36
M  V30 39 1 23 37
M  V30 40 1 24 38
M  V30 END BOND
M  V30 END CTAB
M  END
