
     RDKit          3D

  0  0  0  0  0  0  0  0  0  0999 V3000
M  V30 BEGIN CTAB
M  V30 COUNTS 18 18 0 0 0
M  V30 BEGIN ATOM
M  V30 1 C 2.93608 0.39582 -0.26263 0
M  V30 2 C 1.47251 0.0902958 -0.130014 0
M  V30 3 N 0.552037 1.06957 -0.0909556 0
M  V30 4 C -0.775468 0.823197 0.0281989 0
M  V30 5 N -1.72867 1.88645 0.0667878 0
M  V30 6 N -1.24672 -0.434586 0.114823 0
M  V30 7 C -0.34638 -1.43753 0.0783208 0
M  V30 8 O -0.795353 -2.60949 0.159847 0
M  V30 9 C 1.01393 -1.20233 -0.0431209 0
M  V30 10 Cl 2.15362 -2.53289 -0.0870033 0
M  V30 11 N -2.62325 -0.653997 0.236995 0
M  V30 12 H 3.03451 1.44628 -0.612395 0
M  V30 13 H 3.42905 -0.31509 -0.94178 0
M  V30 14 H 3.41974 0.351792 0.746629 0
M  V30 15 H -2.6324 1.83721 -0.451836 0
M  V30 16 H -1.55768 2.76231 0.61997 0
M  V30 17 H -3.28205 -0.0921853 -0.309742 0
M  V30 18 H -3.0235 -1.38482 0.877905 0
M  V30 END ATOM
M  V30 BEGIN BOND
M  V30 1 1 1 2
M  V30 2 1 2 3
M  V30 3 2 3 4
M  V30 4 1 4 5
M  V30 5 1 4 6
M  V30 6 1 6 7
M  V30 7 2 7 8
M  V30 8 1 7 9
M  V30 9 1 9 10
M  V30 10 1 6 11
M  V30 11 2 9 2
M  V30 12 1 1 12
M  V30 13 1 1 13
M  V30 14 1 1 14
M  V30 15 1 5 15
M  V30 16 1 5 16
M  V30 17 1 11 17
M  V30 18 1 11 18
M  V30 END BOND
M  V30 END CTAB
M  END
