
     RDKit          3D

  0  0  0  0  0  0  0  0  0  0999 V3000
M  V30 BEGIN CTAB
M  V30 COUNTS 24 24 0 0 0
M  V30 BEGIN ATOM
M  V30 1 C 3.61524 0.800271 0.220407 0
M  V30 2 O 2.58042 -0.00908867 0.686901 0
M  V30 3 C 1.26834 0.0683843 0.269319 0
M  V30 4 C 0.896545 0.994714 -0.676219 0
M  V30 5 C -0.424552 1.09616 -1.11814 0
M  V30 6 N -0.806008 2.05434 -2.0954 0
M  V30 7 C -1.35513 0.228062 -0.570056 0
M  V30 8 C -1.01944 -0.713742 0.380088 0
M  V30 9 C 0.305126 -0.771075 0.782581 0
M  V30 10 N 0.701155 -1.71629 1.75175 0
M  V30 11 O -1.94033 -1.58994 0.938148 0
M  V30 12 C -3.27697 -1.55054 0.548858 0
M  V30 13 H 4.47881 0.857689 0.901891 0
M  V30 14 H 3.90055 0.446645 -0.795417 0
M  V30 15 H 3.20015 1.84264 0.0922556 0
M  V30 16 H 1.58216 1.69625 -1.13695 0
M  V30 17 H -0.227739 2.2036 -2.96054 0
M  V30 18 H -1.68644 2.60588 -1.91914 0
M  V30 19 H -2.39701 0.292574 -0.9044 0
M  V30 20 H 1.50986 -2.36668 1.65095 0
M  V30 21 H 0.15722 -1.79142 2.65261 0
M  V30 22 H -3.40884 -1.44648 -0.5543 0
M  V30 23 H -3.79551 -2.49835 0.818455 0
M  V30 24 H -3.8576 -0.733601 1.03636 0
M  V30 END ATOM
M  V30 BEGIN BOND
M  V30 1 1 1 2
M  V30 2 1 2 3
M  V30 3 2 3 4
M  V30 4 1 4 5
M  V30 5 1 5 6
M  V30 6 2 5 7
M  V30 7 1 7 8
M  V30 8 2 8 9
M  V30 9 1 9 10
M  V30 10 1 8 11
M  V30 11 1 11 12
M  V30 12 1 9 3
M  V30 13 1 1 13
M  V30 14 1 1 14
M  V30 15 1 1 15
M  V30 16 1 4 16
M  V30 17 1 6 17
M  V30 18 1 6 18
M  V30 19 1 7 19
M  V30 20 1 10 20
M  V30 21 1 10 21
M  V30 22 1 12 22
M  V30 23 1 12 23
M  V30 24 1 12 24
M  V30 END BOND
M  V30 END CTAB
M  END
