
     RDKit          3D

  0  0  0  0  0  0  0  0  0  0999 V3000
M  V30 BEGIN CTAB
M  V30 COUNTS 16 16 0 0 0
M  V30 BEGIN ATOM
M  V30 1 N -2.34793 -1.2878 -0.237487 0
M  V30 2 C -1.67443 -0.00713831 -0.105036 0
M  V30 3 C -0.197749 -0.269323 -0.108637 0
M  V30 4 S 0.591949 -1.77608 -0.241477 0
M  V30 5 C 2.21281 -1.24828 -0.167326 0
M  V30 6 C 2.08372 0.106473 -0.0394357 0
M  V30 7 C 0.848608 0.613431 -0.00884798 0
M  V30 8 N 0.546306 2.02343 0.121805 0
M  V30 9 H -3.33633 -1.22385 0.0865129 0
M  V30 10 H -1.80106 -1.96086 0.365636 0
M  V30 11 H -1.99174 0.617837 -0.948133 0
M  V30 12 H -1.92673 0.477447 0.8596 0
M  V30 13 H 3.136 -1.83874 -0.210457 0
M  V30 14 H 2.99861 0.727209 0.0333233 0
M  V30 15 H 0.712125 2.71062 -0.631601 0
M  V30 16 H 0.145854 2.33561 1.02096 0
M  V30 END ATOM
M  V30 BEGIN BOND
M  V30 1 1 1 2
M  V30 2 1 2 3
M  V30 3 1 3 4
M  V30 4 1 4 5
M  V30 5 2 5 6
M  V30 6 1 6 7
M  V30 7 1 7 8
M  V30 8 2 7 3
M  V30 9 1 1 9
M  V30 10 1 1 10
M  V30 11 1 2 11
M  V30 12 1 2 12
M  V30 13 1 5 13
M  V30 14 1 6 14
M  V30 15 1 8 15
M  V30 16 1 8 16
M  V30 END BOND
M  V30 END CTAB
M  END
