
     RDKit          3D

  0  0  0  0  0  0  0  0  0  0999 V3000
M  V30 BEGIN CTAB
M  V30 COUNTS 49 53 0 0 0
M  V30 BEGIN ATOM
M  V30 1 N 1.57078 2.78359 -1.41273 0
M  V30 2 C 1.49845 1.75798 -0.819252 0
M  V30 3 C 1.4547 0.485964 -0.187425 0
M  V30 4 C 2.65656 -0.217662 -0.15229 0
M  V30 5 N 2.62368 -1.5447 0.194814 0
M  V30 6 C 1.51459 -2.19711 0.50116 0
M  V30 7 C 0.318655 -1.53513 0.483568 0
M  V30 8 C 0.306261 -0.170457 0.136578 0
M  V30 9 C -0.903115 0.481423 0.133981 0
M  V30 10 C -1.33327 1.8628 -0.0433065 0
M  V30 11 O -0.786619 2.91242 0.168483 0
M  V30 12 C -2.74697 1.68892 -0.580442 0
M  V30 13 N -3.18938 0.68541 0.438573 0
M  V30 14 C -2.08446 -0.240686 0.453167 0
M  V30 15 N -2.02306 -1.53497 0.764736 0
M  V30 16 C -0.853519 -2.18419 0.787015 0
M  V30 17 N -0.823655 -3.55903 1.12784 0
M  V30 18 C -4.40365 0.681315 1.18227 0
M  V30 19 C -5.59695 0.615678 0.291601 0
M  V30 20 C -6.28454 1.6868 -0.241389 0
M  V30 21 C -7.32226 1.18183 -1.00796 0
M  V30 22 C -7.2186 -0.178498 -0.90622 0
M  V30 23 O -6.19413 -0.452527 -0.135665 0
M  V30 24 N 1.53714 -3.57596 0.849966 0
M  V30 25 N 3.8952 0.391567 -0.390885 0
M  V30 26 C 4.99346 -0.513276 -0.814353 0
M  V30 27 C 5.85697 -0.644786 0.448595 0
M  V30 28 O 5.8611 0.559975 1.16562 0
M  V30 29 C 5.75605 1.65103 0.325807 0
M  V30 30 C 4.31132 1.75126 -0.237103 0
M  V30 31 H -2.65388 1.15776 -1.53603 0
M  V30 32 H -3.33109 2.59068 -0.553722 0
M  V30 33 H -0.919171 -4.31543 0.387911 0
M  V30 34 H -0.709652 -3.86617 2.1269 0
M  V30 35 H -4.42311 -0.0952361 1.94791 0
M  V30 36 H -4.43624 1.6584 1.748 0
M  V30 37 H -6.04317 2.73262 -0.0796467 0
M  V30 38 H -8.05046 1.75311 -1.56238 0
M  V30 39 H -7.89343 -0.889339 -1.39789 0
M  V30 40 H 1.44707 -4.32396 0.144163 0
M  V30 41 H 1.65191 -3.82767 1.84485 0
M  V30 42 H 5.54842 -0.0942266 -1.65264 0
M  V30 43 H 4.61576 -1.5077 -1.07325 0
M  V30 44 H 5.30781 -1.37804 1.09956 0
M  V30 45 H 6.85673 -1.01783 0.225562 0
M  V30 46 H 5.92546 2.56625 0.894077 0
M  V30 47 H 6.48488 1.62118 -0.495688 0
M  V30 48 H 3.75908 2.30625 0.530482 0
M  V30 49 H 4.47234 2.30037 -1.19374 0
M  V30 END ATOM
M  V30 BEGIN BOND
M  V30 1 3 1 2
M  V30 2 1 2 3
M  V30 3 2 3 4
M  V30 4 1 4 5
M  V30 5 2 5 6
M  V30 6 1 6 7
M  V30 7 2 7 8
M  V30 8 1 8 9
M  V30 9 1 9 10
M  V30 10 2 10 11
M  V30 11 1 10 12
M  V30 12 1 12 13
M  V30 13 1 13 14
M  V30 14 1 14 15
M  V30 15 2 15 16
M  V30 16 1 16 17
M  V30 17 1 13 18
M  V30 18 1 18 19
M  V30 19 2 19 20
M  V30 20 1 20 21
M  V30 21 2 21 22
M  V30 22 1 22 23
M  V30 23 1 6 24
M  V30 24 1 4 25
M  V30 25 1 25 26
M  V30 26 1 26 27
M  V30 27 1 27 28
M  V30 28 1 28 29
M  V30 29 1 29 30
M  V30 30 1 8 3
M  V30 31 2 14 9
M  V30 32 1 23 19
M  V30 33 1 30 25
M  V30 34 1 16 7
M  V30 35 1 12 31
M  V30 36 1 12 32
M  V30 37 1 17 33
M  V30 38 1 17 34
M  V30 39 1 18 35
M  V30 40 1 18 36
M  V30 41 1 20 37
M  V30 42 1 21 38
M  V30 43 1 22 39
M  V30 44 1 24 40
M  V30 45 1 24 41
M  V30 46 1 26 42
M  V30 47 1 26 43
M  V30 48 1 27 44
M  V30 49 1 27 45
M  V30 50 1 29 46
M  V30 51 1 29 47
M  V30 52 1 30 48
M  V30 53 1 30 49
M  V30 END BOND
M  V30 END CTAB
M  END
