
     RDKit          3D

  0  0  0  0  0  0  0  0  0  0999 V3000
M  V30 BEGIN CTAB
M  V30 COUNTS 35 35 0 0 0
M  V30 BEGIN ATOM
M  V30 1 N -3.08143 -2.64526 -0.669689 0
M  V30 2 C -3.71497 -1.49163 -0.145714 0
M  V30 3 C -2.82095 -0.292828 -0.0822327 0
M  V30 4 C -1.43512 -0.395023 -0.0321305 0
M  V30 5 C -0.636557 0.709358 0.00366581 0
M  V30 6 N 0.777872 0.627145 0.0321691 0
M  V30 7 C 1.56081 -0.431431 -0.48529 0
M  V30 8 O 1.05623 -1.42654 -1.06423 0
M  V30 9 C 3.02904 -0.397434 -0.355472 0 CFG=2
M  V30 10 C 3.62914 -1.72903 0.0670258 0
M  V30 11 C 5.13205 -1.47457 0.15118 0
M  V30 12 N 3.51834 0.614463 0.552634 0
M  V30 13 C -1.24814 1.95871 -0.0137575 0
M  V30 14 C -2.60756 2.14285 -0.0649028 0
M  V30 15 C -3.3629 0.96664 -0.0968944 0
M  V30 16 C -3.247 3.48276 -0.118363 0
M  V30 17 F -3.34257 3.9807 -1.38379 0
M  V30 18 F -2.39703 4.30518 0.646277 0
M  V30 19 F -4.46973 3.42907 0.533193 0
M  V30 20 H -2.26438 -2.97994 -0.185759 0
M  V30 21 H -3.80973 -3.43311 -0.69302 0
M  V30 22 H -4.60627 -1.23139 -0.71841 0
M  V30 23 H -4.05344 -1.62666 0.924258 0
M  V30 24 H -1.04609 -1.40035 -0.0099422 0
M  V30 25 H 1.29458 1.45197 0.486081 0
M  V30 26 H 3.42948 -0.223052 -1.39447 0
M  V30 27 H 3.42557 -2.53204 -0.673974 0
M  V30 28 H 3.25828 -1.93873 1.08918 0
M  V30 29 H 5.41132 -0.523154 -0.370465 0
M  V30 30 H 5.72352 -2.25793 -0.32494 0
M  V30 31 H 5.42872 -1.31787 1.22211 0
M  V30 32 H 3.63934 1.5061 0.0205969 0
M  V30 33 H 2.93013 0.624188 1.3948 0
M  V30 34 H -0.653175 2.85842 0.0174843 0
M  V30 35 H -4.4474 1.09042 -0.14212 0
M  V30 END ATOM
M  V30 BEGIN BOND
M  V30 1 1 1 2
M  V30 2 1 2 3
M  V30 3 2 3 4
M  V30 4 1 4 5
M  V30 5 1 5 6
M  V30 6 1 6 7
M  V30 7 2 7 8
M  V30 8 1 7 9
M  V30 9 1 9 10
M  V30 10 1 10 11
M  V30 11 1 9 12
M  V30 12 2 5 13
M  V30 13 1 13 14
M  V30 14 2 14 15
M  V30 15 1 14 16
M  V30 16 1 16 17
M  V30 17 1 16 18
M  V30 18 1 16 19
M  V30 19 1 15 3
M  V30 20 1 1 20
M  V30 21 1 1 21
M  V30 22 1 2 22
M  V30 23 1 2 23
M  V30 24 1 4 24
M  V30 25 1 6 25
M  V30 26 1 9 26 CFG=3
M  V30 27 1 10 27
M  V30 28 1 10 28
M  V30 29 1 11 29
M  V30 30 1 11 30
M  V30 31 1 11 31
M  V30 32 1 12 32
M  V30 33 1 12 33
M  V30 34 1 13 34
M  V30 35 1 15 35
M  V30 END BOND
M  V30 END CTAB
M  END
