
     RDKit          3D

  0  0  0  0  0  0  0  0  0  0999 V3000
M  V30 BEGIN CTAB
M  V30 COUNTS 20 19 0 0 0
M  V30 BEGIN ATOM
M  V30 1 N -3.12951 1.35138 0.764879 0
M  V30 2 N -1.78238 0.985401 0.703659 0
M  V30 3 C -1.41588 -0.184069 0.323656 0
M  V30 4 N -0.00408725 -0.450376 0.299313 0
M  V30 5 C 0.692218 -0.103647 -0.890906 0
M  V30 6 C 2.15145 -0.373547 -0.914288 0
M  V30 7 C 2.966 0.327768 0.123423 0
M  V30 8 F 2.84879 1.69287 0.000933883 0
M  V30 9 F 4.30368 -0.0109376 -0.138501 0
M  V30 10 F 2.68135 -0.00667707 1.41347 0
M  V30 11 N -2.38974 -1.13076 -0.0434263 0
M  V30 12 H -3.743 1.49558 -0.0579298 0
M  V30 13 H -3.55698 1.49189 1.70569 0
M  V30 14 H 0.375963 -0.878044 1.16689 0
M  V30 15 H 0.239731 -0.700525 -1.7282 0
M  V30 16 H 0.452168 0.964098 -1.1655 0
M  V30 17 H 2.5258 -0.0100229 -1.91663 0
M  V30 18 H 2.29888 -1.47428 -0.905516 0
M  V30 19 H -3.02266 -1.62863 0.616267 0
M  V30 20 H -2.49181 -1.35747 -1.05772 0
M  V30 END ATOM
M  V30 BEGIN BOND
M  V30 1 1 1 2
M  V30 2 2 2 3 CFG=2
M  V30 3 1 3 4
M  V30 4 1 4 5
M  V30 5 1 5 6
M  V30 6 1 6 7
M  V30 7 1 7 8
M  V30 8 1 7 9
M  V30 9 1 7 10
M  V30 10 1 3 11
M  V30 11 1 1 12
M  V30 12 1 1 13
M  V30 13 1 4 14
M  V30 14 1 5 15
M  V30 15 1 5 16
M  V30 16 1 6 17
M  V30 17 1 6 18
M  V30 18 1 11 19
M  V30 19 1 11 20
M  V30 END BOND
M  V30 END CTAB
M  END
