
     RDKit          3D

  0  0  0  0  0  0  0  0  0  0999 V3000
M  V30 BEGIN CTAB
M  V30 COUNTS 36 37 0 0 0
M  V30 BEGIN ATOM
M  V30 1 N -5.43192 -0.485458 2.24646 0
M  V30 2 C -5.07288 0.737078 1.55748 0
M  V30 3 C -4.04925 0.390209 0.531051 0
M  V30 4 C -3.46447 1.35844 -0.257173 0
M  V30 5 C -2.51421 1.06216 -1.21417 0
M  V30 6 C -2.10466 -0.235794 -1.42304 0
M  V30 7 C -2.68332 -1.21487 -0.639279 0
M  V30 8 C -3.63031 -0.904487 0.31139 0
M  V30 9 S -0.88557 -0.641102 -2.62658 0
M  V30 10 O -0.8767 0.442287 -3.6686 0
M  V30 11 O -1.31574 -1.93014 -3.26378 0
M  V30 12 N 0.61664 -0.791778 -1.82179 0
M  V30 13 C 1.18704 0.269278 -1.1191 0
M  V30 14 O 0.618209 1.36687 -1.05489 0
M  V30 15 C 2.48774 0.0768281 -0.443387 0
M  V30 16 C 3.24914 -1.07106 -0.421738 0
M  V30 17 C 4.38589 -0.825186 0.318186 0
M  V30 18 C 4.27356 0.485265 0.727015 0
M  V30 19 O 3.13915 0.967848 0.251655 0
M  V30 20 S 5.44345 1.36543 1.71467 0
M  V30 21 O 4.80337 1.72417 3.03328 0
M  V30 22 O 5.89336 2.5927 0.993672 0
M  V30 23 N 6.74606 0.290335 2.06623 0
M  V30 24 H -4.63804 -0.920327 2.73038 0
M  V30 25 H -5.92045 -1.12034 1.59499 0
M  V30 26 H -4.65769 1.4997 2.22009 0
M  V30 27 H -5.96081 1.11183 1.00786 0
M  V30 28 H -3.76861 2.39221 -0.113793 0
M  V30 29 H -2.09259 1.8759 -1.81319 0
M  V30 30 H -2.38168 -2.25035 -0.779535 0
M  V30 31 H -4.08202 -1.68507 0.925794 0
M  V30 32 H 1.10274 -1.73414 -1.87931 0
M  V30 33 H 3.00923 -2.01067 -0.8985 0
M  V30 34 H 5.20996 -1.48433 0.552058 0
M  V30 35 H 6.94156 -0.334508 1.23333 0
M  V30 36 H 6.42382 -0.368941 2.82599 0
M  V30 END ATOM
M  V30 BEGIN BOND
M  V30 1 1 1 2
M  V30 2 1 2 3
M  V30 3 2 3 4
M  V30 4 1 4 5
M  V30 5 2 5 6
M  V30 6 1 6 7
M  V30 7 2 7 8
M  V30 8 1 6 9
M  V30 9 2 9 10
M  V30 10 2 9 11
M  V30 11 1 9 12
M  V30 12 1 12 13
M  V30 13 2 13 14
M  V30 14 1 13 15
M  V30 15 2 15 16
M  V30 16 1 16 17
M  V30 17 2 17 18
M  V30 18 1 18 19
M  V30 19 1 18 20
M  V30 20 2 20 21
M  V30 21 2 20 22
M  V30 22 1 20 23
M  V30 23 1 8 3
M  V30 24 1 19 15
M  V30 25 1 1 24
M  V30 26 1 1 25
M  V30 27 1 2 26
M  V30 28 1 2 27
M  V30 29 1 4 28
M  V30 30 1 5 29
M  V30 31 1 7 30
M  V30 32 1 8 31
M  V30 33 1 12 32
M  V30 34 1 16 33
M  V30 35 1 17 34
M  V30 36 1 23 35
M  V30 37 1 23 36
M  V30 END BOND
M  V30 END CTAB
M  END
