
     RDKit          3D

  0  0  0  0  0  0  0  0  0  0999 V3000
M  V30 BEGIN CTAB
M  V30 COUNTS 28 29 0 0 0
M  V30 BEGIN ATOM
M  V30 1 N -2.48599 1.09423 1.48197 0
M  V30 2 C -2.28476 -0.250562 1.02332 0
M  V30 3 C -1.3383 -0.244839 -0.12655 0
M  V30 4 N -1.88704 0.559703 -1.21367 0
M  V30 5 C -0.939206 -1.61751 -0.604357 0
M  V30 6 C 0.588752 -1.5721 -0.667886 0
M  V30 7 N 0.846266 -0.179584 -0.770791 0
M  V30 8 C 0.00863761 0.399503 0.230843 0
M  V30 9 C 2.19939 0.220247 -0.7913 0
M  V30 10 C 3.15924 0.0123098 0.294896 0
M  V30 11 C 2.57542 1.40597 0.137667 0
M  V30 12 H -3.22608 1.55738 0.904981 0
M  V30 13 H -1.63454 1.69621 1.4355 0
M  V30 14 H -3.2664 -0.611928 0.640089 0
M  V30 15 H -1.89588 -0.906749 1.83408 0
M  V30 16 H -2.80698 0.191812 -1.54579 0
M  V30 17 H -2.09126 1.50009 -0.788292 0
M  V30 18 H -1.28631 -2.42823 0.0787846 0
M  V30 19 H -1.34558 -1.74744 -1.64114 0
M  V30 20 H 0.964394 -2.18706 -1.50024 0
M  V30 21 H 0.935327 -2.03217 0.284389 0
M  V30 22 H 0.361938 0.0640259 1.21215 0
M  V30 23 H -0.0304813 1.48532 0.125164 0
M  V30 24 H 2.63108 0.311518 -1.83208 0
M  V30 25 H 2.92526 -0.574844 1.2083 0
M  V30 26 H 4.25081 -0.0523617 0.01749 0
M  V30 27 H 1.84083 1.71317 0.896193 0
M  V30 28 H 3.23145 2.19391 -0.323726 0
M  V30 END ATOM
M  V30 BEGIN BOND
M  V30 1 1 1 2
M  V30 2 1 2 3
M  V30 3 1 3 4
M  V30 4 1 3 5
M  V30 5 1 5 6
M  V30 6 1 6 7
M  V30 7 1 7 8
M  V30 8 1 7 9
M  V30 9 1 9 10
M  V30 10 1 10 11
M  V30 11 1 8 3
M  V30 12 1 11 9
M  V30 13 1 1 12
M  V30 14 1 1 13
M  V30 15 1 2 14
M  V30 16 1 2 15
M  V30 17 1 4 16
M  V30 18 1 4 17
M  V30 19 1 5 18
M  V30 20 1 5 19
M  V30 21 1 6 20
M  V30 22 1 6 21
M  V30 23 1 8 22
M  V30 24 1 8 23
M  V30 25 1 9 24
M  V30 26 1 10 25
M  V30 27 1 10 26
M  V30 28 1 11 27
M  V30 29 1 11 28
M  V30 END BOND
M  V30 END CTAB
M  END
