
     RDKit          3D

  0  0  0  0  0  0  0  0  0  0999 V3000
M  V30 BEGIN CTAB
M  V30 COUNTS 31 30 0 0 0
M  V30 BEGIN ATOM
M  V30 1 N -4.68779 1.20068 -0.667959 0
M  V30 2 C -4.42688 0.127464 0.222046 0
M  V30 3 N -5.17912 -0.000942977 1.26105 0
M  V30 4 N -3.38885 -0.822435 0.0491422 0
M  V30 5 C -2.03793 -0.367079 0.328754 0
M  V30 6 C -1.00847 -1.4138 0.125887 0
M  V30 7 C 0.357298 -0.867279 0.445023 0
M  V30 8 C 0.682609 0.30625 -0.4521 0
M  V30 9 C 2.06348 0.860123 -0.145872 0
M  V30 10 N 3.09137 -0.139753 -0.342239 0
M  V30 11 C 4.4333 0.257695 -0.0869691 0
M  V30 12 N 5.50796 -0.120792 -0.956091 0
M  V30 13 N 4.77155 0.980319 0.936442 0
M  V30 14 H -5.66599 1.53394 -0.779964 0
M  V30 15 H -3.94458 1.68096 -1.2238 0
M  V30 16 H -5.96028 0.616419 1.50022 0
M  V30 17 H -3.57718 -1.7759 -0.255336 0
M  V30 18 H -1.86934 0.447409 -0.436673 0
M  V30 19 H -2.01464 -0.00400299 1.35585 0
M  V30 20 H -1.18883 -2.349 0.687154 0
M  V30 21 H -0.991461 -1.65812 -0.973832 0
M  V30 22 H 1.08176 -1.68954 0.28633 0
M  V30 23 H 0.448831 -0.575829 1.51932 0
M  V30 24 H 0.557997 0.0108036 -1.49875 0
M  V30 25 H -0.00653822 1.15621 -0.165904 0
M  V30 26 H 2.24606 1.68195 -0.868812 0
M  V30 27 H 2.04918 1.28718 0.864113 0
M  V30 28 H 2.84175 -1.0826 -0.650803 0
M  V30 29 H 6.30534 -0.633387 -0.49179 0
M  V30 30 H 5.50982 0.090215 -1.97054 0
M  V30 31 H 3.99957 1.26283 1.57717 0
M  V30 END ATOM
M  V30 BEGIN BOND
M  V30 1 1 1 2
M  V30 2 2 2 3 CFG=2
M  V30 3 1 2 4
M  V30 4 1 4 5
M  V30 5 1 5 6
M  V30 6 1 6 7
M  V30 7 1 7 8
M  V30 8 1 8 9
M  V30 9 1 9 10
M  V30 10 1 10 11
M  V30 11 1 11 12
M  V30 12 2 11 13 CFG=2
M  V30 13 1 1 14
M  V30 14 1 1 15
M  V30 15 1 3 16
M  V30 16 1 4 17
M  V30 17 1 5 18
M  V30 18 1 5 19
M  V30 19 1 6 20
M  V30 20 1 6 21
M  V30 21 1 7 22
M  V30 22 1 7 23
M  V30 23 1 8 24
M  V30 24 1 8 25
M  V30 25 1 9 26
M  V30 26 1 9 27
M  V30 27 1 10 28
M  V30 28 1 12 29
M  V30 29 1 12 30
M  V30 30 1 13 31
M  V30 END BOND
M  V30 END CTAB
M  END
