
     RDKit          3D

  0  0  0  0  0  0  0  0  0  0999 V3000
M  V30 BEGIN CTAB
M  V30 COUNTS 26 26 0 0 0
M  V30 BEGIN ATOM
M  V30 1 C 4.59227 0.709662 -0.582591 0
M  V30 2 O 3.41036 -0.0679153 -0.649294 0
M  V30 3 C 2.47369 -0.0812683 0.406831 0
M  V30 4 O 2.79065 0.645048 1.37826 0
M  V30 5 C 1.25367 -0.874958 0.350919 0
M  V30 6 C -0.0213122 -0.143049 0.394184 0
M  V30 7 C -0.202502 1.13578 0.874206 0
M  V30 8 C -1.45743 1.71611 0.855554 0
M  V30 9 C -2.5624 1.06949 0.371575 0
M  V30 10 C -2.36874 -0.210859 -0.106786 0
M  V30 11 C -1.14076 -0.827227 -0.107746 0
M  V30 12 N -1.02032 -2.14918 -0.615959 0
M  V30 13 N -3.47611 -0.946308 -0.630904 0
M  V30 14 C -3.87368 1.66941 0.349905 0
M  V30 15 N -4.93136 2.1701 0.317888 0
M  V30 16 H 4.84613 0.957711 0.460522 0
M  V30 17 H 4.51299 1.63219 -1.2124 0
M  V30 18 H 5.4156 0.0714051 -0.991299 0
M  V30 19 H 1.2261 -1.55286 -0.554521 0
M  V30 20 H 1.19288 -1.62264 1.20167 0
M  V30 21 H 0.647695 1.6802 1.26561 0
M  V30 22 H -1.59996 2.71795 1.23085 0
M  V30 23 H -0.331212 -2.81486 -0.203578 0
M  V30 24 H -1.60326 -2.50125 -1.40484 0
M  V30 25 H -3.97939 -0.536943 -1.44534 0
M  V30 26 H -3.7936 -1.84574 -0.25007 0
M  V30 END ATOM
M  V30 BEGIN BOND
M  V30 1 1 1 2
M  V30 2 1 2 3
M  V30 3 2 3 4
M  V30 4 1 3 5
M  V30 5 1 5 6
M  V30 6 2 6 7
M  V30 7 1 7 8
M  V30 8 2 8 9
M  V30 9 1 9 10
M  V30 10 2 10 11
M  V30 11 1 11 12
M  V30 12 1 10 13
M  V30 13 1 9 14
M  V30 14 3 14 15
M  V30 15 1 11 6
M  V30 16 1 1 16
M  V30 17 1 1 17
M  V30 18 1 1 18
M  V30 19 1 5 19
M  V30 20 1 5 20
M  V30 21 1 7 21
M  V30 22 1 8 22
M  V30 23 1 12 23
M  V30 24 1 12 24
M  V30 25 1 13 25
M  V30 26 1 13 26
M  V30 END BOND
M  V30 END CTAB
M  END
