
     RDKit          3D

  0  0  0  0  0  0  0  0  0  0999 V3000
M  V30 BEGIN CTAB
M  V30 COUNTS 46 48 0 0 0
M  V30 BEGIN ATOM
M  V30 1 O -0.584206 1.78739 1.50131 0
M  V30 2 C -0.258719 1.13475 0.401102 0
M  V30 3 N -1.313 0.647328 -0.37491 0
M  V30 4 C -2.62886 1.13888 0.01105 0
M  V30 5 C -2.76827 2.44636 -0.0857303 0
M  V30 6 C -4.03225 3.11727 0.262261 0
M  V30 7 C -4.85997 2.38781 1.25716 0
M  V30 8 C -4.44846 1.00684 1.59906 0
M  V30 9 C -3.70779 0.279232 0.483724 0
M  V30 10 C -1.22138 -0.304139 -1.41373 0
M  V30 11 C -1.47244 -1.71663 -1.06696 0
M  V30 12 C -2.64291 -2.38158 -1.51592 0
M  V30 13 C -2.61212 -3.68049 -1.04092 0
M  V30 14 C -1.42145 -3.75516 -0.322806 0
M  V30 15 O -0.829151 -2.59985 -0.384733 0
M  V30 16 C 1.18535 1.06699 0.2014 0
M  V30 17 S 1.88372 -0.550876 0.379454 0
M  V30 18 C 3.66637 -0.545809 0.232494 0
M  V30 19 N 4.37635 0.58066 0.0934751 0
M  V30 20 C 5.71599 0.529951 -0.0494185 0
M  V30 21 N 6.45987 1.75044 -0.181917 0
M  V30 22 C 6.37615 -0.687641 -0.0559997 0
M  V30 23 C 5.65798 -1.8423 0.0859883 0
M  V30 24 N 4.31271 -1.72443 0.227069 0
M  V30 25 N 6.29586 -3.13772 0.0719363 0
M  V30 26 H -1.92406 3.07776 -0.43511 0
M  V30 27 H -4.59786 3.31686 -0.696785 0
M  V30 28 H -3.79718 4.16697 0.624918 0
M  V30 29 H -4.87568 3.00349 2.20219 0
M  V30 30 H -5.91448 2.33157 0.841111 0
M  V30 31 H -3.88096 0.933506 2.55864 0
M  V30 32 H -5.37311 0.38408 1.76796 0
M  V30 33 H -4.48141 0.0707422 -0.301086 0
M  V30 34 H -3.37335 -0.684401 0.936645 0
M  V30 35 H -0.186132 -0.288403 -1.91027 0
M  V30 36 H -1.87414 0.0409839 -2.25491 0
M  V30 37 H -3.42229 -1.95776 -2.11827 0
M  V30 38 H -3.35059 -4.45785 -1.19616 0
M  V30 39 H -1.12092 -4.67155 0.17606 0
M  V30 40 H 1.36457 1.50024 -0.843639 0
M  V30 41 H 1.71626 1.83771 0.846865 0
M  V30 42 H 7.438 1.79338 0.17009 0
M  V30 43 H 6.0394 2.59153 -0.62118 0
M  V30 44 H 7.47352 -0.728904 -0.175325 0
M  V30 45 H 5.79962 -3.92343 -0.394388 0
M  V30 46 H 7.21141 -3.28378 0.508216 0
M  V30 END ATOM
M  V30 BEGIN BOND
M  V30 1 2 1 2
M  V30 2 1 2 3
M  V30 3 1 3 4
M  V30 4 2 4 5
M  V30 5 1 5 6
M  V30 6 1 6 7
M  V30 7 1 7 8
M  V30 8 1 8 9
M  V30 9 1 3 10
M  V30 10 1 10 11
M  V30 11 2 11 12
M  V30 12 1 12 13
M  V30 13 2 13 14
M  V30 14 1 14 15
M  V30 15 1 2 16
M  V30 16 1 16 17
M  V30 17 1 17 18
M  V30 18 2 18 19
M  V30 19 1 19 20
M  V30 20 1 20 21
M  V30 21 2 20 22
M  V30 22 1 22 23
M  V30 23 2 23 24
M  V30 24 1 23 25
M  V30 25 1 9 4
M  V30 26 1 15 11
M  V30 27 1 24 18
M  V30 28 1 5 26
M  V30 29 1 6 27
M  V30 30 1 6 28
M  V30 31 1 7 29
M  V30 32 1 7 30
M  V30 33 1 8 31
M  V30 34 1 8 32
M  V30 35 1 9 33
M  V30 36 1 9 34
M  V30 37 1 10 35
M  V30 38 1 10 36
M  V30 39 1 12 37
M  V30 40 1 13 38
M  V30 41 1 14 39
M  V30 42 1 16 40
M  V30 43 1 16 41
M  V30 44 1 21 42
M  V30 45 1 21 43
M  V30 46 1 22 44
M  V30 47 1 25 45
M  V30 48 1 25 46
M  V30 END BOND
M  V30 END CTAB
M  END
