
     RDKit          3D

  0  0  0  0  0  0  0  0  0  0999 V3000
M  V30 BEGIN CTAB
M  V30 COUNTS 44 46 0 0 0
M  V30 BEGIN ATOM
M  V30 1 C 5.19977 1.23658 -0.462753 0
M  V30 2 C 4.81891 1.0437 0.976186 0
M  V30 3 O 3.8556 0.0869802 1.22072 0
M  V30 4 C 2.71497 0.404901 0.527551 0
M  V30 5 C 1.47915 0.536076 1.47035 0
M  V30 6 C 0.721807 0.121128 0.201098 0
M  V30 7 C 1.92038 -0.727848 -0.0863964 0
M  V30 8 C 2.2395 -0.865835 -1.57511 0
M  V30 9 C 2.04888 -2.0385 0.658628 0
M  V30 10 N 0.756373 1.28252 -0.705479 0
M  V30 11 C -0.589012 -0.455367 0.363677 0
M  V30 12 O -0.964106 -1.50632 1.02858 0
M  V30 13 N -2.2419 -1.71271 0.937116 0
M  V30 14 C -2.7825 -0.756974 0.169612 0
M  V30 15 N -1.75028 0.014671 -0.179192 0
M  V30 16 C -4.23259 -0.601148 -0.201625 0
M  V30 17 N -4.89075 -1.77973 -0.655911 0
M  V30 18 C -4.4479 0.551452 -1.16868 0
M  V30 19 C -5.11505 1.38981 -0.124248 0
M  V30 20 C -4.99641 0.228168 0.817465 0
M  V30 21 H 4.47613 1.88737 -1.01583 0
M  V30 22 H 5.39292 0.27325 -0.975326 0
M  V30 23 H 6.16591 1.79526 -0.498926 0
M  V30 24 H 4.40758 2.03051 1.34413 0
M  V30 25 H 5.77795 0.866127 1.52467 0
M  V30 26 H 2.73935 1.28505 -0.128977 0
M  V30 27 H 1.55848 -0.255543 2.22217 0
M  V30 28 H 1.30047 1.56194 1.79014 0
M  V30 29 H 3.27048 -1.23068 -1.66742 0
M  V30 30 H 2.17188 0.158932 -1.98421 0
M  V30 31 H 1.49622 -1.49654 -2.10892 0
M  V30 32 H 1.30091 -2.1009 1.46303 0
M  V30 33 H 3.07222 -2.05643 1.11575 0
M  V30 34 H 1.89527 -2.88571 -0.0389959 0
M  V30 35 H 0.0929791 1.97178 -0.261217 0
M  V30 36 H 0.227164 0.929265 -1.55828 0
M  V30 37 H -4.35983 -2.23054 -1.42746 0
M  V30 38 H -5.16767 -2.45037 0.0944181 0
M  V30 39 H -5.08547 0.308021 -2.05157 0
M  V30 40 H -3.4929 1.00883 -1.5454 0
M  V30 41 H -6.1749 1.60213 -0.411415 0
M  V30 42 H -4.539 2.27724 0.165774 0
M  V30 43 H -5.95996 -0.194061 1.12349 0
M  V30 44 H -4.31107 0.4935 1.67756 0
M  V30 END ATOM
M  V30 BEGIN BOND
M  V30 1 1 1 2
M  V30 2 1 2 3
M  V30 3 1 3 4
M  V30 4 1 4 5
M  V30 5 1 5 6
M  V30 6 1 6 7
M  V30 7 1 7 8
M  V30 8 1 7 9
M  V30 9 1 6 10
M  V30 10 1 6 11
M  V30 11 1 11 12
M  V30 12 1 12 13
M  V30 13 2 13 14
M  V30 14 1 14 15
M  V30 15 1 14 16
M  V30 16 1 16 17
M  V30 17 1 16 18
M  V30 18 1 18 19
M  V30 19 1 19 20
M  V30 20 1 7 4
M  V30 21 2 15 11
M  V30 22 1 20 16
M  V30 23 1 1 21
M  V30 24 1 1 22
M  V30 25 1 1 23
M  V30 26 1 2 24
M  V30 27 1 2 25
M  V30 28 1 4 26
M  V30 29 1 5 27
M  V30 30 1 5 28
M  V30 31 1 8 29
M  V30 32 1 8 30
M  V30 33 1 8 31
M  V30 34 1 9 32
M  V30 35 1 9 33
M  V30 36 1 9 34
M  V30 37 1 10 35
M  V30 38 1 10 36
M  V30 39 1 17 37
M  V30 40 1 17 38
M  V30 41 1 18 39
M  V30 42 1 18 40
M  V30 43 1 19 41
M  V30 44 1 19 42
M  V30 45 1 20 43
M  V30 46 1 20 44
M  V30 END BOND
M  V30 END CTAB
M  END
