
     RDKit          3D

  0  0  0  0  0  0  0  0  0  0999 V3000
M  V30 BEGIN CTAB
M  V30 COUNTS 26 25 0 0 0
M  V30 BEGIN ATOM
M  V30 1 N 4.83029 0.547809 0.37483 0
M  V30 2 C 3.39158 0.439603 0.537913 0
M  V30 3 C 2.87877 -0.450657 -0.535515 0
M  V30 4 O 1.51299 -0.6276 -0.487108 0
M  V30 5 C 1.05874 -1.19143 0.674397 0
M  V30 6 C -0.454683 -1.32544 0.528128 0
M  V30 7 S -1.21517 0.30693 0.272804 0
M  V30 8 C -2.99609 0.0550221 0.110831 0
M  V30 9 C -3.70044 1.3831 -0.105969 0
M  V30 10 N -5.12001 1.14288 -0.230865 0
M  V30 11 H 5.15022 0.301987 -0.574165 0
M  V30 12 H 5.20909 1.42992 0.757179 0
M  V30 13 H 2.96646 1.45318 0.428572 0
M  V30 14 H 3.12607 0.0333378 1.53461 0
M  V30 15 H 3.09192 0.036179 -1.52921 0
M  V30 16 H 3.38903 -1.45077 -0.533722 0
M  V30 17 H 1.21916 -0.54062 1.56976 0
M  V30 18 H 1.4448 -2.21332 0.834919 0
M  V30 19 H -0.623076 -1.91437 -0.395399 0
M  V30 20 H -0.87971 -1.82922 1.41222 0
M  V30 21 H -3.42771 -0.433498 1.01662 0
M  V30 22 H -3.18354 -0.546199 -0.805453 0
M  V30 23 H -3.27505 1.86351 -1.01977 0
M  V30 24 H -3.54472 2.06727 0.757101 0
M  V30 25 H -5.4531 1.27199 -1.22708 0
M  V30 26 H -5.39581 0.190415 0.0422901 0
M  V30 END ATOM
M  V30 BEGIN BOND
M  V30 1 1 1 2
M  V30 2 1 2 3
M  V30 3 1 3 4
M  V30 4 1 4 5
M  V30 5 1 5 6
M  V30 6 1 6 7
M  V30 7 1 7 8
M  V30 8 1 8 9
M  V30 9 1 9 10
M  V30 10 1 1 11
M  V30 11 1 1 12
M  V30 12 1 2 13
M  V30 13 1 2 14
M  V30 14 1 3 15
M  V30 15 1 3 16
M  V30 16 1 5 17
M  V30 17 1 5 18
M  V30 18 1 6 19
M  V30 19 1 6 20
M  V30 20 1 8 21
M  V30 21 1 8 22
M  V30 22 1 9 23
M  V30 23 1 9 24
M  V30 24 1 10 25
M  V30 25 1 10 26
M  V30 END BOND
M  V30 END CTAB
M  END
