
     RDKit          3D

  0  0  0  0  0  0  0  0  0  0999 V3000
M  V30 BEGIN CTAB
M  V30 COUNTS 25 25 0 0 0
M  V30 BEGIN ATOM
M  V30 1 C -4.22652 0.13435 0.634339 0
M  V30 2 C -3.93869 -0.128346 -0.807594 0
M  V30 3 S -2.57642 0.775212 -1.47653 0
M  V30 4 C -1.00601 0.380056 -0.765722 0
M  V30 5 C -0.386174 1.19361 0.218799 0
M  V30 6 Cl -1.25289 2.53593 0.900008 0
M  V30 7 N 0.915159 0.840567 0.575165 0
M  V30 8 C 1.57545 -0.242555 -0.000112886 0
M  V30 9 C 2.91474 -0.58769 0.531794 0
M  V30 10 O 3.34903 -1.73831 0.448995 0
M  V30 11 N 3.54389 0.447572 1.06261 0
M  V30 12 N 4.23058 1.47668 1.61158 0
M  V30 13 C 0.960543 -0.985822 -0.923992 0
M  V30 14 N 1.61201 -2.10064 -1.58043 0
M  V30 15 N -0.299423 -0.651167 -1.26887 0
M  V30 16 H -5.11279 -0.506507 1.01624 0
M  V30 17 H -4.6348 1.19074 0.692944 0
M  V30 18 H -3.38842 0.0668714 1.33274 0
M  V30 19 H -3.81255 -1.22582 -1.02485 0
M  V30 20 H -4.85148 0.155138 -1.35872 0
M  V30 21 H 4.8097 -0.058099 0.688787 0
M  V30 22 H 3.94064 1.71652 2.63191 0
M  V30 23 H 3.9557 2.31851 0.991814 0
M  V30 24 H 1.82048 -3.02072 -1.14416 0
M  V30 25 H 1.85825 -1.98608 -2.57772 0
M  V30 END ATOM
M  V30 BEGIN BOND
M  V30 1 1 1 2
M  V30 2 1 2 3
M  V30 3 1 3 4
M  V30 4 2 4 5
M  V30 5 1 5 6
M  V30 6 1 5 7
M  V30 7 2 7 8
M  V30 8 1 8 9
M  V30 9 2 9 10
M  V30 10 1 9 11
M  V30 11 1 11 12
M  V30 12 1 8 13
M  V30 13 1 13 14
M  V30 14 2 13 15
M  V30 15 1 15 4
M  V30 16 1 1 16
M  V30 17 1 1 17
M  V30 18 1 1 18
M  V30 19 1 2 19
M  V30 20 1 2 20
M  V30 21 1 11 21
M  V30 22 1 12 22
M  V30 23 1 12 23
M  V30 24 1 14 24
M  V30 25 1 14 25
M  V30 END BOND
M  V30 END CTAB
M  END
