
     RDKit          3D

  0  0  0  0  0  0  0  0  0  0999 V3000
M  V30 BEGIN CTAB
M  V30 COUNTS 81 83 0 0 0
M  V30 BEGIN ATOM
M  V30 1 C -1.70364 2.70192 -1.17179 0
M  V30 2 N -1.55814 2.39676 0.186429 0
M  V30 3 C -2.56204 1.78204 0.932842 0
M  V30 4 C -3.77986 2.64993 1.04871 0
M  V30 5 O -3.37306 3.98255 0.810901 0
M  V30 6 C -4.7787 2.28617 -0.00635093 0
M  V30 7 O -5.89983 3.14195 0.0687652 0
M  V30 8 C -5.19408 0.855163 0.165126 0
M  V30 9 C -6.51375 0.828401 0.891013 0
M  V30 10 O -6.33634 1.37411 2.15846 0
M  V30 11 O -4.2898 0.110969 0.891419 0
M  V30 12 C -2.95746 0.398056 0.483897 0
M  V30 13 O -2.18683 -0.519368 1.1969 0
M  V30 14 C -1.50891 -1.42941 0.43886 0
M  V30 15 C -0.0503814 -1.41035 0.809053 0
M  V30 16 O 0.804803 -1.38796 -0.278288 0
M  V30 17 C 1.79281 -0.416167 -0.120253 0
M  V30 18 C 1.60836 0.589218 -1.19079 0
M  V30 19 O 0.692603 0.145675 -2.17232 0
M  V30 20 C 2.85456 0.981949 -1.94181 0
M  V30 21 O 2.63425 2.17528 -2.58828 0
M  V30 22 C 3.92441 1.16481 -0.88279 0
M  V30 23 N 5.0522 1.80964 -1.47556 0
M  V30 24 C 4.96796 3.10358 -2.06356 0
M  V30 25 N 4.47071 4.18653 -1.29469 0
M  V30 26 N 5.32495 3.35732 -3.28251 0
M  V30 27 C 4.29567 -0.233433 -0.454744 0
M  V30 28 O 4.98303 -0.807153 -1.54169 0
M  V30 29 C 3.13079 -1.06756 -0.0449007 0
M  V30 30 N 3.38873 -1.52924 1.30688 0
M  V30 31 C 4.63611 -2.20256 1.53141 0
M  V30 32 N 5.10698 -3.17466 0.616529 0
M  V30 33 N 5.3455 -1.93244 2.56858 0
M  V30 34 O 0.202081 -2.6376 1.45312 0
M  V30 35 C -0.544953 -3.51726 0.665527 0
M  V30 36 C -0.470191 -4.93423 1.06729 0
M  V30 37 C -1.90586 -2.87151 0.824872 0
M  V30 38 O -2.86371 -3.39179 -0.00518428 0
M  V30 39 C -2.31369 -2.77001 2.2742 0
M  V30 40 O -2.63474 -3.99712 2.83723 0
M  V30 41 H -0.708893 3.0104 -1.63661 0
M  V30 42 H -2.15295 1.8963 -1.79551 0
M  V30 43 H -2.32447 3.60307 -1.31039 0
M  V30 44 H -0.912146 3.04366 0.666874 0
M  V30 45 H -2.16403 1.70819 2.0133 0
M  V30 46 H -4.22791 2.59187 2.0785 0
M  V30 47 H -2.52992 4.1103 1.33542 0
M  V30 48 H -4.32677 2.3678 -1.00435 0
M  V30 49 H -5.57845 3.96106 0.518791 0
M  V30 50 H -5.39272 0.372802 -0.83832 0
M  V30 51 H -7.3067 1.36911 0.337502 0
M  V30 52 H -6.78863 -0.246254 1.06118 0
M  V30 53 H -7.22757 1.64093 2.54837 0
M  V30 54 H -2.8382 0.194243 -0.577119 0
M  V30 55 H -1.64454 -1.30703 -0.654284 0
M  V30 56 H 0.239185 -0.642702 1.53121 0
M  V30 57 H 1.59286 0.0759143 0.859565 0
M  V30 58 H 1.18408 1.53743 -0.797618 0
M  V30 59 H 0.519197 0.829176 -2.83919 0
M  V30 60 H 3.19118 0.158675 -2.6057 0
M  V30 61 H 2.34693 1.99732 -3.5179 0
M  V30 62 H 3.52994 1.73088 -0.00884852 0
M  V30 63 H 5.98372 1.3374 -1.49174 0
M  V30 64 H 3.76515 4.81515 -1.68853 0
M  V30 65 H 4.83972 4.31937 -0.333383 0
M  V30 66 H 5.69367 2.53187 -3.83831 0
M  V30 67 H 5.05545 -0.127308 0.347457 0
M  V30 68 H 4.40368 -1.51866 -1.91587 0
M  V30 69 H 3.11934 -1.97871 -0.680183 0
M  V30 70 H 2.72979 -1.39004 2.0737 0
M  V30 71 H 4.47427 -3.88675 0.215414 0
M  V30 72 H 6.10963 -3.17318 0.341551 0
M  V30 73 H 6.23969 -2.41829 2.7252 0
M  V30 74 H -0.226977 -3.33235 -0.386187 0
M  V30 75 H 0.254042 -5.05377 1.91088 0
M  V30 76 H 0.00767391 -5.50522 0.215957 0
M  V30 77 H -1.43177 -5.43712 1.24348 0
M  V30 78 H -2.71924 -4.31801 -0.286573 0
M  V30 79 H -1.47783 -2.25562 2.79966 0
M  V30 80 H -3.24272 -2.16643 2.31316 0
M  V30 81 H -1.84727 -4.23771 3.42233 0
M  V30 END ATOM
M  V30 BEGIN BOND
M  V30 1 1 1 2
M  V30 2 1 2 3
M  V30 3 1 3 4
M  V30 4 1 4 5
M  V30 5 1 4 6
M  V30 6 1 6 7
M  V30 7 1 6 8
M  V30 8 1 8 9
M  V30 9 1 9 10
M  V30 10 1 8 11
M  V30 11 1 11 12
M  V30 12 1 12 13
M  V30 13 1 13 14
M  V30 14 1 14 15
M  V30 15 1 15 16
M  V30 16 1 16 17
M  V30 17 1 17 18
M  V30 18 1 18 19
M  V30 19 1 18 20
M  V30 20 1 20 21
M  V30 21 1 20 22
M  V30 22 1 22 23
M  V30 23 1 23 24
M  V30 24 1 24 25
M  V30 25 2 24 26 CFG=2
M  V30 26 1 22 27
M  V30 27 1 27 28
M  V30 28 1 27 29
M  V30 29 1 29 30
M  V30 30 1 30 31
M  V30 31 1 31 32
M  V30 32 2 31 33 CFG=2
M  V30 33 1 15 34
M  V30 34 1 34 35
M  V30 35 1 35 36
M  V30 36 1 35 37
M  V30 37 1 37 38
M  V30 38 1 37 39
M  V30 39 1 39 40
M  V30 40 1 12 3
M  V30 41 1 37 14
M  V30 42 1 29 17
M  V30 43 1 1 41
M  V30 44 1 1 42
M  V30 45 1 1 43
M  V30 46 1 2 44
M  V30 47 1 3 45
M  V30 48 1 4 46
M  V30 49 1 5 47
M  V30 50 1 6 48
M  V30 51 1 7 49
M  V30 52 1 8 50
M  V30 53 1 9 51
M  V30 54 1 9 52
M  V30 55 1 10 53
M  V30 56 1 12 54
M  V30 57 1 14 55
M  V30 58 1 15 56
M  V30 59 1 17 57
M  V30 60 1 18 58
M  V30 61 1 19 59
M  V30 62 1 20 60
M  V30 63 1 21 61
M  V30 64 1 22 62
M  V30 65 1 23 63
M  V30 66 1 25 64
M  V30 67 1 25 65
M  V30 68 1 26 66
M  V30 69 1 27 67
M  V30 70 1 28 68
M  V30 71 1 29 69
M  V30 72 1 30 70
M  V30 73 1 32 71
M  V30 74 1 32 72
M  V30 75 1 33 73
M  V30 76 1 35 74
M  V30 77 1 36 75
M  V30 78 1 36 76
M  V30 79 1 36 77
M  V30 80 1 38 78
M  V30 81 1 39 79
M  V30 82 1 39 80
M  V30 83 1 40 81
M  V30 END BOND
M  V30 END CTAB
M  END
