
     RDKit          3D

  0  0  0  0  0  0  0  0  0  0999 V3000
M  V30 BEGIN CTAB
M  V30 COUNTS 20 21 0 0 0
M  V30 BEGIN ATOM
M  V30 1 N 3.56396 0.0553124 0.0143979 0
M  V30 2 C 2.12956 0.113062 0.00688746 0
M  V30 3 C 1.4693 1.3219 -0.0427872 0
M  V30 4 N 0.133377 1.41623 -0.0513886 0
M  V30 5 C -0.642955 0.331469 -0.0118524 0
M  V30 6 C -0.000999934 -0.902982 0.0387529 0
M  V30 7 C 1.3671 -1.03112 0.0487955 0
M  V30 8 C -0.794646 -2.04037 0.0802796 0
M  V30 9 N -2.12403 -1.90313 0.0700275 0
M  V30 10 C -2.75229 -0.716784 0.0213564 0
M  V30 11 C -2.02395 0.454185 -0.02173 0
M  V30 12 N -2.61374 1.73758 -0.0740486 0
M  V30 13 H 4.09653 -0.479082 0.716896 0
M  V30 14 H 4.05553 0.582388 -0.729 0
M  V30 15 H 2.05996 2.24076 -0.0765208 0
M  V30 16 H 1.84695 -1.98241 0.0877455 0
M  V30 17 H -0.278941 -2.99336 0.119434 0
M  V30 18 H -3.83409 -0.628367 0.0139301 0
M  V30 19 H -3.06085 2.16364 0.753152 0
M  V30 20 H -2.59578 2.26108 -0.964327 0
M  V30 END ATOM
M  V30 BEGIN BOND
M  V30 1 1 1 2
M  V30 2 2 2 3
M  V30 3 1 3 4
M  V30 4 2 4 5
M  V30 5 1 5 6
M  V30 6 2 6 7
M  V30 7 1 6 8
M  V30 8 2 8 9
M  V30 9 1 9 10
M  V30 10 2 10 11
M  V30 11 1 11 12
M  V30 12 1 7 2
M  V30 13 1 11 5
M  V30 14 1 1 13
M  V30 15 1 1 14
M  V30 16 1 3 15
M  V30 17 1 7 16
M  V30 18 1 8 17
M  V30 19 1 10 18
M  V30 20 1 12 19
M  V30 21 1 12 20
M  V30 END BOND
M  V30 END CTAB
M  END
