
     RDKit          3D

  0  0  0  0  0  0  0  0  0  0999 V3000
M  V30 BEGIN CTAB
M  V30 COUNTS 36 37 0 0 0
M  V30 BEGIN ATOM
M  V30 1 N -4.7026 0.470089 0.876077 0
M  V30 2 C -3.49364 1.08417 0.525334 0 CFG=2
M  V30 3 C -3.43125 1.13493 -1.01229 0
M  V30 4 C -3.01819 -0.272982 -1.30247 0
M  V30 5 N -1.92928 -0.501567 -0.333551 0
M  V30 6 C -2.30761 0.177389 0.879939 0
M  V30 7 C -0.749747 -1.24641 -0.604994 0
M  V30 8 O -0.650156 -1.69701 -1.80181 0
M  V30 9 C 0.266284 -1.48766 0.375176 0
M  V30 10 C 1.56007 -0.793179 0.117121 0
M  V30 11 C 2.49743 -0.852757 1.1271 0
M  V30 12 C 3.74806 -0.244337 1.01394 0
M  V30 13 C 4.07174 0.441489 -0.137245 0
M  V30 14 C 3.12639 0.49364 -1.13894 0
M  V30 15 C 1.87999 -0.117988 -1.01494 0
M  V30 16 C 5.39626 1.11611 -0.3214 0
M  V30 17 N -0.161853 -1.13782 1.70295 0
M  V30 18 H -5.49834 0.713675 0.372331 0
M  V30 19 H -4.77602 -0.0430921 1.69477 0
M  V30 20 H -3.38269 2.09049 0.96453 0
M  V30 21 H -4.41354 1.36856 -1.43785 0
M  V30 22 H -2.68283 1.88635 -1.33888 0
M  V30 23 H -2.65861 -0.43101 -2.33172 0
M  V30 24 H -3.84496 -0.939206 -1.01511 0
M  V30 25 H -1.51174 0.875366 1.25573 0
M  V30 26 H -2.64171 -0.491021 1.68689 0
M  V30 27 H 0.492655 -2.58797 0.39623 0
M  V30 28 H 2.2839 -1.37841 2.04199 0
M  V30 29 H 4.48886 -0.286232 1.80111 0
M  V30 30 H 3.37793 1.03388 -2.04899 0
M  V30 31 H 1.17493 -0.0587302 -1.80352 0
M  V30 32 H 5.7245 1.56864 0.638825 0
M  V30 33 H 6.14641 0.404186 -0.682054 0
M  V30 34 H 5.30612 1.95744 -1.04013 0
M  V30 35 H -0.0788744 -1.91427 2.37027 0
M  V30 36 H 0.39209 -0.334762 2.06802 0
M  V30 END ATOM
M  V30 BEGIN BOND
M  V30 1 1 1 2
M  V30 2 1 2 3
M  V30 3 1 3 4
M  V30 4 1 4 5
M  V30 5 1 5 6
M  V30 6 1 5 7
M  V30 7 2 7 8
M  V30 8 1 7 9
M  V30 9 1 9 10
M  V30 10 2 10 11
M  V30 11 1 11 12
M  V30 12 2 12 13
M  V30 13 1 13 14
M  V30 14 2 14 15
M  V30 15 1 13 16
M  V30 16 1 9 17
M  V30 17 1 6 2
M  V30 18 1 15 10
M  V30 19 1 1 18
M  V30 20 1 1 19
M  V30 21 1 2 20 CFG=1
M  V30 22 1 3 21
M  V30 23 1 3 22
M  V30 24 1 4 23
M  V30 25 1 4 24
M  V30 26 1 6 25
M  V30 27 1 6 26
M  V30 28 1 9 27
M  V30 29 1 11 28
M  V30 30 1 12 29
M  V30 31 1 14 30
M  V30 32 1 15 31
M  V30 33 1 16 32
M  V30 34 1 16 33
M  V30 35 1 16 34
M  V30 36 1 17 35
M  V30 37 1 17 36
M  V30 END BOND
M  V30 END CTAB
M  END
