
     RDKit          3D

  0  0  0  0  0  0  0  0  0  0999 V3000
M  V30 BEGIN CTAB
M  V30 COUNTS 25 26 0 0 0
M  V30 BEGIN ATOM
M  V30 1 N -4.08743 0.505434 0.0845781 0
M  V30 2 C -2.67117 0.633645 0.412993 0
M  V30 3 C -1.90973 -0.0782858 -0.682099 0
M  V30 4 C -0.44175 -0.00800707 -0.443671 0
M  V30 5 C 0.278342 0.760059 0.409617 0
M  V30 6 C 1.60057 0.413768 0.213643 0
M  V30 7 C 1.64304 -0.560892 -0.759587 0
M  V30 8 O 0.389644 -0.764312 -1.1074 0
M  V30 9 C 2.83986 -1.12186 -1.18532 0
M  V30 10 C 4.0095 -0.690727 -0.618562 0
M  V30 11 C 3.99226 0.287618 0.361258 0
M  V30 12 C 2.79905 0.830824 0.769579 0
M  V30 13 N -2.30776 -1.45145 -0.751659 0
M  V30 14 H -4.21524 0.334459 -0.947564 0
M  V30 15 H -4.62091 1.37953 0.307323 0
M  V30 16 H -2.5137 0.182252 1.39572 0
M  V30 17 H -2.43717 1.71483 0.383434 0
M  V30 18 H -2.19109 0.411399 -1.63712 0
M  V30 19 H -0.114012 1.48356 1.0907 0
M  V30 20 H 2.88396 -1.88324 -1.94434 0
M  V30 21 H 4.9773 -1.10793 -0.926284 0
M  V30 22 H 4.92113 0.607283 0.788552 0
M  V30 23 H 2.72936 1.60316 1.53665 0
M  V30 24 H -2.49399 -1.89823 0.153808 0
M  V30 25 H -3.06005 -1.58289 -1.46188 0
M  V30 END ATOM
M  V30 BEGIN BOND
M  V30 1 1 1 2
M  V30 2 1 2 3
M  V30 3 1 3 4
M  V30 4 2 4 5
M  V30 5 1 5 6
M  V30 6 2 6 7
M  V30 7 1 7 8
M  V30 8 1 7 9
M  V30 9 2 9 10
M  V30 10 1 10 11
M  V30 11 2 11 12
M  V30 12 1 3 13
M  V30 13 1 8 4
M  V30 14 1 12 6
M  V30 15 1 1 14
M  V30 16 1 1 15
M  V30 17 1 2 16
M  V30 18 1 2 17
M  V30 19 1 3 18
M  V30 20 1 5 19
M  V30 21 1 9 20
M  V30 22 1 10 21
M  V30 23 1 11 22
M  V30 24 1 12 23
M  V30 25 1 13 24
M  V30 26 1 13 25
M  V30 END BOND
M  V30 END CTAB
M  END
