
     RDKit          3D

  0  0  0  0  0  0  0  0  0  0999 V3000
M  V30 BEGIN CTAB
M  V30 COUNTS 54 56 0 0 0
M  V30 BEGIN ATOM
M  V30 1 C -7.89929 2.41496 1.91657 0
M  V30 2 O -7.74838 1.0278 1.69467 0
M  V30 3 C -6.58914 0.597014 1.05045 0
M  V30 4 C -6.39256 -0.75507 0.808608 0
M  V30 5 C -5.26559 -1.22436 0.177107 0
M  V30 6 C -4.3128 -0.318405 -0.221715 0
M  V30 7 C -4.49644 1.03129 0.0131766 0
M  V30 8 C -5.62784 1.49975 0.646869 0
M  V30 9 C -3.05403 -0.72263 -0.912097 0
M  V30 10 C -2.04532 -0.957531 0.150343 0
M  V30 11 N -0.743346 -1.3611 -0.296012 0
M  V30 12 C -0.208913 -2.55191 -0.520406 0
M  V30 13 C -0.882212 -3.83216 -0.348856 0
M  V30 14 C 1.09299 -2.40847 -0.945183 0
M  V30 15 C 1.37385 -1.07247 -0.9846 0
M  V30 16 C 0.203888 -0.44766 -0.572692 0
M  V30 17 C 0.119126 1.04621 -0.485012 0
M  V30 18 C 2.6296 -0.471628 -1.37604 0
M  V30 19 O 2.75525 0.763394 -1.36851 0
M  V30 20 C 3.75556 -1.32228 -1.78229 0
M  V30 21 S 5.2233 -0.394163 -2.23098 0
M  V30 22 C 5.85424 0.429055 -0.784713 0
M  V30 23 N 6.9757 1.18235 -0.956794 0
M  V30 24 C 7.51871 1.83698 0.0799475 0
M  V30 25 N 8.68932 2.62028 -0.111425 0
M  V30 26 C 6.92646 1.73671 1.32053 0
M  V30 27 C 5.79146 0.972904 1.48922 0
M  V30 28 N 5.28591 0.334721 0.413021 0
M  V30 29 N 5.16905 0.854345 2.74141 0
M  V30 30 H -8.84884 2.58528 2.47145 0
M  V30 31 H -7.89859 2.97144 0.944046 0
M  V30 32 H -7.05538 2.7267 2.56814 0
M  V30 33 H -7.15699 -1.44034 1.13288 0
M  V30 34 H -5.07697 -2.26513 -0.0283838 0
M  V30 35 H -3.72771 1.74408 -0.310509 0
M  V30 36 H -5.75708 2.56105 0.823734 0
M  V30 37 H -2.8356 0.0692239 -1.62589 0
M  V30 38 H -3.30061 -1.70038 -1.41084 0
M  V30 39 H -2.00488 -0.0516156 0.792338 0
M  V30 40 H -2.43088 -1.77144 0.807636 0
M  V30 41 H -1.04707 -4.29554 -1.34435 0
M  V30 42 H -1.77494 -3.81666 0.283901 0
M  V30 43 H -0.161583 -4.52575 0.17457 0
M  V30 44 H 1.80478 -3.20219 -1.21236 0
M  V30 45 H -0.890222 1.34791 -0.186291 0
M  V30 46 H 0.262134 1.4088 -1.53561 0
M  V30 47 H 0.897285 1.4518 0.176551 0
M  V30 48 H 4.04378 -2.00157 -0.931293 0
M  V30 49 H 3.49352 -2.00148 -2.63156 0
M  V30 50 H 9.28196 2.83306 0.700167 0
M  V30 51 H 8.92427 2.96358 -1.06956 0
M  V30 52 H 7.3434 2.25335 2.17101 0
M  V30 53 H 5.52959 0.264515 3.52279 0
M  V30 54 H 4.28808 1.38338 2.91959 0
M  V30 END ATOM
M  V30 BEGIN BOND
M  V30 1 1 1 2
M  V30 2 1 2 3
M  V30 3 2 3 4
M  V30 4 1 4 5
M  V30 5 2 5 6
M  V30 6 1 6 7
M  V30 7 2 7 8
M  V30 8 1 6 9
M  V30 9 1 9 10
M  V30 10 1 10 11
M  V30 11 1 11 12
M  V30 12 1 12 13
M  V30 13 2 12 14
M  V30 14 1 14 15
M  V30 15 2 15 16
M  V30 16 1 16 17
M  V30 17 1 15 18
M  V30 18 2 18 19
M  V30 19 1 18 20
M  V30 20 1 20 21
M  V30 21 1 21 22
M  V30 22 2 22 23
M  V30 23 1 23 24
M  V30 24 1 24 25
M  V30 25 2 24 26
M  V30 26 1 26 27
M  V30 27 2 27 28
M  V30 28 1 27 29
M  V30 29 1 8 3
M  V30 30 1 16 11
M  V30 31 1 28 22
M  V30 32 1 1 30
M  V30 33 1 1 31
M  V30 34 1 1 32
M  V30 35 1 4 33
M  V30 36 1 5 34
M  V30 37 1 7 35
M  V30 38 1 8 36
M  V30 39 1 9 37
M  V30 40 1 9 38
M  V30 41 1 10 39
M  V30 42 1 10 40
M  V30 43 1 13 41
M  V30 44 1 13 42
M  V30 45 1 13 43
M  V30 46 1 14 44
M  V30 47 1 17 45
M  V30 48 1 17 46
M  V30 49 1 17 47
M  V30 50 1 20 48
M  V30 51 1 20 49
M  V30 52 1 25 50
M  V30 53 1 25 51
M  V30 54 1 26 52
M  V30 55 1 29 53
M  V30 56 1 29 54
M  V30 END BOND
M  V30 END CTAB
M  END
