
     RDKit          3D

  0  0  0  0  0  0  0  0  0  0999 V3000
M  V30 BEGIN CTAB
M  V30 COUNTS 53 55 0 0 0
M  V30 BEGIN ATOM
M  V30 1 C -3.84845 2.99629 0.219199 0
M  V30 2 C -4.46752 1.64756 0.160588 0
M  V30 3 C -3.67572 0.498122 0.173685 0
M  V30 4 C -4.1672 -0.7676 0.123127 0
M  V30 5 C -3.34761 -2.03534 0.139646 0
M  V30 6 O -2.86612 -2.40563 -1.04997 0
M  V30 7 C -1.91953 -1.66688 -1.62838 0
M  V30 8 C -0.536594 -1.65751 -1.12251 0 CFG=2
M  V30 9 C -0.209071 -1.33406 0.267871 0
M  V30 10 C 1.2465 -0.854778 0.187959 0 CFG=2
M  V30 11 C 1.24919 -0.145044 -1.13472 0
M  V30 12 N 0.250278 -0.744902 -1.96052 0
M  V30 13 O 2.13652 -1.87655 0.28285 0
M  V30 14 C 3.08599 -1.80804 1.26148 0
M  V30 15 C 3.92275 -0.587503 1.03116 0
M  V30 16 N 3.80825 0.548353 1.70474 0
M  V30 17 C 4.60293 1.58622 1.42592 0
M  V30 18 N 4.42205 2.76549 2.18702 0
M  V30 19 C 5.55851 1.49576 0.431058 0
M  V30 20 C 5.71236 0.33596 -0.293491 0
M  V30 21 C 6.74375 0.2068 -1.38288 0
M  V30 22 C 4.87564 -0.712063 0.0221458 0
M  V30 23 N -5.53375 -0.88266 0.055248 0
M  V30 24 C -6.34312 0.185235 0.0394654 0
M  V30 25 N -7.75754 -0.00961199 -0.0323871 0
M  V30 26 C -5.82869 1.46432 0.0915897 0
M  V30 27 H -4.22915 3.55937 1.0925 0
M  V30 28 H -2.75178 2.85534 0.250706 0
M  V30 29 H -4.08368 3.49424 -0.743062 0
M  V30 30 H -2.62499 0.654013 0.22317 0
M  V30 31 H -4.04795 -2.85824 0.548178 0
M  V30 32 H -2.64408 -1.89699 0.981543 0
M  V30 33 H -1.86592 -2.01544 -2.72618 0
M  V30 34 H -2.24957 -0.581085 -1.79014 0
M  V30 35 H -0.109995 -2.70557 -1.33021 0
M  V30 36 H -0.273873 -2.20587 0.973762 0
M  V30 37 H -0.75059 -0.514975 0.756321 0
M  V30 38 H 1.44767 -0.102639 0.969268 0
M  V30 39 H 0.997309 0.942765 -1.02063 0
M  V30 40 H 2.24434 -0.177704 -1.63431 0
M  V30 41 H -0.365899 -0.0750193 -2.45877 0
M  V30 42 H 2.66734 -1.6816 2.285 0
M  V30 43 H 3.79348 -2.65719 1.26205 0
M  V30 44 H 3.50846 3.23717 2.18869 0
M  V30 45 H 5.20709 3.14258 2.73372 0
M  V30 46 H 6.18628 2.34651 0.226016 0
M  V30 47 H 7.0781 1.2024 -1.70231 0
M  V30 48 H 7.55133 -0.465502 -1.05418 0
M  V30 49 H 6.28323 -0.277673 -2.27945 0
M  V30 50 H 4.99103 -1.63529 -0.547517 0
M  V30 51 H -8.17433 -0.940377 -0.121337 0
M  V30 52 H -8.39536 0.810154 0.00572818 0
M  V30 53 H -6.5023 2.3047 0.077479 0
M  V30 END ATOM
M  V30 BEGIN BOND
M  V30 1 1 1 2
M  V30 2 2 2 3
M  V30 3 1 3 4
M  V30 4 1 4 5
M  V30 5 1 5 6
M  V30 6 1 6 7
M  V30 7 1 7 8
M  V30 8 1 8 9
M  V30 9 1 9 10
M  V30 10 1 10 11
M  V30 11 1 11 12
M  V30 12 1 10 13
M  V30 13 1 13 14
M  V30 14 1 14 15
M  V30 15 2 15 16
M  V30 16 1 16 17
M  V30 17 1 17 18
M  V30 18 2 17 19
M  V30 19 1 19 20
M  V30 20 1 20 21
M  V30 21 2 20 22
M  V30 22 2 4 23
M  V30 23 1 23 24
M  V30 24 1 24 25
M  V30 25 2 24 26
M  V30 26 1 26 2
M  V30 27 1 12 8
M  V30 28 1 22 15
M  V30 29 1 1 27
M  V30 30 1 1 28
M  V30 31 1 1 29
M  V30 32 1 3 30
M  V30 33 1 5 31
M  V30 34 1 5 32
M  V30 35 1 7 33
M  V30 36 1 7 34
M  V30 37 1 8 35 CFG=3
M  V30 38 1 9 36
M  V30 39 1 9 37
M  V30 40 1 10 38 CFG=1
M  V30 41 1 11 39
M  V30 42 1 11 40
M  V30 43 1 12 41
M  V30 44 1 14 42
M  V30 45 1 14 43
M  V30 46 1 18 44
M  V30 47 1 18 45
M  V30 48 1 19 46
M  V30 49 1 21 47
M  V30 50 1 21 48
M  V30 51 1 21 49
M  V30 52 1 22 50
M  V30 53 1 25 51
M  V30 54 1 25 52
M  V30 55 1 26 53
M  V30 END BOND
M  V30 END CTAB
M  END
