
     RDKit          3D

  0  0  0  0  0  0  0  0  0  0999 V3000
M  V30 BEGIN CTAB
M  V30 COUNTS 31 32 0 0 0
M  V30 BEGIN ATOM
M  V30 1 N 0.0900924 -1.8296 1.76688 0
M  V30 2 C 0.348641 -0.611856 0.923163 0
M  V30 3 C -0.909465 -0.211162 0.294718 0
M  V30 4 C -1.7093 0.747586 0.949259 0
M  V30 5 C -1.23675 1.37389 2.1906 0
M  V30 6 C -2.9392 1.14117 0.431029 0
M  V30 7 C -3.40104 0.592255 -0.745085 0
M  V30 8 N -2.64503 -0.312397 -1.35808 0
M  V30 9 C -1.43455 -0.702744 -0.85091 0
M  V30 10 N -0.773414 -1.73363 -1.56651 0
M  V30 11 C 1.46712 -1.03407 0.0208912 0
M  V30 12 C 1.8981 0.117527 -0.888564 0
M  V30 13 C 2.4127 1.34479 -0.194136 0
M  V30 14 C 3.3232 0.498442 -1.0549 0
M  V30 15 H 0.570518 -2.65791 1.37152 0
M  V30 16 H -0.93177 -1.98024 1.76424 0
M  V30 17 H 0.768302 0.105109 1.64888 0
M  V30 18 H -1.8425 2.33478 2.32189 0
M  V30 19 H -0.188897 1.76392 2.125 0
M  V30 20 H -1.379 0.78184 3.10223 0
M  V30 21 H -3.53222 1.88712 0.960631 0
M  V30 22 H -4.36769 0.922627 -1.13737 0
M  V30 23 H -0.737312 -2.67842 -1.15174 0
M  V30 24 H -0.343926 -1.52871 -2.47481 0
M  V30 25 H 2.40402 -1.14964 0.696162 0
M  V30 26 H 1.42159 -1.93468 -0.523443 0
M  V30 27 H 1.16359 0.360302 -1.68222 0
M  V30 28 H 2.66259 1.29313 0.893174 0
M  V30 29 H 2.11829 2.33641 -0.552771 0
M  V30 30 H 4.09194 -0.14606 -0.579441 0
M  V30 31 H 3.63136 0.910224 -2.04941 0
M  V30 END ATOM
M  V30 BEGIN BOND
M  V30 1 1 1 2
M  V30 2 1 2 3
M  V30 3 2 3 4
M  V30 4 1 4 5
M  V30 5 1 4 6
M  V30 6 2 6 7
M  V30 7 1 7 8
M  V30 8 2 8 9
M  V30 9 1 9 10
M  V30 10 1 2 11
M  V30 11 1 11 12
M  V30 12 1 12 13
M  V30 13 1 13 14
M  V30 14 1 9 3
M  V30 15 1 14 12
M  V30 16 1 1 15
M  V30 17 1 1 16
M  V30 18 1 2 17
M  V30 19 1 5 18
M  V30 20 1 5 19
M  V30 21 1 5 20
M  V30 22 1 6 21
M  V30 23 1 7 22
M  V30 24 1 10 23
M  V30 25 1 10 24
M  V30 26 1 11 25
M  V30 27 1 11 26
M  V30 28 1 12 27
M  V30 29 1 13 28
M  V30 30 1 13 29
M  V30 31 1 14 30
M  V30 32 1 14 31
M  V30 END BOND
M  V30 END CTAB
M  END
