
     RDKit          3D

  0  0  0  0  0  0  0  0  0  0999 V3000
M  V30 BEGIN CTAB
M  V30 COUNTS 40 41 0 0 0
M  V30 BEGIN ATOM
M  V30 1 N -5.19339 -0.900644 -0.774937 0
M  V30 2 C -5.26064 0.159747 0.158456 0
M  V30 3 C -4.46104 1.3561 -0.262856 0
M  V30 4 N -3.09729 1.1028 -0.392141 0
M  V30 5 C -2.54496 0.338208 -1.41175 0
M  V30 6 C -1.71351 -0.809177 -0.820077 0
M  V30 7 N -0.621078 -0.139345 -0.135112 0
M  V30 8 C -0.908153 0.95329 0.741669 0
M  V30 9 C -2.37577 1.26602 0.822196 0
M  V30 10 C 0.729574 -0.561035 -0.336954 0
M  V30 11 S 0.954818 -1.83427 -1.3277 0
M  V30 12 N 1.75178 0.095842 0.329869 0
M  V30 13 C 3.1411 -0.201139 0.208454 0
M  V30 14 C 3.95599 -0.0218039 1.33814 0
M  V30 15 C 5.29994 -0.25472 1.27698 0
M  V30 16 C 5.93588 -0.670931 0.134119 0
M  V30 17 C 5.13674 -0.845997 -0.972376 0
M  V30 18 C 3.7588 -0.614898 -0.939523 0
M  V30 19 N 7.33293 -0.900885 0.113697 0
M  V30 20 H -5.66572 -1.74575 -0.395358 0
M  V30 21 H -5.60223 -0.637046 -1.70586 0
M  V30 22 H -4.90779 -0.245012 1.14558 0
M  V30 23 H -6.30407 0.498801 0.379453 0
M  V30 24 H -4.69513 2.21649 0.442768 0
M  V30 25 H -4.87739 1.77613 -1.24468 0
M  V30 26 H -1.86319 0.925441 -2.10314 0
M  V30 27 H -3.29115 -0.114697 -2.07102 0
M  V30 28 H -2.30501 -1.32018 -0.0561045 0
M  V30 29 H -1.33964 -1.4256 -1.63495 0
M  V30 30 H -0.368071 1.84944 0.343982 0
M  V30 31 H -0.521912 0.705657 1.75385 0
M  V30 32 H -2.53886 2.26137 1.29971 0
M  V30 33 H -2.80977 0.530594 1.56317 0
M  V30 34 H 1.45965 0.886916 0.985077 0
M  V30 35 H 3.45493 0.311474 2.2562 0
M  V30 36 H 5.90025 -0.101503 2.18668 0
M  V30 37 H 5.5899 -1.17474 -1.90607 0
M  V30 38 H 3.18295 -0.745661 -1.84529 0
M  V30 39 H 7.70655 -1.86783 0.0920557 0
M  V30 40 H 7.97399 -0.101475 0.120592 0
M  V30 END ATOM
M  V30 BEGIN BOND
M  V30 1 1 1 2
M  V30 2 1 2 3
M  V30 3 1 3 4
M  V30 4 1 4 5
M  V30 5 1 5 6
M  V30 6 1 6 7
M  V30 7 1 7 8
M  V30 8 1 8 9
M  V30 9 1 7 10
M  V30 10 2 10 11
M  V30 11 1 10 12
M  V30 12 1 12 13
M  V30 13 2 13 14
M  V30 14 1 14 15
M  V30 15 2 15 16
M  V30 16 1 16 17
M  V30 17 2 17 18
M  V30 18 1 16 19
M  V30 19 1 9 4
M  V30 20 1 18 13
M  V30 21 1 1 20
M  V30 22 1 1 21
M  V30 23 1 2 22
M  V30 24 1 2 23
M  V30 25 1 3 24
M  V30 26 1 3 25
M  V30 27 1 5 26
M  V30 28 1 5 27
M  V30 29 1 6 28
M  V30 30 1 6 29
M  V30 31 1 8 30
M  V30 32 1 8 31
M  V30 33 1 9 32
M  V30 34 1 9 33
M  V30 35 1 12 34
M  V30 36 1 14 35
M  V30 37 1 15 36
M  V30 38 1 17 37
M  V30 39 1 18 38
M  V30 40 1 19 39
M  V30 41 1 19 40
M  V30 END BOND
M  V30 END CTAB
M  END
