
     RDKit          3D

  0  0  0  0  0  0  0  0  0  0999 V3000
M  V30 BEGIN CTAB
M  V30 COUNTS 32 33 0 0 0
M  V30 BEGIN ATOM
M  V30 1 O 0.523452 1.10844 0.911939 0
M  V30 2 C 0.905901 0.121249 1.56414 0
M  V30 3 N 2.05108 -0.642249 1.26039 0
M  V30 4 C 2.9586 -0.472874 0.222763 0
M  V30 5 C 2.8755 0.517296 -0.713748 0
M  V30 6 C 3.82777 0.637752 -1.74394 0
M  V30 7 C 4.865 -0.240618 -1.83046 0
M  V30 8 C 4.96114 -1.23374 -0.9033 0
M  V30 9 C 4.03584 -1.34642 0.0932102 0
M  V30 10 Cl 4.22206 -2.64193 1.24468 0
M  V30 11 F 5.79176 -0.136254 -2.81997 0
M  V30 12 C 0.0547799 -0.237413 2.74298 0
M  V30 13 S -1.34304 0.896748 2.89936 0
M  V30 14 C -2.47241 0.710777 1.50779 0
M  V30 15 N -3.5878 1.44923 1.4069 0
M  V30 16 C -4.44597 1.32251 0.368157 0
M  V30 17 N -5.62598 2.10776 0.267343 0
M  V30 18 C -4.13608 0.394483 -0.603699 0
M  V30 19 C -2.9926 -0.375161 -0.517798 0
M  V30 20 N -2.19027 -0.184621 0.553102 0
M  V30 21 N -2.62172 -1.33542 -1.4749 0
M  V30 22 H 2.25063 -1.46964 1.92173 0
M  V30 23 H 2.09708 1.25764 -0.731686 0
M  V30 24 H 3.75681 1.42152 -2.48019 0
M  V30 25 H 5.79441 -1.9244 -0.988193 0
M  V30 26 H -0.334821 -1.27937 2.66492 0
M  V30 27 H 0.660745 -0.138275 3.66725 0
M  V30 28 H -5.58482 3.02565 -0.226773 0
M  V30 29 H -6.54402 1.8123 0.666047 0
M  V30 30 H -4.78225 0.25304 -1.44951 0
M  V30 31 H -1.70175 -1.27953 -1.93551 0
M  V30 32 H -3.26901 -2.09847 -1.71893 0
M  V30 END ATOM
M  V30 BEGIN BOND
M  V30 1 2 1 2
M  V30 2 1 2 3
M  V30 3 1 3 4
M  V30 4 2 4 5
M  V30 5 1 5 6
M  V30 6 2 6 7
M  V30 7 1 7 8
M  V30 8 2 8 9
M  V30 9 1 9 10
M  V30 10 1 7 11
M  V30 11 1 2 12
M  V30 12 1 12 13
M  V30 13 1 13 14
M  V30 14 2 14 15
M  V30 15 1 15 16
M  V30 16 1 16 17
M  V30 17 2 16 18
M  V30 18 1 18 19
M  V30 19 2 19 20
M  V30 20 1 19 21
M  V30 21 1 9 4
M  V30 22 1 20 14
M  V30 23 1 3 22
M  V30 24 1 5 23
M  V30 25 1 6 24
M  V30 26 1 8 25
M  V30 27 1 12 26
M  V30 28 1 12 27
M  V30 29 1 17 28
M  V30 30 1 17 29
M  V30 31 1 18 30
M  V30 32 1 21 31
M  V30 33 1 21 32
M  V30 END BOND
M  V30 END CTAB
M  END
