
     RDKit          3D

  0  0  0  0  0  0  0  0  0  0999 V3000
M  V30 BEGIN CTAB
M  V30 COUNTS 61 66 0 0 0
M  V30 BEGIN ATOM
M  V30 1 N 9.46521 1.13273 3.30489 0
M  V30 2 C 8.23842 0.619121 2.80518 0
M  V30 3 C 7.6975 -0.480948 3.43721 0
M  V30 4 C 6.5094 -1.0091 2.98338 0
M  V30 5 C 5.86255 -0.434939 1.89571 0
M  V30 6 C 6.38936 0.664666 1.25269 0
M  V30 7 C 7.58022 1.17851 1.72264 0
M  V30 8 N 5.53314 0.967493 0.258707 0
M  V30 9 C 4.49603 0.114454 0.244749 0
M  V30 10 N 4.70327 -0.746144 1.25344 0
M  V30 11 C 3.35237 0.115864 -0.692851 0
M  V30 12 C 2.35551 -0.818766 -0.605226 0
M  V30 13 C 1.27983 -0.800867 -1.50415 0
M  V30 14 C 1.19406 0.148982 -2.49452 0
M  V30 15 C 2.18212 1.07978 -2.58505 0
M  V30 16 C 3.25939 1.06369 -1.68622 0
M  V30 17 C 0.0310484 0.0989186 -3.41506 0
M  V30 18 C -0.150706 1.31053 -4.26651 0
M  V30 19 F -0.327864 2.48666 -3.55542 0
M  V30 20 F -1.40223 1.12464 -4.90041 0
M  V30 21 F 0.73394 1.43123 -5.31097 0
M  V30 22 C 0.24512 -1.07189 -4.32313 0
M  V30 23 F 1.46393 -0.823646 -4.98242 0
M  V30 24 F -0.675238 -1.10989 -5.38654 0
M  V30 25 F 0.361747 -2.28301 -3.72024 0
M  V30 26 C -1.16844 -0.0189844 -2.54238 0
M  V30 27 C -2.18124 -0.912504 -2.70909 0
M  V30 28 C -3.26935 -0.956698 -1.83562 0
M  V30 29 C -3.36545 -0.0954045 -0.763965 0
M  V30 30 C -2.34591 0.812368 -0.585969 0
M  V30 31 C -1.2568 0.849592 -1.46818 0
M  V30 32 C -4.51555 -0.160097 0.137315 0
M  V30 33 N -4.76702 0.599045 1.21464 0
M  V30 34 C -5.94285 0.240905 1.80002 0
M  V30 35 C -6.43561 -0.78066 1.05252 0
M  V30 36 N -5.54649 -1.00899 0.0413237 0
M  V30 37 C -7.64055 -1.38991 1.37668 0
M  V30 38 C -8.31646 -0.92062 2.48251 0
M  V30 39 C -7.82705 0.114373 3.24806 0
M  V30 40 C -6.63096 0.694875 2.89868 0
M  V30 41 N -8.52954 0.602725 4.39771 0
M  V30 42 H 9.6108 2.12995 3.57589 0
M  V30 43 H 10.2641 0.462688 3.4035 0
M  V30 44 H 8.22751 -0.916386 4.29374 0
M  V30 45 H 6.05247 -1.85809 3.43911 0
M  V30 46 H 7.99402 2.03894 1.22012 0
M  V30 47 H 4.07143 -1.5314 1.50436 0
M  V30 48 H 2.39035 -1.58204 0.161978 0
M  V30 49 H 0.49968 -1.5503 -1.40378 0
M  V30 50 H 2.13694 1.82687 -3.34106 0
M  V30 51 H 4.04246 1.80936 -1.76598 0
M  V30 52 H -2.16011 -1.59982 -3.51246 0
M  V30 53 H -4.07508 -1.67244 -1.97368 0
M  V30 54 H -2.42393 1.48626 0.25503 0
M  V30 55 H -0.478436 1.57075 -1.28922 0
M  V30 56 H -5.67575 -1.7448 -0.687614 0
M  V30 57 H -8.03568 -2.20374 0.783703 0
M  V30 58 H -9.27748 -1.37297 2.78041 0
M  V30 59 H -6.19078 1.51852 3.4651 0
M  V30 60 H -8.06077 0.845589 5.29316 0
M  V30 61 H -9.55061 0.714978 4.32168 0
M  V30 END ATOM
M  V30 BEGIN BOND
M  V30 1 1 1 2
M  V30 2 2 2 3
M  V30 3 1 3 4
M  V30 4 2 4 5
M  V30 5 1 5 6
M  V30 6 2 6 7
M  V30 7 1 6 8
M  V30 8 2 8 9
M  V30 9 1 9 10
M  V30 10 1 9 11
M  V30 11 2 11 12
M  V30 12 1 12 13
M  V30 13 2 13 14
M  V30 14 1 14 15
M  V30 15 2 15 16
M  V30 16 1 14 17
M  V30 17 1 17 18
M  V30 18 1 18 19
M  V30 19 1 18 20
M  V30 20 1 18 21
M  V30 21 1 17 22
M  V30 22 1 22 23
M  V30 23 1 22 24
M  V30 24 1 22 25
M  V30 25 1 17 26
M  V30 26 2 26 27
M  V30 27 1 27 28
M  V30 28 2 28 29
M  V30 29 1 29 30
M  V30 30 2 30 31
M  V30 31 1 29 32
M  V30 32 2 32 33
M  V30 33 1 33 34
M  V30 34 2 34 35
M  V30 35 1 35 36
M  V30 36 1 35 37
M  V30 37 2 37 38
M  V30 38 1 38 39
M  V30 39 2 39 40
M  V30 40 1 39 41
M  V30 41 1 7 2
M  V30 42 1 16 11
M  V30 43 1 31 26
M  V30 44 1 36 32
M  V30 45 1 10 5
M  V30 46 1 40 34
M  V30 47 1 1 42
M  V30 48 1 1 43
M  V30 49 1 3 44
M  V30 50 1 4 45
M  V30 51 1 7 46
M  V30 52 1 10 47
M  V30 53 1 12 48
M  V30 54 1 13 49
M  V30 55 1 15 50
M  V30 56 1 16 51
M  V30 57 1 27 52
M  V30 58 1 28 53
M  V30 59 1 30 54
M  V30 60 1 31 55
M  V30 61 1 36 56
M  V30 62 1 37 57
M  V30 63 1 38 58
M  V30 64 1 40 59
M  V30 65 1 41 60
M  V30 66 1 41 61
M  V30 END BOND
M  V30 END CTAB
M  END
