
     RDKit          3D

  0  0  0  0  0  0  0  0  0  0999 V3000
M  V30 BEGIN CTAB
M  V30 COUNTS 23 24 0 0 0
M  V30 BEGIN ATOM
M  V30 1 N -3.23097 -2.13132 0.748177 0
M  V30 2 C -2.43501 -1.07798 0.231551 0
M  V30 3 N -1.08813 -1.0275 0.444744 0
M  V30 4 C -0.322599 -0.0369096 -0.0380183 0
M  V30 5 N -0.915231 0.933383 -0.754974 0
M  V30 6 C -2.25221 0.943966 -1.0047 0
M  V30 7 N -2.85507 1.98069 -1.76521 0
M  V30 8 N -2.96104 -0.0754966 -0.493508 0
M  V30 9 C 1.13067 0.00614356 0.19919 0
M  V30 10 C 1.67891 -1.01952 0.942716 0
M  V30 11 C 3.04561 -0.994451 1.17554 0
M  V30 12 C 3.82466 0.0299479 0.674197 0
M  V30 13 C 3.26432 1.06285 -0.0760733 0
M  V30 14 C 1.90838 1.02268 -0.297465 0
M  V30 15 Br 1.06248 2.3908 -1.3102 0
M  V30 16 H -3.81478 -2.71332 0.138552 0
M  V30 17 H -3.20545 -2.29821 1.77236 0
M  V30 18 H -3.69577 1.82349 -2.35787 0
M  V30 19 H -2.45879 2.93649 -1.74321 0
M  V30 20 H 1.04882 -1.81892 1.3299 0
M  V30 21 H 3.49516 -1.77718 1.74862 0
M  V30 22 H 4.87544 0.00657341 0.879974 0
M  V30 23 H 3.9006 1.83379 -0.444289 0
M  V30 END ATOM
M  V30 BEGIN BOND
M  V30 1 1 1 2
M  V30 2 2 2 3
M  V30 3 1 3 4
M  V30 4 2 4 5
M  V30 5 1 5 6
M  V30 6 1 6 7
M  V30 7 2 6 8
M  V30 8 1 4 9
M  V30 9 2 9 10
M  V30 10 1 10 11
M  V30 11 2 11 12
M  V30 12 1 12 13
M  V30 13 2 13 14
M  V30 14 1 14 15
M  V30 15 1 8 2
M  V30 16 1 14 9
M  V30 17 1 1 16
M  V30 18 1 1 17
M  V30 19 1 7 18
M  V30 20 1 7 19
M  V30 21 1 10 20
M  V30 22 1 11 21
M  V30 23 1 12 22
M  V30 24 1 13 23
M  V30 END BOND
M  V30 END CTAB
M  END
