
     RDKit          3D

  0  0  0  0  0  0  0  0  0  0999 V3000
M  V30 BEGIN CTAB
M  V30 COUNTS 25 25 0 0 0
M  V30 BEGIN ATOM
M  V30 1 C 4.39543 0.75387 -0.164502 0
M  V30 2 C 3.34645 -0.335295 -0.131665 0
M  V30 3 O 2.07609 0.289139 -0.142339 0
M  V30 4 C 0.922409 -0.487379 -0.117204 0
M  V30 5 O 1.08162 -1.73545 -0.085548 0
M  V30 6 C -0.411361 0.113702 -0.126996 0
M  V30 7 C -0.609843 1.47203 -0.161322 0
M  V30 8 C -1.88033 2.02413 -0.170114 0
M  V30 9 Br -2.10273 3.91992 -0.218256 0
M  V30 10 C -2.98597 1.20188 -0.14402 0
M  V30 11 C -2.81192 -0.176413 -0.109072 0
M  V30 12 C -1.51987 -0.703848 -0.101012 0
M  V30 13 N -1.39468 -2.12038 -0.0648474 0
M  V30 14 N -3.92044 -1.06994 -0.0811339 0
M  V30 15 H 4.78614 0.942196 0.874591 0
M  V30 16 H 5.2107 0.411234 -0.822676 0
M  V30 17 H 3.9477 1.71867 -0.492779 0
M  V30 18 H 3.49633 -0.906038 0.808112 0
M  V30 19 H 3.47999 -1.02656 -0.96832 0
M  V30 20 H 0.228508 2.15255 -0.182581 0
M  V30 21 H -4.0051 1.60676 -0.150087 0
M  V30 22 H -1.4352 -2.61738 0.855279 0
M  V30 23 H -1.26533 -2.60679 -0.980383 0
M  V30 24 H -4.05772 -1.5995 0.812328 0
M  V30 25 H -4.57088 -1.2211 -0.857479 0
M  V30 END ATOM
M  V30 BEGIN BOND
M  V30 1 1 1 2
M  V30 2 1 2 3
M  V30 3 1 3 4
M  V30 4 2 4 5
M  V30 5 1 4 6
M  V30 6 2 6 7
M  V30 7 1 7 8
M  V30 8 1 8 9
M  V30 9 2 8 10
M  V30 10 1 10 11
M  V30 11 2 11 12
M  V30 12 1 12 13
M  V30 13 1 11 14
M  V30 14 1 12 6
M  V30 15 1 1 15
M  V30 16 1 1 16
M  V30 17 1 1 17
M  V30 18 1 2 18
M  V30 19 1 2 19
M  V30 20 1 7 20
M  V30 21 1 10 21
M  V30 22 1 13 22
M  V30 23 1 13 23
M  V30 24 1 14 24
M  V30 25 1 14 25
M  V30 END BOND
M  V30 END CTAB
M  END
