
     RDKit          3D

  0  0  0  0  0  0  0  0  0  0999 V3000
M  V30 BEGIN CTAB
M  V30 COUNTS 47 49 0 0 0
M  V30 BEGIN ATOM
M  V30 1 C -1.43668 3.34914 0.506189 0 CFG=2
M  V30 2 C -0.716358 4.39663 -0.349282 0
M  V30 3 N -1.57914 3.90763 1.83405 0
M  V30 4 C -0.565588 2.16039 0.538368 0
M  V30 5 O -0.0850005 1.80128 1.64381 0
M  V30 6 O -0.263727 1.42927 -0.620534 0
M  V30 7 C 0.568916 0.32634 -0.467542 0 CFG=2
M  V30 8 C 1.75441 0.332754 -1.41335 0 CFG=2
M  V30 9 O 1.31599 0.619549 -2.68831 0
M  V30 10 C 2.11277 -1.13879 -1.37067 0 CFG=1
M  V30 11 C 3.26895 -1.26786 -0.400745 0
M  V30 12 O 3.66235 -2.59023 -0.234477 0
M  V30 13 P 4.93863 -2.66219 0.845196 0
M  V30 14 O 4.67559 -1.77099 2.23897 0
M  V30 15 O 6.34231 -2.06599 0.089851 0
M  V30 16 O 5.21845 -4.12609 1.15785 0
M  V30 17 O 1.00168 -1.82865 -0.957806 0
M  V30 18 C -0.0728887 -0.97309 -0.922145 0 CFG=1
M  V30 19 N -1.13534 -1.3918 -0.0716466 0
M  V30 20 C -1.02865 -2.22086 0.981826 0
M  V30 21 N -2.24683 -2.37881 1.53588 0
M  V30 22 C -3.15199 -1.66027 0.854706 0
M  V30 23 C -2.43736 -1.0384 -0.162211 0
M  V30 24 N -3.1091 -0.249716 -1.0017 0
M  V30 25 C -4.43428 -0.0778984 -0.848262 0
M  V30 26 N -5.14 -0.684644 0.146344 0
M  V30 27 C -4.51007 -1.48907 1.01834 0
M  V30 28 N -5.25717 -2.11569 2.05075 0
M  V30 29 H -2.43708 3.12206 0.0975145 0
M  V30 30 H -0.0695227 5.04789 0.253525 0
M  V30 31 H -1.51275 4.9716 -0.861948 0
M  V30 32 H -0.0504208 3.8881 -1.0981 0
M  V30 33 H -0.658642 4.28376 2.14891 0
M  V30 34 H -2.21893 4.74384 1.76899 0
M  V30 35 H 0.901026 0.155085 0.578203 0
M  V30 36 H 2.57474 0.978443 -1.06304 0
M  V30 37 H 1.20708 -0.191151 -3.2505 0
M  V30 38 H 2.46706 -1.48012 -2.38455 0
M  V30 39 H 4.12778 -0.708397 -0.870118 0
M  V30 40 H 3.01916 -0.756827 0.532002 0
M  V30 41 H 5.3281 -1.03879 2.36919 0
M  V30 42 H 6.20041 -2.00491 -0.891516 0
M  V30 43 H -0.396923 -0.790308 -1.98626 0
M  V30 44 H -0.133504 -2.70054 1.35357 0
M  V30 45 H -4.92286 0.58091 -1.57021 0
M  V30 46 H -5.15377 -3.12062 2.31277 0
M  V30 47 H -5.96081 -1.57197 2.60254 0
M  V30 END ATOM
M  V30 BEGIN BOND
M  V30 1 1 1 2
M  V30 2 1 1 3
M  V30 3 1 1 4
M  V30 4 2 4 5
M  V30 5 1 4 6
M  V30 6 1 6 7
M  V30 7 1 7 8
M  V30 8 1 8 9
M  V30 9 1 8 10
M  V30 10 1 10 11
M  V30 11 1 11 12
M  V30 12 1 12 13
M  V30 13 1 13 14
M  V30 14 1 13 15
M  V30 15 2 13 16
M  V30 16 1 10 17
M  V30 17 1 17 18
M  V30 18 1 18 19
M  V30 19 1 19 20
M  V30 20 2 20 21
M  V30 21 1 21 22
M  V30 22 2 22 23
M  V30 23 1 23 24
M  V30 24 2 24 25
M  V30 25 1 25 26
M  V30 26 2 26 27
M  V30 27 1 27 28
M  V30 28 1 18 7
M  V30 29 1 23 19
M  V30 30 1 27 22
M  V30 31 1 1 29 CFG=3
M  V30 32 1 2 30
M  V30 33 1 2 31
M  V30 34 1 2 32
M  V30 35 1 3 33
M  V30 36 1 3 34
M  V30 37 1 7 35 CFG=1
M  V30 38 1 8 36 CFG=1
M  V30 39 1 9 37
M  V30 40 1 10 38 CFG=3
M  V30 41 1 11 39
M  V30 42 1 11 40
M  V30 43 1 14 41
M  V30 44 1 15 42
M  V30 45 1 18 43 CFG=3
M  V30 46 1 20 44
M  V30 47 1 25 45
M  V30 48 1 28 46
M  V30 49 1 28 47
M  V30 END BOND
M  V30 END CTAB
M  END
