
     RDKit          3D

  0  0  0  0  0  0  0  0  0  0999 V3000
M  V30 BEGIN CTAB
M  V30 COUNTS 42 44 0 0 0
M  V30 BEGIN ATOM
M  V30 1 N 7.72277 0.280637 -1.4548 0
M  V30 2 C 6.49897 -0.265279 -0.974252 0
M  V30 3 N 5.43897 0.437512 -0.879409 0
M  V30 4 C 4.24096 -0.197705 -0.381367 0
M  V30 5 S 3.97599 -1.79714 0.128652 0
M  V30 6 C 2.2963 -1.6557 0.546708 0
M  V30 7 C 2.05542 -0.343291 0.25347 0
M  V30 8 N 3.06206 0.348659 -0.210224 0
M  V30 9 C 0.710722 0.304896 0.420092 0
M  V30 10 C 0.374515 1.56284 -0.044816 0
M  V30 11 C -0.934489 1.8496 0.306592 0
M  V30 12 N -1.40146 0.789125 0.976336 0
M  V30 13 C -0.403663 -0.14864 1.04752 0
M  V30 14 C -0.55166 -1.45359 1.76306 0
M  V30 15 C -2.72552 0.676725 1.52633 0
M  V30 16 C -3.74933 0.10724 0.627661 0
M  V30 17 C -4.53013 0.945483 -0.138006 0
M  V30 18 C -5.51696 0.478966 -1.00733 0
M  V30 19 C -5.74762 -0.867874 -1.12992 0
M  V30 20 C -4.9843 -1.72974 -0.377558 0
M  V30 21 C -4.01184 -1.24022 0.477071 0
M  V30 22 C -1.61484 3.1537 -0.0346667 0
M  V30 23 N 6.49458 -1.63115 -0.599691 0
M  V30 24 H 8.02099 1.24363 -1.23634 0
M  V30 25 H 8.32644 -0.316394 -2.04211 0
M  V30 26 H 1.66626 -2.46337 0.929189 0
M  V30 27 H 1.04116 2.21968 -0.601085 0
M  V30 28 H -0.63993 -2.29783 1.05667 0
M  V30 29 H -1.50841 -1.47879 2.34133 0
M  V30 30 H 0.256221 -1.56733 2.5064 0
M  V30 31 H -3.076 1.69492 1.91572 0
M  V30 32 H -2.74704 0.0651913 2.47751 0
M  V30 33 H -4.43255 2.00209 -0.100363 0
M  V30 34 H -6.11091 1.15334 -1.59274 0
M  V30 35 H -6.52133 -1.22032 -1.81262 0
M  V30 36 H -5.17994 -2.78496 -0.486906 0
M  V30 37 H -3.46425 -1.97587 1.03829 0
M  V30 38 H -2.19639 3.0433 -0.966155 0
M  V30 39 H -0.856025 3.92719 -0.182831 0
M  V30 40 H -2.26997 3.46945 0.80536 0
M  V30 41 H 6.24935 -2.39075 -1.27115 0
M  V30 42 H 6.74289 -1.92821 0.384974 0
M  V30 END ATOM
M  V30 BEGIN BOND
M  V30 1 1 1 2
M  V30 2 2 2 3 CFG=2
M  V30 3 1 3 4
M  V30 4 1 4 5
M  V30 5 1 5 6
M  V30 6 2 6 7
M  V30 7 1 7 8
M  V30 8 1 7 9
M  V30 9 1 9 10
M  V30 10 2 10 11
M  V30 11 1 11 12
M  V30 12 1 12 13
M  V30 13 1 13 14
M  V30 14 1 12 15
M  V30 15 1 15 16
M  V30 16 2 16 17
M  V30 17 1 17 18
M  V30 18 2 18 19
M  V30 19 1 19 20
M  V30 20 2 20 21
M  V30 21 1 11 22
M  V30 22 1 2 23
M  V30 23 2 8 4
M  V30 24 2 13 9
M  V30 25 1 21 16
M  V30 26 1 1 24
M  V30 27 1 1 25
M  V30 28 1 6 26
M  V30 29 1 10 27
M  V30 30 1 14 28
M  V30 31 1 14 29
M  V30 32 1 14 30
M  V30 33 1 15 31
M  V30 34 1 15 32
M  V30 35 1 17 33
M  V30 36 1 18 34
M  V30 37 1 19 35
M  V30 38 1 20 36
M  V30 39 1 21 37
M  V30 40 1 22 38
M  V30 41 1 22 39
M  V30 42 1 22 40
M  V30 43 1 23 41
M  V30 44 1 23 42
M  V30 END BOND
M  V30 END CTAB
M  END
