
     RDKit          3D

  0  0  0  0  0  0  0  0  0  0999 V3000
M  V30 BEGIN CTAB
M  V30 COUNTS 27 28 0 0 0
M  V30 BEGIN ATOM
M  V30 1 C -0.981813 -2.27635 -0.58578 0
M  V30 2 C -1.25968 -0.852723 -1.06219 0
M  V30 3 C -1.00062 0.100351 0.092115 0
M  V30 4 C -1.25547 1.54948 -0.25596 0
M  V30 5 N -2.69139 1.21921 -0.034951 0
M  V30 6 C -2.19656 0.268558 0.97165 0
M  V30 7 C 0.321416 -0.0346328 0.741242 0
M  V30 8 N 0.660189 -0.488425 1.94353 0
M  V30 9 N 1.96916 -0.463848 2.07779 0
M  V30 10 C 2.50187 0.013167 0.959429 0
M  V30 11 N 1.46624 0.285558 0.115285 0
M  V30 12 N 1.65293 0.854312 -1.14812 0
M  V30 13 N 3.88415 0.188376 0.620228 0
M  V30 14 H -0.264704 -2.80644 -1.28403 0
M  V30 15 H -0.402123 -2.23315 0.378184 0
M  V30 16 H -1.92666 -2.86402 -0.468047 0
M  V30 17 H -0.458162 -0.602012 -1.82087 0
M  V30 18 H -2.26307 -0.703415 -1.44427 0
M  V30 19 H -0.991122 1.8275 -1.26942 0
M  V30 20 H -0.908203 2.23001 0.554212 0
M  V30 21 H -3.23724 2.0063 0.326418 0
M  V30 22 H -1.93086 0.743856 1.94606 0
M  V30 23 H -2.89604 -0.582199 1.03014 0
M  V30 24 H 1.56332 1.90209 -1.16872 0
M  V30 25 H 1.84132 0.26177 -1.95996 0
M  V30 26 H 4.62793 0.434881 1.27477 0
M  V30 27 H 4.1752 0.0217927 -0.374679 0
M  V30 END ATOM
M  V30 BEGIN BOND
M  V30 1 1 1 2
M  V30 2 1 2 3
M  V30 3 1 3 4
M  V30 4 1 4 5
M  V30 5 1 5 6
M  V30 6 1 3 7
M  V30 7 2 7 8
M  V30 8 1 8 9
M  V30 9 2 9 10
M  V30 10 1 10 11
M  V30 11 1 11 12
M  V30 12 1 10 13
M  V30 13 1 6 3
M  V30 14 1 11 7
M  V30 15 1 1 14
M  V30 16 1 1 15
M  V30 17 1 1 16
M  V30 18 1 2 17
M  V30 19 1 2 18
M  V30 20 1 4 19
M  V30 21 1 4 20
M  V30 22 1 5 21
M  V30 23 1 6 22
M  V30 24 1 6 23
M  V30 25 1 12 24
M  V30 26 1 12 25
M  V30 27 1 13 26
M  V30 28 1 13 27
M  V30 END BOND
M  V30 END CTAB
M  END
