
     RDKit          3D

  0  0  0  0  0  0  0  0  0  0999 V3000
M  V30 BEGIN CTAB
M  V30 COUNTS 41 42 0 0 0
M  V30 BEGIN ATOM
M  V30 1 C -5.82731 1.31172 1.22662 0
M  V30 2 C -4.63544 1.52579 0.69673 0
M  V30 3 C -4.32018 1.08262 -0.683081 0
M  V30 4 N -3.20026 0.165561 -0.566972 0
M  V30 5 C -3.28564 -1.16433 -0.434753 0
M  V30 6 C -4.54906 -1.97468 -0.406045 0
M  V30 7 C -1.99849 -1.68363 -0.318214 0
M  V30 8 C -1.11366 -0.633461 -0.380666 0
M  V30 9 C -1.87081 0.492136 -0.534802 0
M  V30 10 C -1.40088 1.90679 -0.66891 0
M  V30 11 C 0.348863 -0.674614 -0.249719 0
M  V30 12 O 1.01896 0.366803 -0.129183 0
M  V30 13 C 1.02919 -1.98398 -0.259654 0
M  V30 14 S 2.29727 -2.04397 0.983493 0
M  V30 15 C 3.68764 -1.00496 0.603471 0
M  V30 16 N 4.7309 -0.937396 1.49023 0
M  V30 17 C 5.82379 -0.208419 1.31443 0
M  V30 18 N 6.89203 -0.153887 2.24749 0
M  V30 19 C 5.91024 0.536597 0.149458 0
M  V30 20 C 4.8832 0.507531 -0.783929 0
M  V30 21 N 3.81715 -0.267894 -0.507341 0
M  V30 22 N 4.96121 1.27486 -1.98106 0
M  V30 23 H -6.0761 1.62998 2.23793 0
M  V30 24 H -6.62542 0.815778 0.694825 0
M  V30 25 H -3.87826 2.0272 1.27306 0
M  V30 26 H -5.18981 0.546633 -1.12623 0
M  V30 27 H -4.08173 1.90458 -1.36855 0
M  V30 28 H -5.32714 -1.4974 -1.03175 0
M  V30 29 H -4.35662 -2.97363 -0.80626 0
M  V30 30 H -4.93123 -1.96259 0.635011 0
M  V30 31 H -1.73536 -2.71806 -0.203578 0
M  V30 32 H -2.15054 2.49921 -1.24659 0
M  V30 33 H -0.46154 1.92257 -1.21384 0
M  V30 34 H -1.397 2.34729 0.342328 0
M  V30 35 H 1.43063 -2.13932 -1.3029 0
M  V30 36 H 0.256209 -2.79961 -0.111629 0
M  V30 37 H 6.89386 0.492911 3.05524 0
M  V30 38 H 7.69796 -0.790728 2.10626 0
M  V30 39 H 6.77932 1.14123 -0.0223503 0
M  V30 40 H 5.57522 0.966906 -2.78415 0
M  V30 41 H 4.37882 2.14786 -2.01242 0
M  V30 END ATOM
M  V30 BEGIN BOND
M  V30 1 2 1 2 CFG=2
M  V30 2 1 2 3
M  V30 3 1 3 4
M  V30 4 1 4 5
M  V30 5 1 5 6
M  V30 6 2 5 7
M  V30 7 1 7 8
M  V30 8 2 8 9
M  V30 9 1 9 10
M  V30 10 1 8 11
M  V30 11 2 11 12
M  V30 12 1 11 13
M  V30 13 1 13 14
M  V30 14 1 14 15
M  V30 15 2 15 16
M  V30 16 1 16 17
M  V30 17 1 17 18
M  V30 18 2 17 19
M  V30 19 1 19 20
M  V30 20 2 20 21
M  V30 21 1 20 22
M  V30 22 1 9 4
M  V30 23 1 21 15
M  V30 24 1 1 23
M  V30 25 1 1 24
M  V30 26 1 2 25
M  V30 27 1 3 26
M  V30 28 1 3 27
M  V30 29 1 6 28
M  V30 30 1 6 29
M  V30 31 1 6 30
M  V30 32 1 7 31
M  V30 33 1 10 32
M  V30 34 1 10 33
M  V30 35 1 10 34
M  V30 36 1 13 35
M  V30 37 1 13 36
M  V30 38 1 18 37
M  V30 39 1 18 38
M  V30 40 1 19 39
M  V30 41 1 22 40
M  V30 42 1 22 41
M  V30 END BOND
M  V30 END CTAB
M  END
