
     RDKit          3D

  0  0  0  0  0  0  0  0  0  0999 V3000
M  V30 BEGIN CTAB
M  V30 COUNTS 25 26 0 0 0
M  V30 BEGIN ATOM
M  V30 1 C -2.21067 -1.25193 0.559977 0
M  V30 2 C -0.93162 -0.5667 0.239417 0
M  V30 3 C -0.938143 0.804535 0.120955 0
M  V30 4 C -2.18312 1.59665 0.305525 0
M  V30 5 C 0.253995 1.42247 -0.176002 0
M  V30 6 N 0.291893 2.82922 -0.306599 0
M  V30 7 C 1.43527 0.709781 -0.354499 0
M  V30 8 C 1.43619 -0.665187 -0.234569 0
M  V30 9 C 0.235917 -1.28363 0.0640912 0
M  V30 10 N 0.220081 -2.68928 0.190122 0
M  V30 11 N 2.68865 -1.07403 -0.454087 0
M  V30 12 C 3.49316 -0.027859 -0.70943 0
M  V30 13 N 2.70698 1.06163 -0.6444 0
M  V30 14 H -3.01822 -1.00172 -0.171022 0
M  V30 15 H -2.04502 -2.36092 0.437526 0
M  V30 16 H -2.51356 -1.0303 1.60249 0
M  V30 17 H -3.05057 0.950879 0.418658 0
M  V30 18 H -2.37624 2.26126 -0.577403 0
M  V30 19 H -2.08465 2.21371 1.22639 0
M  V30 20 H 0.156045 3.26629 -1.24187 0
M  V30 21 H 0.456153 3.42162 0.537195 0
M  V30 22 H -0.225712 -3.09663 1.0277 0
M  V30 23 H 0.627097 -3.35423 -0.502847 0
M  V30 24 H 3.00844 -2.06561 -0.432619 0
M  V30 25 H 4.56767 -0.0700246 -0.924702 0
M  V30 END ATOM
M  V30 BEGIN BOND
M  V30 1 1 1 2
M  V30 2 2 2 3
M  V30 3 1 3 4
M  V30 4 1 3 5
M  V30 5 1 5 6
M  V30 6 2 5 7
M  V30 7 1 7 8
M  V30 8 2 8 9
M  V30 9 1 9 10
M  V30 10 1 8 11
M  V30 11 1 11 12
M  V30 12 2 12 13
M  V30 13 1 9 2
M  V30 14 1 13 7
M  V30 15 1 1 14
M  V30 16 1 1 15
M  V30 17 1 1 16
M  V30 18 1 4 17
M  V30 19 1 4 18
M  V30 20 1 4 19
M  V30 21 1 6 20
M  V30 22 1 6 21
M  V30 23 1 10 22
M  V30 24 1 10 23
M  V30 25 1 11 24
M  V30 26 1 12 25
M  V30 END BOND
M  V30 END CTAB
M  END
