
     RDKit          3D

  0  0  0  0  0  0  0  0  0  0999 V3000
M  V30 BEGIN CTAB
M  V30 COUNTS 18 19 0 0 0
M  V30 BEGIN ATOM
M  V30 1 N 2.60887 -1.72266 -0.200518 0
M  V30 2 C 1.2458 -1.2828 -0.145017 0
M  V30 3 S -0.145293 -2.2599 -0.236667 0
M  V30 4 C -1.34911 -1.03761 -0.101018 0
M  V30 5 C -0.599844 0.103958 0.0123083 0
M  V30 6 C 0.728293 -0.0181955 -0.00986448 0
M  V30 7 C 1.50205 1.14726 0.105766 0
M  V30 8 N 0.967214 2.37403 0.237104 0
M  V30 9 C -0.357835 2.5223 0.261972 0
M  V30 10 C -1.13649 1.39579 0.150428 0
M  V30 11 N -2.7698 -1.19328 -0.107085 0
M  V30 12 H 3.28483 -1.38848 0.52045 0
M  V30 13 H 2.97621 -2.36704 -0.928145 0
M  V30 14 H 2.57925 1.10773 0.0939861 0
M  V30 15 H -0.816745 3.51704 0.368653 0
M  V30 16 H -2.20247 1.57354 0.176507 0
M  V30 17 H -3.19194 -1.90035 -0.701705 0
M  V30 18 H -3.323 -0.571349 0.502844 0
M  V30 END ATOM
M  V30 BEGIN BOND
M  V30 1 1 1 2
M  V30 2 1 2 3
M  V30 3 1 3 4
M  V30 4 2 4 5
M  V30 5 1 5 6
M  V30 6 1 6 7
M  V30 7 2 7 8
M  V30 8 1 8 9
M  V30 9 2 9 10
M  V30 10 1 4 11
M  V30 11 2 6 2
M  V30 12 1 10 5
M  V30 13 1 1 12
M  V30 14 1 1 13
M  V30 15 1 7 14
M  V30 16 1 9 15
M  V30 17 1 10 16
M  V30 18 1 11 17
M  V30 19 1 11 18
M  V30 END BOND
M  V30 END CTAB
M  END
