
     RDKit          3D

  0  0  0  0  0  0  0  0  0  0999 V3000
M  V30 BEGIN CTAB
M  V30 COUNTS 34 35 0 0 0
M  V30 BEGIN ATOM
M  V30 1 C -1.79874 -0.730148 1.67347 0
M  V30 2 C -1.9616 -0.377286 0.248066 0
M  V30 3 C -0.913868 -0.114921 -0.594817 0
M  V30 4 C -1.20539 0.189194 -1.90428 0
M  V30 5 C -2.5106 0.231836 -2.3653 0
M  V30 6 C -3.549 -0.0322113 -1.51174 0
M  V30 7 C -3.28749 -0.337446 -0.205158 0
M  V30 8 N 0.418686 -0.143791 -0.135709 0
M  V30 9 C 1.06031 -1.43843 -0.170074 0
M  V30 10 N 0.33786 -2.57163 -0.631764 0
M  V30 11 N 2.27408 -1.61946 0.202987 0
M  V30 12 C 3.05422 -0.513302 0.678207 0
M  V30 13 N 4.39823 -0.748302 1.08567 0
M  V30 14 N 2.49407 0.621159 0.707506 0
M  V30 15 C 1.15931 0.979897 0.326371 0
M  V30 16 C 0.540381 1.71327 1.49512 0
M  V30 17 C 1.31504 2.03953 -0.777657 0
M  V30 18 H -0.785862 -1.11916 1.86627 0
M  V30 19 H -2.50235 -1.57544 1.88139 0
M  V30 20 H -2.06504 0.133452 2.29248 0
M  V30 21 H -0.414424 0.40309 -2.60672 0
M  V30 22 H -2.72843 0.471005 -3.39261 0
M  V30 23 H -4.5894 0.000561063 -1.87351 0
M  V30 24 H -4.11821 -0.543227 0.455341 0
M  V30 25 H 0.25717 -2.74625 -1.64984 0
M  V30 26 H -0.0978304 -3.20727 0.0500632 0
M  V30 27 H 5.15511 -0.241071 0.596686 0
M  V30 28 H 4.63949 -1.40324 1.84714 0
M  V30 29 H -0.485741 2.08212 1.30241 0
M  V30 30 H 0.592562 1.13628 2.43737 0
M  V30 31 H 1.12419 2.65355 1.72416 0
M  V30 32 H 2.0714 2.75184 -0.387704 0
M  V30 33 H 1.75544 1.52274 -1.65723 0
M  V30 34 H 0.36643 2.53306 -1.0066 0
M  V30 END ATOM
M  V30 BEGIN BOND
M  V30 1 1 1 2
M  V30 2 2 2 3
M  V30 3 1 3 4
M  V30 4 2 4 5
M  V30 5 1 5 6
M  V30 6 2 6 7
M  V30 7 1 3 8
M  V30 8 1 8 9
M  V30 9 1 9 10
M  V30 10 2 9 11
M  V30 11 1 11 12
M  V30 12 1 12 13
M  V30 13 2 12 14
M  V30 14 1 14 15
M  V30 15 1 15 16
M  V30 16 1 15 17
M  V30 17 1 7 2
M  V30 18 1 15 8
M  V30 19 1 1 18
M  V30 20 1 1 19
M  V30 21 1 1 20
M  V30 22 1 4 21
M  V30 23 1 5 22
M  V30 24 1 6 23
M  V30 25 1 7 24
M  V30 26 1 10 25
M  V30 27 1 10 26
M  V30 28 1 13 27
M  V30 29 1 13 28
M  V30 30 1 16 29
M  V30 31 1 16 30
M  V30 32 1 16 31
M  V30 33 1 17 32
M  V30 34 1 17 33
M  V30 35 1 17 34
M  V30 END BOND
M  V30 END CTAB
M  END
