
     RDKit          3D

  0  0  0  0  0  0  0  0  0  0999 V3000
M  V30 BEGIN CTAB
M  V30 COUNTS 30 30 0 0 0
M  V30 BEGIN ATOM
M  V30 1 C 2.92951 0.324428 0.788918 0
M  V30 2 N 2.98201 -0.206751 -0.53648 0
M  V30 3 C 4.09982 -1.14593 -0.596322 0
M  V30 4 S 1.5638 -1.09874 -0.946379 0
M  V30 5 O 1.49224 -2.27214 -0.0113701 0
M  V30 6 O 1.72651 -1.6603 -2.33376 0
M  V30 7 C 0.139281 -0.128094 -0.907904 0
M  V30 8 C -0.88185 -0.47122 -0.0480964 0
M  V30 9 C -2.04958 0.28427 0.0156599 0
M  V30 10 C -2.16034 1.39243 -0.808562 0
M  V30 11 N -3.32005 2.18493 -0.779026 0
M  V30 12 C -1.11697 1.71518 -1.66478 0
M  V30 13 C 0.0425758 0.969592 -1.73179 0
M  V30 14 Cl 1.34445 1.41945 -2.83788 0
M  V30 15 S -3.36516 -0.0981302 1.07561 0
M  V30 16 N -2.92095 -1.52654 1.9654 0
M  V30 17 O -3.66672 1.04185 2.01311 0
M  V30 18 O -4.61204 -0.434314 0.308061 0
M  V30 19 H 3.75176 1.07957 0.877514 0
M  V30 20 H 1.95979 0.734844 1.08501 0
M  V30 21 H 3.19622 -0.489305 1.51261 0
M  V30 22 H 4.16952 -1.63874 0.39761 0
M  V30 23 H 5.05114 -0.65283 -0.823208 0
M  V30 24 H 3.88086 -1.96006 -1.32722 0
M  V30 25 H -0.819861 -1.34118 0.613264 0
M  V30 26 H -3.56332 2.69387 0.0952001 0
M  V30 27 H -3.95347 2.28673 -1.60144 0
M  V30 28 H -1.17259 2.58227 -2.3275 0
M  V30 29 H -1.98603 -1.31745 2.39713 0
M  V30 30 H -2.74056 -2.26769 1.24252 0
M  V30 END ATOM
M  V30 BEGIN BOND
M  V30 1 1 1 2
M  V30 2 1 2 3
M  V30 3 1 2 4
M  V30 4 2 4 5
M  V30 5 2 4 6
M  V30 6 1 4 7
M  V30 7 2 7 8
M  V30 8 1 8 9
M  V30 9 2 9 10
M  V30 10 1 10 11
M  V30 11 1 10 12
M  V30 12 2 12 13
M  V30 13 1 13 14
M  V30 14 1 9 15
M  V30 15 1 15 16
M  V30 16 2 15 17
M  V30 17 2 15 18
M  V30 18 1 13 7
M  V30 19 1 1 19
M  V30 20 1 1 20
M  V30 21 1 1 21
M  V30 22 1 3 22
M  V30 23 1 3 23
M  V30 24 1 3 24
M  V30 25 1 8 25
M  V30 26 1 11 26
M  V30 27 1 11 27
M  V30 28 1 12 28
M  V30 29 1 16 29
M  V30 30 1 16 30
M  V30 END BOND
M  V30 END CTAB
M  END
