
     RDKit          3D

  0  0  0  0  0  0  0  0  0  0999 V3000
M  V30 BEGIN CTAB
M  V30 COUNTS 17 17 0 0 0
M  V30 BEGIN ATOM
M  V30 1 N 3.82704 0.237753 -0.455259 0
M  V30 2 C 2.5023 -0.0295316 -0.00504098 0
M  V30 3 N 2.02105 -0.817588 0.946383 0
M  V30 4 N 0.784017 -0.87806 1.15114 0
M  V30 5 C -0.0526029 -0.173334 0.439403 0
M  V30 6 S 1.03383 0.652841 -0.621921 0
M  V30 7 C -1.53498 -0.0797232 0.495964 0
M  V30 8 N -1.9007 1.32042 0.418107 0
M  V30 9 C -2.11109 -0.757044 -0.72867 0
M  V30 10 H 4.01104 1.10623 -0.999717 0
M  V30 11 H 4.57173 -0.433221 -0.232291 0
M  V30 12 H -1.8728 -0.549017 1.43816 0
M  V30 13 H -2.76086 1.48082 -0.143613 0
M  V30 14 H -1.91149 1.78614 1.3474 0
M  V30 15 H -1.61254 -1.75793 -0.790931 0
M  V30 16 H -3.19479 -0.92664 -0.659017 0
M  V30 17 H -1.79916 -0.18211 -1.6001 0
M  V30 END ATOM
M  V30 BEGIN BOND
M  V30 1 1 1 2
M  V30 2 2 2 3
M  V30 3 1 3 4
M  V30 4 2 4 5
M  V30 5 1 5 6
M  V30 6 1 5 7
M  V30 7 1 7 8
M  V30 8 1 7 9
M  V30 9 1 6 2
M  V30 10 1 1 10
M  V30 11 1 1 11
M  V30 12 1 7 12
M  V30 13 1 8 13
M  V30 14 1 8 14
M  V30 15 1 9 15
M  V30 16 1 9 16
M  V30 17 1 9 17
M  V30 END BOND
M  V30 END CTAB
M  END
