
     RDKit          3D

  0  0  0  0  0  0  0  0  0  0999 V3000
M  V30 BEGIN CTAB
M  V30 COUNTS 38 39 0 0 0
M  V30 BEGIN ATOM
M  V30 1 N -3.78043 2.35579 -0.450567 0
M  V30 2 C -2.55109 1.98217 0.12019 0 CFG=2
M  V30 3 C -1.53854 1.63373 -0.873008 0
M  V30 4 O -1.8168 1.68806 -2.09134 0
M  V30 5 N -0.235454 1.23138 -0.492532 0
M  V30 6 C 0.785369 0.880876 -1.46531 0
M  V30 7 C 2.07262 0.490992 -0.816429 0
M  V30 8 C 1.92867 -0.700156 0.0935835 0
M  V30 9 C 3.25784 -1.06096 0.730247 0
M  V30 10 C 3.32462 -2.12594 1.59533 0
M  V30 11 S 4.97877 -2.11594 2.02231 0
M  V30 12 C 5.47787 -0.777245 1.08819 0
M  V30 13 N 4.35028 -0.409815 0.499296 0
M  V30 14 N 6.78706 -0.174718 0.952909 0
M  V30 15 C -2.79415 0.912227 1.15228 0
M  V30 16 C -3.41755 -0.297976 0.602857 0
M  V30 17 C -2.7917 -1.41294 0.0858854 0
M  V30 18 N -3.77529 -2.24689 -0.287741 0
M  V30 19 C -4.97983 -1.71732 -0.0340384 0
M  V30 20 N -4.74222 -0.516254 0.514657 0
M  V30 21 H -3.71199 2.778 -1.32077 0
M  V30 22 H -4.57951 2.0119 -0.0399512 0
M  V30 23 H -2.19583 2.88809 0.692761 0
M  V30 24 H 0.0515676 1.16877 0.527785 0
M  V30 25 H 0.963805 1.70353 -2.17728 0
M  V30 26 H 0.444628 -0.00532817 -2.07069 0
M  V30 27 H 2.77566 0.188896 -1.62804 0
M  V30 28 H 2.56896 1.34926 -0.3053 0
M  V30 29 H 1.2105 -0.485785 0.896645 0
M  V30 30 H 1.58139 -1.55107 -0.549229 0
M  V30 31 H 2.50485 -2.79559 1.91271 0
M  V30 32 H 7.61773 -0.739209 1.14979 0
M  V30 33 H 6.83652 0.809744 0.660638 0
M  V30 34 H -3.47905 1.34409 1.9116 0
M  V30 35 H -1.8495 0.674894 1.71644 0
M  V30 36 H -1.70687 -1.57905 -5.08961e-05 0
M  V30 37 H -3.64446 -3.18724 -0.720184 0
M  V30 38 H -5.92844 -2.19297 -0.243659 0
M  V30 END ATOM
M  V30 BEGIN BOND
M  V30 1 1 1 2
M  V30 2 1 2 3
M  V30 3 2 3 4
M  V30 4 1 3 5
M  V30 5 1 5 6
M  V30 6 1 6 7
M  V30 7 1 7 8
M  V30 8 1 8 9
M  V30 9 2 9 10
M  V30 10 1 10 11
M  V30 11 1 11 12
M  V30 12 2 12 13
M  V30 13 1 12 14
M  V30 14 1 2 15
M  V30 15 1 15 16
M  V30 16 2 16 17
M  V30 17 1 17 18
M  V30 18 1 18 19
M  V30 19 2 19 20
M  V30 20 1 13 9
M  V30 21 1 20 16
M  V30 22 1 1 21
M  V30 23 1 1 22
M  V30 24 1 2 23 CFG=1
M  V30 25 1 5 24
M  V30 26 1 6 25
M  V30 27 1 6 26
M  V30 28 1 7 27
M  V30 29 1 7 28
M  V30 30 1 8 29
M  V30 31 1 8 30
M  V30 32 1 10 31
M  V30 33 1 14 32
M  V30 34 1 14 33
M  V30 35 1 15 34
M  V30 36 1 15 35
M  V30 37 1 17 36
M  V30 38 1 18 37
M  V30 39 1 19 38
M  V30 END BOND
M  V30 END CTAB
M  END
