
     RDKit          3D

  0  0  0  0  0  0  0  0  0  0999 V3000
M  V30 BEGIN CTAB
M  V30 COUNTS 61 61 0 0 0
M  V30 BEGIN ATOM
M  V30 1 C -3.08529 -1.93051 -0.700159 0 CFG=2
M  V30 2 C -3.36793 -0.498559 -1.1355 0
M  V30 3 C -4.72991 -0.245063 -1.7088 0
M  V30 4 C -4.88699 1.27674 -1.95747 0
M  V30 5 N -4.7782 1.92561 -0.633872 0
M  V30 6 C -4.70069 3.31523 -0.430409 0
M  V30 7 N -5.66491 4.11271 0.240587 0
M  V30 8 N -3.65408 3.97449 -0.87305 0
M  V30 9 N -1.69385 -2.00109 -0.221335 0
M  V30 10 C -0.839654 -1.05126 0.195653 0
M  V30 11 O -1.14665 0.188463 0.249029 0
M  V30 12 C 0.590824 -1.31081 0.649965 0 CFG=2
M  V30 13 C 0.573685 -2.34727 1.71581 0
M  V30 14 C 1.90908 -2.68239 2.24778 0
M  V30 15 C 2.65126 -3.67505 1.65292 0
M  V30 16 C 3.92064 -3.99891 2.1609 0
M  V30 17 C 4.39979 -3.31271 3.25177 0
M  V30 18 O 5.65234 -3.64298 3.74505 0
M  V30 19 C 3.64953 -2.32323 3.83642 0
M  V30 20 C 2.39401 -2.0011 3.33637 0
M  V30 21 N 1.13722 -0.0353757 1.01891 0
M  V30 22 C 2.0829 0.586275 0.175872 0
M  V30 23 O 2.45213 0.0246288 -0.873952 0
M  V30 24 C 2.66455 1.92995 0.509043 0
M  V30 25 N 3.5646 2.34647 -0.451076 0
M  V30 26 C 4.44282 2.7513 -1.38665 0
M  V30 27 O 5.55236 2.22544 -1.74824 0
M  V30 28 C 4.12584 4.02199 -2.16642 0
M  V30 29 N 5.14896 4.32365 -3.1187 0
M  V30 30 C -3.40614 -2.96649 -1.61608 0
M  V30 31 O -4.65362 -3.12787 -2.17314 0
M  V30 32 O -2.53466 -3.83394 -1.98144 0
M  V30 33 H -3.66671 -1.9613 0.300188 0
M  V30 34 H -2.57005 -0.132746 -1.79148 0
M  V30 35 H -3.33115 0.152227 -0.212494 0
M  V30 36 H -4.83593 -0.709285 -2.70845 0
M  V30 37 H -5.58033 -0.52366 -1.10328 0
M  V30 38 H -4.08895 1.66431 -2.60379 0
M  V30 39 H -5.9116 1.50914 -2.29991 0
M  V30 40 H -4.76973 1.32894 0.225078 0
M  V30 41 H -6.64255 3.97985 -0.00697581 0
M  V30 42 H -5.41308 4.81193 0.95939 0
M  V30 43 H -2.91003 3.40663 -1.36923 0
M  V30 44 H -1.32536 -3.03992 -0.223982 0
M  V30 45 H 1.14082 -1.73626 -0.250464 0
M  V30 46 H 0.0644679 -3.25479 1.27891 0
M  V30 47 H -0.0552288 -2.0522 2.59641 0
M  V30 48 H 2.34765 -4.26973 0.801314 0
M  V30 49 H 4.534 -4.77502 1.72853 0
M  V30 50 H 6.01487 -3.13412 4.55882 0
M  V30 51 H 4.00515 -1.7882 4.69517 0
M  V30 52 H 1.83381 -1.19423 3.83955 0
M  V30 53 H 0.848981 0.428301 1.87965 0
M  V30 54 H 2.99705 1.94502 1.58586 0
M  V30 55 H 1.77684 2.67222 0.497637 0
M  V30 56 H 4.35655 1.29586 -0.142733 0
M  V30 57 H 4.0404 4.80946 -1.41342 0
M  V30 58 H 3.16427 3.83671 -2.70423 0
M  V30 59 H 6.08841 4.10662 -2.7626 0
M  V30 60 H 4.90473 3.86246 -4.01733 0
M  V30 61 H -4.78726 -3.25656 -3.14593 0
M  V30 END ATOM
M  V30 BEGIN BOND
M  V30 1 1 1 2
M  V30 2 1 2 3
M  V30 3 1 3 4
M  V30 4 1 4 5
M  V30 5 1 5 6
M  V30 6 1 6 7
M  V30 7 2 6 8 CFG=2
M  V30 8 1 1 9
M  V30 9 1 9 10
M  V30 10 2 10 11
M  V30 11 1 10 12
M  V30 12 1 12 13
M  V30 13 1 13 14
M  V30 14 2 14 15
M  V30 15 1 15 16
M  V30 16 2 16 17
M  V30 17 1 17 18
M  V30 18 1 17 19
M  V30 19 2 19 20
M  V30 20 1 12 21
M  V30 21 1 21 22
M  V30 22 2 22 23
M  V30 23 1 22 24
M  V30 24 1 24 25
M  V30 25 1 25 26
M  V30 26 2 26 27
M  V30 27 1 26 28
M  V30 28 1 28 29
M  V30 29 1 1 30
M  V30 30 1 30 31
M  V30 31 2 30 32
M  V30 32 1 20 14
M  V30 33 1 1 33 CFG=1
M  V30 34 1 2 34
M  V30 35 1 2 35
M  V30 36 1 3 36
M  V30 37 1 3 37
M  V30 38 1 4 38
M  V30 39 1 4 39
M  V30 40 1 5 40
M  V30 41 1 7 41
M  V30 42 1 7 42
M  V30 43 1 8 43
M  V30 44 1 9 44
M  V30 45 1 12 45 CFG=3
M  V30 46 1 13 46
M  V30 47 1 13 47
M  V30 48 1 15 48
M  V30 49 1 16 49
M  V30 50 1 18 50
M  V30 51 1 19 51
M  V30 52 1 20 52
M  V30 53 1 21 53
M  V30 54 1 24 54
M  V30 55 1 24 55
M  V30 56 1 25 56
M  V30 57 1 28 57
M  V30 58 1 28 58
M  V30 59 1 29 59
M  V30 60 1 29 60
M  V30 61 1 31 61
M  V30 END BOND
M  V30 END CTAB
M  END
