
     RDKit          3D

  0  0  0  0  0  0  0  0  0  0999 V3000
M  V30 BEGIN CTAB
M  V30 COUNTS 34 35 0 0 0
M  V30 BEGIN ATOM
M  V30 1 N 6.08387 0.0634024 -0.778045 0
M  V30 2 C 5.50529 0.229128 0.535934 0
M  V30 3 C 4.02785 0.152944 0.456303 0
M  V30 4 C 3.23162 1.19862 0.847126 0
M  V30 5 C 1.87536 1.11066 0.759075 0
M  V30 6 C 1.24406 -0.0397185 0.270518 0
M  V30 7 C 2.09281 -1.09226 -0.11971 0
M  V30 8 C 3.44725 -0.991025 -0.0268834 0
M  V30 9 C -0.164653 -0.111696 0.116234 0
M  V30 10 O -1.36917 -0.17324 -0.0156859 0
M  V30 11 C -2.65422 -0.197478 -0.199981 0
M  V30 12 N -3.28547 0.584934 -1.13105 0
M  V30 13 C -4.60452 0.551893 -1.31366 0
M  V30 14 C -5.30832 1.39447 -2.32162 0
M  V30 15 N -5.30304 -0.287499 -0.540139 0
M  V30 16 C -4.77875 -1.08077 0.384623 0
M  V30 17 C -3.42741 -1.06833 0.593326 0
M  V30 18 N -2.78692 -1.8926 1.56211 0
M  V30 19 Cl -5.75618 -2.16403 1.37451 0
M  V30 20 H 5.51642 0.571947 -1.48392 0
M  V30 21 H 6.11091 -0.959552 -1.01087 0
M  V30 22 H 5.9228 -0.563833 1.19769 0
M  V30 23 H 5.82012 1.19191 1.00159 0
M  V30 24 H 3.71293 2.09125 1.22183 0
M  V30 25 H 1.20676 1.93019 1.06026 0
M  V30 26 H 1.5858 -1.98828 -0.498819 0
M  V30 27 H 4.10164 -1.80596 -0.329783 0
M  V30 28 H -0.324681 0.339549 1.44214 0
M  V30 29 H -0.159927 -1.34414 0.739059 0
M  V30 30 H -4.71214 1.4891 -3.2572 0
M  V30 31 H -5.49512 2.37903 -1.85359 0
M  V30 32 H -6.30258 0.985388 -2.57618 0
M  V30 33 H -2.85134 -2.91686 1.60982 0
M  V30 34 H -2.20104 -1.40547 2.28499 0
M  V30 END ATOM
M  V30 BEGIN BOND
M  V30 1 1 1 2
M  V30 2 1 2 3
M  V30 3 2 3 4
M  V30 4 1 4 5
M  V30 5 2 5 6
M  V30 6 1 6 7
M  V30 7 2 7 8
M  V30 8 1 6 9
M  V30 9 1 9 10
M  V30 10 1 10 11
M  V30 11 2 11 12
M  V30 12 1 12 13
M  V30 13 1 13 14
M  V30 14 2 13 15
M  V30 15 1 15 16
M  V30 16 2 16 17
M  V30 17 1 17 18
M  V30 18 1 16 19
M  V30 19 1 8 3
M  V30 20 1 17 11
M  V30 21 1 1 20
M  V30 22 1 1 21
M  V30 23 1 2 22
M  V30 24 1 2 23
M  V30 25 1 4 24
M  V30 26 1 5 25
M  V30 27 1 7 26
M  V30 28 1 8 27
M  V30 29 1 9 28
M  V30 30 1 9 29
M  V30 31 1 14 30
M  V30 32 1 14 31
M  V30 33 1 14 32
M  V30 34 1 18 33
M  V30 35 1 18 34
M  V30 END BOND
M  V30 END CTAB
M  END
