
     RDKit          3D

  0  0  0  0  0  0  0  0  0  0999 V3000
M  V30 BEGIN CTAB
M  V30 COUNTS 33 35 0 0 0
M  V30 BEGIN ATOM
M  V30 1 N -4.14774 2.48503 -0.179999 0
M  V30 2 C -3.24935 1.37516 -0.164886 0
M  V30 3 C -3.36631 0.467763 0.868327 0
M  V30 4 C -2.48102 -0.593104 0.848785 0
M  V30 5 C -1.53156 -0.751915 -0.1352 0
M  V30 6 C -1.43982 0.167051 -1.14905 0
M  V30 7 C -2.30722 1.23116 -1.15425 0
M  V30 8 C -0.654703 -1.92479 -0.0408873 0
M  V30 9 C 0.717173 -1.91313 0.0879182 0
M  V30 10 N 1.09206 -3.20205 0.135508 0
M  V30 11 C 0.0185574 -3.96774 0.0420267 0
M  V30 12 N -1.07172 -3.21564 -0.0676378 0
M  V30 13 C 1.62805 -0.781401 0.163187 0
M  V30 14 C 1.60428 0.145363 1.18572 0
M  V30 15 C 2.4839 1.21504 1.23841 0
M  V30 16 C 3.41967 1.36703 0.237909 0
M  V30 17 N 4.35731 2.44793 0.232266 0
M  V30 18 C 3.46748 0.463051 -0.79019 0
M  V30 19 C 2.58981 -0.577783 -0.814443 0
M  V30 20 H -4.41367 2.99582 0.681329 0
M  V30 21 H -4.55478 2.79824 -1.08751 0
M  V30 22 H -4.12075 0.616064 1.62827 0
M  V30 23 H -2.56479 -1.32197 1.66623 0
M  V30 24 H -0.701853 0.044713 -1.91433 0
M  V30 25 H -2.25478 1.98321 -1.95673 0
M  V30 26 H -0.00343247 -5.0489 0.0507695 0
M  V30 27 H -2.07834 -3.49016 -0.159701 0
M  V30 28 H 0.866351 0.0451159 1.99579 0
M  V30 29 H 2.48174 1.9507 2.02994 0
M  V30 30 H 3.97028 3.42869 0.145311 0
M  V30 31 H 5.37937 2.27424 0.310745 0
M  V30 32 H 4.19816 0.565358 -1.5892 0
M  V30 33 H 2.66765 -1.27815 -1.66112 0
M  V30 END ATOM
M  V30 BEGIN BOND
M  V30 1 1 1 2
M  V30 2 2 2 3
M  V30 3 1 3 4
M  V30 4 2 4 5
M  V30 5 1 5 6
M  V30 6 2 6 7
M  V30 7 1 5 8
M  V30 8 2 8 9
M  V30 9 1 9 10
M  V30 10 2 10 11
M  V30 11 1 11 12
M  V30 12 1 9 13
M  V30 13 2 13 14
M  V30 14 1 14 15
M  V30 15 2 15 16
M  V30 16 1 16 17
M  V30 17 1 16 18
M  V30 18 2 18 19
M  V30 19 1 7 2
M  V30 20 1 12 8
M  V30 21 1 19 13
M  V30 22 1 1 20
M  V30 23 1 1 21
M  V30 24 1 3 22
M  V30 25 1 4 23
M  V30 26 1 6 24
M  V30 27 1 7 25
M  V30 28 1 11 26
M  V30 29 1 12 27
M  V30 30 1 14 28
M  V30 31 1 15 29
M  V30 32 1 17 30
M  V30 33 1 17 31
M  V30 34 1 18 32
M  V30 35 1 19 33
M  V30 END BOND
M  V30 END CTAB
M  END
