
     RDKit          3D

  0  0  0  0  0  0  0  0  0  0999 V3000
M  V30 BEGIN CTAB
M  V30 COUNTS 27 26 0 0 0
M  V30 BEGIN ATOM
M  V30 1 N -4.86998 -0.943076 0.0121591 0
M  V30 2 N -3.51594 -1.02592 0.379415 0
M  V30 3 C -2.70919 0.114507 0.589875 0
M  V30 4 S -3.39947 1.57297 0.411945 0
M  V30 5 N -1.36301 0.0306067 0.957705 0
M  V30 6 C -0.466105 1.12674 1.18284 0
M  V30 7 C -0.088019 1.85391 -0.0872181 0
M  V30 8 C 0.613661 0.921256 -1.05848 0
M  V30 9 N 1.82645 0.37431 -0.474469 0
M  V30 10 C 2.57798 -0.524993 -1.27214 0
M  V30 11 S 2.13834 -0.957438 -2.78277 0
M  V30 12 N 3.77099 -1.08554 -0.742472 0
M  V30 13 N 4.22088 -0.767893 0.556529 0
M  V30 14 H -5.09652 -1.70391 -0.648945 0
M  V30 15 H -5.48878 -1.11182 0.861482 0
M  V30 16 H -3.15031 -1.98864 0.484957 0
M  V30 17 H -0.968397 -0.935906 1.07636 0
M  V30 18 H -0.932447 1.91908 1.84138 0
M  V30 19 H 0.456387 0.831497 1.70776 0
M  V30 20 H 0.576866 2.69364 0.154908 0
M  V30 21 H -1.01574 2.17276 -0.586394 0
M  V30 22 H 0.929312 1.53939 -1.91842 0
M  V30 23 H -0.0295784 0.0937514 -1.34877 0
M  V30 24 H 2.14594 0.61584 0.479533 0
M  V30 25 H 4.3765 -1.76006 -1.27744 0
M  V30 26 H 4.94088 -1.42175 0.891134 0
M  V30 27 H 4.5193 0.231102 0.609533 0
M  V30 END ATOM
M  V30 BEGIN BOND
M  V30 1 1 1 2
M  V30 2 1 2 3
M  V30 3 2 3 4
M  V30 4 1 3 5
M  V30 5 1 5 6
M  V30 6 1 6 7
M  V30 7 1 7 8
M  V30 8 1 8 9
M  V30 9 1 9 10
M  V30 10 2 10 11
M  V30 11 1 10 12
M  V30 12 1 12 13
M  V30 13 1 1 14
M  V30 14 1 1 15
M  V30 15 1 2 16
M  V30 16 1 5 17
M  V30 17 1 6 18
M  V30 18 1 6 19
M  V30 19 1 7 20
M  V30 20 1 7 21
M  V30 21 1 8 22
M  V30 22 1 8 23
M  V30 23 1 9 24
M  V30 24 1 12 25
M  V30 25 1 13 26
M  V30 26 1 13 27
M  V30 END BOND
M  V30 END CTAB
M  END
