
     RDKit          3D

  0  0  0  0  0  0  0  0  0  0999 V3000
M  V30 BEGIN CTAB
M  V30 COUNTS 48 51 0 0 0
M  V30 BEGIN ATOM
M  V30 1 N -2.62535 4.00818 -1.21584 0
M  V30 2 C -3.14268 2.81 -0.679996 0
M  V30 3 N -4.47563 2.63706 -0.541838 0
M  V30 4 C -4.97881 1.4956 -0.030848 0
M  V30 5 N -6.38637 1.39891 0.0784095 0
M  V30 6 N -4.14741 0.502695 0.352298 0
M  V30 7 C -2.8101 0.597057 0.247431 0
M  V30 8 C -2.30981 1.7644 -0.274449 0
M  V30 9 N -1.92832 -0.441221 0.647554 0
M  V30 10 C -2.53759 -1.64752 1.19443 0
M  V30 11 C -1.72072 -2.80649 0.622946 0
M  V30 12 C -0.341954 -2.6573 1.2199 0
M  V30 13 C 0.350666 -1.41546 0.734779 0
M  V30 14 C -0.528492 -0.250414 0.496488 0
M  V30 15 C 1.15609 -1.78316 -0.471016 0
M  V30 16 N 0.598129 -2.29703 -1.59326 0
M  V30 17 C 1.56426 -2.52911 -2.4911 0
M  V30 18 C 2.76221 -2.15461 -1.92784 0
M  V30 19 N 2.46881 -1.70359 -0.692451 0
M  V30 20 C 3.46774 -1.20481 0.206563 0
M  V30 21 C 3.77454 0.221685 0.0735105 0
M  V30 22 C 4.73559 0.696841 -0.801206 0
M  V30 23 C 5.00433 2.04309 -0.902397 0
M  V30 24 C 4.30553 2.9277 -0.120989 0
M  V30 25 N 3.3757 2.47366 0.726002 0
M  V30 26 C 3.09851 1.14119 0.837025 0
M  V30 27 H -2.77559 4.90108 -0.714982 0
M  V30 28 H -2.102 4.00154 -2.09701 0
M  V30 29 H -6.94555 1.2552 -0.782512 0
M  V30 30 H -6.88497 1.46561 0.984074 0
M  V30 31 H -1.25075 1.92234 -0.392915 0
M  V30 32 H -3.58382 -1.69975 0.905183 0
M  V30 33 H -2.37332 -1.5852 2.30134 0
M  V30 34 H -2.14037 -3.78029 0.910085 0
M  V30 35 H -1.70641 -2.66219 -0.464726 0
M  V30 36 H 0.261658 -3.53505 0.915516 0
M  V30 37 H -0.42756 -2.71024 2.32422 0
M  V30 38 H 1.07595 -1.1357 1.52616 0
M  V30 39 H -0.249436 0.645604 1.12686 0
M  V30 40 H -0.331341 0.1092 -0.557468 0
M  V30 41 H 1.48992 -2.9381 -3.5026 0
M  V30 42 H 3.75585 -2.21444 -2.39808 0
M  V30 43 H 3.15332 -1.36902 1.27035 0
M  V30 44 H 4.40861 -1.7905 0.0434571 0
M  V30 45 H 5.282 0.0168717 -1.41082 0
M  V30 46 H 5.75103 2.3807 -1.58574 0
M  V30 47 H 4.53589 3.9963 -0.217833 0
M  V30 48 H 2.328 0.898697 1.55563 0
M  V30 END ATOM
M  V30 BEGIN BOND
M  V30 1 1 1 2
M  V30 2 2 2 3
M  V30 3 1 3 4
M  V30 4 1 4 5
M  V30 5 2 4 6
M  V30 6 1 6 7
M  V30 7 2 7 8
M  V30 8 1 7 9
M  V30 9 1 9 10
M  V30 10 1 10 11
M  V30 11 1 11 12
M  V30 12 1 12 13
M  V30 13 1 13 14
M  V30 14 1 13 15
M  V30 15 2 15 16
M  V30 16 1 16 17
M  V30 17 2 17 18
M  V30 18 1 18 19
M  V30 19 1 19 20
M  V30 20 1 20 21
M  V30 21 2 21 22
M  V30 22 1 22 23
M  V30 23 2 23 24
M  V30 24 1 24 25
M  V30 25 2 25 26
M  V30 26 1 8 2
M  V30 27 1 14 9
M  V30 28 1 19 15
M  V30 29 1 26 21
M  V30 30 1 1 27
M  V30 31 1 1 28
M  V30 32 1 5 29
M  V30 33 1 5 30
M  V30 34 1 8 31
M  V30 35 1 10 32
M  V30 36 1 10 33
M  V30 37 1 11 34
M  V30 38 1 11 35
M  V30 39 1 12 36
M  V30 40 1 12 37
M  V30 41 1 13 38
M  V30 42 1 14 39
M  V30 43 1 14 40
M  V30 44 1 17 41
M  V30 45 1 18 42
M  V30 46 1 20 43
M  V30 47 1 20 44
M  V30 48 1 22 45
M  V30 49 1 23 46
M  V30 50 1 24 47
M  V30 51 1 26 48
M  V30 END BOND
M  V30 END CTAB
M  END
