
     RDKit          3D

  0  0  0  0  0  0  0  0  0  0999 V3000
M  V30 BEGIN CTAB
M  V30 COUNTS 28 29 0 0 0
M  V30 BEGIN ATOM
M  V30 1 C 4.60556 0.980034 0.606324 0
M  V30 2 C 3.44415 0.163907 0.144059 0
M  V30 3 N 2.18192 0.87192 0.214805 0
M  V30 4 C 0.987869 0.116702 0.0355759 0
M  V30 5 N 1.1108 -1.21018 -0.177282 0
M  V30 6 C 0.00111845 -1.94742 -0.333248 0
M  V30 7 N 0.117859 -3.34452 -0.553631 0
M  V30 8 N -1.19034 -1.34982 -0.275371 0
M  V30 9 C -1.32185 -0.00894215 -0.0608647 0
M  V30 10 N -0.231472 0.734378 0.0965527 0
M  V30 11 C -2.71254 0.572387 -0.00643042 0
M  V30 12 N -3.16259 0.955722 1.28358 0
M  V30 13 C -3.65964 0.0288503 -1.04161 0
M  V30 14 C -3.11754 1.43616 -1.18943 0
M  V30 15 H 5.30847 1.11 -0.251775 0
M  V30 16 H 5.11857 0.434336 1.44355 0
M  V30 17 H 4.35235 1.98636 0.975512 0
M  V30 18 H 3.61707 -0.0832358 -0.962024 0
M  V30 19 H 3.43026 -0.798887 0.718484 0
M  V30 20 H 2.0931 1.88925 0.382016 0
M  V30 21 H 0.881574 -3.74897 -1.12982 0
M  V30 22 H -0.575449 -3.98019 -0.124096 0
M  V30 23 H -3.57454 1.89463 1.37351 0
M  V30 24 H -3.61369 0.218654 1.85602 0
M  V30 25 H -3.23007 -0.689669 -1.78591 0
M  V30 26 H -4.72376 -0.118097 -0.843486 0
M  V30 27 H -3.83454 2.26461 -1.01181 0
M  V30 28 H -2.30265 1.62202 -1.93095 0
M  V30 END ATOM
M  V30 BEGIN BOND
M  V30 1 1 1 2
M  V30 2 1 2 3
M  V30 3 1 3 4
M  V30 4 2 4 5
M  V30 5 1 5 6
M  V30 6 1 6 7
M  V30 7 2 6 8
M  V30 8 1 8 9
M  V30 9 2 9 10
M  V30 10 1 9 11
M  V30 11 1 11 12
M  V30 12 1 11 13
M  V30 13 1 13 14
M  V30 14 1 10 4
M  V30 15 1 14 11
M  V30 16 1 1 15
M  V30 17 1 1 16
M  V30 18 1 1 17
M  V30 19 1 2 18
M  V30 20 1 2 19
M  V30 21 1 3 20
M  V30 22 1 7 21
M  V30 23 1 7 22
M  V30 24 1 12 23
M  V30 25 1 12 24
M  V30 26 1 13 25
M  V30 27 1 13 26
M  V30 28 1 14 27
M  V30 29 1 14 28
M  V30 END BOND
M  V30 END CTAB
M  END
