
     RDKit          3D

  0  0  0  0  0  0  0  0  0  0999 V3000
M  V30 BEGIN CTAB
M  V30 COUNTS 57 59 0 0 0
M  V30 BEGIN ATOM
M  V30 1 N 2.01041 2.27922 -1.7964 0
M  V30 2 C 2.00795 1.25184 -1.26502 0
M  V30 3 C 2.02584 -0.0263593 -0.627444 0
M  V30 4 C 0.834949 -0.538404 -0.179775 0
M  V30 5 N 0.892594 -1.75 0.404405 0
M  V30 6 C 2.00367 -2.46873 0.573603 0
M  V30 7 C 3.20317 -1.96384 0.128597 0
M  V30 8 C 3.22393 -0.73676 -0.476404 0
M  V30 9 C 4.40082 -0.158196 -0.953991 0
M  V30 10 C 5.54535 -0.895932 -0.780001 0
M  V30 11 S 7.09822 -0.242797 -1.33154 0
M  V30 12 C 7.97549 0.55716 0.0138489 0
M  V30 13 C 7.34405 1.77629 0.49914 0
M  V30 14 O 7.88144 2.39637 1.48213 0
M  V30 15 O 6.19867 2.34875 -0.00282897 0
M  V30 16 N 5.51398 -2.10495 -0.182019 0
M  V30 17 C 4.36708 -2.66701 0.282141 0
M  V30 18 N 4.38351 -3.93539 0.901926 0
M  V30 19 N 1.92177 -3.74693 1.21596 0
M  V30 20 N -0.355739 0.216385 -0.329955 0
M  V30 21 C -0.73764 1.41507 0.252605 0
M  V30 22 C -1.82931 1.42438 1.27719 0
M  V30 23 C -3.15376 0.964201 0.896694 0
M  V30 24 C -3.60847 -0.324484 1.05749 0
M  V30 25 C -4.87669 -0.699847 0.694031 0
M  V30 26 C -5.77821 0.183354 0.145836 0
M  V30 27 C -5.34754 1.48632 -0.0278344 0
M  V30 28 C -4.07821 1.86351 0.335276 0
M  V30 29 O -6.24656 2.38845 -0.581227 0
M  V30 30 C -5.88392 3.73158 -0.79188 0
M  V30 31 O -7.04556 -0.227884 -0.207448 0
M  V30 32 C -7.51371 -1.54213 -0.068552 0
M  V30 33 C -1.28635 -0.412529 -1.25836 0
M  V30 34 H 4.32838 0.797174 -1.42394 0
M  V30 35 H 8.09526 -0.135291 0.897402 0
M  V30 36 H 9.0475 0.742155 -0.309891 0
M  V30 37 H 6.00719 3.34421 0.00374309 0
M  V30 38 H 4.54674 -4.01082 1.91517 0
M  V30 39 H 4.23199 -4.78424 0.339328 0
M  V30 40 H 1.7682 -4.63642 0.713402 0
M  V30 41 H 2.02571 -3.76296 2.24668 0
M  V30 42 H -1.18036 2.06991 -0.581594 0
M  V30 43 H 0.10238 2.11351 0.541825 0
M  V30 44 H -1.49563 0.935376 2.23695 0
M  V30 45 H -1.94637 2.51165 1.59501 0
M  V30 46 H -2.95864 -1.06761 1.47926 0
M  V30 47 H -5.24178 -1.72482 0.819849 0
M  V30 48 H -3.77111 2.88812 0.186898 0
M  V30 49 H -6.77729 4.27942 -1.15507 0
M  V30 50 H -5.60293 4.24817 0.168382 0
M  V30 51 H -5.11283 3.85375 -1.57455 0
M  V30 52 H -7.48266 -1.81714 0.987071 0
M  V30 53 H -8.51426 -1.68757 -0.526007 0
M  V30 54 H -6.84122 -2.24533 -0.621787 0
M  V30 55 H -0.660184 -0.55062 -2.20298 0
M  V30 56 H -1.55318 -1.43826 -0.979706 0
M  V30 57 H -2.10616 0.236954 -1.5872 0
M  V30 END ATOM
M  V30 BEGIN BOND
M  V30 1 3 1 2
M  V30 2 1 2 3
M  V30 3 2 3 4
M  V30 4 1 4 5
M  V30 5 2 5 6
M  V30 6 1 6 7
M  V30 7 2 7 8
M  V30 8 1 8 9
M  V30 9 2 9 10
M  V30 10 1 10 11
M  V30 11 1 11 12
M  V30 12 1 12 13
M  V30 13 2 13 14
M  V30 14 1 13 15
M  V30 15 1 10 16
M  V30 16 2 16 17
M  V30 17 1 17 18
M  V30 18 1 6 19
M  V30 19 1 4 20
M  V30 20 1 20 21
M  V30 21 1 21 22
M  V30 22 1 22 23
M  V30 23 2 23 24
M  V30 24 1 24 25
M  V30 25 2 25 26
M  V30 26 1 26 27
M  V30 27 2 27 28
M  V30 28 1 27 29
M  V30 29 1 29 30
M  V30 30 1 26 31
M  V30 31 1 31 32
M  V30 32 1 20 33
M  V30 33 1 8 3
M  V30 34 1 28 23
M  V30 35 1 17 7
M  V30 36 1 9 34
M  V30 37 1 12 35
M  V30 38 1 12 36
M  V30 39 1 15 37
M  V30 40 1 18 38
M  V30 41 1 18 39
M  V30 42 1 19 40
M  V30 43 1 19 41
M  V30 44 1 21 42
M  V30 45 1 21 43
M  V30 46 1 22 44
M  V30 47 1 22 45
M  V30 48 1 24 46
M  V30 49 1 25 47
M  V30 50 1 28 48
M  V30 51 1 30 49
M  V30 52 1 30 50
M  V30 53 1 30 51
M  V30 54 1 32 52
M  V30 55 1 32 53
M  V30 56 1 32 54
M  V30 57 1 33 55
M  V30 58 1 33 56
M  V30 59 1 33 57
M  V30 END BOND
M  V30 END CTAB
M  END
