
     RDKit          3D

  0  0  0  0  0  0  0  0  0  0999 V3000
M  V30 BEGIN CTAB
M  V30 COUNTS 45 47 0 0 0
M  V30 BEGIN ATOM
M  V30 1 C 6.70098 1.48201 -0.749457 0
M  V30 2 C 6.64634 0.214761 0.0988513 0
M  V30 3 C 6.14272 -0.871404 -0.787816 0
M  V30 4 O 4.90606 -0.7313 -1.34684 0
M  V30 5 C 3.67283 -0.672218 -0.767342 0
M  V30 6 C 3.45531 -0.782148 0.565009 0
M  V30 7 C 2.15619 -0.705451 1.07538 0
M  V30 8 C 1.04144 -0.52481 0.323469 0
M  V30 9 C 1.28864 -0.412286 -1.06688 0
M  V30 10 C 2.5408 -0.482103 -1.58953 0
M  V30 11 C -0.344943 -0.483185 0.76742 0
M  V30 12 N -1.2845 -0.0330866 -0.140171 0
M  V30 13 C -2.58372 0.027856 0.134142 0
M  V30 14 C -3.51158 0.486418 -0.793948 0
M  V30 15 C -4.8628 0.562278 -0.536632 0
M  V30 16 C -5.2783 0.154094 0.715173 0
M  V30 17 C -4.35839 -0.304759 1.64677 0
M  V30 18 C -3.0019 -0.378166 1.38118 0
M  V30 19 C -2.09676 -0.832204 2.30859 0
M  V30 20 O -2.47803 -1.19938 3.43703 0
M  V30 21 N -0.760199 -0.868754 1.95366 0
M  V30 22 N 0.0673274 -1.37695 2.93909 0
M  V30 23 C -5.79565 1.05323 -1.55025 0
M  V30 24 O -5.31906 1.39451 -2.66182 0
M  V30 25 N -7.18379 1.16185 -1.34691 0
M  V30 26 N -8.01786 1.63736 -2.35371 0
M  V30 27 H 5.88684 1.44176 -1.49708 0
M  V30 28 H 7.65422 1.58054 -1.27541 0
M  V30 29 H 6.55086 2.38695 -0.130799 0
M  V30 30 H 7.69645 0.0467176 0.435572 0
M  V30 31 H 5.96663 0.420057 0.917403 0
M  V30 32 H 6.87942 -0.980788 -1.65317 0
M  V30 33 H 6.2814 -1.83849 -0.231648 0
M  V30 34 H 4.23931 -0.952329 1.29602 0
M  V30 35 H 2.06328 -0.768144 2.15412 0
M  V30 36 H 0.428948 -0.263952 -1.73951 0
M  V30 37 H 2.75212 -0.398318 -2.6568 0
M  V30 38 H -3.16539 0.803647 -1.77493 0
M  V30 39 H -6.33103 0.197467 0.958181 0
M  V30 40 H -4.66667 -0.628495 2.63228 0
M  V30 41 H 0.475549 -2.35822 2.91689 0
M  V30 42 H 0.350539 -0.81836 3.79607 0
M  V30 43 H -7.6051 0.888722 -0.442773 0
M  V30 44 H -8.91178 1.08887 -2.40328 0
M  V30 45 H -8.28677 2.63621 -2.22798 0
M  V30 END ATOM
M  V30 BEGIN BOND
M  V30 1 1 1 2
M  V30 2 1 2 3
M  V30 3 1 3 4
M  V30 4 1 4 5
M  V30 5 2 5 6
M  V30 6 1 6 7
M  V30 7 2 7 8
M  V30 8 1 8 9
M  V30 9 2 9 10
M  V30 10 1 8 11
M  V30 11 2 11 12
M  V30 12 1 12 13
M  V30 13 2 13 14
M  V30 14 1 14 15
M  V30 15 2 15 16
M  V30 16 1 16 17
M  V30 17 2 17 18
M  V30 18 1 18 19
M  V30 19 2 19 20
M  V30 20 1 19 21
M  V30 21 1 21 22
M  V30 22 1 15 23
M  V30 23 2 23 24
M  V30 24 1 23 25
M  V30 25 1 25 26
M  V30 26 1 10 5
M  V30 27 1 21 11
M  V30 28 1 18 13
M  V30 29 1 1 27
M  V30 30 1 1 28
M  V30 31 1 1 29
M  V30 32 1 2 30
M  V30 33 1 2 31
M  V30 34 1 3 32
M  V30 35 1 3 33
M  V30 36 1 6 34
M  V30 37 1 7 35
M  V30 38 1 9 36
M  V30 39 1 10 37
M  V30 40 1 14 38
M  V30 41 1 16 39
M  V30 42 1 17 40
M  V30 43 1 22 41
M  V30 44 1 22 42
M  V30 45 1 25 43
M  V30 46 1 26 44
M  V30 47 1 26 45
M  V30 END BOND
M  V30 END CTAB
M  END
