
     RDKit          3D

  0  0  0  0  0  0  0  0  0  0999 V3000
M  V30 BEGIN CTAB
M  V30 COUNTS 41 43 0 0 0
M  V30 BEGIN ATOM
M  V30 1 N 3.35848 -1.42831 -2.045 0
M  V30 2 C 2.75967 -0.120781 -1.93532 0
M  V30 3 C 1.92745 -0.092373 -0.657803 0
M  V30 4 C 2.88845 -0.367726 0.477599 0
M  V30 5 C 3.71707 0.837761 0.824882 0
M  V30 6 C 2.823 1.89383 1.39909 0
M  V30 7 C 1.36606 1.63964 0.996151 0
M  V30 8 C 1.27438 1.23775 -0.45169 0
M  V30 9 N -0.105378 1.22071 -0.864945 0
M  V30 10 C -1.12145 0.394756 -0.294201 0
M  V30 11 N -0.909617 -0.468917 0.704254 0
M  V30 12 C -1.82929 -1.25214 1.25971 0
M  V30 13 N -1.58247 -2.15342 2.30965 0
M  V30 14 C -3.12524 -1.16486 0.757581 0
M  V30 15 C -3.38548 -0.288868 -0.269399 0
M  V30 16 N -2.39728 0.460368 -0.766642 0
M  V30 17 N -4.71003 -0.374308 -0.594206 0
M  V30 18 C -5.33625 0.41253 -1.64038 0
M  V30 19 N -5.23114 -1.27652 0.215118 0
M  V30 20 C -4.31368 -1.78143 1.04868 0
M  V30 21 H 2.85596 -2.14831 -1.47895 0
M  V30 22 H 4.37214 -1.3973 -1.86382 0
M  V30 23 H 3.58024 0.622714 -1.91194 0
M  V30 24 H 2.13997 0.139563 -2.81994 0
M  V30 25 H 1.14827 -0.870562 -0.723455 0
M  V30 26 H 3.60797 -1.18849 0.200981 0
M  V30 27 H 2.3087 -0.709722 1.34246 0
M  V30 28 H 4.20419 1.25866 -0.0869941 0
M  V30 29 H 4.47225 0.569888 1.57923 0
M  V30 30 H 2.9096 1.86859 2.50361 0
M  V30 31 H 3.12969 2.93212 1.10514 0
M  V30 32 H 1.03241 0.838237 1.68203 0
M  V30 33 H 0.789826 2.57551 1.18786 0
M  V30 34 H 1.84159 2.03327 -1.03497 0
M  V30 35 H -0.420117 1.85574 -1.64648 0
M  V30 36 H -1.3446 -1.79464 3.25141 0
M  V30 37 H -1.63353 -3.17636 2.16182 0
M  V30 38 H -6.45337 0.371719 -1.48418 0
M  V30 39 H -5.17524 -0.0467628 -2.63626 0
M  V30 40 H -5.02775 1.46992 -1.62967 0
M  V30 41 H -4.40545 -2.5315 1.82899 0
M  V30 END ATOM
M  V30 BEGIN BOND
M  V30 1 1 1 2
M  V30 2 1 2 3
M  V30 3 1 3 4
M  V30 4 1 4 5
M  V30 5 1 5 6
M  V30 6 1 6 7
M  V30 7 1 7 8
M  V30 8 1 8 9
M  V30 9 1 9 10
M  V30 10 2 10 11
M  V30 11 1 11 12
M  V30 12 1 12 13
M  V30 13 2 12 14
M  V30 14 1 14 15
M  V30 15 2 15 16
M  V30 16 1 15 17
M  V30 17 1 17 18
M  V30 18 1 17 19
M  V30 19 2 19 20
M  V30 20 1 8 3
M  V30 21 1 16 10
M  V30 22 1 20 14
M  V30 23 1 1 21
M  V30 24 1 1 22
M  V30 25 1 2 23
M  V30 26 1 2 24
M  V30 27 1 3 25
M  V30 28 1 4 26
M  V30 29 1 4 27
M  V30 30 1 5 28
M  V30 31 1 5 29
M  V30 32 1 6 30
M  V30 33 1 6 31
M  V30 34 1 7 32
M  V30 35 1 7 33
M  V30 36 1 8 34
M  V30 37 1 9 35
M  V30 38 1 13 36
M  V30 39 1 13 37
M  V30 40 1 18 38
M  V30 41 1 18 39
M  V30 42 1 18 40
M  V30 43 1 20 41
M  V30 END BOND
M  V30 END CTAB
M  END
