
     RDKit          3D

  0  0  0  0  0  0  0  0  0  0999 V3000
M  V30 BEGIN CTAB
M  V30 COUNTS 29 29 0 0 0
M  V30 BEGIN ATOM
M  V30 1 N 3.03298 -0.746929 -0.379258 0
M  V30 2 C 2.41931 0.421214 -0.810383 0
M  V30 3 C 1.36132 0.854184 0.140627 0
M  V30 4 N 0.312712 -0.0166906 0.361521 0
M  V30 5 C 0.450602 -1.23142 1.04851 0
M  V30 6 C -0.218151 -2.28945 0.147379 0
M  V30 7 N -1.61578 -1.9059 0.0549771 0
M  V30 8 C -1.8169 -0.598236 -0.473731 0
M  V30 9 C -1.02644 0.418449 0.35179 0 CFG=2
M  V30 10 C -1.26124 1.81997 -0.119904 0
M  V30 11 N -2.67957 2.11405 -0.0612445 0
M  V30 12 H 3.47106 -0.689575 0.493678 0
M  V30 13 H 3.39772 -1.40419 -1.03109 0
M  V30 14 H 2.07605 0.384878 -1.86658 0
M  V30 15 H 3.22172 1.22057 -0.817817 0
M  V30 16 H 0.955937 1.82303 -0.28141 0
M  V30 17 H 1.87943 1.21092 1.08984 0
M  V30 18 H -0.258233 -1.19687 1.9413 0
M  V30 19 H 1.41973 -1.55693 1.39538 0
M  V30 20 H -0.139022 -3.24515 0.662267 0
M  V30 21 H 0.295648 -2.26371 -0.833403 0
M  V30 22 H -2.00367 -1.99684 1.02973 0
M  V30 23 H -1.34979 -0.572655 -1.49353 0
M  V30 24 H -2.88375 -0.383585 -0.494352 0
M  V30 25 H -1.45587 0.350688 1.38679 0
M  V30 26 H -0.756767 2.50594 0.583711 0
M  V30 27 H -0.842205 2.03386 -1.12918 0
M  V30 28 H -2.77519 3.15734 -0.0144397 0
M  V30 29 H -3.21161 1.78304 -0.881185 0
M  V30 END ATOM
M  V30 BEGIN BOND
M  V30 1 1 1 2
M  V30 2 1 2 3
M  V30 3 1 3 4
M  V30 4 1 4 5
M  V30 5 1 5 6
M  V30 6 1 6 7
M  V30 7 1 7 8
M  V30 8 1 8 9
M  V30 9 1 9 10
M  V30 10 1 10 11
M  V30 11 1 9 4
M  V30 12 1 1 12
M  V30 13 1 1 13
M  V30 14 1 2 14
M  V30 15 1 2 15
M  V30 16 1 3 16
M  V30 17 1 3 17
M  V30 18 1 5 18
M  V30 19 1 5 19
M  V30 20 1 6 20
M  V30 21 1 6 21
M  V30 22 1 7 22
M  V30 23 1 8 23
M  V30 24 1 8 24
M  V30 25 1 9 25 CFG=1
M  V30 26 1 10 26
M  V30 27 1 10 27
M  V30 28 1 11 28
M  V30 29 1 11 29
M  V30 END BOND
M  V30 END CTAB
M  END
