
     RDKit          3D

  0  0  0  0  0  0  0  0  0  0999 V3000
M  V30 BEGIN CTAB
M  V30 COUNTS 34 34 0 0 0
M  V30 BEGIN ATOM
M  V30 1 N -5.12556 0.424122 -0.0938924 0
M  V30 2 C -4.54983 -0.123748 -1.30728 0
M  V30 3 C -3.21383 -0.753398 -0.935478 0
M  V30 4 C -2.27351 0.256334 -0.347891 0
M  V30 5 C -0.962423 -0.407676 0.00658981 0
M  V30 6 C -0.00028761 0.555047 0.592057 0
M  V30 7 O -0.384127 1.74196 0.711175 0
M  V30 8 N 1.29457 0.195769 1.00845 0
M  V30 9 C 1.82042 -1.14833 0.908497 0
M  V30 10 C 2.97993 -1.08845 -0.0934999 0
M  V30 11 N 3.61812 0.148556 -0.13791 0
M  V30 12 C 3.57 0.988762 0.992651 0
M  V30 13 C 2.18827 1.18776 1.57429 0
M  V30 14 N 4.01256 0.667715 -1.31424 0
M  V30 15 H -4.79008 -0.162008 0.702042 0
M  V30 16 H -6.17133 0.39482 -0.20418 0
M  V30 17 H -4.31699 0.674 -2.04318 0
M  V30 18 H -5.21029 -0.839874 -1.82031 0
M  V30 19 H -2.79027 -1.17679 -1.86983 0
M  V30 20 H -3.37113 -1.59541 -0.228831 0
M  V30 21 H -2.13792 1.0975 -1.05676 0
M  V30 22 H -2.70857 0.690976 0.572299 0
M  V30 23 H -1.20162 -1.22203 0.723293 0
M  V30 24 H -0.532729 -0.911233 -0.895875 0
M  V30 25 H 2.22814 -1.41728 1.9076 0
M  V30 26 H 1.08419 -1.89955 0.639178 0
M  V30 27 H 2.52054 -1.38225 -1.08126 0
M  V30 28 H 3.65628 -1.93172 0.166428 0
M  V30 29 H 4.30206 0.621139 1.74234 0
M  V30 30 H 3.93324 2.01105 0.687354 0
M  V30 31 H 2.28341 0.992038 2.67927 0
M  V30 32 H 1.81498 2.21349 1.45885 0
M  V30 33 H 5.02844 0.709583 -1.5104 0
M  V30 34 H 3.40533 0.555402 -2.13154 0
M  V30 END ATOM
M  V30 BEGIN BOND
M  V30 1 1 1 2
M  V30 2 1 2 3
M  V30 3 1 3 4
M  V30 4 1 4 5
M  V30 5 1 5 6
M  V30 6 2 6 7
M  V30 7 1 6 8
M  V30 8 1 8 9
M  V30 9 1 9 10
M  V30 10 1 10 11
M  V30 11 1 11 12
M  V30 12 1 12 13
M  V30 13 1 11 14
M  V30 14 1 13 8
M  V30 15 1 1 15
M  V30 16 1 1 16
M  V30 17 1 2 17
M  V30 18 1 2 18
M  V30 19 1 3 19
M  V30 20 1 3 20
M  V30 21 1 4 21
M  V30 22 1 4 22
M  V30 23 1 5 23
M  V30 24 1 5 24
M  V30 25 1 9 25
M  V30 26 1 9 26
M  V30 27 1 10 27
M  V30 28 1 10 28
M  V30 29 1 12 29
M  V30 30 1 12 30
M  V30 31 1 13 31
M  V30 32 1 13 32
M  V30 33 1 14 33
M  V30 34 1 14 34
M  V30 END BOND
M  V30 END CTAB
M  END
