
     RDKit          3D

  0  0  0  0  0  0  0  0  0  0999 V3000
M  V30 BEGIN CTAB
M  V30 COUNTS 51 54 0 0 0
M  V30 BEGIN ATOM
M  V30 1 C -4.25885 1.28052 -0.722823 0
M  V30 2 C -3.40765 0.346776 0.132212 0
M  V30 3 C -3.41277 -0.992109 -0.619226 0
M  V30 4 N -4.02985 0.0891027 1.38606 0
M  V30 5 C -3.47796 0.276007 2.51633 0
M  V30 6 N -4.30182 -0.0555797 3.65935 0
M  V30 7 N -2.15822 0.770096 2.68401 0
M  V30 8 C -1.52896 1.02786 1.57135 0
M  V30 9 N -0.182151 1.5345 1.61262 0
M  V30 10 N -2.0764 0.845474 0.288737 0
M  V30 11 C -1.29347 1.16236 -0.88594 0
M  V30 12 C -1.31113 2.4223 -1.46014 0
M  V30 13 C -0.583379 2.74971 -2.56775 0
M  V30 14 C 0.208689 1.78907 -3.1489 0
M  V30 15 C 0.264197 0.519015 -2.61944 0
M  V30 16 C 1.12893 -0.493166 -3.29036 0
M  V30 17 O 1.47315 -1.57376 -2.50063 0
M  V30 18 C 2.16876 -1.63386 -1.33866 0
M  V30 19 C 2.71705 -0.570611 -0.667391 0
M  V30 20 C 3.40938 -0.736168 0.515226 0
M  V30 21 C 3.57395 -1.97653 1.06252 0
M  V30 22 C 4.26793 -2.16267 2.25252 0
M  V30 23 C 4.78963 -1.03576 2.86635 0
M  V30 24 C 4.63188 0.225681 2.32565 0
M  V30 25 C 3.93341 0.363236 1.13899 0
M  V30 26 C 3.03464 -3.05202 0.408235 0
M  V30 27 C 2.34389 -2.89903 -0.768696 0
M  V30 28 C -0.483835 0.239983 -1.50824 0
M  V30 29 H -5.23492 0.789853 -0.840618 0
M  V30 30 H -4.29417 2.2988 -0.332863 0
M  V30 31 H -3.76139 1.30701 -1.72824 0
M  V30 32 H -4.47615 -1.31568 -0.655155 0
M  V30 33 H -3.06217 -0.885294 -1.64662 0
M  V30 34 H -2.8616 -1.77046 -0.0484251 0
M  V30 35 H -4.44341 -1.04287 3.90126 0
M  V30 36 H -4.74072 0.717928 4.22184 0
M  V30 37 H 0.0940783 2.35146 2.18091 0
M  V30 38 H 0.533646 1.05186 1.04422 0
M  V30 39 H -1.93515 3.17578 -1.00062 0
M  V30 40 H -0.620937 3.74601 -2.99096 0
M  V30 41 H 0.797832 2.05365 -4.04517 0
M  V30 42 H 2.06626 0.0349441 -3.62474 0
M  V30 43 H 0.634248 -0.861469 -4.21636 0
M  V30 44 H 2.59437 0.409826 -1.1003 0
M  V30 45 H 4.40113 -3.1485 2.69147 0
M  V30 46 H 5.33191 -1.18774 3.79763 0
M  V30 47 H 5.06719 1.05377 2.86269 0
M  V30 48 H 3.80163 1.34442 0.703402 0
M  V30 49 H 3.16798 -4.04501 0.848848 0
M  V30 50 H 1.93724 -3.78075 -1.24641 0
M  V30 51 H -0.435932 -0.757973 -1.09778 0
M  V30 END ATOM
M  V30 BEGIN BOND
M  V30 1 1 1 2
M  V30 2 1 2 3
M  V30 3 1 2 4
M  V30 4 2 4 5
M  V30 5 1 5 6
M  V30 6 1 5 7
M  V30 7 2 7 8
M  V30 8 1 8 9
M  V30 9 1 8 10
M  V30 10 1 10 11
M  V30 11 2 11 12
M  V30 12 1 12 13
M  V30 13 2 13 14
M  V30 14 1 14 15
M  V30 15 1 15 16
M  V30 16 1 16 17
M  V30 17 1 17 18
M  V30 18 2 18 19
M  V30 19 1 19 20
M  V30 20 2 20 21
M  V30 21 1 21 22
M  V30 22 2 22 23
M  V30 23 1 23 24
M  V30 24 2 24 25
M  V30 25 1 21 26
M  V30 26 2 26 27
M  V30 27 2 15 28
M  V30 28 1 10 2
M  V30 29 1 28 11
M  V30 30 1 27 18
M  V30 31 1 25 20
M  V30 32 1 1 29
M  V30 33 1 1 30
M  V30 34 1 1 31
M  V30 35 1 3 32
M  V30 36 1 3 33
M  V30 37 1 3 34
M  V30 38 1 6 35
M  V30 39 1 6 36
M  V30 40 1 9 37
M  V30 41 1 9 38
M  V30 42 1 12 39
M  V30 43 1 13 40
M  V30 44 1 14 41
M  V30 45 1 16 42
M  V30 46 1 16 43
M  V30 47 1 19 44
M  V30 48 1 22 45
M  V30 49 1 23 46
M  V30 50 1 24 47
M  V30 51 1 25 48
M  V30 52 1 26 49
M  V30 53 1 27 50
M  V30 54 1 28 51
M  V30 END BOND
M  V30 END CTAB
M  END
