
     RDKit          3D

  0  0  0  0  0  0  0  0  0  0999 V3000
M  V30 BEGIN CTAB
M  V30 COUNTS 22 23 0 0 0
M  V30 BEGIN ATOM
M  V30 1 N -3.5933 0.473828 -0.569524 0
M  V30 2 C -2.19819 0.303424 -0.397835 0
M  V30 3 C -1.28886 0.724321 -1.34986 0
M  V30 4 C 0.0709423 0.553899 -1.17388 0
M  V30 5 C 0.577422 -0.0445248 -0.0384461 0
M  V30 6 N -0.314852 -0.450782 0.882241 0
M  V30 7 C -1.6437 -0.291011 0.723808 0
M  V30 8 N -2.57468 -0.735479 1.72558 0
M  V30 9 N 1.98567 -0.214564 0.130898 0
M  V30 10 C 2.60792 -1.17632 0.834453 0
M  V30 11 N 3.9455 -1.02592 0.774131 0
M  V30 12 C 4.20475 0.0562056 0.0157518 0
M  V30 13 C 2.97776 0.543045 -0.371978 0
M  V30 14 H -4.24105 0.763857 0.184726 0
M  V30 15 H -3.99909 0.298868 -1.50725 0
M  V30 16 H -1.66048 1.2 -2.25615 0
M  V30 17 H 0.801035 0.882632 -1.91985 0
M  V30 18 H -2.4922 -0.309904 2.66746 0
M  V30 19 H -3.28238 -1.44662 1.49095 0
M  V30 20 H 2.12431 -1.96872 1.37961 0
M  V30 21 H 5.19761 0.442626 -0.223862 0
M  V30 22 H 2.79586 1.42114 -1.00096 0
M  V30 END ATOM
M  V30 BEGIN BOND
M  V30 1 1 1 2
M  V30 2 2 2 3
M  V30 3 1 3 4
M  V30 4 2 4 5
M  V30 5 1 5 6
M  V30 6 2 6 7
M  V30 7 1 7 8
M  V30 8 1 5 9
M  V30 9 1 9 10
M  V30 10 2 10 11
M  V30 11 1 11 12
M  V30 12 2 12 13
M  V30 13 1 7 2
M  V30 14 1 13 9
M  V30 15 1 1 14
M  V30 16 1 1 15
M  V30 17 1 3 16
M  V30 18 1 4 17
M  V30 19 1 8 18
M  V30 20 1 8 19
M  V30 21 1 10 20
M  V30 22 1 12 21
M  V30 23 1 13 22
M  V30 END BOND
M  V30 END CTAB
M  END
