
     RDKit          3D

  0  0  0  0  0  0  0  0  0  0999 V3000
M  V30 BEGIN CTAB
M  V30 COUNTS 48 51 0 0 0
M  V30 BEGIN ATOM
M  V30 1 N 4.86554 2.77503 -1.9769 0
M  V30 2 C 5.40361 1.85317 -1.00871 0
M  V30 3 C 4.71098 1.89666 0.347965 0
M  V30 4 C 4.84395 0.400842 0.397371 0
M  V30 5 C 4.88335 0.423095 -1.13755 0
M  V30 6 C 3.72055 -0.345274 0.95131 0
M  V30 7 C 2.40901 -0.192318 0.558119 0
M  V30 8 C 1.39091 -0.930004 1.12265 0
M  V30 9 N 1.72905 -1.81098 2.07866 0
M  V30 10 C 3.00238 -1.99731 2.49882 0
M  V30 11 N 3.95252 -1.25342 1.91566 0
M  V30 12 N 3.30387 -2.95346 3.52453 0
M  V30 13 N 0.034336 -0.781727 0.726018 0
M  V30 14 C -0.372251 0.156459 -0.300558 0
M  V30 15 C -1.84527 0.110796 -0.520786 0
M  V30 16 N -2.80248 0.845085 0.0700961 0
M  V30 17 C -4.0281 0.530801 -0.378644 0
M  V30 18 C -3.82739 -0.472542 -1.31862 0
M  V30 19 N -2.50507 -0.706098 -1.38467 0
M  V30 20 C -4.94104 -0.981967 -1.94146 0
M  V30 21 C -6.21347 -0.546046 -1.67502 0
M  V30 22 C -6.41693 0.449331 -0.743028 0
M  V30 23 C -5.31434 0.97406 -0.106811 0
M  V30 24 C -7.8076 0.906771 -0.470088 0
M  V30 25 C -0.991636 -1.58459 1.35416 0
M  V30 26 H 4.95657 2.39425 -2.95209 0
M  V30 27 H 5.51456 3.61751 -1.96854 0
M  V30 28 H 6.50059 1.88696 -0.975766 0
M  V30 29 H 5.3565 2.46083 1.05433 0
M  V30 30 H 3.70607 2.29941 0.237627 0
M  V30 31 H 5.81644 0.129116 0.849005 0
M  V30 32 H 3.85316 0.347003 -1.50818 0
M  V30 33 H 5.61352 -0.309654 -1.48148 0
M  V30 34 H 2.18787 0.528373 -0.213906 0
M  V30 35 H 4.1487 -3.55154 3.40436 0
M  V30 36 H 2.73292 -3.08539 4.37715 0
M  V30 37 H 0.130174 -0.069104 -1.26879 0
M  V30 38 H -0.0519272 1.18348 -0.00712518 0
M  V30 39 H -2.06153 -1.41604 -2.01367 0
M  V30 40 H -4.78756 -1.76839 -2.67867 0
M  V30 41 H -7.0875 -0.962716 -2.18003 0
M  V30 42 H -5.46649 1.75314 0.623497 0
M  V30 43 H -7.81678 1.95556 -0.0723217 0
M  V30 44 H -8.23895 0.261958 0.307298 0
M  V30 45 H -8.43131 0.904291 -1.3923 0
M  V30 46 H -0.565789 -2.02365 2.2707 0
M  V30 47 H -1.81991 -0.923925 1.68444 0
M  V30 48 H -1.37382 -2.37785 0.651775 0
M  V30 END ATOM
M  V30 BEGIN BOND
M  V30 1 1 1 2
M  V30 2 1 2 3
M  V30 3 1 3 4
M  V30 4 1 4 5
M  V30 5 1 4 6
M  V30 6 2 6 7
M  V30 7 1 7 8
M  V30 8 2 8 9
M  V30 9 1 9 10
M  V30 10 2 10 11
M  V30 11 1 10 12
M  V30 12 1 8 13
M  V30 13 1 13 14
M  V30 14 1 14 15
M  V30 15 2 15 16
M  V30 16 1 16 17
M  V30 17 2 17 18
M  V30 18 1 18 19
M  V30 19 1 18 20
M  V30 20 2 20 21
M  V30 21 1 21 22
M  V30 22 2 22 23
M  V30 23 1 22 24
M  V30 24 1 13 25
M  V30 25 1 5 2
M  V30 26 1 11 6
M  V30 27 1 19 15
M  V30 28 1 23 17
M  V30 29 1 1 26
M  V30 30 1 1 27
M  V30 31 1 2 28
M  V30 32 1 3 29
M  V30 33 1 3 30
M  V30 34 1 4 31
M  V30 35 1 5 32
M  V30 36 1 5 33
M  V30 37 1 7 34
M  V30 38 1 12 35
M  V30 39 1 12 36
M  V30 40 1 14 37
M  V30 41 1 14 38
M  V30 42 1 19 39
M  V30 43 1 20 40
M  V30 44 1 21 41
M  V30 45 1 23 42
M  V30 46 1 24 43
M  V30 47 1 24 44
M  V30 48 1 24 45
M  V30 49 1 25 46
M  V30 50 1 25 47
M  V30 51 1 25 48
M  V30 END BOND
M  V30 END CTAB
M  END
