
     RDKit          3D

  0  0  0  0  0  0  0  0  0  0999 V3000
M  V30 BEGIN CTAB
M  V30 COUNTS 25 25 0 0 0
M  V30 BEGIN ATOM
M  V30 1 C -2.23956 -1.36542 -0.862291 0
M  V30 2 C -2.1987 -0.707819 0.494023 0
M  V30 3 C -1.37495 0.562263 0.473795 0
M  V30 4 N -1.94767 1.67551 0.697493 0
M  V30 5 N -1.43011 2.93319 0.736179 0
M  V30 6 C 0.0261966 0.467729 0.142645 0
M  V30 7 C 0.869745 1.49886 -0.168639 0
M  V30 8 C 2.24688 1.31979 -0.418296 0
M  V30 9 C 2.74014 0.0402307 -0.340106 0
M  V30 10 C 1.93046 -1.03091 -0.0310233 0
M  V30 11 C 0.598405 -0.823454 0.206239 0
M  V30 12 N 2.50234 -2.34021 0.0379314 0
M  V30 13 H -2.12372 -2.4565 -0.756871 0
M  V30 14 H -1.4562 -0.929625 -1.50679 0
M  V30 15 H -3.21027 -1.15155 -1.38976 0
M  V30 16 H -3.24734 -0.457441 0.758468 0
M  V30 17 H -1.80599 -1.34076 1.30031 0
M  V30 18 H -0.857172 3.26667 1.54177 0
M  V30 19 H -1.58482 3.61712 -0.0364172 0
M  V30 20 H 0.515464 2.49138 -0.258965 0
M  V30 21 H 2.83099 2.19447 -0.655218 0
M  V30 22 H 3.80545 -0.126673 -0.52936 0
M  V30 23 H 0.00623666 -1.69384 0.451147 0
M  V30 24 H 3.39193 -2.5339 0.540524 0
M  V30 25 H 2.01225 -3.10911 -0.42678 0
M  V30 END ATOM
M  V30 BEGIN BOND
M  V30 1 1 1 2
M  V30 2 1 2 3
M  V30 3 2 3 4
M  V30 4 1 4 5
M  V30 5 1 3 6
M  V30 6 2 6 7
M  V30 7 1 7 8
M  V30 8 2 8 9
M  V30 9 1 9 10
M  V30 10 2 10 11
M  V30 11 1 10 12
M  V30 12 1 11 6
M  V30 13 1 1 13
M  V30 14 1 1 14
M  V30 15 1 1 15
M  V30 16 1 2 16
M  V30 17 1 2 17
M  V30 18 1 5 18
M  V30 19 1 5 19
M  V30 20 1 7 20
M  V30 21 1 8 21
M  V30 22 1 9 22
M  V30 23 1 11 23
M  V30 24 1 12 24
M  V30 25 1 12 25
M  V30 END BOND
M  V30 END CTAB
M  END
