
     RDKit          3D

  0  0  0  0  0  0  0  0  0  0999 V3000
M  V30 BEGIN CTAB
M  V30 COUNTS 42 46 0 0 0
M  V30 BEGIN ATOM
M  V30 1 N 6.51562 -0.77899 2.16106 0
M  V30 2 C 5.33211 -0.51945 1.41425 0
M  V30 3 N 5.50445 0.0590023 0.202227 0
M  V30 4 C 4.42432 0.331656 -0.55605 0
M  V30 5 N 4.59671 0.938864 -1.82971 0
M  V30 6 C 3.16671 0.0211787 -0.0931035 0
M  V30 7 N 2.08377 0.29027 -0.844211 0
M  V30 8 C 0.835166 0.00753954 -0.439293 0
M  V30 9 C -0.287277 0.342764 -1.35442 0
M  V30 10 N -1.57531 0.194349 -0.758476 0
M  V30 11 C -2.02215 1.13281 0.248546 0
M  V30 12 C -3.24893 1.01563 0.871254 0
M  V30 13 O -4.10083 -0.0224898 0.542633 0
M  V30 14 C -3.72653 -0.94938 -0.413329 0
M  V30 15 C -2.49566 -0.852988 -1.05488 0
M  V30 16 C -2.17327 -1.80313 -1.99631 0
M  V30 17 C -3.07982 -2.83172 -2.28446 0
M  V30 18 C -4.30114 -2.94594 -1.66368 0
M  V30 19 C -4.60141 -1.98603 -0.726596 0
M  V30 20 C -3.67769 1.92055 1.83932 0
M  V30 21 C -2.82973 2.95647 2.16489 0
M  V30 22 C -1.59628 3.1234 1.5759 0
M  V30 23 C -1.2255 2.17874 0.61075 0
M  V30 24 C 0.693646 -0.57972 0.796572 0
M  V30 25 N 1.76738 -0.85723 1.56424 0
M  V30 26 C 3.00053 -0.561913 1.12986 0
M  V30 27 N 4.10613 -0.830694 1.88393 0
M  V30 28 H 6.70338 -1.76553 2.42815 0
M  V30 29 H 7.16445 -0.00635627 2.42664 0
M  V30 30 H 4.19697 1.91499 -1.92465 0
M  V30 31 H 5.07797 0.476752 -2.62715 0
M  V30 32 H -0.193744 -0.266666 -2.2525 0
M  V30 33 H -0.1335 1.40002 -1.7434 0
M  V30 34 H -1.22439 -1.7821 -2.52538 0
M  V30 35 H -2.76175 -3.55571 -3.04426 0
M  V30 36 H -4.99569 -3.74064 -1.89007 0
M  V30 37 H -5.57325 -2.08086 -0.235597 0
M  V30 38 H -4.63187 1.82657 2.32262 0
M  V30 39 H -3.19585 3.65218 2.93071 0
M  V30 40 H -0.941168 3.94285 1.84199 0
M  V30 41 H -0.281499 2.3175 0.156042 0
M  V30 42 H -0.295048 -0.816997 1.14592 0
M  V30 END ATOM
M  V30 BEGIN BOND
M  V30 1 1 1 2
M  V30 2 2 2 3
M  V30 3 1 3 4
M  V30 4 1 4 5
M  V30 5 2 4 6
M  V30 6 1 6 7
M  V30 7 2 7 8
M  V30 8 1 8 9
M  V30 9 1 9 10
M  V30 10 1 10 11
M  V30 11 2 11 12
M  V30 12 1 12 13
M  V30 13 1 13 14
M  V30 14 2 14 15
M  V30 15 1 15 16
M  V30 16 2 16 17
M  V30 17 1 17 18
M  V30 18 2 18 19
M  V30 19 1 12 20
M  V30 20 2 20 21
M  V30 21 1 21 22
M  V30 22 2 22 23
M  V30 23 1 8 24
M  V30 24 2 24 25
M  V30 25 1 25 26
M  V30 26 2 26 27
M  V30 27 1 27 2
M  V30 28 1 26 6
M  V30 29 1 15 10
M  V30 30 1 23 11
M  V30 31 1 19 14
M  V30 32 1 1 28
M  V30 33 1 1 29
M  V30 34 1 5 30
M  V30 35 1 5 31
M  V30 36 1 9 32
M  V30 37 1 9 33
M  V30 38 1 16 34
M  V30 39 1 17 35
M  V30 40 1 18 36
M  V30 41 1 19 37
M  V30 42 1 20 38
M  V30 43 1 21 39
M  V30 44 1 22 40
M  V30 45 1 23 41
M  V30 46 1 24 42
M  V30 END BOND
M  V30 END CTAB
M  END
