
     RDKit          3D

  0  0  0  0  0  0  0  0  0  0999 V3000
M  V30 BEGIN CTAB
M  V30 COUNTS 70 71 0 0 0
M  V30 BEGIN ATOM
M  V30 1 N 5.39704 -3.40197 -1.44973 0
M  V30 2 C 5.42458 -2.78145 -0.198529 0 CFG=1
M  V30 3 C 6.79604 -2.24791 0.146611 0
M  V30 4 C 7.2452 -1.22416 -0.879651 0
M  V30 5 C 8.60838 -0.685017 -0.555454 0
M  V30 6 N 8.69074 -0.0299643 0.712376 0
M  V30 7 C 8.01059 1.21558 0.924116 0
M  V30 8 N 6.81817 1.31527 1.6578 0
M  V30 9 N 8.53897 2.26769 0.408202 0
M  V30 10 C 4.39187 -1.69158 -0.143994 0
M  V30 11 O 4.24189 -0.995524 0.893849 0
M  V30 12 N 3.58685 -1.45974 -1.28376 0
M  V30 13 C 2.58899 -0.44229 -1.27394 0
M  V30 14 C 1.50841 -0.626715 -0.278769 0
M  V30 15 O 1.54121 -1.647 0.453528 0
M  V30 16 N 0.459437 0.327727 -0.155082 0
M  V30 17 C -0.59626 0.144112 0.820321 0 CFG=1
M  V30 18 C -0.644139 1.21539 1.86479 0
M  V30 19 C -0.878564 2.57526 1.35606 0
M  V30 20 O -0.904151 3.6352 2.23614 0
M  V30 21 O -1.05358 2.77998 0.14366 0
M  V30 22 C -1.90502 0.013385 0.151556 0
M  V30 23 O -1.96436 0.0889192 -1.09195 0
M  V30 24 N -3.06999 -0.193944 0.907574 0
M  V30 25 C -4.40963 -0.335472 0.35718 0 CFG=1
M  V30 26 C -4.82922 0.966401 -0.236843 0
M  V30 27 C -6.15717 1.00035 -0.838087 0
M  V30 28 C -6.44341 1.00518 -2.18025 0
M  V30 29 N -7.77792 1.04934 -2.32523 0
M  V30 30 C -8.36764 1.07334 -1.10688 0
M  V30 31 C -7.35865 1.04286 -0.168535 0
M  V30 32 C -7.72023 1.05959 1.16662 0
M  V30 33 C -9.04512 1.10524 1.52379 0
M  V30 34 C -10.0731 1.13644 0.605807 0
M  V30 35 C -9.7117 1.1196 -0.723217 0
M  V30 36 C -4.54419 -1.50009 -0.519279 0
M  V30 37 O -5.74918 -1.79983 -1.13541 0
M  V30 38 O -3.55787 -2.2562 -0.728892 0
M  V30 39 H 4.77479 -4.16514 -1.55497 0
M  V30 40 H 5.57954 -2.8612 -2.25498 0
M  V30 41 H 5.19196 -3.55494 0.589311 0
M  V30 42 H 6.70872 -1.76518 1.14523 0
M  V30 43 H 7.54123 -3.06315 0.206365 0
M  V30 44 H 7.25832 -1.68258 -1.86894 0
M  V30 45 H 6.49694 -0.384997 -0.885368 0
M  V30 46 H 9.32059 -1.54854 -0.567424 0
M  V30 47 H 8.86471 0.0504213 -1.35517 0
M  V30 48 H 9.22254 -0.40627 1.50566 0
M  V30 49 H 6.69934 1.05761 2.6583 0
M  V30 50 H 5.94833 1.67857 1.18397 0
M  V30 51 H 8.09648 3.19062 0.526363 0
M  V30 52 H 3.71487 -2.04272 -2.16707 0
M  V30 53 H 2.18978 -0.204906 -2.28368 0
M  V30 54 H 3.11399 0.5097 -0.961192 0
M  V30 55 H 0.469321 1.14296 -0.772916 0
M  V30 56 H -0.396645 -0.818698 1.36197 0
M  V30 57 H -1.46772 0.956999 2.57748 0
M  V30 58 H 0.277285 1.17599 2.52258 0
M  V30 59 H -1.64469 3.65503 2.93376 0
M  V30 60 H -2.95339 -0.253736 1.96522 0
M  V30 61 H -5.09662 -0.494786 1.24802 0
M  V30 62 H -4.04398 1.33276 -0.943591 0
M  V30 63 H -4.83149 1.70834 0.610038 0
M  V30 64 H -5.72732 0.978306 -3.01734 0
M  V30 65 H -8.28776 1.06318 -3.23475 0
M  V30 66 H -6.90258 1.03405 1.88907 0
M  V30 67 H -9.28546 1.11748 2.58334 0
M  V30 68 H -11.1198 1.17226 0.896399 0
M  V30 69 H -10.4738 1.14253 -1.50712 0
M  V30 70 H -6.32473 -2.53797 -0.700387 0
M  V30 END ATOM
M  V30 BEGIN BOND
M  V30 1 1 1 2
M  V30 2 1 2 3
M  V30 3 1 3 4
M  V30 4 1 4 5
M  V30 5 1 5 6
M  V30 6 1 6 7
M  V30 7 1 7 8
M  V30 8 2 7 9 CFG=2
M  V30 9 1 2 10
M  V30 10 2 10 11
M  V30 11 1 10 12
M  V30 12 1 12 13
M  V30 13 1 13 14
M  V30 14 2 14 15
M  V30 15 1 14 16
M  V30 16 1 16 17
M  V30 17 1 17 18
M  V30 18 1 18 19
M  V30 19 1 19 20
M  V30 20 2 19 21
M  V30 21 1 17 22
M  V30 22 2 22 23
M  V30 23 1 22 24
M  V30 24 1 24 25
M  V30 25 1 25 26
M  V30 26 1 26 27
M  V30 27 2 27 28
M  V30 28 1 28 29
M  V30 29 1 29 30
M  V30 30 2 30 31
M  V30 31 1 31 32
M  V30 32 2 32 33
M  V30 33 1 33 34
M  V30 34 2 34 35
M  V30 35 1 25 36
M  V30 36 1 36 37
M  V30 37 2 36 38
M  V30 38 1 31 27
M  V30 39 1 35 30
M  V30 40 1 1 39
M  V30 41 1 1 40
M  V30 42 1 2 41 CFG=1
M  V30 43 1 3 42
M  V30 44 1 3 43
M  V30 45 1 4 44
M  V30 46 1 4 45
M  V30 47 1 5 46
M  V30 48 1 5 47
M  V30 49 1 6 48
M  V30 50 1 8 49
M  V30 51 1 8 50
M  V30 52 1 9 51
M  V30 53 1 12 52
M  V30 54 1 13 53
M  V30 55 1 13 54
M  V30 56 1 16 55
M  V30 57 1 17 56 CFG=1
M  V30 58 1 18 57
M  V30 59 1 18 58
M  V30 60 1 20 59
M  V30 61 1 24 60
M  V30 62 1 25 61 CFG=1
M  V30 63 1 26 62
M  V30 64 1 26 63
M  V30 65 1 28 64
M  V30 66 1 29 65
M  V30 67 1 32 66
M  V30 68 1 33 67
M  V30 69 1 34 68
M  V30 70 1 35 69
M  V30 71 1 37 70
M  V30 END BOND
M  V30 END CTAB
M  END
