
     RDKit          3D

  0  0  0  0  0  0  0  0  0  0999 V3000
M  V30 BEGIN CTAB
M  V30 COUNTS 31 33 0 0 0
M  V30 BEGIN ATOM
M  V30 1 N 5.90099 -0.0227379 1.0226 0
M  V30 2 C 4.72385 0.333848 0.309903 0
M  V30 3 C 4.85366 1.12502 -0.824384 0
M  V30 4 C 3.71529 1.47836 -1.52608 0
M  V30 5 C 2.4549 1.0488 -1.10431 0
M  V30 6 C 2.36961 0.280402 0.00397996 0
M  V30 7 C 3.47108 -0.0909698 0.725997 0
M  V30 8 C 1.05592 -0.194382 0.482892 0
M  V30 9 S 0.727209 -1.16482 1.84681 0
M  V30 10 C -0.996537 -1.2469 1.68379 0
M  V30 11 C -1.19985 -0.496482 0.553833 0
M  V30 12 N -0.132577 0.00805425 -0.00799206 0
M  V30 13 C -2.53614 -0.230935 -0.0628984 0
M  V30 14 S -2.85671 0.723481 -1.46685 0
M  V30 15 C -4.54867 0.538935 -1.52133 0
M  V30 16 N -4.778 -0.226822 -0.485479 0
M  V30 17 C -3.78092 -0.637477 0.278113 0
M  V30 18 C -4.0831 -1.53204 1.47498 0
M  V30 19 N -5.53037 1.05469 -2.43016 0
M  V30 20 H 5.99671 -1.00019 1.35529 0
M  V30 21 H 6.64282 0.680727 1.20286 0
M  V30 22 H 5.82456 1.46443 -1.1617 0
M  V30 23 H 3.84413 2.09364 -2.40367 0
M  V30 24 H 1.58678 1.32919 -1.6554 0
M  V30 25 H 3.35453 -0.702458 1.60001 0
M  V30 26 H -1.66558 -1.77544 2.34885 0
M  V30 27 H -3.59292 -2.50383 1.29925 0
M  V30 28 H -3.86163 -1.04444 2.41774 0
M  V30 29 H -5.17344 -1.78059 1.51666 0
M  V30 30 H -5.42121 0.982517 -3.46118 0
M  V30 31 H -6.36438 1.50842 -2.01215 0
M  V30 END ATOM
M  V30 BEGIN BOND
M  V30 1 1 1 2
M  V30 2 2 2 3
M  V30 3 1 3 4
M  V30 4 2 4 5
M  V30 5 1 5 6
M  V30 6 2 6 7
M  V30 7 1 6 8
M  V30 8 1 8 9
M  V30 9 1 9 10
M  V30 10 2 10 11
M  V30 11 1 11 12
M  V30 12 1 11 13
M  V30 13 1 13 14
M  V30 14 1 14 15
M  V30 15 2 15 16
M  V30 16 1 16 17
M  V30 17 1 17 18
M  V30 18 1 15 19
M  V30 19 1 7 2
M  V30 20 2 12 8
M  V30 21 2 17 13
M  V30 22 1 1 20
M  V30 23 1 1 21
M  V30 24 1 3 22
M  V30 25 1 4 23
M  V30 26 1 5 24
M  V30 27 1 7 25
M  V30 28 1 10 26
M  V30 29 1 18 27
M  V30 30 1 18 28
M  V30 31 1 18 29
M  V30 32 1 19 30
M  V30 33 1 19 31
M  V30 END BOND
M  V30 END CTAB
M  END
