
     RDKit          3D

  0  0  0  0  0  0  0  0  0  0999 V3000
M  V30 BEGIN CTAB
M  V30 COUNTS 35 36 0 0 0
M  V30 BEGIN ATOM
M  V30 1 O -0.751758 1.43468 -1.12139 0
M  V30 2 C -0.249523 0.443786 -0.578476 0
M  V30 3 C -1.01485 -0.705755 -0.0832477 0
M  V30 4 C -2.46986 -0.507419 -0.0593727 0
M  V30 5 C -3.28056 -1.58956 -0.37802 0
M  V30 6 C -4.65247 -1.49429 -0.365002 0
M  V30 7 C -5.2748 -0.29999 -0.0273455 0
M  V30 8 C -4.44382 0.751567 0.279697 0
M  V30 9 C -3.06486 0.676942 0.273526 0
M  V30 10 C -6.77077 -0.15074 0.00502415 0
M  V30 11 F -7.07689 1.17272 0.0353199 0
M  V30 12 F -7.33639 -0.859197 1.03619 0
M  V30 13 F -7.27616 -0.685854 -1.1828 0
M  V30 14 O 1.12476 0.397767 -0.410325 0
M  V30 15 C 2.04458 1.37342 -0.777993 0
M  V30 16 C 3.40214 0.864069 -0.358341 0
M  V30 17 N 3.54608 -0.47051 -0.126448 0
M  V30 18 C 4.72038 -0.981007 0.265534 0
M  V30 19 N 4.87534 -2.38263 0.53954 0
M  V30 20 N 5.79247 -0.172918 0.434683 0
M  V30 21 C 5.6848 1.16936 0.213928 0
M  V30 22 N 4.45704 1.61383 -0.183285 0
M  V30 23 N 6.80257 2.01203 0.395095 0
M  V30 24 H -0.69644 -1.13704 0.888972 0
M  V30 25 H -0.761505 -1.56236 -0.819737 0
M  V30 26 H -2.83234 -2.55946 -0.652096 0
M  V30 27 H -5.33457 -2.30194 -0.590499 0
M  V30 28 H -4.92832 1.69078 0.54977 0
M  V30 29 H -2.44611 1.51661 0.526593 0
M  V30 30 H 2.02602 1.56824 -1.84918 0
M  V30 31 H 1.93713 2.33003 -0.202223 0
M  V30 32 H 5.76509 -2.90226 0.395709 0
M  V30 33 H 4.07019 -2.90057 0.919136 0
M  V30 34 H 7.23641 2.10169 1.33229 0
M  V30 35 H 7.177 2.54599 -0.407143 0
M  V30 END ATOM
M  V30 BEGIN BOND
M  V30 1 2 1 2
M  V30 2 1 2 3
M  V30 3 1 3 4
M  V30 4 2 4 5
M  V30 5 1 5 6
M  V30 6 2 6 7
M  V30 7 1 7 8
M  V30 8 2 8 9
M  V30 9 1 7 10
M  V30 10 1 10 11
M  V30 11 1 10 12
M  V30 12 1 10 13
M  V30 13 1 2 14
M  V30 14 1 14 15
M  V30 15 1 15 16
M  V30 16 2 16 17
M  V30 17 1 17 18
M  V30 18 1 18 19
M  V30 19 2 18 20
M  V30 20 1 20 21
M  V30 21 2 21 22
M  V30 22 1 21 23
M  V30 23 1 9 4
M  V30 24 1 22 16
M  V30 25 1 3 24
M  V30 26 1 3 25
M  V30 27 1 5 26
M  V30 28 1 6 27
M  V30 29 1 8 28
M  V30 30 1 9 29
M  V30 31 1 15 30
M  V30 32 1 15 31
M  V30 33 1 19 32
M  V30 34 1 19 33
M  V30 35 1 23 34
M  V30 36 1 23 35
M  V30 END BOND
M  V30 END CTAB
M  END
