
     RDKit          3D

  0  0  0  0  0  0  0  0  0  0999 V3000
M  V30 BEGIN CTAB
M  V30 COUNTS 37 37 0 0 0
M  V30 BEGIN ATOM
M  V30 1 N 5.47476 0.151855 0.360545 0
M  V30 2 C 4.30293 0.993916 0.623313 0
M  V30 3 C 3.06896 0.358582 0.008718 0
M  V30 4 C 1.89297 1.25607 0.303682 0
M  V30 5 C 0.595621 0.74202 -0.261996 0
M  V30 6 C 0.290749 -0.589811 0.321222 0
M  V30 7 C -1.01482 -1.17634 -0.191779 0
M  V30 8 C -2.16452 -0.300009 0.128346 0
M  V30 9 C -2.68726 -0.105445 1.38034 0
M  V30 10 C -3.77357 0.725768 1.60459 0
M  V30 11 C -4.38418 1.40154 0.571252 0
M  V30 12 C -3.88018 1.22515 -0.696069 0
M  V30 13 C -2.80445 0.399494 -0.905027 0
M  V30 14 C -1.17048 -2.49317 0.455471 0
M  V30 15 O -1.17851 -2.63487 1.69674 0
M  V30 16 O -1.32156 -3.68809 -0.275635 0
M  V30 17 N -0.932686 -1.4294 -1.62188 0
M  V30 18 H 5.76096 0.174985 -0.628689 0
M  V30 19 H 6.27001 0.507495 0.936757 0
M  V30 20 H 4.22312 1.14682 1.70285 0
M  V30 21 H 4.52946 1.96916 0.149712 0
M  V30 22 H 3.22466 0.397017 -1.10185 0
M  V30 23 H 2.94178 -0.680028 0.326266 0
M  V30 24 H 2.16551 2.25875 -0.14209 0
M  V30 25 H 1.81406 1.46969 1.39814 0
M  V30 26 H -0.179441 1.49756 -0.0176615 0
M  V30 27 H 0.719989 0.641554 -1.36794 0
M  V30 28 H 0.261494 -0.589249 1.41121 0
M  V30 29 H 1.07197 -1.31977 -0.00117495 0
M  V30 30 H -2.26827 -0.588593 2.24744 0
M  V30 31 H -4.18236 0.874494 2.60104 0
M  V30 32 H -5.24725 2.06204 0.748718 0
M  V30 33 H -4.37572 1.76607 -1.49206 0
M  V30 34 H -2.46081 0.30997 -1.9402 0
M  V30 35 H -2.04721 -4.35477 -0.083045 0
M  V30 36 H -0.66125 -0.617822 -2.17928 0
M  V30 37 H -1.87447 -1.76263 -1.91407 0
M  V30 END ATOM
M  V30 BEGIN BOND
M  V30 1 1 1 2
M  V30 2 1 2 3
M  V30 3 1 3 4
M  V30 4 1 4 5
M  V30 5 1 5 6
M  V30 6 1 6 7
M  V30 7 1 7 8
M  V30 8 2 8 9
M  V30 9 1 9 10
M  V30 10 2 10 11
M  V30 11 1 11 12
M  V30 12 2 12 13
M  V30 13 1 7 14
M  V30 14 2 14 15
M  V30 15 1 14 16
M  V30 16 1 7 17
M  V30 17 1 13 8
M  V30 18 1 1 18
M  V30 19 1 1 19
M  V30 20 1 2 20
M  V30 21 1 2 21
M  V30 22 1 3 22
M  V30 23 1 3 23
M  V30 24 1 4 24
M  V30 25 1 4 25
M  V30 26 1 5 26
M  V30 27 1 5 27
M  V30 28 1 6 28
M  V30 29 1 6 29
M  V30 30 1 9 30
M  V30 31 1 10 31
M  V30 32 1 11 32
M  V30 33 1 12 33
M  V30 34 1 13 34
M  V30 35 1 16 35
M  V30 36 1 17 36
M  V30 37 1 17 37
M  V30 END BOND
M  V30 END CTAB
M  END
