
     RDKit          3D

  0  0  0  0  0  0  0  0  0  0999 V3000
M  V30 BEGIN CTAB
M  V30 COUNTS 80 84 0 0 0
M  V30 BEGIN ATOM
M  V30 1 C -6.11007 3.36182 0.367377 0
M  V30 2 C -5.52527 2.56216 1.48734 0
M  V30 3 C -4.65231 1.49991 0.883484 0
M  V30 4 C -5.14422 0.359933 0.29579 0
M  V30 5 C -6.5754 -0.0707724 0.126235 0
M  V30 6 C -4.04025 -0.348847 -0.128124 0
M  V30 7 C -3.84057 -1.56225 -0.780988 0
M  V30 8 C -2.61903 -2.23841 -0.95346 0
M  V30 9 C -2.57155 -3.63247 -0.758007 0
M  V30 10 C -3.69741 -4.57886 -0.400928 0
M  V30 11 C -4.03822 -4.44932 1.0656 0
M  V30 12 C -1.27003 -4.01664 -0.96614 0
M  V30 13 C -0.768198 -5.43871 -0.866041 0
M  V30 14 C -0.569284 -2.84 -1.28177 0
M  V30 15 N -1.39889 -1.785 -1.27093 0
M  V30 16 C 0.816104 -2.90968 -1.53602 0
M  V30 17 C 1.81054 -2.05337 -1.16986 0
M  V30 18 N 1.46805 -0.954658 -0.498513 0
M  V30 19 C 2.54541 -0.189252 -0.206359 0
M  V30 20 C 2.33942 1.00783 0.497197 0
M  V30 21 C 1.13318 1.70324 0.655302 0
M  V30 22 N -0.0821696 1.26209 1.00514 0
M  V30 23 C -0.917458 2.30483 0.992826 0
M  V30 24 C -2.29575 2.38005 1.25163 0
M  V30 25 C -3.28331 1.50359 0.827793 0
M  V30 26 N -2.93774 0.359669 0.203445 0
M  V30 27 C -0.21791 3.47959 0.624092 0
M  V30 28 C -0.765507 4.88699 0.533983 0
M  V30 29 C 1.08321 3.10322 0.407134 0
M  V30 30 C 2.2038 3.98868 0.0486632 0
M  V30 31 O 3.40026 3.64201 0.398269 0
M  V30 32 N 2.07672 5.17895 -0.650481 0
M  V30 33 N 3.19379 5.98239 -0.9543 0
M  V30 34 C 3.64535 -0.840599 -0.723316 0
M  V30 35 C 5.0481 -0.394322 -0.661995 0
M  V30 36 C 5.66455 -0.624598 0.677609 0
M  V30 37 C 7.0949 -0.160782 0.705834 0
M  V30 38 O 7.57378 0.341501 -0.331539 0
M  V30 39 N 7.87109 -0.292518 1.87793 0
M  V30 40 N 9.21007 0.158403 1.85678 0
M  V30 41 C 3.16689 -1.99198 -1.31486 0
M  V30 42 C 3.97835 -3.03812 -2.01707 0
M  V30 43 H -7.21814 3.38389 0.352597 0
M  V30 44 H -5.78524 2.99585 -0.638468 0
M  V30 45 H -5.77065 4.43294 0.460603 0
M  V30 46 H -6.32877 2.01688 2.03134 0
M  V30 47 H -4.90563 3.16571 2.17972 0
M  V30 48 H -6.74736 -1.06693 0.533354 0
M  V30 49 H -7.17705 0.649391 0.727623 0
M  V30 50 H -6.84358 0.0457176 -0.935174 0
M  V30 51 H -4.79437 -1.98146 -1.15836 0
M  V30 52 H -3.38141 -5.59376 -0.622348 0
M  V30 53 H -4.58521 -4.22878 -0.966183 0
M  V30 54 H -5.12791 -4.30039 1.21985 0
M  V30 55 H -3.43426 -3.62175 1.5306 0
M  V30 56 H -3.72107 -5.36716 1.62823 0
M  V30 57 H -0.682442 -5.74474 0.17956 0
M  V30 58 H -1.50485 -6.03238 -1.44451 0
M  V30 59 H 0.227549 -5.48236 -1.32834 0
M  V30 60 H -1.12599 -0.725298 -1.5085 0
M  V30 61 H 1.21317 -3.78925 -2.10984 0
M  V30 62 H 3.29649 1.36217 0.92751 0
M  V30 63 H -0.342385 0.207861 1.28206 0
M  V30 64 H -2.70272 3.22667 1.84085 0
M  V30 65 H -0.00187893 5.53912 0.994987 0
M  V30 66 H -1.69117 4.90553 1.16596 0
M  V30 67 H -1.07313 5.14338 -0.473178 0
M  V30 68 H 1.17638 5.52552 -1.00542 0
M  V30 69 H 3.03195 6.55106 -1.81434 0
M  V30 70 H 3.46198 6.53954 -0.121166 0
M  V30 71 H 5.63034 -0.985514 -1.42657 0
M  V30 72 H 5.12206 0.655396 -1.00648 0
M  V30 73 H 5.14629 -0.0487633 1.45892 0
M  V30 74 H 5.61182 -1.69079 0.960528 0
M  V30 75 H 7.49357 -0.713025 2.76677 0
M  V30 76 H 9.77397 -0.640127 1.49067 0
M  V30 77 H 9.31316 0.964697 1.18753 0
M  V30 78 H 4.84419 -2.60506 -2.54009 0
M  V30 79 H 4.24684 -3.81307 -1.28431 0
M  V30 80 H 3.35247 -3.5364 -2.79605 0
M  V30 END ATOM
M  V30 BEGIN BOND
M  V30 1 1 1 2
M  V30 2 1 2 3
M  V30 3 2 3 4
M  V30 4 1 4 5
M  V30 5 1 4 6
M  V30 6 1 6 7
M  V30 7 2 7 8
M  V30 8 1 8 9
M  V30 9 1 9 10
M  V30 10 1 10 11
M  V30 11 2 9 12
M  V30 12 1 12 13
M  V30 13 1 12 14
M  V30 14 1 14 15
M  V30 15 2 14 16
M  V30 16 1 16 17
M  V30 17 2 17 18
M  V30 18 1 18 19
M  V30 19 2 19 20
M  V30 20 1 20 21
M  V30 21 1 21 22
M  V30 22 1 22 23
M  V30 23 1 23 24
M  V30 24 2 24 25
M  V30 25 1 25 26
M  V30 26 2 23 27
M  V30 27 1 27 28
M  V30 28 1 27 29
M  V30 29 1 29 30
M  V30 30 2 30 31
M  V30 31 1 30 32
M  V30 32 1 32 33
M  V30 33 1 19 34
M  V30 34 1 34 35
M  V30 35 1 35 36
M  V30 36 1 36 37
M  V30 37 2 37 38
M  V30 38 1 37 39
M  V30 39 1 39 40
M  V30 40 2 34 41
M  V30 41 1 41 42
M  V30 42 1 25 3
M  V30 43 2 26 6
M  V30 44 1 15 8
M  V30 45 1 41 17
M  V30 46 2 29 21
M  V30 47 1 1 43
M  V30 48 1 1 44
M  V30 49 1 1 45
M  V30 50 1 2 46
M  V30 51 1 2 47
M  V30 52 1 5 48
M  V30 53 1 5 49
M  V30 54 1 5 50
M  V30 55 1 7 51
M  V30 56 1 10 52
M  V30 57 1 10 53
M  V30 58 1 11 54
M  V30 59 1 11 55
M  V30 60 1 11 56
M  V30 61 1 13 57
M  V30 62 1 13 58
M  V30 63 1 13 59
M  V30 64 1 15 60
M  V30 65 1 16 61
M  V30 66 1 20 62
M  V30 67 1 22 63
M  V30 68 1 24 64
M  V30 69 1 28 65
M  V30 70 1 28 66
M  V30 71 1 28 67
M  V30 72 1 32 68
M  V30 73 1 33 69
M  V30 74 1 33 70
M  V30 75 1 35 71
M  V30 76 1 35 72
M  V30 77 1 36 73
M  V30 78 1 36 74
M  V30 79 1 39 75
M  V30 80 1 40 76
M  V30 81 1 40 77
M  V30 82 1 42 78
M  V30 83 1 42 79
M  V30 84 1 42 80
M  V30 END BOND
M  V30 END CTAB
M  END
