
     RDKit          3D

  0  0  0  0  0  0  0  0  0  0999 V3000
M  V30 BEGIN CTAB
M  V30 COUNTS 21 21 0 0 0
M  V30 BEGIN ATOM
M  V30 1 N -0.559339 -2.28108 -0.695529 0
M  V30 2 C 0.0861889 -1.06533 -0.296662 0
M  V30 3 C 1.46266 -0.999949 -0.162216 0
M  V30 4 C 2.08031 0.18657 0.226033 0
M  V30 5 C 1.30835 1.3044 0.47779 0
M  V30 6 C -0.0650805 1.24663 0.345755 0
M  V30 7 C -0.678869 0.0550861 -0.0435891 0
M  V30 8 S -2.40951 -0.0689343 -0.224507 0
M  V30 9 N -3.14922 1.45903 0.146166 0
M  V30 10 O -2.73859 -0.51334 -1.6139 0
M  V30 11 O -2.92088 -1.06925 0.801794 0
M  V30 12 N 3.48562 0.225327 0.355363 0 CHG=1
M  V30 13 O 4.09409 1.38567 0.735421 0 CHG=-1
M  V30 14 O 4.17519 -0.773109 0.130523 0
M  V30 15 H -0.629627 -2.44689 -1.72377 0
M  V30 16 H -0.940136 -2.96743 -0.0231517 0
M  V30 17 H 2.02599 -1.90115 -0.370185 0
M  V30 18 H 1.75144 2.247 0.78222 0
M  V30 19 H -0.707124 2.10825 0.535855 0
M  V30 20 H -2.79488 2.19482 -0.515294 0
M  V30 21 H -2.87658 1.6737 1.13188 0
M  V30 END ATOM
M  V30 BEGIN BOND
M  V30 1 1 1 2
M  V30 2 2 2 3
M  V30 3 1 3 4
M  V30 4 2 4 5
M  V30 5 1 5 6
M  V30 6 2 6 7
M  V30 7 1 7 8
M  V30 8 1 8 9
M  V30 9 2 8 10
M  V30 10 2 8 11
M  V30 11 1 4 12
M  V30 12 1 12 13
M  V30 13 2 12 14
M  V30 14 1 7 2
M  V30 15 1 1 15
M  V30 16 1 1 16
M  V30 17 1 3 17
M  V30 18 1 5 18
M  V30 19 1 6 19
M  V30 20 1 9 20
M  V30 21 1 9 21
M  V30 END BOND
M  V30 END CTAB
M  END
