
     RDKit          3D

  0  0  0  0  0  0  0  0  0  0999 V3000
M  V30 BEGIN CTAB
M  V30 COUNTS 39 41 0 0 0
M  V30 BEGIN ATOM
M  V30 1 N 5.09942 -2.15948 0.166157 0
M  V30 2 C 3.86204 -1.5478 -0.105722 0
M  V30 3 C 3.62017 -0.989162 -1.3335 0
M  V30 4 C 2.41487 -0.385721 -1.61872 0
M  V30 5 C 1.43116 -0.338682 -0.659791 0
M  V30 6 C 1.6524 -0.892225 0.577093 0
M  V30 7 C 2.87538 -1.49437 0.839344 0
M  V30 8 P -0.146172 0.432244 -0.982799 0
M  V30 9 O -0.27079 0.598849 -2.48028 0
M  V30 10 C -0.187637 2.05406 -0.259426 0
M  V30 11 C 0.9548 2.80983 -0.301105 0
M  V30 12 C 1.0291 4.08491 0.232756 0
M  V30 13 C -0.0947628 4.61031 0.829136 0
M  V30 14 C -1.24527 3.83814 0.866272 0
M  V30 15 C -1.31319 2.56856 0.332732 0
M  V30 16 C -1.49939 -0.585733 -0.444828 0
M  V30 17 C -1.88038 -0.645233 0.879441 0
M  V30 18 C -2.9331 -1.43854 1.29095 0
M  V30 19 C -3.65072 -2.21083 0.375969 0
M  V30 20 N -4.73261 -3.02439 0.807902 0
M  V30 21 C -3.27087 -2.15128 -0.943128 0
M  V30 22 C -2.22084 -1.3563 -1.3345 0
M  V30 23 H 5.33453 -3.05744 -0.303497 0
M  V30 24 H 5.77075 -1.71802 0.829374 0
M  V30 25 H 4.37662 -1.00625 -2.12189 0
M  V30 26 H 2.26421 0.0499684 -2.61814 0
M  V30 27 H 0.89576 -0.879003 1.3761 0
M  V30 28 H 3.05447 -1.9335 1.81662 0
M  V30 29 H 1.86995 2.42629 -0.767344 0
M  V30 30 H 1.94927 4.65947 0.184224 0
M  V30 31 H -0.065772 5.61982 1.26153 0
M  V30 32 H -2.10662 4.29791 1.34833 0
M  V30 33 H -2.23877 2.00859 0.389415 0
M  V30 34 H -1.36877 -0.0737119 1.63989 0
M  V30 35 H -3.23423 -1.48475 2.34192 0
M  V30 36 H -5.05574 -3.81113 0.233092 0
M  V30 37 H -5.19855 -2.81598 1.71719 0
M  V30 38 H -3.82219 -2.75043 -1.67614 0
M  V30 39 H -1.91853 -1.30897 -2.38461 0
M  V30 END ATOM
M  V30 BEGIN BOND
M  V30 1 1 1 2
M  V30 2 2 2 3
M  V30 3 1 3 4
M  V30 4 2 4 5
M  V30 5 1 5 6
M  V30 6 2 6 7
M  V30 7 1 5 8
M  V30 8 2 8 9
M  V30 9 1 8 10
M  V30 10 2 10 11
M  V30 11 1 11 12
M  V30 12 2 12 13
M  V30 13 1 13 14
M  V30 14 2 14 15
M  V30 15 1 8 16
M  V30 16 2 16 17
M  V30 17 1 17 18
M  V30 18 2 18 19
M  V30 19 1 19 20
M  V30 20 1 19 21
M  V30 21 2 21 22
M  V30 22 1 7 2
M  V30 23 1 15 10
M  V30 24 1 22 16
M  V30 25 1 1 23
M  V30 26 1 1 24
M  V30 27 1 3 25
M  V30 28 1 4 26
M  V30 29 1 6 27
M  V30 30 1 7 28
M  V30 31 1 11 29
M  V30 32 1 12 30
M  V30 33 1 13 31
M  V30 34 1 14 32
M  V30 35 1 15 33
M  V30 36 1 17 34
M  V30 37 1 18 35
M  V30 38 1 20 36
M  V30 39 1 20 37
M  V30 40 1 21 38
M  V30 41 1 22 39
M  V30 END BOND
M  V30 END CTAB
M  END
