
     RDKit          3D

  0  0  0  0  0  0  0  0  0  0999 V3000
M  V30 BEGIN CTAB
M  V30 COUNTS 30 32 0 0 0
M  V30 BEGIN ATOM
M  V30 1 N 4.39119 0.867275 -1.14401 0
M  V30 2 C 3.47298 0.22031 -0.277485 0
M  V30 3 C 2.37415 0.923004 0.156388 0
M  V30 4 C 1.42382 0.392222 0.99651 0
M  V30 5 C 0.252377 1.18576 1.44099 0
M  V30 6 N -0.862988 1.0154 0.503916 0
M  V30 7 C -1.13436 1.75499 -0.586749 0
M  V30 8 N -2.2449 1.29599 -1.20034 0
M  V30 9 C -2.70413 0.253825 -0.512687 0
M  V30 10 C -1.83116 0.0827271 0.557122 0
M  V30 11 N -2.05231 -0.905859 1.4259 0
M  V30 12 C -3.1122 -1.71348 1.24852 0
M  V30 13 N -3.97409 -1.55697 0.205989 0
M  V30 14 C -3.7915 -0.575001 -0.694384 0
M  V30 15 N -4.70621 -0.435577 -1.77135 0
M  V30 16 C 1.62328 -0.920537 1.4017 0
M  V30 17 C 2.72802 -1.64809 0.9741 0
M  V30 18 C 3.67191 -1.09114 0.127512 0
M  V30 19 H 5.00808 1.64379 -0.829851 0
M  V30 20 H 4.43413 0.535296 -2.13429 0
M  V30 21 H 2.25012 1.93786 -0.176634 0
M  V30 22 H -0.12539 0.853214 2.43325 0
M  V30 23 H 0.53318 2.24704 1.54312 0
M  V30 24 H -0.566136 2.59598 -0.942225 0
M  V30 25 H -3.25042 -2.50509 1.98339 0
M  V30 26 H -5.18635 -1.27838 -2.18658 0
M  V30 27 H -4.95416 0.483078 -2.20761 0
M  V30 28 H 0.893894 -1.36759 2.06279 0
M  V30 29 H 2.89823 -2.66962 1.27957 0
M  V30 30 H 4.54093 -1.62044 -0.226424 0
M  V30 END ATOM
M  V30 BEGIN BOND
M  V30 1 1 1 2
M  V30 2 2 2 3
M  V30 3 1 3 4
M  V30 4 1 4 5
M  V30 5 1 5 6
M  V30 6 1 6 7
M  V30 7 2 7 8
M  V30 8 1 8 9
M  V30 9 2 9 10
M  V30 10 1 10 11
M  V30 11 2 11 12
M  V30 12 1 12 13
M  V30 13 2 13 14
M  V30 14 1 14 15
M  V30 15 2 4 16
M  V30 16 1 16 17
M  V30 17 2 17 18
M  V30 18 1 18 2
M  V30 19 1 10 6
M  V30 20 1 14 9
M  V30 21 1 1 19
M  V30 22 1 1 20
M  V30 23 1 3 21
M  V30 24 1 5 22
M  V30 25 1 5 23
M  V30 26 1 7 24
M  V30 27 1 12 25
M  V30 28 1 15 26
M  V30 29 1 15 27
M  V30 30 1 16 28
M  V30 31 1 17 29
M  V30 32 1 18 30
M  V30 END BOND
M  V30 END CTAB
M  END
