
     RDKit          3D

  0  0  0  0  0  0  0  0  0  0999 V3000
M  V30 BEGIN CTAB
M  V30 COUNTS 40 40 0 0 0
M  V30 BEGIN ATOM
M  V30 1 C 3.26234 0.902993 1.6022 0
M  V30 2 N 3.59018 1.12554 0.193308 0
M  V30 3 C 4.86099 1.82202 0.170168 0
M  V30 4 C 3.75895 -0.124631 -0.482909 0
M  V30 5 C 2.49686 -0.913973 -0.627434 0
M  V30 6 C 1.42828 -0.194372 -1.40571 0
M  V30 7 N 0.257548 -1.03631 -1.48356 0
M  V30 8 C 0.330687 -2.26235 -2.27824 0
M  V30 9 C -0.948513 -0.725454 -0.826816 0
M  V30 10 C -1.60172 0.43814 -1.13857 0
M  V30 11 Cl -0.940598 1.51954 -2.34142 0
M  V30 12 N -2.75219 0.770603 -0.534454 0
M  V30 13 C -3.29169 -0.0320101 0.39261 0
M  V30 14 C -4.53758 0.357247 1.02876 0
M  V30 15 O -5.08248 -0.358468 1.9032 0
M  V30 16 N -5.17203 1.57154 0.669048 0
M  V30 17 N -6.37031 1.97109 1.26461 0
M  V30 18 C -2.6519 -1.20652 0.721207 0
M  V30 19 N -3.18731 -2.09623 1.70305 0
M  V30 20 N -1.49169 -1.52565 0.101194 0
M  V30 21 H 4.05245 1.28316 2.28264 0
M  V30 22 H 3.22128 -0.202421 1.79991 0
M  V30 23 H 2.32579 1.40885 1.88579 0
M  V30 24 H 5.65585 1.05152 0.111135 0
M  V30 25 H 5.04514 2.3473 1.14559 0
M  V30 26 H 4.94032 2.5244 -0.683844 0
M  V30 27 H 4.30439 -0.0271961 -1.44198 0
M  V30 28 H 4.44034 -0.744906 0.171543 0
M  V30 29 H 2.77955 -1.88677 -1.11483 0
M  V30 30 H 2.06687 -1.18454 0.357731 0
M  V30 31 H 1.73518 0.0875292 -2.41462 0
M  V30 32 H 1.15287 0.724136 -0.84911 0
M  V30 33 H 0.528653 -1.95834 -3.34144 0
M  V30 34 H 1.08179 -2.96988 -1.88965 0
M  V30 35 H -0.642007 -2.77857 -2.28418 0
M  V30 36 H -4.75284 2.18918 -0.0499146 0
M  V30 37 H -6.2403 2.47665 2.16571 0
M  V30 38 H -6.92588 2.49503 0.577831 0
M  V30 39 H -3.97811 -2.72927 1.54067 0
M  V30 40 H -2.74917 -2.1086 2.65109 0
M  V30 END ATOM
M  V30 BEGIN BOND
M  V30 1 1 1 2
M  V30 2 1 2 3
M  V30 3 1 2 4
M  V30 4 1 4 5
M  V30 5 1 5 6
M  V30 6 1 6 7
M  V30 7 1 7 8
M  V30 8 1 7 9
M  V30 9 2 9 10
M  V30 10 1 10 11
M  V30 11 1 10 12
M  V30 12 2 12 13
M  V30 13 1 13 14
M  V30 14 2 14 15
M  V30 15 1 14 16
M  V30 16 1 16 17
M  V30 17 1 13 18
M  V30 18 1 18 19
M  V30 19 2 18 20
M  V30 20 1 20 9
M  V30 21 1 1 21
M  V30 22 1 1 22
M  V30 23 1 1 23
M  V30 24 1 3 24
M  V30 25 1 3 25
M  V30 26 1 3 26
M  V30 27 1 4 27
M  V30 28 1 4 28
M  V30 29 1 5 29
M  V30 30 1 5 30
M  V30 31 1 6 31
M  V30 32 1 6 32
M  V30 33 1 8 33
M  V30 34 1 8 34
M  V30 35 1 8 35
M  V30 36 1 16 36
M  V30 37 1 17 37
M  V30 38 1 17 38
M  V30 39 1 19 39
M  V30 40 1 19 40
M  V30 END BOND
M  V30 END CTAB
M  END
