
     RDKit          3D

  0  0  0  0  0  0  0  0  0  0999 V3000
M  V30 BEGIN CTAB
M  V30 COUNTS 44 45 0 0 0
M  V30 BEGIN ATOM
M  V30 1 C 3.22823 2.02311 -0.466105 0
M  V30 2 C 3.56351 0.561755 -0.819551 0
M  V30 3 C 3.3445 0.470969 -2.33423 0
M  V30 4 N 4.94344 0.33849 -0.486721 0
M  V30 5 C 5.35507 -0.558282 0.306805 0
M  V30 6 N 6.7548 -0.746712 0.615366 0
M  V30 7 N 4.39869 -1.43078 0.917511 0
M  V30 8 C 3.14414 -1.36229 0.704888 0
M  V30 9 N 2.24162 -2.26314 1.34278 0
M  V30 10 N 2.66006 -0.344456 -0.212568 0
M  V30 11 O 1.35256 -0.364452 -0.426168 0
M  V30 12 C 0.554654 0.322467 0.448565 0
M  V30 13 C -0.881838 -0.0427137 0.0728934 0
M  V30 14 C -1.88622 0.568789 1.01349 0
M  V30 15 C -3.26394 0.0950547 0.661175 0
M  V30 16 C -3.61281 -1.17693 1.15158 0
M  V30 17 C -4.85976 -1.6937 0.898695 0
M  V30 18 C -5.76355 -0.945387 0.158597 0
M  V30 19 C -5.44789 0.306766 -0.334 0
M  V30 20 C -4.1813 0.810198 -0.0672362 0
M  V30 21 C -6.41976 1.11835 -1.1085 0
M  V30 22 F -5.9423 1.46432 -2.35846 0
M  V30 23 F -6.71322 2.28988 -0.438921 0
M  V30 24 F -7.57762 0.375809 -1.3218 0
M  V30 25 H 4.14778 2.62905 -0.672725 0
M  V30 26 H 2.43832 2.37216 -1.12528 0
M  V30 27 H 3.00867 2.08003 0.612192 0
M  V30 28 H 3.48395 -0.608764 -2.60069 0
M  V30 29 H 2.26127 0.682702 -2.51045 0
M  V30 30 H 4.02942 1.12522 -2.87904 0
M  V30 31 H 7.18352 -1.65171 0.32598 0
M  V30 32 H 7.33166 -0.0533805 1.09189 0
M  V30 33 H 2.58403 -3.0805 1.88338 0
M  V30 34 H 1.21059 -2.15691 1.29393 0
M  V30 35 H 0.769828 0.146679 1.49014 0
M  V30 36 H 0.688824 1.42275 0.257003 0
M  V30 37 H -0.957002 -1.14593 0.0547247 0
M  V30 38 H -1.00677 0.330691 -0.982704 0
M  V30 39 H -1.87705 1.68098 0.813012 0
M  V30 40 H -1.59765 0.349085 2.05478 0
M  V30 41 H -2.8803 -1.73395 1.72929 0
M  V30 42 H -5.13522 -2.681 1.26893 0
M  V30 43 H -6.76458 -1.30433 -0.0762956 0
M  V30 44 H -3.91038 1.78003 -0.438795 0
M  V30 END ATOM
M  V30 BEGIN BOND
M  V30 1 1 1 2
M  V30 2 1 2 3
M  V30 3 1 2 4
M  V30 4 2 4 5
M  V30 5 1 5 6
M  V30 6 1 5 7
M  V30 7 2 7 8
M  V30 8 1 8 9
M  V30 9 1 8 10
M  V30 10 1 10 11
M  V30 11 1 11 12
M  V30 12 1 12 13
M  V30 13 1 13 14
M  V30 14 1 14 15
M  V30 15 2 15 16
M  V30 16 1 16 17
M  V30 17 2 17 18
M  V30 18 1 18 19
M  V30 19 2 19 20
M  V30 20 1 19 21
M  V30 21 1 21 22
M  V30 22 1 21 23
M  V30 23 1 21 24
M  V30 24 1 10 2
M  V30 25 1 20 15
M  V30 26 1 1 25
M  V30 27 1 1 26
M  V30 28 1 1 27
M  V30 29 1 3 28
M  V30 30 1 3 29
M  V30 31 1 3 30
M  V30 32 1 6 31
M  V30 33 1 6 32
M  V30 34 1 9 33
M  V30 35 1 9 34
M  V30 36 1 12 35
M  V30 37 1 12 36
M  V30 38 1 13 37
M  V30 39 1 13 38
M  V30 40 1 14 39
M  V30 41 1 14 40
M  V30 42 1 16 41
M  V30 43 1 17 42
M  V30 44 1 18 43
M  V30 45 1 20 44
M  V30 END BOND
M  V30 END CTAB
M  END
