
     RDKit          3D

  0  0  0  0  0  0  0  0  0  0999 V3000
M  V30 BEGIN CTAB
M  V30 COUNTS 45 46 0 0 0
M  V30 BEGIN ATOM
M  V30 1 N -5.74161 2.37983 0.109981 0
M  V30 2 C -4.53642 2.97336 -0.438418 0
M  V30 3 C -3.39979 2.03816 -0.167639 0
M  V30 4 O -3.59541 0.765347 -0.761472 0
M  V30 5 C -2.59862 -0.197286 -0.578287 0
M  V30 6 C -1.46408 0.0605879 0.146905 0
M  V30 7 C -0.426906 -0.867988 0.365388 0
M  V30 8 C -0.581892 -2.10746 -0.193437 0
M  V30 9 C -1.72037 -2.3978 -0.933193 0
M  V30 10 C -2.70071 -1.46014 -1.11677 0
M  V30 11 O -3.83904 -1.75451 -1.85794 0
M  V30 12 C -3.98946 -3.03371 -2.42923 0
M  V30 13 C 0.709445 -0.46471 1.14734 0
M  V30 14 O 0.60986 0.788645 1.57047 0
M  V30 15 N 1.87615 -1.12269 1.54122 0
M  V30 16 C 2.83296 -0.317095 2.37738 0
M  V30 17 C 3.76541 0.395265 1.49568 0
M  V30 18 C 3.70721 0.301861 0.104242 0
M  V30 19 N 4.59097 0.979686 -0.649098 0
M  V30 20 C 5.55899 1.76777 -0.125812 0
M  V30 21 N 5.60838 1.8525 1.2169 0
M  V30 22 C 4.75321 1.19914 2.02081 0
M  V30 23 N 6.47885 2.47183 -0.952147 0
M  V30 24 C 2.23032 -2.46416 1.2257 0
M  V30 25 H -6.14913 1.65841 -0.511855 0
M  V30 26 H -6.38438 3.15568 0.35585 0
M  V30 27 H -4.59836 3.12167 -1.53545 0
M  V30 28 H -4.34936 3.90876 0.120006 0
M  V30 29 H -2.45448 2.44827 -0.581555 0
M  V30 30 H -3.22477 1.92068 0.927675 0
M  V30 31 H -1.39994 1.077 0.570484 0
M  V30 32 H 0.164327 -2.89587 -0.0824288 0
M  V30 33 H -1.79437 -3.40666 -1.35928 0
M  V30 34 H -3.85102 -3.80281 -1.61862 0
M  V30 35 H -5.00723 -3.17096 -2.81155 0
M  V30 36 H -3.27063 -3.20387 -3.23983 0
M  V30 37 H 3.31222 -0.972179 3.11969 0
M  V30 38 H 2.21412 0.417387 2.91458 0
M  V30 39 H 2.9383 -0.324611 -0.329956 0
M  V30 40 H 4.8243 1.29271 3.11559 0
M  V30 41 H 6.80626 2.1525 -1.88729 0
M  V30 42 H 6.85488 3.37503 -0.597509 0
M  V30 43 H 3.23993 -2.68159 1.71078 0
M  V30 44 H 1.5616 -3.18665 1.7225 0
M  V30 45 H 2.4403 -2.66934 0.155636 0
M  V30 END ATOM
M  V30 BEGIN BOND
M  V30 1 1 1 2
M  V30 2 1 2 3
M  V30 3 1 3 4
M  V30 4 1 4 5
M  V30 5 2 5 6
M  V30 6 1 6 7
M  V30 7 2 7 8
M  V30 8 1 8 9
M  V30 9 2 9 10
M  V30 10 1 10 11
M  V30 11 1 11 12
M  V30 12 1 7 13
M  V30 13 2 13 14
M  V30 14 1 13 15
M  V30 15 1 15 16
M  V30 16 1 16 17
M  V30 17 2 17 18
M  V30 18 1 18 19
M  V30 19 2 19 20
M  V30 20 1 20 21
M  V30 21 2 21 22
M  V30 22 1 20 23
M  V30 23 1 15 24
M  V30 24 1 10 5
M  V30 25 1 22 17
M  V30 26 1 1 25
M  V30 27 1 1 26
M  V30 28 1 2 27
M  V30 29 1 2 28
M  V30 30 1 3 29
M  V30 31 1 3 30
M  V30 32 1 6 31
M  V30 33 1 8 32
M  V30 34 1 9 33
M  V30 35 1 12 34
M  V30 36 1 12 35
M  V30 37 1 12 36
M  V30 38 1 16 37
M  V30 39 1 16 38
M  V30 40 1 18 39
M  V30 41 1 22 40
M  V30 42 1 23 41
M  V30 43 1 23 42
M  V30 44 1 24 43
M  V30 45 1 24 44
M  V30 46 1 24 45
M  V30 END BOND
M  V30 END CTAB
M  END
