
     RDKit          3D

  0  0  0  0  0  0  0  0  0  0999 V3000
M  V30 BEGIN CTAB
M  V30 COUNTS 22 21 0 0 0
M  V30 BEGIN ATOM
M  V30 1 C -0.0128395 -1.87903 0.280056 0
M  V30 2 C -0.486215 -0.505586 -0.138177 0
M  V30 3 C 0.6623 0.178692 -0.78714 0
M  V30 4 O 0.534739 0.531385 -1.99612 0
M  V30 5 N 1.83362 0.406049 -0.0429869 0
M  V30 6 N 2.95012 1.046 -0.598316 0
M  V30 7 C -1.00305 0.292894 1.047 0
M  V30 8 C -1.44373 1.64505 0.485205 0
M  V30 9 N -1.5995 -0.650724 -1.0575 0
M  V30 10 H 0.921179 -1.73605 0.853962 0
M  V30 11 H 0.227421 -2.4305 -0.649433 0
M  V30 12 H -0.729281 -2.40376 0.935168 0
M  V30 13 H 1.88301 0.0948734 0.946895 0
M  V30 14 H 3.00264 0.911303 -1.63275 0
M  V30 15 H 3.83751 0.759612 -0.131375 0
M  V30 16 H -0.211341 0.514625 1.78515 0
M  V30 17 H -1.8555 -0.268647 1.46131 0
M  V30 18 H -1.1932 2.47717 1.15353 0
M  V30 19 H -2.54485 1.54709 0.307141 0
M  V30 20 H -0.950979 1.84529 -0.4939 0
M  V30 21 H -2.40924 -1.01949 -0.486885 0
M  V30 22 H -1.41282 -1.35624 -1.79933 0
M  V30 END ATOM
M  V30 BEGIN BOND
M  V30 1 1 1 2
M  V30 2 1 2 3
M  V30 3 2 3 4
M  V30 4 1 3 5
M  V30 5 1 5 6
M  V30 6 1 2 7
M  V30 7 1 7 8
M  V30 8 1 2 9
M  V30 9 1 1 10
M  V30 10 1 1 11
M  V30 11 1 1 12
M  V30 12 1 5 13
M  V30 13 1 6 14
M  V30 14 1 6 15
M  V30 15 1 7 16
M  V30 16 1 7 17
M  V30 17 1 8 18
M  V30 18 1 8 19
M  V30 19 1 8 20
M  V30 20 1 9 21
M  V30 21 1 9 22
M  V30 END BOND
M  V30 END CTAB
M  END
