
     RDKit          3D

  0  0  0  0  0  0  0  0  0  0999 V3000
M  V30 BEGIN CTAB
M  V30 COUNTS 49 49 0 0 0
M  V30 BEGIN ATOM
M  V30 1 C 6.92906 -0.257225 0.409628 0
M  V30 2 C 6.57577 -1.03083 -0.832968 0
M  V30 3 C 5.10284 -1.46078 -0.818181 0
M  V30 4 C 4.29819 -0.174325 -0.74492 0
M  V30 5 C 2.81019 -0.424609 -0.723158 0
M  V30 6 C 2.38912 -1.25541 0.456226 0
M  V30 7 C 0.899968 -1.50653 0.475794 0
M  V30 8 C 0.157564 -0.194861 0.548047 0
M  V30 9 C -1.35957 -0.424318 0.572166 0
M  V30 10 O -1.94198 0.807681 0.637393 0
M  V30 11 N -3.2703 0.851821 0.669658 0
M  V30 12 C -3.9624 0.527995 1.85175 0
M  V30 13 N -3.18881 0.158137 2.99125 0
M  V30 14 N -5.25851 0.543622 1.97834 0
M  V30 15 C -5.98928 0.918847 0.8211 0
M  V30 16 N -7.43176 0.975418 0.829989 0
M  V30 17 N -5.40301 1.21932 -0.26678 0
M  V30 18 C -4.00325 1.23161 -0.500364 0
M  V30 19 C -3.71367 0.265806 -1.64061 0
M  V30 20 C -3.60383 2.61368 -0.996602 0
M  V30 21 H 6.31371 -0.625868 1.26809 0
M  V30 22 H 7.98371 -0.392454 0.722377 0
M  V30 23 H 6.69077 0.815577 0.242686 0
M  V30 24 H 7.20201 -1.92242 -0.989312 0
M  V30 25 H 6.7287 -0.372175 -1.73124 0
M  V30 26 H 4.92605 -1.96858 -1.77409 0
M  V30 27 H 4.93741 -2.10646 0.0487412 0
M  V30 28 H 4.53237 0.450931 -1.63022 0
M  V30 29 H 4.61602 0.392021 0.161659 0
M  V30 30 H 2.33012 0.573729 -0.69944 0
M  V30 31 H 2.52527 -0.927791 -1.66764 0
M  V30 32 H 2.65229 -0.704264 1.39425 0
M  V30 33 H 2.95304 -2.20051 0.494085 0
M  V30 34 H 0.670957 -2.17093 1.32897 0
M  V30 35 H 0.658087 -2.01187 -0.496334 0
M  V30 36 H 0.463904 0.351085 1.46261 0
M  V30 37 H 0.341085 0.450451 -0.310519 0
M  V30 38 H -1.65785 -0.909604 -0.380511 0
M  V30 39 H -1.63776 -1.13174 1.37271 0
M  V30 40 H -3.09285 -0.807426 3.31353 0
M  V30 41 H -2.69243 0.904923 3.52886 0
M  V30 42 H -7.91248 1.71687 1.38513 0
M  V30 43 H -8.0121 0.307941 0.306134 0
M  V30 44 H -4.47888 0.486332 -2.42374 0
M  V30 45 H -2.7017 0.473644 -2.03555 0
M  V30 46 H -3.83787 -0.784175 -1.36668 0
M  V30 47 H -4.21994 2.80806 -1.89378 0
M  V30 48 H -3.76413 3.39774 -0.259568 0
M  V30 49 H -2.55388 2.5219 -1.34368 0
M  V30 END ATOM
M  V30 BEGIN BOND
M  V30 1 1 1 2
M  V30 2 1 2 3
M  V30 3 1 3 4
M  V30 4 1 4 5
M  V30 5 1 5 6
M  V30 6 1 6 7
M  V30 7 1 7 8
M  V30 8 1 8 9
M  V30 9 1 9 10
M  V30 10 1 10 11
M  V30 11 1 11 12
M  V30 12 1 12 13
M  V30 13 2 12 14
M  V30 14 1 14 15
M  V30 15 1 15 16
M  V30 16 2 15 17
M  V30 17 1 17 18
M  V30 18 1 18 19
M  V30 19 1 18 20
M  V30 20 1 18 11
M  V30 21 1 1 21
M  V30 22 1 1 22
M  V30 23 1 1 23
M  V30 24 1 2 24
M  V30 25 1 2 25
M  V30 26 1 3 26
M  V30 27 1 3 27
M  V30 28 1 4 28
M  V30 29 1 4 29
M  V30 30 1 5 30
M  V30 31 1 5 31
M  V30 32 1 6 32
M  V30 33 1 6 33
M  V30 34 1 7 34
M  V30 35 1 7 35
M  V30 36 1 8 36
M  V30 37 1 8 37
M  V30 38 1 9 38
M  V30 39 1 9 39
M  V30 40 1 13 40
M  V30 41 1 13 41
M  V30 42 1 16 42
M  V30 43 1 16 43
M  V30 44 1 19 44
M  V30 45 1 19 45
M  V30 46 1 19 46
M  V30 47 1 20 47
M  V30 48 1 20 48
M  V30 49 1 20 49
M  V30 END BOND
M  V30 END CTAB
M  END
