
     RDKit          3D

  0  0  0  0  0  0  0  0  0  0999 V3000
M  V30 BEGIN CTAB
M  V30 COUNTS 50 52 0 0 0
M  V30 BEGIN ATOM
M  V30 1 N 6.15993 0.724813 -1.59011 0
M  V30 2 C 5.0962 1.22032 -0.78657 0
M  V30 3 C 4.65729 2.50886 -1.03231 0
M  V30 4 C 3.62799 2.99555 -0.258033 0
M  V30 5 C 3.02272 2.24966 0.747014 0
M  V30 6 C 3.45336 0.969692 0.994858 0
M  V30 7 C 4.5112 0.479686 0.194494 0
M  V30 8 O 2.95623 0.136869 1.93078 0
M  V30 9 C 1.96185 0.197193 2.85104 0
M  V30 10 C 0.604409 0.320562 2.21047 0
M  V30 11 C 0.452199 -0.935977 1.34105 0
M  V30 12 N -0.836895 -0.897394 0.686762 0
M  V30 13 C -2.00256 -1.4558 1.25966 0
M  V30 14 O -1.83623 -2.26625 2.20559 0
M  V30 15 C -3.33205 -1.08907 0.753982 0
M  V30 16 O -3.23212 -0.773816 -0.621001 0
M  V30 17 C -2.1244 -0.21499 -1.22163 0
M  V30 18 C -0.912518 -0.265975 -0.582517 0
M  V30 19 N 0.21065 0.275052 -1.1421 0
M  V30 20 C 0.183793 0.879926 -2.33852 0
M  V30 21 N 1.33393 1.45071 -2.94633 0
M  V30 22 C -1.0255 0.939153 -2.99239 0
M  V30 23 C -2.18076 0.404291 -2.459 0
M  V30 24 C -4.34621 -2.20138 0.865505 0
M  V30 25 C -5.66183 -1.64798 0.296145 0
M  V30 26 C -4.64749 -2.60762 2.27674 0
M  V30 27 H 7.1518 0.84632 -1.32917 0
M  V30 28 H 5.85802 0.226086 -2.46954 0
M  V30 29 H 5.09866 3.13116 -1.80715 0
M  V30 30 H 3.24162 4.0135 -0.412673 0
M  V30 31 H 2.22113 2.71378 1.3362 0
M  V30 32 H 4.87799 -0.54221 0.369902 0
M  V30 33 H 1.9848 -0.779299 3.44253 0
M  V30 34 H 2.08102 0.997049 3.62868 0
M  V30 35 H -0.214667 0.358729 2.96539 0
M  V30 36 H 0.565481 1.21548 1.58951 0
M  V30 37 H 0.483588 -1.84893 1.96899 0
M  V30 38 H 1.27988 -1.0151 0.623992 0
M  V30 39 H -3.71311 -0.202566 1.29789 0
M  V30 40 H 2.07942 0.860226 -3.37261 0
M  V30 41 H 1.45608 2.49725 -2.97836 0
M  V30 42 H -1.06026 1.42054 -3.95036 0
M  V30 43 H -3.12572 0.440839 -2.95043 0
M  V30 44 H -4.08209 -3.05809 0.215266 0
M  V30 45 H -6.36294 -2.47858 0.0583617 0
M  V30 46 H -5.46899 -0.96843 -0.537023 0
M  V30 47 H -6.13174 -1.07464 1.12857 0
M  V30 48 H -3.98259 -3.37306 2.68979 0
M  V30 49 H -4.64652 -1.72551 2.93809 0
M  V30 50 H -5.68408 -3.05061 2.29171 0
M  V30 END ATOM
M  V30 BEGIN BOND
M  V30 1 1 1 2
M  V30 2 2 2 3
M  V30 3 1 3 4
M  V30 4 2 4 5
M  V30 5 1 5 6
M  V30 6 2 6 7
M  V30 7 1 6 8
M  V30 8 1 8 9
M  V30 9 1 9 10
M  V30 10 1 10 11
M  V30 11 1 11 12
M  V30 12 1 12 13
M  V30 13 2 13 14
M  V30 14 1 13 15
M  V30 15 1 15 16
M  V30 16 1 16 17
M  V30 17 2 17 18
M  V30 18 1 18 19
M  V30 19 2 19 20
M  V30 20 1 20 21
M  V30 21 1 20 22
M  V30 22 2 22 23
M  V30 23 1 15 24
M  V30 24 1 24 25
M  V30 25 1 24 26
M  V30 26 1 7 2
M  V30 27 1 18 12
M  V30 28 1 23 17
M  V30 29 1 1 27
M  V30 30 1 1 28
M  V30 31 1 3 29
M  V30 32 1 4 30
M  V30 33 1 5 31
M  V30 34 1 7 32
M  V30 35 1 9 33
M  V30 36 1 9 34
M  V30 37 1 10 35
M  V30 38 1 10 36
M  V30 39 1 11 37
M  V30 40 1 11 38
M  V30 41 1 15 39
M  V30 42 1 21 40
M  V30 43 1 21 41
M  V30 44 1 22 42
M  V30 45 1 23 43
M  V30 46 1 24 44
M  V30 47 1 25 45
M  V30 48 1 25 46
M  V30 49 1 25 47
M  V30 50 1 26 48
M  V30 51 1 26 49
M  V30 52 1 26 50
M  V30 END BOND
M  V30 END CTAB
M  END
