
     RDKit          3D

  0  0  0  0  0  0  0  0  0  0999 V3000
M  V30 BEGIN CTAB
M  V30 COUNTS 67 67 0 0 0
M  V30 BEGIN ATOM
M  V30 1 C -2.26827 0.358926 0.730347 0 CFG=2
M  V30 2 O -3.14905 0.683016 1.83857 0
M  V30 3 C -4.35578 1.3568 1.48361 0
M  V30 4 C -4.70206 1.48588 0.22002 0
M  V30 5 C -3.87393 0.947769 -0.88314 0 CFG=2
M  V30 6 N -4.52198 0.668867 -2.09359 0
M  V30 7 C -5.21696 1.78498 -2.71616 0
M  V30 8 N -6.60619 1.75838 -2.97839 0
M  V30 9 N -4.53271 2.82031 -3.04066 0
M  V30 10 C -3.14264 -0.29101 -0.245845 0 CFG=1
M  V30 11 N -2.79057 -1.22429 -1.15806 0
M  V30 12 C -2.43528 -2.16625 -2.07876 0
M  V30 13 C -1.01597 -2.55687 -2.42906 0
M  V30 14 O -3.296 -2.87513 -2.78979 0
M  V30 15 C -5.17627 1.88595 2.57575 0
M  V30 16 O -6.35774 2.54933 2.19936 0
M  V30 17 O -4.84243 1.75264 3.76568 0
M  V30 18 C -1.04954 -0.243117 1.27239 0 CFG=2
M  V30 19 O -0.0625568 -0.457268 0.267921 0
M  V30 20 C 1.09089 0.320805 0.148021 0
M  V30 21 O 1.20764 1.23038 1.00699 0
M  V30 22 N 2.04918 0.107124 -0.860656 0
M  V30 23 C 3.21362 0.92496 -0.972157 0
M  V30 24 C 4.1249 0.905744 0.194835 0
M  V30 25 C 4.66879 -0.459052 0.524194 0
M  V30 26 C 5.44363 -1.12366 -0.535218 0
M  V30 27 C 6.66769 -0.445585 -1.01391 0
M  V30 28 C 7.78349 -0.236796 -0.0544506 0
M  V30 29 N 7.49618 0.567379 1.08296 0
M  V30 30 C -1.26053 -1.44613 2.13403 0 CFG=2
M  V30 31 O -2.21718 -1.21797 3.13468 0
M  V30 32 C 0.00402582 -1.90825 2.83573 0
M  V30 33 O 0.48352 -0.967642 3.7181 0
M  V30 34 H -1.98329 1.38202 0.355631 0
M  V30 35 H -5.61512 1.99797 -0.0218052 0
M  V30 36 H -3.02736 1.67549 -1.06358 0
M  V30 37 H -4.59889 -0.195883 -2.65114 0
M  V30 38 H -7.09588 0.94215 -3.40824 0
M  V30 39 H -7.17795 2.58736 -2.73951 0
M  V30 40 H -4.92019 3.65881 -3.4825 0
M  V30 41 H -4.03591 -0.693244 0.393653 0
M  V30 42 H -4.11475 -1.52392 -1.37593 0
M  V30 43 H -1.01223 -3.59737 -2.86358 0
M  V30 44 H -0.485055 -2.63637 -1.45277 0
M  V30 45 H -0.53653 -1.81054 -3.03872 0
M  V30 46 H -7.23916 2.19574 2.58356 0
M  V30 47 H -0.604253 0.572681 1.92975 0
M  V30 48 H 1.9292 -0.66374 -1.5617 0
M  V30 49 H 3.73388 0.797691 -1.94947 0
M  V30 50 H 2.82679 1.99433 -1.04117 0
M  V30 51 H 3.59237 1.25716 1.0952 0
M  V30 52 H 4.95203 1.66814 0.0573185 0
M  V30 53 H 5.25282 -0.391528 1.45612 0
M  V30 54 H 3.80599 -1.14613 0.801119 0
M  V30 55 H 4.81064 -1.50565 -1.38195 0
M  V30 56 H 5.80307 -2.11205 -0.0741777 0
M  V30 57 H 6.39532 0.55482 -1.4737 0
M  V30 58 H 7.08737 -1.00469 -1.9185 0
M  V30 59 H 8.12841 -1.24624 0.309487 0
M  V30 60 H 8.62225 0.260281 -0.613229 0
M  V30 61 H 7.97508 1.49102 1.0468 0
M  V30 62 H 7.7847 0.0891083 1.94928 0
M  V30 63 H -1.69464 -2.28366 1.52396 0
M  V30 64 H -1.83208 -0.693066 3.86384 0
M  V30 65 H 0.781528 -2.24622 2.10789 0
M  V30 66 H -0.303832 -2.81027 3.42839 0
M  V30 67 H 1.4357 -1.05444 3.9263 0
M  V30 END ATOM
M  V30 BEGIN BOND
M  V30 1 1 1 2
M  V30 2 1 2 3
M  V30 3 2 3 4
M  V30 4 1 4 5
M  V30 5 1 5 6
M  V30 6 1 6 7
M  V30 7 1 7 8
M  V30 8 2 7 9 CFG=2
M  V30 9 1 5 10
M  V30 10 1 10 11
M  V30 11 1 11 12
M  V30 12 1 12 13
M  V30 13 2 12 14
M  V30 14 1 3 15
M  V30 15 1 15 16
M  V30 16 2 15 17
M  V30 17 1 1 18
M  V30 18 1 18 19
M  V30 19 1 19 20
M  V30 20 2 20 21
M  V30 21 1 20 22
M  V30 22 1 22 23
M  V30 23 1 23 24
M  V30 24 1 24 25
M  V30 25 1 25 26
M  V30 26 1 26 27
M  V30 27 1 27 28
M  V30 28 1 28 29
M  V30 29 1 18 30
M  V30 30 1 30 31
M  V30 31 1 30 32
M  V30 32 1 32 33
M  V30 33 1 10 1
M  V30 34 1 1 34 CFG=3
M  V30 35 1 4 35
M  V30 36 1 5 36 CFG=3
M  V30 37 1 6 37
M  V30 38 1 8 38
M  V30 39 1 8 39
M  V30 40 1 9 40
M  V30 41 1 10 41 CFG=1
M  V30 42 1 11 42
M  V30 43 1 13 43
M  V30 44 1 13 44
M  V30 45 1 13 45
M  V30 46 1 16 46
M  V30 47 1 18 47 CFG=1
M  V30 48 1 22 48
M  V30 49 1 23 49
M  V30 50 1 23 50
M  V30 51 1 24 51
M  V30 52 1 24 52
M  V30 53 1 25 53
M  V30 54 1 25 54
M  V30 55 1 26 55
M  V30 56 1 26 56
M  V30 57 1 27 57
M  V30 58 1 27 58
M  V30 59 1 28 59
M  V30 60 1 28 60
M  V30 61 1 29 61
M  V30 62 1 29 62
M  V30 63 1 30 63 CFG=3
M  V30 64 1 31 64
M  V30 65 1 32 65
M  V30 66 1 32 66
M  V30 67 1 33 67
M  V30 END BOND
M  V30 END CTAB
M  END
