
     RDKit          3D

  0  0  0  0  0  0  0  0  0  0999 V3000
M  V30 BEGIN CTAB
M  V30 COUNTS 25 26 0 0 0
M  V30 BEGIN ATOM
M  V30 1 C -3.10127 -1.15125 0.716225 0
M  V30 2 N -1.74082 -1.21751 0.293348 0
M  V30 3 C -1.13742 0.0329221 -0.029585 0
M  V30 4 C -1.74111 0.770598 -1.23726 0
M  V30 5 C -1.82648 1.33958 0.180988 0
M  V30 6 C 0.340774 0.00552788 -0.0104633 0
M  V30 7 N 0.990218 -0.885788 -0.737056 0
M  V30 8 C 2.32224 -0.868192 -0.725068 0
M  V30 9 N 3.04903 -1.82006 -1.50234 0
M  V30 10 N 2.97479 0.0523749 0.0230179 0
M  V30 11 C 2.31487 0.97189 0.769514 0
M  V30 12 N 0.988767 0.965286 0.7668 0
M  V30 13 N 3.0037 1.92666 1.54545 0
M  V30 14 H -3.22801 -0.405301 1.50346 0
M  V30 15 H -3.78578 -1.044 -0.155752 0
M  V30 16 H -3.38081 -2.1562 1.1946 0
M  V30 17 H -1.48098 -2.05511 -0.201285 0
M  V30 18 H -1.04568 1.25544 -1.94466 0
M  V30 19 H -2.70778 0.42551 -1.63664 0
M  V30 20 H -2.80838 1.4426 0.688858 0
M  V30 21 H -1.15187 2.20445 0.354958 0
M  V30 22 H 3.04106 -1.7842 -2.54315 0
M  V30 23 H 3.59912 -2.54018 -1.00502 0
M  V30 24 H 3.14386 1.71982 2.53738 0
M  V30 25 H 3.36797 2.81514 1.1537 0
M  V30 END ATOM
M  V30 BEGIN BOND
M  V30 1 1 1 2
M  V30 2 1 2 3
M  V30 3 1 3 4
M  V30 4 1 4 5
M  V30 5 1 3 6
M  V30 6 2 6 7
M  V30 7 1 7 8
M  V30 8 1 8 9
M  V30 9 2 8 10
M  V30 10 1 10 11
M  V30 11 2 11 12
M  V30 12 1 11 13
M  V30 13 1 5 3
M  V30 14 1 12 6
M  V30 15 1 1 14
M  V30 16 1 1 15
M  V30 17 1 1 16
M  V30 18 1 2 17
M  V30 19 1 4 18
M  V30 20 1 4 19
M  V30 21 1 5 20
M  V30 22 1 5 21
M  V30 23 1 9 22
M  V30 24 1 9 23
M  V30 25 1 13 24
M  V30 26 1 13 25
M  V30 END BOND
M  V30 END CTAB
M  END
