
     RDKit          3D

  0  0  0  0  0  0  0  0  0  0999 V3000
M  V30 BEGIN CTAB
M  V30 COUNTS 34 35 0 0 0
M  V30 BEGIN ATOM
M  V30 1 N 6.69226 -0.669427 0.15648 0
M  V30 2 C 5.28691 -0.640804 0.0310725 0
M  V30 3 C 4.59562 0.493461 0.370132 0
M  V30 4 C 3.1914 0.545473 0.253227 0
M  V30 5 O 2.55319 1.71729 0.610882 0
M  V30 6 C 2.48269 -0.53476 -0.201615 0
M  V30 7 C 3.24181 -1.68558 -0.540049 0
M  V30 8 C 4.59721 -1.7371 -0.427676 0
M  V30 9 C 1.04669 -0.575552 -0.354946 0
M  V30 10 O 0.568643 -1.67516 -0.794169 0
M  V30 11 N 0.144207 0.455067 -0.0737332 0
M  V30 12 C -1.27536 0.38734 -0.222479 0
M  V30 13 C -1.99703 1.56858 -0.442545 0
M  V30 14 C -3.36463 1.5371 -0.564799 0
M  V30 15 C -4.08802 0.372473 -0.480314 0
M  V30 16 C -3.39137 -0.790306 -0.264395 0
M  V30 17 C -1.99042 -0.77419 -0.136687 0
M  V30 18 S -5.84457 0.363716 -0.642412 0
M  V30 19 N -6.49203 0.572972 0.938307 0
M  V30 20 O -6.20697 -1.0076 -1.18578 0
M  V30 21 O -6.2568 1.41894 -1.59382 0
M  V30 22 H 7.14105 -0.336587 1.03166 0
M  V30 23 H 7.30547 -1.01657 -0.606041 0
M  V30 24 H 5.07129 1.3928 0.73777 0
M  V30 25 H 3.0138 2.53465 0.947736 0
M  V30 26 H 2.7011 -2.5577 -0.904227 0
M  V30 27 H 5.13909 -2.64495 -0.700155 0
M  V30 28 H 0.445634 1.41109 0.292235 0
M  V30 29 H -1.46642 2.52201 -0.517331 0
M  V30 30 H -3.95475 2.44693 -0.737525 0
M  V30 31 H -3.94003 -1.72341 -0.193751 0
M  V30 32 H -1.53502 -1.75327 0.0522679 0
M  V30 33 H -7.49908 0.364632 0.948014 0
M  V30 34 H -5.91557 0.018441 1.58801 0
M  V30 END ATOM
M  V30 BEGIN BOND
M  V30 1 1 1 2
M  V30 2 2 2 3
M  V30 3 1 3 4
M  V30 4 1 4 5
M  V30 5 2 4 6
M  V30 6 1 6 7
M  V30 7 2 7 8
M  V30 8 1 6 9
M  V30 9 2 9 10
M  V30 10 1 9 11
M  V30 11 1 11 12
M  V30 12 2 12 13
M  V30 13 1 13 14
M  V30 14 2 14 15
M  V30 15 1 15 16
M  V30 16 2 16 17
M  V30 17 1 15 18
M  V30 18 1 18 19
M  V30 19 2 18 20
M  V30 20 2 18 21
M  V30 21 1 8 2
M  V30 22 1 17 12
M  V30 23 1 1 22
M  V30 24 1 1 23
M  V30 25 1 3 24
M  V30 26 1 5 25
M  V30 27 1 7 26
M  V30 28 1 8 27
M  V30 29 1 11 28
M  V30 30 1 13 29
M  V30 31 1 14 30
M  V30 32 1 16 31
M  V30 33 1 17 32
M  V30 34 1 19 33
M  V30 35 1 19 34
M  V30 END BOND
M  V30 END CTAB
M  END
