
     RDKit          3D

  0  0  0  0  0  0  0  0  0  0999 V3000
M  V30 BEGIN CTAB
M  V30 COUNTS 51 53 0 0 0
M  V30 BEGIN ATOM
M  V30 1 N -2.83157 2.12953 0.130282 0
M  V30 2 C -2.62113 0.983771 -0.607761 0 CFG=1
M  V30 3 C -1.3469 0.879782 -1.32741 0
M  V30 4 N -0.0933972 0.939571 -0.78916 0
M  V30 5 C 0.525568 0.0189386 0.0663627 0 CFG=2
M  V30 6 C 0.0588628 -0.125367 1.45223 0
M  V30 7 N 1.13298 0.215188 2.31429 0
M  V30 8 C 2.28778 0.554655 1.56042 0
M  V30 9 C 2.01545 0.262386 0.130329 0 CFG=1
M  V30 10 C 2.73207 -0.994462 -0.262705 0
M  V30 11 C 4.20015 -0.897696 -0.260475 0
M  V30 12 C 4.88726 -2.03827 -0.64854 0
M  V30 13 C 6.25914 -2.09088 -0.702885 0
M  V30 14 C 6.96618 -0.960508 -0.356324 0
M  V30 15 C 6.27653 0.170605 0.0286066 0
M  V30 16 N 7.01742 1.30864 0.37487 0
M  V30 17 N 4.92119 0.179748 0.0685616 0
M  V30 18 C -3.16003 -0.301503 -0.113881 0
M  V30 19 C -4.65409 -0.293725 -0.0139104 0
M  V30 20 C -5.34443 -0.688909 -1.13121 0
M  V30 21 C -6.71528 -0.728817 -1.176 0
M  V30 22 C -7.43242 -0.362349 -0.0710875 0
M  V30 23 C -6.72836 0.0359701 1.05434 0
M  V30 24 C -5.34994 0.077278 1.10472 0
M  V30 25 H -3.12672 2.02558 1.05725 0
M  V30 26 H -2.66659 3.01384 -0.196891 0
M  V30 27 H -3.42992 1.19855 -1.50754 0
M  V30 28 H -1.38431 -0.018958 -2.05432 0
M  V30 29 H -1.39307 1.73509 -2.13 0
M  V30 30 H 0.525154 1.74107 -1.08918 0
M  V30 31 H 0.443977 -1.01302 -0.473958 0
M  V30 32 H -0.321355 -1.16635 1.61042 0
M  V30 33 H -0.806486 0.530811 1.72048 0
M  V30 34 H 0.893952 1.00193 2.93515 0
M  V30 35 H 2.61423 1.61441 1.68734 0
M  V30 36 H 3.1363 -0.077541 1.94031 0
M  V30 37 H 2.27786 1.11521 -0.54587 0
M  V30 38 H 2.40873 -1.35348 -1.2657 0
M  V30 39 H 2.46996 -1.76604 0.51685 0
M  V30 40 H 4.35298 -2.9551 -0.933574 0
M  V30 41 H 6.75253 -3.01173 -1.01516 0
M  V30 42 H 8.05438 -0.996597 -0.397803 0
M  V30 43 H 6.70347 2.25025 0.0490296 0
M  V30 44 H 7.89623 1.27863 0.959563 0
M  V30 45 H -2.81291 -0.586162 0.917607 0
M  V30 46 H -2.87992 -1.13201 -0.789972 0
M  V30 47 H -4.83533 -0.996047 -2.05982 0
M  V30 48 H -7.2338 -1.04731 -2.06824 0
M  V30 49 H -8.52635 -0.382218 -0.0710618 0
M  V30 50 H -7.30877 0.328836 1.94275 0
M  V30 51 H -4.80725 0.394769 1.99886 0
M  V30 END ATOM
M  V30 BEGIN BOND
M  V30 1 1 1 2
M  V30 2 1 2 3
M  V30 3 1 3 4
M  V30 4 1 4 5
M  V30 5 1 5 6
M  V30 6 1 6 7
M  V30 7 1 7 8
M  V30 8 1 8 9
M  V30 9 1 9 10
M  V30 10 1 10 11
M  V30 11 2 11 12
M  V30 12 1 12 13
M  V30 13 2 13 14
M  V30 14 1 14 15
M  V30 15 1 15 16
M  V30 16 2 15 17
M  V30 17 1 2 18
M  V30 18 1 18 19
M  V30 19 2 19 20
M  V30 20 1 20 21
M  V30 21 2 21 22
M  V30 22 1 22 23
M  V30 23 2 23 24
M  V30 24 1 9 5
M  V30 25 1 17 11
M  V30 26 1 24 19
M  V30 27 1 1 25
M  V30 28 1 1 26
M  V30 29 1 2 27 CFG=3
M  V30 30 1 3 28
M  V30 31 1 3 29
M  V30 32 1 4 30
M  V30 33 1 5 31 CFG=3
M  V30 34 1 6 32
M  V30 35 1 6 33
M  V30 36 1 7 34
M  V30 37 1 8 35
M  V30 38 1 8 36
M  V30 39 1 9 37 CFG=3
M  V30 40 1 10 38
M  V30 41 1 10 39
M  V30 42 1 12 40
M  V30 43 1 13 41
M  V30 44 1 14 42
M  V30 45 1 16 43
M  V30 46 1 16 44
M  V30 47 1 18 45
M  V30 48 1 18 46
M  V30 49 1 20 47
M  V30 50 1 21 48
M  V30 51 1 22 49
M  V30 52 1 23 50
M  V30 53 1 24 51
M  V30 END BOND
M  V30 END CTAB
M  END
