
     RDKit          3D

  0  0  0  0  0  0  0  0  0  0999 V3000
M  V30 BEGIN CTAB
M  V30 COUNTS 12 12 0 0 0
M  V30 BEGIN ATOM
M  V30 1 N -2.47064 0.119476 0.235627 0
M  V30 2 C -1.10959 -0.149408 -0.156503 0
M  V30 3 O -0.727629 -0.90473 -1.15705 0
M  V30 4 N 0.562705 -0.938665 -1.23937 0
M  V30 5 C 1.10505 -0.180602 -0.262367 0
M  V30 6 C 0.0327465 0.327363 0.434454 0
M  V30 7 N 2.49597 0.0396737 -0.0146891 0
M  V30 8 H -3.24061 -0.559411 0.03523 0
M  V30 9 H -2.73975 0.987651 0.727284 0
M  V30 10 H 0.115213 0.981473 1.28878 0
M  V30 11 H 2.94861 0.797492 -0.545019 0
M  V30 12 H 3.02793 -0.520312 0.65363 0
M  V30 END ATOM
M  V30 BEGIN BOND
M  V30 1 1 1 2
M  V30 2 1 2 3
M  V30 3 1 3 4
M  V30 4 2 4 5
M  V30 5 1 5 6
M  V30 6 1 5 7
M  V30 7 2 6 2
M  V30 8 1 1 8
M  V30 9 1 1 9
M  V30 10 1 6 10
M  V30 11 1 7 11
M  V30 12 1 7 12
M  V30 END BOND
M  V30 END CTAB
M  END
