
     RDKit          3D

  0  0  0  0  0  0  0  0  0  0999 V3000
M  V30 BEGIN CTAB
M  V30 COUNTS 40 41 0 0 0
M  V30 BEGIN ATOM
M  V30 1 C -6.95652 -0.265639 0.723625 0
M  V30 2 O -5.84238 -1.04802 1.1101 0
M  V30 3 C -4.54484 -0.698756 0.736561 0
M  V30 4 C -3.45265 -1.44847 1.10441 0
M  V30 5 C -2.15547 -1.07522 0.715175 0
M  V30 6 C -1.90641 0.0359068 -0.040041 0
M  V30 7 C -3.03466 0.793974 -0.408783 0
M  V30 8 C -4.30089 0.425045 -0.0254022 0
M  V30 9 C -0.562371 0.472211 -0.503788 0
M  V30 10 N -0.281759 1.81771 0.0372573 0
M  V30 11 C 0.506995 -0.460375 -0.154147 0
M  V30 12 N 0.355488 -1.81154 -0.70914 0
M  V30 13 C 1.88233 -0.00755971 -0.345351 0
M  V30 14 C 2.8957 -0.742793 0.292159 0
M  V30 15 C 4.22539 -0.411199 0.15259 0
M  V30 16 C 4.56981 0.673441 -0.635565 0
M  V30 17 O 5.91435 1.01984 -0.784542 0
M  V30 18 C 6.91113 0.26509 -0.133216 0
M  V30 19 C 3.57961 1.39349 -1.26022 0
M  V30 20 C 2.23163 1.04845 -1.11254 0
M  V30 21 H -6.7009 0.789064 1.03525 0
M  V30 22 H -7.86857 -0.521605 1.2547 0
M  V30 23 H -7.06648 -0.219303 -0.376185 0
M  V30 24 H -3.60374 -2.33343 1.69986 0
M  V30 25 H -1.32905 -1.70064 1.05343 0
M  V30 26 H -2.86159 1.67864 -1.00646 0
M  V30 27 H -5.18451 1.01024 -0.308822 0
M  V30 28 H -0.613973 0.550639 -1.6273 0
M  V30 29 H -1.0369 2.4274 -0.351033 0
M  V30 30 H -0.467725 1.74027 1.06865 0
M  V30 31 H 0.41534 -0.652239 0.973313 0
M  V30 32 H 0.940613 -2.47637 -0.127391 0
M  V30 33 H 0.789346 -1.85074 -1.67191 0
M  V30 34 H 2.62855 -1.58833 0.906685 0
M  V30 35 H 5.02113 -0.965363 0.63574 0
M  V30 36 H 6.85902 0.486332 0.951978 0
M  V30 37 H 6.82498 -0.826291 -0.333171 0
M  V30 38 H 7.89774 0.590053 -0.525545 0
M  V30 39 H 3.81502 2.25581 -1.89005 0
M  V30 40 H 1.50722 1.63027 -1.63286 0
M  V30 END ATOM
M  V30 BEGIN BOND
M  V30 1 1 1 2
M  V30 2 1 2 3
M  V30 3 2 3 4
M  V30 4 1 4 5
M  V30 5 2 5 6
M  V30 6 1 6 7
M  V30 7 2 7 8
M  V30 8 1 6 9
M  V30 9 1 9 10
M  V30 10 1 9 11
M  V30 11 1 11 12
M  V30 12 1 11 13
M  V30 13 2 13 14
M  V30 14 1 14 15
M  V30 15 2 15 16
M  V30 16 1 16 17
M  V30 17 1 17 18
M  V30 18 1 16 19
M  V30 19 2 19 20
M  V30 20 1 8 3
M  V30 21 1 20 13
M  V30 22 1 1 21
M  V30 23 1 1 22
M  V30 24 1 1 23
M  V30 25 1 4 24
M  V30 26 1 5 25
M  V30 27 1 7 26
M  V30 28 1 8 27
M  V30 29 1 9 28
M  V30 30 1 10 29
M  V30 31 1 10 30
M  V30 32 1 11 31
M  V30 33 1 12 32
M  V30 34 1 12 33
M  V30 35 1 14 34
M  V30 36 1 15 35
M  V30 37 1 18 36
M  V30 38 1 18 37
M  V30 39 1 18 38
M  V30 40 1 19 39
M  V30 41 1 20 40
M  V30 END BOND
M  V30 END CTAB
M  END
