
     RDKit          3D

  0  0  0  0  0  0  0  0  0  0999 V3000
M  V30 BEGIN CTAB
M  V30 COUNTS 47 49 0 0 0
M  V30 BEGIN ATOM
M  V30 1 C -3.73629 3.57208 0.0198403 0
M  V30 2 O -4.08689 2.30054 -0.489218 0
M  V30 3 C -3.20107 1.23281 -0.306266 0
M  V30 4 C -2.00171 1.42206 0.362595 0
M  V30 5 C -1.12587 0.389462 0.549435 0
M  V30 6 C -1.41449 -0.868892 0.0754918 0
M  V30 7 C -0.525358 -2.01092 0.265402 0
M  V30 8 N 0.718308 -1.73482 0.932032 0
M  V30 9 C 1.77622 -0.970009 0.328181 0
M  V30 10 C 2.8938 -0.603881 1.02487 0
M  V30 11 C 3.92998 0.109173 0.482918 0
M  V30 12 C 5.03916 0.445529 1.2606 0
M  V30 13 N 5.14504 0.074329 2.61774 0
M  V30 14 N 6.00547 1.14079 0.659266 0
M  V30 15 C 5.96011 1.52399 -0.634637 0
M  V30 16 N 7.01822 2.27097 -1.248 0
M  V30 17 N 4.86823 1.18041 -1.36052 0
M  V30 18 C 3.85388 0.485157 -0.839229 0
M  V30 19 C 2.73441 0.126225 -1.56197 0
M  V30 20 C 1.68997 -0.59656 -1.00279 0
M  V30 21 C -2.6262 -1.0613 -0.60022 0
M  V30 22 O -2.98024 -2.30423 -1.10337 0
M  V30 23 C -3.69603 -3.27172 -0.396825 0
M  V30 24 C -3.50692 -0.0226046 -0.787744 0
M  V30 25 O -4.69213 -0.268738 -1.46378 0
M  V30 26 C -5.89124 -0.664567 -0.864934 0
M  V30 27 H -2.8935 4.03093 -0.513836 0
M  V30 28 H -4.60552 4.25382 -0.0390351 0
M  V30 29 H -3.4825 3.41122 1.10031 0
M  V30 30 H -1.72825 2.40672 0.757402 0
M  V30 31 H -0.213772 0.619968 1.09489 0
M  V30 32 H -0.265501 -2.38819 -0.769043 0
M  V30 33 H -1.02809 -2.86453 0.771374 0
M  V30 34 H 0.904308 -2.09268 1.91335 0
M  V30 35 H 2.96401 -0.896355 2.07174 0
M  V30 36 H 5.6675 0.736977 3.25895 0
M  V30 37 H 4.75898 -0.782662 3.03585 0
M  V30 38 H 7.77129 1.80773 -1.7775 0
M  V30 39 H 7.01982 3.30344 -1.15267 0
M  V30 40 H 2.64458 0.406791 -2.6037 0
M  V30 41 H 0.816877 -0.870291 -1.58531 0
M  V30 42 H -4.12579 -2.87788 0.564169 0
M  V30 43 H -4.56974 -3.56624 -1.02043 0
M  V30 44 H -3.11718 -4.20207 -0.214879 0
M  V30 45 H -6.28127 -1.62565 -1.23321 0
M  V30 46 H -6.69018 0.08413 -0.953661 0
M  V30 47 H -5.69443 -0.790459 0.231768 0
M  V30 END ATOM
M  V30 BEGIN BOND
M  V30 1 1 1 2
M  V30 2 1 2 3
M  V30 3 2 3 4
M  V30 4 1 4 5
M  V30 5 2 5 6
M  V30 6 1 6 7
M  V30 7 1 7 8
M  V30 8 1 8 9
M  V30 9 2 9 10
M  V30 10 1 10 11
M  V30 11 2 11 12
M  V30 12 1 12 13
M  V30 13 1 12 14
M  V30 14 2 14 15
M  V30 15 1 15 16
M  V30 16 1 15 17
M  V30 17 2 17 18
M  V30 18 1 18 19
M  V30 19 2 19 20
M  V30 20 1 6 21
M  V30 21 1 21 22
M  V30 22 1 22 23
M  V30 23 2 21 24
M  V30 24 1 24 25
M  V30 25 1 25 26
M  V30 26 1 24 3
M  V30 27 1 20 9
M  V30 28 1 18 11
M  V30 29 1 1 27
M  V30 30 1 1 28
M  V30 31 1 1 29
M  V30 32 1 4 30
M  V30 33 1 5 31
M  V30 34 1 7 32
M  V30 35 1 7 33
M  V30 36 1 8 34
M  V30 37 1 10 35
M  V30 38 1 13 36
M  V30 39 1 13 37
M  V30 40 1 16 38
M  V30 41 1 16 39
M  V30 42 1 19 40
M  V30 43 1 20 41
M  V30 44 1 23 42
M  V30 45 1 23 43
M  V30 46 1 23 44
M  V30 47 1 26 45
M  V30 48 1 26 46
M  V30 49 1 26 47
M  V30 END BOND
M  V30 END CTAB
M  END
