
     RDKit          3D

  0  0  0  0  0  0  0  0  0  0999 V3000
M  V30 BEGIN CTAB
M  V30 COUNTS 31 32 0 0 0
M  V30 BEGIN ATOM
M  V30 1 C -4.42711 2.03211 1.03184 0
M  V30 2 C -3.5353 1.02577 0.369759 0
M  V30 3 C -4.03966 0.0375152 -0.437823 0
M  V30 4 C -3.18332 -0.861987 -1.02278 0
M  V30 5 C -1.79587 -0.785415 -0.806357 0
M  V30 6 C -1.27413 0.194289 -0.00330086 0
M  V30 7 C -2.15769 1.07354 0.563187 0
M  V30 8 C 0.190672 0.313577 0.254283 0
M  V30 9 C 0.674869 1.32023 1.07455 0
M  V30 10 S 2.35724 1.02312 1.04051 0
M  V30 11 C 2.34977 -0.331801 0.00988598 0
M  V30 12 N 1.07417 -0.485392 -0.252246 0
M  V30 13 N 3.45884 -1.12468 -0.466284 0
M  V30 14 C 4.62902 -0.805974 -0.0907232 0
M  V30 15 N 4.90219 0.281947 0.767199 0
M  V30 16 N 5.74564 -1.58792 -0.557742 0
M  V30 17 C -0.914221 -1.77937 -1.45995 0
M  V30 18 H -5.29341 2.2672 0.412352 0
M  V30 19 H -3.79963 2.94977 1.23144 0
M  V30 20 H -4.70168 1.63534 2.01091 0
M  V30 21 H -5.11454 -0.018222 -0.602772 0
M  V30 22 H -3.56079 -1.64019 -1.65648 0
M  V30 23 H -1.77947 1.85665 1.20067 0
M  V30 24 H 0.111817 2.10906 1.60993 0
M  V30 25 H 4.97694 0.108011 1.78361 0
M  V30 26 H 5.0284 1.24161 0.406105 0
M  V30 27 H 5.9334 -1.71564 -1.5726 0
M  V30 28 H 6.38957 -2.04266 0.125029 0
M  V30 29 H -0.223697 -1.36083 -2.20892 0
M  V30 30 H -0.441699 -2.43272 -0.702502 0
M  V30 31 H -1.58034 -2.49695 -2.05079 0
M  V30 END ATOM
M  V30 BEGIN BOND
M  V30 1 1 1 2
M  V30 2 2 2 3
M  V30 3 1 3 4
M  V30 4 2 4 5
M  V30 5 1 5 6
M  V30 6 2 6 7
M  V30 7 1 6 8
M  V30 8 2 8 9
M  V30 9 1 9 10
M  V30 10 1 10 11
M  V30 11 2 11 12
M  V30 12 1 11 13
M  V30 13 2 13 14 CFG=2
M  V30 14 1 14 15
M  V30 15 1 14 16
M  V30 16 1 5 17
M  V30 17 1 7 2
M  V30 18 1 12 8
M  V30 19 1 1 18
M  V30 20 1 1 19
M  V30 21 1 1 20
M  V30 22 1 3 21
M  V30 23 1 4 22
M  V30 24 1 7 23
M  V30 25 1 9 24
M  V30 26 1 15 25
M  V30 27 1 15 26
M  V30 28 1 16 27
M  V30 29 1 16 28
M  V30 30 1 17 29
M  V30 31 1 17 30
M  V30 32 1 17 31
M  V30 END BOND
M  V30 END CTAB
M  END
