
     RDKit          3D

  0  0  0  0  0  0  0  0  0  0999 V3000
M  V30 BEGIN CTAB
M  V30 COUNTS 26 26 0 0 0
M  V30 BEGIN ATOM
M  V30 1 N -4.95043 0.363399 -0.21141 0
M  V30 2 C -3.49292 0.441906 -0.419829 0
M  V30 3 C -2.82219 0.254404 0.905331 0
M  V30 4 N -1.39984 0.334961 0.748202 0
M  V30 5 C -0.600148 -0.519032 -0.038954 0
M  V30 6 O -1.15609 -1.44888 -0.669479 0
M  V30 7 C 0.84246 -0.363134 -0.147192 0
M  V30 8 C 1.53322 0.674042 0.435748 0
M  V30 9 C 2.92307 0.813828 0.327215 0
M  V30 10 C 3.58714 -0.148669 -0.402126 0
M  V30 11 C 2.93582 -1.20436 -1.00302 0
M  V30 12 C 1.57617 -1.30795 -0.874985 0
M  V30 13 Br 3.94845 -2.50101 -2.00258 0
M  V30 14 N 5.0199 -0.0874897 -0.56858 0
M  V30 15 H -5.2901 1.17891 0.34413 0
M  V30 16 H -5.44094 0.25868 -1.1154 0
M  V30 17 H -3.26877 -0.398351 -1.10039 0
M  V30 18 H -3.29218 1.4269 -0.862288 0
M  V30 19 H -3.08158 -0.766768 1.31638 0
M  V30 20 H -3.20198 0.989542 1.63031 0
M  V30 21 H -0.900762 1.11411 1.27816 0
M  V30 22 H 1.02236 1.43815 1.01082 0
M  V30 23 H 3.43317 1.64098 0.798048 0
M  V30 24 H 1.05316 -2.12401 -1.33666 0
M  V30 25 H 5.39079 0.843161 -0.861252 0
M  V30 26 H 5.63223 -0.903328 -0.410003 0
M  V30 END ATOM
M  V30 BEGIN BOND
M  V30 1 1 1 2
M  V30 2 1 2 3
M  V30 3 1 3 4
M  V30 4 1 4 5
M  V30 5 2 5 6
M  V30 6 1 5 7
M  V30 7 2 7 8
M  V30 8 1 8 9
M  V30 9 2 9 10
M  V30 10 1 10 11
M  V30 11 2 11 12
M  V30 12 1 11 13
M  V30 13 1 10 14
M  V30 14 1 12 7
M  V30 15 1 1 15
M  V30 16 1 1 16
M  V30 17 1 2 17
M  V30 18 1 2 18
M  V30 19 1 3 19
M  V30 20 1 3 20
M  V30 21 1 4 21
M  V30 22 1 8 22
M  V30 23 1 9 23
M  V30 24 1 12 24
M  V30 25 1 14 25
M  V30 26 1 14 26
M  V30 END BOND
M  V30 END CTAB
M  END
