
     RDKit          3D

  0  0  0  0  0  0  0  0  0  0999 V3000
M  V30 BEGIN CTAB
M  V30 COUNTS 42 43 0 0 0
M  V30 BEGIN ATOM
M  V30 1 N 0.343984 -3.3698 -2.87145 0
M  V30 2 C 0.0734293 -2.63268 -2.02393 0
M  V30 3 C -0.277405 -1.66922 -0.940832 0
M  V30 4 C -1.49399 -1.32193 -0.753136 0
M  V30 5 N -2.04483 -0.492474 0.188844 0
M  V30 6 C -3.14043 0.388511 -0.312074 0
M  V30 7 C -3.13273 0.835593 -1.60455 0
M  V30 8 C -4.17189 1.67047 -2.03469 0
M  V30 9 C -5.18073 2.02428 -1.14708 0
M  V30 10 C -5.18638 1.57209 0.155428 0
M  V30 11 C -4.12692 0.738655 0.542509 0
M  V30 12 N -6.19896 1.91323 1.09238 0
M  V30 13 C -1.6241 -0.234163 1.49697 0
M  V30 14 O -1.80421 0.877689 2.07664 0
M  V30 15 C -0.937032 -1.29031 2.31916 0
M  V30 16 C 0.879351 -0.918945 -0.454745 0
M  V30 17 O 0.769395 0.203147 0.0765081 0
M  V30 18 N 2.18066 -1.47756 -0.583282 0
M  V30 19 C 3.31806 -0.818115 -0.12454 0
M  V30 20 C 3.38262 0.0215043 0.950608 0
M  V30 21 C 4.55958 0.682143 1.32711 0
M  V30 22 C 5.70361 0.475818 0.58106 0
M  V30 23 C 5.68315 -0.363719 -0.510354 0
M  V30 24 C 4.51866 -0.989279 -0.846688 0
M  V30 25 Cl 7.13633 -0.602007 -1.42743 0
M  V30 26 N 6.8876 1.15265 0.974808 0
M  V30 27 H -2.24561 -1.78872 -1.49886 0
M  V30 28 H -2.36778 0.575978 -2.30125 0
M  V30 29 H -4.2341 2.05882 -3.02651 0
M  V30 30 H -6.0033 2.67726 -1.46371 0
M  V30 31 H -4.13089 0.383976 1.54991 0
M  V30 32 H -7.11253 2.22921 0.749028 0
M  V30 33 H -6.03424 1.84973 2.11742 0
M  V30 34 H 0.0791981 -0.993015 2.58858 0
M  V30 35 H -1.54495 -1.4102 3.26832 0
M  V30 36 H -0.945902 -2.21688 1.72948 0
M  V30 37 H 2.26737 -2.40708 -1.0364 0
M  V30 38 H 2.49148 0.182156 1.57176 0
M  V30 39 H 4.54334 1.3277 2.17954 0
M  V30 40 H 4.49368 -1.64176 -1.69094 0
M  V30 41 H 7.26589 1.02125 1.92212 0
M  V30 42 H 7.36151 1.77599 0.299093 0
M  V30 END ATOM
M  V30 BEGIN BOND
M  V30 1 3 1 2
M  V30 2 1 2 3
M  V30 3 2 3 4
M  V30 4 1 4 5
M  V30 5 1 5 6
M  V30 6 2 6 7
M  V30 7 1 7 8
M  V30 8 2 8 9
M  V30 9 1 9 10
M  V30 10 2 10 11
M  V30 11 1 10 12
M  V30 12 1 5 13
M  V30 13 2 13 14
M  V30 14 1 13 15
M  V30 15 1 3 16
M  V30 16 2 16 17
M  V30 17 1 16 18
M  V30 18 1 18 19
M  V30 19 2 19 20
M  V30 20 1 20 21
M  V30 21 2 21 22
M  V30 22 1 22 23
M  V30 23 2 23 24
M  V30 24 1 23 25
M  V30 25 1 22 26
M  V30 26 1 11 6
M  V30 27 1 24 19
M  V30 28 1 4 27
M  V30 29 1 7 28
M  V30 30 1 8 29
M  V30 31 1 9 30
M  V30 32 1 11 31
M  V30 33 1 12 32
M  V30 34 1 12 33
M  V30 35 1 15 34
M  V30 36 1 15 35
M  V30 37 1 15 36
M  V30 38 1 18 37
M  V30 39 1 20 38
M  V30 40 1 21 39
M  V30 41 1 24 40
M  V30 42 1 26 41
M  V30 43 1 26 42
M  V30 END BOND
M  V30 END CTAB
M  END
