
     RDKit          3D

  0  0  0  0  0  0  0  0  0  0999 V3000
M  V30 BEGIN CTAB
M  V30 COUNTS 74 73 0 0 0
M  V30 BEGIN ATOM
M  V30 1 N -11.0196 -0.856781 1.62687 0
M  V30 2 C -9.68424 -1.30105 1.91532 0
M  V30 3 C -8.71815 -0.204425 1.44084 0
M  V30 4 C -8.95852 -0.0575575 -0.0353676 0
M  V30 5 C -8.0776 0.993035 -0.614353 0
M  V30 6 C -6.60398 0.679107 -0.436261 0
M  V30 7 C -6.21944 -0.604649 -1.08075 0
M  V30 8 C -4.76686 -0.921085 -0.889482 0
M  V30 9 C -3.92444 0.164341 -1.5009 0
M  V30 10 C -2.45352 -0.250344 -1.28344 0
M  V30 11 C -1.60477 0.828701 -1.89092 0
M  V30 12 C -0.149651 0.490167 -1.72334 0
M  V30 13 S 0.215786 0.352154 0.0405954 0
M  V30 14 S 0.00396576 2.23498 0.954223 0
M  V30 15 C 1.55636 3.14064 0.920272 0
M  V30 16 C 2.63755 2.57466 1.74236 0
M  V30 17 C 3.17038 1.24098 1.42366 0
M  V30 18 C 3.80966 1.13245 0.0618141 0
M  V30 19 C 4.30764 -0.241029 -0.201901 0
M  V30 20 C 5.33921 -0.745757 0.747198 0
M  V30 21 C 6.59221 0.0890953 0.781424 0
M  V30 22 C 7.28822 0.179325 -0.528353 0
M  V30 23 C 7.73813 -1.11403 -1.10745 0
M  V30 24 C 8.71404 -1.87977 -0.246275 0
M  V30 25 C 9.97281 -1.11252 0.0187172 0
M  V30 26 N 10.8312 -1.94285 0.8511 0
M  V30 27 H -11.4479 -1.34386 0.80637 0
M  V30 28 H -11.6454 -0.794827 2.43594 0
M  V30 29 H -9.48254 -1.43229 2.98792 0
M  V30 30 H -9.45929 -2.20141 1.30828 0
M  V30 31 H -8.96346 0.755397 1.91967 0
M  V30 32 H -7.6837 -0.475522 1.66343 0
M  V30 33 H -8.82302 -1.0316 -0.571817 0
M  V30 34 H -10.0127 0.235359 -0.252899 0
M  V30 35 H -8.31977 1.16941 -1.68236 0
M  V30 36 H -8.25917 1.956 -0.096265 0
M  V30 37 H -6.03286 1.54088 -0.84629 0
M  V30 38 H -6.37689 0.64561 0.634843 0
M  V30 39 H -6.37073 -0.516616 -2.19438 0
M  V30 40 H -6.79544 -1.47013 -0.678933 0
M  V30 41 H -4.50157 -1.08396 0.179118 0
M  V30 42 H -4.56573 -1.84532 -1.49093 0
M  V30 43 H -4.14115 0.295871 -2.57913 0
M  V30 44 H -4.1053 1.1405 -1.0046 0
M  V30 45 H -2.32126 -0.383761 -0.206013 0
M  V30 46 H -2.25571 -1.21686 -1.77612 0
M  V30 47 H -1.79918 1.81569 -1.45499 0
M  V30 48 H -1.81735 0.839564 -2.98321 0
M  V30 49 H 0.0163124 -0.480627 -2.24255 0
M  V30 50 H 0.514553 1.21748 -2.23079 0
M  V30 51 H 1.81494 3.28166 -0.152907 0
M  V30 52 H 1.30098 4.19346 1.2576 0
M  V30 53 H 3.46098 3.35078 1.80231 0
M  V30 54 H 2.26599 2.54904 2.81347 0
M  V30 55 H 2.44087 0.419551 1.52283 0
M  V30 56 H 3.94745 1.00649 2.22009 0
M  V30 57 H 3.05727 1.39251 -0.697563 0
M  V30 58 H 4.69044 1.8165 -0.0289901 0
M  V30 59 H 4.64748 -0.287978 -1.25955 0
M  V30 60 H 3.43448 -0.93576 -0.143416 0
M  V30 61 H 5.54426 -1.80634 0.494022 0
M  V30 62 H 4.88684 -0.760325 1.76212 0
M  V30 63 H 6.34244 1.11843 1.11046 0
M  V30 64 H 7.25188 -0.333068 1.57454 0
M  V30 65 H 8.20194 0.812462 -0.372113 0
M  V30 66 H 6.66883 0.701102 -1.26469 0
M  V30 67 H 8.30711 -0.862321 -2.05089 0
M  V30 68 H 6.89083 -1.72618 -1.43874 0
M  V30 69 H 8.2977 -2.23162 0.697537 0
M  V30 70 H 8.98702 -2.79615 -0.843463 0
M  V30 71 H 9.80023 -0.132413 0.466936 0
M  V30 72 H 10.4789 -0.923626 -0.965903 0
M  V30 73 H 10.3117 -2.41685 1.59999 0
M  V30 74 H 11.6223 -1.42701 1.26643 0
M  V30 END ATOM
M  V30 BEGIN BOND
M  V30 1 1 1 2
M  V30 2 1 2 3
M  V30 3 1 3 4
M  V30 4 1 4 5
M  V30 5 1 5 6
M  V30 6 1 6 7
M  V30 7 1 7 8
M  V30 8 1 8 9
M  V30 9 1 9 10
M  V30 10 1 10 11
M  V30 11 1 11 12
M  V30 12 1 12 13
M  V30 13 1 13 14
M  V30 14 1 14 15
M  V30 15 1 15 16
M  V30 16 1 16 17
M  V30 17 1 17 18
M  V30 18 1 18 19
M  V30 19 1 19 20
M  V30 20 1 20 21
M  V30 21 1 21 22
M  V30 22 1 22 23
M  V30 23 1 23 24
M  V30 24 1 24 25
M  V30 25 1 25 26
M  V30 26 1 1 27
M  V30 27 1 1 28
M  V30 28 1 2 29
M  V30 29 1 2 30
M  V30 30 1 3 31
M  V30 31 1 3 32
M  V30 32 1 4 33
M  V30 33 1 4 34
M  V30 34 1 5 35
M  V30 35 1 5 36
M  V30 36 1 6 37
M  V30 37 1 6 38
M  V30 38 1 7 39
M  V30 39 1 7 40
M  V30 40 1 8 41
M  V30 41 1 8 42
M  V30 42 1 9 43
M  V30 43 1 9 44
M  V30 44 1 10 45
M  V30 45 1 10 46
M  V30 46 1 11 47
M  V30 47 1 11 48
M  V30 48 1 12 49
M  V30 49 1 12 50
M  V30 50 1 15 51
M  V30 51 1 15 52
M  V30 52 1 16 53
M  V30 53 1 16 54
M  V30 54 1 17 55
M  V30 55 1 17 56
M  V30 56 1 18 57
M  V30 57 1 18 58
M  V30 58 1 19 59
M  V30 59 1 19 60
M  V30 60 1 20 61
M  V30 61 1 20 62
M  V30 62 1 21 63
M  V30 63 1 21 64
M  V30 64 1 22 65
M  V30 65 1 22 66
M  V30 66 1 23 67
M  V30 67 1 23 68
M  V30 68 1 24 69
M  V30 69 1 24 70
M  V30 70 1 25 71
M  V30 71 1 25 72
M  V30 72 1 26 73
M  V30 73 1 26 74
M  V30 END BOND
M  V30 END CTAB
M  END
