
     RDKit          3D

  0  0  0  0  0  0  0  0  0  0999 V3000
M  V30 BEGIN CTAB
M  V30 COUNTS 19 20 0 0 0
M  V30 BEGIN ATOM
M  V30 1 N -3.05203 0.369411 -0.262838 0
M  V30 2 C -1.64393 0.237211 -0.141287 0
M  V30 3 C -1.02472 -1.00134 -0.0815322 0
M  V30 4 C 0.321929 -1.17844 0.0349817 0
M  V30 5 N 0.903051 -2.48661 0.0918367 0
M  V30 6 C 1.11397 -0.045693 0.0969046 0
M  V30 7 C 0.558733 1.22951 0.0424452 0
M  V30 8 C -0.812138 1.34489 -0.0758183 0
M  V30 9 C 1.6192 2.10667 0.128772 0
M  V30 10 N 2.76249 1.3937 0.2307 0
M  V30 11 N 2.42696 0.0963369 0.20883 0
M  V30 12 H -3.55294 -0.259332 -0.923178 0
M  V30 13 H -3.59986 1.06737 0.280259 0
M  V30 14 H -1.67002 -1.86565 -0.132286 0
M  V30 15 H 0.362096 -3.30821 -0.20811 0
M  V30 16 H 1.87566 -2.58369 0.440436 0
M  V30 17 H -1.26458 2.34416 -0.11998 0
M  V30 18 H 1.5333 3.18484 0.115639 0
M  V30 19 H 3.14285 -0.645143 0.274224 0
M  V30 END ATOM
M  V30 BEGIN BOND
M  V30 1 1 1 2
M  V30 2 2 2 3
M  V30 3 1 3 4
M  V30 4 1 4 5
M  V30 5 2 4 6
M  V30 6 1 6 7
M  V30 7 2 7 8
M  V30 8 1 7 9
M  V30 9 2 9 10
M  V30 10 1 10 11
M  V30 11 1 8 2
M  V30 12 1 11 6
M  V30 13 1 1 12
M  V30 14 1 1 13
M  V30 15 1 3 14
M  V30 16 1 5 15
M  V30 17 1 5 16
M  V30 18 1 8 17
M  V30 19 1 9 18
M  V30 20 1 11 19
M  V30 END BOND
M  V30 END CTAB
M  END
