
     RDKit          3D

  0  0  0  0  0  0  0  0  0  0999 V3000
M  V30 BEGIN CTAB
M  V30 COUNTS 45 47 0 0 0
M  V30 BEGIN ATOM
M  V30 1 C 7.32753 -0.3075 -0.567588 0
M  V30 2 N 5.96237 -0.287855 -0.050876 0
M  V30 3 N 5.56662 -0.348145 1.19264 0
M  V30 4 C 4.21002 -0.302934 1.28029 0
M  V30 5 C 3.73263 -0.207979 0.00098987 0
M  V30 6 C 4.83964 -0.19947 -0.823139 0
M  V30 7 C 2.3498 -0.127098 -0.486763 0 CFG=2
M  V30 8 C 1.56612 1.0049 0.163359 0
M  V30 9 N 0.190275 0.559926 0.0683768 0
M  V30 10 C 0.134148 -0.798322 -0.433004 0
M  V30 11 C 1.50494 -1.31552 -0.0408057 0 CFG=1
M  V30 12 N 1.86173 -2.52158 -0.737624 0
M  V30 13 C -0.926312 1.35259 0.419613 0
M  V30 14 O -0.767241 2.53418 0.850015 0
M  V30 15 N -2.23058 0.825367 0.290591 0
M  V30 16 C -3.36969 1.62315 0.644886 0
M  V30 17 C -4.643 0.845284 0.42078 0
M  V30 18 N -5.84146 1.61123 0.767132 0
M  V30 19 C -4.71469 0.290304 -0.999317 0
M  V30 20 C -5.10637 -1.042 -0.398808 0
M  V30 21 C -4.64234 -0.564738 0.960658 0
M  V30 22 H 7.99132 0.00704507 0.258303 0
M  V30 23 H 7.56987 -1.34214 -0.927669 0
M  V30 24 H 7.42806 0.410821 -1.39616 0
M  V30 25 H 3.58599 -0.332627 2.15754 0
M  V30 26 H 4.87884 -0.135816 -1.90257 0
M  V30 27 H 2.2702 -0.0585575 -1.57151 0
M  V30 28 H 1.84615 0.987332 1.2455 0
M  V30 29 H 1.74348 1.97517 -0.317277 0
M  V30 30 H 0.026347 -0.783221 -1.55272 0
M  V30 31 H -0.67087 -1.39046 0.0403671 0
M  V30 32 H 1.50662 -1.42673 1.05889 0
M  V30 33 H 2.40064 -2.34341 -1.61268 0
M  V30 34 H 2.30624 -3.24095 -0.12316 0
M  V30 35 H -2.36029 -0.135058 -0.0588926 0
M  V30 36 H -3.34061 1.99028 1.6881 0
M  V30 37 H -3.42235 2.52325 -0.0292137 0
M  V30 38 H -6.08485 2.2296 -0.0463735 0
M  V30 39 H -5.61752 2.18198 1.59606 0
M  V30 40 H -3.72867 0.283992 -1.5091 0
M  V30 41 H -5.51733 0.783257 -1.58783 0
M  V30 42 H -4.54471 -1.92092 -0.800632 0
M  V30 43 H -6.22017 -1.18775 -0.387108 0
M  V30 44 H -3.66596 -0.96692 1.2691 0
M  V30 45 H -5.38456 -0.731974 1.78046 0
M  V30 END ATOM
M  V30 BEGIN BOND
M  V30 1 1 1 2
M  V30 2 1 2 3
M  V30 3 2 3 4
M  V30 4 1 4 5
M  V30 5 2 5 6
M  V30 6 1 5 7
M  V30 7 1 7 8
M  V30 8 1 8 9
M  V30 9 1 9 10
M  V30 10 1 10 11
M  V30 11 1 11 12
M  V30 12 1 9 13
M  V30 13 2 13 14
M  V30 14 1 13 15
M  V30 15 1 15 16
M  V30 16 1 16 17
M  V30 17 1 17 18
M  V30 18 1 17 19
M  V30 19 1 19 20
M  V30 20 1 20 21
M  V30 21 1 6 2
M  V30 22 1 11 7
M  V30 23 1 21 17
M  V30 24 1 1 22
M  V30 25 1 1 23
M  V30 26 1 1 24
M  V30 27 1 4 25
M  V30 28 1 6 26
M  V30 29 1 7 27 CFG=3
M  V30 30 1 8 28
M  V30 31 1 8 29
M  V30 32 1 10 30
M  V30 33 1 10 31
M  V30 34 1 11 32 CFG=1
M  V30 35 1 12 33
M  V30 36 1 12 34
M  V30 37 1 15 35
M  V30 38 1 16 36
M  V30 39 1 16 37
M  V30 40 1 18 38
M  V30 41 1 18 39
M  V30 42 1 19 40
M  V30 43 1 19 41
M  V30 44 1 20 42
M  V30 45 1 20 43
M  V30 46 1 21 44
M  V30 47 1 21 45
M  V30 END BOND
M  V30 END CTAB
M  END
