
     RDKit          3D

  0  0  0  0  0  0  0  0  0  0999 V3000
M  V30 BEGIN CTAB
M  V30 COUNTS 39 41 0 0 0
M  V30 BEGIN ATOM
M  V30 1 N -1.8596 3.21665 0.912026 0
M  V30 2 C -1.90211 1.98504 0.177291 0
M  V30 3 C -0.754827 1.13775 0.624061 0
M  V30 4 N -0.55317 -0.131709 0.0457535 0
M  V30 5 C 0.736523 -0.805956 -0.101549 0 CFG=1
M  V30 6 C 0.933147 -0.896217 -1.59185 0
M  V30 7 N -0.224423 -1.52541 -2.17826 0
M  V30 8 C -1.51233 -1.62566 -1.59247 0
M  V30 9 C -1.66714 -0.88086 -0.414209 0
M  V30 10 C -2.88667 -0.905217 0.259894 0
M  V30 11 C -3.93044 -1.6529 -0.230554 0
M  V30 12 C -3.78342 -2.38534 -1.38934 0
M  V30 13 C -2.56299 -2.35826 -2.05678 0
M  V30 14 C 1.83091 -0.234712 0.639107 0
M  V30 15 C 1.72327 -0.0360289 1.98712 0
M  V30 16 C 2.74263 0.521952 2.73894 0
M  V30 17 N 3.86711 0.871168 2.0974 0
M  V30 18 C 4.05199 0.707694 0.77019 0
M  V30 19 C 3.00168 0.14035 0.0353358 0
M  V30 20 N 5.27125 1.10765 0.191158 0
M  V30 21 H -2.25567 3.1843 1.76642 0
M  V30 22 H -1.47601 3.94623 0.447973 0
M  V30 23 H -2.90743 1.65018 0.261533 0
M  V30 24 H -1.75945 2.30907 -0.910458 0
M  V30 25 H 0.143814 1.81163 0.530855 0
M  V30 26 H -0.881547 1.04459 1.74811 0
M  V30 27 H 0.626668 -1.85514 0.239647 0
M  V30 28 H 1.01479 0.140485 -1.97741 0
M  V30 29 H 1.81307 -1.5002 -1.878 0
M  V30 30 H -0.171959 -1.97973 -3.14795 0
M  V30 31 H -2.9103 -0.318749 1.17891 0
M  V30 32 H -4.87023 -1.67555 0.281952 0
M  V30 33 H -4.59124 -2.98564 -1.80219 0
M  V30 34 H -2.407 -2.92275 -2.97293 0
M  V30 35 H 0.836447 -0.30997 2.57171 0
M  V30 36 H 2.63842 0.670602 3.80079 0
M  V30 37 H 3.20099 0.0317317 -1.01977 0
M  V30 38 H 5.27273 1.75721 -0.608636 0
M  V30 39 H 6.1625 0.751747 0.566177 0
M  V30 END ATOM
M  V30 BEGIN BOND
M  V30 1 1 1 2
M  V30 2 1 2 3
M  V30 3 1 3 4
M  V30 4 1 4 5
M  V30 5 1 5 6
M  V30 6 1 6 7
M  V30 7 1 7 8
M  V30 8 2 8 9
M  V30 9 1 9 10
M  V30 10 2 10 11
M  V30 11 1 11 12
M  V30 12 2 12 13
M  V30 13 1 5 14
M  V30 14 2 14 15
M  V30 15 1 15 16
M  V30 16 2 16 17
M  V30 17 1 17 18
M  V30 18 2 18 19
M  V30 19 1 18 20
M  V30 20 1 9 4
M  V30 21 1 19 14
M  V30 22 1 13 8
M  V30 23 1 1 21
M  V30 24 1 1 22
M  V30 25 1 2 23
M  V30 26 1 2 24
M  V30 27 1 3 25
M  V30 28 1 3 26
M  V30 29 1 5 27 CFG=1
M  V30 30 1 6 28
M  V30 31 1 6 29
M  V30 32 1 7 30
M  V30 33 1 10 31
M  V30 34 1 11 32
M  V30 35 1 12 33
M  V30 36 1 13 34
M  V30 37 1 15 35
M  V30 38 1 16 36
M  V30 39 1 19 37
M  V30 40 1 20 38
M  V30 41 1 20 39
M  V30 END BOND
M  V30 END CTAB
M  END
