
     RDKit          3D

  0  0  0  0  0  0  0  0  0  0999 V3000
M  V30 BEGIN CTAB
M  V30 COUNTS 53 54 0 0 0
M  V30 BEGIN ATOM
M  V30 1 N -5.17608 0.237823 -2.27357 0
M  V30 2 C -6.02889 -0.382626 -1.30374 0 CFG=1
M  V30 3 C -5.31163 -0.471946 0.0506583 0
M  V30 4 C -4.0844 -1.29109 -0.16574 0
M  V30 5 C -3.21923 -1.51311 1.01352 0
M  V30 6 C -2.61056 -0.329115 1.66232 0
M  V30 7 N -1.72745 0.460303 0.875635 0
M  V30 8 C -2.16895 1.5106 0.17692 0
M  V30 9 C -1.31947 2.3028 -0.592837 0
M  V30 10 C 0.0342804 2.0736 -0.698181 0
M  V30 11 C 0.521636 0.995304 0.0125007 0
M  V30 12 N 1.71972 0.455729 0.172551 0
M  V30 13 C 1.67169 -0.616026 0.988048 0
M  V30 14 N 2.7341 -1.45929 1.4042 0
M  V30 15 C 4.10009 -1.25441 0.974656 0
M  V30 16 C 4.66717 0.0421381 1.42188 0
M  V30 17 C 6.06593 0.3445 1.0588 0
M  V30 18 C 6.42698 0.412953 -0.375423 0 CFG=2
M  V30 19 N 5.67712 1.42247 -1.10795 0
M  V30 20 C 6.43726 -0.831883 -1.13056 0
M  V30 21 O 7.01191 -1.98981 -0.626905 0
M  V30 22 O 5.91904 -0.89162 -2.27388 0
M  V30 23 N 0.376041 -0.768207 1.368 0
M  V30 24 C -0.389863 0.184902 0.80851 0
M  V30 25 C -7.24371 0.457526 -1.17274 0
M  V30 26 O -7.43504 1.62074 -1.89971 0
M  V30 27 O -8.13098 0.0786296 -0.357304 0
M  V30 28 H -4.54745 0.90635 -1.84327 0
M  V30 29 H -4.69513 -0.375758 -2.90283 0
M  V30 30 H -6.26736 -1.39723 -1.68807 0
M  V30 31 H -5.17493 0.543045 0.404025 0
M  V30 32 H -6.03404 -1.03199 0.702689 0
M  V30 33 H -3.49996 -0.940442 -1.06374 0
M  V30 34 H -4.44651 -2.31364 -0.486582 0
M  V30 35 H -3.86479 -2.01077 1.79816 0
M  V30 36 H -2.47993 -2.30042 0.746288 0
M  V30 37 H -3.41739 0.254373 2.15431 0
M  V30 38 H -1.99817 -0.723092 2.52821 0
M  V30 39 H -3.20148 1.82651 0.158785 0
M  V30 40 H -1.71315 3.15102 -1.14977 0
M  V30 41 H 0.669287 2.70639 -1.30415 0
M  V30 42 H 2.5374 -2.25753 2.04154 0
M  V30 43 H 4.04811 -1.32667 -0.154449 0
M  V30 44 H 4.7358 -2.06702 1.36213 0
M  V30 45 H 4.03783 0.922187 1.16301 0
M  V30 46 H 4.63053 0.0238147 2.55607 0
M  V30 47 H 6.28684 1.37416 1.48594 0
M  V30 48 H 6.7915 -0.304053 1.63886 0
M  V30 49 H 7.49684 0.846728 -0.385169 0
M  V30 50 H 5.45588 1.10802 -2.08296 0
M  V30 51 H 6.09711 2.35912 -1.06731 0
M  V30 52 H 8.02185 -2.14707 -0.64156 0
M  V30 53 H -7.98537 2.37308 -1.47926 0
M  V30 END ATOM
M  V30 BEGIN BOND
M  V30 1 1 1 2
M  V30 2 1 2 3
M  V30 3 1 3 4
M  V30 4 1 4 5
M  V30 5 1 5 6
M  V30 6 1 6 7
M  V30 7 1 7 8
M  V30 8 2 8 9
M  V30 9 1 9 10
M  V30 10 2 10 11
M  V30 11 1 11 12
M  V30 12 2 12 13
M  V30 13 1 13 14
M  V30 14 1 14 15
M  V30 15 1 15 16
M  V30 16 1 16 17
M  V30 17 1 17 18
M  V30 18 1 18 19
M  V30 19 1 18 20
M  V30 20 1 20 21
M  V30 21 2 20 22
M  V30 22 1 13 23
M  V30 23 2 23 24
M  V30 24 1 2 25
M  V30 25 1 25 26
M  V30 26 2 25 27
M  V30 27 1 24 7
M  V30 28 1 24 11
M  V30 29 1 1 28
M  V30 30 1 1 29
M  V30 31 1 2 30 CFG=3
M  V30 32 1 3 31
M  V30 33 1 3 32
M  V30 34 1 4 33
M  V30 35 1 4 34
M  V30 36 1 5 35
M  V30 37 1 5 36
M  V30 38 1 6 37
M  V30 39 1 6 38
M  V30 40 1 8 39
M  V30 41 1 9 40
M  V30 42 1 10 41
M  V30 43 1 14 42
M  V30 44 1 15 43
M  V30 45 1 15 44
M  V30 46 1 16 45
M  V30 47 1 16 46
M  V30 48 1 17 47
M  V30 49 1 17 48
M  V30 50 1 18 49 CFG=1
M  V30 51 1 19 50
M  V30 52 1 19 51
M  V30 53 1 21 52
M  V30 54 1 26 53
M  V30 END BOND
M  V30 END CTAB
M  END
