
     RDKit          3D

  0  0  0  0  0  0  0  0  0  0999 V3000
M  V30 BEGIN CTAB
M  V30 COUNTS 26 27 0 0 0
M  V30 BEGIN ATOM
M  V30 1 N -3.67688 1.94666 -2.13404 0
M  V30 2 C -3.19843 1.08402 -1.12463 0
M  V30 3 N -2.09456 1.37176 -0.391923 0
M  V30 4 C -1.63221 0.55406 0.572352 0
M  V30 5 C -0.417845 0.886025 1.36759 0
M  V30 6 O 0.695738 0.335264 0.670845 0
M  V30 7 C 1.98717 0.451767 1.12215 0
M  V30 8 O 2.25836 1.04402 2.16371 0
M  V30 9 C 3.09547 -0.146022 0.345933 0
M  V30 10 C 4.43117 -0.133232 0.633095 0
M  V30 11 C 5.25657 -0.746459 -0.225143 0
M  V30 12 C 4.69518 -1.338 -1.32323 0
M  V30 13 S 3.03307 -1.01967 -1.12323 0
M  V30 14 N -2.30734 -0.591364 0.803479 0
M  V30 15 C -3.41164 -0.9223 0.100673 0
M  V30 16 N -3.83404 -0.0900632 -0.839976 0
M  V30 17 N -4.09144 -2.14707 0.383421 0
M  V30 18 H -4.66957 1.91527 -2.41678 0
M  V30 19 H -3.0458 2.61699 -2.60123 0
M  V30 20 H -0.283001 1.9831 1.49113 0
M  V30 21 H -0.498152 0.468166 2.40133 0
M  V30 22 H 4.78235 0.378081 1.55557 0
M  V30 23 H 6.36025 -0.798018 -0.0914555 0
M  V30 24 H 5.2177 -1.88376 -2.12924 0
M  V30 25 H -3.52292 -2.99926 0.602075 0
M  V30 26 H -5.1292 -2.21998 0.37926 0
M  V30 END ATOM
M  V30 BEGIN BOND
M  V30 1 1 1 2
M  V30 2 2 2 3
M  V30 3 1 3 4
M  V30 4 1 4 5
M  V30 5 1 5 6
M  V30 6 1 6 7
M  V30 7 2 7 8
M  V30 8 1 7 9
M  V30 9 2 9 10
M  V30 10 1 10 11
M  V30 11 2 11 12
M  V30 12 1 12 13
M  V30 13 2 4 14
M  V30 14 1 14 15
M  V30 15 2 15 16
M  V30 16 1 15 17
M  V30 17 1 16 2
M  V30 18 1 13 9
M  V30 19 1 1 18
M  V30 20 1 1 19
M  V30 21 1 5 20
M  V30 22 1 5 21
M  V30 23 1 10 22
M  V30 24 1 11 23
M  V30 25 1 12 24
M  V30 26 1 17 25
M  V30 27 1 17 26
M  V30 END BOND
M  V30 END CTAB
M  END
