
     RDKit          3D

  0  0  0  0  0  0  0  0  0  0999 V3000
M  V30 BEGIN CTAB
M  V30 COUNTS 33 33 0 0 0
M  V30 BEGIN ATOM
M  V30 1 C -3.69623 -1.50174 -0.166529 0
M  V30 2 C -3.34031 -0.511524 -1.23788 0
M  V30 3 C -4.38424 0.568092 -1.28281 0
M  V30 4 N -2.00129 -0.00678717 -1.13667 0
M  V30 5 C -1.59969 0.868391 -0.301238 0
M  V30 6 N -2.57825 1.38767 0.612669 0
M  V30 7 N -0.264693 1.35381 -0.220117 0
M  V30 8 C 0.598173 0.902196 0.637047 0
M  V30 9 N 0.0982554 -0.135093 1.50621 0
M  V30 10 N 1.91742 1.36984 0.729834 0
M  V30 11 C 3.04347 0.544924 0.423341 0
M  V30 12 C 2.87988 -0.758174 0.0195673 0
M  V30 13 C 3.95233 -1.58817 -0.286329 0
M  V30 14 C 5.24444 -1.09219 -0.183562 0
M  V30 15 Cl 6.6421 -2.10747 -0.561291 0
M  V30 16 C 5.40798 0.217247 0.222208 0
M  V30 17 C 4.31776 1.02918 0.523148 0
M  V30 18 H -4.27018 -0.992196 0.651555 0
M  V30 19 H -2.83917 -2.04165 0.243545 0
M  V30 20 H -4.40136 -2.28861 -0.560485 0
M  V30 21 H -3.39964 -1.06866 -2.21739 0
M  V30 22 H -3.95731 1.54019 -1.63445 0
M  V30 23 H -4.90862 0.692693 -0.301659 0
M  V30 24 H -5.18201 0.296357 -2.00755 0
M  V30 25 H -2.98992 2.33395 0.452005 0
M  V30 26 H -2.84235 0.779515 1.41977 0
M  V30 27 H 0.173253 -0.0555565 2.54151 0
M  V30 28 H -0.337678 -0.958898 1.02766 0
M  V30 29 H 2.08124 2.35398 1.03316 0
M  V30 30 H 1.88581 -1.16683 -0.0680437 0
M  V30 31 H 3.82468 -2.61131 -0.603383 0
M  V30 32 H 6.43588 0.599586 0.300064 0
M  V30 33 H 4.49025 2.04724 0.836751 0
M  V30 END ATOM
M  V30 BEGIN BOND
M  V30 1 1 1 2
M  V30 2 1 2 3
M  V30 3 1 2 4
M  V30 4 2 4 5
M  V30 5 1 5 6
M  V30 6 1 5 7
M  V30 7 2 7 8
M  V30 8 1 8 9
M  V30 9 1 8 10
M  V30 10 1 10 11
M  V30 11 2 11 12
M  V30 12 1 12 13
M  V30 13 2 13 14
M  V30 14 1 14 15
M  V30 15 1 14 16
M  V30 16 2 16 17
M  V30 17 1 17 11
M  V30 18 1 1 18
M  V30 19 1 1 19
M  V30 20 1 1 20
M  V30 21 1 2 21
M  V30 22 1 3 22
M  V30 23 1 3 23
M  V30 24 1 3 24
M  V30 25 1 6 25
M  V30 26 1 6 26
M  V30 27 1 9 27
M  V30 28 1 9 28
M  V30 29 1 10 29
M  V30 30 1 12 30
M  V30 31 1 13 31
M  V30 32 1 16 32
M  V30 33 1 17 33
M  V30 END BOND
M  V30 END CTAB
M  END
