
     RDKit          3D

  0  0  0  0  0  0  0  0  0  0999 V3000
M  V30 BEGIN CTAB
M  V30 COUNTS 30 31 0 0 0
M  V30 BEGIN ATOM
M  V30 1 N -2.01392 -3.6112 0.501818 0
M  V30 2 C -1.41251 -2.31846 0.34442 0
M  V30 3 C -0.0667434 -2.17651 0.394966 0
M  V30 4 C 0.463031 -0.926064 0.23903 0
M  V30 5 C 1.83162 -0.826733 0.286232 0
M  V30 6 C 2.43702 0.394074 0.126388 0
M  V30 7 C 1.63489 1.48548 -0.0783681 0
M  V30 8 C 0.234291 1.39789 -0.128645 0
M  V30 9 N -0.460358 2.57442 -0.368386 0
M  V30 10 C -0.358132 0.195234 0.0308129 0
M  V30 11 C -1.7489 0.0880327 -0.0254635 0
M  V30 12 C -2.20004 -1.23976 0.144777 0
M  V30 13 S -2.86381 1.36008 -0.226142 0
M  V30 14 O -3.00771 2.53811 0.926123 0
M  V30 15 O -4.25473 0.695695 0.0574337 0
M  V30 16 O -3.25764 1.73942 -1.63058 0
M  V30 17 S 4.16384 0.541598 0.183203 0
M  V30 18 O 4.807 0.348283 -1.37305 0
M  V30 19 O 4.7036 -0.535125 1.08035 0
M  V30 20 O 4.54559 1.9228 0.690331 0
M  V30 21 H -2.58367 -3.76208 1.36842 0
M  V30 22 H -1.88457 -4.35868 -0.217228 0
M  V30 23 H 0.586204 -3.03774 0.556431 0
M  V30 24 H 2.44793 -1.69406 0.447566 0
M  V30 25 H 2.05224 2.47064 -0.211076 0
M  V30 26 H -0.861373 2.79861 -1.27577 0
M  V30 27 H -0.537319 3.27932 0.389347 0
M  V30 28 H -3.27932 -1.43527 0.113634 0
M  V30 29 H -3.26433 2.246 1.80864 0
M  V30 30 H 4.14783 -0.154017 -1.90213 0
M  V30 END ATOM
M  V30 BEGIN BOND
M  V30 1 1 1 2
M  V30 2 2 2 3
M  V30 3 1 3 4
M  V30 4 2 4 5
M  V30 5 1 5 6
M  V30 6 2 6 7
M  V30 7 1 7 8
M  V30 8 1 8 9
M  V30 9 2 8 10
M  V30 10 1 10 11
M  V30 11 2 11 12
M  V30 12 1 11 13
M  V30 13 1 13 14
M  V30 14 2 13 15
M  V30 15 2 13 16
M  V30 16 1 6 17
M  V30 17 1 17 18
M  V30 18 2 17 19
M  V30 19 2 17 20
M  V30 20 1 12 2
M  V30 21 1 10 4
M  V30 22 1 1 21
M  V30 23 1 1 22
M  V30 24 1 3 23
M  V30 25 1 5 24
M  V30 26 1 7 25
M  V30 27 1 9 26
M  V30 28 1 9 27
M  V30 29 1 12 28
M  V30 30 1 14 29
M  V30 31 1 18 30
M  V30 END BOND
M  V30 END CTAB
M  END
