
     RDKit          3D

  0  0  0  0  0  0  0  0  0  0999 V3000
M  V30 BEGIN CTAB
M  V30 COUNTS 70 72 0 0 0
M  V30 BEGIN ATOM
M  V30 1 N 8.32896 -4.26011 -0.286807 0
M  V30 2 C 8.18606 -2.92119 -0.781828 0
M  V30 3 C 7.04245 -2.21191 -0.056536 0
M  V30 4 C 5.78363 -3.01759 -0.313013 0
M  V30 5 N 4.60518 -2.46442 0.307843 0
M  V30 6 C 4.26867 -1.23415 -0.346074 0
M  V30 7 C 3.03431 -0.560238 0.221719 0
M  V30 8 C 2.848 0.717073 -0.566726 0
M  V30 9 N 1.71063 1.49831 -0.165135 0
M  V30 10 C 0.346014 1.13133 -0.391608 0
M  V30 11 C -0.703809 1.62936 0.20086 0
M  V30 12 C -1.9246 0.956026 -0.340543 0
M  V30 13 O -3.08779 1.25501 0.0734424 0
M  V30 14 N -1.51922 0.0190744 -1.30937 0
M  V30 15 C -2.32827 -0.817471 -2.12208 0
M  V30 16 C -2.69572 -2.16581 -1.69446 0
M  V30 17 C -3.51637 -2.35467 -0.461252 0
M  V30 18 N -4.81359 -1.66145 -0.52804 0
M  V30 19 C -5.57929 -2.129 0.58663 0
M  V30 20 C -6.82362 -1.36995 0.868759 0
M  V30 21 C -7.81057 -1.25672 -0.256478 0
M  V30 22 N -7.24981 -0.522434 -1.3877 0
M  V30 23 C -0.0694183 0.124674 -1.34686 0
M  V30 24 O 0.630076 -0.587991 -2.11959 0
M  V30 25 C -0.782186 2.72957 1.17241 0
M  V30 26 C -1.31359 2.6763 2.44474 0
M  V30 27 N -1.26785 3.89978 3.00117 0
M  V30 28 C -0.717808 4.79755 2.14059 0
M  V30 29 C -0.414007 4.05668 0.993354 0
M  V30 30 C 0.146006 4.77118 -0.0472036 0
M  V30 31 C 0.387926 6.11395 0.0376005 0
M  V30 32 C 0.0791789 6.82682 1.18234 0
M  V30 33 C -0.480337 6.15136 2.24154 0
M  V30 34 H 8.05495 -4.96822 -0.97426 0
M  V30 35 H 8.01849 -4.38308 0.678642 0
M  V30 36 H 9.10959 -2.30354 -0.587844 0
M  V30 37 H 7.95611 -2.88066 -1.85816 0
M  V30 38 H 7.24533 -2.10753 1.02426 0
M  V30 39 H 6.96168 -1.21251 -0.556891 0
M  V30 40 H 5.6455 -2.97068 -1.4368 0
M  V30 41 H 5.97017 -4.04616 0.0258053 0
M  V30 42 H 4.70436 -2.39475 1.34072 0
M  V30 43 H 5.08533 -0.496145 -0.329176 0
M  V30 44 H 4.00665 -1.52176 -1.40603 0
M  V30 45 H 2.20393 -1.25971 0.168568 0
M  V30 46 H 3.24521 -0.310164 1.30143 0
M  V30 47 H 3.75984 1.36711 -0.49433 0
M  V30 48 H 2.80007 0.427498 -1.64154 0
M  V30 49 H 1.9161 2.38338 0.340356 0
M  V30 50 H -3.29624 -0.245192 -2.28742 0
M  V30 51 H -1.90589 -0.823965 -3.19392 0
M  V30 52 H -3.30532 -2.6284 -2.5465 0
M  V30 53 H -1.818 -2.86694 -1.57962 0
M  V30 54 H -2.94867 -1.99861 0.410718 0
M  V30 55 H -3.74551 -3.45567 -0.318507 0
M  V30 56 H -5.23703 -1.99635 -1.43737 0
M  V30 57 H -5.88938 -3.21253 0.393495 0
M  V30 58 H -5.00215 -2.185 1.54708 0
M  V30 59 H -6.59245 -0.344558 1.26425 0
M  V30 60 H -7.34737 -1.92791 1.70777 0
M  V30 61 H -8.10103 -2.28108 -0.645366 0
M  V30 62 H -8.70989 -0.731742 0.146715 0
M  V30 63 H -6.55421 0.184684 -1.03482 0
M  V30 64 H -8.01185 0.0222808 -1.86995 0
M  V30 65 H -1.69046 1.75819 2.87263 0
M  V30 66 H -1.58933 4.18315 3.95116 0
M  V30 67 H 0.37634 4.18723 -0.930151 0
M  V30 68 H 0.831914 6.62959 -0.809622 0
M  V30 69 H 0.279325 7.91288 1.22959 0
M  V30 70 H -0.725339 6.67788 3.1255 0
M  V30 END ATOM
M  V30 BEGIN BOND
M  V30 1 1 1 2
M  V30 2 1 2 3
M  V30 3 1 3 4
M  V30 4 1 4 5
M  V30 5 1 5 6
M  V30 6 1 6 7
M  V30 7 1 7 8
M  V30 8 1 8 9
M  V30 9 1 9 10
M  V30 10 2 10 11
M  V30 11 1 11 12
M  V30 12 2 12 13
M  V30 13 1 12 14
M  V30 14 1 14 15
M  V30 15 1 15 16
M  V30 16 1 16 17
M  V30 17 1 17 18
M  V30 18 1 18 19
M  V30 19 1 19 20
M  V30 20 1 20 21
M  V30 21 1 21 22
M  V30 22 1 14 23
M  V30 23 2 23 24
M  V30 24 1 11 25
M  V30 25 2 25 26
M  V30 26 1 26 27
M  V30 27 1 27 28
M  V30 28 2 28 29
M  V30 29 1 29 30
M  V30 30 2 30 31
M  V30 31 1 31 32
M  V30 32 2 32 33
M  V30 33 1 23 10
M  V30 34 1 29 25
M  V30 35 1 33 28
M  V30 36 1 1 34
M  V30 37 1 1 35
M  V30 38 1 2 36
M  V30 39 1 2 37
M  V30 40 1 3 38
M  V30 41 1 3 39
M  V30 42 1 4 40
M  V30 43 1 4 41
M  V30 44 1 5 42
M  V30 45 1 6 43
M  V30 46 1 6 44
M  V30 47 1 7 45
M  V30 48 1 7 46
M  V30 49 1 8 47
M  V30 50 1 8 48
M  V30 51 1 9 49
M  V30 52 1 15 50
M  V30 53 1 15 51
M  V30 54 1 16 52
M  V30 55 1 16 53
M  V30 56 1 17 54
M  V30 57 1 17 55
M  V30 58 1 18 56
M  V30 59 1 19 57
M  V30 60 1 19 58
M  V30 61 1 20 59
M  V30 62 1 20 60
M  V30 63 1 21 61
M  V30 64 1 21 62
M  V30 65 1 22 63
M  V30 66 1 22 64
M  V30 67 1 26 65
M  V30 68 1 27 66
M  V30 69 1 30 67
M  V30 70 1 31 68
M  V30 71 1 32 69
M  V30 72 1 33 70
M  V30 END BOND
M  V30 END CTAB
M  END
