
     RDKit          3D

  0  0  0  0  0  0  0  0  0  0999 V3000
M  V30 BEGIN CTAB
M  V30 COUNTS 87 92 0 0 0
M  V30 BEGIN ATOM
M  V30 1 C -6.50566 -1.28331 2.60142 0
M  V30 2 C -6.98055 -0.589743 1.34338 0
M  V30 3 C -6.86733 -1.41111 0.129265 0
M  V30 4 C -7.97767 -2.00574 -0.424438 0
M  V30 5 C -7.94128 -2.78469 -1.55223 0
M  V30 6 C -6.71039 -2.95819 -2.13309 0
M  V30 7 C -5.55129 -2.38821 -1.6278 0
M  V30 8 C -5.62881 -1.61839 -0.502471 0
M  V30 9 N -4.49252 -1.01489 0.0475814 0
M  V30 10 C -3.15708 -1.06695 -0.38227 0
M  V30 11 N -2.25233 -0.370081 0.357383 0
M  V30 12 C -0.957715 -0.324434 0.0732329 0
M  V30 13 N -0.52584 -1.00535 -1.0034 0
M  V30 14 C -1.39542 -1.7152 -1.77045 0
M  V30 15 N -2.67434 -1.71371 -1.4243 0
M  V30 16 N -0.950203 -2.44026 -2.91132 0
M  V30 17 C -0.0334143 0.429325 0.922212 0
M  V30 18 N 0.392294 1.70626 0.567646 0
M  V30 19 C -0.494092 2.78071 0.47181 0
M  V30 20 C -1.52813 2.84035 -0.548678 0
M  V30 21 C -1.29003 2.54583 -1.85401 0
M  V30 22 C -2.26702 2.62316 -2.83523 0
M  V30 23 C -3.53144 3.00641 -2.51859 0
M  V30 24 C -3.82553 3.31652 -1.2081 0
M  V30 25 C -2.85164 3.23235 -0.270161 0
M  V30 26 C 0.16105 4.12552 0.662025 0
M  V30 27 C -0.0149345 5.12719 -0.243899 0
M  V30 28 C 0.573167 6.38384 -0.059685 0
M  V30 29 C 1.33205 6.54473 1.08024 0
M  V30 30 C 1.51198 5.54252 1.99305 0
M  V30 31 C 0.914045 4.32026 1.77148 0
M  V30 32 C 1.61269 1.77623 -0.185142 0
M  V30 33 C 2.77343 1.0773 0.492728 0
M  V30 34 N 3.36702 1.55094 1.59319 0
M  V30 35 C 4.39827 0.925665 2.17727 0
M  V30 36 N 4.94537 1.52553 3.34219 0
M  V30 37 N 4.84229 -0.198738 1.64436 0
M  V30 38 C 4.31696 -0.742315 0.556033 0
M  V30 39 N 3.26426 -0.0595789 0.00115551 0
M  V30 40 N 4.73358 -1.94104 -0.0852043 0
M  V30 41 C 5.7677 -2.7874 0.294711 0
M  V30 42 C 6.58732 -2.65784 1.38108 0
M  V30 43 C 7.59865 -3.5554 1.68366 0
M  V30 44 C 7.80996 -4.63256 0.873729 0
M  V30 45 C 7.02649 -4.8154 -0.222608 0
M  V30 46 C 6.02702 -3.91444 -0.507923 0
M  V30 47 C 5.22436 -4.20596 -1.73252 0
M  V30 48 C 5.59879 -3.30322 -2.87883 0
M  V30 49 H -7.32467 -1.34033 3.35592 0
M  V30 50 H -5.69712 -0.688725 3.10646 0
M  V30 51 H -6.13554 -2.30228 2.41558 0
M  V30 52 H -6.46014 0.361352 1.24416 0
M  V30 53 H -8.08064 -0.318425 1.46874 0
M  V30 54 H -8.96112 -1.86251 0.0465114 0
M  V30 55 H -8.83185 -3.23446 -1.95793 0
M  V30 56 H -6.64654 -3.56322 -3.01902 0
M  V30 57 H -4.6646 -2.60223 -2.17456 0
M  V30 58 H -4.67717 -0.423791 0.930496 0
M  V30 59 H -0.834325 -3.4678 -2.81811 0
M  V30 60 H -0.759907 -1.91689 -3.78639 0
M  V30 61 H 0.852204 -0.240164 1.06944 0
M  V30 62 H -0.438057 0.505178 1.9914 0
M  V30 63 H -1.0979 2.71857 1.47191 0
M  V30 64 H -0.322208 2.23821 -2.19879 0
M  V30 65 H -2.02382 2.37354 -3.88124 0
M  V30 66 H -4.30706 3.06797 -3.29493 0
M  V30 67 H -4.83884 3.61949 -0.977703 0
M  V30 68 H -3.06603 3.47472 0.777913 0
M  V30 69 H -0.612303 5.02034 -1.15226 0
M  V30 70 H 0.433809 7.17883 -0.778831 0
M  V30 71 H 1.81012 7.51644 1.26087 0
M  V30 72 H 2.12571 5.73635 2.87486 0
M  V30 73 H 1.08829 3.5527 2.5295 0
M  V30 74 H 1.90205 2.84531 -0.24148 0
M  V30 75 H 1.55157 1.31112 -1.17819 0
M  V30 76 H 4.59523 1.34273 4.30135 0
M  V30 77 H 5.73926 2.1823 3.22001 0
M  V30 78 H 4.17062 -2.19845 -0.960125 0
M  V30 79 H 6.45829 -1.80744 2.06797 0
M  V30 80 H 8.21365 -3.40502 2.55066 0
M  V30 81 H 8.6007 -5.35898 1.08555 0
M  V30 82 H 7.21908 -5.68665 -0.852911 0
M  V30 83 H 5.43493 -5.24633 -2.08938 0
M  V30 84 H 4.15532 -4.0685 -1.51185 0
M  V30 85 H 6.06937 -2.38187 -2.472 0
M  V30 86 H 6.29065 -3.79645 -3.60022 0
M  V30 87 H 4.69492 -3.01112 -3.41542 0
M  V30 END ATOM
M  V30 BEGIN BOND
M  V30 1 1 1 2
M  V30 2 1 2 3
M  V30 3 2 3 4
M  V30 4 1 4 5
M  V30 5 2 5 6
M  V30 6 1 6 7
M  V30 7 2 7 8
M  V30 8 1 8 9
M  V30 9 1 9 10
M  V30 10 2 10 11
M  V30 11 1 11 12
M  V30 12 2 12 13
M  V30 13 1 13 14
M  V30 14 2 14 15
M  V30 15 1 14 16
M  V30 16 1 12 17
M  V30 17 1 17 18
M  V30 18 1 18 19
M  V30 19 1 19 20
M  V30 20 2 20 21
M  V30 21 1 21 22
M  V30 22 2 22 23
M  V30 23 1 23 24
M  V30 24 2 24 25
M  V30 25 1 19 26
M  V30 26 2 26 27
M  V30 27 1 27 28
M  V30 28 2 28 29
M  V30 29 1 29 30
M  V30 30 2 30 31
M  V30 31 1 18 32
M  V30 32 1 32 33
M  V30 33 2 33 34
M  V30 34 1 34 35
M  V30 35 1 35 36
M  V30 36 2 35 37
M  V30 37 1 37 38
M  V30 38 2 38 39
M  V30 39 1 38 40
M  V30 40 1 40 41
M  V30 41 2 41 42
M  V30 42 1 42 43
M  V30 43 2 43 44
M  V30 44 1 44 45
M  V30 45 2 45 46
M  V30 46 1 46 47
M  V30 47 1 47 48
M  V30 48 1 8 3
M  V30 49 1 15 10
M  V30 50 1 25 20
M  V30 51 1 31 26
M  V30 52 1 39 33
M  V30 53 1 46 41
M  V30 54 1 1 49
M  V30 55 1 1 50
M  V30 56 1 1 51
M  V30 57 1 2 52
M  V30 58 1 2 53
M  V30 59 1 4 54
M  V30 60 1 5 55
M  V30 61 1 6 56
M  V30 62 1 7 57
M  V30 63 1 9 58
M  V30 64 1 16 59
M  V30 65 1 16 60
M  V30 66 1 17 61
M  V30 67 1 17 62
M  V30 68 1 19 63
M  V30 69 1 21 64
M  V30 70 1 22 65
M  V30 71 1 23 66
M  V30 72 1 24 67
M  V30 73 1 25 68
M  V30 74 1 27 69
M  V30 75 1 28 70
M  V30 76 1 29 71
M  V30 77 1 30 72
M  V30 78 1 31 73
M  V30 79 1 32 74
M  V30 80 1 32 75
M  V30 81 1 36 76
M  V30 82 1 36 77
M  V30 83 1 40 78
M  V30 84 1 42 79
M  V30 85 1 43 80
M  V30 86 1 44 81
M  V30 87 1 45 82
M  V30 88 1 47 83
M  V30 89 1 47 84
M  V30 90 1 48 85
M  V30 91 1 48 86
M  V30 92 1 48 87
M  V30 END BOND
M  V30 END CTAB
M  END
