
     RDKit          3D

  0  0  0  0  0  0  0  0  0  0999 V3000
M  V30 BEGIN CTAB
M  V30 COUNTS 19 20 0 0 0
M  V30 BEGIN ATOM
M  V30 1 N 3.29104 -1.04113 0.1696 0
M  V30 2 C 1.96273 -0.553859 0.0980218 0
M  V30 3 N 0.904137 -1.39708 0.0903183 0
M  V30 4 C -0.360166 -0.941011 0.0224954 0
M  V30 5 C -1.45385 -1.80078 0.0141054 0
M  V30 6 C -2.74465 -1.3216 -0.0556458 0
M  V30 7 N -2.91108 0.0121416 -0.1156 0
M  V30 8 C -1.86559 0.878195 -0.109351 0
M  V30 9 C -0.56397 0.423838 -0.0401719 0
M  V30 10 C 0.515182 1.27419 -0.0319498 0
M  V30 11 N 1.75347 0.769756 0.0367919 0
M  V30 12 N 0.320938 2.68691 -0.0962303 0
M  V30 13 H 3.7737 -1.02648 1.08839 0
M  V30 14 H 3.74716 -1.39731 -0.685426 0
M  V30 15 H -1.29121 -2.85542 0.0627437 0
M  V30 16 H -3.58693 -2.00293 -0.0613477 0
M  V30 17 H -2.0064 1.94721 -0.157672 0
M  V30 18 H 0.883727 3.27021 0.557581 0
M  V30 19 H -0.368249 3.07516 -0.786648 0
M  V30 END ATOM
M  V30 BEGIN BOND
M  V30 1 1 1 2
M  V30 2 2 2 3
M  V30 3 1 3 4
M  V30 4 2 4 5
M  V30 5 1 5 6
M  V30 6 2 6 7
M  V30 7 1 7 8
M  V30 8 2 8 9
M  V30 9 1 9 10
M  V30 10 2 10 11
M  V30 11 1 10 12
M  V30 12 1 11 2
M  V30 13 1 9 4
M  V30 14 1 1 13
M  V30 15 1 1 14
M  V30 16 1 5 15
M  V30 17 1 6 16
M  V30 18 1 8 17
M  V30 19 1 12 18
M  V30 20 1 12 19
M  V30 END BOND
M  V30 END CTAB
M  END
