
     RDKit          3D

  0  0  0  0  0  0  0  0  0  0999 V3000
M  V30 BEGIN CTAB
M  V30 COUNTS 42 42 0 0 0
M  V30 BEGIN ATOM
M  V30 1 N -1.45784 -1.321 2.1027 0
M  V30 2 C -2.19616 -1.82739 1.00765 0
M  V30 3 C -1.77866 -1.22252 -0.351218 0
M  V30 4 N -1.95488 0.170005 -0.330339 0
M  V30 5 C -3.3664 0.508868 -0.771357 0
M  V30 6 O -3.68105 1.68881 -0.775496 0
M  V30 7 O -4.21825 -0.46247 -1.14253 0
M  V30 8 C -5.53621 -0.258946 -1.57671 0
M  V30 9 C -6.41946 0.407642 -0.581376 0
M  V30 10 C -1.34604 1.35071 0.0110573 0
M  V30 11 C -0.136513 1.68147 0.192609 0
M  V30 12 C 0.920949 0.750372 0.0361186 0
M  V30 13 O 0.893897 -0.405053 -0.25757 0
M  V30 14 N 2.24404 1.27348 0.257761 0
M  V30 15 C 3.42656 0.545685 0.155011 0
M  V30 16 C 3.59367 -0.809728 0.0312961 0
M  V30 17 C 4.87521 -1.39706 -0.0463496 0
M  V30 18 C 6.00466 -0.630822 -0.000175531 0
M  V30 19 C 5.84591 0.731183 0.124627 0
M  V30 20 C 4.60529 1.29044 0.198808 0
M  V30 21 Cl 4.54064 3.03777 0.353114 0
M  V30 22 N 7.32751 -1.14611 -0.0723011 0
M  V30 23 C 0.208818 3.09448 0.584934 0
M  V30 24 N 0.500011 4.17311 0.886349 0
M  V30 25 H -0.674481 -1.96506 2.35899 0
M  V30 26 H -2.04017 -1.21907 2.96059 0
M  V30 27 H -3.29809 -1.76525 1.1257 0
M  V30 28 H -1.98786 -2.91956 0.906545 0
M  V30 29 H -0.894142 -1.74447 -0.642822 0
M  V30 30 H -2.64742 -1.70359 -1.01642 0
M  V30 31 H -5.96606 -1.25704 -1.8081 0
M  V30 32 H -5.54516 0.323071 -2.51263 0
M  V30 33 H -7.48249 0.189585 -0.879082 0
M  V30 34 H -6.33811 1.51248 -0.588367 0
M  V30 35 H -6.31526 -0.0184742 0.442785 0
M  V30 36 H -2.04956 2.27212 0.200485 0
M  V30 37 H 2.29974 2.29758 0.527242 0
M  V30 38 H 2.74418 -1.45604 0.00311498 0
M  V30 39 H 4.96164 -2.46406 -0.143295 0
M  V30 40 H 6.73036 1.36895 0.163126 0
M  V30 41 H 7.5218 -1.89207 -0.756572 0
M  V30 42 H 8.08541 -0.782025 0.549056 0
M  V30 END ATOM
M  V30 BEGIN BOND
M  V30 1 1 1 2
M  V30 2 1 2 3
M  V30 3 1 3 4
M  V30 4 1 4 5
M  V30 5 2 5 6
M  V30 6 1 5 7
M  V30 7 1 7 8
M  V30 8 1 8 9
M  V30 9 1 4 10
M  V30 10 2 10 11
M  V30 11 1 11 12
M  V30 12 2 12 13
M  V30 13 1 12 14
M  V30 14 1 14 15
M  V30 15 2 15 16
M  V30 16 1 16 17
M  V30 17 2 17 18
M  V30 18 1 18 19
M  V30 19 2 19 20
M  V30 20 1 20 21
M  V30 21 1 18 22
M  V30 22 1 11 23
M  V30 23 3 23 24
M  V30 24 1 20 15
M  V30 25 1 1 25
M  V30 26 1 1 26
M  V30 27 1 2 27
M  V30 28 1 2 28
M  V30 29 1 3 29
M  V30 30 1 3 30
M  V30 31 1 8 31
M  V30 32 1 8 32
M  V30 33 1 9 33
M  V30 34 1 9 34
M  V30 35 1 9 35
M  V30 36 1 10 36
M  V30 37 1 14 37
M  V30 38 1 16 38
M  V30 39 1 17 39
M  V30 40 1 19 40
M  V30 41 1 22 41
M  V30 42 1 22 42
M  V30 END BOND
M  V30 END CTAB
M  END
