
     RDKit          3D

  0  0  0  0  0  0  0  0  0  0999 V3000
M  V30 BEGIN CTAB
M  V30 COUNTS 22 23 0 0 0
M  V30 BEGIN ATOM
M  V30 1 N -3.06415 0.950804 0.733658 0
M  V30 2 C -2.07558 0.15863 0.0873766 0
M  V30 3 C -2.47373 -0.791355 -0.819967 0
M  V30 4 C -1.51024 -1.55517 -1.44225 0
M  V30 5 N -0.196366 -1.39223 -1.18256 0
M  V30 6 C 0.222916 -0.474176 -0.302832 0
M  V30 7 C -0.722288 0.291647 0.322831 0
M  V30 8 N -0.305171 1.25997 1.24865 0
M  V30 9 N 1.60801 -0.342993 -0.0663787 0
M  V30 10 C 2.34868 -0.751633 0.958291 0
M  V30 11 N 3.65143 -0.419301 0.788788 0
M  V30 12 C 3.72326 0.224401 -0.393743 0
M  V30 13 C 2.46451 0.276137 -0.929403 0
M  V30 14 H -3.73398 1.4821 0.114098 0
M  V30 15 H -3.18294 1.0508 1.74458 0
M  V30 16 H -3.51142 -0.970102 -1.07112 0
M  V30 17 H -1.79043 -2.31261 -2.16257 0
M  V30 18 H 0.324806 0.981845 2.03339 0
M  V30 19 H -0.585566 2.26428 1.20973 0
M  V30 20 H 1.97508 -1.28254 1.82405 0
M  V30 21 H 4.63267 0.620502 -0.81992 0
M  V30 22 H 2.20051 0.730989 -1.87468 0
M  V30 END ATOM
M  V30 BEGIN BOND
M  V30 1 1 1 2
M  V30 2 2 2 3
M  V30 3 1 3 4
M  V30 4 2 4 5
M  V30 5 1 5 6
M  V30 6 2 6 7
M  V30 7 1 7 8
M  V30 8 1 6 9
M  V30 9 1 9 10
M  V30 10 2 10 11
M  V30 11 1 11 12
M  V30 12 2 12 13
M  V30 13 1 7 2
M  V30 14 1 13 9
M  V30 15 1 1 14
M  V30 16 1 1 15
M  V30 17 1 3 16
M  V30 18 1 4 17
M  V30 19 1 8 18
M  V30 20 1 8 19
M  V30 21 1 10 20
M  V30 22 1 12 21
M  V30 23 1 13 22
M  V30 END BOND
M  V30 END CTAB
M  END
