
     RDKit          3D

  0  0  0  0  0  0  0  0  0  0999 V3000
M  V30 BEGIN CTAB
M  V30 COUNTS 48 49 0 0 0
M  V30 BEGIN ATOM
M  V30 1 N -3.41051 4.65362 -1.30121 0
M  V30 2 C -3.32386 3.22291 -1.52767 0
M  V30 3 C -2.32573 2.56443 -0.606921 0
M  V30 4 C -2.32647 1.09863 -0.934841 0
M  V30 5 N -1.34665 0.368798 -0.0499096 0
M  V30 6 C -0.0677294 0.290972 -0.576843 0
M  V30 7 O 0.0139559 0.889379 -1.74574 0
M  V30 8 C 1.16256 -0.304092 -0.102886 0
M  V30 9 C 1.32458 -1.02414 1.04479 0
M  V30 10 C 2.59408 -1.52702 1.37918 0
M  V30 11 C 3.68625 -1.30748 0.56731 0
M  V30 12 C 3.52932 -0.581511 -0.593179 0
M  V30 13 C 2.2908 -0.0906415 -0.919437 0
M  V30 14 C 4.66273 -0.316714 -1.49737 0
M  V30 15 S 5.50096 1.19657 -1.076 0
M  V30 16 O 6.6729 1.41563 -1.98718 0
M  V30 17 O 4.59105 2.37608 -1.23447 0
M  V30 18 N 6.0835 1.03725 0.538429 0
M  V30 19 C -1.83922 -0.12487 1.17896 0
M  V30 20 C -2.38223 -1.51961 1.09923 0
M  V30 21 C -2.88689 -2.10417 2.22421 0
M  V30 22 C -3.39132 -3.38901 2.16852 0
M  V30 23 C -3.40894 -4.12507 1.00217 0
M  V30 24 C -2.89793 -3.53082 -0.133005 0
M  V30 25 C -2.39426 -2.24535 -0.0730856 0
M  V30 26 H -2.62397 5.12207 -1.82021 0
M  V30 27 H -4.28405 4.98125 -1.78445 0
M  V30 28 H -3.01842 2.97907 -2.56806 0
M  V30 29 H -4.30395 2.72622 -1.36142 0
M  V30 30 H -1.31906 3.00476 -0.699412 0
M  V30 31 H -2.62568 2.69015 0.467731 0
M  V30 32 H -2.0382 0.974706 -1.99192 0
M  V30 33 H -3.33461 0.702565 -0.800146 0
M  V30 34 H 0.510036 -1.23453 1.71205 0
M  V30 35 H 2.64473 -2.08467 2.29885 0
M  V30 36 H 4.64342 -1.71236 0.86276 0
M  V30 37 H 2.19383 0.489292 -1.85655 0
M  V30 38 H 4.26166 -0.177072 -2.52087 0
M  V30 39 H 5.33583 -1.17644 -1.46472 0
M  V30 40 H 6.31205 0.0526612 0.776612 0
M  V30 41 H 6.88842 1.66885 0.727766 0
M  V30 42 H -1.21479 -0.039649 2.06353 0
M  V30 43 H -2.73988 0.558236 1.47499 0
M  V30 44 H -2.89595 -1.56548 3.16959 0
M  V30 45 H -3.78542 -3.8408 3.05508 0
M  V30 46 H -3.81578 -5.14806 0.979632 0
M  V30 47 H -2.89804 -4.08247 -1.06194 0
M  V30 48 H -2.00314 -1.81205 -0.978235 0
M  V30 END ATOM
M  V30 BEGIN BOND
M  V30 1 1 1 2
M  V30 2 1 2 3
M  V30 3 1 3 4
M  V30 4 1 4 5
M  V30 5 1 5 6
M  V30 6 2 6 7
M  V30 7 1 6 8
M  V30 8 2 8 9
M  V30 9 1 9 10
M  V30 10 2 10 11
M  V30 11 1 11 12
M  V30 12 2 12 13
M  V30 13 1 12 14
M  V30 14 1 14 15
M  V30 15 2 15 16
M  V30 16 2 15 17
M  V30 17 1 15 18
M  V30 18 1 5 19
M  V30 19 1 19 20
M  V30 20 2 20 21
M  V30 21 1 21 22
M  V30 22 2 22 23
M  V30 23 1 23 24
M  V30 24 2 24 25
M  V30 25 1 13 8
M  V30 26 1 25 20
M  V30 27 1 1 26
M  V30 28 1 1 27
M  V30 29 1 2 28
M  V30 30 1 2 29
M  V30 31 1 3 30
M  V30 32 1 3 31
M  V30 33 1 4 32
M  V30 34 1 4 33
M  V30 35 1 9 34
M  V30 36 1 10 35
M  V30 37 1 11 36
M  V30 38 1 13 37
M  V30 39 1 14 38
M  V30 40 1 14 39
M  V30 41 1 18 40
M  V30 42 1 18 41
M  V30 43 1 19 42
M  V30 44 1 19 43
M  V30 45 1 21 44
M  V30 46 1 22 45
M  V30 47 1 23 46
M  V30 48 1 24 47
M  V30 49 1 25 48
M  V30 END BOND
M  V30 END CTAB
M  END
