
     RDKit          3D

  0  0  0  0  0  0  0  0  0  0999 V3000
M  V30 BEGIN CTAB
M  V30 COUNTS 44 46 0 0 0
M  V30 BEGIN ATOM
M  V30 1 N -3.52475 -4.55185 -0.64183 0
M  V30 2 C -3.25072 -3.21248 -0.265738 0
M  V30 3 C -3.94728 -2.64952 0.79349 0
M  V30 4 C -3.69347 -1.34943 1.1719 0
M  V30 5 C -2.73707 -0.655498 0.462452 0
M  V30 6 C -2.04143 -1.19555 -0.583807 0
M  V30 7 C -1.00874 -0.516297 -1.37796 0
M  V30 8 N -0.382674 0.603748 -0.837079 0
M  V30 9 C 0.366337 0.480867 0.352572 0
M  V30 10 C 1.54095 -0.43137 0.270255 0
M  V30 11 C 2.21988 -0.719811 -0.885354 0
M  V30 12 C 3.31064 -1.58689 -0.886319 0
M  V30 13 C 3.72723 -2.1734 0.288044 0
M  V30 14 C 3.03309 -1.86945 1.42879 0
M  V30 15 N 3.47963 -2.48804 2.64158 0
M  V30 16 N 2.00074 -1.0412 1.39434 0
M  V30 17 C -0.77351 1.87606 -1.27809 0
M  V30 18 C -0.0909677 3.02327 -0.676885 0
M  V30 19 N -0.600993 3.66844 0.407989 0
M  V30 20 C 0.0177055 4.72331 0.968265 0
M  V30 21 C 1.21159 5.23021 0.488486 0
M  V30 22 C 1.75444 4.59819 -0.610382 0
M  V30 23 C 1.10016 3.51633 -1.16849 0
M  V30 24 N -2.33148 -2.47003 -0.909142 0
M  V30 25 H -3.80128 -5.22422 0.100702 0
M  V30 26 H -3.45429 -4.8616 -1.62565 0
M  V30 27 H -4.69223 -3.22951 1.32604 0
M  V30 28 H -4.23631 -0.886997 2.0094 0
M  V30 29 H -2.5329 0.351855 0.740306 0
M  V30 30 H -1.50597 -0.219518 -2.34888 0
M  V30 31 H -0.260729 -1.27487 -1.6853 0
M  V30 32 H 0.748348 1.48003 0.651348 0
M  V30 33 H -0.224086 0.113541 1.24353 0
M  V30 34 H 1.88872 -0.253861 -1.7985 0
M  V30 35 H 3.82318 -1.79133 -1.82058 0
M  V30 36 H 4.57298 -2.8463 0.289996 0
M  V30 37 H 3.83254 -3.46927 2.62905 0
M  V30 38 H 3.43956 -1.93488 3.51425 0
M  V30 39 H -0.604615 1.93542 -2.39329 0
M  V30 40 H -1.88309 1.98234 -1.14323 0
M  V30 41 H -0.397411 5.24046 1.84314 0
M  V30 42 H 1.68257 6.08658 0.969479 0
M  V30 43 H 2.69445 4.96617 -1.01993 0
M  V30 44 H 1.53124 3.02634 -2.02895 0
M  V30 END ATOM
M  V30 BEGIN BOND
M  V30 1 1 1 2
M  V30 2 2 2 3
M  V30 3 1 3 4
M  V30 4 2 4 5
M  V30 5 1 5 6
M  V30 6 1 6 7
M  V30 7 1 7 8
M  V30 8 1 8 9
M  V30 9 1 9 10
M  V30 10 2 10 11
M  V30 11 1 11 12
M  V30 12 2 12 13
M  V30 13 1 13 14
M  V30 14 1 14 15
M  V30 15 2 14 16
M  V30 16 1 8 17
M  V30 17 1 17 18
M  V30 18 2 18 19
M  V30 19 1 19 20
M  V30 20 2 20 21
M  V30 21 1 21 22
M  V30 22 2 22 23
M  V30 23 2 6 24
M  V30 24 1 24 2
M  V30 25 1 16 10
M  V30 26 1 23 18
M  V30 27 1 1 25
M  V30 28 1 1 26
M  V30 29 1 3 27
M  V30 30 1 4 28
M  V30 31 1 5 29
M  V30 32 1 7 30
M  V30 33 1 7 31
M  V30 34 1 9 32
M  V30 35 1 9 33
M  V30 36 1 11 34
M  V30 37 1 12 35
M  V30 38 1 13 36
M  V30 39 1 15 37
M  V30 40 1 15 38
M  V30 41 1 17 39
M  V30 42 1 17 40
M  V30 43 1 20 41
M  V30 44 1 21 42
M  V30 45 1 22 43
M  V30 46 1 23 44
M  V30 END BOND
M  V30 END CTAB
M  END
