
     RDKit          3D

  0  0  0  0  0  0  0  0  0  0999 V3000
M  V30 BEGIN CTAB
M  V30 COUNTS 47 48 0 0 0
M  V30 BEGIN ATOM
M  V30 1 N 6.40283 -0.145849 0.132452 0
M  V30 2 C 5.22687 0.250023 -0.655105 0
M  V30 3 C 4.2441 -0.881602 -0.58848 0
M  V30 4 C 2.81026 -0.411903 -0.6324 0
M  V30 5 N 2.57358 0.449637 0.510307 0
M  V30 6 C 3.74665 1.08508 1.09003 0
M  V30 7 C 4.65276 1.51726 -0.0597305 0
M  V30 8 C 1.29399 0.680666 1.05419 0
M  V30 9 O 1.17328 1.43643 2.0396 0
M  V30 10 N 0.133037 0.079446 0.515716 0
M  V30 11 C -1.19252 0.319191 1.07969 0
M  V30 12 C -2.23548 -0.450524 0.295974 0
M  V30 13 N -1.88534 -1.85079 0.390271 0
M  V30 14 C -2.26468 0.0961366 -1.08592 0
M  V30 15 C -3.23421 -0.556316 -2.01259 0
M  V30 16 C -4.5831 -0.834122 -1.45606 0
M  V30 17 C -5.20732 0.3095 -0.715005 0
M  V30 18 C -4.42814 0.775449 0.472462 0
M  V30 19 C -3.54424 -0.285253 1.0323 0
M  V30 20 H 6.75154 -1.03713 -0.271613 0
M  V30 21 H 7.12041 0.608743 0.153327 0
M  V30 22 H 5.60276 0.456979 -1.67508 0
M  V30 23 H 4.37825 -1.39023 0.408659 0
M  V30 24 H 4.485 -1.62746 -1.35079 0
M  V30 25 H 2.59891 0.153671 -1.56694 0
M  V30 26 H 2.16135 -1.29932 -0.561006 0
M  V30 27 H 3.48994 1.98031 1.68083 0
M  V30 28 H 4.2646 0.304122 1.67812 0
M  V30 29 H 4.08237 2.07218 -0.814988 0
M  V30 30 H 5.41869 2.18593 0.353968 0
M  V30 31 H 0.25837 -0.550559 -0.306437 0
M  V30 32 H -1.40562 1.41728 1.03395 0
M  V30 33 H -1.24226 0.0216529 2.14569 0
M  V30 34 H -2.65859 -2.44335 0.768829 0
M  V30 35 H -1.06093 -2.02423 1.00982 0
M  V30 36 H -1.257 -0.022565 -1.53302 0
M  V30 37 H -2.42761 1.19153 -1.00932 0
M  V30 38 H -2.80275 -1.50294 -2.37888 0
M  V30 39 H -3.35166 0.0990526 -2.90023 0
M  V30 40 H -4.65457 -1.75398 -0.843528 0
M  V30 41 H -5.2631 -1.03296 -2.33731 0
M  V30 42 H -6.2292 -0.0428691 -0.396817 0
M  V30 43 H -5.40827 1.18289 -1.37688 0
M  V30 44 H -3.90135 1.73857 0.286566 0
M  V30 45 H -5.17757 1.02892 1.28081 0
M  V30 46 H -4.11318 -1.23657 1.04971 0
M  V30 47 H -3.34088 -0.0601501 2.12058 0
M  V30 END ATOM
M  V30 BEGIN BOND
M  V30 1 1 1 2
M  V30 2 1 2 3
M  V30 3 1 3 4
M  V30 4 1 4 5
M  V30 5 1 5 6
M  V30 6 1 6 7
M  V30 7 1 5 8
M  V30 8 2 8 9
M  V30 9 1 8 10
M  V30 10 1 10 11
M  V30 11 1 11 12
M  V30 12 1 12 13
M  V30 13 1 12 14
M  V30 14 1 14 15
M  V30 15 1 15 16
M  V30 16 1 16 17
M  V30 17 1 17 18
M  V30 18 1 18 19
M  V30 19 1 7 2
M  V30 20 1 19 12
M  V30 21 1 1 20
M  V30 22 1 1 21
M  V30 23 1 2 22
M  V30 24 1 3 23
M  V30 25 1 3 24
M  V30 26 1 4 25
M  V30 27 1 4 26
M  V30 28 1 6 27
M  V30 29 1 6 28
M  V30 30 1 7 29
M  V30 31 1 7 30
M  V30 32 1 10 31
M  V30 33 1 11 32
M  V30 34 1 11 33
M  V30 35 1 13 34
M  V30 36 1 13 35
M  V30 37 1 14 36
M  V30 38 1 14 37
M  V30 39 1 15 38
M  V30 40 1 15 39
M  V30 41 1 16 40
M  V30 42 1 16 41
M  V30 43 1 17 42
M  V30 44 1 17 43
M  V30 45 1 18 44
M  V30 46 1 18 45
M  V30 47 1 19 46
M  V30 48 1 19 47
M  V30 END BOND
M  V30 END CTAB
M  END
