
     RDKit          3D

  0  0  0  0  0  0  0  0  0  0999 V3000
M  V30 BEGIN CTAB
M  V30 COUNTS 34 35 0 0 0
M  V30 BEGIN ATOM
M  V30 1 C 4.16674 -0.348201 -2.11989 0
M  V30 2 N 3.52119 -0.601134 -0.843464 0
M  V30 3 N 3.67705 -1.8857 -0.281532 0
M  V30 4 C 2.74066 0.345543 -0.137174 0
M  V30 5 C 3.41762 1.40045 0.489789 0
M  V30 6 C 2.70016 2.32161 1.20814 0
M  V30 7 C 1.31231 2.17833 1.29278 0
M  V30 8 C 0.649286 1.14704 0.680792 0
M  V30 9 N 1.40402 0.257013 -0.0229706 0
M  V30 10 C -0.79576 0.961767 0.776087 0
M  V30 11 C -1.57711 1.81976 1.50986 0
M  V30 12 C -2.94463 1.59741 1.61479 0
M  V30 13 C -3.48523 0.530009 0.983937 0
M  V30 14 C -2.70019 -0.359994 0.225571 0
M  V30 15 N -1.40399 -0.0847012 0.170436 0
M  V30 16 N -3.3236 -1.45014 -0.410354 0
M  V30 17 C -4.24843 -1.11663 -1.49427 0
M  V30 18 N -3.13887 -2.7922 -0.108972 0
M  V30 19 H 5.25213 -0.605963 -2.07928 0
M  V30 20 H 4.1283 0.757197 -2.28056 0
M  V30 21 H 3.65589 -0.801966 -2.98257 0
M  V30 22 H 3.05449 -2.047 0.52 0
M  V30 23 H 4.6668 -1.97917 0.0180327 0
M  V30 24 H 4.48737 1.43694 0.371904 0
M  V30 25 H 3.22479 3.1327 1.68564 0
M  V30 26 H 0.78825 2.93115 1.86551 0
M  V30 27 H -1.14406 2.6739 2.01078 0
M  V30 28 H -3.50668 2.31626 2.21 0
M  V30 29 H -4.53145 0.32651 1.03949 0
M  V30 30 H -4.94083 -0.344937 -1.03878 0
M  V30 31 H -4.87269 -1.95311 -1.82133 0
M  V30 32 H -3.73211 -0.565221 -2.30607 0
M  V30 33 H -2.46962 -3.27357 -0.756148 0
M  V30 34 H -4.03181 -3.33218 0.00985138 0
M  V30 END ATOM
M  V30 BEGIN BOND
M  V30 1 1 1 2
M  V30 2 1 2 3
M  V30 3 1 2 4
M  V30 4 2 4 5
M  V30 5 1 5 6
M  V30 6 2 6 7
M  V30 7 1 7 8
M  V30 8 2 8 9
M  V30 9 1 8 10
M  V30 10 2 10 11
M  V30 11 1 11 12
M  V30 12 2 12 13
M  V30 13 1 13 14
M  V30 14 2 14 15
M  V30 15 1 14 16
M  V30 16 1 16 17
M  V30 17 1 16 18
M  V30 18 1 9 4
M  V30 19 1 15 10
M  V30 20 1 1 19
M  V30 21 1 1 20
M  V30 22 1 1 21
M  V30 23 1 3 22
M  V30 24 1 3 23
M  V30 25 1 5 24
M  V30 26 1 6 25
M  V30 27 1 7 26
M  V30 28 1 11 27
M  V30 29 1 12 28
M  V30 30 1 13 29
M  V30 31 1 17 30
M  V30 32 1 17 31
M  V30 33 1 17 32
M  V30 34 1 18 33
M  V30 35 1 18 34
M  V30 END BOND
M  V30 END CTAB
M  END
