
     RDKit          3D

  0  0  0  0  0  0  0  0  0  0999 V3000
M  V30 BEGIN CTAB
M  V30 COUNTS 27 27 0 0 0
M  V30 BEGIN ATOM
M  V30 1 N 3.65601 0.0415125 -0.02778 0
M  V30 2 C 2.84394 -1.03279 0.487855 0
M  V30 3 C 1.61078 -1.24307 -0.356098 0
M  V30 4 C 0.809936 0.01422 -0.352279 0 CFG=2
M  V30 5 C 0.376238 0.406871 1.04458 0
M  V30 6 C -1.12415 0.715603 0.932684 0
M  V30 7 N -1.26372 0.95718 -0.463539 0
M  V30 8 C -0.528021 -0.130587 -1.06785 0
M  V30 9 S -2.86753 1.08673 -1.01554 0
M  V30 10 O -3.51237 2.25545 -0.344794 0
M  V30 11 O -2.82328 1.37316 -2.50154 0
M  V30 12 N -3.80351 -0.320313 -0.782658 0
M  V30 13 H 3.16863 0.93269 0.101727 0
M  V30 14 H 4.54078 0.0706153 0.488553 0
M  V30 15 H 3.44045 -1.96514 0.592731 0
M  V30 16 H 2.52724 -0.758812 1.51404 0
M  V30 17 H 1.02863 -2.08023 0.0656152 0
M  V30 18 H 1.94561 -1.44846 -1.38886 0
M  V30 19 H 1.36551 0.835865 -0.851891 0
M  V30 20 H 0.543658 -0.40329 1.78364 0
M  V30 21 H 0.886201 1.34435 1.30861 0
M  V30 22 H -1.64299 -0.206704 1.27645 0
M  V30 23 H -1.40008 1.57235 1.57042 0
M  V30 24 H -0.439763 -0.0388448 -2.15029 0
M  V30 25 H -0.922041 -1.12611 -0.795699 0
M  V30 26 H -3.59649 -0.831277 0.0987563 0
M  V30 27 H -4.81967 -0.0209817 -0.774506 0
M  V30 END ATOM
M  V30 BEGIN BOND
M  V30 1 1 1 2
M  V30 2 1 2 3
M  V30 3 1 3 4
M  V30 4 1 4 5
M  V30 5 1 5 6
M  V30 6 1 6 7
M  V30 7 1 7 8
M  V30 8 1 7 9
M  V30 9 2 9 10
M  V30 10 2 9 11
M  V30 11 1 9 12
M  V30 12 1 8 4
M  V30 13 1 1 13
M  V30 14 1 1 14
M  V30 15 1 2 15
M  V30 16 1 2 16
M  V30 17 1 3 17
M  V30 18 1 3 18
M  V30 19 1 4 19 CFG=3
M  V30 20 1 5 20
M  V30 21 1 5 21
M  V30 22 1 6 22
M  V30 23 1 6 23
M  V30 24 1 8 24
M  V30 25 1 8 25
M  V30 26 1 12 26
M  V30 27 1 12 27
M  V30 END BOND
M  V30 END CTAB
M  END
