
     RDKit          3D

  0  0  0  0  0  0  0  0  0  0999 V3000
M  V30 BEGIN CTAB
M  V30 COUNTS 50 53 0 0 0
M  V30 BEGIN ATOM
M  V30 1 N -8.02439 -0.978271 -0.672152 0
M  V30 2 C -7.02189 -0.233516 -0.00718001 0
M  V30 3 N -7.28508 0.814003 0.770751 0
M  V30 4 C -6.32361 1.52361 1.40478 0
M  V30 5 N -6.67699 2.62589 2.21678 0
M  V30 6 N -5.03106 1.14209 1.23392 0
M  V30 7 C -4.68033 0.0944801 0.464212 0
M  V30 8 C -5.69806 -0.594509 -0.15932 0
M  V30 9 N -3.31062 -0.278617 0.307279 0
M  V30 10 C -2.994 -1.39917 -0.536271 0
M  V30 11 C -1.54641 -1.81885 -0.376264 0
M  V30 12 N -0.716206 -0.642111 -0.501714 0
M  V30 13 C -1.02883 0.493553 0.145092 0
M  V30 14 C -2.26793 0.457325 0.98518 0
M  V30 15 C -0.0780926 1.46386 -0.141154 0
M  V30 16 C 0.814056 0.842915 -0.991562 0
M  V30 17 N 0.390293 -0.418937 -1.17905 0
M  V30 18 C 2.01668 1.42417 -1.59802 0
M  V30 19 N 3.21834 1.22496 -0.818642 0
M  V30 20 C 3.91425 0.0104032 -0.751108 0
M  V30 21 O 3.44805 -0.969423 -1.42258 0
M  V30 22 C 5.13379 -0.227167 0.0273262 0
M  V30 23 C 6.28425 0.667024 -0.379066 0
M  V30 24 C 7.4485 -0.00703961 0.358818 0
M  V30 25 C 7.15257 -1.49484 0.207634 0
M  V30 26 C 5.71744 -1.60718 -0.226793 0
M  V30 27 H -8.94813 -1.12179 -0.246953 0
M  V30 28 H -7.81218 -1.38066 -1.60238 0
M  V30 29 H -6.78189 2.49455 3.24135 0
M  V30 30 H -6.83425 3.56626 1.80623 0
M  V30 31 H -5.45869 -1.44009 -0.784393 0
M  V30 32 H -3.13452 -1.11249 -1.59993 0
M  V30 33 H -3.62878 -2.25423 -0.259212 0
M  V30 34 H -1.34403 -2.56647 -1.16015 0
M  V30 35 H -1.40517 -2.30663 0.609545 0
M  V30 36 H -1.98993 -0.119571 1.91042 0
M  V30 37 H -2.6304 1.45572 1.26195 0
M  V30 38 H -0.0687993 2.47708 0.237143 0
M  V30 39 H 2.23623 0.991874 -2.61513 0
M  V30 40 H 1.83663 2.5102 -1.72943 0
M  V30 41 H 3.61427 2.03246 -0.256524 0
M  V30 42 H 4.92653 -0.0467288 1.09541 0
M  V30 43 H 6.50918 0.569554 -1.46503 0
M  V30 44 H 6.14805 1.70651 -0.0589511 0
M  V30 45 H 8.42002 0.28086 -0.0453759 0
M  V30 46 H 7.42698 0.20845 1.44057 0
M  V30 47 H 7.35692 -2.06491 1.12931 0
M  V30 48 H 7.83707 -1.86383 -0.605134 0
M  V30 49 H 5.71049 -1.72274 -1.351 0
M  V30 50 H 5.15967 -2.40801 0.259018 0
M  V30 END ATOM
M  V30 BEGIN BOND
M  V30 1 1 1 2
M  V30 2 2 2 3
M  V30 3 1 3 4
M  V30 4 1 4 5
M  V30 5 2 4 6
M  V30 6 1 6 7
M  V30 7 2 7 8
M  V30 8 1 7 9
M  V30 9 1 9 10
M  V30 10 1 10 11
M  V30 11 1 11 12
M  V30 12 1 12 13
M  V30 13 1 13 14
M  V30 14 2 13 15
M  V30 15 1 15 16
M  V30 16 2 16 17
M  V30 17 1 16 18
M  V30 18 1 18 19
M  V30 19 1 19 20
M  V30 20 2 20 21
M  V30 21 1 20 22
M  V30 22 1 22 23
M  V30 23 1 23 24
M  V30 24 1 24 25
M  V30 25 1 25 26
M  V30 26 1 8 2
M  V30 27 1 14 9
M  V30 28 1 26 22
M  V30 29 1 17 12
M  V30 30 1 1 27
M  V30 31 1 1 28
M  V30 32 1 5 29
M  V30 33 1 5 30
M  V30 34 1 8 31
M  V30 35 1 10 32
M  V30 36 1 10 33
M  V30 37 1 11 34
M  V30 38 1 11 35
M  V30 39 1 14 36
M  V30 40 1 14 37
M  V30 41 1 15 38
M  V30 42 1 18 39
M  V30 43 1 18 40
M  V30 44 1 19 41
M  V30 45 1 22 42
M  V30 46 1 23 43
M  V30 47 1 23 44
M  V30 48 1 24 45
M  V30 49 1 24 46
M  V30 50 1 25 47
M  V30 51 1 25 48
M  V30 52 1 26 49
M  V30 53 1 26 50
M  V30 END BOND
M  V30 END CTAB
M  END
