
     RDKit          3D

  0  0  0  0  0  0  0  0  0  0999 V3000
M  V30 BEGIN CTAB
M  V30 COUNTS 26 26 0 0 0
M  V30 BEGIN ATOM
M  V30 1 N 4.26096 -0.424555 0.299758 0
M  V30 2 C 2.91233 -0.178209 0.746332 0
M  V30 3 C 2.34413 1.03056 -0.00944622 0
M  V30 4 S 0.679975 1.31082 0.564468 0
M  V30 5 C -0.488578 0.0315907 0.165072 0
M  V30 6 C -0.778839 -0.127291 -1.29799 0
M  V30 7 C -2.17056 -0.770356 -1.20433 0
M  V30 8 C -2.85747 0.297014 -0.344669 0
M  V30 9 C -1.82842 0.411291 0.781581 0
M  V30 10 N -2.16617 -0.499192 1.87398 0
M  V30 11 H 4.93062 -0.121401 1.04491 0
M  V30 12 H 4.44849 0.0410458 -0.615546 0
M  V30 13 H 2.22946 -1.03036 0.563221 0
M  V30 14 H 2.91476 0.0249956 1.83448 0
M  V30 15 H 2.37606 0.84918 -1.08808 0
M  V30 16 H 2.95602 1.93665 0.181507 0
M  V30 17 H -0.227321 -0.973687 0.561401 0
M  V30 18 H -0.117392 -0.868127 -1.78752 0
M  V30 19 H -0.870659 0.815209 -1.84781 0
M  V30 20 H -2.0409 -1.66606 -0.592216 0
M  V30 21 H -2.63709 -0.904695 -2.17203 0
M  V30 22 H -2.94898 1.23963 -0.912663 0
M  V30 23 H -3.79184 -0.0785975 0.081374 0
M  V30 24 H -1.82215 1.42647 1.20753 0
M  V30 25 H -3.16513 -0.290853 2.12412 0
M  V30 26 H -2.14128 -1.48108 1.50429 0
M  V30 END ATOM
M  V30 BEGIN BOND
M  V30 1 1 1 2
M  V30 2 1 2 3
M  V30 3 1 3 4
M  V30 4 1 4 5
M  V30 5 1 5 6
M  V30 6 1 6 7
M  V30 7 1 7 8
M  V30 8 1 8 9
M  V30 9 1 9 10
M  V30 10 1 9 5
M  V30 11 1 1 11
M  V30 12 1 1 12
M  V30 13 1 2 13
M  V30 14 1 2 14
M  V30 15 1 3 15
M  V30 16 1 3 16
M  V30 17 1 5 17
M  V30 18 1 6 18
M  V30 19 1 6 19
M  V30 20 1 7 20
M  V30 21 1 7 21
M  V30 22 1 8 22
M  V30 23 1 8 23
M  V30 24 1 9 24
M  V30 25 1 10 25
M  V30 26 1 10 26
M  V30 END BOND
M  V30 END CTAB
M  END
