
     RDKit          3D

  0  0  0  0  0  0  0  0  0  0999 V3000
M  V30 BEGIN CTAB
M  V30 COUNTS 26 28 0 0 0
M  V30 BEGIN ATOM
M  V30 1 N 3.88623 1.22379 -0.323402 0
M  V30 2 C 2.5554 0.754105 -0.203013 0
M  V30 3 C 1.45649 1.58831 -0.340932 0
M  V30 4 C 0.158476 1.13435 -0.224302 0
M  V30 5 C -0.0701049 -0.218376 0.0434289 0
M  V30 6 C 1.03507 -1.03354 0.177508 0
M  V30 7 C 2.32955 -0.582497 0.0615257 0
M  V30 8 N 3.44328 -1.47987 0.211412 0
M  V30 9 C -1.42472 -0.440738 0.116341 0
M  V30 10 C -2.15638 -1.56189 0.350157 0
M  V30 11 C -3.52642 -1.50269 0.368742 0
M  V30 12 C -4.15728 -0.295993 0.148231 0
M  V30 13 C -3.39511 0.824593 -0.0861437 0
M  V30 14 C -2.01813 0.797471 -0.111111 0
M  V30 15 N -1.03319 1.6927 -0.306592 0
M  V30 16 H 4.499 0.794046 -1.03233 0
M  V30 17 H 4.27148 1.98617 0.275439 0
M  V30 18 H 1.63859 2.63925 -0.549039 0
M  V30 19 H 0.917378 -2.0991 0.387039 0
M  V30 20 H 3.68344 -2.19479 -0.507234 0
M  V30 21 H 4.01562 -1.39744 1.07132 0
M  V30 22 H -1.68938 -2.52731 0.527398 0
M  V30 23 H -4.12528 -2.39659 0.555508 0
M  V30 24 H -5.23757 -0.211792 0.155595 0
M  V30 25 H -3.85122 1.80468 -0.266479 0
M  V30 26 H -1.20522 2.70315 -0.499062 0
M  V30 END ATOM
M  V30 BEGIN BOND
M  V30 1 1 1 2
M  V30 2 2 2 3
M  V30 3 1 3 4
M  V30 4 2 4 5
M  V30 5 1 5 6
M  V30 6 2 6 7
M  V30 7 1 7 8
M  V30 8 1 5 9
M  V30 9 2 9 10
M  V30 10 1 10 11
M  V30 11 2 11 12
M  V30 12 1 12 13
M  V30 13 2 13 14
M  V30 14 1 14 15
M  V30 15 1 7 2
M  V30 16 1 14 9
M  V30 17 1 15 4
M  V30 18 1 1 16
M  V30 19 1 1 17
M  V30 20 1 3 18
M  V30 21 1 6 19
M  V30 22 1 8 20
M  V30 23 1 8 21
M  V30 24 1 10 22
M  V30 25 1 11 23
M  V30 26 1 12 24
M  V30 27 1 13 25
M  V30 28 1 15 26
M  V30 END BOND
M  V30 END CTAB
M  END
