
     RDKit          3D

  0  0  0  0  0  0  0  0  0  0999 V3000
M  V30 BEGIN CTAB
M  V30 COUNTS 24 23 0 0 0
M  V30 BEGIN ATOM
M  V30 1 C -1.92351 -0.688425 0.295634 0 CFG=1
M  V30 2 N -2.61197 -1.80669 -0.379486 0
M  V30 3 C -0.444505 -0.782265 0.0357447 0
M  V30 4 C 0.264198 0.317549 0.704561 0
M  V30 5 C 1.7578 0.311338 0.551573 0
M  V30 6 C 2.22922 0.398361 -0.859554 0
M  V30 7 N 3.67968 0.386319 -0.91446 0
M  V30 8 C -2.57675 0.549093 -0.112037 0
M  V30 9 O -2.40469 1.80107 0.451749 0
M  V30 10 O -3.41182 0.537524 -1.08841 0
M  V30 11 H -2.13314 -0.851307 1.38751 0
M  V30 12 H -2.29421 -2.70527 0.090161 0
M  V30 13 H -3.62119 -1.69518 -0.0841249 0
M  V30 14 H -0.129345 -1.80089 0.347075 0
M  V30 15 H -0.344724 -0.728395 -1.09155 0
M  V30 16 H -0.132663 1.29085 0.287515 0
M  V30 17 H 0.0231333 0.331488 1.78071 0
M  V30 18 H 2.20032 -0.584308 1.03075 0
M  V30 19 H 2.14408 1.18934 1.10985 0
M  V30 20 H 1.90109 -0.535203 -1.40328 0
M  V30 21 H 1.84968 1.2427 -1.42867 0
M  V30 22 H 4.03195 1.3779 -0.778726 0
M  V30 23 H 4.06645 -0.135557 -0.0753522 0
M  V30 24 H -2.11908 2.57995 -0.11 0
M  V30 END ATOM
M  V30 BEGIN BOND
M  V30 1 1 1 2
M  V30 2 1 1 3
M  V30 3 1 3 4
M  V30 4 1 4 5
M  V30 5 1 5 6
M  V30 6 1 6 7
M  V30 7 1 1 8
M  V30 8 1 8 9
M  V30 9 2 8 10
M  V30 10 1 1 11 CFG=1
M  V30 11 1 2 12
M  V30 12 1 2 13
M  V30 13 1 3 14
M  V30 14 1 3 15
M  V30 15 1 4 16
M  V30 16 1 4 17
M  V30 17 1 5 18
M  V30 18 1 5 19
M  V30 19 1 6 20
M  V30 20 1 6 21
M  V30 21 1 7 22
M  V30 22 1 7 23
M  V30 23 1 9 24
M  V30 END BOND
M  V30 END CTAB
M  END
