
     RDKit          3D

  0  0  0  0  0  0  0  0  0  0999 V3000
M  V30 BEGIN CTAB
M  V30 COUNTS 43 43 0 0 0
M  V30 BEGIN ATOM
M  V30 1 N 5.18577 -0.218943 1.66048 0
M  V30 2 C 4.95356 -0.73335 0.3752 0
M  V30 3 C 3.56877 -0.421998 -0.075929 0 CFG=2
M  V30 4 C 3.29015 1.06679 -0.136057 0
M  V30 5 C 1.99232 1.22033 -0.864963 0
M  V30 6 C 0.835635 0.534681 -0.189215 0 CFG=2
M  V30 7 C 1.14007 -0.765366 0.432096 0
M  V30 8 C 2.54469 -0.977247 0.892301 0
M  V30 9 C -0.361497 0.499872 -1.12341 0
M  V30 10 C -1.54465 -0.153386 -0.539002 0
M  V30 11 O -1.49428 -1.34601 -0.147191 0
M  V30 12 O -2.77271 0.477267 -0.379235 0
M  V30 13 C -3.90765 -0.1094 0.167611 0
M  V30 14 C -4.29476 -1.31086 -0.665144 0
M  V30 15 C -3.77832 -0.46431 1.62476 0
M  V30 16 C -5.06401 0.880254 0.0577782 0
M  V30 17 N -0.669963 1.8825 -1.5256 0
M  V30 18 H 5.83641 0.490693 1.72482 0
M  V30 19 H 4.90633 -0.811753 2.39546 0
M  V30 20 H 5.10614 -1.81901 0.31769 0
M  V30 21 H 5.66307 -0.235145 -0.33461 0
M  V30 22 H 3.37434 -0.872389 -1.0556 0
M  V30 23 H 4.07741 1.5451 -0.743688 0
M  V30 24 H 3.22584 1.50926 0.886736 0
M  V30 25 H 2.15377 0.814697 -1.89509 0
M  V30 26 H 1.8175 2.30828 -0.998956 0
M  V30 27 H 0.514755 1.23937 0.637986 0
M  V30 28 H 0.940751 -1.5739 -0.328325 0
M  V30 29 H 0.472017 -0.999951 1.28635 0
M  V30 30 H 2.74507 -0.494686 1.87195 0
M  V30 31 H 2.77916 -2.05362 1.02342 0
M  V30 32 H -0.0909249 -0.0209867 -2.08506 0
M  V30 33 H -3.89127 -1.15398 -1.68636 0
M  V30 34 H -5.40248 -1.44644 -0.700433 0
M  V30 35 H -3.79342 -2.22423 -0.264864 0
M  V30 36 H -4.81606 -0.602105 2.01454 0
M  V30 37 H -3.26775 -1.43909 1.78225 0
M  V30 38 H -3.33017 0.369783 2.16013 0
M  V30 39 H -4.9191 1.55882 -0.808474 0
M  V30 40 H -6.00449 0.322806 -0.141193 0
M  V30 41 H -5.16109 1.46413 1.01624 0
M  V30 42 H -1.21023 1.84311 -2.42058 0
M  V30 43 H -1.34872 2.22041 -0.784492 0
M  V30 END ATOM
M  V30 BEGIN BOND
M  V30 1 1 1 2
M  V30 2 1 2 3
M  V30 3 1 3 4
M  V30 4 1 4 5
M  V30 5 1 5 6
M  V30 6 1 6 7
M  V30 7 1 7 8
M  V30 8 1 6 9
M  V30 9 1 9 10
M  V30 10 2 10 11
M  V30 11 1 10 12
M  V30 12 1 12 13
M  V30 13 1 13 14
M  V30 14 1 13 15
M  V30 15 1 13 16
M  V30 16 1 9 17
M  V30 17 1 8 3
M  V30 18 1 1 18
M  V30 19 1 1 19
M  V30 20 1 2 20
M  V30 21 1 2 21
M  V30 22 1 3 22 CFG=3
M  V30 23 1 4 23
M  V30 24 1 4 24
M  V30 25 1 5 25
M  V30 26 1 5 26
M  V30 27 1 6 27 CFG=1
M  V30 28 1 7 28
M  V30 29 1 7 29
M  V30 30 1 8 30
M  V30 31 1 8 31
M  V30 32 1 9 32
M  V30 33 1 14 33
M  V30 34 1 14 34
M  V30 35 1 14 35
M  V30 36 1 15 36
M  V30 37 1 15 37
M  V30 38 1 15 38
M  V30 39 1 16 39
M  V30 40 1 16 40
M  V30 41 1 16 41
M  V30 42 1 17 42
M  V30 43 1 17 43
M  V30 END BOND
M  V30 END CTAB
M  END
