
     RDKit          3D

  0  0  0  0  0  0  0  0  0  0999 V3000
M  V30 BEGIN CTAB
M  V30 COUNTS 43 45 0 0 0
M  V30 BEGIN ATOM
M  V30 1 O 2.4724 1.93615 -0.927218 0
M  V30 2 C 2.00163 1.66165 -2.06548 0
M  V30 3 N 0.628239 1.5676 -2.27621 0
M  V30 4 C -0.266409 1.78771 -1.17493 0
M  V30 5 N 0.0010566 2.08066 0.0873414 0
M  V30 6 C -0.963337 2.2428 0.935502 0
M  V30 7 C -2.24802 2.09932 0.471958 0
M  V30 8 S -1.98048 1.73639 -1.17211 0
M  V30 9 S -3.73013 2.26735 1.40385 0
M  V30 10 O -4.58922 3.37202 0.89049 0
M  V30 11 O -3.38899 2.58173 2.83654 0
M  V30 12 C -4.64471 0.776845 1.36151 0
M  V30 13 C -4.46007 -0.199851 2.31061 0
M  V30 14 C -5.18858 -1.37954 2.27303 0
M  V30 15 C -6.12555 -1.6173 1.28256 0
M  V30 16 C -6.28343 -0.618559 0.350716 0
M  V30 17 C -5.57129 0.561236 0.367753 0
M  V30 18 N -6.89037 -2.80857 1.20836 0 CHG=1
M  V30 19 O -6.71823 -3.68405 2.06519 0
M  V30 20 O -7.79499 -2.94424 0.184573 0 CHG=-1
M  V30 21 C 2.92003 1.42879 -3.22637 0
M  V30 22 S 4.63079 1.61422 -2.69729 0
M  V30 23 C 5.0704 0.319779 -1.54053 0
M  V30 24 N 6.35321 0.363369 -1.0755 0
M  V30 25 C 6.76053 -0.579818 -0.197518 0
M  V30 26 N 8.09014 -0.575917 0.315584 0
M  V30 27 C 5.88856 -1.55927 0.211186 0
M  V30 28 C 4.60287 -1.58887 -0.265774 0
M  V30 29 N 4.21281 -0.628956 -1.14977 0
M  V30 30 N 3.71167 -2.60872 0.166638 0
M  V30 31 H 0.208437 1.34457 -3.1955 0
M  V30 32 H -0.770204 2.49028 2.00569 0
M  V30 33 H -3.72999 -0.0729873 3.12571 0
M  V30 34 H -5.05832 -2.16214 3.01089 0
M  V30 35 H -7.01512 -0.791205 -0.432408 0
M  V30 36 H -5.7473 1.31878 -0.409122 0
M  V30 37 H 2.72304 2.14682 -4.04708 0
M  V30 38 H 2.71902 0.402222 -3.5853 0
M  V30 39 H 8.47462 0.349059 0.634976 0
M  V30 40 H 8.66488 -1.45119 0.374661 0
M  V30 41 H 6.24869 -2.29521 0.912953 0
M  V30 42 H 2.68889 -2.47647 0.0761756 0
M  V30 43 H 4.09283 -3.48639 0.573676 0
M  V30 END ATOM
M  V30 BEGIN BOND
M  V30 1 2 1 2
M  V30 2 1 2 3
M  V30 3 1 3 4
M  V30 4 2 4 5
M  V30 5 1 5 6
M  V30 6 2 6 7
M  V30 7 1 7 8
M  V30 8 1 7 9
M  V30 9 2 9 10
M  V30 10 2 9 11
M  V30 11 1 9 12
M  V30 12 2 12 13
M  V30 13 1 13 14
M  V30 14 2 14 15
M  V30 15 1 15 16
M  V30 16 2 16 17
M  V30 17 1 15 18
M  V30 18 2 18 19
M  V30 19 1 18 20
M  V30 20 1 2 21
M  V30 21 1 21 22
M  V30 22 1 22 23
M  V30 23 2 23 24
M  V30 24 1 24 25
M  V30 25 1 25 26
M  V30 26 2 25 27
M  V30 27 1 27 28
M  V30 28 2 28 29
M  V30 29 1 28 30
M  V30 30 1 8 4
M  V30 31 1 17 12
M  V30 32 1 29 23
M  V30 33 1 3 31
M  V30 34 1 6 32
M  V30 35 1 13 33
M  V30 36 1 14 34
M  V30 37 1 16 35
M  V30 38 1 17 36
M  V30 39 1 21 37
M  V30 40 1 21 38
M  V30 41 1 26 39
M  V30 42 1 26 40
M  V30 43 1 27 41
M  V30 44 1 30 42
M  V30 45 1 30 43
M  V30 END BOND
M  V30 END CTAB
M  END
