
     RDKit          3D

  0  0  0  0  0  0  0  0  0  0999 V3000
M  V30 BEGIN CTAB
M  V30 COUNTS 48 51 0 0 0
M  V30 BEGIN ATOM
M  V30 1 N -6.95353 0.49961 -1.74571 0
M  V30 2 C -6.139 1.34135 -0.894911 0
M  V30 3 C -5.58865 0.616804 0.333044 0
M  V30 4 C -4.19826 1.02485 -0.0760246 0
M  V30 5 C -4.74082 1.57951 -1.37725 0
M  V30 6 C -3.25009 -0.0978372 -0.299381 0
M  V30 7 C -2.03629 -0.123503 0.331502 0
M  V30 8 C -1.11623 -1.14806 0.156953 0
M  V30 9 N 0.139656 -1.14784 0.827082 0
M  V30 10 C 1.03503 -2.24247 0.593987 0
M  V30 11 C 2.31904 -2.153 1.33729 0
M  V30 12 C 3.09793 -0.950687 1.00361 0
M  V30 13 N 4.30137 -0.676932 1.57087 0
M  V30 14 C 4.76854 0.474337 1.07651 0
M  V30 15 C 3.83917 0.941952 0.174121 0
M  V30 16 N 2.84054 0.0406029 0.164404 0
M  V30 17 C 4.09578 2.1374 -0.482458 0
M  V30 18 C 5.27212 2.82207 -0.213186 0
M  V30 19 C 6.20096 2.35143 0.690937 0
M  V30 20 C 5.95082 1.16158 1.34775 0
M  V30 21 C 6.91266 0.610091 2.32791 0
M  V30 22 N -1.47891 -2.13536 -0.677735 0
M  V30 23 C -2.66997 -2.15869 -1.32831 0
M  V30 24 N -3.53784 -1.12693 -1.12124 0
M  V30 25 N -2.98079 -3.2314 -2.19078 0
M  V30 26 H -6.67147 -0.508663 -1.65712 0
M  V30 27 H -6.90747 0.83188 -2.75034 0
M  V30 28 H -6.6503 2.28486 -0.583048 0
M  V30 29 H -5.92746 1.06729 1.30225 0
M  V30 30 H -5.81486 -0.45053 0.328973 0
M  V30 31 H -3.7942 1.76093 0.61785 0
M  V30 32 H -4.47436 2.65191 -1.5476 0
M  V30 33 H -4.44681 0.992047 -2.26696 0
M  V30 34 H -1.79141 0.686387 0.988121 0
M  V30 35 H 0.348601 -0.341624 1.46201 0
M  V30 36 H 1.21275 -2.30862 -0.494951 0
M  V30 37 H 0.521966 -3.18277 0.886022 0
M  V30 38 H 2.14591 -2.21195 2.43113 0
M  V30 39 H 2.93093 -3.04196 1.07714 0
M  V30 40 H 2.00256 0.142739 -0.430819 0
M  V30 41 H 3.37956 2.49945 -1.17902 0
M  V30 42 H 5.47528 3.75467 -0.723541 0
M  V30 43 H 7.12312 2.8561 0.923962 0
M  V30 44 H 6.91966 -0.508569 2.33544 0
M  V30 45 H 6.58843 0.896193 3.36844 0
M  V30 46 H 7.93429 0.979786 2.18007 0
M  V30 47 H -3.175 -3.06879 -3.19033 0
M  V30 48 H -3.01294 -4.18963 -1.8115 0
M  V30 END ATOM
M  V30 BEGIN BOND
M  V30 1 1 1 2
M  V30 2 1 2 3
M  V30 3 1 3 4
M  V30 4 1 4 5
M  V30 5 1 4 6
M  V30 6 2 6 7
M  V30 7 1 7 8
M  V30 8 1 8 9
M  V30 9 1 9 10
M  V30 10 1 10 11
M  V30 11 1 11 12
M  V30 12 2 12 13
M  V30 13 1 13 14
M  V30 14 2 14 15
M  V30 15 1 15 16
M  V30 16 1 15 17
M  V30 17 2 17 18
M  V30 18 1 18 19
M  V30 19 2 19 20
M  V30 20 1 20 21
M  V30 21 2 8 22
M  V30 22 1 22 23
M  V30 23 2 23 24
M  V30 24 1 23 25
M  V30 25 1 5 2
M  V30 26 1 24 6
M  V30 27 1 16 12
M  V30 28 1 20 14
M  V30 29 1 1 26
M  V30 30 1 1 27
M  V30 31 1 2 28
M  V30 32 1 3 29
M  V30 33 1 3 30
M  V30 34 1 4 31
M  V30 35 1 5 32
M  V30 36 1 5 33
M  V30 37 1 7 34
M  V30 38 1 9 35
M  V30 39 1 10 36
M  V30 40 1 10 37
M  V30 41 1 11 38
M  V30 42 1 11 39
M  V30 43 1 16 40
M  V30 44 1 17 41
M  V30 45 1 18 42
M  V30 46 1 19 43
M  V30 47 1 21 44
M  V30 48 1 21 45
M  V30 49 1 21 46
M  V30 50 1 25 47
M  V30 51 1 25 48
M  V30 END BOND
M  V30 END CTAB
M  END
