
     RDKit          3D

  0  0  0  0  0  0  0  0  0  0999 V3000
M  V30 BEGIN CTAB
M  V30 COUNTS 31 32 0 0 0
M  V30 BEGIN ATOM
M  V30 1 C 4.6263 -0.509037 0.773576 0
M  V30 2 C 3.20797 -0.138374 1.20671 0
M  V30 3 C 2.2568 -0.384308 0.0279977 0
M  V30 4 C 0.876515 -0.0350933 0.380013 0
M  V30 5 C -0.127834 -0.179213 -0.592543 0
M  V30 6 C 0.191888 -0.648638 -1.92625 0
M  V30 7 C -1.40255 0.162233 -0.18769 0
M  V30 8 C -2.45261 0.0616197 -1.03995 0
M  V30 9 N -2.31317 -0.386211 -2.35176 0
M  V30 10 N -3.71874 0.396694 -0.646234 0
M  V30 11 C -3.99093 0.83916 0.592365 0
M  V30 12 N -5.30103 1.18991 1.01136 0
M  V30 13 N -2.94027 0.935162 1.43124 0
M  V30 14 C -1.67722 0.618897 1.0946 0
M  V30 15 N -0.654 0.726543 1.96111 0
M  V30 16 C 0.616858 0.416214 1.65276 0
M  V30 17 H 4.98168 -1.37843 1.36011 0
M  V30 18 H 4.63495 -0.718391 -0.314427 0
M  V30 19 H 5.33675 0.310168 0.965626 0
M  V30 20 H 2.9473 -0.738171 2.08708 0
M  V30 21 H 3.22614 0.922988 1.49356 0
M  V30 22 H 2.59023 0.309313 -0.769294 0
M  V30 23 H 2.38991 -1.41127 -0.360153 0
M  V30 24 H -0.108866 -1.68056 -2.1943 0
M  V30 25 H 1.32547 -0.823624 -1.94503 0
M  V30 26 H 0.148876 0.0951982 -2.74884 0
M  V30 27 H -2.39374 -1.40282 -2.56323 0
M  V30 28 H -2.14301 0.26019 -3.13351 0
M  V30 29 H -6.07462 0.50764 1.00785 0
M  V30 30 H -5.47792 2.15725 1.3276 0
M  V30 31 H 1.41888 0.524962 2.39967 0
M  V30 END ATOM
M  V30 BEGIN BOND
M  V30 1 1 1 2
M  V30 2 1 2 3
M  V30 3 1 3 4
M  V30 4 2 4 5
M  V30 5 1 5 6
M  V30 6 1 5 7
M  V30 7 2 7 8
M  V30 8 1 8 9
M  V30 9 1 8 10
M  V30 10 2 10 11
M  V30 11 1 11 12
M  V30 12 1 11 13
M  V30 13 2 13 14
M  V30 14 1 14 15
M  V30 15 2 15 16
M  V30 16 1 16 4
M  V30 17 1 14 7
M  V30 18 1 1 17
M  V30 19 1 1 18
M  V30 20 1 1 19
M  V30 21 1 2 20
M  V30 22 1 2 21
M  V30 23 1 3 22
M  V30 24 1 3 23
M  V30 25 1 6 24
M  V30 26 1 6 25
M  V30 27 1 6 26
M  V30 28 1 9 27
M  V30 29 1 9 28
M  V30 30 1 12 29
M  V30 31 1 12 30
M  V30 32 1 16 31
M  V30 END BOND
M  V30 END CTAB
M  END
