
     RDKit          3D

  0  0  0  0  0  0  0  0  0  0999 V3000
M  V30 BEGIN CTAB
M  V30 COUNTS 32 32 0 0 0
M  V30 BEGIN ATOM
M  V30 1 C -2.58947 0.174938 1.50283 0
M  V30 2 C -2.51957 0.0244737 0.00878906 0
M  V30 3 C -1.24411 -0.684675 -0.358899 0
M  V30 4 N -0.103553 0.0712175 0.0950086 0
M  V30 5 C 1.22348 -0.374639 -0.122346 0
M  V30 6 N 1.47973 -1.52788 -0.764572 0
M  V30 7 C 2.72306 -1.97564 -0.985113 0
M  V30 8 C 3.80703 -1.25397 -0.551873 0
M  V30 9 C 3.62714 -0.0643759 0.112727 0
M  V30 10 C 2.30315 0.346792 0.310649 0
M  V30 11 N 2.0916 1.57543 0.996434 0
M  V30 12 N 4.68076 0.73396 0.588375 0
M  V30 13 C -3.71396 -0.843022 -0.397997 0
M  V30 14 C -2.67825 1.33555 -0.707205 0
M  V30 15 H -1.63606 0.386406 1.98675 0
M  V30 16 H -2.9468 -0.803901 1.91437 0
M  V30 17 H -3.3298 0.92541 1.83053 0
M  V30 18 H -1.20768 -1.66303 0.169961 0
M  V30 19 H -1.23864 -0.847712 -1.4557 0
M  V30 20 H -0.263625 0.965286 0.593766 0
M  V30 21 H 2.86243 -2.92851 -1.51759 0
M  V30 22 H 4.79261 -1.61854 -0.732106 0
M  V30 23 H 2.14869 1.67048 2.0232 0
M  V30 24 H 1.86608 2.42979 0.434133 0
M  V30 25 H 4.86878 0.800367 1.6015 0
M  V30 26 H 5.27042 1.25725 -0.0792657 0
M  V30 27 H -4.57024 -0.558205 0.25691 0
M  V30 28 H -3.47434 -1.90364 -0.318516 0
M  V30 29 H -3.99888 -0.600277 -1.43686 0
M  V30 30 H -1.95471 2.1017 -0.359743 0
M  V30 31 H -2.5642 1.14764 -1.79554 0
M  V30 32 H -3.71108 1.70133 -0.539057 0
M  V30 END ATOM
M  V30 BEGIN BOND
M  V30 1 1 1 2
M  V30 2 1 2 3
M  V30 3 1 3 4
M  V30 4 1 4 5
M  V30 5 2 5 6
M  V30 6 1 6 7
M  V30 7 2 7 8
M  V30 8 1 8 9
M  V30 9 2 9 10
M  V30 10 1 10 11
M  V30 11 1 9 12
M  V30 12 1 2 13
M  V30 13 1 2 14
M  V30 14 1 10 5
M  V30 15 1 1 15
M  V30 16 1 1 16
M  V30 17 1 1 17
M  V30 18 1 3 18
M  V30 19 1 3 19
M  V30 20 1 4 20
M  V30 21 1 7 21
M  V30 22 1 8 22
M  V30 23 1 11 23
M  V30 24 1 11 24
M  V30 25 1 12 25
M  V30 26 1 12 26
M  V30 27 1 13 27
M  V30 28 1 13 28
M  V30 29 1 13 29
M  V30 30 1 14 30
M  V30 31 1 14 31
M  V30 32 1 14 32
M  V30 END BOND
M  V30 END CTAB
M  END
