
     RDKit          3D

  0  0  0  0  0  0  0  0  0  0999 V3000
M  V30 BEGIN CTAB
M  V30 COUNTS 41 44 0 0 0
M  V30 BEGIN ATOM
M  V30 1 C 1.55077 -2.29132 -0.0365773 0
M  V30 2 C 2.10443 -0.980726 0.164114 0
M  V30 3 C 1.36911 0.19178 0.114751 0
M  V30 4 C 2.07962 1.35095 0.2985 0
M  V30 5 N 1.48961 2.61625 0.243547 0
M  V30 6 N 3.44268 1.33938 0.521262 0
M  V30 7 C 4.14096 0.204405 0.568693 0
M  V30 8 N 5.55261 0.211462 0.801551 0
M  V30 9 N 3.45777 -0.921427 0.389509 0
M  V30 10 C -0.0415129 0.137626 -0.113218 0
M  V30 11 C -0.472455 -0.479146 -1.40042 0
M  V30 12 C -1.93891 -0.801719 -1.44205 0
M  V30 13 C -2.69994 0.522641 -1.47609 0
M  V30 14 C -2.33552 1.20867 -0.203945 0
M  V30 15 C -2.87277 0.465253 0.953453 0
M  V30 16 C -2.09671 -0.864158 0.981142 0
M  V30 17 C -2.4215 -1.61016 -0.288116 0
M  V30 18 C -0.675447 -0.478439 1.15217 0
M  V30 19 C -0.816733 1.45928 -0.145967 0
M  V30 20 H 0.514332 -2.52198 0.0196243 0
M  V30 21 H 1.99879 -2.97463 0.775022 0
M  V30 22 H 2.03145 -2.8064 -0.951477 0
M  V30 23 H 1.2256 3.17217 1.11702 0
M  V30 24 H 1.26303 3.16178 -0.636017 0
M  V30 25 H 6.17503 0.377069 -0.00347092 0
M  V30 26 H 5.95765 0.0580845 1.73647 0
M  V30 27 H 0.0683325 -1.26765 -1.86151 0
M  V30 28 H -0.377856 0.377274 -2.16715 0
M  V30 29 H -2.13343 -1.30363 -2.42033 0
M  V30 30 H -2.3971 1.14916 -2.325 0
M  V30 31 H -3.76585 0.273871 -1.45723 0
M  V30 32 H -2.76905 2.23838 -0.175025 0
M  V30 33 H -3.92854 0.276231 0.798383 0
M  V30 34 H -2.62909 0.96361 1.91261 0
M  V30 35 H -2.39699 -1.48644 1.82073 0
M  V30 36 H -3.53323 -1.65666 -0.35256 0
M  V30 37 H -1.9777 -2.61023 -0.249929 0
M  V30 38 H -0.699998 0.409855 1.88953 0
M  V30 39 H -0.0325541 -1.15118 1.70802 0
M  V30 40 H -0.677927 2.02811 -1.07073 0
M  V30 41 H -0.730978 2.0126 0.81071 0
M  V30 END ATOM
M  V30 BEGIN BOND
M  V30 1 1 1 2
M  V30 2 2 2 3
M  V30 3 1 3 4
M  V30 4 1 4 5
M  V30 5 2 4 6
M  V30 6 1 6 7
M  V30 7 1 7 8
M  V30 8 2 7 9
M  V30 9 1 3 10
M  V30 10 1 10 11
M  V30 11 1 11 12
M  V30 12 1 12 13
M  V30 13 1 13 14
M  V30 14 1 14 15
M  V30 15 1 15 16
M  V30 16 1 16 17
M  V30 17 1 16 18
M  V30 18 1 14 19
M  V30 19 1 9 2
M  V30 20 1 18 10
M  V30 21 1 19 10
M  V30 22 1 17 12
M  V30 23 1 1 20
M  V30 24 1 1 21
M  V30 25 1 1 22
M  V30 26 1 5 23
M  V30 27 1 5 24
M  V30 28 1 8 25
M  V30 29 1 8 26
M  V30 30 1 11 27
M  V30 31 1 11 28
M  V30 32 1 12 29
M  V30 33 1 13 30
M  V30 34 1 13 31
M  V30 35 1 14 32
M  V30 36 1 15 33
M  V30 37 1 15 34
M  V30 38 1 16 35
M  V30 39 1 17 36
M  V30 40 1 17 37
M  V30 41 1 18 38
M  V30 42 1 18 39
M  V30 43 1 19 40
M  V30 44 1 19 41
M  V30 END BOND
M  V30 END CTAB
M  END
