
     RDKit          3D

  0  0  0  0  0  0  0  0  0  0999 V3000
M  V30 BEGIN CTAB
M  V30 COUNTS 33 33 0 0 0
M  V30 BEGIN ATOM
M  V30 1 N -3.10694 -1.32551 0.696305 0
M  V30 2 C -2.70048 0.0463345 0.812083 0
M  V30 3 C -1.24772 0.224215 0.402821 0
M  V30 4 C -0.363287 -0.60371 1.27877 0
M  V30 5 C 1.00572 -0.835877 0.77225 0
M  V30 6 C 1.17168 -0.817298 -0.713442 0
M  V30 7 C 0.339091 0.225347 -1.40966 0
M  V30 8 C -1.11975 -0.0960512 -1.05513 0
M  V30 9 N 2.57018 -0.62769 -1.00332 0
M  V30 10 C 3.33569 0.471924 -0.610121 0
M  V30 11 N 4.34428 0.297609 0.367803 0
M  V30 12 N 3.15781 1.64186 -1.10534 0
M  V30 13 C -3.52355 0.866995 -0.122033 0
M  V30 14 O -3.36834 2.24072 -0.242976 0
M  V30 15 O -4.41691 0.334768 -0.859345 0
M  V30 16 H -4.0328 -1.38517 0.227241 0
M  V30 17 H -2.43135 -1.95425 0.243792 0
M  V30 18 H -2.87362 0.459712 1.84214 0
M  V30 19 H -0.926673 1.28634 0.528166 0
M  V30 20 H -0.901644 -1.54202 1.52582 0
M  V30 21 H -0.285294 -0.0552445 2.26438 0
M  V30 22 H 1.72854 -0.127703 1.23111 0
M  V30 23 H 1.33527 -1.85401 1.1196 0
M  V30 24 H 0.863382 -1.79603 -1.13053 0
M  V30 25 H 0.590738 1.24934 -1.13999 0
M  V30 26 H 0.42816 0.0405321 -2.50136 0
M  V30 27 H -1.81699 0.531924 -1.62415 0
M  V30 28 H -1.26469 -1.16679 -1.22832 0
M  V30 29 H 3.06783 -1.3706 -1.55577 0
M  V30 30 H 4.22646 -0.348464 1.19571 0
M  V30 31 H 5.25854 0.800463 0.319986 0
M  V30 32 H 3.71134 2.47914 -0.832973 0
M  V30 33 H -2.7547 2.70919 0.411644 0
M  V30 END ATOM
M  V30 BEGIN BOND
M  V30 1 1 1 2
M  V30 2 1 2 3
M  V30 3 1 3 4
M  V30 4 1 4 5
M  V30 5 1 5 6
M  V30 6 1 6 7
M  V30 7 1 7 8
M  V30 8 1 6 9
M  V30 9 1 9 10
M  V30 10 1 10 11
M  V30 11 2 10 12 CFG=2
M  V30 12 1 2 13
M  V30 13 1 13 14
M  V30 14 2 13 15
M  V30 15 1 8 3
M  V30 16 1 1 16
M  V30 17 1 1 17
M  V30 18 1 2 18
M  V30 19 1 3 19
M  V30 20 1 4 20
M  V30 21 1 4 21
M  V30 22 1 5 22
M  V30 23 1 5 23
M  V30 24 1 6 24
M  V30 25 1 7 25
M  V30 26 1 7 26
M  V30 27 1 8 27
M  V30 28 1 8 28
M  V30 29 1 9 29
M  V30 30 1 11 30
M  V30 31 1 11 31
M  V30 32 1 12 32
M  V30 33 1 14 33
M  V30 END BOND
M  V30 END CTAB
M  END
