
     RDKit          3D

  0  0  0  0  0  0  0  0  0  0999 V3000
M  V30 BEGIN CTAB
M  V30 COUNTS 101 106 0 0 0
M  V30 BEGIN ATOM
M  V30 1 N 3.17025 -4.15654 0.587829 0
M  V30 2 C 2.84573 -3.05606 0.699968 0
M  V30 3 C 2.43256 -1.68608 0.831436 0
M  V30 4 C 3.36679 -0.662234 0.887469 0
M  V30 5 C 3.01915 0.659987 1.02406 0
M  V30 6 C 1.62582 0.921035 1.1085 0
M  V30 7 C 0.705336 -0.0921615 1.05141 0
M  V30 8 C 1.09925 -1.41849 0.909933 0
M  V30 9 C 0.0178774 -2.46376 0.819002 0
M  V30 10 C -1.25075 -1.78542 0.425691 0
M  V30 11 C -2.24476 -1.57617 1.34028 0
M  V30 12 C -3.40332 -0.857816 1.00814 0
M  V30 13 C -3.54407 -0.348916 -0.279773 0
M  V30 14 C -2.50547 -0.595873 -1.17453 0
M  V30 15 C -1.36861 -1.29816 -0.858249 0
M  V30 16 C -0.347411 -1.47546 -1.84753 0
M  V30 17 N 0.498365 -1.63664 -2.65901 0
M  V30 18 N -4.60566 0.503944 -0.645649 0
M  V30 19 C -5.10734 0.673096 -1.92982 0
M  V30 20 O -4.69454 0.0261434 -2.90856 0
M  V30 21 C -6.19372 1.70981 -2.13926 0
M  V30 22 S -6.66985 2.45466 -0.59851 0
M  V30 23 C -7.79121 1.50948 0.380677 0
M  V30 24 N -7.89852 1.75125 1.64755 0
M  V30 25 C -8.83969 0.967584 2.38012 0
M  V30 26 N -9.5703 0.0805702 1.83789 0
M  V30 27 C -9.55652 -0.239116 0.467216 0
M  V30 28 N -8.44641 0.41265 -0.199105 0
M  V30 29 C -10.798 0.223296 -0.259178 0
M  V30 30 C -11.1463 1.55136 -0.184841 0
M  V30 31 C -12.2493 2.02042 -0.905978 0
M  V30 32 C -13.0039 1.20553 -1.6875 0
M  V30 33 C -12.668 -0.144997 -1.77124 0
M  V30 34 C -11.5493 -0.599925 -1.03951 0
M  V30 35 O -11.2733 -1.94027 -1.16688 0
M  V30 36 C -11.873 -2.91109 -0.313852 0
M  V30 37 O -13.3909 -0.985991 -2.52034 0
M  V30 38 C -14.4085 -1.05347 -3.3686 0
M  V30 39 N -9.01441 1.15491 3.796 0
M  V30 40 N 3.9062 1.71526 0.989094 0
M  V30 41 C 4.74711 2.71665 0.957654 0
M  V30 42 O 4.98478 3.57286 1.92316 0
M  V30 43 C 5.61382 3.06981 -0.264739 0
M  V30 44 S 7.33099 3.06896 0.204299 0
M  V30 45 C 7.94856 1.42993 0.434886 0
M  V30 46 N 7.25775 0.408442 0.0593479 0
M  V30 47 C 7.72002 -0.924248 0.239519 0
M  V30 48 N 8.84836 -1.14076 0.80044 0
M  V30 49 C 9.72514 -0.0649817 1.28951 0
M  V30 50 N 9.27629 1.20833 0.957822 0
M  V30 51 C 11.1129 -0.461168 1.04984 0
M  V30 52 C 11.432 -1.74517 1.57087 0
M  V30 53 C 12.6858 -2.23665 1.47764 0
M  V30 54 C 13.7129 -1.54315 0.885979 0
M  V30 55 C 13.4113 -0.297057 0.37934 0
M  V30 56 C 12.1176 0.238845 0.460801 0
M  V30 57 O 11.9084 1.50566 -0.0874416 0
M  V30 58 C 11.6307 1.54967 -1.49932 0
M  V30 59 O 14.3492 0.488653 -0.229777 0
M  V30 60 C 15.6857 0.188864 -0.44797 0
M  V30 61 N 6.93548 -2.03649 -0.236127 0
M  V30 62 H 4.42699 -0.87504 0.818879 0
M  V30 63 H 1.36521 1.97322 1.21473 0
M  V30 64 H -0.340666 0.126005 1.10758 0
M  V30 65 H 0.250079 -3.24944 0.0947472 0
M  V30 66 H -0.10091 -2.94765 1.81483 0
M  V30 67 H -2.20446 -1.94135 2.36402 0
M  V30 68 H -4.1998 -0.669938 1.69278 0
M  V30 69 H -2.53637 -0.226531 -2.19441 0
M  V30 70 H -5.05467 1.05799 0.152758 0
M  V30 71 H -6.99201 1.21225 -2.68575 0
M  V30 72 H -5.76957 2.49013 -2.79947 0
M  V30 73 H -9.50457 -1.36064 0.321016 0
M  V30 74 H -8.14509 0.0137224 -1.14294 0
M  V30 75 H -10.5665 2.21217 0.43269 0
M  V30 76 H -12.4682 3.06653 -0.811597 0
M  V30 77 H -13.8704 1.58209 -2.25133 0
M  V30 78 H -11.1747 -3.75934 -0.229661 0
M  V30 79 H -12.8147 -3.28252 -0.815309 0
M  V30 80 H -12.1458 -2.47356 0.669197 0
M  V30 81 H -14.3356 -2.02959 -3.9599 0
M  V30 82 H -14.4351 -0.235759 -4.16394 0
M  V30 83 H -15.415 -1.01568 -2.87341 0
M  V30 84 H -9.27888 0.333377 4.36607 0
M  V30 85 H -8.87528 2.08728 4.20576 0
M  V30 86 H 3.60406 1.95378 2.30508 0
M  V30 87 H 5.33487 4.12379 -0.541365 0
M  V30 88 H 5.39691 2.36858 -1.09652 0
M  V30 89 H 9.61537 -0.131101 2.45906 0
M  V30 90 H 9.84734 2.08927 1.05794 0
M  V30 91 H 10.6685 -2.33632 2.04828 0
M  V30 92 H 12.9059 -3.2264 1.89818 0
M  V30 93 H 14.7062 -1.95352 0.826448 0
M  V30 94 H 10.5615 1.69464 -1.67733 0
M  V30 95 H 12.2195 2.38766 -1.94628 0
M  V30 96 H 12.0283 0.604378 -1.96189 0
M  V30 97 H 16.3383 0.973491 0.040216 0
M  V30 98 H 16.0233 -0.758428 -0.0386824 0
M  V30 99 H 15.8854 0.241272 -1.55159 0
M  V30 100 H 7.31285 -2.99961 -0.0951728 0
M  V30 101 H 6.02865 -1.84883 -0.713773 0
M  V30 END ATOM
M  V30 BEGIN BOND
M  V30 1 3 1 2
M  V30 2 1 2 3
M  V30 3 2 3 4
M  V30 4 1 4 5
M  V30 5 2 5 6
M  V30 6 1 6 7
M  V30 7 2 7 8
M  V30 8 1 8 9
M  V30 9 1 9 10
M  V30 10 2 10 11
M  V30 11 1 11 12
M  V30 12 2 12 13
M  V30 13 1 13 14
M  V30 14 2 14 15
M  V30 15 1 15 16
M  V30 16 3 16 17
M  V30 17 1 13 18
M  V30 18 1 18 19
M  V30 19 2 19 20
M  V30 20 1 19 21
M  V30 21 1 21 22
M  V30 22 1 22 23
M  V30 23 2 23 24
M  V30 24 1 24 25
M  V30 25 2 25 26
M  V30 26 1 26 27
M  V30 27 1 27 28
M  V30 28 1 27 29
M  V30 29 2 29 30
M  V30 30 1 30 31
M  V30 31 2 31 32
M  V30 32 1 32 33
M  V30 33 2 33 34
M  V30 34 1 34 35
M  V30 35 1 35 36
M  V30 36 1 33 37
M  V30 37 1 37 38
M  V30 38 1 25 39
M  V30 39 1 5 40
M  V30 40 1 40 41
M  V30 41 2 41 42
M  V30 42 1 41 43
M  V30 43 1 43 44
M  V30 44 1 44 45
M  V30 45 2 45 46
M  V30 46 1 46 47
M  V30 47 2 47 48
M  V30 48 1 48 49
M  V30 49 1 49 50
M  V30 50 1 49 51
M  V30 51 2 51 52
M  V30 52 1 52 53
M  V30 53 2 53 54
M  V30 54 1 54 55
M  V30 55 2 55 56
M  V30 56 1 56 57
M  V30 57 1 57 58
M  V30 58 1 55 59
M  V30 59 1 59 60
M  V30 60 1 47 61
M  V30 61 1 8 3
M  V30 62 1 15 10
M  V30 63 1 28 23
M  V30 64 1 34 29
M  V30 65 1 50 45
M  V30 66 1 56 51
M  V30 67 1 4 62
M  V30 68 1 6 63
M  V30 69 1 7 64
M  V30 70 1 9 65
M  V30 71 1 9 66
M  V30 72 1 11 67
M  V30 73 1 12 68
M  V30 74 1 14 69
M  V30 75 1 18 70
M  V30 76 1 21 71
M  V30 77 1 21 72
M  V30 78 1 27 73
M  V30 79 1 28 74
M  V30 80 1 30 75
M  V30 81 1 31 76
M  V30 82 1 32 77
M  V30 83 1 36 78
M  V30 84 1 36 79
M  V30 85 1 36 80
M  V30 86 1 38 81
M  V30 87 1 38 82
M  V30 88 1 38 83
M  V30 89 1 39 84
M  V30 90 1 39 85
M  V30 91 1 40 86
M  V30 92 1 43 87
M  V30 93 1 43 88
M  V30 94 1 49 89
M  V30 95 1 50 90
M  V30 96 1 52 91
M  V30 97 1 53 92
M  V30 98 1 54 93
M  V30 99 1 58 94
M  V30 100 1 58 95
M  V30 101 1 58 96
M  V30 102 1 60 97
M  V30 103 1 60 98
M  V30 104 1 60 99
M  V30 105 1 61 100
M  V30 106 1 61 101
M  V30 END BOND
M  V30 END CTAB
M  END
