
     RDKit          3D

  0  0  0  0  0  0  0  0  0  0999 V3000
M  V30 BEGIN CTAB
M  V30 COUNTS 26 26 0 0 0
M  V30 BEGIN ATOM
M  V30 1 N 1.95937 0.689809 -1.75772 0
M  V30 2 C 2.0452 0.202522 -0.426407 0
M  V30 3 C 0.873724 -0.114707 0.221791 0
M  V30 4 N -0.346876 0.057448 -0.460398 0
M  V30 5 C -1.56665 -0.277356 0.22664 0
M  V30 6 C -2.79341 -0.0423539 -0.626278 0
M  V30 7 C -4.00202 -0.43737 0.225358 0
M  V30 8 O -3.97876 0.378324 1.34439 0
M  V30 9 N 0.943049 -0.579133 1.48841 0
M  V30 10 C 2.11182 -0.743806 2.14121 0
M  V30 11 N 3.23782 -0.424271 1.47869 0
M  V30 12 C 3.26818 0.0408523 0.227932 0
M  V30 13 N 4.43698 0.377459 -0.473089 0
M  V30 14 H 1.53066 1.62644 -1.99616 0
M  V30 15 H 2.31349 0.156101 -2.58816 0
M  V30 16 H -0.383037 0.412295 -1.42509 0
M  V30 17 H -1.70932 0.330695 1.15626 0
M  V30 18 H -1.57227 -1.34491 0.543941 0
M  V30 19 H -2.91317 1.00372 -0.919181 0
M  V30 20 H -2.82344 -0.730426 -1.50641 0
M  V30 21 H -4.94123 -0.283283 -0.345224 0
M  V30 22 H -3.90664 -1.48492 0.578981 0
M  V30 23 H -3.61749 1.28705 1.15115 0
M  V30 24 H 2.14536 -1.11961 3.16209 0
M  V30 25 H 4.80833 1.35506 -0.343344 0
M  V30 26 H 4.88034 -0.335639 -1.07938 0
M  V30 END ATOM
M  V30 BEGIN BOND
M  V30 1 1 1 2
M  V30 2 2 2 3
M  V30 3 1 3 4
M  V30 4 1 4 5
M  V30 5 1 5 6
M  V30 6 1 6 7
M  V30 7 1 7 8
M  V30 8 1 3 9
M  V30 9 2 9 10
M  V30 10 1 10 11
M  V30 11 2 11 12
M  V30 12 1 12 13
M  V30 13 1 12 2
M  V30 14 1 1 14
M  V30 15 1 1 15
M  V30 16 1 4 16
M  V30 17 1 5 17
M  V30 18 1 5 18
M  V30 19 1 6 19
M  V30 20 1 6 20
M  V30 21 1 7 21
M  V30 22 1 7 22
M  V30 23 1 8 23
M  V30 24 1 10 24
M  V30 25 1 13 25
M  V30 26 1 13 26
M  V30 END BOND
M  V30 END CTAB
M  END
