
     RDKit          3D

  0  0  0  0  0  0  0  0  0  0999 V3000
M  V30 BEGIN CTAB
M  V30 COUNTS 62 64 0 0 0
M  V30 BEGIN ATOM
M  V30 1 C -0.22718 -5.25614 -0.162226 0
M  V30 2 O 0.384822 -4.30169 -0.977522 0
M  V30 3 C 0.398363 -3.04982 -0.323255 0
M  V30 4 C 1.05639 -2.069 -1.26488 0
M  V30 5 N 1.1083 -0.739386 -0.693771 0
M  V30 6 C 2.1756 -0.415399 0.204437 0
M  V30 7 C 2.02892 -0.292176 1.56407 0
M  V30 8 O 0.870713 -0.461393 2.07575 0
M  V30 9 N 3.04891 -0.00666113 2.34822 0
M  V30 10 C 4.29891 0.175505 1.80358 0
M  V30 11 O 5.23021 0.438919 2.61994 0
M  V30 12 N 4.49835 0.0707383 0.497587 0
M  V30 13 C 3.43226 -0.228 -0.319183 0
M  V30 14 N 3.68047 -0.332938 -1.7252 0
M  V30 15 C 5.78213 0.284403 -0.130724 0
M  V30 16 C 5.90469 1.65052 -0.664978 0
M  V30 17 C 5.91853 2.81837 0.239894 0
M  V30 18 C 7.11268 2.90075 1.16767 0
M  V30 19 C 0.0987607 0.191409 -0.940736 0
M  V30 20 O 0.0121935 1.18206 -0.132894 0
M  V30 21 C -0.890537 0.182542 -2.03936 0
M  V30 22 S -2.22084 -0.978978 -1.89889 0
M  V30 23 C -3.33354 -0.631523 -0.563672 0
M  V30 24 N -3.28892 -1.00081 0.719417 0
M  V30 25 N -4.351 -0.549285 1.3541 0
M  V30 26 C -5.14392 0.148959 0.475413 0
M  V30 27 N -4.495 0.0799435 -0.681785 0
M  V30 28 N -4.90595 0.645462 -1.88786 0
M  V30 29 C -6.40119 0.770592 0.86254 0
M  V30 30 C -7.24685 1.42758 0.0154326 0
M  V30 31 C -8.44037 1.99301 0.488011 0
M  V30 32 C -8.80623 1.91147 1.81084 0
M  V30 33 C -7.95628 1.25381 2.65483 0
M  V30 34 C -6.78582 0.699498 2.18638 0
M  V30 35 F -9.96703 2.46524 2.26562 0
M  V30 36 H -1.27351 -4.99097 0.0805324 0
M  V30 37 H -0.236748 -6.20804 -0.714879 0
M  V30 38 H 0.355286 -5.42857 0.776773 0
M  V30 39 H -0.590217 -2.73399 -0.0571847 0
M  V30 40 H 0.992099 -3.14834 0.626583 0
M  V30 41 H 0.418366 -2.07418 -2.20058 0
M  V30 42 H 2.043 -2.41853 -1.61793 0
M  V30 43 H 2.93198 0.0852945 3.37902 0
M  V30 44 H 4.20372 -1.17813 -2.03642 0
M  V30 45 H 3.35515 0.396895 -2.40655 0
M  V30 46 H 5.87038 -0.436145 -0.98022 0
M  V30 47 H 6.56717 0.0425587 0.622261 0
M  V30 48 H 6.80689 1.70919 -1.35735 0
M  V30 49 H 5.04749 1.83281 -1.39333 0
M  V30 50 H 4.96426 2.86193 0.817351 0
M  V30 51 H 5.91237 3.7349 -0.383186 0
M  V30 52 H 7.52671 1.88509 1.33722 0
M  V30 53 H 7.86054 3.58582 0.740128 0
M  V30 54 H 6.78125 3.29815 2.13746 0
M  V30 55 H -1.2303 1.22996 -2.25326 0
M  V30 56 H -0.299556 -0.109207 -2.96906 0
M  V30 57 H -4.54903 1.5695 -2.17529 0
M  V30 58 H -5.56904 0.139744 -2.49267 0
M  V30 59 H -7.02098 1.5235 -1.01645 0
M  V30 60 H -9.07778 2.50194 -0.22389 0
M  V30 61 H -8.20437 1.16098 3.70527 0
M  V30 62 H -6.16568 0.190258 2.93336 0
M  V30 END ATOM
M  V30 BEGIN BOND
M  V30 1 1 1 2
M  V30 2 1 2 3
M  V30 3 1 3 4
M  V30 4 1 4 5
M  V30 5 1 5 6
M  V30 6 1 6 7
M  V30 7 2 7 8
M  V30 8 1 7 9
M  V30 9 1 9 10
M  V30 10 2 10 11
M  V30 11 1 10 12
M  V30 12 1 12 13
M  V30 13 1 13 14
M  V30 14 1 12 15
M  V30 15 1 15 16
M  V30 16 1 16 17
M  V30 17 1 17 18
M  V30 18 1 5 19
M  V30 19 2 19 20
M  V30 20 1 19 21
M  V30 21 1 21 22
M  V30 22 1 22 23
M  V30 23 2 23 24
M  V30 24 1 24 25
M  V30 25 2 25 26
M  V30 26 1 26 27
M  V30 27 1 27 28
M  V30 28 1 26 29
M  V30 29 2 29 30
M  V30 30 1 30 31
M  V30 31 2 31 32
M  V30 32 1 32 33
M  V30 33 2 33 34
M  V30 34 1 32 35
M  V30 35 2 13 6
M  V30 36 1 27 23
M  V30 37 1 34 29
M  V30 38 1 1 36
M  V30 39 1 1 37
M  V30 40 1 1 38
M  V30 41 1 3 39
M  V30 42 1 3 40
M  V30 43 1 4 41
M  V30 44 1 4 42
M  V30 45 1 9 43
M  V30 46 1 14 44
M  V30 47 1 14 45
M  V30 48 1 15 46
M  V30 49 1 15 47
M  V30 50 1 16 48
M  V30 51 1 16 49
M  V30 52 1 17 50
M  V30 53 1 17 51
M  V30 54 1 18 52
M  V30 55 1 18 53
M  V30 56 1 18 54
M  V30 57 1 21 55
M  V30 58 1 21 56
M  V30 59 1 28 57
M  V30 60 1 28 58
M  V30 61 1 30 59
M  V30 62 1 31 60
M  V30 63 1 33 61
M  V30 64 1 34 62
M  V30 END BOND
M  V30 END CTAB
M  END
