
     RDKit          3D

  0  0  0  0  0  0  0  0  0  0999 V3000
M  V30 BEGIN CTAB
M  V30 COUNTS 81 85 0 0 0
M  V30 BEGIN ATOM
M  V30 1 N 5.72162 -1.52757 4.24469 0
M  V30 2 C 5.61968 -0.841738 3.00877 0
M  V30 3 C 5.04195 -1.39368 1.89141 0
M  V30 4 C 4.94953 -0.71128 0.691631 0
M  V30 5 C 4.32538 -1.36372 -0.461213 0
M  V30 6 O 3.16889 -0.820415 -0.938447 0
M  V30 7 C 2.12876 -0.76402 -0.033405 0 CFG=2
M  V30 8 C 1.17661 -1.86809 -0.383556 0 CFG=2
M  V30 9 O 0.631207 -1.86631 -1.62706 0
M  V30 10 C 0.190692 -2.22808 0.714861 0 CFG=1
M  V30 11 O 0.777214 -2.08676 1.91419 0
M  V30 12 C -1.1091 -1.55519 0.433963 0 CFG=1
M  V30 13 O -2.23269 -2.25768 0.736942 0
M  V30 14 C -2.98534 -2.90395 -0.121253 0
M  V30 15 C -3.5329 -2.05394 -1.20595 0
M  V30 16 C -4.63417 -1.20842 -1.02989 0
M  V30 17 C -5.15225 -0.433995 -2.02416 0
M  V30 18 N -6.27437 0.388958 -1.73889 0
M  V30 19 C -4.59595 -0.454926 -3.27006 0
M  V30 20 C -3.51556 -1.27387 -3.4762 0
M  V30 21 C -3.00289 -2.0462 -2.47723 0
M  V30 22 C -1.21424 -0.102441 0.73553 0 CFG=1
M  V30 23 C -2.27871 0.0698872 1.80153 0
M  V30 24 C -2.57228 1.42029 2.22884 0
M  V30 25 C -3.34354 2.227 1.41835 0
M  V30 26 C -3.69091 3.5147 1.80381 0
M  V30 27 C -3.26052 4.00572 3.02089 0
M  V30 28 C -2.49663 3.21741 3.83556 0
M  V30 29 C -2.16195 1.93291 3.42887 0
M  V30 30 S 0.178696 0.775385 1.15916 0
M  V30 31 O 0.50331 0.582357 2.62245 0
M  V30 32 O -0.142548 2.24957 1.09359 0
M  V30 33 C 1.62706 0.588166 0.149158 0 CFG=2
M  V30 34 C 1.762 1.61337 -0.927984 0
M  V30 35 C 1.20409 1.46758 -2.23159 0
M  V30 36 C 1.88869 1.00528 -3.34032 0
M  V30 37 C 1.32197 0.869233 -4.57617 0
M  V30 38 C 0.0227182 1.19146 -4.78022 0
M  V30 39 C -0.711235 1.65553 -3.7271 0
M  V30 40 C -0.112538 1.783 -2.48631 0
M  V30 41 C 5.45156 0.555023 0.616214 0
M  V30 42 C 6.04068 1.12564 1.74338 0
M  V30 43 C 6.12572 0.436603 2.93043 0
M  V30 44 H 4.80435 -1.69674 4.74862 0
M  V30 45 H 6.61473 -1.85309 4.65271 0
M  V30 46 H 4.64728 -2.40848 1.9696 0
M  V30 47 H 5.07761 -1.46202 -1.29126 0
M  V30 48 H 4.11067 -2.43996 -0.1662 0
M  V30 49 H 2.59238 -1.17353 0.931674 0
M  V30 50 H 1.85299 -2.79494 -0.417958 0
M  V30 51 H 0.724368 -2.64227 -2.1826 0
M  V30 52 H -0.0596876 -3.34463 0.625156 0
M  V30 53 H 0.210885 -2.40475 2.6629 0
M  V30 54 H -1.14282 -1.64331 -0.712216 0
M  V30 55 H -3.9103 -3.27173 0.433505 0
M  V30 56 H -2.60007 -3.82962 -0.589287 0
M  V30 57 H -5.09529 -1.17252 -0.0510589 0
M  V30 58 H -6.14321 1.30933 -1.26792 0
M  V30 59 H -7.2212 0.0843151 -1.99365 0
M  V30 60 H -4.98924 0.153042 -4.08008 0
M  V30 61 H -3.08036 -1.27689 -4.48696 0
M  V30 62 H -2.15062 -2.67197 -2.69711 0
M  V30 63 H -1.69772 0.43482 -0.158056 0
M  V30 64 H -1.82362 -0.500596 2.68974 0
M  V30 65 H -3.1868 -0.53851 1.58872 0
M  V30 66 H -3.72166 1.91616 0.44966 0
M  V30 67 H -4.28991 4.16309 1.18983 0
M  V30 68 H -3.53324 5.02506 3.33026 0
M  V30 69 H -2.14412 3.58552 4.80279 0
M  V30 70 H -1.57952 1.37905 4.16068 0
M  V30 71 H 2.39589 1.03973 0.896226 0
M  V30 72 H 2.85142 1.9394 -1.07169 0
M  V30 73 H 1.32671 2.56693 -0.47232 0
M  V30 74 H 2.93225 0.736746 -3.26749 0
M  V30 75 H 1.90526 0.504031 -5.4012 0
M  V30 76 H -0.449993 1.09065 -5.75489 0
M  V30 77 H -1.76471 1.91737 -3.89112 0
M  V30 78 H -0.740835 2.15625 -1.69689 0
M  V30 79 H 5.41168 1.14642 -0.295032 0
M  V30 80 H 6.4356 2.13458 1.66972 0
M  V30 81 H 6.59312 0.930269 3.776 0
M  V30 END ATOM
M  V30 BEGIN BOND
M  V30 1 1 1 2
M  V30 2 2 2 3
M  V30 3 1 3 4
M  V30 4 1 4 5
M  V30 5 1 5 6
M  V30 6 1 6 7
M  V30 7 1 7 8
M  V30 8 1 8 9
M  V30 9 1 8 10
M  V30 10 1 10 11
M  V30 11 1 10 12
M  V30 12 1 12 13
M  V30 13 1 13 14
M  V30 14 1 14 15
M  V30 15 2 15 16
M  V30 16 1 16 17
M  V30 17 1 17 18
M  V30 18 2 17 19
M  V30 19 1 19 20
M  V30 20 2 20 21
M  V30 21 1 12 22
M  V30 22 1 22 23
M  V30 23 1 23 24
M  V30 24 2 24 25
M  V30 25 1 25 26
M  V30 26 2 26 27
M  V30 27 1 27 28
M  V30 28 2 28 29
M  V30 29 1 22 30
M  V30 30 2 30 31
M  V30 31 2 30 32
M  V30 32 1 30 33
M  V30 33 1 33 34
M  V30 34 1 34 35
M  V30 35 2 35 36
M  V30 36 1 36 37
M  V30 37 2 37 38
M  V30 38 1 38 39
M  V30 39 2 39 40
M  V30 40 2 4 41
M  V30 41 1 41 42
M  V30 42 2 42 43
M  V30 43 1 43 2
M  V30 44 1 33 7
M  V30 45 1 40 35
M  V30 46 1 21 15
M  V30 47 1 29 24
M  V30 48 1 1 44
M  V30 49 1 1 45
M  V30 50 1 3 46
M  V30 51 1 5 47
M  V30 52 1 5 48
M  V30 53 1 7 49 CFG=1
M  V30 54 1 8 50 CFG=3
M  V30 55 1 9 51
M  V30 56 1 10 52 CFG=3
M  V30 57 1 11 53
M  V30 58 1 12 54 CFG=3
M  V30 59 1 14 55
M  V30 60 1 14 56
M  V30 61 1 16 57
M  V30 62 1 18 58
M  V30 63 1 18 59
M  V30 64 1 19 60
M  V30 65 1 20 61
M  V30 66 1 21 62
M  V30 67 1 22 63 CFG=3
M  V30 68 1 23 64
M  V30 69 1 23 65
M  V30 70 1 25 66
M  V30 71 1 26 67
M  V30 72 1 27 68
M  V30 73 1 28 69
M  V30 74 1 29 70
M  V30 75 1 33 71 CFG=1
M  V30 76 1 34 72
M  V30 77 1 34 73
M  V30 78 1 36 74
M  V30 79 1 37 75
M  V30 80 1 38 76
M  V30 81 1 39 77
M  V30 82 1 40 78
M  V30 83 1 41 79
M  V30 84 1 42 80
M  V30 85 1 43 81
M  V30 END BOND
M  V30 END CTAB
M  END
