
     RDKit          3D

  0  0  0  0  0  0  0  0  0  0999 V3000
M  V30 BEGIN CTAB
M  V30 COUNTS 30 31 0 0 0
M  V30 BEGIN ATOM
M  V30 1 N -1.85901 -1.55841 0.990641 0
M  V30 2 C -2.53041 -0.510295 0.338201 0
M  V30 3 C -1.85179 0.291906 -0.551408 0
M  V30 4 C -0.411571 0.127618 -0.867209 0
M  V30 5 C 0.446457 0.702952 0.235915 0
M  V30 6 C 1.8789 0.568652 -0.0256919 0
M  V30 7 C 2.53481 -0.625896 0.167636 0
M  V30 8 N 1.80096 -1.73362 0.644581 0
M  V30 9 C 3.90674 -0.725949 -0.102963 0
M  V30 10 C 4.55559 0.394841 -0.559522 0
M  V30 11 N 3.92045 1.55475 -0.747443 0
M  V30 12 C 2.61311 1.64143 -0.486889 0
M  V30 13 C -2.55019 1.308 -1.1758 0
M  V30 14 N -3.85367 1.49638 -0.912744 0
M  V30 15 C -4.55612 0.740921 -0.0544557 0
M  V30 16 C -3.88885 -0.285359 0.588406 0
M  V30 17 H -1.7646 -2.51211 0.542946 0
M  V30 18 H -1.4317 -1.44167 1.92477 0
M  V30 19 H -0.180518 0.610346 -1.84182 0
M  V30 20 H -0.230312 -0.953602 -1.02006 0
M  V30 21 H 0.122374 0.243376 1.18706 0
M  V30 22 H 0.170139 1.7946 0.314944 0
M  V30 23 H 1.67211 -1.87157 1.66087 0
M  V30 24 H 1.38582 -2.41613 -0.0102385 0
M  V30 25 H 4.39423 -1.6822 0.0598363 0
M  V30 26 H 5.60822 0.315406 -0.766263 0
M  V30 27 H 2.12488 2.58793 -0.648535 0
M  V30 28 H -2.00638 1.94721 -1.88359 0
M  V30 29 H -5.61451 0.922312 0.135599 0
M  V30 30 H -4.40515 -0.931815 1.294 0
M  V30 END ATOM
M  V30 BEGIN BOND
M  V30 1 1 1 2
M  V30 2 2 2 3
M  V30 3 1 3 4
M  V30 4 1 4 5
M  V30 5 1 5 6
M  V30 6 2 6 7
M  V30 7 1 7 8
M  V30 8 1 7 9
M  V30 9 2 9 10
M  V30 10 1 10 11
M  V30 11 2 11 12
M  V30 12 1 3 13
M  V30 13 2 13 14
M  V30 14 1 14 15
M  V30 15 2 15 16
M  V30 16 1 16 2
M  V30 17 1 12 6
M  V30 18 1 1 17
M  V30 19 1 1 18
M  V30 20 1 4 19
M  V30 21 1 4 20
M  V30 22 1 5 21
M  V30 23 1 5 22
M  V30 24 1 8 23
M  V30 25 1 8 24
M  V30 26 1 9 25
M  V30 27 1 10 26
M  V30 28 1 12 27
M  V30 29 1 13 28
M  V30 30 1 15 29
M  V30 31 1 16 30
M  V30 END BOND
M  V30 END CTAB
M  END
