
     RDKit          3D

  0  0  0  0  0  0  0  0  0  0999 V3000
M  V30 BEGIN CTAB
M  V30 COUNTS 53 54 0 0 0
M  V30 BEGIN ATOM
M  V30 1 O -0.200626 -0.699264 -2.21181 0
M  V30 2 C 0.357168 -0.970571 -1.12033 0
M  V30 3 N 1.72687 -1.29362 -1.10732 0
M  V30 4 C 2.52284 -1.62888 0.0491123 0
M  V30 5 C 3.62323 -0.619518 0.105768 0
M  V30 6 C 3.30065 0.701173 -0.105571 0
M  V30 7 C 4.27784 1.70043 -0.0660381 0
M  V30 8 C 5.58476 1.35169 0.189268 0
M  V30 9 C 5.93221 0.0380002 0.40387 0
M  V30 10 C 4.93906 -0.93237 0.358301 0
M  V30 11 S 6.7981 2.63868 0.232732 0
M  V30 12 O 6.34234 3.70146 -0.712857 0
M  V30 13 O 8.12823 2.0987 -0.178871 0
M  V30 14 N 6.89852 3.21782 1.85532 0
M  V30 15 C 3.07755 -3.01839 -0.205496 0
M  V30 16 C 2.46218 -1.30058 -2.38423 0
M  V30 17 N -0.399134 -0.944949 0.0598397 0
M  V30 18 C -1.82923 -0.595263 -0.0485335 0
M  V30 19 C -2.47542 -0.622401 1.33812 0
M  V30 20 C -3.89626 -0.263555 1.14399 0
M  V30 21 C -4.84214 -1.2326 0.90348 0
M  V30 22 C -6.16784 -0.900326 0.722162 0
M  V30 23 C -6.57491 0.413487 0.778139 0
M  V30 24 C -5.62211 1.40757 1.02207 0
M  V30 25 C -4.28591 1.05461 1.20316 0
M  V30 26 S -8.24726 0.801318 0.546389 0
M  V30 27 O -8.63142 1.96034 1.38786 0
M  V30 28 O -9.09021 -0.38282 0.974757 0
M  V30 29 N -8.61652 1.09103 -1.11404 0
M  V30 30 H 1.93176 -1.60585 0.956073 0
M  V30 31 H 2.26713 0.946035 -0.303763 0
M  V30 32 H 3.97958 2.7308 -0.238526 0
M  V30 33 H 6.97263 -0.229142 0.60583 0
M  V30 34 H 5.21074 -1.96454 0.528022 0
M  V30 35 H 7.72182 3.84008 1.97993 0
M  V30 36 H 6.01012 3.65688 2.16441 0
M  V30 37 H 3.23229 -3.57423 0.749361 0
M  V30 38 H 4.02709 -3.02158 -0.736755 0
M  V30 39 H 2.32149 -3.58682 -0.784992 0
M  V30 40 H 3.21376 -2.1143 -2.35998 0
M  V30 41 H 2.92997 -0.329577 -2.54641 0
M  V30 42 H 1.72301 -1.45319 -3.19015 0
M  V30 43 H 0.0316909 -1.16224 0.961743 0
M  V30 44 H -2.37402 -1.3405 -0.656642 0
M  V30 45 H -1.9287 0.392495 -0.509321 0
M  V30 46 H -1.94812 0.163263 1.9307 0
M  V30 47 H -2.38499 -1.59921 1.80979 0
M  V30 48 H -4.54052 -2.28761 0.854467 0
M  V30 49 H -6.88586 -1.68087 0.535461 0
M  V30 50 H -5.94946 2.41684 1.06275 0
M  V30 51 H -3.52555 1.81813 1.39511 0
M  V30 52 H -7.77841 1.37035 -1.67216 0
M  V30 53 H -9.35 1.84357 -1.19473 0
M  V30 END ATOM
M  V30 BEGIN BOND
M  V30 1 2 1 2
M  V30 2 1 2 3
M  V30 3 1 3 4
M  V30 4 1 4 5
M  V30 5 2 5 6
M  V30 6 1 6 7
M  V30 7 2 7 8
M  V30 8 1 8 9
M  V30 9 2 9 10
M  V30 10 1 8 11
M  V30 11 2 11 12
M  V30 12 2 11 13
M  V30 13 1 11 14
M  V30 14 1 4 15
M  V30 15 1 3 16
M  V30 16 1 2 17
M  V30 17 1 17 18
M  V30 18 1 18 19
M  V30 19 1 19 20
M  V30 20 2 20 21
M  V30 21 1 21 22
M  V30 22 2 22 23
M  V30 23 1 23 24
M  V30 24 2 24 25
M  V30 25 1 23 26
M  V30 26 2 26 27
M  V30 27 2 26 28
M  V30 28 1 26 29
M  V30 29 1 10 5
M  V30 30 1 25 20
M  V30 31 1 4 30
M  V30 32 1 6 31
M  V30 33 1 7 32
M  V30 34 1 9 33
M  V30 35 1 10 34
M  V30 36 1 14 35
M  V30 37 1 14 36
M  V30 38 1 15 37
M  V30 39 1 15 38
M  V30 40 1 15 39
M  V30 41 1 16 40
M  V30 42 1 16 41
M  V30 43 1 16 42
M  V30 44 1 17 43
M  V30 45 1 18 44
M  V30 46 1 18 45
M  V30 47 1 19 46
M  V30 48 1 19 47
M  V30 49 1 21 48
M  V30 50 1 22 49
M  V30 51 1 24 50
M  V30 52 1 25 51
M  V30 53 1 29 52
M  V30 54 1 29 53
M  V30 END BOND
M  V30 END CTAB
M  END
