
     RDKit          3D

  0  0  0  0  0  0  0  0  0  0999 V3000
M  V30 BEGIN CTAB
M  V30 COUNTS 28 29 0 0 0
M  V30 BEGIN ATOM
M  V30 1 C 3.73132 0.652794 -0.130374 0
M  V30 2 O 2.47257 1.01968 -0.566222 0
M  V30 3 C 1.47425 0.467614 0.268429 0
M  V30 4 C 0.0982525 0.620916 -0.163165 0
M  V30 5 C -0.477464 1.87414 -0.357427 0
M  V30 6 C -1.7942 2.07474 -0.648161 0
M  V30 7 C -2.51638 3.39006 -0.446175 0
M  V30 8 N -2.59783 0.966921 -0.776563 0
M  V30 9 C -2.00433 -0.239986 -0.588666 0
M  V30 10 C -0.751834 -0.535215 -0.288671 0
M  V30 11 C -0.417116 -1.79888 0.00330543 0
M  V30 12 N 0.921484 -2.28204 0.289118 0
M  V30 13 C -1.43219 -2.72076 0.00601575 0
M  V30 14 S -2.80617 -1.79553 -0.445189 0
M  V30 15 N -1.42515 -4.08089 0.499976 0
M  V30 16 H 4.55462 1.02234 -0.733327 0
M  V30 17 H 3.81997 -0.509879 -0.244703 0
M  V30 18 H 3.87935 0.770572 0.950908 0
M  V30 19 H 1.51587 1.52877 1.03148 0
M  V30 20 H 1.75106 -0.145328 1.08563 0
M  V30 21 H 0.154333 2.74854 -0.219548 0
M  V30 22 H -2.87296 3.25509 0.693254 0
M  V30 23 H -1.87256 4.22432 -0.433342 0
M  V30 24 H -3.42012 3.38971 -1.02497 0
M  V30 25 H 1.19647 -2.33876 1.27789 0
M  V30 26 H 1.59921 -2.55645 -0.434982 0
M  V30 27 H -0.598937 -4.29883 1.08212 0
M  V30 28 H -2.18151 -4.70364 0.313367 0
M  V30 END ATOM
M  V30 BEGIN BOND
M  V30 1 1 1 2
M  V30 2 1 2 3
M  V30 3 1 3 4
M  V30 4 2 4 5
M  V30 5 1 5 6
M  V30 6 1 6 7
M  V30 7 2 6 8
M  V30 8 1 8 9
M  V30 9 2 9 10
M  V30 10 1 10 11
M  V30 11 1 11 12
M  V30 12 2 11 13
M  V30 13 1 13 14
M  V30 14 1 13 15
M  V30 15 1 10 4
M  V30 16 1 14 9
M  V30 17 1 1 16
M  V30 18 1 1 17
M  V30 19 1 1 18
M  V30 20 1 3 19
M  V30 21 1 3 20
M  V30 22 1 5 21
M  V30 23 1 7 22
M  V30 24 1 7 23
M  V30 25 1 7 24
M  V30 26 1 12 25
M  V30 27 1 12 26
M  V30 28 1 15 27
M  V30 29 1 15 28
M  V30 END BOND
M  V30 END CTAB
M  END
