
     RDKit          3D

  0  0  0  0  0  0  0  0  0  0999 V3000
M  V30 BEGIN CTAB
M  V30 COUNTS 21 22 0 0 0
M  V30 BEGIN ATOM
M  V30 1 N 4.47721 1.1017 0.428439 0
M  V30 2 C 3.36916 0.335872 -0.0304279 0
M  V30 3 N 3.35797 -0.761946 -0.818874 0
M  V30 4 O 2.12564 -1.14892 -0.995039 0
M  V30 5 C 1.29326 -0.359182 -0.358231 0
M  V30 6 N 2.06397 0.564896 0.242371 0
M  V30 7 C -0.161982 -0.458315 -0.308956 0
M  V30 8 C -0.795711 -1.48116 -0.991912 0
M  V30 9 C -2.1791 -1.5481 -0.925432 0
M  V30 10 C -2.90433 -0.639647 -0.21214 0
M  V30 11 C -2.26854 0.377717 0.466703 0
M  V30 12 C -0.899887 0.450436 0.405599 0
M  V30 13 N -3.03889 1.33779 1.22086 0
M  V30 14 F -4.27474 -0.695521 -0.13878 0
M  V30 15 H 5.24746 0.711139 1.00476 0
M  V30 16 H 4.55655 2.12971 0.189931 0
M  V30 17 H -0.266747 -2.22114 -1.56781 0
M  V30 18 H -2.72656 -2.3436 -1.45206 0
M  V30 19 H -0.409595 1.24403 0.935599 0
M  V30 20 H -3.683 1.05814 1.97118 0
M  V30 21 H -2.88213 2.3461 0.934226 0
M  V30 END ATOM
M  V30 BEGIN BOND
M  V30 1 1 1 2
M  V30 2 2 2 3
M  V30 3 1 3 4
M  V30 4 1 4 5
M  V30 5 2 5 6
M  V30 6 1 5 7
M  V30 7 2 7 8
M  V30 8 1 8 9
M  V30 9 2 9 10
M  V30 10 1 10 11
M  V30 11 2 11 12
M  V30 12 1 11 13
M  V30 13 1 10 14
M  V30 14 1 6 2
M  V30 15 1 12 7
M  V30 16 1 1 15
M  V30 17 1 1 16
M  V30 18 1 8 17
M  V30 19 1 9 18
M  V30 20 1 12 19
M  V30 21 1 13 20
M  V30 22 1 13 21
M  V30 END BOND
M  V30 END CTAB
M  END
