
     RDKit          3D

  0  0  0  0  0  0  0  0  0  0999 V3000
M  V30 BEGIN CTAB
M  V30 COUNTS 43 45 0 0 0
M  V30 BEGIN ATOM
M  V30 1 O -1.54615 -0.245508 -2.03557 0
M  V30 2 C -1.39773 0.138419 -0.853309 0
M  V30 3 C -2.59973 0.5757 -0.140965 0
M  V30 4 C -3.83695 0.483826 -0.964936 0
M  V30 5 C -4.84328 1.46628 -0.397486 0
M  V30 6 C -5.10878 0.888353 0.981725 0
M  V30 7 C -4.34783 -0.427419 1.04322 0
M  V30 8 C -2.86373 -0.168663 1.14246 0
M  V30 9 N -2.17675 -1.43079 1.21679 0
M  V30 10 C -4.44548 -0.827162 -0.438631 0
M  V30 11 N -0.0941826 0.118655 -0.307545 0
M  V30 12 C 0.993323 -0.340932 -1.13688 0
M  V30 13 C 2.31781 -0.286608 -0.519767 0
M  V30 14 C 3.29229 -1.16326 -1.01927 0
M  V30 15 C 4.53613 -1.12287 -0.458419 0
M  V30 16 C 4.83361 -0.263544 0.55405 0
M  V30 17 C 3.88838 0.602537 1.05473 0
M  V30 18 C 2.62174 0.581773 0.504498 0
M  V30 19 S 6.44621 -0.268876 1.22235 0
M  V30 20 O 6.40696 0.147163 2.66578 0
M  V30 21 O 7.07425 -1.62471 1.08985 0
M  V30 22 N 7.38224 0.870304 0.310504 0
M  V30 23 H -2.44088 1.64942 0.147655 0
M  V30 24 H -3.72444 0.507597 -2.02752 0
M  V30 25 H -5.75549 1.54869 -1.0052 0
M  V30 26 H -4.30332 2.45438 -0.326481 0
M  V30 27 H -6.18916 0.612998 1.06732 0
M  V30 28 H -4.79254 1.60483 1.74255 0
M  V30 29 H -4.74598 -1.15452 1.71595 0
M  V30 30 H -2.60812 0.419037 2.0414 0
M  V30 31 H -1.42599 -1.44022 1.95603 0
M  V30 32 H -1.81014 -1.75675 0.299942 0
M  V30 33 H -3.82514 -1.68773 -0.670775 0
M  V30 34 H -5.50368 -0.917319 -0.708123 0
M  V30 35 H 0.113887 0.420151 0.672893 0
M  V30 36 H 1.05157 0.265902 -2.08286 0
M  V30 37 H 0.804834 -1.3876 -1.5103 0
M  V30 38 H 3.04192 -1.83452 -1.81753 0
M  V30 39 H 5.29971 -1.79541 -0.834928 0
M  V30 40 H 4.16227 1.26383 1.85255 0
M  V30 41 H 1.90658 1.27667 0.918725 0
M  V30 42 H 7.403 0.488628 -0.678737 0
M  V30 43 H 6.80878 1.75927 0.27892 0
M  V30 END ATOM
M  V30 BEGIN BOND
M  V30 1 2 1 2
M  V30 2 1 2 3
M  V30 3 1 3 4
M  V30 4 1 4 5
M  V30 5 1 5 6
M  V30 6 1 6 7
M  V30 7 1 7 8
M  V30 8 1 8 9
M  V30 9 1 7 10
M  V30 10 1 2 11
M  V30 11 1 11 12
M  V30 12 1 12 13
M  V30 13 2 13 14
M  V30 14 1 14 15
M  V30 15 2 15 16
M  V30 16 1 16 17
M  V30 17 2 17 18
M  V30 18 1 16 19
M  V30 19 2 19 20
M  V30 20 2 19 21
M  V30 21 1 19 22
M  V30 22 1 8 3
M  V30 23 1 18 13
M  V30 24 1 10 4
M  V30 25 1 3 23
M  V30 26 1 4 24
M  V30 27 1 5 25
M  V30 28 1 5 26
M  V30 29 1 6 27
M  V30 30 1 6 28
M  V30 31 1 7 29
M  V30 32 1 8 30
M  V30 33 1 9 31
M  V30 34 1 9 32
M  V30 35 1 10 33
M  V30 36 1 10 34
M  V30 37 1 11 35
M  V30 38 1 12 36
M  V30 39 1 12 37
M  V30 40 1 14 38
M  V30 41 1 15 39
M  V30 42 1 17 40
M  V30 43 1 18 41
M  V30 44 1 22 42
M  V30 45 1 22 43
M  V30 END BOND
M  V30 END CTAB
M  END
