
     RDKit          3D

  0  0  0  0  0  0  0  0  0  0999 V3000
M  V30 BEGIN CTAB
M  V30 COUNTS 76 77 0 0 0
M  V30 BEGIN ATOM
M  V30 1 C -0.555762 0.959352 -0.0990487 0 CFG=1
M  V30 2 C -0.0582776 2.20019 -0.727839 0
M  V30 3 C 0.745828 3.08755 0.255249 0
M  V30 4 C 1.13623 4.27013 -0.584803 0
M  V30 5 N 1.71517 5.36515 0.170896 0
M  V30 6 C 0.833395 6.07431 1.02754 0
M  V30 7 N -0.205844 6.841 0.281504 0
M  V30 8 N 0.816099 6.09061 2.24537 0
M  V30 9 N -1.51491 0.279517 -0.976572 0
M  V30 10 C -2.8774 0.485265 -0.840309 0
M  V30 11 O -3.31382 1.2752 0.0954701 0
M  V30 12 C -3.91201 -0.153316 -1.66363 0 CFG=2
M  V30 13 C -5.26653 0.0503203 -1.00938 0
M  V30 14 C -5.46949 -0.737906 0.233104 0
M  V30 15 C -5.1418 -0.425201 1.49324 0
M  V30 16 C -5.41644 -1.34066 2.54719 0
M  V30 17 C -6.01726 -2.5397 2.33449 0
M  V30 18 O -6.30203 -3.50629 3.31478 0
M  V30 19 C -6.37546 -2.86526 1.01153 0
M  V30 20 C -6.1153 -2.00232 -0.0107228 0
M  V30 21 N -3.67606 -1.64746 -1.54673 0
M  V30 22 C -4.00268 -2.43914 -2.65332 0
M  V30 23 N -4.66759 -1.91038 -3.79893 0
M  V30 24 N -3.73062 -3.69338 -2.68624 0
M  V30 25 C 0.454066 -0.0341924 0.238818 0
M  V30 26 O 0.242875 -1.12189 0.811758 0
M  V30 27 N 1.83513 0.261606 -0.13517 0
M  V30 28 C 2.86994 -0.677949 0.235664 0 CFG=1
M  V30 29 C 3.17973 -1.59098 -0.973112 0
M  V30 30 C 4.35634 -2.4378 -0.564037 0
M  V30 31 C 5.65264 -2.0072 -0.93945 0
M  V30 32 C 6.78047 -2.64464 -0.541531 0
M  V30 33 C 6.68922 -3.77208 0.271001 0
M  V30 34 C 5.44333 -4.21119 0.643433 0
M  V30 35 C 4.29523 -3.53412 0.213771 0
M  V30 36 C 4.18289 0.160859 0.387154 0
M  V30 37 O 4.26293 0.980987 -0.60682 0
M  V30 38 N 4.99054 -0.0220647 1.3814 0
M  V30 39 C 5.88952 -0.216263 2.4749 0
M  V30 40 H -1.08712 1.20991 0.889007 0
M  V30 41 H 0.599931 2.0435 -1.59479 0
M  V30 42 H -0.890129 2.83611 -1.0286 0
M  V30 43 H 1.60952 2.62532 0.716407 0
M  V30 44 H 0.0148577 3.37487 1.09514 0
M  V30 45 H 0.238534 4.56784 -1.17928 0
M  V30 46 H 1.88307 3.87231 -1.33332 0
M  V30 47 H 2.69938 5.5828 0.0701022 0
M  V30 48 H -1.20229 6.67401 0.506512 0
M  V30 49 H 0.170533 7.48213 -0.406253 0
M  V30 50 H 1.49863 5.56739 2.88189 0
M  V30 51 H -1.1041 -0.353728 -1.69161 0
M  V30 52 H -3.87118 0.114292 -2.68182 0
M  V30 53 H -5.2724 1.17443 -0.78655 0
M  V30 54 H -6.05364 -0.132189 -1.75027 0
M  V30 55 H -4.70555 0.492454 1.80313 0
M  V30 56 H -5.11582 -1.06362 3.52107 0
M  V30 57 H -6.00554 -3.19198 4.25784 0
M  V30 58 H -6.84973 -3.80541 0.802206 0
M  V30 59 H -6.42027 -2.22476 -1.01408 0
M  V30 60 H -3.2883 -1.97223 -0.668593 0
M  V30 61 H -4.19796 -1.25271 -4.41658 0
M  V30 62 H -5.67931 -2.2011 -3.96779 0
M  V30 63 H -3.25512 -4.1272 -1.87815 0
M  V30 64 H 2.10975 1.05493 -0.711539 0
M  V30 65 H 2.71473 -1.34096 1.05037 0
M  V30 66 H 3.40013 -0.970715 -1.84196 0
M  V30 67 H 2.26504 -2.22826 -1.13365 0
M  V30 68 H 5.74136 -1.13913 -1.61129 0
M  V30 69 H 7.77404 -2.30335 -0.836189 0
M  V30 70 H 7.61504 -4.26445 0.597421 0
M  V30 71 H 5.32433 -5.0931 1.26917 0
M  V30 72 H 3.29363 -3.88621 0.484946 0
M  V30 73 H 6.00477 0.659636 0.761792 0
M  V30 74 H 6.79365 -0.78778 2.28004 0
M  V30 75 H 5.30503 -0.646214 3.35896 0
M  V30 76 H 6.1902 0.802518 2.87568 0
M  V30 END ATOM
M  V30 BEGIN BOND
M  V30 1 1 1 2
M  V30 2 1 2 3
M  V30 3 1 3 4
M  V30 4 1 4 5
M  V30 5 1 5 6
M  V30 6 1 6 7
M  V30 7 2 6 8 CFG=2
M  V30 8 1 1 9
M  V30 9 1 9 10
M  V30 10 2 10 11
M  V30 11 1 10 12
M  V30 12 1 12 13
M  V30 13 1 13 14
M  V30 14 2 14 15
M  V30 15 1 15 16
M  V30 16 2 16 17
M  V30 17 1 17 18
M  V30 18 1 17 19
M  V30 19 2 19 20
M  V30 20 1 12 21
M  V30 21 1 21 22
M  V30 22 1 22 23
M  V30 23 2 22 24 CFG=2
M  V30 24 1 1 25
M  V30 25 2 25 26
M  V30 26 1 25 27
M  V30 27 1 27 28
M  V30 28 1 28 29
M  V30 29 1 29 30
M  V30 30 2 30 31
M  V30 31 1 31 32
M  V30 32 2 32 33
M  V30 33 1 33 34
M  V30 34 2 34 35
M  V30 35 1 28 36
M  V30 36 2 36 37
M  V30 37 1 36 38
M  V30 38 1 38 39
M  V30 39 1 20 14
M  V30 40 1 35 30
M  V30 41 1 1 40 CFG=1
M  V30 42 1 2 41
M  V30 43 1 2 42
M  V30 44 1 3 43
M  V30 45 1 3 44
M  V30 46 1 4 45
M  V30 47 1 4 46
M  V30 48 1 5 47
M  V30 49 1 7 48
M  V30 50 1 7 49
M  V30 51 1 8 50
M  V30 52 1 9 51
M  V30 53 1 12 52 CFG=3
M  V30 54 1 13 53
M  V30 55 1 13 54
M  V30 56 1 15 55
M  V30 57 1 16 56
M  V30 58 1 18 57
M  V30 59 1 19 58
M  V30 60 1 20 59
M  V30 61 1 21 60
M  V30 62 1 23 61
M  V30 63 1 23 62
M  V30 64 1 24 63
M  V30 65 1 27 64
M  V30 66 1 28 65 CFG=1
M  V30 67 1 29 66
M  V30 68 1 29 67
M  V30 69 1 31 68
M  V30 70 1 32 69
M  V30 71 1 33 70
M  V30 72 1 34 71
M  V30 73 1 35 72
M  V30 74 1 38 73
M  V30 75 1 39 74
M  V30 76 1 39 75
M  V30 77 1 39 76
M  V30 END BOND
M  V30 END CTAB
M  END
