
     RDKit          3D

  0  0  0  0  0  0  0  0  0  0999 V3000
M  V30 BEGIN CTAB
M  V30 COUNTS 31 33 0 0 0
M  V30 BEGIN ATOM
M  V30 1 N -0.228576 3.17836 -0.416478 0
M  V30 2 C -0.761372 2.13576 -0.361446 0
M  V30 3 C -1.38595 0.844388 -0.281971 0
M  V30 4 C -0.663084 -0.329204 -0.211576 0
M  V30 5 C 0.767152 -0.261368 -0.23056 0
M  V30 6 C 1.45984 -0.687533 -1.34018 0
M  V30 7 C 2.84428 -0.625111 -1.38752 0
M  V30 8 C 3.57292 -0.122786 -0.300683 0
M  V30 9 C 2.84207 0.293429 0.786887 0
M  V30 10 C 1.46068 0.236884 0.84787 0
M  V30 11 O 3.72776 0.759694 1.75759 0
M  V30 12 C 4.99423 0.856574 1.14544 0
M  V30 13 O 4.92263 0.0689954 -0.037254 0
M  V30 14 C -1.25114 -1.58948 -0.130083 0
M  V30 15 C -0.456293 -2.78456 -0.072963 0
M  V30 16 N 0.194558 -3.76564 -0.0507821 0
M  V30 17 C -2.63007 -1.6093 -0.11967 0
M  V30 18 O -3.19842 -2.70848 -0.0453138 0
M  V30 19 N -3.37557 -0.472141 -0.185599 0
M  V30 20 C -2.76084 0.733346 -0.266394 0
M  V30 21 N -3.49078 1.94741 -0.341474 0
M  V30 22 N -4.78124 -0.555647 -0.153218 0
M  V30 23 H 0.973579 -1.09646 -2.2379 0
M  V30 24 H 3.41024 -0.963469 -2.24365 0
M  V30 25 H 0.941388 0.607368 1.76006 0
M  V30 26 H 5.78811 0.379301 1.76011 0
M  V30 27 H 5.20639 1.91261 0.904673 0
M  V30 28 H -3.06711 2.82711 -0.700141 0
M  V30 29 H -4.47427 1.94653 -0.0285866 0
M  V30 30 H -5.32163 -1.00941 -0.910136 0
M  V30 31 H -5.25951 -0.147161 0.672507 0
M  V30 END ATOM
M  V30 BEGIN BOND
M  V30 1 3 1 2
M  V30 2 1 2 3
M  V30 3 1 3 4
M  V30 4 1 4 5
M  V30 5 2 5 6
M  V30 6 1 6 7
M  V30 7 2 7 8
M  V30 8 1 8 9
M  V30 9 2 9 10
M  V30 10 1 9 11
M  V30 11 1 11 12
M  V30 12 1 12 13
M  V30 13 2 4 14
M  V30 14 1 14 15
M  V30 15 3 15 16
M  V30 16 1 14 17
M  V30 17 2 17 18
M  V30 18 1 17 19
M  V30 19 1 19 20
M  V30 20 1 20 21
M  V30 21 1 19 22
M  V30 22 2 20 3
M  V30 23 1 10 5
M  V30 24 1 13 8
M  V30 25 1 6 23
M  V30 26 1 7 24
M  V30 27 1 10 25
M  V30 28 1 12 26
M  V30 29 1 12 27
M  V30 30 1 21 28
M  V30 31 1 21 29
M  V30 32 1 22 30
M  V30 33 1 22 31
M  V30 END BOND
M  V30 END CTAB
M  END
