
     RDKit          3D

  0  0  0  0  0  0  0  0  0  0999 V3000
M  V30 BEGIN CTAB
M  V30 COUNTS 29 30 0 0 0
M  V30 BEGIN ATOM
M  V30 1 N 4.55908 0.687263 -0.824469 0
M  V30 2 C 3.25694 0.136137 -1.00018 0
M  V30 3 N 2.61919 -0.0893964 -2.15602 0
M  V30 4 N 1.4209 -0.6126 -1.93215 0
M  V30 5 C 1.25974 -0.737096 -0.598162 0
M  V30 6 N 2.40969 -0.26726 -0.0357868 0
M  V30 7 N 2.70541 -0.196873 1.32402 0
M  V30 8 C 0.108691 -1.26242 0.164983 0
M  V30 9 N -0.83546 -0.208118 0.488988 0
M  V30 10 C -1.95952 -0.647107 1.21925 0
M  V30 11 C -3.28951 -0.374323 0.643797 0
M  V30 12 N -3.41869 0.800958 -0.136906 0
M  V30 13 C -2.23057 1.56696 -0.314682 0
M  V30 14 C -1.10086 0.620888 -0.642471 0
M  V30 15 H 5.18666 0.393907 -0.0539574 0
M  V30 16 H 4.91716 1.41408 -1.48195 0
M  V30 17 H 3.03485 0.68068 1.78058 0
M  V30 18 H 2.60437 -1.03433 1.93667 0
M  V30 19 H -0.442384 -1.99797 -0.460381 0
M  V30 20 H 0.44831 -1.71302 1.10531 0
M  V30 21 H -1.86582 -0.249118 2.27221 0
M  V30 22 H -1.86758 -1.76584 1.35608 0
M  V30 23 H -4.0382 -0.319798 1.48355 0
M  V30 24 H -3.62941 -1.24489 0.028351 0
M  V30 25 H -3.8974 0.655277 -1.05019 0
M  V30 26 H -1.98799 2.24865 0.525055 0
M  V30 27 H -2.36752 2.22364 -1.21575 0
M  V30 28 H -1.38541 0.048403 -1.5295 0
M  V30 29 H -0.214647 1.24332 -0.896279 0
M  V30 END ATOM
M  V30 BEGIN BOND
M  V30 1 1 1 2
M  V30 2 2 2 3
M  V30 3 1 3 4
M  V30 4 2 4 5
M  V30 5 1 5 6
M  V30 6 1 6 7
M  V30 7 1 5 8
M  V30 8 1 8 9
M  V30 9 1 9 10
M  V30 10 1 10 11
M  V30 11 1 11 12
M  V30 12 1 12 13
M  V30 13 1 13 14
M  V30 14 1 6 2
M  V30 15 1 14 9
M  V30 16 1 1 15
M  V30 17 1 1 16
M  V30 18 1 7 17
M  V30 19 1 7 18
M  V30 20 1 8 19
M  V30 21 1 8 20
M  V30 22 1 10 21
M  V30 23 1 10 22
M  V30 24 1 11 23
M  V30 25 1 11 24
M  V30 26 1 12 25
M  V30 27 1 13 26
M  V30 28 1 13 27
M  V30 29 1 14 28
M  V30 30 1 14 29
M  V30 END BOND
M  V30 END CTAB
M  END
