
     RDKit          3D

  0  0  0  0  0  0  0  0  0  0999 V3000
M  V30 BEGIN CTAB
M  V30 COUNTS 35 34 0 0 0
M  V30 BEGIN ATOM
M  V30 1 N -3.29446 0.953848 0.151038 0
M  V30 2 C -2.31023 0.35045 0.0225894 0
M  V30 3 C -1.07163 -0.366136 -0.106461 0
M  V30 4 C -0.00259692 0.277281 -0.887429 0
M  V30 5 C 0.548927 1.58066 -0.471722 0
M  V30 6 C 1.16142 1.70278 0.860029 0
M  V30 7 C 2.45285 1.79559 1.11011 0
M  V30 8 C 3.35848 1.77941 -0.00644128 0
M  V30 9 N 4.08944 1.77763 -0.908086 0
M  V30 10 C 3.03346 1.91199 2.41314 0
M  V30 11 N 3.48398 2.00378 3.47403 0
M  V30 12 N 0.381962 1.75524 2.07656 0
M  V30 13 C -0.35159 2.71001 -0.747428 0
M  V30 14 N -1.04899 3.62184 -0.975291 0
M  V30 15 C 1.14685 -0.66063 -1.11391 0
M  V30 16 C -0.509378 0.54671 -2.34802 0
M  V30 17 C -1.18245 -1.83314 -0.17453 0
M  V30 18 C -2.16265 -2.51379 -0.693425 0
M  V30 19 C -2.02583 -3.98515 -0.626133 0
M  V30 20 N -1.90985 -5.1314 -0.59137 0
M  V30 21 C -3.3289 -2.05063 -1.35089 0
M  V30 22 N -4.29144 -1.70534 -1.91466 0
M  V30 23 N -0.140379 -2.65921 0.413689 0
M  V30 24 H -0.665933 -0.28344 1.02233 0
M  V30 25 H 1.43807 1.73228 -1.18057 0
M  V30 26 H -0.285717 2.49853 2.29135 0
M  V30 27 H 0.54308 0.973819 2.73792 0
M  V30 28 H 1.67857 -0.972236 -0.202676 0
M  V30 29 H 0.809929 -1.61866 -1.62164 0
M  V30 30 H 1.87526 -0.175645 -1.8485 0
M  V30 31 H -1.43512 1.09845 -2.33947 0
M  V30 32 H 0.26402 1.13615 -2.87912 0
M  V30 33 H -0.640961 -0.397961 -2.88001 0
M  V30 34 H 0.162165 -2.43277 1.3512 0
M  V30 35 H 0.229612 -3.4203 -0.146567 0
M  V30 END ATOM
M  V30 BEGIN BOND
M  V30 1 3 1 2
M  V30 2 1 2 3
M  V30 3 1 3 4
M  V30 4 1 4 5
M  V30 5 1 5 6
M  V30 6 2 6 7 CFG=2
M  V30 7 1 7 8
M  V30 8 3 8 9
M  V30 9 1 7 10
M  V30 10 3 10 11
M  V30 11 1 6 12
M  V30 12 1 5 13
M  V30 13 3 13 14
M  V30 14 1 4 15
M  V30 15 1 4 16
M  V30 16 1 3 17
M  V30 17 2 17 18 CFG=2
M  V30 18 1 18 19
M  V30 19 3 19 20
M  V30 20 1 18 21
M  V30 21 3 21 22
M  V30 22 1 17 23
M  V30 23 1 3 24
M  V30 24 1 5 25
M  V30 25 1 12 26
M  V30 26 1 12 27
M  V30 27 1 15 28
M  V30 28 1 15 29
M  V30 29 1 15 30
M  V30 30 1 16 31
M  V30 31 1 16 32
M  V30 32 1 16 33
M  V30 33 1 23 34
M  V30 34 1 23 35
M  V30 END BOND
M  V30 END CTAB
M  END
