
     RDKit          3D

  0  0  0  0  0  0  0  0  0  0999 V3000
M  V30 BEGIN CTAB
M  V30 COUNTS 21 22 0 0 0
M  V30 BEGIN ATOM
M  V30 1 N -2.85266 2.07609 0.407728 0
M  V30 2 C -2.2046 0.903312 -0.0578055 0
M  V30 3 C -2.95341 -0.104419 -0.630722 0
M  V30 4 C -2.35903 -1.25964 -1.09512 0
M  V30 5 C -0.994378 -1.43805 -0.998294 0
M  V30 6 C -0.231673 -0.44147 -0.428781 0
M  V30 7 C -0.847774 0.704817 0.0285398 0
M  V30 8 C 1.21133 -0.633453 -0.327974 0
M  V30 9 O 1.91608 -1.6645 -0.719368 0
M  V30 10 N 3.1863 -1.44989 -0.45029 0
M  V30 11 C 3.33503 -0.238092 0.139079 0
M  V30 12 N 2.06111 0.250784 0.200232 0
M  V30 13 N 4.50892 0.403305 0.596045 0
M  V30 14 Cl -0.258495 -2.93196 -1.60319 0
M  V30 15 H -2.53135 2.52072 1.29788 0
M  V30 16 H -3.64704 2.54164 -0.0835045 0
M  V30 17 H -4.03802 0.0522316 -0.700692 0
M  V30 18 H -2.95746 -2.03878 -1.54066 0
M  V30 19 H -0.24197 1.46953 0.468267 0
M  V30 20 H 4.54322 0.882879 1.50938 0
M  V30 21 H 5.35589 0.394951 0.00565724 0
M  V30 END ATOM
M  V30 BEGIN BOND
M  V30 1 1 1 2
M  V30 2 2 2 3
M  V30 3 1 3 4
M  V30 4 2 4 5
M  V30 5 1 5 6
M  V30 6 2 6 7
M  V30 7 1 6 8
M  V30 8 1 8 9
M  V30 9 1 9 10
M  V30 10 2 10 11
M  V30 11 1 11 12
M  V30 12 1 11 13
M  V30 13 1 5 14
M  V30 14 1 7 2
M  V30 15 2 12 8
M  V30 16 1 1 15
M  V30 17 1 1 16
M  V30 18 1 3 17
M  V30 19 1 4 18
M  V30 20 1 7 19
M  V30 21 1 13 20
M  V30 22 1 13 21
M  V30 END BOND
M  V30 END CTAB
M  END
