
     RDKit          3D

  0  0  0  0  0  0  0  0  0  0999 V3000
M  V30 BEGIN CTAB
M  V30 COUNTS 29 29 0 0 0
M  V30 BEGIN ATOM
M  V30 1 N -4.0404 -1.35104 1.48997 0
M  V30 2 C -4.36123 -0.897286 0.13751 0
M  V30 3 C -3.63495 0.413068 -0.073841 0
M  V30 4 N -2.20598 0.266389 0.0579751 0
M  V30 5 C -1.39257 1.41719 -0.115057 0
M  V30 6 O -1.92271 2.54279 -0.379221 0
M  V30 7 C 0.0558448 1.37715 -0.00331952 0
M  V30 8 C 0.907928 2.44231 -0.157002 0
M  V30 9 N 2.15653 1.97755 0.0259954 0
M  V30 10 N 2.16407 0.692061 0.285585 0
M  V30 11 C 0.877237 0.30103 0.272312 0
M  V30 12 C 3.28462 -0.198316 0.545152 0
M  V30 13 C 3.75898 -0.780208 -0.785793 0
M  V30 14 N 4.84732 -1.66282 -0.659103 0
M  V30 15 H -3.10527 -1.80963 1.43044 0
M  V30 16 H -3.95837 -0.543929 2.1422 0
M  V30 17 H -4.00325 -1.68639 -0.541779 0
M  V30 18 H -5.43689 -0.764333 -0.0176337 0
M  V30 19 H -3.94947 1.18349 0.654206 0
M  V30 20 H -3.83399 0.818376 -1.09579 0
M  V30 21 H -1.7949 -0.647624 0.271106 0
M  V30 22 H 0.608201 3.47696 -0.386944 0
M  V30 23 H 0.493537 -0.69893 0.446378 0
M  V30 24 H 3.00777 -1.00995 1.25429 0
M  V30 25 H 4.1075 0.369463 1.03198 0
M  V30 26 H 4.01653 0.0476553 -1.45131 0
M  V30 27 H 2.89021 -1.30983 -1.23391 0
M  V30 28 H 5.78391 -1.30678 -0.790217 0
M  V30 29 H 4.67979 -2.65842 -0.813266 0
M  V30 END ATOM
M  V30 BEGIN BOND
M  V30 1 1 1 2
M  V30 2 1 2 3
M  V30 3 1 3 4
M  V30 4 1 4 5
M  V30 5 2 5 6
M  V30 6 1 5 7
M  V30 7 1 7 8
M  V30 8 2 8 9
M  V30 9 1 9 10
M  V30 10 1 10 11
M  V30 11 1 10 12
M  V30 12 1 12 13
M  V30 13 1 13 14
M  V30 14 2 11 7
M  V30 15 1 1 15
M  V30 16 1 1 16
M  V30 17 1 2 17
M  V30 18 1 2 18
M  V30 19 1 3 19
M  V30 20 1 3 20
M  V30 21 1 4 21
M  V30 22 1 8 22
M  V30 23 1 11 23
M  V30 24 1 12 24
M  V30 25 1 12 25
M  V30 26 1 13 26
M  V30 27 1 13 27
M  V30 28 1 14 28
M  V30 29 1 14 29
M  V30 END BOND
M  V30 END CTAB
M  END
