
     RDKit          3D

  0  0  0  0  0  0  0  0  0  0999 V3000
M  V30 BEGIN CTAB
M  V30 COUNTS 38 40 0 0 0
M  V30 BEGIN ATOM
M  V30 1 N 1.0366 -4.33946 1.17097 0
M  V30 2 C 0.36432 -3.21207 0.59587 0
M  V30 3 N 1.05856 -2.25047 0.15936 0
M  V30 4 C 0.54002 -1.04077 -0.466121 0
M  V30 5 N -0.832023 -0.87659 -0.161655 0
M  V30 6 C -1.61764 -1.9999 0.289336 0
M  V30 7 N -1.05113 -3.09681 0.656539 0
M  V30 8 N -3.03313 -1.88478 0.295131 0
M  V30 9 C -1.51836 0.37307 -0.210214 0
M  V30 10 C -1.56332 1.20537 0.904857 0
M  V30 11 C -2.22018 2.40805 0.906136 0
M  V30 12 C -2.86751 2.81961 -0.238556 0
M  V30 13 C -2.8463 2.02704 -1.35548 0
M  V30 14 C -2.16696 0.793892 -1.34322 0
M  V30 15 C 0.728023 -1.33689 -1.98113 0
M  V30 16 C 1.41047 0.121918 -0.166752 0
M  V30 17 C 1.42585 1.31497 -0.887674 0
M  V30 18 C 2.36855 2.12295 -0.284469 0
M  V30 19 C 2.88857 1.40817 0.768311 0
M  V30 20 O 2.29022 0.259016 0.780469 0
M  V30 21 C 3.93625 1.82044 1.7363 0
M  V30 22 H 1.23484 -5.2133 0.644501 0
M  V30 23 H 1.32885 -4.25909 2.16753 0
M  V30 24 H -3.49822 -1.88632 -0.628278 0
M  V30 25 H -3.60213 -1.80841 1.16655 0
M  V30 26 H -1.0531 0.880767 1.78196 0
M  V30 27 H -2.24239 3.03262 1.7829 0
M  V30 28 H -3.39327 3.77019 -0.239862 0
M  V30 29 H -3.36462 2.36153 -2.24084 0
M  V30 30 H -2.19884 0.233998 -2.25798 0
M  V30 31 H 0.422913 -0.49274 -2.5964 0
M  V30 32 H 0.134648 -2.24765 -2.17959 0
M  V30 33 H 1.79794 -1.54717 -2.11534 0
M  V30 34 H 0.835275 1.59804 -1.75374 0
M  V30 35 H 2.66334 3.12367 -0.557716 0
M  V30 36 H 4.1202 2.90129 1.57877 0
M  V30 37 H 3.62923 1.68055 2.78102 0
M  V30 38 H 4.85444 1.23528 1.49852 0
M  V30 END ATOM
M  V30 BEGIN BOND
M  V30 1 1 1 2
M  V30 2 2 2 3
M  V30 3 1 3 4
M  V30 4 1 4 5
M  V30 5 1 5 6
M  V30 6 2 6 7
M  V30 7 1 6 8
M  V30 8 1 5 9
M  V30 9 2 9 10
M  V30 10 1 10 11
M  V30 11 2 11 12
M  V30 12 1 12 13
M  V30 13 2 13 14
M  V30 14 1 4 15
M  V30 15 1 4 16
M  V30 16 2 16 17
M  V30 17 1 17 18
M  V30 18 2 18 19
M  V30 19 1 19 20
M  V30 20 1 19 21
M  V30 21 1 7 2
M  V30 22 1 14 9
M  V30 23 1 20 16
M  V30 24 1 1 22
M  V30 25 1 1 23
M  V30 26 1 8 24
M  V30 27 1 8 25
M  V30 28 1 10 26
M  V30 29 1 11 27
M  V30 30 1 12 28
M  V30 31 1 13 29
M  V30 32 1 14 30
M  V30 33 1 15 31
M  V30 34 1 15 32
M  V30 35 1 15 33
M  V30 36 1 17 34
M  V30 37 1 18 35
M  V30 38 1 21 36
M  V30 39 1 21 37
M  V30 40 1 21 38
M  V30 END BOND
M  V30 END CTAB
M  END
