
     RDKit          3D

  0  0  0  0  0  0  0  0  0  0999 V3000
M  V30 BEGIN CTAB
M  V30 COUNTS 25 25 0 0 0
M  V30 BEGIN ATOM
M  V30 1 C -3.45658 -0.613851 -0.150452 0
M  V30 2 C -2.55057 0.346958 0.543213 0
M  V30 3 C -1.19451 0.398404 -0.113646 0
M  V30 4 O -1.17787 0.783905 -1.42922 0
M  V30 5 C -0.342411 -0.83038 0.102768 0
M  V30 6 N 0.800824 0.0530913 0.205845 0
M  V30 7 C -0.121806 1.07326 0.713543 0
M  V30 8 C 2.19501 -0.0134138 -0.0584434 0
M  V30 9 N 2.87527 1.08446 -0.266056 0
M  V30 10 N 4.23782 1.00986 -0.523677 0
M  V30 11 N 2.79184 -1.28991 -0.0847294 0
M  V30 12 H -3.6492 -1.46918 0.529703 0
M  V30 13 H -2.98928 -1.04133 -1.05919 0
M  V30 14 H -4.43878 -0.196594 -0.426767 0
M  V30 15 H -2.44909 0.161406 1.63097 0
M  V30 16 H -2.99655 1.37389 0.413171 0
M  V30 17 H -1.96209 0.496668 -1.93138 0
M  V30 18 H -0.6442 -1.32433 1.05095 0
M  V30 19 H -0.331726 -1.51136 -0.775138 0
M  V30 20 H -0.255035 0.983422 1.79285 0
M  V30 21 H 0.0672782 2.08304 0.30792 0
M  V30 22 H 4.97752 1.20273 0.203522 0
M  V30 23 H 4.59385 0.752249 -1.47575 0
M  V30 24 H 3.30089 -1.63685 0.740851 0
M  V30 25 H 2.71939 -1.87614 -0.928786 0
M  V30 END ATOM
M  V30 BEGIN BOND
M  V30 1 1 1 2
M  V30 2 1 2 3
M  V30 3 1 3 4
M  V30 4 1 3 5
M  V30 5 1 5 6
M  V30 6 1 6 7
M  V30 7 1 6 8
M  V30 8 2 8 9 CFG=2
M  V30 9 1 9 10
M  V30 10 1 8 11
M  V30 11 1 7 3
M  V30 12 1 1 12
M  V30 13 1 1 13
M  V30 14 1 1 14
M  V30 15 1 2 15
M  V30 16 1 2 16
M  V30 17 1 4 17
M  V30 18 1 5 18
M  V30 19 1 5 19
M  V30 20 1 7 20
M  V30 21 1 7 21
M  V30 22 1 10 22
M  V30 23 1 10 23
M  V30 24 1 11 24
M  V30 25 1 11 25
M  V30 END BOND
M  V30 END CTAB
M  END
