
     RDKit          3D

  0  0  0  0  0  0  0  0  0  0999 V3000
M  V30 BEGIN CTAB
M  V30 COUNTS 39 40 0 0 0
M  V30 BEGIN ATOM
M  V30 1 O -0.15492 -2.17554 -1.10007 0
M  V30 2 C 0.446021 -1.17187 -0.637503 0
M  V30 3 C 1.92291 -1.26166 -0.516231 0
M  V30 4 S 2.63101 0.252484 0.165046 0
M  V30 5 C 4.4332 0.136805 0.165126 0
M  V30 6 N 5.17812 1.14507 0.651084 0
M  V30 7 C 6.51228 1.12882 0.662402 0
M  V30 8 N 7.28347 2.21044 1.17993 0
M  V30 9 C 7.13909 -0.00391859 0.137059 0
M  V30 10 C 6.41406 -1.06038 -0.371216 0
M  V30 11 N 5.07237 -0.936984 -0.331853 0
M  V30 12 N 7.04609 -2.2122 -0.914363 0
M  V30 13 N -0.230929 -0.018086 -0.257008 0
M  V30 14 N -1.58956 0.197189 -0.33382 0
M  V30 15 C -2.58491 -0.242117 0.551218 0
M  V30 16 O -2.24384 -0.91898 1.55559 0
M  V30 17 C -4.00997 0.035948 0.389025 0
M  V30 18 C -4.92527 -0.236873 1.38693 0
M  V30 19 C -6.28485 0.0309374 1.23623 0
M  V30 20 C -6.79092 0.585069 0.0783039 0
M  V30 21 C -5.87879 0.864236 -0.932936 0
M  V30 22 C -4.52822 0.593365 -0.772535 0
M  V30 23 C -8.24146 0.892183 -0.100604 0
M  V30 24 H 2.1597 -2.15264 0.115538 0
M  V30 25 H 2.34658 -1.46199 -1.52334 0
M  V30 26 H 8.30685 2.23472 1.02439 0
M  V30 27 H 6.83056 2.96296 1.70379 0
M  V30 28 H 8.21854 -0.0162762 0.145334 0
M  V30 29 H 7.29179 -2.99564 -0.290931 0
M  V30 30 H 7.25335 -2.25753 -1.9262 0
M  V30 31 H 0.344053 0.79078 0.138143 0
M  V30 32 H -1.93917 0.763248 -1.15325 0
M  V30 33 H -4.52723 -0.678618 2.31238 0
M  V30 34 H -6.99072 -0.191257 2.03177 0
M  V30 35 H -6.25876 1.29957 -1.84745 0
M  V30 36 H -3.84285 0.82173 -1.57976 0
M  V30 37 H -8.72963 0.867235 0.874707 0
M  V30 38 H -8.37474 1.95218 -0.489551 0
M  V30 39 H -8.70332 0.227598 -0.870522 0
M  V30 END ATOM
M  V30 BEGIN BOND
M  V30 1 2 1 2
M  V30 2 1 2 3
M  V30 3 1 3 4
M  V30 4 1 4 5
M  V30 5 2 5 6
M  V30 6 1 6 7
M  V30 7 1 7 8
M  V30 8 2 7 9
M  V30 9 1 9 10
M  V30 10 2 10 11
M  V30 11 1 10 12
M  V30 12 1 2 13
M  V30 13 1 13 14
M  V30 14 1 14 15
M  V30 15 2 15 16
M  V30 16 1 15 17
M  V30 17 2 17 18
M  V30 18 1 18 19
M  V30 19 2 19 20
M  V30 20 1 20 21
M  V30 21 2 21 22
M  V30 22 1 20 23
M  V30 23 1 11 5
M  V30 24 1 22 17
M  V30 25 1 3 24
M  V30 26 1 3 25
M  V30 27 1 8 26
M  V30 28 1 8 27
M  V30 29 1 9 28
M  V30 30 1 12 29
M  V30 31 1 12 30
M  V30 32 1 13 31
M  V30 33 1 14 32
M  V30 34 1 18 33
M  V30 35 1 19 34
M  V30 36 1 21 35
M  V30 37 1 22 36
M  V30 38 1 23 37
M  V30 39 1 23 38
M  V30 40 1 23 39
M  V30 END BOND
M  V30 END CTAB
M  END
