
     RDKit          3D

  0  0  0  0  0  0  0  0  0  0999 V3000
M  V30 BEGIN CTAB
M  V30 COUNTS 25 26 0 0 0
M  V30 BEGIN ATOM
M  V30 1 C -3.15665 -0.6357 -1.0607 0
M  V30 2 C -1.76874 -0.367784 -0.62371 0
M  V30 3 C -0.689887 -0.672327 -1.43926 0
M  V30 4 C 0.605964 -0.42308 -1.03323 0
M  V30 5 C 0.822961 0.139304 0.207709 0
M  V30 6 C -0.261676 0.441662 1.01903 0
M  V30 7 C -1.56092 0.193202 0.615183 0
M  V30 8 C -2.74358 0.500901 1.45026 0
M  V30 9 N 2.15527 0.259345 0.318302 0
M  V30 10 N 2.78742 0.795115 1.4495 0
M  V30 11 C 2.80212 -0.190608 -0.772983 0
M  V30 12 N 4.19687 -0.229862 -1.02868 0
M  V30 13 N 1.80552 -0.61375 -1.6067 0
M  V30 14 H -3.42072 0.124351 -1.83671 0
M  V30 15 H -3.85991 -0.692389 -0.234628 0
M  V30 16 H -3.12178 -1.62883 -1.59891 0
M  V30 17 H -0.889059 -1.11515 -2.41298 0
M  V30 18 H -0.0806868 0.880682 1.98638 0
M  V30 19 H -3.50561 1.08987 0.905947 0
M  V30 20 H -2.47951 1.09404 2.35277 0
M  V30 21 H -3.13677 -0.469616 1.81851 0
M  V30 22 H 3.7481 0.487033 1.73583 0
M  V30 23 H 2.33495 1.51553 2.04911 0
M  V30 24 H 4.55806 0.121457 -1.92994 0
M  V30 25 H 4.85827 -0.60339 -0.330083 0
M  V30 END ATOM
M  V30 BEGIN BOND
M  V30 1 1 1 2
M  V30 2 2 2 3
M  V30 3 1 3 4
M  V30 4 2 4 5
M  V30 5 1 5 6
M  V30 6 2 6 7
M  V30 7 1 7 8
M  V30 8 1 5 9
M  V30 9 1 9 10
M  V30 10 1 9 11
M  V30 11 1 11 12
M  V30 12 2 11 13
M  V30 13 1 7 2
M  V30 14 1 13 4
M  V30 15 1 1 14
M  V30 16 1 1 15
M  V30 17 1 1 16
M  V30 18 1 3 17
M  V30 19 1 6 18
M  V30 20 1 8 19
M  V30 21 1 8 20
M  V30 22 1 8 21
M  V30 23 1 10 22
M  V30 24 1 10 23
M  V30 25 1 12 24
M  V30 26 1 12 25
M  V30 END BOND
M  V30 END CTAB
M  END
