
     RDKit          3D

  0  0  0  0  0  0  0  0  0  0999 V3000
M  V30 BEGIN CTAB
M  V30 COUNTS 38 40 0 0 0
M  V30 BEGIN ATOM
M  V30 1 N -4.96646 1.77272 1.93101 0
M  V30 2 C -4.73272 1.29715 0.621865 0
M  V30 3 C -3.61631 0.540084 0.349904 0
M  V30 4 C -3.33508 0.0485509 -0.906697 0
M  V30 5 O -2.23656 -0.706257 -1.21331 0
M  V30 6 C -1.25036 -1.09438 -0.345104 0
M  V30 7 C -0.130291 -0.315524 -0.140276 0
M  V30 8 C 0.887576 -0.667557 0.724709 0
M  V30 9 O 2.00424 0.109071 0.928819 0
M  V30 10 C 3.16776 -0.0116858 0.179296 0
M  V30 11 C 4.23316 0.816662 0.464417 0
M  V30 12 C 5.42863 0.768068 -0.227592 0
M  V30 13 N 6.52398 1.61633 0.0620345 0
M  V30 14 C 5.57596 -0.156468 -1.26323 0
M  V30 15 C 4.50891 -0.984303 -1.54694 0
M  V30 16 C 3.31585 -0.925219 -0.845364 0
M  V30 17 C 0.75964 -1.86619 1.4121 0
M  V30 18 C -0.343751 -2.67365 1.23606 0
M  V30 19 C -1.33751 -2.27621 0.35714 0
M  V30 20 C -4.23315 0.348158 -1.9099 0
M  V30 21 C -5.3665 1.10533 -1.67874 0
M  V30 22 C -5.61568 1.5845 -0.392934 0
M  V30 23 H -5.77473 1.45308 2.51104 0
M  V30 24 H -4.33759 2.48052 2.40228 0
M  V30 25 H -2.92453 0.313669 1.13991 0
M  V30 26 H 0.00593715 0.635407 -0.663787 0
M  V30 27 H 4.13876 1.55049 1.27434 0
M  V30 28 H 6.34176 2.61063 0.292805 0
M  V30 29 H 7.5027 1.28033 0.0520642 0
M  V30 30 H 6.49822 -0.222573 -1.82669 0
M  V30 31 H 4.60718 -1.70519 -2.34554 0
M  V30 32 H 2.48105 -1.57073 -1.06512 0
M  V30 33 H 1.55039 -2.15422 2.09339 0
M  V30 34 H -0.474215 -3.61596 1.75767 0
M  V30 35 H -2.20511 -2.90312 0.213607 0
M  V30 36 H -4.09028 0.000386878 -2.93559 0
M  V30 37 H -6.06391 1.34048 -2.448 0
M  V30 38 H -6.49695 2.17762 -0.195985 0
M  V30 END ATOM
M  V30 BEGIN BOND
M  V30 1 1 1 2
M  V30 2 2 2 3
M  V30 3 1 3 4
M  V30 4 1 4 5
M  V30 5 1 5 6
M  V30 6 2 6 7
M  V30 7 1 7 8
M  V30 8 1 8 9
M  V30 9 1 9 10
M  V30 10 2 10 11
M  V30 11 1 11 12
M  V30 12 1 12 13
M  V30 13 2 12 14
M  V30 14 1 14 15
M  V30 15 2 15 16
M  V30 16 2 8 17
M  V30 17 1 17 18
M  V30 18 2 18 19
M  V30 19 2 4 20
M  V30 20 1 20 21
M  V30 21 2 21 22
M  V30 22 1 22 2
M  V30 23 1 19 6
M  V30 24 1 16 10
M  V30 25 1 1 23
M  V30 26 1 1 24
M  V30 27 1 3 25
M  V30 28 1 7 26
M  V30 29 1 11 27
M  V30 30 1 13 28
M  V30 31 1 13 29
M  V30 32 1 14 30
M  V30 33 1 15 31
M  V30 34 1 16 32
M  V30 35 1 17 33
M  V30 36 1 18 34
M  V30 37 1 19 35
M  V30 38 1 20 36
M  V30 39 1 21 37
M  V30 40 1 22 38
M  V30 END BOND
M  V30 END CTAB
M  END
