
     RDKit          3D

  0  0  0  0  0  0  0  0  0  0999 V3000
M  V30 BEGIN CTAB
M  V30 COUNTS 26 26 0 0 0
M  V30 BEGIN ATOM
M  V30 1 C 4.4128 -0.327158 0.443005 0
M  V30 2 O 3.35745 -0.138202 -0.496469 0
M  V30 3 C 2.01879 -0.0486773 -0.0937016 0
M  V30 4 O 1.77639 -0.13957 1.13085 0
M  V30 5 C 0.924607 0.146626 -1.0755 0
M  V30 6 C -0.402214 0.205133 -0.412013 0
M  V30 7 C -0.800931 1.34078 0.262065 0
M  V30 8 N 0.0415775 2.47418 0.335571 0
M  V30 9 C -2.03352 1.44066 0.89832 0
M  V30 10 C -2.86165 0.343848 0.831747 0
M  V30 11 C -2.52997 -0.825968 0.175564 0
M  V30 12 C -1.28466 -0.859721 -0.438755 0
M  V30 13 O -0.914637 -2.01667 -1.10743 0
M  V30 14 N -3.40571 -1.92722 0.130695 0
M  V30 15 H 4.2787 -1.26369 1.01269 0
M  V30 16 H 5.35915 -0.416309 -0.130182 0
M  V30 17 H 4.46223 0.556796 1.09292 0
M  V30 18 H 0.948787 -0.681089 -1.84466 0
M  V30 19 H 1.06839 1.0727 -1.67852 0
M  V30 20 H 0.467507 2.87751 -0.523312 0
M  V30 21 H 0.251876 2.92643 1.24555 0
M  V30 22 H -2.32605 2.36003 1.42931 0
M  V30 23 H -3.83393 0.379186 1.31365 0
M  V30 24 H -1.52571 -2.82144 -1.15463 0
M  V30 25 H -3.80011 -2.2363 -0.766613 0
M  V30 26 H -3.64915 -2.42184 0.997893 0
M  V30 END ATOM
M  V30 BEGIN BOND
M  V30 1 1 1 2
M  V30 2 1 2 3
M  V30 3 2 3 4
M  V30 4 1 3 5
M  V30 5 1 5 6
M  V30 6 2 6 7
M  V30 7 1 7 8
M  V30 8 1 7 9
M  V30 9 2 9 10
M  V30 10 1 10 11
M  V30 11 2 11 12
M  V30 12 1 12 13
M  V30 13 1 11 14
M  V30 14 1 12 6
M  V30 15 1 1 15
M  V30 16 1 1 16
M  V30 17 1 1 17
M  V30 18 1 5 18
M  V30 19 1 5 19
M  V30 20 1 8 20
M  V30 21 1 8 21
M  V30 22 1 9 22
M  V30 23 1 10 23
M  V30 24 1 13 24
M  V30 25 1 14 25
M  V30 26 1 14 26
M  V30 END BOND
M  V30 END CTAB
M  END
