
     RDKit          3D

  0  0  0  0  0  0  0  0  0  0999 V3000
M  V30 BEGIN CTAB
M  V30 COUNTS 21 22 0 0 0
M  V30 BEGIN ATOM
M  V30 1 C -4.15362 0.535151 0.879267 0
M  V30 2 N -2.8583 0.0686392 0.42281 0
M  V30 3 N -2.57182 -0.960552 -0.356873 0
M  V30 4 N -1.26062 -1.02048 -0.516771 0
M  V30 5 C -0.676722 -0.0325428 0.155693 0
M  V30 6 C -1.70157 0.665034 0.757628 0
M  V30 7 C 0.7379 0.306354 0.278993 0
M  V30 8 N 1.28891 1.31715 0.971129 0
M  V30 9 N 2.62077 1.29782 0.83919 0
M  V30 10 C 2.9322 0.256403 0.0483593 0
M  V30 11 N 1.77789 -0.339179 -0.286101 0
M  V30 12 N 1.68033 -1.46359 -1.10159 0
M  V30 13 N 4.2672 -0.0724597 -0.310698 0
M  V30 14 H -4.91691 -0.268199 0.852402 0
M  V30 15 H -4.42695 1.38479 0.186524 0
M  V30 16 H -4.03602 0.971361 1.88673 0
M  V30 17 H -1.57231 1.53565 1.38433 0
M  V30 18 H 1.81765 -1.38968 -2.12669 0
M  V30 19 H 1.46565 -2.37704 -0.648083 0
M  V30 20 H 4.84337 -0.745517 0.263646 0
M  V30 21 H 4.74295 0.330883 -1.15344 0
M  V30 END ATOM
M  V30 BEGIN BOND
M  V30 1 1 1 2
M  V30 2 1 2 3
M  V30 3 2 3 4
M  V30 4 1 4 5
M  V30 5 2 5 6
M  V30 6 1 5 7
M  V30 7 2 7 8
M  V30 8 1 8 9
M  V30 9 2 9 10
M  V30 10 1 10 11
M  V30 11 1 11 12
M  V30 12 1 10 13
M  V30 13 1 6 2
M  V30 14 1 11 7
M  V30 15 1 1 14
M  V30 16 1 1 15
M  V30 17 1 1 16
M  V30 18 1 6 17
M  V30 19 1 12 18
M  V30 20 1 12 19
M  V30 21 1 13 20
M  V30 22 1 13 21
M  V30 END BOND
M  V30 END CTAB
M  END
