
     RDKit          3D

  0  0  0  0  0  0  0  0  0  0999 V3000
M  V30 BEGIN CTAB
M  V30 COUNTS 27 29 0 0 0
M  V30 BEGIN ATOM
M  V30 1 N -5.17887 -0.627933 -0.0388923 0
M  V30 2 C -3.8437 -0.136193 0.0143849 0
M  V30 3 C -2.78703 -1.01828 -0.0546692 0
M  V30 4 C -1.46664 -0.580564 -0.00622941 0
M  V30 5 C -1.1631 0.756697 0.113094 0
M  V30 6 C -2.25779 1.62716 0.180839 0
M  V30 7 C -3.56241 1.19497 0.133004 0
M  V30 8 C 0.100745 1.27002 0.167712 0
M  V30 9 O 0.190982 2.54256 0.279732 0
M  V30 10 C 1.2746 0.572905 0.115743 0
M  V30 11 C 2.48463 1.27676 0.186612 0
M  V30 12 C 3.70071 0.626823 0.139092 0
M  V30 13 C 3.78661 -0.740663 0.0201199 0
M  V30 14 N 5.02263 -1.42715 -0.0304307 0
M  V30 15 C 2.6123 -1.45748 -0.0516135 0
M  V30 16 C 1.38014 -0.796784 -0.00327493 0
M  V30 17 S -0.117602 -1.62831 -0.0875278 0
M  V30 18 H -5.8615 -0.552274 0.727863 0
M  V30 19 H -5.46656 -1.09786 -0.933963 0
M  V30 20 H -2.917 -2.08771 -0.14923 0
M  V30 21 H -2.11785 2.70617 0.276315 0
M  V30 22 H -4.40007 1.88621 0.187049 0
M  V30 23 H 2.48703 2.36775 0.282089 0
M  V30 24 H 4.64807 1.16442 0.193402 0
M  V30 25 H 5.54929 -1.38102 -0.932982 0
M  V30 26 H 5.34312 -1.93508 0.814802 0
M  V30 27 H 2.55926 -2.52514 -0.145439 0
M  V30 END ATOM
M  V30 BEGIN BOND
M  V30 1 1 1 2
M  V30 2 2 2 3
M  V30 3 1 3 4
M  V30 4 2 4 5
M  V30 5 1 5 6
M  V30 6 2 6 7
M  V30 7 1 5 8
M  V30 8 2 8 9
M  V30 9 1 8 10
M  V30 10 2 10 11
M  V30 11 1 11 12
M  V30 12 2 12 13
M  V30 13 1 13 14
M  V30 14 1 13 15
M  V30 15 2 15 16
M  V30 16 1 16 17
M  V30 17 1 7 2
M  V30 18 1 16 10
M  V30 19 1 17 4
M  V30 20 1 1 18
M  V30 21 1 1 19
M  V30 22 1 3 20
M  V30 23 1 6 21
M  V30 24 1 7 22
M  V30 25 1 11 23
M  V30 26 1 12 24
M  V30 27 1 14 25
M  V30 28 1 14 26
M  V30 29 1 15 27
M  V30 END BOND
M  V30 END CTAB
M  END
