
     RDKit          3D

  0  0  0  0  0  0  0  0  0  0999 V3000
M  V30 BEGIN CTAB
M  V30 COUNTS 23 23 0 0 0
M  V30 BEGIN ATOM
M  V30 1 C 2.30261 -1.66694 -0.244347 0
M  V30 2 O 1.55222 -0.962926 0.720024 0
M  V30 3 C 0.57835 -0.0317526 0.365792 0
M  V30 4 C 0.905628 1.3022 0.174814 0
M  V30 5 N 2.24174 1.69746 0.344494 0
M  V30 6 C -0.00667731 2.2735 -0.174359 0
M  V30 7 C -1.31387 1.87036 -0.337316 0
M  V30 8 C -1.67821 0.532091 -0.152308 0
M  V30 9 C -0.735175 -0.417484 0.198459 0
M  V30 10 C -1.1183 -1.82398 0.39303 0
M  V30 11 F -0.805362 -2.25281 1.69148 0
M  V30 12 F -0.597462 -2.67347 -0.55722 0
M  V30 13 F -2.51604 -1.96261 0.344581 0
M  V30 14 N -3.02948 0.119236 -0.322795 0
M  V30 15 H 3.35008 -1.26156 -0.184215 0
M  V30 16 H 2.2963 -2.7587 -0.0951487 0
M  V30 17 H 1.97439 -1.47068 -1.28126 0
M  V30 18 H 2.86262 1.9508 -0.449196 0
M  V30 19 H 2.63109 1.73985 1.30548 0
M  V30 20 H 0.285995 3.31255 -0.316206 0
M  V30 21 H -2.09679 2.56845 -0.61152 0
M  V30 22 H -3.34968 -0.27011 -1.25407 0
M  V30 23 H -3.73397 0.186534 0.441808 0
M  V30 END ATOM
M  V30 BEGIN BOND
M  V30 1 1 1 2
M  V30 2 1 2 3
M  V30 3 2 3 4
M  V30 4 1 4 5
M  V30 5 1 4 6
M  V30 6 2 6 7
M  V30 7 1 7 8
M  V30 8 2 8 9
M  V30 9 1 9 10
M  V30 10 1 10 11
M  V30 11 1 10 12
M  V30 12 1 10 13
M  V30 13 1 8 14
M  V30 14 1 9 3
M  V30 15 1 1 15
M  V30 16 1 1 16
M  V30 17 1 1 17
M  V30 18 1 5 18
M  V30 19 1 5 19
M  V30 20 1 6 20
M  V30 21 1 7 21
M  V30 22 1 14 22
M  V30 23 1 14 23
M  V30 END BOND
M  V30 END CTAB
M  END
