
     RDKit          3D

  0  0  0  0  0  0  0  0  0  0999 V3000
M  V30 BEGIN CTAB
M  V30 COUNTS 34 35 0 0 0
M  V30 BEGIN ATOM
M  V30 1 N -7.19742 0.291312 0.357513 0
M  V30 2 C -5.76609 0.15595 0.291573 0
M  V30 3 C -5.02966 1.21105 -0.18891 0
M  V30 4 C -3.64213 1.11591 -0.267129 0
M  V30 5 C -2.99559 -0.0121148 0.126865 0
M  V30 6 C -3.73913 -1.06202 0.605763 0
M  V30 7 C -5.13293 -0.995122 0.695647 0
M  V30 8 C -1.51813 -0.156672 0.0731769 0
M  V30 9 O -1.12945 -1.3468 0.14676 0
M  V30 10 N -0.698097 0.975202 -0.0483776 0
M  V30 11 C 0.713075 1.01132 -0.116837 0
M  V30 12 O 1.23986 2.18802 -0.227794 0
M  V30 13 N 1.5644 -0.0779567 -0.0765772 0
M  V30 14 C 2.96763 -0.0784332 -0.14187 0
M  V30 15 C 3.80042 1.00218 -0.259908 0
M  V30 16 C 5.19615 0.901594 -0.317474 0
M  V30 17 C 5.81481 -0.314979 -0.256995 0
M  V30 18 C 5.01105 -1.42198 -0.138371 0
M  V30 19 C 3.65381 -1.31613 -0.0829855 0
M  V30 20 Cl 2.68482 -2.7849 0.0698328 0
M  V30 21 N 7.23044 -0.403672 -0.316328 0
M  V30 22 H -7.75011 0.766634 -0.37048 0
M  V30 23 H -7.71667 -0.103945 1.17284 0
M  V30 24 H -5.55468 2.10367 -0.49942 0
M  V30 25 H -3.09889 1.95047 -0.647618 0
M  V30 26 H -3.2814 -2.00486 0.94181 0
M  V30 27 H -5.71467 -1.83382 1.07719 0
M  V30 28 H -1.18978 1.92528 -0.0952692 0
M  V30 29 H 1.10044 -1.03129 0.0148373 0
M  V30 30 H 3.38185 1.99695 -0.313433 0
M  V30 31 H 5.79784 1.7895 -0.410635 0
M  V30 32 H 5.50981 -2.3915 -0.0904388 0
M  V30 33 H 7.80491 -0.507738 0.537343 0
M  V30 34 H 7.68351 -0.361558 -1.24431 0
M  V30 END ATOM
M  V30 BEGIN BOND
M  V30 1 1 1 2
M  V30 2 2 2 3
M  V30 3 1 3 4
M  V30 4 2 4 5
M  V30 5 1 5 6
M  V30 6 2 6 7
M  V30 7 1 5 8
M  V30 8 2 8 9
M  V30 9 1 8 10
M  V30 10 1 10 11
M  V30 11 2 11 12
M  V30 12 1 11 13
M  V30 13 1 13 14
M  V30 14 2 14 15
M  V30 15 1 15 16
M  V30 16 2 16 17
M  V30 17 1 17 18
M  V30 18 2 18 19
M  V30 19 1 19 20
M  V30 20 1 17 21
M  V30 21 1 7 2
M  V30 22 1 19 14
M  V30 23 1 1 22
M  V30 24 1 1 23
M  V30 25 1 3 24
M  V30 26 1 4 25
M  V30 27 1 6 26
M  V30 28 1 7 27
M  V30 29 1 10 28
M  V30 30 1 13 29
M  V30 31 1 15 30
M  V30 32 1 16 31
M  V30 33 1 18 32
M  V30 34 1 21 33
M  V30 35 1 21 34
M  V30 END BOND
M  V30 END CTAB
M  END
