
     RDKit          3D

  0  0  0  0  0  0  0  0  0  0999 V3000
M  V30 BEGIN CTAB
M  V30 COUNTS 37 39 0 0 0
M  V30 BEGIN ATOM
M  V30 1 C 1.64609 -1.6555 1.95548 0
M  V30 2 C 1.37523 -1.12143 0.550208 0 CFG=1
M  V30 3 O 0.160015 -0.431438 0.500967 0
M  V30 4 C -0.93392 -0.760635 -0.266063 0
M  V30 5 C -1.01388 -1.82321 -1.1275 0
M  V30 6 C -2.15347 -2.10957 -1.88265 0
M  V30 7 C -3.25553 -1.32433 -1.78921 0
M  V30 8 C -3.20925 -0.240762 -0.927083 0
M  V30 9 N -4.31622 0.552597 -0.827551 0
M  V30 10 C -4.28084 1.60994 0.01138 0
M  V30 11 N -5.45303 2.39834 0.0765099 0
M  V30 12 N -3.18935 1.8941 0.742751 0
M  V30 13 C -2.07699 1.12274 0.662802 0
M  V30 14 N -0.916671 1.39134 1.41831 0
M  V30 15 C -2.08598 0.0389167 -0.184655 0
M  V30 16 C 2.5433 -0.31288 0.0881184 0
M  V30 17 C 3.47841 -0.82791 -0.803295 0
M  V30 18 C 4.56355 -0.149837 -1.26033 0
M  V30 19 C 4.77835 1.13332 -0.830811 0
M  V30 20 C 3.88285 1.69828 0.0553932 0
M  V30 21 Cl 4.17572 3.32871 0.587121 0
M  V30 22 C 2.77304 0.976506 0.510093 0
M  V30 23 H 0.767757 -2.24218 2.24798 0
M  V30 24 H 1.80106 -0.853896 2.6745 0
M  V30 25 H 2.50264 -2.3378 1.87788 0
M  V30 26 H 1.3707 -2.02615 -0.0853826 0
M  V30 27 H -0.143103 -2.47372 -1.22549 0
M  V30 28 H -2.14994 -2.96094 -2.54124 0
M  V30 29 H -4.17441 -1.48172 -2.34122 0
M  V30 30 H -5.84726 2.67236 0.991363 0
M  V30 31 H -5.91307 2.69885 -0.795002 0
M  V30 32 H -0.21431 2.052 1.053 0
M  V30 33 H -0.783367 0.924386 2.32803 0
M  V30 34 H 3.29477 -1.85368 -1.13827 0
M  V30 35 H 5.24582 -0.629206 -1.95761 0
M  V30 36 H 5.64847 1.66719 -1.2018 0
M  V30 37 H 2.10281 1.45722 1.20292 0
M  V30 END ATOM
M  V30 BEGIN BOND
M  V30 1 1 1 2
M  V30 2 1 2 3
M  V30 3 1 3 4
M  V30 4 2 4 5
M  V30 5 1 5 6
M  V30 6 2 6 7
M  V30 7 1 7 8
M  V30 8 2 8 9
M  V30 9 1 9 10
M  V30 10 1 10 11
M  V30 11 2 10 12
M  V30 12 1 12 13
M  V30 13 1 13 14
M  V30 14 2 13 15
M  V30 15 1 2 16
M  V30 16 2 16 17
M  V30 17 1 17 18
M  V30 18 2 18 19
M  V30 19 1 19 20
M  V30 20 1 20 21
M  V30 21 2 20 22
M  V30 22 1 15 4
M  V30 23 1 22 16
M  V30 24 1 15 8
M  V30 25 1 1 23
M  V30 26 1 1 24
M  V30 27 1 1 25
M  V30 28 1 2 26 CFG=3
M  V30 29 1 5 27
M  V30 30 1 6 28
M  V30 31 1 7 29
M  V30 32 1 11 30
M  V30 33 1 11 31
M  V30 34 1 14 32
M  V30 35 1 14 33
M  V30 36 1 17 34
M  V30 37 1 18 35
M  V30 38 1 19 36
M  V30 39 1 22 37
M  V30 END BOND
M  V30 END CTAB
M  END
