
     RDKit          3D

  0  0  0  0  0  0  0  0  0  0999 V3000
M  V30 BEGIN CTAB
M  V30 COUNTS 33 32 0 0 0
M  V30 BEGIN ATOM
M  V30 1 C 2.20631 1.80288 -0.306178 0
M  V30 2 C 1.58235 0.386742 -0.514413 0
M  V30 3 C 2.50036 -0.495779 0.308769 0
M  V30 4 N 3.82202 -0.287123 -0.293346 0
M  V30 5 C 0.198255 0.510884 0.00498725 0
M  V30 6 C -0.703808 -0.648169 -0.0491836 0
M  V30 7 C -0.283839 -1.88111 0.690147 0
M  V30 8 C -0.974133 -1.11296 -1.48692 0
M  V30 9 C -2.05198 -0.260178 0.540526 0
M  V30 10 C -2.74501 0.851115 -0.158079 0
M  V30 11 N -4.03211 1.0735 0.52504 0
M  V30 12 H 1.4539 2.55668 -0.606864 0
M  V30 13 H 2.34606 1.87286 0.792092 0
M  V30 14 H 3.1604 1.87571 -0.838605 0
M  V30 15 H 1.67236 0.171177 -1.57762 0
M  V30 16 H 2.26418 -1.56994 0.253784 0
M  V30 17 H 2.49826 -0.123913 1.34868 0
M  V30 18 H 4.39574 0.367856 0.244748 0
M  V30 19 H 4.26932 -1.16433 -0.574961 0
M  V30 20 H -0.277922 1.37459 -0.556313 0
M  V30 21 H 0.258786 0.878346 1.06043 0
M  V30 22 H 0.302227 -1.69994 1.6017 0
M  V30 23 H 0.175729 -2.64198 0.0221442 0
M  V30 24 H -1.22959 -2.37795 1.06279 0
M  V30 25 H -1.13115 -0.27878 -2.16948 0
M  V30 26 H -1.88699 -1.74644 -1.4393 0
M  V30 27 H -0.13208 -1.76036 -1.76193 0
M  V30 28 H -2.69575 -1.16593 0.672244 0
M  V30 29 H -1.84569 0.0768534 1.59821 0
M  V30 30 H -2.87505 0.690691 -1.23894 0
M  V30 31 H -2.12329 1.78854 -0.0480669 0
M  V30 32 H -4.21827 2.10454 0.496422 0
M  V30 33 H -3.89959 0.831936 1.54514 0
M  V30 END ATOM
M  V30 BEGIN BOND
M  V30 1 1 1 2
M  V30 2 1 2 3
M  V30 3 1 3 4
M  V30 4 1 2 5
M  V30 5 1 5 6
M  V30 6 1 6 7
M  V30 7 1 6 8
M  V30 8 1 6 9
M  V30 9 1 9 10
M  V30 10 1 10 11
M  V30 11 1 1 12
M  V30 12 1 1 13
M  V30 13 1 1 14
M  V30 14 1 2 15
M  V30 15 1 3 16
M  V30 16 1 3 17
M  V30 17 1 4 18
M  V30 18 1 4 19
M  V30 19 1 5 20
M  V30 20 1 5 21
M  V30 21 1 7 22
M  V30 22 1 7 23
M  V30 23 1 7 24
M  V30 24 1 8 25
M  V30 25 1 8 26
M  V30 26 1 8 27
M  V30 27 1 9 28
M  V30 28 1 9 29
M  V30 29 1 10 30
M  V30 30 1 10 31
M  V30 31 1 11 32
M  V30 32 1 11 33
M  V30 END BOND
M  V30 END CTAB
M  END
