
     RDKit          3D

  0  0  0  0  0  0  0  0  0  0999 V3000
M  V30 BEGIN CTAB
M  V30 COUNTS 16 16 0 0 0
M  V30 BEGIN ATOM
M  V30 1 N -2.48641 -1.01822 0.329105 0
M  V30 2 C -1.25663 -0.316026 0.176036 0
M  V30 3 C -0.0730061 -0.998431 -0.0363738 0
M  V30 4 C 1.12989 -0.334579 -0.187182 0
M  V30 5 N 2.32397 -1.0698 -0.403715 0
M  V30 6 C 1.20029 1.04173 -0.131902 0
M  V30 7 C 0.0210039 1.72316 0.0798032 0
M  V30 8 C -1.18073 1.06009 0.230472 0
M  V30 9 Br 0.125908 3.63997 0.155743 0
M  V30 10 Br 2.85023 1.98573 -0.337142 0
M  V30 11 H -3.38256 -0.591055 0.00536608 0
M  V30 12 H -2.55545 -1.96729 0.75942 0
M  V30 13 H -0.127365 -2.09327 -0.0805991 0
M  V30 14 H 3.01064 -0.732389 -1.0999 0
M  V30 15 H 2.49721 -1.94734 0.144555 0
M  V30 16 H -2.09698 1.61772 0.396313 0
M  V30 END ATOM
M  V30 BEGIN BOND
M  V30 1 1 1 2
M  V30 2 2 2 3
M  V30 3 1 3 4
M  V30 4 1 4 5
M  V30 5 2 4 6
M  V30 6 1 6 7
M  V30 7 2 7 8
M  V30 8 1 7 9
M  V30 9 1 6 10
M  V30 10 1 8 2
M  V30 11 1 1 11
M  V30 12 1 1 12
M  V30 13 1 3 13
M  V30 14 1 5 14
M  V30 15 1 5 15
M  V30 16 1 8 16
M  V30 END BOND
M  V30 END CTAB
M  END
