
     RDKit          3D

  0  0  0  0  0  0  0  0  0  0999 V3000
M  V30 BEGIN CTAB
M  V30 COUNTS 25 24 0 0 0
M  V30 BEGIN ATOM
M  V30 1 N 3.24171 -0.490096 1.35609 0
M  V30 2 C 2.46409 0.10212 0.34271 0
M  V30 3 N 1.45415 -0.539527 -0.139263 0
M  V30 4 C 0.605696 -0.00271745 -1.18028 0
M  V30 5 C -0.610756 0.680547 -0.583318 0
M  V30 6 C -1.45451 -0.250081 0.237412 0
M  V30 7 O -0.673412 -0.746371 1.27802 0
M  V30 8 C -2.56329 0.567071 0.860972 0
M  V30 9 C -2.00659 -1.40061 -0.52923 0
M  V30 10 N 2.76579 1.38817 -0.160397 0
M  V30 11 H 3.09076 -0.398431 2.36991 0
M  V30 12 H 4.05818 -1.0852 1.03178 0
M  V30 13 H 0.349358 -0.740683 -1.94621 0
M  V30 14 H 1.19781 0.809804 -1.67363 0
M  V30 15 H -0.212263 1.45783 0.123703 0
M  V30 16 H -1.18006 1.23762 -1.35364 0
M  V30 17 H -1.06586 -1.6057 1.62914 0
M  V30 18 H -2.78394 0.277873 1.89981 0
M  V30 19 H -3.52198 0.433241 0.286528 0
M  V30 20 H -2.33068 1.65605 0.8539 0
M  V30 21 H -1.62972 -2.39171 -0.140496 0
M  V30 22 H -1.85157 -1.33596 -1.62581 0
M  V30 23 H -3.10489 -1.43874 -0.377304 0
M  V30 24 H 2.07166 2.17443 -0.122235 0
M  V30 25 H 3.69031 1.64106 -0.599784 0
M  V30 END ATOM
M  V30 BEGIN BOND
M  V30 1 1 1 2
M  V30 2 2 2 3 CFG=2
M  V30 3 1 3 4
M  V30 4 1 4 5
M  V30 5 1 5 6
M  V30 6 1 6 7
M  V30 7 1 6 8
M  V30 8 1 6 9
M  V30 9 1 2 10
M  V30 10 1 1 11
M  V30 11 1 1 12
M  V30 12 1 4 13
M  V30 13 1 4 14
M  V30 14 1 5 15
M  V30 15 1 5 16
M  V30 16 1 7 17
M  V30 17 1 8 18
M  V30 18 1 8 19
M  V30 19 1 8 20
M  V30 20 1 9 21
M  V30 21 1 9 22
M  V30 22 1 9 23
M  V30 23 1 10 24
M  V30 24 1 10 25
M  V30 END BOND
M  V30 END CTAB
M  END
