
     RDKit          3D

  0  0  0  0  0  0  0  0  0  0999 V3000
M  V30 BEGIN CTAB
M  V30 COUNTS 21 21 0 0 0
M  V30 BEGIN ATOM
M  V30 1 N -2.09474 -2.02928 0.310496 0
M  V30 2 C -1.36244 -0.860401 0.171601 0
M  V30 3 C 0.0300588 -0.95075 0.00345497 0
M  V30 4 C 0.870476 0.127685 -0.146457 0
M  V30 5 C 0.298766 1.33359 -0.126252 0
M  V30 6 C -1.08973 1.4886 0.0388399 0
M  V30 7 C -1.90714 0.395237 0.185836 0
M  V30 8 N -3.29683 0.605547 0.348207 0
M  V30 9 Br -1.82927 3.21848 0.0593211 0
M  V30 10 S 2.83953 -0.0657985 -0.431106 0
M  V30 11 F 3.43443 -0.477104 1.60162 0
M  V30 12 F 4.08577 1.63014 0.699071 0
M  V30 13 F 3.90812 1.49452 -1.61263 0
M  V30 14 F 4.01175 -1.85678 -0.272706 0
M  V30 15 F 3.12487 -0.677029 -2.16994 0
M  V30 16 H -2.06243 -2.83598 -0.375618 0
M  V30 17 H -2.7416 -2.17444 1.13625 0
M  V30 18 H 0.566051 -1.90123 -0.0206023 0
M  V30 19 H 0.885913 2.20582 -0.236142 0
M  V30 20 H -3.89475 -0.174505 0.698963 0
M  V30 21 H -3.77681 1.50369 0.137793 0
M  V30 END ATOM
M  V30 BEGIN BOND
M  V30 1 1 1 2
M  V30 2 2 2 3
M  V30 3 1 3 4
M  V30 4 2 4 5
M  V30 5 1 5 6
M  V30 6 2 6 7
M  V30 7 1 7 8
M  V30 8 1 6 9
M  V30 9 1 4 10
M  V30 10 1 10 11
M  V30 11 1 10 12
M  V30 12 1 10 13
M  V30 13 1 10 14
M  V30 14 1 10 15
M  V30 15 1 7 2
M  V30 16 1 1 16
M  V30 17 1 1 17
M  V30 18 1 3 18
M  V30 19 1 5 19
M  V30 20 1 8 20
M  V30 21 1 8 21
M  V30 END BOND
M  V30 END CTAB
M  END
