
     RDKit          3D

  0  0  0  0  0  0  0  0  0  0999 V3000
M  V30 BEGIN CTAB
M  V30 COUNTS 29 30 0 0 0
M  V30 BEGIN ATOM
M  V30 1 C -2.48599 -1.7457 -0.864026 0
M  V30 2 N -1.59611 -0.766359 -0.244957 0
M  V30 3 C -0.40332 -1.12305 0.257546 0
M  V30 4 O -0.104274 -2.35578 0.159298 0
M  V30 5 N 0.44404 -0.234872 0.838423 0
M  V30 6 C 1.67626 -0.727116 1.35705 0
M  V30 7 C 2.81895 -0.824664 0.418247 0
M  V30 8 C 3.38768 0.358651 -0.306709 0
M  V30 9 C 2.64728 -0.72261 -1.05289 0
M  V30 10 C 0.0856274 1.05444 0.920005 0
M  V30 11 O 0.800708 1.94488 1.44121 0
M  V30 12 C -1.14585 1.48802 0.413624 0
M  V30 13 N -1.55999 2.83551 0.479117 0
M  V30 14 C -1.94014 0.52576 -0.156658 0
M  V30 15 N -3.1927 0.922809 -0.680266 0
M  V30 16 H -2.75416 -2.50245 -0.07234 0
M  V30 17 H -2.04638 -2.21034 -1.74805 0
M  V30 18 H -3.43294 -1.25891 -1.13727 0
M  V30 19 H 2.01809 -0.0703362 2.21522 0
M  V30 20 H 1.54923 -1.72842 1.87274 0
M  V30 21 H 3.62159 -1.57429 0.7077 0
M  V30 22 H 4.4859 0.362898 -0.551456 0
M  V30 23 H 2.97995 1.36138 -0.254375 0
M  V30 24 H 1.68328 -0.381682 -1.48722 0
M  V30 25 H 3.20262 -1.40951 -1.72097 0
M  V30 26 H -1.51907 3.33044 1.38231 0
M  V30 27 H -1.90118 3.33153 -0.356395 0
M  V30 28 H -3.93763 1.39624 -0.141438 0
M  V30 29 H -3.38147 0.72353 -1.68748 0
M  V30 END ATOM
M  V30 BEGIN BOND
M  V30 1 1 1 2
M  V30 2 1 2 3
M  V30 3 2 3 4
M  V30 4 1 3 5
M  V30 5 1 5 6
M  V30 6 1 6 7
M  V30 7 1 7 8
M  V30 8 1 8 9
M  V30 9 1 5 10
M  V30 10 2 10 11
M  V30 11 1 10 12
M  V30 12 1 12 13
M  V30 13 2 12 14
M  V30 14 1 14 15
M  V30 15 1 14 2
M  V30 16 1 9 7
M  V30 17 1 1 16
M  V30 18 1 1 17
M  V30 19 1 1 18
M  V30 20 1 6 19
M  V30 21 1 6 20
M  V30 22 1 7 21
M  V30 23 1 8 22
M  V30 24 1 8 23
M  V30 25 1 9 24
M  V30 26 1 9 25
M  V30 27 1 13 26
M  V30 28 1 13 27
M  V30 29 1 15 28
M  V30 30 1 15 29
M  V30 END BOND
M  V30 END CTAB
M  END
