
     RDKit          3D

  0  0  0  0  0  0  0  0  0  0999 V3000
M  V30 BEGIN CTAB
M  V30 COUNTS 29 29 0 0 0
M  V30 BEGIN ATOM
M  V30 1 C -2.40089 0.857529 0.666928 0
M  V30 2 C -3.23744 -0.329332 0.352949 0
M  V30 3 C -2.46599 -1.59606 0.316601 0
M  V30 4 S -1.16472 -1.75988 -0.864034 0
M  V30 5 C 0.248786 -0.740627 -0.653131 0
M  V30 6 C 0.379575 0.456853 -1.31343 0
M  V30 7 C 1.50569 1.24531 -1.13756 0
M  V30 8 C 2.50382 0.798415 -0.276185 0
M  V30 9 C 2.40933 -0.40012 0.406414 0
M  V30 10 C 1.27841 -1.14655 0.201564 0
M  V30 11 C 3.52321 -0.79742 1.30445 0
M  V30 12 N 3.63789 1.61799 -0.118165 0
M  V30 13 N -3.89802 -0.151899 -0.930715 0
M  V30 14 H -2.30902 1.49758 -0.242275 0
M  V30 15 H -1.4654 0.645874 1.17636 0
M  V30 16 H -2.97338 1.54162 1.38378 0
M  V30 17 H -4.0444 -0.457317 1.12129 0
M  V30 18 H -2.01402 -1.75507 1.34876 0
M  V30 19 H -3.15498 -2.49538 0.234352 0
M  V30 20 H -0.408602 0.81246 -1.99618 0
M  V30 21 H 1.58372 2.17065 -1.66122 0
M  V30 22 H 1.19851 -2.10341 0.742452 0
M  V30 23 H 3.54407 -0.0394719 2.13028 0
M  V30 24 H 3.40754 -1.82459 1.69293 0
M  V30 25 H 4.47388 -0.719454 0.721659 0
M  V30 26 H 3.85888 2.01349 0.806979 0
M  V30 27 H 4.2455 1.82245 -0.925052 0
M  V30 28 H -4.85665 0.208939 -0.733886 0
M  V30 29 H -3.40528 0.627414 -1.41893 0
M  V30 END ATOM
M  V30 BEGIN BOND
M  V30 1 1 1 2
M  V30 2 1 2 3
M  V30 3 1 3 4
M  V30 4 1 4 5
M  V30 5 2 5 6
M  V30 6 1 6 7
M  V30 7 2 7 8
M  V30 8 1 8 9
M  V30 9 2 9 10
M  V30 10 1 9 11
M  V30 11 1 8 12
M  V30 12 1 2 13
M  V30 13 1 10 5
M  V30 14 1 1 14
M  V30 15 1 1 15
M  V30 16 1 1 16
M  V30 17 1 2 17
M  V30 18 1 3 18
M  V30 19 1 3 19
M  V30 20 1 6 20
M  V30 21 1 7 21
M  V30 22 1 10 22
M  V30 23 1 11 23
M  V30 24 1 11 24
M  V30 25 1 11 25
M  V30 26 1 12 26
M  V30 27 1 12 27
M  V30 28 1 13 28
M  V30 29 1 13 29
M  V30 END BOND
M  V30 END CTAB
M  END
