
     RDKit          3D

  0  0  0  0  0  0  0  0  0  0999 V3000
M  V30 BEGIN CTAB
M  V30 COUNTS 29 30 0 0 0
M  V30 BEGIN ATOM
M  V30 1 N -5.67507 0.373128 -0.325461 0
M  V30 2 C -4.25954 0.245654 -0.380274 0
M  V30 3 C -3.58814 -0.584629 0.493664 0
M  V30 4 C -2.19779 -0.71249 0.442948 0
M  V30 5 N -1.52992 -1.5713 1.35074 0
M  V30 6 C -1.45491 -0.0199 -0.473661 0
M  V30 7 C -2.12064 0.814522 -1.35326 0
M  V30 8 C -3.49494 0.93678 -1.2983 0
M  V30 9 N -0.0466685 -0.103999 -0.578093 0
M  V30 10 N 0.75009 0.437878 0.227257 0
M  V30 11 C 2.14432 0.294554 0.0357718 0
M  V30 12 C 3.05983 1.1375 0.622108 0
M  V30 13 C 4.4049 0.942386 0.39419 0
M  V30 14 C 4.88789 -0.0719526 -0.4052 0
M  V30 15 O 6.24411 -0.231686 -0.606895 0
M  V30 16 C 3.97847 -0.921006 -0.996537 0
M  V30 17 C 2.62492 -0.71942 -0.763198 0
M  V30 18 H -6.22086 0.427648 0.562685 0
M  V30 19 H -6.23011 0.417517 -1.20863 0
M  V30 20 H -4.1465 -1.13351 1.2157 0
M  V30 21 H -1.12949 -2.48956 1.03473 0
M  V30 22 H -1.44984 -1.26298 2.33689 0
M  V30 23 H -1.53265 1.37572 -2.09397 0
M  V30 24 H -4.02485 1.59182 -1.98775 0
M  V30 25 H 2.73568 1.94907 1.258 0
M  V30 26 H 5.08983 1.64058 0.884176 0
M  V30 27 H 6.91634 0.381401 -0.180829 0
M  V30 28 H 4.32035 -1.73979 -1.63898 0
M  V30 29 H 1.94521 -1.40394 -1.24312 0
M  V30 END ATOM
M  V30 BEGIN BOND
M  V30 1 1 1 2
M  V30 2 2 2 3
M  V30 3 1 3 4
M  V30 4 1 4 5
M  V30 5 2 4 6
M  V30 6 1 6 7
M  V30 7 2 7 8
M  V30 8 1 6 9
M  V30 9 2 9 10 CFG=2
M  V30 10 1 10 11
M  V30 11 2 11 12
M  V30 12 1 12 13
M  V30 13 2 13 14
M  V30 14 1 14 15
M  V30 15 1 14 16
M  V30 16 2 16 17
M  V30 17 1 8 2
M  V30 18 1 17 11
M  V30 19 1 1 18
M  V30 20 1 1 19
M  V30 21 1 3 20
M  V30 22 1 5 21
M  V30 23 1 5 22
M  V30 24 1 7 23
M  V30 25 1 8 24
M  V30 26 1 12 25
M  V30 27 1 13 26
M  V30 28 1 15 27
M  V30 29 1 16 28
M  V30 30 1 17 29
M  V30 END BOND
M  V30 END CTAB
M  END
