
     RDKit          3D

  0  0  0  0  0  0  0  0  0  0999 V3000
M  V30 BEGIN CTAB
M  V30 COUNTS 24 24 0 0 0
M  V30 BEGIN ATOM
M  V30 1 N 3.78885 0.442077 -0.190033 0
M  V30 2 C 2.90586 0.00522637 0.811976 0
M  V30 3 N 1.69088 -0.246201 0.527542 0
M  V30 4 C 1.09511 -0.132784 -0.737783 0
M  V30 5 N 1.64584 0.610543 -1.63506 0
M  V30 6 N -0.105941 -0.826977 -1.03969 0
M  V30 7 C -1.36184 -0.405077 -0.530915 0
M  V30 8 C -1.46926 0.713837 0.290332 0
M  V30 9 C -2.69349 1.11546 0.779352 0
M  V30 10 C -3.85519 0.434648 0.480684 0
M  V30 11 C -3.7434 -0.67426 -0.33409 0
M  V30 12 C -2.52541 -1.0824 -0.826773 0
M  V30 13 Cl -2.42835 -2.49932 -1.86035 0
M  V30 14 N 3.37359 -0.151706 2.12835 0
M  V30 15 H 4.33591 -0.237312 -0.798761 0
M  V30 16 H 3.96693 1.44537 -0.403749 0
M  V30 17 H 1.23013 0.709261 -2.56568 0
M  V30 18 H -0.0889633 -1.66225 -1.64246 0
M  V30 19 H -0.555651 1.26703 0.53798 0
M  V30 20 H -2.796 1.99515 1.42798 0
M  V30 21 H -4.82671 0.75821 0.87224 0
M  V30 22 H -4.65074 -1.2216 -0.578569 0
M  V30 23 H 3.08728 0.578755 2.82803 0
M  V30 24 H 3.98056 -0.935685 2.45945 0
M  V30 END ATOM
M  V30 BEGIN BOND
M  V30 1 1 1 2
M  V30 2 2 2 3 CFG=2
M  V30 3 1 3 4
M  V30 4 2 4 5 CFG=2
M  V30 5 1 4 6
M  V30 6 1 6 7
M  V30 7 2 7 8
M  V30 8 1 8 9
M  V30 9 2 9 10
M  V30 10 1 10 11
M  V30 11 2 11 12
M  V30 12 1 12 13
M  V30 13 1 2 14
M  V30 14 1 12 7
M  V30 15 1 1 15
M  V30 16 1 1 16
M  V30 17 1 5 17
M  V30 18 1 6 18
M  V30 19 1 8 19
M  V30 20 1 9 20
M  V30 21 1 10 21
M  V30 22 1 11 22
M  V30 23 1 14 23
M  V30 24 1 14 24
M  V30 END BOND
M  V30 END CTAB
M  END
