
     RDKit          3D

  0  0  0  0  0  0  0  0  0  0999 V3000
M  V30 BEGIN CTAB
M  V30 COUNTS 23 24 0 0 0
M  V30 BEGIN ATOM
M  V30 1 N 2.6902 -0.441991 -0.0407743 0
M  V30 2 C 1.6707 0.588669 -0.159579 0
M  V30 3 C 0.353125 0.0454289 0.407687 0
M  V30 4 N 0.625179 -0.280043 1.79574 0
M  V30 5 C -0.0586485 -1.13868 -0.401992 0
M  V30 6 C -1.37932 -0.815076 -1.04668 0
M  V30 7 C -1.64814 0.622721 -0.755143 0
M  V30 8 C -0.677133 1.11406 0.245308 0
M  V30 9 C -2.08288 0.921483 0.650701 0
M  V30 10 H 3.61432 0.0805492 -0.036241 0
M  V30 11 H 2.68831 -1.08277 -0.862624 0
M  V30 12 H 1.96209 1.52646 0.359513 0
M  V30 13 H 1.4811 0.849932 -1.22152 0
M  V30 14 H 1.37752 -1.0313 1.763 0
M  V30 15 H -0.202875 -0.568983 2.32632 0
M  V30 16 H -0.171042 -2.05189 0.227811 0
M  V30 17 H 0.665719 -1.35943 -1.22258 0
M  V30 18 H -2.18357 -1.42014 -0.574085 0
M  V30 19 H -1.38242 -0.991274 -2.14382 0
M  V30 20 H -1.93844 1.3196 -1.57941 0
M  V30 21 H -0.294051 2.16207 0.202623 0
M  V30 22 H -2.70108 1.83919 0.738661 0
M  V30 23 H -2.40866 0.111401 1.32707 0
M  V30 END ATOM
M  V30 BEGIN BOND
M  V30 1 1 1 2
M  V30 2 1 2 3
M  V30 3 1 3 4
M  V30 4 1 3 5
M  V30 5 1 5 6
M  V30 6 1 6 7
M  V30 7 1 7 8
M  V30 8 1 8 9
M  V30 9 1 8 3
M  V30 10 1 9 7
M  V30 11 1 1 10
M  V30 12 1 1 11
M  V30 13 1 2 12
M  V30 14 1 2 13
M  V30 15 1 4 14
M  V30 16 1 4 15
M  V30 17 1 5 16
M  V30 18 1 5 17
M  V30 19 1 6 18
M  V30 20 1 6 19
M  V30 21 1 7 20
M  V30 22 1 8 21
M  V30 23 1 9 22
M  V30 24 1 9 23
M  V30 END BOND
M  V30 END CTAB
M  END
