
     RDKit          3D

  0  0  0  0  0  0  0  0  0  0999 V3000
M  V30 BEGIN CTAB
M  V30 COUNTS 29 30 0 0 0
M  V30 BEGIN ATOM
M  V30 1 N -0.413201 -3.29035 0.308354 0
M  V30 2 C -0.775858 -2.18849 0.216701 0
M  V30 3 C -1.20524 -0.813627 0.0943542 0
M  V30 4 C -0.26812 0.176913 0.010105 0
M  V30 5 C 1.18032 -0.0732191 0.038919 0
M  V30 6 C 1.84741 -0.612843 -1.04014 0
M  V30 7 C 3.22445 -0.84173 -1.01934 0
M  V30 8 C 3.97233 -0.530987 0.0960799 0
M  V30 9 C 3.30874 0.0091981 1.17943 0
M  V30 10 C 1.93481 0.234989 1.15268 0
M  V30 11 O 5.35351 -0.7628 0.106393 0
M  V30 12 C -0.705084 1.49775 -0.108152 0
M  V30 13 C 0.287932 2.52764 -0.186894 0
M  V30 14 N 1.10701 3.36529 -0.230875 0
M  V30 15 C -2.04897 1.73293 -0.133634 0
M  V30 16 O -2.44291 2.9359 -0.240081 0
M  V30 17 N -2.94758 0.735056 -0.0490532 0
M  V30 18 C -2.56417 -0.559165 0.0668951 0
M  V30 19 N -3.48972 -1.63198 0.157465 0
M  V30 20 N -4.30766 1.04396 -0.0840782 0
M  V30 21 H 1.28209 -0.868266 -1.93045 0
M  V30 22 H 3.75318 -1.26007 -1.84953 0
M  V30 23 H 3.88815 0.251357 2.05447 0
M  V30 24 H 1.42033 0.65543 1.99795 0
M  V30 25 H 5.94137 0.0145892 -0.229573 0
M  V30 26 H -4.44438 -1.57445 -0.300071 0
M  V30 27 H -3.21359 -2.48887 0.692354 0
M  V30 28 H -4.8341 1.40788 0.733657 0
M  V30 29 H -4.84105 0.907972 -0.96904 0
M  V30 END ATOM
M  V30 BEGIN BOND
M  V30 1 3 1 2
M  V30 2 1 2 3
M  V30 3 1 3 4
M  V30 4 1 4 5
M  V30 5 2 5 6
M  V30 6 1 6 7
M  V30 7 2 7 8
M  V30 8 1 8 9
M  V30 9 2 9 10
M  V30 10 1 8 11
M  V30 11 2 4 12
M  V30 12 1 12 13
M  V30 13 3 13 14
M  V30 14 1 12 15
M  V30 15 2 15 16
M  V30 16 1 15 17
M  V30 17 1 17 18
M  V30 18 1 18 19
M  V30 19 1 17 20
M  V30 20 2 18 3
M  V30 21 1 10 5
M  V30 22 1 6 21
M  V30 23 1 7 22
M  V30 24 1 9 23
M  V30 25 1 10 24
M  V30 26 1 11 25
M  V30 27 1 19 26
M  V30 28 1 19 27
M  V30 29 1 20 28
M  V30 30 1 20 29
M  V30 END BOND
M  V30 END CTAB
M  END
