
     RDKit          3D

  0  0  0  0  0  0  0  0  0  0999 V3000
M  V30 BEGIN CTAB
M  V30 COUNTS 28 28 0 0 0
M  V30 BEGIN ATOM
M  V30 1 N -2.61376 1.92212 -0.104384 0
M  V30 2 C -2.55482 0.489182 0.10372 0
M  V30 3 C -1.30911 -0.113702 -0.53301 0 CFG=2
M  V30 4 C -1.3431 -1.59586 -0.261269 0
M  V30 5 O -0.263318 -2.27948 -0.753111 0
M  V30 6 C 0.794506 -2.39281 0.138923 0
M  V30 7 C 1.49839 -1.08731 0.37764 0
M  V30 8 N 1.0714 -0.038134 -0.496892 0
M  V30 9 C -0.111815 0.572734 0.0458756 0
M  V30 10 S 2.32913 1.0676 -0.823559 0
M  V30 11 O 1.81183 2.10911 -1.78697 0
M  V30 12 O 3.46228 0.320294 -1.46269 0
M  V30 13 N 2.92239 1.87251 0.552425 0
M  V30 14 H -2.46791 2.46791 0.756838 0
M  V30 15 H -3.48338 2.16589 -0.596694 0
M  V30 16 H -3.41929 0.00277819 -0.408695 0
M  V30 17 H -2.57829 0.280214 1.18726 0
M  V30 18 H -1.29247 0.0195113 -1.61907 0
M  V30 19 H -2.25196 -1.98459 -0.796484 0
M  V30 20 H -1.54526 -1.81733 0.819897 0
M  V30 21 H 0.481134 -2.85953 1.09766 0
M  V30 22 H 1.52291 -3.09797 -0.32167 0
M  V30 23 H 1.24781 -0.763496 1.42865 0
M  V30 24 H 2.59127 -1.20808 0.287189 0
M  V30 25 H -0.174285 1.63864 -0.198778 0
M  V30 26 H -0.0875107 0.491654 1.17165 0
M  V30 27 H 2.26787 2.51277 1.01241 0
M  V30 28 H 3.49537 1.30535 1.18314 0
M  V30 END ATOM
M  V30 BEGIN BOND
M  V30 1 1 1 2
M  V30 2 1 2 3
M  V30 3 1 3 4
M  V30 4 1 4 5
M  V30 5 1 5 6
M  V30 6 1 6 7
M  V30 7 1 7 8
M  V30 8 1 8 9
M  V30 9 1 8 10
M  V30 10 2 10 11
M  V30 11 2 10 12
M  V30 12 1 10 13
M  V30 13 1 9 3
M  V30 14 1 1 14
M  V30 15 1 1 15
M  V30 16 1 2 16
M  V30 17 1 2 17
M  V30 18 1 3 18 CFG=3
M  V30 19 1 4 19
M  V30 20 1 4 20
M  V30 21 1 6 21
M  V30 22 1 6 22
M  V30 23 1 7 23
M  V30 24 1 7 24
M  V30 25 1 9 25
M  V30 26 1 9 26
M  V30 27 1 13 27
M  V30 28 1 13 28
M  V30 END BOND
M  V30 END CTAB
M  END
