
     RDKit          3D

  0  0  0  0  0  0  0  0  0  0999 V3000
M  V30 BEGIN CTAB
M  V30 COUNTS 48 51 0 0 0
M  V30 BEGIN ATOM
M  V30 1 N -0.38783 -0.257692 -3.81071 0
M  V30 2 C 0.111659 -0.237136 -2.46226 0
M  V30 3 N 1.4245 -0.153157 -2.22078 0
M  V30 4 C 1.92547 -0.131598 -0.972637 0
M  V30 5 C 1.08578 -0.196764 0.13543 0
M  V30 6 N -0.220321 -0.280004 -0.138672 0
M  V30 7 C -0.757865 -0.304134 -1.36818 0
M  V30 8 C -2.17832 -0.39489 -1.6181 0
M  V30 9 O -2.54822 -0.407536 -2.8519 0
M  V30 10 N -3.22799 -0.472325 -0.696841 0
M  V30 11 C -4.59674 -0.556658 -1.22318 0
M  V30 12 C -5.19502 0.817499 -1.08141 0
M  V30 13 C -4.84139 1.37454 0.280463 0
M  V30 14 C -5.15935 0.395484 1.37335 0
M  V30 15 C -4.12497 -0.655963 1.57645 0
M  V30 16 C -2.89741 -0.464194 0.69522 0
M  V30 17 C 1.56526 -0.177027 1.42669 0
M  V30 18 N 0.685355 -0.245029 2.55665 0
M  V30 19 N 2.88609 -0.0923834 1.64999 0
M  V30 20 C 3.70538 -0.0287423 0.562093 0
M  V30 21 N 3.24553 -0.0475038 -0.694408 0
M  V30 22 C 5.15151 0.0640383 0.787112 0
M  V30 23 C 6.02486 0.130869 -0.253924 0
M  V30 24 C 7.40215 0.219811 -0.107848 0
M  V30 25 C 7.90448 0.24085 1.18416 0
M  V30 26 C 7.04435 0.174693 2.24609 0
M  V30 27 C 5.66863 0.0861385 2.0692 0
M  V30 28 H -0.601694 -1.14252 -4.2866 0
M  V30 29 H -0.547622 0.623099 -4.34488 0
M  V30 30 H -5.10364 -1.33342 -0.654853 0
M  V30 31 H -4.59619 -0.841912 -2.29047 0
M  V30 32 H -4.76296 1.45843 -1.86696 0
M  V30 33 H -6.28384 0.795759 -1.22603 0
M  V30 34 H -3.8024 1.68564 0.357915 0
M  V30 35 H -5.47035 2.29077 0.422807 0
M  V30 36 H -6.18873 -0.0484846 1.22927 0
M  V30 37 H -5.2692 1.00199 2.3208 0
M  V30 38 H -3.75387 -0.672062 2.61846 0
M  V30 39 H -4.49897 -1.687 1.36779 0
M  V30 40 H -2.33869 0.437769 1.03734 0
M  V30 41 H -2.25717 -1.34219 0.918099 0
M  V30 42 H -0.293152 0.0941163 2.4972 0
M  V30 43 H 1.02667 -0.637356 3.44688 0
M  V30 44 H 5.60792 0.112817 -1.26239 0
M  V30 45 H 8.06553 0.271081 -0.953889 0
M  V30 46 H 8.97364 0.309361 1.35499 0
M  V30 47 H 7.38907 0.187832 3.27353 0
M  V30 48 H 5.01007 0.0350896 2.92578 0
M  V30 END ATOM
M  V30 BEGIN BOND
M  V30 1 1 1 2
M  V30 2 2 2 3
M  V30 3 1 3 4
M  V30 4 2 4 5
M  V30 5 1 5 6
M  V30 6 2 6 7
M  V30 7 1 7 8
M  V30 8 2 8 9
M  V30 9 1 8 10
M  V30 10 1 10 11
M  V30 11 1 11 12
M  V30 12 1 12 13
M  V30 13 1 13 14
M  V30 14 1 14 15
M  V30 15 1 15 16
M  V30 16 1 5 17
M  V30 17 1 17 18
M  V30 18 2 17 19
M  V30 19 1 19 20
M  V30 20 2 20 21
M  V30 21 1 20 22
M  V30 22 2 22 23
M  V30 23 1 23 24
M  V30 24 2 24 25
M  V30 25 1 25 26
M  V30 26 2 26 27
M  V30 27 1 7 2
M  V30 28 1 16 10
M  V30 29 1 27 22
M  V30 30 1 21 4
M  V30 31 1 1 28
M  V30 32 1 1 29
M  V30 33 1 11 30
M  V30 34 1 11 31
M  V30 35 1 12 32
M  V30 36 1 12 33
M  V30 37 1 13 34
M  V30 38 1 13 35
M  V30 39 1 14 36
M  V30 40 1 14 37
M  V30 41 1 15 38
M  V30 42 1 15 39
M  V30 43 1 16 40
M  V30 44 1 16 41
M  V30 45 1 18 42
M  V30 46 1 18 43
M  V30 47 1 23 44
M  V30 48 1 24 45
M  V30 49 1 25 46
M  V30 50 1 26 47
M  V30 51 1 27 48
M  V30 END BOND
M  V30 END CTAB
M  END
