
     RDKit          3D

  0  0  0  0  0  0  0  0  0  0999 V3000
M  V30 BEGIN CTAB
M  V30 COUNTS 16 16 0 0 0
M  V30 BEGIN ATOM
M  V30 1 N 2.90566 0.153459 -0.0499255 0
M  V30 2 C 1.47113 -0.0125708 -0.095853 0
M  V30 3 N 0.679725 1.0844 0.0292206 0
M  V30 4 C -0.647152 0.949928 0.0426009 0
M  V30 5 N -1.14565 -0.302482 -0.0869437 0
M  V30 6 C -0.376134 -1.41419 -0.213589 0
M  V30 7 N -1.07008 -2.67827 -0.290619 0
M  V30 8 N 0.922341 -1.25441 -0.209651 0
M  V30 9 C -1.57004 2.10248 0.273658 0
M  V30 10 F -2.80837 1.74391 -0.054818 0
M  V30 11 F -1.07511 3.16994 -0.417386 0
M  V30 12 F -1.48958 2.33251 1.64768 0
M  V30 13 H 3.34926 0.292081 0.905583 0
M  V30 14 H 3.46214 0.110478 -0.87565 0
M  V30 15 H -1.06991 -3.2183 -1.18416 0
M  V30 16 H -1.53824 -3.05898 0.53656 0
M  V30 END ATOM
M  V30 BEGIN BOND
M  V30 1 1 1 2
M  V30 2 2 2 3
M  V30 3 1 3 4
M  V30 4 2 4 5
M  V30 5 1 5 6
M  V30 6 1 6 7
M  V30 7 2 6 8
M  V30 8 1 4 9
M  V30 9 1 9 10
M  V30 10 1 9 11
M  V30 11 1 9 12
M  V30 12 1 8 2
M  V30 13 1 1 13
M  V30 14 1 1 14
M  V30 15 1 7 15
M  V30 16 1 7 16
M  V30 END BOND
M  V30 END CTAB
M  END
