
     RDKit          3D

  0  0  0  0  0  0  0  0  0  0999 V3000
M  V30 BEGIN CTAB
M  V30 COUNTS 27 26 0 0 0
M  V30 BEGIN ATOM
M  V30 1 N 2.89661 -1.13418 -0.343504 0
M  V30 2 C 2.13371 -0.0692264 -0.910841 0
M  V30 3 C 0.855963 0.178377 -0.0950874 0
M  V30 4 C -8.48665e-06 -1.03714 -0.0652885 0
M  V30 5 C -1.25147 -0.970552 0.715267 0
M  V30 6 C -2.27201 0.0385154 0.332332 0
M  V30 7 N -1.84031 1.41056 0.414236 0
M  V30 8 C -2.80708 -0.184643 -1.03767 0
M  V30 9 O -3.28143 -1.44509 -1.33973 0
M  V30 10 O -2.83104 0.709963 -1.87579 0
M  V30 11 C 2.90217 1.2088 -0.885253 0
M  V30 12 O 2.34588 2.37606 -1.3898 0
M  V30 13 O 4.06988 1.2558 -0.4062 0
M  V30 14 H 3.51299 -1.62845 -0.99279 0
M  V30 15 H 3.25867 -0.956135 0.598186 0
M  V30 16 H 1.87183 -0.300549 -1.94751 0
M  V30 17 H 0.348985 1.01463 -0.635153 0
M  V30 18 H 1.18852 0.454622 0.91436 0
M  V30 19 H -0.171601 -1.43338 -1.11623 0
M  V30 20 H 0.649471 -1.85718 0.382072 0
M  V30 21 H -1.76555 -1.98038 0.74553 0
M  V30 22 H -0.980818 -0.81211 1.80377 0
M  V30 23 H -3.18198 -0.0886718 1.00471 0
M  V30 24 H -2.40577 1.95285 1.10654 0
M  V30 25 H -1.90811 1.91395 -0.497905 0
M  V30 26 H -3.93649 -1.85743 -0.688259 0
M  V30 27 H 2.59898 3.24099 -0.973087 0
M  V30 END ATOM
M  V30 BEGIN BOND
M  V30 1 1 1 2
M  V30 2 1 2 3
M  V30 3 1 3 4
M  V30 4 1 4 5
M  V30 5 1 5 6
M  V30 6 1 6 7
M  V30 7 1 6 8
M  V30 8 1 8 9
M  V30 9 2 8 10
M  V30 10 1 2 11
M  V30 11 1 11 12
M  V30 12 2 11 13
M  V30 13 1 1 14
M  V30 14 1 1 15
M  V30 15 1 2 16
M  V30 16 1 3 17
M  V30 17 1 3 18
M  V30 18 1 4 19
M  V30 19 1 4 20
M  V30 20 1 5 21
M  V30 21 1 5 22
M  V30 22 1 6 23
M  V30 23 1 7 24
M  V30 24 1 7 25
M  V30 25 1 9 26
M  V30 26 1 12 27
M  V30 END BOND
M  V30 END CTAB
M  END
