
     RDKit          3D

  0  0  0  0  0  0  0  0  0  0999 V3000
M  V30 BEGIN CTAB
M  V30 COUNTS 39 41 0 0 0
M  V30 BEGIN ATOM
M  V30 1 C 6.7766 -0.500088 0.50616 0
M  V30 2 C 6.01221 0.494948 -0.358557 0
M  V30 3 C 4.65323 0.623204 -0.213739 0
M  V30 4 S 4.25234 1.81929 -1.36043 0
M  V30 5 C 5.80446 2.12667 -1.99106 0
M  V30 6 C 6.60041 1.27461 -1.27882 0
M  V30 7 C 3.77245 -0.104948 0.727884 0
M  V30 8 O 4.19648 -0.716873 1.71149 0
M  V30 9 C 2.33273 -0.0814593 0.456841 0
M  V30 10 C 1.32254 -0.66427 1.17685 0
M  V30 11 N 1.63915 -1.41643 2.37828 0
M  V30 12 N 0.117859 -0.517691 0.746837 0
M  V30 13 C -0.148664 0.166719 -0.346666 0
M  V30 14 N -1.3458 0.489327 -1.03151 0
M  V30 15 C -2.61632 0.13783 -0.60328 0
M  V30 16 C -3.66573 0.198127 -1.53311 0
M  V30 17 C -4.94875 -0.103378 -1.18739 0
M  V30 18 C -5.29958 -0.482714 0.0819053 0
M  V30 19 C -4.28358 -0.547966 1.00837 0
M  V30 20 C -2.95195 -0.238849 0.664579 0
M  V30 21 S -6.95404 -0.866064 0.503347 0
M  V30 22 N -7.75973 0.610833 0.929571 0
M  V30 23 O -7.64466 -1.51065 -0.671113 0
M  V30 24 O -6.95066 -1.83778 1.64281 0
M  V30 25 S 1.45804 0.650099 -0.812955 0
M  V30 26 H 6.2317 -1.46896 0.466242 0
M  V30 27 H 7.78072 -0.680959 0.13111 0
M  V30 28 H 6.818 -0.122613 1.54367 0
M  V30 29 H 6.12368 2.834 -2.77918 0
M  V30 30 H 7.69566 1.25454 -1.48173 0
M  V30 31 H 2.10648 -2.3326 2.25149 0
M  V30 32 H 1.42532 -1.08752 3.33062 0
M  V30 33 H -1.2057 1.04868 -1.94341 0
M  V30 34 H -3.39134 0.498273 -2.53804 0
M  V30 35 H -5.74341 -0.0451967 -1.93933 0
M  V30 36 H -4.5021 -0.836072 2.00645 0
M  V30 37 H -2.20459 -0.2954 1.42163 0
M  V30 38 H -7.04839 1.38216 1.02364 0
M  V30 39 H -8.45505 0.849184 0.167413 0
M  V30 END ATOM
M  V30 BEGIN BOND
M  V30 1 1 1 2
M  V30 2 2 2 3
M  V30 3 1 3 4
M  V30 4 1 4 5
M  V30 5 2 5 6
M  V30 6 1 3 7
M  V30 7 2 7 8
M  V30 8 1 7 9
M  V30 9 2 9 10
M  V30 10 1 10 11
M  V30 11 1 10 12
M  V30 12 2 12 13
M  V30 13 1 13 14
M  V30 14 1 14 15
M  V30 15 2 15 16
M  V30 16 1 16 17
M  V30 17 2 17 18
M  V30 18 1 18 19
M  V30 19 2 19 20
M  V30 20 1 18 21
M  V30 21 1 21 22
M  V30 22 2 21 23
M  V30 23 2 21 24
M  V30 24 1 13 25
M  V30 25 1 6 2
M  V30 26 1 25 9
M  V30 27 1 20 15
M  V30 28 1 1 26
M  V30 29 1 1 27
M  V30 30 1 1 28
M  V30 31 1 5 29
M  V30 32 1 6 30
M  V30 33 1 11 31
M  V30 34 1 11 32
M  V30 35 1 14 33
M  V30 36 1 16 34
M  V30 37 1 17 35
M  V30 38 1 19 36
M  V30 39 1 20 37
M  V30 40 1 22 38
M  V30 41 1 22 39
M  V30 END BOND
M  V30 END CTAB
M  END
