
     RDKit          3D

  0  0  0  0  0  0  0  0  0  0999 V3000
M  V30 BEGIN CTAB
M  V30 COUNTS 37 38 0 0 0
M  V30 BEGIN ATOM
M  V30 1 N -2.12596 0.592756 -2.52086 0
M  V30 2 N -1.31223 0.788843 -1.37791 0
M  V30 3 C -1.24529 -0.278126 -0.444052 0
M  V30 4 C -0.128575 -1.14836 -0.383321 0
M  V30 5 C -0.168755 -2.15922 0.535708 0
M  V30 6 C -1.29076 -2.31785 1.39073 0
M  V30 7 C -2.3543 -1.47695 1.32506 0
M  V30 8 C -2.31692 -0.449867 0.391471 0
M  V30 9 P -3.71658 0.643293 0.335084 0
M  V30 10 N -3.17387 2.29992 0.400195 0
M  V30 11 O -4.67906 0.391108 -1.03992 0
M  V30 12 O -4.57107 0.446089 1.59435 0
M  V30 13 N 0.873242 -3.07501 0.726856 0 CHG=1
M  V30 14 O 1.10403 -3.52585 2.05504 0 CHG=-1
M  V30 15 O 1.61901 -3.59925 -0.091638 0
M  V30 16 S 1.21311 -0.811012 -1.4221 0
M  V30 17 O 1.8007 -1.9626 -2.11872 0
M  V30 18 O 0.718753 0.117721 -2.55155 0
M  V30 19 C 2.44118 0.154728 -0.610434 0
M  V30 20 C 2.39061 1.53558 -0.621621 0
M  V30 21 C 3.33633 2.30924 0.00464955 0
M  V30 22 C 4.36419 1.66123 0.661907 0
M  V30 23 C 4.46213 0.300471 0.705296 0
M  V30 24 C 3.47713 -0.446376 0.0531924 0
M  V30 25 H -1.86033 1.18166 -3.31548 0
M  V30 26 H -2.12023 -0.419616 -2.76809 0
M  V30 27 H -0.80124 1.69269 -1.27419 0
M  V30 28 H -1.24981 -3.15726 2.1046 0
M  V30 29 H -3.20778 -1.59611 1.97863 0
M  V30 30 H -2.62089 2.46573 1.26153 0
M  V30 31 H -2.80896 2.68478 -0.4689 0
M  V30 32 H -4.9243 1.27138 -1.40294 0
M  V30 33 H 1.5826 2.01495 -1.14009 0
M  V30 34 H 3.328 3.38228 0.0141973 0
M  V30 35 H 5.15031 2.22957 1.18441 0
M  V30 36 H 5.25148 -0.215167 1.21286 0
M  V30 37 H 3.56408 -1.5254 0.0862629 0
M  V30 END ATOM
M  V30 BEGIN BOND
M  V30 1 1 1 2
M  V30 2 1 2 3
M  V30 3 2 3 4
M  V30 4 1 4 5
M  V30 5 2 5 6
M  V30 6 1 6 7
M  V30 7 2 7 8
M  V30 8 1 8 9
M  V30 9 1 9 10
M  V30 10 1 9 11
M  V30 11 2 9 12
M  V30 12 1 5 13
M  V30 13 1 13 14
M  V30 14 2 13 15
M  V30 15 1 4 16
M  V30 16 2 16 17
M  V30 17 2 16 18
M  V30 18 1 16 19
M  V30 19 2 19 20
M  V30 20 1 20 21
M  V30 21 2 21 22
M  V30 22 1 22 23
M  V30 23 2 23 24
M  V30 24 1 8 3
M  V30 25 1 24 19
M  V30 26 1 1 25
M  V30 27 1 1 26
M  V30 28 1 2 27
M  V30 29 1 6 28
M  V30 30 1 7 29
M  V30 31 1 10 30
M  V30 32 1 10 31
M  V30 33 1 11 32
M  V30 34 1 20 33
M  V30 35 1 21 34
M  V30 36 1 22 35
M  V30 37 1 23 36
M  V30 38 1 24 37
M  V30 END BOND
M  V30 END CTAB
M  END
