
     RDKit          3D

  0  0  0  0  0  0  0  0  0  0999 V3000
M  V30 BEGIN CTAB
M  V30 COUNTS 30 30 0 0 0
M  V30 BEGIN ATOM
M  V30 1 N -2.79916 0.521477 1.32507 0
M  V30 2 C -1.5093 -0.10184 1.18952 0
M  V30 3 C -1.16488 -0.337449 -0.252154 0
M  V30 4 C -2.18429 -1.24137 -0.91631 0
M  V30 5 C -1.08934 0.933588 -1.05132 0
M  V30 6 C 0.125425 1.75327 -0.72951 0
M  V30 7 C 1.33917 0.84932 -0.817799 0
M  V30 8 N 1.17808 -0.192028 0.154913 0
M  V30 9 C 0.161224 -1.09698 -0.283267 0
M  V30 10 S 2.67643 -0.921041 0.490372 0
M  V30 11 O 2.59644 -2.09222 1.38888 0
M  V30 12 O 3.32258 -1.37858 -0.802502 0
M  V30 13 N 3.72599 0.309663 1.15308 0
M  V30 14 H -3.13425 0.46659 2.31743 0
M  V30 15 H -2.73662 1.50614 1.00194 0
M  V30 16 H -1.58386 -1.10542 1.67351 0
M  V30 17 H -0.696753 0.428384 1.69392 0
M  V30 18 H -2.48157 -2.04232 -0.237145 0
M  V30 19 H -1.69259 -1.61702 -1.85258 0
M  V30 20 H -3.03342 -0.601849 -1.24147 0
M  V30 21 H -0.997395 0.618709 -2.13222 0
M  V30 22 H -2.0126 1.49402 -0.905483 0
M  V30 23 H 0.0475258 2.26194 0.243812 0
M  V30 24 H 0.244009 2.52797 -1.51809 0
M  V30 25 H 2.27647 1.39053 -0.623415 0
M  V30 26 H 1.31658 0.370745 -1.82289 0
M  V30 27 H 0.298718 -1.48988 -1.29302 0
M  V30 28 H 0.0276008 -1.96518 0.395068 0
M  V30 29 H 4.56975 -0.12872 1.59091 0
M  V30 30 H 3.21001 0.879532 1.86075 0
M  V30 END ATOM
M  V30 BEGIN BOND
M  V30 1 1 1 2
M  V30 2 1 2 3
M  V30 3 1 3 4
M  V30 4 1 3 5
M  V30 5 1 5 6
M  V30 6 1 6 7
M  V30 7 1 7 8
M  V30 8 1 8 9
M  V30 9 1 8 10
M  V30 10 2 10 11
M  V30 11 2 10 12
M  V30 12 1 10 13
M  V30 13 1 9 3
M  V30 14 1 1 14
M  V30 15 1 1 15
M  V30 16 1 2 16
M  V30 17 1 2 17
M  V30 18 1 4 18
M  V30 19 1 4 19
M  V30 20 1 4 20
M  V30 21 1 5 21
M  V30 22 1 5 22
M  V30 23 1 6 23
M  V30 24 1 6 24
M  V30 25 1 7 25
M  V30 26 1 7 26
M  V30 27 1 9 27
M  V30 28 1 9 28
M  V30 29 1 13 29
M  V30 30 1 13 30
M  V30 END BOND
M  V30 END CTAB
M  END
