
     RDKit          3D

  0  0  0  0  0  0  0  0  0  0999 V3000
M  V30 BEGIN CTAB
M  V30 COUNTS 29 29 0 0 0
M  V30 BEGIN ATOM
M  V30 1 O -0.579643 -2.38196 -1.14931 0
M  V30 2 C -0.944698 -1.14043 -1.6314 0
M  V30 3 C -0.690991 -0.0258092 -0.654083 0
M  V30 4 C -1.45992 -0.229931 0.625447 0
M  V30 5 C -2.58524 0.807016 0.576445 0
M  V30 6 C -1.82781 1.96794 -0.0849276 0
M  V30 7 C -1.25784 1.24831 -1.28756 0
M  V30 8 C 0.769175 0.231006 -0.426672 0
M  V30 9 N 1.47491 -0.897766 0.0929773 0
M  V30 10 C 2.67521 -0.739422 0.53268 0
M  V30 11 N 3.37859 -1.85595 1.04879 0
M  V30 12 N 3.3091 0.522452 0.513074 0
M  V30 13 H -1.36057 -2.70635 -0.596769 0
M  V30 14 H -0.335226 -0.920334 -2.54194 0
M  V30 15 H -1.99569 -1.12824 -1.93853 0
M  V30 16 H -0.796458 0.0409238 1.49194 0
M  V30 17 H -1.86326 -1.24017 0.733999 0
M  V30 18 H -3.33292 0.473148 -0.148485 0
M  V30 19 H -2.96306 1.06646 1.56162 0
M  V30 20 H -1.04117 2.25719 0.63709 0
M  V30 21 H -2.49961 2.78426 -0.363386 0
M  V30 22 H -0.458608 1.81634 -1.78694 0
M  V30 23 H -2.09833 0.971552 -1.93189 0
M  V30 24 H 1.20905 0.506075 -1.41499 0
M  V30 25 H 0.847923 1.12811 0.230695 0
M  V30 26 H 3.03307 -2.44006 1.82932 0
M  V30 27 H 4.28993 -2.09324 0.613353 0
M  V30 28 H 4.18159 0.653309 -0.0323267 0
M  V30 29 H 2.92249 1.32557 1.03271 0
M  V30 END ATOM
M  V30 BEGIN BOND
M  V30 1 1 1 2
M  V30 2 1 2 3
M  V30 3 1 3 4
M  V30 4 1 4 5
M  V30 5 1 5 6
M  V30 6 1 6 7
M  V30 7 1 3 8
M  V30 8 1 8 9
M  V30 9 2 9 10 CFG=2
M  V30 10 1 10 11
M  V30 11 1 10 12
M  V30 12 1 7 3
M  V30 13 1 1 13
M  V30 14 1 2 14
M  V30 15 1 2 15
M  V30 16 1 4 16
M  V30 17 1 4 17
M  V30 18 1 5 18
M  V30 19 1 5 19
M  V30 20 1 6 20
M  V30 21 1 6 21
M  V30 22 1 7 22
M  V30 23 1 7 23
M  V30 24 1 8 24
M  V30 25 1 8 25
M  V30 26 1 11 26
M  V30 27 1 11 27
M  V30 28 1 12 28
M  V30 29 1 12 29
M  V30 END BOND
M  V30 END CTAB
M  END
