
     RDKit          3D

  0  0  0  0  0  0  0  0  0  0999 V3000
M  V30 BEGIN CTAB
M  V30 COUNTS 36 36 0 0 0
M  V30 BEGIN ATOM
M  V30 1 C -4.12686 0.540756 1.03875 0 CFG=1
M  V30 2 N -4.95003 -0.37704 0.349968 0
M  V30 3 C -2.67455 0.459125 0.591277 0
M  V30 4 S -2.10635 -1.20697 0.923203 0
M  V30 5 C -0.415798 -1.46594 0.45316 0
M  V30 6 C 0.377989 -0.489089 -0.108303 0
M  V30 7 C 1.70946 -0.715189 -0.471652 0
M  V30 8 C 2.51433 0.342392 -1.07928 0
M  V30 9 C 3.23896 1.244 -0.13257 0 CFG=2
M  V30 10 N 3.97722 2.22749 -0.949878 0
M  V30 11 C 4.23212 0.582765 0.711305 0
M  V30 12 O 5.61131 0.825066 0.605514 0
M  V30 13 O 3.90363 -0.250749 1.59057 0
M  V30 14 C 2.18639 -1.98376 -0.233404 0
M  V30 15 C 1.43142 -2.98712 0.323644 0
M  V30 16 C 0.122857 -2.71819 0.666248 0
M  V30 17 O -0.642697 -3.74447 1.23386 0
M  V30 18 C -4.66503 1.90414 0.923726 0
M  V30 19 O -5.83218 2.12024 0.206072 0
M  V30 20 O -4.12827 2.91901 1.4441 0
M  V30 21 H -4.12432 0.277808 2.11912 0
M  V30 22 H -5.15532 -0.128722 -0.636606 0
M  V30 23 H -4.7585 -1.36982 0.52175 0
M  V30 24 H -2.65665 0.735582 -0.481028 0
M  V30 25 H -2.09715 1.2242 1.17227 0
M  V30 26 H -0.0707853 0.482178 -0.263495 0
M  V30 27 H 3.27181 -0.0671301 -1.8103 0
M  V30 28 H 1.81243 0.947114 -1.72192 0
M  V30 29 H 2.54066 1.80609 0.51727 0
M  V30 30 H 3.40507 3.09859 -1.04676 0
M  V30 31 H 4.91177 2.43231 -0.537833 0
M  V30 32 H 6.1085 0.146863 0.0147503 0
M  V30 33 H 3.22002 -2.22755 -0.494295 0
M  V30 34 H 1.81902 -3.98245 0.506219 0
M  V30 35 H -1.60265 -3.54293 1.48387 0
M  V30 36 H -6.38783 2.94141 0.249451 0
M  V30 END ATOM
M  V30 BEGIN BOND
M  V30 1 1 1 2
M  V30 2 1 1 3
M  V30 3 1 3 4
M  V30 4 1 4 5
M  V30 5 2 5 6
M  V30 6 1 6 7
M  V30 7 1 7 8
M  V30 8 1 8 9
M  V30 9 1 9 10
M  V30 10 1 9 11
M  V30 11 1 11 12
M  V30 12 2 11 13
M  V30 13 2 7 14
M  V30 14 1 14 15
M  V30 15 2 15 16
M  V30 16 1 16 17
M  V30 17 1 1 18
M  V30 18 1 18 19
M  V30 19 2 18 20
M  V30 20 1 16 5
M  V30 21 1 1 21 CFG=1
M  V30 22 1 2 22
M  V30 23 1 2 23
M  V30 24 1 3 24
M  V30 25 1 3 25
M  V30 26 1 6 26
M  V30 27 1 8 27
M  V30 28 1 8 28
M  V30 29 1 9 29 CFG=1
M  V30 30 1 10 30
M  V30 31 1 10 31
M  V30 32 1 12 32
M  V30 33 1 14 33
M  V30 34 1 15 34
M  V30 35 1 17 35
M  V30 36 1 19 36
M  V30 END BOND
M  V30 END CTAB
M  END
