
     RDKit          3D

  0  0  0  0  0  0  0  0  0  0999 V3000
M  V30 BEGIN CTAB
M  V30 COUNTS 28 28 0 0 0
M  V30 BEGIN ATOM
M  V30 1 C -1.25224 -0.0965492 1.99241 0
M  V30 2 C -0.625905 0.416295 0.724209 0
M  V30 3 C 0.669664 -0.20847 0.444142 0
M  V30 4 N 0.999925 -1.47851 0.524733 0
M  V30 5 C 2.28098 -1.60615 0.0774509 0
M  V30 6 N 2.77916 -0.414852 -0.309945 0
M  V30 7 C 1.79284 0.478102 -0.088487 0
M  V30 8 N 1.81077 1.88938 -0.273625 0
M  V30 9 N 4.05262 -0.120925 -0.831534 0
M  V30 10 C -1.62609 0.0251891 -0.384213 0
M  V30 11 C -1.95624 -1.42781 -0.361784 0
M  V30 12 C -2.82651 0.885163 -0.414471 0
M  V30 13 H -1.11677 -1.16688 2.10418 0
M  V30 14 H -2.28909 0.29792 2.04292 0
M  V30 15 H -0.747196 0.412211 2.87851 0
M  V30 16 H -0.623045 1.52487 0.74453 0
M  V30 17 H 2.85929 -2.54659 0.0162069 0
M  V30 18 H 2.11852 2.47149 0.574644 0
M  V30 19 H 1.57592 2.45102 -1.09794 0
M  V30 20 H 4.33785 0.887316 -0.924389 0
M  V30 21 H 4.71489 -0.836533 -1.12983 0
M  V30 22 H -1.03081 0.183447 -1.3352 0
M  V30 23 H -2.88274 -1.55197 -1.01348 0
M  V30 24 H -2.38646 -1.7204 0.657536 0
M  V30 25 H -1.18862 -2.11316 -0.705148 0
M  V30 26 H -2.90727 1.46277 -1.38188 0
M  V30 27 H -3.77581 0.301354 -0.257512 0
M  V30 28 H -2.75763 1.60227 0.447002 0
M  V30 END ATOM
M  V30 BEGIN BOND
M  V30 1 1 1 2
M  V30 2 1 2 3
M  V30 3 1 3 4
M  V30 4 2 4 5
M  V30 5 1 5 6
M  V30 6 1 6 7
M  V30 7 1 7 8
M  V30 8 1 6 9
M  V30 9 1 2 10
M  V30 10 1 10 11
M  V30 11 1 10 12
M  V30 12 2 7 3
M  V30 13 1 1 13
M  V30 14 1 1 14
M  V30 15 1 1 15
M  V30 16 1 2 16
M  V30 17 1 5 17
M  V30 18 1 8 18
M  V30 19 1 8 19
M  V30 20 1 9 20
M  V30 21 1 9 21
M  V30 22 1 10 22
M  V30 23 1 11 23
M  V30 24 1 11 24
M  V30 25 1 11 25
M  V30 26 1 12 26
M  V30 27 1 12 27
M  V30 28 1 12 28
M  V30 END BOND
M  V30 END CTAB
M  END
