
     RDKit          3D

  0  0  0  0  0  0  0  0  0  0999 V3000
M  V30 BEGIN CTAB
M  V30 COUNTS 57 58 0 0 0
M  V30 BEGIN ATOM
M  V30 1 C -2.83822 -5.08778 0.689643 0
M  V30 2 C -2.89421 -3.82485 -0.191647 0
M  V30 3 C -3.29762 -2.70637 0.703229 0
M  V30 4 C -3.44204 -1.36764 0.0911273 0
M  V30 5 N -2.30362 -0.787384 -0.530487 0
M  V30 6 C -2.0594 -1.02463 -1.83059 0
M  V30 7 O -2.79638 -1.76959 -2.54372 0
M  V30 8 N -0.985016 -0.449901 -2.42106 0
M  V30 9 C -0.120325 0.363087 -1.78653 0
M  V30 10 O 0.871058 0.865758 -2.41352 0
M  V30 11 C -0.361214 0.613898 -0.456014 0
M  V30 12 C -1.47563 0.0136644 0.148933 0
M  V30 13 N -1.70796 0.270741 1.50736 0
M  V30 14 N 0.442171 1.47668 0.317827 0
M  V30 15 C 1.69058 1.11748 0.86289 0
M  V30 16 O 2.36141 1.95209 1.57021 0
M  V30 17 C 2.32377 -0.192099 0.686992 0
M  V30 18 S 3.74862 -0.123941 -0.429171 0
M  V30 19 C 4.53137 -1.71429 -0.570153 0
M  V30 20 N 5.63131 -2.00983 -1.31623 0
M  V30 21 N 5.93592 -3.28206 -1.17607 0
M  V30 22 C 5.03426 -3.80654 -0.340788 0
M  V30 23 N 4.16745 -2.85253 0.0368876 0
M  V30 24 N 4.93853 -5.1612 0.128876 0
M  V30 25 C -0.0429997 2.84478 0.587266 0
M  V30 26 C 0.434676 3.73091 -0.504483 0
M  V30 27 C 0.0528361 5.17268 -0.393188 0
M  V30 28 C -1.42097 5.44403 -0.368271 0
M  V30 29 C 0.800773 5.92949 0.679696 0
M  V30 30 H -3.78349 -5.15715 1.29719 0
M  V30 31 H -2.80374 -6.00491 0.0746806 0
M  V30 32 H -1.99224 -4.96824 1.36403 0
M  V30 33 H -3.63686 -4.06489 -0.979597 0
M  V30 34 H -1.89793 -3.71856 -0.650572 0
M  V30 35 H -4.25173 -3.03757 1.20948 0
M  V30 36 H -2.5512 -2.70383 1.55619 0
M  V30 37 H -4.2937 -1.44749 -0.654913 0
M  V30 38 H -3.89552 -0.682882 0.876374 0
M  V30 39 H -0.787391 -0.630754 -3.43638 0
M  V30 40 H -1.0819 -0.176134 2.21873 0
M  V30 41 H -2.46226 0.877275 1.88631 0
M  V30 42 H 2.71252 -0.536327 1.68953 0
M  V30 43 H 1.59423 -0.977473 0.328896 0
M  V30 44 H 3.3475 -2.99201 0.697918 0
M  V30 45 H 5.10349 -5.93986 -0.524401 0
M  V30 46 H 4.70471 -5.31568 1.12948 0
M  V30 47 H 0.39072 3.14184 1.55882 0
M  V30 48 H -1.14849 2.75938 0.655963 0
M  V30 49 H -0.0498826 3.37107 -1.45529 0
M  V30 50 H 1.5228 3.66855 -0.565762 0
M  V30 51 H 0.4124 5.64842 -1.36136 0
M  V30 52 H -1.54421 6.50944 -0.00135499 0
M  V30 53 H -1.81559 5.37546 -1.41185 0
M  V30 54 H -1.99872 4.82876 0.338997 0
M  V30 55 H 0.865426 5.40614 1.63357 0
M  V30 56 H 1.83958 6.2005 0.328149 0
M  V30 57 H 0.282367 6.93227 0.766642 0
M  V30 END ATOM
M  V30 BEGIN BOND
M  V30 1 1 1 2
M  V30 2 1 2 3
M  V30 3 1 3 4
M  V30 4 1 4 5
M  V30 5 1 5 6
M  V30 6 2 6 7
M  V30 7 1 6 8
M  V30 8 1 8 9
M  V30 9 2 9 10
M  V30 10 1 9 11
M  V30 11 2 11 12
M  V30 12 1 12 13
M  V30 13 1 11 14
M  V30 14 1 14 15
M  V30 15 2 15 16
M  V30 16 1 15 17
M  V30 17 1 17 18
M  V30 18 1 18 19
M  V30 19 2 19 20
M  V30 20 1 20 21
M  V30 21 2 21 22
M  V30 22 1 22 23
M  V30 23 1 22 24
M  V30 24 1 14 25
M  V30 25 1 25 26
M  V30 26 1 26 27
M  V30 27 1 27 28
M  V30 28 1 27 29
M  V30 29 1 12 5
M  V30 30 1 23 19
M  V30 31 1 1 30
M  V30 32 1 1 31
M  V30 33 1 1 32
M  V30 34 1 2 33
M  V30 35 1 2 34
M  V30 36 1 3 35
M  V30 37 1 3 36
M  V30 38 1 4 37
M  V30 39 1 4 38
M  V30 40 1 8 39
M  V30 41 1 13 40
M  V30 42 1 13 41
M  V30 43 1 17 42
M  V30 44 1 17 43
M  V30 45 1 23 44
M  V30 46 1 24 45
M  V30 47 1 24 46
M  V30 48 1 25 47
M  V30 49 1 25 48
M  V30 50 1 26 49
M  V30 51 1 26 50
M  V30 52 1 27 51
M  V30 53 1 28 52
M  V30 54 1 28 53
M  V30 55 1 28 54
M  V30 56 1 29 55
M  V30 57 1 29 56
M  V30 58 1 29 57
M  V30 END BOND
M  V30 END CTAB
M  END
