
     RDKit          3D

  0  0  0  0  0  0  0  0  0  0999 V3000
M  V30 BEGIN CTAB
M  V30 COUNTS 27 27 0 0 0
M  V30 BEGIN ATOM
M  V30 1 C 4.95835 0.129396 -0.202308 0
M  V30 2 C 4.26496 -0.336437 1.03969 0
M  V30 3 O 2.86206 -0.191375 0.919806 0
M  V30 4 C 2.1838 -0.857665 -0.0890544 0
M  V30 5 O 2.86665 -1.57313 -0.863295 0
M  V30 6 C 0.745344 -0.749144 -0.263983 0
M  V30 7 N -0.00646681 -0.0344365 0.494259 0
M  V30 8 C -1.41917 0.0641649 0.31218 0
M  V30 9 C -1.91037 0.891948 -0.686062 0
M  V30 10 N -0.993198 1.62447 -1.50635 0
M  V30 11 N -3.23054 0.971301 -0.841151 0
M  V30 12 C -4.12224 0.306071 -0.0989503 0
M  V30 13 N -5.5223 0.397253 -0.271823 0
M  V30 14 N -3.64665 -0.506106 0.880179 0
M  V30 15 C -2.32155 -0.623443 1.08025 0
M  V30 16 O -1.86867 -1.37781 1.9902 0
M  V30 17 H 5.66973 -0.634836 -0.618751 0
M  V30 18 H 4.26639 0.4543 -0.995569 0
M  V30 19 H 5.61223 1.02498 0.0101739 0
M  V30 20 H 4.52643 -1.42108 1.17397 0
M  V30 21 H 4.64537 0.171215 1.94255 0
M  V30 22 H 0.263233 -1.28384 -1.06002 0
M  V30 23 H -0.21958 2.18385 -1.10674 0
M  V30 24 H -1.13721 1.57132 -2.53217 0
M  V30 25 H -6.10069 -0.465125 -0.199408 0
M  V30 26 H -6.02913 1.29372 -0.472403 0
M  V30 27 H -4.33676 -1.02956 1.46469 0
M  V30 END ATOM
M  V30 BEGIN BOND
M  V30 1 1 1 2
M  V30 2 1 2 3
M  V30 3 1 3 4
M  V30 4 2 4 5
M  V30 5 1 4 6
M  V30 6 2 6 7
M  V30 7 1 7 8
M  V30 8 2 8 9
M  V30 9 1 9 10
M  V30 10 1 9 11
M  V30 11 2 11 12
M  V30 12 1 12 13
M  V30 13 1 12 14
M  V30 14 1 14 15
M  V30 15 2 15 16
M  V30 16 1 15 8
M  V30 17 1 1 17
M  V30 18 1 1 18
M  V30 19 1 1 19
M  V30 20 1 2 20
M  V30 21 1 2 21
M  V30 22 1 6 22
M  V30 23 1 10 23
M  V30 24 1 10 24
M  V30 25 1 13 25
M  V30 26 1 13 26
M  V30 27 1 14 27
M  V30 END BOND
M  V30 END CTAB
M  END
