
     RDKit          3D

  0  0  0  0  0  0  0  0  0  0999 V3000
M  V30 BEGIN CTAB
M  V30 COUNTS 29 30 0 0 0
M  V30 BEGIN ATOM
M  V30 1 C 1.52116 -1.7691 1.39313 0
M  V30 2 N 1.27313 -0.817844 0.321227 0
M  V30 3 C -0.0570333 -0.490664 0.0309402 0
M  V30 4 C -0.72469 -1.1682 -0.951083 0
M  V30 5 C -2.04043 -0.895531 -1.28056 0
M  V30 6 C -2.72535 0.103575 -0.596015 0
M  V30 7 C -2.04582 0.782027 0.392472 0
M  V30 8 C -0.721115 0.491077 0.707909 0
M  V30 9 N -2.6814 1.80655 1.12449 0
M  V30 10 N -4.08166 0.405646 -0.915284 0
M  V30 11 C 2.41661 -0.284301 -0.37825 0
M  V30 12 C 3.3762 0.44922 0.483114 0
M  V30 13 S 2.502 2.00834 0.20371 0
M  V30 14 C 2.21707 0.927716 -1.21828 0
M  V30 15 H 0.581496 -2.22248 1.76998 0
M  V30 16 H 2.12761 -2.62772 0.994405 0
M  V30 17 H 2.02599 -1.322 2.26133 0
M  V30 18 H -0.262004 -1.97255 -1.54272 0
M  V30 19 H -2.58022 -1.42696 -2.05833 0
M  V30 20 H -0.234783 1.06718 1.51124 0
M  V30 21 H -3.05312 1.60422 2.06406 0
M  V30 22 H -2.76904 2.74823 0.714774 0
M  V30 23 H -4.31401 1.09597 -1.6386 0
M  V30 24 H -4.83374 -0.0815124 -0.407064 0
M  V30 25 H 2.96226 -1.12177 -0.903769 0
M  V30 26 H 4.38945 0.495333 0.00264389 0
M  V30 27 H 3.43661 0.131417 1.54307 0
M  V30 28 H 1.22096 1.04797 -1.69245 0
M  V30 29 H 3.07385 1.03617 -1.9361 0
M  V30 END ATOM
M  V30 BEGIN BOND
M  V30 1 1 1 2
M  V30 2 1 2 3
M  V30 3 2 3 4
M  V30 4 1 4 5
M  V30 5 2 5 6
M  V30 6 1 6 7
M  V30 7 2 7 8
M  V30 8 1 7 9
M  V30 9 1 6 10
M  V30 10 1 2 11
M  V30 11 1 11 12
M  V30 12 1 12 13
M  V30 13 1 13 14
M  V30 14 1 8 3
M  V30 15 1 14 11
M  V30 16 1 1 15
M  V30 17 1 1 16
M  V30 18 1 1 17
M  V30 19 1 4 18
M  V30 20 1 5 19
M  V30 21 1 8 20
M  V30 22 1 9 21
M  V30 23 1 9 22
M  V30 24 1 10 23
M  V30 25 1 10 24
M  V30 26 1 11 25
M  V30 27 1 12 26
M  V30 28 1 12 27
M  V30 29 1 14 28
M  V30 30 1 14 29
M  V30 END BOND
M  V30 END CTAB
M  END
