
     RDKit          3D

  0  0  0  0  0  0  0  0  0  0999 V3000
M  V30 BEGIN CTAB
M  V30 COUNTS 33 35 0 0 0
M  V30 BEGIN ATOM
M  V30 1 O -3.08851 2.24686 -0.136122 0
M  V30 2 C -3.00847 1.14372 0.485647 0
M  V30 3 C -2.76491 -0.0454885 -0.450632 0 CFG=1
M  V30 4 O -1.59394 0.119191 -1.13969 0
M  V30 5 C -0.639883 -0.725322 -0.648541 0 CFG=2
M  V30 6 C -1.15196 -1.27759 0.675165 0
M  V30 7 C -2.6469 -1.30417 0.384469 0 CFG=1
M  V30 8 O -3.40139 -1.2374 1.55079 0
M  V30 9 N 0.658171 -0.124622 -0.518719 0
M  V30 10 C 0.969965 1.10678 -0.953885 0
M  V30 11 N 0.135271 2.0578 -1.61107 0
M  V30 12 N 2.28224 1.31101 -0.649703 0
M  V30 13 C 2.78413 0.227797 -0.0351757 0
M  V30 14 C 1.73906 -0.667389 0.0368312 0
M  V30 15 N 2.01639 -1.86314 0.632558 0
M  V30 16 C 3.23786 -2.14916 1.11991 0
M  V30 17 N 4.25177 -1.25097 1.03732 0
M  V30 18 C 4.04102 -0.0542394 0.461047 0
M  V30 19 N 5.08232 0.908185 0.359091 0
M  V30 20 H -3.51127 2.812 -0.477973 0
M  V30 21 H -3.97486 0.979899 1.02442 0
M  V30 22 H -2.21662 1.20693 1.25985 0
M  V30 23 H -3.65466 -0.134518 -1.10518 0
M  V30 24 H -0.567805 -1.61913 -1.33315 0
M  V30 25 H -1.00208 -0.549782 1.49837 0
M  V30 26 H -0.750857 -2.27774 0.883765 0
M  V30 27 H -2.93197 -2.15375 -0.262117 0
M  V30 28 H -4.33193 -1.01784 1.27688 0
M  V30 29 H -0.244385 1.92493 -2.57347 0
M  V30 30 H -0.112668 2.9365 -1.10672 0
M  V30 31 H 3.45782 -3.11086 1.5981 0
M  V30 32 H 5.86969 0.851177 -0.319972 0
M  V30 33 H 5.06936 1.73035 1.00024 0
M  V30 END ATOM
M  V30 BEGIN BOND
M  V30 1 1 1 2
M  V30 2 1 2 3
M  V30 3 1 3 4
M  V30 4 1 4 5
M  V30 5 1 5 6
M  V30 6 1 6 7
M  V30 7 1 7 8
M  V30 8 1 5 9
M  V30 9 1 9 10
M  V30 10 1 10 11
M  V30 11 2 10 12
M  V30 12 1 12 13
M  V30 13 2 13 14
M  V30 14 1 14 15
M  V30 15 2 15 16
M  V30 16 1 16 17
M  V30 17 2 17 18
M  V30 18 1 18 19
M  V30 19 1 7 3
M  V30 20 1 14 9
M  V30 21 1 18 13
M  V30 22 1 1 20
M  V30 23 1 2 21
M  V30 24 1 2 22
M  V30 25 1 3 23 CFG=3
M  V30 26 1 5 24 CFG=3
M  V30 27 1 6 25
M  V30 28 1 6 26
M  V30 29 1 7 27 CFG=3
M  V30 30 1 8 28
M  V30 31 1 11 29
M  V30 32 1 11 30
M  V30 33 1 16 31
M  V30 34 1 19 32
M  V30 35 1 19 33
M  V30 END BOND
M  V30 END CTAB
M  END
