
     RDKit          3D

  0  0  0  0  0  0  0  0  0  0999 V3000
M  V30 BEGIN CTAB
M  V30 COUNTS 31 33 0 0 0
M  V30 BEGIN ATOM
M  V30 1 C -0.640565 -2.25909 -1.19272 0
M  V30 2 C -1.38012 -1.18009 -0.499267 0
M  V30 3 C -2.69783 -1.39641 -0.156578 0
M  V30 4 C -3.45439 -0.427752 0.496415 0
M  V30 5 C -2.90356 0.787182 0.822619 0
M  V30 6 C -1.57973 1.00062 0.476718 0
M  V30 7 C -0.828791 0.0389192 -0.171527 0
M  V30 8 C 0.569157 0.277101 -0.531458 0
M  V30 9 N 0.888441 0.81603 -1.72363 0
M  V30 10 C 2.17482 1.04387 -2.07469 0
M  V30 11 C 3.20564 0.732323 -1.22406 0
M  V30 12 C 2.92892 0.17668 0.0120574 0
M  V30 13 C 1.58914 -0.0423646 0.335871 0
M  V30 14 N 1.30635 -0.621114 1.62411 0
M  V30 15 N 3.94334 -0.168865 0.938386 0
M  V30 16 C -1.3007 2.28019 0.91921 0
M  V30 17 N -2.41499 2.77355 1.49132 0
M  V30 18 N -3.39367 1.89188 1.44484 0
M  V30 19 H -0.493569 -3.08605 -0.471634 0
M  V30 20 H -1.22129 -2.63509 -2.05925 0
M  V30 21 H 0.335175 -1.94235 -1.57195 0
M  V30 22 H -3.16853 -2.34026 -0.395935 0
M  V30 23 H -4.48882 -0.584832 0.770752 0
M  V30 24 H 2.40856 1.48181 -3.04686 0
M  V30 25 H 4.25174 0.902158 -1.47413 0
M  V30 26 H 1.63397 -1.59648 1.75513 0
M  V30 27 H 0.812537 -0.0922755 2.35509 0
M  V30 28 H 4.04107 0.35207 1.81963 0
M  V30 29 H 4.58052 -0.946941 0.718483 0
M  V30 30 H -0.332986 2.74525 0.795362 0
M  V30 31 H -4.36986 2.02032 1.81924 0
M  V30 END ATOM
M  V30 BEGIN BOND
M  V30 1 1 1 2
M  V30 2 2 2 3
M  V30 3 1 3 4
M  V30 4 2 4 5
M  V30 5 1 5 6
M  V30 6 2 6 7
M  V30 7 1 7 8
M  V30 8 2 8 9
M  V30 9 1 9 10
M  V30 10 2 10 11
M  V30 11 1 11 12
M  V30 12 2 12 13
M  V30 13 1 13 14
M  V30 14 1 12 15
M  V30 15 1 6 16
M  V30 16 2 16 17
M  V30 17 1 17 18
M  V30 18 1 7 2
M  V30 19 1 13 8
M  V30 20 1 18 5
M  V30 21 1 1 19
M  V30 22 1 1 20
M  V30 23 1 1 21
M  V30 24 1 3 22
M  V30 25 1 4 23
M  V30 26 1 10 24
M  V30 27 1 11 25
M  V30 28 1 14 26
M  V30 29 1 14 27
M  V30 30 1 15 28
M  V30 31 1 15 29
M  V30 32 1 16 30
M  V30 33 1 18 31
M  V30 END BOND
M  V30 END CTAB
M  END
