
     RDKit          3D

  0  0  0  0  0  0  0  0  0  0999 V3000
M  V30 BEGIN CTAB
M  V30 COUNTS 25 24 0 0 0
M  V30 BEGIN ATOM
M  V30 1 C -2.24366 -1.39095 1.21011 0
M  V30 2 C -1.67245 -0.33053 0.250851 0 CFG=2
M  V30 3 N -1.81622 -0.782459 -1.08057 0
M  V30 4 C -0.296549 0.00517718 0.699437 0
M  V30 5 S 0.491144 1.24374 -0.342468 0
M  V30 6 C 2.12333 0.626838 -0.929135 0
M  V30 7 C 2.99171 0.536962 0.325769 0
M  V30 8 N 4.31897 0.0897736 0.0570452 0
M  V30 9 C -2.50195 0.895767 0.457241 0
M  V30 10 O -3.47898 1.27094 -0.431061 0
M  V30 11 O -2.27993 1.59882 1.48535 0
M  V30 12 H -3.2504 -1.10187 1.56038 0
M  V30 13 H -1.56327 -1.56168 2.06307 0
M  V30 14 H -2.31902 -2.33168 0.666604 0
M  V30 15 H -2.17407 -0.0200525 -1.71619 0
M  V30 16 H -1.04351 -1.30941 -1.4798 0
M  V30 17 H 0.324222 -0.968306 0.637625 0
M  V30 18 H -0.238995 0.230273 1.7846 0
M  V30 19 H 2.50603 1.40237 -1.6064 0
M  V30 20 H 2.04173 -0.386926 -1.35257 0
M  V30 21 H 2.50954 -0.17216 1.01199 0
M  V30 22 H 2.95731 1.5624 0.797965 0
M  V30 23 H 4.67219 0.481977 -0.821252 0
M  V30 24 H 4.41895 -0.955116 0.0483654 0
M  V30 25 H -4.47613 1.36609 -0.222871 0
M  V30 END ATOM
M  V30 BEGIN BOND
M  V30 1 1 1 2
M  V30 2 1 2 3
M  V30 3 1 2 4
M  V30 4 1 4 5
M  V30 5 1 5 6
M  V30 6 1 6 7
M  V30 7 1 7 8
M  V30 8 1 2 9 CFG=3
M  V30 9 1 9 10
M  V30 10 2 9 11
M  V30 11 1 1 12
M  V30 12 1 1 13
M  V30 13 1 1 14
M  V30 14 1 3 15
M  V30 15 1 3 16
M  V30 16 1 4 17
M  V30 17 1 4 18
M  V30 18 1 6 19
M  V30 19 1 6 20
M  V30 20 1 7 21
M  V30 21 1 7 22
M  V30 22 1 8 23
M  V30 23 1 8 24
M  V30 24 1 10 25
M  V30 END BOND
M  V30 END CTAB
M  END
