
     RDKit          3D

  0  0  0  0  0  0  0  0  0  0999 V3000
M  V30 BEGIN CTAB
M  V30 COUNTS 19 19 0 0 0
M  V30 BEGIN ATOM
M  V30 1 N -0.891689 -0.995836 -1.7501 0
M  V30 2 C -0.899168 -0.760768 -0.341078 0
M  V30 3 C 0.497468 -0.341885 0.0354244 0
M  V30 4 C 1.2551 0.563492 -0.65266 0
M  V30 5 C 2.45703 0.653829 0.0268294 0
M  V30 6 C 2.3812 -0.205915 1.10774 0
M  V30 7 O 1.21265 -0.751045 1.04886 0
M  V30 8 Br 3.80076 -0.439648 2.3582 0
M  V30 9 C -1.82471 0.380426 -0.00832193 0
M  V30 10 N -1.85885 0.649163 1.415 0
M  V30 11 H -0.340088 -1.80805 -2.04467 0
M  V30 12 H -1.78889 -0.852266 -2.23134 0
M  V30 13 H -1.17929 -1.63247 0.270764 0
M  V30 14 H 0.975896 1.11428 -1.56285 0
M  V30 15 H 3.2937 1.29579 -0.262148 0
M  V30 16 H -1.45163 1.29963 -0.524985 0
M  V30 17 H -2.84182 0.205371 -0.416781 0
M  V30 18 H -1.60208 1.62265 1.65653 0
M  V30 19 H -1.19559 0.00325006 1.87557 0
M  V30 END ATOM
M  V30 BEGIN BOND
M  V30 1 1 1 2
M  V30 2 1 2 3
M  V30 3 2 3 4
M  V30 4 1 4 5
M  V30 5 2 5 6
M  V30 6 1 6 7
M  V30 7 1 6 8
M  V30 8 1 2 9
M  V30 9 1 9 10
M  V30 10 1 7 3
M  V30 11 1 1 11
M  V30 12 1 1 12
M  V30 13 1 2 13
M  V30 14 1 4 14
M  V30 15 1 5 15
M  V30 16 1 9 16
M  V30 17 1 9 17
M  V30 18 1 10 18
M  V30 19 1 10 19
M  V30 END BOND
M  V30 END CTAB
M  END
