
     RDKit          3D

  0  0  0  0  0  0  0  0  0  0999 V3000
M  V30 BEGIN CTAB
M  V30 COUNTS 57 60 0 0 0
M  V30 BEGIN ATOM
M  V30 1 N -7.35654 -0.21128 0.252661 0
M  V30 2 C -6.92416 -0.196929 1.59727 0 CFG=1
M  V30 3 C -5.91423 0.913579 1.78718 0
M  V30 4 C -4.72825 0.735712 0.91905 0
M  V30 5 C -4.70814 1.28758 -0.351039 0
M  V30 6 C -3.61575 1.131 -1.16702 0
M  V30 7 C -2.48621 0.416133 -0.75976 0
M  V30 8 C -2.51339 -0.122866 0.488779 0
M  V30 9 C -3.61446 0.0350685 1.31101 0
M  V30 10 C -1.36073 0.286569 -1.67222 0
M  V30 11 N -1.43481 0.858983 -2.88767 0
M  V30 12 C -0.444542 0.78874 -3.78947 0
M  V30 13 N -0.618412 1.42841 -5.05009 0
M  V30 14 N 0.671635 0.117592 -3.4669 0
M  V30 15 C 0.838938 -0.487376 -2.27768 0
M  V30 16 O 2.01184 -1.14094 -2.05564 0
M  V30 17 C 2.42281 -1.84402 -0.905453 0
M  V30 18 C 3.642 -1.2024 -0.316847 0
M  V30 19 C 4.80037 -1.8593 -0.00637793 0
M  V30 20 C 5.89818 -1.19171 0.554462 0
M  V30 21 C 5.85064 0.157957 0.814596 0
M  V30 22 C 4.68368 0.820456 0.501513 0
M  V30 23 C 3.60363 0.16816 -0.0491148 0
M  V30 24 N 6.97297 0.840986 1.38809 0
M  V30 25 C 8.20134 1.00608 0.885001 0
M  V30 26 C 8.99677 1.72496 1.74727 0
M  V30 27 N 8.19077 1.99564 2.81314 0
M  V30 28 C 6.97827 1.45843 2.58319 0
M  V30 29 C 2.58647 -3.31017 -1.17279 0
M  V30 30 F 1.33515 -3.78991 -1.62188 0
M  V30 31 F 2.77004 -3.98987 0.0288951 0
M  V30 32 F 3.49862 -3.62876 -2.1255 0
M  V30 33 C -0.193904 -0.396528 -1.37688 0
M  V30 34 C -8.07757 0.0879077 2.46866 0
M  V30 35 O -7.88055 0.150528 3.85649 0
M  V30 36 O -9.23043 0.276346 2.01029 0
M  V30 37 H -7.56604 -1.11528 -0.132956 0
M  V30 38 H -7.99661 0.500984 -0.0363261 0
M  V30 39 H -6.47629 -1.18494 1.86485 0
M  V30 40 H -6.41553 1.85258 1.46948 0
M  V30 41 H -5.59768 1.02471 2.84456 0
M  V30 42 H -5.58775 1.83857 -0.655295 0
M  V30 43 H -3.64666 1.58013 -2.15001 0
M  V30 44 H -1.67635 -0.69114 0.877736 0
M  V30 45 H -3.59583 -0.407603 2.29253 0
M  V30 46 H -0.456957 2.45947 -5.12128 0
M  V30 47 H -0.903804 0.893422 -5.90814 0
M  V30 48 H 1.58094 -1.77832 -0.152376 0
M  V30 49 H 4.89252 -2.90883 -0.19753 0
M  V30 50 H 6.80141 -1.73772 0.789926 0
M  V30 51 H 4.62511 1.8862 0.69863 0
M  V30 52 H 2.67546 0.694914 -0.298184 0
M  V30 53 H 8.54313 0.633835 -0.0668083 0
M  V30 54 H 10.0065 2.04625 1.69396 0
M  V30 55 H 6.1633 1.5409 3.28971 0
M  V30 56 H -0.146621 -0.850096 -0.401574 0
M  V30 57 H -8.07437 1.03726 4.3439 0
M  V30 END ATOM
M  V30 BEGIN BOND
M  V30 1 1 1 2
M  V30 2 1 2 3
M  V30 3 1 3 4
M  V30 4 2 4 5
M  V30 5 1 5 6
M  V30 6 2 6 7
M  V30 7 1 7 8
M  V30 8 2 8 9
M  V30 9 1 7 10
M  V30 10 2 10 11
M  V30 11 1 11 12
M  V30 12 1 12 13
M  V30 13 2 12 14
M  V30 14 1 14 15
M  V30 15 1 15 16
M  V30 16 1 16 17
M  V30 17 1 17 18
M  V30 18 2 18 19
M  V30 19 1 19 20
M  V30 20 2 20 21
M  V30 21 1 21 22
M  V30 22 2 22 23
M  V30 23 1 21 24
M  V30 24 1 24 25
M  V30 25 2 25 26
M  V30 26 1 26 27
M  V30 27 2 27 28
M  V30 28 1 17 29
M  V30 29 1 29 30
M  V30 30 1 29 31
M  V30 31 1 29 32
M  V30 32 2 15 33
M  V30 33 1 2 34
M  V30 34 1 34 35
M  V30 35 2 34 36
M  V30 36 1 9 4
M  V30 37 1 33 10
M  V30 38 1 23 18
M  V30 39 1 28 24
M  V30 40 1 1 37
M  V30 41 1 1 38
M  V30 42 1 2 39 CFG=1
M  V30 43 1 3 40
M  V30 44 1 3 41
M  V30 45 1 5 42
M  V30 46 1 6 43
M  V30 47 1 8 44
M  V30 48 1 9 45
M  V30 49 1 13 46
M  V30 50 1 13 47
M  V30 51 1 17 48
M  V30 52 1 19 49
M  V30 53 1 20 50
M  V30 54 1 22 51
M  V30 55 1 23 52
M  V30 56 1 25 53
M  V30 57 1 26 54
M  V30 58 1 28 55
M  V30 59 1 33 56
M  V30 60 1 35 57
M  V30 END BOND
M  V30 END CTAB
M  END
