
     RDKit          3D

  0  0  0  0  0  0  0  0  0  0999 V3000
M  V30 BEGIN CTAB
M  V30 COUNTS 24 24 0 0 0
M  V30 BEGIN ATOM
M  V30 1 C -0.612416 -2.1583 0.53214 0
M  V30 2 C -1.05205 -0.747896 0.347571 0
M  V30 3 C -2.23584 -0.349172 0.931132 0
M  V30 4 C -2.72698 0.933643 0.818016 0
M  V30 5 C -1.99788 1.84852 0.0896776 0
M  V30 6 C -0.793427 1.45909 -0.509238 0
M  V30 7 C -0.329943 0.168313 -0.376993 0
M  V30 8 N 0.887038 -0.202568 -0.98926 0
M  V30 9 S 2.42824 -0.0952517 -0.264489 0
M  V30 10 O 2.39632 1.06965 0.70197 0
M  V30 11 O 3.46935 0.167057 -1.33337 0
M  V30 12 N 2.88796 -1.50061 0.584379 0
M  V30 13 N -0.0861187 2.44171 -1.24604 0
M  V30 14 H 0.112899 -2.48315 -0.219957 0
M  V30 15 H -0.263636 -2.26746 1.58027 0
M  V30 16 H -1.48429 -2.87012 0.441991 0
M  V30 17 H -2.80315 -1.09926 1.51001 0
M  V30 18 H -3.66394 1.24498 1.28125 0
M  V30 19 H -2.33199 2.88316 -0.0387576 0
M  V30 20 H 0.847037 -0.572887 -1.9636 0
M  V30 21 H 3.30527 -2.25034 -0.0430168 0
M  V30 22 H 3.6908 -1.22914 1.22373 0
M  V30 23 H 0.124257 2.28068 -2.25134 0
M  V30 24 H 0.23249 3.32937 -0.806081 0
M  V30 END ATOM
M  V30 BEGIN BOND
M  V30 1 1 1 2
M  V30 2 2 2 3
M  V30 3 1 3 4
M  V30 4 2 4 5
M  V30 5 1 5 6
M  V30 6 2 6 7
M  V30 7 1 7 8
M  V30 8 1 8 9
M  V30 9 2 9 10
M  V30 10 2 9 11
M  V30 11 1 9 12
M  V30 12 1 6 13
M  V30 13 1 7 2
M  V30 14 1 1 14
M  V30 15 1 1 15
M  V30 16 1 1 16
M  V30 17 1 3 17
M  V30 18 1 4 18
M  V30 19 1 5 19
M  V30 20 1 8 20
M  V30 21 1 12 21
M  V30 22 1 12 22
M  V30 23 1 13 23
M  V30 24 1 13 24
M  V30 END BOND
M  V30 END CTAB
M  END
