
     RDKit          3D

  0  0  0  0  0  0  0  0  0  0999 V3000
M  V30 BEGIN CTAB
M  V30 COUNTS 36 36 0 0 0
M  V30 BEGIN ATOM
M  V30 1 N 1.4937 1.43281 2.02623 0
M  V30 2 C 0.281701 1.19596 1.22186 0
M  V30 3 C 0.529467 0.121391 0.198488 0
M  V30 4 C 1.69865 0.537241 -0.703071 0
M  V30 5 C 3.03489 0.0884746 -0.247899 0
M  V30 6 O 3.08593 -0.784051 0.800013 0
M  V30 7 C 2.13689 -1.77242 0.555236 0
M  V30 8 C 0.797547 -1.15903 0.915034 0
M  V30 9 C -0.678189 -0.0631751 -0.679432 0
M  V30 10 C -1.93746 -0.448165 -0.000326465 0
M  V30 11 N -2.51544 0.533312 0.886361 0
M  V30 12 C -3.04265 -0.797118 -0.997552 0
M  V30 13 O -0.363717 -1.163 -1.54775 0
M  V30 14 C -0.950565 1.10425 -1.58364 0
M  V30 15 H 1.5958 0.737049 2.77676 0
M  V30 16 H 1.50649 2.42363 2.37406 0
M  V30 17 H -0.441466 0.845652 2.02353 0
M  V30 18 H -0.0730689 2.14412 0.863328 0
M  V30 19 H 1.71629 1.64139 -0.81909 0
M  V30 20 H 1.54336 0.132559 -1.72746 0
M  V30 21 H 3.67322 0.971101 0.0510532 0
M  V30 22 H 3.63186 -0.385906 -1.0834 0
M  V30 23 H 2.17555 -2.12574 -0.484033 0
M  V30 24 H 2.32225 -2.58201 1.30152 0
M  V30 25 H 0.0607591 -1.96018 0.763669 0
M  V30 26 H 0.840221 -1.00771 2.03454 0
M  V30 27 H -1.83828 -1.37384 0.631644 0
M  V30 28 H -3.26778 1.09528 0.41852 0
M  V30 29 H -2.97574 0.11274 1.72928 0
M  V30 30 H -3.81668 -1.45879 -0.5087 0
M  V30 31 H -2.67851 -1.30962 -1.88597 0
M  V30 32 H -3.60078 0.104098 -1.32668 0
M  V30 33 H -0.744183 -0.989113 -2.43465 0
M  V30 34 H -0.178873 1.24278 -2.36738 0
M  V30 35 H -1.89129 0.870339 -2.12891 0
M  V30 36 H -1.12991 2.04568 -1.04518 0
M  V30 END ATOM
M  V30 BEGIN BOND
M  V30 1 1 1 2
M  V30 2 1 2 3
M  V30 3 1 3 4
M  V30 4 1 4 5
M  V30 5 1 5 6
M  V30 6 1 6 7
M  V30 7 1 7 8
M  V30 8 1 3 9
M  V30 9 1 9 10
M  V30 10 1 10 11
M  V30 11 1 10 12
M  V30 12 1 9 13
M  V30 13 1 9 14
M  V30 14 1 8 3
M  V30 15 1 1 15
M  V30 16 1 1 16
M  V30 17 1 2 17
M  V30 18 1 2 18
M  V30 19 1 4 19
M  V30 20 1 4 20
M  V30 21 1 5 21
M  V30 22 1 5 22
M  V30 23 1 7 23
M  V30 24 1 7 24
M  V30 25 1 8 25
M  V30 26 1 8 26
M  V30 27 1 10 27
M  V30 28 1 11 28
M  V30 29 1 11 29
M  V30 30 1 12 30
M  V30 31 1 12 31
M  V30 32 1 12 32
M  V30 33 1 13 33
M  V30 34 1 14 34
M  V30 35 1 14 35
M  V30 36 1 14 36
M  V30 END BOND
M  V30 END CTAB
M  END
