
     RDKit          3D

  0  0  0  0  0  0  0  0  0  0999 V3000
M  V30 BEGIN CTAB
M  V30 COUNTS 17 17 0 0 0
M  V30 BEGIN ATOM
M  V30 1 O -1.89105 -2.35176 0.420853 0
M  V30 2 C -1.05373 -1.25648 0.253481 0
M  V30 3 C 0.296444 -1.51796 0.131389 0
M  V30 4 C 1.16515 -0.457642 -0.0366969 0
M  V30 5 N 2.5743 -0.679563 -0.167807 0
M  V30 6 C 0.70172 0.859354 -0.08423 0
M  V30 7 C -0.651017 1.11114 0.0388273 0
M  V30 8 C -1.51723 0.0455005 0.207042 0
M  V30 9 N -1.10919 2.45819 -0.0114574 0
M  V30 10 I 2.02224 2.47997 -0.340406 0
M  V30 11 H -2.27365 -2.79553 -0.410492 0
M  V30 12 H 0.717438 -2.51573 0.160106 0
M  V30 13 H 3.21358 -0.549625 0.639132 0
M  V30 14 H 2.98751 -0.976627 -1.07785 0
M  V30 15 H -2.5769 0.238247 0.303802 0
M  V30 16 H -1.97473 2.70255 0.518509 0
M  V30 17 H -0.630868 3.20596 -0.544202 0
M  V30 END ATOM
M  V30 BEGIN BOND
M  V30 1 1 1 2
M  V30 2 2 2 3
M  V30 3 1 3 4
M  V30 4 1 4 5
M  V30 5 2 4 6
M  V30 6 1 6 7
M  V30 7 2 7 8
M  V30 8 1 7 9
M  V30 9 1 6 10
M  V30 10 1 8 2
M  V30 11 1 1 11
M  V30 12 1 3 12
M  V30 13 1 5 13
M  V30 14 1 5 14
M  V30 15 1 8 15
M  V30 16 1 9 16
M  V30 17 1 9 17
M  V30 END BOND
M  V30 END CTAB
M  END
