
     RDKit          3D

  0  0  0  0  0  0  0  0  0  0999 V3000
M  V30 BEGIN CTAB
M  V30 COUNTS 20 20 0 0 0
M  V30 BEGIN ATOM
M  V30 1 N -0.30246 2.07621 -0.190715 0
M  V30 2 C -0.701685 0.836727 -0.844634 0
M  V30 3 C -0.162057 -0.372647 -0.131565 0
M  V30 4 C 1.32515 -0.419121 -0.0523433 0
M  V30 5 N 1.83825 0.713688 0.64358 0
M  V30 6 C -0.793345 -1.66002 -0.608635 0
M  V30 7 O -1.84109 -1.40737 0.293849 0
M  V30 8 C -0.907193 -0.775769 1.11578 0
M  V30 9 H -0.385213 2.03154 0.827185 0
M  V30 10 H -0.864113 2.83382 -0.639841 0
M  V30 11 H -0.410116 0.832917 -1.91289 0
M  V30 12 H -1.81006 0.812207 -0.813539 0
M  V30 13 H 1.7114 -0.497399 -1.106 0
M  V30 14 H 1.63692 -1.33779 0.49285 0
M  V30 15 H 2.22786 1.46327 0.042153 0
M  V30 16 H 2.42201 0.488532 1.47123 0
M  V30 17 H -0.22808 -2.57247 -0.361604 0
M  V30 18 H -1.1339 -1.63257 -1.66245 0
M  V30 19 H -1.31526 0.0547789 1.71452 0
M  V30 20 H -0.307033 -1.46852 1.72307 0
M  V30 END ATOM
M  V30 BEGIN BOND
M  V30 1 1 1 2
M  V30 2 1 2 3
M  V30 3 1 3 4
M  V30 4 1 4 5
M  V30 5 1 3 6
M  V30 6 1 6 7
M  V30 7 1 7 8
M  V30 8 1 8 3
M  V30 9 1 1 9
M  V30 10 1 1 10
M  V30 11 1 2 11
M  V30 12 1 2 12
M  V30 13 1 4 13
M  V30 14 1 4 14
M  V30 15 1 5 15
M  V30 16 1 5 16
M  V30 17 1 6 17
M  V30 18 1 6 18
M  V30 19 1 8 19
M  V30 20 1 8 20
M  V30 END BOND
M  V30 END CTAB
M  END
