
     RDKit          3D

  0  0  0  0  0  0  0  0  0  0999 V3000
M  V30 BEGIN CTAB
M  V30 COUNTS 16 16 0 0 0
M  V30 BEGIN ATOM
M  V30 1 N 2.1519 0.309373 -0.381709 0
M  V30 2 C 0.924277 -0.111237 0.260089 0 CFG=2
M  V30 3 C -0.0873094 -0.715717 -0.67382 0
M  V30 4 C -1.08157 0.343004 -0.236476 0 CFG=2
M  V30 5 C -0.0140596 1.03238 0.57001 0
M  V30 6 N -2.1909 -0.193606 0.531457 0
M  V30 7 H 2.5692 -0.501768 -0.875161 0
M  V30 8 H 2.82669 0.592792 0.3629 0
M  V30 9 H 1.15385 -0.788637 1.09695 0
M  V30 10 H 0.239157 -0.642407 -1.72831 0
M  V30 11 H -0.377673 -1.75644 -0.438622 0
M  V30 12 H -1.41846 0.923602 -1.11485 0
M  V30 13 H 0.298686 2.01344 0.167695 0
M  V30 14 H -0.229964 1.04787 1.65228 0
M  V30 15 H -1.8446 -1.07693 0.974433 0
M  V30 16 H -2.91922 -0.475723 -0.16686 0
M  V30 END ATOM
M  V30 BEGIN BOND
M  V30 1 1 1 2
M  V30 2 1 2 3
M  V30 3 1 3 4
M  V30 4 1 4 5
M  V30 5 1 4 6
M  V30 6 1 5 2
M  V30 7 1 1 7
M  V30 8 1 1 8
M  V30 9 1 2 9 CFG=1
M  V30 10 1 3 10
M  V30 11 1 3 11
M  V30 12 1 4 12 CFG=3
M  V30 13 1 5 13
M  V30 14 1 5 14
M  V30 15 1 6 15
M  V30 16 1 6 16
M  V30 END BOND
M  V30 END CTAB
M  END
