
     RDKit          3D

  0  0  0  0  0  0  0  0  0  0999 V3000
M  V30 BEGIN CTAB
M  V30 COUNTS 46 47 0 0 0
M  V30 BEGIN ATOM
M  V30 1 C 2.62238 -1.24676 1.08189 0
M  V30 2 C 2.58219 0.291994 1.08247 0
M  V30 3 C 1.1253 0.663247 1.24852 0
M  V30 4 O 0.827711 1.48863 2.12614 0
M  V30 5 N 0.187282 0.0547693 0.404523 0
M  V30 6 C -1.21204 0.219485 0.360557 0
M  V30 7 C -1.92638 -0.341595 -0.703838 0
M  V30 8 C -3.29274 -0.265247 -0.812897 0
M  V30 9 C -4.03962 0.382974 0.145629 0
M  V30 10 C -3.36504 0.945953 1.20338 0
M  V30 11 C -1.96518 0.864024 1.30709 0
M  V30 12 C -5.52698 0.454792 0.0443814 0
M  V30 13 C -5.94014 -0.744711 -0.784984 0
M  V30 14 C -6.18778 0.323464 1.37831 0
M  V30 15 C -5.93974 1.73365 -0.632159 0
M  V30 16 S 3.18321 0.836047 -0.524032 0
M  V30 17 C 4.89298 0.34406 -0.745407 0
M  V30 18 N 5.56244 0.670109 -1.87493 0
M  V30 19 C 6.83491 0.296756 -2.0715 0
M  V30 20 N 7.52696 0.653106 -3.27089 0
M  V30 21 N 7.48316 -0.423271 -1.1337 0
M  V30 22 C 6.84926 -0.762563 -0.00569629 0
M  V30 23 N 5.57923 -0.373435 0.1609 0
M  V30 24 N 7.48968 -1.52292 1.00443 0
M  V30 25 H 2.4261 -1.62105 0.0485189 0
M  V30 26 H 1.8135 -1.55977 1.77549 0
M  V30 27 H 3.62041 -1.5298 1.41408 0
M  V30 28 H 3.14125 0.667542 1.93217 0
M  V30 29 H 0.61807 -0.644752 -0.300738 0
M  V30 30 H -1.32666 -0.855652 -1.46669 0
M  V30 31 H -3.80465 -0.716819 -1.65983 0
M  V30 32 H -3.92795 1.46111 1.97377 0
M  V30 33 H -1.48414 1.31976 2.16606 0
M  V30 34 H -6.99284 -1.02403 -0.499511 0
M  V30 35 H -5.33075 -1.65532 -0.534851 0
M  V30 36 H -5.83244 -0.473375 -1.84377 0
M  V30 37 H -5.92647 -0.678459 1.78183 0
M  V30 38 H -7.2849 0.294879 1.21177 0
M  V30 39 H -5.95208 1.15659 2.05607 0
M  V30 40 H -5.79885 2.57546 0.0486193 0
M  V30 41 H -7.0144 1.6277 -0.954811 0
M  V30 42 H -5.33389 1.91371 -1.55755 0
M  V30 43 H 8.49636 1.02642 -3.18875 0
M  V30 44 H 7.07446 0.540739 -4.18519 0
M  V30 45 H 8.35278 -2.10073 0.810632 0
M  V30 46 H 7.11603 -1.53416 1.98451 0
M  V30 END ATOM
M  V30 BEGIN BOND
M  V30 1 1 1 2
M  V30 2 1 2 3
M  V30 3 2 3 4
M  V30 4 1 3 5
M  V30 5 1 5 6
M  V30 6 2 6 7
M  V30 7 1 7 8
M  V30 8 2 8 9
M  V30 9 1 9 10
M  V30 10 2 10 11
M  V30 11 1 9 12
M  V30 12 1 12 13
M  V30 13 1 12 14
M  V30 14 1 12 15
M  V30 15 1 2 16
M  V30 16 1 16 17
M  V30 17 2 17 18
M  V30 18 1 18 19
M  V30 19 1 19 20
M  V30 20 2 19 21
M  V30 21 1 21 22
M  V30 22 2 22 23
M  V30 23 1 22 24
M  V30 24 1 11 6
M  V30 25 1 23 17
M  V30 26 1 1 25
M  V30 27 1 1 26
M  V30 28 1 1 27
M  V30 29 1 2 28
M  V30 30 1 5 29
M  V30 31 1 7 30
M  V30 32 1 8 31
M  V30 33 1 10 32
M  V30 34 1 11 33
M  V30 35 1 13 34
M  V30 36 1 13 35
M  V30 37 1 13 36
M  V30 38 1 14 37
M  V30 39 1 14 38
M  V30 40 1 14 39
M  V30 41 1 15 40
M  V30 42 1 15 41
M  V30 43 1 15 42
M  V30 44 1 20 43
M  V30 45 1 20 44
M  V30 46 1 24 45
M  V30 47 1 24 46
M  V30 END BOND
M  V30 END CTAB
M  END
