
     RDKit          3D

  0  0  0  0  0  0  0  0  0  0999 V3000
M  V30 BEGIN CTAB
M  V30 COUNTS 19 19 0 0 0
M  V30 BEGIN ATOM
M  V30 1 N -2.27538 -1.42286 -0.408551 0
M  V30 2 C -0.93918 -1.20425 0.0370894 0
M  V30 3 C -0.613494 0.284191 -0.0374887 0
M  V30 4 C -1.48766 1.20415 -0.457356 0
M  V30 5 C -1.07407 2.51451 -0.477227 0
M  V30 6 S 0.526933 2.41541 0.0932231 0
M  V30 7 C 0.632672 0.736532 0.340204 0
M  V30 8 S 2.00049 -0.214221 0.933976 0
M  V30 9 O 2.82653 0.767581 1.75623 0
M  V30 10 O 1.55036 -1.30407 1.82111 0
M  V30 11 N 2.96157 -0.721132 -0.3797 0
M  V30 12 H -2.46332 -2.35396 -0.796288 0
M  V30 13 H -3.01621 -1.01592 0.173726 0
M  V30 14 H -0.775583 -1.47755 1.09854 0
M  V30 15 H -0.243927 -1.77307 -0.572219 0
M  V30 16 H -2.52855 0.965496 -0.79027 0
M  V30 17 H -1.66991 3.39355 -0.794944 0
M  V30 18 H 3.962 -0.46336 -0.248755 0
M  V30 19 H 2.62672 -0.331028 -1.29131 0
M  V30 END ATOM
M  V30 BEGIN BOND
M  V30 1 1 1 2
M  V30 2 1 2 3
M  V30 3 1 3 4
M  V30 4 2 4 5
M  V30 5 1 5 6
M  V30 6 1 6 7
M  V30 7 1 7 8
M  V30 8 2 8 9
M  V30 9 2 8 10
M  V30 10 1 8 11
M  V30 11 2 7 3
M  V30 12 1 1 12
M  V30 13 1 1 13
M  V30 14 1 2 14
M  V30 15 1 2 15
M  V30 16 1 4 16
M  V30 17 1 5 17
M  V30 18 1 11 18
M  V30 19 1 11 19
M  V30 END BOND
M  V30 END CTAB
M  END
