
     RDKit          3D

  0  0  0  0  0  0  0  0  0  0999 V3000
M  V30 BEGIN CTAB
M  V30 COUNTS 26 28 0 0 0
M  V30 BEGIN ATOM
M  V30 1 N 3.59981 1.74948 0.372046 0
M  V30 2 C 2.80043 0.5849 0.218755 0
M  V30 3 C 1.42765 0.713887 0.235022 0
M  V30 4 C 0.672511 -0.431301 0.0842986 0
M  V30 5 C 1.28728 -1.67216 -0.0783234 0
M  V30 6 C 2.66059 -1.74974 -0.0878435 0
M  V30 7 C 3.44251 -0.615931 0.061405 0
M  V30 8 N 0.50615 -2.75057 -0.220286 0
M  V30 9 N -0.804032 -2.70259 -0.214616 0
M  V30 10 C -1.41823 -1.52269 -0.0600001 0
M  V30 11 C -0.691872 -0.378368 0.0905906 0
M  V30 12 C -1.3456 0.820039 0.247632 0
M  V30 13 C -2.74397 0.838117 0.249338 0
M  V30 14 N -3.44702 2.06083 0.409558 0
M  V30 15 C -3.45574 -0.320788 0.0968372 0
M  V30 16 C -2.81161 -1.50401 -0.0582121 0
M  V30 17 H 4.04042 2.19217 -0.466671 0
M  V30 18 H 3.78913 2.21396 1.28258 0
M  V30 19 H 1.03029 1.70127 0.364453 0
M  V30 20 H 3.1657 -2.69745 -0.21203 0
M  V30 21 H 4.52271 -0.666186 0.0553407 0
M  V30 22 H -0.871621 1.76556 0.372014 0
M  V30 23 H -3.26964 2.73717 1.18871 0
M  V30 24 H -4.18707 2.31069 -0.28496 0
M  V30 25 H -4.53222 -0.2705 0.102929 0
M  V30 26 H -3.36655 -2.40579 -0.176887 0
M  V30 END ATOM
M  V30 BEGIN BOND
M  V30 1 1 1 2
M  V30 2 2 2 3
M  V30 3 1 3 4
M  V30 4 2 4 5
M  V30 5 1 5 6
M  V30 6 2 6 7
M  V30 7 1 5 8
M  V30 8 2 8 9
M  V30 9 1 9 10
M  V30 10 2 10 11
M  V30 11 1 11 12
M  V30 12 2 12 13
M  V30 13 1 13 14
M  V30 14 1 13 15
M  V30 15 2 15 16
M  V30 16 1 7 2
M  V30 17 1 16 10
M  V30 18 1 11 4
M  V30 19 1 1 17
M  V30 20 1 1 18
M  V30 21 1 3 19
M  V30 22 1 6 20
M  V30 23 1 7 21
M  V30 24 1 12 22
M  V30 25 1 14 23
M  V30 26 1 14 24
M  V30 27 1 15 25
M  V30 28 1 16 26
M  V30 END BOND
M  V30 END CTAB
M  END
