
     RDKit          3D

  0  0  0  0  0  0  0  0  0  0999 V3000
M  V30 BEGIN CTAB
M  V30 COUNTS 28 29 0 0 0
M  V30 BEGIN ATOM
M  V30 1 C 3.65719 0.659494 0.090997 0
M  V30 2 C 2.38144 -0.0930466 0.107932 0
M  V30 3 C 1.17317 0.589957 -0.00466951 0
M  V30 4 N 1.13277 2.00121 -0.136329 0
M  V30 5 C 0.00982295 -0.184261 0.0188987 0
M  V30 6 C 0.0296099 -1.55672 0.146228 0
M  V30 7 C 1.23021 -2.20668 0.255467 0
M  V30 8 C 2.40848 -1.46211 0.235242 0
M  V30 9 C -1.15698 -2.30454 0.166422 0
M  V30 10 C -2.34261 -1.60621 0.053346 0
M  V30 11 C -2.3636 -0.236605 -0.0737743 0
M  V30 12 C -3.64568 0.49842 -0.194196 0
M  V30 13 C -1.18562 0.476924 -0.0911618 0
M  V30 14 N -1.24067 1.88702 -0.223521 0
M  V30 15 H 3.56676 1.64953 0.593185 0
M  V30 16 H 3.96922 0.843225 -0.958192 0
M  V30 17 H 4.47474 0.113746 0.606974 0
M  V30 18 H 1.08748 2.58373 0.717264 0
M  V30 19 H 1.14965 2.46576 -1.05998 0
M  V30 20 H 1.23187 -3.2868 0.355097 0
M  V30 21 H 3.32019 -2.03681 0.325679 0
M  V30 22 H -1.10183 -3.3765 0.267507 0
M  V30 23 H -3.2888 -2.13686 0.0633946 0
M  V30 24 H -4.03857 0.294826 -1.2137 0
M  V30 25 H -4.40745 0.0774177 0.521893 0
M  V30 26 H -3.52839 1.56783 -0.0100561 0
M  V30 27 H -1.22704 2.30114 -1.19492 0
M  V30 28 H -1.29538 2.47691 0.63497 0
M  V30 END ATOM
M  V30 BEGIN BOND
M  V30 1 1 1 2
M  V30 2 2 2 3
M  V30 3 1 3 4
M  V30 4 1 3 5
M  V30 5 2 5 6
M  V30 6 1 6 7
M  V30 7 2 7 8
M  V30 8 1 6 9
M  V30 9 2 9 10
M  V30 10 1 10 11
M  V30 11 1 11 12
M  V30 12 2 11 13
M  V30 13 1 13 14
M  V30 14 1 8 2
M  V30 15 1 13 5
M  V30 16 1 1 15
M  V30 17 1 1 16
M  V30 18 1 1 17
M  V30 19 1 4 18
M  V30 20 1 4 19
M  V30 21 1 7 20
M  V30 22 1 8 21
M  V30 23 1 9 22
M  V30 24 1 10 23
M  V30 25 1 12 24
M  V30 26 1 12 25
M  V30 27 1 12 26
M  V30 28 1 14 27
M  V30 29 1 14 28
M  V30 END BOND
M  V30 END CTAB
M  END
