
     RDKit          3D

  0  0  0  0  0  0  0  0  0  0999 V3000
M  V30 BEGIN CTAB
M  V30 COUNTS 23 23 0 0 0
M  V30 BEGIN ATOM
M  V30 1 N 4.14762 0.606714 1.38806 0
M  V30 2 N 3.4807 0.0921191 0.294431 0
M  V30 3 C 2.06001 0.0635984 0.175897 0
M  V30 4 O 1.41584 0.548187 1.15253 0
M  V30 5 C 1.37342 -0.497663 -1.0152 0
M  V30 6 C -0.0923838 -0.366418 -0.804787 0
M  V30 7 C -0.745084 0.772331 -1.22877 0
M  V30 8 C -2.10663 0.959365 -1.06457 0
M  V30 9 C -2.83218 -0.0408713 -0.450035 0
M  V30 10 C -2.21988 -1.19912 -0.00918195 0
M  V30 11 C -0.849707 -1.3477 -0.193408 0
M  V30 12 N -4.23202 0.169286 -0.289805 0
M  V30 13 H 5.07661 1.02419 1.14303 0
M  V30 14 H 3.58004 1.29664 1.92947 0
M  V30 15 H 4.03985 -0.300569 -0.495413 0
M  V30 16 H 1.65082 0.0539185 -1.94959 0
M  V30 17 H 1.65603 -1.55734 -1.12374 0
M  V30 18 H -0.177834 1.57383 -1.71857 0
M  V30 19 H -2.59516 1.86373 -1.40684 0
M  V30 20 H -2.83176 -1.95377 0.466487 0
M  V30 21 H -0.350386 -2.24191 0.141996 0
M  V30 22 H -4.83407 0.386474 -1.11152 0
M  V30 23 H -4.61386 0.0949704 0.678516 0
M  V30 END ATOM
M  V30 BEGIN BOND
M  V30 1 1 1 2
M  V30 2 1 2 3
M  V30 3 2 3 4
M  V30 4 1 3 5
M  V30 5 1 5 6
M  V30 6 2 6 7
M  V30 7 1 7 8
M  V30 8 2 8 9
M  V30 9 1 9 10
M  V30 10 2 10 11
M  V30 11 1 9 12
M  V30 12 1 11 6
M  V30 13 1 1 13
M  V30 14 1 1 14
M  V30 15 1 2 15
M  V30 16 1 5 16
M  V30 17 1 5 17
M  V30 18 1 7 18
M  V30 19 1 8 19
M  V30 20 1 10 20
M  V30 21 1 11 21
M  V30 22 1 12 22
M  V30 23 1 12 23
M  V30 END BOND
M  V30 END CTAB
M  END
