
     RDKit          3D

  0  0  0  0  0  0  0  0  0  0999 V3000
M  V30 BEGIN CTAB
M  V30 COUNTS 86 88 0 0 0
M  V30 BEGIN ATOM
M  V30 1 C 0.715852 0.292277 -0.896745 0 CFG=1
M  V30 2 C 0.98759 1.79693 -0.906542 0
M  V30 3 C 1.48356 2.25867 -2.24136 0
M  V30 4 C 1.82251 3.73836 -2.23037 0
M  V30 5 N 0.628839 4.4795 -1.91601 0
M  V30 6 C 0.695439 5.90146 -1.84277 0
M  V30 7 N 1.30806 6.63958 -2.87328 0
M  V30 8 N 0.177565 6.4903 -0.800702 0
M  V30 9 N 1.87945 -0.492789 -1.08039 0
M  V30 10 C 3.25172 -0.216747 -0.987151 0
M  V30 11 O 3.72257 0.865646 -0.657208 0
M  V30 12 C 4.19968 -1.34294 -1.33786 0 CFG=2
M  V30 13 C 4.17802 -2.35385 -0.262515 0
M  V30 14 C 4.61299 -1.97595 1.07247 0
M  V30 15 C 5.9287 -2.14297 1.50925 0
M  V30 16 C 6.27631 -1.76932 2.77083 0
M  V30 17 C 5.39879 -1.22048 3.67947 0
M  V30 18 O 5.78827 -0.846782 4.96969 0
M  V30 19 C 4.10295 -1.06005 3.23799 0
M  V30 20 C 3.70895 -1.4271 1.96326 0
M  V30 21 N 5.52245 -0.803592 -1.57843 0
M  V30 22 C 6.52761 -1.6324 -2.11899 0
M  V30 23 N 6.17943 -2.74764 -2.97358 0
M  V30 24 N 7.78361 -1.45426 -1.8977 0
M  V30 25 C -0.293961 -0.146728 0.0383802 0
M  V30 26 O 0.00261446 -0.817306 1.04617 0
M  V30 27 N -1.66393 0.160542 -0.154337 0
M  V30 28 C -2.69198 -0.294982 0.793826 0 CFG=1
M  V30 29 C -3.54604 0.869902 1.10798 0
M  V30 30 C -4.24295 1.48626 -0.0167129 0
M  V30 31 C -5.48088 0.931984 -0.367684 0
M  V30 32 C -6.22067 1.45125 -1.40552 0
M  V30 33 C -5.80419 2.51688 -2.14297 0
M  V30 34 C -4.5747 3.0724 -1.79895 0
M  V30 35 C -3.83395 2.55902 -0.765765 0
M  V30 36 C -3.39923 -1.46424 0.267579 0
M  V30 37 O -3.25036 -1.75863 -0.944587 0
M  V30 38 N -4.23571 -2.28353 1.04447 0
M  V30 39 C -5.01285 -3.44583 0.60298 0
M  V30 40 C -6.17906 -3.49647 1.54491 0
M  V30 41 C -6.00464 -2.31811 2.48926 0
M  V30 42 C -4.48387 -2.18549 2.44944 0 CFG=1
M  V30 43 C -3.90747 -3.33677 3.21249 0
M  V30 44 O -4.1005 -3.34146 4.5818 0
M  V30 45 O -3.27471 -4.28013 2.71197 0
M  V30 46 H 0.182914 0.216641 -1.96749 0
M  V30 47 H 1.70279 2.06546 -0.119856 0
M  V30 48 H 0.0411812 2.32929 -0.641095 0
M  V30 49 H 2.25733 1.66929 -2.67086 0
M  V30 50 H 0.569884 2.13445 -2.94839 0
M  V30 51 H 2.54135 3.9269 -1.39634 0
M  V30 52 H 2.30555 4.07113 -3.15993 0
M  V30 53 H -0.306241 4.01047 -1.73441 0
M  V30 54 H 1.97271 6.19211 -3.54328 0
M  V30 55 H 1.09916 7.67613 -2.98366 0
M  V30 56 H -0.269886 5.93457 -0.0485587 0
M  V30 57 H 1.62 -1.53284 -1.35363 0
M  V30 58 H 3.82927 -1.77071 -2.27594 0
M  V30 59 H 4.84475 -3.20389 -0.601668 0
M  V30 60 H 3.15407 -2.77865 -0.201495 0
M  V30 61 H 6.61191 -2.58128 0.797036 0
M  V30 62 H 7.30851 -1.91875 3.0677 0
M  V30 63 H 5.70688 -1.55579 5.68368 0
M  V30 64 H 3.40321 -0.622682 3.95901 0
M  V30 65 H 2.67178 -1.26677 1.71043 0
M  V30 66 H 5.71317 0.179728 -1.35146 0
M  V30 67 H 6.44096 -3.69305 -2.61409 0
M  V30 68 H 5.70252 -2.60149 -3.87819 0
M  V30 69 H 8.4929 -2.07683 -2.30581 0
M  V30 70 H -1.93472 0.71789 -0.985137 0
M  V30 71 H -2.15355 -0.628422 1.69085 0
M  V30 72 H -2.85009 1.66872 1.51189 0
M  V30 73 H -4.28201 0.73428 1.91792 0
M  V30 74 H -5.90362 0.0845774 0.153864 0
M  V30 75 H -7.17746 1.00085 -1.65579 0
M  V30 76 H -6.39243 2.91635 -2.9513 0
M  V30 77 H -4.25051 3.92867 -2.39462 0
M  V30 78 H -2.89394 3.01251 -0.527592 0
M  V30 79 H -4.43725 -4.36631 0.542376 0
M  V30 80 H -5.42776 -3.24911 -0.430323 0
M  V30 81 H -6.13844 -4.42232 2.18473 0
M  V30 82 H -7.13686 -3.37436 1.03981 0
M  V30 83 H -6.40568 -1.37402 2.07096 0
M  V30 84 H -6.37275 -2.49063 3.49958 0
M  V30 85 H -4.09979 -1.29013 2.92168 0
M  V30 86 H -4.42173 -2.52639 5.09333 0
M  V30 END ATOM
M  V30 BEGIN BOND
M  V30 1 1 1 2
M  V30 2 1 2 3
M  V30 3 1 3 4
M  V30 4 1 4 5
M  V30 5 1 5 6
M  V30 6 1 6 7
M  V30 7 2 6 8 CFG=2
M  V30 8 1 1 9
M  V30 9 1 9 10
M  V30 10 2 10 11
M  V30 11 1 10 12
M  V30 12 1 12 13
M  V30 13 1 13 14
M  V30 14 2 14 15
M  V30 15 1 15 16
M  V30 16 2 16 17
M  V30 17 1 17 18
M  V30 18 1 17 19
M  V30 19 2 19 20
M  V30 20 1 12 21
M  V30 21 1 21 22
M  V30 22 1 22 23
M  V30 23 2 22 24 CFG=2
M  V30 24 1 1 25
M  V30 25 2 25 26
M  V30 26 1 25 27
M  V30 27 1 27 28
M  V30 28 1 28 29
M  V30 29 1 29 30
M  V30 30 2 30 31
M  V30 31 1 31 32
M  V30 32 2 32 33
M  V30 33 1 33 34
M  V30 34 2 34 35
M  V30 35 1 28 36
M  V30 36 2 36 37
M  V30 37 1 36 38
M  V30 38 1 38 39
M  V30 39 1 39 40
M  V30 40 1 40 41
M  V30 41 1 41 42
M  V30 42 1 42 43
M  V30 43 1 43 44
M  V30 44 2 43 45
M  V30 45 1 20 14
M  V30 46 1 35 30
M  V30 47 1 42 38
M  V30 48 1 1 46 CFG=3
M  V30 49 1 2 47
M  V30 50 1 2 48
M  V30 51 1 3 49
M  V30 52 1 3 50
M  V30 53 1 4 51
M  V30 54 1 4 52
M  V30 55 1 5 53
M  V30 56 1 7 54
M  V30 57 1 7 55
M  V30 58 1 8 56
M  V30 59 1 9 57
M  V30 60 1 12 58 CFG=3
M  V30 61 1 13 59
M  V30 62 1 13 60
M  V30 63 1 15 61
M  V30 64 1 16 62
M  V30 65 1 18 63
M  V30 66 1 19 64
M  V30 67 1 20 65
M  V30 68 1 21 66
M  V30 69 1 23 67
M  V30 70 1 23 68
M  V30 71 1 24 69
M  V30 72 1 27 70
M  V30 73 1 28 71 CFG=1
M  V30 74 1 29 72
M  V30 75 1 29 73
M  V30 76 1 31 74
M  V30 77 1 32 75
M  V30 78 1 33 76
M  V30 79 1 34 77
M  V30 80 1 35 78
M  V30 81 1 39 79
M  V30 82 1 39 80
M  V30 83 1 40 81
M  V30 84 1 40 82
M  V30 85 1 41 83
M  V30 86 1 41 84
M  V30 87 1 42 85 CFG=1
M  V30 88 1 44 86
M  V30 END BOND
M  V30 END CTAB
M  END
