
     RDKit          3D

  0  0  0  0  0  0  0  0  0  0999 V3000
M  V30 BEGIN CTAB
M  V30 COUNTS 23 22 0 0 0
M  V30 BEGIN ATOM
M  V30 1 N 2.95717 -0.75146 -0.218574 0
M  V30 2 C 2.53182 0.585973 -0.0418443 0
M  V30 3 N 3.34621 1.51763 -0.488414 0
M  V30 4 N 1.30752 0.957688 0.570008 0
M  V30 5 C 0.053022 0.834705 -0.0943713 0
M  V30 6 C -0.437489 -0.551373 -0.332764 0
M  V30 7 S -2.01209 -0.375283 -1.19246 0
M  V30 8 O -2.63745 -1.73789 -1.23453 0
M  V30 9 O -1.80455 0.194729 -2.55306 0
M  V30 10 N -2.94602 0.717237 -0.197366 0
M  V30 11 C -0.809086 -1.28102 0.955452 0
M  V30 12 H 2.89198 -1.39033 0.605117 0
M  V30 13 H 3.32952 -1.12454 -1.12219 0
M  V30 14 H 3.0612 2.53725 -0.374227 0
M  V30 15 H 1.36804 1.33129 1.54298 0
M  V30 16 H -0.707475 1.46093 0.453084 0
M  V30 17 H 0.0964648 1.33686 -1.10919 0
M  V30 18 H 0.258986 -1.21166 -0.863087 0
M  V30 19 H -3.66881 1.21916 -0.754939 0
M  V30 20 H -3.31467 0.262058 0.639902 0
M  V30 21 H 0.0434328 -1.81038 1.36424 0
M  V30 22 H -1.3724 -0.644564 1.65232 0
M  V30 23 H -1.53531 -2.07702 0.632753 0
M  V30 END ATOM
M  V30 BEGIN BOND
M  V30 1 1 1 2
M  V30 2 2 2 3 CFG=2
M  V30 3 1 2 4
M  V30 4 1 4 5
M  V30 5 1 5 6
M  V30 6 1 6 7
M  V30 7 2 7 8
M  V30 8 2 7 9
M  V30 9 1 7 10
M  V30 10 1 6 11
M  V30 11 1 1 12
M  V30 12 1 1 13
M  V30 13 1 3 14
M  V30 14 1 4 15
M  V30 15 1 5 16
M  V30 16 1 5 17
M  V30 17 1 6 18
M  V30 18 1 10 19
M  V30 19 1 10 20
M  V30 20 1 11 21
M  V30 21 1 11 22
M  V30 22 1 11 23
M  V30 END BOND
M  V30 END CTAB
M  END
