
     RDKit          3D

  0  0  0  0  0  0  0  0  0  0999 V3000
M  V30 BEGIN CTAB
M  V30 COUNTS 27 27 0 0 0
M  V30 BEGIN ATOM
M  V30 1 N -2.37859 0.785851 -1.89931 0
M  V30 2 C -1.67825 0.0361386 -0.946209 0 CFG=2
M  V30 3 C -2.42331 0.0220598 0.394155 0
M  V30 4 C -1.71597 -1.11708 1.13511 0
M  V30 5 C -0.366887 -0.625723 1.51995 0
M  V30 6 C 0.401006 0.0892398 0.479662 0 CFG=2
M  V30 7 C -0.332961 0.610881 -0.693005 0
M  V30 8 N 1.49068 -0.725545 0.0330695 0
M  V30 9 S 3.03208 -0.166592 0.362047 0
M  V30 10 O 4.00324 -1.29561 0.578517 0
M  V30 11 O 3.00502 0.66799 1.62087 0
M  V30 12 N 3.58722 0.82717 -0.942547 0
M  V30 13 H -2.29758 1.75688 -1.79277 0
M  V30 14 H -3.18945 0.442753 -2.31472 0
M  V30 15 H -1.57604 -1.00733 -1.31334 0
M  V30 16 H -2.16645 0.989988 0.891686 0
M  V30 17 H -3.4902 -0.150849 0.278676 0
M  V30 18 H -1.62155 -1.998 0.468445 0
M  V30 19 H -2.2748 -1.4061 2.04056 0
M  V30 20 H 0.210221 -1.52279 1.89645 0
M  V30 21 H -0.508824 -0.00382447 2.45462 0
M  V30 22 H 0.891144 0.978426 0.983609 0
M  V30 23 H -0.465707 1.73339 -0.652195 0
M  V30 24 H 0.265625 0.462585 -1.64173 0
M  V30 25 H 1.32955 -1.3404 -0.739871 0
M  V30 26 H 4.11058 1.6586 -0.588053 0
M  V30 27 H 4.16023 0.297889 -1.61365 0
M  V30 END ATOM
M  V30 BEGIN BOND
M  V30 1 1 1 2
M  V30 2 1 2 3
M  V30 3 1 3 4
M  V30 4 1 4 5
M  V30 5 1 5 6
M  V30 6 1 6 7
M  V30 7 1 6 8
M  V30 8 1 8 9
M  V30 9 2 9 10
M  V30 10 2 9 11
M  V30 11 1 9 12
M  V30 12 1 7 2
M  V30 13 1 1 13
M  V30 14 1 1 14
M  V30 15 1 2 15 CFG=3
M  V30 16 1 3 16
M  V30 17 1 3 17
M  V30 18 1 4 18
M  V30 19 1 4 19
M  V30 20 1 5 20
M  V30 21 1 5 21
M  V30 22 1 6 22 CFG=1
M  V30 23 1 7 23
M  V30 24 1 7 24
M  V30 25 1 8 25
M  V30 26 1 12 26
M  V30 27 1 12 27
M  V30 END BOND
M  V30 END CTAB
M  END
