
     RDKit          3D

  0  0  0  0  0  0  0  0  0  0999 V3000
M  V30 BEGIN CTAB
M  V30 COUNTS 34 36 0 0 0
M  V30 BEGIN ATOM
M  V30 1 N 5.09867 -0.333527 1.52259 0
M  V30 2 C 3.96268 -0.608567 0.695631 0
M  V30 3 C 4.0864 -1.36217 -0.454138 0
M  V30 4 N 3.08297 -1.66063 -1.27245 0
M  V30 5 C 1.84236 -1.19826 -0.968688 0
M  V30 6 C 1.66964 -0.436727 0.176718 0
M  V30 7 C 2.71316 -0.131253 1.01996 0
M  V30 8 N 2.46654 0.652369 2.17486 0
M  V30 9 C 0.378689 0.0241315 0.460674 0
M  V30 10 C -0.695123 -0.249245 -0.342134 0
M  V30 11 C -0.462544 -1.00839 -1.46305 0
M  V30 12 C 0.779641 -1.49247 -1.80068 0
M  V30 13 N -1.97092 0.248092 0.0113791 0
M  V30 14 C -2.21316 0.965668 1.23791 0
M  V30 15 C -3.63277 0.912282 1.69733 0
M  V30 16 O -4.58567 0.97817 0.721224 0
M  V30 17 C -4.12209 1.08616 -0.561194 0
M  V30 18 C -3.07879 0.0383274 -0.88434 0
M  V30 19 H 4.98632 -0.18972 2.54342 0
M  V30 20 H 6.04649 -0.275958 1.10413 0
M  V30 21 H 5.08635 -1.72396 -0.681745 0
M  V30 22 H 2.67412 1.67276 2.1155 0
M  V30 23 H 2.09722 0.281462 3.06529 0
M  V30 24 H 0.288849 0.611878 1.35711 0
M  V30 25 H -1.32345 -1.22875 -2.10623 0
M  V30 26 H 0.962949 -2.08731 -2.6787 0
M  V30 27 H -1.86027 2.01261 1.16201 0
M  V30 28 H -1.60286 0.509703 2.06915 0
M  V30 29 H -3.81235 -0.00631195 2.31761 0
M  V30 30 H -3.78409 1.79461 2.38604 0
M  V30 31 H -3.76022 2.11539 -0.719578 0
M  V30 32 H -4.98459 0.897845 -1.25245 0
M  V30 33 H -3.52075 -0.943356 -0.670492 0
M  V30 34 H -2.81339 0.135139 -1.9543 0
M  V30 END ATOM
M  V30 BEGIN BOND
M  V30 1 1 1 2
M  V30 2 2 2 3
M  V30 3 1 3 4
M  V30 4 2 4 5
M  V30 5 1 5 6
M  V30 6 2 6 7
M  V30 7 1 7 8
M  V30 8 1 6 9
M  V30 9 2 9 10
M  V30 10 1 10 11
M  V30 11 2 11 12
M  V30 12 1 10 13
M  V30 13 1 13 14
M  V30 14 1 14 15
M  V30 15 1 15 16
M  V30 16 1 16 17
M  V30 17 1 17 18
M  V30 18 1 7 2
M  V30 19 1 18 13
M  V30 20 1 12 5
M  V30 21 1 1 19
M  V30 22 1 1 20
M  V30 23 1 3 21
M  V30 24 1 8 22
M  V30 25 1 8 23
M  V30 26 1 9 24
M  V30 27 1 11 25
M  V30 28 1 12 26
M  V30 29 1 14 27
M  V30 30 1 14 28
M  V30 31 1 15 29
M  V30 32 1 15 30
M  V30 33 1 17 31
M  V30 34 1 17 32
M  V30 35 1 18 33
M  V30 36 1 18 34
M  V30 END BOND
M  V30 END CTAB
M  END
