
     RDKit          3D

  0  0  0  0  0  0  0  0  0  0999 V3000
M  V30 BEGIN CTAB
M  V30 COUNTS 15 15 0 0 0
M  V30 BEGIN ATOM
M  V30 1 N -2.06823 1.19457 -0.509506 0
M  V30 2 C -0.900344 0.440183 -0.201157 0
M  V30 3 N 0.310925 1.02165 -0.232162 0
M  V30 4 C 1.42598 0.303827 0.0616152 0
M  V30 5 N 2.72241 0.875801 0.0413893 0
M  V30 6 C 1.22939 -1.02586 0.384385 0
M  V30 7 Cl 2.67926 -1.96357 0.767498 0
M  V30 8 N 0.0142788 -1.59773 0.412541 0
M  V30 9 C -1.08501 -0.887414 0.122245 0
M  V30 10 C -2.38186 -1.50642 0.154556 0
M  V30 11 N -3.43156 -1.99785 0.182338 0
M  V30 12 H -2.22529 2.05319 0.0787841 0
M  V30 13 H -2.7098 0.89504 -1.27269 0
M  V30 14 H 3.08416 1.23537 -0.861262 0
M  V30 15 H 3.33569 0.95921 0.87143 0
M  V30 END ATOM
M  V30 BEGIN BOND
M  V30 1 1 1 2
M  V30 2 2 2 3
M  V30 3 1 3 4
M  V30 4 1 4 5
M  V30 5 2 4 6
M  V30 6 1 6 7
M  V30 7 1 6 8
M  V30 8 2 8 9
M  V30 9 1 9 10
M  V30 10 3 10 11
M  V30 11 1 9 2
M  V30 12 1 1 12
M  V30 13 1 1 13
M  V30 14 1 5 14
M  V30 15 1 5 15
M  V30 END BOND
M  V30 END CTAB
M  END
