
     RDKit          3D

  0  0  0  0  0  0  0  0  0  0999 V3000
M  V30 BEGIN CTAB
M  V30 COUNTS 37 38 0 0 0
M  V30 BEGIN ATOM
M  V30 1 C -4.18269 2.76929 -0.824323 0
M  V30 2 O -2.97393 2.10544 -0.621994 0
M  V30 3 C -2.83199 0.779191 -0.270571 0
M  V30 4 C -3.92006 -0.0619705 -0.0750591 0
M  V30 5 C -3.78114 -1.3888 0.276448 0
M  V30 6 O -4.90666 -2.197 0.462434 0
M  V30 7 C -4.75219 -3.54593 0.820101 0
M  V30 8 C -2.50252 -1.88207 0.435637 0
M  V30 9 C -1.42403 -1.05252 0.242947 0
M  V30 10 C -1.56286 0.279095 -0.109812 0
M  V30 11 C -0.422556 1.154 -0.312967 0
M  V30 12 O -0.618632 2.35211 -0.632022 0
M  V30 13 O 0.888394 0.75865 -0.178718 0
M  V30 14 C 1.98953 1.6284 -0.38143 0
M  V30 15 C 3.28233 0.939018 -0.170418 0
M  V30 16 N 3.4073 -0.35574 0.171918 0
M  V30 17 C 4.60036 -0.946964 0.35486 0
M  V30 18 N 4.74579 -2.31047 0.715701 0
M  V30 19 N 5.69812 -0.218968 0.189754 0
M  V30 20 C 5.63773 1.07019 -0.149599 0
M  V30 21 N 4.41452 1.6459 -0.329183 0
M  V30 22 N 6.79625 1.87666 -0.333848 0
M  V30 23 H -4.04655 3.81691 -0.42402 0
M  V30 24 H -4.46885 2.86587 -1.89671 0
M  V30 25 H -5.0285 2.35234 -0.242431 0
M  V30 26 H -4.93252 0.314976 -0.197529 0
M  V30 27 H -3.99006 -3.98339 0.148857 0
M  V30 28 H -5.73268 -4.05897 0.632913 0
M  V30 29 H -4.48367 -3.69486 1.87833 0
M  V30 30 H -2.34559 -2.91381 0.710109 0
M  V30 31 H -0.41512 -1.45277 0.371445 0
M  V30 32 H 1.90942 2.00001 -1.42594 0
M  V30 33 H 1.91464 2.53867 0.265751 0
M  V30 34 H 4.25167 -3.03875 0.154729 0
M  V30 35 H 5.34383 -2.53229 1.53149 0
M  V30 36 H 7.66086 1.54991 -0.816944 0
M  V30 37 H 6.78208 2.83867 0.0300912 0
M  V30 END ATOM
M  V30 BEGIN BOND
M  V30 1 1 1 2
M  V30 2 1 2 3
M  V30 3 2 3 4
M  V30 4 1 4 5
M  V30 5 1 5 6
M  V30 6 1 6 7
M  V30 7 2 5 8
M  V30 8 1 8 9
M  V30 9 2 9 10
M  V30 10 1 10 11
M  V30 11 2 11 12
M  V30 12 1 11 13
M  V30 13 1 13 14
M  V30 14 1 14 15
M  V30 15 2 15 16
M  V30 16 1 16 17
M  V30 17 1 17 18
M  V30 18 2 17 19
M  V30 19 1 19 20
M  V30 20 2 20 21
M  V30 21 1 20 22
M  V30 22 1 10 3
M  V30 23 1 21 15
M  V30 24 1 1 23
M  V30 25 1 1 24
M  V30 26 1 1 25
M  V30 27 1 4 26
M  V30 28 1 7 27
M  V30 29 1 7 28
M  V30 30 1 7 29
M  V30 31 1 8 30
M  V30 32 1 9 31
M  V30 33 1 14 32
M  V30 34 1 14 33
M  V30 35 1 18 34
M  V30 36 1 18 35
M  V30 37 1 22 36
M  V30 38 1 22 37
M  V30 END BOND
M  V30 END CTAB
M  END
