
     RDKit          3D

  0  0  0  0  0  0  0  0  0  0999 V3000
M  V30 BEGIN CTAB
M  V30 COUNTS 42 43 0 0 0
M  V30 BEGIN ATOM
M  V30 1 N -4.26512 1.06206 1.6033 0
M  V30 2 C -4.22388 -0.0669684 0.688554 0
M  V30 3 C -3.08489 -0.939274 1.08464 0
M  V30 4 C -2.26948 -1.45025 -0.0731688 0
M  V30 5 N -1.8528 -0.278653 -0.843689 0
M  V30 6 C -2.92157 0.488427 -1.40909 0
M  V30 7 C -4.21823 0.440507 -0.702586 0
M  V30 8 C -0.482424 0.053401 -1.0068 0
M  V30 9 O -0.187736 1.06097 -1.67239 0
M  V30 10 C 0.542676 -0.793694 -0.391019 0
M  V30 11 C 1.95841 -0.323243 -0.558276 0
M  V30 12 C 2.87441 -1.32748 0.11356 0
M  V30 13 C 4.26872 -0.818852 0.301647 0
M  V30 14 C 4.583 0.458626 -0.368696 0
M  V30 15 C 3.52899 1.50343 -0.339422 0
M  V30 16 C 2.18019 0.993055 0.159443 0
M  V30 17 N 2.28619 0.800341 1.59292 0
M  V30 18 H -4.64002 0.713951 2.51296 0
M  V30 19 H -4.83919 1.84288 1.20916 0
M  V30 20 H -5.17417 -0.635622 0.882721 0
M  V30 21 H -2.38554 -0.40593 1.76237 0
M  V30 22 H -3.43024 -1.83048 1.64895 0
M  V30 23 H -2.83462 -2.08675 -0.774846 0
M  V30 24 H -1.38885 -1.98289 0.338497 0
M  V30 25 H -3.02418 0.141631 -2.48005 0
M  V30 26 H -2.5239 1.53807 -1.52381 0
M  V30 27 H -4.66987 1.47495 -0.743907 0
M  V30 28 H -4.92097 -0.185526 -1.31365 0
M  V30 29 H 0.425523 -1.81846 -0.83335 0
M  V30 30 H 0.354799 -0.926728 0.711283 0
M  V30 31 H 2.19734 -0.205298 -1.61113 0
M  V30 32 H 2.82239 -2.27228 -0.458049 0
M  V30 33 H 2.43486 -1.52734 1.11214 0
M  V30 34 H 4.54536 -0.782704 1.3822 0
M  V30 35 H 4.95447 -1.60876 -0.129993 0
M  V30 36 H 5.49653 0.892743 0.135826 0
M  V30 37 H 4.93661 0.269574 -1.42566 0
M  V30 38 H 3.3404 1.85976 -1.38824 0
M  V30 39 H 3.81443 2.40547 0.239318 0
M  V30 40 H 1.42971 1.73973 -0.0521096 0
M  V30 41 H 3.00326 1.48596 1.94593 0
M  V30 42 H 1.35942 1.04166 2.04722 0
M  V30 END ATOM
M  V30 BEGIN BOND
M  V30 1 1 1 2
M  V30 2 1 2 3
M  V30 3 1 3 4
M  V30 4 1 4 5
M  V30 5 1 5 6
M  V30 6 1 6 7
M  V30 7 1 5 8
M  V30 8 2 8 9
M  V30 9 1 8 10
M  V30 10 1 10 11
M  V30 11 1 11 12
M  V30 12 1 12 13
M  V30 13 1 13 14
M  V30 14 1 14 15
M  V30 15 1 15 16
M  V30 16 1 16 17
M  V30 17 1 7 2
M  V30 18 1 16 11
M  V30 19 1 1 18
M  V30 20 1 1 19
M  V30 21 1 2 20
M  V30 22 1 3 21
M  V30 23 1 3 22
M  V30 24 1 4 23
M  V30 25 1 4 24
M  V30 26 1 6 25
M  V30 27 1 6 26
M  V30 28 1 7 27
M  V30 29 1 7 28
M  V30 30 1 10 29
M  V30 31 1 10 30
M  V30 32 1 11 31
M  V30 33 1 12 32
M  V30 34 1 12 33
M  V30 35 1 13 34
M  V30 36 1 13 35
M  V30 37 1 14 36
M  V30 38 1 14 37
M  V30 39 1 15 38
M  V30 40 1 15 39
M  V30 41 1 16 40
M  V30 42 1 17 41
M  V30 43 1 17 42
M  V30 END BOND
M  V30 END CTAB
M  END
