
     RDKit          3D

  0  0  0  0  0  0  0  0  0  0999 V3000
M  V30 BEGIN CTAB
M  V30 COUNTS 46 47 0 0 0
M  V30 BEGIN ATOM
M  V30 1 N -4.32528 -2.04208 -0.268552 0
M  V30 2 C -3.02269 -1.54114 0.144311 0
M  V30 3 C -2.99471 -0.0052149 0.122627 0
M  V30 4 C -3.27485 0.513216 -1.24546 0
M  V30 5 C -4.62396 1.11244 -1.45381 0
M  V30 6 O -5.2208 1.63194 -0.331243 0
M  V30 7 C -5.27909 0.748828 0.731409 0
M  V30 8 C -3.88859 0.486797 1.20398 0
M  V30 9 C -1.56525 0.329597 0.505429 0
M  V30 10 O -1.43143 0.999933 1.54329 0
M  V30 11 N -0.495144 -0.0947511 -0.266365 0
M  V30 12 C 0.860678 0.140249 -0.041427 0
M  V30 13 C 1.3695 1.0633 0.838182 0
M  V30 14 C 2.7458 1.24347 1.03765 0
M  V30 15 C 3.66131 0.488727 0.346872 0
M  V30 16 C 3.17017 -0.432852 -0.531479 0
M  V30 17 C 1.82993 -0.618503 -0.73526 0
M  V30 18 S 4.33084 -1.41511 -1.42382 0
M  V30 19 O 5.23497 -0.560904 -2.25642 0
M  V30 20 O 3.58584 -2.39656 -2.30564 0
M  V30 21 N 5.24242 -2.33086 -0.306446 0
M  V30 22 C 5.09694 0.709867 0.582538 0
M  V30 23 C 5.28372 1.87516 1.53398 0
M  V30 24 H -4.4366 -1.87922 -1.2845 0
M  V30 25 H -4.31433 -3.06552 -0.0988766 0
M  V30 26 H -2.24359 -1.89714 -0.559119 0
M  V30 27 H -2.79722 -1.84532 1.19104 0
M  V30 28 H -3.20714 -0.36383 -1.95591 0
M  V30 29 H -2.44573 1.20359 -1.54153 0
M  V30 30 H -5.31701 0.42916 -2.0273 0
M  V30 31 H -4.48491 1.98397 -2.16138 0
M  V30 32 H -5.8856 -0.142309 0.539522 0
M  V30 33 H -5.80445 1.30019 1.55926 0
M  V30 34 H -3.91418 -0.277066 2.01204 0
M  V30 35 H -3.47764 1.45912 1.57864 0
M  V30 36 H -0.737443 -0.665269 -1.13772 0
M  V30 37 H 0.714108 1.70354 1.41096 0
M  V30 38 H 3.05795 1.99131 1.74908 0
M  V30 39 H 1.4569 -1.36387 -1.44499 0
M  V30 40 H 5.43091 -3.30763 -0.624057 0
M  V30 41 H 4.78697 -2.39507 0.645188 0
M  V30 42 H 5.59972 0.978841 -0.371098 0
M  V30 43 H 5.6403 -0.167484 0.99027 0
M  V30 44 H 4.81315 2.75625 1.07228 0
M  V30 45 H 4.89714 1.57975 2.51186 0
M  V30 46 H 6.3784 2.07848 1.56787 0
M  V30 END ATOM
M  V30 BEGIN BOND
M  V30 1 1 1 2
M  V30 2 1 2 3
M  V30 3 1 3 4
M  V30 4 1 4 5
M  V30 5 1 5 6
M  V30 6 1 6 7
M  V30 7 1 7 8
M  V30 8 1 3 9
M  V30 9 2 9 10
M  V30 10 1 9 11
M  V30 11 1 11 12
M  V30 12 2 12 13
M  V30 13 1 13 14
M  V30 14 2 14 15
M  V30 15 1 15 16
M  V30 16 2 16 17
M  V30 17 1 16 18
M  V30 18 2 18 19
M  V30 19 2 18 20
M  V30 20 1 18 21
M  V30 21 1 15 22
M  V30 22 1 22 23
M  V30 23 1 8 3
M  V30 24 1 17 12
M  V30 25 1 1 24
M  V30 26 1 1 25
M  V30 27 1 2 26
M  V30 28 1 2 27
M  V30 29 1 4 28
M  V30 30 1 4 29
M  V30 31 1 5 30
M  V30 32 1 5 31
M  V30 33 1 7 32
M  V30 34 1 7 33
M  V30 35 1 8 34
M  V30 36 1 8 35
M  V30 37 1 11 36
M  V30 38 1 13 37
M  V30 39 1 14 38
M  V30 40 1 17 39
M  V30 41 1 21 40
M  V30 42 1 21 41
M  V30 43 1 22 42
M  V30 44 1 22 43
M  V30 45 1 23 44
M  V30 46 1 23 45
M  V30 47 1 23 46
M  V30 END BOND
M  V30 END CTAB
M  END
