
     RDKit          3D

  0  0  0  0  0  0  0  0  0  0999 V3000
M  V30 BEGIN CTAB
M  V30 COUNTS 39 42 0 0 0
M  V30 BEGIN ATOM
M  V30 1 N 6.48121 0.841215 1.37777 0
M  V30 2 C 5.1653 0.564486 0.908914 0
M  V30 3 N 4.85794 -0.648037 0.424025 0
M  V30 4 C 3.65203 -0.970585 -0.0281852 0
M  V30 5 N 3.34715 -2.25733 -0.53662 0
M  V30 6 C 2.64606 -0.0041087 -0.00137377 0
M  V30 7 C 1.38859 -0.319828 -0.466212 0
M  V30 8 C 0.353907 0.626106 -0.454379 0
M  V30 9 C 0.690829 1.85623 0.0448779 0
M  V30 10 C 1.94974 2.17012 0.509477 0
M  V30 11 C 2.9498 1.22877 0.489133 0
M  V30 12 N 4.19648 1.49449 0.934485 0
M  V30 13 N -0.909185 0.24827 -0.938258 0
M  V30 14 C -1.11958 -1.12569 -1.36465 0
M  V30 15 C -2.59973 -1.4264 -1.5027 0
M  V30 16 C -3.37585 -0.760341 -0.440507 0
M  V30 17 C -3.10064 0.570856 -0.174957 0
M  V30 18 C -2.01287 1.16578 -1.0342 0
M  V30 19 C -3.7675 1.26203 0.784996 0
M  V30 20 C -4.74835 0.586599 1.50433 0
M  V30 21 C -5.02358 -0.739824 1.24081 0
M  V30 22 C -4.36068 -1.44382 0.279596 0
M  V30 23 H 7.08883 1.4509 0.783558 0
M  V30 24 H 6.8657 0.47003 2.27522 0
M  V30 25 H 3.69783 -2.50446 -1.47838 0
M  V30 26 H 2.79585 -2.94958 -0.0113306 0
M  V30 27 H 1.2255 -1.33042 -0.843754 0
M  V30 28 H -0.0984348 2.61833 0.069187 0
M  V30 29 H 2.16247 3.15169 0.891652 0
M  V30 30 H -0.731016 -1.85278 -0.610184 0
M  V30 31 H -0.63679 -1.34517 -2.33308 0
M  V30 32 H -2.98645 -1.07296 -2.50035 0
M  V30 33 H -2.71934 -2.52604 -1.43031 0
M  V30 34 H -2.35374 1.11996 -2.11335 0
M  V30 35 H -1.8155 2.19723 -0.758613 0
M  V30 36 H -3.52259 2.28797 0.956308 0
M  V30 37 H -5.28287 1.11819 2.2646 0
M  V30 38 H -5.80257 -1.26061 1.81852 0
M  V30 39 H -4.54795 -2.49126 0.0409637 0
M  V30 END ATOM
M  V30 BEGIN BOND
M  V30 1 1 1 2
M  V30 2 2 2 3
M  V30 3 1 3 4
M  V30 4 1 4 5
M  V30 5 2 4 6
M  V30 6 1 6 7
M  V30 7 2 7 8
M  V30 8 1 8 9
M  V30 9 2 9 10
M  V30 10 1 10 11
M  V30 11 2 11 12
M  V30 12 1 8 13
M  V30 13 1 13 14
M  V30 14 1 14 15
M  V30 15 1 15 16
M  V30 16 2 16 17
M  V30 17 1 17 18
M  V30 18 1 17 19
M  V30 19 2 19 20
M  V30 20 1 20 21
M  V30 21 2 21 22
M  V30 22 1 12 2
M  V30 23 1 18 13
M  V30 24 1 11 6
M  V30 25 1 22 16
M  V30 26 1 1 23
M  V30 27 1 1 24
M  V30 28 1 5 25
M  V30 29 1 5 26
M  V30 30 1 7 27
M  V30 31 1 9 28
M  V30 32 1 10 29
M  V30 33 1 14 30
M  V30 34 1 14 31
M  V30 35 1 15 32
M  V30 36 1 15 33
M  V30 37 1 18 34
M  V30 38 1 18 35
M  V30 39 1 19 36
M  V30 40 1 20 37
M  V30 41 1 21 38
M  V30 42 1 22 39
M  V30 END BOND
M  V30 END CTAB
M  END
