
     RDKit          3D

  0  0  0  0  0  0  0  0  0  0999 V3000
M  V30 BEGIN CTAB
M  V30 COUNTS 30 29 0 0 0
M  V30 BEGIN ATOM
M  V30 1 N 3.60183 0.265604 0.629718 0
M  V30 2 C 2.53494 -0.724621 0.820004 0
M  V30 3 C 1.7643 -0.900824 -0.463818 0
M  V30 4 C 1.11658 0.344124 -0.966002 0
M  V30 5 C 0.12629 0.924707 -0.00148586 0
M  V30 6 C -0.997284 0.0210492 0.339058 0
M  V30 7 C -1.86099 -0.446263 -0.768198 0
M  V30 8 C -2.93033 -1.359 -0.153381 0
M  V30 9 N -3.69353 -0.611969 0.806817 0
M  V30 10 C -0.324812 2.27979 -0.347009 0
M  V30 11 O 0.564144 3.35446 -0.48554 0
M  V30 12 O -1.52045 2.52391 -0.529839 0
M  V30 13 H 3.93149 0.296685 -0.35479 0
M  V30 14 H 4.42432 0.0381164 1.24503 0
M  V30 15 H 1.91154 -0.407675 1.67645 0
M  V30 16 H 3.01218 -1.70548 1.10865 0
M  V30 17 H 2.45908 -1.32403 -1.21802 0
M  V30 18 H 0.945098 -1.64077 -0.221428 0
M  V30 19 H 0.641338 0.127777 -1.92665 0
M  V30 20 H 1.89293 1.14079 -1.14301 0
M  V30 21 H 0.710814 1.05638 0.964266 0
M  V30 22 H -1.6627 0.586836 1.05656 0
M  V30 23 H -0.648186 -0.856937 0.935796 0
M  V30 24 H -2.4245 0.38202 -1.2309 0
M  V30 25 H -1.32904 -0.963392 -1.58527 0
M  V30 26 H -2.4191 -2.17982 0.373105 0
M  V30 27 H -3.58784 -1.73406 -0.954273 0
M  V30 28 H -3.15661 -0.634113 1.71903 0
M  V30 29 H -4.59841 -1.10257 1.01607 0
M  V30 30 H 1.51692 3.24928 -0.177573 0
M  V30 END ATOM
M  V30 BEGIN BOND
M  V30 1 1 1 2
M  V30 2 1 2 3
M  V30 3 1 3 4
M  V30 4 1 4 5
M  V30 5 1 5 6
M  V30 6 1 6 7
M  V30 7 1 7 8
M  V30 8 1 8 9
M  V30 9 1 5 10
M  V30 10 1 10 11
M  V30 11 2 10 12
M  V30 12 1 1 13
M  V30 13 1 1 14
M  V30 14 1 2 15
M  V30 15 1 2 16
M  V30 16 1 3 17
M  V30 17 1 3 18
M  V30 18 1 4 19
M  V30 19 1 4 20
M  V30 20 1 5 21
M  V30 21 1 6 22
M  V30 22 1 6 23
M  V30 23 1 7 24
M  V30 24 1 7 25
M  V30 25 1 8 26
M  V30 26 1 8 27
M  V30 27 1 9 28
M  V30 28 1 9 29
M  V30 29 1 11 30
M  V30 END BOND
M  V30 END CTAB
M  END
