
     RDKit          3D

  0  0  0  0  0  0  0  0  0  0999 V3000
M  V30 BEGIN CTAB
M  V30 COUNTS 35 37 0 0 0
M  V30 BEGIN ATOM
M  V30 1 N 2.71667 2.46214 -0.122527 0
M  V30 2 C 3.26053 1.15887 0.122801 0
M  V30 3 N 4.55076 0.79377 0.231478 0
M  V30 4 N 4.64367 -0.5163 0.462214 0
M  V30 5 C 3.40311 -1.01026 0.504445 0
M  V30 6 C 2.52399 0.0294797 0.293045 0
M  V30 7 C 1.04343 -0.0921702 0.262279 0 CFG=2
M  V30 8 C 0.605186 -1.52852 0.49547 0
M  V30 9 C -0.863054 -1.49816 0.686463 0
M  V30 10 C -1.50101 -2.38962 1.50554 0
M  V30 11 C -2.87381 -2.38251 1.70243 0
M  V30 12 C -3.60961 -1.4237 1.03141 0
M  V30 13 C -2.99502 -0.502848 0.191875 0
M  V30 14 C -1.62698 -0.543637 0.0230357 0
M  V30 15 N -1.00544 0.408915 -0.843586 0
M  V30 16 C 0.449942 0.329368 -1.04277 0
M  V30 17 S -1.91557 1.62548 -1.64485 0
M  V30 18 O -0.984652 2.52116 -2.43945 0
M  V30 19 O -3.00313 1.08507 -2.51672 0
M  V30 20 N -2.6573 2.62542 -0.438199 0
M  V30 21 H 2.66854 2.83492 -1.09153 0
M  V30 22 H 2.38471 2.99109 0.707888 0
M  V30 23 H 5.53117 -1.07856 0.590989 0
M  V30 24 H 3.07511 -2.04373 0.672386 0
M  V30 25 H 0.592895 0.523728 1.06481 0
M  V30 26 H 1.14176 -1.98878 1.33756 0
M  V30 27 H 0.790349 -2.09394 -0.459349 0
M  V30 28 H -0.915471 -3.14981 2.0372 0
M  V30 29 H -3.34787 -3.09872 2.35478 0
M  V30 30 H -4.67907 -1.36907 1.14493 0
M  V30 31 H -3.59491 0.250829 -0.331907 0
M  V30 32 H 0.832479 1.26785 -1.4418 0
M  V30 33 H 0.576423 -0.508427 -1.78947 0
M  V30 34 H -1.96221 2.95333 0.261386 0
M  V30 35 H -3.25563 3.35734 -0.838189 0
M  V30 END ATOM
M  V30 BEGIN BOND
M  V30 1 1 1 2
M  V30 2 2 2 3
M  V30 3 1 3 4
M  V30 4 1 4 5
M  V30 5 2 5 6
M  V30 6 1 6 7
M  V30 7 1 7 8
M  V30 8 1 8 9
M  V30 9 2 9 10
M  V30 10 1 10 11
M  V30 11 2 11 12
M  V30 12 1 12 13
M  V30 13 2 13 14
M  V30 14 1 14 15
M  V30 15 1 15 16
M  V30 16 1 15 17
M  V30 17 2 17 18
M  V30 18 2 17 19
M  V30 19 1 17 20
M  V30 20 1 6 2
M  V30 21 1 16 7
M  V30 22 1 14 9
M  V30 23 1 1 21
M  V30 24 1 1 22
M  V30 25 1 4 23
M  V30 26 1 5 24
M  V30 27 1 7 25 CFG=1
M  V30 28 1 8 26
M  V30 29 1 8 27
M  V30 30 1 10 28
M  V30 31 1 11 29
M  V30 32 1 12 30
M  V30 33 1 13 31
M  V30 34 1 16 32
M  V30 35 1 16 33
M  V30 36 1 20 34
M  V30 37 1 20 35
M  V30 END BOND
M  V30 END CTAB
M  END
