
     RDKit          3D

  0  0  0  0  0  0  0  0  0  0999 V3000
M  V30 BEGIN CTAB
M  V30 COUNTS 44 46 0 0 0
M  V30 BEGIN ATOM
M  V30 1 C 7.76156 -1.2694 1.26118 0
M  V30 2 C 7.38705 -0.711378 -0.0984165 0
M  V30 3 C 5.93428 -0.431071 -0.202266 0
M  V30 4 C 5.44823 0.808748 0.154415 0
M  V30 5 C 4.08029 1.09312 0.0635979 0
M  V30 6 C 3.18663 0.152346 -0.380503 0
M  V30 7 C 3.66564 -1.08542 -0.73745 0
M  V30 8 C 5.02325 -1.36545 -0.646569 0
M  V30 9 C 1.73669 0.437686 -0.48224 0
M  V30 10 N 1.1018 1.56196 -0.18541 0
M  V30 11 C -0.178187 1.63649 -0.335792 0
M  V30 12 C -0.836641 0.526711 -0.805357 0
M  V30 13 S 0.46678 -0.575816 -1.00291 0
M  V30 14 C -2.26555 0.348201 -1.06256 0
M  V30 15 O -2.70341 -0.735967 -1.49313 0
M  V30 16 O -3.12922 1.39 -0.825167 0
M  V30 17 C -4.50887 1.36332 -1.02073 0
M  V30 18 C -5.19047 0.342711 -0.192688 0
M  V30 19 N -4.58853 -0.335927 0.789451 0
M  V30 20 C -5.26176 -1.23938 1.4939 0
M  V30 21 N -4.64552 -1.98862 2.55847 0
M  V30 22 N -6.5453 -1.47241 1.22167 0
M  V30 23 C -7.19797 -0.818492 0.245591 0
M  V30 24 N -6.48505 0.0859631 -0.443705 0
M  V30 25 N -8.5675 -1.10368 -0.00523015 0
M  V30 26 C -0.970342 2.89264 -0.0149993 0
M  V30 27 H 7.33103 -2.25571 1.45253 0
M  V30 28 H 7.42181 -0.525616 2.02921 0
M  V30 29 H 8.86918 -1.29689 1.31042 0
M  V30 30 H 7.73343 -1.41608 -0.89709 0
M  V30 31 H 7.99405 0.213628 -0.234756 0
M  V30 32 H 6.14341 1.55627 0.505237 0
M  V30 33 H 3.70579 2.06802 0.34512 0
M  V30 34 H 2.95637 -1.82981 -1.08914 0
M  V30 35 H 5.3852 -2.34881 -0.932704 0
M  V30 36 H -4.90758 2.35495 -0.680233 0
M  V30 37 H -4.77352 1.2463 -2.1061 0
M  V30 38 H -4.07466 -2.80918 2.27165 0
M  V30 39 H -4.81675 -1.65569 3.51809 0
M  V30 40 H -8.97305 -2.05793 0.137138 0
M  V30 41 H -9.24349 -0.372642 -0.346176 0
M  V30 42 H -1.70353 2.69759 0.773151 0
M  V30 43 H -0.312627 3.73552 0.24845 0
M  V30 44 H -1.45293 3.18923 -0.99109 0
M  V30 END ATOM
M  V30 BEGIN BOND
M  V30 1 1 1 2
M  V30 2 1 2 3
M  V30 3 2 3 4
M  V30 4 1 4 5
M  V30 5 2 5 6
M  V30 6 1 6 7
M  V30 7 2 7 8
M  V30 8 1 6 9
M  V30 9 2 9 10
M  V30 10 1 10 11
M  V30 11 2 11 12
M  V30 12 1 12 13
M  V30 13 1 12 14
M  V30 14 2 14 15
M  V30 15 1 14 16
M  V30 16 1 16 17
M  V30 17 1 17 18
M  V30 18 2 18 19
M  V30 19 1 19 20
M  V30 20 1 20 21
M  V30 21 2 20 22
M  V30 22 1 22 23
M  V30 23 2 23 24
M  V30 24 1 23 25
M  V30 25 1 11 26
M  V30 26 1 8 3
M  V30 27 1 13 9
M  V30 28 1 24 18
M  V30 29 1 1 27
M  V30 30 1 1 28
M  V30 31 1 1 29
M  V30 32 1 2 30
M  V30 33 1 2 31
M  V30 34 1 4 32
M  V30 35 1 5 33
M  V30 36 1 7 34
M  V30 37 1 8 35
M  V30 38 1 17 36
M  V30 39 1 17 37
M  V30 40 1 21 38
M  V30 41 1 21 39
M  V30 42 1 25 40
M  V30 43 1 25 41
M  V30 44 1 26 42
M  V30 45 1 26 43
M  V30 46 1 26 44
M  V30 END BOND
M  V30 END CTAB
M  END
