
     RDKit          3D

  0  0  0  0  0  0  0  0  0  0999 V3000
M  V30 BEGIN CTAB
M  V30 COUNTS 34 35 0 0 0
M  V30 BEGIN ATOM
M  V30 1 N 5.09341 1.31381 -0.0883462 0
M  V30 2 C 4.67738 -0.0445966 0.190078 0
M  V30 3 C 3.19251 -0.165436 0.0227003 0
M  V30 4 C 2.59246 -1.38972 0.244195 0
M  V30 5 C 1.21498 -1.48329 0.0843437 0
M  V30 6 C 0.452546 -0.398566 -0.283703 0
M  V30 7 C 1.09485 0.798476 -0.492857 0
M  V30 8 C 2.46958 0.92888 -0.342444 0
M  V30 9 C -1.01203 -0.563733 -0.436463 0
M  V30 10 N -1.49891 -1.30758 0.693917 0
M  V30 11 C -2.8373 -1.01448 1.08529 0
M  V30 12 C -3.70387 -0.711958 -0.115165 0
M  V30 13 C -3.19413 0.550826 -0.73573 0
M  V30 14 C -1.71116 0.774673 -0.468852 0
M  V30 15 N -3.90836 1.67543 -0.160281 0
M  V30 16 H 5.37974 1.81631 0.779584 0
M  V30 17 H 5.9235 1.32474 -0.722271 0
M  V30 18 H 5.13003 -0.69821 -0.580061 0
M  V30 19 H 4.98547 -0.326271 1.21172 0
M  V30 20 H 3.17366 -2.26249 0.536039 0
M  V30 21 H 0.719235 -2.44264 0.2545 0
M  V30 22 H 0.552919 1.66861 -0.778227 0
M  V30 23 H 2.91566 1.89547 -0.521004 0
M  V30 24 H -1.22064 -1.06306 -1.4033 0
M  V30 25 H -1.28092 -2.32599 0.643656 0
M  V30 26 H -3.32427 -1.84474 1.62525 0
M  V30 27 H -2.82534 -0.0907508 1.71239 0
M  V30 28 H -4.75586 -0.597231 0.2081 0
M  V30 29 H -3.66923 -1.50904 -0.875841 0
M  V30 30 H -3.39546 0.526624 -1.82083 0
M  V30 31 H -1.53713 1.36345 0.45269 0
M  V30 32 H -1.36322 1.37242 -1.36206 0
M  V30 33 H -3.44256 2.57907 -0.396183 0
M  V30 34 H -4.88753 1.65099 -0.469585 0
M  V30 END ATOM
M  V30 BEGIN BOND
M  V30 1 1 1 2
M  V30 2 1 2 3
M  V30 3 2 3 4
M  V30 4 1 4 5
M  V30 5 2 5 6
M  V30 6 1 6 7
M  V30 7 2 7 8
M  V30 8 1 6 9
M  V30 9 1 9 10
M  V30 10 1 10 11
M  V30 11 1 11 12
M  V30 12 1 12 13
M  V30 13 1 13 14
M  V30 14 1 13 15
M  V30 15 1 8 3
M  V30 16 1 14 9
M  V30 17 1 1 16
M  V30 18 1 1 17
M  V30 19 1 2 18
M  V30 20 1 2 19
M  V30 21 1 4 20
M  V30 22 1 5 21
M  V30 23 1 7 22
M  V30 24 1 8 23
M  V30 25 1 9 24
M  V30 26 1 10 25
M  V30 27 1 11 26
M  V30 28 1 11 27
M  V30 29 1 12 28
M  V30 30 1 12 29
M  V30 31 1 13 30
M  V30 32 1 14 31
M  V30 33 1 14 32
M  V30 34 1 15 33
M  V30 35 1 15 34
M  V30 END BOND
M  V30 END CTAB
M  END
