
     RDKit          3D

  0  0  0  0  0  0  0  0  0  0999 V3000
M  V30 BEGIN CTAB
M  V30 COUNTS 37 38 0 0 0
M  V30 BEGIN ATOM
M  V30 1 C 3.37853 1.59198 -0.454785 0
M  V30 2 C 2.46398 1.76681 0.720977 0
M  V30 3 C 1.71781 0.542437 1.14995 0
M  V30 4 N 0.843246 -0.0532283 0.229609 0
M  V30 5 C 1.38099 -0.712014 -0.906338 0
M  V30 6 C 0.702812 -2.08822 -0.972395 0
M  V30 7 C 0.100259 -2.24701 0.406448 0 CFG=2
M  V30 8 C -0.224089 -0.838671 0.753529 0 CFG=2
M  V30 9 C -1.49517 -0.352056 0.217474 0
M  V30 10 C -2.50991 -1.12748 -0.241367 0
M  V30 11 C -3.69734 -0.614667 -0.744481 0
M  V30 12 C -3.86624 0.762446 -0.785445 0
M  V30 13 C -2.85788 1.59833 -0.328241 0
M  V30 14 C -1.7026 1.03508 0.159931 0
M  V30 15 N -3.04708 3.00985 -0.379696 0
M  V30 16 N 1.18416 -2.76882 1.24706 0
M  V30 17 H 4.02677 2.508 -0.58412 0
M  V30 18 H 4.10455 0.768719 -0.309626 0
M  V30 19 H 2.77965 1.52047 -1.36743 0
M  V30 20 H 1.74405 2.60153 0.57574 0
M  V30 21 H 3.13273 2.12944 1.55999 0
M  V30 22 H 2.52582 -0.22714 1.38157 0
M  V30 23 H 1.24055 0.811048 2.12783 0
M  V30 24 H 2.47004 -0.850156 -0.868833 0
M  V30 25 H 1.12768 -0.128153 -1.82433 0
M  V30 26 H 1.48569 -2.84102 -1.17549 0
M  V30 27 H -0.0128993 -2.11813 -1.791 0
M  V30 28 H -0.697107 -2.97813 0.485367 0
M  V30 29 H -0.275914 -0.693649 1.8656 0
M  V30 30 H -2.4106 -2.19567 -0.223554 0
M  V30 31 H -4.4646 -1.30748 -1.0937 0
M  V30 32 H -4.7841 1.19243 -1.17353 0
M  V30 33 H -0.931698 1.72565 0.511166 0
M  V30 34 H -2.50402 3.68142 0.184945 0
M  V30 35 H -3.7732 3.41425 -1.01966 0
M  V30 36 H 2.00094 -3.08425 0.710906 0
M  V30 37 H 0.844202 -3.43396 1.95592 0
M  V30 END ATOM
M  V30 BEGIN BOND
M  V30 1 1 1 2
M  V30 2 1 2 3
M  V30 3 1 3 4
M  V30 4 1 4 5
M  V30 5 1 5 6
M  V30 6 1 6 7
M  V30 7 1 7 8
M  V30 8 1 8 9
M  V30 9 2 9 10
M  V30 10 1 10 11
M  V30 11 2 11 12
M  V30 12 1 12 13
M  V30 13 2 13 14
M  V30 14 1 13 15
M  V30 15 1 7 16
M  V30 16 1 8 4
M  V30 17 1 14 9
M  V30 18 1 1 17
M  V30 19 1 1 18
M  V30 20 1 1 19
M  V30 21 1 2 20
M  V30 22 1 2 21
M  V30 23 1 3 22
M  V30 24 1 3 23
M  V30 25 1 5 24
M  V30 26 1 5 25
M  V30 27 1 6 26
M  V30 28 1 6 27
M  V30 29 1 7 28 CFG=3
M  V30 30 1 8 29 CFG=1
M  V30 31 1 10 30
M  V30 32 1 11 31
M  V30 33 1 12 32
M  V30 34 1 14 33
M  V30 35 1 15 34
M  V30 36 1 15 35
M  V30 37 1 16 36
M  V30 38 1 16 37
M  V30 END BOND
M  V30 END CTAB
M  END
