
     RDKit          3D

  0  0  0  0  0  0  0  0  0  0999 V3000
M  V30 BEGIN CTAB
M  V30 COUNTS 30 31 0 0 0
M  V30 BEGIN ATOM
M  V30 1 N -2.30284 2.83129 -0.963552 0
M  V30 2 C -1.09914 1.98239 -0.893519 0
M  V30 3 C -1.46391 0.667297 -0.269441 0
M  V30 4 C -2.52013 -0.0670719 -1.05396 0
M  V30 5 C -2.93645 -1.21247 -0.181046 0
M  V30 6 O -4.0914 -1.40835 0.229867 0
M  V30 7 N -1.89078 -2.10518 0.168129 0
M  V30 8 C -0.562975 -1.55868 0.259624 0
M  V30 9 C -0.347597 -0.226415 0.0177255 0
M  V30 10 C 0.96729 0.224169 0.0898334 0
M  V30 11 C 1.99179 -0.627334 0.389776 0
M  V30 12 C 1.80183 -1.96543 0.637329 0
M  V30 13 C 0.50012 -2.41051 0.565013 0
M  V30 14 S 3.6161 0.00493684 0.46363 0
M  V30 15 O 3.78766 1.17461 -0.453325 0
M  V30 16 O 4.60058 -1.0967 0.142634 0
M  V30 17 N 3.98719 0.545511 2.06641 0
M  V30 18 H -2.56659 2.99038 -1.96383 0
M  V30 19 H -3.08059 2.41285 -0.40543 0
M  V30 20 H -0.420832 2.54975 -0.225327 0
M  V30 21 H -0.662581 1.93014 -1.88257 0
M  V30 22 H -1.94329 0.90504 0.728239 0
M  V30 23 H -3.38156 0.571989 -1.32502 0
M  V30 24 H -2.04779 -0.461737 -1.98654 0
M  V30 25 H -2.02348 -3.10814 0.359573 0
M  V30 26 H 1.12105 1.27155 -0.104434 0
M  V30 27 H 2.59759 -2.65351 0.876185 0
M  V30 28 H 0.263515 -3.45335 0.746848 0
M  V30 29 H 3.24748 1.17886 2.4187 0
M  V30 30 H 4.85975 1.11412 1.9931 0
M  V30 END ATOM
M  V30 BEGIN BOND
M  V30 1 1 1 2
M  V30 2 1 2 3
M  V30 3 1 3 4
M  V30 4 1 4 5
M  V30 5 2 5 6
M  V30 6 1 5 7
M  V30 7 1 7 8
M  V30 8 2 8 9
M  V30 9 1 9 10
M  V30 10 2 10 11
M  V30 11 1 11 12
M  V30 12 2 12 13
M  V30 13 1 11 14
M  V30 14 2 14 15
M  V30 15 2 14 16
M  V30 16 1 14 17
M  V30 17 1 9 3
M  V30 18 1 13 8
M  V30 19 1 1 18
M  V30 20 1 1 19
M  V30 21 1 2 20
M  V30 22 1 2 21
M  V30 23 1 3 22
M  V30 24 1 4 23
M  V30 25 1 4 24
M  V30 26 1 7 25
M  V30 27 1 10 26
M  V30 28 1 12 27
M  V30 29 1 13 28
M  V30 30 1 17 29
M  V30 31 1 17 30
M  V30 END BOND
M  V30 END CTAB
M  END
