
     RDKit          3D

  0  0  0  0  0  0  0  0  0  0999 V3000
M  V30 BEGIN CTAB
M  V30 COUNTS 33 33 0 0 0
M  V30 BEGIN ATOM
M  V30 1 N -4.66336 0.863191 -0.537068 0
M  V30 2 C -3.62155 0.167223 0.152597 0
M  V30 3 C -2.3354 0.597135 -0.473369 0
M  V30 4 C -1.09423 -0.00493895 0.110773 0 CFG=1
M  V30 5 C -1.01098 -1.49052 0.0447341 0
M  V30 6 C 0.303223 -2.00327 -0.436282 0
M  V30 7 C 1.47779 -1.20701 0.103686 0
M  V30 8 N 1.33058 0.144289 -0.207582 0
M  V30 9 C 0.0610689 0.569448 -0.691812 0
M  V30 10 C 2.13995 1.13341 0.364506 0
M  V30 11 C 3.55846 1.09654 -0.138605 0
M  V30 12 N 4.27202 -0.101478 0.130191 0
M  V30 13 H -4.55531 1.86373 -0.488833 0
M  V30 14 H -5.58217 0.525425 -0.507923 0
M  V30 15 H -3.73707 0.366747 1.21633 0
M  V30 16 H -3.8122 -0.928081 -0.0660277 0
M  V30 17 H -2.25327 1.70827 -0.34989 0
M  V30 18 H -2.38943 0.407752 -1.57033 0
M  V30 19 H -0.997988 0.351218 1.17149 0
M  V30 20 H -1.19282 -1.94787 1.05967 0
M  V30 21 H -1.79951 -1.93662 -0.619364 0
M  V30 22 H 0.447525 -3.05403 -0.0731541 0
M  V30 23 H 0.379269 -1.9431 -1.53534 0
M  V30 24 H 1.68113 -1.45109 1.17483 0
M  V30 25 H 2.36631 -1.62657 -0.461558 0
M  V30 26 H -0.0158754 1.66977 -0.614594 0
M  V30 27 H -0.0625227 0.183211 -1.72475 0
M  V30 28 H 1.76304 2.1658 0.109695 0
M  V30 29 H 2.18672 1.08008 1.49499 0
M  V30 30 H 3.51521 1.20323 -1.26288 0
M  V30 31 H 4.14298 1.98787 0.259796 0
M  V30 32 H 4.24278 -0.416793 1.10508 0
M  V30 33 H 5.25564 0.0270313 -0.19905 0
M  V30 END ATOM
M  V30 BEGIN BOND
M  V30 1 1 1 2
M  V30 2 1 2 3
M  V30 3 1 3 4
M  V30 4 1 4 5
M  V30 5 1 5 6
M  V30 6 1 6 7
M  V30 7 1 7 8
M  V30 8 1 8 9
M  V30 9 1 8 10
M  V30 10 1 10 11
M  V30 11 1 11 12
M  V30 12 1 9 4
M  V30 13 1 1 13
M  V30 14 1 1 14
M  V30 15 1 2 15
M  V30 16 1 2 16
M  V30 17 1 3 17
M  V30 18 1 3 18
M  V30 19 1 4 19 CFG=1
M  V30 20 1 5 20
M  V30 21 1 5 21
M  V30 22 1 6 22
M  V30 23 1 6 23
M  V30 24 1 7 24
M  V30 25 1 7 25
M  V30 26 1 9 26
M  V30 27 1 9 27
M  V30 28 1 10 28
M  V30 29 1 10 29
M  V30 30 1 11 30
M  V30 31 1 11 31
M  V30 32 1 12 32
M  V30 33 1 12 33
M  V30 END BOND
M  V30 END CTAB
M  END
