
     RDKit          3D

  0  0  0  0  0  0  0  0  0  0999 V3000
M  V30 BEGIN CTAB
M  V30 COUNTS 31 31 0 0 0
M  V30 BEGIN ATOM
M  V30 1 C 3.32039 1.58175 0.131389 0
M  V30 2 C 2.10009 0.787632 0.691073 0
M  V30 3 C 1.68847 -0.125529 -0.416654 0 CFG=2
M  V30 4 C 0.562743 -1.04434 -0.21711 0
M  V30 5 C -0.817052 -0.633164 -0.209277 0
M  V30 6 C -1.31033 0.585186 0.169355 0
M  V30 7 C -2.6774 0.879438 0.233907 0
M  V30 8 C -3.15963 2.21879 0.677792 0
M  V30 9 C -3.57628 -0.108102 -0.103767 0
M  V30 10 N -3.12001 -1.30235 -0.480781 0
M  V30 11 C -1.80996 -1.57669 -0.540394 0
M  V30 12 N -1.32199 -2.83676 -1.00804 0
M  V30 13 O 0.77166 -1.84183 0.951533 0
M  V30 14 N 2.91435 -0.987137 -0.601838 0
M  V30 15 H 4.08296 0.866949 -0.24347 0
M  V30 16 H 3.00452 2.25086 -0.684286 0
M  V30 17 H 3.68994 2.20336 0.96204 0
M  V30 18 H 1.42886 1.52967 1.04971 0
M  V30 19 H 2.52805 0.194557 1.52713 0
M  V30 20 H 1.61871 0.451951 -1.36668 0
M  V30 21 H 0.700975 -1.86735 -1.02884 0
M  V30 22 H -0.663357 1.40535 0.435671 0
M  V30 23 H -2.41336 2.70595 1.36776 0
M  V30 24 H -3.35489 2.86955 -0.173935 0
M  V30 25 H -4.0993 2.09919 1.27106 0
M  V30 26 H -4.64177 0.152397 -0.0595823 0
M  V30 27 H -1.05713 -3.60859 -0.390493 0
M  V30 28 H -1.25918 -2.89018 -2.07933 0
M  V30 29 H -0.0621465 -2.28526 1.2399 0
M  V30 30 H 3.46445 -0.998947 0.278861 0
M  V30 31 H 3.46761 -0.676343 -1.3827 0
M  V30 END ATOM
M  V30 BEGIN BOND
M  V30 1 1 1 2
M  V30 2 1 2 3
M  V30 3 1 3 4
M  V30 4 1 4 5
M  V30 5 2 5 6
M  V30 6 1 6 7
M  V30 7 1 7 8
M  V30 8 2 7 9
M  V30 9 1 9 10
M  V30 10 2 10 11
M  V30 11 1 11 12
M  V30 12 1 4 13
M  V30 13 1 3 14
M  V30 14 1 11 5
M  V30 15 1 1 15
M  V30 16 1 1 16
M  V30 17 1 1 17
M  V30 18 1 2 18
M  V30 19 1 2 19
M  V30 20 1 3 20 CFG=3
M  V30 21 1 4 21
M  V30 22 1 6 22
M  V30 23 1 8 23
M  V30 24 1 8 24
M  V30 25 1 8 25
M  V30 26 1 9 26
M  V30 27 1 12 27
M  V30 28 1 12 28
M  V30 29 1 13 29
M  V30 30 1 14 30
M  V30 31 1 14 31
M  V30 END BOND
M  V30 END CTAB
M  END
