
     RDKit          3D

  0  0  0  0  0  0  0  0  0  0999 V3000
M  V30 BEGIN CTAB
M  V30 COUNTS 28 28 0 0 0
M  V30 BEGIN ATOM
M  V30 1 C -2.94592 0.337315 1.07224 0
M  V30 2 C -1.66891 0.748632 0.311055 0
M  V30 3 C -0.543001 -0.14548 0.711149 0
M  V30 4 C 0.739952 0.141288 0.0867908 0
M  V30 5 C 0.932337 1.29523 -0.635464 0
M  V30 6 C 2.15358 1.59605 -1.22837 0
M  V30 7 C 3.18784 0.692523 -1.07195 0
M  V30 8 C 3.03307 -0.478383 -0.352646 0
M  V30 9 C 1.80662 -0.744708 0.222366 0
M  V30 10 N 1.68815 -1.95302 0.953244 0
M  V30 11 N -0.924712 -1.53371 0.479015 0
M  V30 12 C -1.98884 0.509166 -1.16379 0
M  V30 13 H -2.67518 0.411102 2.16107 0
M  V30 14 H -3.19782 -0.677538 0.757618 0
M  V30 15 H -3.69489 1.10178 0.809102 0
M  V30 16 H -1.52108 1.81179 0.552352 0
M  V30 17 H -0.409422 0.000887611 1.82567 0
M  V30 18 H 0.129214 2.00076 -0.751027 0
M  V30 19 H 2.25442 2.51432 -1.78533 0
M  V30 20 H 4.14955 0.918319 -1.5336 0
M  V30 21 H 3.85983 -1.16759 -0.246951 0
M  V30 22 H 1.58791 -2.8866 0.496972 0
M  V30 23 H 1.70588 -1.86742 1.998 0
M  V30 24 H -0.864359 -2.1226 1.30743 0
M  V30 25 H -0.525368 -1.92376 -0.377163 0
M  V30 26 H -1.1385 0.0285848 -1.70727 0
M  V30 27 H -2.90173 -0.0984787 -1.22524 0
M  V30 28 H -2.22862 1.49153 -1.66527 0
M  V30 END ATOM
M  V30 BEGIN BOND
M  V30 1 1 1 2
M  V30 2 1 2 3
M  V30 3 1 3 4
M  V30 4 2 4 5
M  V30 5 1 5 6
M  V30 6 2 6 7
M  V30 7 1 7 8
M  V30 8 2 8 9
M  V30 9 1 9 10
M  V30 10 1 3 11
M  V30 11 1 2 12
M  V30 12 1 9 4
M  V30 13 1 1 13
M  V30 14 1 1 14
M  V30 15 1 1 15
M  V30 16 1 2 16
M  V30 17 1 3 17
M  V30 18 1 5 18
M  V30 19 1 6 19
M  V30 20 1 7 20
M  V30 21 1 8 21
M  V30 22 1 10 22
M  V30 23 1 10 23
M  V30 24 1 11 24
M  V30 25 1 11 25
M  V30 26 1 12 26
M  V30 27 1 12 27
M  V30 28 1 12 28
M  V30 END BOND
M  V30 END CTAB
M  END
