
     RDKit          3D

  0  0  0  0  0  0  0  0  0  0999 V3000
M  V30 BEGIN CTAB
M  V30 COUNTS 44 44 0 0 0
M  V30 BEGIN ATOM
M  V30 1 C -4.89362 -0.663262 0.373771 0
M  V30 2 C -3.55995 -1.23444 0.0217183 0
M  V30 3 C -2.43539 -0.212965 0.198455 0
M  V30 4 C -1.19044 -0.919309 -0.18462 0
M  V30 5 N 0.0496042 -0.24913 -0.107943 0
M  V30 6 C 0.545146 0.87246 -0.776892 0
M  V30 7 O -0.121842 1.49415 -1.63556 0
M  V30 8 C 1.93637 1.40492 -0.495554 0
M  V30 9 C 2.94894 0.364954 -0.775727 0
M  V30 10 C 2.88928 -0.406342 -1.91974 0
M  V30 11 C 3.83103 -1.3735 -2.18388 0
M  V30 12 C 4.85926 -1.56499 -1.26703 0
M  V30 13 C 4.92749 -0.802576 -0.125557 0
M  V30 14 C 3.97117 0.160007 0.115408 0
M  V30 15 Br 6.18449 -2.89801 -1.59968 0
M  V30 16 N 2.20785 2.54701 -1.29786 0
M  V30 17 C 2.04616 1.80479 0.959116 0
M  V30 18 C -2.43329 0.387387 1.561 0
M  V30 19 C -2.25331 -0.600341 2.67516 0
M  V30 20 N -2.72469 0.829524 -0.758574 0
M  V30 21 H -5.64957 -1.45426 0.220752 0
M  V30 22 H -5.19366 0.194045 -0.244383 0
M  V30 23 H -4.96615 -0.372827 1.44685 0
M  V30 24 H -3.39068 -2.15165 0.585968 0
M  V30 25 H -3.57134 -1.48111 -1.05999 0
M  V30 26 H -1.32314 -1.24769 -1.27231 0
M  V30 27 H -1.15183 -1.94006 0.3309 0
M  V30 28 H 0.737293 -0.684428 0.597994 0
M  V30 29 H 2.09838 -0.274285 -2.64622 0
M  V30 30 H 3.8285 -1.99174 -3.04872 0
M  V30 31 H 5.71994 -0.939102 0.59649 0
M  V30 32 H 4.06534 0.746877 1.04095 0
M  V30 33 H 2.64994 2.33031 -2.20089 0
M  V30 34 H 1.30909 3.09656 -1.40359 0
M  V30 35 H 2.12805 0.926875 1.63955 0
M  V30 36 H 1.17314 2.44191 1.26925 0
M  V30 37 H 2.93566 2.44129 1.13477 0
M  V30 38 H -1.6444 1.13184 1.62478 0
M  V30 39 H -3.39879 0.904004 1.7195 0
M  V30 40 H -2.66256 -0.119024 3.6017 0
M  V30 41 H -2.79667 -1.54331 2.54063 0
M  V30 42 H -1.20404 -0.838244 2.89632 0
M  V30 43 H -3.54985 1.38601 -0.440554 0
M  V30 44 H -2.9269 0.497663 -1.70577 0
M  V30 END ATOM
M  V30 BEGIN BOND
M  V30 1 1 1 2
M  V30 2 1 2 3
M  V30 3 1 3 4
M  V30 4 1 4 5
M  V30 5 1 5 6
M  V30 6 2 6 7
M  V30 7 1 6 8
M  V30 8 1 8 9
M  V30 9 2 9 10
M  V30 10 1 10 11
M  V30 11 2 11 12
M  V30 12 1 12 13
M  V30 13 2 13 14
M  V30 14 1 12 15
M  V30 15 1 8 16
M  V30 16 1 8 17
M  V30 17 1 3 18
M  V30 18 1 18 19
M  V30 19 1 3 20
M  V30 20 1 14 9
M  V30 21 1 1 21
M  V30 22 1 1 22
M  V30 23 1 1 23
M  V30 24 1 2 24
M  V30 25 1 2 25
M  V30 26 1 4 26
M  V30 27 1 4 27
M  V30 28 1 5 28
M  V30 29 1 10 29
M  V30 30 1 11 30
M  V30 31 1 13 31
M  V30 32 1 14 32
M  V30 33 1 16 33
M  V30 34 1 16 34
M  V30 35 1 17 35
M  V30 36 1 17 36
M  V30 37 1 17 37
M  V30 38 1 18 38
M  V30 39 1 18 39
M  V30 40 1 19 40
M  V30 41 1 19 41
M  V30 42 1 19 42
M  V30 43 1 20 43
M  V30 44 1 20 44
M  V30 END BOND
M  V30 END CTAB
M  END
