
     RDKit          3D

  0  0  0  0  0  0  0  0  0  0999 V3000
M  V30 BEGIN CTAB
M  V30 COUNTS 31 33 0 0 0
M  V30 BEGIN ATOM
M  V30 1 N -2.52164 2.6715 0.0543794 0
M  V30 2 C -2.86457 1.33475 -0.245151 0
M  V30 3 C -4.06735 0.861823 0.254947 0
M  V30 4 C -4.40007 -0.437813 -0.0364744 0
M  V30 5 N -5.62245 -0.947337 0.460932 0
M  V30 6 N -3.58207 -1.19909 -0.774718 0
M  V30 7 C -2.41287 -0.754804 -1.26653 0
M  V30 8 N -2.07869 0.516384 -0.986397 0
M  V30 9 S -1.30564 -1.74892 -2.25244 0
M  V30 10 C -0.168517 -2.58991 -1.12321 0
M  V30 11 C 0.726289 -1.64642 -0.428854 0
M  V30 12 N 0.432968 -1.06704 0.744862 0
M  V30 13 O 1.42364 -0.308392 1.06249 0
M  V30 14 C 2.3763 -0.336667 0.172941 0
M  V30 15 C 1.96835 -1.19121 -0.81276 0
M  V30 16 C 3.6373 0.411539 0.234306 0
M  V30 17 C 4.6833 0.443075 -0.644297 0
M  V30 18 C 5.72435 1.22123 -0.340208 0
M  V30 19 C 5.66151 1.92986 0.833921 0
M  V30 20 S 4.14007 1.47397 1.465 0
M  V30 21 H -2.54061 3.38522 -0.702845 0
M  V30 22 H -2.25127 2.95043 1.01954 0
M  V30 23 H -4.71154 1.50857 0.853688 0
M  V30 24 H -5.5743 -1.40915 1.41786 0
M  V30 25 H -6.53112 -0.89901 -0.0349565 0
M  V30 26 H -0.780896 -3.12444 -0.371931 0
M  V30 27 H 0.423304 -3.37696 -1.6445 0
M  V30 28 H 2.51944 -1.44923 -1.70823 0
M  V30 29 H 4.63918 -0.167887 -1.56948 0
M  V30 30 H 6.63231 1.32787 -0.978045 0
M  V30 31 H 6.42529 2.61807 1.2422 0
M  V30 END ATOM
M  V30 BEGIN BOND
M  V30 1 1 1 2
M  V30 2 2 2 3
M  V30 3 1 3 4
M  V30 4 1 4 5
M  V30 5 2 4 6
M  V30 6 1 6 7
M  V30 7 2 7 8
M  V30 8 1 7 9
M  V30 9 1 9 10
M  V30 10 1 10 11
M  V30 11 2 11 12
M  V30 12 1 12 13
M  V30 13 1 13 14
M  V30 14 2 14 15
M  V30 15 1 14 16
M  V30 16 2 16 17
M  V30 17 1 17 18
M  V30 18 2 18 19
M  V30 19 1 19 20
M  V30 20 1 8 2
M  V30 21 1 15 11
M  V30 22 1 20 16
M  V30 23 1 1 21
M  V30 24 1 1 22
M  V30 25 1 3 23
M  V30 26 1 5 24
M  V30 27 1 5 25
M  V30 28 1 10 26
M  V30 29 1 10 27
M  V30 30 1 15 28
M  V30 31 1 17 29
M  V30 32 1 18 30
M  V30 33 1 19 31
M  V30 END BOND
M  V30 END CTAB
M  END
