
     RDKit          3D

  0  0  0  0  0  0  0  0  0  0999 V3000
M  V30 BEGIN CTAB
M  V30 COUNTS 44 46 0 0 0
M  V30 BEGIN ATOM
M  V30 1 N -2.62932 -3.24211 0.678682 0
M  V30 2 C -1.40922 -2.57396 0.496888 0
M  V30 3 C -0.244177 -3.28596 0.46818 0
M  V30 4 C 0.968456 -2.56234 0.281102 0
M  V30 5 N 2.15362 -3.33133 0.256748 0
M  V30 6 C 1.0005 -1.21717 0.133839 0
M  V30 7 C 2.18827 -0.423453 -0.0585871 0
M  V30 8 C 3.42861 -0.775395 -0.132939 0
M  V30 9 C 4.51591 0.198704 -0.335623 0
M  V30 10 C 5.83286 -0.278676 -0.40345 0
M  V30 11 C 6.86379 0.588545 -0.589587 0
M  V30 12 C 6.65995 1.95441 -0.717604 0
M  V30 13 C 5.38097 2.45249 -0.655424 0
M  V30 14 C 4.33628 1.54783 -0.46403 0
M  V30 15 C -0.235173 -0.507494 0.169172 0
M  V30 16 C -1.40779 -1.19443 0.348704 0
M  V30 17 C -2.71072 -0.52194 0.394098 0
M  V30 18 C -2.81553 0.772564 0.264649 0
M  V30 19 C -4.10577 1.43583 0.309887 0
M  V30 20 C -4.12003 2.82525 0.162072 0
M  V30 21 C -5.32186 3.4661 0.201737 0
M  V30 22 C -6.50612 2.77905 0.382314 0
M  V30 23 C -6.46323 1.41708 0.524599 0
M  V30 24 C -5.26165 0.728903 0.490037 0
M  V30 25 H -3.30779 -3.03683 1.46843 0
M  V30 26 H -2.94894 -4.0052 0.0242083 0
M  V30 27 H -0.196454 -4.34799 0.57785 0
M  V30 28 H 2.51588 -3.71058 -0.66589 0
M  V30 29 H 2.71159 -3.56317 1.11147 0
M  V30 30 H 2.02594 0.694012 -0.163704 0
M  V30 31 H 3.7548 -1.78456 -0.0542503 0
M  V30 32 H 6.02592 -1.34836 -0.306218 0
M  V30 33 H 7.87775 0.202763 -0.639855 0
M  V30 34 H 7.47024 2.65022 -0.865423 0
M  V30 35 H 5.11135 3.49038 -0.74233 0
M  V30 36 H 3.32817 1.95149 -0.416207 0
M  V30 37 H -0.213997 0.55729 0.052981 0
M  V30 38 H -3.62122 -1.10622 0.538938 0
M  V30 39 H -1.93389 1.38918 0.118943 0
M  V30 40 H -3.1821 3.33973 0.0222432 0
M  V30 41 H -5.3301 4.55665 0.0854513 0
M  V30 42 H -7.45661 3.28605 0.413667 0
M  V30 43 H -7.4019 0.875474 0.667416 0
M  V30 44 H -5.32727 -0.342816 0.610973 0
M  V30 END ATOM
M  V30 BEGIN BOND
M  V30 1 1 1 2
M  V30 2 2 2 3
M  V30 3 1 3 4
M  V30 4 1 4 5
M  V30 5 2 4 6
M  V30 6 1 6 7
M  V30 7 2 7 8 CFG=2
M  V30 8 1 8 9
M  V30 9 2 9 10
M  V30 10 1 10 11
M  V30 11 2 11 12
M  V30 12 1 12 13
M  V30 13 2 13 14
M  V30 14 1 6 15
M  V30 15 2 15 16
M  V30 16 1 16 17
M  V30 17 2 17 18 CFG=2
M  V30 18 1 18 19
M  V30 19 2 19 20
M  V30 20 1 20 21
M  V30 21 2 21 22
M  V30 22 1 22 23
M  V30 23 2 23 24
M  V30 24 1 16 2
M  V30 25 1 24 19
M  V30 26 1 14 9
M  V30 27 1 1 25
M  V30 28 1 1 26
M  V30 29 1 3 27
M  V30 30 1 5 28
M  V30 31 1 5 29
M  V30 32 1 7 30
M  V30 33 1 8 31
M  V30 34 1 10 32
M  V30 35 1 11 33
M  V30 36 1 12 34
M  V30 37 1 13 35
M  V30 38 1 14 36
M  V30 39 1 15 37
M  V30 40 1 17 38
M  V30 41 1 18 39
M  V30 42 1 20 40
M  V30 43 1 21 41
M  V30 44 1 22 42
M  V30 45 1 23 43
M  V30 46 1 24 44
M  V30 END BOND
M  V30 END CTAB
M  END
