
     RDKit          3D

  0  0  0  0  0  0  0  0  0  0999 V3000
M  V30 BEGIN CTAB
M  V30 COUNTS 22 22 0 0 0
M  V30 BEGIN ATOM
M  V30 1 N 2.08301 -0.95865 0.186686 0
M  V30 2 C 0.989297 -0.668388 -0.720237 0
M  V30 3 C -0.108093 0.00283926 0.0396255 0
M  V30 4 C 0.27777 1.31228 0.698582 0
M  V30 5 N 0.712055 2.22992 -0.339366 0
M  V30 6 C -1.40293 0.180952 -0.714669 0
M  V30 7 C -1.95078 -1.05903 -0.0585088 0
M  V30 8 C -0.814044 -0.979483 0.940834 0
M  V30 9 H 1.93495 -0.613976 1.14001 0
M  V30 10 H 3.00866 -0.801636 -0.223952 0
M  V30 11 H 0.59347 -1.62343 -1.11667 0
M  V30 12 H 1.37853 -0.0998329 -1.56757 0
M  V30 13 H 1.0519 1.19527 1.46987 0
M  V30 14 H -0.595693 1.78646 1.18811 0
M  V30 15 H 1.70124 2.50819 -0.135271 0
M  V30 16 H 0.662941 1.78791 -1.27359 0
M  V30 17 H -1.2691 0.150279 -1.7976 0
M  V30 18 H -1.9933 1.08237 -0.38229 0
M  V30 19 H -1.90077 -1.94788 -0.723222 0
M  V30 20 H -2.93496 -0.91031 0.424342 0
M  V30 21 H -1.09323 -0.604955 1.93727 0
M  V30 22 H -0.330937 -1.96889 1.02761 0
M  V30 END ATOM
M  V30 BEGIN BOND
M  V30 1 1 1 2
M  V30 2 1 2 3
M  V30 3 1 3 4
M  V30 4 1 4 5
M  V30 5 1 3 6
M  V30 6 1 6 7
M  V30 7 1 7 8
M  V30 8 1 8 3
M  V30 9 1 1 9
M  V30 10 1 1 10
M  V30 11 1 2 11
M  V30 12 1 2 12
M  V30 13 1 4 13
M  V30 14 1 4 14
M  V30 15 1 5 15
M  V30 16 1 5 16
M  V30 17 1 6 17
M  V30 18 1 6 18
M  V30 19 1 7 19
M  V30 20 1 7 20
M  V30 21 1 8 21
M  V30 22 1 8 22
M  V30 END BOND
M  V30 END CTAB
M  END
