
     RDKit          3D

  0  0  0  0  0  0  0  0  0  0999 V3000
M  V30 BEGIN CTAB
M  V30 COUNTS 31 32 0 0 0
M  V30 BEGIN ATOM
M  V30 1 C -3.15719 -1.34182 -0.49424 0
M  V30 2 C -2.37269 -0.474315 0.506113 0
M  V30 3 C -2.6928 0.938877 0.22089 0
M  V30 4 C -1.58694 1.71455 -0.440067 0
M  V30 5 C -0.390651 1.59006 0.467034 0
M  V30 6 C 0.0663072 0.189694 0.664198 0
M  V30 7 C -0.951032 -0.863834 0.518576 0
M  V30 8 C 1.22244 -0.0412785 -0.26027 0
M  V30 9 N 1.17543 -0.0682839 -1.60407 0
M  V30 10 N 2.37595 -0.29602 -2.10237 0
M  V30 11 C 3.25555 -0.426025 -1.06879 0
M  V30 12 N 2.51406 -0.264417 0.0338675 0
M  V30 13 N 3.01842 -0.320229 1.33773 0
M  V30 14 N 4.64993 -0.678272 -1.18032 0
M  V30 15 H -2.45155 -1.65468 -1.30478 0
M  V30 16 H -3.486 -2.28306 -0.00638607 0
M  V30 17 H -4.03604 -0.798976 -0.876314 0
M  V30 18 H -2.844 -0.725788 1.49381 0
M  V30 19 H -2.94739 1.4969 1.16184 0
M  V30 20 H -3.59903 1.03475 -0.419053 0
M  V30 21 H -1.39056 1.41513 -1.47867 0
M  V30 22 H -1.88109 2.7843 -0.45202 0
M  V30 23 H 0.422283 2.20762 0.0336231 0
M  V30 24 H -0.66627 2.04498 1.43896 0
M  V30 25 H 0.507832 0.13935 1.70467 0
M  V30 26 H -0.797905 -1.65436 1.30872 0
M  V30 27 H -0.738275 -1.42403 -0.44151 0
M  V30 28 H 3.67451 -1.08291 1.59721 0
M  V30 29 H 2.7662 0.371305 2.06727 0
M  V30 30 H 5.3067 -0.201773 -0.537233 0
M  V30 31 H 5.03378 -1.32744 -1.88842 0
M  V30 END ATOM
M  V30 BEGIN BOND
M  V30 1 1 1 2
M  V30 2 1 2 3
M  V30 3 1 3 4
M  V30 4 1 4 5
M  V30 5 1 5 6
M  V30 6 1 6 7
M  V30 7 1 6 8
M  V30 8 2 8 9
M  V30 9 1 9 10
M  V30 10 2 10 11
M  V30 11 1 11 12
M  V30 12 1 12 13
M  V30 13 1 11 14
M  V30 14 1 7 2
M  V30 15 1 12 8
M  V30 16 1 1 15
M  V30 17 1 1 16
M  V30 18 1 1 17
M  V30 19 1 2 18
M  V30 20 1 3 19
M  V30 21 1 3 20
M  V30 22 1 4 21
M  V30 23 1 4 22
M  V30 24 1 5 23
M  V30 25 1 5 24
M  V30 26 1 6 25
M  V30 27 1 7 26
M  V30 28 1 7 27
M  V30 29 1 13 28
M  V30 30 1 13 29
M  V30 31 1 14 30
M  V30 32 1 14 31
M  V30 END BOND
M  V30 END CTAB
M  END
