
     RDKit          3D

  0  0  0  0  0  0  0  0  0  0999 V3000
M  V30 BEGIN CTAB
M  V30 COUNTS 41 43 0 0 0
M  V30 BEGIN ATOM
M  V30 1 C 0.348981 -1.55524 1.48472 0
M  V30 2 N 0.290786 -1.28452 0.124036 0
M  V30 3 C 1.35233 -1.63675 -0.726221 0
M  V30 4 C 2.65897 -1.02987 -0.359107 0
M  V30 5 C 3.48052 -1.77648 0.456106 0
M  V30 6 C 4.6954 -1.22838 0.808156 0
M  V30 7 C 5.1112 0.0216744 0.379744 0
M  V30 8 N 6.36733 0.53766 0.769381 0
M  V30 9 C 4.24509 0.735956 -0.442108 0
M  V30 10 C 3.01731 0.227204 -0.820981 0
M  V30 11 C -0.776395 -0.506508 -0.328212 0
M  V30 12 C -0.823418 0.900564 0.196125 0
M  V30 13 C -2.26309 1.26319 0.015668 0
M  V30 14 C -2.95213 2.47072 -0.0980181 0
M  V30 15 C -4.32739 2.53093 -0.258536 0
M  V30 16 C -5.06459 1.39031 -0.311738 0
M  V30 17 N -6.47474 1.39919 -0.471706 0
M  V30 18 C -4.38711 0.189849 -0.199791 0
M  V30 19 C -3.02193 0.123916 -0.0400762 0
M  V30 20 C -2.13696 -1.04761 0.0983149 0
M  V30 21 H -0.348472 -0.879217 2.05156 0
M  V30 22 H 0.124801 -2.63276 1.76284 0
M  V30 23 H 1.33672 -1.38099 1.99666 0
M  V30 24 H 1.49365 -2.74522 -0.851349 0
M  V30 25 H 1.1145 -1.27633 -1.77132 0
M  V30 26 H 3.24118 -2.75415 0.836747 0
M  V30 27 H 5.36209 -1.8157 1.45999 0
M  V30 28 H 6.53553 1.55092 0.715062 0
M  V30 29 H 7.10993 -0.0927317 1.10541 0
M  V30 30 H 4.59401 1.71707 -0.766788 0
M  V30 31 H 2.35836 0.810055 -1.46681 0
M  V30 32 H -0.841918 -0.425324 -1.43936 0
M  V30 33 H -0.486675 0.956709 1.22861 0
M  V30 34 H -0.17788 1.53746 -0.466594 0
M  V30 35 H -2.40703 3.39976 -0.0609775 0
M  V30 36 H -4.82173 3.4866 -0.342995 0
M  V30 37 H -7.05298 1.01563 0.334715 0
M  V30 38 H -6.939 1.75257 -1.31409 0
M  V30 39 H -4.95755 -0.724307 -0.240462 0
M  V30 40 H -2.13238 -1.32806 1.1818 0
M  V30 41 H -2.44533 -1.89778 -0.536226 0
M  V30 END ATOM
M  V30 BEGIN BOND
M  V30 1 1 1 2
M  V30 2 1 2 3
M  V30 3 1 3 4
M  V30 4 2 4 5
M  V30 5 1 5 6
M  V30 6 2 6 7
M  V30 7 1 7 8
M  V30 8 1 7 9
M  V30 9 2 9 10
M  V30 10 1 2 11
M  V30 11 1 11 12
M  V30 12 1 12 13
M  V30 13 2 13 14
M  V30 14 1 14 15
M  V30 15 2 15 16
M  V30 16 1 16 17
M  V30 17 1 16 18
M  V30 18 2 18 19
M  V30 19 1 19 20
M  V30 20 1 10 4
M  V30 21 1 20 11
M  V30 22 1 19 13
M  V30 23 1 1 21
M  V30 24 1 1 22
M  V30 25 1 1 23
M  V30 26 1 3 24
M  V30 27 1 3 25
M  V30 28 1 5 26
M  V30 29 1 6 27
M  V30 30 1 8 28
M  V30 31 1 8 29
M  V30 32 1 9 30
M  V30 33 1 10 31
M  V30 34 1 11 32
M  V30 35 1 12 33
M  V30 36 1 12 34
M  V30 37 1 14 35
M  V30 38 1 15 36
M  V30 39 1 17 37
M  V30 40 1 17 38
M  V30 41 1 18 39
M  V30 42 1 20 40
M  V30 43 1 20 41
M  V30 END BOND
M  V30 END CTAB
M  END
