
     RDKit          3D

  0  0  0  0  0  0  0  0  0  0999 V3000
M  V30 BEGIN CTAB
M  V30 COUNTS 26 26 0 0 0
M  V30 BEGIN ATOM
M  V30 1 O -1.30292 0.297925 2.35751 0
M  V30 2 C -1.38748 0.922014 1.12677 0
M  V30 3 C -1.23986 -0.0538415 -0.021074 0
M  V30 4 C -2.23896 -1.18288 -0.13918 0
M  V30 5 C -2.24477 -0.0130588 -1.07377 0
M  V30 6 C 0.187253 -0.468409 -0.273807 0
M  V30 7 N 1.02324 0.661896 -0.5961 0
M  V30 8 C 2.16792 0.838642 -0.0478876 0
M  V30 9 N 2.6531 -0.081394 0.902605 0
M  V30 10 N 2.95541 1.96968 -0.399348 0
M  V30 11 C 0.306762 -1.54374 -1.31764 0
M  V30 12 H -1.75594 0.906427 3.01632 0
M  V30 13 H -2.34829 1.45347 1.05207 0
M  V30 14 H -0.572334 1.6712 1.01645 0
M  V30 15 H -1.9356 -2.14875 -0.570884 0
M  V30 16 H -2.96896 -1.22432 0.695154 0
M  V30 17 H -3.1182 0.676526 -0.916552 0
M  V30 18 H -2.02149 -0.145549 -2.14767 0
M  V30 19 H 0.566121 -0.901318 0.681793 0
M  V30 20 H 2.9288 0.257179 1.85125 0
M  V30 21 H 2.72246 -1.09082 0.622129 0
M  V30 22 H 2.63546 2.89589 -0.0590993 0
M  V30 23 H 3.80654 1.79693 -0.978054 0
M  V30 24 H 1.21352 -1.31302 -1.9365 0
M  V30 25 H 0.519063 -2.54329 -0.865486 0
M  V30 26 H -0.550855 -1.63739 -1.97901 0
M  V30 END ATOM
M  V30 BEGIN BOND
M  V30 1 1 1 2
M  V30 2 1 2 3
M  V30 3 1 3 4
M  V30 4 1 4 5
M  V30 5 1 3 6
M  V30 6 1 6 7
M  V30 7 2 7 8 CFG=2
M  V30 8 1 8 9
M  V30 9 1 8 10
M  V30 10 1 6 11
M  V30 11 1 5 3
M  V30 12 1 1 12
M  V30 13 1 2 13
M  V30 14 1 2 14
M  V30 15 1 4 15
M  V30 16 1 4 16
M  V30 17 1 5 17
M  V30 18 1 5 18
M  V30 19 1 6 19
M  V30 20 1 9 20
M  V30 21 1 9 21
M  V30 22 1 10 22
M  V30 23 1 10 23
M  V30 24 1 11 24
M  V30 25 1 11 25
M  V30 26 1 11 26
M  V30 END BOND
M  V30 END CTAB
M  END
