
     RDKit          3D

  0  0  0  0  0  0  0  0  0  0999 V3000
M  V30 BEGIN CTAB
M  V30 COUNTS 25 25 0 0 0
M  V30 BEGIN ATOM
M  V30 1 C -1.70534 -0.202831 1.25105 0
M  V30 2 C -1.68772 -0.624447 -0.19848 0 CFG=2
M  V30 3 C -0.612629 0.08912 -0.961108 0
M  V30 4 C 0.715675 -0.142509 -0.243912 0
M  V30 5 C 1.23021 -1.41809 -0.0960062 0
M  V30 6 C 2.5023 -1.52573 0.495143 0
M  V30 7 C 3.18275 -0.445999 0.900329 0
M  V30 8 N 2.62067 0.820799 0.730056 0
M  V30 9 C 1.41421 0.958503 0.173399 0
M  V30 10 N 0.829457 2.24857 0.100652 0
M  V30 11 O -0.738746 1.42254 -1.21314 0
M  V30 12 N -2.96303 -0.428973 -0.802456 0
M  V30 13 H -2.53674 -0.718405 1.7476 0
M  V30 14 H -0.780842 -0.504042 1.73785 0
M  V30 15 H -1.90677 0.8922 1.36412 0
M  V30 16 H -1.46429 -1.70098 -0.230489 0
M  V30 17 H -0.557357 -0.44256 -1.94674 0
M  V30 18 H 0.727648 -2.29525 -0.424587 0
M  V30 19 H 2.87581 -2.54348 0.596165 0
M  V30 20 H 4.16711 -0.536866 1.35641 0
M  V30 21 H 0.0359315 2.53431 0.746609 0
M  V30 22 H 1.14653 2.91986 -0.596612 0
M  V30 23 H -0.280516 1.5727 -2.1296 0
M  V30 24 H -3.2892 0.548503 -0.506087 0
M  V30 25 H -2.92512 -0.476939 -1.85015 0
M  V30 END ATOM
M  V30 BEGIN BOND
M  V30 1 1 1 2
M  V30 2 1 2 3
M  V30 3 1 3 4
M  V30 4 2 4 5
M  V30 5 1 5 6
M  V30 6 2 6 7
M  V30 7 1 7 8
M  V30 8 2 8 9
M  V30 9 1 9 10
M  V30 10 1 3 11
M  V30 11 1 2 12
M  V30 12 1 9 4
M  V30 13 1 1 13
M  V30 14 1 1 14
M  V30 15 1 1 15
M  V30 16 1 2 16 CFG=1
M  V30 17 1 3 17
M  V30 18 1 5 18
M  V30 19 1 6 19
M  V30 20 1 7 20
M  V30 21 1 10 21
M  V30 22 1 10 22
M  V30 23 1 11 23
M  V30 24 1 12 24
M  V30 25 1 12 25
M  V30 END BOND
M  V30 END CTAB
M  END
