
     RDKit          3D

  0  0  0  0  0  0  0  0  0  0999 V3000
M  V30 BEGIN CTAB
M  V30 COUNTS 27 28 0 0 0
M  V30 BEGIN ATOM
M  V30 1 N -3.1326 -2.0963 0.839512 0
M  V30 2 C -2.61268 -0.816732 0.46753 0
M  V30 3 C -1.23681 -0.561205 0.473992 0
M  V30 4 C -0.7182 0.65695 0.120741 0
M  V30 5 N 0.677006 0.853039 0.129628 0
M  V30 6 C 1.65358 -0.176489 0.42568 0
M  V30 7 C 2.96726 0.501578 0.586835 0
M  V30 8 C 4.08532 -0.439526 0.363927 0
M  V30 9 S 3.40028 -1.72214 -0.743516 0
M  V30 10 C 1.68963 -1.07588 -0.768085 0
M  V30 11 N -1.57386 1.64216 -0.245094 0
M  V30 12 C -2.89326 1.40885 -0.254703 0
M  V30 13 N -3.40349 0.201611 0.0950182 0
M  V30 14 N -3.79863 2.44149 -0.63867 0
M  V30 15 H -4.12037 -2.17444 1.12053 0
M  V30 16 H -2.49244 -2.91225 0.814166 0
M  V30 17 H -0.637699 -1.41319 0.796176 0
M  V30 18 H 1.00907 1.83627 -0.102153 0
M  V30 19 H 1.35714 -0.752018 1.31676 0
M  V30 20 H 3.03155 0.863652 1.64433 0
M  V30 21 H 3.06007 1.41005 -0.0467165 0
M  V30 22 H 4.89478 0.0631585 -0.228259 0
M  V30 23 H 4.53272 -0.868746 1.25974 0
M  V30 24 H 1.48799 -0.560763 -1.72546 0
M  V30 25 H 1.05007 -1.97027 -0.680904 0
M  V30 26 H -4.52904 2.27523 -1.36234 0
M  V30 27 H -3.74739 3.38591 -0.201585 0
M  V30 END ATOM
M  V30 BEGIN BOND
M  V30 1 1 1 2
M  V30 2 2 2 3
M  V30 3 1 3 4
M  V30 4 1 4 5
M  V30 5 1 5 6
M  V30 6 1 6 7
M  V30 7 1 7 8
M  V30 8 1 8 9
M  V30 9 1 9 10
M  V30 10 2 4 11
M  V30 11 1 11 12
M  V30 12 2 12 13
M  V30 13 1 12 14
M  V30 14 1 13 2
M  V30 15 1 10 6
M  V30 16 1 1 15
M  V30 17 1 1 16
M  V30 18 1 3 17
M  V30 19 1 5 18
M  V30 20 1 6 19
M  V30 21 1 7 20
M  V30 22 1 7 21
M  V30 23 1 8 22
M  V30 24 1 8 23
M  V30 25 1 10 24
M  V30 26 1 10 25
M  V30 27 1 14 26
M  V30 28 1 14 27
M  V30 END BOND
M  V30 END CTAB
M  END
