
     RDKit          3D

  0  0  0  0  0  0  0  0  0  0999 V3000
M  V30 BEGIN CTAB
M  V30 COUNTS 43 45 0 0 0
M  V30 BEGIN ATOM
M  V30 1 F 8.21737 -1.02566 0.158219 0
M  V30 2 C 6.89118 -0.796036 0.140509 0
M  V30 3 C 6.03872 -1.61936 0.828508 0
M  V30 4 C 4.6671 -1.41353 0.830085 0
M  V30 5 C 4.16987 -0.34221 0.111582 0
M  V30 6 C 5.01145 0.489571 -0.580286 0
M  V30 7 C 6.39631 0.265275 -0.571272 0
M  V30 8 N 2.76925 -0.130314 0.111523 0
M  V30 9 C 2.20294 0.761541 -0.867377 0
M  V30 10 C 0.814662 0.347075 -1.27672 0
M  V30 11 N 0.0535272 -0.126133 -0.157032 0
M  V30 12 C 0.628269 -0.147805 1.1846 0
M  V30 13 C 1.9667 -0.817546 1.10923 0
M  V30 14 C -1.27468 -0.583354 -0.385315 0
M  V30 15 O -1.96289 -0.996244 0.594099 0
M  V30 16 C -1.8009 -0.559042 -1.76538 0
M  V30 17 S -2.72814 0.973997 -2.00609 0
M  V30 18 C -4.19168 0.911024 -0.984733 0
M  V30 19 N -4.23953 1.35841 0.274017 0
M  V30 20 C -5.33239 1.30718 1.04327 0
M  V30 21 N -5.37181 1.78352 2.37691 0
M  V30 22 N -6.4423 0.76397 0.48873 0
M  V30 23 C -6.46825 0.298343 -0.756621 0
M  V30 24 N -5.34397 0.375528 -1.48355 0
M  V30 25 N -7.67601 -0.263426 -1.27618 0
M  V30 26 H 6.423 -2.46636 1.39832 0
M  V30 27 H 4.01671 -2.08559 1.38468 0
M  V30 28 H 4.59962 1.32845 -1.13028 0
M  V30 29 H 7.01827 0.949136 -1.13295 0
M  V30 30 H 2.22097 1.81529 -0.565607 0
M  V30 31 H 2.85526 0.701125 -1.79233 0
M  V30 32 H 0.332989 1.13403 -1.86072 0
M  V30 33 H 0.949797 -0.53042 -1.97659 0
M  V30 34 H 0.743561 0.862369 1.61373 0
M  V30 35 H -0.0818381 -0.694449 1.83711 0
M  V30 36 H 1.82716 -1.89038 0.851468 0
M  V30 37 H 2.49641 -0.770354 2.10345 0
M  V30 38 H -2.48051 -1.45839 -1.85145 0
M  V30 39 H -1.00491 -0.629436 -2.53482 0
M  V30 40 H -5.03802 1.15293 3.13726 0
M  V30 41 H -5.70964 2.71543 2.66553 0
M  V30 42 H -7.59279 -0.770238 -2.20071 0
M  V30 43 H -8.57088 -0.177902 -0.780424 0
M  V30 END ATOM
M  V30 BEGIN BOND
M  V30 1 1 1 2
M  V30 2 2 2 3
M  V30 3 1 3 4
M  V30 4 2 4 5
M  V30 5 1 5 6
M  V30 6 2 6 7
M  V30 7 1 5 8
M  V30 8 1 8 9
M  V30 9 1 9 10
M  V30 10 1 10 11
M  V30 11 1 11 12
M  V30 12 1 12 13
M  V30 13 1 11 14
M  V30 14 2 14 15
M  V30 15 1 14 16
M  V30 16 1 16 17
M  V30 17 1 17 18
M  V30 18 2 18 19
M  V30 19 1 19 20
M  V30 20 1 20 21
M  V30 21 2 20 22
M  V30 22 1 22 23
M  V30 23 2 23 24
M  V30 24 1 23 25
M  V30 25 1 7 2
M  V30 26 1 13 8
M  V30 27 1 24 18
M  V30 28 1 3 26
M  V30 29 1 4 27
M  V30 30 1 6 28
M  V30 31 1 7 29
M  V30 32 1 9 30
M  V30 33 1 9 31
M  V30 34 1 10 32
M  V30 35 1 10 33
M  V30 36 1 12 34
M  V30 37 1 12 35
M  V30 38 1 13 36
M  V30 39 1 13 37
M  V30 40 1 16 38
M  V30 41 1 16 39
M  V30 42 1 21 40
M  V30 43 1 21 41
M  V30 44 1 25 42
M  V30 45 1 25 43
M  V30 END BOND
M  V30 END CTAB
M  END
