
     RDKit          3D

  0  0  0  0  0  0  0  0  0  0999 V3000
M  V30 BEGIN CTAB
M  V30 COUNTS 43 44 0 0 0
M  V30 BEGIN ATOM
M  V30 1 N -6.8032 -1.36385 1.39923 0
M  V30 2 N -5.70574 -0.741287 0.822739 0
M  V30 3 C -4.46313 -1.38397 0.621214 0
M  V30 4 O -4.37973 -2.59881 1.00035 0
M  V30 5 C -3.30047 -0.754946 0.0207109 0
M  V30 6 C -3.30094 0.546324 -0.423079 0
M  V30 7 C -2.19588 1.15051 -0.996175 0
M  V30 8 C -1.04 0.45367 -1.14277 0
M  V30 9 C -0.989212 -0.863013 -0.709629 0
M  V30 10 C -2.10321 -1.43039 -0.146151 0
M  V30 11 C 0.226414 0.975433 -1.73181 0
M  V30 12 C 0.400213 0.315192 -3.07161 0
M  V30 13 F -0.749041 0.667439 -3.81411 0
M  V30 14 F 0.475297 -1.02726 -3.09507 0
M  V30 15 F 1.42679 0.841239 -3.83865 0
M  V30 16 C 0.267441 2.44147 -1.99183 0
M  V30 17 F -0.677559 2.89248 -2.91154 0
M  V30 18 F 0.180508 3.20582 -0.831338 0
M  V30 19 F 1.50089 2.7913 -2.52054 0
M  V30 20 C 1.27713 0.633548 -0.737359 0
M  V30 21 C 2.44434 -0.00579077 -1.05738 0
M  V30 22 C 3.3542 -0.285988 -0.0574425 0
M  V30 23 C 3.15613 0.0431291 1.26207 0
M  V30 24 C 1.96545 0.686438 1.54003 0
M  V30 25 C 1.03616 0.981496 0.569997 0
M  V30 26 C 4.10709 -0.248698 2.33255 0
M  V30 27 O 3.86018 0.176408 3.49943 0
M  V30 28 N 5.27667 -0.980426 2.10978 0
M  V30 29 N 6.17098 -1.24779 3.1476 0
M  V30 30 H -6.79169 -1.33279 2.44209 0
M  V30 31 H -7.72066 -1.05312 1.02294 0
M  V30 32 H -5.80962 0.249813 0.526041 0
M  V30 33 H -4.2088 1.14245 -0.324868 0
M  V30 34 H -2.23824 2.18702 -1.32457 0
M  V30 35 H -0.0666755 -1.47039 -0.794301 0
M  V30 36 H -2.08267 -2.47441 0.203571 0
M  V30 37 H 2.63195 -0.285996 -2.09108 0
M  V30 38 H 4.26878 -0.791831 -0.340203 0
M  V30 39 H 1.79589 0.954903 2.5951 0
M  V30 40 H 0.107106 1.49057 0.888219 0
M  V30 41 H 5.50524 -1.34209 1.16335 0
M  V30 42 H 7.1654 -1.20524 2.83639 0
M  V30 43 H 6.02625 -0.610977 3.94812 0
M  V30 END ATOM
M  V30 BEGIN BOND
M  V30 1 1 1 2
M  V30 2 1 2 3
M  V30 3 2 3 4
M  V30 4 1 3 5
M  V30 5 2 5 6
M  V30 6 1 6 7
M  V30 7 2 7 8
M  V30 8 1 8 9
M  V30 9 2 9 10
M  V30 10 1 8 11
M  V30 11 1 11 12
M  V30 12 1 12 13
M  V30 13 1 12 14
M  V30 14 1 12 15
M  V30 15 1 11 16
M  V30 16 1 16 17
M  V30 17 1 16 18
M  V30 18 1 16 19
M  V30 19 1 11 20
M  V30 20 2 20 21
M  V30 21 1 21 22
M  V30 22 2 22 23
M  V30 23 1 23 24
M  V30 24 2 24 25
M  V30 25 1 23 26
M  V30 26 2 26 27
M  V30 27 1 26 28
M  V30 28 1 28 29
M  V30 29 1 10 5
M  V30 30 1 25 20
M  V30 31 1 1 30
M  V30 32 1 1 31
M  V30 33 1 2 32
M  V30 34 1 6 33
M  V30 35 1 7 34
M  V30 36 1 9 35
M  V30 37 1 10 36
M  V30 38 1 21 37
M  V30 39 1 22 38
M  V30 40 1 24 39
M  V30 41 1 25 40
M  V30 42 1 28 41
M  V30 43 1 29 42
M  V30 44 1 29 43
M  V30 END BOND
M  V30 END CTAB
M  END
