
     RDKit          3D

  0  0  0  0  0  0  0  0  0  0999 V3000
M  V30 BEGIN CTAB
M  V30 COUNTS 44 46 0 0 0
M  V30 BEGIN ATOM
M  V30 1 O -0.11553 -0.673465 -0.570144 0
M  V30 2 C 0.0640115 -0.374751 0.634929 0
M  V30 3 C -1.11028 -0.250206 1.56481 0
M  V30 4 N -2.3462 -0.509791 0.887521 0
M  V30 5 C -2.90521 -1.82476 0.806866 0
M  V30 6 O -2.1874 -2.82666 1.03239 0
M  V30 7 C -4.34467 -2.02415 0.454742 0
M  V30 8 C -4.54079 -3.38238 -0.224316 0
M  V30 9 O -4.80682 -1.05139 -0.457993 0
M  V30 10 C -4.29057 0.225775 -0.394281 0
M  V30 11 C -3.10792 0.507845 0.24809 0
M  V30 12 N -2.60893 1.77067 0.304271 0
M  V30 13 C -3.30379 2.75677 -0.289487 0
M  V30 14 N -2.78724 4.0658 -0.231645 0
M  V30 15 C -4.50034 2.53726 -0.951761 0
M  V30 16 C -4.9989 1.24813 -1.00276 0
M  V30 17 N 1.33847 -0.14661 1.16625 0
M  V30 18 C 2.59216 -0.193538 0.52288 0
M  V30 19 C 2.78599 -0.294888 -0.831528 0
M  V30 20 C 4.06737 -0.351376 -1.3979 0
M  V30 21 C 5.19574 -0.307407 -0.620273 0
M  V30 22 C 5.02247 -0.206117 0.731539 0
M  V30 23 C 3.77064 -0.150881 1.28788 0
M  V30 24 S 6.79077 -0.37839 -1.33145 0
M  V30 25 O 7.72979 -0.984799 -0.319167 0
M  V30 26 O 6.73432 -1.2351 -2.56946 0
M  V30 27 N 7.37122 1.20113 -1.69996 0
M  V30 28 H -0.914377 -0.964552 2.39659 0
M  V30 29 H -1.04883 0.768707 1.99853 0
M  V30 30 H -4.93891 -1.99961 1.39645 0
M  V30 31 H -3.77298 -4.09933 0.126459 0
M  V30 32 H -4.52388 -3.2451 -1.32708 0
M  V30 33 H -5.57566 -3.70316 0.035465 0
M  V30 34 H -2.53413 4.48145 0.686712 0
M  V30 35 H -2.64268 4.6562 -1.09876 0
M  V30 36 H -5.02694 3.36049 -1.41599 0
M  V30 37 H -5.9261 1.03278 -1.50744 0
M  V30 38 H 1.3638 0.103307 2.21208 0
M  V30 39 H 1.93471 -0.326737 -1.50692 0
M  V30 40 H 4.16831 -0.431509 -2.47333 0
M  V30 41 H 5.911 -0.17062 1.3535 0
M  V30 42 H 3.63831 -0.0709138 2.36793 0
M  V30 43 H 6.65389 1.81488 -2.11001 0
M  V30 44 H 7.72607 1.64699 -0.837825 0
M  V30 END ATOM
M  V30 BEGIN BOND
M  V30 1 2 1 2
M  V30 2 1 2 3
M  V30 3 1 3 4
M  V30 4 1 4 5
M  V30 5 2 5 6
M  V30 6 1 5 7
M  V30 7 1 7 8
M  V30 8 1 7 9
M  V30 9 1 9 10
M  V30 10 2 10 11
M  V30 11 1 11 12
M  V30 12 2 12 13
M  V30 13 1 13 14
M  V30 14 1 13 15
M  V30 15 2 15 16
M  V30 16 1 2 17
M  V30 17 1 17 18
M  V30 18 2 18 19
M  V30 19 1 19 20
M  V30 20 2 20 21
M  V30 21 1 21 22
M  V30 22 2 22 23
M  V30 23 1 21 24
M  V30 24 2 24 25
M  V30 25 2 24 26
M  V30 26 1 24 27
M  V30 27 1 11 4
M  V30 28 1 23 18
M  V30 29 1 16 10
M  V30 30 1 3 28
M  V30 31 1 3 29
M  V30 32 1 7 30
M  V30 33 1 8 31
M  V30 34 1 8 32
M  V30 35 1 8 33
M  V30 36 1 14 34
M  V30 37 1 14 35
M  V30 38 1 15 36
M  V30 39 1 16 37
M  V30 40 1 17 38
M  V30 41 1 19 39
M  V30 42 1 20 40
M  V30 43 1 22 41
M  V30 44 1 23 42
M  V30 45 1 27 43
M  V30 46 1 27 44
M  V30 END BOND
M  V30 END CTAB
M  END
