
     RDKit          3D

  0  0  0  0  0  0  0  0  0  0999 V3000
M  V30 BEGIN CTAB
M  V30 COUNTS 28 30 0 0 0
M  V30 BEGIN ATOM
M  V30 1 N 5.116 0.532449 -0.687929 0
M  V30 2 C 3.7142 0.240844 -0.567891 0
M  V30 3 N 3.18292 -0.870031 -1.10534 0
M  V30 4 C 1.87108 -1.17442 -1.01189 0
M  V30 5 C 0.995613 -0.321001 -0.334637 0
M  V30 6 C -0.282978 -0.830378 -0.358477 0
M  V30 7 C -0.163798 -2.03044 -1.07308 0
M  V30 8 N 1.11148 -2.19755 -1.43932 0
M  V30 9 C -1.54143 -0.305327 0.160402 0
M  V30 10 C -2.28398 -0.981826 1.10494 0
M  V30 11 C -3.48889 -0.486159 1.54602 0
M  V30 12 C -3.95082 0.700489 1.03237 0
M  V30 13 Cl -5.47207 1.3566 1.56885 0
M  V30 14 C -3.24201 1.40947 0.0871594 0
M  V30 15 C -2.03948 0.880359 -0.329755 0
M  V30 16 C 1.55032 0.811889 0.212192 0
M  V30 17 N 0.69904 1.69297 0.932059 0
M  V30 18 N 2.8767 1.06266 0.0842492 0
M  V30 19 H 5.68055 0.238504 -1.4985 0
M  V30 20 H 5.56899 1.06082 0.0776725 0
M  V30 21 H -1.01707 -2.66584 -1.25717 0
M  V30 22 H 1.4852 -3.00208 -1.98112 0
M  V30 23 H -1.89707 -1.90128 1.48415 0
M  V30 24 H -4.09706 -0.999126 2.29147 0
M  V30 25 H -3.62679 2.34306 -0.303113 0
M  V30 26 H -1.50098 1.46552 -1.09327 0
M  V30 27 H 0.496165 2.67376 0.649086 0
M  V30 28 H 0.256181 1.29607 1.81088 0
M  V30 END ATOM
M  V30 BEGIN BOND
M  V30 1 1 1 2
M  V30 2 2 2 3
M  V30 3 1 3 4
M  V30 4 2 4 5
M  V30 5 1 5 6
M  V30 6 2 6 7
M  V30 7 1 7 8
M  V30 8 1 6 9
M  V30 9 2 9 10
M  V30 10 1 10 11
M  V30 11 2 11 12
M  V30 12 1 12 13
M  V30 13 1 12 14
M  V30 14 2 14 15
M  V30 15 1 5 16
M  V30 16 1 16 17
M  V30 17 2 16 18
M  V30 18 1 18 2
M  V30 19 1 8 4
M  V30 20 1 15 9
M  V30 21 1 1 19
M  V30 22 1 1 20
M  V30 23 1 7 21
M  V30 24 1 8 22
M  V30 25 1 10 23
M  V30 26 1 11 24
M  V30 27 1 14 25
M  V30 28 1 15 26
M  V30 29 1 17 27
M  V30 30 1 17 28
M  V30 END BOND
M  V30 END CTAB
M  END
