
     RDKit          3D

  0  0  0  0  0  0  0  0  0  0999 V3000
M  V30 BEGIN CTAB
M  V30 COUNTS 37 38 0 0 0
M  V30 BEGIN ATOM
M  V30 1 N 1.14974 1.30738 -2.27225 0
M  V30 2 C 2.24943 1.10263 -1.38269 0
M  V30 3 C 1.84101 0.79244 0.0441955 0
M  V30 4 C 3.07321 0.606408 0.852347 0
M  V30 5 C 3.72175 -0.733966 0.770755 0
M  V30 6 C 2.7873 -1.83299 0.325031 0
M  V30 7 C 1.4224 -1.46333 0.919416 0
M  V30 8 C 0.907884 -0.37288 0.00134939 0
M  V30 9 N -0.410375 -0.0305628 0.483117 0
M  V30 10 C -1.56715 -0.293663 -0.274751 0
M  V30 11 O -1.52691 -0.841326 -1.4128 0
M  V30 12 C -2.87174 0.0694658 0.250412 0
M  V30 13 N -2.96137 0.645742 1.43937 0
M  V30 14 C -4.12778 1.00738 1.98618 0
M  V30 15 C -5.29 0.770505 1.28222 0
M  V30 16 N -5.19523 0.184087 0.0729755 0
M  V30 17 C -4.03105 -0.178083 -0.475356 0
M  V30 18 N -3.97153 -0.79176 -1.74798 0
M  V30 19 H 0.777823 2.27332 -2.16036 0
M  V30 20 H 1.50698 1.21223 -3.24902 0
M  V30 21 H 2.98341 0.346639 -1.7659 0
M  V30 22 H 2.83079 2.0626 -1.33757 0
M  V30 23 H 1.26193 1.67082 0.396938 0
M  V30 24 H 2.83044 0.803842 1.91827 0
M  V30 25 H 3.82656 1.37222 0.572075 0
M  V30 26 H 4.13816 -1.0456 1.7523 0
M  V30 27 H 4.58029 -0.744959 0.0599756 0
M  V30 28 H 3.10962 -2.78739 0.754266 0
M  V30 29 H 2.65281 -1.86011 -0.771275 0
M  V30 30 H 1.57003 -0.992124 1.91236 0
M  V30 31 H 0.759371 -2.32099 0.997808 0
M  V30 32 H 0.790189 -0.801232 -1.01439 0
M  V30 33 H -0.49976 0.419839 1.41087 0
M  V30 34 H -4.15252 1.47885 2.96759 0
M  V30 35 H -6.25678 1.05918 1.71231 0
M  V30 36 H -3.7332 -0.282495 -2.62686 0
M  V30 37 H -4.1757 -1.81211 -1.82541 0
M  V30 END ATOM
M  V30 BEGIN BOND
M  V30 1 1 1 2
M  V30 2 1 2 3
M  V30 3 1 3 4
M  V30 4 1 4 5
M  V30 5 1 5 6
M  V30 6 1 6 7
M  V30 7 1 7 8
M  V30 8 1 8 9
M  V30 9 1 9 10
M  V30 10 2 10 11
M  V30 11 1 10 12
M  V30 12 2 12 13
M  V30 13 1 13 14
M  V30 14 2 14 15
M  V30 15 1 15 16
M  V30 16 2 16 17
M  V30 17 1 17 18
M  V30 18 1 8 3
M  V30 19 1 17 12
M  V30 20 1 1 19
M  V30 21 1 1 20
M  V30 22 1 2 21
M  V30 23 1 2 22
M  V30 24 1 3 23
M  V30 25 1 4 24
M  V30 26 1 4 25
M  V30 27 1 5 26
M  V30 28 1 5 27
M  V30 29 1 6 28
M  V30 30 1 6 29
M  V30 31 1 7 30
M  V30 32 1 7 31
M  V30 33 1 8 32
M  V30 34 1 9 33
M  V30 35 1 14 34
M  V30 36 1 15 35
M  V30 37 1 18 36
M  V30 38 1 18 37
M  V30 END BOND
M  V30 END CTAB
M  END
