
     RDKit          3D

  0  0  0  0  0  0  0  0  0  0999 V3000
M  V30 BEGIN CTAB
M  V30 COUNTS 20 20 0 0 0
M  V30 BEGIN ATOM
M  V30 1 N -2.11911 0.250154 -1.34673 0
M  V30 2 P -2.12839 0.555823 0.354531 0
M  V30 3 N -3.49811 -0.293742 1.06241 0
M  V30 4 O -2.3898 2.04274 0.576752 0
M  V30 5 O -0.737289 0.0576316 1.15837 0
M  V30 6 C 0.514729 -0.0844812 0.581231 0
M  V30 7 C 1.39932 0.973691 0.555338 0
M  V30 8 C 2.65759 0.868922 -0.0121383 0
M  V30 9 C 3.08108 -0.313405 -0.581209 0
M  V30 10 Cl 4.67125 -0.477182 -1.3087 0
M  V30 11 C 2.20411 -1.37711 -0.56037 0
M  V30 12 C 0.942692 -1.26614 0.0104846 0
M  V30 13 H -3.10805 0.0665556 -1.65158 0
M  V30 14 H -1.83656 1.11246 -1.90498 0
M  V30 15 H -3.55667 0.0331385 2.0663 0
M  V30 16 H -3.34514 -1.3388 1.02906 0
M  V30 17 H 1.06984 1.91267 1.00438 0
M  V30 18 H 3.35928 1.71284 -0.0311676 0
M  V30 19 H 2.54718 -2.31074 -1.01341 0
M  V30 20 H 0.272022 -2.12504 0.0114406 0
M  V30 END ATOM
M  V30 BEGIN BOND
M  V30 1 1 1 2
M  V30 2 1 2 3
M  V30 3 2 2 4
M  V30 4 1 2 5
M  V30 5 1 5 6
M  V30 6 2 6 7
M  V30 7 1 7 8
M  V30 8 2 8 9
M  V30 9 1 9 10
M  V30 10 1 9 11
M  V30 11 2 11 12
M  V30 12 1 12 6
M  V30 13 1 1 13
M  V30 14 1 1 14
M  V30 15 1 3 15
M  V30 16 1 3 16
M  V30 17 1 7 17
M  V30 18 1 8 18
M  V30 19 1 11 19
M  V30 20 1 12 20
M  V30 END BOND
M  V30 END CTAB
M  END
