
     RDKit          3D

  0  0  0  0  0  0  0  0  0  0999 V3000
M  V30 BEGIN CTAB
M  V30 COUNTS 18 19 0 0 0
M  V30 BEGIN ATOM
M  V30 1 N 4.33248 -0.00744936 0.435674 0
M  V30 2 C 3.01018 -0.223565 -0.0584404 0
M  V30 3 N 2.61134 -0.868963 -1.15474 0
M  V30 4 O 1.32125 -0.831381 -1.23119 0
M  V30 5 C 0.863352 -0.175013 -0.208503 0
M  V30 6 N 1.89689 0.214634 0.538043 0
M  V30 7 C -0.519224 0.116498 0.119738 0
M  V30 8 N -1.04022 0.784733 1.15504 0
M  V30 9 N -2.36291 0.815214 1.06358 0
M  V30 10 C -2.76088 0.165106 -0.0402414 0
M  V30 11 C -1.59928 -0.279266 -0.641682 0
M  V30 12 N -4.1116 -0.0268066 -0.497736 0
M  V30 13 H 5.03772 -0.784359 0.3381 0
M  V30 14 H 4.53028 0.907398 0.86678 0
M  V30 15 H -0.437216 1.20515 1.90576 0
M  V30 16 H -1.58636 -0.851862 -1.57511 0
M  V30 17 H -4.32609 -0.733144 -1.20296 0
M  V30 18 H -4.85968 0.573074 -0.0901811 0
M  V30 END ATOM
M  V30 BEGIN BOND
M  V30 1 1 1 2
M  V30 2 2 2 3
M  V30 3 1 3 4
M  V30 4 1 4 5
M  V30 5 2 5 6
M  V30 6 1 5 7
M  V30 7 1 7 8
M  V30 8 1 8 9
M  V30 9 2 9 10
M  V30 10 1 10 11
M  V30 11 1 10 12
M  V30 12 1 6 2
M  V30 13 2 11 7
M  V30 14 1 1 13
M  V30 15 1 1 14
M  V30 16 1 8 15
M  V30 17 1 11 16
M  V30 18 1 12 17
M  V30 19 1 12 18
M  V30 END BOND
M  V30 END CTAB
M  END
