
     RDKit          3D

  0  0  0  0  0  0  0  0  0  0999 V3000
M  V30 BEGIN CTAB
M  V30 COUNTS 39 42 0 0 0
M  V30 BEGIN ATOM
M  V30 1 C 4.7344 -2.42274 0.859746 0
M  V30 2 S 3.47851 -1.55608 1.85023 0
M  V30 3 C 2.74561 -0.30783 0.794594 0
M  V30 4 N 1.67444 -0.531771 0.0163858 0
M  V30 5 C 1.12983 0.411312 -0.780301 0
M  V30 6 C 0.0548781 0.363118 -1.63383 0
M  V30 7 C -0.841412 -0.780609 -1.9135 0
M  V30 8 C -1.82298 -0.971091 -0.823484 0
M  V30 9 C -1.60743 -1.84752 0.211506 0
M  V30 10 C -2.52048 -2.02739 1.23594 0
M  V30 11 C -3.70023 -1.32313 1.25799 0
M  V30 12 C -3.93823 -0.436466 0.228387 0
M  V30 13 C -3.02122 -0.267652 -0.784446 0
M  V30 14 O -5.1915 0.136459 0.495539 0
M  V30 15 C -5.71976 -0.344231 1.69194 0
M  V30 16 O -4.78528 -1.29041 2.13195 0
M  V30 17 C -0.0417551 1.63296 -2.1978 0
M  V30 18 N 0.951036 2.36656 -1.67253 0
M  V30 19 N 1.67077 1.66464 -0.820141 0
M  V30 20 C 2.74336 1.9443 -0.0615652 0
M  V30 21 C 3.29464 0.980008 0.748498 0
M  V30 22 C 4.43838 1.30506 1.54762 0
M  V30 23 N 5.36379 1.55444 2.21206 0
M  V30 24 N 3.25511 3.26776 -0.144271 0
M  V30 25 N -1.04175 1.98548 -3.14353 0
M  V30 26 H 4.33708 -3.3941 0.452946 0
M  V30 27 H 5.06866 -1.84944 -0.0130436 0
M  V30 28 H 5.62327 -2.65993 1.46974 0
M  V30 29 H -1.38153 -0.633398 -2.88054 0
M  V30 30 H -0.220441 -1.69057 -2.06969 0
M  V30 31 H -0.680034 -2.42106 0.214784 0
M  V30 32 H -2.28717 -2.73804 2.02581 0
M  V30 33 H -3.19438 0.427091 -1.60549 0
M  V30 34 H -5.87914 0.452482 2.45381 0
M  V30 35 H -6.69371 -0.853929 1.44894 0
M  V30 36 H 3.65664 3.61585 -1.02855 0
M  V30 37 H 3.23934 3.91574 0.675683 0
M  V30 38 H -1.16815 1.5829 -4.07962 0
M  V30 39 H -1.72318 2.74119 -2.84787 0
M  V30 END ATOM
M  V30 BEGIN BOND
M  V30 1 1 1 2
M  V30 2 1 2 3
M  V30 3 2 3 4
M  V30 4 1 4 5
M  V30 5 2 5 6
M  V30 6 1 6 7
M  V30 7 1 7 8
M  V30 8 2 8 9
M  V30 9 1 9 10
M  V30 10 2 10 11
M  V30 11 1 11 12
M  V30 12 2 12 13
M  V30 13 1 12 14
M  V30 14 1 14 15
M  V30 15 1 15 16
M  V30 16 1 6 17
M  V30 17 2 17 18
M  V30 18 1 18 19
M  V30 19 1 19 20
M  V30 20 2 20 21
M  V30 21 1 21 22
M  V30 22 3 22 23
M  V30 23 1 20 24
M  V30 24 1 17 25
M  V30 25 1 21 3
M  V30 26 1 19 5
M  V30 27 1 13 8
M  V30 28 1 16 11
M  V30 29 1 1 26
M  V30 30 1 1 27
M  V30 31 1 1 28
M  V30 32 1 7 29
M  V30 33 1 7 30
M  V30 34 1 9 31
M  V30 35 1 10 32
M  V30 36 1 13 33
M  V30 37 1 15 34
M  V30 38 1 15 35
M  V30 39 1 24 36
M  V30 40 1 24 37
M  V30 41 1 25 38
M  V30 42 1 25 39
M  V30 END BOND
M  V30 END CTAB
M  END
