
     RDKit          3D

  0  0  0  0  0  0  0  0  0  0999 V3000
M  V30 BEGIN CTAB
M  V30 COUNTS 72 71 0 0 0
M  V30 BEGIN ATOM
M  V30 1 O -0.786092 1.01781 -6.79505 0
M  V30 2 C -0.917521 0.719324 -5.45804 0
M  V30 3 O -0.135319 -0.113111 -4.93274 0
M  V30 4 C -1.9488 1.33686 -4.59088 0
M  V30 5 N -1.86299 0.842358 -3.23171 0
M  V30 6 C -2.76342 1.31568 -2.25936 0
M  V30 7 O -3.63735 2.16863 -2.60681 0
M  V30 8 C -2.69003 0.825396 -0.865761 0 CFG=2
M  V30 9 N -3.81735 1.42142 -0.113121 0
M  V30 10 C -4.75556 0.55421 0.474779 0
M  V30 11 O -4.64176 -0.673119 0.36698 0
M  V30 12 C -5.89445 1.15255 1.23367 0
M  V30 13 C -6.75291 0.0541732 1.77359 0
M  V30 14 C -7.94016 0.569609 2.55803 0 CFG=2
M  V30 15 C -8.79682 1.41573 1.69996 0
M  V30 16 O -9.19592 0.95685 0.600608 0
M  V30 17 O -9.16061 2.69497 2.09029 0
M  V30 18 N -7.57813 1.23702 3.77609 0
M  V30 19 C -1.47372 1.2433 -0.108326 0
M  V30 20 S 0.0978251 0.72392 -0.759811 0
M  V30 21 S 0.382023 -1.37309 -0.673312 0
M  V30 22 C 1.1466 -1.89462 0.869639 0
M  V30 23 C 2.55618 -1.38479 0.982607 0 CFG=1
M  V30 24 C 3.20626 -1.80085 2.24262 0
M  V30 25 O 4.32761 -2.3638 2.18597 0
M  V30 26 N 2.63068 -1.59873 3.52196 0
M  V30 27 C 3.23047 -1.98411 4.75797 0
M  V30 28 C 4.52549 -1.35071 5.05409 0
M  V30 29 O 5.01829 -0.528109 4.26429 0
M  V30 30 O 5.19168 -1.67402 6.21307 0
M  V30 31 N 3.39451 -1.74031 -0.131091 0
M  V30 32 C 4.02014 -0.770682 -0.996903 0
M  V30 33 O 3.77564 0.425809 -0.700559 0
M  V30 34 C 4.86412 -1.18866 -2.11922 0 CFG=1
M  V30 35 C 6.25552 -0.662229 -2.13128 0
M  V30 36 C 6.36282 0.829137 -2.17951 0
M  V30 37 C 7.81104 1.22695 -2.20637 0
M  V30 38 O 8.68601 0.337899 -2.18913 0
M  V30 39 O 8.14301 2.5539 -2.24925 0
M  V30 40 N 4.86783 -2.64749 -2.20769 0
M  V30 41 H -0.950947 0.340596 -7.51601 0
M  V30 42 H -1.84559 2.42732 -4.56219 0
M  V30 43 H -2.94277 1.01029 -4.98237 0
M  V30 44 H -1.13226 0.137344 -3.02594 0
M  V30 45 H -2.79854 -0.264249 -0.828459 0
M  V30 46 H -3.88822 2.46608 -0.0372973 0
M  V30 47 H -6.48973 1.76202 0.531818 0
M  V30 48 H -5.50211 1.78866 2.04596 0
M  V30 49 H -6.15847 -0.61149 2.42905 0
M  V30 50 H -7.16381 -0.538292 0.925634 0
M  V30 51 H -8.53178 -0.3455 2.83657 0
M  V30 52 H -9.51264 2.94904 2.98919 0
M  V30 53 H -7.71984 0.674003 4.63299 0
M  V30 54 H -6.65594 1.6851 3.71232 0
M  V30 55 H -1.43808 2.35003 0.0316986 0
M  V30 56 H -1.57809 0.770714 0.914676 0
M  V30 57 H 0.568197 -1.44142 1.70429 0
M  V30 58 H 1.09921 -3.01083 0.89482 0
M  V30 59 H 2.48668 -0.256755 0.976043 0
M  V30 60 H 1.67927 -1.12121 3.52476 0
M  V30 61 H 3.30847 -3.10451 4.84729 0
M  V30 62 H 2.55354 -1.70854 5.60968 0
M  V30 63 H 6.15179 -2.04918 6.22907 0
M  V30 64 H 3.56207 -2.74275 -0.328327 0
M  V30 65 H 4.36421 -0.841406 -3.05657 0
M  V30 66 H 6.72761 -1.04094 -3.08464 0
M  V30 67 H 6.89349 -1.07495 -1.31881 0
M  V30 68 H 5.7968 1.2733 -2.99659 0
M  V30 69 H 6.00068 1.22535 -1.18387 0
M  V30 70 H 7.96163 3.2283 -1.52493 0
M  V30 71 H 5.50655 -2.89881 -2.99911 0
M  V30 72 H 3.90378 -2.9124 -2.55105 0
M  V30 END ATOM
M  V30 BEGIN BOND
M  V30 1 1 1 2
M  V30 2 2 2 3
M  V30 3 1 2 4
M  V30 4 1 4 5
M  V30 5 1 5 6
M  V30 6 2 6 7
M  V30 7 1 6 8
M  V30 8 1 8 9
M  V30 9 1 9 10
M  V30 10 2 10 11
M  V30 11 1 10 12
M  V30 12 1 12 13
M  V30 13 1 13 14
M  V30 14 1 14 15
M  V30 15 2 15 16
M  V30 16 1 15 17
M  V30 17 1 14 18
M  V30 18 1 8 19
M  V30 19 1 19 20
M  V30 20 1 20 21
M  V30 21 1 21 22
M  V30 22 1 22 23
M  V30 23 1 23 24
M  V30 24 2 24 25
M  V30 25 1 24 26
M  V30 26 1 26 27
M  V30 27 1 27 28
M  V30 28 2 28 29
M  V30 29 1 28 30
M  V30 30 1 23 31
M  V30 31 1 31 32
M  V30 32 2 32 33
M  V30 33 1 32 34
M  V30 34 1 34 35
M  V30 35 1 35 36
M  V30 36 1 36 37
M  V30 37 2 37 38
M  V30 38 1 37 39
M  V30 39 1 34 40
M  V30 40 1 1 41
M  V30 41 1 4 42
M  V30 42 1 4 43
M  V30 43 1 5 44
M  V30 44 1 8 45 CFG=3
M  V30 45 1 9 46
M  V30 46 1 12 47
M  V30 47 1 12 48
M  V30 48 1 13 49
M  V30 49 1 13 50
M  V30 50 1 14 51 CFG=1
M  V30 51 1 17 52
M  V30 52 1 18 53
M  V30 53 1 18 54
M  V30 54 1 19 55
M  V30 55 1 19 56
M  V30 56 1 22 57
M  V30 57 1 22 58
M  V30 58 1 23 59 CFG=1
M  V30 59 1 26 60
M  V30 60 1 27 61
M  V30 61 1 27 62
M  V30 62 1 30 63
M  V30 63 1 31 64
M  V30 64 1 34 65 CFG=3
M  V30 65 1 35 66
M  V30 66 1 35 67
M  V30 67 1 36 68
M  V30 68 1 36 69
M  V30 69 1 39 70
M  V30 70 1 40 71
M  V30 71 1 40 72
M  V30 END BOND
M  V30 END CTAB
M  END
