
     RDKit          3D

  0  0  0  0  0  0  0  0  0  0999 V3000
M  V30 BEGIN CTAB
M  V30 COUNTS 36 37 0 0 0
M  V30 BEGIN ATOM
M  V30 1 N 7.58052 -0.644214 -0.28464 0
M  V30 2 C 6.18369 -0.455195 -0.147216 0
M  V30 3 C 5.28391 -1.04064 -1.00675 0
M  V30 4 C 3.91653 -0.877513 -0.901616 0
M  V30 5 C 3.40307 -0.0943395 0.105627 0
M  V30 6 C 4.30942 0.514761 0.997418 0
M  V30 7 C 5.65639 0.330548 0.862323 0
M  V30 8 Cl 3.67667 1.52739 2.30233 0
M  V30 9 N 2.03755 0.147017 0.31576 0
M  V30 10 C 0.951869 -0.335175 -0.420448 0
M  V30 11 O 1.02547 -1.0759 -1.4069 0
M  V30 12 C -0.454495 0.0607939 -0.00656138 0
M  V30 13 O -0.519822 0.798705 0.976819 0
M  V30 14 N -1.51367 -0.43055 -0.752496 0
M  V30 15 C -2.87913 -0.354528 -0.782742 0
M  V30 16 O -3.37527 -0.880019 -1.91009 0
M  V30 17 C -3.84914 0.163118 0.128331 0
M  V30 18 C -3.64666 0.518272 1.42938 0
M  V30 19 C -4.70395 0.942275 2.26023 0
M  V30 20 C -5.98736 1.01667 1.80294 0
M  V30 21 C -6.22766 0.665171 0.500138 0
M  V30 22 C -5.19921 0.255954 -0.301398 0
M  V30 23 N -5.4586 -0.0984596 -1.6579 0
M  V30 24 H 8.21614 0.156915 -0.20335 0
M  V30 25 H 7.93912 -1.59652 -0.466443 0
M  V30 26 H 5.64637 -1.66374 -1.81198 0
M  V30 27 H 3.25102 -1.35967 -1.60325 0
M  V30 28 H 6.33203 0.815369 1.56837 0
M  V30 29 H 1.77217 0.774611 1.13468 0
M  V30 30 H -1.08313 -1.04028 -1.63108 0
M  V30 31 H -2.68098 0.444694 1.87929 0
M  V30 32 H -4.46283 1.21269 3.29299 0
M  V30 33 H -6.78299 1.34693 2.46714 0
M  V30 34 H -7.24527 0.72509 0.143537 0
M  V30 35 H -5.82716 -1.04503 -1.85312 0
M  V30 36 H -5.28461 0.5748 -2.43827 0
M  V30 END ATOM
M  V30 BEGIN BOND
M  V30 1 1 1 2
M  V30 2 2 2 3
M  V30 3 1 3 4
M  V30 4 2 4 5
M  V30 5 1 5 6
M  V30 6 2 6 7
M  V30 7 1 6 8
M  V30 8 1 5 9
M  V30 9 1 9 10
M  V30 10 2 10 11
M  V30 11 1 10 12
M  V30 12 2 12 13
M  V30 13 1 12 14
M  V30 14 1 14 15
M  V30 15 2 15 16
M  V30 16 1 15 17
M  V30 17 2 17 18
M  V30 18 1 18 19
M  V30 19 2 19 20
M  V30 20 1 20 21
M  V30 21 2 21 22
M  V30 22 1 22 23
M  V30 23 1 7 2
M  V30 24 1 22 17
M  V30 25 1 1 24
M  V30 26 1 1 25
M  V30 27 1 3 26
M  V30 28 1 4 27
M  V30 29 1 7 28
M  V30 30 1 9 29
M  V30 31 1 14 30
M  V30 32 1 18 31
M  V30 33 1 19 32
M  V30 34 1 20 33
M  V30 35 1 21 34
M  V30 36 1 23 35
M  V30 37 1 23 36
M  V30 END BOND
M  V30 END CTAB
M  END
