
     RDKit          3D

  0  0  0  0  0  0  0  0  0  0999 V3000
M  V30 BEGIN CTAB
M  V30 COUNTS 58 61 0 0 0
M  V30 BEGIN ATOM
M  V30 1 C 8.21034 -1.82658 1.11973 0
M  V30 2 C 7.96873 -0.610838 0.281034 0
M  V30 3 O 6.59669 -0.348065 0.0703335 0
M  V30 4 C 5.80421 -1.27784 -0.556488 0
M  V30 5 O 6.3439 -2.35637 -0.929024 0
M  V30 6 C 4.35472 -1.05218 -0.802543 0
M  V30 7 C 3.6322 -2.04393 -1.43681 0
M  V30 8 N 4.06719 -3.30888 -1.9244 0
M  V30 9 S 2.0618 -1.38566 -1.50159 0
M  V30 10 C 2.34325 0.102163 -0.740384 0
M  V30 11 C 3.68939 0.0579955 -0.442316 0
M  V30 12 C 4.14316 1.33079 0.260531 0
M  V30 13 C 3.56121 2.49058 -0.567048 0
M  V30 14 C 2.08165 2.63228 -0.182607 0
M  V30 15 C 1.50979 1.27696 -0.383823 0
M  V30 16 N 0.246776 1.05085 -0.257102 0
M  V30 17 N -0.545613 2.15209 0.078624 0
M  V30 18 C -1.79183 1.95029 0.30752 0
M  V30 19 C -2.67278 3.11491 0.671499 0
M  V30 20 C -3.86283 2.46672 1.34947 0
M  V30 21 C -4.5156 1.54374 0.325417 0
M  V30 22 C -3.67012 0.285098 0.196838 0
M  V30 23 C -2.32683 0.578933 0.206681 0
M  V30 24 S -1.58912 -0.94765 0.0677519 0
M  V30 25 C -2.97863 -1.9206 -0.000647672 0
M  V30 26 C -4.0098 -1.00746 0.0887611 0
M  V30 27 C -5.38904 -1.54314 0.0445447 0
M  V30 28 O -5.65453 -2.75819 -0.0625482 0
M  V30 29 O -6.44073 -0.667115 0.123346 0
M  V30 30 C -7.7786 -1.12118 0.0848776 0
M  V30 31 C -8.68075 0.111419 0.195 0
M  V30 32 N -3.024 -3.35354 -0.122819 0
M  V30 33 H 7.3533 -2.04315 1.78702 0
M  V30 34 H 8.42935 -2.72039 0.508141 0
M  V30 35 H 9.09827 -1.67471 1.78479 0
M  V30 36 H 8.41836 -0.781149 -0.733811 0
M  V30 37 H 8.46452 0.298221 0.674271 0
M  V30 38 H 4.27714 -3.40631 -2.92327 0
M  V30 39 H 4.16026 -4.09101 -1.26775 0
M  V30 40 H 3.62758 1.39537 1.24934 0
M  V30 41 H 5.21275 1.44213 0.319459 0
M  V30 42 H 4.11767 3.41844 -0.41258 0
M  V30 43 H 3.6725 2.19087 -1.62473 0
M  V30 44 H 2.07288 2.95344 0.862416 0
M  V30 45 H 1.66132 3.3814 -0.874437 0
M  V30 46 H -2.14419 3.82106 1.32861 0
M  V30 47 H -3.02165 3.58377 -0.271663 0
M  V30 48 H -3.49629 1.84823 2.17477 0
M  V30 49 H -4.59124 3.22317 1.64745 0
M  V30 50 H -4.59768 1.99282 -0.663441 0
M  V30 51 H -5.51364 1.33826 0.743807 0
M  V30 52 H -8.01512 -1.59591 -0.91052 0
M  V30 53 H -8.04706 -1.78507 0.9132 0
M  V30 54 H -8.17625 0.91684 0.751149 0
M  V30 55 H -8.90224 0.521967 -0.826852 0
M  V30 56 H -9.65372 -0.133572 0.651262 0
M  V30 57 H -2.7384 -3.97703 0.665511 0
M  V30 58 H -3.35262 -3.73329 -1.02761 0
M  V30 END ATOM
M  V30 BEGIN BOND
M  V30 1 1 1 2
M  V30 2 1 2 3
M  V30 3 1 3 4
M  V30 4 2 4 5
M  V30 5 1 4 6
M  V30 6 2 6 7
M  V30 7 1 7 8
M  V30 8 1 7 9
M  V30 9 1 9 10
M  V30 10 2 10 11
M  V30 11 1 11 12
M  V30 12 1 12 13
M  V30 13 1 13 14
M  V30 14 1 14 15
M  V30 15 2 15 16
M  V30 16 1 16 17
M  V30 17 2 17 18
M  V30 18 1 18 19
M  V30 19 1 19 20
M  V30 20 1 20 21
M  V30 21 1 21 22
M  V30 22 2 22 23
M  V30 23 1 23 24
M  V30 24 1 24 25
M  V30 25 2 25 26
M  V30 26 1 26 27
M  V30 27 2 27 28
M  V30 28 1 27 29
M  V30 29 1 29 30
M  V30 30 1 30 31
M  V30 31 1 25 32
M  V30 32 1 11 6
M  V30 33 1 18 23
M  V30 34 1 15 10
M  V30 35 1 26 22
M  V30 36 1 1 33
M  V30 37 1 1 34
M  V30 38 1 1 35
M  V30 39 1 2 36
M  V30 40 1 2 37
M  V30 41 1 8 38
M  V30 42 1 8 39
M  V30 43 1 12 40
M  V30 44 1 12 41
M  V30 45 1 13 42
M  V30 46 1 13 43
M  V30 47 1 14 44
M  V30 48 1 14 45
M  V30 49 1 19 46
M  V30 50 1 19 47
M  V30 51 1 20 48
M  V30 52 1 20 49
M  V30 53 1 21 50
M  V30 54 1 21 51
M  V30 55 1 30 52
M  V30 56 1 30 53
M  V30 57 1 31 54
M  V30 58 1 31 55
M  V30 59 1 31 56
M  V30 60 1 32 57
M  V30 61 1 32 58
M  V30 END BOND
M  V30 END CTAB
M  END
