
     RDKit          3D

  0  0  0  0  0  0  0  0  0  0999 V3000
M  V30 BEGIN CTAB
M  V30 COUNTS 53 56 0 0 0
M  V30 BEGIN ATOM
M  V30 1 C -5.85841 0.563298 -1.4677 0
M  V30 2 O -4.74458 1.07347 -0.815478 0
M  V30 3 C -3.76085 1.83955 -1.40486 0
M  V30 4 C -3.83268 2.16561 -2.7325 0
M  V30 5 C -2.83882 2.95218 -3.35629 0
M  V30 6 C -1.79383 3.38858 -2.61292 0
M  V30 7 C -1.7437 3.04312 -1.26643 0
M  V30 8 C -2.67178 2.29357 -0.633276 0
M  V30 9 C -2.64554 1.89854 0.784056 0
M  V30 10 C -1.44655 2.41784 1.50744 0
M  V30 11 C -0.201752 1.62172 1.36395 0
M  V30 12 N -0.491792 0.222287 1.52081 0
M  V30 13 C -1.8217 -0.142758 1.96065 0
M  V30 14 C -2.8777 0.4315 1.03779 0
M  V30 15 C 0.477907 -0.800194 1.2426 0
M  V30 16 C 1.65851 -0.5527 0.623394 0
M  V30 17 C 2.57002 -1.55352 0.381097 0
M  V30 18 N 2.25102 -2.80873 0.783072 0
M  V30 19 C 1.07759 -3.09822 1.40693 0
M  V30 20 N 0.231326 -2.06582 1.61151 0
M  V30 21 N 0.763544 -4.41768 1.81369 0
M  V30 22 C 3.86339 -1.29368 -0.310693 0
M  V30 23 C 5.01667 -1.32738 0.705968 0
M  V30 24 C 5.66462 -2.45257 -0.0466578 0
M  V30 25 C 4.49784 -2.43683 -1.01622 0
M  V30 26 N 6.93636 -2.10176 -0.650471 0
M  V30 27 H -6.81247 0.738959 -0.876116 0
M  V30 28 H -6.07093 0.981597 -2.45736 0
M  V30 29 H -5.82018 -0.561649 -1.53126 0
M  V30 30 H -4.63291 1.84585 -3.38458 0
M  V30 31 H -2.91551 3.19426 -4.39509 0
M  V30 32 H -1.01365 3.99672 -3.05554 0
M  V30 33 H -0.901096 3.42746 -0.733807 0
M  V30 34 H -3.52346 2.43195 1.2639 0
M  V30 35 H -1.70507 2.42895 2.61155 0
M  V30 36 H -1.33082 3.48509 1.23211 0
M  V30 37 H 0.533411 1.98314 2.12153 0
M  V30 38 H 0.286808 1.74467 0.363736 0
M  V30 39 H -2.01112 0.237251 2.98326 0
M  V30 40 H -1.86576 -1.24454 2.01336 0
M  V30 41 H -3.86164 0.235741 1.47806 0
M  V30 42 H -2.81845 -0.0962438 0.0699443 0
M  V30 43 H 1.9045 0.445467 0.308306 0
M  V30 44 H 1.02174 -4.72725 2.75866 0
M  V30 45 H 0.281324 -5.0559 1.16861 0
M  V30 46 H 3.8377 -0.318963 -0.850992 0
M  V30 47 H 4.69399 -1.633 1.72118 0
M  V30 48 H 5.61382 -0.369032 0.668975 0
M  V30 49 H 5.78986 -3.39044 0.52003 0
M  V30 50 H 4.88134 -2.2385 -2.04714 0
M  V30 51 H 3.96176 -3.41167 -0.944421 0
M  V30 52 H 6.75178 -1.49011 -1.47686 0
M  V30 53 H 7.44595 -1.49924 0.0404898 0
M  V30 END ATOM
M  V30 BEGIN BOND
M  V30 1 1 1 2
M  V30 2 1 2 3
M  V30 3 2 3 4
M  V30 4 1 4 5
M  V30 5 2 5 6
M  V30 6 1 6 7
M  V30 7 2 7 8
M  V30 8 1 8 9
M  V30 9 1 9 10
M  V30 10 1 10 11
M  V30 11 1 11 12
M  V30 12 1 12 13
M  V30 13 1 13 14
M  V30 14 1 12 15
M  V30 15 2 15 16
M  V30 16 1 16 17
M  V30 17 2 17 18
M  V30 18 1 18 19
M  V30 19 2 19 20
M  V30 20 1 19 21
M  V30 21 1 17 22
M  V30 22 1 22 23
M  V30 23 1 23 24
M  V30 24 1 24 25
M  V30 25 1 24 26
M  V30 26 1 8 3
M  V30 27 1 14 9
M  V30 28 1 20 15
M  V30 29 1 25 22
M  V30 30 1 1 27
M  V30 31 1 1 28
M  V30 32 1 1 29
M  V30 33 1 4 30
M  V30 34 1 5 31
M  V30 35 1 6 32
M  V30 36 1 7 33
M  V30 37 1 9 34
M  V30 38 1 10 35
M  V30 39 1 10 36
M  V30 40 1 11 37
M  V30 41 1 11 38
M  V30 42 1 13 39
M  V30 43 1 13 40
M  V30 44 1 14 41
M  V30 45 1 14 42
M  V30 46 1 16 43
M  V30 47 1 21 44
M  V30 48 1 21 45
M  V30 49 1 22 46
M  V30 50 1 23 47
M  V30 51 1 23 48
M  V30 52 1 24 49
M  V30 53 1 25 50
M  V30 54 1 25 51
M  V30 55 1 26 52
M  V30 56 1 26 53
M  V30 END BOND
M  V30 END CTAB
M  END
