
     RDKit          3D

  0  0  0  0  0  0  0  0  0  0999 V3000
M  V30 BEGIN CTAB
M  V30 COUNTS 34 36 0 0 0
M  V30 BEGIN ATOM
M  V30 1 O -3.56705 2.38895 -0.339047 0
M  V30 2 C -2.42416 2.01837 -0.528304 0
M  V30 3 C -2.16955 0.574221 -0.829501 0 CFG=1
M  V30 4 O -0.807423 0.359834 -1.01191 0
M  V30 5 C -0.61932 -0.995723 -0.754863 0 CFG=2
M  V30 6 C -1.38937 -1.14522 0.563177 0
M  V30 7 C -2.66532 -0.385989 0.175181 0 CFG=1
M  V30 8 N -3.3437 0.1602 1.29435 0
M  V30 9 O -1.64742 -2.46016 0.862333 0
M  V30 10 N 0.750573 -1.35766 -0.613212 0
M  V30 11 C 1.19759 -2.6402 -0.755375 0
M  V30 12 N 2.52443 -2.64647 -0.562474 0
M  V30 13 C 2.90584 -1.39574 -0.30438 0
M  V30 14 C 1.79853 -0.580636 -0.334344 0
M  V30 15 N 1.86379 0.750252 -0.109488 0
M  V30 16 C 3.07871 1.28745 0.154982 0
M  V30 17 N 3.25171 2.68221 0.40591 0
M  V30 18 N 4.19058 0.518995 0.193153 0
M  V30 19 C 4.12373 -0.80676 -0.0311009 0
M  V30 20 O 5.13272 -1.55617 -0.0048824 0
M  V30 21 H -4.16042 2.58343 0.0558772 0
M  V30 22 H -1.82484 2.27269 0.395906 0
M  V30 23 H -1.97983 2.64568 -1.32927 0
M  V30 24 H -2.65439 0.336731 -1.81359 0
M  V30 25 H -1.15024 -1.58712 -1.50416 0
M  V30 26 H -0.860999 -0.624848 1.38634 0
M  V30 27 H -3.33285 -1.17778 -0.274792 0
M  V30 28 H -4.37257 0.237804 1.03632 0
M  V30 29 H -3.31906 -0.48782 2.10842 0
M  V30 30 H -0.877076 -2.81061 1.37374 0
M  V30 31 H 0.574672 -3.50538 -0.986399 0
M  V30 32 H 4.06755 3.2167 0.0283817 0
M  V30 33 H 2.56943 3.21475 0.974652 0
M  V30 34 H 5.13574 0.916014 0.395525 0
M  V30 END ATOM
M  V30 BEGIN BOND
M  V30 1 1 1 2
M  V30 2 1 2 3
M  V30 3 1 3 4
M  V30 4 1 4 5
M  V30 5 1 5 6
M  V30 6 1 6 7
M  V30 7 1 7 8
M  V30 8 1 6 9
M  V30 9 1 5 10
M  V30 10 1 10 11
M  V30 11 2 11 12
M  V30 12 1 12 13
M  V30 13 2 13 14
M  V30 14 1 14 15
M  V30 15 2 15 16
M  V30 16 1 16 17
M  V30 17 1 16 18
M  V30 18 1 18 19
M  V30 19 2 19 20
M  V30 20 1 7 3
M  V30 21 1 14 10
M  V30 22 1 19 13
M  V30 23 1 1 21
M  V30 24 1 2 22
M  V30 25 1 2 23
M  V30 26 1 3 24 CFG=3
M  V30 27 1 5 25 CFG=3
M  V30 28 1 6 26
M  V30 29 1 7 27 CFG=3
M  V30 30 1 8 28
M  V30 31 1 8 29
M  V30 32 1 9 30
M  V30 33 1 11 31
M  V30 34 1 17 32
M  V30 35 1 17 33
M  V30 36 1 18 34
M  V30 END BOND
M  V30 END CTAB
M  END
