
     RDKit          3D

  0  0  0  0  0  0  0  0  0  0999 V3000
M  V30 BEGIN CTAB
M  V30 COUNTS 26 26 0 0 0
M  V30 BEGIN ATOM
M  V30 1 C -3.30442 0.811202 0.637143 0
M  V30 2 N -2.05421 0.310054 0.143311 0
M  V30 3 C -1.49417 -0.747255 0.930909 0
M  V30 4 C -0.179537 -1.19576 0.338784 0
M  V30 5 C 0.809656 -0.0895983 0.293544 0
M  V30 6 N 0.691471 1.18404 0.692956 0
M  V30 7 N 1.8156 1.8446 0.474469 0
M  V30 8 C 2.68995 0.9786 -0.0822339 0
M  V30 9 N 2.05719 -0.215067 -0.189572 0
M  V30 10 N 2.65073 -1.34329 -0.719017 0
M  V30 11 N 4.01963 1.30624 -0.467959 0
M  V30 12 C -2.02943 0.0850449 -1.26567 0
M  V30 13 H -4.14751 0.111536 0.541108 0
M  V30 14 H -3.15034 1.03428 1.73213 0
M  V30 15 H -3.5253 1.79439 0.176307 0
M  V30 16 H -1.26366 -0.315929 1.94305 0
M  V30 17 H -2.14737 -1.60377 1.08628 0
M  V30 18 H 0.216295 -2.01247 0.996832 0
M  V30 19 H -0.378739 -1.58099 -0.675511 0
M  V30 20 H 2.62674 -2.25601 -0.253814 0
M  V30 21 H 3.14877 -1.25564 -1.64282 0
M  V30 22 H 4.86676 0.814638 -0.114594 0
M  V30 23 H 4.17327 2.08626 -1.14746 0
M  V30 24 H -1.11896 0.568139 -1.67549 0
M  V30 25 H -2.08574 -0.947048 -1.59084 0
M  V30 26 H -2.88668 0.633795 -1.71169 0
M  V30 END ATOM
M  V30 BEGIN BOND
M  V30 1 1 1 2
M  V30 2 1 2 3
M  V30 3 1 3 4
M  V30 4 1 4 5
M  V30 5 2 5 6
M  V30 6 1 6 7
M  V30 7 2 7 8
M  V30 8 1 8 9
M  V30 9 1 9 10
M  V30 10 1 8 11
M  V30 11 1 2 12
M  V30 12 1 9 5
M  V30 13 1 1 13
M  V30 14 1 1 14
M  V30 15 1 1 15
M  V30 16 1 3 16
M  V30 17 1 3 17
M  V30 18 1 4 18
M  V30 19 1 4 19
M  V30 20 1 10 20
M  V30 21 1 10 21
M  V30 22 1 11 22
M  V30 23 1 11 23
M  V30 24 1 12 24
M  V30 25 1 12 25
M  V30 26 1 12 26
M  V30 END BOND
M  V30 END CTAB
M  END
