
     RDKit          3D

  0  0  0  0  0  0  0  0  0  0999 V3000
M  V30 BEGIN CTAB
M  V30 COUNTS 72 71 0 0 0
M  V30 BEGIN ATOM
M  V30 1 O -4.76711 -1.27912 -0.994796 0
M  V30 2 C -4.75822 -0.746058 -0.0678887 0
M  V30 3 N -3.66521 0.0484697 0.142192 0
M  V30 4 C -2.51262 0.1135 -0.797718 0 CFG=1
M  V30 5 C -2.88878 0.875352 -1.93133 0
M  V30 6 O -2.65931 0.313004 -3.10916 0
M  V30 7 N -3.51516 2.15573 -1.92878 0
M  V30 8 C -4.09294 3.34286 -2.11324 0
M  V30 9 C -4.3934 4.06961 -0.829885 0
M  V30 10 O -4.05798 3.56439 0.284759 0
M  V30 11 O -5.02001 5.26895 -0.846403 0
M  V30 12 C -1.31921 0.233266 0.0159827 0
M  V30 13 S 0.262073 0.0693215 -0.899815 0
M  V30 14 S 0.900023 -1.98699 -0.477774 0
M  V30 15 C 2.05592 -1.7726 0.982491 0
M  V30 16 C 3.38377 -1.52218 0.327973 0 CFG=2
M  V30 17 C 3.73852 -2.76807 -0.492552 0
M  V30 18 O 4.31411 -3.66843 0.216269 0
M  V30 19 N 3.44755 -2.83702 -1.84017 0
M  V30 20 C 3.73495 -4.04392 -2.57496 0
M  V30 21 C 5.17236 -4.4378 -2.47552 0
M  V30 22 O 6.11509 -3.68722 -2.30074 0
M  V30 23 O 5.46977 -5.85756 -2.61323 0
M  V30 24 N 4.47886 -1.12479 1.05433 0
M  V30 25 C 5.55259 -0.763765 1.81776 0
M  V30 26 O 5.92041 -1.12099 2.96414 0
M  V30 27 C 6.45518 0.293262 1.11549 0
M  V30 28 C 6.57424 1.48349 1.94161 0
M  V30 29 C 7.46892 2.47755 1.23118 0 CFG=1
M  V30 30 C 7.00255 2.80406 -0.144919 0
M  V30 31 O 7.27432 2.10117 -1.0972 0
M  V30 32 O 6.20364 3.88885 -0.344771 0
M  V30 33 N 7.28116 3.71688 2.03832 0
M  V30 34 C -5.92848 -0.951275 0.766808 0
M  V30 35 C -7.07993 -0.161292 0.149519 0
M  V30 36 C -8.32135 -0.520543 0.914119 0 CFG=2
M  V30 37 C -8.24964 -0.323494 2.36233 0
M  V30 38 O -8.56922 -1.32229 3.16525 0
M  V30 39 O -7.8504 0.884985 2.93845 0
M  V30 40 N -8.78773 -1.87025 0.56171 0
M  V30 41 H -3.56697 0.649174 1.02249 0
M  V30 42 H -2.54208 -1.01604 -1.18683 0
M  V30 43 H -3.28641 2.18229 -3.30597 0
M  V30 44 H -3.58079 4.10892 -2.74603 0
M  V30 45 H -5.14036 3.30923 -2.65323 0
M  V30 46 H -4.6269 6.17048 -0.942115 0
M  V30 47 H -1.24359 0.983119 0.787073 0
M  V30 48 H -1.33438 -0.806631 0.590778 0
M  V30 49 H 1.64148 -0.824922 1.48275 0
M  V30 50 H 1.97111 -2.5889 1.70101 0
M  V30 51 H 3.10718 -0.690549 -0.436069 0
M  V30 52 H 2.99111 -2.04097 -2.3447 0
M  V30 53 H 3.12255 -4.91629 -2.19306 0
M  V30 54 H 3.41179 -3.89242 -3.6097 0
M  V30 55 H 4.79756 -6.57797 -2.21621 0
M  V30 56 H 4.10813 -2.02251 2.04263 0
M  V30 57 H 7.36993 -0.270089 0.93277 0
M  V30 58 H 5.98723 0.47652 0.0907028 0
M  V30 59 H 5.63286 1.89992 2.26966 0
M  V30 60 H 7.16365 1.21727 2.85377 0
M  V30 61 H 8.54691 2.24501 1.29243 0
M  V30 62 H 6.66593 4.71274 -0.768774 0
M  V30 63 H 6.64541 3.56195 2.85768 0
M  V30 64 H 6.84809 4.48447 1.42381 0
M  V30 65 H -6.18345 -2.03504 0.892885 0
M  V30 66 H -5.66242 -0.521565 1.83661 0
M  V30 67 H -6.93786 0.89345 0.233592 0
M  V30 68 H -7.1597 -0.497722 -0.881418 0
M  V30 69 H -9.12868 0.207649 0.445778 0
M  V30 70 H -6.84847 1.17754 2.96883 0
M  V30 71 H -8.095 -2.59137 0.886417 0
M  V30 72 H -9.04313 -1.92578 -0.43739 0
M  V30 END ATOM
M  V30 BEGIN BOND
M  V30 1 2 1 2
M  V30 2 1 2 3
M  V30 3 1 3 4
M  V30 4 1 4 5
M  V30 5 2 5 6
M  V30 6 1 5 7
M  V30 7 1 7 8
M  V30 8 1 8 9
M  V30 9 2 9 10
M  V30 10 1 9 11
M  V30 11 1 4 12
M  V30 12 1 12 13
M  V30 13 1 13 14
M  V30 14 1 14 15
M  V30 15 1 15 16
M  V30 16 1 16 17
M  V30 17 2 17 18
M  V30 18 1 17 19
M  V30 19 1 19 20
M  V30 20 1 20 21
M  V30 21 2 21 22
M  V30 22 1 21 23
M  V30 23 1 16 24
M  V30 24 1 24 25
M  V30 25 2 25 26
M  V30 26 1 25 27
M  V30 27 1 27 28
M  V30 28 1 28 29
M  V30 29 1 29 30
M  V30 30 2 30 31
M  V30 31 1 30 32
M  V30 32 1 29 33
M  V30 33 1 2 34
M  V30 34 1 34 35
M  V30 35 1 35 36
M  V30 36 1 36 37
M  V30 37 2 37 38
M  V30 38 1 37 39
M  V30 39 1 36 40
M  V30 40 1 3 41
M  V30 41 1 4 42 CFG=3
M  V30 42 1 7 43
M  V30 43 1 8 44
M  V30 44 1 8 45
M  V30 45 1 11 46
M  V30 46 1 12 47
M  V30 47 1 12 48
M  V30 48 1 15 49
M  V30 49 1 15 50
M  V30 50 1 16 51 CFG=3
M  V30 51 1 19 52
M  V30 52 1 20 53
M  V30 53 1 20 54
M  V30 54 1 23 55
M  V30 55 1 24 56
M  V30 56 1 27 57
M  V30 57 1 27 58
M  V30 58 1 28 59
M  V30 59 1 28 60
M  V30 60 1 29 61 CFG=3
M  V30 61 1 32 62
M  V30 62 1 33 63
M  V30 63 1 33 64
M  V30 64 1 34 65
M  V30 65 1 34 66
M  V30 66 1 35 67
M  V30 67 1 35 68
M  V30 68 1 36 69 CFG=3
M  V30 69 1 39 70
M  V30 70 1 40 71
M  V30 71 1 40 72
M  V30 END BOND
M  V30 END CTAB
M  END
