
     RDKit          3D

  0  0  0  0  0  0  0  0  0  0999 V3000
M  V30 BEGIN CTAB
M  V30 COUNTS 28 28 0 0 0
M  V30 BEGIN ATOM
M  V30 1 C 3.49654 1.70654 0.285992 0
M  V30 2 O 3.531 0.294483 0.204156 0
M  V30 3 C 2.39111 -0.471988 0.156451 0
M  V30 4 C 1.16767 0.124168 0.187434 0
M  V30 5 C 0.0347989 -0.647343 0.139452 0
M  V30 6 N -1.24193 -0.0543657 0.170085 0
M  V30 7 C -1.45179 1.37641 0.252284 0
M  V30 8 C -2.93431 1.70213 0.266836 0
M  V30 9 N -3.49795 1.19548 -0.952196 0
M  V30 10 C 0.181277 -2.0153 0.0606305 0
M  V30 11 C 1.41556 -2.63434 0.0283481 0
M  V30 12 C 2.53313 -1.84293 0.0774392 0
M  V30 13 F 3.74973 -2.43676 0.046559 0
M  V30 14 N -0.962764 -2.85882 0.0084606 0
M  V30 15 H 4.47233 2.1386 0.547675 0
M  V30 16 H 3.18817 2.14697 -0.683434 0
M  V30 17 H 2.71301 2.01644 1.03533 0
M  V30 18 H 1.01796 1.20087 0.249281 0
M  V30 19 H -2.08118 -0.669696 0.132053 0
M  V30 20 H -0.957483 1.8027 1.14734 0
M  V30 21 H -1.02943 1.83716 -0.648874 0
M  V30 22 H -3.35117 1.19755 1.17435 0
M  V30 23 H -3.09871 2.79255 0.371588 0
M  V30 24 H -3.91358 0.259852 -0.888597 0
M  V30 25 H -4.05345 1.89001 -1.48258 0
M  V30 26 H 1.48489 -3.70713 -0.0335977 0
M  V30 27 H -1.58857 -2.89637 0.829463 0
M  V30 28 H -1.21486 -3.44688 -0.809116 0
M  V30 END ATOM
M  V30 BEGIN BOND
M  V30 1 1 1 2
M  V30 2 1 2 3
M  V30 3 2 3 4
M  V30 4 1 4 5
M  V30 5 1 5 6
M  V30 6 1 6 7
M  V30 7 1 7 8
M  V30 8 1 8 9
M  V30 9 2 5 10
M  V30 10 1 10 11
M  V30 11 2 11 12
M  V30 12 1 12 13
M  V30 13 1 10 14
M  V30 14 1 12 3
M  V30 15 1 1 15
M  V30 16 1 1 16
M  V30 17 1 1 17
M  V30 18 1 4 18
M  V30 19 1 6 19
M  V30 20 1 7 20
M  V30 21 1 7 21
M  V30 22 1 8 22
M  V30 23 1 8 23
M  V30 24 1 9 24
M  V30 25 1 9 25
M  V30 26 1 11 26
M  V30 27 1 14 27
M  V30 28 1 14 28
M  V30 END BOND
M  V30 END CTAB
M  END
