
     RDKit          3D

  0  0  0  0  0  0  0  0  0  0999 V3000
M  V30 BEGIN CTAB
M  V30 COUNTS 52 55 0 0 0
M  V30 BEGIN ATOM
M  V30 1 N 4.82848 3.6738 -2.18761 0
M  V30 2 C 4.41926 2.33296 -2.00453 0
M  V30 3 C 5.22322 1.39417 -1.41758 0
M  V30 4 C 4.74531 0.111896 -1.27891 0
M  V30 5 C 3.48524 -0.27465 -1.7066 0
M  V30 6 C 2.67062 0.680132 -2.30228 0
M  V30 7 C 3.16601 1.95779 -2.43237 0
M  V30 8 S 2.91616 -1.91415 -1.55049 0
M  V30 9 O 4.08983 -2.80852 -1.92701 0
M  V30 10 O 1.88596 -2.16443 -2.62513 0
M  V30 11 N 2.35885 -2.32499 -0.0105082 0
M  V30 12 C 1.28142 -1.75844 0.709131 0
M  V30 13 C 1.12184 -0.42553 0.981663 0
M  V30 14 C 0.0450526 0.0592011 1.71401 0
M  V30 15 C -0.926879 -0.770955 2.21094 0
M  V30 16 N -2.01206 -0.286166 2.97234 0
M  V30 17 S -2.61751 1.28779 2.78259 0
M  V30 18 O -3.80042 1.53627 3.72559 0
M  V30 19 O -1.56318 2.28755 3.14818 0
M  V30 20 C -3.23827 1.62117 1.18067 0
M  V30 21 C -2.43338 2.22805 0.272199 0
M  V30 22 C -2.8986 2.50239 -1.01956 0
M  V30 23 C -4.17818 2.16973 -1.41181 0
M  V30 24 N -4.67006 2.43896 -2.71712 0
M  V30 25 C -4.9662 1.55484 -0.461366 0
M  V30 26 C -4.52408 1.27875 0.810586 0
M  V30 27 C -0.782598 -2.13827 1.94377 0
M  V30 28 C -1.73373 -3.02794 2.41415 0
M  V30 29 C -1.60021 -4.37956 2.15063 0
M  V30 30 C -0.541831 -4.84291 1.43255 0
M  V30 31 C 0.413465 -3.94664 0.960081 0
M  V30 32 C 0.290674 -2.60917 1.21514 0
M  V30 33 H 4.82865 4.35635 -1.40112 0
M  V30 34 H 5.13511 3.98051 -3.12968 0
M  V30 35 H 6.21845 1.65957 -1.0692 0
M  V30 36 H 5.38828 -0.630613 -0.81169 0
M  V30 37 H 1.67712 0.406175 -2.64767 0
M  V30 38 H 2.53395 2.7034 -2.89582 0
M  V30 39 H 2.88325 -3.11252 0.498632 0
M  V30 40 H 1.87441 0.239197 0.615553 0
M  V30 41 H 0.0454574 1.12614 1.85287 0
M  V30 42 H -2.4775 -0.906155 3.70362 0
M  V30 43 H -1.41581 2.52779 0.499178 0
M  V30 44 H -2.26594 2.98501 -1.75064 0
M  V30 45 H -4.74133 3.4276 -3.03896 0
M  V30 46 H -4.97099 1.70253 -3.38978 0
M  V30 47 H -5.98101 1.28235 -0.746902 0
M  V30 48 H -5.12934 0.798992 1.56237 0
M  V30 49 H -2.57973 -2.718 2.9754 0
M  V30 50 H -2.35337 -5.08632 2.52301 0
M  V30 51 H -0.37416 -5.88738 1.18903 0
M  V30 52 H 1.25032 -4.29775 0.392345 0
M  V30 END ATOM
M  V30 BEGIN BOND
M  V30 1 1 1 2
M  V30 2 2 2 3
M  V30 3 1 3 4
M  V30 4 2 4 5
M  V30 5 1 5 6
M  V30 6 2 6 7
M  V30 7 1 5 8
M  V30 8 2 8 9
M  V30 9 2 8 10
M  V30 10 1 8 11
M  V30 11 1 11 12
M  V30 12 2 12 13
M  V30 13 1 13 14
M  V30 14 2 14 15
M  V30 15 1 15 16
M  V30 16 1 16 17
M  V30 17 2 17 18
M  V30 18 2 17 19
M  V30 19 1 17 20
M  V30 20 2 20 21
M  V30 21 1 21 22
M  V30 22 2 22 23
M  V30 23 1 23 24
M  V30 24 1 23 25
M  V30 25 2 25 26
M  V30 26 1 15 27
M  V30 27 2 27 28
M  V30 28 1 28 29
M  V30 29 2 29 30
M  V30 30 1 30 31
M  V30 31 2 31 32
M  V30 32 1 7 2
M  V30 33 1 32 12
M  V30 34 1 26 20
M  V30 35 1 32 27
M  V30 36 1 1 33
M  V30 37 1 1 34
M  V30 38 1 3 35
M  V30 39 1 4 36
M  V30 40 1 6 37
M  V30 41 1 7 38
M  V30 42 1 11 39
M  V30 43 1 13 40
M  V30 44 1 14 41
M  V30 45 1 16 42
M  V30 46 1 21 43
M  V30 47 1 22 44
M  V30 48 1 24 45
M  V30 49 1 24 46
M  V30 50 1 25 47
M  V30 51 1 26 48
M  V30 52 1 28 49
M  V30 53 1 29 50
M  V30 54 1 30 51
M  V30 55 1 31 52
M  V30 END BOND
M  V30 END CTAB
M  END
