
     RDKit          3D

  0  0  0  0  0  0  0  0  0  0999 V3000
M  V30 BEGIN CTAB
M  V30 COUNTS 58 61 0 0 0
M  V30 BEGIN ATOM
M  V30 1 N 7.45952 0.781416 -2.85632 0
M  V30 2 C 6.79755 0.524078 -1.63354 0
M  V30 3 N 7.55287 0.218589 -0.56215 0
M  V30 4 C 6.96973 -0.0334891 0.631322 0
M  V30 5 N 7.8017 -0.352559 1.73825 0
M  V30 6 N 5.62854 0.0224888 0.743231 0
M  V30 7 C 4.81376 0.321762 -0.287697 0
M  V30 8 C 5.42743 0.575837 -1.49783 0
M  V30 9 N 3.39629 0.369878 -0.0991707 0
M  V30 10 C 2.89938 0.139679 1.2138 0
M  V30 11 C 1.3982 0.00504647 1.28814 0
M  V30 12 C 0.914237 -0.584388 0.00515827 0
M  V30 13 C 1.14279 0.449493 -1.07632 0
M  V30 14 C 2.60089 0.652424 -1.27278 0
M  V30 15 N -0.47627 -0.99861 0.0310166 0
M  V30 16 C -0.64229 -2.05073 1.00372 0
M  V30 17 C -2.05767 -2.62642 0.924115 0
M  V30 18 C -2.97136 -1.47182 1.3097 0
M  V30 19 C -2.78961 -0.407344 0.252756 0
M  V30 20 C -1.36725 0.106188 0.263178 0
M  V30 21 C -3.72994 0.716974 0.383443 0
M  V30 22 O -3.24929 1.86812 0.668542 0
M  V30 23 N -5.13905 0.611593 0.216291 0
M  V30 24 C -5.96432 -0.524203 -0.124034 0
M  V30 25 C -6.93335 0.0505373 -1.12776 0
M  V30 26 C -7.01212 1.51342 -0.772717 0
M  V30 27 C -6.08651 1.72659 0.387275 0
M  V30 28 H 7.98396 0.0229298 -3.33587 0
M  V30 29 H 7.43118 1.72559 -3.28884 0
M  V30 30 H 7.72238 0.130003 2.66051 0
M  V30 31 H 8.5473 -1.10652 1.6707 0
M  V30 32 H 4.80183 0.820575 -2.35203 0
M  V30 33 H 3.30758 -0.844267 1.58766 0
M  V30 34 H 3.28281 0.877428 1.9609 0
M  V30 35 H 1.01268 1.06811 1.318 0
M  V30 36 H 1.09603 -0.536936 2.20285 0
M  V30 37 H 1.51104 -1.46666 -0.264552 0
M  V30 38 H 0.615904 0.202368 -2.02697 0
M  V30 39 H 0.697995 1.40869 -0.679833 0
M  V30 40 H 2.82443 1.64754 -1.69459 0
M  V30 41 H 2.94588 -0.079356 -2.06038 0
M  V30 42 H 0.050306 -2.86806 0.821647 0
M  V30 43 H -0.587982 -1.60334 2.01752 0
M  V30 44 H -2.28827 -3.04873 -0.0551057 0
M  V30 45 H -2.11061 -3.40962 1.70856 0
M  V30 46 H -2.62339 -1.12676 2.30001 0
M  V30 47 H -3.99612 -1.82625 1.29057 0
M  V30 48 H -2.94978 -0.901217 -0.726298 0
M  V30 49 H -1.13205 0.642912 1.21989 0
M  V30 50 H -1.25581 0.798894 -0.609131 0
M  V30 51 H -5.3986 -1.38312 -0.544957 0
M  V30 52 H -6.53379 -0.865236 0.767459 0
M  V30 53 H -6.51266 -0.0288911 -2.15892 0
M  V30 54 H -7.9215 -0.452876 -1.07866 0
M  V30 55 H -6.66495 2.17175 -1.60551 0
M  V30 56 H -8.06178 1.79492 -0.472762 0
M  V30 57 H -5.55336 2.69399 0.36135 0
M  V30 58 H -6.62452 1.52052 1.31712 0
M  V30 END ATOM
M  V30 BEGIN BOND
M  V30 1 1 1 2
M  V30 2 2 2 3
M  V30 3 1 3 4
M  V30 4 1 4 5
M  V30 5 2 4 6
M  V30 6 1 6 7
M  V30 7 2 7 8
M  V30 8 1 7 9
M  V30 9 1 9 10
M  V30 10 1 10 11
M  V30 11 1 11 12
M  V30 12 1 12 13
M  V30 13 1 13 14
M  V30 14 1 12 15
M  V30 15 1 15 16
M  V30 16 1 16 17
M  V30 17 1 17 18
M  V30 18 1 18 19
M  V30 19 1 19 20
M  V30 20 1 19 21
M  V30 21 2 21 22
M  V30 22 1 21 23
M  V30 23 1 23 24
M  V30 24 1 24 25
M  V30 25 1 25 26
M  V30 26 1 26 27
M  V30 27 1 8 2
M  V30 28 1 14 9
M  V30 29 1 20 15
M  V30 30 1 27 23
M  V30 31 1 1 28
M  V30 32 1 1 29
M  V30 33 1 5 30
M  V30 34 1 5 31
M  V30 35 1 8 32
M  V30 36 1 10 33
M  V30 37 1 10 34
M  V30 38 1 11 35
M  V30 39 1 11 36
M  V30 40 1 12 37
M  V30 41 1 13 38
M  V30 42 1 13 39
M  V30 43 1 14 40
M  V30 44 1 14 41
M  V30 45 1 16 42
M  V30 46 1 16 43
M  V30 47 1 17 44
M  V30 48 1 17 45
M  V30 49 1 18 46
M  V30 50 1 18 47
M  V30 51 1 19 48
M  V30 52 1 20 49
M  V30 53 1 20 50
M  V30 54 1 24 51
M  V30 55 1 24 52
M  V30 56 1 25 53
M  V30 57 1 25 54
M  V30 58 1 26 55
M  V30 59 1 26 56
M  V30 60 1 27 57
M  V30 61 1 27 58
M  V30 END BOND
M  V30 END CTAB
M  END
