
     RDKit          3D

  0  0  0  0  0  0  0  0  0  0999 V3000
M  V30 BEGIN CTAB
M  V30 COUNTS 26 25 0 0 0
M  V30 BEGIN ATOM
M  V30 1 C 1.83318 -1.55083 -0.78431 0
M  V30 2 N 1.04713 -0.347431 -0.596596 0
M  V30 3 S 1.94683 1.07369 -0.709709 0
M  V30 4 O 1.30172 2.21654 -1.39577 0
M  V30 5 O 3.16534 0.733801 -1.57158 0
M  V30 6 N 2.57633 1.64292 0.782859 0
M  V30 7 C 0.092857 -0.455234 0.445625 0
M  V30 8 C -1.31428 -0.0884005 0.121586 0
M  V30 9 N -1.73571 -0.984712 -0.959684 0
M  V30 10 C -1.58727 1.32762 -0.214703 0
M  V30 11 C -2.26497 -0.452495 1.27826 0
M  V30 12 H 2.77046 -1.26592 -1.33451 0
M  V30 13 H 2.08586 -2.05535 0.149599 0
M  V30 14 H 1.25844 -2.19302 -1.49335 0
M  V30 15 H 3.56156 1.35475 0.9484 0
M  V30 16 H 1.97439 1.40256 1.59772 0
M  V30 17 H 0.417696 0.0481489 1.3922 0
M  V30 18 H 0.0594946 -1.54914 0.739527 0
M  V30 19 H -2.02398 -1.89432 -0.557911 0
M  V30 20 H -2.52325 -0.558378 -1.45578 0
M  V30 21 H -1.00633 2.07141 0.313016 0
M  V30 22 H -1.46594 1.45758 -1.30956 0
M  V30 23 H -2.66026 1.5499 0.025239 0
M  V30 24 H -3.28944 -0.358578 0.853201 0
M  V30 25 H -2.17367 0.315777 2.05339 0
M  V30 26 H -2.04616 -1.44091 1.68285 0
M  V30 END ATOM
M  V30 BEGIN BOND
M  V30 1 1 1 2
M  V30 2 1 2 3
M  V30 3 2 3 4
M  V30 4 2 3 5
M  V30 5 1 3 6
M  V30 6 1 2 7
M  V30 7 1 7 8
M  V30 8 1 8 9
M  V30 9 1 8 10
M  V30 10 1 8 11
M  V30 11 1 1 12
M  V30 12 1 1 13
M  V30 13 1 1 14
M  V30 14 1 6 15
M  V30 15 1 6 16
M  V30 16 1 7 17
M  V30 17 1 7 18
M  V30 18 1 9 19
M  V30 19 1 9 20
M  V30 20 1 10 21
M  V30 21 1 10 22
M  V30 22 1 10 23
M  V30 23 1 11 24
M  V30 24 1 11 25
M  V30 25 1 11 26
M  V30 END BOND
M  V30 END CTAB
M  END
