
     RDKit          3D

  0  0  0  0  0  0  0  0  0  0999 V3000
M  V30 BEGIN CTAB
M  V30 COUNTS 59 61 0 0 0
M  V30 BEGIN ATOM
M  V30 1 C -8.42325 0.600668 1.31237 0
M  V30 2 C -6.90991 0.529904 1.40798 0
M  V30 3 O -6.32581 0.512173 0.148267 0
M  V30 4 C -4.94836 0.447187 0.318356 0
M  V30 5 C -4.29602 1.53624 -0.504103 0
M  V30 6 C -3.27861 0.510868 -0.945873 0
M  V30 7 C -4.25517 -0.562329 -0.567208 0
M  V30 8 C -5.11527 -0.976671 -1.74163 0
M  V30 9 C -3.6692 -1.74221 0.173336 0
M  V30 10 N -2.97724 0.605831 -2.35619 0
M  V30 11 C -2.06418 0.611125 -0.0669098 0
M  V30 12 O -2.19798 0.540763 1.17927 0
M  V30 13 N -0.803958 0.782231 -0.673537 0
M  V30 14 C 0.44411 0.885122 0.0413607 0
M  V30 15 C 0.675965 -0.403442 0.788267 0
M  V30 16 C 1.94161 -0.460145 1.57256 0
M  V30 17 C 3.14458 -0.403522 0.741447 0
M  V30 18 N 4.38953 -0.251413 1.27584 0
M  V30 19 N 5.30079 -0.271116 0.307794 0
M  V30 20 C 4.69817 -0.43375 -0.871213 0
M  V30 21 C 3.34509 -0.51702 -0.596031 0
M  V30 22 N 5.31198 -0.506168 -2.13863 0
M  V30 23 C 6.70447 -0.138766 0.501706 0
M  V30 24 C 7.63001 -0.919463 -0.17828 0
M  V30 25 C 8.99231 -0.767999 0.0313355 0
M  V30 26 C 9.48093 0.162897 0.922374 0
M  V30 27 C 8.57288 0.94164 1.60142 0
M  V30 28 C 7.22078 0.78454 1.38708 0
M  V30 29 H -8.72736 1.60502 0.914545 0
M  V30 30 H -8.85868 0.50174 2.31011 0
M  V30 31 H -8.82034 -0.207499 0.664409 0
M  V30 32 H -6.63223 -0.361045 2.01056 0
M  V30 33 H -6.59747 1.41396 2.00474 0
M  V30 34 H -4.64252 0.425214 1.37898 0
M  V30 35 H -3.85725 2.36014 0.0962129 0
M  V30 36 H -4.94718 1.91156 -1.33548 0
M  V30 37 H -5.23937 -2.0781 -1.71828 0
M  V30 38 H -4.63671 -0.733998 -2.70319 0
M  V30 39 H -6.10322 -0.475499 -1.73597 0
M  V30 40 H -4.27154 -2.63325 -0.0946384 0
M  V30 41 H -3.65036 -1.53972 1.25477 0
M  V30 42 H -2.64518 -1.93102 -0.247886 0
M  V30 43 H -2.31565 -0.117973 -2.66309 0
M  V30 44 H -2.66203 1.58365 -2.53464 0
M  V30 45 H -0.765159 0.839403 -1.72324 0
M  V30 46 H 1.25031 1.06728 -0.670967 0
M  V30 47 H 0.380123 1.74127 0.790042 0
M  V30 48 H 0.729938 -1.19466 -0.0324608 0
M  V30 49 H -0.206106 -0.704859 1.37584 0
M  V30 50 H 1.95138 -1.44222 2.10598 0
M  V30 51 H 1.95866 0.301856 2.3878 0
M  V30 52 H 2.58836 -0.665513 -1.3562 0
M  V30 53 H 5.66512 0.312766 -2.68081 0
M  V30 54 H 5.42752 -1.44546 -2.57832 0
M  V30 55 H 7.26626 -1.6444 -0.871328 0
M  V30 56 H 9.72292 -1.37114 -0.49322 0
M  V30 57 H 10.5605 0.267591 1.07422 0
M  V30 58 H 8.95049 1.68748 2.31464 0
M  V30 59 H 6.53849 1.43024 1.95368 0
M  V30 END ATOM
M  V30 BEGIN BOND
M  V30 1 1 1 2
M  V30 2 1 2 3
M  V30 3 1 3 4
M  V30 4 1 4 5
M  V30 5 1 5 6
M  V30 6 1 6 7
M  V30 7 1 7 8
M  V30 8 1 7 9
M  V30 9 1 6 10
M  V30 10 1 6 11
M  V30 11 2 11 12
M  V30 12 1 11 13
M  V30 13 1 13 14
M  V30 14 1 14 15
M  V30 15 1 15 16
M  V30 16 1 16 17
M  V30 17 2 17 18
M  V30 18 1 18 19
M  V30 19 1 19 20
M  V30 20 2 20 21
M  V30 21 1 20 22
M  V30 22 1 19 23
M  V30 23 2 23 24
M  V30 24 1 24 25
M  V30 25 2 25 26
M  V30 26 1 26 27
M  V30 27 2 27 28
M  V30 28 1 7 4
M  V30 29 1 21 17
M  V30 30 1 28 23
M  V30 31 1 1 29
M  V30 32 1 1 30
M  V30 33 1 1 31
M  V30 34 1 2 32
M  V30 35 1 2 33
M  V30 36 1 4 34
M  V30 37 1 5 35
M  V30 38 1 5 36
M  V30 39 1 8 37
M  V30 40 1 8 38
M  V30 41 1 8 39
M  V30 42 1 9 40
M  V30 43 1 9 41
M  V30 44 1 9 42
M  V30 45 1 10 43
M  V30 46 1 10 44
M  V30 47 1 13 45
M  V30 48 1 14 46
M  V30 49 1 14 47
M  V30 50 1 15 48
M  V30 51 1 15 49
M  V30 52 1 16 50
M  V30 53 1 16 51
M  V30 54 1 21 52
M  V30 55 1 22 53
M  V30 56 1 22 54
M  V30 57 1 24 55
M  V30 58 1 25 56
M  V30 59 1 26 57
M  V30 60 1 27 58
M  V30 61 1 28 59
M  V30 END BOND
M  V30 END CTAB
M  END
