
     RDKit          3D

  0  0  0  0  0  0  0  0  0  0999 V3000
M  V30 BEGIN CTAB
M  V30 COUNTS 21 21 0 0 0
M  V30 BEGIN ATOM
M  V30 1 Cl 3.93591 2.30181 -0.554429 0
M  V30 2 C 3.01787 0.908181 0.0554027 0
M  V30 3 C 3.0836 -0.234624 -0.560845 0
M  V30 4 C 2.42599 -1.50329 -0.251907 0
M  V30 5 S 1.31069 -1.53494 1.13297 0
M  V30 6 C -0.203303 -0.657094 0.843588 0
M  V30 7 N -1.24792 -1.34532 0.285975 0
M  V30 8 C -2.43882 -0.785188 0.0348324 0
M  V30 9 N -3.48151 -1.54266 -0.542254 0
M  V30 10 N -2.59049 0.528009 0.358077 0
M  V30 11 C -1.60002 1.26051 0.909703 0
M  V30 12 N -0.438068 0.625465 1.12932 0
M  V30 13 N -1.7528 2.62692 1.24796 0
M  V30 14 H 2.45608 1.13592 0.951049 0
M  V30 15 H 3.73596 -0.258486 -1.4597 0
M  V30 16 H 1.8828 -1.87394 -1.16679 0
M  V30 17 H 3.23671 -2.26657 -0.0659951 0
M  V30 18 H -3.59485 -2.54025 -0.31018 0
M  V30 19 H -4.13256 -1.09019 -1.20088 0
M  V30 20 H -2.68287 2.99831 1.51911 0
M  V30 21 H -0.922392 3.24742 1.22019 0
M  V30 END ATOM
M  V30 BEGIN BOND
M  V30 1 1 1 2
M  V30 2 2 2 3 CFG=2
M  V30 3 1 3 4
M  V30 4 1 4 5
M  V30 5 1 5 6
M  V30 6 2 6 7
M  V30 7 1 7 8
M  V30 8 1 8 9
M  V30 9 2 8 10
M  V30 10 1 10 11
M  V30 11 2 11 12
M  V30 12 1 11 13
M  V30 13 1 12 6
M  V30 14 1 2 14
M  V30 15 1 3 15
M  V30 16 1 4 16
M  V30 17 1 4 17
M  V30 18 1 9 18
M  V30 19 1 9 19
M  V30 20 1 13 20
M  V30 21 1 13 21
M  V30 END BOND
M  V30 END CTAB
M  END
