
     RDKit          3D

  0  0  0  0  0  0  0  0  0  0999 V3000
M  V30 BEGIN CTAB
M  V30 COUNTS 56 56 0 0 0
M  V30 BEGIN ATOM
M  V30 1 C 4.10753 -0.410124 -0.710954 0 CFG=1
M  V30 2 N 5.16411 -0.699668 0.202718 0
M  V30 3 C 3.99412 -1.50696 -1.74192 0
M  V30 4 C 3.70721 -2.83622 -1.12224 0
M  V30 5 C 5.28751 -1.58224 -2.52011 0
M  V30 6 C 2.81435 -0.144443 -0.0409786 0
M  V30 7 O 2.75948 -0.1706 1.20768 0
M  V30 8 N 1.64187 0.137242 -0.776742 0
M  V30 9 C 0.375692 0.395806 -0.0570799 0 CFG=1
M  V30 10 C -0.189487 1.67046 -0.582751 0
M  V30 11 C -1.49122 2.11051 0.0249815 0
M  V30 12 C -1.86258 3.42103 -0.64209 0
M  V30 13 N -3.08528 3.98101 -0.176898 0
M  V30 14 C -3.32393 4.51104 1.09887 0
M  V30 15 N -2.32627 5.26163 1.75082 0
M  V30 16 N -4.44618 4.31503 1.67381 0
M  V30 17 C -0.509939 -0.754538 -0.454218 0
M  V30 18 O -0.422347 -1.222 -1.63639 0
M  V30 19 N -1.43756 -1.35154 0.420988 0
M  V30 20 C -1.7047 -1.0015 1.80513 0
M  V30 21 C -2.29703 -2.22689 2.44034 0
M  V30 22 C -2.16054 -3.28698 1.37762 0
M  V30 23 C -2.30439 -2.46432 0.0910481 0 CFG=1
M  V30 24 C -3.69739 -2.09134 -0.156953 0
M  V30 25 O -4.6022 -3.10863 -0.498885 0
M  V30 26 O -4.07929 -0.910066 -0.0702049 0
M  V30 27 H 4.38483 0.519311 -1.27569 0
M  V30 28 H 4.87533 -0.811896 1.19119 0
M  V30 29 H 6.04513 -0.20089 0.0510825 0
M  V30 30 H 3.19479 -1.25649 -2.49087 0
M  V30 31 H 3.79765 -2.75751 -0.0209411 0
M  V30 32 H 2.67296 -3.21094 -1.32424 0
M  V30 33 H 4.42509 -3.63327 -1.446 0
M  V30 34 H 5.24561 -0.884543 -3.36726 0
M  V30 35 H 5.40574 -2.61154 -2.91397 0
M  V30 36 H 6.13026 -1.28557 -1.85943 0
M  V30 37 H 1.69991 0.156054 -1.8128 0
M  V30 38 H 0.576712 0.360624 1.01663 0
M  V30 39 H 0.573621 2.48097 -0.414159 0
M  V30 40 H -0.31024 1.61146 -1.68505 0
M  V30 41 H -1.3886 2.28625 1.11352 0
M  V30 42 H -2.26802 1.33761 -0.16049 0
M  V30 43 H -1.90758 3.30311 -1.74109 0
M  V30 44 H -1.02839 4.15259 -0.459942 0
M  V30 45 H -3.90364 4.00742 -0.844593 0
M  V30 46 H -1.8532 6.03314 1.1959 0
M  V30 47 H -2.00562 5.1357 2.72247 0
M  V30 48 H -4.7097 4.6697 2.61694 0
M  V30 49 H -0.800597 -0.654086 2.32094 0
M  V30 50 H -2.52347 -0.227483 1.82985 0
M  V30 51 H -3.33976 -2.08819 2.78501 0
M  V30 52 H -1.67442 -2.55704 3.31534 0
M  V30 53 H -3.03593 -3.96128 1.45714 0
M  V30 54 H -1.2039 -3.82178 1.40797 0
M  V30 55 H -1.88601 -3.03175 -0.752113 0
M  V30 56 H -5.10011 -3.09539 -1.36094 0
M  V30 END ATOM
M  V30 BEGIN BOND
M  V30 1 1 1 2
M  V30 2 1 1 3
M  V30 3 1 3 4
M  V30 4 1 3 5
M  V30 5 1 1 6
M  V30 6 2 6 7
M  V30 7 1 6 8
M  V30 8 1 8 9
M  V30 9 1 9 10
M  V30 10 1 10 11
M  V30 11 1 11 12
M  V30 12 1 12 13
M  V30 13 1 13 14
M  V30 14 1 14 15
M  V30 15 2 14 16 CFG=2
M  V30 16 1 9 17
M  V30 17 2 17 18
M  V30 18 1 17 19
M  V30 19 1 19 20
M  V30 20 1 20 21
M  V30 21 1 21 22
M  V30 22 1 22 23
M  V30 23 1 23 24
M  V30 24 1 24 25
M  V30 25 2 24 26
M  V30 26 1 23 19
M  V30 27 1 1 27 CFG=3
M  V30 28 1 2 28
M  V30 29 1 2 29
M  V30 30 1 3 30
M  V30 31 1 4 31
M  V30 32 1 4 32
M  V30 33 1 4 33
M  V30 34 1 5 34
M  V30 35 1 5 35
M  V30 36 1 5 36
M  V30 37 1 8 37
M  V30 38 1 9 38 CFG=1
M  V30 39 1 10 39
M  V30 40 1 10 40
M  V30 41 1 11 41
M  V30 42 1 11 42
M  V30 43 1 12 43
M  V30 44 1 12 44
M  V30 45 1 13 45
M  V30 46 1 15 46
M  V30 47 1 15 47
M  V30 48 1 16 48
M  V30 49 1 20 49
M  V30 50 1 20 50
M  V30 51 1 21 51
M  V30 52 1 21 52
M  V30 53 1 22 53
M  V30 54 1 22 54
M  V30 55 1 23 55 CFG=3
M  V30 56 1 25 56
M  V30 END BOND
M  V30 END CTAB
M  END
