
     RDKit          3D

  0  0  0  0  0  0  0  0  0  0999 V3000
M  V30 BEGIN CTAB
M  V30 COUNTS 61 64 0 0 0
M  V30 BEGIN ATOM
M  V30 1 C 1.14882 -1.04602 2.91395 0 CFG=1
M  V30 2 S 1.25012 -1.71408 1.27977 0
M  V30 3 C 1.43229 -0.334771 0.195103 0
M  V30 4 C 2.1881 0.84009 0.734352 0
M  V30 5 C 3.04391 1.50202 -0.256575 0
M  V30 6 S 4.19895 0.157897 -0.82558 0
M  V30 7 C 5.29035 0.857068 -2.03552 0
M  V30 8 N 5.05993 0.900162 -3.37516 0
M  V30 9 N 6.10371 1.49355 -3.92711 0
M  V30 10 N 6.96523 1.81561 -2.97642 0
M  V30 11 N 6.47415 1.42682 -1.79505 0
M  V30 12 C 7.10243 1.59047 -0.488532 0
M  V30 13 C 7.96443 0.391125 -0.151851 0
M  V30 14 O 7.15252 -0.725186 -0.136327 0
M  V30 15 C 2.03581 1.15484 2.00667 0
M  V30 16 N 1.16885 0.379572 2.84562 0
M  V30 17 C 0.1613 0.353785 3.7911 0
M  V30 18 O -0.289168 1.15315 4.64707 0
M  V30 19 C -0.242689 -1.03277 3.43438 0
M  V30 20 N -1.22937 -0.971594 2.37162 0
M  V30 21 C -2.37305 -1.7828 2.32424 0
M  V30 22 O -2.605 -2.62833 3.22571 0
M  V30 23 C -3.30979 -1.65729 1.22962 0
M  V30 24 N -3.11827 -0.78996 0.265734 0
M  V30 25 O -4.02638 -0.680793 -0.778829 0
M  V30 26 C -3.7135 0.181991 -1.84729 0
M  V30 27 C -4.79608 0.189094 -2.89272 0
M  V30 28 C -6.09045 0.653455 -2.25842 0
M  V30 29 N -5.99955 1.97775 -1.70333 0
M  V30 30 C -4.51333 -2.52416 1.18334 0
M  V30 31 N -4.74318 -3.42288 2.14785 0
M  V30 32 S -6.18492 -4.13912 1.66072 0
M  V30 33 C -6.43092 -3.24687 0.230261 0
M  V30 34 N -7.48116 -3.28732 -0.763506 0
M  V30 35 N -5.37939 -2.44664 0.216495 0
M  V30 36 C 2.70679 2.29558 2.56227 0
M  V30 37 O 3.54143 3.16601 1.92581 0
M  V30 38 O 2.52341 2.56294 3.809 0
M  V30 39 H 1.87044 -1.43244 3.60054 0
M  V30 40 H 0.464262 0.0799706 -0.217131 0
M  V30 41 H 1.97462 -0.679035 -0.715217 0
M  V30 42 H 3.66288 2.32517 0.0059433 0
M  V30 43 H 2.42556 1.77342 -1.18509 0
M  V30 44 H 7.73664 2.51499 -0.566922 0
M  V30 45 H 6.36254 1.75976 0.312943 0
M  V30 46 H 8.43295 0.555377 0.817911 0
M  V30 47 H 8.75134 0.349716 -0.952376 0
M  V30 48 H 7.54847 -1.41925 -0.725693 0
M  V30 49 H -0.41847 -1.73441 4.24425 0
M  V30 50 H -1.06692 -0.282196 1.60694 0
M  V30 51 H -3.53025 1.19345 -1.43554 0
M  V30 52 H -2.748 -0.162073 -2.30942 0
M  V30 53 H -4.95808 -0.86732 -3.22171 0
M  V30 54 H -4.53909 0.781147 -3.77536 0
M  V30 55 H -6.92651 0.621199 -3.00852 0
M  V30 56 H -6.37636 -0.0741916 -1.46942 0
M  V30 57 H -5.7312 1.96793 -0.704565 0
M  V30 58 H -5.48576 2.64542 -2.29225 0
M  V30 59 H -7.99466 -2.4106 -0.953876 0
M  V30 60 H -7.66436 -4.18312 -1.23058 0
M  V30 61 H 3.22364 4.0647 1.58891 0
M  V30 END ATOM
M  V30 BEGIN BOND
M  V30 1 1 1 2
M  V30 2 1 2 3
M  V30 3 1 3 4
M  V30 4 1 4 5
M  V30 5 1 5 6
M  V30 6 1 6 7
M  V30 7 2 7 8
M  V30 8 1 8 9
M  V30 9 2 9 10
M  V30 10 1 10 11
M  V30 11 1 11 12
M  V30 12 1 12 13
M  V30 13 1 13 14
M  V30 14 2 4 15
M  V30 15 1 15 16
M  V30 16 1 16 17
M  V30 17 2 17 18
M  V30 18 1 17 19
M  V30 19 1 19 20
M  V30 20 1 20 21
M  V30 21 2 21 22
M  V30 22 1 21 23
M  V30 23 2 23 24
M  V30 24 1 24 25
M  V30 25 1 25 26
M  V30 26 1 26 27
M  V30 27 1 27 28
M  V30 28 1 28 29
M  V30 29 1 23 30
M  V30 30 2 30 31
M  V30 31 1 31 32
M  V30 32 1 32 33
M  V30 33 1 33 34
M  V30 34 2 33 35
M  V30 35 1 15 36
M  V30 36 1 36 37
M  V30 37 2 36 38
M  V30 38 1 16 1
M  V30 39 1 35 30
M  V30 40 1 19 1
M  V30 41 1 11 7
M  V30 42 1 1 39 CFG=1
M  V30 43 1 3 40
M  V30 44 1 3 41
M  V30 45 1 5 42
M  V30 46 1 5 43
M  V30 47 1 12 44
M  V30 48 1 12 45
M  V30 49 1 13 46
M  V30 50 1 13 47
M  V30 51 1 14 48
M  V30 52 1 19 49
M  V30 53 1 20 50
M  V30 54 1 26 51
M  V30 55 1 26 52
M  V30 56 1 27 53
M  V30 57 1 27 54
M  V30 58 1 28 55
M  V30 59 1 28 56
M  V30 60 1 29 57
M  V30 61 1 29 58
M  V30 62 1 34 59
M  V30 63 1 34 60
M  V30 64 1 37 61
M  V30 END BOND
M  V30 END CTAB
M  END
