
     RDKit          3D

  0  0  0  0  0  0  0  0  0  0999 V3000
M  V30 BEGIN CTAB
M  V30 COUNTS 35 36 0 0 0
M  V30 BEGIN ATOM
M  V30 1 O 0.79536 -1.02178 -1.3856 0
M  V30 2 C 0.775597 -0.401045 -0.29543 0
M  V30 3 N 1.70941 -0.559179 0.749263 0
M  V30 4 C 2.83439 -1.44452 0.649133 0
M  V30 5 C 4.06924 -0.726517 0.308838 0
M  V30 6 C 4.06561 0.678445 0.312591 0
M  V30 7 C 5.23218 1.36578 0.100119 0
M  V30 8 C 6.42211 0.662761 -0.117778 0
M  V30 9 C 6.45513 -0.710065 -0.133544 0
M  V30 10 C 5.24037 -1.3837 0.0861586 0
M  V30 11 C -0.354736 0.59332 -0.115199 0
M  V30 12 S -1.60614 0.289191 -1.38569 0
M  V30 13 C -3.26309 0.310037 -0.763893 0
M  V30 14 N -3.77851 -0.78014 -0.189515 0
M  V30 15 C -5.07576 -0.808447 0.234748 0
M  V30 16 N -5.56709 -1.98002 0.881736 0
M  V30 17 C -5.85939 0.28615 0.0730405 0
M  V30 18 C -5.33261 1.43284 -0.523568 0
M  V30 19 N -4.03238 1.39204 -0.920961 0
M  V30 20 N -6.18183 2.55199 -0.71473 0
M  V30 21 H 1.58115 -0.00685661 1.64066 0
M  V30 22 H 2.89735 -2.04632 1.57203 0
M  V30 23 H 2.67148 -2.19148 -0.171086 0
M  V30 24 H 3.1242 1.14914 0.490595 0
M  V30 25 H 5.2867 2.44662 0.102373 0
M  V30 26 H 7.33337 1.23908 -0.262728 0
M  V30 27 H 7.3868 -1.22716 -0.29639 0
M  V30 28 H 5.31077 -2.45809 0.0434167 0
M  V30 29 H -0.778314 0.307549 0.892317 0
M  V30 30 H 0.0157143 1.60874 -0.0842051 0
M  V30 31 H -6.25573 -1.89179 1.65346 0
M  V30 32 H -5.25438 -2.92224 0.594672 0
M  V30 33 H -6.88743 0.32803 0.388371 0
M  V30 34 H -6.80235 2.86469 0.0457667 0
M  V30 35 H -6.17716 3.05293 -1.61798 0
M  V30 END ATOM
M  V30 BEGIN BOND
M  V30 1 2 1 2
M  V30 2 1 2 3
M  V30 3 1 3 4
M  V30 4 1 4 5
M  V30 5 2 5 6
M  V30 6 1 6 7
M  V30 7 2 7 8
M  V30 8 1 8 9
M  V30 9 2 9 10
M  V30 10 1 2 11
M  V30 11 1 11 12
M  V30 12 1 12 13
M  V30 13 2 13 14
M  V30 14 1 14 15
M  V30 15 1 15 16
M  V30 16 2 15 17
M  V30 17 1 17 18
M  V30 18 2 18 19
M  V30 19 1 18 20
M  V30 20 1 10 5
M  V30 21 1 19 13
M  V30 22 1 3 21
M  V30 23 1 4 22
M  V30 24 1 4 23
M  V30 25 1 6 24
M  V30 26 1 7 25
M  V30 27 1 8 26
M  V30 28 1 9 27
M  V30 29 1 10 28
M  V30 30 1 11 29
M  V30 31 1 11 30
M  V30 32 1 16 31
M  V30 33 1 16 32
M  V30 34 1 17 33
M  V30 35 1 20 34
M  V30 36 1 20 35
M  V30 END BOND
M  V30 END CTAB
M  END
