
     RDKit          3D

  0  0  0  0  0  0  0  0  0  0999 V3000
M  V30 BEGIN CTAB
M  V30 COUNTS 59 63 0 0 0
M  V30 BEGIN ATOM
M  V30 1 N -7.57657 4.33515 0.897474 0
M  V30 2 C -6.66667 3.40188 0.348036 0
M  V30 3 N -6.7715 3.07665 -0.943229 0
M  V30 4 C -5.94405 2.20358 -1.50491 0
M  V30 5 N -6.08735 1.88825 -2.87238 0
M  V30 6 C -4.96018 1.6261 -0.731422 0
M  V30 7 N -4.08893 0.729249 -1.24058 0
M  V30 8 C -3.12753 0.15615 -0.503567 0
M  V30 9 C -2.23758 -0.816792 -1.20454 0
M  V30 10 N -1.3273 -1.55418 -0.422846 0
M  V30 11 C -1.7873 -2.7342 0.216427 0
M  V30 12 C -1.08348 -3.73187 0.909448 0
M  V30 13 C -1.72937 -4.82515 1.46442 0
M  V30 14 C -3.0863 -4.98315 1.36155 0
M  V30 15 C -3.77005 -4.00874 0.684517 0
M  V30 16 C -3.13134 -2.90651 0.123361 0
M  V30 17 C 0.32347 -3.85005 1.1511 0
M  V30 18 C 1.26671 -2.9962 0.879145 0
M  V30 19 C 1.14678 -1.69242 0.256727 0
M  V30 20 C 0.0285667 -1.06805 -0.28415 0
M  V30 21 C 0.158336 0.208863 -0.804855 0
M  V30 22 C 1.38627 0.837516 -0.781252 0
M  V30 23 C 2.50909 0.237016 -0.251497 0
M  V30 24 C 2.37457 -1.05091 0.274121 0
M  V30 25 C 3.77809 0.897247 -0.250043 0
M  V30 26 C 4.85822 1.43084 -0.253667 0
M  V30 27 C 6.20255 2.07155 -0.276491 0
M  V30 28 C 7.1978 1.19914 0.456296 0
M  V30 29 C 8.53794 1.84046 0.451902 0
M  V30 30 C 9.13427 2.09512 -0.855613 0
M  V30 31 O 10.1072 1.28838 -1.38958 0
M  V30 32 O 8.75469 3.08441 -1.52977 0
M  V30 33 C -3.04885 0.513726 0.818254 0
M  V30 34 N -3.87833 1.39401 1.38615 0
M  V30 35 C -4.834 1.95176 0.615771 0
M  V30 36 N -5.71141 2.83971 1.09398 0
M  V30 37 H -7.95444 5.14857 0.38108 0
M  V30 38 H -7.88744 4.19204 1.89469 0
M  V30 39 H -5.92567 0.952709 -3.30502 0
M  V30 40 H -6.38364 2.63796 -3.56305 0
M  V30 41 H -1.79791 -0.356712 -2.15988 0
M  V30 42 H -2.89885 -1.48786 -1.87553 0
M  V30 43 H -1.18288 -5.58495 1.99368 0
M  V30 44 H -3.57357 -5.82863 1.79173 0
M  V30 45 H -4.83232 -4.07506 0.568632 0
M  V30 46 H -3.73472 -2.21405 -0.391719 0
M  V30 47 H 0.655618 -4.77582 1.62827 0
M  V30 48 H 2.26824 -3.32287 1.16453 0
M  V30 49 H -0.661262 0.689356 -1.19347 0
M  V30 50 H 1.45146 1.84068 -1.19932 0
M  V30 51 H 3.23182 -1.54186 0.692387 0
M  V30 52 H 6.54018 2.10934 -1.34865 0
M  V30 53 H 6.08471 3.06871 0.140762 0
M  V30 54 H 6.8529 0.952246 1.48641 0
M  V30 55 H 7.23343 0.231022 -0.106835 0
M  V30 56 H 8.47472 2.77594 1.08225 0
M  V30 57 H 9.22977 1.18666 1.0651 0
M  V30 58 H 10.1382 0.296957 -1.32438 0
M  V30 59 H -2.24481 0.0171147 1.38538 0
M  V30 END ATOM
M  V30 BEGIN BOND
M  V30 1 1 1 2
M  V30 2 2 2 3
M  V30 3 1 3 4
M  V30 4 1 4 5
M  V30 5 2 4 6
M  V30 6 1 6 7
M  V30 7 2 7 8
M  V30 8 1 8 9
M  V30 9 1 9 10
M  V30 10 1 10 11
M  V30 11 1 11 12
M  V30 12 2 12 13
M  V30 13 1 13 14
M  V30 14 2 14 15
M  V30 15 1 15 16
M  V30 16 1 12 17
M  V30 17 2 17 18
M  V30 18 1 18 19
M  V30 19 2 19 20
M  V30 20 1 20 21
M  V30 21 2 21 22
M  V30 22 1 22 23
M  V30 23 2 23 24
M  V30 24 1 23 25
M  V30 25 3 25 26
M  V30 26 1 26 27
M  V30 27 1 27 28
M  V30 28 1 28 29
M  V30 29 1 29 30
M  V30 30 1 30 31
M  V30 31 2 30 32
M  V30 32 1 8 33
M  V30 33 2 33 34
M  V30 34 1 34 35
M  V30 35 2 35 36
M  V30 36 1 36 2
M  V30 37 1 35 6
M  V30 38 1 20 10
M  V30 39 2 16 11
M  V30 40 1 24 19
M  V30 41 1 1 37
M  V30 42 1 1 38
M  V30 43 1 5 39
M  V30 44 1 5 40
M  V30 45 1 9 41
M  V30 46 1 9 42
M  V30 47 1 13 43
M  V30 48 1 14 44
M  V30 49 1 15 45
M  V30 50 1 16 46
M  V30 51 1 17 47
M  V30 52 1 18 48
M  V30 53 1 21 49
M  V30 54 1 22 50
M  V30 55 1 24 51
M  V30 56 1 27 52
M  V30 57 1 27 53
M  V30 58 1 28 54
M  V30 59 1 28 55
M  V30 60 1 29 56
M  V30 61 1 29 57
M  V30 62 1 31 58
M  V30 63 1 33 59
M  V30 END BOND
M  V30 END CTAB
M  END
