
     RDKit          3D

  0  0  0  0  0  0  0  0  0  0999 V3000
M  V30 BEGIN CTAB
M  V30 COUNTS 25 26 0 0 0
M  V30 BEGIN ATOM
M  V30 1 N 3.18093 1.5577 -0.255605 0
M  V30 2 C 2.28206 0.832661 0.566324 0
M  V30 3 C 1.50218 -0.19916 -0.231241 0
M  V30 4 C 2.19128 -1.27148 -0.952828 0
M  V30 5 C 1.85727 -1.63686 0.404564 0
M  V30 6 C 0.0107944 -0.0513673 -0.121389 0
M  V30 7 N -0.778397 1.06485 -0.257798 0
M  V30 8 N -2.05878 0.710457 -0.0837699 0
M  V30 9 C -2.14847 -0.628196 0.17392 0
M  V30 10 N -0.8685 -1.01729 0.126173 0
M  V30 11 N -3.30467 -1.41429 0.399805 0
M  V30 12 C -3.22229 1.54449 -0.0954251 0
M  V30 13 H 3.03061 1.54536 -1.22604 0
M  V30 14 H 4.02239 1.93119 0.108758 0
M  V30 15 H 1.48748 1.5985 0.975435 0
M  V30 16 H 2.76367 0.354385 1.40939 0
M  V30 17 H 1.73146 -1.84852 -1.80131 0
M  V30 18 H 3.30687 -1.17292 -1.17297 0
M  V30 19 H 2.41906 -1.52117 1.31865 0
M  V30 20 H 0.861026 -2.15936 0.632362 0
M  V30 21 H -3.90156 -1.43428 1.26704 0
M  V30 22 H -3.5796 -2.03344 -0.433399 0
M  V30 23 H -3.77775 1.30563 0.850928 0
M  V30 24 H -3.04738 2.63463 -0.167807 0
M  V30 25 H -3.95969 1.30847 -0.911979 0
M  V30 END ATOM
M  V30 BEGIN BOND
M  V30 1 1 1 2
M  V30 2 1 2 3
M  V30 3 1 3 4
M  V30 4 1 4 5
M  V30 5 1 3 6
M  V30 6 2 6 7
M  V30 7 1 7 8
M  V30 8 1 8 9
M  V30 9 2 9 10
M  V30 10 1 9 11
M  V30 11 1 8 12
M  V30 12 1 5 3
M  V30 13 1 10 6
M  V30 14 1 1 13
M  V30 15 1 1 14
M  V30 16 1 2 15
M  V30 17 1 2 16
M  V30 18 1 4 17
M  V30 19 1 4 18
M  V30 20 1 5 19
M  V30 21 1 5 20
M  V30 22 1 11 21
M  V30 23 1 11 22
M  V30 24 1 12 23
M  V30 25 1 12 24
M  V30 26 1 12 25
M  V30 END BOND
M  V30 END CTAB
M  END
