
     RDKit          3D

  0  0  0  0  0  0  0  0  0  0999 V3000
M  V30 BEGIN CTAB
M  V30 COUNTS 34 35 0 0 0
M  V30 BEGIN ATOM
M  V30 1 Br 8.19399 0.212128 -1.23392 0
M  V30 2 C 6.35929 0.297655 -0.689262 0
M  V30 3 C 5.36519 0.754856 -1.52941 0
M  V30 4 C 4.0508 0.818019 -1.14456 0
M  V30 5 C 3.66375 0.421731 0.11508 0
M  V30 6 C 4.6372 -0.0393319 0.974751 0
M  V30 7 C 5.95949 -0.0985509 0.575667 0
M  V30 8 O 2.33697 0.484084 0.507298 0
M  V30 9 C 1.3068 0.939315 -0.312055 0
M  V30 10 C -0.0167803 0.876697 0.423983 0
M  V30 11 S -0.311135 -0.834724 0.88131 0
M  V30 12 C -1.85212 -1.08272 1.76666 0
M  V30 13 C -3.05271 -0.820184 0.965975 0
M  V30 14 N -3.58963 -1.84753 0.2672 0
M  V30 15 C -4.6915 -1.6815 -0.49031 0
M  V30 16 N -5.24333 -2.77701 -1.22007 0
M  V30 17 N -5.29237 -0.490259 -0.575922 0
M  V30 18 C -4.77188 0.555746 0.116366 0
M  V30 19 N -3.66452 0.357905 0.868398 0
M  V30 20 N -5.40429 1.81596 0.027948 0
M  V30 21 H 5.64506 1.07702 -2.53848 0
M  V30 22 H 3.26221 1.18331 -1.81836 0
M  V30 23 H 4.33934 -0.359389 1.98616 0
M  V30 24 H 6.71278 -0.464605 1.26642 0
M  V30 25 H 1.26198 0.293712 -1.21267 0
M  V30 26 H 1.53755 1.97459 -0.658789 0
M  V30 27 H -0.779471 1.2503 -0.321707 0
M  V30 28 H -0.0216215 1.56922 1.27981 0
M  V30 29 H -1.88499 -2.13869 2.10389 0
M  V30 30 H -1.8933 -0.476755 2.7176 0
M  V30 31 H -5.19307 -2.75808 -2.25048 0
M  V30 32 H -5.68394 -3.57087 -0.707174 0
M  V30 33 H -5.31154 2.52279 0.77368 0
M  V30 34 H -5.97419 2.03515 -0.805108 0
M  V30 END ATOM
M  V30 BEGIN BOND
M  V30 1 1 1 2
M  V30 2 2 2 3
M  V30 3 1 3 4
M  V30 4 2 4 5
M  V30 5 1 5 6
M  V30 6 2 6 7
M  V30 7 1 5 8
M  V30 8 1 8 9
M  V30 9 1 9 10
M  V30 10 1 10 11
M  V30 11 1 11 12
M  V30 12 1 12 13
M  V30 13 2 13 14
M  V30 14 1 14 15
M  V30 15 1 15 16
M  V30 16 2 15 17
M  V30 17 1 17 18
M  V30 18 2 18 19
M  V30 19 1 18 20
M  V30 20 1 7 2
M  V30 21 1 19 13
M  V30 22 1 3 21
M  V30 23 1 4 22
M  V30 24 1 6 23
M  V30 25 1 7 24
M  V30 26 1 9 25
M  V30 27 1 9 26
M  V30 28 1 10 27
M  V30 29 1 10 28
M  V30 30 1 12 29
M  V30 31 1 12 30
M  V30 32 1 16 31
M  V30 33 1 16 32
M  V30 34 1 20 33
M  V30 35 1 20 34
M  V30 END BOND
M  V30 END CTAB
M  END
