
     RDKit          3D

  0  0  0  0  0  0  0  0  0  0999 V3000
M  V30 BEGIN CTAB
M  V30 COUNTS 24 26 0 0 0
M  V30 BEGIN ATOM
M  V30 1 N 4.40327 1.4785 0.249636 0
M  V30 2 C 3.13102 0.847217 0.111429 0
M  V30 3 C 3.06006 -0.484601 -0.24721 0
M  V30 4 C 1.87771 -1.17247 -0.403048 0
M  V30 5 C 0.686096 -0.476275 -0.184054 0
M  V30 6 C 0.712142 0.852558 0.17493 0
M  V30 7 C 1.94138 1.50806 0.32081 0
M  V30 8 C -0.742638 0.827677 0.205524 0
M  V30 9 C -0.75087 -0.500001 -0.1536 0
M  V30 10 C -1.92715 -1.21886 -0.317975 0
M  V30 11 C -3.13697 -0.577545 -0.113358 0
M  V30 12 C -3.10747 0.774171 0.251726 0
M  V30 13 C -1.93205 1.46084 0.40741 0
M  V30 14 N -4.35841 -1.26861 -0.269046 0
M  V30 15 H 4.64055 2.32866 -0.291004 0
M  V30 16 H 5.14553 1.10424 0.904555 0
M  V30 17 H 4.02314 -0.994386 -0.409891 0
M  V30 18 H 1.85844 -2.22427 -0.68722 0
M  V30 19 H 1.94635 2.54108 0.600273 0
M  V30 20 H -1.87906 -2.26055 -0.601123 0
M  V30 21 H -4.07446 1.2325 0.400583 0
M  V30 22 H -1.9239 2.50341 0.689386 0
M  V30 23 H -4.49765 -1.8898 -1.08104 0
M  V30 24 H -5.09508 -1.13548 0.442308 0
M  V30 END ATOM
M  V30 BEGIN BOND
M  V30 1 1 1 2
M  V30 2 2 2 3
M  V30 3 1 3 4
M  V30 4 2 4 5
M  V30 5 1 5 6
M  V30 6 2 6 7
M  V30 7 1 6 8
M  V30 8 2 8 9
M  V30 9 1 9 10
M  V30 10 2 10 11
M  V30 11 1 11 12
M  V30 12 2 12 13
M  V30 13 1 11 14
M  V30 14 1 7 2
M  V30 15 1 13 8
M  V30 16 1 9 5
M  V30 17 1 1 15
M  V30 18 1 1 16
M  V30 19 1 3 17
M  V30 20 1 4 18
M  V30 21 1 7 19
M  V30 22 1 10 20
M  V30 23 1 12 21
M  V30 24 1 13 22
M  V30 25 1 14 23
M  V30 26 1 14 24
M  V30 END BOND
M  V30 END CTAB
M  END
