
     RDKit          3D

  0  0  0  0  0  0  0  0  0  0999 V3000
M  V30 BEGIN CTAB
M  V30 COUNTS 51 55 0 0 0
M  V30 BEGIN ATOM
M  V30 1 N -3.82811 -5.01772 0.248263 0
M  V30 2 C -3.5085 -3.65774 -0.0194971 0
M  V30 3 N -4.17468 -2.65999 0.593401 0
M  V30 4 C -3.90318 -1.36351 0.368364 0
M  V30 5 N -4.6235 -0.413384 1.01661 0
M  V30 6 C -4.39099 0.893734 0.814416 0
M  V30 7 C -5.13166 1.86405 1.47998 0
M  V30 8 C -4.87747 3.19735 1.25847 0
M  V30 9 Cl -5.82467 4.42713 2.10951 0
M  V30 10 C -3.88609 3.54908 0.374447 0
M  V30 11 C -3.16119 2.57412 -0.277067 0
M  V30 12 C -3.39565 1.22624 -0.073239 0
M  V30 13 C -2.62603 0.290694 -0.764731 0
M  V30 14 N -1.62165 0.710519 -1.66254 0
M  V30 15 C -0.30786 1.05853 -1.19804 0
M  V30 16 C 0.654898 1.48361 -2.08259 0
M  V30 17 C 1.92503 1.82991 -1.68993 0
M  V30 18 C 2.3048 1.7639 -0.339616 0
M  V30 19 C 1.33262 1.33743 0.533405 0
M  V30 20 C 0.0536092 0.99006 0.128179 0
M  V30 21 S 3.9186 2.25318 0.134775 0
M  V30 22 O 4.26503 3.59338 -0.502005 0
M  V30 23 O 3.82052 2.56952 1.6205 0
M  V30 24 N 5.13727 1.13325 -0.198556 0
M  V30 25 C 5.29891 -0.16367 0.299919 0
M  V30 26 N 6.34096 -0.932468 -0.125216 0
M  V30 27 C 6.58339 -2.16893 0.318938 0
M  V30 28 C 5.75392 -2.75483 1.27241 0
M  V30 29 C 4.69766 -1.98987 1.71128 0
M  V30 30 C 4.47024 -0.70919 1.23316 0
M  V30 31 C -2.89414 -1.03036 -0.53269 0
M  V30 32 C -2.21548 -2.04863 -1.1582 0
M  V30 33 N -1.19363 -1.81368 -2.09759 0
M  V30 34 N -2.53708 -3.34925 -0.888032 0
M  V30 35 H -3.35517 -5.52218 1.02847 0
M  V30 36 H -4.53019 -5.5507 -0.310808 0
M  V30 37 H -5.91294 1.6088 2.17676 0
M  V30 38 H -3.70067 4.59924 0.213189 0
M  V30 39 H -2.39157 2.87516 -0.963238 0
M  V30 40 H -1.8628 0.771137 -2.67244 0
M  V30 41 H 0.34185 1.53009 -3.13807 0
M  V30 42 H 2.64927 2.15836 -2.41851 0
M  V30 43 H 1.61596 1.28054 1.59639 0
M  V30 44 H -0.67455 0.662065 0.844436 0
M  V30 45 H 5.91177 1.4378 -0.890969 0
M  V30 46 H 7.44278 -2.6862 -0.0916301 0
M  V30 47 H 5.96077 -3.74123 1.61572 0
M  V30 48 H 4.03989 -2.42862 2.45414 0
M  V30 49 H 3.62776 -0.199651 1.6594 0
M  V30 50 H -0.206158 -1.97073 -1.82901 0
M  V30 51 H -1.4119 -1.49634 -3.05367 0
M  V30 END ATOM
M  V30 BEGIN BOND
M  V30 1 1 1 2
M  V30 2 2 2 3
M  V30 3 1 3 4
M  V30 4 2 4 5
M  V30 5 1 5 6
M  V30 6 2 6 7
M  V30 7 1 7 8
M  V30 8 1 8 9
M  V30 9 2 8 10
M  V30 10 1 10 11
M  V30 11 2 11 12
M  V30 12 1 12 13
M  V30 13 1 13 14
M  V30 14 1 14 15
M  V30 15 2 15 16
M  V30 16 1 16 17
M  V30 17 2 17 18
M  V30 18 1 18 19
M  V30 19 2 19 20
M  V30 20 1 18 21
M  V30 21 2 21 22
M  V30 22 2 21 23
M  V30 23 1 21 24
M  V30 24 1 24 25
M  V30 25 2 25 26
M  V30 26 1 26 27
M  V30 27 2 27 28
M  V30 28 1 28 29
M  V30 29 2 29 30
M  V30 30 2 13 31
M  V30 31 1 31 32
M  V30 32 1 32 33
M  V30 33 2 32 34
M  V30 34 1 34 2
M  V30 35 1 31 4
M  V30 36 1 12 6
M  V30 37 1 20 15
M  V30 38 1 30 25
M  V30 39 1 1 35
M  V30 40 1 1 36
M  V30 41 1 7 37
M  V30 42 1 10 38
M  V30 43 1 11 39
M  V30 44 1 14 40
M  V30 45 1 16 41
M  V30 46 1 17 42
M  V30 47 1 19 43
M  V30 48 1 20 44
M  V30 49 1 24 45
M  V30 50 1 27 46
M  V30 51 1 28 47
M  V30 52 1 29 48
M  V30 53 1 30 49
M  V30 54 1 33 50
M  V30 55 1 33 51
M  V30 END BOND
M  V30 END CTAB
M  END
