
     RDKit          3D

  0  0  0  0  0  0  0  0  0  0999 V3000
M  V30 BEGIN CTAB
M  V30 COUNTS 22 22 0 0 0
M  V30 BEGIN ATOM
M  V30 1 C 2.91945 0.625956 0.270873 0
M  V30 2 C 2.82302 -0.598811 -0.587956 0
M  V30 3 S 1.56651 -0.330082 -1.84907 0
M  V30 4 C -0.0697212 -0.169995 -1.15487 0
M  V30 5 N -0.869058 -1.23219 -0.943248 0
M  V30 6 C -2.11501 -1.14588 -0.423028 0
M  V30 7 N -2.91633 -2.31619 -0.219494 0
M  V30 8 C -2.58658 0.103318 -0.0934913 0
M  V30 9 C -1.7991 1.21245 -0.295857 0
M  V30 10 N -0.553214 1.04834 -0.824217 0
M  V30 11 N -2.25515 2.51528 0.0293663 0
M  V30 12 C 4.1006 -0.849808 -1.28716 0
M  V30 13 N 5.10869 -1.06365 -1.8201 0
M  V30 14 H 3.4682 1.40504 -0.32207 0
M  V30 15 H 3.46913 0.407923 1.23582 0
M  V30 16 H 1.89316 0.983354 0.510568 0
M  V30 17 H 2.5956 -1.47964 0.0566555 0
M  V30 18 H -3.64505 -2.5456 -0.925335 0
M  V30 19 H -2.7075 -2.86702 0.640132 0
M  V30 20 H -3.57134 0.220987 0.321688 0
M  V30 21 H -2.01859 3.33749 -0.594533 0
M  V30 22 H -2.83774 2.73873 0.879226 0
M  V30 END ATOM
M  V30 BEGIN BOND
M  V30 1 1 1 2
M  V30 2 1 2 3
M  V30 3 1 3 4
M  V30 4 2 4 5
M  V30 5 1 5 6
M  V30 6 1 6 7
M  V30 7 2 6 8
M  V30 8 1 8 9
M  V30 9 2 9 10
M  V30 10 1 9 11
M  V30 11 1 2 12
M  V30 12 3 12 13
M  V30 13 1 10 4
M  V30 14 1 1 14
M  V30 15 1 1 15
M  V30 16 1 1 16
M  V30 17 1 2 17
M  V30 18 1 7 18
M  V30 19 1 7 19
M  V30 20 1 8 20
M  V30 21 1 11 21
M  V30 22 1 11 22
M  V30 END BOND
M  V30 END CTAB
M  END
