
     RDKit          3D

  0  0  0  0  0  0  0  0  0  0999 V3000
M  V30 BEGIN CTAB
M  V30 COUNTS 27 26 0 0 0
M  V30 BEGIN ATOM
M  V30 1 C 2.63699 -0.356252 0.418966 0 CFG=2
M  V30 2 N 2.48789 0.860754 1.1515 0
M  V30 3 C 3.85205 -0.420364 -0.434715 0
M  V30 4 O 4.979 -0.286709 0.370242 0
M  V30 5 C 1.38834 -0.546159 -0.444654 0
M  V30 6 O 0.304381 -0.604824 0.43305 0
M  V30 7 C -1.00459 -0.76534 0.118525 0
M  V30 8 C -1.87935 0.171022 0.408134 0
M  V30 9 C -3.32142 0.0125824 0.070448 0 CFG=2
M  V30 10 N -3.46886 -1.09977 -0.817313 0
M  V30 11 C -3.80624 1.272 -0.544399 0
M  V30 12 O -3.74871 2.46087 0.15575 0
M  V30 13 O -4.26395 1.23228 -1.70067 0
M  V30 14 H 2.65188 -1.21681 1.13077 0
M  V30 15 H 3.34793 1.05741 1.67798 0
M  V30 16 H 2.12703 1.65817 0.599368 0
M  V30 17 H 3.88372 -1.41855 -0.919671 0
M  V30 18 H 3.82626 0.358631 -1.23494 0
M  V30 19 H 4.76069 -0.549141 1.3114 0
M  V30 20 H 1.55695 -1.51281 -0.990709 0
M  V30 21 H 1.31414 0.23329 -1.21861 0
M  V30 22 H -1.34004 -1.65738 -0.369581 0
M  V30 23 H -1.52613 1.08481 0.909878 0
M  V30 24 H -3.87089 -0.165999 1.02447 0
M  V30 25 H -4.23876 -0.98819 -1.51241 0
M  V30 26 H -3.50562 -2.01749 -0.321875 0
M  V30 27 H -3.14269 3.20396 -0.124072 0
M  V30 END ATOM
M  V30 BEGIN BOND
M  V30 1 1 1 2
M  V30 2 1 1 3
M  V30 3 1 3 4
M  V30 4 1 1 5
M  V30 5 1 5 6
M  V30 6 1 6 7
M  V30 7 2 7 8
M  V30 8 1 8 9
M  V30 9 1 9 10
M  V30 10 1 9 11
M  V30 11 1 11 12
M  V30 12 2 11 13
M  V30 13 1 1 14 CFG=1
M  V30 14 1 2 15
M  V30 15 1 2 16
M  V30 16 1 3 17
M  V30 17 1 3 18
M  V30 18 1 4 19
M  V30 19 1 5 20
M  V30 20 1 5 21
M  V30 21 1 7 22
M  V30 22 1 8 23
M  V30 23 1 9 24 CFG=1
M  V30 24 1 10 25
M  V30 25 1 10 26
M  V30 26 1 12 27
M  V30 END BOND
M  V30 END CTAB
M  END
