
     RDKit          3D

  0  0  0  0  0  0  0  0  0  0999 V3000
M  V30 BEGIN CTAB
M  V30 COUNTS 32 34 0 0 0
M  V30 BEGIN ATOM
M  V30 1 C -1.65177 -2.24621 -1.7431 0
M  V30 2 C -0.560015 -1.48112 -1.11444 0
M  V30 3 N 0.766767 -1.64338 -1.15971 0
M  V30 4 N 1.34936 -0.670917 -0.428474 0
M  V30 5 C 0.406509 0.124984 0.0935017 0
M  V30 6 C -0.814516 -0.365974 -0.323347 0
M  V30 7 C -2.11927 0.171734 0.073623 0
M  V30 8 C -2.49543 0.0932176 1.42104 0
M  V30 9 C -3.71495 0.528566 1.88629 0
M  V30 10 C -4.60084 1.06425 0.979212 0
M  V30 11 C -4.26137 1.15485 -0.345611 0
M  V30 12 C -3.02285 0.708474 -0.7975 0
M  V30 13 N 0.773303 1.1735 0.882801 0
M  V30 14 N 2.05091 1.39573 1.13283 0
M  V30 15 C 3.02857 0.608701 0.623685 0
M  V30 16 C 2.637 -0.442663 -0.174274 0
M  V30 17 N 3.66705 -1.26426 -0.697784 0
M  V30 18 C 4.45062 0.865735 0.929285 0
M  V30 19 S 5.22018 -0.26561 1.83593 0
M  V30 20 N 5.09243 2.02834 0.457626 0
M  V30 21 H -1.92562 -1.74793 -2.71287 0
M  V30 22 H -1.33959 -3.27882 -1.93478 0
M  V30 23 H -2.58633 -2.22247 -1.15497 0
M  V30 24 H -1.78149 -0.328602 2.12669 0
M  V30 25 H -4.01812 0.474989 2.92514 0
M  V30 26 H -5.55724 1.40137 1.36346 0
M  V30 27 H -4.98891 1.57684 -1.0332 0
M  V30 28 H -2.78813 0.79092 -1.85432 0
M  V30 29 H 3.89416 -2.22552 -0.358148 0
M  V30 30 H 4.2397 -0.88305 -1.47373 0
M  V30 31 H 5.42861 2.73725 1.12788 0
M  V30 32 H 5.22127 2.16708 -0.552714 0
M  V30 END ATOM
M  V30 BEGIN BOND
M  V30 1 1 1 2
M  V30 2 2 2 3
M  V30 3 1 3 4
M  V30 4 1 4 5
M  V30 5 2 5 6
M  V30 6 1 6 7
M  V30 7 2 7 8
M  V30 8 1 8 9
M  V30 9 2 9 10
M  V30 10 1 10 11
M  V30 11 2 11 12
M  V30 12 1 5 13
M  V30 13 2 13 14
M  V30 14 1 14 15
M  V30 15 2 15 16
M  V30 16 1 16 17
M  V30 17 1 15 18
M  V30 18 2 18 19
M  V30 19 1 18 20
M  V30 20 1 6 2
M  V30 21 1 12 7
M  V30 22 1 16 4
M  V30 23 1 1 21
M  V30 24 1 1 22
M  V30 25 1 1 23
M  V30 26 1 8 24
M  V30 27 1 9 25
M  V30 28 1 10 26
M  V30 29 1 11 27
M  V30 30 1 12 28
M  V30 31 1 17 29
M  V30 32 1 17 30
M  V30 33 1 20 31
M  V30 34 1 20 32
M  V30 END BOND
M  V30 END CTAB
M  END
