
     RDKit          3D

  0  0  0  0  0  0  0  0  0  0999 V3000
M  V30 BEGIN CTAB
M  V30 COUNTS 25 25 0 0 0
M  V30 BEGIN ATOM
M  V30 1 C -1.22368 -1.77138 -0.430896 0
M  V30 2 C -1.13819 -0.315266 0.05209 0
M  V30 3 N 0.255406 0.0282167 0.0492488 0
M  V30 4 N 1.18473 -0.77197 0.545826 0
M  V30 5 C 2.3892 -0.219121 0.419382 0
M  V30 6 C 2.21175 1.01056 -0.196994 0
M  V30 7 C 0.875495 1.12374 -0.408583 0
M  V30 8 N 0.228857 2.21 -1.01055 0
M  V30 9 N 3.60072 -0.809426 0.847402 0
M  V30 10 C -1.95966 0.503308 -0.895723 0
M  V30 11 C -1.6829 -0.326221 1.45869 0
M  V30 12 H -0.56019 -2.36323 0.226072 0
M  V30 13 H -2.24218 -2.16955 -0.295709 0
M  V30 14 H -0.870632 -1.85026 -1.48166 0
M  V30 15 H 2.95805 1.72711 -0.456477 0
M  V30 16 H 0.103495 2.29652 -2.03954 0
M  V30 17 H -0.13972 2.96069 -0.3865 0
M  V30 18 H 4.20248 -1.31675 0.186391 0
M  V30 19 H 3.8843 -0.729218 1.83861 0
M  V30 20 H -2.21782 1.50435 -0.523173 0
M  V30 21 H -2.94687 -0.0361267 -1.0083 0
M  V30 22 H -1.49019 0.474026 -1.87915 0
M  V30 23 H -0.953723 -0.91687 2.06937 0
M  V30 24 H -2.6298 -0.928361 1.45558 0
M  V30 25 H -1.83893 0.685225 1.86459 0
M  V30 END ATOM
M  V30 BEGIN BOND
M  V30 1 1 1 2
M  V30 2 1 2 3
M  V30 3 1 3 4
M  V30 4 2 4 5
M  V30 5 1 5 6
M  V30 6 2 6 7
M  V30 7 1 7 8
M  V30 8 1 5 9
M  V30 9 1 2 10
M  V30 10 1 2 11
M  V30 11 1 7 3
M  V30 12 1 1 12
M  V30 13 1 1 13
M  V30 14 1 1 14
M  V30 15 1 6 15
M  V30 16 1 8 16
M  V30 17 1 8 17
M  V30 18 1 9 18
M  V30 19 1 9 19
M  V30 20 1 10 20
M  V30 21 1 10 21
M  V30 22 1 10 22
M  V30 23 1 11 23
M  V30 24 1 11 24
M  V30 25 1 11 25
M  V30 END BOND
M  V30 END CTAB
M  END
