
     RDKit          3D

  0  0  0  0  0  0  0  0  0  0999 V3000
M  V30 BEGIN CTAB
M  V30 COUNTS 31 32 0 0 0
M  V30 BEGIN ATOM
M  V30 1 N 4.49173 -0.0802817 0.552905 0
M  V30 2 C 3.05313 -0.100575 0.702166 0
M  V30 3 C 2.44811 1.2522 0.454201 0
M  V30 4 C 0.977119 1.20289 0.662614 0
M  V30 5 N 0.331478 0.0244914 0.124537 0
M  V30 6 C 1.02412 -1.12475 -0.369404 0
M  V30 7 C 2.5033 -1.06092 -0.318367 0
M  V30 8 C -1.08214 0.0256023 0.0924371 0
M  V30 9 C -1.83619 1.09865 0.557908 0
M  V30 10 C -3.20861 1.0129 0.487359 0
M  V30 11 C -3.83848 -0.110222 -0.0328737 0
M  V30 12 C -3.10857 -1.19063 -0.502217 0
M  V30 13 C -1.73124 -1.07387 -0.417596 0
M  V30 14 N -5.26116 -0.18059 -0.0976782 0
M  V30 15 H 4.99675 -0.357895 1.41792 0
M  V30 16 H 4.84321 0.793705 0.117939 0
M  V30 17 H 2.75903 -0.426378 1.71513 0
M  V30 18 H 2.70347 1.6284 -0.568658 0
M  V30 19 H 2.89702 1.95577 1.18445 0
M  V30 20 H 0.503306 2.09362 0.153734 0
M  V30 21 H 0.702157 1.3027 1.73711 0
M  V30 22 H 0.625677 -2.02521 0.183433 0
M  V30 23 H 0.719425 -1.24963 -1.44656 0
M  V30 24 H 2.93987 -2.06702 -0.0716422 0
M  V30 25 H 2.97508 -0.791086 -1.3038 0
M  V30 26 H -1.36558 1.96342 0.958243 0
M  V30 27 H -3.81577 1.8535 0.851614 0
M  V30 28 H -3.6043 -2.06357 -0.906684 0
M  V30 29 H -1.16206 -1.94029 -0.794414 0
M  V30 30 H -5.76819 0.731427 -0.228778 0
M  V30 31 H -5.71169 -1.09635 -0.0152252 0
M  V30 END ATOM
M  V30 BEGIN BOND
M  V30 1 1 1 2
M  V30 2 1 2 3
M  V30 3 1 3 4
M  V30 4 1 4 5
M  V30 5 1 5 6
M  V30 6 1 6 7
M  V30 7 1 5 8
M  V30 8 2 8 9
M  V30 9 1 9 10
M  V30 10 2 10 11
M  V30 11 1 11 12
M  V30 12 2 12 13
M  V30 13 1 11 14
M  V30 14 1 7 2
M  V30 15 1 13 8
M  V30 16 1 1 15
M  V30 17 1 1 16
M  V30 18 1 2 17
M  V30 19 1 3 18
M  V30 20 1 3 19
M  V30 21 1 4 20
M  V30 22 1 4 21
M  V30 23 1 6 22
M  V30 24 1 6 23
M  V30 25 1 7 24
M  V30 26 1 7 25
M  V30 27 1 9 26
M  V30 28 1 10 27
M  V30 29 1 12 28
M  V30 30 1 13 29
M  V30 31 1 14 30
M  V30 32 1 14 31
M  V30 END BOND
M  V30 END CTAB
M  END
