
     RDKit          3D

  0  0  0  0  0  0  0  0  0  0999 V3000
M  V30 BEGIN CTAB
M  V30 COUNTS 27 27 0 0 0
M  V30 BEGIN ATOM
M  V30 1 N -1.53073 2.12452 -0.933567 0
M  V30 2 C -0.371415 1.29538 -1.24296 0
M  V30 3 C -0.107278 0.331634 -0.0888057 0
M  V30 4 C -1.36284 -0.516276 0.0512523 0
M  V30 5 C -2.23848 -0.0636044 1.17278 0
M  V30 6 C -0.742392 -1.87574 0.393338 0
M  V30 7 C 0.459779 -1.88186 -0.528932 0
M  V30 8 N 0.947996 -0.539864 -0.481442 0
M  V30 9 S 2.39295 -0.349497 0.414911 0
M  V30 10 O 3.44915 -1.31987 0.039858 0
M  V30 11 O 2.0688 -0.501314 1.87192 0
M  V30 12 N 2.95222 1.26905 0.154227 0
M  V30 13 H -1.50555 2.31748 0.0896797 0
M  V30 14 H -1.54828 2.96288 -1.53118 0
M  V30 15 H 0.492859 1.98803 -1.39277 0
M  V30 16 H -0.546817 0.780095 -2.18511 0
M  V30 17 H 0.101183 0.915905 0.81791 0
M  V30 18 H -1.89427 -0.632088 -0.917192 0
M  V30 19 H -2.53925 -0.911072 1.85552 0
M  V30 20 H -3.19652 0.336777 0.773653 0
M  V30 21 H -1.7399 0.670163 1.84905 0
M  V30 22 H -1.4648 -2.67933 0.125964 0
M  V30 23 H -0.444838 -1.93362 1.44719 0
M  V30 24 H 0.112191 -2.07227 -1.57056 0
M  V30 25 H 1.22203 -2.62687 -0.212261 0
M  V30 26 H 3.65976 1.56216 0.842723 0
M  V30 27 H 3.37442 1.34918 -0.815191 0
M  V30 END ATOM
M  V30 BEGIN BOND
M  V30 1 1 1 2
M  V30 2 1 2 3
M  V30 3 1 3 4
M  V30 4 1 4 5
M  V30 5 1 4 6
M  V30 6 1 6 7
M  V30 7 1 7 8
M  V30 8 1 8 9
M  V30 9 2 9 10
M  V30 10 2 9 11
M  V30 11 1 9 12
M  V30 12 1 8 3
M  V30 13 1 1 13
M  V30 14 1 1 14
M  V30 15 1 2 15
M  V30 16 1 2 16
M  V30 17 1 3 17
M  V30 18 1 4 18
M  V30 19 1 5 19
M  V30 20 1 5 20
M  V30 21 1 5 21
M  V30 22 1 6 22
M  V30 23 1 6 23
M  V30 24 1 7 24
M  V30 25 1 7 25
M  V30 26 1 12 26
M  V30 27 1 12 27
M  V30 END BOND
M  V30 END CTAB
M  END
