
     RDKit          3D

  0  0  0  0  0  0  0  0  0  0999 V3000
M  V30 BEGIN CTAB
M  V30 COUNTS 28 30 0 0 0
M  V30 BEGIN ATOM
M  V30 1 N 5.0629 -0.856958 0.255587 0
M  V30 2 C 3.74823 -0.317776 0.191994 0
M  V30 3 C 2.62574 -1.12501 0.208833 0
M  V30 4 C 1.36436 -0.572814 0.145866 0
M  V30 5 C 1.16268 0.792195 0.0641539 0
M  V30 6 C 2.29776 1.58771 0.0482943 0
M  V30 7 C 3.55319 1.04164 0.11077 0
M  V30 8 Br 5.1179 2.14983 0.0882567 0
M  V30 9 C -0.162001 1.37912 -0.0023578 0
M  V30 10 O -0.26533 2.61423 -0.0742871 0
M  V30 11 C -1.34196 0.546827 0.0144383 0
M  V30 12 C -2.60629 1.133 -0.0505004 0
M  V30 13 C -3.72386 0.326801 -0.0335844 0
M  V30 14 N -5.03044 0.882927 -0.0979056 0
M  V30 15 C -3.58101 -1.03263 0.0463173 0
M  V30 16 Br -5.14352 -2.13254 0.068435 0
M  V30 17 C -2.31993 -1.59772 0.109989 0
M  V30 18 C -1.18731 -0.821161 0.0951235 0
M  V30 19 C 0.157423 -1.4043 0.161932 0
M  V30 20 O 0.287696 -2.63756 0.234441 0
M  V30 21 H 5.89248 -0.412327 -0.189335 0
M  V30 22 H 5.20399 -1.73706 0.770567 0
M  V30 23 H 2.70475 -2.20033 0.271184 0
M  V30 24 H 2.17977 2.67802 -0.0158865 0
M  V30 25 H -2.72995 2.20391 -0.113728 0
M  V30 26 H -5.76715 0.609962 0.600203 0
M  V30 27 H -5.30139 1.56736 -0.823819 0
M  V30 28 H -2.19873 -2.66533 0.172967 0
M  V30 END ATOM
M  V30 BEGIN BOND
M  V30 1 1 1 2
M  V30 2 2 2 3
M  V30 3 1 3 4
M  V30 4 2 4 5
M  V30 5 1 5 6
M  V30 6 2 6 7
M  V30 7 1 7 8
M  V30 8 1 5 9
M  V30 9 2 9 10
M  V30 10 1 9 11
M  V30 11 2 11 12
M  V30 12 1 12 13
M  V30 13 1 13 14
M  V30 14 2 13 15
M  V30 15 1 15 16
M  V30 16 1 15 17
M  V30 17 2 17 18
M  V30 18 1 18 19
M  V30 19 2 19 20
M  V30 20 1 7 2
M  V30 21 1 18 11
M  V30 22 1 19 4
M  V30 23 1 1 21
M  V30 24 1 1 22
M  V30 25 1 3 23
M  V30 26 1 6 24
M  V30 27 1 12 25
M  V30 28 1 14 26
M  V30 29 1 14 27
M  V30 30 1 17 28
M  V30 END BOND
M  V30 END CTAB
M  END
