
     RDKit          3D

  0  0  0  0  0  0  0  0  0  0999 V3000
M  V30 BEGIN CTAB
M  V30 COUNTS 28 30 0 0 0
M  V30 BEGIN ATOM
M  V30 1 N 0.718508 -1.7201 0.770274 0
M  V30 2 C 1.90959 -0.973094 0.509534 0
M  V30 3 C 1.86575 0.275494 -0.157022 0
M  V30 4 C 3.10223 0.838779 -0.357925 0
M  V30 5 S 2.74367 2.29192 -1.18346 0
M  V30 6 C 1.06296 2.16632 -1.25873 0
M  V30 7 C 0.794838 0.964496 -0.623402 0
M  V30 8 C -0.633238 0.541318 -0.439449 0
M  V30 9 C -1.37366 0.167955 -1.53608 0
M  V30 10 C -2.70813 -0.173878 -1.46597 0
M  V30 11 F -3.43317 -0.541528 -2.55249 0
M  V30 12 C -3.309 -0.130912 -0.217373 0
M  V30 13 N -4.69303 -0.483595 -0.133249 0
M  V30 14 C -2.59698 0.239101 0.90503 0
M  V30 15 C -1.27039 0.569055 0.774374 0
M  V30 16 C 4.30784 0.239853 0.0584169 0
M  V30 17 C 4.28726 -0.976534 0.704531 0
M  V30 18 N 3.08042 -1.50707 0.888807 0
M  V30 19 H 0.140567 -2.11921 -0.000824129 0
M  V30 20 H 0.392661 -1.89202 1.75421 0
M  V30 21 H 0.300489 2.84543 -1.69632 0
M  V30 22 H -0.910654 0.131704 -2.51762 0
M  V30 23 H -5.42112 -0.108644 -0.778844 0
M  V30 24 H -5.00459 -1.14713 0.604654 0
M  V30 25 H -3.08376 0.269605 1.88995 0
M  V30 26 H -0.692306 0.865938 1.66376 0
M  V30 27 H 5.20987 0.779247 -0.155919 0
M  V30 28 H 5.21339 -1.41251 1.01211 0
M  V30 END ATOM
M  V30 BEGIN BOND
M  V30 1 1 1 2
M  V30 2 2 2 3
M  V30 3 1 3 4
M  V30 4 1 4 5
M  V30 5 1 5 6
M  V30 6 2 6 7
M  V30 7 1 7 8
M  V30 8 2 8 9
M  V30 9 1 9 10
M  V30 10 1 10 11
M  V30 11 2 10 12
M  V30 12 1 12 13
M  V30 13 1 12 14
M  V30 14 2 14 15
M  V30 15 2 4 16
M  V30 16 1 16 17
M  V30 17 2 17 18
M  V30 18 1 18 2
M  V30 19 1 7 3
M  V30 20 1 15 8
M  V30 21 1 1 19
M  V30 22 1 1 20
M  V30 23 1 6 21
M  V30 24 1 9 22
M  V30 25 1 13 23
M  V30 26 1 13 24
M  V30 27 1 14 25
M  V30 28 1 15 26
M  V30 29 1 16 27
M  V30 30 1 17 28
M  V30 END BOND
M  V30 END CTAB
M  END
