
     RDKit          3D

  0  0  0  0  0  0  0  0  0  0999 V3000
M  V30 BEGIN CTAB
M  V30 COUNTS 21 21 0 0 0
M  V30 BEGIN ATOM
M  V30 1 C -3.22 0.678928 -0.23789 0
M  V30 2 O -2.27756 -0.296815 0.0447363 0
M  V30 3 C -0.910896 -0.150999 0.0318878 0
M  V30 4 C -0.333435 1.05938 -0.284663 0
M  V30 5 C 1.062 1.1788 -0.289806 0
M  V30 6 O 1.68015 2.37099 -0.600636 0
M  V30 7 C 1.83921 0.0774883 0.023611 0
M  V30 8 C 1.26471 -1.13469 0.34071 0
M  V30 9 C -0.131654 -1.23996 0.342002 0
M  V30 10 N -0.779451 -2.45899 0.659543 0
M  V30 11 N 3.25036 0.210361 0.0151216 0
M  V30 12 H -3.64284 1.17943 0.65872 0
M  V30 13 H -2.84752 1.40215 -0.99884 0
M  V30 14 H -4.09241 0.166287 -0.736747 0
M  V30 15 H -0.929782 1.91284 -0.527432 0
M  V30 16 H 2.68706 2.41305 -0.592399 0
M  V30 17 H 1.85893 -2.01187 0.589859 0
M  V30 18 H -1.65032 -2.49859 1.22824 0
M  V30 19 H -0.387164 -3.35858 0.322023 0
M  V30 20 H 3.7221 1.00831 0.468133 0
M  V30 21 H 3.83851 -0.50751 -0.456171 0
M  V30 END ATOM
M  V30 BEGIN BOND
M  V30 1 1 1 2
M  V30 2 1 2 3
M  V30 3 2 3 4
M  V30 4 1 4 5
M  V30 5 1 5 6
M  V30 6 2 5 7
M  V30 7 1 7 8
M  V30 8 2 8 9
M  V30 9 1 9 10
M  V30 10 1 7 11
M  V30 11 1 9 3
M  V30 12 1 1 12
M  V30 13 1 1 13
M  V30 14 1 1 14
M  V30 15 1 4 15
M  V30 16 1 6 16
M  V30 17 1 8 17
M  V30 18 1 10 18
M  V30 19 1 10 19
M  V30 20 1 11 20
M  V30 21 1 11 21
M  V30 END BOND
M  V30 END CTAB
M  END
