
     RDKit          3D

  0  0  0  0  0  0  0  0  0  0999 V3000
M  V30 BEGIN CTAB
M  V30 COUNTS 22 23 0 0 0
M  V30 BEGIN ATOM
M  V30 1 C 2.55733 1.36579 0.114725 0
M  V30 2 C 2.22765 -0.112526 0.13581 0
M  V30 3 C 3.24954 -1.00179 0.220786 0
M  V30 4 S 2.49892 -2.51823 0.21793 0
M  V30 5 C 0.861764 -1.96363 0.105681 0
M  V30 6 C 0.971475 -0.597034 0.0746672 0
M  V30 7 C -0.232949 0.257956 -0.0201629 0
M  V30 8 N -0.233948 1.62859 -0.0576962 0
M  V30 9 N -1.47072 2.06861 -0.143099 0
M  V30 10 C -2.31118 1.04592 -0.164998 0
M  V30 11 N -1.52131 -0.0715687 -0.087588 0
M  V30 12 N -2.06393 -1.35761 -0.0846303 0
M  V30 13 N -3.72244 1.05238 -0.248892 0
M  V30 14 H 3.61755 1.56832 0.16986 0
M  V30 15 H 2.10282 1.87249 1.00093 0
M  V30 16 H 2.20871 1.82284 -0.855292 0
M  V30 17 H 4.32901 -0.809905 0.279497 0
M  V30 18 H 0.00471106 -2.63887 0.0734194 0
M  V30 19 H -2.07578 -1.96974 -0.924517 0
M  V30 20 H -2.48386 -1.75133 0.782804 0
M  V30 21 H -4.17053 1.04316 -1.18455 0
M  V30 22 H -4.34285 1.06616 0.595311 0
M  V30 END ATOM
M  V30 BEGIN BOND
M  V30 1 1 1 2
M  V30 2 2 2 3
M  V30 3 1 3 4
M  V30 4 1 4 5
M  V30 5 2 5 6
M  V30 6 1 6 7
M  V30 7 2 7 8
M  V30 8 1 8 9
M  V30 9 2 9 10
M  V30 10 1 10 11
M  V30 11 1 11 12
M  V30 12 1 10 13
M  V30 13 1 6 2
M  V30 14 1 11 7
M  V30 15 1 1 14
M  V30 16 1 1 15
M  V30 17 1 1 16
M  V30 18 1 3 17
M  V30 19 1 5 18
M  V30 20 1 12 19
M  V30 21 1 12 20
M  V30 22 1 13 21
M  V30 23 1 13 22
M  V30 END BOND
M  V30 END CTAB
M  END
