
     RDKit          3D

  0  0  0  0  0  0  0  0  0  0999 V3000
M  V30 BEGIN CTAB
M  V30 COUNTS 50 53 0 0 0
M  V30 BEGIN ATOM
M  V30 1 C -0.933873 -4.86349 0.428551 0
M  V30 2 C -1.10105 -3.71172 -0.541927 0
M  V30 3 C -1.65267 -4.17014 -1.87582 0
M  V30 4 O 0.151064 -3.13338 -0.719953 0
M  V30 5 C -0.0152051 -1.77206 -0.722429 0 CFG=2
M  V30 6 C 0.546313 -1.12373 0.543984 0 CFG=1
M  V30 7 C 2.0077 -0.917048 0.319563 0
M  V30 8 S 2.83199 -0.153506 1.7316 0
M  V30 9 C 4.59428 0.0483651 1.35255 0
M  V30 10 C 4.81709 1.0378 0.239638 0
M  V30 11 C 4.28395 2.41104 0.576432 0
M  V30 12 N 4.56918 3.26052 -0.58977 0
M  V30 13 O -0.181222 0.0611119 0.57455 0
M  V30 14 C -1.49231 -0.428778 0.519474 0 CFG=2
M  V30 15 C -1.50171 -1.51517 -0.512037 0 CFG=2
M  V30 16 O -1.94187 -2.73077 -0.0473439 0
M  V30 17 N -2.4527 0.587821 0.186263 0
M  V30 18 C -3.62623 0.352693 -0.426709 0
M  V30 19 N -4.25551 1.53529 -0.573076 0
M  V30 20 C -3.51168 2.53619 -0.0658853 0
M  V30 21 C -2.36462 1.91719 0.415017 0
M  V30 22 N -1.43132 2.70043 0.985597 0
M  V30 23 C -1.5901 4.03211 1.09255 0
M  V30 24 N -2.71414 4.60209 0.616173 0
M  V30 25 C -3.70458 3.90354 0.0291657 0
M  V30 26 N -4.88069 4.51325 -0.467431 0
M  V30 27 H -0.503235 -5.70134 -0.125056 0
M  V30 28 H -0.158943 -4.53612 1.17668 0
M  V30 29 H -1.85512 -5.11416 0.968974 0
M  V30 30 H -2.74679 -4.20179 -1.83519 0
M  V30 31 H -1.35579 -3.39867 -2.62547 0
M  V30 32 H -1.26786 -5.17354 -2.13856 0
M  V30 33 H 0.384856 -1.25858 -1.60169 0
M  V30 34 H 0.311866 -1.73358 1.42652 0
M  V30 35 H 2.46939 -1.91489 0.164124 0
M  V30 36 H 2.14353 -0.340884 -0.615381 0
M  V30 37 H 5.01906 -0.926629 0.991071 0
M  V30 38 H 5.18865 0.2959 2.26174 0
M  V30 39 H 4.3667 0.634758 -0.68455 0
M  V30 40 H 5.90412 1.11734 0.0742343 0
M  V30 41 H 3.21705 2.42324 0.78932 0
M  V30 42 H 4.86932 2.85555 1.40639 0
M  V30 43 H 4.90223 2.71521 -1.39928 0
M  V30 44 H 3.76371 3.84952 -0.840506 0
M  V30 45 H -1.69025 -0.891434 1.51677 0
M  V30 46 H -1.92948 -1.21502 -1.47552 0
M  V30 47 H -4.05335 -0.580666 -0.767969 0
M  V30 48 H -0.803845 4.64196 1.56625 0
M  V30 49 H -5.14156 4.40633 -1.46061 0
M  V30 50 H -5.48434 5.06787 0.158963 0
M  V30 END ATOM
M  V30 BEGIN BOND
M  V30 1 1 1 2
M  V30 2 1 2 3
M  V30 3 1 2 4
M  V30 4 1 4 5
M  V30 5 1 5 6
M  V30 6 1 6 7
M  V30 7 1 7 8
M  V30 8 1 8 9
M  V30 9 1 9 10
M  V30 10 1 10 11
M  V30 11 1 11 12
M  V30 12 1 6 13
M  V30 13 1 13 14
M  V30 14 1 14 15
M  V30 15 1 15 16
M  V30 16 1 14 17
M  V30 17 1 17 18
M  V30 18 2 18 19
M  V30 19 1 19 20
M  V30 20 2 20 21
M  V30 21 1 21 22
M  V30 22 2 22 23
M  V30 23 1 23 24
M  V30 24 2 24 25
M  V30 25 1 25 26
M  V30 26 1 16 2
M  V30 27 1 21 17
M  V30 28 1 15 5
M  V30 29 1 25 20
M  V30 30 1 1 27
M  V30 31 1 1 28
M  V30 32 1 1 29
M  V30 33 1 3 30
M  V30 34 1 3 31
M  V30 35 1 3 32
M  V30 36 1 5 33 CFG=3
M  V30 37 1 6 34 CFG=1
M  V30 38 1 7 35
M  V30 39 1 7 36
M  V30 40 1 9 37
M  V30 41 1 9 38
M  V30 42 1 10 39
M  V30 43 1 10 40
M  V30 44 1 11 41
M  V30 45 1 11 42
M  V30 46 1 12 43
M  V30 47 1 12 44
M  V30 48 1 14 45 CFG=1
M  V30 49 1 15 46 CFG=3
M  V30 50 1 18 47
M  V30 51 1 23 48
M  V30 52 1 26 49
M  V30 53 1 26 50
M  V30 END BOND
M  V30 END CTAB
M  END
