
     RDKit          3D

  0  0  0  0  0  0  0  0  0  0999 V3000
M  V30 BEGIN CTAB
M  V30 COUNTS 35 36 0 0 0
M  V30 BEGIN ATOM
M  V30 1 N -2.92481 2.40918 -0.319955 0
M  V30 2 C -2.17875 1.19879 -0.452604 0
M  V30 3 C -1.10249 1.08239 0.592617 0
M  V30 4 N -0.298035 -0.103491 0.539411 0
M  V30 5 C -1.0732 -1.27086 0.887753 0
M  V30 6 C -1.5854 -2.06988 -0.252636 0
M  V30 7 C -0.505832 -3.11004 -0.589873 0
M  V30 8 O 0.296852 -2.44134 -1.54965 0
M  V30 9 C 1.11583 -1.53935 -0.916637 0
M  V30 10 C 0.570555 -0.226795 -0.536771 0 CFG=2
M  V30 11 C 1.62201 0.805378 -0.626728 0
M  V30 12 C 1.81751 1.8146 -1.51978 0
M  V30 13 N 2.81406 2.59544 -1.08476 0
M  V30 14 N 3.2408 2.0921 0.064396 0
M  V30 15 C 2.54707 0.997627 0.394712 0
M  V30 16 N 2.83243 0.207342 1.51597 0
M  V30 17 H -3.92385 2.28945 -0.409774 0
M  V30 18 H -2.65127 3.01547 0.435149 0
M  V30 19 H -2.90609 0.388888 -0.467111 0
M  V30 20 H -1.73927 1.23863 -1.49535 0
M  V30 21 H -0.481562 1.96375 0.534677 0
M  V30 22 H -1.63092 1.09859 1.57883 0
M  V30 23 H -0.498642 -1.90595 1.58751 0
M  V30 24 H -1.9773 -0.91612 1.45852 0
M  V30 25 H -2.53946 -2.58989 0.00208916 0
M  V30 26 H -1.7742 -1.53907 -1.18764 0
M  V30 27 H 0.0611377 -3.3547 0.324209 0
M  V30 28 H -0.996298 -3.95165 -1.07822 0
M  V30 29 H 1.99931 -1.35629 -1.57706 0
M  V30 30 H 1.51886 -2.10416 -0.019134 0
M  V30 31 H -0.0932221 0.066597 -1.49401 0
M  V30 32 H 1.26998 1.97197 -2.42737 0
M  V30 33 H 3.23973 3.4742 -1.51286 0
M  V30 34 H 2.38083 0.332506 2.41128 0
M  V30 35 H 3.55362 -0.563325 1.41439 0
M  V30 END ATOM
M  V30 BEGIN BOND
M  V30 1 1 1 2
M  V30 2 1 2 3
M  V30 3 1 3 4
M  V30 4 1 4 5
M  V30 5 1 5 6
M  V30 6 1 6 7
M  V30 7 1 7 8
M  V30 8 1 8 9
M  V30 9 1 9 10
M  V30 10 1 10 11
M  V30 11 2 11 12
M  V30 12 1 12 13
M  V30 13 1 13 14
M  V30 14 2 14 15
M  V30 15 1 15 16
M  V30 16 1 10 4
M  V30 17 1 15 11
M  V30 18 1 1 17
M  V30 19 1 1 18
M  V30 20 1 2 19
M  V30 21 1 2 20
M  V30 22 1 3 21
M  V30 23 1 3 22
M  V30 24 1 5 23
M  V30 25 1 5 24
M  V30 26 1 6 25
M  V30 27 1 6 26
M  V30 28 1 7 27
M  V30 29 1 7 28
M  V30 30 1 9 29
M  V30 31 1 9 30
M  V30 32 1 10 31 CFG=3
M  V30 33 1 12 32
M  V30 34 1 13 33
M  V30 35 1 16 34
M  V30 36 1 16 35
M  V30 END BOND
M  V30 END CTAB
M  END
