
     RDKit          3D

  0  0  0  0  0  0  0  0  0  0999 V3000
M  V30 BEGIN CTAB
M  V30 COUNTS 41 42 0 0 0
M  V30 BEGIN ATOM
M  V30 1 C -4.67553 0.640188 -1.96616 0
M  V30 2 C -4.31291 -0.672867 -1.32668 0
M  V30 3 C -3.09196 -0.48149 -0.482891 0
M  V30 4 C -3.06036 0.442451 0.52425 0
M  V30 5 C -1.9311 0.637402 1.31659 0
M  V30 6 C -0.805924 -0.0904223 1.11604 0
M  V30 7 C -0.838167 -1.04431 0.0782001 0
M  V30 8 C -1.95119 -1.21901 -0.683399 0
M  V30 9 N 0.389391 0.0592751 1.86094 0
M  V30 10 C 0.66926 1.14856 2.69083 0
M  V30 11 O -0.0976564 2.13298 2.88134 0
M  V30 12 C 1.97302 1.20908 3.44762 0
M  V30 13 S 3.03408 -0.172876 2.99432 0
M  V30 14 C 3.62015 -0.0411614 1.31606 0
M  V30 15 N 4.43301 -1.03634 0.894802 0
M  V30 16 C 4.94134 -1.05241 -0.327572 0
M  V30 17 N 5.80115 -2.07201 -0.820687 0
M  V30 18 C 4.61942 -0.0194984 -1.17363 0
M  V30 19 C 3.78801 1.02223 -0.784867 0
M  V30 20 N 3.30048 0.97291 0.493227 0
M  V30 21 N 3.45613 2.06099 -1.67318 0
M  V30 22 C -5.40941 -1.24766 -0.467937 0
M  V30 23 H -3.8926 0.850989 -2.75142 0
M  V30 24 H -4.62821 1.48826 -1.25695 0
M  V30 25 H -5.64282 0.606889 -2.49842 0
M  V30 26 H -4.05691 -1.40785 -2.1027 0
M  V30 27 H -3.93705 1.0438 0.715625 0
M  V30 28 H -2.02345 1.385 2.09419 0
M  V30 29 H 0.0640091 -1.63958 -0.0905682 0
M  V30 30 H -1.97576 -1.96269 -1.49036 0
M  V30 31 H 1.1228 -0.736494 1.77621 0
M  V30 32 H 2.46352 2.18068 3.17839 0
M  V30 33 H 1.8023 1.25181 4.52873 0
M  V30 34 H 6.65387 -2.31283 -0.287658 0
M  V30 35 H 5.61009 -2.5959 -1.70732 0
M  V30 36 H 4.99776 0.0380982 -2.18733 0
M  V30 37 H 2.81059 1.86958 -2.45721 0
M  V30 38 H 3.84625 3.0032 -1.55137 0
M  V30 39 H -5.01934 -1.51887 0.551283 0
M  V30 40 H -6.24416 -0.535316 -0.288378 0
M  V30 41 H -5.80211 -2.18477 -0.91353 0
M  V30 END ATOM
M  V30 BEGIN BOND
M  V30 1 1 1 2
M  V30 2 1 2 3
M  V30 3 2 3 4
M  V30 4 1 4 5
M  V30 5 2 5 6
M  V30 6 1 6 7
M  V30 7 2 7 8
M  V30 8 1 6 9
M  V30 9 1 9 10
M  V30 10 2 10 11
M  V30 11 1 10 12
M  V30 12 1 12 13
M  V30 13 1 13 14
M  V30 14 2 14 15
M  V30 15 1 15 16
M  V30 16 1 16 17
M  V30 17 2 16 18
M  V30 18 1 18 19
M  V30 19 2 19 20
M  V30 20 1 19 21
M  V30 21 1 2 22
M  V30 22 1 8 3
M  V30 23 1 20 14
M  V30 24 1 1 23
M  V30 25 1 1 24
M  V30 26 1 1 25
M  V30 27 1 2 26
M  V30 28 1 4 27
M  V30 29 1 5 28
M  V30 30 1 7 29
M  V30 31 1 8 30
M  V30 32 1 9 31
M  V30 33 1 12 32
M  V30 34 1 12 33
M  V30 35 1 17 34
M  V30 36 1 17 35
M  V30 37 1 18 36
M  V30 38 1 21 37
M  V30 39 1 21 38
M  V30 40 1 22 39
M  V30 41 1 22 40
M  V30 42 1 22 41
M  V30 END BOND
M  V30 END CTAB
M  END
