
     RDKit          3D

  0  0  0  0  0  0  0  0  0  0999 V3000
M  V30 BEGIN CTAB
M  V30 COUNTS 40 43 0 0 0
M  V30 BEGIN ATOM
M  V30 1 F 8.0829 1.05533 -2.34512 0
M  V30 2 C 7.00089 0.776076 -1.55826 0
M  V30 3 C 7.0936 -0.203845 -0.588414 0
M  V30 4 C 6.01083 -0.48495 0.205165 0
M  V30 5 C 4.77996 0.189412 0.0806144 0
M  V30 6 C 4.72206 1.14595 -0.881158 0
M  V30 7 C 5.81191 1.44412 -1.69692 0
M  V30 8 C 3.72 -0.149618 0.98006 0
M  V30 9 O 4.03378 -0.523327 2.13294 0
M  V30 10 C 2.29151 -0.076581 0.602172 0
M  V30 11 S 1.67827 0.320208 -0.939936 0
M  V30 12 C 0.0210182 0.143036 -0.55012 0
M  V30 13 C -0.0391902 -0.21904 0.760165 0
M  V30 14 C 1.21259 -0.334433 1.37678 0
M  V30 15 N 1.45836 -0.698299 2.7696 0
M  V30 16 C -1.33228 -0.406168 1.24694 0
M  V30 17 C -2.3407 -0.206646 0.366907 0
M  V30 18 S -1.61838 0.224911 -1.09537 0
M  V30 19 C -3.7905 -0.36937 0.594419 0
M  V30 20 O -4.21389 -0.777045 1.69378 0
M  V30 21 C -4.76551 -0.0757423 -0.425203 0
M  V30 22 C -4.65691 0.851526 -1.4375 0
M  V30 23 C -5.65681 1.02913 -2.3946 0
M  V30 24 C -6.80057 0.276295 -2.36163 0
M  V30 25 C -6.94014 -0.645456 -1.37991 0
M  V30 26 C -5.94926 -0.813299 -0.441193 0
M  V30 27 F -7.79179 0.427652 -3.27846 0
M  V30 28 N -1.70863 -0.795652 2.60832 0
M  V30 29 H 8.00973 -0.777534 -0.419667 0
M  V30 30 H 6.05111 -1.25519 0.985341 0
M  V30 31 H 3.80497 1.73567 -1.0342 0
M  V30 32 H 5.72102 2.20967 -2.45067 0
M  V30 33 H 2.02825 -1.48897 3.05707 0
M  V30 34 H 1.00996 -0.0983612 3.49354 0
M  V30 35 H -3.79623 1.4766 -1.49562 0
M  V30 36 H -5.54099 1.76842 -3.18041 0
M  V30 37 H -7.85019 -1.26102 -1.33728 0
M  V30 38 H -6.0717 -1.55285 0.33833 0
M  V30 39 H -1.85674 -0.0604072 3.32344 0
M  V30 40 H -1.82229 -1.80022 2.83651 0
M  V30 END ATOM
M  V30 BEGIN BOND
M  V30 1 1 1 2
M  V30 2 2 2 3
M  V30 3 1 3 4
M  V30 4 2 4 5
M  V30 5 1 5 6
M  V30 6 2 6 7
M  V30 7 1 5 8
M  V30 8 2 8 9
M  V30 9 1 8 10
M  V30 10 1 10 11
M  V30 11 1 11 12
M  V30 12 2 12 13
M  V30 13 1 13 14
M  V30 14 1 14 15
M  V30 15 1 13 16
M  V30 16 2 16 17
M  V30 17 1 17 18
M  V30 18 1 17 19
M  V30 19 2 19 20
M  V30 20 1 19 21
M  V30 21 2 21 22
M  V30 22 1 22 23
M  V30 23 2 23 24
M  V30 24 1 24 25
M  V30 25 2 25 26
M  V30 26 1 24 27
M  V30 27 1 16 28
M  V30 28 1 7 2
M  V30 29 2 14 10
M  V30 30 1 26 21
M  V30 31 1 18 12
M  V30 32 1 3 29
M  V30 33 1 4 30
M  V30 34 1 6 31
M  V30 35 1 7 32
M  V30 36 1 15 33
M  V30 37 1 15 34
M  V30 38 1 22 35
M  V30 39 1 23 36
M  V30 40 1 25 37
M  V30 41 1 26 38
M  V30 42 1 28 39
M  V30 43 1 28 40
M  V30 END BOND
M  V30 END CTAB
M  END
