
     RDKit          3D

  0  0  0  0  0  0  0  0  0  0999 V3000
M  V30 BEGIN CTAB
M  V30 COUNTS 94 98 0 0 0
M  V30 BEGIN ATOM
M  V30 1 C 8.16066 4.20393 -3.16244 0
M  V30 2 O 8.45414 3.56868 -1.91066 0
M  V30 3 C 8.69622 2.21387 -1.80398 0
M  V30 4 O 8.65601 1.51947 -2.84601 0
M  V30 5 C 8.99668 1.5433 -0.545457 0
M  V30 6 C 8.08815 0.982828 0.329934 0
M  V30 7 N 6.66927 0.980964 0.117098 0
M  V30 8 N 6.0135 -0.023827 0.579208 0
M  V30 9 C 4.61087 -0.13601 0.430401 0
M  V30 10 C 3.64399 0.844698 0.456575 0
M  V30 11 N 3.96383 2.22269 0.654971 0
M  V30 12 N 2.4499 0.278371 0.2727 0
M  V30 13 N 2.6419 -1.00963 0.134528 0
M  V30 14 C 3.9277 -1.33022 0.219341 0
M  V30 15 C 4.48792 -2.68382 0.108961 0
M  V30 16 C 5.45369 -2.66883 -1.08257 0
M  V30 17 C 5.24058 -3.10759 1.34248 0
M  V30 18 C 3.39346 -3.66091 -0.205886 0
M  V30 19 C 1.19438 0.932124 0.231451 0
M  V30 20 C 0.01924 0.195658 0.201598 0
M  V30 21 C -1.21074 0.795172 0.161703 0
M  V30 22 N -1.26473 2.13817 0.15165 0
M  V30 23 C -0.115691 2.8751 0.18075 0
M  V30 24 N 1.08359 2.27724 0.219729 0
M  V30 25 N -2.44029 0.0608804 0.130134 0
M  V30 26 N -2.60488 -1.11468 -0.411831 0
M  V30 27 C -3.87735 -1.51298 -0.264053 0
M  V30 28 C -4.52263 -0.502998 0.415864 0
M  V30 29 N -5.89907 -0.452489 0.815844 0
M  V30 30 N -6.68072 0.389357 0.235243 0
M  V30 31 C -8.04473 0.411124 0.65965 0
M  V30 32 C -9.05792 1.04601 -0.0220459 0
M  V30 33 C -8.95745 1.79953 -1.26998 0
M  V30 34 O -9.10588 1.20542 -2.36857 0
M  V30 35 O -8.70225 3.16211 -1.3142 0
M  V30 36 C -8.61009 3.87061 -2.55654 0
M  V30 37 C -10.2228 0.843161 0.697105 0
M  V30 38 C -11.5838 1.34746 0.342919 0
M  V30 39 N -9.87219 0.105608 1.76736 0
M  V30 40 N -8.57802 -0.150194 1.74367 0
M  V30 41 C -7.82732 -0.923516 2.73671 0
M  V30 42 C -3.59418 0.48425 0.655761 0
M  V30 43 N -3.84284 1.71856 1.33969 0
M  V30 44 C -4.43876 -2.77596 -0.741651 0
M  V30 45 C -4.96592 -3.53496 0.462013 0
M  V30 46 C -5.51281 -2.58625 -1.78964 0
M  V30 47 C -3.35267 -3.63393 -1.35362 0
M  V30 48 N 8.7596 0.460283 1.37711 0
M  V30 49 C 8.15841 -0.217497 2.5114 0
M  V30 50 N 10.0617 0.682889 1.17271 0
M  V30 51 C 10.2448 1.33847 0.0149907 0
M  V30 52 C 11.5397 1.78293 -0.591839 0
M  V30 53 H 8.02451 5.27979 -2.91924 0
M  V30 54 H 9.00618 4.13137 -3.86263 0
M  V30 55 H 7.22805 3.80204 -3.58728 0
M  V30 56 H 3.73064 2.93716 -0.0788506 0
M  V30 57 H 4.43297 2.57652 1.51731 0
M  V30 58 H 6.41978 -2.23351 -0.758434 0
M  V30 59 H 5.57475 -3.66069 -1.52075 0
M  V30 60 H 5.05043 -1.95549 -1.85543 0
M  V30 61 H 5.18284 -4.21523 1.39228 0
M  V30 62 H 4.73559 -2.73724 2.26062 0
M  V30 63 H 6.29246 -2.82786 1.28181 0
M  V30 64 H 3.35591 -3.94323 -1.27572 0
M  V30 65 H 3.53717 -4.59198 0.414641 0
M  V30 66 H 2.38976 -3.27726 0.108232 0
M  V30 67 H 0.0400841 -0.892358 0.209089 0
M  V30 68 H -0.21535 3.96544 0.17099 0
M  V30 69 H -7.92487 3.37676 -3.25393 0
M  V30 70 H -8.15927 4.86957 -2.31358 0
M  V30 71 H -9.61131 4.04194 -2.96846 0
M  V30 72 H -11.5284 2.31775 -0.172589 0
M  V30 73 H -12.017 0.581321 -0.347117 0
M  V30 74 H -12.2145 1.35877 1.25516 0
M  V30 75 H -7.47644 -1.89075 2.31914 0
M  V30 76 H -8.51693 -1.18796 3.5839 0
M  V30 77 H -7.01607 -0.331467 3.18345 0
M  V30 78 H -3.72988 1.79149 2.37285 0
M  V30 79 H -4.14144 2.56024 0.802486 0
M  V30 80 H -4.90769 -4.63341 0.213102 0
M  V30 81 H -5.99212 -3.26127 0.726744 0
M  V30 82 H -4.23384 -3.3809 1.28328 0
M  V30 83 H -5.28275 -3.13538 -2.72463 0
M  V30 84 H -5.66286 -1.52766 -2.06392 0
M  V30 85 H -6.45287 -3.01143 -1.37442 0
M  V30 86 H -2.45171 -3.52585 -0.718842 0
M  V30 87 H -3.12567 -3.31362 -2.38955 0
M  V30 88 H -3.71681 -4.69012 -1.36226 0
M  V30 89 H 8.90321 -0.158033 3.34165 0
M  V30 90 H 7.99716 -1.29619 2.31522 0
M  V30 91 H 7.24266 0.27886 2.87185 0
M  V30 92 H 11.5869 1.29542 -1.59363 0
M  V30 93 H 11.5405 2.86249 -0.740143 0
M  V30 94 H 12.382 1.39737 0.0104104 0
M  V30 END ATOM
M  V30 BEGIN BOND
M  V30 1 1 1 2
M  V30 2 1 2 3
M  V30 3 2 3 4
M  V30 4 1 3 5
M  V30 5 2 5 6
M  V30 6 1 6 7
M  V30 7 2 7 8 CFG=2
M  V30 8 1 8 9
M  V30 9 2 9 10
M  V30 10 1 10 11
M  V30 11 1 10 12
M  V30 12 1 12 13
M  V30 13 2 13 14
M  V30 14 1 14 15
M  V30 15 1 15 16
M  V30 16 1 15 17
M  V30 17 1 15 18
M  V30 18 1 12 19
M  V30 19 2 19 20
M  V30 20 1 20 21
M  V30 21 2 21 22
M  V30 22 1 22 23
M  V30 23 2 23 24
M  V30 24 1 21 25
M  V30 25 1 25 26
M  V30 26 2 26 27
M  V30 27 1 27 28
M  V30 28 1 28 29
M  V30 29 2 29 30 CFG=2
M  V30 30 1 30 31
M  V30 31 2 31 32
M  V30 32 1 32 33
M  V30 33 2 33 34
M  V30 34 1 33 35
M  V30 35 1 35 36
M  V30 36 1 32 37
M  V30 37 1 37 38
M  V30 38 2 37 39
M  V30 39 1 39 40
M  V30 40 1 40 41
M  V30 41 2 28 42
M  V30 42 1 42 43
M  V30 43 1 27 44
M  V30 44 1 44 45
M  V30 45 1 44 46
M  V30 46 1 44 47
M  V30 47 1 6 48
M  V30 48 1 48 49
M  V30 49 1 48 50
M  V30 50 2 50 51
M  V30 51 1 51 52
M  V30 52 1 51 5
M  V30 53 1 14 9
M  V30 54 1 24 19
M  V30 55 1 42 25
M  V30 56 1 40 31
M  V30 57 1 1 53
M  V30 58 1 1 54
M  V30 59 1 1 55
M  V30 60 1 11 56
M  V30 61 1 11 57
M  V30 62 1 16 58
M  V30 63 1 16 59
M  V30 64 1 16 60
M  V30 65 1 17 61
M  V30 66 1 17 62
M  V30 67 1 17 63
M  V30 68 1 18 64
M  V30 69 1 18 65
M  V30 70 1 18 66
M  V30 71 1 20 67
M  V30 72 1 23 68
M  V30 73 1 36 69
M  V30 74 1 36 70
M  V30 75 1 36 71
M  V30 76 1 38 72
M  V30 77 1 38 73
M  V30 78 1 38 74
M  V30 79 1 41 75
M  V30 80 1 41 76
M  V30 81 1 41 77
M  V30 82 1 43 78
M  V30 83 1 43 79
M  V30 84 1 45 80
M  V30 85 1 45 81
M  V30 86 1 45 82
M  V30 87 1 46 83
M  V30 88 1 46 84
M  V30 89 1 46 85
M  V30 90 1 47 86
M  V30 91 1 47 87
M  V30 92 1 47 88
M  V30 93 1 49 89
M  V30 94 1 49 90
M  V30 95 1 49 91
M  V30 96 1 52 92
M  V30 97 1 52 93
M  V30 98 1 52 94
M  V30 END BOND
M  V30 END CTAB
M  END
