
     RDKit          3D

  0  0  0  0  0  0  0  0  0  0999 V3000
M  V30 BEGIN CTAB
M  V30 COUNTS 26 26 0 0 0
M  V30 BEGIN ATOM
M  V30 1 C 4.59018 -0.369015 0.76615 0
M  V30 2 C 3.61119 0.0423266 -0.295536 0
M  V30 3 C 2.39341 -0.872145 -0.226135 0
M  V30 4 S 1.23699 -0.422732 -1.49914 0
M  V30 5 C -0.292837 0.129779 -0.852181 0
M  V30 6 C -0.59995 1.38628 -0.426643 0
M  V30 7 C -1.89558 1.71641 0.00112873 0
M  V30 8 C -2.93587 0.809328 0.0201322 0
M  V30 9 N -4.25436 1.16034 0.442213 0
M  V30 10 C -2.62749 -0.462671 -0.409436 0
M  V30 11 N -3.66955 -1.41929 -0.421709 0
M  V30 12 C -1.37309 -0.788958 -0.822647 0
M  V30 13 H 4.12343 -0.226589 1.75355 0
M  V30 14 H 4.85788 -1.43594 0.562329 0
M  V30 15 H 5.51032 0.242359 0.619018 0
M  V30 16 H 4.07419 -0.191714 -1.29537 0
M  V30 17 H 3.2824 1.08712 -0.257364 0
M  V30 18 H 1.95112 -0.619529 0.808696 0
M  V30 19 H 2.70766 -1.91773 -0.241922 0
M  V30 20 H 0.17958 2.1683 -0.411212 0
M  V30 21 H -2.10229 2.73671 0.328869 0
M  V30 22 H -4.72996 1.99891 -0.00230259 0
M  V30 23 H -4.79735 0.660437 1.15013 0
M  V30 24 H -4.43885 -1.42467 0.256438 0
M  V30 25 H -3.63903 -2.16902 -1.17697 0
M  V30 26 H -1.16213 -1.81829 -1.16011 0
M  V30 END ATOM
M  V30 BEGIN BOND
M  V30 1 1 1 2
M  V30 2 1 2 3
M  V30 3 1 3 4
M  V30 4 1 4 5
M  V30 5 2 5 6
M  V30 6 1 6 7
M  V30 7 2 7 8
M  V30 8 1 8 9
M  V30 9 1 8 10
M  V30 10 1 10 11
M  V30 11 2 10 12
M  V30 12 1 12 5
M  V30 13 1 1 13
M  V30 14 1 1 14
M  V30 15 1 1 15
M  V30 16 1 2 16
M  V30 17 1 2 17
M  V30 18 1 3 18
M  V30 19 1 3 19
M  V30 20 1 6 20
M  V30 21 1 7 21
M  V30 22 1 9 22
M  V30 23 1 9 23
M  V30 24 1 11 24
M  V30 25 1 11 25
M  V30 26 1 12 26
M  V30 END BOND
M  V30 END CTAB
M  END
