
     RDKit          3D

  0  0  0  0  0  0  0  0  0  0999 V3000
M  V30 BEGIN CTAB
M  V30 COUNTS 20 20 0 0 0
M  V30 BEGIN ATOM
M  V30 1 N -3.66706 0.136953 0.876447 0
M  V30 2 N -2.49789 0.448878 0.187148 0
M  V30 3 C -1.44962 -0.478898 -0.00551802 0
M  V30 4 O -1.48111 -1.65737 0.425235 0
M  V30 5 C -0.23843 -0.0647373 -0.751636 0
M  V30 6 C 0.980572 -0.0778708 0.138981 0
M  V30 7 C 2.00481 -0.979334 0.141505 0
M  V30 8 C 2.9984 -0.787521 1.03637 0
M  V30 9 C 2.88754 0.297637 1.86263 0
M  V30 10 S 1.42201 1.00887 1.37475 0
M  V30 11 N -0.368105 1.33604 -1.18076 0
M  V30 12 H -3.47999 -0.377274 1.77028 0
M  V30 13 H -4.35158 -0.399809 0.285908 0
M  V30 14 H -2.40029 1.40844 -0.19924 0
M  V30 15 H -0.0544696 -0.640628 -1.66061 0
M  V30 16 H 2.03086 -1.84225 -0.561417 0
M  V30 17 H 3.89584 -1.44879 1.14619 0
M  V30 18 H 3.58634 0.623834 2.65209 0
M  V30 19 H 0.555766 1.56124 -1.64014 0
M  V30 20 H -0.373613 1.93259 -0.302843 0
M  V30 END ATOM
M  V30 BEGIN BOND
M  V30 1 1 1 2
M  V30 2 1 2 3
M  V30 3 2 3 4
M  V30 4 1 3 5
M  V30 5 1 5 6
M  V30 6 2 6 7
M  V30 7 1 7 8
M  V30 8 2 8 9
M  V30 9 1 9 10
M  V30 10 1 5 11
M  V30 11 1 10 6
M  V30 12 1 1 12
M  V30 13 1 1 13
M  V30 14 1 2 14
M  V30 15 1 5 15
M  V30 16 1 7 16
M  V30 17 1 8 17
M  V30 18 1 9 18
M  V30 19 1 11 19
M  V30 20 1 11 20
M  V30 END BOND
M  V30 END CTAB
M  END
