
     RDKit          3D

  0  0  0  0  0  0  0  0  0  0999 V3000
M  V30 BEGIN CTAB
M  V30 COUNTS 83 83 0 0 0
M  V30 BEGIN ATOM
M  V30 1 C -6.09079 4.29396 -3.19489 0
M  V30 2 C -6.50237 2.84738 -3.09082 0
M  V30 3 C -6.26689 2.19601 -4.42746 0
M  V30 4 C -5.82197 2.12358 -1.96071 0
M  V30 5 C -4.33567 2.07801 -2.03077 0 CFG=2
M  V30 6 N -3.8375 1.40132 -3.23541 0
M  V30 7 C -3.82152 1.33427 -0.864247 0
M  V30 8 O -4.20653 1.78652 0.273251 0
M  V30 9 N -2.98755 0.231433 -0.909311 0
M  V30 10 C -2.50084 -0.471387 0.34548 0 CFG=1
M  V30 11 C -2.98162 -1.83302 0.203166 0
M  V30 12 C -2.75703 -2.85837 1.20931 0
M  V30 13 C -1.75781 -3.78925 1.06428 0
M  V30 14 C -1.53101 -4.78661 1.99529 0
M  V30 15 C -2.34275 -4.83073 3.09766 0
M  V30 16 O -2.1273 -5.83619 4.05452 0
M  V30 17 C -3.35058 -3.90277 3.25843 0
M  V30 18 C -3.56096 -2.92253 2.32562 0
M  V30 19 C -1.14964 -0.0626285 0.578964 0
M  V30 20 O -0.977473 1.23624 0.267618 0
M  V30 21 N 0.0309608 -0.635719 1.03372 0
M  V30 22 C 1.26296 0.186798 1.13054 0 CFG=1
M  V30 23 C 2.2403 -0.329447 2.09491 0
M  V30 24 C 1.78237 -0.424763 3.51738 0
M  V30 25 C 2.92539 -1.03051 4.33738 0
M  V30 26 N 3.1946 -2.38024 3.82265 0
M  V30 27 C 4.23796 -3.16368 4.37294 0
M  V30 28 N 4.07858 -3.74295 5.65463 0
M  V30 29 N 5.33873 -3.36679 3.729 0
M  V30 30 C 1.87587 0.22991 -0.262537 0
M  V30 31 O 1.55718 -0.627492 -1.11706 0
M  V30 32 N 2.79321 1.2401 -0.598791 0
M  V30 33 C 3.43443 1.42173 -1.87486 0 CFG=1
M  V30 34 C 2.73001 2.62498 -2.54975 0
M  V30 35 C 4.86803 1.83228 -1.72618 0
M  V30 36 O 5.34546 1.89751 -0.581153 0
M  V30 37 N 5.6556 2.14081 -2.85251 0
M  V30 38 C 7.02802 2.53401 -2.75233 0
M  V30 39 C 7.91179 1.50434 -2.15666 0
M  V30 40 O 9.27322 1.71421 -1.9999 0
M  V30 41 O 7.42912 0.41097 -1.7816 0
M  V30 42 H -6.61387 4.70827 -4.10203 0
M  V30 43 H -6.34396 4.87429 -2.31211 0
M  V30 44 H -5.00662 4.33853 -3.49261 0
M  V30 45 H -7.60126 2.82619 -2.88901 0
M  V30 46 H -5.42819 2.64298 -5.00528 0
M  V30 47 H -7.19026 2.36557 -5.03919 0
M  V30 48 H -6.17154 1.08992 -4.32597 0
M  V30 49 H -6.09629 2.60793 -1.01344 0
M  V30 50 H -6.21171 1.07895 -1.90008 0
M  V30 51 H -3.89377 3.10246 -1.97125 0
M  V30 52 H -4.07313 0.387512 -3.16372 0
M  V30 53 H -2.78651 1.42616 -3.13412 0
M  V30 54 H -2.65445 -0.170289 -1.81292 0
M  V30 55 H -3.19498 0.0355328 1.1238 0
M  V30 56 H -2.66939 -2.26182 -0.804703 0
M  V30 57 H -4.12224 -1.77608 0.0709287 0
M  V30 58 H -1.08948 -3.77799 0.195816 0
M  V30 59 H -0.716485 -5.51414 1.84417 0
M  V30 60 H -1.39283 -6.51645 3.94266 0
M  V30 61 H -3.9861 -3.97373 4.16451 0
M  V30 62 H -4.3645 -2.19619 2.47446 0
M  V30 63 H 0.0986858 -1.6202 1.31887 0
M  V30 64 H 0.925193 1.21814 1.293 0
M  V30 65 H 3.09786 0.420144 2.11739 0
M  V30 66 H 2.74526 -1.26778 1.78522 0
M  V30 67 H 0.903581 -1.06795 3.68477 0
M  V30 68 H 1.63463 0.590602 3.95266 0
M  V30 69 H 3.86094 -0.468389 4.20747 0
M  V30 70 H 2.65035 -1.09933 5.41167 0
M  V30 71 H 2.61323 -2.78229 3.045 0
M  V30 72 H 4.67905 -3.52359 6.4903 0
M  V30 73 H 3.29222 -4.43966 5.73468 0
M  V30 74 H 5.49908 -2.95545 2.76778 0
M  V30 75 H 3.0474 1.94637 0.147479 0
M  V30 76 H 3.36001 0.572449 -2.56539 0
M  V30 77 H 2.10769 3.18244 -1.82008 0
M  V30 78 H 3.43559 3.33866 -2.98011 0
M  V30 79 H 2.04103 2.22945 -3.35524 0
M  V30 80 H 5.24 2.09369 -3.83312 0
M  V30 81 H 7.3794 2.88819 -3.74836 0
M  V30 82 H 7.08742 3.40588 -2.03092 0
M  V30 83 H 9.82298 1.76971 -2.87282 0
M  V30 END ATOM
M  V30 BEGIN BOND
M  V30 1 1 1 2
M  V30 2 1 2 3
M  V30 3 1 2 4
M  V30 4 1 4 5
M  V30 5 1 5 6
M  V30 6 1 5 7
M  V30 7 2 7 8
M  V30 8 1 7 9
M  V30 9 1 9 10
M  V30 10 1 10 11
M  V30 11 1 11 12
M  V30 12 2 12 13
M  V30 13 1 13 14
M  V30 14 2 14 15
M  V30 15 1 15 16
M  V30 16 1 15 17
M  V30 17 2 17 18
M  V30 18 1 10 19
M  V30 19 2 19 20
M  V30 20 1 19 21
M  V30 21 1 21 22
M  V30 22 1 22 23
M  V30 23 1 23 24
M  V30 24 1 24 25
M  V30 25 1 25 26
M  V30 26 1 26 27
M  V30 27 1 27 28
M  V30 28 2 27 29 CFG=2
M  V30 29 1 22 30
M  V30 30 2 30 31
M  V30 31 1 30 32
M  V30 32 1 32 33
M  V30 33 1 33 34
M  V30 34 1 33 35
M  V30 35 2 35 36
M  V30 36 1 35 37
M  V30 37 1 37 38
M  V30 38 1 38 39
M  V30 39 1 39 40
M  V30 40 2 39 41
M  V30 41 1 18 12
M  V30 42 1 1 42
M  V30 43 1 1 43
M  V30 44 1 1 44
M  V30 45 1 2 45
M  V30 46 1 3 46
M  V30 47 1 3 47
M  V30 48 1 3 48
M  V30 49 1 4 49
M  V30 50 1 4 50
M  V30 51 1 5 51 CFG=1
M  V30 52 1 6 52
M  V30 53 1 6 53
M  V30 54 1 9 54
M  V30 55 1 10 55 CFG=1
M  V30 56 1 11 56
M  V30 57 1 11 57
M  V30 58 1 13 58
M  V30 59 1 14 59
M  V30 60 1 16 60
M  V30 61 1 17 61
M  V30 62 1 18 62
M  V30 63 1 21 63
M  V30 64 1 22 64 CFG=1
M  V30 65 1 23 65
M  V30 66 1 23 66
M  V30 67 1 24 67
M  V30 68 1 24 68
M  V30 69 1 25 69
M  V30 70 1 25 70
M  V30 71 1 26 71
M  V30 72 1 28 72
M  V30 73 1 28 73
M  V30 74 1 29 74
M  V30 75 1 32 75
M  V30 76 1 33 76 CFG=3
M  V30 77 1 34 77
M  V30 78 1 34 78
M  V30 79 1 34 79
M  V30 80 1 37 80
M  V30 81 1 38 81
M  V30 82 1 38 82
M  V30 83 1 40 83
M  V30 END BOND
M  V30 END CTAB
M  END
