
     RDKit          3D

  0  0  0  0  0  0  0  0  0  0999 V3000
M  V30 BEGIN CTAB
M  V30 COUNTS 20 20 0 0 0
M  V30 BEGIN ATOM
M  V30 1 N -1.60668 1.30543 0.337085 0
M  V30 2 C -1.45719 0.0156078 -0.267575 0
M  V30 3 C -0.0536464 -0.555152 -0.0542274 0
M  V30 4 N -0.0951269 -1.86169 -0.736073 0
M  V30 5 C 0.187405 -0.830797 1.37588 0
M  V30 6 S 1.49402 0.332703 1.9155 0
M  V30 7 C 1.73652 1.09271 0.27254 0
M  V30 8 C 0.949734 0.278077 -0.673221 0
M  V30 9 H -2.62856 1.48477 0.461015 0
M  V30 10 H -1.2444 2.01706 -0.364559 0
M  V30 11 H -2.15244 -0.705486 0.247231 0
M  V30 12 H -1.73191 -0.0142837 -1.33097 0
M  V30 13 H -0.37714 -1.68762 -1.74186 0
M  V30 14 H 0.848729 -2.28596 -0.698978 0
M  V30 15 H -0.747248 -0.675464 1.95354 0
M  V30 16 H 0.554161 -1.84173 1.61705 0
M  V30 17 H 2.8125 1.1014 0.0339225 0
M  V30 18 H 1.38783 2.15327 0.372335 0
M  V30 19 H 1.6584 -0.31499 -1.31722 0
M  V30 20 H 0.46503 0.992147 -1.40141 0
M  V30 END ATOM
M  V30 BEGIN BOND
M  V30 1 1 1 2
M  V30 2 1 2 3
M  V30 3 1 3 4
M  V30 4 1 3 5
M  V30 5 1 5 6
M  V30 6 1 6 7
M  V30 7 1 7 8
M  V30 8 1 8 3
M  V30 9 1 1 9
M  V30 10 1 1 10
M  V30 11 1 2 11
M  V30 12 1 2 12
M  V30 13 1 4 13
M  V30 14 1 4 14
M  V30 15 1 5 15
M  V30 16 1 5 16
M  V30 17 1 7 17
M  V30 18 1 7 18
M  V30 19 1 8 19
M  V30 20 1 8 20
M  V30 END BOND
M  V30 END CTAB
M  END
