
     RDKit          3D

  0  0  0  0  0  0  0  0  0  0999 V3000
M  V30 BEGIN CTAB
M  V30 COUNTS 26 27 0 0 0
M  V30 BEGIN ATOM
M  V30 1 N -4.91112 0.360333 0.310856 0
M  V30 2 C -3.48528 0.235756 0.220713 0
M  V30 3 C -2.87428 -0.974427 -0.0133415 0
M  V30 4 C -1.50956 -1.14888 -0.108935 0
M  V30 5 C -0.722658 -0.0280576 0.042701 0
M  V30 6 C -1.31589 1.21976 0.282041 0
M  V30 7 C -2.68292 1.34961 0.37001 0
M  V30 8 C 0.72521 -0.0552003 -0.019575 0
M  V30 9 C 1.44141 0.81109 -0.845053 0
M  V30 10 C 2.82289 0.768857 -0.90966 0
M  V30 11 C 3.52703 -0.129421 -0.160789 0
M  V30 12 N 4.96175 -0.207765 -0.197543 0
M  V30 13 C 2.83292 -0.99014 0.658469 0
M  V30 14 C 1.44685 -0.942321 0.718789 0
M  V30 15 I 0.491049 -2.28218 2.01766 0
M  V30 16 H -5.38368 0.964414 1.01619 0
M  V30 17 H -5.53352 -0.166759 -0.347674 0
M  V30 18 H -3.47266 -1.88898 -0.13885 0
M  V30 19 H -1.06092 -2.12265 -0.303669 0
M  V30 20 H -0.710553 2.11389 0.403773 0
M  V30 21 H -3.12169 2.30481 0.552494 0
M  V30 22 H 0.8422 1.50889 -1.42292 0
M  V30 23 H 3.3352 1.45083 -1.55568 0
M  V30 24 H 5.50316 0.269319 0.556394 0
M  V30 25 H 5.47867 -0.714777 -0.936364 0
M  V30 26 H 3.37639 -1.70601 1.2566 0
M  V30 END ATOM
M  V30 BEGIN BOND
M  V30 1 1 1 2
M  V30 2 2 2 3
M  V30 3 1 3 4
M  V30 4 2 4 5
M  V30 5 1 5 6
M  V30 6 2 6 7
M  V30 7 1 5 8
M  V30 8 2 8 9
M  V30 9 1 9 10
M  V30 10 2 10 11
M  V30 11 1 11 12
M  V30 12 1 11 13
M  V30 13 2 13 14
M  V30 14 1 14 15
M  V30 15 1 7 2
M  V30 16 1 14 8
M  V30 17 1 1 16
M  V30 18 1 1 17
M  V30 19 1 3 18
M  V30 20 1 4 19
M  V30 21 1 6 20
M  V30 22 1 7 21
M  V30 23 1 9 22
M  V30 24 1 10 23
M  V30 25 1 12 24
M  V30 26 1 12 25
M  V30 27 1 13 26
M  V30 END BOND
M  V30 END CTAB
M  END
