
     RDKit          3D

  0  0  0  0  0  0  0  0  0  0999 V3000
M  V30 BEGIN CTAB
M  V30 COUNTS 28 28 0 0 0
M  V30 BEGIN ATOM
M  V30 1 N 3.3184 0.177969 -0.485629 0
M  V30 2 C 2.73285 -0.592273 0.553155 0
M  V30 3 C 1.33865 -0.0541477 0.816182 0
M  V30 4 N 0.58303 -0.160572 -0.363749 0
M  V30 5 C 0.181387 -1.42547 -0.827609 0
M  V30 6 C -1.19167 -1.76915 -0.238496 0
M  V30 7 O -2.1721 -1.07762 -0.893927 0
M  V30 8 C -2.61545 0.0709058 -0.292379 0
M  V30 9 C -1.51824 0.96562 0.194667 0 CFG=1
M  V30 10 C -0.304809 0.882877 -0.703166 0
M  V30 11 N -1.95339 2.34503 0.139028 0
M  V30 12 H 2.92653 0.0119515 -1.3788 0
M  V30 13 H 3.51615 1.12251 -0.301818 0
M  V30 14 H 2.61131 -1.64702 0.241067 0
M  V30 15 H 3.35889 -0.466758 1.459 0
M  V30 16 H 1.42548 1.02055 1.10149 0
M  V30 17 H 0.886002 -0.558364 1.70728 0
M  V30 18 H 0.903679 -2.23562 -0.699172 0
M  V30 19 H -0.0426002 -1.31403 -1.93364 0
M  V30 20 H -1.21077 -1.68967 0.84733 0
M  V30 21 H -1.34537 -2.86442 -0.491643 0
M  V30 22 H -3.16088 0.65935 -1.09221 0
M  V30 23 H -3.35478 -0.101863 0.5227 0
M  V30 24 H -1.1917 0.656659 1.21 0
M  V30 25 H -0.638192 0.699663 -1.76463 0
M  V30 26 H 0.249188 1.8402 -0.693715 0
M  V30 27 H -2.24232 2.55874 -0.839965 0
M  V30 28 H -1.08928 2.94494 0.306191 0
M  V30 END ATOM
M  V30 BEGIN BOND
M  V30 1 1 1 2
M  V30 2 1 2 3
M  V30 3 1 3 4
M  V30 4 1 4 5
M  V30 5 1 5 6
M  V30 6 1 6 7
M  V30 7 1 7 8
M  V30 8 1 8 9
M  V30 9 1 9 10
M  V30 10 1 9 11
M  V30 11 1 10 4
M  V30 12 1 1 12
M  V30 13 1 1 13
M  V30 14 1 2 14
M  V30 15 1 2 15
M  V30 16 1 3 16
M  V30 17 1 3 17
M  V30 18 1 5 18
M  V30 19 1 5 19
M  V30 20 1 6 20
M  V30 21 1 6 21
M  V30 22 1 8 22
M  V30 23 1 8 23
M  V30 24 1 9 24 CFG=1
M  V30 25 1 10 25
M  V30 26 1 10 26
M  V30 27 1 11 27
M  V30 28 1 11 28
M  V30 END BOND
M  V30 END CTAB
M  END
