
     RDKit          3D

  0  0  0  0  0  0  0  0  0  0999 V3000
M  V30 BEGIN CTAB
M  V30 COUNTS 42 43 0 0 0
M  V30 BEGIN ATOM
M  V30 1 O -0.354362 0.76564 0.148936 0
M  V30 2 C -0.692689 -0.385678 -0.186639 0
M  V30 3 N 0.14045 -1.45268 -0.482822 0
M  V30 4 C 1.56769 -1.44117 -0.461169 0
M  V30 5 O 2.13598 -2.5601 -0.775719 0
M  V30 6 N 2.38613 -0.362486 -0.140372 0
M  V30 7 C 3.77934 -0.330302 -0.113388 0
M  V30 8 C 4.61096 -1.36641 -0.403357 0
M  V30 9 C 6.01437 -1.25285 -0.353331 0
M  V30 10 C 6.54095 -0.0345685 0.00597974 0
M  V30 11 C 5.7552 1.04767 0.309873 0
M  V30 12 C 4.40342 0.886383 0.246668 0
M  V30 13 C 3.56198 2.05348 0.574836 0
M  V30 14 C 8.01682 0.113549 0.0668913 0
M  V30 15 C -2.18833 -0.635294 -0.277778 0
M  V30 16 S -3.03567 0.889773 0.150239 0
M  V30 17 C -4.80378 0.588614 0.0405251 0
M  V30 18 N -5.30818 -0.598039 -0.307676 0
M  V30 19 C -6.62924 -0.856714 -0.399366 0
M  V30 20 N -7.12573 -2.12282 -0.770339 0
M  V30 21 C -7.52442 0.160021 -0.118325 0
M  V30 22 C -6.99851 1.38352 0.240767 0
M  V30 23 N -5.67278 1.5953 0.319018 0
M  V30 24 N -7.87866 2.46018 0.539244 0
M  V30 25 H -0.326229 -2.38507 -0.757024 0
M  V30 26 H 1.87537 0.536308 0.111524 0
M  V30 27 H 4.27222 -2.33307 -0.68762 0
M  V30 28 H 6.64583 -2.09862 -0.59062 0
M  V30 29 H 6.23708 1.97426 0.584129 0
M  V30 30 H 2.95401 2.40357 -0.280851 0
M  V30 31 H 4.15984 2.91947 0.915655 0
M  V30 32 H 2.8298 1.80427 1.39056 0
M  V30 33 H 8.39865 0.438362 -0.923785 0
M  V30 34 H 8.30994 0.886262 0.836713 0
M  V30 35 H 8.45056 -0.868496 0.295938 0
M  V30 36 H -2.48032 -1.46325 0.379997 0
M  V30 37 H -2.36112 -0.937359 -1.33849 0
M  V30 38 H -7.35653 -2.81874 -0.0466942 0
M  V30 39 H -7.25616 -2.34765 -1.76731 0
M  V30 40 H -8.59971 0.0220343 -0.172068 0
M  V30 41 H -8.76833 2.54598 0.00303029 0
M  V30 42 H -7.68584 3.17671 1.26989 0
M  V30 END ATOM
M  V30 BEGIN BOND
M  V30 1 2 1 2
M  V30 2 1 2 3
M  V30 3 1 3 4
M  V30 4 2 4 5
M  V30 5 1 4 6
M  V30 6 1 6 7
M  V30 7 2 7 8
M  V30 8 1 8 9
M  V30 9 2 9 10
M  V30 10 1 10 11
M  V30 11 2 11 12
M  V30 12 1 12 13
M  V30 13 1 10 14
M  V30 14 1 2 15
M  V30 15 1 15 16
M  V30 16 1 16 17
M  V30 17 2 17 18
M  V30 18 1 18 19
M  V30 19 1 19 20
M  V30 20 2 19 21
M  V30 21 1 21 22
M  V30 22 2 22 23
M  V30 23 1 22 24
M  V30 24 1 12 7
M  V30 25 1 23 17
M  V30 26 1 3 25
M  V30 27 1 6 26
M  V30 28 1 8 27
M  V30 29 1 9 28
M  V30 30 1 11 29
M  V30 31 1 13 30
M  V30 32 1 13 31
M  V30 33 1 13 32
M  V30 34 1 14 33
M  V30 35 1 14 34
M  V30 36 1 14 35
M  V30 37 1 15 36
M  V30 38 1 15 37
M  V30 39 1 20 38
M  V30 40 1 20 39
M  V30 41 1 21 40
M  V30 42 1 24 41
M  V30 43 1 24 42
M  V30 END BOND
M  V30 END CTAB
M  END
