
     RDKit          3D

  0  0  0  0  0  0  0  0  0  0999 V3000
M  V30 BEGIN CTAB
M  V30 COUNTS 41 42 0 0 0
M  V30 BEGIN ATOM
M  V30 1 C 0.6553 1.59088 -2.79722 0
M  V30 2 C -0.149213 0.460507 -2.14988 0
M  V30 3 C -0.518823 0.835051 -0.750935 0
M  V30 4 O -0.121561 1.9543 -0.308145 0
M  V30 5 N -1.28916 -0.0326112 0.0572207 0
M  V30 6 C -1.5507 0.496422 1.39672 0
M  V30 7 C -2.94409 1.07206 1.40037 0
M  V30 8 C -3.91567 -0.0881503 1.55908 0
M  V30 9 C -4.01325 -0.774725 0.222999 0
M  V30 10 C -2.96864 -1.81525 -0.00647445 0
M  V30 11 C -1.67575 -1.26062 -0.566779 0
M  V30 12 S 0.925236 -1.00845 -2.03649 0
M  V30 13 C 2.24079 -0.631389 -0.88042 0
M  V30 14 N 2.13384 -0.872703 0.438051 0
M  V30 15 C 3.12168 -0.587903 1.30965 0
M  V30 16 N 2.95832 -0.863376 2.69633 0
M  V30 17 C 4.28114 -0.0236194 0.789791 0
M  V30 18 C 4.40271 0.228559 -0.559733 0
M  V30 19 N 3.36449 -0.0893969 -1.35142 0
M  V30 20 N 5.57889 0.806876 -1.11745 0
M  V30 21 H -0.00590947 2.46218 -2.96481 0
M  V30 22 H 0.991899 1.20353 -3.78449 0
M  V30 23 H 1.53976 1.86687 -2.21027 0
M  V30 24 H -1.03607 0.299394 -2.77266 0
M  V30 25 H -0.86056 1.30985 1.65439 0
M  V30 26 H -1.41735 -0.306622 2.15068 0
M  V30 27 H -3.06041 1.78836 2.25728 0
M  V30 28 H -3.15219 1.56193 0.42933 0
M  V30 29 H -3.65612 -0.741874 2.39036 0
M  V30 30 H -4.91857 0.384979 1.74391 0
M  V30 31 H -4.02488 -0.00300451 -0.551872 0
M  V30 32 H -5.01171 -1.29865 0.218741 0
M  V30 33 H -2.7869 -2.38023 0.915701 0
M  V30 34 H -3.36657 -2.53325 -0.753203 0
M  V30 35 H -0.895479 -2.03669 -0.311476 0
M  V30 36 H -1.75068 -1.2309 -1.64971 0
M  V30 37 H 2.10876 -0.579847 3.22533 0
M  V30 38 H 3.69769 -1.374 3.26193 0
M  V30 39 H 5.07764 0.210923 1.46139 0
M  V30 40 H 5.83416 0.510122 -2.08289 0
M  V30 41 H 6.17797 1.49047 -0.623881 0
M  V30 END ATOM
M  V30 BEGIN BOND
M  V30 1 1 1 2
M  V30 2 1 2 3
M  V30 3 2 3 4
M  V30 4 1 3 5
M  V30 5 1 5 6
M  V30 6 1 6 7
M  V30 7 1 7 8
M  V30 8 1 8 9
M  V30 9 1 9 10
M  V30 10 1 10 11
M  V30 11 1 2 12
M  V30 12 1 12 13
M  V30 13 2 13 14
M  V30 14 1 14 15
M  V30 15 1 15 16
M  V30 16 2 15 17
M  V30 17 1 17 18
M  V30 18 2 18 19
M  V30 19 1 18 20
M  V30 20 1 11 5
M  V30 21 1 19 13
M  V30 22 1 1 21
M  V30 23 1 1 22
M  V30 24 1 1 23
M  V30 25 1 2 24
M  V30 26 1 6 25
M  V30 27 1 6 26
M  V30 28 1 7 27
M  V30 29 1 7 28
M  V30 30 1 8 29
M  V30 31 1 8 30
M  V30 32 1 9 31
M  V30 33 1 9 32
M  V30 34 1 10 33
M  V30 35 1 10 34
M  V30 36 1 11 35
M  V30 37 1 11 36
M  V30 38 1 16 37
M  V30 39 1 16 38
M  V30 40 1 17 39
M  V30 41 1 20 40
M  V30 42 1 20 41
M  V30 END BOND
M  V30 END CTAB
M  END
