
     RDKit          3D

  0  0  0  0  0  0  0  0  0  0999 V3000
M  V30 BEGIN CTAB
M  V30 COUNTS 44 45 0 0 0
M  V30 BEGIN ATOM
M  V30 1 O -0.0295459 -3.129 0.423768 0
M  V30 2 C 0.0301084 -1.89392 0.132736 0
M  V30 3 C -1.20508 -1.17794 -0.0403229 0
M  V30 4 C -1.35446 -0.0186043 -0.771311 0
M  V30 5 C -2.55963 0.623078 -0.90569 0
M  V30 6 C -3.71434 0.114523 -0.291444 0
M  V30 7 C -3.58385 -1.03467 0.438328 0
M  V30 8 C -2.37332 -1.65467 0.556354 0
M  V30 9 N -4.74272 -1.57144 1.08102 0
M  V30 10 N -4.94985 0.760298 -0.441912 0
M  V30 11 C -6.01215 0.137825 -1.19246 0
M  V30 12 C -5.19674 2.0556 0.153491 0
M  V30 13 C 1.33589 -1.29422 -0.00708052 0
M  V30 14 C 2.41994 -2.06357 -0.461793 0
M  V30 15 C 3.65238 -1.49686 -0.573697 0
M  V30 16 C 3.90933 -0.172799 -0.258546 0
M  V30 17 C 2.85206 0.577986 0.185836 0
M  V30 18 C 1.57251 0.0207482 0.310703 0
M  V30 19 N 3.04855 1.92473 0.524837 0
M  V30 20 N 5.20912 0.364408 -0.401802 0
M  V30 21 C 5.91182 1.02607 0.699058 0
M  V30 22 C 5.91342 0.265791 -1.68915 0
M  V30 23 H -0.515874 0.431511 -1.2815 0
M  V30 24 H -2.6589 1.54136 -1.4891 0
M  V30 25 H -2.27927 -2.56282 1.13216 0
M  V30 26 H -5.10861 -1.09318 1.93503 0
M  V30 27 H -5.16224 -2.42206 0.652396 0
M  V30 28 H -6.94879 0.731307 -1.16204 0
M  V30 29 H -6.27115 -0.868385 -0.823267 0
M  V30 30 H -5.70043 0.132204 -2.26577 0
M  V30 31 H -5.3517 2.7868 -0.663708 0
M  V30 32 H -6.149 1.99236 0.715629 0
M  V30 33 H -4.38162 2.39026 0.805054 0
M  V30 34 H 2.2083 -3.09014 -0.704927 0
M  V30 35 H 4.48696 -2.0887 -0.926693 0
M  V30 36 H 0.749268 0.644422 0.681301 0
M  V30 37 H 3.09957 2.23792 1.51946 0
M  V30 38 H 3.15027 2.65808 -0.202714 0
M  V30 39 H 6.06568 2.09643 0.4659 0
M  V30 40 H 6.92746 0.586743 0.849121 0
M  V30 41 H 5.37361 0.871758 1.66062 0
M  V30 42 H 6.92857 0.698015 -1.57107 0
M  V30 43 H 5.32913 0.764153 -2.48756 0
M  V30 44 H 6.07532 -0.8014 -1.96211 0
M  V30 END ATOM
M  V30 BEGIN BOND
M  V30 1 2 1 2
M  V30 2 1 2 3
M  V30 3 2 3 4
M  V30 4 1 4 5
M  V30 5 2 5 6
M  V30 6 1 6 7
M  V30 7 2 7 8
M  V30 8 1 7 9
M  V30 9 1 6 10
M  V30 10 1 10 11
M  V30 11 1 10 12
M  V30 12 1 2 13
M  V30 13 2 13 14
M  V30 14 1 14 15
M  V30 15 2 15 16
M  V30 16 1 16 17
M  V30 17 2 17 18
M  V30 18 1 17 19
M  V30 19 1 16 20
M  V30 20 1 20 21
M  V30 21 1 20 22
M  V30 22 1 8 3
M  V30 23 1 18 13
M  V30 24 1 4 23
M  V30 25 1 5 24
M  V30 26 1 8 25
M  V30 27 1 9 26
M  V30 28 1 9 27
M  V30 29 1 11 28
M  V30 30 1 11 29
M  V30 31 1 11 30
M  V30 32 1 12 31
M  V30 33 1 12 32
M  V30 34 1 12 33
M  V30 35 1 14 34
M  V30 36 1 15 35
M  V30 37 1 18 36
M  V30 38 1 19 37
M  V30 39 1 19 38
M  V30 40 1 21 39
M  V30 41 1 21 40
M  V30 42 1 21 41
M  V30 43 1 22 42
M  V30 44 1 22 43
M  V30 45 1 22 44
M  V30 END BOND
M  V30 END CTAB
M  END
