
     RDKit          3D

  0  0  0  0  0  0  0  0  0  0999 V3000
M  V30 BEGIN CTAB
M  V30 COUNTS 42 44 0 0 0
M  V30 BEGIN ATOM
M  V30 1 F 7.55733 0.425265 -1.39978 0
M  V30 2 C 6.40427 0.322459 -0.698613 0
M  V30 3 C 5.94315 -0.929714 -0.340239 0
M  V30 4 C 4.76257 -0.978886 0.374051 0
M  V30 5 C 4.06986 0.176174 0.716947 0
M  V30 6 C 4.54405 1.41293 0.351692 0
M  V30 7 C 5.72215 1.48107 -0.362326 0
M  V30 8 Cl 3.69592 2.90326 0.766616 0
M  V30 9 C 2.82369 0.112457 1.4717 0
M  V30 10 O 2.89899 0.148252 2.72396 0
M  V30 11 N 1.55468 0.0139717 0.87511 0
M  V30 12 C 0.358282 -0.0459978 1.64792 0
M  V30 13 C -0.890504 0.208512 0.848186 0
M  V30 14 N -0.937504 -0.402875 -0.412091 0
M  V30 15 C 0.249854 -0.599213 -1.12347 0
M  V30 16 C 1.49246 -0.0255451 -0.565659 0
M  V30 17 C -2.0027 -1.30724 -0.664452 0
M  V30 18 C -3.33618 -0.647874 -0.543447 0
M  V30 19 N -4.46016 -1.36113 -0.735817 0
M  V30 20 C -5.69601 -0.839777 -0.644997 0
M  V30 21 N -6.8746 -1.59933 -0.849408 0
M  V30 22 N -5.7841 0.477248 -0.342148 0
M  V30 23 C -4.68653 1.23526 -0.140051 0
M  V30 24 N -3.47923 0.658568 -0.244377 0
M  V30 25 N -4.87114 2.60105 0.171754 0
M  V30 26 H 6.49843 -1.81623 -0.617644 0
M  V30 27 H 4.36585 -1.95095 0.675599 0
M  V30 28 H 6.09914 2.46778 -0.652935 0
M  V30 29 H 0.356434 0.718545 2.47891 0
M  V30 30 H 0.301276 -1.02715 2.14621 0
M  V30 31 H -1.74038 -0.197342 1.47377 0
M  V30 32 H -1.09226 1.30719 0.797056 0
M  V30 33 H 0.11908 -0.179527 -2.16511 0
M  V30 34 H 0.380473 -1.70659 -1.30762 0
M  V30 35 H 1.72501 0.995497 -0.948255 0
M  V30 36 H 2.35758 -0.664698 -0.908747 0
M  V30 37 H -1.92324 -1.66163 -1.71666 0
M  V30 38 H -1.95887 -2.22284 -0.0357862 0
M  V30 39 H -6.96347 -2.55434 -0.452757 0
M  V30 40 H -7.65842 -1.21054 -1.39567 0
M  V30 41 H -5.72011 2.90198 0.704913 0
M  V30 42 H -4.20513 3.36195 -0.0963232 0
M  V30 END ATOM
M  V30 BEGIN BOND
M  V30 1 1 1 2
M  V30 2 2 2 3
M  V30 3 1 3 4
M  V30 4 2 4 5
M  V30 5 1 5 6
M  V30 6 2 6 7
M  V30 7 1 6 8
M  V30 8 1 5 9
M  V30 9 2 9 10
M  V30 10 1 9 11
M  V30 11 1 11 12
M  V30 12 1 12 13
M  V30 13 1 13 14
M  V30 14 1 14 15
M  V30 15 1 15 16
M  V30 16 1 14 17
M  V30 17 1 17 18
M  V30 18 2 18 19
M  V30 19 1 19 20
M  V30 20 1 20 21
M  V30 21 2 20 22
M  V30 22 1 22 23
M  V30 23 2 23 24
M  V30 24 1 23 25
M  V30 25 1 7 2
M  V30 26 1 16 11
M  V30 27 1 24 18
M  V30 28 1 3 26
M  V30 29 1 4 27
M  V30 30 1 7 28
M  V30 31 1 12 29
M  V30 32 1 12 30
M  V30 33 1 13 31
M  V30 34 1 13 32
M  V30 35 1 15 33
M  V30 36 1 15 34
M  V30 37 1 16 35
M  V30 38 1 16 36
M  V30 39 1 17 37
M  V30 40 1 17 38
M  V30 41 1 21 39
M  V30 42 1 21 40
M  V30 43 1 25 41
M  V30 44 1 25 42
M  V30 END BOND
M  V30 END CTAB
M  END
