
     RDKit          3D

  0  0  0  0  0  0  0  0  0  0999 V3000
M  V30 BEGIN CTAB
M  V30 COUNTS 20 20 0 0 0
M  V30 BEGIN ATOM
M  V30 1 C 0.356467 -1.59576 -0.531219 0
M  V30 2 C 0.24736 -0.146909 -0.17538 0
M  V30 3 C 1.38781 0.487491 0.022381 0
M  V30 4 N 1.32421 1.86548 0.362232 0
M  V30 5 N 2.66078 -0.149131 -0.090701 0
M  V30 6 C -1.03629 0.533135 -0.0519591 0
M  V30 7 C -2.30699 -0.0473936 -0.498964 0
M  V30 8 C -2.03223 0.00210003 1.00065 0
M  V30 9 H 1.24208 -1.73582 -1.21925 0
M  V30 10 H -0.509881 -1.96613 -1.08437 0
M  V30 11 H 0.608733 -2.21112 0.365941 0
M  V30 12 H 1.18831 2.5475 -0.405095 0
M  V30 13 H 1.41173 2.17974 1.35353 0
M  V30 14 H 3.226 -0.0173379 -0.962248 0
M  V30 15 H 3.06112 -0.753369 0.674381 0
M  V30 16 H -0.991623 1.65932 -0.0851885 0
M  V30 17 H -3.138 0.622696 -0.801573 0
M  V30 18 H -2.39447 -1.05651 -0.942838 0
M  V30 19 H -1.73768 -0.969554 1.45439 0
M  V30 20 H -2.56743 0.751573 1.61529 0
M  V30 END ATOM
M  V30 BEGIN BOND
M  V30 1 1 1 2
M  V30 2 2 2 3 CFG=2
M  V30 3 1 3 4
M  V30 4 1 3 5
M  V30 5 1 2 6
M  V30 6 1 6 7
M  V30 7 1 7 8
M  V30 8 1 8 6
M  V30 9 1 1 9
M  V30 10 1 1 10
M  V30 11 1 1 11
M  V30 12 1 4 12
M  V30 13 1 4 13
M  V30 14 1 5 14
M  V30 15 1 5 15
M  V30 16 1 6 16
M  V30 17 1 7 17
M  V30 18 1 7 18
M  V30 19 1 8 19
M  V30 20 1 8 20
M  V30 END BOND
M  V30 END CTAB
M  END
