
     RDKit          3D

  0  0  0  0  0  0  0  0  0  0999 V3000
M  V30 BEGIN CTAB
M  V30 COUNTS 50 50 0 0 0
M  V30 BEGIN ATOM
M  V30 1 C 3.90993 0.902577 1.80143 0
M  V30 2 C 2.86937 0.708749 0.67763 0
M  V30 3 C 3.08396 -0.602359 0.010497 0
M  V30 4 C 2.23431 -0.980267 -1.11499 0
M  V30 5 N 0.831157 -1.09223 -1.02419 0
M  V30 6 C -0.152873 -0.0920606 -0.835365 0
M  V30 7 O 0.193477 1.09958 -0.749064 0
M  V30 8 C -1.57156 -0.530494 -0.749215 0
M  V30 9 C -2.56885 0.547663 -0.598124 0
M  V30 10 C -2.61311 1.55579 -1.72501 0
M  V30 11 N -3.64346 2.54829 -1.42649 0
M  V30 12 C -3.94696 -0.0940511 -0.584138 0
M  V30 13 C -4.2144 -0.845856 0.687236 0
M  V30 14 C -4.01313 -0.0211027 1.91993 0
M  V30 15 C -2.56311 0.473288 1.9024 0
M  V30 16 C -2.43221 1.34293 0.675816 0
M  V30 17 C 4.55751 -0.58502 -0.460872 0
M  V30 18 C 4.9038 -1.87306 -1.16047 0
M  V30 19 N 3.07582 -1.60972 1.08643 0
M  V30 20 H 4.12855 -0.0326025 2.3147 0
M  V30 21 H 4.81169 1.29842 1.30124 0
M  V30 22 H 3.54986 1.64797 2.53461 0
M  V30 23 H 1.90414 0.72978 1.27271 0
M  V30 24 H 2.90743 1.57568 0.0410881 0
M  V30 25 H 2.41413 -0.223519 -1.96116 0
M  V30 26 H 2.62965 -1.97658 -1.53251 0
M  V30 27 H 0.469843 -2.12651 -1.11348 0
M  V30 28 H -1.77046 -1.08219 -1.69269 0
M  V30 29 H -1.66383 -1.22152 0.111771 0
M  V30 30 H -1.66829 1.99907 -2.0029 0
M  V30 31 H -2.99498 1.02186 -2.64357 0
M  V30 32 H -4.07719 2.93842 -2.28824 0
M  V30 33 H -3.2653 3.32801 -0.870042 0
M  V30 34 H -3.97771 -0.820701 -1.42311 0
M  V30 35 H -4.74146 0.653919 -0.773348 0
M  V30 36 H -3.61519 -1.75817 0.767135 0
M  V30 37 H -5.27897 -1.15786 0.664002 0
M  V30 38 H -4.16896 -0.690346 2.79569 0
M  V30 39 H -4.66318 0.856788 1.99297 0
M  V30 40 H -1.8855 -0.377783 1.94151 0
M  V30 41 H -2.35553 1.09039 2.8044 0
M  V30 42 H -1.56769 2.00843 0.706585 0
M  V30 43 H -3.3336 2.02578 0.699037 0
M  V30 44 H 5.23087 -0.484102 0.400181 0
M  V30 45 H 4.74019 0.279416 -1.12971 0
M  V30 46 H 4.44747 -2.73112 -0.624525 0
M  V30 47 H 4.59478 -1.83801 -2.23085 0
M  V30 48 H 6.01054 -1.9996 -1.09643 0
M  V30 49 H 2.49317 -1.27901 1.89223 0
M  V30 50 H 2.75584 -2.50695 0.681576 0
M  V30 END ATOM
M  V30 BEGIN BOND
M  V30 1 1 1 2
M  V30 2 1 2 3
M  V30 3 1 3 4
M  V30 4 1 4 5
M  V30 5 1 5 6
M  V30 6 2 6 7
M  V30 7 1 6 8
M  V30 8 1 8 9
M  V30 9 1 9 10
M  V30 10 1 10 11
M  V30 11 1 9 12
M  V30 12 1 12 13
M  V30 13 1 13 14
M  V30 14 1 14 15
M  V30 15 1 15 16
M  V30 16 1 3 17
M  V30 17 1 17 18
M  V30 18 1 3 19
M  V30 19 1 16 9
M  V30 20 1 1 20
M  V30 21 1 1 21
M  V30 22 1 1 22
M  V30 23 1 2 23
M  V30 24 1 2 24
M  V30 25 1 4 25
M  V30 26 1 4 26
M  V30 27 1 5 27
M  V30 28 1 8 28
M  V30 29 1 8 29
M  V30 30 1 10 30
M  V30 31 1 10 31
M  V30 32 1 11 32
M  V30 33 1 11 33
M  V30 34 1 12 34
M  V30 35 1 12 35
M  V30 36 1 13 36
M  V30 37 1 13 37
M  V30 38 1 14 38
M  V30 39 1 14 39
M  V30 40 1 15 40
M  V30 41 1 15 41
M  V30 42 1 16 42
M  V30 43 1 16 43
M  V30 44 1 17 44
M  V30 45 1 17 45
M  V30 46 1 18 46
M  V30 47 1 18 47
M  V30 48 1 18 48
M  V30 49 1 19 49
M  V30 50 1 19 50
M  V30 END BOND
M  V30 END CTAB
M  END
