
     RDKit          3D

  0  0  0  0  0  0  0  0  0  0999 V3000
M  V30 BEGIN CTAB
M  V30 COUNTS 21 21 0 0 0
M  V30 BEGIN ATOM
M  V30 1 N 3.50225 1.02905 -0.541331 0
M  V30 2 N 2.14319 0.810455 -0.336625 0
M  V30 3 C 1.59639 -0.343387 -0.2842 0
M  V30 4 C 0.164193 -0.505349 -0.0665504 0
M  V30 5 C -0.400109 -1.76192 -0.0143621 0
M  V30 6 N -1.72599 -1.89819 0.187486 0
M  V30 7 C -2.52811 -0.828586 0.342006 0
M  V30 8 C -2.02827 0.456769 0.300626 0
M  V30 9 C -0.665835 0.582992 0.0928278 0
M  V30 10 C -2.92395 1.64071 0.472836 0
M  V30 11 N 2.41972 -1.48929 -0.444098 0
M  V30 12 H 3.77451 1.61696 -1.35625 0
M  V30 13 H 4.27097 0.653961 0.0522491 0
M  V30 14 H 0.217782 -2.66625 -0.135655 0
M  V30 15 H -3.60539 -0.934541 0.506151 0
M  V30 16 H -0.274297 1.5981 0.0606503 0
M  V30 17 H -3.77014 1.50244 -0.232755 0
M  V30 18 H -2.37586 2.556 0.171732 0
M  V30 19 H -3.24736 1.7698 1.52174 0
M  V30 20 H 2.33366 -2.10545 -1.25467 0
M  V30 21 H 3.12261 -1.68429 0.299911 0
M  V30 END ATOM
M  V30 BEGIN BOND
M  V30 1 1 1 2
M  V30 2 2 2 3
M  V30 3 1 3 4
M  V30 4 2 4 5
M  V30 5 1 5 6
M  V30 6 2 6 7
M  V30 7 1 7 8
M  V30 8 2 8 9
M  V30 9 1 8 10
M  V30 10 1 3 11
M  V30 11 1 9 4
M  V30 12 1 1 12
M  V30 13 1 1 13
M  V30 14 1 5 14
M  V30 15 1 7 15
M  V30 16 1 9 16
M  V30 17 1 10 17
M  V30 18 1 10 18
M  V30 19 1 10 19
M  V30 20 1 11 20
M  V30 21 1 11 21
M  V30 END BOND
M  V30 END CTAB
M  END
