
     RDKit          3D

  0  0  0  0  0  0  0  0  0  0999 V3000
M  V30 BEGIN CTAB
M  V30 COUNTS 25 25 0 0 0
M  V30 BEGIN ATOM
M  V30 1 C 4.04863 -1.08205 0.433751 0
M  V30 2 O 3.09069 -0.321586 -0.268345 0
M  V30 3 C 2.0631 0.276877 0.428301 0
M  V30 4 O 2.00059 0.143077 1.6635 0
M  V30 5 C 1.07201 1.05694 -0.308012 0
M  V30 6 C -0.309273 0.528022 -0.235556 0
M  V30 7 C -0.630889 -0.764869 0.095971 0
M  V30 8 C -1.94184 -1.21974 0.136262 0
M  V30 9 N -2.22962 -2.55718 0.478277 0
M  V30 10 C -2.9871 -0.350802 -0.166515 0
M  V30 11 C -2.70134 0.953902 -0.50273 0
M  V30 12 C -1.36258 1.36612 -0.529023 0
M  V30 13 N -1.13753 2.73262 -0.875423 0
M  V30 14 F -3.71291 1.81072 -0.80861 0
M  V30 15 H 3.70518 -1.36646 1.44465 0
M  V30 16 H 4.1692 -2.06214 -0.11467 0
M  V30 17 H 5.03146 -0.589841 0.478478 0
M  V30 18 H 1.32482 1.117 -1.40642 0
M  V30 19 H 1.07428 2.09072 0.135048 0
M  V30 20 H 0.21317 -1.41288 0.327193 0
M  V30 21 H -2.25757 -2.85288 1.46558 0
M  V30 22 H -2.4164 -3.23011 -0.294018 0
M  V30 23 H -3.97828 -0.748207 -0.124105 0
M  V30 24 H -1.64744 3.1639 -1.68266 0
M  V30 25 H -0.480363 3.31885 -0.34876 0
M  V30 END ATOM
M  V30 BEGIN BOND
M  V30 1 1 1 2
M  V30 2 1 2 3
M  V30 3 2 3 4
M  V30 4 1 3 5
M  V30 5 1 5 6
M  V30 6 2 6 7
M  V30 7 1 7 8
M  V30 8 1 8 9
M  V30 9 2 8 10
M  V30 10 1 10 11
M  V30 11 2 11 12
M  V30 12 1 12 13
M  V30 13 1 11 14
M  V30 14 1 12 6
M  V30 15 1 1 15
M  V30 16 1 1 16
M  V30 17 1 1 17
M  V30 18 1 5 18
M  V30 19 1 5 19
M  V30 20 1 7 20
M  V30 21 1 9 21
M  V30 22 1 9 22
M  V30 23 1 10 23
M  V30 24 1 13 24
M  V30 25 1 13 25
M  V30 END BOND
M  V30 END CTAB
M  END
