
     RDKit          3D

  0  0  0  0  0  0  0  0  0  0999 V3000
M  V30 BEGIN CTAB
M  V30 COUNTS 38 39 0 0 0
M  V30 BEGIN ATOM
M  V30 1 O -2.25832 -0.0509609 0.00388331 0
M  V30 2 C -2.30866 0.0423667 -1.23125 0
M  V30 3 C -3.61258 0.102808 -1.91094 0
M  V30 4 C -4.68336 0.030319 -0.846386 0
M  V30 5 C -5.16683 1.1772 -0.263875 0
M  V30 6 S -6.31855 0.527077 0.830503 0
M  V30 7 C -6.10722 -1.12899 0.475764 0
M  V30 8 N -5.17925 -1.0976 -0.44869 0
M  V30 9 N -6.77356 -2.28151 1.0416 0
M  V30 10 N -1.12094 0.0910621 -1.99045 0
M  V30 11 C 0.154506 0.0379243 -1.35724 0
M  V30 12 C 0.447219 1.15919 -0.394219 0
M  V30 13 C 1.80514 0.920243 0.141817 0
M  V30 14 C 2.89862 1.44424 -0.487325 0
M  V30 15 C 4.18903 1.23495 -0.00426606 0
M  V30 16 C 4.35336 0.488692 1.12276 0
M  V30 17 C 3.25906 -0.0469109 1.76897 0
M  V30 18 C 1.96943 0.171628 1.27232 0
M  V30 19 S 5.94347 0.200508 1.76283 0
M  V30 20 O 6.88202 1.35334 1.49412 0
M  V30 21 O 5.84753 -0.00139866 3.24572 0
M  V30 22 N 6.65779 -1.23586 1.10465 0
M  V30 23 H -3.71902 -0.747162 -2.62785 0
M  V30 24 H -3.75027 1.01973 -2.51782 0
M  V30 25 H -4.86135 2.21578 -0.479055 0
M  V30 26 H -6.42292 -2.62879 1.9385 0
M  V30 27 H -7.57658 -2.70038 0.508435 0
M  V30 28 H -1.13082 0.168046 -3.04532 0
M  V30 29 H 0.976436 0.0306454 -2.10411 0
M  V30 30 H 0.239179 -0.910955 -0.75819 0
M  V30 31 H 0.445794 2.13241 -0.953158 0
M  V30 32 H -0.260283 1.23339 0.441542 0
M  V30 33 H 2.77512 2.04008 -1.38614 0
M  V30 34 H 5.05523 1.64612 -0.496837 0
M  V30 35 H 3.34884 -0.642141 2.66236 0
M  V30 36 H 1.14331 -0.270949 1.81678 0
M  V30 37 H 6.50936 -1.31551 0.0764268 0
M  V30 38 H 6.35005 -2.09209 1.59414 0
M  V30 END ATOM
M  V30 BEGIN BOND
M  V30 1 2 1 2
M  V30 2 1 2 3
M  V30 3 1 3 4
M  V30 4 2 4 5
M  V30 5 1 5 6
M  V30 6 1 6 7
M  V30 7 2 7 8
M  V30 8 1 7 9
M  V30 9 1 2 10
M  V30 10 1 10 11
M  V30 11 1 11 12
M  V30 12 1 12 13
M  V30 13 2 13 14
M  V30 14 1 14 15
M  V30 15 2 15 16
M  V30 16 1 16 17
M  V30 17 2 17 18
M  V30 18 1 16 19
M  V30 19 2 19 20
M  V30 20 2 19 21
M  V30 21 1 19 22
M  V30 22 1 8 4
M  V30 23 1 18 13
M  V30 24 1 3 23
M  V30 25 1 3 24
M  V30 26 1 5 25
M  V30 27 1 9 26
M  V30 28 1 9 27
M  V30 29 1 10 28
M  V30 30 1 11 29
M  V30 31 1 11 30
M  V30 32 1 12 31
M  V30 33 1 12 32
M  V30 34 1 14 33
M  V30 35 1 15 34
M  V30 36 1 17 35
M  V30 37 1 18 36
M  V30 38 1 22 37
M  V30 39 1 22 38
M  V30 END BOND
M  V30 END CTAB
M  END
