
     RDKit          3D

  0  0  0  0  0  0  0  0  0  0999 V3000
M  V30 BEGIN CTAB
M  V30 COUNTS 21 21 0 0 0
M  V30 BEGIN ATOM
M  V30 1 Br 2.89413 0.893613 1.90685 0
M  V30 2 C 3.38823 0.170902 0.16957 0
M  V30 3 C 2.30857 0.448682 -0.796852 0
M  V30 4 O 2.60248 0.968429 -1.89397 0
M  V30 5 C 0.9261 0.119774 -0.476237 0
M  V30 6 C -0.0537245 1.05245 -0.295253 0
M  V30 7 C -1.35182 0.685944 0.0266915 0
M  V30 8 N -2.34367 1.68374 0.192169 0
M  V30 9 C -1.70434 -0.646825 0.174966 0
M  V30 10 C -0.721519 -1.6107 -0.00406259 0
M  V30 11 C 0.553662 -1.22312 -0.324427 0
M  V30 12 Cl 1.73643 -2.50312 -0.585766 0
M  V30 13 N -3.02169 -1.0363 0.485976 0
M  V30 14 H 3.63758 -0.872963 0.275192 0
M  V30 15 H 4.3338 0.706862 -0.175926 0
M  V30 16 H 0.179232 2.09853 -0.384359 0
M  V30 17 H -2.67321 2.02322 1.1156 0
M  V30 18 H -2.76274 2.08516 -0.687224 0
M  V30 19 H -0.946488 -2.6823 0.0854328 0
M  V30 20 H -3.63227 -1.38132 -0.27751 0
M  V30 21 H -3.34873 -0.980654 1.46914 0
M  V30 END ATOM
M  V30 BEGIN BOND
M  V30 1 1 1 2
M  V30 2 1 2 3
M  V30 3 2 3 4
M  V30 4 1 3 5
M  V30 5 2 5 6
M  V30 6 1 6 7
M  V30 7 1 7 8
M  V30 8 2 7 9
M  V30 9 1 9 10
M  V30 10 2 10 11
M  V30 11 1 11 12
M  V30 12 1 9 13
M  V30 13 1 11 5
M  V30 14 1 2 14
M  V30 15 1 2 15
M  V30 16 1 6 16
M  V30 17 1 8 17
M  V30 18 1 8 18
M  V30 19 1 10 19
M  V30 20 1 13 20
M  V30 21 1 13 21
M  V30 END BOND
M  V30 END CTAB
M  END
