
     RDKit          3D

  0  0  0  0  0  0  0  0  0  0999 V3000
M  V30 BEGIN CTAB
M  V30 COUNTS 42 43 0 0 0
M  V30 BEGIN ATOM
M  V30 1 N -2.61703 -1.28362 -2.53697 0
M  V30 2 C -2.22345 -0.107784 -1.80492 0
M  V30 3 C -2.38384 -0.321547 -0.288271 0
M  V30 4 C -3.88829 -0.619244 -0.122062 0
M  V30 5 C -4.37675 -0.328343 1.27527 0
M  V30 6 C -4.1074 1.11606 1.65339 0
M  V30 7 C -3.14925 1.75834 0.674602 0
M  V30 8 N -2.00732 0.844809 0.421397 0
M  V30 9 C -0.772416 1.22793 0.885197 0
M  V30 10 O -0.83359 2.39956 1.52005 0
M  V30 11 C 0.549756 0.647566 0.835334 0
M  V30 12 C 0.924812 -0.512408 0.21713 0
M  V30 13 C 2.24457 -0.994916 0.244009 0
M  V30 14 C 3.23478 -0.319276 0.898628 0
M  V30 15 C 2.89163 0.845694 1.52717 0
M  V30 16 C 1.59906 1.31441 1.49871 0
M  V30 17 C 4.62748 -0.858265 0.90913 0
M  V30 18 S 5.56733 -0.247575 -0.466914 0
M  V30 19 O 5.73243 1.23422 -0.37089 0
M  V30 20 O 4.96816 -0.66596 -1.77586 0
M  V30 21 N 7.15499 -0.941991 -0.341561 0
M  V30 22 H -2.33274 -2.16475 -2.0685 0
M  V30 23 H -3.6217 -1.31393 -2.78357 0
M  V30 24 H -1.17481 0.176974 -2.02177 0
M  V30 25 H -2.88185 0.749719 -2.1278 0
M  V30 26 H -1.9039 -1.26798 -0.0284803 0
M  V30 27 H -4.09566 -1.67589 -0.345189 0
M  V30 28 H -4.46858 0.0104462 -0.818213 0
M  V30 29 H -5.47823 -0.449193 1.25005 0
M  V30 30 H -4.00541 -1.04834 2.032 0
M  V30 31 H -5.04391 1.70396 1.66722 0
M  V30 32 H -3.70901 1.11526 2.68586 0
M  V30 33 H -3.67856 2.00927 -0.26212 0
M  V30 34 H -2.7736 2.69023 1.11411 0
M  V30 35 H 0.195596 -1.0816 -0.318333 0
M  V30 36 H 2.48001 -1.92104 -0.264829 0
M  V30 37 H 3.66751 1.38751 2.04748 0
M  V30 38 H 1.32971 2.23754 1.99813 0
M  V30 39 H 5.12841 -0.53016 1.83232 0
M  V30 40 H 4.56523 -1.9451 0.899979 0
M  V30 41 H 7.53293 -1.00091 -1.31324 0
M  V30 42 H 7.13292 -1.86967 0.147291 0
M  V30 END ATOM
M  V30 BEGIN BOND
M  V30 1 1 1 2
M  V30 2 1 2 3
M  V30 3 1 3 4
M  V30 4 1 4 5
M  V30 5 1 5 6
M  V30 6 1 6 7
M  V30 7 1 7 8
M  V30 8 1 8 9
M  V30 9 2 9 10
M  V30 10 1 9 11
M  V30 11 2 11 12
M  V30 12 1 12 13
M  V30 13 2 13 14
M  V30 14 1 14 15
M  V30 15 2 15 16
M  V30 16 1 14 17
M  V30 17 1 17 18
M  V30 18 2 18 19
M  V30 19 2 18 20
M  V30 20 1 18 21
M  V30 21 1 8 3
M  V30 22 1 16 11
M  V30 23 1 1 22
M  V30 24 1 1 23
M  V30 25 1 2 24
M  V30 26 1 2 25
M  V30 27 1 3 26
M  V30 28 1 4 27
M  V30 29 1 4 28
M  V30 30 1 5 29
M  V30 31 1 5 30
M  V30 32 1 6 31
M  V30 33 1 6 32
M  V30 34 1 7 33
M  V30 35 1 7 34
M  V30 36 1 12 35
M  V30 37 1 13 36
M  V30 38 1 15 37
M  V30 39 1 16 38
M  V30 40 1 17 39
M  V30 41 1 17 40
M  V30 42 1 21 41
M  V30 43 1 21 42
M  V30 END BOND
M  V30 END CTAB
M  END
