
     RDKit          3D

  0  0  0  0  0  0  0  0  0  0999 V3000
M  V30 BEGIN CTAB
M  V30 COUNTS 30 31 0 0 0
M  V30 BEGIN ATOM
M  V30 1 N 5.86588 0.838195 0.643252 0
M  V30 2 C 4.54168 0.409654 0.367451 0
M  V30 3 C 3.5642 0.419516 1.3627 0
M  V30 4 C 2.28446 0.00605806 1.09868 0
M  V30 5 C 1.91687 -0.434896 -0.161287 0
M  V30 6 C 2.9088 -0.437024 -1.14229 0
M  V30 7 C 4.19293 -0.024658 -0.886614 0
M  V30 8 O 0.62167 -0.854844 -0.433972 0
M  V30 9 S -0.511197 0.280618 -0.971213 0
M  V30 10 O -0.41868 0.370789 -2.48369 0
M  V30 11 O -0.100644 1.63452 -0.452139 0
M  V30 12 C -2.12963 -0.10796 -0.464963 0
M  V30 13 C -2.93142 -0.895532 -1.26478 0
M  V30 14 C -4.22168 -1.21059 -0.870496 0
M  V30 15 C -4.75808 -0.763702 0.313662 0
M  V30 16 C -3.96029 0.0257722 1.11978 0
M  V30 17 C -2.66297 0.343541 0.725084 0
M  V30 18 N -4.51714 0.481638 2.33487 0
M  V30 19 Cl -6.39928 -1.17188 0.802063 0
M  V30 20 H 6.63573 0.449468 0.0591184 0
M  V30 21 H 6.10922 1.51823 1.39573 0
M  V30 22 H 3.88022 0.771879 2.34768 0
M  V30 23 H 1.53863 0.0247312 1.89903 0
M  V30 24 H 2.59338 -0.78695 -2.11892 0
M  V30 25 H 4.91514 -0.0484873 -1.68272 0
M  V30 26 H -2.54487 -1.27008 -2.21086 0
M  V30 27 H -4.88173 -1.8343 -1.48539 0
M  V30 28 H -2.08268 0.955761 1.37849 0
M  V30 29 H -5.13556 1.30882 2.3204 0
M  V30 30 H -4.31297 0.0017106 3.21862 0
M  V30 END ATOM
M  V30 BEGIN BOND
M  V30 1 1 1 2
M  V30 2 2 2 3
M  V30 3 1 3 4
M  V30 4 2 4 5
M  V30 5 1 5 6
M  V30 6 2 6 7
M  V30 7 1 5 8
M  V30 8 1 8 9
M  V30 9 2 9 10
M  V30 10 2 9 11
M  V30 11 1 9 12
M  V30 12 2 12 13
M  V30 13 1 13 14
M  V30 14 2 14 15
M  V30 15 1 15 16
M  V30 16 2 16 17
M  V30 17 1 16 18
M  V30 18 1 15 19
M  V30 19 1 7 2
M  V30 20 1 17 12
M  V30 21 1 1 20
M  V30 22 1 1 21
M  V30 23 1 3 22
M  V30 24 1 4 23
M  V30 25 1 6 24
M  V30 26 1 7 25
M  V30 27 1 13 26
M  V30 28 1 14 27
M  V30 29 1 17 28
M  V30 30 1 18 29
M  V30 31 1 18 30
M  V30 END BOND
M  V30 END CTAB
M  END
