
     RDKit          3D

  0  0  0  0  0  0  0  0  0  0999 V3000
M  V30 BEGIN CTAB
M  V30 COUNTS 26 26 0 0 0
M  V30 BEGIN ATOM
M  V30 1 N -3.82694 -1.30553 0.672146 0
M  V30 2 C -3.55138 0.0092205 0.0901331 0
M  V30 3 C -2.09695 0.0818926 -0.397094 0
M  V30 4 S -1.07061 -0.200182 1.04468 0
M  V30 5 C 0.676102 -0.187097 0.666163 0
M  V30 6 C 1.13159 0.0051233 -0.615373 0
M  V30 7 C 2.49829 0.0199433 -0.92181 0
M  V30 8 C 3.44331 -0.160526 0.0666519 0
M  V30 9 C 2.98062 -0.353931 1.35609 0
M  V30 10 C 1.62999 -0.367411 1.65168 0
M  V30 11 Br 1.05816 -0.640445 3.45924 0
M  V30 12 N 4.82172 -0.140888 -0.272633 0
M  V30 13 C -1.89925 1.43744 -1.00645 0
M  V30 14 H -3.33222 -2.03184 0.089809 0
M  V30 15 H -4.8508 -1.43161 0.636499 0
M  V30 16 H -3.66358 0.824397 0.825652 0
M  V30 17 H -4.19878 0.184693 -0.78202 0
M  V30 18 H -1.89179 -0.719954 -1.144 0
M  V30 19 H 0.390173 0.146427 -1.40209 0
M  V30 20 H 2.79 0.175019 -1.9405 0
M  V30 21 H 3.72967 -0.49498 2.12605 0
M  V30 22 H 5.21767 -0.57227 -1.13187 0
M  V30 23 H 5.48449 0.332945 0.373743 0
M  V30 24 H -2.81864 2.02074 -0.963579 0
M  V30 25 H -1.09693 1.97463 -0.421909 0
M  V30 26 H -1.55392 1.39419 -2.05923 0
M  V30 END ATOM
M  V30 BEGIN BOND
M  V30 1 1 1 2
M  V30 2 1 2 3
M  V30 3 1 3 4
M  V30 4 1 4 5
M  V30 5 2 5 6
M  V30 6 1 6 7
M  V30 7 2 7 8
M  V30 8 1 8 9
M  V30 9 2 9 10
M  V30 10 1 10 11
M  V30 11 1 8 12
M  V30 12 1 3 13
M  V30 13 1 10 5
M  V30 14 1 1 14
M  V30 15 1 1 15
M  V30 16 1 2 16
M  V30 17 1 2 17
M  V30 18 1 3 18
M  V30 19 1 6 19
M  V30 20 1 7 20
M  V30 21 1 9 21
M  V30 22 1 12 22
M  V30 23 1 12 23
M  V30 24 1 13 24
M  V30 25 1 13 25
M  V30 26 1 13 26
M  V30 END BOND
M  V30 END CTAB
M  END
