
     RDKit          3D

  0  0  0  0  0  0  0  0  0  0999 V3000
M  V30 BEGIN CTAB
M  V30 COUNTS 19 18 0 0 0
M  V30 BEGIN ATOM
M  V30 1 N 3.67087 -0.0542584 0.0259691 0
M  V30 2 N 2.47347 0.619636 -0.0757418 0
M  V30 3 C 1.26181 -0.115039 -0.111401 0
M  V30 4 O 1.27504 -1.36327 -0.0513513 0
M  V30 5 C -0.0389621 0.587079 -0.220477 0
M  V30 6 C -1.17696 -0.408834 -0.239444 0
M  V30 7 N -1.19005 -1.18862 0.95204 0
M  V30 8 C -2.43975 0.326244 -0.48076 0
M  V30 9 O -3.49013 0.218831 0.409043 0
M  V30 10 O -2.56632 1.05135 -1.49318 0
M  V30 11 H 4.14057 0.09114 0.927105 0
M  V30 12 H 4.27913 0.0415519 -0.794269 0
M  V30 13 H 2.49126 1.66505 -0.124362 0
M  V30 14 H -0.174159 1.34986 0.576526 0
M  V30 15 H -0.0998706 1.13551 -1.20283 0
M  V30 16 H -0.981759 -1.09743 -1.09766 0
M  V30 17 H -1.51518 -2.15914 0.851599 0
M  V30 18 H -1.48557 -0.702592 1.80118 0
M  V30 19 H -4.43344 0.00294494 0.170658 0
M  V30 END ATOM
M  V30 BEGIN BOND
M  V30 1 1 1 2
M  V30 2 1 2 3
M  V30 3 2 3 4
M  V30 4 1 3 5
M  V30 5 1 5 6
M  V30 6 1 6 7
M  V30 7 1 6 8
M  V30 8 1 8 9
M  V30 9 2 8 10
M  V30 10 1 1 11
M  V30 11 1 1 12
M  V30 12 1 2 13
M  V30 13 1 5 14
M  V30 14 1 5 15
M  V30 15 1 6 16
M  V30 16 1 7 17
M  V30 17 1 7 18
M  V30 18 1 9 19
M  V30 END BOND
M  V30 END CTAB
M  END
