
     RDKit          3D

  0  0  0  0  0  0  0  0  0  0999 V3000
M  V30 BEGIN CTAB
M  V30 COUNTS 29 29 0 0 0
M  V30 BEGIN ATOM
M  V30 1 O -2.07157 2.80304 0.113989 0
M  V30 2 C -0.853978 2.13486 0.38291 0
M  V30 3 C -0.96435 0.787195 -0.290104 0
M  V30 4 C -2.16768 0.0719377 0.329217 0
M  V30 5 C -2.33124 -1.20677 -0.454277 0
M  V30 6 C -1.14959 -2.10338 -0.409825 0
M  V30 7 C 0.174908 -1.43942 -0.458195 0
M  V30 8 C 0.235824 -0.0412763 0.0191135 0
M  V30 9 N 1.39777 0.613676 -0.53159 0
M  V30 10 C 2.60504 0.337706 -0.254204 0
M  V30 11 N 3.62834 1.08936 -0.894485 0
M  V30 12 N 3.02285 -0.670564 0.652497 0
M  V30 13 H -2.35913 2.53431 -0.809101 0
M  V30 14 H 0.0102095 2.71245 0.0639063 0
M  V30 15 H -0.829608 2.02136 1.4867 0
M  V30 16 H -1.1501 0.861055 -1.36162 0
M  V30 17 H -3.07358 0.687397 0.127811 0
M  V30 18 H -2.0337 -0.114034 1.39598 0
M  V30 19 H -2.58479 -0.946485 -1.50693 0
M  V30 20 H -3.22768 -1.719 -0.0470968 0
M  V30 21 H -1.25155 -2.77161 0.493089 0
M  V30 22 H -1.22496 -2.80253 -1.28491 0
M  V30 23 H 0.881812 -2.05072 0.170364 0
M  V30 24 H 0.622653 -1.48365 -1.49147 0
M  V30 25 H 0.332315 -0.0688967 1.1442 0
M  V30 26 H 4.23652 0.739989 -1.6643 0
M  V30 27 H 3.7743 2.06046 -0.563383 0
M  V30 28 H 3.23823 -1.64424 0.378062 0
M  V30 29 H 3.11273 -0.392227 1.65658 0
M  V30 END ATOM
M  V30 BEGIN BOND
M  V30 1 1 1 2
M  V30 2 1 2 3
M  V30 3 1 3 4
M  V30 4 1 4 5
M  V30 5 1 5 6
M  V30 6 1 6 7
M  V30 7 1 7 8
M  V30 8 1 8 9
M  V30 9 2 9 10 CFG=2
M  V30 10 1 10 11
M  V30 11 1 10 12
M  V30 12 1 8 3
M  V30 13 1 1 13
M  V30 14 1 2 14
M  V30 15 1 2 15
M  V30 16 1 3 16
M  V30 17 1 4 17
M  V30 18 1 4 18
M  V30 19 1 5 19
M  V30 20 1 5 20
M  V30 21 1 6 21
M  V30 22 1 6 22
M  V30 23 1 7 23
M  V30 24 1 7 24
M  V30 25 1 8 25
M  V30 26 1 11 26
M  V30 27 1 11 27
M  V30 28 1 12 28
M  V30 29 1 12 29
M  V30 END BOND
M  V30 END CTAB
M  END
