
     RDKit          3D

  0  0  0  0  0  0  0  0  0  0999 V3000
M  V30 BEGIN CTAB
M  V30 COUNTS 26 27 0 0 0
M  V30 BEGIN ATOM
M  V30 1 N -4.38259 0.460234 -0.828144 0
M  V30 2 C -3.02454 0.134009 -0.668338 0
M  V30 3 N -2.43322 -0.594616 -1.52879 0
M  V30 4 C -2.28378 0.636406 0.49754 0
M  V30 5 N -0.897266 0.184114 0.471357 0
M  V30 6 N 0.0764198 0.862699 -0.111516 0
M  V30 7 C 1.24027 0.211856 0.0201232 0
M  V30 8 C 0.931385 -0.929905 0.729982 0
M  V30 9 C -0.41756 -0.946954 1.01448 0
M  V30 10 N -1.14134 -1.95721 1.73436 0
M  V30 11 C 2.58564 0.629294 -0.490525 0
M  V30 12 C 2.72022 1.81059 -1.18717 0
M  V30 13 S 4.38404 1.8571 -1.55267 0
M  V30 14 C 4.8671 0.394475 -0.82256 0
M  V30 15 C 3.6956 -0.0898956 -0.309365 0
M  V30 16 H -4.6262 1.2697 -1.43025 0
M  V30 17 H -5.16972 -0.0561019 -0.382107 0
M  V30 18 H -1.45799 -0.900666 -1.52784 0
M  V30 19 H -2.29189 1.74445 0.494276 0
M  V30 20 H -2.7216 0.216547 1.42583 0
M  V30 21 H 1.65249 -1.68391 1.01029 0
M  V30 22 H -1.84597 -2.54257 1.27929 0
M  V30 23 H -0.952916 -2.10806 2.74843 0
M  V30 24 H 1.919 2.53428 -1.43379 0
M  V30 25 H 5.8681 -0.0767449 -0.759664 0
M  V30 26 H 3.70632 -1.05913 0.237518 0
M  V30 END ATOM
M  V30 BEGIN BOND
M  V30 1 1 1 2
M  V30 2 2 2 3 CFG=2
M  V30 3 1 2 4
M  V30 4 1 4 5
M  V30 5 1 5 6
M  V30 6 2 6 7
M  V30 7 1 7 8
M  V30 8 2 8 9
M  V30 9 1 9 10
M  V30 10 1 7 11
M  V30 11 2 11 12
M  V30 12 1 12 13
M  V30 13 1 13 14
M  V30 14 2 14 15
M  V30 15 1 9 5
M  V30 16 1 15 11
M  V30 17 1 1 16
M  V30 18 1 1 17
M  V30 19 1 3 18
M  V30 20 1 4 19
M  V30 21 1 4 20
M  V30 22 1 8 21
M  V30 23 1 10 22
M  V30 24 1 10 23
M  V30 25 1 12 24
M  V30 26 1 14 25
M  V30 27 1 15 26
M  V30 END BOND
M  V30 END CTAB
M  END
