
     RDKit          3D

  0  0  0  0  0  0  0  0  0  0999 V3000
M  V30 BEGIN CTAB
M  V30 COUNTS 41 42 0 0 0
M  V30 BEGIN ATOM
M  V30 1 C 6.62532 -1.08634 0.275464 0
M  V30 2 C 5.73403 0.0447685 -0.0630626 0
M  V30 3 O 6.23518 1.14142 -0.405323 0
M  V30 4 N 4.32723 -0.0822763 -0.00954738 0
M  V30 5 C 3.50031 1.04925 -0.348872 0
M  V30 6 C 2.06602 0.716958 -0.231901 0
M  V30 7 C 1.37207 0.904322 0.966905 0
M  V30 8 C 0.0372348 0.582451 1.03424 0
M  V30 9 C -0.636016 0.0732023 -0.0700329 0
M  V30 10 C 0.0857119 -0.0951281 -1.22977 0
M  V30 11 C 1.42232 0.213763 -1.34118 0
M  V30 12 N -2.01573 -0.259471 -0.000373664 0
M  V30 13 C -2.39444 -1.57741 0.385847 0
M  V30 14 N -1.40746 -2.55362 0.699299 0
M  V30 15 N -3.62737 -1.94356 0.468778 0
M  V30 16 C -4.66408 -1.03343 0.174005 0
M  V30 17 N -6.02752 -1.49055 0.281407 0
M  V30 18 N -4.37404 0.15806 -0.176307 0
M  V30 19 C -3.04441 0.705388 -0.311384 0
M  V30 20 C -2.8321 1.28617 -1.70646 0
M  V30 21 C -2.93549 1.86271 0.680134 0
M  V30 22 H 6.05893 -1.95553 0.650167 0
M  V30 23 H 7.24594 -1.32329 -0.598924 0
M  V30 24 H 7.31731 -0.724073 1.06816 0
M  V30 25 H 3.88264 -0.96333 0.265862 0
M  V30 26 H 3.7658 1.89921 0.320305 0
M  V30 27 H 3.74421 1.31202 -1.40951 0
M  V30 28 H 1.91054 1.29824 1.80621 0
M  V30 29 H -0.466145 0.741271 1.97898 0
M  V30 30 H -0.448593 -0.491676 -2.08121 0
M  V30 31 H 1.96005 0.0686735 -2.2698 0
M  V30 32 H -1.0572 -2.66715 1.67076 0
M  V30 33 H -1.0215 -3.17108 -0.0486543 0
M  V30 34 H -6.53715 -1.98893 -0.452849 0
M  V30 35 H -6.50642 -1.28569 1.18317 0
M  V30 36 H -1.98591 1.98042 -1.64314 0
M  V30 37 H -2.68527 0.466957 -2.42899 0
M  V30 38 H -3.7583 1.86751 -1.94027 0
M  V30 39 H -1.98645 2.40941 0.557849 0
M  V30 40 H -3.83214 2.49453 0.518123 0
M  V30 41 H -3.04711 1.41586 1.68805 0
M  V30 END ATOM
M  V30 BEGIN BOND
M  V30 1 1 1 2
M  V30 2 2 2 3
M  V30 3 1 2 4
M  V30 4 1 4 5
M  V30 5 1 5 6
M  V30 6 2 6 7
M  V30 7 1 7 8
M  V30 8 2 8 9
M  V30 9 1 9 10
M  V30 10 2 10 11
M  V30 11 1 9 12
M  V30 12 1 12 13
M  V30 13 1 13 14
M  V30 14 2 13 15
M  V30 15 1 15 16
M  V30 16 1 16 17
M  V30 17 2 16 18
M  V30 18 1 18 19
M  V30 19 1 19 20
M  V30 20 1 19 21
M  V30 21 1 11 6
M  V30 22 1 19 12
M  V30 23 1 1 22
M  V30 24 1 1 23
M  V30 25 1 1 24
M  V30 26 1 4 25
M  V30 27 1 5 26
M  V30 28 1 5 27
M  V30 29 1 7 28
M  V30 30 1 8 29
M  V30 31 1 10 30
M  V30 32 1 11 31
M  V30 33 1 14 32
M  V30 34 1 14 33
M  V30 35 1 17 34
M  V30 36 1 17 35
M  V30 37 1 20 36
M  V30 38 1 20 37
M  V30 39 1 20 38
M  V30 40 1 21 39
M  V30 41 1 21 40
M  V30 42 1 21 41
M  V30 END BOND
M  V30 END CTAB
M  END
