
     RDKit          3D

  0  0  0  0  0  0  0  0  0  0999 V3000
M  V30 BEGIN CTAB
M  V30 COUNTS 122 125 0 0 0
M  V30 BEGIN ATOM
M  V30 1 C 11.559 -0.627215 -0.0968352 0 CFG=1
M  V30 2 N 11.3214 -0.165016 -1.46257 0
M  V30 3 C 11.5114 0.59328 0.873295 0
M  V30 4 C 12.4526 1.65314 0.507322 0
M  V30 5 C 13.7296 1.69827 0.961079 0
M  V30 6 C 14.5939 2.6983 0.600082 0
M  V30 7 C 14.1718 3.69701 -0.258741 0
M  V30 8 O 15.0514 4.7347 -0.639858 0
M  V30 9 C 12.8975 3.64221 -0.708798 0
M  V30 10 C 12.0076 2.67215 -0.370939 0
M  V30 11 C 10.2579 -1.30665 0.306111 0
M  V30 12 O 10.1753 -1.69346 1.48773 0
M  V30 13 N 9.21569 -1.44841 -0.626374 0
M  V30 14 C 7.93554 -2.00057 -0.0688111 0 CFG=2
M  V30 15 C 7.11569 -2.62632 -1.12312 0
M  V30 16 C 7.31513 -0.738984 0.480313 0
M  V30 17 O 7.36052 0.250202 -0.371614 0
M  V30 18 N 6.73415 -0.502473 1.69357 0
M  V30 19 C 6.18595 0.843524 1.96232 0
M  V30 20 C 5.01329 1.02642 1.06187 0
M  V30 21 O 4.49723 2.15817 1.00739 0
M  V30 22 N 4.49056 -0.0483424 0.320324 0
M  V30 23 C 3.27857 0.0739967 -0.541947 0 CFG=1
M  V30 24 C 3.23133 -0.98125 -1.50817 0
M  V30 25 C 3.09992 -2.3885 -1.16186 0
M  V30 26 C 3.16663 -2.8909 0.0934835 0
M  V30 27 C 3.06524 -4.24537 0.333695 0
M  V30 28 C 2.89371 -5.13106 -0.714518 0
M  V30 29 C 2.82177 -4.64013 -1.99698 0
M  V30 30 C 2.9192 -3.29251 -2.19937 0
M  V30 31 C 2.1835 0.170249 0.483365 0
M  V30 32 O 2.61061 0.360097 1.70306 0
M  V30 33 N 0.853877 0.0810271 0.29694 0
M  V30 34 N -0.440198 -0.00435655 0.127895 0
M  V30 35 C -1.31601 -0.810173 -0.681484 0
M  V30 36 O -0.949478 -1.60497 -1.49624 0
M  V30 37 C -2.78653 -0.522131 -0.327561 0 CFG=2
M  V30 38 C -2.94407 -1.09114 1.03078 0
M  V30 39 C -4.21043 -0.933273 1.68352 0
M  V30 40 C -5.16408 -1.92884 1.89436 0
M  V30 41 C -6.37151 -1.72745 2.55052 0
M  V30 42 C -6.67212 -0.464263 3.01747 0
M  V30 43 C -5.77701 0.544057 2.83125 0
M  V30 44 C -4.58579 0.331481 2.19186 0
M  V30 45 N -3.7487 -0.604158 -1.27655 0
M  V30 46 C -3.98541 -1.21555 -2.50965 0
M  V30 47 O -3.23444 -2.00694 -3.07902 0
M  V30 48 C -5.28168 -0.878536 -3.2604 0
M  V30 49 N -6.02847 0.0938552 -2.55643 0
M  V30 50 C -6.71168 1.01822 -1.8985 0
M  V30 51 O -6.46206 2.1742 -1.53917 0
M  V30 52 C -8.16101 0.634094 -1.42943 0 CFG=1
M  V30 53 C -8.08837 -0.843605 -1.12556 0
M  V30 54 N -8.63021 1.40342 -0.383423 0
M  V30 55 C -9.33578 2.63461 -0.328165 0
M  V30 56 O -9.57973 3.19856 -1.42159 0
M  V30 57 C -9.77626 3.24195 0.940347 0 CFG=1
M  V30 58 N -9.57156 4.73556 0.648297 0
M  V30 59 C -11.31 3.20989 0.96928 0
M  V30 60 C -11.9939 1.9554 0.730609 0
M  V30 61 C -11.825 0.737842 1.29424 0
M  V30 62 C -12.6143 -0.354698 1.01871 0
M  V30 63 C -13.6498 -0.271248 0.120817 0
M  V30 64 O -14.4673 -1.33111 -0.201217 0
M  V30 65 C -13.8798 0.971133 -0.504265 0
M  V30 66 C -13.0635 2.02195 -0.181583 0
M  V30 67 H 12.4331 -1.15217 0.0424913 0
M  V30 68 H 12.1293 0.416979 -1.79385 0
M  V30 69 H 10.4605 0.445843 -1.50886 0
M  V30 70 H 11.6305 0.227346 1.88107 0
M  V30 71 H 10.4984 1.01963 0.751443 0
M  V30 72 H 14.0139 0.864792 1.6422 0
M  V30 73 H 15.5989 2.71603 0.96455 0
M  V30 74 H 15.6025 4.51918 -1.44776 0
M  V30 75 H 12.5753 4.46933 -1.39887 0
M  V30 76 H 10.993 2.62847 -0.725958 0
M  V30 77 H 9.30191 -1.20719 -1.59744 0
M  V30 78 H 8.19551 -2.65553 0.753228 0
M  V30 79 H 6.27567 -3.2167 -0.722041 0
M  V30 80 H 7.74085 -3.35847 -1.68438 0
M  V30 81 H 6.66458 -1.88383 -1.84006 0
M  V30 82 H 6.64849 -1.2043 2.45481 0
M  V30 83 H 6.97767 1.55753 1.83654 0
M  V30 84 H 5.86788 0.843055 3.01396 0
M  V30 85 H 4.92515 -0.953567 0.351778 0
M  V30 86 H 3.33222 1.09174 -0.973593 0
M  V30 87 H 2.49935 -0.767194 -2.38344 0
M  V30 88 H 4.2211 -0.962574 -2.15255 0
M  V30 89 H 3.29079 -2.27477 0.999806 0
M  V30 90 H 3.11784 -4.64537 1.33442 0
M  V30 91 H 2.79352 -6.21056 -0.571576 0
M  V30 92 H 2.6706 -5.35667 -2.81867 0
M  V30 93 H 2.86361 -2.90545 -3.24402 0
M  V30 94 H 0.644614 0.0276929 1.65243 0
M  V30 95 H -1.09417 0.731363 0.692548 0
M  V30 96 H -2.6412 0.648535 -0.130235 0
M  V30 97 H -2.69672 -2.22746 0.982843 0
M  V30 98 H -2.12943 -0.655366 1.67368 0
M  V30 99 H -4.95401 -2.91554 1.54934 0
M  V30 100 H -7.07043 -2.52616 2.70593 0
M  V30 101 H -7.56276 -0.209509 3.54578 0
M  V30 102 H -5.99988 1.55403 3.21572 0
M  V30 103 H -3.86838 1.09899 2.04125 0
M  V30 104 H -4.66831 -0.0233986 -0.970767 0
M  V30 105 H -4.99725 -0.548202 -4.25936 0
M  V30 106 H -5.84088 -1.83487 -3.43254 0
M  V30 107 H -4.93502 0.927656 -2.69304 0
M  V30 108 H -8.78984 0.781128 -2.33101 0
M  V30 109 H -7.323 -1.0343 -0.323265 0
M  V30 110 H -7.74516 -1.39349 -2.01835 0
M  V30 111 H -9.03568 -1.26165 -0.762335 0
M  V30 112 H -8.42608 1.00419 0.616811 0
M  V30 113 H -9.28627 3.07409 1.84314 0
M  V30 114 H -10.3775 4.97793 0.00352731 0
M  V30 115 H -8.72145 4.75709 0.0204997 0
M  V30 116 H -11.7562 3.75831 1.83414 0
M  V30 117 H -11.6 3.9128 0.0834809 0
M  V30 118 H -11.0069 0.602324 2.0102 0
M  V30 119 H -12.3852 -1.31157 1.50581 0
M  V30 120 H -14.1925 -1.90049 -1.00604 0
M  V30 121 H -14.6962 1.01204 -1.19155 0
M  V30 122 H -13.2681 2.98889 -0.673085 0
M  V30 END ATOM
M  V30 BEGIN BOND
M  V30 1 1 1 2
M  V30 2 1 1 3
M  V30 3 1 3 4
M  V30 4 2 4 5
M  V30 5 1 5 6
M  V30 6 2 6 7
M  V30 7 1 7 8
M  V30 8 1 7 9
M  V30 9 2 9 10
M  V30 10 1 1 11
M  V30 11 2 11 12
M  V30 12 1 11 13
M  V30 13 1 13 14
M  V30 14 1 14 15
M  V30 15 1 14 16
M  V30 16 2 16 17
M  V30 17 1 16 18
M  V30 18 1 18 19
M  V30 19 1 19 20
M  V30 20 2 20 21
M  V30 21 1 20 22
M  V30 22 1 22 23
M  V30 23 1 23 24
M  V30 24 1 24 25
M  V30 25 2 25 26
M  V30 26 1 26 27
M  V30 27 2 27 28
M  V30 28 1 28 29
M  V30 29 2 29 30
M  V30 30 1 23 31
M  V30 31 2 31 32
M  V30 32 1 31 33
M  V30 33 1 33 34
M  V30 34 1 34 35
M  V30 35 2 35 36
M  V30 36 1 35 37
M  V30 37 1 37 38
M  V30 38 1 38 39
M  V30 39 2 39 40
M  V30 40 1 40 41
M  V30 41 2 41 42
M  V30 42 1 42 43
M  V30 43 2 43 44
M  V30 44 1 37 45
M  V30 45 1 45 46
M  V30 46 2 46 47
M  V30 47 1 46 48
M  V30 48 1 48 49
M  V30 49 1 49 50
M  V30 50 2 50 51
M  V30 51 1 50 52
M  V30 52 1 52 53
M  V30 53 1 52 54
M  V30 54 1 54 55
M  V30 55 2 55 56
M  V30 56 1 55 57
M  V30 57 1 57 58
M  V30 58 1 57 59
M  V30 59 1 59 60
M  V30 60 2 60 61
M  V30 61 1 61 62
M  V30 62 2 62 63
M  V30 63 1 63 64
M  V30 64 1 63 65
M  V30 65 2 65 66
M  V30 66 1 10 4
M  V30 67 1 30 25
M  V30 68 1 44 39
M  V30 69 1 66 60
M  V30 70 1 1 67 CFG=3
M  V30 71 1 2 68
M  V30 72 1 2 69
M  V30 73 1 3 70
M  V30 74 1 3 71
M  V30 75 1 5 72
M  V30 76 1 6 73
M  V30 77 1 8 74
M  V30 78 1 9 75
M  V30 79 1 10 76
M  V30 80 1 13 77
M  V30 81 1 14 78 CFG=1
M  V30 82 1 15 79
M  V30 83 1 15 80
M  V30 84 1 15 81
M  V30 85 1 18 82
M  V30 86 1 19 83
M  V30 87 1 19 84
M  V30 88 1 22 85
M  V30 89 1 23 86 CFG=3
M  V30 90 1 24 87
M  V30 91 1 24 88
M  V30 92 1 26 89
M  V30 93 1 27 90
M  V30 94 1 28 91
M  V30 95 1 29 92
M  V30 96 1 30 93
M  V30 97 1 33 94
M  V30 98 1 34 95
M  V30 99 1 37 96 CFG=1
M  V30 100 1 38 97
M  V30 101 1 38 98
M  V30 102 1 40 99
M  V30 103 1 41 100
M  V30 104 1 42 101
M  V30 105 1 43 102
M  V30 106 1 44 103
M  V30 107 1 45 104
M  V30 108 1 48 105
M  V30 109 1 48 106
M  V30 110 1 49 107
M  V30 111 1 52 108 CFG=3
M  V30 112 1 53 109
M  V30 113 1 53 110
M  V30 114 1 53 111
M  V30 115 1 54 112
M  V30 116 1 57 113 CFG=1
M  V30 117 1 58 114
M  V30 118 1 58 115
M  V30 119 1 59 116
M  V30 120 1 59 117
M  V30 121 1 61 118
M  V30 122 1 62 119
M  V30 123 1 64 120
M  V30 124 1 65 121
M  V30 125 1 66 122
M  V30 END BOND
M  V30 END CTAB
M  END
