
     RDKit          3D

  0  0  0  0  0  0  0  0  0  0999 V3000
M  V30 BEGIN CTAB
M  V30 COUNTS 17 18 0 0 0
M  V30 BEGIN ATOM
M  V30 1 N 2.22783 0.185875 0.232641 0
M  V30 2 C 0.933242 0.0768928 0.286784 0
M  V30 3 C 0.0484209 -0.000626667 1.504 0
M  V30 4 C -0.924055 -0.0813726 0.364008 0
M  V30 5 C -0.10607 1.02287 -0.26683 0
M  V30 6 C 0.0670255 -1.02265 -0.285068 0
M  V30 7 N -2.22153 -0.192089 0.401538 0
M  V30 8 H 2.78008 -0.677096 0.030566 0
M  V30 9 H 2.61514 0.912184 -0.44012 0
M  V30 10 H -0.0071369 0.89661 2.12733 0
M  V30 11 H 0.121693 -0.917061 2.10385 0
M  V30 12 H -0.1611 1.0953 -1.35742 0
M  V30 13 H -0.157692 1.94422 0.313081 0
M  V30 14 H 0.0246565 -1.08388 -1.37442 0
M  V30 15 H 0.186854 -1.94731 0.284063 0
M  V30 16 H -2.77879 0.688912 0.235633 0
M  V30 17 H -2.64856 -0.900781 -0.268229 0
M  V30 END ATOM
M  V30 BEGIN BOND
M  V30 1 1 1 2
M  V30 2 1 2 3
M  V30 3 1 3 4
M  V30 4 1 4 5
M  V30 5 1 4 6
M  V30 6 1 4 7
M  V30 7 1 5 2
M  V30 8 1 6 2
M  V30 9 1 1 8
M  V30 10 1 1 9
M  V30 11 1 3 10
M  V30 12 1 3 11
M  V30 13 1 5 12
M  V30 14 1 5 13
M  V30 15 1 6 14
M  V30 16 1 6 15
M  V30 17 1 7 16
M  V30 18 1 7 17
M  V30 END BOND
M  V30 END CTAB
M  END
