
     RDKit          3D

  0  0  0  0  0  0  0  0  0  0999 V3000
M  V30 BEGIN CTAB
M  V30 COUNTS 24 25 0 0 0
M  V30 BEGIN ATOM
M  V30 1 N 3.49896 0.757427 -1.93497 0
M  V30 2 C 2.55033 0.237516 -1.00048 0
M  V30 3 N 1.2177 0.347575 -1.13579 0
M  V30 4 N 0.593997 -0.229029 -0.116865 0
M  V30 5 C 1.5786 -0.707487 0.667368 0
M  V30 6 N 2.77755 -0.421918 0.126449 0
M  V30 7 N 1.46514 -1.42323 1.90524 0
M  V30 8 C -0.79682 -0.338671 0.128796 0
M  V30 9 C -1.35494 -1.50547 0.606096 0
M  V30 10 C -2.71189 -1.60653 0.843794 0
M  V30 11 N -3.50961 -0.543803 0.605048 0
M  V30 12 C -3.00379 0.613648 0.138749 0
M  V30 13 C -1.64179 0.734448 -0.106369 0
M  V30 14 C -1.04796 1.98437 -0.617068 0
M  V30 15 H 4.50431 0.807926 -1.68754 0
M  V30 16 H 3.21339 1.08921 -2.86127 0
M  V30 17 H 1.22281 -0.990317 2.80305 0
M  V30 18 H 1.6399 -2.46393 1.90616 0
M  V30 19 H -0.687241 -2.33817 0.786766 0
M  V30 20 H -3.09601 -2.53707 1.21529 0
M  V30 21 H -3.62747 1.4902 -0.0633166 0
M  V30 22 H -1.80322 2.78775 -0.485677 0
M  V30 23 H -0.154323 2.31102 -0.0189637 0
M  V30 24 H -0.827596 1.94453 -1.70449 0
M  V30 END ATOM
M  V30 BEGIN BOND
M  V30 1 1 1 2
M  V30 2 2 2 3
M  V30 3 1 3 4
M  V30 4 1 4 5
M  V30 5 2 5 6
M  V30 6 1 5 7
M  V30 7 1 4 8
M  V30 8 2 8 9
M  V30 9 1 9 10
M  V30 10 2 10 11
M  V30 11 1 11 12
M  V30 12 2 12 13
M  V30 13 1 13 14
M  V30 14 1 6 2
M  V30 15 1 13 8
M  V30 16 1 1 15
M  V30 17 1 1 16
M  V30 18 1 7 17
M  V30 19 1 7 18
M  V30 20 1 9 19
M  V30 21 1 10 20
M  V30 22 1 12 21
M  V30 23 1 14 22
M  V30 24 1 14 23
M  V30 25 1 14 24
M  V30 END BOND
M  V30 END CTAB
M  END
