
     RDKit          3D

  0  0  0  0  0  0  0  0  0  0999 V3000
M  V30 BEGIN CTAB
M  V30 COUNTS 31 33 0 0 0
M  V30 BEGIN ATOM
M  V30 1 N -4.32048 0.68067 0.53282 0
M  V30 2 C -2.91224 0.841139 0.839811 0
M  V30 3 C -2.13404 0.193004 -0.278797 0
M  V30 4 C -2.49703 -1.2535 -0.354023 0
M  V30 5 C -1.68135 -2.05412 -1.30216 0
M  V30 6 N -0.437332 -1.40979 -1.67735 0
M  V30 7 C 0.103674 -0.428946 -0.806555 0
M  V30 8 N -0.692656 0.384946 -0.0947066 0
M  V30 9 N 0.0383125 1.20609 0.636041 0
M  V30 10 C 1.34532 0.97659 0.443977 0
M  V30 11 C 1.40709 -0.0567368 -0.46762 0
M  V30 12 C 2.61605 -0.567273 -0.909741 0
M  V30 13 C 3.76299 -0.0296573 -0.427058 0
M  V30 14 C 3.76643 1.01023 0.490909 0
M  V30 15 C 2.52865 1.49849 0.913101 0
M  V30 16 N 4.97843 1.55559 0.980964 0
M  V30 17 H -4.48943 0.804272 -0.489867 0
M  V30 18 H -4.59883 -0.298394 0.763068 0
M  V30 19 H -2.72001 0.348563 1.82152 0
M  V30 20 H -2.68689 1.9226 0.943528 0
M  V30 21 H -2.44554 0.687661 -1.22231 0
M  V30 22 H -3.56531 -1.3076 -0.677608 0
M  V30 23 H -2.47735 -1.67879 0.670248 0
M  V30 24 H -2.23508 -2.3951 -2.20163 0
M  V30 25 H -1.37648 -3.00667 -0.778486 0
M  V30 26 H 0.0870821 -1.62258 -2.54893 0
M  V30 27 H 2.56818 -1.37953 -1.62709 0
M  V30 28 H 4.7062 -0.425309 -0.769639 0
M  V30 29 H 2.5375 2.30672 1.62659 0
M  V30 30 H 5.60129 2.08192 0.356109 0
M  V30 31 H 5.22284 1.41549 1.97073 0
M  V30 END ATOM
M  V30 BEGIN BOND
M  V30 1 1 1 2
M  V30 2 1 2 3
M  V30 3 1 3 4
M  V30 4 1 4 5
M  V30 5 1 5 6
M  V30 6 1 6 7
M  V30 7 1 7 8
M  V30 8 1 8 9
M  V30 9 2 9 10
M  V30 10 1 10 11
M  V30 11 1 11 12
M  V30 12 2 12 13
M  V30 13 1 13 14
M  V30 14 2 14 15
M  V30 15 1 14 16
M  V30 16 1 8 3
M  V30 17 1 15 10
M  V30 18 2 11 7
M  V30 19 1 1 17
M  V30 20 1 1 18
M  V30 21 1 2 19
M  V30 22 1 2 20
M  V30 23 1 3 21
M  V30 24 1 4 22
M  V30 25 1 4 23
M  V30 26 1 5 24
M  V30 27 1 5 25
M  V30 28 1 6 26
M  V30 29 1 12 27
M  V30 30 1 13 28
M  V30 31 1 15 29
M  V30 32 1 16 30
M  V30 33 1 16 31
M  V30 END BOND
M  V30 END CTAB
M  END
