
     RDKit          3D

  0  0  0  0  0  0  0  0  0  0999 V3000
M  V30 BEGIN CTAB
M  V30 COUNTS 25 25 0 0 0
M  V30 BEGIN ATOM
M  V30 1 Br 4.79414 -0.995301 -0.234088 0
M  V30 2 C 3.08659 -0.157755 0.2246 0
M  V30 3 C 1.98938 -0.874218 -0.42524 0
M  V30 4 O 2.33731 -1.82175 -1.21754 0
M  V30 5 C 0.574727 -0.673422 -0.294578 0
M  V30 6 C -0.325424 -1.60506 -0.859363 0
M  V30 7 C -1.68352 -1.54376 -0.705602 0
M  V30 8 N -2.51451 -2.54017 -1.3049 0
M  V30 9 C -2.21866 -0.514742 0.0420748 0
M  V30 10 C -1.37059 0.410979 0.604695 0
M  V30 11 C 0.0236792 0.341437 0.441944 0
M  V30 12 O 0.720734 1.36057 1.06648 0
M  V30 13 C 0.84272 2.63178 0.384743 0
M  V30 14 N -1.90805 1.47195 1.36259 0
M  V30 15 H 3.01574 -0.230952 1.34925 0
M  V30 16 H 3.19986 0.909048 -0.00970453 0
M  V30 17 H 0.0789057 -2.4259 -1.45592 0
M  V30 18 H -3.40518 -2.31626 -1.77794 0
M  V30 19 H -2.20568 -3.52672 -1.25866 0
M  V30 20 H -3.29881 -0.458756 0.171034 0
M  V30 21 H 1.04821 3.45044 1.07499 0
M  V30 22 H -0.142968 2.83403 -0.113009 0
M  V30 23 H 1.57542 2.55583 -0.429094 0
M  V30 24 H -2.2791 2.35206 0.963972 0
M  V30 25 H -1.93496 1.36665 2.39928 0
M  V30 END ATOM
M  V30 BEGIN BOND
M  V30 1 1 1 2
M  V30 2 1 2 3
M  V30 3 2 3 4
M  V30 4 1 3 5
M  V30 5 2 5 6
M  V30 6 1 6 7
M  V30 7 1 7 8
M  V30 8 2 7 9
M  V30 9 1 9 10
M  V30 10 2 10 11
M  V30 11 1 11 12
M  V30 12 1 12 13
M  V30 13 1 10 14
M  V30 14 1 11 5
M  V30 15 1 2 15
M  V30 16 1 2 16
M  V30 17 1 6 17
M  V30 18 1 8 18
M  V30 19 1 8 19
M  V30 20 1 9 20
M  V30 21 1 13 21
M  V30 22 1 13 22
M  V30 23 1 13 23
M  V30 24 1 14 24
M  V30 25 1 14 25
M  V30 END BOND
M  V30 END CTAB
M  END
