
     RDKit          3D

  0  0  0  0  0  0  0  0  0  0999 V3000
M  V30 BEGIN CTAB
M  V30 COUNTS 25 25 0 0 0
M  V30 BEGIN ATOM
M  V30 1 Cl 4.40313 0.928503 1.07039 0
M  V30 2 C 3.79197 -0.225365 -0.0966942 0
M  V30 3 C 4.60853 -0.666037 -1.03919 0
M  V30 4 C 2.37882 -0.664706 0.0173902 0
M  V30 5 N 1.45769 0.444456 -0.0971184 0
M  V30 6 C 0.0725072 0.185195 -0.00868385 0
M  V30 7 C -0.387234 -1.09585 0.182243 0
M  V30 8 C -1.74885 -1.31527 0.264374 0
M  V30 9 C -2.6298 -0.246963 0.15387 0
M  V30 10 C -2.13625 1.02319 -0.0368856 0
M  V30 11 C -0.787124 1.25266 -0.119897 0
M  V30 12 N -3.0337 2.11538 -0.149979 0
M  V30 13 N -4.0191 -0.527788 0.245386 0
M  V30 14 H 4.22295 -1.38664 -1.76619 0
M  V30 15 H 5.62906 -0.37138 -1.15014 0
M  V30 16 H 2.17733 -1.15878 0.994569 0
M  V30 17 H 2.14557 -1.41578 -0.768518 0
M  V30 18 H 1.85795 1.39198 -0.240674 0
M  V30 19 H 0.288136 -1.95089 0.271829 0
M  V30 20 H -2.10378 -2.32847 0.415048 0
M  V30 21 H -0.421904 2.2516 -0.269035 0
M  V30 22 H -2.74441 2.93725 -0.711153 0
M  V30 23 H -3.95166 2.04149 0.340677 0
M  V30 24 H -4.67443 0.120031 -0.247459 0
M  V30 25 H -4.3954 -1.33782 0.774365 0
M  V30 END ATOM
M  V30 BEGIN BOND
M  V30 1 1 1 2
M  V30 2 2 2 3 CFG=2
M  V30 3 1 2 4
M  V30 4 1 4 5
M  V30 5 1 5 6
M  V30 6 2 6 7
M  V30 7 1 7 8
M  V30 8 2 8 9
M  V30 9 1 9 10
M  V30 10 2 10 11
M  V30 11 1 10 12
M  V30 12 1 9 13
M  V30 13 1 11 6
M  V30 14 1 3 14
M  V30 15 1 3 15
M  V30 16 1 4 16
M  V30 17 1 4 17
M  V30 18 1 5 18
M  V30 19 1 7 19
M  V30 20 1 8 20
M  V30 21 1 11 21
M  V30 22 1 12 22
M  V30 23 1 12 23
M  V30 24 1 13 24
M  V30 25 1 13 25
M  V30 END BOND
M  V30 END CTAB
M  END
