
     RDKit          3D

  0  0  0  0  0  0  0  0  0  0999 V3000
M  V30 BEGIN CTAB
M  V30 COUNTS 26 25 0 0 0
M  V30 BEGIN ATOM
M  V30 1 C 3.5185 0.954972 -0.0496418 0
M  V30 2 O 2.28058 1.31825 0.45582 0
M  V30 3 Si 1.06195 0.167012 -0.020689 0 VAL=4
M  V30 4 N 1.45202 -0.234104 -1.71747 0
M  V30 5 N 1.39018 -1.29471 0.947703 0
M  V30 6 O -0.405525 0.878423 0.223947 0
M  V30 7 C -1.54893 0.193854 0.0963044 0
M  V30 8 C -1.7352 -0.988518 0.993811 0
M  V30 9 C -1.90836 -0.224997 -1.31098 0
M  V30 10 C -2.675 1.16822 0.506644 0
M  V30 11 H 3.8277 1.5733 -0.922209 0
M  V30 12 H 4.28243 1.15565 0.738774 0
M  V30 13 H 3.58921 -0.125164 -0.277618 0
M  V30 14 H 2.29165 -0.859486 -1.70267 0
M  V30 15 H 1.58518 0.608209 -2.31376 0
M  V30 16 H 2.42833 -1.3997 1.03555 0
M  V30 17 H 1.09314 -2.12646 0.354356 0
M  V30 18 H -1.46742 -0.733983 2.04864 0
M  V30 19 H -1.28102 -1.91713 0.636204 0
M  V30 20 H -2.84732 -1.19141 1.02965 0
M  V30 21 H -2.79861 -0.913211 -1.21311 0
M  V30 22 H -2.26809 0.647453 -1.8763 0
M  V30 23 H -1.13517 -0.814105 -1.80871 0
M  V30 24 H -2.3276 1.74721 1.38321 0
M  V30 25 H -3.5791 0.557001 0.734244 0
M  V30 26 H -2.82351 1.85342 -0.339143 0
M  V30 END ATOM
M  V30 BEGIN BOND
M  V30 1 1 1 2
M  V30 2 1 2 3
M  V30 3 1 3 4
M  V30 4 1 3 5
M  V30 5 1 3 6
M  V30 6 1 6 7
M  V30 7 1 7 8
M  V30 8 1 7 9
M  V30 9 1 7 10
M  V30 10 1 1 11
M  V30 11 1 1 12
M  V30 12 1 1 13
M  V30 13 1 4 14
M  V30 14 1 4 15
M  V30 15 1 5 16
M  V30 16 1 5 17
M  V30 17 1 8 18
M  V30 18 1 8 19
M  V30 19 1 8 20
M  V30 20 1 9 21
M  V30 21 1 9 22
M  V30 22 1 9 23
M  V30 23 1 10 24
M  V30 24 1 10 25
M  V30 25 1 10 26
M  V30 END BOND
M  V30 END CTAB
M  END
