
     RDKit          3D

  0  0  0  0  0  0  0  0  0  0999 V3000
M  V30 BEGIN CTAB
M  V30 COUNTS 58 61 0 0 0
M  V30 BEGIN ATOM
M  V30 1 N -5.20008 -3.0853 1.76789 0
M  V30 2 C -4.05407 -2.91651 1.77739 0
M  V30 3 C -2.60457 -2.72641 1.80542 0
M  V30 4 C -1.80836 -3.56505 2.53145 0
M  V30 5 N -2.40307 -4.6134 3.25178 0
M  V30 6 N -0.485321 -3.33761 2.5159 0
M  V30 7 C 0.0314233 -2.29591 1.7914 0
M  V30 8 C -0.700807 -1.41623 1.04193 0
M  V30 9 C -2.08949 -1.67739 1.07543 0
M  V30 10 C -3.01461 -0.846322 0.338004 0
M  V30 11 C -3.39367 -1.21821 -0.927854 0
M  V30 12 C -4.29771 -0.496527 -1.67488 0
M  V30 13 C -4.84604 0.640686 -1.14002 0
M  V30 14 C -4.46596 1.02974 0.152235 0
M  V30 15 C -3.55969 0.28581 0.872044 0
M  V30 16 C -5.82641 1.48 -1.87606 0
M  V30 17 C -7.01206 0.617163 -2.24415 0
M  V30 18 C -5.20779 2.06257 -3.12679 0
M  V30 19 C -0.00155318 -0.441876 0.386762 0
M  V30 20 N -0.653807 0.569004 -0.456991 0
M  V30 21 C 1.3344 -0.446774 0.545479 0
M  V30 22 S 1.64308 -1.7567 1.57117 0
M  V30 23 C 2.31347 0.476288 -0.0391167 0
M  V30 24 O 1.88987 1.3824 -0.771202 0
M  V30 25 N 3.68342 0.321553 0.233679 0
M  V30 26 C 4.76427 1.05474 -0.196953 0
M  V30 27 C 4.68406 2.14893 -1.02526 0
M  V30 28 C 5.81119 2.87094 -1.44239 0
M  V30 29 C 7.03948 2.49144 -1.02344 0
M  V30 30 C 7.16962 1.40113 -0.192476 0
M  V30 31 C 6.05849 0.704656 0.20729 0
M  V30 32 C 6.21045 -0.458895 1.09539 0
M  V30 33 C 8.52667 0.995506 0.259151 0
M  V30 34 H -2.27636 -4.64592 4.28455 0
M  V30 35 H -2.95798 -5.3381 2.75059 0
M  V30 36 H -2.9918 -2.1253 -1.42314 0
M  V30 37 H -4.57277 -0.81334 -2.66039 0
M  V30 38 H -4.89191 1.93039 0.591991 0
M  V30 39 H -3.31596 0.663873 1.88266 0
M  V30 40 H -6.19313 2.3227 -1.26482 0
M  V30 41 H -7.89869 1.26858 -2.38696 0
M  V30 42 H -7.23852 -0.118101 -1.45064 0
M  V30 43 H -6.82379 0.0479542 -3.18417 0
M  V30 44 H -5.92505 2.82865 -3.50331 0
M  V30 45 H -4.27327 2.57669 -2.82212 0
M  V30 46 H -5.07427 1.32346 -3.92746 0
M  V30 47 H -0.93288 1.48526 -0.104711 0
M  V30 48 H -0.812562 0.330816 -1.44676 0
M  V30 49 H 3.90125 -0.507599 0.884842 0
M  V30 50 H 3.76104 2.52895 -1.41085 0
M  V30 51 H 5.72078 3.7345 -2.09954 0
M  V30 52 H 7.90794 3.04721 -1.34454 0
M  V30 53 H 7.26394 -0.658376 1.36916 0
M  V30 54 H 5.82561 -1.40837 0.637201 0
M  V30 55 H 5.61065 -0.251018 2.01031 0
M  V30 56 H 9.3113 1.60685 -0.181242 0
M  V30 57 H 8.70354 -0.0696461 -0.0545295 0
M  V30 58 H 8.63806 1.00648 1.35561 0
M  V30 END ATOM
M  V30 BEGIN BOND
M  V30 1 3 1 2
M  V30 2 1 2 3
M  V30 3 2 3 4
M  V30 4 1 4 5
M  V30 5 1 4 6
M  V30 6 2 6 7
M  V30 7 1 7 8
M  V30 8 2 8 9
M  V30 9 1 9 10
M  V30 10 2 10 11
M  V30 11 1 11 12
M  V30 12 2 12 13
M  V30 13 1 13 14
M  V30 14 2 14 15
M  V30 15 1 13 16
M  V30 16 1 16 17
M  V30 17 1 16 18
M  V30 18 1 8 19
M  V30 19 1 19 20
M  V30 20 2 19 21
M  V30 21 1 21 22
M  V30 22 1 21 23
M  V30 23 2 23 24
M  V30 24 1 23 25
M  V30 25 1 25 26
M  V30 26 2 26 27
M  V30 27 1 27 28
M  V30 28 2 28 29
M  V30 29 1 29 30
M  V30 30 2 30 31
M  V30 31 1 31 32
M  V30 32 1 30 33
M  V30 33 1 9 3
M  V30 34 1 15 10
M  V30 35 1 31 26
M  V30 36 1 22 7
M  V30 37 1 5 34
M  V30 38 1 5 35
M  V30 39 1 11 36
M  V30 40 1 12 37
M  V30 41 1 14 38
M  V30 42 1 15 39
M  V30 43 1 16 40
M  V30 44 1 17 41
M  V30 45 1 17 42
M  V30 46 1 17 43
M  V30 47 1 18 44
M  V30 48 1 18 45
M  V30 49 1 18 46
M  V30 50 1 20 47
M  V30 51 1 20 48
M  V30 52 1 25 49
M  V30 53 1 27 50
M  V30 54 1 28 51
M  V30 55 1 29 52
M  V30 56 1 32 53
M  V30 57 1 32 54
M  V30 58 1 32 55
M  V30 59 1 33 56
M  V30 60 1 33 57
M  V30 61 1 33 58
M  V30 END BOND
M  V30 END CTAB
M  END
