
     RDKit          3D

  0  0  0  0  0  0  0  0  0  0999 V3000
M  V30 BEGIN CTAB
M  V30 COUNTS 43 45 0 0 0
M  V30 BEGIN ATOM
M  V30 1 O -0.726639 -0.16104 0.045813 0
M  V30 2 C -1.10116 -1.14969 0.69258 0
M  V30 3 N -2.44659 -1.37593 1.05338 0
M  V30 4 C -3.56262 -0.578961 0.739022 0
M  V30 5 C -3.61277 0.355025 -0.270372 0
M  V30 6 C -4.75068 1.12312 -0.547992 0
M  V30 7 C -5.8776 0.950079 0.212011 0
M  V30 8 C -5.8357 0.00663299 1.23632 0
M  V30 9 C -4.72908 -0.735305 1.50015 0
M  V30 10 S -7.35097 1.83166 -0.107575 0
M  V30 11 O -7.87954 2.54528 1.0734 0
M  V30 12 O -7.1115 2.78902 -1.27959 0
M  V30 13 N -8.48315 0.655095 -0.752246 0
M  V30 14 C -0.0848495 -2.15933 1.11028 0
M  V30 15 S 0.924318 -2.59554 -0.357913 0
M  V30 16 C 1.95681 -1.22304 -0.843876 0
M  V30 17 N 1.63536 -0.230809 -1.67742 0
M  V30 18 N 2.69769 0.579629 -1.75952 0
M  V30 19 C 3.7022 0.118732 -0.985277 0
M  V30 20 N 3.22706 -0.986206 -0.432557 0
M  V30 21 N 3.87583 -1.86146 0.466015 0
M  V30 22 C 4.99741 0.748836 -0.825911 0
M  V30 23 N 5.44863 1.87693 -1.38748 0
M  V30 24 N 6.71829 2.12941 -1.01877 0
M  V30 25 C 7.1286 1.15858 -0.198123 0
M  V30 26 C 6.05848 0.286696 -0.067296 0
M  V30 27 C 8.45131 0.963607 0.490066 0
M  V30 28 H -2.64927 -2.25249 1.62824 0
M  V30 29 H -2.7553 0.516055 -0.897084 0
M  V30 30 H -4.75779 1.85997 -1.35848 0
M  V30 31 H -6.77082 -0.100121 1.81741 0
M  V30 32 H -4.75282 -1.46247 2.3071 0
M  V30 33 H -9.19543 1.08687 -1.34758 0
M  V30 34 H -7.92278 0.0183955 -1.36457 0
M  V30 35 H 0.633153 -1.76699 1.85133 0
M  V30 36 H -0.556894 -3.0455 1.53444 0
M  V30 37 H 4.36959 -2.72073 0.164458 0
M  V30 38 H 3.84768 -1.62506 1.49001 0
M  V30 39 H 4.85552 2.45121 -2.01979 0
M  V30 40 H 6.06068 -0.615261 0.539358 0
M  V30 41 H 9.30949 1.13947 -0.179453 0
M  V30 42 H 8.52873 -0.103083 0.825346 0
M  V30 43 H 8.48712 1.5587 1.43715 0
M  V30 END ATOM
M  V30 BEGIN BOND
M  V30 1 2 1 2
M  V30 2 1 2 3
M  V30 3 1 3 4
M  V30 4 2 4 5
M  V30 5 1 5 6
M  V30 6 2 6 7
M  V30 7 1 7 8
M  V30 8 2 8 9
M  V30 9 1 7 10
M  V30 10 2 10 11
M  V30 11 2 10 12
M  V30 12 1 10 13
M  V30 13 1 2 14
M  V30 14 1 14 15
M  V30 15 1 15 16
M  V30 16 2 16 17
M  V30 17 1 17 18
M  V30 18 2 18 19
M  V30 19 1 19 20
M  V30 20 1 20 21
M  V30 21 1 19 22
M  V30 22 1 22 23
M  V30 23 1 23 24
M  V30 24 2 24 25
M  V30 25 1 25 26
M  V30 26 1 25 27
M  V30 27 1 9 4
M  V30 28 1 20 16
M  V30 29 2 26 22
M  V30 30 1 3 28
M  V30 31 1 5 29
M  V30 32 1 6 30
M  V30 33 1 8 31
M  V30 34 1 9 32
M  V30 35 1 13 33
M  V30 36 1 13 34
M  V30 37 1 14 35
M  V30 38 1 14 36
M  V30 39 1 21 37
M  V30 40 1 21 38
M  V30 41 1 23 39
M  V30 42 1 26 40
M  V30 43 1 27 41
M  V30 44 1 27 42
M  V30 45 1 27 43
M  V30 END BOND
M  V30 END CTAB
M  END
