
     RDKit          3D

  0  0  0  0  0  0  0  0  0  0999 V3000
M  V30 BEGIN CTAB
M  V30 COUNTS 38 38 0 0 0
M  V30 BEGIN ATOM
M  V30 1 C 4.85701 0.791404 -1.60515 0
M  V30 2 C 4.37924 -0.464038 -0.963896 0
M  V30 3 C 3.85192 -0.286713 0.421183 0
M  V30 4 C 2.68485 0.636437 0.540676 0
M  V30 5 C 1.51381 0.182418 -0.263076 0
M  V30 6 O 1.01934 0.950914 -1.1216 0
M  V30 7 N 0.985778 -1.10932 -0.0377905 0
M  V30 8 C -0.123948 -1.59791 -0.767539 0
M  V30 9 C -1.45645 -1.09789 -0.336846 0
M  V30 10 C -1.64945 -0.109682 0.580953 0
M  V30 11 C -2.90186 0.3198 0.956994 0
M  V30 12 C -4.0455 -0.228565 0.423734 0
M  V30 13 C -3.85331 -1.22661 -0.502874 0
M  V30 14 C -2.60772 -1.68333 -0.90471 0
M  V30 15 S -5.61069 0.345298 0.929435 0
M  V30 16 O -5.5082 0.904518 2.34219 0
M  V30 17 O -6.59106 -0.777443 0.87987 0
M  V30 18 N -6.20538 1.62527 -0.063942 0
M  V30 19 N 3.07875 1.96846 0.237444 0
M  V30 20 H 5.34643 1.49557 -0.9151 0
M  V30 21 H 4.01065 1.28007 -2.10967 0
M  V30 22 H 5.62638 0.598898 -2.40502 0
M  V30 23 H 3.61255 -0.945339 -1.61636 0
M  V30 24 H 5.23475 -1.18911 -0.896932 0
M  V30 25 H 3.65704 -1.27099 0.90301 0
M  V30 26 H 4.6865 0.188489 1.01749 0
M  V30 27 H 2.33449 0.571235 1.60797 0
M  V30 28 H 1.4445 -1.71601 0.70255 0
M  V30 29 H 0.0120431 -1.32823 -1.85376 0
M  V30 30 H -0.166832 -2.70142 -0.682104 0
M  V30 31 H -0.772885 0.365679 1.04808 0
M  V30 32 H -2.98263 1.1042 1.68715 0
M  V30 33 H -4.75185 -1.66368 -0.927229 0
M  V30 34 H -2.46575 -2.45482 -1.62014 0
M  V30 35 H -5.45816 2.23761 -0.43964 0
M  V30 36 H -6.86548 1.28363 -0.796815 0
M  V30 37 H 2.57193 2.39889 -0.569165 0
M  V30 38 H 3.10918 2.60231 1.06778 0
M  V30 END ATOM
M  V30 BEGIN BOND
M  V30 1 1 1 2
M  V30 2 1 2 3
M  V30 3 1 3 4
M  V30 4 1 4 5
M  V30 5 2 5 6
M  V30 6 1 5 7
M  V30 7 1 7 8
M  V30 8 1 8 9
M  V30 9 2 9 10
M  V30 10 1 10 11
M  V30 11 2 11 12
M  V30 12 1 12 13
M  V30 13 2 13 14
M  V30 14 1 12 15
M  V30 15 2 15 16
M  V30 16 2 15 17
M  V30 17 1 15 18
M  V30 18 1 4 19
M  V30 19 1 14 9
M  V30 20 1 1 20
M  V30 21 1 1 21
M  V30 22 1 1 22
M  V30 23 1 2 23
M  V30 24 1 2 24
M  V30 25 1 3 25
M  V30 26 1 3 26
M  V30 27 1 4 27
M  V30 28 1 7 28
M  V30 29 1 8 29
M  V30 30 1 8 30
M  V30 31 1 10 31
M  V30 32 1 11 32
M  V30 33 1 13 33
M  V30 34 1 14 34
M  V30 35 1 18 35
M  V30 36 1 18 36
M  V30 37 1 19 37
M  V30 38 1 19 38
M  V30 END BOND
M  V30 END CTAB
M  END
