
     RDKit          3D

  0  0  0  0  0  0  0  0  0  0999 V3000
M  V30 BEGIN CTAB
M  V30 COUNTS 45 46 0 0 0
M  V30 BEGIN ATOM
M  V30 1 C -5.25525 0.289318 1.37956 0
M  V30 2 C -4.29889 0.451132 0.18237 0
M  V30 3 C -3.15626 -0.459325 0.454955 0
M  V30 4 N -2.10682 -0.470099 -0.544077 0
M  V30 5 C -1.20351 -1.53106 -0.129627 0
M  V30 6 C -0.108752 -0.98266 0.797995 0
M  V30 7 N 0.741563 -0.222205 -0.0826601 0
M  V30 8 C 0.0434003 0.621493 -1.02337 0
M  V30 9 C -1.42064 0.778722 -0.651245 0
M  V30 10 C 2.15001 -0.246779 -0.0883549 0
M  V30 11 C 2.85216 -0.983363 0.812868 0
M  V30 12 C 4.23426 -1.01993 0.805111 0
M  V30 13 C 4.97752 -0.31819 -0.109281 0
M  V30 14 C 4.28254 0.429178 -1.02443 0
M  V30 15 C 2.90234 0.470161 -1.02247 0
M  V30 16 S 6.71335 -0.412493 -0.0672138 0
M  V30 17 O 7.18275 -1.72638 0.502981 0
M  V30 18 O 7.32702 -0.258115 -1.41533 0
M  V30 19 N 7.38245 0.825886 0.966093 0
M  V30 20 N -4.01111 1.82361 -0.0276973 0
M  V30 21 C -5.12456 -0.0313806 -1.02616 0
M  V30 22 H -4.95688 0.930105 2.21984 0
M  V30 23 H -5.33824 -0.763902 1.63693 0
M  V30 24 H -6.25305 0.623524 1.00434 0
M  V30 25 H -3.55467 -1.49799 0.519315 0
M  V30 26 H -2.68154 -0.273883 1.452 0
M  V30 27 H -0.654866 -1.9689 -1.00704 0
M  V30 28 H -1.69058 -2.35357 0.41288 0
M  V30 29 H 0.382623 -1.8397 1.29702 0
M  V30 30 H -0.507586 -0.336016 1.58339 0
M  V30 31 H 0.0477508 0.207456 -2.07342 0
M  V30 32 H 0.491188 1.64182 -1.08024 0
M  V30 33 H -1.84229 1.42753 -1.47093 0
M  V30 34 H -1.52044 1.41524 0.268527 0
M  V30 35 H 2.35088 -1.56406 1.56486 0
M  V30 36 H 4.76863 -1.62191 1.543 0
M  V30 37 H 4.87143 0.994502 -1.75994 0
M  V30 38 H 2.37531 1.06876 -1.75152 0
M  V30 39 H 7.57865 1.65482 0.380896 0
M  V30 40 H 6.58263 1.06801 1.6229 0
M  V30 41 H -4.13992 2.15729 -1.00995 0
M  V30 42 H -4.45923 2.47688 0.668174 0
M  V30 43 H -5.94769 0.696929 -1.12589 0
M  V30 44 H -5.51003 -1.03625 -0.744308 0
M  V30 45 H -4.49565 -0.13419 -1.92457 0
M  V30 END ATOM
M  V30 BEGIN BOND
M  V30 1 1 1 2
M  V30 2 1 2 3
M  V30 3 1 3 4
M  V30 4 1 4 5
M  V30 5 1 5 6
M  V30 6 1 6 7
M  V30 7 1 7 8
M  V30 8 1 8 9
M  V30 9 1 7 10
M  V30 10 2 10 11
M  V30 11 1 11 12
M  V30 12 2 12 13
M  V30 13 1 13 14
M  V30 14 2 14 15
M  V30 15 1 13 16
M  V30 16 2 16 17
M  V30 17 2 16 18
M  V30 18 1 16 19
M  V30 19 1 2 20
M  V30 20 1 2 21
M  V30 21 1 9 4
M  V30 22 1 15 10
M  V30 23 1 1 22
M  V30 24 1 1 23
M  V30 25 1 1 24
M  V30 26 1 3 25
M  V30 27 1 3 26
M  V30 28 1 5 27
M  V30 29 1 5 28
M  V30 30 1 6 29
M  V30 31 1 6 30
M  V30 32 1 8 31
M  V30 33 1 8 32
M  V30 34 1 9 33
M  V30 35 1 9 34
M  V30 36 1 11 35
M  V30 37 1 12 36
M  V30 38 1 14 37
M  V30 39 1 15 38
M  V30 40 1 19 39
M  V30 41 1 19 40
M  V30 42 1 20 41
M  V30 43 1 20 42
M  V30 44 1 21 43
M  V30 45 1 21 44
M  V30 46 1 21 45
M  V30 END BOND
M  V30 END CTAB
M  END
