
     RDKit          3D

  0  0  0  0  0  0  0  0  0  0999 V3000
M  V30 BEGIN CTAB
M  V30 COUNTS 17 17 0 0 0
M  V30 BEGIN ATOM
M  V30 1 S 3.33814 -1.13726 -0.705949 0
M  V30 2 C 1.72863 -0.413594 -0.411164 0
M  V30 3 C 1.54783 0.958861 -0.409975 0
M  V30 4 C 0.299653 1.50105 -0.18092 0
M  V30 5 C -0.815559 0.723498 0.054936 0
M  V30 6 C -0.633762 -0.644252 0.0534392 0
M  V30 7 C 0.612133 -1.18747 -0.175146 0
M  V30 8 N -1.79218 -1.4582 0.29859 0
M  V30 9 N -2.10049 1.30532 0.290161 0
M  V30 10 H 4.05889 -1.12431 0.525662 0
M  V30 11 H 2.43286 1.57321 -0.597095 0
M  V30 12 H 0.160152 2.57222 -0.180316 0
M  V30 13 H 0.737847 -2.25859 -0.173087 0
M  V30 14 H -2.42799 -1.77883 -0.457987 0
M  V30 15 H -1.95482 -1.70898 1.29753 0
M  V30 16 H -2.21474 2.23594 0.778421 0
M  V30 17 H -2.9766 0.84138 -0.00710495 0
M  V30 END ATOM
M  V30 BEGIN BOND
M  V30 1 1 1 2
M  V30 2 2 2 3
M  V30 3 1 3 4
M  V30 4 2 4 5
M  V30 5 1 5 6
M  V30 6 2 6 7
M  V30 7 1 6 8
M  V30 8 1 5 9
M  V30 9 1 7 2
M  V30 10 1 1 10
M  V30 11 1 3 11
M  V30 12 1 4 12
M  V30 13 1 7 13
M  V30 14 1 8 14
M  V30 15 1 8 15
M  V30 16 1 9 16
M  V30 17 1 9 17
M  V30 END BOND
M  V30 END CTAB
M  END
