
     RDKit          3D

  0  0  0  0  0  0  0  0  0  0999 V3000
M  V30 BEGIN CTAB
M  V30 COUNTS 23 24 0 0 0
M  V30 BEGIN ATOM
M  V30 1 N 4.64398 0.339651 0.410092 0
M  V30 2 C 3.28811 -0.0181533 0.208234 0
M  V30 3 C 2.73967 0.0732211 -1.04936 0
M  V30 4 C 1.40945 -0.277637 -1.24821 0
M  V30 5 C 0.610267 -0.717385 -0.22731 0
M  V30 6 C 1.15751 -0.810046 1.03494 0
M  V30 7 C 2.49059 -0.458452 1.23431 0
M  V30 8 Cl 0.170469 -1.37209 2.39006 0
M  V30 9 S -1.09412 -1.17501 -0.441721 0
M  V30 10 C -2.1765 0.238186 -0.202483 0
M  V30 11 N -1.85859 1.50673 0.0981488 0
M  V30 12 N -2.97681 2.23736 0.184646 0
M  V30 13 C -4.01976 1.43566 -0.0614249 0
M  V30 14 N -3.517 0.211879 -0.297547 0
M  V30 15 N -4.25184 -0.922771 -0.596441 0
M  V30 16 H 4.88571 1.20683 0.971675 0
M  V30 17 H 5.44973 -0.196256 0.04034 0
M  V30 18 H 3.36284 0.41962 -1.86288 0
M  V30 19 H 0.986563 -0.202283 -2.24233 0
M  V30 20 H 2.90397 -0.53648 2.22779 0
M  V30 21 H -5.07524 1.74357 -0.0638821 0
M  V30 22 H -3.88431 -1.74733 -1.12534 0
M  V30 23 H -5.24467 -0.97882 -0.280495 0
M  V30 END ATOM
M  V30 BEGIN BOND
M  V30 1 1 1 2
M  V30 2 2 2 3
M  V30 3 1 3 4
M  V30 4 2 4 5
M  V30 5 1 5 6
M  V30 6 2 6 7
M  V30 7 1 6 8
M  V30 8 1 5 9
M  V30 9 1 9 10
M  V30 10 2 10 11
M  V30 11 1 11 12
M  V30 12 2 12 13
M  V30 13 1 13 14
M  V30 14 1 14 15
M  V30 15 1 7 2
M  V30 16 1 14 10
M  V30 17 1 1 16
M  V30 18 1 1 17
M  V30 19 1 3 18
M  V30 20 1 4 19
M  V30 21 1 7 20
M  V30 22 1 13 21
M  V30 23 1 15 22
M  V30 24 1 15 23
M  V30 END BOND
M  V30 END CTAB
M  END
