
     RDKit          3D

  0  0  0  0  0  0  0  0  0  0999 V3000
M  V30 BEGIN CTAB
M  V30 COUNTS 20 20 0 0 0
M  V30 BEGIN ATOM
M  V30 1 C 1.73509 0.307966 -2.63182 0
M  V30 2 O 1.113 -0.476085 -1.63604 0
M  V30 3 C 0.391094 0.0575489 -0.584659 0
M  V30 4 C 0.225131 1.4318 -0.433105 0
M  V30 5 C -0.502958 1.93634 0.629717 0
M  V30 6 Br -0.755766 3.81618 0.876116 0
M  V30 7 C -1.05411 1.04413 1.52602 0
M  V30 8 C -0.88102 -0.312227 1.36243 0
M  V30 9 N -1.44985 -1.22541 2.28691 0
M  V30 10 C -0.159026 -0.8428 0.310694 0
M  V30 11 N -0.0120494 -2.2498 0.19017 0
M  V30 12 H 1.0182 1.14226 -2.8895 0
M  V30 13 H 1.86373 -0.250016 -3.58208 0
M  V30 14 H 2.68956 0.683789 -2.23471 0
M  V30 15 H 0.659873 2.12572 -1.13933 0
M  V30 16 H -1.64164 1.40032 2.38717 0
M  V30 17 H -1.68283 -0.88419 3.22949 0
M  V30 18 H -1.63486 -2.23491 2.02583 0
M  V30 19 H 0.150939 -2.78329 1.05969 0
M  V30 20 H -0.0725018 -2.6873 -0.75299 0
M  V30 END ATOM
M  V30 BEGIN BOND
M  V30 1 1 1 2
M  V30 2 1 2 3
M  V30 3 2 3 4
M  V30 4 1 4 5
M  V30 5 1 5 6
M  V30 6 2 5 7
M  V30 7 1 7 8
M  V30 8 1 8 9
M  V30 9 2 8 10
M  V30 10 1 10 11
M  V30 11 1 10 3
M  V30 12 1 1 12
M  V30 13 1 1 13
M  V30 14 1 1 14
M  V30 15 1 4 15
M  V30 16 1 7 16
M  V30 17 1 9 17
M  V30 18 1 9 18
M  V30 19 1 11 19
M  V30 20 1 11 20
M  V30 END BOND
M  V30 END CTAB
M  END
