
     RDKit          3D

  0  0  0  0  0  0  0  0  0  0999 V3000
M  V30 BEGIN CTAB
M  V30 COUNTS 44 45 0 0 0
M  V30 BEGIN ATOM
M  V30 1 C 1.1645 -0.927151 1.61025 0
M  V30 2 C 0.790612 -0.580536 0.185439 0
M  V30 3 C -0.667844 -0.556872 -0.0452088 0
M  V30 4 O -1.11778 -1.40403 -0.892147 0
M  V30 5 N -1.57888 0.305997 0.581242 0
M  V30 6 C -3.00282 0.223934 0.262868 0
M  V30 7 C -3.59558 -1.08958 0.767069 0
M  V30 8 C -5.09769 -0.964618 0.680246 0
M  V30 9 C -5.53701 -0.338498 -0.625459 0
M  V30 10 C -4.39016 -0.501312 -1.61267 0
M  V30 11 C -3.3055 0.479488 -1.17568 0
M  V30 12 C -1.12955 1.28693 1.54525 0
M  V30 13 S 1.55081 1.01263 -0.301286 0
M  V30 14 C 3.32077 0.851695 -0.355639 0
M  V30 15 N 3.86905 -0.332688 -0.0600829 0
M  V30 16 C 5.19648 -0.546443 -0.0725691 0
M  V30 17 N 5.69078 -1.83548 0.253508 0
M  V30 18 C 6.04394 0.513115 -0.408444 0
M  V30 19 C 5.4774 1.72985 -0.711932 0
M  V30 20 N 4.12795 1.87006 -0.678295 0
M  V30 21 N 6.35574 2.79589 -1.04966 0
M  V30 22 H 0.271547 -1.35895 2.1015 0
M  V30 23 H 1.57107 -0.0503401 2.15458 0
M  V30 24 H 1.96046 -1.6996 1.64118 0
M  V30 25 H 1.27389 -1.33889 -0.462077 0
M  V30 26 H -3.56374 1.00163 0.863154 0
M  V30 27 H -3.34489 -1.13309 1.85133 0
M  V30 28 H -3.19937 -1.97501 0.281316 0
M  V30 29 H -5.40888 -0.266158 1.48748 0
M  V30 30 H -5.59792 -1.92256 0.870413 0
M  V30 31 H -5.74212 0.748434 -0.521664 0
M  V30 32 H -6.4324 -0.892592 -0.985077 0
M  V30 33 H -4.04966 -1.55466 -1.53239 0
M  V30 34 H -4.69536 -0.339718 -2.65486 0
M  V30 35 H -3.76274 1.49842 -1.34006 0
M  V30 36 H -2.43421 0.444749 -1.84493 0
M  V30 37 H -0.511334 2.08265 1.08668 0
M  V30 38 H -0.668156 0.820774 2.43069 0
M  V30 39 H -2.03706 1.81461 1.92983 0
M  V30 40 H 6.20631 -2.00831 1.13868 0
M  V30 41 H 5.52853 -2.63754 -0.424146 0
M  V30 42 H 7.10041 0.325474 -0.413406 0
M  V30 43 H 6.19632 3.74972 -0.656027 0
M  V30 44 H 7.17406 2.6986 -1.68051 0
M  V30 END ATOM
M  V30 BEGIN BOND
M  V30 1 1 1 2
M  V30 2 1 2 3
M  V30 3 2 3 4
M  V30 4 1 3 5
M  V30 5 1 5 6
M  V30 6 1 6 7
M  V30 7 1 7 8
M  V30 8 1 8 9
M  V30 9 1 9 10
M  V30 10 1 10 11
M  V30 11 1 5 12
M  V30 12 1 2 13
M  V30 13 1 13 14
M  V30 14 2 14 15
M  V30 15 1 15 16
M  V30 16 1 16 17
M  V30 17 2 16 18
M  V30 18 1 18 19
M  V30 19 2 19 20
M  V30 20 1 19 21
M  V30 21 1 11 6
M  V30 22 1 20 14
M  V30 23 1 1 22
M  V30 24 1 1 23
M  V30 25 1 1 24
M  V30 26 1 2 25
M  V30 27 1 6 26
M  V30 28 1 7 27
M  V30 29 1 7 28
M  V30 30 1 8 29
M  V30 31 1 8 30
M  V30 32 1 9 31
M  V30 33 1 9 32
M  V30 34 1 10 33
M  V30 35 1 10 34
M  V30 36 1 11 35
M  V30 37 1 11 36
M  V30 38 1 12 37
M  V30 39 1 12 38
M  V30 40 1 12 39
M  V30 41 1 17 40
M  V30 42 1 17 41
M  V30 43 1 18 42
M  V30 44 1 21 43
M  V30 45 1 21 44
M  V30 END BOND
M  V30 END CTAB
M  END
