
     RDKit          3D

  0  0  0  0  0  0  0  0  0  0999 V3000
M  V30 BEGIN CTAB
M  V30 COUNTS 47 49 0 0 0
M  V30 BEGIN ATOM
M  V30 1 N -6.0542 3.03771 -0.893596 0
M  V30 2 C -5.64517 1.72182 -0.505489 0
M  V30 3 N -6.60088 0.803448 -0.243455 0
M  V30 4 C -6.2305 -0.43213 0.120797 0
M  V30 5 N -7.24603 -1.38518 0.392657 0
M  V30 6 N -4.92468 -0.722895 0.21512 0
M  V30 7 C -3.9314 0.148931 -0.033023 0
M  V30 8 C -4.30242 1.43176 -0.411113 0
M  V30 9 N -2.56096 -0.209865 0.0811331 0
M  V30 10 C -2.21372 -1.56031 0.466969 0
M  V30 11 C -0.86294 -1.83179 -0.209821 0
M  V30 12 N 0.131486 -1.04971 0.501836 0
M  V30 13 C -0.289129 0.298521 0.68421 0
M  V30 14 C -1.47581 0.707905 -0.169186 0
M  V30 15 C 1.38356 -1.23196 -0.164433 0
M  V30 16 C 2.54329 -0.505314 0.430515 0
M  V30 17 C 3.76457 -0.836944 -0.424853 0
M  V30 18 C 4.98333 -0.183506 0.0518659 0
M  V30 19 C 5.36249 1.06315 -0.39242 0
M  V30 20 C 6.5038 1.69388 0.043197 0
M  V30 21 C 7.31053 1.0658 0.960991 0
M  V30 22 C 6.95717 -0.177462 1.42128 0
M  V30 23 C 5.81229 -0.784631 0.969819 0
M  V30 24 H -5.34663 3.7202 -1.23665 0
M  V30 25 H -7.03485 3.32713 -0.841718 0
M  V30 26 H -7.55371 -2.0895 -0.304459 0
M  V30 27 H -7.69183 -1.36702 1.33084 0
M  V30 28 H -3.57368 2.19523 -0.629637 0
M  V30 29 H -2.96107 -2.30455 0.166749 0
M  V30 30 H -2.03016 -1.54175 1.56567 0
M  V30 31 H -0.875549 -1.43541 -1.25993 0
M  V30 32 H -0.629326 -2.89265 -0.243425 0
M  V30 33 H 0.47559 1.06642 0.560524 0
M  V30 34 H -0.656105 0.383355 1.74983 0
M  V30 35 H -1.20652 0.799627 -1.23146 0
M  V30 36 H -1.77055 1.71794 0.188193 0
M  V30 37 H 1.6218 -2.32554 -0.112606 0
M  V30 38 H 1.34784 -0.984639 -1.24537 0
M  V30 39 H 2.44668 0.57777 0.49414 0
M  V30 40 H 2.76617 -0.867594 1.46973 0
M  V30 41 H 3.81485 -1.93388 -0.473514 0
M  V30 42 H 3.56537 -0.485992 -1.46517 0
M  V30 43 H 4.74849 1.57021 -1.1075 0
M  V30 44 H 6.79461 2.6894 -0.319882 0
M  V30 45 H 8.22213 1.56455 1.3118 0
M  V30 46 H 7.58625 -0.663651 2.13487 0
M  V30 47 H 5.52552 -1.78088 1.33618 0
M  V30 END ATOM
M  V30 BEGIN BOND
M  V30 1 1 1 2
M  V30 2 2 2 3
M  V30 3 1 3 4
M  V30 4 1 4 5
M  V30 5 2 4 6
M  V30 6 1 6 7
M  V30 7 2 7 8
M  V30 8 1 7 9
M  V30 9 1 9 10
M  V30 10 1 10 11
M  V30 11 1 11 12
M  V30 12 1 12 13
M  V30 13 1 13 14
M  V30 14 1 12 15
M  V30 15 1 15 16
M  V30 16 1 16 17
M  V30 17 1 17 18
M  V30 18 2 18 19
M  V30 19 1 19 20
M  V30 20 2 20 21
M  V30 21 1 21 22
M  V30 22 2 22 23
M  V30 23 1 8 2
M  V30 24 1 14 9
M  V30 25 1 23 18
M  V30 26 1 1 24
M  V30 27 1 1 25
M  V30 28 1 5 26
M  V30 29 1 5 27
M  V30 30 1 8 28
M  V30 31 1 10 29
M  V30 32 1 10 30
M  V30 33 1 11 31
M  V30 34 1 11 32
M  V30 35 1 13 33
M  V30 36 1 13 34
M  V30 37 1 14 35
M  V30 38 1 14 36
M  V30 39 1 15 37
M  V30 40 1 15 38
M  V30 41 1 16 39
M  V30 42 1 16 40
M  V30 43 1 17 41
M  V30 44 1 17 42
M  V30 45 1 19 43
M  V30 46 1 20 44
M  V30 47 1 21 45
M  V30 48 1 22 46
M  V30 49 1 23 47
M  V30 END BOND
M  V30 END CTAB
M  END
