
     RDKit          3D

  0  0  0  0  0  0  0  0  0  0999 V3000
M  V30 BEGIN CTAB
M  V30 COUNTS 55 57 0 0 0
M  V30 BEGIN ATOM
M  V30 1 C -5.03053 4.23351 0.192141 0
M  V30 2 C -4.14599 4.10364 -0.999752 0
M  V30 3 C -3.38042 2.8267 -1.07301 0
M  V30 4 C -2.46052 2.58879 0.0846338 0
M  V30 5 N -1.80246 1.31251 -0.14938 0
M  V30 6 C -0.639668 1.15887 -0.816257 0
M  V30 7 S 0.310323 2.45518 -1.55101 0
M  V30 8 C 1.4955 3.20692 -0.490166 0
M  V30 9 C 2.67884 2.42679 -0.106375 0
M  V30 10 O 3.44594 2.94577 0.775912 0
M  V30 11 N 3.02595 1.17687 -0.628558 0
M  V30 12 C 4.13451 0.364138 -0.324536 0
M  V30 13 C 5.25941 0.744522 0.33004 0
M  V30 14 C 6.31422 -0.129594 0.611929 0
M  V30 15 C 6.2456 -1.44589 0.222652 0
M  V30 16 C 5.10238 -1.85399 -0.448767 0
M  V30 17 C 4.08612 -0.97977 -0.711546 0
M  V30 18 S 5.06332 -3.54563 -0.924417 0
M  V30 19 O 4.13114 -3.75008 -2.10746 0
M  V30 20 O 6.43335 -4.07696 -1.20558 0
M  V30 21 N 4.39551 -4.41677 0.434447 0
M  V30 22 N -0.38415 -0.146639 -0.811202 0
M  V30 23 C -1.33763 -0.830734 -0.167865 0
M  V30 24 C -2.25481 0.110059 0.260677 0
M  V30 25 C -3.38092 -0.258722 0.967956 0
M  V30 26 C -3.60701 -1.58612 1.25877 0
M  V30 27 C -2.70476 -2.54369 0.841016 0
M  V30 28 C -1.5956 -2.14971 0.140862 0
M  V30 29 S -3.04866 -4.20467 1.24146 0
M  V30 30 O -1.72044 -4.91458 1.42306 0
M  V30 31 O -3.72722 -4.23436 2.5764 0
M  V30 32 N -4.01968 -4.97656 0.0713553 0
M  V30 33 H -5.24782 5.33505 0.318995 0
M  V30 34 H -6.05489 3.78321 0.0361318 0
M  V30 35 H -4.58202 3.91034 1.14617 0
M  V30 36 H -4.80256 4.13958 -1.91338 0
M  V30 37 H -3.4574 4.97495 -1.04507 0
M  V30 38 H -4.03159 1.95566 -1.18094 0
M  V30 39 H -2.72744 2.89432 -1.98775 0
M  V30 40 H -1.7339 3.40458 0.257966 0
M  V30 41 H -3.0845 2.53563 1.0076 0
M  V30 42 H 1.90486 4.1166 -1.03009 0
M  V30 43 H 1.07337 3.64589 0.443964 0
M  V30 44 H 2.34482 0.818686 -1.37738 0
M  V30 45 H 5.40073 1.74346 0.658137 0
M  V30 46 H 7.18749 0.225746 1.13601 0
M  V30 47 H 7.05623 -2.11906 0.438994 0
M  V30 48 H 3.20575 -1.35012 -1.24272 0
M  V30 49 H 5.22976 -4.68482 1.02956 0
M  V30 50 H 3.81014 -3.76842 1.03793 0
M  V30 51 H -4.10306 0.467047 1.3069 0
M  V30 52 H -4.50319 -1.84373 1.8171 0
M  V30 53 H -0.899081 -2.91137 -0.178821 0
M  V30 54 H -3.84625 -6.01001 0.0265219 0
M  V30 55 H -5.02111 -4.87301 0.350992 0
M  V30 END ATOM
M  V30 BEGIN BOND
M  V30 1 1 1 2
M  V30 2 1 2 3
M  V30 3 1 3 4
M  V30 4 1 4 5
M  V30 5 1 5 6
M  V30 6 1 6 7
M  V30 7 1 7 8
M  V30 8 1 8 9
M  V30 9 2 9 10
M  V30 10 1 9 11
M  V30 11 1 11 12
M  V30 12 2 12 13
M  V30 13 1 13 14
M  V30 14 2 14 15
M  V30 15 1 15 16
M  V30 16 2 16 17
M  V30 17 1 16 18
M  V30 18 2 18 19
M  V30 19 2 18 20
M  V30 20 1 18 21
M  V30 21 2 6 22
M  V30 22 1 22 23
M  V30 23 2 23 24
M  V30 24 1 24 25
M  V30 25 2 25 26
M  V30 26 1 26 27
M  V30 27 2 27 28
M  V30 28 1 27 29
M  V30 29 2 29 30
M  V30 30 2 29 31
M  V30 31 1 29 32
M  V30 32 1 24 5
M  V30 33 1 17 12
M  V30 34 1 28 23
M  V30 35 1 1 33
M  V30 36 1 1 34
M  V30 37 1 1 35
M  V30 38 1 2 36
M  V30 39 1 2 37
M  V30 40 1 3 38
M  V30 41 1 3 39
M  V30 42 1 4 40
M  V30 43 1 4 41
M  V30 44 1 8 42
M  V30 45 1 8 43
M  V30 46 1 11 44
M  V30 47 1 13 45
M  V30 48 1 14 46
M  V30 49 1 15 47
M  V30 50 1 17 48
M  V30 51 1 21 49
M  V30 52 1 21 50
M  V30 53 1 25 51
M  V30 54 1 26 52
M  V30 55 1 28 53
M  V30 56 1 32 54
M  V30 57 1 32 55
M  V30 END BOND
M  V30 END CTAB
M  END
