
     RDKit          3D

  0  0  0  0  0  0  0  0  0  0999 V3000
M  V30 BEGIN CTAB
M  V30 COUNTS 32 33 0 0 0
M  V30 BEGIN ATOM
M  V30 1 N -3.8302 -1.65718 0.183819 0
M  V30 2 C -2.78961 -0.725912 -0.207567 0
M  V30 3 C -3.22035 0.648338 0.193196 0
M  V30 4 C -2.27224 1.31509 1.1434 0
M  V30 5 C -0.822832 1.19192 0.704762 0
M  V30 6 N -0.459265 -0.152495 0.391296 0
M  V30 7 C -1.52811 -1.17186 0.497813 0
M  V30 8 C 0.791322 -0.597719 -0.000630765 0
M  V30 9 O 0.818948 -1.89146 -0.217677 0
M  V30 10 C 2.05394 0.0536635 -0.217661 0
M  V30 11 C 2.31221 1.391 -0.0708403 0
M  V30 12 C 3.57503 1.96362 -0.301783 0
M  V30 13 C 4.61237 1.16046 -0.694054 0
M  V30 14 N 4.35435 -0.143864 -0.835722 0
M  V30 15 C 3.16093 -0.718084 -0.622715 0
M  V30 16 N 2.9667 -2.1201 -0.79605 0
M  V30 17 H -3.65943 -2.61068 -0.175501 0
M  V30 18 H -3.90561 -1.71687 1.2253 0
M  V30 19 H -2.70307 -0.790135 -1.30452 0
M  V30 20 H -3.26897 1.27806 -0.718132 0
M  V30 21 H -4.24659 0.611113 0.599031 0
M  V30 22 H -2.48794 2.39196 1.2564 0
M  V30 23 H -2.39837 0.842902 2.13489 0
M  V30 24 H -0.679019 1.85837 -0.168805 0
M  V30 25 H -0.237584 1.61119 1.54711 0
M  V30 26 H -1.17713 -2.07873 -0.00490309 0
M  V30 27 H -1.69004 -1.34601 1.55843 0
M  V30 28 H 1.54441 2.07531 0.232982 0
M  V30 29 H 3.75572 3.0128 -0.180972 0
M  V30 30 H 5.61238 1.57672 -0.882855 0
M  V30 31 H 2.68403 -2.55816 -1.69685 0
M  V30 32 H 3.13401 -2.70324 0.078037 0
M  V30 END ATOM
M  V30 BEGIN BOND
M  V30 1 1 1 2
M  V30 2 1 2 3
M  V30 3 1 3 4
M  V30 4 1 4 5
M  V30 5 1 5 6
M  V30 6 1 6 7
M  V30 7 1 6 8
M  V30 8 2 8 9
M  V30 9 1 8 10
M  V30 10 2 10 11
M  V30 11 1 11 12
M  V30 12 2 12 13
M  V30 13 1 13 14
M  V30 14 2 14 15
M  V30 15 1 15 16
M  V30 16 1 7 2
M  V30 17 1 15 10
M  V30 18 1 1 17
M  V30 19 1 1 18
M  V30 20 1 2 19
M  V30 21 1 3 20
M  V30 22 1 3 21
M  V30 23 1 4 22
M  V30 24 1 4 23
M  V30 25 1 5 24
M  V30 26 1 5 25
M  V30 27 1 7 26
M  V30 28 1 7 27
M  V30 29 1 11 28
M  V30 30 1 12 29
M  V30 31 1 13 30
M  V30 32 1 16 31
M  V30 33 1 16 32
M  V30 END BOND
M  V30 END CTAB
M  END
