
     RDKit          3D

  0  0  0  0  0  0  0  0  0  0999 V3000
M  V30 BEGIN CTAB
M  V30 COUNTS 22 22 0 0 0
M  V30 BEGIN ATOM
M  V30 1 N 0.49455 -2.09367 0.753356 0
M  V30 2 C 0.377272 -0.70104 0.465717 0 CFG=2
M  V30 3 C -0.866158 -0.326454 -0.285644 0 CFG=1
M  V30 4 N -1.98935 -1.15135 -0.0400935 0
M  V30 5 C -1.11462 1.14739 0.0608741 0 CFG=2
M  V30 6 O -2.28425 1.62038 -0.465988 0
M  V30 7 C 0.0974764 1.87021 -0.472008 0
M  V30 8 C 1.2589 1.287 -0.62319 0
M  V30 9 C 1.54355 -0.139334 -0.298692 0 CFG=1
M  V30 10 O 2.73238 -0.277624 0.404153 0
M  V30 11 H 1.4483 -2.27375 1.12038 0
M  V30 12 H -0.159998 -2.30675 1.55321 0
M  V30 13 H 0.366299 -0.162408 1.45872 0
M  V30 14 H -0.643275 -0.32702 -1.3803 0
M  V30 15 H -2.55917 -1.27979 -0.929343 0
M  V30 16 H -1.78001 -2.09782 0.330967 0
M  V30 17 H -1.04252 1.20837 1.16473 0
M  V30 18 H -2.93764 1.70346 0.300702 0
M  V30 19 H -0.0487363 2.9175 -0.72735 0
M  V30 20 H 2.08734 1.87174 -1.01293 0
M  V30 21 H 1.59238 -0.678711 -1.28939 0
M  V30 22 H 3.42728 0.189674 -0.0878852 0
M  V30 END ATOM
M  V30 BEGIN BOND
M  V30 1 1 1 2
M  V30 2 1 2 3
M  V30 3 1 3 4
M  V30 4 1 3 5
M  V30 5 1 5 6
M  V30 6 1 5 7
M  V30 7 2 7 8
M  V30 8 1 8 9
M  V30 9 1 9 10
M  V30 10 1 9 2
M  V30 11 1 1 11
M  V30 12 1 1 12
M  V30 13 1 2 13 CFG=1
M  V30 14 1 3 14 CFG=3
M  V30 15 1 4 15
M  V30 16 1 4 16
M  V30 17 1 5 17 CFG=1
M  V30 18 1 6 18
M  V30 19 1 7 19
M  V30 20 1 8 20
M  V30 21 1 9 21 CFG=3
M  V30 22 1 10 22
M  V30 END BOND
M  V30 END CTAB
M  END
