
     RDKit          3D

  0  0  0  0  0  0  0  0  0  0999 V3000
M  V30 BEGIN CTAB
M  V30 COUNTS 19 19 0 0 0
M  V30 BEGIN ATOM
M  V30 1 N -0.481045 -1.88973 0.89821 0
M  V30 2 C -0.850143 -0.661704 0.291986 0
M  V30 3 C -2.17784 -0.234517 0.28156 0
M  V30 4 C -2.53916 0.957485 -0.306382 0
M  V30 5 C -1.53431 1.70786 -0.882478 0
M  V30 6 C -0.218316 1.29458 -0.877666 0
M  V30 7 C 0.146401 0.0983071 -0.287962 0
M  V30 8 S 1.80629 -0.426751 -0.279781 0
M  V30 9 O 1.85737 -1.93822 -0.346285 0
M  V30 10 O 2.53405 0.062059 -1.52362 0
M  V30 11 N 2.67149 0.115935 1.0914 0
M  V30 12 Br 1.17741 2.32698 -1.67258 0
M  V30 13 H -0.390511 -2.7259 0.287871 0
M  V30 14 H -0.31007 -1.93901 1.91626 0
M  V30 15 H -2.92856 -0.847927 0.740668 0
M  V30 16 H -3.56122 1.32108 -0.33329 0
M  V30 17 H -1.77824 2.66412 -1.36183 0
M  V30 18 H 3.16524 -0.688179 1.54072 0
M  V30 19 H 3.41118 0.80353 0.823205 0
M  V30 END ATOM
M  V30 BEGIN BOND
M  V30 1 1 1 2
M  V30 2 2 2 3
M  V30 3 1 3 4
M  V30 4 2 4 5
M  V30 5 1 5 6
M  V30 6 2 6 7
M  V30 7 1 7 8
M  V30 8 2 8 9
M  V30 9 2 8 10
M  V30 10 1 8 11
M  V30 11 1 6 12
M  V30 12 1 7 2
M  V30 13 1 1 13
M  V30 14 1 1 14
M  V30 15 1 3 15
M  V30 16 1 4 16
M  V30 17 1 5 17
M  V30 18 1 11 18
M  V30 19 1 11 19
M  V30 END BOND
M  V30 END CTAB
M  END
