
     RDKit          3D

  0  0  0  0  0  0  0  0  0  0999 V3000
M  V30 BEGIN CTAB
M  V30 COUNTS 49 51 0 0 0
M  V30 BEGIN ATOM
M  V30 1 C 1.81576 -0.0833716 -1.32848 0
M  V30 2 N 1.09857 0.13701 -0.11562 0
M  V30 3 C -0.313083 -0.0138803 -0.170912 0
M  V30 4 C -0.775093 -1.39857 -0.397771 0
M  V30 5 C 0.104355 -2.46685 -0.442541 0
M  V30 6 C -0.36359 -3.75113 -0.635605 0
M  V30 7 C -1.70144 -4.00131 -0.786173 0
M  V30 8 C -2.56927 -2.94484 -0.740709 0
M  V30 9 C -2.12477 -1.63052 -0.54656 0
M  V30 10 N -3.08525 -0.586498 -0.504309 0
M  V30 11 C -3.4178 0.0292166 0.748065 0
M  V30 12 C -3.47966 1.54031 0.680984 0
M  V30 13 C -4.15822 2.05529 -0.548558 0
M  V30 14 C -3.7231 1.3608 -1.80258 0
M  V30 15 C -3.75735 -0.127901 -1.6995 0
M  V30 16 C 1.5483 1.26603 0.632957 0
M  V30 17 C 2.96001 1.08484 1.05687 0
M  V30 18 N 3.6042 -0.0895564 1.04617 0
M  V30 19 C 4.87408 -0.251244 1.42769 0
M  V30 20 N 5.49051 -1.52327 1.38933 0
M  V30 21 N 5.56627 0.811435 1.8508 0
M  V30 22 C 4.97682 2.01777 1.8852 0
M  V30 23 N 3.69577 2.15063 1.4947 0
M  V30 24 N 5.74727 3.12294 2.34162 0
M  V30 25 H 1.16145 -0.36088 -2.18608 0
M  V30 26 H 2.24301 0.919362 -1.63168 0
M  V30 27 H 2.69146 -0.742907 -1.23829 0
M  V30 28 H -0.824483 0.724336 -0.818622 0
M  V30 29 H -0.673756 0.237827 0.87786 0
M  V30 30 H 1.18573 -2.31537 -0.306969 0
M  V30 31 H 0.35768 -4.57919 -0.667344 0
M  V30 32 H -2.09106 -5.01871 -0.941022 0
M  V30 33 H -3.65598 -3.08217 -0.85486 0
M  V30 34 H -4.48708 -0.327865 0.961285 0
M  V30 35 H -2.81298 -0.268395 1.60772 0
M  V30 36 H -4.12522 1.84213 1.55966 0
M  V30 37 H -2.49869 1.97973 0.887339 0
M  V30 38 H -3.89194 3.13299 -0.663527 0
M  V30 39 H -5.27477 2.05121 -0.417503 0
M  V30 40 H -2.70944 1.75072 -2.07956 0
M  V30 41 H -4.4281 1.65926 -2.62169 0
M  V30 42 H -3.31376 -0.555988 -2.62151 0
M  V30 43 H -4.8241 -0.440862 -1.70451 0
M  V30 44 H 1.52893 2.14719 -0.0754833 0
M  V30 45 H 0.890834 1.53829 1.47351 0
M  V30 46 H 6.31669 -1.73387 2.0189 0
M  V30 47 H 5.18215 -2.29353 0.767475 0
M  V30 48 H 6.23806 3.72047 1.66864 0
M  V30 49 H 5.80206 3.30892 3.34652 0
M  V30 END ATOM
M  V30 BEGIN BOND
M  V30 1 1 1 2
M  V30 2 1 2 3
M  V30 3 1 3 4
M  V30 4 2 4 5
M  V30 5 1 5 6
M  V30 6 2 6 7
M  V30 7 1 7 8
M  V30 8 2 8 9
M  V30 9 1 9 10
M  V30 10 1 10 11
M  V30 11 1 11 12
M  V30 12 1 12 13
M  V30 13 1 13 14
M  V30 14 1 14 15
M  V30 15 1 2 16
M  V30 16 1 16 17
M  V30 17 2 17 18
M  V30 18 1 18 19
M  V30 19 1 19 20
M  V30 20 2 19 21
M  V30 21 1 21 22
M  V30 22 2 22 23
M  V30 23 1 22 24
M  V30 24 1 9 4
M  V30 25 1 15 10
M  V30 26 1 23 17
M  V30 27 1 1 25
M  V30 28 1 1 26
M  V30 29 1 1 27
M  V30 30 1 3 28
M  V30 31 1 3 29
M  V30 32 1 5 30
M  V30 33 1 6 31
M  V30 34 1 7 32
M  V30 35 1 8 33
M  V30 36 1 11 34
M  V30 37 1 11 35
M  V30 38 1 12 36
M  V30 39 1 12 37
M  V30 40 1 13 38
M  V30 41 1 13 39
M  V30 42 1 14 40
M  V30 43 1 14 41
M  V30 44 1 15 42
M  V30 45 1 15 43
M  V30 46 1 16 44
M  V30 47 1 16 45
M  V30 48 1 20 46
M  V30 49 1 20 47
M  V30 50 1 24 48
M  V30 51 1 24 49
M  V30 END BOND
M  V30 END CTAB
M  END
