
     RDKit          3D

  0  0  0  0  0  0  0  0  0  0999 V3000
M  V30 BEGIN CTAB
M  V30 COUNTS 22 22 0 0 0
M  V30 BEGIN ATOM
M  V30 1 N -2.10045 0.776897 1.06989 0
M  V30 2 C -1.95524 0.823234 -0.375951 0
M  V30 3 C -0.996966 -0.198209 -0.862169 0
M  V30 4 N -1.49846 -1.50931 -0.475552 0
M  V30 5 C 0.37601 -0.083103 -0.376515 0
M  V30 6 C 0.891706 1.01228 0.259792 0
M  V30 7 C 2.18678 1.01022 0.670233 0
M  V30 8 C 3.01267 -0.0748371 0.464487 0
M  V30 9 C 2.52116 -1.19403 -0.174409 0
M  V30 10 C 1.20478 -1.17885 -0.585962 0
M  V30 11 H -2.96947 0.249481 1.3582 0
M  V30 12 H -2.12601 1.73122 1.49179 0
M  V30 13 H -2.95853 0.593647 -0.792992 0
M  V30 14 H -1.72873 1.85988 -0.647789 0
M  V30 15 H -0.975368 -0.184725 -1.97177 0
M  V30 16 H -2.5406 -1.44741 -0.483137 0
M  V30 17 H -1.18102 -1.81048 0.452267 0
M  V30 18 H 0.210592 1.85245 0.405874 0
M  V30 19 H 2.54385 1.91652 1.17459 0
M  V30 20 H 4.05292 -0.0217255 0.817788 0
M  V30 21 H 3.18177 -2.03913 -0.329131 0
M  V30 22 H 0.848615 -2.08403 -1.08954 0
M  V30 END ATOM
M  V30 BEGIN BOND
M  V30 1 1 1 2
M  V30 2 1 2 3
M  V30 3 1 3 4
M  V30 4 1 3 5
M  V30 5 2 5 6
M  V30 6 1 6 7
M  V30 7 2 7 8
M  V30 8 1 8 9
M  V30 9 2 9 10
M  V30 10 1 10 5
M  V30 11 1 1 11
M  V30 12 1 1 12
M  V30 13 1 2 13
M  V30 14 1 2 14
M  V30 15 1 3 15
M  V30 16 1 4 16
M  V30 17 1 4 17
M  V30 18 1 6 18
M  V30 19 1 7 19
M  V30 20 1 8 20
M  V30 21 1 9 21
M  V30 22 1 10 22
M  V30 END BOND
M  V30 END CTAB
M  END
