
     RDKit          3D

  0  0  0  0  0  0  0  0  0  0999 V3000
M  V30 BEGIN CTAB
M  V30 COUNTS 44 46 0 0 0
M  V30 BEGIN ATOM
M  V30 1 C -3.6445 -3.30241 -1.53252 0
M  V30 2 C -4.12233 -1.92593 -1.12649 0
M  V30 3 C -3.35293 -0.833494 -1.84186 0
M  V30 4 O -3.87498 0.40083 -1.39324 0
M  V30 5 C -3.42948 1.01889 -0.234048 0
M  V30 6 C -4.15351 1.9715 0.433017 0
M  V30 7 C -3.63649 2.53497 1.57774 0
M  V30 8 C -2.39955 2.14181 2.04689 0
M  V30 9 N -1.72385 1.20671 1.36431 0
M  V30 10 C -2.20483 0.657036 0.266173 0
M  V30 11 N -1.3976 -0.324375 -0.372068 0
M  V30 12 C -1.88709 -0.93779 -1.55918 0
M  V30 13 O -1.16381 -1.55577 -2.37466 0
M  V30 14 C -0.137218 -0.703145 0.132031 0
M  V30 15 C 1.04541 0.0567119 -0.347734 0
M  V30 16 O 2.20078 -0.480944 0.276985 0
M  V30 17 C 3.47146 -0.0330067 0.076321 0
M  V30 18 C 3.71236 1.0032 -0.774301 0
M  V30 19 C 4.9986 1.44838 -0.970382 0
M  V30 20 C 6.02851 0.832361 -0.296696 0
M  V30 21 C 5.82054 -0.216511 0.569455 0
M  V30 22 C 4.50627 -0.631177 0.735459 0
M  V30 23 N 6.90116 -0.82484 1.24384 0
M  V30 24 N -1.82232 2.68847 3.21749 0
M  V30 25 H -3.88361 -3.51897 -2.57858 0
M  V30 26 H -4.16338 -4.02772 -0.866094 0
M  V30 27 H -2.56269 -3.43997 -1.35022 0
M  V30 28 H -5.1775 -1.83546 -1.4564 0
M  V30 29 H -4.10816 -1.81028 -0.033573 0
M  V30 30 H -3.54764 -0.949375 -2.91861 0
M  V30 31 H -5.12252 2.25752 0.0368269 0
M  V30 32 H -4.18687 3.28656 2.12061 0
M  V30 33 H 0.0350722 -1.77975 -0.0754829 0
M  V30 34 H -0.163801 -0.620679 1.2481 0
M  V30 35 H 1.21935 -0.0813039 -1.44332 0
M  V30 36 H 1.03389 1.13027 -0.0657861 0
M  V30 37 H 2.9084 1.50842 -1.32098 0
M  V30 38 H 5.21317 2.28546 -1.65467 0
M  V30 39 H 7.0528 1.17513 -0.442801 0
M  V30 40 H 4.34465 -1.45614 1.41698 0
M  V30 41 H 7.82285 -0.360008 1.24651 0
M  V30 42 H 6.78322 -1.72638 1.73359 0
M  V30 43 H -2.33118 2.6262 4.1078 0
M  V30 44 H -0.900665 3.14501 3.17959 0
M  V30 END ATOM
M  V30 BEGIN BOND
M  V30 1 1 1 2
M  V30 2 1 2 3
M  V30 3 1 3 4
M  V30 4 1 4 5
M  V30 5 2 5 6
M  V30 6 1 6 7
M  V30 7 2 7 8
M  V30 8 1 8 9
M  V30 9 2 9 10
M  V30 10 1 10 11
M  V30 11 1 11 12
M  V30 12 2 12 13
M  V30 13 1 11 14
M  V30 14 1 14 15
M  V30 15 1 15 16
M  V30 16 1 16 17
M  V30 17 2 17 18
M  V30 18 1 18 19
M  V30 19 2 19 20
M  V30 20 1 20 21
M  V30 21 2 21 22
M  V30 22 1 21 23
M  V30 23 1 8 24
M  V30 24 1 12 3
M  V30 25 1 22 17
M  V30 26 1 10 5
M  V30 27 1 1 25
M  V30 28 1 1 26
M  V30 29 1 1 27
M  V30 30 1 2 28
M  V30 31 1 2 29
M  V30 32 1 3 30
M  V30 33 1 6 31
M  V30 34 1 7 32
M  V30 35 1 14 33
M  V30 36 1 14 34
M  V30 37 1 15 35
M  V30 38 1 15 36
M  V30 39 1 18 37
M  V30 40 1 19 38
M  V30 41 1 20 39
M  V30 42 1 22 40
M  V30 43 1 23 41
M  V30 44 1 23 42
M  V30 45 1 24 43
M  V30 46 1 24 44
M  V30 END BOND
M  V30 END CTAB
M  END
