
     RDKit          3D

  0  0  0  0  0  0  0  0  0  0999 V3000
M  V30 BEGIN CTAB
M  V30 COUNTS 19 20 0 0 0
M  V30 BEGIN ATOM
M  V30 1 N -4.11296 1.28856 -0.864646 0
M  V30 2 C -2.99183 0.490684 -0.436107 0
M  V30 3 N -3.03811 -0.727988 0.131297 0
M  V30 4 N -1.79651 -1.11645 0.374421 0
M  V30 5 C -0.978416 -0.161085 -0.0316474 0
M  V30 6 N -1.69672 0.842154 -0.536226 0
M  V30 7 C 0.495534 -0.182563 0.0514398 0
M  V30 8 C 1.29781 -1.17596 0.555557 0
M  V30 9 C 2.62039 -0.968528 0.524147 0
M  V30 10 C 3.06122 0.213727 -0.00663525 0
M  V30 11 S 1.616 0.999691 -0.445655 0
M  V30 12 N 4.4173 0.677261 -0.156075 0
M  V30 13 H -4.1237 2.32488 -0.711737 0
M  V30 14 H -4.92307 0.834532 -1.33161 0
M  V30 15 H -3.90999 -1.26466 0.338969 0
M  V30 16 H 0.856217 -2.11452 0.972394 0
M  V30 17 H 3.37176 -1.7007 0.903621 0
M  V30 18 H 5.19672 0.0418356 -0.376401 0
M  V30 19 H 4.63836 1.69913 -0.0393618 0
M  V30 END ATOM
M  V30 BEGIN BOND
M  V30 1 1 1 2
M  V30 2 1 2 3
M  V30 3 1 3 4
M  V30 4 2 4 5
M  V30 5 1 5 6
M  V30 6 1 5 7
M  V30 7 2 7 8
M  V30 8 1 8 9
M  V30 9 2 9 10
M  V30 10 1 10 11
M  V30 11 1 10 12
M  V30 12 2 6 2
M  V30 13 1 11 7
M  V30 14 1 1 13
M  V30 15 1 1 14
M  V30 16 1 3 15
M  V30 17 1 8 16
M  V30 18 1 9 17
M  V30 19 1 12 18
M  V30 20 1 12 19
M  V30 END BOND
M  V30 END CTAB
M  END
