
     RDKit          3D

  0  0  0  0  0  0  0  0  0  0999 V3000
M  V30 BEGIN CTAB
M  V30 COUNTS 31 31 0 0 0
M  V30 BEGIN ATOM
M  V30 1 O -1.72708 0.0441646 -2.24402 0
M  V30 2 C -1.64744 0.152133 -1.19857 0
M  V30 3 N -0.566895 -0.459961 -0.478531 0
M  V30 4 C 0.413767 -1.22704 -1.19136 0
M  V30 5 C 1.82704 -0.857164 -0.790941 0
M  V30 6 N 1.83962 0.0120376 0.372083 0
M  V30 7 C 0.989632 -0.581669 1.36148 0
M  V30 8 C -0.446744 -0.312649 0.972032 0
M  V30 9 S 3.45567 0.202025 0.939204 0
M  V30 10 O 3.4443 1.12426 2.12719 0
M  V30 11 O 4.07443 -1.09332 1.35105 0
M  V30 12 N 4.39477 0.942325 -0.309495 0
M  V30 13 C -2.66477 0.952231 -0.428452 0 CFG=1
M  V30 14 N -3.61222 1.48453 -1.35253 0
M  V30 15 C -3.38719 -0.0417705 0.472393 0
M  V30 16 H 0.352183 -1.04357 -2.29264 0
M  V30 17 H 0.213946 -2.3151 -1.06672 0
M  V30 18 H 2.35634 -1.80358 -0.569288 0
M  V30 19 H 2.37943 -0.347008 -1.59385 0
M  V30 20 H 1.24551 -0.132479 2.34478 0
M  V30 21 H 1.14128 -1.68694 1.42432 0
M  V30 22 H -1.08018 -1.05387 1.5017 0
M  V30 23 H -0.700215 0.715914 1.3015 0
M  V30 24 H 4.83503 1.82621 0.0204369 0
M  V30 25 H 3.84066 1.10397 -1.17999 0
M  V30 26 H -2.11392 1.70134 0.160238 0
M  V30 27 H -4.57723 1.15723 -1.2399 0
M  V30 28 H -3.50081 2.49353 -1.55564 0
M  V30 29 H -3.16134 0.130461 1.54697 0
M  V30 30 H -3.11648 -1.0918 0.240501 0
M  V30 31 H -4.5011 0.00554837 0.293186 0
M  V30 END ATOM
M  V30 BEGIN BOND
M  V30 1 2 1 2
M  V30 2 1 2 3
M  V30 3 1 3 4
M  V30 4 1 4 5
M  V30 5 1 5 6
M  V30 6 1 6 7
M  V30 7 1 7 8
M  V30 8 1 6 9
M  V30 9 2 9 10
M  V30 10 2 9 11
M  V30 11 1 9 12
M  V30 12 1 2 13
M  V30 13 1 13 14
M  V30 14 1 13 15
M  V30 15 1 8 3
M  V30 16 1 4 16
M  V30 17 1 4 17
M  V30 18 1 5 18
M  V30 19 1 5 19
M  V30 20 1 7 20
M  V30 21 1 7 21
M  V30 22 1 8 22
M  V30 23 1 8 23
M  V30 24 1 12 24
M  V30 25 1 12 25
M  V30 26 1 13 26 CFG=1
M  V30 27 1 14 27
M  V30 28 1 14 28
M  V30 29 1 15 29
M  V30 30 1 15 30
M  V30 31 1 15 31
M  V30 END BOND
M  V30 END CTAB
M  END
