
     RDKit          3D

  0  0  0  0  0  0  0  0  0  0999 V3000
M  V30 BEGIN CTAB
M  V30 COUNTS 74 80 0 0 0
M  V30 BEGIN ATOM
M  V30 1 C -1.46702 -4.56412 -0.471118 0
M  V30 2 C -0.36439 -3.56633 -0.497581 0
M  V30 3 N 0.92715 -3.91497 -0.581977 0
M  V30 4 C 1.91332 -2.97776 -0.604049 0
M  V30 5 C 1.6227 -1.61252 -0.539709 0
M  V30 6 C 2.63843 -0.681147 -0.564211 0
M  V30 7 C 3.92997 -1.17186 -0.654111 0
M  V30 8 C 4.2599 -2.49361 -0.718638 0
M  V30 9 N 5.59747 -2.98309 -0.799304 0
M  V30 10 C 6.70313 -2.07602 -0.605721 0
M  V30 11 C 6.78124 -1.54093 0.817751 0
M  V30 12 C 7.92232 -0.599915 0.998811 0
M  V30 13 N 7.88632 0.561558 0.162082 0
M  V30 14 C 8.44444 0.613406 -1.0608 0
M  V30 15 N 8.25027 1.82999 -1.6081 0
M  V30 16 C 7.56452 2.57512 -0.742799 0
M  V30 17 C 7.34498 1.76309 0.361949 0
M  V30 18 N 6.67185 2.28356 1.3777 0
M  V30 19 C 6.20862 3.55969 1.35351 0
M  V30 20 N 6.43029 4.34343 0.266394 0
M  V30 21 C 7.10612 3.87248 -0.794033 0
M  V30 22 N 7.32815 4.69941 -1.91613 0
M  V30 23 C 3.21258 -3.42362 -0.692546 0
M  V30 24 C 0.294377 -1.26318 -0.453207 0
M  V30 25 C -0.707026 -2.236 -0.431556 0
M  V30 26 C -2.03005 -1.83015 -0.34357 0
M  V30 27 C -2.38024 -0.504039 -0.27742 0
M  V30 28 N -3.74883 -0.140118 -0.189153 0
M  V30 29 C -4.79111 -1.14566 -0.168642 0
M  V30 30 C -6.15979 -0.565113 -0.0766254 0
M  V30 31 C -6.36609 0.263641 1.1713 0
M  V30 32 N -7.71654 0.79293 1.19041 0
M  V30 33 C -8.80673 0.187977 1.73917 0
M  V30 34 N -9.89072 0.964058 1.57252 0
M  V30 35 C -9.53097 2.07373 0.920881 0
M  V30 36 C -8.17468 1.94804 0.692337 0
M  V30 37 N -7.56033 2.94373 0.0445984 0
M  V30 38 C -8.24186 4.03207 -0.370576 0
M  V30 39 N -9.56578 4.13927 -0.139434 0
M  V30 40 C -10.2575 3.17258 0.510023 0
M  V30 41 N -11.6522 3.31795 0.736654 0
M  V30 42 C -1.40861 0.456327 -0.297743 0
M  V30 43 C -0.0668486 0.0619907 -0.386434 0
M  V30 44 H -1.08636 -5.60377 -0.498807 0
M  V30 45 H -2.12139 -4.34442 -1.34616 0
M  V30 46 H -2.0556 -4.4936 0.487098 0
M  V30 47 H 2.47375 0.376921 -0.517934 0
M  V30 48 H 4.73278 -0.440268 -0.683672 0
M  V30 49 H 5.77304 -3.98444 -0.996071 0
M  V30 50 H 7.66402 -2.53292 -0.915584 0
M  V30 51 H 6.53091 -1.23348 -1.33013 0
M  V30 52 H 7.06238 -2.4555 1.43431 0
M  V30 53 H 5.82271 -1.23724 1.23749 0
M  V30 54 H 7.97414 -0.355123 2.08204 0
M  V30 55 H 8.8592 -1.1534 0.783483 0
M  V30 56 H 8.98437 -0.16332 -1.59264 0
M  V30 57 H 5.67021 3.90013 2.22615 0
M  V30 58 H 8.28137 5.14851 -2.0558 0
M  V30 59 H 6.62815 4.92149 -2.6461 0
M  V30 60 H 3.45682 -4.48319 -0.743589 0
M  V30 61 H -2.77007 -2.6274 -0.33045 0
M  V30 62 H -4.02744 0.867332 -0.137102 0
M  V30 63 H -4.66393 -1.75168 -1.08725 0
M  V30 64 H -4.56916 -1.83739 0.681497 0
M  V30 65 H -6.88571 -1.4032 -0.0955466 0
M  V30 66 H -6.35397 0.029865 -0.992302 0
M  V30 67 H -5.59593 1.04313 1.28901 0
M  V30 68 H -6.22085 -0.440407 2.04269 0
M  V30 69 H -8.74687 -0.773566 2.22338 0
M  V30 70 H -7.68994 4.81252 -0.893466 0
M  V30 71 H -12.0813 3.67576 1.61565 0
M  V30 72 H -12.2995 3.04714 -0.0327115 0
M  V30 73 H -1.6038 1.51675 -0.249536 0
M  V30 74 H 0.707183 0.808848 -0.403178 0
M  V30 END ATOM
M  V30 BEGIN BOND
M  V30 1 1 1 2
M  V30 2 2 2 3
M  V30 3 1 3 4
M  V30 4 2 4 5
M  V30 5 1 5 6
M  V30 6 2 6 7
M  V30 7 1 7 8
M  V30 8 1 8 9
M  V30 9 1 9 10
M  V30 10 1 10 11
M  V30 11 1 11 12
M  V30 12 1 12 13
M  V30 13 1 13 14
M  V30 14 2 14 15
M  V30 15 1 15 16
M  V30 16 2 16 17
M  V30 17 1 17 18
M  V30 18 2 18 19
M  V30 19 1 19 20
M  V30 20 2 20 21
M  V30 21 1 21 22
M  V30 22 2 8 23
M  V30 23 1 5 24
M  V30 24 2 24 25
M  V30 25 1 25 26
M  V30 26 2 26 27
M  V30 27 1 27 28
M  V30 28 1 28 29
M  V30 29 1 29 30
M  V30 30 1 30 31
M  V30 31 1 31 32
M  V30 32 1 32 33
M  V30 33 2 33 34
M  V30 34 1 34 35
M  V30 35 2 35 36
M  V30 36 1 36 37
M  V30 37 2 37 38
M  V30 38 1 38 39
M  V30 39 2 39 40
M  V30 40 1 40 41
M  V30 41 1 27 42
M  V30 42 2 42 43
M  V30 43 1 25 2
M  V30 44 1 36 32
M  V30 45 1 23 4
M  V30 46 1 43 24
M  V30 47 1 17 13
M  V30 48 1 40 35
M  V30 49 1 21 16
M  V30 50 1 1 44
M  V30 51 1 1 45
M  V30 52 1 1 46
M  V30 53 1 6 47
M  V30 54 1 7 48
M  V30 55 1 9 49
M  V30 56 1 10 50
M  V30 57 1 10 51
M  V30 58 1 11 52
M  V30 59 1 11 53
M  V30 60 1 12 54
M  V30 61 1 12 55
M  V30 62 1 14 56
M  V30 63 1 19 57
M  V30 64 1 22 58
M  V30 65 1 22 59
M  V30 66 1 23 60
M  V30 67 1 26 61
M  V30 68 1 28 62
M  V30 69 1 29 63
M  V30 70 1 29 64
M  V30 71 1 30 65
M  V30 72 1 30 66
M  V30 73 1 31 67
M  V30 74 1 31 68
M  V30 75 1 33 69
M  V30 76 1 38 70
M  V30 77 1 41 71
M  V30 78 1 41 72
M  V30 79 1 42 73
M  V30 80 1 43 74
M  V30 END BOND
M  V30 END CTAB
M  END
