
     RDKit          3D

  0  0  0  0  0  0  0  0  0  0999 V3000
M  V30 BEGIN CTAB
M  V30 COUNTS 74 77 0 0 0
M  V30 BEGIN ATOM
M  V30 1 N -0.975393 -1.04609 -1.67734 0
M  V30 2 C -1.26763 -1.56188 -0.467469 0 CFG=2
M  V30 3 C -2.40235 -0.979315 0.320143 0
M  V30 4 C -2.39255 0.426028 0.674241 0
M  V30 5 C -1.20714 0.791248 1.54174 0
M  V30 6 C -1.21042 2.28666 1.84851 0
M  V30 7 C -2.57571 2.89663 1.66566 0
M  V30 8 C -3.05979 2.72261 0.227602 0
M  V30 9 C -2.44624 1.46833 -0.381152 0
M  V30 10 C -3.68161 -1.63264 -0.134084 0
M  V30 11 C -4.92923 -1.19857 0.556394 0
M  V30 12 C -5.8509 -0.35162 -0.230341 0
M  V30 13 C -6.18166 -0.763205 -1.61005 0
M  V30 14 C -5.30253 -1.87618 -2.02671 0
M  V30 15 C -3.84813 -1.74741 -1.63143 0
M  V30 16 C -0.0396297 -1.87633 0.282692 0
M  V30 17 O -0.172696 -2.24104 1.50945 0
M  V30 18 N 1.28802 -1.82171 -0.209225 0
M  V30 19 C 1.7567 -1.48118 -1.52488 0
M  V30 20 C 3.20617 -1.97708 -1.61512 0
M  V30 21 C 3.32579 -2.88729 -0.390799 0
M  V30 22 C 2.45704 -2.13005 0.592622 0 CFG=1
M  V30 23 C 3.13584 -0.969753 1.16841 0
M  V30 24 O 4.14171 -1.21143 1.92714 0
M  V30 25 N 2.79656 0.384099 0.974493 0
M  V30 26 C 3.55745 1.42148 1.61484 0
M  V30 27 C 4.85571 1.71195 0.992845 0
M  V30 28 C 5.07623 1.49025 -0.351538 0
M  V30 29 C 6.30737 1.76854 -0.905178 0
M  V30 30 C 7.34585 2.26922 -0.154114 0
M  V30 31 N 8.61189 2.55476 -0.727989 0
M  V30 32 N 7.10658 2.47689 1.15271 0
M  V30 33 C 5.9259 2.21863 1.72399 0
M  V30 34 H -0.65443 -0.144328 -1.76525 0
M  V30 35 H -1.13282 -1.5474 -2.48486 0
M  V30 36 H -1.63316 -2.65095 -0.727622 0
M  V30 37 H -2.23773 -1.47861 1.357 0
M  V30 38 H -3.27089 0.622962 1.35669 0
M  V30 39 H -1.19318 0.205545 2.48615 0
M  V30 40 H -0.268312 0.610932 1.00126 0
M  V30 41 H -0.476815 2.84096 1.23638 0
M  V30 42 H -0.926891 2.40249 2.90167 0
M  V30 43 H -3.30089 2.49944 2.39946 0
M  V30 44 H -2.47318 3.9771 1.87399 0
M  V30 45 H -4.14254 2.62315 0.270373 0
M  V30 46 H -2.81583 3.62842 -0.375407 0
M  V30 47 H -1.41777 1.83134 -0.688285 0
M  V30 48 H -3.0033 1.26779 -1.28251 0
M  V30 49 H -3.54576 -2.71179 0.162486 0
M  V30 50 H -4.71213 -0.714305 1.52163 0
M  V30 51 H -5.56288 -2.08966 0.882976 0
M  V30 52 H -5.49392 0.726026 -0.188896 0
M  V30 53 H -6.82649 -0.282148 0.34646 0
M  V30 54 H -7.23813 -1.17225 -1.62184 0
M  V30 55 H -6.22972 0.0769539 -2.33813 0
M  V30 56 H -5.71414 -2.81841 -1.55521 0
M  V30 57 H -5.39608 -2.05599 -3.11705 0
M  V30 58 H -3.46682 -0.874979 -2.18332 0
M  V30 59 H -3.34102 -2.62145 -2.07901 0
M  V30 60 H 1.22726 -2.03237 -2.3421 0
M  V30 61 H 1.71594 -0.407285 -1.76416 0
M  V30 62 H 3.9386 -1.17229 -1.61599 0
M  V30 63 H 3.38713 -2.6036 -2.49126 0
M  V30 64 H 4.36558 -2.96252 -0.0632484 0
M  V30 65 H 2.83649 -3.83872 -0.624955 0
M  V30 66 H 2.22825 -2.83964 1.41698 0
M  V30 67 H 1.99788 0.625235 0.363422 0
M  V30 68 H 2.93446 2.36449 1.62292 0
M  V30 69 H 3.77963 1.16632 2.69296 0
M  V30 70 H 4.27603 1.09614 -0.985901 0
M  V30 71 H 6.48658 1.59389 -1.97098 0
M  V30 72 H 8.72447 2.60199 -1.75952 0
M  V30 73 H 9.44684 2.7215 -0.139027 0
M  V30 74 H 5.7785 2.40144 2.78006 0
M  V30 END ATOM
M  V30 BEGIN BOND
M  V30 1 1 1 2
M  V30 2 1 2 3
M  V30 3 1 3 4
M  V30 4 1 4 5
M  V30 5 1 5 6
M  V30 6 1 6 7
M  V30 7 1 7 8
M  V30 8 1 8 9
M  V30 9 1 3 10
M  V30 10 1 10 11
M  V30 11 1 11 12
M  V30 12 1 12 13
M  V30 13 1 13 14
M  V30 14 1 14 15
M  V30 15 1 2 16
M  V30 16 2 16 17
M  V30 17 1 16 18
M  V30 18 1 18 19
M  V30 19 1 19 20
M  V30 20 1 20 21
M  V30 21 1 21 22
M  V30 22 1 22 23
M  V30 23 2 23 24
M  V30 24 1 23 25
M  V30 25 1 25 26
M  V30 26 1 26 27
M  V30 27 2 27 28
M  V30 28 1 28 29
M  V30 29 2 29 30
M  V30 30 1 30 31
M  V30 31 1 30 32
M  V30 32 2 32 33
M  V30 33 1 9 4
M  V30 34 1 15 10
M  V30 35 1 22 18
M  V30 36 1 33 27
M  V30 37 1 1 34
M  V30 38 1 1 35
M  V30 39 1 2 36 CFG=3
M  V30 40 1 3 37
M  V30 41 1 4 38
M  V30 42 1 5 39
M  V30 43 1 5 40
M  V30 44 1 6 41
M  V30 45 1 6 42
M  V30 46 1 7 43
M  V30 47 1 7 44
M  V30 48 1 8 45
M  V30 49 1 8 46
M  V30 50 1 9 47
M  V30 51 1 9 48
M  V30 52 1 10 49
M  V30 53 1 11 50
M  V30 54 1 11 51
M  V30 55 1 12 52
M  V30 56 1 12 53
M  V30 57 1 13 54
M  V30 58 1 13 55
M  V30 59 1 14 56
M  V30 60 1 14 57
M  V30 61 1 15 58
M  V30 62 1 15 59
M  V30 63 1 19 60
M  V30 64 1 19 61
M  V30 65 1 20 62
M  V30 66 1 20 63
M  V30 67 1 21 64
M  V30 68 1 21 65
M  V30 69 1 22 66 CFG=1
M  V30 70 1 25 67
M  V30 71 1 26 68
M  V30 72 1 26 69
M  V30 73 1 28 70
M  V30 74 1 29 71
M  V30 75 1 31 72
M  V30 76 1 31 73
M  V30 77 1 33 74
M  V30 END BOND
M  V30 END CTAB
M  END
