
     RDKit          3D

  0  0  0  0  0  0  0  0  0  0999 V3000
M  V30 BEGIN CTAB
M  V30 COUNTS 24 24 0 0 0
M  V30 BEGIN ATOM
M  V30 1 N -0.807475 -1.56373 1.1097 0
M  V30 2 C -0.386143 -0.202525 0.906488 0
M  V30 3 C 0.881479 -0.0749321 0.181941 0
M  V30 4 C 1.81855 0.823359 0.650073 0
M  V30 5 C 3.01586 0.999436 0.0350416 0
M  V30 6 N 3.29035 0.272509 -1.06395 0
M  V30 7 C 2.40737 -0.617804 -1.55985 0
M  V30 8 C 1.18816 -0.80976 -0.949368 0
M  V30 9 C -1.46624 0.579704 0.206138 0
M  V30 10 N -2.68197 0.583773 1.00195 0
M  V30 11 C -1.78322 0.0623423 -1.15673 0
M  V30 12 H -1.03559 -2.07774 0.254118 0
M  V30 13 H -0.219336 -2.07466 1.79653 0
M  V30 14 H -0.261517 0.243708 1.91167 0
M  V30 15 H 1.59666 1.41539 1.54395 0
M  V30 16 H 3.72306 1.71491 0.435217 0
M  V30 17 H 2.61323 -1.20816 -2.44048 0
M  V30 18 H 0.445378 -1.49958 -1.29271 0
M  V30 19 H -1.09481 1.62642 0.0945949 0
M  V30 20 H -2.43491 0.317098 1.98452 0
M  V30 21 H -3.10421 1.51484 0.921505 0
M  V30 22 H -2.74422 0.557565 -1.4788 0
M  V30 23 H -0.999056 0.430087 -1.87033 0
M  V30 24 H -1.96139 -1.01225 -1.22121 0
M  V30 END ATOM
M  V30 BEGIN BOND
M  V30 1 1 1 2
M  V30 2 1 2 3
M  V30 3 2 3 4
M  V30 4 1 4 5
M  V30 5 2 5 6
M  V30 6 1 6 7
M  V30 7 2 7 8
M  V30 8 1 2 9
M  V30 9 1 9 10
M  V30 10 1 9 11
M  V30 11 1 8 3
M  V30 12 1 1 12
M  V30 13 1 1 13
M  V30 14 1 2 14
M  V30 15 1 4 15
M  V30 16 1 5 16
M  V30 17 1 7 17
M  V30 18 1 8 18
M  V30 19 1 9 19
M  V30 20 1 10 20
M  V30 21 1 10 21
M  V30 22 1 11 22
M  V30 23 1 11 23
M  V30 24 1 11 24
M  V30 END BOND
M  V30 END CTAB
M  END
