
     RDKit          3D

  0  0  0  0  0  0  0  0  0  0999 V3000
M  V30 BEGIN CTAB
M  V30 COUNTS 40 42 0 0 0
M  V30 BEGIN ATOM
M  V30 1 O -1.24748 2.7901 -2.31702 0
M  V30 2 C -0.96938 1.85242 -1.52755 0
M  V30 3 O -2.02504 1.09895 -1.03755 0
M  V30 4 C -3.36378 1.41997 -1.44818 0
M  V30 5 C -4.34257 0.504905 -0.818868 0
M  V30 6 N -4.93422 0.746026 0.366604 0
M  V30 7 C -5.81466 -0.0763181 0.933487 0
M  V30 8 N -6.41987 0.21165 2.18803 0
M  V30 9 N -6.12232 -1.20905 0.274667 0
M  V30 10 C -5.57151 -1.51463 -0.911179 0
M  V30 11 N -4.69041 -0.64749 -1.43371 0
M  V30 12 N -5.95311 -2.72432 -1.53039 0
M  V30 13 C 0.449313 1.61761 -1.17758 0
M  V30 14 O 0.600329 0.532174 -0.283062 0
M  V30 15 C 1.83532 0.13662 0.176111 0
M  V30 16 C 1.90937 -0.931592 1.048 0
M  V30 17 C 3.11424 -1.34933 1.52171 0
M  V30 18 C 4.29054 -0.722791 1.14801 0
M  V30 19 C 4.24581 0.346936 0.278201 0
M  V30 20 C 3.02074 0.764338 -0.197516 0
M  V30 21 C 5.61874 0.856255 0.0214571 0
M  V30 22 C 6.52495 -0.178108 0.621227 0
M  V30 23 C 5.68641 -1.0184 1.54455 0
M  V30 24 H -3.40309 1.39097 -2.55302 0
M  V30 25 H -3.60292 2.47581 -1.15801 0
M  V30 26 H -6.33378 1.17616 2.57056 0
M  V30 27 H -6.93665 -0.492542 2.72918 0
M  V30 28 H -6.08834 -2.75332 -2.55062 0
M  V30 29 H -6.0935 -3.56759 -0.960445 0
M  V30 30 H 1.08493 1.41509 -2.0467 0
M  V30 31 H 0.823201 2.51766 -0.660318 0
M  V30 32 H 0.973612 -1.4233 1.33987 0
M  V30 33 H 3.14728 -2.19298 2.20745 0
M  V30 34 H 2.95895 1.60506 -0.884121 0
M  V30 35 H 5.81996 1.01085 -1.04815 0
M  V30 36 H 5.77869 1.82592 0.530037 0
M  V30 37 H 6.98605 -0.79166 -0.186376 0
M  V30 38 H 7.35594 0.300375 1.19114 0
M  V30 39 H 5.88173 -2.10234 1.43931 0
M  V30 40 H 5.80653 -0.757116 2.60076 0
M  V30 END ATOM
M  V30 BEGIN BOND
M  V30 1 2 1 2
M  V30 2 1 2 3
M  V30 3 1 3 4
M  V30 4 1 4 5
M  V30 5 2 5 6
M  V30 6 1 6 7
M  V30 7 1 7 8
M  V30 8 2 7 9
M  V30 9 1 9 10
M  V30 10 2 10 11
M  V30 11 1 10 12
M  V30 12 1 2 13
M  V30 13 1 13 14
M  V30 14 1 14 15
M  V30 15 2 15 16
M  V30 16 1 16 17
M  V30 17 2 17 18
M  V30 18 1 18 19
M  V30 19 2 19 20
M  V30 20 1 19 21
M  V30 21 1 21 22
M  V30 22 1 22 23
M  V30 23 1 11 5
M  V30 24 1 20 15
M  V30 25 1 23 18
M  V30 26 1 4 24
M  V30 27 1 4 25
M  V30 28 1 8 26
M  V30 29 1 8 27
M  V30 30 1 12 28
M  V30 31 1 12 29
M  V30 32 1 13 30
M  V30 33 1 13 31
M  V30 34 1 16 32
M  V30 35 1 17 33
M  V30 36 1 20 34
M  V30 37 1 21 35
M  V30 38 1 21 36
M  V30 39 1 22 37
M  V30 40 1 22 38
M  V30 41 1 23 39
M  V30 42 1 23 40
M  V30 END BOND
M  V30 END CTAB
M  END
