
     RDKit          3D

  0  0  0  0  0  0  0  0  0  0999 V3000
M  V30 BEGIN CTAB
M  V30 COUNTS 16 16 0 0 0
M  V30 BEGIN ATOM
M  V30 1 N 3.21029 -0.551435 0.353521 0
M  V30 2 N 2.1227 -0.683231 -0.523786 0
M  V30 3 C 0.847902 -0.0922688 -0.302175 0
M  V30 4 N 0.660327 1.23711 -0.335704 0
M  V30 5 C -0.562977 1.76046 -0.144417 0
M  V30 6 C -1.67723 0.960534 0.0931164 0
M  V30 7 C -1.47029 -0.403519 0.12571 0
M  V30 8 N -0.233229 -0.866361 -0.0707456 0
M  V30 9 N -2.5875 -1.28769 0.355169 0
M  V30 10 F -2.9118 1.48938 0.289929 0
M  V30 11 H 4.01704 -0.155429 -0.199396 0
M  V30 12 H 2.98476 0.191881 1.06416 0
M  V30 13 H 2.31301 -1.26673 -1.39091 0
M  V30 14 H -0.756806 2.81897 -0.164264 0
M  V30 15 H -3.53645 -0.974 0.0302478 0
M  V30 16 H -2.41976 -2.17765 0.819552 0
M  V30 END ATOM
M  V30 BEGIN BOND
M  V30 1 1 1 2
M  V30 2 1 2 3
M  V30 3 2 3 4
M  V30 4 1 4 5
M  V30 5 2 5 6
M  V30 6 1 6 7
M  V30 7 2 7 8
M  V30 8 1 7 9
M  V30 9 1 6 10
M  V30 10 1 8 3
M  V30 11 1 1 11
M  V30 12 1 1 12
M  V30 13 1 2 13
M  V30 14 1 5 14
M  V30 15 1 9 15
M  V30 16 1 9 16
M  V30 END BOND
M  V30 END CTAB
M  END
