
     RDKit          3D

  0  0  0  0  0  0  0  0  0  0999 V3000
M  V30 BEGIN CTAB
M  V30 COUNTS 41 44 0 0 0
M  V30 BEGIN ATOM
M  V30 1 F 7.78736 2.33789 -0.735004 0
M  V30 2 C 6.81908 1.415 -0.448589 0
M  V30 3 C 7.17583 0.126225 -0.109492 0
M  V30 4 C 6.25177 -0.839142 0.18686 0
M  V30 5 C 4.91563 -0.498248 0.141382 0
M  V30 6 C 4.50546 0.783491 -0.19365 0
M  V30 7 C 5.47824 1.73011 -0.486822 0
M  V30 8 N 3.16836 0.828989 -0.159331 0
M  V30 9 C 2.68984 -0.392607 0.190192 0
M  V30 10 N 3.76416 -1.1797 0.367325 0
M  V30 11 C 1.27697 -0.75798 0.337475 0
M  V30 12 C 0.258738 -0.305357 -0.414697 0
M  V30 13 N 0.408982 0.609887 -1.48141 0
M  V30 14 N -0.971419 -0.874215 0.0145922 0
M  V30 15 C -0.565867 -2.14439 0.652784 0
M  V30 16 C 0.710512 -1.67123 1.30577 0
M  V30 17 O 1.18535 -1.98038 2.41695 0
M  V30 18 C -2.28042 -0.392168 -0.102956 0
M  V30 19 C -3.33654 -1.23122 0.281106 0
M  V30 20 C -4.6561 -0.831334 0.199418 0
M  V30 21 C -4.97306 0.421531 -0.268588 0
M  V30 22 C -3.95403 1.26354 -0.651379 0
M  V30 23 C -2.62895 0.830432 -0.557251 0
M  V30 24 S -6.64245 0.960454 -0.386849 0
M  V30 25 O -7.57775 -0.194478 -0.598082 0
M  V30 26 O -6.78042 1.96653 -1.49355 0
M  V30 27 N -7.03372 1.69053 1.14711 0
M  V30 28 H 8.22003 -0.168495 -0.0658288 0
M  V30 29 H 6.52312 -1.84785 0.45224 0
M  V30 30 H 5.18277 2.75183 -0.755642 0
M  V30 31 H 3.75543 -2.18608 0.641883 0
M  V30 32 H 0.352811 0.370869 -2.49424 0
M  V30 33 H 0.591612 1.61079 -1.24692 0
M  V30 34 H -1.23482 -2.44853 1.44341 0
M  V30 35 H -0.317559 -2.91256 -0.10169 0
M  V30 36 H -3.16439 -2.22538 0.657094 0
M  V30 37 H -5.45623 -1.47645 0.493753 0
M  V30 38 H -4.17874 2.25981 -1.02378 0
M  V30 39 H -1.89015 1.51937 -0.861837 0
M  V30 40 H -7.22481 0.899894 1.80713 0
M  V30 41 H -6.15465 2.18065 1.47296 0
M  V30 END ATOM
M  V30 BEGIN BOND
M  V30 1 1 1 2
M  V30 2 2 2 3
M  V30 3 1 3 4
M  V30 4 2 4 5
M  V30 5 1 5 6
M  V30 6 2 6 7
M  V30 7 1 6 8
M  V30 8 2 8 9
M  V30 9 1 9 10
M  V30 10 1 9 11
M  V30 11 2 11 12
M  V30 12 1 12 13
M  V30 13 1 12 14
M  V30 14 1 14 15
M  V30 15 1 15 16
M  V30 16 2 16 17
M  V30 17 1 14 18
M  V30 18 2 18 19
M  V30 19 1 19 20
M  V30 20 2 20 21
M  V30 21 1 21 22
M  V30 22 2 22 23
M  V30 23 1 21 24
M  V30 24 2 24 25
M  V30 25 2 24 26
M  V30 26 1 24 27
M  V30 27 1 7 2
M  V30 28 1 16 11
M  V30 29 1 23 18
M  V30 30 1 10 5
M  V30 31 1 3 28
M  V30 32 1 4 29
M  V30 33 1 7 30
M  V30 34 1 10 31
M  V30 35 1 13 32
M  V30 36 1 13 33
M  V30 37 1 15 34
M  V30 38 1 15 35
M  V30 39 1 19 36
M  V30 40 1 20 37
M  V30 41 1 22 38
M  V30 42 1 23 39
M  V30 43 1 27 40
M  V30 44 1 27 41
M  V30 END BOND
M  V30 END CTAB
M  END
