
     RDKit          3D

  0  0  0  0  0  0  0  0  0  0999 V3000
M  V30 BEGIN CTAB
M  V30 COUNTS 30 30 0 0 0
M  V30 BEGIN ATOM
M  V30 1 C -3.46877 0.810262 0.0437976 0
M  V30 2 C -2.77448 -0.488678 0.286465 0
M  V30 3 C -1.29004 -0.37642 0.442828 0 CFG=1
M  V30 4 C -0.604745 0.200639 -0.757096 0
M  V30 5 C 0.860353 0.256525 -0.469794 0
M  V30 6 N 1.78713 -0.693293 -0.715929 0
M  V30 7 N 2.98489 -0.291275 -0.326303 0
M  V30 8 C 2.84663 0.944885 0.185756 0
M  V30 9 N 1.54815 1.27498 0.0960108 0
M  V30 10 N 3.91745 1.72023 0.71474 0
M  V30 11 C 4.23271 -1.04306 -0.428808 0
M  V30 12 N -0.980775 0.413461 1.60415 0
M  V30 13 C -3.18194 -1.46278 -0.787291 0
M  V30 14 H -2.92917 1.43587 -0.689832 0
M  V30 15 H -4.49978 0.570769 -0.329581 0
M  V30 16 H -3.63287 1.32828 1.01999 0
M  V30 17 H -3.1717 -0.900295 1.25145 0
M  V30 18 H -0.890732 -1.39785 0.597932 0
M  V30 19 H -0.921011 1.23646 -0.98776 0
M  V30 20 H -0.729729 -0.393909 -1.66809 0
M  V30 21 H 4.76402 1.95633 0.154506 0
M  V30 22 H 3.8652 2.07122 1.69837 0
M  V30 23 H 5.03164 -0.370515 -0.763164 0
M  V30 24 H 4.43313 -1.49243 0.570691 0
M  V30 25 H 4.14622 -1.86786 -1.14117 0
M  V30 26 H -1.31213 1.38363 1.55564 0
M  V30 27 H -0.015866 0.302599 1.95085 0
M  V30 28 H -2.5465 -2.36376 -0.765031 0
M  V30 29 H -3.23209 -0.994643 -1.79321 0
M  V30 30 H -4.2352 -1.76939 -0.550113 0
M  V30 END ATOM
M  V30 BEGIN BOND
M  V30 1 1 1 2
M  V30 2 1 2 3
M  V30 3 1 3 4
M  V30 4 1 4 5
M  V30 5 2 5 6
M  V30 6 1 6 7
M  V30 7 1 7 8
M  V30 8 2 8 9
M  V30 9 1 8 10
M  V30 10 1 7 11
M  V30 11 1 3 12
M  V30 12 1 2 13
M  V30 13 1 9 5
M  V30 14 1 1 14
M  V30 15 1 1 15
M  V30 16 1 1 16
M  V30 17 1 2 17
M  V30 18 1 3 18 CFG=1
M  V30 19 1 4 19
M  V30 20 1 4 20
M  V30 21 1 10 21
M  V30 22 1 10 22
M  V30 23 1 11 23
M  V30 24 1 11 24
M  V30 25 1 11 25
M  V30 26 1 12 26
M  V30 27 1 12 27
M  V30 28 1 13 28
M  V30 29 1 13 29
M  V30 30 1 13 30
M  V30 END BOND
M  V30 END CTAB
M  END
