
     RDKit          3D

  0  0  0  0  0  0  0  0  0  0999 V3000
M  V30 BEGIN CTAB
M  V30 COUNTS 24 25 0 0 0
M  V30 BEGIN ATOM
M  V30 1 N 4.06228 -0.171577 -0.298984 0
M  V30 2 C 2.65067 -0.336046 -0.268484 0
M  V30 3 N 2.03647 -1.5083 -0.494357 0
M  V30 4 C 0.712082 -1.6311 -0.458814 0
M  V30 5 C -0.0539251 -0.529078 -0.183347 0
M  V30 6 C 0.543796 0.681616 0.0514905 0
M  V30 7 N 1.91549 0.754884 0.00303873 0
M  V30 8 C -0.250685 1.90093 0.350473 0
M  V30 9 C -1.68845 1.66542 0.633535 0
M  V30 10 C -1.88489 0.248095 1.10759 0
M  V30 11 C -1.53154 -0.599617 -0.124382 0
M  V30 12 N -2.05166 -1.91993 -0.0368168 0
M  V30 13 H 4.59764 0.077592 -1.15746 0
M  V30 14 H 4.5824 -0.308353 0.584716 0
M  V30 15 H 0.227949 -2.60629 -0.647976 0
M  V30 16 H -0.0924759 2.57688 -0.541166 0
M  V30 17 H 0.278673 2.43639 1.18636 0
M  V30 18 H -2.24634 1.74325 -0.344701 0
M  V30 19 H -2.14802 2.41117 1.30797 0
M  V30 20 H -1.17314 -0.0253888 1.91259 0
M  V30 21 H -2.91312 0.0421839 1.44659 0
M  V30 22 H -1.90384 -0.0959545 -1.05546 0
M  V30 23 H -1.66379 -2.4438 0.749896 0
M  V30 24 H -2.00556 -2.36298 -0.960027 0
M  V30 END ATOM
M  V30 BEGIN BOND
M  V30 1 1 1 2
M  V30 2 2 2 3
M  V30 3 1 3 4
M  V30 4 2 4 5
M  V30 5 1 5 6
M  V30 6 2 6 7
M  V30 7 1 6 8
M  V30 8 1 8 9
M  V30 9 1 9 10
M  V30 10 1 10 11
M  V30 11 1 11 12
M  V30 12 1 7 2
M  V30 13 1 11 5
M  V30 14 1 1 13
M  V30 15 1 1 14
M  V30 16 1 4 15
M  V30 17 1 8 16
M  V30 18 1 8 17
M  V30 19 1 9 18
M  V30 20 1 9 19
M  V30 21 1 10 20
M  V30 22 1 10 21
M  V30 23 1 11 22
M  V30 24 1 12 23
M  V30 25 1 12 24
M  V30 END BOND
M  V30 END CTAB
M  END
