
     RDKit          3D

  0  0  0  0  0  0  0  0  0  0999 V3000
M  V30 BEGIN CTAB
M  V30 COUNTS 35 37 0 0 0
M  V30 BEGIN ATOM
M  V30 1 N -5.24227 2.7828 0.676458 0
M  V30 2 C -4.20951 1.84439 0.388256 0
M  V30 3 N -3.09842 1.75103 1.14029 0
M  V30 4 C -2.13703 0.844236 0.833494 0
M  V30 5 C -2.35721 0.045091 -0.263357 0
M  V30 6 C -1.39641 -0.898418 -0.613418 0
M  V30 7 C -0.229846 -1.05852 0.104101 0
M  V30 8 N 0.701032 -2.05204 -0.313017 0
M  V30 9 C 1.9986 -2.2159 0.292002 0
M  V30 10 C 2.8923 -1.04249 0.0966591 0
M  V30 11 C 2.65969 -0.0134319 -0.771963 0
M  V30 12 C 3.56629 1.04023 -0.875463 0
M  V30 13 C 4.70681 1.08418 -0.122784 0
M  V30 14 Cl 5.86658 2.40951 -0.239662 0
M  V30 15 C 4.94967 0.0597579 0.749669 0
M  V30 16 C 4.04538 -0.990756 0.852594 0
M  V30 17 C -0.0499387 -0.238982 1.19396 0
M  V30 18 C -0.984802 0.719684 1.5814 0
M  V30 19 C -3.49708 0.130578 -1.0468 0
M  V30 20 N -3.66962 -0.726472 -2.17386 0
M  V30 21 N -4.4054 1.04938 -0.684991 0
M  V30 22 H -5.38492 3.65832 0.117434 0
M  V30 23 H -5.88314 2.59559 1.47311 0
M  V30 24 H -1.5797 -1.52129 -1.47745 0
M  V30 25 H 0.447769 -2.7038 -1.09511 0
M  V30 26 H 2.51165 -3.07391 -0.18393 0
M  V30 27 H 1.91028 -2.48027 1.36616 0
M  V30 28 H 1.77606 -0.0354924 -1.36358 0
M  V30 29 H 3.3814 1.8644 -1.57017 0
M  V30 30 H 5.85585 0.0927328 1.34906 0
M  V30 31 H 4.30712 -1.76903 1.56845 0
M  V30 32 H 0.873384 -0.377237 1.75825 0
M  V30 33 H -0.815154 1.34033 2.43231 0
M  V30 34 H -4.5118 -1.33744 -2.2161 0
M  V30 35 H -2.99759 -0.776757 -2.962 0
M  V30 END ATOM
M  V30 BEGIN BOND
M  V30 1 1 1 2
M  V30 2 2 2 3
M  V30 3 1 3 4
M  V30 4 2 4 5
M  V30 5 1 5 6
M  V30 6 2 6 7
M  V30 7 1 7 8
M  V30 8 1 8 9
M  V30 9 1 9 10
M  V30 10 2 10 11
M  V30 11 1 11 12
M  V30 12 2 12 13
M  V30 13 1 13 14
M  V30 14 1 13 15
M  V30 15 2 15 16
M  V30 16 1 7 17
M  V30 17 2 17 18
M  V30 18 1 5 19
M  V30 19 1 19 20
M  V30 20 2 19 21
M  V30 21 1 21 2
M  V30 22 1 18 4
M  V30 23 1 16 10
M  V30 24 1 1 22
M  V30 25 1 1 23
M  V30 26 1 6 24
M  V30 27 1 8 25
M  V30 28 1 9 26
M  V30 29 1 9 27
M  V30 30 1 11 28
M  V30 31 1 12 29
M  V30 32 1 15 30
M  V30 33 1 16 31
M  V30 34 1 17 32
M  V30 35 1 18 33
M  V30 36 1 20 34
M  V30 37 1 20 35
M  V30 END BOND
M  V30 END CTAB
M  END
