
     RDKit          3D

  0  0  0  0  0  0  0  0  0  0999 V3000
M  V30 BEGIN CTAB
M  V30 COUNTS 33 34 0 0 0
M  V30 BEGIN ATOM
M  V30 1 N 5.39875 -1.16321 0.215384 0
M  V30 2 C 4.22061 -0.378851 0.130817 0
M  V30 3 C 4.294 0.876682 -0.400673 0
M  V30 4 C 3.14144 1.63161 -0.478363 0
M  V30 5 N 3.24189 2.92313 -1.03045 0
M  V30 6 N 1.9596 1.13378 -0.0345841 0
M  V30 7 C 1.89629 -0.104023 0.487567 0
M  V30 8 N 3.02068 -0.820905 0.555269 0
M  V30 9 S 0.305853 -0.690541 1.05038 0
M  V30 10 C -0.513916 -1.49751 -0.304083 0
M  V30 11 C -1.86126 -2.06337 -0.0490603 0
M  V30 12 N -2.91746 -1.26245 0.323086 0
M  V30 13 C -2.93686 -0.339001 1.3488 0
M  V30 14 C -2.97146 1.06281 0.792573 0
M  V30 15 C -3.95117 1.09922 -0.353578 0
M  V30 16 S -3.69928 -0.554276 -1.0352 0
M  V30 17 O -4.99713 -1.20059 -1.35518 0
M  V30 18 O -2.8211 -0.467772 -2.22949 0
M  V30 19 H 5.46453 -1.8886 0.95551 0
M  V30 20 H 6.2033 -1.04753 -0.429793 0
M  V30 21 H 5.24815 1.25098 -0.747638 0
M  V30 22 H 3.86267 3.61644 -0.59328 0
M  V30 23 H 2.69351 3.16228 -1.86633 0
M  V30 24 H 0.162363 -2.31562 -0.672828 0
M  V30 25 H -0.60494 -0.819102 -1.20261 0
M  V30 26 H -1.72591 -2.85809 0.762299 0
M  V30 27 H -2.14367 -2.70353 -0.961076 0
M  V30 28 H -2.0836 -0.400415 2.04978 0
M  V30 29 H -3.85478 -0.434727 2.00453 0
M  V30 30 H -3.38829 1.72205 1.58863 0
M  V30 31 H -1.98523 1.43581 0.540095 0
M  V30 32 H -3.66944 1.8531 -1.1144 0
M  V30 33 H -4.98814 1.2422 -0.045472 0
M  V30 END ATOM
M  V30 BEGIN BOND
M  V30 1 1 1 2
M  V30 2 2 2 3
M  V30 3 1 3 4
M  V30 4 1 4 5
M  V30 5 2 4 6
M  V30 6 1 6 7
M  V30 7 2 7 8
M  V30 8 1 7 9
M  V30 9 1 9 10
M  V30 10 1 10 11
M  V30 11 1 11 12
M  V30 12 1 12 13
M  V30 13 1 13 14
M  V30 14 1 14 15
M  V30 15 1 15 16
M  V30 16 2 16 17
M  V30 17 2 16 18
M  V30 18 1 8 2
M  V30 19 1 16 12
M  V30 20 1 1 19
M  V30 21 1 1 20
M  V30 22 1 3 21
M  V30 23 1 5 22
M  V30 24 1 5 23
M  V30 25 1 10 24
M  V30 26 1 10 25
M  V30 27 1 11 26
M  V30 28 1 11 27
M  V30 29 1 13 28
M  V30 30 1 13 29
M  V30 31 1 14 30
M  V30 32 1 14 31
M  V30 33 1 15 32
M  V30 34 1 15 33
M  V30 END BOND
M  V30 END CTAB
M  END
