
     RDKit          3D

  0  0  0  0  0  0  0  0  0  0999 V3000
M  V30 BEGIN CTAB
M  V30 COUNTS 25 25 0 0 0
M  V30 BEGIN ATOM
M  V30 1 N -3.04829 -0.140632 -0.910925 0
M  V30 2 C -1.93058 0.526653 -0.216403 0
M  V30 3 C -0.942722 1.04211 -1.17509 0
M  V30 4 C 0.376783 0.364493 -1.22762 0
M  V30 5 C 0.788255 -0.00182248 0.174219 0
M  V30 6 C -0.176294 -1.10939 0.554893 0
M  V30 7 C -1.47334 -0.37496 0.854575 0
M  V30 8 S 2.47148 -0.489773 0.30571 0
M  V30 9 O 2.73788 -0.833885 1.7471 0
M  V30 10 O 2.61811 -1.80011 -0.456283 0
M  V30 11 N 3.53803 0.675444 -0.209249 0
M  V30 12 H -2.76129 -1.13513 -1.0308 0
M  V30 13 H -3.84791 -0.174893 -0.208656 0
M  V30 14 H -2.42854 1.41938 0.271343 0
M  V30 15 H -1.38806 0.982832 -2.21354 0
M  V30 16 H -0.744068 2.14805 -1.04471 0
M  V30 17 H 0.263021 -0.585774 -1.82487 0
M  V30 18 H 1.10686 0.980209 -1.76272 0
M  V30 19 H 0.629557 0.906265 0.797767 0
M  V30 20 H 0.169111 -1.57934 1.49437 0
M  V30 21 H -0.304125 -1.82536 -0.268914 0
M  V30 22 H -1.26762 0.193627 1.79625 0
M  V30 23 H -2.24959 -1.13964 1.12255 0
M  V30 24 H 4.04959 1.22725 0.474045 0
M  V30 25 H 3.81375 0.724408 -1.18058 0
M  V30 END ATOM
M  V30 BEGIN BOND
M  V30 1 1 1 2
M  V30 2 1 2 3
M  V30 3 1 3 4
M  V30 4 1 4 5
M  V30 5 1 5 6
M  V30 6 1 6 7
M  V30 7 1 5 8
M  V30 8 2 8 9
M  V30 9 2 8 10
M  V30 10 1 8 11
M  V30 11 1 7 2
M  V30 12 1 1 12
M  V30 13 1 1 13
M  V30 14 1 2 14
M  V30 15 1 3 15
M  V30 16 1 3 16
M  V30 17 1 4 17
M  V30 18 1 4 18
M  V30 19 1 5 19
M  V30 20 1 6 20
M  V30 21 1 6 21
M  V30 22 1 7 22
M  V30 23 1 7 23
M  V30 24 1 11 24
M  V30 25 1 11 25
M  V30 END BOND
M  V30 END CTAB
M  END
