
     RDKit          3D

  0  0  0  0  0  0  0  0  0  0999 V3000
M  V30 BEGIN CTAB
M  V30 COUNTS 51 55 0 0 0
M  V30 BEGIN ATOM
M  V30 1 N 3.58232 -3.92056 -0.713953 0
M  V30 2 C 3.31119 -2.53237 -0.458331 0
M  V30 3 N 4.29809 -1.64941 -0.259098 0
M  V30 4 C 4.02769 -0.357211 -0.0216701 0
M  V30 5 N 2.76125 0.101616 0.0256684 0
M  V30 6 C 1.80016 -0.81104 -0.178409 0
M  V30 7 N 2.04885 -2.09892 -0.415694 0
M  V30 8 C 0.393105 -0.357747 -0.13639 0
M  V30 9 S -0.19599 1.21027 0.14376 0
M  V30 10 C -1.87319 0.887146 0.029965 0
M  V30 11 C -1.91849 -0.454624 -0.226977 0
M  V30 12 C -0.720567 -1.09978 -0.312481 0
M  V30 13 N -0.611425 -2.53187 -0.582049 0
M  V30 14 C -3.2271 -0.961759 -0.361941 0
M  V30 15 C -4.3585 -0.203107 -0.250301 0
M  V30 16 C -4.25161 1.15164 0.0109233 0
M  V30 17 N -3.0004 1.62903 0.138302 0
M  V30 18 C -5.1575 2.27915 0.200333 0
M  V30 19 C -6.55342 1.94872 0.813929 0
M  V30 20 C -6.66497 0.577185 0.569117 0
M  V30 21 C -6.79295 -0.786316 0.311096 0
M  V30 22 C -5.48745 -1.11605 -0.457032 0
M  V30 23 N 5.10142 0.564942 0.18812 0
M  V30 24 C 4.87343 1.96901 0.446497 0
M  V30 25 C 6.1307 2.47512 1.15269 0
M  V30 26 O 7.22942 2.39331 0.329292 0
M  V30 27 C 7.40009 1.19084 -0.310424 0
M  V30 28 C 6.47285 0.100456 0.145403 0
M  V30 29 H 3.89537 -4.53606 0.0566333 0
M  V30 30 H 3.46994 -4.3219 -1.66235 0
M  V30 31 H -0.868136 -2.9262 -1.49264 0
M  V30 32 H -0.256866 -3.10113 0.218212 0
M  V30 33 H -3.32469 -2.04436 -0.571867 0
M  V30 34 H -4.66077 3.03139 0.844754 0
M  V30 35 H -5.34966 2.77436 -0.769208 0
M  V30 36 H -7.31341 2.63785 0.329361 0
M  V30 37 H -6.53726 2.32389 1.86085 0
M  V30 38 H -6.51389 0.774654 -0.546701 0
M  V30 39 H -5.77582 0.365772 1.25276 0
M  V30 40 H -6.9203 -1.49037 1.16347 0
M  V30 41 H -7.63206 -1.12131 -0.377803 0
M  V30 42 H -5.68434 -1.18016 -1.54658 0
M  V30 43 H -5.18473 -2.12975 -0.127019 0
M  V30 44 H 4.02446 2.06502 1.12889 0
M  V30 45 H 4.76509 2.56768 -0.481713 0
M  V30 46 H 5.96637 3.55697 1.38328 0
M  V30 47 H 6.2612 1.89719 2.09631 0
M  V30 48 H 7.27175 1.34589 -1.40856 0
M  V30 49 H 8.43798 0.833454 -0.146539 0
M  V30 50 H 6.5228 -0.732862 -0.559231 0
M  V30 51 H 6.79 -0.187689 1.18457 0
M  V30 END ATOM
M  V30 BEGIN BOND
M  V30 1 1 1 2
M  V30 2 2 2 3
M  V30 3 1 3 4
M  V30 4 2 4 5
M  V30 5 1 5 6
M  V30 6 2 6 7
M  V30 7 1 6 8
M  V30 8 1 8 9
M  V30 9 1 9 10
M  V30 10 2 10 11
M  V30 11 1 11 12
M  V30 12 1 12 13
M  V30 13 1 11 14
M  V30 14 2 14 15
M  V30 15 1 15 16
M  V30 16 2 16 17
M  V30 17 1 16 18
M  V30 18 1 18 19
M  V30 19 1 19 20
M  V30 20 1 20 21
M  V30 21 1 21 22
M  V30 22 1 4 23
M  V30 23 1 23 24
M  V30 24 1 24 25
M  V30 25 1 25 26
M  V30 26 1 26 27
M  V30 27 1 27 28
M  V30 28 1 7 2
M  V30 29 2 12 8
M  V30 30 1 22 15
M  V30 31 1 28 23
M  V30 32 1 17 10
M  V30 33 1 1 29
M  V30 34 1 1 30
M  V30 35 1 13 31
M  V30 36 1 13 32
M  V30 37 1 14 33
M  V30 38 1 18 34
M  V30 39 1 18 35
M  V30 40 1 19 36
M  V30 41 1 19 37
M  V30 42 1 20 38
M  V30 43 1 20 39
M  V30 44 1 21 40
M  V30 45 1 21 41
M  V30 46 1 22 42
M  V30 47 1 22 43
M  V30 48 1 24 44
M  V30 49 1 24 45
M  V30 50 1 25 46
M  V30 51 1 25 47
M  V30 52 1 27 48
M  V30 53 1 27 49
M  V30 54 1 28 50
M  V30 55 1 28 51
M  V30 END BOND
M  V30 END CTAB
M  END
