
     RDKit          3D

  0  0  0  0  0  0  0  0  0  0999 V3000
M  V30 BEGIN CTAB
M  V30 COUNTS 39 40 0 0 0
M  V30 BEGIN ATOM
M  V30 1 N -3.82392 2.76657 0.950035 0
M  V30 2 C -2.70539 2.07673 0.297231 0
M  V30 3 C -2.9009 0.580205 0.571792 0
M  V30 4 N -1.84578 -0.185187 -0.0326325 0
M  V30 5 C -2.08432 -1.58135 0.259628 0
M  V30 6 C -1.9306 -2.40637 -0.983634 0
M  V30 7 C -0.469122 -2.60675 -1.28832 0
M  V30 8 C 0.221189 -1.28059 -1.36374 0
M  V30 9 C 0.528326 -0.720756 0.0137522 0 CFG=2
M  V30 10 C -0.540855 0.253012 0.456189 0
M  V30 11 C 1.84813 -0.0412957 -0.00642342 0
M  V30 12 C 2.87007 -0.460538 0.818285 0
M  V30 13 C 4.06986 0.204608 0.757758 0
M  V30 14 C 4.2969 1.27047 -0.0892552 0
M  V30 15 N 3.28539 1.65931 -0.882328 0
M  V30 16 C 2.09537 1.02434 -0.8443 0
M  V30 17 N 5.57817 1.92883 -0.107704 0
M  V30 18 H -4.62516 2.71612 0.286963 0
M  V30 19 H -4.0769 2.20804 1.78792 0
M  V30 20 H -2.71509 2.24437 -0.799136 0
M  V30 21 H -1.78066 2.40028 0.789957 0
M  V30 22 H -3.02273 0.411216 1.65273 0
M  V30 23 H -3.84689 0.317264 0.0215781 0
M  V30 24 H -1.41069 -1.94514 1.07412 0
M  V30 25 H -3.12745 -1.74513 0.642421 0
M  V30 26 H -2.46099 -3.37921 -0.891701 0
M  V30 27 H -2.38127 -1.81494 -1.82136 0
M  V30 28 H 0.00881539 -3.20203 -0.487405 0
M  V30 29 H -0.357393 -3.09289 -2.28985 0
M  V30 30 H 1.12684 -1.29729 -1.98655 0
M  V30 31 H -0.497995 -0.557129 -1.8297 0
M  V30 32 H 0.561356 -1.53396 0.751078 0
M  V30 33 H -0.574782 0.31033 1.55163 0
M  V30 34 H -0.327513 1.21533 -0.0150515 0
M  V30 35 H 2.72324 -1.30735 1.50605 0
M  V30 36 H 4.88321 -0.124902 1.41043 0
M  V30 37 H 1.31193 1.39317 -1.51872 0
M  V30 38 H 6.41963 1.3841 0.185509 0
M  V30 39 H 5.67796 2.91849 -0.402379 0
M  V30 END ATOM
M  V30 BEGIN BOND
M  V30 1 1 1 2
M  V30 2 1 2 3
M  V30 3 1 3 4
M  V30 4 1 4 5
M  V30 5 1 5 6
M  V30 6 1 6 7
M  V30 7 1 7 8
M  V30 8 1 8 9
M  V30 9 1 9 10
M  V30 10 1 9 11
M  V30 11 2 11 12
M  V30 12 1 12 13
M  V30 13 2 13 14
M  V30 14 1 14 15
M  V30 15 2 15 16
M  V30 16 1 14 17
M  V30 17 1 10 4
M  V30 18 1 16 11
M  V30 19 1 1 18
M  V30 20 1 1 19
M  V30 21 1 2 20
M  V30 22 1 2 21
M  V30 23 1 3 22
M  V30 24 1 3 23
M  V30 25 1 5 24
M  V30 26 1 5 25
M  V30 27 1 6 26
M  V30 28 1 6 27
M  V30 29 1 7 28
M  V30 30 1 7 29
M  V30 31 1 8 30
M  V30 32 1 8 31
M  V30 33 1 9 32 CFG=1
M  V30 34 1 10 33
M  V30 35 1 10 34
M  V30 36 1 12 35
M  V30 37 1 13 36
M  V30 38 1 16 37
M  V30 39 1 17 38
M  V30 40 1 17 39
M  V30 END BOND
M  V30 END CTAB
M  END
