
     RDKit          3D

  0  0  0  0  0  0  0  0  0  0999 V3000
M  V30 BEGIN CTAB
M  V30 COUNTS 37 38 0 0 0
M  V30 BEGIN ATOM
M  V30 1 N 4.36208 1.30564 1.64303 0
M  V30 2 C 3.47278 0.787143 0.662368 0
M  V30 3 C 3.88 0.506557 -0.615839 0
M  V30 4 C 2.97556 0.00880478 -1.51461 0
M  V30 5 C 1.64665 -0.209807 -1.1255 0
M  V30 6 C 1.23329 0.0699077 0.155039 0
M  V30 7 C 2.16645 0.567683 1.0297 0
M  V30 8 C -0.136669 -0.145189 0.592401 0 CFG=2
M  V30 9 C -0.395089 -1.63435 0.842597 0
M  V30 10 C -1.10292 -2.27914 -0.315938 0
M  V30 11 C -2.58653 -2.41567 -0.0210869 0
M  V30 12 C -3.20473 -1.07698 -0.425403 0
M  V30 13 C -2.44777 -0.0183447 0.341966 0
M  V30 14 N -1.16415 0.310835 -0.297791 0
M  V30 15 S -1.12054 2.00193 -0.580584 0
M  V30 16 O -2.28379 2.3484 -1.48904 0
M  V30 17 O 0.11838 2.47689 -1.22892 0
M  V30 18 N -1.35926 2.89776 0.877666 0
M  V30 19 H 5.04083 0.704511 2.14834 0
M  V30 20 H 4.34201 2.31788 1.87069 0
M  V30 21 H 4.93046 0.683128 -0.910868 0
M  V30 22 H 3.28941 -0.214107 -2.52196 0
M  V30 23 H 0.991742 -0.601172 -1.88098 0
M  V30 24 H 1.8412 0.790484 2.04626 0
M  V30 25 H -0.355364 0.347299 1.58603 0
M  V30 26 H -0.956671 -1.81615 1.76667 0
M  V30 27 H 0.610208 -2.10848 0.957872 0
M  V30 28 H -0.726428 -3.3196 -0.496457 0
M  V30 29 H -1.01892 -1.74383 -1.26295 0
M  V30 30 H -3.05262 -3.21651 -0.627044 0
M  V30 31 H -2.79112 -2.55942 1.0561 0
M  V30 32 H -3.16145 -0.928379 -1.52367 0
M  V30 33 H -4.23493 -1.08397 -0.0333556 0
M  V30 34 H -2.32613 -0.361968 1.37584 0
M  V30 35 H -3.10322 0.877431 0.379579 0
M  V30 36 H -1.03911 3.87111 0.78337 0
M  V30 37 H -2.33361 2.85965 1.21969 0
M  V30 END ATOM
M  V30 BEGIN BOND
M  V30 1 1 1 2
M  V30 2 2 2 3
M  V30 3 1 3 4
M  V30 4 2 4 5
M  V30 5 1 5 6
M  V30 6 2 6 7
M  V30 7 1 6 8
M  V30 8 1 8 9
M  V30 9 1 9 10
M  V30 10 1 10 11
M  V30 11 1 11 12
M  V30 12 1 12 13
M  V30 13 1 13 14
M  V30 14 1 14 15
M  V30 15 2 15 16
M  V30 16 2 15 17
M  V30 17 1 15 18
M  V30 18 1 7 2
M  V30 19 1 14 8
M  V30 20 1 1 19
M  V30 21 1 1 20
M  V30 22 1 3 21
M  V30 23 1 4 22
M  V30 24 1 5 23
M  V30 25 1 7 24
M  V30 26 1 8 25 CFG=1
M  V30 27 1 9 26
M  V30 28 1 9 27
M  V30 29 1 10 28
M  V30 30 1 10 29
M  V30 31 1 11 30
M  V30 32 1 11 31
M  V30 33 1 12 32
M  V30 34 1 12 33
M  V30 35 1 13 34
M  V30 36 1 13 35
M  V30 37 1 18 36
M  V30 38 1 18 37
M  V30 END BOND
M  V30 END CTAB
M  END
