
     RDKit          3D

  0  0  0  0  0  0  0  0  0  0999 V3000
M  V30 BEGIN CTAB
M  V30 COUNTS 35 37 0 0 0
M  V30 BEGIN ATOM
M  V30 1 N 6.70173 1.10224 1.02663 0
M  V30 2 N 5.55168 0.719779 0.311559 0
M  V30 3 C 4.26914 0.724904 0.852944 0
M  V30 4 O 4.13032 1.09647 2.05889 0
M  V30 5 C 3.10182 0.330547 0.110347 0
M  V30 6 C 3.23263 -0.195999 -1.1465 0
M  V30 7 C 2.11892 -0.572642 -1.86254 0
M  V30 8 C 0.86438 -0.417418 -1.30747 0
M  V30 9 C 0.677759 0.10626 -0.0487883 0
M  V30 10 C 1.81615 0.475646 0.646401 0
M  V30 11 N -0.548946 0.242304 0.453522 0
M  V30 12 C -1.67844 -0.125329 -0.240346 0
M  V30 13 N -1.47627 -0.630303 -1.44772 0
M  V30 14 C -0.251693 -0.786343 -2.00117 0
M  V30 15 O -0.117676 -1.27426 -3.16549 0
M  V30 16 N -2.52135 -1.13466 -2.23474 0
M  V30 17 C -2.96655 -0.0164969 0.410463 0
M  V30 18 C -3.0618 -0.505835 1.73764 0
M  V30 19 C -4.22085 -0.388372 2.44435 0
M  V30 20 C -5.35672 0.198179 1.93812 0
M  V30 21 C -5.286 0.679443 0.657944 0
M  V30 22 C -4.0946 0.563457 -0.0760908 0
M  V30 23 Cl -4.07002 1.32178 -1.66031 0
M  V30 24 H 6.46703 0.994752 2.0452 0
M  V30 25 H 7.48514 0.476976 0.747986 0
M  V30 26 H 5.70949 0.425685 -0.671892 0
M  V30 27 H 4.20248 -0.351067 -1.6526 0
M  V30 28 H 2.20156 -0.988297 -2.85176 0
M  V30 29 H 1.70427 0.885952 1.62749 0
M  V30 30 H -3.25935 -1.71702 -1.808 0
M  V30 31 H -2.51775 -0.903612 -3.24678 0
M  V30 32 H -2.16198 -0.972721 2.14402 0
M  V30 33 H -4.24552 -0.775675 3.45062 0
M  V30 34 H -6.25167 0.260862 2.55117 0
M  V30 35 H -6.1473 1.15082 0.206913 0
M  V30 END ATOM
M  V30 BEGIN BOND
M  V30 1 1 1 2
M  V30 2 1 2 3
M  V30 3 2 3 4
M  V30 4 1 3 5
M  V30 5 2 5 6
M  V30 6 1 6 7
M  V30 7 2 7 8
M  V30 8 1 8 9
M  V30 9 2 9 10
M  V30 10 1 9 11
M  V30 11 2 11 12
M  V30 12 1 12 13
M  V30 13 1 13 14
M  V30 14 2 14 15
M  V30 15 1 13 16
M  V30 16 1 12 17
M  V30 17 2 17 18
M  V30 18 1 18 19
M  V30 19 2 19 20
M  V30 20 1 20 21
M  V30 21 2 21 22
M  V30 22 1 22 23
M  V30 23 1 10 5
M  V30 24 1 22 17
M  V30 25 1 14 8
M  V30 26 1 1 24
M  V30 27 1 1 25
M  V30 28 1 2 26
M  V30 29 1 6 27
M  V30 30 1 7 28
M  V30 31 1 10 29
M  V30 32 1 16 30
M  V30 33 1 16 31
M  V30 34 1 18 32
M  V30 35 1 19 33
M  V30 36 1 20 34
M  V30 37 1 21 35
M  V30 END BOND
M  V30 END CTAB
M  END
