
     RDKit          3D

  0  0  0  0  0  0  0  0  0  0999 V3000
M  V30 BEGIN CTAB
M  V30 COUNTS 26 28 0 0 0
M  V30 BEGIN ATOM
M  V30 1 N -4.97765 -0.740618 -1.51088 0
M  V30 2 C -3.75292 -0.507042 -0.830464 0
M  V30 3 C -2.53742 -0.474581 -1.47588 0
M  V30 4 C -1.3345 -0.250549 -0.843348 0
M  V30 5 C -1.28003 -0.0397398 0.514565 0
M  V30 6 O -0.149711 0.192438 1.2525 0
M  V30 7 C 1.13526 0.254097 0.751454 0
M  V30 8 C 1.48472 0.0925581 -0.565985 0
M  V30 9 S 0.19419 -0.22593 -1.7625 0
M  V30 10 C 2.77015 0.165254 -0.994183 0
M  V30 11 C 3.82095 0.406676 -0.138607 0
M  V30 12 N 5.17087 0.486431 -0.565511 0
M  V30 13 C 3.48652 0.57306 1.20026 0
M  V30 14 C 2.18897 0.501087 1.64183 0
M  V30 15 C -2.50889 -0.0715977 1.17343 0
M  V30 16 C -3.70785 -0.296235 0.534096 0
M  V30 17 H -5.35608 -0.161217 -2.28599 0
M  V30 18 H -5.547 -1.55731 -1.21331 0
M  V30 19 H -2.54947 -0.640158 -2.56417 0
M  V30 20 H 3.03033 0.0349948 -2.0412 0
M  V30 21 H 5.83356 -0.311627 -0.509741 0
M  V30 22 H 5.50212 1.39282 -0.951324 0
M  V30 23 H 4.28645 0.763328 1.89459 0
M  V30 24 H 1.92191 0.632054 2.6984 0
M  V30 25 H -2.48288 0.0955024 2.26187 0
M  V30 26 H -4.64158 -0.313697 1.0795 0
M  V30 END ATOM
M  V30 BEGIN BOND
M  V30 1 1 1 2
M  V30 2 2 2 3
M  V30 3 1 3 4
M  V30 4 2 4 5
M  V30 5 1 5 6
M  V30 6 1 6 7
M  V30 7 2 7 8
M  V30 8 1 8 9
M  V30 9 1 8 10
M  V30 10 2 10 11
M  V30 11 1 11 12
M  V30 12 1 11 13
M  V30 13 2 13 14
M  V30 14 1 5 15
M  V30 15 2 15 16
M  V30 16 1 16 2
M  V30 17 1 9 4
M  V30 18 1 14 7
M  V30 19 1 1 17
M  V30 20 1 1 18
M  V30 21 1 3 19
M  V30 22 1 10 20
M  V30 23 1 12 21
M  V30 24 1 12 22
M  V30 25 1 13 23
M  V30 26 1 14 24
M  V30 27 1 15 25
M  V30 28 1 16 26
M  V30 END BOND
M  V30 END CTAB
M  END
