
     RDKit          3D

  0  0  0  0  0  0  0  0  0  0999 V3000
M  V30 BEGIN CTAB
M  V30 COUNTS 25 25 0 0 0
M  V30 BEGIN ATOM
M  V30 1 C 4.19186 0.604628 0.516293 0
M  V30 2 C 2.75404 0.280708 0.760541 0
M  V30 3 C 2.02859 0.204895 -0.560399 0
M  V30 4 N 0.644353 -0.109985 -0.274714 0
M  V30 5 N 0.175321 -1.33756 -0.195316 0
M  V30 6 C -1.13941 -1.33914 0.0806176 0
M  V30 7 C -1.51666 -0.0184662 0.180294 0
M  V30 8 C -0.389643 0.742255 -0.0444582 0
M  V30 9 S -3.08123 0.661635 0.519081 0
M  V30 10 O -3.0272 2.14862 0.652304 0
M  V30 11 O -3.52662 0.12703 1.87097 0
M  V30 12 N -4.26204 0.227927 -0.620427 0
M  V30 13 N -2.0362 -2.41961 0.252115 0
M  V30 14 H 4.84934 0.0208647 1.22165 0
M  V30 15 H 4.3439 1.6913 0.711564 0
M  V30 16 H 4.44113 0.38145 -0.530287 0
M  V30 17 H 2.6096 -0.68229 1.28028 0
M  V30 18 H 2.24633 1.05794 1.3725 0
M  V30 19 H 2.06865 1.18198 -1.10496 0
M  V30 20 H 2.48809 -0.560167 -1.22264 0
M  V30 21 H -0.280983 1.81951 -0.0505366 0
M  V30 22 H -3.89206 -0.000968394 -1.56682 0
M  V30 23 H -4.95476 1.00585 -0.698969 0
M  V30 24 H -2.02084 -3.18432 -0.454383 0
M  V30 25 H -2.71355 -2.50409 1.03882 0
M  V30 END ATOM
M  V30 BEGIN BOND
M  V30 1 1 1 2
M  V30 2 1 2 3
M  V30 3 1 3 4
M  V30 4 1 4 5
M  V30 5 2 5 6
M  V30 6 1 6 7
M  V30 7 2 7 8
M  V30 8 1 7 9
M  V30 9 2 9 10
M  V30 10 2 9 11
M  V30 11 1 9 12
M  V30 12 1 6 13
M  V30 13 1 8 4
M  V30 14 1 1 14
M  V30 15 1 1 15
M  V30 16 1 1 16
M  V30 17 1 2 17
M  V30 18 1 2 18
M  V30 19 1 3 19
M  V30 20 1 3 20
M  V30 21 1 8 21
M  V30 22 1 12 22
M  V30 23 1 12 23
M  V30 24 1 13 24
M  V30 25 1 13 25
M  V30 END BOND
M  V30 END CTAB
M  END
