
     RDKit          3D

  0  0  0  0  0  0  0  0  0  0999 V3000
M  V30 BEGIN CTAB
M  V30 COUNTS 29 30 0 0 0
M  V30 BEGIN ATOM
M  V30 1 N 1.35257 1.44043 0.847011 0
M  V30 2 C 1.39935 0.481602 -0.23985 0
M  V30 3 C 2.81155 0.408273 -0.817491 0
M  V30 4 C 3.46616 -0.816023 -0.231525 0
M  V30 5 C 2.58363 -1.08105 1.0002 0
M  V30 6 C 1.22845 -0.903603 0.294188 0
M  V30 7 S -0.180191 -1.2344 1.3007 0
M  V30 8 C -1.66198 -1.17843 0.327943 0
M  V30 9 N -2.22908 -2.20416 -0.375497 0
M  V30 10 N -3.33319 -1.79657 -0.959323 0
M  V30 11 C -3.53359 -0.502942 -0.666706 0
M  V30 12 N -2.47827 -0.149516 0.134696 0
M  V30 13 C -2.35617 1.21046 0.677374 0
M  V30 14 N -4.59556 0.342337 -1.07998 0
M  V30 15 H 2.31591 1.83508 1.03086 0
M  V30 16 H 0.788061 2.25487 0.524494 0
M  V30 17 H 0.660816 0.749683 -1.00601 0
M  V30 18 H 2.73847 0.275777 -1.90692 0
M  V30 19 H 3.41998 1.28628 -0.513068 0
M  V30 20 H 4.51837 -0.710225 0.0178233 0
M  V30 21 H 3.31484 -1.71568 -0.871584 0
M  V30 22 H 2.69968 -0.287402 1.74898 0
M  V30 23 H 2.70958 -2.10147 1.3728 0
M  V30 24 H 1.23122 -1.57965 -0.606915 0
M  V30 25 H -1.73004 1.82576 -0.0117909 0
M  V30 26 H -1.84528 1.13755 1.65669 0
M  V30 27 H -3.34392 1.68043 0.804235 0
M  V30 28 H -5.45341 -0.0319468 -1.50299 0
M  V30 29 H -4.49796 1.36453 -0.948343 0
M  V30 END ATOM
M  V30 BEGIN BOND
M  V30 1 1 1 2
M  V30 2 1 2 3
M  V30 3 1 3 4
M  V30 4 1 4 5
M  V30 5 1 5 6
M  V30 6 1 6 7
M  V30 7 1 7 8
M  V30 8 2 8 9
M  V30 9 1 9 10
M  V30 10 2 10 11
M  V30 11 1 11 12
M  V30 12 1 12 13
M  V30 13 1 11 14
M  V30 14 1 6 2
M  V30 15 1 12 8
M  V30 16 1 1 15
M  V30 17 1 1 16
M  V30 18 1 2 17
M  V30 19 1 3 18
M  V30 20 1 3 19
M  V30 21 1 4 20
M  V30 22 1 4 21
M  V30 23 1 5 22
M  V30 24 1 5 23
M  V30 25 1 6 24
M  V30 26 1 13 25
M  V30 27 1 13 26
M  V30 28 1 13 27
M  V30 29 1 14 28
M  V30 30 1 14 29
M  V30 END BOND
M  V30 END CTAB
M  END
