
     RDKit          3D

  0  0  0  0  0  0  0  0  0  0999 V3000
M  V30 BEGIN CTAB
M  V30 COUNTS 28 28 0 0 0
M  V30 BEGIN ATOM
M  V30 1 C -2.95892 0.748425 -1.15341 0
M  V30 2 C -1.69616 0.288976 -0.362865 0
M  V30 3 O -1.2403 1.36139 0.27619 0
M  V30 4 C -0.191617 1.39257 1.0986 0
M  V30 5 C 1.09983 1.05482 0.486466 0
M  V30 6 N 1.78194 1.82258 -0.406419 0
M  V30 7 N 2.91634 1.23764 -0.738631 0
M  V30 8 C 3.00838 0.0786333 -0.077244 0
M  V30 9 N 1.89861 -0.0211288 0.664021 0
M  V30 10 N 1.62545 -1.10454 1.51022 0
M  V30 11 N 4.07083 -0.858766 -0.147214 0
M  V30 12 C -2.26916 -0.740274 0.624224 0
M  V30 13 C -0.821364 -0.47234 -1.29102 0
M  V30 14 H -3.79168 0.905438 -0.458918 0
M  V30 15 H -2.75626 1.68943 -1.6705 0
M  V30 16 H -3.21846 -0.0222088 -1.90489 0
M  V30 17 H -0.341974 0.845363 2.07034 0
M  V30 18 H -0.0628978 2.46917 1.46144 0
M  V30 19 H 2.1201 -1.13928 2.42616 0
M  V30 20 H 0.959128 -1.84007 1.2357 0
M  V30 21 H 4.92451 -0.796997 0.476937 0
M  V30 22 H 4.07402 -1.66263 -0.816175 0
M  V30 23 H -2.85721 -1.45129 -0.00202052 0
M  V30 24 H -2.86356 -0.248204 1.40512 0
M  V30 25 H -1.41839 -1.29988 1.03617 0
M  V30 26 H -0.133426 0.0895393 -1.91256 0
M  V30 27 H -1.53534 -0.96168 -2.03728 0
M  V30 28 H -0.322418 -1.36469 -0.831893 0
M  V30 END ATOM
M  V30 BEGIN BOND
M  V30 1 1 1 2
M  V30 2 1 2 3
M  V30 3 1 3 4
M  V30 4 1 4 5
M  V30 5 2 5 6
M  V30 6 1 6 7
M  V30 7 2 7 8
M  V30 8 1 8 9
M  V30 9 1 9 10
M  V30 10 1 8 11
M  V30 11 1 2 12
M  V30 12 1 2 13
M  V30 13 1 9 5
M  V30 14 1 1 14
M  V30 15 1 1 15
M  V30 16 1 1 16
M  V30 17 1 4 17
M  V30 18 1 4 18
M  V30 19 1 10 19
M  V30 20 1 10 20
M  V30 21 1 11 21
M  V30 22 1 11 22
M  V30 23 1 12 23
M  V30 24 1 12 24
M  V30 25 1 12 25
M  V30 26 1 13 26
M  V30 27 1 13 27
M  V30 28 1 13 28
M  V30 END BOND
M  V30 END CTAB
M  END
