
     RDKit          3D

  0  0  0  0  0  0  0  0  0  0999 V3000
M  V30 BEGIN CTAB
M  V30 COUNTS 32 34 0 0 0
M  V30 BEGIN ATOM
M  V30 1 O 0.163165 -2.50483 0.17984 0
M  V30 2 C -0.295556 -1.32105 0.0764029 0
M  V30 3 C 0.663471 -0.229526 -0.0747513 0
M  V30 4 C 0.155012 1.0695 -0.188054 0
M  V30 5 C 1.07983 2.07856 -0.329326 0
M  V30 6 C 2.4405 1.85262 -0.360956 0
M  V30 7 C 2.93146 0.572392 -0.24888 0
M  V30 8 C 2.02634 -0.457942 -0.106215 0
M  V30 9 N 2.54436 -1.77795 0.00884769 0
M  V30 10 S 4.63885 0.305114 -0.290282 0
M  V30 11 O 5.3665 1.61122 -0.410211 0
M  V30 12 O 5.03915 -0.587885 -1.44254 0
M  V30 13 O 5.13674 -0.428125 1.16028 0
M  V30 14 C -1.28092 1.2772 -0.151497 0
M  V30 15 O -1.73543 2.43811 -0.252751 0
M  V30 16 C -2.23228 0.190066 -0.00110063 0
M  V30 17 C -1.74816 -1.09703 0.111955 0
M  V30 18 C -2.6062 -2.16009 0.256092 0
M  V30 19 C -3.96301 -1.93558 0.287715 0
M  V30 20 C -4.43902 -0.648991 0.17439 0
M  V30 21 C -3.58884 0.450233 0.0268431 0
M  V30 22 N -4.12416 1.74961 -0.0853755 0
M  V30 23 H 0.695267 3.08412 -0.417384 0
M  V30 24 H 3.15342 2.65573 -0.472454 0
M  V30 25 H 2.81881 -2.18736 0.930487 0
M  V30 26 H 2.63363 -2.31655 -0.894883 0
M  V30 27 H 5.54362 0.242322 1.74235 0
M  V30 28 H -2.22008 -3.15678 0.343181 0
M  V30 29 H -4.64342 -2.76642 0.400757 0
M  V30 30 H -5.51584 -0.469174 0.199325 0
M  V30 31 H -4.10312 2.36581 0.745129 0
M  V30 32 H -4.53408 2.10268 -0.966022 0
M  V30 END ATOM
M  V30 BEGIN BOND
M  V30 1 2 1 2
M  V30 2 1 2 3
M  V30 3 2 3 4
M  V30 4 1 4 5
M  V30 5 2 5 6
M  V30 6 1 6 7
M  V30 7 2 7 8
M  V30 8 1 8 9
M  V30 9 1 7 10
M  V30 10 2 10 11
M  V30 11 2 10 12
M  V30 12 1 10 13
M  V30 13 1 4 14
M  V30 14 2 14 15
M  V30 15 1 14 16
M  V30 16 2 16 17
M  V30 17 1 17 18
M  V30 18 2 18 19
M  V30 19 1 19 20
M  V30 20 2 20 21
M  V30 21 1 21 22
M  V30 22 1 17 2
M  V30 23 1 8 3
M  V30 24 1 21 16
M  V30 25 1 5 23
M  V30 26 1 6 24
M  V30 27 1 9 25
M  V30 28 1 9 26
M  V30 29 1 13 27
M  V30 30 1 18 28
M  V30 31 1 19 29
M  V30 32 1 20 30
M  V30 33 1 22 31
M  V30 34 1 22 32
M  V30 END BOND
M  V30 END CTAB
M  END
