
     RDKit          3D

  0  0  0  0  0  0  0  0  0  0999 V3000
M  V30 BEGIN CTAB
M  V30 COUNTS 16 15 0 0 0
M  V30 BEGIN ATOM
M  V30 1 N 2.66395 -0.129806 -0.420853 0
M  V30 2 C 1.35329 0.0090082 0.180758 0
M  V30 3 C 0.254105 -0.0830441 -0.862914 0
M  V30 4 C -1.02976 0.0670433 -0.168463 0
M  V30 5 N -1.3964 -0.845057 0.832382 0
M  V30 6 N -1.8031 1.02629 -0.480187 0
M  V30 7 O -3.00633 1.31477 0.0464262 0
M  V30 8 H 2.87418 -1.09204 -0.732476 0
M  V30 9 H 3.36113 0.111319 0.326627 0
M  V30 10 H 1.31044 1.03083 0.614306 0
M  V30 11 H 1.1442 -0.781012 0.937029 0
M  V30 12 H 0.362392 -1.09703 -1.34158 0
M  V30 13 H 0.371014 0.659261 -1.65672 0
M  V30 14 H -2.22118 -1.47157 0.721617 0
M  V30 15 H -0.86038 -0.935554 1.72918 0
M  V30 16 H -3.37755 2.2166 0.274866 0
M  V30 END ATOM
M  V30 BEGIN BOND
M  V30 1 1 1 2
M  V30 2 1 2 3
M  V30 3 1 3 4
M  V30 4 1 4 5
M  V30 5 2 4 6 CFG=2
M  V30 6 1 6 7
M  V30 7 1 1 8
M  V30 8 1 1 9
M  V30 9 1 2 10
M  V30 10 1 2 11
M  V30 11 1 3 12
M  V30 12 1 3 13
M  V30 13 1 5 14
M  V30 14 1 5 15
M  V30 15 1 7 16
M  V30 END BOND
M  V30 END CTAB
M  END
