
     RDKit          3D

  0  0  0  0  0  0  0  0  0  0999 V3000
M  V30 BEGIN CTAB
M  V30 COUNTS 55 59 0 0 0
M  V30 BEGIN ATOM
M  V30 1 N -2.71819 1.97096 -2.60875 0
M  V30 2 C -2.50144 1.34414 -1.65394 0
M  V30 3 C -2.30524 0.544378 -0.506332 0
M  V30 4 C -3.45732 0.260953 0.240745 0
M  V30 5 N -3.42729 -0.600835 1.25913 0
M  V30 6 C -2.33368 -1.25051 1.64569 0
M  V30 7 C -1.17545 -1.00894 0.950978 0
M  V30 8 C -1.15713 -0.0982729 -0.134877 0
M  V30 9 C 0.00842476 0.106404 -0.802216 0
M  V30 10 C 0.430432 0.997078 -1.86546 0
M  V30 11 O 0.0784183 2.09566 -2.19229 0
M  V30 12 C 1.5332 0.19131 -2.54546 0
M  V30 13 N 2.2192 -0.140597 -1.26013 0
M  V30 14 C 1.16016 -0.606604 -0.410132 0
M  V30 15 N 1.11561 -1.46171 0.606438 0
M  V30 16 C -0.0236047 -1.67884 1.29847 0
M  V30 17 N -0.0581044 -2.59094 2.38596 0
M  V30 18 C 3.59839 -0.0137963 -0.983212 0
M  V30 19 C 4.00038 -0.42308 0.394177 0
M  V30 20 C 5.46919 -0.242606 0.557422 0
M  V30 21 C 6.01756 0.942031 1.01486 0
M  V30 22 C 7.38338 1.12102 1.17076 0
M  V30 23 C 8.23527 0.079199 0.858715 0
M  V30 24 C 7.72294 -1.11353 0.400835 0
M  V30 25 C 6.37065 -1.26312 0.256283 0
M  V30 26 N -2.3604 -2.16802 2.74723 0
M  V30 27 N -4.66345 0.919167 -0.12799 0
M  V30 28 C -5.39798 0.727318 -1.33674 0
M  V30 29 C -6.7463 0.122799 -0.91415 0
M  V30 30 O -7.18902 0.622688 0.284567 0
M  V30 31 C -6.7138 1.90409 0.552057 0
M  V30 32 C -5.22387 1.89818 0.820203 0
M  V30 33 H 1.16277 -0.761009 -2.93181 0
M  V30 34 H 2.14922 0.783991 -3.20028 0
M  V30 35 H -0.26886 -3.60897 2.30781 0
M  V30 36 H 0.151036 -2.21244 3.33488 0
M  V30 37 H 4.18555 -0.628951 -1.7184 0
M  V30 38 H 3.95172 1.04075 -1.14772 0
M  V30 39 H 3.43683 0.105695 1.17345 0
M  V30 40 H 3.81169 -1.52593 0.532205 0
M  V30 41 H 5.37637 1.77411 1.26672 0
M  V30 42 H 7.81613 2.05221 1.53046 0
M  V30 43 H 9.31779 0.232229 0.986244 0
M  V30 44 H 8.39338 -1.93524 0.154622 0
M  V30 45 H 5.95594 -2.18866 -0.100181 0
M  V30 46 H -2.15709 -1.78843 3.68461 0
M  V30 47 H -2.5756 -3.17028 2.63892 0
M  V30 48 H -4.91348 -0.00716005 -1.97758 0
M  V30 49 H -5.61792 1.70559 -1.80808 0
M  V30 50 H -7.47007 0.426224 -1.70129 0
M  V30 51 H -6.65553 -0.985625 -0.925046 0
M  V30 52 H -6.89943 2.6153 -0.278742 0
M  V30 53 H -7.22516 2.31603 1.44591 0
M  V30 54 H -4.85031 2.91881 0.609749 0
M  V30 55 H -4.96591 1.65578 1.85664 0
M  V30 END ATOM
M  V30 BEGIN BOND
M  V30 1 3 1 2
M  V30 2 1 2 3
M  V30 3 2 3 4
M  V30 4 1 4 5
M  V30 5 2 5 6
M  V30 6 1 6 7
M  V30 7 2 7 8
M  V30 8 1 8 9
M  V30 9 1 9 10
M  V30 10 2 10 11
M  V30 11 1 10 12
M  V30 12 1 12 13
M  V30 13 1 13 14
M  V30 14 1 14 15
M  V30 15 2 15 16
M  V30 16 1 16 17
M  V30 17 1 13 18
M  V30 18 1 18 19
M  V30 19 1 19 20
M  V30 20 2 20 21
M  V30 21 1 21 22
M  V30 22 2 22 23
M  V30 23 1 23 24
M  V30 24 2 24 25
M  V30 25 1 6 26
M  V30 26 1 4 27
M  V30 27 1 27 28
M  V30 28 1 28 29
M  V30 29 1 29 30
M  V30 30 1 30 31
M  V30 31 1 31 32
M  V30 32 1 8 3
M  V30 33 2 14 9
M  V30 34 1 25 20
M  V30 35 1 32 27
M  V30 36 1 16 7
M  V30 37 1 12 33
M  V30 38 1 12 34
M  V30 39 1 17 35
M  V30 40 1 17 36
M  V30 41 1 18 37
M  V30 42 1 18 38
M  V30 43 1 19 39
M  V30 44 1 19 40
M  V30 45 1 21 41
M  V30 46 1 22 42
M  V30 47 1 23 43
M  V30 48 1 24 44
M  V30 49 1 25 45
M  V30 50 1 26 46
M  V30 51 1 26 47
M  V30 52 1 28 48
M  V30 53 1 28 49
M  V30 54 1 29 50
M  V30 55 1 29 51
M  V30 56 1 31 52
M  V30 57 1 31 53
M  V30 58 1 32 54
M  V30 59 1 32 55
M  V30 END BOND
M  V30 END CTAB
M  END
