
     RDKit          3D

  0  0  0  0  0  0  0  0  0  0999 V3000
M  V30 BEGIN CTAB
M  V30 COUNTS 33 35 0 0 0
M  V30 BEGIN ATOM
M  V30 1 N 6.31499 -0.0887105 -1.32346 0
M  V30 2 C 5.00329 -0.083911 -0.749724 0
M  V30 3 C 4.89593 -0.150229 0.601452 0
M  V30 4 C 3.62966 -0.147055 1.18409 0
M  V30 5 Cl 3.60278 -0.235599 2.92865 0
M  V30 6 C 2.48177 -0.0809058 0.475228 0
M  V30 7 C 2.63373 -0.0131278 -0.927185 0
M  V30 8 C 3.86818 -0.0143233 -1.53228 0
M  V30 9 C 1.1297 -0.0727821 1.00474 0
M  V30 10 C 0.696425 -0.127465 2.29456 0
M  V30 11 C -0.716492 -0.0912481 2.30585 0
M  V30 12 C -1.04779 -0.0145316 0.974517 0
M  V30 13 O 0.0250742 -0.00571321 0.255774 0
M  V30 14 C -2.45152 0.0457927 0.509751 0
M  V30 15 C -3.48938 0.0266113 1.41284 0
M  V30 16 C -4.80931 0.0808975 1.02371 0
M  V30 17 C -5.07283 0.157 -0.329409 0
M  V30 18 N -6.41746 0.214956 -0.777461 0
M  V30 19 C -4.04219 0.177918 -1.26282 0
M  V30 20 C -2.74275 0.122152 -0.834343 0
M  V30 21 Cl -1.44714 0.148468 -2.00803 0
M  V30 22 H 6.95373 0.732224 -1.23387 0
M  V30 23 H 6.6888 -0.912744 -1.85566 0
M  V30 24 H 5.78482 -0.205212 1.2237 0
M  V30 25 H 1.74102 0.0410702 -1.53233 0
M  V30 26 H 3.9843 0.0374556 -2.60371 0
M  V30 27 H 1.24801 -0.188895 3.21494 0
M  V30 28 H -1.34366 -0.119911 3.18561 0
M  V30 29 H -3.30415 -0.0335419 2.4941 0
M  V30 30 H -5.62617 0.0651503 1.7473 0
M  V30 31 H -7.16873 -0.378405 -0.367836 0
M  V30 32 H -6.67011 0.875567 -1.54691 0
M  V30 33 H -4.33251 0.23905 -2.30978 0
M  V30 END ATOM
M  V30 BEGIN BOND
M  V30 1 1 1 2
M  V30 2 2 2 3
M  V30 3 1 3 4
M  V30 4 1 4 5
M  V30 5 2 4 6
M  V30 6 1 6 7
M  V30 7 2 7 8
M  V30 8 1 6 9
M  V30 9 2 9 10
M  V30 10 1 10 11
M  V30 11 2 11 12
M  V30 12 1 12 13
M  V30 13 1 12 14
M  V30 14 2 14 15
M  V30 15 1 15 16
M  V30 16 2 16 17
M  V30 17 1 17 18
M  V30 18 1 17 19
M  V30 19 2 19 20
M  V30 20 1 20 21
M  V30 21 1 8 2
M  V30 22 1 13 9
M  V30 23 1 20 14
M  V30 24 1 1 22
M  V30 25 1 1 23
M  V30 26 1 3 24
M  V30 27 1 7 25
M  V30 28 1 8 26
M  V30 29 1 10 27
M  V30 30 1 11 28
M  V30 31 1 15 29
M  V30 32 1 16 30
M  V30 33 1 18 31
M  V30 34 1 18 32
M  V30 35 1 19 33
M  V30 END BOND
M  V30 END CTAB
M  END
