
     RDKit          3D

  0  0  0  0  0  0  0  0  0  0999 V3000
M  V30 BEGIN CTAB
M  V30 COUNTS 16 16 0 0 0
M  V30 BEGIN ATOM
M  V30 1 N 2.69892 -0.870521 -0.0836253 0
M  V30 2 C 1.33976 -0.382489 -0.0427686 0
M  V30 3 C 1.0738 0.968162 -0.0487918 0
M  V30 4 C -0.227303 1.44335 -0.00978539 0
M  V30 5 O -0.506506 2.80035 -0.0154342 0
M  V30 6 C -1.25541 0.530555 0.0354233 0
M  V30 7 C -0.988127 -0.836285 0.0415834 0
M  V30 8 N -2.0638 -1.75913 0.0885152 0
M  V30 9 N 0.301339 -1.22016 0.00195389 0
M  V30 10 H 3.08482 -1.33049 -0.918282 0
M  V30 11 H 3.32311 -0.76365 0.745224 0
M  V30 12 H 1.88355 1.67385 -0.0842498 0
M  V30 13 H -1.45279 3.10776 0.0133669 0
M  V30 14 H -2.29784 0.838207 0.0674902 0
M  V30 15 H -1.91663 -2.73146 -0.224895 0
M  V30 16 H -2.99689 -1.46804 0.434275 0
M  V30 END ATOM
M  V30 BEGIN BOND
M  V30 1 1 1 2
M  V30 2 2 2 3
M  V30 3 1 3 4
M  V30 4 1 4 5
M  V30 5 2 4 6
M  V30 6 1 6 7
M  V30 7 1 7 8
M  V30 8 2 7 9
M  V30 9 1 9 2
M  V30 10 1 1 10
M  V30 11 1 1 11
M  V30 12 1 3 12
M  V30 13 1 5 13
M  V30 14 1 6 14
M  V30 15 1 8 15
M  V30 16 1 8 16
M  V30 END BOND
M  V30 END CTAB
M  END
