
     RDKit          3D

  0  0  0  0  0  0  0  0  0  0999 V3000
M  V30 BEGIN CTAB
M  V30 COUNTS 27 28 0 0 0
M  V30 BEGIN ATOM
M  V30 1 N -2.51108 1.91647 -1.4723 0
M  V30 2 C -2.47078 0.990807 -0.413532 0
M  V30 3 N -1.37542 0.291696 -0.12908 0
M  V30 4 C -1.22667 -0.596074 0.833064 0
M  V30 5 C -0.0592556 -1.34811 1.15739 0
M  V30 6 C 1.16965 -1.40078 0.841049 0
M  V30 7 C 2.02651 -0.66112 -0.0533064 0
M  V30 8 C 3.20475 -1.32412 -0.506016 0
M  V30 9 C 4.09433 -0.647967 -1.28551 0
M  V30 10 C 3.89737 0.664545 -1.65683 0
M  V30 11 C 2.77094 1.30373 -1.22431 0
M  V30 12 C 1.85805 0.638714 -0.43345 0
M  V30 13 N -2.36464 -0.786738 1.60553 0
M  V30 14 C -3.49372 -0.12012 1.37531 0
M  V30 15 N -4.67352 -0.303555 2.16009 0
M  V30 16 N -3.55713 0.76621 0.373627 0
M  V30 17 H -2.67092 1.55058 -2.4335 0
M  V30 18 H -2.38712 2.9637 -1.33912 0
M  V30 19 H -0.28537 -2.18784 1.9631 0
M  V30 20 H 1.74406 -2.23671 1.4262 0
M  V30 21 H 3.34696 -2.34779 -0.214615 0
M  V30 22 H 4.9891 -1.18314 -1.6175 0
M  V30 23 H 4.62072 1.17946 -2.27903 0
M  V30 24 H 2.59541 2.36029 -1.51306 0
M  V30 25 H 1.01738 1.22974 -0.0756613 0
M  V30 26 H -4.88097 -1.18703 2.65956 0
M  V30 27 H -5.37864 0.47515 2.2519 0
M  V30 END ATOM
M  V30 BEGIN BOND
M  V30 1 1 1 2
M  V30 2 2 2 3
M  V30 3 1 3 4
M  V30 4 1 4 5
M  V30 5 2 5 6 CFG=2
M  V30 6 1 6 7
M  V30 7 2 7 8
M  V30 8 1 8 9
M  V30 9 2 9 10
M  V30 10 1 10 11
M  V30 11 2 11 12
M  V30 12 2 4 13
M  V30 13 1 13 14
M  V30 14 1 14 15
M  V30 15 2 14 16
M  V30 16 1 16 2
M  V30 17 1 12 7
M  V30 18 1 1 17
M  V30 19 1 1 18
M  V30 20 1 5 19
M  V30 21 1 6 20
M  V30 22 1 8 21
M  V30 23 1 9 22
M  V30 24 1 10 23
M  V30 25 1 11 24
M  V30 26 1 12 25
M  V30 27 1 15 26
M  V30 28 1 15 27
M  V30 END BOND
M  V30 END CTAB
M  END
