
     RDKit          3D

  0  0  0  0  0  0  0  0  0  0999 V3000
M  V30 BEGIN CTAB
M  V30 COUNTS 19 19 0 0 0
M  V30 BEGIN ATOM
M  V30 1 N 3.19707 0.110363 -0.451973 0
M  V30 2 C 1.79468 -0.0426077 -0.261698 0
M  V30 3 C 0.977875 1.0521 -0.0704222 0
M  V30 4 C -0.395373 0.870005 0.113697 0
M  V30 5 N -1.25911 1.98261 0.312899 0
M  V30 6 C -0.962652 -0.380025 0.109909 0
M  V30 7 C -0.150115 -1.46664 -0.0802048 0
M  V30 8 C 1.21029 -1.28876 -0.262774 0
M  V30 9 Br -0.953359 -3.20611 -0.083488 0
M  V30 10 C -2.4133 -0.549041 0.305987 0
M  V30 11 F -2.60659 -1.37438 1.42139 0
M  V30 12 F -3.01139 -1.19582 -0.754854 0
M  V30 13 H 3.53316 0.994648 -0.859319 0
M  V30 14 H 3.89779 -0.619637 -0.20287 0
M  V30 15 H 1.39555 2.0578 -0.0618337 0
M  V30 16 H -2.08591 2.16082 -0.296066 0
M  V30 17 H -1.06695 2.6425 1.08681 0
M  V30 18 H 1.82069 -2.17227 -0.410151 0
M  V30 19 H -2.92236 0.424438 0.444965 0
M  V30 END ATOM
M  V30 BEGIN BOND
M  V30 1 1 1 2
M  V30 2 2 2 3
M  V30 3 1 3 4
M  V30 4 1 4 5
M  V30 5 2 4 6
M  V30 6 1 6 7
M  V30 7 2 7 8
M  V30 8 1 7 9
M  V30 9 1 6 10
M  V30 10 1 10 11
M  V30 11 1 10 12
M  V30 12 1 8 2
M  V30 13 1 1 13
M  V30 14 1 1 14
M  V30 15 1 3 15
M  V30 16 1 5 16
M  V30 17 1 5 17
M  V30 18 1 8 18
M  V30 19 1 10 19
M  V30 END BOND
M  V30 END CTAB
M  END
