
     RDKit          3D

  0  0  0  0  0  0  0  0  0  0999 V3000
M  V30 BEGIN CTAB
M  V30 COUNTS 54 55 0 0 0
M  V30 BEGIN ATOM
M  V30 1 N -5.36336 -2.51228 -2.4258 0
M  V30 2 C -4.93099 -2.67128 -1.03162 0
M  V30 3 C -5.18543 -1.40201 -0.268472 0
M  V30 4 N -4.46145 -0.277846 -0.833445 0
M  V30 5 C -3.03042 -0.416499 -0.64812 0
M  V30 6 C -2.39994 0.996048 -0.616772 0
M  V30 7 N -2.69027 1.53108 0.649342 0
M  V30 8 C -4.1832 1.36442 0.960232 0
M  V30 9 C -4.91693 0.980363 -0.257593 0
M  V30 10 C -2.01765 2.17773 1.67285 0
M  V30 11 O -2.86906 2.40252 2.73932 0
M  V30 12 C -0.7708 2.69771 2.03429 0
M  V30 13 C 0.349502 2.77859 1.40818 0
M  V30 14 N 0.562056 2.31932 0.113981 0
M  V30 15 C 1.48145 1.20808 -0.104853 0
M  V30 16 C 2.90468 1.63814 0.195187 0
M  V30 17 C 3.79759 0.482785 -0.0560705 0
M  V30 18 C 4.3923 0.222 -1.28109 0
M  V30 19 C 5.20044 -0.849166 -1.50299 0
M  V30 20 C 5.45624 -1.72944 -0.483728 0
M  V30 21 C 4.88515 -1.51242 0.761547 0
M  V30 22 C 4.05812 -0.403472 0.962886 0
M  V30 23 S 6.48142 -3.11241 -0.754792 0
M  V30 24 O 6.37076 -3.65446 -2.14544 0
M  V30 25 O 6.14882 -4.19714 0.243228 0
M  V30 26 N 8.13891 -2.67888 -0.493377 0
M  V30 27 C -0.670631 3.29398 3.43461 0
M  V30 28 N -0.622061 3.74147 4.5004 0
M  V30 29 H -5.13602 -1.51198 -2.68126 0
M  V30 30 H -6.41964 -2.59254 -2.42101 0
M  V30 31 H -5.47527 -3.5182 -0.610038 0
M  V30 32 H -3.81968 -2.85627 -1.08679 0
M  V30 33 H -6.25614 -1.15086 -0.358663 0
M  V30 34 H -4.9576 -1.56069 0.793976 0
M  V30 35 H -2.61537 -0.909089 -1.54158 0
M  V30 36 H -2.74525 -0.98808 0.244532 0
M  V30 37 H -1.40842 0.881345 -0.990285 0
M  V30 38 H -3.06034 1.56481 -1.36278 0
M  V30 39 H -4.29702 0.704634 1.81628 0
M  V30 40 H -4.46462 2.43592 1.19105 0
M  V30 41 H -5.98222 0.758038 0.0692771 0
M  V30 42 H -5.03069 1.73392 -1.04139 0
M  V30 43 H 1.25732 3.2398 1.88632 0
M  V30 44 H 0.119173 2.72452 -0.743233 0
M  V30 45 H 1.44946 0.838379 -1.12847 0
M  V30 46 H 1.24935 0.398319 0.63887 0
M  V30 47 H 3.22608 2.46072 -0.458997 0
M  V30 48 H 3.02757 1.90257 1.2795 0
M  V30 49 H 4.20219 0.897981 -2.0822 0
M  V30 50 H 5.63492 -1.01055 -2.45777 0
M  V30 51 H 5.07604 -2.19639 1.57225 0
M  V30 52 H 3.61679 -0.244927 1.94117 0
M  V30 53 H 8.32274 -2.66915 0.530737 0
M  V30 54 H 8.37146 -1.74914 -0.93869 0
M  V30 END ATOM
M  V30 BEGIN BOND
M  V30 1 1 1 2
M  V30 2 1 2 3
M  V30 3 1 3 4
M  V30 4 1 4 5
M  V30 5 1 5 6
M  V30 6 1 6 7
M  V30 7 1 7 8
M  V30 8 1 8 9
M  V30 9 1 7 10
M  V30 10 2 10 11
M  V30 11 1 10 12
M  V30 12 2 12 13
M  V30 13 1 13 14
M  V30 14 1 14 15
M  V30 15 1 15 16
M  V30 16 1 16 17
M  V30 17 2 17 18
M  V30 18 1 18 19
M  V30 19 2 19 20
M  V30 20 1 20 21
M  V30 21 2 21 22
M  V30 22 1 20 23
M  V30 23 2 23 24
M  V30 24 2 23 25
M  V30 25 1 23 26
M  V30 26 1 12 27
M  V30 27 3 27 28
M  V30 28 1 9 4
M  V30 29 1 22 17
M  V30 30 1 1 29
M  V30 31 1 1 30
M  V30 32 1 2 31
M  V30 33 1 2 32
M  V30 34 1 3 33
M  V30 35 1 3 34
M  V30 36 1 5 35
M  V30 37 1 5 36
M  V30 38 1 6 37
M  V30 39 1 6 38
M  V30 40 1 8 39
M  V30 41 1 8 40
M  V30 42 1 9 41
M  V30 43 1 9 42
M  V30 44 1 13 43
M  V30 45 1 14 44
M  V30 46 1 15 45
M  V30 47 1 15 46
M  V30 48 1 16 47
M  V30 49 1 16 48
M  V30 50 1 18 49
M  V30 51 1 19 50
M  V30 52 1 21 51
M  V30 53 1 22 52
M  V30 54 1 26 53
M  V30 55 1 26 54
M  V30 END BOND
M  V30 END CTAB
M  END
