
     RDKit          3D

  0  0  0  0  0  0  0  0  0  0999 V3000
M  V30 BEGIN CTAB
M  V30 COUNTS 35 36 0 0 0
M  V30 BEGIN ATOM
M  V30 1 S 0.635964 1.12122 0.48077 0
M  V30 2 C 0.706095 -0.379097 -0.114922 0
M  V30 3 N 1.95519 -0.976726 -0.375765 0
M  V30 4 C 3.17414 -0.322842 -0.171917 0
M  V30 5 C 3.41418 0.992547 -0.444882 0
M  V30 6 C 4.65836 1.56415 -0.173118 0
M  V30 7 C 5.68871 0.838032 0.374571 0
M  V30 8 C 5.41858 -0.486513 0.63842 0
M  V30 9 C 4.20863 -1.06939 0.381984 0
M  V30 10 Cl 6.68612 -1.494 1.34207 0
M  V30 11 N 6.95847 1.39189 0.659901 0
M  V30 12 N -0.460363 -1.11347 -0.374764 0
M  V30 13 C -1.80899 -0.760899 -0.190143 0
M  V30 14 C -2.73362 -1.36085 -1.03652 0
M  V30 15 C -4.07647 -1.12886 -0.94512 0
M  V30 16 C -4.51958 -0.26359 0.0290419 0
M  V30 17 C -3.62163 0.33307 0.868432 0
M  V30 18 C -2.24464 0.0896211 0.768787 0
M  V30 19 S -6.24099 0.0398373 0.152517 0
M  V30 20 O -6.96023 -1.19536 -0.330144 0
M  V30 21 O -6.67 0.29719 1.56024 0
M  V30 22 N -6.72179 1.37674 -0.827746 0
M  V30 23 H 2.00103 -1.98002 -0.74936 0
M  V30 24 H 2.68969 1.65912 -0.90122 0
M  V30 25 H 4.83513 2.62304 -0.39747 0
M  V30 26 H 4.02629 -2.10775 0.598758 0
M  V30 27 H 7.80476 0.960445 0.185688 0
M  V30 28 H 7.1351 2.18896 1.29712 0
M  V30 29 H -0.263395 -2.10476 -0.777059 0
M  V30 30 H -2.36433 -2.04396 -1.80359 0
M  V30 31 H -4.80055 -1.60574 -1.61633 0
M  V30 32 H -3.97142 1.02097 1.64325 0
M  V30 33 H -1.61652 0.582851 1.47653 0
M  V30 34 H -6.75747 1.09468 -1.84151 0
M  V30 35 H -6.16444 2.21946 -0.662991 0
M  V30 END ATOM
M  V30 BEGIN BOND
M  V30 1 2 1 2
M  V30 2 1 2 3
M  V30 3 1 3 4
M  V30 4 2 4 5
M  V30 5 1 5 6
M  V30 6 2 6 7
M  V30 7 1 7 8
M  V30 8 2 8 9
M  V30 9 1 8 10
M  V30 10 1 7 11
M  V30 11 1 2 12
M  V30 12 1 12 13
M  V30 13 2 13 14
M  V30 14 1 14 15
M  V30 15 2 15 16
M  V30 16 1 16 17
M  V30 17 2 17 18
M  V30 18 1 16 19
M  V30 19 2 19 20
M  V30 20 2 19 21
M  V30 21 1 19 22
M  V30 22 1 9 4
M  V30 23 1 18 13
M  V30 24 1 3 23
M  V30 25 1 5 24
M  V30 26 1 6 25
M  V30 27 1 9 26
M  V30 28 1 11 27
M  V30 29 1 11 28
M  V30 30 1 12 29
M  V30 31 1 14 30
M  V30 32 1 15 31
M  V30 33 1 17 32
M  V30 34 1 18 33
M  V30 35 1 22 34
M  V30 36 1 22 35
M  V30 END BOND
M  V30 END CTAB
M  END
