
     RDKit          3D

  0  0  0  0  0  0  0  0  0  0999 V3000
M  V30 BEGIN CTAB
M  V30 COUNTS 68 69 0 0 0
M  V30 BEGIN ATOM
M  V30 1 N 10.6571 2.28338 0.107539 0
M  V30 2 S 9.72033 1.87705 -1.2831 0
M  V30 3 O 10.2493 0.558297 -1.82818 0
M  V30 4 O 9.81332 2.90878 -2.36504 0
M  V30 5 C 8.05797 1.65097 -0.816073 0
M  V30 6 C 7.53969 0.424283 -0.471363 0
M  V30 7 C 6.20618 0.256108 -0.0933522 0
M  V30 8 C 5.34385 1.31476 -0.047639 0
M  V30 9 N 4.00283 1.26704 0.323998 0
M  V30 10 C 3.23121 0.12463 0.686017 0
M  V30 11 O 3.76194 -0.988896 0.682827 0
M  V30 12 C 1.84124 0.326526 1.04602 0
M  V30 13 N 1.14707 -0.919158 1.37913 0
M  V30 14 C 0.948453 -1.72602 0.235841 0
M  V30 15 C 0.0270516 -1.2304 -0.81332 0
M  V30 16 N -1.35353 -1.11001 -0.485561 0
M  V30 17 C -1.95979 -2.45573 -0.401896 0
M  V30 18 C -2.08687 -3.1251 -1.69647 0
M  V30 19 O -1.83795 -2.44614 -2.86881 0
M  V30 20 O -2.42512 -4.32373 -1.7671 0
M  V30 21 C -1.63244 -0.357741 0.681155 0
M  V30 22 C -3.08055 0.0373987 0.770835 0
M  V30 23 O -3.42677 0.61236 1.86751 0
M  V30 24 N -4.00681 -0.185466 -0.2549 0
M  V30 25 C -5.3831 0.141713 -0.233438 0
M  V30 26 C -6.04931 0.60935 0.85237 0
M  V30 27 C -7.42707 0.899828 0.816037 0
M  V30 28 C -8.15324 0.716892 -0.335649 0
M  V30 29 C -7.47628 0.243399 -1.43107 0
M  V30 30 C -6.13623 -0.0430765 -1.41066 0
M  V30 31 Cl -5.35442 -0.637208 -2.85651 0
M  V30 32 S -9.86907 1.06965 -0.421221 0
M  V30 33 N -10.136 2.71526 -0.893174 0
M  V30 34 O -10.4244 0.876169 0.965216 0
M  V30 35 O -10.4961 0.118781 -1.37188 0
M  V30 36 C 1.61613 -1.44697 2.58829 0
M  V30 37 C 0.919591 -2.60488 3.12985 0
M  V30 38 O 1.46243 -3.25109 4.29945 0
M  V30 39 O -0.120592 -3.16794 2.74151 0
M  V30 40 C 5.86412 2.56692 -0.397255 0
M  V30 41 Cl 4.84149 3.97605 -0.371578 0
M  V30 42 C 7.17555 2.73474 -0.76932 0
M  V30 43 H 11.1641 3.19536 -0.00343397 0
M  V30 44 H 10.0243 2.3485 0.928611 0
M  V30 45 H 8.16638 -0.453255 -0.486244 0
M  V30 46 H 5.89567 -0.725455 0.157231 0
M  V30 47 H 3.46273 2.19833 0.346866 0
M  V30 48 H 1.81753 0.932257 1.99401 0
M  V30 49 H 1.25981 0.924381 0.314573 0
M  V30 50 H 1.95431 -1.95706 -0.256413 0
M  V30 51 H 0.618997 -2.74409 0.574097 0
M  V30 52 H 0.333843 -0.211291 -1.20276 0
M  V30 53 H 0.181175 -1.87654 -1.73271 0
M  V30 54 H -2.91524 -2.40682 0.139109 0
M  V30 55 H -1.2853 -3.03548 0.278426 0
M  V30 56 H -2.11774 -1.46135 -3.00602 0
M  V30 57 H -1.40952 -0.890501 1.61073 0
M  V30 58 H -1.10088 0.648759 0.671726 0
M  V30 59 H -3.68034 -0.620802 -1.17789 0
M  V30 60 H -5.5818 0.782429 1.81044 0
M  V30 61 H -7.93295 1.26948 1.69196 0
M  V30 62 H -8.07953 0.104941 -2.34286 0
M  V30 63 H -10.98 3.04402 -0.374773 0
M  V30 64 H -9.32968 3.29444 -0.564723 0
M  V30 65 H 1.51677 -0.635805 3.399 0
M  V30 66 H 2.71138 -1.71915 2.60652 0
M  V30 67 H 2.1162 -3.99741 4.20077 0
M  V30 68 H 7.59844 3.70135 -1.04501 0
M  V30 END ATOM
M  V30 BEGIN BOND
M  V30 1 1 1 2
M  V30 2 2 2 3
M  V30 3 2 2 4
M  V30 4 1 2 5
M  V30 5 2 5 6
M  V30 6 1 6 7
M  V30 7 2 7 8
M  V30 8 1 8 9
M  V30 9 1 9 10
M  V30 10 2 10 11
M  V30 11 1 10 12
M  V30 12 1 12 13
M  V30 13 1 13 14
M  V30 14 1 14 15
M  V30 15 1 15 16
M  V30 16 1 16 17
M  V30 17 1 17 18
M  V30 18 1 18 19
M  V30 19 2 18 20
M  V30 20 1 16 21
M  V30 21 1 21 22
M  V30 22 2 22 23
M  V30 23 1 22 24
M  V30 24 1 24 25
M  V30 25 2 25 26
M  V30 26 1 26 27
M  V30 27 2 27 28
M  V30 28 1 28 29
M  V30 29 2 29 30
M  V30 30 1 30 31
M  V30 31 1 28 32
M  V30 32 1 32 33
M  V30 33 2 32 34
M  V30 34 2 32 35
M  V30 35 1 13 36
M  V30 36 1 36 37
M  V30 37 1 37 38
M  V30 38 2 37 39
M  V30 39 1 8 40
M  V30 40 1 40 41
M  V30 41 2 40 42
M  V30 42 1 42 5
M  V30 43 1 30 25
M  V30 44 1 1 43
M  V30 45 1 1 44
M  V30 46 1 6 45
M  V30 47 1 7 46
M  V30 48 1 9 47
M  V30 49 1 12 48
M  V30 50 1 12 49
M  V30 51 1 14 50
M  V30 52 1 14 51
M  V30 53 1 15 52
M  V30 54 1 15 53
M  V30 55 1 17 54
M  V30 56 1 17 55
M  V30 57 1 19 56
M  V30 58 1 21 57
M  V30 59 1 21 58
M  V30 60 1 24 59
M  V30 61 1 26 60
M  V30 62 1 27 61
M  V30 63 1 29 62
M  V30 64 1 33 63
M  V30 65 1 33 64
M  V30 66 1 36 65
M  V30 67 1 36 66
M  V30 68 1 38 67
M  V30 69 1 42 68
M  V30 END BOND
M  V30 END CTAB
M  END
