
     RDKit          3D

  0  0  0  0  0  0  0  0  0  0999 V3000
M  V30 BEGIN CTAB
M  V30 COUNTS 36 37 0 0 0
M  V30 BEGIN ATOM
M  V30 1 N 0.263042 -2.65899 0.795891 0
M  V30 2 C -0.824007 -2.11624 0.0370744 0
M  V30 3 C -1.89853 -1.62493 0.965677 0
M  V30 4 C -2.42995 -0.463321 0.2165 0
M  V30 5 O -3.6506 -0.0879476 0.252875 0
M  V30 6 N -1.35703 0.113872 -0.510701 0
M  V30 7 C -0.405159 -0.90874 -0.775886 0
M  V30 8 C 0.986941 -0.578175 -0.437284 0
M  V30 9 C 1.96878 -0.88525 -1.35633 0
M  V30 10 C 3.3013 -0.614015 -1.12474 0
M  V30 11 C 3.6025 -0.0161611 0.0809453 0
M  V30 12 C 2.62513 0.298468 1.0151 0
M  V30 13 C 1.3062 0.0130801 0.749551 0
M  V30 14 N 2.92306 0.909492 2.25002 0
M  V30 15 C -1.31253 1.50716 -0.888043 0
M  V30 16 C -2.44436 1.86681 -1.83462 0
M  V30 17 C -1.39104 2.46246 0.270221 0
M  V30 18 H 0.273757 -2.23604 1.7713 0
M  V30 19 H 0.0867627 -3.66933 0.943829 0
M  V30 20 H -1.25962 -2.92235 -0.586788 0
M  V30 21 H -1.43327 -1.24248 1.8966 0
M  V30 22 H -2.68011 -2.38798 1.17683 0
M  V30 23 H -0.449454 -1.22976 -1.8356 0
M  V30 24 H 1.72389 -1.36097 -2.31434 0
M  V30 25 H 4.09606 -0.840813 -1.82187 0
M  V30 26 H 4.62374 0.213435 0.305063 0
M  V30 27 H 0.518513 0.235118 1.43656 0
M  V30 28 H 2.64038 1.88147 2.41022 0
M  V30 29 H 3.41693 0.384229 2.97693 0
M  V30 30 H -0.380714 1.75978 -1.45122 0
M  V30 31 H -2.7083 1.04974 -2.51803 0
M  V30 32 H -2.16259 2.7364 -2.48526 0
M  V30 33 H -3.3646 2.16536 -1.29815 0
M  V30 34 H -1.07052 2.01559 1.23861 0
M  V30 35 H -0.717891 3.32795 0.103173 0
M  V30 36 H -2.4167 2.90307 0.345896 0
M  V30 END ATOM
M  V30 BEGIN BOND
M  V30 1 1 1 2
M  V30 2 1 2 3
M  V30 3 1 3 4
M  V30 4 2 4 5
M  V30 5 1 4 6
M  V30 6 1 6 7
M  V30 7 1 7 8
M  V30 8 2 8 9
M  V30 9 1 9 10
M  V30 10 2 10 11
M  V30 11 1 11 12
M  V30 12 2 12 13
M  V30 13 1 12 14
M  V30 14 1 6 15
M  V30 15 1 15 16
M  V30 16 1 15 17
M  V30 17 1 7 2
M  V30 18 1 13 8
M  V30 19 1 1 18
M  V30 20 1 1 19
M  V30 21 1 2 20
M  V30 22 1 3 21
M  V30 23 1 3 22
M  V30 24 1 7 23
M  V30 25 1 9 24
M  V30 26 1 10 25
M  V30 27 1 11 26
M  V30 28 1 13 27
M  V30 29 1 14 28
M  V30 30 1 14 29
M  V30 31 1 15 30
M  V30 32 1 16 31
M  V30 33 1 16 32
M  V30 34 1 16 33
M  V30 35 1 17 34
M  V30 36 1 17 35
M  V30 37 1 17 36
M  V30 END BOND
M  V30 END CTAB
M  END
