
     RDKit          3D

  0  0  0  0  0  0  0  0  0  0999 V3000
M  V30 BEGIN CTAB
M  V30 COUNTS 48 51 0 0 0
M  V30 BEGIN ATOM
M  V30 1 C -8.33655 0.0761143 -0.483196 0
M  V30 2 C -7.10489 -0.719983 -0.728634 0
M  V30 3 N -7.09514 -2.03832 -0.523934 0
M  V30 4 C -5.98551 -2.79104 -0.739459 0
M  V30 5 C -4.81046 -2.18135 -1.18926 0
M  V30 6 C -4.78554 -0.820204 -1.41113 0
M  V30 7 O -3.61121 -0.230548 -1.85756 0
M  V30 8 C -2.63254 0.267675 -1.0219 0
M  V30 9 C -2.59584 1.55415 -0.56188 0
M  V30 10 C -1.60003 2.00539 0.268903 0
M  V30 11 C -0.559865 1.16631 0.69351 0
M  V30 12 N 0.398616 1.69577 1.5727 0
M  V30 13 C 1.76968 1.48539 1.62931 0
M  V30 14 N 2.47583 2.02172 2.64007 0
M  V30 15 C 3.80637 1.90554 2.77313 0
M  V30 16 N 4.48773 2.49753 3.86547 0
M  V30 17 N 4.47444 1.19912 1.82109 0
M  V30 18 C 3.83894 0.63434 0.781519 0
M  V30 19 C 2.47263 0.778465 0.682908 0
M  V30 20 C 4.57213 -0.114324 -0.221256 0
M  V30 21 C 5.96494 -0.247878 -0.102985 0
M  V30 22 C 6.7276 -0.941065 -1.01107 0
M  V30 23 C 6.0985 -1.52749 -2.07921 0
M  V30 24 N 6.79695 -2.26774 -3.07626 0
M  V30 25 N 4.76606 -1.4181 -2.22119 0
M  V30 26 C 4.01904 -0.727157 -1.31293 0
M  V30 27 C -0.608081 -0.125237 0.225316 0
M  V30 28 C -1.62452 -0.577421 -0.620466 0
M  V30 29 C -5.94761 -0.11733 -1.17197 0
M  V30 30 H -9.1842 -0.573736 -0.270131 0
M  V30 31 H -8.54627 0.608554 -1.45537 0
M  V30 32 H -8.09881 0.812178 0.304859 0
M  V30 33 H -5.99585 -3.85874 -0.568187 0
M  V30 34 H -3.94526 -2.78062 -1.35536 0
M  V30 35 H -3.38529 2.22921 -0.871241 0
M  V30 36 H -1.58291 3.04588 0.632403 0
M  V30 37 H -0.0264254 2.36462 2.3085 0
M  V30 38 H 4.83056 1.90702 4.64548 0
M  V30 39 H 4.64486 3.52037 3.88751 0
M  V30 40 H 1.97491 0.343356 -0.160037 0
M  V30 41 H 6.41617 0.237703 0.765082 0
M  V30 42 H 7.80331 -1.03319 -0.902435 0
M  V30 43 H 7.67438 -2.74456 -2.81359 0
M  V30 44 H 6.43401 -2.32611 -4.03971 0
M  V30 45 H 2.96065 -0.684782 -1.4951 0
M  V30 46 H 0.172048 -0.829659 0.549709 0
M  V30 47 H -1.59299 -1.61809 -0.950826 0
M  V30 48 H -5.92456 0.938249 -1.34516 0
M  V30 END ATOM
M  V30 BEGIN BOND
M  V30 1 1 1 2
M  V30 2 2 2 3
M  V30 3 1 3 4
M  V30 4 2 4 5
M  V30 5 1 5 6
M  V30 6 1 6 7
M  V30 7 1 7 8
M  V30 8 2 8 9
M  V30 9 1 9 10
M  V30 10 2 10 11
M  V30 11 1 11 12
M  V30 12 1 12 13
M  V30 13 2 13 14
M  V30 14 1 14 15
M  V30 15 1 15 16
M  V30 16 2 15 17
M  V30 17 1 17 18
M  V30 18 2 18 19
M  V30 19 1 18 20
M  V30 20 2 20 21
M  V30 21 1 21 22
M  V30 22 2 22 23
M  V30 23 1 23 24
M  V30 24 1 23 25
M  V30 25 2 25 26
M  V30 26 1 11 27
M  V30 27 2 27 28
M  V30 28 2 6 29
M  V30 29 1 29 2
M  V30 30 1 28 8
M  V30 31 1 19 13
M  V30 32 1 26 20
M  V30 33 1 1 30
M  V30 34 1 1 31
M  V30 35 1 1 32
M  V30 36 1 4 33
M  V30 37 1 5 34
M  V30 38 1 9 35
M  V30 39 1 10 36
M  V30 40 1 12 37
M  V30 41 1 16 38
M  V30 42 1 16 39
M  V30 43 1 19 40
M  V30 44 1 21 41
M  V30 45 1 22 42
M  V30 46 1 24 43
M  V30 47 1 24 44
M  V30 48 1 26 45
M  V30 49 1 27 46
M  V30 50 1 28 47
M  V30 51 1 29 48
M  V30 END BOND
M  V30 END CTAB
M  END
