
     RDKit          3D

  0  0  0  0  0  0  0  0  0  0999 V3000
M  V30 BEGIN CTAB
M  V30 COUNTS 26 25 0 0 0
M  V30 BEGIN ATOM
M  V30 1 N 3.53341 -0.269077 1.749 0
M  V30 2 C 2.57074 -0.153884 0.665882 0
M  V30 3 C 1.17231 -0.0771236 1.22351 0
M  V30 4 C 0.182088 0.0417832 0.100701 0
M  V30 5 N -1.17297 0.121343 0.520169 0
M  V30 6 S -2.03754 1.4738 -0.0055496 0
M  V30 7 O -1.22798 2.72155 -0.121868 0
M  V30 8 O -3.13468 1.75824 1.01278 0
M  V30 9 N -2.83992 1.22875 -1.52342 0
M  V30 10 C -1.93517 -1.06792 0.248659 0
M  V30 11 C 0.38642 -1.17765 -0.77598 0
M  V30 12 H 4.34438 0.317408 1.53125 0
M  V30 13 H 3.06709 0.132755 2.59871 0
M  V30 14 H 2.68235 -1.07068 0.0476977 0
M  V30 15 H 2.82515 0.704558 0.0116255 0
M  V30 16 H 0.983745 -1.03311 1.75644 0
M  V30 17 H 1.11545 0.72393 1.9633 0
M  V30 18 H 0.470955 0.923363 -0.536346 0
M  V30 19 H -2.19004 1.48683 -2.29866 0
M  V30 20 H -3.62161 1.93717 -1.56286 0
M  V30 21 H -2.37092 -1.107 -0.755223 0
M  V30 22 H -2.81041 -1.11907 0.961399 0
M  V30 23 H -1.3683 -2.0075 0.441538 0
M  V30 24 H 1.27464 -1.07064 -1.43596 0
M  V30 25 H -0.477796 -1.32978 -1.48133 0
M  V30 26 H 0.578593 -2.08804 -0.162495 0
M  V30 END ATOM
M  V30 BEGIN BOND
M  V30 1 1 1 2
M  V30 2 1 2 3
M  V30 3 1 3 4
M  V30 4 1 4 5
M  V30 5 1 5 6
M  V30 6 2 6 7
M  V30 7 2 6 8
M  V30 8 1 6 9
M  V30 9 1 5 10
M  V30 10 1 4 11
M  V30 11 1 1 12
M  V30 12 1 1 13
M  V30 13 1 2 14
M  V30 14 1 2 15
M  V30 15 1 3 16
M  V30 16 1 3 17
M  V30 17 1 4 18
M  V30 18 1 9 19
M  V30 19 1 9 20
M  V30 20 1 10 21
M  V30 21 1 10 22
M  V30 22 1 10 23
M  V30 23 1 11 24
M  V30 24 1 11 25
M  V30 25 1 11 26
M  V30 END BOND
M  V30 END CTAB
M  END
