
     RDKit          3D

  0  0  0  0  0  0  0  0  0  0999 V3000
M  V30 BEGIN CTAB
M  V30 COUNTS 31 32 0 0 0
M  V30 BEGIN ATOM
M  V30 1 N 5.60564 -0.602846 0.0127783 0
M  V30 2 N 4.25828 -0.937741 -0.0871236 0
M  V30 3 C 3.23252 0.0118107 0.0764138 0
M  V30 4 O 3.56271 1.19651 0.320224 0
M  V30 5 C 1.82403 -0.312292 -0.0228472 0
M  V30 6 C 1.33839 -1.58362 -0.287815 0
M  V30 7 N 0.0460399 -1.88874 -0.380463 0
M  V30 8 C -0.870831 -0.927491 -0.211854 0
M  V30 9 C -0.459203 0.361032 0.0547037 0
M  V30 10 C 0.871535 0.684074 0.151868 0
M  V30 11 N 1.32715 2.00407 0.425807 0
M  V30 12 C -1.37036 1.38878 0.236675 0
M  V30 13 C -2.71146 1.11573 0.149196 0
M  V30 14 C -3.1426 -0.170549 -0.117389 0
M  V30 15 C -2.23112 -1.18013 -0.29574 0
M  V30 16 C -2.65927 -2.56741 -0.582308 0
M  V30 17 C -3.7114 2.20581 0.341401 0
M  V30 18 H 5.80679 0.240872 -0.552335 0
M  V30 19 H 5.77907 -0.373458 1.02647 0
M  V30 20 H 4.00612 -1.92221 -0.289166 0
M  V30 21 H 2.06275 -2.39382 -0.431146 0
M  V30 22 H 1.50927 2.3491 1.39384 0
M  V30 23 H 1.50195 2.69687 -0.345221 0
M  V30 24 H -1.02388 2.38234 0.442923 0
M  V30 25 H -4.20935 -0.410178 -0.191422 0
M  V30 26 H -2.93016 -2.66246 -1.64715 0
M  V30 27 H -1.88495 -3.31097 -0.277378 0
M  V30 28 H -3.56956 -2.80514 0.00492243 0
M  V30 29 H -3.21257 3.19391 0.276618 0
M  V30 30 H -4.27089 2.08117 1.28389 0
M  V30 31 H -4.47462 2.13699 -0.478372 0
M  V30 END ATOM
M  V30 BEGIN BOND
M  V30 1 1 1 2
M  V30 2 1 2 3
M  V30 3 2 3 4
M  V30 4 1 3 5
M  V30 5 2 5 6
M  V30 6 1 6 7
M  V30 7 2 7 8
M  V30 8 1 8 9
M  V30 9 2 9 10
M  V30 10 1 10 11
M  V30 11 1 9 12
M  V30 12 2 12 13
M  V30 13 1 13 14
M  V30 14 2 14 15
M  V30 15 1 15 16
M  V30 16 1 13 17
M  V30 17 1 10 5
M  V30 18 1 15 8
M  V30 19 1 1 18
M  V30 20 1 1 19
M  V30 21 1 2 20
M  V30 22 1 6 21
M  V30 23 1 11 22
M  V30 24 1 11 23
M  V30 25 1 12 24
M  V30 26 1 14 25
M  V30 27 1 16 26
M  V30 28 1 16 27
M  V30 29 1 16 28
M  V30 30 1 17 29
M  V30 31 1 17 30
M  V30 32 1 17 31
M  V30 END BOND
M  V30 END CTAB
M  END
