
     RDKit          3D

  0  0  0  0  0  0  0  0  0  0999 V3000
M  V30 BEGIN CTAB
M  V30 COUNTS 48 50 0 0 0
M  V30 BEGIN ATOM
M  V30 1 N -7.75542 0.640446 -0.701802 0
M  V30 2 C -6.55016 0.358525 -0.0034744 0
M  V30 3 C -6.58832 -0.293458 1.22177 0
M  V30 4 C -5.43193 -0.570549 1.90374 0
M  V30 5 C -4.22281 -0.196098 1.36388 0
M  V30 6 C -4.13607 0.452668 0.151092 0
M  V30 7 O -2.93309 0.83026 -0.395642 0
M  V30 8 C -1.75183 0.532184 0.327608 0
M  V30 9 C -0.519298 1.00674 -0.40466 0
M  V30 10 N 0.709516 0.748287 0.251909 0
M  V30 11 C 1.07849 -0.641006 0.341789 0
M  V30 12 C 1.41559 -1.31343 -0.922443 0
M  V30 13 C 2.58788 -0.825046 -1.66212 0
M  V30 14 C 3.90434 -0.965677 -1.02379 0
M  V30 15 C 4.71955 -2.11504 -1.1611 0
M  V30 16 N 5.81491 -2.00022 -0.44435 0
M  V30 17 C 5.80129 -0.798859 0.19855 0
M  V30 18 C 4.61444 -0.174271 -0.171682 0
M  V30 19 C 4.40292 1.09481 0.357144 0
M  V30 20 C 5.31678 1.68422 1.19704 0
M  V30 21 C 6.48323 1.05213 1.55545 0
M  V30 22 C 6.7068 -0.198443 1.04079 0
M  V30 23 C -5.31539 0.715242 -0.506715 0
M  V30 24 N -5.25322 1.37639 -1.74151 0
M  V30 25 H -7.84646 0.186255 -1.65275 0
M  V30 26 H -8.52676 1.24452 -0.348014 0
M  V30 27 H -7.55399 -0.573275 1.61713 0
M  V30 28 H -5.47838 -1.07227 2.84159 0
M  V30 29 H -3.27453 -0.398106 1.874 0
M  V30 30 H -1.733 -0.571183 0.442255 0
M  V30 31 H -1.86301 0.96699 1.32517 0
M  V30 32 H -0.587346 2.10695 -0.597898 0
M  V30 33 H -0.498548 0.53456 -1.40104 0
M  V30 34 H 0.792995 1.15263 1.20737 0
M  V30 35 H 0.294928 -1.2309 0.912392 0
M  V30 36 H 1.96307 -0.696694 1.02401 0
M  V30 37 H 0.543628 -1.36412 -1.63964 0
M  V30 38 H 1.60196 -2.40904 -0.651714 0
M  V30 39 H 2.48661 0.283973 -1.87739 0
M  V30 40 H 2.60782 -1.26571 -2.70555 0
M  V30 41 H 4.41861 -2.93666 -1.78905 0
M  V30 42 H 6.60035 -2.68784 -0.348056 0
M  V30 43 H 3.49729 1.57057 0.0502578 0
M  V30 44 H 5.13029 2.67417 1.59245 0
M  V30 45 H 7.2074 1.54077 2.22988 0
M  V30 46 H 7.61244 -0.7317 1.29465 0
M  V30 47 H -4.40521 1.38379 -2.35029 0
M  V30 48 H -6.08835 1.89251 -2.08329 0
M  V30 END ATOM
M  V30 BEGIN BOND
M  V30 1 1 1 2
M  V30 2 2 2 3
M  V30 3 1 3 4
M  V30 4 2 4 5
M  V30 5 1 5 6
M  V30 6 1 6 7
M  V30 7 1 7 8
M  V30 8 1 8 9
M  V30 9 1 9 10
M  V30 10 1 10 11
M  V30 11 1 11 12
M  V30 12 1 12 13
M  V30 13 1 13 14
M  V30 14 2 14 15
M  V30 15 1 15 16
M  V30 16 1 16 17
M  V30 17 2 17 18
M  V30 18 1 18 19
M  V30 19 2 19 20
M  V30 20 1 20 21
M  V30 21 2 21 22
M  V30 22 2 6 23
M  V30 23 1 23 24
M  V30 24 1 23 2
M  V30 25 1 18 14
M  V30 26 1 22 17
M  V30 27 1 1 25
M  V30 28 1 1 26
M  V30 29 1 3 27
M  V30 30 1 4 28
M  V30 31 1 5 29
M  V30 32 1 8 30
M  V30 33 1 8 31
M  V30 34 1 9 32
M  V30 35 1 9 33
M  V30 36 1 10 34
M  V30 37 1 11 35
M  V30 38 1 11 36
M  V30 39 1 12 37
M  V30 40 1 12 38
M  V30 41 1 13 39
M  V30 42 1 13 40
M  V30 43 1 15 41
M  V30 44 1 16 42
M  V30 45 1 19 43
M  V30 46 1 20 44
M  V30 47 1 21 45
M  V30 48 1 22 46
M  V30 49 1 24 47
M  V30 50 1 24 48
M  V30 END BOND
M  V30 END CTAB
M  END
