
     RDKit          3D

  0  0  0  0  0  0  0  0  0  0999 V3000
M  V30 BEGIN CTAB
M  V30 COUNTS 25 24 0 0 0
M  V30 BEGIN ATOM
M  V30 1 C -2.7592 0.477077 1.2387 0
M  V30 2 C -1.93713 0.465576 -0.0454776 0
M  V30 3 N -2.73809 -0.00879003 -1.10342 0
M  V30 4 P -0.447562 -0.522843 0.253516 0
M  V30 5 O -0.823924 -2.17683 0.16434 0
M  V30 6 O 0.0477126 -0.245826 1.64255 0
M  V30 7 C 0.764253 -0.0872659 -1.01227 0
M  V30 8 C 2.17704 -0.123066 -0.478024 0
M  V30 9 N 2.54501 -1.41869 0.0120864 0
M  V30 10 C 2.34912 0.938333 0.546816 0
M  V30 11 O 2.01386 2.2417 0.159797 0
M  V30 12 O 2.76244 0.747831 1.7002 0
M  V30 13 H -2.09358 0.79881 2.05717 0
M  V30 14 H -3.64877 1.10564 1.10225 0
M  V30 15 H -3.02815 -0.581059 1.43623 0
M  V30 16 H -1.6054 1.50046 -0.273779 0
M  V30 17 H -2.2941 -0.54406 -1.84157 0
M  V30 18 H -3.72445 -0.20245 -0.900975 0
M  V30 19 H -0.612901 -2.56308 -0.71825 0
M  V30 20 H 0.668335 -0.78052 -1.86819 0
M  V30 21 H 0.586779 0.947906 -1.38677 0
M  V30 22 H 2.83763 0.169085 -1.33534 0
M  V30 23 H 2.73553 -1.35106 1.03928 0
M  V30 24 H 3.45992 -1.69869 -0.42059 0
M  V30 25 H 2.76562 2.91183 0.031724 0
M  V30 END ATOM
M  V30 BEGIN BOND
M  V30 1 1 1 2
M  V30 2 1 2 3
M  V30 3 1 2 4
M  V30 4 1 4 5
M  V30 5 2 4 6
M  V30 6 1 4 7
M  V30 7 1 7 8
M  V30 8 1 8 9
M  V30 9 1 8 10
M  V30 10 1 10 11
M  V30 11 2 10 12
M  V30 12 1 1 13
M  V30 13 1 1 14
M  V30 14 1 1 15
M  V30 15 1 2 16
M  V30 16 1 3 17
M  V30 17 1 3 18
M  V30 18 1 5 19
M  V30 19 1 7 20
M  V30 20 1 7 21
M  V30 21 1 8 22
M  V30 22 1 9 23
M  V30 23 1 9 24
M  V30 24 1 11 25
M  V30 END BOND
M  V30 END CTAB
M  END
