
     RDKit          3D

  0  0  0  0  0  0  0  0  0  0999 V3000
M  V30 BEGIN CTAB
M  V30 COUNTS 48 51 0 0 0
M  V30 BEGIN ATOM
M  V30 1 C -8.49351 2.95996 0.272357 0
M  V30 2 O -8.31732 1.65625 -0.204511 0
M  V30 3 C -7.14764 0.911296 -0.103121 0
M  V30 4 C -5.99356 1.34237 0.477835 0
M  V30 5 C -4.87375 0.516326 0.529493 0
M  V30 6 C -4.85683 -0.74781 0.0145948 0
M  V30 7 C -6.05518 -1.18268 -0.583157 0
M  V30 8 C -7.16776 -0.377196 -0.640513 0
M  V30 9 C -3.76154 -1.66757 -0.0127091 0
M  V30 10 O -4.03984 -2.90633 -0.0159961 0
M  V30 11 C -2.35536 -1.229 -0.041469 0
M  V30 12 S -1.7806 0.356646 -0.122286 0
M  V30 13 C -0.105943 -0.0259132 -0.162855 0
M  V30 14 C -0.0205392 -1.3814 -0.112482 0
M  V30 15 C -1.24833 -2.02302 -0.0463195 0
M  V30 16 N -1.47556 -3.4738 0.0219504 0
M  V30 17 C 1.27775 -1.88356 -0.137244 0
M  V30 18 C 2.27244 -0.967283 -0.207201 0
M  V30 19 S 1.52059 0.543641 -0.240659 0
M  V30 20 C 3.70714 -1.14637 -0.208916 0
M  V30 21 O 4.15315 -2.34982 -0.0905841 0
M  V30 22 C 4.69929 -0.0914496 -0.327278 0
M  V30 23 C 4.52385 1.10886 -0.966664 0
M  V30 24 C 5.55276 2.04771 -0.990655 0
M  V30 25 C 6.77686 1.84766 -0.39576 0
M  V30 26 C 6.93916 0.638902 0.242369 0
M  V30 27 C 5.95365 -0.298653 0.28302 0
M  V30 28 O 7.77977 2.80137 -0.437317 0
M  V30 29 C 9.01961 2.53283 0.193213 0
M  V30 30 N 1.69158 -3.28246 -0.100565 0
M  V30 31 H -8.15597 3.0762 1.30583 0
M  V30 32 H -9.5792 3.20839 0.196596 0
M  V30 33 H -7.95514 3.67368 -0.404343 0
M  V30 34 H -5.97395 2.33126 0.895995 0
M  V30 35 H -4.00631 0.925254 1.02228 0
M  V30 36 H -6.08098 -2.18998 -1.00704 0
M  V30 37 H -8.05912 -0.769744 -1.1139 0
M  V30 38 H -1.1416 -3.92178 0.903571 0
M  V30 39 H -1.93459 -3.96113 -0.770321 0
M  V30 40 H 3.59796 1.3385 -1.47663 0
M  V30 41 H 5.40206 2.99376 -1.49768 0
M  V30 42 H 7.91064 0.44838 0.726766 0
M  V30 43 H 6.09491 -1.23074 0.780538 0
M  V30 44 H 8.90659 2.15288 1.22581 0
M  V30 45 H 9.52948 1.77392 -0.470963 0
M  V30 46 H 9.64236 3.47024 0.234743 0
M  V30 47 H 1.41436 -3.85139 -0.930674 0
M  V30 48 H 2.21417 -3.6972 0.671451 0
M  V30 END ATOM
M  V30 BEGIN BOND
M  V30 1 1 1 2
M  V30 2 1 2 3
M  V30 3 2 3 4
M  V30 4 1 4 5
M  V30 5 2 5 6
M  V30 6 1 6 7
M  V30 7 2 7 8
M  V30 8 1 6 9
M  V30 9 2 9 10
M  V30 10 1 9 11
M  V30 11 1 11 12
M  V30 12 1 12 13
M  V30 13 2 13 14
M  V30 14 1 14 15
M  V30 15 1 15 16
M  V30 16 1 14 17
M  V30 17 2 17 18
M  V30 18 1 18 19
M  V30 19 1 18 20
M  V30 20 2 20 21
M  V30 21 1 20 22
M  V30 22 2 22 23
M  V30 23 1 23 24
M  V30 24 2 24 25
M  V30 25 1 25 26
M  V30 26 2 26 27
M  V30 27 1 25 28
M  V30 28 1 28 29
M  V30 29 1 17 30
M  V30 30 1 8 3
M  V30 31 2 15 11
M  V30 32 1 27 22
M  V30 33 1 19 13
M  V30 34 1 1 31
M  V30 35 1 1 32
M  V30 36 1 1 33
M  V30 37 1 4 34
M  V30 38 1 5 35
M  V30 39 1 7 36
M  V30 40 1 8 37
M  V30 41 1 16 38
M  V30 42 1 16 39
M  V30 43 1 23 40
M  V30 44 1 24 41
M  V30 45 1 26 42
M  V30 46 1 27 43
M  V30 47 1 29 44
M  V30 48 1 29 45
M  V30 49 1 29 46
M  V30 50 1 30 47
M  V30 51 1 30 48
M  V30 END BOND
M  V30 END CTAB
M  END
