
     RDKit          3D

  0  0  0  0  0  0  0  0  0  0999 V3000
M  V30 BEGIN CTAB
M  V30 COUNTS 35 36 0 0 0
M  V30 BEGIN ATOM
M  V30 1 C -5.09348 0.726554 -0.87829 0
M  V30 2 C -4.94434 -0.604409 -0.203016 0
M  V30 3 O -3.69008 -1.1591 -0.461021 0
M  V30 4 C -2.47736 -0.584619 -0.127827 0
M  V30 5 N -2.3394 0.595905 0.495023 0
M  V30 6 C -1.12317 1.11448 0.798975 0
M  V30 7 N -0.998924 2.37067 1.46115 0
M  V30 8 C 0.00681405 0.422333 0.465593 0
M  V30 9 C -0.0970973 -0.794408 -0.175358 0
M  V30 10 C -1.33687 -1.27906 -0.462131 0
M  V30 11 C 1.05491 -1.51454 -0.52285 0
M  V30 12 C 0.915392 -2.77832 -1.18943 0
M  V30 13 N 0.821223 -3.81124 -1.73905 0
M  V30 14 C 2.29947 -0.999377 -0.219963 0
M  V30 15 N 2.36148 0.189228 0.405128 0
M  V30 16 C 1.28787 0.906283 0.753068 0
M  V30 17 N 1.39793 2.17047 1.41906 0
M  V30 18 O 3.43198 -1.72197 -0.569263 0
M  V30 19 C 4.7429 -1.28004 -0.303068 0
M  V30 20 C 4.99681 0.0263823 -0.982665 0
M  V30 21 H -4.12891 1.10723 -1.30963 0
M  V30 22 H -5.54569 1.46118 -0.177642 0
M  V30 23 H -5.78934 0.674795 -1.75188 0
M  V30 24 H -5.19701 -0.572352 0.876806 0
M  V30 25 H -5.70498 -1.29526 -0.659161 0
M  V30 26 H -0.998792 2.40803 2.51962 0
M  V30 27 H -0.906256 3.27316 0.946812 0
M  V30 28 H -1.40205 -2.24193 -0.968921 0
M  V30 29 H 1.48409 3.0603 0.893852 0
M  V30 30 H 1.38517 2.13185 2.47142 0
M  V30 31 H 4.79074 -1.09248 0.800101 0
M  V30 32 H 5.50966 -2.00928 -0.543998 0
M  V30 33 H 4.08913 0.380647 -1.53015 0
M  V30 34 H 5.34872 0.818186 -0.258714 0
M  V30 35 H 5.84944 -0.0993205 -1.69284 0
M  V30 END ATOM
M  V30 BEGIN BOND
M  V30 1 1 1 2
M  V30 2 1 2 3
M  V30 3 1 3 4
M  V30 4 2 4 5
M  V30 5 1 5 6
M  V30 6 1 6 7
M  V30 7 2 6 8
M  V30 8 1 8 9
M  V30 9 2 9 10
M  V30 10 1 9 11
M  V30 11 1 11 12
M  V30 12 3 12 13
M  V30 13 2 11 14
M  V30 14 1 14 15
M  V30 15 2 15 16
M  V30 16 1 16 17
M  V30 17 1 14 18
M  V30 18 1 18 19
M  V30 19 1 19 20
M  V30 20 1 10 4
M  V30 21 1 16 8
M  V30 22 1 1 21
M  V30 23 1 1 22
M  V30 24 1 1 23
M  V30 25 1 2 24
M  V30 26 1 2 25
M  V30 27 1 7 26
M  V30 28 1 7 27
M  V30 29 1 10 28
M  V30 30 1 17 29
M  V30 31 1 17 30
M  V30 32 1 19 31
M  V30 33 1 19 32
M  V30 34 1 20 33
M  V30 35 1 20 34
M  V30 36 1 20 35
M  V30 END BOND
M  V30 END CTAB
M  END
