
     RDKit          3D

  0  0  0  0  0  0  0  0  0  0999 V3000
M  V30 BEGIN CTAB
M  V30 COUNTS 19 19 0 0 0
M  V30 BEGIN ATOM
M  V30 1 N -3.03258 1.38595 0.553472 0
M  V30 2 N -2.48316 0.218307 0.542888 0
M  V30 3 C -1.90436 -1.01194 0.531769 0
M  V30 4 O -2.43786 -2.07125 0.912835 0
M  V30 5 C -0.494695 -1.11669 0.0194904 0
M  V30 6 C 0.104343 -2.33225 -0.176127 0
M  V30 7 S 1.67693 -1.84376 -0.70725 0
M  V30 8 C 1.45631 -0.160886 -0.640754 0
M  V30 9 N 0.21305 -0.0625314 -0.224242 0
M  V30 10 C 2.34301 0.988883 -0.944005 0
M  V30 11 N 3.34959 1.1854 0.112485 0
M  V30 12 H -2.36985 2.23022 0.539621 0
M  V30 13 H -3.85241 1.57681 -0.0869336 0
M  V30 14 H -3.6342 -0.257561 1.16633 0
M  V30 15 H -0.301928 -3.3392 -0.0371553 0
M  V30 16 H 2.84484 0.84902 -1.89476 0
M  V30 17 H 1.73113 1.93783 -0.929472 0
M  V30 18 H 2.89441 1.51978 0.967435 0
M  V30 19 H 3.89744 0.303863 0.294372 0
M  V30 END ATOM
M  V30 BEGIN BOND
M  V30 1 1 1 2
M  V30 2 1 2 3
M  V30 3 2 3 4
M  V30 4 1 3 5
M  V30 5 2 5 6
M  V30 6 1 6 7
M  V30 7 1 7 8
M  V30 8 2 8 9
M  V30 9 1 8 10
M  V30 10 1 10 11
M  V30 11 1 9 5
M  V30 12 1 1 12
M  V30 13 1 1 13
M  V30 14 1 2 14
M  V30 15 1 6 15
M  V30 16 1 10 16
M  V30 17 1 10 17
M  V30 18 1 11 18
M  V30 19 1 11 19
M  V30 END BOND
M  V30 END CTAB
M  END
