
     RDKit          3D

  0  0  0  0  0  0  0  0  0  0999 V3000
M  V30 BEGIN CTAB
M  V30 COUNTS 44 44 0 0 0
M  V30 BEGIN ATOM
M  V30 1 C -2.55696 -1.67968 2.02245 0
M  V30 2 C -3.55509 -1.75852 0.904892 0
M  V30 3 C -4.43999 -0.569774 0.811343 0
M  V30 4 C -3.85702 0.752365 0.614395 0
M  V30 5 C -3.05924 1.12511 -0.548266 0
M  V30 6 N -1.85591 0.365806 -0.73733 0
M  V30 7 C -0.591494 0.991559 -0.425779 0
M  V30 8 O -0.574228 2.17937 0.00106668 0
M  V30 9 C 0.683413 0.251262 -0.603021 0
M  V30 10 C 1.82632 1.13061 -0.209079 0
M  V30 11 N 3.11356 0.484763 -0.351439 0
M  V30 12 N 3.79825 0.556103 -1.47549 0
M  V30 13 C 4.939 -0.106223 -1.3742 0
M  V30 14 C 4.98611 -0.631753 -0.111125 0
M  V30 15 C 3.81992 -0.236884 0.498516 0
M  V30 16 S 6.29097 -1.60252 0.543389 0
M  V30 17 O 6.93152 -2.36573 -0.571834 0
M  V30 18 O 5.72074 -2.5483 1.56556 0
M  V30 19 N 7.44125 -0.560548 1.28509 0
M  V30 20 C -3.8052 1.23468 -1.85367 0
M  V30 21 N -2.88395 1.61041 -2.91054 0
M  V30 22 H -2.76842 -0.823903 2.72323 0
M  V30 23 H -2.51077 -2.62802 2.59422 0
M  V30 24 H -1.52228 -1.57808 1.57965 0
M  V30 25 H -3.09533 -2.12963 -0.00017283 0
M  V30 26 H -4.25986 -2.61716 1.21371 0
M  V30 27 H -5.34175 -0.771536 0.142875 0
M  V30 28 H -4.9622 -0.527533 1.82719 0
M  V30 29 H -4.69046 1.51403 0.790339 0
M  V30 30 H -3.20495 0.950959 1.53347 0
M  V30 31 H -2.71781 2.19683 -0.33981 0
M  V30 32 H -1.80542 -0.60975 -1.0999 0
M  V30 33 H 0.630344 -0.694062 -0.0365433 0
M  V30 34 H 0.740901 -0.0231375 -1.67623 0
M  V30 35 H 1.77228 2.04991 -0.828644 0
M  V30 36 H 1.73331 1.45489 0.847678 0
M  V30 37 H 5.73741 -0.248556 -2.11507 0
M  V30 38 H 3.5385 -0.478834 1.49784 0
M  V30 39 H 6.99647 0.30525 1.66678 0
M  V30 40 H 8.18641 -0.246311 0.609912 0
M  V30 41 H -4.58302 2.02835 -1.81795 0
M  V30 42 H -4.296 0.305944 -2.16185 0
M  V30 43 H -3.23302 1.31391 -3.85546 0
M  V30 44 H -2.71632 2.63434 -2.95317 0
M  V30 END ATOM
M  V30 BEGIN BOND
M  V30 1 1 1 2
M  V30 2 1 2 3
M  V30 3 1 3 4
M  V30 4 1 4 5
M  V30 5 1 5 6
M  V30 6 1 6 7
M  V30 7 2 7 8
M  V30 8 1 7 9
M  V30 9 1 9 10
M  V30 10 1 10 11
M  V30 11 1 11 12
M  V30 12 2 12 13
M  V30 13 1 13 14
M  V30 14 2 14 15
M  V30 15 1 14 16
M  V30 16 2 16 17
M  V30 17 2 16 18
M  V30 18 1 16 19
M  V30 19 1 5 20
M  V30 20 1 20 21
M  V30 21 1 15 11
M  V30 22 1 1 22
M  V30 23 1 1 23
M  V30 24 1 1 24
M  V30 25 1 2 25
M  V30 26 1 2 26
M  V30 27 1 3 27
M  V30 28 1 3 28
M  V30 29 1 4 29
M  V30 30 1 4 30
M  V30 31 1 5 31
M  V30 32 1 6 32
M  V30 33 1 9 33
M  V30 34 1 9 34
M  V30 35 1 10 35
M  V30 36 1 10 36
M  V30 37 1 13 37
M  V30 38 1 15 38
M  V30 39 1 19 39
M  V30 40 1 19 40
M  V30 41 1 20 41
M  V30 42 1 20 42
M  V30 43 1 21 43
M  V30 44 1 21 44
M  V30 END BOND
M  V30 END CTAB
M  END
