
     RDKit          3D

  0  0  0  0  0  0  0  0  0  0999 V3000
M  V30 BEGIN CTAB
M  V30 COUNTS 21 21 0 0 0
M  V30 BEGIN ATOM
M  V30 1 N 3.54543 0.396884 0.807484 0
M  V30 2 C 2.3084 0.0341992 0.213715 0
M  V30 3 N 2.18146 -0.695488 -0.908482 0
M  V30 4 N 0.883069 -0.809298 -1.14481 0
M  V30 5 C 0.199907 -0.171272 -0.196829 0
M  V30 6 N 1.06664 0.355528 0.655794 0
M  V30 7 C -1.3079 -0.0751462 -0.180979 0
M  V30 8 N -1.79954 -1.32666 -0.682526 0
M  V30 9 C -1.70918 1.08871 -1.01897 0
M  V30 10 C -1.67636 0.114016 1.29616 0
M  V30 11 H 3.68552 1.30488 1.25153 0
M  V30 12 H 4.34649 -0.268269 0.787356 0
M  V30 13 H 2.90969 -1.11625 -1.53227 0
M  V30 14 H -1.21632 -2.10414 -0.257441 0
M  V30 15 H -2.77804 -1.52201 -0.363697 0
M  V30 16 H -0.87361 1.47894 -1.65319 0
M  V30 17 H -1.94457 1.92583 -0.314996 0
M  V30 18 H -2.56273 0.899933 -1.68466 0
M  V30 19 H -2.68977 0.537974 1.40551 0
M  V30 20 H -1.62855 -0.876786 1.78091 0
M  V30 21 H -0.940047 0.828426 1.7404 0
M  V30 END ATOM
M  V30 BEGIN BOND
M  V30 1 1 1 2
M  V30 2 1 2 3
M  V30 3 1 3 4
M  V30 4 2 4 5
M  V30 5 1 5 6
M  V30 6 1 5 7
M  V30 7 1 7 8
M  V30 8 1 7 9
M  V30 9 1 7 10
M  V30 10 2 6 2
M  V30 11 1 1 11
M  V30 12 1 1 12
M  V30 13 1 3 13
M  V30 14 1 8 14
M  V30 15 1 8 15
M  V30 16 1 9 16
M  V30 17 1 9 17
M  V30 18 1 9 18
M  V30 19 1 10 19
M  V30 20 1 10 20
M  V30 21 1 10 21
M  V30 END BOND
M  V30 END CTAB
M  END
