
     RDKit          3D

  0  0  0  0  0  0  0  0  0  0999 V3000
M  V30 BEGIN CTAB
M  V30 COUNTS 42 44 0 0 0
M  V30 BEGIN ATOM
M  V30 1 O -7.29206 -1.68494 -1.39047 0 CHG=-1
M  V30 2 N -5.93053 -1.55538 -1.37956 0 CHG=1
M  V30 3 O -5.25066 -2.33503 -2.06914 0
M  V30 4 C -5.33795 -0.555885 -0.597704 0
M  V30 5 C -4.11733 -0.0375787 -0.971968 0
M  V30 6 C -3.50745 0.943066 -0.22785 0
M  V30 7 C -4.15633 1.39735 0.912804 0
M  V30 8 C -5.37213 0.897876 1.30714 0
M  V30 9 C -5.96424 -0.0807995 0.550268 0
M  V30 10 N -7.21217 -0.600465 0.946492 0
M  V30 11 O -2.28048 1.43802 -0.637755 0
M  V30 12 C -1.13206 0.822602 -0.172956 0
M  V30 13 C -0.497388 1.22551 0.976274 0
M  V30 14 C 0.659275 0.596604 1.43406 0
M  V30 15 C 1.17907 -0.462065 0.708246 0
M  V30 16 C 0.563737 -0.881414 -0.440301 0
M  V30 17 C -0.596141 -0.231241 -0.876222 0
M  V30 18 O 2.34627 -1.0604 1.21342 0
M  V30 19 C 3.53822 -0.534098 0.740978 0
M  V30 20 C 4.12857 0.524253 1.39927 0
M  V30 21 C 5.31438 1.01675 0.894521 0
M  V30 22 C 5.91781 0.485541 -0.236457 0
M  V30 23 C 5.32516 -0.5869 -0.908204 0
M  V30 24 C 4.14288 -1.0641 -0.389713 0
M  V30 25 N 5.94604 -1.13021 -2.0653 0 CHG=1
M  V30 26 O 7.19953 -1.11609 -2.16808 0
M  V30 27 O 5.25296 -1.68264 -3.10341 0 CHG=-1
M  V30 28 N 7.1309 0.987056 -0.756991 0
M  V30 29 H -3.59949 -0.391054 -1.86992 0
M  V30 30 H -3.65184 2.16998 1.47943 0
M  V30 31 H -5.85407 1.25865 2.18496 0
M  V30 32 H -8.04302 -0.00798292 1.11453 0
M  V30 33 H -7.31722 -1.63695 1.0808 0
M  V30 34 H -0.892965 2.0413 1.54129 0
M  V30 35 H 1.15806 0.914649 2.33836 0
M  V30 36 H 0.982956 -1.71827 -1.00469 0
M  V30 37 H -1.06945 -0.578258 -1.78913 0
M  V30 38 H 3.63808 0.920357 2.27858 0
M  V30 39 H 5.79548 1.85261 1.40013 0
M  V30 40 H 3.68974 -1.90168 -0.923061 0
M  V30 41 H 7.19857 1.32902 -1.7295 0
M  V30 42 H 7.96728 1.01222 -0.15275 0
M  V30 END ATOM
M  V30 BEGIN BOND
M  V30 1 1 1 2
M  V30 2 2 2 3
M  V30 3 1 2 4
M  V30 4 2 4 5
M  V30 5 1 5 6
M  V30 6 2 6 7
M  V30 7 1 7 8
M  V30 8 2 8 9
M  V30 9 1 9 10
M  V30 10 1 6 11
M  V30 11 1 11 12
M  V30 12 2 12 13
M  V30 13 1 13 14
M  V30 14 2 14 15
M  V30 15 1 15 16
M  V30 16 2 16 17
M  V30 17 1 15 18
M  V30 18 1 18 19
M  V30 19 2 19 20
M  V30 20 1 20 21
M  V30 21 2 21 22
M  V30 22 1 22 23
M  V30 23 2 23 24
M  V30 24 1 23 25
M  V30 25 2 25 26
M  V30 26 1 25 27
M  V30 27 1 22 28
M  V30 28 1 9 4
M  V30 29 1 17 12
M  V30 30 1 24 19
M  V30 31 1 5 29
M  V30 32 1 7 30
M  V30 33 1 8 31
M  V30 34 1 10 32
M  V30 35 1 10 33
M  V30 36 1 13 34
M  V30 37 1 14 35
M  V30 38 1 16 36
M  V30 39 1 17 37
M  V30 40 1 20 38
M  V30 41 1 21 39
M  V30 42 1 24 40
M  V30 43 1 28 41
M  V30 44 1 28 42
M  V30 END BOND
M  V30 END CTAB
M  END
