
     RDKit          3D

  0  0  0  0  0  0  0  0  0  0999 V3000
M  V30 BEGIN CTAB
M  V30 COUNTS 55 58 0 0 0
M  V30 BEGIN ATOM
M  V30 1 N -2.88552 -1.4145 0.699476 0
M  V30 2 C -2.24402 -0.129772 0.562325 0
M  V30 3 C -0.910488 -0.102441 0.0950921 0
M  V30 4 C -0.287705 -1.39053 -0.207231 0
M  V30 5 C 0.968127 -1.38587 -0.92444 0
M  V30 6 C 1.04289 -1.1822 -2.28381 0
M  V30 7 O 0.00426885 -0.979547 -2.98412 0
M  V30 8 N 2.24831 -1.20193 -2.86105 0
M  V30 9 C 3.38573 -1.41242 -2.16251 0
M  V30 10 O 4.48507 -1.41519 -2.80635 0
M  V30 11 N 3.37376 -1.61761 -0.820766 0
M  V30 12 C 2.15944 -1.60019 -0.235548 0
M  V30 13 N 2.06337 -1.85487 1.17598 0
M  V30 14 C 4.61459 -1.84303 -0.108615 0
M  V30 15 C 5.3065 -0.636621 0.359712 0
M  V30 16 C 5.04499 0.0516011 1.52566 0
M  V30 17 C 5.75909 1.19694 1.90003 0
M  V30 18 C 6.75559 1.67826 1.11038 0
M  V30 19 C 7.04799 1.0224 -0.0568146 0
M  V30 20 C 6.33133 -0.119226 -0.423438 0
M  V30 21 C -0.26287 1.09648 -0.0392408 0
M  V30 22 O 0.919818 1.17671 -0.447912 0
M  V30 23 N -0.961744 2.21225 0.293673 0
M  V30 24 C -2.21587 2.1444 0.730362 0
M  V30 25 O -2.80548 3.21371 1.02612 0
M  V30 26 N -2.9077 0.982023 0.882447 0
M  V30 27 C -4.24726 1.00469 1.39343 0
M  V30 28 C -5.34455 1.01845 0.435492 0
M  V30 29 C -6.04221 -0.163961 0.200559 0
M  V30 30 C -7.10171 -0.244192 -0.694469 0
M  V30 31 C -7.49191 0.872115 -1.38305 0
M  V30 32 C -6.83686 2.05036 -1.18302 0
M  V30 33 C -5.77879 2.10319 -0.280822 0
M  V30 34 H -3.00367 -1.7871 1.66512 0
M  V30 35 H -3.20798 -1.92588 -0.165509 0
M  V30 36 H -0.2205 -2.02984 0.703027 0
M  V30 37 H -1.0282 -1.95254 -0.860397 0
M  V30 38 H 2.29713 -1.04338 -3.91556 0
M  V30 39 H 2.03381 -2.83909 1.51232 0
M  V30 40 H 2.02117 -1.10339 1.87702 0
M  V30 41 H 4.45357 -2.53629 0.750709 0
M  V30 42 H 5.33052 -2.40212 -0.782669 0
M  V30 43 H 4.27744 -0.297159 2.18724 0
M  V30 44 H 5.50076 1.68514 2.82419 0
M  V30 45 H 7.34358 2.56273 1.34459 0
M  V30 46 H 7.84329 1.39624 -0.698099 0
M  V30 47 H 6.66309 -0.56024 -1.35203 0
M  V30 48 H -0.435827 3.12121 0.179054 0
M  V30 49 H -4.42459 0.141621 2.11152 0
M  V30 50 H -4.39383 1.89752 2.06001 0
M  V30 51 H -5.81386 -1.08566 0.708404 0
M  V30 52 H -7.62351 -1.17837 -0.853547 0
M  V30 53 H -8.32863 0.830038 -2.09728 0
M  V30 54 H -7.16836 2.91991 -1.74203 0
M  V30 55 H -5.30159 3.05717 -0.154499 0
M  V30 END ATOM
M  V30 BEGIN BOND
M  V30 1 1 1 2
M  V30 2 2 2 3
M  V30 3 1 3 4
M  V30 4 1 4 5
M  V30 5 1 5 6
M  V30 6 2 6 7
M  V30 7 1 6 8
M  V30 8 1 8 9
M  V30 9 2 9 10
M  V30 10 1 9 11
M  V30 11 1 11 12
M  V30 12 1 12 13
M  V30 13 1 11 14
M  V30 14 1 14 15
M  V30 15 2 15 16
M  V30 16 1 16 17
M  V30 17 2 17 18
M  V30 18 1 18 19
M  V30 19 2 19 20
M  V30 20 1 3 21
M  V30 21 2 21 22
M  V30 22 1 21 23
M  V30 23 1 23 24
M  V30 24 2 24 25
M  V30 25 1 24 26
M  V30 26 1 26 27
M  V30 27 1 27 28
M  V30 28 2 28 29
M  V30 29 1 29 30
M  V30 30 2 30 31
M  V30 31 1 31 32
M  V30 32 2 32 33
M  V30 33 1 26 2
M  V30 34 1 33 28
M  V30 35 2 12 5
M  V30 36 1 20 15
M  V30 37 1 1 34
M  V30 38 1 1 35
M  V30 39 1 4 36
M  V30 40 1 4 37
M  V30 41 1 8 38
M  V30 42 1 13 39
M  V30 43 1 13 40
M  V30 44 1 14 41
M  V30 45 1 14 42
M  V30 46 1 16 43
M  V30 47 1 17 44
M  V30 48 1 18 45
M  V30 49 1 19 46
M  V30 50 1 20 47
M  V30 51 1 23 48
M  V30 52 1 27 49
M  V30 53 1 27 50
M  V30 54 1 29 51
M  V30 55 1 30 52
M  V30 56 1 31 53
M  V30 57 1 32 54
M  V30 58 1 33 55
M  V30 END BOND
M  V30 END CTAB
M  END
