
     RDKit          3D

  0  0  0  0  0  0  0  0  0  0999 V3000
M  V30 BEGIN CTAB
M  V30 COUNTS 46 48 0 0 0
M  V30 BEGIN ATOM
M  V30 1 N 8.03227 0.957988 0.411045 0
M  V30 2 C 7.77919 -0.342783 0.888658 0
M  V30 3 N 6.62873 -0.882299 0.83648 0
M  V30 4 C 5.55 -0.118849 0.262358 0
M  V30 5 S 5.54865 1.45598 -0.38964 0
M  V30 6 C 3.89293 1.55002 -0.824932 0
M  V30 7 C 3.43556 0.316947 -0.424173 0
M  V30 8 N 4.2884 -0.489487 0.113707 0
M  V30 9 C 2.01161 -0.0485531 -0.613944 0
M  V30 10 C 1.09657 0.79047 -1.18038 0
M  V30 11 C -0.225382 0.450286 -1.35639 0
M  V30 12 C -0.677468 -0.776758 -0.956998 0
M  V30 13 C 0.22541 -1.65855 -0.375767 0
M  V30 14 C 1.55889 -1.28487 -0.210855 0
M  V30 15 S -2.36328 -1.21877 -1.17841 0
M  V30 16 O -2.40437 -2.71347 -1.31992 0
M  V30 17 O -2.89025 -0.631655 -2.43893 0
M  V30 18 N -3.26802 -0.758522 0.211718 0
M  V30 19 C -3.25113 0.647485 0.452924 0
M  V30 20 C -4.23254 1.43181 -0.364828 0
M  V30 21 C -5.66324 1.13111 -0.0674906 0
M  V30 22 C -5.89109 0.529921 1.29435 0
M  V30 23 C -5.28667 -0.818488 1.47238 0
M  V30 24 C -4.57428 -1.33441 0.244137 0
M  V30 25 N 8.84118 -1.08974 1.45199 0
M  V30 26 H 8.36835 1.16893 -0.563496 0
M  V30 27 H 7.89943 1.82671 1.0099 0
M  V30 28 H 3.33618 2.37849 -1.30102 0
M  V30 29 H 1.43795 1.78014 -1.50808 0
M  V30 30 H -0.891632 1.15024 -1.80567 0
M  V30 31 H -0.135901 -2.61708 -0.0657021 0
M  V30 32 H 2.26375 -1.99067 0.250076 0
M  V30 33 H -3.48334 0.800618 1.5414 0
M  V30 34 H -2.25518 1.06805 0.292668 0
M  V30 35 H -4.03658 2.51951 -0.13213 0
M  V30 36 H -4.00207 1.32987 -1.44404 0
M  V30 37 H -6.16061 0.516729 -0.87454 0
M  V30 38 H -6.25025 2.09663 -0.078528 0
M  V30 39 H -5.54269 1.28724 2.03815 0
M  V30 40 H -7.01163 0.489686 1.42958 0
M  V30 41 H -4.52688 -0.843875 2.30838 0
M  V30 42 H -6.06982 -1.56355 1.74443 0
M  V30 43 H -5.1472 -1.24238 -0.676904 0
M  V30 44 H -4.43738 -2.44216 0.416456 0
M  V30 45 H 9.15967 -1.93836 0.922302 0
M  V30 46 H 9.32418 -0.869576 2.33449 0
M  V30 END ATOM
M  V30 BEGIN BOND
M  V30 1 1 1 2
M  V30 2 2 2 3 CFG=2
M  V30 3 1 3 4
M  V30 4 1 4 5
M  V30 5 1 5 6
M  V30 6 2 6 7
M  V30 7 1 7 8
M  V30 8 1 7 9
M  V30 9 2 9 10
M  V30 10 1 10 11
M  V30 11 2 11 12
M  V30 12 1 12 13
M  V30 13 2 13 14
M  V30 14 1 12 15
M  V30 15 2 15 16
M  V30 16 2 15 17
M  V30 17 1 15 18
M  V30 18 1 18 19
M  V30 19 1 19 20
M  V30 20 1 20 21
M  V30 21 1 21 22
M  V30 22 1 22 23
M  V30 23 1 23 24
M  V30 24 1 2 25
M  V30 25 2 8 4
M  V30 26 1 14 9
M  V30 27 1 24 18
M  V30 28 1 1 26
M  V30 29 1 1 27
M  V30 30 1 6 28
M  V30 31 1 10 29
M  V30 32 1 11 30
M  V30 33 1 13 31
M  V30 34 1 14 32
M  V30 35 1 19 33
M  V30 36 1 19 34
M  V30 37 1 20 35
M  V30 38 1 20 36
M  V30 39 1 21 37
M  V30 40 1 21 38
M  V30 41 1 22 39
M  V30 42 1 22 40
M  V30 43 1 23 41
M  V30 44 1 23 42
M  V30 45 1 24 43
M  V30 46 1 24 44
M  V30 47 1 25 45
M  V30 48 1 25 46
M  V30 END BOND
M  V30 END CTAB
M  END
