
     RDKit          3D

  0  0  0  0  0  0  0  0  0  0999 V3000
M  V30 BEGIN CTAB
M  V30 COUNTS 30 31 0 0 0
M  V30 BEGIN ATOM
M  V30 1 N -4.23313 2.64823 1.37397 0
M  V30 2 C -3.62159 1.57704 0.680621 0
M  V30 3 N -2.70878 1.76845 -0.308853 0
M  V30 4 C -2.14356 0.730958 -0.949549 0
M  V30 5 C -1.15268 1.00072 -2.0216 0
M  V30 6 S 0.535615 1.10172 -1.399 0
M  V30 7 C 1.02738 -0.51395 -0.783608 0
M  V30 8 C 2.40105 -0.54054 -0.251254 0
M  V30 9 C 2.63448 -0.270845 1.06663 0
M  V30 10 C 3.93445 -0.290202 1.59695 0
M  V30 11 C 4.98867 -0.587192 0.76794 0
M  V30 12 C 4.74966 -0.858859 -0.561427 0
M  V30 13 C 3.45055 -0.837188 -1.08085 0
M  V30 14 Cl 6.12751 -1.23243 -1.57876 0
M  V30 15 Cl 6.61438 -0.613664 1.4203 0
M  V30 16 N -2.50758 -0.510923 -0.583149 0
M  V30 17 C -3.4068 -0.734477 0.390822 0
M  V30 18 N -3.93827 0.329204 0.995314 0
M  V30 19 N -3.79075 -2.04647 0.777076 0
M  V30 20 H -3.84549 3.62067 1.32512 0
M  V30 21 H -5.07265 2.46884 1.93508 0
M  V30 22 H -1.44867 1.90271 -2.59533 0
M  V30 23 H -1.19986 0.114377 -2.71341 0
M  V30 24 H 0.982116 -1.24295 -1.6244 0
M  V30 25 H 0.293705 -0.795991 0.0269221 0
M  V30 26 H 1.83809 -0.0383782 1.7277 0
M  V30 27 H 4.13674 -0.0801892 2.63437 0
M  V30 28 H 3.26969 -1.0499 -2.11887 0
M  V30 29 H -3.1675 -2.8549 0.67414 0
M  V30 30 H -4.74678 -2.16389 1.17711 0
M  V30 END ATOM
M  V30 BEGIN BOND
M  V30 1 1 1 2
M  V30 2 2 2 3
M  V30 3 1 3 4
M  V30 4 1 4 5
M  V30 5 1 5 6
M  V30 6 1 6 7
M  V30 7 1 7 8
M  V30 8 2 8 9
M  V30 9 1 9 10
M  V30 10 2 10 11
M  V30 11 1 11 12
M  V30 12 2 12 13
M  V30 13 1 12 14
M  V30 14 1 11 15
M  V30 15 2 4 16
M  V30 16 1 16 17
M  V30 17 2 17 18
M  V30 18 1 17 19
M  V30 19 1 18 2
M  V30 20 1 13 8
M  V30 21 1 1 20
M  V30 22 1 1 21
M  V30 23 1 5 22
M  V30 24 1 5 23
M  V30 25 1 7 24
M  V30 26 1 7 25
M  V30 27 1 9 26
M  V30 28 1 10 27
M  V30 29 1 13 28
M  V30 30 1 19 29
M  V30 31 1 19 30
M  V30 END BOND
M  V30 END CTAB
M  END
