
     RDKit          3D

  0  0  0  0  0  0  0  0  0  0999 V3000
M  V30 BEGIN CTAB
M  V30 COUNTS 38 40 0 0 0
M  V30 BEGIN ATOM
M  V30 1 C -1.94443 -1.16413 1.49762 0
M  V30 2 C -1.89513 -0.727402 0.0385112 0
M  V30 3 N -0.819041 0.157783 -0.242008 0
M  V30 4 C 0.541171 -0.243338 -0.111823 0
M  V30 5 C 1.55621 0.707469 -0.287044 0
M  V30 6 C 2.88447 0.398577 -0.185488 0
M  V30 7 C 3.19863 -0.911654 0.102081 0
M  V30 8 C 2.22189 -1.86426 0.278595 0
M  V30 9 C 0.899743 -1.54109 0.174038 0
M  V30 10 N 4.51231 -1.2248 0.204218 0
M  V30 11 C 5.48633 -0.326676 0.0391731 0
M  V30 12 N 6.87125 -0.627812 0.140686 0
M  V30 13 N 5.14935 0.946734 -0.241175 0
M  V30 14 C 3.88594 1.35286 -0.361759 0
M  V30 15 N 3.49016 2.68113 -0.655386 0
M  V30 16 C -3.2238 -0.15534 -0.302256 0
M  V30 17 C -4.18748 -0.876611 -0.973282 0
M  V30 18 C -5.42322 -0.352303 -1.29312 0
M  V30 19 Cl -6.62354 -1.30039 -2.14747 0
M  V30 20 C -5.74359 0.943789 -0.943243 0
M  V30 21 Cl -7.31557 1.60486 -1.35231 0
M  V30 22 C -4.78525 1.67072 -0.27234 0
M  V30 23 C -3.54826 1.15261 0.0503353 0
M  V30 24 H -2.7212 -0.561138 2.01606 0
M  V30 25 H -2.27057 -2.22208 1.58262 0
M  V30 26 H -0.996383 -0.967349 2.02338 0
M  V30 27 H -1.75713 -1.62982 -0.627312 0
M  V30 28 H -1.03749 1.12944 -0.55241 0
M  V30 29 H 1.27045 1.73643 -0.513932 0
M  V30 30 H 2.50052 -2.8938 0.505417 0
M  V30 31 H 0.117878 -2.28272 0.30566 0
M  V30 32 H 7.21455 -1.01947 1.04415 0
M  V30 33 H 7.55136 -0.481076 -0.625727 0
M  V30 34 H 3.89251 3.12264 -1.50997 0
M  V30 35 H 2.82958 3.23438 -0.0748083 0
M  V30 36 H -3.93784 -1.89108 -1.2476 0
M  V30 37 H -5.02374 2.67819 0.00401998 0
M  V30 38 H -2.82065 1.74672 0.575456 0
M  V30 END ATOM
M  V30 BEGIN BOND
M  V30 1 1 1 2
M  V30 2 1 2 3
M  V30 3 1 3 4
M  V30 4 2 4 5
M  V30 5 1 5 6
M  V30 6 2 6 7
M  V30 7 1 7 8
M  V30 8 2 8 9
M  V30 9 1 7 10
M  V30 10 2 10 11
M  V30 11 1 11 12
M  V30 12 1 11 13
M  V30 13 2 13 14
M  V30 14 1 14 15
M  V30 15 1 2 16
M  V30 16 2 16 17
M  V30 17 1 17 18
M  V30 18 1 18 19
M  V30 19 2 18 20
M  V30 20 1 20 21
M  V30 21 1 20 22
M  V30 22 2 22 23
M  V30 23 1 9 4
M  V30 24 1 23 16
M  V30 25 1 14 6
M  V30 26 1 1 24
M  V30 27 1 1 25
M  V30 28 1 1 26
M  V30 29 1 2 27
M  V30 30 1 3 28
M  V30 31 1 5 29
M  V30 32 1 8 30
M  V30 33 1 9 31
M  V30 34 1 12 32
M  V30 35 1 12 33
M  V30 36 1 15 34
M  V30 37 1 15 35
M  V30 38 1 17 36
M  V30 39 1 22 37
M  V30 40 1 23 38
M  V30 END BOND
M  V30 END CTAB
M  END
