
     RDKit          3D

  0  0  0  0  0  0  0  0  0  0999 V3000
M  V30 BEGIN CTAB
M  V30 COUNTS 45 46 0 0 0
M  V30 BEGIN ATOM
M  V30 1 C -4.12923 -1.00376 -1.2284 0
M  V30 2 C -4.51178 -0.651469 0.171031 0
M  V30 3 C -5.51337 -1.63585 0.739539 0
M  V30 4 C -3.26035 -0.572764 1.01811 0 CFG=2
M  V30 5 N -3.70874 -0.228417 2.36318 0
M  V30 6 C -2.40216 0.499128 0.451864 0
M  V30 7 O -2.19127 1.51257 1.16268 0
M  V30 8 O -1.83181 0.444996 -0.792751 0
M  V30 9 C -1.01179 1.42298 -1.38301 0
M  V30 10 C 0.221778 1.62642 -0.54461 0 CFG=1
M  V30 11 O 0.969705 0.457785 -0.412468 0
M  V30 12 C 2.11261 0.938977 0.232074 0 CFG=1
M  V30 13 N 3.19445 -0.0121084 0.211371 0
M  V30 14 C 4.01185 -0.152606 1.27769 0
M  V30 15 C 5.04853 -1.06251 1.26063 0
M  V30 16 C 5.2499 -1.84118 0.130803 0
M  V30 17 N 6.32452 -2.7742 0.132168 0
M  V30 18 N 4.42703 -1.6888 -0.922172 0
M  V30 19 C 3.42971 -0.789889 -0.861685 0
M  V30 20 O 2.62846 -0.617601 -1.84223 0
M  V30 21 C 2.44589 2.25663 -0.378522 0
M  V30 22 F 3.62713 2.29334 -1.04847 0
M  V30 23 F 2.42397 3.29185 0.554647 0
M  V30 24 C 1.24542 2.50151 -1.28823 0 CFG=2
M  V30 25 O 0.853327 3.82634 -1.29011 0
M  V30 26 H -3.16665 -1.57456 -1.23832 0
M  V30 27 H -3.98291 -0.113255 -1.85068 0
M  V30 28 H -4.95172 -1.58705 -1.68993 0
M  V30 29 H -4.99299 0.362325 0.200405 0
M  V30 30 H -5.91573 -1.23344 1.69145 0
M  V30 31 H -6.34023 -1.71889 0.0237482 0
M  V30 32 H -5.00887 -2.6249 0.918875 0
M  V30 33 H -2.7464 -1.55675 1.02781 0
M  V30 34 H -2.93066 -0.223343 3.05012 0
M  V30 35 H -4.11284 0.730362 2.31583 0
M  V30 36 H -1.54216 2.3807 -1.55084 0
M  V30 37 H -0.711093 1.04043 -2.37487 0
M  V30 38 H 0.0484587 2.14876 0.40877 0
M  V30 39 H 1.81963 1.11056 1.29021 0
M  V30 40 H 3.8503 0.459749 2.16106 0
M  V30 41 H 5.69136 -1.16117 2.12138 0
M  V30 42 H 6.36813 -3.57902 -0.530698 0
M  V30 43 H 7.10446 -2.6711 0.80758 0
M  V30 44 H 1.40486 2.08166 -2.30061 0
M  V30 45 H 0.461283 4.00275 -2.19443 0
M  V30 END ATOM
M  V30 BEGIN BOND
M  V30 1 1 1 2
M  V30 2 1 2 3
M  V30 3 1 2 4
M  V30 4 1 4 5
M  V30 5 1 4 6
M  V30 6 2 6 7
M  V30 7 1 6 8
M  V30 8 1 8 9
M  V30 9 1 9 10
M  V30 10 1 10 11
M  V30 11 1 11 12
M  V30 12 1 12 13
M  V30 13 1 13 14
M  V30 14 2 14 15
M  V30 15 1 15 16
M  V30 16 1 16 17
M  V30 17 2 16 18
M  V30 18 1 18 19
M  V30 19 2 19 20
M  V30 20 1 12 21
M  V30 21 1 21 22
M  V30 22 1 21 23
M  V30 23 1 21 24
M  V30 24 1 24 25
M  V30 25 1 24 10
M  V30 26 1 19 13
M  V30 27 1 1 26
M  V30 28 1 1 27
M  V30 29 1 1 28
M  V30 30 1 2 29
M  V30 31 1 3 30
M  V30 32 1 3 31
M  V30 33 1 3 32
M  V30 34 1 4 33 CFG=1
M  V30 35 1 5 34
M  V30 36 1 5 35
M  V30 37 1 9 36
M  V30 38 1 9 37
M  V30 39 1 10 38 CFG=1
M  V30 40 1 12 39 CFG=1
M  V30 41 1 14 40
M  V30 42 1 15 41
M  V30 43 1 17 42
M  V30 44 1 17 43
M  V30 45 1 24 44 CFG=3
M  V30 46 1 25 45
M  V30 END BOND
M  V30 END CTAB
M  END
