
     RDKit          3D

  0  0  0  0  0  0  0  0  0  0999 V3000
M  V30 BEGIN CTAB
M  V30 COUNTS 32 31 0 0 0
M  V30 BEGIN ATOM
M  V30 1 C -3.15668 -0.477702 0.988828 0 CFG=1
M  V30 2 N -2.60184 -1.79098 1.03444 0
M  V30 3 C -2.13678 0.624105 0.891339 0
M  V30 4 S -1.0996 0.528701 -0.566645 0
M  V30 5 S 0.162692 -1.17379 -0.5537 0
M  V30 6 C 1.74952 -0.822361 0.241624 0
M  V30 7 C 2.56793 0.174681 -0.54711 0 CFG=2
M  V30 8 N 2.88084 -0.260361 -1.87558 0
M  V30 9 C 3.83191 0.396323 0.196603 0
M  V30 10 O 3.82364 0.776524 1.39483 0
M  V30 11 O 5.05928 0.191215 -0.406649 0
M  V30 12 C 6.26403 0.409131 0.31693 0
M  V30 13 C -4.16024 -0.295816 -0.0774381 0
M  V30 14 O -4.43648 -1.25934 -0.81865 0
M  V30 15 O -4.77543 0.911644 -0.247007 0
M  V30 16 C -5.75188 1.16315 -1.25106 0
M  V30 17 H -3.6988 -0.311212 1.95738 0
M  V30 18 H -1.73072 -1.74986 1.60779 0
M  V30 19 H -2.41865 -2.17084 0.0836781 0
M  V30 20 H -1.49745 0.656715 1.81411 0
M  V30 21 H -2.67671 1.59167 0.864392 0
M  V30 22 H 1.5333 -0.343672 1.22113 0
M  V30 23 H 2.33137 -1.73205 0.365317 0
M  V30 24 H 2.05513 1.17583 -0.577598 0
M  V30 25 H 3.87896 -0.563065 -1.95257 0
M  V30 26 H 2.21036 -0.957785 -2.25843 0
M  V30 27 H 6.27964 -0.0907112 1.28911 0
M  V30 28 H 6.34993 1.51725 0.466569 0
M  V30 29 H 7.14491 0.0667269 -0.261575 0
M  V30 30 H -5.47321 0.717923 -2.22913 0
M  V30 31 H -5.759 2.27275 -1.42662 0
M  V30 32 H -6.74998 0.825209 -0.928389 0
M  V30 END ATOM
M  V30 BEGIN BOND
M  V30 1 1 1 2
M  V30 2 1 1 3
M  V30 3 1 3 4
M  V30 4 1 4 5
M  V30 5 1 5 6
M  V30 6 1 6 7
M  V30 7 1 7 8
M  V30 8 1 7 9
M  V30 9 2 9 10
M  V30 10 1 9 11
M  V30 11 1 11 12
M  V30 12 1 1 13
M  V30 13 2 13 14
M  V30 14 1 13 15
M  V30 15 1 15 16
M  V30 16 1 1 17 CFG=1
M  V30 17 1 2 18
M  V30 18 1 2 19
M  V30 19 1 3 20
M  V30 20 1 3 21
M  V30 21 1 6 22
M  V30 22 1 6 23
M  V30 23 1 7 24 CFG=3
M  V30 24 1 8 25
M  V30 25 1 8 26
M  V30 26 1 12 27
M  V30 27 1 12 28
M  V30 28 1 12 29
M  V30 29 1 16 30
M  V30 30 1 16 31
M  V30 31 1 16 32
M  V30 END BOND
M  V30 END CTAB
M  END
