
     RDKit          3D

  0  0  0  0  0  0  0  0  0  0999 V3000
M  V30 BEGIN CTAB
M  V30 COUNTS 38 39 0 0 0
M  V30 BEGIN ATOM
M  V30 1 N -5.688 0.000891021 -0.687206 0
M  V30 2 C -4.29224 0.277336 -0.790734 0
M  V30 3 C -3.49673 -0.719243 0.0126479 0
M  V30 4 N -2.08131 -0.373337 -0.143837 0
M  V30 5 C -1.76329 0.844116 0.481691 0
M  V30 6 C -0.69725 0.833774 1.50682 0
M  V30 7 O 0.43378 0.135167 1.23296 0
M  V30 8 C 0.652364 -0.150601 -0.114696 0 CFG=2
M  V30 9 C 0.0905557 -1.51127 -0.367117 0
M  V30 10 C -1.30711 -1.51885 0.221774 0
M  V30 11 C 2.09043 -0.00281225 -0.427278 0
M  V30 12 C 2.85345 -0.861781 -1.1495 0
M  V30 13 C 4.18499 -0.596887 -1.36343 0
M  V30 14 C 4.8096 0.546773 -0.859095 0
M  V30 15 C 4.02361 1.40856 -0.128823 0
M  V30 16 C 2.71112 1.13978 0.0774679 0
M  V30 17 N 6.18434 0.779504 -1.10622 0
M  V30 18 H -6.34233 0.593965 -1.10342 0
M  V30 19 H -5.99518 -0.588934 0.0327702 0
M  V30 20 H -4.16096 1.30584 -0.402735 0
M  V30 21 H -4.03648 0.275985 -1.86042 0
M  V30 22 H -3.73294 -0.504887 1.09473 0
M  V30 23 H -3.6988 -1.75405 -0.27538 0
M  V30 24 H -1.54782 1.61962 -0.311789 0
M  V30 25 H -2.69105 1.2326 0.988693 0
M  V30 26 H -0.404767 1.90393 1.70317 0
M  V30 27 H -1.11093 0.477511 2.4959 0
M  V30 28 H 0.122412 0.551919 -0.789299 0
M  V30 29 H 0.643046 -2.31746 0.188094 0
M  V30 30 H 0.0796458 -1.8093 -1.4327 0
M  V30 31 H -1.81519 -2.41258 -0.2495 0
M  V30 32 H -1.23315 -1.67869 1.3013 0
M  V30 33 H 2.38154 -1.74571 -1.54243 0
M  V30 34 H 4.8251 -1.26556 -1.93774 0
M  V30 35 H 4.50461 2.30821 0.270363 0
M  V30 36 H 2.13909 1.86892 0.669137 0
M  V30 37 H 6.68956 1.52507 -0.616115 0
M  V30 38 H 6.67627 0.182507 -1.79315 0
M  V30 END ATOM
M  V30 BEGIN BOND
M  V30 1 1 1 2
M  V30 2 1 2 3
M  V30 3 1 3 4
M  V30 4 1 4 5
M  V30 5 1 5 6
M  V30 6 1 6 7
M  V30 7 1 7 8
M  V30 8 1 8 9
M  V30 9 1 9 10
M  V30 10 1 8 11
M  V30 11 2 11 12
M  V30 12 1 12 13
M  V30 13 2 13 14
M  V30 14 1 14 15
M  V30 15 2 15 16
M  V30 16 1 14 17
M  V30 17 1 10 4
M  V30 18 1 16 11
M  V30 19 1 1 18
M  V30 20 1 1 19
M  V30 21 1 2 20
M  V30 22 1 2 21
M  V30 23 1 3 22
M  V30 24 1 3 23
M  V30 25 1 5 24
M  V30 26 1 5 25
M  V30 27 1 6 26
M  V30 28 1 6 27
M  V30 29 1 8 28 CFG=3
M  V30 30 1 9 29
M  V30 31 1 9 30
M  V30 32 1 10 31
M  V30 33 1 10 32
M  V30 34 1 12 33
M  V30 35 1 13 34
M  V30 36 1 15 35
M  V30 37 1 16 36
M  V30 38 1 17 37
M  V30 39 1 17 38
M  V30 END BOND
M  V30 END CTAB
M  END
