
     RDKit          3D

  0  0  0  0  0  0  0  0  0  0999 V3000
M  V30 BEGIN CTAB
M  V30 COUNTS 36 37 0 0 0
M  V30 BEGIN ATOM
M  V30 1 C 3.51046 -2.92798 -0.309871 0
M  V30 2 O 3.96911 -1.59047 -0.389348 0
M  V30 3 C 3.13059 -0.493006 -0.344413 0
M  V30 4 C 1.72651 -0.629861 -0.213222 0
M  V30 5 C 0.918392 0.456699 -0.170736 0
M  V30 6 C -0.551455 0.398985 -0.0357983 0
M  V30 7 C -1.17672 -0.732975 0.0530561 0
M  V30 8 C -2.47804 -1.2255 0.185058 0
M  V30 9 O -2.56828 -2.57937 0.231697 0
M  V30 10 N -3.75415 -0.668062 0.284953 0
M  V30 11 N -4.86406 -1.48293 0.408758 0
M  V30 12 C -5.92494 -0.710292 0.483025 0
M  V30 13 N -5.54894 0.559903 0.412847 0
M  V30 14 C -4.18086 0.577865 0.288262 0
M  V30 15 N -3.50241 1.8258 0.191284 0
M  V30 16 N -7.26329 -1.21602 0.618773 0
M  V30 17 C 1.48541 1.72065 -0.257967 0
M  V30 18 C 2.87026 1.86064 -0.387503 0
M  V30 19 C 3.68974 0.754948 -0.430476 0
M  V30 20 O 5.05924 0.88691 -0.558393 0
M  V30 21 C 5.65162 2.18237 -0.648802 0
M  V30 22 H 4.29056 -3.60535 -0.75868 0
M  V30 23 H 3.42674 -3.27587 0.755574 0
M  V30 24 H 2.58789 -3.09921 -0.87469 0
M  V30 25 H 1.36044 -1.63916 -0.151434 0
M  V30 26 H -1.02996 1.36818 -0.019932 0
M  V30 27 H -0.419515 -1.62792 0.00982671 0
M  V30 28 H -3.29028 2.28427 -0.720752 0
M  V30 29 H -3.19969 2.31171 1.06343 0
M  V30 30 H -7.84837 -1.23898 -0.228598 0
M  V30 31 H -7.63049 -1.54408 1.52236 0
M  V30 32 H 0.92916 2.63521 -0.233448 0
M  V30 33 H 3.30057 2.85465 -0.454683 0
M  V30 34 H 6.74029 2.1292 -0.524819 0
M  V30 35 H 5.24273 2.83375 0.169218 0
M  V30 36 H 5.34173 2.6453 -1.60317 0
M  V30 END ATOM
M  V30 BEGIN BOND
M  V30 1 1 1 2
M  V30 2 1 2 3
M  V30 3 2 3 4
M  V30 4 1 4 5
M  V30 5 1 5 6
M  V30 6 2 6 7 CFG=2
M  V30 7 1 7 8
M  V30 8 2 8 9
M  V30 9 1 8 10
M  V30 10 1 10 11
M  V30 11 2 11 12
M  V30 12 1 12 13
M  V30 13 2 13 14
M  V30 14 1 14 15
M  V30 15 1 12 16
M  V30 16 2 5 17
M  V30 17 1 17 18
M  V30 18 2 18 19
M  V30 19 1 19 20
M  V30 20 1 20 21
M  V30 21 1 19 3
M  V30 22 1 14 10
M  V30 23 1 1 22
M  V30 24 1 1 23
M  V30 25 1 1 24
M  V30 26 1 4 25
M  V30 27 1 6 26
M  V30 28 1 7 27
M  V30 29 1 15 28
M  V30 30 1 15 29
M  V30 31 1 16 30
M  V30 32 1 16 31
M  V30 33 1 17 32
M  V30 34 1 18 33
M  V30 35 1 21 34
M  V30 36 1 21 35
M  V30 37 1 21 36
M  V30 END BOND
M  V30 END CTAB
M  END
