
     RDKit          3D

  0  0  0  0  0  0  0  0  0  0999 V3000
M  V30 BEGIN CTAB
M  V30 COUNTS 33 34 0 0 0
M  V30 BEGIN ATOM
M  V30 1 N 6.33701 -0.311095 1.49078 0
M  V30 2 C 4.94412 -0.0319957 1.26878 0
M  V30 3 C 4.70311 0.273375 -0.17203 0
M  V30 4 N 3.27977 0.547465 -0.338134 0
M  V30 5 N 2.65748 1.71086 -0.24576 0
M  V30 6 N 1.35033 1.54584 -0.464174 0
M  V30 7 C 1.10287 0.231348 -0.708407 0
M  V30 8 C 2.34288 -0.368591 -0.620811 0
M  V30 9 C -0.162477 -0.410009 -0.99596 0
M  V30 10 O -0.192027 -1.63993 -1.19482 0
M  V30 11 N -1.34452 0.355668 -1.04873 0
M  V30 12 C -2.60904 -0.269594 -1.3336 0
M  V30 13 C -3.52374 -0.114179 -0.153883 0
M  V30 14 N -3.76264 0.962076 0.58798 0
M  V30 15 N -4.57527 0.898871 1.55176 0
M  V30 16 C -5.19292 -0.244434 1.82557 0
M  V30 17 S -4.55112 -1.2652 0.615985 0
M  V30 18 N -6.14722 -0.543217 2.8633 0
M  V30 19 C -3.22813 0.30256 -2.59 0
M  V30 20 H 6.72382 0.215726 2.32262 0
M  V30 21 H 6.88061 -0.000740087 0.659396 0
M  V30 22 H 4.28396 -0.858589 1.60744 0
M  V30 23 H 4.6905 0.873803 1.85651 0
M  V30 24 H 5.28405 1.20301 -0.430008 0
M  V30 25 H 5.03353 -0.518549 -0.859491 0
M  V30 26 H 2.53583 -1.43994 -0.761797 0
M  V30 27 H -1.35075 1.4032 -0.883981 0
M  V30 28 H -2.43147 -1.35234 -1.47875 0
M  V30 29 H -6.07631 0.000824721 3.72637 0
M  V30 30 H -6.86161 -1.2862 2.70453 0
M  V30 31 H -2.52566 1.00465 -3.10439 0
M  V30 32 H -4.17017 0.833564 -2.36299 0
M  V30 33 H -3.4448 -0.498708 -3.33331 0
M  V30 END ATOM
M  V30 BEGIN BOND
M  V30 1 1 1 2
M  V30 2 1 2 3
M  V30 3 1 3 4
M  V30 4 1 4 5
M  V30 5 2 5 6
M  V30 6 1 6 7
M  V30 7 2 7 8
M  V30 8 1 7 9
M  V30 9 2 9 10
M  V30 10 1 9 11
M  V30 11 1 11 12
M  V30 12 1 12 13
M  V30 13 2 13 14
M  V30 14 1 14 15
M  V30 15 2 15 16
M  V30 16 1 16 17
M  V30 17 1 16 18
M  V30 18 1 12 19
M  V30 19 1 8 4
M  V30 20 1 17 13
M  V30 21 1 1 20
M  V30 22 1 1 21
M  V30 23 1 2 22
M  V30 24 1 2 23
M  V30 25 1 3 24
M  V30 26 1 3 25
M  V30 27 1 8 26
M  V30 28 1 11 27
M  V30 29 1 12 28
M  V30 30 1 18 29
M  V30 31 1 18 30
M  V30 32 1 19 31
M  V30 33 1 19 32
M  V30 34 1 19 33
M  V30 END BOND
M  V30 END CTAB
M  END
