
     RDKit          3D

  0  0  0  0  0  0  0  0  0  0999 V3000
M  V30 BEGIN CTAB
M  V30 COUNTS 18 17 0 0 0
M  V30 BEGIN ATOM
M  V30 1 C -1.54815 0.886448 0.771634 0
M  V30 2 C -0.74164 -0.080217 0.00425564 0
M  V30 3 N -1.32982 -1.00902 -0.653086 0
M  V30 4 N -2.71539 -1.16886 -0.690848 0
M  V30 5 C 0.695517 0.0183212 -0.00667528 0
M  V30 6 C 1.57096 -0.924341 -0.760202 0
M  V30 7 N 1.27801 0.949744 0.652915 0
M  V30 8 N 2.62932 1.15848 0.729112 0
M  V30 9 H -2.59209 0.604769 0.903075 0
M  V30 10 H -1.51123 1.85322 0.209602 0
M  V30 11 H -1.00758 1.08066 1.7234 0
M  V30 12 H -3.1442 -1.33039 -1.6326 0
M  V30 13 H -3.3343 -1.13751 0.144836 0
M  V30 14 H 1.01185 -1.77615 -1.17691 0
M  V30 15 H 2.42845 -1.2449 -0.121427 0
M  V30 16 H 2.01554 -0.3581 -1.60389 0
M  V30 17 H 3.1152 1.15954 1.64286 0
M  V30 18 H 3.17955 1.3183 -0.136051 0
M  V30 END ATOM
M  V30 BEGIN BOND
M  V30 1 1 1 2
M  V30 2 2 2 3 CFG=2
M  V30 3 1 3 4
M  V30 4 1 2 5
M  V30 5 1 5 6
M  V30 6 2 5 7 CFG=2
M  V30 7 1 7 8
M  V30 8 1 1 9
M  V30 9 1 1 10
M  V30 10 1 1 11
M  V30 11 1 4 12
M  V30 12 1 4 13
M  V30 13 1 6 14
M  V30 14 1 6 15
M  V30 15 1 6 16
M  V30 16 1 8 17
M  V30 17 1 8 18
M  V30 END BOND
M  V30 END CTAB
M  END
