
     RDKit          3D

  0  0  0  0  0  0  0  0  0  0999 V3000
M  V30 BEGIN CTAB
M  V30 COUNTS 16 16 0 0 0
M  V30 BEGIN ATOM
M  V30 1 N -1.95394 0.995298 0.202828 0
M  V30 2 C -0.599138 0.605568 0.0584827 0
M  V30 3 C -0.31106 -0.75328 0.037461 0
M  V30 4 N -1.32821 -1.73936 0.15552 0
M  V30 5 C 1.01198 -1.11817 -0.103614 0
M  V30 6 F 1.29071 -2.44204 -0.123883 0
M  V30 7 C 2.03132 -0.195565 -0.221429 0
M  V30 8 F 3.33448 -0.5976 -0.360057 0
M  V30 9 C 1.74947 1.15554 -0.201026 0
M  V30 10 C 0.428523 1.53074 -0.0602557 0
M  V30 11 H -2.27408 1.32241 1.13564 0
M  V30 12 H -2.65154 0.975599 -0.56557 0
M  V30 13 H -1.19288 -2.65923 0.629368 0
M  V30 14 H -2.27215 -1.55305 -0.247926 0
M  V30 15 H 2.54921 1.88552 -0.293504 0
M  V30 16 H 0.187308 2.58763 -0.0420387 0
M  V30 END ATOM
M  V30 BEGIN BOND
M  V30 1 1 1 2
M  V30 2 2 2 3
M  V30 3 1 3 4
M  V30 4 1 3 5
M  V30 5 1 5 6
M  V30 6 2 5 7
M  V30 7 1 7 8
M  V30 8 1 7 9
M  V30 9 2 9 10
M  V30 10 1 10 2
M  V30 11 1 1 11
M  V30 12 1 1 12
M  V30 13 1 4 13
M  V30 14 1 4 14
M  V30 15 1 9 15
M  V30 16 1 10 16
M  V30 END BOND
M  V30 END CTAB
M  END
