
     RDKit          3D

  0  0  0  0  0  0  0  0  0  0999 V3000
M  V30 BEGIN CTAB
M  V30 COUNTS 19 20 0 0 0
M  V30 BEGIN ATOM
M  V30 1 N -3.57776 0.650968 0.421626 0
M  V30 2 C -2.27654 0.124941 0.207896 0
M  V30 3 N -1.17314 0.668345 0.0787718 0
M  V30 4 C -0.00868966 -0.04121 -0.125186 0
M  V30 5 C -0.186654 -1.51177 0.27654 0
M  V30 6 S -2.00665 -1.65608 0.0770347 0
M  V30 7 C 0.310743 -0.080825 -1.603 0
M  V30 8 S 2.13597 -0.103616 -1.5287 0
M  V30 9 C 2.21395 0.520477 0.146654 0
M  V30 10 N 1.06454 0.449183 0.610171 0
M  V30 11 N 3.44556 0.987429 0.72644 0
M  V30 12 H -4.36809 0.263705 -0.118236 0
M  V30 13 H -3.79014 1.41134 1.09564 0
M  V30 14 H 0.115305 -1.68811 1.31124 0
M  V30 15 H 0.34991 -2.18248 -0.394273 0
M  V30 16 H -0.0896454 -0.98613 -2.09874 0
M  V30 17 H 0.0290186 0.860541 -2.12177 0
M  V30 18 H 4.13139 0.31384 1.12029 0
M  V30 19 H 3.68092 1.99945 0.767078 0
M  V30 END ATOM
M  V30 BEGIN BOND
M  V30 1 1 1 2
M  V30 2 2 2 3
M  V30 3 1 3 4
M  V30 4 1 4 5
M  V30 5 1 5 6
M  V30 6 1 4 7
M  V30 7 1 7 8
M  V30 8 1 8 9
M  V30 9 2 9 10
M  V30 10 1 9 11
M  V30 11 1 6 2
M  V30 12 1 10 4
M  V30 13 1 1 12
M  V30 14 1 1 13
M  V30 15 1 5 14
M  V30 16 1 5 15
M  V30 17 1 7 16
M  V30 18 1 7 17
M  V30 19 1 11 18
M  V30 20 1 11 19
M  V30 END BOND
M  V30 END CTAB
M  END
