
     RDKit          3D

  0  0  0  0  0  0  0  0  0  0999 V3000
M  V30 BEGIN CTAB
M  V30 COUNTS 17 17 0 0 0
M  V30 BEGIN ATOM
M  V30 1 N 3.23547 0.222408 -0.465226 0
M  V30 2 C 2.40487 0.0166521 0.677532 0
M  V30 3 C 1.05426 -0.503676 0.349894 0
M  V30 4 S 0.471961 -2.10067 0.202581 0
M  V30 5 C -1.17253 -1.7314 -0.190121 0
M  V30 6 C -1.1431 -0.357829 -0.176503 0
M  V30 7 N -0.00781224 0.2075 0.0985102 0
M  V30 8 C -2.37374 0.419787 -0.46792 0
M  V30 9 S -3.2295 -0.00533366 -1.78288 0
M  V30 10 N -2.81735 1.48943 0.336088 0
M  V30 11 H 3.08676 -0.494898 -1.20171 0
M  V30 12 H 3.18292 1.17293 -0.875825 0
M  V30 13 H 2.94468 -0.688284 1.36904 0
M  V30 14 H 2.35125 0.974306 1.25486 0
M  V30 15 H -2.02289 -2.40142 -0.397294 0
M  V30 16 H -2.84949 2.44842 -0.044369 0
M  V30 17 H -3.11576 1.33207 1.31334 0
M  V30 END ATOM
M  V30 BEGIN BOND
M  V30 1 1 1 2
M  V30 2 1 2 3
M  V30 3 1 3 4
M  V30 4 1 4 5
M  V30 5 2 5 6
M  V30 6 1 6 7
M  V30 7 1 6 8
M  V30 8 2 8 9
M  V30 9 1 8 10
M  V30 10 2 7 3
M  V30 11 1 1 11
M  V30 12 1 1 12
M  V30 13 1 2 13
M  V30 14 1 2 14
M  V30 15 1 5 15
M  V30 16 1 10 16
M  V30 17 1 10 17
M  V30 END BOND
M  V30 END CTAB
M  END
