
     RDKit          3D

  0  0  0  0  0  0  0  0  0  0999 V3000
M  V30 BEGIN CTAB
M  V30 COUNTS 21 20 0 0 0
M  V30 BEGIN ATOM
M  V30 1 C -2.06064 -1.67319 0.841401 0
M  V30 2 C -1.12331 -0.492602 0.778803 0
M  V30 3 N 0.194406 -0.916794 0.44338 0
M  V30 4 C 1.31575 -0.0789191 0.300431 0
M  V30 5 N 1.63579 0.800678 1.18048 0
M  V30 6 N 2.74754 1.63539 1.04449 0
M  V30 7 N 2.13142 -0.200757 -0.854965 0
M  V30 8 C -1.70597 0.515524 -0.171525 0
M  V30 9 O -0.908332 1.65716 -0.197348 0
M  V30 10 H -2.42542 -1.85588 -0.19339 0
M  V30 11 H -2.88621 -1.49657 1.55482 0
M  V30 12 H -1.48922 -2.59054 1.15024 0
M  V30 13 H -1.12486 -0.0185079 1.79511 0
M  V30 14 H 0.352458 -1.94824 0.286596 0
M  V30 15 H 3.31733 1.62342 0.172786 0
M  V30 16 H 2.98139 2.26212 1.83872 0
M  V30 17 H 3.06508 -0.647163 -0.745303 0
M  V30 18 H 1.86101 0.12418 -1.79969 0
M  V30 19 H -2.69401 0.831232 0.273391 0
M  V30 20 H -1.92989 0.119458 -1.16485 0
M  V30 21 H -1.2543 2.35001 0.418048 0
M  V30 END ATOM
M  V30 BEGIN BOND
M  V30 1 1 1 2
M  V30 2 1 2 3
M  V30 3 1 3 4
M  V30 4 2 4 5 CFG=2
M  V30 5 1 5 6
M  V30 6 1 4 7
M  V30 7 1 2 8
M  V30 8 1 8 9
M  V30 9 1 1 10
M  V30 10 1 1 11
M  V30 11 1 1 12
M  V30 12 1 2 13
M  V30 13 1 3 14
M  V30 14 1 6 15
M  V30 15 1 6 16
M  V30 16 1 7 17
M  V30 17 1 7 18
M  V30 18 1 8 19
M  V30 19 1 8 20
M  V30 20 1 9 21
M  V30 END BOND
M  V30 END CTAB
M  END
