
     RDKit          3D

  0  0  0  0  0  0  0  0  0  0999 V3000
M  V30 BEGIN CTAB
M  V30 COUNTS 26 25 0 0 0
M  V30 BEGIN ATOM
M  V30 1 C 2.96766 0.947145 -0.0916749 0
M  V30 2 C 2.43119 -0.234788 -0.816486 0
M  V30 3 N 2.79508 -1.46097 -0.209691 0
M  V30 4 C 0.979779 -0.132181 -1.23426 0
M  V30 5 N 0.0758735 0.105581 -0.133939 0
M  V30 6 C -1.27551 -0.0890716 -0.589038 0
M  V30 7 C -2.29795 0.369793 0.422255 0
M  V30 8 C -3.67996 0.098227 -0.126403 0
M  V30 9 N -2.06642 -0.00672252 1.76973 0
M  V30 10 H 4.06623 1.00422 -0.254737 0
M  V30 11 H 2.50742 1.93205 -0.383059 0
M  V30 12 H 2.83087 0.781268 0.999431 0
M  V30 13 H 2.98729 -0.231552 -1.82433 0
M  V30 14 H 2.37645 -1.7242 0.679775 0
M  V30 15 H 3.82211 -1.58432 -0.218399 0
M  V30 16 H 0.74982 -0.994427 -1.85496 0
M  V30 17 H 0.940476 0.796514 -1.87818 0
M  V30 18 H 0.278118 -0.430401 0.721879 0
M  V30 19 H -1.4956 0.444846 -1.53599 0
M  V30 20 H -1.4206 -1.18403 -0.809186 0
M  V30 21 H -2.24551 1.53028 0.394651 0
M  V30 22 H -4.47621 0.426276 0.56389 0
M  V30 23 H -3.75258 0.555306 -1.12894 0
M  V30 24 H -3.8389 -1.0097 -0.234607 0
M  V30 25 H -1.35914 -0.752029 1.9275 0
M  V30 26 H -1.89998 0.842885 2.40123 0
M  V30 END ATOM
M  V30 BEGIN BOND
M  V30 1 1 1 2
M  V30 2 1 2 3
M  V30 3 1 2 4
M  V30 4 1 4 5
M  V30 5 1 5 6
M  V30 6 1 6 7
M  V30 7 1 7 8
M  V30 8 1 7 9
M  V30 9 1 1 10
M  V30 10 1 1 11
M  V30 11 1 1 12
M  V30 12 1 2 13
M  V30 13 1 3 14
M  V30 14 1 3 15
M  V30 15 1 4 16
M  V30 16 1 4 17
M  V30 17 1 5 18
M  V30 18 1 6 19
M  V30 19 1 6 20
M  V30 20 1 7 21
M  V30 21 1 8 22
M  V30 22 1 8 23
M  V30 23 1 8 24
M  V30 24 1 9 25
M  V30 25 1 9 26
M  V30 END BOND
M  V30 END CTAB
M  END
