
     RDKit          3D

  0  0  0  0  0  0  0  0  0  0999 V3000
M  V30 BEGIN CTAB
M  V30 COUNTS 38 39 0 0 0
M  V30 BEGIN ATOM
M  V30 1 C 5.18822 0.635869 1.8965 0
M  V30 2 O 4.95288 -0.23231 0.817357 0
M  V30 3 C 3.70096 -0.155541 0.177462 0
M  V30 4 C 3.40766 -0.974832 -0.88489 0
M  V30 5 N 4.39402 -1.89682 -1.32766 0
M  V30 6 C 2.16677 -0.886249 -1.50707 0
M  V30 7 C 1.19573 -0.00362511 -1.10835 0
M  V30 8 C 1.49987 0.824481 -0.0275686 0
M  V30 9 C 2.73761 0.738087 0.595334 0
M  V30 10 C -0.104394 0.15129 -1.78478 0
M  V30 11 C -0.125348 0.3054 -3.06981 0
M  V30 12 Cl 1.33037 0.337053 -4.01135 0
M  V30 13 Cl -1.65204 0.468565 -3.89579 0
M  V30 14 C -1.32815 0.151581 -0.977534 0
M  V30 15 C -1.53459 -0.856986 -0.0509095 0
M  V30 16 C -2.64618 -0.916843 0.737554 0
M  V30 17 N -2.89888 -1.95589 1.69797 0
M  V30 18 C -3.61799 0.0644545 0.620302 0
M  V30 19 O -4.75267 0.0532354 1.38516 0
M  V30 20 C -5.74831 1.04632 1.27337 0
M  V30 21 C -3.45352 1.09724 -0.295392 0
M  V30 22 C -2.3056 1.11155 -1.07314 0
M  V30 23 H 4.36308 0.516245 2.65237 0
M  V30 24 H 5.13718 1.6853 1.55269 0
M  V30 25 H 6.17147 0.458644 2.37982 0
M  V30 26 H 4.1184 -2.87951 -1.55548 0
M  V30 27 H 5.40415 -1.66016 -1.44541 0
M  V30 28 H 1.94074 -1.5582 -2.34441 0
M  V30 29 H 0.756946 1.53921 0.321513 0
M  V30 30 H 3.00045 1.37311 1.43843 0
M  V30 31 H -0.783816 -1.62213 0.0491686 0
M  V30 32 H -3.81598 -2.5004 1.63 0
M  V30 33 H -2.25742 -2.22508 2.45967 0
M  V30 34 H -6.70625 0.704979 1.74623 0
M  V30 35 H -6.01289 1.2821 0.228159 0
M  V30 36 H -5.35808 1.98295 1.73178 0
M  V30 37 H -4.18645 1.87378 -0.407363 0
M  V30 38 H -2.17797 1.92312 -1.77415 0
M  V30 END ATOM
M  V30 BEGIN BOND
M  V30 1 1 1 2
M  V30 2 1 2 3
M  V30 3 2 3 4
M  V30 4 1 4 5
M  V30 5 1 4 6
M  V30 6 2 6 7
M  V30 7 1 7 8
M  V30 8 2 8 9
M  V30 9 1 7 10
M  V30 10 2 10 11
M  V30 11 1 11 12
M  V30 12 1 11 13
M  V30 13 1 10 14
M  V30 14 2 14 15
M  V30 15 1 15 16
M  V30 16 1 16 17
M  V30 17 2 16 18
M  V30 18 1 18 19
M  V30 19 1 19 20
M  V30 20 1 18 21
M  V30 21 2 21 22
M  V30 22 1 9 3
M  V30 23 1 22 14
M  V30 24 1 1 23
M  V30 25 1 1 24
M  V30 26 1 1 25
M  V30 27 1 5 26
M  V30 28 1 5 27
M  V30 29 1 6 28
M  V30 30 1 8 29
M  V30 31 1 9 30
M  V30 32 1 15 31
M  V30 33 1 17 32
M  V30 34 1 17 33
M  V30 35 1 20 34
M  V30 36 1 20 35
M  V30 37 1 20 36
M  V30 38 1 21 37
M  V30 39 1 22 38
M  V30 END BOND
M  V30 END CTAB
M  END
