
     RDKit          3D

  0  0  0  0  0  0  0  0  0  0999 V3000
M  V30 BEGIN CTAB
M  V30 COUNTS 44 45 0 0 0
M  V30 BEGIN ATOM
M  V30 1 C -5.87278 0.0388875 0.598629 0
M  V30 2 C -5.27588 -0.578963 -0.64426 0
M  V30 3 C -3.86042 -0.0920975 -0.785934 0
M  V30 4 C -3.0324 -0.469531 0.378866 0
M  V30 5 O -3.4976 -1.11706 1.34509 0
M  V30 6 N -1.67801 -0.0902217 0.40495 0
M  V30 7 C -0.875644 -0.46241 1.54684 0
M  V30 8 C 0.276588 0.478064 1.81943 0
M  V30 9 N 0.849644 0.825677 0.538852 0
M  V30 10 C -0.0488839 1.5888 -0.327157 0
M  V30 11 C -1.16143 0.656134 -0.721539 0
M  V30 12 C 2.14936 0.460425 0.194259 0
M  V30 13 C 3.07557 0.0652431 1.13386 0
M  V30 14 C 4.36238 -0.303149 0.728002 0
M  V30 15 C 4.73383 -0.28176 -0.59707 0
M  V30 16 C 3.81693 0.109971 -1.53108 0
M  V30 17 C 2.54295 0.476738 -1.15071 0
M  V30 18 S 6.35226 -0.749917 -1.05989 0
M  V30 19 O 6.91916 -1.66391 0.00580631 0
M  V30 20 O 6.40191 -1.39592 -2.40144 0
M  V30 21 N 7.33206 0.693298 -1.02916 0
M  V30 22 N -5.24044 -2.01008 -0.51219 0
M  V30 23 H -5.93018 -0.7476 1.37597 0
M  V30 24 H -5.20478 0.84775 0.972149 0
M  V30 25 H -6.87873 0.434049 0.335086 0
M  V30 26 H -5.85867 -0.33213 -1.55549 0
M  V30 27 H -3.92289 1.03604 -0.785461 0
M  V30 28 H -3.3978 -0.364113 -1.7481 0
M  V30 29 H -1.49921 -0.51011 2.4637 0
M  V30 30 H -0.431228 -1.46062 1.31805 0
M  V30 31 H 0.941043 -0.00911345 2.52496 0
M  V30 32 H -0.173338 1.3663 2.32372 0
M  V30 33 H -0.524794 2.36333 0.345994 0
M  V30 34 H 0.46154 2.05167 -1.16083 0
M  V30 35 H -0.837806 -0.0919867 -1.47971 0
M  V30 36 H -1.94399 1.27303 -1.20997 0
M  V30 37 H 2.87133 0.0232258 2.19727 0
M  V30 38 H 5.11286 -0.620076 1.45654 0
M  V30 39 H 4.10925 0.12857 -2.58976 0
M  V30 40 H 1.81809 0.779261 -1.86582 0
M  V30 41 H 7.26584 1.21184 -1.93449 0
M  V30 42 H 6.99261 1.2913 -0.229955 0
M  V30 43 H -5.74937 -2.51098 -1.26341 0
M  V30 44 H -5.48894 -2.33785 0.446158 0
M  V30 END ATOM
M  V30 BEGIN BOND
M  V30 1 1 1 2
M  V30 2 1 2 3
M  V30 3 1 3 4
M  V30 4 2 4 5
M  V30 5 1 4 6
M  V30 6 1 6 7
M  V30 7 1 7 8
M  V30 8 1 8 9
M  V30 9 1 9 10
M  V30 10 1 10 11
M  V30 11 1 9 12
M  V30 12 2 12 13
M  V30 13 1 13 14
M  V30 14 2 14 15
M  V30 15 1 15 16
M  V30 16 2 16 17
M  V30 17 1 15 18
M  V30 18 2 18 19
M  V30 19 2 18 20
M  V30 20 1 18 21
M  V30 21 1 2 22
M  V30 22 1 11 6
M  V30 23 1 17 12
M  V30 24 1 1 23
M  V30 25 1 1 24
M  V30 26 1 1 25
M  V30 27 1 2 26
M  V30 28 1 3 27
M  V30 29 1 3 28
M  V30 30 1 7 29
M  V30 31 1 7 30
M  V30 32 1 8 31
M  V30 33 1 8 32
M  V30 34 1 10 33
M  V30 35 1 10 34
M  V30 36 1 11 35
M  V30 37 1 11 36
M  V30 38 1 13 37
M  V30 39 1 14 38
M  V30 40 1 16 39
M  V30 41 1 17 40
M  V30 42 1 21 41
M  V30 43 1 21 42
M  V30 44 1 22 43
M  V30 45 1 22 44
M  V30 END BOND
M  V30 END CTAB
M  END
