
     RDKit          3D

  0  0  0  0  0  0  0  0  0  0999 V3000
M  V30 BEGIN CTAB
M  V30 COUNTS 37 39 0 0 0
M  V30 BEGIN ATOM
M  V30 1 N 4.72677 0.296134 1.6064 0
M  V30 2 C 4.01599 -0.0990587 0.446184 0
M  V30 3 C 4.7479 -0.626106 -0.60238 0
M  V30 4 C 4.08209 -1.01073 -1.72385 0
M  V30 5 C 2.7045 -0.871552 -1.7986 0
M  V30 6 C 1.99347 -0.345266 -0.745668 0
M  V30 7 N 2.67522 0.0262797 0.349139 0
M  V30 8 C 0.520465 -0.20899 -0.855672 0 CFG=2
M  V30 9 C 0.104094 1.24356 -0.80121 0
M  V30 10 C -1.33542 1.40338 -0.587073 0
M  V30 11 C -1.91475 2.58505 -0.998047 0
M  V30 12 C -3.28203 2.75466 -0.815855 0
M  V30 13 C -4.04152 1.76332 -0.237246 0
M  V30 14 C -3.47281 0.587143 0.173444 0
M  V30 15 C -2.10275 0.416918 -0.00856848 0
M  V30 16 N -1.52236 -0.799641 0.425841 0
M  V30 17 C -0.1203 -1.04073 0.183644 0
M  V30 18 S -2.50904 -1.96617 1.24777 0
M  V30 19 O -1.58534 -3.11895 1.62448 0
M  V30 20 O -3.53664 -2.58188 0.341377 0
M  V30 21 N -3.15857 -1.37412 2.71409 0
M  V30 22 H 4.47594 1.19531 2.1016 0
M  V30 23 H 5.50354 -0.320659 1.96096 0
M  V30 24 H 5.81509 -0.727914 -0.530039 0
M  V30 25 H 4.57264 -1.43704 -2.60213 0
M  V30 26 H 2.18338 -1.17782 -2.68892 0
M  V30 27 H 0.200513 -0.58316 -1.84892 0
M  V30 28 H 0.392244 1.78774 -1.71673 0
M  V30 29 H 0.678053 1.70227 0.037385 0
M  V30 30 H -1.37196 3.39568 -1.45657 0
M  V30 31 H -3.73029 3.68913 -1.14263 0
M  V30 32 H -5.10347 1.91156 -0.103176 0
M  V30 33 H -4.03761 -0.205922 0.624469 0
M  V30 34 H 0.0831369 -2.11331 -0.0233285 0
M  V30 35 H 0.389689 -0.819008 1.16899 0
M  V30 36 H -4.21094 -1.44923 2.71932 0
M  V30 37 H -2.82893 -1.88091 3.56151 0
M  V30 END ATOM
M  V30 BEGIN BOND
M  V30 1 1 1 2
M  V30 2 2 2 3
M  V30 3 1 3 4
M  V30 4 2 4 5
M  V30 5 1 5 6
M  V30 6 2 6 7
M  V30 7 1 6 8
M  V30 8 1 8 9
M  V30 9 1 9 10
M  V30 10 2 10 11
M  V30 11 1 11 12
M  V30 12 2 12 13
M  V30 13 1 13 14
M  V30 14 2 14 15
M  V30 15 1 15 16
M  V30 16 1 16 17
M  V30 17 1 16 18
M  V30 18 2 18 19
M  V30 19 2 18 20
M  V30 20 1 18 21
M  V30 21 1 7 2
M  V30 22 1 17 8
M  V30 23 1 15 10
M  V30 24 1 1 22
M  V30 25 1 1 23
M  V30 26 1 3 24
M  V30 27 1 4 25
M  V30 28 1 5 26
M  V30 29 1 8 27 CFG=3
M  V30 30 1 9 28
M  V30 31 1 9 29
M  V30 32 1 11 30
M  V30 33 1 12 31
M  V30 34 1 13 32
M  V30 35 1 14 33
M  V30 36 1 17 34
M  V30 37 1 17 35
M  V30 38 1 21 36
M  V30 39 1 21 37
M  V30 END BOND
M  V30 END CTAB
M  END
