
     RDKit          3D

  0  0  0  0  0  0  0  0  0  0999 V3000
M  V30 BEGIN CTAB
M  V30 COUNTS 28 29 0 0 0
M  V30 BEGIN ATOM
M  V30 1 C -3.44528 0.103975 1.97316 0
M  V30 2 C -2.64271 0.141701 0.721963 0
M  V30 3 N -3.17626 0.377187 -0.490369 0
M  V30 4 C -2.45319 0.411966 -1.62379 0
M  V30 5 N -3.06412 0.666809 -2.8964 0
M  V30 6 C -1.0986 0.191669 -1.50732 0
M  V30 7 C -0.485417 -0.0585396 -0.273827 0
M  V30 8 C -1.27023 -0.0849549 0.866524 0
M  V30 9 C 0.954502 -0.290644 -0.200246 0
M  V30 10 C 1.57629 -1.16391 -1.08366 0
M  V30 11 C 2.94213 -1.37475 -0.997101 0
M  V30 12 C 3.68779 -0.722858 -0.0392556 0
M  V30 13 C 3.04052 0.130986 0.814708 0
M  V30 14 C 1.67374 0.374054 0.766086 0
M  V30 15 F 1.09186 1.24171 1.64719 0
M  V30 16 N 3.8071 0.799395 1.79735 0
M  V30 17 F 5.03636 -0.945035 0.0296744 0
M  V30 18 H -3.34441 -0.885743 2.4502 0
M  V30 19 H -4.49129 0.410196 1.80627 0
M  V30 20 H -2.99489 0.848927 2.66332 0
M  V30 21 H -3.2956 1.64545 -3.16834 0
M  V30 22 H -3.29292 -0.0905556 -3.57629 0
M  V30 23 H -0.476038 0.210908 -2.39925 0
M  V30 24 H -0.848246 -0.27754 1.85537 0
M  V30 25 H 0.966073 -1.65254 -1.81427 0
M  V30 26 H 3.4169 -2.06604 -1.70073 0
M  V30 27 H 3.93427 0.334444 2.71812 0
M  V30 28 H 4.25166 1.72373 1.66092 0
M  V30 END ATOM
M  V30 BEGIN BOND
M  V30 1 1 1 2
M  V30 2 2 2 3
M  V30 3 1 3 4
M  V30 4 1 4 5
M  V30 5 2 4 6
M  V30 6 1 6 7
M  V30 7 2 7 8
M  V30 8 1 7 9
M  V30 9 2 9 10
M  V30 10 1 10 11
M  V30 11 2 11 12
M  V30 12 1 12 13
M  V30 13 2 13 14
M  V30 14 1 14 15
M  V30 15 1 13 16
M  V30 16 1 12 17
M  V30 17 1 8 2
M  V30 18 1 14 9
M  V30 19 1 1 18
M  V30 20 1 1 19
M  V30 21 1 1 20
M  V30 22 1 5 21
M  V30 23 1 5 22
M  V30 24 1 6 23
M  V30 25 1 8 24
M  V30 26 1 10 25
M  V30 27 1 11 26
M  V30 28 1 16 27
M  V30 29 1 16 28
M  V30 END BOND
M  V30 END CTAB
M  END
