
     RDKit          3D

  0  0  0  0  0  0  0  0  0  0999 V3000
M  V30 BEGIN CTAB
M  V30 COUNTS 30 30 0 0 0
M  V30 BEGIN ATOM
M  V30 1 C -3.67049 -0.473895 0.14011 0
M  V30 2 C -2.96793 0.754441 -0.327148 0
M  V30 3 C -1.49421 0.785387 -0.0345707 0
M  V30 4 C -0.74132 -0.335313 -0.658428 0
M  V30 5 C 0.707957 -0.339535 -0.411211 0
M  V30 6 C 1.42744 0.697166 0.13899 0
M  V30 7 C 2.78508 0.617936 0.324889 0
M  V30 8 C 3.52564 1.75177 0.918162 0
M  V30 9 C 3.44059 -0.51661 -0.0443154 0
M  V30 10 N 2.75443 -1.52846 -0.578743 0
M  V30 11 C 1.41263 -1.47163 -0.771837 0
M  V30 12 N 0.81401 -2.61667 -1.34517 0
M  V30 13 F -0.921585 -0.426698 -2.01896 0
M  V30 14 N -1.33845 0.789874 1.42145 0
M  V30 15 H -4.60321 -0.564332 -0.492496 0
M  V30 16 H -4.02769 -0.349011 1.18399 0
M  V30 17 H -3.14053 -1.41655 0.00794431 0
M  V30 18 H -3.40371 1.61977 0.255475 0
M  V30 19 H -3.18768 0.987415 -1.38547 0
M  V30 20 H -1.09244 1.75018 -0.393649 0
M  V30 21 H -1.13473 -1.29175 -0.208876 0
M  V30 22 H 0.926119 1.60495 0.438557 0
M  V30 23 H 3.27759 1.78603 2.00953 0
M  V30 24 H 3.16398 2.68691 0.461468 0
M  V30 25 H 4.61509 1.61402 0.831338 0
M  V30 26 H 4.51186 -0.64067 0.0770231 0
M  V30 27 H 0.286912 -3.30188 -0.770867 0
M  V30 28 H 0.901478 -2.77546 -2.36526 0
M  V30 29 H -2.23899 0.470632 1.85583 0
M  V30 30 H -0.587853 0.131987 1.74224 0
M  V30 END ATOM
M  V30 BEGIN BOND
M  V30 1 1 1 2
M  V30 2 1 2 3
M  V30 3 1 3 4
M  V30 4 1 4 5
M  V30 5 2 5 6
M  V30 6 1 6 7
M  V30 7 1 7 8
M  V30 8 2 7 9
M  V30 9 1 9 10
M  V30 10 2 10 11
M  V30 11 1 11 12
M  V30 12 1 4 13
M  V30 13 1 3 14
M  V30 14 1 11 5
M  V30 15 1 1 15
M  V30 16 1 1 16
M  V30 17 1 1 17
M  V30 18 1 2 18
M  V30 19 1 2 19
M  V30 20 1 3 20
M  V30 21 1 4 21
M  V30 22 1 6 22
M  V30 23 1 8 23
M  V30 24 1 8 24
M  V30 25 1 8 25
M  V30 26 1 9 26
M  V30 27 1 12 27
M  V30 28 1 12 28
M  V30 29 1 14 29
M  V30 30 1 14 30
M  V30 END BOND
M  V30 END CTAB
M  END
