
     RDKit          3D

  0  0  0  0  0  0  0  0  0  0999 V3000
M  V30 BEGIN CTAB
M  V30 COUNTS 25 25 0 0 0
M  V30 BEGIN ATOM
M  V30 1 C 4.65112 0.906954 -0.904585 0
M  V30 2 O 3.69828 0.395335 -0.0187732 0
M  V30 3 C 2.36431 0.252473 -0.290738 0
M  V30 4 O 1.91441 0.589025 -1.39777 0
M  V30 5 C 1.46675 -0.305578 0.746007 0
M  V30 6 C 0.0626723 -0.406264 0.331626 0
M  V30 7 C -0.892426 0.489625 0.777826 0
M  V30 8 C -2.21393 0.401618 0.392905 0
M  V30 9 N -3.12561 1.36576 0.901551 0
M  V30 10 C -2.63371 -0.611536 -0.472813 0
M  V30 11 C -1.69027 -1.50722 -0.921897 0
M  V30 12 C -0.382373 -1.39354 -0.521043 0
M  V30 13 Br 0.920626 -2.65657 -1.1615 0
M  V30 14 N -3.98784 -0.647359 -0.826075 0
M  V30 15 H 5.64879 0.815359 -0.384447 0
M  V30 16 H 4.7639 0.329215 -1.83985 0
M  V30 17 H 4.54001 1.97604 -1.14521 0
M  V30 18 H 1.80479 -1.34645 0.998455 0
M  V30 19 H 1.57645 0.303612 1.65573 0
M  V30 20 H -0.606083 1.27815 1.44203 0
M  V30 21 H -3.78049 1.84871 0.265709 0
M  V30 22 H -3.08246 1.54086 1.9334 0
M  V30 23 H -2.01761 -2.29775 -1.59762 0
M  V30 24 H -4.33892 -0.0905454 -1.62809 0
M  V30 25 H -4.6604 -1.22993 -0.292055 0
M  V30 END ATOM
M  V30 BEGIN BOND
M  V30 1 1 1 2
M  V30 2 1 2 3
M  V30 3 2 3 4
M  V30 4 1 3 5
M  V30 5 1 5 6
M  V30 6 2 6 7
M  V30 7 1 7 8
M  V30 8 1 8 9
M  V30 9 2 8 10
M  V30 10 1 10 11
M  V30 11 2 11 12
M  V30 12 1 12 13
M  V30 13 1 10 14
M  V30 14 1 12 6
M  V30 15 1 1 15
M  V30 16 1 1 16
M  V30 17 1 1 17
M  V30 18 1 5 18
M  V30 19 1 5 19
M  V30 20 1 7 20
M  V30 21 1 9 21
M  V30 22 1 9 22
M  V30 23 1 11 23
M  V30 24 1 14 24
M  V30 25 1 14 25
M  V30 END BOND
M  V30 END CTAB
M  END
