
     RDKit          3D

  0  0  0  0  0  0  0  0  0  0999 V3000
M  V30 BEGIN CTAB
M  V30 COUNTS 38 40 0 0 0
M  V30 BEGIN ATOM
M  V30 1 N -0.600821 3.12203 0.218628 0
M  V30 2 C 0.043838 2.40038 1.30574 0
M  V30 3 C 0.634417 1.11714 0.881126 0
M  V30 4 N -0.163094 0.120916 0.278464 0
M  V30 5 C -1.57016 0.0608809 0.449815 0
M  V30 6 C -2.1689 0.391691 1.66525 0
M  V30 7 C -3.54168 0.345816 1.7267 0
M  V30 8 C -4.28237 -0.0184163 0.618517 0
M  V30 9 C -3.65308 -0.346463 -0.58004 0
M  V30 10 C -2.29375 -0.308748 -0.668371 0
M  V30 11 C -1.63703 -0.703383 -1.9314 0
M  V30 12 C -0.158617 -0.60893 -1.9581 0
M  V30 13 C 0.387842 -0.962946 -0.553894 0 CFG=1
M  V30 14 C 1.84457 -1.01379 -0.572103 0
M  V30 15 N 2.73309 -0.271678 -1.27508 0
M  V30 16 N 3.96263 -0.622147 -0.992142 0
M  V30 17 C 3.95989 -1.62431 -0.0788474 0
M  V30 18 C 2.62547 -1.8653 0.180246 0
M  V30 19 N 5.04104 -2.31731 0.519918 0
M  V30 20 H 0.0618431 3.54295 -0.449813 0
M  V30 21 H -1.25002 3.81239 0.662858 0
M  V30 22 H -0.492715 2.40295 2.23731 0
M  V30 23 H 0.931742 3.13192 1.55358 0
M  V30 24 H 1.49891 1.35021 0.232893 0
M  V30 25 H 1.14275 0.602816 1.78041 0
M  V30 26 H -1.51098 0.622778 2.47493 0
M  V30 27 H -4.04588 0.600033 2.64919 0
M  V30 28 H -5.36288 -0.0505597 0.678678 0
M  V30 29 H -4.27166 -0.629024 -1.43554 0
M  V30 30 H -1.88278 -1.80457 -2.06219 0
M  V30 31 H -2.12627 -0.221041 -2.82192 0
M  V30 32 H 0.259708 -1.39515 -2.62519 0
M  V30 33 H 0.223489 0.395578 -2.25467 0
M  V30 34 H -0.026024 -1.94572 -0.315715 0
M  V30 35 H 2.49223 0.479679 -1.95577 0
M  V30 36 H 2.26236 -2.62085 0.88255 0
M  V30 37 H 5.5742 -3.09313 0.0477018 0
M  V30 38 H 5.35868 -2.0767 1.48629 0
M  V30 END ATOM
M  V30 BEGIN BOND
M  V30 1 1 1 2
M  V30 2 1 2 3
M  V30 3 1 3 4
M  V30 4 1 4 5
M  V30 5 2 5 6
M  V30 6 1 6 7
M  V30 7 2 7 8
M  V30 8 1 8 9
M  V30 9 2 9 10
M  V30 10 1 10 11
M  V30 11 1 11 12
M  V30 12 1 12 13
M  V30 13 1 13 14
M  V30 14 1 14 15
M  V30 15 1 15 16
M  V30 16 2 16 17
M  V30 17 1 17 18
M  V30 18 1 17 19
M  V30 19 1 13 4
M  V30 20 2 18 14
M  V30 21 1 10 5
M  V30 22 1 1 20
M  V30 23 1 1 21
M  V30 24 1 2 22
M  V30 25 1 2 23
M  V30 26 1 3 24
M  V30 27 1 3 25
M  V30 28 1 6 26
M  V30 29 1 7 27
M  V30 30 1 8 28
M  V30 31 1 9 29
M  V30 32 1 11 30
M  V30 33 1 11 31
M  V30 34 1 12 32
M  V30 35 1 12 33
M  V30 36 1 13 34 CFG=1
M  V30 37 1 15 35
M  V30 38 1 18 36
M  V30 39 1 19 37
M  V30 40 1 19 38
M  V30 END BOND
M  V30 END CTAB
M  END
