
     RDKit          3D

  0  0  0  0  0  0  0  0  0  0999 V3000
M  V30 BEGIN CTAB
M  V30 COUNTS 46 48 0 0 0
M  V30 BEGIN ATOM
M  V30 1 O -4.54523 2.32296 1.27136 0
M  V30 2 C -4.5236 1.22882 0.650536 0
M  V30 3 C -5.78964 0.596614 0.270965 0
M  V30 4 C -7.05184 1.08172 0.525787 0
M  V30 5 N -7.36493 2.28073 1.2014 0
M  V30 6 O -7.8838 0.219961 0.0229775 0
M  V30 7 N -7.28067 -0.77241 -0.530584 0
M  V30 8 C -5.9752 -0.588268 -0.404753 0
M  V30 9 C -4.89752 -1.48754 -0.897725 0
M  V30 10 O -3.34966 0.585379 0.304386 0
M  V30 11 C -2.10582 1.19945 0.673307 0
M  V30 12 C -0.957846 0.383221 0.228647 0
M  V30 13 C -0.378303 0.562425 -1.00913 0
M  V30 14 C 0.689565 -0.181119 -1.44973 0
M  V30 15 C 1.20928 -1.14628 -0.63021 0
M  V30 16 C 0.645295 -1.34104 0.609206 0
M  V30 17 C -0.425439 -0.595292 1.0506 0
M  V30 18 C 2.34866 -1.94831 -1.08373 0
M  V30 19 O 3.58841 -1.62057 -0.552209 0
M  V30 20 C 4.26038 -0.413563 -0.652326 0
M  V30 21 O 3.68463 0.493973 -1.30023 0
M  V30 22 C 5.5725 -0.211054 -0.0337892 0
M  V30 23 C 6.35535 -1.06641 0.70395 0
M  V30 24 N 6.01119 -2.39807 1.02495 0
M  V30 25 O 7.46363 -0.417459 1.04554 0
M  V30 26 N 7.44563 0.783501 0.582189 0
M  V30 27 C 6.27869 0.967241 -0.105112 0
M  V30 28 C 5.91375 2.20844 -0.767576 0
M  V30 29 H -7.23876 3.19758 0.691718 0
M  V30 30 H -7.71525 2.27818 2.18529 0
M  V30 31 H -4.21215 -1.69695 -0.0466286 0
M  V30 32 H -4.36326 -1.02977 -1.74212 0
M  V30 33 H -5.34433 -2.47018 -1.17809 0
M  V30 34 H -2.10708 2.18673 0.131402 0
M  V30 35 H -2.10929 1.42392 1.74615 0
M  V30 36 H -0.81194 1.34695 -1.65725 0
M  V30 37 H 1.05998 0.0508311 -2.44336 0
M  V30 38 H 1.01572 -2.09778 1.31118 0
M  V30 39 H -0.886293 -0.724715 2.01244 0
M  V30 40 H 2.39273 -2.01803 -2.21186 0
M  V30 41 H 2.15012 -3.01846 -0.77725 0
M  V30 42 H 5.87923 -3.09091 0.26503 0
M  V30 43 H 5.89376 -2.66917 2.02243 0
M  V30 44 H 6.57017 3.02112 -0.461195 0
M  V30 45 H 6.01651 2.04769 -1.87549 0
M  V30 46 H 4.87267 2.53591 -0.608329 0
M  V30 END ATOM
M  V30 BEGIN BOND
M  V30 1 2 1 2
M  V30 2 1 2 3
M  V30 3 2 3 4
M  V30 4 1 4 5
M  V30 5 1 4 6
M  V30 6 1 6 7
M  V30 7 2 7 8
M  V30 8 1 8 9
M  V30 9 1 2 10
M  V30 10 1 10 11
M  V30 11 1 11 12
M  V30 12 2 12 13
M  V30 13 1 13 14
M  V30 14 2 14 15
M  V30 15 1 15 16
M  V30 16 2 16 17
M  V30 17 1 15 18
M  V30 18 1 18 19
M  V30 19 1 19 20
M  V30 20 2 20 21
M  V30 21 1 20 22
M  V30 22 2 22 23
M  V30 23 1 23 24
M  V30 24 1 23 25
M  V30 25 1 25 26
M  V30 26 2 26 27
M  V30 27 1 27 28
M  V30 28 1 8 3
M  V30 29 1 17 12
M  V30 30 1 27 22
M  V30 31 1 5 29
M  V30 32 1 5 30
M  V30 33 1 9 31
M  V30 34 1 9 32
M  V30 35 1 9 33
M  V30 36 1 11 34
M  V30 37 1 11 35
M  V30 38 1 13 36
M  V30 39 1 14 37
M  V30 40 1 16 38
M  V30 41 1 17 39
M  V30 42 1 18 40
M  V30 43 1 18 41
M  V30 44 1 24 42
M  V30 45 1 24 43
M  V30 46 1 28 44
M  V30 47 1 28 45
M  V30 48 1 28 46
M  V30 END BOND
M  V30 END CTAB
M  END
