
     RDKit          3D

  0  0  0  0  0  0  0  0  0  0999 V3000
M  V30 BEGIN CTAB
M  V30 COUNTS 101 106 0 0 0
M  V30 BEGIN ATOM
M  V30 1 N -2.67918 1.57147 2.77404 0
M  V30 2 C -2.82406 0.901454 1.8256 0
M  V30 3 C -3.0101 0.0659104 0.688874 0
M  V30 4 C -4.21465 0.176534 -0.00334155 0
M  V30 5 C -4.53135 -0.560747 -1.09269 0
M  V30 6 C -3.51737 -1.47761 -1.47646 0
M  V30 7 C -2.34384 -1.59036 -0.800711 0
M  V30 8 C -2.01508 -0.838179 0.308349 0
M  V30 9 C -0.764582 -0.988443 1.01714 0
M  V30 10 C 0.465649 -0.257889 0.670089 0
M  V30 11 C 0.809032 0.958792 1.25815 0
M  V30 12 C 1.99794 1.64854 0.947144 0
M  V30 13 C 2.89391 1.16746 0.0518383 0
M  V30 14 C 2.55148 -0.0513736 -0.540571 0
M  V30 15 C 1.38689 -0.734855 -0.243102 0
M  V30 16 C 1.21904 -2.03034 -0.844882 0
M  V30 17 N 1.13103 -3.07351 -1.322 0
M  V30 18 N 4.20029 1.68828 -0.240442 0
M  V30 19 C 4.94618 2.37563 0.696089 0
M  V30 20 O 4.38487 2.55116 1.85708 0
M  V30 21 C 6.29362 2.96268 0.643798 0
M  V30 22 S 7.41525 1.63158 1.21106 0
M  V30 23 C 7.97688 0.683181 -0.170467 0
M  V30 24 N 7.96056 1.12824 -1.38012 0
M  V30 25 C 8.44749 0.377809 -2.4666 0
M  V30 26 N 8.97813 -0.793107 -2.33984 0
M  V30 27 C 9.13026 -1.42594 -1.06438 0
M  V30 28 N 8.33734 -0.698489 -0.0648853 0
M  V30 29 C 10.5513 -1.29976 -0.538185 0
M  V30 30 C 11.6408 -1.16875 -1.3012 0
M  V30 31 C 12.9255 -1.00145 -0.729816 0
M  V30 32 C 13.1028 -0.964527 0.627068 0
M  V30 33 C 11.9526 -1.10778 1.41878 0
M  V30 34 C 10.7229 -1.26925 0.856572 0
M  V30 35 O 12.1838 -1.07168 2.77523 0
M  V30 36 C 11.187 -1.22245 3.72907 0
M  V30 37 O 14.3239 -0.788253 1.26819 0
M  V30 38 C 15.5634 -0.591005 0.668193 0
M  V30 39 N 8.36575 0.904857 -3.7786 0
M  V30 40 N -5.68628 -0.576449 -1.84913 0
M  V30 41 C -6.60137 0.177433 -2.48482 0
M  V30 42 O -7.34099 0.911198 -3.01248 0
M  V30 43 C -5.62893 1.75531 -2.2162 0
M  V30 44 S -6.89513 2.97183 -2.14394 0
M  V30 45 C -7.95031 2.87618 -0.717891 0
M  V30 46 N -8.65205 3.92156 -0.356315 0
M  V30 47 C -9.51464 3.95266 0.748851 0
M  V30 48 N -9.61706 2.87393 1.44919 0
M  V30 49 C -8.93745 1.64069 1.21746 0
M  V30 50 N -8.00035 1.73702 0.107678 0
M  V30 51 C -9.93628 0.576932 0.858541 0
M  V30 52 C -11.2649 0.788234 0.962678 0
M  V30 53 C -12.1998 -0.16014 0.683794 0
M  V30 54 C -11.7278 -1.45294 0.255739 0
M  V30 55 C -10.3714 -1.66593 0.150888 0
M  V30 56 C -9.45813 -0.650405 0.450967 0
M  V30 57 O -9.88906 -2.90667 -0.264287 0
M  V30 58 C -8.53176 -3.14197 -0.403636 0
M  V30 59 O -12.6126 -2.3795 -0.024073 0
M  V30 60 C -13.6387 -3.11761 -0.241397 0
M  V30 61 N -10.2432 5.13613 1.09481 0
M  V30 62 H -4.94572 0.866141 0.424103 0
M  V30 63 H -3.70369 -2.08768 -2.33505 0
M  V30 64 H -1.65271 -2.35482 -1.15111 0
M  V30 65 H -1.01988 -0.75984 2.13393 0
M  V30 66 H -0.502896 -2.11007 1.14413 0
M  V30 67 H 0.152089 1.38929 1.97589 0
M  V30 68 H 2.17169 2.58132 1.42942 0
M  V30 69 H 3.26086 -0.451364 -1.27258 0
M  V30 70 H 4.56628 1.52306 -1.20043 0
M  V30 71 H 6.42302 3.8405 1.27816 0
M  V30 72 H 6.47794 3.16776 -0.448008 0
M  V30 73 H 8.86192 -2.47018 -1.00861 0
M  V30 74 H 8.00709 -1.22906 0.750267 0
M  V30 75 H 11.5698 -1.18341 -2.39156 0
M  V30 76 H 13.7935 -0.896844 -1.37637 0
M  V30 77 H 9.82632 -1.39179 1.44773 0
M  V30 78 H 11.2571 -2.23344 4.23978 0
M  V30 79 H 11.2911 -0.506214 4.58433 0
M  V30 80 H 10.1794 -1.14096 3.30223 0
M  V30 81 H 16.189 -1.49085 0.588265 0
M  V30 82 H 16.1491 0.113343 1.35431 0
M  V30 83 H 15.4951 0.00596064 -0.272008 0
M  V30 84 H 8.46267 1.88893 -3.98377 0
M  V30 85 H 8.1956 0.250966 -4.56538 0
M  V30 86 H -5.98695 -1.72396 -1.95449 0
M  V30 87 H -5.23141 1.46805 -1.3763 0
M  V30 88 H -5.10773 1.63922 -3.1429 0
M  V30 89 H -8.44174 1.28113 2.12125 0
M  V30 90 H -7.40156 0.903277 -0.0297605 0
M  V30 91 H -11.5852 1.78316 1.29053 0
M  V30 92 H -13.254 -0.0345371 0.750112 0
M  V30 93 H -8.40745 -0.892876 0.342873 0
M  V30 94 H -8.39814 -4.26888 -0.559292 0
M  V30 95 H -7.87095 -2.91607 0.426308 0
M  V30 96 H -8.12843 -2.61724 -1.30622 0
M  V30 97 H -14.2391 -3.46441 0.662925 0
M  V30 98 H -13.4435 -4.12092 -0.778639 0
M  V30 99 H -14.4431 -2.59627 -0.865026 0
M  V30 100 H -11.2315 5.10119 1.36357 0
M  V30 101 H -9.78089 6.08309 1.0747 0
M  V30 END ATOM
M  V30 BEGIN BOND
M  V30 1 3 1 2
M  V30 2 1 2 3
M  V30 3 2 3 4
M  V30 4 1 4 5
M  V30 5 2 5 6
M  V30 6 1 6 7
M  V30 7 2 7 8
M  V30 8 1 8 9
M  V30 9 1 9 10
M  V30 10 2 10 11
M  V30 11 1 11 12
M  V30 12 2 12 13
M  V30 13 1 13 14
M  V30 14 2 14 15
M  V30 15 1 15 16
M  V30 16 3 16 17
M  V30 17 1 13 18
M  V30 18 1 18 19
M  V30 19 2 19 20
M  V30 20 1 19 21
M  V30 21 1 21 22
M  V30 22 1 22 23
M  V30 23 2 23 24
M  V30 24 1 24 25
M  V30 25 2 25 26
M  V30 26 1 26 27
M  V30 27 1 27 28
M  V30 28 1 27 29
M  V30 29 2 29 30
M  V30 30 1 30 31
M  V30 31 2 31 32
M  V30 32 1 32 33
M  V30 33 2 33 34
M  V30 34 1 33 35
M  V30 35 1 35 36
M  V30 36 1 32 37
M  V30 37 1 37 38
M  V30 38 1 25 39
M  V30 39 1 5 40
M  V30 40 1 40 41
M  V30 41 2 41 42
M  V30 42 1 41 43
M  V30 43 1 43 44
M  V30 44 1 44 45
M  V30 45 2 45 46
M  V30 46 1 46 47
M  V30 47 2 47 48
M  V30 48 1 48 49
M  V30 49 1 49 50
M  V30 50 1 49 51
M  V30 51 2 51 52
M  V30 52 1 52 53
M  V30 53 2 53 54
M  V30 54 1 54 55
M  V30 55 2 55 56
M  V30 56 1 55 57
M  V30 57 1 57 58
M  V30 58 1 54 59
M  V30 59 1 59 60
M  V30 60 1 47 61
M  V30 61 1 8 3
M  V30 62 1 15 10
M  V30 63 1 28 23
M  V30 64 1 34 29
M  V30 65 1 50 45
M  V30 66 1 56 51
M  V30 67 1 4 62
M  V30 68 1 6 63
M  V30 69 1 7 64
M  V30 70 1 9 65
M  V30 71 1 9 66
M  V30 72 1 11 67
M  V30 73 1 12 68
M  V30 74 1 14 69
M  V30 75 1 18 70
M  V30 76 1 21 71
M  V30 77 1 21 72
M  V30 78 1 27 73
M  V30 79 1 28 74
M  V30 80 1 30 75
M  V30 81 1 31 76
M  V30 82 1 34 77
M  V30 83 1 36 78
M  V30 84 1 36 79
M  V30 85 1 36 80
M  V30 86 1 38 81
M  V30 87 1 38 82
M  V30 88 1 38 83
M  V30 89 1 39 84
M  V30 90 1 39 85
M  V30 91 1 40 86
M  V30 92 1 43 87
M  V30 93 1 43 88
M  V30 94 1 49 89
M  V30 95 1 50 90
M  V30 96 1 52 91
M  V30 97 1 53 92
M  V30 98 1 56 93
M  V30 99 1 58 94
M  V30 100 1 58 95
M  V30 101 1 58 96
M  V30 102 1 60 97
M  V30 103 1 60 98
M  V30 104 1 60 99
M  V30 105 1 61 100
M  V30 106 1 61 101
M  V30 END BOND
M  V30 END CTAB
M  END
