
     RDKit          3D

  0  0  0  0  0  0  0  0  0  0999 V3000
M  V30 BEGIN CTAB
M  V30 COUNTS 80 83 0 0 0
M  V30 BEGIN ATOM
M  V30 1 N 6.00169 1.71477 -1.1213 0
M  V30 2 C 5.68737 0.846013 -0.0536325 0
M  V30 3 C 4.78181 1.14126 0.941923 0
M  V30 4 N 4.78427 0.044934 1.75338 0
M  V30 5 C 5.64872 -0.84452 1.25458 0
M  V30 6 N 6.22248 -0.372513 0.134005 0
M  V30 7 C 7.19388 -1.01115 -0.694745 0 CFG=2
M  V30 8 O 7.05033 -2.39495 -0.723266 0
M  V30 9 C 8.22189 -2.92088 -1.21173 0 CFG=2
M  V30 10 C 8.6 -4.22849 -0.538242 0
M  V30 11 O 8.75958 -4.00826 0.815291 0
M  V30 12 C 9.32305 -1.93443 -0.9663 0 CFG=1
M  V30 13 O 9.65863 -1.32402 -2.17085 0
M  V30 14 C 8.60722 -0.875334 -0.130272 0 CFG=1
M  V30 15 O 9.1205 0.397192 -0.367792 0
M  V30 16 C 3.97311 2.35494 1.12458 0
M  V30 17 O 4.11848 3.25469 0.260614 0
M  V30 18 N 3.10032 2.4619 2.21579 0
M  V30 19 C 2.25713 3.57579 2.51454 0
M  V30 20 C 1.28313 3.80723 1.38957 0
M  V30 21 C 0.433033 2.57589 1.19974 0
M  V30 22 C -0.564142 2.71856 0.0938631 0
M  V30 23 C -1.55013 3.82485 0.262766 0
M  V30 24 C -2.39012 3.7052 1.49388 0
M  V30 25 N -3.17996 2.51438 1.56836 0
M  V30 26 C -4.15778 2.18181 0.617172 0
M  V30 27 O -4.36745 2.9466 -0.349426 0
M  V30 28 C -4.92463 0.960602 0.74717 0
M  V30 29 C -5.92455 0.478637 -0.096493 0
M  V30 30 N -6.38619 1.11262 -1.26797 0
M  V30 31 N -6.39878 -0.687265 0.359187 0
M  V30 32 C -5.6812 -0.921548 1.49418 0
M  V30 33 N -4.81801 0.0568071 1.70916 0
M  V30 34 C -7.39375 -1.57766 -0.102128 0 CFG=2
M  V30 35 O -6.90364 -2.63427 -0.904144 0
M  V30 36 C -8.10665 -3.34697 -1.10756 0 CFG=2
M  V30 37 C -7.87076 -4.24566 -2.2934 0
M  V30 38 O -6.80114 -5.09247 -1.95249 0
M  V30 39 C -9.19287 -2.33799 -1.33093 0 CFG=1
M  V30 40 O -10.2791 -2.51224 -0.475501 0
M  V30 41 C -8.4531 -1.03135 -0.982285 0 CFG=1
M  V30 42 O -9.36834 -0.222192 -0.357212 0
M  V30 43 H 6.79165 2.37596 -0.994448 0
M  V30 44 H 5.48814 1.72884 -2.02337 0
M  V30 45 H 5.83148 -1.81463 1.7301 0
M  V30 46 H 7.2194 -0.652533 -1.72542 0
M  V30 47 H 8.09805 -3.09968 -2.31804 0
M  V30 48 H 9.61894 -4.49852 -0.940239 0
M  V30 49 H 7.92272 -5.04393 -0.793423 0
M  V30 50 H 7.87722 -4.21332 1.24164 0
M  V30 51 H 10.1977 -2.35426 -0.441568 0
M  V30 52 H 9.20649 -1.77085 -2.93302 0
M  V30 53 H 8.66888 -1.18519 0.921216 0
M  V30 54 H 8.91172 0.956641 0.424305 0
M  V30 55 H 3.05945 1.63734 2.8869 0
M  V30 56 H 2.85315 4.50848 2.6394 0
M  V30 57 H 1.70215 3.39971 3.45351 0
M  V30 58 H 0.650987 4.70978 1.58183 0
M  V30 59 H 1.8227 4.02042 0.460084 0
M  V30 60 H 1.0883 1.70537 0.993565 0
M  V30 61 H -0.0367343 2.36632 2.18376 0
M  V30 62 H -1.03471 1.7388 -0.128248 0
M  V30 63 H 0.0291852 2.95736 -0.834309 0
M  V30 64 H -0.969081 4.78384 0.368917 0
M  V30 65 H -2.13793 3.91113 -0.659112 0
M  V30 66 H -3.11907 4.5667 1.46961 0
M  V30 67 H -1.79737 3.87032 2.41099 0
M  V30 68 H -3.01139 1.86992 2.37343 0
M  V30 69 H -6.9515 1.97832 -1.20302 0
M  V30 70 H -6.17274 0.731164 -2.20695 0
M  V30 71 H -5.77775 -1.78395 2.1575 0
M  V30 72 H -7.92811 -2.11738 0.737456 0
M  V30 73 H -8.35651 -3.93907 -0.186241 0
M  V30 74 H -8.76643 -4.81145 -2.57613 0
M  V30 75 H -7.50103 -3.60509 -3.11995 0
M  V30 76 H -7.06566 -6.02452 -2.09725 0
M  V30 77 H -9.59097 -2.31745 -2.35396 0
M  V30 78 H -9.93598 -2.41609 0.454932 0
M  V30 79 H -8.11217 -0.662297 -1.96964 0
M  V30 80 H -8.88749 0.343323 0.298352 0
M  V30 END ATOM
M  V30 BEGIN BOND
M  V30 1 1 1 2
M  V30 2 2 2 3
M  V30 3 1 3 4
M  V30 4 2 4 5
M  V30 5 1 5 6
M  V30 6 1 6 7
M  V30 7 1 7 8
M  V30 8 1 8 9
M  V30 9 1 9 10
M  V30 10 1 10 11
M  V30 11 1 9 12
M  V30 12 1 12 13
M  V30 13 1 12 14
M  V30 14 1 14 15
M  V30 15 1 3 16
M  V30 16 2 16 17
M  V30 17 1 16 18
M  V30 18 1 18 19
M  V30 19 1 19 20
M  V30 20 1 20 21
M  V30 21 1 21 22
M  V30 22 1 22 23
M  V30 23 1 23 24
M  V30 24 1 24 25
M  V30 25 1 25 26
M  V30 26 2 26 27
M  V30 27 1 26 28
M  V30 28 2 28 29
M  V30 29 1 29 30
M  V30 30 1 29 31
M  V30 31 1 31 32
M  V30 32 2 32 33
M  V30 33 1 31 34
M  V30 34 1 34 35
M  V30 35 1 35 36
M  V30 36 1 36 37
M  V30 37 1 37 38
M  V30 38 1 36 39
M  V30 39 1 39 40
M  V30 40 1 39 41
M  V30 41 1 41 42
M  V30 42 1 6 2
M  V30 43 1 14 7
M  V30 44 1 33 28
M  V30 45 1 41 34
M  V30 46 1 1 43
M  V30 47 1 1 44
M  V30 48 1 5 45
M  V30 49 1 7 46 CFG=3
M  V30 50 1 9 47 CFG=3
M  V30 51 1 10 48
M  V30 52 1 10 49
M  V30 53 1 11 50
M  V30 54 1 12 51 CFG=1
M  V30 55 1 13 52
M  V30 56 1 14 53 CFG=1
M  V30 57 1 15 54
M  V30 58 1 18 55
M  V30 59 1 19 56
M  V30 60 1 19 57
M  V30 61 1 20 58
M  V30 62 1 20 59
M  V30 63 1 21 60
M  V30 64 1 21 61
M  V30 65 1 22 62
M  V30 66 1 22 63
M  V30 67 1 23 64
M  V30 68 1 23 65
M  V30 69 1 24 66
M  V30 70 1 24 67
M  V30 71 1 25 68
M  V30 72 1 30 69
M  V30 73 1 30 70
M  V30 74 1 32 71
M  V30 75 1 34 72 CFG=1
M  V30 76 1 36 73 CFG=1
M  V30 77 1 37 74
M  V30 78 1 37 75
M  V30 79 1 38 76
M  V30 80 1 39 77 CFG=3
M  V30 81 1 40 78
M  V30 82 1 41 79 CFG=3
M  V30 83 1 42 80
M  V30 END BOND
M  V30 END CTAB
M  END
