
     RDKit          3D

  0  0  0  0  0  0  0  0  0  0999 V3000
M  V30 BEGIN CTAB
M  V30 COUNTS 31 31 0 0 0
M  V30 BEGIN ATOM
M  V30 1 N 4.48287 0.0814183 0.987363 0
M  V30 2 C 4.0616 -0.733003 -0.137736 0
M  V30 3 C 2.70946 -0.307532 -0.661633 0
M  V30 4 C 1.6518 -0.419404 0.375323 0
M  V30 5 O 1.89682 -0.827642 1.54626 0
M  V30 6 N 0.344421 -0.0583964 0.0342145 0
M  V30 7 C -0.0136358 0.418777 -1.28836 0
M  V30 8 C -1.49959 0.488883 -1.47406 0
M  V30 9 N -2.21166 1.09377 -0.402936 0
M  V30 10 C -1.55059 1.12011 0.85876 0
M  V30 11 C -0.730593 -0.144875 0.999114 0
M  V30 12 S -3.85728 0.590063 -0.312052 0
M  V30 13 O -4.55706 0.878705 -1.59681 0
M  V30 14 O -4.59668 1.25841 0.785925 0
M  V30 15 N -3.86119 -1.1165 -0.0396041 0
M  V30 16 H 4.44778 -0.409049 1.89032 0
M  V30 17 H 5.40169 0.548823 0.80663 0
M  V30 18 H 4.04691 -1.80451 0.0799364 0
M  V30 19 H 4.78972 -0.558945 -0.956918 0
M  V30 20 H 2.4472 -1.02786 -1.47193 0
M  V30 21 H 2.69181 0.705583 -1.06029 0
M  V30 22 H 0.358843 -0.370834 -2.00479 0
M  V30 23 H 0.506251 1.35865 -1.55144 0
M  V30 24 H -1.68979 0.975127 -2.45747 0
M  V30 25 H -1.86964 -0.566463 -1.58572 0
M  V30 26 H -2.35389 1.1476 1.6518 0
M  V30 27 H -0.851789 1.97012 0.993902 0
M  V30 28 H -0.369887 -0.294099 2.03627 0
M  V30 29 H -1.37531 -0.995083 0.684823 0
M  V30 30 H -3.99045 -1.37528 0.944188 0
M  V30 31 H -4.45816 -1.62657 -0.718295 0
M  V30 END ATOM
M  V30 BEGIN BOND
M  V30 1 1 1 2
M  V30 2 1 2 3
M  V30 3 1 3 4
M  V30 4 2 4 5
M  V30 5 1 4 6
M  V30 6 1 6 7
M  V30 7 1 7 8
M  V30 8 1 8 9
M  V30 9 1 9 10
M  V30 10 1 10 11
M  V30 11 1 9 12
M  V30 12 2 12 13
M  V30 13 2 12 14
M  V30 14 1 12 15
M  V30 15 1 11 6
M  V30 16 1 1 16
M  V30 17 1 1 17
M  V30 18 1 2 18
M  V30 19 1 2 19
M  V30 20 1 3 20
M  V30 21 1 3 21
M  V30 22 1 7 22
M  V30 23 1 7 23
M  V30 24 1 8 24
M  V30 25 1 8 25
M  V30 26 1 10 26
M  V30 27 1 10 27
M  V30 28 1 11 28
M  V30 29 1 11 29
M  V30 30 1 15 30
M  V30 31 1 15 31
M  V30 END BOND
M  V30 END CTAB
M  END
