
     RDKit          3D

  0  0  0  0  0  0  0  0  0  0999 V3000
M  V30 BEGIN CTAB
M  V30 COUNTS 52 54 0 0 0
M  V30 BEGIN ATOM
M  V30 1 C -1.56892 -0.495196 -0.180567 0 CFG=1
M  V30 2 C -0.921103 -1.69928 0.426623 0
M  V30 3 C 0.34463 -2.13519 -0.225295 0
M  V30 4 C 1.28543 -1.02698 -0.585461 0 CFG=2
M  V30 5 C 2.49588 -0.995837 0.357245 0
M  V30 6 C 3.40678 0.0517508 -0.172809 0
M  V30 7 C 2.99519 0.756186 -1.41072 0
M  V30 8 C 1.57554 1.2915 -1.30746 0
M  V30 9 C 0.668333 0.338735 -0.569155 0 CFG=1
M  V30 10 C -0.69203 0.215915 -1.17989 0 CFG=2
M  V30 11 C -1.3093 1.55216 -1.51263 0
M  V30 12 C -2.73491 1.45502 -1.93069 0
M  V30 13 C -3.52497 0.439616 -1.22344 0
M  V30 14 C -2.86225 -0.853355 -0.900412 0
M  V30 15 N -4.74135 0.700929 -0.914084 0
M  V30 16 N -5.59556 -0.1526 -0.253788 0
M  V30 17 C -5.99061 -0.0274735 1.10279 0
M  V30 18 N -6.09933 -1.22046 1.86428 0
M  V30 19 N -6.24474 1.11012 1.64114 0
M  V30 20 N 4.52158 0.356629 0.404282 0
M  V30 21 N 4.96105 -0.272136 1.57125 0
M  V30 22 C 6.35569 -0.281505 1.85472 0
M  V30 23 N 6.83946 -0.531566 3.16094 0
M  V30 24 N 7.23097 -0.0628085 0.933574 0
M  V30 25 H -1.83927 0.246783 0.599006 0
M  V30 26 H -1.64941 -2.53754 0.359252 0
M  V30 27 H -0.751749 -1.52882 1.51181 0
M  V30 28 H 0.889991 -2.80279 0.492917 0
M  V30 29 H 0.149885 -2.76131 -1.12109 0
M  V30 30 H 1.70807 -1.18935 -1.59961 0
M  V30 31 H 2.2115 -0.721272 1.37598 0
M  V30 32 H 2.9715 -1.98919 0.393563 0
M  V30 33 H 3.12175 0.10731 -2.31319 0
M  V30 34 H 3.66325 1.6339 -1.57403 0
M  V30 35 H 1.2507 1.51276 -2.3313 0
M  V30 36 H 1.63206 2.22512 -0.710864 0
M  V30 37 H 0.54453 0.636336 0.505278 0
M  V30 38 H -0.602288 -0.434644 -2.07244 0
M  V30 39 H -1.21808 2.27939 -0.697235 0
M  V30 40 H -0.736285 1.96019 -2.39271 0
M  V30 41 H -3.19172 2.46308 -1.85275 0
M  V30 42 H -2.77109 1.199 -3.0249 0
M  V30 43 H -3.52439 -1.44102 -0.233712 0
M  V30 44 H -2.64381 -1.42777 -1.82917 0
M  V30 45 H -5.99153 -0.969068 -0.798652 0
M  V30 46 H -6.93204 -1.83348 1.72755 0
M  V30 47 H -5.37256 -1.48354 2.54249 0
M  V30 48 H -6.52911 1.1304 2.63973 0
M  V30 49 H 4.28858 -0.722918 2.21858 0
M  V30 50 H 7.04987 0.251598 3.80354 0
M  V30 51 H 6.98038 -1.50389 3.4664 0
M  V30 52 H 6.89579 0.123419 -0.0349011 0
M  V30 END ATOM
M  V30 BEGIN BOND
M  V30 1 1 1 2
M  V30 2 1 2 3
M  V30 3 1 3 4
M  V30 4 1 4 5
M  V30 5 1 5 6
M  V30 6 1 6 7
M  V30 7 1 7 8
M  V30 8 1 8 9
M  V30 9 1 9 10
M  V30 10 1 10 11
M  V30 11 1 11 12
M  V30 12 1 12 13
M  V30 13 1 13 14
M  V30 14 2 13 15 CFG=2
M  V30 15 1 15 16
M  V30 16 1 16 17
M  V30 17 1 17 18
M  V30 18 2 17 19 CFG=2
M  V30 19 2 6 20 CFG=2
M  V30 20 1 20 21
M  V30 21 1 21 22
M  V30 22 1 22 23
M  V30 23 2 22 24 CFG=2
M  V30 24 1 10 1
M  V30 25 1 14 1
M  V30 26 1 9 4
M  V30 27 1 1 25 CFG=1
M  V30 28 1 2 26
M  V30 29 1 2 27
M  V30 30 1 3 28
M  V30 31 1 3 29
M  V30 32 1 4 30 CFG=3
M  V30 33 1 5 31
M  V30 34 1 5 32
M  V30 35 1 7 33
M  V30 36 1 7 34
M  V30 37 1 8 35
M  V30 38 1 8 36
M  V30 39 1 9 37 CFG=1
M  V30 40 1 10 38 CFG=3
M  V30 41 1 11 39
M  V30 42 1 11 40
M  V30 43 1 12 41
M  V30 44 1 12 42
M  V30 45 1 14 43
M  V30 46 1 14 44
M  V30 47 1 16 45
M  V30 48 1 18 46
M  V30 49 1 18 47
M  V30 50 1 19 48
M  V30 51 1 21 49
M  V30 52 1 23 50
M  V30 53 1 23 51
M  V30 54 1 24 52
M  V30 END BOND
M  V30 END CTAB
M  END
