
     RDKit          3D

  0  0  0  0  0  0  0  0  0  0999 V3000
M  V30 BEGIN CTAB
M  V30 COUNTS 27 28 0 0 0
M  V30 BEGIN ATOM
M  V30 1 N 4.03501 -2.15805 0.377357 0
M  V30 2 C 3.39168 -0.91472 0.184613 0
M  V30 3 N 2.05606 -0.762477 0.218789 0
M  V30 4 C 1.41513 0.391107 0.0419706 0
M  V30 5 O 0.00926608 0.460626 0.0941666 0
M  V30 6 C -0.708909 -0.730393 0.340165 0
M  V30 7 C -2.15561 -0.403286 0.348142 0
M  V30 8 C -3.13191 -1.35947 0.56406 0
M  V30 9 C -4.48324 -1.05736 0.572109 0
M  V30 10 C -4.85607 0.272923 0.351265 0
M  V30 11 C -3.91431 1.24209 0.134617 0
M  V30 12 C -2.59013 0.898643 0.135205 0
M  V30 13 N 2.15446 1.49069 -0.188645 0
M  V30 14 C 3.49185 1.40193 -0.234256 0
M  V30 15 N 4.3025 2.55366 -0.477463 0
M  V30 16 N 4.10742 0.221067 -0.051393 0
M  V30 17 H 4.74712 -2.24375 1.12101 0
M  V30 18 H 3.77536 -2.95012 -0.23213 0
M  V30 19 H -0.377796 -1.11331 1.34137 0
M  V30 20 H -0.513232 -1.46811 -0.463857 0
M  V30 21 H -2.81622 -2.38768 0.73349 0
M  V30 22 H -5.24219 -1.80591 0.740899 0
M  V30 23 H -5.90824 0.540213 0.3518 0
M  V30 24 H -4.20763 2.25445 -0.0329965 0
M  V30 25 H -1.81396 1.637 -0.0325472 0
M  V30 26 H 5.30822 2.5765 -0.202639 0
M  V30 27 H 3.92537 3.41373 -0.936701 0
M  V30 END ATOM
M  V30 BEGIN BOND
M  V30 1 1 1 2
M  V30 2 2 2 3
M  V30 3 1 3 4
M  V30 4 1 4 5
M  V30 5 1 5 6
M  V30 6 1 6 7
M  V30 7 2 7 8
M  V30 8 1 8 9
M  V30 9 2 9 10
M  V30 10 1 10 11
M  V30 11 2 11 12
M  V30 12 2 4 13
M  V30 13 1 13 14
M  V30 14 1 14 15
M  V30 15 2 14 16
M  V30 16 1 16 2
M  V30 17 1 12 7
M  V30 18 1 1 17
M  V30 19 1 1 18
M  V30 20 1 6 19
M  V30 21 1 6 20
M  V30 22 1 8 21
M  V30 23 1 9 22
M  V30 24 1 10 23
M  V30 25 1 11 24
M  V30 26 1 12 25
M  V30 27 1 15 26
M  V30 28 1 15 27
M  V30 END BOND
M  V30 END CTAB
M  END
