
     RDKit          3D

  0  0  0  0  0  0  0  0  0  0999 V3000
M  V30 BEGIN CTAB
M  V30 COUNTS 67 71 0 0 0
M  V30 BEGIN ATOM
M  V30 1 C -5.03652 -0.522137 -2.29519 0
M  V30 2 C -5.66978 -1.68298 -1.57958 0
M  V30 3 N -4.9369 -2.00649 -0.365657 0
M  V30 4 C -3.77614 -1.26867 -0.0319871 0
M  V30 5 C -3.82173 -0.0886583 0.631439 0
M  V30 6 C -2.64896 0.598681 0.956941 0
M  V30 7 C -1.40245 0.107574 0.61993 0
M  V30 8 C -1.36671 -1.088 -0.050548 0
M  V30 9 C -2.52028 -1.77974 -0.380843 0
M  V30 10 O -0.135388 -1.58494 -0.387121 0
M  V30 11 C 1.06265 -0.961935 -0.0942364 0
M  V30 12 C 1.06608 0.234699 0.573927 0
M  V30 13 C -0.194624 0.864469 0.982145 0
M  V30 14 O -0.181052 0.95423 2.40555 0
M  V30 15 C -0.245217 2.27555 2.80528 0
M  V30 16 O -0.263892 2.74671 3.99 0
M  V30 17 C -0.288125 3.07595 1.59102 0
M  V30 18 C -0.251676 2.26618 0.498188 0
M  V30 19 C -0.279438 2.80798 -0.747298 0
M  V30 20 C -0.344858 4.18508 -0.916872 0
M  V30 21 C -0.383617 5.0327 0.182044 0
M  V30 22 C -0.353431 4.45011 1.42695 0
M  V30 23 N -0.391964 5.32903 2.54797 0
M  V30 24 N -0.451314 6.43867 -0.0143758 0
M  V30 25 C 2.26427 0.837262 0.858188 0
M  V30 26 C 3.45939 0.271193 0.490717 0
M  V30 27 C 3.48639 -0.926869 -0.179762 0
M  V30 28 C 2.2615 -1.51582 -0.456084 0
M  V30 29 N 4.6178 -1.63095 -0.610446 0
M  V30 30 C 5.30401 -1.22337 -1.79173 0
M  V30 31 C 6.68878 -0.682281 -1.52258 0
M  V30 32 C 5.04845 -2.76822 0.143833 0
M  V30 33 C 6.35103 -2.64704 0.841832 0
M  V30 34 C -5.3466 -3.08168 0.513321 0
M  V30 35 C -5.14784 -4.43682 -0.142727 0
M  V30 36 H -5.36274 0.400395 -1.74837 0
M  V30 37 H -3.92408 -0.539742 -2.28273 0
M  V30 38 H -5.41363 -0.514352 -3.33757 0
M  V30 39 H -6.7136 -1.3749 -1.3358 0
M  V30 40 H -5.63244 -2.55689 -2.27711 0
M  V30 41 H -4.78797 0.343722 0.92401 0
M  V30 42 H -2.78389 1.52368 1.48506 0
M  V30 43 H -2.48213 -2.71225 -0.904302 0
M  V30 44 H -0.251514 2.22828 -1.67367 0
M  V30 45 H -0.36719 4.65577 -1.88851 0
M  V30 46 H -1.0083 6.15336 2.51139 0
M  V30 47 H 0.185091 5.15398 3.39329 0
M  V30 48 H 0.137256 7.08581 0.56538 0
M  V30 49 H -1.0743 6.87211 -0.72538 0
M  V30 50 H 2.26209 1.78393 1.39072 0
M  V30 51 H 4.42837 0.722295 0.700949 0
M  V30 52 H 2.20263 -2.47251 -0.988489 0
M  V30 53 H 4.76705 -0.441162 -2.37828 0
M  V30 54 H 5.38695 -2.09151 -2.49739 0
M  V30 55 H 6.71709 0.0421371 -0.71144 0
M  V30 56 H 7.05585 -0.147777 -2.43518 0
M  V30 57 H 7.36908 -1.54728 -1.38275 0
M  V30 58 H 5.07458 -3.66728 -0.547172 0
M  V30 59 H 4.26789 -3.06849 0.908045 0
M  V30 60 H 6.72924 -1.63453 1.00102 0
M  V30 61 H 7.09838 -3.31373 0.327228 0
M  V30 62 H 6.27577 -3.09554 1.8775 0
M  V30 63 H -4.71127 -3.06247 1.41073 0
M  V30 64 H -6.39676 -2.9698 0.874286 0
M  V30 65 H -5.6756 -4.56127 -1.08733 0
M  V30 66 H -5.50506 -5.20541 0.574054 0
M  V30 67 H -4.03869 -4.56807 -0.23443 0
M  V30 END ATOM
M  V30 BEGIN BOND
M  V30 1 1 1 2
M  V30 2 1 2 3
M  V30 3 1 3 4
M  V30 4 2 4 5
M  V30 5 1 5 6
M  V30 6 2 6 7
M  V30 7 1 7 8
M  V30 8 2 8 9
M  V30 9 1 8 10
M  V30 10 1 10 11
M  V30 11 2 11 12
M  V30 12 1 12 13
M  V30 13 1 13 14
M  V30 14 1 14 15
M  V30 15 2 15 16
M  V30 16 1 15 17
M  V30 17 2 17 18
M  V30 18 1 18 19
M  V30 19 2 19 20
M  V30 20 1 20 21
M  V30 21 2 21 22
M  V30 22 1 22 23
M  V30 23 1 21 24
M  V30 24 1 12 25
M  V30 25 2 25 26
M  V30 26 1 26 27
M  V30 27 2 27 28
M  V30 28 1 27 29
M  V30 29 1 29 30
M  V30 30 1 30 31
M  V30 31 1 29 32
M  V30 32 1 32 33
M  V30 33 1 3 34
M  V30 34 1 34 35
M  V30 35 1 9 4
M  V30 36 1 28 11
M  V30 37 1 13 7
M  V30 38 1 22 17
M  V30 39 1 18 13
M  V30 40 1 1 36
M  V30 41 1 1 37
M  V30 42 1 1 38
M  V30 43 1 2 39
M  V30 44 1 2 40
M  V30 45 1 5 41
M  V30 46 1 6 42
M  V30 47 1 9 43
M  V30 48 1 19 44
M  V30 49 1 20 45
M  V30 50 1 23 46
M  V30 51 1 23 47
M  V30 52 1 24 48
M  V30 53 1 24 49
M  V30 54 1 25 50
M  V30 55 1 26 51
M  V30 56 1 28 52
M  V30 57 1 30 53
M  V30 58 1 30 54
M  V30 59 1 31 55
M  V30 60 1 31 56
M  V30 61 1 31 57
M  V30 62 1 32 58
M  V30 63 1 32 59
M  V30 64 1 33 60
M  V30 65 1 33 61
M  V30 66 1 33 62
M  V30 67 1 34 63
M  V30 68 1 34 64
M  V30 69 1 35 65
M  V30 70 1 35 66
M  V30 71 1 35 67
M  V30 END BOND
M  V30 END CTAB
M  END
