
     RDKit          3D

  0  0  0  0  0  0  0  0  0  0999 V3000
M  V30 BEGIN CTAB
M  V30 COUNTS 100 101 0 0 0
M  V30 BEGIN ATOM
M  V30 1 C 7.23009 2.03825 1.1065 0 CFG=1
M  V30 2 N 7.07656 1.59071 2.49429 0
M  V30 3 C 8.63206 1.88203 0.627639 0
M  V30 4 C 9.1014 0.468559 0.639964 0
M  V30 5 C 10.5141 0.232239 0.224152 0
M  V30 6 N 10.8891 0.653605 -1.09079 0
M  V30 7 C 11.0099 1.99217 -1.52056 0
M  V30 8 N 11.5639 2.99232 -0.70303 0
M  V30 9 N 10.6152 2.32216 -2.70716 0
M  V30 10 C 6.25102 1.29198 0.27306 0
M  V30 11 O 6.49044 1.00052 -0.948334 0
M  V30 12 N 5.02155 0.885287 0.801821 0
M  V30 13 C 3.97095 0.159745 0.139819 0 CFG=1
M  V30 14 C 3.23973 -0.7597 1.05234 0
M  V30 15 C 4.14024 -1.79551 1.65216 0
M  V30 16 C 4.31137 -2.9581 0.961731 0
M  V30 17 C 5.10459 -3.97887 1.43275 0
M  V30 18 C 5.7453 -3.80129 2.65542 0
M  V30 19 O 6.54308 -4.84814 3.11515 0
M  V30 20 C 5.56341 -2.61863 3.34354 0
M  V30 21 C 4.7685 -1.60488 2.86417 0
M  V30 22 C 3.07837 1.06271 -0.630214 0
M  V30 23 O 3.35507 2.2586 -0.802297 0
M  V30 24 N 1.86282 0.54616 -1.19155 0
M  V30 25 C 1.01074 1.40659 -1.96727 0
M  V30 26 C -0.259792 0.830104 -2.41424 0
M  V30 27 O -1.04882 1.50296 -3.161 0
M  V30 28 N -0.671227 -0.466746 -2.04648 0
M  V30 29 C -1.93361 -0.98895 -2.49072 0
M  V30 30 C -3.10478 -0.210862 -2.02952 0
M  V30 31 O -2.91368 0.803109 -1.31435 0
M  V30 32 N -4.43833 -0.593189 -2.38611 0
M  V30 33 C -5.56354 0.218949 -1.92966 0 CFG=1
M  V30 34 C -6.50125 0.508361 -3.00796 0
M  V30 35 C -7.15547 -0.599526 -3.71148 0
M  V30 36 C -8.40536 -1.03985 -3.3292 0
M  V30 37 C -9.05549 -2.07703 -3.95671 0
M  V30 38 C -8.44047 -2.71037 -5.01484 0
M  V30 39 C -7.19713 -2.27211 -5.396 0
M  V30 40 C -6.54625 -1.23459 -4.7677 0
M  V30 41 C -6.02192 -0.100429 -0.585814 0
M  V30 42 O -5.37479 -0.943522 0.0875109 0
M  V30 43 N -7.15095 0.493395 0.00925826 0
M  V30 44 C -7.56785 0.200524 1.41242 0 CFG=1
M  V30 45 C -7.99089 1.5053 1.92956 0
M  V30 46 C -8.47301 1.74983 3.287 0
M  V30 47 C -9.7129 1.07997 3.74167 0
M  V30 48 C -7.31162 1.51192 4.25598 0
M  V30 49 C -8.4827 -0.925165 1.37348 0
M  V30 50 O -9.04644 -1.62107 2.41047 0
M  V30 51 O -8.84373 -1.37777 0.215614 0
M  V30 52 H 6.92575 3.11095 1.06107 0
M  V30 53 H 7.20766 0.544283 2.52858 0
M  V30 54 H 7.88407 2.00228 3.01597 0
M  V30 55 H 8.63846 2.28701 -0.421628 0
M  V30 56 H 9.29463 2.5458 1.24724 0
M  V30 57 H 8.99433 0.04951 1.68521 0
M  V30 58 H 8.39059 -0.173281 0.0464465 0
M  V30 59 H 11.1871 0.687416 1.0086 0
M  V30 60 H 10.7522 -0.884396 0.334986 0
M  V30 61 H 11.0896 -0.129377 -1.79798 0
M  V30 62 H 10.969 3.81967 -0.452507 0
M  V30 63 H 12.5414 2.91391 -0.357358 0
M  V30 64 H 10.2044 1.64273 -3.37846 0
M  V30 65 H 4.84718 1.14879 1.82566 0
M  V30 66 H 4.5388 -0.480062 -0.636691 0
M  V30 67 H 2.41401 -1.32343 0.600137 0
M  V30 68 H 2.81253 -0.196537 1.91866 0
M  V30 69 H 3.81052 -3.11122 0.000604753 0
M  V30 70 H 5.22256 -4.89129 0.863956 0
M  V30 71 H 7.00222 -4.72206 3.98996 0
M  V30 72 H 6.07526 -2.50126 4.30021 0
M  V30 73 H 4.62756 -0.676311 3.41075 0
M  V30 74 H 1.66035 -0.441898 -1.01244 0
M  V30 75 H 1.59645 1.64466 -2.91043 0
M  V30 76 H 0.862756 2.37186 -1.43845 0
M  V30 77 H -0.0679697 -1.09085 -1.43292 0
M  V30 78 H -1.99492 -1.0712 -3.59807 0
M  V30 79 H -2.05749 -2.03416 -2.07396 0
M  V30 80 H -4.58783 -1.44412 -2.96675 0
M  V30 81 H -5.00133 1.25922 -1.76657 0
M  V30 82 H -7.33494 1.16842 -2.60866 0
M  V30 83 H -6.04166 1.16731 -3.80314 0
M  V30 84 H -8.94435 -0.561934 -2.49774 0
M  V30 85 H -10.0437 -2.3744 -3.59863 0
M  V30 86 H -8.94825 -3.5408 -5.52744 0
M  V30 87 H -6.69291 -2.7787 -6.24727 0
M  V30 88 H -5.5688 -0.929604 -5.11154 0
M  V30 89 H -7.70721 1.15106 -0.547583 0
M  V30 90 H -6.60889 -0.201274 1.8681 0
M  V30 91 H -8.76157 1.89386 1.15201 0
M  V30 92 H -7.14611 2.26894 1.73595 0
M  V30 93 H -8.68452 2.87633 3.34521 0
M  V30 94 H -10.3204 0.782925 2.86451 0
M  V30 95 H -10.3393 1.84454 4.31293 0
M  V30 96 H -9.50714 0.228517 4.39793 0
M  V30 97 H -7.4337 0.52616 4.78102 0
M  V30 98 H -7.24668 2.34946 4.96 0
M  V30 99 H -6.35838 1.44102 3.69714 0
M  V30 100 H -10.0287 -1.83024 2.53357 0
M  V30 END ATOM
M  V30 BEGIN BOND
M  V30 1 1 1 2
M  V30 2 1 1 3
M  V30 3 1 3 4
M  V30 4 1 4 5
M  V30 5 1 5 6
M  V30 6 1 6 7
M  V30 7 1 7 8
M  V30 8 2 7 9 CFG=2
M  V30 9 1 1 10
M  V30 10 2 10 11
M  V30 11 1 10 12
M  V30 12 1 12 13
M  V30 13 1 13 14
M  V30 14 1 14 15
M  V30 15 2 15 16
M  V30 16 1 16 17
M  V30 17 2 17 18
M  V30 18 1 18 19
M  V30 19 1 18 20
M  V30 20 2 20 21
M  V30 21 1 13 22
M  V30 22 2 22 23
M  V30 23 1 22 24
M  V30 24 1 24 25
M  V30 25 1 25 26
M  V30 26 2 26 27
M  V30 27 1 26 28
M  V30 28 1 28 29
M  V30 29 1 29 30
M  V30 30 2 30 31
M  V30 31 1 30 32
M  V30 32 1 32 33
M  V30 33 1 33 34
M  V30 34 1 34 35
M  V30 35 2 35 36
M  V30 36 1 36 37
M  V30 37 2 37 38
M  V30 38 1 38 39
M  V30 39 2 39 40
M  V30 40 1 33 41
M  V30 41 2 41 42
M  V30 42 1 41 43
M  V30 43 1 43 44
M  V30 44 1 44 45
M  V30 45 1 45 46
M  V30 46 1 46 47
M  V30 47 1 46 48
M  V30 48 1 44 49
M  V30 49 1 49 50
M  V30 50 2 49 51
M  V30 51 1 21 15
M  V30 52 1 40 35
M  V30 53 1 1 52 CFG=1
M  V30 54 1 2 53
M  V30 55 1 2 54
M  V30 56 1 3 55
M  V30 57 1 3 56
M  V30 58 1 4 57
M  V30 59 1 4 58
M  V30 60 1 5 59
M  V30 61 1 5 60
M  V30 62 1 6 61
M  V30 63 1 8 62
M  V30 64 1 8 63
M  V30 65 1 9 64
M  V30 66 1 12 65
M  V30 67 1 13 66 CFG=3
M  V30 68 1 14 67
M  V30 69 1 14 68
M  V30 70 1 16 69
M  V30 71 1 17 70
M  V30 72 1 19 71
M  V30 73 1 20 72
M  V30 74 1 21 73
M  V30 75 1 24 74
M  V30 76 1 25 75
M  V30 77 1 25 76
M  V30 78 1 28 77
M  V30 79 1 29 78
M  V30 80 1 29 79
M  V30 81 1 32 80
M  V30 82 1 33 81 CFG=1
M  V30 83 1 34 82
M  V30 84 1 34 83
M  V30 85 1 36 84
M  V30 86 1 37 85
M  V30 87 1 38 86
M  V30 88 1 39 87
M  V30 89 1 40 88
M  V30 90 1 43 89
M  V30 91 1 44 90 CFG=1
M  V30 92 1 45 91
M  V30 93 1 45 92
M  V30 94 1 46 93
M  V30 95 1 47 94
M  V30 96 1 47 95
M  V30 97 1 47 96
M  V30 98 1 48 97
M  V30 99 1 48 98
M  V30 100 1 48 99
M  V30 101 1 50 100
M  V30 END BOND
M  V30 END CTAB
M  END
