
     RDKit          3D

  0  0  0  0  0  0  0  0  0  0999 V3000
M  V30 BEGIN CTAB
M  V30 COUNTS 34 36 0 0 0
M  V30 BEGIN ATOM
M  V30 1 C -4.99418 0.926478 0.146673 0
M  V30 2 C -3.6338 0.332774 0.063374 0
M  V30 3 C -2.50097 1.1261 0.100438 0
M  V30 4 C -1.2309 0.566489 0.0222325 0
M  V30 5 C -0.0863044 1.32919 0.0564776 0
M  V30 6 C 1.16585 0.755734 -0.022416 0
M  V30 7 C 2.33837 1.47123 0.00725184 0
M  V30 8 C 3.57481 0.84312 -0.0757436 0
M  V30 9 C 4.77731 1.66568 -0.0379778 0
M  V30 10 C 3.65384 -0.523155 -0.190658 0
M  V30 11 N 4.87991 -1.21413 -0.278587 0
M  V30 12 C 2.46396 -1.22151 -0.218469 0
M  V30 13 C 1.23385 -0.606486 -0.136716 0
M  V30 14 N 0.115796 -1.35353 -0.170335 0 CHG=1
M  V30 15 O 0.225468 -2.73002 -0.286854 0 CHG=-1
M  V30 16 C -1.12043 -0.80606 -0.0939903 0
M  V30 17 C -2.2572 -1.5773 -0.129133 0
M  V30 18 C -3.53622 -1.04286 -0.0527779 0
M  V30 19 N -4.68285 -1.87876 -0.0930059 0
M  V30 20 H -4.93371 2.04081 0.000115792 0
M  V30 21 H -5.38693 0.795488 1.1931 0
M  V30 22 H -5.66989 0.452886 -0.589849 0
M  V30 23 H -2.6023 2.19885 0.19164 0
M  V30 24 H -0.142415 2.40241 0.146578 0
M  V30 25 H 2.27008 2.53627 0.0970068 0
M  V30 26 H 5.69455 1.20128 -0.376469 0
M  V30 27 H 4.61886 2.57399 -0.69007 0
M  V30 28 H 4.87195 2.09553 0.99729 0
M  V30 29 H 4.92943 -2.23402 0.0131165 0
M  V30 30 H 5.77595 -0.823692 -0.609367 0
M  V30 31 H 2.5282 -2.29713 -0.309 0
M  V30 32 H -2.12827 -2.64969 -0.221023 0
M  V30 33 H -4.76456 -2.72273 0.511252 0
M  V30 34 H -5.44725 -1.63325 -0.741159 0
M  V30 END ATOM
M  V30 BEGIN BOND
M  V30 1 1 1 2
M  V30 2 2 2 3
M  V30 3 1 3 4
M  V30 4 2 4 5
M  V30 5 1 5 6
M  V30 6 2 6 7
M  V30 7 1 7 8
M  V30 8 1 8 9
M  V30 9 2 8 10
M  V30 10 1 10 11
M  V30 11 1 10 12
M  V30 12 2 12 13
M  V30 13 1 13 14
M  V30 14 1 14 15
M  V30 15 2 14 16
M  V30 16 1 16 17
M  V30 17 2 17 18
M  V30 18 1 18 19
M  V30 19 1 18 2
M  V30 20 1 16 4
M  V30 21 1 13 6
M  V30 22 1 1 20
M  V30 23 1 1 21
M  V30 24 1 1 22
M  V30 25 1 3 23
M  V30 26 1 5 24
M  V30 27 1 7 25
M  V30 28 1 9 26
M  V30 29 1 9 27
M  V30 30 1 9 28
M  V30 31 1 11 29
M  V30 32 1 11 30
M  V30 33 1 12 31
M  V30 34 1 17 32
M  V30 35 1 19 33
M  V30 36 1 19 34
M  V30 END BOND
M  V30 END CTAB
M  END
