
     RDKit          3D

  0  0  0  0  0  0  0  0  0  0999 V3000
M  V30 BEGIN CTAB
M  V30 COUNTS 19 19 0 0 0
M  V30 BEGIN ATOM
M  V30 1 N 3.23763 -1.03112 -0.724419 0
M  V30 2 N 1.84896 -0.98644 -0.618854 0
M  V30 3 C 1.20041 0.0986724 -0.350549 0
M  V30 4 C -0.257187 0.0278463 -0.26397 0
M  V30 5 C -0.976452 1.17966 0.0229608 0
M  V30 6 F -0.350033 2.38256 0.226964 0
M  V30 7 C -2.3473 1.07038 0.0956436 0
M  V30 8 C -3.01337 -0.103371 -0.0996227 0
M  V30 9 C -2.29015 -1.25074 -0.385912 0
M  V30 10 C -0.932736 -1.15889 -0.461251 0
M  V30 11 Cl -0.0449014 -2.64007 -0.827661 0
M  V30 12 N 1.87746 1.32867 -0.144387 0
M  V30 13 H 3.78771 -0.358113 -1.29831 0
M  V30 14 H 3.79147 -1.76533 -0.214657 0
M  V30 15 H -2.91267 1.98044 0.32214 0
M  V30 16 H -4.10571 -0.181549 -0.0398745 0
M  V30 17 H -2.79044 -2.1918 -0.544825 0
M  V30 18 H 2.40504 1.51263 0.73471 0
M  V30 19 H 1.87227 2.08655 -0.857786 0
M  V30 END ATOM
M  V30 BEGIN BOND
M  V30 1 1 1 2
M  V30 2 2 2 3 CFG=2
M  V30 3 1 3 4
M  V30 4 2 4 5
M  V30 5 1 5 6
M  V30 6 1 5 7
M  V30 7 2 7 8
M  V30 8 1 8 9
M  V30 9 2 9 10
M  V30 10 1 10 11
M  V30 11 1 3 12
M  V30 12 1 10 4
M  V30 13 1 1 13
M  V30 14 1 1 14
M  V30 15 1 7 15
M  V30 16 1 8 16
M  V30 17 1 9 17
M  V30 18 1 12 18
M  V30 19 1 12 19
M  V30 END BOND
M  V30 END CTAB
M  END
