
     RDKit          3D

  0  0  0  0  0  0  0  0  0  0999 V3000
M  V30 BEGIN CTAB
M  V30 COUNTS 11 11 0 0 0
M  V30 BEGIN ATOM
M  V30 1 N 1.5253 -0.725927 -0.100169 0
M  V30 2 N 0.627514 0.337983 -0.0748817 0
M  V30 3 N 0.990107 1.62419 -0.171737 0
M  V30 4 N -0.060146 2.39514 -0.118251 0
M  V30 5 N -1.14794 1.6261 0.016298 0
M  V30 6 C -0.706296 0.352487 0.0417518 0
M  V30 7 N -1.48005 -0.838109 0.16993 0
M  V30 8 H 2.01574 -0.945358 -0.990256 0
M  V30 9 H 1.72053 -1.30638 0.739969 0
M  V30 10 H -2.06491 -1.20671 -0.613777 0
M  V30 11 H -1.41985 -1.31341 1.10112 0
M  V30 END ATOM
M  V30 BEGIN BOND
M  V30 1 1 1 2
M  V30 2 1 2 3
M  V30 3 2 3 4
M  V30 4 1 4 5
M  V30 5 2 5 6
M  V30 6 1 6 7
M  V30 7 1 6 2
M  V30 8 1 1 8
M  V30 9 1 1 9
M  V30 10 1 7 10
M  V30 11 1 7 11
M  V30 END BOND
M  V30 END CTAB
M  END
