
     RDKit          3D

  0  0  0  0  0  0  0  0  0  0999 V3000
M  V30 BEGIN CTAB
M  V30 COUNTS 22 22 0 0 0
M  V30 BEGIN ATOM
M  V30 1 C 3.68613 0.606542 0.234546 0
M  V30 2 N 2.26501 0.610721 -0.0608549 0
M  V30 3 N 1.57188 1.43667 -0.827543 0
M  V30 4 C 0.252132 1.08365 -0.832006 0
M  V30 5 C 0.128627 -0.0121193 -0.0292072 0
M  V30 6 C 1.39128 -0.283478 0.435411 0
M  V30 7 Cl 1.74668 -1.61479 1.51539 0
M  V30 8 C -1.097 -0.739251 0.263157 0
M  V30 9 C -2.30243 -0.0845582 -0.361173 0
M  V30 10 N -2.52633 1.26458 0.0941021 0
M  V30 11 N -1.07623 -2.12206 -0.155115 0
M  V30 12 H 4.22336 1.22387 -0.49996 0
M  V30 13 H 3.83171 1.02768 1.26173 0
M  V30 14 H 4.03804 -0.463418 0.203333 0
M  V30 15 H -0.468636 1.64644 -1.40699 0
M  V30 16 H -1.30123 -0.76003 1.37354 0
M  V30 17 H -2.20049 -0.0579278 -1.48406 0
M  V30 18 H -3.23539 -0.681809 -0.178495 0
M  V30 19 H -3.27811 1.24363 0.822004 0
M  V30 20 H -2.89383 1.84875 -0.710202 0
M  V30 21 H -2.07396 -2.41752 -0.254167 0
M  V30 22 H -0.681225 -2.75557 0.596572 0
M  V30 END ATOM
M  V30 BEGIN BOND
M  V30 1 1 1 2
M  V30 2 1 2 3
M  V30 3 2 3 4
M  V30 4 1 4 5
M  V30 5 2 5 6
M  V30 6 1 6 7
M  V30 7 1 5 8
M  V30 8 1 8 9
M  V30 9 1 9 10
M  V30 10 1 8 11
M  V30 11 1 6 2
M  V30 12 1 1 12
M  V30 13 1 1 13
M  V30 14 1 1 14
M  V30 15 1 4 15
M  V30 16 1 8 16
M  V30 17 1 9 17
M  V30 18 1 9 18
M  V30 19 1 10 19
M  V30 20 1 10 20
M  V30 21 1 11 21
M  V30 22 1 11 22
M  V30 END BOND
M  V30 END CTAB
M  END
