
     RDKit          3D

  0  0  0  0  0  0  0  0  0  0999 V3000
M  V30 BEGIN CTAB
M  V30 COUNTS 26 27 0 0 0
M  V30 BEGIN ATOM
M  V30 1 C 5.21189 0.351852 0.0175152 0
M  V30 2 C 3.74891 0.123581 -0.151924 0
M  V30 3 C 3.12323 -0.640391 -1.08515 0
M  V30 4 C 1.77572 -0.702345 -1.05093 0
M  V30 5 C 1.14657 0.0131622 -0.0738948 0
M  V30 6 S 2.44908 0.742001 0.756636 0
M  V30 7 C -0.300983 0.127262 0.196231 0
M  V30 8 C -0.773702 0.897592 1.23105 0
M  V30 9 C -2.10498 1.03405 1.5203 0
M  V30 10 C -3.01062 0.364722 0.732933 0
M  V30 11 C -2.5931 -0.423527 -0.320345 0
M  V30 12 C -1.22245 -0.532019 -0.576828 0
M  V30 13 N -3.55013 -1.09336 -1.10393 0
M  V30 14 N -4.39876 0.520226 1.05162 0
M  V30 15 H 5.73991 0.15794 -0.953206 0
M  V30 16 H 5.41111 1.40882 0.351995 0
M  V30 17 H 5.6292 -0.292052 0.818133 0
M  V30 18 H 3.71952 -1.1881 -1.84275 0
M  V30 19 H 1.15825 -1.30023 -1.77046 0
M  V30 20 H -0.0517415 1.41901 1.84302 0
M  V30 21 H -2.47332 1.65336 2.35126 0
M  V30 22 H -0.930266 -1.15037 -1.40009 0
M  V30 23 H -4.44535 -0.608564 -1.37101 0
M  V30 24 H -3.44959 -2.06834 -1.45981 0
M  V30 25 H -4.96553 1.12407 0.411242 0
M  V30 26 H -4.84286 0.0616374 1.8784 0
M  V30 END ATOM
M  V30 BEGIN BOND
M  V30 1 1 1 2
M  V30 2 2 2 3
M  V30 3 1 3 4
M  V30 4 2 4 5
M  V30 5 1 5 6
M  V30 6 1 5 7
M  V30 7 2 7 8
M  V30 8 1 8 9
M  V30 9 2 9 10
M  V30 10 1 10 11
M  V30 11 2 11 12
M  V30 12 1 11 13
M  V30 13 1 10 14
M  V30 14 1 6 2
M  V30 15 1 12 7
M  V30 16 1 1 15
M  V30 17 1 1 16
M  V30 18 1 1 17
M  V30 19 1 3 18
M  V30 20 1 4 19
M  V30 21 1 8 20
M  V30 22 1 9 21
M  V30 23 1 12 22
M  V30 24 1 13 23
M  V30 25 1 13 24
M  V30 26 1 14 25
M  V30 27 1 14 26
M  V30 END BOND
M  V30 END CTAB
M  END
