
     RDKit          3D

  0  0  0  0  0  0  0  0  0  0999 V3000
M  V30 BEGIN CTAB
M  V30 COUNTS 38 39 0 0 0
M  V30 BEGIN ATOM
M  V30 1 S -1.84956 1.54802 -0.839934 0
M  V30 2 C -1.39405 0.236677 0.00993651 0
M  V30 3 N -2.3062 -0.677024 0.565701 0
M  V30 4 C -3.69995 -0.533253 0.501701 0
M  V30 5 C -4.51689 -1.67359 0.375186 0
M  V30 6 C -5.87762 -1.57943 0.346142 0
M  V30 7 C -6.54405 -0.367257 0.438212 0
M  V30 8 C -5.74537 0.743767 0.562181 0
M  V30 9 C -4.36733 0.664393 0.593577 0
M  V30 10 Cl -6.55479 2.30674 0.682357 0
M  V30 11 N -7.95596 -0.282967 0.406261 0
M  V30 12 N 0.0310402 -0.0203943 0.167127 0
M  V30 13 C 0.934037 0.923103 -0.406477 0
M  V30 14 C 2.35927 0.62628 -0.253787 0
M  V30 15 C 3.27866 1.64091 -0.419037 0
M  V30 16 C 4.64158 1.42293 -0.2933 0
M  V30 17 C 5.08535 0.158219 0.00460899 0
M  V30 18 C 4.1735 -0.874043 0.174014 0
M  V30 19 C 2.81166 -0.626782 0.0419578 0
M  V30 20 S 6.77261 -0.181274 0.175361 0
M  V30 21 O 6.92563 -1.26445 1.22115 0
M  V30 22 O 7.45377 1.08993 0.634388 0
M  V30 23 N 7.474 -0.638871 -1.3179 0
M  V30 24 H -1.97086 -1.55392 1.08072 0
M  V30 25 H -3.99496 -2.62128 0.30325 0
M  V30 26 H -6.50418 -2.45689 0.248832 0
M  V30 27 H -3.84204 1.62637 0.722609 0
M  V30 28 H -8.41496 0.509297 -0.059398 0
M  V30 29 H -8.52475 -1.02103 0.852926 0
M  V30 30 H 0.353233 -0.85749 0.680329 0
M  V30 31 H 0.714833 1.91019 0.108409 0
M  V30 32 H 0.652298 1.01919 -1.48402 0
M  V30 33 H 2.97226 2.65062 -0.654105 0
M  V30 34 H 5.31793 2.24268 -0.430659 0
M  V30 35 H 4.53118 -1.86347 0.407681 0
M  V30 36 H 2.17639 -1.48709 0.186684 0
M  V30 37 H 6.92221 -0.361409 -2.14946 0
M  V30 38 H 8.48208 -0.377407 -1.38291 0
M  V30 END ATOM
M  V30 BEGIN BOND
M  V30 1 2 1 2
M  V30 2 1 2 3
M  V30 3 1 3 4
M  V30 4 2 4 5
M  V30 5 1 5 6
M  V30 6 2 6 7
M  V30 7 1 7 8
M  V30 8 2 8 9
M  V30 9 1 8 10
M  V30 10 1 7 11
M  V30 11 1 2 12
M  V30 12 1 12 13
M  V30 13 1 13 14
M  V30 14 2 14 15
M  V30 15 1 15 16
M  V30 16 2 16 17
M  V30 17 1 17 18
M  V30 18 2 18 19
M  V30 19 1 17 20
M  V30 20 2 20 21
M  V30 21 2 20 22
M  V30 22 1 20 23
M  V30 23 1 9 4
M  V30 24 1 19 14
M  V30 25 1 3 24
M  V30 26 1 5 25
M  V30 27 1 6 26
M  V30 28 1 9 27
M  V30 29 1 11 28
M  V30 30 1 11 29
M  V30 31 1 12 30
M  V30 32 1 13 31
M  V30 33 1 13 32
M  V30 34 1 15 33
M  V30 35 1 16 34
M  V30 36 1 18 35
M  V30 37 1 19 36
M  V30 38 1 23 37
M  V30 39 1 23 38
M  V30 END BOND
M  V30 END CTAB
M  END
