
     RDKit          3D

  0  0  0  0  0  0  0  0  0  0999 V3000
M  V30 BEGIN CTAB
M  V30 COUNTS 78 81 0 0 0
M  V30 BEGIN ATOM
M  V30 1 N 1.75425 0.0492475 3.73349 0
M  V30 2 C 2.9988 -0.190911 3.04407 0
M  V30 3 C 2.72225 -0.523978 1.55683 0
M  V30 4 C 2.01986 0.653983 0.935141 0
M  V30 5 N 1.66953 0.64601 -0.385221 0
M  V30 6 C 0.644526 0.0830338 -1.07664 0
M  V30 7 C 0.327169 -1.33084 -1.29082 0
M  V30 8 C -0.158932 -2.19626 -0.207344 0
M  V30 9 C -1.497 -1.77725 0.384811 0
M  V30 10 N -2.5907 -1.83202 -0.507052 0
M  V30 11 C -3.03531 -3.08672 -0.915769 0
M  V30 12 C -4.13656 -3.02099 -1.93723 0
M  V30 13 C -4.58887 -4.41762 -2.3439 0
M  V30 14 N -5.6281 -4.36736 -3.34227 0
M  V30 15 C -3.11733 -0.678051 -1.066 0
M  V30 16 C -3.59975 0.313399 -0.0601019 0
M  V30 17 C -3.94044 -0.107712 1.19815 0
M  V30 18 C -4.38643 0.789717 2.16596 0
M  V30 19 C -4.72809 0.379424 3.42416 0
M  V30 20 C -5.16378 1.26647 4.36743 0
M  V30 21 C -5.24581 2.59582 4.00125 0
M  V30 22 C -4.91285 3.05272 2.74922 0
M  V30 23 C -4.4735 2.11926 1.81459 0
M  V30 24 C -4.14105 2.58335 0.561808 0
M  V30 25 C -3.69958 1.64896 -0.375778 0
M  V30 26 C 2.16317 1.84604 -1.06452 0
M  V30 27 C 3.61172 2.00408 -1.06553 0
M  V30 28 C 4.47939 1.23204 -1.81334 0
M  V30 29 C 5.84471 1.39717 -1.81966 0
M  V30 30 C 6.71402 0.623317 -2.56405 0
M  V30 31 C 8.07847 0.818696 -2.53929 0
M  V30 32 C 8.61849 1.81286 -1.75397 0
M  V30 33 C 7.74668 2.59994 -0.998105 0
M  V30 34 C 6.3843 2.39235 -1.03344 0
M  V30 35 C 5.54454 3.19903 -0.259556 0
M  V30 36 C 4.19275 2.99884 -0.284178 0
M  V30 37 H 1.00387 -0.531308 3.28616 0
M  V30 38 H 1.86201 -0.248366 4.74307 0
M  V30 39 H 3.57138 0.758718 3.02693 0
M  V30 40 H 3.62244 -0.972842 3.47819 0
M  V30 41 H 2.22926 -1.47218 1.55857 0
M  V30 42 H 3.75905 -0.621538 1.12583 0
M  V30 43 H 2.62203 1.59242 1.23837 0
M  V30 44 H 1.09265 0.840421 1.62277 0
M  V30 45 H -0.359939 0.654369 -0.819808 0
M  V30 46 H 0.722138 0.503694 -2.17891 0
M  V30 47 H 1.27117 -1.79803 -1.75148 0
M  V30 48 H -0.417699 -1.45587 -2.15601 0
M  V30 49 H -0.36383 -3.21479 -0.693292 0
M  V30 50 H 0.501248 -2.44098 0.615481 0
M  V30 51 H -1.36989 -0.729744 0.758525 0
M  V30 52 H -1.71348 -2.4158 1.27719 0
M  V30 53 H -2.20903 -3.66515 -1.40169 0
M  V30 54 H -3.44517 -3.72448 -0.0747033 0
M  V30 55 H -3.86391 -2.51307 -2.87635 0
M  V30 56 H -5.0509 -2.51592 -1.53209 0
M  V30 57 H -5.0611 -4.93888 -1.45748 0
M  V30 58 H -3.77545 -5.06141 -2.69372 0
M  V30 59 H -6.08422 -5.28632 -3.49246 0
M  V30 60 H -6.31824 -3.61178 -3.19191 0
M  V30 61 H -2.38834 -0.155359 -1.74571 0
M  V30 62 H -3.97939 -0.888672 -1.73007 0
M  V30 63 H -3.87114 -1.1354 1.46269 0
M  V30 64 H -4.64742 -0.686191 3.67019 0
M  V30 65 H -5.43688 0.979709 5.35283 0
M  V30 66 H -5.58629 3.36789 4.70323 0
M  V30 67 H -4.97337 4.08287 2.45523 0
M  V30 68 H -4.22174 3.63024 0.323562 0
M  V30 69 H -3.43779 2.00312 -1.36121 0
M  V30 70 H 1.74393 1.91291 -2.09846 0
M  V30 71 H 1.70243 2.7122 -0.526437 0
M  V30 72 H 4.0401 0.442285 -2.43631 0
M  V30 73 H 6.31104 -0.151622 -3.17768 0
M  V30 74 H 8.72742 0.196273 -3.1294 0
M  V30 75 H 9.68272 1.9754 -1.72499 0
M  V30 76 H 8.13272 3.39893 -0.362169 0
M  V30 77 H 5.96098 3.98178 0.360604 0
M  V30 78 H 3.54606 3.62644 0.319788 0
M  V30 END ATOM
M  V30 BEGIN BOND
M  V30 1 1 1 2
M  V30 2 1 2 3
M  V30 3 1 3 4
M  V30 4 1 4 5
M  V30 5 1 5 6
M  V30 6 1 6 7
M  V30 7 1 7 8
M  V30 8 1 8 9
M  V30 9 1 9 10
M  V30 10 1 10 11
M  V30 11 1 11 12
M  V30 12 1 12 13
M  V30 13 1 13 14
M  V30 14 1 10 15
M  V30 15 1 15 16
M  V30 16 2 16 17
M  V30 17 1 17 18
M  V30 18 2 18 19
M  V30 19 1 19 20
M  V30 20 2 20 21
M  V30 21 1 21 22
M  V30 22 2 22 23
M  V30 23 1 23 24
M  V30 24 2 24 25
M  V30 25 1 5 26
M  V30 26 1 26 27
M  V30 27 2 27 28
M  V30 28 1 28 29
M  V30 29 2 29 30
M  V30 30 1 30 31
M  V30 31 2 31 32
M  V30 32 1 32 33
M  V30 33 2 33 34
M  V30 34 1 34 35
M  V30 35 2 35 36
M  V30 36 1 25 16
M  V30 37 1 36 27
M  V30 38 1 23 18
M  V30 39 1 34 29
M  V30 40 1 1 37
M  V30 41 1 1 38
M  V30 42 1 2 39
M  V30 43 1 2 40
M  V30 44 1 3 41
M  V30 45 1 3 42
M  V30 46 1 4 43
M  V30 47 1 4 44
M  V30 48 1 6 45
M  V30 49 1 6 46
M  V30 50 1 7 47
M  V30 51 1 7 48
M  V30 52 1 8 49
M  V30 53 1 8 50
M  V30 54 1 9 51
M  V30 55 1 9 52
M  V30 56 1 11 53
M  V30 57 1 11 54
M  V30 58 1 12 55
M  V30 59 1 12 56
M  V30 60 1 13 57
M  V30 61 1 13 58
M  V30 62 1 14 59
M  V30 63 1 14 60
M  V30 64 1 15 61
M  V30 65 1 15 62
M  V30 66 1 17 63
M  V30 67 1 19 64
M  V30 68 1 20 65
M  V30 69 1 21 66
M  V30 70 1 22 67
M  V30 71 1 24 68
M  V30 72 1 25 69
M  V30 73 1 26 70
M  V30 74 1 26 71
M  V30 75 1 28 72
M  V30 76 1 30 73
M  V30 77 1 31 74
M  V30 78 1 32 75
M  V30 79 1 33 76
M  V30 80 1 35 77
M  V30 81 1 36 78
M  V30 END BOND
M  V30 END CTAB
M  END
