
     RDKit          3D

  0  0  0  0  0  0  0  0  0  0999 V3000
M  V30 BEGIN CTAB
M  V30 COUNTS 29 30 0 0 0
M  V30 BEGIN ATOM
M  V30 1 C -3.00089 1.10195 1.96483 0
M  V30 2 C -2.55793 0.213936 0.840752 0
M  V30 3 C -3.36804 -0.0965574 -0.213775 0
M  V30 4 C -2.9797 -0.905631 -1.24854 0
M  V30 5 C -1.69181 -1.42223 -1.19651 0
M  V30 6 C -0.830423 -1.14521 -0.160725 0
M  V30 7 C 0.514663 -1.71944 -0.156617 0
M  V30 8 N 1.45876 -0.849209 -0.88305 0
M  V30 9 N 1.75052 -0.87531 -2.15532 0
M  V30 10 C 2.65252 0.0634353 -2.47919 0
M  V30 11 C 2.96796 0.749262 -1.3263 0
M  V30 12 N 3.88143 1.82814 -1.20031 0
M  V30 13 C 2.19001 0.140917 -0.334005 0
M  V30 14 N 2.22843 0.562654 1.01434 0
M  V30 15 C -1.27122 -0.328955 0.849774 0
M  V30 16 H -3.10503 0.51133 2.89688 0
M  V30 17 H -3.9744 1.54713 1.68054 0
M  V30 18 H -2.25653 1.91267 2.11831 0
M  V30 19 H -4.37477 0.342896 -0.197193 0
M  V30 20 H -3.66222 -1.11739 -2.05682 0
M  V30 21 H -1.37788 -2.06315 -2.01189 0
M  V30 22 H 0.896195 -1.86071 0.890185 0
M  V30 23 H 0.534179 -2.73664 -0.621268 0
M  V30 24 H 3.08902 0.287518 -3.45116 0
M  V30 25 H 4.56687 1.86221 -0.417284 0
M  V30 26 H 3.90098 2.61779 -1.87817 0
M  V30 27 H 2.38946 -0.116919 1.76814 0
M  V30 28 H 2.09353 1.55884 1.23716 0
M  V30 29 H -0.663688 -0.0633239 1.6966 0
M  V30 END ATOM
M  V30 BEGIN BOND
M  V30 1 1 1 2
M  V30 2 2 2 3
M  V30 3 1 3 4
M  V30 4 2 4 5
M  V30 5 1 5 6
M  V30 6 1 6 7
M  V30 7 1 7 8
M  V30 8 1 8 9
M  V30 9 2 9 10
M  V30 10 1 10 11
M  V30 11 1 11 12
M  V30 12 2 11 13
M  V30 13 1 13 14
M  V30 14 2 6 15
M  V30 15 1 15 2
M  V30 16 1 13 8
M  V30 17 1 1 16
M  V30 18 1 1 17
M  V30 19 1 1 18
M  V30 20 1 3 19
M  V30 21 1 4 20
M  V30 22 1 5 21
M  V30 23 1 7 22
M  V30 24 1 7 23
M  V30 25 1 10 24
M  V30 26 1 12 25
M  V30 27 1 12 26
M  V30 28 1 14 27
M  V30 29 1 14 28
M  V30 30 1 15 29
M  V30 END BOND
M  V30 END CTAB
M  END
