
     RDKit          3D

  0  0  0  0  0  0  0  0  0  0999 V3000
M  V30 BEGIN CTAB
M  V30 COUNTS 52 55 0 0 0
M  V30 BEGIN ATOM
M  V30 1 N -7.85079 -1.0892 -1.29599 0
M  V30 2 C -6.55993 -0.671316 -0.811081 0
M  V30 3 N -5.65776 -0.102899 -1.63145 0
M  V30 4 C -4.46319 0.273986 -1.1415 0
M  V30 5 N -3.45846 0.877292 -1.9305 0
M  V30 6 C -4.19435 0.0632197 0.208667 0
M  V30 7 C -2.94048 0.455884 0.73511 0
M  V30 8 O -2.07266 1.02694 -0.143893 0
M  V30 9 C -0.808844 1.49056 0.00404247 0
M  V30 10 C 0.273171 0.500103 0.360192 0
M  V30 11 C 0.337007 -0.53418 -0.737839 0
M  V30 12 C 1.73613 -0.689966 -1.28213 0
M  V30 13 N 2.33813 0.521359 -1.69764 0
M  V30 14 C 2.10065 1.67522 -0.904753 0
M  V30 15 C 1.5667 1.29756 0.432419 0
M  V30 16 S 4.02626 0.276026 -1.90169 0
M  V30 17 O 4.5724 1.57474 -2.47322 0
M  V30 18 O 4.17885 -0.736072 -3.0138 0
M  V30 19 C 4.86162 -0.193004 -0.469381 0
M  V30 20 C 5.00504 -1.52296 -0.143414 0
M  V30 21 C 5.68467 -1.91327 1.01672 0
M  V30 22 C 6.22803 -0.946977 1.8611 0
M  V30 23 C 6.08173 0.383245 1.53025 0
M  V30 24 Cl 6.76637 1.58747 2.59505 0
M  V30 25 C 5.3996 0.762632 0.366624 0
M  V30 26 C -2.6935 0.239891 2.07397 0
M  V30 27 C -3.67132 -0.347749 2.84164 0
M  V30 28 C -4.89288 -0.743016 2.37961 0
M  V30 29 C -5.12886 -0.517819 1.02591 0
M  V30 30 N -6.327 -0.885312 0.490371 0
M  V30 31 H -8.63766 -0.429987 -1.14475 0
M  V30 32 H -7.98535 -2.00238 -1.77168 0
M  V30 33 H -2.74813 0.271138 -2.40212 0
M  V30 34 H -3.39944 1.90135 -2.05938 0
M  V30 35 H -0.511049 2.00607 -0.971257 0
M  V30 36 H -0.780624 2.35007 0.756036 0
M  V30 37 H 0.080058 0.0187966 1.31481 0
M  V30 38 H -0.390865 -0.29995 -1.53594 0
M  V30 39 H 0.0455867 -1.50724 -0.299613 0
M  V30 40 H 1.63436 -1.35713 -2.18883 0
M  V30 41 H 2.39749 -1.24183 -0.596023 0
M  V30 42 H 1.4275 2.39306 -1.44908 0
M  V30 43 H 3.09273 2.18481 -0.724972 0
M  V30 44 H 2.3109 0.659485 0.945618 0
M  V30 45 H 1.4389 2.21458 1.03614 0
M  V30 46 H 4.59013 -2.28162 -0.786811 0
M  V30 47 H 5.80588 -2.95422 1.28682 0
M  V30 48 H 6.75367 -1.24942 2.75843 0
M  V30 49 H 5.29541 1.78908 0.124375 0
M  V30 50 H -1.74504 0.555221 2.49287 0
M  V30 51 H -3.44727 -0.504725 3.88867 0
M  V30 52 H -5.66349 -1.20584 2.98327 0
M  V30 END ATOM
M  V30 BEGIN BOND
M  V30 1 1 1 2
M  V30 2 2 2 3
M  V30 3 1 3 4
M  V30 4 1 4 5
M  V30 5 2 4 6
M  V30 6 1 6 7
M  V30 7 1 7 8
M  V30 8 1 8 9
M  V30 9 1 9 10
M  V30 10 1 10 11
M  V30 11 1 11 12
M  V30 12 1 12 13
M  V30 13 1 13 14
M  V30 14 1 14 15
M  V30 15 1 13 16
M  V30 16 2 16 17
M  V30 17 2 16 18
M  V30 18 1 16 19
M  V30 19 2 19 20
M  V30 20 1 20 21
M  V30 21 2 21 22
M  V30 22 1 22 23
M  V30 23 1 23 24
M  V30 24 2 23 25
M  V30 25 2 7 26
M  V30 26 1 26 27
M  V30 27 2 27 28
M  V30 28 1 28 29
M  V30 29 2 29 30
M  V30 30 1 30 2
M  V30 31 1 29 6
M  V30 32 1 15 10
M  V30 33 1 25 19
M  V30 34 1 1 31
M  V30 35 1 1 32
M  V30 36 1 5 33
M  V30 37 1 5 34
M  V30 38 1 9 35
M  V30 39 1 9 36
M  V30 40 1 10 37
M  V30 41 1 11 38
M  V30 42 1 11 39
M  V30 43 1 12 40
M  V30 44 1 12 41
M  V30 45 1 14 42
M  V30 46 1 14 43
M  V30 47 1 15 44
M  V30 48 1 15 45
M  V30 49 1 20 46
M  V30 50 1 21 47
M  V30 51 1 22 48
M  V30 52 1 25 49
M  V30 53 1 26 50
M  V30 54 1 27 51
M  V30 55 1 28 52
M  V30 END BOND
M  V30 END CTAB
M  END
