
     RDKit          3D

  0  0  0  0  0  0  0  0  0  0999 V3000
M  V30 BEGIN CTAB
M  V30 COUNTS 53 55 0 0 0
M  V30 BEGIN ATOM
M  V30 1 C -5.64189 0.342542 0.606161 0 CFG=2
M  V30 2 C -6.21641 0.596916 -0.719809 0
M  V30 3 C -7.65774 0.571422 -0.984199 0
M  V30 4 C -8.40644 -0.660261 -0.883467 0
M  V30 5 O -7.83108 -1.87874 -1.19157 0
M  V30 6 O -9.60432 -0.656537 -0.515926 0
M  V30 7 N -4.20303 0.428799 0.513107 0
M  V30 8 C -3.51214 -0.486753 -0.295917 0
M  V30 9 C -2.01745 -0.253956 -0.243766 0
M  V30 10 C -1.36213 0.376122 -1.27674 0
M  V30 11 C 0.0191402 0.603284 -1.22156 0
M  V30 12 C 0.754975 0.200443 -0.128308 0
M  V30 13 N 2.15687 0.441469 -0.0755079 0
M  V30 14 C 2.94465 0.0472913 1.05192 0
M  V30 15 C 4.34959 0.444754 0.860693 0
M  V30 16 N 5.2321 -0.422232 0.354845 0
M  V30 17 C 6.53553 -0.0587302 0.173965 0
M  V30 18 C 6.96612 1.20683 0.508544 0
M  V30 19 N 6.05914 2.06081 1.01557 0
M  V30 20 C 4.77992 1.70472 1.19345 0
M  V30 21 N 8.2558 1.54387 0.323972 0
M  V30 22 C 9.16977 0.698516 -0.179433 0
M  V30 23 N 10.5317 1.06816 -0.36975 0
M  V30 24 N 8.74736 -0.541399 -0.507315 0
M  V30 25 C 7.46186 -0.937921 -0.344066 0
M  V30 26 N 7.02595 -2.23402 -0.688472 0
M  V30 27 C 0.101967 -0.427999 0.902548 0
M  V30 28 C -1.27396 -0.652149 0.842091 0
M  V30 29 C -6.09926 -0.753952 1.43173 0
M  V30 30 O -7.35335 -1.0033 1.92687 0
M  V30 31 O -5.21538 -1.62633 1.76585 0
M  V30 32 H -5.89259 1.28741 1.23917 0
M  V30 33 H -5.85231 1.61631 -1.09998 0
M  V30 34 H -5.73895 -0.0858388 -1.51357 0
M  V30 35 H -8.15629 1.42051 -0.405887 0
M  V30 36 H -7.79816 0.937898 -2.05591 0
M  V30 37 H -7.52345 -2.15717 -2.09767 0
M  V30 38 H -3.79517 1.3495 0.647282 0
M  V30 39 H -3.66217 -1.55721 -0.101587 0
M  V30 40 H -3.83809 -0.345347 -1.36963 0
M  V30 41 H -1.94685 0.687675 -2.12463 0
M  V30 42 H 0.466817 1.10282 -2.06667 0
M  V30 43 H 2.62166 0.919803 -0.882999 0
M  V30 44 H 2.88637 -1.05787 1.25025 0
M  V30 45 H 2.59927 0.516796 2.00365 0
M  V30 46 H 4.06114 2.41763 1.60764 0
M  V30 47 H 11.3347 0.430958 -0.216895 0
M  V30 48 H 10.7337 2.03732 -0.68257 0
M  V30 49 H 6.53767 -2.43256 -1.57978 0
M  V30 50 H 7.19882 -3.01705 -0.0284777 0
M  V30 51 H 0.611223 -0.77015 1.79062 0
M  V30 52 H -1.77253 -1.14447 1.65685 0
M  V30 53 H -7.77264 -1.89862 2.08563 0
M  V30 END ATOM
M  V30 BEGIN BOND
M  V30 1 1 1 2
M  V30 2 1 2 3
M  V30 3 1 3 4
M  V30 4 1 4 5
M  V30 5 2 4 6
M  V30 6 1 1 7
M  V30 7 1 7 8
M  V30 8 1 8 9
M  V30 9 2 9 10
M  V30 10 1 10 11
M  V30 11 2 11 12
M  V30 12 1 12 13
M  V30 13 1 13 14
M  V30 14 1 14 15
M  V30 15 2 15 16
M  V30 16 1 16 17
M  V30 17 2 17 18
M  V30 18 1 18 19
M  V30 19 2 19 20
M  V30 20 1 18 21
M  V30 21 2 21 22
M  V30 22 1 22 23
M  V30 23 1 22 24
M  V30 24 2 24 25
M  V30 25 1 25 26
M  V30 26 1 12 27
M  V30 27 2 27 28
M  V30 28 1 1 29
M  V30 29 1 29 30
M  V30 30 2 29 31
M  V30 31 1 28 9
M  V30 32 1 20 15
M  V30 33 1 25 17
M  V30 34 1 1 32 CFG=1
M  V30 35 1 2 33
M  V30 36 1 2 34
M  V30 37 1 3 35
M  V30 38 1 3 36
M  V30 39 1 5 37
M  V30 40 1 7 38
M  V30 41 1 8 39
M  V30 42 1 8 40
M  V30 43 1 10 41
M  V30 44 1 11 42
M  V30 45 1 13 43
M  V30 46 1 14 44
M  V30 47 1 14 45
M  V30 48 1 20 46
M  V30 49 1 23 47
M  V30 50 1 23 48
M  V30 51 1 26 49
M  V30 52 1 26 50
M  V30 53 1 27 51
M  V30 54 1 28 52
M  V30 55 1 30 53
M  V30 END BOND
M  V30 END CTAB
M  END
