
     RDKit          3D

  0  0  0  0  0  0  0  0  0  0999 V3000
M  V30 BEGIN CTAB
M  V30 COUNTS 17 17 0 0 0
M  V30 BEGIN ATOM
M  V30 1 N 2.81083 -0.694948 0.364941 0
M  V30 2 C 1.47371 -0.193471 0.170063 0
M  V30 3 C 0.385769 -1.03233 0.190103 0
M  V30 4 C -0.878908 -0.521253 0.000490792 0
M  V30 5 N -2.02177 -1.39094 0.0198902 0
M  V30 6 C -1.12173 0.813187 -0.213027 0
M  V30 7 C -0.0269946 1.64961 -0.232089 0
M  V30 8 C 1.24395 1.15018 -0.0435667 0
M  V30 9 C -2.46736 1.30221 -0.406902 0
M  V30 10 N -3.55038 1.6844 -0.564189 0
M  V30 11 H 3.51328 -0.218838 0.95796 0
M  V30 12 H 3.03718 -1.58134 -0.133798 0
M  V30 13 H 0.549203 -2.09097 0.356788 0
M  V30 14 H -2.40777 -1.78311 0.905809 0
M  V30 15 H -2.44114 -1.60468 -0.914576 0
M  V30 16 H -0.212367 2.70811 -0.40078 0
M  V30 17 H 2.1145 1.80418 -0.057118 0
M  V30 END ATOM
M  V30 BEGIN BOND
M  V30 1 1 1 2
M  V30 2 2 2 3
M  V30 3 1 3 4
M  V30 4 1 4 5
M  V30 5 2 4 6
M  V30 6 1 6 7
M  V30 7 2 7 8
M  V30 8 1 6 9
M  V30 9 3 9 10
M  V30 10 1 8 2
M  V30 11 1 1 11
M  V30 12 1 1 12
M  V30 13 1 3 13
M  V30 14 1 5 14
M  V30 15 1 5 15
M  V30 16 1 7 16
M  V30 17 1 8 17
M  V30 END BOND
M  V30 END CTAB
M  END
