
     RDKit          3D

  0  0  0  0  0  0  0  0  0  0999 V3000
M  V30 BEGIN CTAB
M  V30 COUNTS 22 23 0 0 0
M  V30 BEGIN ATOM
M  V30 1 N -4.01325 -1.22573 0.109149 0
M  V30 2 N -2.68913 -1.60658 0.17284 0
M  V30 3 C -1.69792 -0.594071 0.0285837 0
M  V30 4 N -2.01968 0.699124 -0.164442 0
M  V30 5 C -1.12222 1.67664 -0.304036 0
M  V30 6 N -1.56321 3.00107 -0.502303 0
M  V30 7 N 0.174357 1.32356 -0.24465 0
M  V30 8 C 0.560772 0.0502219 -0.0542049 0
M  V30 9 N -0.368307 -0.902349 0.0815295 0
M  V30 10 N 1.94959 -0.224369 -0.0059043 0
M  V30 11 C 2.77855 -0.210197 1.03955 0
M  V30 12 C 4.02441 -0.541263 0.59943 0
M  V30 13 C 3.93939 -0.762263 -0.761007 0
M  V30 14 N 2.67114 -0.560481 -1.08493 0
M  V30 15 H -4.58062 -1.44107 0.933639 0
M  V30 16 H -4.46965 -1.42912 -0.80253 0
M  V30 17 H -2.36122 -2.58762 0.319784 0
M  V30 18 H -1.57978 3.40707 -1.45693 0
M  V30 19 H -1.87467 3.58464 0.293163 0
M  V30 20 H 2.5155 0.0232618 2.06607 0
M  V30 21 H 4.97116 -0.638108 1.14829 0
M  V30 22 H 4.75479 -1.04238 -1.41109 0
M  V30 END ATOM
M  V30 BEGIN BOND
M  V30 1 1 1 2
M  V30 2 1 2 3
M  V30 3 2 3 4
M  V30 4 1 4 5
M  V30 5 1 5 6
M  V30 6 2 5 7
M  V30 7 1 7 8
M  V30 8 2 8 9
M  V30 9 1 8 10
M  V30 10 1 10 11
M  V30 11 2 11 12
M  V30 12 1 12 13
M  V30 13 2 13 14
M  V30 14 1 9 3
M  V30 15 1 14 10
M  V30 16 1 1 15
M  V30 17 1 1 16
M  V30 18 1 2 17
M  V30 19 1 6 18
M  V30 20 1 6 19
M  V30 21 1 11 20
M  V30 22 1 12 21
M  V30 23 1 13 22
M  V30 END BOND
M  V30 END CTAB
M  END
