
     RDKit          3D

  0  0  0  0  0  0  0  0  0  0999 V3000
M  V30 BEGIN CTAB
M  V30 COUNTS 30 29 0 0 0
M  V30 BEGIN ATOM
M  V30 1 N 5.30783 -0.587495 0.5751 0
M  V30 2 C 3.95953 -0.561567 -0.0111978 0
M  V30 3 C 3.48018 0.859956 0.0861912 0
M  V30 4 C 2.10814 1.06521 -0.471624 0
M  V30 5 C 1.05359 0.241086 0.221855 0
M  V30 6 C -0.314627 0.485476 -0.379738 0
M  V30 7 C -1.34191 -0.334443 0.315353 0
M  V30 8 O -1.01305 -1.10915 1.27815 0
M  V30 9 O -2.6643 -0.30863 -0.0255678 0
M  V30 10 C -3.66051 -1.07285 0.613198 0
M  V30 11 C -5.00623 -0.787945 -0.0292279 0
M  V30 12 N -5.37636 0.591241 0.0685862 0
M  V30 13 H 6.00814 -0.179964 -0.0760261 0
M  V30 14 H 5.26896 0.0639789 1.4067 0
M  V30 15 H 3.36147 -1.26002 0.612366 0
M  V30 16 H 4.0271 -0.899843 -1.06099 0
M  V30 17 H 4.18789 1.48295 -0.498585 0
M  V30 18 H 3.57202 1.19947 1.13759 0
M  V30 19 H 2.09215 0.824052 -1.55388 0
M  V30 20 H 1.86933 2.14496 -0.386347 0
M  V30 21 H 0.998878 0.579322 1.27935 0
M  V30 22 H 1.2455 -0.82952 0.197412 0
M  V30 23 H -0.293557 0.222905 -1.45587 0
M  V30 24 H -0.583994 1.55098 -0.214455 0
M  V30 25 H -3.4313 -2.1541 0.541265 0
M  V30 26 H -3.6883 -0.79805 1.6755 0
M  V30 27 H -5.77229 -1.41919 0.484408 0
M  V30 28 H -4.93583 -1.07849 -1.10299 0
M  V30 29 H -4.57689 1.22333 -0.152005 0
M  V30 30 H -5.88155 0.846343 0.936122 0
M  V30 END ATOM
M  V30 BEGIN BOND
M  V30 1 1 1 2
M  V30 2 1 2 3
M  V30 3 1 3 4
M  V30 4 1 4 5
M  V30 5 1 5 6
M  V30 6 1 6 7
M  V30 7 2 7 8
M  V30 8 1 7 9
M  V30 9 1 9 10
M  V30 10 1 10 11
M  V30 11 1 11 12
M  V30 12 1 1 13
M  V30 13 1 1 14
M  V30 14 1 2 15
M  V30 15 1 2 16
M  V30 16 1 3 17
M  V30 17 1 3 18
M  V30 18 1 4 19
M  V30 19 1 4 20
M  V30 20 1 5 21
M  V30 21 1 5 22
M  V30 22 1 6 23
M  V30 23 1 6 24
M  V30 24 1 10 25
M  V30 25 1 10 26
M  V30 26 1 11 27
M  V30 27 1 11 28
M  V30 28 1 12 29
M  V30 29 1 12 30
M  V30 END BOND
M  V30 END CTAB
M  END
