
     RDKit          3D

  0  0  0  0  0  0  0  0  0  0999 V3000
M  V30 BEGIN CTAB
M  V30 COUNTS 27 27 0 0 0
M  V30 BEGIN ATOM
M  V30 1 C -2.67711 -1.48669 -0.126787 0
M  V30 2 C -2.37363 -0.0489929 0.168117 0
M  V30 3 C -0.938249 0.189784 0.567952 0
M  V30 4 S 0.24162 -0.294613 -0.692652 0
M  V30 5 C 1.87781 0.0504706 -0.0670781 0
M  V30 6 N 2.13778 0.575012 1.12884 0
M  V30 7 C 3.38676 0.820779 1.56506 0
M  V30 8 C 4.46308 0.524905 0.755823 0
M  V30 9 N 4.22477 -0.00638705 -0.458252 0
M  V30 10 C 2.94872 -0.247427 -0.880448 0
M  V30 11 N 2.73352 -0.806788 -2.16256 0
M  V30 12 N -3.19066 0.409143 1.30432 0
M  V30 13 C -2.78137 0.810955 -1.00661 0
M  V30 14 H -3.72219 -1.67723 0.233331 0
M  V30 15 H -2.67962 -1.62717 -1.23176 0
M  V30 16 H -1.97851 -2.18323 0.378571 0
M  V30 17 H -0.680764 -0.306178 1.524 0
M  V30 18 H -0.845031 1.29239 0.744172 0
M  V30 19 H 3.58667 1.246 2.53575 0
M  V30 20 H 5.4948 0.717781 1.09254 0
M  V30 21 H 3.50239 -1.3521 -2.59829 0
M  V30 22 H 1.85121 -0.701714 -2.6894 0
M  V30 23 H -2.71999 1.26329 1.67874 0
M  V30 24 H -3.15672 -0.317245 2.03216 0
M  V30 25 H -2.51819 1.8787 -0.787477 0
M  V30 26 H -2.29671 0.5091 -1.94603 0
M  V30 27 H -3.89038 0.767468 -1.06203 0
M  V30 END ATOM
M  V30 BEGIN BOND
M  V30 1 1 1 2
M  V30 2 1 2 3
M  V30 3 1 3 4
M  V30 4 1 4 5
M  V30 5 2 5 6
M  V30 6 1 6 7
M  V30 7 2 7 8
M  V30 8 1 8 9
M  V30 9 2 9 10
M  V30 10 1 10 11
M  V30 11 1 2 12
M  V30 12 1 2 13
M  V30 13 1 10 5
M  V30 14 1 1 14
M  V30 15 1 1 15
M  V30 16 1 1 16
M  V30 17 1 3 17
M  V30 18 1 3 18
M  V30 19 1 7 19
M  V30 20 1 8 20
M  V30 21 1 11 21
M  V30 22 1 11 22
M  V30 23 1 12 23
M  V30 24 1 12 24
M  V30 25 1 13 25
M  V30 26 1 13 26
M  V30 27 1 13 27
M  V30 END BOND
M  V30 END CTAB
M  END
