
     RDKit          3D

  0  0  0  0  0  0  0  0  0  0999 V3000
M  V30 BEGIN CTAB
M  V30 COUNTS 58 61 0 0 0
M  V30 BEGIN ATOM
M  V30 1 O 5.12615 -1.41453 -1.07755 0
M  V30 2 C 4.65439 -0.514431 -0.303991 0
M  V30 3 C 5.51882 -0.0659806 0.785904 0
M  V30 4 N 4.95478 0.917948 1.66241 0
M  V30 5 C 5.90377 -1.26717 1.63839 0
M  V30 6 C 6.82492 0.534227 0.237621 0
M  V30 7 N 3.36072 -0.0445311 -0.570848 0
M  V30 8 C 2.65996 0.965946 0.175111 0
M  V30 9 C 1.29166 1.18899 -0.491804 0
M  V30 10 C 0.488908 -0.0762611 -0.568407 0
M  V30 11 C 1.34373 -1.18374 -1.09251 0
M  V30 12 C 2.59787 -0.599314 -1.70157 0
M  V30 13 O 0.0211281 -0.329679 0.727371 0
M  V30 14 C -1.11264 0.450801 0.941039 0
M  V30 15 C -2.28984 -0.379027 0.402265 0 CFG=2
M  V30 16 C -1.84034 -0.837624 -0.97267 0 CFG=2
M  V30 17 C -0.700354 0.0411457 -1.4859 0
M  V30 18 C -2.95682 -0.936383 -1.95706 0
M  V30 19 O -1.30545 -2.11575 -0.8134 0
M  V30 20 N -3.49693 0.38559 0.379191 0
M  V30 21 C -3.67397 1.67277 0.0556659 0
M  V30 22 N -4.96289 2.02867 0.157635 0
M  V30 23 C -5.64603 0.943397 0.558905 0
M  V30 24 C -4.73295 -0.0782309 0.696439 0
M  V30 25 N -5.18722 -1.27301 1.09228 0
M  V30 26 C -6.49698 -1.46953 1.34813 0
M  V30 27 N -7.37846 -0.458357 1.20863 0
M  V30 28 C -6.98972 0.76744 0.814395 0
M  V30 29 N -7.92792 1.82848 0.670026 0
M  V30 30 H 5.23314 1.8865 1.37721 0
M  V30 31 H 5.35249 0.784699 2.61639 0
M  V30 32 H 6.23334 -2.06807 0.925416 0
M  V30 33 H 5.05551 -1.64531 2.23381 0
M  V30 34 H 6.80933 -1.05263 2.25853 0
M  V30 35 H 7.42304 0.875324 1.10637 0
M  V30 36 H 7.34048 -0.295618 -0.286319 0
M  V30 37 H 6.56065 1.37723 -0.43978 0
M  V30 38 H 2.43727 0.704365 1.21761 0
M  V30 39 H 3.16147 1.95605 0.170738 0
M  V30 40 H 1.37952 1.73337 -1.44769 0
M  V30 41 H 0.808825 1.94095 0.206685 0
M  V30 42 H 0.860039 -1.7639 -1.92013 0
M  V30 43 H 1.617 -1.93218 -0.328414 0
M  V30 44 H 3.2029 -1.3703 -2.2235 0
M  V30 45 H 2.39241 0.252516 -2.37464 0
M  V30 46 H -1.13478 1.38308 0.340922 0
M  V30 47 H -1.25295 0.64216 2.02804 0
M  V30 48 H -2.37309 -1.23709 1.1001 0
M  V30 49 H -0.452523 -0.388748 -2.50197 0
M  V30 50 H -1.00079 1.07093 -1.66648 0
M  V30 51 H -3.47384 -1.9236 -1.77503 0
M  V30 52 H -3.72161 -0.167143 -1.88686 0
M  V30 53 H -2.51432 -1.0216 -2.96984 0
M  V30 54 H -1.69926 -2.78251 -1.41854 0
M  V30 55 H -2.89569 2.34661 -0.248226 0
M  V30 56 H -6.83094 -2.45608 1.66882 0
M  V30 57 H -7.69791 2.79652 0.982737 0
M  V30 58 H -8.868 1.67261 0.249962 0
M  V30 END ATOM
M  V30 BEGIN BOND
M  V30 1 2 1 2
M  V30 2 1 2 3
M  V30 3 1 3 4
M  V30 4 1 3 5
M  V30 5 1 3 6
M  V30 6 1 2 7
M  V30 7 1 7 8
M  V30 8 1 8 9
M  V30 9 1 9 10
M  V30 10 1 10 11
M  V30 11 1 11 12
M  V30 12 1 10 13
M  V30 13 1 13 14
M  V30 14 1 14 15
M  V30 15 1 15 16
M  V30 16 1 16 17
M  V30 17 1 16 18
M  V30 18 1 16 19 CFG=1
M  V30 19 1 15 20
M  V30 20 1 20 21
M  V30 21 2 21 22
M  V30 22 1 22 23
M  V30 23 2 23 24
M  V30 24 1 24 25
M  V30 25 2 25 26
M  V30 26 1 26 27
M  V30 27 2 27 28
M  V30 28 1 28 29
M  V30 29 1 12 7
M  V30 30 1 24 20
M  V30 31 1 17 10
M  V30 32 1 28 23
M  V30 33 1 4 30
M  V30 34 1 4 31
M  V30 35 1 5 32
M  V30 36 1 5 33
M  V30 37 1 5 34
M  V30 38 1 6 35
M  V30 39 1 6 36
M  V30 40 1 6 37
M  V30 41 1 8 38
M  V30 42 1 8 39
M  V30 43 1 9 40
M  V30 44 1 9 41
M  V30 45 1 11 42
M  V30 46 1 11 43
M  V30 47 1 12 44
M  V30 48 1 12 45
M  V30 49 1 14 46
M  V30 50 1 14 47
M  V30 51 1 15 48 CFG=1
M  V30 52 1 17 49
M  V30 53 1 17 50
M  V30 54 1 18 51
M  V30 55 1 18 52
M  V30 56 1 18 53
M  V30 57 1 19 54
M  V30 58 1 21 55
M  V30 59 1 26 56
M  V30 60 1 29 57
M  V30 61 1 29 58
M  V30 END BOND
M  V30 END CTAB
M  END
