
     RDKit          3D

  0  0  0  0  0  0  0  0  0  0999 V3000
M  V30 BEGIN CTAB
M  V30 COUNTS 51 52 0 0 0
M  V30 BEGIN ATOM
M  V30 1 N -6.78985 0.146632 -2.092 0
M  V30 2 C -6.94739 -0.412802 -0.782651 0
M  V30 3 C -5.89695 -1.46946 -0.463302 0
M  V30 4 N -4.59493 -0.833844 -0.549064 0
M  V30 5 C -4.38428 0.126172 0.481055 0
M  V30 6 C -2.96734 0.412235 0.842594 0
M  V30 7 N -2.12121 -0.755506 0.822073 0
M  V30 8 C -2.67443 -2.02312 0.414059 0
M  V30 9 C -3.53581 -1.74897 -0.800238 0
M  V30 10 C -0.770546 -0.649208 1.19471 0
M  V30 11 O -0.0626331 -1.71474 1.16439 0
M  V30 12 C -0.0928291 0.560114 1.61406 0
M  V30 13 O -0.698434 1.64521 1.66801 0
M  V30 14 N 1.3027 0.569947 1.98705 0
M  V30 15 C 1.9476 1.79063 2.40093 0
M  V30 16 C 3.38558 1.54102 2.7241 0
M  V30 17 C 4.08435 1.0405 1.51072 0
M  V30 18 C 4.30546 -0.28739 1.23111 0
M  V30 19 C 4.94823 -0.671128 0.0736145 0
M  V30 20 C 5.40328 0.233172 -0.860973 0
M  V30 21 C 5.18173 1.56524 -0.579407 0
M  V30 22 C 4.54455 1.96689 0.565303 0
M  V30 23 S 6.21793 -0.270707 -2.32816 0
M  V30 24 O 5.74623 -1.62446 -2.70746 0
M  V30 25 O 5.97509 0.732291 -3.41973 0
M  V30 26 N 7.91982 -0.344897 -1.94211 0
M  V30 27 H -7.08626 1.14833 -2.09675 0
M  V30 28 H -5.80558 0.11997 -2.42213 0
M  V30 29 H -7.93629 -0.931934 -0.653018 0
M  V30 30 H -6.9518 0.390861 -0.0142941 0
M  V30 31 H -6.00184 -2.32941 -1.12171 0
M  V30 32 H -6.07848 -1.76634 0.600634 0
M  V30 33 H -4.84102 1.09724 0.121172 0
M  V30 34 H -4.96356 -0.0983526 1.40912 0
M  V30 35 H -2.60037 1.21971 0.178414 0
M  V30 36 H -2.96043 0.77656 1.9118 0
M  V30 37 H -3.26219 -2.45606 1.24004 0
M  V30 38 H -1.86293 -2.71133 0.0807455 0
M  V30 39 H -3.96737 -2.72307 -1.11293 0
M  V30 40 H -2.85083 -1.44008 -1.6213 0
M  V30 41 H 1.75946 -0.35235 1.93189 0
M  V30 42 H 1.91458 2.46121 1.49239 0
M  V30 43 H 1.40951 2.28216 3.24933 0
M  V30 44 H 3.87399 2.49352 3.07625 0
M  V30 45 H 3.51239 0.787519 3.53161 0
M  V30 46 H 3.97553 -1.0369 1.9479 0
M  V30 47 H 5.11817 -1.71755 -0.140229 0
M  V30 48 H 5.52876 2.30932 -1.29726 0
M  V30 49 H 4.36375 3.02436 0.797043 0
M  V30 50 H 7.99541 -0.706189 -0.953536 0
M  V30 51 H 8.29153 0.63496 -1.90832 0
M  V30 END ATOM
M  V30 BEGIN BOND
M  V30 1 1 1 2
M  V30 2 1 2 3
M  V30 3 1 3 4
M  V30 4 1 4 5
M  V30 5 1 5 6
M  V30 6 1 6 7
M  V30 7 1 7 8
M  V30 8 1 8 9
M  V30 9 1 7 10
M  V30 10 2 10 11
M  V30 11 1 10 12
M  V30 12 2 12 13
M  V30 13 1 12 14
M  V30 14 1 14 15
M  V30 15 1 15 16
M  V30 16 1 16 17
M  V30 17 2 17 18
M  V30 18 1 18 19
M  V30 19 2 19 20
M  V30 20 1 20 21
M  V30 21 2 21 22
M  V30 22 1 20 23
M  V30 23 2 23 24
M  V30 24 2 23 25
M  V30 25 1 23 26
M  V30 26 1 9 4
M  V30 27 1 22 17
M  V30 28 1 1 27
M  V30 29 1 1 28
M  V30 30 1 2 29
M  V30 31 1 2 30
M  V30 32 1 3 31
M  V30 33 1 3 32
M  V30 34 1 5 33
M  V30 35 1 5 34
M  V30 36 1 6 35
M  V30 37 1 6 36
M  V30 38 1 8 37
M  V30 39 1 8 38
M  V30 40 1 9 39
M  V30 41 1 9 40
M  V30 42 1 14 41
M  V30 43 1 15 42
M  V30 44 1 15 43
M  V30 45 1 16 44
M  V30 46 1 16 45
M  V30 47 1 18 46
M  V30 48 1 19 47
M  V30 49 1 21 48
M  V30 50 1 22 49
M  V30 51 1 26 50
M  V30 52 1 26 51
M  V30 END BOND
M  V30 END CTAB
M  END
