
     RDKit          3D

  0  0  0  0  0  0  0  0  0  0999 V3000
M  V30 BEGIN CTAB
M  V30 COUNTS 21 20 0 0 0
M  V30 BEGIN ATOM
M  V30 1 N 2.50979 -0.433804 0.761854 0
M  V30 2 N 1.64103 -1.2358 0.078521 0
M  V30 3 C 0.452261 -0.959754 -0.248819 0
M  V30 4 C -0.308038 0.260904 0.00433781 0
M  V30 5 C -0.598581 0.866182 -1.36151 0
M  V30 6 F -1.33037 -0.0385982 -2.10674 0
M  V30 7 F -1.38526 2.0077 -1.2552 0
M  V30 8 F 0.569584 1.11733 -2.05681 0
M  V30 9 C 0.325019 1.24804 0.936054 0
M  V30 10 C -1.68036 -0.0528891 0.613461 0
M  V30 11 N -0.24003 -1.99914 -0.980962 0
M  V30 12 H 2.59415 -0.525998 1.79688 0
M  V30 13 H 3.12663 0.298504 0.305232 0
M  V30 14 H 0.563743 0.730433 1.88692 0
M  V30 15 H -0.451655 2.02164 1.21458 0
M  V30 16 H 1.2345 1.73807 0.559791 0
M  V30 17 H -2.36164 -0.452964 -0.186111 0
M  V30 18 H -2.05026 0.913444 1.00889 0
M  V30 19 H -1.61595 -0.76401 1.45022 0
M  V30 20 H -0.923754 -2.5568 -0.436846 0
M  V30 21 H -0.0708171 -2.18248 -1.98376 0
M  V30 END ATOM
M  V30 BEGIN BOND
M  V30 1 1 1 2
M  V30 2 2 2 3 CFG=2
M  V30 3 1 3 4
M  V30 4 1 4 5
M  V30 5 1 5 6
M  V30 6 1 5 7
M  V30 7 1 5 8
M  V30 8 1 4 9
M  V30 9 1 4 10
M  V30 10 1 3 11
M  V30 11 1 1 12
M  V30 12 1 1 13
M  V30 13 1 9 14
M  V30 14 1 9 15
M  V30 15 1 9 16
M  V30 16 1 10 17
M  V30 17 1 10 18
M  V30 18 1 10 19
M  V30 19 1 11 20
M  V30 20 1 11 21
M  V30 END BOND
M  V30 END CTAB
M  END
