
     RDKit          3D

  0  0  0  0  0  0  0  0  0  0999 V3000
M  V30 BEGIN CTAB
M  V30 COUNTS 20 20 0 0 0
M  V30 BEGIN ATOM
M  V30 1 N 3.79624 -0.357039 1.6026 0
M  V30 2 C 3.17598 -0.339439 0.640177 0
M  V30 3 C 2.37525 -0.297909 -0.586519 0
M  V30 4 C 0.938537 -0.0900133 -0.316305 0
M  V30 5 C 0.415748 1.16973 -0.530422 0
M  V30 6 C -0.931044 1.33961 -0.273352 0
M  V30 7 N -1.49768 2.63408 -0.487181 0
M  V30 8 C -1.72461 0.293444 0.179033 0
M  V30 9 C -1.20217 -0.974254 0.394644 0
M  V30 10 C 0.142889 -1.12245 0.133341 0
M  V30 11 I 0.990222 -3.033 0.452684 0
M  V30 12 N -1.98934 -2.05751 0.849148 0
M  V30 13 H 2.48907 -1.28698 -1.12464 0
M  V30 14 H 2.78932 0.441701 -1.28552 0
M  V30 15 H 1.01498 1.98918 -0.880251 0
M  V30 16 H -1.66699 3.30103 0.308892 0
M  V30 17 H -1.73912 2.89446 -1.47166 0
M  V30 18 H -2.77688 0.430318 0.377978 0
M  V30 19 H -1.79223 -2.5697 1.73123 0
M  V30 20 H -2.80818 -2.36527 0.286132 0
M  V30 END ATOM
M  V30 BEGIN BOND
M  V30 1 3 1 2
M  V30 2 1 2 3
M  V30 3 1 3 4
M  V30 4 2 4 5
M  V30 5 1 5 6
M  V30 6 1 6 7
M  V30 7 2 6 8
M  V30 8 1 8 9
M  V30 9 2 9 10
M  V30 10 1 10 11
M  V30 11 1 9 12
M  V30 12 1 10 4
M  V30 13 1 3 13
M  V30 14 1 3 14
M  V30 15 1 5 15
M  V30 16 1 7 16
M  V30 17 1 7 17
M  V30 18 1 8 18
M  V30 19 1 12 19
M  V30 20 1 12 20
M  V30 END BOND
M  V30 END CTAB
M  END
