
     RDKit          3D

  0  0  0  0  0  0  0  0  0  0999 V3000
M  V30 BEGIN CTAB
M  V30 COUNTS 17 17 0 0 0
M  V30 BEGIN ATOM
M  V30 1 N -2.84338 -0.369954 0.327236 0
M  V30 2 C -1.42881 -0.26648 0.202287 0
M  V30 3 C -0.633192 -1.30259 0.647015 0
M  V30 4 C 0.748206 -1.25985 0.552437 0
M  V30 5 C 1.38037 -0.158102 -0.000142096 0
M  V30 6 C 0.579098 0.866255 -0.439033 0
M  V30 7 C -0.805355 0.832132 -0.348349 0
M  V30 8 Br -1.87354 2.28463 -0.974329 0
M  V30 9 O 1.19129 1.98526 -0.998658 0
M  V30 10 N 2.80881 -0.115493 -0.0971655 0
M  V30 11 H -3.36812 -1.27033 0.199664 0
M  V30 12 H -3.42134 0.467079 0.555709 0
M  V30 13 H -1.10152 -2.17925 1.08483 0
M  V30 14 H 1.35348 -2.10217 0.916217 0
M  V30 15 H 0.685997 2.78493 -1.34775 0
M  V30 16 H 3.29481 0.0541138 -1.00981 0
M  V30 17 H 3.43319 -0.250164 0.729848 0
M  V30 END ATOM
M  V30 BEGIN BOND
M  V30 1 1 1 2
M  V30 2 2 2 3
M  V30 3 1 3 4
M  V30 4 2 4 5
M  V30 5 1 5 6
M  V30 6 2 6 7
M  V30 7 1 7 8
M  V30 8 1 6 9
M  V30 9 1 5 10
M  V30 10 1 7 2
M  V30 11 1 1 11
M  V30 12 1 1 12
M  V30 13 1 3 13
M  V30 14 1 4 14
M  V30 15 1 9 15
M  V30 16 1 10 16
M  V30 17 1 10 17
M  V30 END BOND
M  V30 END CTAB
M  END
