
     RDKit          3D

  0  0  0  0  0  0  0  0  0  0999 V3000
M  V30 BEGIN CTAB
M  V30 COUNTS 22 22 0 0 0
M  V30 BEGIN ATOM
M  V30 1 N -3.32861 0.0391733 -0.641347 0
M  V30 2 C -1.93073 0.0275714 -0.386983 0
M  V30 3 C -1.01841 0.514456 -1.2733 0
M  V30 4 C 0.331834 0.503382 -1.02784 0
M  V30 5 C 0.782676 -0.0171797 0.154168 0
M  V30 6 C -0.100763 -0.519963 1.07906 0
M  V30 7 C -1.47502 -0.503786 0.818785 0
M  V30 8 N -2.35144 -1.02802 1.79041 0
M  V30 9 F 0.357738 -1.03604 2.25277 0
M  V30 10 S 2.49039 -0.0363696 0.475611 0
M  V30 11 O 2.97095 -1.46313 0.715749 0
M  V30 12 O 2.8388 0.756689 1.69674 0
M  V30 13 C 3.34324 0.678296 -0.904796 0
M  V30 14 H -3.7158 0.652106 -1.38496 0
M  V30 15 H -3.99039 -0.551707 -0.103347 0
M  V30 16 H -1.36953 0.924154 -2.20297 0
M  V30 17 H 1.01294 0.911958 -1.78555 0
M  V30 18 H -2.90691 -1.87221 1.59336 0
M  V30 19 H -2.43507 -0.560627 2.70472 0
M  V30 20 H 3.28264 0.014667 -1.77191 0
M  V30 21 H 2.82333 1.62207 -1.16988 0
M  V30 22 H 4.38814 0.944505 -0.628508 0
M  V30 END ATOM
M  V30 BEGIN BOND
M  V30 1 1 1 2
M  V30 2 2 2 3
M  V30 3 1 3 4
M  V30 4 2 4 5
M  V30 5 1 5 6
M  V30 6 2 6 7
M  V30 7 1 7 8
M  V30 8 1 6 9
M  V30 9 1 5 10
M  V30 10 2 10 11
M  V30 11 2 10 12
M  V30 12 1 10 13
M  V30 13 1 7 2
M  V30 14 1 1 14
M  V30 15 1 1 15
M  V30 16 1 3 16
M  V30 17 1 4 17
M  V30 18 1 8 18
M  V30 19 1 8 19
M  V30 20 1 13 20
M  V30 21 1 13 21
M  V30 22 1 13 22
M  V30 END BOND
M  V30 END CTAB
M  END
