
     RDKit          3D

  0  0  0  0  0  0  0  0  0  0999 V3000
M  V30 BEGIN CTAB
M  V30 COUNTS 45 46 0 0 0
M  V30 BEGIN ATOM
M  V30 1 C -2.10069 3.11227 0.607688 0
M  V30 2 C -3.03985 2.16379 -0.0561197 0
M  V30 3 N -2.3444 0.846982 -0.206273 0
M  V30 4 C -1.63335 0.681202 -1.40063 0
M  V30 5 O -1.68678 1.68738 -2.22083 0
M  V30 6 C -0.840126 -0.432152 -1.90044 0 CFG=2
M  V30 7 C -1.59848 -1.68047 -2.14918 0
M  V30 8 C -0.867494 -2.80505 -1.48518 0 CFG=2
M  V30 9 C 0.158474 -2.13351 -0.604991 0
M  V30 10 N 0.2387 -0.747353 -0.942088 0
M  V30 11 C 1.17334 0.225348 -0.541338 0
M  V30 12 O 0.990943 1.37976 -1.11934 0
M  V30 13 C 2.2656 0.160183 0.373081 0
M  V30 14 C 2.59725 -0.907988 1.15685 0
M  V30 15 C 3.70083 -0.92733 2.02651 0
M  V30 16 N 4.46287 0.158062 2.08765 0
M  V30 17 C 4.19443 1.24337 1.34567 0
M  V30 18 C 3.12879 1.26979 0.501681 0
M  V30 19 N 5.04883 2.37451 1.45683 0
M  V30 20 N -0.234604 -3.59755 -2.52816 0
M  V30 21 C -2.52076 -0.0367935 0.893721 0
M  V30 22 C -1.57101 0.0911606 2.03467 0
M  V30 23 H -2.27058 4.13434 0.206754 0
M  V30 24 H -2.28192 3.11513 1.70628 0
M  V30 25 H -1.05517 2.82806 0.438125 0
M  V30 26 H -3.31113 2.55494 -1.05677 0
M  V30 27 H -3.94022 2.01445 0.539565 0
M  V30 28 H -0.283494 -0.134062 -2.83079 0
M  V30 29 H -2.64462 -1.68325 -1.78549 0
M  V30 30 H -1.67773 -1.84292 -3.25612 0
M  V30 31 H -1.52007 -3.46961 -0.89734 0
M  V30 32 H 1.12799 -2.66731 -0.785843 0
M  V30 33 H -0.20375 -2.24621 0.433645 0
M  V30 34 H 1.9894 -1.80168 1.14253 0
M  V30 35 H 3.89577 -1.80856 2.61105 0
M  V30 36 H 2.91728 2.14624 -0.0940187 0
M  V30 37 H 5.90221 2.35882 2.03358 0
M  V30 38 H 4.83321 3.26166 0.952033 0
M  V30 39 H -0.134681 -4.56231 -2.16005 0
M  V30 40 H -0.82468 -3.63725 -3.37782 0
M  V30 41 H -3.5734 0.109186 1.3016 0
M  V30 42 H -2.55845 -1.0986 0.528735 0
M  V30 43 H -2.08964 0.3085 2.9932 0
M  V30 44 H -1.03267 -0.86505 2.1963 0
M  V30 45 H -0.786173 0.859902 1.83106 0
M  V30 END ATOM
M  V30 BEGIN BOND
M  V30 1 1 1 2
M  V30 2 1 2 3
M  V30 3 1 3 4
M  V30 4 2 4 5
M  V30 5 1 4 6
M  V30 6 1 6 7
M  V30 7 1 7 8
M  V30 8 1 8 9
M  V30 9 1 9 10
M  V30 10 1 10 11
M  V30 11 2 11 12
M  V30 12 1 11 13
M  V30 13 2 13 14
M  V30 14 1 14 15
M  V30 15 2 15 16
M  V30 16 1 16 17
M  V30 17 2 17 18
M  V30 18 1 17 19
M  V30 19 1 8 20
M  V30 20 1 3 21
M  V30 21 1 21 22
M  V30 22 1 10 6
M  V30 23 1 18 13
M  V30 24 1 1 23
M  V30 25 1 1 24
M  V30 26 1 1 25
M  V30 27 1 2 26
M  V30 28 1 2 27
M  V30 29 1 6 28 CFG=3
M  V30 30 1 7 29
M  V30 31 1 7 30
M  V30 32 1 8 31 CFG=1
M  V30 33 1 9 32
M  V30 34 1 9 33
M  V30 35 1 14 34
M  V30 36 1 15 35
M  V30 37 1 18 36
M  V30 38 1 19 37
M  V30 39 1 19 38
M  V30 40 1 20 39
M  V30 41 1 20 40
M  V30 42 1 21 41
M  V30 43 1 21 42
M  V30 44 1 22 43
M  V30 45 1 22 44
M  V30 46 1 22 45
M  V30 END BOND
M  V30 END CTAB
M  END
