
     RDKit          3D

  0  0  0  0  0  0  0  0  0  0999 V3000
M  V30 BEGIN CTAB
M  V30 COUNTS 32 34 0 0 0
M  V30 BEGIN ATOM
M  V30 1 N -0.614579 -2.30492 0.806205 0
M  V30 2 C -0.53906 -1.60384 -0.451749 0 CFG=1
M  V30 3 C -1.97529 -1.51302 -0.985572 0
M  V30 4 C -2.69198 -0.533556 -0.0805694 0
M  V30 5 C -2.21832 0.843896 -0.519394 0 CFG=2
M  V30 6 C -0.775264 0.900342 -0.283875 0
M  V30 7 C -0.00419983 -0.245015 -0.254572 0
M  V30 8 C 1.36899 -0.114972 -0.0241959 0
M  V30 9 C 2.20281 -1.2142 0.0189417 0
M  V30 10 C 3.56416 -1.0916 0.246815 0
M  V30 11 C 4.12641 0.152443 0.438928 0
M  V30 12 C 3.31794 1.25186 0.399862 0
M  V30 13 C 1.95284 1.11965 0.170603 0
M  V30 14 C 1.16049 2.22518 0.134624 0
M  V30 15 C -0.195613 2.14671 -0.0887813 0
M  V30 16 N -2.97359 1.80976 0.23922 0
M  V30 17 H -0.62657 -1.69087 1.61792 0
M  V30 18 H -1.26877 -3.06863 0.83074 0
M  V30 19 H 0.0151708 -2.18656 -1.2199 0
M  V30 20 H -1.86184 -1.05629 -2.01144 0
M  V30 21 H -2.44491 -2.49062 -1.04013 0
M  V30 22 H -2.32426 -0.694665 0.966991 0
M  V30 23 H -3.78353 -0.629845 -0.118106 0
M  V30 24 H -2.437 0.925699 -1.61125 0
M  V30 25 H 1.8158 -2.20299 -0.124156 0
M  V30 26 H 4.20141 -1.96793 0.276799 0
M  V30 27 H 5.18572 0.27367 0.618374 0
M  V30 28 H 3.74654 2.23686 0.549315 0
M  V30 29 H 1.60525 3.21422 0.287015 0
M  V30 30 H -0.760235 3.06891 -0.103386 0
M  V30 31 H -3.98889 1.64718 -0.00547205 0
M  V30 32 H -2.77963 2.79314 -0.0104367 0
M  V30 END ATOM
M  V30 BEGIN BOND
M  V30 1 1 1 2
M  V30 2 1 2 3
M  V30 3 1 3 4
M  V30 4 1 4 5
M  V30 5 1 5 6
M  V30 6 2 6 7
M  V30 7 1 7 8
M  V30 8 2 8 9
M  V30 9 1 9 10
M  V30 10 2 10 11
M  V30 11 1 11 12
M  V30 12 2 12 13
M  V30 13 1 13 14
M  V30 14 2 14 15
M  V30 15 1 5 16
M  V30 16 1 7 2
M  V30 17 1 13 8
M  V30 18 1 15 6
M  V30 19 1 1 17
M  V30 20 1 1 18
M  V30 21 1 2 19 CFG=3
M  V30 22 1 3 20
M  V30 23 1 3 21
M  V30 24 1 4 22
M  V30 25 1 4 23
M  V30 26 1 5 24 CFG=3
M  V30 27 1 9 25
M  V30 28 1 10 26
M  V30 29 1 11 27
M  V30 30 1 12 28
M  V30 31 1 14 29
M  V30 32 1 15 30
M  V30 33 1 16 31
M  V30 34 1 16 32
M  V30 END BOND
M  V30 END CTAB
M  END
