
     RDKit          3D

  0  0  0  0  0  0  0  0  0  0999 V3000
M  V30 BEGIN CTAB
M  V30 COUNTS 36 37 0 0 0
M  V30 BEGIN ATOM
M  V30 1 S -0.375033 0.326904 -2.21239 0
M  V30 2 C -0.158297 0.0535286 -0.598725 0
M  V30 3 N -1.23823 0.163664 0.262606 0
M  V30 4 C -2.27236 0.269074 1.08778 0
M  V30 5 O -2.23375 0.0658836 2.36943 0
M  V30 6 C -3.66333 0.643374 0.656322 0
M  V30 7 C -3.94322 0.993661 -0.644315 0
M  V30 8 C -5.26073 1.3565 -0.976511 0
M  V30 9 C -6.25891 1.35893 -0.00624708 0
M  V30 10 C -5.9602 1.00703 1.28431 0
M  V30 11 C -4.6588 0.652231 1.59673 0
M  V30 12 N -4.3836 0.278797 2.95596 0
M  V30 13 N 1.17341 -0.249695 -0.224949 0
M  V30 14 C 2.28325 -0.329093 -1.07516 0
M  V30 15 O 2.09178 -0.11248 -2.31078 0
M  V30 16 C 3.61229 -0.642544 -0.585279 0
M  V30 17 C 3.89994 -0.951005 0.722332 0
M  V30 18 C 5.19739 -1.26375 1.14925 0
M  V30 19 C 6.24329 -1.27285 0.257772 0
M  V30 20 C 5.96128 -0.967007 -1.0396 0
M  V30 21 C 4.67628 -0.65144 -1.48731 0
M  V30 22 N 4.43554 -0.318582 -2.83484 0
M  V30 23 H -0.414082 -0.169511 1.32744 0
M  V30 24 H -3.18942 0.997382 -1.3868 0
M  V30 25 H -5.49598 1.64 -1.98975 0
M  V30 26 H -7.25985 1.64243 -0.301698 0
M  V30 27 H -6.72873 0.998513 2.0759 0
M  V30 28 H -4.46054 -0.715765 3.22174 0
M  V30 29 H -4.11817 0.974403 3.67179 0
M  V30 30 H 1.31256 -0.433527 0.799694 0
M  V30 31 H 3.09417 -0.955977 1.46811 0
M  V30 32 H 5.3976 -1.50301 2.19204 0
M  V30 33 H 7.25736 -1.50614 0.547376 0
M  V30 34 H 6.73819 -0.956347 -1.80471 0
M  V30 35 H 4.19579 0.642001 -3.17921 0
M  V30 36 H 4.50315 -1.06558 -3.56565 0
M  V30 END ATOM
M  V30 BEGIN BOND
M  V30 1 2 1 2
M  V30 2 1 2 3
M  V30 3 1 3 4
M  V30 4 2 4 5
M  V30 5 1 4 6
M  V30 6 2 6 7
M  V30 7 1 7 8
M  V30 8 2 8 9
M  V30 9 1 9 10
M  V30 10 2 10 11
M  V30 11 1 11 12
M  V30 12 1 2 13
M  V30 13 1 13 14
M  V30 14 2 14 15
M  V30 15 1 14 16
M  V30 16 2 16 17
M  V30 17 1 17 18
M  V30 18 2 18 19
M  V30 19 1 19 20
M  V30 20 2 20 21
M  V30 21 1 21 22
M  V30 22 1 11 6
M  V30 23 1 21 16
M  V30 24 1 3 23
M  V30 25 1 7 24
M  V30 26 1 8 25
M  V30 27 1 9 26
M  V30 28 1 10 27
M  V30 29 1 12 28
M  V30 30 1 12 29
M  V30 31 1 13 30
M  V30 32 1 17 31
M  V30 33 1 18 32
M  V30 34 1 19 33
M  V30 35 1 20 34
M  V30 36 1 22 35
M  V30 37 1 22 36
M  V30 END BOND
M  V30 END CTAB
M  END
