
     RDKit          3D

  0  0  0  0  0  0  0  0  0  0999 V3000
M  V30 BEGIN CTAB
M  V30 COUNTS 29 30 0 0 0
M  V30 BEGIN ATOM
M  V30 1 C -2.5638 -0.201011 1.18923 0
M  V30 2 C -1.77485 -0.085301 -0.118261 0
M  V30 3 C -2.39774 1.05479 -0.896067 0
M  V30 4 C -1.96014 -1.32049 -0.890914 0
M  V30 5 O -3.16298 -1.65486 -1.14813 0
M  V30 6 N -0.909326 -2.14198 -1.35584 0
M  V30 7 C 0.423284 -1.77248 -1.07153 0
M  V30 8 O 1.36499 -2.49779 -1.48145 0
M  V30 9 C 0.671878 -0.536086 -0.295559 0
M  V30 10 C 2.00316 -0.213405 -0.0403364 0
M  V30 11 N 3.01006 -1.07583 -0.532445 0
M  V30 12 C 2.29189 0.929666 0.679485 0
M  V30 13 N 3.64935 1.23671 0.926094 0
M  V30 14 C 1.25755 1.72834 1.13098 0
M  V30 15 C -0.0530691 1.41373 0.881615 0
M  V30 16 C -0.360543 0.252441 0.149732 0
M  V30 17 H -3.16037 0.717733 1.37645 0
M  V30 18 H -3.30199 -1.03935 1.11646 0
M  V30 19 H -1.8824 -0.373182 2.04531 0
M  V30 20 H -1.6409 1.5483 -1.53968 0
M  V30 21 H -3.19883 0.690536 -1.59011 0
M  V30 22 H -2.8532 1.7704 -0.184806 0
M  V30 23 H -1.16869 -2.99971 -1.89777 0
M  V30 24 H 3.29411 -1.8956 0.0194612 0
M  V30 25 H 3.45673 -0.884298 -1.43865 0
M  V30 26 H 4.05713 1.01687 1.84878 0
M  V30 27 H 4.22288 1.67568 0.189372 0
M  V30 28 H 1.52549 2.62231 1.69569 0
M  V30 29 H -0.839681 2.03385 1.23287 0
M  V30 END ATOM
M  V30 BEGIN BOND
M  V30 1 1 1 2
M  V30 2 1 2 3
M  V30 3 1 2 4
M  V30 4 2 4 5
M  V30 5 1 4 6
M  V30 6 1 6 7
M  V30 7 2 7 8
M  V30 8 1 7 9
M  V30 9 2 9 10
M  V30 10 1 10 11
M  V30 11 1 10 12
M  V30 12 1 12 13
M  V30 13 2 12 14
M  V30 14 1 14 15
M  V30 15 2 15 16
M  V30 16 1 16 2
M  V30 17 1 16 9
M  V30 18 1 1 17
M  V30 19 1 1 18
M  V30 20 1 1 19
M  V30 21 1 3 20
M  V30 22 1 3 21
M  V30 23 1 3 22
M  V30 24 1 6 23
M  V30 25 1 11 24
M  V30 26 1 11 25
M  V30 27 1 13 26
M  V30 28 1 13 27
M  V30 29 1 14 28
M  V30 30 1 15 29
M  V30 END BOND
M  V30 END CTAB
M  END
