
     RDKit          3D

  0  0  0  0  0  0  0  0  0  0999 V3000
M  V30 BEGIN CTAB
M  V30 COUNTS 50 52 0 0 0
M  V30 BEGIN ATOM
M  V30 1 N -4.88652 -2.7371 -0.510482 0
M  V30 2 C -3.48012 -2.73435 -0.754944 0
M  V30 3 C -2.68471 -3.01892 0.530476 0
M  V30 4 C -2.95974 -1.99362 1.57432 0
M  V30 5 N -2.60864 -0.629577 1.17373 0
M  V30 6 C -1.26777 -0.236401 0.985737 0
M  V30 7 C -0.310261 -1.09109 1.48285 0
M  V30 8 C 1.01463 -0.744142 1.38894 0
M  V30 9 C 1.47191 0.442483 0.810958 0
M  V30 10 N 2.86029 0.725547 0.820788 0
M  V30 11 C 3.84145 -0.318139 1.13765 0
M  V30 12 C 3.95235 -1.35347 0.044825 0
M  V30 13 C 4.9777 -2.40017 0.462837 0
M  V30 14 N 5.11891 -3.41986 -0.560171 0
M  V30 15 C 0.510951 1.28476 0.318717 0
M  V30 16 C -0.860821 0.940207 0.40857 0
M  V30 17 C -1.81191 1.86707 -0.151033 0
M  V30 18 O -3.04287 1.64903 -0.12228 0
M  V30 19 C -1.43405 3.13447 -0.800073 0
M  V30 20 C -0.106839 3.45192 -0.87834 0
M  V30 21 C 0.257907 4.64523 -1.48874 0
M  V30 22 C -0.707475 5.50312 -2.01149 0
M  V30 23 C -2.03599 5.18819 -1.93464 0
M  V30 24 C -2.39014 3.99225 -1.32213 0
M  V30 25 C 0.901434 2.53048 -0.318798 0
M  V30 26 O 2.07823 2.92868 -0.453108 0
M  V30 27 H -5.14633 -3.0764 0.429122 0
M  V30 28 H -5.34637 -1.85457 -0.798521 0
M  V30 29 H -3.16967 -1.7493 -1.15586 0
M  V30 30 H -3.15954 -3.49402 -1.51306 0
M  V30 31 H -3.14154 -3.98129 0.908989 0
M  V30 32 H -1.64974 -3.24919 0.316495 0
M  V30 33 H -2.48183 -2.25292 2.53827 0
M  V30 34 H -4.04894 -2.00646 1.77543 0
M  V30 35 H -3.38299 0.0398179 1.06096 0
M  V30 36 H -0.549621 -2.03994 1.96625 0
M  V30 37 H 1.77149 -1.40357 1.79226 0
M  V30 38 H 3.26441 1.65606 0.637315 0
M  V30 39 H 3.62758 -0.736378 2.13505 0
M  V30 40 H 4.84819 0.170049 1.24827 0
M  V30 41 H 2.98667 -1.83177 -0.110516 0
M  V30 42 H 4.32766 -0.894561 -0.902885 0
M  V30 43 H 5.96232 -1.94662 0.64004 0
M  V30 44 H 4.63711 -2.86966 1.40573 0
M  V30 45 H 4.22204 -3.95208 -0.593045 0
M  V30 46 H 5.36304 -2.99641 -1.48073 0
M  V30 47 H 1.29493 4.89009 -1.54821 0
M  V30 48 H -0.388597 6.41666 -2.47607 0
M  V30 49 H -2.80452 5.8463 -2.33756 0
M  V30 50 H -3.43364 3.70954 -1.24298 0
M  V30 END ATOM
M  V30 BEGIN BOND
M  V30 1 1 1 2
M  V30 2 1 2 3
M  V30 3 1 3 4
M  V30 4 1 4 5
M  V30 5 1 5 6
M  V30 6 2 6 7
M  V30 7 1 7 8
M  V30 8 2 8 9
M  V30 9 1 9 10
M  V30 10 1 10 11
M  V30 11 1 11 12
M  V30 12 1 12 13
M  V30 13 1 13 14
M  V30 14 1 9 15
M  V30 15 2 15 16
M  V30 16 1 16 17
M  V30 17 2 17 18
M  V30 18 1 17 19
M  V30 19 2 19 20
M  V30 20 1 20 21
M  V30 21 2 21 22
M  V30 22 1 22 23
M  V30 23 2 23 24
M  V30 24 1 20 25
M  V30 25 2 25 26
M  V30 26 1 16 6
M  V30 27 1 24 19
M  V30 28 1 25 15
M  V30 29 1 1 27
M  V30 30 1 1 28
M  V30 31 1 2 29
M  V30 32 1 2 30
M  V30 33 1 3 31
M  V30 34 1 3 32
M  V30 35 1 4 33
M  V30 36 1 4 34
M  V30 37 1 5 35
M  V30 38 1 7 36
M  V30 39 1 8 37
M  V30 40 1 10 38
M  V30 41 1 11 39
M  V30 42 1 11 40
M  V30 43 1 12 41
M  V30 44 1 12 42
M  V30 45 1 13 43
M  V30 46 1 13 44
M  V30 47 1 14 45
M  V30 48 1 14 46
M  V30 49 1 21 47
M  V30 50 1 22 48
M  V30 51 1 23 49
M  V30 52 1 24 50
M  V30 END BOND
M  V30 END CTAB
M  END
