
     RDKit          3D

  0  0  0  0  0  0  0  0  0  0999 V3000
M  V30 BEGIN CTAB
M  V30 COUNTS 29 30 0 0 0
M  V30 BEGIN ATOM
M  V30 1 N -2.46301 1.75419 -0.351548 0
M  V30 2 C -1.90299 0.4708 -0.746821 0
M  V30 3 C -2.86858 -0.651158 -0.55554 0
M  V30 4 C -2.67607 -1.4656 0.668939 0
M  V30 5 O -1.42507 -1.46729 1.20879 0
M  V30 6 C -0.413589 -1.1465 0.287196 0
M  V30 7 C -0.599821 0.294468 -0.0483337 0
M  V30 8 C 0.559939 0.884071 -0.812753 0
M  V30 9 C 1.84098 0.70956 -0.124024 0
M  V30 10 N 2.70928 -0.315743 -0.232615 0
M  V30 11 C 3.77158 -0.120413 0.554295 0
M  V30 12 N 3.55333 1.06135 1.16786 0
M  V30 13 N 2.40022 1.55476 0.76124 0
M  V30 14 N 4.88983 -0.976739 0.708892 0
M  V30 15 H -3.49971 1.68563 -0.554861 0
M  V30 16 H -2.04034 2.5186 -0.92524 0
M  V30 17 H -1.67307 0.578577 -1.84771 0
M  V30 18 H -2.83731 -1.31409 -1.4657 0
M  V30 19 H -3.89458 -0.225495 -0.547678 0
M  V30 20 H -2.94937 -2.54003 0.449111 0
M  V30 21 H -3.39682 -1.16499 1.47976 0
M  V30 22 H 0.539411 -1.3492 0.793337 0
M  V30 23 H -0.593789 -1.82463 -0.586412 0
M  V30 24 H -0.653435 0.854835 0.924963 0
M  V30 25 H 0.606264 0.383472 -1.8186 0
M  V30 26 H 0.375201 1.95733 -1.01859 0
M  V30 27 H 1.99922 2.47689 1.09605 0
M  V30 28 H 4.81506 -2.00751 0.568118 0
M  V30 29 H 5.82724 -0.61515 0.967882 0
M  V30 END ATOM
M  V30 BEGIN BOND
M  V30 1 1 1 2
M  V30 2 1 2 3
M  V30 3 1 3 4
M  V30 4 1 4 5
M  V30 5 1 5 6
M  V30 6 1 6 7
M  V30 7 1 7 8
M  V30 8 1 8 9
M  V30 9 2 9 10
M  V30 10 1 10 11
M  V30 11 2 11 12
M  V30 12 1 12 13
M  V30 13 1 11 14
M  V30 14 1 7 2
M  V30 15 1 13 9
M  V30 16 1 1 15
M  V30 17 1 1 16
M  V30 18 1 2 17
M  V30 19 1 3 18
M  V30 20 1 3 19
M  V30 21 1 4 20
M  V30 22 1 4 21
M  V30 23 1 6 22
M  V30 24 1 6 23
M  V30 25 1 7 24
M  V30 26 1 8 25
M  V30 27 1 8 26
M  V30 28 1 13 27
M  V30 29 1 14 28
M  V30 30 1 14 29
M  V30 END BOND
M  V30 END CTAB
M  END
