
     RDKit          3D

  0  0  0  0  0  0  0  0  0  0999 V3000
M  V30 BEGIN CTAB
M  V30 COUNTS 28 29 0 0 0
M  V30 BEGIN ATOM
M  V30 1 C -2.72297 -2.70012 -1.25616 0
M  V30 2 O -2.72355 -1.33912 -0.87602 0
M  V30 3 C -1.53372 -0.759237 -0.496706 0
M  V30 4 C -0.369887 -1.48605 -0.487201 0
M  V30 5 C 0.820788 -0.880322 -0.100505 0
M  V30 6 C 0.805612 0.464559 0.272457 0
M  V30 7 C -0.360023 1.19708 0.264217 0
M  V30 8 C -1.52765 0.56854 -0.124647 0
M  V30 9 O -2.71743 1.2611 -0.148468 0
M  V30 10 C -2.74989 2.62011 0.22527 0
M  V30 11 C 1.98895 1.05158 0.652575 0
M  V30 12 N 1.94386 2.42884 1.02914 0
M  V30 13 N 3.13805 0.340578 0.663793 0
M  V30 14 C 3.14937 -0.958633 0.302883 0
M  V30 15 N 4.3709 -1.71115 0.315717 0
M  V30 16 N 1.99829 -1.52424 -0.0653546 0
M  V30 17 H -2.47499 -3.28854 -0.328003 0
M  V30 18 H -3.71273 -3.01262 -1.66635 0
M  V30 19 H -1.91165 -2.9177 -1.98287 0
M  V30 20 H -0.317529 -2.52541 -0.768013 0
M  V30 21 H -0.351895 2.2299 0.554243 0
M  V30 22 H -2.36939 2.72243 1.27168 0
M  V30 23 H -2.08154 3.2416 -0.432443 0
M  V30 24 H -3.77629 3.03608 0.206887 0
M  V30 25 H 2.39881 3.16268 0.44358 0
M  V30 26 H 1.45761 2.76018 1.90007 0
M  V30 27 H 5.15499 -1.43762 0.920112 0
M  V30 28 H 4.47392 -2.54449 -0.289883 0
M  V30 END ATOM
M  V30 BEGIN BOND
M  V30 1 1 1 2
M  V30 2 1 2 3
M  V30 3 2 3 4
M  V30 4 1 4 5
M  V30 5 2 5 6
M  V30 6 1 6 7
M  V30 7 2 7 8
M  V30 8 1 8 9
M  V30 9 1 9 10
M  V30 10 1 6 11
M  V30 11 1 11 12
M  V30 12 2 11 13
M  V30 13 1 13 14
M  V30 14 1 14 15
M  V30 15 2 14 16
M  V30 16 1 8 3
M  V30 17 1 16 5
M  V30 18 1 1 17
M  V30 19 1 1 18
M  V30 20 1 1 19
M  V30 21 1 4 20
M  V30 22 1 7 21
M  V30 23 1 10 22
M  V30 24 1 10 23
M  V30 25 1 10 24
M  V30 26 1 12 25
M  V30 27 1 12 26
M  V30 28 1 15 27
M  V30 29 1 15 28
M  V30 END BOND
M  V30 END CTAB
M  END
