
     RDKit          3D

  0  0  0  0  0  0  0  0  0  0999 V3000
M  V30 BEGIN CTAB
M  V30 COUNTS 86 91 0 0 0
M  V30 BEGIN ATOM
M  V30 1 C 2.51831 0.457766 -1.42463 0
M  V30 2 C 2.18783 -0.46319 -0.302346 0
M  V30 3 C 3.07482 -1.28116 0.305033 0
M  V30 4 C 2.61162 -2.23748 1.21819 0
M  V30 5 C 1.23799 -2.37215 1.52524 0
M  V30 6 C 0.329369 -1.53292 0.908582 0
M  V30 7 C 0.867264 -0.599401 0.0191054 0
M  V30 8 C -1.14856 -1.701 0.842817 0
M  V30 9 C -1.73146 -2.92105 0.745025 0
M  V30 10 C -2.99844 -3.10813 0.203178 0
M  V30 11 C -3.68167 -4.40409 0.196561 0
M  V30 12 C -3.67142 -1.98049 -0.264348 0
M  V30 13 C -3.10804 -0.725043 -0.145834 0
M  V30 14 C -1.81884 -0.579772 0.414333 0
M  V30 15 N -4.78727 -2.06085 -1.03733 0
M  V30 16 N -5.75136 -2.14934 -1.72193 0
M  V30 17 C -6.62724 -0.953856 -1.23073 0
M  V30 18 C -7.63327 -1.19779 -0.369383 0
M  V30 19 O -7.92801 -2.47024 0.0250793 0
M  V30 20 C -8.38716 -0.158248 0.138004 0
M  V30 21 C -8.07601 1.14907 -0.237449 0
M  V30 22 C -8.95134 2.18022 0.0611992 0
M  V30 23 C -10.1614 1.89125 0.715235 0
M  V30 24 C -10.4143 0.597102 1.03806 0
M  V30 25 C -9.59275 -0.412002 0.79531 0
M  V30 26 N -9.92818 -1.77912 1.03498 0
M  V30 27 S -11.3759 3.10516 0.86197 0
M  V30 28 O -10.9486 4.38027 1.79988 0
M  V30 29 O -12.6427 2.44294 1.39396 0
M  V30 30 O -11.7172 3.61707 -0.545464 0
M  V30 31 C -7.02716 1.3431 -1.08984 0
M  V30 32 C -6.3378 0.274179 -1.5938 0
M  V30 33 S -5.20313 0.70662 -2.93571 0
M  V30 34 O -4.36547 2.05652 -2.53005 0
M  V30 35 O -4.41849 -0.384786 -3.40731 0
M  V30 36 O -6.1287 1.14098 -4.11288 0
M  V30 37 N 4.47934 -1.13066 0.114315 0
M  V30 38 N 4.86113 0.0495097 -0.197736 0
M  V30 39 C 6.20509 0.419882 -0.424977 0
M  V30 40 C 7.19868 -0.5362 -0.309572 0
M  V30 41 O 6.96585 -1.81818 -0.129938 0
M  V30 42 C 8.55069 -0.0421924 -0.396042 0
M  V30 43 C 8.81207 1.2562 -0.598223 0
M  V30 44 C 10.1383 1.70002 -0.492995 0
M  V30 45 C 11.1978 0.846996 -0.16143 0
M  V30 46 C 10.897 -0.459598 0.0255481 0
M  V30 47 C 9.56863 -0.925899 -0.0839566 0
M  V30 48 N 9.40651 -2.32213 0.0929548 0
M  V30 49 S 12.7573 1.53689 0.220656 0
M  V30 50 O 12.5454 3.11672 0.818076 0
M  V30 51 O 13.7227 1.46232 -0.882842 0
M  V30 52 O 13.3444 0.773922 1.41349 0
M  V30 53 C 7.8119 2.12498 -0.726121 0
M  V30 54 C 6.5097 1.72359 -0.636878 0
M  V30 55 S 5.315 3.04602 -0.692772 0
M  V30 56 O 6.117 4.54538 -0.615611 0
M  V30 57 O 4.60822 3.08692 -2.01666 0
M  V30 58 O 4.37388 2.90152 0.444493 0
M  V30 59 H 2.59944 1.50131 -1.04935 0
M  V30 60 H 1.61639 0.520741 -2.11742 0
M  V30 61 H 3.3015 0.104094 -2.09368 0
M  V30 62 H 3.31158 -2.88251 1.76683 0
M  V30 63 H 0.866448 -3.14533 2.1484 0
M  V30 64 H 0.175408 0.118165 -0.418388 0
M  V30 65 H -1.18007 -3.81324 1.12494 0
M  V30 66 H -4.15013 -4.59298 1.20361 0
M  V30 67 H -4.56504 -4.28113 -0.516149 0
M  V30 68 H -3.10654 -5.25121 -0.144535 0
M  V30 69 H -3.58431 0.173299 -0.48132 0
M  V30 70 H -1.4496 0.391428 0.558163 0
M  V30 71 H -7.33228 -3.27841 -0.22696 0
M  V30 72 H -8.71237 3.19369 -0.143338 0
M  V30 73 H -11.4244 0.367238 1.48928 0
M  V30 74 H -10.3043 -2.41233 0.279313 0
M  V30 75 H -9.78094 -2.2384 1.965 0
M  V30 76 H -10.2742 4.90893 1.29162 0
M  V30 77 H -6.71614 2.37795 -1.31536 0
M  V30 78 H -5.01347 2.81551 -2.35839 0
M  V30 79 H 6.81184 -2.71977 -0.00335001 0
M  V30 80 H 10.3575 2.72859 -0.686155 0
M  V30 81 H 11.6946 -1.15268 0.215284 0
M  V30 82 H 9.29893 -2.71923 1.02636 0
M  V30 83 H 9.42218 -2.94035 -0.765845 0
M  V30 84 H 11.5662 3.35634 0.803818 0
M  V30 85 H 8.06143 3.17712 -0.930813 0
M  V30 86 H 6.85847 4.46702 0.0657434 0
M  V30 END ATOM
M  V30 BEGIN BOND
M  V30 1 1 1 2
M  V30 2 2 2 3
M  V30 3 1 3 4
M  V30 4 2 4 5
M  V30 5 1 5 6
M  V30 6 2 6 7
M  V30 7 1 6 8
M  V30 8 2 8 9
M  V30 9 1 9 10
M  V30 10 1 10 11
M  V30 11 2 10 12
M  V30 12 1 12 13
M  V30 13 2 13 14
M  V30 14 1 12 15
M  V30 15 2 15 16 CFG=2
M  V30 16 1 16 17
M  V30 17 2 17 18
M  V30 18 1 18 19
M  V30 19 1 18 20
M  V30 20 2 20 21
M  V30 21 1 21 22
M  V30 22 2 22 23
M  V30 23 1 23 24
M  V30 24 2 24 25
M  V30 25 1 25 26
M  V30 26 1 23 27
M  V30 27 1 27 28
M  V30 28 2 27 29
M  V30 29 2 27 30
M  V30 30 1 21 31
M  V30 31 2 31 32
M  V30 32 1 32 33
M  V30 33 1 33 34
M  V30 34 2 33 35
M  V30 35 2 33 36
M  V30 36 1 3 37
M  V30 37 2 37 38 CFG=2
M  V30 38 1 38 39
M  V30 39 2 39 40
M  V30 40 1 40 41
M  V30 41 1 40 42
M  V30 42 2 42 43
M  V30 43 1 43 44
M  V30 44 2 44 45
M  V30 45 1 45 46
M  V30 46 2 46 47
M  V30 47 1 47 48
M  V30 48 1 45 49
M  V30 49 1 49 50
M  V30 50 2 49 51
M  V30 51 2 49 52
M  V30 52 1 43 53
M  V30 53 2 53 54
M  V30 54 1 54 55
M  V30 55 1 55 56
M  V30 56 2 55 57
M  V30 57 2 55 58
M  V30 58 1 7 2
M  V30 59 1 14 8
M  V30 60 1 32 17
M  V30 61 1 54 39
M  V30 62 1 25 20
M  V30 63 1 47 42
M  V30 64 1 1 59
M  V30 65 1 1 60
M  V30 66 1 1 61
M  V30 67 1 4 62
M  V30 68 1 5 63
M  V30 69 1 7 64
M  V30 70 1 9 65
M  V30 71 1 11 66
M  V30 72 1 11 67
M  V30 73 1 11 68
M  V30 74 1 13 69
M  V30 75 1 14 70
M  V30 76 1 19 71
M  V30 77 1 22 72
M  V30 78 1 24 73
M  V30 79 1 26 74
M  V30 80 1 26 75
M  V30 81 1 28 76
M  V30 82 1 31 77
M  V30 83 1 34 78
M  V30 84 1 41 79
M  V30 85 1 44 80
M  V30 86 1 46 81
M  V30 87 1 48 82
M  V30 88 1 48 83
M  V30 89 1 50 84
M  V30 90 1 53 85
M  V30 91 1 56 86
M  V30 END BOND
M  V30 END CTAB
M  END
