
     RDKit          3D

  0  0  0  0  0  0  0  0  0  0999 V3000
M  V30 BEGIN CTAB
M  V30 COUNTS 30 30 0 0 0
M  V30 BEGIN ATOM
M  V30 1 N 1.77719 1.14603 -1.47466 0
M  V30 2 C 1.62248 1.14929 -0.0397029 0
M  V30 3 C 0.856052 -0.0841782 0.455615 0
M  V30 4 N -0.401667 -0.188394 -0.0522671 0
M  V30 5 C -0.767732 -0.348035 -1.37886 0
M  V30 6 C -2.27581 -0.643654 -1.39133 0
M  V30 7 C -2.75419 -0.410772 0.0118162 0
M  V30 8 C -1.51256 -0.074274 0.798472 0
M  V30 9 C -1.56229 1.33264 1.35437 0
M  V30 10 C 1.78958 -1.25857 0.288765 0
M  V30 11 N 2.9655 -0.974197 1.10027 0
M  V30 12 H 2.23974 2.03131 -1.7331 0
M  V30 13 H 2.34863 0.334129 -1.77009 0
M  V30 14 H 2.62215 1.2069 0.474163 0
M  V30 15 H 1.07581 2.07262 0.28155 0
M  V30 16 H 0.822014 0.0770384 1.58008 0
M  V30 17 H -0.255662 -1.15361 -1.95468 0
M  V30 18 H -0.677027 0.591208 -2.00109 0
M  V30 19 H -2.83767 0.0407011 -2.04766 0
M  V30 20 H -2.44518 -1.71208 -1.71747 0
M  V30 21 H -3.50344 0.400894 0.0918364 0
M  V30 22 H -3.22304 -1.35349 0.367905 0
M  V30 23 H -1.43233 -0.811596 1.62149 0
M  V30 24 H -2.54191 1.49028 1.80888 0
M  V30 25 H -1.34352 2.08473 0.553906 0
M  V30 26 H -0.70771 1.42224 2.06754 0
M  V30 27 H 1.30156 -2.14117 0.763628 0
M  V30 28 H 2.12104 -1.42685 -0.737393 0
M  V30 29 H 2.9042 -1.42706 2.04014 0
M  V30 30 H 3.79578 -1.37209 0.637871 0
M  V30 END ATOM
M  V30 BEGIN BOND
M  V30 1 1 1 2
M  V30 2 1 2 3
M  V30 3 1 3 4
M  V30 4 1 4 5
M  V30 5 1 5 6
M  V30 6 1 6 7
M  V30 7 1 7 8
M  V30 8 1 8 9
M  V30 9 1 3 10
M  V30 10 1 10 11
M  V30 11 1 8 4
M  V30 12 1 1 12
M  V30 13 1 1 13
M  V30 14 1 2 14
M  V30 15 1 2 15
M  V30 16 1 3 16
M  V30 17 1 5 17
M  V30 18 1 5 18
M  V30 19 1 6 19
M  V30 20 1 6 20
M  V30 21 1 7 21
M  V30 22 1 7 22
M  V30 23 1 8 23
M  V30 24 1 9 24
M  V30 25 1 9 25
M  V30 26 1 9 26
M  V30 27 1 10 27
M  V30 28 1 10 28
M  V30 29 1 11 29
M  V30 30 1 11 30
M  V30 END BOND
M  V30 END CTAB
M  END
