
     RDKit          3D

  0  0  0  0  0  0  0  0  0  0999 V3000
M  V30 BEGIN CTAB
M  V30 COUNTS 47 49 0 0 0
M  V30 BEGIN ATOM
M  V30 1 C -8.30941 -0.300507 0.115821 0
M  V30 2 S -7.39795 -0.215026 -1.44889 0
M  V30 3 C -5.81165 0.528408 -1.16556 0
M  V30 4 C -5.65124 1.88707 -1.26537 0
M  V30 5 C -4.40572 2.48598 -1.04445 0
M  V30 6 C -3.33726 1.63048 -0.717879 0
M  V30 7 C -3.47433 0.275205 -0.613137 0
M  V30 8 C -4.74044 -0.247943 -0.846289 0
M  V30 9 C -2.39528 -0.616453 -0.280562 0
M  V30 10 C -1.09676 -0.227495 -0.0266596 0
M  V30 11 C -0.0919521 -1.0826 0.285522 0
M  V30 12 N -0.391231 -2.41425 0.351309 0
M  V30 13 C -1.64733 -2.831 0.109751 0
M  V30 14 N -1.95936 -4.2189 0.178294 0
M  V30 15 N -2.62653 -1.96096 -0.198147 0
M  V30 16 C 1.2485 -0.64825 0.544341 0
M  V30 17 C 1.60096 0.668439 0.492057 0
M  V30 18 C 2.9205 1.05918 0.750523 0
M  V30 19 C 3.90177 0.155302 1.06226 0
M  V30 20 C 5.29406 0.564537 1.33528 0
M  V30 21 C 6.20189 0.525001 0.136448 0 CFG=2
M  V30 22 N 7.54487 0.952081 0.54715 0
M  V30 23 C 5.75434 1.27619 -1.02956 0
M  V30 24 O 6.53355 2.35661 -1.46239 0
M  V30 25 O 4.72128 1.0131 -1.66149 0
M  V30 26 C 3.51674 -1.19167 1.11023 0
M  V30 27 C 2.21915 -1.57451 0.855928 0
M  V30 28 H -7.64369 -0.271307 0.999735 0
M  V30 29 H -8.87318 -1.25615 0.151373 0
M  V30 30 H -8.97776 0.583841 0.178878 0
M  V30 31 H -6.46388 2.54728 -1.5147 0
M  V30 32 H -4.22881 3.53031 -1.10909 0
M  V30 33 H -2.35766 2.06487 -0.540458 0
M  V30 34 H -4.85239 -1.32384 -0.763842 0
M  V30 35 H -0.904449 0.833725 -0.0895058 0
M  V30 36 H -2.07705 -4.66998 1.11062 0
M  V30 37 H -2.06393 -4.75656 -0.70708 0
M  V30 38 H 0.900674 1.48235 0.252688 0
M  V30 39 H 3.19822 2.12229 0.706763 0
M  V30 40 H 5.74469 -0.119956 2.09018 0
M  V30 41 H 5.29109 1.61148 1.76288 0
M  V30 42 H 6.30708 -0.550829 -0.17348 0
M  V30 43 H 7.57099 1.98758 0.35767 0
M  V30 44 H 8.21598 0.481198 -0.0904075 0
M  V30 45 H 6.80555 2.41092 -2.4275 0
M  V30 46 H 4.28124 -1.9116 1.35468 0
M  V30 47 H 2.00614 -2.64364 0.914889 0
M  V30 END ATOM
M  V30 BEGIN BOND
M  V30 1 1 1 2
M  V30 2 1 2 3
M  V30 3 2 3 4
M  V30 4 1 4 5
M  V30 5 2 5 6
M  V30 6 1 6 7
M  V30 7 2 7 8
M  V30 8 1 7 9
M  V30 9 2 9 10
M  V30 10 1 10 11
M  V30 11 2 11 12
M  V30 12 1 12 13
M  V30 13 1 13 14
M  V30 14 2 13 15
M  V30 15 1 11 16
M  V30 16 2 16 17
M  V30 17 1 17 18
M  V30 18 2 18 19
M  V30 19 1 19 20
M  V30 20 1 20 21
M  V30 21 1 21 22
M  V30 22 1 21 23
M  V30 23 1 23 24
M  V30 24 2 23 25
M  V30 25 1 19 26
M  V30 26 2 26 27
M  V30 27 1 8 3
M  V30 28 1 15 9
M  V30 29 1 27 16
M  V30 30 1 1 28
M  V30 31 1 1 29
M  V30 32 1 1 30
M  V30 33 1 4 31
M  V30 34 1 5 32
M  V30 35 1 6 33
M  V30 36 1 8 34
M  V30 37 1 10 35
M  V30 38 1 14 36
M  V30 39 1 14 37
M  V30 40 1 17 38
M  V30 41 1 18 39
M  V30 42 1 20 40
M  V30 43 1 20 41
M  V30 44 1 21 42 CFG=3
M  V30 45 1 22 43
M  V30 46 1 22 44
M  V30 47 1 24 45
M  V30 48 1 26 46
M  V30 49 1 27 47
M  V30 END BOND
M  V30 END CTAB
M  END
