
     RDKit          3D

  0  0  0  0  0  0  0  0  0  0999 V3000
M  V30 BEGIN CTAB
M  V30 COUNTS 33 34 0 0 0
M  V30 BEGIN ATOM
M  V30 1 N 5.35807 -1.70105 0.256198 0
M  V30 2 C 4.10407 -1.15664 -0.126759 0
M  V30 3 C 2.96146 -1.91177 -0.172216 0
M  V30 4 C 1.69857 -1.39802 -0.424039 0
M  V30 5 C 1.51943 -0.0498023 -0.646646 0
M  V30 6 C 2.70036 0.736703 -0.609808 0
M  V30 7 C 3.94058 0.200957 -0.364448 0
M  V30 8 N 2.50036 2.13794 -0.860012 0
M  V30 9 O 0.348668 0.60885 -0.842439 0
M  V30 10 C -0.911734 0.36184 -0.412802 0
M  V30 11 C -1.49725 -0.773894 -0.0316208 0
M  V30 12 C -2.82372 -0.860975 0.420702 0
M  V30 13 C -3.58144 0.292211 0.47934 0
M  V30 14 C -3.03027 1.49965 0.103544 0
M  V30 15 C -1.75846 1.52588 -0.327017 0
M  V30 16 C -3.86152 2.7517 0.249298 0
M  V30 17 F -3.92378 3.33076 -0.997437 0
M  V30 18 F -5.10006 2.40792 0.751626 0
M  V30 19 F -3.18262 3.56305 1.12667 0
M  V30 20 C -3.39267 -2.16647 0.897886 0
M  V30 21 F -2.29615 -2.97489 1.13476 0
M  V30 22 F -4.116 -1.98729 2.03008 0
M  V30 23 F -4.16827 -2.78985 -0.0393338 0
M  V30 24 H 6.10875 -1.06776 0.720134 0
M  V30 25 H 5.65429 -2.66041 0.144004 0
M  V30 26 H 3.15485 -2.99191 0.0147055 0
M  V30 27 H 0.871107 -2.06016 -0.496215 0
M  V30 28 H 4.82834 0.849215 -0.316044 0
M  V30 29 H 2.27807 2.71998 -0.0158132 0
M  V30 30 H 2.56811 2.57893 -1.79679 0
M  V30 31 H -1.02228 -1.75651 -0.0366121 0
M  V30 32 H -4.61573 0.311974 0.832702 0
M  V30 33 H -1.31312 2.42985 -0.645589 0
M  V30 END ATOM
M  V30 BEGIN BOND
M  V30 1 1 1 2
M  V30 2 2 2 3
M  V30 3 1 3 4
M  V30 4 2 4 5
M  V30 5 1 5 6
M  V30 6 2 6 7
M  V30 7 1 6 8
M  V30 8 1 5 9
M  V30 9 1 9 10
M  V30 10 2 10 11
M  V30 11 1 11 12
M  V30 12 2 12 13
M  V30 13 1 13 14
M  V30 14 2 14 15
M  V30 15 1 14 16
M  V30 16 1 16 17
M  V30 17 1 16 18
M  V30 18 1 16 19
M  V30 19 1 12 20
M  V30 20 1 20 21
M  V30 21 1 20 22
M  V30 22 1 20 23
M  V30 23 1 7 2
M  V30 24 1 15 10
M  V30 25 1 1 24
M  V30 26 1 1 25
M  V30 27 1 3 26
M  V30 28 1 4 27
M  V30 29 1 7 28
M  V30 30 1 8 29
M  V30 31 1 8 30
M  V30 32 1 11 31
M  V30 33 1 13 32
M  V30 34 1 15 33
M  V30 END BOND
M  V30 END CTAB
M  END
