
     RDKit          3D

  0  0  0  0  0  0  0  0  0  0999 V3000
M  V30 BEGIN CTAB
M  V30 COUNTS 40 39 0 0 0
M  V30 BEGIN ATOM
M  V30 1 C 4.53722 0.0561108 0.101219 0
M  V30 2 C 3.5912 0.919206 -0.711333 0
M  V30 3 C 2.78363 1.85846 0.134161 0
M  V30 4 C 1.91513 1.15842 1.14795 0
M  V30 5 C 0.936365 0.233652 0.442045 0
M  V30 6 O 0.997936 -0.946719 0.802428 0
M  V30 7 N 0.0780901 0.743483 -0.513549 0
M  V30 8 C -0.915534 0.155908 -1.29922 0
M  V30 9 C -2.13034 -0.409167 -0.682173 0
M  V30 10 C -2.10583 -1.54676 0.235521 0
M  V30 11 C -1.56556 -2.84329 -0.353055 0
M  V30 12 C -2.74632 0.773587 0.128632 0
M  V30 13 C -3.99135 0.286098 0.783328 0
M  V30 14 N -3.10145 -0.717115 -1.76727 0
M  V30 15 N 2.63874 0.406388 2.1064 0
M  V30 16 H 4.00857 -0.888231 0.329483 0
M  V30 17 H 5.42335 -0.25407 -0.527529 0
M  V30 18 H 4.95169 0.581104 0.959239 0
M  V30 19 H 4.23402 1.54599 -1.36791 0
M  V30 20 H 2.95737 0.318235 -1.38595 0
M  V30 21 H 3.46779 2.587 0.591966 0
M  V30 22 H 2.13129 2.43525 -0.547619 0
M  V30 23 H 1.30437 1.9264 1.6599 0
M  V30 24 H 0.204509 1.82952 -0.683424 0
M  V30 25 H -1.29808 0.944948 -2.04659 0
M  V30 26 H -0.46049 -0.597324 -2.04631 0
M  V30 27 H -1.70656 -1.3303 1.2279 0
M  V30 28 H -3.21267 -1.78447 0.467258 0
M  V30 29 H -1.49533 -3.57092 0.485663 0
M  V30 30 H -0.60052 -2.70716 -0.862229 0
M  V30 31 H -2.33678 -3.25765 -1.04201 0
M  V30 32 H -1.99493 1.0367 0.895203 0
M  V30 33 H -2.90809 1.58369 -0.596379 0
M  V30 34 H -3.75784 -0.284915 1.69407 0
M  V30 35 H -4.66964 1.12766 1.06683 0
M  V30 36 H -4.59096 -0.362048 0.116924 0
M  V30 37 H -3.05453 0.087684 -2.42937 0
M  V30 38 H -2.72524 -1.56772 -2.24044 0
M  V30 39 H 3.0398 0.94669 2.89622 0
M  V30 40 H 2.16699 -0.474309 2.41348 0
M  V30 END ATOM
M  V30 BEGIN BOND
M  V30 1 1 1 2
M  V30 2 1 2 3
M  V30 3 1 3 4
M  V30 4 1 4 5
M  V30 5 2 5 6
M  V30 6 1 5 7
M  V30 7 1 7 8
M  V30 8 1 8 9
M  V30 9 1 9 10
M  V30 10 1 10 11
M  V30 11 1 9 12
M  V30 12 1 12 13
M  V30 13 1 9 14
M  V30 14 1 4 15
M  V30 15 1 1 16
M  V30 16 1 1 17
M  V30 17 1 1 18
M  V30 18 1 2 19
M  V30 19 1 2 20
M  V30 20 1 3 21
M  V30 21 1 3 22
M  V30 22 1 4 23
M  V30 23 1 7 24
M  V30 24 1 8 25
M  V30 25 1 8 26
M  V30 26 1 10 27
M  V30 27 1 10 28
M  V30 28 1 11 29
M  V30 29 1 11 30
M  V30 30 1 11 31
M  V30 31 1 12 32
M  V30 32 1 12 33
M  V30 33 1 13 34
M  V30 34 1 13 35
M  V30 35 1 13 36
M  V30 36 1 14 37
M  V30 37 1 14 38
M  V30 38 1 15 39
M  V30 39 1 15 40
M  V30 END BOND
M  V30 END CTAB
M  END
