
     RDKit          3D

  0  0  0  0  0  0  0  0  0  0999 V3000
M  V30 BEGIN CTAB
M  V30 COUNTS 40 39 0 0 0
M  V30 BEGIN ATOM
M  V30 1 N 7.1097 -1.11712 0.619307 0
M  V30 2 C 5.63708 -1.24731 0.401859 0
M  V30 3 C 5.22528 -0.194379 -0.566979 0
M  V30 4 O 3.99713 -0.0464284 -0.981809 0
M  V30 5 C 2.8659 0.269241 -0.38008 0
M  V30 6 C 2.42091 -0.671707 0.680755 0
M  V30 7 O 1.20574 -0.317365 1.2822 0
M  V30 8 C 0.13928 -0.257414 0.409148 0
M  V30 9 C -1.07484 0.113505 1.23686 0
M  V30 10 O -2.2345 0.212726 0.521326 0
M  V30 11 C -2.22303 1.14888 -0.47278 0
M  V30 12 C -3.48147 1.2915 -1.25756 0
M  V30 13 O -4.6052 1.64525 -0.5856 0
M  V30 14 C -5.05195 0.807847 0.385483 0
M  V30 15 C -5.39899 -0.586914 -0.0970735 0
M  V30 16 N -6.45961 -0.472378 -1.10601 0
M  V30 17 H 7.3484 -0.109559 0.695326 0
M  V30 18 H 7.37547 -1.56155 1.52113 0
M  V30 19 H 5.23649 -1.17439 1.41748 0
M  V30 20 H 5.41723 -2.26358 0.0202134 0
M  V30 21 H 5.71484 0.786109 -0.210824 0
M  V30 22 H 5.88145 -0.390829 -1.50111 0
M  V30 23 H 2.91162 1.33854 0.0252035 0
M  V30 24 H 2.07111 0.389843 -1.18526 0
M  V30 25 H 3.15272 -0.538459 1.53884 0
M  V30 26 H 2.48483 -1.69645 0.340304 0
M  V30 27 H 0.320752 0.630298 -0.249777 0
M  V30 28 H -0.0754373 -1.1767 -0.13154 0
M  V30 29 H -1.20708 -0.699737 1.9942 0
M  V30 30 H -0.860119 1.04522 1.83596 0
M  V30 31 H -1.41417 0.878701 -1.2162 0
M  V30 32 H -1.8736 2.15068 -0.082167 0
M  V30 33 H -3.26366 2.01197 -2.10343 0
M  V30 34 H -3.66264 0.325563 -1.80019 0
M  V30 35 H -4.43967 0.741849 1.30002 0
M  V30 36 H -6.04036 1.23583 0.764768 0
M  V30 37 H -4.54985 -1.06056 -0.614698 0
M  V30 38 H -5.7273 -1.21616 0.742219 0
M  V30 39 H -6.88342 -1.42149 -1.18836 0
M  V30 40 H -5.98903 -0.216058 -2.00115 0
M  V30 END ATOM
M  V30 BEGIN BOND
M  V30 1 1 1 2
M  V30 2 1 2 3
M  V30 3 1 3 4
M  V30 4 1 4 5
M  V30 5 1 5 6
M  V30 6 1 6 7
M  V30 7 1 7 8
M  V30 8 1 8 9
M  V30 9 1 9 10
M  V30 10 1 10 11
M  V30 11 1 11 12
M  V30 12 1 12 13
M  V30 13 1 13 14
M  V30 14 1 14 15
M  V30 15 1 15 16
M  V30 16 1 1 17
M  V30 17 1 1 18
M  V30 18 1 2 19
M  V30 19 1 2 20
M  V30 20 1 3 21
M  V30 21 1 3 22
M  V30 22 1 5 23
M  V30 23 1 5 24
M  V30 24 1 6 25
M  V30 25 1 6 26
M  V30 26 1 8 27
M  V30 27 1 8 28
M  V30 28 1 9 29
M  V30 29 1 9 30
M  V30 30 1 11 31
M  V30 31 1 11 32
M  V30 32 1 12 33
M  V30 33 1 12 34
M  V30 34 1 14 35
M  V30 35 1 14 36
M  V30 36 1 15 37
M  V30 37 1 15 38
M  V30 38 1 16 39
M  V30 39 1 16 40
M  V30 END BOND
M  V30 END CTAB
M  END
