
     RDKit          3D

  0  0  0  0  0  0  0  0  0  0999 V3000
M  V30 BEGIN CTAB
M  V30 COUNTS 43 44 0 0 0
M  V30 BEGIN ATOM
M  V30 1 N -1.70989 -3.45516 1.7654 0
M  V30 2 C -2.18466 -2.45609 1.41392 0
M  V30 3 C -2.7606 -1.17634 0.967991 0
M  V30 4 C -4.03745 -1.11428 0.776762 0
M  V30 5 N -4.8032 -2.33446 1.02376 0
M  V30 6 O -4.72414 0.0147924 0.358383 0
M  V30 7 C -3.9223 1.12937 0.146424 0
M  V30 8 C -2.63263 1.15411 0.315543 0
M  V30 9 C -1.88082 -0.0135006 0.756574 0
M  V30 10 C -0.748533 -0.355027 -0.131412 0
M  V30 11 C -1.05722 -1.10833 -1.2549 0
M  V30 12 C -0.051285 -1.4745 -2.12114 0
M  V30 13 C 1.25426 -1.11515 -1.9057 0
M  V30 14 C 1.53711 -0.347667 -0.752441 0
M  V30 15 C 0.527129 0.0296867 0.131884 0
M  V30 16 C 0.915957 0.854233 1.32152 0
M  V30 17 C 2.96953 -0.0270002 -0.625037 0
M  V30 18 O 3.35821 0.713973 0.464519 0
M  V30 19 C 4.69829 1.03486 0.617343 0
M  V30 20 O 5.56878 0.667986 -0.21153 0
M  V30 21 C 5.09037 1.83755 1.80554 0
M  V30 22 C 2.3407 -1.51565 -2.84888 0
M  V30 23 C -1.94491 2.42745 0.0330587 0
M  V30 24 N -1.37818 3.43181 -0.195848 0
M  V30 25 N -4.55359 2.36533 -0.296384 0
M  V30 26 H -4.36867 -3.24305 0.858679 0
M  V30 27 H -5.78373 -2.28606 1.3651 0
M  V30 28 H -1.44731 0.216961 1.77099 0
M  V30 29 H -2.05679 -1.43527 -1.5028 0
M  V30 30 H -0.299156 -2.06603 -3.00206 0
M  V30 31 H 1.42076 1.81542 1.00649 0
M  V30 32 H 0.0792804 1.09432 1.99373 0
M  V30 33 H 1.64872 0.329822 1.97634 0
M  V30 34 H 3.60019 -0.958466 -0.635219 0
M  V30 35 H 3.26395 0.574037 -1.53841 0
M  V30 36 H 5.54123 1.10905 2.52939 0
M  V30 37 H 4.22688 2.3816 2.23988 0
M  V30 38 H 5.90725 2.56741 1.5309 0
M  V30 39 H 3.17408 -2.04597 -2.30684 0
M  V30 40 H 2.82375 -0.625101 -3.3115 0
M  V30 41 H 1.91427 -2.18721 -3.59156 0
M  V30 42 H -5.07385 2.39721 -1.17657 0
M  V30 43 H -4.44177 3.19335 0.328745 0
M  V30 END ATOM
M  V30 BEGIN BOND
M  V30 1 3 1 2
M  V30 2 1 2 3
M  V30 3 2 3 4
M  V30 4 1 4 5
M  V30 5 1 4 6
M  V30 6 1 6 7
M  V30 7 2 7 8
M  V30 8 1 8 9
M  V30 9 1 9 10
M  V30 10 2 10 11
M  V30 11 1 11 12
M  V30 12 2 12 13
M  V30 13 1 13 14
M  V30 14 2 14 15
M  V30 15 1 15 16
M  V30 16 1 14 17
M  V30 17 1 17 18
M  V30 18 1 18 19
M  V30 19 2 19 20
M  V30 20 1 19 21
M  V30 21 1 13 22
M  V30 22 1 8 23
M  V30 23 3 23 24
M  V30 24 1 7 25
M  V30 25 1 9 3
M  V30 26 1 15 10
M  V30 27 1 5 26
M  V30 28 1 5 27
M  V30 29 1 9 28
M  V30 30 1 11 29
M  V30 31 1 12 30
M  V30 32 1 16 31
M  V30 33 1 16 32
M  V30 34 1 16 33
M  V30 35 1 17 34
M  V30 36 1 17 35
M  V30 37 1 21 36
M  V30 38 1 21 37
M  V30 39 1 21 38
M  V30 40 1 22 39
M  V30 41 1 22 40
M  V30 42 1 22 41
M  V30 43 1 25 42
M  V30 44 1 25 43
M  V30 END BOND
M  V30 END CTAB
M  END
