
     RDKit          3D

  0  0  0  0  0  0  0  0  0  0999 V3000
M  V30 BEGIN CTAB
M  V30 COUNTS 22 22 0 0 0
M  V30 BEGIN ATOM
M  V30 1 C -4.18989 0.755151 0.558525 0
M  V30 2 O -3.29262 -0.262278 0.294213 0
M  V30 3 C -2.00869 0.235868 0.338903 0
M  V30 4 N -1.08604 -0.834403 0.0619636 0
M  V30 5 C 0.326464 -0.6328 0.0361581 0
M  V30 6 N 0.775862 0.620722 0.28524 0
M  V30 7 C 2.09986 0.853794 0.270667 0
M  V30 8 N 2.6139 2.15661 0.527242 0
M  V30 9 N 2.99022 -0.126476 0.0149347 0
M  V30 10 C 2.5071 -1.35009 -0.226023 0
M  V30 11 N 1.18027 -1.6362 -0.22279 0
M  V30 12 N 3.37949 -2.43552 -0.503562 0
M  V30 13 H -4.05052 1.53942 -0.220158 0
M  V30 14 H -5.23247 0.441124 0.578393 0
M  V30 15 H -3.92554 1.17668 1.5489 0
M  V30 16 H -1.78782 0.741589 1.3097 0
M  V30 17 H -1.83155 1.00757 -0.467276 0
M  V30 18 H -1.46687 -1.78175 -0.124298 0
M  V30 19 H 3.45117 2.25851 1.1327 0
M  V30 20 H 2.13779 2.97187 0.101877 0
M  V30 21 H 3.76408 -2.61903 -1.44623 0
M  V30 22 H 3.64582 -3.08037 0.283445 0
M  V30 END ATOM
M  V30 BEGIN BOND
M  V30 1 1 1 2
M  V30 2 1 2 3
M  V30 3 1 3 4
M  V30 4 1 4 5
M  V30 5 2 5 6
M  V30 6 1 6 7
M  V30 7 1 7 8
M  V30 8 2 7 9
M  V30 9 1 9 10
M  V30 10 2 10 11
M  V30 11 1 10 12
M  V30 12 1 11 5
M  V30 13 1 1 13
M  V30 14 1 1 14
M  V30 15 1 1 15
M  V30 16 1 3 16
M  V30 17 1 3 17
M  V30 18 1 4 18
M  V30 19 1 8 19
M  V30 20 1 8 20
M  V30 21 1 12 21
M  V30 22 1 12 22
M  V30 END BOND
M  V30 END CTAB
M  END
