
     RDKit          3D

  0  0  0  0  0  0  0  0  0  0999 V3000
M  V30 BEGIN CTAB
M  V30 COUNTS 36 37 0 0 0
M  V30 BEGIN ATOM
M  V30 1 C -0.296562 2.05028 1.64271 0
M  V30 2 N -0.200645 0.906945 0.726744 0
M  V30 3 C 1.0925 0.607358 0.212602 0
M  V30 4 N 1.62576 1.26237 -0.834052 0
M  V30 5 C 2.84485 0.998842 -1.34644 0
M  V30 6 C 3.65453 0.0129489 -0.821924 0
M  V30 7 C 3.14126 -0.684497 0.25677 0
M  V30 8 C 1.88651 -0.388136 0.758148 0
M  V30 9 N 3.95569 -1.71403 0.818387 0
M  V30 10 N 4.94433 -0.284089 -1.34676 0
M  V30 11 C -1.40627 0.220224 0.457991 0
M  V30 12 C -2.36798 1.18013 -0.241737 0
M  V30 13 C -3.73726 0.566596 0.0638116 0
M  V30 14 C -3.84478 -0.846227 -0.325209 0
M  V30 15 C -2.64764 -1.64012 -0.60916 0
M  V30 16 C -1.32261 -0.968493 -0.439606 0
M  V30 17 H -0.24172 2.95999 0.983751 0
M  V30 18 H -1.23498 2.08152 2.19682 0
M  V30 19 H 0.567373 2.11188 2.32381 0
M  V30 20 H 3.25025 1.54641 -2.19385 0
M  V30 21 H 1.49545 -0.954526 1.61651 0
M  V30 22 H 3.67454 -2.71009 0.674277 0
M  V30 23 H 4.80483 -1.47626 1.35658 0
M  V30 24 H 5.25655 0.0691147 -2.27119 0
M  V30 25 H 5.63461 -0.866782 -0.828755 0
M  V30 26 H -1.88057 -0.112529 1.43406 0
M  V30 27 H -2.22571 1.09411 -1.35574 0
M  V30 28 H -2.28304 2.21055 0.0797978 0
M  V30 29 H -3.83969 0.659774 1.18598 0
M  V30 30 H -4.51692 1.23424 -0.370744 0
M  V30 31 H -4.44828 -1.37379 0.480195 0
M  V30 32 H -4.57237 -0.886775 -1.19728 0
M  V30 33 H -2.60316 -2.57206 0.0322306 0
M  V30 34 H -2.69414 -2.04063 -1.64377 0
M  V30 35 H -0.534992 -1.63765 -0.0425249 0
M  V30 36 H -0.929719 -0.616612 -1.43245 0
M  V30 END ATOM
M  V30 BEGIN BOND
M  V30 1 1 1 2
M  V30 2 1 2 3
M  V30 3 2 3 4
M  V30 4 1 4 5
M  V30 5 2 5 6
M  V30 6 1 6 7
M  V30 7 2 7 8
M  V30 8 1 7 9
M  V30 9 1 6 10
M  V30 10 1 2 11
M  V30 11 1 11 12
M  V30 12 1 12 13
M  V30 13 1 13 14
M  V30 14 1 14 15
M  V30 15 1 15 16
M  V30 16 1 8 3
M  V30 17 1 16 11
M  V30 18 1 1 17
M  V30 19 1 1 18
M  V30 20 1 1 19
M  V30 21 1 5 20
M  V30 22 1 8 21
M  V30 23 1 9 22
M  V30 24 1 9 23
M  V30 25 1 10 24
M  V30 26 1 10 25
M  V30 27 1 11 26
M  V30 28 1 12 27
M  V30 29 1 12 28
M  V30 30 1 13 29
M  V30 31 1 13 30
M  V30 32 1 14 31
M  V30 33 1 14 32
M  V30 34 1 15 33
M  V30 35 1 15 34
M  V30 36 1 16 35
M  V30 37 1 16 36
M  V30 END BOND
M  V30 END CTAB
M  END
