
     RDKit          3D

  0  0  0  0  0  0  0  0  0  0999 V3000
M  V30 BEGIN CTAB
M  V30 COUNTS 46 49 0 0 0
M  V30 BEGIN ATOM
M  V30 1 N 5.74843 1.04794 -3.09828 0
M  V30 2 C 6.22217 0.539827 -1.84678 0
M  V30 3 C 5.33436 0.378527 -0.822327 0
M  V30 4 C 5.81815 -0.114537 0.377536 0
M  V30 5 O 4.98509 -0.304899 1.45685 0
M  V30 6 C 3.62929 -0.00616198 1.3718 0
M  V30 7 C 2.79746 -1.02588 0.953203 0
M  V30 8 C 1.44507 -0.765427 0.856936 0
M  V30 9 C 0.902346 0.461451 1.16016 0
M  V30 10 C 1.73573 1.46111 1.57285 0
M  V30 11 C 3.11152 1.23646 1.68306 0
M  V30 12 C -0.540239 0.636664 1.02624 0
M  V30 13 N -1.25787 1.75677 1.27425 0
M  V30 14 N -2.52796 1.49506 1.02966 0
M  V30 15 C -2.6979 0.252849 0.629222 0
M  V30 16 N -3.82725 -0.507556 0.25085 0
M  V30 17 C -5.1605 -0.0245085 0.229337 0
M  V30 18 C -6.10071 -0.784056 -0.462406 0
M  V30 19 C -7.41296 -0.431745 -0.541837 0
M  V30 20 C -7.84682 0.712181 0.076395 0
M  V30 21 Cl -9.52234 1.21963 0.0107604 0
M  V30 22 C -6.9263 1.46908 0.762214 0
M  V30 23 C -5.58059 1.12525 0.854925 0
M  V30 24 C -8.36895 -1.29784 -1.30399 0
M  V30 25 F -7.70305 -2.37591 -1.82778 0
M  V30 26 F -8.92315 -0.493488 -2.28169 0
M  V30 27 F -9.30472 -1.77402 -0.415821 0
M  V30 28 N -1.43168 -0.273979 0.633134 0
M  V30 29 N 7.12444 -0.415131 0.498078 0
M  V30 30 C 7.9707 -0.247623 -0.520057 0
M  V30 31 N 9.35184 -0.583577 -0.337749 0
M  V30 32 N 7.5162 0.232937 -1.69978 0
M  V30 33 H 4.8096 0.790271 -3.46578 0
M  V30 34 H 6.36708 1.68613 -3.63863 0
M  V30 35 H 4.29827 0.624792 -0.941693 0
M  V30 36 H 3.13707 -2.0153 0.695937 0
M  V30 37 H 0.812039 -1.58201 0.526023 0
M  V30 38 H 1.34517 2.44046 1.82044 0
M  V30 39 H 3.79429 2.00687 2.00637 0
M  V30 40 H -3.70439 -1.52543 -0.0393181 0
M  V30 41 H -5.78537 -1.69895 -0.966061 0
M  V30 42 H -7.26679 2.36492 1.24619 0
M  V30 43 H -4.89704 1.74713 1.41321 0
M  V30 44 H -1.17227 -1.2461 0.370699 0
M  V30 45 H 9.66001 -1.28258 0.355073 0
M  V30 46 H 10.0425 -0.0962331 -0.931438 0
M  V30 END ATOM
M  V30 BEGIN BOND
M  V30 1 1 1 2
M  V30 2 2 2 3
M  V30 3 1 3 4
M  V30 4 1 4 5
M  V30 5 1 5 6
M  V30 6 2 6 7
M  V30 7 1 7 8
M  V30 8 2 8 9
M  V30 9 1 9 10
M  V30 10 2 10 11
M  V30 11 1 9 12
M  V30 12 2 12 13
M  V30 13 1 13 14
M  V30 14 2 14 15
M  V30 15 1 15 16
M  V30 16 1 16 17
M  V30 17 2 17 18
M  V30 18 1 18 19
M  V30 19 2 19 20
M  V30 20 1 20 21
M  V30 21 1 20 22
M  V30 22 2 22 23
M  V30 23 1 19 24
M  V30 24 1 24 25
M  V30 25 1 24 26
M  V30 26 1 24 27
M  V30 27 1 15 28
M  V30 28 2 4 29
M  V30 29 1 29 30
M  V30 30 1 30 31
M  V30 31 2 30 32
M  V30 32 1 32 2
M  V30 33 1 11 6
M  V30 34 1 28 12
M  V30 35 1 23 17
M  V30 36 1 1 33
M  V30 37 1 1 34
M  V30 38 1 3 35
M  V30 39 1 7 36
M  V30 40 1 8 37
M  V30 41 1 10 38
M  V30 42 1 11 39
M  V30 43 1 16 40
M  V30 44 1 18 41
M  V30 45 1 22 42
M  V30 46 1 23 43
M  V30 47 1 28 44
M  V30 48 1 31 45
M  V30 49 1 31 46
M  V30 END BOND
M  V30 END CTAB
M  END
