
     RDKit          3D

  0  0  0  0  0  0  0  0  0  0999 V3000
M  V30 BEGIN CTAB
M  V30 COUNTS 32 34 0 0 0
M  V30 BEGIN ATOM
M  V30 1 N -6.27043 0.988124 -1.33822 0
M  V30 2 N -5.18783 0.306509 -0.75846 0
M  V30 3 C -3.86287 0.775157 -0.93886 0
M  V30 4 O -3.72884 1.83803 -1.65074 0
M  V30 5 C -2.69764 0.131475 -0.376302 0
M  V30 6 C -2.78269 -0.994482 0.383933 0
M  V30 7 C -1.64157 -1.60101 0.918587 0
M  V30 8 C -0.403361 -1.05704 0.67751 0
M  V30 9 C -0.297129 0.099343 -0.101282 0
M  V30 10 C -1.44723 0.655602 -0.602542 0
M  V30 11 N 0.909236 0.595884 -0.313306 0
M  V30 12 C 2.05114 0.0379066 0.188274 0
M  V30 13 N 1.93894 -1.04943 0.919266 0
M  V30 14 C 0.727286 -1.62897 1.18743 0
M  V30 15 O 0.647488 -2.65489 1.87989 0
M  V30 16 N 3.0273 -1.68403 1.46755 0
M  V30 17 C 3.29917 0.698928 -0.131724 0
M  V30 18 C 4.58342 0.379583 0.221908 0
M  V30 19 C 5.47903 1.31449 -0.322382 0
M  V30 20 C 4.65032 2.17863 -1.00019 0
M  V30 21 O 3.417 1.79791 -0.870149 0
M  V30 22 H -6.76855 0.337072 -1.9879 0
M  V30 23 H -6.91032 1.37211 -0.600959 0
M  V30 24 H -5.33865 -0.546097 -0.191963 0
M  V30 25 H -3.73542 -1.44285 0.589799 0
M  V30 26 H -1.74454 -2.48739 1.51327 0
M  V30 27 H -1.33315 1.55535 -1.20518 0
M  V30 28 H 3.49812 -2.49218 0.972734 0
M  V30 29 H 3.38561 -1.33927 2.40761 0
M  V30 30 H 4.94144 -0.43758 0.817977 0
M  V30 31 H 6.55551 1.31437 -0.208758 0
M  V30 32 H 5.03919 3.03875 -1.54683 0
M  V30 END ATOM
M  V30 BEGIN BOND
M  V30 1 1 1 2
M  V30 2 1 2 3
M  V30 3 2 3 4
M  V30 4 1 3 5
M  V30 5 2 5 6
M  V30 6 1 6 7
M  V30 7 2 7 8
M  V30 8 1 8 9
M  V30 9 2 9 10
M  V30 10 1 9 11
M  V30 11 2 11 12
M  V30 12 1 12 13
M  V30 13 1 13 14
M  V30 14 2 14 15
M  V30 15 1 13 16
M  V30 16 1 12 17
M  V30 17 2 17 18
M  V30 18 1 18 19
M  V30 19 2 19 20
M  V30 20 1 20 21
M  V30 21 1 10 5
M  V30 22 1 21 17
M  V30 23 1 14 8
M  V30 24 1 1 22
M  V30 25 1 1 23
M  V30 26 1 2 24
M  V30 27 1 6 25
M  V30 28 1 7 26
M  V30 29 1 10 27
M  V30 30 1 16 28
M  V30 31 1 16 29
M  V30 32 1 18 30
M  V30 33 1 19 31
M  V30 34 1 20 32
M  V30 END BOND
M  V30 END CTAB
M  END
