
     RDKit          3D

  0  0  0  0  0  0  0  0  0  0999 V3000
M  V30 BEGIN CTAB
M  V30 COUNTS 47 49 0 0 0
M  V30 BEGIN ATOM
M  V30 1 N -2.8045 2.56604 -0.916751 0
M  V30 2 C -3.56111 1.38493 -0.702556 0
M  V30 3 C -3.23654 0.523649 0.354986 0
M  V30 4 O -2.1622 0.916306 1.13186 0
M  V30 5 C -0.842892 0.666286 0.793174 0
M  V30 6 C -0.550381 0.0813058 -0.420969 0
M  V30 7 C 0.746108 -0.185571 -0.799299 0
M  V30 8 C 1.77339 0.155394 0.0892061 0
M  V30 9 O 3.07638 -0.112898 -0.291195 0
M  V30 10 C 4.1154 0.223963 0.590241 0
M  V30 11 C 5.44789 -0.109618 0.0738307 0
M  V30 12 C 6.20426 0.776817 -0.682047 0
M  V30 13 C 7.45109 0.403142 -1.13879 0
M  V30 14 C 7.96267 -0.850476 -0.852901 0
M  V30 15 C 7.22861 -1.74321 -0.105362 0
M  V30 16 C 5.99268 -1.35049 0.33779 0
M  V30 17 C 1.49889 0.740344 1.30601 0
M  V30 18 C 0.188902 0.992981 1.65167 0
M  V30 19 C -3.95138 -0.624826 0.585851 0
M  V30 20 C -5.00438 -0.900502 -0.266172 0
M  V30 21 C -5.36799 -0.0943472 -1.31814 0
M  V30 22 C -4.62458 1.04592 -1.51159 0
M  V30 23 C -6.4907 -0.450665 -2.17414 0
M  V30 24 O -6.84208 0.371278 -3.22678 0
M  V30 25 O -7.13949 -1.50104 -1.95888 0
M  V30 26 S -3.54994 -1.67362 1.91743 0
M  V30 27 N -3.65411 -0.817057 3.41895 0
M  V30 28 O -4.62234 -2.74337 1.97495 0
M  V30 29 O -2.21235 -2.2881 1.6999 0
M  V30 30 H -2.22663 2.724 -1.76269 0
M  V30 31 H -2.83134 3.30898 -0.189496 0
M  V30 32 H -1.40103 -0.158031 -1.06421 0
M  V30 33 H 0.944962 -0.644813 -1.75711 0
M  V30 34 H 4.04834 1.30838 0.859392 0
M  V30 35 H 3.91753 -0.320052 1.55114 0
M  V30 36 H 5.78222 1.75254 -0.892745 0
M  V30 37 H 8.05568 1.08 -1.72934 0
M  V30 38 H 8.95437 -1.0995 -1.2369 0
M  V30 39 H 7.67145 -2.70757 0.090151 0
M  V30 40 H 5.43254 -2.07816 0.928193 0
M  V30 41 H 2.33049 0.979134 1.94519 0
M  V30 42 H -0.0464053 1.45036 2.59998 0
M  V30 43 H -5.55817 -1.80136 -0.0788225 0
M  V30 44 H -4.88334 1.70161 -2.32869 0
M  V30 45 H -7.57228 1.09297 -3.1552 0
M  V30 46 H -4.63623 -0.719532 3.7165 0
M  V30 47 H -3.05148 -1.27155 4.15121 0
M  V30 END ATOM
M  V30 BEGIN BOND
M  V30 1 1 1 2
M  V30 2 2 2 3
M  V30 3 1 3 4
M  V30 4 1 4 5
M  V30 5 2 5 6
M  V30 6 1 6 7
M  V30 7 2 7 8
M  V30 8 1 8 9
M  V30 9 1 9 10
M  V30 10 1 10 11
M  V30 11 2 11 12
M  V30 12 1 12 13
M  V30 13 2 13 14
M  V30 14 1 14 15
M  V30 15 2 15 16
M  V30 16 1 8 17
M  V30 17 2 17 18
M  V30 18 1 3 19
M  V30 19 2 19 20
M  V30 20 1 20 21
M  V30 21 2 21 22
M  V30 22 1 21 23
M  V30 23 1 23 24
M  V30 24 2 23 25
M  V30 25 1 19 26
M  V30 26 1 26 27
M  V30 27 2 26 28
M  V30 28 2 26 29
M  V30 29 1 22 2
M  V30 30 1 18 5
M  V30 31 1 16 11
M  V30 32 1 1 30
M  V30 33 1 1 31
M  V30 34 1 6 32
M  V30 35 1 7 33
M  V30 36 1 10 34
M  V30 37 1 10 35
M  V30 38 1 12 36
M  V30 39 1 13 37
M  V30 40 1 14 38
M  V30 41 1 15 39
M  V30 42 1 16 40
M  V30 43 1 17 41
M  V30 44 1 18 42
M  V30 45 1 20 43
M  V30 46 1 22 44
M  V30 47 1 24 45
M  V30 48 1 27 46
M  V30 49 1 27 47
M  V30 END BOND
M  V30 END CTAB
M  END
