
     RDKit          3D

  0  0  0  0  0  0  0  0  0  0999 V3000
M  V30 BEGIN CTAB
M  V30 COUNTS 26 26 0 0 0
M  V30 BEGIN ATOM
M  V30 1 N -1.57082 -2.78195 0.389663 0
M  V30 2 C -1.20157 -1.75193 -0.637959 0
M  V30 3 C -0.222666 -0.796978 -0.0345228 0
M  V30 4 C 1.05827 -1.08339 0.286059 0
M  V30 5 C 1.92945 -0.183849 0.746882 0
M  V30 6 C 1.44584 1.12763 0.872103 0
M  V30 7 C 0.165127 1.46163 0.558512 0
M  V30 8 C -0.713253 0.504805 0.0943963 0
M  V30 9 O -2.02593 0.849091 -0.236547 0
M  V30 10 C -2.42765 1.29829 -1.49359 0
M  V30 11 N -0.380623 2.81552 0.777305 0
M  V30 12 C 3.30421 -0.477018 0.91056 0
M  V30 13 O 4.01363 0.0971335 1.78865 0
M  V30 14 O 3.92248 -1.431 0.0404619 0
M  V30 15 H -1.49353 -2.34065 1.33949 0
M  V30 16 H -2.60713 -2.96466 0.278994 0
M  V30 17 H -1.94095 -1.38601 -1.23409 0
M  V30 18 H -0.482981 -2.48467 -1.27547 0
M  V30 19 H 1.40018 -2.1503 0.153739 0
M  V30 20 H 2.12815 1.90127 1.25505 0
M  V30 21 H -1.46966 1.54607 -2.09652 0
M  V30 22 H -3.06211 2.20617 -1.41575 0
M  V30 23 H -3.04263 0.543217 -2.02865 0
M  V30 24 H -0.165281 3.22211 1.72286 0
M  V30 25 H -0.900419 3.29191 0.0660669 0
M  V30 26 H 4.33988 -1.03243 -0.827693 0
M  V30 END ATOM
M  V30 BEGIN BOND
M  V30 1 1 1 2
M  V30 2 1 2 3
M  V30 3 2 3 4
M  V30 4 1 4 5
M  V30 5 2 5 6
M  V30 6 1 6 7
M  V30 7 2 7 8
M  V30 8 1 8 9
M  V30 9 1 9 10
M  V30 10 1 7 11
M  V30 11 1 5 12
M  V30 12 2 12 13
M  V30 13 1 12 14
M  V30 14 1 8 3
M  V30 15 1 1 15
M  V30 16 1 1 16
M  V30 17 1 2 17
M  V30 18 1 2 18
M  V30 19 1 4 19
M  V30 20 1 6 20
M  V30 21 1 10 21
M  V30 22 1 10 22
M  V30 23 1 10 23
M  V30 24 1 11 24
M  V30 25 1 11 25
M  V30 26 1 14 26
M  V30 END BOND
M  V30 END CTAB
M  END
