
     RDKit          3D

  0  0  0  0  0  0  0  0  0  0999 V3000
M  V30 BEGIN CTAB
M  V30 COUNTS 51 54 0 0 0
M  V30 BEGIN ATOM
M  V30 1 N 7.76694 -0.36648 0.858706 0
M  V30 2 C 6.51562 0.262004 0.422692 0
M  V30 3 C 5.46617 0.264849 1.48415 0
M  V30 4 C 4.57088 -0.602862 0.624793 0
M  V30 5 C 5.70981 -0.757015 -0.362932 0
M  V30 6 C 3.44326 0.122125 -0.00840398 0
M  V30 7 C 2.18252 -0.394182 0.0850724 0
M  V30 8 C 1.07562 0.237957 -0.489041 0
M  V30 9 N 1.32849 1.38798 -1.14051 0
M  V30 10 C 2.56344 1.91829 -1.24697 0
M  V30 11 N 3.6203 1.2729 -0.673422 0
M  V30 12 N 2.82059 3.12334 -1.93135 0
M  V30 13 N -0.211229 -0.319901 -0.373291 0
M  V30 14 C -0.403542 -1.55402 0.34164 0
M  V30 15 C -1.82909 -2.01342 0.345856 0
M  V30 16 N -2.79547 -0.975323 0.613195 0
M  V30 17 C -2.40898 0.328164 0.206103 0
M  V30 18 C -1.39494 0.288083 -0.945005 0
M  V30 19 C -4.01964 -1.36073 -0.0344816 0
M  V30 20 C -5.13159 -0.415552 0.141304 0
M  V30 21 C -5.66131 -0.137351 1.38338 0
M  V30 22 C -6.71016 0.738762 1.56661 0
M  V30 23 C -7.28189 1.38494 0.487104 0
M  V30 24 C -6.7592 1.11329 -0.758836 0
M  V30 25 C -5.71465 0.241397 -0.945789 0
M  V30 26 Cl -7.43549 1.89811 -2.18306 0
M  V30 27 H 8.14273 -0.852418 -0.00319628 0
M  V30 28 H 7.46368 -1.16141 1.48991 0
M  V30 29 H 6.64503 1.21345 -0.116409 0
M  V30 30 H 5.79341 -0.243483 2.41769 0
M  V30 31 H 4.96644 1.22292 1.70243 0
M  V30 32 H 4.26316 -1.54226 1.12372 0
M  V30 33 H 5.4666 -0.433886 -1.39993 0
M  V30 34 H 6.10848 -1.77085 -0.36652 0
M  V30 35 H 2.00708 -1.30744 0.606786 0
M  V30 36 H 2.81792 3.22329 -2.96433 0
M  V30 37 H 3.0301 3.98255 -1.34988 0
M  V30 38 H 0.181536 -2.33541 -0.221344 0
M  V30 39 H -0.0278398 -1.55381 1.36442 0
M  V30 40 H -1.938 -2.77056 1.15735 0
M  V30 41 H -2.06612 -2.5636 -0.605694 0
M  V30 42 H -3.2724 0.887466 -0.174041 0
M  V30 43 H -1.98949 0.942701 1.03383 0
M  V30 44 H -1.77569 -0.389058 -1.72385 0
M  V30 45 H -1.21526 1.316 -1.30252 0
M  V30 46 H -3.85007 -1.53307 -1.13748 0
M  V30 47 H -4.38226 -2.36676 0.327863 0
M  V30 48 H -5.18911 -0.664384 2.22806 0
M  V30 49 H -7.08741 0.92041 2.56793 0
M  V30 50 H -8.10752 2.07884 0.604273 0
M  V30 51 H -5.29148 0.0153963 -1.91495 0
M  V30 END ATOM
M  V30 BEGIN BOND
M  V30 1 1 1 2
M  V30 2 1 2 3
M  V30 3 1 3 4
M  V30 4 1 4 5
M  V30 5 1 4 6
M  V30 6 2 6 7
M  V30 7 1 7 8
M  V30 8 2 8 9
M  V30 9 1 9 10
M  V30 10 2 10 11
M  V30 11 1 10 12
M  V30 12 1 8 13
M  V30 13 1 13 14
M  V30 14 1 14 15
M  V30 15 1 15 16
M  V30 16 1 16 17
M  V30 17 1 17 18
M  V30 18 1 16 19
M  V30 19 1 19 20
M  V30 20 2 20 21
M  V30 21 1 21 22
M  V30 22 2 22 23
M  V30 23 1 23 24
M  V30 24 2 24 25
M  V30 25 1 24 26
M  V30 26 1 5 2
M  V30 27 1 11 6
M  V30 28 1 18 13
M  V30 29 1 25 20
M  V30 30 1 1 27
M  V30 31 1 1 28
M  V30 32 1 2 29
M  V30 33 1 3 30
M  V30 34 1 3 31
M  V30 35 1 4 32
M  V30 36 1 5 33
M  V30 37 1 5 34
M  V30 38 1 7 35
M  V30 39 1 12 36
M  V30 40 1 12 37
M  V30 41 1 14 38
M  V30 42 1 14 39
M  V30 43 1 15 40
M  V30 44 1 15 41
M  V30 45 1 17 42
M  V30 46 1 17 43
M  V30 47 1 18 44
M  V30 48 1 18 45
M  V30 49 1 19 46
M  V30 50 1 19 47
M  V30 51 1 21 48
M  V30 52 1 22 49
M  V30 53 1 23 50
M  V30 54 1 25 51
M  V30 END BOND
M  V30 END CTAB
M  END
