
     RDKit          3D

  0  0  0  0  0  0  0  0  0  0999 V3000
M  V30 BEGIN CTAB
M  V30 COUNTS 28 29 0 0 0
M  V30 BEGIN ATOM
M  V30 1 N -4.08718 2.661 -0.672913 0
M  V30 2 C -3.15316 1.62346 -0.499234 0
M  V30 3 N -2.00328 1.63097 -1.16594 0
M  V30 4 C -1.06128 0.666669 -1.0485 0
M  V30 5 S 0.449811 0.729727 -1.96265 0
M  V30 6 C 1.47576 -0.6882 -1.59058 0
M  V30 7 C 1.95575 -0.659019 -0.155666 0
M  V30 8 C 2.78263 0.557637 0.197953 0
M  V30 9 C 3.78051 -0.37218 0.848663 0
M  V30 10 C 3.19997 -1.49886 0.0246201 0
M  V30 11 N -1.32666 -0.348865 -0.201255 0
M  V30 12 C -2.45365 -0.430968 0.503062 0
M  V30 13 C -3.39098 0.56847 0.35868 0
M  V30 14 N -2.66088 -1.52187 1.36833 0
M  V30 15 H -4.27708 3.31502 0.100283 0
M  V30 16 H -4.58338 2.77024 -1.57208 0
M  V30 17 H 2.35672 -0.713996 -2.26283 0
M  V30 18 H 0.917077 -1.66458 -1.69817 0
M  V30 19 H 1.18378 -0.87394 0.598134 0
M  V30 20 H 2.3146 1.21314 0.975316 0
M  V30 21 H 3.21824 1.10845 -0.658481 0
M  V30 22 H 3.55197 -0.547235 1.93102 0
M  V30 23 H 4.84317 -0.143248 0.639224 0
M  V30 24 H 3.73343 -1.59425 -0.945843 0
M  V30 25 H 3.03361 -2.45133 0.571276 0
M  V30 26 H -4.33043 0.549261 0.911141 0
M  V30 27 H -1.88315 -1.89837 1.94906 0
M  V30 28 H -3.58593 -1.98713 1.45952 0
M  V30 END ATOM
M  V30 BEGIN BOND
M  V30 1 1 1 2
M  V30 2 2 2 3
M  V30 3 1 3 4
M  V30 4 1 4 5
M  V30 5 1 5 6
M  V30 6 1 6 7
M  V30 7 1 7 8
M  V30 8 1 8 9
M  V30 9 1 9 10
M  V30 10 2 4 11
M  V30 11 1 11 12
M  V30 12 2 12 13
M  V30 13 1 12 14
M  V30 14 1 13 2
M  V30 15 1 10 7
M  V30 16 1 1 15
M  V30 17 1 1 16
M  V30 18 1 6 17
M  V30 19 1 6 18
M  V30 20 1 7 19
M  V30 21 1 8 20
M  V30 22 1 8 21
M  V30 23 1 9 22
M  V30 24 1 9 23
M  V30 25 1 10 24
M  V30 26 1 10 25
M  V30 27 1 13 26
M  V30 28 1 14 27
M  V30 29 1 14 28
M  V30 END BOND
M  V30 END CTAB
M  END
