
     RDKit          3D

  0  0  0  0  0  0  0  0  0  0999 V3000
M  V30 BEGIN CTAB
M  V30 COUNTS 45 48 0 0 0
M  V30 BEGIN ATOM
M  V30 1 N -3.29017 -1.95696 0.14138 0
M  V30 2 C -2.93401 -0.824031 1.00526 0
M  V30 3 C -4.21719 -0.0377815 1.22004 0
M  V30 4 C -3.96701 1.45273 1.21977 0
M  V30 5 C -3.45025 1.93938 -0.131934 0
M  V30 6 C -2.86315 0.75903 -0.82485 0
M  V30 7 C -2.003 0.0458983 0.227619 0
M  V30 8 C -1.03032 -0.679983 -0.636293 0
M  V30 9 N -0.667034 0.305375 -1.61394 0
M  V30 10 C -1.89419 1.05815 -1.90479 0
M  V30 11 C 0.295313 1.26783 -1.16025 0
M  V30 12 C 1.58934 0.722915 -0.742966 0
M  V30 13 N 2.50824 0.485698 -1.72248 0
M  V30 14 C 3.72385 -0.00742633 -1.45145 0
M  V30 15 N 4.67545 -0.249681 -2.49567 0
M  V30 16 C 4.07088 -0.288585 -0.147441 0
M  V30 17 C 3.14296 -0.0521106 0.868534 0
M  V30 18 N 1.9499 0.442079 0.513297 0
M  V30 19 C 3.49625 -0.335331 2.16994 0
M  V30 20 C 4.72557 -0.843717 2.52891 0
M  V30 21 C 5.63145 -1.07148 1.51006 0
M  V30 22 C 5.30776 -0.797528 0.191291 0
M  V30 23 H -4.23624 -1.86472 -0.254558 0
M  V30 24 H -3.10914 -2.86472 0.608345 0
M  V30 25 H -2.52598 -1.1814 1.9684 0
M  V30 26 H -4.99015 -0.29062 0.47104 0
M  V30 27 H -4.60869 -0.306609 2.20154 0
M  V30 28 H -3.32771 1.75451 2.05193 0
M  V30 29 H -4.9533 1.9384 1.36633 0
M  V30 30 H -2.63624 2.6606 0.0898443 0
M  V30 31 H -4.2406 2.4519 -0.712055 0
M  V30 32 H -3.67902 0.0694612 -1.11965 0
M  V30 33 H -1.5189 0.744525 0.906824 0
M  V30 34 H -0.141191 -0.94775 -0.0491917 0
M  V30 35 H -1.44809 -1.6033 -1.07899 0
M  V30 36 H -1.67885 2.13554 -2.04408 0
M  V30 37 H -2.30261 0.69948 -2.87358 0
M  V30 38 H 0.389208 2.06444 -1.93824 0
M  V30 39 H -0.182906 1.79969 -0.286029 0
M  V30 40 H 5.32152 0.479637 -2.85558 0
M  V30 41 H 4.7352 -1.21626 -2.93278 0
M  V30 42 H 2.76273 -0.14458 2.93958 0
M  V30 43 H 4.94059 -1.04392 3.56411 0
M  V30 44 H 6.59416 -1.46991 1.79412 0
M  V30 45 H 6.03555 -0.985763 -0.581366 0
M  V30 END ATOM
M  V30 BEGIN BOND
M  V30 1 1 1 2
M  V30 2 1 2 3
M  V30 3 1 3 4
M  V30 4 1 4 5
M  V30 5 1 5 6
M  V30 6 1 6 7
M  V30 7 1 7 8
M  V30 8 1 8 9
M  V30 9 1 9 10
M  V30 10 1 9 11
M  V30 11 1 11 12
M  V30 12 2 12 13
M  V30 13 1 13 14
M  V30 14 1 14 15
M  V30 15 2 14 16
M  V30 16 1 16 17
M  V30 17 2 17 18
M  V30 18 1 17 19
M  V30 19 2 19 20
M  V30 20 1 20 21
M  V30 21 2 21 22
M  V30 22 1 7 2
M  V30 23 1 18 12
M  V30 24 1 10 6
M  V30 25 1 22 16
M  V30 26 1 1 23
M  V30 27 1 1 24
M  V30 28 1 2 25
M  V30 29 1 3 26
M  V30 30 1 3 27
M  V30 31 1 4 28
M  V30 32 1 4 29
M  V30 33 1 5 30
M  V30 34 1 5 31
M  V30 35 1 6 32
M  V30 36 1 7 33
M  V30 37 1 8 34
M  V30 38 1 8 35
M  V30 39 1 10 36
M  V30 40 1 10 37
M  V30 41 1 11 38
M  V30 42 1 11 39
M  V30 43 1 15 40
M  V30 44 1 15 41
M  V30 45 1 19 42
M  V30 46 1 20 43
M  V30 47 1 21 44
M  V30 48 1 22 45
M  V30 END BOND
M  V30 END CTAB
M  END
