
     RDKit          3D

  0  0  0  0  0  0  0  0  0  0999 V3000
M  V30 BEGIN CTAB
M  V30 COUNTS 26 26 0 0 0
M  V30 BEGIN ATOM
M  V30 1 C -2.46682 0.846228 -0.853887 0
M  V30 2 C -2.2274 -0.149097 0.263824 0
M  V30 3 C -1.0787 -1.05207 0.0109647 0
M  V30 4 N 0.189546 -0.45312 -0.159326 0
M  V30 5 N 1.10565 -0.962504 -0.966827 0
M  V30 6 C 2.21057 -0.251351 -0.976256 0
M  V30 7 C 2.0233 0.81796 -0.108834 0
M  V30 8 C 0.746648 0.643278 0.37289 0
M  V30 9 N 0.115297 1.48792 1.29013 0
M  V30 10 C 2.93638 1.86934 0.220761 0
M  V30 11 N 3.67403 2.72913 0.505819 0
M  V30 12 N 3.43621 -0.444411 -1.70123 0
M  V30 13 C -0.991223 -2.02627 1.1811 0
M  V30 14 H -3.21095 1.58613 -0.554744 0
M  V30 15 H -1.54074 1.28312 -1.25699 0
M  V30 16 H -2.90138 0.251414 -1.71079 0
M  V30 17 H -2.22303 0.332969 1.262 0
M  V30 18 H -3.14455 -0.782607 0.268475 0
M  V30 19 H -1.3341 -1.66757 -0.874034 0
M  V30 20 H -0.0826235 2.477 1.00715 0
M  V30 21 H -0.184985 1.2214 2.25282 0
M  V30 22 H 3.58416 0.0135029 -2.61451 0
M  V30 23 H 4.13909 -1.06083 -1.2492 0
M  V30 24 H -1.97744 -2.3907 1.4702 0
M  V30 25 H -0.308781 -2.83713 0.890443 0
M  V30 26 H -0.488153 -1.48174 2.03005 0
M  V30 END ATOM
M  V30 BEGIN BOND
M  V30 1 1 1 2
M  V30 2 1 2 3
M  V30 3 1 3 4
M  V30 4 1 4 5
M  V30 5 2 5 6
M  V30 6 1 6 7
M  V30 7 2 7 8
M  V30 8 1 8 9
M  V30 9 1 7 10
M  V30 10 3 10 11
M  V30 11 1 6 12
M  V30 12 1 3 13
M  V30 13 1 8 4
M  V30 14 1 1 14
M  V30 15 1 1 15
M  V30 16 1 1 16
M  V30 17 1 2 17
M  V30 18 1 2 18
M  V30 19 1 3 19
M  V30 20 1 9 20
M  V30 21 1 9 21
M  V30 22 1 12 22
M  V30 23 1 12 23
M  V30 24 1 13 24
M  V30 25 1 13 25
M  V30 26 1 13 26
M  V30 END BOND
M  V30 END CTAB
M  END
