
     RDKit          3D

  0  0  0  0  0  0  0  0  0  0999 V3000
M  V30 BEGIN CTAB
M  V30 COUNTS 44 47 0 0 0
M  V30 BEGIN ATOM
M  V30 1 O 4.11695 1.47255 0.384921 0
M  V30 2 C 3.77796 0.285958 0.223146 0
M  V30 3 C 2.31428 0.00601459 0.119386 0
M  V30 4 S 1.61401 -1.53131 -0.102672 0
M  V30 5 C -0.0169987 -1.00214 -0.114985 0
M  V30 6 C 0.0105235 0.352074 0.0526898 0
M  V30 7 C 1.2979 0.882433 0.178873 0
M  V30 8 N 1.63787 2.29385 0.368359 0
M  V30 9 C -1.24604 0.956879 0.0674178 0
M  V30 10 C -2.29775 0.143353 -0.0823918 0
M  V30 11 S -1.68522 -1.42903 -0.246523 0
M  V30 12 C -3.74825 0.47013 -0.111061 0
M  V30 13 O -4.04526 1.65915 0.0208744 0
M  V30 14 N -4.66897 -0.579649 -0.283655 0
M  V30 15 C -6.06399 -0.53744 -0.344649 0
M  V30 16 C -6.79575 0.624293 -0.236668 0
M  V30 17 C -8.17682 0.670664 -0.296515 0
M  V30 18 C -8.84037 -0.514997 -0.473653 0
M  V30 19 C -8.15143 -1.69844 -0.586331 0
M  V30 20 C -6.79083 -1.73035 -0.525681 0
M  V30 21 Cl -5.90393 -3.24511 -0.66969 0
M  V30 22 N -1.51862 2.38578 0.230084 0
M  V30 23 N 4.64741 -0.81414 0.129281 0
M  V30 24 C 6.03162 -0.855683 0.189799 0
M  V30 25 C 6.78825 0.269783 0.363945 0
M  V30 26 C 8.1886 0.216148 0.423758 0
M  V30 27 C 8.80555 -0.995901 0.304108 0
M  V30 28 C 8.04915 -2.1354 0.128249 0
M  V30 29 C 6.67662 -2.08809 0.0689779 0
M  V30 30 Cl 5.77756 -3.57759 -0.156648 0
M  V30 31 H 1.50532 2.68537 1.29983 0
M  V30 32 H 1.99743 2.87307 -0.406411 0
M  V30 33 H -4.22725 -1.54705 -0.381502 0
M  V30 34 H -6.30939 1.59705 -0.0940822 0
M  V30 35 H -8.72179 1.61017 -0.206963 0
M  V30 36 H -9.92839 -0.513571 -0.525121 0
M  V30 37 H -8.70402 -2.64747 -0.729132 0
M  V30 38 H -1.52585 3.04025 -0.571267 0
M  V30 39 H -1.70801 2.7343 1.18508 0
M  V30 40 H 4.15102 -1.76253 -0.0107008 0
M  V30 41 H 6.40313 1.27026 0.468605 0
M  V30 42 H 8.7998 1.09537 0.560754 0
M  V30 43 H 9.89359 -1.03831 0.350491 0
M  V30 44 H 8.59038 -3.08154 0.0376758 0
M  V30 END ATOM
M  V30 BEGIN BOND
M  V30 1 2 1 2
M  V30 2 1 2 3
M  V30 3 1 3 4
M  V30 4 1 4 5
M  V30 5 2 5 6
M  V30 6 1 6 7
M  V30 7 1 7 8
M  V30 8 1 6 9
M  V30 9 2 9 10
M  V30 10 1 10 11
M  V30 11 1 10 12
M  V30 12 2 12 13
M  V30 13 1 12 14
M  V30 14 1 14 15
M  V30 15 2 15 16
M  V30 16 1 16 17
M  V30 17 2 17 18
M  V30 18 1 18 19
M  V30 19 2 19 20
M  V30 20 1 20 21
M  V30 21 1 9 22
M  V30 22 1 2 23
M  V30 23 1 23 24
M  V30 24 2 24 25
M  V30 25 1 25 26
M  V30 26 2 26 27
M  V30 27 1 27 28
M  V30 28 2 28 29
M  V30 29 1 29 30
M  V30 30 2 7 3
M  V30 31 1 20 15
M  V30 32 1 29 24
M  V30 33 1 11 5
M  V30 34 1 8 31
M  V30 35 1 8 32
M  V30 36 1 14 33
M  V30 37 1 16 34
M  V30 38 1 17 35
M  V30 39 1 18 36
M  V30 40 1 19 37
M  V30 41 1 22 38
M  V30 42 1 22 39
M  V30 43 1 23 40
M  V30 44 1 25 41
M  V30 45 1 26 42
M  V30 46 1 27 43
M  V30 47 1 28 44
M  V30 END BOND
M  V30 END CTAB
M  END
