
     RDKit          3D

  0  0  0  0  0  0  0  0  0  0999 V3000
M  V30 BEGIN CTAB
M  V30 COUNTS 22 22 0 0 0
M  V30 BEGIN ATOM
M  V30 1 F -2.40313 -1.89034 0.28577 0
M  V30 2 C -2.66638 -0.656558 0.0522528 0
M  V30 3 C -1.67451 -0.0065969 -0.902801 0 CFG=2
M  V30 4 C -0.294625 -0.0389183 -0.38493 0
M  V30 5 C 0.681822 -0.879051 -0.89249 0
M  V30 6 C 1.96361 -0.904139 -0.406192 0
M  V30 7 C 2.33501 -0.0782416 0.625712 0
M  V30 8 C 1.38649 0.768289 1.15129 0
M  V30 9 C 0.100156 0.787824 0.657242 0
M  V30 10 N 3.64287 -0.0751054 1.15265 0
M  V30 11 N -2.09534 1.37536 -1.06583 0
M  V30 12 H -3.67027 -0.534544 -0.416843 0
M  V30 13 H -2.70791 -0.0820585 1.00032 0
M  V30 14 H -1.7231 -0.514015 -1.88545 0
M  V30 15 H 0.445025 -1.55143 -1.70635 0
M  V30 16 H 2.69755 -1.57868 -0.833742 0
M  V30 17 H 1.65309 1.41986 1.95481 0
M  V30 18 H -0.64886 1.44618 1.06146 0
M  V30 19 H 3.89159 -0.786259 1.86867 0
M  V30 20 H 4.34441 0.626485 0.829699 0
M  V30 21 H -2.34586 1.72607 -0.110553 0
M  V30 22 H -2.91164 1.42587 -1.72419 0
M  V30 END ATOM
M  V30 BEGIN BOND
M  V30 1 1 1 2
M  V30 2 1 2 3
M  V30 3 1 3 4
M  V30 4 2 4 5
M  V30 5 1 5 6
M  V30 6 2 6 7
M  V30 7 1 7 8
M  V30 8 2 8 9
M  V30 9 1 7 10
M  V30 10 1 3 11
M  V30 11 1 9 4
M  V30 12 1 2 12
M  V30 13 1 2 13
M  V30 14 1 3 14 CFG=3
M  V30 15 1 5 15
M  V30 16 1 6 16
M  V30 17 1 8 17
M  V30 18 1 9 18
M  V30 19 1 10 19
M  V30 20 1 10 20
M  V30 21 1 11 21
M  V30 22 1 11 22
M  V30 END BOND
M  V30 END CTAB
M  END
