
     RDKit          3D

  0  0  0  0  0  0  0  0  0  0999 V3000
M  V30 BEGIN CTAB
M  V30 COUNTS 17 16 0 0 0
M  V30 BEGIN ATOM
M  V30 1 N 1.65445 1.5913 -0.927856 0
M  V30 2 O 1.07079 0.850636 0.0381512 0
M  V30 3 C 0.669435 -0.387035 -0.371568 0
M  V30 4 C -0.797723 -0.492951 -0.232781 0
M  V30 5 O -1.3944 -1.55331 -0.553084 0
M  V30 6 N -1.54075 0.595789 0.26058 0
M  V30 7 N -2.91217 0.523281 0.400095 0
M  V30 8 C 1.29961 -1.51978 0.396295 0
M  V30 9 H 2.68199 1.33844 -0.973224 0
M  V30 10 H 1.63896 2.583 -0.592398 0
M  V30 11 H 0.923505 -0.509183 -1.44711 0
M  V30 12 H -1.03918 1.46655 0.522279 0
M  V30 13 H -3.34512 1.34855 0.821265 0
M  V30 14 H -3.23094 -0.316205 0.943875 0
M  V30 15 H 0.789814 -2.45228 0.0741924 0
M  V30 16 H 1.1529 -1.43036 1.48583 0
M  V30 17 H 2.37883 -1.63645 0.155451 0
M  V30 END ATOM
M  V30 BEGIN BOND
M  V30 1 1 1 2
M  V30 2 1 2 3
M  V30 3 1 3 4
M  V30 4 2 4 5
M  V30 5 1 4 6
M  V30 6 1 6 7
M  V30 7 1 3 8
M  V30 8 1 1 9
M  V30 9 1 1 10
M  V30 10 1 3 11
M  V30 11 1 6 12
M  V30 12 1 7 13
M  V30 13 1 7 14
M  V30 14 1 8 15
M  V30 15 1 8 16
M  V30 16 1 8 17
M  V30 END BOND
M  V30 END CTAB
M  END
