
     RDKit          3D

  0  0  0  0  0  0  0  0  0  0999 V3000
M  V30 BEGIN CTAB
M  V30 COUNTS 24 23 0 0 0
M  V30 BEGIN ATOM
M  V30 1 C 0.641042 -1.0747 -1.04151 0 CFG=1
M  V30 2 N 0.611959 -2.26729 -0.242928 0
M  V30 3 C -0.75315 -0.455166 -1.02791 0
M  V30 4 C -1.12485 -0.124654 0.395911 0
M  V30 5 C -2.47264 0.488554 0.532019 0
M  V30 6 N -2.6426 1.71776 -0.174776 0
M  V30 7 C 1.61488 -0.0836891 -0.563169 0
M  V30 8 O 1.73581 1.00701 -1.17987 0
M  V30 9 O 2.42414 -0.273894 0.542633 0
M  V30 10 C 3.34942 0.720633 0.960121 0
M  V30 11 H 0.93192 -1.37085 -2.06883 0
M  V30 12 H -0.263075 -2.80451 -0.394477 0
M  V30 13 H 0.775488 -2.06642 0.780275 0
M  V30 14 H -1.43128 -1.23973 -1.43328 0
M  V30 15 H -0.816969 0.404205 -1.69971 0
M  V30 16 H -1.11209 -1.06525 0.986939 0
M  V30 17 H -0.357129 0.533707 0.822667 0
M  V30 18 H -2.67606 0.664124 1.60782 0
M  V30 19 H -3.26957 -0.213086 0.17348 0
M  V30 20 H -3.58924 1.89453 -0.533878 0
M  V30 21 H -2.26331 2.54497 0.345949 0
M  V30 22 H 3.53516 0.626929 2.04666 0
M  V30 23 H 2.89556 1.73799 0.811067 0
M  V30 24 H 4.25659 0.698853 0.354793 0
M  V30 END ATOM
M  V30 BEGIN BOND
M  V30 1 1 1 2
M  V30 2 1 1 3
M  V30 3 1 3 4
M  V30 4 1 4 5
M  V30 5 1 5 6
M  V30 6 1 1 7
M  V30 7 2 7 8
M  V30 8 1 7 9
M  V30 9 1 9 10
M  V30 10 1 1 11 CFG=3
M  V30 11 1 2 12
M  V30 12 1 2 13
M  V30 13 1 3 14
M  V30 14 1 3 15
M  V30 15 1 4 16
M  V30 16 1 4 17
M  V30 17 1 5 18
M  V30 18 1 5 19
M  V30 19 1 6 20
M  V30 20 1 6 21
M  V30 21 1 10 22
M  V30 22 1 10 23
M  V30 23 1 10 24
M  V30 END BOND
M  V30 END CTAB
M  END
