
     RDKit          3D

  0  0  0  0  0  0  0  0  0  0999 V3000
M  V30 BEGIN CTAB
M  V30 COUNTS 22 22 0 0 0
M  V30 BEGIN ATOM
M  V30 1 N 0.836553 2.08305 -1.11435 0
M  V30 2 C 0.790525 0.777569 -0.40385 0
M  V30 3 C 1.8309 0.444018 0.224809 0
M  V30 4 C 2.10813 -0.735059 0.967134 0
M  V30 5 S 1.20765 -2.04556 1.10385 0
M  V30 6 N 3.35473 -0.801681 1.74054 0
M  V30 7 C -0.529253 0.251092 -0.327337 0
M  V30 8 C -1.13875 -0.138643 0.825464 0
M  V30 9 C -2.41466 -0.706549 0.823033 0
M  V30 10 C -3.07546 -0.875846 -0.373164 0
M  V30 11 C -2.43737 -0.469346 -1.54431 0
M  V30 12 C -1.20281 0.0816536 -1.5657 0
M  V30 13 H 1.50509 2.22242 -1.89409 0
M  V30 14 H 0.2039 2.85202 -0.833056 0
M  V30 15 H 2.70815 1.21303 0.198972 0
M  V30 16 H 4.23956 -0.511649 1.30302 0
M  V30 17 H 3.32264 -1.13535 2.70844 0
M  V30 18 H -0.695046 0.0207788 1.81747 0
M  V30 19 H -2.88608 -1.01208 1.73838 0
M  V30 20 H -4.0632 -1.31361 -0.393221 0
M  V30 21 H -2.9449 -0.593276 -2.51314 0
M  V30 22 H -0.720317 0.393027 -2.4889 0
M  V30 END ATOM
M  V30 BEGIN BOND
M  V30 1 1 1 2
M  V30 2 2 2 3
M  V30 3 1 3 4
M  V30 4 2 4 5
M  V30 5 1 4 6
M  V30 6 1 2 7
M  V30 7 2 7 8
M  V30 8 1 8 9
M  V30 9 2 9 10
M  V30 10 1 10 11
M  V30 11 2 11 12
M  V30 12 1 12 7
M  V30 13 1 1 13
M  V30 14 1 1 14
M  V30 15 1 3 15
M  V30 16 1 6 16
M  V30 17 1 6 17
M  V30 18 1 8 18
M  V30 19 1 9 19
M  V30 20 1 10 20
M  V30 21 1 11 21
M  V30 22 1 12 22
M  V30 END BOND
M  V30 END CTAB
M  END
