
     RDKit          3D

  0  0  0  0  0  0  0  0  0  0999 V3000
M  V30 BEGIN CTAB
M  V30 COUNTS 25 26 0 0 0
M  V30 BEGIN ATOM
M  V30 1 N -3.05259 2.70964 1.23836 0
M  V30 2 C -2.18153 1.71342 0.748331 0
M  V30 3 N -2.60607 0.479557 0.421491 0
M  V30 4 N -1.57478 -0.219132 -0.000542292 0
M  V30 5 C -0.494103 0.564463 0.055903 0
M  V30 6 N -0.852322 1.77187 0.519886 0
M  V30 7 C 0.794413 -0.0465259 -0.385021 0
M  V30 8 C 0.942221 -1.45773 0.0985735 0
M  V30 9 C -0.260361 -2.30752 -0.0701667 0
M  V30 10 C -1.50962 -1.57326 -0.458369 0
M  V30 11 S 2.12741 0.917118 0.28818 0
M  V30 12 O 1.98302 1.03637 1.78982 0
M  V30 13 O 2.09094 2.33569 -0.249613 0
M  V30 14 N 3.62182 0.212171 -0.164625 0
M  V30 15 H -2.88868 3.17004 2.15216 0
M  V30 16 H -3.87912 2.998 0.683255 0
M  V30 17 H 0.904779 -0.0463173 -1.48738 0
M  V30 18 H 1.7752 -1.92269 -0.470312 0
M  V30 19 H 1.29993 -1.42853 1.16341 0
M  V30 20 H -0.464022 -2.8074 0.905234 0
M  V30 21 H -0.0800968 -3.15918 -0.788108 0
M  V30 22 H -2.4186 -2.16743 -0.16006 0
M  V30 23 H -1.53798 -1.55366 -1.57623 0
M  V30 24 H 4.29568 0.105418 0.597556 0
M  V30 25 H 3.96445 0.675621 -1.01852 0
M  V30 END ATOM
M  V30 BEGIN BOND
M  V30 1 1 1 2
M  V30 2 2 2 3
M  V30 3 1 3 4
M  V30 4 1 4 5
M  V30 5 2 5 6
M  V30 6 1 5 7
M  V30 7 1 7 8
M  V30 8 1 8 9
M  V30 9 1 9 10
M  V30 10 1 7 11
M  V30 11 2 11 12
M  V30 12 2 11 13
M  V30 13 1 11 14
M  V30 14 1 6 2
M  V30 15 1 10 4
M  V30 16 1 1 15
M  V30 17 1 1 16
M  V30 18 1 7 17
M  V30 19 1 8 18
M  V30 20 1 8 19
M  V30 21 1 9 20
M  V30 22 1 9 21
M  V30 23 1 10 22
M  V30 24 1 10 23
M  V30 25 1 14 24
M  V30 26 1 14 25
M  V30 END BOND
M  V30 END CTAB
M  END
