
     RDKit          3D

  0  0  0  0  0  0  0  0  0  0999 V3000
M  V30 BEGIN CTAB
M  V30 COUNTS 37 37 0 0 0
M  V30 BEGIN ATOM
M  V30 1 C -1.81476 2.55273 -0.803901 0
M  V30 2 C -2.61288 1.7756 0.220505 0
M  V30 3 C -1.75569 0.905963 1.05097 0
M  V30 4 N -0.983197 -0.107169 0.427384 0
M  V30 5 C 0.432804 0.0597689 0.463963 0
M  V30 6 N 1.03984 -0.207047 1.62455 0
M  V30 7 C 2.36773 -0.09688 1.73924 0
M  V30 8 N 2.94878 -0.395145 3.00329 0
M  V30 9 N 3.08431 0.284488 0.676432 0
M  V30 10 C 2.50736 0.567539 -0.529835 0
M  V30 11 N 1.16603 0.438071 -0.5814 0
M  V30 12 C 3.32508 0.971282 -1.66732 0
M  V30 13 N 2.74649 1.22998 -2.77762 0
M  V30 14 O 1.37773 1.15526 -2.98702 0
M  V30 15 N 4.72138 1.04681 -1.49224 0
M  V30 16 C -1.46795 -1.28299 -0.235844 0
M  V30 17 C -2.11138 -2.29876 0.671757 0
M  V30 18 C -2.56247 -3.47514 -0.193838 0
M  V30 19 H -2.36155 3.4628 -1.12172 0
M  V30 20 H -0.875101 2.85942 -0.284848 0
M  V30 21 H -1.61938 1.94615 -1.71792 0
M  V30 22 H -3.46974 1.28962 -0.263233 0
M  V30 23 H -3.06196 2.55398 0.909368 0
M  V30 24 H -2.37257 0.409955 1.85928 0
M  V30 25 H -1.06548 1.57186 1.62897 0
M  V30 26 H 3.20274 0.435097 3.59058 0
M  V30 27 H 3.09704 -1.37966 3.29126 0
M  V30 28 H 0.924524 0.313607 -3.3295 0
M  V30 29 H 5.23175 1.89573 -1.77071 0
M  V30 30 H 5.22969 0.247557 -1.08357 0
M  V30 31 H -0.618332 -1.80524 -0.725487 0
M  V30 32 H -2.18188 -1.08552 -1.05468 0
M  V30 33 H -2.98649 -1.90616 1.20917 0
M  V30 34 H -1.4229 -2.69767 1.43518 0
M  V30 35 H -2.06944 -3.41104 -1.17816 0
M  V30 36 H -3.65573 -3.39741 -0.33051 0
M  V30 37 H -2.33437 -4.42745 0.327474 0
M  V30 END ATOM
M  V30 BEGIN BOND
M  V30 1 1 1 2
M  V30 2 1 2 3
M  V30 3 1 3 4
M  V30 4 1 4 5
M  V30 5 2 5 6
M  V30 6 1 6 7
M  V30 7 1 7 8
M  V30 8 2 7 9
M  V30 9 1 9 10
M  V30 10 2 10 11
M  V30 11 1 10 12
M  V30 12 2 12 13
M  V30 13 1 13 14
M  V30 14 1 12 15
M  V30 15 1 4 16
M  V30 16 1 16 17
M  V30 17 1 17 18
M  V30 18 1 11 5
M  V30 19 1 1 19
M  V30 20 1 1 20
M  V30 21 1 1 21
M  V30 22 1 2 22
M  V30 23 1 2 23
M  V30 24 1 3 24
M  V30 25 1 3 25
M  V30 26 1 8 26
M  V30 27 1 8 27
M  V30 28 1 14 28
M  V30 29 1 15 29
M  V30 30 1 15 30
M  V30 31 1 16 31
M  V30 32 1 16 32
M  V30 33 1 17 33
M  V30 34 1 17 34
M  V30 35 1 18 35
M  V30 36 1 18 36
M  V30 37 1 18 37
M  V30 END BOND
M  V30 END CTAB
M  END
