
     RDKit          3D

  0  0  0  0  0  0  0  0  0  0999 V3000
M  V30 BEGIN CTAB
M  V30 COUNTS 21 22 0 0 0
M  V30 BEGIN ATOM
M  V30 1 F 4.50796 -0.402638 -0.0283533 0
M  V30 2 C 3.15887 -0.206833 -0.0286786 0
M  V30 3 C 2.26547 -1.25076 0.116653 0
M  V30 4 C 0.890045 -1.05882 0.11727 0
M  V30 5 N 0.0206297 -2.07612 0.258876 0
M  V30 6 C -1.32196 -1.89706 0.260505 0
M  V30 7 C -1.87139 -0.638688 0.114194 0
M  V30 8 C -0.998688 0.421962 -0.0328432 0
M  V30 9 C 0.38508 0.217148 -0.0320087 0
M  V30 10 C 1.2765 1.25996 -0.177165 0
M  V30 11 C 2.65078 1.06809 -0.17777 0
M  V30 12 F 3.48201 2.14705 -0.326344 0
M  V30 13 F 0.742975 2.501 -0.321608 0
M  V30 14 N -1.50265 1.72768 -0.185845 0
M  V30 15 N -3.28329 -0.458152 0.116878 0
M  V30 16 H 2.65885 -2.24963 0.233552 0
M  V30 17 H -2.02432 -2.715 0.374425 0
M  V30 18 H -1.77117 2.2864 0.637043 0
M  V30 19 H -1.59241 2.10269 -1.15335 0
M  V30 20 H -3.73438 0.432609 0.42512 0
M  V30 21 H -3.93893 -1.21087 -0.190548 0
M  V30 END ATOM
M  V30 BEGIN BOND
M  V30 1 1 1 2
M  V30 2 2 2 3
M  V30 3 1 3 4
M  V30 4 2 4 5
M  V30 5 1 5 6
M  V30 6 2 6 7
M  V30 7 1 7 8
M  V30 8 2 8 9
M  V30 9 1 9 10
M  V30 10 2 10 11
M  V30 11 1 11 12
M  V30 12 1 10 13
M  V30 13 1 8 14
M  V30 14 1 7 15
M  V30 15 1 11 2
M  V30 16 1 9 4
M  V30 17 1 3 16
M  V30 18 1 6 17
M  V30 19 1 14 18
M  V30 20 1 14 19
M  V30 21 1 15 20
M  V30 22 1 15 21
M  V30 END BOND
M  V30 END CTAB
M  END
