
     RDKit          3D

  0  0  0  0  0  0  0  0  0  0999 V3000
M  V30 BEGIN CTAB
M  V30 COUNTS 53 56 0 0 0
M  V30 BEGIN ATOM
M  V30 1 N 4.28622 3.96209 0.506024 0
M  V30 2 C 3.18701 3.7227 0.793969 0
M  V30 3 C 1.79482 3.44939 1.15916 0
M  V30 4 C 1.03255 4.45441 1.70735 0
M  V30 5 N 1.57054 5.72656 1.92245 0
M  V30 6 N -0.23122 4.13229 2.01518 0
M  V30 7 C -0.713967 2.88105 1.79191 0
M  V30 8 C 0.00409685 1.84863 1.25013 0
M  V30 9 C 1.32965 2.16994 0.921692 0
M  V30 10 C 2.25503 1.19439 0.320726 0
M  V30 11 C 3.19641 0.569238 1.12947 0
M  V30 12 C 4.10043 -0.338127 0.628567 0
M  V30 13 C 4.11483 -0.67232 -0.706168 0
M  V30 14 C 3.1659 -0.0427132 -1.51916 0
M  V30 15 C 2.26234 0.866063 -1.01396 0
M  V30 16 O 3.20517 -0.4012 -2.85401 0
M  V30 17 C 2.31774 0.137445 -3.81265 0
M  V30 18 O 5.01292 -1.5775 -1.22356 0
M  V30 19 C 5.99199 -2.24188 -0.472949 0
M  V30 20 C -0.644597 0.677793 1.10187 0
M  V30 21 N -0.0604048 -0.539415 0.557663 0
M  V30 22 C -1.95321 0.618183 1.49886 0
M  V30 23 S -2.24706 2.20959 2.07491 0
M  V30 24 C -2.90313 -0.508656 1.45837 0
M  V30 25 O -4.0745 -0.36174 1.86557 0
M  V30 26 O -2.46616 -1.71137 0.964584 0
M  V30 27 C -3.29167 -2.86067 0.87031 0
M  V30 28 C -4.44968 -2.63698 -0.0129014 0
M  V30 29 C -4.34367 -1.68319 -0.992304 0
M  V30 30 C -5.39851 -1.42561 -1.86351 0
M  V30 31 C -6.56986 -2.12812 -1.75396 0
M  V30 32 C -6.68271 -3.08445 -0.775069 0
M  V30 33 C -5.62193 -3.3437 0.100945 0
M  V30 34 H 1.70429 6.06617 2.90619 0
M  V30 35 H 1.86653 6.40387 1.18086 0
M  V30 36 H 3.22759 0.797292 2.19331 0
M  V30 37 H 4.84811 -0.837064 1.26411 0
M  V30 38 H 1.53011 1.344 -1.67383 0
M  V30 39 H 1.30364 -0.319077 -3.65068 0
M  V30 40 H 2.25341 1.2331 -3.80233 0
M  V30 41 H 2.65594 -0.140578 -4.84835 0
M  V30 42 H 5.61214 -3.1881 -0.00754448 0
M  V30 43 H 6.79015 -2.56383 -1.19743 0
M  V30 44 H 6.46135 -1.60855 0.297695 0
M  V30 45 H 0.576006 -1.14892 1.06904 0
M  V30 46 H -0.328258 -0.782981 -0.420279 0
M  V30 47 H -2.63335 -3.67305 0.452022 0
M  V30 48 H -3.5869 -3.21383 1.88053 0
M  V30 49 H -3.44972 -1.10563 -1.12259 0
M  V30 50 H -5.30341 -0.673389 -2.62975 0
M  V30 51 H -7.38281 -1.93654 -2.41834 0
M  V30 52 H -7.6039 -3.62229 -0.703796 0
M  V30 53 H -5.71628 -4.0927 0.86549 0
M  V30 END ATOM
M  V30 BEGIN BOND
M  V30 1 3 1 2
M  V30 2 1 2 3
M  V30 3 2 3 4
M  V30 4 1 4 5
M  V30 5 1 4 6
M  V30 6 2 6 7
M  V30 7 1 7 8
M  V30 8 2 8 9
M  V30 9 1 9 10
M  V30 10 2 10 11
M  V30 11 1 11 12
M  V30 12 2 12 13
M  V30 13 1 13 14
M  V30 14 2 14 15
M  V30 15 1 14 16
M  V30 16 1 16 17
M  V30 17 1 13 18
M  V30 18 1 18 19
M  V30 19 1 8 20
M  V30 20 1 20 21
M  V30 21 2 20 22
M  V30 22 1 22 23
M  V30 23 1 22 24
M  V30 24 2 24 25
M  V30 25 1 24 26
M  V30 26 1 26 27
M  V30 27 1 27 28
M  V30 28 2 28 29
M  V30 29 1 29 30
M  V30 30 2 30 31
M  V30 31 1 31 32
M  V30 32 2 32 33
M  V30 33 1 9 3
M  V30 34 1 15 10
M  V30 35 1 33 28
M  V30 36 1 23 7
M  V30 37 1 5 34
M  V30 38 1 5 35
M  V30 39 1 11 36
M  V30 40 1 12 37
M  V30 41 1 15 38
M  V30 42 1 17 39
M  V30 43 1 17 40
M  V30 44 1 17 41
M  V30 45 1 19 42
M  V30 46 1 19 43
M  V30 47 1 19 44
M  V30 48 1 21 45
M  V30 49 1 21 46
M  V30 50 1 27 47
M  V30 51 1 27 48
M  V30 52 1 29 49
M  V30 53 1 30 50
M  V30 54 1 31 51
M  V30 55 1 32 52
M  V30 56 1 33 53
M  V30 END BOND
M  V30 END CTAB
M  END
