
     RDKit          3D

  0  0  0  0  0  0  0  0  0  0999 V3000
M  V30 BEGIN CTAB
M  V30 COUNTS 36 37 0 0 0
M  V30 BEGIN ATOM
M  V30 1 N 4.67143 2.01724 -0.117312 0
M  V30 2 C 3.88722 1.00175 0.443376 0
M  V30 3 C 2.53805 1.02229 -0.262468 0
M  V30 4 N 1.71004 -0.00823769 0.301309 0
M  V30 5 C 2.13935 -1.30345 -0.000297955 0
M  V30 6 C 1.18146 -2.40945 0.24478 0
M  V30 7 C -0.240266 -2.03717 -0.144164 0
M  V30 8 C -0.588253 -0.821894 0.643109 0 CFG=1
M  V30 9 C 0.358044 0.31946 0.418506 0
M  V30 10 C -1.96999 -0.379804 0.351215 0
M  V30 11 C -2.94913 -1.26142 -0.027711 0
M  V30 12 C -4.26342 -0.855757 -0.291454 0
M  V30 13 C -4.56164 0.469151 -0.161747 0
M  V30 14 C -3.57273 1.3612 0.22041 0
M  V30 15 N -2.32474 0.928488 0.463536 0
M  V30 16 N -3.95812 2.73278 0.334937 0
M  V30 17 H 4.30369 2.91416 -0.0190409 0
M  V30 18 H 5.50468 1.78944 -0.490945 0
M  V30 19 H 3.7491 1.13861 1.52442 0
M  V30 20 H 4.33723 -0.00287953 0.277614 0
M  V30 21 H 2.73322 0.881234 -1.34867 0
M  V30 22 H 2.05134 2.00843 -0.103651 0
M  V30 23 H 2.53825 -1.4483 -1.04727 0
M  V30 24 H 3.04508 -1.53019 0.642133 0
M  V30 25 H 1.1423 -2.63268 1.34047 0
M  V30 26 H 1.49157 -3.31585 -0.284631 0
M  V30 27 H -0.869265 -2.89995 0.167041 0
M  V30 28 H -0.268 -1.80875 -1.21088 0
M  V30 29 H -0.59618 -1.11424 1.7346 0
M  V30 30 H 0.000830622 0.914467 -0.452324 0
M  V30 31 H 0.235487 1.01032 1.30069 0
M  V30 32 H -2.72219 -2.31892 -0.134949 0
M  V30 33 H -4.97345 -1.62233 -0.584556 0
M  V30 34 H -5.56545 0.809998 -0.352781 0
M  V30 35 H -4.00956 3.29561 -0.523205 0
M  V30 36 H -4.18598 3.15664 1.25564 0
M  V30 END ATOM
M  V30 BEGIN BOND
M  V30 1 1 1 2
M  V30 2 1 2 3
M  V30 3 1 3 4
M  V30 4 1 4 5
M  V30 5 1 5 6
M  V30 6 1 6 7
M  V30 7 1 7 8
M  V30 8 1 8 9
M  V30 9 1 8 10
M  V30 10 2 10 11
M  V30 11 1 11 12
M  V30 12 2 12 13
M  V30 13 1 13 14
M  V30 14 2 14 15
M  V30 15 1 14 16
M  V30 16 1 9 4
M  V30 17 1 15 10
M  V30 18 1 1 17
M  V30 19 1 1 18
M  V30 20 1 2 19
M  V30 21 1 2 20
M  V30 22 1 3 21
M  V30 23 1 3 22
M  V30 24 1 5 23
M  V30 25 1 5 24
M  V30 26 1 6 25
M  V30 27 1 6 26
M  V30 28 1 7 27
M  V30 29 1 7 28
M  V30 30 1 8 29 CFG=1
M  V30 31 1 9 30
M  V30 32 1 9 31
M  V30 33 1 11 32
M  V30 34 1 12 33
M  V30 35 1 13 34
M  V30 36 1 16 35
M  V30 37 1 16 36
M  V30 END BOND
M  V30 END CTAB
M  END
