
     RDKit          3D

  0  0  0  0  0  0  0  0  0  0999 V3000
M  V30 BEGIN CTAB
M  V30 COUNTS 36 37 0 0 0
M  V30 BEGIN ATOM
M  V30 1 C 7.59661 -0.552826 0.0451372 0
M  V30 2 O 6.22414 -0.578746 0.329917 0
M  V30 3 C 5.23867 -0.0831262 -0.504901 0
M  V30 4 O 5.57484 0.429968 -1.59883 0
M  V30 5 C 3.82173 -0.130293 -0.169641 0
M  V30 6 C 2.85895 0.368674 -1.01504 0
M  V30 7 C 1.50927 0.336375 -0.721239 0
M  V30 8 C 1.08475 -0.207372 0.449197 0
M  V30 9 C 2.04869 -0.716707 1.31557 0
M  V30 10 C 3.37059 -0.677208 1.01209 0
M  V30 11 C -0.339599 -0.288606 0.833497 0
M  V30 12 O -0.560285 -0.530137 2.02949 0
M  V30 13 N -1.37309 -0.107707 -0.0809744 0
M  V30 14 C -2.77645 -0.153666 0.135197 0
M  V30 15 C -3.38092 -0.395416 1.33776 0
M  V30 16 C -4.77704 -0.427108 1.48247 0
M  V30 17 C -5.60449 -0.21419 0.40995 0
M  V30 18 C -5.01161 0.0304488 -0.807148 0
M  V30 19 C -3.64483 0.0617658 -0.950259 0
M  V30 20 N -3.062 0.313865 -2.20457 0
M  V30 21 N -7.02226 -0.239266 0.521317 0
M  V30 22 H 8.04669 0.319808 0.567153 0
M  V30 23 H 8.07091 -1.50769 0.375929 0
M  V30 24 H 7.82773 -0.431248 -1.02994 0
M  V30 25 H 3.20779 0.808237 -1.96243 0
M  V30 26 H 0.802803 0.747349 -1.4243 0
M  V30 27 H 1.71566 -1.155 2.2569 0
M  V30 28 H 4.12368 -1.07243 1.68348 0
M  V30 29 H -1.03577 0.0907373 -1.09083 0
M  V30 30 H -2.806 -0.570649 2.2196 0
M  V30 31 H -5.2258 -0.620974 2.44716 0
M  V30 32 H -5.6702 0.201172 -1.66709 0
M  V30 33 H -2.70505 -0.465775 -2.78907 0
M  V30 34 H -2.9827 1.28065 -2.55865 0
M  V30 35 H -7.52048 0.0688593 1.38724 0
M  V30 36 H -7.62492 -0.569174 -0.264136 0
M  V30 END ATOM
M  V30 BEGIN BOND
M  V30 1 1 1 2
M  V30 2 1 2 3
M  V30 3 2 3 4
M  V30 4 1 3 5
M  V30 5 2 5 6
M  V30 6 1 6 7
M  V30 7 2 7 8
M  V30 8 1 8 9
M  V30 9 2 9 10
M  V30 10 1 8 11
M  V30 11 2 11 12
M  V30 12 1 11 13
M  V30 13 1 13 14
M  V30 14 2 14 15
M  V30 15 1 15 16
M  V30 16 2 16 17
M  V30 17 1 17 18
M  V30 18 2 18 19
M  V30 19 1 19 20
M  V30 20 1 17 21
M  V30 21 1 10 5
M  V30 22 1 19 14
M  V30 23 1 1 22
M  V30 24 1 1 23
M  V30 25 1 1 24
M  V30 26 1 6 25
M  V30 27 1 7 26
M  V30 28 1 9 27
M  V30 29 1 10 28
M  V30 30 1 13 29
M  V30 31 1 15 30
M  V30 32 1 16 31
M  V30 33 1 18 32
M  V30 34 1 20 33
M  V30 35 1 20 34
M  V30 36 1 21 35
M  V30 37 1 21 36
M  V30 END BOND
M  V30 END CTAB
M  END
