
     RDKit          3D

  0  0  0  0  0  0  0  0  0  0999 V3000
M  V30 BEGIN CTAB
M  V30 COUNTS 28 29 0 0 0
M  V30 BEGIN ATOM
M  V30 1 C -3.73971 0.463198 0.79595 0
M  V30 2 C -3.01983 0.0538342 -0.447672 0
M  V30 3 C -1.54305 0.0818664 -0.34816 0
M  V30 4 N -0.865749 1.18304 -0.728739 0
M  V30 5 C 0.461515 1.27977 -0.721528 0
M  V30 6 N 1.13489 2.46575 -1.17172 0
M  V30 7 C 1.22266 0.162756 -0.290144 0
M  V30 8 C 0.533245 -0.94058 0.0980054 0
M  V30 9 N -0.822711 -0.954127 0.0605002 0
M  V30 10 O 1.17994 -2.09514 0.557068 0
M  V30 11 C 2.67804 0.301605 -0.285188 0
M  V30 12 C 3.50306 -0.967044 -0.601134 0
M  V30 13 C 3.56204 -0.305877 0.753435 0
M  V30 14 N -3.44443 -1.31213 -0.883403 0
M  V30 15 H -3.12004 0.510523 1.70317 0
M  V30 16 H -4.2647 1.45473 0.668398 0
M  V30 17 H -4.5828 -0.260864 0.968126 0
M  V30 18 H -3.37081 0.72936 -1.25929 0
M  V30 19 H 0.880661 2.85621 -2.08717 0
M  V30 20 H 1.85719 2.93553 -0.612014 0
M  V30 21 H 1.20211 -2.14247 1.60277 0
M  V30 22 H 3.07417 1.21836 -0.758152 0
M  V30 23 H 2.94558 -1.87032 -0.840853 0
M  V30 24 H 4.3771 -0.839545 -1.30386 0
M  V30 25 H 4.55548 0.206606 0.938954 0
M  V30 26 H 3.24394 -0.939207 1.57346 0
M  V30 27 H -4.4615 -1.29069 -0.998762 0
M  V30 28 H -3.17629 -1.98513 -0.0762513 0
M  V30 END ATOM
M  V30 BEGIN BOND
M  V30 1 1 1 2
M  V30 2 1 2 3
M  V30 3 2 3 4
M  V30 4 1 4 5
M  V30 5 1 5 6
M  V30 6 2 5 7
M  V30 7 1 7 8
M  V30 8 2 8 9
M  V30 9 1 8 10
M  V30 10 1 7 11
M  V30 11 1 11 12
M  V30 12 1 12 13
M  V30 13 1 2 14
M  V30 14 1 9 3
M  V30 15 1 13 11
M  V30 16 1 1 15
M  V30 17 1 1 16
M  V30 18 1 1 17
M  V30 19 1 2 18
M  V30 20 1 6 19
M  V30 21 1 6 20
M  V30 22 1 10 21
M  V30 23 1 11 22
M  V30 24 1 12 23
M  V30 25 1 12 24
M  V30 26 1 13 25
M  V30 27 1 13 26
M  V30 28 1 14 27
M  V30 29 1 14 28
M  V30 END BOND
M  V30 END CTAB
M  END
