
     RDKit          3D

  0  0  0  0  0  0  0  0  0  0999 V3000
M  V30 BEGIN CTAB
M  V30 COUNTS 22 22 0 0 0
M  V30 BEGIN ATOM
M  V30 1 C 4.09594 -0.0197821 0.339354 0
M  V30 2 O 2.72983 0.284146 0.182955 0
M  V30 3 C 1.76223 -0.686871 0.24474 0
M  V30 4 O 2.04756 -1.89207 0.443474 0
M  V30 5 C 0.360438 -0.321057 0.0764259 0
M  V30 6 C 0.00800006 0.996776 -0.144184 0
M  V30 7 C -1.31516 1.33685 -0.302299 0
M  V30 8 N -1.71706 2.68406 -0.53125 0
M  V30 9 C -2.27673 0.3427 -0.236666 0
M  V30 10 C -1.96265 -0.973902 -0.0193856 0
M  V30 11 N -3.00398 -1.92808 0.0338717 0
M  V30 12 C -0.638202 -1.29857 0.136595 0
M  V30 13 H 4.6369 0.890003 0.620181 0
M  V30 14 H 4.52509 -0.392911 -0.63206 0
M  V30 15 H 4.22134 -0.780417 1.14503 0
M  V30 16 H 0.789309 1.77317 -0.19294 0
M  V30 17 H -2.59012 2.99469 -0.0561969 0
M  V30 18 H -1.19547 3.33498 -1.12602 0
M  V30 19 H -3.3315 0.59826 -0.360443 0
M  V30 20 H -3.82849 -1.84975 0.65736 0
M  V30 21 H -2.93983 -2.75588 -0.58749 0
M  V30 22 H -0.377453 -2.33636 0.308949 0
M  V30 END ATOM
M  V30 BEGIN BOND
M  V30 1 1 1 2
M  V30 2 1 2 3
M  V30 3 2 3 4
M  V30 4 1 3 5
M  V30 5 2 5 6
M  V30 6 1 6 7
M  V30 7 1 7 8
M  V30 8 2 7 9
M  V30 9 1 9 10
M  V30 10 1 10 11
M  V30 11 2 10 12
M  V30 12 1 12 5
M  V30 13 1 1 13
M  V30 14 1 1 14
M  V30 15 1 1 15
M  V30 16 1 6 16
M  V30 17 1 8 17
M  V30 18 1 8 18
M  V30 19 1 9 19
M  V30 20 1 11 20
M  V30 21 1 11 21
M  V30 22 1 12 22
M  V30 END BOND
M  V30 END CTAB
M  END
