
     RDKit          3D

  0  0  0  0  0  0  0  0  0  0999 V3000
M  V30 BEGIN CTAB
M  V30 COUNTS 15 15 0 0 0
M  V30 BEGIN ATOM
M  V30 1 N -0.996211 -0.597653 1.48728 0
M  V30 2 C -1.06155 -0.176349 0.143025 0
M  V30 3 N -2.19801 -0.19475 -0.44444 0
M  V30 4 O -2.44711 0.170988 -1.72049 0
M  V30 5 C 0.120829 0.261047 -0.543449 0
M  V30 6 N 0.159988 0.678387 -1.81601 0
M  V30 7 O 1.36235 0.996894 -2.1225 0
M  V30 8 N 2.14911 0.812868 -1.10554 0
M  V30 9 C 1.42744 0.348772 -0.0748448 0
M  V30 10 N 1.84034 0.0025093 1.23357 0
M  V30 11 H -0.819224 0.0777491 2.22655 0
M  V30 12 H -1.13138 -1.59909 1.69828 0
M  V30 13 H -2.41588 -0.48007 -2.48342 0
M  V30 14 H 1.80958 -0.994142 1.58373 0
M  V30 15 H 2.19973 0.692844 1.93826 0
M  V30 END ATOM
M  V30 BEGIN BOND
M  V30 1 1 1 2
M  V30 2 2 2 3 CFG=2
M  V30 3 1 3 4
M  V30 4 1 2 5
M  V30 5 2 5 6
M  V30 6 1 6 7
M  V30 7 1 7 8
M  V30 8 2 8 9
M  V30 9 1 9 10
M  V30 10 1 9 5
M  V30 11 1 1 11
M  V30 12 1 1 12
M  V30 13 1 4 13
M  V30 14 1 10 14
M  V30 15 1 10 15
M  V30 END BOND
M  V30 END CTAB
M  END
