
     RDKit          3D

  0  0  0  0  0  0  0  0  0  0999 V3000
M  V30 BEGIN CTAB
M  V30 COUNTS 41 43 0 0 0
M  V30 BEGIN ATOM
M  V30 1 N 6.02412 -0.810295 -0.377562 0
M  V30 2 C 5.09421 0.147321 -0.949084 0
M  V30 3 C 3.79192 -0.494407 -1.41387 0
M  V30 4 C 3.23371 -0.24714 -0.0350913 0
M  V30 5 C 4.27255 0.866092 0.116077 0
M  V30 6 C 1.83796 0.228354 0.0156737 0
M  V30 7 C 0.947185 -0.373314 0.874757 0
M  V30 8 C -0.387623 0.0523281 0.950312 0
M  V30 9 N -0.713818 1.06899 0.135568 0
M  V30 10 C 0.12996 1.67796 -0.713821 0
M  V30 11 N 1.4117 1.23164 -0.75208 0
M  V30 12 N -0.282441 2.75812 -1.55682 0
M  V30 13 N -1.29833 -0.563679 1.83719 0
M  V30 14 C -2.66334 -0.146055 1.89892 0
M  V30 15 C -3.32578 -0.400698 0.568063 0
M  V30 16 S -2.79801 -1.23323 -0.822886 0
M  V30 17 C -4.18326 -0.998796 -1.79736 0
M  V30 18 C -4.98917 -0.269127 -0.957534 0
M  V30 19 N -4.52986 0.0128798 0.218534 0
M  V30 20 C -6.3661 0.187573 -1.39524 0
M  V30 21 C -0.827398 -1.627 2.68462 0
M  V30 22 H 5.80731 -0.909018 0.636721 0
M  V30 23 H 7.00642 -0.454727 -0.42771 0
M  V30 24 H 5.55134 0.826109 -1.69553 0
M  V30 25 H 3.29565 0.0259039 -2.23443 0
M  V30 26 H 3.98133 -1.58865 -1.57692 0
M  V30 27 H 3.44569 -1.08336 0.655014 0
M  V30 28 H 4.73158 0.864624 1.12004 0
M  V30 29 H 3.9322 1.85473 -0.233374 0
M  V30 30 H 1.27713 -1.18158 1.49782 0
M  V30 31 H -0.188197 2.77197 -2.57711 0
M  V30 32 H -0.708958 3.5871 -1.08715 0
M  V30 33 H -3.24623 -0.599475 2.69877 0
M  V30 34 H -2.74762 0.970698 2.03613 0
M  V30 35 H -4.41482 -1.32603 -2.82896 0
M  V30 36 H -7.12411 -0.217859 -0.675725 0
M  V30 37 H -6.42843 1.29179 -1.37455 0
M  V30 38 H -6.61577 -0.208173 -2.37267 0
M  V30 39 H 0.11183 -1.25271 3.18214 0
M  V30 40 H -1.56547 -1.94511 3.43793 0
M  V30 41 H -0.479073 -2.49374 2.05748 0
M  V30 END ATOM
M  V30 BEGIN BOND
M  V30 1 1 1 2
M  V30 2 1 2 3
M  V30 3 1 3 4
M  V30 4 1 4 5
M  V30 5 1 4 6
M  V30 6 2 6 7
M  V30 7 1 7 8
M  V30 8 2 8 9
M  V30 9 1 9 10
M  V30 10 2 10 11
M  V30 11 1 10 12
M  V30 12 1 8 13
M  V30 13 1 13 14
M  V30 14 1 14 15
M  V30 15 1 15 16
M  V30 16 1 16 17
M  V30 17 2 17 18
M  V30 18 1 18 19
M  V30 19 1 18 20
M  V30 20 1 13 21
M  V30 21 1 5 2
M  V30 22 1 11 6
M  V30 23 2 19 15
M  V30 24 1 1 22
M  V30 25 1 1 23
M  V30 26 1 2 24
M  V30 27 1 3 25
M  V30 28 1 3 26
M  V30 29 1 4 27
M  V30 30 1 5 28
M  V30 31 1 5 29
M  V30 32 1 7 30
M  V30 33 1 12 31
M  V30 34 1 12 32
M  V30 35 1 14 33
M  V30 36 1 14 34
M  V30 37 1 17 35
M  V30 38 1 20 36
M  V30 39 1 20 37
M  V30 40 1 20 38
M  V30 41 1 21 39
M  V30 42 1 21 40
M  V30 43 1 21 41
M  V30 END BOND
M  V30 END CTAB
M  END
