
     RDKit          3D

  0  0  0  0  0  0  0  0  0  0999 V3000
M  V30 BEGIN CTAB
M  V30 COUNTS 40 42 0 0 0
M  V30 BEGIN ATOM
M  V30 1 N -5.73967 2.31692 0.8532 0
M  V30 2 C -4.63 1.68066 0.132443 0
M  V30 3 C -4.37384 0.272361 0.621316 0
M  V30 4 C -2.89749 0.601039 0.670794 0
M  V30 5 C -3.2697 2.06827 0.667649 0
M  V30 6 C -2.16159 0.204873 -0.549925 0
M  V30 7 N -2.59705 0.529091 -1.77782 0
M  V30 8 C -1.92193 0.165011 -2.88406 0
M  V30 9 N -0.794493 -0.534273 -2.74894 0
M  V30 10 C -0.276967 -0.90666 -1.57057 0
M  V30 11 C -0.979095 -0.527091 -0.44014 0
M  V30 12 N 0.926093 -1.64724 -1.54833 0
M  V30 13 C 1.44653 -2.0266 -0.256851 0
M  V30 14 C 2.69416 -2.79291 -0.273102 0
M  V30 15 C 3.90355 -2.21948 -0.87814 0
M  V30 16 C 4.36853 -0.9744 -0.213232 0
M  V30 17 N 5.41707 -0.231587 -0.576018 0
M  V30 18 N 5.70902 0.797467 0.0828984 0
M  V30 19 C 4.98196 1.15086 1.13711 0
M  V30 20 S 3.81312 -0.102766 1.14818 0
M  V30 21 N 5.1542 2.28408 2.01209 0
M  V30 22 H -5.47445 2.30391 1.86118 0
M  V30 23 H -5.74939 3.32225 0.554079 0
M  V30 24 H -4.71726 1.77136 -0.966201 0
M  V30 25 H -4.79842 0.14699 1.64154 0
M  V30 26 H -4.65693 -0.524495 -0.0947065 0
M  V30 27 H -2.40967 0.25758 1.61049 0
M  V30 28 H -2.73849 2.69143 -0.0779325 0
M  V30 29 H -3.37666 2.51865 1.67677 0
M  V30 30 H -2.31761 0.452552 -3.84644 0
M  V30 31 H -0.583863 -0.813842 0.511155 0
M  V30 32 H 1.36815 -1.87705 -2.45938 0
M  V30 33 H 1.49305 -1.12067 0.366945 0
M  V30 34 H 0.624201 -2.64753 0.216093 0
M  V30 35 H 2.51107 -3.79722 -0.759386 0
M  V30 36 H 2.96499 -3.08841 0.786013 0
M  V30 37 H 4.74015 -2.96228 -0.700607 0
M  V30 38 H 3.87925 -2.11651 -1.98249 0
M  V30 39 H 6.06139 2.38419 2.51777 0
M  V30 40 H 4.40806 2.99145 2.1483 0
M  V30 END ATOM
M  V30 BEGIN BOND
M  V30 1 1 1 2
M  V30 2 1 2 3
M  V30 3 1 3 4
M  V30 4 1 4 5
M  V30 5 1 4 6
M  V30 6 2 6 7
M  V30 7 1 7 8
M  V30 8 2 8 9
M  V30 9 1 9 10
M  V30 10 2 10 11
M  V30 11 1 10 12
M  V30 12 1 12 13
M  V30 13 1 13 14
M  V30 14 1 14 15
M  V30 15 1 15 16
M  V30 16 2 16 17
M  V30 17 1 17 18
M  V30 18 2 18 19
M  V30 19 1 19 20
M  V30 20 1 19 21
M  V30 21 1 5 2
M  V30 22 1 11 6
M  V30 23 1 20 16
M  V30 24 1 1 22
M  V30 25 1 1 23
M  V30 26 1 2 24
M  V30 27 1 3 25
M  V30 28 1 3 26
M  V30 29 1 4 27
M  V30 30 1 5 28
M  V30 31 1 5 29
M  V30 32 1 8 30
M  V30 33 1 11 31
M  V30 34 1 12 32
M  V30 35 1 13 33
M  V30 36 1 13 34
M  V30 37 1 14 35
M  V30 38 1 14 36
M  V30 39 1 15 37
M  V30 40 1 15 38
M  V30 41 1 21 39
M  V30 42 1 21 40
M  V30 END BOND
M  V30 END CTAB
M  END
