
     RDKit          3D

  0  0  0  0  0  0  0  0  0  0999 V3000
M  V30 BEGIN CTAB
M  V30 COUNTS 53 55 0 0 0
M  V30 BEGIN ATOM
M  V30 1 C 3.33675 -3.58009 -1.48425 0
M  V30 2 C 2.66867 -2.62702 -2.45259 0
M  V30 3 O 2.11623 -1.49968 -1.80522 0
M  V30 4 C 2.90311 -0.608268 -1.0554 0
M  V30 5 O 4.10165 -0.921793 -1.03242 0
M  V30 6 C 2.3129 0.545332 -0.397087 0
M  V30 7 C 0.964455 0.683134 -0.643759 0
M  V30 8 N 0.319924 1.77514 -0.0410423 0
M  V30 9 C -0.704286 1.5874 0.708081 0
M  V30 10 N -1.15672 0.261614 0.904632 0
M  V30 11 C -2.53417 0.000275641 0.645882 0
M  V30 12 N -3.37878 0.966451 0.230581 0
M  V30 13 C -4.67708 0.72535 -0.013391 0
M  V30 14 C -5.60209 1.8128 -0.475291 0
M  V30 15 C -5.21023 -0.520118 0.148355 0
M  V30 16 C -4.34538 -1.52058 0.576308 0
M  V30 17 N -3.05986 -1.23969 0.80821 0
M  V30 18 C -4.88238 -2.78267 0.741322 0
M  V30 19 C -6.20621 -3.08924 0.506336 0
M  V30 20 C -7.06422 -2.08697 0.0795017 0
M  V30 21 C -6.53726 -0.825468 -0.0873649 0
M  V30 22 N -1.38162 2.66735 1.3339 0
M  V30 23 N 0.309155 -0.251695 -1.47292 0
M  V30 24 C 2.96159 1.57625 0.350848 0
M  V30 25 O 2.19193 2.62571 0.580232 0
M  V30 26 C 4.28336 1.69132 0.897011 0
M  V30 27 C 5.17478 0.725765 1.22054 0
M  V30 28 C 6.46194 1.01547 1.62671 0
M  V30 29 C 6.90845 2.29339 1.72881 0
M  V30 30 C 6.05546 3.31846 1.41982 0
M  V30 31 C 4.78462 3.02381 1.01719 0
M  V30 32 H 3.25056 -4.59887 -1.87506 0
M  V30 33 H 2.7774 -3.51178 -0.51272 0
M  V30 34 H 4.41377 -3.34323 -1.36397 0
M  V30 35 H 3.40353 -2.32302 -3.22603 0
M  V30 36 H 1.86903 -3.1924 -2.96368 0
M  V30 37 H -0.574467 -0.540028 1.22284 0
M  V30 38 H -5.88072 1.59668 -1.53535 0
M  V30 39 H -5.03786 2.76509 -0.494241 0
M  V30 40 H -6.49879 1.8577 0.183513 0
M  V30 41 H -4.1942 -3.56111 1.07784 0
M  V30 42 H -6.60252 -4.07441 0.640282 0
M  V30 43 H -8.11926 -2.28496 -0.118122 0
M  V30 44 H -7.1774 -0.0177146 -0.420053 0
M  V30 45 H -1.62759 2.55499 2.33022 0
M  V30 46 H -1.63712 3.55027 0.843265 0
M  V30 47 H 0.233731 -0.151747 -2.5265 0
M  V30 48 H -0.139313 -1.08894 -1.06306 0
M  V30 49 H 4.83206 -0.309493 1.22575 0
M  V30 50 H 7.14299 0.212807 1.87348 0
M  V30 51 H 7.91228 2.52329 2.04482 0
M  V30 52 H 6.3913 4.33959 1.49598 0
M  V30 53 H 4.14788 3.85557 0.781921 0
M  V30 END ATOM
M  V30 BEGIN BOND
M  V30 1 1 1 2
M  V30 2 1 2 3
M  V30 3 1 3 4
M  V30 4 2 4 5
M  V30 5 1 4 6
M  V30 6 2 6 7
M  V30 7 1 7 8
M  V30 8 2 8 9
M  V30 9 1 9 10
M  V30 10 1 10 11
M  V30 11 2 11 12
M  V30 12 1 12 13
M  V30 13 1 13 14
M  V30 14 2 13 15
M  V30 15 1 15 16
M  V30 16 2 16 17
M  V30 17 1 16 18
M  V30 18 2 18 19
M  V30 19 1 19 20
M  V30 20 2 20 21
M  V30 21 1 9 22
M  V30 22 1 7 23
M  V30 23 1 6 24
M  V30 24 2 24 25
M  V30 25 1 24 26
M  V30 26 2 26 27
M  V30 27 1 27 28
M  V30 28 2 28 29
M  V30 29 1 29 30
M  V30 30 2 30 31
M  V30 31 1 17 11
M  V30 32 1 31 26
M  V30 33 1 21 15
M  V30 34 1 1 32
M  V30 35 1 1 33
M  V30 36 1 1 34
M  V30 37 1 2 35
M  V30 38 1 2 36
M  V30 39 1 10 37
M  V30 40 1 14 38
M  V30 41 1 14 39
M  V30 42 1 14 40
M  V30 43 1 18 41
M  V30 44 1 19 42
M  V30 45 1 20 43
M  V30 46 1 21 44
M  V30 47 1 22 45
M  V30 48 1 22 46
M  V30 49 1 23 47
M  V30 50 1 23 48
M  V30 51 1 27 49
M  V30 52 1 28 50
M  V30 53 1 29 51
M  V30 54 1 30 52
M  V30 55 1 31 53
M  V30 END BOND
M  V30 END CTAB
M  END
