
     RDKit          3D

  0  0  0  0  0  0  0  0  0  0999 V3000
M  V30 BEGIN CTAB
M  V30 COUNTS 46 45 0 0 0
M  V30 BEGIN ATOM
M  V30 1 N 8.14997 0.928372 -1.63464 0
M  V30 2 O 7.17826 0.00417014 -1.25282 0
M  V30 3 C 6.24419 0.640909 -0.376942 0
M  V30 4 C 5.31893 -0.574906 -0.0965524 0
M  V30 5 C 3.92945 -0.360294 0.368087 0
M  V30 6 C 3.41092 -1.72818 0.656582 0
M  V30 7 C 1.99691 -1.97344 0.921655 0
M  V30 8 C 0.995965 -1.46601 -0.0731946 0
M  V30 9 S 0.99156 0.395563 -0.000918338 0
M  V30 10 S -0.293585 1.06642 -1.5053 0
M  V30 11 C -2.07745 1.11785 -1.0237 0
M  V30 12 C -2.20458 1.54062 0.453305 0
M  V30 13 C -3.47544 2.13243 0.831352 0
M  V30 14 C -4.80394 1.46922 0.792449 0
M  V30 15 C -5.0919 0.7554 -0.388255 0
M  V30 16 C -5.19385 -0.752264 -0.441392 0
M  V30 17 O -6.53542 -0.930963 0.266657 0
M  V30 18 N -7.11678 -1.72966 -0.774269 0
M  V30 19 H 9.0761 0.404225 -1.28809 0
M  V30 20 H 8.07529 1.8486 -1.32261 0
M  V30 21 H 6.67133 1.00375 0.486558 0
M  V30 22 H 5.63436 1.4612 -0.868034 0
M  V30 23 H 5.50523 -1.44131 -0.673129 0
M  V30 24 H 5.8175 -0.961943 0.981021 0
M  V30 25 H 3.74551 0.322042 1.17789 0
M  V30 26 H 3.37031 0.0130844 -0.574188 0
M  V30 27 H 3.97036 -2.08032 1.60698 0
M  V30 28 H 3.83999 -2.4607 -0.0922527 0
M  V30 29 H 1.72987 -1.51541 1.93455 0
M  V30 30 H 1.80449 -3.08172 1.04397 0
M  V30 31 H 1.36064 -1.73964 -1.10904 0
M  V30 32 H 0.0238167 -1.80893 0.0688685 0
M  V30 33 H -2.43286 0.080828 -1.15223 0
M  V30 34 H -2.50928 1.8584 -1.70356 0
M  V30 35 H -1.31916 1.93942 0.796795 0
M  V30 36 H -2.21248 0.441159 0.987078 0
M  V30 37 H -3.5901 3.03903 0.0348733 0
M  V30 38 H -3.39923 2.72343 1.74491 0
M  V30 39 H -5.54883 2.33659 0.964341 0
M  V30 40 H -4.94092 0.876565 1.73004 0
M  V30 41 H -6.24795 1.01514 -0.666811 0
M  V30 42 H -4.64737 1.09427 -1.35112 0
M  V30 43 H -4.59027 -1.11146 0.568262 0
M  V30 44 H -5.10617 -1.35928 -1.16526 0
M  V30 45 H -7.912 -0.938179 -1.00455 0
M  V30 46 H -7.59136 -2.49408 -0.484744 0
M  V30 END ATOM
M  V30 BEGIN BOND
M  V30 1 1 1 2
M  V30 2 1 2 3
M  V30 3 1 3 4
M  V30 4 1 4 5
M  V30 5 1 5 6
M  V30 6 1 6 7
M  V30 7 1 7 8
M  V30 8 1 8 9
M  V30 9 1 9 10
M  V30 10 1 10 11
M  V30 11 1 11 12
M  V30 12 1 12 13
M  V30 13 1 13 14
M  V30 14 1 14 15
M  V30 15 1 15 16
M  V30 16 1 16 17
M  V30 17 1 17 18
M  V30 18 1 1 19
M  V30 19 1 1 20
M  V30 20 1 3 21
M  V30 21 1 3 22
M  V30 22 1 4 23
M  V30 23 1 4 24
M  V30 24 1 5 25
M  V30 25 1 5 26
M  V30 26 1 6 27
M  V30 27 1 6 28
M  V30 28 1 7 29
M  V30 29 1 7 30
M  V30 30 1 8 31
M  V30 31 1 8 32
M  V30 32 1 11 33
M  V30 33 1 11 34
M  V30 34 1 12 35
M  V30 35 1 12 36
M  V30 36 1 13 37
M  V30 37 1 13 38
M  V30 38 1 14 39
M  V30 39 1 14 40
M  V30 40 1 15 41
M  V30 41 1 15 42
M  V30 42 1 16 43
M  V30 43 1 16 44
M  V30 44 1 18 45
M  V30 45 1 18 46
M  V30 END BOND
M  V30 END CTAB
M  END
