
     RDKit          3D

  0  0  0  0  0  0  0  0  0  0999 V3000
M  V30 BEGIN CTAB
M  V30 COUNTS 46 46 0 0 0
M  V30 BEGIN ATOM
M  V30 1 C 4.52408 -2.13354 0.222908 0
M  V30 2 C 4.47013 -0.640716 0.212332 0
M  V30 3 C 5.70641 -0.135466 -0.536295 0
M  V30 4 C 4.58568 -0.117339 1.63094 0
M  V30 5 N 3.32489 -0.0850458 -0.429306 0
M  V30 6 N 2.15573 -0.430906 -0.105263 0 CHG=1
M  V30 7 O 2.01359 -1.36329 0.888754 0 CHG=-1
M  V30 8 C 1.00718 0.118378 -0.739883 0
M  V30 9 C -0.248981 -0.288328 -0.354954 0
M  V30 10 N -0.399724 -1.25114 0.669491 0
M  V30 11 C -1.37182 0.25096 -0.977203 0
M  V30 12 C -1.24373 1.19369 -1.98112 0
M  V30 13 Cl -2.64979 1.88474 -2.77705 0
M  V30 14 C 0.0198219 1.59236 -2.35717 0
M  V30 15 C 1.15089 1.06396 -1.74624 0
M  V30 16 N 2.45779 1.44169 -2.09812 0
M  V30 17 N -2.6856 -0.132556 -0.619404 0 CHG=1
M  V30 18 O -3.24761 -1.1836 -1.28212 0 CHG=-1
M  V30 19 N -3.30865 0.473076 0.274773 0
M  V30 20 C -4.62933 0.202168 0.739888 0
M  V30 21 C -5.69793 0.924582 -0.0464031 0
M  V30 22 C -4.89728 -1.26926 0.819192 0
M  V30 23 C -4.71858 0.74274 2.17335 0
M  V30 24 H 4.00745 -2.56871 -0.662541 0
M  V30 25 H 5.58803 -2.44275 0.167264 0
M  V30 26 H 4.13969 -2.57501 1.17515 0
M  V30 27 H 6.51396 -0.901799 -0.542521 0
M  V30 28 H 5.47332 0.0582485 -1.60846 0
M  V30 29 H 6.11272 0.782201 -0.0956238 0
M  V30 30 H 3.59105 0.14746 2.03554 0
M  V30 31 H 5.00512 -0.915478 2.26161 0
M  V30 32 H 5.18476 0.8103 1.62853 0
M  V30 33 H -0.295035 -2.27651 0.53265 0
M  V30 34 H -0.631248 -0.915199 1.62744 0
M  V30 35 H 0.159669 2.32872 -3.13973 0
M  V30 36 H 2.90645 2.23374 -1.60354 0
M  V30 37 H 2.98746 0.95163 -2.83823 0
M  V30 38 H -6.68071 0.564576 0.334021 0
M  V30 39 H -5.587 2.01654 0.144346 0
M  V30 40 H -5.67153 0.704325 -1.1195 0
M  V30 41 H -3.96787 -1.82176 0.986389 0
M  V30 42 H -5.37965 -1.61249 -0.122307 0
M  V30 43 H -5.64568 -1.45965 1.64253 0
M  V30 44 H -5.53343 0.27844 2.73241 0
M  V30 45 H -3.77117 0.462899 2.71825 0
M  V30 46 H -4.82351 1.83274 2.16523 0
M  V30 END ATOM
M  V30 BEGIN BOND
M  V30 1 1 1 2
M  V30 2 1 2 3
M  V30 3 1 2 4
M  V30 4 1 2 5
M  V30 5 2 5 6 CFG=2
M  V30 6 1 6 7
M  V30 7 1 6 8
M  V30 8 2 8 9
M  V30 9 1 9 10
M  V30 10 1 9 11
M  V30 11 2 11 12
M  V30 12 1 12 13
M  V30 13 1 12 14
M  V30 14 2 14 15
M  V30 15 1 15 16
M  V30 16 1 11 17
M  V30 17 1 17 18
M  V30 18 2 17 19 CFG=2
M  V30 19 1 19 20
M  V30 20 1 20 21
M  V30 21 1 20 22
M  V30 22 1 20 23
M  V30 23 1 15 8
M  V30 24 1 1 24
M  V30 25 1 1 25
M  V30 26 1 1 26
M  V30 27 1 3 27
M  V30 28 1 3 28
M  V30 29 1 3 29
M  V30 30 1 4 30
M  V30 31 1 4 31
M  V30 32 1 4 32
M  V30 33 1 10 33
M  V30 34 1 10 34
M  V30 35 1 14 35
M  V30 36 1 16 36
M  V30 37 1 16 37
M  V30 38 1 21 38
M  V30 39 1 21 39
M  V30 40 1 21 40
M  V30 41 1 22 41
M  V30 42 1 22 42
M  V30 43 1 22 43
M  V30 44 1 23 44
M  V30 45 1 23 45
M  V30 46 1 23 46
M  V30 END BOND
M  V30 END CTAB
M  END
