
     RDKit          3D

  0  0  0  0  0  0  0  0  0  0999 V3000
M  V30 BEGIN CTAB
M  V30 COUNTS 43 44 0 0 0
M  V30 BEGIN ATOM
M  V30 1 C -3.43723 -0.353416 -2.27828 0
M  V30 2 C -3.91648 -0.954792 -0.98558 0
M  V30 3 C -2.82964 -1.39652 -0.0545196 0
M  V30 4 N -1.93012 -0.356531 0.372544 0
M  V30 5 C -0.768354 -0.103779 -0.248586 0
M  V30 6 N -0.333458 -0.891633 -1.36286 0
M  V30 7 C 0.0613203 0.932674 0.193428 0
M  V30 8 C 1.33753 1.1912 -0.474622 0
M  V30 9 O 1.64859 0.409805 -1.43979 0
M  V30 10 C 2.28354 2.24731 -0.147384 0
M  V30 11 S 3.35341 1.82477 1.28035 0
M  V30 12 C 4.43792 0.475718 0.899251 0
M  V30 13 N 4.24586 -0.837516 1.05625 0
M  V30 14 N 5.33989 -1.46316 0.632135 0
M  V30 15 C 6.24517 -0.566293 0.199258 0
M  V30 16 N 5.66438 0.639075 0.373308 0
M  V30 17 N 7.53663 -0.822974 -0.328631 0
M  V30 18 C -0.389136 1.64754 1.27667 0
M  V30 19 O 0.306134 2.59978 1.73628 0
M  V30 20 N -1.56731 1.39403 1.91009 0
M  V30 21 C -2.31298 0.397907 1.44556 0
M  V30 22 O -3.41785 0.153116 2.03169 0
M  V30 23 C -1.98149 2.19098 3.05058 0
M  V30 24 C -4.77986 -2.17351 -1.29218 0
M  V30 25 H -2.91953 -1.08591 -2.931 0
M  V30 26 H -2.88588 0.575638 -2.09713 0
M  V30 27 H -4.33319 -0.0348263 -2.89163 0
M  V30 28 H -4.58979 -0.193915 -0.527332 0
M  V30 29 H -3.21621 -1.99224 0.784664 0
M  V30 30 H -2.19177 -2.11536 -0.651247 0
M  V30 31 H 0.0350742 -1.84133 -1.1354 0
M  V30 32 H -0.352393 -0.60864 -2.34353 0
M  V30 33 H 1.8524 3.23684 0.0613467 0
M  V30 34 H 3.01644 2.34186 -1.01931 0
M  V30 35 H 6.16219 1.52597 0.11225 0
M  V30 36 H 8.02234 -1.70169 -0.0750699 0
M  V30 37 H 7.99331 -0.146803 -0.958898 0
M  V30 38 H -1.13006 2.50601 3.66053 0
M  V30 39 H -2.51261 3.10883 2.68913 0
M  V30 40 H -2.7305 1.59606 3.61557 0
M  V30 41 H -5.54407 -2.35132 -0.506451 0
M  V30 42 H -4.17359 -3.10036 -1.36053 0
M  V30 43 H -5.29863 -2.05888 -2.2709 0
M  V30 END ATOM
M  V30 BEGIN BOND
M  V30 1 1 1 2
M  V30 2 1 2 3
M  V30 3 1 3 4
M  V30 4 1 4 5
M  V30 5 1 5 6
M  V30 6 2 5 7
M  V30 7 1 7 8
M  V30 8 2 8 9
M  V30 9 1 8 10
M  V30 10 1 10 11
M  V30 11 1 11 12
M  V30 12 2 12 13
M  V30 13 1 13 14
M  V30 14 2 14 15
M  V30 15 1 15 16
M  V30 16 1 15 17
M  V30 17 1 7 18
M  V30 18 2 18 19
M  V30 19 1 18 20
M  V30 20 1 20 21
M  V30 21 2 21 22
M  V30 22 1 20 23
M  V30 23 1 2 24
M  V30 24 1 21 4
M  V30 25 1 16 12
M  V30 26 1 1 25
M  V30 27 1 1 26
M  V30 28 1 1 27
M  V30 29 1 2 28
M  V30 30 1 3 29
M  V30 31 1 3 30
M  V30 32 1 6 31
M  V30 33 1 6 32
M  V30 34 1 10 33
M  V30 35 1 10 34
M  V30 36 1 16 35
M  V30 37 1 17 36
M  V30 38 1 17 37
M  V30 39 1 23 38
M  V30 40 1 23 39
M  V30 41 1 23 40
M  V30 42 1 24 41
M  V30 43 1 24 42
M  V30 44 1 24 43
M  V30 END BOND
M  V30 END CTAB
M  END
