
     RDKit          3D

  0  0  0  0  0  0  0  0  0  0999 V3000
M  V30 BEGIN CTAB
M  V30 COUNTS 10 9 0 0 0
M  V30 BEGIN ATOM
M  V30 1 H -2.41564 0.140935 -0.679437 0 MASS=2
M  V30 2 N -1.82792 0.517105 0.109392 0
M  V30 3 H -2.09406 1.32458 0.692928 0 MASS=2
M  V30 4 C -0.608571 -0.144794 0.358357 0
M  V30 5 S -0.568968 -1.30186 1.50104 0
M  V30 6 C 0.598822 0.171661 -0.366127 0
M  V30 7 S 0.499172 1.33923 -1.49903 0
M  V30 8 N 1.82191 -0.502631 -0.105992 0
M  V30 9 H 1.90318 -1.53773 -0.192583 0 MASS=2
M  V30 10 H 2.69208 -0.00649855 0.181454 0 MASS=2
M  V30 END ATOM
M  V30 BEGIN BOND
M  V30 1 1 1 2
M  V30 2 1 2 3
M  V30 3 1 2 4
M  V30 4 2 4 5
M  V30 5 1 4 6
M  V30 6 2 6 7
M  V30 7 1 6 8
M  V30 8 1 8 9
M  V30 9 1 8 10
M  V30 END BOND
M  V30 END CTAB
M  END
