
     RDKit          3D

  0  0  0  0  0  0  0  0  0  0999 V3000
M  V30 BEGIN CTAB
M  V30 COUNTS 60 61 0 0 0
M  V30 BEGIN ATOM
M  V30 1 C -6.93483 2.14661 2.515 0
M  V30 2 C -5.81433 1.85021 1.56637 0
M  V30 3 C -5.97958 0.995568 0.497425 0
M  V30 4 C -4.94297 0.726814 -0.372905 0
M  V30 5 C -3.69203 1.29128 -0.227209 0
M  V30 6 C -3.53595 2.14858 0.849834 0
M  V30 7 C -4.56936 2.42059 1.72294 0
M  V30 8 S -2.37702 0.951509 -1.32993 0
M  V30 9 O -2.91158 0.662936 -2.72218 0
M  V30 10 O -1.5308 2.20843 -1.4952 0
M  V30 11 N -1.42079 -0.374105 -0.859436 0
M  V30 12 C -2.18071 -1.57505 -0.810482 0
M  V30 13 C -2.1989 -2.35951 -2.10036 0
M  V30 14 N -3.02612 -3.55101 -1.84826 0
M  V30 15 C -0.562325 -0.132478 0.243222 0
M  V30 16 C 0.803922 0.383535 -0.143595 0
M  V30 17 N 1.53335 -0.504008 -0.983853 0
M  V30 18 C 2.31003 0.0951539 -2.01676 0
M  V30 19 C 2.10332 -0.643755 -3.31411 0
M  V30 20 N 2.88666 -0.0530816 -4.39334 0
M  V30 21 S 2.49562 -1.61719 -0.0980432 0
M  V30 22 O 1.63693 -2.52986 0.733274 0
M  V30 23 O 3.22427 -2.49583 -1.06948 0
M  V30 24 C 3.7133 -0.839539 0.885741 0
M  V30 25 C 3.41203 -0.465577 2.18692 0
M  V30 26 C 4.31245 0.140882 3.00444 0
M  V30 27 C 5.58014 0.406915 2.55097 0
M  V30 28 C 6.55778 1.07118 3.45402 0
M  V30 29 C 5.92639 0.0585901 1.27807 0
M  V30 30 C 4.99243 -0.562242 0.452613 0
M  V30 31 H -7.90876 2.21397 1.96082 0
M  V30 32 H -6.80103 3.13139 3.00098 0
M  V30 33 H -7.06634 1.34581 3.26584 0
M  V30 34 H -6.9593 0.54303 0.369213 0
M  V30 35 H -5.10752 0.0517157 -1.20064 0
M  V30 36 H -2.55284 2.60399 0.980195 0
M  V30 37 H -4.44345 3.09789 2.57251 0
M  V30 38 H -3.23687 -1.31863 -0.583202 0
M  V30 39 H -1.8268 -2.28904 -0.0234725 0
M  V30 40 H -1.19211 -2.76167 -2.35909 0
M  V30 41 H -2.66896 -1.77852 -2.89187 0
M  V30 42 H -2.67663 -4.06812 -1.01009 0
M  V30 43 H -3.04443 -4.17028 -2.70832 0
M  V30 44 H -0.963328 0.541757 1.01726 0
M  V30 45 H -0.379429 -1.11212 0.757395 0
M  V30 46 H 1.35889 0.539468 0.803912 0
M  V30 47 H 0.757135 1.37459 -0.636413 0
M  V30 48 H 3.41777 0.0387065 -1.81023 0
M  V30 49 H 2.11736 1.18294 -2.14723 0
M  V30 50 H 1.02088 -0.678393 -3.60151 0
M  V30 51 H 2.41955 -1.69199 -3.2063 0
M  V30 52 H 3.86374 -0.441546 -4.41451 0
M  V30 53 H 2.92799 0.978792 -4.30814 0
M  V30 54 H 2.41826 -0.65573 2.5935 0
M  V30 55 H 4.04095 0.423231 4.02793 0
M  V30 56 H 6.14197 1.14934 4.4638 0
M  V30 57 H 7.46928 0.42752 3.52084 0
M  V30 58 H 6.89911 2.05022 3.05339 0
M  V30 59 H 6.90534 0.262855 0.924687 0
M  V30 60 H 5.25827 -0.846698 -0.56693 0
M  V30 END ATOM
M  V30 BEGIN BOND
M  V30 1 1 1 2
M  V30 2 2 2 3
M  V30 3 1 3 4
M  V30 4 2 4 5
M  V30 5 1 5 6
M  V30 6 2 6 7
M  V30 7 1 5 8
M  V30 8 2 8 9
M  V30 9 2 8 10
M  V30 10 1 8 11
M  V30 11 1 11 12
M  V30 12 1 12 13
M  V30 13 1 13 14
M  V30 14 1 11 15
M  V30 15 1 15 16
M  V30 16 1 16 17
M  V30 17 1 17 18
M  V30 18 1 18 19
M  V30 19 1 19 20
M  V30 20 1 17 21
M  V30 21 2 21 22
M  V30 22 2 21 23
M  V30 23 1 21 24
M  V30 24 2 24 25
M  V30 25 1 25 26
M  V30 26 2 26 27
M  V30 27 1 27 28
M  V30 28 1 27 29
M  V30 29 2 29 30
M  V30 30 1 7 2
M  V30 31 1 30 24
M  V30 32 1 1 31
M  V30 33 1 1 32
M  V30 34 1 1 33
M  V30 35 1 3 34
M  V30 36 1 4 35
M  V30 37 1 6 36
M  V30 38 1 7 37
M  V30 39 1 12 38
M  V30 40 1 12 39
M  V30 41 1 13 40
M  V30 42 1 13 41
M  V30 43 1 14 42
M  V30 44 1 14 43
M  V30 45 1 15 44
M  V30 46 1 15 45
M  V30 47 1 16 46
M  V30 48 1 16 47
M  V30 49 1 18 48
M  V30 50 1 18 49
M  V30 51 1 19 50
M  V30 52 1 19 51
M  V30 53 1 20 52
M  V30 54 1 20 53
M  V30 55 1 25 54
M  V30 56 1 26 55
M  V30 57 1 28 56
M  V30 58 1 28 57
M  V30 59 1 28 58
M  V30 60 1 29 59
M  V30 61 1 30 60
M  V30 END BOND
M  V30 END CTAB
M  END
