
     RDKit          3D

  0  0  0  0  0  0  0  0  0  0999 V3000
M  V30 BEGIN CTAB
M  V30 COUNTS 35 36 0 0 0
M  V30 BEGIN ATOM
M  V30 1 N -3.02314 -1.31426 -1.36124 0
M  V30 2 C -1.6925 -1.1364 -1.74692 0
M  V30 3 C -0.722673 -0.858412 -0.555964 0
M  V30 4 C -0.806438 -2.05206 0.351061 0
M  V30 5 N -2.15265 -2.28163 0.857668 0
M  V30 6 C 0.440922 -0.10052 -0.910243 0
M  V30 7 C -0.761665 0.522833 -0.137208 0
M  V30 8 S -0.547421 1.20962 1.43895 0
M  V30 9 O 0.161528 2.53541 1.38634 0
M  V30 10 O 0.0747194 0.406567 2.48492 0
M  V30 11 C -2.18335 1.60811 2.11 0
M  V30 12 C 1.6764 0.303598 -0.31791 0
M  V30 13 C 2.41815 -0.348649 0.62845 0
M  V30 14 C 3.59216 0.146465 1.14955 0
M  V30 15 C 4.0791 1.37504 0.710693 0
M  V30 16 C 3.37787 2.05949 -0.228149 0
M  V30 17 C 2.22933 1.54549 -0.718674 0
M  V30 18 Br 5.69982 2.09537 1.40785 0
M  V30 19 H -3.31845 -2.31495 -1.45521 0
M  V30 20 H -3.65078 -0.762 -1.94344 0
M  V30 21 H -1.32098 -2.04376 -2.28896 0
M  V30 22 H -1.62596 -0.308394 -2.48031 0
M  V30 23 H -0.567981 -3.00539 -0.171279 0
M  V30 24 H -0.0634824 -2.07665 1.17229 0
M  V30 25 H -2.20113 -1.81731 1.79383 0
M  V30 26 H -2.38275 -3.26901 0.990264 0
M  V30 27 H 0.459724 0.191979 -2.03282 0
M  V30 28 H -1.27213 1.26966 -0.78391 0
M  V30 29 H -2.621 0.691739 2.58795 0
M  V30 30 H -2.11202 2.36275 2.88986 0
M  V30 31 H -2.8788 1.86473 1.28398 0
M  V30 32 H 2.06797 -1.28897 0.96681 0
M  V30 33 H 4.17962 -0.36458 1.89604 0
M  V30 34 H 3.75102 3.02653 -0.581197 0
M  V30 35 H 1.69695 2.12759 -1.47148 0
M  V30 END ATOM
M  V30 BEGIN BOND
M  V30 1 1 1 2
M  V30 2 1 2 3
M  V30 3 1 3 4
M  V30 4 1 4 5
M  V30 5 1 3 6
M  V30 6 1 6 7
M  V30 7 1 7 8
M  V30 8 2 8 9
M  V30 9 2 8 10
M  V30 10 1 8 11
M  V30 11 1 6 12
M  V30 12 2 12 13
M  V30 13 1 13 14
M  V30 14 2 14 15
M  V30 15 1 15 16
M  V30 16 2 16 17
M  V30 17 1 15 18
M  V30 18 1 7 3
M  V30 19 1 17 12
M  V30 20 1 1 19
M  V30 21 1 1 20
M  V30 22 1 2 21
M  V30 23 1 2 22
M  V30 24 1 4 23
M  V30 25 1 4 24
M  V30 26 1 5 25
M  V30 27 1 5 26
M  V30 28 1 6 27
M  V30 29 1 7 28
M  V30 30 1 11 29
M  V30 31 1 11 30
M  V30 32 1 11 31
M  V30 33 1 13 32
M  V30 34 1 14 33
M  V30 35 1 16 34
M  V30 36 1 17 35
M  V30 END BOND
M  V30 END CTAB
M  END
