
     RDKit          3D

  0  0  0  0  0  0  0  0  0  0999 V3000
M  V30 BEGIN CTAB
M  V30 COUNTS 31 32 0 0 0
M  V30 BEGIN ATOM
M  V30 1 C -5.06475 0.868419 -1.45589 0
M  V30 2 C -4.18128 0.174361 -0.485874 0
M  V30 3 C -4.67766 -0.390492 0.669906 0
M  V30 4 C -3.83879 -1.03997 1.57408 0
M  V30 5 C -2.50155 -1.13247 1.33592 0
M  V30 6 C -1.97534 -0.569385 0.174331 0
M  V30 7 C -2.82839 0.0666994 -0.701721 0
M  V30 8 C -0.513734 -0.681742 -0.0655993 0
M  V30 9 S 0.325266 0.767454 0.678084 0
M  V30 10 C 2.09067 0.57048 0.352448 0
M  V30 11 N 2.85462 -0.0983506 1.24359 0
M  V30 12 C 4.17531 -0.28708 1.07314 0
M  V30 13 N 4.96956 -0.991803 2.01545 0
M  V30 14 C 4.73722 0.24593 -0.0839259 0
M  V30 15 C 3.97977 0.936051 -1.01519 0
M  V30 16 N 2.66775 1.06767 -0.747099 0
M  V30 17 N 4.57382 1.47717 -2.19936 0
M  V30 18 H -4.60288 1.78985 -1.86861 0
M  V30 19 H -5.99448 1.222 -0.927041 0
M  V30 20 H -5.30545 0.228659 -2.33053 0
M  V30 21 H -5.7248 -0.323175 0.865591 0
M  V30 22 H -4.31643 -1.45327 2.4543 0
M  V30 23 H -1.88475 -1.63569 2.04652 0
M  V30 24 H -2.41928 0.493138 -1.58474 0
M  V30 25 H -0.345523 -0.697199 -1.155 0
M  V30 26 H -0.0796025 -1.58731 0.366206 0
M  V30 27 H 5.34057 -0.489005 2.84599 0
M  V30 28 H 5.16154 -1.99725 1.85126 0
M  V30 29 H 5.79347 0.114046 -0.253916 0
M  V30 30 H 4.2092 1.24669 -3.14894 0
M  V30 31 H 5.37591 2.10556 -2.11232 0
M  V30 END ATOM
M  V30 BEGIN BOND
M  V30 1 1 1 2
M  V30 2 2 2 3
M  V30 3 1 3 4
M  V30 4 2 4 5
M  V30 5 1 5 6
M  V30 6 2 6 7
M  V30 7 1 6 8
M  V30 8 1 8 9
M  V30 9 1 9 10
M  V30 10 2 10 11
M  V30 11 1 11 12
M  V30 12 1 12 13
M  V30 13 2 12 14
M  V30 14 1 14 15
M  V30 15 2 15 16
M  V30 16 1 15 17
M  V30 17 1 7 2
M  V30 18 1 16 10
M  V30 19 1 1 18
M  V30 20 1 1 19
M  V30 21 1 1 20
M  V30 22 1 3 21
M  V30 23 1 4 22
M  V30 24 1 5 23
M  V30 25 1 7 24
M  V30 26 1 8 25
M  V30 27 1 8 26
M  V30 28 1 13 27
M  V30 29 1 13 28
M  V30 30 1 14 29
M  V30 31 1 17 30
M  V30 32 1 17 31
M  V30 END BOND
M  V30 END CTAB
M  END
