
     RDKit          3D

  0  0  0  0  0  0  0  0  0  0999 V3000
M  V30 BEGIN CTAB
M  V30 COUNTS 25 25 0 0 0
M  V30 BEGIN ATOM
M  V30 1 C 4.37826 0.132346 -0.517793 0
M  V30 2 C 3.25647 -0.774874 -0.0451557 0
M  V30 3 O 2.04248 -0.0637302 -0.169166 0
M  V30 4 C 0.827581 -0.631782 0.187116 0
M  V30 5 O 0.873489 -1.81466 0.625759 0
M  V30 6 C -0.416479 0.110129 0.055072 0
M  V30 7 C -0.37533 1.39587 -0.432446 0
M  V30 8 C -1.54102 2.15471 -0.580087 0
M  V30 9 F -1.51332 3.42086 -1.05867 0
M  V30 10 C -2.73223 1.55964 -0.216457 0
M  V30 11 C -2.78368 0.25924 0.277779 0
M  V30 12 C -1.60713 -0.477715 0.415922 0
M  V30 13 N -1.61563 -1.79562 0.911685 0
M  V30 14 N -4.04069 -0.295045 0.633841 0
M  V30 15 H 5.36568 -0.349391 -0.434623 0
M  V30 16 H 4.176 0.343264 -1.59019 0
M  V30 17 H 4.38145 1.09394 0.00590075 0
M  V30 18 H 3.27612 -1.709 -0.610532 0
M  V30 19 H 3.40462 -0.968781 1.04002 0
M  V30 20 H 0.547385 1.8676 -0.718166 0
M  V30 21 H -3.63641 2.1545 -0.333311 0
M  V30 22 H -1.79157 -2.58079 0.253974 0
M  V30 23 H -1.45141 -2.00249 1.91282 0
M  V30 24 H -4.91061 -0.137712 0.0760182 0
M  V30 25 H -4.11402 -0.890514 1.49187 0
M  V30 END ATOM
M  V30 BEGIN BOND
M  V30 1 1 1 2
M  V30 2 1 2 3
M  V30 3 1 3 4
M  V30 4 2 4 5
M  V30 5 1 4 6
M  V30 6 2 6 7
M  V30 7 1 7 8
M  V30 8 1 8 9
M  V30 9 2 8 10
M  V30 10 1 10 11
M  V30 11 2 11 12
M  V30 12 1 12 13
M  V30 13 1 11 14
M  V30 14 1 12 6
M  V30 15 1 1 15
M  V30 16 1 1 16
M  V30 17 1 1 17
M  V30 18 1 2 18
M  V30 19 1 2 19
M  V30 20 1 7 20
M  V30 21 1 10 21
M  V30 22 1 13 22
M  V30 23 1 13 23
M  V30 24 1 14 24
M  V30 25 1 14 25
M  V30 END BOND
M  V30 END CTAB
M  END
