
     RDKit          3D

  0  0  0  0  0  0  0  0  0  0999 V3000
M  V30 BEGIN CTAB
M  V30 COUNTS 66 73 0 0 0
M  V30 BEGIN ATOM
M  V30 1 N 4.84172 -1.4938 0.234872 0
M  V30 2 C 5.2042 -0.195676 0.695126 0
M  V30 3 C 4.24253 0.683096 1.17243 0
M  V30 4 C 4.61456 1.93673 1.61153 0
M  V30 5 C 5.96549 2.26936 1.55483 0
M  V30 6 C 6.92749 1.41219 1.08663 0
M  V30 7 C 6.53854 0.165249 0.652047 0
M  V30 8 C 7.56212 -0.762345 0.153187 0
M  V30 9 O 7.19087 -1.88758 -0.236668 0
M  V30 10 C 8.97739 -0.425584 0.0953328 0
M  V30 11 C 9.8935 -1.34291 -0.381704 0
M  V30 12 C 11.233 -1.02232 -0.432858 0
M  V30 13 C 11.6549 0.223847 -0.0034099 0
M  V30 14 C 10.7096 1.12197 0.470315 0
M  V30 15 C 9.36348 0.830274 0.53385 0
M  V30 16 C 8.35396 1.7542 1.02908 0
M  V30 17 O 8.72885 2.88593 1.42049 0
M  V30 18 C 2.82894 0.242643 1.20135 0
M  V30 19 N 1.7665 0.92252 1.63665 0
M  V30 20 N 0.69802 0.133469 1.4739 0
M  V30 21 C 1.13042 -1.00812 0.944004 0
M  V30 22 C 0.272773 -2.19226 0.590351 0
M  V30 23 C -0.249634 -2.088 -0.813467 0
M  V30 24 C -1.10225 -0.86707 -0.945754 0
M  V30 25 N -0.765859 0.380728 -1.27572 0
M  V30 26 N -1.86736 1.10518 -1.2559 0
M  V30 27 C -2.89227 0.325427 -0.918075 0
M  V30 28 O -2.41855 -0.875301 -0.73071 0
M  V30 29 C -4.27349 0.712637 -0.779211 0
M  V30 30 C -5.26485 -0.207327 -0.478632 0
M  V30 31 N -4.90562 -1.5618 -0.328051 0
M  V30 32 C -6.55327 0.209414 -0.338875 0
M  V30 33 C -6.90924 1.53094 -0.48727 0
M  V30 34 C -5.91102 2.45273 -0.789073 0
M  V30 35 C -4.60005 2.06171 -0.936822 0
M  V30 36 C -8.30813 1.93593 -0.328415 0
M  V30 37 O -8.63997 3.14685 -0.463722 0
M  V30 38 C -9.33827 0.940978 -0.0106815 0
M  V30 39 C -10.671 1.30686 0.142965 0
M  V30 40 C -11.6311 0.363105 0.440722 0
M  V30 41 C -11.2779 -0.942927 0.586444 0
M  V30 42 C -9.94758 -1.32967 0.436317 0
M  V30 43 C -8.98093 -0.371265 0.13554 0
M  V30 44 C -7.59965 -0.761121 -0.022687 0
M  V30 45 O -7.31695 -1.99798 0.124031 0
M  V30 46 O 2.4273 -0.922684 0.786066 0
M  V30 47 H 4.79354 -1.77687 -0.755751 0
M  V30 48 H 4.60916 -2.20586 0.960639 0
M  V30 49 H 3.86609 2.63319 1.98718 0
M  V30 50 H 6.29002 3.2399 1.89168 0
M  V30 51 H 9.50083 -2.3012 -0.70142 0
M  V30 52 H 11.944 -1.75646 -0.810752 0
M  V30 53 H 12.7153 0.458945 -0.0494354 0
M  V30 54 H 11.0521 2.09576 0.803476 0
M  V30 55 H 0.926945 -3.09384 0.696085 0
M  V30 56 H -0.525777 -2.24732 1.34331 0
M  V30 57 H 0.649106 -1.92113 -1.4718 0
M  V30 58 H -0.797873 -2.98462 -1.10082 0
M  V30 59 H -4.63139 -2.18868 -1.11502 0
M  V30 60 H -4.89243 -2.041 0.62231 0
M  V30 61 H -6.18421 3.49248 -0.904813 0
M  V30 62 H -3.85222 2.81621 -1.17218 0
M  V30 63 H -10.8962 2.36004 0.0194482 0
M  V30 64 H -12.6477 0.669257 0.553401 0
M  V30 65 H -12.0052 -1.70393 0.818964 0
M  V30 66 H -9.61541 -2.34309 0.539427 0
M  V30 END ATOM
M  V30 BEGIN BOND
M  V30 1 1 1 2
M  V30 2 2 2 3
M  V30 3 1 3 4
M  V30 4 2 4 5
M  V30 5 1 5 6
M  V30 6 2 6 7
M  V30 7 1 7 8
M  V30 8 2 8 9
M  V30 9 1 8 10
M  V30 10 2 10 11
M  V30 11 1 11 12
M  V30 12 2 12 13
M  V30 13 1 13 14
M  V30 14 2 14 15
M  V30 15 1 15 16
M  V30 16 2 16 17
M  V30 17 1 3 18
M  V30 18 2 18 19
M  V30 19 1 19 20
M  V30 20 2 20 21
M  V30 21 1 21 22
M  V30 22 1 22 23
M  V30 23 1 23 24
M  V30 24 2 24 25
M  V30 25 1 25 26
M  V30 26 2 26 27
M  V30 27 1 27 28
M  V30 28 1 27 29
M  V30 29 2 29 30
M  V30 30 1 30 31
M  V30 31 1 30 32
M  V30 32 2 32 33
M  V30 33 1 33 34
M  V30 34 2 34 35
M  V30 35 1 33 36
M  V30 36 2 36 37
M  V30 37 1 36 38
M  V30 38 2 38 39
M  V30 39 1 39 40
M  V30 40 2 40 41
M  V30 41 1 41 42
M  V30 42 2 42 43
M  V30 43 1 43 44
M  V30 44 2 44 45
M  V30 45 1 21 46
M  V30 46 1 7 2
M  V30 47 1 15 10
M  V30 48 1 46 18
M  V30 49 1 16 6
M  V30 50 1 28 24
M  V30 51 1 35 29
M  V30 52 1 43 38
M  V30 53 1 44 32
M  V30 54 1 1 47
M  V30 55 1 1 48
M  V30 56 1 4 49
M  V30 57 1 5 50
M  V30 58 1 11 51
M  V30 59 1 12 52
M  V30 60 1 13 53
M  V30 61 1 14 54
M  V30 62 1 22 55
M  V30 63 1 22 56
M  V30 64 1 23 57
M  V30 65 1 23 58
M  V30 66 1 31 59
M  V30 67 1 31 60
M  V30 68 1 34 61
M  V30 69 1 35 62
M  V30 70 1 39 63
M  V30 71 1 40 64
M  V30 72 1 41 65
M  V30 73 1 42 66
M  V30 END BOND
M  V30 END CTAB
M  END
