
     RDKit          3D

  0  0  0  0  0  0  0  0  0  0999 V3000
M  V30 BEGIN CTAB
M  V30 COUNTS 46 47 0 0 0
M  V30 BEGIN ATOM
M  V30 1 C 5.04316 1.54038 -0.500658 0
M  V30 2 C 3.84733 1.37256 -1.41117 0
M  V30 3 C 3.50674 -0.0915845 -1.61589 0
M  V30 4 C 3.18288 -0.756494 -0.327495 0
M  V30 5 C 1.961 -0.542522 0.254523 0
M  V30 6 C 0.94079 0.287609 -0.315929 0
M  V30 7 C 0.0637767 0.965846 -0.792549 0
M  V30 8 C -1.04271 1.7784 -1.3732 0
M  V30 9 C -2.27224 1.02795 -0.959531 0
M  V30 10 C -2.95954 0.206706 -1.82002 0
M  V30 11 C -4.07002 -0.462765 -1.31915 0
M  V30 12 O -4.74488 -1.27875 -2.18395 0
M  V30 13 C -5.87359 -2.04883 -1.92084 0
M  V30 14 C -4.49482 -0.332188 -0.0165065 0
M  V30 15 C -3.79417 0.492154 0.822727 0
M  V30 16 C -2.6732 1.1802 0.351019 0
M  V30 17 O -1.96076 2.01884 1.1998 0
M  V30 18 C -2.37024 2.17756 2.54378 0
M  V30 19 C 1.68629 -1.16914 1.45662 0
M  V30 20 N 0.446121 -1.00008 2.12537 0
M  V30 21 N 2.60407 -1.97486 2.04215 0
M  V30 22 C 3.79409 -2.17993 1.4687 0
M  V30 23 N 4.76305 -3.02825 2.07483 0
M  V30 24 N 4.06098 -1.55965 0.28351 0
M  V30 25 H 5.78588 2.24225 -0.953096 0
M  V30 26 H 4.75463 1.96248 0.485304 0
M  V30 27 H 5.58522 0.601216 -0.29904 0
M  V30 28 H 4.07057 1.80459 -2.40983 0
M  V30 29 H 3.0261 1.94518 -0.949332 0
M  V30 30 H 2.65966 -0.196176 -2.32143 0
M  V30 31 H 4.38894 -0.571269 -2.08848 0
M  V30 32 H -1.10246 2.77025 -0.869188 0
M  V30 33 H -0.947915 1.9113 -2.4519 0
M  V30 34 H -2.62545 0.111862 -2.82721 0
M  V30 35 H -5.77942 -2.66711 -0.985766 0
M  V30 36 H -6.82034 -1.51536 -1.86414 0
M  V30 37 H -5.98422 -2.80034 -2.75548 0
M  V30 38 H -5.35619 -0.849148 0.380994 0
M  V30 39 H -4.1298 0.595212 1.85113 0
M  V30 40 H -2.46986 1.18624 3.0546 0
M  V30 41 H -1.57287 2.76225 3.05754 0
M  V30 42 H -3.34543 2.72088 2.56394 0
M  V30 43 H -0.288515 -1.71335 2.00138 0
M  V30 44 H 0.295967 -0.172766 2.72085 0
M  V30 45 H 5.67221 -2.70861 2.46127 0
M  V30 46 H 4.53921 -4.04272 2.13173 0
M  V30 END ATOM
M  V30 BEGIN BOND
M  V30 1 1 1 2
M  V30 2 1 2 3
M  V30 3 1 3 4
M  V30 4 2 4 5
M  V30 5 1 5 6
M  V30 6 3 6 7
M  V30 7 1 7 8
M  V30 8 1 8 9
M  V30 9 2 9 10
M  V30 10 1 10 11
M  V30 11 1 11 12
M  V30 12 1 12 13
M  V30 13 2 11 14
M  V30 14 1 14 15
M  V30 15 2 15 16
M  V30 16 1 16 17
M  V30 17 1 17 18
M  V30 18 1 5 19
M  V30 19 1 19 20
M  V30 20 2 19 21
M  V30 21 1 21 22
M  V30 22 1 22 23
M  V30 23 2 22 24
M  V30 24 1 24 4
M  V30 25 1 16 9
M  V30 26 1 1 25
M  V30 27 1 1 26
M  V30 28 1 1 27
M  V30 29 1 2 28
M  V30 30 1 2 29
M  V30 31 1 3 30
M  V30 32 1 3 31
M  V30 33 1 8 32
M  V30 34 1 8 33
M  V30 35 1 10 34
M  V30 36 1 13 35
M  V30 37 1 13 36
M  V30 38 1 13 37
M  V30 39 1 14 38
M  V30 40 1 15 39
M  V30 41 1 18 40
M  V30 42 1 18 41
M  V30 43 1 18 42
M  V30 44 1 20 43
M  V30 45 1 20 44
M  V30 46 1 23 45
M  V30 47 1 23 46
M  V30 END BOND
M  V30 END CTAB
M  END
