
     RDKit          3D

  0  0  0  0  0  0  0  0  0  0999 V3000
M  V30 BEGIN CTAB
M  V30 COUNTS 20 20 0 0 0
M  V30 BEGIN ATOM
M  V30 1 N -3.42844 0.0240949 0.558299 0
M  V30 2 C -2.06064 0.140556 0.232026 0
M  V30 3 C -1.29561 -0.976241 -0.0610901 0
M  V30 4 C 0.0408162 -0.863854 -0.379983 0
M  V30 5 N 0.786993 -2.0397 -0.674549 0
M  V30 6 C 0.68949 0.368343 -0.424505 0
M  V30 7 C -0.0818438 1.47327 -0.131088 0
M  V30 8 C -1.41928 1.37957 0.189854 0
M  V30 9 Br 0.680982 3.22101 -0.160818 0
M  V30 10 O 2.02861 0.457354 -0.746364 0
M  V30 11 C 3.10743 0.40487 0.129088 0
M  V30 12 F 3.12838 -0.797717 0.815243 0
M  V30 13 F 3.11093 1.42942 1.02171 0
M  V30 14 F 4.27883 0.502506 -0.616501 0
M  V30 15 H -4.03043 -0.610065 0.0132388 0
M  V30 16 H -3.83288 0.566186 1.3359 0
M  V30 17 H -1.79844 -1.94922 -0.0282188 0
M  V30 18 H 1.17104 -2.25954 -1.60487 0
M  V30 19 H 0.948473 -2.71527 0.112686 0
M  V30 20 H -2.0244 2.24443 0.419932 0
M  V30 END ATOM
M  V30 BEGIN BOND
M  V30 1 1 1 2
M  V30 2 2 2 3
M  V30 3 1 3 4
M  V30 4 1 4 5
M  V30 5 2 4 6
M  V30 6 1 6 7
M  V30 7 2 7 8
M  V30 8 1 7 9
M  V30 9 1 6 10
M  V30 10 1 10 11
M  V30 11 1 11 12
M  V30 12 1 11 13
M  V30 13 1 11 14
M  V30 14 1 8 2
M  V30 15 1 1 15
M  V30 16 1 1 16
M  V30 17 1 3 17
M  V30 18 1 5 18
M  V30 19 1 5 19
M  V30 20 1 8 20
M  V30 END BOND
M  V30 END CTAB
M  END
