
     RDKit          3D

  0  0  0  0  0  0  0  0  0  0999 V3000
M  V30 BEGIN CTAB
M  V30 COUNTS 64 67 0 0 0
M  V30 BEGIN ATOM
M  V30 1 O 5.85108 3.36068 -1.03498 0
M  V30 2 C 5.74328 2.04047 -0.758756 0
M  V30 3 C 5.98968 1.0938 -1.74567 0
M  V30 4 C 5.8688 -0.232507 -1.42413 0
M  V30 5 C 5.50826 -0.671893 -0.148957 0
M  V30 6 C 5.2769 0.315018 0.789268 0
M  V30 7 C 5.38767 1.6562 0.50696 0
M  V30 8 C 5.38153 -2.11315 0.163378 0
M  V30 9 C 3.96983 -2.66208 -0.0258594 0 CFG=1
M  V30 10 C 2.9782 -2.00841 0.827746 0
M  V30 11 O 3.1711 -2.14335 2.08843 0
M  V30 12 N 1.84154 -1.2521 0.43311 0
M  V30 13 C 1.02984 -0.75374 1.5526 0
M  V30 14 C 0.313134 0.466527 1.12199 0
M  V30 15 C -0.614538 0.142702 -0.0745225 0
M  V30 16 C 0.389328 -0.0482042 -1.20598 0
M  V30 17 C 1.49677 -0.982958 -0.920972 0
M  V30 18 O -1.23674 -1.0377 0.0658773 0
M  V30 19 C -2.59386 -1.12209 0.143313 0
M  V30 20 C -3.25949 0.154374 0.50892 0 CFG=1
M  V30 21 C -2.8602 1.13913 -0.565063 0 CFG=1
M  V30 22 C -1.39179 1.3553 -0.414008 0
M  V30 23 C -3.239 0.649344 -1.94659 0
M  V30 24 O -3.47164 2.38563 -0.435265 0
M  V30 25 N -4.63174 0.187027 0.745818 0
M  V30 26 C -5.11433 1.28483 1.41063 0
M  V30 27 C -6.45226 1.43231 1.70684 0
M  V30 28 C -7.36298 0.461791 1.33675 0
M  V30 29 N -6.862 -0.60245 0.687361 0
M  V30 30 C -5.54653 -0.738769 0.40078 0
M  V30 31 O -5.17744 -1.77689 -0.211816 0
M  V30 32 N -8.75655 0.588155 1.63064 0
M  V30 33 N 3.65252 -2.80146 -1.3976 0
M  V30 34 H 5.19427 3.99461 -1.35713 0
M  V30 35 H 6.26427 1.45594 -2.71625 0
M  V30 36 H 6.06789 -0.972048 -2.16438 0
M  V30 37 H 5.00518 -0.0123617 1.78961 0
M  V30 38 H 5.18726 2.37008 1.30495 0
M  V30 39 H 6.10191 -2.64517 -0.484132 0
M  V30 40 H 5.72847 -2.28922 1.21926 0
M  V30 41 H 4.04753 -3.72682 0.387704 0
M  V30 42 H 0.292114 -1.52326 1.86129 0
M  V30 43 H 1.7108 -0.485904 2.37765 0
M  V30 44 H 1.01757 1.23461 0.742466 0
M  V30 45 H -0.254906 0.931896 1.94073 0
M  V30 46 H -0.196044 -0.357572 -2.11248 0
M  V30 47 H 0.786926 0.965632 -1.45234 0
M  V30 48 H 1.25192 -1.96362 -1.41624 0
M  V30 49 H 2.41028 -0.602227 -1.45271 0
M  V30 50 H -2.90456 -1.3985 -0.901249 0
M  V30 51 H -2.83413 -1.93324 0.864557 0
M  V30 52 H -2.75937 0.526153 1.46135 0
M  V30 53 H -1.27417 2.12972 0.403389 0
M  V30 54 H -1.04481 1.88501 -1.32648 0
M  V30 55 H -4.30531 0.366821 -1.91744 0
M  V30 56 H -3.13984 1.55853 -2.62155 0
M  V30 57 H -2.56384 -0.0844108 -2.37988 0
M  V30 58 H -2.8523 3.08728 -0.753903 0
M  V30 59 H -4.48231 2.09561 1.74918 0
M  V30 60 H -6.85029 2.29123 2.23024 0
M  V30 61 H -9.34119 1.08266 0.931884 0
M  V30 62 H -9.18744 0.208626 2.50084 0
M  V30 63 H 4.08822 -2.16603 -2.05282 0
M  V30 64 H 3.55753 -3.78953 -1.67398 0
M  V30 END ATOM
M  V30 BEGIN BOND
M  V30 1 1 1 2
M  V30 2 2 2 3
M  V30 3 1 3 4
M  V30 4 2 4 5
M  V30 5 1 5 6
M  V30 6 2 6 7
M  V30 7 1 5 8
M  V30 8 1 8 9
M  V30 9 1 9 10
M  V30 10 2 10 11
M  V30 11 1 10 12
M  V30 12 1 12 13
M  V30 13 1 13 14
M  V30 14 1 14 15
M  V30 15 1 15 16
M  V30 16 1 16 17
M  V30 17 1 15 18
M  V30 18 1 18 19
M  V30 19 1 19 20
M  V30 20 1 20 21
M  V30 21 1 21 22
M  V30 22 1 21 23
M  V30 23 1 21 24 CFG=1
M  V30 24 1 20 25
M  V30 25 1 25 26
M  V30 26 2 26 27
M  V30 27 1 27 28
M  V30 28 2 28 29
M  V30 29 1 29 30
M  V30 30 2 30 31
M  V30 31 1 28 32
M  V30 32 1 9 33
M  V30 33 1 7 2
M  V30 34 1 17 12
M  V30 35 1 30 25
M  V30 36 1 22 15
M  V30 37 1 1 34
M  V30 38 1 3 35
M  V30 39 1 4 36
M  V30 40 1 6 37
M  V30 41 1 7 38
M  V30 42 1 8 39
M  V30 43 1 8 40
M  V30 44 1 9 41 CFG=1
M  V30 45 1 13 42
M  V30 46 1 13 43
M  V30 47 1 14 44
M  V30 48 1 14 45
M  V30 49 1 16 46
M  V30 50 1 16 47
M  V30 51 1 17 48
M  V30 52 1 17 49
M  V30 53 1 19 50
M  V30 54 1 19 51
M  V30 55 1 20 52 CFG=1
M  V30 56 1 22 53
M  V30 57 1 22 54
M  V30 58 1 23 55
M  V30 59 1 23 56
M  V30 60 1 23 57
M  V30 61 1 24 58
M  V30 62 1 26 59
M  V30 63 1 27 60
M  V30 64 1 32 61
M  V30 65 1 32 62
M  V30 66 1 33 63
M  V30 67 1 33 64
M  V30 END BOND
M  V30 END CTAB
M  END
