
     RDKit          3D

  0  0  0  0  0  0  0  0  0  0999 V3000
M  V30 BEGIN CTAB
M  V30 COUNTS 41 41 0 0 0
M  V30 BEGIN ATOM
M  V30 1 C 1.27587 2.2733 1.21378 0
M  V30 2 C 0.82975 0.862734 1.53085 0
M  V30 3 C 1.93283 -0.104276 1.76397 0
M  V30 4 C 2.87517 -0.288433 0.634876 0
M  V30 5 C 3.77623 0.692344 0.285513 0
M  V30 6 C 4.66599 0.519218 -0.748331 0
M  V30 7 C 4.64906 -0.666205 -1.44567 0
M  V30 8 C 3.7749 -1.68261 -1.14531 0
M  V30 9 C 2.8982 -1.45589 -0.0925973 0
M  V30 10 N 2.74071 0.296377 2.93036 0
M  V30 11 C -0.18934 0.441821 0.553112 0
M  V30 12 O -0.0228377 -0.548112 -0.188563 0
M  V30 13 N -1.41237 1.14518 0.40886 0
M  V30 14 C -2.44022 0.775087 -0.526305 0
M  V30 15 C -3.01444 -0.596763 -0.314356 0
M  V30 16 C -4.07586 -0.790263 -1.39057 0
M  V30 17 N -5.09953 0.223549 -1.25471 0
M  V30 18 C -4.7284 -2.15521 -1.2402 0
M  V30 19 H 1.98061 2.66653 1.97429 0
M  V30 20 H 0.36988 2.93121 1.28993 0
M  V30 21 H 1.63472 2.39026 0.174237 0
M  V30 22 H 0.285574 0.978466 2.53067 0
M  V30 23 H 1.47608 -1.07605 2.04163 0
M  V30 24 H 3.82443 1.65477 0.821571 0
M  V30 25 H 5.38457 1.28133 -1.03924 0
M  V30 26 H 5.34377 -0.849548 -2.2822 0
M  V30 27 H 3.77913 -2.61002 -1.70899 0
M  V30 28 H 2.22234 -2.26747 0.139073 0
M  V30 29 H 2.89832 -0.49457 3.57181 0
M  V30 30 H 3.57737 0.822722 2.66649 0
M  V30 31 H -1.57128 1.97557 1.016 0
M  V30 32 H -2.0362 0.790072 -1.57932 0
M  V30 33 H -3.27909 1.50447 -0.498069 0
M  V30 34 H -3.53229 -0.624477 0.663986 0
M  V30 35 H -2.28266 -1.393 -0.409513 0
M  V30 36 H -3.64299 -0.701631 -2.39851 0
M  V30 37 H -5.13465 0.885093 -2.04029 0
M  V30 38 H -5.13634 0.649377 -0.318273 0
M  V30 39 H -5.83091 -2.07793 -1.38192 0
M  V30 40 H -4.46147 -2.54213 -0.234057 0
M  V30 41 H -4.30461 -2.83488 -1.99955 0
M  V30 END ATOM
M  V30 BEGIN BOND
M  V30 1 1 1 2
M  V30 2 1 2 3
M  V30 3 1 3 4
M  V30 4 2 4 5
M  V30 5 1 5 6
M  V30 6 2 6 7
M  V30 7 1 7 8
M  V30 8 2 8 9
M  V30 9 1 3 10
M  V30 10 1 2 11
M  V30 11 2 11 12
M  V30 12 1 11 13
M  V30 13 1 13 14
M  V30 14 1 14 15
M  V30 15 1 15 16
M  V30 16 1 16 17
M  V30 17 1 16 18
M  V30 18 1 9 4
M  V30 19 1 1 19
M  V30 20 1 1 20
M  V30 21 1 1 21
M  V30 22 1 2 22
M  V30 23 1 3 23
M  V30 24 1 5 24
M  V30 25 1 6 25
M  V30 26 1 7 26
M  V30 27 1 8 27
M  V30 28 1 9 28
M  V30 29 1 10 29
M  V30 30 1 10 30
M  V30 31 1 13 31
M  V30 32 1 14 32
M  V30 33 1 14 33
M  V30 34 1 15 34
M  V30 35 1 15 35
M  V30 36 1 16 36
M  V30 37 1 17 37
M  V30 38 1 17 38
M  V30 39 1 18 39
M  V30 40 1 18 40
M  V30 41 1 18 41
M  V30 END BOND
M  V30 END CTAB
M  END
