
     RDKit          3D

  0  0  0  0  0  0  0  0  0  0999 V3000
M  V30 BEGIN CTAB
M  V30 COUNTS 29 30 0 0 0
M  V30 BEGIN ATOM
M  V30 1 N -2.33585 -1.69677 -1.15592 0
M  V30 2 C -2.34965 -0.2414 -1.06669 0
M  V30 3 C -3.40029 0.229694 -0.0865714 0
M  V30 4 C -2.59253 0.512487 1.16619 0
M  V30 5 C -1.2667 1.04835 0.684718 0
M  V30 6 C -1.02729 0.250284 -0.572517 0
M  V30 7 S 0.0776487 -1.14653 -0.275765 0
M  V30 8 C 1.64595 -0.525152 0.311089 0
M  V30 9 N 1.83933 -0.358137 1.63302 0
M  V30 10 C 3.01038 0.108888 2.113 0
M  V30 11 C 4.01229 0.413836 1.21509 0
M  V30 12 C 3.81999 0.24346 -0.159221 0
M  V30 13 C 2.61472 -0.235512 -0.629295 0
M  V30 14 N 2.39243 -0.418556 -2.02549 0
M  V30 15 H -3.31759 -2.02633 -1.34361 0
M  V30 16 H -2.04502 -2.0696 -0.208789 0
M  V30 17 H -2.60214 0.15888 -2.07717 0
M  V30 18 H -4.13401 -0.592738 0.111983 0
M  V30 19 H -3.94752 1.12731 -0.441173 0
M  V30 20 H -3.11309 1.23216 1.83216 0
M  V30 21 H -2.4098 -0.457323 1.6843 0
M  V30 22 H -1.29438 2.12313 0.448402 0
M  V30 23 H -0.460374 0.822838 1.44097 0
M  V30 24 H -0.549785 0.916194 -1.32057 0
M  V30 25 H 3.21292 0.259148 3.15788 0
M  V30 26 H 4.96937 0.790088 1.53247 0
M  V30 27 H 4.62391 0.490247 -0.850489 0
M  V30 28 H 2.79588 0.249925 -2.70482 0
M  V30 29 H 1.8312 -1.20886 -2.41316 0
M  V30 END ATOM
M  V30 BEGIN BOND
M  V30 1 1 1 2
M  V30 2 1 2 3
M  V30 3 1 3 4
M  V30 4 1 4 5
M  V30 5 1 5 6
M  V30 6 1 6 7
M  V30 7 1 7 8
M  V30 8 2 8 9
M  V30 9 1 9 10
M  V30 10 2 10 11
M  V30 11 1 11 12
M  V30 12 2 12 13
M  V30 13 1 13 14
M  V30 14 1 6 2
M  V30 15 1 13 8
M  V30 16 1 1 15
M  V30 17 1 1 16
M  V30 18 1 2 17
M  V30 19 1 3 18
M  V30 20 1 3 19
M  V30 21 1 4 20
M  V30 22 1 4 21
M  V30 23 1 5 22
M  V30 24 1 5 23
M  V30 25 1 6 24
M  V30 26 1 10 25
M  V30 27 1 11 26
M  V30 28 1 12 27
M  V30 29 1 14 28
M  V30 30 1 14 29
M  V30 END BOND
M  V30 END CTAB
M  END
