
     RDKit          3D

  0  0  0  0  0  0  0  0  0  0999 V3000
M  V30 BEGIN CTAB
M  V30 COUNTS 50 52 0 0 0
M  V30 BEGIN ATOM
M  V30 1 C 7.53983 1.21016 -1.88836 0
M  V30 2 O 7.63893 0.220135 -0.927813 0
M  V30 3 C 6.50987 -0.552296 -0.781536 0
M  V30 4 C 5.34749 0.318906 -0.37691 0
M  V30 5 O 4.25125 -0.540618 -0.2425 0
M  V30 6 C 3.10126 0.147228 0.132182 0
M  V30 7 C 2.135 0.035081 -1.03857 0
M  V30 8 C 0.738063 0.452439 -0.63655 0
M  V30 9 N 0.259911 -0.449323 0.385109 0
M  V30 10 C 1.22821 -1.18143 1.15211 0
M  V30 11 C 2.49557 -0.357588 1.40431 0
M  V30 12 C -1.11528 -0.607778 0.62411 0
M  V30 13 C -2.03149 0.0950014 -0.111821 0
M  V30 14 C -3.36647 -0.0918965 0.156731 0
M  V30 15 N -3.76652 -0.945813 1.12075 0
M  V30 16 C -2.85491 -1.64162 1.84918 0
M  V30 17 N -1.57094 -1.44531 1.57255 0
M  V30 18 N -3.27075 -2.55001 2.87427 0
M  V30 19 C -4.41891 0.632505 -0.596779 0
M  V30 20 C -5.34976 1.34867 0.359366 0
M  V30 21 C -6.36895 0.258621 0.148395 0
M  V30 22 C -5.58537 -0.227299 -1.02733 0
M  V30 23 N -7.65898 0.848472 -0.173991 0
M  V30 24 H 8.54157 1.74355 -1.91911 0
M  V30 25 H 6.78009 1.97995 -1.57322 0
M  V30 26 H 7.31843 0.793621 -2.87993 0
M  V30 27 H 6.73321 -1.25353 0.0728421 0
M  V30 28 H 6.29472 -1.13383 -1.70501 0
M  V30 29 H 5.62336 0.816763 0.573883 0
M  V30 30 H 5.09809 1.02831 -1.19463 0
M  V30 31 H 3.30626 1.25121 0.245701 0
M  V30 32 H 2.08944 -1.0514 -1.29091 0
M  V30 33 H 2.529 0.622851 -1.86617 0
M  V30 34 H 0.0995796 0.322708 -1.53599 0
M  V30 35 H 0.686296 1.50952 -0.33352 0
M  V30 36 H 1.51932 -2.14863 0.652081 0
M  V30 37 H 0.847925 -1.46006 2.16793 0
M  V30 38 H 2.184 0.47623 2.08548 0
M  V30 39 H 3.16357 -0.997854 1.99993 0
M  V30 40 H -1.77943 0.78977 -0.892798 0
M  V30 41 H -2.71546 -3.4073 3.06659 0
M  V30 42 H -4.12093 -2.36193 3.42776 0
M  V30 43 H -4.02693 1.3106 -1.36547 0
M  V30 44 H -5.65111 2.35915 0.0479187 0
M  V30 45 H -5.01297 1.32514 1.42692 0
M  V30 46 H -6.40337 -0.501682 0.948412 0
M  V30 47 H -5.97636 0.150865 -2.0059 0
M  V30 48 H -5.40819 -1.30418 -1.05725 0
M  V30 49 H -7.91159 0.699588 -1.16644 0
M  V30 50 H -7.69554 1.86212 0.0940069 0
M  V30 END ATOM
M  V30 BEGIN BOND
M  V30 1 1 1 2
M  V30 2 1 2 3
M  V30 3 1 3 4
M  V30 4 1 4 5
M  V30 5 1 5 6
M  V30 6 1 6 7
M  V30 7 1 7 8
M  V30 8 1 8 9
M  V30 9 1 9 10
M  V30 10 1 10 11
M  V30 11 1 9 12
M  V30 12 2 12 13
M  V30 13 1 13 14
M  V30 14 2 14 15
M  V30 15 1 15 16
M  V30 16 2 16 17
M  V30 17 1 16 18
M  V30 18 1 14 19
M  V30 19 1 19 20
M  V30 20 1 20 21
M  V30 21 1 21 22
M  V30 22 1 21 23
M  V30 23 1 11 6
M  V30 24 1 17 12
M  V30 25 1 22 19
M  V30 26 1 1 24
M  V30 27 1 1 25
M  V30 28 1 1 26
M  V30 29 1 3 27
M  V30 30 1 3 28
M  V30 31 1 4 29
M  V30 32 1 4 30
M  V30 33 1 6 31
M  V30 34 1 7 32
M  V30 35 1 7 33
M  V30 36 1 8 34
M  V30 37 1 8 35
M  V30 38 1 10 36
M  V30 39 1 10 37
M  V30 40 1 11 38
M  V30 41 1 11 39
M  V30 42 1 13 40
M  V30 43 1 18 41
M  V30 44 1 18 42
M  V30 45 1 19 43
M  V30 46 1 20 44
M  V30 47 1 20 45
M  V30 48 1 21 46
M  V30 49 1 22 47
M  V30 50 1 22 48
M  V30 51 1 23 49
M  V30 52 1 23 50
M  V30 END BOND
M  V30 END CTAB
M  END
