
     RDKit          3D

  0  0  0  0  0  0  0  0  0  0999 V3000
M  V30 BEGIN CTAB
M  V30 COUNTS 31 31 0 0 0
M  V30 BEGIN ATOM
M  V30 1 N -2.9794 -2.11029 1.46593 0
M  V30 2 C -2.55616 -1.78011 0.128364 0
M  V30 3 C -1.78431 -0.498132 0.093275 0
M  V30 4 C -0.391776 -0.543504 0.257497 0
M  V30 5 C 0.35989 0.600087 0.232954 0
M  V30 6 C 1.8144 0.55247 0.426096 0
M  V30 7 N 2.41954 -0.715374 0.579364 0
M  V30 8 C 2.35617 -1.58481 -0.576314 0
M  V30 9 C 3.82793 -0.508805 0.87299 0
M  V30 10 C -0.329451 1.77514 0.040732 0
M  V30 11 C -1.70361 1.85967 -0.124921 0
M  V30 12 C -2.41948 0.678993 -0.0932017 0
M  V30 13 N -2.34516 3.11415 -0.319368 0
M  V30 14 O 0.407717 2.95795 0.0112885 0
M  V30 15 H -3.99146 -1.91364 1.63759 0
M  V30 16 H -2.77075 -3.11808 1.71457 0
M  V30 17 H -3.38655 -1.73839 -0.592316 0
M  V30 18 H -1.8861 -2.61336 -0.20675 0
M  V30 19 H -0.00554876 -1.52968 0.408691 0
M  V30 20 H 2.33252 1.15408 -0.365511 0
M  V30 21 H 2.01815 1.11367 1.39447 0
M  V30 22 H 3.33822 -1.70776 -1.073 0
M  V30 23 H 1.67196 -1.15098 -1.33741 0
M  V30 24 H 2.04053 -2.60278 -0.262712 0
M  V30 25 H 4.31493 -0.287093 -0.11338 0
M  V30 26 H 4.28561 -1.46628 1.21127 0
M  V30 27 H 4.00041 0.321797 1.56031 0
M  V30 28 H -3.49807 0.753949 -0.224361 0
M  V30 29 H -2.00154 3.73391 -1.06134 0
M  V30 30 H -3.13443 3.38447 0.275352 0
M  V30 31 H -0.00419301 3.86871 -0.123578 0
M  V30 END ATOM
M  V30 BEGIN BOND
M  V30 1 1 1 2
M  V30 2 1 2 3
M  V30 3 2 3 4
M  V30 4 1 4 5
M  V30 5 1 5 6
M  V30 6 1 6 7
M  V30 7 1 7 8
M  V30 8 1 7 9
M  V30 9 2 5 10
M  V30 10 1 10 11
M  V30 11 2 11 12
M  V30 12 1 11 13
M  V30 13 1 10 14
M  V30 14 1 12 3
M  V30 15 1 1 15
M  V30 16 1 1 16
M  V30 17 1 2 17
M  V30 18 1 2 18
M  V30 19 1 4 19
M  V30 20 1 6 20
M  V30 21 1 6 21
M  V30 22 1 8 22
M  V30 23 1 8 23
M  V30 24 1 8 24
M  V30 25 1 9 25
M  V30 26 1 9 26
M  V30 27 1 9 27
M  V30 28 1 12 28
M  V30 29 1 13 29
M  V30 30 1 13 30
M  V30 31 1 14 31
M  V30 END BOND
M  V30 END CTAB
M  END
