
     RDKit          3D

  0  0  0  0  0  0  0  0  0  0999 V3000
M  V30 BEGIN CTAB
M  V30 COUNTS 20 19 0 0 0
M  V30 BEGIN ATOM
M  V30 1 C -2.39065 -0.240468 1.20595 0
M  V30 2 N -1.37409 -0.0666338 0.173803 0
M  V30 3 C -1.58396 0.876968 -0.878518 0
M  V30 4 C -0.177312 -0.823475 0.200843 0
M  V30 5 N -0.230646 -2.00206 -0.297468 0
M  V30 6 N 0.959373 -0.253826 0.754863 0
M  V30 7 C 2.02543 0.112493 0.148038 0
M  V30 8 N 3.06831 0.674406 0.919858 0
M  V30 9 N 2.22265 -0.0112537 -1.24904 0
M  V30 10 H -2.06445 -0.976256 1.96678 0
M  V30 11 H -3.31244 -0.559308 0.678355 0
M  V30 12 H -2.61676 0.708456 1.72035 0
M  V30 13 H -0.685927 1.43901 -1.1732 0
M  V30 14 H -2.34128 1.63001 -0.567851 0
M  V30 15 H -1.94186 0.324423 -1.77039 0
M  V30 16 H -1.09516 -2.41176 -0.709179 0
M  V30 17 H 3.05973 1.65931 1.23388 0
M  V30 18 H 3.87765 0.0891786 1.18817 0
M  V30 19 H 2.18367 0.79037 -1.91068 0
M  V30 20 H 2.41774 -0.959581 -1.63457 0
M  V30 END ATOM
M  V30 BEGIN BOND
M  V30 1 1 1 2
M  V30 2 1 2 3
M  V30 3 1 2 4
M  V30 4 2 4 5
M  V30 5 1 4 6
M  V30 6 2 6 7
M  V30 7 1 7 8
M  V30 8 1 7 9
M  V30 9 1 1 10
M  V30 10 1 1 11
M  V30 11 1 1 12
M  V30 12 1 3 13
M  V30 13 1 3 14
M  V30 14 1 3 15
M  V30 15 1 5 16
M  V30 16 1 8 17
M  V30 17 1 8 18
M  V30 18 1 9 19
M  V30 19 1 9 20
M  V30 END BOND
M  V30 END CTAB
M  END
