
     RDKit          3D

  0  0  0  0  0  0  0  0  0  0999 V3000
M  V30 BEGIN CTAB
M  V30 COUNTS 22 22 0 0 0
M  V30 BEGIN ATOM
M  V30 1 C 3.93614 0.872315 -0.260277 0
M  V30 2 O 2.5258 0.88793 -0.202484 0
M  V30 3 C 1.73637 -0.228875 -0.206651 0
M  V30 4 O 2.2497 -1.35125 -0.263907 0
M  V30 5 C 0.274893 -0.0326632 -0.140947 0
M  V30 6 C -0.292803 1.20099 -0.0778636 0
M  V30 7 C -1.6645 1.34202 -0.0176001 0
M  V30 8 I -2.52525 3.2475 0.079157 0
M  V30 9 C -2.47652 0.216719 -0.0211525 0
M  V30 10 C -1.87891 -1.01388 -0.0853455 0
M  V30 11 C -0.510109 -1.15781 -0.145586 0
M  V30 12 N 0.0805474 -2.44848 -0.21147 0
M  V30 13 N -3.88685 0.412656 0.0424978 0
M  V30 14 H 4.34257 0.799981 -1.2665 0
M  V30 15 H 4.28666 1.84871 0.161946 0
M  V30 16 H 4.27534 0.065713 0.428625 0
M  V30 17 H 0.345965 2.07745 -0.075333 0
M  V30 18 H -2.52488 -1.893 -0.0876411 0
M  V30 19 H 0.252956 -2.87504 -1.13856 0
M  V30 20 H 0.332191 -2.9493 0.653359 0
M  V30 21 H -4.46331 0.573545 -0.81563 0
M  V30 22 H -4.416 0.404767 0.956891 0
M  V30 END ATOM
M  V30 BEGIN BOND
M  V30 1 1 1 2
M  V30 2 1 2 3
M  V30 3 2 3 4
M  V30 4 1 3 5
M  V30 5 2 5 6
M  V30 6 1 6 7
M  V30 7 1 7 8
M  V30 8 2 7 9
M  V30 9 1 9 10
M  V30 10 2 10 11
M  V30 11 1 11 12
M  V30 12 1 9 13
M  V30 13 1 11 5
M  V30 14 1 1 14
M  V30 15 1 1 15
M  V30 16 1 1 16
M  V30 17 1 6 17
M  V30 18 1 10 18
M  V30 19 1 12 19
M  V30 20 1 12 20
M  V30 21 1 13 21
M  V30 22 1 13 22
M  V30 END BOND
M  V30 END CTAB
M  END
