
     RDKit          3D

  0  0  0  0  0  0  0  0  0  0999 V3000
M  V30 BEGIN CTAB
M  V30 COUNTS 34 35 0 0 0
M  V30 BEGIN ATOM
M  V30 1 N -2.39726 -1.62815 -1.58162 0
M  V30 2 C -2.82261 -0.566569 -0.714069 0
M  V30 3 N -3.99088 0.0382588 -0.69347 0
M  V30 4 C -4.3259 0.998544 0.243669 0
M  V30 5 C -3.36105 1.30558 1.17938 0
M  V30 6 C -2.11406 0.681902 1.18192 0
M  V30 7 C -1.82086 -0.259124 0.238704 0
M  V30 8 C -0.487635 -0.778152 0.0924801 0 CFG=2
M  V30 9 C 0.0613631 -1.66795 1.17086 0
M  V30 10 O 1.11399 -2.37336 0.514443 0
M  V30 11 C 2.24309 -1.58835 0.512936 0
M  V30 12 C 2.34251 -0.761681 -0.721042 0
M  V30 13 N 1.49318 0.37547 -0.762915 0
M  V30 14 C 0.430725 0.502076 0.146479 0
M  V30 15 S 2.39848 1.85681 -0.92657 0
M  V30 16 O 3.38085 1.67803 -2.02449 0
M  V30 17 O 1.52295 3.02305 -0.98097 0
M  V30 18 N 3.34482 1.93518 0.544428 0
M  V30 19 H -2.05369 -1.41846 -2.51883 0
M  V30 20 H -2.41316 -2.64118 -1.30087 0
M  V30 21 H -5.32392 1.47205 0.220746 0
M  V30 22 H -3.58096 2.07985 1.92973 0
M  V30 23 H -1.43182 0.966999 1.97807 0
M  V30 24 H -0.330606 -1.20138 -0.896625 0
M  V30 25 H -0.71097 -2.48947 1.35281 0
M  V30 26 H 0.470423 -1.24867 2.05606 0
M  V30 27 H 2.42414 -1.06763 1.48564 0
M  V30 28 H 3.11231 -2.31032 0.460479 0
M  V30 29 H 3.3935 -0.383189 -0.910786 0
M  V30 30 H 2.12912 -1.41703 -1.58537 0
M  V30 31 H 0.791417 0.573395 1.18973 0
M  V30 32 H -0.142467 1.40903 -0.111901 0
M  V30 33 H 3.98627 2.7765 0.494038 0
M  V30 34 H 2.6687 2.12793 1.35398 0
M  V30 END ATOM
M  V30 BEGIN BOND
M  V30 1 1 1 2
M  V30 2 2 2 3
M  V30 3 1 3 4
M  V30 4 2 4 5
M  V30 5 1 5 6
M  V30 6 2 6 7
M  V30 7 1 7 8
M  V30 8 1 8 9
M  V30 9 1 9 10
M  V30 10 1 10 11
M  V30 11 1 11 12
M  V30 12 1 12 13
M  V30 13 1 13 14
M  V30 14 1 13 15
M  V30 15 2 15 16
M  V30 16 2 15 17
M  V30 17 1 15 18
M  V30 18 1 7 2
M  V30 19 1 14 8
M  V30 20 1 1 19
M  V30 21 1 1 20
M  V30 22 1 4 21
M  V30 23 1 5 22
M  V30 24 1 6 23
M  V30 25 1 8 24 CFG=3
M  V30 26 1 9 25
M  V30 27 1 9 26
M  V30 28 1 11 27
M  V30 29 1 11 28
M  V30 30 1 12 29
M  V30 31 1 12 30
M  V30 32 1 14 31
M  V30 33 1 14 32
M  V30 34 1 18 33
M  V30 35 1 18 34
M  V30 END BOND
M  V30 END CTAB
M  END
