
     RDKit          3D

  0  0  0  0  0  0  0  0  0  0999 V3000
M  V30 BEGIN CTAB
M  V30 COUNTS 31 31 0 0 0
M  V30 BEGIN ATOM
M  V30 1 O -4.35793 1.14851 1.37138 0
M  V30 2 C -3.57584 0.137891 0.792581 0
M  V30 3 C -2.1313 0.526496 1.05185 0
M  V30 4 C -1.16558 -0.495104 0.470749 0
M  V30 5 C -1.4121 -0.552401 -1.00582 0
M  V30 6 C -0.404785 -1.31744 -1.77963 0
M  V30 7 C 0.992292 -1.23124 -1.2865 0
M  V30 8 N 1.20196 -0.351779 -0.184242 0
M  V30 9 C 0.219608 -0.0734558 0.841435 0
M  V30 10 C 2.45844 0.305075 -0.0707569 0
M  V30 11 N 3.56129 -0.359624 -0.0468862 0
M  V30 12 N 4.77799 0.289379 0.0637999 0
M  V30 13 N 2.48993 1.72313 0.0175915 0
M  V30 14 H -3.93892 1.30523 2.27514 0
M  V30 15 H -3.85624 -0.816202 1.2547 0
M  V30 16 H -3.81707 0.167565 -0.307753 0
M  V30 17 H -1.9897 1.51858 0.57742 0
M  V30 18 H -2.00108 0.649992 2.12704 0
M  V30 19 H -1.3402 -1.50218 0.881358 0
M  V30 20 H -2.41334 -1.05343 -1.14274 0
M  V30 21 H -1.45724 0.494517 -1.38266 0
M  V30 22 H -0.499585 -1.00106 -2.86012 0
M  V30 23 H -0.717215 -2.39254 -1.78521 0
M  V30 24 H 1.64176 -0.927334 -2.15521 0
M  V30 25 H 1.39401 -2.24253 -0.982994 0
M  V30 26 H 0.551995 -0.50051 1.8165 0
M  V30 27 H 0.234961 1.03886 0.993384 0
M  V30 28 H 4.96848 1.25948 -0.272277 0
M  V30 29 H 5.57879 -0.217723 0.516817 0
M  V30 30 H 2.47364 2.35547 -0.792507 0
M  V30 31 H 2.53297 2.11437 1.00357 0
M  V30 END ATOM
M  V30 BEGIN BOND
M  V30 1 1 1 2
M  V30 2 1 2 3
M  V30 3 1 3 4
M  V30 4 1 4 5
M  V30 5 1 5 6
M  V30 6 1 6 7
M  V30 7 1 7 8
M  V30 8 1 8 9
M  V30 9 1 8 10
M  V30 10 2 10 11 CFG=2
M  V30 11 1 11 12
M  V30 12 1 10 13
M  V30 13 1 9 4
M  V30 14 1 1 14
M  V30 15 1 2 15
M  V30 16 1 2 16
M  V30 17 1 3 17
M  V30 18 1 3 18
M  V30 19 1 4 19
M  V30 20 1 5 20
M  V30 21 1 5 21
M  V30 22 1 6 22
M  V30 23 1 6 23
M  V30 24 1 7 24
M  V30 25 1 7 25
M  V30 26 1 9 26
M  V30 27 1 9 27
M  V30 28 1 12 28
M  V30 29 1 12 29
M  V30 30 1 13 30
M  V30 31 1 13 31
M  V30 END BOND
M  V30 END CTAB
M  END
