
     RDKit          3D

  0  0  0  0  0  0  0  0  0  0999 V3000
M  V30 BEGIN CTAB
M  V30 COUNTS 32 33 0 0 0
M  V30 BEGIN ATOM
M  V30 1 N 4.84223 0.119348 -0.131077 0
M  V30 2 C 3.49884 -0.077168 0.261377 0
M  V30 3 N 3.17765 -0.354597 1.5462 0
M  V30 4 N 1.88064 -0.482034 1.60314 0
M  V30 5 C 1.30927 -0.300329 0.398988 0
M  V30 6 C 2.34672 -0.0395381 -0.467593 0
M  V30 7 C -0.136803 -0.384294 0.162044 0 CFG=2
M  V30 8 C -0.392831 -1.68638 -0.595402 0
M  V30 9 C -1.66343 -2.33765 -0.138523 0
M  V30 10 O -2.80571 -1.70987 -0.585863 0
M  V30 11 C -2.84078 -0.360025 -0.314444 0
M  V30 12 C -1.91881 0.420421 -1.20356 0
M  V30 13 N -0.637847 0.680887 -0.662076 0
M  V30 14 S -0.551861 2.22171 0.0821669 0
M  V30 15 O -1.17215 3.21977 -0.863015 0
M  V30 16 O 0.822724 2.61902 0.459338 0
M  V30 17 N -1.51906 2.26518 1.53547 0
M  V30 18 H 5.31308 -0.60973 -0.68596 0
M  V30 19 H 5.35615 0.973256 0.126066 0
M  V30 20 H 1.3799 -0.703682 2.51642 0
M  V30 21 H 2.24088 0.152529 -1.50935 0
M  V30 22 H -0.657612 -0.48188 1.12227 0
M  V30 23 H -0.416463 -1.53733 -1.68499 0
M  V30 24 H 0.444062 -2.40947 -0.392923 0
M  V30 25 H -1.64377 -2.47665 0.973816 0
M  V30 26 H -1.66911 -3.37296 -0.556279 0
M  V30 27 H -2.68591 -0.12988 0.768146 0
M  V30 28 H -3.88405 -0.0129691 -0.533298 0
M  V30 29 H -1.8182 -0.133756 -2.16096 0
M  V30 30 H -2.3964 1.41529 -1.44448 0
M  V30 31 H -1.27 3.15329 2.02535 0
M  V30 32 H -2.53133 2.35948 1.22753 0
M  V30 END ATOM
M  V30 BEGIN BOND
M  V30 1 1 1 2
M  V30 2 2 2 3
M  V30 3 1 3 4
M  V30 4 1 4 5
M  V30 5 2 5 6
M  V30 6 1 5 7
M  V30 7 1 7 8
M  V30 8 1 8 9
M  V30 9 1 9 10
M  V30 10 1 10 11
M  V30 11 1 11 12
M  V30 12 1 12 13
M  V30 13 1 13 14
M  V30 14 2 14 15
M  V30 15 2 14 16
M  V30 16 1 14 17
M  V30 17 1 6 2
M  V30 18 1 13 7
M  V30 19 1 1 18
M  V30 20 1 1 19
M  V30 21 1 4 20
M  V30 22 1 6 21
M  V30 23 1 7 22 CFG=1
M  V30 24 1 8 23
M  V30 25 1 8 24
M  V30 26 1 9 25
M  V30 27 1 9 26
M  V30 28 1 11 27
M  V30 29 1 11 28
M  V30 30 1 12 29
M  V30 31 1 12 30
M  V30 32 1 17 31
M  V30 33 1 17 32
M  V30 END BOND
M  V30 END CTAB
M  END
