
     RDKit          3D

  0  0  0  0  0  0  0  0  0  0999 V3000
M  V30 BEGIN CTAB
M  V30 COUNTS 50 52 0 0 0
M  V30 BEGIN ATOM
M  V30 1 N -1.42503 5.82305 -1.14573 0
M  V30 2 C -0.639845 4.69076 -0.719621 0
M  V30 3 C -1.47093 3.45849 -0.504693 0
M  V30 4 N -2.16334 3.05264 -1.72094 0
M  V30 5 C -0.677983 2.29643 -0.0712599 0
M  V30 6 C -1.25653 1.04909 -0.0607542 0
M  V30 7 C -0.569695 -0.0792983 0.332216 0
M  V30 8 O -1.08628 -1.35675 0.367036 0
M  V30 9 C -2.41509 -1.53393 -0.0265058 0
M  V30 10 C -2.89975 -2.90192 0.0325191 0
M  V30 11 C -4.19265 -3.17262 -0.336549 0
M  V30 12 C -4.72641 -4.45098 -0.307087 0
M  V30 13 C -3.91402 -5.47925 0.111588 0
M  V30 14 C -2.61303 -5.23487 0.487334 0
M  V30 15 C -2.10977 -3.94101 0.445757 0
M  V30 16 C 0.761281 0.0956828 0.726751 0
M  V30 17 O 1.45056 -1.02808 1.11766 0
M  V30 18 C 2.76966 -1.11345 1.52339 0
M  V30 19 C 3.68554 -0.707753 0.41813 0
M  V30 20 C 4.94928 -0.282888 0.730979 0
M  V30 21 C 5.81165 0.0819813 -0.274912 0
M  V30 22 C 5.42042 0.026312 -1.60599 0
M  V30 23 C 4.1444 -0.402785 -1.92017 0
M  V30 24 C 3.301 -0.762002 -0.897807 0
M  V30 25 C 1.34909 1.33982 0.720145 0
M  V30 26 C 0.623034 2.45597 0.316386 0
M  V30 27 H -0.884783 6.53727 -1.64736 0
M  V30 28 H -2.0591 6.19855 -0.428793 0
M  V30 29 H -0.22385 4.97386 0.291516 0
M  V30 30 H 0.206333 4.57499 -1.39059 0
M  V30 31 H -2.22651 3.69222 0.268239 0
M  V30 32 H -1.60682 2.45129 -2.33141 0
M  V30 33 H -3.13903 2.78142 -1.56413 0
M  V30 34 H -2.2903 0.896033 -0.364529 0
M  V30 35 H -2.53413 -1.10613 -1.03695 0
M  V30 36 H -3.04731 -0.892212 0.648064 0
M  V30 37 H -4.87041 -2.3741 -0.676594 0
M  V30 38 H -5.75171 -4.59955 -0.610079 0
M  V30 39 H -4.35699 -6.46937 0.125005 0
M  V30 40 H -2.00761 -6.07454 0.810784 0
M  V30 41 H -1.08281 -3.80898 0.75185 0
M  V30 42 H 2.99704 -2.16656 1.84561 0
M  V30 43 H 2.97388 -0.43597 2.3798 0
M  V30 44 H 5.30501 -0.220965 1.75756 0
M  V30 45 H 6.80779 0.419727 -0.0746997 0
M  V30 46 H 6.09315 0.311763 -2.40409 0
M  V30 47 H 3.81266 -0.455125 -2.96534 0
M  V30 48 H 2.28964 -1.10217 -1.14564 0
M  V30 49 H 2.39131 1.5078 1.03555 0
M  V30 50 H 1.09898 3.4381 0.313751 0
M  V30 END ATOM
M  V30 BEGIN BOND
M  V30 1 1 1 2
M  V30 2 1 2 3
M  V30 3 1 3 4
M  V30 4 1 3 5
M  V30 5 2 5 6
M  V30 6 1 6 7
M  V30 7 1 7 8
M  V30 8 1 8 9
M  V30 9 1 9 10
M  V30 10 2 10 11
M  V30 11 1 11 12
M  V30 12 2 12 13
M  V30 13 1 13 14
M  V30 14 2 14 15
M  V30 15 2 7 16
M  V30 16 1 16 17
M  V30 17 1 17 18
M  V30 18 1 18 19
M  V30 19 2 19 20
M  V30 20 1 20 21
M  V30 21 2 21 22
M  V30 22 1 22 23
M  V30 23 2 23 24
M  V30 24 1 16 25
M  V30 25 2 25 26
M  V30 26 1 26 5
M  V30 27 1 15 10
M  V30 28 1 24 19
M  V30 29 1 1 27
M  V30 30 1 1 28
M  V30 31 1 2 29
M  V30 32 1 2 30
M  V30 33 1 3 31
M  V30 34 1 4 32
M  V30 35 1 4 33
M  V30 36 1 6 34
M  V30 37 1 9 35
M  V30 38 1 9 36
M  V30 39 1 11 37
M  V30 40 1 12 38
M  V30 41 1 13 39
M  V30 42 1 14 40
M  V30 43 1 15 41
M  V30 44 1 18 42
M  V30 45 1 18 43
M  V30 46 1 20 44
M  V30 47 1 21 45
M  V30 48 1 22 46
M  V30 49 1 23 47
M  V30 50 1 24 48
M  V30 51 1 25 49
M  V30 52 1 26 50
M  V30 END BOND
M  V30 END CTAB
M  END
