
     RDKit          3D

  0  0  0  0  0  0  0  0  0  0999 V3000
M  V30 BEGIN CTAB
M  V30 COUNTS 56 59 0 0 0
M  V30 BEGIN ATOM
M  V30 1 N 6.7884 0.16651 0.451961 0
M  V30 2 C 6.74137 0.329348 -0.955054 0 CFG=1
M  V30 3 C 5.8765 1.51158 -1.30485 0
M  V30 4 C 4.51515 1.20979 -0.744871 0
M  V30 5 C 3.57242 0.524596 -1.48073 0
M  V30 6 C 2.32091 0.258279 -0.939878 0
M  V30 7 C 1.95725 0.652907 0.332384 0
M  V30 8 C 2.91953 1.33765 1.04806 0
M  V30 9 C 4.17053 1.61115 0.524307 0
M  V30 10 C 0.642442 0.360908 0.913152 0
M  V30 11 N 0.41295 0.871013 2.14693 0
M  V30 12 C -0.744735 0.652326 2.76207 0
M  V30 13 N -1.05977 1.16169 4.05203 0
M  V30 14 N -1.65283 -0.0757289 2.12765 0
M  V30 15 C -1.52958 -0.620751 0.92208 0
M  V30 16 O -2.45583 -1.37673 0.251279 0
M  V30 17 C -3.74536 -1.73588 0.695837 0
M  V30 18 C -4.71479 -1.67632 -0.374543 0
M  V30 19 C -5.309 -2.82793 -0.848589 0
M  V30 20 C -6.23996 -2.79355 -1.87961 0
M  V30 21 C -6.59074 -1.59745 -2.45261 0
M  V30 22 C -5.99411 -0.467303 -1.97123 0
M  V30 23 C -5.04875 -0.456912 -0.931074 0
M  V30 24 N -4.51991 0.790388 -0.513543 0
M  V30 25 C -3.77351 1.61104 -1.24416 0
M  V30 26 N -3.49114 2.70496 -0.500429 0
M  V30 27 C -4.08966 2.52414 0.707902 0
M  V30 28 N -4.69956 1.34955 0.64884 0
M  V30 29 C -3.56187 -3.07338 1.38626 0
M  V30 30 F -3.04059 -4.05796 0.62101 0
M  V30 31 F -4.7405 -3.52181 1.97642 0
M  V30 32 F -2.69982 -2.89503 2.48016 0
M  V30 33 C -0.313009 -0.395076 0.26593 0
M  V30 34 C 8.10461 0.580384 -1.48992 0
M  V30 35 O 8.34372 0.825451 -2.82879 0
M  V30 36 O 9.08538 0.571515 -0.700232 0
M  V30 37 H 6.136 -0.46835 0.814318 0
M  V30 38 H 7.59497 0.364205 0.943264 0
M  V30 39 H 6.3705 -0.616534 -1.39838 0
M  V30 40 H 6.30877 2.41562 -0.819323 0
M  V30 41 H 5.82609 1.7079 -2.38237 0
M  V30 42 H 3.86266 0.217239 -2.47618 0
M  V30 43 H 1.62659 -0.277984 -1.56321 0
M  V30 44 H 2.64178 1.65363 2.05499 0
M  V30 45 H 4.9196 2.14439 1.08829 0
M  V30 46 H -0.722096 2.12125 4.26599 0
M  V30 47 H -1.59288 0.658299 4.78484 0
M  V30 48 H -4.02019 -0.988598 1.50826 0
M  V30 49 H -5.10289 -3.83278 -0.452419 0
M  V30 50 H -6.68309 -3.731 -2.22245 0
M  V30 51 H -7.31426 -1.59906 -3.24875 0
M  V30 52 H -6.24977 0.506928 -2.40938 0
M  V30 53 H -3.44485 1.45006 -2.25059 0
M  V30 54 H -4.04527 3.23698 1.52837 0
M  V30 55 H -0.113975 -0.787214 -0.700234 0
M  V30 56 H 8.56618 1.79166 -3.06267 0
M  V30 END ATOM
M  V30 BEGIN BOND
M  V30 1 1 1 2
M  V30 2 1 2 3
M  V30 3 1 3 4
M  V30 4 2 4 5
M  V30 5 1 5 6
M  V30 6 2 6 7
M  V30 7 1 7 8
M  V30 8 2 8 9
M  V30 9 1 7 10
M  V30 10 2 10 11
M  V30 11 1 11 12
M  V30 12 1 12 13
M  V30 13 2 12 14
M  V30 14 1 14 15
M  V30 15 1 15 16
M  V30 16 1 16 17
M  V30 17 1 17 18
M  V30 18 2 18 19
M  V30 19 1 19 20
M  V30 20 2 20 21
M  V30 21 1 21 22
M  V30 22 2 22 23
M  V30 23 1 23 24
M  V30 24 1 24 25
M  V30 25 2 25 26
M  V30 26 1 26 27
M  V30 27 2 27 28
M  V30 28 1 17 29
M  V30 29 1 29 30
M  V30 30 1 29 31
M  V30 31 1 29 32
M  V30 32 2 15 33
M  V30 33 1 2 34
M  V30 34 1 34 35
M  V30 35 2 34 36
M  V30 36 1 9 4
M  V30 37 1 33 10
M  V30 38 1 23 18
M  V30 39 1 28 24
M  V30 40 1 1 37
M  V30 41 1 1 38
M  V30 42 1 2 39 CFG=3
M  V30 43 1 3 40
M  V30 44 1 3 41
M  V30 45 1 5 42
M  V30 46 1 6 43
M  V30 47 1 8 44
M  V30 48 1 9 45
M  V30 49 1 13 46
M  V30 50 1 13 47
M  V30 51 1 17 48
M  V30 52 1 19 49
M  V30 53 1 20 50
M  V30 54 1 21 51
M  V30 55 1 22 52
M  V30 56 1 25 53
M  V30 57 1 27 54
M  V30 58 1 33 55
M  V30 59 1 35 56
M  V30 END BOND
M  V30 END CTAB
M  END
