
     RDKit          3D

  0  0  0  0  0  0  0  0  0  0999 V3000
M  V30 BEGIN CTAB
M  V30 COUNTS 57 60 0 0 0
M  V30 BEGIN ATOM
M  V30 1 C 0.654889 -0.783607 2.65371 0 CFG=1
M  V30 2 S 0.366507 0.74543 1.74274 0
M  V30 3 C -0.943109 0.385463 0.636668 0
M  V30 4 C -1.80083 -0.783869 0.816111 0
M  V30 5 C -3.10953 -0.787266 0.171615 0
M  V30 6 N -4.08372 0.155224 0.581166 0 CHG=1
M  V30 7 C -4.90554 0.000922232 1.66852 0
M  V30 8 C -5.79354 1.04313 1.71698 0
M  V30 9 C -5.51451 1.84242 0.65172 0
M  V30 10 N -6.16481 3.03405 0.262197 0
M  V30 11 N -4.47186 1.25573 -0.00298075 0
M  V30 12 C -3.94752 1.83447 -1.25041 0
M  V30 13 C -4.66488 1.24762 -2.45875 0
M  V30 14 O -6.03215 1.50024 -2.3863 0
M  V30 15 C -1.33151 -1.84888 1.46469 0
M  V30 16 N 0.0273683 -1.81026 1.95949 0
M  V30 17 C 1.19558 -2.54493 2.02834 0
M  V30 18 O 1.50652 -3.76088 1.77228 0
M  V30 19 C 1.96331 -1.3889 2.51656 0 CFG=1
M  V30 20 N 2.82013 -0.804955 1.54055 0
M  V30 21 C 3.85756 -1.48823 0.879185 0
M  V30 22 O 3.9659 -2.75321 1.16855 0
M  V30 23 C 4.81379 -0.972458 -0.0450909 0
M  V30 24 N 5.56129 -1.82671 -0.713017 0
M  V30 25 O 6.48936 -1.29992 -1.61592 0
M  V30 26 C 6.43137 -1.88461 -2.91351 0
M  V30 27 C 5.11514 0.47476 -0.272989 0
M  V30 28 C 4.81763 1.4362 0.687486 0
M  V30 29 S 5.31893 2.88532 -0.0997803 0
M  V30 30 C 5.86316 2.18561 -1.57076 0
M  V30 31 N 6.42684 2.84495 -2.72957 0
M  V30 32 N 5.63328 0.908432 -1.37535 0
M  V30 33 C -2.12228 -3.02682 1.73683 0
M  V30 34 O -3.43667 -3.3099 1.44789 0 CHG=-1
M  V30 35 O -1.48232 -3.9954 2.36468 0
M  V30 36 H 0.330124 -0.660316 3.67608 0
M  V30 37 H -0.545095 0.41388 -0.434585 0
M  V30 38 H -1.64268 1.30824 0.674549 0
M  V30 39 H -2.85581 -0.570535 -0.961608 0
M  V30 40 H -3.56995 -1.77472 0.0790894 0
M  V30 41 H -4.90974 -0.787296 2.40579 0
M  V30 42 H -6.57916 1.23589 2.43488 0
M  V30 43 H -5.66142 3.92363 0.106999 0
M  V30 44 H -7.19989 3.00892 0.118276 0
M  V30 45 H -4.14438 2.93949 -1.25202 0
M  V30 46 H -2.88193 1.62825 -1.29484 0
M  V30 47 H -4.28252 1.77994 -3.35693 0
M  V30 48 H -4.50275 0.172356 -2.58012 0
M  V30 49 H -6.47491 0.847684 -3.00853 0
M  V30 50 H 2.46517 -1.64598 3.4908 0
M  V30 51 H 2.57628 0.219376 1.31161 0
M  V30 52 H 5.40665 -1.73973 -3.36893 0
M  V30 53 H 7.15712 -1.47192 -3.6166 0
M  V30 54 H 6.58807 -2.99576 -2.87355 0
M  V30 55 H 4.40658 1.31574 1.7041 0
M  V30 56 H 6.17619 3.78833 -3.017 0
M  V30 57 H 7.12027 2.2978 -3.27099 0
M  V30 END ATOM
M  V30 BEGIN BOND
M  V30 1 1 1 2
M  V30 2 1 2 3
M  V30 3 1 3 4
M  V30 4 1 4 5
M  V30 5 1 5 6
M  V30 6 2 6 7
M  V30 7 1 7 8
M  V30 8 2 8 9
M  V30 9 1 9 10
M  V30 10 1 9 11
M  V30 11 1 11 12
M  V30 12 1 12 13
M  V30 13 1 13 14
M  V30 14 2 4 15
M  V30 15 1 15 16
M  V30 16 1 16 17
M  V30 17 2 17 18
M  V30 18 1 17 19
M  V30 19 1 19 20
M  V30 20 1 20 21
M  V30 21 2 21 22
M  V30 22 1 21 23
M  V30 23 2 23 24
M  V30 24 1 24 25
M  V30 25 1 25 26
M  V30 26 1 23 27
M  V30 27 2 27 28
M  V30 28 1 28 29
M  V30 29 1 29 30
M  V30 30 1 30 31
M  V30 31 2 30 32
M  V30 32 1 15 33
M  V30 33 1 33 34
M  V30 34 2 33 35
M  V30 35 1 16 1
M  V30 36 1 32 27
M  V30 37 1 19 1
M  V30 38 1 11 6
M  V30 39 1 1 36 CFG=1
M  V30 40 1 3 37
M  V30 41 1 3 38
M  V30 42 1 5 39
M  V30 43 1 5 40
M  V30 44 1 7 41
M  V30 45 1 8 42
M  V30 46 1 10 43
M  V30 47 1 10 44
M  V30 48 1 12 45
M  V30 49 1 12 46
M  V30 50 1 13 47
M  V30 51 1 13 48
M  V30 52 1 14 49
M  V30 53 1 19 50 CFG=1
M  V30 54 1 20 51
M  V30 55 1 26 52
M  V30 56 1 26 53
M  V30 57 1 26 54
M  V30 58 1 28 55
M  V30 59 1 31 56
M  V30 60 1 31 57
M  V30 END BOND
M  V30 END CTAB
M  END
