
     RDKit          3D

  0  0  0  0  0  0  0  0  0  0999 V3000
M  V30 BEGIN CTAB
M  V30 COUNTS 24 25 0 0 0
M  V30 BEGIN ATOM
M  V30 1 N -3.22487 0.509799 1.5188 0
M  V30 2 C -2.90457 0.725972 0.125725 0
M  V30 3 C -1.65645 0.0410432 -0.277597 0
M  V30 4 C -1.62235 -1.24379 -0.768251 0
M  V30 5 C -0.436364 -1.86647 -1.1408 0
M  V30 6 C 0.746181 -1.16411 -1.011 0
M  V30 7 C 0.753153 0.13493 -0.519697 0
M  V30 8 C -0.453108 0.705605 -0.164513 0
M  V30 9 N 1.98647 0.851922 -0.390241 0
M  V30 10 N 2.33618 1.98933 -0.962008 0
M  V30 11 N 3.54305 2.33288 -0.602062 0
M  V30 12 N 3.99377 1.42003 0.210576 0
M  V30 13 C 3.03864 0.481738 0.35981 0
M  V30 14 N 3.18004 -0.669139 1.17785 0
M  V30 15 H -4.22477 0.823675 1.64683 0
M  V30 16 H -3.15043 -0.472946 1.80665 0
M  V30 17 H -3.78235 0.380757 -0.46904 0
M  V30 18 H -2.84101 1.82437 -0.026738 0
M  V30 19 H -2.55086 -1.76982 -0.86052 0
M  V30 20 H -0.410761 -2.88369 -1.52907 0
M  V30 21 H 1.66398 -1.65153 -1.3014 0
M  V30 22 H -0.432771 1.72196 0.218168 0
M  V30 23 H 3.80311 -0.691612 2.01041 0
M  V30 24 H 2.6461 -1.53092 0.948123 0
M  V30 END ATOM
M  V30 BEGIN BOND
M  V30 1 1 1 2
M  V30 2 1 2 3
M  V30 3 2 3 4
M  V30 4 1 4 5
M  V30 5 2 5 6
M  V30 6 1 6 7
M  V30 7 2 7 8
M  V30 8 1 7 9
M  V30 9 1 9 10
M  V30 10 2 10 11
M  V30 11 1 11 12
M  V30 12 2 12 13
M  V30 13 1 13 14
M  V30 14 1 8 3
M  V30 15 1 13 9
M  V30 16 1 1 15
M  V30 17 1 1 16
M  V30 18 1 2 17
M  V30 19 1 2 18
M  V30 20 1 4 19
M  V30 21 1 5 20
M  V30 22 1 6 21
M  V30 23 1 8 22
M  V30 24 1 14 23
M  V30 25 1 14 24
M  V30 END BOND
M  V30 END CTAB
M  END
