
     RDKit          3D

  0  0  0  0  0  0  0  0  0  0999 V3000
M  V30 BEGIN CTAB
M  V30 COUNTS 53 56 0 0 0
M  V30 BEGIN ATOM
M  V30 1 N 7.7315 0.42977 -0.855847 0
M  V30 2 C 6.43528 0.0300437 -0.423203 0
M  V30 3 C 5.33308 0.459568 -1.08867 0
M  V30 4 C 4.06632 0.0542326 -0.646442 0
M  V30 5 C 3.8612 -0.761499 0.429917 0
M  V30 6 C 5.03946 -1.17372 1.07961 0
M  V30 7 C 6.28951 -0.788904 0.664724 0
M  V30 8 C 2.60227 -1.25727 0.911396 0
M  V30 9 O 2.6761 -1.85541 2.08182 0
M  V30 10 N 1.32301 -1.22395 0.37355 0
M  V30 11 C 0.821988 -0.738642 -0.862418 0
M  V30 12 C 0.0987606 0.594749 -0.600532 0
M  V30 13 C -0.569391 0.519513 0.779972 0
M  V30 14 C -0.999966 -0.929143 0.906992 0
M  V30 15 C 0.221524 -1.75145 1.24931 0
M  V30 16 O 0.464972 0.782085 1.69525 0
M  V30 17 C 0.544478 2.16518 1.68843 0
M  V30 18 C -0.887225 2.64177 1.53406 0
M  V30 19 N -1.49123 1.50574 0.932261 0
M  V30 20 S -3.08975 1.34357 1.33959 0
M  V30 21 O -3.28339 0.792802 2.76579 0
M  V30 22 O -3.78172 2.71881 1.44962 0
M  V30 23 C -4.10423 0.444119 0.239677 0
M  V30 24 C -4.49469 -0.847357 0.471788 0
M  V30 25 C -5.30432 -1.55037 -0.41636 0
M  V30 26 C -5.74892 -0.954847 -1.58472 0
M  V30 27 N -6.58515 -1.67485 -2.50632 0
M  V30 28 C -5.3614 0.338714 -1.82326 0
M  V30 29 C -4.56367 1.01815 -0.938999 0
M  V30 30 H 7.92223 1.37497 -1.25677 0
M  V30 31 H 8.53254 -0.230811 -0.777882 0
M  V30 32 H 5.40812 1.09415 -1.93466 0
M  V30 33 H 3.22853 0.442515 -1.18111 0
M  V30 34 H 4.98322 -1.81432 1.93352 0
M  V30 35 H 7.18279 -1.12979 1.19534 0
M  V30 36 H 0.0256264 -1.47093 -1.27684 0
M  V30 37 H 1.47794 -0.614016 -1.70901 0
M  V30 38 H -0.594629 0.74111 -1.41776 0
M  V30 39 H 0.884443 1.3669 -0.616597 0
M  V30 40 H -1.70238 -1.07474 1.75407 0
M  V30 41 H -1.48519 -1.23267 -0.0105843 0
M  V30 42 H 0.467312 -1.53364 2.30949 0
M  V30 43 H 0.0896564 -2.81852 1.0555 0
M  V30 44 H 0.882833 2.45008 2.72887 0
M  V30 45 H 1.23498 2.58649 0.960104 0
M  V30 46 H -0.953624 3.57126 0.940788 0
M  V30 47 H -1.31545 2.89531 2.53736 0
M  V30 48 H -4.17523 -1.35998 1.37004 0
M  V30 49 H -5.60283 -2.57808 -0.210925 0
M  V30 50 H -6.23663 -1.94617 -3.4336 0
M  V30 51 H -7.55979 -1.93001 -2.24012 0
M  V30 52 H -5.68708 0.827272 -2.7154 0
M  V30 53 H -4.25176 2.0522 -1.12606 0
M  V30 END ATOM
M  V30 BEGIN BOND
M  V30 1 1 1 2
M  V30 2 2 2 3
M  V30 3 1 3 4
M  V30 4 2 4 5
M  V30 5 1 5 6
M  V30 6 2 6 7
M  V30 7 1 5 8
M  V30 8 2 8 9
M  V30 9 1 8 10
M  V30 10 1 10 11
M  V30 11 1 11 12
M  V30 12 1 12 13
M  V30 13 1 13 14
M  V30 14 1 14 15
M  V30 15 1 13 16
M  V30 16 1 16 17
M  V30 17 1 17 18
M  V30 18 1 18 19
M  V30 19 1 19 20
M  V30 20 2 20 21
M  V30 21 2 20 22
M  V30 22 1 20 23
M  V30 23 2 23 24
M  V30 24 1 24 25
M  V30 25 2 25 26
M  V30 26 1 26 27
M  V30 27 1 26 28
M  V30 28 2 28 29
M  V30 29 1 7 2
M  V30 30 1 15 10
M  V30 31 1 29 23
M  V30 32 1 19 13
M  V30 33 1 1 30
M  V30 34 1 1 31
M  V30 35 1 3 32
M  V30 36 1 4 33
M  V30 37 1 6 34
M  V30 38 1 7 35
M  V30 39 1 11 36
M  V30 40 1 11 37
M  V30 41 1 12 38
M  V30 42 1 12 39
M  V30 43 1 14 40
M  V30 44 1 14 41
M  V30 45 1 15 42
M  V30 46 1 15 43
M  V30 47 1 17 44
M  V30 48 1 17 45
M  V30 49 1 18 46
M  V30 50 1 18 47
M  V30 51 1 24 48
M  V30 52 1 25 49
M  V30 53 1 27 50
M  V30 54 1 27 51
M  V30 55 1 28 52
M  V30 56 1 29 53
M  V30 END BOND
M  V30 END CTAB
M  END
