
     RDKit          3D

  0  0  0  0  0  0  0  0  0  0999 V3000
M  V30 BEGIN CTAB
M  V30 COUNTS 44 43 0 0 0
M  V30 BEGIN ATOM
M  V30 1 N 7.50022 0.305741 -0.507405 0
M  V30 2 C 6.18135 -0.0247825 0.0479172 0
M  V30 3 C 5.25528 1.05944 -0.395913 0
M  V30 4 C 3.8529 0.961724 0.0589052 0
M  V30 5 N 3.13855 -0.244877 -0.320918 0
M  V30 6 C 1.76357 -0.0304743 0.0690506 0
M  V30 7 C 0.849334 -1.19256 -0.0976269 0
M  V30 8 C -0.550859 -0.74 0.287796 0
M  V30 9 C -1.56347 -1.82304 0.240738 0
M  V30 10 N -2.87631 -1.2671 0.577261 0
M  V30 11 C -3.47887 -0.412777 -0.402596 0
M  V30 12 C -4.87428 -0.0051395 -0.028903 0
M  V30 13 C -5.44483 0.850531 -1.1383 0
M  V30 14 N -4.67238 2.02944 -1.37998 0
M  V30 15 N -3.50546 -1.54642 1.80308 0 CHG=1
M  V30 16 O -4.18893 -2.72826 1.92254 0 CHG=-1
M  V30 17 N -3.477 -0.771847 2.80544 0
M  V30 18 O -2.86686 0.429058 2.90312 0
M  V30 19 H 7.3515 0.676919 -1.48857 0
M  V30 20 H 7.95918 1.05268 0.0401523 0
M  V30 21 H 5.934 -1.02795 -0.380437 0
M  V30 22 H 6.26307 -0.0945088 1.13748 0
M  V30 23 H 5.66972 2.01444 0.0643231 0
M  V30 24 H 5.38997 1.22712 -1.48479 0
M  V30 25 H 3.86939 0.957887 1.18442 0
M  V30 26 H 3.29582 1.87433 -0.227938 0
M  V30 27 H 3.26502 -0.546137 -1.28363 0
M  V30 28 H 1.36305 0.888357 -0.387159 0
M  V30 29 H 1.79715 0.187626 1.18481 0
M  V30 30 H 1.11136 -2.00991 0.618002 0
M  V30 31 H 0.83045 -1.61965 -1.11419 0
M  V30 32 H -0.880329 0.0891362 -0.375349 0
M  V30 33 H -0.502676 -0.322804 1.30674 0
M  V30 34 H -1.61067 -2.35505 -0.724568 0
M  V30 35 H -1.37439 -2.6143 1.02539 0
M  V30 36 H -3.42557 -0.880386 -1.39448 0
M  V30 37 H -2.81431 0.506958 -0.43187 0
M  V30 38 H -4.94925 0.513596 0.923817 0
M  V30 39 H -5.49839 -0.919389 -0.00998339 0
M  V30 40 H -5.43748 0.234178 -2.08028 0
M  V30 41 H -6.50475 1.1201 -0.947302 0
M  V30 42 H -5.3001 2.68192 -1.9327 0
M  V30 43 H -4.39967 2.54648 -0.526168 0
M  V30 44 H -2.44406 0.969695 2.14725 0
M  V30 END ATOM
M  V30 BEGIN BOND
M  V30 1 1 1 2
M  V30 2 1 2 3
M  V30 3 1 3 4
M  V30 4 1 4 5
M  V30 5 1 5 6
M  V30 6 1 6 7
M  V30 7 1 7 8
M  V30 8 1 8 9
M  V30 9 1 9 10
M  V30 10 1 10 11
M  V30 11 1 11 12
M  V30 12 1 12 13
M  V30 13 1 13 14
M  V30 14 1 10 15
M  V30 15 1 15 16
M  V30 16 2 15 17 CFG=2
M  V30 17 1 17 18
M  V30 18 1 1 19
M  V30 19 1 1 20
M  V30 20 1 2 21
M  V30 21 1 2 22
M  V30 22 1 3 23
M  V30 23 1 3 24
M  V30 24 1 4 25
M  V30 25 1 4 26
M  V30 26 1 5 27
M  V30 27 1 6 28
M  V30 28 1 6 29
M  V30 29 1 7 30
M  V30 30 1 7 31
M  V30 31 1 8 32
M  V30 32 1 8 33
M  V30 33 1 9 34
M  V30 34 1 9 35
M  V30 35 1 11 36
M  V30 36 1 11 37
M  V30 37 1 12 38
M  V30 38 1 12 39
M  V30 39 1 13 40
M  V30 40 1 13 41
M  V30 41 1 14 42
M  V30 42 1 14 43
M  V30 43 1 18 44
M  V30 END BOND
M  V30 END CTAB
M  END
