
     RDKit          3D

  0  0  0  0  0  0  0  0  0  0999 V3000
M  V30 BEGIN CTAB
M  V30 COUNTS 30 30 0 0 0
M  V30 BEGIN ATOM
M  V30 1 C -2.65518 1.73668 -0.416501 0
M  V30 2 C -2.05677 0.675738 0.506455 0
M  V30 3 N -1.16801 -0.179396 -0.194771 0
M  V30 4 C -1.70029 -1.14379 -1.13135 0
M  V30 5 C -2.43262 -2.21059 -0.341842 0
M  V30 6 C 0.238579 -0.0652792 -0.0557608 0
M  V30 7 C 1.11657 -1.01711 -0.497531 0
M  V30 8 C 2.46619 -0.797293 -0.361973 0
M  V30 9 N 3.43262 -1.77806 -0.805886 0
M  V30 10 N 2.93721 0.32901 0.194821 0 CHG=1
M  V30 11 O 4.30585 0.470613 0.304631 0 CHG=-1
M  V30 12 C 2.11461 1.29019 0.643168 0
M  V30 13 N 2.68917 2.44843 1.21359 0
M  V30 14 C 0.765754 1.08886 0.515663 0
M  V30 15 H -1.88115 2.15458 -1.09559 0
M  V30 16 H -3.00309 2.55231 0.289669 0
M  V30 17 H -3.50314 1.33807 -0.997301 0
M  V30 18 H -2.95846 0.096995 0.903571 0
M  V30 19 H -1.62074 1.11038 1.42581 0
M  V30 20 H -2.49971 -0.64095 -1.74442 0
M  V30 21 H -0.94514 -1.55574 -1.79809 0
M  V30 22 H -3.41929 -1.8086 -0.0365178 0
M  V30 23 H -2.61961 -3.08041 -1.00091 0
M  V30 24 H -1.90261 -2.49508 0.584672 0
M  V30 25 H 0.797917 -1.944 -0.947993 0
M  V30 26 H 3.33131 -2.77416 -0.604251 0
M  V30 27 H 4.24268 -1.43276 -1.3388 0
M  V30 28 H 2.74818 3.31813 0.651987 0
M  V30 29 H 3.05078 2.43465 2.17082 0
M  V30 30 H 0.128384 1.87857 0.875688 0
M  V30 END ATOM
M  V30 BEGIN BOND
M  V30 1 1 1 2
M  V30 2 1 2 3
M  V30 3 1 3 4
M  V30 4 1 4 5
M  V30 5 1 3 6
M  V30 6 2 6 7
M  V30 7 1 7 8
M  V30 8 1 8 9
M  V30 9 2 8 10
M  V30 10 1 10 11
M  V30 11 1 10 12
M  V30 12 1 12 13
M  V30 13 2 12 14
M  V30 14 1 14 6
M  V30 15 1 1 15
M  V30 16 1 1 16
M  V30 17 1 1 17
M  V30 18 1 2 18
M  V30 19 1 2 19
M  V30 20 1 4 20
M  V30 21 1 4 21
M  V30 22 1 5 22
M  V30 23 1 5 23
M  V30 24 1 5 24
M  V30 25 1 7 25
M  V30 26 1 9 26
M  V30 27 1 9 27
M  V30 28 1 13 28
M  V30 29 1 13 29
M  V30 30 1 14 30
M  V30 END BOND
M  V30 END CTAB
M  END
