
     RDKit          3D

  0  0  0  0  0  0  0  0  0  0999 V3000
M  V30 BEGIN CTAB
M  V30 COUNTS 54 56 0 0 0
M  V30 BEGIN ATOM
M  V30 1 C -5.88893 2.24947 -1.8709 0
M  V30 2 C -6.0756 0.916478 -1.25222 0
M  V30 3 N -7.29757 0.4545 -0.918837 0
M  V30 4 C -7.53891 -0.749613 -0.380166 0
M  V30 5 N -8.85553 -1.1916 -0.0437844 0
M  V30 6 N -6.46661 -1.52611 -0.171438 0
M  V30 7 C -5.19933 -1.18279 -0.459821 0
M  V30 8 N -4.11144 -2.04996 -0.258519 0
M  V30 9 C -4.99411 0.0843929 -1.01892 0
M  V30 10 C -3.64338 0.534599 -1.37324 0
M  V30 11 C -3.11614 1.59183 -0.440344 0
M  V30 12 C -2.95851 1.18929 0.983158 0
M  V30 13 O -2.055 0.190379 1.20775 0
M  V30 14 C -0.704947 0.157934 1.02977 0
M  V30 15 C 0.0731138 1.19792 0.591749 0
M  V30 16 C 1.46437 1.0549 0.437583 0
M  V30 17 C 2.10533 -0.105713 0.712071 0
M  V30 18 N 3.48937 -0.311129 0.596482 0
M  V30 19 C 4.47348 0.671765 0.441732 0
M  V30 20 O 4.20228 1.88307 0.396621 0
M  V30 21 C 5.90733 0.343267 0.32109 0
M  V30 22 C 6.34455 -0.946918 0.0273613 0
M  V30 23 C 7.70831 -1.19728 -0.0653898 0
M  V30 24 C 8.61345 -0.174317 0.132364 0
M  V30 25 C 8.2099 1.09785 0.421068 0
M  V30 26 C 6.84803 1.33115 0.510118 0
M  V30 27 S 8.27581 -2.80402 -0.431782 0
M  V30 28 F 8.4105 -2.9738 -2.10455 0
M  V30 29 O 7.3292 -3.85196 0.0742614 0
M  V30 30 O 9.63193 -2.96158 0.191676 0
M  V30 31 C 1.29197 -1.1593 1.16022 0
M  V30 32 C -0.038324 -1.04398 1.31361 0
M  V30 33 H -4.97284 2.35196 -2.47131 0
M  V30 34 H -6.72726 2.37358 -2.62509 0
M  V30 35 H -5.9777 3.08466 -1.14398 0
M  V30 36 H -9.2069 -2.02317 -0.565005 0
M  V30 37 H -9.44834 -0.726626 0.676162 0
M  V30 38 H -3.59625 -2.19558 0.611723 0
M  V30 39 H -3.78715 -2.61552 -1.0962 0
M  V30 40 H -2.90038 -0.309578 -1.29067 0
M  V30 41 H -3.59635 0.878342 -2.43929 0
M  V30 42 H -3.78647 2.51397 -0.40495 0
M  V30 43 H -2.18176 2.02779 -0.903581 0
M  V30 44 H -2.62764 2.07734 1.61877 0
M  V30 45 H -3.96576 0.95584 1.45027 0
M  V30 46 H -0.361012 2.16219 0.375418 0
M  V30 47 H 1.97508 1.9337 0.0743511 0
M  V30 48 H 3.86763 -1.32424 0.627969 0
M  V30 49 H 5.64989 -1.74836 -0.131398 0
M  V30 50 H 9.66442 -0.409949 0.05157 0
M  V30 51 H 8.89066 1.90503 0.578017 0
M  V30 52 H 6.49629 2.33529 0.739528 0
M  V30 53 H 1.78723 -2.09075 1.38326 0
M  V30 54 H -0.630001 -1.87463 1.65989 0
M  V30 END ATOM
M  V30 BEGIN BOND
M  V30 1 1 1 2
M  V30 2 2 2 3
M  V30 3 1 3 4
M  V30 4 1 4 5
M  V30 5 2 4 6
M  V30 6 1 6 7
M  V30 7 1 7 8
M  V30 8 2 7 9
M  V30 9 1 9 10
M  V30 10 1 10 11
M  V30 11 1 11 12
M  V30 12 1 12 13
M  V30 13 1 13 14
M  V30 14 2 14 15
M  V30 15 1 15 16
M  V30 16 2 16 17
M  V30 17 1 17 18
M  V30 18 1 18 19
M  V30 19 2 19 20
M  V30 20 1 19 21
M  V30 21 2 21 22
M  V30 22 1 22 23
M  V30 23 2 23 24
M  V30 24 1 24 25
M  V30 25 2 25 26
M  V30 26 1 23 27
M  V30 27 1 27 28
M  V30 28 2 27 29
M  V30 29 2 27 30
M  V30 30 1 17 31
M  V30 31 2 31 32
M  V30 32 1 9 2
M  V30 33 1 32 14
M  V30 34 1 26 21
M  V30 35 1 1 33
M  V30 36 1 1 34
M  V30 37 1 1 35
M  V30 38 1 5 36
M  V30 39 1 5 37
M  V30 40 1 8 38
M  V30 41 1 8 39
M  V30 42 1 10 40
M  V30 43 1 10 41
M  V30 44 1 11 42
M  V30 45 1 11 43
M  V30 46 1 12 44
M  V30 47 1 12 45
M  V30 48 1 15 46
M  V30 49 1 16 47
M  V30 50 1 18 48
M  V30 51 1 22 49
M  V30 52 1 24 50
M  V30 53 1 25 51
M  V30 54 1 26 52
M  V30 55 1 31 53
M  V30 56 1 32 54
M  V30 END BOND
M  V30 END CTAB
M  END
