
     RDKit          3D

  0  0  0  0  0  0  0  0  0  0999 V3000
M  V30 BEGIN CTAB
M  V30 COUNTS 20 20 0 0 0
M  V30 BEGIN ATOM
M  V30 1 N 0.406867 3.48875 -0.940071 0
M  V30 2 C 0.730103 2.43947 -0.591743 0
M  V30 3 C 1.12208 1.13082 -0.138394 0
M  V30 4 C 2.46582 0.813729 -0.272417 0
M  V30 5 C 2.90728 -0.418981 0.148264 0
M  V30 6 F 4.21886 -0.77272 0.0308872 0
M  V30 7 C 2.02878 -1.34043 0.70231 0
M  V30 8 C 0.680361 -1.00452 0.830301 0
M  V30 9 C 0.236579 0.233452 0.406791 0
M  V30 10 N -1.11812 0.597809 0.485588 0
M  V30 11 C -2.11275 -0.00666435 -0.0198873 0
M  V30 12 N -1.98932 -1.21497 -0.787443 0
M  V30 13 N -3.428 0.524464 0.167722 0
M  V30 14 H 3.19705 1.50368 -0.696358 0
M  V30 15 H 2.42151 -2.30951 1.02548 0
M  V30 16 H -0.00240958 -1.71395 1.26238 0
M  V30 17 H -2.48315 -2.08748 -0.438026 0
M  V30 18 H -1.43813 -1.27897 -1.66466 0
M  V30 19 H -4.18607 -0.110326 0.502246 0
M  V30 20 H -3.65734 1.52636 -0.012976 0
M  V30 END ATOM
M  V30 BEGIN BOND
M  V30 1 3 1 2
M  V30 2 1 2 3
M  V30 3 2 3 4
M  V30 4 1 4 5
M  V30 5 1 5 6
M  V30 6 2 5 7
M  V30 7 1 7 8
M  V30 8 2 8 9
M  V30 9 1 9 10
M  V30 10 2 10 11 CFG=2
M  V30 11 1 11 12
M  V30 12 1 11 13
M  V30 13 1 9 3
M  V30 14 1 4 14
M  V30 15 1 7 15
M  V30 16 1 8 16
M  V30 17 1 12 17
M  V30 18 1 12 18
M  V30 19 1 13 19
M  V30 20 1 13 20
M  V30 END BOND
M  V30 END CTAB
M  END
