
     RDKit          3D

  0  0  0  0  0  0  0  0  0  0999 V3000
M  V30 BEGIN CTAB
M  V30 COUNTS 44 46 0 0 0
M  V30 BEGIN ATOM
M  V30 1 N 6.13476 -1.08992 1.05523 0
M  V30 2 C 4.9609 -0.421524 1.5517 0
M  V30 3 C 3.72023 -1.25124 1.19383 0
M  V30 4 C 3.81993 -0.613762 -0.191355 0
M  V30 5 C 4.45023 0.592506 0.518737 0
M  V30 6 C 2.5241 -0.316387 -0.826641 0
M  V30 7 C 1.51303 0.347646 -0.199407 0
M  V30 8 C 0.319453 0.59336 -0.857834 0
M  V30 9 N -0.73108 1.275 -0.227671 0
M  V30 10 C -1.96057 1.52256 -0.920475 0
M  V30 11 C -2.96932 2.26298 -0.0916562 0
M  V30 12 C -3.38912 1.52908 1.15173 0
M  V30 13 C -4.03066 0.233771 0.917663 0
M  V30 14 C -5.38776 0.18183 0.706305 0
M  V30 15 C -6.02796 -1.00974 0.494112 0
M  V30 16 N -5.31418 -2.143 0.493415 0
M  V30 17 C -3.96723 -2.10481 0.70206 0
M  V30 18 C -3.31044 -0.921996 0.916089 0
M  V30 19 N 0.187831 0.154752 -2.14094 0
M  V30 20 C 1.17849 -0.50013 -2.76657 0
M  V30 21 N 2.3153 -0.71646 -2.09345 0
M  V30 22 N 1.0403 -0.958227 -4.1074 0
M  V30 23 H 5.93771 -2.04398 0.672773 0
M  V30 24 H 6.57679 -0.558041 0.249019 0
M  V30 25 H 4.99267 -0.0571104 2.57653 0
M  V30 26 H 3.87405 -2.33478 1.21992 0
M  V30 27 H 2.86079 -0.858108 1.78341 0
M  V30 28 H 4.51879 -1.15316 -0.833838 0
M  V30 29 H 3.65161 1.22717 0.930368 0
M  V30 30 H 5.24517 1.08874 -0.0544646 0
M  V30 31 H 1.65071 0.682207 0.819838 0
M  V30 32 H -0.610194 1.60247 0.7551 0
M  V30 33 H -2.42115 0.527299 -1.19493 0
M  V30 34 H -1.76214 2.01255 -1.89162 0
M  V30 35 H -3.84279 2.5953 -0.698209 0
M  V30 36 H -2.46701 3.2308 0.205149 0
M  V30 37 H -2.45346 1.34719 1.74808 0
M  V30 38 H -4.02959 2.21158 1.78022 0
M  V30 39 H -5.97847 1.10355 0.705331 0
M  V30 40 H -7.08505 -1.06612 0.327936 0
M  V30 41 H -3.46877 -3.06007 0.685777 0
M  V30 42 H -2.25495 -0.94116 1.08154 0
M  V30 43 H 1.11768 -0.232362 -4.85382 0
M  V30 44 H 0.871384 -1.97029 -4.30417 0
M  V30 END ATOM
M  V30 BEGIN BOND
M  V30 1 1 1 2
M  V30 2 1 2 3
M  V30 3 1 3 4
M  V30 4 1 4 5
M  V30 5 1 4 6
M  V30 6 2 6 7
M  V30 7 1 7 8
M  V30 8 1 8 9
M  V30 9 1 9 10
M  V30 10 1 10 11
M  V30 11 1 11 12
M  V30 12 1 12 13
M  V30 13 2 13 14
M  V30 14 1 14 15
M  V30 15 2 15 16
M  V30 16 1 16 17
M  V30 17 2 17 18
M  V30 18 2 8 19
M  V30 19 1 19 20
M  V30 20 2 20 21
M  V30 21 1 20 22
M  V30 22 1 5 2
M  V30 23 1 21 6
M  V30 24 1 18 13
M  V30 25 1 1 23
M  V30 26 1 1 24
M  V30 27 1 2 25
M  V30 28 1 3 26
M  V30 29 1 3 27
M  V30 30 1 4 28
M  V30 31 1 5 29
M  V30 32 1 5 30
M  V30 33 1 7 31
M  V30 34 1 9 32
M  V30 35 1 10 33
M  V30 36 1 10 34
M  V30 37 1 11 35
M  V30 38 1 11 36
M  V30 39 1 12 37
M  V30 40 1 12 38
M  V30 41 1 14 39
M  V30 42 1 15 40
M  V30 43 1 17 41
M  V30 44 1 18 42
M  V30 45 1 22 43
M  V30 46 1 22 44
M  V30 END BOND
M  V30 END CTAB
M  END
