
     RDKit          3D

  0  0  0  0  0  0  0  0  0  0999 V3000
M  V30 BEGIN CTAB
M  V30 COUNTS 40 41 0 0 0
M  V30 BEGIN ATOM
M  V30 1 C 0.85398 -3.26689 1.56592 0
M  V30 2 O 1.74918 -2.20347 1.46465 0
M  V30 3 C 1.42641 -0.946637 0.98672 0
M  V30 4 C 0.119359 -0.680431 0.564107 0
M  V30 5 C -0.24118 0.557229 0.0823984 0
M  V30 6 C 0.715456 1.54731 0.0200873 0
M  V30 7 C 2.00041 1.28587 0.435472 0
M  V30 8 C 2.37609 0.041483 0.923217 0
M  V30 9 O 3.65908 -0.25086 1.34778 0
M  V30 10 C 4.64914 -0.756551 0.480511 0
M  V30 11 O 2.96188 2.27725 0.374006 0
M  V30 12 C 2.63319 3.56192 -0.114179 0
M  V30 13 C -1.64253 0.803849 -0.358575 0
M  V30 14 C -1.91205 -0.0520433 -1.50708 0
M  V30 15 C -3.04509 -0.612481 -1.82469 0
M  V30 16 N -3.19154 -1.43065 -2.973 0
M  V30 17 S -4.44514 -0.319871 -0.755315 0
M  V30 18 C -3.7445 0.197525 0.813332 0
M  V30 19 C -2.514 0.659589 0.792782 0
M  V30 20 C -1.97771 1.07046 2.07722 0
M  V30 21 N -1.55736 1.40944 3.10279 0
M  V30 22 N -4.54017 0.0808773 1.95844 0
M  V30 23 C -0.795356 -0.315514 -2.40729 0
M  V30 24 N 0.0938135 -0.511321 -3.12113 0
M  V30 25 H 1.37021 -4.07284 2.16096 0
M  V30 26 H 0.559112 -3.72626 0.623147 0
M  V30 27 H -0.0540663 -3.01329 2.18362 0
M  V30 28 H -0.620202 -1.4666 0.618787 0
M  V30 29 H 0.488016 2.53718 -0.349366 0
M  V30 30 H 5.12301 -1.6523 0.926953 0
M  V30 31 H 5.43048 0.0139203 0.332463 0
M  V30 32 H 4.22777 -0.986606 -0.514962 0
M  V30 33 H 3.53757 4.21331 0.0321736 0
M  V30 34 H 2.42676 3.50003 -1.20082 0
M  V30 35 H 1.78302 4.00927 0.41937 0
M  V30 36 H -1.7182 1.8747 -0.713938 0
M  V30 37 H -3.28655 -2.46465 -2.93162 0
M  V30 38 H -3.20375 -0.966778 -3.9004 0
M  V30 39 H -4.61213 -0.826383 2.4637 0
M  V30 40 H -5.08239 0.881213 2.34463 0
M  V30 END ATOM
M  V30 BEGIN BOND
M  V30 1 1 1 2
M  V30 2 1 2 3
M  V30 3 2 3 4
M  V30 4 1 4 5
M  V30 5 2 5 6
M  V30 6 1 6 7
M  V30 7 2 7 8
M  V30 8 1 8 9
M  V30 9 1 9 10
M  V30 10 1 7 11
M  V30 11 1 11 12
M  V30 12 1 5 13
M  V30 13 1 13 14
M  V30 14 2 14 15
M  V30 15 1 15 16
M  V30 16 1 15 17
M  V30 17 1 17 18
M  V30 18 2 18 19
M  V30 19 1 19 20
M  V30 20 3 20 21
M  V30 21 1 18 22
M  V30 22 1 14 23
M  V30 23 3 23 24
M  V30 24 1 8 3
M  V30 25 1 19 13
M  V30 26 1 1 25
M  V30 27 1 1 26
M  V30 28 1 1 27
M  V30 29 1 4 28
M  V30 30 1 6 29
M  V30 31 1 10 30
M  V30 32 1 10 31
M  V30 33 1 10 32
M  V30 34 1 12 33
M  V30 35 1 12 34
M  V30 36 1 12 35
M  V30 37 1 13 36
M  V30 38 1 16 37
M  V30 39 1 16 38
M  V30 40 1 22 39
M  V30 41 1 22 40
M  V30 END BOND
M  V30 END CTAB
M  END
