
     RDKit          3D

  0  0  0  0  0  0  0  0  0  0999 V3000
M  V30 BEGIN CTAB
M  V30 COUNTS 38 39 0 0 0
M  V30 BEGIN ATOM
M  V30 1 N -5.63354 -0.0728031 0.0306914 0
M  V30 2 C -4.24421 -0.466483 -0.00685628 0
M  V30 3 C -3.54608 -0.24808 1.30244 0
M  V30 4 C -2.27347 0.524389 1.03852 0
M  V30 5 C -1.43829 -0.291331 0.0688528 0
M  V30 6 C -2.1489 -0.49586 -1.25336 0
M  V30 7 C -3.49991 0.182011 -1.16159 0
M  V30 8 N -0.173704 0.341087 -0.21034 0
M  V30 9 C 1.02588 -0.355442 0.0985298 0
M  V30 10 O 0.992459 -1.51589 0.612181 0
M  V30 11 C 2.31796 0.235593 -0.162557 0
M  V30 12 C 2.45579 1.50597 -0.725078 0
M  V30 13 C 3.72995 2.01019 -0.947948 0
M  V30 14 F 3.82601 3.23497 -1.49033 0
M  V30 15 C 4.86938 1.30008 -0.633125 0
M  V30 16 C 4.69887 0.0482106 -0.078812 0
M  V30 17 C 3.45404 -0.490938 0.159543 0
M  V30 18 N 3.32084 -1.79851 0.738573 0
M  V30 19 N 5.8607 -0.725518 0.264285 0 CHG=1
M  V30 20 O 6.92676 -0.567102 -0.337283 0
M  V30 21 O 5.81614 -1.65428 1.26252 0 CHG=-1
M  V30 22 H -6.02092 0.0935933 -0.910268 0
M  V30 23 H -5.67854 0.848032 0.534516 0
M  V30 24 H -4.22988 -1.5725 -0.214749 0
M  V30 25 H -3.22522 -1.21431 1.78575 0
M  V30 26 H -4.1906 0.267218 2.04345 0
M  V30 27 H -1.6454 0.62388 1.96194 0
M  V30 28 H -2.45452 1.5531 0.68511 0
M  V30 29 H -1.26691 -1.27173 0.503756 0
M  V30 30 H -1.55355 -0.13986 -2.09927 0
M  V30 31 H -2.3585 -1.57478 -1.4456 0
M  V30 32 H -3.43982 1.27149 -1.07887 0
M  V30 33 H -4.05607 -0.122322 -2.09119 0
M  V30 34 H -0.217433 1.28863 -0.629605 0
M  V30 35 H 1.56997 2.07423 -0.977073 0
M  V30 36 H 5.87111 1.67319 -0.797941 0
M  V30 37 H 3.41468 -1.84527 1.78091 0
M  V30 38 H 3.14496 -2.65285 0.19705 0
M  V30 END ATOM
M  V30 BEGIN BOND
M  V30 1 1 1 2
M  V30 2 1 2 3
M  V30 3 1 3 4
M  V30 4 1 4 5
M  V30 5 1 5 6
M  V30 6 1 6 7
M  V30 7 1 5 8
M  V30 8 1 8 9
M  V30 9 2 9 10
M  V30 10 1 9 11
M  V30 11 2 11 12
M  V30 12 1 12 13
M  V30 13 1 13 14
M  V30 14 2 13 15
M  V30 15 1 15 16
M  V30 16 2 16 17
M  V30 17 1 17 18
M  V30 18 1 16 19
M  V30 19 2 19 20
M  V30 20 1 19 21
M  V30 21 1 7 2
M  V30 22 1 17 11
M  V30 23 1 1 22
M  V30 24 1 1 23
M  V30 25 1 2 24
M  V30 26 1 3 25
M  V30 27 1 3 26
M  V30 28 1 4 27
M  V30 29 1 4 28
M  V30 30 1 5 29
M  V30 31 1 6 30
M  V30 32 1 6 31
M  V30 33 1 7 32
M  V30 34 1 7 33
M  V30 35 1 8 34
M  V30 36 1 12 35
M  V30 37 1 15 36
M  V30 38 1 18 37
M  V30 39 1 18 38
M  V30 END BOND
M  V30 END CTAB
M  END
