
     RDKit          3D

  0  0  0  0  0  0  0  0  0  0999 V3000
M  V30 BEGIN CTAB
M  V30 COUNTS 17 17 0 0 0
M  V30 BEGIN ATOM
M  V30 1 S -2.87827 1.08743 0.590102 0
M  V30 2 C -1.14957 0.639878 0.330702 0
M  V30 3 C -0.898957 -0.681835 -0.0113604 0
M  V30 4 N -1.95419 -1.63303 -0.149624 0
M  V30 5 C 0.422654 -1.03811 -0.213087 0
M  V30 6 C 1.4381 -0.108663 -0.0766208 0
M  V30 7 C 1.15126 1.1986 0.265103 0
M  V30 8 C -0.158775 1.58046 0.472018 0
M  V30 9 F -0.468627 2.85746 0.808432 0
M  V30 10 Cl 2.47242 2.33417 0.424814 0
M  V30 11 N 2.78947 -0.489341 -0.286852 0
M  V30 12 H -3.34748 1.56026 -0.648437 0
M  V30 13 H -2.25678 -2.05532 -1.03019 0
M  V30 14 H -2.44842 -1.91083 0.728774 0
M  V30 15 H 0.674243 -2.04611 -0.479238 0
M  V30 16 H 3.49389 0.147338 -0.730453 0
M  V30 17 H 3.11902 -1.44235 0.00592129 0
M  V30 END ATOM
M  V30 BEGIN BOND
M  V30 1 1 1 2
M  V30 2 2 2 3
M  V30 3 1 3 4
M  V30 4 1 3 5
M  V30 5 2 5 6
M  V30 6 1 6 7
M  V30 7 2 7 8
M  V30 8 1 8 9
M  V30 9 1 7 10
M  V30 10 1 6 11
M  V30 11 1 8 2
M  V30 12 1 1 12
M  V30 13 1 4 13
M  V30 14 1 4 14
M  V30 15 1 5 15
M  V30 16 1 11 16
M  V30 17 1 11 17
M  V30 END BOND
M  V30 END CTAB
M  END
