
     RDKit          3D

  0  0  0  0  0  0  0  0  0  0999 V3000
M  V30 BEGIN CTAB
M  V30 COUNTS 48 50 0 0 0
M  V30 BEGIN ATOM
M  V30 1 C 2.84493 -2.34212 0.803816 0
M  V30 2 N 2.60397 -0.92339 0.692965 0
M  V30 3 C 3.74507 -0.215471 1.35026 0
M  V30 4 C 3.45187 1.18988 1.40286 0
M  V30 5 C 4.16896 2.10807 0.822403 0
M  V30 6 C 5.33645 2.0141 0.0443231 0
M  V30 7 N 6.03868 0.880801 -0.306125 0
M  V30 8 C 1.33275 -0.488545 1.1322 0
M  V30 9 C 0.254761 -1.03828 0.231852 0 CFG=1
M  V30 10 O -1.00428 -0.570451 0.634668 0
M  V30 11 C -1.85278 -0.778589 -0.432405 0 CFG=2
M  V30 12 C -1.0517 -0.820193 -1.69676 0 CFG=2
M  V30 13 O -1.07572 -2.12591 -2.24232 0
M  V30 14 C 0.366612 -0.537954 -1.17898 0 CFG=2
M  V30 15 O 1.28681 -1.27788 -1.94105 0
M  V30 16 N -2.9688 0.139969 -0.497809 0
M  V30 17 C -3.00262 1.3626 -1.03252 0
M  V30 18 N -4.22491 1.90688 -0.906965 0
M  V30 19 C -5.02337 1.02227 -0.272167 0
M  V30 20 C -6.34248 1.0567 0.109235 0
M  V30 21 N -7.12272 2.20695 -0.177762 0
M  V30 22 N -6.85716 -0.0210066 0.746124 0
M  V30 23 C -6.07173 -1.09126 0.986597 0
M  V30 24 Cl -6.84413 -2.44498 1.82377 0
M  V30 25 N -4.78076 -1.14065 0.619948 0
M  V30 26 C -4.22354 -0.0745077 -0.0239441 0
M  V30 27 H 2.85899 -2.65967 1.87107 0
M  V30 28 H 2.10761 -2.89602 0.262927 0
M  V30 29 H 3.83571 -2.52096 0.299404 0
M  V30 30 H 4.59167 -0.590057 0.807863 0
M  V30 31 H 3.68709 -0.706523 2.39474 0
M  V30 32 H 2.55131 1.53573 2.02011 0
M  V30 33 H 3.79925 3.18475 0.965708 0
M  V30 34 H 6.11197 2.74479 0.507836 0
M  V30 35 H 5.14186 2.59366 -0.940767 0
M  V30 36 H 6.67015 0.517856 0.450993 0
M  V30 37 H 6.51284 0.875882 -1.23693 0
M  V30 38 H 1.12846 -0.889726 2.15614 0
M  V30 39 H 1.18813 0.616718 1.0916 0
M  V30 40 H 0.275558 -2.14548 0.216174 0
M  V30 41 H -2.30426 -1.80037 -0.275988 0
M  V30 42 H -1.34593 -0.0909117 -2.45708 0
M  V30 43 H -1.19698 -2.71337 -1.44504 0
M  V30 44 H 0.526376 0.538963 -1.27105 0
M  V30 45 H 1.86132 -0.616447 -2.39738 0
M  V30 46 H -2.16692 1.84606 -1.4984 0
M  V30 47 H -7.05781 3.05299 0.407268 0
M  V30 48 H -7.76055 2.12513 -1.02156 0
M  V30 END ATOM
M  V30 BEGIN BOND
M  V30 1 1 1 2
M  V30 2 1 2 3
M  V30 3 1 3 4
M  V30 4 2 4 5
M  V30 5 1 5 6
M  V30 6 1 6 7
M  V30 7 1 2 8
M  V30 8 1 8 9
M  V30 9 1 9 10
M  V30 10 1 10 11
M  V30 11 1 11 12
M  V30 12 1 12 13
M  V30 13 1 12 14
M  V30 14 1 14 15
M  V30 15 1 11 16
M  V30 16 1 16 17
M  V30 17 2 17 18
M  V30 18 1 18 19
M  V30 19 2 19 20
M  V30 20 1 20 21
M  V30 21 1 20 22
M  V30 22 2 22 23
M  V30 23 1 23 24
M  V30 24 1 23 25
M  V30 25 2 25 26
M  V30 26 1 14 9
M  V30 27 1 26 16
M  V30 28 1 26 19
M  V30 29 1 1 27
M  V30 30 1 1 28
M  V30 31 1 1 29
M  V30 32 1 3 30
M  V30 33 1 3 31
M  V30 34 1 4 32
M  V30 35 1 5 33
M  V30 36 1 6 34
M  V30 37 1 6 35
M  V30 38 1 7 36
M  V30 39 1 7 37
M  V30 40 1 8 38
M  V30 41 1 8 39
M  V30 42 1 9 40 CFG=3
M  V30 43 1 11 41 CFG=1
M  V30 44 1 12 42 CFG=3
M  V30 45 1 13 43
M  V30 46 1 14 44 CFG=1
M  V30 47 1 15 45
M  V30 48 1 17 46
M  V30 49 1 21 47
M  V30 50 1 21 48
M  V30 END BOND
M  V30 END CTAB
M  END
