
     RDKit          3D

  0  0  0  0  0  0  0  0  0  0999 V3000
M  V30 BEGIN CTAB
M  V30 COUNTS 20 21 0 0 0
M  V30 BEGIN ATOM
M  V30 1 N 3.28155 0.096294 0.174624 0
M  V30 2 N 1.93855 0.426743 -0.00341675 0
M  V30 3 C 1.40981 1.65832 -0.188702 0
M  V30 4 N 0.0674378 1.51882 -0.318202 0
M  V30 5 C -0.266191 0.221099 -0.218382 0
M  V30 6 C 0.923287 -0.4466 -0.0210173 0
M  V30 7 N 1.09947 -1.86708 0.145734 0
M  V30 8 C -1.62821 -0.364308 -0.30133 0
M  V30 9 C -2.74977 0.633092 -0.560907 0
M  V30 10 C -2.63964 -0.0673061 0.738464 0
M  V30 11 H 3.7492 -0.478601 -0.562764 0
M  V30 12 H 3.80588 0.420298 1.03164 0
M  V30 13 H 2.00608 2.5666 -0.219519 0
M  V30 14 H 0.612074 -2.56285 -0.469406 0
M  V30 15 H 1.74342 -2.14771 0.918546 0
M  V30 16 H -1.67564 -1.36631 -0.752908 0
M  V30 17 H -3.44003 0.29185 -1.3595 0
M  V30 18 H -2.45106 1.70877 -0.621819 0
M  V30 19 H -2.37131 0.57206 1.61397 0
M  V30 20 H -3.41489 -0.813187 0.974891 0
M  V30 END ATOM
M  V30 BEGIN BOND
M  V30 1 1 1 2
M  V30 2 1 2 3
M  V30 3 2 3 4
M  V30 4 1 4 5
M  V30 5 2 5 6
M  V30 6 1 6 7
M  V30 7 1 5 8
M  V30 8 1 8 9
M  V30 9 1 9 10
M  V30 10 1 6 2
M  V30 11 1 10 8
M  V30 12 1 1 11
M  V30 13 1 1 12
M  V30 14 1 3 13
M  V30 15 1 7 14
M  V30 16 1 7 15
M  V30 17 1 8 16
M  V30 18 1 9 17
M  V30 19 1 9 18
M  V30 20 1 10 19
M  V30 21 1 10 20
M  V30 END BOND
M  V30 END CTAB
M  END
