
     RDKit          3D

  0  0  0  0  0  0  0  0  0  0999 V3000
M  V30 BEGIN CTAB
M  V30 COUNTS 56 59 0 0 0
M  V30 BEGIN ATOM
M  V30 1 C 7.18905 -1.79709 0.166119 0
M  V30 2 C 6.88447 -0.309993 0.147048 0
M  V30 3 O 5.46919 -0.171716 0.08694 0
M  V30 4 C 4.90467 1.07598 0.0565241 0
M  V30 5 O 5.67199 2.0764 0.0838196 0
M  V30 6 C 3.4748 1.27524 -0.00542529 0
M  V30 7 C 2.77064 2.47672 -0.0425566 0
M  V30 8 N 3.40008 3.75216 -0.0215015 0
M  V30 9 O 1.49443 2.19534 -0.0972264 0
M  V30 10 C 1.3109 0.896461 -0.0985532 0
M  V30 11 C 2.512 0.28583 -0.0425139 0
M  V30 12 C 2.5202 -1.08443 -0.0350074 0
M  V30 13 C 1.36173 -1.83489 -0.0824476 0
M  V30 14 O 1.16397 -3.11777 -0.0853203 0
M  V30 15 C -0.0805639 -3.41933 -0.140039 0
M  V30 16 C -0.80923 -2.18797 -0.17864 0
M  V30 17 C 0.126518 -1.17712 -0.140407 0
M  V30 18 C 0.0754452 0.186879 -0.149325 0
M  V30 19 C -1.112 1.00466 -0.204049 0
M  V30 20 C -1.56653 1.45732 -1.42499 0
M  V30 21 C -2.6403 2.35374 -1.49598 0
M  V30 22 C -3.23639 2.77535 -0.300306 0
M  V30 23 C -2.79033 2.3295 0.924029 0
M  V30 24 C -1.71731 1.43622 0.955931 0
M  V30 25 C -3.47777 2.82503 2.13807 0
M  V30 26 C -4.38282 3.73601 -0.433231 0
M  V30 27 C -2.22223 -2.13411 -0.253163 0
M  V30 28 O -3.00809 -1.22327 -0.294064 0
M  V30 29 O -2.91274 -3.38854 -0.291495 0
M  V30 30 C -4.32801 -3.41379 -0.367481 0
M  V30 31 C -5.02122 -2.75281 0.775861 0
M  V30 32 N -0.688746 -4.70761 -0.161256 0
M  V30 33 H 8.11974 -1.95675 0.722646 0
M  V30 34 H 6.32485 -2.33146 0.601758 0
M  V30 35 H 7.24981 -2.12421 -0.893336 0
M  V30 36 H 7.38515 0.119953 -0.745198 0
M  V30 37 H 7.19087 0.185321 1.09532 0
M  V30 38 H 3.22648 4.36054 0.803601 0
M  V30 39 H 4.00481 4.08113 -0.776752 0
M  V30 40 H 3.47999 -1.5965 0.010197 0
M  V30 41 H -1.12992 1.15265 -2.36471 0
M  V30 42 H -2.98211 2.69686 -2.46087 0
M  V30 43 H -1.36093 1.08141 1.91083 0
M  V30 44 H -4.49157 2.38691 2.2551 0
M  V30 45 H -2.89836 2.46497 3.03666 0
M  V30 46 H -3.48609 3.92436 2.20627 0
M  V30 47 H -4.62288 4.17705 0.532049 0
M  V30 48 H -5.25887 3.11476 -0.749388 0
M  V30 49 H -4.1532 4.53344 -1.16214 0
M  V30 50 H -4.7034 -2.953 -1.30637 0
M  V30 51 H -4.5955 -4.48107 -0.377616 0
M  V30 52 H -6.02805 -3.2578 0.874061 0
M  V30 53 H -4.51962 -2.92192 1.75505 0
M  V30 54 H -5.26031 -1.6922 0.582548 0
M  V30 55 H -0.747207 -5.2523 0.719874 0
M  V30 56 H -1.07951 -5.13053 -1.02369 0
M  V30 END ATOM
M  V30 BEGIN BOND
M  V30 1 1 1 2
M  V30 2 1 2 3
M  V30 3 1 3 4
M  V30 4 2 4 5
M  V30 5 1 4 6
M  V30 6 2 6 7
M  V30 7 1 7 8
M  V30 8 1 7 9
M  V30 9 1 9 10
M  V30 10 2 10 11
M  V30 11 1 11 12
M  V30 12 2 12 13
M  V30 13 1 13 14
M  V30 14 1 14 15
M  V30 15 2 15 16
M  V30 16 1 16 17
M  V30 17 2 17 18
M  V30 18 1 18 19
M  V30 19 2 19 20
M  V30 20 1 20 21
M  V30 21 2 21 22
M  V30 22 1 22 23
M  V30 23 2 23 24
M  V30 24 1 23 25
M  V30 25 1 22 26
M  V30 26 1 16 27
M  V30 27 2 27 28
M  V30 28 1 27 29
M  V30 29 1 29 30
M  V30 30 1 30 31
M  V30 31 1 15 32
M  V30 32 1 11 6
M  V30 33 1 17 13
M  V30 34 1 24 19
M  V30 35 1 18 10
M  V30 36 1 1 33
M  V30 37 1 1 34
M  V30 38 1 1 35
M  V30 39 1 2 36
M  V30 40 1 2 37
M  V30 41 1 8 38
M  V30 42 1 8 39
M  V30 43 1 12 40
M  V30 44 1 20 41
M  V30 45 1 21 42
M  V30 46 1 24 43
M  V30 47 1 25 44
M  V30 48 1 25 45
M  V30 49 1 25 46
M  V30 50 1 26 47
M  V30 51 1 26 48
M  V30 52 1 26 49
M  V30 53 1 30 50
M  V30 54 1 30 51
M  V30 55 1 31 52
M  V30 56 1 31 53
M  V30 57 1 31 54
M  V30 58 1 32 55
M  V30 59 1 32 56
M  V30 END BOND
M  V30 END CTAB
M  END
