
     RDKit          3D

  0  0  0  0  0  0  0  0  0  0999 V3000
M  V30 BEGIN CTAB
M  V30 COUNTS 35 37 0 0 0
M  V30 BEGIN ATOM
M  V30 1 N -1.30537 -2.13891 0.54296 0
M  V30 2 C -1.0094 -0.800653 0.173388 0
M  V30 3 C 0.297097 -0.300078 0.0281354 0
M  V30 4 C 0.114616 0.999178 -0.328985 0
M  V30 5 N -1.19881 1.2663 -0.393532 0
M  V30 6 N -1.90504 0.160933 -0.0855945 0
M  V30 7 C -3.32402 0.106366 -0.0558243 0
M  V30 8 C -4.00381 1.28628 0.218176 0
M  V30 9 C -5.3708 1.36095 0.274592 0
M  V30 10 C -6.10355 0.218873 0.0499168 0
M  V30 11 F -7.47459 0.260427 0.101067 0
M  V30 12 C -5.46294 -0.980226 -0.22673 0
M  V30 13 C -4.07957 -1.01282 -0.274574 0
M  V30 14 C 1.51189 -1.06454 0.189187 0
M  V30 15 O 1.37922 -2.32513 0.423093 0
M  V30 16 C 2.87067 -0.551962 0.109304 0
M  V30 17 C 3.26848 0.716384 0.434524 0
M  V30 18 C 4.57013 1.17908 0.295693 0
M  V30 19 N 4.89977 2.536 0.660262 0
M  V30 20 C 5.52581 0.321172 -0.195783 0
M  V30 21 C 5.18451 -0.980389 -0.542541 0
M  V30 22 C 3.87971 -1.39791 -0.388697 0
M  V30 23 H -0.959572 -2.92968 -0.0316245 0
M  V30 24 H -1.87011 -2.36483 1.38646 0
M  V30 25 H 0.855775 1.73736 -0.552483 0
M  V30 26 H -3.4322 2.19389 0.395056 0
M  V30 27 H -5.8465 2.30036 0.490066 0
M  V30 28 H -6.08231 -1.83376 -0.391264 0
M  V30 29 H -3.62829 -1.94739 -0.492416 0
M  V30 30 H 2.56305 1.40689 0.847799 0
M  V30 31 H 5.51649 3.0609 0.00504049 0
M  V30 32 H 4.54261 2.97195 1.53148 0
M  V30 33 H 6.55927 0.631095 -0.325559 0
M  V30 34 H 5.91907 -1.68016 -0.932562 0
M  V30 35 H 3.59872 -2.40594 -0.653635 0
M  V30 END ATOM
M  V30 BEGIN BOND
M  V30 1 1 1 2
M  V30 2 2 2 3
M  V30 3 1 3 4
M  V30 4 2 4 5
M  V30 5 1 5 6
M  V30 6 1 6 7
M  V30 7 2 7 8
M  V30 8 1 8 9
M  V30 9 2 9 10
M  V30 10 1 10 11
M  V30 11 1 10 12
M  V30 12 2 12 13
M  V30 13 1 3 14
M  V30 14 2 14 15
M  V30 15 1 14 16
M  V30 16 2 16 17
M  V30 17 1 17 18
M  V30 18 1 18 19
M  V30 19 2 18 20
M  V30 20 1 20 21
M  V30 21 2 21 22
M  V30 22 1 6 2
M  V30 23 1 13 7
M  V30 24 1 22 16
M  V30 25 1 1 23
M  V30 26 1 1 24
M  V30 27 1 4 25
M  V30 28 1 8 26
M  V30 29 1 9 27
M  V30 30 1 12 28
M  V30 31 1 13 29
M  V30 32 1 17 30
M  V30 33 1 19 31
M  V30 34 1 19 32
M  V30 35 1 20 33
M  V30 36 1 21 34
M  V30 37 1 22 35
M  V30 END BOND
M  V30 END CTAB
M  END
