
     RDKit          3D

  0  0  0  0  0  0  0  0  0  0999 V3000
M  V30 BEGIN CTAB
M  V30 COUNTS 40 41 0 0 0
M  V30 BEGIN ATOM
M  V30 1 F -5.57277 1.26806 -1.4728 0
M  V30 2 C -4.89351 0.626925 -0.478358 0
M  V30 3 C -5.59079 -0.281917 0.309433 0
M  V30 4 C -4.90555 -0.930807 1.31474 0
M  V30 5 C -3.56888 -0.647624 1.48829 0
M  V30 6 C -2.86529 0.254654 0.710474 0
M  V30 7 C -3.55224 0.900941 -0.292417 0
M  V30 8 C -1.42443 0.4889 0.995392 0
M  V30 9 N -0.71496 1.16435 -0.04458 0
M  V30 10 C 0.00715465 0.49535 -1.05217 0
M  V30 11 O 0.563726 1.2349 -1.94461 0
M  V30 12 C 0.209285 -0.940915 -1.21254 0
M  V30 13 S 1.19994 -1.67375 0.154657 0
M  V30 14 C 2.87308 -1.05022 0.130437 0
M  V30 15 N 3.82481 -1.67871 -0.579659 0
M  V30 16 C 5.09868 -1.22581 -0.612067 0
M  V30 17 N 6.11775 -1.86457 -1.34812 0
M  V30 18 N 5.38018 -0.117444 0.0960168 0
M  V30 19 C 4.44884 0.527596 0.812166 0
M  V30 20 N 3.18035 0.0573614 0.830809 0
M  V30 21 N 4.74969 1.69857 1.55912 0
M  V30 22 C -1.01106 -1.76002 -1.44282 0
M  V30 23 C -0.705486 2.64664 -0.0982388 0
M  V30 24 H -6.64295 -0.455509 0.115808 0
M  V30 25 H -5.4397 -1.64111 1.9346 0
M  V30 26 H -3.05528 -1.18061 2.29583 0
M  V30 27 H -3.02524 1.62311 -0.929795 0
M  V30 28 H -0.978894 -0.508142 1.14953 0
M  V30 29 H -1.3016 1.07995 1.93794 0
M  V30 30 H 0.871754 -1.10159 -2.11571 0
M  V30 31 H 7.11628 -1.82347 -1.04416 0
M  V30 32 H 5.87338 -2.39285 -2.21927 0
M  V30 33 H 5.65604 1.85404 2.02232 0
M  V30 34 H 4.0157 2.42348 1.635 0
M  V30 35 H -1.7919 -1.14759 -1.91596 0
M  V30 36 H -0.753164 -2.61735 -2.09898 0
M  V30 37 H -1.39842 -2.2414 -0.505121 0
M  V30 38 H -1.30685 3.03221 0.741324 0
M  V30 39 H -1.07873 3.00649 -1.0628 0
M  V30 40 H 0.391078 2.89792 0.010019 0
M  V30 END ATOM
M  V30 BEGIN BOND
M  V30 1 1 1 2
M  V30 2 2 2 3
M  V30 3 1 3 4
M  V30 4 2 4 5
M  V30 5 1 5 6
M  V30 6 2 6 7
M  V30 7 1 6 8
M  V30 8 1 8 9
M  V30 9 1 9 10
M  V30 10 2 10 11
M  V30 11 1 10 12
M  V30 12 1 12 13
M  V30 13 1 13 14
M  V30 14 2 14 15
M  V30 15 1 15 16
M  V30 16 1 16 17
M  V30 17 2 16 18
M  V30 18 1 18 19
M  V30 19 2 19 20
M  V30 20 1 19 21
M  V30 21 1 12 22
M  V30 22 1 9 23
M  V30 23 1 7 2
M  V30 24 1 20 14
M  V30 25 1 3 24
M  V30 26 1 4 25
M  V30 27 1 5 26
M  V30 28 1 7 27
M  V30 29 1 8 28
M  V30 30 1 8 29
M  V30 31 1 12 30
M  V30 32 1 17 31
M  V30 33 1 17 32
M  V30 34 1 21 33
M  V30 35 1 21 34
M  V30 36 1 22 35
M  V30 37 1 22 36
M  V30 38 1 22 37
M  V30 39 1 23 38
M  V30 40 1 23 39
M  V30 41 1 23 40
M  V30 END BOND
M  V30 END CTAB
M  END
