
     RDKit          3D

  0  0  0  0  0  0  0  0  0  0999 V3000
M  V30 BEGIN CTAB
M  V30 COUNTS 28 29 0 0 0
M  V30 BEGIN ATOM
M  V30 1 N -5.14106 2.88032 0.304961 0
M  V30 2 C -4.38789 1.99789 0.309085 0
M  V30 3 C -3.47365 0.911437 0.290987 0
M  V30 4 C -3.67107 -0.121018 -0.629149 0
M  V30 5 C -2.79269 -1.16405 -0.649586 0
M  V30 6 C -1.69954 -1.25051 0.209501 0
M  V30 7 C -1.53052 -0.218521 1.10523 0
M  V30 8 C -2.3997 0.854657 1.15539 0
M  V30 9 C -0.796751 -2.4296 0.108594 0
M  V30 10 S 0.527975 -2.17016 -1.07586 0
M  V30 11 C 1.70591 -0.939603 -0.588481 0
M  V30 12 N 1.49499 0.348126 -0.90544 0
M  V30 13 C 2.3652 1.32302 -0.575171 0
M  V30 14 N 2.15611 2.68941 -0.899239 0
M  V30 15 N 3.48575 1.00675 0.0947092 0
M  V30 16 C 3.7227 -0.273758 0.425183 0
M  V30 17 N 2.82685 -1.24441 0.0802997 0
M  V30 18 N 4.91629 -0.589736 1.12722 0
M  V30 19 H -4.5003 -0.102368 -1.3161 0
M  V30 20 H -2.93075 -1.96815 -1.35426 0
M  V30 21 H -0.694688 -0.247721 1.79037 0
M  V30 22 H -2.27939 1.6718 1.8535 0
M  V30 23 H -0.432657 -2.68572 1.12378 0
M  V30 24 H -1.39602 -3.29723 -0.229092 0
M  V30 25 H 2.34034 3.38783 -0.127372 0
M  V30 26 H 1.84328 3.00306 -1.82623 0
M  V30 27 H 5.30476 0.112997 1.78955 0
M  V30 28 H 5.43649 -1.48474 1.02166 0
M  V30 END ATOM
M  V30 BEGIN BOND
M  V30 1 3 1 2
M  V30 2 1 2 3
M  V30 3 2 3 4
M  V30 4 1 4 5
M  V30 5 2 5 6
M  V30 6 1 6 7
M  V30 7 2 7 8
M  V30 8 1 6 9
M  V30 9 1 9 10
M  V30 10 1 10 11
M  V30 11 2 11 12
M  V30 12 1 12 13
M  V30 13 1 13 14
M  V30 14 2 13 15
M  V30 15 1 15 16
M  V30 16 2 16 17
M  V30 17 1 16 18
M  V30 18 1 8 3
M  V30 19 1 17 11
M  V30 20 1 4 19
M  V30 21 1 5 20
M  V30 22 1 7 21
M  V30 23 1 8 22
M  V30 24 1 9 23
M  V30 25 1 9 24
M  V30 26 1 14 25
M  V30 27 1 14 26
M  V30 28 1 18 27
M  V30 29 1 18 28
M  V30 END BOND
M  V30 END CTAB
M  END
