
     RDKit          3D

  0  0  0  0  0  0  0  0  0  0999 V3000
M  V30 BEGIN CTAB
M  V30 COUNTS 26 27 0 0 0
M  V30 BEGIN ATOM
M  V30 1 N 1.22559 2.4285 -0.894376 0
M  V30 2 C 1.49362 1.11231 -0.428278 0
M  V30 3 C 2.73755 0.478863 -0.495655 0
M  V30 4 C 2.62721 -0.784797 0.0479543 0
M  V30 5 N 1.34556 -0.892625 0.427151 0
M  V30 6 N 0.68038 0.214768 0.150075 0
M  V30 7 C -0.725905 0.419046 0.434906 0
M  V30 8 C -1.30203 -0.630956 1.32288 0
M  V30 9 C -2.73225 -0.819866 0.879723 0
M  V30 10 C -2.76631 -0.411007 -0.563356 0
M  V30 11 C -1.57287 0.489612 -0.801025 0
M  V30 12 N 3.60162 -1.79539 0.204813 0
M  V30 13 H 0.522852 2.64682 -1.63614 0
M  V30 14 H 1.73539 3.26528 -0.504155 0
M  V30 15 H 3.66297 0.887865 -0.904348 0
M  V30 16 H -0.813875 1.40826 0.963813 0
M  V30 17 H -1.19423 -0.438505 2.39907 0
M  V30 18 H -0.745256 -1.59261 1.12584 0
M  V30 19 H -3.39218 -0.218416 1.52399 0
M  V30 20 H -2.99649 -1.89498 0.956114 0
M  V30 21 H -2.59244 -1.32328 -1.18739 0
M  V30 22 H -3.72732 0.082433 -0.821731 0
M  V30 23 H -1.01936 0.219882 -1.72217 0
M  V30 24 H -1.98044 1.51472 -0.979325 0
M  V30 25 H 3.6711 -2.54661 -0.50494 0
M  V30 26 H 4.25711 -1.81932 1.00655 0
M  V30 END ATOM
M  V30 BEGIN BOND
M  V30 1 1 1 2
M  V30 2 2 2 3
M  V30 3 1 3 4
M  V30 4 2 4 5
M  V30 5 1 5 6
M  V30 6 1 6 7
M  V30 7 1 7 8
M  V30 8 1 8 9
M  V30 9 1 9 10
M  V30 10 1 10 11
M  V30 11 1 4 12
M  V30 12 1 6 2
M  V30 13 1 11 7
M  V30 14 1 1 13
M  V30 15 1 1 14
M  V30 16 1 3 15
M  V30 17 1 7 16
M  V30 18 1 8 17
M  V30 19 1 8 18
M  V30 20 1 9 19
M  V30 21 1 9 20
M  V30 22 1 10 21
M  V30 23 1 10 22
M  V30 24 1 11 23
M  V30 25 1 11 24
M  V30 26 1 12 25
M  V30 27 1 12 26
M  V30 END BOND
M  V30 END CTAB
M  END
