
     RDKit          3D

  0  0  0  0  0  0  0  0  0  0999 V3000
M  V30 BEGIN CTAB
M  V30 COUNTS 32 34 0 0 0
M  V30 BEGIN ATOM
M  V30 1 N 8.47525 -0.370437 0.114151 0
M  V30 2 C 7.10044 -0.0872989 -0.224545 0
M  V30 3 N 6.51362 -0.144426 -1.41569 0
M  V30 4 N 5.28881 0.140165 -1.52661 0
M  V30 5 C 4.59125 0.495488 -0.453068 0
M  V30 6 S 5.78723 0.406152 0.764399 0
M  V30 7 S 2.84159 0.944452 -0.360739 0
M  V30 8 C 1.93459 -0.596145 -0.0621629 0
M  V30 9 C 0.472657 -0.378312 0.0375701 0
M  V30 10 N -0.274914 -0.442917 -1.05338 0
M  V30 11 C -1.5858 -0.262393 -1.05912 0
M  V30 12 N -2.24488 -0.364904 -2.32069 0
M  V30 13 C -2.29625 0.0188953 0.128782 0
M  V30 14 C -1.51742 0.0835177 1.24772 0
M  V30 15 N -0.161873 -0.112188 1.19508 0
M  V30 16 S -2.64234 0.430214 2.48445 0
M  V30 17 C -4.06585 0.48364 1.55157 0
M  V30 18 C -3.61464 0.225512 0.28402 0
M  V30 19 C -4.6172 0.1868 -0.85887 0
M  V30 20 C -5.47852 0.749839 1.99993 0
M  V30 21 H 9.27304 0.0497387 -0.390022 0
M  V30 22 H 8.5952 -1.03598 0.912133 0
M  V30 23 H 2.33782 -1.05609 0.885872 0
M  V30 24 H 2.19362 -1.33443 -0.864249 0
M  V30 25 H -2.40788 0.447747 -2.94967 0
M  V30 26 H -2.58686 -1.29346 -2.64409 0
M  V30 27 H -4.53854 -0.872355 -1.23427 0
M  V30 28 H -5.63735 0.317492 -0.523952 0
M  V30 29 H -4.37862 0.932511 -1.62128 0
M  V30 30 H -5.46589 1.35156 2.94074 0
M  V30 31 H -5.93401 -0.245073 2.1828 0
M  V30 32 H -5.95629 1.33269 1.21326 0
M  V30 END ATOM
M  V30 BEGIN BOND
M  V30 1 1 1 2
M  V30 2 2 2 3
M  V30 3 1 3 4
M  V30 4 2 4 5
M  V30 5 1 5 6
M  V30 6 1 5 7
M  V30 7 1 7 8
M  V30 8 1 8 9
M  V30 9 2 9 10
M  V30 10 1 10 11
M  V30 11 1 11 12
M  V30 12 2 11 13
M  V30 13 1 13 14
M  V30 14 2 14 15
M  V30 15 1 14 16
M  V30 16 1 16 17
M  V30 17 2 17 18
M  V30 18 1 18 19
M  V30 19 1 17 20
M  V30 20 1 6 2
M  V30 21 1 15 9
M  V30 22 1 18 13
M  V30 23 1 1 21
M  V30 24 1 1 22
M  V30 25 1 8 23
M  V30 26 1 8 24
M  V30 27 1 12 25
M  V30 28 1 12 26
M  V30 29 1 19 27
M  V30 30 1 19 28
M  V30 31 1 19 29
M  V30 32 1 20 30
M  V30 33 1 20 31
M  V30 34 1 20 32
M  V30 END BOND
M  V30 END CTAB
M  END
