
     RDKit          3D

  0  0  0  0  0  0  0  0  0  0999 V3000
M  V30 BEGIN CTAB
M  V30 COUNTS 70 75 0 0 0
M  V30 BEGIN ATOM
M  V30 1 N -8.10306 -4.06984 -1.35491 0
M  V30 2 C -7.29573 -2.97225 -0.937426 0
M  V30 3 C -7.58843 -1.66908 -1.30994 0
M  V30 4 C -6.80938 -0.60492 -0.907651 0
M  V30 5 C -5.69741 -0.792874 -0.111604 0
M  V30 6 C -5.40281 -2.09479 0.262017 0
M  V30 7 C -6.18408 -3.15729 -0.142016 0
M  V30 8 N -4.88986 0.307253 0.306127 0
M  V30 9 C -5.42859 1.51877 0.800839 0
M  V30 10 C -4.94309 2.71684 0.372195 0
M  V30 11 C -5.49976 3.87208 0.882978 0
M  V30 12 C -6.52432 3.8638 1.80684 0
M  V30 13 C -7.00786 2.64091 2.23357 0
M  V30 14 C -6.46117 1.47855 1.73166 0
M  V30 15 C -3.47217 0.196795 0.228568 0
M  V30 16 C -2.90229 -0.323403 -0.893384 0
M  V30 17 C -1.53328 -0.436144 -0.987021 0
M  V30 18 C -0.714362 -0.0292909 0.0421174 0
M  V30 19 C -1.33428 0.500789 1.18066 0
M  V30 20 C -2.70052 0.618506 1.28611 0
M  V30 21 C 0.72686 -0.13603 -0.0282612 0
M  V30 22 C 1.51871 0.804838 0.640132 0
M  V30 23 C 2.89567 0.728661 0.591826 0
M  V30 24 C 3.54148 -0.27185 -0.11292 0
M  V30 25 C 2.73917 -1.18459 -0.76139 0
M  V30 26 C 1.35953 -1.12807 -0.727029 0
M  V30 27 N 4.97071 -0.348406 -0.163486 0
M  V30 28 C 5.58604 -1.59579 0.0244645 0
M  V30 29 C 6.61274 -2.08095 -0.753746 0
M  V30 30 C 7.19689 -3.30409 -0.547584 0
M  V30 31 C 6.7528 -4.11684 0.489651 0
M  V30 32 C 5.72445 -3.62969 1.26824 0
M  V30 33 C 5.1361 -2.40351 1.06451 0
M  V30 34 C 5.67475 0.865112 -0.406001 0
M  V30 35 C 5.27168 1.75655 -1.394 0
M  V30 36 C 5.9488 2.93085 -1.63236 0
M  V30 37 C 7.06101 3.27623 -0.899013 0
M  V30 38 N 7.77316 4.49808 -1.1403 0
M  V30 39 C 7.46341 2.3949 0.0811789 0
M  V30 40 C 6.78876 1.21383 0.326604 0
M  V30 41 H -8.17667 -4.27193 -2.37189 0
M  V30 42 H -8.63084 -4.69113 -0.706086 0
M  V30 43 H -8.47108 -1.54199 -1.93891 0
M  V30 44 H -7.05196 0.409037 -1.20775 0
M  V30 45 H -4.5227 -2.22224 0.889427 0
M  V30 46 H -5.93058 -4.16249 0.164513 0
M  V30 47 H -4.13514 2.81387 -0.355338 0
M  V30 48 H -5.13436 4.83241 0.56093 0
M  V30 49 H -6.97009 4.74567 2.21544 0
M  V30 50 H -7.80951 2.57506 2.95628 0
M  V30 51 H -6.86661 0.546775 2.09015 0
M  V30 52 H -3.51152 -0.651004 -1.71587 0
M  V30 53 H -1.1256 -0.853135 -1.89213 0
M  V30 54 H -0.738911 0.829682 2.00509 0
M  V30 55 H -3.18193 1.03154 2.17329 0
M  V30 56 H 1.04104 1.61011 1.20755 0
M  V30 57 H 3.51251 1.45014 1.1044 0
M  V30 58 H 3.18944 -1.97532 -1.31856 0
M  V30 59 H 0.779211 -1.87172 -1.25506 0
M  V30 60 H 6.9815 -1.46365 -1.57531 0
M  V30 61 H 7.99939 -3.69169 -1.14993 0
M  V30 62 H 7.21623 -5.08491 0.651656 0
M  V30 63 H 5.38101 -4.27428 2.08136 0
M  V30 64 H 4.34239 -2.10621 1.7191 0
M  V30 65 H 4.40613 1.49817 -1.97214 0
M  V30 66 H 5.62227 3.61003 -2.40231 0
M  V30 67 H 8.26483 4.58938 -2.04251 0
M  V30 68 H 7.77131 5.24987 -0.401315 0
M  V30 69 H 8.35087 2.68144 0.658537 0
M  V30 70 H 7.1491 0.554881 1.11201 0
M  V30 END ATOM
M  V30 BEGIN BOND
M  V30 1 1 1 2
M  V30 2 2 2 3
M  V30 3 1 3 4
M  V30 4 2 4 5
M  V30 5 1 5 6
M  V30 6 2 6 7
M  V30 7 1 5 8
M  V30 8 1 8 9
M  V30 9 2 9 10
M  V30 10 1 10 11
M  V30 11 2 11 12
M  V30 12 1 12 13
M  V30 13 2 13 14
M  V30 14 1 8 15
M  V30 15 2 15 16
M  V30 16 1 16 17
M  V30 17 2 17 18
M  V30 18 1 18 19
M  V30 19 2 19 20
M  V30 20 1 18 21
M  V30 21 2 21 22
M  V30 22 1 22 23
M  V30 23 2 23 24
M  V30 24 1 24 25
M  V30 25 2 25 26
M  V30 26 1 24 27
M  V30 27 1 27 28
M  V30 28 2 28 29
M  V30 29 1 29 30
M  V30 30 2 30 31
M  V30 31 1 31 32
M  V30 32 2 32 33
M  V30 33 1 27 34
M  V30 34 2 34 35
M  V30 35 1 35 36
M  V30 36 2 36 37
M  V30 37 1 37 38
M  V30 38 1 37 39
M  V30 39 2 39 40
M  V30 40 1 7 2
M  V30 41 1 14 9
M  V30 42 1 20 15
M  V30 43 1 26 21
M  V30 44 1 33 28
M  V30 45 1 40 34
M  V30 46 1 1 41
M  V30 47 1 1 42
M  V30 48 1 3 43
M  V30 49 1 4 44
M  V30 50 1 6 45
M  V30 51 1 7 46
M  V30 52 1 10 47
M  V30 53 1 11 48
M  V30 54 1 12 49
M  V30 55 1 13 50
M  V30 56 1 14 51
M  V30 57 1 16 52
M  V30 58 1 17 53
M  V30 59 1 19 54
M  V30 60 1 20 55
M  V30 61 1 22 56
M  V30 62 1 23 57
M  V30 63 1 25 58
M  V30 64 1 26 59
M  V30 65 1 29 60
M  V30 66 1 30 61
M  V30 67 1 31 62
M  V30 68 1 32 63
M  V30 69 1 33 64
M  V30 70 1 35 65
M  V30 71 1 36 66
M  V30 72 1 38 67
M  V30 73 1 38 68
M  V30 74 1 39 69
M  V30 75 1 40 70
M  V30 END BOND
M  V30 END CTAB
M  END
