
     RDKit          3D

  0  0  0  0  0  0  0  0  0  0999 V3000
M  V30 BEGIN CTAB
M  V30 COUNTS 18 18 0 0 0
M  V30 BEGIN ATOM
M  V30 1 C 3.1281 -0.396166 0.467752 0
M  V30 2 N 1.73266 -0.0314958 0.232017 0
M  V30 3 N 1.19896 1.09383 0.0624428 0
M  V30 4 C -0.111952 1.11947 -0.177964 0
M  V30 5 N -1.02965 2.24147 -0.302062 0
M  V30 6 C -0.412539 -0.262477 -0.149834 0
M  V30 7 C -1.7271 -0.776491 -0.564273 0
M  V30 8 N -2.52254 -1.32302 0.432957 0
M  V30 9 N 0.710084 -0.927127 0.103399 0
M  V30 10 H 3.64839 0.17317 -0.420639 0
M  V30 11 H 3.61878 -0.0188196 1.36252 0
M  V30 12 H 3.37672 -1.42396 0.285063 0
M  V30 13 H -0.749677 3.20038 -0.557649 0
M  V30 14 H -2.03155 1.98464 -0.229102 0
M  V30 15 H -1.42641 -1.77602 -1.20624 0
M  V30 16 H -2.19253 -0.196875 -1.39168 0
M  V30 17 H -2.22238 -2.0858 0.983352 0
M  V30 18 H -2.98737 -0.594718 1.06994 0
M  V30 END ATOM
M  V30 BEGIN BOND
M  V30 1 1 1 2
M  V30 2 1 2 3
M  V30 3 2 3 4
M  V30 4 1 4 5
M  V30 5 1 4 6
M  V30 6 1 6 7
M  V30 7 1 7 8
M  V30 8 2 6 9
M  V30 9 1 9 2
M  V30 10 1 1 10
M  V30 11 1 1 11
M  V30 12 1 1 12
M  V30 13 1 5 13
M  V30 14 1 5 14
M  V30 15 1 7 15
M  V30 16 1 7 16
M  V30 17 1 8 17
M  V30 18 1 8 18
M  V30 END BOND
M  V30 END CTAB
M  END
