
     RDKit          3D

  0  0  0  0  0  0  0  0  0  0999 V3000
M  V30 BEGIN CTAB
M  V30 COUNTS 36 38 0 0 0
M  V30 BEGIN ATOM
M  V30 1 C -6.66677 -1.31741 0.510545 0
M  V30 2 C -5.29655 -0.771953 0.405627 0
M  V30 3 C -4.86629 -0.296399 -0.805067 0
M  V30 4 C -3.5885 0.218346 -0.917859 0
M  V30 5 C -2.71518 0.27618 0.146046 0
M  V30 6 C -3.16087 -0.20471 1.35422 0
M  V30 7 C -4.45073 -0.72829 1.48312 0
M  V30 8 C -1.37341 0.824981 0.000428283 0
M  V30 9 N -0.445969 0.937724 0.977116 0
M  V30 10 O 0.631701 1.47359 0.479745 0
M  V30 11 C 0.480538 1.73225 -0.797376 0
M  V30 12 N -0.774491 1.32507 -1.09326 0
M  V30 13 C 1.47354 2.34898 -1.74959 0
M  V30 14 S 2.47123 1.03286 -2.4761 0
M  V30 15 C 3.4745 0.304415 -1.19358 0
M  V30 16 N 4.6916 0.812631 -0.946565 0
M  V30 17 C 5.52324 0.31762 0.0146046 0
M  V30 18 N 6.80038 0.889016 0.237911 0
M  V30 19 C 5.09365 -0.750754 0.763539 0
M  V30 20 C 3.84274 -1.27232 0.509255 0
M  V30 21 N 3.05466 -0.734236 -0.466549 0
M  V30 22 N 3.4066 -2.37551 1.28807 0
M  V30 23 H -6.6971 -2.21981 1.1513 0
M  V30 24 H -7.33468 -0.520178 0.921202 0
M  V30 25 H -7.07588 -1.52928 -0.518137 0
M  V30 26 H -5.55289 -0.342614 -1.63746 0
M  V30 27 H -3.29654 0.581155 -1.89512 0
M  V30 28 H -2.54432 -0.198161 2.23632 0
M  V30 29 H -4.82671 -1.11316 2.42082 0
M  V30 30 H 0.874982 2.80949 -2.5821 0
M  V30 31 H 2.07009 3.09921 -1.22578 0
M  V30 32 H 7.49495 0.870588 -0.534986 0
M  V30 33 H 7.08466 1.32787 1.13376 0
M  V30 34 H 5.70482 -1.17929 1.53024 0
M  V30 35 H 2.83508 -2.28386 2.15703 0
M  V30 36 H 3.65794 -3.34404 0.997041 0
M  V30 END ATOM
M  V30 BEGIN BOND
M  V30 1 1 1 2
M  V30 2 2 2 3
M  V30 3 1 3 4
M  V30 4 2 4 5
M  V30 5 1 5 6
M  V30 6 2 6 7
M  V30 7 1 5 8
M  V30 8 2 8 9
M  V30 9 1 9 10
M  V30 10 1 10 11
M  V30 11 2 11 12
M  V30 12 1 11 13
M  V30 13 1 13 14
M  V30 14 1 14 15
M  V30 15 2 15 16
M  V30 16 1 16 17
M  V30 17 1 17 18
M  V30 18 2 17 19
M  V30 19 1 19 20
M  V30 20 2 20 21
M  V30 21 1 20 22
M  V30 22 1 7 2
M  V30 23 1 12 8
M  V30 24 1 21 15
M  V30 25 1 1 23
M  V30 26 1 1 24
M  V30 27 1 1 25
M  V30 28 1 3 26
M  V30 29 1 4 27
M  V30 30 1 6 28
M  V30 31 1 7 29
M  V30 32 1 13 30
M  V30 33 1 13 31
M  V30 34 1 18 32
M  V30 35 1 18 33
M  V30 36 1 19 34
M  V30 37 1 22 35
M  V30 38 1 22 36
M  V30 END BOND
M  V30 END CTAB
M  END
