
     RDKit          3D

  0  0  0  0  0  0  0  0  0  0999 V3000
M  V30 BEGIN CTAB
M  V30 COUNTS 26 27 0 0 0
M  V30 BEGIN ATOM
M  V30 1 N -2.44946 0.392561 1.683 0
M  V30 2 C -1.62502 0.912327 0.612117 0
M  V30 3 C -1.28091 -0.212826 -0.342891 0
M  V30 4 N -2.45272 -0.801528 -0.920148 0
M  V30 5 C -0.40541 -1.2572 0.347214 0
M  V30 6 C 0.929572 -0.574971 0.373679 0
M  V30 7 C 0.961675 0.313642 -0.672461 0
M  V30 8 C -0.34427 0.252027 -1.434 0
M  V30 9 C 2.10307 1.07885 -0.864341 0
M  V30 10 C 3.20257 0.979359 -0.0451706 0
M  V30 11 C 3.12754 0.0764462 0.990637 0
M  V30 12 C 2.00918 -0.699875 1.2106 0
M  V30 13 H -3.31737 0.935495 1.83999 0
M  V30 14 H -2.57435 -0.623098 1.6082 0
M  V30 15 H -2.25076 1.64492 0.0610816 0
M  V30 16 H -0.742544 1.44562 0.971717 0
M  V30 17 H -2.1323 -1.45658 -1.67509 0
M  V30 18 H -2.98265 -1.39478 -0.236026 0
M  V30 19 H -0.302054 -2.10258 -0.359759 0
M  V30 20 H -0.761303 -1.52395 1.33858 0
M  V30 21 H -0.612447 1.23033 -1.84362 0
M  V30 22 H -0.279851 -0.554134 -2.17895 0
M  V30 23 H 2.0934 1.7748 -1.70567 0
M  V30 24 H 4.10155 1.59498 -0.21181 0
M  V30 25 H 3.97858 -0.0208891 1.64902 0
M  V30 26 H 2.00629 -1.40894 2.0597 0
M  V30 END ATOM
M  V30 BEGIN BOND
M  V30 1 1 1 2
M  V30 2 1 2 3
M  V30 3 1 3 4
M  V30 4 1 3 5
M  V30 5 1 5 6
M  V30 6 2 6 7
M  V30 7 1 7 8
M  V30 8 1 7 9
M  V30 9 2 9 10
M  V30 10 1 10 11
M  V30 11 2 11 12
M  V30 12 1 8 3
M  V30 13 1 12 6
M  V30 14 1 1 13
M  V30 15 1 1 14
M  V30 16 1 2 15
M  V30 17 1 2 16
M  V30 18 1 4 17
M  V30 19 1 4 18
M  V30 20 1 5 19
M  V30 21 1 5 20
M  V30 22 1 8 21
M  V30 23 1 8 22
M  V30 24 1 9 23
M  V30 25 1 10 24
M  V30 26 1 11 25
M  V30 27 1 12 26
M  V30 END BOND
M  V30 END CTAB
M  END
