
     RDKit          3D

  0  0  0  0  0  0  0  0  0  0999 V3000
M  V30 BEGIN CTAB
M  V30 COUNTS 70 72 0 0 0
M  V30 BEGIN ATOM
M  V30 1 N 9.2376 -0.767365 -1.92317 0
M  V30 2 C 8.05266 -0.0989922 -2.26077 0
M  V30 3 N 7.81988 0.279316 -3.46426 0
M  V30 4 C 7.07168 0.164479 -1.2142 0
M  V30 5 C 7.35679 -0.284934 0.0872251 0
M  V30 6 C 6.45866 -0.0775037 1.10477 0
M  V30 7 C 5.28895 0.557599 0.883853 0
M  V30 8 C 4.29739 0.74173 1.97287 0
M  V30 9 N 3.11295 0.0131643 1.47435 0
M  V30 10 C 3.05123 -1.34393 1.56689 0
M  V30 11 O 3.96897 -2.04949 2.08212 0
M  V30 12 C 1.82963 -2.07896 1.02606 0
M  V30 13 N 0.861791 -1.33372 0.462932 0
M  V30 14 C -0.106499 -0.586377 -0.102688 0
M  V30 15 O 0.159811 0.157495 -1.16314 0
M  V30 16 C -1.54387 -0.419667 0.277087 0 CFG=1
M  V30 17 C -2.01283 -0.901793 1.56622 0
M  V30 18 C -1.92768 -2.37282 1.75194 0
M  V30 19 C -2.73021 -3.18128 0.827722 0
M  V30 20 C -2.18376 -3.65049 -0.334342 0
M  V30 21 C -2.90507 -4.42521 -1.24765 0
M  V30 22 C -4.22318 -4.73508 -0.975839 0
M  V30 23 C -4.78441 -4.27227 0.184358 0
M  V30 24 C -4.05948 -3.50212 1.08841 0
M  V30 25 N -1.87295 0.975361 0.0310519 0
M  V30 26 S -2.88788 1.13038 -1.33104 0
M  V30 27 O -2.2202 1.98377 -2.38265 0
M  V30 28 O -3.12323 -0.211966 -1.9933 0
M  V30 29 C -4.44544 1.75604 -0.857549 0
M  V30 30 C -4.44643 3.09125 -0.258253 0
M  V30 31 C -5.68119 3.58635 0.131225 0
M  V30 32 N -6.87907 2.79831 -0.0326375 0
M  V30 33 C -5.77817 4.83287 0.68086 0
M  V30 34 C -4.63326 5.57597 0.836497 0
M  V30 35 C -3.40362 5.09137 0.451904 0
M  V30 36 C -3.28971 3.82798 -0.106818 0
M  V30 37 C 4.96149 1.01842 -0.369404 0
M  V30 38 C 5.88871 0.797508 -1.39621 0
M  V30 39 H 9.36775 -1.75622 -2.19138 0
M  V30 40 H 9.98555 -0.275966 -1.40493 0
M  V30 41 H 6.94116 0.779017 -3.73175 0
M  V30 42 H 8.30362 -0.790587 0.246521 0
M  V30 43 H 6.75699 -0.460605 2.09052 0
M  V30 44 H 4.06339 1.77821 2.18542 0
M  V30 45 H 4.69336 0.249928 2.87332 0
M  V30 46 H 2.36508 0.572165 1.06008 0
M  V30 47 H 1.44954 -2.68338 1.90955 0
M  V30 48 H 2.31755 -2.87793 0.382303 0
M  V30 49 H 1.76528 -0.871557 -0.452859 0
M  V30 50 H -2.10884 -1.02068 -0.517869 0
M  V30 51 H -1.51627 -0.361834 2.44867 0
M  V30 52 H -3.08738 -0.535474 1.69348 0
M  V30 53 H -2.31249 -2.61676 2.80399 0
M  V30 54 H -0.920024 -2.80472 1.75331 0
M  V30 55 H -1.15262 -3.46882 -0.637559 0
M  V30 56 H -2.46375 -4.78556 -2.15205 0
M  V30 57 H -4.8419 -5.33228 -1.65395 0
M  V30 58 H -5.81559 -4.49943 0.432683 0
M  V30 59 H -4.55177 -3.16539 1.98403 0
M  V30 60 H -2.31561 1.37346 0.890012 0
M  V30 61 H -4.88499 1.06094 -0.0870236 0
M  V30 62 H -5.15319 1.7402 -1.73551 0
M  V30 63 H -7.62872 3.16738 -0.615296 0
M  V30 64 H -6.87894 1.88609 0.475003 0
M  V30 65 H -6.7565 5.20721 0.979122 0
M  V30 66 H -4.73188 6.56236 1.27409 0
M  V30 67 H -2.50699 5.68092 0.5703 0
M  V30 68 H -2.32039 3.45807 -0.404901 0
M  V30 69 H 4.03958 1.5348 -0.599935 0
M  V30 70 H 5.61893 1.17103 -2.38699 0
M  V30 END ATOM
M  V30 BEGIN BOND
M  V30 1 1 1 2
M  V30 2 2 2 3 CFG=2
M  V30 3 1 2 4
M  V30 4 2 4 5
M  V30 5 1 5 6
M  V30 6 2 6 7
M  V30 7 1 7 8
M  V30 8 1 8 9
M  V30 9 1 9 10
M  V30 10 2 10 11
M  V30 11 1 10 12
M  V30 12 1 12 13
M  V30 13 1 13 14
M  V30 14 2 14 15
M  V30 15 1 14 16
M  V30 16 1 16 17
M  V30 17 1 17 18
M  V30 18 1 18 19
M  V30 19 2 19 20
M  V30 20 1 20 21
M  V30 21 2 21 22
M  V30 22 1 22 23
M  V30 23 2 23 24
M  V30 24 1 16 25
M  V30 25 1 25 26
M  V30 26 2 26 27
M  V30 27 2 26 28
M  V30 28 1 26 29
M  V30 29 1 29 30
M  V30 30 2 30 31
M  V30 31 1 31 32
M  V30 32 1 31 33
M  V30 33 2 33 34
M  V30 34 1 34 35
M  V30 35 2 35 36
M  V30 36 1 7 37
M  V30 37 2 37 38
M  V30 38 1 38 4
M  V30 39 1 24 19
M  V30 40 1 36 30
M  V30 41 1 1 39
M  V30 42 1 1 40
M  V30 43 1 3 41
M  V30 44 1 5 42
M  V30 45 1 6 43
M  V30 46 1 8 44
M  V30 47 1 8 45
M  V30 48 1 9 46
M  V30 49 1 12 47
M  V30 50 1 12 48
M  V30 51 1 13 49
M  V30 52 1 16 50 CFG=3
M  V30 53 1 17 51
M  V30 54 1 17 52
M  V30 55 1 18 53
M  V30 56 1 18 54
M  V30 57 1 20 55
M  V30 58 1 21 56
M  V30 59 1 22 57
M  V30 60 1 23 58
M  V30 61 1 24 59
M  V30 62 1 25 60
M  V30 63 1 29 61
M  V30 64 1 29 62
M  V30 65 1 32 63
M  V30 66 1 32 64
M  V30 67 1 33 65
M  V30 68 1 34 66
M  V30 69 1 35 67
M  V30 70 1 36 68
M  V30 71 1 37 69
M  V30 72 1 38 70
M  V30 END BOND
M  V30 END CTAB
M  END
