
     RDKit          3D

  0  0  0  0  0  0  0  0  0  0999 V3000
M  V30 BEGIN CTAB
M  V30 COUNTS 22 22 0 0 0
M  V30 BEGIN ATOM
M  V30 1 N -2.96677 -1.10875 0.282957 0
M  V30 2 C -2.32243 -0.047164 1.00804 0
M  V30 3 C -1.14682 0.391334 0.2232 0
M  V30 4 C -1.2175 1.38947 -0.723441 0
M  V30 5 C -0.0867656 1.725 -1.39469 0
M  V30 6 C 1.12618 1.10181 -1.16107 0
M  V30 7 C 1.20763 0.106348 -0.220322 0
M  V30 8 C 0.0537126 -0.236853 0.465465 0
M  V30 9 C 2.46176 -0.589755 0.0714093 0
M  V30 10 N 3.52644 -0.275451 -0.559111 0
M  V30 11 N 2.51268 -1.61448 1.04993 0
M  V30 12 H -2.65079 -1.2279 -0.686695 0
M  V30 13 H -3.96942 -1.21224 0.457497 0
M  V30 14 H -2.01771 -0.427051 2.00897 0
M  V30 15 H -2.99427 0.815358 1.20213 0
M  V30 16 H -2.18608 1.8692 -0.892617 0
M  V30 17 H -0.132737 2.51336 -2.14539 0
M  V30 18 H 2.00017 1.42577 -1.7426 0
M  V30 19 H 0.104034 -1.03475 1.22409 0
M  V30 20 H 3.65513 0.424478 -1.27747 0
M  V30 21 H 3.30041 -1.68753 1.71183 0
M  V30 22 H 1.74314 -2.30021 1.09788 0
M  V30 END ATOM
M  V30 BEGIN BOND
M  V30 1 1 1 2
M  V30 2 1 2 3
M  V30 3 2 3 4
M  V30 4 1 4 5
M  V30 5 2 5 6
M  V30 6 1 6 7
M  V30 7 2 7 8
M  V30 8 1 7 9
M  V30 9 2 9 10 CFG=2
M  V30 10 1 9 11
M  V30 11 1 8 3
M  V30 12 1 1 12
M  V30 13 1 1 13
M  V30 14 1 2 14
M  V30 15 1 2 15
M  V30 16 1 4 16
M  V30 17 1 5 17
M  V30 18 1 6 18
M  V30 19 1 8 19
M  V30 20 1 10 20
M  V30 21 1 11 21
M  V30 22 1 11 22
M  V30 END BOND
M  V30 END CTAB
M  END
