
     RDKit          3D

  0  0  0  0  0  0  0  0  0  0999 V3000
M  V30 BEGIN CTAB
M  V30 COUNTS 65 68 0 0 0
M  V30 BEGIN ATOM
M  V30 1 C 11.74 -2.05371 -0.43521 0
M  V30 2 O 10.6039 -1.63193 -1.15519 0
M  V30 3 C 9.4151 -1.39135 -0.489763 0
M  V30 4 C 8.32811 -0.979449 -1.23848 0
M  V30 5 C 7.12266 -0.730791 -0.596959 0
M  V30 6 C 6.97732 -0.881978 0.761454 0
M  V30 7 O 5.78374 -0.638483 1.41607 0
M  V30 8 C 4.66761 -0.222045 0.716177 0
M  V30 9 C 4.41407 1.11541 0.521693 0
M  V30 10 C 3.29968 1.54343 -0.1774 0
M  V30 11 C 2.39645 0.644581 -0.7084 0
M  V30 12 C 2.65453 -0.695111 -0.511079 0
M  V30 13 C 3.76502 -1.11701 0.185444 0
M  V30 14 C 1.23449 1.15563 -1.43801 0
M  V30 15 O 0.0316972 0.510753 -1.10061 0
M  V30 16 C -1.05745 1.15307 -0.538949 0
M  V30 17 C -2.22414 0.47342 -0.224489 0
M  V30 18 C -3.3161 1.0807 0.331179 0
M  V30 19 N -3.20126 2.41602 0.566783 0
M  V30 20 C -2.08785 3.11114 0.276402 0
M  V30 21 N -1.97153 4.50052 0.522946 0
M  V30 22 N -1.03738 2.46876 -0.270334 0
M  V30 23 C -4.54722 0.368508 0.664647 0
M  V30 24 C -4.74236 -0.973836 0.455998 0
M  V30 25 C -5.94133 -1.60557 0.794689 0
M  V30 26 C -6.98672 -0.899001 1.35758 0
M  V30 27 C -8.2655 -1.56481 1.72415 0
M  V30 28 C -9.27793 -1.58943 0.621725 0 CFG=2
M  V30 29 N -8.82675 -2.27329 -0.556581 0
M  V30 30 C -9.8618 -0.253246 0.359526 0
M  V30 31 O -9.90596 0.28393 -0.92545 0
M  V30 32 O -10.3188 0.385754 1.33465 0
M  V30 33 C -6.7904 0.448823 1.56705 0
M  V30 34 C -5.60118 1.07424 1.23081 0
M  V30 35 C 1.38318 1.09263 -2.9357 0
M  V30 36 F 1.57138 -0.184065 -3.40014 0
M  V30 37 F 2.37395 1.95966 -3.39954 0
M  V30 38 F 0.195325 1.55112 -3.48099 0
M  V30 39 C 8.05921 -1.29169 1.50484 0
M  V30 40 C 9.25689 -1.53733 0.857668 0
M  V30 41 H 11.425 -2.96497 0.135451 0
M  V30 42 H 12.5627 -2.33627 -1.10627 0
M  V30 43 H 12.1012 -1.30878 0.288882 0
M  V30 44 H 8.42136 -0.854576 -2.3085 0
M  V30 45 H 6.29994 -0.410769 -1.22206 0
M  V30 46 H 5.11999 1.82602 0.936427 0
M  V30 47 H 3.16174 2.60816 -0.292794 0
M  V30 48 H 1.98402 -1.41102 -0.903799 0
M  V30 49 H 3.94698 -2.18987 0.328318 0
M  V30 50 H 1.09347 2.22332 -1.1709 0
M  V30 51 H -2.24966 -0.581969 -0.436351 0
M  V30 52 H -1.06013 4.97286 0.658443 0
M  V30 53 H -2.83873 5.06717 0.569343 0
M  V30 54 H -3.94847 -1.55641 0.0186424 0
M  V30 55 H -6.0578 -2.67351 0.613667 0
M  V30 56 H -8.0204 -2.58285 2.08096 0
M  V30 57 H -8.7241 -1.03973 2.59712 0
M  V30 58 H -10.1366 -2.2095 1.01926 0
M  V30 59 H -9.22697 -1.76334 -1.3928 0
M  V30 60 H -9.16968 -3.2588 -0.634863 0
M  V30 61 H -9.0576 0.544204 -1.4051 0
M  V30 62 H -7.5908 1.01703 2.00635 0
M  V30 63 H -5.45456 2.14443 1.40087 0
M  V30 64 H 8.01252 -1.42955 2.57345 0
M  V30 65 H 10.0939 -1.85781 1.45806 0
M  V30 END ATOM
M  V30 BEGIN BOND
M  V30 1 1 1 2
M  V30 2 1 2 3
M  V30 3 2 3 4
M  V30 4 1 4 5
M  V30 5 2 5 6
M  V30 6 1 6 7
M  V30 7 1 7 8
M  V30 8 2 8 9
M  V30 9 1 9 10
M  V30 10 2 10 11
M  V30 11 1 11 12
M  V30 12 2 12 13
M  V30 13 1 11 14
M  V30 14 1 14 15
M  V30 15 1 15 16
M  V30 16 2 16 17
M  V30 17 1 17 18
M  V30 18 2 18 19
M  V30 19 1 19 20
M  V30 20 1 20 21
M  V30 21 2 20 22
M  V30 22 1 18 23
M  V30 23 2 23 24
M  V30 24 1 24 25
M  V30 25 2 25 26
M  V30 26 1 26 27
M  V30 27 1 27 28
M  V30 28 1 28 29
M  V30 29 1 28 30
M  V30 30 1 30 31
M  V30 31 2 30 32
M  V30 32 1 26 33
M  V30 33 2 33 34
M  V30 34 1 14 35
M  V30 35 1 35 36
M  V30 36 1 35 37
M  V30 37 1 35 38
M  V30 38 1 6 39
M  V30 39 2 39 40
M  V30 40 1 40 3
M  V30 41 1 13 8
M  V30 42 1 22 16
M  V30 43 1 34 23
M  V30 44 1 1 41
M  V30 45 1 1 42
M  V30 46 1 1 43
M  V30 47 1 4 44
M  V30 48 1 5 45
M  V30 49 1 9 46
M  V30 50 1 10 47
M  V30 51 1 12 48
M  V30 52 1 13 49
M  V30 53 1 14 50
M  V30 54 1 17 51
M  V30 55 1 21 52
M  V30 56 1 21 53
M  V30 57 1 24 54
M  V30 58 1 25 55
M  V30 59 1 27 56
M  V30 60 1 27 57
M  V30 61 1 28 58 CFG=1
M  V30 62 1 29 59
M  V30 63 1 29 60
M  V30 64 1 31 61
M  V30 65 1 33 62
M  V30 66 1 34 63
M  V30 67 1 39 64
M  V30 68 1 40 65
M  V30 END BOND
M  V30 END CTAB
M  END
