
     RDKit          3D

  0  0  0  0  0  0  0  0  0  0999 V3000
M  V30 BEGIN CTAB
M  V30 COUNTS 27 27 0 0 0
M  V30 BEGIN ATOM
M  V30 1 N 5.45144 0.719994 0.410513 0
M  V30 2 C 4.41811 0.479226 1.34234 0
M  V30 3 S 4.4166 1.32012 2.73259 0
M  V30 4 N 3.40543 -0.486263 1.05113 0
M  V30 5 N 3.43128 -1.18749 -0.139835 0
M  V30 6 C 2.36767 -1.367 -0.835136 0
M  V30 7 C 1.09627 -0.813148 -0.350834 0
M  V30 8 C -0.0223594 -0.979074 -1.04294 0
M  V30 9 C -1.32526 -0.478993 -0.662167 0
M  V30 10 C -2.40123 -0.72795 -1.48083 0
M  V30 11 C -3.65248 -0.266971 -1.14813 0
M  V30 12 C -3.84633 0.457797 0.0218418 0
M  V30 13 N -5.15283 0.923736 0.342915 0
M  V30 14 C -2.76854 0.708532 0.844208 0
M  V30 15 C -1.51574 0.235308 0.491123 0
M  V30 16 H 5.2462 1.24679 -0.457366 0
M  V30 17 H 6.41655 0.380879 0.57369 0
M  V30 18 H 2.65169 -0.63828 1.76981 0
M  V30 19 H 2.41243 -1.91501 -1.75694 0
M  V30 20 H 1.04021 -0.259895 0.575791 0
M  V30 21 H 0.0999385 -1.54979 -1.97528 0
M  V30 22 H -2.31435 -1.28805 -2.40793 0
M  V30 23 H -4.52816 -0.438351 -1.76094 0
M  V30 24 H -5.40686 1.92781 0.307506 0
M  V30 25 H -5.86326 0.221877 0.619813 0
M  V30 26 H -2.9409 1.27386 1.74909 0
M  V30 27 H -0.715513 0.470684 1.18596 0
M  V30 END ATOM
M  V30 BEGIN BOND
M  V30 1 1 1 2
M  V30 2 2 2 3
M  V30 3 1 2 4
M  V30 4 1 4 5
M  V30 5 2 5 6
M  V30 6 1 6 7
M  V30 7 2 7 8
M  V30 8 1 8 9
M  V30 9 2 9 10
M  V30 10 1 10 11
M  V30 11 2 11 12
M  V30 12 1 12 13
M  V30 13 1 12 14
M  V30 14 2 14 15
M  V30 15 1 15 9
M  V30 16 1 1 16
M  V30 17 1 1 17
M  V30 18 1 4 18
M  V30 19 1 6 19
M  V30 20 1 7 20
M  V30 21 1 8 21
M  V30 22 1 10 22
M  V30 23 1 11 23
M  V30 24 1 13 24
M  V30 25 1 13 25
M  V30 26 1 14 26
M  V30 27 1 15 27
M  V30 END BOND
M  V30 END CTAB
M  END
