
     RDKit          3D

  0  0  0  0  0  0  0  0  0  0999 V3000
M  V30 BEGIN CTAB
M  V30 COUNTS 23 23 0 0 0
M  V30 BEGIN ATOM
M  V30 1 C 3.53605 -0.596207 0.223676 0
M  V30 2 O 2.50345 0.341015 0.1469 0
M  V30 3 C 1.19375 -0.058667 0.0593772 0
M  V30 4 C 0.880691 -1.38915 0.0461177 0
M  V30 5 C -0.441252 -1.78782 -0.0422546 0
M  V30 6 C -1.45668 -0.858733 -0.117803 0
M  V30 7 C -1.15167 0.476307 -0.105125 0
M  V30 8 C 0.175385 0.862236 -0.0163209 0
M  V30 9 N 0.469514 2.27687 -0.00488561 0
M  V30 10 C -2.21853 1.50183 -0.18479 0
M  V30 11 F -1.73193 2.78407 -0.159298 0
M  V30 12 F -3.11596 1.35845 0.883195 0
M  V30 13 F -2.97652 1.33263 -1.32906 0
M  V30 14 N -2.78522 -1.33728 -0.206154 0
M  V30 15 H 3.6169 -1.01816 1.24503 0
M  V30 16 H 3.44069 -1.41971 -0.53488 0
M  V30 17 H 4.48278 -0.059262 -0.0747955 0
M  V30 18 H 1.64434 -2.14726 0.10331 0
M  V30 19 H -0.653486 -2.85059 -0.0502522 0
M  V30 20 H 0.64396 2.81414 -0.880142 0
M  V30 21 H 0.511931 2.78519 0.904478 0
M  V30 22 H -3.43977 -1.10744 0.564237 0
M  V30 23 H -3.12842 -1.90246 -1.00087 0
M  V30 END ATOM
M  V30 BEGIN BOND
M  V30 1 1 1 2
M  V30 2 1 2 3
M  V30 3 2 3 4
M  V30 4 1 4 5
M  V30 5 2 5 6
M  V30 6 1 6 7
M  V30 7 2 7 8
M  V30 8 1 8 9
M  V30 9 1 7 10
M  V30 10 1 10 11
M  V30 11 1 10 12
M  V30 12 1 10 13
M  V30 13 1 6 14
M  V30 14 1 8 3
M  V30 15 1 1 15
M  V30 16 1 1 16
M  V30 17 1 1 17
M  V30 18 1 4 18
M  V30 19 1 5 19
M  V30 20 1 9 20
M  V30 21 1 9 21
M  V30 22 1 14 22
M  V30 23 1 14 23
M  V30 END BOND
M  V30 END CTAB
M  END
