
     RDKit          3D

  0  0  0  0  0  0  0  0  0  0999 V3000
M  V30 BEGIN CTAB
M  V30 COUNTS 25 26 0 0 0
M  V30 BEGIN ATOM
M  V30 1 N 4.48526 -0.492608 -0.124472 0
M  V30 2 C 3.07537 -0.233924 -0.0243525 0
M  V30 3 C 2.26757 -1.04086 0.740312 0
M  V30 4 C 0.899867 -0.787548 0.835654 0
M  V30 5 C 0.3019 0.260146 0.183017 0
M  V30 6 C 1.14803 1.06768 -0.589758 0
M  V30 7 C 2.49986 0.824942 -0.689408 0
M  V30 8 C -1.11866 0.525128 0.266901 0
M  V30 9 N -1.59478 1.76542 0.522874 0
M  V30 10 C -2.9209 2.0222 0.591642 0
M  V30 11 C -3.85334 1.02438 0.402618 0
M  V30 12 C -3.37806 -0.241511 0.141264 0
M  V30 13 C -2.01007 -0.482864 0.0748444 0
M  V30 14 N -1.55422 -1.79091 -0.207895 0
M  V30 15 H 5.06305 -0.402048 0.728842 0
M  V30 16 H 4.90114 -0.761988 -1.03245 0
M  V30 17 H 2.74034 -1.86759 1.25474 0
M  V30 18 H 0.324207 -1.4544 1.45973 0
M  V30 19 H 0.680669 1.89713 -1.10731 0
M  V30 20 H 3.15332 1.44903 -1.28655 0
M  V30 21 H -3.28682 3.02874 0.799112 0
M  V30 22 H -4.91584 1.2565 0.463217 0
M  V30 23 H -4.11395 -1.02343 -0.00679687 0
M  V30 24 H -0.814241 -1.96891 -0.941964 0
M  V30 25 H -1.97969 -2.57271 0.339199 0
M  V30 END ATOM
M  V30 BEGIN BOND
M  V30 1 1 1 2
M  V30 2 2 2 3
M  V30 3 1 3 4
M  V30 4 2 4 5
M  V30 5 1 5 6
M  V30 6 2 6 7
M  V30 7 1 5 8
M  V30 8 2 8 9
M  V30 9 1 9 10
M  V30 10 2 10 11
M  V30 11 1 11 12
M  V30 12 2 12 13
M  V30 13 1 13 14
M  V30 14 1 7 2
M  V30 15 1 13 8
M  V30 16 1 1 15
M  V30 17 1 1 16
M  V30 18 1 3 17
M  V30 19 1 4 18
M  V30 20 1 6 19
M  V30 21 1 7 20
M  V30 22 1 10 21
M  V30 23 1 11 22
M  V30 24 1 12 23
M  V30 25 1 14 24
M  V30 26 1 14 25
M  V30 END BOND
M  V30 END CTAB
M  END
