
     RDKit          3D

  0  0  0  0  0  0  0  0  0  0999 V3000
M  V30 BEGIN CTAB
M  V30 COUNTS 30 30 0 0 0
M  V30 BEGIN ATOM
M  V30 1 C 2.94093 -0.882247 0.907115 0
M  V30 2 C 2.57246 -0.565094 -0.516448 0
M  V30 3 C 3.18849 0.719975 -0.98916 0
M  V30 4 C 1.08012 -0.626206 -0.647663 0
M  V30 5 C 0.453793 0.370452 0.276113 0
M  V30 6 C -1.02509 0.387525 0.19551 0
M  V30 7 C -1.81154 -0.581799 0.764451 0
M  V30 8 N -1.22754 -1.66421 1.47567 0
M  V30 9 N -3.17434 -0.536655 0.667331 0
M  V30 10 C -3.79206 0.457431 0.0116992 0
M  V30 11 N -5.22853 0.501339 -0.0943355 0
M  V30 12 N -3.02658 1.40845 -0.5464 0
M  V30 13 C -1.68254 1.40651 -0.476883 0
M  V30 14 O -0.90942 2.4151 -1.07172 0
M  V30 15 H 2.77045 -0.0539352 1.611 0
M  V30 16 H 4.03944 -1.11992 1.00514 0
M  V30 17 H 2.33484 -1.78349 1.20217 0
M  V30 18 H 3.06899 -1.37365 -1.13336 0
M  V30 19 H 2.58445 1.61435 -0.873202 0
M  V30 20 H 3.43347 0.640438 -2.08236 0
M  V30 21 H 4.12126 0.886333 -0.377467 0
M  V30 22 H 0.763814 -0.509809 -1.69922 0
M  V30 23 H 0.800993 -1.67837 -0.35367 0
M  V30 24 H 0.763172 0.0702267 1.32097 0
M  V30 25 H 0.855379 1.37838 0.148029 0
M  V30 26 H -1.38321 -2.6433 1.12239 0
M  V30 27 H -0.649527 -1.49982 2.34089 0
M  V30 28 H -5.70881 1.43132 -0.178737 0
M  V30 29 H -5.79081 -0.375123 -0.0885484 0
M  V30 30 H -0.362065 2.20579 -1.9193 0
M  V30 END ATOM
M  V30 BEGIN BOND
M  V30 1 1 1 2
M  V30 2 1 2 3
M  V30 3 1 2 4
M  V30 4 1 4 5
M  V30 5 1 5 6
M  V30 6 2 6 7
M  V30 7 1 7 8
M  V30 8 1 7 9
M  V30 9 2 9 10
M  V30 10 1 10 11
M  V30 11 1 10 12
M  V30 12 2 12 13
M  V30 13 1 13 14
M  V30 14 1 13 6
M  V30 15 1 1 15
M  V30 16 1 1 16
M  V30 17 1 1 17
M  V30 18 1 2 18
M  V30 19 1 3 19
M  V30 20 1 3 20
M  V30 21 1 3 21
M  V30 22 1 4 22
M  V30 23 1 4 23
M  V30 24 1 5 24
M  V30 25 1 5 25
M  V30 26 1 8 26
M  V30 27 1 8 27
M  V30 28 1 11 28
M  V30 29 1 11 29
M  V30 30 1 14 30
M  V30 END BOND
M  V30 END CTAB
M  END
