
     RDKit          3D

  0  0  0  0  0  0  0  0  0  0999 V3000
M  V30 BEGIN CTAB
M  V30 COUNTS 34 36 0 0 0
M  V30 BEGIN ATOM
M  V30 1 N -3.88546 3.0718 -0.222945 0
M  V30 2 C -3.3911 1.73995 -0.173549 0
M  V30 3 C -4.21255 0.635717 -0.209131 0
M  V30 4 C -3.66189 -0.628169 -0.157169 0
M  V30 5 N -4.53819 -1.76405 -0.195764 0
M  V30 6 C -2.30164 -0.847223 -0.0695263 0
M  V30 7 C -1.45826 0.271913 -0.0327886 0
M  V30 8 C -2.03764 1.51497 -0.0862461 0
M  V30 9 C -0.0169799 0.0804994 0.0595558 0
M  V30 10 O 0.665191 -1.02762 0.117598 0
M  V30 11 C 1.95516 -0.809649 0.19475 0
M  V30 12 C 2.12404 0.553256 0.186047 0
M  V30 13 N 0.877016 1.07929 0.101081 0
M  V30 14 C 3.38614 1.08978 0.256966 0
M  V30 15 C 4.47529 0.253215 0.336481 0
M  V30 16 C 4.32504 -1.12276 0.346532 0
M  V30 17 C 3.06104 -1.67073 0.275654 0
M  V30 18 C 5.84111 0.881717 0.412524 0
M  V30 19 C -1.75907 -2.21987 -0.0164931 0
M  V30 20 H -3.30201 3.77167 -0.732902 0
M  V30 21 H -4.77855 3.31151 0.22971 0
M  V30 22 H -5.27678 0.823609 -0.277932 0
M  V30 23 H -4.54972 -2.47752 0.55748 0
M  V30 24 H -5.19196 -1.89534 -0.997336 0
M  V30 25 H -1.39538 2.38753 -0.0585584 0
M  V30 26 H 3.47644 2.17162 0.247336 0
M  V30 27 H 5.19438 -1.76443 0.409632 0
M  V30 28 H 2.87777 -2.73676 0.279274 0
M  V30 29 H 6.61059 0.109638 0.271513 0
M  V30 30 H 5.91089 1.37447 1.3936 0
M  V30 31 H 5.95639 1.66325 -0.37429 0
M  V30 32 H -2.60975 -2.92524 -0.0988102 0
M  V30 33 H -1.27979 -2.44887 0.970331 0
M  V30 34 H -1.08979 -2.44719 -0.871596 0
M  V30 END ATOM
M  V30 BEGIN BOND
M  V30 1 1 1 2
M  V30 2 2 2 3
M  V30 3 1 3 4
M  V30 4 1 4 5
M  V30 5 2 4 6
M  V30 6 1 6 7
M  V30 7 2 7 8
M  V30 8 1 7 9
M  V30 9 1 9 10
M  V30 10 1 10 11
M  V30 11 2 11 12
M  V30 12 1 12 13
M  V30 13 1 12 14
M  V30 14 2 14 15
M  V30 15 1 15 16
M  V30 16 2 16 17
M  V30 17 1 15 18
M  V30 18 1 6 19
M  V30 19 1 8 2
M  V30 20 2 13 9
M  V30 21 1 17 11
M  V30 22 1 1 20
M  V30 23 1 1 21
M  V30 24 1 3 22
M  V30 25 1 5 23
M  V30 26 1 5 24
M  V30 27 1 8 25
M  V30 28 1 14 26
M  V30 29 1 16 27
M  V30 30 1 17 28
M  V30 31 1 18 29
M  V30 32 1 18 30
M  V30 33 1 18 31
M  V30 34 1 19 32
M  V30 35 1 19 33
M  V30 36 1 19 34
M  V30 END BOND
M  V30 END CTAB
M  END
