
     RDKit          3D

  0  0  0  0  0  0  0  0  0  0999 V3000
M  V30 BEGIN CTAB
M  V30 COUNTS 47 50 0 0 0
M  V30 BEGIN ATOM
M  V30 1 C 6.55476 -0.903821 -0.729311 0
M  V30 2 S 5.90267 -1.1066 0.904693 0
M  V30 3 O 7.03704 -0.905463 1.86935 0
M  V30 4 O 5.42596 -2.52579 1.10318 0
M  V30 5 N 4.62013 -0.037448 1.24621 0
M  V30 6 C 3.38252 0.00306253 0.555688 0
M  V30 7 C 2.22313 0.0705573 1.31587 0
M  V30 8 C 0.987714 0.109463 0.701963 0
M  V30 9 C 0.84379 0.0839231 -0.666712 0
M  V30 10 N -0.401071 0.121846 -1.33609 0
M  V30 11 C -1.65022 0.19156 -0.642404 0
M  V30 12 C -2.32955 -0.9576 -0.265712 0
M  V30 13 C -1.82476 -2.21067 -0.546577 0
M  V30 14 C -2.50048 -3.35341 -0.17189 0
M  V30 15 C -3.70567 -3.30036 0.497344 0
M  V30 16 N -4.39508 -4.50045 0.879588 0
M  V30 17 C -4.217 -2.05094 0.781836 0
M  V30 18 C -3.53531 -0.900794 0.403834 0
M  V30 19 N -4.02107 0.328012 0.674127 0
M  V30 20 C -3.3769 1.45959 0.316956 0
M  V30 21 C -2.17013 1.43631 -0.353139 0
M  V30 22 C -1.52973 2.60623 -0.708208 0
M  V30 23 C -2.05529 3.8481 -0.415802 0
M  V30 24 N -1.3944 5.05028 -0.782218 0
M  V30 25 C -3.26476 3.87723 0.2558 0
M  V30 26 C -3.90021 2.70484 0.608111 0
M  V30 27 C 2.00189 0.0170985 -1.40336 0
M  V30 28 C 3.25457 -0.0229783 -0.81018 0
M  V30 29 H 6.49919 0.175751 -1.03652 0
M  V30 30 H 7.6187 -1.24679 -0.751257 0
M  V30 31 H 6.01425 -1.57239 -1.42102 0
M  V30 32 H 4.7069 0.670999 2.02665 0
M  V30 33 H 2.30534 0.0920579 2.39566 0
M  V30 34 H 0.12235 0.161607 1.34575 0
M  V30 35 H -0.461533 0.100315 -2.37666 0
M  V30 36 H -0.899994 -2.30518 -1.06011 0
M  V30 37 H -2.11599 -4.35435 -0.385845 0
M  V30 38 H -4.99202 -4.57383 1.71654 0
M  V30 39 H -4.30707 -5.37964 0.28993 0
M  V30 40 H -5.16902 -1.98431 1.3105 0
M  V30 41 H -0.580769 2.58132 -1.23516 0
M  V30 42 H -1.44399 5.89196 -0.17361 0
M  V30 43 H -0.845114 5.12653 -1.66229 0
M  V30 44 H -3.69441 4.84942 0.494829 0
M  V30 45 H -4.86079 2.71529 1.14151 0
M  V30 46 H 1.99695 -0.00791377 -2.49202 0
M  V30 47 H 4.14446 -0.0726184 -1.40984 0
M  V30 END ATOM
M  V30 BEGIN BOND
M  V30 1 1 1 2
M  V30 2 2 2 3
M  V30 3 2 2 4
M  V30 4 1 2 5
M  V30 5 1 5 6
M  V30 6 2 6 7
M  V30 7 1 7 8
M  V30 8 2 8 9
M  V30 9 1 9 10
M  V30 10 1 10 11
M  V30 11 1 11 12
M  V30 12 2 12 13
M  V30 13 1 13 14
M  V30 14 2 14 15
M  V30 15 1 15 16
M  V30 16 1 15 17
M  V30 17 2 17 18
M  V30 18 1 18 19
M  V30 19 2 19 20
M  V30 20 1 20 21
M  V30 21 1 21 22
M  V30 22 2 22 23
M  V30 23 1 23 24
M  V30 24 1 23 25
M  V30 25 2 25 26
M  V30 26 1 9 27
M  V30 27 2 27 28
M  V30 28 1 28 6
M  V30 29 2 21 11
M  V30 30 1 18 12
M  V30 31 1 26 20
M  V30 32 1 1 29
M  V30 33 1 1 30
M  V30 34 1 1 31
M  V30 35 1 5 32
M  V30 36 1 7 33
M  V30 37 1 8 34
M  V30 38 1 10 35
M  V30 39 1 13 36
M  V30 40 1 14 37
M  V30 41 1 16 38
M  V30 42 1 16 39
M  V30 43 1 17 40
M  V30 44 1 22 41
M  V30 45 1 24 42
M  V30 46 1 24 43
M  V30 47 1 25 44
M  V30 48 1 26 45
M  V30 49 1 27 46
M  V30 50 1 28 47
M  V30 END BOND
M  V30 END CTAB
M  END
