
     RDKit          3D

  0  0  0  0  0  0  0  0  0  0999 V3000
M  V30 BEGIN CTAB
M  V30 COUNTS 47 48 0 0 0
M  V30 BEGIN ATOM
M  V30 1 N 2.44568 3.38511 -0.0633036 0
M  V30 2 C 1.1778 2.91452 0.240721 0
M  V30 3 C 0.776459 1.72834 -0.638031 0
M  V30 4 C 1.7403 0.63383 -0.432446 0
M  V30 5 C 2.61345 0.326339 -1.46298 0
M  V30 6 C 3.50446 -0.703091 -1.2415 0
M  V30 7 C 3.53743 -1.40731 -0.0483022 0
M  V30 8 C 2.66301 -1.09309 0.972566 0
M  V30 9 C 1.76381 -0.0614751 0.761994 0
M  V30 10 C 2.64985 -1.75726 2.17783 0
M  V30 11 C 3.55636 -2.77974 2.35893 0
M  V30 12 C 4.43776 -3.10901 1.35223 0
M  V30 13 C 4.44367 -2.43808 0.14803 0
M  V30 14 N -0.562733 1.3392 -0.173982 0
M  V30 15 C -1.69244 1.42314 -1.01983 0
M  V30 16 O -1.49934 1.851 -2.18992 0
M  V30 17 C -3.01025 1.02009 -0.511343 0 CFG=2
M  V30 18 C -3.19753 -0.446288 -0.29055 0
M  V30 19 C -2.25753 -1.07434 0.697726 0
M  V30 20 C -4.60573 -0.609237 0.303649 0
M  V30 21 C -3.22931 -1.22628 -1.59729 0
M  V30 22 N -4.05121 1.39744 -1.48557 0
M  V30 23 H 3.09114 2.85577 -0.580798 0
M  V30 24 H 2.56641 4.35575 -0.0373046 0
M  V30 25 H 1.07827 2.56945 1.27952 0
M  V30 26 H 0.424535 3.73608 0.111703 0
M  V30 27 H 0.767321 2.07255 -1.67595 0
M  V30 28 H 2.60399 0.865085 -2.4043 0
M  V30 29 H 4.20656 -0.981278 -2.01511 0
M  V30 30 H 1.08456 0.176592 1.56574 0
M  V30 31 H 1.94835 -1.49607 2.98066 0
M  V30 32 H 3.52436 -3.28587 3.3171 0
M  V30 33 H 5.14325 -3.90868 1.50011 0
M  V30 34 H 5.13196 -2.6924 -0.643089 0
M  V30 35 H -0.612546 1.0128 0.803196 0
M  V30 36 H -3.2301 1.56073 0.41974 0
M  V30 37 H -2.28873 -0.459917 1.62478 0
M  V30 38 H -2.67648 -2.10007 0.917748 0
M  V30 39 H -1.23787 -1.2299 0.324627 0
M  V30 40 H -4.77885 -1.63002 0.662554 0
M  V30 41 H -5.29878 -0.320689 -0.534788 0
M  V30 42 H -4.73087 0.154435 1.09282 0
M  V30 43 H -2.57103 -0.699105 -2.31562 0
M  V30 44 H -4.25498 -1.18499 -2.02052 0
M  V30 45 H -2.97641 -2.28524 -1.45378 0
M  V30 46 H -3.74264 1.22868 -2.45621 0
M  V30 47 H -4.37541 2.3725 -1.30604 0
M  V30 END ATOM
M  V30 BEGIN BOND
M  V30 1 1 1 2
M  V30 2 1 2 3
M  V30 3 1 3 4
M  V30 4 2 4 5
M  V30 5 1 5 6
M  V30 6 2 6 7
M  V30 7 1 7 8
M  V30 8 2 8 9
M  V30 9 1 8 10
M  V30 10 2 10 11
M  V30 11 1 11 12
M  V30 12 2 12 13
M  V30 13 1 3 14
M  V30 14 1 14 15
M  V30 15 2 15 16
M  V30 16 1 15 17
M  V30 17 1 17 18
M  V30 18 1 18 19
M  V30 19 1 18 20
M  V30 20 1 18 21
M  V30 21 1 17 22
M  V30 22 1 9 4
M  V30 23 1 13 7
M  V30 24 1 1 23
M  V30 25 1 1 24
M  V30 26 1 2 25
M  V30 27 1 2 26
M  V30 28 1 3 27
M  V30 29 1 5 28
M  V30 30 1 6 29
M  V30 31 1 9 30
M  V30 32 1 10 31
M  V30 33 1 11 32
M  V30 34 1 12 33
M  V30 35 1 13 34
M  V30 36 1 14 35
M  V30 37 1 17 36 CFG=1
M  V30 38 1 19 37
M  V30 39 1 19 38
M  V30 40 1 19 39
M  V30 41 1 20 40
M  V30 42 1 20 41
M  V30 43 1 20 42
M  V30 44 1 21 43
M  V30 45 1 21 44
M  V30 46 1 21 45
M  V30 47 1 22 46
M  V30 48 1 22 47
M  V30 END BOND
M  V30 END CTAB
M  END
