
     RDKit          3D

  0  0  0  0  0  0  0  0  0  0999 V3000
M  V30 BEGIN CTAB
M  V30 COUNTS 18 18 0 0 0
M  V30 BEGIN ATOM
M  V30 1 N 0.336039 2.054 0.591541 0
M  V30 2 C -0.523943 0.971587 0.302991 0
M  V30 3 N -1.83296 0.97132 0.608236 0
M  V30 4 C -2.65548 -0.0576425 0.33514 0
M  V30 5 C -2.13833 -1.18175 -0.293471 0
M  V30 6 Br -3.29729 -2.65309 -0.688005 0
M  V30 7 C -0.795421 -1.19961 -0.614817 0
M  V30 8 C 0.0271775 -0.133793 -0.325083 0
M  V30 9 S 1.7213 -0.172841 -0.737793 0
M  V30 10 N 2.67683 -0.00942208 0.693871 0
M  V30 11 O 2.00075 -1.46861 -1.43292 0
M  V30 12 O 2.0712 1.00428 -1.61569 0
M  V30 13 H 0.495157 2.77672 -0.12909 0
M  V30 14 H 0.792076 2.10885 1.51375 0
M  V30 15 H -3.7101 -0.067767 0.576601 0
M  V30 16 H -0.426969 -2.10273 -1.10889 0
M  V30 17 H 2.04058 0.0578943 1.50836 0
M  V30 18 H 3.21939 -0.897397 0.815267 0
M  V30 END ATOM
M  V30 BEGIN BOND
M  V30 1 1 1 2
M  V30 2 2 2 3
M  V30 3 1 3 4
M  V30 4 2 4 5
M  V30 5 1 5 6
M  V30 6 1 5 7
M  V30 7 2 7 8
M  V30 8 1 8 9
M  V30 9 1 9 10
M  V30 10 2 9 11
M  V30 11 2 9 12
M  V30 12 1 8 2
M  V30 13 1 1 13
M  V30 14 1 1 14
M  V30 15 1 4 15
M  V30 16 1 7 16
M  V30 17 1 10 17
M  V30 18 1 10 18
M  V30 END BOND
M  V30 END CTAB
M  END
