
     RDKit          3D

  0  0  0  0  0  0  0  0  0  0999 V3000
M  V30 BEGIN CTAB
M  V30 COUNTS 39 40 0 0 0
M  V30 BEGIN ATOM
M  V30 1 C 1.72261 3.69452 -0.993281 0
M  V30 2 O 2.37399 2.61978 -0.35033 0
M  V30 3 C 1.79992 1.35576 -0.337315 0
M  V30 4 C 0.567985 1.09443 -0.953065 0
M  V30 5 C 0.00564369 -0.15165 -0.937597 0
M  V30 6 C -1.2953 -0.437479 -1.57754 0
M  V30 7 C -2.43661 -0.540469 -0.681635 0
M  V30 8 C -2.93578 -1.7873 -0.280295 0
M  V30 9 N -3.97827 -1.88644 0.55679 0
M  V30 10 C -4.58285 -0.803216 1.04114 0
M  V30 11 N -5.6861 -0.868755 1.92906 0
M  V30 12 N -4.13922 0.40931 0.684651 0
M  V30 13 C -3.07378 0.552515 -0.171194 0
M  V30 14 N -2.69425 1.86535 -0.493202 0
M  V30 15 C 0.723413 -1.1556 -0.27457 0
M  V30 16 C 1.91785 -0.944069 0.333115 0
M  V30 17 O 2.61063 -1.97732 0.99121 0
M  V30 18 C 2.07714 -3.28859 1.03685 0
M  V30 19 C 2.47054 0.315852 0.308694 0
M  V30 20 S 4.04804 0.612713 1.09795 0
M  V30 21 C 5.34017 0.316074 -0.162775 0
M  V30 22 H 0.673071 3.81459 -0.647628 0
M  V30 23 H 2.24227 4.63328 -0.677073 0
M  V30 24 H 1.73458 3.62565 -2.09572 0
M  V30 25 H 0.127338 1.94276 -1.4339 0
M  V30 26 H -1.23549 -1.42103 -2.13637 0
M  V30 27 H -1.4671 0.301579 -2.4088 0
M  V30 28 H -2.45837 -2.66241 -0.662324 0
M  V30 29 H -6.63313 -0.582487 1.61466 0
M  V30 30 H -5.57624 -1.20018 2.90395 0
M  V30 31 H -2.42925 2.20899 -1.43965 0
M  V30 32 H -2.67401 2.56425 0.280607 0
M  V30 33 H 0.286663 -2.12747 -0.261862 0
M  V30 34 H 1.00746 -3.30441 1.32241 0
M  V30 35 H 2.10359 -3.65847 -0.0271539 0
M  V30 36 H 2.7019 -3.96108 1.61867 0
M  V30 37 H 4.89479 0.252127 -1.17725 0
M  V30 38 H 5.8597 -0.628737 0.0745759 0
M  V30 39 H 6.00648 1.20765 -0.131226 0
M  V30 END ATOM
M  V30 BEGIN BOND
M  V30 1 1 1 2
M  V30 2 1 2 3
M  V30 3 2 3 4
M  V30 4 1 4 5
M  V30 5 1 5 6
M  V30 6 1 6 7
M  V30 7 2 7 8
M  V30 8 1 8 9
M  V30 9 2 9 10
M  V30 10 1 10 11
M  V30 11 1 10 12
M  V30 12 2 12 13
M  V30 13 1 13 14
M  V30 14 2 5 15
M  V30 15 1 15 16
M  V30 16 1 16 17
M  V30 17 1 17 18
M  V30 18 2 16 19
M  V30 19 1 19 20
M  V30 20 1 20 21
M  V30 21 1 19 3
M  V30 22 1 13 7
M  V30 23 1 1 22
M  V30 24 1 1 23
M  V30 25 1 1 24
M  V30 26 1 4 25
M  V30 27 1 6 26
M  V30 28 1 6 27
M  V30 29 1 8 28
M  V30 30 1 11 29
M  V30 31 1 11 30
M  V30 32 1 14 31
M  V30 33 1 14 32
M  V30 34 1 15 33
M  V30 35 1 18 34
M  V30 36 1 18 35
M  V30 37 1 18 36
M  V30 38 1 21 37
M  V30 39 1 21 38
M  V30 40 1 21 39
M  V30 END BOND
M  V30 END CTAB
M  END
