
     RDKit          3D

  0  0  0  0  0  0  0  0  0  0999 V3000
M  V30 BEGIN CTAB
M  V30 COUNTS 42 43 0 0 0
M  V30 BEGIN ATOM
M  V30 1 C 6.37509 1.75178 0.536346 0
M  V30 2 C 5.0583 1.07462 0.356772 0
M  V30 3 C 3.88996 1.78101 0.289557 0
M  V30 4 C 2.65372 1.12628 0.118629 0
M  V30 5 C 2.53594 -0.227024 0.00980652 0
M  V30 6 C 3.7626 -0.938962 0.0816772 0
M  V30 7 C 4.95821 -0.294183 0.247995 0
M  V30 8 N 3.67874 -2.34277 -0.0200585 0
M  V30 9 N 1.34856 -0.955905 -0.198726 0
M  V30 10 C 0.0402608 -0.434159 -0.217767 0
M  V30 11 O -0.175676 0.762661 -0.0263445 0
M  V30 12 C -1.04946 -1.39549 -0.481923 0
M  V30 13 O -0.675434 -2.60558 -0.666645 0
M  V30 14 N -2.41039 -1.11789 -0.549053 0
M  V30 15 C -2.95954 0.17165 -0.34477 0
M  V30 16 C -2.83198 1.14869 -1.30214 0
M  V30 17 C -3.40873 2.37766 -1.07089 0
M  V30 18 C -4.10657 2.60859 0.120997 0
M  V30 19 C -4.24585 1.64497 1.09262 0
M  V30 20 C -3.66598 0.422635 0.850506 0
M  V30 21 N -4.962 1.85558 2.31284 0
M  V30 22 C -3.34056 -2.15713 -0.841251 0
M  V30 23 O -4.56205 -1.83477 -0.912293 0
M  V30 24 C -3.01289 -3.56687 -1.06624 0
M  V30 25 H 7.07258 1.14691 1.12632 0
M  V30 26 H 6.8285 1.91333 -0.484938 0
M  V30 27 H 6.1958 2.76517 0.930943 0
M  V30 28 H 3.89344 2.86068 0.368614 0
M  V30 29 H 1.76819 1.75554 0.06783 0
M  V30 30 H 5.89754 -0.86506 0.299698 0
M  V30 31 H 4.26708 -2.84205 -0.697458 0
M  V30 32 H 3.02828 -2.86298 0.587482 0
M  V30 33 H 1.41798 -2.01862 -0.356539 0
M  V30 34 H -2.27984 0.931328 -2.22361 0
M  V30 35 H -3.31014 3.14396 -1.82029 0
M  V30 36 H -4.56004 3.56341 0.309543 0
M  V30 37 H -3.72664 -0.400837 1.5676 0
M  V30 38 H -4.65561 1.47784 3.23093 0
M  V30 39 H -5.84833 2.41898 2.30986 0
M  V30 40 H -3.96802 -4.11592 -1.32967 0
M  V30 41 H -2.50831 -4.07626 -0.215966 0
M  V30 42 H -2.40675 -3.6508 -1.98998 0
M  V30 END ATOM
M  V30 BEGIN BOND
M  V30 1 1 1 2
M  V30 2 2 2 3
M  V30 3 1 3 4
M  V30 4 2 4 5
M  V30 5 1 5 6
M  V30 6 2 6 7
M  V30 7 1 6 8
M  V30 8 1 5 9
M  V30 9 1 9 10
M  V30 10 2 10 11
M  V30 11 1 10 12
M  V30 12 2 12 13
M  V30 13 1 12 14
M  V30 14 1 14 15
M  V30 15 2 15 16
M  V30 16 1 16 17
M  V30 17 2 17 18
M  V30 18 1 18 19
M  V30 19 2 19 20
M  V30 20 1 19 21
M  V30 21 1 14 22
M  V30 22 2 22 23
M  V30 23 1 22 24
M  V30 24 1 7 2
M  V30 25 1 20 15
M  V30 26 1 1 25
M  V30 27 1 1 26
M  V30 28 1 1 27
M  V30 29 1 3 28
M  V30 30 1 4 29
M  V30 31 1 7 30
M  V30 32 1 8 31
M  V30 33 1 8 32
M  V30 34 1 9 33
M  V30 35 1 16 34
M  V30 36 1 17 35
M  V30 37 1 18 36
M  V30 38 1 20 37
M  V30 39 1 21 38
M  V30 40 1 21 39
M  V30 41 1 24 40
M  V30 42 1 24 41
M  V30 43 1 24 42
M  V30 END BOND
M  V30 END CTAB
M  END
