
     RDKit          3D

  0  0  0  0  0  0  0  0  0  0999 V3000
M  V30 BEGIN CTAB
M  V30 COUNTS 52 54 0 0 0
M  V30 BEGIN ATOM
M  V30 1 C -5.90445 -2.49212 -0.909962 0
M  V30 2 C -5.64229 -1.004 -1.02546 0
M  V30 3 O -4.39841 -0.66639 -0.562731 0
M  V30 4 C -4.16288 -0.967645 0.747803 0
M  V30 5 C -3.00732 -1.87467 0.956379 0
M  V30 6 N -1.76125 -1.34879 0.511046 0
M  V30 7 C -1.33467 -1.0075 -0.77377 0
M  V30 8 O -2.048 -1.1419 -1.77715 0
M  V30 9 C 0.00274617 -0.465884 -0.984734 0
M  V30 10 N 0.78717 -0.314728 0.0930928 0
M  V30 11 C 2.02403 0.179893 -0.0588014 0
M  V30 12 C 2.4799 0.527746 -1.31072 0
M  V30 13 N 1.68424 0.375509 -2.4117 0
M  V30 14 C 0.455378 -0.118474 -2.24228 0
M  V30 15 N -0.454306 -0.316114 -3.3299 0
M  V30 16 N 3.73567 1.02895 -1.45862 0
M  V30 17 C 4.53734 1.18822 -0.392403 0
M  V30 18 N 4.07973 0.844492 0.82509 0
M  V30 19 C 2.86497 0.348922 1.04569 0
M  V30 20 N 2.35597 -0.021603 2.31509 0
M  V30 21 C 5.89144 1.72469 -0.523936 0
M  V30 22 C 6.69203 1.87693 0.586401 0
M  V30 23 C 7.9897 2.38901 0.4744 0
M  V30 24 C 8.50109 2.75581 -0.758568 0
M  V30 25 C 7.6989 2.60307 -1.86959 0
M  V30 26 C 6.41143 2.09319 -1.74543 0
M  V30 27 O -3.9105 0.257588 1.39418 0
M  V30 28 C -4.82436 0.522283 2.37497 0
M  V30 29 C -4.77696 -0.528497 3.45437 0
M  V30 30 H -6.217 -2.77048 0.112875 0
M  V30 31 H -6.74038 -2.70545 -1.63613 0
M  V30 32 H -5.01664 -3.08313 -1.18977 0
M  V30 33 H -6.40014 -0.485457 -0.407534 0
M  V30 34 H -5.74876 -0.642957 -2.06311 0
M  V30 35 H -5.07647 -1.45098 1.19607 0
M  V30 36 H -3.22715 -2.88408 0.507011 0
M  V30 37 H -2.94323 -2.0646 2.05841 0
M  V30 38 H -0.991087 -1.17134 1.27313 0
M  V30 39 H -0.313631 -1.20228 -3.87341 0
M  V30 40 H -1.20212 0.355073 -3.57681 0
M  V30 41 H 1.88123 0.66858 2.89912 0
M  V30 42 H 2.47892 -1.00454 2.62965 0
M  V30 43 H 6.31282 1.59639 1.56217 0
M  V30 44 H 8.59579 2.49721 1.36564 0
M  V30 45 H 9.51658 3.15549 -0.838952 0
M  V30 46 H 8.11431 2.89454 -2.82438 0
M  V30 47 H 5.77845 1.97142 -2.61301 0
M  V30 48 H -5.84187 0.58955 1.92535 0
M  V30 49 H -4.58407 1.51082 2.83137 0
M  V30 50 H -3.72363 -0.629401 3.79198 0
M  V30 51 H -5.26393 -1.46894 3.18516 0
M  V30 52 H -5.35432 -0.123433 4.34095 0
M  V30 END ATOM
M  V30 BEGIN BOND
M  V30 1 1 1 2
M  V30 2 1 2 3
M  V30 3 1 3 4
M  V30 4 1 4 5
M  V30 5 1 5 6
M  V30 6 1 6 7
M  V30 7 2 7 8
M  V30 8 1 7 9
M  V30 9 2 9 10
M  V30 10 1 10 11
M  V30 11 2 11 12
M  V30 12 1 12 13
M  V30 13 2 13 14
M  V30 14 1 14 15
M  V30 15 1 12 16
M  V30 16 2 16 17
M  V30 17 1 17 18
M  V30 18 2 18 19
M  V30 19 1 19 20
M  V30 20 1 17 21
M  V30 21 2 21 22
M  V30 22 1 22 23
M  V30 23 2 23 24
M  V30 24 1 24 25
M  V30 25 2 25 26
M  V30 26 1 4 27
M  V30 27 1 27 28
M  V30 28 1 28 29
M  V30 29 1 14 9
M  V30 30 1 26 21
M  V30 31 1 19 11
M  V30 32 1 1 30
M  V30 33 1 1 31
M  V30 34 1 1 32
M  V30 35 1 2 33
M  V30 36 1 2 34
M  V30 37 1 4 35
M  V30 38 1 5 36
M  V30 39 1 5 37
M  V30 40 1 6 38
M  V30 41 1 15 39
M  V30 42 1 15 40
M  V30 43 1 20 41
M  V30 44 1 20 42
M  V30 45 1 22 43
M  V30 46 1 23 44
M  V30 47 1 24 45
M  V30 48 1 25 46
M  V30 49 1 26 47
M  V30 50 1 28 48
M  V30 51 1 28 49
M  V30 52 1 29 50
M  V30 53 1 29 51
M  V30 54 1 29 52
M  V30 END BOND
M  V30 END CTAB
M  END
