
     RDKit          3D

  0  0  0  0  0  0  0  0  0  0999 V3000
M  V30 BEGIN CTAB
M  V30 COUNTS 21 21 0 0 0
M  V30 BEGIN ATOM
M  V30 1 N -1.95624 -1.82401 -0.345869 0
M  V30 2 C -2.0053 -0.410923 -0.0910981 0
M  V30 3 C -0.649637 0.173016 0.0412973 0
M  V30 4 C 0.441409 -0.675631 -0.090782 0
M  V30 5 C 1.70607 -0.161248 0.0272307 0
M  V30 6 C 2.9128 -1.01762 -0.10396 0
M  V30 7 C 1.84896 1.17857 0.272517 0
M  V30 8 N 0.770573 1.97216 0.394883 0
M  V30 9 C -0.500459 1.52022 0.288044 0
M  V30 10 N -1.62353 2.37519 0.420628 0
M  V30 11 H -2.79188 -2.15616 -0.886368 0
M  V30 12 H -1.77208 -2.39415 0.503122 0
M  V30 13 H -2.53059 -0.259752 0.884585 0
M  V30 14 H -2.61828 0.061703 -0.863551 0
M  V30 15 H 0.348001 -1.73182 -0.283759 0
M  V30 16 H 2.71909 -2.0411 0.280005 0
M  V30 17 H 3.18825 -1.01115 -1.17746 0
M  V30 18 H 3.732 -0.597299 0.536803 0
M  V30 19 H 2.87044 1.57701 0.364755 0
M  V30 20 H -2.52102 2.21676 -0.0802309 0
M  V30 21 H -1.56858 3.20625 1.04347 0
M  V30 END ATOM
M  V30 BEGIN BOND
M  V30 1 1 1 2
M  V30 2 1 2 3
M  V30 3 2 3 4
M  V30 4 1 4 5
M  V30 5 1 5 6
M  V30 6 2 5 7
M  V30 7 1 7 8
M  V30 8 2 8 9
M  V30 9 1 9 10
M  V30 10 1 9 3
M  V30 11 1 1 11
M  V30 12 1 1 12
M  V30 13 1 2 13
M  V30 14 1 2 14
M  V30 15 1 4 15
M  V30 16 1 6 16
M  V30 17 1 6 17
M  V30 18 1 6 18
M  V30 19 1 7 19
M  V30 20 1 10 20
M  V30 21 1 10 21
M  V30 END BOND
M  V30 END CTAB
M  END
