
     RDKit          3D

  0  0  0  0  0  0  0  0  0  0999 V3000
M  V30 BEGIN CTAB
M  V30 COUNTS 61 64 0 0 0
M  V30 BEGIN ATOM
M  V30 1 N -5.18643 2.41358 1.09514 0
M  V30 2 C -4.37229 1.27678 0.978717 0
M  V30 3 N -3.03277 1.48149 1.09109 0
M  V30 4 C -2.18263 0.466395 1.00099 0
M  V30 5 S -0.443044 0.66802 1.45296 0
M  V30 6 C 0.383063 -0.910488 1.25444 0
M  V30 7 C 1.01251 -1.02651 -0.110185 0
M  V30 8 N 2.04738 0.0312267 -0.121951 0
M  V30 9 C 3.00437 -0.398514 0.889929 0
M  V30 10 C 4.4079 0.158942 0.626841 0
M  V30 11 N 4.89245 -0.219491 -0.61834 0
M  V30 12 C 5.96086 0.483772 -1.18523 0
M  V30 13 C 7.23238 0.496778 -0.440146 0
M  V30 14 C 7.83165 -0.720088 -0.205908 0
M  V30 15 Cl 6.951 -2.19025 -0.514034 0
M  V30 16 C 9.07433 -0.796167 0.308501 0
M  V30 17 C 9.76046 0.386652 0.613368 0
M  V30 18 C 9.17651 1.59838 0.394484 0
M  V30 19 C 7.89739 1.65754 -0.139235 0
M  V30 20 C 3.91182 -0.588214 -1.58194 0
M  V30 21 C 2.64891 0.225967 -1.39262 0
M  V30 22 N -2.66508 -0.768256 0.780797 0
M  V30 23 C -3.97177 -1.01975 0.659685 0
M  V30 24 N -4.46524 -2.31112 0.345057 0
M  V30 25 C -4.90321 0.0371401 0.770366 0
M  V30 26 C -6.29378 -0.313646 0.880347 0
M  V30 27 C -7.33944 -0.0116476 -0.0435323 0
M  V30 28 C -8.21591 1.0697 0.128069 0
M  V30 29 C -9.29788 1.26932 -0.704884 0
M  V30 30 C -9.56266 0.415052 -1.74215 0
M  V30 31 C -8.71456 -0.664756 -1.94333 0
M  V30 32 C -7.63042 -0.870445 -1.11331 0
M  V30 33 H -5.7106 2.52498 1.99888 0
M  V30 34 H -5.32366 3.15243 0.382327 0
M  V30 35 H -0.325402 -1.79285 1.34323 0
M  V30 36 H 1.11346 -1.1228 2.05617 0
M  V30 37 H 1.44227 -2.01551 -0.206469 0
M  V30 38 H 0.259089 -0.861006 -0.875666 0
M  V30 39 H 3.01004 -1.48652 1.02052 0
M  V30 40 H 2.69963 0.0622664 1.84642 0
M  V30 41 H 4.42797 1.22548 0.894825 0
M  V30 42 H 5.0414 -0.356863 1.4254 0
M  V30 43 H 6.1256 0.303949 -2.26662 0
M  V30 44 H 5.64306 1.62741 -1.13305 0
M  V30 45 H 9.52498 -1.78012 0.504721 0
M  V30 46 H 10.7519 0.31517 1.00093 0
M  V30 47 H 9.72206 2.51254 0.636387 0
M  V30 48 H 7.49005 2.62082 -0.296443 0
M  V30 49 H 3.677 -1.65262 -1.54357 0
M  V30 50 H 4.34192 -0.339228 -2.59578 0
M  V30 51 H 2.90685 1.30459 -1.51406 0
M  V30 52 H 1.98066 -0.069474 -2.20802 0
M  V30 53 H -4.66531 -3.06319 0.990016 0
M  V30 54 H -4.65635 -2.51532 -0.697373 0
M  V30 55 H -6.66859 0.136687 1.90939 0
M  V30 56 H -6.38007 -1.43688 1.22738 0
M  V30 57 H -8.07376 1.7934 0.933499 0
M  V30 58 H -9.96809 2.12628 -0.551104 0
M  V30 59 H -10.3973 0.507905 -2.41114 0
M  V30 60 H -8.93768 -1.34724 -2.73984 0
M  V30 61 H -6.96709 -1.7017 -1.24821 0
M  V30 END ATOM
M  V30 BEGIN BOND
M  V30 1 1 1 2
M  V30 2 2 2 3
M  V30 3 1 3 4
M  V30 4 1 4 5
M  V30 5 1 5 6
M  V30 6 1 6 7
M  V30 7 1 7 8
M  V30 8 1 8 9
M  V30 9 1 9 10
M  V30 10 1 10 11
M  V30 11 1 11 12
M  V30 12 1 12 13
M  V30 13 2 13 14
M  V30 14 1 14 15
M  V30 15 1 14 16
M  V30 16 2 16 17
M  V30 17 1 17 18
M  V30 18 2 18 19
M  V30 19 1 11 20
M  V30 20 1 20 21
M  V30 21 2 4 22
M  V30 22 1 22 23
M  V30 23 1 23 24
M  V30 24 2 23 25
M  V30 25 1 25 26
M  V30 26 1 26 27
M  V30 27 2 27 28
M  V30 28 1 28 29
M  V30 29 2 29 30
M  V30 30 1 30 31
M  V30 31 2 31 32
M  V30 32 1 25 2
M  V30 33 1 32 27
M  V30 34 1 21 8
M  V30 35 1 19 13
M  V30 36 1 1 33
M  V30 37 1 1 34
M  V30 38 1 6 35
M  V30 39 1 6 36
M  V30 40 1 7 37
M  V30 41 1 7 38
M  V30 42 1 9 39
M  V30 43 1 9 40
M  V30 44 1 10 41
M  V30 45 1 10 42
M  V30 46 1 12 43
M  V30 47 1 12 44
M  V30 48 1 16 45
M  V30 49 1 17 46
M  V30 50 1 18 47
M  V30 51 1 19 48
M  V30 52 1 20 49
M  V30 53 1 20 50
M  V30 54 1 21 51
M  V30 55 1 21 52
M  V30 56 1 24 53
M  V30 57 1 24 54
M  V30 58 1 26 55
M  V30 59 1 26 56
M  V30 60 1 28 57
M  V30 61 1 29 58
M  V30 62 1 30 59
M  V30 63 1 31 60
M  V30 64 1 32 61
M  V30 END BOND
M  V30 END CTAB
M  END
