
     RDKit          3D

  0  0  0  0  0  0  0  0  0  0999 V3000
M  V30 BEGIN CTAB
M  V30 COUNTS 21 21 0 0 0
M  V30 BEGIN ATOM
M  V30 1 N 3.59924 -0.597784 -0.0113757 0
M  V30 2 C 2.29411 0.0131522 -0.0409588 0
M  V30 3 N 1.12592 -0.560402 0.193558 0
M  V30 4 C 0.031941 0.143821 0.113484 0
M  V30 5 C 0.151254 1.46291 -0.217098 0
M  V30 6 S 1.83276 1.61502 -0.392976 0
M  V30 7 C -0.941352 2.47191 -0.376622 0
M  V30 8 C -1.32508 -0.513232 0.301913 0
M  V30 9 N -1.70584 -0.945224 -1.08496 0
M  V30 10 C -1.24079 -1.76041 1.12356 0
M  V30 11 H 4.33396 -0.200269 0.565622 0
M  V30 12 H 3.73688 -1.43483 -0.587967 0
M  V30 13 H -1.30839 2.81754 0.614364 0
M  V30 14 H -1.79316 2.08131 -0.929236 0
M  V30 15 H -0.51998 3.36278 -0.893028 0
M  V30 16 H -2.07015 0.151579 0.661463 0
M  V30 17 H -1.11172 -1.82419 -1.29242 0
M  V30 18 H -1.28907 -0.211411 -1.73588 0
M  V30 19 H -0.235866 -2.1619 1.07778 0
M  V30 20 H -2.03231 -2.4547 0.74014 0
M  V30 21 H -1.53236 -1.45567 2.17064 0
M  V30 END ATOM
M  V30 BEGIN BOND
M  V30 1 1 1 2
M  V30 2 2 2 3
M  V30 3 1 3 4
M  V30 4 2 4 5
M  V30 5 1 5 6
M  V30 6 1 5 7
M  V30 7 1 4 8
M  V30 8 1 8 9
M  V30 9 1 8 10
M  V30 10 1 6 2
M  V30 11 1 1 11
M  V30 12 1 1 12
M  V30 13 1 7 13
M  V30 14 1 7 14
M  V30 15 1 7 15
M  V30 16 1 8 16
M  V30 17 1 9 17
M  V30 18 1 9 18
M  V30 19 1 10 19
M  V30 20 1 10 20
M  V30 21 1 10 21
M  V30 END BOND
M  V30 END CTAB
M  END
