
     RDKit          3D

  0  0  0  0  0  0  0  0  0  0999 V3000
M  V30 BEGIN CTAB
M  V30 COUNTS 22 22 0 0 0
M  V30 BEGIN ATOM
M  V30 1 Br 4.61263 -0.27848 0.195326 0
M  V30 2 C 2.74314 -0.803627 -0.011822 0
M  V30 3 C 1.89038 0.378819 0.184829 0
M  V30 4 O 2.43418 1.5054 0.449431 0
M  V30 5 C 0.439426 0.352647 0.0967546 0
M  V30 6 C -0.293711 1.50137 0.294473 0
M  V30 7 N 0.321388 2.7389 0.586872 0
M  V30 8 C -1.68989 1.52285 0.220025 0
M  V30 9 C -2.31537 0.334669 -0.0627022 0
M  V30 10 C -1.62799 -0.836084 -0.267607 0
M  V30 11 C -0.236619 -0.798168 -0.181075 0
M  V30 12 O 0.422638 -1.99506 -0.393104 0
M  V30 13 N -2.29051 -2.04917 -0.557678 0
M  V30 14 H 2.5684 -1.60969 0.730879 0
M  V30 15 H 2.6778 -1.24776 -1.02165 0
M  V30 16 H 0.551573 3.41078 -0.16126 0
M  V30 17 H 0.54209 2.96979 1.56741 0
M  V30 18 H -2.25438 2.44058 0.379172 0
M  V30 19 H -3.39711 0.297042 -0.131668 0
M  V30 20 H -0.0314363 -2.85513 -0.597834 0
M  V30 21 H -2.95931 -2.43924 0.124927 0
M  V30 22 H -2.10732 -2.54043 -1.44369 0
M  V30 END ATOM
M  V30 BEGIN BOND
M  V30 1 1 1 2
M  V30 2 1 2 3
M  V30 3 2 3 4
M  V30 4 1 3 5
M  V30 5 2 5 6
M  V30 6 1 6 7
M  V30 7 1 6 8
M  V30 8 2 8 9
M  V30 9 1 9 10
M  V30 10 2 10 11
M  V30 11 1 11 12
M  V30 12 1 10 13
M  V30 13 1 11 5
M  V30 14 1 2 14
M  V30 15 1 2 15
M  V30 16 1 7 16
M  V30 17 1 7 17
M  V30 18 1 8 18
M  V30 19 1 9 19
M  V30 20 1 12 20
M  V30 21 1 13 21
M  V30 22 1 13 22
M  V30 END BOND
M  V30 END CTAB
M  END
