
     RDKit          3D

  0  0  0  0  0  0  0  0  0  0999 V3000
M  V30 BEGIN CTAB
M  V30 COUNTS 36 38 0 0 0
M  V30 BEGIN ATOM
M  V30 1 N 4.48919 -2.18791 -0.930084 0
M  V30 2 C 3.96425 -1.03152 -0.290163 0
M  V30 3 N 2.83255 -1.0716 0.434709 0
M  V30 4 C 2.34469 0.0367651 1.0383 0
M  V30 5 N 3.03845 1.16352 0.87892 0
M  V30 6 C 4.17254 1.24135 0.162273 0
M  V30 7 N 4.64078 0.134778 -0.428081 0
M  V30 8 N 4.84062 2.48715 0.0507147 0
M  V30 9 C 1.09091 -0.0525477 1.8296 0
M  V30 10 N -0.0816298 0.19891 1.01413 0
M  V30 11 C -0.641195 1.50006 0.823488 0
M  V30 12 O -0.435107 2.5346 1.51053 0
M  V30 13 C -1.52369 1.36769 -0.367234 0
M  V30 14 C -2.04287 -0.0561539 -0.178388 0
M  V30 15 C -0.845478 -0.76269 0.29398 0
M  V30 16 O -0.54573 -1.96852 0.10709 0
M  V30 17 C -2.57644 -0.621291 -1.46874 0
M  V30 18 C -4.06956 -0.78999 -1.2941 0
M  V30 19 C -4.31918 -0.806188 0.196611 0
M  V30 20 C -3.15786 -0.0267332 0.810062 0
M  V30 21 H 3.86489 -2.96891 -1.22635 0
M  V30 22 H 5.50836 -2.30434 -1.12861 0
M  V30 23 H 4.73564 3.20285 0.798319 0
M  V30 24 H 5.43663 2.69143 -0.775216 0
M  V30 25 H 1.10869 0.596191 2.73132 0
M  V30 26 H 1.01675 -1.09734 2.19623 0
M  V30 27 H -0.955909 1.36634 -1.32027 0
M  V30 28 H -2.34412 2.10654 -0.364088 0
M  V30 29 H -2.32326 0.0387681 -2.32055 0
M  V30 30 H -2.11312 -1.62377 -1.61423 0
M  V30 31 H -4.43967 -1.74259 -1.7058 0
M  V30 32 H -4.64312 0.0443011 -1.7522 0
M  V30 33 H -5.29371 -0.324676 0.446261 0
M  V30 34 H -4.31994 -1.80441 0.634171 0
M  V30 35 H -2.89571 -0.47076 1.79297 0
M  V30 36 H -3.51763 1.0007 0.950512 0
M  V30 END ATOM
M  V30 BEGIN BOND
M  V30 1 1 1 2
M  V30 2 2 2 3
M  V30 3 1 3 4
M  V30 4 2 4 5
M  V30 5 1 5 6
M  V30 6 2 6 7
M  V30 7 1 6 8
M  V30 8 1 4 9
M  V30 9 1 9 10
M  V30 10 1 10 11
M  V30 11 2 11 12
M  V30 12 1 11 13
M  V30 13 1 13 14
M  V30 14 1 14 15
M  V30 15 2 15 16
M  V30 16 1 14 17
M  V30 17 1 17 18
M  V30 18 1 18 19
M  V30 19 1 19 20
M  V30 20 1 7 2
M  V30 21 1 15 10
M  V30 22 1 20 14
M  V30 23 1 1 21
M  V30 24 1 1 22
M  V30 25 1 8 23
M  V30 26 1 8 24
M  V30 27 1 9 25
M  V30 28 1 9 26
M  V30 29 1 13 27
M  V30 30 1 13 28
M  V30 31 1 17 29
M  V30 32 1 17 30
M  V30 33 1 18 31
M  V30 34 1 18 32
M  V30 35 1 19 33
M  V30 36 1 19 34
M  V30 37 1 20 35
M  V30 38 1 20 36
M  V30 END BOND
M  V30 END CTAB
M  END
