
     RDKit          3D

  0  0  0  0  0  0  0  0  0  0999 V3000
M  V30 BEGIN CTAB
M  V30 COUNTS 22 22 0 0 0
M  V30 BEGIN ATOM
M  V30 1 N 3.66444 0.991582 -0.613096 0
M  V30 2 C 2.36458 0.572867 -0.220045 0
M  V30 3 C 2.06611 -0.776301 -0.0755418 0
M  V30 4 C 0.799952 -1.1494 0.305844 0
M  V30 5 C -0.207954 -0.235454 0.557014 0
M  V30 6 C -1.53154 -0.719415 0.959785 0
M  V30 7 S -2.59972 -1.01224 -0.427504 0
M  V30 8 N -2.85765 0.409748 -1.34651 0
M  V30 9 O -2.05183 -2.08781 -1.32315 0
M  V30 10 O -3.91072 -1.53302 0.113781 0
M  V30 11 C 0.114315 1.10556 0.405993 0
M  V30 12 C 1.3836 1.49811 0.022868 0
M  V30 13 H 4.05945 1.83017 -0.177136 0
M  V30 14 H 4.18636 0.461243 -1.31622 0
M  V30 15 H 2.82659 -1.49556 -0.263761 0
M  V30 16 H 0.593852 -2.19878 0.410744 0
M  V30 17 H -2.06332 -0.0444311 1.66007 0
M  V30 18 H -1.39572 -1.68429 1.49113 0
M  V30 19 H -3.74222 0.406159 -1.8764 0
M  V30 20 H -2.68999 1.28313 -0.799531 0
M  V30 21 H -0.652802 1.81753 0.596444 0
M  V30 22 H 1.64419 2.56062 -0.0983037 0
M  V30 END ATOM
M  V30 BEGIN BOND
M  V30 1 1 1 2
M  V30 2 2 2 3
M  V30 3 1 3 4
M  V30 4 2 4 5
M  V30 5 1 5 6
M  V30 6 1 6 7
M  V30 7 1 7 8
M  V30 8 2 7 9
M  V30 9 2 7 10
M  V30 10 1 5 11
M  V30 11 2 11 12
M  V30 12 1 12 2
M  V30 13 1 1 13
M  V30 14 1 1 14
M  V30 15 1 3 15
M  V30 16 1 4 16
M  V30 17 1 6 17
M  V30 18 1 6 18
M  V30 19 1 8 19
M  V30 20 1 8 20
M  V30 21 1 11 21
M  V30 22 1 12 22
M  V30 END BOND
M  V30 END CTAB
M  END
