
     RDKit          3D

  0  0  0  0  0  0  0  0  0  0999 V3000
M  V30 BEGIN CTAB
M  V30 COUNTS 21 20 0 0 0
M  V30 BEGIN ATOM
M  V30 1 O -2.17479 -1.32889 0.000467693 0
M  V30 2 C -1.95964 -0.0677466 0.516291 0
M  V30 3 C -3.11003 0.873527 0.29879 0
M  V30 4 F -4.21623 0.297086 0.939313 0
M  V30 5 F -3.45846 0.99236 -1.02497 0
M  V30 6 C -0.651914 0.445343 0.0154623 0
M  V30 7 N 0.389022 -0.460387 0.453388 0
M  V30 8 C 1.75373 -0.284783 0.159858 0
M  V30 9 N 2.21095 -0.780836 -0.917982 0
M  V30 10 N 3.49458 -0.723892 -1.38513 0
M  V30 11 N 2.58503 0.423495 1.04251 0
M  V30 12 H -3.03772 -1.65747 0.294984 0
M  V30 13 H -1.86347 -0.192531 1.63386 0
M  V30 14 H -2.86018 1.82772 0.78149 0
M  V30 15 H -0.429145 1.48365 0.304973 0
M  V30 16 H -0.663376 0.444571 -1.11122 0
M  V30 17 H 0.158082 -1.32207 1.03265 0
M  V30 18 H 3.77116 -0.00775564 -2.0832 0
M  V30 19 H 4.2018 -1.39962 -1.04234 0
M  V30 20 H 3.27907 1.14076 0.701111 0
M  V30 21 H 2.58156 0.297475 2.0925 0
M  V30 END ATOM
M  V30 BEGIN BOND
M  V30 1 1 1 2
M  V30 2 1 2 3
M  V30 3 1 3 4
M  V30 4 1 3 5
M  V30 5 1 2 6
M  V30 6 1 6 7
M  V30 7 1 7 8
M  V30 8 2 8 9 CFG=2
M  V30 9 1 9 10
M  V30 10 1 8 11
M  V30 11 1 1 12
M  V30 12 1 2 13
M  V30 13 1 3 14
M  V30 14 1 6 15
M  V30 15 1 6 16
M  V30 16 1 7 17
M  V30 17 1 10 18
M  V30 18 1 10 19
M  V30 19 1 11 20
M  V30 20 1 11 21
M  V30 END BOND
M  V30 END CTAB
M  END
