
     RDKit          3D

  0  0  0  0  0  0  0  0  0  0999 V3000
M  V30 BEGIN CTAB
M  V30 COUNTS 21 21 0 0 0
M  V30 BEGIN ATOM
M  V30 1 N -3.28133 -0.522545 -0.400587 0
M  V30 2 C -1.88106 -0.305013 -0.42234 0
M  V30 3 C -1.09443 -0.892259 -1.40688 0
M  V30 4 C 0.265575 -0.654967 -1.39236 0
M  V30 5 C 0.81121 0.147946 -0.416603 0
M  V30 6 N 0.00959184 0.691644 0.511682 0
M  V30 7 C -1.32274 0.496661 0.548828 0
M  V30 8 N -2.18481 1.0617 1.52012 0
M  V30 9 S 2.51908 0.431527 -0.418304 0
M  V30 10 O 3.20653 -0.182762 -1.57567 0
M  V30 11 O 2.72046 1.93888 -0.454281 0
M  V30 12 C 3.26516 -0.132398 1.08535 0
M  V30 13 H -3.64003 -1.49478 -0.510706 0
M  V30 14 H -3.98059 0.229805 -0.28105 0
M  V30 15 H -1.56973 -1.52564 -2.16637 0
M  V30 16 H 0.895761 -1.11648 -2.1688 0
M  V30 17 H -2.6954 1.94868 1.24414 0
M  V30 18 H -2.35147 0.679046 2.46602 0
M  V30 19 H 4.34895 0.120436 1.05999 0
M  V30 20 H 3.17693 -1.23544 1.20782 0
M  V30 21 H 2.78234 0.315957 1.97002 0
M  V30 END ATOM
M  V30 BEGIN BOND
M  V30 1 1 1 2
M  V30 2 2 2 3
M  V30 3 1 3 4
M  V30 4 2 4 5
M  V30 5 1 5 6
M  V30 6 2 6 7
M  V30 7 1 7 8
M  V30 8 1 5 9
M  V30 9 2 9 10
M  V30 10 2 9 11
M  V30 11 1 9 12
M  V30 12 1 7 2
M  V30 13 1 1 13
M  V30 14 1 1 14
M  V30 15 1 3 15
M  V30 16 1 4 16
M  V30 17 1 8 17
M  V30 18 1 8 18
M  V30 19 1 12 19
M  V30 20 1 12 20
M  V30 21 1 12 21
M  V30 END BOND
M  V30 END CTAB
M  END
