
     RDKit          3D

  0  0  0  0  0  0  0  0  0  0999 V3000
M  V30 BEGIN CTAB
M  V30 COUNTS 22 22 0 0 0
M  V30 BEGIN ATOM
M  V30 1 N 1.9728 -1.46121 0.550518 0
M  V30 2 N 1.60987 -0.111948 0.61288 0
M  V30 3 C 0.771937 0.206191 -0.527154 0
M  V30 4 C -0.466628 -0.608226 -0.557109 0
M  V30 5 C -0.674938 -1.7427 -1.31558 0
M  V30 6 N -1.89258 -2.20871 -1.09222 0
M  V30 7 N -2.47591 -1.41665 -0.218341 0
M  V30 8 C -1.64003 -0.414599 0.143578 0
M  V30 9 N -1.86608 0.642444 1.04882 0
M  V30 10 C 0.517228 1.65548 -0.593426 0
M  V30 11 C 0.752169 2.43029 0.43119 0
M  V30 12 H 2.31216 -1.74018 1.49523 0
M  V30 13 H 2.7004 -1.60582 -0.193148 0
M  V30 14 H 2.47255 0.481449 0.509793 0
M  V30 15 H 1.38426 -0.0524091 -1.43816 0
M  V30 16 H 0.0603199 -2.18752 -1.99897 0
M  V30 17 H -3.4613 -1.52928 0.16218 0
M  V30 18 H -1.44419 0.640127 1.99294 0
M  V30 19 H -2.4646 1.44004 0.771011 0
M  V30 20 H 0.131222 2.07703 -1.50369 0
M  V30 21 H 1.13784 2.02168 1.34639 0
M  V30 22 H 0.563483 3.48454 0.373268 0
M  V30 END ATOM
M  V30 BEGIN BOND
M  V30 1 1 1 2
M  V30 2 1 2 3
M  V30 3 1 3 4
M  V30 4 1 4 5
M  V30 5 2 5 6
M  V30 6 1 6 7
M  V30 7 1 7 8
M  V30 8 1 8 9
M  V30 9 1 3 10
M  V30 10 2 10 11 CFG=2
M  V30 11 2 8 4
M  V30 12 1 1 12
M  V30 13 1 1 13
M  V30 14 1 2 14
M  V30 15 1 3 15
M  V30 16 1 5 16
M  V30 17 1 7 17
M  V30 18 1 9 18
M  V30 19 1 9 19
M  V30 20 1 10 20
M  V30 21 1 11 21
M  V30 22 1 11 22
M  V30 END BOND
M  V30 END CTAB
M  END
