
     RDKit          3D

  0  0  0  0  0  0  0  0  0  0999 V3000
M  V30 BEGIN CTAB
M  V30 COUNTS 38 41 0 0 0
M  V30 BEGIN ATOM
M  V30 1 N -4.91459 -3.39963 -0.640526 0
M  V30 2 C -4.00147 -2.76836 -0.367087 0
M  V30 3 C -2.85905 -1.96593 -0.0213102 0
M  V30 4 C -1.74951 -2.53497 0.562249 0
M  V30 5 N -1.78938 -3.95604 0.805567 0
M  V30 6 N -0.695893 -1.79273 0.880424 0
M  V30 7 C -0.674025 -0.477393 0.647656 0
M  V30 8 C -1.76835 0.124077 0.0648252 0
M  V30 9 C -2.89579 -0.605946 -0.28749 0
M  V30 10 N -4.03408 -0.0259415 -0.885525 0
M  V30 11 C -1.50268 1.49673 -0.0645385 0
M  V30 12 C -2.25015 2.53582 -0.575144 0
M  V30 13 C -1.7021 3.79663 -0.561404 0
M  V30 14 C -0.447093 4.01661 -0.0547422 0
M  V30 15 C 0.261895 2.9561 0.442641 0
M  V30 16 N -0.261984 1.69863 0.43903 0
M  V30 17 C 0.251676 0.530301 0.870216 0
M  V30 18 C 1.55134 0.390115 1.44419 0
M  V30 19 O 1.74115 0.702285 2.64946 0
M  V30 20 C 2.69835 -0.108288 0.679615 0
M  V30 21 C 3.99537 0.174311 1.13108 0
M  V30 22 C 5.07584 -0.266266 0.432458 0
M  V30 23 C 4.92999 -1.00558 -0.743052 0
M  V30 24 C 3.66831 -1.29769 -1.21017 0
M  V30 25 C 2.58977 -0.837683 -0.480981 0
M  V30 26 Cl 6.30268 -1.5768 -1.64623 0
M  V30 27 H -1.1547 -4.61184 0.295239 0
M  V30 28 H -2.44661 -4.36725 1.49008 0
M  V30 29 H -4.87744 0.156347 -0.314126 0
M  V30 30 H -4.0603 0.228683 -1.89151 0
M  V30 31 H -3.22895 2.32965 -0.96419 0
M  V30 32 H -2.29984 4.60966 -0.966248 0
M  V30 33 H -0.00276031 5.01999 -0.0405505 0
M  V30 34 H 1.25464 3.0952 0.849907 0
M  V30 35 H 4.08521 0.751677 2.04726 0
M  V30 36 H 6.08397 -0.0695919 0.74699 0
M  V30 37 H 3.52921 -1.87691 -2.13193 0
M  V30 38 H 1.59734 -1.06798 -0.864391 0
M  V30 END ATOM
M  V30 BEGIN BOND
M  V30 1 3 1 2
M  V30 2 1 2 3
M  V30 3 1 3 4
M  V30 4 1 4 5
M  V30 5 2 4 6
M  V30 6 1 6 7
M  V30 7 1 7 8
M  V30 8 1 8 9
M  V30 9 1 9 10
M  V30 10 2 8 11
M  V30 11 1 11 12
M  V30 12 2 12 13
M  V30 13 1 13 14
M  V30 14 2 14 15
M  V30 15 1 15 16
M  V30 16 1 16 17
M  V30 17 1 17 18
M  V30 18 2 18 19
M  V30 19 1 18 20
M  V30 20 2 20 21
M  V30 21 1 21 22
M  V30 22 2 22 23
M  V30 23 1 23 24
M  V30 24 2 24 25
M  V30 25 1 23 26
M  V30 26 2 9 3
M  V30 27 1 16 11
M  V30 28 1 25 20
M  V30 29 2 17 7
M  V30 30 1 5 27
M  V30 31 1 5 28
M  V30 32 1 10 29
M  V30 33 1 10 30
M  V30 34 1 12 31
M  V30 35 1 13 32
M  V30 36 1 14 33
M  V30 37 1 15 34
M  V30 38 1 21 35
M  V30 39 1 22 36
M  V30 40 1 24 37
M  V30 41 1 25 38
M  V30 END BOND
M  V30 END CTAB
M  END
