
     RDKit          3D

  0  0  0  0  0  0  0  0  0  0999 V3000
M  V30 BEGIN CTAB
M  V30 COUNTS 30 31 0 0 0
M  V30 BEGIN ATOM
M  V30 1 N 6.18098 -0.176396 0.00470537 0
M  V30 2 N 4.90525 -0.69636 0.210319 0
M  V30 3 C 3.75003 0.0745779 -0.0599481 0
M  V30 4 O 3.90454 1.2575 -0.496538 0
M  V30 5 C 2.39709 -0.456724 0.150729 0
M  V30 6 C 2.05142 -1.69697 0.610572 0
M  V30 7 N 0.727194 -1.74021 0.641509 0
M  V30 8 N 0.16717 -0.612368 0.233273 0
M  V30 9 C 1.21 0.200326 -0.0773227 0
M  V30 10 N 1.1072 1.52563 -0.563367 0
M  V30 11 C -1.21734 -0.306214 0.136473 0
M  V30 12 C -2.09352 -1.27172 -0.294575 0
M  V30 13 C -3.46061 -1.03541 -0.411206 0
M  V30 14 C -3.93528 0.204096 -0.0824899 0
M  V30 15 C -3.08003 1.18571 0.350755 0
M  V30 16 C -1.72979 0.925675 0.457454 0
M  V30 17 C -5.40261 0.446632 -0.211226 0
M  V30 18 H 6.21954 0.401216 -0.884418 0
M  V30 19 H 6.42888 0.448817 0.793561 0
M  V30 20 H 4.79011 -1.66145 0.566385 0
M  V30 21 H 2.72651 -2.49274 0.895432 0
M  V30 22 H 1.0526 1.66466 -1.5942 0
M  V30 23 H 1.08145 2.38108 0.0306111 0
M  V30 24 H -1.76466 -2.26702 -0.56587 0
M  V30 25 H -4.14591 -1.82357 -0.758869 0
M  V30 26 H -3.48584 2.17473 0.609246 0
M  V30 27 H -1.09399 1.71262 0.797771 0
M  V30 28 H -5.99323 -0.381801 0.22428 0
M  V30 29 H -5.62186 1.38259 0.336978 0
M  V30 30 H -5.67529 0.633086 -1.28042 0
M  V30 END ATOM
M  V30 BEGIN BOND
M  V30 1 1 1 2
M  V30 2 1 2 3
M  V30 3 2 3 4
M  V30 4 1 3 5
M  V30 5 1 5 6
M  V30 6 2 6 7
M  V30 7 1 7 8
M  V30 8 1 8 9
M  V30 9 1 9 10
M  V30 10 1 8 11
M  V30 11 2 11 12
M  V30 12 1 12 13
M  V30 13 2 13 14
M  V30 14 1 14 15
M  V30 15 2 15 16
M  V30 16 1 14 17
M  V30 17 2 9 5
M  V30 18 1 16 11
M  V30 19 1 1 18
M  V30 20 1 1 19
M  V30 21 1 2 20
M  V30 22 1 6 21
M  V30 23 1 10 22
M  V30 24 1 10 23
M  V30 25 1 12 24
M  V30 26 1 13 25
M  V30 27 1 15 26
M  V30 28 1 16 27
M  V30 29 1 17 28
M  V30 30 1 17 29
M  V30 31 1 17 30
M  V30 END BOND
M  V30 END CTAB
M  END
