
     RDKit          3D

  0  0  0  0  0  0  0  0  0  0999 V3000
M  V30 BEGIN CTAB
M  V30 COUNTS 60 63 0 0 0
M  V30 BEGIN ATOM
M  V30 1 N -7.94052 2.28362 0.229002 0
M  V30 2 C -6.51835 2.46518 0.243712 0
M  V30 3 C -5.7445 1.69519 -0.837219 0
M  V30 4 C -4.65273 1.49238 0.209096 0
M  V30 5 C -5.78278 1.58315 1.25221 0
M  V30 6 C -4.00894 0.174503 0.172614 0
M  V30 7 N -4.67887 -0.951348 -0.121847 0
M  V30 8 C -4.04785 -2.14121 -0.126115 0
M  V30 9 N -4.74766 -3.35642 -0.442143 0
M  V30 10 N -2.74336 -2.25337 0.159807 0
M  V30 11 C -2.00769 -1.16083 0.466094 0
M  V30 12 C -2.65079 0.0471782 0.468377 0
M  V30 13 N -0.643615 -1.39104 0.763287 0
M  V30 14 C -0.183999 -2.78552 0.642476 0
M  V30 15 C 0.602131 -2.86734 -0.64194 0
M  V30 16 C 0.7525 -1.55496 -1.32758 0
M  V30 17 N 1.72912 -0.662558 -0.711999 0
M  V30 18 C 1.03967 0.315401 0.110987 0
M  V30 19 C 0.156481 -0.282064 1.15962 0
M  V30 20 C 2.73396 -1.38708 -0.00780899 0
M  V30 21 C 3.86506 -0.491057 0.411442 0
M  V30 22 C 4.55649 0.165932 -0.789531 0
M  V30 23 C 5.67529 0.964293 -0.259996 0
M  V30 24 C 6.93234 0.367903 -0.0758146 0
M  V30 25 C 8.00821 1.09829 0.41919 0
M  V30 26 C 7.85893 2.43369 0.740594 0
M  V30 27 C 6.62624 3.02236 0.560943 0
M  V30 28 C 5.57438 2.29276 0.073171 0
M  V30 29 H -8.37842 3.19164 0.553051 0
M  V30 30 H -8.28904 2.07088 -0.729033 0
M  V30 31 H -6.13042 3.50382 0.269357 0
M  V30 32 H -6.30377 0.753136 -1.05537 0
M  V30 33 H -5.44154 2.30918 -1.69325 0
M  V30 34 H -4.01749 2.36498 0.332224 0
M  V30 35 H -5.50278 2.05756 2.18951 0
M  V30 36 H -6.34354 0.617109 1.32376 0
M  V30 37 H -5.08441 -3.4092 -1.45058 0
M  V30 38 H -4.89279 -4.0887 0.262088 0
M  V30 39 H -2.07613 0.930918 0.700622 0
M  V30 40 H -1.06761 -3.46808 0.638014 0
M  V30 41 H 0.414441 -3.10459 1.51842 0
M  V30 42 H -0.017498 -3.50901 -1.34669 0
M  V30 43 H 1.548 -3.43771 -0.532033 0
M  V30 44 H 1.15442 -1.74319 -2.36166 0
M  V30 45 H -0.189568 -1.03369 -1.44157 0
M  V30 46 H 0.444769 1.00746 -0.525076 0
M  V30 47 H 1.80176 0.941312 0.601729 0
M  V30 48 H -0.407241 0.545528 1.66677 0
M  V30 49 H 0.814572 -0.666255 2.0111 0
M  V30 50 H 2.28139 -1.78703 0.939017 0
M  V30 51 H 3.17882 -2.21516 -0.591153 0
M  V30 52 H 4.6247 -1.15151 0.897744 0
M  V30 53 H 3.58504 0.251598 1.1662 0
M  V30 54 H 4.86854 -0.636469 -1.46403 0
M  V30 55 H 3.80807 0.834247 -1.30552 0
M  V30 56 H 7.02306 -0.675135 -0.334519 0
M  V30 57 H 8.97264 0.640235 0.563494 0
M  V30 58 H 8.72303 2.9584 1.12225 0
M  V30 59 H 6.517 4.06641 0.813314 0
M  V30 60 H 4.62283 2.76427 -0.0643294 0
M  V30 END ATOM
M  V30 BEGIN BOND
M  V30 1 1 1 2
M  V30 2 1 2 3
M  V30 3 1 3 4
M  V30 4 1 4 5
M  V30 5 1 4 6
M  V30 6 2 6 7
M  V30 7 1 7 8
M  V30 8 1 8 9
M  V30 9 2 8 10
M  V30 10 1 10 11
M  V30 11 2 11 12
M  V30 12 1 11 13
M  V30 13 1 13 14
M  V30 14 1 14 15
M  V30 15 1 15 16
M  V30 16 1 16 17
M  V30 17 1 17 18
M  V30 18 1 18 19
M  V30 19 1 17 20
M  V30 20 1 20 21
M  V30 21 1 21 22
M  V30 22 1 22 23
M  V30 23 2 23 24
M  V30 24 1 24 25
M  V30 25 2 25 26
M  V30 26 1 26 27
M  V30 27 2 27 28
M  V30 28 1 5 2
M  V30 29 1 12 6
M  V30 30 1 19 13
M  V30 31 1 28 23
M  V30 32 1 1 29
M  V30 33 1 1 30
M  V30 34 1 2 31
M  V30 35 1 3 32
M  V30 36 1 3 33
M  V30 37 1 4 34
M  V30 38 1 5 35
M  V30 39 1 5 36
M  V30 40 1 9 37
M  V30 41 1 9 38
M  V30 42 1 12 39
M  V30 43 1 14 40
M  V30 44 1 14 41
M  V30 45 1 15 42
M  V30 46 1 15 43
M  V30 47 1 16 44
M  V30 48 1 16 45
M  V30 49 1 18 46
M  V30 50 1 18 47
M  V30 51 1 19 48
M  V30 52 1 19 49
M  V30 53 1 20 50
M  V30 54 1 20 51
M  V30 55 1 21 52
M  V30 56 1 21 53
M  V30 57 1 22 54
M  V30 58 1 22 55
M  V30 59 1 24 56
M  V30 60 1 25 57
M  V30 61 1 26 58
M  V30 62 1 27 59
M  V30 63 1 28 60
M  V30 END BOND
M  V30 END CTAB
M  END
