
     RDKit          3D

  0  0  0  0  0  0  0  0  0  0999 V3000
M  V30 BEGIN CTAB
M  V30 COUNTS 37 38 0 0 0
M  V30 BEGIN ATOM
M  V30 1 C 2.87681 1.09427 1.98926 0
M  V30 2 C 2.64096 1.69505 0.619722 0
M  V30 3 C 1.35985 1.26384 -0.00733074 0
M  V30 4 N 1.23841 -0.14861 -0.213248 0
M  V30 5 C 2.15356 -0.658821 -1.22425 0
M  V30 6 C 1.60707 -2.0639 -1.42251 0
M  V30 7 C 0.132448 -1.98312 -0.999518 0
M  V30 8 C -0.0300247 -0.513602 -0.822517 0
M  V30 9 C -1.19917 -0.0922203 -0.066963 0
M  V30 10 C -1.3205 -0.25078 1.28455 0
M  V30 11 C -2.45046 0.16703 1.94728 0
M  V30 12 C -3.51073 0.761025 1.29702 0
M  V30 13 C -3.38584 0.921879 -0.0790342 0
M  V30 14 C -2.25302 0.50468 -0.751029 0
M  V30 15 N -4.46129 1.53232 -0.781412 0
M  V30 16 N 0.0124244 -2.74566 0.204459 0
M  V30 17 H 1.91246 0.684194 2.35104 0
M  V30 18 H 3.6951 0.361417 1.95063 0
M  V30 19 H 3.21994 1.8754 2.72869 0
M  V30 20 H 3.53316 1.59069 -0.0373801 0
M  V30 21 H 2.54617 2.8106 0.782588 0
M  V30 22 H 0.539559 1.57356 0.68008 0
M  V30 23 H 1.19606 1.81002 -0.957393 0
M  V30 24 H 1.99881 -0.139451 -2.20056 0
M  V30 25 H 3.20293 -0.66589 -0.892648 0
M  V30 26 H 1.58612 -2.34961 -2.48333 0
M  V30 27 H 2.16266 -2.81407 -0.866362 0
M  V30 28 H -0.540206 -2.42138 -1.75892 0
M  V30 29 H -0.0229291 -0.0484436 -1.83796 0
M  V30 30 H -0.471687 -0.726023 1.79533 0
M  V30 31 H -2.51721 0.0278839 3.01747 0
M  V30 32 H -4.41275 1.09337 1.81454 0
M  V30 33 H -2.21048 0.654468 -1.84136 0
M  V30 34 H -4.34061 2.54319 -1.04231 0
M  V30 35 H -5.31358 0.999999 -1.01889 0
M  V30 36 H -0.00998533 -3.75482 -0.0295699 0
M  V30 37 H 0.835997 -2.58848 0.829049 0
M  V30 END ATOM
M  V30 BEGIN BOND
M  V30 1 1 1 2
M  V30 2 1 2 3
M  V30 3 1 3 4
M  V30 4 1 4 5
M  V30 5 1 5 6
M  V30 6 1 6 7
M  V30 7 1 7 8
M  V30 8 1 8 9
M  V30 9 2 9 10
M  V30 10 1 10 11
M  V30 11 2 11 12
M  V30 12 1 12 13
M  V30 13 2 13 14
M  V30 14 1 13 15
M  V30 15 1 7 16
M  V30 16 1 8 4
M  V30 17 1 14 9
M  V30 18 1 1 17
M  V30 19 1 1 18
M  V30 20 1 1 19
M  V30 21 1 2 20
M  V30 22 1 2 21
M  V30 23 1 3 22
M  V30 24 1 3 23
M  V30 25 1 5 24
M  V30 26 1 5 25
M  V30 27 1 6 26
M  V30 28 1 6 27
M  V30 29 1 7 28
M  V30 30 1 8 29
M  V30 31 1 10 30
M  V30 32 1 11 31
M  V30 33 1 12 32
M  V30 34 1 14 33
M  V30 35 1 15 34
M  V30 36 1 15 35
M  V30 37 1 16 36
M  V30 38 1 16 37
M  V30 END BOND
M  V30 END CTAB
M  END
