
     RDKit          3D

  0  0  0  0  0  0  0  0  0  0999 V3000
M  V30 BEGIN CTAB
M  V30 COUNTS 49 51 0 0 0
M  V30 BEGIN ATOM
M  V30 1 O -2.5753 0.314784 1.97337 0
M  V30 2 C -2.13443 0.0692457 0.821221 0
M  V30 3 N -3.03432 -0.129931 -0.248736 0
M  V30 4 C -4.43031 -0.0539397 -0.0127913 0
M  V30 5 C -5.14133 -1.1714 0.292907 0
M  V30 6 Cl -4.38392 -2.73813 0.403563 0
M  V30 7 C -6.50261 -1.06233 0.520708 0
M  V30 8 C -7.15 0.137726 0.447161 0
M  V30 9 C -6.41137 1.26887 0.135122 0
M  V30 10 C -5.0718 1.16387 -0.0899568 0
M  V30 11 Cl -4.15294 2.57932 -0.481257 0
M  V30 12 S -8.87011 0.238427 0.737072 0
M  V30 13 O -9.30586 -0.935367 1.56639 0
M  V30 14 O -9.23635 1.54975 1.38508 0
M  V30 15 N -9.64902 0.0690089 -0.81134 0
M  V30 16 C -0.674337 -0.00276209 0.621343 0
M  V30 17 S -0.163443 1.5462 -0.168977 0
M  V30 18 C 1.59301 1.54241 -0.475914 0
M  V30 19 N 2.31084 2.49927 -1.07079 0
M  V30 20 N 3.55184 2.14671 -1.11402 0
M  V30 21 C 3.6955 0.921248 -0.536492 0
M  V30 22 N 2.47129 0.575503 -0.153264 0
M  V30 23 N 2.16381 -0.616703 0.485831 0
M  V30 24 C 4.99096 0.263827 -0.449251 0
M  V30 25 C 5.57253 0.705319 0.915342 0
M  V30 26 C 6.93646 0.117612 1.1246 0
M  V30 27 C 7.47322 -0.583666 -0.0731986 0
M  V30 28 C 6.5073 -1.61567 -0.590793 0
M  V30 29 C 5.05511 -1.19918 -0.466088 0
M  V30 30 H -2.63783 -0.328524 -1.20168 0
M  V30 31 H -7.04433 -1.96512 0.761058 0
M  V30 32 H -6.9203 2.21188 0.0762517 0
M  V30 33 H -9.33529 0.858739 -1.43666 0
M  V30 34 H -10.6811 0.217157 -0.604418 0
M  V30 35 H -0.357521 -0.84875 -0.0316454 0
M  V30 36 H -0.191125 -0.11675 1.60514 0
M  V30 37 H 2.16734 -0.577926 1.54718 0
M  V30 38 H 1.93919 -1.51445 0.053366 0
M  V30 39 H 5.73838 0.680147 -1.17798 0
M  V30 40 H 4.89962 0.26397 1.67722 0
M  V30 41 H 5.52809 1.79412 1.01436 0
M  V30 42 H 7.63677 0.976908 1.34161 0
M  V30 43 H 6.99287 -0.560119 1.99916 0
M  V30 44 H 8.40145 -1.12454 0.238318 0
M  V30 45 H 7.77436 0.106079 -0.888477 0
M  V30 46 H 6.71537 -1.74248 -1.67676 0
M  V30 47 H 6.67583 -2.62333 -0.129728 0
M  V30 48 H 4.72672 -1.57361 0.540342 0
M  V30 49 H 4.53712 -1.73343 -1.27654 0
M  V30 END ATOM
M  V30 BEGIN BOND
M  V30 1 2 1 2
M  V30 2 1 2 3
M  V30 3 1 3 4
M  V30 4 2 4 5
M  V30 5 1 5 6
M  V30 6 1 5 7
M  V30 7 2 7 8
M  V30 8 1 8 9
M  V30 9 2 9 10
M  V30 10 1 10 11
M  V30 11 1 8 12
M  V30 12 2 12 13
M  V30 13 2 12 14
M  V30 14 1 12 15
M  V30 15 1 2 16
M  V30 16 1 16 17
M  V30 17 1 17 18
M  V30 18 2 18 19
M  V30 19 1 19 20
M  V30 20 2 20 21
M  V30 21 1 21 22
M  V30 22 1 22 23
M  V30 23 1 21 24
M  V30 24 1 24 25
M  V30 25 1 25 26
M  V30 26 1 26 27
M  V30 27 1 27 28
M  V30 28 1 28 29
M  V30 29 1 10 4
M  V30 30 1 22 18
M  V30 31 1 29 24
M  V30 32 1 3 30
M  V30 33 1 7 31
M  V30 34 1 9 32
M  V30 35 1 15 33
M  V30 36 1 15 34
M  V30 37 1 16 35
M  V30 38 1 16 36
M  V30 39 1 23 37
M  V30 40 1 23 38
M  V30 41 1 24 39
M  V30 42 1 25 40
M  V30 43 1 25 41
M  V30 44 1 26 42
M  V30 45 1 26 43
M  V30 46 1 27 44
M  V30 47 1 27 45
M  V30 48 1 28 46
M  V30 49 1 28 47
M  V30 50 1 29 48
M  V30 51 1 29 49
M  V30 END BOND
M  V30 END CTAB
M  END
