
     RDKit          3D

  0  0  0  0  0  0  0  0  0  0999 V3000
M  V30 BEGIN CTAB
M  V30 COUNTS 19 19 0 0 0
M  V30 BEGIN ATOM
M  V30 1 F 1.79489 2.55189 0.211845 0
M  V30 2 C 0.760518 1.65923 0.135541 0
M  V30 3 C -0.55495 2.0728 0.168801 0
M  V30 4 C -1.62153 1.19925 0.094053 0
M  V30 5 Cl -3.28883 1.78194 0.141141 0
M  V30 6 C -1.32998 -0.144651 -0.0186859 0
M  V30 7 C -0.01535 -0.566899 -0.0526755 0
M  V30 8 C 1.03677 0.312199 0.0225241 0
M  V30 9 C 2.44201 -0.1761 -0.0169224 0
M  V30 10 N 0.276885 -1.95685 -0.169284 0
M  V30 11 N -2.38678 -1.08987 -0.099447 0
M  V30 12 H -0.769042 3.12413 0.257015 0
M  V30 13 H 2.62681 -0.805141 0.894245 0
M  V30 14 H 2.60014 -0.840116 -0.899958 0
M  V30 15 H 3.15046 0.65006 -0.072025 0
M  V30 16 H 1.05161 -2.33055 0.428468 0
M  V30 17 H -0.243411 -2.59556 -0.81439 0
M  V30 18 H -2.89478 -1.32737 0.799434 0
M  V30 19 H -2.63545 -1.5184 -1.00968 0
M  V30 END ATOM
M  V30 BEGIN BOND
M  V30 1 1 1 2
M  V30 2 2 2 3
M  V30 3 1 3 4
M  V30 4 1 4 5
M  V30 5 2 4 6
M  V30 6 1 6 7
M  V30 7 2 7 8
M  V30 8 1 8 9
M  V30 9 1 7 10
M  V30 10 1 6 11
M  V30 11 1 8 2
M  V30 12 1 3 12
M  V30 13 1 9 13
M  V30 14 1 9 14
M  V30 15 1 9 15
M  V30 16 1 10 16
M  V30 17 1 10 17
M  V30 18 1 11 18
M  V30 19 1 11 19
M  V30 END BOND
M  V30 END CTAB
M  END
