
     RDKit          3D

  0  0  0  0  0  0  0  0  0  0999 V3000
M  V30 BEGIN CTAB
M  V30 COUNTS 24 24 0 0 0
M  V30 BEGIN ATOM
M  V30 1 N -2.04623 -1.69538 0.551464 0
M  V30 2 C -1.34144 -0.675786 -0.199277 0
M  V30 3 C 0.139577 -0.823039 -0.104251 0
M  V30 4 N 0.820184 0.415915 0.230112 0
M  V30 5 C 0.367042 1.41707 -0.696321 0
M  V30 6 C -1.05393 1.80288 -0.373757 0
M  V30 7 C -1.8339 0.673759 0.248 0
M  V30 8 F -3.17255 0.764973 -0.0954204 0
M  V30 9 F -1.77525 0.698556 1.63412 0
M  V30 10 S 2.49808 0.109827 0.10611 0
M  V30 11 O 2.87985 -0.306326 -1.30821 0
M  V30 12 O 3.32309 1.33975 0.402912 0
M  V30 13 N 2.95232 -1.10612 1.22633 0
M  V30 14 H -2.23076 -2.54638 -0.0595597 0
M  V30 15 H -2.99251 -1.36045 0.845218 0
M  V30 16 H -1.63558 -0.819407 -1.27223 0
M  V30 17 H 0.437014 -1.5908 0.641829 0
M  V30 18 H 0.58558 -1.1512 -1.08628 0
M  V30 19 H 1.00877 2.32285 -0.676513 0
M  V30 20 H 0.36571 1.03808 -1.74362 0
M  V30 21 H -1.61847 2.14476 -1.25869 0
M  V30 22 H -1.04638 2.63557 0.351838 0
M  V30 23 H 2.17999 -1.30932 1.9132 0
M  V30 24 H 3.18981 -1.97977 0.723008 0
M  V30 END ATOM
M  V30 BEGIN BOND
M  V30 1 1 1 2
M  V30 2 1 2 3
M  V30 3 1 3 4
M  V30 4 1 4 5
M  V30 5 1 5 6
M  V30 6 1 6 7
M  V30 7 1 7 8
M  V30 8 1 7 9
M  V30 9 1 4 10
M  V30 10 2 10 11
M  V30 11 2 10 12
M  V30 12 1 10 13
M  V30 13 1 7 2
M  V30 14 1 1 14
M  V30 15 1 1 15
M  V30 16 1 2 16
M  V30 17 1 3 17
M  V30 18 1 3 18
M  V30 19 1 5 19
M  V30 20 1 5 20
M  V30 21 1 6 21
M  V30 22 1 6 22
M  V30 23 1 13 23
M  V30 24 1 13 24
M  V30 END BOND
M  V30 END CTAB
M  END
