
     RDKit          3D

  0  0  0  0  0  0  0  0  0  0999 V3000
M  V30 BEGIN CTAB
M  V30 COUNTS 24 25 0 0 0
M  V30 BEGIN ATOM
M  V30 1 N -4.2393 0.427128 -0.29457 0
M  V30 2 C -2.9659 -0.000409991 0.236505 0
M  V30 3 C -1.71864 0.311219 -0.252274 0
M  V30 4 C -1.59624 1.19711 -1.43775 0
M  V30 5 N -1.50113 1.91092 -2.35718 0
M  V30 6 C -0.660226 -0.214443 0.402787 0
M  V30 7 C -0.927271 -1.00442 1.49183 0
M  V30 8 N 0.00900197 -1.68163 2.35354 0
M  V30 9 S -2.61844 -0.997515 1.57524 0
M  V30 10 C 0.745221 0.024619 -0.0604028 0
M  V30 11 C 1.32897 1.26945 -0.00529545 0
M  V30 12 C 2.63876 1.47738 -0.424526 0
M  V30 13 C 3.37223 0.422762 -0.905596 0
M  V30 14 C 2.78419 -0.829778 -0.961197 0
M  V30 15 C 1.47643 -1.03827 -0.543252 0
M  V30 16 H -4.52504 0.16896 -1.26724 0
M  V30 17 H -4.8409 0.998272 0.350979 0
M  V30 18 H 0.505947 -1.2471 3.13719 0
M  V30 19 H 0.157728 -2.68925 2.11163 0
M  V30 20 H 0.735292 2.12185 0.370709 0
M  V30 21 H 3.08819 2.4754 -0.374857 0
M  V30 22 H 4.4025 0.58165 -1.23213 0
M  V30 23 H 3.35621 -1.67587 -1.33673 0
M  V30 24 H 0.992398 -2.00804 -0.577411 0
M  V30 END ATOM
M  V30 BEGIN BOND
M  V30 1 1 1 2
M  V30 2 2 2 3
M  V30 3 1 3 4
M  V30 4 3 4 5
M  V30 5 1 3 6
M  V30 6 2 6 7
M  V30 7 1 7 8
M  V30 8 1 7 9
M  V30 9 1 6 10
M  V30 10 2 10 11
M  V30 11 1 11 12
M  V30 12 2 12 13
M  V30 13 1 13 14
M  V30 14 2 14 15
M  V30 15 1 9 2
M  V30 16 1 15 10
M  V30 17 1 1 16
M  V30 18 1 1 17
M  V30 19 1 8 18
M  V30 20 1 8 19
M  V30 21 1 11 20
M  V30 22 1 12 21
M  V30 23 1 13 22
M  V30 24 1 14 23
M  V30 25 1 15 24
M  V30 END BOND
M  V30 END CTAB
M  END
