
     RDKit          3D

  0  0  0  0  0  0  0  0  0  0999 V3000
M  V30 BEGIN CTAB
M  V30 COUNTS 43 44 0 0 0
M  V30 BEGIN ATOM
M  V30 1 C -1.42927 -1.48192 0.922673 0
M  V30 2 C -2.57076 -0.719005 0.372552 0
M  V30 3 C -3.38393 -1.74586 -0.468921 0
M  V30 4 C -3.44462 -0.359818 1.60016 0
M  V30 5 N -2.31469 0.35355 -0.438005 0
M  V30 6 S -1.48473 1.71745 0.00777324 0
M  V30 7 O -2.50642 2.87776 -0.00780513 0
M  V30 8 O -1.12661 1.68786 1.50884 0
M  V30 9 C -0.0988891 2.22538 -0.869749 0
M  V30 10 C -0.329645 3.34592 -1.73331 0
M  V30 11 C 0.615177 3.8446 -2.58034 0
M  V30 12 C 1.86161 3.25942 -2.6268 0
M  V30 13 C 2.09311 2.1977 -1.81199 0
M  V30 14 C 1.1087 1.67116 -0.921128 0
M  V30 15 C 1.56831 0.597353 -0.0696915 0
M  V30 16 C 1.75514 0.700435 1.27351 0
M  V30 17 C 2.22894 -0.382699 1.99641 0
M  V30 18 C 2.51343 -1.5659 1.35739 0
M  V30 19 N 3.00605 -2.67669 2.139 0
M  V30 20 C 2.33609 -1.7036 -0.00622374 0
M  V30 21 N 2.63747 -2.93372 -0.641808 0
M  V30 22 C 1.86064 -0.599314 -0.690994 0
M  V30 23 H -1.88219 -2.32708 1.53394 0
M  V30 24 H -0.857013 -0.901525 1.66508 0
M  V30 25 H -0.795477 -1.95492 0.143855 0
M  V30 26 H -4.43624 -1.39705 -0.525666 0
M  V30 27 H -3.28596 -2.7523 -0.0153935 0
M  V30 28 H -2.88691 -1.79295 -1.4599 0
M  V30 29 H -2.83614 -0.3296 2.51888 0
M  V30 30 H -4.22805 -1.12915 1.75347 0
M  V30 31 H -3.94973 0.587575 1.36147 0
M  V30 32 H -2.09648 0.0742215 -1.41507 0
M  V30 33 H -1.28374 3.83168 -1.73317 0
M  V30 34 H 0.428699 4.6996 -3.23459 0
M  V30 35 H 2.6091 3.64252 -3.2889 0
M  V30 36 H 3.05339 1.72154 -1.82629 0
M  V30 37 H 1.57623 1.63064 1.83015 0
M  V30 38 H 2.37305 -0.280183 3.08617 0
M  V30 39 H 2.82934 -3.64221 1.77718 0
M  V30 40 H 3.50574 -2.47244 3.01132 0
M  V30 41 H 3.46513 -3.4617 -0.309899 0
M  V30 42 H 2.07416 -3.32482 -1.41466 0
M  V30 43 H 1.72796 -0.73191 -1.76952 0
M  V30 END ATOM
M  V30 BEGIN BOND
M  V30 1 1 1 2
M  V30 2 1 2 3
M  V30 3 1 2 4
M  V30 4 1 2 5
M  V30 5 1 5 6
M  V30 6 2 6 7
M  V30 7 2 6 8
M  V30 8 1 6 9
M  V30 9 2 9 10
M  V30 10 1 10 11
M  V30 11 2 11 12
M  V30 12 1 12 13
M  V30 13 2 13 14
M  V30 14 1 14 15
M  V30 15 2 15 16
M  V30 16 1 16 17
M  V30 17 2 17 18
M  V30 18 1 18 19
M  V30 19 1 18 20
M  V30 20 1 20 21
M  V30 21 2 20 22
M  V30 22 1 14 9
M  V30 23 1 22 15
M  V30 24 1 1 23
M  V30 25 1 1 24
M  V30 26 1 1 25
M  V30 27 1 3 26
M  V30 28 1 3 27
M  V30 29 1 3 28
M  V30 30 1 4 29
M  V30 31 1 4 30
M  V30 32 1 4 31
M  V30 33 1 5 32
M  V30 34 1 10 33
M  V30 35 1 11 34
M  V30 36 1 12 35
M  V30 37 1 13 36
M  V30 38 1 16 37
M  V30 39 1 17 38
M  V30 40 1 19 39
M  V30 41 1 19 40
M  V30 42 1 21 41
M  V30 43 1 21 42
M  V30 44 1 22 43
M  V30 END BOND
M  V30 END CTAB
M  END
