
     RDKit          3D

  0  0  0  0  0  0  0  0  0  0999 V3000
M  V30 BEGIN CTAB
M  V30 COUNTS 47 50 0 0 0
M  V30 BEGIN ATOM
M  V30 1 O -3.7258 1.19139 -3.10841 0
M  V30 2 C -4.35142 -0.0577129 -3.00204 0
M  V30 3 O -4.9468 -0.555658 -3.97799 0
M  V30 4 C -4.32422 -0.82036 -1.73256 0
M  V30 5 O -3.61681 -0.136216 -0.717503 0
M  V30 6 C -3.49788 -0.705588 0.520624 0
M  V30 7 C -4.06273 -1.94853 0.796589 0
M  V30 8 C -3.91084 -2.47663 2.06735 0
M  V30 9 C -3.22173 -1.8166 3.06623 0
M  V30 10 C -2.67154 -0.583511 2.76251 0
M  V30 11 C -2.80094 -0.0232565 1.50789 0
M  V30 12 C -2.22238 1.2861 1.16865 0
M  V30 13 O -2.88024 2.35334 1.32776 0
M  V30 14 N -0.897903 1.29392 0.657135 0
M  V30 15 C -0.204533 2.51992 0.28121 0
M  V30 16 C 1.04807 2.1306 -0.428403 0
M  V30 17 C 1.2912 0.716701 0.0561194 0
M  V30 18 C -0.0415032 0.151455 0.428277 0
M  V30 19 O 2.20293 0.756517 1.13559 0
M  V30 20 C 3.47781 0.379945 0.703325 0
M  V30 21 C 3.39696 -0.119082 -0.575476 0
M  V30 22 C 1.97918 -0.0705998 -1.01916 0
M  V30 23 C 4.53141 -0.552779 -1.20646 0
M  V30 24 N 4.53574 -1.08006 -2.52303 0
M  V30 25 N 5.71475 -0.484518 -0.564139 0
M  V30 26 C 5.79983 0.00146268 0.683786 0
M  V30 27 N 4.68996 0.421283 1.29003 0
M  V30 28 N 7.0668 0.0695034 1.35885 0
M  V30 29 H -4.04421 1.99599 -2.58399 0
M  V30 30 H -5.40478 -0.967213 -1.4391 0
M  V30 31 H -3.92459 -1.83654 -1.92829 0
M  V30 32 H -4.59773 -2.45006 0.00407142 0
M  V30 33 H -4.35372 -3.43539 2.25933 0
M  V30 34 H -3.11168 -2.24411 4.05698 0
M  V30 35 H -2.12341 -0.030328 3.51337 0
M  V30 36 H -0.829467 3.11389 -0.427572 0
M  V30 37 H -0.0523109 3.15241 1.17262 0
M  V30 38 H 0.967762 2.12634 -1.51606 0
M  V30 39 H 1.87184 2.81234 -0.0950978 0
M  V30 40 H 0.0688772 -0.495845 1.31115 0
M  V30 41 H -0.420884 -0.481119 -0.426845 0
M  V30 42 H 1.60907 -1.12936 -1.04972 0
M  V30 43 H 1.88593 0.4008 -2.0299 0
M  V30 44 H 3.99133 -0.624881 -3.28646 0
M  V30 45 H 5.09089 -1.93137 -2.72239 0
M  V30 46 H 7.86192 -0.476326 0.971732 0
M  V30 47 H 7.15777 0.659726 2.21357 0
M  V30 END ATOM
M  V30 BEGIN BOND
M  V30 1 1 1 2
M  V30 2 2 2 3
M  V30 3 1 2 4
M  V30 4 1 4 5
M  V30 5 1 5 6
M  V30 6 2 6 7
M  V30 7 1 7 8
M  V30 8 2 8 9
M  V30 9 1 9 10
M  V30 10 2 10 11
M  V30 11 1 11 12
M  V30 12 2 12 13
M  V30 13 1 12 14
M  V30 14 1 14 15
M  V30 15 1 15 16
M  V30 16 1 16 17
M  V30 17 1 17 18
M  V30 18 1 17 19
M  V30 19 1 19 20
M  V30 20 2 20 21
M  V30 21 1 21 22
M  V30 22 1 21 23
M  V30 23 1 23 24
M  V30 24 2 23 25
M  V30 25 1 25 26
M  V30 26 2 26 27
M  V30 27 1 26 28
M  V30 28 1 11 6
M  V30 29 1 18 14
M  V30 30 1 27 20
M  V30 31 1 22 17
M  V30 32 1 1 29
M  V30 33 1 4 30
M  V30 34 1 4 31
M  V30 35 1 7 32
M  V30 36 1 8 33
M  V30 37 1 9 34
M  V30 38 1 10 35
M  V30 39 1 15 36
M  V30 40 1 15 37
M  V30 41 1 16 38
M  V30 42 1 16 39
M  V30 43 1 18 40
M  V30 44 1 18 41
M  V30 45 1 22 42
M  V30 46 1 22 43
M  V30 47 1 24 44
M  V30 48 1 24 45
M  V30 49 1 28 46
M  V30 50 1 28 47
M  V30 END BOND
M  V30 END CTAB
M  END
