
     RDKit          3D

  0  0  0  0  0  0  0  0  0  0999 V3000
M  V30 BEGIN CTAB
M  V30 COUNTS 45 47 0 0 0
M  V30 BEGIN ATOM
M  V30 1 C -3.17867 -2.6821 0.241424 0
M  V30 2 C -3.5315 -1.77783 -0.924933 0
M  V30 3 C -4.04148 -0.492003 -0.390112 0
M  V30 4 N -5.36308 -0.273673 -0.423739 0
M  V30 5 C -5.86891 0.877078 0.0491133 0
M  V30 6 N -7.25727 1.15951 0.0314504 0
M  V30 7 N -5.06142 1.81517 0.557094 0
M  V30 8 C -3.75334 1.61335 0.596166 0
M  V30 9 N -2.87844 2.60669 1.13805 0
M  V30 10 C -3.16989 0.432681 0.1176 0
M  V30 11 C -1.7282 0.269963 0.181894 0
M  V30 12 C -0.899443 0.437072 -0.925312 0
M  V30 13 C 0.468037 0.299976 -0.832904 0
M  V30 14 C 1.05162 -0.0090481 0.369207 0
M  V30 15 N 2.458 -0.132815 0.497335 0
M  V30 16 C 3.27707 0.0673689 -0.67747 0
M  V30 17 C 4.72112 0.0114505 -0.328235 0
M  V30 18 C 5.36166 -1.18054 -0.126712 0
M  V30 19 C 6.6946 -1.22562 0.195157 0
M  V30 20 C 7.38472 -0.0398383 0.313275 0
M  V30 21 Cl 9.10308 -0.0831904 0.732026 0
M  V30 22 C 6.73952 1.14944 0.110234 0
M  V30 23 C 5.40684 1.19303 -0.211226 0
M  V30 24 C 0.268831 -0.182844 1.4829 0
M  V30 25 C -1.09439 -0.0394517 1.35953 0
M  V30 26 H -3.41043 -2.17596 1.21016 0
M  V30 27 H -2.10622 -2.96178 0.253057 0
M  V30 28 H -3.81679 -3.61391 0.21725 0
M  V30 29 H -2.6513 -1.63981 -1.58639 0
M  V30 30 H -4.29853 -2.27979 -1.53593 0
M  V30 31 H -7.86144 0.958808 -0.794366 0
M  V30 32 H -7.68937 1.57904 0.858835 0
M  V30 33 H -2.28565 2.40907 1.97465 0
M  V30 34 H -2.80091 3.56485 0.716453 0
M  V30 35 H -1.38107 0.678505 -1.85402 0
M  V30 36 H 1.12302 0.426684 -1.68429 0
M  V30 37 H 2.91823 -0.358704 1.38765 0
M  V30 38 H 3.0319 -0.720804 -1.39529 0
M  V30 39 H 2.98969 1.03844 -1.10506 0
M  V30 40 H 4.81063 -2.11005 -0.219428 0
M  V30 41 H 7.14629 -2.19277 0.342129 0
M  V30 42 H 7.27019 2.08379 0.200543 0
M  V30 43 H 4.88158 2.12111 -0.375521 0
M  V30 44 H 0.699151 -0.429212 2.45596 0
M  V30 45 H -1.67801 -0.19133 2.27322 0
M  V30 END ATOM
M  V30 BEGIN BOND
M  V30 1 1 1 2
M  V30 2 1 2 3
M  V30 3 2 3 4
M  V30 4 1 4 5
M  V30 5 1 5 6
M  V30 6 2 5 7
M  V30 7 1 7 8
M  V30 8 1 8 9
M  V30 9 2 8 10
M  V30 10 1 10 11
M  V30 11 2 11 12
M  V30 12 1 12 13
M  V30 13 2 13 14
M  V30 14 1 14 15
M  V30 15 1 15 16
M  V30 16 1 16 17
M  V30 17 2 17 18
M  V30 18 1 18 19
M  V30 19 2 19 20
M  V30 20 1 20 21
M  V30 21 1 20 22
M  V30 22 2 22 23
M  V30 23 1 14 24
M  V30 24 2 24 25
M  V30 25 1 10 3
M  V30 26 1 25 11
M  V30 27 1 23 17
M  V30 28 1 1 26
M  V30 29 1 1 27
M  V30 30 1 1 28
M  V30 31 1 2 29
M  V30 32 1 2 30
M  V30 33 1 6 31
M  V30 34 1 6 32
M  V30 35 1 9 33
M  V30 36 1 9 34
M  V30 37 1 12 35
M  V30 38 1 13 36
M  V30 39 1 15 37
M  V30 40 1 16 38
M  V30 41 1 16 39
M  V30 42 1 18 40
M  V30 43 1 19 41
M  V30 44 1 22 42
M  V30 45 1 23 43
M  V30 46 1 24 44
M  V30 47 1 25 45
M  V30 END BOND
M  V30 END CTAB
M  END
