
     RDKit          3D

  0  0  0  0  0  0  0  0  0  0999 V3000
M  V30 BEGIN CTAB
M  V30 COUNTS 23 23 0 0 0
M  V30 BEGIN ATOM
M  V30 1 C -2.52232 0.614606 1.66409 0
M  V30 2 C -1.96697 0.0769721 0.363996 0
M  V30 3 C -2.99253 -0.7604 -0.375601 0
M  V30 4 O -0.884785 -0.774385 0.68368 0
M  V30 5 C 0.368987 -0.428854 0.178395 0
M  V30 6 N 0.561155 0.664347 -0.58299 0
M  V30 7 C 1.77201 0.988907 -1.06497 0
M  V30 8 N 1.96087 2.16139 -1.87776 0
M  V30 9 N 2.78994 0.16732 -0.750589 0
M  V30 10 C 2.63479 -0.929603 0.00503305 0
M  V30 11 N 3.73464 -1.79267 0.3285 0
M  V30 12 N 1.41785 -1.23704 0.477107 0
M  V30 13 H -3.64019 0.588739 1.63345 0
M  V30 14 H -2.14305 0.0286894 2.54038 0
M  V30 15 H -2.1485 1.64953 1.81406 0
M  V30 16 H -1.65337 0.93187 -0.267531 0
M  V30 17 H -3.83934 -0.105573 -0.70962 0
M  V30 18 H -2.46201 -1.22267 -1.22997 0
M  V30 19 H -3.408 -1.53142 0.305565 0
M  V30 20 H 2.83309 2.69792 -1.6876 0
M  V30 21 H 1.29681 2.46362 -2.59711 0
M  V30 22 H 4.59967 -1.84767 -0.246796 0
M  V30 23 H 3.69126 -2.40363 1.17363 0
M  V30 END ATOM
M  V30 BEGIN BOND
M  V30 1 1 1 2
M  V30 2 1 2 3
M  V30 3 1 2 4
M  V30 4 1 4 5
M  V30 5 2 5 6
M  V30 6 1 6 7
M  V30 7 1 7 8
M  V30 8 2 7 9
M  V30 9 1 9 10
M  V30 10 1 10 11
M  V30 11 2 10 12
M  V30 12 1 12 5
M  V30 13 1 1 13
M  V30 14 1 1 14
M  V30 15 1 1 15
M  V30 16 1 2 16
M  V30 17 1 3 17
M  V30 18 1 3 18
M  V30 19 1 3 19
M  V30 20 1 8 20
M  V30 21 1 8 21
M  V30 22 1 11 22
M  V30 23 1 11 23
M  V30 END BOND
M  V30 END CTAB
M  END
