
     RDKit          3D

  0  0  0  0  0  0  0  0  0  0999 V3000
M  V30 BEGIN CTAB
M  V30 COUNTS 41 43 0 0 0
M  V30 BEGIN ATOM
M  V30 1 C 3.90215 -1.97569 -0.355981 0
M  V30 2 C 2.9105 -1.0775 -0.962852 0
M  V30 3 C 2.8591 -0.77885 -2.30678 0
M  V30 4 C 1.89442 0.0739957 -2.78675 0
M  V30 5 C 0.950117 0.65472 -1.93433 0
M  V30 6 C 0.98864 0.366242 -0.593958 0
M  V30 7 C 1.96957 -0.492211 -0.148697 0
M  V30 8 N 0.035842 0.965745 0.311056 0
M  V30 9 C 0.447377 2.20001 0.876383 0
M  V30 10 N -0.238681 2.87707 1.73301 0
M  V30 11 C -1.49153 2.32157 2.11257 0
M  V30 12 N -1.89019 1.23307 1.62309 0
M  V30 13 C -1.23119 0.394244 0.661669 0
M  V30 14 C -1.1073 -0.945721 1.34039 0
M  V30 15 C -1.28859 -2.15063 0.504015 0
M  V30 16 C -2.66281 -2.0342 -0.177758 0
M  V30 17 C -2.41259 -0.903865 -1.18491 0
M  V30 18 C -2.16661 0.389036 -0.530207 0
M  V30 19 N -2.32819 3.00269 3.07026 0
M  V30 20 N 1.7411 2.73159 0.449903 0
M  V30 21 H 4.60203 -1.42788 0.314673 0
M  V30 22 H 3.34422 -2.67854 0.322397 0
M  V30 23 H 4.46146 -2.5537 -1.1062 0
M  V30 24 H 3.59347 -1.22958 -2.97506 0
M  V30 25 H 1.87906 0.291128 -3.85364 0
M  V30 26 H 0.216748 1.33278 -2.39468 0
M  V30 27 H 1.9863 -0.702281 0.910161 0
M  V30 28 H -0.14311 -1.01837 1.88032 0
M  V30 29 H -1.87498 -1.0337 2.17563 0
M  V30 30 H -0.564392 -2.23983 -0.295724 0
M  V30 31 H -1.28638 -3.03089 1.19211 0
M  V30 32 H -2.90188 -2.93095 -0.764306 0
M  V30 33 H -3.44781 -1.75627 0.540955 0
M  V30 34 H -1.54541 -1.22246 -1.77747 0
M  V30 35 H -3.32745 -0.818991 -1.81354 0
M  V30 36 H -3.1913 0.805349 -0.252569 0
M  V30 37 H -1.79708 1.12569 -1.26352 0
M  V30 38 H -1.8865 3.42127 3.88793 0
M  V30 39 H -3.33095 3.04356 2.89937 0
M  V30 40 H 1.78717 3.35133 -0.364419 0
M  V30 41 H 2.54565 2.42103 1.03746 0
M  V30 END ATOM
M  V30 BEGIN BOND
M  V30 1 1 1 2
M  V30 2 2 2 3
M  V30 3 1 3 4
M  V30 4 2 4 5
M  V30 5 1 5 6
M  V30 6 2 6 7
M  V30 7 1 6 8
M  V30 8 1 8 9
M  V30 9 2 9 10
M  V30 10 1 10 11
M  V30 11 2 11 12
M  V30 12 1 12 13
M  V30 13 1 13 14
M  V30 14 1 14 15
M  V30 15 1 15 16
M  V30 16 1 16 17
M  V30 17 1 17 18
M  V30 18 1 11 19
M  V30 19 1 9 20
M  V30 20 1 7 2
M  V30 21 1 13 8
M  V30 22 1 18 13
M  V30 23 1 1 21
M  V30 24 1 1 22
M  V30 25 1 1 23
M  V30 26 1 3 24
M  V30 27 1 4 25
M  V30 28 1 5 26
M  V30 29 1 7 27
M  V30 30 1 14 28
M  V30 31 1 14 29
M  V30 32 1 15 30
M  V30 33 1 15 31
M  V30 34 1 16 32
M  V30 35 1 16 33
M  V30 36 1 17 34
M  V30 37 1 17 35
M  V30 38 1 18 36
M  V30 39 1 18 37
M  V30 40 1 19 38
M  V30 41 1 19 39
M  V30 42 1 20 40
M  V30 43 1 20 41
M  V30 END BOND
M  V30 END CTAB
M  END
