
     RDKit          3D

  0  0  0  0  0  0  0  0  0  0999 V3000
M  V30 BEGIN CTAB
M  V30 COUNTS 41 41 0 0 0
M  V30 BEGIN ATOM
M  V30 1 C 0.897441 0.363346 3.15408 0
M  V30 2 C 0.272986 0.714976 1.82642 0
M  V30 3 C 1.28899 0.900688 0.786744 0
M  V30 4 C 2.63468 0.90742 1.15827 0
M  V30 5 C 3.60766 1.08194 0.198692 0
M  V30 6 C 3.29035 1.25182 -1.13007 0
M  V30 7 C 1.96497 1.24308 -1.48018 0
M  V30 8 C 0.959021 1.06969 -0.538955 0
M  V30 9 S 4.51533 1.47358 -2.3547 0
M  V30 10 O 5.70048 2.15117 -1.72365 0
M  V30 11 O 3.92704 2.31345 -3.44182 0
M  V30 12 N 4.95072 -0.104661 -2.95061 0
M  V30 13 N -0.720163 -0.252712 1.41582 0
M  V30 14 C -2.10265 0.0366651 1.30792 0
M  V30 15 O -2.57263 1.18313 1.56495 0
M  V30 16 C -3.03652 -1.02855 0.883439 0 CFG=2
M  V30 17 C -2.5994 -1.50825 -0.488061 0
M  V30 18 C -3.56175 -2.61037 -0.919215 0
M  V30 19 C -2.75837 -0.404214 -1.52258 0
M  V30 20 N -4.40905 -0.568178 0.864877 0
M  V30 21 H 0.109129 0.186204 3.91276 0
M  V30 22 H 1.61083 -0.477627 3.07876 0
M  V30 23 H 1.46561 1.24606 3.50672 0
M  V30 24 H -0.260849 1.69008 2.00153 0
M  V30 25 H 2.9261 0.780261 2.17011 0
M  V30 26 H 4.65087 1.08347 0.513922 0
M  V30 27 H 1.65862 1.37294 -2.51405 0
M  V30 28 H -0.082968 1.06517 -0.820611 0
M  V30 29 H 5.79532 -0.0211741 -3.55193 0
M  V30 30 H 4.10965 -0.470598 -3.45486 0
M  V30 31 H -0.361544 -1.20733 1.19463 0
M  V30 32 H -2.95965 -1.88676 1.58205 0
M  V30 33 H -1.57731 -1.8978 -0.437483 0
M  V30 34 H -3.56955 -2.63042 -2.00915 0
M  V30 35 H -4.5719 -2.36618 -0.550037 0
M  V30 36 H -3.2574 -3.5749 -0.457692 0
M  V30 37 H -3.51736 -0.612319 -2.27717 0
M  V30 38 H -3.04969 0.548664 -0.999871 0
M  V30 39 H -1.77486 -0.163625 -2.00582 0
M  V30 40 H -4.51754 0.387737 1.22311 0
M  V30 41 H -5.07463 -1.2659 1.263 0
M  V30 END ATOM
M  V30 BEGIN BOND
M  V30 1 1 1 2
M  V30 2 1 2 3
M  V30 3 2 3 4
M  V30 4 1 4 5
M  V30 5 2 5 6
M  V30 6 1 6 7
M  V30 7 2 7 8
M  V30 8 1 6 9
M  V30 9 2 9 10
M  V30 10 2 9 11
M  V30 11 1 9 12
M  V30 12 1 2 13
M  V30 13 1 13 14
M  V30 14 2 14 15
M  V30 15 1 14 16
M  V30 16 1 16 17
M  V30 17 1 17 18
M  V30 18 1 17 19
M  V30 19 1 16 20
M  V30 20 1 8 3
M  V30 21 1 1 21
M  V30 22 1 1 22
M  V30 23 1 1 23
M  V30 24 1 2 24
M  V30 25 1 4 25
M  V30 26 1 5 26
M  V30 27 1 7 27
M  V30 28 1 8 28
M  V30 29 1 12 29
M  V30 30 1 12 30
M  V30 31 1 13 31
M  V30 32 1 16 32 CFG=1
M  V30 33 1 17 33
M  V30 34 1 18 34
M  V30 35 1 18 35
M  V30 36 1 18 36
M  V30 37 1 19 37
M  V30 38 1 19 38
M  V30 39 1 19 39
M  V30 40 1 20 40
M  V30 41 1 20 41
M  V30 END BOND
M  V30 END CTAB
M  END
