
     RDKit          3D

  0  0  0  0  0  0  0  0  0  0999 V3000
M  V30 BEGIN CTAB
M  V30 COUNTS 46 49 0 0 0
M  V30 BEGIN ATOM
M  V30 1 C -0.8026 -3.06458 -1.09669 0
M  V30 2 O -1.0449 -1.77051 -1.5249 0
M  V30 3 C -1.55111 -0.71364 -0.818716 0
M  V30 4 C -0.731343 0.161632 -0.15348 0
M  V30 5 C -1.2931 1.23803 0.561545 0
M  V30 6 C -2.66386 1.41286 0.593919 0
M  V30 7 C -3.2434 2.46227 1.28892 0
M  V30 8 C -2.45495 3.36408 1.97038 0
M  V30 9 C -1.07379 3.17553 1.92911 0
M  V30 10 C -0.492467 2.13354 1.23941 0
M  V30 11 C -3.48799 0.533718 -0.0740544 0
M  V30 12 C -2.92213 -0.519408 -0.772681 0
M  V30 13 N -3.7448 -1.43187 -1.46384 0
M  V30 14 C 0.723428 0.0565884 -0.124198 0
M  V30 15 C 1.52759 0.636296 -1.10976 0
M  V30 16 O 0.981227 1.31951 -2.15061 0
M  V30 17 C 0.600574 0.822882 -3.40793 0
M  V30 18 C 2.91638 0.548137 -1.07958 0
M  V30 19 N 3.72974 1.13999 -2.08622 0
M  V30 20 C 3.48821 -0.137505 -0.0334898 0
M  V30 21 C 2.70768 -0.719208 0.955116 0
M  V30 22 C 1.3279 -0.625859 0.915647 0
M  V30 23 C 0.613204 -1.21745 1.9357 0
M  V30 24 C 1.20917 -1.88982 2.9791 0
M  V30 25 C 2.58825 -1.98812 3.02525 0
M  V30 26 C 3.30512 -1.3969 2.00634 0
M  V30 27 H 0.281764 -3.20089 -0.836683 0
M  V30 28 H -1.01674 -3.82051 -1.88643 0
M  V30 29 H -1.37915 -3.37769 -0.202541 0
M  V30 30 H -4.31485 2.59728 1.31304 0
M  V30 31 H -2.905 4.18482 2.51416 0
M  V30 32 H -0.446383 3.8823 2.46381 0
M  V30 33 H 0.592049 2.00563 1.22104 0
M  V30 34 H -4.55506 0.687738 -0.0362372 0
M  V30 35 H -4.43108 -1.08853 -2.15046 0
M  V30 36 H -3.6622 -2.44534 -1.28434 0
M  V30 37 H 0.920092 1.45803 -4.24792 0
M  V30 38 H 0.888855 -0.250009 -3.54058 0
M  V30 39 H -0.522457 0.821862 -3.4294 0
M  V30 40 H 4.42026 0.561177 -2.61586 0
M  V30 41 H 3.68709 2.15024 -2.34638 0
M  V30 42 H 4.58049 -0.22859 0.0243149 0
M  V30 43 H -0.486265 -1.16359 1.93874 0
M  V30 44 H 0.661726 -2.35564 3.78104 0
M  V30 45 H 3.07051 -2.51121 3.83491 0
M  V30 46 H 4.40433 -1.43728 1.98148 0
M  V30 END ATOM
M  V30 BEGIN BOND
M  V30 1 1 1 2
M  V30 2 1 2 3
M  V30 3 2 3 4
M  V30 4 1 4 5
M  V30 5 2 5 6
M  V30 6 1 6 7
M  V30 7 2 7 8
M  V30 8 1 8 9
M  V30 9 2 9 10
M  V30 10 1 6 11
M  V30 11 2 11 12
M  V30 12 1 12 13
M  V30 13 1 4 14
M  V30 14 2 14 15
M  V30 15 1 15 16
M  V30 16 1 16 17
M  V30 17 1 15 18
M  V30 18 1 18 19
M  V30 19 2 18 20
M  V30 20 1 20 21
M  V30 21 2 21 22
M  V30 22 1 22 23
M  V30 23 2 23 24
M  V30 24 1 24 25
M  V30 25 2 25 26
M  V30 26 1 12 3
M  V30 27 1 22 14
M  V30 28 1 10 5
M  V30 29 1 26 21
M  V30 30 1 1 27
M  V30 31 1 1 28
M  V30 32 1 1 29
M  V30 33 1 7 30
M  V30 34 1 8 31
M  V30 35 1 9 32
M  V30 36 1 10 33
M  V30 37 1 11 34
M  V30 38 1 13 35
M  V30 39 1 13 36
M  V30 40 1 17 37
M  V30 41 1 17 38
M  V30 42 1 17 39
M  V30 43 1 19 40
M  V30 44 1 19 41
M  V30 45 1 20 42
M  V30 46 1 23 43
M  V30 47 1 24 44
M  V30 48 1 25 45
M  V30 49 1 26 46
M  V30 END BOND
M  V30 END CTAB
M  END
