
     RDKit          3D

  0  0  0  0  0  0  0  0  0  0999 V3000
M  V30 BEGIN CTAB
M  V30 COUNTS 41 42 0 0 0
M  V30 BEGIN ATOM
M  V30 1 N -4.30948 1.6412 0.18505 0
M  V30 2 C -4.23969 0.290793 -0.365503 0
M  V30 3 C -3.04623 -0.412281 0.247578 0
M  V30 4 C -2.91336 -1.83216 -0.284541 0
M  V30 5 C -1.81943 -2.47271 0.58259 0
M  V30 6 C -0.520766 -1.82431 0.0761086 0
M  V30 7 N -0.58694 -0.395398 0.155857 0
M  V30 8 C -1.79187 0.380046 0.00784887 0
M  V30 9 C 0.613086 0.324011 0.401938 0
M  V30 10 N 0.736403 1.1147 1.50528 0
M  V30 11 C 1.84052 1.81878 1.79597 0
M  V30 12 N 1.90114 2.63345 2.9793 0
M  V30 13 N 2.88505 1.74294 0.954935 0
M  V30 14 C 2.86752 0.994525 -0.158454 0
M  V30 15 C 1.71064 0.286719 -0.41787 0
M  V30 16 C 1.63964 -0.557779 -1.63283 0
M  V30 17 C 4.04058 0.924161 -1.08122 0
M  V30 18 C 4.79576 -0.373157 -0.921711 0
M  V30 19 H -4.88868 2.24147 -0.452965 0
M  V30 20 H -4.74741 1.62973 1.1315 0
M  V30 21 H -5.19234 -0.20573 -0.0422846 0
M  V30 22 H -4.19488 0.313107 -1.47093 0
M  V30 23 H -3.25334 -0.509557 1.33353 0
M  V30 24 H -2.52494 -1.7293 -1.3364 0
M  V30 25 H -3.86052 -2.3604 -0.216919 0
M  V30 26 H -1.76559 -3.53825 0.357624 0
M  V30 27 H -2.02997 -2.20408 1.61812 0
M  V30 28 H 0.284161 -2.25213 0.709264 0
M  V30 29 H -0.439744 -2.2032 -0.98327 0
M  V30 30 H -1.84308 0.914139 -0.973086 0
M  V30 31 H -1.75769 1.1894 0.770713 0
M  V30 32 H 2.20645 2.15775 3.84896 0
M  V30 33 H 1.66709 3.63701 3.0202 0
M  V30 34 H 2.39807 -0.25916 -2.38523 0
M  V30 35 H 0.6546 -0.411385 -2.13448 0
M  V30 36 H 1.84905 -1.62787 -1.40611 0
M  V30 37 H 3.79828 1.18403 -2.11227 0
M  V30 38 H 4.75292 1.72987 -0.732728 0
M  V30 39 H 5.69187 -0.320204 -1.56412 0
M  V30 40 H 4.20938 -1.2649 -1.1404 0
M  V30 41 H 5.18372 -0.393856 0.13095 0
M  V30 END ATOM
M  V30 BEGIN BOND
M  V30 1 1 1 2
M  V30 2 1 2 3
M  V30 3 1 3 4
M  V30 4 1 4 5
M  V30 5 1 5 6
M  V30 6 1 6 7
M  V30 7 1 7 8
M  V30 8 1 7 9
M  V30 9 2 9 10
M  V30 10 1 10 11
M  V30 11 1 11 12
M  V30 12 2 11 13
M  V30 13 1 13 14
M  V30 14 2 14 15
M  V30 15 1 15 16
M  V30 16 1 14 17
M  V30 17 1 17 18
M  V30 18 1 8 3
M  V30 19 1 15 9
M  V30 20 1 1 19
M  V30 21 1 1 20
M  V30 22 1 2 21
M  V30 23 1 2 22
M  V30 24 1 3 23
M  V30 25 1 4 24
M  V30 26 1 4 25
M  V30 27 1 5 26
M  V30 28 1 5 27
M  V30 29 1 6 28
M  V30 30 1 6 29
M  V30 31 1 8 30
M  V30 32 1 8 31
M  V30 33 1 12 32
M  V30 34 1 12 33
M  V30 35 1 16 34
M  V30 36 1 16 35
M  V30 37 1 16 36
M  V30 38 1 17 37
M  V30 39 1 17 38
M  V30 40 1 18 39
M  V30 41 1 18 40
M  V30 42 1 18 41
M  V30 END BOND
M  V30 END CTAB
M  END
