
     RDKit          3D

  0  0  0  0  0  0  0  0  0  0999 V3000
M  V30 BEGIN CTAB
M  V30 COUNTS 56 57 0 0 0
M  V30 BEGIN ATOM
M  V30 1 C -1.72712 3.82929 1.42632 0
M  V30 2 C -2.69226 2.68348 1.29503 0
M  V30 3 C -3.85652 3.13174 0.460033 0
M  V30 4 C -2.08596 1.38613 0.961137 0
M  V30 5 N -1.34776 1.2404 -0.231987 0
M  V30 6 C -0.0865441 0.560307 -0.0577519 0
M  V30 7 C 1.08689 1.21007 -0.69044 0 CFG=1
M  V30 8 O 1.27269 2.5038 -0.158503 0
M  V30 9 C 2.35348 0.419293 -0.600935 0 CFG=1
M  V30 10 N 3.37135 1.12384 -1.3632 0
M  V30 11 C 2.80382 0.187828 0.821496 0
M  V30 12 C 4.06256 -0.601153 0.823263 0
M  V30 13 C 4.07429 -1.97917 0.859402 0
M  V30 14 C 5.25457 -2.69951 0.860518 0
M  V30 15 C 6.47584 -2.05769 0.825113 0
M  V30 16 C 6.4814 -0.685543 0.788867 0
M  V30 17 C 5.30026 0.0268603 0.787976 0
M  V30 18 S -2.16639 0.563525 -1.57116 0
M  V30 19 O -3.29704 1.4022 -2.08969 0
M  V30 20 O -1.163 0.541913 -2.72869 0
M  V30 21 C -2.71977 -1.06518 -1.24629 0
M  V30 22 C -3.95696 -1.30498 -0.694439 0
M  V30 23 C -4.42203 -2.57193 -0.427867 0
M  V30 24 C -3.65336 -3.6828 -0.70744 0
M  V30 25 N -4.12001 -4.99599 -0.437845 0
M  V30 26 C -2.40256 -3.45849 -1.26447 0
M  V30 27 C -1.95914 -2.1796 -1.52221 0
M  V30 28 H -1.11699 3.99688 0.52549 0
M  V30 29 H -1.02572 3.69607 2.27608 0
M  V30 30 H -2.27489 4.77419 1.61855 0
M  V30 31 H -3.12871 2.567 2.34458 0
M  V30 32 H -3.5295 3.71294 -0.426935 0
M  V30 33 H -4.3906 3.91632 1.08962 0
M  V30 34 H -4.60883 2.36057 0.267233 0
M  V30 35 H -2.92781 0.624869 0.953771 0
M  V30 36 H -1.4532 1.0194 1.82807 0
M  V30 37 H -0.130841 -0.506955 -0.352252 0
M  V30 38 H 0.108849 0.539396 1.05551 0
M  V30 39 H 0.888117 1.37888 -1.76485 0
M  V30 40 H 1.62692 3.11972 -0.853762 0
M  V30 41 H 2.20196 -0.560016 -1.08025 0
M  V30 42 H 3.74959 1.95021 -0.819118 0
M  V30 43 H 2.92272 1.55275 -2.21892 0
M  V30 44 H 2.00224 -0.396668 1.31938 0
M  V30 45 H 2.9261 1.16913 1.32256 0
M  V30 46 H 3.11429 -2.50366 0.887756 0
M  V30 47 H 5.28163 -3.78704 0.888777 0
M  V30 48 H 7.39883 -2.63389 0.826325 0
M  V30 49 H 7.44055 -0.184321 0.761135 0
M  V30 50 H 5.35933 1.11825 0.758327 0
M  V30 51 H -4.55815 -0.410188 -0.477092 0
M  V30 52 H -5.39783 -2.70402 0.00452035 0
M  V30 53 H -4.44845 -5.2299 0.505086 0
M  V30 54 H -4.12217 -5.69292 -1.19027 0
M  V30 55 H -1.81349 -4.34373 -1.47701 0
M  V30 56 H -0.974672 -2.07189 -1.95796 0
M  V30 END ATOM
M  V30 BEGIN BOND
M  V30 1 1 1 2
M  V30 2 1 2 3
M  V30 3 1 2 4
M  V30 4 1 4 5
M  V30 5 1 5 6
M  V30 6 1 6 7
M  V30 7 1 7 8
M  V30 8 1 7 9
M  V30 9 1 9 10
M  V30 10 1 9 11
M  V30 11 1 11 12
M  V30 12 2 12 13
M  V30 13 1 13 14
M  V30 14 2 14 15
M  V30 15 1 15 16
M  V30 16 2 16 17
M  V30 17 1 5 18
M  V30 18 2 18 19
M  V30 19 2 18 20
M  V30 20 1 18 21
M  V30 21 2 21 22
M  V30 22 1 22 23
M  V30 23 2 23 24
M  V30 24 1 24 25
M  V30 25 1 24 26
M  V30 26 2 26 27
M  V30 27 1 17 12
M  V30 28 1 27 21
M  V30 29 1 1 28
M  V30 30 1 1 29
M  V30 31 1 1 30
M  V30 32 1 2 31
M  V30 33 1 3 32
M  V30 34 1 3 33
M  V30 35 1 3 34
M  V30 36 1 4 35
M  V30 37 1 4 36
M  V30 38 1 6 37
M  V30 39 1 6 38
M  V30 40 1 7 39 CFG=3
M  V30 41 1 8 40
M  V30 42 1 9 41 CFG=3
M  V30 43 1 10 42
M  V30 44 1 10 43
M  V30 45 1 11 44
M  V30 46 1 11 45
M  V30 47 1 13 46
M  V30 48 1 14 47
M  V30 49 1 15 48
M  V30 50 1 16 49
M  V30 51 1 17 50
M  V30 52 1 22 51
M  V30 53 1 23 52
M  V30 54 1 25 53
M  V30 55 1 25 54
M  V30 56 1 26 55
M  V30 57 1 27 56
M  V30 END BOND
M  V30 END CTAB
M  END
