
     RDKit          3D

  0  0  0  0  0  0  0  0  0  0999 V3000
M  V30 BEGIN CTAB
M  V30 COUNTS 39 42 0 0 0
M  V30 BEGIN ATOM
M  V30 1 C 4.90708 1.97159 -0.180173 0
M  V30 2 C 4.01006 0.777026 -0.269193 0
M  V30 3 C 3.09036 0.582687 0.748159 0
M  V30 4 C 2.25253 -0.511364 0.688366 0
M  V30 5 C 1.24773 -0.783468 1.73972 0
M  V30 6 N -0.0182019 -0.156141 1.52088 0
M  V30 7 N -0.46327 1.03074 1.89377 0
M  V30 8 N -1.69686 1.22031 1.48279 0
M  V30 9 C -2.12339 0.156329 0.814409 0
M  V30 10 C -1.04187 -0.726892 0.840634 0
M  V30 11 N -1.20958 -1.9065 0.223865 0
M  V30 12 C -2.34464 -2.26081 -0.399983 0
M  V30 13 N -2.48577 -3.52214 -1.04406 0
M  V30 14 N -3.37609 -1.42502 -0.428103 0
M  V30 15 C -3.28558 -0.20475 0.176405 0
M  V30 16 C -4.41964 0.702697 0.140076 0
M  V30 17 C -4.58675 1.96487 0.659699 0
M  V30 18 C -5.87195 2.4134 0.348765 0
M  V30 19 C -6.42388 1.36932 -0.3601 0
M  V30 20 O -5.56411 0.401287 -0.462847 0
M  V30 21 C 2.34417 -1.38512 -0.373789 0
M  V30 22 C 3.2808 -1.17187 -1.39343 0
M  V30 23 C 4.12244 -0.0752835 -1.33604 0
M  V30 24 N 5.09978 0.183059 -2.36146 0
M  V30 25 H 5.31245 1.97001 0.851558 0
M  V30 26 H 4.36272 2.90782 -0.426922 0
M  V30 27 H 5.73414 1.88406 -0.89172 0
M  V30 28 H 3.03822 1.2924 1.58126 0
M  V30 29 H 1.69452 -0.519799 2.72211 0
M  V30 30 H 1.07941 -1.89322 1.78025 0
M  V30 31 H -3.38819 -4.03513 -1.02419 0
M  V30 32 H -1.68813 -3.93359 -1.53553 0
M  V30 33 H -3.86862 2.52889 1.21243 0
M  V30 34 H -6.35026 3.34975 0.590987 0
M  V30 35 H -7.43767 1.40077 -0.755342 0
M  V30 36 H 1.72346 -2.26451 -0.489676 0
M  V30 37 H 3.38132 -1.829 -2.23448 0
M  V30 38 H 6.05011 -0.232671 -2.19606 0
M  V30 39 H 4.91315 0.730246 -3.20541 0
M  V30 END ATOM
M  V30 BEGIN BOND
M  V30 1 1 1 2
M  V30 2 2 2 3
M  V30 3 1 3 4
M  V30 4 1 4 5
M  V30 5 1 5 6
M  V30 6 1 6 7
M  V30 7 2 7 8
M  V30 8 1 8 9
M  V30 9 2 9 10
M  V30 10 1 10 11
M  V30 11 2 11 12
M  V30 12 1 12 13
M  V30 13 1 12 14
M  V30 14 2 14 15
M  V30 15 1 15 16
M  V30 16 2 16 17
M  V30 17 1 17 18
M  V30 18 2 18 19
M  V30 19 1 19 20
M  V30 20 2 4 21
M  V30 21 1 21 22
M  V30 22 2 22 23
M  V30 23 1 23 24
M  V30 24 1 23 2
M  V30 25 1 10 6
M  V30 26 1 20 16
M  V30 27 1 15 9
M  V30 28 1 1 25
M  V30 29 1 1 26
M  V30 30 1 1 27
M  V30 31 1 3 28
M  V30 32 1 5 29
M  V30 33 1 5 30
M  V30 34 1 13 31
M  V30 35 1 13 32
M  V30 36 1 17 33
M  V30 37 1 18 34
M  V30 38 1 19 35
M  V30 39 1 21 36
M  V30 40 1 22 37
M  V30 41 1 24 38
M  V30 42 1 24 39
M  V30 END BOND
M  V30 END CTAB
M  END
