
     RDKit          3D

  0  0  0  0  0  0  0  0  0  0999 V3000
M  V30 BEGIN CTAB
M  V30 COUNTS 25 26 0 0 0
M  V30 BEGIN ATOM
M  V30 1 C 3.73571 0.214663 0.237092 0
M  V30 2 C 2.41066 0.346561 -0.460247 0
M  V30 3 C 1.68509 -0.970562 -0.437273 0
M  V30 4 C 0.266052 -0.564386 -0.316793 0
M  V30 5 C -0.862738 -1.32299 -0.527931 0
M  V30 6 C -2.10514 -0.75087 -0.363552 0
M  V30 7 N -3.28175 -1.52068 -0.577725 0
M  V30 8 C -2.20406 0.589305 0.0145962 0
M  V30 9 N -3.49212 1.1767 0.183348 0
M  V30 10 C -1.08324 1.35873 0.228852 0
M  V30 11 C 0.175286 0.753821 0.0552306 0
M  V30 12 N 1.50058 1.24267 0.192074 0
M  V30 13 H 4.36838 -0.450336 -0.391679 0
M  V30 14 H 3.6482 -0.272768 1.22933 0
M  V30 15 H 4.25471 1.18544 0.294996 0
M  V30 16 H 2.60351 0.726384 -1.48377 0
M  V30 17 H 1.86145 -1.46282 -1.41855 0
M  V30 18 H 2.0126 -1.64307 0.372048 0
M  V30 19 H -0.778879 -2.35633 -0.819526 0
M  V30 20 H -3.74885 -2.07511 0.169619 0
M  V30 21 H -3.68621 -1.51953 -1.54036 0
M  V30 22 H -4.12098 0.899026 0.966307 0
M  V30 23 H -3.81645 1.90202 -0.490826 0
M  V30 24 H -1.10757 2.39601 0.5214 0
M  V30 25 H 1.76576 2.11812 0.69058 0
M  V30 END ATOM
M  V30 BEGIN BOND
M  V30 1 1 1 2
M  V30 2 1 2 3
M  V30 3 1 3 4
M  V30 4 2 4 5
M  V30 5 1 5 6
M  V30 6 1 6 7
M  V30 7 2 6 8
M  V30 8 1 8 9
M  V30 9 1 8 10
M  V30 10 2 10 11
M  V30 11 1 11 12
M  V30 12 1 12 2
M  V30 13 1 11 4
M  V30 14 1 1 13
M  V30 15 1 1 14
M  V30 16 1 1 15
M  V30 17 1 2 16
M  V30 18 1 3 17
M  V30 19 1 3 18
M  V30 20 1 5 19
M  V30 21 1 7 20
M  V30 22 1 7 21
M  V30 23 1 9 22
M  V30 24 1 9 23
M  V30 25 1 10 24
M  V30 26 1 12 25
M  V30 END BOND
M  V30 END CTAB
M  END
