
     RDKit          3D

  0  0  0  0  0  0  0  0  0  0999 V3000
M  V30 BEGIN CTAB
M  V30 COUNTS 52 54 0 0 0
M  V30 BEGIN ATOM
M  V30 1 C -3.09167 -0.600008 -2.3 0
M  V30 2 C -4.22559 -0.588708 -1.25062 0
M  V30 3 C -4.20968 -1.98213 -0.63968 0
M  V30 4 N -5.41174 -0.307132 -1.95512 0
M  V30 5 C -6.15037 0.720206 -1.76792 0
M  V30 6 N -7.32086 0.807539 -2.60325 0
M  V30 7 N -5.85133 1.71945 -0.802952 0
M  V30 8 C -4.77852 1.52958 -0.116872 0
M  V30 9 N -4.37834 2.48551 0.893776 0
M  V30 10 N -3.92062 0.419901 -0.270099 0
M  V30 11 C -2.7404 0.300777 0.558974 0
M  V30 12 C -2.83264 -0.353618 1.7638 0
M  V30 13 C -1.73743 -0.500648 2.60129 0
M  V30 14 C -0.487429 0.0187983 2.2425 0
M  V30 15 O 0.588996 -0.139427 3.09668 0
M  V30 16 C 1.89121 0.272814 2.9266 0
M  V30 17 C 2.6019 -0.354829 1.76728 0
M  V30 18 O 2.0137 -1.23027 1.11015 0
M  V30 19 N 3.90548 0.0564789 1.45165 0
M  V30 20 C 4.76481 -0.369598 0.439036 0
M  V30 21 C 4.49958 -1.39078 -0.408722 0
M  V30 22 C 5.3802 -1.78932 -1.42044 0
M  V30 23 C 6.56651 -1.12737 -1.57244 0
M  V30 24 C 6.86672 -0.0756367 -0.71772 0
M  V30 25 C 5.98514 0.29124 0.262609 0
M  V30 26 S 8.38221 0.779929 -0.902605 0
M  V30 27 F 8.18095 2.05873 -1.95663 0
M  V30 28 O 9.49229 -0.122137 -1.33903 0
M  V30 29 O 8.75518 1.35344 0.431763 0
M  V30 30 C -0.428185 0.667496 1.03299 0
M  V30 31 C -1.52817 0.819032 0.183913 0
M  V30 32 H -2.19658 -1.0995 -1.91021 0
M  V30 33 H -2.84095 0.406743 -2.63128 0
M  V30 34 H -3.52015 -1.16899 -3.16348 0
M  V30 35 H -3.15286 -2.30518 -0.526823 0
M  V30 36 H -4.76239 -2.03779 0.301742 0
M  V30 37 H -4.67642 -2.69875 -1.34652 0
M  V30 38 H -7.18362 0.847692 -3.62612 0
M  V30 39 H -8.28752 0.831658 -2.22834 0
M  V30 40 H -4.08485 2.21078 1.83689 0
M  V30 41 H -4.41032 3.48371 0.59023 0
M  V30 42 H -3.78026 -0.784912 2.10793 0
M  V30 43 H -1.79015 -1.01278 3.55411 0
M  V30 44 H 1.86226 1.37845 2.68875 0
M  V30 45 H 2.48716 0.195326 3.83849 0
M  V30 46 H 4.29073 0.829903 2.11364 0
M  V30 47 H 3.59747 -1.95218 -0.344723 0
M  V30 48 H 5.13796 -2.60137 -2.07329 0
M  V30 49 H 7.24138 -1.44294 -2.35822 0
M  V30 50 H 6.24032 1.10511 0.907863 0
M  V30 51 H 0.496898 1.11012 0.686279 0
M  V30 52 H -1.44999 1.33559 -0.764428 0
M  V30 END ATOM
M  V30 BEGIN BOND
M  V30 1 1 1 2
M  V30 2 1 2 3
M  V30 3 1 2 4
M  V30 4 2 4 5
M  V30 5 1 5 6
M  V30 6 1 5 7
M  V30 7 2 7 8
M  V30 8 1 8 9
M  V30 9 1 8 10
M  V30 10 1 10 11
M  V30 11 2 11 12
M  V30 12 1 12 13
M  V30 13 2 13 14
M  V30 14 1 14 15
M  V30 15 1 15 16
M  V30 16 1 16 17
M  V30 17 2 17 18
M  V30 18 1 17 19
M  V30 19 1 19 20
M  V30 20 2 20 21
M  V30 21 1 21 22
M  V30 22 2 22 23
M  V30 23 1 23 24
M  V30 24 2 24 25
M  V30 25 1 24 26
M  V30 26 1 26 27
M  V30 27 2 26 28
M  V30 28 2 26 29
M  V30 29 1 14 30
M  V30 30 2 30 31
M  V30 31 1 10 2
M  V30 32 1 31 11
M  V30 33 1 25 20
M  V30 34 1 1 32
M  V30 35 1 1 33
M  V30 36 1 1 34
M  V30 37 1 3 35
M  V30 38 1 3 36
M  V30 39 1 3 37
M  V30 40 1 6 38
M  V30 41 1 6 39
M  V30 42 1 9 40
M  V30 43 1 9 41
M  V30 44 1 12 42
M  V30 45 1 13 43
M  V30 46 1 16 44
M  V30 47 1 16 45
M  V30 48 1 19 46
M  V30 49 1 21 47
M  V30 50 1 22 48
M  V30 51 1 23 49
M  V30 52 1 25 50
M  V30 53 1 30 51
M  V30 54 1 31 52
M  V30 END BOND
M  V30 END CTAB
M  END
