
     RDKit          3D

  0  0  0  0  0  0  0  0  0  0999 V3000
M  V30 BEGIN CTAB
M  V30 COUNTS 47 50 0 0 0
M  V30 BEGIN ATOM
M  V30 1 N -6.41581 1.5411 -1.04964 0
M  V30 2 C -5.73937 0.456134 -1.69853 0
M  V30 3 C -4.31835 0.811297 -2.08798 0
M  V30 4 C -3.77314 -0.369313 -1.33432 0
M  V30 5 C -5.17413 -0.594338 -0.773131 0
M  V30 6 C -2.8224 -0.0370605 -0.236041 0
M  V30 7 C -1.60324 -0.699752 -0.105795 0
M  V30 8 C -0.708316 -0.413492 0.896956 0
M  V30 9 N -1.09126 0.562548 1.75751 0
M  V30 10 C -2.26205 1.2142 1.65032 0
M  V30 11 N -3.104 0.910531 0.666613 0
M  V30 12 N -2.62683 2.22869 2.5696 0
M  V30 13 N 0.535868 -1.05509 1.07118 0
M  V30 14 C 1.0878 -2.09791 0.270467 0
M  V30 15 C 2.48087 -1.82576 -0.205985 0
M  V30 16 C 3.14059 -0.675169 0.469893 0
M  V30 17 C 2.65154 -0.126413 1.55159 0
M  V30 18 C 1.3802 -0.618011 2.19868 0
M  V30 19 C 4.37076 -0.179061 -0.134214 0
M  V30 20 C 4.88703 -0.797701 -1.28468 0
M  V30 21 C 6.04151 -0.348738 -1.87648 0
M  V30 22 C 6.74668 0.723107 -1.37549 0
M  V30 23 C 6.27271 1.34334 -0.262582 0
M  V30 24 C 5.10909 0.882498 0.324777 0
M  V30 25 F 7.88487 1.18309 -1.94015 0
M  V30 26 H -6.42869 1.46958 -0.0144345 0
M  V30 27 H -5.98492 2.47398 -1.26854 0
M  V30 28 H -6.35977 0.0602979 -2.53322 0
M  V30 29 H -4.00709 1.78718 -1.69377 0
M  V30 30 H -4.21309 0.739874 -3.18925 0
M  V30 31 H -3.41285 -1.16063 -1.99511 0
M  V30 32 H -5.27805 -0.317016 0.27876 0
M  V30 33 H -5.49239 -1.63624 -0.985717 0
M  V30 34 H -1.35766 -1.46563 -0.822292 0
M  V30 35 H -2.82087 3.18412 2.22052 0
M  V30 36 H -2.70376 2.03781 3.57946 0
M  V30 37 H 1.15054 -3.00985 0.936216 0
M  V30 38 H 0.390527 -2.37838 -0.526873 0
M  V30 39 H 3.15432 -2.69627 -0.0885486 0
M  V30 40 H 2.39101 -1.65584 -1.31865 0
M  V30 41 H 3.16443 0.703676 2.00455 0
M  V30 42 H 0.917505 0.2145 2.74541 0
M  V30 43 H 1.59142 -1.48908 2.85157 0
M  V30 44 H 4.36186 -1.65511 -1.71731 0
M  V30 45 H 6.46114 -0.818433 -2.77591 0
M  V30 46 H 6.76139 2.19039 0.197422 0
M  V30 47 H 4.76438 1.40234 1.20768 0
M  V30 END ATOM
M  V30 BEGIN BOND
M  V30 1 1 1 2
M  V30 2 1 2 3
M  V30 3 1 3 4
M  V30 4 1 4 5
M  V30 5 1 4 6
M  V30 6 2 6 7
M  V30 7 1 7 8
M  V30 8 2 8 9
M  V30 9 1 9 10
M  V30 10 2 10 11
M  V30 11 1 10 12
M  V30 12 1 8 13
M  V30 13 1 13 14
M  V30 14 1 14 15
M  V30 15 1 15 16
M  V30 16 2 16 17
M  V30 17 1 17 18
M  V30 18 1 16 19
M  V30 19 2 19 20
M  V30 20 1 20 21
M  V30 21 2 21 22
M  V30 22 1 22 23
M  V30 23 2 23 24
M  V30 24 1 22 25
M  V30 25 1 5 2
M  V30 26 1 11 6
M  V30 27 1 18 13
M  V30 28 1 24 19
M  V30 29 1 1 26
M  V30 30 1 1 27
M  V30 31 1 2 28
M  V30 32 1 3 29
M  V30 33 1 3 30
M  V30 34 1 4 31
M  V30 35 1 5 32
M  V30 36 1 5 33
M  V30 37 1 7 34
M  V30 38 1 12 35
M  V30 39 1 12 36
M  V30 40 1 14 37
M  V30 41 1 14 38
M  V30 42 1 15 39
M  V30 43 1 15 40
M  V30 44 1 17 41
M  V30 45 1 18 42
M  V30 46 1 18 43
M  V30 47 1 20 44
M  V30 48 1 21 45
M  V30 49 1 23 46
M  V30 50 1 24 47
M  V30 END BOND
M  V30 END CTAB
M  END
