
     RDKit          3D

  0  0  0  0  0  0  0  0  0  0999 V3000
M  V30 BEGIN CTAB
M  V30 COUNTS 44 45 0 0 0
M  V30 BEGIN ATOM
M  V30 1 O 1.32719 0.359192 -0.848603 0
M  V30 2 C 0.510421 -0.552831 -0.715096 0
M  V30 3 N -0.847959 -0.398647 -0.420086 0
M  V30 4 C -1.57557 0.76029 -0.218399 0
M  V30 5 C -0.993416 1.99881 -0.260004 0
M  V30 6 C -1.69305 3.1973 -0.0773512 0
M  V30 7 C -3.02217 3.13057 0.154618 0
M  V30 8 C -3.61648 1.88975 0.199025 0
M  V30 9 C -2.95549 0.694351 0.0234567 0
M  V30 10 C -3.73511 -0.54506 0.111611 0
M  V30 11 C -5.203 -0.157814 0.374993 0
M  V30 12 C -3.78182 -1.30306 -1.21191 0
M  V30 13 C -3.37563 -1.48075 1.21355 0
M  V30 14 C 1.08208 -1.94645 -0.90205 0
M  V30 15 S 2.27956 -2.20649 0.422165 0
M  V30 16 C 3.71575 -1.17201 0.290098 0
M  V30 17 N 4.76186 -1.63262 -0.43423 0
M  V30 18 C 5.89856 -0.93352 -0.59311 0
M  V30 19 N 6.96085 -1.45958 -1.35396 0
M  V30 20 C 5.96806 0.31293 0.027893 0
M  V30 21 C 4.89087 0.754762 0.75721 0
M  V30 22 N 3.75533 0.0238917 0.898727 0
M  V30 23 N 4.96569 2.03322 1.40257 0
M  V30 24 H -1.37167 -1.33167 -0.345328 0
M  V30 25 H 0.0821285 2.13604 -0.439768 0
M  V30 26 H -1.13169 4.14085 -0.129991 0
M  V30 27 H -3.57994 4.0439 0.296484 0
M  V30 28 H -4.70782 1.94256 0.392543 0
M  V30 29 H -5.25389 0.312209 1.37067 0
M  V30 30 H -5.75057 -1.1379 0.43761 0
M  V30 31 H -5.6536 0.401783 -0.434904 0
M  V30 32 H -3.39653 -2.33571 -1.09886 0
M  V30 33 H -4.79874 -1.39283 -1.62524 0
M  V30 34 H -3.14976 -0.802757 -1.9771 0
M  V30 35 H -2.44283 -1.21208 1.76772 0
M  V30 36 H -4.15976 -1.45841 1.99703 0
M  V30 37 H -3.33516 -2.56368 0.89061 0
M  V30 38 H 0.245498 -2.66335 -0.722322 0
M  V30 39 H 1.51313 -2.04085 -1.89553 0
M  V30 40 H 7.88385 -1.59549 -0.915667 0
M  V30 41 H 6.81726 -1.70719 -2.34331 0
M  V30 42 H 6.89082 0.896374 -0.0908957 0
M  V30 43 H 5.27257 2.88263 0.889876 0
M  V30 44 H 4.71017 2.11931 2.39858 0
M  V30 END ATOM
M  V30 BEGIN BOND
M  V30 1 2 1 2
M  V30 2 1 2 3
M  V30 3 1 3 4
M  V30 4 2 4 5
M  V30 5 1 5 6
M  V30 6 2 6 7
M  V30 7 1 7 8
M  V30 8 2 8 9
M  V30 9 1 9 10
M  V30 10 1 10 11
M  V30 11 1 10 12
M  V30 12 1 10 13
M  V30 13 1 2 14
M  V30 14 1 14 15
M  V30 15 1 15 16
M  V30 16 2 16 17
M  V30 17 1 17 18
M  V30 18 1 18 19
M  V30 19 2 18 20
M  V30 20 1 20 21
M  V30 21 2 21 22
M  V30 22 1 21 23
M  V30 23 1 9 4
M  V30 24 1 22 16
M  V30 25 1 3 24
M  V30 26 1 5 25
M  V30 27 1 6 26
M  V30 28 1 7 27
M  V30 29 1 8 28
M  V30 30 1 11 29
M  V30 31 1 11 30
M  V30 32 1 11 31
M  V30 33 1 12 32
M  V30 34 1 12 33
M  V30 35 1 12 34
M  V30 36 1 13 35
M  V30 37 1 13 36
M  V30 38 1 13 37
M  V30 39 1 14 38
M  V30 40 1 14 39
M  V30 41 1 19 40
M  V30 42 1 19 41
M  V30 43 1 20 42
M  V30 44 1 23 43
M  V30 45 1 23 44
M  V30 END BOND
M  V30 END CTAB
M  END
