
     RDKit          3D

  0  0  0  0  0  0  0  0  0  0999 V3000
M  V30 BEGIN CTAB
M  V30 COUNTS 17 17 0 0 0
M  V30 BEGIN ATOM
M  V30 1 C -2.62725 -0.732219 0.0218266 0
M  V30 2 C -1.20683 -0.735731 -0.451689 0
M  V30 3 N -0.597173 -1.59538 -1.2862 0
M  V30 4 N 0.685229 -1.2504 -1.44875 0
M  V30 5 C 0.906271 -0.148958 -0.707299 0
M  V30 6 N 2.08639 0.621875 -0.513859 0
M  V30 7 N 2.95642 0.385998 0.563447 0
M  V30 8 N -0.257386 0.14803 -0.108632 0
M  V30 9 N -0.491375 1.23286 0.767599 0
M  V30 10 H -3.17252 0.0376075 -0.520593 0
M  V30 11 H -3.03184 -1.77158 -0.0967957 0
M  V30 12 H -2.64993 -0.537187 1.12702 0
M  V30 13 H 2.31195 1.36946 -1.17113 0
M  V30 14 H 2.44674 -0.106617 1.35246 0
M  V30 15 H 3.7898 -0.20055 0.278315 0
M  V30 16 H -1.45115 1.60461 0.934581 0
M  V30 17 H 0.302653 1.67819 1.25969 0
M  V30 END ATOM
M  V30 BEGIN BOND
M  V30 1 1 1 2
M  V30 2 2 2 3
M  V30 3 1 3 4
M  V30 4 2 4 5
M  V30 5 1 5 6
M  V30 6 1 6 7
M  V30 7 1 5 8
M  V30 8 1 8 9
M  V30 9 1 8 2
M  V30 10 1 1 10
M  V30 11 1 1 11
M  V30 12 1 1 12
M  V30 13 1 6 13
M  V30 14 1 7 14
M  V30 15 1 7 15
M  V30 16 1 9 16
M  V30 17 1 9 17
M  V30 END BOND
M  V30 END CTAB
M  END
