
     RDKit          3D

  0  0  0  0  0  0  0  0  0  0999 V3000
M  V30 BEGIN CTAB
M  V30 COUNTS 28 28 0 0 0
M  V30 BEGIN ATOM
M  V30 1 N -1.24453 -0.489662 1.68148 0
M  V30 2 C -2.05815 -0.181639 0.555602 0
M  V30 3 C -1.41916 0.660675 -0.508445 0
M  V30 4 C -0.21381 0.0507237 -1.13615 0
M  V30 5 C 0.902659 -0.242987 -0.212514 0
M  V30 6 C 1.6644 0.749301 0.366401 0
M  V30 7 C 2.7217 0.488596 1.21037 0
M  V30 8 C 3.04905 -0.815924 1.50189 0
M  V30 9 C 2.31714 -1.828 0.947095 0
M  V30 10 C 1.26882 -1.54619 0.109713 0
M  V30 11 N 0.336012 0.965382 -2.16755 0
M  V30 12 C -2.50029 0.994758 -1.51132 0
M  V30 13 H -1.49226 0.102304 2.5278 0
M  V30 14 H -1.43515 -1.47184 1.98222 0
M  V30 15 H -2.9925 0.302461 0.959283 0
M  V30 16 H -2.37004 -1.12683 0.0507443 0
M  V30 17 H -1.12097 1.65256 -0.0499102 0
M  V30 18 H -0.488948 -0.863482 -1.7053 0
M  V30 19 H 1.40087 1.77213 0.132403 0
M  V30 20 H 3.24902 1.34796 1.60687 0
M  V30 21 H 3.88553 -1.00327 2.16909 0
M  V30 22 H 2.57441 -2.84671 1.17603 0
M  V30 23 H 0.67668 -2.34745 -0.339569 0
M  V30 24 H 1.29546 0.597679 -2.36014 0
M  V30 25 H 0.46516 1.87931 -1.67838 0
M  V30 26 H -3.36299 0.268504 -1.43607 0
M  V30 27 H -2.15782 0.940593 -2.54839 0
M  V30 28 H -2.95027 1.99105 -1.32325 0
M  V30 END ATOM
M  V30 BEGIN BOND
M  V30 1 1 1 2
M  V30 2 1 2 3
M  V30 3 1 3 4
M  V30 4 1 4 5
M  V30 5 2 5 6
M  V30 6 1 6 7
M  V30 7 2 7 8
M  V30 8 1 8 9
M  V30 9 2 9 10
M  V30 10 1 4 11
M  V30 11 1 3 12
M  V30 12 1 10 5
M  V30 13 1 1 13
M  V30 14 1 1 14
M  V30 15 1 2 15
M  V30 16 1 2 16
M  V30 17 1 3 17
M  V30 18 1 4 18
M  V30 19 1 6 19
M  V30 20 1 7 20
M  V30 21 1 8 21
M  V30 22 1 9 22
M  V30 23 1 10 23
M  V30 24 1 11 24
M  V30 25 1 11 25
M  V30 26 1 12 26
M  V30 27 1 12 27
M  V30 28 1 12 28
M  V30 END BOND
M  V30 END CTAB
M  END
