
     RDKit          3D

  0  0  0  0  0  0  0  0  0  0999 V3000
M  V30 BEGIN CTAB
M  V30 COUNTS 23 22 0 0 0
M  V30 BEGIN ATOM
M  V30 1 C 3.26265 -1.6678 -0.123852 0
M  V30 2 O 2.66334 -0.371822 -0.180346 0
M  V30 3 C 1.33782 -0.234846 -0.544047 0
M  V30 4 O 0.709892 -1.28694 -0.814045 0
M  V30 5 C 0.63973 1.04632 -0.629826 0
M  V30 6 N -0.728021 0.952033 -1.02579 0
M  V30 7 C -1.72928 0.239502 -0.325262 0
M  V30 8 N -1.59492 0.111316 0.942501 0
M  V30 9 N -2.52679 -0.574326 1.73141 0
M  V30 10 N -2.85155 -0.323643 -0.972852 0
M  V30 11 C 0.663154 1.79023 0.714944 0
M  V30 12 H 2.64899 -2.40145 -0.67613 0
M  V30 13 H 4.26834 -1.66224 -0.596527 0
M  V30 14 H 3.35675 -1.98139 0.926087 0
M  V30 15 H 1.17206 1.68949 -1.34844 0
M  V30 16 H -1.03029 1.43847 -1.89439 0
M  V30 17 H -2.4411 -1.58296 1.98231 0
M  V30 18 H -3.36052 -0.0759074 2.10167 0
M  V30 19 H -2.88921 -0.494354 -2.00934 0
M  V30 20 H -3.7007 -0.592332 -0.410708 0
M  V30 21 H -0.26864 2.34206 0.890622 0
M  V30 22 H 1.49651 2.54315 0.713081 0
M  V30 23 H 0.90178 1.09743 1.54893 0
M  V30 END ATOM
M  V30 BEGIN BOND
M  V30 1 1 1 2
M  V30 2 1 2 3
M  V30 3 2 3 4
M  V30 4 1 3 5
M  V30 5 1 5 6
M  V30 6 1 6 7
M  V30 7 2 7 8 CFG=2
M  V30 8 1 8 9
M  V30 9 1 7 10
M  V30 10 1 5 11
M  V30 11 1 1 12
M  V30 12 1 1 13
M  V30 13 1 1 14
M  V30 14 1 5 15
M  V30 15 1 6 16
M  V30 16 1 9 17
M  V30 17 1 9 18
M  V30 18 1 10 19
M  V30 19 1 10 20
M  V30 20 1 11 21
M  V30 21 1 11 22
M  V30 22 1 11 23
M  V30 END BOND
M  V30 END CTAB
M  END
