
     RDKit          3D

  0  0  0  0  0  0  0  0  0  0999 V3000
M  V30 BEGIN CTAB
M  V30 COUNTS 19 20 0 0 0
M  V30 BEGIN ATOM
M  V30 1 Br -2.46942 -2.79805 -0.0986803 0
M  V30 2 C -2.36339 -0.906093 -0.0229477 0
M  V30 3 C -3.46355 -0.0632231 0.0377954 0
M  V30 4 C -2.94614 1.2028 0.0779793 0
M  V30 5 O -1.63744 1.11222 0.0434406 0
M  V30 6 C -1.22901 -0.112023 -0.0167973 0
M  V30 7 C 0.145507 -0.628701 -0.0705085 0
M  V30 8 N 0.523657 -1.91127 -0.132489 0
M  V30 9 N 1.83999 -1.97698 -0.166174 0
M  V30 10 C 2.30847 -0.723079 -0.125298 0
M  V30 11 N 1.26461 0.09876 -0.0667269 0
M  V30 12 N 1.29511 1.5084 -0.0091065 0
M  V30 13 N 3.69536 -0.334773 -0.14184 0
M  V30 14 H -4.51519 -0.300848 0.0526961 0
M  V30 15 H -3.44531 2.16716 0.129613 0
M  V30 16 H 1.27228 1.98417 0.925712 0
M  V30 17 H 1.33999 2.06848 -0.892016 0
M  V30 18 H 4.43143 -0.995758 -0.458067 0
M  V30 19 H 3.95304 0.608812 0.164091 0
M  V30 END ATOM
M  V30 BEGIN BOND
M  V30 1 1 1 2
M  V30 2 1 2 3
M  V30 3 2 3 4
M  V30 4 1 4 5
M  V30 5 1 5 6
M  V30 6 1 6 7
M  V30 7 2 7 8
M  V30 8 1 8 9
M  V30 9 2 9 10
M  V30 10 1 10 11
M  V30 11 1 11 12
M  V30 12 1 10 13
M  V30 13 2 6 2
M  V30 14 1 11 7
M  V30 15 1 3 14
M  V30 16 1 4 15
M  V30 17 1 12 16
M  V30 18 1 12 17
M  V30 19 1 13 18
M  V30 20 1 13 19
M  V30 END BOND
M  V30 END CTAB
M  END
