
     RDKit          3D

  0  0  0  0  0  0  0  0  0  0999 V3000
M  V30 BEGIN CTAB
M  V30 COUNTS 49 51 0 0 0
M  V30 BEGIN ATOM
M  V30 1 C 7.46332 -1.86172 0.550354 0
M  V30 2 C 6.35993 -2.64129 -0.115697 0
M  V30 3 O 5.08435 -2.22694 0.228448 0
M  V30 4 C 4.50917 -0.990492 0.0387021 0
M  V30 5 C 5.19697 0.0372244 -0.568017 0
M  V30 6 C 4.57358 1.28234 -0.741322 0
M  V30 7 C 3.29168 1.52747 -0.329047 0
M  V30 8 C 2.59358 0.506938 0.28003 0
M  V30 9 C 3.2098 -0.713246 0.448164 0
M  V30 10 C 1.21103 0.726611 0.746617 0
M  V30 11 N 0.261213 0.989864 -0.289 0
M  V30 12 C -1.09456 1.18521 0.0541498 0
M  V30 13 C -2.02739 0.184501 -0.149708 0
M  V30 14 C -3.36377 0.353637 0.189761 0
M  V30 15 N -3.73974 1.52694 0.729941 0
M  V30 16 C -2.83963 2.51252 0.934713 0
M  V30 17 N -1.54242 2.32799 0.596569 0
M  V30 18 N -3.30089 3.73081 1.51168 0
M  V30 19 C -4.40476 -0.671562 -0.0102249 0
M  V30 20 C -5.60535 -0.140222 -0.799292 0
M  V30 21 C -6.50484 -0.870707 0.170745 0
M  V30 22 C -5.34171 -0.852744 1.16388 0
M  V30 23 N -6.89779 -2.19087 -0.250657 0
M  V30 24 C 0.654013 1.05915 -1.67184 0
M  V30 25 H 7.0758 -1.02673 1.17339 0
M  V30 26 H 8.13574 -1.38948 -0.190795 0
M  V30 27 H 8.09006 -2.4796 1.22324 0
M  V30 28 H 6.4667 -3.70331 0.266717 0
M  V30 29 H 6.58755 -2.68855 -1.19107 0
M  V30 30 H 6.20743 -0.0665522 -0.927238 0
M  V30 31 H 5.11311 2.08758 -1.21865 0
M  V30 32 H 2.82636 2.51827 -0.478039 0
M  V30 33 H 2.70081 -1.5605 0.926589 0
M  V30 34 H 1.23001 1.54649 1.51945 0
M  V30 35 H 0.900877 -0.177056 1.32026 0
M  V30 36 H -1.73989 -0.757306 -0.580854 0
M  V30 37 H -3.77191 4.42252 0.90023 0
M  V30 38 H -3.18452 3.95189 2.5273 0
M  V30 39 H -4.04725 -1.63213 -0.449202 0
M  V30 40 H -5.66929 -0.547578 -1.83592 0
M  V30 41 H -5.73981 0.948311 -0.759851 0
M  V30 42 H -7.3715 -0.318984 0.536605 0
M  V30 43 H -5.42461 0.0564769 1.78383 0
M  V30 44 H -5.22032 -1.80194 1.71287 0
M  V30 45 H -6.26973 -2.58003 -0.986631 0
M  V30 46 H -6.87669 -2.80214 0.600321 0
M  V30 47 H 0.927036 2.1003 -1.97522 0
M  V30 48 H -0.163645 0.767843 -2.36603 0
M  V30 49 H 1.47188 0.340803 -1.88322 0
M  V30 END ATOM
M  V30 BEGIN BOND
M  V30 1 1 1 2
M  V30 2 1 2 3
M  V30 3 1 3 4
M  V30 4 2 4 5
M  V30 5 1 5 6
M  V30 6 2 6 7
M  V30 7 1 7 8
M  V30 8 2 8 9
M  V30 9 1 8 10
M  V30 10 1 10 11
M  V30 11 1 11 12
M  V30 12 2 12 13
M  V30 13 1 13 14
M  V30 14 2 14 15
M  V30 15 1 15 16
M  V30 16 2 16 17
M  V30 17 1 16 18
M  V30 18 1 14 19
M  V30 19 1 19 20
M  V30 20 1 20 21
M  V30 21 1 21 22
M  V30 22 1 21 23
M  V30 23 1 11 24
M  V30 24 1 9 4
M  V30 25 1 17 12
M  V30 26 1 22 19
M  V30 27 1 1 25
M  V30 28 1 1 26
M  V30 29 1 1 27
M  V30 30 1 2 28
M  V30 31 1 2 29
M  V30 32 1 5 30
M  V30 33 1 6 31
M  V30 34 1 7 32
M  V30 35 1 9 33
M  V30 36 1 10 34
M  V30 37 1 10 35
M  V30 38 1 13 36
M  V30 39 1 18 37
M  V30 40 1 18 38
M  V30 41 1 19 39
M  V30 42 1 20 40
M  V30 43 1 20 41
M  V30 44 1 21 42
M  V30 45 1 22 43
M  V30 46 1 22 44
M  V30 47 1 23 45
M  V30 48 1 23 46
M  V30 49 1 24 47
M  V30 50 1 24 48
M  V30 51 1 24 49
M  V30 END BOND
M  V30 END CTAB
M  END
