
     RDKit          3D

  0  0  0  0  0  0  0  0  0  0999 V3000
M  V30 BEGIN CTAB
M  V30 COUNTS 47 49 0 0 0
M  V30 BEGIN ATOM
M  V30 1 N -5.87069 0.30675 -0.962754 0
M  V30 2 C -5.62841 -1.10584 -0.993696 0 CFG=1
M  V30 3 C -4.87761 -1.54452 0.251345 0
M  V30 4 C -3.56194 -0.865101 0.376576 0
M  V30 5 C -2.41842 -1.40235 -0.173469 0
M  V30 6 C -1.1847 -0.751734 -0.048013 0
M  V30 7 C -1.05255 0.442552 0.622572 0
M  V30 8 C -2.22086 0.970173 1.1721 0
M  V30 9 C -3.43762 0.332332 1.05062 0
M  V30 10 C 0.208469 1.15643 0.779373 0
M  V30 11 N 0.210291 2.32925 1.46432 0
M  V30 12 C 1.31354 3.04593 1.65536 0
M  V30 13 N 1.1987 4.25782 2.38722 0
M  V30 14 N 2.45943 2.59129 1.15313 0
M  V30 15 C 2.55322 1.43859 0.460192 0
M  V30 16 C 1.40332 0.715173 0.274853 0
M  V30 17 C 3.86254 1.04264 -0.0414594 0
M  V30 18 C 4.07373 -0.110176 -0.75877 0
M  V30 19 C 5.33304 -0.472159 -1.23023 0
M  V30 20 O 5.51174 -1.63166 -1.94473 0
M  V30 21 C 5.81626 -2.8839 -1.41232 0
M  V30 22 F 5.90937 -3.77867 -2.48731 0
M  V30 23 F 4.83894 -3.38258 -0.587341 0
M  V30 24 F 7.04731 -2.9252 -0.782837 0
M  V30 25 C 6.4286 0.326175 -0.989782 0
M  V30 26 C 6.22021 1.48673 -0.268524 0
M  V30 27 C 4.96646 1.83438 0.193412 0
M  V30 28 C -6.92181 -1.80731 -0.990921 0
M  V30 29 O -6.95499 -3.18365 -1.01772 0
M  V30 30 O -7.98455 -1.15941 -0.964424 0
M  V30 31 H -6.54715 0.645651 -1.63841 0
M  V30 32 H -6.21684 0.54621 -0.00944134 0
M  V30 33 H -5.02736 -1.38021 -1.91063 0
M  V30 34 H -5.50518 -1.23323 1.11412 0
M  V30 35 H -4.79741 -2.6489 0.310622 0
M  V30 36 H -2.46574 -2.33863 -0.710801 0
M  V30 37 H -0.295875 -1.19688 -0.491647 0
M  V30 38 H -2.13693 1.91466 1.70667 0
M  V30 39 H -4.35139 0.75377 1.48561 0
M  V30 40 H 1.45987 5.14219 1.91445 0
M  V30 41 H 0.863793 4.28138 3.37238 0
M  V30 42 H 1.43644 -0.195576 -0.26418 0
M  V30 43 H 3.2401 -0.756806 -0.964619 0
M  V30 44 H 7.42105 0.0749351 -1.34144 0
M  V30 45 H 7.08762 2.12725 -0.0732201 0
M  V30 46 H 4.82059 2.75951 0.764179 0
M  V30 47 H -6.22663 -3.7673 -1.38675 0
M  V30 END ATOM
M  V30 BEGIN BOND
M  V30 1 1 1 2
M  V30 2 1 2 3
M  V30 3 1 3 4
M  V30 4 2 4 5
M  V30 5 1 5 6
M  V30 6 2 6 7
M  V30 7 1 7 8
M  V30 8 2 8 9
M  V30 9 1 7 10
M  V30 10 2 10 11
M  V30 11 1 11 12
M  V30 12 1 12 13
M  V30 13 2 12 14
M  V30 14 1 14 15
M  V30 15 2 15 16
M  V30 16 1 15 17
M  V30 17 2 17 18
M  V30 18 1 18 19
M  V30 19 1 19 20
M  V30 20 1 20 21
M  V30 21 1 21 22
M  V30 22 1 21 23
M  V30 23 1 21 24
M  V30 24 2 19 25
M  V30 25 1 25 26
M  V30 26 2 26 27
M  V30 27 1 2 28
M  V30 28 1 28 29
M  V30 29 2 28 30
M  V30 30 1 9 4
M  V30 31 1 16 10
M  V30 32 1 27 17
M  V30 33 1 1 31
M  V30 34 1 1 32
M  V30 35 1 2 33 CFG=3
M  V30 36 1 3 34
M  V30 37 1 3 35
M  V30 38 1 5 36
M  V30 39 1 6 37
M  V30 40 1 8 38
M  V30 41 1 9 39
M  V30 42 1 13 40
M  V30 43 1 13 41
M  V30 44 1 16 42
M  V30 45 1 18 43
M  V30 46 1 25 44
M  V30 47 1 26 45
M  V30 48 1 27 46
M  V30 49 1 29 47
M  V30 END BOND
M  V30 END CTAB
M  END
