
     RDKit          3D

  0  0  0  0  0  0  0  0  0  0999 V3000
M  V30 BEGIN CTAB
M  V30 COUNTS 15 14 0 0 0
M  V30 BEGIN ATOM
M  V30 1 C -0.3127 -0.0106917 -0.811029 0 CFG=2
M  V30 2 C -1.44401 0.889651 -0.380019 0
M  V30 3 N -0.585464 -1.38181 -0.460965 0
M  V30 4 C 0.913267 0.413393 -0.00193264 0
M  V30 5 N 2.00007 -0.440707 -0.406115 0
M  V30 6 H -0.0790149 0.0761281 -1.88155 0
M  V30 7 H -2.32779 0.785624 -1.0518 0
M  V30 8 H -1.09493 1.92784 -0.486804 0
M  V30 9 H -1.68117 0.644476 0.674868 0
M  V30 10 H -1.26965 -1.79351 -1.12092 0
M  V30 11 H -0.863655 -1.45373 0.53764 0
M  V30 12 H 1.18796 1.46413 -0.189382 0
M  V30 13 H 0.732526 0.271477 1.07927 0
M  V30 14 H 1.9081 -1.38856 -0.0222322 0
M  V30 15 H 2.91647 -0.00370648 -0.231156 0
M  V30 END ATOM
M  V30 BEGIN BOND
M  V30 1 1 1 2
M  V30 2 1 1 3
M  V30 3 1 1 4
M  V30 4 1 4 5
M  V30 5 1 1 6 CFG=3
M  V30 6 1 2 7
M  V30 7 1 2 8
M  V30 8 1 2 9
M  V30 9 1 3 10
M  V30 10 1 3 11
M  V30 11 1 4 12
M  V30 12 1 4 13
M  V30 13 1 5 14
M  V30 14 1 5 15
M  V30 END BOND
M  V30 END CTAB
M  END
