
     RDKit          3D

  0  0  0  0  0  0  0  0  0  0999 V3000
M  V30 BEGIN CTAB
M  V30 COUNTS 53 56 0 0 0
M  V30 BEGIN ATOM
M  V30 1 N 8.34909 1.24193 -0.249546 0
M  V30 2 C 7.71286 1.24635 1.04022 0
M  V30 3 C 7.53288 -0.147913 1.53486 0
M  V30 4 O 6.78487 -1.01213 0.797762 0
M  V30 5 C 5.48233 -1.03055 0.445834 0
M  V30 6 C 5.07899 -2.1089 -0.372081 0
M  V30 7 C 3.7644 -2.16787 -0.751197 0
M  V30 8 C 2.83017 -1.2375 -0.377236 0
M  V30 9 C 3.25185 -0.202358 0.41736 0
M  V30 10 C 4.56294 -0.0936656 0.828964 0
M  V30 11 C 1.46202 -1.37688 -0.823614 0
M  V30 12 O 1.17475 -2.37589 -1.55092 0
M  V30 13 N 0.432177 -0.455569 -0.489143 0
M  V30 14 C -0.911753 -0.680225 -0.984834 0 CFG=1
M  V30 15 C -1.93085 -0.709649 0.117056 0
M  V30 16 C -3.22598 -0.53433 -0.629558 0 CFG=2
M  V30 17 C -2.90313 0.214798 -1.87926 0 CFG=2
M  V30 18 C -1.40146 0.460238 -1.85219 0 CFG=1
M  V30 19 O -1.08293 1.64491 -1.21202 0
M  V30 20 O -3.62297 1.39399 -2.02812 0
M  V30 21 N -4.27252 0.0478698 0.157155 0
M  V30 22 C -4.18972 1.0093 1.07338 0
M  V30 23 N -5.40952 1.26715 1.58192 0
M  V30 24 C -6.32239 0.451328 0.98276 0
M  V30 25 C -5.58595 -0.30875 0.0887261 0
M  V30 26 N -6.26515 -1.21043 -0.643236 0
M  V30 27 C -7.59381 -1.37943 -0.526208 0
M  V30 28 N -8.30886 -0.627319 0.355553 0
M  V30 29 C -7.67864 0.282796 1.10609 0
M  V30 30 N -8.39202 1.07954 2.03097 0
M  V30 31 H 8.02094 1.92578 -0.875503 0
M  V30 32 H 9.30501 0.989202 -0.162391 0
M  V30 33 H 8.47271 1.73858 1.71935 0
M  V30 34 H 6.77456 1.80503 1.02003 0
M  V30 35 H 8.55955 -0.583472 1.69059 0
M  V30 36 H 7.10642 -0.0785452 2.57198 0
M  V30 37 H 5.7966 -2.84676 -0.674697 0
M  V30 38 H 3.48238 -3.02598 -1.39203 0
M  V30 39 H 2.56974 0.58346 0.760979 0
M  V30 40 H 4.85363 0.715405 1.46173 0
M  V30 41 H 0.668771 0.361951 0.106389 0
M  V30 42 H -0.956033 -1.59707 -1.59317 0
M  V30 43 H -1.88896 -1.73797 0.578969 0
M  V30 44 H -1.74134 0.0427649 0.880988 0
M  V30 45 H -3.54601 -1.57061 -0.9431 0
M  V30 46 H -3.0993 -0.389642 -2.81091 0
M  V30 47 H -0.990744 0.40484 -2.88045 0
M  V30 48 H -0.950378 1.55349 -0.23726 0
M  V30 49 H -2.98987 2.04531 -2.45585 0
M  V30 50 H -3.29884 1.53268 1.39317 0
M  V30 51 H -8.14892 -2.10156 -1.11006 0
M  V30 52 H -8.45798 2.10906 1.91105 0
M  V30 53 H -8.86363 0.636991 2.85074 0
M  V30 END ATOM
M  V30 BEGIN BOND
M  V30 1 1 1 2
M  V30 2 1 2 3
M  V30 3 1 3 4
M  V30 4 1 4 5
M  V30 5 2 5 6
M  V30 6 1 6 7
M  V30 7 2 7 8
M  V30 8 1 8 9
M  V30 9 2 9 10
M  V30 10 1 8 11
M  V30 11 2 11 12
M  V30 12 1 11 13
M  V30 13 1 13 14
M  V30 14 1 14 15
M  V30 15 1 15 16
M  V30 16 1 16 17
M  V30 17 1 17 18
M  V30 18 1 18 19
M  V30 19 1 17 20
M  V30 20 1 16 21
M  V30 21 1 21 22
M  V30 22 2 22 23
M  V30 23 1 23 24
M  V30 24 2 24 25
M  V30 25 1 25 26
M  V30 26 2 26 27
M  V30 27 1 27 28
M  V30 28 2 28 29
M  V30 29 1 29 30
M  V30 30 1 10 5
M  V30 31 1 18 14
M  V30 32 1 25 21
M  V30 33 1 29 24
M  V30 34 1 1 31
M  V30 35 1 1 32
M  V30 36 1 2 33
M  V30 37 1 2 34
M  V30 38 1 3 35
M  V30 39 1 3 36
M  V30 40 1 6 37
M  V30 41 1 7 38
M  V30 42 1 9 39
M  V30 43 1 10 40
M  V30 44 1 13 41
M  V30 45 1 14 42 CFG=3
M  V30 46 1 15 43
M  V30 47 1 15 44
M  V30 48 1 16 45 CFG=3
M  V30 49 1 17 46 CFG=3
M  V30 50 1 18 47 CFG=3
M  V30 51 1 19 48
M  V30 52 1 20 49
M  V30 53 1 22 50
M  V30 54 1 27 51
M  V30 55 1 30 52
M  V30 56 1 30 53
M  V30 END BOND
M  V30 END CTAB
M  END
