
     RDKit          3D

  0  0  0  0  0  0  0  0  0  0999 V3000
M  V30 BEGIN CTAB
M  V30 COUNTS 23 23 0 0 0
M  V30 BEGIN ATOM
M  V30 1 N -1.82806 -1.40395 0.906054 0
M  V30 2 N -1.99446 -0.391757 0.0558266 0
M  V30 3 C -1.0037 0.718337 0.0572771 0
M  V30 4 C -1.4415 1.57008 -1.13523 0
M  V30 5 F -2.74995 2.03829 -1.00065 0
M  V30 6 F -0.717166 2.79689 -1.06301 0
M  V30 7 F -1.32543 0.962524 -2.33865 0
M  V30 8 C 0.265986 0.0440957 -0.20971 0
M  V30 9 C 0.400675 -0.987118 -1.15515 0
M  V30 10 N 1.50058 -1.74574 -1.27418 0
M  V30 11 C 2.58706 -1.55552 -0.473491 0
M  V30 12 C 2.52628 -0.559345 0.467061 0
M  V30 13 C 1.39145 0.22316 0.599384 0
M  V30 14 N 1.37723 1.33149 1.51766 0
M  V30 15 H -1.78001 -2.36984 0.475975 0
M  V30 16 H -2.48442 -1.41733 1.76334 0
M  V30 17 H -2.73883 -0.326551 -0.621818 0
M  V30 18 H -1.12327 1.24115 0.992116 0
M  V30 19 H -0.45795 -1.1731 -1.78305 0
M  V30 20 H 3.45094 -2.15349 -0.585465 0
M  V30 21 H 3.37498 -0.324012 1.16593 0
M  V30 22 H 1.89425 2.19775 1.24096 0
M  V30 23 H 0.875292 1.28399 2.39883 0
M  V30 END ATOM
M  V30 BEGIN BOND
M  V30 1 1 1 2
M  V30 2 1 2 3
M  V30 3 1 3 4
M  V30 4 1 4 5
M  V30 5 1 4 6
M  V30 6 1 4 7
M  V30 7 1 3 8
M  V30 8 2 8 9
M  V30 9 1 9 10
M  V30 10 2 10 11
M  V30 11 1 11 12
M  V30 12 2 12 13
M  V30 13 1 13 14
M  V30 14 1 13 8
M  V30 15 1 1 15
M  V30 16 1 1 16
M  V30 17 1 2 17
M  V30 18 1 3 18
M  V30 19 1 9 19
M  V30 20 1 11 20
M  V30 21 1 12 21
M  V30 22 1 14 22
M  V30 23 1 14 23
M  V30 END BOND
M  V30 END CTAB
M  END
