
     RDKit          3D

  0  0  0  0  0  0  0  0  0  0999 V3000
M  V30 BEGIN CTAB
M  V30 COUNTS 19 19 0 0 0
M  V30 BEGIN ATOM
M  V30 1 N -3.14849 1.60165 -0.39985 0
M  V30 2 N -1.81918 1.26304 -0.262718 0
M  V30 3 C -1.35671 0.0820323 -0.160138 0
M  V30 4 C 0.0690116 -0.140418 -0.0203108 0
M  V30 5 C 0.971777 0.913611 0.00660308 0
M  V30 6 C 2.30667 0.621564 0.141873 0
M  V30 7 C 2.77958 -0.663333 0.250743 0
M  V30 8 N 1.89202 -1.66548 0.222518 0
M  V30 9 C 0.577696 -1.44055 0.0925622 0
M  V30 10 O 4.12965 -0.889094 0.383961 0
M  V30 11 N -2.23075 -1.01752 -0.182093 0
M  V30 12 H -3.87376 0.873885 -0.313974 0
M  V30 13 H -3.41209 2.5805 -0.587602 0
M  V30 14 H 0.622906 1.93002 -0.0772475 0
M  V30 15 H 3.06876 1.42063 0.169273 0
M  V30 16 H -0.142198 -2.24874 0.0694212 0
M  V30 17 H 4.75539 -0.321028 0.940719 0
M  V30 18 H -3.02465 -1.09302 0.516581 0
M  V30 19 H -2.16565 -1.80776 -0.859314 0
M  V30 END ATOM
M  V30 BEGIN BOND
M  V30 1 1 1 2
M  V30 2 2 2 3 CFG=2
M  V30 3 1 3 4
M  V30 4 2 4 5
M  V30 5 1 5 6
M  V30 6 2 6 7
M  V30 7 1 7 8
M  V30 8 2 8 9
M  V30 9 1 7 10
M  V30 10 1 3 11
M  V30 11 1 9 4
M  V30 12 1 1 12
M  V30 13 1 1 13
M  V30 14 1 5 14
M  V30 15 1 6 15
M  V30 16 1 9 16
M  V30 17 1 10 17
M  V30 18 1 11 18
M  V30 19 1 11 19
M  V30 END BOND
M  V30 END CTAB
M  END
