
     RDKit          3D

  0  0  0  0  0  0  0  0  0  0999 V3000
M  V30 BEGIN CTAB
M  V30 COUNTS 51 52 0 0 0
M  V30 BEGIN ATOM
M  V30 1 N 1.95994 4.0251 0.0828273 0
M  V30 2 C 1.35001 3.97305 -1.21523 0
M  V30 3 C 1.40663 2.61864 -1.84635 0
M  V30 4 N 0.735298 1.57897 -1.07245 0
M  V30 5 C -0.633285 1.28179 -1.2594 0
M  V30 6 O -1.31423 1.87708 -2.12942 0
M  V30 7 C -1.33023 0.261278 -0.439579 0
M  V30 8 C -2.63414 -0.155787 -1.08276 0
M  V30 9 C -3.30511 -1.18076 -0.258809 0
M  V30 10 C -2.92581 -2.51306 -0.453909 0
M  V30 11 C -3.50347 -3.52169 0.254287 0
M  V30 12 C -4.49535 -3.22605 1.19589 0
M  V30 13 C -4.89769 -1.93037 1.4184 0
M  V30 14 C -4.28922 -0.923088 0.679589 0
M  V30 15 N -3.50282 0.905483 -1.4538 0
M  V30 16 C -1.62344 0.843667 0.931204 0
M  V30 17 C 1.57202 0.856535 -0.134335 0
M  V30 18 C 2.24382 -0.332785 -0.796402 0
M  V30 19 C 3.07734 -1.01685 0.223866 0
M  V30 20 C 2.53222 -2.02625 0.994454 0
M  V30 21 C 3.27683 -2.68396 1.95203 0
M  V30 22 C 4.58542 -2.33276 2.14731 0
M  V30 23 C 5.13313 -1.31709 1.3716 0
M  V30 24 C 4.38194 -0.664429 0.416285 0
M  V30 25 H 1.30609 3.94798 0.874748 0
M  V30 26 H 2.61403 4.82773 0.204564 0
M  V30 27 H 0.345375 4.40252 -1.18358 0
M  V30 28 H 1.9589 4.64467 -1.87896 0
M  V30 29 H 2.44851 2.29483 -1.99963 0
M  V30 30 H 0.939407 2.6134 -2.86216 0
M  V30 31 H -0.716342 -0.655022 -0.370903 0
M  V30 32 H -2.31992 -0.67916 -2.03329 0
M  V30 33 H -2.15627 -2.73719 -1.18518 0
M  V30 34 H -3.18325 -4.52549 0.0732066 0
M  V30 35 H -4.9176 -4.06538 1.72764 0
M  V30 36 H -5.66086 -1.70926 2.14371 0
M  V30 37 H -4.60484 0.0801748 0.841755 0
M  V30 38 H -3.65045 1.03664 -2.46597 0
M  V30 39 H -3.44413 1.76052 -0.899773 0
M  V30 40 H -2.6334 1.31472 0.909769 0
M  V30 41 H -1.55153 0.0258988 1.66123 0
M  V30 42 H -0.902719 1.67661 1.09066 0
M  V30 43 H 2.40794 1.4927 0.267536 0
M  V30 44 H 1.05267 0.461883 0.735267 0
M  V30 45 H 1.49974 -1.02528 -1.18622 0
M  V30 46 H 2.90988 -0.0239325 -1.62374 0
M  V30 47 H 1.49295 -2.30554 0.839714 0
M  V30 48 H 2.8115 -3.48182 2.54685 0
M  V30 49 H 5.16455 -2.852 2.89967 0
M  V30 50 H 6.16753 -1.04367 1.53011 0
M  V30 51 H 4.82244 0.126806 -0.182315 0
M  V30 END ATOM
M  V30 BEGIN BOND
M  V30 1 1 1 2
M  V30 2 1 2 3
M  V30 3 1 3 4
M  V30 4 1 4 5
M  V30 5 2 5 6
M  V30 6 1 5 7
M  V30 7 1 7 8
M  V30 8 1 8 9
M  V30 9 2 9 10
M  V30 10 1 10 11
M  V30 11 2 11 12
M  V30 12 1 12 13
M  V30 13 2 13 14
M  V30 14 1 8 15
M  V30 15 1 7 16
M  V30 16 1 4 17
M  V30 17 1 17 18
M  V30 18 1 18 19
M  V30 19 2 19 20
M  V30 20 1 20 21
M  V30 21 2 21 22
M  V30 22 1 22 23
M  V30 23 2 23 24
M  V30 24 1 14 9
M  V30 25 1 24 19
M  V30 26 1 1 25
M  V30 27 1 1 26
M  V30 28 1 2 27
M  V30 29 1 2 28
M  V30 30 1 3 29
M  V30 31 1 3 30
M  V30 32 1 7 31
M  V30 33 1 8 32
M  V30 34 1 10 33
M  V30 35 1 11 34
M  V30 36 1 12 35
M  V30 37 1 13 36
M  V30 38 1 14 37
M  V30 39 1 15 38
M  V30 40 1 15 39
M  V30 41 1 16 40
M  V30 42 1 16 41
M  V30 43 1 16 42
M  V30 44 1 17 43
M  V30 45 1 17 44
M  V30 46 1 18 45
M  V30 47 1 18 46
M  V30 48 1 20 47
M  V30 49 1 21 48
M  V30 50 1 22 49
M  V30 51 1 23 50
M  V30 52 1 24 51
M  V30 END BOND
M  V30 END CTAB
M  END
