
     RDKit          3D

  0  0  0  0  0  0  0  0  0  0999 V3000
M  V30 BEGIN CTAB
M  V30 COUNTS 26 27 0 0 0
M  V30 BEGIN ATOM
M  V30 1 N 1.92675 2.59018 -0.546052 0
M  V30 2 C 2.63545 1.46546 -0.0836775 0
M  V30 3 N 3.97374 1.48702 0.153657 0
M  V30 4 C 4.64571 0.412573 0.59444 0
M  V30 5 N 3.96831 -0.729519 0.809529 0
M  V30 6 C 2.6517 -0.836159 0.601357 0
M  V30 7 N 1.90759 -2.01441 0.815024 0
M  V30 8 C 1.95003 0.275034 0.144277 0
M  V30 9 N 0.574072 0.248205 -0.0983531 0
M  V30 10 N -0.257958 -0.56865 0.339193 0
M  V30 11 C -1.65559 -0.471133 0.00169391 0
M  V30 12 C -2.27144 -1.42628 -0.774504 0
M  V30 13 C -3.62509 -1.34105 -1.10719 0
M  V30 14 C -4.38064 -0.278029 -0.654508 0
M  V30 15 Cl -6.0886 -0.136762 -1.05308 0
M  V30 16 C -3.7664 0.66818 0.115619 0
M  V30 17 C -2.4233 0.584251 0.446112 0
M  V30 18 H 2.00079 2.8555 -1.53579 0
M  V30 19 H 1.34525 3.13385 0.102642 0
M  V30 20 H 5.728 0.469908 0.77456 0
M  V30 21 H 1.92196 -2.77599 0.122027 0
M  V30 22 H 1.34665 -2.10882 1.67331 0
M  V30 23 H -1.67101 -2.24672 -1.11895 0
M  V30 24 H -4.1042 -2.10916 -1.7268 0
M  V30 25 H -4.36986 1.50457 0.469218 0
M  V30 26 H -1.96192 1.34794 1.05787 0
M  V30 END ATOM
M  V30 BEGIN BOND
M  V30 1 1 1 2
M  V30 2 2 2 3
M  V30 3 1 3 4
M  V30 4 2 4 5
M  V30 5 1 5 6
M  V30 6 1 6 7
M  V30 7 2 6 8
M  V30 8 1 8 9
M  V30 9 2 9 10
M  V30 10 1 10 11
M  V30 11 2 11 12
M  V30 12 1 12 13
M  V30 13 2 13 14
M  V30 14 1 14 15
M  V30 15 1 14 16
M  V30 16 2 16 17
M  V30 17 1 8 2
M  V30 18 1 17 11
M  V30 19 1 1 18
M  V30 20 1 1 19
M  V30 21 1 4 20
M  V30 22 1 7 21
M  V30 23 1 7 22
M  V30 24 1 12 23
M  V30 25 1 13 24
M  V30 26 1 16 25
M  V30 27 1 17 26
M  V30 END BOND
M  V30 END CTAB
M  END
