
     RDKit          3D

  0  0  0  0  0  0  0  0  0  0999 V3000
M  V30 BEGIN CTAB
M  V30 COUNTS 46 48 0 0 0
M  V30 BEGIN ATOM
M  V30 1 N 5.56462 -1.18314 0.675435 0
M  V30 2 C 4.57303 -0.212133 0.197839 0
M  V30 3 C 3.618 0.245802 1.25303 0
M  V30 4 C 2.42024 -0.100152 0.375116 0
M  V30 5 C 3.40615 -0.857421 -0.507764 0
M  V30 6 N 1.85626 1.08588 -0.220579 0
M  V30 7 C 0.479606 1.43466 -0.190926 0
M  V30 8 O 0.164622 2.54894 -0.739858 0
M  V30 9 C -0.585612 0.597884 0.422213 0
M  V30 10 C -1.81765 1.46635 0.603661 0
M  V30 11 C -3.08503 0.636916 0.594453 0
M  V30 12 C -3.70846 0.647476 -0.750808 0
M  V30 13 C -3.98662 -0.66508 -1.36339 0
M  V30 14 C -2.90048 -1.68567 -1.24031 0
M  V30 15 C -1.98625 -1.42992 -0.0563099 0
M  V30 16 C -0.881289 -0.541487 -0.528181 0
M  V30 17 C -2.85025 -0.79823 1.00776 0
M  V30 18 N -2.32891 -0.932476 2.32677 0
M  V30 19 C 2.7918 1.97817 -0.902561 0
M  V30 20 H 6.13703 -0.810343 1.448 0
M  V30 21 H 5.03682 -2.04489 0.899819 0
M  V30 22 H 5.07714 0.562107 -0.395273 0
M  V30 23 H 3.6438 -0.331318 2.20817 0
M  V30 24 H 3.72525 1.31517 1.48751 0
M  V30 25 H 1.70866 -0.767119 0.899619 0
M  V30 26 H 3.37893 -1.94853 -0.250728 0
M  V30 27 H 3.28619 -0.626758 -1.56811 0
M  V30 28 H -0.195426 0.164901 1.34591 0
M  V30 29 H -1.86063 2.15124 -0.271229 0
M  V30 30 H -1.71538 2.08405 1.50704 0
M  V30 31 H -3.74942 1.08036 1.38189 0
M  V30 32 H -4.69228 1.19749 -0.664707 0
M  V30 33 H -3.11017 1.29682 -1.4549 0
M  V30 34 H -4.97362 -1.05551 -0.99373 0
M  V30 35 H -4.1492 -0.500957 -2.4701 0
M  V30 36 H -3.39035 -2.67496 -1.05032 0
M  V30 37 H -2.28796 -1.79007 -2.1484 0
M  V30 38 H -1.59799 -2.3828 0.355963 0
M  V30 39 H -1.13047 -0.057646 -1.51669 0
M  V30 40 H 0.0430528 -1.1027 -0.69923 0
M  V30 41 H -3.83865 -1.3016 0.955179 0
M  V30 42 H -3.02673 -1.37474 2.96653 0
M  V30 43 H -2.11275 0.00551765 2.78169 0
M  V30 44 H 3.5488 2.40104 -0.2148 0
M  V30 45 H 3.26049 1.39962 -1.71546 0
M  V30 46 H 2.24109 2.87527 -1.30571 0
M  V30 END ATOM
M  V30 BEGIN BOND
M  V30 1 1 1 2
M  V30 2 1 2 3
M  V30 3 1 3 4
M  V30 4 1 4 5
M  V30 5 1 4 6
M  V30 6 1 6 7
M  V30 7 2 7 8
M  V30 8 1 7 9
M  V30 9 1 9 10
M  V30 10 1 10 11
M  V30 11 1 11 12
M  V30 12 1 12 13
M  V30 13 1 13 14
M  V30 14 1 14 15
M  V30 15 1 15 16
M  V30 16 1 15 17
M  V30 17 1 17 18
M  V30 18 1 6 19
M  V30 19 1 5 2
M  V30 20 1 16 9
M  V30 21 1 17 11
M  V30 22 1 1 20
M  V30 23 1 1 21
M  V30 24 1 2 22
M  V30 25 1 3 23
M  V30 26 1 3 24
M  V30 27 1 4 25
M  V30 28 1 5 26
M  V30 29 1 5 27
M  V30 30 1 9 28
M  V30 31 1 10 29
M  V30 32 1 10 30
M  V30 33 1 11 31
M  V30 34 1 12 32
M  V30 35 1 12 33
M  V30 36 1 13 34
M  V30 37 1 13 35
M  V30 38 1 14 36
M  V30 39 1 14 37
M  V30 40 1 15 38
M  V30 41 1 16 39
M  V30 42 1 16 40
M  V30 43 1 17 41
M  V30 44 1 18 42
M  V30 45 1 18 43
M  V30 46 1 19 44
M  V30 47 1 19 45
M  V30 48 1 19 46
M  V30 END BOND
M  V30 END CTAB
M  END
