
     RDKit          3D

  0  0  0  0  0  0  0  0  0  0999 V3000
M  V30 BEGIN CTAB
M  V30 COUNTS 20 20 0 0 0
M  V30 BEGIN ATOM
M  V30 1 C 0.263088 2.56828 -0.200849 0
M  V30 2 C 0.421542 1.09418 -0.161021 0
M  V30 3 N 1.58143 0.476998 -0.440664 0
M  V30 4 C 1.75878 -0.857054 -0.413853 0
M  V30 5 N 3.00583 -1.45918 -0.717921 0
M  V30 6 N 0.670137 -1.59518 -0.0774581 0
M  V30 7 C -0.511385 -1.02523 0.210694 0
M  V30 8 C -1.67277 -1.88171 0.573407 0
M  V30 9 C -0.687936 0.345567 0.181606 0
M  V30 10 N -1.93418 0.950464 0.48537 0
M  V30 11 H 0.815549 2.91518 -1.1231 0
M  V30 12 H 0.796992 3.01837 0.660239 0
M  V30 13 H -0.776582 2.86656 -0.30493 0
M  V30 14 H 3.48273 -2.126 -0.0886799 0
M  V30 15 H 3.45741 -1.21599 -1.61575 0
M  V30 16 H -2.61653 -1.3855 0.333542 0
M  V30 17 H -1.62244 -2.23468 1.61491 0
M  V30 18 H -1.59974 -2.78894 -0.0877188 0
M  V30 19 H -2.78422 0.628047 -0.0137141 0
M  V30 20 H -2.04771 1.7058 1.18589 0
M  V30 END ATOM
M  V30 BEGIN BOND
M  V30 1 1 1 2
M  V30 2 2 2 3
M  V30 3 1 3 4
M  V30 4 1 4 5
M  V30 5 2 4 6
M  V30 6 1 6 7
M  V30 7 1 7 8
M  V30 8 2 7 9
M  V30 9 1 9 10
M  V30 10 1 9 2
M  V30 11 1 1 11
M  V30 12 1 1 12
M  V30 13 1 1 13
M  V30 14 1 5 14
M  V30 15 1 5 15
M  V30 16 1 8 16
M  V30 17 1 8 17
M  V30 18 1 8 18
M  V30 19 1 10 19
M  V30 20 1 10 20
M  V30 END BOND
M  V30 END CTAB
M  END
