
     RDKit          3D

  0  0  0  0  0  0  0  0  0  0999 V3000
M  V30 BEGIN CTAB
M  V30 COUNTS 66 69 0 0 0
M  V30 BEGIN ATOM
M  V30 1 N -11.6996 1.20578 -0.218776 0
M  V30 2 C -10.4245 0.625529 -0.0659461 0
M  V30 3 C -9.28107 1.41384 -0.0938245 0
M  V30 4 C -8.02622 0.879088 0.052555 0
M  V30 5 C -7.85966 -0.48753 0.235801 0
M  V30 6 C -6.47067 -1.02679 0.390198 0
M  V30 7 C -5.89434 -1.40427 -0.950261 0
M  V30 8 S -4.21978 -2.03614 -0.708034 0
M  V30 9 C -3.1512 -0.721673 -0.15401 0
M  V30 10 N -1.85678 -1.01122 0.0816017 0
M  V30 11 C -0.95096 -0.10765 0.497564 0
M  V30 12 C -1.41498 1.18877 0.684035 0
M  V30 13 N -0.383361 1.93725 1.09426 0
M  V30 14 C 0.69063 1.1265 1.16027 0
M  V30 15 N 0.356467 -0.127056 0.797749 0
M  V30 16 C 1.17908 -1.30767 0.721825 0 CFG=2
M  V30 17 O 2.34173 -1.20767 1.4298 0
M  V30 18 C 3.42302 -1.45935 0.630866 0 CFG=2
M  V30 19 C 4.19247 -0.175937 0.429402 0
M  V30 20 O 5.31624 -0.331842 -0.37328 0
M  V30 21 P 6.05988 1.17609 -0.499436 0
M  V30 22 O 5.10056 2.3513 0.239811 0
M  V30 23 O 6.19093 1.47768 -1.97746 0
M  V30 24 O 7.56555 1.19958 0.264558 0
M  V30 25 P 8.8088 1.14453 -0.893419 0
M  V30 26 O 9.02235 2.61437 -1.66744 0
M  V30 27 O 8.49248 0.0878861 -1.91513 0
M  V30 28 O 10.2423 0.792405 -0.051921 0
M  V30 29 P 11.4 0.141463 -1.06915 0
M  V30 30 O 12.0234 -1.24867 -0.303751 0
M  V30 31 O 12.6199 1.29323 -1.29157 0
M  V30 32 O 10.7973 -0.275433 -2.38025 0
M  V30 33 C 2.93684 -2.0349 -0.65847 0 CFG=1
M  V30 34 O 3.02621 -3.42979 -0.677646 0
M  V30 35 C 1.4658 -1.68635 -0.691306 0 CFG=1
M  V30 36 O 0.687196 -2.77108 -1.08261 0
M  V30 37 C -2.73443 1.5119 0.450313 0
M  V30 38 N -3.25783 2.82921 0.628636 0
M  V30 39 N -3.56594 0.54058 0.0361321 0
M  V30 40 C -8.98471 -1.27899 0.265126 0
M  V30 41 C -10.2537 -0.720552 0.114931 0
M  V30 42 H -12.1777 1.23288 -1.14383 0
M  V30 43 H -12.1769 1.62019 0.620491 0
M  V30 44 H -9.42606 2.49084 -0.23879 0
M  V30 45 H -7.13191 1.4975 0.0304135 0
M  V30 46 H -6.59363 -1.96123 1.00063 0
M  V30 47 H -5.84251 -0.288129 0.885846 0
M  V30 48 H -5.89489 -0.569601 -1.66481 0
M  V30 49 H -6.48564 -2.22712 -1.41376 0
M  V30 50 H 1.68423 1.44682 1.46391 0
M  V30 51 H 0.573665 -2.12948 1.19568 0
M  V30 52 H 4.09567 -2.2235 1.11409 0
M  V30 53 H 3.52692 0.553069 -0.0757821 0
M  V30 54 H 4.55426 0.182401 1.41611 0
M  V30 55 H 4.79944 3.02716 -0.403511 0
M  V30 56 H 8.19207 3.05469 -1.93663 0
M  V30 57 H 11.2669 -1.82741 -0.064221 0
M  V30 58 H 12.1905 2.17673 -1.43654 0
M  V30 59 H 3.4797 -1.65319 -1.54637 0
M  V30 60 H 2.94209 -3.73598 -1.61683 0
M  V30 61 H 1.29359 -0.858811 -1.3815 0
M  V30 62 H 0.54235 -3.37928 -0.297148 0
M  V30 63 H -3.80584 3.00736 1.50026 0
M  V30 64 H -3.12223 3.59449 -0.0490497 0
M  V30 65 H -8.8694 -2.35528 0.408086 0
M  V30 66 H -11.1242 -1.36154 0.141644 0
M  V30 END ATOM
M  V30 BEGIN BOND
M  V30 1 1 1 2
M  V30 2 2 2 3
M  V30 3 1 3 4
M  V30 4 2 4 5
M  V30 5 1 5 6
M  V30 6 1 6 7
M  V30 7 1 7 8
M  V30 8 1 8 9
M  V30 9 2 9 10
M  V30 10 1 10 11
M  V30 11 2 11 12
M  V30 12 1 12 13
M  V30 13 2 13 14
M  V30 14 1 14 15
M  V30 15 1 15 16
M  V30 16 1 16 17
M  V30 17 1 17 18
M  V30 18 1 18 19
M  V30 19 1 19 20
M  V30 20 1 20 21
M  V30 21 1 21 22
M  V30 22 2 21 23
M  V30 23 1 21 24
M  V30 24 1 24 25
M  V30 25 1 25 26
M  V30 26 2 25 27
M  V30 27 1 25 28
M  V30 28 1 28 29
M  V30 29 1 29 30
M  V30 30 1 29 31
M  V30 31 2 29 32
M  V30 32 1 18 33
M  V30 33 1 33 34
M  V30 34 1 33 35
M  V30 35 1 35 36
M  V30 36 1 12 37
M  V30 37 1 37 38
M  V30 38 2 37 39
M  V30 39 1 5 40
M  V30 40 2 40 41
M  V30 41 1 41 2
M  V30 42 1 39 9
M  V30 43 1 15 11
M  V30 44 1 35 16
M  V30 45 1 1 42
M  V30 46 1 1 43
M  V30 47 1 3 44
M  V30 48 1 4 45
M  V30 49 1 6 46
M  V30 50 1 6 47
M  V30 51 1 7 48
M  V30 52 1 7 49
M  V30 53 1 14 50
M  V30 54 1 16 51 CFG=1
M  V30 55 1 18 52 CFG=1
M  V30 56 1 19 53
M  V30 57 1 19 54
M  V30 58 1 22 55
M  V30 59 1 26 56
M  V30 60 1 30 57
M  V30 61 1 31 58
M  V30 62 1 33 59 CFG=3
M  V30 63 1 34 60
M  V30 64 1 35 61 CFG=3
M  V30 65 1 36 62
M  V30 66 1 38 63
M  V30 67 1 38 64
M  V30 68 1 40 65
M  V30 69 1 41 66
M  V30 END BOND
M  V30 END CTAB
M  END
