
     RDKit          3D

  0  0  0  0  0  0  0  0  0  0999 V3000
M  V30 BEGIN CTAB
M  V30 COUNTS 76 79 0 0 0
M  V30 BEGIN ATOM
M  V30 1 C 2.92754 -2.48211 -0.424879 0 CFG=2
M  V30 2 C 3.45391 -2.84304 0.918826 0
M  V30 3 C 3.20516 -1.88845 1.98972 0
M  V30 4 C 3.81437 -0.600677 2.17147 0
M  V30 5 C 3.86419 0.545221 1.28914 0
M  V30 6 N 4.61396 0.467955 0.0823254 0
M  V30 7 C 6.02517 0.226314 0.0803903 0
M  V30 8 O 6.69479 0.0720142 1.12993 0
M  V30 9 O 6.7246 0.151623 -1.11012 0
M  V30 10 C 8.10996 -0.0786621 -1.16477 0
M  V30 11 C 8.82512 1.00087 -0.468624 0
M  V30 12 C 8.70107 2.29561 -0.895953 0
M  V30 13 C 9.39221 3.30046 -0.238285 0
M  V30 14 C 10.1918 3.00731 0.827922 0
M  V30 15 C 10.3265 1.71131 1.26879 0
M  V30 16 C 9.63066 0.723224 0.601648 0
M  V30 17 N 1.46734 -2.33484 -0.256225 0
M  V30 18 C 0.835495 -1.21224 -0.794021 0
M  V30 19 O 1.51322 -0.350407 -1.41257 0
M  V30 20 C -0.62718 -1.00473 -0.654478 0
M  V30 21 C -1.4386 -1.98121 -0.126656 0
M  V30 22 C -2.81267 -1.74903 -0.00397203 0
M  V30 23 C -3.40094 -0.564559 -0.395171 0
M  V30 24 C -2.5674 0.409847 -0.925489 0
M  V30 25 C -1.21403 0.17874 -1.04548 0
M  V30 26 N -4.80182 -0.3505 -0.265607 0
M  V30 27 C -5.68624 -0.636673 -1.37925 0
M  V30 28 C -5.40097 0.144357 0.958469 0
M  V30 29 C -6.87302 0.305771 0.808774 0
M  V30 30 C -7.73672 -0.76428 0.971785 0
M  V30 31 N -9.06628 -0.640894 0.839819 0
M  V30 32 C -9.58445 0.581447 0.534487 0
M  V30 33 N -10.9099 0.759493 0.389993 0
M  V30 34 C -11.4733 1.95513 0.0858797 0
M  V30 35 N -12.8675 2.11397 -0.0620408 0
M  V30 36 N -10.6224 2.986 -0.0689829 0
M  V30 37 C -9.29279 2.90485 0.0548318 0
M  V30 38 N -8.39809 3.989 -0.105731 0
M  V30 39 C -8.74517 1.66609 0.366544 0
M  V30 40 N -7.43613 1.48926 0.508371 0
M  V30 41 C 3.14967 -3.6397 -1.38468 0
M  V30 42 O 4.44079 -3.98338 -1.69882 0
M  V30 43 O 2.18976 -4.2578 -1.87136 0
M  V30 44 H 3.34122 -1.6428 -0.913744 0
M  V30 45 H 2.98288 -3.85661 1.18954 0
M  V30 46 H 4.56594 -3.1063 0.827257 0
M  V30 47 H 2.04378 -1.66895 1.93708 0
M  V30 48 H 3.1855 -2.47465 3.00467 0
M  V30 49 H 3.39588 -0.218747 3.21835 0
M  V30 50 H 4.92881 -0.795775 2.50535 0
M  V30 51 H 2.82542 0.957061 1.03082 0
M  V30 52 H 4.27913 1.43905 1.88371 0
M  V30 53 H 4.17107 0.590808 -0.879131 0
M  V30 54 H 8.46505 -0.208279 -2.21192 0
M  V30 55 H 8.32352 -1.0655 -0.665451 0
M  V30 56 H 8.06837 2.56842 -1.74829 0
M  V30 57 H 9.25847 4.32232 -0.621867 0
M  V30 58 H 10.7303 3.82654 1.33212 0
M  V30 59 H 10.9494 1.44129 2.10734 0
M  V30 60 H 9.74613 -0.307861 0.964304 0
M  V30 61 H 1.01056 -3.09942 0.265217 0
M  V30 62 H -1.02214 -2.90711 0.186355 0
M  V30 63 H -3.47082 -2.51583 0.413335 0
M  V30 64 H -2.99957 1.36536 -1.2474 0
M  V30 65 H -0.527424 0.932852 -1.4632 0
M  V30 66 H -6.28567 -1.56 -1.22286 0
M  V30 67 H -6.37633 0.208865 -1.58044 0
M  V30 68 H -5.07737 -0.774018 -2.28311 0
M  V30 69 H -5.25272 -0.638822 1.75925 0
M  V30 70 H -4.89472 1.05121 1.33793 0
M  V30 71 H -7.28652 -1.72272 1.21483 0
M  V30 72 H -13.4966 1.30428 0.0438264 0
M  V30 73 H -13.2562 3.04449 -0.276955 0
M  V30 74 H -8.67812 4.93277 0.236981 0
M  V30 75 H -7.4591 3.91036 -0.551967 0
M  V30 76 H 4.67006 -4.95497 -1.85546 0
M  V30 END ATOM
M  V30 BEGIN BOND
M  V30 1 1 1 2
M  V30 2 1 2 3
M  V30 3 1 3 4
M  V30 4 1 4 5
M  V30 5 1 5 6
M  V30 6 1 6 7
M  V30 7 2 7 8
M  V30 8 1 7 9
M  V30 9 1 9 10
M  V30 10 1 10 11
M  V30 11 2 11 12
M  V30 12 1 12 13
M  V30 13 2 13 14
M  V30 14 1 14 15
M  V30 15 2 15 16
M  V30 16 1 1 17
M  V30 17 1 17 18
M  V30 18 2 18 19
M  V30 19 1 18 20
M  V30 20 2 20 21
M  V30 21 1 21 22
M  V30 22 2 22 23
M  V30 23 1 23 24
M  V30 24 2 24 25
M  V30 25 1 23 26
M  V30 26 1 26 27
M  V30 27 1 26 28
M  V30 28 1 28 29
M  V30 29 2 29 30
M  V30 30 1 30 31
M  V30 31 2 31 32
M  V30 32 1 32 33
M  V30 33 2 33 34
M  V30 34 1 34 35
M  V30 35 1 34 36
M  V30 36 2 36 37
M  V30 37 1 37 38
M  V30 38 1 37 39
M  V30 39 2 39 40
M  V30 40 1 1 41
M  V30 41 1 41 42
M  V30 42 2 41 43
M  V30 43 1 16 11
M  V30 44 1 25 20
M  V30 45 1 40 29
M  V30 46 1 39 32
M  V30 47 1 1 44 CFG=3
M  V30 48 1 2 45
M  V30 49 1 2 46
M  V30 50 1 3 47
M  V30 51 1 3 48
M  V30 52 1 4 49
M  V30 53 1 4 50
M  V30 54 1 5 51
M  V30 55 1 5 52
M  V30 56 1 6 53
M  V30 57 1 10 54
M  V30 58 1 10 55
M  V30 59 1 12 56
M  V30 60 1 13 57
M  V30 61 1 14 58
M  V30 62 1 15 59
M  V30 63 1 16 60
M  V30 64 1 17 61
M  V30 65 1 21 62
M  V30 66 1 22 63
M  V30 67 1 24 64
M  V30 68 1 25 65
M  V30 69 1 27 66
M  V30 70 1 27 67
M  V30 71 1 27 68
M  V30 72 1 28 69
M  V30 73 1 28 70
M  V30 74 1 30 71
M  V30 75 1 35 72
M  V30 76 1 35 73
M  V30 77 1 38 74
M  V30 78 1 38 75
M  V30 79 1 42 76
M  V30 END BOND
M  V30 END CTAB
M  END
