
     RDKit          3D

  0  0  0  0  0  0  0  0  0  0999 V3000
M  V30 BEGIN CTAB
M  V30 COUNTS 21 20 0 0 0
M  V30 BEGIN ATOM
M  V30 1 N -1.01326 1.30215 -0.0251232 0
M  V30 2 C -1.1966 -0.0188698 -0.416255 0 CFG=1
M  V30 3 C -0.0278873 -0.86314 -0.0450854 0
M  V30 4 C 1.27597 -0.509713 -0.651823 0 CFG=2
M  V30 5 N 2.29131 -1.4894 -0.147174 0
M  V30 6 C 1.85598 0.798565 -0.328924 0
M  V30 7 O 1.55443 2.00571 -0.96173 0
M  V30 8 O 2.72887 0.91896 0.602893 0
M  V30 9 C -2.46036 -0.520732 0.223655 0
M  V30 10 O -3.22157 0.298384 1.04413 0
M  V30 11 O -2.8086 -1.70152 -0.00443823 0
M  V30 12 H -0.859863 1.45895 0.950735 0
M  V30 13 H -1.32413 2.05317 -0.576819 0
M  V30 14 H -1.32215 -0.0858163 -1.54624 0
M  V30 15 H 0.117063 -0.790279 1.08247 0
M  V30 16 H -0.203398 -1.95122 -0.260602 0
M  V30 17 H 1.2388 -0.60523 -1.76302 0
M  V30 18 H 1.78812 -2.33853 0.139162 0
M  V30 19 H 2.98898 -1.66384 -0.90714 0
M  V30 20 H 2.3186 2.60287 -1.25515 0
M  V30 21 H -3.72029 1.09953 0.674452 0
M  V30 END ATOM
M  V30 BEGIN BOND
M  V30 1 1 1 2
M  V30 2 1 2 3
M  V30 3 1 3 4
M  V30 4 1 4 5
M  V30 5 1 4 6
M  V30 6 1 6 7
M  V30 7 2 6 8
M  V30 8 1 2 9
M  V30 9 1 9 10
M  V30 10 2 9 11
M  V30 11 1 1 12
M  V30 12 1 1 13
M  V30 13 1 2 14 CFG=3
M  V30 14 1 3 15
M  V30 15 1 3 16
M  V30 16 1 4 17 CFG=3
M  V30 17 1 5 18
M  V30 18 1 5 19
M  V30 19 1 7 20
M  V30 20 1 10 21
M  V30 END BOND
M  V30 END CTAB
M  END
