
     RDKit          3D

  0  0  0  0  0  0  0  0  0  0999 V3000
M  V30 BEGIN CTAB
M  V30 COUNTS 45 47 0 0 0
M  V30 BEGIN ATOM
M  V30 1 C 3.14358 -2.97571 1.06128 0
M  V30 2 C 2.83879 -1.68562 0.359513 0
M  V30 3 C 1.56013 -1.18257 0.273281 0
M  V30 4 C 1.29261 -0.0134912 -0.363041 0
M  V30 5 C -0.0805214 0.489973 -0.447936 0
M  V30 6 C -0.25386 1.78912 0.275338 0
M  V30 7 C 0.618958 2.2813 1.2097 0
M  V30 8 C 0.40907 3.48338 1.84274 0
M  V30 9 C -0.716324 4.26498 1.55824 0
M  V30 10 C -1.5924 3.77064 0.62017 0
M  V30 11 C -1.36068 2.56347 -0.000880662 0
M  V30 12 C -1.16603 -0.440065 -0.257383 0
M  V30 13 C -1.71231 -0.730583 0.943704 0
M  V30 14 N -1.25532 -0.0985876 2.11032 0
M  V30 15 C -2.75487 -1.64846 1.10637 0
M  V30 16 C -3.26195 -2.29289 0.0212974 0
M  V30 17 C -2.73265 -2.02434 -1.22194 0
M  V30 18 C -3.27123 -2.7154 -2.41407 0
M  V30 19 C -1.70529 -1.11671 -1.3619 0
M  V30 20 C 2.31211 0.695066 -0.939761 0
M  V30 21 N 2.13559 1.92939 -1.62972 0
M  V30 22 C 3.59826 0.206315 -0.863152 0
M  V30 23 C 3.87675 -0.977043 -0.220043 0
M  V30 24 H 3.27401 -3.80787 0.364301 0
M  V30 25 H 4.10028 -2.85855 1.60732 0
M  V30 26 H 2.29828 -3.21933 1.74391 0
M  V30 27 H 0.800887 -1.81662 0.758035 0
M  V30 28 H -0.141471 0.808681 -1.5497 0
M  V30 29 H 1.49355 1.70695 1.45192 0
M  V30 30 H 1.08075 3.89185 2.58165 0
M  V30 31 H -0.89446 5.2143 2.04942 0
M  V30 32 H -2.48957 4.33847 0.357769 0
M  V30 33 H -2.08157 2.19847 -0.745767 0
M  V30 34 H -0.394918 -0.41808 2.60341 0
M  V30 35 H -1.77396 0.709827 2.51132 0
M  V30 36 H -3.16961 -1.85836 2.0831 0
M  V30 37 H -4.06228 -3.00199 0.119316 0
M  V30 38 H -2.73874 -3.67473 -2.55628 0
M  V30 39 H -3.09309 -2.12535 -3.34008 0
M  V30 40 H -4.33286 -2.94555 -2.26491 0
M  V30 41 H -1.33089 -0.947452 -2.36177 0
M  V30 42 H 2.79765 2.6952 -1.39044 0
M  V30 43 H 1.40773 2.12221 -2.34311 0
M  V30 44 H 4.42409 0.769435 -1.32405 0
M  V30 45 H 4.90377 -1.35364 -0.166706 0
M  V30 END ATOM
M  V30 BEGIN BOND
M  V30 1 1 1 2
M  V30 2 2 2 3
M  V30 3 1 3 4
M  V30 4 1 4 5
M  V30 5 1 5 6
M  V30 6 2 6 7
M  V30 7 1 7 8
M  V30 8 2 8 9
M  V30 9 1 9 10
M  V30 10 2 10 11
M  V30 11 1 5 12
M  V30 12 2 12 13
M  V30 13 1 13 14
M  V30 14 1 13 15
M  V30 15 2 15 16
M  V30 16 1 16 17
M  V30 17 1 17 18
M  V30 18 2 17 19
M  V30 19 2 4 20
M  V30 20 1 20 21
M  V30 21 1 20 22
M  V30 22 2 22 23
M  V30 23 1 23 2
M  V30 24 1 11 6
M  V30 25 1 19 12
M  V30 26 1 1 24
M  V30 27 1 1 25
M  V30 28 1 1 26
M  V30 29 1 3 27
M  V30 30 1 5 28
M  V30 31 1 7 29
M  V30 32 1 8 30
M  V30 33 1 9 31
M  V30 34 1 10 32
M  V30 35 1 11 33
M  V30 36 1 14 34
M  V30 37 1 14 35
M  V30 38 1 15 36
M  V30 39 1 16 37
M  V30 40 1 18 38
M  V30 41 1 18 39
M  V30 42 1 18 40
M  V30 43 1 19 41
M  V30 44 1 21 42
M  V30 45 1 21 43
M  V30 46 1 22 44
M  V30 47 1 23 45
M  V30 END BOND
M  V30 END CTAB
M  END
