
     RDKit          3D

  0  0  0  0  0  0  0  0  0  0999 V3000
M  V30 BEGIN CTAB
M  V30 COUNTS 45 47 0 0 0
M  V30 BEGIN ATOM
M  V30 1 N -5.59164 2.42523 0.84721 0
M  V30 2 C -5.12922 1.64503 -0.273105 0
M  V30 3 C -4.79202 0.188176 0.0728262 0
M  V30 4 C -3.69688 0.32528 -0.993887 0
M  V30 5 C -3.63281 1.79814 -0.563255 0
M  V30 6 C -2.49213 -0.441996 -0.761402 0
M  V30 7 C -1.84623 -0.428809 0.451213 0
M  V30 8 C -0.684378 -1.17399 0.661996 0
M  V30 9 N -0.0418125 -1.14889 1.92025 0
M  V30 10 C 1.16462 -1.86736 2.2446 0
M  V30 11 C 2.31784 -1.38979 1.41657 0
M  V30 12 C 2.60734 0.0801202 1.61572 0
M  V30 13 C 3.76305 0.435021 0.748654 0
M  V30 14 C 5.10909 0.386179 1.08535 0
M  V30 15 N 5.81931 0.79302 0.00264705 0
M  V30 16 N 5.00051 1.09125 -0.98446 0
M  V30 17 C 3.73798 0.887706 -0.573802 0
M  V30 18 C 5.40656 1.56078 -2.29368 0
M  V30 19 N -0.224999 -1.90092 -0.362506 0
M  V30 20 C -0.847673 -1.9282 -1.56886 0
M  V30 21 N -1.96664 -1.19742 -1.73828 0
M  V30 22 N -0.308588 -2.72098 -2.6167 0
M  V30 23 H -6.63594 2.40108 0.823902 0
M  V30 24 H -5.17664 2.11315 1.73403 0
M  V30 25 H -5.74076 1.68994 -1.17517 0
M  V30 26 H -5.59084 -0.514966 -0.179723 0
M  V30 27 H -4.41178 0.166334 1.10844 0
M  V30 28 H -4.16678 0.276441 -1.97651 0
M  V30 29 H -3.03338 1.8572 0.358168 0
M  V30 30 H -3.38768 2.48708 -1.37527 0
M  V30 31 H -2.20023 0.1439 1.27283 0
M  V30 32 H -0.447951 -0.573873 2.69726 0
M  V30 33 H 1.37548 -1.89726 3.31923 0
M  V30 34 H 1.00413 -2.94712 1.95548 0
M  V30 35 H 2.21042 -1.56778 0.33338 0
M  V30 36 H 3.27344 -1.91273 1.71855 0
M  V30 37 H 1.7454 0.728602 1.39008 0
M  V30 38 H 2.91498 0.210633 2.67894 0
M  V30 39 H 5.48315 0.0732076 2.05116 0
M  V30 40 H 2.84639 1.03851 -1.14195 0
M  V30 41 H 4.63112 2.2826 -2.66595 0
M  V30 42 H 6.41995 2.00561 -2.27795 0
M  V30 43 H 5.42909 0.744848 -3.05013 0
M  V30 44 H -0.423661 -2.44707 -3.60152 0
M  V30 45 H 0.210821 -3.59673 -2.33438 0
M  V30 END ATOM
M  V30 BEGIN BOND
M  V30 1 1 1 2
M  V30 2 1 2 3
M  V30 3 1 3 4
M  V30 4 1 4 5
M  V30 5 1 4 6
M  V30 6 2 6 7
M  V30 7 1 7 8
M  V30 8 1 8 9
M  V30 9 1 9 10
M  V30 10 1 10 11
M  V30 11 1 11 12
M  V30 12 1 12 13
M  V30 13 1 13 14
M  V30 14 2 14 15
M  V30 15 1 15 16
M  V30 16 1 16 17
M  V30 17 1 16 18
M  V30 18 2 8 19
M  V30 19 1 19 20
M  V30 20 2 20 21
M  V30 21 1 20 22
M  V30 22 1 5 2
M  V30 23 1 21 6
M  V30 24 2 17 13
M  V30 25 1 1 23
M  V30 26 1 1 24
M  V30 27 1 2 25
M  V30 28 1 3 26
M  V30 29 1 3 27
M  V30 30 1 4 28
M  V30 31 1 5 29
M  V30 32 1 5 30
M  V30 33 1 7 31
M  V30 34 1 9 32
M  V30 35 1 10 33
M  V30 36 1 10 34
M  V30 37 1 11 35
M  V30 38 1 11 36
M  V30 39 1 12 37
M  V30 40 1 12 38
M  V30 41 1 14 39
M  V30 42 1 17 40
M  V30 43 1 18 41
M  V30 44 1 18 42
M  V30 45 1 18 43
M  V30 46 1 22 44
M  V30 47 1 22 45
M  V30 END BOND
M  V30 END CTAB
M  END
