
     RDKit          3D

  0  0  0  0  0  0  0  0  0  0999 V3000
M  V30 BEGIN CTAB
M  V30 COUNTS 34 34 0 0 0
M  V30 BEGIN ATOM
M  V30 1 N 3.26365 1.1929 -0.473368 0
M  V30 2 C 2.42685 1.08671 0.706719 0
M  V30 3 C 1.75965 -0.268842 0.794764 0
M  V30 4 C 0.878193 -0.567534 -0.379794 0
M  V30 5 C 0.276239 -1.9333 -0.176844 0
M  V30 6 C -0.876295 -1.92575 0.789583 0
M  V30 7 C -1.87466 -0.851216 0.525722 0
M  V30 8 C -1.28099 0.508326 0.310232 0
M  V30 9 C -0.144503 0.481401 -0.664289 0
M  V30 10 C -2.38619 1.37897 -0.303186 0
M  V30 11 C -3.54205 1.4288 0.668976 0
M  V30 12 N 2.82737 -1.2581 0.800675 0
M  V30 13 H 3.83732 0.326072 -0.583956 0
M  V30 14 H 3.95713 1.9679 -0.291098 0
M  V30 15 H 3.13103 1.13683 1.58143 0
M  V30 16 H 1.72967 1.9248 0.699332 0
M  V30 17 H 1.17454 -0.393526 1.70782 0
M  V30 18 H 1.5378 -0.642403 -1.28087 0
M  V30 19 H -0.0648895 -2.38664 -1.13225 0
M  V30 20 H 1.04868 -2.61341 0.236453 0
M  V30 21 H -1.40712 -2.91012 0.660043 0
M  V30 22 H -0.539818 -1.90954 1.84065 0
M  V30 23 H -2.56134 -1.05798 -0.313949 0
M  V30 24 H -2.53613 -0.78749 1.4379 0
M  V30 25 H -0.940948 0.975206 1.2508 0
M  V30 26 H -0.538684 0.281437 -1.70242 0
M  V30 27 H 0.320472 1.46582 -0.701741 0
M  V30 28 H -2.00224 2.40853 -0.48181 0
M  V30 29 H -2.67763 0.985429 -1.29336 0
M  V30 30 H -4.11256 2.37679 0.549884 0
M  V30 31 H -4.23934 0.566117 0.527403 0
M  V30 32 H -3.17772 1.38108 1.71562 0
M  V30 33 H 3.11124 -1.53343 -0.165108 0
M  V30 34 H 3.6233 -0.833824 1.32796 0
M  V30 END ATOM
M  V30 BEGIN BOND
M  V30 1 1 1 2
M  V30 2 1 2 3
M  V30 3 1 3 4
M  V30 4 1 4 5
M  V30 5 1 5 6
M  V30 6 1 6 7
M  V30 7 1 7 8
M  V30 8 1 8 9
M  V30 9 1 8 10
M  V30 10 1 10 11
M  V30 11 1 3 12
M  V30 12 1 9 4
M  V30 13 1 1 13
M  V30 14 1 1 14
M  V30 15 1 2 15
M  V30 16 1 2 16
M  V30 17 1 3 17
M  V30 18 1 4 18
M  V30 19 1 5 19
M  V30 20 1 5 20
M  V30 21 1 6 21
M  V30 22 1 6 22
M  V30 23 1 7 23
M  V30 24 1 7 24
M  V30 25 1 8 25
M  V30 26 1 9 26
M  V30 27 1 9 27
M  V30 28 1 10 28
M  V30 29 1 10 29
M  V30 30 1 11 30
M  V30 31 1 11 31
M  V30 32 1 11 32
M  V30 33 1 12 33
M  V30 34 1 12 34
M  V30 END BOND
M  V30 END CTAB
M  END
