
     RDKit          3D

  0  0  0  0  0  0  0  0  0  0999 V3000
M  V30 BEGIN CTAB
M  V30 COUNTS 28 29 0 0 0
M  V30 BEGIN ATOM
M  V30 1 C -2.08044 -1.80948 -1.29942 0
M  V30 2 C -2.46584 -0.651618 -0.395121 0
M  V30 3 C -1.75745 -0.392855 0.749776 0
M  V30 4 S -2.57885 0.964954 1.37141 0
M  V30 5 C -3.77215 1.12755 0.14638 0
M  V30 6 N -4.8331 2.10471 0.0360818 0
M  V30 7 N -3.47011 0.135044 -0.662069 0
M  V30 8 S -0.373667 -1.1788 1.4663 0
M  V30 9 O -0.509858 -1.02217 2.95834 0
M  V30 10 O -0.360801 -2.65108 1.18695 0
M  V30 11 C 1.12634 -0.481246 0.891755 0
M  V30 12 C 1.73561 0.579782 1.53221 0
M  V30 13 C 2.91812 1.1204 1.06886 0
M  V30 14 C 3.55083 0.627028 -0.0584128 0
M  V30 15 N 4.76523 1.18629 -0.529658 0
M  V30 16 C 2.94063 -0.437526 -0.701981 0
M  V30 17 C 1.75428 -0.977318 -0.234223 0
M  V30 18 H -2.86709 -2.02949 -2.04214 0
M  V30 19 H -1.19377 -1.45337 -1.85586 0
M  V30 20 H -1.91691 -2.72658 -0.721385 0
M  V30 21 H -4.77504 2.72382 -0.800065 0
M  V30 22 H -5.58697 2.18108 0.731503 0
M  V30 23 H 1.24686 0.970529 2.41385 0
M  V30 24 H 3.38873 1.94889 1.5736 0
M  V30 25 H 5.61556 1.22253 0.0628494 0
M  V30 26 H 4.81737 1.57261 -1.49043 0
M  V30 27 H 3.42098 -0.839288 -1.58833 0
M  V30 28 H 1.2615 -1.81439 -0.728534 0
M  V30 END ATOM
M  V30 BEGIN BOND
M  V30 1 1 1 2
M  V30 2 2 2 3
M  V30 3 1 3 4
M  V30 4 1 4 5
M  V30 5 1 5 6
M  V30 6 2 5 7
M  V30 7 1 3 8
M  V30 8 2 8 9
M  V30 9 2 8 10
M  V30 10 1 8 11
M  V30 11 2 11 12
M  V30 12 1 12 13
M  V30 13 2 13 14
M  V30 14 1 14 15
M  V30 15 1 14 16
M  V30 16 2 16 17
M  V30 17 1 7 2
M  V30 18 1 17 11
M  V30 19 1 1 18
M  V30 20 1 1 19
M  V30 21 1 1 20
M  V30 22 1 6 21
M  V30 23 1 6 22
M  V30 24 1 12 23
M  V30 25 1 13 24
M  V30 26 1 15 25
M  V30 27 1 15 26
M  V30 28 1 16 27
M  V30 29 1 17 28
M  V30 END BOND
M  V30 END CTAB
M  END
