
     RDKit          3D

  0  0  0  0  0  0  0  0  0  0999 V3000
M  V30 BEGIN CTAB
M  V30 COUNTS 23 23 0 0 0
M  V30 BEGIN ATOM
M  V30 1 C -2.40535 -1.20323 0.169381 0
M  V30 2 O -1.4702 -0.792587 -0.842974 0
M  V30 3 C -0.440935 0.0283756 -0.411444 0
M  V30 4 C -0.675614 1.39479 -0.424543 0
M  V30 5 N -1.93571 1.88021 -0.871668 0
M  V30 6 C 0.313402 2.25607 -0.00527628 0
M  V30 7 C 1.52025 1.74415 0.420395 0
M  V30 8 C 1.72624 0.384534 0.42278 0
M  V30 9 C 0.74182 -0.52138 0.00245343 0
M  V30 10 C 1.00481 -1.94496 0.0134548 0
M  V30 11 O 2.12759 -2.349 0.409499 0
M  V30 12 O 0.085858 -2.86494 -0.388573 0
M  V30 13 N 2.95868 -0.162756 0.856135 0
M  V30 14 H -1.8521 -1.32459 1.1225 0
M  V30 15 H -2.95566 -2.1058 -0.122406 0
M  V30 16 H -3.12552 -0.336302 0.240005 0
M  V30 17 H -2.52068 2.53843 -0.316603 0
M  V30 18 H -2.26764 1.5463 -1.803 0
M  V30 19 H 0.139324 3.33916 -0.0111715 0
M  V30 20 H 2.30669 2.43351 0.754292 0
M  V30 21 H -0.0925498 -3.18862 -1.31819 0
M  V30 22 H 3.01327 -0.519253 1.84176 0
M  V30 23 H 3.80404 -0.232131 0.263194 0
M  V30 END ATOM
M  V30 BEGIN BOND
M  V30 1 1 1 2
M  V30 2 1 2 3
M  V30 3 2 3 4
M  V30 4 1 4 5
M  V30 5 1 4 6
M  V30 6 2 6 7
M  V30 7 1 7 8
M  V30 8 2 8 9
M  V30 9 1 9 10
M  V30 10 2 10 11
M  V30 11 1 10 12
M  V30 12 1 8 13
M  V30 13 1 9 3
M  V30 14 1 1 14
M  V30 15 1 1 15
M  V30 16 1 1 16
M  V30 17 1 5 17
M  V30 18 1 5 18
M  V30 19 1 6 19
M  V30 20 1 7 20
M  V30 21 1 12 21
M  V30 22 1 13 22
M  V30 23 1 13 23
M  V30 END BOND
M  V30 END CTAB
M  END
