
     RDKit          3D

  0  0  0  0  0  0  0  0  0  0999 V3000
M  V30 BEGIN CTAB
M  V30 COUNTS 74 79 0 0 0
M  V30 BEGIN ATOM
M  V30 1 N -1.31125 -4.36178 2.8864 0
M  V30 2 C -1.96947 -3.35274 2.08257 0
M  V30 3 C -1.61698 -3.57307 0.637228 0
M  V30 4 C -1.56544 -2.26636 -0.150364 0
M  V30 5 C -2.57737 -1.34488 0.444176 0
M  V30 6 C -2.04441 -0.864351 1.79371 0
M  V30 7 C -1.40536 -2.01166 2.50534 0
M  V30 8 N -3.0424 -0.316397 -0.407069 0
M  V30 9 C -2.35051 0.807451 -0.916932 0
M  V30 10 N -1.08945 1.04394 -0.640712 0
M  V30 11 C -0.374244 2.08151 -1.03951 0
M  V30 12 N 0.944517 2.42703 -0.751067 0
M  V30 13 C 1.87978 1.64989 -0.0556063 0
M  V30 14 C 3.16487 2.21683 0.0955424 0
M  V30 15 C 4.17125 1.54579 0.71304 0
M  V30 16 C 4.02466 0.263974 1.24262 0
M  V30 17 C 2.76944 -0.266239 1.0904 0
M  V30 18 C 1.71875 0.417045 0.45109 0
M  V30 19 C 5.1471 -0.354354 1.91361 0
M  V30 20 O 6.12364 0.433842 2.23129 0
M  V30 21 N 5.33771 -1.69452 2.26952 0
M  V30 22 C 4.50144 -2.82206 2.00782 0
M  V30 23 C 5.36767 -4.09508 1.92785 0
M  V30 24 C 6.02126 -4.42623 3.23827 0
M  V30 25 C 6.2915 -3.13515 3.98479 0
M  V30 26 C 6.56637 -2.0037 3.03637 0
M  V30 27 C -1.07196 3.01431 -1.84951 0
M  V30 28 N -0.695456 4.16092 -2.43757 0
M  V30 29 C -1.74103 4.66865 -3.10775 0
M  V30 30 N -2.80005 3.82741 -2.94178 0
M  V30 31 C -2.41623 2.79842 -2.17031 0
M  V30 32 N -3.03063 1.71022 -1.70365 0
M  V30 33 C -4.09914 4.01523 -3.50021 0
M  V30 34 C -4.2548 4.07651 -4.88591 0
M  V30 35 C -5.46615 4.29017 -5.48305 0
M  V30 36 C -6.54547 4.44356 -4.67033 0
M  V30 37 N -7.813 4.69428 -5.28816 0
M  V30 38 C -6.44764 4.38847 -3.29152 0
M  V30 39 C -5.20269 4.17025 -2.69322 0
M  V30 40 H -1.94731 -4.68914 3.66066 0
M  V30 41 H -0.409977 -3.9744 3.28098 0
M  V30 42 H -3.05412 -3.42744 2.27554 0
M  V30 43 H -2.466 -4.1628 0.194101 0
M  V30 44 H -0.700109 -4.15873 0.57511 0
M  V30 45 H -1.78002 -2.47216 -1.22703 0
M  V30 46 H -0.560179 -1.8556 -0.0462572 0
M  V30 47 H -3.49051 -2.00574 0.675067 0
M  V30 48 H -2.88783 -0.399285 2.36991 0
M  V30 49 H -1.2804 -0.098961 1.60028 0
M  V30 50 H -1.5693 -1.8813 3.61165 0
M  V30 51 H -0.299218 -2.08025 2.38641 0
M  V30 52 H -4.07192 -0.409492 -0.714798 0
M  V30 53 H 1.28332 3.38519 -1.07816 0
M  V30 54 H 3.37851 3.23225 -0.288875 0
M  V30 55 H 5.17072 2.02406 0.816959 0
M  V30 56 H 2.54014 -1.22894 1.49646 0
M  V30 57 H 0.774149 -0.0668222 0.385203 0
M  V30 58 H 4.14013 -2.70425 0.934068 0
M  V30 59 H 3.64049 -2.95618 2.64417 0
M  V30 60 H 4.72593 -4.91994 1.54687 0
M  V30 61 H 6.14653 -3.93425 1.14069 0
M  V30 62 H 7.02018 -4.87108 2.99335 0
M  V30 63 H 5.42134 -5.1367 3.83717 0
M  V30 64 H 5.43118 -2.9445 4.64684 0
M  V30 65 H 7.21882 -3.30108 4.59349 0
M  V30 66 H 7.35893 -2.2174 2.2983 0
M  V30 67 H 6.86679 -1.10644 3.64325 0
M  V30 68 H -1.80412 5.57696 -3.69427 0
M  V30 69 H -3.34846 3.94677 -5.46335 0
M  V30 70 H -5.53763 4.32802 -6.55372 0
M  V30 71 H -8.10558 5.67768 -5.45312 0
M  V30 72 H -8.46097 3.93925 -5.58455 0
M  V30 73 H -7.332 4.5157 -2.73629 0
M  V30 74 H -5.11039 4.1199 -1.60498 0
M  V30 END ATOM
M  V30 BEGIN BOND
M  V30 1 1 1 2
M  V30 2 1 2 3
M  V30 3 1 3 4
M  V30 4 1 4 5
M  V30 5 1 5 6
M  V30 6 1 6 7
M  V30 7 1 5 8
M  V30 8 1 8 9
M  V30 9 2 9 10
M  V30 10 1 10 11
M  V30 11 1 11 12
M  V30 12 1 12 13
M  V30 13 2 13 14
M  V30 14 1 14 15
M  V30 15 2 15 16
M  V30 16 1 16 17
M  V30 17 2 17 18
M  V30 18 1 16 19
M  V30 19 2 19 20
M  V30 20 1 19 21
M  V30 21 1 21 22
M  V30 22 1 22 23
M  V30 23 1 23 24
M  V30 24 1 24 25
M  V30 25 1 25 26
M  V30 26 2 11 27
M  V30 27 1 27 28
M  V30 28 2 28 29
M  V30 29 1 29 30
M  V30 30 1 30 31
M  V30 31 2 31 32
M  V30 32 1 30 33
M  V30 33 2 33 34
M  V30 34 1 34 35
M  V30 35 2 35 36
M  V30 36 1 36 37
M  V30 37 1 36 38
M  V30 38 2 38 39
M  V30 39 1 7 2
M  V30 40 1 32 9
M  V30 41 1 39 33
M  V30 42 1 18 13
M  V30 43 1 26 21
M  V30 44 1 31 27
M  V30 45 1 1 40
M  V30 46 1 1 41
M  V30 47 1 2 42
M  V30 48 1 3 43
M  V30 49 1 3 44
M  V30 50 1 4 45
M  V30 51 1 4 46
M  V30 52 1 5 47
M  V30 53 1 6 48
M  V30 54 1 6 49
M  V30 55 1 7 50
M  V30 56 1 7 51
M  V30 57 1 8 52
M  V30 58 1 12 53
M  V30 59 1 14 54
M  V30 60 1 15 55
M  V30 61 1 17 56
M  V30 62 1 18 57
M  V30 63 1 22 58
M  V30 64 1 22 59
M  V30 65 1 23 60
M  V30 66 1 23 61
M  V30 67 1 24 62
M  V30 68 1 24 63
M  V30 69 1 25 64
M  V30 70 1 25 65
M  V30 71 1 26 66
M  V30 72 1 26 67
M  V30 73 1 29 68
M  V30 74 1 34 69
M  V30 75 1 35 70
M  V30 76 1 37 71
M  V30 77 1 37 72
M  V30 78 1 38 73
M  V30 79 1 39 74
M  V30 END BOND
M  V30 END CTAB
M  END
