
     RDKit          3D

  0  0  0  0  0  0  0  0  0  0999 V3000
M  V30 BEGIN CTAB
M  V30 COUNTS 30 31 0 0 0
M  V30 BEGIN ATOM
M  V30 1 C -3.15247 1.15669 0.928483 0
M  V30 2 C -2.6176 -0.127765 0.27772 0
M  V30 3 C -3.49494 -0.376148 -0.925854 0
M  V30 4 O -1.28937 0.0927904 -0.0296675 0
M  V30 5 C -0.163475 -0.498829 0.42959 0
M  V30 6 C 1.08663 -0.109666 -0.0276491 0
M  V30 7 C 1.23086 0.894026 -0.966904 0
M  V30 8 N 0.0658159 1.53366 -1.46749 0
M  V30 9 N 2.46758 1.22241 -1.36692 0
M  V30 10 C 3.56079 0.609128 -0.885091 0
M  V30 11 N 4.85038 0.996227 -1.34356 0
M  V30 12 N 3.42654 -0.35214 0.0141609 0
M  V30 13 C 2.21872 -0.722264 0.450519 0
M  V30 14 C 2.14035 -1.74072 1.39828 0
M  V30 15 C 0.909626 -2.12992 1.85404 0
M  V30 16 C -0.241676 -1.50228 1.36346 0
M  V30 17 H -2.31768 1.58771 1.51359 0
M  V30 18 H -4.01996 0.921098 1.58581 0
M  V30 19 H -3.43271 1.85281 0.137857 0
M  V30 20 H -2.79277 -0.924683 1.02793 0
M  V30 21 H -4.3747 -0.988859 -0.702126 0
M  V30 22 H -2.91467 -0.852717 -1.75964 0
M  V30 23 H -3.8283 0.602829 -1.32811 0
M  V30 24 H -0.356866 2.30337 -0.904278 0
M  V30 25 H -0.353731 1.24794 -2.36273 0
M  V30 26 H 5.47987 1.52876 -0.72215 0
M  V30 27 H 5.17843 0.755211 -2.29534 0
M  V30 28 H 3.0686 -2.19637 1.74722 0
M  V30 29 H 0.83355 -2.90597 2.57748 0
M  V30 30 H -1.16685 -1.87633 1.78139 0
M  V30 END ATOM
M  V30 BEGIN BOND
M  V30 1 1 1 2
M  V30 2 1 2 3
M  V30 3 1 2 4
M  V30 4 1 4 5
M  V30 5 2 5 6
M  V30 6 1 6 7
M  V30 7 1 7 8
M  V30 8 2 7 9
M  V30 9 1 9 10
M  V30 10 1 10 11
M  V30 11 2 10 12
M  V30 12 1 12 13
M  V30 13 2 13 14
M  V30 14 1 14 15
M  V30 15 2 15 16
M  V30 16 1 16 5
M  V30 17 1 13 6
M  V30 18 1 1 17
M  V30 19 1 1 18
M  V30 20 1 1 19
M  V30 21 1 2 20
M  V30 22 1 3 21
M  V30 23 1 3 22
M  V30 24 1 3 23
M  V30 25 1 8 24
M  V30 26 1 8 25
M  V30 27 1 11 26
M  V30 28 1 11 27
M  V30 29 1 14 28
M  V30 30 1 15 29
M  V30 31 1 16 30
M  V30 END BOND
M  V30 END CTAB
M  END
