
     RDKit          3D

  0  0  0  0  0  0  0  0  0  0999 V3000
M  V30 BEGIN CTAB
M  V30 COUNTS 38 38 0 0 0
M  V30 BEGIN ATOM
M  V30 1 C -5.27174 -0.0744031 -0.0539333 0
M  V30 2 C -3.92235 0.582929 0.286478 0
M  V30 3 C -2.88976 -0.512963 0.115612 0
M  V30 4 C -1.51662 -0.103754 0.400748 0
M  V30 5 O -0.941713 -0.604834 1.41622 0
M  V30 6 N -0.734297 0.811176 -0.347183 0
M  V30 7 C 0.607552 1.15989 0.00439604 0
M  V30 8 C 1.62859 0.161285 -0.311826 0
M  V30 9 C 1.31162 -0.993289 -0.989987 0
M  V30 10 C 2.3098 -1.91834 -1.26936 0
M  V30 11 C 3.60329 -1.66013 -0.860044 0
M  V30 12 C 3.91405 -0.507743 -0.184519 0
M  V30 13 C 2.92277 0.413002 0.0940828 0
M  V30 14 S 5.54177 -0.170223 0.338359 0
M  V30 15 O 6.29966 -1.4148 0.690603 0
M  V30 16 O 5.51459 0.69095 1.59007 0
M  V30 17 N 6.44944 0.683504 -0.836752 0
M  V30 18 N -3.25643 -1.60377 1.04018 0
M  V30 19 C -3.73847 1.65905 -0.757411 0
M  V30 20 H -5.62588 -0.629034 0.815216 0
M  V30 21 H -5.12527 -0.6618 -0.965963 0
M  V30 22 H -5.99187 0.745529 -0.320788 0
M  V30 23 H -3.939 0.968497 1.31696 0
M  V30 24 H -2.99958 -0.924937 -0.908666 0
M  V30 25 H -1.13991 1.25923 -1.20549 0
M  V30 26 H 0.598574 1.40711 1.094 0
M  V30 27 H 0.905117 2.10868 -0.514623 0
M  V30 28 H 0.281009 -1.13122 -1.28083 0
M  V30 29 H 2.04459 -2.80347 -1.79402 0
M  V30 30 H 4.38402 -2.37521 -1.07434 0
M  V30 31 H 3.19994 1.32666 0.636176 0
M  V30 32 H 5.99869 0.521823 -1.76648 0
M  V30 33 H 6.42061 1.72254 -0.692924 0
M  V30 34 H -2.71419 -1.45869 1.92012 0
M  V30 35 H -2.88537 -2.48166 0.603815 0
M  V30 36 H -3.46621 1.16703 -1.71068 0
M  V30 37 H -3.04741 2.45404 -0.437042 0
M  V30 38 H -4.72962 2.18733 -0.920877 0
M  V30 END ATOM
M  V30 BEGIN BOND
M  V30 1 1 1 2
M  V30 2 1 2 3
M  V30 3 1 3 4
M  V30 4 2 4 5
M  V30 5 1 4 6
M  V30 6 1 6 7
M  V30 7 1 7 8
M  V30 8 2 8 9
M  V30 9 1 9 10
M  V30 10 2 10 11
M  V30 11 1 11 12
M  V30 12 2 12 13
M  V30 13 1 12 14
M  V30 14 2 14 15
M  V30 15 2 14 16
M  V30 16 1 14 17
M  V30 17 1 3 18
M  V30 18 1 2 19
M  V30 19 1 13 8
M  V30 20 1 1 20
M  V30 21 1 1 21
M  V30 22 1 1 22
M  V30 23 1 2 23
M  V30 24 1 3 24
M  V30 25 1 6 25
M  V30 26 1 7 26
M  V30 27 1 7 27
M  V30 28 1 9 28
M  V30 29 1 10 29
M  V30 30 1 11 30
M  V30 31 1 13 31
M  V30 32 1 17 32
M  V30 33 1 17 33
M  V30 34 1 18 34
M  V30 35 1 18 35
M  V30 36 1 19 36
M  V30 37 1 19 37
M  V30 38 1 19 38
M  V30 END BOND
M  V30 END CTAB
M  END
