
     RDKit          3D

  0  0  0  0  0  0  0  0  0  0999 V3000
M  V30 BEGIN CTAB
M  V30 COUNTS 62 65 0 0 0
M  V30 BEGIN ATOM
M  V30 1 C -4.59407 3.53924 1.81414 0
M  V30 2 N -3.67305 2.46411 1.62678 0
M  V30 3 C -4.45569 1.25385 1.32453 0
M  V30 4 C -3.50548 0.1043 1.36036 0
M  V30 5 N -2.31465 0.260993 0.635896 0
M  V30 6 C -1.83614 1.53021 0.348627 0
M  V30 7 C -2.81594 2.66771 0.491292 0
M  V30 8 C -1.94923 -0.84582 -0.17748 0
M  V30 9 C -1.7214 -2.0198 0.759258 0
M  V30 10 C -1.5222 -3.31275 0.0437753 0
M  V30 11 C -2.46363 -3.53542 -1.09268 0
M  V30 12 C -3.56993 -2.53307 -1.11465 0
M  V30 13 C -3.10551 -1.11774 -1.12539 0
M  V30 14 C -0.731822 -0.672463 -1.00409 0
M  V30 15 N 0.485286 -0.405734 -0.280441 0
M  V30 16 C 1.67424 -0.244233 -1.03956 0
M  V30 17 C 2.85638 0.0109355 -0.384713 0
M  V30 18 C 4.00938 0.166341 -1.12092 0
M  V30 19 N 3.96532 0.0676391 -2.4581 0
M  V30 20 C 2.80706 -0.181666 -3.08988 0
M  V30 21 N 1.6947 -0.331246 -2.37383 0
M  V30 22 N 2.81483 -0.275834 -4.4958 0
M  V30 23 C 5.30374 0.441143 -0.472928 0
M  V30 24 C 5.62279 -0.382729 0.756966 0
M  V30 25 C 6.29752 0.874875 1.31802 0
M  V30 26 C 5.32139 1.66746 0.442881 0
M  V30 27 N 6.14145 1.06909 2.72645 0
M  V30 28 H -4.77544 4.11731 0.908884 0
M  V30 29 H -4.27163 4.19873 2.66444 0
M  V30 30 H -5.59203 3.13663 2.14899 0
M  V30 31 H -5.23364 1.0788 2.11335 0
M  V30 32 H -4.94476 1.40197 0.349889 0
M  V30 33 H -3.23686 -0.0589497 2.44635 0
M  V30 34 H -4.09091 -0.818575 1.09498 0
M  V30 35 H -0.989016 1.77311 1.05865 0
M  V30 36 H -1.37958 1.63956 -0.660991 0
M  V30 37 H -3.42874 2.78917 -0.416606 0
M  V30 38 H -2.27831 3.63136 0.649759 0
M  V30 39 H -2.54402 -2.08242 1.51805 0
M  V30 40 H -0.804221 -1.79178 1.33757 0
M  V30 41 H -0.491478 -3.46332 -0.309003 0
M  V30 42 H -1.71423 -4.1351 0.793082 0
M  V30 43 H -2.94291 -4.55216 -1.05015 0
M  V30 44 H -1.95669 -3.51166 -2.09058 0
M  V30 45 H -4.32299 -2.74293 -0.318564 0
M  V30 46 H -4.13533 -2.69774 -2.079 0
M  V30 47 H -2.82813 -0.862596 -2.18843 0
M  V30 48 H -3.98591 -0.462583 -0.90953 0
M  V30 49 H -0.908388 0.0444231 -1.82625 0
M  V30 50 H -0.546057 -1.65486 -1.53245 0
M  V30 51 H 0.48795 -0.335542 0.742852 0
M  V30 52 H 2.92388 0.0963565 0.695063 0
M  V30 53 H 2.44658 -1.13806 -4.94214 0
M  V30 54 H 3.1838 0.508323 -5.05239 0
M  V30 55 H 6.16041 0.538252 -1.18007 0
M  V30 56 H 4.7126 -0.677984 1.28982 0
M  V30 57 H 6.323 -1.23109 0.589035 0
M  V30 58 H 7.34997 0.889047 0.929284 0
M  V30 59 H 5.76406 2.56715 0.00546001 0
M  V30 60 H 4.37677 1.80038 1.01717 0
M  V30 61 H 6.99525 1.55371 3.12784 0
M  V30 62 H 5.94164 0.19367 3.25966 0
M  V30 END ATOM
M  V30 BEGIN BOND
M  V30 1 1 1 2
M  V30 2 1 2 3
M  V30 3 1 3 4
M  V30 4 1 4 5
M  V30 5 1 5 6
M  V30 6 1 6 7
M  V30 7 1 5 8
M  V30 8 1 8 9
M  V30 9 1 9 10
M  V30 10 1 10 11
M  V30 11 1 11 12
M  V30 12 1 12 13
M  V30 13 1 8 14
M  V30 14 1 14 15
M  V30 15 1 15 16
M  V30 16 2 16 17
M  V30 17 1 17 18
M  V30 18 2 18 19
M  V30 19 1 19 20
M  V30 20 2 20 21
M  V30 21 1 20 22
M  V30 22 1 18 23
M  V30 23 1 23 24
M  V30 24 1 24 25
M  V30 25 1 25 26
M  V30 26 1 25 27
M  V30 27 1 7 2
M  V30 28 1 13 8
M  V30 29 1 21 16
M  V30 30 1 26 23
M  V30 31 1 1 28
M  V30 32 1 1 29
M  V30 33 1 1 30
M  V30 34 1 3 31
M  V30 35 1 3 32
M  V30 36 1 4 33
M  V30 37 1 4 34
M  V30 38 1 6 35
M  V30 39 1 6 36
M  V30 40 1 7 37
M  V30 41 1 7 38
M  V30 42 1 9 39
M  V30 43 1 9 40
M  V30 44 1 10 41
M  V30 45 1 10 42
M  V30 46 1 11 43
M  V30 47 1 11 44
M  V30 48 1 12 45
M  V30 49 1 12 46
M  V30 50 1 13 47
M  V30 51 1 13 48
M  V30 52 1 14 49
M  V30 53 1 14 50
M  V30 54 1 15 51
M  V30 55 1 17 52
M  V30 56 1 22 53
M  V30 57 1 22 54
M  V30 58 1 23 55
M  V30 59 1 24 56
M  V30 60 1 24 57
M  V30 61 1 25 58
M  V30 62 1 26 59
M  V30 63 1 26 60
M  V30 64 1 27 61
M  V30 65 1 27 62
M  V30 END BOND
M  V30 END CTAB
M  END
