
     RDKit          3D

  0  0  0  0  0  0  0  0  0  0999 V3000
M  V30 BEGIN CTAB
M  V30 COUNTS 24 24 0 0 0
M  V30 BEGIN ATOM
M  V30 1 N 4.7982 0.111515 0.696567 0
M  V30 2 C 3.98099 0.297793 -0.10154 0
M  V30 3 C 2.9298 0.53238 -1.1212 0
M  V30 4 C 1.59399 0.313185 -0.540639 0
M  V30 5 C 0.887759 1.33171 0.0500101 0
M  V30 6 C -0.370898 1.0908 0.589884 0
M  V30 7 N -1.09632 2.13519 1.19612 0
M  V30 8 C -0.896663 -0.171988 0.525562 0
M  V30 9 C -0.203283 -1.1892 -0.0586353 0
M  V30 10 C 1.0489 -0.943192 -0.594148 0
M  V30 11 N -0.686963 -2.51525 -0.158802 0
M  V30 12 O -2.15776 -0.486169 1.04833 0
M  V30 13 C -3.31827 -0.380729 0.245724 0
M  V30 14 F -3.88852 -1.64237 0.175061 0
M  V30 15 F -4.21288 0.517814 0.769118 0
M  V30 16 H 3.03778 1.56675 -1.52372 0
M  V30 17 H 3.09111 -0.233384 -1.90697 0
M  V30 18 H 1.33315 2.31372 0.0826131 0
M  V30 19 H -0.878734 3.13848 0.971571 0
M  V30 20 H -1.85874 1.97722 1.87399 0
M  V30 21 H 1.60467 -1.76089 -1.06298 0
M  V30 22 H -1.0744 -2.974 0.677313 0
M  V30 23 H -0.641352 -2.99548 -1.06848 0
M  V30 24 H -3.02156 -0.0339067 -0.764745 0
M  V30 END ATOM
M  V30 BEGIN BOND
M  V30 1 3 1 2
M  V30 2 1 2 3
M  V30 3 1 3 4
M  V30 4 2 4 5
M  V30 5 1 5 6
M  V30 6 1 6 7
M  V30 7 2 6 8
M  V30 8 1 8 9
M  V30 9 2 9 10
M  V30 10 1 9 11
M  V30 11 1 8 12
M  V30 12 1 12 13
M  V30 13 1 13 14
M  V30 14 1 13 15
M  V30 15 1 10 4
M  V30 16 1 3 16
M  V30 17 1 3 17
M  V30 18 1 5 18
M  V30 19 1 7 19
M  V30 20 1 7 20
M  V30 21 1 10 21
M  V30 22 1 11 22
M  V30 23 1 11 23
M  V30 24 1 13 24
M  V30 END BOND
M  V30 END CTAB
M  END
