
     RDKit          3D

  0  0  0  0  0  0  0  0  0  0999 V3000
M  V30 BEGIN CTAB
M  V30 COUNTS 42 45 0 0 0
M  V30 BEGIN ATOM
M  V30 1 N -2.45704 4.59709 -0.345836 0
M  V30 2 C -2.1716 3.2187 -0.264194 0
M  V30 3 N -0.954012 2.72877 -0.134692 0
M  V30 4 C -0.762685 1.37677 -0.0519509 0
M  V30 5 N 0.479214 0.929533 0.0913799 0
M  V30 6 C 0.717387 -0.369627 0.189013 0
M  V30 7 C 2.13758 -0.844826 0.372357 0
M  V30 8 C 3.08919 0.19787 -0.0368817 0
M  V30 9 C 3.36802 1.25891 0.791073 0
M  V30 10 C 4.28789 2.2261 0.399068 0
M  V30 11 C 4.92246 2.13935 -0.801163 0
M  V30 12 C 4.64552 1.07267 -1.64205 0
M  V30 13 C 3.72567 0.104153 -1.25226 0
M  V30 14 C -0.323037 -1.26148 0.141543 0
M  V30 15 C 0.0929044 -2.69903 0.301975 0
M  V30 16 C -1.11559 -3.35812 0.947387 0
M  V30 17 C -2.17097 -3.25043 -0.125535 0
M  V30 18 C -2.78218 -1.83455 -0.0805884 0
M  V30 19 C -1.66603 -0.894486 -0.00947054 0
M  V30 20 C -1.84599 0.497488 -0.104785 0
M  V30 21 C -3.08642 1.02654 -0.238215 0
M  V30 22 N -4.24252 0.246814 -0.286862 0
M  V30 23 N -3.24118 2.38424 -0.317121 0
M  V30 24 H -2.75899 5.00498 -1.24311 0
M  V30 25 H -2.36382 5.19801 0.485006 0
M  V30 26 H 2.2624 -1.73498 -0.308395 0
M  V30 27 H 2.30805 -1.19743 1.41993 0
M  V30 28 H 2.9041 1.40321 1.75539 0
M  V30 29 H 4.50916 3.06131 1.04635 0
M  V30 30 H 5.64198 2.88652 -1.10871 0
M  V30 31 H 5.1534 1.00566 -2.59848 0
M  V30 32 H 3.56426 -0.702981 -1.97049 0
M  V30 33 H 0.157454 -3.1174 -0.720919 0
M  V30 34 H 1.01064 -2.81435 0.862293 0
M  V30 35 H -0.918374 -4.41157 1.22131 0
M  V30 36 H -1.34663 -2.74279 1.83974 0
M  V30 37 H -1.72102 -3.45249 -1.12639 0
M  V30 38 H -2.96467 -3.98222 0.0834225 0
M  V30 39 H -3.39292 -1.92849 0.809801 0
M  V30 40 H -3.30942 -1.87934 -1.06535 0
M  V30 41 H -4.76124 -0.101155 0.535033 0
M  V30 42 H -4.62093 0.0130445 -1.23134 0
M  V30 END ATOM
M  V30 BEGIN BOND
M  V30 1 1 1 2
M  V30 2 2 2 3
M  V30 3 1 3 4
M  V30 4 2 4 5
M  V30 5 1 5 6
M  V30 6 1 6 7
M  V30 7 1 7 8
M  V30 8 2 8 9
M  V30 9 1 9 10
M  V30 10 2 10 11
M  V30 11 1 11 12
M  V30 12 2 12 13
M  V30 13 2 6 14
M  V30 14 1 14 15
M  V30 15 1 15 16
M  V30 16 1 16 17
M  V30 17 1 17 18
M  V30 18 1 18 19
M  V30 19 2 19 20
M  V30 20 1 20 21
M  V30 21 1 21 22
M  V30 22 2 21 23
M  V30 23 1 23 2
M  V30 24 1 20 4
M  V30 25 1 13 8
M  V30 26 1 19 14
M  V30 27 1 1 24
M  V30 28 1 1 25
M  V30 29 1 7 26
M  V30 30 1 7 27
M  V30 31 1 9 28
M  V30 32 1 10 29
M  V30 33 1 11 30
M  V30 34 1 12 31
M  V30 35 1 13 32
M  V30 36 1 15 33
M  V30 37 1 15 34
M  V30 38 1 16 35
M  V30 39 1 16 36
M  V30 40 1 17 37
M  V30 41 1 17 38
M  V30 42 1 18 39
M  V30 43 1 18 40
M  V30 44 1 22 41
M  V30 45 1 22 42
M  V30 END BOND
M  V30 END CTAB
M  END
