
     RDKit          3D

  0  0  0  0  0  0  0  0  0  0999 V3000
M  V30 BEGIN CTAB
M  V30 COUNTS 57 60 0 0 0
M  V30 BEGIN ATOM
M  V30 1 C -6.79279 -2.66916 -1.58498 0
M  V30 2 O -5.79817 -2.67465 -0.584688 0
M  V30 3 C -4.46469 -2.58033 -0.8603 0
M  V30 4 O -4.08455 -2.49388 -2.06369 0
M  V30 5 C -3.53289 -2.57076 0.272239 0 CFG=2
M  V30 6 C -4.16748 -2.01809 1.51985 0
M  V30 7 N -2.28558 -2.01485 0.0230937 0
M  V30 8 P -2.32354 -0.26023 -0.452297 0
M  V30 9 O -3.41815 0.0100458 -1.41762 0
M  V30 10 O -0.84155 -0.176298 -1.09465 0
M  V30 11 C 0.21207 0.458506 -0.556632 0
M  V30 12 C 1.21982 -0.631812 -0.360733 0
M  V30 13 C 0.827103 -1.54275 0.831431 0
M  V30 14 C 2.25847 -0.930741 0.528511 0
M  V30 15 C 3.48106 -0.765831 0.995362 0
M  V30 16 N 4.31924 0.211727 0.383341 0
M  V30 17 C 4.04941 1.42695 -0.0382013 0
M  V30 18 N 5.19095 2.06191 -0.431982 0
M  V30 19 C 6.19724 1.20307 -0.262957 0
M  V30 20 C 5.6673 0.0403167 0.243001 0
M  V30 21 N 6.48495 -1.02218 0.421071 0
M  V30 22 C 7.8182 -0.951193 0.127351 0
M  V30 23 N 8.65074 -2.09304 0.230257 0
M  V30 24 N 8.31271 0.184122 -0.333139 0
M  V30 25 C 7.54001 1.26588 -0.538212 0
M  V30 26 N 8.13788 2.52852 -0.851144 0
M  V30 27 O -2.61536 0.709022 0.933156 0
M  V30 28 C -3.25096 1.94654 0.705665 0
M  V30 29 C -2.63209 3.13817 0.542254 0
M  V30 30 C -3.35227 4.30248 0.301224 0
M  V30 31 C -4.71929 4.25969 0.219307 0
M  V30 32 C -5.33095 3.05884 0.390336 0
M  V30 33 C -4.6523 1.87647 0.641056 0
M  V30 34 H -7.75075 -2.83548 -1.07651 0
M  V30 35 H -6.82883 -1.64257 -2.03981 0
M  V30 36 H -6.6459 -3.44557 -2.3377 0
M  V30 37 H -3.32664 -3.69614 0.463339 0
M  V30 38 H -4.96067 -1.33087 1.24864 0
M  V30 39 H -4.5693 -2.85919 2.08875 0
M  V30 40 H -3.39961 -1.43792 2.11019 0
M  V30 41 H -1.89406 -2.47938 -0.86553 0
M  V30 42 H -0.019075 1.0087 0.388393 0
M  V30 43 H 0.634733 1.22844 -1.24542 0
M  V30 44 H 1.08826 -1.39435 -1.30144 0
M  V30 45 H 0.434756 -1.01293 1.77863 0
M  V30 46 H 0.835493 -2.58823 0.909067 0
M  V30 47 H 3.78609 -1.40693 1.78665 0
M  V30 48 H 3.07279 1.94621 -0.148113 0
M  V30 49 H 9.29901 -2.22507 1.01024 0
M  V30 50 H 8.66232 -2.81138 -0.511272 0
M  V30 51 H 8.95366 2.8243 -0.200836 0
M  V30 52 H 7.87913 3.17785 -1.57989 0
M  V30 53 H -1.55726 3.24864 0.585124 0
M  V30 54 H -2.86012 5.27754 0.170306 0
M  V30 55 H -5.32545 5.15534 0.0253421 0
M  V30 56 H -6.42314 3.01986 0.313654 0
M  V30 57 H -5.18996 0.992663 0.79276 0
M  V30 END ATOM
M  V30 BEGIN BOND
M  V30 1 1 1 2
M  V30 2 1 2 3
M  V30 3 2 3 4
M  V30 4 1 3 5
M  V30 5 1 5 6
M  V30 6 1 5 7
M  V30 7 1 7 8
M  V30 8 2 8 9
M  V30 9 1 8 10
M  V30 10 1 10 11
M  V30 11 1 11 12
M  V30 12 1 12 13
M  V30 13 1 13 14
M  V30 14 2 14 15
M  V30 15 1 15 16
M  V30 16 1 16 17
M  V30 17 2 17 18
M  V30 18 1 18 19
M  V30 19 2 19 20
M  V30 20 1 20 21
M  V30 21 2 21 22
M  V30 22 1 22 23
M  V30 23 1 22 24
M  V30 24 2 24 25
M  V30 25 1 25 26
M  V30 26 1 8 27
M  V30 27 1 27 28
M  V30 28 2 28 29
M  V30 29 1 29 30
M  V30 30 2 30 31
M  V30 31 1 31 32
M  V30 32 2 32 33
M  V30 33 1 14 12
M  V30 34 1 20 16
M  V30 35 1 33 28
M  V30 36 1 25 19
M  V30 37 1 1 34
M  V30 38 1 1 35
M  V30 39 1 1 36
M  V30 40 1 5 37 CFG=1
M  V30 41 1 6 38
M  V30 42 1 6 39
M  V30 43 1 6 40
M  V30 44 1 7 41
M  V30 45 1 11 42
M  V30 46 1 11 43
M  V30 47 1 12 44
M  V30 48 1 13 45
M  V30 49 1 13 46
M  V30 50 1 15 47
M  V30 51 1 17 48
M  V30 52 1 23 49
M  V30 53 1 23 50
M  V30 54 1 26 51
M  V30 55 1 26 52
M  V30 56 1 29 53
M  V30 57 1 30 54
M  V30 58 1 31 55
M  V30 59 1 32 56
M  V30 60 1 33 57
M  V30 END BOND
M  V30 END CTAB
M  END
