
     RDKit          3D

  0  0  0  0  0  0  0  0  0  0999 V3000
M  V30 BEGIN CTAB
M  V30 COUNTS 22 22 0 0 0
M  V30 BEGIN ATOM
M  V30 1 F 3.16479 1.07907 -0.937132 0
M  V30 2 C 2.839 -0.156324 -0.471614 0
M  V30 3 C 1.35478 -0.379168 -0.451779 0
M  V30 4 C 0.784597 -1.4236 -1.15395 0
M  V30 5 C -0.585053 -1.58447 -1.10251 0
M  V30 6 C -1.42028 -0.753765 -0.383589 0
M  V30 7 C -0.801029 0.277063 0.302396 0
M  V30 8 C 0.56435 0.463728 0.270589 0
M  V30 9 N 1.19368 1.53542 0.985621 0
M  V30 10 C -1.62283 1.19535 1.08472 0
M  V30 11 F -2.51889 1.8017 0.192846 0
M  V30 12 F -2.3786 0.580277 2.05338 0
M  V30 13 F -0.870211 2.19437 1.61868 0
M  V30 14 N -2.82536 -0.910318 -0.324554 0
M  V30 15 F 3.26839 -0.303235 0.839137 0
M  V30 16 H 3.33046 -0.923022 -1.10036 0
M  V30 17 H 1.45037 -2.05794 -1.70642 0
M  V30 18 H -1.02494 -2.40714 -1.65673 0
M  V30 19 H 1.37351 2.42493 0.509771 0
M  V30 20 H 1.43414 1.32173 1.98553 0
M  V30 21 H -3.21962 -1.48732 0.442764 0
M  V30 22 H -3.49125 -0.487321 -0.996802 0
M  V30 END ATOM
M  V30 BEGIN BOND
M  V30 1 1 1 2
M  V30 2 1 2 3
M  V30 3 2 3 4
M  V30 4 1 4 5
M  V30 5 2 5 6
M  V30 6 1 6 7
M  V30 7 2 7 8
M  V30 8 1 8 9
M  V30 9 1 7 10
M  V30 10 1 10 11
M  V30 11 1 10 12
M  V30 12 1 10 13
M  V30 13 1 6 14
M  V30 14 1 2 15
M  V30 15 1 8 3
M  V30 16 1 2 16
M  V30 17 1 4 17
M  V30 18 1 5 18
M  V30 19 1 9 19
M  V30 20 1 9 20
M  V30 21 1 14 21
M  V30 22 1 14 22
M  V30 END BOND
M  V30 END CTAB
M  END
