
     RDKit          3D

  0  0  0  0  0  0  0  0  0  0999 V3000
M  V30 BEGIN CTAB
M  V30 COUNTS 61 65 0 0 0
M  V30 BEGIN ATOM
M  V30 1 O 1.58811 -0.645959 1.4543 0
M  V30 2 C 1.12311 -0.638271 0.253366 0
M  V30 3 C -0.320256 -0.485889 0.111943 0
M  V30 4 C -1.24904 -0.347702 1.14222 0
M  V30 5 N -0.896205 -0.33718 2.51223 0
M  V30 6 N -2.48515 -0.231109 0.631854 0
M  V30 7 C -2.40263 -0.287948 -0.705188 0
M  V30 8 C -1.05275 -0.447415 -1.04629 0
M  V30 9 N -0.70618 -0.531541 -2.34118 0
M  V30 10 C -1.58238 -0.471166 -3.32587 0
M  V30 11 C -1.15832 -0.564136 -4.63204 0
M  V30 12 C -2.08191 -0.499495 -5.64245 0
M  V30 13 C -3.43562 -0.341001 -5.34024 0
M  V30 14 C -3.82295 -0.251529 -4.01981 0
M  V30 15 C -2.92486 -0.31241 -2.98229 0
M  V30 16 N -3.30347 -0.224989 -1.69286 0
M  V30 17 C -3.68642 -0.0717897 1.42101 0
M  V30 18 C -4.08445 1.14694 1.87514 0
M  V30 19 C -5.24579 1.26381 2.63188 0
M  V30 20 C -6.02388 0.169473 2.94509 0
M  V30 21 C -5.6202 -1.07869 2.48251 0
M  V30 22 C -4.46665 -1.17064 1.73484 0
M  V30 23 S -7.48936 0.309629 3.89877 0
M  V30 24 O -7.32913 1.55713 4.75379 0
M  V30 25 O -7.69706 -0.888201 4.75275 0
M  V30 26 N -8.78848 0.578259 2.79273 0
M  V30 27 N 2.03962 -0.775366 -0.783088 0
M  V30 28 C 3.44953 -0.912321 -0.558498 0
M  V30 29 C 4.04659 0.269394 0.110519 0
M  V30 30 C 5.51404 0.0681426 0.322933 0
M  V30 31 C 6.11582 -1.04955 -0.0614221 0
M  V30 32 C 7.59802 -1.10377 0.220733 0
M  V30 33 C 8.23299 0.145288 -0.401156 0
M  V30 34 C 7.49663 1.39878 0.00214539 0
M  V30 35 C 6.37132 1.09945 0.969952 0
M  V30 36 H -1.09996 -1.15249 3.15347 0
M  V30 37 H -0.417626 0.472955 2.9617 0
M  V30 38 H -0.114866 -0.68696 -4.88324 0
M  V30 39 H -1.76952 -0.570049 -6.66269 0
M  V30 40 H -4.12705 -0.29529 -6.1715 0
M  V30 41 H -4.87237 -0.128845 -3.79038 0
M  V30 42 H -3.52526 2.03934 1.66756 0
M  V30 43 H -5.5838 2.22775 3.00578 0
M  V30 44 H -6.20822 -1.93064 2.7151 0
M  V30 45 H -4.14504 -2.13401 1.37142 0
M  V30 46 H -8.59729 0.0473404 1.8993 0
M  V30 47 H -8.77813 1.58811 2.53062 0
M  V30 48 H 1.7208 -0.782457 -1.77253 0
M  V30 49 H 3.55414 -1.79849 0.138751 0
M  V30 50 H 3.99987 -1.10397 -1.50707 0
M  V30 51 H 3.55979 0.589661 1.03759 0
M  V30 52 H 3.99492 1.12399 -0.6337 0
M  V30 53 H 5.59699 -1.86945 -0.540252 0
M  V30 54 H 7.78645 -1.08288 1.31136 0
M  V30 55 H 7.98177 -2.01033 -0.276449 0
M  V30 56 H 8.17052 -0.0109498 -1.5006 0
M  V30 57 H 9.30545 0.179479 -0.104315 0
M  V30 58 H 7.00124 1.82563 -0.916474 0
M  V30 59 H 8.1831 2.1755 0.39843 0
M  V30 60 H 6.82776 0.648407 1.88177 0
M  V30 61 H 5.8337 2.02048 1.19801 0
M  V30 END ATOM
M  V30 BEGIN BOND
M  V30 1 2 1 2
M  V30 2 1 2 3
M  V30 3 2 3 4
M  V30 4 1 4 5
M  V30 5 1 4 6
M  V30 6 1 6 7
M  V30 7 2 7 8
M  V30 8 1 8 9
M  V30 9 2 9 10
M  V30 10 1 10 11
M  V30 11 2 11 12
M  V30 12 1 12 13
M  V30 13 2 13 14
M  V30 14 1 14 15
M  V30 15 2 15 16
M  V30 16 1 6 17
M  V30 17 2 17 18
M  V30 18 1 18 19
M  V30 19 2 19 20
M  V30 20 1 20 21
M  V30 21 2 21 22
M  V30 22 1 20 23
M  V30 23 2 23 24
M  V30 24 2 23 25
M  V30 25 1 23 26
M  V30 26 1 2 27
M  V30 27 1 27 28
M  V30 28 1 28 29
M  V30 29 1 29 30
M  V30 30 2 30 31
M  V30 31 1 31 32
M  V30 32 1 32 33
M  V30 33 1 33 34
M  V30 34 1 34 35
M  V30 35 1 8 3
M  V30 36 1 15 10
M  V30 37 1 22 17
M  V30 38 1 35 30
M  V30 39 1 16 7
M  V30 40 1 5 36
M  V30 41 1 5 37
M  V30 42 1 11 38
M  V30 43 1 12 39
M  V30 44 1 13 40
M  V30 45 1 14 41
M  V30 46 1 18 42
M  V30 47 1 19 43
M  V30 48 1 21 44
M  V30 49 1 22 45
M  V30 50 1 26 46
M  V30 51 1 26 47
M  V30 52 1 27 48
M  V30 53 1 28 49
M  V30 54 1 28 50
M  V30 55 1 29 51
M  V30 56 1 29 52
M  V30 57 1 31 53
M  V30 58 1 32 54
M  V30 59 1 32 55
M  V30 60 1 33 56
M  V30 61 1 33 57
M  V30 62 1 34 58
M  V30 63 1 34 59
M  V30 64 1 35 60
M  V30 65 1 35 61
M  V30 END BOND
M  V30 END CTAB
M  END
