
     RDKit          3D

  0  0  0  0  0  0  0  0  0  0999 V3000
M  V30 BEGIN CTAB
M  V30 COUNTS 46 48 0 0 0
M  V30 BEGIN ATOM
M  V30 1 N 2.90414 -0.465778 2.39994 0
M  V30 2 C 2.00816 -0.130802 1.35387 0 CFG=2
M  V30 3 C 0.636854 -0.439142 1.73184 0
M  V30 4 O 0.417101 -1.22116 2.69262 0
M  V30 5 N -0.464425 0.11581 1.05141 0
M  V30 6 C -1.89064 -0.138844 1.29626 0
M  V30 7 C -2.38614 -0.379201 -0.110892 0 CFG=2
M  V30 8 C -1.58189 0.585075 -0.927231 0 CFG=1
M  V30 9 C -0.470214 1.08514 -0.0256574 0
M  V30 10 N -1.05938 -0.062323 -2.11269 0
M  V30 11 C -3.84748 -0.123415 -0.22817 0
M  V30 12 C -4.37095 1.12473 0.0383488 0
M  V30 13 C -5.73751 1.37253 -0.069021 0
M  V30 14 C -6.61796 0.380836 -0.445347 0
M  V30 15 C -6.09475 -0.866853 -0.711778 0
M  V30 16 C -4.7315 -1.11332 -0.604473 0
M  V30 17 C 2.44708 -0.896724 0.0989899 0
M  V30 18 C 3.82506 -0.447528 -0.196039 0
M  V30 19 C 4.91314 -1.09703 0.339626 0
M  V30 20 C 6.21265 -0.694107 0.0772431 0
M  V30 21 C 6.40697 0.403476 -0.75597 0
M  V30 22 C 5.34721 1.06498 -1.29982 0
M  V30 23 C 4.07188 0.643081 -1.02205 0
M  V30 24 H 3.0409 -1.39171 2.64074 0
M  V30 25 H 2.97371 0.220673 3.08537 0
M  V30 26 H 2.13708 0.937328 1.13464 0
M  V30 27 H -2.29938 0.80612 1.68731 0
M  V30 28 H -2.03803 -0.990953 1.96822 0
M  V30 29 H -2.18843 -1.43888 -0.368451 0
M  V30 30 H -2.22541 1.43544 -1.20323 0
M  V30 31 H 0.494186 1.21542 -0.520052 0
M  V30 32 H -0.797262 2.06504 0.43965 0
M  V30 33 H -1.39114 -1.04393 -2.19109 0
M  V30 34 H -1.20237 0.51467 -2.94806 0
M  V30 35 H -3.67587 1.90611 0.335041 0
M  V30 36 H -6.13278 2.35644 0.143286 0
M  V30 37 H -7.68676 0.548312 -0.536348 0
M  V30 38 H -6.79376 -1.64582 -1.00832 0
M  V30 39 H -4.32982 -2.09313 -0.81487 0
M  V30 40 H 1.80412 -0.683019 -0.742986 0
M  V30 41 H 2.43377 -1.99083 0.302228 0
M  V30 42 H 4.79294 -1.95567 0.992569 0
M  V30 43 H 7.02976 -1.22431 0.511997 0
M  V30 44 H 7.41215 0.708239 -0.953636 0
M  V30 45 H 5.50162 1.90576 -1.93788 0
M  V30 46 H 3.20335 1.13925 -1.43258 0
M  V30 END ATOM
M  V30 BEGIN BOND
M  V30 1 1 1 2
M  V30 2 1 2 3
M  V30 3 2 3 4
M  V30 4 1 3 5
M  V30 5 1 5 6
M  V30 6 1 6 7
M  V30 7 1 7 8
M  V30 8 1 8 9
M  V30 9 1 8 10
M  V30 10 1 7 11
M  V30 11 2 11 12
M  V30 12 1 12 13
M  V30 13 2 13 14
M  V30 14 1 14 15
M  V30 15 2 15 16
M  V30 16 1 2 17
M  V30 17 1 17 18
M  V30 18 2 18 19
M  V30 19 1 19 20
M  V30 20 2 20 21
M  V30 21 1 21 22
M  V30 22 2 22 23
M  V30 23 1 9 5
M  V30 24 1 16 11
M  V30 25 1 23 18
M  V30 26 1 1 24
M  V30 27 1 1 25
M  V30 28 1 2 26 CFG=3
M  V30 29 1 6 27
M  V30 30 1 6 28
M  V30 31 1 7 29 CFG=3
M  V30 32 1 8 30 CFG=3
M  V30 33 1 9 31
M  V30 34 1 9 32
M  V30 35 1 10 33
M  V30 36 1 10 34
M  V30 37 1 12 35
M  V30 38 1 13 36
M  V30 39 1 14 37
M  V30 40 1 15 38
M  V30 41 1 16 39
M  V30 42 1 17 40
M  V30 43 1 17 41
M  V30 44 1 19 42
M  V30 45 1 20 43
M  V30 46 1 21 44
M  V30 47 1 22 45
M  V30 48 1 23 46
M  V30 END BOND
M  V30 END CTAB
M  END
