
     RDKit          3D

  0  0  0  0  0  0  0  0  0  0999 V3000
M  V30 BEGIN CTAB
M  V30 COUNTS 22 22 0 0 0
M  V30 BEGIN ATOM
M  V30 1 C 3.44504 -1.19604 -0.206985 0
M  V30 2 C 2.22082 -0.32323 -0.120647 0
M  V30 3 N 0.99399 -0.88962 -0.142404 0
M  V30 4 C -0.13444 -0.16582 -0.0688776 0
M  V30 5 N -1.43878 -0.724165 -0.0886868 0
M  V30 6 N -1.80972 -1.46744 -1.21608 0
M  V30 7 C -2.39623 -0.568377 0.982277 0
M  V30 8 C -0.0100815 1.20233 0.0318274 0
M  V30 9 C 1.24552 1.81809 0.0568067 0
M  V30 10 N 2.32192 1.01315 -0.0219345 0
M  V30 11 Cl 1.38166 3.5623 0.185567 0
M  V30 12 N -1.15899 2.00899 0.111893 0
M  V30 13 H 3.67879 -1.46692 -1.25039 0
M  V30 14 H 3.29902 -2.09391 0.450764 0
M  V30 15 H 4.32744 -0.66881 0.210911 0
M  V30 16 H -2.51246 -2.20892 -0.927254 0
M  V30 17 H -2.2817 -0.824283 -1.91437 0
M  V30 18 H -2.06449 0.109939 1.77012 0
M  V30 19 H -3.3129 -0.12736 0.529135 0
M  V30 20 H -2.66071 -1.58152 1.33822 0
M  V30 21 H -1.65673 2.26944 -0.758551 0
M  V30 22 H -1.47696 2.32217 1.04867 0
M  V30 END ATOM
M  V30 BEGIN BOND
M  V30 1 1 1 2
M  V30 2 2 2 3
M  V30 3 1 3 4
M  V30 4 1 4 5
M  V30 5 1 5 6
M  V30 6 1 5 7
M  V30 7 2 4 8
M  V30 8 1 8 9
M  V30 9 2 9 10
M  V30 10 1 9 11
M  V30 11 1 8 12
M  V30 12 1 10 2
M  V30 13 1 1 13
M  V30 14 1 1 14
M  V30 15 1 1 15
M  V30 16 1 6 16
M  V30 17 1 6 17
M  V30 18 1 7 18
M  V30 19 1 7 19
M  V30 20 1 7 20
M  V30 21 1 12 21
M  V30 22 1 12 22
M  V30 END BOND
M  V30 END CTAB
M  END
