
     RDKit          3D

  0  0  0  0  0  0  0  0  0  0999 V3000
M  V30 BEGIN CTAB
M  V30 COUNTS 42 44 0 0 0
M  V30 BEGIN ATOM
M  V30 1 N 0.796667 4.27799 -0.302247 0
M  V30 2 C -0.0543316 3.49228 -0.256962 0
M  V30 3 C -1.1163 2.50243 -0.217307 0
M  V30 4 C -2.44046 2.89064 -0.293049 0
M  V30 5 N -2.74521 4.27566 -0.40831 0
M  V30 6 N -3.38236 1.9424 -0.254084 0
M  V30 7 C -3.09421 0.600002 -0.142264 0
M  V30 8 C -1.79538 0.20277 -0.0663362 0
M  V30 9 C -0.781572 1.18071 -0.105243 0
M  V30 10 C 0.594819 0.707416 -0.0217717 0
M  V30 11 C 1.34481 0.57006 -1.15233 0
M  V30 12 N 2.62541 0.129462 -1.07034 0
M  V30 13 C 3.18042 -0.177447 0.100302 0
M  V30 14 N 2.41474 -0.0323467 1.20896 0
M  V30 15 C 1.15778 0.39307 1.19395 0
M  V30 16 N 4.51927 -0.640032 0.195142 0
M  V30 17 C 5.30541 -0.783642 -1.00331 0
M  V30 18 C 5.08113 -0.963191 1.48903 0
M  V30 19 C -1.39209 -1.20201 0.0594504 0
M  V30 20 C -2.48539 -2.11089 -0.393208 0
M  V30 21 C -3.81138 -1.73361 0.239273 0
M  V30 22 C -4.23221 -0.353902 -0.113201 0
M  V30 23 N -2.19746 -3.47094 0.0887626 0
M  V30 24 H -2.69553 4.88992 0.447076 0
M  V30 25 H -3.02014 4.74126 -1.29323 0
M  V30 26 H 0.987382 0.79212 -2.14938 0
M  V30 27 H 0.531387 0.514855 2.06186 0
M  V30 28 H 6.16296 -1.43412 -0.773693 0
M  V30 29 H 4.68534 -1.22256 -1.83894 0
M  V30 30 H 5.70979 0.191988 -1.34875 0
M  V30 31 H 5.49664 -0.0493688 1.97515 0
M  V30 32 H 4.31877 -1.45293 2.13108 0
M  V30 33 H 5.92305 -1.67362 1.36036 0
M  V30 34 H -1.12614 -1.43028 1.13212 0
M  V30 35 H -0.466424 -1.44069 -0.502198 0
M  V30 36 H -2.60913 -2.10676 -1.47585 0
M  V30 37 H -4.55364 -2.48931 -0.0717945 0
M  V30 38 H -3.70904 -1.82621 1.3344 0
M  V30 39 H -4.63659 -0.398922 -1.16738 0
M  V30 40 H -5.03686 -0.0337321 0.584076 0
M  V30 41 H -1.28556 -3.82137 -0.309773 0
M  V30 42 H -2.16834 -3.44714 1.12995 0
M  V30 END ATOM
M  V30 BEGIN BOND
M  V30 1 3 1 2
M  V30 2 1 2 3
M  V30 3 2 3 4
M  V30 4 1 4 5
M  V30 5 1 4 6
M  V30 6 2 6 7
M  V30 7 1 7 8
M  V30 8 2 8 9
M  V30 9 1 9 10
M  V30 10 2 10 11
M  V30 11 1 11 12
M  V30 12 2 12 13
M  V30 13 1 13 14
M  V30 14 2 14 15
M  V30 15 1 13 16
M  V30 16 1 16 17
M  V30 17 1 16 18
M  V30 18 1 8 19
M  V30 19 1 19 20
M  V30 20 1 20 21
M  V30 21 1 21 22
M  V30 22 1 20 23
M  V30 23 1 9 3
M  V30 24 1 15 10
M  V30 25 1 22 7
M  V30 26 1 5 24
M  V30 27 1 5 25
M  V30 28 1 11 26
M  V30 29 1 15 27
M  V30 30 1 17 28
M  V30 31 1 17 29
M  V30 32 1 17 30
M  V30 33 1 18 31
M  V30 34 1 18 32
M  V30 35 1 18 33
M  V30 36 1 19 34
M  V30 37 1 19 35
M  V30 38 1 20 36
M  V30 39 1 21 37
M  V30 40 1 21 38
M  V30 41 1 22 39
M  V30 42 1 22 40
M  V30 43 1 23 41
M  V30 44 1 23 42
M  V30 END BOND
M  V30 END CTAB
M  END
