
     RDKit          3D

  0  0  0  0  0  0  0  0  0  0999 V3000
M  V30 BEGIN CTAB
M  V30 COUNTS 21 22 0 0 0
M  V30 BEGIN ATOM
M  V30 1 F -3.35048 -2.68372 0.648967 0
M  V30 2 C -2.64022 -1.56741 0.382443 0
M  V30 3 C -3.33632 -0.410051 0.116429 0
M  V30 4 C -2.60058 0.730837 -0.15604 0
M  V30 5 C -1.2134 0.722293 -0.164027 0
M  V30 6 C -0.522238 -0.438915 0.102925 0
M  V30 7 C -1.27224 -1.56779 0.372679 0
M  V30 8 C 0.956935 -0.485832 0.103271 0
M  V30 9 O 1.66379 -1.55713 0.349043 0
M  V30 10 N 2.91755 -1.26489 0.271595 0
M  V30 11 C 3.05811 0.0320332 -0.0331082 0
M  V30 12 N 1.80735 0.508226 -0.135616 0
M  V30 13 N 4.30928 0.676116 -0.192933 0
M  V30 14 N -0.514022 1.92639 -0.451035 0
M  V30 15 H -4.43299 -0.388914 0.119384 0
M  V30 16 H -3.15959 1.65382 -0.368162 0
M  V30 17 H -0.727453 -2.49183 0.585149 0
M  V30 18 H 5.01751 0.420162 -0.915398 0
M  V30 19 H 4.55234 1.46087 0.447828 0
M  V30 20 H 0.011343 2.39228 0.32792 0
M  V30 21 H -0.524693 2.33346 -1.41131 0
M  V30 END ATOM
M  V30 BEGIN BOND
M  V30 1 1 1 2
M  V30 2 2 2 3
M  V30 3 1 3 4
M  V30 4 2 4 5
M  V30 5 1 5 6
M  V30 6 2 6 7
M  V30 7 1 6 8
M  V30 8 1 8 9
M  V30 9 1 9 10
M  V30 10 2 10 11
M  V30 11 1 11 12
M  V30 12 1 11 13
M  V30 13 1 5 14
M  V30 14 1 7 2
M  V30 15 2 12 8
M  V30 16 1 3 15
M  V30 17 1 4 16
M  V30 18 1 7 17
M  V30 19 1 13 18
M  V30 20 1 13 19
M  V30 21 1 14 20
M  V30 22 1 14 21
M  V30 END BOND
M  V30 END CTAB
M  END
