
     RDKit          3D

  0  0  0  0  0  0  0  0  0  0999 V3000
M  V30 BEGIN CTAB
M  V30 COUNTS 25 26 0 0 0
M  V30 BEGIN ATOM
M  V30 1 N 3.84305 -0.128202 -0.953325 0
M  V30 2 C 2.47701 -0.218049 -0.568201 0
M  V30 3 C 1.70333 -1.329 -0.807222 0
M  V30 4 C 0.382383 -1.39265 -0.424783 0
M  V30 5 C -0.233943 -0.318863 0.229522 0
M  V30 6 N 0.53454 0.758112 0.455501 0
M  V30 7 C 1.83106 0.836811 0.0871346 0
M  V30 8 N 2.62861 1.98904 0.336554 0
M  V30 9 N -1.59861 -0.383062 0.625289 0
M  V30 10 C -2.02912 -1.13829 1.65235 0
M  V30 11 C -3.39139 -0.997265 1.79567 0
M  V30 12 N -3.77236 -0.141964 0.834254 0
M  V30 13 C -2.67597 0.215491 0.140795 0
M  V30 14 C -2.64962 1.16474 -1.03055 0
M  V30 15 H 4.50303 0.50306 -0.458628 0
M  V30 16 H 4.15934 -0.723487 -1.75597 0
M  V30 17 H 2.1449 -2.17213 -1.30782 0
M  V30 18 H -0.240145 -2.24865 -0.600758 0
M  V30 19 H 2.79578 2.2701 1.32624 0
M  V30 20 H 3.06332 2.58012 -0.403421 0
M  V30 21 H -1.40393 -1.76473 2.27611 0
M  V30 22 H -4.02138 -1.49262 2.55006 0
M  V30 23 H -2.29977 2.15252 -0.710251 0
M  V30 24 H -3.6915 1.24796 -1.41719 0
M  V30 25 H -2.05862 0.731021 -1.87137 0
M  V30 END ATOM
M  V30 BEGIN BOND
M  V30 1 1 1 2
M  V30 2 2 2 3
M  V30 3 1 3 4
M  V30 4 2 4 5
M  V30 5 1 5 6
M  V30 6 2 6 7
M  V30 7 1 7 8
M  V30 8 1 5 9
M  V30 9 1 9 10
M  V30 10 2 10 11
M  V30 11 1 11 12
M  V30 12 2 12 13
M  V30 13 1 13 14
M  V30 14 1 7 2
M  V30 15 1 13 9
M  V30 16 1 1 15
M  V30 17 1 1 16
M  V30 18 1 3 17
M  V30 19 1 4 18
M  V30 20 1 8 19
M  V30 21 1 8 20
M  V30 22 1 10 21
M  V30 23 1 11 22
M  V30 24 1 14 23
M  V30 25 1 14 24
M  V30 26 1 14 25
M  V30 END BOND
M  V30 END CTAB
M  END
