
     RDKit          3D

  0  0  0  0  0  0  0  0  0  0999 V3000
M  V30 BEGIN CTAB
M  V30 COUNTS 28 28 0 0 0
M  V30 BEGIN ATOM
M  V30 1 C -3.10625 -1.16588 -0.782326 0
M  V30 2 C -2.83728 0.135974 -0.109755 0
M  V30 3 C -3.20007 0.271943 1.14585 0
M  V30 4 C -2.17972 1.24995 -0.830348 0
M  V30 5 N -0.900278 0.839567 -1.29888 0
M  V30 6 C 0.25434 0.551667 -0.551903 0
M  V30 7 C 0.36839 0.934838 0.753415 0
M  V30 8 C 1.49116 0.646372 1.5141 0
M  V30 9 C 2.54186 -0.0442158 0.971529 0
M  V30 10 C 2.45867 -0.445114 -0.344221 0
M  V30 11 C 1.33064 -0.144749 -1.07605 0
M  V30 12 N 3.55377 -1.16646 -0.914991 0
M  V30 13 N 3.71861 -0.353843 1.74712 0
M  V30 14 H -3.06345 -2.00573 -0.0295976 0
M  V30 15 H -2.34037 -1.37788 -1.55926 0
M  V30 16 H -4.14085 -1.16504 -1.18852 0
M  V30 17 H -3.68299 -0.521058 1.7038 0
M  V30 18 H -3.01516 1.20534 1.65209 0
M  V30 19 H -2.8443 1.54138 -1.68976 0
M  V30 20 H -2.13397 2.13901 -0.158851 0
M  V30 21 H -0.81762 0.738991 -2.36546 0
M  V30 22 H -0.398619 1.49237 1.26087 0
M  V30 23 H 1.56879 0.958614 2.55734 0
M  V30 24 H 1.27252 -0.464459 -2.11357 0
M  V30 25 H 3.34123 -1.84737 -1.66759 0
M  V30 26 H 4.54212 -1.05183 -0.624871 0
M  V30 27 H 4.19653 0.400283 2.27741 0
M  V30 28 H 4.0223 -1.35268 1.72243 0
M  V30 END ATOM
M  V30 BEGIN BOND
M  V30 1 1 1 2
M  V30 2 2 2 3 CFG=2
M  V30 3 1 2 4
M  V30 4 1 4 5
M  V30 5 1 5 6
M  V30 6 2 6 7
M  V30 7 1 7 8
M  V30 8 2 8 9
M  V30 9 1 9 10
M  V30 10 2 10 11
M  V30 11 1 10 12
M  V30 12 1 9 13
M  V30 13 1 11 6
M  V30 14 1 1 14
M  V30 15 1 1 15
M  V30 16 1 1 16
M  V30 17 1 3 17
M  V30 18 1 3 18
M  V30 19 1 4 19
M  V30 20 1 4 20
M  V30 21 1 5 21
M  V30 22 1 7 22
M  V30 23 1 8 23
M  V30 24 1 11 24
M  V30 25 1 12 25
M  V30 26 1 12 26
M  V30 27 1 13 27
M  V30 28 1 13 28
M  V30 END BOND
M  V30 END CTAB
M  END
