
     RDKit          3D

  0  0  0  0  0  0  0  0  0  0999 V3000
M  V30 BEGIN CTAB
M  V30 COUNTS 27 28 0 0 0
M  V30 BEGIN ATOM
M  V30 1 N -4.42428 1.46658 -0.510199 0
M  V30 2 C -3.77635 0.219487 -0.693608 0
M  V30 3 S -4.30031 -0.850279 -1.82289 0
M  V30 4 C -2.61216 -0.148058 0.128407 0
M  V30 5 C -1.45068 -0.743022 -0.281688 0
M  V30 6 N -1.23077 -1.09675 -1.64447 0
M  V30 7 N -0.663576 -0.896382 0.786075 0
M  V30 8 C 0.65856 -1.4886 0.764009 0
M  V30 9 C 1.72583 -0.482368 0.539221 0
M  V30 10 C 2.19427 -0.184809 -0.722956 0
M  V30 11 C 3.18627 0.753776 -0.934257 0
M  V30 12 C 3.70336 1.39566 0.174858 0
M  V30 13 C 3.26909 1.13267 1.44878 0
M  V30 14 C 2.2841 0.197911 1.63561 0
M  V30 15 N -1.31688 -0.410929 1.8297 0
M  V30 16 N -2.49674 0.0447376 1.44513 0
M  V30 17 H -4.34162 1.97803 0.393087 0
M  V30 18 H -4.99615 1.90995 -1.25668 0
M  V30 19 H -1.67007 -1.92956 -2.08309 0
M  V30 20 H -0.607814 -0.513528 -2.24988 0
M  V30 21 H 0.737922 -2.27226 -0.0324795 0
M  V30 22 H 0.782181 -2.03379 1.72631 0
M  V30 23 H 1.77608 -0.701047 -1.5739 0
M  V30 24 H 3.50662 0.938301 -1.94965 0
M  V30 25 H 4.4818 2.12919 -0.0147544 0
M  V30 26 H 3.68796 1.64435 2.28151 0
M  V30 27 H 1.89335 -0.059256 2.61781 0
M  V30 END ATOM
M  V30 BEGIN BOND
M  V30 1 1 1 2
M  V30 2 2 2 3
M  V30 3 1 2 4
M  V30 4 2 4 5
M  V30 5 1 5 6
M  V30 6 1 5 7
M  V30 7 1 7 8
M  V30 8 1 8 9
M  V30 9 2 9 10
M  V30 10 1 10 11
M  V30 11 2 11 12
M  V30 12 1 12 13
M  V30 13 2 13 14
M  V30 14 1 7 15
M  V30 15 2 15 16
M  V30 16 1 16 4
M  V30 17 1 14 9
M  V30 18 1 1 17
M  V30 19 1 1 18
M  V30 20 1 6 19
M  V30 21 1 6 20
M  V30 22 1 8 21
M  V30 23 1 8 22
M  V30 24 1 10 23
M  V30 25 1 11 24
M  V30 26 1 12 25
M  V30 27 1 13 26
M  V30 28 1 14 27
M  V30 END BOND
M  V30 END CTAB
M  END
