
     RDKit          3D

  0  0  0  0  0  0  0  0  0  0999 V3000
M  V30 BEGIN CTAB
M  V30 COUNTS 45 47 0 0 0
M  V30 BEGIN ATOM
M  V30 1 C -6.49114 2.03872 -0.73754 0
M  V30 2 C -6.90048 0.620599 -1.14911 0
M  V30 3 O -6.46736 -0.225244 -0.165914 0
M  V30 4 C -5.09771 -0.207605 0.0373967 0
M  V30 5 C -4.30116 -0.592864 -1.15249 0
M  V30 6 N -2.89297 -0.555186 -0.88122 0
M  V30 7 C -2.20872 -1.33763 0.0750434 0
M  V30 8 O -2.85279 -2.15654 0.768645 0
M  V30 9 C -0.772151 -1.20976 0.268517 0
M  V30 10 N -0.0983422 -0.318278 -0.492668 0
M  V30 11 C 1.22722 -0.162542 -0.352797 0
M  V30 12 C 1.85751 -0.948238 0.594586 0
M  V30 13 N 1.19151 -1.83582 1.35354 0
M  V30 14 C -0.140062 -1.99867 1.2196 0
M  V30 15 N -0.874443 -2.92672 2.00456 0
M  V30 16 N 3.20007 -0.774524 0.719892 0
M  V30 17 C 3.86832 0.109631 -0.0350256 0
M  V30 18 N 3.23264 0.861531 -0.949 0
M  V30 19 C 1.88976 0.754146 -1.14234 0
M  V30 20 N 1.25207 1.5578 -2.10979 0
M  V30 21 C 5.31385 0.289036 0.107706 0
M  V30 22 C 6.02369 -0.453448 1.02872 0
M  V30 23 C 7.39701 -0.282723 1.16403 0
M  V30 24 C 8.10315 0.621366 0.397314 0
M  V30 25 C 7.38671 1.36034 -0.521597 0
M  V30 26 C 6.02244 1.18968 -0.654927 0
M  V30 27 H -6.46328 2.11484 0.361704 0
M  V30 28 H -7.20888 2.78511 -1.1352 0
M  V30 29 H -5.4779 2.23777 -1.11522 0
M  V30 30 H -8.00479 0.634418 -1.2143 0
M  V30 31 H -6.49812 0.439975 -2.15042 0
M  V30 32 H -4.78287 -0.757955 0.928732 0
M  V30 33 H -4.84817 0.872952 0.263482 0
M  V30 34 H -4.5615 -1.64615 -1.43336 0
M  V30 35 H -4.5069 0.0271313 -2.04949 0
M  V30 36 H -2.30421 0.131789 -1.45763 0
M  V30 37 H -0.853241 -3.93895 1.76955 0
M  V30 38 H -1.42578 -2.5824 2.80664 0
M  V30 39 H 0.510424 1.15255 -2.70076 0
M  V30 40 H 1.52446 2.54624 -2.22748 0
M  V30 41 H 5.49608 -1.16923 1.64285 0
M  V30 42 H 7.96684 -0.855817 1.87988 0
M  V30 43 H 9.1723 0.754564 0.50237 0
M  V30 44 H 7.94131 2.06965 -1.12298 0
M  V30 45 H 5.4556 1.76644 -1.37386 0
M  V30 END ATOM
M  V30 BEGIN BOND
M  V30 1 1 1 2
M  V30 2 1 2 3
M  V30 3 1 3 4
M  V30 4 1 4 5
M  V30 5 1 5 6
M  V30 6 1 6 7
M  V30 7 2 7 8
M  V30 8 1 7 9
M  V30 9 2 9 10
M  V30 10 1 10 11
M  V30 11 2 11 12
M  V30 12 1 12 13
M  V30 13 2 13 14
M  V30 14 1 14 15
M  V30 15 1 12 16
M  V30 16 2 16 17
M  V30 17 1 17 18
M  V30 18 2 18 19
M  V30 19 1 19 20
M  V30 20 1 17 21
M  V30 21 2 21 22
M  V30 22 1 22 23
M  V30 23 2 23 24
M  V30 24 1 24 25
M  V30 25 2 25 26
M  V30 26 1 14 9
M  V30 27 1 26 21
M  V30 28 1 19 11
M  V30 29 1 1 27
M  V30 30 1 1 28
M  V30 31 1 1 29
M  V30 32 1 2 30
M  V30 33 1 2 31
M  V30 34 1 4 32
M  V30 35 1 4 33
M  V30 36 1 5 34
M  V30 37 1 5 35
M  V30 38 1 6 36
M  V30 39 1 15 37
M  V30 40 1 15 38
M  V30 41 1 20 39
M  V30 42 1 20 40
M  V30 43 1 22 41
M  V30 44 1 23 42
M  V30 45 1 24 43
M  V30 46 1 25 44
M  V30 47 1 26 45
M  V30 END BOND
M  V30 END CTAB
M  END
