
     RDKit          3D

  0  0  0  0  0  0  0  0  0  0999 V3000
M  V30 BEGIN CTAB
M  V30 COUNTS 51 54 0 0 0
M  V30 BEGIN ATOM
M  V30 1 C -5.20515 0.00126606 1.71374 0
M  V30 2 O -5.67758 -0.360342 0.449484 0
M  V30 3 C -4.86536 -0.483228 -0.67318 0
M  V30 4 C -5.40328 -0.839982 -1.86925 0
M  V30 5 C -4.60053 -0.963316 -2.98712 0
M  V30 6 N -5.19405 -1.33905 -4.22571 0
M  V30 7 C -3.2556 -0.723603 -2.88561 0
M  V30 8 C -2.65521 -0.3535 -1.67644 0
M  V30 9 N -1.26032 -0.137681 -1.60797 0
M  V30 10 C -0.517913 0.555013 -0.658951 0
M  V30 11 N -1.07207 1.21334 0.390387 0
M  V30 12 C -0.373269 1.90665 1.30228 0
M  V30 13 C -1.02693 2.55794 2.35619 0
M  V30 14 C -0.295282 3.26413 3.28192 0
M  V30 15 C 1.07314 3.30848 3.14081 0
M  V30 16 C 1.73566 2.67824 2.11644 0
M  V30 17 C 0.999146 1.96812 1.18568 0
M  V30 18 N 1.57729 1.3294 0.161665 0
M  V30 19 C 0.856158 0.643214 -0.736255 0
M  V30 20 N 1.56647 0.00831439 -1.76894 0
M  V30 21 S 3.30365 0.15438 -1.80569 0
M  V30 22 O 3.58746 1.64976 -1.86042 0
M  V30 23 O 3.78244 -0.41075 -3.09587 0
M  V30 24 C 4.08107 -0.509435 -0.425052 0
M  V30 25 C 4.58283 0.247396 0.602742 0
M  V30 26 C 5.1939 -0.343363 1.71503 0
M  V30 27 C 5.30957 -1.71049 1.80862 0
M  V30 28 C 4.80965 -2.4794 0.781987 0
M  V30 29 N 4.92541 -3.89257 0.87079 0
M  V30 30 C 4.20156 -1.87649 -0.322879 0
M  V30 31 C -3.48497 -0.247641 -0.613735 0
M  V30 32 H -4.99353 1.08265 1.82513 0
M  V30 33 H -4.28887 -0.599787 1.95266 0
M  V30 34 H -5.98177 -0.333887 2.45693 0
M  V30 35 H -6.47607 -1.04241 -2.00109 0
M  V30 36 H -5.8958 -2.09177 -4.26333 0
M  V30 37 H -4.9253 -0.858481 -5.10081 0
M  V30 38 H -2.61374 -0.815929 -3.7541 0
M  V30 39 H -0.72051 -0.583496 -2.41658 0
M  V30 40 H -2.10742 2.47977 2.4043 0
M  V30 41 H -0.792714 3.78146 4.11576 0
M  V30 42 H 1.70661 3.85801 3.85152 0
M  V30 43 H 2.80812 2.71051 2.00221 0
M  V30 44 H 1.0969 -0.560873 -2.53123 0
M  V30 45 H 4.52519 1.34046 0.566527 0
M  V30 46 H 5.56624 0.32299 2.48837 0
M  V30 47 H 5.791 -2.16594 2.68588 0
M  V30 48 H 4.25214 -4.50931 0.372864 0
M  V30 49 H 5.6774 -4.34423 1.42931 0
M  V30 50 H 3.81555 -2.49845 -1.11825 0
M  V30 51 H -3.14134 0.0139207 0.369225 0
M  V30 END ATOM
M  V30 BEGIN BOND
M  V30 1 1 1 2
M  V30 2 1 2 3
M  V30 3 2 3 4
M  V30 4 1 4 5
M  V30 5 1 5 6
M  V30 6 2 5 7
M  V30 7 1 7 8
M  V30 8 1 8 9
M  V30 9 1 9 10
M  V30 10 2 10 11
M  V30 11 1 11 12
M  V30 12 2 12 13
M  V30 13 1 13 14
M  V30 14 2 14 15
M  V30 15 1 15 16
M  V30 16 2 16 17
M  V30 17 1 17 18
M  V30 18 2 18 19
M  V30 19 1 19 20
M  V30 20 1 20 21
M  V30 21 2 21 22
M  V30 22 2 21 23
M  V30 23 1 21 24
M  V30 24 2 24 25
M  V30 25 1 25 26
M  V30 26 2 26 27
M  V30 27 1 27 28
M  V30 28 1 28 29
M  V30 29 2 28 30
M  V30 30 2 8 31
M  V30 31 1 31 3
M  V30 32 1 19 10
M  V30 33 1 30 24
M  V30 34 1 17 12
M  V30 35 1 1 32
M  V30 36 1 1 33
M  V30 37 1 1 34
M  V30 38 1 4 35
M  V30 39 1 6 36
M  V30 40 1 6 37
M  V30 41 1 7 38
M  V30 42 1 9 39
M  V30 43 1 13 40
M  V30 44 1 14 41
M  V30 45 1 15 42
M  V30 46 1 16 43
M  V30 47 1 20 44
M  V30 48 1 25 45
M  V30 49 1 26 46
M  V30 50 1 27 47
M  V30 51 1 29 48
M  V30 52 1 29 49
M  V30 53 1 30 50
M  V30 54 1 31 51
M  V30 END BOND
M  V30 END CTAB
M  END
