
     RDKit          3D

  0  0  0  0  0  0  0  0  0  0999 V3000
M  V30 BEGIN CTAB
M  V30 COUNTS 44 46 0 0 0
M  V30 BEGIN ATOM
M  V30 1 O 1.80299 -1.79439 -0.129658 0
M  V30 2 C 1.10518 -0.980393 -0.792009 0
M  V30 3 N -0.218532 -0.656004 -0.403881 0
M  V30 4 C -0.972775 0.269733 -1.1783 0
M  V30 5 C -2.4717 0.101459 -1.10566 0
M  V30 6 N -2.89938 -0.187144 0.247632 0
M  V30 7 C -1.97967 -0.593982 1.27991 0
M  V30 8 C -0.7642 -1.27289 0.762805 0
M  V30 9 C -4.25934 -0.0616391 0.560123 0
M  V30 10 C -4.666 0.84119 1.52507 0
M  V30 11 C -5.9857 1.00747 1.87108 0
M  V30 12 C -6.97323 0.267391 1.25866 0
M  V30 13 C -6.589 -0.637958 0.294237 0
M  V30 14 C -5.25536 -0.794287 -0.0435024 0
M  V30 15 F -4.92671 -1.71292 -1.01127 0
M  V30 16 C 1.67701 -0.347732 -2.00209 0
M  V30 17 S 3.3666 -0.868962 -2.27146 0
M  V30 18 C 4.43355 -0.231365 -0.990668 0
M  V30 19 N 4.64324 -0.942028 0.123329 0
M  V30 20 C 5.43543 -0.492547 1.09738 0
M  V30 21 N 5.62145 -1.28864 2.25579 0
M  V30 22 C 6.05354 0.733481 0.954496 0
M  V30 23 C 5.85409 1.49176 -0.18987 0
M  V30 24 N 5.04555 0.980823 -1.13047 0
M  V30 25 N 6.49043 2.75638 -0.341469 0
M  V30 26 H -0.76122 1.2977 -0.758675 0
M  V30 27 H -0.645737 0.329807 -2.23833 0
M  V30 28 H -2.97813 1.03618 -1.41473 0
M  V30 29 H -2.80848 -0.697514 -1.79189 0
M  V30 30 H -1.65209 0.329247 1.84264 0
M  V30 31 H -2.4632 -1.25248 2.04284 0
M  V30 32 H -0.969385 -2.36133 0.617462 0
M  V30 33 H 0.052214 -1.20769 1.54717 0
M  V30 34 H -3.90156 1.42302 2.00827 0
M  V30 35 H -6.28727 1.71784 2.62812 0
M  V30 36 H -8.03125 0.394891 1.53068 0
M  V30 37 H -7.36132 -1.21903 -0.187538 0
M  V30 38 H 1.61012 0.762185 -1.87928 0
M  V30 39 H 1.05338 -0.570674 -2.90722 0
M  V30 40 H 6.45019 -1.89939 2.30993 0
M  V30 41 H 4.93984 -1.25651 3.02954 0
M  V30 42 H 6.70047 1.11661 1.73389 0
M  V30 43 H 7.52456 2.84165 -0.242126 0
M  V30 44 H 5.96142 3.62866 -0.553226 0
M  V30 END ATOM
M  V30 BEGIN BOND
M  V30 1 2 1 2
M  V30 2 1 2 3
M  V30 3 1 3 4
M  V30 4 1 4 5
M  V30 5 1 5 6
M  V30 6 1 6 7
M  V30 7 1 7 8
M  V30 8 1 6 9
M  V30 9 2 9 10
M  V30 10 1 10 11
M  V30 11 2 11 12
M  V30 12 1 12 13
M  V30 13 2 13 14
M  V30 14 1 14 15
M  V30 15 1 2 16
M  V30 16 1 16 17
M  V30 17 1 17 18
M  V30 18 2 18 19
M  V30 19 1 19 20
M  V30 20 1 20 21
M  V30 21 2 20 22
M  V30 22 1 22 23
M  V30 23 2 23 24
M  V30 24 1 23 25
M  V30 25 1 8 3
M  V30 26 1 14 9
M  V30 27 1 24 18
M  V30 28 1 4 26
M  V30 29 1 4 27
M  V30 30 1 5 28
M  V30 31 1 5 29
M  V30 32 1 7 30
M  V30 33 1 7 31
M  V30 34 1 8 32
M  V30 35 1 8 33
M  V30 36 1 10 34
M  V30 37 1 11 35
M  V30 38 1 12 36
M  V30 39 1 13 37
M  V30 40 1 16 38
M  V30 41 1 16 39
M  V30 42 1 21 40
M  V30 43 1 21 41
M  V30 44 1 22 42
M  V30 45 1 25 43
M  V30 46 1 25 44
M  V30 END BOND
M  V30 END CTAB
M  END
