
     RDKit          3D

  0  0  0  0  0  0  0  0  0  0999 V3000
M  V30 BEGIN CTAB
M  V30 COUNTS 19 19 0 0 0
M  V30 BEGIN ATOM
M  V30 1 C -2.21466 1.33149 -0.107489 0
M  V30 2 C -0.856125 0.70021 -0.0359712 0
M  V30 3 C 0.280085 1.48999 0.0995341 0
M  V30 4 C 1.52066 0.890811 0.163539 0
M  V30 5 Cl 2.94411 1.897 0.33425 0
M  V30 6 C 1.6954 -0.481036 0.0986083 0
M  V30 7 N 2.98799 -1.06931 0.167351 0
M  V30 8 C 0.562893 -1.25426 -0.0356493 0
M  V30 9 C -0.686736 -0.670232 -0.101244 0
M  V30 10 N -1.85741 -1.45616 -0.239263 0
M  V30 11 H -2.85477 0.9223 0.724699 0
M  V30 12 H -2.09928 2.40766 0.0744328 0
M  V30 13 H -2.71394 1.06928 -1.04698 0
M  V30 14 H 0.186255 2.57989 0.154685 0
M  V30 15 H 3.45445 -1.21324 1.0871 0
M  V30 16 H 3.49738 -1.36835 -0.68503 0
M  V30 17 H 0.686646 -2.32362 -0.0872464 0
M  V30 18 H -1.89241 -2.17695 -0.980392 0
M  V30 19 H -2.64053 -1.27547 0.415073 0
M  V30 END ATOM
M  V30 BEGIN BOND
M  V30 1 1 1 2
M  V30 2 2 2 3
M  V30 3 1 3 4
M  V30 4 1 4 5
M  V30 5 2 4 6
M  V30 6 1 6 7
M  V30 7 1 6 8
M  V30 8 2 8 9
M  V30 9 1 9 10
M  V30 10 1 9 2
M  V30 11 1 1 11
M  V30 12 1 1 12
M  V30 13 1 1 13
M  V30 14 1 3 14
M  V30 15 1 7 15
M  V30 16 1 7 16
M  V30 17 1 8 17
M  V30 18 1 10 18
M  V30 19 1 10 19
M  V30 END BOND
M  V30 END CTAB
M  END
