
     RDKit          3D

  0  0  0  0  0  0  0  0  0  0999 V3000
M  V30 BEGIN CTAB
M  V30 COUNTS 22 22 0 0 0
M  V30 BEGIN ATOM
M  V30 1 N 2.35541 1.10218 0.126834 0
M  V30 2 C 1.13318 0.440245 -0.137673 0 CFG=1
M  V30 3 C 1.14708 -1.03745 0.274897 0
M  V30 4 C -0.0799344 -1.63138 -0.393824 0
M  V30 5 C -1.29933 -1.06194 0.2319 0
M  V30 6 C -1.32268 0.408002 0.38866 0 CFG=2
M  V30 7 N -2.04762 1.00504 -0.736245 0
M  V30 8 C -0.00666872 1.067 0.604837 0
M  V30 9 H 3.14167 0.425573 0.0140911 0
M  V30 10 H 2.52089 1.85798 -0.577773 0
M  V30 11 H 0.874423 0.502687 -1.23401 0
M  V30 12 H 2.07655 -1.53656 0.00562431 0
M  V30 13 H 0.92737 -1.03456 1.36844 0
M  V30 14 H 8.60635e-05 -1.34072 -1.47674 0
M  V30 15 H -0.0895428 -2.73109 -0.271081 0
M  V30 16 H -2.17736 -1.35987 -0.412521 0
M  V30 17 H -1.48384 -1.58534 1.20242 0
M  V30 18 H -1.96221 0.643403 1.2901 0
M  V30 19 H -1.72203 0.671508 -1.64638 0
M  V30 20 H -2.1831 2.01373 -0.630004 0
M  V30 21 H 0.264285 1.05323 1.69312 0
M  V30 22 H -0.06662 2.12832 0.315329 0
M  V30 END ATOM
M  V30 BEGIN BOND
M  V30 1 1 1 2
M  V30 2 1 2 3
M  V30 3 1 3 4
M  V30 4 1 4 5
M  V30 5 1 5 6
M  V30 6 1 6 7
M  V30 7 1 6 8
M  V30 8 1 8 2
M  V30 9 1 1 9
M  V30 10 1 1 10
M  V30 11 1 2 11 CFG=3
M  V30 12 1 3 12
M  V30 13 1 3 13
M  V30 14 1 4 14
M  V30 15 1 4 15
M  V30 16 1 5 16
M  V30 17 1 5 17
M  V30 18 1 6 18 CFG=1
M  V30 19 1 7 19
M  V30 20 1 7 20
M  V30 21 1 8 21
M  V30 22 1 8 22
M  V30 END BOND
M  V30 END CTAB
M  END
