
     RDKit          3D

  0  0  0  0  0  0  0  0  0  0999 V3000
M  V30 BEGIN CTAB
M  V30 COUNTS 33 33 0 0 0
M  V30 BEGIN ATOM
M  V30 1 C 3.1669 -1.0799 -0.879695 0
M  V30 2 O 2.03796 -0.897698 -0.0877133 0
M  V30 3 C 1.57955 0.417483 -0.189403 0
M  V30 4 C 0.352239 0.611419 0.673159 0
M  V30 5 C -0.770617 -0.317867 0.363979 0
M  V30 6 C -1.38358 -0.328464 -0.982567 0
M  V30 7 N -0.531087 -0.646096 -2.0808 0
M  V30 8 C -0.552177 -1.70963 0.946543 0
M  V30 9 C -1.98611 -1.6708 1.42482 0
M  V30 10 C -1.86673 -0.164417 1.42173 0
M  V30 11 C 0.0165574 2.06391 0.696151 0
M  V30 12 N -0.466793 2.62704 -0.514164 0
M  V30 13 O 0.807485 0.327635 1.99646 0
M  V30 14 H 3.55573 -2.11556 -0.820735 0
M  V30 15 H 2.84383 -0.920096 -1.94297 0
M  V30 16 H 3.98287 -0.386306 -0.61354 0
M  V30 17 H 1.41386 0.756447 -1.21228 0
M  V30 18 H 2.4344 1.03979 0.221729 0
M  V30 19 H -2.2149 -1.09737 -1.03077 0
M  V30 20 H -1.96098 0.628555 -1.15922 0
M  V30 21 H -0.392172 -1.6374 -2.27082 0
M  V30 22 H -0.728883 -0.0625384 -2.92166 0
M  V30 23 H 0.123606 -1.66271 1.81453 0
M  V30 24 H -0.316583 -2.48929 0.203768 0
M  V30 25 H -2.13246 -2.06438 2.45487 0
M  V30 26 H -2.67943 -2.08613 0.67557 0
M  V30 27 H -1.47823 0.237733 2.36607 0
M  V30 28 H -2.75691 0.36253 1.01892 0
M  V30 29 H 0.982677 2.59864 0.943046 0
M  V30 30 H -0.636867 2.29423 1.58505 0
M  V30 31 H 0.268238 3.00275 -1.15132 0
M  V30 32 H -1.12581 3.42355 -0.263396 0
M  V30 33 H 0.414424 0.944943 2.64621 0
M  V30 END ATOM
M  V30 BEGIN BOND
M  V30 1 1 1 2
M  V30 2 1 2 3
M  V30 3 1 3 4
M  V30 4 1 4 5
M  V30 5 1 5 6
M  V30 6 1 6 7
M  V30 7 1 5 8
M  V30 8 1 8 9
M  V30 9 1 9 10
M  V30 10 1 4 11
M  V30 11 1 11 12
M  V30 12 1 4 13
M  V30 13 1 10 5
M  V30 14 1 1 14
M  V30 15 1 1 15
M  V30 16 1 1 16
M  V30 17 1 3 17
M  V30 18 1 3 18
M  V30 19 1 6 19
M  V30 20 1 6 20
M  V30 21 1 7 21
M  V30 22 1 7 22
M  V30 23 1 8 23
M  V30 24 1 8 24
M  V30 25 1 9 25
M  V30 26 1 9 26
M  V30 27 1 10 27
M  V30 28 1 10 28
M  V30 29 1 11 29
M  V30 30 1 11 30
M  V30 31 1 12 31
M  V30 32 1 12 32
M  V30 33 1 13 33
M  V30 END BOND
M  V30 END CTAB
M  END
