
     RDKit          3D

  0  0  0  0  0  0  0  0  0  0999 V3000
M  V30 BEGIN CTAB
M  V30 COUNTS 51 53 0 0 0
M  V30 BEGIN ATOM
M  V30 1 O -2.7703 -1.30021 -1.97604 0
M  V30 2 C -2.46907 -1.15564 -0.721292 0
M  V30 3 C -3.63015 -0.816615 0.101767 0
M  V30 4 C -4.2446 0.486792 -0.142686 0
M  V30 5 C -4.5725 1.28229 0.93342 0
M  V30 6 C -5.16821 2.53996 0.781942 0
M  V30 7 C -5.44186 3.01285 -0.461788 0
M  V30 8 C -5.12962 2.24976 -1.54189 0
M  V30 9 C -4.53894 1.00329 -1.38306 0
M  V30 10 N -3.33212 -0.914943 1.5009 0
M  V30 11 C -4.70833 -1.86002 -0.213025 0
M  V30 12 N -1.13514 -1.34335 -0.395021 0
M  V30 13 C -0.206305 -1.68887 -1.47905 0
M  V30 14 C 0.947471 -0.712419 -1.4401 0
M  V30 15 N 1.63598 -0.92162 -0.164374 0
M  V30 16 C 0.933424 -1.59556 0.896417 0
M  V30 17 C -0.549829 -1.22954 0.904283 0
M  V30 18 C 2.96136 -0.449022 -0.0357047 0
M  V30 19 C 3.58075 0.235496 -1.0643 0
M  V30 20 C 4.87391 0.706265 -0.966549 0
M  V30 21 C 5.5952 0.50175 0.182349 0
M  V30 22 C 5.02594 -0.166185 1.21865 0
M  V30 23 C 3.7164 -0.635732 1.10275 0
M  V30 24 S 7.22758 1.09852 0.300226 0
M  V30 25 O 7.85502 1.20587 -1.08194 0
M  V30 26 O 8.05365 0.170895 1.12863 0
M  V30 27 N 7.24896 2.7199 0.943664 0
M  V30 28 H -4.4009 0.999937 1.96141 0
M  V30 29 H -5.41622 3.14608 1.64269 0
M  V30 30 H -5.9087 4.00175 -0.546314 0
M  V30 31 H -5.36192 2.65698 -2.53127 0
M  V30 32 H -4.32452 0.450831 -2.27806 0
M  V30 33 H -3.36682 -1.84227 1.89131 0
M  V30 34 H -2.7873 -0.192093 1.9257 0
M  V30 35 H -4.21208 -2.82639 -0.461278 0
M  V30 36 H -5.36971 -2.03247 0.646008 0
M  V30 37 H -5.30434 -1.57197 -1.09777 0
M  V30 38 H -0.701074 -1.75092 -2.44916 0
M  V30 39 H 0.210983 -2.68637 -1.19213 0
M  V30 40 H 0.578194 0.313022 -1.48574 0
M  V30 41 H 1.60586 -0.942105 -2.30404 0
M  V30 42 H 1.31175 -1.29109 1.8794 0
M  V30 43 H 1.04084 -2.69428 0.726258 0
M  V30 44 H -0.550487 -0.150026 1.24177 0
M  V30 45 H -1.00249 -1.8889 1.67251 0
M  V30 46 H 3.07207 0.437346 -2.00833 0
M  V30 47 H 5.34259 1.2366 -1.77385 0
M  V30 48 H 5.57988 -0.33012 2.11711 0
M  V30 49 H 3.32945 -1.15046 1.94702 0
M  V30 50 H 6.64572 2.75013 1.80763 0
M  V30 51 H 8.23056 2.93287 1.23315 0
M  V30 END ATOM
M  V30 BEGIN BOND
M  V30 1 2 1 2
M  V30 2 1 2 3
M  V30 3 1 3 4
M  V30 4 2 4 5
M  V30 5 1 5 6
M  V30 6 2 6 7
M  V30 7 1 7 8
M  V30 8 2 8 9
M  V30 9 1 3 10
M  V30 10 1 3 11
M  V30 11 1 2 12
M  V30 12 1 12 13
M  V30 13 1 13 14
M  V30 14 1 14 15
M  V30 15 1 15 16
M  V30 16 1 16 17
M  V30 17 1 15 18
M  V30 18 2 18 19
M  V30 19 1 19 20
M  V30 20 2 20 21
M  V30 21 1 21 22
M  V30 22 2 22 23
M  V30 23 1 21 24
M  V30 24 2 24 25
M  V30 25 2 24 26
M  V30 26 1 24 27
M  V30 27 1 9 4
M  V30 28 1 17 12
M  V30 29 1 23 18
M  V30 30 1 5 28
M  V30 31 1 6 29
M  V30 32 1 7 30
M  V30 33 1 8 31
M  V30 34 1 9 32
M  V30 35 1 10 33
M  V30 36 1 10 34
M  V30 37 1 11 35
M  V30 38 1 11 36
M  V30 39 1 11 37
M  V30 40 1 13 38
M  V30 41 1 13 39
M  V30 42 1 14 40
M  V30 43 1 14 41
M  V30 44 1 16 42
M  V30 45 1 16 43
M  V30 46 1 17 44
M  V30 47 1 17 45
M  V30 48 1 19 46
M  V30 49 1 20 47
M  V30 50 1 22 48
M  V30 51 1 23 49
M  V30 52 1 27 50
M  V30 53 1 27 51
M  V30 END BOND
M  V30 END CTAB
M  END
