
     RDKit          3D

  0  0  0  0  0  0  0  0  0  0999 V3000
M  V30 BEGIN CTAB
M  V30 COUNTS 43 45 0 0 0
M  V30 BEGIN ATOM
M  V30 1 N -0.949305 -3.64918 -0.361475 0
M  V30 2 C -0.72955 -2.51796 -0.348605 0
M  V30 3 C -0.441328 -1.11297 -0.350315 0
M  V30 4 C -1.46426 -0.190836 -0.597874 0
M  V30 5 N -1.10447 1.1005 -0.579989 0
M  V30 6 C 0.110578 1.58424 -0.353567 0
M  V30 7 C 1.14016 0.668412 -0.105002 0
M  V30 8 C 0.85412 -0.678081 -0.105497 0
M  V30 9 C 1.88071 -1.56928 0.140883 0
M  V30 10 C 3.16215 -1.12445 0.381848 0
M  V30 11 S 4.49882 -2.29503 0.701713 0
M  V30 12 C 6.0223 -1.37321 0.968559 0
M  V30 13 C 6.45827 -0.674541 -0.246423 0
M  V30 14 O 5.78074 -0.770685 -1.29644 0
M  V30 15 O 7.59768 0.0887537 -0.267378 0
M  V30 16 N 3.38007 0.191263 0.369854 0
M  V30 17 C 2.43435 1.11477 0.138483 0
M  V30 18 N 2.72153 2.50829 0.136904 0
M  V30 19 N 0.406785 2.97216 -0.352262 0
M  V30 20 N -2.78361 -0.629789 -0.848304 0
M  V30 21 C -3.81811 -0.204931 0.0085467 0
M  V30 22 C -4.20879 -0.880402 1.14377 0
M  V30 23 C -5.24206 -0.352465 1.89755 0
M  V30 24 C -5.86907 0.822185 1.52506 0
M  V30 25 C -5.48495 1.50841 0.387537 0
M  V30 26 C -4.46599 0.981221 -0.34943 0
M  V30 27 C -3.07587 -1.49473 -1.9565 0
M  V30 28 H 1.71041 -2.63455 0.152037 0
M  V30 29 H 6.83719 -2.07936 1.27653 0
M  V30 30 H 5.85547 -0.673929 1.82329 0
M  V30 31 H 7.70633 0.996504 0.14459 0
M  V30 32 H 2.63574 3.11456 0.992171 0
M  V30 33 H 3.0381 2.99934 -0.738257 0
M  V30 34 H 0.321116 3.53961 0.503892 0
M  V30 35 H 0.713463 3.41029 -1.23455 0
M  V30 36 H -3.69598 -1.79197 1.4008 0
M  V30 37 H -5.55195 -0.894639 2.80404 0
M  V30 38 H -6.67838 1.24824 2.10326 0
M  V30 39 H -5.96301 2.43376 0.07393 0
M  V30 40 H -4.16615 1.53106 -1.25092 0
M  V30 41 H -3.84597 -1.06492 -2.6495 0
M  V30 42 H -3.53402 -2.4613 -1.59765 0
M  V30 43 H -2.19325 -1.69435 -2.59488 0
M  V30 END ATOM
M  V30 BEGIN BOND
M  V30 1 3 1 2
M  V30 2 1 2 3
M  V30 3 2 3 4
M  V30 4 1 4 5
M  V30 5 2 5 6
M  V30 6 1 6 7
M  V30 7 2 7 8
M  V30 8 1 8 9
M  V30 9 2 9 10
M  V30 10 1 10 11
M  V30 11 1 11 12
M  V30 12 1 12 13
M  V30 13 2 13 14
M  V30 14 1 13 15
M  V30 15 1 10 16
M  V30 16 2 16 17
M  V30 17 1 17 18
M  V30 18 1 6 19
M  V30 19 1 4 20
M  V30 20 1 20 21
M  V30 21 2 21 22
M  V30 22 1 22 23
M  V30 23 2 23 24
M  V30 24 1 24 25
M  V30 25 2 25 26
M  V30 26 1 20 27
M  V30 27 1 8 3
M  V30 28 1 26 21
M  V30 29 1 17 7
M  V30 30 1 9 28
M  V30 31 1 12 29
M  V30 32 1 12 30
M  V30 33 1 15 31
M  V30 34 1 18 32
M  V30 35 1 18 33
M  V30 36 1 19 34
M  V30 37 1 19 35
M  V30 38 1 22 36
M  V30 39 1 23 37
M  V30 40 1 24 38
M  V30 41 1 25 39
M  V30 42 1 26 40
M  V30 43 1 27 41
M  V30 44 1 27 42
M  V30 45 1 27 43
M  V30 END BOND
M  V30 END CTAB
M  END
