
     RDKit          3D

  0  0  0  0  0  0  0  0  0  0999 V3000
M  V30 BEGIN CTAB
M  V30 COUNTS 27 29 0 0 0
M  V30 BEGIN ATOM
M  V30 1 N 4.36319 1.71791 -0.822422 0
M  V30 2 C 3.26799 0.856427 -0.516872 0
M  V30 3 C 1.96383 1.30908 -0.491381 0
M  V30 4 C 0.878096 0.51026 -0.201104 0
M  V30 5 N -0.391684 0.977056 -0.182258 0
M  V30 6 C -1.4459 0.191915 0.101769 0
M  V30 7 C -2.74637 0.668095 0.121507 0
M  V30 8 N -2.96123 2.04498 -0.172354 0
M  V30 9 C -3.82362 -0.132092 0.411261 0
M  V30 10 C -3.60699 -1.45858 0.693401 0
M  V30 11 C -2.3273 -1.97289 0.684446 0
M  V30 12 C -1.26714 -1.1435 0.389697 0
M  V30 13 C 0.0322079 -1.64138 0.375038 0
M  V30 14 C 1.10188 -0.821267 0.0814747 0
M  V30 15 C 2.39678 -1.30602 0.0642477 0
M  V30 16 C 3.47075 -0.492323 -0.22827 0
M  V30 17 H 5.05432 2.05979 -0.12073 0
M  V30 18 H 4.48403 2.02573 -1.79941 0
M  V30 19 H 1.78417 2.34736 -0.711213 0
M  V30 20 H -2.40988 2.45156 -0.949355 0
M  V30 21 H -3.64055 2.60542 0.372539 0
M  V30 22 H -4.83162 0.260974 0.421076 0
M  V30 23 H -4.43924 -2.11647 0.926337 0
M  V30 24 H -2.11777 -3.01063 0.901204 0
M  V30 25 H 0.218146 -2.68512 0.595499 0
M  V30 26 H 2.51838 -2.35445 0.292154 0
M  V30 27 H 4.47552 -0.891833 -0.236283 0
M  V30 END ATOM
M  V30 BEGIN BOND
M  V30 1 1 1 2
M  V30 2 2 2 3
M  V30 3 1 3 4
M  V30 4 2 4 5
M  V30 5 1 5 6
M  V30 6 2 6 7
M  V30 7 1 7 8
M  V30 8 1 7 9
M  V30 9 2 9 10
M  V30 10 1 10 11
M  V30 11 2 11 12
M  V30 12 1 12 13
M  V30 13 2 13 14
M  V30 14 1 14 15
M  V30 15 2 15 16
M  V30 16 1 16 2
M  V30 17 1 14 4
M  V30 18 1 12 6
M  V30 19 1 1 17
M  V30 20 1 1 18
M  V30 21 1 3 19
M  V30 22 1 8 20
M  V30 23 1 8 21
M  V30 24 1 9 22
M  V30 25 1 10 23
M  V30 26 1 11 24
M  V30 27 1 13 25
M  V30 28 1 15 26
M  V30 29 1 16 27
M  V30 END BOND
M  V30 END CTAB
M  END
