
     RDKit          3D

  0  0  0  0  0  0  0  0  0  0999 V3000
M  V30 BEGIN CTAB
M  V30 COUNTS 52 56 0 0 0
M  V30 BEGIN ATOM
M  V30 1 N 2.8375 1.12135 -2.02222 0
M  V30 2 C 2.93504 -0.109107 -1.3372 0 CFG=2
M  V30 3 C 1.56905 -0.644414 -0.919671 0
M  V30 4 N 1.6684 -1.06599 0.438891 0
M  V30 5 C 3.07372 -1.06564 0.774348 0
M  V30 6 C 3.57398 0.146791 0.017965 0 CFG=1
M  V30 7 C 5.05001 0.17491 -0.0642865 0
M  V30 8 C 5.7596 -0.883525 -0.536706 0
M  V30 9 C 7.14532 -0.820624 -0.599184 0
M  V30 10 C 7.85002 0.291738 -0.19468 0
M  V30 11 C 7.1251 1.36538 0.284848 0
M  V30 12 C 5.73813 1.29794 0.345578 0
M  V30 13 C 0.947734 -0.2433 1.38409 0
M  V30 14 C -0.509106 -0.224823 1.10981 0
M  V30 15 N -1.33274 0.545843 1.79871 0
M  V30 16 C -2.65205 0.624279 1.62381 0
M  V30 17 N -3.36768 1.506 2.46095 0
M  V30 18 C -3.27782 -0.155424 0.637309 0
M  V30 19 C -2.42486 -0.949288 -0.0712737 0
M  V30 20 N -1.07116 -0.989942 0.152277 0
M  V30 21 S -3.44022 -1.76221 -1.16964 0
M  V30 22 C -4.92416 -1.09056 -0.720737 0
M  V30 23 C -4.59275 -0.216382 0.310121 0
M  V30 24 C -5.81394 0.507915 0.866584 0
M  V30 25 C -6.53987 1.12043 -0.295576 0
M  V30 26 C -6.81609 0.198776 -1.41942 0
M  V30 27 C -6.37098 -1.22317 -1.15175 0
M  V30 28 H 3.50271 1.8066 -1.73598 0
M  V30 29 H 1.92758 1.4384 -2.20486 0
M  V30 30 H 3.49775 -0.888532 -1.90379 0
M  V30 31 H 0.851319 0.181256 -1.10184 0
M  V30 32 H 1.34334 -1.52201 -1.57367 0
M  V30 33 H 3.24035 -0.967391 1.86592 0
M  V30 34 H 3.51793 -1.98127 0.358466 0
M  V30 35 H 3.15879 1.07245 0.418016 0
M  V30 36 H 5.21427 -1.76096 -0.856447 0
M  V30 37 H 7.70112 -1.68066 -0.98173 0
M  V30 38 H 8.92676 0.289837 -0.263731 0
M  V30 39 H 7.68175 2.23856 0.602158 0
M  V30 40 H 5.21307 2.16326 0.728314 0
M  V30 41 H 1.28512 0.829598 1.28032 0
M  V30 42 H 1.17608 -0.544661 2.42323 0
M  V30 43 H -3.86742 1.1799 3.29753 0
M  V30 44 H -3.38914 2.52106 2.22154 0
M  V30 45 H -6.50218 -0.246856 1.32505 0
M  V30 46 H -5.59926 1.25586 1.59251 0
M  V30 47 H -7.48628 1.59521 0.0294667 0
M  V30 48 H -5.90377 1.96624 -0.691124 0
M  V30 49 H -7.90289 0.156096 -1.61808 0
M  V30 50 H -6.33867 0.521042 -2.36601 0
M  V30 51 H -6.9741 -1.75603 -0.42177 0
M  V30 52 H -6.41439 -1.74896 -2.12643 0
M  V30 END ATOM
M  V30 BEGIN BOND
M  V30 1 1 1 2
M  V30 2 1 2 3
M  V30 3 1 3 4
M  V30 4 1 4 5
M  V30 5 1 5 6
M  V30 6 1 6 7
M  V30 7 2 7 8
M  V30 8 1 8 9
M  V30 9 2 9 10
M  V30 10 1 10 11
M  V30 11 2 11 12
M  V30 12 1 4 13
M  V30 13 1 13 14
M  V30 14 2 14 15
M  V30 15 1 15 16
M  V30 16 1 16 17
M  V30 17 2 16 18
M  V30 18 1 18 19
M  V30 19 2 19 20
M  V30 20 1 19 21
M  V30 21 1 21 22
M  V30 22 2 22 23
M  V30 23 1 23 24
M  V30 24 1 24 25
M  V30 25 1 25 26
M  V30 26 1 26 27
M  V30 27 1 6 2
M  V30 28 1 12 7
M  V30 29 1 20 14
M  V30 30 1 27 22
M  V30 31 1 23 18
M  V30 32 1 1 28
M  V30 33 1 1 29
M  V30 34 1 2 30 CFG=3
M  V30 35 1 3 31
M  V30 36 1 3 32
M  V30 37 1 5 33
M  V30 38 1 5 34
M  V30 39 1 6 35 CFG=1
M  V30 40 1 8 36
M  V30 41 1 9 37
M  V30 42 1 10 38
M  V30 43 1 11 39
M  V30 44 1 12 40
M  V30 45 1 13 41
M  V30 46 1 13 42
M  V30 47 1 17 43
M  V30 48 1 17 44
M  V30 49 1 24 45
M  V30 50 1 24 46
M  V30 51 1 25 47
M  V30 52 1 25 48
M  V30 53 1 26 49
M  V30 54 1 26 50
M  V30 55 1 27 51
M  V30 56 1 27 52
M  V30 END BOND
M  V30 END CTAB
M  END
