
     RDKit          3D

  0  0  0  0  0  0  0  0  0  0999 V3000
M  V30 BEGIN CTAB
M  V30 COUNTS 99 98 0 0 0
M  V30 BEGIN ATOM
M  V30 1 C 3.92701 -1.55827 2.97797 0
M  V30 2 C 3.34412 -0.205482 2.72592 0
M  V30 3 C 2.28126 0.0365336 3.80974 0
M  V30 4 C 2.60886 -0.149181 1.41194 0
M  V30 5 C 3.43964 -0.448128 0.215369 0 CFG=2
M  V30 6 N 4.55064 0.422917 -0.0106794 0
M  V30 7 C 5.83517 -0.0546359 -0.344118 0
M  V30 8 O 5.96621 -1.3245 -0.441915 0
M  V30 9 C 7.02668 0.7921 -0.586931 0 CFG=1
M  V30 10 N 6.84289 2.1787 -0.25871 0
M  V30 11 C 8.28043 0.164358 -0.0648026 0
M  V30 12 C 8.31666 -0.122285 1.38911 0
M  V30 13 C 8.22657 1.05963 2.29877 0
M  V30 14 C 9.41732 1.98352 2.09066 0
M  V30 15 N 9.27729 3.09894 2.98513 0
M  V30 16 C 2.50455 -0.524582 -0.96494 0
M  V30 17 O 2.77921 0.169525 -1.96076 0
M  V30 18 N 1.36998 -1.3435 -0.952623 0
M  V30 19 C 0.49541 -1.38501 -2.14151 0 CFG=1
M  V30 20 C 0.682689 -2.75633 -2.68438 0
M  V30 21 C 0.321951 -3.88751 -1.78894 0
M  V30 22 C 0.106092 -2.95683 -4.05748 0
M  V30 23 C -0.864013 -0.969298 -1.73352 0
M  V30 24 O -0.968784 -0.732835 -0.482082 0
M  V30 25 N -1.96038 -0.822661 -2.58806 0
M  V30 26 C -3.29111 -0.416657 -2.49904 0 CFG=1
M  V30 27 C -4.37335 -1.38328 -2.69924 0
M  V30 28 C -4.53673 -2.54569 -1.82601 0
M  V30 29 C -4.74776 -2.30581 -0.360733 0
M  V30 30 C -3.49341 -3.62096 -1.97136 0
M  V30 31 C -3.66792 0.549723 -1.41275 0
M  V30 32 O -2.8853 0.976346 -0.549157 0
M  V30 33 N -5.01341 1.06202 -1.31531 0
M  V30 34 C -5.40834 2.00975 -0.295718 0 CFG=1
M  V30 35 C -5.58758 3.40122 -0.899583 0
M  V30 36 C -6.57127 1.59747 0.483953 0
M  V30 37 O -7.16529 0.475929 0.346047 0
M  V30 38 N -7.14665 2.44074 1.47983 0
M  V30 39 C -8.30676 2.04254 2.26309 0 CFG=1
M  V30 40 C -8.20208 2.65208 3.62166 0
M  V30 41 O -8.16739 4.0673 3.52234 0
M  V30 42 C -9.55507 2.56616 1.5934 0
M  V30 43 O -10.7772 2.32661 2.17154 0
M  V30 44 O -9.47829 3.20848 0.529773 0
M  V30 45 H 3.22464 -2.37131 2.65863 0
M  V30 46 H 4.8221 -1.66569 2.34416 0
M  V30 47 H 4.20795 -1.73796 4.02044 0
M  V30 48 H 4.09932 0.571796 2.83964 0
M  V30 49 H 1.78073 1.00148 3.55387 0
M  V30 50 H 2.73588 0.0107733 4.80377 0
M  V30 51 H 1.46852 -0.733893 3.69011 0
M  V30 52 H 2.18671 0.872567 1.30137 0
M  V30 53 H 1.78773 -0.890022 1.46127 0
M  V30 54 H 3.84386 -1.51134 0.266811 0
M  V30 55 H 4.39677 1.44317 0.0762507 0
M  V30 56 H 7.18401 0.807095 -1.72965 0
M  V30 57 H 7.65655 2.74642 -0.644881 0
M  V30 58 H 5.93784 2.58695 -0.47307 0
M  V30 59 H 9.18797 0.790779 -0.293898 0
M  V30 60 H 8.46556 -0.78378 -0.628056 0
M  V30 61 H 9.31367 -0.613025 1.61094 0
M  V30 62 H 7.57544 -0.885848 1.71503 0
M  V30 63 H 7.26233 1.57591 2.21149 0
M  V30 64 H 8.25867 0.668649 3.3517 0
M  V30 65 H 10.3359 1.38829 2.34538 0
M  V30 66 H 9.52467 2.28288 1.04787 0
M  V30 67 H 8.32264 3.46148 3.07008 0
M  V30 68 H 9.98372 3.81004 2.75129 0
M  V30 69 H 1.09195 -1.93724 -0.148987 0
M  V30 70 H 0.954266 -0.64966 -2.85371 0
M  V30 71 H 1.82432 -2.92071 -2.861 0
M  V30 72 H -0.19726 -3.58063 -0.859816 0
M  V30 73 H -0.368796 -4.6167 -2.29019 0
M  V30 74 H 1.18298 -4.51217 -1.44459 0
M  V30 75 H -0.957037 -3.27122 -4.05494 0
M  V30 76 H 0.156707 -2.01489 -4.66828 0
M  V30 77 H 0.722765 -3.67714 -4.66395 0
M  V30 78 H -1.7157 -1.09518 -3.64289 0
M  V30 79 H -3.41164 0.34444 -3.39952 0
M  V30 80 H -4.1658 -1.84334 -3.74672 0
M  V30 81 H -5.32782 -0.860137 -2.89736 0
M  V30 82 H -5.49825 -3.06206 -2.17122 0
M  V30 83 H -3.91115 -1.74761 0.112941 0
M  V30 84 H -5.75117 -1.94949 -0.106612 0
M  V30 85 H -4.68616 -3.33184 0.120713 0
M  V30 86 H -3.95482 -4.64074 -1.79402 0
M  V30 87 H -2.7143 -3.54101 -1.17833 0
M  V30 88 H -3.02755 -3.65488 -2.9541 0
M  V30 89 H -5.70433 0.752666 -1.99423 0
M  V30 90 H -4.53345 2.11747 0.390636 0
M  V30 91 H -6.48135 3.46777 -1.51944 0
M  V30 92 H -4.69393 3.5714 -1.53638 0
M  V30 93 H -5.52858 4.11787 -0.0709433 0
M  V30 94 H -6.69243 3.36977 1.63133 0
M  V30 95 H -8.40383 0.951071 2.3361 0
M  V30 96 H -9.10589 2.40002 4.24846 0
M  V30 97 H -7.34072 2.31297 4.2014 0
M  V30 98 H -9.11549 4.37144 3.4939 0
M  V30 99 H -11.6413 2.53521 1.68817 0
M  V30 END ATOM
M  V30 BEGIN BOND
M  V30 1 1 1 2
M  V30 2 1 2 3
M  V30 3 1 2 4
M  V30 4 1 4 5
M  V30 5 1 5 6
M  V30 6 1 6 7
M  V30 7 2 7 8
M  V30 8 1 7 9
M  V30 9 1 9 10
M  V30 10 1 9 11
M  V30 11 1 11 12
M  V30 12 1 12 13
M  V30 13 1 13 14
M  V30 14 1 14 15
M  V30 15 1 5 16
M  V30 16 2 16 17
M  V30 17 1 16 18
M  V30 18 1 18 19
M  V30 19 1 19 20
M  V30 20 1 20 21
M  V30 21 1 20 22
M  V30 22 1 19 23
M  V30 23 2 23 24
M  V30 24 1 23 25
M  V30 25 1 25 26
M  V30 26 1 26 27
M  V30 27 1 27 28
M  V30 28 1 28 29
M  V30 29 1 28 30
M  V30 30 1 26 31
M  V30 31 2 31 32
M  V30 32 1 31 33
M  V30 33 1 33 34
M  V30 34 1 34 35
M  V30 35 1 34 36
M  V30 36 2 36 37
M  V30 37 1 36 38
M  V30 38 1 38 39
M  V30 39 1 39 40
M  V30 40 1 40 41
M  V30 41 1 39 42
M  V30 42 1 42 43
M  V30 43 2 42 44
M  V30 44 1 1 45
M  V30 45 1 1 46
M  V30 46 1 1 47
M  V30 47 1 2 48
M  V30 48 1 3 49
M  V30 49 1 3 50
M  V30 50 1 3 51
M  V30 51 1 4 52
M  V30 52 1 4 53
M  V30 53 1 5 54 CFG=1
M  V30 54 1 6 55
M  V30 55 1 9 56 CFG=3
M  V30 56 1 10 57
M  V30 57 1 10 58
M  V30 58 1 11 59
M  V30 59 1 11 60
M  V30 60 1 12 61
M  V30 61 1 12 62
M  V30 62 1 13 63
M  V30 63 1 13 64
M  V30 64 1 14 65
M  V30 65 1 14 66
M  V30 66 1 15 67
M  V30 67 1 15 68
M  V30 68 1 18 69
M  V30 69 1 19 70 CFG=3
M  V30 70 1 20 71
M  V30 71 1 21 72
M  V30 72 1 21 73
M  V30 73 1 21 74
M  V30 74 1 22 75
M  V30 75 1 22 76
M  V30 76 1 22 77
M  V30 77 1 25 78
M  V30 78 1 26 79 CFG=3
M  V30 79 1 27 80
M  V30 80 1 27 81
M  V30 81 1 28 82
M  V30 82 1 29 83
M  V30 83 1 29 84
M  V30 84 1 29 85
M  V30 85 1 30 86
M  V30 86 1 30 87
M  V30 87 1 30 88
M  V30 88 1 33 89
M  V30 89 1 34 90 CFG=1
M  V30 90 1 35 91
M  V30 91 1 35 92
M  V30 92 1 35 93
M  V30 93 1 38 94
M  V30 94 1 39 95 CFG=1
M  V30 95 1 40 96
M  V30 96 1 40 97
M  V30 97 1 41 98
M  V30 98 1 43 99
M  V30 END BOND
M  V30 END CTAB
M  END
