
     RDKit          3D

  0  0  0  0  0  0  0  0  0  0999 V3000
M  V30 BEGIN CTAB
M  V30 COUNTS 35 36 0 0 0
M  V30 BEGIN ATOM
M  V30 1 N -0.854284 -2.26919 -0.973513 0
M  V30 2 C -1.91185 -1.4483 -0.549127 0
M  V30 3 N -3.15248 -2.01423 -0.589839 0
M  V30 4 C -4.26133 -1.40585 -0.243072 0
M  V30 5 C -4.11934 -0.0809517 0.193979 0
M  V30 6 C -2.87786 0.495212 0.242795 0
M  V30 7 C -1.69643 -0.190793 -0.139552 0
M  V30 8 C -0.461291 0.505412 0.0421116 0 CFG=2
M  V30 9 C -0.704186 1.9598 -0.380002 0
M  V30 10 N -0.0216326 2.77404 0.604083 0
M  V30 11 C 1.32451 2.26189 0.624681 0
M  V30 12 C 1.6353 1.31726 -0.517523 0
M  V30 13 N 0.770347 0.082074 -0.450107 0
M  V30 14 C 1.55827 -0.747371 0.471861 0
M  V30 15 C 2.77613 -1.30682 -0.18646 0
M  V30 16 N 3.58818 -2.06482 0.7411 0
M  V30 17 H -0.331876 -2.16644 -1.89682 0
M  V30 18 H -0.539737 -3.04419 -0.361265 0
M  V30 19 H -5.25222 -1.81062 -0.277087 0
M  V30 20 H -4.97104 0.48339 0.52467 0
M  V30 21 H -2.81709 1.51966 0.646036 0
M  V30 22 H -0.34492 0.563502 1.21411 0
M  V30 23 H -0.150747 2.17649 -1.36567 0
M  V30 24 H -1.7434 2.18377 -0.559492 0
M  V30 25 H -0.0644422 3.78986 0.359561 0
M  V30 26 H 1.99814 3.14037 0.47122 0
M  V30 27 H 1.60463 1.83002 1.57349 0
M  V30 28 H 1.64115 1.79196 -1.48442 0
M  V30 29 H 2.71932 1.02571 -0.305155 0
M  V30 30 H 1.89011 -0.0803795 1.30889 0
M  V30 31 H 0.992632 -1.54009 0.965936 0
M  V30 32 H 3.34979 -0.642954 -0.831478 0
M  V30 33 H 2.3889 -2.09768 -0.935756 0
M  V30 34 H 3.43322 -3.08515 0.639449 0
M  V30 35 H 4.60552 -1.90459 0.486725 0
M  V30 END ATOM
M  V30 BEGIN BOND
M  V30 1 1 1 2
M  V30 2 2 2 3
M  V30 3 1 3 4
M  V30 4 2 4 5
M  V30 5 1 5 6
M  V30 6 2 6 7
M  V30 7 1 7 8
M  V30 8 1 8 9
M  V30 9 1 9 10
M  V30 10 1 10 11
M  V30 11 1 11 12
M  V30 12 1 12 13
M  V30 13 1 13 14
M  V30 14 1 14 15
M  V30 15 1 15 16
M  V30 16 1 7 2
M  V30 17 1 13 8
M  V30 18 1 1 17
M  V30 19 1 1 18
M  V30 20 1 4 19
M  V30 21 1 5 20
M  V30 22 1 6 21
M  V30 23 1 8 22 CFG=1
M  V30 24 1 9 23
M  V30 25 1 9 24
M  V30 26 1 10 25
M  V30 27 1 11 26
M  V30 28 1 11 27
M  V30 29 1 12 28
M  V30 30 1 12 29
M  V30 31 1 14 30
M  V30 32 1 14 31
M  V30 33 1 15 32
M  V30 34 1 15 33
M  V30 35 1 16 34
M  V30 36 1 16 35
M  V30 END BOND
M  V30 END CTAB
M  END
