
     RDKit          3D

  0  0  0  0  0  0  0  0  0  0999 V3000
M  V30 BEGIN CTAB
M  V30 COUNTS 18 19 0 0 0
M  V30 BEGIN ATOM
M  V30 1 N 3.06624 0.522181 -0.0753279 0
M  V30 2 C 1.78354 -0.0869387 -0.0437988 0
M  V30 3 C 1.63086 -1.46719 -0.0362995 0
M  V30 4 N 0.417046 -2.0471 -0.00644632 0
M  V30 5 C -0.727515 -1.33972 0.018114 0
M  V30 6 C -0.63261 0.049156 0.0119339 0
M  V30 7 C 0.6133 0.652237 -0.0187309 0
M  V30 8 C -1.91814 0.542257 0.0403844 0
M  V30 9 N -2.32507 1.89961 0.0459458 0
M  V30 10 N -2.76152 -0.501431 0.062964 0
M  V30 11 N -2.04527 -1.63856 0.0495796 0
M  V30 12 H 3.65958 0.474413 0.781978 0
M  V30 13 H 3.43031 1.00529 -0.905087 0
M  V30 14 H 2.53903 -2.0727 -0.0556669 0
M  V30 15 H 0.698103 1.73426 -0.023792 0
M  V30 16 H -2.70837 2.37675 -0.818054 0
M  V30 17 H -2.26471 2.49614 0.910471 0
M  V30 18 H -2.4548 -2.59867 0.0618336 0
M  V30 END ATOM
M  V30 BEGIN BOND
M  V30 1 1 1 2
M  V30 2 2 2 3
M  V30 3 1 3 4
M  V30 4 2 4 5
M  V30 5 1 5 6
M  V30 6 2 6 7
M  V30 7 1 6 8
M  V30 8 1 8 9
M  V30 9 2 8 10
M  V30 10 1 10 11
M  V30 11 1 7 2
M  V30 12 1 11 5
M  V30 13 1 1 12
M  V30 14 1 1 13
M  V30 15 1 3 14
M  V30 16 1 7 15
M  V30 17 1 9 16
M  V30 18 1 9 17
M  V30 19 1 11 18
M  V30 END BOND
M  V30 END CTAB
M  END
