
     RDKit          3D

  0  0  0  0  0  0  0  0  0  0999 V3000
M  V30 BEGIN CTAB
M  V30 COUNTS 28 28 0 0 0
M  V30 BEGIN ATOM
M  V30 1 N -3.14227 -0.669416 1.39723 0
M  V30 2 C -2.26416 -0.0625144 0.454231 0
M  V30 3 C -1.28566 -1.03664 -0.165235 0
M  V30 4 C -0.428585 -0.336552 -1.11339 0
M  V30 5 C -0.658672 -0.276974 -2.48103 0
M  V30 6 N 0.327965 0.448497 -3.02897 0
M  V30 7 C 1.14626 0.827082 -2.02472 0
M  V30 8 N 0.690345 0.351431 -0.853273 0
M  V30 9 C 1.30918 0.560864 0.424309 0
M  V30 10 C 1.88201 1.97143 0.543542 0
M  V30 11 C 2.51992 -0.374018 0.588097 0
M  V30 12 N -0.618873 -1.85227 0.808096 0
M  V30 13 H -4.13804 -0.524851 1.07477 0
M  V30 14 H -3.07951 -0.240078 2.33613 0
M  V30 15 H -2.82423 0.435306 -0.364708 0
M  V30 16 H -1.67367 0.734833 0.948938 0
M  V30 17 H -1.93878 -1.75772 -0.742546 0
M  V30 18 H -1.4946 -0.744716 -2.97605 0
M  V30 19 H 2.02628 1.42185 -2.17149 0
M  V30 20 H 0.659627 0.323051 1.29025 0
M  V30 21 H 1.8928 2.47984 -0.430861 0
M  V30 22 H 2.88184 1.98061 1.00614 0
M  V30 23 H 1.20929 2.50985 1.27259 0
M  V30 24 H 2.30951 -1.35679 0.145386 0
M  V30 25 H 3.36839 0.13573 0.0641327 0
M  V30 26 H 2.7634 -0.431179 1.65411 0
M  V30 27 H -0.566435 -2.86063 0.561947 0
M  V30 28 H -0.873358 -1.65602 1.78237 0
M  V30 END ATOM
M  V30 BEGIN BOND
M  V30 1 1 1 2
M  V30 2 1 2 3
M  V30 3 1 3 4
M  V30 4 2 4 5
M  V30 5 1 5 6
M  V30 6 2 6 7
M  V30 7 1 7 8
M  V30 8 1 8 9
M  V30 9 1 9 10
M  V30 10 1 9 11
M  V30 11 1 3 12
M  V30 12 1 8 4
M  V30 13 1 1 13
M  V30 14 1 1 14
M  V30 15 1 2 15
M  V30 16 1 2 16
M  V30 17 1 3 17
M  V30 18 1 5 18
M  V30 19 1 7 19
M  V30 20 1 9 20
M  V30 21 1 10 21
M  V30 22 1 10 22
M  V30 23 1 10 23
M  V30 24 1 11 24
M  V30 25 1 11 25
M  V30 26 1 11 26
M  V30 27 1 12 27
M  V30 28 1 12 28
M  V30 END BOND
M  V30 END CTAB
M  END
