
     RDKit          3D

  0  0  0  0  0  0  0  0  0  0999 V3000
M  V30 BEGIN CTAB
M  V30 COUNTS 46 48 0 0 0
M  V30 BEGIN ATOM
M  V30 1 C -6.31352 -2.4167 0.204487 0
M  V30 2 C -5.30208 -1.33678 0.0775286 0
M  V30 3 C -4.98198 -0.806057 -1.16342 0
M  V30 4 C -4.04722 0.187387 -1.24983 0
M  V30 5 C -3.38276 0.712873 -0.162592 0
M  V30 6 C -3.70796 0.177642 1.07254 0
M  V30 7 C -4.6549 -0.83533 1.20275 0
M  V30 8 S -2.20352 1.96317 -0.244419 0
M  V30 9 O -2.24419 2.73257 1.04665 0
M  V30 10 O -2.60003 2.92137 -1.32998 0
M  V30 11 N -0.596129 1.3911 -0.44979 0
M  V30 12 C -0.311655 0.569928 0.742421 0
M  V30 13 C 1.16175 0.25417 0.752838 0
M  V30 14 N 1.509 -0.384543 -0.45961 0
M  V30 15 C 0.369327 -0.710766 -1.24101 0
M  V30 16 C -0.472983 0.501065 -1.59951 0
M  V30 17 C 2.56048 0.252499 -1.20213 0
M  V30 18 C 3.78785 0.27026 -0.378367 0
M  V30 19 N 3.84353 -0.389571 0.78616 0
M  V30 20 C 4.91418 -0.419443 1.5837 0
M  V30 21 N 4.8819 -1.1476 2.8014 0
M  V30 22 N 6.00694 0.264699 1.17842 0
M  V30 23 C 5.98823 0.939757 0.0135474 0
M  V30 24 N 4.90151 0.940882 -0.74608 0
M  V30 25 N 7.15105 1.63879 -0.368035 0
M  V30 26 H -7.04677 -2.26704 -0.618804 0
M  V30 27 H -6.79734 -2.32308 1.19216 0
M  V30 28 H -5.83061 -3.40099 0.0637145 0
M  V30 29 H -5.50086 -1.21114 -2.04696 0
M  V30 30 H -3.79019 0.60766 -2.20909 0
M  V30 31 H -3.21459 0.553532 1.96653 0
M  V30 32 H -4.92326 -1.26557 2.15222 0
M  V30 33 H -0.499887 1.17421 1.66658 0
M  V30 34 H -0.876209 -0.362202 0.757872 0
M  V30 35 H 1.78166 1.17036 0.88286 0
M  V30 36 H 1.42021 -0.369423 1.6577 0
M  V30 37 H -0.204 -1.50521 -0.774936 0
M  V30 38 H 0.75018 -1.10156 -2.2316 0
M  V30 39 H -0.0446039 1.03328 -2.46194 0
M  V30 40 H -1.45683 0.0998523 -1.908 0
M  V30 41 H 2.27368 1.26441 -1.56628 0
M  V30 42 H 2.78578 -0.406458 -2.08849 0
M  V30 43 H 5.12467 -2.15067 2.83401 0
M  V30 44 H 4.60776 -0.654512 3.67107 0
M  V30 45 H 7.67597 1.41269 -1.22183 0
M  V30 46 H 7.50843 2.43048 0.240964 0
M  V30 END ATOM
M  V30 BEGIN BOND
M  V30 1 1 1 2
M  V30 2 2 2 3
M  V30 3 1 3 4
M  V30 4 2 4 5
M  V30 5 1 5 6
M  V30 6 2 6 7
M  V30 7 1 5 8
M  V30 8 2 8 9
M  V30 9 2 8 10
M  V30 10 1 8 11
M  V30 11 1 11 12
M  V30 12 1 12 13
M  V30 13 1 13 14
M  V30 14 1 14 15
M  V30 15 1 15 16
M  V30 16 1 14 17
M  V30 17 1 17 18
M  V30 18 2 18 19
M  V30 19 1 19 20
M  V30 20 1 20 21
M  V30 21 2 20 22
M  V30 22 1 22 23
M  V30 23 2 23 24
M  V30 24 1 23 25
M  V30 25 1 7 2
M  V30 26 1 16 11
M  V30 27 1 24 18
M  V30 28 1 1 26
M  V30 29 1 1 27
M  V30 30 1 1 28
M  V30 31 1 3 29
M  V30 32 1 4 30
M  V30 33 1 6 31
M  V30 34 1 7 32
M  V30 35 1 12 33
M  V30 36 1 12 34
M  V30 37 1 13 35
M  V30 38 1 13 36
M  V30 39 1 15 37
M  V30 40 1 15 38
M  V30 41 1 16 39
M  V30 42 1 16 40
M  V30 43 1 17 41
M  V30 44 1 17 42
M  V30 45 1 21 43
M  V30 46 1 21 44
M  V30 47 1 25 45
M  V30 48 1 25 46
M  V30 END BOND
M  V30 END CTAB
M  END
