
     RDKit          3D

  0  0  0  0  0  0  0  0  0  0999 V3000
M  V30 BEGIN CTAB
M  V30 COUNTS 43 44 0 0 0
M  V30 BEGIN ATOM
M  V30 1 C -5.8239 1.78793 1.63553 0
M  V30 2 N -4.58579 2.29663 1.10154 0
M  V30 3 S -3.28307 1.39409 1.70246 0
M  V30 4 O -2.35751 2.37731 2.41922 0
M  V30 5 O -3.78661 0.496993 2.81942 0
M  V30 6 C -2.36884 0.512822 0.53508 0
M  V30 7 C -1.01674 0.844892 0.318338 0
M  V30 8 C -0.221685 0.212613 -0.597304 0
M  V30 9 C -0.808611 -0.796903 -1.32747 0
M  V30 10 C -2.12248 -1.16412 -1.15884 0
M  V30 11 C -2.91608 -0.494641 -0.207815 0
M  V30 12 C -4.32216 -0.90699 -0.0203194 0
M  V30 13 C -2.7575 -2.25304 -1.94633 0
M  V30 14 C 1.18907 0.581241 -0.802403 0
M  V30 15 O 1.73933 1.49009 -0.153847 0
M  V30 16 O 1.95194 -0.0864575 -1.73898 0
M  V30 17 C 3.28435 0.128631 -2.0582 0
M  V30 18 C 4.25172 -0.0482258 -0.978383 0
M  V30 19 N 4.69098 0.984483 -0.276166 0
M  V30 20 C 5.57939 0.837095 0.71836 0
M  V30 21 N 5.9875 2.00065 1.40962 0
M  V30 22 N 6.02416 -0.390169 0.996647 0
M  V30 23 C 5.59096 -1.46458 0.29347 0
M  V30 24 N 4.71168 -1.28745 -0.684881 0
M  V30 25 N 6.1199 -2.74063 0.659354 0
M  V30 26 H -6.16414 2.54503 2.40211 0
M  V30 27 H -5.67996 0.851807 2.20807 0
M  V30 28 H -6.59996 1.65946 0.852951 0
M  V30 29 H -4.63325 2.17425 0.0595652 0
M  V30 30 H -0.597993 1.64275 0.913187 0
M  V30 31 H -0.199826 -1.31001 -2.05656 0
M  V30 32 H -4.62835 -0.986247 1.01919 0
M  V30 33 H -5.035 -0.249419 -0.553349 0
M  V30 34 H -4.4456 -1.90439 -0.555119 0
M  V30 35 H -2.92625 -3.09574 -1.25572 0
M  V30 36 H -1.99258 -2.60204 -2.68867 0
M  V30 37 H -3.66052 -1.925 -2.47283 0
M  V30 38 H 3.55673 -0.614708 -2.86413 0
M  V30 39 H 3.35996 1.12326 -2.55286 0
M  V30 40 H 5.81364 2.05209 2.43486 0
M  V30 41 H 6.44704 2.7598 0.858875 0
M  V30 42 H 5.55449 -3.60435 0.538684 0
M  V30 43 H 7.08157 -2.82881 1.05364 0
M  V30 END ATOM
M  V30 BEGIN BOND
M  V30 1 1 1 2
M  V30 2 1 2 3
M  V30 3 2 3 4
M  V30 4 2 3 5
M  V30 5 1 3 6
M  V30 6 2 6 7
M  V30 7 1 7 8
M  V30 8 2 8 9
M  V30 9 1 9 10
M  V30 10 2 10 11
M  V30 11 1 11 12
M  V30 12 1 10 13
M  V30 13 1 8 14
M  V30 14 2 14 15
M  V30 15 1 14 16
M  V30 16 1 16 17
M  V30 17 1 17 18
M  V30 18 2 18 19
M  V30 19 1 19 20
M  V30 20 1 20 21
M  V30 21 2 20 22
M  V30 22 1 22 23
M  V30 23 2 23 24
M  V30 24 1 23 25
M  V30 25 1 11 6
M  V30 26 1 24 18
M  V30 27 1 1 26
M  V30 28 1 1 27
M  V30 29 1 1 28
M  V30 30 1 2 29
M  V30 31 1 7 30
M  V30 32 1 9 31
M  V30 33 1 12 32
M  V30 34 1 12 33
M  V30 35 1 12 34
M  V30 36 1 13 35
M  V30 37 1 13 36
M  V30 38 1 13 37
M  V30 39 1 17 38
M  V30 40 1 17 39
M  V30 41 1 21 40
M  V30 42 1 21 41
M  V30 43 1 25 42
M  V30 44 1 25 43
M  V30 END BOND
M  V30 END CTAB
M  END
