
     RDKit          3D

  0  0  0  0  0  0  0  0  0  0999 V3000
M  V30 BEGIN CTAB
M  V30 COUNTS 36 39 0 0 0
M  V30 BEGIN ATOM
M  V30 1 C 1.71622 -2.38152 0.575031 0
M  V30 2 C 1.09747 -1.35163 -0.310256 0
M  V30 3 N -0.226774 -0.96616 0.0325498 0
M  V30 4 C -0.418904 -0.323379 1.28215 0
M  V30 5 N 0.417271 -0.370087 2.33249 0
M  V30 6 O -0.121177 0.346699 3.26772 0
M  V30 7 N -1.24218 0.854991 2.90543 0
M  V30 8 C -1.49641 0.462405 1.63128 0
M  V30 9 C -2.68495 0.841356 0.86648 0
M  V30 10 C -3.10135 0.321141 -0.293282 0
M  V30 11 C -2.50892 -0.728866 -1.08815 0
M  V30 12 C -1.2532 -1.27084 -0.923352 0
M  V30 13 N -1.13919 -2.21168 -1.8883 0
M  V30 14 O -2.23379 -2.23889 -2.58104 0
M  V30 15 N -3.08531 -1.36595 -2.13734 0
M  V30 16 N -4.28684 0.874449 -0.816671 0
M  V30 17 N -3.44784 1.86863 1.44643 0
M  V30 18 C 2.02735 -0.206824 -0.470421 0
M  V30 19 C 3.29866 -0.327704 0.019566 0
M  V30 20 C 4.25537 0.687852 -0.0697274 0
M  V30 21 C 3.84546 1.84225 -0.689729 0
M  V30 22 C 2.57186 1.98336 -1.18916 0
M  V30 23 C 1.66565 0.965066 -1.08111 0
M  V30 24 H 2.15181 -2.01491 1.5177 0
M  V30 25 H 0.968628 -3.19658 0.75908 0
M  V30 26 H 2.5628 -2.92593 0.0602177 0
M  V30 27 H 1.05825 -1.82345 -1.34075 0
M  V30 28 H -5.04777 1.231 -0.209081 0
M  V30 29 H -4.40041 0.925982 -1.86384 0
M  V30 30 H -3.72131 1.80978 2.43976 0
M  V30 31 H -3.73691 2.68388 0.882778 0
M  V30 32 H 3.67737 -1.22455 0.515378 0
M  V30 33 H 5.2626 0.561953 0.331173 0
M  V30 34 H 4.58667 2.65241 -0.768581 0
M  V30 35 H 2.32569 2.9385 -1.67005 0
M  V30 36 H 0.664093 1.07724 -1.47436 0
M  V30 END ATOM
M  V30 BEGIN BOND
M  V30 1 1 1 2
M  V30 2 1 2 3
M  V30 3 1 3 4
M  V30 4 2 4 5
M  V30 5 1 5 6
M  V30 6 1 6 7
M  V30 7 2 7 8
M  V30 8 1 8 9
M  V30 9 2 9 10
M  V30 10 1 10 11
M  V30 11 1 11 12
M  V30 12 2 12 13
M  V30 13 1 13 14
M  V30 14 1 14 15
M  V30 15 1 10 16
M  V30 16 1 9 17
M  V30 17 1 2 18
M  V30 18 2 18 19
M  V30 19 1 19 20
M  V30 20 2 20 21
M  V30 21 1 21 22
M  V30 22 2 22 23
M  V30 23 1 12 3
M  V30 24 1 23 18
M  V30 25 1 8 4
M  V30 26 2 15 11
M  V30 27 1 1 24
M  V30 28 1 1 25
M  V30 29 1 1 26
M  V30 30 1 2 27
M  V30 31 1 16 28
M  V30 32 1 16 29
M  V30 33 1 17 30
M  V30 34 1 17 31
M  V30 35 1 19 32
M  V30 36 1 20 33
M  V30 37 1 21 34
M  V30 38 1 22 35
M  V30 39 1 23 36
M  V30 END BOND
M  V30 END CTAB
M  END
