
     RDKit          3D

  0  0  0  0  0  0  0  0  0  0999 V3000
M  V30 BEGIN CTAB
M  V30 COUNTS 21 21 0 0 0
M  V30 BEGIN ATOM
M  V30 1 N 3.48703 0.224179 -0.131537 0
M  V30 2 C 2.09548 -0.0104389 0.00452268 0
M  V30 3 C 1.59125 -1.27608 0.246641 0
M  V30 4 C 0.23588 -1.47403 0.374162 0
M  V30 5 C -0.691751 -0.459884 0.27368 0
M  V30 6 C -0.192748 0.80734 0.0316691 0
M  V30 7 C 1.16245 1.01499 -0.0974235 0
M  V30 8 C -1.17306 1.91494 -0.08038 0
M  V30 9 C -2.09707 -0.749006 0.41961 0
M  V30 10 S -2.86759 -0.489295 1.82186 0
M  V30 11 N -2.83142 -1.26786 -0.666833 0
M  V30 12 H 3.91929 0.526872 -1.02159 0
M  V30 13 H 4.10299 0.0883517 0.692381 0
M  V30 14 H 2.30569 -2.08994 0.329388 0
M  V30 15 H -0.139842 -2.48892 0.566288 0
M  V30 16 H 1.53543 2.02457 -0.288502 0
M  V30 17 H -0.609807 2.85457 -0.329982 0
M  V30 18 H -1.91541 1.73576 -0.878608 0
M  V30 19 H -1.62867 2.05227 0.922072 0
M  V30 20 H -3.88294 -1.17776 -0.703059 0
M  V30 21 H -2.40519 -1.76064 -1.48436 0
M  V30 END ATOM
M  V30 BEGIN BOND
M  V30 1 1 1 2
M  V30 2 2 2 3
M  V30 3 1 3 4
M  V30 4 2 4 5
M  V30 5 1 5 6
M  V30 6 2 6 7
M  V30 7 1 6 8
M  V30 8 1 5 9
M  V30 9 2 9 10
M  V30 10 1 9 11
M  V30 11 1 7 2
M  V30 12 1 1 12
M  V30 13 1 1 13
M  V30 14 1 3 14
M  V30 15 1 4 15
M  V30 16 1 7 16
M  V30 17 1 8 17
M  V30 18 1 8 18
M  V30 19 1 8 19
M  V30 20 1 11 20
M  V30 21 1 11 21
M  V30 END BOND
M  V30 END CTAB
M  END
