
     RDKit          3D

  0  0  0  0  0  0  0  0  0  0999 V3000
M  V30 BEGIN CTAB
M  V30 COUNTS 15 14 0 0 0
M  V30 BEGIN ATOM
M  V30 1 N 1.8972 0.776532 -0.0727265 0
M  V30 2 C 1.00036 -0.302513 0.162054 0
M  V30 3 N 1.42941 -1.31588 0.801337 0
M  V30 4 C -0.38009 -0.156 -0.364686 0
M  V30 5 N -1.20258 -1.30785 -0.0699573 0
M  V30 6 C -0.997725 1.09006 0.226485 0
M  V30 7 H 1.729 1.73774 0.226942 0
M  V30 8 H 2.77478 0.54657 -0.584965 0
M  V30 9 H 0.848454 -2.15256 1.02109 0
M  V30 10 H -0.342947 -0.018937 -1.45587 0
M  V30 11 H -2.19753 -1.01059 -0.161279 0
M  V30 12 H -1.01895 -2.00809 -0.837282 0
M  V30 13 H -0.299547 1.92078 0.34169 0
M  V30 14 H -1.4269 0.780104 1.21693 0
M  V30 15 H -1.81293 1.42064 -0.449763 0
M  V30 END ATOM
M  V30 BEGIN BOND
M  V30 1 1 1 2
M  V30 2 2 2 3 CFG=2
M  V30 3 1 2 4
M  V30 4 1 4 5
M  V30 5 1 4 6
M  V30 6 1 1 7
M  V30 7 1 1 8
M  V30 8 1 3 9
M  V30 9 1 4 10
M  V30 10 1 5 11
M  V30 11 1 5 12
M  V30 12 1 6 13
M  V30 13 1 6 14
M  V30 14 1 6 15
M  V30 END BOND
M  V30 END CTAB
M  END
