
     RDKit          3D

  0  0  0  0  0  0  0  0  0  0999 V3000
M  V30 BEGIN CTAB
M  V30 COUNTS 35 35 0 0 0
M  V30 BEGIN ATOM
M  V30 1 N 6.51467 0.645929 0.605526 0
M  V30 2 C 5.20345 1.05783 0.152623 0
M  V30 3 C 4.22866 -0.0624529 0.441841 0
M  V30 4 C 2.84385 0.347709 -0.0257647 0
M  V30 5 O 2.69308 1.46482 -0.550578 0
M  V30 6 N 1.81921 -0.572416 0.169037 0
M  V30 7 C 0.472191 -0.360356 -0.215067 0
M  V30 8 C 0.123932 0.51166 -1.20129 0
M  V30 9 C -1.21908 0.683624 -1.50079 0
M  V30 10 C -2.21216 -0.0194624 -0.812032 0
M  V30 11 C -1.888 -0.897496 0.176014 0
M  V30 12 C -0.542915 -1.048 0.453565 0
M  V30 13 S -3.06368 -1.80355 1.02815 0
M  V30 14 O -3.81746 -2.73239 0.0668458 0
M  V30 15 O -2.33881 -2.79052 1.95006 0
M  V30 16 N -4.19226 -1.01832 1.96256 0
M  V30 17 C -3.59713 0.249494 -1.17892 0
M  V30 18 C -4.26611 1.26429 -0.281308 0
M  V30 19 H 6.46056 -0.274529 1.09284 0
M  V30 20 H 7.16935 0.626772 -0.225134 0
M  V30 21 H 5.18642 1.35837 -0.914388 0
M  V30 22 H 4.89 1.92451 0.790296 0
M  V30 23 H 4.48447 -0.989166 -0.110399 0
M  V30 24 H 4.15875 -0.265064 1.51014 0
M  V30 25 H 2.0454 -1.51344 0.640747 0
M  V30 26 H 0.861092 1.0833 -1.79725 0
M  V30 27 H -1.4582 1.38205 -2.28632 0
M  V30 28 H -0.250488 -1.74201 1.23893 0
M  V30 29 H -3.90945 -0.217152 2.51688 0
M  V30 30 H -5.18296 -1.05356 1.66617 0
M  V30 31 H -4.21533 -0.672963 -1.28433 0
M  V30 32 H -3.64092 0.69234 -2.21801 0
M  V30 33 H -5.29022 0.943201 -0.0226298 0
M  V30 34 H -4.42575 2.2198 -0.8713 0
M  V30 35 H -3.64416 1.57714 0.581782 0
M  V30 END ATOM
M  V30 BEGIN BOND
M  V30 1 1 1 2
M  V30 2 1 2 3
M  V30 3 1 3 4
M  V30 4 2 4 5
M  V30 5 1 4 6
M  V30 6 1 6 7
M  V30 7 2 7 8
M  V30 8 1 8 9
M  V30 9 2 9 10
M  V30 10 1 10 11
M  V30 11 2 11 12
M  V30 12 1 11 13
M  V30 13 2 13 14
M  V30 14 2 13 15
M  V30 15 1 13 16
M  V30 16 1 10 17
M  V30 17 1 17 18
M  V30 18 1 12 7
M  V30 19 1 1 19
M  V30 20 1 1 20
M  V30 21 1 2 21
M  V30 22 1 2 22
M  V30 23 1 3 23
M  V30 24 1 3 24
M  V30 25 1 6 25
M  V30 26 1 8 26
M  V30 27 1 9 27
M  V30 28 1 12 28
M  V30 29 1 16 29
M  V30 30 1 16 30
M  V30 31 1 17 31
M  V30 32 1 17 32
M  V30 33 1 18 33
M  V30 34 1 18 34
M  V30 35 1 18 35
M  V30 END BOND
M  V30 END CTAB
M  END
