
     RDKit          3D

  0  0  0  0  0  0  0  0  0  0999 V3000
M  V30 BEGIN CTAB
M  V30 COUNTS 33 34 0 0 0
M  V30 BEGIN ATOM
M  V30 1 C 6.91903 0.858391 0.023729 0
M  V30 2 C 6.32053 -0.434102 0.586807 0
M  V30 3 C 4.85285 -0.377183 0.265842 0
M  V30 4 N 3.92409 -1.26778 0.584873 0
M  V30 5 N 2.72636 -1.08707 0.237287 0
M  V30 6 C 2.37317 -0.0178128 -0.445956 0
M  V30 7 S 3.91998 0.773872 -0.581204 0
M  V30 8 N 1.12172 0.44273 -0.985104 0
M  V30 9 C -0.0992716 -0.177751 -0.908466 0
M  V30 10 O -1.08404 0.416572 -1.50694 0
M  V30 11 C -0.390563 -1.44142 -0.221581 0
M  V30 12 S -1.25536 -1.03122 1.34803 0
M  V30 13 C -2.84929 -0.379603 0.877231 0
M  V30 14 N -3.1035 0.913015 0.657451 0
M  V30 15 C -4.32246 1.37715 0.291043 0
M  V30 16 N -4.59184 2.74726 0.0583583 0
M  V30 17 C -5.36544 0.489141 0.131797 0
M  V30 18 C -5.12572 -0.840693 0.352811 0
M  V30 19 N -3.88055 -1.24786 0.718888 0
M  V30 20 N -6.1585 -1.792 0.201206 0
M  V30 21 H 6.63633 1.65424 0.777978 0
M  V30 22 H 6.3752 1.08529 -0.912 0
M  V30 23 H 8.00758 0.790373 -0.113047 0
M  V30 24 H 6.50148 -0.531466 1.65666 0
M  V30 25 H 6.77214 -1.27004 -0.0209551 0
M  V30 26 H 1.17431 1.3749 -1.52613 0
M  V30 27 H 0.47026 -2.04899 -0.00728079 0
M  V30 28 H -1.0816 -2.03938 -0.87399 0
M  V30 29 H -4.26465 3.45811 0.725798 0
M  V30 30 H -5.12036 3.0398 -0.78506 0
M  V30 31 H -6.34192 0.833848 -0.155545 0
M  V30 32 H -6.60872 -2.20584 1.03245 0
M  V30 33 H -6.45124 -2.0645 -0.751675 0
M  V30 END ATOM
M  V30 BEGIN BOND
M  V30 1 1 1 2
M  V30 2 1 2 3
M  V30 3 2 3 4
M  V30 4 1 4 5
M  V30 5 2 5 6
M  V30 6 1 6 7
M  V30 7 1 6 8
M  V30 8 1 8 9
M  V30 9 2 9 10
M  V30 10 1 9 11
M  V30 11 1 11 12
M  V30 12 1 12 13
M  V30 13 2 13 14
M  V30 14 1 14 15
M  V30 15 1 15 16
M  V30 16 2 15 17
M  V30 17 1 17 18
M  V30 18 2 18 19
M  V30 19 1 18 20
M  V30 20 1 7 3
M  V30 21 1 19 13
M  V30 22 1 1 21
M  V30 23 1 1 22
M  V30 24 1 1 23
M  V30 25 1 2 24
M  V30 26 1 2 25
M  V30 27 1 8 26
M  V30 28 1 11 27
M  V30 29 1 11 28
M  V30 30 1 16 29
M  V30 31 1 16 30
M  V30 32 1 17 31
M  V30 33 1 20 32
M  V30 34 1 20 33
M  V30 END BOND
M  V30 END CTAB
M  END
