
     RDKit          3D

  0  0  0  0  0  0  0  0  0  0999 V3000
M  V30 BEGIN CTAB
M  V30 COUNTS 46 47 0 0 0
M  V30 BEGIN ATOM
M  V30 1 C -8.17132 -0.186791 -1.32686 0
M  V30 2 C -7.44135 0.654274 -0.293779 0
M  V30 3 C -6.1397 0.0033026 0.0786539 0
M  V30 4 C -6.06853 -0.895924 1.12116 0
M  V30 5 C -4.88399 -1.50063 1.47376 0
M  V30 6 C -3.71524 -1.21793 0.780649 0
M  V30 7 C -3.75722 -0.327561 -0.261203 0
M  V30 8 C -4.96255 0.259947 -0.586454 0
M  V30 9 O -2.56037 -1.83456 1.15291 0
M  V30 10 C -1.2919 -1.70172 0.635012 0
M  V30 11 C -0.695282 -0.349033 0.760913 0
M  V30 12 O -1.2403 0.62592 1.32954 0
M  V30 13 N 0.596698 -0.147154 0.190704 0
M  V30 14 N 1.23031 1.09254 0.264897 0
M  V30 15 C 2.45128 1.34131 -0.404411 0
M  V30 16 O 3.0049 0.452234 -1.08932 0
M  V30 17 C 3.09891 2.66658 -0.304799 0
M  V30 18 S 4.20522 2.58719 1.15804 0
M  V30 19 C 5.46031 1.37986 0.742847 0
M  V30 20 N 5.2003 0.11106 1.06957 0
M  V30 21 C 6.05687 -0.889635 0.809998 0
M  V30 22 N 5.75625 -2.23402 1.16832 0
M  V30 23 C 7.23996 -0.566973 0.182796 0
M  V30 24 C 7.53713 0.72862 -0.166139 0
M  V30 25 N 6.61681 1.68247 0.13204 0
M  V30 26 N 8.75797 1.0422 -0.811187 0
M  V30 27 H -8.51449 -1.15217 -0.884436 0
M  V30 28 H -9.00723 0.419928 -1.72111 0
M  V30 29 H -7.46892 -0.363831 -2.16686 0
M  V30 30 H -8.07822 0.835456 0.588729 0
M  V30 31 H -7.17763 1.61429 -0.781655 0
M  V30 32 H -6.98214 -1.13145 1.68079 0
M  V30 33 H -4.80509 -2.21036 2.28953 0
M  V30 34 H -2.8684 -0.0659964 -0.863911 0
M  V30 35 H -4.97152 0.966858 -1.42035 0
M  V30 36 H -0.614599 -2.4453 1.15617 0
M  V30 37 H -1.25356 -2.05399 -0.440116 0
M  V30 38 H 1.11587 -0.920338 -0.302431 0
M  V30 39 H 0.754992 1.83891 0.846255 0
M  V30 40 H 2.27687 3.41111 -0.107014 0
M  V30 41 H 3.64007 2.97247 -1.20042 0
M  V30 42 H 6.19604 -2.62371 2.02301 0
M  V30 43 H 5.11541 -2.82906 0.603927 0
M  V30 44 H 7.96027 -1.34801 -0.0455052 0
M  V30 45 H 9.60369 1.2941 -0.282417 0
M  V30 46 H 8.79341 1.01552 -1.84606 0
M  V30 END ATOM
M  V30 BEGIN BOND
M  V30 1 1 1 2
M  V30 2 1 2 3
M  V30 3 2 3 4
M  V30 4 1 4 5
M  V30 5 2 5 6
M  V30 6 1 6 7
M  V30 7 2 7 8
M  V30 8 1 6 9
M  V30 9 1 9 10
M  V30 10 1 10 11
M  V30 11 2 11 12
M  V30 12 1 11 13
M  V30 13 1 13 14
M  V30 14 1 14 15
M  V30 15 2 15 16
M  V30 16 1 15 17
M  V30 17 1 17 18
M  V30 18 1 18 19
M  V30 19 2 19 20
M  V30 20 1 20 21
M  V30 21 1 21 22
M  V30 22 2 21 23
M  V30 23 1 23 24
M  V30 24 2 24 25
M  V30 25 1 24 26
M  V30 26 1 8 3
M  V30 27 1 25 19
M  V30 28 1 1 27
M  V30 29 1 1 28
M  V30 30 1 1 29
M  V30 31 1 2 30
M  V30 32 1 2 31
M  V30 33 1 4 32
M  V30 34 1 5 33
M  V30 35 1 7 34
M  V30 36 1 8 35
M  V30 37 1 10 36
M  V30 38 1 10 37
M  V30 39 1 13 38
M  V30 40 1 14 39
M  V30 41 1 17 40
M  V30 42 1 17 41
M  V30 43 1 22 42
M  V30 44 1 22 43
M  V30 45 1 23 44
M  V30 46 1 26 45
M  V30 47 1 26 46
M  V30 END BOND
M  V30 END CTAB
M  END
