
     RDKit          3D

  0  0  0  0  0  0  0  0  0  0999 V3000
M  V30 BEGIN CTAB
M  V30 COUNTS 31 32 0 0 0
M  V30 BEGIN ATOM
M  V30 1 N -3.91776 1.77037 1.64736 0
M  V30 2 C -3.28451 0.471624 1.60319 0
M  V30 3 C -2.39273 0.383799 0.418482 0
M  V30 4 C -2.26717 1.4585 -0.449854 0
M  V30 5 C -1.43721 1.34823 -1.53399 0
M  V30 6 C -0.747186 0.181228 -1.74137 0
M  V30 7 C -0.841225 -0.910109 -0.90616 0
M  V30 8 C -1.67782 -0.791447 0.181787 0
M  V30 9 C -0.0515394 -2.11764 -1.22682 0
M  V30 10 O 0.990892 -2.24643 -0.329451 0
M  V30 11 C 2.03516 -1.44758 -0.0378808 0
M  V30 12 C 2.94821 -1.82388 0.923161 0
M  V30 13 C 3.98938 -0.949085 1.1617 0
M  V30 14 Cl 5.20352 -1.36478 2.38396 0
M  V30 15 N 4.13958 0.20326 0.521403 0
M  V30 16 C 3.24259 0.571073 -0.421501 0
M  V30 17 N 2.21999 -0.27954 -0.661431 0
M  V30 18 N 3.35597 1.78723 -1.13254 0
M  V30 19 H -3.23136 2.41449 2.12397 0
M  V30 20 H -4.72959 1.67492 2.32604 0
M  V30 21 H -2.66092 0.350394 2.50157 0
M  V30 22 H -4.02803 -0.358173 1.57957 0
M  V30 23 H -2.8401 2.37727 -0.245278 0
M  V30 24 H -1.34392 2.18024 -2.20078 0
M  V30 25 H -0.0878827 0.124151 -2.62228 0
M  V30 26 H -1.75028 -1.64649 0.834466 0
M  V30 27 H 0.260688 -2.10111 -2.29191 0
M  V30 28 H -0.76863 -2.98101 -1.11061 0
M  V30 29 H 2.88022 -2.75184 1.48017 0
M  V30 30 H 3.61815 1.79523 -2.12941 0
M  V30 31 H 3.17352 2.6771 -0.645549 0
M  V30 END ATOM
M  V30 BEGIN BOND
M  V30 1 1 1 2
M  V30 2 1 2 3
M  V30 3 2 3 4
M  V30 4 1 4 5
M  V30 5 2 5 6
M  V30 6 1 6 7
M  V30 7 2 7 8
M  V30 8 1 7 9
M  V30 9 1 9 10
M  V30 10 1 10 11
M  V30 11 2 11 12
M  V30 12 1 12 13
M  V30 13 1 13 14
M  V30 14 2 13 15
M  V30 15 1 15 16
M  V30 16 2 16 17
M  V30 17 1 16 18
M  V30 18 1 8 3
M  V30 19 1 17 11
M  V30 20 1 1 19
M  V30 21 1 1 20
M  V30 22 1 2 21
M  V30 23 1 2 22
M  V30 24 1 4 23
M  V30 25 1 5 24
M  V30 26 1 6 25
M  V30 27 1 8 26
M  V30 28 1 9 27
M  V30 29 1 9 28
M  V30 30 1 12 29
M  V30 31 1 18 30
M  V30 32 1 18 31
M  V30 END BOND
M  V30 END CTAB
M  END
