
     RDKit          3D

  0  0  0  0  0  0  0  0  0  0999 V3000
M  V30 BEGIN CTAB
M  V30 COUNTS 27 27 0 0 0
M  V30 BEGIN ATOM
M  V30 1 F 4.2444 0.792303 -1.46907 0
M  V30 2 C 4.28617 1.01044 -0.116426 0
M  V30 3 C 3.34656 0.0087655 0.548012 0
M  V30 4 C 1.97591 0.248174 0.00421774 0
M  V30 5 N 1.04815 -0.6755 0.602317 0
M  V30 6 C -0.313136 -0.617664 0.222575 0
M  V30 7 C -1.22723 -1.49353 0.781443 0
M  V30 8 C -2.53088 -1.42017 0.401826 0
M  V30 9 C -3.01734 -0.512598 -0.522972 0
M  V30 10 C -2.07721 0.348961 -1.06284 0
M  V30 11 C -0.747436 0.306217 -0.704154 0
M  V30 12 N -2.51629 1.31976 -2.03245 0
M  V30 13 N -4.38905 -0.462363 -0.898413 0
M  V30 14 H 5.31413 0.790948 0.26999 0
M  V30 15 H 4.01385 2.04913 0.13915 0
M  V30 16 H 3.67257 -1.02415 0.368012 0
M  V30 17 H 3.33132 0.148371 1.65188 0
M  V30 18 H 1.63838 1.28246 0.27086 0
M  V30 19 H 1.96959 0.146073 -1.10491 0
M  V30 20 H 1.365 -1.37105 1.29759 0
M  V30 21 H -0.904221 -2.23999 1.52349 0
M  V30 22 H -3.26827 -2.10278 0.831352 0
M  V30 23 H -0.0460635 1.01873 -1.16898 0
M  V30 24 H -3.1161 1.02025 -2.83305 0
M  V30 25 H -2.26111 2.31729 -1.9723 0
M  V30 26 H -4.7527 -1.16414 -1.54692 0
M  V30 27 H -5.039 0.276068 -0.527688 0
M  V30 END ATOM
M  V30 BEGIN BOND
M  V30 1 1 1 2
M  V30 2 1 2 3
M  V30 3 1 3 4
M  V30 4 1 4 5
M  V30 5 1 5 6
M  V30 6 2 6 7
M  V30 7 1 7 8
M  V30 8 2 8 9
M  V30 9 1 9 10
M  V30 10 2 10 11
M  V30 11 1 10 12
M  V30 12 1 9 13
M  V30 13 1 11 6
M  V30 14 1 2 14
M  V30 15 1 2 15
M  V30 16 1 3 16
M  V30 17 1 3 17
M  V30 18 1 4 18
M  V30 19 1 4 19
M  V30 20 1 5 20
M  V30 21 1 7 21
M  V30 22 1 8 22
M  V30 23 1 11 23
M  V30 24 1 12 24
M  V30 25 1 12 25
M  V30 26 1 13 26
M  V30 27 1 13 27
M  V30 END BOND
M  V30 END CTAB
M  END
