
     RDKit          3D

  0  0  0  0  0  0  0  0  0  0999 V3000
M  V30 BEGIN CTAB
M  V30 COUNTS 24 24 0 0 0
M  V30 BEGIN ATOM
M  V30 1 C 3.01651 -1.86817 0.293919 0
M  V30 2 N 2.88268 -0.527548 -0.207721 0
M  V30 3 C 1.62156 0.143701 -0.238559 0
M  V30 4 N 1.46709 1.37779 -0.694578 0
M  V30 5 C 0.288319 1.99826 -0.720672 0
M  V30 6 N 0.159159 3.31347 -1.21317 0
M  V30 7 N -0.793237 1.31999 -0.254806 0
M  V30 8 C -0.673502 0.0704802 0.213678 0
M  V30 9 N 0.534705 -0.504653 0.216541 0
M  V30 10 C -1.81467 -0.709915 0.729278 0 CFG=1
M  V30 11 N -2.62346 0.117182 1.59334 0
M  V30 12 C -2.58526 -1.23484 -0.456437 0
M  V30 13 H 2.9322 -1.83314 1.39448 0
M  V30 14 H 4.00005 -2.28345 -0.00351383 0
M  V30 15 H 2.23112 -2.56163 -0.0994849 0
M  V30 16 H 3.70604 0.0139454 -0.572265 0
M  V30 17 H -0.394327 3.99811 -0.646387 0
M  V30 18 H 0.570515 3.66564 -2.09992 0
M  V30 19 H -1.44868 -1.5681 1.29508 0
M  V30 20 H -2.1363 0.126657 2.53313 0
M  V30 21 H -2.69363 1.10098 1.25344 0
M  V30 22 H -1.94614 -1.99886 -0.946949 0
M  V30 23 H -2.76388 -0.437269 -1.20188 0
M  V30 24 H -3.53687 -1.71864 -0.166533 0
M  V30 END ATOM
M  V30 BEGIN BOND
M  V30 1 1 1 2
M  V30 2 1 2 3
M  V30 3 2 3 4
M  V30 4 1 4 5
M  V30 5 1 5 6
M  V30 6 2 5 7
M  V30 7 1 7 8
M  V30 8 2 8 9
M  V30 9 1 8 10
M  V30 10 1 10 11
M  V30 11 1 10 12
M  V30 12 1 9 3
M  V30 13 1 1 13
M  V30 14 1 1 14
M  V30 15 1 1 15
M  V30 16 1 2 16
M  V30 17 1 6 17
M  V30 18 1 6 18
M  V30 19 1 10 19 CFG=1
M  V30 20 1 11 20
M  V30 21 1 11 21
M  V30 22 1 12 22
M  V30 23 1 12 23
M  V30 24 1 12 24
M  V30 END BOND
M  V30 END CTAB
M  END
