
     RDKit          3D

  0  0  0  0  0  0  0  0  0  0999 V3000
M  V30 BEGIN CTAB
M  V30 COUNTS 32 32 0 0 0
M  V30 BEGIN ATOM
M  V30 1 N 2.8687 -0.777421 -2.23217 0
M  V30 2 C 3.05762 0.205636 -1.19164 0
M  V30 3 N 4.0143 1.13967 -1.32509 0
M  V30 4 C 4.26187 2.09032 -0.412498 0
M  V30 5 C 3.50413 2.13292 0.738491 0
M  V30 6 C 2.50881 1.16979 0.888862 0
M  V30 7 C 2.26937 0.201049 -0.05965 0
M  V30 8 C 1.21742 -0.821814 0.0925641 0
M  V30 9 O 1.06742 -1.66993 -0.824061 0
M  V30 10 N 0.382166 -0.88396 1.21554 0
M  V30 11 C -0.654204 -1.8691 1.3883 0
M  V30 12 C -1.72128 -1.83751 0.339528 0
M  V30 13 O -2.35103 -0.579674 0.339771 0
M  V30 14 C -3.34939 -0.527518 -0.63023 0
M  V30 15 C -3.99891 0.819806 -0.604955 0
M  V30 16 N -2.98525 1.82556 -0.880899 0
M  V30 17 H 3.30473 -1.71249 -2.11372 0
M  V30 18 H 2.31172 -0.570606 -3.08727 0
M  V30 19 H 5.04696 2.83857 -0.546424 0
M  V30 20 H 3.65984 2.88535 1.5189 0
M  V30 21 H 1.93338 1.22075 1.78779 0
M  V30 22 H 0.504699 -0.18411 1.97927 0
M  V30 23 H -0.238588 -2.906 1.4436 0
M  V30 24 H -1.1761 -1.73656 2.3723 0
M  V30 25 H -2.4748 -2.63934 0.583005 0
M  V30 26 H -1.31279 -2.05091 -0.651678 0
M  V30 27 H -4.07437 -1.35481 -0.512114 0
M  V30 28 H -2.82454 -0.691051 -1.61152 0
M  V30 29 H -4.42064 1.02271 0.381715 0
M  V30 30 H -4.80938 0.874059 -1.36567 0
M  V30 31 H -2.17982 1.60343 -0.244879 0
M  V30 32 H -3.34206 2.78318 -0.719156 0
M  V30 END ATOM
M  V30 BEGIN BOND
M  V30 1 1 1 2
M  V30 2 2 2 3
M  V30 3 1 3 4
M  V30 4 2 4 5
M  V30 5 1 5 6
M  V30 6 2 6 7
M  V30 7 1 7 8
M  V30 8 2 8 9
M  V30 9 1 8 10
M  V30 10 1 10 11
M  V30 11 1 11 12
M  V30 12 1 12 13
M  V30 13 1 13 14
M  V30 14 1 14 15
M  V30 15 1 15 16
M  V30 16 1 7 2
M  V30 17 1 1 17
M  V30 18 1 1 18
M  V30 19 1 4 19
M  V30 20 1 5 20
M  V30 21 1 6 21
M  V30 22 1 10 22
M  V30 23 1 11 23
M  V30 24 1 11 24
M  V30 25 1 12 25
M  V30 26 1 12 26
M  V30 27 1 14 27
M  V30 28 1 14 28
M  V30 29 1 15 29
M  V30 30 1 15 30
M  V30 31 1 16 31
M  V30 32 1 16 32
M  V30 END BOND
M  V30 END CTAB
M  END
