
     RDKit          3D

  0  0  0  0  0  0  0  0  0  0999 V3000
M  V30 BEGIN CTAB
M  V30 COUNTS 26 26 0 0 0
M  V30 BEGIN ATOM
M  V30 1 C -2.33517 -0.403481 -1.15661 0
M  V30 2 C -1.04212 0.126981 -0.574497 0
M  V30 3 C 0.018288 -0.936408 -0.707558 0 CFG=1
M  V30 4 C 1.31976 -0.488237 -0.156247 0
M  V30 5 N 2.3943 0.007037 -0.837432 0
M  V30 6 C 3.37447 0.294028 0.0362677 0
M  V30 7 N 2.87811 -0.0329071 1.24144 0
M  V30 8 O 1.68132 -0.485866 1.10503 0
M  V30 9 N 4.67682 0.824819 -0.158995 0
M  V30 10 N -0.37837 -2.18692 -0.112423 0
M  V30 11 C -1.30241 0.533836 0.840797 0
M  V30 12 C -2.37016 1.60815 0.824447 0
M  V30 13 H -2.7634 0.277247 -1.92882 0
M  V30 14 H -2.20441 -1.38223 -1.65414 0
M  V30 15 H -3.11154 -0.56717 -0.368226 0
M  V30 16 H -0.773736 1.02117 -1.17281 0
M  V30 17 H 0.124157 -1.13207 -1.80928 0
M  V30 18 H 5.36272 0.334516 -0.779972 0
M  V30 19 H 4.92873 1.69691 0.321101 0
M  V30 20 H -0.971905 -2.75058 -0.776439 0
M  V30 21 H 0.507828 -2.75526 -0.00197448 0
M  V30 22 H -1.7039 -0.299114 1.44943 0
M  V30 23 H -0.418096 0.969681 1.34538 0
M  V30 24 H -1.88652 2.58089 0.574864 0
M  V30 25 H -2.85 1.72035 1.83386 0
M  V30 26 H -3.15479 1.42463 0.0707248 0
M  V30 END ATOM
M  V30 BEGIN BOND
M  V30 1 1 1 2
M  V30 2 1 2 3
M  V30 3 1 3 4
M  V30 4 2 4 5
M  V30 5 1 5 6
M  V30 6 2 6 7
M  V30 7 1 7 8
M  V30 8 1 6 9
M  V30 9 1 3 10
M  V30 10 1 2 11
M  V30 11 1 11 12
M  V30 12 1 8 4
M  V30 13 1 1 13
M  V30 14 1 1 14
M  V30 15 1 1 15
M  V30 16 1 2 16
M  V30 17 1 3 17 CFG=3
M  V30 18 1 9 18
M  V30 19 1 9 19
M  V30 20 1 10 20
M  V30 21 1 10 21
M  V30 22 1 11 22
M  V30 23 1 11 23
M  V30 24 1 12 24
M  V30 25 1 12 25
M  V30 26 1 12 26
M  V30 END BOND
M  V30 END CTAB
M  END
