
     RDKit          3D

  0  0  0  0  0  0  0  0  0  0999 V3000
M  V30 BEGIN CTAB
M  V30 COUNTS 28 28 0 0 0
M  V30 BEGIN ATOM
M  V30 1 C 2.62537 -0.085914 -0.319414 0
M  V30 2 C 1.40338 -0.248356 0.548056 0 CFG=2
M  V30 3 C 0.500748 -1.2522 -0.108634 0
M  V30 4 C -0.930633 -1.09972 0.344362 0 CFG=2
M  V30 5 N -1.70246 -2.13832 -0.344721 0
M  V30 6 C -1.48504 0.265998 0.0827802 0 CFG=1
M  V30 7 C -0.413233 1.30444 -0.157406 0
M  V30 8 C 0.698403 1.05616 0.815578 0 CFG=2
M  V30 9 N 1.65306 2.10566 0.914485 0
M  V30 10 C -2.49703 0.219301 -1.03761 0
M  V30 11 H 3.11482 -1.08053 -0.377295 0
M  V30 12 H 2.37212 0.201038 -1.357 0
M  V30 13 H 3.34678 0.603703 0.134846 0
M  V30 14 H 1.76102 -0.675657 1.51928 0
M  V30 15 H 0.534826 -1.20852 -1.21694 0
M  V30 16 H 0.826855 -2.26847 0.187386 0
M  V30 17 H -0.952726 -1.34575 1.43841 0
M  V30 18 H -2.01938 -2.87015 0.319278 0
M  V30 19 H -1.15241 -2.59731 -1.09865 0
M  V30 20 H -2.05532 0.573233 1.00151 0
M  V30 21 H -0.876213 2.29094 0.122141 0
M  V30 22 H -0.100238 1.37746 -1.19875 0
M  V30 23 H 0.217036 0.945282 1.8297 0
M  V30 24 H 1.95345 2.53437 0.0323777 0
M  V30 25 H 1.52378 2.75735 1.70897 0
M  V30 26 H -2.99937 1.21406 -1.06592 0
M  V30 27 H -3.28768 -0.500034 -0.714815 0
M  V30 28 H -2.05992 -0.0780739 -2.00198 0
M  V30 END ATOM
M  V30 BEGIN BOND
M  V30 1 1 1 2
M  V30 2 1 2 3
M  V30 3 1 3 4
M  V30 4 1 4 5
M  V30 5 1 4 6
M  V30 6 1 6 7
M  V30 7 1 7 8
M  V30 8 1 8 9
M  V30 9 1 6 10
M  V30 10 1 8 2
M  V30 11 1 1 11
M  V30 12 1 1 12
M  V30 13 1 1 13
M  V30 14 1 2 14 CFG=1
M  V30 15 1 3 15
M  V30 16 1 3 16
M  V30 17 1 4 17 CFG=1
M  V30 18 1 5 18
M  V30 19 1 5 19
M  V30 20 1 6 20 CFG=1
M  V30 21 1 7 21
M  V30 22 1 7 22
M  V30 23 1 8 23 CFG=1
M  V30 24 1 9 24
M  V30 25 1 9 25
M  V30 26 1 10 26
M  V30 27 1 10 27
M  V30 28 1 10 28
M  V30 END BOND
M  V30 END CTAB
M  END
