
     RDKit          3D

  0  0  0  0  0  0  0  0  0  0999 V3000
M  V30 BEGIN CTAB
M  V30 COUNTS 60 60 0 0 0
M  V30 BEGIN ATOM
M  V30 1 C 5.23083 1.15107 1.72331 0
M  V30 2 C 5.0001 2.53445 1.20991 0
M  V30 3 C 4.02886 2.56152 0.0397763 0
M  V30 4 C 2.69082 2.01621 0.40293 0
M  V30 5 C 1.77013 2.07758 -0.782045 0
M  V30 6 C 2.26306 1.28354 -1.94439 0
M  V30 7 C 2.40328 -0.16071 -1.51315 0
M  V30 8 O 1.13214 -0.617148 -1.09962 0
M  V30 9 C 1.0203 -1.92734 -0.658088 0
M  V30 10 C -0.212611 -2.44111 -0.234332 0
M  V30 11 O -1.2804 -1.58684 -0.28179 0
M  V30 12 C -2.58929 -1.88322 0.0886494 0
M  V30 13 C -3.44504 -0.625543 -0.132228 0
M  V30 14 C -2.92931 0.505538 0.697462 0
M  V30 15 C -3.74423 1.75511 0.496577 0
M  V30 16 C -5.19748 1.58122 0.871419 0
M  V30 17 C -5.89084 2.92036 0.62458 0
M  V30 18 C -5.79006 3.34282 -0.816036 0
M  V30 19 C -0.303421 -3.74566 0.200963 0
M  V30 20 C 0.795091 -4.57809 0.234976 0
M  V30 21 N 0.664374 -5.90174 0.684768 0
M  V30 22 C 1.99899 -4.0537 -0.18605 0
M  V30 23 N 3.1246 -4.94613 -0.138605 0
M  V30 24 C 2.12152 -2.755 -0.626167 0
M  V30 25 H 6.28967 1.04563 2.0136 0
M  V30 26 H 5.01853 0.384353 0.951222 0
M  V30 27 H 4.57855 0.914997 2.58886 0
M  V30 28 H 4.65528 3.17692 2.03737 0
M  V30 29 H 5.96936 2.95782 0.86387 0
M  V30 30 H 3.89052 3.64237 -0.222695 0
M  V30 31 H 4.46522 2.07045 -0.836268 0
M  V30 32 H 2.25739 2.68152 1.19484 0
M  V30 33 H 2.73844 0.991399 0.827436 0
M  V30 34 H 1.7029 3.15064 -1.12077 0
M  V30 35 H 0.744962 1.741 -0.453091 0
M  V30 36 H 1.53577 1.27225 -2.79226 0
M  V30 37 H 3.23144 1.62679 -2.32741 0
M  V30 38 H 3.14315 -0.29643 -0.702014 0
M  V30 39 H 2.78968 -0.721481 -2.39966 0
M  V30 40 H -2.97273 -2.65743 -0.629165 0
M  V30 41 H -2.72433 -2.28585 1.09087 0
M  V30 42 H -3.41998 -0.329816 -1.19996 0
M  V30 43 H -4.50699 -0.84035 0.104647 0
M  V30 44 H -1.86489 0.721745 0.459024 0
M  V30 45 H -2.93056 0.215545 1.78894 0
M  V30 46 H -3.68277 2.13078 -0.535369 0
M  V30 47 H -3.3456 2.58195 1.15504 0
M  V30 48 H -5.68087 0.787479 0.249952 0
M  V30 49 H -5.28229 1.36196 1.94888 0
M  V30 50 H -6.94914 2.88986 0.97289 0
M  V30 51 H -5.38097 3.65713 1.28753 0
M  V30 52 H -6.76035 3.72327 -1.21108 0
M  V30 53 H -5.44223 2.53088 -1.48718 0
M  V30 54 H -5.04287 4.17674 -0.934606 0
M  V30 55 H -1.26234 -4.12597 0.524402 0
M  V30 56 H 0.153633 -6.12035 1.55684 0
M  V30 57 H 1.08273 -6.67512 0.140688 0
M  V30 58 H 3.59374 -5.11809 -1.07141 0
M  V30 59 H 3.43843 -5.37836 0.748235 0
M  V30 60 H 3.10806 -2.39139 -0.950082 0
M  V30 END ATOM
M  V30 BEGIN BOND
M  V30 1 1 1 2
M  V30 2 1 2 3
M  V30 3 1 3 4
M  V30 4 1 4 5
M  V30 5 1 5 6
M  V30 6 1 6 7
M  V30 7 1 7 8
M  V30 8 1 8 9
M  V30 9 2 9 10
M  V30 10 1 10 11
M  V30 11 1 11 12
M  V30 12 1 12 13
M  V30 13 1 13 14
M  V30 14 1 14 15
M  V30 15 1 15 16
M  V30 16 1 16 17
M  V30 17 1 17 18
M  V30 18 1 10 19
M  V30 19 2 19 20
M  V30 20 1 20 21
M  V30 21 1 20 22
M  V30 22 1 22 23
M  V30 23 2 22 24
M  V30 24 1 24 9
M  V30 25 1 1 25
M  V30 26 1 1 26
M  V30 27 1 1 27
M  V30 28 1 2 28
M  V30 29 1 2 29
M  V30 30 1 3 30
M  V30 31 1 3 31
M  V30 32 1 4 32
M  V30 33 1 4 33
M  V30 34 1 5 34
M  V30 35 1 5 35
M  V30 36 1 6 36
M  V30 37 1 6 37
M  V30 38 1 7 38
M  V30 39 1 7 39
M  V30 40 1 12 40
M  V30 41 1 12 41
M  V30 42 1 13 42
M  V30 43 1 13 43
M  V30 44 1 14 44
M  V30 45 1 14 45
M  V30 46 1 15 46
M  V30 47 1 15 47
M  V30 48 1 16 48
M  V30 49 1 16 49
M  V30 50 1 17 50
M  V30 51 1 17 51
M  V30 52 1 18 52
M  V30 53 1 18 53
M  V30 54 1 18 54
M  V30 55 1 19 55
M  V30 56 1 21 56
M  V30 57 1 21 57
M  V30 58 1 23 58
M  V30 59 1 23 59
M  V30 60 1 24 60
M  V30 END BOND
M  V30 END CTAB
M  END
