
     RDKit          3D

  0  0  0  0  0  0  0  0  0  0999 V3000
M  V30 BEGIN CTAB
M  V30 COUNTS 23 24 0 0 0
M  V30 BEGIN ATOM
M  V30 1 N 4.46374 0.069657 -0.482762 0
M  V30 2 C 3.04066 0.0160166 -0.340224 0
M  V30 3 C 2.46246 -0.76762 0.627847 0
M  V30 4 C 1.09405 -0.832855 0.781227 0
M  V30 5 C 0.262192 -0.0853506 -0.0659234 0
M  V30 6 C 0.812574 0.707529 -1.0435 0
M  V30 7 C 2.21423 0.739418 -1.15888 0
M  V30 8 O 0.114046 1.46723 -1.91257 0
M  V30 9 C -1.18327 -0.206431 0.158454 0
M  V30 10 N -1.72062 -0.992456 1.12704 0
M  V30 11 N -3.02725 -0.861648 1.04289 0
M  V30 12 C -3.32507 -0.00637772 0.0376823 0
M  V30 13 N -2.17943 0.393833 -0.503601 0
M  V30 14 N -4.65184 0.34773 -0.312068 0
M  V30 15 H 4.91604 0.960378 -0.188133 0
M  V30 16 H 5.02875 -0.710716 -0.851266 0
M  V30 17 H 3.12158 -1.34721 1.28392 0
M  V30 18 H 0.655158 -1.45771 1.55192 0
M  V30 19 H 2.67581 1.35826 -1.92364 0
M  V30 20 H -0.814027 1.60501 -2.02602 0
M  V30 21 H -3.71789 -1.33856 1.65069 0
M  V30 22 H -5.26925 0.786522 0.393996 0
M  V30 23 H -4.97265 0.155349 -1.2781 0
M  V30 END ATOM
M  V30 BEGIN BOND
M  V30 1 1 1 2
M  V30 2 2 2 3
M  V30 3 1 3 4
M  V30 4 2 4 5
M  V30 5 1 5 6
M  V30 6 2 6 7
M  V30 7 1 6 8
M  V30 8 1 5 9
M  V30 9 2 9 10
M  V30 10 1 10 11
M  V30 11 1 11 12
M  V30 12 2 12 13
M  V30 13 1 12 14
M  V30 14 1 7 2
M  V30 15 1 13 9
M  V30 16 1 1 15
M  V30 17 1 1 16
M  V30 18 1 3 17
M  V30 19 1 4 18
M  V30 20 1 7 19
M  V30 21 1 8 20
M  V30 22 1 11 21
M  V30 23 1 14 22
M  V30 24 1 14 23
M  V30 END BOND
M  V30 END CTAB
M  END
