
     RDKit          3D

  0  0  0  0  0  0  0  0  0  0999 V3000
M  V30 BEGIN CTAB
M  V30 COUNTS 29 29 0 0 0
M  V30 BEGIN ATOM
M  V30 1 C -5.41474 0.544 -0.109996 0
M  V30 2 C -4.08682 0.290058 -0.807707 0
M  V30 3 O -3.08627 0.372231 0.191051 0
M  V30 4 C -1.74254 0.192052 -0.0867859 0
M  V30 5 O -1.38626 -0.0535821 -1.26315 0
M  V30 6 C -0.800562 0.305751 1.05605 0
M  V30 7 C 0.614409 0.0847993 0.589718 0
M  V30 8 C 1.1665 -1.18403 0.579378 0
M  V30 9 C 2.45556 -1.44091 0.162628 0
M  V30 10 N 3.00096 -2.76531 0.162715 0
M  V30 11 C 3.20743 -0.364229 -0.258428 0
M  V30 12 C 2.71163 0.929686 -0.271557 0
M  V30 13 C 1.4044 1.13383 0.159249 0
M  V30 14 N 3.50578 2.01546 -0.708805 0
M  V30 15 C 4.5507 -0.606404 -0.696407 0
M  V30 16 N 5.61672 -0.805141 -1.05831 0
M  V30 17 H -5.67462 -0.385202 0.472867 0
M  V30 18 H -6.23359 0.703866 -0.815091 0
M  V30 19 H -5.32691 1.35711 0.642712 0
M  V30 20 H -4.13835 -0.756264 -1.19129 0
M  V30 21 H -3.9079 0.971052 -1.64109 0
M  V30 22 H -1.07933 -0.393232 1.8587 0
M  V30 23 H -0.855894 1.33275 1.47115 0
M  V30 24 H 0.532458 -2.00822 0.92231 0
M  V30 25 H 3.35401 -3.1929 -0.69936 0
M  V30 26 H 3.01741 -3.26217 1.07944 0
M  V30 27 H 0.973713 2.1449 0.164233 0
M  V30 28 H 4.24715 2.37431 -0.0818721 0
M  V30 29 H 3.37495 2.46574 -1.63142 0
M  V30 END ATOM
M  V30 BEGIN BOND
M  V30 1 1 1 2
M  V30 2 1 2 3
M  V30 3 1 3 4
M  V30 4 2 4 5
M  V30 5 1 4 6
M  V30 6 1 6 7
M  V30 7 2 7 8
M  V30 8 1 8 9
M  V30 9 1 9 10
M  V30 10 2 9 11
M  V30 11 1 11 12
M  V30 12 2 12 13
M  V30 13 1 12 14
M  V30 14 1 11 15
M  V30 15 3 15 16
M  V30 16 1 13 7
M  V30 17 1 1 17
M  V30 18 1 1 18
M  V30 19 1 1 19
M  V30 20 1 2 20
M  V30 21 1 2 21
M  V30 22 1 6 22
M  V30 23 1 6 23
M  V30 24 1 8 24
M  V30 25 1 10 25
M  V30 26 1 10 26
M  V30 27 1 13 27
M  V30 28 1 14 28
M  V30 29 1 14 29
M  V30 END BOND
M  V30 END CTAB
M  END
