
     RDKit          3D

  0  0  0  0  0  0  0  0  0  0999 V3000
M  V30 BEGIN CTAB
M  V30 COUNTS 28 29 0 0 0
M  V30 BEGIN ATOM
M  V30 1 O -6.06987 -0.320224 0.066111 0
M  V30 2 C -4.70093 -0.0910438 -0.0305935 0
M  V30 3 C -3.86599 -0.644799 0.916726 0
M  V30 4 C -2.50382 -0.446961 0.864331 0
M  V30 5 C -1.93625 0.313699 -0.141594 0
M  V30 6 C -2.78581 0.857907 -1.07758 0
M  V30 7 C -4.14802 0.666851 -1.03503 0
M  V30 8 C -0.488832 0.522899 -0.195869 0
M  V30 9 N 0.329319 0.0292876 0.661247 0
M  V30 10 N 1.71224 0.231102 0.606582 0
M  V30 11 C 2.4983 -0.729488 0.29169 0
M  V30 12 C 3.94045 -0.508028 0.237586 0
M  V30 13 N 4.8806 -1.43122 -0.0794621 0
M  V30 14 O 6.0528 -0.831578 -0.0126874 0
M  V30 15 N 5.89339 0.415664 0.328951 0
M  V30 16 C 4.58692 0.678459 0.500286 0
M  V30 17 N 3.93456 1.8864 0.870034 0
M  V30 18 N 1.94339 -2.00362 -0.00128498 0
M  V30 19 H -6.69542 0.0730319 -0.612277 0
M  V30 20 H -4.30272 -1.24032 1.70557 0
M  V30 21 H -1.85336 -0.893543 1.62437 0
M  V30 22 H -2.33097 1.46002 -1.87286 0
M  V30 23 H -4.80931 1.11082 -1.79312 0
M  V30 24 H -0.0929995 1.12212 -0.997156 0
M  V30 25 H 3.37959 2.42237 0.145768 0
M  V30 26 H 3.96505 2.29344 1.83205 0
M  V30 27 H 1.6635 -2.19492 -0.989775 0
M  V30 28 H 1.80421 -2.74833 0.717197 0
M  V30 END ATOM
M  V30 BEGIN BOND
M  V30 1 1 1 2
M  V30 2 2 2 3
M  V30 3 1 3 4
M  V30 4 2 4 5
M  V30 5 1 5 6
M  V30 6 2 6 7
M  V30 7 1 5 8
M  V30 8 2 8 9
M  V30 9 1 9 10
M  V30 10 2 10 11
M  V30 11 1 11 12
M  V30 12 2 12 13
M  V30 13 1 13 14
M  V30 14 1 14 15
M  V30 15 2 15 16
M  V30 16 1 16 17
M  V30 17 1 11 18
M  V30 18 1 7 2
M  V30 19 1 16 12
M  V30 20 1 1 19
M  V30 21 1 3 20
M  V30 22 1 4 21
M  V30 23 1 6 22
M  V30 24 1 7 23
M  V30 25 1 8 24
M  V30 26 1 17 25
M  V30 27 1 17 26
M  V30 28 1 18 27
M  V30 29 1 18 28
M  V30 END BOND
M  V30 END CTAB
M  END
