
     RDKit          3D

  0  0  0  0  0  0  0  0  0  0999 V3000
M  V30 BEGIN CTAB
M  V30 COUNTS 29 29 0 0 0
M  V30 BEGIN ATOM
M  V30 1 C 4.93834 -0.96778 -0.144393 0
M  V30 2 O 4.03951 -0.0211994 0.403421 0
M  V30 3 C 2.65988 -0.148343 0.255594 0
M  V30 4 O 2.24688 -1.13454 -0.382219 0
M  V30 5 C 1.78148 0.887553 0.860732 0
M  V30 6 C 0.34935 0.563735 0.588479 0
M  V30 7 C -0.446755 0.026206 1.57731 0
M  V30 8 C -1.76677 -0.303351 1.4122 0
M  V30 9 N -2.555 -0.858771 2.46396 0
M  V30 10 C -2.32158 -0.0698746 0.147962 0
M  V30 11 C -1.53632 0.468692 -0.853277 0
M  V30 12 C -0.19932 0.792409 -0.653791 0
M  V30 13 N 0.569663 1.34907 -1.72693 0
M  V30 14 O -3.64891 -0.406294 -0.00475072 0
M  V30 15 C -4.2938 -0.204117 -1.24734 0
M  V30 16 H 4.90467 -0.977317 -1.25273 0
M  V30 17 H 5.95435 -0.699591 0.20239 0
M  V30 18 H 4.72141 -2.00353 0.179141 0
M  V30 19 H 1.94525 0.915168 1.97115 0
M  V30 20 H 2.04957 1.8999 0.49048 0
M  V30 21 H -0.02484 -0.161464 2.57426 0
M  V30 22 H -2.10571 -1.51155 3.12724 0
M  V30 23 H -3.55859 -0.629992 2.58427 0
M  V30 24 H -1.97394 0.645544 -1.82667 0
M  V30 25 H 1.59447 1.35509 -1.7149 0
M  V30 26 H 0.0906969 1.76408 -2.5512 0
M  V30 27 H -3.61792 -0.532566 -2.0648 0
M  V30 28 H -5.18242 -0.897647 -1.31247 0
M  V30 29 H -4.61364 0.860486 -1.37981 0
M  V30 END ATOM
M  V30 BEGIN BOND
M  V30 1 1 1 2
M  V30 2 1 2 3
M  V30 3 2 3 4
M  V30 4 1 3 5
M  V30 5 1 5 6
M  V30 6 2 6 7
M  V30 7 1 7 8
M  V30 8 1 8 9
M  V30 9 2 8 10
M  V30 10 1 10 11
M  V30 11 2 11 12
M  V30 12 1 12 13
M  V30 13 1 10 14
M  V30 14 1 14 15
M  V30 15 1 12 6
M  V30 16 1 1 16
M  V30 17 1 1 17
M  V30 18 1 1 18
M  V30 19 1 5 19
M  V30 20 1 5 20
M  V30 21 1 7 21
M  V30 22 1 9 22
M  V30 23 1 9 23
M  V30 24 1 11 24
M  V30 25 1 13 25
M  V30 26 1 13 26
M  V30 27 1 15 27
M  V30 28 1 15 28
M  V30 29 1 15 29
M  V30 END BOND
M  V30 END CTAB
M  END
