
     RDKit          3D

  0  0  0  0  0  0  0  0  0  0999 V3000
M  V30 BEGIN CTAB
M  V30 COUNTS 30 30 0 0 0
M  V30 BEGIN ATOM
M  V30 1 C -1.895 -0.471841 1.52995 0
M  V30 2 C -1.86845 -0.78354 0.0711539 0
M  V30 3 C -0.770289 -0.0991638 -0.682799 0
M  V30 4 C 0.587717 -0.44983 -0.189193 0
M  V30 5 N 1.47901 0.471962 0.214353 0
M  V30 6 C 2.71223 0.166103 0.662704 0
M  V30 7 N 3.62088 1.20506 1.07376 0
M  V30 8 C 3.10488 -1.13949 0.720654 0
M  V30 9 C 2.18029 -2.09988 0.302246 0
M  V30 10 O 2.55367 -3.30439 0.360553 0
M  V30 11 N 0.947552 -1.74367 -0.141842 0
M  V30 12 C -0.933691 1.39053 -0.495804 0
M  V30 13 C -2.23755 1.92277 -0.99268 0
M  V30 14 N -0.844484 -0.420129 -2.08538 0
M  V30 15 H -2.08886 -1.39146 2.15125 0
M  V30 16 H -0.954134 -0.0359811 1.91138 0
M  V30 17 H -2.68591 0.303599 1.74277 0
M  V30 18 H -2.82277 -0.508516 -0.410482 0
M  V30 19 H -1.7259 -1.89139 -0.0342353 0
M  V30 20 H 4.61218 1.00628 1.23258 0
M  V30 21 H 3.27778 2.17743 1.214 0
M  V30 22 H 4.0769 -1.39837 1.06928 0
M  V30 23 H 0.324571 -2.53027 -0.431132 0
M  V30 24 H -0.74362 1.62736 0.572774 0
M  V30 25 H -0.0781783 1.86165 -1.06831 0
M  V30 26 H -2.44547 1.47409 -1.98463 0
M  V30 27 H -2.12471 3.033 -1.0825 0
M  V30 28 H -3.02557 1.751 -0.255399 0
M  V30 29 H -1.8652 -0.468096 -2.34209 0
M  V30 30 H -0.367878 0.345184 -2.63294 0
M  V30 END ATOM
M  V30 BEGIN BOND
M  V30 1 1 1 2
M  V30 2 1 2 3
M  V30 3 1 3 4
M  V30 4 2 4 5
M  V30 5 1 5 6
M  V30 6 1 6 7
M  V30 7 2 6 8
M  V30 8 1 8 9
M  V30 9 2 9 10
M  V30 10 1 9 11
M  V30 11 1 3 12
M  V30 12 1 12 13
M  V30 13 1 3 14
M  V30 14 1 11 4
M  V30 15 1 1 15
M  V30 16 1 1 16
M  V30 17 1 1 17
M  V30 18 1 2 18
M  V30 19 1 2 19
M  V30 20 1 7 20
M  V30 21 1 7 21
M  V30 22 1 8 22
M  V30 23 1 11 23
M  V30 24 1 12 24
M  V30 25 1 12 25
M  V30 26 1 13 26
M  V30 27 1 13 27
M  V30 28 1 13 28
M  V30 29 1 14 29
M  V30 30 1 14 30
M  V30 END BOND
M  V30 END CTAB
M  END
