
     RDKit          3D

  0  0  0  0  0  0  0  0  0  0999 V3000
M  V30 BEGIN CTAB
M  V30 COUNTS 57 60 0 0 0
M  V30 BEGIN ATOM
M  V30 1 N 5.30933 2.08853 -2.60481 0
M  V30 2 C 5.17476 3.15117 -1.65727 0 CFG=1
M  V30 3 C 5.226 2.56768 -0.252725 0
M  V30 4 C 4.14325 1.59399 -0.0344322 0
M  V30 5 C 2.90118 1.9349 0.435373 0
M  V30 6 C 1.88884 0.986859 0.629194 0
M  V30 7 C 2.10993 -0.326395 0.352741 0
M  V30 8 C 3.35303 -0.695088 -0.121374 0
M  V30 9 C 4.36004 0.239452 -0.315873 0
M  V30 10 C 1.1021 -1.36369 0.516952 0
M  V30 11 N 1.39603 -2.66619 0.230173 0
M  V30 12 C 0.531 -3.66861 0.343179 0
M  V30 13 N 0.941693 -4.99539 0.0183086 0
M  V30 14 N -0.706358 -3.40734 0.760912 0
M  V30 15 C -1.11438 -2.14434 1.07666 0
M  V30 16 O -2.36198 -1.96225 1.486 0
M  V30 17 C -3.14518 -0.89284 1.87878 0
M  V30 18 C -4.50749 -0.883489 1.34841 0
M  V30 19 C -5.62035 -1.23459 2.13108 0
M  V30 20 C -6.87324 -1.26846 1.53842 0
M  V30 21 C -7.09531 -0.974881 0.215082 0
M  V30 22 C -5.98787 -0.634737 -0.519514 0
M  V30 23 C -4.69021 -0.579684 0.0171077 0
M  V30 24 C -3.61295 -0.137484 -0.845602 0
M  V30 25 C -2.88237 1.01311 -0.676461 0
M  V30 26 O -1.99566 1.11331 -1.62217 0
M  V30 27 C -2.05377 0.111988 -2.44281 0
M  V30 28 C -3.08409 -0.734805 -1.99312 0
M  V30 29 C -3.14537 -0.966608 3.42482 0
M  V30 30 F -1.79286 -0.81982 3.84238 0
M  V30 31 F -3.4504 -2.24962 3.81904 0
M  V30 32 F -3.82903 0.0315612 4.00995 0
M  V30 33 C -0.187331 -1.14684 0.94434 0
M  V30 34 C 6.2973 4.08619 -1.88834 0
M  V30 35 O 6.43002 5.2059 -1.109 0
M  V30 36 O 7.172 3.90917 -2.79316 0
M  V30 37 H 4.46704 1.5721 -2.80416 0
M  V30 38 H 5.95374 2.14135 -3.32941 0
M  V30 39 H 4.22796 3.66724 -1.85175 0
M  V30 40 H 5.14058 3.43966 0.436033 0
M  V30 41 H 6.24316 2.15838 -0.108434 0
M  V30 42 H 2.68528 2.9888 0.670105 0
M  V30 43 H 0.941858 1.31739 0.998916 0
M  V30 44 H 3.53819 -1.75791 -0.346101 0
M  V30 45 H 5.33856 -0.0218124 -0.683791 0
M  V30 46 H 1.71561 -5.38357 0.615841 0
M  V30 47 H 0.529017 -5.5501 -0.737302 0
M  V30 48 H -2.57589 0.0397605 1.68604 0
M  V30 49 H -5.51583 -1.47398 3.18206 0
M  V30 50 H -7.748 -1.54491 2.14702 0
M  V30 51 H -8.08962 -1.00699 -0.234703 0
M  V30 52 H -6.12473 -0.397184 -1.5708 0
M  V30 53 H -2.98608 1.77271 0.117784 0
M  V30 54 H -1.4259 -0.0482094 -3.31788 0
M  V30 55 H -3.4062 -1.64757 -2.42671 0
M  V30 56 H -0.470305 -0.120281 1.18539 0
M  V30 57 H 7.36126 5.57447 -0.889689 0
M  V30 END ATOM
M  V30 BEGIN BOND
M  V30 1 1 1 2
M  V30 2 1 2 3
M  V30 3 1 3 4
M  V30 4 2 4 5
M  V30 5 1 5 6
M  V30 6 2 6 7
M  V30 7 1 7 8
M  V30 8 2 8 9
M  V30 9 1 7 10
M  V30 10 2 10 11
M  V30 11 1 11 12
M  V30 12 1 12 13
M  V30 13 2 12 14
M  V30 14 1 14 15
M  V30 15 1 15 16
M  V30 16 1 16 17
M  V30 17 1 17 18
M  V30 18 2 18 19
M  V30 19 1 19 20
M  V30 20 2 20 21
M  V30 21 1 21 22
M  V30 22 2 22 23
M  V30 23 1 23 24
M  V30 24 2 24 25
M  V30 25 1 25 26
M  V30 26 1 26 27
M  V30 27 2 27 28
M  V30 28 1 17 29
M  V30 29 1 29 30
M  V30 30 1 29 31
M  V30 31 1 29 32
M  V30 32 2 15 33
M  V30 33 1 2 34
M  V30 34 1 34 35
M  V30 35 2 34 36
M  V30 36 1 9 4
M  V30 37 1 33 10
M  V30 38 1 23 18
M  V30 39 1 28 24
M  V30 40 1 1 37
M  V30 41 1 1 38
M  V30 42 1 2 39 CFG=3
M  V30 43 1 3 40
M  V30 44 1 3 41
M  V30 45 1 5 42
M  V30 46 1 6 43
M  V30 47 1 8 44
M  V30 48 1 9 45
M  V30 49 1 13 46
M  V30 50 1 13 47
M  V30 51 1 17 48
M  V30 52 1 19 49
M  V30 53 1 20 50
M  V30 54 1 21 51
M  V30 55 1 22 52
M  V30 56 1 25 53
M  V30 57 1 27 54
M  V30 58 1 28 55
M  V30 59 1 33 56
M  V30 60 1 35 57
M  V30 END BOND
M  V30 END CTAB
M  END
