
     RDKit          3D

  0  0  0  0  0  0  0  0  0  0999 V3000
M  V30 BEGIN CTAB
M  V30 COUNTS 22 22 0 0 0
M  V30 BEGIN ATOM
M  V30 1 N -1.40269 -1.08099 1.97106 0
M  V30 2 C -2.09403 -0.738008 0.788826 0
M  V30 3 N -3.45668 -0.696447 0.804146 0
M  V30 4 C -4.05501 -0.36408 -0.35096 0
M  V30 5 C -3.35194 -0.0764942 -1.50167 0
M  V30 6 N -2.00117 -0.123472 -1.49548 0
M  V30 7 C -1.38638 -0.450148 -0.363631 0
M  V30 8 S 0.416523 -0.539683 -0.255551 0
M  V30 9 C 1.03146 1.08968 0.237196 0
M  V30 10 C 2.50357 1.07921 0.342844 0
M  V30 11 O 3.09015 2.13218 0.67517 0
M  V30 12 N 3.25424 -0.0854161 0.0784947 0
M  V30 13 N 4.63772 -0.0413023 0.192666 0
M  V30 14 H -0.985108 -0.33708 2.54564 0
M  V30 15 H -1.3216 -2.06805 2.24863 0
M  V30 16 H -5.15321 -0.334979 -0.322568 0
M  V30 17 H -3.91225 0.180976 -2.38459 0
M  V30 18 H 0.610824 1.28284 1.26465 0
M  V30 19 H 0.707786 1.87864 -0.461085 0
M  V30 20 H 2.76207 -0.956147 -0.196932 0
M  V30 21 H 5.11109 -0.694716 -0.486611 0
M  V30 22 H 4.99464 0.943499 0.0794971 0
M  V30 END ATOM
M  V30 BEGIN BOND
M  V30 1 1 1 2
M  V30 2 2 2 3
M  V30 3 1 3 4
M  V30 4 2 4 5
M  V30 5 1 5 6
M  V30 6 2 6 7
M  V30 7 1 7 8
M  V30 8 1 8 9
M  V30 9 1 9 10
M  V30 10 2 10 11
M  V30 11 1 10 12
M  V30 12 1 12 13
M  V30 13 1 7 2
M  V30 14 1 1 14
M  V30 15 1 1 15
M  V30 16 1 4 16
M  V30 17 1 5 17
M  V30 18 1 9 18
M  V30 19 1 9 19
M  V30 20 1 12 20
M  V30 21 1 13 21
M  V30 22 1 13 22
M  V30 END BOND
M  V30 END CTAB
M  END
