
     RDKit          3D

  0  0  0  0  0  0  0  0  0  0999 V3000
M  V30 BEGIN CTAB
M  V30 COUNTS 38 39 0 0 0
M  V30 BEGIN ATOM
M  V30 1 C 6.43094 2.30282 -0.890545 0
M  V30 2 O 5.29758 1.59051 -0.378586 0
M  V30 3 C 5.39479 0.300597 0.0913168 0
M  V30 4 O 6.48088 -0.288903 0.0846258 0
M  V30 5 C 4.16732 -0.342465 0.596582 0
M  V30 6 C 4.02639 -1.60836 1.1074 0
M  V30 7 C 2.7974 -1.97313 1.50721 0
M  V30 8 C 1.79109 -1.06313 1.37555 0
M  V30 9 C 0.356608 -1.22901 1.75493 0
M  V30 10 C -0.437532 -1.80308 0.625755 0
M  V30 11 C -0.384412 -0.89654 -0.555626 0
M  V30 12 S -1.0796 0.739631 -0.273843 0
M  V30 13 C -2.84242 0.738222 -0.0636142 0
M  V30 14 C -3.66146 0.856357 -1.16374 0
M  V30 15 N -3.03558 0.970942 -2.43693 0
M  V30 16 N -5.0224 0.865167 -1.0521 0
M  V30 17 C -5.52953 0.753921 0.175391 0
M  V30 18 N -6.93899 0.760752 0.31507 0
M  V30 19 N -4.79492 0.635962 1.28851 0
M  V30 20 C -3.43018 0.62775 1.17049 0
M  V30 21 O -2.77732 0.517141 2.23031 0
M  V30 22 S 2.58172 0.283321 0.696117 0
M  V30 23 H 6.32246 2.42893 -1.98377 0
M  V30 24 H 6.5084 3.30242 -0.429237 0
M  V30 25 H 7.36828 1.74418 -0.69011 0
M  V30 26 H 4.92837 -2.26282 1.16427 0
M  V30 27 H 2.58281 -2.97407 1.93285 0
M  V30 28 H -0.0135018 -0.211692 2.03252 0
M  V30 29 H 0.272896 -1.82821 2.69128 0
M  V30 30 H 0.06089 -2.77045 0.322899 0
M  V30 31 H -1.4597 -2.09185 0.919024 0
M  V30 32 H -0.859989 -1.37935 -1.47072 0
M  V30 33 H 0.670243 -0.759473 -0.872347 0
M  V30 34 H -3.0445 1.86138 -2.99547 0
M  V30 35 H -2.53042 0.16483 -2.88353 0
M  V30 36 H -7.4891 1.57758 0.671599 0
M  V30 37 H -7.48419 -0.089735 0.0520255 0
M  V30 38 H -5.22333 0.549841 2.24154 0
M  V30 END ATOM
M  V30 BEGIN BOND
M  V30 1 1 1 2
M  V30 2 1 2 3
M  V30 3 2 3 4
M  V30 4 1 3 5
M  V30 5 2 5 6
M  V30 6 1 6 7
M  V30 7 2 7 8
M  V30 8 1 8 9
M  V30 9 1 9 10
M  V30 10 1 10 11
M  V30 11 1 11 12
M  V30 12 1 12 13
M  V30 13 2 13 14
M  V30 14 1 14 15
M  V30 15 1 14 16
M  V30 16 2 16 17
M  V30 17 1 17 18
M  V30 18 1 17 19
M  V30 19 1 19 20
M  V30 20 2 20 21
M  V30 21 1 8 22
M  V30 22 1 22 5
M  V30 23 1 20 13
M  V30 24 1 1 23
M  V30 25 1 1 24
M  V30 26 1 1 25
M  V30 27 1 6 26
M  V30 28 1 7 27
M  V30 29 1 9 28
M  V30 30 1 9 29
M  V30 31 1 10 30
M  V30 32 1 10 31
M  V30 33 1 11 32
M  V30 34 1 11 33
M  V30 35 1 15 34
M  V30 36 1 15 35
M  V30 37 1 18 36
M  V30 38 1 18 37
M  V30 39 1 19 38
M  V30 END BOND
M  V30 END CTAB
M  END
