
     RDKit          3D

  0  0  0  0  0  0  0  0  0  0999 V3000
M  V30 BEGIN CTAB
M  V30 COUNTS 46 49 0 0 0
M  V30 BEGIN ATOM
M  V30 1 N -5.83229 1.00999 -0.692528 0
M  V30 2 C -4.86666 2.03445 -0.317021 0
M  V30 3 C -3.96847 1.61188 0.8114 0
M  V30 4 C -2.8216 1.51291 -0.159719 0
M  V30 5 C -3.69065 2.09964 -1.2283 0
M  V30 6 C -2.40261 0.123161 -0.350913 0
M  V30 7 C -1.08058 -0.220854 -0.223501 0
M  V30 8 C -0.692594 -1.53125 -0.404678 0
M  V30 9 N 0.70615 -1.89872 -0.270559 0
M  V30 10 C 1.70187 -0.937201 0.0458378 0
M  V30 11 C 3.08021 -1.40348 0.158926 0
M  V30 12 C 3.48364 -2.7059 -0.0187428 0
M  V30 13 C 4.83587 -2.9871 0.124037 0
M  V30 14 C 5.77659 -2.03388 0.431039 0
M  V30 15 C 5.34919 -0.7343 0.604767 0
M  V30 16 C 4.021 -0.429426 0.469706 0
M  V30 17 N 3.6486 0.949689 0.665648 0
M  V30 18 C 3.93922 1.88159 -0.25671 0
M  V30 19 C 3.45385 3.07003 0.232149 0
M  V30 20 C 2.8841 2.78354 1.45023 0
M  V30 21 N 3.01819 1.47443 1.69093 0
M  V30 22 N -1.61818 -2.43871 -0.701403 0
M  V30 23 C -2.89864 -2.09515 -0.82294 0
M  V30 24 N -3.29189 -0.826506 -0.650063 0
M  V30 25 N -3.85281 -3.11371 -1.14387 0
M  V30 26 H -6.22238 1.16855 -1.64249 0
M  V30 27 H -6.56757 0.92995 0.0432095 0
M  V30 28 H -5.40334 2.99338 -0.143531 0
M  V30 29 H -3.80346 2.39795 1.57729 0
M  V30 30 H -4.23446 0.62904 1.2724 0
M  V30 31 H -1.96012 2.17971 0.0854593 0
M  V30 32 H -3.43388 3.17748 -1.424 0
M  V30 33 H -3.76299 1.51034 -2.16655 0
M  V30 34 H -0.317568 0.523019 0.0203444 0
M  V30 35 H 0.906909 -2.90415 -0.423371 0
M  V30 36 H 1.62902 -0.0578839 -0.662877 0
M  V30 37 H 1.43344 -0.471552 1.04096 0
M  V30 38 H 2.76863 -3.4751 -0.260162 0
M  V30 39 H 5.14504 -4.0144 -0.0173966 0
M  V30 40 H 6.81908 -2.23432 0.544067 0
M  V30 41 H 6.08235 0.0476182 0.851083 0
M  V30 42 H 4.45859 1.73014 -1.20899 0
M  V30 43 H 3.49868 4.06029 -0.234431 0
M  V30 44 H 2.41256 3.5114 2.08867 0
M  V30 45 H -4.17802 -3.15293 -2.11626 0
M  V30 46 H -4.15203 -3.74365 -0.374138 0
M  V30 END ATOM
M  V30 BEGIN BOND
M  V30 1 1 1 2
M  V30 2 1 2 3
M  V30 3 1 3 4
M  V30 4 1 4 5
M  V30 5 1 4 6
M  V30 6 2 6 7
M  V30 7 1 7 8
M  V30 8 1 8 9
M  V30 9 1 9 10
M  V30 10 1 10 11
M  V30 11 2 11 12
M  V30 12 1 12 13
M  V30 13 2 13 14
M  V30 14 1 14 15
M  V30 15 2 15 16
M  V30 16 1 16 17
M  V30 17 1 17 18
M  V30 18 2 18 19
M  V30 19 1 19 20
M  V30 20 2 20 21
M  V30 21 2 8 22
M  V30 22 1 22 23
M  V30 23 2 23 24
M  V30 24 1 23 25
M  V30 25 1 5 2
M  V30 26 1 24 6
M  V30 27 1 16 11
M  V30 28 1 21 17
M  V30 29 1 1 26
M  V30 30 1 1 27
M  V30 31 1 2 28
M  V30 32 1 3 29
M  V30 33 1 3 30
M  V30 34 1 4 31
M  V30 35 1 5 32
M  V30 36 1 5 33
M  V30 37 1 7 34
M  V30 38 1 9 35
M  V30 39 1 10 36
M  V30 40 1 10 37
M  V30 41 1 12 38
M  V30 42 1 13 39
M  V30 43 1 14 40
M  V30 44 1 15 41
M  V30 45 1 18 42
M  V30 46 1 19 43
M  V30 47 1 20 44
M  V30 48 1 25 45
M  V30 49 1 25 46
M  V30 END BOND
M  V30 END CTAB
M  END
