
     RDKit          3D

  0  0  0  0  0  0  0  0  0  0999 V3000
M  V30 BEGIN CTAB
M  V30 COUNTS 42 43 0 0 0
M  V30 BEGIN ATOM
M  V30 1 N 5.35832 1.18039 -3.25037 0
M  V30 2 C 4.12833 1.17282 -2.49434 0
M  V30 3 C 4.21911 0.00987 -1.50839 0
M  V30 4 C 2.92042 0.0254323 -0.733223 0
M  V30 5 O 2.84985 -1.00323 0.22909 0
M  V30 6 C 1.6858 -1.07037 0.994347 0
M  V30 7 C 0.64164 -0.192844 0.842284 0
M  V30 8 C -0.524982 -0.255587 1.60503 0
M  V30 9 C -0.658878 -1.23717 2.56342 0
M  V30 10 C 0.386389 -2.12836 2.727 0
M  V30 11 C 1.52596 -2.04237 1.96003 0
M  V30 12 C 2.61602 -3.02623 2.17978 0
M  V30 13 C -1.59163 0.732634 1.37337 0
M  V30 14 O -1.29991 1.70537 0.615103 0
M  V30 15 N -2.86337 0.599651 1.96372 0
M  V30 16 C -3.87072 1.59492 1.7058 0
M  V30 17 C -4.46681 1.44556 0.354187 0
M  V30 18 N -5.39602 2.23706 -0.207638 0
M  V30 19 N -5.70529 1.81717 -1.41947 0
M  V30 20 C -4.95995 0.725672 -1.65324 0
M  V30 21 N -4.19796 0.50262 -0.553828 0
M  V30 22 N -4.95733 -0.0595474 -2.82354 0
M  V30 23 H 6.09528 1.61278 -2.6331 0
M  V30 24 H 5.64159 0.194842 -3.39044 0
M  V30 25 H 3.25062 0.932422 -3.15789 0
M  V30 26 H 3.94221 2.12888 -1.96242 0
M  V30 27 H 4.36602 -0.898464 -2.1037 0
M  V30 28 H 5.09085 0.204091 -0.837941 0
M  V30 29 H 2.08352 -0.0188538 -1.45662 0
M  V30 30 H 2.85579 1.03999 -0.263067 0
M  V30 31 H 0.731844 0.583203 0.0941225 0
M  V30 32 H -1.55143 -1.31647 3.1777 0
M  V30 33 H 0.275478 -2.91366 3.4957 0
M  V30 34 H 3.42302 -2.47012 2.73539 0
M  V30 35 H 3.05685 -3.40178 1.23295 0
M  V30 36 H 2.28762 -3.8334 2.85247 0
M  V30 37 H -3.07368 -0.20199 2.57171 0
M  V30 38 H -3.36184 2.58321 1.74807 0
M  V30 39 H -4.64432 1.50778 2.50697 0
M  V30 40 H -6.38784 2.21988 -2.10044 0
M  V30 41 H -4.69131 -1.07404 -2.81074 0
M  V30 42 H -5.22926 0.388226 -3.72686 0
M  V30 END ATOM
M  V30 BEGIN BOND
M  V30 1 1 1 2
M  V30 2 1 2 3
M  V30 3 1 3 4
M  V30 4 1 4 5
M  V30 5 1 5 6
M  V30 6 2 6 7
M  V30 7 1 7 8
M  V30 8 2 8 9
M  V30 9 1 9 10
M  V30 10 2 10 11
M  V30 11 1 11 12
M  V30 12 1 8 13
M  V30 13 2 13 14
M  V30 14 1 13 15
M  V30 15 1 15 16
M  V30 16 1 16 17
M  V30 17 2 17 18
M  V30 18 1 18 19
M  V30 19 1 19 20
M  V30 20 2 20 21
M  V30 21 1 20 22
M  V30 22 1 11 6
M  V30 23 1 21 17
M  V30 24 1 1 23
M  V30 25 1 1 24
M  V30 26 1 2 25
M  V30 27 1 2 26
M  V30 28 1 3 27
M  V30 29 1 3 28
M  V30 30 1 4 29
M  V30 31 1 4 30
M  V30 32 1 7 31
M  V30 33 1 9 32
M  V30 34 1 10 33
M  V30 35 1 12 34
M  V30 36 1 12 35
M  V30 37 1 12 36
M  V30 38 1 15 37
M  V30 39 1 16 38
M  V30 40 1 16 39
M  V30 41 1 19 40
M  V30 42 1 22 41
M  V30 43 1 22 42
M  V30 END BOND
M  V30 END CTAB
M  END
