
     RDKit          3D

  0  0  0  0  0  0  0  0  0  0999 V3000
M  V30 BEGIN CTAB
M  V30 COUNTS 25 25 0 0 0
M  V30 BEGIN ATOM
M  V30 1 N 3.31521 0.422369 0.240221 0
M  V30 2 C 2.5105 -0.591579 -0.408169 0
M  V30 3 C 1.17135 -0.0133017 -0.701098 0
M  V30 4 C 0.22108 -0.953027 -1.37744 0
M  V30 5 C -1.14732 -0.440908 -0.935323 0
M  V30 6 C -0.918002 0.544256 0.155206 0
M  V30 7 C 0.470869 0.203833 0.647975 0
M  V30 8 C -1.93425 0.48703 1.26037 0
M  V30 9 N -3.2395 0.761902 0.647065 0
M  V30 10 H 3.51506 0.206459 1.24217 0
M  V30 11 H 2.81796 1.36375 0.264013 0
M  V30 12 H 3.00299 -0.930831 -1.35428 0
M  V30 13 H 2.36779 -1.49643 0.216802 0
M  V30 14 H 1.18737 0.925085 -1.2667 0
M  V30 15 H 0.258825 -0.925879 -2.4699 0
M  V30 16 H 0.3409 -2.00724 -0.993486 0
M  V30 17 H -1.6789 0.0378148 -1.79659 0
M  V30 18 H -1.7619 -1.27581 -0.548593 0
M  V30 19 H -0.868273 1.588 -0.233135 0
M  V30 20 H 0.487687 -0.782263 1.17773 0
M  V30 21 H 0.941566 1.0123 1.22315 0
M  V30 22 H -1.91348 -0.526326 1.70352 0
M  V30 23 H -1.67134 1.2605 2.00428 0
M  V30 24 H -3.86748 1.28484 1.2718 0
M  V30 25 H -3.60871 -0.154535 0.335641 0
M  V30 END ATOM
M  V30 BEGIN BOND
M  V30 1 1 1 2
M  V30 2 1 2 3
M  V30 3 1 3 4
M  V30 4 1 4 5
M  V30 5 1 5 6
M  V30 6 1 6 7
M  V30 7 1 6 8
M  V30 8 1 8 9
M  V30 9 1 7 3
M  V30 10 1 1 10
M  V30 11 1 1 11
M  V30 12 1 2 12
M  V30 13 1 2 13
M  V30 14 1 3 14
M  V30 15 1 4 15
M  V30 16 1 4 16
M  V30 17 1 5 17
M  V30 18 1 5 18
M  V30 19 1 6 19
M  V30 20 1 7 20
M  V30 21 1 7 21
M  V30 22 1 8 22
M  V30 23 1 8 23
M  V30 24 1 9 24
M  V30 25 1 9 25
M  V30 END BOND
M  V30 END CTAB
M  END
