
     RDKit          3D

  0  0  0  0  0  0  0  0  0  0999 V3000
M  V30 BEGIN CTAB
M  V30 COUNTS 22 23 0 0 0
M  V30 BEGIN ATOM
M  V30 1 N 3.72984 -1.7921 -0.26947 0
M  V30 2 C 2.49341 -1.07908 -0.125949 0
M  V30 3 N 1.32449 -1.60332 -0.535467 0
M  V30 4 C 0.143112 -0.971179 -0.420697 0
M  V30 5 C -1.04823 -1.51885 -0.844151 0
M  V30 6 C -2.25989 -0.870342 -0.726366 0
M  V30 7 C -2.28216 0.38395 -0.158974 0
M  V30 8 C -1.10229 0.975004 0.28254 0
M  V30 9 C 0.0909592 0.286636 0.143927 0
M  V30 10 C 1.29714 0.819683 0.5629 0
M  V30 11 N 1.25216 2.12339 1.14946 0
M  V30 12 N 2.45358 0.147767 0.426389 0
M  V30 13 N -3.51851 1.06668 -0.0292162 0 CHG=1
M  V30 14 O -3.55843 2.32306 0.536589 0 CHG=-1
M  V30 15 O -4.54812 0.498227 -0.438487 0
M  V30 16 H 4.5657 -1.23068 -0.531414 0
M  V30 17 H 3.83807 -2.80912 -0.131163 0
M  V30 18 H -1.01836 -2.51424 -1.29263 0
M  V30 19 H -3.18905 -1.31823 -1.06606 0
M  V30 20 H -1.1271 1.95181 0.723306 0
M  V30 21 H 1.4243 2.97636 0.57639 0
M  V30 22 H 1.03937 2.15456 2.16855 0
M  V30 END ATOM
M  V30 BEGIN BOND
M  V30 1 1 1 2
M  V30 2 2 2 3
M  V30 3 1 3 4
M  V30 4 2 4 5
M  V30 5 1 5 6
M  V30 6 2 6 7
M  V30 7 1 7 8
M  V30 8 2 8 9
M  V30 9 1 9 10
M  V30 10 1 10 11
M  V30 11 2 10 12
M  V30 12 1 7 13
M  V30 13 1 13 14
M  V30 14 2 13 15
M  V30 15 1 12 2
M  V30 16 1 9 4
M  V30 17 1 1 16
M  V30 18 1 1 17
M  V30 19 1 5 18
M  V30 20 1 6 19
M  V30 21 1 8 20
M  V30 22 1 11 21
M  V30 23 1 11 22
M  V30 END BOND
M  V30 END CTAB
M  END
