
     RDKit          3D

  0  0  0  0  0  0  0  0  0  0999 V3000
M  V30 BEGIN CTAB
M  V30 COUNTS 22 23 0 0 0
M  V30 BEGIN ATOM
M  V30 1 N -3.43812 0.211297 1.7623 0
M  V30 2 C -2.34539 0.0413001 0.875466 0
M  V30 3 N -1.03497 0.243543 1.08113 0
M  V30 4 N -0.311067 -0.0239091 0.00966141 0
M  V30 5 N -1.16846 -0.409641 -0.91689 0
M  V30 6 C -2.43045 -0.393021 -0.45427 0
M  V30 7 N -3.6155 -0.735786 -1.13996 0
M  V30 8 C 1.12101 0.0867243 -0.110762 0
M  V30 9 C 1.72376 0.972062 -0.979557 0
M  V30 10 C 3.08951 1.09262 -1.10911 0
M  V30 11 C 3.89622 0.288539 -0.331908 0
M  V30 12 C 3.32616 -0.608467 0.547984 0
M  V30 13 C 1.94169 -0.710985 0.660098 0
M  V30 14 H -3.3205 0.0362979 2.774 0
M  V30 15 H -4.36364 0.510769 1.4148 0
M  V30 16 H -4.35469 -0.0270243 -1.26983 0
M  V30 17 H -3.75819 -1.6855 -1.5158 0
M  V30 18 H 1.0789 1.5879 -1.57457 0
M  V30 19 H 3.54814 1.80257 -1.80557 0
M  V30 20 H 4.9677 0.378935 -0.429502 0
M  V30 21 H 3.95607 -1.24058 1.15901 0
M  V30 22 H 1.49183 -1.41765 1.35326 0
M  V30 END ATOM
M  V30 BEGIN BOND
M  V30 1 1 1 2
M  V30 2 2 2 3
M  V30 3 1 3 4
M  V30 4 1 4 5
M  V30 5 2 5 6
M  V30 6 1 6 7
M  V30 7 1 4 8
M  V30 8 2 8 9
M  V30 9 1 9 10
M  V30 10 2 10 11
M  V30 11 1 11 12
M  V30 12 2 12 13
M  V30 13 1 6 2
M  V30 14 1 13 8
M  V30 15 1 1 14
M  V30 16 1 1 15
M  V30 17 1 7 16
M  V30 18 1 7 17
M  V30 19 1 9 18
M  V30 20 1 10 19
M  V30 21 1 11 20
M  V30 22 1 12 21
M  V30 23 1 13 22
M  V30 END BOND
M  V30 END CTAB
M  END
