
     RDKit          3D

  0  0  0  0  0  0  0  0  0  0999 V3000
M  V30 BEGIN CTAB
M  V30 COUNTS 27 29 0 0 0
M  V30 BEGIN ATOM
M  V30 1 N -4.67209 -0.122409 1.75979 0
M  V30 2 C -3.51731 -0.211059 0.924918 0
M  V30 3 C -2.25447 0.0804505 1.4008 0
M  V30 4 C -1.1226 0.00188747 0.61231 0
M  V30 5 C -1.22059 -0.380183 -0.709743 0
M  V30 6 O -0.152278 -0.460261 -1.47515 0
M  V30 7 C 1.04526 -0.193321 -1.05784 0
M  V30 8 C 2.12212 -0.305704 -1.94258 0
M  V30 9 C 3.35987 -0.00551723 -1.42444 0
M  V30 10 C 3.57673 0.381502 -0.138 0
M  V30 11 N 4.85306 0.69198 0.39963 0
M  V30 12 C 2.49546 0.481112 0.703057 0
M  V30 13 C 1.21393 0.195214 0.255627 0
M  V30 14 C 0.141125 0.302044 1.1187 0
M  V30 15 O 0.267959 0.654883 2.32331 0
M  V30 16 C -2.47685 -0.674861 -1.19991 0
M  V30 17 C -3.59757 -0.591485 -0.399219 0
M  V30 18 H -5.32123 0.706129 1.61872 0
M  V30 19 H -4.91589 -0.809008 2.48891 0
M  V30 20 H -2.16264 0.384015 2.44492 0
M  V30 21 H 1.96155 -0.613242 -2.9701 0
M  V30 22 H 4.23841 -0.0779131 -2.07725 0
M  V30 23 H 4.98282 1.30944 1.21332 0
M  V30 24 H 5.68981 0.276676 -0.0496234 0
M  V30 25 H 2.5862 0.7808 1.73387 0
M  V30 26 H -2.53667 -0.972787 -2.23828 0
M  V30 27 H -4.58414 -0.828384 -0.803756 0
M  V30 END ATOM
M  V30 BEGIN BOND
M  V30 1 1 1 2
M  V30 2 2 2 3
M  V30 3 1 3 4
M  V30 4 2 4 5
M  V30 5 1 5 6
M  V30 6 1 6 7
M  V30 7 2 7 8
M  V30 8 1 8 9
M  V30 9 2 9 10
M  V30 10 1 10 11
M  V30 11 1 10 12
M  V30 12 2 12 13
M  V30 13 1 13 14
M  V30 14 2 14 15
M  V30 15 1 5 16
M  V30 16 2 16 17
M  V30 17 1 17 2
M  V30 18 1 14 4
M  V30 19 1 13 7
M  V30 20 1 1 18
M  V30 21 1 1 19
M  V30 22 1 3 20
M  V30 23 1 8 21
M  V30 24 1 9 22
M  V30 25 1 11 23
M  V30 26 1 11 24
M  V30 27 1 12 25
M  V30 28 1 16 26
M  V30 29 1 17 27
M  V30 END BOND
M  V30 END CTAB
M  END
