
     RDKit          3D

  0  0  0  0  0  0  0  0  0  0999 V3000
M  V30 BEGIN CTAB
M  V30 COUNTS 39 41 0 0 0
M  V30 BEGIN ATOM
M  V30 1 N 3.55485 1.70845 -0.955416 0
M  V30 2 C 2.17648 1.40015 -0.748712 0
M  V30 3 N 1.1143 2.19412 -0.869042 0
M  V30 4 C -0.0177478 1.4878 -0.598699 0
M  V30 5 N -1.34628 1.98515 -0.633126 0
M  V30 6 C -2.51276 1.27387 -0.34883 0
M  V30 7 C -3.74294 1.845 -0.706247 0
M  V30 8 C -4.94516 1.22693 -0.457692 0
M  V30 9 C -5.00976 0.00253694 0.160784 0
M  V30 10 C -3.81962 -0.566285 0.514923 0
M  V30 11 C -2.58508 0.055134 0.26648 0
M  V30 12 S -6.47541 -0.85902 0.518099 0
M  V30 13 N -7.08546 -0.425099 2.074 0
M  V30 14 O -7.47991 -0.639227 -0.572209 0
M  V30 15 O -6.18286 -2.3515 0.593447 0
M  V30 16 N 0.416824 0.269837 -0.32071 0
M  V30 17 N 1.74157 0.174779 -0.400057 0
M  V30 18 C 2.45452 -1.01844 -0.121027 0
M  V30 19 O 1.77311 -2.07446 0.130671 0
M  V30 20 C 3.87683 -1.1778 -0.0887389 0
M  V30 21 C 4.66959 -0.703838 0.965726 0
M  V30 22 F 4.04797 -0.0959137 2.01478 0
M  V30 23 C 6.03533 -0.867996 0.949166 0
M  V30 24 C 6.68097 -1.49906 -0.0909504 0
M  V30 25 C 5.87979 -1.95697 -1.11571 0
M  V30 26 C 4.50933 -1.81311 -1.13987 0
M  V30 27 F 3.80735 -2.30476 -2.20835 0
M  V30 28 H 4.05277 1.41096 -1.83039 0
M  V30 29 H 4.12338 2.23194 -0.26165 0
M  V30 30 H -1.42135 3.00772 -0.905576 0
M  V30 31 H -3.70558 2.81745 -1.19942 0
M  V30 32 H -5.87585 1.69652 -0.747201 0
M  V30 33 H -3.82334 -1.53697 1.0066 0
M  V30 34 H -1.68108 -0.454648 0.5884 0
M  V30 35 H -7.69888 0.427593 2.02121 0
M  V30 36 H -6.283 -0.27139 2.72759 0
M  V30 37 H 6.64449 -0.501293 1.76933 0
M  V30 38 H 7.76403 -1.63465 -0.107509 0
M  V30 39 H 6.36857 -2.46351 -1.95556 0
M  V30 END ATOM
M  V30 BEGIN BOND
M  V30 1 1 1 2
M  V30 2 2 2 3
M  V30 3 1 3 4
M  V30 4 1 4 5
M  V30 5 1 5 6
M  V30 6 2 6 7
M  V30 7 1 7 8
M  V30 8 2 8 9
M  V30 9 1 9 10
M  V30 10 2 10 11
M  V30 11 1 9 12
M  V30 12 1 12 13
M  V30 13 2 12 14
M  V30 14 2 12 15
M  V30 15 2 4 16
M  V30 16 1 16 17
M  V30 17 1 17 18
M  V30 18 2 18 19
M  V30 19 1 18 20
M  V30 20 2 20 21
M  V30 21 1 21 22
M  V30 22 1 21 23
M  V30 23 2 23 24
M  V30 24 1 24 25
M  V30 25 2 25 26
M  V30 26 1 26 27
M  V30 27 1 17 2
M  V30 28 1 26 20
M  V30 29 1 11 6
M  V30 30 1 1 28
M  V30 31 1 1 29
M  V30 32 1 5 30
M  V30 33 1 7 31
M  V30 34 1 8 32
M  V30 35 1 10 33
M  V30 36 1 11 34
M  V30 37 1 13 35
M  V30 38 1 13 36
M  V30 39 1 23 37
M  V30 40 1 24 38
M  V30 41 1 25 39
M  V30 END BOND
M  V30 END CTAB
M  END
