
     RDKit          3D

  0  0  0  0  0  0  0  0  0  0999 V3000
M  V30 BEGIN CTAB
M  V30 COUNTS 30 31 0 0 0
M  V30 BEGIN ATOM
M  V30 1 N 4.92221 -0.351201 -1.12832 0
M  V30 2 C 3.56434 -0.119381 -0.779082 0
M  V30 3 C 3.11379 -0.314757 0.52432 0
M  V30 4 C 1.80581 -0.0831581 0.82446 0
M  V30 5 C 0.870862 0.339225 -0.0830835 0
M  V30 6 C 1.33562 0.528502 -1.37306 0
M  V30 7 C 2.64994 0.3063 -1.71957 0
M  V30 8 C -0.528675 0.584467 0.190986 0
M  V30 9 C -1.41768 -0.450923 0.272143 0
M  V30 10 C -2.76422 -0.174983 0.554954 0
M  V30 11 C -3.22415 1.10124 0.753485 0
M  V30 12 N -4.59332 1.35523 1.03875 0
M  V30 13 C -2.30315 2.12309 0.664445 0
M  V30 14 C -0.980356 1.90831 0.39174 0
M  V30 15 S -0.942341 -2.08833 0.0201676 0
M  V30 16 O -2.28459 -3.13419 0.107197 0
M  V30 17 O 0.103183 -2.58568 0.974784 0
M  V30 18 O -0.403158 -2.22912 -1.37455 0
M  V30 19 H 5.68817 0.0634811 -0.57703 0
M  V30 20 H 5.13027 -0.943161 -1.94521 0
M  V30 21 H 3.8228 -0.647826 1.26666 0
M  V30 22 H 1.44534 -0.22556 1.85282 0
M  V30 23 H 0.639906 0.861465 -2.1282 0
M  V30 24 H 3.00492 0.455262 -2.72403 0
M  V30 25 H -3.43896 -1.01659 0.612192 0
M  V30 26 H -5.02441 2.23148 0.674918 0
M  V30 27 H -5.19958 0.715274 1.59375 0
M  V30 28 H -2.71368 3.12747 0.829798 0
M  V30 29 H -0.269522 2.70942 0.324081 0
M  V30 30 H -2.00938 -4.04536 0.360486 0
M  V30 END ATOM
M  V30 BEGIN BOND
M  V30 1 1 1 2
M  V30 2 2 2 3
M  V30 3 1 3 4
M  V30 4 2 4 5
M  V30 5 1 5 6
M  V30 6 2 6 7
M  V30 7 1 5 8
M  V30 8 2 8 9
M  V30 9 1 9 10
M  V30 10 2 10 11
M  V30 11 1 11 12
M  V30 12 1 11 13
M  V30 13 2 13 14
M  V30 14 1 9 15
M  V30 15 1 15 16
M  V30 16 2 15 17
M  V30 17 2 15 18
M  V30 18 1 7 2
M  V30 19 1 14 8
M  V30 20 1 1 19
M  V30 21 1 1 20
M  V30 22 1 3 21
M  V30 23 1 4 22
M  V30 24 1 6 23
M  V30 25 1 7 24
M  V30 26 1 10 25
M  V30 27 1 12 26
M  V30 28 1 12 27
M  V30 29 1 13 28
M  V30 30 1 14 29
M  V30 31 1 16 30
M  V30 END BOND
M  V30 END CTAB
M  END
