
     RDKit          3D

  0  0  0  0  0  0  0  0  0  0999 V3000
M  V30 BEGIN CTAB
M  V30 COUNTS 62 65 0 0 0
M  V30 BEGIN ATOM
M  V30 1 C -6.33638 -1.29228 -0.922045 0
M  V30 2 C -5.34132 -1.29073 0.153402 0
M  V30 3 N -4.96195 -2.28244 0.958996 0
M  V30 4 O -4.06736 -1.8402 1.77871 0
M  V30 5 C -3.80583 -0.565671 1.5743 0
M  V30 6 C -2.81918 0.203448 2.38232 0
M  V30 7 C -4.60127 -0.163277 0.533891 0
M  V30 8 C -4.71194 1.1607 -0.00860182 0
M  V30 9 C -5.53088 2.11347 0.595718 0
M  V30 10 C -5.66651 3.38654 0.0989788 0
M  V30 11 F -6.46363 4.30209 0.700953 0
M  V30 12 C -4.98832 3.76498 -1.0276 0
M  V30 13 C -4.15859 2.82476 -1.65303 0
M  V30 14 C -4.01419 1.54082 -1.1599 0
M  V30 15 C -3.15203 0.531497 -1.76659 0
M  V30 16 O -1.82608 0.74645 -1.19118 0
M  V30 17 C -0.940615 -0.250028 -0.92119 0
M  V30 18 C 0.317052 0.0548427 -0.374959 0
M  V30 19 C 1.23396 -0.924552 -0.0870797 0
M  V30 20 N 0.896159 -2.21989 -0.345629 0
M  V30 21 C -0.303364 -2.51348 -0.865994 0
M  V30 22 N -0.725741 -3.8385 -1.16059 0
M  V30 23 N -1.20072 -1.53153 -1.14551 0
M  V30 24 C 2.53404 -0.630992 0.488412 0
M  V30 25 C 3.38305 -1.67143 0.775688 0
M  V30 26 C 4.61826 -1.44773 1.31874 0
M  V30 27 C 5.04959 -0.167989 1.59337 0
M  V30 28 C 6.38259 0.0502053 2.16061 0
M  V30 29 C 7.42299 0.293777 1.06332 0 CFG=2
M  V30 30 N 7.46792 -0.873473 0.179042 0
M  V30 31 C 8.7294 0.495775 1.73316 0
M  V30 32 O 9.7626 -0.383938 1.46423 0
M  V30 33 O 8.85852 1.45719 2.52289 0
M  V30 34 C 4.22772 0.875775 1.31778 0
M  V30 35 C 2.96614 0.641603 0.763588 0
M  V30 36 C -2.85125 0.855991 -3.23855 0
M  V30 37 F -2.14927 1.99961 -3.44052 0
M  V30 38 F -4.0631 1.0101 -3.90334 0
M  V30 39 F -2.12909 -0.193176 -3.8076 0
M  V30 40 H -6.94447 -2.23583 -0.817242 0
M  V30 41 H -5.76561 -1.39752 -1.88804 0
M  V30 42 H -6.96136 -0.403067 -0.949464 0
M  V30 43 H -2.18355 0.786436 1.70985 0
M  V30 44 H -2.2713 -0.483117 3.05849 0
M  V30 45 H -3.33474 0.954936 3.03359 0
M  V30 46 H -6.08298 1.81693 1.50438 0
M  V30 47 H -5.07861 4.77867 -1.44827 0
M  V30 48 H -3.66599 3.18496 -2.53799 0
M  V30 49 H -3.43013 -0.506013 -1.6526 0
M  V30 50 H 0.535901 1.07974 -0.193011 0
M  V30 51 H -1.30477 -4.02207 -2.01606 0
M  V30 52 H -0.468932 -4.61842 -0.547649 0
M  V30 53 H 3.08315 -2.68809 0.575974 0
M  V30 54 H 5.28573 -2.28686 1.54631 0
M  V30 55 H 6.77064 -0.837755 2.74105 0
M  V30 56 H 6.37787 0.942254 2.83191 0
M  V30 57 H 7.09904 1.18969 0.469743 0
M  V30 58 H 8.27367 -0.734726 -0.478038 0
M  V30 59 H 6.58731 -0.890174 -0.394642 0
M  V30 60 H 9.6043 -1.2425 0.971196 0
M  V30 61 H 4.5042 1.89176 1.50864 0
M  V30 62 H 2.32925 1.49247 0.552689 0
M  V30 END ATOM
M  V30 BEGIN BOND
M  V30 1 1 1 2
M  V30 2 2 2 3
M  V30 3 1 3 4
M  V30 4 1 4 5
M  V30 5 1 5 6
M  V30 6 2 5 7
M  V30 7 1 7 8
M  V30 8 2 8 9
M  V30 9 1 9 10
M  V30 10 1 10 11
M  V30 11 2 10 12
M  V30 12 1 12 13
M  V30 13 2 13 14
M  V30 14 1 14 15
M  V30 15 1 15 16
M  V30 16 1 16 17
M  V30 17 2 17 18
M  V30 18 1 18 19
M  V30 19 2 19 20
M  V30 20 1 20 21
M  V30 21 1 21 22
M  V30 22 2 21 23
M  V30 23 1 19 24
M  V30 24 2 24 25
M  V30 25 1 25 26
M  V30 26 2 26 27
M  V30 27 1 27 28
M  V30 28 1 28 29
M  V30 29 1 29 30
M  V30 30 1 29 31
M  V30 31 1 31 32
M  V30 32 2 31 33
M  V30 33 1 27 34
M  V30 34 2 34 35
M  V30 35 1 15 36
M  V30 36 1 36 37
M  V30 37 1 36 38
M  V30 38 1 36 39
M  V30 39 1 7 2
M  V30 40 1 14 8
M  V30 41 1 23 17
M  V30 42 1 35 24
M  V30 43 1 1 40
M  V30 44 1 1 41
M  V30 45 1 1 42
M  V30 46 1 6 43
M  V30 47 1 6 44
M  V30 48 1 6 45
M  V30 49 1 9 46
M  V30 50 1 12 47
M  V30 51 1 13 48
M  V30 52 1 15 49
M  V30 53 1 18 50
M  V30 54 1 22 51
M  V30 55 1 22 52
M  V30 56 1 25 53
M  V30 57 1 26 54
M  V30 58 1 28 55
M  V30 59 1 28 56
M  V30 60 1 29 57 CFG=3
M  V30 61 1 30 58
M  V30 62 1 30 59
M  V30 63 1 32 60
M  V30 64 1 34 61
M  V30 65 1 35 62
M  V30 END BOND
M  V30 END CTAB
M  END
