
     RDKit          3D

  0  0  0  0  0  0  0  0  0  0999 V3000
M  V30 BEGIN CTAB
M  V30 COUNTS 20 20 0 0 0
M  V30 BEGIN ATOM
M  V30 1 N -3.52636 0.405154 1.11772 0
M  V30 2 C -2.37302 0.146974 0.266405 0
M  V30 3 N -1.28257 0.172021 0.829997 0
M  V30 4 C 0.0467302 0.0271188 0.612816 0
M  V30 5 C 0.912512 1.13983 0.78233 0
M  V30 6 C 2.25301 1.06283 0.511272 0
M  V30 7 C 2.83282 -0.120782 0.0511661 0
M  V30 8 C 2.01065 -1.22212 -0.125075 0
M  V30 9 C 0.663898 -1.11352 0.157896 0
M  V30 10 O 4.18008 -0.199062 -0.217875 0
M  V30 11 N -2.6977 -0.196283 -1.07756 0
M  V30 12 H -4.20582 -0.363391 1.24688 0
M  V30 13 H -3.6586 1.33278 1.56227 0
M  V30 14 H 0.471944 2.05978 1.1467 0
M  V30 15 H 2.9507 1.90853 0.651951 0
M  V30 16 H 2.44683 -2.16587 -0.495762 0
M  V30 17 H 0.0622571 -2.01319 0.000988975 0
M  V30 18 H 4.57835 0.00348704 -1.14807 0
M  V30 19 H -2.7632 0.382911 -1.90928 0
M  V30 20 H -2.90249 -1.2472 -1.21781 0
M  V30 END ATOM
M  V30 BEGIN BOND
M  V30 1 1 1 2
M  V30 2 2 2 3 CFG=2
M  V30 3 1 3 4
M  V30 4 2 4 5
M  V30 5 1 5 6
M  V30 6 2 6 7
M  V30 7 1 7 8
M  V30 8 2 8 9
M  V30 9 1 7 10
M  V30 10 1 2 11
M  V30 11 1 9 4
M  V30 12 1 1 12
M  V30 13 1 1 13
M  V30 14 1 5 14
M  V30 15 1 6 15
M  V30 16 1 8 16
M  V30 17 1 9 17
M  V30 18 1 10 18
M  V30 19 1 11 19
M  V30 20 1 11 20
M  V30 END BOND
M  V30 END CTAB
M  END
