
     RDKit          3D

  0  0  0  0  0  0  0  0  0  0999 V3000
M  V30 BEGIN CTAB
M  V30 COUNTS 40 41 0 0 0
M  V30 BEGIN ATOM
M  V30 1 C 4.59385 -0.248372 -0.3232 0
M  V30 2 C 3.4253 -0.396272 -1.24584 0
M  V30 3 C 2.32478 -1.25553 -0.818874 0
M  V30 4 C 1.458 -0.944618 0.332593 0
M  V30 5 C 0.594355 0.221439 0.264118 0
M  V30 6 C 0.90018 1.48416 0.630601 0
M  V30 7 C 2.17451 1.86899 1.31291 0
M  V30 8 N 0.0170706 2.52035 0.453946 0
M  V30 9 C -1.19459 2.36561 -0.0832962 0
M  V30 10 C -1.5632 1.10204 -0.473818 0
M  V30 11 C -0.69311 0.0597413 -0.304352 0
M  V30 12 S -1.17316 -1.5701 -0.810412 0
M  V30 13 C -1.95772 -2.53761 0.474941 0
M  V30 14 N -2.28939 -3.84026 -0.115043 0
M  V30 15 N -3.19095 -1.99173 0.973331 0
M  V30 16 C -2.81609 0.911511 -1.04017 0
M  V30 17 C -3.67241 1.98097 -1.20351 0
M  V30 18 C -3.30568 3.25106 -0.81165 0
M  V30 19 C -2.06979 3.43458 -0.254623 0
M  V30 20 Br -5.41208 1.735 -1.98542 0
M  V30 21 H 4.35131 -0.326757 0.749601 0
M  V30 22 H 5.39171 -1.00672 -0.577179 0
M  V30 23 H 5.10502 0.739234 -0.463282 0
M  V30 24 H 3.85327 -0.821223 -2.20727 0
M  V30 25 H 3.08587 0.627639 -1.56909 0
M  V30 26 H 1.66712 -1.42432 -1.74235 0
M  V30 27 H 2.76322 -2.31259 -0.698126 0
M  V30 28 H 0.781451 -1.84965 0.47321 0
M  V30 29 H 2.05625 -0.952195 1.30922 0
M  V30 30 H 2.9077 2.2739 0.573194 0
M  V30 31 H 1.98767 2.6845 2.03033 0
M  V30 32 H 2.59087 1.01509 1.87547 0
M  V30 33 H -1.27952 -2.69349 1.35165 0
M  V30 34 H -3.30695 -3.91879 -0.3174 0
M  V30 35 H -1.76767 -4.00024 -1.00982 0
M  V30 36 H -3.8875 -1.87137 0.178501 0
M  V30 37 H -3.63428 -2.74634 1.56697 0
M  V30 38 H -3.10266 -0.0795565 -1.35301 0
M  V30 39 H -3.96086 4.10423 -0.929302 0
M  V30 40 H -1.7519 4.40768 0.0609674 0
M  V30 END ATOM
M  V30 BEGIN BOND
M  V30 1 1 1 2
M  V30 2 1 2 3
M  V30 3 1 3 4
M  V30 4 1 4 5
M  V30 5 2 5 6
M  V30 6 1 6 7
M  V30 7 1 6 8
M  V30 8 2 8 9
M  V30 9 1 9 10
M  V30 10 2 10 11
M  V30 11 1 11 12
M  V30 12 1 12 13
M  V30 13 1 13 14
M  V30 14 1 13 15
M  V30 15 1 10 16
M  V30 16 2 16 17
M  V30 17 1 17 18
M  V30 18 2 18 19
M  V30 19 1 17 20
M  V30 20 1 11 5
M  V30 21 1 19 9
M  V30 22 1 1 21
M  V30 23 1 1 22
M  V30 24 1 1 23
M  V30 25 1 2 24
M  V30 26 1 2 25
M  V30 27 1 3 26
M  V30 28 1 3 27
M  V30 29 1 4 28
M  V30 30 1 4 29
M  V30 31 1 7 30
M  V30 32 1 7 31
M  V30 33 1 7 32
M  V30 34 1 13 33
M  V30 35 1 14 34
M  V30 36 1 14 35
M  V30 37 1 15 36
M  V30 38 1 15 37
M  V30 39 1 16 38
M  V30 40 1 18 39
M  V30 41 1 19 40
M  V30 END BOND
M  V30 END CTAB
M  END
