
     RDKit          3D

  0  0  0  0  0  0  0  0  0  0999 V3000
M  V30 BEGIN CTAB
M  V30 COUNTS 55 59 0 0 0
M  V30 BEGIN ATOM
M  V30 1 C 6.8581 -2.52531 1.35505 0
M  V30 2 O 7.70879 -1.51358 1.56556 0
M  V30 3 C 7.35255 -0.242934 1.54147 0
M  V30 4 C 6.87636 0.514821 0.389417 0
M  V30 5 N 5.68472 0.147917 -0.312471 0
M  V30 6 C 5.5447 -0.527381 -1.49201 0
M  V30 7 N 4.25517 -0.599871 -1.8515 0
M  V30 8 C 3.51182 0.0237471 -0.921693 0
M  V30 9 C 4.39693 0.477363 0.0151759 0
M  V30 10 C 3.89853 1.15466 1.08148 0
M  V30 11 C 2.55496 1.36928 1.20267 0
M  V30 12 C 1.59878 0.915397 0.252301 0
M  V30 13 C 2.13159 0.241546 -0.80171 0
M  V30 14 C 0.209153 1.20472 0.496937 0
M  V30 15 O -0.0455034 1.85839 1.58977 0
M  V30 16 N -0.894582 0.87358 -0.2877 0
M  V30 17 C -2.26641 1.27432 0.159286 0
M  V30 18 C -3.07398 1.32129 -1.09073 0 CFG=1
M  V30 19 C -2.49792 0.144258 -1.84766 0 CFG=2
M  V30 20 C -0.999134 0.181815 -1.51432 0
M  V30 21 O -2.61004 0.283678 -3.22538 0
M  V30 22 N -4.46987 1.2222 -0.814543 0
M  V30 23 C -5.45026 2.10295 -1.13352 0
M  V30 24 N -6.63972 1.65344 -0.701116 0
M  V30 25 C -6.45241 0.460757 -0.0872408 0
M  V30 26 C -5.09668 0.212456 -0.169524 0
M  V30 27 N -4.65691 -0.947546 0.386444 0
M  V30 28 C -5.47091 -1.82731 0.991188 0
M  V30 29 N -5.00883 -3.04116 1.57268 0
M  V30 30 N -6.78294 -1.54687 1.04915 0
M  V30 31 C -7.31609 -0.428545 0.530577 0
M  V30 32 N -8.70009 -0.12471 0.587389 0
M  V30 33 H 7.42833 -3.50284 1.49183 0
M  V30 34 H 5.97834 -2.52922 2.05788 0
M  V30 35 H 6.42168 -2.55892 0.350089 0
M  V30 36 H 8.24338 0.364502 1.95057 0
M  V30 37 H 6.59366 -0.049457 2.40571 0
M  V30 38 H 6.82082 1.60652 0.714184 0
M  V30 39 H 7.70651 0.572784 -0.393781 0
M  V30 40 H 6.3516 -0.94686 -2.06137 0
M  V30 41 H 4.61633 1.51496 1.82837 0
M  V30 42 H 2.16505 1.91129 2.05727 0
M  V30 43 H 1.50652 -0.146234 -1.57592 0
M  V30 44 H -2.59529 0.527324 0.906273 0
M  V30 45 H -2.16834 2.25396 0.647384 0
M  V30 46 H -2.80809 2.23961 -1.63999 0
M  V30 47 H -2.86283 -0.831529 -1.47386 0
M  V30 48 H -0.629047 -0.861841 -1.38329 0
M  V30 49 H -0.447284 0.619422 -2.37343 0
M  V30 50 H -3.13724 -0.473364 -3.6313 0
M  V30 51 H -5.26186 3.03177 -1.66491 0
M  V30 52 H -4.10993 -3.10318 2.11396 0
M  V30 53 H -5.53748 -3.94257 1.49495 0
M  V30 54 H -9.15889 0.191015 -0.305471 0
M  V30 55 H -9.2658 -0.200517 1.45866 0
M  V30 END ATOM
M  V30 BEGIN BOND
M  V30 1 1 1 2
M  V30 2 1 2 3
M  V30 3 1 3 4
M  V30 4 1 4 5
M  V30 5 1 5 6
M  V30 6 2 6 7
M  V30 7 1 7 8
M  V30 8 2 8 9
M  V30 9 1 9 10
M  V30 10 2 10 11
M  V30 11 1 11 12
M  V30 12 2 12 13
M  V30 13 1 12 14
M  V30 14 2 14 15
M  V30 15 1 14 16
M  V30 16 1 16 17
M  V30 17 1 17 18
M  V30 18 1 18 19
M  V30 19 1 19 20
M  V30 20 1 19 21
M  V30 21 1 18 22
M  V30 22 1 22 23
M  V30 23 2 23 24
M  V30 24 1 24 25
M  V30 25 2 25 26
M  V30 26 1 26 27
M  V30 27 2 27 28
M  V30 28 1 28 29
M  V30 29 1 28 30
M  V30 30 2 30 31
M  V30 31 1 31 32
M  V30 32 1 9 5
M  V30 33 1 20 16
M  V30 34 1 26 22
M  V30 35 1 13 8
M  V30 36 1 31 25
M  V30 37 1 1 33
M  V30 38 1 1 34
M  V30 39 1 1 35
M  V30 40 1 3 36
M  V30 41 1 3 37
M  V30 42 1 4 38
M  V30 43 1 4 39
M  V30 44 1 6 40
M  V30 45 1 10 41
M  V30 46 1 11 42
M  V30 47 1 13 43
M  V30 48 1 17 44
M  V30 49 1 17 45
M  V30 50 1 18 46 CFG=3
M  V30 51 1 19 47 CFG=1
M  V30 52 1 20 48
M  V30 53 1 20 49
M  V30 54 1 21 50
M  V30 55 1 23 51
M  V30 56 1 29 52
M  V30 57 1 29 53
M  V30 58 1 32 54
M  V30 59 1 32 55
M  V30 END BOND
M  V30 END CTAB
M  END
