
     RDKit          3D

  0  0  0  0  0  0  0  0  0  0999 V3000
M  V30 BEGIN CTAB
M  V30 COUNTS 70 73 0 0 0
M  V30 BEGIN ATOM
M  V30 1 N -11.7461 -0.413149 -3.97585 0
M  V30 2 C -10.5309 -0.247798 -3.24229 0
M  V30 3 N -10.3935 -0.803847 -2.01797 0
M  V30 4 C -9.24752 -0.657777 -1.30878 0
M  V30 5 N -9.07723 -1.24237 -0.0126141 0
M  V30 6 C -8.18059 0.0609802 -1.80578 0
M  V30 7 C -7.00219 0.226312 -1.10911 0
M  V30 8 C -5.93068 0.957905 -1.63161 0
M  V30 9 C -4.67101 1.12956 -0.862164 0
M  V30 10 N -4.11399 -0.16816 -0.56131 0
M  V30 11 C -2.89291 -0.228336 0.177586 0
M  V30 12 C -2.36453 -1.45479 0.533412 0
M  V30 13 C -1.19972 -1.58061 1.24074 0
M  V30 14 C -0.498066 -0.449064 1.6305 0
M  V30 15 C -1.01257 0.770658 1.28297 0
M  V30 16 C -2.19302 0.890496 0.566527 0
M  V30 17 C 0.741941 -0.574382 2.39665 0
M  V30 18 O 1.06232 -1.71074 2.83881 0
M  V30 19 N 1.58301 0.508558 2.65848 0
M  V30 20 C 2.82831 0.37362 3.43586 0 CFG=1
M  V30 21 C 3.98213 0.752503 2.57267 0
M  V30 22 C 5.32789 0.666988 3.20312 0
M  V30 23 C 6.4423 1.05655 2.25102 0
M  V30 24 N 6.47039 0.198973 1.08633 0
M  V30 25 C 7.4549 0.414162 0.0992829 0
M  V30 26 O 8.31057 1.35057 0.234241 0
M  V30 27 C 7.51746 -0.44121 -1.08546 0
M  V30 28 C 8.73199 -1.15827 -1.28252 0
M  V30 29 C 8.84641 -2.0816 -2.28625 0
M  V30 30 C 7.75834 -2.30358 -3.10457 0
M  V30 31 C 6.59437 -1.60905 -2.91102 0
M  V30 32 C 6.44391 -0.647196 -1.88544 0
M  V30 33 C 5.22525 0.128061 -1.83612 0
M  V30 34 O 5.0009 1.22753 -1.05996 0
M  V30 35 O 4.2616 -0.231751 -2.58748 0
M  V30 36 C 2.67305 1.1351 4.67645 0
M  V30 37 O 3.62601 1.21827 5.67723 0
M  V30 38 O 1.5965 1.78971 4.90507 0
M  V30 39 C -6.13448 1.49846 -2.8841 0
M  V30 40 N -7.30076 1.32232 -3.54818 0
M  V30 41 C -8.33838 0.624322 -3.06274 0
M  V30 42 N -9.49051 0.453005 -3.72723 0
M  V30 43 H -12.0823 -1.35438 -4.2815 0
M  V30 44 H -12.3634 0.394314 -4.24656 0
M  V30 45 H -9.6164 -0.955799 0.828808 0
M  V30 46 H -8.35713 -2.00461 0.0626151 0
M  V30 47 H -6.88101 -0.222527 -0.111953 0
M  V30 48 H -4.8719 1.67617 0.10583 0
M  V30 49 H -4.00026 1.77365 -1.45211 0
M  V30 50 H -4.58767 -1.02627 -0.87286 0
M  V30 51 H -2.91145 -2.34665 0.229676 0
M  V30 52 H -0.770888 -2.53381 1.52819 0
M  V30 53 H -0.499022 1.67549 1.56608 0
M  V30 54 H -2.5745 1.87828 0.306527 0
M  V30 55 H 1.37039 1.4652 2.31475 0
M  V30 56 H 2.87596 -0.708004 3.72519 0
M  V30 57 H 3.78885 1.79127 2.17127 0
M  V30 58 H 3.92431 0.105562 1.66028 0
M  V30 59 H 5.51912 -0.40039 3.47156 0
M  V30 60 H 5.46297 1.25738 4.11335 0
M  V30 61 H 6.36678 2.10246 1.89213 0
M  V30 62 H 7.39414 1.00049 2.84454 0
M  V30 63 H 5.78859 -0.576796 0.969637 0
M  V30 64 H 9.55644 -0.947785 -0.612506 0
M  V30 65 H 9.76774 -2.63793 -2.44839 0
M  V30 66 H 7.78911 -3.02215 -3.91181 0
M  V30 67 H 5.74147 -1.78309 -3.55333 0
M  V30 68 H 5.547 2.08151 -1.13304 0
M  V30 69 H 3.8017 0.489942 6.36258 0
M  V30 70 H -5.3395 2.07755 -3.34522 0
M  V30 END ATOM
M  V30 BEGIN BOND
M  V30 1 1 1 2
M  V30 2 2 2 3
M  V30 3 1 3 4
M  V30 4 1 4 5
M  V30 5 2 4 6
M  V30 6 1 6 7
M  V30 7 2 7 8
M  V30 8 1 8 9
M  V30 9 1 9 10
M  V30 10 1 10 11
M  V30 11 2 11 12
M  V30 12 1 12 13
M  V30 13 2 13 14
M  V30 14 1 14 15
M  V30 15 2 15 16
M  V30 16 1 14 17
M  V30 17 2 17 18
M  V30 18 1 17 19
M  V30 19 1 19 20
M  V30 20 1 20 21
M  V30 21 1 21 22
M  V30 22 1 22 23
M  V30 23 1 23 24
M  V30 24 1 24 25
M  V30 25 2 25 26
M  V30 26 1 25 27
M  V30 27 2 27 28
M  V30 28 1 28 29
M  V30 29 2 29 30
M  V30 30 1 30 31
M  V30 31 2 31 32
M  V30 32 1 32 33
M  V30 33 1 33 34
M  V30 34 2 33 35
M  V30 35 1 20 36
M  V30 36 1 36 37
M  V30 37 2 36 38
M  V30 38 1 8 39
M  V30 39 2 39 40
M  V30 40 1 40 41
M  V30 41 2 41 42
M  V30 42 1 42 2
M  V30 43 1 41 6
M  V30 44 1 16 11
M  V30 45 1 32 27
M  V30 46 1 1 43
M  V30 47 1 1 44
M  V30 48 1 5 45
M  V30 49 1 5 46
M  V30 50 1 7 47
M  V30 51 1 9 48
M  V30 52 1 9 49
M  V30 53 1 10 50
M  V30 54 1 12 51
M  V30 55 1 13 52
M  V30 56 1 15 53
M  V30 57 1 16 54
M  V30 58 1 19 55
M  V30 59 1 20 56 CFG=1
M  V30 60 1 21 57
M  V30 61 1 21 58
M  V30 62 1 22 59
M  V30 63 1 22 60
M  V30 64 1 23 61
M  V30 65 1 23 62
M  V30 66 1 24 63
M  V30 67 1 28 64
M  V30 68 1 29 65
M  V30 69 1 30 66
M  V30 70 1 31 67
M  V30 71 1 34 68
M  V30 72 1 37 69
M  V30 73 1 39 70
M  V30 END BOND
M  V30 END CTAB
M  END
