
     RDKit          3D

  0  0  0  0  0  0  0  0  0  0999 V3000
M  V30 BEGIN CTAB
M  V30 COUNTS 33 35 0 0 0
M  V30 BEGIN ATOM
M  V30 1 N -6.90061 0.226622 -0.0916717 0
M  V30 2 C -5.47371 0.067651 -0.135247 0
M  V30 3 C -4.93992 -1.15199 -0.450312 0
M  V30 4 C -3.54417 -1.26772 -0.482706 0
M  V30 5 C -2.73346 -0.205809 -0.210761 0
M  V30 6 C -3.27247 1.00692 0.102533 0
M  V30 7 C -4.67006 1.14756 0.141348 0
M  V30 8 C -1.2842 -0.365652 -0.254632 0
M  V30 9 C -0.577423 -1.50876 -0.550337 0
M  V30 10 C 0.771164 -1.42118 -0.530314 0
M  V30 11 C 1.31799 -0.21045 -0.219549 0
M  V30 12 S -0.0399237 0.773873 0.0364877 0
M  V30 13 C 2.74988 0.118762 -0.137475 0
M  V30 14 C 3.67202 -0.836823 -0.385273 0
M  V30 15 C 5.02954 -0.5688 -0.318843 0
M  V30 16 C 5.47241 0.692124 0.0049814 0
M  V30 17 N 6.85451 1.00873 0.0838691 0
M  V30 18 C 4.49372 1.65793 0.25552 0
M  V30 19 C 3.13935 1.37677 0.1857 0
M  V30 20 H -7.5393 -0.210737 -0.788551 0
M  V30 21 H -7.33324 0.797862 0.658387 0
M  V30 22 H -5.59303 -1.98196 -0.662824 0
M  V30 23 H -3.17548 -2.2497 -0.736262 0
M  V30 24 H -2.7102 1.89292 0.329645 0
M  V30 25 H -5.11364 2.10154 0.387833 0
M  V30 26 H -1.13501 -2.45559 -0.79312 0
M  V30 27 H 1.39408 -2.32835 -0.765103 0
M  V30 28 H 3.3536 -1.84835 -0.645117 0
M  V30 29 H 5.75578 -1.34065 -0.518958 0
M  V30 30 H 7.38521 0.803999 0.952239 0
M  V30 31 H 7.36695 1.44473 -0.705182 0
M  V30 32 H 4.85528 2.64817 0.509805 0
M  V30 33 H 2.42436 2.18635 0.395515 0
M  V30 END ATOM
M  V30 BEGIN BOND
M  V30 1 1 1 2
M  V30 2 2 2 3
M  V30 3 1 3 4
M  V30 4 2 4 5
M  V30 5 1 5 6
M  V30 6 2 6 7
M  V30 7 1 5 8
M  V30 8 2 8 9
M  V30 9 1 9 10
M  V30 10 2 10 11
M  V30 11 1 11 12
M  V30 12 1 11 13
M  V30 13 2 13 14
M  V30 14 1 14 15
M  V30 15 2 15 16
M  V30 16 1 16 17
M  V30 17 1 16 18
M  V30 18 2 18 19
M  V30 19 1 7 2
M  V30 20 1 12 8
M  V30 21 1 19 13
M  V30 22 1 1 20
M  V30 23 1 1 21
M  V30 24 1 3 22
M  V30 25 1 4 23
M  V30 26 1 6 24
M  V30 27 1 7 25
M  V30 28 1 9 26
M  V30 29 1 10 27
M  V30 30 1 14 28
M  V30 31 1 15 29
M  V30 32 1 17 30
M  V30 33 1 17 31
M  V30 34 1 18 32
M  V30 35 1 19 33
M  V30 END BOND
M  V30 END CTAB
M  END
