
     RDKit          3D

  0  0  0  0  0  0  0  0  0  0999 V3000
M  V30 BEGIN CTAB
M  V30 COUNTS 42 44 0 0 0
M  V30 BEGIN ATOM
M  V30 1 N 1.00447 4.52902 1.24109 0
M  V30 2 C 0.283592 3.49453 0.561425 0
M  V30 3 N 0.844957 2.32353 0.260474 0
M  V30 4 C 0.237554 1.2972 -0.376956 0
M  V30 5 N 0.900488 0.0810849 -0.632834 0
M  V30 6 C 2.25109 -0.243629 -0.343175 0
M  V30 7 C 3.20816 0.728466 -0.282833 0
M  V30 8 C 4.51569 0.337391 0.0384795 0
M  V30 9 C 4.82509 -0.978868 0.283635 0
M  V30 10 C 3.85417 -1.9656 0.221549 0
M  V30 11 C 2.57559 -1.5938 -0.0907097 0
M  V30 12 C 4.24048 -3.3775 0.495136 0
M  V30 13 C -1.07725 1.51558 -0.731999 0
M  V30 14 C -1.71439 2.73771 -0.435836 0
M  V30 15 N -0.995382 3.67179 0.200953 0
M  V30 16 N -3.06326 2.95941 -0.812795 0
M  V30 17 S -2.02792 0.321285 -1.55901 0
M  V30 18 O -1.301 -0.399948 -2.65185 0
M  V30 19 O -3.14765 1.0781 -2.31396 0
M  V30 20 C -2.85857 -0.771378 -0.501223 0
M  V30 21 C -4.11971 -0.473544 -0.0457743 0
M  V30 22 C -4.81772 -1.33573 0.804411 0
M  V30 23 C -4.20669 -2.49449 1.17422 0
M  V30 24 C -2.95478 -2.81549 0.736488 0
M  V30 25 C -2.28159 -1.9442 -0.106565 0
M  V30 26 H 1.5104 4.28665 2.10873 0
M  V30 27 H 0.977932 5.47704 0.818258 0
M  V30 28 H 0.362627 -0.710955 -1.09857 0
M  V30 29 H 3.05855 1.78636 -0.479831 0
M  V30 30 H 5.2877 1.09374 0.0917474 0
M  V30 31 H 5.83743 -1.29727 0.534565 0
M  V30 32 H 1.78082 -2.34535 -0.149271 0
M  V30 33 H 4.18502 -3.60929 1.5863 0
M  V30 34 H 3.55479 -4.08303 -0.0113811 0
M  V30 35 H 5.25654 -3.53921 0.119067 0
M  V30 36 H -3.82883 2.65304 -0.201187 0
M  V30 37 H -3.26346 3.43518 -1.7043 0
M  V30 38 H -4.649 0.427647 -0.313048 0
M  V30 39 H -5.80383 -1.06787 1.14041 0
M  V30 40 H -4.70718 -3.19205 1.8301 0
M  V30 41 H -2.45461 -3.7359 1.02274 0
M  V30 42 H -1.28028 -2.25969 -0.426647 0
M  V30 END ATOM
M  V30 BEGIN BOND
M  V30 1 1 1 2
M  V30 2 2 2 3
M  V30 3 1 3 4
M  V30 4 1 4 5
M  V30 5 1 5 6
M  V30 6 2 6 7
M  V30 7 1 7 8
M  V30 8 2 8 9
M  V30 9 1 9 10
M  V30 10 2 10 11
M  V30 11 1 10 12
M  V30 12 2 4 13
M  V30 13 1 13 14
M  V30 14 2 14 15
M  V30 15 1 14 16
M  V30 16 1 13 17
M  V30 17 2 17 18
M  V30 18 2 17 19
M  V30 19 1 17 20
M  V30 20 2 20 21
M  V30 21 1 21 22
M  V30 22 2 22 23
M  V30 23 1 23 24
M  V30 24 2 24 25
M  V30 25 1 15 2
M  V30 26 1 25 20
M  V30 27 1 11 6
M  V30 28 1 1 26
M  V30 29 1 1 27
M  V30 30 1 5 28
M  V30 31 1 7 29
M  V30 32 1 8 30
M  V30 33 1 9 31
M  V30 34 1 11 32
M  V30 35 1 12 33
M  V30 36 1 12 34
M  V30 37 1 12 35
M  V30 38 1 16 36
M  V30 39 1 16 37
M  V30 40 1 21 38
M  V30 41 1 22 39
M  V30 42 1 23 40
M  V30 43 1 24 41
M  V30 44 1 25 42
M  V30 END BOND
M  V30 END CTAB
M  END
