
     RDKit          3D

  0  0  0  0  0  0  0  0  0  0999 V3000
M  V30 BEGIN CTAB
M  V30 COUNTS 29 31 0 0 0
M  V30 BEGIN ATOM
M  V30 1 N 5.4073 1.86869 1.09367 0
M  V30 2 C 4.21644 1.29183 0.572952 0
M  V30 3 N 3.04331 1.4153 1.33901 0
M  V30 4 N 4.31317 0.699758 -0.566145 0
M  V30 5 C 3.10966 0.108784 -1.10715 0
M  V30 6 N 1.90414 0.0996456 -0.571317 0
M  V30 7 C 0.924036 -0.478787 -1.19159 0
M  V30 8 C 1.20197 -1.06471 -2.40252 0
M  V30 9 S 2.87078 -0.740212 -2.5676 0
M  V30 10 C -0.452025 -0.516367 -0.630124 0
M  V30 11 C -0.882579 0.0242002 0.567023 0
M  V30 12 C -2.2297 -0.21505 0.742302 0
M  V30 13 C -2.62163 -0.919527 -0.380817 0
M  V30 14 N -1.5425 -1.07696 -1.16681 0
M  V30 15 C -3.94838 -1.28965 -0.456915 0
M  V30 16 C -4.86748 -0.987426 0.523486 0
M  V30 17 C -4.4578 -0.284277 1.63601 0
M  V30 18 F -5.36463 0.00844342 2.59321 0
M  V30 19 C -3.12769 0.0997014 1.73619 0
M  V30 20 H 5.80423 1.44182 1.95756 0
M  V30 21 H 5.8072 2.68187 0.577855 0
M  V30 22 H 2.65018 0.607865 1.86774 0
M  V30 23 H 2.53139 2.31991 1.40064 0
M  V30 24 H 0.495135 -1.59794 -3.06447 0
M  V30 25 H -0.241033 0.564972 1.27293 0
M  V30 26 H -1.57787 -1.57754 -2.07635 0
M  V30 27 H -4.2589 -1.83725 -1.32723 0
M  V30 28 H -5.91879 -1.29695 0.433155 0
M  V30 29 H -2.78793 0.649844 2.59782 0
M  V30 END ATOM
M  V30 BEGIN BOND
M  V30 1 1 1 2
M  V30 2 1 2 3
M  V30 3 2 2 4
M  V30 4 1 4 5
M  V30 5 2 5 6
M  V30 6 1 6 7
M  V30 7 2 7 8
M  V30 8 1 8 9
M  V30 9 1 7 10
M  V30 10 2 10 11
M  V30 11 1 11 12
M  V30 12 2 12 13
M  V30 13 1 13 14
M  V30 14 1 13 15
M  V30 15 2 15 16
M  V30 16 1 16 17
M  V30 17 1 17 18
M  V30 18 2 17 19
M  V30 19 1 9 5
M  V30 20 1 14 10
M  V30 21 1 19 12
M  V30 22 1 1 20
M  V30 23 1 1 21
M  V30 24 1 3 22
M  V30 25 1 3 23
M  V30 26 1 8 24
M  V30 27 1 11 25
M  V30 28 1 14 26
M  V30 29 1 15 27
M  V30 30 1 16 28
M  V30 31 1 19 29
M  V30 END BOND
M  V30 END CTAB
M  END
