
     RDKit          3D

  0  0  0  0  0  0  0  0  0  0999 V3000
M  V30 BEGIN CTAB
M  V30 COUNTS 20 20 0 0 0
M  V30 BEGIN ATOM
M  V30 1 C -2.97219 -0.999044 -0.221034 0
M  V30 2 O -2.20889 0.192617 -0.131292 0
M  V30 3 C -0.829092 0.0464205 -0.0512417 0
M  V30 4 C -0.198192 -1.18166 -0.0561241 0
M  V30 5 C 1.17647 -1.26372 0.0258974 0
M  V30 6 Br 2.00525 -2.97841 0.015866 0
M  V30 7 C 1.92493 -0.102263 0.113644 0
M  V30 8 C 1.30855 1.13998 0.11993 0
M  V30 9 C -0.0693617 1.21071 0.0373029 0
M  V30 10 N -0.728759 2.47099 0.0415822 0
M  V30 11 N 3.34003 -0.149181 0.199415 0
M  V30 12 H -4.04506 -0.782842 -0.443202 0
M  V30 13 H -2.62269 -1.66781 -1.02788 0
M  V30 14 H -2.92578 -1.54562 0.759078 0
M  V30 15 H -0.831333 -2.05946 -0.126619 0
M  V30 16 H 1.88004 2.06568 0.18831 0
M  V30 17 H -0.622345 3.07883 0.872247 0
M  V30 18 H -1.31512 2.82036 -0.745061 0
M  V30 19 H 3.89755 0.514907 -0.373176 0
M  V30 20 H 3.83598 -0.810482 0.802361 0
M  V30 END ATOM
M  V30 BEGIN BOND
M  V30 1 1 1 2
M  V30 2 1 2 3
M  V30 3 2 3 4
M  V30 4 1 4 5
M  V30 5 1 5 6
M  V30 6 2 5 7
M  V30 7 1 7 8
M  V30 8 2 8 9
M  V30 9 1 9 10
M  V30 10 1 7 11
M  V30 11 1 9 3
M  V30 12 1 1 12
M  V30 13 1 1 13
M  V30 14 1 1 14
M  V30 15 1 4 15
M  V30 16 1 8 16
M  V30 17 1 10 17
M  V30 18 1 10 18
M  V30 19 1 11 19
M  V30 20 1 11 20
M  V30 END BOND
M  V30 END CTAB
M  END
