
     RDKit          3D

  0  0  0  0  0  0  0  0  0  0999 V3000
M  V30 BEGIN CTAB
M  V30 COUNTS 20 20 0 0 0
M  V30 BEGIN ATOM
M  V30 1 N -0.79883 2.3158 0.610601 0
M  V30 2 C -1.22738 1.00883 0.196363 0
M  V30 3 N -2.54803 0.787526 0.0553612 0
M  V30 4 C -2.98179 -0.426265 -0.331369 0
M  V30 5 C -2.09131 -1.42494 -0.578748 0
M  V30 6 C -0.740253 -1.20545 -0.436568 0
M  V30 7 C -0.293608 0.0247229 -0.0442105 0
M  V30 8 C 1.12944 0.374685 0.141001 0
M  V30 9 N 2.02277 -0.717458 -0.134128 0
M  V30 10 N 3.31574 -0.298448 0.0642952 0
M  V30 11 Cl -2.57908 -3.04069 -1.08851 0
M  V30 12 H 0.117708 2.47802 1.07642 0
M  V30 13 H -1.39528 3.15907 0.458869 0
M  V30 14 H -4.03832 -0.644843 -0.456541 0
M  V30 15 H 0.00416494 -1.97035 -0.622525 0
M  V30 16 H 1.35889 1.21759 -0.522919 0
M  V30 17 H 1.23255 0.70221 1.20661 0
M  V30 18 H 1.83521 -1.56426 0.413213 0
M  V30 19 H 3.8116 0.0494649 -0.756879 0
M  V30 20 H 3.8658 -0.825209 0.749667 0
M  V30 END ATOM
M  V30 BEGIN BOND
M  V30 1 1 1 2
M  V30 2 2 2 3
M  V30 3 1 3 4
M  V30 4 2 4 5
M  V30 5 1 5 6
M  V30 6 2 6 7
M  V30 7 1 7 8
M  V30 8 1 8 9
M  V30 9 1 9 10
M  V30 10 1 5 11
M  V30 11 1 7 2
M  V30 12 1 1 12
M  V30 13 1 1 13
M  V30 14 1 4 14
M  V30 15 1 6 15
M  V30 16 1 8 16
M  V30 17 1 8 17
M  V30 18 1 9 18
M  V30 19 1 10 19
M  V30 20 1 10 20
M  V30 END BOND
M  V30 END CTAB
M  END
