
     RDKit          3D

  0  0  0  0  0  0  0  0  0  0999 V3000
M  V30 BEGIN CTAB
M  V30 COUNTS 29 29 0 0 0
M  V30 BEGIN ATOM
M  V30 1 N 3.95033 2.3918 0.710956 0
M  V30 2 N 4.12374 1.06091 0.318776 0
M  V30 3 C 3.04729 0.13987 0.273376 0
M  V30 4 C 1.77159 0.506999 0.631187 0
M  V30 5 C 0.701716 -0.40212 0.580854 0
M  V30 6 S -0.926835 0.14033 1.10411 0
M  V30 7 C -1.80621 0.949802 -0.226033 0
M  V30 8 C -3.22118 0.480571 -0.28831 0
M  V30 9 C -3.85973 0.798713 1.04901 0
M  V30 10 C -3.43904 -0.929464 -0.688636 0
M  V30 11 N 0.990993 -1.63705 0.167672 0
M  V30 12 C 2.23961 -2.03486 -0.193642 0
M  V30 13 N 3.24388 -1.1225 -0.12889 0
M  V30 14 N 2.4262 -3.37048 -0.607583 0
M  V30 15 H 3.61535 2.99385 -0.0726189 0
M  V30 16 H 4.77899 2.76439 1.21384 0
M  V30 17 H 5.09578 0.782897 0.0588936 0
M  V30 18 H 1.58596 1.50897 0.949411 0
M  V30 19 H -1.29787 0.682675 -1.18396 0
M  V30 20 H -1.70664 2.06725 -0.107701 0
M  V30 21 H -3.8163 1.10477 -1.02173 0
M  V30 22 H -3.57302 1.85624 1.32988 0
M  V30 23 H -4.94662 0.711563 1.03682 0
M  V30 24 H -3.442 0.114336 1.79564 0
M  V30 25 H -2.83156 -1.15552 -1.57935 0
M  V30 26 H -3.20756 -1.68273 0.0629219 0
M  V30 27 H -4.52067 -1.00467 -1.01843 0
M  V30 28 H 3.2092 -3.90622 -0.184593 0
M  V30 29 H 1.8146 -3.8103 -1.30497 0
M  V30 END ATOM
M  V30 BEGIN BOND
M  V30 1 1 1 2
M  V30 2 1 2 3
M  V30 3 2 3 4
M  V30 4 1 4 5
M  V30 5 1 5 6
M  V30 6 1 6 7
M  V30 7 1 7 8
M  V30 8 1 8 9
M  V30 9 1 8 10
M  V30 10 2 5 11
M  V30 11 1 11 12
M  V30 12 2 12 13
M  V30 13 1 12 14
M  V30 14 1 13 3
M  V30 15 1 1 15
M  V30 16 1 1 16
M  V30 17 1 2 17
M  V30 18 1 4 18
M  V30 19 1 7 19
M  V30 20 1 7 20
M  V30 21 1 8 21
M  V30 22 1 9 22
M  V30 23 1 9 23
M  V30 24 1 9 24
M  V30 25 1 10 25
M  V30 26 1 10 26
M  V30 27 1 10 27
M  V30 28 1 14 28
M  V30 29 1 14 29
M  V30 END BOND
M  V30 END CTAB
M  END
