
     RDKit          3D

  0  0  0  0  0  0  0  0  0  0999 V3000
M  V30 BEGIN CTAB
M  V30 COUNTS 20 20 0 0 0
M  V30 BEGIN ATOM
M  V30 1 C -2.31452 1.43539 0.320608 0
M  V30 2 N -1.77781 0.15481 -0.0336647 0
M  V30 3 N -2.69086 -0.861056 -0.334791 0
M  V30 4 C -0.39704 -0.137585 -0.0956784 0
M  V30 5 C 0.0547167 -1.37959 -0.440235 0
M  V30 6 C 1.39303 -1.65189 -0.497206 0
M  V30 7 O 1.77715 -2.82229 -0.822521 0
M  V30 8 N 2.28679 -0.713188 -0.218283 0
M  V30 9 C 1.86204 0.536114 0.128744 0
M  V30 10 N 2.84509 1.50748 0.418251 0
M  V30 11 N 0.544516 0.801839 0.184171 0
M  V30 12 H -3.21202 1.25137 0.947985 0
M  V30 13 H -2.68739 1.91213 -0.618706 0
M  V30 14 H -1.58659 2.08848 0.845446 0
M  V30 15 H -2.69232 -1.01362 -1.38654 0
M  V30 16 H -2.47849 -1.74655 0.162549 0
M  V30 17 H -0.645643 -2.19283 -0.680763 0
M  V30 18 H 3.3091 -0.894163 -0.254161 0
M  V30 19 H 3.09539 1.70396 1.40103 0
M  V30 20 H 3.31484 2.02118 -0.329559 0
M  V30 END ATOM
M  V30 BEGIN BOND
M  V30 1 1 1 2
M  V30 2 1 2 3
M  V30 3 1 2 4
M  V30 4 2 4 5
M  V30 5 1 5 6
M  V30 6 2 6 7
M  V30 7 1 6 8
M  V30 8 1 8 9
M  V30 9 1 9 10
M  V30 10 2 9 11
M  V30 11 1 11 4
M  V30 12 1 1 12
M  V30 13 1 1 13
M  V30 14 1 1 14
M  V30 15 1 3 15
M  V30 16 1 3 16
M  V30 17 1 5 17
M  V30 18 1 8 18
M  V30 19 1 10 19
M  V30 20 1 10 20
M  V30 END BOND
M  V30 END CTAB
M  END
