
     RDKit          3D

  0  0  0  0  0  0  0  0  0  0999 V3000
M  V30 BEGIN CTAB
M  V30 COUNTS 49 52 0 0 0
M  V30 BEGIN ATOM
M  V30 1 N -4.31625 2.61853 1.1141 0
M  V30 2 C -4.26699 1.47562 0.255342 0
M  V30 3 N -5.28143 1.33422 -0.616377 0
M  V30 4 C -5.35332 0.309999 -1.47356 0
M  V30 5 N -6.38786 0.116887 -2.4017 0
M  V30 6 C -4.3188 -0.619242 -1.42637 0
M  V30 7 C -3.28446 -0.456797 -0.523272 0
M  V30 8 N -3.24895 0.593707 0.327201 0
M  V30 9 N -2.42613 -1.45578 -0.662961 0
M  V30 10 C -2.90475 -2.23956 -1.63641 0
M  V30 11 N -4.06352 -1.7476 -2.11971 0
M  V30 12 C -1.21623 -1.68386 0.0638614 0 CFG=2
M  V30 13 C -1.38991 -1.60902 1.56513 0
M  V30 14 C -0.147401 -2.27097 2.14384 0
M  V30 15 C 1.12208 -1.74732 1.51258 0
M  V30 16 C 0.842698 -0.441035 0.798762 0 CFG=2
M  V30 17 C -0.121717 -0.744185 -0.358212 0 CFG=1
M  V30 18 O 0.584121 -1.28776 -1.44634 0
M  V30 19 N 1.97286 0.172183 0.209388 0
M  V30 20 C 3.01843 0.57624 1.09024 0
M  V30 21 C 4.1561 1.21676 0.359037 0
M  V30 22 C 5.22092 0.479418 -0.115787 0
M  V30 23 C 6.27622 1.05563 -0.795005 0
M  V30 24 C 6.2278 2.41954 -0.98579 0
M  V30 25 C 5.16438 3.17521 -0.514654 0
M  V30 26 C 4.11931 2.58103 0.161814 0
M  V30 27 H -4.93212 2.60155 1.93673 0
M  V30 28 H -3.72263 3.43143 0.872683 0
M  V30 29 H -6.47235 0.784587 -3.19924 0
M  V30 30 H -7.09574 -0.648133 -2.36803 0
M  V30 31 H -2.47645 -3.16221 -2.03864 0
M  V30 32 H -0.825052 -2.72474 -0.138297 0
M  V30 33 H -1.52362 -0.583396 1.93292 0
M  V30 34 H -2.24813 -2.28032 1.86186 0
M  V30 35 H -0.18143 -2.08448 3.24292 0
M  V30 36 H -0.27176 -3.36375 2.00256 0
M  V30 37 H 1.84466 -1.6173 2.32559 0
M  V30 38 H 1.44857 -2.47274 0.754241 0
M  V30 39 H 0.271017 0.263202 1.45827 0
M  V30 40 H -0.57748 0.195419 -0.6995 0
M  V30 41 H 0.393173 -0.827931 -2.28366 0
M  V30 42 H 2.33902 -0.419945 -0.564259 0
M  V30 43 H 2.72956 1.22409 1.90715 0
M  V30 44 H 3.44688 -0.358992 1.54733 0
M  V30 45 H 5.26033 -0.593108 0.0336031 0
M  V30 46 H 7.10934 0.475136 -1.16571 0
M  V30 47 H 7.06065 2.89195 -1.52512 0
M  V30 48 H 5.16022 4.2475 -0.68403 0
M  V30 49 H 3.28615 3.20036 0.52676 0
M  V30 END ATOM
M  V30 BEGIN BOND
M  V30 1 1 1 2
M  V30 2 2 2 3
M  V30 3 1 3 4
M  V30 4 1 4 5
M  V30 5 2 4 6
M  V30 6 1 6 7
M  V30 7 2 7 8
M  V30 8 1 7 9
M  V30 9 1 9 10
M  V30 10 2 10 11
M  V30 11 1 9 12
M  V30 12 1 12 13
M  V30 13 1 13 14
M  V30 14 1 14 15
M  V30 15 1 15 16
M  V30 16 1 16 17
M  V30 17 1 17 18
M  V30 18 1 16 19
M  V30 19 1 19 20
M  V30 20 1 20 21
M  V30 21 2 21 22
M  V30 22 1 22 23
M  V30 23 2 23 24
M  V30 24 1 24 25
M  V30 25 2 25 26
M  V30 26 1 8 2
M  V30 27 1 17 12
M  V30 28 1 26 21
M  V30 29 1 11 6
M  V30 30 1 1 27
M  V30 31 1 1 28
M  V30 32 1 5 29
M  V30 33 1 5 30
M  V30 34 1 10 31
M  V30 35 1 12 32 CFG=1
M  V30 36 1 13 33
M  V30 37 1 13 34
M  V30 38 1 14 35
M  V30 39 1 14 36
M  V30 40 1 15 37
M  V30 41 1 15 38
M  V30 42 1 16 39 CFG=1
M  V30 43 1 17 40 CFG=3
M  V30 44 1 18 41
M  V30 45 1 19 42
M  V30 46 1 20 43
M  V30 47 1 20 44
M  V30 48 1 22 45
M  V30 49 1 23 46
M  V30 50 1 24 47
M  V30 51 1 25 48
M  V30 52 1 26 49
M  V30 END BOND
M  V30 END CTAB
M  END
