
     RDKit          3D

  0  0  0  0  0  0  0  0  0  0999 V3000
M  V30 BEGIN CTAB
M  V30 COUNTS 23 23 0 0 0
M  V30 BEGIN ATOM
M  V30 1 C -3.79477 -0.0087168 0.103018 0
M  V30 2 C -2.42085 0.296621 -0.455873 0
M  V30 3 O -1.48586 -0.38382 0.3185 0
M  V30 4 C -0.123126 -0.367816 0.137028 0
M  V30 5 C 0.662892 0.574423 0.762216 0
M  V30 6 N 0.00910978 1.51561 1.59158 0
M  V30 7 C 2.04511 0.619118 0.600404 0
M  V30 8 C 2.6259 -0.326619 -0.222096 0
M  V30 9 C 1.85774 -1.28065 -0.859049 0
M  V30 10 C 0.469726 -1.3048 -0.680341 0
M  V30 11 Cl -0.504141 -2.52163 -1.49353 0
M  V30 12 N 4.01429 -0.326409 -0.419593 0
M  V30 13 H -3.98961 0.681543 0.954059 0
M  V30 14 H -3.76084 -1.03563 0.512573 0
M  V30 15 H -4.59025 0.0880321 -0.657732 0
M  V30 16 H -2.2213 1.3826 -0.487943 0
M  V30 17 H -2.42974 -0.0745681 -1.51482 0
M  V30 18 H 0.430821 2.46207 1.67321 0
M  V30 19 H -0.856885 1.30069 2.11004 0
M  V30 20 H 2.64217 1.37299 1.10518 0
M  V30 21 H 2.28496 -2.02233 -1.50009 0
M  V30 22 H 4.47779 -0.963851 -1.09226 0
M  V30 23 H 4.65687 0.323136 0.107106 0
M  V30 END ATOM
M  V30 BEGIN BOND
M  V30 1 1 1 2
M  V30 2 1 2 3
M  V30 3 1 3 4
M  V30 4 2 4 5
M  V30 5 1 5 6
M  V30 6 1 5 7
M  V30 7 2 7 8
M  V30 8 1 8 9
M  V30 9 2 9 10
M  V30 10 1 10 11
M  V30 11 1 8 12
M  V30 12 1 10 4
M  V30 13 1 1 13
M  V30 14 1 1 14
M  V30 15 1 1 15
M  V30 16 1 2 16
M  V30 17 1 2 17
M  V30 18 1 6 18
M  V30 19 1 6 19
M  V30 20 1 7 20
M  V30 21 1 9 21
M  V30 22 1 12 22
M  V30 23 1 12 23
M  V30 END BOND
M  V30 END CTAB
M  END
