
     RDKit          3D

  0  0  0  0  0  0  0  0  0  0999 V3000
M  V30 BEGIN CTAB
M  V30 COUNTS 26 26 0 0 0
M  V30 BEGIN ATOM
M  V30 1 C 4.12367 -0.0844322 -0.115095 0
M  V30 2 C 3.33965 0.496438 1.01254 0
M  V30 3 O 1.99314 0.733252 0.75351 0
M  V30 4 C 1.05561 -0.209064 0.396617 0
M  V30 5 O 1.4521 -1.40024 0.294514 0
M  V30 6 C -0.335307 0.0879674 0.136942 0
M  V30 7 C -0.772593 1.40746 0.250447 0
M  V30 8 C -2.08962 1.74909 0.0141646 0
M  V30 9 C -2.51158 3.11406 0.138295 0
M  V30 10 N -2.83989 4.23737 0.240722 0
M  V30 11 C -2.95139 0.736974 -0.337111 0
M  V30 12 C -2.53605 -0.574424 -0.454168 0
M  V30 13 C -1.21828 -0.8992 -0.215039 0
M  V30 14 N -0.796433 -2.24608 -0.336311 0
M  V30 15 N -3.44666 -1.59866 -0.818142 0
M  V30 16 H 3.67943 -0.927177 -0.634916 0
M  V30 17 H 5.10109 -0.44487 0.321633 0
M  V30 18 H 4.42195 0.757288 -0.789058 0
M  V30 19 H 3.80515 1.49841 1.24962 0
M  V30 20 H 3.49491 -0.0994993 1.94765 0
M  V30 21 H -0.0733992 2.17532 0.526961 0
M  V30 22 H -3.98201 0.987067 -0.524757 0
M  V30 23 H -0.68774 -2.63375 -1.29932 0
M  V30 24 H -0.587292 -2.87637 0.462802 0
M  V30 25 H -4.43606 -1.58092 -0.466867 0
M  V30 26 H -3.20241 -2.40601 -1.4352 0
M  V30 END ATOM
M  V30 BEGIN BOND
M  V30 1 1 1 2
M  V30 2 1 2 3
M  V30 3 1 3 4
M  V30 4 2 4 5
M  V30 5 1 4 6
M  V30 6 2 6 7
M  V30 7 1 7 8
M  V30 8 1 8 9
M  V30 9 3 9 10
M  V30 10 2 8 11
M  V30 11 1 11 12
M  V30 12 2 12 13
M  V30 13 1 13 14
M  V30 14 1 12 15
M  V30 15 1 13 6
M  V30 16 1 1 16
M  V30 17 1 1 17
M  V30 18 1 1 18
M  V30 19 1 2 19
M  V30 20 1 2 20
M  V30 21 1 7 21
M  V30 22 1 11 22
M  V30 23 1 14 23
M  V30 24 1 14 24
M  V30 25 1 15 25
M  V30 26 1 15 26
M  V30 END BOND
M  V30 END CTAB
M  END
