
     RDKit          3D

  0  0  0  0  0  0  0  0  0  0999 V3000
M  V30 BEGIN CTAB
M  V30 COUNTS 38 39 0 0 0
M  V30 BEGIN ATOM
M  V30 1 N 6.18462 -2.26637 0.867344 0
M  V30 2 S 5.04801 -1.59361 1.96313 0
M  V30 3 O 4.84726 -2.54569 3.08134 0
M  V30 4 O 5.68609 -0.306844 2.47803 0
M  V30 5 C 3.52727 -1.18358 1.21337 0
M  V30 6 C 3.071 0.117268 1.24019 0
M  V30 7 C 1.86577 0.418511 0.64592 0
M  V30 8 C 1.07633 -0.556414 0.0095482 0
M  V30 9 N -0.0918196 -0.240953 -0.53231 0
M  V30 10 C -1.29493 0.08399 -1.09049 0
M  V30 11 O -1.51684 0.528963 -2.21319 0
M  V30 12 N -2.47026 -0.117331 -0.266083 0
M  V30 13 C -3.76685 0.180199 -0.732821 0
M  V30 14 C -4.83991 -0.653749 -0.418282 0
M  V30 15 C -6.07943 -0.348477 -0.856436 0
M  V30 16 C -6.34045 0.787648 -1.62553 0
M  V30 17 C -5.3094 1.62107 -1.94581 0
M  V30 18 C -4.01947 1.31347 -1.4956 0
M  V30 19 C 1.58828 -1.85409 0.0150936 0
M  V30 20 Cl 0.641353 -3.10449 -0.760463 0
M  V30 21 C 2.78392 -2.17382 0.599184 0
M  V30 22 Cl 3.39802 -3.81719 0.60732 0
M  V30 23 S 1.20864 2.03727 0.637226 0
M  V30 24 N 2.3011 3.10627 1.42552 0
M  V30 25 O -0.0921413 2.11675 1.43082 0
M  V30 26 O 0.98023 2.56242 -0.762159 0
M  V30 27 H 5.99222 -3.20991 0.538914 0
M  V30 28 H 6.43139 -1.63242 0.0789433 0
M  V30 29 H 3.67423 0.864712 1.73348 0
M  V30 30 H 0.540275 0.0719079 -1.70357 0
M  V30 31 H -2.34674 -0.48768 0.69997 0
M  V30 32 H -4.59595 -1.52312 0.18929 0
M  V30 33 H -6.92628 -0.991558 -0.614838 0
M  V30 34 H -7.36471 0.951023 -1.94169 0
M  V30 35 H -5.49549 2.51739 -2.56031 0
M  V30 36 H -3.25327 2.02274 -1.76029 0
M  V30 37 H 3.14469 3.2625 0.874669 0
M  V30 38 H 1.81323 4.04318 1.54877 0
M  V30 END ATOM
M  V30 BEGIN BOND
M  V30 1 1 1 2
M  V30 2 2 2 3
M  V30 3 2 2 4
M  V30 4 1 2 5
M  V30 5 2 5 6
M  V30 6 1 6 7
M  V30 7 2 7 8
M  V30 8 1 8 9
M  V30 9 1 9 10
M  V30 10 2 10 11
M  V30 11 1 10 12
M  V30 12 1 12 13
M  V30 13 2 13 14
M  V30 14 1 14 15
M  V30 15 2 15 16
M  V30 16 1 16 17
M  V30 17 2 17 18
M  V30 18 1 8 19
M  V30 19 1 19 20
M  V30 20 2 19 21
M  V30 21 1 21 22
M  V30 22 1 7 23
M  V30 23 1 23 24
M  V30 24 2 23 25
M  V30 25 2 23 26
M  V30 26 1 21 5
M  V30 27 1 18 13
M  V30 28 1 1 27
M  V30 29 1 1 28
M  V30 30 1 6 29
M  V30 31 1 9 30
M  V30 32 1 12 31
M  V30 33 1 14 32
M  V30 34 1 15 33
M  V30 35 1 16 34
M  V30 36 1 17 35
M  V30 37 1 18 36
M  V30 38 1 24 37
M  V30 39 1 24 38
M  V30 END BOND
M  V30 END CTAB
M  END
