
     RDKit          3D

  0  0  0  0  0  0  0  0  0  0999 V3000
M  V30 BEGIN CTAB
M  V30 COUNTS 49 50 0 0 0
M  V30 BEGIN ATOM
M  V30 1 C -6.19992 2.20399 -0.439707 0
M  V30 2 C -5.59084 1.11788 0.423828 0
M  V30 3 O -4.23976 1.0792 0.14969 0
M  V30 4 C -3.55012 0.119817 0.877839 0
M  V30 5 C -2.3449 0.608356 1.62234 0
M  V30 6 C -1.48979 -0.407128 0.866519 0
M  V30 7 C -2.65695 -0.741092 0.00851062 0
M  V30 8 C -2.64361 -0.267797 -1.41184 0
M  V30 9 C -3.13464 -2.18098 0.0741077 0
M  V30 10 N -1.14182 -1.58173 1.68452 0
M  V30 11 C -0.330919 0.230478 0.278619 0
M  V30 12 O -0.433456 1.23945 -0.444842 0
M  V30 13 N 0.965026 -0.273388 0.506937 0
M  V30 14 C 2.16769 0.308517 -0.0450463 0
M  V30 15 C 3.36505 -0.491879 0.409611 0
M  V30 16 C 4.65142 0.0124514 -0.101427 0
M  V30 17 C 4.71943 1.23596 -0.715766 0
M  V30 18 C 5.91187 1.74082 -1.20667 0
M  V30 19 C 7.04696 0.982863 -1.06619 0
M  V30 20 C 7.02756 -0.241323 -0.461509 0
M  V30 21 C 5.80788 -0.719108 0.0216983 0
M  V30 22 N 3.16854 -1.87734 0.026825 0
M  V30 23 H -5.40086 2.86144 -0.884239 0
M  V30 24 H -6.85384 1.78118 -1.23093 0
M  V30 25 H -6.88329 2.85689 0.178132 0
M  V30 26 H -5.78608 1.39617 1.50036 0
M  V30 27 H -6.11223 0.171002 0.162268 0
M  V30 28 H -4.23679 -0.429477 1.54278 0
M  V30 29 H -2.31547 0.365535 2.70439 0
M  V30 30 H -2.05105 1.65982 1.41945 0
M  V30 31 H -3.5874 -0.612564 -1.88568 0
M  V30 32 H -2.60407 0.819044 -1.53472 0
M  V30 33 H -1.82696 -0.801515 -1.98184 0
M  V30 34 H -2.43212 -2.77358 -0.540809 0
M  V30 35 H -3.14329 -2.47434 1.13668 0
M  V30 36 H -4.18621 -2.25275 -0.287039 0
M  V30 37 H -0.561974 -1.31404 2.49299 0
M  V30 38 H -0.649334 -2.22921 1.02081 0
M  V30 39 H 1.06949 -1.1146 1.10805 0
M  V30 40 H 2.33043 1.34493 0.368474 0
M  V30 41 H 2.08688 0.31155 -1.13192 0
M  V30 42 H 3.45023 -0.446104 1.53752 0
M  V30 43 H 3.8434 1.87632 -0.853037 0
M  V30 44 H 5.95183 2.70705 -1.68896 0
M  V30 45 H 7.99944 1.34023 -1.43577 0
M  V30 46 H 7.91093 -0.841832 -0.346994 0
M  V30 47 H 5.76219 -1.69462 0.509714 0
M  V30 48 H 3.45607 -2.54109 0.792406 0
M  V30 49 H 3.69539 -2.06345 -0.852971 0
M  V30 END ATOM
M  V30 BEGIN BOND
M  V30 1 1 1 2
M  V30 2 1 2 3
M  V30 3 1 3 4
M  V30 4 1 4 5
M  V30 5 1 5 6
M  V30 6 1 6 7
M  V30 7 1 7 8
M  V30 8 1 7 9
M  V30 9 1 6 10
M  V30 10 1 6 11
M  V30 11 2 11 12
M  V30 12 1 11 13
M  V30 13 1 13 14
M  V30 14 1 14 15
M  V30 15 1 15 16
M  V30 16 2 16 17
M  V30 17 1 17 18
M  V30 18 2 18 19
M  V30 19 1 19 20
M  V30 20 2 20 21
M  V30 21 1 15 22
M  V30 22 1 7 4
M  V30 23 1 21 16
M  V30 24 1 1 23
M  V30 25 1 1 24
M  V30 26 1 1 25
M  V30 27 1 2 26
M  V30 28 1 2 27
M  V30 29 1 4 28
M  V30 30 1 5 29
M  V30 31 1 5 30
M  V30 32 1 8 31
M  V30 33 1 8 32
M  V30 34 1 8 33
M  V30 35 1 9 34
M  V30 36 1 9 35
M  V30 37 1 9 36
M  V30 38 1 10 37
M  V30 39 1 10 38
M  V30 40 1 13 39
M  V30 41 1 14 40
M  V30 42 1 14 41
M  V30 43 1 15 42
M  V30 44 1 17 43
M  V30 45 1 18 44
M  V30 46 1 19 45
M  V30 47 1 20 46
M  V30 48 1 21 47
M  V30 49 1 22 48
M  V30 50 1 22 49
M  V30 END BOND
M  V30 END CTAB
M  END
