
     RDKit          3D

  0  0  0  0  0  0  0  0  0  0999 V3000
M  V30 BEGIN CTAB
M  V30 COUNTS 103 105 0 0 0
M  V30 BEGIN ATOM
M  V30 1 C -1.68667 1.27096 -1.08792 0 CFG=2
M  V30 2 C -0.533281 0.398609 -0.756087 0
M  V30 3 C -0.755178 -0.34456 0.524605 0
M  V30 4 C 0.458189 -1.12236 0.910993 0
M  V30 5 O 0.405049 -2.15903 1.58621 0
M  V30 6 O 1.66473 -0.641915 0.496914 0
M  V30 7 C 2.9378 -1.15167 0.743978 0
M  V30 8 C 3.24345 -1.15305 2.24576 0
M  V30 9 C 3.12532 0.243713 2.79495 0
M  V30 10 C 4.05056 1.24927 2.22464 0
M  V30 11 C 5.52798 0.982502 2.52136 0
M  V30 12 C 6.30104 2.09652 1.85382 0
M  V30 13 C 7.75666 2.10376 2.08659 0
M  V30 14 C 8.56644 0.939531 1.6905 0
M  V30 15 C 8.53335 0.58768 0.210397 0
M  V30 16 C 9.46573 -0.602489 0.0290622 0
M  V30 17 C 9.56377 -1.09654 -1.37144 0
M  V30 18 C 10.5159 -2.26472 -1.50948 0
M  V30 19 C 11.9284 -1.91695 -1.10152 0
M  V30 20 C 12.53 -0.817653 -1.94254 0
M  V30 21 C 13.9369 -0.556263 -1.42004 0
M  V30 22 C 14.5995 0.52838 -2.22321 0
M  V30 23 N -2.95522 0.663699 -1.25265 0
M  V30 24 C -4.01376 1.12553 -0.383134 0
M  V30 25 O -3.74363 2.03451 0.467564 0
M  V30 26 C -5.3392 0.569349 -0.489701 0
M  V30 27 C -6.38443 1.21617 0.191731 0
M  V30 28 C -7.6828 0.787092 0.134921 0
M  V30 29 C -8.01999 -0.34419 -0.625574 0
M  V30 30 C -7.00845 -0.973526 -1.28399 0
M  V30 31 C -5.68762 -0.529974 -1.2221 0
M  V30 32 N -9.39598 -0.731999 -0.697721 0
M  V30 33 C -10.1697 -0.417949 -1.91073 0
M  V30 34 C -10.0684 -1.40591 0.371455 0
M  V30 35 C -11.5238 -1.5129 0.0813212 0
M  V30 36 N -12.2269 -0.348047 0.208545 0
M  V30 37 C -13.5477 -0.316365 -0.0311515 0
M  V30 38 C -14.2119 -1.45409 -0.40711 0
M  V30 39 N -13.517 -2.61443 -0.534138 0
M  V30 40 C -12.1791 -2.64371 -0.291016 0
M  V30 41 N -15.5259 -1.40961 -0.650193 0
M  V30 42 C -16.2482 -0.284735 -0.544278 0
M  V30 43 N -17.6351 -0.261259 -0.817012 0
M  V30 44 N -15.6096 0.854948 -0.172017 0
M  V30 45 C -14.2825 0.841391 0.0807178 0
M  V30 46 N -13.6285 2.05139 0.467463 0
M  V30 47 C -1.36164 2.17839 -2.25412 0
M  V30 48 O -0.145259 2.85948 -2.23893 0
M  V30 49 O -2.15545 2.30464 -3.18452 0
M  V30 50 H -1.75134 2.01427 -0.215389 0
M  V30 51 H 0.376179 1.05028 -0.602838 0
M  V30 52 H -0.354947 -0.292746 -1.61028 0
M  V30 53 H -0.958454 0.396725 1.32975 0
M  V30 54 H -1.6446 -1.03863 0.441817 0
M  V30 55 H 3.66833 -0.519851 0.200754 0
M  V30 56 H 3.07695 -2.186 0.382444 0
M  V30 57 H 4.27548 -1.49601 2.36571 0
M  V30 58 H 2.50569 -1.79386 2.74366 0
M  V30 59 H 2.0752 0.631015 2.747 0
M  V30 60 H 3.32723 0.148943 3.90156 0
M  V30 61 H 3.81561 2.23225 2.71595 0
M  V30 62 H 3.92242 1.40729 1.14006 0
M  V30 63 H 5.65562 0.966163 3.60644 0
M  V30 64 H 5.77765 0.0217343 2.03732 0
M  V30 65 H 5.90666 3.10199 2.16978 0
M  V30 66 H 6.10611 2.06338 0.742794 0
M  V30 67 H 8.03519 2.35943 3.14229 0
M  V30 68 H 8.17511 2.99436 1.50691 0
M  V30 69 H 8.3554 0.0234169 2.31895 0
M  V30 70 H 9.64125 1.18801 1.95718 0
M  V30 71 H 8.90365 1.43937 -0.373763 0
M  V30 72 H 7.53643 0.310574 -0.126976 0
M  V30 73 H 9.16961 -1.3499 0.762317 0
M  V30 74 H 10.4821 -0.203198 0.327407 0
M  V30 75 H 9.81958 -0.28931 -2.08282 0
M  V30 76 H 8.5597 -1.48424 -1.68174 0
M  V30 77 H 10.5482 -2.53057 -2.58411 0
M  V30 78 H 10.2162 -3.14455 -0.9444 0
M  V30 79 H 12.0351 -1.71464 -0.015216 0
M  V30 80 H 12.5388 -2.8343 -1.27994 0
M  V30 81 H 12.6948 -1.19133 -2.99589 0
M  V30 82 H 11.9171 0.0846521 -2.02733 0
M  V30 83 H 13.9079 -0.209492 -0.361667 0
M  V30 84 H 14.4974 -1.48896 -1.44777 0
M  V30 85 H 15.5846 0.13119 -2.58145 0
M  V30 86 H 14.7484 1.45085 -1.61053 0
M  V30 87 H 13.9396 0.775955 -3.07699 0
M  V30 88 H -3.169 -0.0643889 -1.9336 0
M  V30 89 H -6.13185 2.09502 0.78338 0
M  V30 90 H -8.46615 1.32088 0.683759 0
M  V30 91 H -7.24863 -1.85482 -1.87632 0
M  V30 92 H -4.93835 -1.06769 -1.76477 0
M  V30 93 H -10.6298 0.565772 -1.87087 0
M  V30 94 H -9.42168 -0.414032 -2.75808 0
M  V30 95 H -10.8939 -1.22746 -2.11152 0
M  V30 96 H -9.96184 -0.846622 1.3325 0
M  V30 97 H -9.62722 -2.41635 0.530983 0
M  V30 98 H -11.6184 -3.56081 -0.38997 0
M  V30 99 H -18.2632 0.308966 -0.231235 0
M  V30 100 H -18.0056 -0.818701 -1.607 0
M  V30 101 H -13.6358 2.89799 -0.11774 0
M  V30 102 H -13.1213 2.07449 1.38832 0
M  V30 103 H 0.178737 3.17187 -1.31128 0
M  V30 END ATOM
M  V30 BEGIN BOND
M  V30 1 1 1 2
M  V30 2 1 2 3
M  V30 3 1 3 4
M  V30 4 2 4 5
M  V30 5 1 4 6
M  V30 6 1 6 7
M  V30 7 1 7 8
M  V30 8 1 8 9
M  V30 9 1 9 10
M  V30 10 1 10 11
M  V30 11 1 11 12
M  V30 12 1 12 13
M  V30 13 1 13 14
M  V30 14 1 14 15
M  V30 15 1 15 16
M  V30 16 1 16 17
M  V30 17 1 17 18
M  V30 18 1 18 19
M  V30 19 1 19 20
M  V30 20 1 20 21
M  V30 21 1 21 22
M  V30 22 1 1 23
M  V30 23 1 23 24
M  V30 24 2 24 25
M  V30 25 1 24 26
M  V30 26 2 26 27
M  V30 27 1 27 28
M  V30 28 2 28 29
M  V30 29 1 29 30
M  V30 30 2 30 31
M  V30 31 1 29 32
M  V30 32 1 32 33
M  V30 33 1 32 34
M  V30 34 1 34 35
M  V30 35 2 35 36
M  V30 36 1 36 37
M  V30 37 2 37 38
M  V30 38 1 38 39
M  V30 39 2 39 40
M  V30 40 1 38 41
M  V30 41 2 41 42
M  V30 42 1 42 43
M  V30 43 1 42 44
M  V30 44 2 44 45
M  V30 45 1 45 46
M  V30 46 1 1 47
M  V30 47 1 47 48
M  V30 48 2 47 49
M  V30 49 1 31 26
M  V30 50 1 40 35
M  V30 51 1 45 37
M  V30 52 1 1 50 CFG=1
M  V30 53 1 2 51
M  V30 54 1 2 52
M  V30 55 1 3 53
M  V30 56 1 3 54
M  V30 57 1 7 55
M  V30 58 1 7 56
M  V30 59 1 8 57
M  V30 60 1 8 58
M  V30 61 1 9 59
M  V30 62 1 9 60
M  V30 63 1 10 61
M  V30 64 1 10 62
M  V30 65 1 11 63
M  V30 66 1 11 64
M  V30 67 1 12 65
M  V30 68 1 12 66
M  V30 69 1 13 67
M  V30 70 1 13 68
M  V30 71 1 14 69
M  V30 72 1 14 70
M  V30 73 1 15 71
M  V30 74 1 15 72
M  V30 75 1 16 73
M  V30 76 1 16 74
M  V30 77 1 17 75
M  V30 78 1 17 76
M  V30 79 1 18 77
M  V30 80 1 18 78
M  V30 81 1 19 79
M  V30 82 1 19 80
M  V30 83 1 20 81
M  V30 84 1 20 82
M  V30 85 1 21 83
M  V30 86 1 21 84
M  V30 87 1 22 85
M  V30 88 1 22 86
M  V30 89 1 22 87
M  V30 90 1 23 88
M  V30 91 1 27 89
M  V30 92 1 28 90
M  V30 93 1 30 91
M  V30 94 1 31 92
M  V30 95 1 33 93
M  V30 96 1 33 94
M  V30 97 1 33 95
M  V30 98 1 34 96
M  V30 99 1 34 97
M  V30 100 1 40 98
M  V30 101 1 43 99
M  V30 102 1 43 100
M  V30 103 1 46 101
M  V30 104 1 46 102
M  V30 105 1 48 103
M  V30 END BOND
M  V30 END CTAB
M  END
