
     RDKit          3D

  0  0  0  0  0  0  0  0  0  0999 V3000
M  V30 BEGIN CTAB
M  V30 COUNTS 28 29 0 0 0
M  V30 BEGIN ATOM
M  V30 1 N -4.05012 0.469056 0.792277 0
M  V30 2 C -2.8158 0.241749 0.0721892 0
M  V30 3 C -2.78384 -1.17391 -0.463228 0
M  V30 4 C -1.32479 -1.55515 -0.420826 0
M  V30 5 N -0.628821 -0.444994 0.198685 0
M  V30 6 C -1.62082 0.217496 1.02107 0
M  V30 7 C 0.743929 -0.0809247 0.033658 0
M  V30 8 C 1.57608 -0.805695 -0.790772 0
M  V30 9 C 2.89898 -0.45204 -0.947388 0
M  V30 10 C 3.4567 0.631118 -0.297589 0
M  V30 11 C 2.62656 1.35922 0.528748 0
M  V30 12 C 1.28246 1.00292 0.690191 0
M  V30 13 N 4.82947 0.981302 -0.472986 0
M  V30 14 H -4.81279 0.60826 0.12463 0
M  V30 15 H -3.98534 1.26478 1.46313 0
M  V30 16 H -2.66251 0.920807 -0.772447 0
M  V30 17 H -3.31632 -1.80499 0.30002 0
M  V30 18 H -3.22324 -1.25602 -1.4651 0
M  V30 19 H -1.15253 -2.43742 0.253542 0
M  V30 20 H -0.938057 -1.76327 -1.45186 0
M  V30 21 H -1.3259 1.21358 1.34204 0
M  V30 22 H -1.90203 -0.462991 1.8455 0
M  V30 23 H 1.15285 -1.65653 -1.30599 0
M  V30 24 H 3.55705 -1.02298 -1.59766 0
M  V30 25 H 3.04827 2.22086 1.05274 0
M  V30 26 H 0.670758 1.60876 1.35238 0
M  V30 27 H 5.50922 0.220643 -0.669263 0
M  V30 28 H 5.19057 1.95635 -0.415684 0
M  V30 END ATOM
M  V30 BEGIN BOND
M  V30 1 1 1 2
M  V30 2 1 2 3
M  V30 3 1 3 4
M  V30 4 1 4 5
M  V30 5 1 5 6
M  V30 6 1 5 7
M  V30 7 2 7 8
M  V30 8 1 8 9
M  V30 9 2 9 10
M  V30 10 1 10 11
M  V30 11 2 11 12
M  V30 12 1 10 13
M  V30 13 1 6 2
M  V30 14 1 12 7
M  V30 15 1 1 14
M  V30 16 1 1 15
M  V30 17 1 2 16
M  V30 18 1 3 17
M  V30 19 1 3 18
M  V30 20 1 4 19
M  V30 21 1 4 20
M  V30 22 1 6 21
M  V30 23 1 6 22
M  V30 24 1 8 23
M  V30 25 1 9 24
M  V30 26 1 11 25
M  V30 27 1 12 26
M  V30 28 1 13 27
M  V30 29 1 13 28
M  V30 END BOND
M  V30 END CTAB
M  END
