
     RDKit          3D

  0  0  0  0  0  0  0  0  0  0999 V3000
M  V30 BEGIN CTAB
M  V30 COUNTS 125 130 0 0 0
M  V30 BEGIN ATOM
M  V30 1 C -3.72472 0.111466 2.69506 0 CFG=2
M  V30 2 C -4.11268 1.48475 2.34056 0
M  V30 3 C -3.63199 1.96311 1.01472 0 CFG=2
M  V30 4 O -4.49688 3.02303 0.648419 0
M  V30 5 C -4.11786 4.32418 0.43895 0
M  V30 6 O -2.90698 4.6231 0.578473 0
M  V30 7 C -5.17192 5.30007 0.0585431 0
M  V30 8 N -4.65688 6.6277 -0.127256 0
M  V30 9 C -3.71098 0.928919 -0.104142 0 CFG=1
M  V30 10 C -5.20033 0.705956 -0.288057 0
M  V30 11 C -3.23697 1.71245 -1.23646 0
M  V30 12 O -4.13688 2.29155 -1.81328 0
M  V30 13 C -1.94174 2.09116 -2.00404 0 CFG=2
M  V30 14 O -2.23417 2.84397 -3.12222 0
M  V30 15 C -2.012 4.15196 -3.37025 0
M  V30 16 O -1.45846 4.81255 -2.48045 0
M  V30 17 C -2.41013 4.77268 -4.64466 0
M  V30 18 N -2.10827 6.18013 -4.70252 0
M  V30 19 C -1.34731 0.782753 -2.20585 0
M  V30 20 C -0.138633 0.731414 -1.69432 0
M  V30 21 C 0.477197 1.90508 -1.03288 0
M  V30 22 C 0.593331 -0.585422 -1.58836 0 CFG=2
M  V30 23 C -0.416977 -1.68841 -1.25172 0
M  V30 24 C -1.80002 -1.54154 -1.71303 0 CFG=1
M  V30 25 O -2.10404 -2.70483 -2.46258 0
M  V30 26 C -2.91992 -1.42889 -0.717861 0 CFG=1
M  V30 27 O -3.3091 -2.70945 -0.237894 0
M  V30 28 C -4.35034 -3.49007 -0.615501 0
M  V30 29 O -5.0762 -3.01435 -1.51324 0
M  V30 30 C -4.65084 -4.78974 -0.0581889 0
M  V30 31 C -3.89956 -5.36487 0.932657 0
M  V30 32 C -4.1922 -6.62431 1.45917 0
M  V30 33 C -5.27753 -7.32388 0.970368 0
M  V30 34 C -6.03864 -6.74942 -0.0278919 0
M  V30 35 C -5.72561 -5.50539 -0.528661 0
M  V30 36 C -2.98483 -0.330947 0.269458 0 CFG=2
M  V30 37 C -3.30977 -0.82319 1.67088 0 CFG=2
M  V30 38 C -4.59242 -1.46658 1.95862 0
M  V30 39 O -4.83086 -0.680042 3.10394 0
M  V30 40 O -2.25302 -1.62542 2.25264 0
M  V30 41 C -1.08695 -1.11393 2.73655 0
M  V30 42 C -0.0179058 -1.98633 3.33355 0
M  V30 43 O -0.894557 0.120081 2.68423 0
M  V30 44 C -1.85499 -0.494784 -2.83466 0
M  V30 45 C -3.13305 -0.327021 -3.53024 0
M  V30 46 C -0.87994 -0.931936 -3.90193 0
M  V30 47 O 1.49738 -0.563531 -0.466055 0
M  V30 48 C 2.84433 -0.937577 -0.582603 0
M  V30 49 O 3.1744 -1.2925 -1.73445 0
M  V30 50 C 3.76513 -0.911024 0.567693 0 CFG=2
M  V30 51 O 3.11221 -0.234365 1.60104 0
M  V30 52 C 5.1541 -0.434037 0.300666 0 CFG=1
M  V30 53 N 5.99612 -0.58046 1.47809 0
M  V30 54 C 6.90293 0.397495 1.94672 0
M  V30 55 O 6.95721 1.46051 1.25167 0
M  V30 56 O 7.70586 0.321074 3.03633 0
M  V30 57 C 8.62362 1.26948 3.50003 0
M  V30 58 C 9.7326 1.55666 2.50979 0
M  V30 59 C 8.00314 2.61594 3.82573 0
M  V30 60 C 9.25776 0.744846 4.7638 0
M  V30 61 C 5.78466 -1.18905 -0.838982 0
M  V30 62 C 6.09588 -2.50445 -0.645879 0
M  V30 63 C 6.69773 -3.21849 -1.68265 0
M  V30 64 C 6.98154 -2.63294 -2.8812 0
M  V30 65 C 6.66565 -1.29624 -3.078 0
M  V30 66 C 6.07487 -0.607645 -2.05157 0
M  V30 67 H -3.1267 0.165551 3.66633 0
M  V30 68 H -5.21282 1.61829 2.42537 0
M  V30 69 H -3.72836 2.27478 3.06464 0
M  V30 70 H -2.60845 2.38846 1.04963 0
M  V30 71 H -5.64289 4.94136 -0.894883 0
M  V30 72 H -6.00854 5.27817 0.815785 0
M  V30 73 H -4.56865 6.85697 -1.14543 0
M  V30 74 H -5.415 7.28226 0.237824 0
M  V30 75 H -5.76447 0.833581 0.662597 0
M  V30 76 H -5.66327 1.45348 -0.965467 0
M  V30 77 H -5.4433 -0.257128 -0.74093 0
M  V30 78 H -1.45727 2.75841 -1.26972 0
M  V30 79 H -1.90897 4.30976 -5.52217 0
M  V30 80 H -3.49724 4.6377 -4.82598 0
M  V30 81 H -2.97457 6.72349 -4.70423 0
M  V30 82 H -1.56336 6.50344 -3.85241 0
M  V30 83 H 0.520909 2.79713 -1.68622 0
M  V30 84 H 1.53718 1.65526 -0.836019 0
M  V30 85 H 0.0258146 2.12499 -0.0402007 0
M  V30 86 H 1.23781 -0.824486 -2.42482 0
M  V30 87 H 0.10798 -2.60632 -1.66254 0
M  V30 88 H -0.393356 -1.81344 -0.17935 0
M  V30 89 H -2.74502 -2.5674 -3.16761 0
M  V30 90 H -3.77438 -1.26291 -1.42092 0
M  V30 91 H -3.03148 -4.81791 1.33289 0
M  V30 92 H -3.58449 -7.05237 2.23745 0
M  V30 93 H -5.52634 -8.31811 1.37144 0
M  V30 94 H -6.88082 -7.30485 -0.398652 0
M  V30 95 H -6.32175 -5.03844 -1.325 0
M  V30 96 H -1.92168 0.0246434 0.454407 0
M  V30 97 H -5.47025 -1.39483 1.34314 0
M  V30 98 H -4.54986 -2.52879 2.35971 0
M  V30 99 H 0.392385 -2.68196 2.60147 0
M  V30 100 H -0.50348 -2.60097 4.13704 0
M  V30 101 H 0.736827 -1.35914 3.82519 0
M  V30 102 H -4.07917 -0.286122 -3.05573 0
M  V30 103 H -3.20477 -1.02367 -4.3928 0
M  V30 104 H -3.03453 0.679215 -4.06353 0
M  V30 105 H -1.38617 -1.13948 -4.90103 0
M  V30 106 H -0.152003 -0.139361 -4.18632 0
M  V30 107 H -0.418671 -1.91799 -3.6836 0
M  V30 108 H 3.82336 -1.98386 0.979442 0
M  V30 109 H 3.40166 -0.537084 2.48801 0
M  V30 110 H 5.15784 0.611565 -0.00253445 0
M  V30 111 H 5.92839 -1.47335 2.0163 0
M  V30 112 H 9.37099 1.8296 1.50045 0
M  V30 113 H 10.4865 0.735208 2.48112 0
M  V30 114 H 10.2737 2.44714 2.89362 0
M  V30 115 H 6.91427 2.51153 4.05758 0
M  V30 116 H 8.57462 3.09401 4.61649 0
M  V30 117 H 8.00328 3.19885 2.85689 0
M  V30 118 H 9.04481 -0.335891 4.92144 0
M  V30 119 H 10.3555 0.909041 4.73832 0
M  V30 120 H 8.89182 1.33632 5.65123 0
M  V30 121 H 5.91684 -3.06697 0.258101 0
M  V30 122 H 6.95307 -4.26144 -1.55433 0
M  V30 123 H 7.44893 -3.15087 -3.71368 0
M  V30 124 H 6.89373 -0.817406 -4.04394 0
M  V30 125 H 5.82129 0.431387 -2.18597 0
M  V30 END ATOM
M  V30 BEGIN BOND
M  V30 1 1 1 2
M  V30 2 1 2 3
M  V30 3 1 3 4
M  V30 4 1 4 5
M  V30 5 2 5 6
M  V30 6 1 5 7
M  V30 7 1 7 8
M  V30 8 1 3 9
M  V30 9 1 9 10 CFG=3
M  V30 10 1 9 11
M  V30 11 2 11 12
M  V30 12 1 11 13
M  V30 13 1 13 14
M  V30 14 1 14 15
M  V30 15 2 15 16
M  V30 16 1 15 17
M  V30 17 1 17 18
M  V30 18 1 13 19
M  V30 19 2 19 20
M  V30 20 1 20 21
M  V30 21 1 20 22
M  V30 22 1 22 23
M  V30 23 1 23 24
M  V30 24 1 24 25 CFG=3
M  V30 25 1 24 26
M  V30 26 1 26 27
M  V30 27 1 27 28
M  V30 28 2 28 29
M  V30 29 1 28 30
M  V30 30 2 30 31
M  V30 31 1 31 32
M  V30 32 2 32 33
M  V30 33 1 33 34
M  V30 34 2 34 35
M  V30 35 1 26 36
M  V30 36 1 36 37
M  V30 37 1 37 38
M  V30 38 1 38 39
M  V30 39 1 37 40 CFG=1
M  V30 40 1 40 41
M  V30 41 1 41 42
M  V30 42 2 41 43
M  V30 43 1 24 44
M  V30 44 1 44 45
M  V30 45 1 44 46
M  V30 46 1 22 47
M  V30 47 1 47 48
M  V30 48 2 48 49
M  V30 49 1 48 50
M  V30 50 1 50 51
M  V30 51 1 50 52
M  V30 52 1 52 53
M  V30 53 1 53 54
M  V30 54 2 54 55
M  V30 55 1 54 56
M  V30 56 1 56 57
M  V30 57 1 57 58
M  V30 58 1 57 59
M  V30 59 1 57 60
M  V30 60 1 52 61
M  V30 61 2 61 62
M  V30 62 1 62 63
M  V30 63 2 63 64
M  V30 64 1 64 65
M  V30 65 2 65 66
M  V30 66 1 37 1
M  V30 67 1 66 61
M  V30 68 1 39 1
M  V30 69 1 36 9
M  V30 70 1 44 19
M  V30 71 1 35 30
M  V30 72 1 1 67 CFG=1
M  V30 73 1 2 68
M  V30 74 1 2 69
M  V30 75 1 3 70 CFG=1
M  V30 76 1 7 71
M  V30 77 1 7 72
M  V30 78 1 8 73
M  V30 79 1 8 74
M  V30 80 1 10 75
M  V30 81 1 10 76
M  V30 82 1 10 77
M  V30 83 1 13 78 CFG=1
M  V30 84 1 17 79
M  V30 85 1 17 80
M  V30 86 1 18 81
M  V30 87 1 18 82
M  V30 88 1 21 83
M  V30 89 1 21 84
M  V30 90 1 21 85
M  V30 91 1 22 86 CFG=3
M  V30 92 1 23 87
M  V30 93 1 23 88
M  V30 94 1 25 89
M  V30 95 1 26 90 CFG=3
M  V30 96 1 31 91
M  V30 97 1 32 92
M  V30 98 1 33 93
M  V30 99 1 34 94
M  V30 100 1 35 95
M  V30 101 1 36 96 CFG=1
M  V30 102 1 38 97
M  V30 103 1 38 98
M  V30 104 1 42 99
M  V30 105 1 42 100
M  V30 106 1 42 101
M  V30 107 1 45 102
M  V30 108 1 45 103
M  V30 109 1 45 104
M  V30 110 1 46 105
M  V30 111 1 46 106
M  V30 112 1 46 107
M  V30 113 1 50 108 CFG=1
M  V30 114 1 51 109
M  V30 115 1 52 110 CFG=3
M  V30 116 1 53 111
M  V30 117 1 58 112
M  V30 118 1 58 113
M  V30 119 1 58 114
M  V30 120 1 59 115
M  V30 121 1 59 116
M  V30 122 1 59 117
M  V30 123 1 60 118
M  V30 124 1 60 119
M  V30 125 1 60 120
M  V30 126 1 62 121
M  V30 127 1 63 122
M  V30 128 1 64 123
M  V30 129 1 65 124
M  V30 130 1 66 125
M  V30 END BOND
M  V30 END CTAB
M  END
