
     RDKit          3D

  0  0  0  0  0  0  0  0  0  0999 V3000
M  V30 BEGIN CTAB
M  V30 COUNTS 38 40 0 0 0
M  V30 BEGIN ATOM
M  V30 1 C 5.44253 -2.44939 0.345215 0
M  V30 2 O 4.05352 -2.36584 0.416458 0
M  V30 3 C 3.32594 -1.18033 0.372389 0
M  V30 4 C 3.96477 0.036281 0.250159 0
M  V30 5 C 3.18007 1.14552 0.216784 0
M  V30 6 C 1.78235 1.119 0.298324 0
M  V30 7 O 1.07066 2.29981 0.271982 0
M  V30 8 C 1.74288 3.52199 0.150958 0
M  V30 9 C 1.16543 -0.0852461 0.414386 0
M  V30 10 C 1.97717 -1.24948 0.452282 0
M  V30 11 C -0.276941 -0.294459 0.395418 0
M  V30 12 C -1.31675 0.200724 -0.290292 0
M  V30 13 C -1.10779 1.20349 -1.424 0
M  V30 14 C -2.55782 -0.310351 -0.0548775 0
M  V30 15 C -2.6426 -1.31185 0.873059 0
M  V30 16 S -1.02642 -1.51085 1.38671 0
M  V30 17 N -3.81829 -1.92496 1.23236 0
M  V30 18 C -4.98239 -1.56427 0.678982 0
M  V30 19 N -6.20535 -2.19144 1.04184 0
M  V30 20 N -4.92176 -0.591182 -0.223067 0
M  V30 21 C -3.80964 0.0386528 -0.610214 0
M  V30 22 N -3.94434 1.08004 -1.56803 0
M  V30 23 H 5.80335 -1.73735 -0.416019 0
M  V30 24 H 5.85879 -2.25256 1.35929 0
M  V30 25 H 5.70194 -3.46861 -0.01426 0
M  V30 26 H 5.04403 0.0575152 0.187022 0
M  V30 27 H 3.66302 2.11378 0.121079 0
M  V30 28 H 2.33703 3.79623 1.04546 0
M  V30 29 H 0.988947 4.33279 -0.0159277 0
M  V30 30 H 2.44484 3.53492 -0.732278 0
M  V30 31 H 1.4527 -2.17836 0.548073 0
M  V30 32 H -1.37121 2.20557 -1.17093 0
M  V30 33 H -1.68996 0.770743 -2.30865 0
M  V30 34 H -0.0608575 1.1396 -1.81143 0
M  V30 35 H -7.06673 -2.07408 0.490933 0
M  V30 36 H -6.21995 -2.78051 1.88508 0
M  V30 37 H -4.08786 0.869041 -2.5662 0
M  V30 38 H -3.89328 2.05542 -1.22807 0
M  V30 END ATOM
M  V30 BEGIN BOND
M  V30 1 1 1 2
M  V30 2 1 2 3
M  V30 3 2 3 4
M  V30 4 1 4 5
M  V30 5 2 5 6
M  V30 6 1 6 7
M  V30 7 1 7 8
M  V30 8 1 6 9
M  V30 9 2 9 10
M  V30 10 1 9 11
M  V30 11 2 11 12
M  V30 12 1 12 13
M  V30 13 1 12 14
M  V30 14 2 14 15
M  V30 15 1 15 16
M  V30 16 1 15 17
M  V30 17 2 17 18
M  V30 18 1 18 19
M  V30 19 1 18 20
M  V30 20 2 20 21
M  V30 21 1 21 22
M  V30 22 1 10 3
M  V30 23 1 16 11
M  V30 24 1 21 14
M  V30 25 1 1 23
M  V30 26 1 1 24
M  V30 27 1 1 25
M  V30 28 1 4 26
M  V30 29 1 5 27
M  V30 30 1 8 28
M  V30 31 1 8 29
M  V30 32 1 8 30
M  V30 33 1 10 31
M  V30 34 1 13 32
M  V30 35 1 13 33
M  V30 36 1 13 34
M  V30 37 1 19 35
M  V30 38 1 19 36
M  V30 39 1 22 37
M  V30 40 1 22 38
M  V30 END BOND
M  V30 END CTAB
M  END
