
     RDKit          3D

  0  0  0  0  0  0  0  0  0  0999 V3000
M  V30 BEGIN CTAB
M  V30 COUNTS 44 46 0 0 0
M  V30 BEGIN ATOM
M  V30 1 O 1.19714 -0.640775 1.41797 0
M  V30 2 C 0.537508 0.235143 0.859814 0
M  V30 3 C 1.15592 1.60274 0.80931 0
M  V30 4 S 2.7649 1.59956 1.63318 0
M  V30 5 C 3.86603 0.569201 0.676173 0
M  V30 6 N 3.49618 -0.0601754 -0.448226 0
M  V30 7 C 4.36306 -0.827552 -1.13579 0
M  V30 8 N 3.93236 -1.47778 -2.32442 0
M  V30 9 N 5.62977 -0.96367 -0.680494 0
M  V30 10 C 6.04129 -0.345995 0.448092 0
M  V30 11 N 5.13343 0.409216 1.09629 0
M  V30 12 N 7.3815 -0.486926 0.934309 0
M  V30 13 C 0.26057 2.65749 1.37019 0
M  V30 14 N -0.722902 0.047908 0.281042 0
M  V30 15 C -1.49617 -1.13959 0.201535 0
M  V30 16 C -0.946714 -2.39763 0.50888 0
M  V30 17 C -1.70464 -3.53326 0.353458 0
M  V30 18 C -3.00004 -3.44758 -0.102037 0
M  V30 19 C -3.5587 -2.2197 -0.408937 0
M  V30 20 C -2.78703 -1.06779 -0.248967 0
M  V30 21 C -3.43453 0.205636 -0.52156 0
M  V30 22 C -3.56007 1.17372 0.443992 0
M  V30 23 C -4.17754 2.37017 0.163613 0
M  V30 24 C -4.67649 2.6168 -1.07922 0
M  V30 25 C -4.56606 1.66767 -2.06627 0
M  V30 26 C -3.95374 0.480268 -1.7894 0
M  V30 27 H 1.30935 1.80571 -0.280707 0
M  V30 28 H 3.32789 -2.32251 -2.35687 0
M  V30 29 H 4.26219 -1.05544 -3.23281 0
M  V30 30 H 7.89295 -1.38991 0.798975 0
M  V30 31 H 7.8926 0.276228 1.42851 0
M  V30 32 H -0.407618 3.04663 0.56994 0
M  V30 33 H 0.894605 3.53459 1.6837 0
M  V30 34 H -0.334682 2.34902 2.23895 0
M  V30 35 H -1.16668 0.900034 -0.193757 0
M  V30 36 H 0.062536 -2.50432 0.860624 0
M  V30 37 H -1.29407 -4.49974 0.585705 0
M  V30 38 H -3.60761 -4.33224 -0.230105 0
M  V30 39 H -4.56198 -2.1542 -0.761793 0
M  V30 40 H -3.16454 0.989794 1.44546 0
M  V30 41 H -4.27989 3.14076 0.924267 0
M  V30 42 H -5.16605 3.57653 -1.2852 0
M  V30 43 H -4.97769 1.89569 -3.05687 0
M  V30 44 H -3.85635 -0.283733 -2.55684 0
M  V30 END ATOM
M  V30 BEGIN BOND
M  V30 1 2 1 2
M  V30 2 1 2 3
M  V30 3 1 3 4
M  V30 4 1 4 5
M  V30 5 2 5 6
M  V30 6 1 6 7
M  V30 7 1 7 8
M  V30 8 2 7 9
M  V30 9 1 9 10
M  V30 10 2 10 11
M  V30 11 1 10 12
M  V30 12 1 3 13
M  V30 13 1 2 14
M  V30 14 1 14 15
M  V30 15 2 15 16
M  V30 16 1 16 17
M  V30 17 2 17 18
M  V30 18 1 18 19
M  V30 19 2 19 20
M  V30 20 1 20 21
M  V30 21 2 21 22
M  V30 22 1 22 23
M  V30 23 2 23 24
M  V30 24 1 24 25
M  V30 25 2 25 26
M  V30 26 1 11 5
M  V30 27 1 20 15
M  V30 28 1 26 21
M  V30 29 1 3 27
M  V30 30 1 8 28
M  V30 31 1 8 29
M  V30 32 1 12 30
M  V30 33 1 12 31
M  V30 34 1 13 32
M  V30 35 1 13 33
M  V30 36 1 13 34
M  V30 37 1 14 35
M  V30 38 1 16 36
M  V30 39 1 17 37
M  V30 40 1 18 38
M  V30 41 1 19 39
M  V30 42 1 22 40
M  V30 43 1 23 41
M  V30 44 1 24 42
M  V30 45 1 25 43
M  V30 46 1 26 44
M  V30 END BOND
M  V30 END CTAB
M  END
