
     RDKit          3D

  0  0  0  0  0  0  0  0  0  0999 V3000
M  V30 BEGIN CTAB
M  V30 COUNTS 21 21 0 0 0
M  V30 BEGIN ATOM
M  V30 1 C -1.8479 0.0209267 1.27947 0
M  V30 2 C -1.22652 0.48047 -0.0681368 0
M  V30 3 C 0.168617 0.0242373 -0.055604 0
M  V30 4 C 0.537825 -1.22883 0.330142 0
M  V30 5 C 1.86816 -1.66478 0.280418 0
M  V30 6 C 2.80175 -0.746854 -0.190123 0
M  V30 7 N 2.404 0.448541 -0.543311 0
M  V30 8 C 1.15964 0.928599 -0.527332 0
M  V30 9 N 0.802981 2.22761 -0.843892 0
M  V30 10 N -1.98185 -0.278631 -1.07063 0
M  V30 11 H -1.64169 -1.02637 1.42974 0
M  V30 12 H -2.90072 0.261168 1.31575 0
M  V30 13 H -1.2791 0.634697 2.05438 0
M  V30 14 H -1.34955 1.54256 -0.153511 0
M  V30 15 H -0.200344 -1.97877 0.659676 0
M  V30 16 H 2.15005 -2.66327 0.561023 0
M  V30 17 H 3.83328 -1.12301 -0.208791 0
M  V30 18 H 0.144807 2.77561 -0.257134 0
M  V30 19 H 1.18128 2.658 -1.70931 0
M  V30 20 H -2.96231 -0.0563037 -1.09451 0
M  V30 21 H -1.66243 -1.23559 -1.18831 0
M  V30 END ATOM
M  V30 BEGIN BOND
M  V30 1 1 1 2
M  V30 2 1 2 3
M  V30 3 2 3 4
M  V30 4 1 4 5
M  V30 5 2 5 6
M  V30 6 1 6 7
M  V30 7 2 7 8
M  V30 8 1 8 9
M  V30 9 1 2 10
M  V30 10 1 8 3
M  V30 11 1 1 11
M  V30 12 1 1 12
M  V30 13 1 1 13
M  V30 14 1 2 14
M  V30 15 1 4 15
M  V30 16 1 5 16
M  V30 17 1 6 17
M  V30 18 1 9 18
M  V30 19 1 9 19
M  V30 20 1 10 20
M  V30 21 1 10 21
M  V30 END BOND
M  V30 END CTAB
M  END
