
     RDKit          3D

  0  0  0  0  0  0  0  0  0  0999 V3000
M  V30 BEGIN CTAB
M  V30 COUNTS 18 18 0 0 0
M  V30 BEGIN ATOM
M  V30 1 N 3.01678 0.0958483 0.146641 0
M  V30 2 C 1.61775 -0.104988 0.0797754 0
M  V30 3 C 1.11836 -1.39017 0.0706135 0
M  V30 4 F 1.96716 -2.47198 0.125765 0
M  V30 5 C -0.247352 -1.568 0.0051136 0
M  V30 6 F -0.730369 -2.8311 -0.00350334 0
M  V30 7 C -1.10933 -0.49592 -0.0505822 0
M  V30 8 C -0.632455 0.821663 -0.0429274 0
M  V30 9 N -1.5151 1.91974 -0.0999561 0
M  V30 10 C 0.743958 0.958827 0.0235947 0
M  V30 11 F 1.20285 2.25197 0.0306475 0
M  V30 12 N -2.52475 -0.683959 -0.118441 0 CHG=1
M  V30 13 O -3.38477 0.354702 -0.173675 0 CHG=-1
M  V30 14 O -2.96058 -1.86064 -0.125739 0
M  V30 15 H 3.67778 -0.0949583 -0.641797 0
M  V30 16 H 3.43389 0.454889 1.02527 0
M  V30 17 H -2.04048 2.2129 0.735322 0
M  V30 18 H -1.63337 2.43117 -0.986121 0
M  V30 END ATOM
M  V30 BEGIN BOND
M  V30 1 1 1 2
M  V30 2 2 2 3
M  V30 3 1 3 4
M  V30 4 1 3 5
M  V30 5 1 5 6
M  V30 6 2 5 7
M  V30 7 1 7 8
M  V30 8 1 8 9
M  V30 9 2 8 10
M  V30 10 1 10 11
M  V30 11 1 7 12
M  V30 12 1 12 13
M  V30 13 2 12 14
M  V30 14 1 10 2
M  V30 15 1 1 15
M  V30 16 1 1 16
M  V30 17 1 9 17
M  V30 18 1 9 18
M  V30 END BOND
M  V30 END CTAB
M  END
