
     RDKit          3D

  0  0  0  0  0  0  0  0  0  0999 V3000
M  V30 BEGIN CTAB
M  V30 COUNTS 26 27 0 0 0
M  V30 BEGIN ATOM
M  V30 1 N 4.03853 -1.08857 -1.01801 0
M  V30 2 C 2.87883 -0.459432 -0.486872 0
M  V30 3 N 1.6481 -0.992641 -0.648249 0
M  V30 4 C 0.576174 -0.366204 -0.130177 0
M  V30 5 N 0.716707 0.777652 0.542124 0
M  V30 6 C 1.92919 1.33397 0.71983 0
M  V30 7 N 2.9859 0.704166 0.201712 0
M  V30 8 N 2.05991 2.554 1.43941 0
M  V30 9 C -0.750953 -1.00597 -0.343209 0
M  V30 10 N -1.43237 -0.946503 0.956958 0
M  V30 11 C -2.84285 -0.673181 0.760908 0
M  V30 12 C -3.0121 0.648858 0.0628057 0
M  V30 13 O -1.92075 0.977871 -0.739718 0
M  V30 14 C -1.48375 -0.189154 -1.37959 0
M  V30 15 H 4.03265 -1.67094 -1.88506 0
M  V30 16 H 4.92723 -0.959366 -0.517037 0
M  V30 17 H 1.25801 3.05092 1.84717 0
M  V30 18 H 3.00547 2.97583 1.56746 0
M  V30 19 H -0.664307 -2.06817 -0.59743 0
M  V30 20 H -1.32946 -1.83642 1.48547 0
M  V30 21 H -3.31178 -0.702992 1.76612 0
M  V30 22 H -3.28774 -1.47874 0.140534 0
M  V30 23 H -3.90832 0.641117 -0.596136 0
M  V30 24 H -3.07656 1.46735 0.836926 0
M  V30 25 H -0.727132 0.0747775 -2.16973 0
M  V30 26 H -2.30862 -0.768219 -1.8162 0
M  V30 END ATOM
M  V30 BEGIN BOND
M  V30 1 1 1 2
M  V30 2 2 2 3
M  V30 3 1 3 4
M  V30 4 2 4 5
M  V30 5 1 5 6
M  V30 6 2 6 7
M  V30 7 1 6 8
M  V30 8 1 4 9
M  V30 9 1 9 10
M  V30 10 1 10 11
M  V30 11 1 11 12
M  V30 12 1 12 13
M  V30 13 1 13 14
M  V30 14 1 7 2
M  V30 15 1 14 9
M  V30 16 1 1 15
M  V30 17 1 1 16
M  V30 18 1 8 17
M  V30 19 1 8 18
M  V30 20 1 9 19
M  V30 21 1 10 20
M  V30 22 1 11 21
M  V30 23 1 11 22
M  V30 24 1 12 23
M  V30 25 1 12 24
M  V30 26 1 14 25
M  V30 27 1 14 26
M  V30 END BOND
M  V30 END CTAB
M  END
