
     RDKit          3D

  0  0  0  0  0  0  0  0  0  0999 V3000
M  V30 BEGIN CTAB
M  V30 COUNTS 27 27 0 0 0
M  V30 BEGIN ATOM
M  V30 1 N 2.98695 0.0221936 0.395692 0
M  V30 2 C 1.5305 0.00617179 0.479845 0
M  V30 3 C 1.08099 -1.424 0.477478 0
M  V30 4 C -0.340938 -1.63002 0.117394 0
M  V30 5 N -1.00803 -0.663266 -0.610932 0
M  V30 6 C -0.468542 0.594839 -0.857086 0
M  V30 7 C 1.00445 0.753056 -0.71051 0
M  V30 8 C 1.28494 2.24098 -0.486917 0
M  V30 9 S -2.70136 -0.550152 -0.347864 0
M  V30 10 O -3.2037 0.604082 -1.20142 0
M  V30 11 O -3.44055 -1.77151 -0.810376 0
M  V30 12 N -3.08097 -0.148033 1.28236 0
M  V30 13 H 3.35612 -0.35989 1.29477 0
M  V30 14 H 3.23769 -0.642701 -0.366099 0
M  V30 15 H 1.27489 0.5195 1.42891 0
M  V30 16 H 1.3026 -1.82582 1.49279 0
M  V30 17 H 1.77338 -1.98415 -0.207013 0
M  V30 18 H -0.911706 -1.84811 1.06881 0
M  V30 19 H -0.398653 -2.61397 -0.439676 0
M  V30 20 H -1.03016 1.36493 -0.249317 0
M  V30 21 H -0.723404 0.874451 -1.92399 0
M  V30 22 H 1.49128 0.403626 -1.63263 0
M  V30 23 H 2.21095 2.41327 0.0678783 0
M  V30 24 H 0.449448 2.69549 0.107815 0
M  V30 25 H 1.26067 2.70912 -1.47442 0
M  V30 26 H -2.96817 0.843031 1.50179 0
M  V30 27 H -3.96867 -0.58313 1.60272 0
M  V30 END ATOM
M  V30 BEGIN BOND
M  V30 1 1 1 2
M  V30 2 1 2 3
M  V30 3 1 3 4
M  V30 4 1 4 5
M  V30 5 1 5 6
M  V30 6 1 6 7
M  V30 7 1 7 8
M  V30 8 1 5 9
M  V30 9 2 9 10
M  V30 10 2 9 11
M  V30 11 1 9 12
M  V30 12 1 7 2
M  V30 13 1 1 13
M  V30 14 1 1 14
M  V30 15 1 2 15
M  V30 16 1 3 16
M  V30 17 1 3 17
M  V30 18 1 4 18
M  V30 19 1 4 19
M  V30 20 1 6 20
M  V30 21 1 6 21
M  V30 22 1 7 22
M  V30 23 1 8 23
M  V30 24 1 8 24
M  V30 25 1 8 25
M  V30 26 1 12 26
M  V30 27 1 12 27
M  V30 END BOND
M  V30 END CTAB
M  END
