
     RDKit          3D

  0  0  0  0  0  0  0  0  0  0999 V3000
M  V30 BEGIN CTAB
M  V30 COUNTS 16 16 0 0 0
M  V30 BEGIN ATOM
M  V30 1 N 2.97152 -0.130801 -0.253999 0
M  V30 2 N 1.90016 -0.44454 0.556336 0
M  V30 3 C 0.564056 0.016385 0.325742 0
M  V30 4 C 0.211622 1.31825 0.593817 0
M  V30 5 C -1.09039 1.6946 0.369858 0
M  V30 6 F -1.46109 2.96857 0.617953 0
M  V30 7 N -1.96842 0.790679 -0.0988519 0
M  V30 8 C -1.63298 -0.495042 -0.364347 0
M  V30 9 N -0.358267 -0.842364 -0.139806 0
M  V30 10 N -2.64288 -1.3737 -0.836522 0
M  V30 11 H 3.7982 -0.693323 0.0768541 0
M  V30 12 H 2.78633 -0.368879 -1.24148 0
M  V30 13 H 1.98519 -1.05607 1.42443 0
M  V30 14 H 0.979474 2.00894 0.975071 0
M  V30 15 H -2.62468 -1.74669 -1.79576 0
M  V30 16 H -3.41783 -1.64601 -0.209297 0
M  V30 END ATOM
M  V30 BEGIN BOND
M  V30 1 1 1 2
M  V30 2 1 2 3
M  V30 3 2 3 4
M  V30 4 1 4 5
M  V30 5 1 5 6
M  V30 6 2 5 7
M  V30 7 1 7 8
M  V30 8 2 8 9
M  V30 9 1 8 10
M  V30 10 1 9 3
M  V30 11 1 1 11
M  V30 12 1 1 12
M  V30 13 1 2 13
M  V30 14 1 4 14
M  V30 15 1 10 15
M  V30 16 1 10 16
M  V30 END BOND
M  V30 END CTAB
M  END
