
     RDKit          3D

  0  0  0  0  0  0  0  0  0  0999 V3000
M  V30 BEGIN CTAB
M  V30 COUNTS 49 50 0 0 0
M  V30 BEGIN ATOM
M  V30 1 N 9.27316 0.871496 0.41902 0
M  V30 2 C 8.29133 0.0231934 -0.253462 0
M  V30 3 C 6.9094 0.433727 0.176336 0
M  V30 4 O 5.87215 -0.28848 -0.399669 0
M  V30 5 C 4.57449 0.0756806 -0.0382052 0
M  V30 6 C 4.34025 1.10058 0.862467 0
M  V30 7 C 3.03556 1.42429 1.18086 0
M  V30 8 C 1.93841 0.753199 0.624286 0
M  V30 9 C 0.567932 1.129 0.933825 0
M  V30 10 C -0.375406 -0.0669758 1.13396 0
M  V30 11 O -0.112028 -0.718791 2.15116 0
M  V30 12 N -1.35201 -0.268009 0.213384 0
M  V30 13 C -2.35134 -0.478665 -0.723079 0
M  V30 14 C -3.7531 -0.391079 -0.179636 0
M  V30 15 C -4.74137 -0.565622 -1.34729 0
M  V30 16 C -6.10356 -0.459148 -0.848842 0
M  V30 17 C -6.66554 0.808015 -0.712654 0
M  V30 18 C -7.95501 0.993342 -0.278137 0
M  V30 19 Cl -8.70525 2.5554 -0.0835857 0
M  V30 20 C -8.72159 -0.124652 0.0350739 0
M  V30 21 Cl -10.3858 0.0942539 0.594288 0
M  V30 22 C -8.1698 -1.38343 -0.096914 0
M  V30 23 C -6.85178 -1.55548 -0.541472 0
M  V30 24 C 2.19324 -0.262303 -0.26428 0
M  V30 25 C 3.48055 -0.590951 -0.584979 0
M  V30 26 N 3.75994 -1.64134 -1.49119 0
M  V30 27 H 9.24978 1.83179 -0.0313776 0
M  V30 28 H 8.99492 1.00415 1.4173 0
M  V30 29 H 8.45581 0.0297629 -1.34036 0
M  V30 30 H 8.47088 -1.01445 0.102414 0
M  V30 31 H 6.78856 1.5244 -0.0727364 0
M  V30 32 H 6.85982 0.369393 1.28585 0
M  V30 33 H 5.20592 1.60368 1.27456 0
M  V30 34 H 2.82592 2.22407 1.8836 0
M  V30 35 H 0.605121 1.65967 1.93519 0
M  V30 36 H 0.123593 1.832 0.231193 0
M  V30 37 H -1.83299 -1.36661 0.904055 0
M  V30 38 H -2.25622 -1.49787 -1.23726 0
M  V30 39 H -2.27263 0.266786 -1.59096 0
M  V30 40 H -3.96577 -1.20954 0.535739 0
M  V30 41 H -3.95567 0.571105 0.299206 0
M  V30 42 H -4.52448 0.307781 -2.01804 0
M  V30 43 H -4.51714 -1.50483 -1.89141 0
M  V30 44 H -6.08315 1.68786 -0.953925 0
M  V30 45 H -8.74463 -2.27437 0.139407 0
M  V30 46 H -6.50686 -2.57766 -0.616813 0
M  V30 47 H 1.37559 -0.806002 -0.713474 0
M  V30 48 H 3.51979 -2.63445 -1.22005 0
M  V30 49 H 4.19104 -1.49389 -2.41758 0
M  V30 END ATOM
M  V30 BEGIN BOND
M  V30 1 1 1 2
M  V30 2 1 2 3
M  V30 3 1 3 4
M  V30 4 1 4 5
M  V30 5 2 5 6
M  V30 6 1 6 7
M  V30 7 2 7 8
M  V30 8 1 8 9
M  V30 9 1 9 10
M  V30 10 2 10 11
M  V30 11 1 10 12
M  V30 12 1 12 13
M  V30 13 1 13 14
M  V30 14 1 14 15
M  V30 15 1 15 16
M  V30 16 2 16 17
M  V30 17 1 17 18
M  V30 18 1 18 19
M  V30 19 2 18 20
M  V30 20 1 20 21
M  V30 21 1 20 22
M  V30 22 2 22 23
M  V30 23 1 8 24
M  V30 24 2 24 25
M  V30 25 1 25 26
M  V30 26 1 25 5
M  V30 27 1 23 16
M  V30 28 1 1 27
M  V30 29 1 1 28
M  V30 30 1 2 29
M  V30 31 1 2 30
M  V30 32 1 3 31
M  V30 33 1 3 32
M  V30 34 1 6 33
M  V30 35 1 7 34
M  V30 36 1 9 35
M  V30 37 1 9 36
M  V30 38 1 12 37
M  V30 39 1 13 38
M  V30 40 1 13 39
M  V30 41 1 14 40
M  V30 42 1 14 41
M  V30 43 1 15 42
M  V30 44 1 15 43
M  V30 45 1 17 44
M  V30 46 1 22 45
M  V30 47 1 23 46
M  V30 48 1 24 47
M  V30 49 1 26 48
M  V30 50 1 26 49
M  V30 END BOND
M  V30 END CTAB
M  END
