
     RDKit          3D

  0  0  0  0  0  0  0  0  0  0999 V3000
M  V30 BEGIN CTAB
M  V30 COUNTS 50 53 0 0 0
M  V30 BEGIN ATOM
M  V30 1 N -1.94148 6.57037 1.01159 0
M  V30 2 C -1.10063 5.47262 0.577938 0
M  V30 3 N -1.54088 4.21138 0.610293 0
M  V30 4 C -0.828862 3.14377 0.230779 0
M  V30 5 C 0.45606 3.38792 -0.225674 0
M  V30 6 N 1.20485 2.35569 -0.613231 0
M  V30 7 C 0.729451 1.10085 -0.564749 0
M  V30 8 C 1.64016 0.00441979 -0.971387 0
M  V30 9 C 2.24987 -0.539276 0.299358 0
M  V30 10 C 3.19213 -1.63992 0.108038 0
M  V30 11 C 4.52728 -1.41024 -0.0954864 0
M  V30 12 C 5.4171 -2.46758 -0.257346 0
M  V30 13 C 4.98102 -3.7818 -0.21821 0
M  V30 14 C 3.63411 -3.99782 -0.0128788 0
M  V30 15 C 2.75974 -2.94433 0.146719 0
M  V30 16 C -0.529971 0.856558 -0.119761 0
M  V30 17 C -1.13633 -0.521874 -0.0675688 0
M  V30 18 C -2.64178 -0.322829 0.00424713 0
M  V30 19 C -3.3989 -1.57497 0.0634392 0
M  V30 20 C -3.86608 -2.24115 -1.06448 0
M  V30 21 C -4.56799 -3.41792 -0.968219 0
M  V30 22 C -4.83441 -3.98189 0.261317 0
M  V30 23 C -4.3727 -3.32536 1.38452 0
M  V30 24 C -3.66729 -2.14418 1.30127 0
M  V30 25 N -1.30022 1.89303 0.276812 0
M  V30 26 C 0.930935 4.69377 -0.26691 0
M  V30 27 N 2.25307 4.9229 -0.735779 0
M  V30 28 N 0.145181 5.70433 0.13419 0
M  V30 29 H -2.88986 6.7167 0.609914 0
M  V30 30 H -1.6188 7.25572 1.74488 0
M  V30 31 H 1.13707 -0.795148 -1.51558 0
M  V30 32 H 2.4745 0.458725 -1.56158 0
M  V30 33 H 1.44914 -0.827475 1.00401 0
M  V30 34 H 2.80146 0.354786 0.763491 0
M  V30 35 H 4.94305 -0.392342 -0.13777 0
M  V30 36 H 6.47167 -2.30689 -0.413939 0
M  V30 37 H 5.68596 -4.61139 -0.343321 0
M  V30 38 H 3.32338 -5.0511 0.0129619 0
M  V30 39 H 1.71356 -3.22526 0.30384 0
M  V30 40 H -0.820804 -1.06254 0.815447 0
M  V30 41 H -0.832229 -1.09722 -0.977086 0
M  V30 42 H -3.04831 0.324854 -0.774454 0
M  V30 43 H -2.81155 0.232889 0.974058 0
M  V30 44 H -3.62844 -1.75156 -2.02021 0
M  V30 45 H -4.91495 -3.90904 -1.86621 0
M  V30 46 H -5.3993 -4.92723 0.332527 0
M  V30 47 H -4.59976 -3.80358 2.35554 0
M  V30 48 H -3.32738 -1.67773 2.23885 0
M  V30 49 H 2.74757 5.76567 -0.374827 0
M  V30 50 H 2.75059 4.3227 -1.39938 0
M  V30 END ATOM
M  V30 BEGIN BOND
M  V30 1 1 1 2
M  V30 2 2 2 3
M  V30 3 1 3 4
M  V30 4 2 4 5
M  V30 5 1 5 6
M  V30 6 2 6 7
M  V30 7 1 7 8
M  V30 8 1 8 9
M  V30 9 1 9 10
M  V30 10 2 10 11
M  V30 11 1 11 12
M  V30 12 2 12 13
M  V30 13 1 13 14
M  V30 14 2 14 15
M  V30 15 1 7 16
M  V30 16 1 16 17
M  V30 17 1 17 18
M  V30 18 1 18 19
M  V30 19 2 19 20
M  V30 20 1 20 21
M  V30 21 2 21 22
M  V30 22 1 22 23
M  V30 23 2 23 24
M  V30 24 2 16 25
M  V30 25 1 5 26
M  V30 26 1 26 27
M  V30 27 2 26 28
M  V30 28 1 28 2
M  V30 29 1 25 4
M  V30 30 1 15 10
M  V30 31 1 24 19
M  V30 32 1 1 29
M  V30 33 1 1 30
M  V30 34 1 8 31
M  V30 35 1 8 32
M  V30 36 1 9 33
M  V30 37 1 9 34
M  V30 38 1 11 35
M  V30 39 1 12 36
M  V30 40 1 13 37
M  V30 41 1 14 38
M  V30 42 1 15 39
M  V30 43 1 17 40
M  V30 44 1 17 41
M  V30 45 1 18 42
M  V30 46 1 18 43
M  V30 47 1 20 44
M  V30 48 1 21 45
M  V30 49 1 22 46
M  V30 50 1 23 47
M  V30 51 1 24 48
M  V30 52 1 27 49
M  V30 53 1 27 50
M  V30 END BOND
M  V30 END CTAB
M  END
