
     RDKit          3D

  0  0  0  0  0  0  0  0  0  0999 V3000
M  V30 BEGIN CTAB
M  V30 COUNTS 43 44 0 0 0
M  V30 BEGIN ATOM
M  V30 1 C 1.16354 1.23304 0.690292 0
M  V30 2 C 0.660236 -0.19103 0.619501 0
M  V30 3 C -0.33803 -0.260276 -0.464096 0
M  V30 4 O -0.00837124 -0.780145 -1.55514 0
M  V30 5 N -1.65265 0.245986 -0.310027 0
M  V30 6 C -2.59867 0.201914 -1.41069 0
M  V30 7 C -4.01411 0.0465302 -1.07445 0
M  V30 8 C -4.77673 1.23747 -1.68263 0
M  V30 9 C -4.41609 -0.114067 0.326755 0
M  V30 10 C -3.30323 -0.0987615 1.33655 0
M  V30 11 C -2.16898 0.81854 0.918129 0
M  V30 12 C -2.81313 -1.51292 1.52057 0
M  V30 13 S 1.90397 -1.4183 0.3135 0
M  V30 14 C 3.56551 -0.860192 0.295306 0
M  V30 15 N 4.02115 0.367578 0.477195 0
M  V30 16 C 5.33362 0.682541 0.432304 0
M  V30 17 N 5.814 2.00752 0.626296 0
M  V30 18 N 6.23449 -0.285457 0.192199 0
M  V30 19 C 5.82041 -1.55673 -0.000762646 0
M  V30 20 N 4.5138 -1.81381 0.0541169 0
M  V30 21 N 6.75078 -2.58771 -0.255108 0
M  V30 22 H 0.309988 1.93299 0.649642 0
M  V30 23 H 1.68682 1.40892 1.64963 0
M  V30 24 H 1.79352 1.485 -0.189108 0
M  V30 25 H 0.147009 -0.430417 1.59777 0
M  V30 26 H -2.38167 1.13648 -2.00948 0
M  V30 27 H -2.22533 -0.612435 -2.10177 0
M  V30 28 H -4.40904 -0.840678 -1.65961 0
M  V30 29 H -5.68847 0.918298 -2.21171 0
M  V30 30 H -5.04138 1.8999 -0.858367 0
M  V30 31 H -4.10108 1.82612 -2.36802 0
M  V30 32 H -5.14473 0.687255 0.643943 0
M  V30 33 H -4.98481 -1.06733 0.499417 0
M  V30 34 H -3.66909 0.256374 2.32181 0
M  V30 35 H -1.44764 0.824218 1.75502 0
M  V30 36 H -2.62015 1.79056 0.67905 0
M  V30 37 H -2.43988 -1.9602 0.584924 0
M  V30 38 H -2.00854 -1.58923 2.27172 0
M  V30 39 H -3.66491 -2.1175 1.8676 0
M  V30 40 H 6.72978 2.30108 0.215122 0
M  V30 41 H 5.28931 2.71758 1.16794 0
M  V30 42 H 7.10484 -3.1627 0.522913 0
M  V30 43 H 7.07393 -2.76601 -1.21897 0
M  V30 END ATOM
M  V30 BEGIN BOND
M  V30 1 1 1 2
M  V30 2 1 2 3
M  V30 3 2 3 4
M  V30 4 1 3 5
M  V30 5 1 5 6
M  V30 6 1 6 7
M  V30 7 1 7 8
M  V30 8 1 7 9
M  V30 9 1 9 10
M  V30 10 1 10 11
M  V30 11 1 10 12
M  V30 12 1 2 13
M  V30 13 1 13 14
M  V30 14 2 14 15
M  V30 15 1 15 16
M  V30 16 1 16 17
M  V30 17 2 16 18
M  V30 18 1 18 19
M  V30 19 2 19 20
M  V30 20 1 19 21
M  V30 21 1 11 5
M  V30 22 1 20 14
M  V30 23 1 1 22
M  V30 24 1 1 23
M  V30 25 1 1 24
M  V30 26 1 2 25
M  V30 27 1 6 26
M  V30 28 1 6 27
M  V30 29 1 7 28
M  V30 30 1 8 29
M  V30 31 1 8 30
M  V30 32 1 8 31
M  V30 33 1 9 32
M  V30 34 1 9 33
M  V30 35 1 10 34
M  V30 36 1 11 35
M  V30 37 1 11 36
M  V30 38 1 12 37
M  V30 39 1 12 38
M  V30 40 1 12 39
M  V30 41 1 17 40
M  V30 42 1 17 41
M  V30 43 1 21 42
M  V30 44 1 21 43
M  V30 END BOND
M  V30 END CTAB
M  END
