
     RDKit          3D

  0  0  0  0  0  0  0  0  0  0999 V3000
M  V30 BEGIN CTAB
M  V30 COUNTS 154 156 0 0 0
M  V30 BEGIN ATOM
M  V30 1 C -3.33805 -1.66178 -1.14389 0 CFG=1
M  V30 2 C -3.15072 -0.243134 -1.65464 0
M  V30 3 C -2.64543 0.694257 -0.552304 0 CFG=1
M  V30 4 O -3.36775 0.493154 0.615619 0
M  V30 5 C -4.2345 1.50735 0.90952 0 CFG=2
M  V30 6 O -4.00398 2.05757 2.17444 0
M  V30 7 C -4.69715 3.25821 2.28645 0 CFG=2
M  V30 8 C -4.41458 3.82025 3.66459 0
M  V30 9 C -6.19597 3.1208 2.14999 0 CFG=1
M  V30 10 O -6.67808 4.44099 2.12126 0
M  V30 11 C -6.54095 2.31141 0.96082 0 CFG=1
M  V30 12 C -5.68189 1.0439 0.967363 0 CFG=2
M  V30 13 O -5.8486 0.462934 2.22226 0
M  V30 14 N -7.90014 2.01374 0.718333 0
M  V30 15 C -8.79822 3.05155 0.435718 0
M  V30 16 C -8.44917 3.66795 -0.918037 0
M  V30 17 N -9.41192 4.72659 -1.163 0
M  V30 18 C -8.17301 0.728005 0.186382 0
M  V30 19 C -9.63251 0.403263 0.0148104 0
M  V30 20 N -10.3035 0.432347 1.3261 0
M  V30 21 C -1.19228 0.564696 -0.43556 0
M  V30 22 C -0.348341 1.31477 0.247071 0
M  V30 23 C -0.625892 2.47585 1.06883 0
M  V30 24 C -0.942489 3.68704 0.711009 0
M  V30 25 C -1.10861 4.23221 -0.622127 0
M  V30 26 C -0.337744 4.13717 -1.66454 0
M  V30 27 C 0.924402 3.49063 -1.90015 0
M  V30 28 C 2.15931 3.89967 -1.65595 0
M  V30 29 C 2.6679 5.12136 -1.07586 0
M  V30 30 C 2.87165 5.46401 0.174865 0
M  V30 31 C 2.6633 4.74234 1.40337 0
M  V30 32 C 3.00665 3.51934 1.72275 0
M  V30 33 C 3.69843 2.51404 0.955819 0
M  V30 34 C 4.96382 2.29856 0.743085 0
M  V30 35 C 6.16362 2.98505 1.20203 0 CFG=2
M  V30 36 C 5.97258 4.18875 2.06277 0
M  V30 37 C 7.07691 3.34718 0.0458747 0 CFG=1
M  V30 38 O 8.25353 3.90401 0.499917 0
M  V30 39 C 7.38046 2.22059 -0.879691 0 CFG=1
M  V30 40 C 8.26699 2.81312 -1.99012 0
M  V30 41 C 8.01569 1.01843 -0.263867 0 CFG=2
M  V30 42 C 9.47639 0.963162 -0.741266 0
M  V30 43 O 7.44511 -0.196198 -0.755037 0
M  V30 44 C 6.8685 -1.17796 -0.0153629 0
M  V30 45 O 5.66061 -1.52191 -0.268485 0
M  V30 46 C 7.55204 -1.88592 1.07852 0
M  V30 47 C 6.74269 -3.09374 1.5514 0 CFG=2
M  V30 48 O 7.14424 -3.53721 2.78929 0
M  V30 49 C 6.79401 -4.16781 0.496747 0
M  V30 50 C 6.30523 -5.50579 1.02394 0 CFG=2
M  V30 51 O 6.69477 -6.51549 0.145251 0
M  V30 52 C 4.79614 -5.42225 1.16744 0
M  V30 53 C 4.13228 -5.46181 -0.183359 0
M  V30 54 C 2.7987 -6.13759 -0.172553 0 CFG=1
M  V30 55 O 2.70899 -6.99791 0.90619 0
M  V30 56 C 1.67114 -5.10361 -0.0548457 0 CFG=2
M  V30 57 O 1.71522 -4.63434 1.26507 0
M  V30 58 C 0.329634 -5.72839 -0.2892 0
M  V30 59 C -0.375458 -5.12363 -1.47905 0 CFG=2
M  V30 60 O 0.609545 -5.09565 -2.50459 0
M  V30 61 C -0.816163 -3.72175 -1.29168 0
M  V30 62 C -2.03871 -3.4735 -0.485146 0 CFG=2
M  V30 63 O -1.68309 -3.76286 0.862365 0
M  V30 64 C -3.2244 -4.31156 -0.777994 0
M  V30 65 C -4.14998 -3.8131 -1.82496 0 CFG=2
M  V30 66 O -4.29561 -4.73744 -2.88836 0
M  V30 67 C -3.74849 -2.47649 -2.35109 0 CFG=1
M  V30 68 C -4.96421 -1.84544 -2.96006 0
M  V30 69 O -6.09674 -1.74147 -2.1767 0
M  V30 70 O -4.95593 -1.4257 -4.13993 0
M  V30 71 O -2.26667 -2.1108 -0.475555 0
M  V30 72 H -4.2231 -1.66165 -0.459984 0
M  V30 73 H -4.05714 0.155197 -2.14088 0
M  V30 74 H -2.35987 -0.297053 -2.43054 0
M  V30 75 H -2.90014 1.70071 -0.933793 0
M  V30 76 H -4.19256 2.31791 0.145644 0
M  V30 77 H -4.33799 4.00607 1.54132 0
M  V30 78 H -4.49665 3.02678 4.44068 0
M  V30 79 H -5.21318 4.56351 3.87823 0
M  V30 80 H -3.43742 4.34464 3.70497 0
M  V30 81 H -6.54519 2.67365 3.11319 0
M  V30 82 H -7.25643 4.63685 2.91835 0
M  V30 83 H -6.16604 2.88913 0.0624967 0
M  V30 84 H -5.94341 0.402917 0.12674 0
M  V30 85 H -5.4532 -0.421903 2.29788 0
M  V30 86 H -8.73419 3.86064 1.1795 0
M  V30 87 H -9.87607 2.75265 0.444771 0
M  V30 88 H -8.37472 2.93707 -1.72189 0
M  V30 89 H -7.4604 4.15393 -0.796056 0
M  V30 90 H -9.232 5.48341 -0.467014 0
M  V30 91 H -10.3699 4.37408 -1.0435 0
M  V30 92 H -7.75506 -0.108934 0.794096 0
M  V30 93 H -7.71237 0.643735 -0.819379 0
M  V30 94 H -9.74724 -0.641243 -0.347979 0
M  V30 95 H -10.1531 1.0406 -0.710198 0
M  V30 96 H -9.87488 -0.325667 1.8863 0
M  V30 97 H -11.3241 0.334534 1.22716 0
M  V30 98 H -0.740363 -0.276615 -1.00899 0
M  V30 99 H 0.74312 1.02612 0.22169 0
M  V30 100 H -0.529926 2.27841 2.17681 0
M  V30 101 H -1.12369 4.42156 1.53102 0
M  V30 102 H -2.05115 4.83571 -0.756946 0
M  V30 103 H -0.757002 4.64633 -2.59179 0
M  V30 104 H 0.809456 2.47201 -2.40553 0
M  V30 105 H 2.96591 3.18197 -1.99141 0
M  V30 106 H 2.98323 5.94424 -1.80918 0
M  V30 107 H 3.27213 6.50247 0.346509 0
M  V30 108 H 2.13505 5.33149 2.19326 0
M  V30 109 H 2.69041 3.18519 2.75081 0
M  V30 110 H 2.99626 1.75283 0.480679 0
M  V30 111 H 5.18591 1.42012 0.0610739 0
M  V30 112 H 6.82038 2.28604 1.83281 0
M  V30 113 H 6.98609 4.38991 2.53995 0
M  V30 114 H 5.31121 4.01753 2.92949 0
M  V30 115 H 5.75282 5.11158 1.48761 0
M  V30 116 H 6.54205 4.12339 -0.543395 0
M  V30 117 H 8.80872 3.29275 1.01501 0
M  V30 118 H 6.47032 1.86828 -1.44851 0
M  V30 119 H 9.27566 3.02236 -1.63212 0
M  V30 120 H 8.25228 2.12461 -2.87898 0
M  V30 121 H 7.72423 3.72597 -2.33764 0
M  V30 122 H 8.07315 1.05374 0.834836 0
M  V30 123 H 10.0966 1.73068 -0.286161 0
M  V30 124 H 9.88293 -0.0280783 -0.380563 0
M  V30 125 H 9.51173 0.89694 -1.84334 0
M  V30 126 H 8.53034 -2.24096 0.730021 0
M  V30 127 H 7.68946 -1.24157 1.97442 0
M  V30 128 H 5.68232 -2.73073 1.59904 0
M  V30 129 H 6.78797 -2.99951 3.52565 0
M  V30 130 H 7.86711 -4.28461 0.164779 0
M  V30 131 H 6.24897 -3.88632 -0.424883 0
M  V30 132 H 6.71175 -5.65088 2.04227 0
M  V30 133 H 6.06184 -7.25499 0.240962 0
M  V30 134 H 4.59825 -4.45398 1.71191 0
M  V30 135 H 4.4064 -6.27548 1.76522 0
M  V30 136 H 4.06398 -4.44816 -0.633554 0
M  V30 137 H 4.80322 -6.0486 -0.865282 0
M  V30 138 H 2.67091 -6.72713 -1.12331 0
M  V30 139 H 2.12312 -7.78403 0.723179 0
M  V30 140 H 1.84131 -4.25815 -0.73794 0
M  V30 141 H 1.30955 -5.3458 1.83129 0
M  V30 142 H -0.26068 -5.7598 0.620103 0
M  V30 143 H 0.512078 -6.8068 -0.572018 0
M  V30 144 H -1.14415 -5.81299 -1.8879 0
M  V30 145 H 0.440762 -4.36489 -3.14278 0
M  V30 146 H -0.838769 -3.24024 -2.30865 0
M  V30 147 H 0.0361144 -3.189 -0.77311 0
M  V30 148 H -2.36072 -3.37871 1.47623 0
M  V30 149 H -3.83315 -4.45101 0.166428 0
M  V30 150 H -2.92859 -5.34393 -1.05498 0
M  V30 151 H -5.20533 -3.69284 -1.43831 0
M  V30 152 H -4.52189 -5.62757 -2.55907 0
M  V30 153 H -2.96578 -2.51907 -3.13073 0
M  V30 154 H -6.11125 -1.86538 -1.18859 0
M  V30 END ATOM
M  V30 BEGIN BOND
M  V30 1 1 1 2
M  V30 2 1 2 3
M  V30 3 1 3 4
M  V30 4 1 4 5
M  V30 5 1 5 6
M  V30 6 1 6 7
M  V30 7 1 7 8
M  V30 8 1 7 9
M  V30 9 1 9 10
M  V30 10 1 9 11
M  V30 11 1 11 12
M  V30 12 1 12 13
M  V30 13 1 11 14
M  V30 14 1 14 15
M  V30 15 1 15 16
M  V30 16 1 16 17
M  V30 17 1 14 18
M  V30 18 1 18 19
M  V30 19 1 19 20
M  V30 20 1 3 21
M  V30 21 2 21 22
M  V30 22 1 22 23
M  V30 23 2 23 24
M  V30 24 1 24 25
M  V30 25 2 25 26
M  V30 26 1 26 27
M  V30 27 2 27 28
M  V30 28 1 28 29
M  V30 29 2 29 30
M  V30 30 1 30 31
M  V30 31 2 31 32
M  V30 32 1 32 33
M  V30 33 2 33 34
M  V30 34 1 34 35
M  V30 35 1 35 36
M  V30 36 1 35 37
M  V30 37 1 37 38
M  V30 38 1 37 39
M  V30 39 1 39 40
M  V30 40 1 39 41
M  V30 41 1 41 42
M  V30 42 1 41 43
M  V30 43 1 43 44
M  V30 44 2 44 45
M  V30 45 1 44 46
M  V30 46 1 46 47
M  V30 47 1 47 48
M  V30 48 1 47 49
M  V30 49 1 49 50
M  V30 50 1 50 51
M  V30 51 1 50 52
M  V30 52 1 52 53
M  V30 53 1 53 54
M  V30 54 1 54 55
M  V30 55 1 54 56
M  V30 56 1 56 57
M  V30 57 1 56 58
M  V30 58 1 58 59
M  V30 59 1 59 60
M  V30 60 1 59 61
M  V30 61 1 61 62
M  V30 62 1 62 63 CFG=1
M  V30 63 1 62 64
M  V30 64 1 64 65
M  V30 65 1 65 66
M  V30 66 1 65 67
M  V30 67 1 67 68
M  V30 68 1 68 69
M  V30 69 2 68 70
M  V30 70 1 62 71
M  V30 71 1 67 1
M  V30 72 1 71 1
M  V30 73 1 12 5
M  V30 74 1 1 72 CFG=1
M  V30 75 1 2 73
M  V30 76 1 2 74
M  V30 77 1 3 75 CFG=3
M  V30 78 1 5 76 CFG=3
M  V30 79 1 7 77 CFG=3
M  V30 80 1 8 78
M  V30 81 1 8 79
M  V30 82 1 8 80
M  V30 83 1 9 81 CFG=1
M  V30 84 1 10 82
M  V30 85 1 11 83 CFG=3
M  V30 86 1 12 84 CFG=3
M  V30 87 1 13 85
M  V30 88 1 15 86
M  V30 89 1 15 87
M  V30 90 1 16 88
M  V30 91 1 16 89
M  V30 92 1 17 90
M  V30 93 1 17 91
M  V30 94 1 18 92
M  V30 95 1 18 93
M  V30 96 1 19 94
M  V30 97 1 19 95
M  V30 98 1 20 96
M  V30 99 1 20 97
M  V30 100 1 21 98
M  V30 101 1 22 99
M  V30 102 1 23 100
M  V30 103 1 24 101
M  V30 104 1 25 102
M  V30 105 1 26 103
M  V30 106 1 27 104
M  V30 107 1 28 105
M  V30 108 1 29 106
M  V30 109 1 30 107
M  V30 110 1 31 108
M  V30 111 1 32 109
M  V30 112 1 33 110
M  V30 113 1 34 111
M  V30 114 1 35 112 CFG=1
M  V30 115 1 36 113
M  V30 116 1 36 114
M  V30 117 1 36 115
M  V30 118 1 37 116 CFG=3
M  V30 119 1 38 117
M  V30 120 1 39 118 CFG=3
M  V30 121 1 40 119
M  V30 122 1 40 120
M  V30 123 1 40 121
M  V30 124 1 41 122 CFG=1
M  V30 125 1 42 123
M  V30 126 1 42 124
M  V30 127 1 42 125
M  V30 128 1 46 126
M  V30 129 1 46 127
M  V30 130 1 47 128 CFG=1
M  V30 131 1 48 129
M  V30 132 1 49 130
M  V30 133 1 49 131
M  V30 134 1 50 132 CFG=1
M  V30 135 1 51 133
M  V30 136 1 52 134
M  V30 137 1 52 135
M  V30 138 1 53 136
M  V30 139 1 53 137
M  V30 140 1 54 138 CFG=3
M  V30 141 1 55 139
M  V30 142 1 56 140 CFG=3
M  V30 143 1 57 141
M  V30 144 1 58 142
M  V30 145 1 58 143
M  V30 146 1 59 144 CFG=3
M  V30 147 1 60 145
M  V30 148 1 61 146
M  V30 149 1 61 147
M  V30 150 1 63 148
M  V30 151 1 64 149
M  V30 152 1 64 150
M  V30 153 1 65 151 CFG=1
M  V30 154 1 66 152
M  V30 155 1 67 153 CFG=3
M  V30 156 1 69 154
M  V30 END BOND
M  V30 END CTAB
M  END
