
     RDKit          3D

  0  0  0  0  0  0  0  0  0  0999 V3000
M  V30 BEGIN CTAB
M  V30 COUNTS 30 31 0 0 0
M  V30 BEGIN ATOM
M  V30 1 N -3.01452 -1.03482 -1.44057 0
M  V30 2 C -2.73955 -0.606239 -0.112024 0 CFG=1
M  V30 3 C -1.93831 -1.68938 0.545555 0
M  V30 4 C -0.601599 -1.64596 0.499502 0
M  V30 5 C -0.0473747 -0.488924 -0.223306 0 CFG=1
M  V30 6 O -0.701573 0.635328 0.266815 0
M  V30 7 C -2.01416 0.715361 -0.106631 0 CFG=2
M  V30 8 C -2.73563 1.62768 0.807521 0
M  V30 9 O -4.08579 1.90464 0.67413 0
M  V30 10 O -2.11981 2.18235 1.74637 0
M  V30 11 N 1.34892 -0.294415 -0.132058 0
M  V30 12 C 1.78846 0.938638 0.194348 0
M  V30 13 C 3.12296 1.23666 0.308493 0
M  V30 14 C 3.9936 0.184513 0.0657459 0
M  V30 15 N 5.38442 0.432211 0.168718 0
M  V30 16 N 3.52599 -1.04372 -0.26025 0
M  V30 17 C 2.22448 -1.3026 -0.363519 0
M  V30 18 O 1.7433 -2.41703 -0.661117 0
M  V30 19 H -3.2631 -0.358745 -2.12177 0
M  V30 20 H -3.25157 -1.9829 -1.55826 0
M  V30 21 H -3.70502 -0.539863 0.422593 0
M  V30 22 H -2.45948 -2.49209 1.04868 0
M  V30 23 H -0.0845894 -2.4389 0.982661 0
M  V30 24 H -0.352349 -0.559121 -1.30765 0
M  V30 25 H -2.03031 1.15879 -1.1455 0
M  V30 26 H -4.41959 2.84878 0.638215 0
M  V30 27 H 1.091 1.76971 0.385809 0
M  V30 28 H 3.50698 2.2042 0.565728 0
M  V30 29 H 5.87341 0.438217 1.08021 0
M  V30 30 H 5.96081 0.617631 -0.682289 0
M  V30 END ATOM
M  V30 BEGIN BOND
M  V30 1 1 1 2
M  V30 2 1 2 3
M  V30 3 2 3 4
M  V30 4 1 4 5
M  V30 5 1 5 6
M  V30 6 1 6 7
M  V30 7 1 7 8
M  V30 8 1 8 9
M  V30 9 2 8 10
M  V30 10 1 5 11
M  V30 11 1 11 12
M  V30 12 2 12 13
M  V30 13 1 13 14
M  V30 14 1 14 15
M  V30 15 2 14 16
M  V30 16 1 16 17
M  V30 17 2 17 18
M  V30 18 1 7 2
M  V30 19 1 17 11
M  V30 20 1 1 19
M  V30 21 1 1 20
M  V30 22 1 2 21 CFG=1
M  V30 23 1 3 22
M  V30 24 1 4 23
M  V30 25 1 5 24 CFG=3
M  V30 26 1 7 25 CFG=3
M  V30 27 1 9 26
M  V30 28 1 12 27
M  V30 29 1 13 28
M  V30 30 1 15 29
M  V30 31 1 15 30
M  V30 END BOND
M  V30 END CTAB
M  END
