
     RDKit          3D

  0  0  0  0  0  0  0  0  0  0999 V3000
M  V30 BEGIN CTAB
M  V30 COUNTS 27 28 0 0 0
M  V30 BEGIN ATOM
M  V30 1 N 4.68096 -0.529088 0.75851 0
M  V30 2 N 3.93856 -0.373699 -0.416416 0
M  V30 3 C 2.5137 -0.339833 -0.261326 0
M  V30 4 N 1.84712 0.766228 0.0116254 0
M  V30 5 C 0.521372 0.826776 0.164481 0
M  V30 6 N -0.00576778 2.12483 0.494921 0
M  V30 7 N 0.447335 3.24853 -0.191707 0
M  V30 8 C -0.286962 -0.31427 0.0402711 0
M  V30 9 C 0.439561 -1.44722 -0.241157 0
M  V30 10 N 1.77739 -1.46397 -0.386266 0
M  V30 11 S -0.74375 -2.66039 -0.334019 0
M  V30 12 C -2.12848 -1.72386 -0.0232565 0
M  V30 13 C -1.62028 -0.457546 0.149642 0
M  V30 14 C -2.62175 0.655953 0.399624 0
M  V30 15 C -3.53724 -2.22447 0.0530595 0
M  V30 16 H 5.36415 0.23332 0.931854 0
M  V30 17 H 5.14007 -1.44994 0.773622 0
M  V30 18 H 4.38016 -0.290786 -1.33765 0
M  V30 19 H -0.705436 2.18357 1.25317 0
M  V30 20 H -0.32614 3.91722 -0.402853 0
M  V30 21 H 1.2375 3.71647 0.314495 0
M  V30 22 H -3.64385 0.355438 0.085415 0
M  V30 23 H -2.6486 0.823313 1.48154 0
M  V30 24 H -2.39779 1.54992 -0.219614 0
M  V30 25 H -3.97159 -2.41506 -0.946428 0
M  V30 26 H -3.50014 -3.21348 0.561105 0
M  V30 27 H -4.15006 -1.49794 0.602952 0
M  V30 END ATOM
M  V30 BEGIN BOND
M  V30 1 1 1 2
M  V30 2 1 2 3
M  V30 3 2 3 4
M  V30 4 1 4 5
M  V30 5 1 5 6
M  V30 6 1 6 7
M  V30 7 2 5 8
M  V30 8 1 8 9
M  V30 9 2 9 10
M  V30 10 1 9 11
M  V30 11 1 11 12
M  V30 12 2 12 13
M  V30 13 1 13 14
M  V30 14 1 12 15
M  V30 15 1 10 3
M  V30 16 1 13 8
M  V30 17 1 1 16
M  V30 18 1 1 17
M  V30 19 1 2 18
M  V30 20 1 6 19
M  V30 21 1 7 20
M  V30 22 1 7 21
M  V30 23 1 14 22
M  V30 24 1 14 23
M  V30 25 1 14 24
M  V30 26 1 15 25
M  V30 27 1 15 26
M  V30 28 1 15 27
M  V30 END BOND
M  V30 END CTAB
M  END
