
     RDKit          3D

  0  0  0  0  0  0  0  0  0  0999 V3000
M  V30 BEGIN CTAB
M  V30 COUNTS 38 40 0 0 0
M  V30 BEGIN ATOM
M  V30 1 N -2.6471 -2.31887 -0.628975 0
M  V30 2 C -1.45876 -1.56136 -0.539163 0 CFG=2
M  V30 3 C -0.238521 -2.36777 -0.136352 0
M  V30 4 N 0.717438 -1.29162 0.102809 0
M  V30 5 C 0.00196889 -0.13821 0.579647 0
M  V30 6 C -1.47224 -0.542253 0.581711 0 CFG=1
M  V30 7 C -2.37382 0.574042 0.358407 0
M  V30 8 C -3.36429 0.87283 1.27618 0
M  V30 9 C -4.22295 1.92927 1.07197 0
M  V30 10 C -4.09512 2.70358 -0.0656988 0
M  V30 11 C -3.09643 2.38813 -0.973314 0
M  V30 12 C -2.2522 1.34116 -0.762146 0
M  V30 13 C 2.10949 -1.40771 -0.112638 0
M  V30 14 O 2.61077 -2.49113 -0.540401 0
M  V30 15 C 2.98236 -0.292552 0.151769 0
M  V30 16 N 2.56948 0.903308 0.607973 0
M  V30 17 C 3.40665 1.90327 0.838947 0
M  V30 18 C 4.75906 1.73378 0.609601 0
M  V30 19 N 5.18279 0.556627 0.158329 0
M  V30 20 C 4.34404 -0.457128 -0.0771 0
M  V30 21 N 4.83675 -1.69916 -0.559098 0
M  V30 22 H -3.29009 -2.10926 0.122035 0
M  V30 23 H -3.02765 -2.26578 -1.58618 0
M  V30 24 H -1.17417 -1.07792 -1.51664 0
M  V30 25 H 0.0654769 -3.02839 -0.94836 0
M  V30 26 H -0.484128 -2.90426 0.802764 0
M  V30 27 H 0.110005 0.764999 -0.0591705 0
M  V30 28 H 0.348236 0.0982918 1.59596 0
M  V30 29 H -1.67262 -1.07827 1.51525 0
M  V30 30 H -3.5005 0.287514 2.1878 0
M  V30 31 H -5.00661 2.17918 1.78116 0
M  V30 32 H -4.77997 3.53442 -0.213792 0
M  V30 33 H -3.0183 3.00989 -1.85484 0
M  V30 34 H -1.49091 1.16164 -1.5304 0
M  V30 35 H 3.10729 2.88121 1.20714 0
M  V30 36 H 5.4746 2.52999 0.787276 0
M  V30 37 H 4.99459 -1.84838 -1.57403 0
M  V30 38 H 5.04542 -2.4731 0.0947527 0
M  V30 END ATOM
M  V30 BEGIN BOND
M  V30 1 1 1 2
M  V30 2 1 2 3
M  V30 3 1 3 4
M  V30 4 1 4 5
M  V30 5 1 5 6
M  V30 6 1 6 7
M  V30 7 2 7 8
M  V30 8 1 8 9
M  V30 9 2 9 10
M  V30 10 1 10 11
M  V30 11 2 11 12
M  V30 12 1 4 13
M  V30 13 2 13 14
M  V30 14 1 13 15
M  V30 15 2 15 16
M  V30 16 1 16 17
M  V30 17 2 17 18
M  V30 18 1 18 19
M  V30 19 2 19 20
M  V30 20 1 20 21
M  V30 21 1 6 2
M  V30 22 1 12 7
M  V30 23 1 20 15
M  V30 24 1 1 22
M  V30 25 1 1 23
M  V30 26 1 2 24 CFG=3
M  V30 27 1 3 25
M  V30 28 1 3 26
M  V30 29 1 5 27
M  V30 30 1 5 28
M  V30 31 1 6 29 CFG=1
M  V30 32 1 8 30
M  V30 33 1 9 31
M  V30 34 1 10 32
M  V30 35 1 11 33
M  V30 36 1 12 34
M  V30 37 1 17 35
M  V30 38 1 18 36
M  V30 39 1 21 37
M  V30 40 1 21 38
M  V30 END BOND
M  V30 END CTAB
M  END
