
     RDKit          3D

  0  0  0  0  0  0  0  0  0  0999 V3000
M  V30 BEGIN CTAB
M  V30 COUNTS 45 47 0 0 0
M  V30 BEGIN ATOM
M  V30 1 N -6.85103 0.944758 -1.52753 0
M  V30 2 C -6.36233 0.305971 -0.341737 0
M  V30 3 C -5.30896 1.09588 0.431106 0
M  V30 4 C -4.65621 -0.251903 0.710815 0
M  V30 5 C -5.26771 -0.719462 -0.594655 0
M  V30 6 C -3.18049 -0.221501 0.733141 0
M  V30 7 C -2.42141 0.428784 -0.203993 0
M  V30 8 C -1.04546 0.38703 -0.0784172 0
M  V30 9 N -0.232817 1.06393 -1.02041 0
M  V30 10 C 1.21168 1.00616 -0.929354 0
M  V30 11 C 1.70671 -0.378085 -1.25015 0
M  V30 12 N 3.16057 -0.400252 -1.16731 0
M  V30 13 C 3.90134 -0.144317 0.00504011 0
M  V30 14 O 3.30881 0.121081 1.09853 0
M  V30 15 C 5.35698 -0.186866 -0.0444873 0
M  V30 16 C 6.06152 -0.20378 1.15419 0
M  V30 17 C 7.42098 -0.237358 1.13299 0
M  V30 18 C 8.07467 -0.253989 -0.0810993 0
M  V30 19 N 7.38741 -0.237389 -1.21596 0
M  V30 20 C 6.03102 -0.203812 -1.23101 0
M  V30 21 N -0.498566 -0.279077 0.942318 0
M  V30 22 C -1.21886 -0.923945 1.87314 0
M  V30 23 N -2.55126 -0.869084 1.72997 0
M  V30 24 N -0.569875 -1.6071 2.92409 0
M  V30 25 H -7.81304 1.29114 -1.33001 0
M  V30 26 H -6.20216 1.70945 -1.81126 0
M  V30 27 H -7.17185 -0.0546159 0.348413 0
M  V30 28 H -4.68124 1.64974 -0.289431 0
M  V30 29 H -5.6727 1.63506 1.29912 0
M  V30 30 H -5.08751 -0.821235 1.54207 0
M  V30 31 H -5.65714 -1.75292 -0.555073 0
M  V30 32 H -4.71723 -0.442726 -1.50592 0
M  V30 33 H -2.87897 0.947392 -1.00015 0
M  V30 34 H -0.642576 1.62396 -1.80786 0
M  V30 35 H 1.55364 1.29856 0.0706062 0
M  V30 36 H 1.67539 1.75897 -1.62829 0
M  V30 37 H 1.36814 -0.656398 -2.29321 0
M  V30 38 H 1.31389 -1.15557 -0.545929 0
M  V30 39 H 3.63314 -0.634235 -2.08249 0
M  V30 40 H 5.479 -0.189016 2.08836 0
M  V30 41 H 7.98544 -0.25094 2.05391 0
M  V30 42 H 9.1729 -0.281182 -0.0570747 0
M  V30 43 H 5.54119 -0.18823 -2.17926 0
M  V30 44 H -0.34546 -1.11982 3.80895 0
M  V30 45 H -0.309565 -2.60306 2.82532 0
M  V30 END ATOM
M  V30 BEGIN BOND
M  V30 1 1 1 2
M  V30 2 1 2 3
M  V30 3 1 3 4
M  V30 4 1 4 5
M  V30 5 1 4 6
M  V30 6 2 6 7
M  V30 7 1 7 8
M  V30 8 1 8 9
M  V30 9 1 9 10
M  V30 10 1 10 11
M  V30 11 1 11 12
M  V30 12 1 12 13
M  V30 13 2 13 14
M  V30 14 1 13 15
M  V30 15 2 15 16
M  V30 16 1 16 17
M  V30 17 2 17 18
M  V30 18 1 18 19
M  V30 19 2 19 20
M  V30 20 2 8 21
M  V30 21 1 21 22
M  V30 22 2 22 23
M  V30 23 1 22 24
M  V30 24 1 5 2
M  V30 25 1 23 6
M  V30 26 1 20 15
M  V30 27 1 1 25
M  V30 28 1 1 26
M  V30 29 1 2 27
M  V30 30 1 3 28
M  V30 31 1 3 29
M  V30 32 1 4 30
M  V30 33 1 5 31
M  V30 34 1 5 32
M  V30 35 1 7 33
M  V30 36 1 9 34
M  V30 37 1 10 35
M  V30 38 1 10 36
M  V30 39 1 11 37
M  V30 40 1 11 38
M  V30 41 1 12 39
M  V30 42 1 16 40
M  V30 43 1 17 41
M  V30 44 1 18 42
M  V30 45 1 20 43
M  V30 46 1 24 44
M  V30 47 1 24 45
M  V30 END BOND
M  V30 END CTAB
M  END
