
     RDKit          3D

  0  0  0  0  0  0  0  0  0  0999 V3000
M  V30 BEGIN CTAB
M  V30 COUNTS 32 34 0 0 0
M  V30 BEGIN ATOM
M  V30 1 N 3.50158 2.61162 0.0609047 0
M  V30 2 C 2.52828 1.59409 -0.101763 0
M  V30 3 C 1.30048 1.81777 -0.661217 0
M  V30 4 N 0.44297 0.797512 -0.775448 0
M  V30 5 C 0.663713 -0.460746 -0.388602 0
M  V30 6 C 1.91104 -0.729532 0.189543 0
M  V30 7 C 2.82411 0.290742 0.326694 0
M  V30 8 N 4.08188 0.0247166 0.908468 0
M  V30 9 C 2.22474 -1.99877 0.618125 0
M  V30 10 Cl 3.7788 -2.40657 1.35559 0
M  V30 11 C 1.27228 -2.99866 0.460678 0
M  V30 12 C 0.0549586 -2.72845 -0.105423 0
M  V30 13 C -0.276648 -1.43961 -0.546053 0
M  V30 14 O -1.5017 -1.25143 -1.09587 0
M  V30 15 C -2.52761 -0.428257 -0.714601 0
M  V30 16 C -2.79 0.788005 -1.30152 0
M  V30 17 C -3.82655 1.60067 -0.89942 0
M  V30 18 C -4.643 1.18716 0.134468 0
M  V30 19 C -4.41165 -0.0313775 0.75068 0
M  V30 20 C -3.37045 -0.816738 0.326133 0
M  V30 21 H 4.123 2.58499 0.891117 0
M  V30 22 H 3.62129 3.38968 -0.620327 0
M  V30 23 H 1.01708 2.82811 -1.01565 0
M  V30 24 H 4.87644 -0.255635 0.317787 0
M  V30 25 H 4.19542 0.12546 1.92776 0
M  V30 26 H 1.55429 -3.99379 0.8116 0
M  V30 27 H -0.669079 -3.51539 -0.218768 0
M  V30 28 H -2.17949 1.15193 -2.13163 0
M  V30 29 H -4.03943 2.56114 -1.35702 0
M  V30 30 H -5.46893 1.80308 0.476388 0
M  V30 31 H -5.07999 -0.313604 1.55838 0
M  V30 32 H -3.18784 -1.78809 0.818999 0
M  V30 END ATOM
M  V30 BEGIN BOND
M  V30 1 1 1 2
M  V30 2 2 2 3
M  V30 3 1 3 4
M  V30 4 2 4 5
M  V30 5 1 5 6
M  V30 6 2 6 7
M  V30 7 1 7 8
M  V30 8 1 6 9
M  V30 9 1 9 10
M  V30 10 2 9 11
M  V30 11 1 11 12
M  V30 12 2 12 13
M  V30 13 1 13 14
M  V30 14 1 14 15
M  V30 15 2 15 16
M  V30 16 1 16 17
M  V30 17 2 17 18
M  V30 18 1 18 19
M  V30 19 2 19 20
M  V30 20 1 7 2
M  V30 21 1 20 15
M  V30 22 1 13 5
M  V30 23 1 1 21
M  V30 24 1 1 22
M  V30 25 1 3 23
M  V30 26 1 8 24
M  V30 27 1 8 25
M  V30 28 1 11 26
M  V30 29 1 12 27
M  V30 30 1 16 28
M  V30 31 1 17 29
M  V30 32 1 18 30
M  V30 33 1 19 31
M  V30 34 1 20 32
M  V30 END BOND
M  V30 END CTAB
M  END
