
     RDKit          3D

  0  0  0  0  0  0  0  0  0  0999 V3000
M  V30 BEGIN CTAB
M  V30 COUNTS 36 38 0 0 0
M  V30 BEGIN ATOM
M  V30 1 N 3.84318 2.82588 -1.50684 0
M  V30 2 N 3.57321 1.56331 -1.99744 0
M  V30 3 C 3.10407 0.527328 -1.15022 0
M  V30 4 N 1.80181 0.238449 -0.968245 0
M  V30 5 C 1.38621 -0.752729 -0.154902 0
M  V30 6 C 2.32736 -1.51827 0.532286 0
M  V30 7 N 1.65298 -2.41127 1.25074 0
M  V30 8 C 0.345104 -2.22813 1.03555 0
M  V30 9 N 0.159177 -1.20033 0.162701 0
M  V30 10 C -1.09887 -0.707226 -0.31611 0 CFG=2
M  V30 11 O -1.13152 0.67334 -0.525717 0
M  V30 12 C -2.52581 0.851713 -0.714169 0 CFG=2
M  V30 13 C -2.88589 2.29826 -0.910752 0
M  V30 14 O -4.24167 2.48693 -1.10379 0
M  V30 15 C -3.01466 0.29502 0.608455 0 CFG=1
M  V30 16 O -4.38267 0.0993307 0.658643 0
M  V30 17 C -2.24279 -1.01397 0.62884 0 CFG=1
M  V30 18 O -3.02908 -2.07418 0.182868 0
M  V30 19 C 3.67046 -1.23197 0.354401 0
M  V30 20 N 4.60356 -2.03149 1.06518 0
M  V30 21 N 3.99376 -0.24313 -0.461294 0
M  V30 22 H 3.99681 2.89322 -0.485437 0
M  V30 23 H 3.2279 3.58107 -1.84535 0
M  V30 24 H 3.71259 1.36459 -3.00219 0
M  V30 25 H -0.510204 -2.77768 1.45703 0
M  V30 26 H -1.38665 -1.16319 -1.30032 0
M  V30 27 H -2.90582 0.19052 -1.50882 0
M  V30 28 H -2.44954 2.91667 -0.110502 0
M  V30 29 H -2.38916 2.6149 -1.86875 0
M  V30 30 H -4.75526 2.35658 -0.255799 0
M  V30 31 H -2.70366 0.976439 1.42209 0
M  V30 32 H -4.6666 -0.635214 0.0589687 0
M  V30 33 H -1.89972 -1.26421 1.64982 0
M  V30 34 H -3.09687 -2.79921 0.881141 0
M  V30 35 H 5.04496 -2.82734 0.559521 0
M  V30 36 H 4.87331 -1.87402 2.05441 0
M  V30 END ATOM
M  V30 BEGIN BOND
M  V30 1 1 1 2
M  V30 2 1 2 3
M  V30 3 2 3 4
M  V30 4 1 4 5
M  V30 5 2 5 6
M  V30 6 1 6 7
M  V30 7 2 7 8
M  V30 8 1 8 9
M  V30 9 1 9 10
M  V30 10 1 10 11
M  V30 11 1 11 12
M  V30 12 1 12 13
M  V30 13 1 13 14
M  V30 14 1 12 15
M  V30 15 1 15 16
M  V30 16 1 15 17
M  V30 17 1 17 18
M  V30 18 1 6 19
M  V30 19 1 19 20
M  V30 20 2 19 21
M  V30 21 1 21 3
M  V30 22 1 9 5
M  V30 23 1 17 10
M  V30 24 1 1 22
M  V30 25 1 1 23
M  V30 26 1 2 24
M  V30 27 1 8 25
M  V30 28 1 10 26 CFG=3
M  V30 29 1 12 27 CFG=3
M  V30 30 1 13 28
M  V30 31 1 13 29
M  V30 32 1 14 30
M  V30 33 1 15 31 CFG=1
M  V30 34 1 16 32
M  V30 35 1 17 33 CFG=1
M  V30 36 1 18 34
M  V30 37 1 20 35
M  V30 38 1 20 36
M  V30 END BOND
M  V30 END CTAB
M  END
