
     RDKit          3D

  0  0  0  0  0  0  0  0  0  0999 V3000
M  V30 BEGIN CTAB
M  V30 COUNTS 33 35 0 0 0
M  V30 BEGIN ATOM
M  V30 1 N -3.95686 -2.37374 -0.829331 0
M  V30 2 C -3.44139 -1.12144 -0.394501 0
M  V30 3 C -2.2445 -1.04665 0.325342 0
M  V30 4 C -1.75787 0.175721 0.739951 0
M  V30 5 O -0.567921 0.176585 1.44811 0
M  V30 6 C 0.679612 0.277249 0.86535 0
M  V30 7 C 1.2366 1.52067 0.669657 0
M  V30 8 C 2.47575 1.70076 0.0951267 0
M  V30 9 C 3.18208 0.557183 -0.299421 0
M  V30 10 C 2.65968 -0.689809 -0.120228 0
M  V30 11 C 1.41242 -0.817585 0.460941 0
M  V30 12 C 3.37695 -1.80041 -0.51816 0
M  V30 13 C 4.61823 -1.63952 -1.09473 0
M  V30 14 C 5.17576 -0.389187 -1.2903 0
M  V30 15 C 4.43298 0.682376 -0.882441 0
M  V30 16 C -2.471 1.31493 0.432153 0
M  V30 17 C -3.66139 1.28094 -0.279649 0
M  V30 18 C -4.11385 0.0388108 -0.675946 0
M  V30 19 N -4.38554 2.4656 -0.589362 0
M  V30 20 H -3.51253 -2.80945 -1.67625 0
M  V30 21 H -4.74273 -2.8177 -0.310752 0
M  V30 22 H -1.72492 -1.98418 0.538605 0
M  V30 23 H 0.670235 2.38348 0.983106 0
M  V30 24 H 2.9331 2.65237 -0.0692948 0
M  V30 25 H 1.01959 -1.81301 0.592589 0
M  V30 26 H 2.95213 -2.80612 -0.371988 0
M  V30 27 H 5.1736 -2.53298 -1.40465 0
M  V30 28 H 6.15096 -0.328195 -1.7468 0
M  V30 29 H 4.86036 1.6729 -1.03064 0
M  V30 30 H -2.09792 2.27024 0.75187 0
M  V30 31 H -5.038 -0.0134585 -1.2312 0
M  V30 32 H -5.10136 2.46302 -1.32 0
M  V30 33 H -4.19228 3.3506 -0.0722415 0
M  V30 END ATOM
M  V30 BEGIN BOND
M  V30 1 1 1 2
M  V30 2 2 2 3
M  V30 3 1 3 4
M  V30 4 1 4 5
M  V30 5 1 5 6
M  V30 6 2 6 7
M  V30 7 1 7 8
M  V30 8 2 8 9
M  V30 9 1 9 10
M  V30 10 2 10 11
M  V30 11 1 10 12
M  V30 12 2 12 13
M  V30 13 1 13 14
M  V30 14 2 14 15
M  V30 15 2 4 16
M  V30 16 1 16 17
M  V30 17 2 17 18
M  V30 18 1 17 19
M  V30 19 1 18 2
M  V30 20 1 11 6
M  V30 21 1 15 9
M  V30 22 1 1 20
M  V30 23 1 1 21
M  V30 24 1 3 22
M  V30 25 1 7 23
M  V30 26 1 8 24
M  V30 27 1 11 25
M  V30 28 1 12 26
M  V30 29 1 13 27
M  V30 30 1 14 28
M  V30 31 1 15 29
M  V30 32 1 16 30
M  V30 33 1 18 31
M  V30 34 1 19 32
M  V30 35 1 19 33
M  V30 END BOND
M  V30 END CTAB
M  END
