
     RDKit          3D

  0  0  0  0  0  0  0  0  0  0999 V3000
M  V30 BEGIN CTAB
M  V30 COUNTS 26 26 0 0 0
M  V30 BEGIN ATOM
M  V30 1 O -0.291645 1.68123 -1.70704 0
M  V30 2 C -0.604951 1.66215 -0.34209 0
M  V30 3 C -0.418426 0.249411 0.223534 0
M  V30 4 C 1.00102 -0.077964 0.105084 0
M  V30 5 C 1.8052 -0.0141664 1.21936 0
M  V30 6 C 3.15342 -0.302703 1.21329 0
M  V30 7 C 3.7206 -0.676777 0.0132925 0
M  V30 8 C 2.95557 -0.757746 -1.14282 0
M  V30 9 C 1.61303 -0.457391 -1.07501 0
M  V30 10 N -1.2811 -0.686873 -0.461263 0
M  V30 11 C -2.53192 -0.71392 -0.17381 0
M  V30 12 N -3.11848 0.13755 0.792586 0
M  V30 13 N -3.36279 -1.6371 -0.853982 0
M  V30 14 H -0.731944 2.40089 -2.18719 0
M  V30 15 H 0.0926297 2.37165 0.141533 0
M  V30 16 H -1.63478 2.03574 -0.164712 0
M  V30 17 H -0.687631 0.323149 1.29546 0
M  V30 18 H 1.37301 0.28151 2.18405 0
M  V30 19 H 3.74296 -0.233516 2.13635 0
M  V30 20 H 4.78326 -0.90651 -0.00248962 0
M  V30 21 H 3.44352 -1.05308 -2.04965 0
M  V30 22 H 1.0052 -0.514331 -1.95865 0
M  V30 23 H -3.95898 0.741108 0.60064 0
M  V30 24 H -2.69373 0.167088 1.74514 0
M  V30 25 H -3.03255 -2.60699 -1.10527 0
M  V30 26 H -4.3405 -1.4124 -1.14279 0
M  V30 END ATOM
M  V30 BEGIN BOND
M  V30 1 1 1 2
M  V30 2 1 2 3
M  V30 3 1 3 4
M  V30 4 2 4 5
M  V30 5 1 5 6
M  V30 6 2 6 7
M  V30 7 1 7 8
M  V30 8 2 8 9
M  V30 9 1 3 10
M  V30 10 2 10 11 CFG=2
M  V30 11 1 11 12
M  V30 12 1 11 13
M  V30 13 1 9 4
M  V30 14 1 1 14
M  V30 15 1 2 15
M  V30 16 1 2 16
M  V30 17 1 3 17
M  V30 18 1 5 18
M  V30 19 1 6 19
M  V30 20 1 7 20
M  V30 21 1 8 21
M  V30 22 1 9 22
M  V30 23 1 12 23
M  V30 24 1 12 24
M  V30 25 1 13 25
M  V30 26 1 13 26
M  V30 END BOND
M  V30 END CTAB
M  END
