
     RDKit          3D

  0  0  0  0  0  0  0  0  0  0999 V3000
M  V30 BEGIN CTAB
M  V30 COUNTS 28 28 0 0 0
M  V30 BEGIN ATOM
M  V30 1 N -2.21849 -1.76551 -0.576291 0
M  V30 2 C -2.57708 -0.386132 -0.60205 0
M  V30 3 C -1.97181 0.414343 0.526979 0
M  V30 4 C -0.503187 0.396317 0.530104 0
M  V30 5 C 0.235337 1.34335 -0.153194 0
M  V30 6 C 1.62598 1.32258 -0.147573 0
M  V30 7 C 2.3204 0.356437 0.539889 0
M  V30 8 C 1.59236 -0.596745 1.22752 0
M  V30 9 C 0.211086 -0.568971 1.21681 0
M  V30 10 S 4.08006 0.312116 0.559944 0
M  V30 11 N 4.6278 -0.641387 -0.745301 0
M  V30 12 O 4.48371 -0.384875 1.8466 0
M  V30 13 O 4.61532 1.70634 0.529162 0
M  V30 14 C -4.03906 -0.244982 -0.516795 0
M  V30 15 O -4.60139 1.00999 -0.525847 0
M  V30 16 O -4.7642 -1.25202 -0.43698 0
M  V30 17 H -2.08234 -2.15756 0.377865 0
M  V30 18 H -2.97166 -2.36743 -1.01785 0
M  V30 19 H -2.21585 0.043713 -1.57157 0
M  V30 20 H -2.41046 -0.00278449 1.47136 0
M  V30 21 H -2.37921 1.44605 0.440791 0
M  V30 22 H -0.296643 2.11375 -0.701522 0
M  V30 23 H 2.21175 2.06394 -0.682524 0
M  V30 24 H 2.16167 -1.34911 1.76268 0
M  V30 25 H -0.291044 -1.33887 1.77165 0
M  V30 26 H 5.68488 -0.638826 -0.75629 0
M  V30 27 H 4.23628 -0.29896 -1.65783 0
M  V30 28 H -4.76422 1.46524 0.365836 0
M  V30 END ATOM
M  V30 BEGIN BOND
M  V30 1 1 1 2
M  V30 2 1 2 3
M  V30 3 1 3 4
M  V30 4 2 4 5
M  V30 5 1 5 6
M  V30 6 2 6 7
M  V30 7 1 7 8
M  V30 8 2 8 9
M  V30 9 1 7 10
M  V30 10 1 10 11
M  V30 11 2 10 12
M  V30 12 2 10 13
M  V30 13 1 2 14
M  V30 14 1 14 15
M  V30 15 2 14 16
M  V30 16 1 9 4
M  V30 17 1 1 17
M  V30 18 1 1 18
M  V30 19 1 2 19
M  V30 20 1 3 20
M  V30 21 1 3 21
M  V30 22 1 5 22
M  V30 23 1 6 23
M  V30 24 1 8 24
M  V30 25 1 9 25
M  V30 26 1 11 26
M  V30 27 1 11 27
M  V30 28 1 15 28
M  V30 END BOND
M  V30 END CTAB
M  END
