
     RDKit          3D

  0  0  0  0  0  0  0  0  0  0999 V3000
M  V30 BEGIN CTAB
M  V30 COUNTS 27 28 0 0 0
M  V30 BEGIN ATOM
M  V30 1 N -3.42558 -0.939202 0.226088 0
M  V30 2 C -2.5748 -0.0468454 -0.482023 0
M  V30 3 C -1.21924 0.143107 0.0446913 0
M  V30 4 C -0.893909 1.48512 0.344545 0
M  V30 5 N -1.98758 2.36504 0.546799 0
M  V30 6 N 0.363708 1.87787 0.480292 0
M  V30 7 C 1.39924 1.02269 0.345023 0
M  V30 8 C 1.12613 -0.266401 0.0701496 0
M  V30 9 C -0.175422 -0.73876 -0.0772764 0
M  V30 10 C -0.425153 -2.17729 -0.330362 0
M  V30 11 C 2.24426 -1.12073 -0.20573 0
M  V30 12 C 3.53719 -0.596275 -0.195337 0
M  V30 13 C 3.78952 0.730921 0.0930267 0
M  V30 14 C 2.70447 1.51838 0.364641 0
M  V30 15 Br 5.58933 1.42836 0.0898909 0
M  V30 16 H -4.46375 -0.779584 -0.0788377 0
M  V30 17 H -3.48258 -0.610602 1.27499 0
M  V30 18 H -2.99678 0.789363 -1.05784 0
M  V30 19 H -2.30907 -0.745469 -1.48457 0
M  V30 20 H -2.13869 3.19986 -0.00108684 0
M  V30 21 H -2.69086 2.07966 1.28289 0
M  V30 22 H 0.1732 -2.77264 0.455512 0
M  V30 23 H -1.43465 -2.51256 -0.182152 0
M  V30 24 H 0.0517274 -2.52035 -1.26395 0
M  V30 25 H 1.99102 -2.15429 -0.432019 0
M  V30 26 H 4.39101 -1.22211 -0.470502 0
M  V30 27 H 2.85726 2.56273 0.643161 0
M  V30 END ATOM
M  V30 BEGIN BOND
M  V30 1 1 1 2
M  V30 2 1 2 3
M  V30 3 2 3 4
M  V30 4 1 4 5
M  V30 5 1 4 6
M  V30 6 2 6 7
M  V30 7 1 7 8
M  V30 8 2 8 9
M  V30 9 1 9 10
M  V30 10 1 8 11
M  V30 11 2 11 12
M  V30 12 1 12 13
M  V30 13 2 13 14
M  V30 14 1 13 15
M  V30 15 1 9 3
M  V30 16 1 14 7
M  V30 17 1 1 16
M  V30 18 1 1 17
M  V30 19 1 2 18
M  V30 20 1 2 19
M  V30 21 1 5 20
M  V30 22 1 5 21
M  V30 23 1 10 22
M  V30 24 1 10 23
M  V30 25 1 10 24
M  V30 26 1 11 25
M  V30 27 1 12 26
M  V30 28 1 14 27
M  V30 END BOND
M  V30 END CTAB
M  END
