
     RDKit          3D

  0  0  0  0  0  0  0  0  0  0999 V3000
M  V30 BEGIN CTAB
M  V30 COUNTS 75 79 0 0 0
M  V30 BEGIN ATOM
M  V30 1 N 5.19265 3.3268 -1.97102 0
M  V30 2 C 3.76204 3.21656 -1.86025 0
M  V30 3 C 3.175 2.95191 -0.624846 0
M  V30 4 C 1.80624 2.84015 -0.481753 0
M  V30 5 C 1.22933 2.56664 0.839641 0
M  V30 6 N 0.112945 1.65977 0.858944 0
M  V30 7 C 0.247858 0.226742 1.02525 0 CFG=2
M  V30 8 C 1.66393 -0.23274 0.938525 0
M  V30 9 C 1.7236 -1.72671 1.14177 0
M  V30 10 C 3.1526 -2.20868 1.05581 0
M  V30 11 C 3.97656 -2.28035 2.14221 0
M  V30 12 C 5.28024 -2.72923 1.99764 0
M  V30 13 C 5.7801 -3.11215 0.770947 0
M  V30 14 C 4.94004 -3.03699 -0.322576 0
M  V30 15 C 3.64329 -2.58898 -0.170818 0
M  V30 16 C -0.636763 -0.579533 0.126997 0 CFG=1
M  V30 17 O -1.15075 -1.62067 0.893469 0
M  V30 18 C -1.6762 0.230637 -0.592506 0 CFG=1
M  V30 19 C -2.65433 -0.603288 -1.33764 0
M  V30 20 C -2.02862 -1.45071 -2.39462 0
M  V30 21 C -1.64262 -2.75291 -2.24138 0
M  V30 22 C -1.05014 -3.47576 -3.27661 0
M  V30 23 C -0.828903 -2.90271 -4.50356 0
M  V30 24 C -1.21068 -1.59181 -4.67966 0
M  V30 25 C -1.79487 -0.883176 -3.65462 0
M  V30 26 N -2.19258 1.30782 0.178199 0
M  V30 27 C -3.57388 1.55487 0.407476 0
M  V30 28 C -4.15028 0.983772 1.61989 0
M  V30 29 C -3.39004 0.667204 2.71939 0
M  V30 30 C -3.94962 0.125477 3.87604 0
M  V30 31 N -3.14819 -0.200072 5.01797 0
M  V30 32 C -5.31359 -0.0995977 3.91581 0
M  V30 33 C -6.09302 0.215534 2.81207 0
M  V30 34 C -5.49944 0.747254 1.69471 0
M  V30 35 C -1.19208 2.19129 0.735703 0
M  V30 36 O -1.48976 3.36931 1.08738 0
M  V30 37 C 1.04727 3.00159 -1.61288 0
M  V30 38 C 1.60046 3.26731 -2.86551 0
M  V30 39 C 2.9842 3.37541 -2.98391 0
M  V30 40 H 5.72593 2.9733 -2.7916 0
M  V30 41 H 5.69191 3.78104 -1.18676 0
M  V30 42 H 3.81691 2.83578 0.22501 0
M  V30 43 H 0.895699 3.5616 1.2497 0
M  V30 44 H 2.05835 2.20358 1.50438 0
M  V30 45 H -0.072987 0.0169101 2.09166 0
M  V30 46 H 2.29598 0.198655 1.76531 0
M  V30 47 H 2.07191 0.0570546 -0.049624 0
M  V30 48 H 1.41544 -1.98309 2.19007 0
M  V30 49 H 1.17749 -2.32712 0.421843 0
M  V30 50 H 3.60662 -1.9864 3.11003 0
M  V30 51 H 5.9601 -2.79699 2.84275 0
M  V30 52 H 6.81143 -3.46097 0.686219 0
M  V30 53 H 5.34178 -3.34142 -1.2838 0
M  V30 54 H 2.98694 -2.53358 -1.04534 0
M  V30 55 H 0.0432158 -1.0874 -0.624908 0
M  V30 56 H -2.12538 -1.54841 0.919942 0
M  V30 57 H -1.07152 0.746556 -1.4365 0
M  V30 58 H -3.41797 -0.000584396 -1.88566 0
M  V30 59 H -3.25336 -1.2918 -0.706654 0
M  V30 60 H -1.8074 -3.24704 -1.29988 0
M  V30 61 H -0.765463 -4.49738 -3.10145 0
M  V30 62 H -0.36152 -3.47113 -5.32198 0
M  V30 63 H -1.05047 -1.11015 -5.63401 0
M  V30 64 H -2.10186 0.164883 -3.78879 0
M  V30 65 H -3.68228 2.691 0.390545 0
M  V30 66 H -4.15145 1.1971 -0.480689 0
M  V30 67 H -2.3259 0.824087 2.73627 0
M  V30 68 H -2.26153 0.277671 5.25469 0
M  V30 69 H -3.50612 -0.978017 5.64084 0
M  V30 70 H -5.73242 -0.519704 4.82046 0
M  V30 71 H -7.15695 0.0204926 2.8933 0
M  V30 72 H -6.1155 0.986423 0.847473 0
M  V30 73 H -0.0260723 2.92653 -1.57132 0
M  V30 74 H 0.988705 3.38946 -3.73288 0
M  V30 75 H 3.44571 3.57907 -3.93033 0
M  V30 END ATOM
M  V30 BEGIN BOND
M  V30 1 1 1 2
M  V30 2 2 2 3
M  V30 3 1 3 4
M  V30 4 1 4 5
M  V30 5 1 5 6
M  V30 6 1 6 7
M  V30 7 1 7 8
M  V30 8 1 8 9
M  V30 9 1 9 10
M  V30 10 2 10 11
M  V30 11 1 11 12
M  V30 12 2 12 13
M  V30 13 1 13 14
M  V30 14 2 14 15
M  V30 15 1 7 16
M  V30 16 1 16 17
M  V30 17 1 16 18
M  V30 18 1 18 19
M  V30 19 1 19 20
M  V30 20 2 20 21
M  V30 21 1 21 22
M  V30 22 2 22 23
M  V30 23 1 23 24
M  V30 24 2 24 25
M  V30 25 1 18 26
M  V30 26 1 26 27
M  V30 27 1 27 28
M  V30 28 2 28 29
M  V30 29 1 29 30
M  V30 30 1 30 31
M  V30 31 2 30 32
M  V30 32 1 32 33
M  V30 33 2 33 34
M  V30 34 1 26 35
M  V30 35 2 35 36
M  V30 36 2 4 37
M  V30 37 1 37 38
M  V30 38 2 38 39
M  V30 39 1 39 2
M  V30 40 1 35 6
M  V30 41 1 15 10
M  V30 42 1 25 20
M  V30 43 1 34 28
M  V30 44 1 1 40
M  V30 45 1 1 41
M  V30 46 1 3 42
M  V30 47 1 5 43
M  V30 48 1 5 44
M  V30 49 1 7 45 CFG=1
M  V30 50 1 8 46
M  V30 51 1 8 47
M  V30 52 1 9 48
M  V30 53 1 9 49
M  V30 54 1 11 50
M  V30 55 1 12 51
M  V30 56 1 13 52
M  V30 57 1 14 53
M  V30 58 1 15 54
M  V30 59 1 16 55 CFG=3
M  V30 60 1 17 56
M  V30 61 1 18 57 CFG=3
M  V30 62 1 19 58
M  V30 63 1 19 59
M  V30 64 1 21 60
M  V30 65 1 22 61
M  V30 66 1 23 62
M  V30 67 1 24 63
M  V30 68 1 25 64
M  V30 69 1 27 65
M  V30 70 1 27 66
M  V30 71 1 29 67
M  V30 72 1 31 68
M  V30 73 1 31 69
M  V30 74 1 32 70
M  V30 75 1 33 71
M  V30 76 1 34 72
M  V30 77 1 37 73
M  V30 78 1 38 74
M  V30 79 1 39 75
M  V30 END BOND
M  V30 END CTAB
M  END
