
     RDKit          3D

  0  0  0  0  0  0  0  0  0  0999 V3000
M  V30 BEGIN CTAB
M  V30 COUNTS 30 31 0 0 0
M  V30 BEGIN ATOM
M  V30 1 N 3.00025 0.4027 -2.51613 0
M  V30 2 C 2.52273 0.291188 -1.2028 0
M  V30 3 C 3.28793 0.651202 -0.126357 0
M  V30 4 C 2.76039 0.515549 1.12333 0
M  V30 5 C 1.4739 0.0248496 1.34058 0
M  V30 6 C 0.699018 -0.336162 0.278714 0
M  V30 7 C 1.24894 -0.194751 -1.00591 0
M  V30 8 C -0.655937 -0.808365 0.351668 0
M  V30 9 N -0.972632 -2.07168 -0.0842379 0
M  V30 10 C -2.23402 -2.52402 -0.0783266 0
M  V30 11 N -2.48509 -3.85455 -0.549043 0
M  V30 12 N -3.24026 -1.75203 0.357328 0
M  V30 13 C -3.00763 -0.513275 0.794727 0
M  V30 14 C -1.69131 -0.0337196 0.790334 0
M  V30 15 S -1.47119 1.59426 1.31075 0
M  V30 16 O -0.773867 1.80936 2.58151 0
M  V30 17 O -2.86032 2.2514 1.48181 0
M  V30 18 C -0.67781 2.55902 0.0129598 0
M  V30 19 H 3.04468 1.32534 -2.97482 0
M  V30 20 H 3.30891 -0.432663 -3.03035 0
M  V30 21 H 4.28812 1.03073 -0.330464 0
M  V30 22 H 3.35943 0.798476 1.98589 0
M  V30 23 H 1.10433 -0.10412 2.35357 0
M  V30 24 H 0.65711 -0.475085 -1.87124 0
M  V30 25 H -1.87682 -4.3465 -1.22261 0
M  V30 26 H -3.33877 -4.33574 -0.175756 0
M  V30 27 H -3.82426 0.100564 1.14466 0
M  V30 28 H -0.890947 2.10321 -0.957212 0
M  V30 29 H -1.13981 3.58677 -0.0200387 0
M  V30 30 H 0.384927 2.73805 0.237467 0
M  V30 END ATOM
M  V30 BEGIN BOND
M  V30 1 1 1 2
M  V30 2 2 2 3
M  V30 3 1 3 4
M  V30 4 2 4 5
M  V30 5 1 5 6
M  V30 6 2 6 7
M  V30 7 1 6 8
M  V30 8 2 8 9
M  V30 9 1 9 10
M  V30 10 1 10 11
M  V30 11 2 10 12
M  V30 12 1 12 13
M  V30 13 2 13 14
M  V30 14 1 14 15
M  V30 15 2 15 16
M  V30 16 2 15 17
M  V30 17 1 15 18
M  V30 18 1 7 2
M  V30 19 1 14 8
M  V30 20 1 1 19
M  V30 21 1 1 20
M  V30 22 1 3 21
M  V30 23 1 4 22
M  V30 24 1 5 23
M  V30 25 1 7 24
M  V30 26 1 11 25
M  V30 27 1 11 26
M  V30 28 1 13 27
M  V30 29 1 18 28
M  V30 30 1 18 29
M  V30 31 1 18 30
M  V30 END BOND
M  V30 END CTAB
M  END
