
     RDKit          3D

  0  0  0  0  0  0  0  0  0  0999 V3000
M  V30 BEGIN CTAB
M  V30 COUNTS 27 28 0 0 0
M  V30 BEGIN ATOM
M  V30 1 N 4.32767 1.03437 0.340692 0
M  V30 2 C 4.02975 0.350948 -0.905139 0
M  V30 3 C 2.68032 -0.26475 -0.797019 0
M  V30 4 O 2.06736 -0.961173 -1.71438 0
M  V30 5 N 0.896601 -1.35023 -1.28405 0
M  V30 6 C 0.70851 -0.899063 -0.0236822 0
M  V30 7 N 1.8481 -0.21702 0.260915 0
M  V30 8 C -0.468346 -1.09533 0.860557 0
M  V30 9 C -1.57616 -0.178191 0.520588 0
M  V30 10 C -2.84212 -0.396593 1.02088 0
M  V30 11 C -3.89834 0.441871 0.721902 0
M  V30 12 F -5.14078 0.19282 1.23725 0
M  V30 13 C -3.71332 1.5196 -0.0852349 0
M  V30 14 C -2.46189 1.77035 -0.604244 0
M  V30 15 C -1.40905 0.9185 -0.294939 0
M  V30 16 F -2.24983 2.84533 -1.41687 0
M  V30 17 F -4.74748 2.34944 -0.384225 0
M  V30 18 N -0.842261 -2.49105 0.762572 0
M  V30 19 H 5.07093 0.519269 0.862606 0
M  V30 20 H 4.57118 2.02644 0.205024 0
M  V30 21 H 4.09459 1.03026 -1.77777 0
M  V30 22 H 4.79541 -0.452411 -1.0952 0
M  V30 23 H -0.148017 -0.935103 1.92494 0
M  V30 24 H -2.9935 -1.25678 1.66617 0
M  V30 25 H -0.446501 1.1509 -0.721879 0
M  V30 26 H -1.86209 -2.64585 0.690965 0
M  V30 27 H -0.290728 -3.00655 0.0295671 0
M  V30 END ATOM
M  V30 BEGIN BOND
M  V30 1 1 1 2
M  V30 2 1 2 3
M  V30 3 1 3 4
M  V30 4 1 4 5
M  V30 5 2 5 6
M  V30 6 1 6 7
M  V30 7 1 6 8
M  V30 8 1 8 9
M  V30 9 2 9 10
M  V30 10 1 10 11
M  V30 11 1 11 12
M  V30 12 2 11 13
M  V30 13 1 13 14
M  V30 14 2 14 15
M  V30 15 1 14 16
M  V30 16 1 13 17
M  V30 17 1 8 18
M  V30 18 2 7 3
M  V30 19 1 15 9
M  V30 20 1 1 19
M  V30 21 1 1 20
M  V30 22 1 2 21
M  V30 23 1 2 22
M  V30 24 1 8 23
M  V30 25 1 10 24
M  V30 26 1 15 25
M  V30 27 1 18 26
M  V30 28 1 18 27
M  V30 END BOND
M  V30 END CTAB
M  END
