
     RDKit          3D

  0  0  0  0  0  0  0  0  0  0999 V3000
M  V30 BEGIN CTAB
M  V30 COUNTS 42 44 0 0 0
M  V30 BEGIN ATOM
M  V30 1 N 6.03938 0.558327 -0.914622 0
M  V30 2 C 4.99143 1.0115 -0.106145 0 CFG=2
M  V30 3 C 4.24827 -0.0612611 0.667986 0
M  V30 4 C 3.00785 0.823821 0.468928 0 CFG=1
M  V30 5 C 3.67895 1.28389 -0.814987 0
M  V30 6 C 1.75779 0.103262 0.315991 0
M  V30 7 C 0.655151 0.457813 1.04753 0
M  V30 8 C -0.560278 -0.200024 0.936442 0
M  V30 9 N -0.606388 -1.20971 0.0707016 0
M  V30 10 C 0.460008 -1.57004 -0.65206 0
M  V30 11 N 1.65414 -0.919095 -0.538874 0
M  V30 12 N 0.303885 -2.66512 -1.55052 0
M  V30 13 N -1.69184 0.16429 1.69471 0
M  V30 14 C -2.94381 -0.520897 1.54478 0
M  V30 15 C -3.54761 -0.41025 0.196529 0
M  V30 16 C -3.70058 -1.49626 -0.633979 0
M  V30 17 C -4.2688 -1.38674 -1.89952 0
M  V30 18 C -4.69248 -0.168562 -2.34416 0
M  V30 19 C -4.55038 0.941595 -1.52814 0
M  V30 20 C -3.98512 0.817872 -0.275674 0
M  V30 21 F -5.25428 -0.0386756 -3.58588 0
M  V30 22 C -1.56895 1.25322 2.63753 0
M  V30 23 H 6.52971 -0.225772 -0.589471 0
M  V30 24 H 6.49928 1.27169 -1.42069 0
M  V30 25 H 5.22763 1.85366 0.577578 0
M  V30 26 H 4.13683 -1.0065 0.128091 0
M  V30 27 H 4.51937 -0.12268 1.741 0
M  V30 28 H 2.98417 1.66078 1.20905 0
M  V30 29 H 3.49336 0.605466 -1.67798 0
M  V30 30 H 3.51872 2.35468 -1.05068 0
M  V30 31 H 0.717048 1.28429 1.74683 0
M  V30 32 H -0.262064 -2.53243 -2.40199 0
M  V30 33 H 0.75838 -3.57172 -1.33581 0
M  V30 34 H -2.84882 -1.61792 1.77675 0
M  V30 35 H -3.70823 -0.167608 2.28459 0
M  V30 36 H -3.37902 -2.4819 -0.323371 0
M  V30 37 H -4.38066 -2.25139 -2.53765 0
M  V30 38 H -4.9034 1.90348 -1.92151 0
M  V30 39 H -3.87965 1.6911 0.351671 0
M  V30 40 H -2.41801 1.33604 3.33049 0
M  V30 41 H -1.37999 2.21663 2.12694 0
M  V30 42 H -0.650958 1.03114 3.24958 0
M  V30 END ATOM
M  V30 BEGIN BOND
M  V30 1 1 1 2
M  V30 2 1 2 3
M  V30 3 1 3 4
M  V30 4 1 4 5
M  V30 5 1 4 6
M  V30 6 2 6 7
M  V30 7 1 7 8
M  V30 8 2 8 9
M  V30 9 1 9 10
M  V30 10 2 10 11
M  V30 11 1 10 12
M  V30 12 1 8 13
M  V30 13 1 13 14
M  V30 14 1 14 15
M  V30 15 2 15 16
M  V30 16 1 16 17
M  V30 17 2 17 18
M  V30 18 1 18 19
M  V30 19 2 19 20
M  V30 20 1 18 21
M  V30 21 1 13 22
M  V30 22 1 5 2
M  V30 23 1 11 6
M  V30 24 1 20 15
M  V30 25 1 1 23
M  V30 26 1 1 24
M  V30 27 1 2 25 CFG=1
M  V30 28 1 3 26
M  V30 29 1 3 27
M  V30 30 1 4 28 CFG=1
M  V30 31 1 5 29
M  V30 32 1 5 30
M  V30 33 1 7 31
M  V30 34 1 12 32
M  V30 35 1 12 33
M  V30 36 1 14 34
M  V30 37 1 14 35
M  V30 38 1 16 36
M  V30 39 1 17 37
M  V30 40 1 19 38
M  V30 41 1 20 39
M  V30 42 1 22 40
M  V30 43 1 22 41
M  V30 44 1 22 42
M  V30 END BOND
M  V30 END CTAB
M  END
