
     RDKit          3D

  0  0  0  0  0  0  0  0  0  0999 V3000
M  V30 BEGIN CTAB
M  V30 COUNTS 38 38 0 0 0
M  V30 BEGIN ATOM
M  V30 1 N -3.05928 4.30486 0.109448 0
M  V30 2 C -2.84867 2.91658 -0.249673 0
M  V30 3 C -1.5052 2.41823 0.290121 0
M  V30 4 C -1.38094 0.975347 -0.144011 0
M  V30 5 N -0.184113 0.324757 0.270704 0
M  V30 6 C -0.171756 -1.037 -0.199506 0
M  V30 7 C -1.186 -1.92158 0.454235 0
M  V30 8 C -1.11264 -3.34492 -0.0793718 0
M  V30 9 N -2.09569 -4.19818 0.551206 0
M  V30 10 C 0.952511 0.98343 -0.377398 0
M  V30 11 C 2.23604 0.357293 -0.0276625 0
M  V30 12 C 3.05387 -0.09977 -1.0362 0
M  V30 13 C 4.27198 -0.703505 -0.77568 0
M  V30 14 C 4.65282 -0.837493 0.540739 0
M  V30 15 C 3.81894 -0.37193 1.55487 0
M  V30 16 N 2.64745 0.204979 1.23763 0
M  V30 17 H -2.88137 4.48184 1.12286 0
M  V30 18 H -2.54702 4.95926 -0.515645 0
M  V30 19 H -2.79426 2.84951 -1.35082 0
M  V30 20 H -3.65599 2.2637 0.0970276 0
M  V30 21 H -0.729948 3.05449 -0.202444 0
M  V30 22 H -1.46089 2.54588 1.37595 0
M  V30 23 H -2.2809 0.437019 0.242763 0
M  V30 24 H -1.39113 0.995767 -1.27053 0
M  V30 25 H 0.863678 -1.47966 -0.134656 0
M  V30 26 H -0.396435 -1.0609 -1.30671 0
M  V30 27 H -2.20145 -1.56618 0.229597 0
M  V30 28 H -1.03564 -1.99417 1.53802 0
M  V30 29 H -1.2382 -3.3731 -1.16701 0
M  V30 30 H -0.11556 -3.80454 0.1633 0
M  V30 31 H -2.76717 -3.67116 1.15721 0
M  V30 32 H -2.64927 -4.65233 -0.20571 0
M  V30 33 H 0.761336 0.878978 -1.4711 0
M  V30 34 H 0.992442 2.02645 -0.0370147 0
M  V30 35 H 2.78131 -0.00368228 -2.09603 0
M  V30 36 H 4.87708 -1.0468 -1.59911 0
M  V30 37 H 5.61168 -1.31046 0.756951 0
M  V30 38 H 4.16839 -0.501003 2.55365 0
M  V30 END ATOM
M  V30 BEGIN BOND
M  V30 1 1 1 2
M  V30 2 1 2 3
M  V30 3 1 3 4
M  V30 4 1 4 5
M  V30 5 1 5 6
M  V30 6 1 6 7
M  V30 7 1 7 8
M  V30 8 1 8 9
M  V30 9 1 5 10
M  V30 10 1 10 11
M  V30 11 2 11 12
M  V30 12 1 12 13
M  V30 13 2 13 14
M  V30 14 1 14 15
M  V30 15 2 15 16
M  V30 16 1 16 11
M  V30 17 1 1 17
M  V30 18 1 1 18
M  V30 19 1 2 19
M  V30 20 1 2 20
M  V30 21 1 3 21
M  V30 22 1 3 22
M  V30 23 1 4 23
M  V30 24 1 4 24
M  V30 25 1 6 25
M  V30 26 1 6 26
M  V30 27 1 7 27
M  V30 28 1 7 28
M  V30 29 1 8 29
M  V30 30 1 8 30
M  V30 31 1 9 31
M  V30 32 1 9 32
M  V30 33 1 10 33
M  V30 34 1 10 34
M  V30 35 1 12 35
M  V30 36 1 13 36
M  V30 37 1 14 37
M  V30 38 1 15 38
M  V30 END BOND
M  V30 END CTAB
M  END
