
     RDKit          3D

  0  0  0  0  0  0  0  0  0  0999 V3000
M  V30 BEGIN CTAB
M  V30 COUNTS 14 14 0 0 0
M  V30 BEGIN ATOM
M  V30 1 N 2.78974 -0.498939 0.134178 0
M  V30 2 C 1.43394 -0.036109 0.0750575 0
M  V30 3 N 0.424145 -0.902004 -0.110094 0
M  V30 4 C -0.872419 -0.521666 -0.173889 0
M  V30 5 N -1.90439 -1.49155 -0.373023 0
M  V30 6 C -1.20213 0.813212 -0.0457828 0
M  V30 7 Br -3.02298 1.36942 -0.132783 0
M  V30 8 C -0.157136 1.69278 0.1439 0
M  V30 9 Cl -0.57882 3.39253 0.306858 0
M  V30 10 N 1.1218 1.26557 0.200762 0
M  V30 11 H 3.35167 -0.468858 1.00157 0
M  V30 12 H 3.20204 -0.87497 -0.741583 0
M  V30 13 H -2.54689 -1.48682 -1.18987 0
M  V30 14 H -2.03856 -2.2526 0.324027 0
M  V30 END ATOM
M  V30 BEGIN BOND
M  V30 1 1 1 2
M  V30 2 2 2 3
M  V30 3 1 3 4
M  V30 4 1 4 5
M  V30 5 2 4 6
M  V30 6 1 6 7
M  V30 7 1 6 8
M  V30 8 1 8 9
M  V30 9 2 8 10
M  V30 10 1 10 2
M  V30 11 1 1 11
M  V30 12 1 1 12
M  V30 13 1 5 13
M  V30 14 1 5 14
M  V30 END BOND
M  V30 END CTAB
M  END
