
     RDKit          3D

  0  0  0  0  0  0  0  0  0  0999 V3000
M  V30 BEGIN CTAB
M  V30 COUNTS 34 36 0 0 0
M  V30 BEGIN ATOM
M  V30 1 N -4.90878 -0.678147 1.00639 0
M  V30 2 C -3.76271 -0.170773 0.38411 0
M  V30 3 N -3.76603 0.711166 -0.623132 0
M  V30 4 C -2.61808 1.16774 -1.18744 0
M  V30 5 N -2.74962 2.10622 -2.25445 0
M  V30 6 N -1.42646 0.734428 -0.736946 0
M  V30 7 C -1.36688 -0.151516 0.272769 0
M  V30 8 C -2.52834 -0.620007 0.851197 0
M  V30 9 C -2.15047 -1.49318 1.83444 0
M  V30 10 C -0.786396 -1.54003 1.83709 0
M  V30 11 N -0.310204 -0.705937 0.866626 0
M  V30 12 C 1.0723 -0.522487 0.605553 0 CFG=1
M  V30 13 C 1.60895 -1.35578 -0.53017 0
M  V30 14 C 2.99537 -0.714451 -0.68867 0 CFG=2
M  V30 15 O 3.8608 -1.45001 0.11237 0
M  V30 16 C 2.78877 0.624463 -0.0175514 0 CFG=1
M  V30 17 C 3.33364 1.72612 -0.89772 0
M  V30 18 O 3.11969 2.9655 -0.330293 0
M  V30 19 O 1.41504 0.758624 0.189564 0
M  V30 20 H -5.28419 -1.61199 0.744613 0
M  V30 21 H -5.40924 -0.141654 1.7379 0
M  V30 22 H -2.18247 1.94729 -3.11375 0
M  V30 23 H -3.38097 2.93578 -2.21452 0
M  V30 24 H -2.86823 -2.02443 2.46802 0
M  V30 25 H -0.186996 -2.14394 2.50453 0
M  V30 26 H 1.68984 -0.747199 1.50089 0
M  V30 27 H 1.08228 -1.16128 -1.48537 0
M  V30 28 H 1.7286 -2.41158 -0.284552 0
M  V30 29 H 3.29856 -0.647058 -1.73227 0
M  V30 30 H 3.43189 -2.2552 0.510752 0
M  V30 31 H 3.2703 0.679916 0.972481 0
M  V30 32 H 4.44364 1.5752 -0.928749 0
M  V30 33 H 2.98554 1.64713 -1.93301 0
M  V30 34 H 3.56085 2.96707 0.559299 0
M  V30 END ATOM
M  V30 BEGIN BOND
M  V30 1 1 1 2
M  V30 2 2 2 3
M  V30 3 1 3 4
M  V30 4 1 4 5
M  V30 5 2 4 6
M  V30 6 1 6 7
M  V30 7 2 7 8
M  V30 8 1 8 9
M  V30 9 2 9 10
M  V30 10 1 10 11
M  V30 11 1 11 12
M  V30 12 1 12 13
M  V30 13 1 13 14
M  V30 14 1 14 15
M  V30 15 1 14 16
M  V30 16 1 16 17
M  V30 17 1 17 18
M  V30 18 1 16 19
M  V30 19 1 8 2
M  V30 20 1 19 12
M  V30 21 1 11 7
M  V30 22 1 1 20
M  V30 23 1 1 21
M  V30 24 1 5 22
M  V30 25 1 5 23
M  V30 26 1 9 24
M  V30 27 1 10 25
M  V30 28 1 12 26 CFG=1
M  V30 29 1 13 27
M  V30 30 1 13 28
M  V30 31 1 14 29 CFG=3
M  V30 32 1 15 30
M  V30 33 1 16 31 CFG=1
M  V30 34 1 17 32
M  V30 35 1 17 33
M  V30 36 1 18 34
M  V30 END BOND
M  V30 END CTAB
M  END
