
     RDKit          3D

  0  0  0  0  0  0  0  0  0  0999 V3000
M  V30 BEGIN CTAB
M  V30 COUNTS 27 28 0 0 0
M  V30 BEGIN ATOM
M  V30 1 O 1.17383 -1.53531 1.34875 0
M  V30 2 C 0.853831 -0.62184 0.538527 0
M  V30 3 C -0.567665 -0.398082 0.326827 0
M  V30 4 C -1.52139 -1.1503 0.982737 0
M  V30 5 C -2.86228 -0.979415 0.818648 0
M  V30 6 N -3.82651 -1.76699 1.50575 0
M  V30 7 C -3.31644 -0.00507354 -0.0473117 0
M  V30 8 C -2.41785 0.772726 -0.726383 0
M  V30 9 C -1.04693 0.568193 -0.53225 0
M  V30 10 N -2.79419 1.79272 -1.63193 0
M  V30 11 N 1.86796 0.124409 -0.110804 0
M  V30 12 C 3.26102 -0.16642 0.159928 0
M  V30 13 C 4.17821 1.04595 0.132665 0
M  V30 14 C 4.26016 0.0186524 -0.964262 0
M  V30 15 H -1.18982 -1.92041 1.66692 0
M  V30 16 H -4.64864 -1.33908 2.0113 0
M  V30 17 H -3.77247 -2.80636 1.54636 0
M  V30 18 H -4.3968 0.146042 -0.191384 0
M  V30 19 H -0.316752 1.17114 -1.05836 0
M  V30 20 H -2.25339 1.90457 -2.51485 0
M  V30 21 H -3.59083 2.43092 -1.44303 0
M  V30 22 H 1.6639 0.87887 -0.779435 0
M  V30 23 H 3.51954 -0.974803 0.877065 0
M  V30 24 H 3.71703 2.04484 -0.100543 0
M  V30 25 H 4.99102 1.12723 0.865512 0
M  V30 26 H 3.8471 0.224703 -1.96127 0
M  V30 27 H 5.18835 -0.586876 -0.953594 0
M  V30 END ATOM
M  V30 BEGIN BOND
M  V30 1 2 1 2
M  V30 2 1 2 3
M  V30 3 2 3 4
M  V30 4 1 4 5
M  V30 5 1 5 6
M  V30 6 2 5 7
M  V30 7 1 7 8
M  V30 8 2 8 9
M  V30 9 1 8 10
M  V30 10 1 2 11
M  V30 11 1 11 12
M  V30 12 1 12 13
M  V30 13 1 13 14
M  V30 14 1 9 3
M  V30 15 1 14 12
M  V30 16 1 4 15
M  V30 17 1 6 16
M  V30 18 1 6 17
M  V30 19 1 7 18
M  V30 20 1 9 19
M  V30 21 1 10 20
M  V30 22 1 10 21
M  V30 23 1 11 22
M  V30 24 1 12 23
M  V30 25 1 13 24
M  V30 26 1 13 25
M  V30 27 1 14 26
M  V30 28 1 14 27
M  V30 END BOND
M  V30 END CTAB
M  END
