
     RDKit          3D

  0  0  0  0  0  0  0  0  0  0999 V3000
M  V30 BEGIN CTAB
M  V30 COUNTS 24 25 0 0 0
M  V30 BEGIN ATOM
M  V30 1 N -3.85562 0.334934 0.120964 0
M  V30 2 C -2.54667 0.353529 0.723874 0
M  V30 3 C -1.73682 -0.89573 0.563049 0
M  V30 4 N -0.591892 -0.131496 0.117031 0
M  V30 5 C -1.45705 0.995808 -0.0897608 0
M  V30 6 C 0.788293 -0.45967 -0.0220189 0
M  V30 7 N 1.28272 -1.65918 0.273585 0
M  V30 8 C 2.58599 -1.98685 0.147976 0
M  V30 9 N 3.45839 -1.07899 -0.295971 0
M  V30 10 C 3.01243 0.162573 -0.613565 0
M  V30 11 O 3.85041 0.999456 -1.02879 0
M  V30 12 C 1.66779 0.49866 -0.483328 0
M  V30 13 N 1.27498 1.81448 -0.834028 0
M  V30 14 H -4.39395 -0.532228 0.324692 0
M  V30 15 H -3.84485 0.619936 -0.863864 0
M  V30 16 H -2.60694 0.6513 1.78446 0
M  V30 17 H -1.5342 -1.45105 1.51994 0
M  V30 18 H -2.06458 -1.58544 -0.239946 0
M  V30 19 H -1.14869 1.95217 0.342038 0
M  V30 20 H -1.81069 1.0838 -1.15817 0
M  V30 21 H 2.95436 -2.97423 0.398115 0
M  V30 22 H 4.46415 -1.34794 -0.387745 0
M  V30 23 H 1.1097 2.10716 -1.82207 0
M  V30 24 H 1.14273 2.52901 -0.0777037 0
M  V30 END ATOM
M  V30 BEGIN BOND
M  V30 1 1 1 2
M  V30 2 1 2 3
M  V30 3 1 3 4
M  V30 4 1 4 5
M  V30 5 1 4 6
M  V30 6 1 6 7
M  V30 7 2 7 8
M  V30 8 1 8 9
M  V30 9 1 9 10
M  V30 10 2 10 11
M  V30 11 1 10 12
M  V30 12 1 12 13
M  V30 13 1 5 2
M  V30 14 2 12 6
M  V30 15 1 1 14
M  V30 16 1 1 15
M  V30 17 1 2 16
M  V30 18 1 3 17
M  V30 19 1 3 18
M  V30 20 1 5 19
M  V30 21 1 5 20
M  V30 22 1 8 21
M  V30 23 1 9 22
M  V30 24 1 13 23
M  V30 25 1 13 24
M  V30 END BOND
M  V30 END CTAB
M  END
