
     RDKit          3D

  0  0  0  0  0  0  0  0  0  0999 V3000
M  V30 BEGIN CTAB
M  V30 COUNTS 35 36 0 0 0
M  V30 BEGIN ATOM
M  V30 1 O 0.615599 0.337635 0.79225 0
M  V30 2 C 0.675697 -0.0947773 -0.356475 0
M  V30 3 N 1.95292 -0.360783 -0.930907 0
M  V30 4 C 3.18025 -0.176798 -0.285355 0
M  V30 5 C 4.30494 -0.0988702 -1.12529 0
M  V30 6 C 5.54265 0.0591156 -0.586417 0
M  V30 7 C 5.76951 0.14948 0.756698 0
M  V30 8 C 4.68731 0.0757572 1.5976 0
M  V30 9 C 3.40515 -0.0875391 1.05306 0
M  V30 10 Cl 4.88429 0.182075 3.32903 0
M  V30 11 N 7.0476 0.313883 1.33227 0
M  V30 12 N -0.455215 -0.351097 -1.16175 0
M  V30 13 C -1.78332 -0.137185 -0.706752 0
M  V30 14 C -2.17208 -0.0349827 0.599994 0
M  V30 15 C -3.4932 0.197028 0.979579 0
M  V30 16 C -4.48247 0.335074 0.0342156 0
M  V30 17 C -4.08822 0.230887 -1.2825 0
M  V30 18 C -2.80022 0.00453527 -1.67 0
M  V30 19 S -6.15384 0.626881 0.453578 0
M  V30 20 O -6.77179 1.51456 -0.598712 0
M  V30 21 O -6.22875 1.39688 1.76164 0
M  V30 22 N -7.03426 -0.834777 0.654265 0
M  V30 23 H 1.94102 -0.73056 -1.92515 0
M  V30 24 H 4.18775 -0.164258 -2.20522 0
M  V30 25 H 6.40502 0.117008 -1.2684 0
M  V30 26 H 2.59633 -0.15396 1.76116 0
M  V30 27 H 7.67196 -0.50458 1.45104 0
M  V30 28 H 7.36586 1.25159 1.63762 0
M  V30 29 H -0.305403 -0.724585 -2.15666 0
M  V30 30 H -1.49249 -0.142806 1.40603 0
M  V30 31 H -3.77569 0.274439 2.01886 0
M  V30 32 H -4.88767 0.34278 -2.02403 0
M  V30 33 H -2.50333 -0.0756676 -2.72102 0
M  V30 34 H -7.41375 -1.17216 -0.278591 0
M  V30 35 H -6.39216 -1.56421 0.980257 0
M  V30 END ATOM
M  V30 BEGIN BOND
M  V30 1 2 1 2
M  V30 2 1 2 3
M  V30 3 1 3 4
M  V30 4 2 4 5
M  V30 5 1 5 6
M  V30 6 2 6 7
M  V30 7 1 7 8
M  V30 8 2 8 9
M  V30 9 1 8 10
M  V30 10 1 7 11
M  V30 11 1 2 12
M  V30 12 1 12 13
M  V30 13 2 13 14
M  V30 14 1 14 15
M  V30 15 2 15 16
M  V30 16 1 16 17
M  V30 17 2 17 18
M  V30 18 1 16 19
M  V30 19 2 19 20
M  V30 20 2 19 21
M  V30 21 1 19 22
M  V30 22 1 9 4
M  V30 23 1 18 13
M  V30 24 1 3 23
M  V30 25 1 5 24
M  V30 26 1 6 25
M  V30 27 1 9 26
M  V30 28 1 11 27
M  V30 29 1 11 28
M  V30 30 1 12 29
M  V30 31 1 14 30
M  V30 32 1 15 31
M  V30 33 1 17 32
M  V30 34 1 18 33
M  V30 35 1 22 34
M  V30 36 1 22 35
M  V30 END BOND
M  V30 END CTAB
M  END
