
     RDKit          3D

  0  0  0  0  0  0  0  0  0  0999 V3000
M  V30 BEGIN CTAB
M  V30 COUNTS 38 39 0 0 0
M  V30 BEGIN ATOM
M  V30 1 N -3.78131 0.852201 -1.6438 0
M  V30 2 C -2.92156 0.427569 -0.60045 0
M  V30 3 C -3.47288 0.156977 0.626716 0
M  V30 4 C -2.65155 -0.256218 1.64429 0
M  V30 5 C -1.27276 -0.398814 1.42959 0
M  V30 6 C -0.715909 -0.127901 0.202099 0
M  V30 7 C 0.717234 -0.265762 -0.000154682 0
M  V30 8 C 1.53889 0.83296 0.0493188 0
M  V30 9 C 2.92913 0.699482 -0.111728 0
M  V30 10 N 3.7692 1.8638 -0.056268 0
M  V30 11 C 3.48302 -0.535387 -0.323591 0
M  V30 12 C 2.65029 -1.62081 -0.370771 0
M  V30 13 C 1.27949 -1.51614 -0.212671 0
M  V30 14 N 0.464866 -2.6754 -0.226617 0 CHG=1
M  V30 15 O -0.839101 -2.70553 -0.58387 0 CHG=-1
M  V30 16 O 1.00003 -3.76839 0.119347 0
M  V30 17 N 4.87254 -0.706677 -0.489076 0 CHG=1
M  V30 18 O 5.70486 0.271585 -0.98807 0 CHG=-1
M  V30 19 O 5.40866 -1.80053 -0.173124 0
M  V30 20 N 1.11363 2.16272 0.26881 0 CHG=1
M  V30 21 O 1.25727 3.16286 -0.661861 0 CHG=-1
M  V30 22 O 0.584082 2.47763 1.33552 0
M  V30 23 C -1.544 0.282898 -0.804506 0
M  V30 24 N -1.07005 0.571252 -2.08429 0 CHG=1
M  V30 25 O -0.67672 -0.437415 -2.96365 0 CHG=-1
M  V30 26 O -0.970963 1.73035 -2.57572 0
M  V30 27 N -0.480969 -0.87229 2.49055 0 CHG=1
M  V30 28 O -1.05301 -1.74881 3.37757 0 CHG=-1
M  V30 29 O 0.683559 -0.543514 2.64879 0
M  V30 30 N -4.88031 0.28916 0.852934 0 CHG=1
M  V30 31 O -5.65657 1.16462 0.143915 0 CHG=-1
M  V30 32 O -5.38929 -0.43356 1.72708 0
M  V30 33 H -3.58872 1.76516 -2.11237 0
M  V30 34 H -4.59838 0.260237 -1.9434 0
M  V30 35 H -3.08204 -0.471614 2.61532 0
M  V30 36 H 4.11038 2.23732 -0.958539 0
M  V30 37 H 3.98644 2.27065 0.891427 0
M  V30 38 H 3.0925 -2.59467 -0.538761 0
M  V30 END ATOM
M  V30 BEGIN BOND
M  V30 1 1 1 2
M  V30 2 2 2 3
M  V30 3 1 3 4
M  V30 4 2 4 5
M  V30 5 1 5 6
M  V30 6 1 6 7
M  V30 7 2 7 8
M  V30 8 1 8 9
M  V30 9 1 9 10
M  V30 10 2 9 11
M  V30 11 1 11 12
M  V30 12 2 12 13
M  V30 13 1 13 14
M  V30 14 1 14 15
M  V30 15 2 14 16
M  V30 16 1 11 17
M  V30 17 1 17 18
M  V30 18 2 17 19
M  V30 19 1 8 20
M  V30 20 1 20 21
M  V30 21 2 20 22
M  V30 22 2 6 23
M  V30 23 1 23 24
M  V30 24 1 24 25
M  V30 25 2 24 26
M  V30 26 1 5 27
M  V30 27 1 27 28
M  V30 28 2 27 29
M  V30 29 1 3 30
M  V30 30 1 30 31
M  V30 31 2 30 32
M  V30 32 1 23 2
M  V30 33 1 13 7
M  V30 34 1 1 33
M  V30 35 1 1 34
M  V30 36 1 4 35
M  V30 37 1 10 36
M  V30 38 1 10 37
M  V30 39 1 12 38
M  V30 END BOND
M  V30 END CTAB
M  END
