
     RDKit          3D

  0  0  0  0  0  0  0  0  0  0999 V3000
M  V30 BEGIN CTAB
M  V30 COUNTS 33 32 0 0 0
M  V30 BEGIN ATOM
M  V30 1 N -4.21204 1.51489 0.159932 0
M  V30 2 C -3.99749 0.94653 -1.12402 0
M  V30 3 C -3.67122 -0.504138 -1.18195 0
M  V30 4 O -2.56162 -0.955435 -0.563983 0
M  V30 5 C -2.40601 -0.803776 0.774156 0
M  V30 6 C -1.09049 -1.4587 1.23284 0
M  V30 7 O -0.00904457 -0.866487 0.585611 0
M  V30 8 C 1.13672 -1.5014 1.04343 0
M  V30 9 C 2.39697 -0.943482 0.409014 0
M  V30 10 O 2.48227 0.385804 0.716405 0
M  V30 11 C 3.56765 1.04175 0.217691 0
M  V30 12 C 3.66314 1.02384 -1.28672 0
M  V30 13 N 4.83959 1.73917 -1.74316 0
M  V30 14 H -4.10445 2.55109 0.090268 0
M  V30 15 H -5.06741 1.20917 0.653444 0
M  V30 16 H -4.95063 1.07972 -1.70767 0
M  V30 17 H -3.18669 1.56689 -1.61237 0
M  V30 18 H -3.53256 -0.731584 -2.29264 0
M  V30 19 H -4.5849 -1.14201 -0.938569 0
M  V30 20 H -3.23423 -1.23297 1.34468 0
M  V30 21 H -2.25397 0.27837 1.03323 0
M  V30 22 H -1.0182 -1.22461 2.31786 0
M  V30 23 H -1.17906 -2.53013 1.04177 0
M  V30 24 H 1.05491 -2.58582 0.790863 0
M  V30 25 H 1.16029 -1.41355 2.14816 0
M  V30 26 H 3.24101 -1.53354 0.831847 0
M  V30 27 H 2.29246 -1.0991 -0.688295 0
M  V30 28 H 3.51536 2.10182 0.542758 0
M  V30 29 H 4.54395 0.655017 0.600471 0
M  V30 30 H 2.78567 1.54917 -1.75434 0
M  V30 31 H 3.69279 0.025507 -1.71763 0
M  V30 32 H 5.63815 1.42488 -1.15406 0
M  V30 33 H 5.0491 1.43311 -2.71313 0
M  V30 END ATOM
M  V30 BEGIN BOND
M  V30 1 1 1 2
M  V30 2 1 2 3
M  V30 3 1 3 4
M  V30 4 1 4 5
M  V30 5 1 5 6
M  V30 6 1 6 7
M  V30 7 1 7 8
M  V30 8 1 8 9
M  V30 9 1 9 10
M  V30 10 1 10 11
M  V30 11 1 11 12
M  V30 12 1 12 13
M  V30 13 1 1 14
M  V30 14 1 1 15
M  V30 15 1 2 16
M  V30 16 1 2 17
M  V30 17 1 3 18
M  V30 18 1 3 19
M  V30 19 1 5 20
M  V30 20 1 5 21
M  V30 21 1 6 22
M  V30 22 1 6 23
M  V30 23 1 8 24
M  V30 24 1 8 25
M  V30 25 1 9 26
M  V30 26 1 9 27
M  V30 27 1 11 28
M  V30 28 1 11 29
M  V30 29 1 12 30
M  V30 30 1 12 31
M  V30 31 1 13 32
M  V30 32 1 13 33
M  V30 END BOND
M  V30 END CTAB
M  END
