
     RDKit          3D

  0  0  0  0  0  0  0  0  0  0999 V3000
M  V30 BEGIN CTAB
M  V30 COUNTS 42 43 0 0 0
M  V30 BEGIN ATOM
M  V30 1 C -6.19604 -1.93799 0.220036 0
M  V30 2 O -4.87126 -1.468 0.358855 0
M  V30 3 C -4.976 -0.115002 0.67186 0
M  V30 4 C -3.61769 0.52526 0.850919 0
M  V30 5 C -2.81053 0.396305 -0.446652 0
M  V30 6 N -1.50823 1.00263 -0.292919 0
M  V30 7 C -0.300892 0.251774 -0.281671 0
M  V30 8 C 0.933536 0.844992 -0.128107 0
M  V30 9 C 2.11775 0.136723 -0.11516 0
M  V30 10 N 2.0689 -1.19004 -0.258542 0
M  V30 11 C 0.873412 -1.78616 -0.40953 0
M  V30 12 N -0.294273 -1.09385 -0.422867 0
M  V30 13 N 0.780507 -3.19599 -0.565124 0
M  V30 14 C 3.37572 0.896463 0.0587806 0 CFG=2
M  V30 15 C 4.40583 0.565758 -1.03164 0
M  V30 16 C 5.45402 0.58661 0.0623721 0 CFG=1
M  V30 17 C 4.34013 0.335587 1.05723 0
M  V30 18 N 6.41799 -0.493583 -0.0344832 0
M  V30 19 C -1.44722 2.44275 -0.145659 0
M  V30 20 H -6.11759 -3.00667 -0.0258079 0
M  V30 21 H -6.67254 -1.37623 -0.636063 0
M  V30 22 H -6.80146 -1.70929 1.10854 0
M  V30 23 H -5.50671 0.450419 -0.108238 0
M  V30 24 H -5.5101 -0.00787357 1.64735 0
M  V30 25 H -3.01661 0.0487173 1.63898 0
M  V30 26 H -3.81094 1.60794 1.05847 0
M  V30 27 H -3.3615 1.03395 -1.19166 0
M  V30 28 H -2.77257 -0.663615 -0.738556 0
M  V30 29 H 0.927019 1.93265 -0.0140094 0
M  V30 30 H 0.725705 -3.8726 0.210236 0
M  V30 31 H 0.767728 -3.56338 -1.54489 0
M  V30 32 H 3.23222 1.97814 0.179107 0
M  V30 33 H 4.50759 1.38585 -1.77279 0
M  V30 34 H 4.22325 -0.439746 -1.44327 0
M  V30 35 H 5.90603 1.59748 0.106616 0
M  V30 36 H 4.40182 0.966167 1.98636 0
M  V30 37 H 4.25123 -0.733564 1.28593 0
M  V30 38 H 6.84235 -0.431772 -0.989969 0
M  V30 39 H 7.13791 -0.358724 0.70245 0
M  V30 40 H -0.964696 2.72203 0.811061 0
M  V30 41 H -0.737365 2.79712 -0.94579 0
M  V30 42 H -2.3964 2.93878 -0.334666 0
M  V30 END ATOM
M  V30 BEGIN BOND
M  V30 1 1 1 2
M  V30 2 1 2 3
M  V30 3 1 3 4
M  V30 4 1 4 5
M  V30 5 1 5 6
M  V30 6 1 6 7
M  V30 7 2 7 8
M  V30 8 1 8 9
M  V30 9 2 9 10
M  V30 10 1 10 11
M  V30 11 2 11 12
M  V30 12 1 11 13
M  V30 13 1 9 14
M  V30 14 1 14 15
M  V30 15 1 15 16
M  V30 16 1 16 17
M  V30 17 1 16 18
M  V30 18 1 6 19
M  V30 19 1 12 7
M  V30 20 1 17 14
M  V30 21 1 1 20
M  V30 22 1 1 21
M  V30 23 1 1 22
M  V30 24 1 3 23
M  V30 25 1 3 24
M  V30 26 1 4 25
M  V30 27 1 4 26
M  V30 28 1 5 27
M  V30 29 1 5 28
M  V30 30 1 8 29
M  V30 31 1 13 30
M  V30 32 1 13 31
M  V30 33 1 14 32 CFG=1
M  V30 34 1 15 33
M  V30 35 1 15 34
M  V30 36 1 16 35 CFG=1
M  V30 37 1 17 36
M  V30 38 1 17 37
M  V30 39 1 18 38
M  V30 40 1 18 39
M  V30 41 1 19 40
M  V30 42 1 19 41
M  V30 43 1 19 42
M  V30 END BOND
M  V30 END CTAB
M  END
