
     RDKit          3D

  0  0  0  0  0  0  0  0  0  0999 V3000
M  V30 BEGIN CTAB
M  V30 COUNTS 20 20 0 0 0
M  V30 BEGIN ATOM
M  V30 1 F 4.05672 -0.256081 1.97592 0
M  V30 2 C 3.11717 0.176859 1.02924 0
M  V30 3 O 1.89878 -0.400262 1.37312 0
M  V30 4 C 0.706442 -0.235166 0.702097 0
M  V30 5 C -0.187313 0.767862 0.999124 0
M  V30 6 C -1.38733 0.897116 0.29021 0
M  V30 7 N -2.31871 1.92806 0.586613 0
M  V30 8 C -1.67967 0.00784358 -0.720241 0
M  V30 9 C -0.787343 -1.01589 -1.0371 0
M  V30 10 C 0.398889 -1.11442 -0.309724 0
M  V30 11 N -1.11994 -1.91621 -2.08536 0
M  V30 12 F 3.59506 -0.249719 -0.209131 0
M  V30 13 F 3.10306 1.54936 0.991916 0
M  V30 14 H 0.00688641 1.47755 1.77859 0
M  V30 15 H -2.80197 2.01233 1.52021 0
M  V30 16 H -2.58041 2.66992 -0.112593 0
M  V30 17 H -2.61164 0.0946617 -1.28316 0
M  V30 18 H 1.06493 -1.89752 -0.563493 0
M  V30 19 H -1.74924 -1.61189 -2.85451 0
M  V30 20 H -0.724377 -2.88441 -2.07172 0
M  V30 END ATOM
M  V30 BEGIN BOND
M  V30 1 1 1 2
M  V30 2 1 2 3
M  V30 3 1 3 4
M  V30 4 2 4 5
M  V30 5 1 5 6
M  V30 6 1 6 7
M  V30 7 2 6 8
M  V30 8 1 8 9
M  V30 9 2 9 10
M  V30 10 1 9 11
M  V30 11 1 2 12
M  V30 12 1 2 13
M  V30 13 1 10 4
M  V30 14 1 5 14
M  V30 15 1 7 15
M  V30 16 1 7 16
M  V30 17 1 8 17
M  V30 18 1 10 18
M  V30 19 1 11 19
M  V30 20 1 11 20
M  V30 END BOND
M  V30 END CTAB
M  END
