
     RDKit          3D

  0  0  0  0  0  0  0  0  0  0999 V3000
M  V30 BEGIN CTAB
M  V30 COUNTS 44 46 0 0 0
M  V30 BEGIN ATOM
M  V30 1 N 6.25724 -0.139653 -0.933031 0
M  V30 2 C 5.03908 0.540213 -0.561625 0
M  V30 3 C 5.24912 1.15969 0.825078 0
M  V30 4 C 4.44628 0.233046 1.72889 0
M  V30 5 N 3.32347 -0.0364186 0.852763 0
M  V30 6 C 3.95454 -0.518542 -0.353001 0
M  V30 7 C 1.97686 0.164105 1.15342 0
M  V30 8 O 1.63547 0.631068 2.27724 0
M  V30 9 C 0.928789 -0.153888 0.19332 0
M  V30 10 C 0.790326 -1.64148 0.0156726 0
M  V30 11 C -0.586559 -1.81714 -0.48255 0
M  V30 12 O -1.01171 -2.89428 -1.00867 0
M  V30 13 N -1.28822 -0.607203 -0.264117 0
M  V30 14 C -0.470929 0.238324 0.632954 0
M  V30 15 C -2.52938 -0.240959 -0.79747 0
M  V30 16 C -2.81237 -0.353899 -2.13419 0
M  V30 17 C -4.01567 0.0108012 -2.68323 0
M  V30 18 C -4.98021 0.514829 -1.83715 0
M  V30 19 C -4.74045 0.645295 -0.489699 0
M  V30 20 C -3.52349 0.269414 0.0241941 0
M  V30 21 S -5.94017 1.28635 0.582897 0
M  V30 22 O -6.77339 2.35264 -0.108145 0
M  V30 23 O -5.26258 1.98472 1.74394 0
M  V30 24 N -6.9634 0.0249687 1.16041 0
M  V30 25 H 6.45433 -0.849449 -0.187568 0
M  V30 26 H 6.08468 -0.66535 -1.81736 0
M  V30 27 H 4.73271 1.32291 -1.25479 0
M  V30 28 H 6.31977 1.17589 1.07976 0
M  V30 29 H 4.76696 2.1647 0.88992 0
M  V30 30 H 4.11481 0.818781 2.59522 0
M  V30 31 H 5.01425 -0.682391 1.98003 0
M  V30 32 H 3.20375 -0.404447 -1.16146 0
M  V30 33 H 4.37488 -1.52392 -0.281866 0
M  V30 34 H 1.10345 0.306181 -0.811473 0
M  V30 35 H 1.5524 -2.05709 -0.67511 0
M  V30 36 H 0.822737 -2.15473 1.01057 0
M  V30 37 H -0.677023 0.0668438 1.68149 0
M  V30 38 H -0.632226 1.27956 0.298276 0
M  V30 39 H -2.05374 -0.752607 -2.81359 0
M  V30 40 H -4.21907 -0.0856832 -3.74732 0
M  V30 41 H -5.92297 0.798621 -2.29433 0
M  V30 42 H -3.28876 0.354767 1.07816 0
M  V30 43 H -7.883 0.123883 0.69236 0
M  V30 44 H -6.5706 -0.888503 0.85942 0
M  V30 END ATOM
M  V30 BEGIN BOND
M  V30 1 1 1 2
M  V30 2 1 2 3
M  V30 3 1 3 4
M  V30 4 1 4 5
M  V30 5 1 5 6
M  V30 6 1 5 7
M  V30 7 2 7 8
M  V30 8 1 7 9
M  V30 9 1 9 10
M  V30 10 1 10 11
M  V30 11 2 11 12
M  V30 12 1 11 13
M  V30 13 1 13 14
M  V30 14 1 13 15
M  V30 15 2 15 16
M  V30 16 1 16 17
M  V30 17 2 17 18
M  V30 18 1 18 19
M  V30 19 2 19 20
M  V30 20 1 19 21
M  V30 21 2 21 22
M  V30 22 2 21 23
M  V30 23 1 21 24
M  V30 24 1 6 2
M  V30 25 1 14 9
M  V30 26 1 20 15
M  V30 27 1 1 25
M  V30 28 1 1 26
M  V30 29 1 2 27
M  V30 30 1 3 28
M  V30 31 1 3 29
M  V30 32 1 4 30
M  V30 33 1 4 31
M  V30 34 1 6 32
M  V30 35 1 6 33
M  V30 36 1 9 34
M  V30 37 1 10 35
M  V30 38 1 10 36
M  V30 39 1 14 37
M  V30 40 1 14 38
M  V30 41 1 16 39
M  V30 42 1 17 40
M  V30 43 1 18 41
M  V30 44 1 20 42
M  V30 45 1 24 43
M  V30 46 1 24 44
M  V30 END BOND
M  V30 END CTAB
M  END
