
     RDKit          3D

  0  0  0  0  0  0  0  0  0  0999 V3000
M  V30 BEGIN CTAB
M  V30 COUNTS 30 30 0 0 0
M  V30 BEGIN ATOM
M  V30 1 N 4.86175 0.490877 0.700335 0
M  V30 2 C 3.49882 0.351147 0.218944 0
M  V30 3 C 2.66114 -0.488958 1.14707 0
M  V30 4 N 1.33422 -0.583909 0.604904 0
M  V30 5 C 0.506607 0.537718 0.406993 0
M  V30 6 O 0.828088 1.71457 0.680764 0
M  V30 7 C -0.851304 0.333398 -0.167382 0
M  V30 8 C -0.661841 -0.306323 -1.54684 0
M  V30 9 C -2.0117 -0.382654 -2.15498 0
M  V30 10 C -3.07371 -0.522687 -1.41415 0
M  V30 11 C -3.08112 -0.620503 0.0674111 0
M  V30 12 C -1.68041 -0.614522 0.643869 0
M  V30 13 N -3.86201 0.459786 0.626621 0
M  V30 14 H 4.87715 1.33393 1.32015 0
M  V30 15 H 5.48121 0.61152 -0.107901 0
M  V30 16 H 3.07001 1.31562 -0.0385646 0
M  V30 17 H 3.58046 -0.252712 -0.73335 0
M  V30 18 H 2.57706 -0.00534317 2.16582 0
M  V30 19 H 3.14325 -1.4887 1.23964 0
M  V30 20 H 0.997848 -1.55827 0.354582 0
M  V30 21 H -1.41064 1.28196 -0.272192 0
M  V30 22 H 0.0564961 0.273841 -2.16291 0
M  V30 23 H -0.28413 -1.3411 -1.33564 0
M  V30 24 H -2.09117 -0.319048 -3.22919 0
M  V30 25 H -4.03953 -0.573642 -1.90543 0
M  V30 26 H -3.5664 -1.59006 0.351122 0
M  V30 27 H -1.67693 -0.291283 1.69507 0
M  V30 28 H -1.27637 -1.64385 0.500414 0
M  V30 29 H -3.27752 1.19949 1.07913 0
M  V30 30 H -4.62934 0.115575 1.26571 0
M  V30 END ATOM
M  V30 BEGIN BOND
M  V30 1 1 1 2
M  V30 2 1 2 3
M  V30 3 1 3 4
M  V30 4 1 4 5
M  V30 5 2 5 6
M  V30 6 1 5 7
M  V30 7 1 7 8
M  V30 8 1 8 9
M  V30 9 2 9 10
M  V30 10 1 10 11
M  V30 11 1 11 12
M  V30 12 1 11 13
M  V30 13 1 12 7
M  V30 14 1 1 14
M  V30 15 1 1 15
M  V30 16 1 2 16
M  V30 17 1 2 17
M  V30 18 1 3 18
M  V30 19 1 3 19
M  V30 20 1 4 20
M  V30 21 1 7 21
M  V30 22 1 8 22
M  V30 23 1 8 23
M  V30 24 1 9 24
M  V30 25 1 10 25
M  V30 26 1 11 26
M  V30 27 1 12 27
M  V30 28 1 12 28
M  V30 29 1 13 29
M  V30 30 1 13 30
M  V30 END BOND
M  V30 END CTAB
M  END
