
     RDKit          3D

  0  0  0  0  0  0  0  0  0  0999 V3000
M  V30 BEGIN CTAB
M  V30 COUNTS 29 30 0 0 0
M  V30 BEGIN ATOM
M  V30 1 N -5.57312 0.427741 0.143325 0
M  V30 2 C -4.16683 0.280856 0.0852172 0
M  V30 3 C -3.31649 0.789372 1.04986 0
M  V30 4 C -1.9485 0.642911 0.987348 0
M  V30 5 C -1.35906 -0.0306469 -0.0613331 0
M  V30 6 C -2.17799 -0.548151 -1.03683 0
M  V30 7 C -3.54202 -0.389999 -0.954214 0
M  V30 8 C 0.0994704 -0.181031 -0.118378 0
M  V30 9 N 0.814299 0.319406 0.814673 0
M  V30 10 C 2.22564 0.172625 0.757346 0
M  V30 11 C 2.83972 -0.964295 1.2273 0
M  V30 12 C 4.20971 -1.10561 1.1711 0
M  V30 13 C 4.95333 -0.0732844 0.629113 0
M  V30 14 C 4.35639 1.07639 0.151762 0
M  V30 15 C 2.98192 1.19003 0.221115 0
M  V30 16 N 0.639734 -0.882481 -1.22039 0
M  V30 17 H -6.12292 -0.170457 0.781184 0
M  V30 18 H -6.06397 1.12642 -0.443822 0
M  V30 19 H -3.78132 1.31966 1.87538 0
M  V30 20 H -1.32367 1.07181 1.78867 0
M  V30 21 H -1.69992 -1.07458 -1.85411 0
M  V30 22 H -4.15665 -0.806666 -1.73365 0
M  V30 23 H 2.25025 -1.75415 1.6438 0
M  V30 24 H 4.6843 -1.98978 1.53684 0
M  V30 25 H 6.02643 -0.153836 0.571194 0
M  V30 26 H 4.94486 1.8844 -0.27302 0
M  V30 27 H 2.53066 2.10531 -0.161035 0
M  V30 28 H 0.565678 -1.91516 -1.26657 0
M  V30 29 H 1.11007 -0.366804 -1.98298 0
M  V30 END ATOM
M  V30 BEGIN BOND
M  V30 1 1 1 2
M  V30 2 2 2 3
M  V30 3 1 3 4
M  V30 4 2 4 5
M  V30 5 1 5 6
M  V30 6 2 6 7
M  V30 7 1 5 8
M  V30 8 2 8 9 CFG=2
M  V30 9 1 9 10
M  V30 10 2 10 11
M  V30 11 1 11 12
M  V30 12 2 12 13
M  V30 13 1 13 14
M  V30 14 2 14 15
M  V30 15 1 8 16
M  V30 16 1 7 2
M  V30 17 1 15 10
M  V30 18 1 1 17
M  V30 19 1 1 18
M  V30 20 1 3 19
M  V30 21 1 4 20
M  V30 22 1 6 21
M  V30 23 1 7 22
M  V30 24 1 11 23
M  V30 25 1 12 24
M  V30 26 1 13 25
M  V30 27 1 14 26
M  V30 28 1 15 27
M  V30 29 1 16 28
M  V30 30 1 16 29
M  V30 END BOND
M  V30 END CTAB
M  END
