
     RDKit          3D

  0  0  0  0  0  0  0  0  0  0999 V3000
M  V30 BEGIN CTAB
M  V30 COUNTS 25 25 0 0 0
M  V30 BEGIN ATOM
M  V30 1 N 3.63995 0.10235 0.746113 0
M  V30 2 C 2.57051 0.782921 0.0205808 0
M  V30 3 C 1.42057 -0.202735 -0.0483263 0
M  V30 4 N 1.72104 -1.43532 -0.721055 0
M  V30 5 C 0.662671 -0.297229 1.2616 0
M  V30 6 C 0.0602466 0.351618 0.0196131 0
M  V30 7 C -1.14837 -0.359182 -0.482409 0
M  V30 8 S -2.55485 0.696153 -0.184101 0
M  V30 9 O -2.45069 1.97231 -0.963769 0
M  V30 10 O -2.67504 1.04106 1.26649 0
M  V30 11 C -4.03588 -0.131027 -0.777965 0
M  V30 12 H 3.86512 0.595796 1.64452 0
M  V30 13 H 4.47874 0.109523 0.154428 0
M  V30 14 H 2.90252 1.10805 -0.980852 0
M  V30 15 H 2.27085 1.70359 0.590575 0
M  V30 16 H 2.43084 -2.00425 -0.18921 0
M  V30 17 H 0.908921 -1.99305 -0.99779 0
M  V30 18 H 0.335146 -1.28991 1.56192 0
M  V30 19 H 0.871486 0.422459 2.07118 0
M  V30 20 H -0.0266146 1.47224 0.00422364 0
M  V30 21 H -1.28967 -1.35762 -0.0461284 0
M  V30 22 H -1.06714 -0.474604 -1.5918 0
M  V30 23 H -3.94054 -1.2077 -0.516762 0
M  V30 24 H -4.89747 0.360046 -0.285793 0
M  V30 25 H -4.05235 0.034531 -1.87595 0
M  V30 END ATOM
M  V30 BEGIN BOND
M  V30 1 1 1 2
M  V30 2 1 2 3
M  V30 3 1 3 4
M  V30 4 1 3 5
M  V30 5 1 5 6
M  V30 6 1 6 7
M  V30 7 1 7 8
M  V30 8 2 8 9
M  V30 9 2 8 10
M  V30 10 1 8 11
M  V30 11 1 6 3
M  V30 12 1 1 12
M  V30 13 1 1 13
M  V30 14 1 2 14
M  V30 15 1 2 15
M  V30 16 1 4 16
M  V30 17 1 4 17
M  V30 18 1 5 18
M  V30 19 1 5 19
M  V30 20 1 6 20
M  V30 21 1 7 21
M  V30 22 1 7 22
M  V30 23 1 11 23
M  V30 24 1 11 24
M  V30 25 1 11 25
M  V30 END BOND
M  V30 END CTAB
M  END
