
     RDKit          3D

  0  0  0  0  0  0  0  0  0  0999 V3000
M  V30 BEGIN CTAB
M  V30 COUNTS 58 61 0 0 0
M  V30 BEGIN ATOM
M  V30 1 O 7.96201 0.0735765 3.00597 0
M  V30 2 C 7.72911 0.59724 1.77839 0
M  V30 3 O 8.09872 1.76578 1.51376 0
M  V30 4 C 7.03624 -0.210553 0.744298 0
M  V30 5 C 5.61385 0.291419 0.636901 0
M  V30 6 C 4.93543 -0.534147 -0.408651 0
M  V30 7 O 5.54716 -1.45153 -1.01436 0
M  V30 8 N 3.58977 -0.286816 -0.726082 0
M  V30 9 C 2.86877 0.755363 -0.0470799 0
M  V30 10 C 1.57446 0.982613 -0.807418 0
M  V30 11 C 0.698136 -0.232217 -0.856136 0
M  V30 12 C 1.54251 -1.4225 -1.24334 0
M  V30 13 C 2.91667 -1.06562 -1.729 0
M  V30 14 O 0.118324 -0.526054 0.374074 0
M  V30 15 C -0.708115 0.472013 0.811741 0
M  V30 16 C -1.87275 0.758087 -0.139659 0 CFG=1
M  V30 17 C -1.80305 -0.183879 -1.24936 0 CFG=1
M  V30 18 C -0.386433 -0.0785853 -1.85591 0
M  V30 19 C -1.9816 -1.61918 -0.878197 0
M  V30 20 O -2.59286 0.1862 -2.36845 0
M  V30 21 N -3.05285 0.853766 0.62328 0
M  V30 22 C -3.0515 1.51172 1.8257 0
M  V30 23 N -4.25966 1.4743 2.35939 0
M  V30 24 C -5.08255 0.809562 1.55381 0
M  V30 25 C -4.3069 0.434188 0.480665 0
M  V30 26 N -4.87611 -0.255672 -0.498036 0
M  V30 27 C -6.17558 -0.589827 -0.46209 0
M  V30 28 N -6.79822 -1.33368 -1.51378 0
M  V30 29 N -6.92857 -0.222447 0.585234 0
M  V30 30 C -6.41185 0.482274 1.61721 0
M  V30 31 N -7.22986 0.861632 2.71866 0
M  V30 32 H 7.30602 -0.102412 3.69111 0
M  V30 33 H 7.52445 -0.126308 -0.247562 0
M  V30 34 H 6.98775 -1.27056 1.05447 0
M  V30 35 H 5.0783 0.0901758 1.58871 0
M  V30 36 H 5.59556 1.35688 0.362457 0
M  V30 37 H 3.43477 1.71108 -0.114111 0
M  V30 38 H 2.64826 0.456773 0.997894 0
M  V30 39 H 1.10914 1.88622 -0.420854 0
M  V30 40 H 1.87991 1.20424 -1.86131 0
M  V30 41 H 1.68523 -2.12939 -0.377711 0
M  V30 42 H 1.06503 -2.0267 -2.05096 0
M  V30 43 H 2.88871 -0.536043 -2.71159 0
M  V30 44 H 3.43807 -2.02855 -1.934 0
M  V30 45 H -1.12684 0.115262 1.80009 0
M  V30 46 H -0.170853 1.41848 1.09238 0
M  V30 47 H -1.66114 1.79128 -0.54804 0
M  V30 48 H -0.314971 -0.834453 -2.67963 0
M  V30 49 H -0.312983 0.921964 -2.34963 0
M  V30 50 H -1.05869 -2.23105 -0.956049 0
M  V30 51 H -2.72903 -2.15311 -1.53686 0
M  V30 52 H -2.28642 -1.70385 0.205806 0
M  V30 53 H -2.38227 1.12282 -2.54073 0
M  V30 54 H -2.21059 2.00891 2.31765 0
M  V30 55 H -7.65777 -1.87388 -1.35574 0
M  V30 56 H -6.39891 -1.35314 -2.48469 0
M  V30 57 H -7.37932 0.195355 3.49458 0
M  V30 58 H -7.66408 1.79297 2.73281 0
M  V30 END ATOM
M  V30 BEGIN BOND
M  V30 1 1 1 2
M  V30 2 2 2 3
M  V30 3 1 2 4
M  V30 4 1 4 5
M  V30 5 1 5 6
M  V30 6 2 6 7
M  V30 7 1 6 8
M  V30 8 1 8 9
M  V30 9 1 9 10
M  V30 10 1 10 11
M  V30 11 1 11 12
M  V30 12 1 12 13
M  V30 13 1 11 14
M  V30 14 1 14 15
M  V30 15 1 15 16
M  V30 16 1 16 17
M  V30 17 1 17 18
M  V30 18 1 17 19
M  V30 19 1 17 20 CFG=3
M  V30 20 1 16 21
M  V30 21 1 21 22
M  V30 22 2 22 23
M  V30 23 1 23 24
M  V30 24 2 24 25
M  V30 25 1 25 26
M  V30 26 2 26 27
M  V30 27 1 27 28
M  V30 28 1 27 29
M  V30 29 2 29 30
M  V30 30 1 30 31
M  V30 31 1 13 8
M  V30 32 1 25 21
M  V30 33 1 18 11
M  V30 34 1 30 24
M  V30 35 1 1 32
M  V30 36 1 4 33
M  V30 37 1 4 34
M  V30 38 1 5 35
M  V30 39 1 5 36
M  V30 40 1 9 37
M  V30 41 1 9 38
M  V30 42 1 10 39
M  V30 43 1 10 40
M  V30 44 1 12 41
M  V30 45 1 12 42
M  V30 46 1 13 43
M  V30 47 1 13 44
M  V30 48 1 15 45
M  V30 49 1 15 46
M  V30 50 1 16 47 CFG=3
M  V30 51 1 18 48
M  V30 52 1 18 49
M  V30 53 1 19 50
M  V30 54 1 19 51
M  V30 55 1 19 52
M  V30 56 1 20 53
M  V30 57 1 22 54
M  V30 58 1 28 55
M  V30 59 1 28 56
M  V30 60 1 31 57
M  V30 61 1 31 58
M  V30 END BOND
M  V30 END CTAB
M  END
