
     RDKit          3D

  0  0  0  0  0  0  0  0  0  0999 V3000
M  V30 BEGIN CTAB
M  V30 COUNTS 23 22 0 0 0
M  V30 BEGIN ATOM
M  V30 1 N -4.587 0.774936 1.38332 0
M  V30 2 N -3.30742 1.08835 0.924603 0
M  V30 3 C -2.34186 0.0661601 0.653955 0
M  V30 4 O -2.73744 -1.09993 0.867856 0
M  V30 5 C -1.00445 0.355454 0.16632 0
M  V30 6 N -0.161906 -0.79151 -0.0386694 0
M  V30 7 C 1.14012 -0.731237 -0.611277 0
M  V30 8 C 2.19669 -0.10109 0.194626 0
M  V30 9 O 1.99211 0.382315 1.34451 0
M  V30 10 N 3.51197 -0.0164423 -0.312011 0
M  V30 11 N 4.5556 0.573572 0.430638 0
M  V30 12 N -0.641584 -2.06146 0.385128 0
M  V30 13 O -0.382873 -3.11691 -0.185641 0
M  V30 14 H -5.13648 1.64678 1.53807 0
M  V30 15 H -5.1174 0.211754 0.664909 0
M  V30 16 H -3.04548 2.07341 0.776828 0
M  V30 17 H -0.454354 1.09531 0.830435 0
M  V30 18 H -1.11827 0.963633 -0.788797 0
M  V30 19 H 1.13711 -0.319679 -1.66573 0
M  V30 20 H 1.48682 -1.79549 -0.787695 0
M  V30 21 H 3.73005 -0.396014 -1.28978 0
M  V30 22 H 4.9531 1.31311 -0.20036 0
M  V30 23 H 5.33295 -0.115028 0.592018 0
M  V30 END ATOM
M  V30 BEGIN BOND
M  V30 1 1 1 2
M  V30 2 1 2 3
M  V30 3 2 3 4
M  V30 4 1 3 5
M  V30 5 1 5 6
M  V30 6 1 6 7
M  V30 7 1 7 8
M  V30 8 2 8 9
M  V30 9 1 8 10
M  V30 10 1 10 11
M  V30 11 1 6 12
M  V30 12 2 12 13
M  V30 13 1 1 14
M  V30 14 1 1 15
M  V30 15 1 2 16
M  V30 16 1 5 17
M  V30 17 1 5 18
M  V30 18 1 7 19
M  V30 19 1 7 20
M  V30 20 1 10 21
M  V30 21 1 11 22
M  V30 22 1 11 23
M  V30 END BOND
M  V30 END CTAB
M  END
