
     RDKit          3D

  0  0  0  0  0  0  0  0  0  0999 V3000
M  V30 BEGIN CTAB
M  V30 COUNTS 26 25 0 0 0
M  V30 BEGIN ATOM
M  V30 1 N 5.1205 -1.06684 -0.738337 0
M  V30 2 N 4.12096 -0.447419 0.0173735 0
M  V30 3 C 2.75864 -0.438997 -0.379185 0
M  V30 4 O 2.41772 -1.00964 -1.45602 0
M  V30 5 C 1.72729 0.246758 0.48023 0
M  V30 6 F 1.70319 -0.335868 1.73054 0
M  V30 7 F 2.15937 1.53777 0.595545 0
M  V30 8 C 0.375551 0.132757 -0.221603 0
M  V30 9 F 0.124548 -1.19431 -0.351097 0
M  V30 10 F 0.590539 0.687633 -1.48769 0
M  V30 11 C -0.638929 0.930856 0.519446 0
M  V30 12 F -0.755357 0.45218 1.81253 0
M  V30 13 F -0.117219 2.22793 0.678114 0
M  V30 14 C -1.95973 1.10977 -0.131466 0
M  V30 15 F -2.71573 1.93033 0.757443 0
M  V30 16 F -1.86175 1.6663 -1.36665 0
M  V30 17 C -2.80924 -0.119202 -0.21223 0
M  V30 18 O -2.57835 -1.19451 0.358863 0
M  V30 19 N -3.97945 -0.0303806 -1.0139 0
M  V30 20 N -4.87113 -1.07883 -1.18917 0
M  V30 21 H 5.66025 -1.70116 -0.102606 0
M  V30 22 H 5.74702 -0.389835 -1.18621 0
M  V30 23 H 4.38199 0.0230613 0.899113 0
M  V30 24 H -4.18767 0.860896 -1.49824 0
M  V30 25 H -4.55615 -1.96609 -0.738529 0
M  V30 26 H -5.85687 -0.833159 -1.0014 0
M  V30 END ATOM
M  V30 BEGIN BOND
M  V30 1 1 1 2
M  V30 2 1 2 3
M  V30 3 2 3 4
M  V30 4 1 3 5
M  V30 5 1 5 6
M  V30 6 1 5 7
M  V30 7 1 5 8
M  V30 8 1 8 9
M  V30 9 1 8 10
M  V30 10 1 8 11
M  V30 11 1 11 12
M  V30 12 1 11 13
M  V30 13 1 11 14
M  V30 14 1 14 15
M  V30 15 1 14 16
M  V30 16 1 14 17
M  V30 17 2 17 18
M  V30 18 1 17 19
M  V30 19 1 19 20
M  V30 20 1 1 21
M  V30 21 1 1 22
M  V30 22 1 2 23
M  V30 23 1 19 24
M  V30 24 1 20 25
M  V30 25 1 20 26
M  V30 END BOND
M  V30 END CTAB
M  END
