
     RDKit          3D

  0  0  0  0  0  0  0  0  0  0999 V3000
M  V30 BEGIN CTAB
M  V30 COUNTS 23 23 0 0 0
M  V30 BEGIN ATOM
M  V30 1 N 3.84465 -0.703595 -1.04192 0
M  V30 2 N 2.64965 -0.994839 -0.409009 0
M  V30 3 C 1.94169 -0.104618 0.402475 0
M  V30 4 O 2.39665 1.07049 0.596437 0
M  V30 5 C 0.660452 -0.430584 1.071 0
M  V30 6 C -0.482136 0.133315 0.299719 0
M  V30 7 C -1.75191 -0.171842 0.717988 0
M  V30 8 N -1.98826 -0.967473 1.88546 0
M  V30 9 C -2.84714 0.292722 0.00153921 0
M  V30 10 C -2.60952 1.06649 -1.13115 0
M  V30 11 C -1.35421 1.38354 -1.55837 0
M  V30 12 F -1.17699 2.15734 -2.65234 0
M  V30 13 C -0.276485 0.899367 -0.821483 0
M  V30 14 H 4.65195 -0.509202 -0.439836 0
M  V30 15 H 3.67296 0.151903 -1.65263 0
M  V30 16 H 2.26341 -1.97639 -0.577033 0
M  V30 17 H 0.531819 -1.52292 1.14982 0
M  V30 18 H 0.649929 0.0628597 2.05228 0
M  V30 19 H -2.63838 -0.550896 2.58374 0
M  V30 20 H -1.53352 -1.88496 1.9923 0
M  V30 21 H -3.85103 0.0466077 0.332041 0
M  V30 22 H -3.49939 1.40992 -1.65602 0
M  V30 23 H 0.745802 1.14276 -1.14501 0
M  V30 END ATOM
M  V30 BEGIN BOND
M  V30 1 1 1 2
M  V30 2 1 2 3
M  V30 3 2 3 4
M  V30 4 1 3 5
M  V30 5 1 5 6
M  V30 6 2 6 7
M  V30 7 1 7 8
M  V30 8 1 7 9
M  V30 9 2 9 10
M  V30 10 1 10 11
M  V30 11 1 11 12
M  V30 12 2 11 13
M  V30 13 1 13 6
M  V30 14 1 1 14
M  V30 15 1 1 15
M  V30 16 1 2 16
M  V30 17 1 5 17
M  V30 18 1 5 18
M  V30 19 1 8 19
M  V30 20 1 8 20
M  V30 21 1 9 21
M  V30 22 1 10 22
M  V30 23 1 13 23
M  V30 END BOND
M  V30 END CTAB
M  END
