
     RDKit          3D

  0  0  0  0  0  0  0  0  0  0999 V3000
M  V30 BEGIN CTAB
M  V30 COUNTS 38 39 0 0 0
M  V30 BEGIN ATOM
M  V30 1 C 6.26338 -0.265578 -1.35162 0
M  V30 2 C 4.96265 0.0924219 -0.739692 0
M  V30 3 O 3.87874 -0.81409 -1.02379 0
M  V30 4 C 2.64896 -0.43139 -0.372033 0
M  V30 5 C 2.59668 0.687117 0.39834 0
M  V30 6 C 1.41417 1.04238 1.02251 0
M  V30 7 C 0.240455 0.236867 0.856443 0
M  V30 8 C 0.332787 -0.867162 0.0782061 0
M  V30 9 C 1.53726 -1.20567 -0.538045 0
M  V30 10 N -0.929358 0.673284 1.50032 0
M  V30 11 N -0.834184 1.9545 2.17494 0
M  V30 12 C -2.19204 0.0665962 1.60919 0
M  V30 13 C -2.9403 -0.385162 0.46968 0
M  V30 14 C -3.31371 0.460226 -0.575752 0
M  V30 15 N -2.73272 1.74681 -0.503849 0
M  V30 16 C -4.13865 0.0409509 -1.59466 0
M  V30 17 C -4.64675 -1.23574 -1.6494 0
M  V30 18 C -4.28149 -2.08025 -0.619171 0
M  V30 19 C -3.46458 -1.67765 0.395357 0
M  V30 20 H 6.79263 -1.12326 -0.843488 0
M  V30 21 H 6.91832 0.661635 -1.30281 0
M  V30 22 H 6.25152 -0.529946 -2.42453 0
M  V30 23 H 5.07634 0.136318 0.386288 0
M  V30 24 H 4.61748 1.09844 -1.09252 0
M  V30 25 H 3.44392 1.33319 0.568042 0
M  V30 26 H 1.37972 1.91712 1.63542 0
M  V30 27 H -0.558438 -1.48045 -0.0572619 0
M  V30 28 H 1.54679 -2.08843 -1.12448 0
M  V30 29 H -0.433992 1.77678 3.12812 0
M  V30 30 H -1.78899 2.34194 2.33304 0
M  V30 31 H -2.11229 -0.862661 2.31901 0
M  V30 32 H -2.92789 0.67069 2.25085 0
M  V30 33 H -3.25006 2.54213 -0.0958144 0
M  V30 34 H -1.77651 1.88624 -0.873781 0
M  V30 35 H -4.39671 0.766293 -2.394 0
M  V30 36 H -5.28107 -1.56682 -2.45887 0
M  V30 37 H -4.69454 -3.10423 -0.667153 0
M  V30 38 H -3.20754 -2.41345 1.17697 0
M  V30 END ATOM
M  V30 BEGIN BOND
M  V30 1 1 1 2
M  V30 2 1 2 3
M  V30 3 1 3 4
M  V30 4 2 4 5
M  V30 5 1 5 6
M  V30 6 2 6 7
M  V30 7 1 7 8
M  V30 8 2 8 9
M  V30 9 1 7 10
M  V30 10 1 10 11
M  V30 11 1 10 12
M  V30 12 1 12 13
M  V30 13 2 13 14
M  V30 14 1 14 15
M  V30 15 1 14 16
M  V30 16 2 16 17
M  V30 17 1 17 18
M  V30 18 2 18 19
M  V30 19 1 9 4
M  V30 20 1 19 13
M  V30 21 1 1 20
M  V30 22 1 1 21
M  V30 23 1 1 22
M  V30 24 1 2 23
M  V30 25 1 2 24
M  V30 26 1 5 25
M  V30 27 1 6 26
M  V30 28 1 8 27
M  V30 29 1 9 28
M  V30 30 1 11 29
M  V30 31 1 11 30
M  V30 32 1 12 31
M  V30 33 1 12 32
M  V30 34 1 15 33
M  V30 35 1 15 34
M  V30 36 1 16 35
M  V30 37 1 17 36
M  V30 38 1 18 37
M  V30 39 1 19 38
M  V30 END BOND
M  V30 END CTAB
M  END
