
     RDKit          3D

  0  0  0  0  0  0  0  0  0  0999 V3000
M  V30 BEGIN CTAB
M  V30 COUNTS 41 44 0 0 0
M  V30 BEGIN ATOM
M  V30 1 N 1.32176 5.17252 1.48643 0
M  V30 2 C 0.966776 3.90057 0.958172 0
M  V30 3 C 1.74653 2.8015 1.26495 0
M  V30 4 C 1.45166 1.54414 0.782059 0
M  V30 5 C 0.34697 1.34201 -0.0419981 0
M  V30 6 C -0.424025 2.431 -0.342931 0
M  V30 7 C -0.131206 3.70504 0.143998 0
M  V30 8 C 0.0469028 0.0333283 -0.646764 0
M  V30 9 C 0.877621 -1.07858 -0.16619 0
M  V30 10 C 0.625271 -2.35996 -0.590395 0
M  V30 11 C 1.40881 -3.4383 -0.243074 0
M  V30 12 C 2.50195 -3.20104 0.575455 0
M  V30 13 N 3.32895 -4.28731 0.950072 0
M  V30 14 C 2.78388 -1.91966 1.02242 0
M  V30 15 C 1.98656 -0.853204 0.665002 0
M  V30 16 O 2.24172 0.452567 1.11306 0
M  V30 17 C -1.3248 -0.241625 -1.05169 0
M  V30 18 C -2.38324 -0.308966 -0.205046 0
M  V30 19 C -3.69451 -0.55569 -0.694749 0
M  V30 20 C -3.92304 -0.732935 -2.0308 0
M  V30 21 C -2.88678 -0.674184 -2.91226 0
M  V30 22 C -1.63292 -0.435437 -2.42405 0
M  V30 23 C -2.29338 -0.194919 1.2164 0
M  V30 24 O -1.1928 -0.387703 1.96016 0
M  V30 25 O -3.35356 0.114816 1.86935 0
M  V30 26 H 0.774249 5.6153 2.27654 0
M  V30 27 H 2.12336 5.70742 1.11934 0
M  V30 28 H 2.61935 2.96335 1.91361 0
M  V30 29 H -1.30646 2.33492 -0.983784 0
M  V30 30 H -0.73073 4.57 -0.085981 0
M  V30 31 H 0.578759 0.189818 -1.72392 0
M  V30 32 H -0.231215 -2.59617 -1.24146 0
M  V30 33 H 1.17762 -4.45214 -0.600978 0
M  V30 34 H 2.91002 -5.19428 1.21951 0
M  V30 35 H 4.35799 -4.15369 0.94819 0
M  V30 36 H 3.65132 -1.75677 1.66703 0
M  V30 37 H -4.54285 -0.61057 -0.0264899 0
M  V30 38 H -4.92592 -0.922465 -2.41341 0
M  V30 39 H -3.01723 -0.807035 -3.96468 0
M  V30 40 H -0.810291 -0.391874 -3.11967 0
M  V30 41 H -1.02306 -1.32381 2.35859 0
M  V30 END ATOM
M  V30 BEGIN BOND
M  V30 1 1 1 2
M  V30 2 2 2 3
M  V30 3 1 3 4
M  V30 4 2 4 5
M  V30 5 1 5 6
M  V30 6 2 6 7
M  V30 7 1 5 8
M  V30 8 1 8 9
M  V30 9 2 9 10
M  V30 10 1 10 11
M  V30 11 2 11 12
M  V30 12 1 12 13
M  V30 13 1 12 14
M  V30 14 2 14 15
M  V30 15 1 15 16
M  V30 16 1 8 17
M  V30 17 2 17 18
M  V30 18 1 18 19
M  V30 19 2 19 20
M  V30 20 1 20 21
M  V30 21 2 21 22
M  V30 22 1 18 23
M  V30 23 1 23 24
M  V30 24 2 23 25
M  V30 25 1 7 2
M  V30 26 1 15 9
M  V30 27 1 22 17
M  V30 28 1 16 4
M  V30 29 1 1 26
M  V30 30 1 1 27
M  V30 31 1 3 28
M  V30 32 1 6 29
M  V30 33 1 7 30
M  V30 34 1 8 31
M  V30 35 1 10 32
M  V30 36 1 11 33
M  V30 37 1 13 34
M  V30 38 1 13 35
M  V30 39 1 14 36
M  V30 40 1 19 37
M  V30 41 1 20 38
M  V30 42 1 21 39
M  V30 43 1 22 40
M  V30 44 1 24 41
M  V30 END BOND
M  V30 END CTAB
M  END
