
     RDKit          3D

  0  0  0  0  0  0  0  0  0  0999 V3000
M  V30 BEGIN CTAB
M  V30 COUNTS 33 35 0 0 0
M  V30 BEGIN ATOM
M  V30 1 N -3.75773 0.627465 1.86954 0
M  V30 2 C -3.70212 0.0684212 0.565197 0
M  V30 3 C -4.55141 -0.948461 0.199937 0
M  V30 4 C -4.44543 -1.44275 -1.07477 0
M  V30 5 N -5.3107 -2.49481 -1.47928 0
M  V30 6 N -3.5212 -0.907691 -1.89256 0
M  V30 7 C -2.68374 0.0832041 -1.55754 0
M  V30 8 N -2.78338 0.5716 -0.308071 0
M  V30 9 S -1.47919 0.74894 -2.70202 0
M  V30 10 C -0.537836 2.0504 -1.8965 0
M  V30 11 C 0.30972 1.50052 -0.79534 0
M  V30 12 O 0.016302 1.34709 0.465401 0
M  V30 13 N 1.01968 0.830425 1.12817 0
M  V30 14 C 2.04421 0.621638 0.282702 0
M  V30 15 N 1.58636 1.04687 -0.925275 0
M  V30 16 C 3.35303 0.0637208 0.589505 0
M  V30 17 C 3.67004 -0.329647 1.86826 0
M  V30 18 C 4.9244 -0.857062 2.13382 0
M  V30 19 C 5.86408 -0.994121 1.12991 0
M  V30 20 C 5.55627 -0.603722 -0.151478 0
M  V30 21 C 4.29899 -0.0788359 -0.399588 0
M  V30 22 H -3.69097 0.00627059 2.6972 0
M  V30 23 H -3.86495 1.65537 1.93717 0
M  V30 24 H -5.26185 -1.31833 0.915386 0
M  V30 25 H -5.95443 -2.41811 -2.29498 0
M  V30 26 H -5.30792 -3.38753 -0.941217 0
M  V30 27 H 0.105132 2.58251 -2.62622 0
M  V30 28 H -1.22338 2.85252 -1.49203 0
M  V30 29 H 2.96896 -0.242353 2.68514 0
M  V30 30 H 5.21315 -1.17679 3.11645 0
M  V30 31 H 6.83257 -1.40439 1.35024 0
M  V30 32 H 6.24002 -0.681374 -0.984752 0
M  V30 33 H 4.07332 0.222724 -1.41241 0
M  V30 END ATOM
M  V30 BEGIN BOND
M  V30 1 1 1 2
M  V30 2 2 2 3
M  V30 3 1 3 4
M  V30 4 1 4 5
M  V30 5 2 4 6
M  V30 6 1 6 7
M  V30 7 2 7 8
M  V30 8 1 7 9
M  V30 9 1 9 10
M  V30 10 1 10 11
M  V30 11 1 11 12
M  V30 12 1 12 13
M  V30 13 2 13 14
M  V30 14 1 14 15
M  V30 15 1 14 16
M  V30 16 2 16 17
M  V30 17 1 17 18
M  V30 18 2 18 19
M  V30 19 1 19 20
M  V30 20 2 20 21
M  V30 21 1 8 2
M  V30 22 2 15 11
M  V30 23 1 21 16
M  V30 24 1 1 22
M  V30 25 1 1 23
M  V30 26 1 3 24
M  V30 27 1 5 25
M  V30 28 1 5 26
M  V30 29 1 10 27
M  V30 30 1 10 28
M  V30 31 1 17 29
M  V30 32 1 18 30
M  V30 33 1 19 31
M  V30 34 1 20 32
M  V30 35 1 21 33
M  V30 END BOND
M  V30 END CTAB
M  END
