
     RDKit          3D

  0  0  0  0  0  0  0  0  0  0999 V3000
M  V30 BEGIN CTAB
M  V30 COUNTS 38 40 0 0 0
M  V30 BEGIN ATOM
M  V30 1 N 5.41475 3.43409 0.12252 0
M  V30 2 N 4.37576 2.49815 0.143469 0
M  V30 3 C 4.6608 1.13097 0.213832 0
M  V30 4 O 5.86539 0.731486 0.259115 0
M  V30 5 C 3.56488 0.1497 0.235654 0
M  V30 6 C 3.8765 -1.2164 0.304392 0
M  V30 7 C 2.87517 -2.15411 0.326734 0
M  V30 8 C 1.54155 -1.82058 0.284256 0
M  V30 9 C 1.23136 -0.481987 0.216782 0
M  V30 10 C 2.2386 0.479415 0.193463 0
M  V30 11 N -0.0558841 -0.167861 0.178349 0
M  V30 12 C -1.09055 -1.06703 0.200259 0
M  V30 13 N -0.764909 -2.34365 0.26286 0
M  V30 14 C 0.548693 -2.76381 0.307626 0
M  V30 15 O 0.779708 -3.9933 0.367959 0
M  V30 16 N -1.70898 -3.36475 0.23995 0
M  V30 17 C -2.43981 -0.519063 0.110911 0
M  V30 18 C -3.54606 -1.24419 0.418804 0
M  V30 19 C -4.79946 -0.630132 0.237669 0
M  V30 20 C -4.90146 0.65551 -0.23158 0
M  V30 21 C -3.78674 1.40321 -0.546382 0
M  V30 22 C -2.57187 0.805947 -0.370883 0
M  V30 23 C -3.89171 2.8023 -1.05759 0
M  V30 24 H 6.29643 3.08292 0.51097 0
M  V30 25 H 5.47567 3.80388 -0.848831 0
M  V30 26 H 3.40585 2.84347 0.105856 0
M  V30 27 H 4.91716 -1.49411 0.338342 0
M  V30 28 H 3.11921 -3.22539 0.380627 0
M  V30 29 H 1.94943 1.51584 0.140228 0
M  V30 30 H -1.88422 -3.9107 1.10345 0
M  V30 31 H -2.23637 -3.59473 -0.61875 0
M  V30 32 H -3.54971 -2.24418 0.822636 0
M  V30 33 H -5.69298 -1.2027 0.480152 0
M  V30 34 H -5.86302 1.15054 -0.379345 0
M  V30 35 H -1.66909 1.36973 -0.611255 0
M  V30 36 H -3.91929 2.85322 -2.14904 0
M  V30 37 H -4.77165 3.32168 -0.636127 0
M  V30 38 H -2.99314 3.40662 -0.739993 0
M  V30 END ATOM
M  V30 BEGIN BOND
M  V30 1 1 1 2
M  V30 2 1 2 3
M  V30 3 2 3 4
M  V30 4 1 3 5
M  V30 5 2 5 6
M  V30 6 1 6 7
M  V30 7 2 7 8
M  V30 8 1 8 9
M  V30 9 2 9 10
M  V30 10 1 9 11
M  V30 11 2 11 12
M  V30 12 1 12 13
M  V30 13 1 13 14
M  V30 14 2 14 15
M  V30 15 1 13 16
M  V30 16 1 12 17
M  V30 17 2 17 18
M  V30 18 1 18 19
M  V30 19 2 19 20
M  V30 20 1 20 21
M  V30 21 2 21 22
M  V30 22 1 21 23
M  V30 23 1 10 5
M  V30 24 1 22 17
M  V30 25 1 14 8
M  V30 26 1 1 24
M  V30 27 1 1 25
M  V30 28 1 2 26
M  V30 29 1 6 27
M  V30 30 1 7 28
M  V30 31 1 10 29
M  V30 32 1 16 30
M  V30 33 1 16 31
M  V30 34 1 18 32
M  V30 35 1 19 33
M  V30 36 1 20 34
M  V30 37 1 22 35
M  V30 38 1 23 36
M  V30 39 1 23 37
M  V30 40 1 23 38
M  V30 END BOND
M  V30 END CTAB
M  END
