
     RDKit          3D

  0  0  0  0  0  0  0  0  0  0999 V3000
M  V30 BEGIN CTAB
M  V30 COUNTS 53 55 0 0 0
M  V30 BEGIN ATOM
M  V30 1 N -4.23207 1.82456 -0.0324909 0
M  V30 2 C -3.56354 0.59663 0.198125 0 CFG=1
M  V30 3 C -4.21342 -0.476699 -0.605518 0
M  V30 4 C -5.6557 -0.561273 -0.152861 0
M  V30 5 C -6.02177 -1.39195 0.872854 0
M  V30 6 C -7.32274 -1.48128 1.29496 0
M  V30 7 C -8.28657 -0.732236 0.690288 0
M  V30 8 C -7.93961 0.117386 -0.351869 0
M  V30 9 C -6.62006 0.198992 -0.770263 0
M  V30 10 C -2.09145 0.807408 -0.114072 0 CFG=1
M  V30 11 O -1.66987 1.80298 0.754754 0
M  V30 12 C -1.35165 -0.46994 -0.0672335 0
M  V30 13 N 0.0319527 -0.484959 -0.35923 0
M  V30 14 N 0.329158 -0.0891781 -1.66444 0
M  V30 15 C 0.807993 0.156326 0.632921 0
M  V30 16 C 2.28228 0.0447865 0.444319 0
M  V30 17 C 2.90844 -0.84062 -0.376198 0
M  V30 18 C 4.30441 -0.839956 -0.454776 0
M  V30 19 C 5.10272 0.0173064 0.260117 0
M  V30 20 C 4.4361 0.915443 1.0942 0
M  V30 21 C 3.06143 0.929068 1.18409 0
M  V30 22 C 6.55676 0.010126 0.180711 0
M  V30 23 N 7.25309 0.889974 0.909508 0
M  V30 24 C 8.61156 0.915379 0.869194 0
M  V30 25 C 9.3059 0.0257138 0.0683012 0
M  V30 26 C 8.62112 -0.894044 -0.69526 0
M  V30 27 C 7.24326 -0.868808 -0.610698 0
M  V30 28 H -3.93032 2.60551 0.493427 0
M  V30 29 H -4.30225 2.03217 -1.02319 0
M  V30 30 H -3.67579 0.354938 1.28324 0
M  V30 31 H -4.20883 -0.276627 -1.68551 0
M  V30 32 H -3.7895 -1.46407 -0.349872 0
M  V30 33 H -5.24698 -2.00057 1.36694 0
M  V30 34 H -7.58316 -2.16266 2.12606 0
M  V30 35 H -9.31635 -0.821739 1.04506 0
M  V30 36 H -8.7353 0.687095 -0.796222 0
M  V30 37 H -6.35185 0.860959 -1.58334 0
M  V30 38 H -2.04612 1.19165 -1.16193 0
M  V30 39 H -1.94275 1.60083 1.69168 0
M  V30 40 H -1.56447 -0.999044 0.912642 0
M  V30 41 H -1.84781 -1.165 -0.816422 0
M  V30 42 H 1.09793 0.5981 -1.7259 0
M  V30 43 H 0.322325 -0.836715 -2.35829 0
M  V30 44 H 0.533689 -0.217093 1.62931 0
M  V30 45 H 0.604302 1.26288 0.600902 0
M  V30 46 H 2.31614 -1.53648 -0.95426 0
M  V30 47 H 4.72188 -1.56564 -1.12242 0
M  V30 48 H 5.02821 1.62367 1.68909 0
M  V30 49 H 2.59879 1.65552 1.85477 0
M  V30 50 H 9.20403 1.61321 1.44583 0
M  V30 51 H 10.3773 0.0381865 0.0305239 0
M  V30 52 H 9.12715 -1.60544 -1.3332 0
M  V30 53 H 6.72203 -1.59478 -1.21386 0
M  V30 END ATOM
M  V30 BEGIN BOND
M  V30 1 1 1 2
M  V30 2 1 2 3
M  V30 3 1 3 4
M  V30 4 2 4 5
M  V30 5 1 5 6
M  V30 6 2 6 7
M  V30 7 1 7 8
M  V30 8 2 8 9
M  V30 9 1 2 10
M  V30 10 1 10 11
M  V30 11 1 10 12
M  V30 12 1 12 13
M  V30 13 1 13 14
M  V30 14 1 13 15
M  V30 15 1 15 16
M  V30 16 2 16 17
M  V30 17 1 17 18
M  V30 18 2 18 19
M  V30 19 1 19 20
M  V30 20 2 20 21
M  V30 21 1 19 22
M  V30 22 2 22 23
M  V30 23 1 23 24
M  V30 24 2 24 25
M  V30 25 1 25 26
M  V30 26 2 26 27
M  V30 27 1 9 4
M  V30 28 1 21 16
M  V30 29 1 27 22
M  V30 30 1 1 28
M  V30 31 1 1 29
M  V30 32 1 2 30 CFG=1
M  V30 33 1 3 31
M  V30 34 1 3 32
M  V30 35 1 5 33
M  V30 36 1 6 34
M  V30 37 1 7 35
M  V30 38 1 8 36
M  V30 39 1 9 37
M  V30 40 1 10 38 CFG=3
M  V30 41 1 11 39
M  V30 42 1 12 40
M  V30 43 1 12 41
M  V30 44 1 14 42
M  V30 45 1 14 43
M  V30 46 1 15 44
M  V30 47 1 15 45
M  V30 48 1 17 46
M  V30 49 1 18 47
M  V30 50 1 20 48
M  V30 51 1 21 49
M  V30 52 1 24 50
M  V30 53 1 25 51
M  V30 54 1 26 52
M  V30 55 1 27 53
M  V30 END BOND
M  V30 END CTAB
M  END
