
     RDKit          3D

  0  0  0  0  0  0  0  0  0  0999 V3000
M  V30 BEGIN CTAB
M  V30 COUNTS 33 34 0 0 0
M  V30 BEGIN ATOM
M  V30 1 N -4.16158 1.61219 -2.1134 0
M  V30 2 C -3.47704 0.781539 -1.18316 0
M  V30 3 C -4.08798 0.272946 -0.0702583 0
M  V30 4 C -3.46271 -0.538315 0.861255 0
M  V30 5 N -4.14444 -1.03683 1.99706 0
M  V30 6 C -2.13231 -0.845363 0.636955 0
M  V30 7 C -1.4675 -0.363067 -0.463462 0
M  V30 8 C -2.15138 0.455089 -1.37476 0
M  V30 9 C -0.0706592 -0.677129 -0.706248 0
M  V30 10 O 0.484488 -0.298579 -1.78854 0
M  V30 11 N 0.71903 -1.39266 0.211387 0
M  V30 12 C 2.11474 -1.70411 -0.0356922 0
M  V30 13 C 2.95081 -0.502773 0.184987 0
M  V30 14 C 2.44766 0.674233 0.70351 0
M  V30 15 C 3.23865 1.79228 0.904339 0
M  V30 16 C 4.55902 1.74917 0.586128 0
M  V30 17 C 5.07672 0.574012 0.0650179 0
M  V30 18 C 4.30406 -0.543046 -0.139757 0
M  V30 19 H -3.63715 2.00222 -2.92061 0
M  V30 20 H -5.17733 1.80647 -1.95533 0
M  V30 21 H -5.13457 0.527494 0.0863097 0
M  V30 22 H -4.49191 -2.00355 1.98154 0
M  V30 23 H -4.27782 -0.424721 2.81104 0
M  V30 24 H -1.64531 -1.48885 1.37827 0
M  V30 25 H -1.57441 0.801695 -2.21739 0
M  V30 26 H 0.307871 -1.72002 1.11061 0
M  V30 27 H 2.42617 -2.48645 0.682038 0
M  V30 28 H 2.25709 -2.14995 -1.04704 0
M  V30 29 H 1.40681 0.760956 0.974172 0
M  V30 30 H 2.79135 2.68952 1.31455 0
M  V30 31 H 5.18452 2.59682 0.732732 0
M  V30 32 H 6.11995 0.537386 -0.187481 0
M  V30 33 H 4.70516 -1.45862 -0.544544 0
M  V30 END ATOM
M  V30 BEGIN BOND
M  V30 1 1 1 2
M  V30 2 2 2 3
M  V30 3 1 3 4
M  V30 4 1 4 5
M  V30 5 2 4 6
M  V30 6 1 6 7
M  V30 7 2 7 8
M  V30 8 1 7 9
M  V30 9 2 9 10
M  V30 10 1 9 11
M  V30 11 1 11 12
M  V30 12 1 12 13
M  V30 13 2 13 14
M  V30 14 1 14 15
M  V30 15 2 15 16
M  V30 16 1 16 17
M  V30 17 2 17 18
M  V30 18 1 8 2
M  V30 19 1 18 13
M  V30 20 1 1 19
M  V30 21 1 1 20
M  V30 22 1 3 21
M  V30 23 1 5 22
M  V30 24 1 5 23
M  V30 25 1 6 24
M  V30 26 1 8 25
M  V30 27 1 11 26
M  V30 28 1 12 27
M  V30 29 1 12 28
M  V30 30 1 14 29
M  V30 31 1 15 30
M  V30 32 1 16 31
M  V30 33 1 17 32
M  V30 34 1 18 33
M  V30 END BOND
M  V30 END CTAB
M  END
