
     RDKit          3D

  0  0  0  0  0  0  0  0  0  0999 V3000
M  V30 BEGIN CTAB
M  V30 COUNTS 45 47 0 0 0
M  V30 BEGIN ATOM
M  V30 1 N 4.23726 -0.411999 -2.90237 0
M  V30 2 C 3.18663 -0.570641 -1.9042 0
M  V30 3 N 2.45282 0.432087 -1.60966 0
M  V30 4 C 1.40263 0.241198 -0.555219 0
M  V30 5 N 0.882307 -1.06739 -0.58312 0
M  V30 6 C -0.472322 -1.41804 -0.441084 0
M  V30 7 C -1.23838 -1.22056 0.794083 0
M  V30 8 C -1.47563 0.161191 1.28401 0
M  V30 9 O -2.11817 1.03285 0.454606 0
M  V30 10 C -3.35132 1.06616 -0.0893348 0
M  V30 11 C -4.37756 0.165191 0.0745022 0
M  V30 12 C -5.59549 0.331702 -0.54935 0
M  V30 13 C -5.80608 1.41029 -1.35142 0
M  V30 14 C -4.80383 2.34242 -1.54504 0
M  V30 15 C -3.60276 2.17187 -0.926089 0
M  V30 16 Cl -2.35266 3.39045 -1.20378 0
M  V30 17 C 1.80749 -2.14511 -0.89808 0
M  V30 18 N 1.46292 -3.45321 -0.475834 0
M  V30 19 N 2.89889 -1.9076 -1.53963 0
M  V30 20 C 2.19734 0.497921 0.709776 0
M  V30 21 C 2.87017 1.69455 0.752075 0
M  V30 22 C 3.65996 2.0186 1.86565 0
M  V30 23 C 3.75433 1.12748 2.91413 0
M  V30 24 C 3.08215 -0.0765161 2.88023 0
M  V30 25 C 2.30438 -0.360166 1.74871 0
M  V30 26 H 4.21321 0.393663 -3.54731 0
M  V30 27 H 5.00342 -1.09159 -2.97403 0
M  V30 28 H 0.70511 1.07282 -0.656288 0
M  V30 29 H -1.10696 -0.90115 -1.2623 0
M  V30 30 H -0.663574 -2.51384 -0.7454 0
M  V30 31 H -2.22122 -1.75073 0.65558 0
M  V30 32 H -0.798799 -1.78136 1.67718 0
M  V30 33 H -0.621197 0.632166 1.79173 0
M  V30 34 H -2.19973 0.00121927 2.18891 0
M  V30 35 H -4.22273 -0.685614 0.72222 0
M  V30 36 H -6.35286 -0.399256 -0.385548 0
M  V30 37 H -6.744 1.55138 -1.84034 0
M  V30 38 H -4.9698 3.21118 -2.18897 0
M  V30 39 H 1.61435 -3.70134 0.520989 0
M  V30 40 H 1.07283 -4.13444 -1.1467 0
M  V30 41 H 2.81111 2.41426 -0.0636611 0
M  V30 42 H 4.19944 2.94479 1.93256 0
M  V30 43 H 4.36725 1.37307 3.78428 0
M  V30 44 H 3.13748 -0.794249 3.68688 0
M  V30 45 H 1.77159 -1.29374 1.69964 0
M  V30 END ATOM
M  V30 BEGIN BOND
M  V30 1 1 1 2
M  V30 2 2 2 3
M  V30 3 1 3 4
M  V30 4 1 4 5
M  V30 5 1 5 6
M  V30 6 1 6 7
M  V30 7 1 7 8
M  V30 8 1 8 9
M  V30 9 1 9 10
M  V30 10 2 10 11
M  V30 11 1 11 12
M  V30 12 2 12 13
M  V30 13 1 13 14
M  V30 14 2 14 15
M  V30 15 1 15 16
M  V30 16 1 5 17
M  V30 17 1 17 18
M  V30 18 2 17 19
M  V30 19 1 4 20
M  V30 20 2 20 21
M  V30 21 1 21 22
M  V30 22 2 22 23
M  V30 23 1 23 24
M  V30 24 2 24 25
M  V30 25 1 19 2
M  V30 26 1 25 20
M  V30 27 1 15 10
M  V30 28 1 1 26
M  V30 29 1 1 27
M  V30 30 1 4 28
M  V30 31 1 6 29
M  V30 32 1 6 30
M  V30 33 1 7 31
M  V30 34 1 7 32
M  V30 35 1 8 33
M  V30 36 1 8 34
M  V30 37 1 11 35
M  V30 38 1 12 36
M  V30 39 1 13 37
M  V30 40 1 14 38
M  V30 41 1 18 39
M  V30 42 1 18 40
M  V30 43 1 21 41
M  V30 44 1 22 42
M  V30 45 1 23 43
M  V30 46 1 24 44
M  V30 47 1 25 45
M  V30 END BOND
M  V30 END CTAB
M  END
