
     RDKit          3D

  0  0  0  0  0  0  0  0  0  0999 V3000
M  V30 BEGIN CTAB
M  V30 COUNTS 17 17 0 0 0
M  V30 BEGIN ATOM
M  V30 1 N -1.91705 1.57086 -0.00729447 0
M  V30 2 C -0.70265 0.841226 -0.0163552 0
M  V30 3 C 0.496236 1.52244 -0.116603 0
M  V30 4 C 1.72284 0.88608 -0.132312 0
M  V30 5 C 1.77176 -0.489925 -0.0449545 0
M  V30 6 C 0.588785 -1.18507 0.0554572 0
M  V30 7 C -0.639481 -0.536562 0.0704506 0
M  V30 8 N -1.83169 -1.26938 0.173735 0
M  V30 9 F 0.640672 -2.53915 0.141259 0
M  V30 10 O 3.00047 -1.15978 -0.0585813 0
M  V30 11 H -2.62164 1.33528 -0.739114 0
M  V30 12 H -2.12461 2.3163 0.688599 0
M  V30 13 H 0.454212 2.61095 -0.18556 0
M  V30 14 H 2.66241 1.41837 -0.21077 0
M  V30 15 H -2.66261 -0.971668 0.731507 0
M  V30 16 H -1.87819 -2.18386 -0.35456 0
M  V30 17 H 3.04054 -2.1661 0.00509599 0
M  V30 END ATOM
M  V30 BEGIN BOND
M  V30 1 1 1 2
M  V30 2 2 2 3
M  V30 3 1 3 4
M  V30 4 2 4 5
M  V30 5 1 5 6
M  V30 6 2 6 7
M  V30 7 1 7 8
M  V30 8 1 6 9
M  V30 9 1 5 10
M  V30 10 1 7 2
M  V30 11 1 1 11
M  V30 12 1 1 12
M  V30 13 1 3 13
M  V30 14 1 4 14
M  V30 15 1 8 15
M  V30 16 1 8 16
M  V30 17 1 10 17
M  V30 END BOND
M  V30 END CTAB
M  END
