
     RDKit          3D

  0  0  0  0  0  0  0  0  0  0999 V3000
M  V30 BEGIN CTAB
M  V30 COUNTS 57 60 0 0 0
M  V30 BEGIN ATOM
M  V30 1 N 7.70298 0.568818 -2.37367 0
M  V30 2 C 6.50225 0.0349015 -1.83674 0
M  V30 3 N 6.11745 -1.11231 -2.22658 0
M  V30 4 C 5.71646 0.768553 -0.861667 0
M  V30 5 C 6.15299 2.00725 -0.455651 0
M  V30 6 C 5.41408 2.70438 0.465827 0
M  V30 7 C 4.24158 2.15827 0.976601 0
M  V30 8 C 3.78535 0.919811 0.584577 0
M  V30 9 O 2.62094 0.398301 1.10389 0
M  V30 10 C 2.66073 -0.367695 2.23877 0
M  V30 11 C 1.55113 -0.908518 2.79985 0
M  V30 12 C 1.67321 -1.69413 3.98108 0
M  V30 13 C 2.90426 -1.89685 4.53923 0
M  V30 14 C 4.04443 -1.36054 3.99126 0
M  V30 15 C 3.90014 -0.607232 2.85286 0
M  V30 16 C 0.228232 -0.740172 2.27316 0
M  V30 17 O -0.725983 -1.3156 2.91837 0
M  V30 18 N -0.125011 -0.0173737 1.13552 0
M  V30 19 C -1.46535 0.146581 0.633422 0
M  V30 20 C -2.58518 0.114978 1.39838 0
M  V30 21 C -3.85853 0.247047 0.810361 0
M  V30 22 C -4.00026 0.411488 -0.546689 0
M  V30 23 C -2.85405 0.441603 -1.29465 0
M  V30 24 C -1.59964 0.312694 -0.732718 0
M  V30 25 C -5.29048 0.586139 -1.16631 0
M  V30 26 C -5.93434 1.8314 -1.02723 0
M  V30 27 C -7.147 2.0238 -1.63267 0
M  V30 28 C -7.76399 1.04232 -2.37554 0
M  V30 29 C -7.14593 -0.171105 -2.51566 0
M  V30 30 C -5.9032 -0.389476 -1.90312 0
M  V30 31 S -5.18276 -1.94754 -2.08226 0
M  V30 32 N -4.92082 -2.63394 -0.495309 0
M  V30 33 O -6.20898 -2.89081 -2.73024 0
M  V30 34 O -3.92167 -1.99167 -2.8411 0
M  V30 35 C 4.55814 0.237938 -0.35197 0
M  V30 36 H 7.88549 0.521228 -3.39707 0
M  V30 37 H 8.38835 1.00467 -1.72131 0
M  V30 38 H 6.64417 -1.67597 -2.92141 0
M  V30 39 H 7.06648 2.44559 -0.846137 0
M  V30 40 H 5.75213 3.68254 0.791171 0
M  V30 41 H 3.64368 2.70037 1.70954 0
M  V30 42 H 0.789143 -2.13417 4.44162 0
M  V30 43 H 3.02428 -2.49009 5.43706 0
M  V30 44 H 5.03373 -1.51913 4.43334 0
M  V30 45 H 4.79162 -0.16151 2.38561 0
M  V30 46 H 0.584795 0.483576 0.543696 0
M  V30 47 H -2.51782 0.00823411 2.4637 0
M  V30 48 H -4.72941 0.216398 1.45173 0
M  V30 49 H -2.93055 0.59102 -2.37481 0
M  V30 50 H -0.741459 0.345602 -1.38646 0
M  V30 51 H -5.43138 2.59029 -0.438211 0
M  V30 52 H -7.65386 2.9802 -1.5328 0
M  V30 53 H -8.73432 1.26928 -2.83109 0
M  V30 54 H -7.6095 -0.956792 -3.09337 0
M  V30 55 H -4.86347 -3.66486 -0.629309 0
M  V30 56 H -5.74467 -2.40779 0.096687 0
M  V30 57 H 4.21138 -0.73998 -0.671013 0
M  V30 END ATOM
M  V30 BEGIN BOND
M  V30 1 1 1 2
M  V30 2 2 2 3 CFG=2
M  V30 3 1 2 4
M  V30 4 2 4 5
M  V30 5 1 5 6
M  V30 6 2 6 7
M  V30 7 1 7 8
M  V30 8 1 8 9
M  V30 9 1 9 10
M  V30 10 1 10 11
M  V30 11 2 11 12
M  V30 12 1 12 13
M  V30 13 2 13 14
M  V30 14 1 14 15
M  V30 15 1 11 16
M  V30 16 2 16 17
M  V30 17 1 16 18
M  V30 18 1 18 19
M  V30 19 2 19 20
M  V30 20 1 20 21
M  V30 21 2 21 22
M  V30 22 1 22 23
M  V30 23 2 23 24
M  V30 24 1 22 25
M  V30 25 2 25 26
M  V30 26 1 26 27
M  V30 27 2 27 28
M  V30 28 1 28 29
M  V30 29 2 29 30
M  V30 30 1 30 31
M  V30 31 1 31 32
M  V30 32 2 31 33
M  V30 33 2 31 34
M  V30 34 2 8 35
M  V30 35 1 35 4
M  V30 36 2 15 10
M  V30 37 1 24 19
M  V30 38 1 30 25
M  V30 39 1 1 36
M  V30 40 1 1 37
M  V30 41 1 3 38
M  V30 42 1 5 39
M  V30 43 1 6 40
M  V30 44 1 7 41
M  V30 45 1 12 42
M  V30 46 1 13 43
M  V30 47 1 14 44
M  V30 48 1 15 45
M  V30 49 1 18 46
M  V30 50 1 20 47
M  V30 51 1 21 48
M  V30 52 1 23 49
M  V30 53 1 24 50
M  V30 54 1 26 51
M  V30 55 1 27 52
M  V30 56 1 28 53
M  V30 57 1 29 54
M  V30 58 1 32 55
M  V30 59 1 32 56
M  V30 60 1 35 57
M  V30 END BOND
M  V30 END CTAB
M  END
