
     RDKit          3D

  0  0  0  0  0  0  0  0  0  0999 V3000
M  V30 BEGIN CTAB
M  V30 COUNTS 58 57 0 0 0
M  V30 BEGIN ATOM
M  V30 1 N 1.55877 0.101883 1.23898 0
M  V30 2 C 2.38114 -0.208395 0.152102 0 CFG=2
M  V30 3 C 3.75805 -0.501506 0.69901 0
M  V30 4 O 3.91362 -0.34186 1.93077 0
M  V30 5 N 4.74082 -0.926208 -0.215924 0
M  V30 6 C 6.08014 -1.22289 0.225929 0 CFG=2
M  V30 7 C 6.04167 -2.37963 1.14539 0
M  V30 8 O 4.95553 -2.93984 1.40421 0
M  V30 9 O 7.17306 -2.88644 1.74839 0
M  V30 10 C 6.68488 0.00773585 0.83556 0
M  V30 11 C 6.70964 1.10695 -0.206321 0
M  V30 12 C 8.11555 -0.327542 1.22831 0
M  V30 13 C 2.54588 0.873934 -0.855609 0
M  V30 14 S 1.12404 1.46308 -1.71623 0
M  V30 15 S -0.278453 2.4401 -0.517472 0
M  V30 16 C -1.54267 1.32866 0.0598006 0
M  V30 17 C -2.35176 0.876375 -1.15436 0 CFG=1
M  V30 18 C -3.39601 -0.0432297 -0.62134 0
M  V30 19 O -3.10289 -1.05165 0.0567019 0
M  V30 20 N -4.74936 0.244396 -0.897407 0
M  V30 21 C -5.76559 -0.649052 -0.376155 0 CFG=2
M  V30 22 C -6.50396 -1.23943 -1.48934 0
M  V30 23 O -6.19938 -0.931014 -2.66704 0
M  V30 24 O -7.55023 -2.14378 -1.34676 0
M  V30 25 C -6.63735 0.164801 0.552146 0
M  V30 26 C -7.74661 -0.663504 1.16892 0
M  V30 27 C -7.16378 1.39749 -0.126513 0
M  V30 28 N -2.90331 1.98037 -1.87145 0
M  V30 29 H 1.42272 0.99291 1.56264 0
M  V30 30 H 0.896485 -0.594665 1.4623 0
M  V30 31 H 2.04369 -1.16283 -0.341007 0
M  V30 32 H 4.51137 -1.04125 -1.25036 0
M  V30 33 H 6.72454 -1.51634 -0.670276 0
M  V30 34 H 7.22483 -3.35635 2.62898 0
M  V30 35 H 6.18667 0.325348 1.73931 0
M  V30 36 H 7.58859 1.75508 -0.050678 0
M  V30 37 H 6.65821 0.693277 -1.21821 0
M  V30 38 H 5.81676 1.75051 -0.0750139 0
M  V30 39 H 8.52655 -1.03293 0.479828 0
M  V30 40 H 8.68779 0.630133 1.11497 0
M  V30 41 H 8.17457 -0.705095 2.26359 0
M  V30 42 H 3.12487 1.71068 -0.365664 0
M  V30 43 H 3.26336 0.458408 -1.63964 0
M  V30 44 H -1.2197 0.4015 0.546811 0
M  V30 45 H -2.21628 1.912 0.742574 0
M  V30 46 H -1.71346 0.283303 -1.83468 0
M  V30 47 H -4.97773 1.0857 -1.46567 0
M  V30 48 H -5.3298 -1.47314 0.212736 0
M  V30 49 H -7.61043 -2.98188 -1.91572 0
M  V30 50 H -5.98935 0.491912 1.39045 0
M  V30 51 H -8.12742 -0.174272 2.08874 0
M  V30 52 H -7.41834 -1.66786 1.44668 0
M  V30 53 H -8.59822 -0.665595 0.442799 0
M  V30 54 H -8.26389 1.48525 0.0950377 0
M  V30 55 H -6.66008 2.33332 0.246871 0
M  V30 56 H -6.97658 1.39269 -1.22223 0
M  V30 57 H -3.51919 2.59027 -1.31642 0
M  V30 58 H -2.12194 2.55013 -2.25721 0
M  V30 END ATOM
M  V30 BEGIN BOND
M  V30 1 1 1 2
M  V30 2 1 2 3
M  V30 3 2 3 4
M  V30 4 1 3 5
M  V30 5 1 5 6
M  V30 6 1 6 7
M  V30 7 2 7 8
M  V30 8 1 7 9
M  V30 9 1 6 10
M  V30 10 1 10 11
M  V30 11 1 10 12
M  V30 12 1 2 13
M  V30 13 1 13 14
M  V30 14 1 14 15
M  V30 15 1 15 16
M  V30 16 1 16 17
M  V30 17 1 17 18
M  V30 18 2 18 19
M  V30 19 1 18 20
M  V30 20 1 20 21
M  V30 21 1 21 22
M  V30 22 2 22 23
M  V30 23 1 22 24
M  V30 24 1 21 25
M  V30 25 1 25 26
M  V30 26 1 25 27
M  V30 27 1 17 28
M  V30 28 1 1 29
M  V30 29 1 1 30
M  V30 30 1 2 31 CFG=3
M  V30 31 1 5 32
M  V30 32 1 6 33 CFG=3
M  V30 33 1 9 34
M  V30 34 1 10 35
M  V30 35 1 11 36
M  V30 36 1 11 37
M  V30 37 1 11 38
M  V30 38 1 12 39
M  V30 39 1 12 40
M  V30 40 1 12 41
M  V30 41 1 13 42
M  V30 42 1 13 43
M  V30 43 1 16 44
M  V30 44 1 16 45
M  V30 45 1 17 46 CFG=3
M  V30 46 1 20 47
M  V30 47 1 21 48 CFG=1
M  V30 48 1 24 49
M  V30 49 1 25 50
M  V30 50 1 26 51
M  V30 51 1 26 52
M  V30 52 1 26 53
M  V30 53 1 27 54
M  V30 54 1 27 55
M  V30 55 1 27 56
M  V30 56 1 28 57
M  V30 57 1 28 58
M  V30 END BOND
M  V30 END CTAB
M  END
