
     RDKit          3D

  0  0  0  0  0  0  0  0  0  0999 V3000
M  V30 BEGIN CTAB
M  V30 COUNTS 22 22 0 0 0
M  V30 BEGIN ATOM
M  V30 1 N 2.97399 0.867011 0.438348 0
M  V30 2 C 2.24864 0.420207 -0.724368 0
M  V30 3 C 1.78313 -1.0168 -0.584223 0
M  V30 4 S 0.701128 -1.03472 0.887268 0
M  V30 5 C -0.762611 -0.092573 0.606024 0
M  V30 6 C -0.785439 1.26553 0.910064 0
M  V30 7 C -1.94172 1.98047 0.679876 0
M  V30 8 N -3.01 1.34798 0.170479 0
M  V30 9 C -3.00565 0.0266171 -0.131051 0
M  V30 10 C -1.87091 -0.725637 0.0833599 0
M  V30 11 N -1.82428 -2.11152 -0.220089 0
M  V30 12 H 2.75825 0.313318 1.29485 0
M  V30 13 H 3.97422 1.05461 0.281194 0
M  V30 14 H 1.36334 1.08657 -0.893351 0
M  V30 15 H 2.89057 0.534227 -1.62024 0
M  V30 16 H 1.24602 -1.3381 -1.48203 0
M  V30 17 H 2.65863 -1.64946 -0.440004 0
M  V30 18 H 0.0855259 1.75495 1.31926 0
M  V30 19 H -1.99021 3.0568 0.912428 0
M  V30 20 H -3.86821 -0.465888 -0.538206 0
M  V30 21 H -2.01186 -2.43643 -1.21129 0
M  V30 22 H -1.61257 -2.83717 0.489619 0
M  V30 END ATOM
M  V30 BEGIN BOND
M  V30 1 1 1 2
M  V30 2 1 2 3
M  V30 3 1 3 4
M  V30 4 1 4 5
M  V30 5 2 5 6
M  V30 6 1 6 7
M  V30 7 2 7 8
M  V30 8 1 8 9
M  V30 9 2 9 10
M  V30 10 1 10 11
M  V30 11 1 10 5
M  V30 12 1 1 12
M  V30 13 1 1 13
M  V30 14 1 2 14
M  V30 15 1 2 15
M  V30 16 1 3 16
M  V30 17 1 3 17
M  V30 18 1 6 18
M  V30 19 1 7 19
M  V30 20 1 9 20
M  V30 21 1 11 21
M  V30 22 1 11 22
M  V30 END BOND
M  V30 END CTAB
M  END
