
     RDKit          3D

  0  0  0  0  0  0  0  0  0  0999 V3000
M  V30 BEGIN CTAB
M  V30 COUNTS 31 31 0 0 0
M  V30 BEGIN ATOM
M  V30 1 N 3.18484 -0.666811 -0.0114088 0
M  V30 2 C 2.64204 0.621853 -0.25042 0
M  V30 3 C 1.18911 0.64415 -0.648399 0
M  V30 4 N 0.296965 0.1012 0.30426 0
M  V30 5 C 0.447161 -1.30138 0.439166 0
M  V30 6 C -0.803815 -2.06451 0.804588 0
M  V30 7 C -1.79826 -2.17753 -0.31522 0
M  V30 8 O -2.62808 -1.08339 -0.443304 0
M  V30 9 C -1.82632 -0.0335084 -0.937414 0
M  V30 10 C -1.04413 0.531049 0.240095 0 CFG=2
M  V30 11 C -1.2124 2.03671 0.138101 0
M  V30 12 N -0.649229 2.73994 1.25347 0
M  V30 13 H 3.78523 -0.763579 0.79971 0
M  V30 14 H 3.6278 -1.06104 -0.86639 0
M  V30 15 H 3.286 1.09816 -1.04811 0
M  V30 16 H 2.81171 1.24625 0.653737 0
M  V30 17 H 1.09879 0.00301724 -1.57752 0
M  V30 18 H 0.970503 1.69303 -0.940552 0
M  V30 19 H 0.924836 -1.80803 -0.435363 0
M  V30 20 H 1.15265 -1.47726 1.30639 0
M  V30 21 H -1.26385 -1.65642 1.70199 0
M  V30 22 H -0.501149 -3.13438 1.02871 0
M  V30 23 H -1.30293 -2.42903 -1.27563 0
M  V30 24 H -2.47125 -3.04913 -0.0611804 0
M  V30 25 H -2.53739 0.698917 -1.37217 0
M  V30 26 H -1.16808 -0.366778 -1.75827 0
M  V30 27 H -1.55826 0.261791 1.18586 0
M  V30 28 H -2.33233 2.19174 0.197751 0
M  V30 29 H -0.925551 2.4354 -0.846871 0
M  V30 30 H -0.0198701 3.5219 0.900155 0
M  V30 31 H -1.37474 3.24766 1.83424 0
M  V30 END ATOM
M  V30 BEGIN BOND
M  V30 1 1 1 2
M  V30 2 1 2 3
M  V30 3 1 3 4
M  V30 4 1 4 5
M  V30 5 1 5 6
M  V30 6 1 6 7
M  V30 7 1 7 8
M  V30 8 1 8 9
M  V30 9 1 9 10
M  V30 10 1 10 11
M  V30 11 1 11 12
M  V30 12 1 10 4
M  V30 13 1 1 13
M  V30 14 1 1 14
M  V30 15 1 2 15
M  V30 16 1 2 16
M  V30 17 1 3 17
M  V30 18 1 3 18
M  V30 19 1 5 19
M  V30 20 1 5 20
M  V30 21 1 6 21
M  V30 22 1 6 22
M  V30 23 1 7 23
M  V30 24 1 7 24
M  V30 25 1 9 25
M  V30 26 1 9 26
M  V30 27 1 10 27 CFG=1
M  V30 28 1 11 28
M  V30 29 1 11 29
M  V30 30 1 12 30
M  V30 31 1 12 31
M  V30 END BOND
M  V30 END CTAB
M  END
