
     RDKit          3D

  0  0  0  0  0  0  0  0  0  0999 V3000
M  V30 BEGIN CTAB
M  V30 COUNTS 34 34 0 0 0
M  V30 BEGIN ATOM
M  V30 1 N 3.46028 1.14489 0.745308 0
M  V30 2 C 2.10008 0.978189 0.181587 0
M  V30 3 C 1.7776 -0.455939 -0.00375233 0
M  V30 4 C 0.476024 -0.754815 -0.603322 0
M  V30 5 C -0.804229 -0.354199 -0.0116091 0
M  V30 6 C -1.02305 1.11962 0.108427 0
M  V30 7 C -2.44745 1.54969 -0.236893 0
M  V30 8 C -3.46565 0.601729 0.360085 0
M  V30 9 C -3.26379 -0.798995 -0.164717 0
M  V30 10 C -1.92947 -0.954266 -0.849443 0
M  V30 11 N 1.96798 -1.1928 1.26186 0
M  V30 12 C 2.89152 -1.00321 -0.945411 0
M  V30 13 H 3.69495 2.1547 0.582258 0
M  V30 14 H 4.1465 0.555088 0.261014 0
M  V30 15 H 2.10123 1.50614 -0.776719 0
M  V30 16 H 1.39687 1.45683 0.899681 0
M  V30 17 H 0.431601 -1.89949 -0.787071 0
M  V30 18 H 0.458526 -0.419928 -1.71391 0
M  V30 19 H -0.977359 -0.804968 1.01158 0
M  V30 20 H -0.88083 1.4698 1.15721 0
M  V30 21 H -0.369149 1.70258 -0.561196 0
M  V30 22 H -2.6159 2.56878 0.111919 0
M  V30 23 H -2.5391 1.51891 -1.3368 0
M  V30 24 H -3.44014 0.616296 1.45959 0
M  V30 25 H -4.47493 0.927177 0.0420073 0
M  V30 26 H -4.0925 -1.09923 -0.832158 0
M  V30 27 H -3.2775 -1.48771 0.702828 0
M  V30 28 H -1.96482 -0.376538 -1.79211 0
M  V30 29 H -1.69496 -2.00453 -1.05049 0
M  V30 30 H 2.26901 -2.15471 1.03462 0
M  V30 31 H 2.72335 -0.75647 1.83014 0
M  V30 32 H 2.45556 -1.8155 -1.5662 0
M  V30 33 H 3.74885 -1.34586 -0.367772 0
M  V30 34 H 3.1609 -0.191247 -1.65234 0
M  V30 END ATOM
M  V30 BEGIN BOND
M  V30 1 1 1 2
M  V30 2 1 2 3
M  V30 3 1 3 4
M  V30 4 1 4 5
M  V30 5 1 5 6
M  V30 6 1 6 7
M  V30 7 1 7 8
M  V30 8 1 8 9
M  V30 9 1 9 10
M  V30 10 1 3 11
M  V30 11 1 3 12
M  V30 12 1 10 5
M  V30 13 1 1 13
M  V30 14 1 1 14
M  V30 15 1 2 15
M  V30 16 1 2 16
M  V30 17 1 4 17
M  V30 18 1 4 18
M  V30 19 1 5 19
M  V30 20 1 6 20
M  V30 21 1 6 21
M  V30 22 1 7 22
M  V30 23 1 7 23
M  V30 24 1 8 24
M  V30 25 1 8 25
M  V30 26 1 9 26
M  V30 27 1 9 27
M  V30 28 1 10 28
M  V30 29 1 10 29
M  V30 30 1 11 30
M  V30 31 1 11 31
M  V30 32 1 12 32
M  V30 33 1 12 33
M  V30 34 1 12 34
M  V30 END BOND
M  V30 END CTAB
M  END
