
     RDKit          3D

  0  0  0  0  0  0  0  0  0  0999 V3000
M  V30 BEGIN CTAB
M  V30 COUNTS 21 20 0 0 0
M  V30 BEGIN ATOM
M  V30 1 N 3.49028 -0.00328544 0.18138 0
M  V30 2 C 2.12307 0.22666 -0.332032 0
M  V30 3 C 1.23528 -0.678843 0.396785 0
M  V30 4 F 1.67958 -1.99106 0.143704 0
M  V30 5 F 1.42668 -0.502277 1.7657 0
M  V30 6 C -0.219285 -0.685585 0.096622 0
M  V30 7 F -0.739013 -1.65734 0.969742 0
M  V30 8 F -0.392772 -1.25691 -1.17455 0
M  V30 9 C -0.936762 0.604312 0.194097 0
M  V30 10 F -0.790939 1.06166 1.50836 0
M  V30 11 F -0.40755 1.50886 -0.706108 0
M  V30 12 C -2.40102 0.555175 -0.113027 0
M  V30 13 N -3.1817 -0.292252 0.713609 0
M  V30 14 H 4.17695 0.397235 -0.50819 0
M  V30 15 H 3.64118 0.555975 1.06803 0
M  V30 16 H 1.97907 1.30989 -0.181548 0
M  V30 17 H 2.14876 0.0528091 -1.42738 0
M  V30 18 H -2.60219 0.30127 -1.17504 0
M  V30 19 H -2.78825 1.60391 0.0109811 0
M  V30 20 H -3.2915 -1.21204 0.22211 0
M  V30 21 H -4.14987 0.101845 0.786579 0
M  V30 END ATOM
M  V30 BEGIN BOND
M  V30 1 1 1 2
M  V30 2 1 2 3
M  V30 3 1 3 4
M  V30 4 1 3 5
M  V30 5 1 3 6
M  V30 6 1 6 7
M  V30 7 1 6 8
M  V30 8 1 6 9
M  V30 9 1 9 10
M  V30 10 1 9 11
M  V30 11 1 9 12
M  V30 12 1 12 13
M  V30 13 1 1 14
M  V30 14 1 1 15
M  V30 15 1 2 16
M  V30 16 1 2 17
M  V30 17 1 12 18
M  V30 18 1 12 19
M  V30 19 1 13 20
M  V30 20 1 13 21
M  V30 END BOND
M  V30 END CTAB
M  END
