
     RDKit          3D

  0  0  0  0  0  0  0  0  0  0999 V3000
M  V30 BEGIN CTAB
M  V30 COUNTS 24 24 0 0 0
M  V30 BEGIN ATOM
M  V30 1 N 4.02407 1.0457 -0.341406 0
M  V30 2 C 2.68071 0.602721 -0.222471 0
M  V30 3 C 1.73921 1.28107 0.523902 0
M  V30 4 C 0.429473 0.882131 0.66197 0
M  V30 5 C 0.0127193 -0.274631 0.0153975 0
M  V30 6 C 0.93656 -0.971756 -0.738102 0
M  V30 7 C 2.24093 -0.55864 -0.865 0
M  V30 8 N -1.33785 -0.725954 0.131005 0
M  V30 9 S -2.58009 -0.243466 -0.95318 0
M  V30 10 O -3.62049 -1.34527 -1.00287 0
M  V30 11 O -2.01975 -0.070453 -2.32658 0
M  V30 12 N -3.3878 1.1832 -0.428212 0
M  V30 13 C -1.67548 -1.63048 1.20995 0
M  V30 14 H 4.49253 1.41734 0.505211 0
M  V30 15 H 4.54329 1.01122 -1.22851 0
M  V30 16 H 2.03953 2.18137 1.03457 0
M  V30 17 H -0.308965 1.4141 1.24732 0
M  V30 18 H 0.664012 -1.88595 -1.26671 0
M  V30 19 H 2.9391 -1.12501 -1.46094 0
M  V30 20 H -3.44635 1.24687 0.611769 0
M  V30 21 H -2.91249 2.05355 -0.754569 0
M  V30 22 H -2.28924 -2.48789 0.847262 0
M  V30 23 H -2.36725 -1.05291 1.88507 0
M  V30 24 H -0.796399 -1.94687 1.78961 0
M  V30 END ATOM
M  V30 BEGIN BOND
M  V30 1 1 1 2
M  V30 2 2 2 3
M  V30 3 1 3 4
M  V30 4 2 4 5
M  V30 5 1 5 6
M  V30 6 2 6 7
M  V30 7 1 5 8
M  V30 8 1 8 9
M  V30 9 2 9 10
M  V30 10 2 9 11
M  V30 11 1 9 12
M  V30 12 1 8 13
M  V30 13 1 7 2
M  V30 14 1 1 14
M  V30 15 1 1 15
M  V30 16 1 3 16
M  V30 17 1 4 17
M  V30 18 1 6 18
M  V30 19 1 7 19
M  V30 20 1 12 20
M  V30 21 1 12 21
M  V30 22 1 13 22
M  V30 23 1 13 23
M  V30 24 1 13 24
M  V30 END BOND
M  V30 END CTAB
M  END
