
     RDKit          3D

  0  0  0  0  0  0  0  0  0  0999 V3000
M  V30 BEGIN CTAB
M  V30 COUNTS 82 83 0 0 0
M  V30 BEGIN ATOM
M  V30 1 N 0.0306998 -0.216786 3.69662 0
M  V30 2 C 0.64157 0.418001 2.71506 0
M  V30 3 N 1.18045 1.00574 1.81142 0
M  V30 4 N 2.0934 1.4211 1.06721 0
M  V30 5 C 3.14334 0.779223 0.686322 0
M  V30 6 C 4.07714 1.45636 -0.188179 0
M  V30 7 C 5.1771 0.87114 -0.605562 0
M  V30 8 C 5.41879 -0.490659 -0.15246 0
M  V30 9 O 6.46083 -1.06245 -0.539868 0
M  V30 10 C 4.49563 -1.22027 0.738996 0
M  V30 11 C 3.37711 -0.578107 1.14261 0
M  V30 12 C 4.81769 -2.60617 1.1831 0
M  V30 13 C 6.05086 -2.67959 2.03975 0
M  V30 14 C 3.64582 -3.16404 1.95724 0
M  V30 15 C 5.07455 -3.49675 -0.0417465 0
M  V30 16 C 6.09092 1.60498 -1.48024 0
M  V30 17 C 5.53193 2.97277 -1.77313 0
M  V30 18 C 7.45281 1.82615 -0.85601 0
M  V30 19 C 6.30992 0.865472 -2.77378 0
M  V30 20 C -0.841101 1.11649 2.05175 0
M  V30 21 N -0.83723 1.79261 1.07277 0
M  V30 22 N -2.08979 2.34253 0.575484 0
M  V30 23 C -3.01866 1.6065 0.0811358 0
M  V30 24 C -2.96878 0.164815 -0.069473 0
M  V30 25 C -4.0011 -0.586876 -0.456663 0
M  V30 26 C -5.27293 0.104324 -0.751924 0
M  V30 27 O -6.29119 -0.52995 -1.11922 0
M  V30 28 C -5.3834 1.54445 -0.621158 0
M  V30 29 C -4.33346 2.24765 -0.23474 0
M  V30 30 C -6.65032 2.21934 -0.879923 0
M  V30 31 C -7.77728 1.75919 0.0317726 0
M  V30 32 C -6.52918 3.73088 -0.71044 0
M  V30 33 C -7.09357 1.97433 -2.29636 0
M  V30 34 C -3.87481 -2.03666 -0.526829 0
M  V30 35 C -2.42786 -2.43044 -0.244074 0
M  V30 36 C -4.79632 -2.71649 0.482927 0
M  V30 37 C -4.20079 -2.55295 -1.89699 0
M  V30 38 N -1.86115 0.723485 2.87954 0
M  V30 39 H -0.174984 0.253585 4.64888 0
M  V30 40 H -0.288636 -1.22282 3.59891 0
M  V30 41 H 3.81078 2.46765 -0.470839 0
M  V30 42 H 2.68066 -1.0686 1.78607 0
M  V30 43 H 5.77709 -2.6126 3.09684 0
M  V30 44 H 6.81865 -1.94845 1.76023 0
M  V30 45 H 6.4991 -3.71069 1.89384 0
M  V30 46 H 3.58708 -2.65306 2.93216 0
M  V30 47 H 3.76366 -4.25684 2.09298 0
M  V30 48 H 2.68973 -3.05971 1.37551 0
M  V30 49 H 4.57622 -4.49208 0.0849827 0
M  V30 50 H 6.17578 -3.59696 -0.204322 0
M  V30 51 H 4.64958 -2.96713 -0.912781 0
M  V30 52 H 6.29323 3.49188 -2.4109 0
M  V30 53 H 5.51628 3.52442 -0.784877 0
M  V30 54 H 4.54235 2.96062 -2.24883 0
M  V30 55 H 7.40915 2.0008 0.2464 0
M  V30 56 H 8.15251 0.999527 -1.12686 0
M  V30 57 H 7.86535 2.74837 -1.30488 0
M  V30 58 H 5.75293 1.43708 -3.56282 0
M  V30 59 H 5.86904 -0.162803 -2.75865 0
M  V30 60 H 7.37292 0.859117 -3.03494 0
M  V30 61 H -2.00913 -0.338862 0.123877 0
M  V30 62 H -4.3634 3.31931 -0.117473 0
M  V30 63 H -7.56658 0.789597 0.512597 0
M  V30 64 H -7.8466 2.50948 0.837902 0
M  V30 65 H -8.7611 1.77304 -0.485684 0
M  V30 66 H -5.76103 4.11344 -1.40702 0
M  V30 67 H -6.22617 4.01032 0.30904 0
M  V30 68 H -7.50197 4.18332 -0.974423 0
M  V30 69 H -6.21781 2.0181 -2.9869 0
M  V30 70 H -7.65662 1.021 -2.39676 0
M  V30 71 H -7.74347 2.83435 -2.62491 0
M  V30 72 H -1.80466 -1.96751 -1.02874 0
M  V30 73 H -2.42002 -3.54039 -0.457989 0
M  V30 74 H -2.10746 -2.19901 0.764822 0
M  V30 75 H -4.24639 -3.60622 0.841879 0
M  V30 76 H -4.90398 -2.00792 1.32615 0
M  V30 77 H -5.73161 -3.06689 0.0754064 0
M  V30 78 H -3.5107 -2.08353 -2.65733 0
M  V30 79 H -5.23027 -2.34772 -2.21802 0
M  V30 80 H -4.0817 -3.66643 -1.93911 0
M  V30 81 H -2.13329 -0.307371 2.86358 0
M  V30 82 H -2.33617 1.38926 3.49979 0
M  V30 END ATOM
M  V30 BEGIN BOND
M  V30 1 1 1 2
M  V30 2 2 2 3
M  V30 3 1 3 4
M  V30 4 2 4 5
M  V30 5 1 5 6
M  V30 6 2 6 7
M  V30 7 1 7 8
M  V30 8 2 8 9
M  V30 9 1 8 10
M  V30 10 2 10 11
M  V30 11 1 10 12
M  V30 12 1 12 13
M  V30 13 1 12 14
M  V30 14 1 12 15
M  V30 15 1 7 16
M  V30 16 1 16 17
M  V30 17 1 16 18
M  V30 18 1 16 19
M  V30 19 1 2 20
M  V30 20 2 20 21
M  V30 21 1 21 22
M  V30 22 2 22 23
M  V30 23 1 23 24
M  V30 24 2 24 25
M  V30 25 1 25 26
M  V30 26 2 26 27
M  V30 27 1 26 28
M  V30 28 2 28 29
M  V30 29 1 28 30
M  V30 30 1 30 31
M  V30 31 1 30 32
M  V30 32 1 30 33
M  V30 33 1 25 34
M  V30 34 1 34 35
M  V30 35 1 34 36
M  V30 36 1 34 37
M  V30 37 1 20 38
M  V30 38 1 5 11
M  V30 39 1 23 29
M  V30 40 1 1 39
M  V30 41 1 1 40
M  V30 42 1 6 41
M  V30 43 1 11 42
M  V30 44 1 13 43
M  V30 45 1 13 44
M  V30 46 1 13 45
M  V30 47 1 14 46
M  V30 48 1 14 47
M  V30 49 1 14 48
M  V30 50 1 15 49
M  V30 51 1 15 50
M  V30 52 1 15 51
M  V30 53 1 17 52
M  V30 54 1 17 53
M  V30 55 1 17 54
M  V30 56 1 18 55
M  V30 57 1 18 56
M  V30 58 1 18 57
M  V30 59 1 19 58
M  V30 60 1 19 59
M  V30 61 1 19 60
M  V30 62 1 24 61
M  V30 63 1 29 62
M  V30 64 1 31 63
M  V30 65 1 31 64
M  V30 66 1 31 65
M  V30 67 1 32 66
M  V30 68 1 32 67
M  V30 69 1 32 68
M  V30 70 1 33 69
M  V30 71 1 33 70
M  V30 72 1 33 71
M  V30 73 1 35 72
M  V30 74 1 35 73
M  V30 75 1 35 74
M  V30 76 1 36 75
M  V30 77 1 36 76
M  V30 78 1 36 77
M  V30 79 1 37 78
M  V30 80 1 37 79
M  V30 81 1 37 80
M  V30 82 1 38 81
M  V30 83 1 38 82
M  V30 END BOND
M  V30 END CTAB
M  END
