
     RDKit          3D

  0  0  0  0  0  0  0  0  0  0999 V3000
M  V30 BEGIN CTAB
M  V30 COUNTS 36 37 0 0 0
M  V30 BEGIN ATOM
M  V30 1 C -4.39748 2.21618 -0.544681 0
M  V30 2 O -3.20595 1.86668 0.0971248 0
M  V30 3 C -2.77805 0.557472 0.20414 0
M  V30 4 N -3.5463 -0.406134 -0.333707 0
M  V30 5 C -3.21019 -1.70623 -0.277993 0
M  V30 6 N -3.98758 -2.74535 -0.829038 0
M  V30 7 N -2.06213 -2.0371 0.341108 0
M  V30 8 C -1.27151 -1.09996 0.888996 0
M  V30 9 C -1.59897 0.238321 0.842052 0
M  V30 10 N -0.82032 1.26068 1.38829 0
M  V30 11 S 0.409799 2.12738 0.592118 0
M  V30 12 O -0.18425 2.80416 -0.607676 0
M  V30 13 O 1.01983 3.18849 1.45752 0
M  V30 14 C 1.73459 1.0774 0.0715251 0
M  V30 15 C 2.79005 0.878782 0.936449 0
M  V30 16 C 3.86526 0.0771485 0.612064 0
M  V30 17 C 3.83958 -0.524474 -0.628863 0
M  V30 18 C 2.79255 -0.341604 -1.51538 0
M  V30 19 C 1.75073 0.467438 -1.13609 0
M  V30 20 C 4.97899 -1.41149 -1.04811 0
M  V30 21 N -0.083686 -1.52152 1.52527 0
M  V30 22 H -4.35802 1.86929 -1.61186 0
M  V30 23 H -5.29221 1.74283 -0.0857359 0
M  V30 24 H -4.55622 3.31063 -0.497043 0
M  V30 25 H -3.98286 -3.67788 -0.390752 0
M  V30 26 H -4.56177 -2.58041 -1.66804 0
M  V30 27 H -1.01627 1.52236 2.40128 0
M  V30 28 H 2.76928 1.37618 1.91208 0
M  V30 29 H 4.69893 -0.0771365 1.30046 0
M  V30 30 H 2.80861 -0.84067 -2.50001 0
M  V30 31 H 0.940462 0.603654 -1.83278 0
M  V30 32 H 5.95377 -0.895697 -0.823081 0
M  V30 33 H 4.95091 -1.57787 -2.13736 0
M  V30 34 H 4.90728 -2.38954 -0.538308 0
M  V30 35 H -0.0393991 -1.5461 2.56502 0
M  V30 36 H 0.742554 -1.80592 0.955769 0
M  V30 END ATOM
M  V30 BEGIN BOND
M  V30 1 1 1 2
M  V30 2 1 2 3
M  V30 3 2 3 4
M  V30 4 1 4 5
M  V30 5 1 5 6
M  V30 6 2 5 7
M  V30 7 1 7 8
M  V30 8 2 8 9
M  V30 9 1 9 10
M  V30 10 1 10 11
M  V30 11 2 11 12
M  V30 12 2 11 13
M  V30 13 1 11 14
M  V30 14 2 14 15
M  V30 15 1 15 16
M  V30 16 2 16 17
M  V30 17 1 17 18
M  V30 18 2 18 19
M  V30 19 1 17 20
M  V30 20 1 8 21
M  V30 21 1 9 3
M  V30 22 1 19 14
M  V30 23 1 1 22
M  V30 24 1 1 23
M  V30 25 1 1 24
M  V30 26 1 6 25
M  V30 27 1 6 26
M  V30 28 1 10 27
M  V30 29 1 15 28
M  V30 30 1 16 29
M  V30 31 1 18 30
M  V30 32 1 19 31
M  V30 33 1 20 32
M  V30 34 1 20 33
M  V30 35 1 20 34
M  V30 36 1 21 35
M  V30 37 1 21 36
M  V30 END BOND
M  V30 END CTAB
M  END
