
     RDKit          3D

  0  0  0  0  0  0  0  0  0  0999 V3000
M  V30 BEGIN CTAB
M  V30 COUNTS 22 23 0 0 0
M  V30 BEGIN ATOM
M  V30 1 O -3.30369 1.2933 0.5429 0
M  V30 2 C -2.4999 0.331261 0.391748 0
M  V30 3 N -2.93072 -0.952108 0.565245 0
M  V30 4 C -2.06539 -1.9642 0.401307 0
M  V30 5 N -0.808197 -1.69631 0.0737747 0
M  V30 6 C -0.308032 -0.462844 -0.114462 0
M  V30 7 C -1.18875 0.591595 0.0511322 0
M  V30 8 N -0.767985 1.92976 -0.122689 0
M  V30 9 N 1.06266 -0.242953 -0.467863 0
M  V30 10 C 1.58275 -0.382213 -1.70707 0
M  V30 11 C 2.93776 -0.0895733 -1.68292 0
M  V30 12 N 3.20893 0.226201 -0.401694 0
M  V30 13 C 2.07808 0.133399 0.329587 0
M  V30 14 N 2.00901 0.397646 1.71373 0
M  V30 15 H -3.9222 -1.15123 0.822935 0
M  V30 16 H -2.43093 -2.99054 0.545281 0
M  V30 17 H -0.507869 2.50203 0.701475 0
M  V30 18 H -0.726673 2.31857 -1.08042 0
M  V30 19 H 0.992003 -0.680144 -2.56296 0
M  V30 20 H 3.62286 -0.116518 -2.53866 0
M  V30 21 H 1.26413 1.00306 2.13052 0
M  V30 22 H 2.70216 0.00181633 2.40911 0
M  V30 END ATOM
M  V30 BEGIN BOND
M  V30 1 2 1 2
M  V30 2 1 2 3
M  V30 3 1 3 4
M  V30 4 2 4 5
M  V30 5 1 5 6
M  V30 6 2 6 7
M  V30 7 1 7 8
M  V30 8 1 6 9
M  V30 9 1 9 10
M  V30 10 2 10 11
M  V30 11 1 11 12
M  V30 12 2 12 13
M  V30 13 1 13 14
M  V30 14 1 7 2
M  V30 15 1 13 9
M  V30 16 1 3 15
M  V30 17 1 4 16
M  V30 18 1 8 17
M  V30 19 1 8 18
M  V30 20 1 10 19
M  V30 21 1 11 20
M  V30 22 1 14 21
M  V30 23 1 14 22
M  V30 END BOND
M  V30 END CTAB
M  END
