
     RDKit          3D

  0  0  0  0  0  0  0  0  0  0999 V3000
M  V30 BEGIN CTAB
M  V30 COUNTS 15 14 0 0 0
M  V30 BEGIN ATOM
M  V30 1 N 1.54709 -0.475048 -0.422804 0
M  V30 2 C 0.809912 0.0708243 0.669758 0
M  V30 3 C -0.640934 0.363023 0.319818 0
M  V30 4 C -1.31624 -0.912996 -0.0988301 0
M  V30 5 Cl -0.585217 -1.67791 -1.49714 0
M  V30 6 N -0.755749 1.41964 -0.639067 0
M  V30 7 H 2.21864 0.194253 -0.837557 0
M  V30 8 H 2.04826 -1.34804 -0.221276 0
M  V30 9 H 1.32604 0.986198 1.01478 0
M  V30 10 H 0.838167 -0.642478 1.51922 0
M  V30 11 H -1.14384 0.701663 1.25555 0
M  V30 12 H -1.26836 -1.60069 0.791483 0
M  V30 13 H -2.399 -0.741095 -0.267288 0
M  V30 14 H -0.106067 1.33511 -1.4331 0
M  V30 15 H -0.572704 2.32755 -0.153551 0
M  V30 END ATOM
M  V30 BEGIN BOND
M  V30 1 1 1 2
M  V30 2 1 2 3
M  V30 3 1 3 4
M  V30 4 1 4 5
M  V30 5 1 3 6
M  V30 6 1 1 7
M  V30 7 1 1 8
M  V30 8 1 2 9
M  V30 9 1 2 10
M  V30 10 1 3 11
M  V30 11 1 4 12
M  V30 12 1 4 13
M  V30 13 1 6 14
M  V30 14 1 6 15
M  V30 END BOND
M  V30 END CTAB
M  END
