
     RDKit          3D

  0  0  0  0  0  0  0  0  0  0999 V3000
M  V30 BEGIN CTAB
M  V30 COUNTS 27 28 0 0 0
M  V30 BEGIN ATOM
M  V30 1 O 3.52735 0.379539 1.64272 0 CHG=-1
M  V30 2 N 2.64642 0.0968644 0.609636 0 CHG=1
M  V30 3 C 3.20449 -0.325516 -0.539142 0
M  V30 4 N 4.62439 -0.465199 -0.658779 0
M  V30 5 N 2.3763 -0.608062 -1.56077 0
M  V30 6 C 1.03256 -0.471873 -1.43558 0
M  V30 7 C 0.455798 -0.0391765 -0.2598 0
M  V30 8 C 1.31576 0.246758 0.778672 0
M  V30 9 N 0.780239 0.69341 2.00499 0
M  V30 10 N -0.943227 0.121363 -0.0732121 0
M  V30 11 C -1.79217 -0.541998 0.892358 0
M  V30 12 C -3.0431 -0.827975 0.104968 0
M  V30 13 C -3.19613 0.413914 -0.738329 0
M  V30 14 C -1.82382 1.00274 -0.830004 0
M  V30 15 H 5.184 -1.14791 -0.1056 0
M  V30 16 H 5.14499 0.139228 -1.32974 0
M  V30 17 H 0.355261 -0.69733 -2.25425 0
M  V30 18 H 0.611591 -0.0344587 2.746 0
M  V30 19 H 0.540038 1.67564 2.23562 0
M  V30 20 H -2.06921 0.182144 1.69205 0
M  V30 21 H -1.32363 -1.46028 1.30223 0
M  V30 22 H -3.93211 -0.94451 0.771118 0
M  V30 23 H -2.91702 -1.70085 -0.579053 0
M  V30 24 H -3.86327 1.16103 -0.261324 0
M  V30 25 H -3.63585 0.188147 -1.73455 0
M  V30 26 H -1.5047 0.915957 -1.90737 0
M  V30 27 H -1.75495 2.04841 -0.512854 0
M  V30 END ATOM
M  V30 BEGIN BOND
M  V30 1 1 1 2
M  V30 2 2 2 3
M  V30 3 1 3 4
M  V30 4 1 3 5
M  V30 5 2 5 6
M  V30 6 1 6 7
M  V30 7 2 7 8
M  V30 8 1 8 9
M  V30 9 1 7 10
M  V30 10 1 10 11
M  V30 11 1 11 12
M  V30 12 1 12 13
M  V30 13 1 13 14
M  V30 14 1 8 2
M  V30 15 1 14 10
M  V30 16 1 4 15
M  V30 17 1 4 16
M  V30 18 1 6 17
M  V30 19 1 9 18
M  V30 20 1 9 19
M  V30 21 1 11 20
M  V30 22 1 11 21
M  V30 23 1 12 22
M  V30 24 1 12 23
M  V30 25 1 13 24
M  V30 26 1 13 25
M  V30 27 1 14 26
M  V30 28 1 14 27
M  V30 END BOND
M  V30 END CTAB
M  END
