
     RDKit          3D

  0  0  0  0  0  0  0  0  0  0999 V3000
M  V30 BEGIN CTAB
M  V30 COUNTS 30 30 0 0 0
M  V30 BEGIN ATOM
M  V30 1 N -3.47254 -3.34846 -1.00862 0
M  V30 2 C -3.02503 -2.04088 -0.704518 0
M  V30 3 C -1.87508 -1.79665 0.0138291 0
M  V30 4 C -1.42181 -0.522569 0.320792 0
M  V30 5 O -0.2544 -0.316995 1.04918 0
M  V30 6 C 0.117368 1.03168 1.30705 0
M  V30 7 C 1.37347 1.15392 2.08879 0
M  V30 8 O 2.41926 0.573826 1.42421 0
M  V30 9 C 2.64906 1.15965 0.186445 0
M  V30 10 P 4.064 0.350923 -0.641037 0
M  V30 11 O 3.63278 -1.16653 -1.21969 0
M  V30 12 O 4.59818 1.31348 -1.91674 0
M  V30 13 O 5.17739 0.170683 0.352067 0
M  V30 14 N -2.18212 0.49682 -0.130281 0
M  V30 15 C -3.31198 0.29959 -0.835208 0
M  V30 16 N -4.06303 1.42397 -1.27841 0
M  V30 17 N -3.72612 -0.963786 -1.11768 0
M  V30 18 H -2.85026 -4.16611 -1.00333 0
M  V30 19 H -4.47263 -3.48162 -1.24641 0
M  V30 20 H -1.29523 -2.62045 0.356904 0
M  V30 21 H 0.0601215 1.61422 0.391156 0
M  V30 22 H -0.724333 1.42885 1.95621 0
M  V30 23 H 1.22703 0.777268 3.10973 0
M  V30 24 H 1.57403 2.26318 2.18949 0
M  V30 25 H 1.7527 0.919051 -0.458334 0
M  V30 26 H 2.77033 2.24731 0.221662 0
M  V30 27 H 4.27394 -1.87389 -0.970468 0
M  V30 28 H 5.58582 1.33604 -1.90873 0
M  V30 29 H -3.51661 2.25879 -1.58917 0
M  V30 30 H -5.08432 1.4787 -1.31631 0
M  V30 END ATOM
M  V30 BEGIN BOND
M  V30 1 1 1 2
M  V30 2 2 2 3
M  V30 3 1 3 4
M  V30 4 1 4 5
M  V30 5 1 5 6
M  V30 6 1 6 7
M  V30 7 1 7 8
M  V30 8 1 8 9
M  V30 9 1 9 10
M  V30 10 1 10 11
M  V30 11 1 10 12
M  V30 12 2 10 13
M  V30 13 2 4 14
M  V30 14 1 14 15
M  V30 15 1 15 16
M  V30 16 2 15 17
M  V30 17 1 17 2
M  V30 18 1 1 18
M  V30 19 1 1 19
M  V30 20 1 3 20
M  V30 21 1 6 21
M  V30 22 1 6 22
M  V30 23 1 7 23
M  V30 24 1 7 24
M  V30 25 1 9 25
M  V30 26 1 9 26
M  V30 27 1 11 27
M  V30 28 1 12 28
M  V30 29 1 16 29
M  V30 30 1 16 30
M  V30 END BOND
M  V30 END CTAB
M  END
