
     RDKit          3D

  0  0  0  0  0  0  0  0  0  0999 V3000
M  V30 BEGIN CTAB
M  V30 COUNTS 21 22 0 0 0
M  V30 BEGIN ATOM
M  V30 1 C -2.7685 0.974766 1.10097 0
M  V30 2 C -2.44405 -0.0490345 0.0469947 0
M  V30 3 O -3.2836 -0.763458 -0.64371 0
M  V30 4 N -2.65882 -1.53224 -1.45116 0
M  V30 5 C -1.31944 -1.33474 -1.30671 0
M  V30 6 C -1.15679 -0.368224 -0.33142 0
M  V30 7 C 0.0922316 0.184985 0.178271 0
M  V30 8 N 0.123824 1.13436 1.14169 0
M  V30 9 N 1.40402 1.38534 1.34296 0
M  V30 10 C 2.19858 0.645828 0.5581 0
M  V30 11 N 1.35319 -0.113826 -0.178348 0
M  V30 12 N 1.75916 -1.04442 -1.14108 0
M  V30 13 N 3.62416 0.65553 0.508078 0
M  V30 14 H -2.41095 1.94294 0.743622 0
M  V30 15 H -3.85055 0.943719 1.31625 0
M  V30 16 H -2.26111 0.682475 2.05734 0
M  V30 17 H -0.565595 -1.85798 -1.87008 0
M  V30 18 H 1.81154 -2.06623 -0.95904 0
M  V30 19 H 2.01919 -0.685905 -2.08194 0
M  V30 20 H 4.20922 1.5088 0.631353 0
M  V30 21 H 4.12428 -0.242667 0.337867 0
M  V30 END ATOM
M  V30 BEGIN BOND
M  V30 1 1 1 2
M  V30 2 1 2 3
M  V30 3 1 3 4
M  V30 4 2 4 5
M  V30 5 1 5 6
M  V30 6 1 6 7
M  V30 7 2 7 8
M  V30 8 1 8 9
M  V30 9 2 9 10
M  V30 10 1 10 11
M  V30 11 1 11 12
M  V30 12 1 10 13
M  V30 13 2 6 2
M  V30 14 1 11 7
M  V30 15 1 1 14
M  V30 16 1 1 15
M  V30 17 1 1 16
M  V30 18 1 5 17
M  V30 19 1 12 18
M  V30 20 1 12 19
M  V30 21 1 13 20
M  V30 22 1 13 21
M  V30 END BOND
M  V30 END CTAB
M  END
