
     RDKit          3D

  0  0  0  0  0  0  0  0  0  0999 V3000
M  V30 BEGIN CTAB
M  V30 COUNTS 34 34 0 0 0
M  V30 BEGIN ATOM
M  V30 1 O -0.296983 0.498394 1.4669 0
M  V30 2 C -0.385341 0.625783 0.414868 0
M  V30 3 C -1.73745 0.969935 -0.142056 0 CFG=2
M  V30 4 C -2.7696 -0.052016 0.258106 0
M  V30 5 C -2.4481 -1.43391 -0.222313 0
M  V30 6 C -4.07956 0.363887 -0.378455 0
M  V30 7 C -2.974 -0.0701657 1.75295 0
M  V30 8 N -1.68144 1.10254 -1.53789 0
M  V30 9 N 0.681537 0.493127 -0.490479 0
M  V30 10 C 2.03391 0.171684 -0.175659 0
M  V30 11 C 3.00735 0.212292 -1.17739 0
M  V30 12 C 4.31219 -0.0893816 -0.945744 0
M  V30 13 C 4.72674 -0.451642 0.3058 0
M  V30 14 N 3.80074 -0.492428 1.26782 0
M  V30 15 C 2.48486 -0.196098 1.0686 0
M  V30 16 N 6.09582 -0.771629 0.5647 0
M  V30 17 H -2.03321 1.92849 0.346598 0
M  V30 18 H -1.41041 -1.74829 0.00734535 0
M  V30 19 H -2.68348 -1.50463 -1.31222 0
M  V30 20 H -3.14936 -2.13231 0.293998 0
M  V30 21 H -4.9506 -0.0923322 0.113853 0
M  V30 22 H -4.05859 0.0827652 -1.45242 0
M  V30 23 H -4.11633 1.47864 -0.337424 0
M  V30 24 H -4.03058 -0.343371 1.95196 0
M  V30 25 H -2.78196 0.941154 2.19888 0
M  V30 26 H -2.3365 -0.81951 2.25885 0
M  V30 27 H -1.39406 0.228099 -2.00738 0
M  V30 28 H -1.046 1.8643 -1.82697 0
M  V30 29 H 0.505996 0.636956 -1.53769 0
M  V30 30 H 2.69313 0.501315 -2.18649 0
M  V30 31 H 5.01623 -0.0346576 -1.78238 0
M  V30 32 H 1.79741 -0.261068 1.91462 0
M  V30 33 H 6.85644 -0.070299 0.452177 0
M  V30 34 H 6.35123 -1.72955 0.874928 0
M  V30 END ATOM
M  V30 BEGIN BOND
M  V30 1 2 1 2
M  V30 2 1 2 3
M  V30 3 1 3 4
M  V30 4 1 4 5
M  V30 5 1 4 6
M  V30 6 1 4 7
M  V30 7 1 3 8
M  V30 8 1 2 9
M  V30 9 1 9 10
M  V30 10 2 10 11
M  V30 11 1 11 12
M  V30 12 2 12 13
M  V30 13 1 13 14
M  V30 14 2 14 15
M  V30 15 1 13 16
M  V30 16 1 15 10
M  V30 17 1 3 17 CFG=1
M  V30 18 1 5 18
M  V30 19 1 5 19
M  V30 20 1 5 20
M  V30 21 1 6 21
M  V30 22 1 6 22
M  V30 23 1 6 23
M  V30 24 1 7 24
M  V30 25 1 7 25
M  V30 26 1 7 26
M  V30 27 1 8 27
M  V30 28 1 8 28
M  V30 29 1 9 29
M  V30 30 1 11 30
M  V30 31 1 12 31
M  V30 32 1 15 32
M  V30 33 1 16 33
M  V30 34 1 16 34
M  V30 END BOND
M  V30 END CTAB
M  END
