
     RDKit          3D

  0  0  0  0  0  0  0  0  0  0999 V3000
M  V30 BEGIN CTAB
M  V30 COUNTS 25 25 0 0 0
M  V30 BEGIN ATOM
M  V30 1 N -3.20706 2.01292 -0.186834 0
M  V30 2 C -2.50096 0.78467 -0.0519263 0
M  V30 3 C -3.1784 -0.398483 0.200476 0
M  V30 4 C -2.52806 -1.60766 0.337332 0
M  V30 5 C -1.16209 -1.66009 0.222614 0
M  V30 6 C -0.468852 -0.491898 -0.0287939 0
M  V30 7 C -1.11816 0.717179 -0.165731 0
M  V30 8 C 1.0003 -0.587392 -0.145875 0
M  V30 9 N 1.60188 0.702389 -0.408656 0
M  V30 10 S 3.32399 0.462899 -0.525288 0
M  V30 11 O 3.6144 -0.972616 -0.936599 0
M  V30 12 O 3.93535 1.40196 -1.51176 0
M  V30 13 N 3.9787 0.654054 1.06136 0
M  V30 14 O -0.522721 -2.8874 0.363398 0
M  V30 15 H -3.25005 2.43865 -1.13568 0
M  V30 16 H -3.67102 2.48066 0.633996 0
M  V30 17 H -4.25253 -0.328853 0.286075 0
M  V30 18 H -3.10173 -2.5086 0.534743 0
M  V30 19 H -0.576457 1.64525 -0.364669 0
M  V30 20 H 1.37757 -0.950881 0.838385 0
M  V30 21 H 1.3272 -1.34033 -0.89791 0
M  V30 22 H 1.23763 1.11169 -1.29638 0
M  V30 23 H 3.23705 0.642193 1.79916 0
M  V30 24 H 4.40493 1.62047 1.09869 0
M  V30 25 H 0.4991 -2.94079 0.279881 0
M  V30 END ATOM
M  V30 BEGIN BOND
M  V30 1 1 1 2
M  V30 2 2 2 3
M  V30 3 1 3 4
M  V30 4 2 4 5
M  V30 5 1 5 6
M  V30 6 2 6 7
M  V30 7 1 6 8
M  V30 8 1 8 9
M  V30 9 1 9 10
M  V30 10 2 10 11
M  V30 11 2 10 12
M  V30 12 1 10 13
M  V30 13 1 5 14
M  V30 14 1 7 2
M  V30 15 1 1 15
M  V30 16 1 1 16
M  V30 17 1 3 17
M  V30 18 1 4 18
M  V30 19 1 7 19
M  V30 20 1 8 20
M  V30 21 1 8 21
M  V30 22 1 9 22
M  V30 23 1 13 23
M  V30 24 1 13 24
M  V30 25 1 14 25
M  V30 END BOND
M  V30 END CTAB
M  END
