
     RDKit          3D

  0  0  0  0  0  0  0  0  0  0999 V3000
M  V30 BEGIN CTAB
M  V30 COUNTS 37 38 0 0 0
M  V30 BEGIN ATOM
M  V30 1 C -6.71604 -1.32936 0.103157 0
M  V30 2 O -5.40053 -1.05915 -0.268993 0
M  V30 3 C -4.58969 -0.0993998 0.341821 0
M  V30 4 O -5.10297 0.545804 1.28215 0
M  V30 5 C -3.22596 0.144356 -0.0824942 0
M  V30 6 C -2.48393 1.09911 0.557394 0
M  V30 7 C -1.16688 1.32043 0.133507 0
M  V30 8 N -0.491628 2.3531 0.871069 0
M  V30 9 C -0.578844 0.62658 -0.894284 0
M  V30 10 O 0.695433 0.8709 -1.27334 0
M  V30 11 C 1.89036 0.415129 -0.778191 0
M  V30 12 C 2.40211 -0.836081 -1.04472 0
M  V30 13 C 3.61211 -1.30425 -0.548716 0
M  V30 14 C 4.38892 -0.51211 0.263692 0
M  V30 15 O 5.59866 -0.94496 0.776043 0
M  V30 16 C 6.32374 -0.0561274 1.60187 0
M  V30 17 C 3.90319 0.742513 0.546256 0
M  V30 18 C 2.69277 1.20976 0.0491745 0
M  V30 19 C -1.33267 -0.340886 -1.5436 0
M  V30 20 N -0.838221 -1.10789 -2.64577 0
M  V30 21 C -2.64524 -0.548918 -1.10738 0
M  V30 22 H -6.79064 -2.35154 0.54498 0
M  V30 23 H -7.16025 -0.634912 0.81327 0
M  V30 24 H -7.34737 -1.28334 -0.828797 0
M  V30 25 H -2.88938 1.68436 1.3796 0
M  V30 26 H -0.154976 2.11153 1.82606 0
M  V30 27 H -0.359636 3.2932 0.442083 0
M  V30 28 H 1.88002 -1.53508 -1.67017 0
M  V30 29 H 3.97529 -2.30779 -0.789983 0
M  V30 30 H 6.74999 0.802105 1.04559 0
M  V30 31 H 7.14383 -0.652958 2.05894 0
M  V30 32 H 5.64319 0.248543 2.42351 0
M  V30 33 H 4.49842 1.40586 1.19412 0
M  V30 34 H 2.35434 2.20206 0.277887 0
M  V30 35 H -0.44113 -2.04262 -2.42648 0
M  V30 36 H -0.84684 -0.803197 -3.63594 0
M  V30 37 H -3.18954 -1.32475 -1.65684 0
M  V30 END ATOM
M  V30 BEGIN BOND
M  V30 1 1 1 2
M  V30 2 1 2 3
M  V30 3 2 3 4
M  V30 4 1 3 5
M  V30 5 2 5 6
M  V30 6 1 6 7
M  V30 7 1 7 8
M  V30 8 2 7 9
M  V30 9 1 9 10
M  V30 10 1 10 11
M  V30 11 2 11 12
M  V30 12 1 12 13
M  V30 13 2 13 14
M  V30 14 1 14 15
M  V30 15 1 15 16
M  V30 16 1 14 17
M  V30 17 2 17 18
M  V30 18 1 9 19
M  V30 19 1 19 20
M  V30 20 2 19 21
M  V30 21 1 21 5
M  V30 22 1 18 11
M  V30 23 1 1 22
M  V30 24 1 1 23
M  V30 25 1 1 24
M  V30 26 1 6 25
M  V30 27 1 8 26
M  V30 28 1 8 27
M  V30 29 1 12 28
M  V30 30 1 13 29
M  V30 31 1 16 30
M  V30 32 1 16 31
M  V30 33 1 16 32
M  V30 34 1 17 33
M  V30 35 1 18 34
M  V30 36 1 20 35
M  V30 37 1 20 36
M  V30 38 1 21 37
M  V30 END BOND
M  V30 END CTAB
M  END
