
     RDKit          3D

  0  0  0  0  0  0  0  0  0  0999 V3000
M  V30 BEGIN CTAB
M  V30 COUNTS 60 64 0 0 0
M  V30 BEGIN ATOM
M  V30 1 C -6.77776 -1.60783 1.60086 0
M  V30 2 C -6.2134 -0.881084 0.405245 0
M  V30 3 C -7.09517 -1.23456 -0.795137 0
M  V30 4 C -4.81151 -1.34999 0.063427 0 CFG=2
M  V30 5 N -4.92712 -2.79696 -0.231147 0
M  V30 6 C -3.83937 -1.15654 1.13713 0
M  V30 7 O -3.34611 -2.15887 1.74937 0
M  V30 8 N -3.41149 0.123536 1.53509 0
M  V30 9 C -3.89674 1.3256 0.891315 0
M  V30 10 C -2.76677 2.35221 0.890735 0
M  V30 11 N -1.48371 1.73164 0.874406 0
M  V30 12 C -1.16356 0.871091 2.02753 0
M  V30 13 C -2.4565 0.324693 2.62231 0
M  V30 14 C -0.48487 1.84659 -0.126179 0
M  V30 15 N 0.711459 1.21334 0.0233323 0
M  V30 16 C 1.6707 1.3084 -0.917007 0
M  V30 17 C 1.49881 2.04191 -2.0684 0
M  V30 18 C 2.52546 2.09167 -2.98403 0
M  V30 19 C 3.71036 1.42323 -2.76442 0
M  V30 20 C 3.92164 0.673362 -1.6162 0
M  V30 21 C 2.88406 0.640288 -0.721005 0
M  V30 22 C 5.1829 -0.0356452 -1.38994 0
M  V30 23 C 5.94444 -0.562879 -2.41096 0
M  V30 24 C 7.12668 -1.22876 -2.2294 0
M  V30 25 C 7.58644 -1.38105 -0.925765 0
M  V30 26 O 8.66169 -1.9596 -0.451936 0
M  V30 27 C 8.70198 -1.86935 0.85829 0
M  V30 28 N 9.72307 -2.38293 1.72068 0
M  V30 29 N 7.58604 -1.19397 1.23125 0
M  V30 30 C 6.86463 -0.873268 0.135182 0
M  V30 31 C 5.68295 -0.212156 -0.0964898 0
M  V30 32 N 0.336712 2.66913 -2.23478 0
M  V30 33 C -0.63355 2.5735 -1.28469 0
M  V30 34 H -7.86372 -1.32006 1.6571 0
M  V30 35 H -6.7597 -2.7037 1.49033 0
M  V30 36 H -6.33698 -1.25392 2.56018 0
M  V30 37 H -6.31683 0.190023 0.560898 0
M  V30 38 H -8.05092 -0.698144 -0.629967 0
M  V30 39 H -6.6391 -0.859538 -1.74076 0
M  V30 40 H -7.29924 -2.31758 -0.813727 0
M  V30 41 H -4.53447 -0.869652 -0.89489 0
M  V30 42 H -4.61272 -3.35463 0.594544 0
M  V30 43 H -4.42769 -3.019 -1.09807 0
M  V30 44 H -4.74201 1.71463 1.49082 0
M  V30 45 H -4.26707 1.15259 -0.138593 0
M  V30 46 H -2.91207 2.98989 0.0059167 0
M  V30 47 H -2.90572 2.97024 1.8284 0
M  V30 48 H -0.642132 1.53764 2.74355 0
M  V30 49 H -0.475396 0.0542721 1.73162 0
M  V30 50 H -2.87167 1.1252 3.26809 0
M  V30 51 H -2.28085 -0.588235 3.20579 0
M  V30 52 H 2.37314 2.6784 -3.89259 0
M  V30 53 H 4.51017 1.475 -3.5008 0
M  V30 54 H 3.01782 0.0652262 0.181639 0
M  V30 55 H 5.57716 -0.438392 -3.41922 0
M  V30 56 H 7.69668 -1.62931 -3.06228 0
M  V30 57 H 9.7549 -3.37143 2.01527 0
M  V30 58 H 10.4699 -1.74545 2.07254 0
M  V30 59 H 5.11257 0.185655 0.710172 0
M  V30 60 H -1.58643 3.10053 -1.44463 0
M  V30 END ATOM
M  V30 BEGIN BOND
M  V30 1 1 1 2
M  V30 2 1 2 3
M  V30 3 1 2 4
M  V30 4 1 4 5
M  V30 5 1 4 6
M  V30 6 2 6 7
M  V30 7 1 6 8
M  V30 8 1 8 9
M  V30 9 1 9 10
M  V30 10 1 10 11
M  V30 11 1 11 12
M  V30 12 1 12 13
M  V30 13 1 11 14
M  V30 14 2 14 15
M  V30 15 1 15 16
M  V30 16 2 16 17
M  V30 17 1 17 18
M  V30 18 2 18 19
M  V30 19 1 19 20
M  V30 20 2 20 21
M  V30 21 1 20 22
M  V30 22 2 22 23
M  V30 23 1 23 24
M  V30 24 2 24 25
M  V30 25 1 25 26
M  V30 26 1 26 27
M  V30 27 1 27 28
M  V30 28 2 27 29
M  V30 29 1 29 30
M  V30 30 2 30 31
M  V30 31 1 17 32
M  V30 32 2 32 33
M  V30 33 1 13 8
M  V30 34 1 33 14
M  V30 35 1 21 16
M  V30 36 1 31 22
M  V30 37 1 30 25
M  V30 38 1 1 34
M  V30 39 1 1 35
M  V30 40 1 1 36
M  V30 41 1 2 37
M  V30 42 1 3 38
M  V30 43 1 3 39
M  V30 44 1 3 40
M  V30 45 1 4 41 CFG=3
M  V30 46 1 5 42
M  V30 47 1 5 43
M  V30 48 1 9 44
M  V30 49 1 9 45
M  V30 50 1 10 46
M  V30 51 1 10 47
M  V30 52 1 12 48
M  V30 53 1 12 49
M  V30 54 1 13 50
M  V30 55 1 13 51
M  V30 56 1 18 52
M  V30 57 1 19 53
M  V30 58 1 21 54
M  V30 59 1 23 55
M  V30 60 1 24 56
M  V30 61 1 28 57
M  V30 62 1 28 58
M  V30 63 1 31 59
M  V30 64 1 33 60
M  V30 END BOND
M  V30 END CTAB
M  END
