
     RDKit          3D

  0  0  0  0  0  0  0  0  0  0999 V3000
M  V30 BEGIN CTAB
M  V30 COUNTS 41 40 0 0 0
M  V30 BEGIN ATOM
M  V30 1 C 2.86772 2.24183 -1.48945 0
M  V30 2 S 2.60135 1.06369 -0.146839 0
M  V30 3 C 3.67566 -0.351384 -0.438795 0
M  V30 4 C 3.59628 -1.43361 0.568715 0
M  V30 5 C 2.23646 -2.0436 0.630788 0 CFG=2
M  V30 6 N 1.23179 -1.10617 0.989005 0
M  V30 7 C 0.0014008 -0.983774 0.268828 0
M  V30 8 O -0.216843 -1.72619 -0.742155 0
M  V30 9 C -1.03629 -0.0106348 0.671821 0 CFG=1
M  V30 10 N -0.640818 0.678895 1.84286 0
M  V30 11 C -1.39476 0.872622 -0.486999 0
M  V30 12 C -2.45066 1.89079 -0.143172 0
M  V30 13 C -3.73415 1.23746 0.310369 0
M  V30 14 C -4.31572 0.345361 -0.748807 0
M  V30 15 N -4.60407 1.10863 -1.93939 0
M  V30 16 C 2.22336 -3.2358 1.55293 0
M  V30 17 O 3.12266 -4.27034 1.38112 0
M  V30 18 O 1.3978 -3.31884 2.49736 0
M  V30 19 H 2.57063 3.25714 -1.21913 0
M  V30 20 H 2.30078 1.88777 -2.36342 0
M  V30 21 H 3.94425 2.18596 -1.76441 0
M  V30 22 H 4.73636 -0.0116676 -0.512299 0
M  V30 23 H 3.4241 -0.709903 -1.48179 0
M  V30 24 H 4.40052 -2.20069 0.443937 0
M  V30 25 H 3.83393 -0.958154 1.57496 0
M  V30 26 H 1.92867 -2.48251 -0.365169 0
M  V30 27 H 1.37556 -0.473032 1.80469 0
M  V30 28 H -1.94274 -0.630652 0.939356 0
M  V30 29 H -0.0678175 1.52073 1.71504 0
M  V30 30 H -1.28934 0.677908 2.62986 0
M  V30 31 H -1.75369 0.251555 -1.33041 0
M  V30 32 H -0.502438 1.42815 -0.830924 0
M  V30 33 H -2.70469 2.50812 -1.02849 0
M  V30 34 H -2.13886 2.5864 0.647207 0
M  V30 35 H -3.59576 0.724663 1.26673 0
M  V30 36 H -4.45789 2.08013 0.495546 0
M  V30 37 H -3.6148 -0.48342 -0.954531 0
M  V30 38 H -5.28932 -0.0606395 -0.364882 0
M  V30 39 H -4.56232 2.12855 -1.78126 0
M  V30 40 H -4.06476 0.795511 -2.77201 0
M  V30 41 H 2.90844 -4.98083 0.673206 0
M  V30 END ATOM
M  V30 BEGIN BOND
M  V30 1 1 1 2
M  V30 2 1 2 3
M  V30 3 1 3 4
M  V30 4 1 4 5
M  V30 5 1 5 6
M  V30 6 1 6 7
M  V30 7 2 7 8
M  V30 8 1 7 9
M  V30 9 1 9 10
M  V30 10 1 9 11
M  V30 11 1 11 12
M  V30 12 1 12 13
M  V30 13 1 13 14
M  V30 14 1 14 15
M  V30 15 1 5 16
M  V30 16 1 16 17
M  V30 17 2 16 18
M  V30 18 1 1 19
M  V30 19 1 1 20
M  V30 20 1 1 21
M  V30 21 1 3 22
M  V30 22 1 3 23
M  V30 23 1 4 24
M  V30 24 1 4 25
M  V30 25 1 5 26 CFG=3
M  V30 26 1 6 27
M  V30 27 1 9 28 CFG=1
M  V30 28 1 10 29
M  V30 29 1 10 30
M  V30 30 1 11 31
M  V30 31 1 11 32
M  V30 32 1 12 33
M  V30 33 1 12 34
M  V30 34 1 13 35
M  V30 35 1 13 36
M  V30 36 1 14 37
M  V30 37 1 14 38
M  V30 38 1 15 39
M  V30 39 1 15 40
M  V30 40 1 17 41
M  V30 END BOND
M  V30 END CTAB
M  END
