
     RDKit          3D

  0  0  0  0  0  0  0  0  0  0999 V3000
M  V30 BEGIN CTAB
M  V30 COUNTS 23 23 0 0 0
M  V30 BEGIN ATOM
M  V30 1 C -1.61262 1.04791 -1.78528 0
M  V30 2 C -1.17773 0.146459 -0.618416 0
M  V30 3 C 0.239594 0.436537 -0.315515 0
M  V30 4 N 0.987725 1.48427 -0.774132 0
M  V30 5 C 2.22829 1.36494 -0.232261 0
M  V30 6 N 2.29148 0.290667 0.54381 0
M  V30 7 C 1.05963 -0.291873 0.497178 0
M  V30 8 N 0.783554 -1.49177 1.22043 0
M  V30 9 N 3.40523 -0.14794 1.26224 0
M  V30 10 O -2.01917 0.436846 0.437397 0
M  V30 11 C -2.7942 -0.683276 0.702761 0
M  V30 12 H -0.75511 1.06408 -2.49381 0
M  V30 13 H -2.4515 0.580118 -2.32287 0
M  V30 14 H -1.83233 2.05245 -1.37879 0
M  V30 15 H -1.31851 -0.872535 -0.952836 0
M  V30 16 H 3.02761 2.07906 -0.436579 0
M  V30 17 H 1.04578 -1.54691 2.22381 0
M  V30 18 H 0.321585 -2.26921 0.685029 0
M  V30 19 H 3.45415 -1.14847 1.56188 0
M  V30 20 H 4.17012 0.497589 1.49544 0
M  V30 21 H -3.48412 -0.463818 1.561 0
M  V30 22 H -2.19182 -1.55522 1.01599 0
M  V30 23 H -3.37762 -1.0099 -0.188563 0
M  V30 END ATOM
M  V30 BEGIN BOND
M  V30 1 1 1 2
M  V30 2 1 2 3
M  V30 3 1 3 4
M  V30 4 2 4 5
M  V30 5 1 5 6
M  V30 6 1 6 7
M  V30 7 1 7 8
M  V30 8 1 6 9
M  V30 9 1 2 10
M  V30 10 1 10 11
M  V30 11 2 7 3
M  V30 12 1 1 12
M  V30 13 1 1 13
M  V30 14 1 1 14
M  V30 15 1 2 15
M  V30 16 1 5 16
M  V30 17 1 8 17
M  V30 18 1 8 18
M  V30 19 1 9 19
M  V30 20 1 9 20
M  V30 21 1 11 21
M  V30 22 1 11 22
M  V30 23 1 11 23
M  V30 END BOND
M  V30 END CTAB
M  END
