
     RDKit          3D

  0  0  0  0  0  0  0  0  0  0999 V3000
M  V30 BEGIN CTAB
M  V30 COUNTS 22 22 0 0 0
M  V30 BEGIN ATOM
M  V30 1 N -2.83575 -0.763628 -0.110372 0
M  V30 2 C -1.41439 -0.794178 -0.0683366 0
M  V30 3 C -0.729753 -1.99066 -0.0851154 0
M  V30 4 C 0.642074 -1.99683 -0.043825 0
M  V30 5 C 1.35119 -0.800669 0.0150892 0
M  V30 6 C 0.671571 0.424234 0.0329087 0
M  V30 7 C -0.696468 0.413453 -0.00879322 0
M  V30 8 C -1.42211 1.68112 0.00901129 0
M  V30 9 C 1.48969 1.62023 0.0950584 0
M  V30 10 F 0.888682 2.8198 0.114346 0
M  V30 11 F 2.3513 1.60375 1.20845 0
M  V30 12 F 2.38653 1.65777 -0.991186 0
M  V30 13 N 2.76485 -0.821274 0.0571888 0
M  V30 14 H -3.43433 -0.282912 0.584432 0
M  V30 15 H -3.35316 -1.24825 -0.880637 0
M  V30 16 H -1.26024 -2.94351 -0.131009 0
M  V30 17 H 1.1885 -2.94216 -0.0569224 0
M  V30 18 H -1.29701 2.31579 -0.891449 0
M  V30 19 H -1.34367 2.25148 0.973103 0
M  V30 20 H -2.53422 1.44984 -0.00797244 0
M  V30 21 H 3.23583 -0.725907 0.972051 0
M  V30 22 H 3.3509 -0.927492 -0.786025 0
M  V30 END ATOM
M  V30 BEGIN BOND
M  V30 1 1 1 2
M  V30 2 2 2 3
M  V30 3 1 3 4
M  V30 4 2 4 5
M  V30 5 1 5 6
M  V30 6 2 6 7
M  V30 7 1 7 8
M  V30 8 1 6 9
M  V30 9 1 9 10
M  V30 10 1 9 11
M  V30 11 1 9 12
M  V30 12 1 5 13
M  V30 13 1 7 2
M  V30 14 1 1 14
M  V30 15 1 1 15
M  V30 16 1 3 16
M  V30 17 1 4 17
M  V30 18 1 8 18
M  V30 19 1 8 19
M  V30 20 1 8 20
M  V30 21 1 13 21
M  V30 22 1 13 22
M  V30 END BOND
M  V30 END CTAB
M  END
