
     RDKit          3D

  0  0  0  0  0  0  0  0  0  0999 V3000
M  V30 BEGIN CTAB
M  V30 COUNTS 25 26 0 0 0
M  V30 BEGIN ATOM
M  V30 1 N 4.09989 0.723921 -0.988841 0
M  V30 2 C 2.88152 0.606813 -0.308214 0
M  V30 3 N 2.54417 1.22186 0.836839 0
M  V30 4 N 1.33017 0.872796 1.19737 0
M  V30 5 C 0.837258 0.0128413 0.282479 0
M  V30 6 N 1.78673 -0.13762 -0.618294 0
M  V30 7 C -0.524592 -0.585099 0.367218 0
M  V30 8 C -1.48663 0.397757 -0.161 0
M  V30 9 C -2.92556 0.0067546 -0.109268 0
M  V30 10 C -2.4445 1.20237 0.659215 0
M  V30 11 N -0.581877 -1.7516 -0.536915 0
M  V30 12 C -0.790145 -1.11817 1.73799 0
M  V30 13 H 4.21485 1.47711 -1.70745 0
M  V30 14 H 4.87563 0.0833952 -0.79647 0
M  V30 15 H 3.17049 1.86497 1.3536 0
M  V30 16 H -1.10768 0.932095 -1.07542 0
M  V30 17 H -3.17955 -0.948638 0.464233 0
M  V30 18 H -3.53872 0.171503 -0.972553 0
M  V30 19 H -2.27828 1.20768 1.73781 0
M  V30 20 H -2.81511 2.18595 0.238491 0
M  V30 21 H -1.58438 -1.97195 -0.641896 0
M  V30 22 H -0.00305921 -2.53535 -0.203273 0
M  V30 23 H -1.27859 -0.389155 2.38643 0
M  V30 24 H -1.40249 -2.07837 1.69579 0
M  V30 25 H 0.20047 -1.45187 2.16773 0
M  V30 END ATOM
M  V30 BEGIN BOND
M  V30 1 1 1 2
M  V30 2 1 2 3
M  V30 3 1 3 4
M  V30 4 2 4 5
M  V30 5 1 5 6
M  V30 6 1 5 7
M  V30 7 1 7 8
M  V30 8 1 8 9
M  V30 9 1 9 10
M  V30 10 1 7 11
M  V30 11 1 7 12
M  V30 12 2 6 2
M  V30 13 1 10 8
M  V30 14 1 1 13
M  V30 15 1 1 14
M  V30 16 1 3 15
M  V30 17 1 8 16
M  V30 18 1 9 17
M  V30 19 1 9 18
M  V30 20 1 10 19
M  V30 21 1 10 20
M  V30 22 1 11 21
M  V30 23 1 11 22
M  V30 24 1 12 23
M  V30 25 1 12 24
M  V30 26 1 12 25
M  V30 END BOND
M  V30 END CTAB
M  END
