
     RDKit          3D

  0  0  0  0  0  0  0  0  0  0999 V3000
M  V30 BEGIN CTAB
M  V30 COUNTS 27 28 0 0 0
M  V30 BEGIN ATOM
M  V30 1 F 4.45391 1.29076 2.33698 0
M  V30 2 C 3.69929 0.732216 1.34746 0
M  V30 3 C 3.35156 -0.609714 1.32362 0
M  V30 4 C 2.58159 -1.11435 0.294991 0
M  V30 5 C 2.14014 -0.292249 -0.732127 0
M  V30 6 C 2.47536 1.08973 -0.743516 0
M  V30 7 C 3.24479 1.5629 0.291435 0
M  V30 8 Br 1.81527 2.22091 -2.15263 0
M  V30 9 C 1.36664 -0.766739 -1.8986 0
M  V30 10 S -0.126908 0.112691 -2.21491 0
M  V30 11 C -1.40224 -0.00293683 -0.989909 0
M  V30 12 N -1.33782 -0.660351 0.166256 0
M  V30 13 C -2.39751 -0.692419 0.988072 0
M  V30 14 N -2.39701 -1.40357 2.24949 0
M  V30 15 N -3.54036 -0.0775757 0.680573 0
M  V30 16 C -3.65753 0.601405 -0.486675 0
M  V30 17 N -2.58507 0.622637 -1.29024 0
M  V30 18 N -4.87553 1.22646 -0.835202 0
M  V30 19 H 3.68774 -1.27856 2.11138 0
M  V30 20 H 2.30917 -2.152 0.264502 0
M  V30 21 H 3.471 2.63343 0.276221 0
M  V30 22 H 2.08972 -0.730399 -2.75821 0
M  V30 23 H 1.10517 -1.84644 -1.72407 0
M  V30 24 H -2.04092 -0.989864 3.13058 0
M  V30 25 H -2.75535 -2.38804 2.3001 0
M  V30 26 H -5.08887 1.46479 -1.81781 0
M  V30 27 H -5.58623 1.44726 -0.117776 0
M  V30 END ATOM
M  V30 BEGIN BOND
M  V30 1 1 1 2
M  V30 2 2 2 3
M  V30 3 1 3 4
M  V30 4 2 4 5
M  V30 5 1 5 6
M  V30 6 2 6 7
M  V30 7 1 6 8
M  V30 8 1 5 9
M  V30 9 1 9 10
M  V30 10 1 10 11
M  V30 11 2 11 12
M  V30 12 1 12 13
M  V30 13 1 13 14
M  V30 14 2 13 15
M  V30 15 1 15 16
M  V30 16 2 16 17
M  V30 17 1 16 18
M  V30 18 1 7 2
M  V30 19 1 17 11
M  V30 20 1 3 19
M  V30 21 1 4 20
M  V30 22 1 7 21
M  V30 23 1 9 22
M  V30 24 1 9 23
M  V30 25 1 14 24
M  V30 26 1 14 25
M  V30 27 1 18 26
M  V30 28 1 18 27
M  V30 END BOND
M  V30 END CTAB
M  END
