
     RDKit          3D

  0  0  0  0  0  0  0  0  0  0999 V3000
M  V30 BEGIN CTAB
M  V30 COUNTS 35 38 0 0 0
M  V30 BEGIN ATOM
M  V30 1 N 1.29434 3.4423 -0.607253 0
M  V30 2 C 0.23494 3.04531 -1.42074 0
M  V30 3 N -0.0916203 3.75834 -2.55151 0
M  V30 4 O -1.09931 3.23051 -3.10575 0
M  V30 5 N -1.48459 2.21616 -2.44436 0
M  V30 6 C -0.653518 2.03515 -1.32595 0
M  V30 7 C -0.905634 0.971666 -0.376471 0
M  V30 8 N -1.99881 0.126718 -0.562843 0
M  V30 9 C -2.05658 -0.762776 0.414191 0
M  V30 10 N -1.03223 -0.509923 1.21549 0
M  V30 11 N -0.329164 0.568378 0.706223 0
M  V30 12 C 0.87649 0.920177 1.39249 0
M  V30 13 C 1.97691 -0.044217 1.04802 0
M  V30 14 C 2.36352 -1.05747 1.93014 0
M  V30 15 C 3.35649 -1.95822 1.61768 0
M  V30 16 C 3.99771 -1.87556 0.409303 0
M  V30 17 C 3.63936 -0.894559 -0.472245 0
M  V30 18 C 2.63692 0.00638036 -0.144474 0
M  V30 19 C -3.06537 -1.79744 0.54496 0
M  V30 20 N -3.14792 -2.71067 1.5233 0
M  V30 21 O -4.1723 -3.44481 1.28681 0
M  V30 22 N -4.77638 -3.07051 0.204633 0
M  V30 23 C -4.12382 -2.03998 -0.302034 0
M  V30 24 N -4.44301 -1.32836 -1.47394 0
M  V30 25 H 1.18555 4.05058 0.241431 0
M  V30 26 H 2.27625 3.13879 -0.81771 0
M  V30 27 H 0.687316 0.669213 2.52138 0
M  V30 28 H 1.23402 1.92171 1.36021 0
M  V30 29 H 1.84941 -1.11141 2.87865 0
M  V30 30 H 3.63427 -2.74287 2.33735 0
M  V30 31 H 4.78385 -2.58907 0.162865 0
M  V30 32 H 4.13643 -0.821175 -1.42312 0
M  V30 33 H 2.40149 0.741964 -0.88269 0
M  V30 34 H -3.73596 -0.986805 -2.16753 0
M  V30 35 H -5.44905 -1.09753 -1.71652 0
M  V30 END ATOM
M  V30 BEGIN BOND
M  V30 1 1 1 2
M  V30 2 2 2 3
M  V30 3 1 3 4
M  V30 4 1 4 5
M  V30 5 2 5 6
M  V30 6 1 6 7
M  V30 7 2 7 8
M  V30 8 1 8 9
M  V30 9 2 9 10
M  V30 10 1 10 11
M  V30 11 1 11 12
M  V30 12 1 12 13
M  V30 13 2 13 14
M  V30 14 1 14 15
M  V30 15 2 15 16
M  V30 16 1 16 17
M  V30 17 2 17 18
M  V30 18 1 9 19
M  V30 19 2 19 20
M  V30 20 1 20 21
M  V30 21 1 21 22
M  V30 22 2 22 23
M  V30 23 1 23 24
M  V30 24 1 6 2
M  V30 25 1 11 7
M  V30 26 1 18 13
M  V30 27 1 23 19
M  V30 28 1 1 25
M  V30 29 1 1 26
M  V30 30 1 12 27
M  V30 31 1 12 28
M  V30 32 1 14 29
M  V30 33 1 15 30
M  V30 34 1 16 31
M  V30 35 1 17 32
M  V30 36 1 18 33
M  V30 37 1 24 34
M  V30 38 1 24 35
M  V30 END BOND
M  V30 END CTAB
M  END
