
     RDKit          3D

  0  0  0  0  0  0  0  0  0  0999 V3000
M  V30 BEGIN CTAB
M  V30 COUNTS 33 33 0 0 0
M  V30 BEGIN ATOM
M  V30 1 C -2.6529 -1.50855 1.01008 0
M  V30 2 C -1.82645 -0.293812 1.29463 0
M  V30 3 N -0.967268 0.129926 0.209958 0
M  V30 4 C 0.444381 -0.059192 0.344874 0
M  V30 5 C 0.994778 -0.737113 1.39873 0
M  V30 6 C 2.37711 -0.913086 1.54986 0
M  V30 7 C 3.23187 -0.391308 0.612182 0
M  V30 8 C 2.72456 0.296343 -0.462917 0
M  V30 9 C 1.35339 0.447184 -0.572946 0
M  V30 10 N 3.61973 0.850473 -1.45076 0
M  V30 11 N 4.65182 -0.533723 0.70273 0
M  V30 12 C -1.59715 0.695157 -0.952412 0
M  V30 13 C -2.49282 -0.244165 -1.71092 0
M  V30 14 C -2.4857 1.89318 -0.558636 0
M  V30 15 H -3.59534 -1.24842 0.51993 0
M  V30 16 H -2.96937 -1.8954 2.03169 0
M  V30 17 H -2.11318 -2.33176 0.515572 0
M  V30 18 H -2.62192 0.516157 1.48024 0
M  V30 19 H -1.3167 -0.31578 2.28768 0
M  V30 20 H 0.406348 -1.18509 2.17585 0
M  V30 21 H 2.80007 -1.44625 2.37427 0
M  V30 22 H 1.0216 0.997525 -1.43238 0
M  V30 23 H 4.11464 1.74848 -1.26241 0
M  V30 24 H 3.78733 0.378877 -2.35073 0
M  V30 25 H 5.07558 -0.442535 1.63888 0
M  V30 26 H 5.21828 -0.720108 -0.13694 0
M  V30 27 H -0.913024 1.14284 -1.6901 0
M  V30 28 H -3.57188 -0.0247131 -1.50111 0
M  V30 29 H -2.40865 -0.0461383 -2.83154 0
M  V30 30 H -2.24194 -1.30223 -1.61402 0
M  V30 31 H -2.78848 2.37916 -1.5279 0
M  V30 32 H -1.85529 2.59156 -0.015695 0
M  V30 33 H -3.40344 1.57251 -0.0757195 0
M  V30 END ATOM
M  V30 BEGIN BOND
M  V30 1 1 1 2
M  V30 2 1 2 3
M  V30 3 1 3 4
M  V30 4 2 4 5
M  V30 5 1 5 6
M  V30 6 2 6 7
M  V30 7 1 7 8
M  V30 8 2 8 9
M  V30 9 1 8 10
M  V30 10 1 7 11
M  V30 11 1 3 12
M  V30 12 1 12 13
M  V30 13 1 12 14
M  V30 14 1 9 4
M  V30 15 1 1 15
M  V30 16 1 1 16
M  V30 17 1 1 17
M  V30 18 1 2 18
M  V30 19 1 2 19
M  V30 20 1 5 20
M  V30 21 1 6 21
M  V30 22 1 9 22
M  V30 23 1 10 23
M  V30 24 1 10 24
M  V30 25 1 11 25
M  V30 26 1 11 26
M  V30 27 1 12 27
M  V30 28 1 13 28
M  V30 29 1 13 29
M  V30 30 1 13 30
M  V30 31 1 14 31
M  V30 32 1 14 32
M  V30 33 1 14 33
M  V30 END BOND
M  V30 END CTAB
M  END
