
     RDKit          3D

  0  0  0  0  0  0  0  0  0  0999 V3000
M  V30 BEGIN CTAB
M  V30 COUNTS 29 30 0 0 0
M  V30 BEGIN ATOM
M  V30 1 N 0.0998091 -1.28604 0.527239 0
M  V30 2 C -0.285077 -0.0550457 -0.0590834 0
M  V30 3 N 0.614303 0.713491 -0.536353 0
M  V30 4 C 1.99091 0.417198 -0.52052 0
M  V30 5 C 2.50484 -0.656754 -1.20087 0
M  V30 6 C 3.87634 -0.906758 -1.1529 0
M  V30 7 C 4.72995 -0.10323 -0.439791 0
M  V30 8 C 4.21878 0.967932 0.239027 0
M  V30 9 C 2.85007 1.21401 0.188724 0
M  V30 10 C -1.70284 0.28911 -0.0951546 0
M  V30 11 C -2.67097 -0.545226 0.422175 0
M  V30 12 N -2.28038 -1.79035 1.01511 0
M  V30 13 C -4.01826 -0.211805 0.38466 0
M  V30 14 C -4.41882 0.977336 -0.178932 0
M  V30 15 C -3.47198 1.82897 -0.702947 0
M  V30 16 C -2.14822 1.47429 -0.652363 0
M  V30 17 H 0.404921 -1.32549 1.51685 0
M  V30 18 H 0.079488 -2.16309 -0.0316958 0
M  V30 19 H 1.88873 -1.33611 -1.78638 0
M  V30 20 H 4.26064 -1.76466 -1.70071 0
M  V30 21 H 5.80977 -0.297854 -0.400444 0
M  V30 22 H 4.89548 1.5883 0.792501 0
M  V30 23 H 2.51116 2.0865 0.754401 0
M  V30 24 H -1.98938 -1.74543 2.0321 0
M  V30 25 H -2.28678 -2.67278 0.471469 0
M  V30 26 H -4.79296 -0.852309 0.784879 0
M  V30 27 H -5.48486 1.25247 -0.214352 0
M  V30 28 H -3.79249 2.76255 -1.14483 0
M  V30 29 H -1.39217 2.1408 -1.06394 0
M  V30 END ATOM
M  V30 BEGIN BOND
M  V30 1 1 1 2
M  V30 2 2 2 3 CFG=2
M  V30 3 1 3 4
M  V30 4 2 4 5
M  V30 5 1 5 6
M  V30 6 2 6 7
M  V30 7 1 7 8
M  V30 8 2 8 9
M  V30 9 1 2 10
M  V30 10 2 10 11
M  V30 11 1 11 12
M  V30 12 1 11 13
M  V30 13 2 13 14
M  V30 14 1 14 15
M  V30 15 2 15 16
M  V30 16 1 9 4
M  V30 17 1 16 10
M  V30 18 1 1 17
M  V30 19 1 1 18
M  V30 20 1 5 19
M  V30 21 1 6 20
M  V30 22 1 7 21
M  V30 23 1 8 22
M  V30 24 1 9 23
M  V30 25 1 12 24
M  V30 26 1 12 25
M  V30 27 1 13 26
M  V30 28 1 14 27
M  V30 29 1 15 28
M  V30 30 1 16 29
M  V30 END BOND
M  V30 END CTAB
M  END
