
     RDKit          3D

  0  0  0  0  0  0  0  0  0  0999 V3000
M  V30 BEGIN CTAB
M  V30 COUNTS 27 28 0 0 0
M  V30 BEGIN ATOM
M  V30 1 N -1.77393 2.15495 -1.04166 0
M  V30 2 N -0.530816 1.50752 -1.02276 0
M  V30 3 C -0.626108 0.438784 0.072976 0
M  V30 4 C 0.715663 -0.1276 -0.00939292 0
M  V30 5 C 1.19211 -1.0657 -0.882401 0
M  V30 6 N 2.48696 -1.47929 -0.943027 0
M  V30 7 C 3.35626 -0.932013 -0.0921738 0
M  V30 8 C 2.98495 0.0291739 0.832165 0
M  V30 9 C 1.67431 0.416463 0.860205 0
M  V30 10 N 1.2923 1.40685 1.81825 0
M  V30 11 C -1.80445 -0.378882 -0.277748 0
M  V30 12 C -2.07232 -1.45735 0.826898 0
M  V30 13 C -1.94356 -1.77374 -0.617064 0
M  V30 14 H -2.08076 2.22239 -0.027655 0
M  V30 15 H -1.58826 3.15777 -1.32418 0
M  V30 16 H -0.375915 0.910596 -1.86619 0
M  V30 17 H -0.72643 1.0371 0.98732 0
M  V30 18 H 0.558873 -1.50597 -1.61909 0
M  V30 19 H 4.41632 -1.21085 -0.0759806 0
M  V30 20 H 3.7118 0.475996 1.52549 0
M  V30 21 H 0.658395 1.17078 2.6273 0
M  V30 22 H 1.62508 2.39461 1.75653 0
M  V30 23 H -2.73495 0.290518 -0.40264 0
M  V30 24 H -1.23346 -1.74458 1.46986 0
M  V30 25 H -3.06525 -1.43901 1.31159 0
M  V30 26 H -2.9346 -2.0243 -1.14554 0
M  V30 27 H -1.18221 -2.47424 -0.961875 0
M  V30 END ATOM
M  V30 BEGIN BOND
M  V30 1 1 1 2
M  V30 2 1 2 3
M  V30 3 1 3 4
M  V30 4 2 4 5
M  V30 5 1 5 6
M  V30 6 2 6 7
M  V30 7 1 7 8
M  V30 8 2 8 9
M  V30 9 1 9 10
M  V30 10 1 3 11
M  V30 11 1 11 12
M  V30 12 1 12 13
M  V30 13 1 9 4
M  V30 14 1 13 11
M  V30 15 1 1 14
M  V30 16 1 1 15
M  V30 17 1 2 16
M  V30 18 1 3 17
M  V30 19 1 5 18
M  V30 20 1 7 19
M  V30 21 1 8 20
M  V30 22 1 10 21
M  V30 23 1 10 22
M  V30 24 1 11 23
M  V30 25 1 12 24
M  V30 26 1 12 25
M  V30 27 1 13 26
M  V30 28 1 13 27
M  V30 END BOND
M  V30 END CTAB
M  END
