
     RDKit          3D

  0  0  0  0  0  0  0  0  0  0999 V3000
M  V30 BEGIN CTAB
M  V30 COUNTS 39 41 0 0 0
M  V30 BEGIN ATOM
M  V30 1 N -6.30021 0.0941661 0.250143 0
M  V30 2 C -4.9729 0.350824 -0.138965 0
M  V30 3 N -4.02608 -0.583949 0.159294 0
M  V30 4 C -2.73564 -0.457357 -0.155673 0
M  V30 5 C -1.79768 -1.53634 0.212323 0
M  V30 6 N -0.411124 -1.19516 -0.0159015 0
M  V30 7 C 0.44727 -2.30775 0.333597 0
M  V30 8 C 1.90637 -1.99214 0.0574127 0
M  V30 9 N 2.18304 -0.653547 0.548748 0
M  V30 10 C 1.15449 -0.133787 1.46591 0
M  V30 11 C -0.108962 0.0250308 0.660049 0
M  V30 12 C 3.29166 0.133491 0.232011 0
M  V30 13 C 4.18052 0.536975 1.22149 0
M  V30 14 C 5.28299 1.3126 0.925454 0
M  V30 15 N 5.52665 1.70055 -0.338618 0
M  V30 16 C 4.69672 1.33477 -1.32271 0
M  V30 17 C 3.57474 0.550665 -1.05013 0
M  V30 18 Cl 2.54891 0.123249 -2.37647 0
M  V30 19 N -2.36451 0.655855 -0.800942 0
M  V30 20 C -3.30168 1.59991 -1.10585 0
M  V30 21 N -4.59424 1.45473 -0.78089 0
M  V30 22 N -2.89086 2.77637 -1.79136 0
M  V30 23 H -6.78959 -0.734516 -0.125971 0
M  V30 24 H -6.76698 0.742846 0.910018 0
M  V30 25 H -2.003 -2.44808 -0.391056 0
M  V30 26 H -1.97324 -1.80957 1.28974 0
M  V30 27 H 0.199863 -3.19387 -0.279374 0
M  V30 28 H 0.328683 -2.55345 1.38671 0
M  V30 29 H 2.50696 -2.70099 0.648675 0
M  V30 30 H 2.08904 -2.13498 -1.00826 0
M  V30 31 H 1.08115 -0.856715 2.2795 0
M  V30 32 H 1.47246 0.840949 1.90362 0
M  V30 33 H 0.0887725 0.873139 -0.0409772 0
M  V30 34 H -0.964944 0.27879 1.33076 0
M  V30 35 H 3.97292 0.216676 2.24179 0
M  V30 36 H 5.98187 1.63383 1.68135 0
M  V30 37 H 4.93175 1.6708 -2.33066 0
M  V30 38 H -3.41394 3.13573 -2.61937 0
M  V30 39 H -2.03126 3.25029 -1.40546 0
M  V30 END ATOM
M  V30 BEGIN BOND
M  V30 1 1 1 2
M  V30 2 2 2 3
M  V30 3 1 3 4
M  V30 4 1 4 5
M  V30 5 1 5 6
M  V30 6 1 6 7
M  V30 7 1 7 8
M  V30 8 1 8 9
M  V30 9 1 9 10
M  V30 10 1 10 11
M  V30 11 1 9 12
M  V30 12 2 12 13
M  V30 13 1 13 14
M  V30 14 2 14 15
M  V30 15 1 15 16
M  V30 16 2 16 17
M  V30 17 1 17 18
M  V30 18 2 4 19
M  V30 19 1 19 20
M  V30 20 2 20 21
M  V30 21 1 20 22
M  V30 22 1 21 2
M  V30 23 1 11 6
M  V30 24 1 17 12
M  V30 25 1 1 23
M  V30 26 1 1 24
M  V30 27 1 5 25
M  V30 28 1 5 26
M  V30 29 1 7 27
M  V30 30 1 7 28
M  V30 31 1 8 29
M  V30 32 1 8 30
M  V30 33 1 10 31
M  V30 34 1 10 32
M  V30 35 1 11 33
M  V30 36 1 11 34
M  V30 37 1 13 35
M  V30 38 1 14 36
M  V30 39 1 16 37
M  V30 40 1 22 38
M  V30 41 1 22 39
M  V30 END BOND
M  V30 END CTAB
M  END
