
     RDKit          3D

  0  0  0  0  0  0  0  0  0  0999 V3000
M  V30 BEGIN CTAB
M  V30 COUNTS 31 31 0 0 0
M  V30 BEGIN ATOM
M  V30 1 N 3.8055 -0.804354 0.0145414 0
M  V30 2 C 2.75698 0.101936 -0.412629 0
M  V30 3 C 1.43451 -0.561006 0.00131825 0
M  V30 4 C 0.256275 0.270275 -0.379949 0 CFG=2
M  V30 5 C 0.356648 1.62621 0.313661 0
M  V30 6 C -0.859806 2.47999 0.0491587 0
M  V30 7 O -1.9589 2.12592 0.786594 0
M  V30 8 C -2.79264 1.21231 0.211342 0
M  V30 9 C -2.09086 0.287667 -0.760421 0
M  V30 10 N -0.979003 -0.307561 -0.0368068 0
M  V30 11 S -1.14734 -1.97193 -0.000542068 0
M  V30 12 O -0.912756 -2.66653 -1.30411 0
M  V30 13 O -2.55628 -2.35725 0.429009 0
M  V30 14 N -0.0897452 -2.66233 1.17694 0
M  V30 15 H 3.75207 -1.69639 -0.513969 0
M  V30 16 H 3.85217 -0.891138 1.02965 0
M  V30 17 H 2.83157 0.163506 -1.51724 0
M  V30 18 H 2.90972 1.0505 0.103478 0
M  V30 19 H 1.43205 -1.51832 -0.553857 0
M  V30 20 H 1.52163 -0.65925 1.09799 0
M  V30 21 H 0.275653 0.425588 -1.48507 0
M  V30 22 H 0.529519 1.48015 1.37929 0
M  V30 23 H 1.21592 2.15262 -0.177861 0
M  V30 24 H -1.03645 2.55375 -1.03872 0
M  V30 25 H -0.580025 3.52067 0.373902 0
M  V30 26 H -3.61069 1.75378 -0.30644 0
M  V30 27 H -3.29608 0.568056 0.982124 0
M  V30 28 H -1.79236 0.775527 -1.69255 0
M  V30 29 H -2.83791 -0.505993 -1.05383 0
M  V30 30 H -0.230608 -2.23406 2.10213 0
M  V30 31 H -0.158758 -3.71236 1.18287 0
M  V30 END ATOM
M  V30 BEGIN BOND
M  V30 1 1 1 2
M  V30 2 1 2 3
M  V30 3 1 3 4
M  V30 4 1 4 5
M  V30 5 1 5 6
M  V30 6 1 6 7
M  V30 7 1 7 8
M  V30 8 1 8 9
M  V30 9 1 9 10
M  V30 10 1 10 11
M  V30 11 2 11 12
M  V30 12 2 11 13
M  V30 13 1 11 14
M  V30 14 1 10 4
M  V30 15 1 1 15
M  V30 16 1 1 16
M  V30 17 1 2 17
M  V30 18 1 2 18
M  V30 19 1 3 19
M  V30 20 1 3 20
M  V30 21 1 4 21 CFG=3
M  V30 22 1 5 22
M  V30 23 1 5 23
M  V30 24 1 6 24
M  V30 25 1 6 25
M  V30 26 1 8 26
M  V30 27 1 8 27
M  V30 28 1 9 28
M  V30 29 1 9 29
M  V30 30 1 14 30
M  V30 31 1 14 31
M  V30 END BOND
M  V30 END CTAB
M  END
