
     RDKit          3D

  0  0  0  0  0  0  0  0  0  0999 V3000
M  V30 BEGIN CTAB
M  V30 COUNTS 23 23 0 0 0
M  V30 BEGIN ATOM
M  V30 1 O -1.36494 -2.20378 -0.772143 0
M  V30 2 C -1.67542 -0.846945 -0.792807 0
M  V30 3 C -0.522686 -0.0852941 -0.25847 0
M  V30 4 C -0.622678 1.29971 -0.190303 0
M  V30 5 C -1.86715 1.96882 -0.649487 0
M  V30 6 C 0.455911 1.99113 0.307996 0
M  V30 7 C 1.58921 1.32386 0.721575 0
M  V30 8 C 1.70689 -0.052397 0.661379 0
M  V30 9 C 0.623052 -0.744431 0.160871 0
M  V30 10 N 0.723964 -2.15057 0.0914032 0
M  V30 11 N 2.89114 -0.713666 1.09641 0
M  V30 12 H -1.91775 -2.69735 -0.119992 0
M  V30 13 H -1.82415 -0.548311 -1.84064 0
M  V30 14 H -2.58088 -0.665145 -0.170982 0
M  V30 15 H -2.29767 1.46733 -1.5302 0
M  V30 16 H -1.67694 3.02611 -0.938384 0
M  V30 17 H -2.65536 1.98193 0.131138 0
M  V30 18 H 0.363683 3.07542 0.355616 0
M  V30 19 H 2.43189 1.86727 1.11116 0
M  V30 20 H 1.06944 -2.59222 -0.77534 0
M  V30 21 H 0.45963 -2.7475 0.889054 0
M  V30 22 H 3.50593 -0.343112 1.85399 0
M  V30 23 H 3.18485 -1.61085 0.658162 0
M  V30 END ATOM
M  V30 BEGIN BOND
M  V30 1 1 1 2
M  V30 2 1 2 3
M  V30 3 2 3 4
M  V30 4 1 4 5
M  V30 5 1 4 6
M  V30 6 2 6 7
M  V30 7 1 7 8
M  V30 8 2 8 9
M  V30 9 1 9 10
M  V30 10 1 8 11
M  V30 11 1 9 3
M  V30 12 1 1 12
M  V30 13 1 2 13
M  V30 14 1 2 14
M  V30 15 1 5 15
M  V30 16 1 5 16
M  V30 17 1 5 17
M  V30 18 1 6 18
M  V30 19 1 7 19
M  V30 20 1 10 20
M  V30 21 1 10 21
M  V30 22 1 11 22
M  V30 23 1 11 23
M  V30 END BOND
M  V30 END CTAB
M  END
