
     RDKit          3D

  0  0  0  0  0  0  0  0  0  0999 V3000
M  V30 BEGIN CTAB
M  V30 COUNTS 29 29 0 0 0
M  V30 BEGIN ATOM
M  V30 1 C -3.10674 -1.88088 -0.0210848 0
M  V30 2 N -2.11943 -0.815306 -0.0618561 0
M  V30 3 C -0.86777 -1.03608 -0.541428 0
M  V30 4 O -0.577019 -2.20267 -0.956484 0
M  V30 5 N 0.0472723 -0.0533601 -0.580525 0
M  V30 6 C 1.37992 -0.257732 -1.08275 0
M  V30 7 C 2.33299 -0.679213 -0.0383883 0
M  V30 8 C 3.74486 -0.931158 -0.390119 0
M  V30 9 C 1.92561 -0.829204 1.19853 0
M  V30 10 C -0.29986 1.1667 -0.132021 0
M  V30 11 N 0.621562 2.25276 -0.145139 0
M  V30 12 C -1.56744 1.43421 0.365609 0
M  V30 13 N -1.95967 2.7024 0.842347 0
M  V30 14 C -2.46026 0.401379 0.383622 0
M  V30 15 O -3.61908 0.575481 0.819376 0
M  V30 16 H -3.59868 -2.01168 -1.01379 0
M  V30 17 H -2.65492 -2.81821 0.358701 0
M  V30 18 H -3.90676 -1.60836 0.697817 0
M  V30 19 H 1.342 -0.971097 -1.93242 0
M  V30 20 H 1.75687 0.697808 -1.50563 0
M  V30 21 H 4.41338 -0.944804 0.500611 0
M  V30 22 H 3.90008 -1.88313 -0.928216 0
M  V30 23 H 4.15999 -0.116709 -1.05091 0
M  V30 24 H 2.57369 -1.13692 2.01632 0
M  V30 25 H 0.889652 -0.64208 1.44525 0
M  V30 26 H 0.885506 2.67131 0.765239 0
M  V30 27 H 0.987087 2.57635 -1.06259 0
M  V30 28 H -1.51722 3.56219 0.487731 0
M  V30 29 H -2.7056 2.77801 1.56219 0
M  V30 END ATOM
M  V30 BEGIN BOND
M  V30 1 1 1 2
M  V30 2 1 2 3
M  V30 3 2 3 4
M  V30 4 1 3 5
M  V30 5 1 5 6
M  V30 6 1 6 7
M  V30 7 1 7 8
M  V30 8 2 7 9 CFG=2
M  V30 9 1 5 10
M  V30 10 1 10 11
M  V30 11 2 10 12
M  V30 12 1 12 13
M  V30 13 1 12 14
M  V30 14 2 14 15
M  V30 15 1 14 2
M  V30 16 1 1 16
M  V30 17 1 1 17
M  V30 18 1 1 18
M  V30 19 1 6 19
M  V30 20 1 6 20
M  V30 21 1 8 21
M  V30 22 1 8 22
M  V30 23 1 8 23
M  V30 24 1 9 24
M  V30 25 1 9 25
M  V30 26 1 11 26
M  V30 27 1 11 27
M  V30 28 1 13 28
M  V30 29 1 13 29
M  V30 END BOND
M  V30 END CTAB
M  END
