
     RDKit          3D

  0  0  0  0  0  0  0  0  0  0999 V3000
M  V30 BEGIN CTAB
M  V30 COUNTS 33 34 0 0 0
M  V30 BEGIN ATOM
M  V30 1 C -3.79695 -1.92732 1.38036 0
M  V30 2 O -4.00215 -0.626499 0.818168 0
M  V30 3 C -2.99043 0.143307 0.278069 0
M  V30 4 C -1.68088 -0.286648 0.24449 0
M  V30 5 C -0.669685 0.487021 -0.300656 0
M  V30 6 C -1.03406 1.72959 -0.816097 0
M  V30 7 C -2.32077 2.19497 -0.803777 0
M  V30 8 C -3.30343 1.37938 -0.245356 0
M  V30 9 O -4.59851 1.80417 -0.21115 0
M  V30 10 C 0.720075 0.0524069 -0.338896 0
M  V30 11 C 1.6805 0.659892 0.468955 0
M  V30 12 C 1.32476 1.76416 1.33944 0
M  V30 13 N 1.01917 2.66949 2.02747 0
M  V30 14 C 2.99497 0.209427 0.413445 0
M  V30 15 N 3.96571 0.824597 1.25365 0
M  V30 16 N 3.38468 -0.802763 -0.39777 0
M  V30 17 C 2.43013 -1.37201 -1.16646 0
M  V30 18 O 2.74122 -2.31524 -1.93574 0
M  V30 19 C 1.11381 -0.987919 -1.17258 0
M  V30 20 C 0.124467 -1.62082 -2.01702 0
M  V30 21 N -0.672405 -2.14664 -2.69213 0
M  V30 22 N 4.72027 -1.24383 -0.459299 0
M  V30 23 H -3.25108 -1.85205 2.34292 0
M  V30 24 H -3.13519 -2.49361 0.676753 0
M  V30 25 H -4.79691 -2.42995 1.51103 0
M  V30 26 H -1.45836 -1.24463 0.656295 0
M  V30 27 H -0.214117 2.32108 -1.23658 0
M  V30 28 H -2.54316 3.1707 -1.22118 0
M  V30 29 H -4.8882 2.71706 -0.582681 0
M  V30 30 H 4.85518 0.304656 1.5095 0
M  V30 31 H 3.83369 1.78026 1.6256 0
M  V30 32 H 5.47051 -0.695249 -0.905072 0
M  V30 33 H 4.97712 -2.16695 -0.0437229 0
M  V30 END ATOM
M  V30 BEGIN BOND
M  V30 1 1 1 2
M  V30 2 1 2 3
M  V30 3 2 3 4
M  V30 4 1 4 5
M  V30 5 2 5 6
M  V30 6 1 6 7
M  V30 7 2 7 8
M  V30 8 1 8 9
M  V30 9 1 5 10
M  V30 10 1 10 11
M  V30 11 1 11 12
M  V30 12 3 12 13
M  V30 13 2 11 14
M  V30 14 1 14 15
M  V30 15 1 14 16
M  V30 16 1 16 17
M  V30 17 2 17 18
M  V30 18 1 17 19
M  V30 19 1 19 20
M  V30 20 3 20 21
M  V30 21 1 16 22
M  V30 22 1 8 3
M  V30 23 2 19 10
M  V30 24 1 1 23
M  V30 25 1 1 24
M  V30 26 1 1 25
M  V30 27 1 4 26
M  V30 28 1 6 27
M  V30 29 1 7 28
M  V30 30 1 9 29
M  V30 31 1 15 30
M  V30 32 1 15 31
M  V30 33 1 22 32
M  V30 34 1 22 33
M  V30 END BOND
M  V30 END CTAB
M  END
