
     RDKit          3D

  0  0  0  0  0  0  0  0  0  0999 V3000
M  V30 BEGIN CTAB
M  V30 COUNTS 24 24 0 0 0
M  V30 BEGIN ATOM
M  V30 1 N -2.29624 -2.04942 -0.560754 0
M  V30 2 C -1.5316 -1.58586 0.59006 0
M  V30 3 S -1.15148 -2.60879 1.74986 0
M  V30 4 C -1.13856 -0.209129 0.542793 0
M  V30 5 C -1.82149 0.716671 1.31836 0
M  V30 6 C -1.49838 2.07201 1.22989 0
M  V30 7 C -0.493521 2.52509 0.367419 0
M  V30 8 C 0.183154 1.56857 -0.392412 0
M  V30 9 C -0.151798 0.242247 -0.28312 0
M  V30 10 C 0.593723 -0.784821 -1.05919 0
M  V30 11 S 2.26528 -0.884359 -0.481121 0
M  V30 12 O 2.94598 -2.03971 -1.18032 0
M  V30 13 O 2.20306 -1.31949 0.996917 0
M  V30 14 N 3.18152 0.497219 -0.53369 0
M  V30 15 H -3.32341 -2.24178 -0.462859 0
M  V30 16 H -1.92944 -2.17905 -1.51174 0
M  V30 17 H -2.55715 0.374256 2.01148 0
M  V30 18 H -2.06779 2.74993 1.87264 0
M  V30 19 H -0.275686 3.58538 0.346522 0
M  V30 20 H 0.971215 1.92119 -1.03429 0
M  V30 21 H 0.166062 -1.73034 -1.27483 0
M  V30 22 H 0.720542 -0.278751 -2.08734 0
M  V30 23 H 2.80501 1.3049 0.0647404 0
M  V30 24 H 4.20099 0.354028 -0.229017 0
M  V30 END ATOM
M  V30 BEGIN BOND
M  V30 1 1 1 2
M  V30 2 2 2 3
M  V30 3 1 2 4
M  V30 4 2 4 5
M  V30 5 1 5 6
M  V30 6 2 6 7
M  V30 7 1 7 8
M  V30 8 2 8 9
M  V30 9 1 9 10
M  V30 10 1 10 11
M  V30 11 2 11 12
M  V30 12 2 11 13
M  V30 13 1 11 14
M  V30 14 1 9 4
M  V30 15 1 1 15
M  V30 16 1 1 16
M  V30 17 1 5 17
M  V30 18 1 6 18
M  V30 19 1 7 19
M  V30 20 1 8 20
M  V30 21 1 10 21
M  V30 22 1 10 22
M  V30 23 1 14 23
M  V30 24 1 14 24
M  V30 END BOND
M  V30 END CTAB
M  END
