
     RDKit          3D

  0  0  0  0  0  0  0  0  0  0999 V3000
M  V30 BEGIN CTAB
M  V30 COUNTS 28 29 0 0 0
M  V30 BEGIN ATOM
M  V30 1 N -4.31622 -1.72716 -0.228231 0
M  V30 2 C -3.64947 -0.482729 -0.253562 0
M  V30 3 C -2.2622 -0.446216 -0.144283 0
M  V30 4 C -1.57257 0.747803 -0.164589 0
M  V30 5 S 0.193818 0.838665 -0.0282508 0
M  V30 6 C 0.965385 -0.768936 0.135861 0
M  V30 7 C 2.43317 -0.573822 0.241581 0
M  V30 8 C 3.02672 -0.40751 1.47019 0
M  V30 9 C 4.39498 -0.227395 1.54499 0
M  V30 10 C 5.16427 -0.213424 0.402841 0
M  V30 11 C 4.55338 -0.381658 -0.821848 0
M  V30 12 C 3.18666 -0.562337 -0.906991 0
M  V30 13 N -2.29698 1.87209 -0.294219 0
M  V30 14 C -3.64654 1.85823 -0.4019 0
M  V30 15 N -4.42268 3.02544 -0.538434 0
M  V30 16 N -4.30845 0.671476 -0.379825 0
M  V30 17 H -3.79887 -2.60789 -0.0473394 0
M  V30 18 H -5.34474 -1.76647 -0.393395 0
M  V30 19 H -1.7401 -1.37344 -0.0434435 0
M  V30 20 H 0.765079 -1.4088 -0.75925 0
M  V30 21 H 0.648946 -1.32016 1.04563 0
M  V30 22 H 2.43069 -0.415003 2.4003 0
M  V30 23 H 4.88556 -0.0932967 2.51493 0
M  V30 24 H 6.25183 -0.0696457 0.470677 0
M  V30 25 H 5.14707 -0.373921 -1.74466 0
M  V30 26 H 2.7219 -0.694882 -1.90046 0
M  V30 27 H -4.7894 3.49843 0.3023 0
M  V30 28 H -4.62124 3.40255 -1.47862 0
M  V30 END ATOM
M  V30 BEGIN BOND
M  V30 1 1 1 2
M  V30 2 2 2 3
M  V30 3 1 3 4
M  V30 4 1 4 5
M  V30 5 1 5 6
M  V30 6 1 6 7
M  V30 7 2 7 8
M  V30 8 1 8 9
M  V30 9 2 9 10
M  V30 10 1 10 11
M  V30 11 2 11 12
M  V30 12 2 4 13
M  V30 13 1 13 14
M  V30 14 1 14 15
M  V30 15 2 14 16
M  V30 16 1 16 2
M  V30 17 1 12 7
M  V30 18 1 1 17
M  V30 19 1 1 18
M  V30 20 1 3 19
M  V30 21 1 6 20
M  V30 22 1 6 21
M  V30 23 1 8 22
M  V30 24 1 9 23
M  V30 25 1 10 24
M  V30 26 1 11 25
M  V30 27 1 12 26
M  V30 28 1 15 27
M  V30 29 1 15 28
M  V30 END BOND
M  V30 END CTAB
M  END
