
     RDKit          3D

  0  0  0  0  0  0  0  0  0  0999 V3000
M  V30 BEGIN CTAB
M  V30 COUNTS 35 36 0 0 0
M  V30 BEGIN ATOM
M  V30 1 C -1.10117 5.58177 -0.453239 0
M  V30 2 O -1.53861 4.28906 -0.0985004 0
M  V30 3 C -0.875704 3.14741 -0.612375 0
M  V30 4 O 0.0688015 3.33069 -1.35769 0
M  V30 5 C -1.39296 1.83088 -0.195968 0
M  V30 6 S -2.71502 1.51973 0.814002 0
M  V30 7 C -2.70531 -0.149477 0.789555 0
M  V30 8 C -1.6245 -0.488333 -0.0450263 0
M  V30 9 C -0.927374 0.545378 -0.557963 0
M  V30 10 C 0.258606 0.555965 -1.43803 0
M  V30 11 S 1.22272 -0.835218 -1.84882 0
M  V30 12 C 2.44242 -1.2617 -0.580699 0
M  V30 13 N 2.32971 -2.04557 0.482382 0
M  V30 14 N 3.49347 -2.07314 1.14366 0
M  V30 15 C 4.38082 -1.29518 0.502564 0
M  V30 16 N 3.72069 -0.806591 -0.549607 0
M  V30 17 N 5.73168 -1.03041 0.837008 0
M  V30 18 C -1.50881 -1.94837 -0.328121 0
M  V30 19 O -0.690875 -2.51106 -1.0595 0
M  V30 20 O -2.40151 -2.8564 0.274429 0
M  V30 21 C -2.32823 -4.24761 0.034824 0
M  V30 22 N -3.61887 -1.00939 1.48615 0
M  V30 23 H -0.524279 5.58346 -1.40194 0
M  V30 24 H -0.505592 6.056 0.356914 0
M  V30 25 H -2.01754 6.1979 -0.621328 0
M  V30 26 H 1.02018 1.31153 -1.00322 0
M  V30 27 H -0.0868121 1.13424 -2.37058 0
M  V30 28 H 4.15317 -0.152957 -1.25621 0
M  V30 29 H 6.4688 -0.926545 0.0912617 0
M  V30 30 H 6.04925 -0.927182 1.82331 0
M  V30 31 H -2.24282 -4.73397 1.05006 0
M  V30 32 H -1.35118 -4.45205 -0.446738 0
M  V30 33 H -3.19474 -4.65935 -0.487354 0
M  V30 34 H -4.5402 -1.27392 1.02481 0
M  V30 35 H -3.44821 -1.39957 2.42294 0
M  V30 END ATOM
M  V30 BEGIN BOND
M  V30 1 1 1 2
M  V30 2 1 2 3
M  V30 3 2 3 4
M  V30 4 1 3 5
M  V30 5 1 5 6
M  V30 6 1 6 7
M  V30 7 2 7 8
M  V30 8 1 8 9
M  V30 9 1 9 10
M  V30 10 1 10 11
M  V30 11 1 11 12
M  V30 12 2 12 13
M  V30 13 1 13 14
M  V30 14 2 14 15
M  V30 15 1 15 16
M  V30 16 1 15 17
M  V30 17 1 8 18
M  V30 18 2 18 19
M  V30 19 1 18 20
M  V30 20 1 20 21
M  V30 21 1 7 22
M  V30 22 2 9 5
M  V30 23 1 16 12
M  V30 24 1 1 23
M  V30 25 1 1 24
M  V30 26 1 1 25
M  V30 27 1 10 26
M  V30 28 1 10 27
M  V30 29 1 16 28
M  V30 30 1 17 29
M  V30 31 1 17 30
M  V30 32 1 21 31
M  V30 33 1 21 32
M  V30 34 1 21 33
M  V30 35 1 22 34
M  V30 36 1 22 35
M  V30 END BOND
M  V30 END CTAB
M  END
