
     RDKit          3D

  0  0  0  0  0  0  0  0  0  0999 V3000
M  V30 BEGIN CTAB
M  V30 COUNTS 37 38 0 0 0
M  V30 BEGIN ATOM
M  V30 1 N 4.75263 0.207692 0.510785 0
M  V30 2 C 4.10253 0.422295 -0.729958 0
M  V30 3 C 2.96085 -0.544494 -0.892887 0
M  V30 4 N 1.96268 -0.416549 0.145269 0
M  V30 5 C 1.2443 0.827896 0.0769025 0
M  V30 6 C 0.184232 0.901112 1.11294 0
M  V30 7 O -0.441192 -0.258718 1.45575 0
M  V30 8 C -1.16979 -0.878699 0.449361 0 CFG=2
M  V30 9 C -0.212791 -1.27107 -0.607939 0
M  V30 10 C 1.12197 -1.58987 0.0470799 0
M  V30 11 C -2.35228 -0.124883 0.0130793 0
M  V30 12 C -2.50944 0.389977 -1.25181 0
M  V30 13 C -3.66286 1.10048 -1.55415 0
M  V30 14 C -4.65522 1.30939 -0.636807 0
M  V30 15 N -4.4602 0.789759 0.581838 0
M  V30 16 C -3.36839 0.0962366 0.92903 0
M  V30 17 N -3.23471 -0.440903 2.25865 0
M  V30 18 H 4.20321 -0.270654 1.22369 0
M  V30 19 H 5.18312 1.05114 0.854217 0
M  V30 20 H 4.83489 0.160695 -1.54503 0
M  V30 21 H 3.81187 1.46879 -0.918357 0
M  V30 22 H 3.38224 -1.56873 -0.802506 0
M  V30 23 H 2.53025 -0.472275 -1.91464 0
M  V30 24 H 2.01678 1.62084 0.317253 0
M  V30 25 H 0.917798 1.11353 -0.951228 0
M  V30 26 H -0.511141 1.72777 0.833936 0
M  V30 27 H 0.665259 1.27986 2.06535 0
M  V30 28 H -1.56767 -1.82519 0.92457 0
M  V30 29 H -0.558917 -2.23364 -1.08471 0
M  V30 30 H -0.117074 -0.552208 -1.41157 0
M  V30 31 H 0.90929 -1.93799 1.07661 0
M  V30 32 H 1.60359 -2.38838 -0.540774 0
M  V30 33 H -1.74421 0.248752 -2.02284 0
M  V30 34 H -3.77806 1.50164 -2.55127 0
M  V30 35 H -5.54779 1.8744 -0.916389 0
M  V30 36 H -4.0773 -1.00068 2.58828 0
M  V30 37 H -2.41848 -0.317314 2.86826 0
M  V30 END ATOM
M  V30 BEGIN BOND
M  V30 1 1 1 2
M  V30 2 1 2 3
M  V30 3 1 3 4
M  V30 4 1 4 5
M  V30 5 1 5 6
M  V30 6 1 6 7
M  V30 7 1 7 8
M  V30 8 1 8 9
M  V30 9 1 9 10
M  V30 10 1 8 11
M  V30 11 2 11 12
M  V30 12 1 12 13
M  V30 13 2 13 14
M  V30 14 1 14 15
M  V30 15 2 15 16
M  V30 16 1 16 17
M  V30 17 1 10 4
M  V30 18 1 16 11
M  V30 19 1 1 18
M  V30 20 1 1 19
M  V30 21 1 2 20
M  V30 22 1 2 21
M  V30 23 1 3 22
M  V30 24 1 3 23
M  V30 25 1 5 24
M  V30 26 1 5 25
M  V30 27 1 6 26
M  V30 28 1 6 27
M  V30 29 1 8 28 CFG=1
M  V30 30 1 9 29
M  V30 31 1 9 30
M  V30 32 1 10 31
M  V30 33 1 10 32
M  V30 34 1 12 33
M  V30 35 1 13 34
M  V30 36 1 14 35
M  V30 37 1 17 36
M  V30 38 1 17 37
M  V30 END BOND
M  V30 END CTAB
M  END
