
     RDKit          3D

  0  0  0  0  0  0  0  0  0  0999 V3000
M  V30 BEGIN CTAB
M  V30 COUNTS 170 174 0 0 0
M  V30 BEGIN ATOM
M  V30 1 C 18.2989 -2.3896 -0.0624472 0
M  V30 2 O 16.9122 -2.51627 -0.361763 0
M  V30 3 C 16.4074 -1.7531 -1.41843 0
M  V30 4 C 17.2515 -0.930939 -2.10584 0
M  V30 5 C 16.7582 -0.175695 -3.15648 0
M  V30 6 N 17.6204 0.689171 -3.88288 0
M  V30 7 C 15.4266 -0.289286 -3.46208 0
M  V30 8 Cl 14.7879 0.656492 -4.80038 0
M  V30 9 C 14.58 -1.12505 -2.75864 0
M  V30 10 C 15.0475 -1.88707 -1.71042 0
M  V30 11 C 14.228 -2.76963 -0.925613 0
M  V30 12 O 14.7495 -3.38751 0.0276642 0
M  V30 13 O 12.8603 -2.99398 -1.14749 0
M  V30 14 C 12.1749 -3.89016 -0.27927 0
M  V30 15 C 10.7825 -4.14035 -0.661712 0
M  V30 16 N 9.86404 -3.08945 -0.7449 0
M  V30 17 C 10.066 -2.1846 -1.82436 0
M  V30 18 C 8.72045 -1.52911 -2.19472 0
M  V30 19 C 8.17579 -0.842236 -1.00612 0
M  V30 20 C 9.15625 -0.995802 0.165192 0
M  V30 21 C 9.38856 -2.47721 0.442573 0
M  V30 22 N 7.90794 0.545137 -1.26739 0
M  V30 23 C 7.11742 1.34038 -0.355037 0
M  V30 24 O 6.68447 0.748772 0.693115 0
M  V30 25 C 6.88761 2.74502 -0.688701 0
M  V30 26 C 6.48411 3.69655 0.307437 0
M  V30 27 C 5.29549 3.90634 1.08562 0
M  V30 28 N 4.67413 2.95142 1.93243 0
M  V30 29 C 3.38289 2.38835 1.73176 0
M  V30 30 C 3.29669 1.10955 1.00818 0
M  V30 31 C 1.93509 0.499723 0.929819 0
M  V30 32 C 0.900431 1.34523 0.327592 0
M  V30 33 C 0.135836 2.20087 1.1229 0
M  V30 34 C -0.851114 2.95447 0.582307 0
M  V30 35 C -1.18387 2.93736 -0.791403 0
M  V30 36 C -2.20183 3.87529 -1.25772 0
M  V30 37 C -3.58575 3.6464 -0.862835 0
M  V30 38 C -4.4252 2.55746 -1.3446 0
M  V30 39 N -3.98609 1.19636 -1.25049 0
M  V30 40 C -3.50415 0.462366 -2.36305 0
M  V30 41 C -4.25394 -0.470424 -3.16838 0
M  V30 42 C -5.51893 -0.235829 -3.85749 0
M  V30 43 C -6.76227 -0.0811884 -3.1056 0
M  V30 44 O -6.9226 0.123561 -1.90771 0
M  V30 45 N -8.03773 -0.193892 -3.85953 0
M  V30 46 C -9.27012 -0.0790805 -3.10883 0
M  V30 47 C -9.80968 -1.49719 -2.87436 0
M  V30 48 C -11.2664 -1.64297 -3.10935 0
M  V30 49 N -12.0784 -0.590217 -2.50811 0
M  V30 50 C -13.4012 -0.634899 -3.00188 0
M  V30 51 C -14.3045 -1.73364 -2.6356 0
M  V30 52 O -14.6677 -1.90717 -1.34227 0
M  V30 53 C -14.1113 -2.18739 -0.169633 0
M  V30 54 O -12.8802 -2.36263 -0.0829582 0
M  V30 55 C -14.9451 -2.29547 1.03279 0
M  V30 56 C -14.3814 -2.6403 2.2366 0
M  V30 57 C -15.1411 -2.79257 3.37562 0
M  V30 58 Cl -14.4671 -3.24999 4.93917 0
M  V30 59 C -16.5158 -2.59464 3.32817 0
M  V30 60 N -17.3048 -2.7592 4.50884 0
M  V30 61 C -17.0679 -2.24976 2.12485 0
M  V30 62 C -16.3092 -2.09814 0.980729 0
M  V30 63 O -16.871 -1.74946 -0.244209 0
M  V30 64 C -18.2541 -1.51545 -0.450468 0
M  V30 65 C -11.5233 0.720679 -2.7926 0
M  V30 66 C -10.3829 0.657167 -3.80283 0
M  V30 67 C -4.07466 0.551857 0.0413384 0
M  V30 68 O -3.67403 -0.635494 0.161465 0
M  V30 69 O -4.58492 1.19098 1.14249 0
M  V30 70 C -4.70769 0.62648 2.43562 0
M  V30 71 C -5.6109 -0.605686 2.39407 0
M  V30 72 C -3.40069 0.274675 3.07289 0
M  V30 73 C -5.39626 1.65103 3.31691 0
M  V30 74 C -0.407703 2.0825 -1.54066 0
M  V30 75 C 0.602186 1.31117 -1.00629 0
M  V30 76 C 5.36895 2.66576 3.17013 0
M  V30 77 O 6.47234 3.2747 3.40762 0
M  V30 78 O 4.92643 1.77362 4.11185 0
M  V30 79 C 5.72915 1.54143 5.26752 0
M  V30 80 C 7.08139 0.927435 4.85044 0
M  V30 81 C 5.08776 0.557509 6.19577 0
M  V30 82 C 5.99905 2.82649 6.0481 0
M  V30 83 H 18.5822 -1.32675 0.118683 0
M  V30 84 H 18.8661 -2.71273 -0.970519 0
M  V30 85 H 18.6252 -2.98189 0.796611 0
M  V30 86 H 18.3026 -0.829532 -1.86944 0
M  V30 87 H 18.6222 0.425346 -3.92859 0
M  V30 88 H 17.3177 1.56677 -4.36758 0
M  V30 89 H 13.539 -1.19332 -2.99989 0
M  V30 90 H 12.7292 -4.86879 -0.357578 0
M  V30 91 H 12.3033 -3.59162 0.782237 0
M  V30 92 H 10.3279 -4.92921 0.0481057 0
M  V30 93 H 10.7437 -4.70564 -1.64182 0
M  V30 94 H 10.3185 -2.82132 -2.72004 0
M  V30 95 H 10.8601 -1.45842 -1.68638 0
M  V30 96 H 8.03509 -2.29834 -2.60208 0
M  V30 97 H 8.89511 -0.814872 -3.05248 0
M  V30 98 H 7.25786 -1.34813 -0.62839 0
M  V30 99 H 10.1276 -0.542322 -0.110569 0
M  V30 100 H 8.71683 -0.519913 1.05954 0
M  V30 101 H 8.45434 -2.97462 0.776823 0
M  V30 102 H 10.1259 -2.49564 1.28087 0
M  V30 103 H 8.27261 1.01662 -2.1162 0
M  V30 104 H 6.25167 2.81071 -1.64871 0
M  V30 105 H 7.9087 3.10317 -1.10016 0
M  V30 106 H 7.34915 3.65243 1.13022 0
M  V30 107 H 6.76586 4.77538 -0.0987116 0
M  V30 108 H 4.46655 4.32501 0.386406 0
M  V30 109 H 5.48038 4.83828 1.76651 0
M  V30 110 H 2.86588 2.21689 2.73973 0
M  V30 111 H 2.68416 3.15403 1.25356 0
M  V30 112 H 3.65061 1.20282 -0.0631655 0
M  V30 113 H 3.97461 0.33219 1.48375 0
M  V30 114 H 2.04259 -0.411716 0.256711 0
M  V30 115 H 1.59984 0.152081 1.94949 0
M  V30 116 H 0.386785 2.21256 2.18369 0
M  V30 117 H -1.44107 3.63383 1.21165 0
M  V30 118 H -1.84212 4.91054 -0.938375 0
M  V30 119 H -2.09675 3.94168 -2.3992 0
M  V30 120 H -3.64459 3.66706 0.314323 0
M  V30 121 H -4.18664 4.66055 -1.01084 0
M  V30 122 H -5.44416 2.63569 -0.829733 0
M  V30 123 H -4.72559 2.74067 -2.45204 0
M  V30 124 H -2.99642 1.2614 -3.03214 0
M  V30 125 H -2.55626 -0.119395 -2.00676 0
M  V30 126 H -3.50668 -0.826744 -4.0091 0
M  V30 127 H -4.30201 -1.48193 -2.59565 0
M  V30 128 H -5.67529 -1.11132 -4.56903 0
M  V30 129 H -5.41375 0.620627 -4.61991 0
M  V30 130 H -8.00643 -0.351459 -4.84436 0
M  V30 131 H -9.08922 0.343896 -2.12026 0
M  V30 132 H -9.55758 -1.77247 -1.83837 0
M  V30 133 H -9.2723 -2.21609 -3.5349 0
M  V30 134 H -11.5588 -2.59949 -2.57553 0
M  V30 135 H -11.4642 -1.74904 -4.19314 0
M  V30 136 H -13.4005 -0.468952 -4.13713 0
M  V30 137 H -13.9031 0.328026 -2.65281 0
M  V30 138 H -15.2778 -1.52989 -3.21107 0
M  V30 139 H -13.9993 -2.72194 -3.13191 0
M  V30 140 H -13.3211 -2.79949 2.3198 0
M  V30 141 H -16.8571 -3.07012 5.37996 0
M  V30 142 H -18.3112 -2.56178 4.46973 0
M  V30 143 H -18.1262 -2.07963 2.04746 0
M  V30 144 H -18.6791 -2.51498 -0.758297 0
M  V30 145 H -18.7821 -1.08608 0.398912 0
M  V30 146 H -18.2994 -0.895841 -1.38836 0
M  V30 147 H -12.2461 1.46352 -3.13831 0
M  V30 148 H -11.0482 1.05893 -1.82059 0
M  V30 149 H -10.7081 0.0459848 -4.63884 0
M  V30 150 H -10.0217 1.65523 -4.07703 0
M  V30 151 H -5.85257 -0.867831 3.44593 0
M  V30 152 H -6.53939 -0.292927 1.83911 0
M  V30 153 H -5.16823 -1.45199 1.86324 0
M  V30 154 H -3.62143 0.0936695 4.15289 0
M  V30 155 H -2.65676 1.08544 2.98519 0
M  V30 156 H -3.04565 -0.673846 2.62213 0
M  V30 157 H -5.60868 2.57778 2.72329 0
M  V30 158 H -4.80083 1.95376 4.17366 0
M  V30 159 H -6.37272 1.23795 3.66983 0
M  V30 160 H -0.626739 2.03075 -2.62552 0
M  V30 161 H 1.18384 0.657381 -1.66892 0
M  V30 162 H 7.47929 0.398967 5.73602 0
M  V30 163 H 7.80375 1.68436 4.53258 0
M  V30 164 H 6.86292 0.193202 4.07199 0
M  V30 165 H 5.84931 0.238883 6.96682 0
M  V30 166 H 4.28455 1.07162 6.75992 0
M  V30 167 H 4.7333 -0.344163 5.69159 0
M  V30 168 H 7.10213 3.04387 6.01932 0
M  V30 169 H 5.71252 2.70882 7.11279 0
M  V30 170 H 5.4094 3.64375 5.62109 0
M  V30 END ATOM
M  V30 BEGIN BOND
M  V30 1 1 1 2
M  V30 2 1 2 3
M  V30 3 2 3 4
M  V30 4 1 4 5
M  V30 5 1 5 6
M  V30 6 2 5 7
M  V30 7 1 7 8
M  V30 8 1 7 9
M  V30 9 2 9 10
M  V30 10 1 10 11
M  V30 11 2 11 12
M  V30 12 1 11 13
M  V30 13 1 13 14
M  V30 14 1 14 15
M  V30 15 1 15 16
M  V30 16 1 16 17
M  V30 17 1 17 18
M  V30 18 1 18 19
M  V30 19 1 19 20
M  V30 20 1 20 21
M  V30 21 1 19 22
M  V30 22 1 22 23
M  V30 23 2 23 24
M  V30 24 1 23 25
M  V30 25 1 25 26
M  V30 26 1 26 27
M  V30 27 1 27 28
M  V30 28 1 28 29
M  V30 29 1 29 30
M  V30 30 1 30 31
M  V30 31 1 31 32
M  V30 32 2 32 33
M  V30 33 1 33 34
M  V30 34 2 34 35
M  V30 35 1 35 36
M  V30 36 1 36 37
M  V30 37 1 37 38
M  V30 38 1 38 39
M  V30 39 1 39 40
M  V30 40 1 40 41
M  V30 41 1 41 42
M  V30 42 1 42 43
M  V30 43 2 43 44
M  V30 44 1 43 45
M  V30 45 1 45 46
M  V30 46 1 46 47
M  V30 47 1 47 48
M  V30 48 1 48 49
M  V30 49 1 49 50
M  V30 50 1 50 51
M  V30 51 1 51 52
M  V30 52 1 52 53
M  V30 53 2 53 54
M  V30 54 1 53 55
M  V30 55 2 55 56
M  V30 56 1 56 57
M  V30 57 1 57 58
M  V30 58 2 57 59
M  V30 59 1 59 60
M  V30 60 1 59 61
M  V30 61 2 61 62
M  V30 62 1 62 63
M  V30 63 1 63 64
M  V30 64 1 49 65
M  V30 65 1 65 66
M  V30 66 1 39 67
M  V30 67 2 67 68
M  V30 68 1 67 69
M  V30 69 1 69 70
M  V30 70 1 70 71
M  V30 71 1 70 72
M  V30 72 1 70 73
M  V30 73 1 35 74
M  V30 74 2 74 75
M  V30 75 1 28 76
M  V30 76 2 76 77
M  V30 77 1 76 78
M  V30 78 1 78 79
M  V30 79 1 79 80
M  V30 80 1 79 81
M  V30 81 1 79 82
M  V30 82 1 10 3
M  V30 83 1 21 16
M  V30 84 1 75 32
M  V30 85 1 66 46
M  V30 86 1 62 55
M  V30 87 1 1 83
M  V30 88 1 1 84
M  V30 89 1 1 85
M  V30 90 1 4 86
M  V30 91 1 6 87
M  V30 92 1 6 88
M  V30 93 1 9 89
M  V30 94 1 14 90
M  V30 95 1 14 91
M  V30 96 1 15 92
M  V30 97 1 15 93
M  V30 98 1 17 94
M  V30 99 1 17 95
M  V30 100 1 18 96
M  V30 101 1 18 97
M  V30 102 1 19 98
M  V30 103 1 20 99
M  V30 104 1 20 100
M  V30 105 1 21 101
M  V30 106 1 21 102
M  V30 107 1 22 103
M  V30 108 1 25 104
M  V30 109 1 25 105
M  V30 110 1 26 106
M  V30 111 1 26 107
M  V30 112 1 27 108
M  V30 113 1 27 109
M  V30 114 1 29 110
M  V30 115 1 29 111
M  V30 116 1 30 112
M  V30 117 1 30 113
M  V30 118 1 31 114
M  V30 119 1 31 115
M  V30 120 1 33 116
M  V30 121 1 34 117
M  V30 122 1 36 118
M  V30 123 1 36 119
M  V30 124 1 37 120
M  V30 125 1 37 121
M  V30 126 1 38 122
M  V30 127 1 38 123
M  V30 128 1 40 124
M  V30 129 1 40 125
M  V30 130 1 41 126
M  V30 131 1 41 127
M  V30 132 1 42 128
M  V30 133 1 42 129
M  V30 134 1 45 130
M  V30 135 1 46 131
M  V30 136 1 47 132
M  V30 137 1 47 133
M  V30 138 1 48 134
M  V30 139 1 48 135
M  V30 140 1 50 136
M  V30 141 1 50 137
M  V30 142 1 51 138
M  V30 143 1 51 139
M  V30 144 1 56 140
M  V30 145 1 60 141
M  V30 146 1 60 142
M  V30 147 1 61 143
M  V30 148 1 64 144
M  V30 149 1 64 145
M  V30 150 1 64 146
M  V30 151 1 65 147
M  V30 152 1 65 148
M  V30 153 1 66 149
M  V30 154 1 66 150
M  V30 155 1 71 151
M  V30 156 1 71 152
M  V30 157 1 71 153
M  V30 158 1 72 154
M  V30 159 1 72 155
M  V30 160 1 72 156
M  V30 161 1 73 157
M  V30 162 1 73 158
M  V30 163 1 73 159
M  V30 164 1 74 160
M  V30 165 1 75 161
M  V30 166 1 80 162
M  V30 167 1 80 163
M  V30 168 1 80 164
M  V30 169 1 81 165
M  V30 170 1 81 166
M  V30 171 1 81 167
M  V30 172 1 82 168
M  V30 173 1 82 169
M  V30 174 1 82 170
M  V30 END BOND
M  V30 END CTAB
M  END
