
     RDKit          3D

  0  0  0  0  0  0  0  0  0  0999 V3000
M  V30 BEGIN CTAB
M  V30 COUNTS 20 20 0 0 0
M  V30 BEGIN ATOM
M  V30 1 N -3.10613 -1.68061 0.0570739 0
M  V30 2 N -2.33163 -0.640957 0.0555936 0
M  V30 3 C -1.50076 0.47443 0.0540012 0
M  V30 4 O -1.8869 1.66236 -0.0598192 0
M  V30 5 C -0.0397124 0.238171 0.190145 0
M  V30 6 C 0.637822 -0.928863 0.427641 0
M  V30 7 C 1.99653 -0.67291 0.420852 0
M  V30 8 N 2.10425 0.639873 0.181834 0
M  V30 9 N 0.891518 1.19335 0.0423111 0
M  V30 10 C 0.64162 2.57949 -0.216906 0
M  V30 11 N 3.05391 -1.57893 0.620768 0
M  V30 12 H -2.93511 -2.31577 -0.758166 0
M  V30 13 H -3.09753 -2.28403 0.906074 0
M  V30 14 H -3.4309 0.120478 -0.177221 0
M  V30 15 H 0.212228 -1.90558 0.595377 0
M  V30 16 H 1.59019 3.14439 -0.21762 0
M  V30 17 H 0.199832 2.73867 -1.22711 0
M  V30 18 H 0.0197768 3.07537 0.588337 0
M  V30 19 H 2.97855 -2.59134 0.454108 0
M  V30 20 H 4.00243 -1.26759 0.964072 0
M  V30 END ATOM
M  V30 BEGIN BOND
M  V30 1 1 1 2
M  V30 2 1 2 3
M  V30 3 2 3 4
M  V30 4 1 3 5
M  V30 5 2 5 6
M  V30 6 1 6 7
M  V30 7 2 7 8
M  V30 8 1 8 9
M  V30 9 1 9 10
M  V30 10 1 7 11
M  V30 11 1 9 5
M  V30 12 1 1 12
M  V30 13 1 1 13
M  V30 14 1 2 14
M  V30 15 1 6 15
M  V30 16 1 10 16
M  V30 17 1 10 17
M  V30 18 1 10 18
M  V30 19 1 11 19
M  V30 20 1 11 20
M  V30 END BOND
M  V30 END CTAB
M  END
