
     RDKit          3D

  0  0  0  0  0  0  0  0  0  0999 V3000
M  V30 BEGIN CTAB
M  V30 COUNTS 28 29 0 0 0
M  V30 BEGIN ATOM
M  V30 1 N -4.68521 -0.62344 0.744054 0
M  V30 2 C -3.27156 -0.353143 0.737917 0
M  V30 3 N -2.52927 -0.793666 1.69311 0
M  V30 4 C -2.64391 0.42977 -0.355579 0
M  V30 5 N -1.21694 0.551902 -0.114087 0
M  V30 6 N -0.238785 -0.244157 -0.50237 0
M  V30 7 C 0.955246 0.191519 -0.0903755 0
M  V30 8 C 0.7019 1.35047 0.609958 0
M  V30 9 C -0.653992 1.56057 0.585808 0
M  V30 10 N -1.35871 2.65103 1.19097 0
M  V30 11 C 2.27707 -0.388922 -0.303275 0
M  V30 12 C 2.45305 -1.55982 -1.01999 0
M  V30 13 C 3.73118 -2.08947 -1.20598 0
M  V30 14 C 4.84247 -1.47078 -0.68839 0
M  V30 15 N 4.64476 -0.320402 0.0129121 0
M  V30 16 C 3.42141 0.194021 0.195629 0
M  V30 17 H -5.26075 -0.0333981 1.38644 0
M  V30 18 H -5.11051 -1.36384 0.143501 0
M  V30 19 H -2.96943 -1.34324 2.46085 0
M  V30 20 H -3.12875 1.42271 -0.377838 0
M  V30 21 H -2.85267 -0.0562796 -1.32702 0
M  V30 22 H 1.4196 2.00289 1.10346 0
M  V30 23 H -0.858578 3.52962 1.44566 0
M  V30 24 H -2.3716 2.57168 1.37902 0
M  V30 25 H 1.6255 -2.08145 -1.44377 0
M  V30 26 H 3.89054 -2.9998 -1.76062 0
M  V30 27 H 5.84978 -1.84409 -0.80719 0
M  V30 28 H 3.33817 1.1097 0.762399 0
M  V30 END ATOM
M  V30 BEGIN BOND
M  V30 1 1 1 2
M  V30 2 2 2 3 CFG=2
M  V30 3 1 2 4
M  V30 4 1 4 5
M  V30 5 1 5 6
M  V30 6 2 6 7
M  V30 7 1 7 8
M  V30 8 2 8 9
M  V30 9 1 9 10
M  V30 10 1 7 11
M  V30 11 2 11 12
M  V30 12 1 12 13
M  V30 13 2 13 14
M  V30 14 1 14 15
M  V30 15 2 15 16
M  V30 16 1 9 5
M  V30 17 1 16 11
M  V30 18 1 1 17
M  V30 19 1 1 18
M  V30 20 1 3 19
M  V30 21 1 4 20
M  V30 22 1 4 21
M  V30 23 1 8 22
M  V30 24 1 10 23
M  V30 25 1 10 24
M  V30 26 1 12 25
M  V30 27 1 13 26
M  V30 28 1 14 27
M  V30 29 1 16 28
M  V30 END BOND
M  V30 END CTAB
M  END
