
     RDKit          3D

  0  0  0  0  0  0  0  0  0  0999 V3000
M  V30 BEGIN CTAB
M  V30 COUNTS 39 41 0 0 0
M  V30 BEGIN ATOM
M  V30 1 N 5.10251 0.66899 0.299057 0
M  V30 2 C 5.16999 1.8302 1.11262 0
M  V30 3 N 4.08457 2.37021 1.54035 0
M  V30 4 C 2.79938 1.79542 1.193 0
M  V30 5 N 2.52022 0.75059 0.470616 0
M  V30 6 C 1.27344 0.373683 0.261605 0
M  V30 7 C 0.294153 1.1244 0.826774 0
M  V30 8 S 1.25983 2.34153 1.64513 0
M  V30 9 C -1.16431 1.07376 0.856616 0
M  V30 10 O -1.68672 1.90321 1.67494 0
M  V30 11 N -2.01494 0.256827 0.113165 0
M  V30 12 C -3.44571 0.240714 0.217109 0
M  V30 13 C -4.17892 0.678249 1.26981 0
M  V30 14 C -5.58126 0.653862 1.28786 0
M  V30 15 C -6.2229 0.157651 0.174355 0
M  V30 16 C -5.52758 -0.293859 -0.906745 0
M  V30 17 C -4.16011 -0.252453 -0.884545 0
M  V30 18 C 1.07376 -0.87532 -0.557805 0
M  V30 19 C 0.546806 -2.02281 -0.00618914 0
M  V30 20 C 0.370269 -3.16734 -0.78153 0
M  V30 21 C 0.721757 -3.16497 -2.11329 0
M  V30 22 C 1.24955 -2.02584 -2.67862 0
M  V30 23 C 1.4135 -0.908743 -1.89015 0
M  V30 24 N 6.407 2.41513 1.46921 0
M  V30 25 H 4.88398 -0.291763 0.686582 0
M  V30 26 H 5.2656 0.699134 -0.731497 0
M  V30 27 H -1.57105 -0.371149 -0.616879 0
M  V30 28 H -3.73287 1.05806 2.16901 0
M  V30 29 H -6.12345 1.01447 2.15052 0
M  V30 30 H -7.31493 0.126562 0.160434 0
M  V30 31 H -6.05753 -0.68619 -1.78517 0
M  V30 32 H -3.58048 -0.609205 -1.74228 0
M  V30 33 H 0.276009 -2.01922 1.02668 0
M  V30 34 H -0.0431886 -4.06019 -0.339251 0
M  V30 35 H 0.607344 -4.02149 -2.76075 0
M  V30 36 H 1.52936 -2.02727 -3.74301 0
M  V30 37 H 1.82737 0.00715426 -2.30485 0
M  V30 38 H 7.03526 2.84294 0.770573 0
M  V30 39 H 6.69431 2.41508 2.46655 0
M  V30 END ATOM
M  V30 BEGIN BOND
M  V30 1 1 1 2
M  V30 2 2 2 3 CFG=2
M  V30 3 1 3 4
M  V30 4 2 4 5
M  V30 5 1 5 6
M  V30 6 2 6 7
M  V30 7 1 7 8
M  V30 8 1 7 9
M  V30 9 2 9 10
M  V30 10 1 9 11
M  V30 11 1 11 12
M  V30 12 2 12 13
M  V30 13 1 13 14
M  V30 14 2 14 15
M  V30 15 1 15 16
M  V30 16 2 16 17
M  V30 17 1 6 18
M  V30 18 2 18 19
M  V30 19 1 19 20
M  V30 20 2 20 21
M  V30 21 1 21 22
M  V30 22 2 22 23
M  V30 23 1 2 24
M  V30 24 1 8 4
M  V30 25 1 17 12
M  V30 26 1 23 18
M  V30 27 1 1 25
M  V30 28 1 1 26
M  V30 29 1 11 27
M  V30 30 1 13 28
M  V30 31 1 14 29
M  V30 32 1 15 30
M  V30 33 1 16 31
M  V30 34 1 17 32
M  V30 35 1 19 33
M  V30 36 1 20 34
M  V30 37 1 21 35
M  V30 38 1 22 36
M  V30 39 1 23 37
M  V30 40 1 24 38
M  V30 41 1 24 39
M  V30 END BOND
M  V30 END CTAB
M  END
