
     RDKit          3D

  0  0  0  0  0  0  0  0  0  0999 V3000
M  V30 BEGIN CTAB
M  V30 COUNTS 28 30 0 0 0
M  V30 BEGIN ATOM
M  V30 1 N -0.854332 -3.1188 -0.290961 0
M  V30 2 C 0.100528 -2.07776 -0.189345 0
M  V30 3 N 1.30008 -2.17862 0.412661 0
M  V30 4 C 1.94356 -1.00353 0.321669 0
M  V30 5 C 1.09961 -0.153611 -0.364189 0
M  V30 6 N 1.52772 1.10227 -0.584379 0
M  V30 7 C 2.73526 1.54567 -0.161868 0
M  V30 8 N 3.16234 2.88028 -0.409054 0
M  V30 9 N 3.53392 0.686801 0.505559 0
M  V30 10 C 3.17766 -0.578474 0.762934 0
M  V30 11 O 3.96045 -1.32916 1.38641 0
M  V30 12 N -0.0256966 -0.817814 -0.673404 0
M  V30 13 C -1.18356 -0.321885 -1.38872 0
M  V30 14 C -2.19014 0.266909 -0.4885 0
M  V30 15 C -3.23686 -0.397879 0.113597 0
M  V30 16 C -3.9377 0.541514 0.878869 0
M  V30 17 C -3.26306 1.71877 0.686661 0
M  V30 18 O -2.25014 1.50054 -0.121342 0
M  V30 19 H -1.16728 -3.65718 0.53393 0
M  V30 20 H -1.2458 -3.34115 -1.22244 0
M  V30 21 H 3.32316 3.58751 0.341635 0
M  V30 22 H 3.33236 3.19782 -1.38866 0
M  V30 23 H 4.44794 1.04892 0.81645 0
M  V30 24 H -1.6157 -1.16346 -1.99688 0
M  V30 25 H -0.836005 0.42858 -2.1499 0
M  V30 26 H -3.51095 -1.44223 0.0436368 0
M  V30 27 H -4.81486 0.387389 1.48883 0
M  V30 28 H -3.5125 2.68857 1.12524 0
M  V30 END ATOM
M  V30 BEGIN BOND
M  V30 1 1 1 2
M  V30 2 2 2 3
M  V30 3 1 3 4
M  V30 4 2 4 5
M  V30 5 1 5 6
M  V30 6 2 6 7
M  V30 7 1 7 8
M  V30 8 1 7 9
M  V30 9 1 9 10
M  V30 10 2 10 11
M  V30 11 1 5 12
M  V30 12 1 12 13
M  V30 13 1 13 14
M  V30 14 2 14 15
M  V30 15 1 15 16
M  V30 16 2 16 17
M  V30 17 1 17 18
M  V30 18 1 12 2
M  V30 19 1 18 14
M  V30 20 1 10 4
M  V30 21 1 1 19
M  V30 22 1 1 20
M  V30 23 1 8 21
M  V30 24 1 8 22
M  V30 25 1 9 23
M  V30 26 1 13 24
M  V30 27 1 13 25
M  V30 28 1 15 26
M  V30 29 1 16 27
M  V30 30 1 17 28
M  V30 END BOND
M  V30 END CTAB
M  END
