
     RDKit          3D

  0  0  0  0  0  0  0  0  0  0999 V3000
M  V30 BEGIN CTAB
M  V30 COUNTS 25 26 0 0 0
M  V30 BEGIN ATOM
M  V30 1 C 4.31305 -0.18231 -0.196991 0
M  V30 2 C 2.80872 -0.103399 -0.104912 0
M  V30 3 C 2.06888 0.456159 -1.11618 0
M  V30 4 C 0.704693 0.512183 -1.0012 0
M  V30 5 C 0.0165324 0.0331976 0.0859565 0
M  V30 6 C 0.777066 -0.526565 1.09418 0
M  V30 7 C 2.16034 -0.595704 1.0026 0
M  V30 8 N -1.39551 0.0895063 0.208368 0
M  V30 9 N -2.1087 0.372822 1.29353 0
M  V30 10 C -3.41587 0.332566 1.036 0
M  V30 11 N -4.41303 0.594093 2.01284 0
M  V30 12 N -3.54566 0.0166004 -0.242115 0
M  V30 13 C -2.31681 -0.134913 -0.760268 0
M  V30 14 N -2.03128 -0.474978 -2.10473 0
M  V30 15 H 4.71398 0.741835 -0.656963 0
M  V30 16 H 4.5948 -1.02119 -0.841043 0
M  V30 17 H 4.68345 -0.236859 0.829736 0
M  V30 18 H 2.60152 0.842956 -1.99021 0
M  V30 19 H 0.137471 0.952135 -1.79874 0
M  V30 20 H 0.327663 -0.926314 1.98053 0
M  V30 21 H 2.77836 -1.03087 1.78192 0
M  V30 22 H -5.38526 0.875471 1.71848 0
M  V30 23 H -4.22089 0.518072 3.03477 0
M  V30 24 H -2.01344 0.312626 -2.803 0
M  V30 25 H -1.84008 -1.41712 -2.46257 0
M  V30 END ATOM
M  V30 BEGIN BOND
M  V30 1 1 1 2
M  V30 2 2 2 3
M  V30 3 1 3 4
M  V30 4 2 4 5
M  V30 5 1 5 6
M  V30 6 2 6 7
M  V30 7 1 5 8
M  V30 8 1 8 9
M  V30 9 2 9 10
M  V30 10 1 10 11
M  V30 11 1 10 12
M  V30 12 2 12 13
M  V30 13 1 13 14
M  V30 14 1 7 2
M  V30 15 1 13 8
M  V30 16 1 1 15
M  V30 17 1 1 16
M  V30 18 1 1 17
M  V30 19 1 3 18
M  V30 20 1 4 19
M  V30 21 1 6 20
M  V30 22 1 7 21
M  V30 23 1 11 22
M  V30 24 1 11 23
M  V30 25 1 14 24
M  V30 26 1 14 25
M  V30 END BOND
M  V30 END CTAB
M  END
