
     RDKit          3D

  0  0  0  0  0  0  0  0  0  0999 V3000
M  V30 BEGIN CTAB
M  V30 COUNTS 36 37 0 0 0
M  V30 BEGIN ATOM
M  V30 1 N 3.91343 0.849927 3.66719 0
M  V30 2 C 3.90738 0.538809 2.55965 0
M  V30 3 C 3.91397 0.162087 1.14219 0
M  V30 4 C 4.91483 0.553242 0.397507 0
M  V30 5 N 4.99081 0.230657 -0.972648 0
M  V30 6 C 6.00596 1.36305 1.01713 0
M  V30 7 C 2.7875 -0.63142 0.681345 0
M  V30 8 O 1.89669 -0.914341 1.56449 0
M  V30 9 C 2.63045 -1.109 -0.71149 0
M  V30 10 S 1.03914 -2.0267 -0.789729 0
M  V30 11 C -0.258246 -0.832182 -0.511823 0
M  V30 12 N -0.135002 0.478636 -0.288515 0
M  V30 13 N -1.33348 0.980733 -0.137392 0
M  V30 14 C -2.29424 0.0151994 -0.25609 0
M  V30 15 N -1.60686 -1.0988 -0.487533 0
M  V30 16 N -2.09296 -2.39263 -0.688669 0
M  V30 17 C -3.72794 0.219565 -0.145564 0
M  V30 18 C -4.68903 -0.744943 -0.261141 0
M  V30 19 C -6.05207 -0.430661 -0.136671 0
M  V30 20 C -6.49333 0.846853 0.105278 0
M  V30 21 C -5.52821 1.81699 0.221681 0
M  V30 22 C -4.18876 1.5185 0.101036 0
M  V30 23 F -3.25269 2.49347 0.219725 0
M  V30 24 H 4.58476 0.794865 -1.74126 0
M  V30 25 H 5.49729 -0.645121 -1.28281 0
M  V30 26 H 6.67416 1.77583 0.227786 0
M  V30 27 H 5.5346 2.25406 1.49829 0
M  V30 28 H 6.57224 0.783889 1.76923 0
M  V30 29 H 3.43388 -1.79675 -1.04499 0
M  V30 30 H 2.47437 -0.231128 -1.36602 0
M  V30 31 H -2.41497 -2.98684 0.0928089 0
M  V30 32 H -2.11935 -2.74384 -1.6756 0
M  V30 33 H -4.41174 -1.76452 -0.45008 0
M  V30 34 H -6.78863 -1.20628 -0.231748 0
M  V30 35 H -7.54922 1.04465 0.193957 0
M  V30 36 H -5.83474 2.83412 0.412041 0
M  V30 END ATOM
M  V30 BEGIN BOND
M  V30 1 3 1 2
M  V30 2 1 2 3
M  V30 3 2 3 4 CFG=2
M  V30 4 1 4 5
M  V30 5 1 4 6
M  V30 6 1 3 7
M  V30 7 2 7 8
M  V30 8 1 7 9
M  V30 9 1 9 10
M  V30 10 1 10 11
M  V30 11 2 11 12
M  V30 12 1 12 13
M  V30 13 2 13 14
M  V30 14 1 14 15
M  V30 15 1 15 16
M  V30 16 1 14 17
M  V30 17 2 17 18
M  V30 18 1 18 19
M  V30 19 2 19 20
M  V30 20 1 20 21
M  V30 21 2 21 22
M  V30 22 1 22 23
M  V30 23 1 15 11
M  V30 24 1 22 17
M  V30 25 1 5 24
M  V30 26 1 5 25
M  V30 27 1 6 26
M  V30 28 1 6 27
M  V30 29 1 6 28
M  V30 30 1 9 29
M  V30 31 1 9 30
M  V30 32 1 16 31
M  V30 33 1 16 32
M  V30 34 1 18 33
M  V30 35 1 19 34
M  V30 36 1 20 35
M  V30 37 1 21 36
M  V30 END BOND
M  V30 END CTAB
M  END
