
     RDKit          3D

  0  0  0  0  0  0  0  0  0  0999 V3000
M  V30 BEGIN CTAB
M  V30 COUNTS 35 36 0 0 0
M  V30 BEGIN ATOM
M  V30 1 N -3.65805 0.941799 -2.49465 0
M  V30 2 C -3.3851 1.43029 -1.17515 0
M  V30 3 N -2.47196 0.871436 -0.396234 0
M  V30 4 C -2.18434 1.32129 0.878695 0
M  V30 5 O -1.2914 0.757825 1.60849 0
M  V30 6 C -0.371239 0.0890233 2.21707 0
M  V30 7 C 1.02158 0.0520708 1.54428 0
M  V30 8 O 1.8366 -0.716197 2.36654 0
M  V30 9 C 3.12409 -0.873191 1.93687 0
M  V30 10 C 3.15935 -1.53548 0.616629 0
M  V30 11 C 2.36779 -2.6269 0.394509 0
M  V30 12 C 2.39518 -3.26111 -0.842743 0
M  V30 13 C 3.2336 -2.75796 -1.8184 0
M  V30 14 C 4.0388 -1.65732 -1.61021 0
M  V30 15 C 4.00172 -1.02709 -0.358007 0
M  V30 16 C -2.90596 2.4364 1.37115 0
M  V30 17 N -3.81683 2.98182 0.573949 0
M  V30 18 C -4.06954 2.51645 -0.661822 0
M  V30 19 N -5.05399 3.13936 -1.469 0
M  V30 20 H -4.58322 1.13318 -2.93572 0
M  V30 21 H -2.97403 0.395172 -3.0541 0
M  V30 22 H -0.114648 0.334893 3.2842 0
M  V30 23 H -0.626356 -1.02594 2.28405 0
M  V30 24 H 1.43306 1.08602 1.5657 0
M  V30 25 H 0.978122 -0.360856 0.538352 0
M  V30 26 H 3.65102 -1.50043 2.71296 0
M  V30 27 H 3.63509 0.112355 1.88461 0
M  V30 28 H 1.72541 -2.9971 1.17009 0
M  V30 29 H 1.76744 -4.12067 -1.00599 0
M  V30 30 H 3.27166 -3.23683 -2.79372 0
M  V30 31 H 4.69048 -1.27122 -2.37478 0
M  V30 32 H 4.60476 -0.164325 -0.132751 0
M  V30 33 H -2.67441 2.77844 2.36795 0
M  V30 34 H -4.68665 3.63701 -2.32179 0
M  V30 35 H -6.06804 3.11778 -1.25272 0
M  V30 END ATOM
M  V30 BEGIN BOND
M  V30 1 1 1 2
M  V30 2 2 2 3
M  V30 3 1 3 4
M  V30 4 1 4 5
M  V30 5 1 5 6
M  V30 6 1 6 7
M  V30 7 1 7 8
M  V30 8 1 8 9
M  V30 9 1 9 10
M  V30 10 2 10 11
M  V30 11 1 11 12
M  V30 12 2 12 13
M  V30 13 1 13 14
M  V30 14 2 14 15
M  V30 15 2 4 16
M  V30 16 1 16 17
M  V30 17 2 17 18
M  V30 18 1 18 19
M  V30 19 1 18 2
M  V30 20 1 15 10
M  V30 21 1 1 20
M  V30 22 1 1 21
M  V30 23 1 6 22
M  V30 24 1 6 23
M  V30 25 1 7 24
M  V30 26 1 7 25
M  V30 27 1 9 26
M  V30 28 1 9 27
M  V30 29 1 11 28
M  V30 30 1 12 29
M  V30 31 1 13 30
M  V30 32 1 14 31
M  V30 33 1 15 32
M  V30 34 1 16 33
M  V30 35 1 19 34
M  V30 36 1 19 35
M  V30 END BOND
M  V30 END CTAB
M  END
