
     RDKit          3D

  0  0  0  0  0  0  0  0  0  0999 V3000
M  V30 BEGIN CTAB
M  V30 COUNTS 38 39 0 0 0
M  V30 BEGIN ATOM
M  V30 1 C -0.571243 -1.39154 0.932453 0 CFG=2
M  V30 2 C -0.217888 -2.60204 0.125666 0
M  V30 3 C -1.60139 -0.547902 0.304257 0
M  V30 4 C -2.69157 -0.0601622 1.00628 0
M  V30 5 C -3.67869 0.713536 0.446854 0
M  V30 6 C -3.62754 1.05592 -0.900888 0
M  V30 7 N -4.63578 1.85379 -1.49906 0
M  V30 8 C -2.54783 0.578398 -1.61697 0
M  V30 9 C -1.57071 -0.195106 -1.03618 0
M  V30 10 C 0.621258 -0.654478 1.47565 0 CFG=2
M  V30 11 C 0.0973483 0.523043 2.26294 0
M  V30 12 C 1.63815 -0.235518 0.527138 0
M  V30 13 C 2.75012 -1.01185 0.285911 0
M  V30 14 C 3.7425 -0.621002 -0.600506 0
M  V30 15 C 3.65028 0.573223 -1.28022 0
M  V30 16 N 4.6786 0.982383 -2.20153 0
M  V30 17 C 2.54376 1.36015 -1.04889 0
M  V30 18 C 1.54942 0.956269 -0.152946 0
M  V30 19 H -1.06866 -1.79312 1.87292 0
M  V30 20 H -0.0434144 -2.37406 -0.957261 0
M  V30 21 H 0.698198 -3.04837 0.590991 0
M  V30 22 H -0.986426 -3.39398 0.157677 0
M  V30 23 H -2.71896 -0.340473 2.07166 0
M  V30 24 H -4.51328 1.07695 1.02037 0
M  V30 25 H -4.50247 2.86924 -1.56622 0
M  V30 26 H -5.48731 1.40755 -1.85813 0
M  V30 27 H -2.49168 0.835377 -2.66871 0
M  V30 28 H -0.734856 -0.559445 -1.63711 0
M  V30 29 H 1.06159 -1.36783 2.23636 0
M  V30 30 H -0.43822 1.24422 1.59693 0
M  V30 31 H 0.929961 1.02433 2.80831 0
M  V30 32 H -0.58457 0.144679 3.03733 0
M  V30 33 H 2.8287 -1.93749 0.808131 0
M  V30 34 H 4.62196 -1.2384 -0.789183 0
M  V30 35 H 5.36496 1.735 -1.99832 0
M  V30 36 H 4.727 0.497311 -3.10534 0
M  V30 37 H 2.47182 2.29882 -1.5835 0
M  V30 38 H 0.73684 1.64258 -0.0415063 0
M  V30 END ATOM
M  V30 BEGIN BOND
M  V30 1 1 1 2
M  V30 2 1 1 3
M  V30 3 2 3 4
M  V30 4 1 4 5
M  V30 5 2 5 6
M  V30 6 1 6 7
M  V30 7 1 6 8
M  V30 8 2 8 9
M  V30 9 1 1 10
M  V30 10 1 10 11
M  V30 11 1 10 12
M  V30 12 2 12 13
M  V30 13 1 13 14
M  V30 14 2 14 15
M  V30 15 1 15 16
M  V30 16 1 15 17
M  V30 17 2 17 18
M  V30 18 1 9 3
M  V30 19 1 18 12
M  V30 20 1 1 19 CFG=1
M  V30 21 1 2 20
M  V30 22 1 2 21
M  V30 23 1 2 22
M  V30 24 1 4 23
M  V30 25 1 5 24
M  V30 26 1 7 25
M  V30 27 1 7 26
M  V30 28 1 8 27
M  V30 29 1 9 28
M  V30 30 1 10 29 CFG=1
M  V30 31 1 11 30
M  V30 32 1 11 31
M  V30 33 1 11 32
M  V30 34 1 13 33
M  V30 35 1 14 34
M  V30 36 1 16 35
M  V30 37 1 16 36
M  V30 38 1 17 37
M  V30 39 1 18 38
M  V30 END BOND
M  V30 END CTAB
M  END
