
     RDKit          3D

  0  0  0  0  0  0  0  0  0  0999 V3000
M  V30 BEGIN CTAB
M  V30 COUNTS 68 73 0 0 0
M  V30 BEGIN ATOM
M  V30 1 N -4.92 3.02103 -2.28569 0
M  V30 2 C -5.11979 1.61348 -2.15748 0
M  V30 3 N -5.93523 0.94624 -3.01967 0
M  V30 4 C -6.12733 -0.377926 -2.85555 0
M  V30 5 N -6.99373 -1.00503 -3.78987 0
M  V30 6 C -5.52943 -1.07745 -1.84774 0
M  V30 7 C -4.6943 -0.409826 -0.962187 0
M  V30 8 N -4.55243 0.888089 -1.18526 0
M  V30 9 N -4.19741 -1.28122 -0.0343788 0
M  V30 10 C -4.76835 -2.48327 -0.404211 0
M  V30 11 N -5.54225 -2.34858 -1.46264 0
M  V30 12 C -3.2967 -1.0274 1.06461 0 CFG=1
M  V30 13 C -1.85129 -0.934476 0.626184 0
M  V30 14 C -1.00049 0.0840743 1.27148 0
M  V30 15 C 0.0550594 -0.429952 2.23091 0
M  V30 16 C 1.37182 0.321123 2.01245 0
M  V30 17 N 1.89852 -0.0788551 0.685959 0
M  V30 18 C 0.877657 -0.110364 -0.336043 0
M  V30 19 C -0.249395 0.821221 0.188691 0
M  V30 20 C 3.24434 -0.335126 0.558599 0
M  V30 21 O 3.96505 -0.0826829 1.61609 0
M  V30 22 C 3.98192 -0.857142 -0.572593 0
M  V30 23 N 5.42599 -0.614623 -0.460557 0
M  V30 24 C 5.96055 0.475078 -1.10518 0
M  V30 25 C 5.41888 1.43423 -1.92798 0
M  V30 26 C 6.23616 2.41303 -2.43975 0
M  V30 27 C 7.5871 2.43826 -2.13224 0
M  V30 28 C 8.1463 1.49248 -1.31418 0
M  V30 29 C 7.31504 0.501454 -0.799289 0
M  V30 30 N 7.55432 -0.558259 0.0053895 0
M  V30 31 C 6.37745 -1.25214 0.212335 0
M  V30 32 C 6.28987 -2.4736 1.05648 0
M  V30 33 F 6.49094 -2.19101 2.41861 0
M  V30 34 F 7.40461 -3.26182 0.676013 0
M  V30 35 F 5.1885 -3.24132 0.842416 0
M  V30 36 O -1.73996 0.999703 2.02588 0
M  V30 37 C -2.44956 0.19882 2.96888 0
M  V30 38 C -3.72982 -0.169423 2.15904 0 CFG=1
M  V30 39 C -4.41782 1.11972 1.96963 0
M  V30 40 O -4.48783 -0.907269 3.10108 0
M  V30 41 H -3.99187 3.44434 -2.23127 0
M  V30 42 H -5.74674 3.62158 -2.44365 0
M  V30 43 H -7.05282 -0.656433 -4.76516 0
M  V30 44 H -7.55654 -1.8203 -3.47773 0
M  V30 45 H -4.58477 -3.40215 0.124721 0
M  V30 46 H -3.28722 -2.07797 1.58854 0
M  V30 47 H -1.85206 -0.813941 -0.507735 0
M  V30 48 H -1.31812 -1.91272 0.72542 0
M  V30 49 H 0.199135 -1.49491 2.10199 0
M  V30 50 H -0.178576 -0.239931 3.30388 0
M  V30 51 H 2.06587 -0.038513 2.75176 0
M  V30 52 H 1.25898 1.39582 2.08086 0
M  V30 53 H 1.20486 0.217464 -1.32089 0
M  V30 54 H 0.455804 -1.12597 -0.372562 0
M  V30 55 H -0.9516 0.845587 -0.694953 0
M  V30 56 H 0.112311 1.80128 0.464738 0
M  V30 57 H 3.8157 -1.9532 -0.627268 0
M  V30 58 H 3.60111 -0.472481 -1.57519 0
M  V30 59 H 4.37361 1.43726 -2.17336 0
M  V30 60 H 5.78798 3.14474 -3.07432 0
M  V30 61 H 8.21446 3.23181 -2.55605 0
M  V30 62 H 9.19302 1.49485 -1.06502 0
M  V30 63 H -2.76652 0.773199 3.84547 0
M  V30 64 H -1.99041 -0.757791 3.17543 0
M  V30 65 H -4.544 1.55774 3.03004 0
M  V30 66 H -5.47321 1.07657 1.62899 0
M  V30 67 H -3.82442 1.93219 1.49493 0
M  V30 68 H -4.35097 -0.46739 3.97016 0
M  V30 END ATOM
M  V30 BEGIN BOND
M  V30 1 1 1 2
M  V30 2 2 2 3
M  V30 3 1 3 4
M  V30 4 1 4 5
M  V30 5 2 4 6
M  V30 6 1 6 7
M  V30 7 2 7 8
M  V30 8 1 7 9
M  V30 9 1 9 10
M  V30 10 2 10 11
M  V30 11 1 9 12
M  V30 12 1 12 13
M  V30 13 1 13 14
M  V30 14 1 14 15
M  V30 15 1 15 16
M  V30 16 1 16 17
M  V30 17 1 17 18
M  V30 18 1 18 19
M  V30 19 1 17 20
M  V30 20 2 20 21
M  V30 21 1 20 22
M  V30 22 1 22 23
M  V30 23 1 23 24
M  V30 24 2 24 25
M  V30 25 1 25 26
M  V30 26 2 26 27
M  V30 27 1 27 28
M  V30 28 2 28 29
M  V30 29 1 29 30
M  V30 30 2 30 31
M  V30 31 1 31 32
M  V30 32 1 32 33
M  V30 33 1 32 34
M  V30 34 1 32 35
M  V30 35 1 14 36
M  V30 36 1 36 37
M  V30 37 1 37 38
M  V30 38 1 38 39
M  V30 39 1 38 40 CFG=1
M  V30 40 1 8 2
M  V30 41 1 38 12
M  V30 42 1 11 6
M  V30 43 1 19 14
M  V30 44 1 31 23
M  V30 45 1 29 24
M  V30 46 1 1 41
M  V30 47 1 1 42
M  V30 48 1 5 43
M  V30 49 1 5 44
M  V30 50 1 10 45
M  V30 51 1 12 46 CFG=1
M  V30 52 1 13 47
M  V30 53 1 13 48
M  V30 54 1 15 49
M  V30 55 1 15 50
M  V30 56 1 16 51
M  V30 57 1 16 52
M  V30 58 1 18 53
M  V30 59 1 18 54
M  V30 60 1 19 55
M  V30 61 1 19 56
M  V30 62 1 22 57
M  V30 63 1 22 58
M  V30 64 1 25 59
M  V30 65 1 26 60
M  V30 66 1 27 61
M  V30 67 1 28 62
M  V30 68 1 37 63
M  V30 69 1 37 64
M  V30 70 1 39 65
M  V30 71 1 39 66
M  V30 72 1 39 67
M  V30 73 1 40 68
M  V30 END BOND
M  V30 END CTAB
M  END
