
     RDKit          3D

  0  0  0  0  0  0  0  0  0  0999 V3000
M  V30 BEGIN CTAB
M  V30 COUNTS 24 24 0 0 0
M  V30 BEGIN ATOM
M  V30 1 C 2.63698 1.98005 -0.299878 0
M  V30 2 C 1.68681 0.98648 0.355409 0
M  V30 3 C 1.51464 -0.23238 -0.501165 0
M  V30 4 C 0.614862 -1.28522 0.0245411 0
M  V30 5 C -0.785633 -0.896804 0.246071 0
M  V30 6 N -1.77875 -1.80695 0.494673 0
M  V30 7 N -2.91159 -1.17899 0.640408 0
M  V30 8 C -2.73368 0.145962 0.499799 0
M  V30 9 N -1.42205 0.279965 0.25984 0
M  V30 10 N -3.72144 1.16563 0.587877 0
M  V30 11 N 0.666162 -2.40906 -0.925579 0
M  V30 12 H 2.09397 2.57651 -1.08698 0
M  V30 13 H 3.04855 2.63819 0.491536 0
M  V30 14 H 3.49049 1.46373 -0.771129 0
M  V30 15 H 2.20093 0.711054 1.32307 0
M  V30 16 H 0.757353 1.46092 0.637665 0
M  V30 17 H 1.16817 0.0480766 -1.54143 0
M  V30 18 H 2.55969 -0.62259 -0.681848 0
M  V30 19 H 1.00039 -1.74095 0.984249 0
M  V30 20 H -3.81734 -1.66639 0.838743 0
M  V30 21 H -3.53186 2.13448 0.925573 0
M  V30 22 H -4.70401 0.95957 0.303898 0
M  V30 23 H 1.66309 -2.68663 -0.977146 0
M  V30 24 H 0.304247 -2.02465 -1.8282 0
M  V30 END ATOM
M  V30 BEGIN BOND
M  V30 1 1 1 2
M  V30 2 1 2 3
M  V30 3 1 3 4
M  V30 4 1 4 5
M  V30 5 2 5 6
M  V30 6 1 6 7
M  V30 7 1 7 8
M  V30 8 2 8 9
M  V30 9 1 8 10
M  V30 10 1 4 11
M  V30 11 1 9 5
M  V30 12 1 1 12
M  V30 13 1 1 13
M  V30 14 1 1 14
M  V30 15 1 2 15
M  V30 16 1 2 16
M  V30 17 1 3 17
M  V30 18 1 3 18
M  V30 19 1 4 19
M  V30 20 1 7 20
M  V30 21 1 10 21
M  V30 22 1 10 22
M  V30 23 1 11 23
M  V30 24 1 11 24
M  V30 END BOND
M  V30 END CTAB
M  END
