
     RDKit          3D

  0  0  0  0  0  0  0  0  0  0999 V3000
M  V30 BEGIN CTAB
M  V30 COUNTS 81 85 0 0 0
M  V30 BEGIN ATOM
M  V30 1 N 7.58366 1.45379 -1.32486 0
M  V30 2 C 7.71132 0.0519733 -1.2016 0
M  V30 3 N 8.76246 -0.518903 -1.7146 0
M  V30 4 N 6.73249 -0.734696 -0.541444 0
M  V30 5 C 6.2435 -0.247444 0.739373 0
M  V30 6 C 4.7981 -0.698303 0.933977 0
M  V30 7 C 4.2034 -0.835622 -0.429672 0
M  V30 8 C 4.7603 -2.09253 -1.0616 0
M  V30 9 C 6.26747 -1.95516 -1.14204 0
M  V30 10 C 2.71245 -0.810781 -0.477359 0
M  V30 11 C 2.02876 -1.88564 0.295995 0
M  V30 12 C 1.21627 -1.35454 1.44889 0
M  V30 13 N 0.238666 -0.362583 0.983098 0
M  V30 14 C 0.608609 0.378751 -0.184434 0
M  V30 15 C 2.13296 0.551009 -0.122074 0
M  V30 16 C -0.984996 -0.253195 1.69337 0
M  V30 17 O -1.16781 -1.07305 2.64787 0
M  V30 18 C -2.0474 0.747994 1.38574 0 CFG=2
M  V30 19 C -1.55035 2.06012 1.96563 0
M  V30 20 C -2.46447 3.1908 1.76004 0
M  V30 21 C -3.44212 3.51593 2.67278 0
M  V30 22 C -4.24872 4.5933 2.39346 0
M  V30 23 C -4.09042 5.33863 1.22778 0
M  V30 24 C -3.1208 5.03606 0.29738 0
M  V30 25 C -2.31439 3.92989 0.613604 0
M  V30 26 C -2.90161 5.7709 -0.935395 0
M  V30 27 N -1.86561 5.35336 -1.80342 0
M  V30 28 N -3.6132 6.77105 -1.24731 0
M  V30 29 N -3.24045 0.374335 2.10473 0
M  V30 30 S -4.58656 0.0739295 1.09697 0
M  V30 31 O -5.76242 -0.204219 2.02855 0
M  V30 32 O -4.99443 1.27098 0.286484 0
M  V30 33 C -4.34617 -1.23588 -0.0131548 0
M  V30 34 C -4.69634 -2.51318 0.347325 0
M  V30 35 C -4.52572 -3.59673 -0.490647 0
M  V30 36 C -3.97524 -3.38695 -1.75532 0
M  V30 37 C -3.79833 -4.47367 -2.60759 0
M  V30 38 C -4.14065 -5.74204 -2.26115 0
M  V30 39 C -4.69123 -5.93475 -0.990113 0
M  V30 40 C -4.87231 -4.87351 -0.13693 0
M  V30 41 C -3.62126 -2.10918 -2.12524 0
M  V30 42 C -3.80729 -1.05065 -1.25952 0
M  V30 43 H 6.66597 1.9105 -1.3654 0
M  V30 44 H 8.44446 2.05145 -1.37781 0
M  V30 45 H 8.92157 -1.54742 -1.66093 0
M  V30 46 H 6.90476 -0.664543 1.52604 0
M  V30 47 H 6.2997 0.84612 0.747068 0
M  V30 48 H 4.28011 0.0488671 1.56227 0
M  V30 49 H 4.85762 -1.69518 1.44037 0
M  V30 50 H 4.58184 0.0103229 -1.06364 0
M  V30 51 H 4.35054 -2.24042 -2.07053 0
M  V30 52 H 4.51695 -2.93451 -0.382051 0
M  V30 53 H 6.60192 -1.97817 -2.19479 0
M  V30 54 H 6.78154 -2.81799 -0.644524 0
M  V30 55 H 2.43217 -0.965708 -1.56113 0
M  V30 56 H 1.36711 -2.53786 -0.347573 0
M  V30 57 H 2.75006 -2.61827 0.751325 0
M  V30 58 H 0.739831 -2.17622 1.99261 0
M  V30 59 H 1.90031 -0.817979 2.15219 0
M  V30 60 H 0.389583 -0.188643 -1.13064 0
M  V30 61 H 0.168747 1.35492 -0.27185 0
M  V30 62 H 2.41498 0.875553 0.888992 0
M  V30 63 H 2.41445 1.30194 -0.868434 0
M  V30 64 H -2.11758 0.830021 0.318975 0
M  V30 65 H -1.50876 1.91405 3.08786 0
M  V30 66 H -0.541738 2.35109 1.66468 0
M  V30 67 H -3.57965 2.93831 3.59577 0
M  V30 68 H -5.02286 4.86736 3.0954 0
M  V30 69 H -4.74886 6.18753 1.03895 0
M  V30 70 H -1.53399 3.67573 -0.122089 0
M  V30 71 H -1.86713 4.3947 -2.20408 0
M  V30 72 H -1.09196 5.99415 -2.05223 0
M  V30 73 H -4.38114 7.12329 -0.657218 0
M  V30 74 H -3.03752 -0.375063 2.75966 0
M  V30 75 H -5.1299 -2.73059 1.3236 0
M  V30 76 H -3.3668 -4.29296 -3.59221 0
M  V30 77 H -4.01767 -6.60021 -2.89113 0
M  V30 78 H -4.96313 -6.94354 -0.714382 0
M  V30 79 H -5.29639 -5.0487 0.83059 0
M  V30 80 H -3.19758 -1.97991 -3.11003 0
M  V30 81 H -3.51165 -0.0416208 -1.59125 0
M  V30 END ATOM
M  V30 BEGIN BOND
M  V30 1 1 1 2
M  V30 2 2 2 3 CFG=2
M  V30 3 1 2 4
M  V30 4 1 4 5
M  V30 5 1 5 6
M  V30 6 1 6 7
M  V30 7 1 7 8
M  V30 8 1 8 9
M  V30 9 1 7 10
M  V30 10 1 10 11
M  V30 11 1 11 12
M  V30 12 1 12 13
M  V30 13 1 13 14
M  V30 14 1 14 15
M  V30 15 1 13 16
M  V30 16 2 16 17
M  V30 17 1 16 18
M  V30 18 1 18 19
M  V30 19 1 19 20
M  V30 20 2 20 21
M  V30 21 1 21 22
M  V30 22 2 22 23
M  V30 23 1 23 24
M  V30 24 2 24 25
M  V30 25 1 24 26
M  V30 26 1 26 27
M  V30 27 2 26 28 CFG=2
M  V30 28 1 18 29
M  V30 29 1 29 30
M  V30 30 2 30 31
M  V30 31 2 30 32
M  V30 32 1 30 33
M  V30 33 2 33 34
M  V30 34 1 34 35
M  V30 35 2 35 36
M  V30 36 1 36 37
M  V30 37 2 37 38
M  V30 38 1 38 39
M  V30 39 2 39 40
M  V30 40 1 36 41
M  V30 41 2 41 42
M  V30 42 1 9 4
M  V30 43 1 15 10
M  V30 44 1 25 20
M  V30 45 1 42 33
M  V30 46 1 40 35
M  V30 47 1 1 43
M  V30 48 1 1 44
M  V30 49 1 3 45
M  V30 50 1 5 46
M  V30 51 1 5 47
M  V30 52 1 6 48
M  V30 53 1 6 49
M  V30 54 1 7 50
M  V30 55 1 8 51
M  V30 56 1 8 52
M  V30 57 1 9 53
M  V30 58 1 9 54
M  V30 59 1 10 55
M  V30 60 1 11 56
M  V30 61 1 11 57
M  V30 62 1 12 58
M  V30 63 1 12 59
M  V30 64 1 14 60
M  V30 65 1 14 61
M  V30 66 1 15 62
M  V30 67 1 15 63
M  V30 68 1 18 64 CFG=3
M  V30 69 1 19 65
M  V30 70 1 19 66
M  V30 71 1 21 67
M  V30 72 1 22 68
M  V30 73 1 23 69
M  V30 74 1 25 70
M  V30 75 1 27 71
M  V30 76 1 27 72
M  V30 77 1 28 73
M  V30 78 1 29 74
M  V30 79 1 34 75
M  V30 80 1 37 76
M  V30 81 1 38 77
M  V30 82 1 39 78
M  V30 83 1 40 79
M  V30 84 1 41 80
M  V30 85 1 42 81
M  V30 END BOND
M  V30 END CTAB
M  END
