
     RDKit          3D

  0  0  0  0  0  0  0  0  0  0999 V3000
M  V30 BEGIN CTAB
M  V30 COUNTS 25 26 0 0 0
M  V30 BEGIN ATOM
M  V30 1 N 3.86143 -0.94975 0.18966 0
M  V30 2 C 2.47757 -0.60529 0.116423 0
M  V30 3 C 1.49527 -1.52214 0.317994 0
M  V30 4 C 0.149448 -1.17832 0.244849 0
M  V30 5 C -0.243021 0.0868126 -0.0307591 0
M  V30 6 C 0.777451 1.01625 -0.235164 0
M  V30 7 C 2.10337 0.687444 -0.165285 0
M  V30 8 N 3.12212 1.65672 -0.378277 0
M  V30 9 C -1.61411 0.571942 -0.13279 0
M  V30 10 S -2.08101 2.21445 -0.501427 0
M  V30 11 C -3.76777 2.02441 -0.447565 0
M  V30 12 N -3.8912 0.750452 -0.158476 0
M  V30 13 C -2.84065 -0.00646439 0.00606171 0
M  V30 14 C -3.03369 -1.48084 0.34259 0
M  V30 15 H 4.34082 -1.42417 -0.580312 0
M  V30 16 H 4.38327 -0.707983 1.04971 0
M  V30 17 H 1.79795 -2.54898 0.541748 0
M  V30 18 H -0.528723 -1.97429 0.418586 0
M  V30 19 H 0.506397 2.03912 -0.458078 0
M  V30 20 H 3.98109 1.48841 -0.918462 0
M  V30 21 H 2.9744 2.59762 0.0482787 0
M  V30 22 H -4.5706 2.77867 -0.613089 0
M  V30 23 H -2.66205 -2.12568 -0.445663 0
M  V30 24 H -2.61789 -1.66537 1.34823 0
M  V30 25 H -4.11987 -1.72304 0.44122 0
M  V30 END ATOM
M  V30 BEGIN BOND
M  V30 1 1 1 2
M  V30 2 2 2 3
M  V30 3 1 3 4
M  V30 4 2 4 5
M  V30 5 1 5 6
M  V30 6 2 6 7
M  V30 7 1 7 8
M  V30 8 1 5 9
M  V30 9 1 9 10
M  V30 10 1 10 11
M  V30 11 2 11 12
M  V30 12 1 12 13
M  V30 13 1 13 14
M  V30 14 1 7 2
M  V30 15 2 13 9
M  V30 16 1 1 15
M  V30 17 1 1 16
M  V30 18 1 3 17
M  V30 19 1 4 18
M  V30 20 1 6 19
M  V30 21 1 8 20
M  V30 22 1 8 21
M  V30 23 1 11 22
M  V30 24 1 14 23
M  V30 25 1 14 24
M  V30 26 1 14 25
M  V30 END BOND
M  V30 END CTAB
M  END
