
     RDKit          3D

  0  0  0  0  0  0  0  0  0  0999 V3000
M  V30 BEGIN CTAB
M  V30 COUNTS 21 20 0 0 0
M  V30 BEGIN ATOM
M  V30 1 C -0.441268 1.109 1.19646 0
M  V30 2 C -0.302239 -0.216592 0.420929 0
M  V30 3 C -1.03151 -0.0366432 -0.854643 0
M  V30 4 N -1.04313 -1.13764 -1.7576 0
M  V30 5 C 1.17104 -0.477994 0.325872 0
M  V30 6 C 1.91196 0.577463 -0.373069 0
M  V30 7 O 2.37147 0.313402 -1.52257 0
M  V30 8 O 2.1175 1.81926 0.159586 0
M  V30 9 N -0.947568 -1.2456 1.22103 0
M  V30 10 H -1.40957 1.08439 1.68608 0
M  V30 11 H -0.374808 1.95748 0.443015 0
M  V30 12 H 0.426319 1.17362 1.87648 0
M  V30 13 H -0.7368 0.881032 -1.41545 0
M  V30 14 H -2.11856 0.154004 -0.589202 0
M  V30 15 H -1.6605 -0.835317 -2.57654 0
M  V30 16 H -1.52112 -1.98916 -1.41155 0
M  V30 17 H 1.28448 -1.47605 -0.191125 0
M  V30 18 H 1.61039 -0.627877 1.32411 0
M  V30 19 H 2.19346 2.68678 -0.363951 0
M  V30 20 H -1.29189 -2.00781 0.589337 0
M  V30 21 H -0.207644 -1.70575 1.81279 0
M  V30 END ATOM
M  V30 BEGIN BOND
M  V30 1 1 1 2
M  V30 2 1 2 3
M  V30 3 1 3 4
M  V30 4 1 2 5
M  V30 5 1 5 6
M  V30 6 2 6 7
M  V30 7 1 6 8
M  V30 8 1 2 9
M  V30 9 1 1 10
M  V30 10 1 1 11
M  V30 11 1 1 12
M  V30 12 1 3 13
M  V30 13 1 3 14
M  V30 14 1 4 15
M  V30 15 1 4 16
M  V30 16 1 5 17
M  V30 17 1 5 18
M  V30 18 1 8 19
M  V30 19 1 9 20
M  V30 20 1 9 21
M  V30 END BOND
M  V30 END CTAB
M  END
