
     RDKit          3D

  0  0  0  0  0  0  0  0  0  0999 V3000
M  V30 BEGIN CTAB
M  V30 COUNTS 16 16 0 0 0
M  V30 BEGIN ATOM
M  V30 1 N -1.66295 1.50731 -0.15878 0
M  V30 2 C -0.473219 0.778445 -0.0845736 0
M  V30 3 C 0.775326 1.37526 -0.164993 0
M  V30 4 C 1.93305 0.627714 -0.088311 0
M  V30 5 C 1.88613 -0.749476 0.0722162 0
M  V30 6 Br 3.48972 -1.7946 0.179542 0
M  V30 7 C 0.640608 -1.33791 0.151632 0
M  V30 8 F 0.603778 -2.68948 0.309087 0
M  V30 9 C -0.503545 -0.589364 0.0747149 0
M  V30 10 N -1.74791 -1.25317 0.162887 0
M  V30 11 H -2.53981 1.10981 -0.510587 0
M  V30 12 H -1.6855 2.5068 0.153127 0
M  V30 13 H 0.831372 2.45276 -0.290742 0
M  V30 14 H 2.8805 1.14429 -0.15673 0
M  V30 15 H -1.8282 -2.21109 -0.265052 0
M  V30 16 H -2.59936 -0.877307 0.616562 0
M  V30 END ATOM
M  V30 BEGIN BOND
M  V30 1 1 1 2
M  V30 2 2 2 3
M  V30 3 1 3 4
M  V30 4 2 4 5
M  V30 5 1 5 6
M  V30 6 1 5 7
M  V30 7 1 7 8
M  V30 8 2 7 9
M  V30 9 1 9 10
M  V30 10 1 9 2
M  V30 11 1 1 11
M  V30 12 1 1 12
M  V30 13 1 3 13
M  V30 14 1 4 14
M  V30 15 1 10 15
M  V30 16 1 10 16
M  V30 END BOND
M  V30 END CTAB
M  END
