
     RDKit          3D

  0  0  0  0  0  0  0  0  0  0999 V3000
M  V30 BEGIN CTAB
M  V30 COUNTS 27 28 0 0 0
M  V30 BEGIN ATOM
M  V30 1 N 1.8945 1.50696 -1.24557 0
M  V30 2 C 1.79375 0.432987 -0.318839 0
M  V30 3 C 2.92932 0.00614088 0.341167 0
M  V30 4 N 4.19942 0.584968 0.14335 0
M  V30 5 C 2.81227 -1.03927 1.23855 0
M  V30 6 C 1.5947 -1.63224 1.46194 0
M  V30 7 N 0.532372 -1.1595 0.779436 0
M  V30 8 C 0.568343 -0.166075 -0.0919922 0
M  V30 9 N -0.599423 0.26742 -0.774153 0
M  V30 10 C -1.91001 -0.308771 -0.580049 0
M  V30 11 C -2.36877 -0.0936433 0.836602 0
M  V30 12 C -3.76468 -0.673398 1.15919 0
M  V30 13 C -3.59061 0.788787 0.957422 0
M  V30 14 H 1.37745 1.48516 -2.14538 0
M  V30 15 H 2.49326 2.3286 -1.02402 0
M  V30 16 H 4.47328 0.869658 -0.822367 0
M  V30 17 H 4.87213 0.740744 0.909321 0
M  V30 18 H 3.67089 -1.41208 1.78195 0
M  V30 19 H 1.4443 -2.45728 2.15576 0
M  V30 20 H -0.508038 1.05503 -1.4625 0
M  V30 21 H -1.88699 -1.42502 -0.738695 0
M  V30 22 H -2.63346 0.100465 -1.31343 0
M  V30 23 H -1.63364 -0.101228 1.65072 0
M  V30 24 H -4.20828 -1.31064 0.391691 0
M  V30 25 H -3.86332 -1.06072 2.19957 0
M  V30 26 H -3.99305 1.27137 0.0482015 0
M  V30 27 H -3.6957 1.40157 1.88393 0
M  V30 END ATOM
M  V30 BEGIN BOND
M  V30 1 1 1 2
M  V30 2 2 2 3
M  V30 3 1 3 4
M  V30 4 1 3 5
M  V30 5 2 5 6
M  V30 6 1 6 7
M  V30 7 2 7 8
M  V30 8 1 8 9
M  V30 9 1 9 10
M  V30 10 1 10 11
M  V30 11 1 11 12
M  V30 12 1 12 13
M  V30 13 1 8 2
M  V30 14 1 13 11
M  V30 15 1 1 14
M  V30 16 1 1 15
M  V30 17 1 4 16
M  V30 18 1 4 17
M  V30 19 1 5 18
M  V30 20 1 6 19
M  V30 21 1 9 20
M  V30 22 1 10 21
M  V30 23 1 10 22
M  V30 24 1 11 23
M  V30 25 1 12 24
M  V30 26 1 12 25
M  V30 27 1 13 26
M  V30 28 1 13 27
M  V30 END BOND
M  V30 END CTAB
M  END
