
     RDKit          3D

  0  0  0  0  0  0  0  0  0  0999 V3000
M  V30 BEGIN CTAB
M  V30 COUNTS 22 23 0 0 0
M  V30 BEGIN ATOM
M  V30 1 C 2.53165 1.47785 -0.253225 0
M  V30 2 N 2.19343 0.0939205 0.0500146 0
M  V30 3 C 3.08389 -0.885872 0.301776 0
M  V30 4 Cl 4.83002 -0.663212 0.308399 0
M  V30 5 N 2.40316 -2.02162 0.537481 0
M  V30 6 C 1.07658 -1.76741 0.436276 0
M  V30 7 C 0.947673 -0.442082 0.130976 0
M  V30 8 C -0.283094 0.298489 -0.0774763 0
M  V30 9 N -0.422632 1.61727 -0.381381 0
M  V30 10 N -1.70029 1.93478 -0.495346 0
M  V30 11 C -2.42488 0.827324 -0.267744 0
M  V30 12 N -1.54079 -0.168877 -0.0126383 0
M  V30 13 N -1.96873 -1.46832 0.268254 0
M  V30 14 N -3.84683 0.731082 -0.292543 0
M  V30 15 H 3.61993 1.56173 -0.322973 0
M  V30 16 H 2.02597 1.73876 -1.22123 0
M  V30 17 H 2.14976 2.17409 0.546941 0
M  V30 18 H 0.344378 -2.53151 0.585873 0
M  V30 19 H -2.2071 -1.72206 1.26028 0
M  V30 20 H -2.06294 -2.20625 -0.47318 0
M  V30 21 H -4.37884 1.41296 -0.878268 0
M  V30 22 H -4.37031 0.00894896 0.249729 0
M  V30 END ATOM
M  V30 BEGIN BOND
M  V30 1 1 1 2
M  V30 2 1 2 3
M  V30 3 1 3 4
M  V30 4 2 3 5
M  V30 5 1 5 6
M  V30 6 2 6 7
M  V30 7 1 7 8
M  V30 8 2 8 9
M  V30 9 1 9 10
M  V30 10 2 10 11
M  V30 11 1 11 12
M  V30 12 1 12 13
M  V30 13 1 11 14
M  V30 14 1 7 2
M  V30 15 1 12 8
M  V30 16 1 1 15
M  V30 17 1 1 16
M  V30 18 1 1 17
M  V30 19 1 6 18
M  V30 20 1 13 19
M  V30 21 1 13 20
M  V30 22 1 14 21
M  V30 23 1 14 22
M  V30 END BOND
M  V30 END CTAB
M  END
