
     RDKit          3D

  0  0  0  0  0  0  0  0  0  0999 V3000
M  V30 BEGIN CTAB
M  V30 COUNTS 38 39 0 0 0
M  V30 BEGIN ATOM
M  V30 1 C -4.74605 0.208713 0.474223 0
M  V30 2 C -3.671 -0.560335 -0.277774 0
M  V30 3 C -2.49271 0.344118 -0.443172 0
M  V30 4 S -1.82009 0.892766 1.16503 0
M  V30 5 C -0.498643 2.06224 0.727939 0
M  V30 6 C 0.0949708 1.56368 -0.582492 0
M  V30 7 N -0.0840757 0.141971 -0.643961 0
M  V30 8 C -1.36537 -0.245159 -1.21824 0
M  V30 9 C 0.977063 -0.593364 -1.24955 0
M  V30 10 C 2.25771 -0.450995 -0.523071 0
M  V30 11 N 2.37919 0.126346 0.683857 0
M  V30 12 C 3.53076 0.267111 1.36192 0
M  V30 13 N 3.62365 0.884625 2.64019 0
M  V30 14 N 4.63807 -0.215158 0.767248 0
M  V30 15 C 4.59049 -0.809648 -0.449017 0
M  V30 16 N 3.41182 -0.923196 -1.08142 0
M  V30 17 N 5.78782 -1.3094 -1.04819 0
M  V30 18 C -3.36251 -1.81999 0.476087 0
M  V30 19 H -4.66603 -0.070521 1.53613 0
M  V30 20 H -5.76475 -0.0556102 0.0831272 0
M  V30 21 H -4.56016 1.29647 0.392572 0
M  V30 22 H -4.06056 -0.809466 -1.2646 0
M  V30 23 H -2.8446 1.26575 -0.951171 0
M  V30 24 H 0.260596 2.14406 1.50583 0
M  V30 25 H -0.969011 3.06874 0.515114 0
M  V30 26 H 1.14329 1.8867 -0.722472 0
M  V30 27 H -0.446675 2.07893 -1.43653 0
M  V30 28 H -1.43781 0.0895399 -2.25932 0
M  V30 29 H -1.40299 -1.35155 -1.21571 0
M  V30 30 H 1.16145 -0.250263 -2.28915 0
M  V30 31 H 0.714232 -1.67612 -1.21229 0
M  V30 32 H 4.2435 1.69302 2.83926 0
M  V30 33 H 3.05153 0.540773 3.46827 0
M  V30 34 H 6.30084 -2.06826 -0.552722 0
M  V30 35 H 6.09382 -0.892081 -1.95394 0
M  V30 36 H -2.72107 -2.51841 -0.0611178 0
M  V30 37 H -3.00198 -1.58934 1.50587 0
M  V30 38 H -4.3447 -2.34668 0.632292 0
M  V30 END ATOM
M  V30 BEGIN BOND
M  V30 1 1 1 2
M  V30 2 1 2 3
M  V30 3 1 3 4
M  V30 4 1 4 5
M  V30 5 1 5 6
M  V30 6 1 6 7
M  V30 7 1 7 8
M  V30 8 1 7 9
M  V30 9 1 9 10
M  V30 10 2 10 11
M  V30 11 1 11 12
M  V30 12 1 12 13
M  V30 13 2 12 14
M  V30 14 1 14 15
M  V30 15 2 15 16
M  V30 16 1 15 17
M  V30 17 1 2 18
M  V30 18 1 8 3
M  V30 19 1 16 10
M  V30 20 1 1 19
M  V30 21 1 1 20
M  V30 22 1 1 21
M  V30 23 1 2 22
M  V30 24 1 3 23
M  V30 25 1 5 24
M  V30 26 1 5 25
M  V30 27 1 6 26
M  V30 28 1 6 27
M  V30 29 1 8 28
M  V30 30 1 8 29
M  V30 31 1 9 30
M  V30 32 1 9 31
M  V30 33 1 13 32
M  V30 34 1 13 33
M  V30 35 1 17 34
M  V30 36 1 17 35
M  V30 37 1 18 36
M  V30 38 1 18 37
M  V30 39 1 18 38
M  V30 END BOND
M  V30 END CTAB
M  END
