
     RDKit          3D

  0  0  0  0  0  0  0  0  0  0999 V3000
M  V30 BEGIN CTAB
M  V30 COUNTS 25 25 0 0 0
M  V30 BEGIN ATOM
M  V30 1 N 3.9627 -1.55866 0.219923 0
M  V30 2 N 2.85751 -1.34712 1.04703 0
M  V30 3 C 1.8362 -0.490755 0.559781 0
M  V30 4 N 0.56814 -0.995826 0.573432 0
M  V30 5 C -0.472016 -0.263817 0.138689 0
M  V30 6 C -0.198337 1.00635 -0.315934 0
M  V30 7 C 1.07569 1.53137 -0.336753 0
M  V30 8 N 2.08186 0.753432 0.110258 0
M  V30 9 N 1.32838 2.84365 -0.810441 0
M  V30 10 C -1.8542 -0.796382 0.154126 0
M  V30 11 C -2.65897 0.0841263 1.10457 0
M  V30 12 C -2.51096 -0.881525 -1.18462 0
M  V30 13 H 3.61638 -2.11554 -0.598079 0
M  V30 14 H 4.3346 -0.624161 -0.0781111 0
M  V30 15 H 2.73035 -1.7676 1.9876 0
M  V30 16 H -1.05752 1.57722 -0.656229 0
M  V30 17 H 2.29064 3.23592 -0.849779 0
M  V30 18 H 0.560455 3.46709 -1.14107 0
M  V30 19 H -1.8839 -1.81588 0.612703 0
M  V30 20 H -2.21201 -0.0722363 2.11469 0
M  V30 21 H -3.70852 -0.18194 1.02319 0
M  V30 22 H -2.44531 1.16709 0.860634 0
M  V30 23 H -2.69092 -1.95555 -1.47455 0
M  V30 24 H -1.99759 -0.342967 -1.98867 0
M  V30 25 H -3.55264 -0.456314 -1.0724 0
M  V30 END ATOM
M  V30 BEGIN BOND
M  V30 1 1 1 2
M  V30 2 1 2 3
M  V30 3 2 3 4
M  V30 4 1 4 5
M  V30 5 2 5 6
M  V30 6 1 6 7
M  V30 7 2 7 8
M  V30 8 1 7 9
M  V30 9 1 5 10
M  V30 10 1 10 11
M  V30 11 1 10 12
M  V30 12 1 8 3
M  V30 13 1 1 13
M  V30 14 1 1 14
M  V30 15 1 2 15
M  V30 16 1 6 16
M  V30 17 1 9 17
M  V30 18 1 9 18
M  V30 19 1 10 19
M  V30 20 1 11 20
M  V30 21 1 11 21
M  V30 22 1 11 22
M  V30 23 1 12 23
M  V30 24 1 12 24
M  V30 25 1 12 25
M  V30 END BOND
M  V30 END CTAB
M  END
