
     RDKit          3D

  0  0  0  0  0  0  0  0  0  0999 V3000
M  V30 BEGIN CTAB
M  V30 COUNTS 45 49 0 0 0
M  V30 BEGIN ATOM
M  V30 1 C 1.61712 3.48668 1.09607 0
M  V30 2 O 0.457096 2.82557 1.02376 0
M  V30 3 C 0.0212736 2.40653 -0.203817 0
M  V30 4 O -0.165032 3.39643 -1.10703 0
M  V30 5 C -1.01265 4.40117 -0.88145 0
M  V30 6 C 0.878581 1.31453 -0.843286 0
M  V30 7 Cl 2.43287 1.76223 -1.407 0
M  V30 8 C 0.791478 0.210972 0.170493 0
M  V30 9 C -0.604538 0.374664 0.763123 0
M  V30 10 C -1.22025 1.55799 -0.0338903 0
M  V30 11 Cl -2.55759 2.25796 0.792704 0
M  V30 12 C -1.43281 0.943163 -1.35464 0
M  V30 13 C -0.0478078 0.798621 -1.92911 0
M  V30 14 Cl 0.219152 1.39538 -3.53784 0
M  V30 15 C -0.172215 -0.695959 -1.75633 0
M  V30 16 C 0.850183 -0.96131 -0.729694 0
M  V30 17 N 1.59256 -1.96323 -0.655084 0
M  V30 18 N 2.55457 -2.26059 0.271376 0
M  V30 19 C 3.71212 -2.98413 -0.0969698 0
M  V30 20 S 3.87341 -3.45573 -1.65184 0
M  V30 21 N 4.74117 -3.31795 0.830215 0
M  V30 22 C -1.56721 -0.552097 -1.16892 0
M  V30 23 C -1.50934 -0.698217 0.302056 0
M  V30 24 N -2.11045 -1.56143 1.00572 0
M  V30 25 N -2.95302 -2.55173 0.517368 0
M  V30 26 C -3.31031 -3.69376 1.24563 0
M  V30 27 S -4.30736 -4.81861 0.607012 0
M  V30 28 N -2.84174 -3.95783 2.57258 0
M  V30 29 Cl -2.53521 1.67466 -2.50107 0
M  V30 30 H 2.54639 2.97669 0.796537 0
M  V30 31 H 1.81308 3.75933 2.18637 0
M  V30 32 H 1.60558 4.49192 0.56759 0
M  V30 33 H -2.08464 4.21094 -0.74538 0
M  V30 34 H -0.988043 5.07444 -1.80627 0
M  V30 35 H -0.736677 5.0696 -0.0210549 0
M  V30 36 H 1.57063 0.22876 0.934892 0
M  V30 37 H -0.610031 0.563182 1.83087 0
M  V30 38 H -0.155365 -1.30031 -2.65755 0
M  V30 39 H 2.42893 -1.94889 1.257 0
M  V30 40 H 4.64091 -4.10154 1.51243 0
M  V30 41 H 5.62416 -2.77473 0.840421 0
M  V30 42 H -2.37309 -1.04898 -1.69695 0
M  V30 43 H -3.33201 -2.42421 -0.444492 0
M  V30 44 H -2.59785 -4.93557 2.87578 0
M  V30 45 H -2.74602 -3.1746 3.22968 0
M  V30 END ATOM
M  V30 BEGIN BOND
M  V30 1 1 1 2
M  V30 2 1 2 3
M  V30 3 1 3 4
M  V30 4 1 4 5
M  V30 5 1 3 6
M  V30 6 1 6 7
M  V30 7 1 6 8
M  V30 8 1 8 9
M  V30 9 1 9 10
M  V30 10 1 10 11
M  V30 11 1 10 12
M  V30 12 1 12 13
M  V30 13 1 13 14
M  V30 14 1 13 15
M  V30 15 1 15 16
M  V30 16 2 16 17 CFG=2
M  V30 17 1 17 18
M  V30 18 1 18 19
M  V30 19 2 19 20
M  V30 20 1 19 21
M  V30 21 1 15 22
M  V30 22 1 22 23
M  V30 23 2 23 24 CFG=2
M  V30 24 1 24 25
M  V30 25 1 25 26
M  V30 26 2 26 27
M  V30 27 1 26 28
M  V30 28 1 12 29
M  V30 29 1 10 3
M  V30 30 1 22 12
M  V30 31 1 13 6
M  V30 32 1 16 8
M  V30 33 1 23 9
M  V30 34 1 1 30
M  V30 35 1 1 31
M  V30 36 1 1 32
M  V30 37 1 5 33
M  V30 38 1 5 34
M  V30 39 1 5 35
M  V30 40 1 8 36
M  V30 41 1 9 37
M  V30 42 1 15 38
M  V30 43 1 18 39
M  V30 44 1 21 40
M  V30 45 1 21 41
M  V30 46 1 22 42
M  V30 47 1 25 43
M  V30 48 1 28 44
M  V30 49 1 28 45
M  V30 END BOND
M  V30 END CTAB
M  END
