
     RDKit          3D

  0  0  0  0  0  0  0  0  0  0999 V3000
M  V30 BEGIN CTAB
M  V30 COUNTS 28 29 0 0 0
M  V30 BEGIN ATOM
M  V30 1 Cl -3.83368 -2.35873 -0.0605043 0
M  V30 2 C -2.90448 -0.901624 -0.0677112 0
M  V30 3 C -3.56088 0.288147 0.205365 0
M  V30 4 N -2.84553 1.43295 0.246861 0
M  V30 5 C -1.49254 1.47523 0.0304719 0
M  V30 6 C -0.841296 0.328962 -0.240329 0
M  V30 7 C -1.53031 -0.893865 -0.291419 0
M  V30 8 C 0.56114 0.337478 -0.778723 0
M  V30 9 C 1.57246 -0.209103 0.177503 0
M  V30 10 C 1.8082 0.682638 1.43964 0
M  V30 11 C 1.56339 -1.66547 0.53259 0
M  V30 12 C 2.71355 -1.13376 -0.258042 0
M  V30 13 N 0.545304 -0.469963 -1.98059 0
M  V30 14 N -0.808528 2.72654 0.176485 0
M  V30 15 H -4.62197 0.279857 0.385013 0
M  V30 16 H -1.09674 -1.82311 -0.509657 0
M  V30 17 H 0.820482 1.38038 -1.09554 0
M  V30 18 H 0.974094 0.540749 2.17012 0
M  V30 19 H 1.94271 1.7312 1.10935 0
M  V30 20 H 2.73382 0.354772 1.93475 0
M  V30 21 H 0.931284 -2.40226 0.0506531 0
M  V30 22 H 1.76611 -1.89433 1.59702 0
M  V30 23 H 3.65881 -1.08381 0.246445 0
M  V30 24 H 2.78182 -1.38566 -1.34276 0
M  V30 25 H -0.257315 -0.22025 -2.60732 0
M  V30 26 H 0.580935 -1.47776 -1.68167 0
M  V30 27 H -0.873237 3.14469 1.15909 0
M  V30 28 H -0.2876 3.2161 -0.547093 0
M  V30 END ATOM
M  V30 BEGIN BOND
M  V30 1 1 1 2
M  V30 2 2 2 3
M  V30 3 1 3 4
M  V30 4 2 4 5
M  V30 5 1 5 6
M  V30 6 2 6 7
M  V30 7 1 6 8
M  V30 8 1 8 9
M  V30 9 1 9 10
M  V30 10 1 9 11
M  V30 11 1 11 12
M  V30 12 1 8 13
M  V30 13 1 5 14
M  V30 14 1 7 2
M  V30 15 1 12 9
M  V30 16 1 3 15
M  V30 17 1 7 16
M  V30 18 1 8 17
M  V30 19 1 10 18
M  V30 20 1 10 19
M  V30 21 1 10 20
M  V30 22 1 11 21
M  V30 23 1 11 22
M  V30 24 1 12 23
M  V30 25 1 12 24
M  V30 26 1 13 25
M  V30 27 1 13 26
M  V30 28 1 14 27
M  V30 29 1 14 28
M  V30 END BOND
M  V30 END CTAB
M  END
