
     RDKit          3D

  0  0  0  0  0  0  0  0  0  0999 V3000
M  V30 BEGIN CTAB
M  V30 COUNTS 31 31 0 0 0
M  V30 BEGIN ATOM
M  V30 1 Cl -6.68039 -1.98964 0.788259 0
M  V30 2 C -5.77118 -0.609944 0.209572 0
M  V30 3 C -4.28172 -0.839476 0.448786 0
M  V30 4 O -3.94997 -1.90494 0.989909 0
M  V30 5 N -3.36732 0.139779 0.0572317 0
M  V30 6 C -1.96738 0.116673 0.196974 0
M  V30 7 C -1.28967 -0.783435 0.993594 0
M  V30 8 C 0.100393 -0.749759 1.17229 0
M  V30 9 C 0.847663 0.197113 0.550358 0
M  V30 10 C 0.220353 1.10192 -0.243277 0
M  V30 11 C -1.16855 1.08316 -0.435127 0
M  V30 12 N -1.69892 2.07305 -1.29681 0 CHG=1
M  V30 13 O -1.06562 3.18172 -1.33738 0
M  V30 14 O -2.78793 2.01811 -2.0851 0 CHG=-1
M  V30 15 S 2.59102 0.205031 0.80278 0
M  V30 16 O 2.84442 -0.386824 2.15756 0
M  V30 17 O 3.10452 1.60796 0.832672 0
M  V30 18 N 3.38032 -0.772516 -0.364492 0
M  V30 19 C 4.60132 -0.589124 -0.751634 0
M  V30 20 N 5.15663 -1.45509 -1.72195 0
M  V30 21 N 5.33456 0.477483 -0.183607 0
M  V30 22 H -5.99331 0.332713 0.77469 0
M  V30 23 H -5.85334 -0.429293 -0.889991 0
M  V30 24 H -3.80059 1.01206 -0.373798 0
M  V30 25 H -1.83499 -1.5512 1.52036 0
M  V30 26 H 0.561108 -1.49681 1.81793 0
M  V30 27 H 0.830008 1.85284 -0.732545 0
M  V30 28 H 5.48379 -1.122 -2.64862 0
M  V30 29 H 5.24102 -2.46439 -1.49993 0
M  V30 30 H 5.83953 1.13082 -0.814606 0
M  V30 31 H 5.37423 0.614014 0.846408 0
M  V30 END ATOM
M  V30 BEGIN BOND
M  V30 1 1 1 2
M  V30 2 1 2 3
M  V30 3 2 3 4
M  V30 4 1 3 5
M  V30 5 1 5 6
M  V30 6 2 6 7
M  V30 7 1 7 8
M  V30 8 2 8 9
M  V30 9 1 9 10
M  V30 10 2 10 11
M  V30 11 1 11 12
M  V30 12 2 12 13
M  V30 13 1 12 14
M  V30 14 1 9 15
M  V30 15 2 15 16
M  V30 16 2 15 17
M  V30 17 1 15 18
M  V30 18 2 18 19 CFG=2
M  V30 19 1 19 20
M  V30 20 1 19 21
M  V30 21 1 11 6
M  V30 22 1 2 22
M  V30 23 1 2 23
M  V30 24 1 5 24
M  V30 25 1 7 25
M  V30 26 1 8 26
M  V30 27 1 10 27
M  V30 28 1 20 28
M  V30 29 1 20 29
M  V30 30 1 21 30
M  V30 31 1 21 31
M  V30 END BOND
M  V30 END CTAB
M  END
