
     RDKit          3D

  0  0  0  0  0  0  0  0  0  0999 V3000
M  V30 BEGIN CTAB
M  V30 COUNTS 51 54 0 0 0
M  V30 BEGIN ATOM
M  V30 1 N -7.02687 -2.70184 -0.88803 0
M  V30 2 C -6.63106 -1.36226 -1.11192 0
M  V30 3 C -6.22836 -0.560373 -0.0656999 0
M  V30 4 C -5.8424 0.743669 -0.279018 0
M  V30 5 O -5.43549 1.5573 0.770445 0
M  V30 6 C -4.10253 1.63452 1.17244 0
M  V30 7 C -3.56929 0.800135 2.13214 0
M  V30 8 C -2.24433 0.906355 2.50451 0
M  V30 9 C -1.39527 1.8403 1.94368 0
M  V30 10 C -1.93751 2.67129 0.983915 0
M  V30 11 C -3.26332 2.57084 0.605913 0
M  V30 12 S 0.285807 1.95469 2.43494 0
M  V30 13 O 0.792925 3.37991 2.28643 0
M  V30 14 O 0.460178 1.60123 3.88878 0
M  V30 15 C 1.29491 0.916081 1.43986 0
M  V30 16 C 1.86448 1.38531 0.275884 0
M  V30 17 C 2.65711 0.619357 -0.534208 0
M  V30 18 C 2.91178 -0.695805 -0.184393 0
M  V30 19 O 3.70916 -1.43295 -1.0184 0
M  V30 20 C 5.10058 -1.49817 -0.878598 0
M  V30 21 C 5.92043 -0.596833 -1.5231 0
M  V30 22 C 7.29721 -0.700287 -1.35467 0
M  V30 23 N 8.16295 0.223129 -2.0133 0
M  V30 24 C 7.79335 -1.70408 -0.546421 0
M  V30 25 C 6.98117 -2.60879 0.10118 0
M  V30 26 C 5.61562 -2.50565 -0.0662866 0
M  V30 27 C 2.34557 -1.16976 0.976993 0
M  V30 28 C 1.54787 -0.392346 1.78852 0
M  V30 29 C -5.87151 1.22102 -1.57016 0
M  V30 30 C -6.27413 0.41768 -2.61249 0
M  V30 31 C -6.66256 -0.889284 -2.41016 0
M  V30 32 H -7.8706 -2.92894 -0.323486 0
M  V30 33 H -6.46929 -3.4822 -1.29199 0
M  V30 34 H -6.21576 -0.970279 0.95476 0
M  V30 35 H -4.23029 0.0626966 2.57831 0
M  V30 36 H -1.81467 0.244413 3.26823 0
M  V30 37 H -1.2853 3.39823 0.544318 0
M  V30 38 H -3.70005 3.22206 -0.150413 0
M  V30 39 H 1.68901 2.4081 -0.0316876 0
M  V30 40 H 3.0911 1.02241 -1.44709 0
M  V30 41 H 5.52498 0.188208 -2.15568 0
M  V30 42 H 8.18163 0.217525 -3.0567 0
M  V30 43 H 8.77466 0.899671 -1.5082 0
M  V30 44 H 8.86884 -1.80974 -0.395638 0
M  V30 45 H 7.40216 -3.38814 0.731003 0
M  V30 46 H 4.94947 -3.20941 0.435267 0
M  V30 47 H 2.56043 -2.20415 1.22921 0
M  V30 48 H 1.13085 -0.82173 2.68972 0
M  V30 49 H -5.56872 2.25026 -1.75156 0
M  V30 50 H -6.29096 0.811495 -3.62655 0
M  V30 51 H -6.98396 -1.53488 -3.23243 0
M  V30 END ATOM
M  V30 BEGIN BOND
M  V30 1 1 1 2
M  V30 2 2 2 3
M  V30 3 1 3 4
M  V30 4 1 4 5
M  V30 5 1 5 6
M  V30 6 2 6 7
M  V30 7 1 7 8
M  V30 8 2 8 9
M  V30 9 1 9 10
M  V30 10 2 10 11
M  V30 11 1 9 12
M  V30 12 2 12 13
M  V30 13 2 12 14
M  V30 14 1 12 15
M  V30 15 2 15 16
M  V30 16 1 16 17
M  V30 17 2 17 18
M  V30 18 1 18 19
M  V30 19 1 19 20
M  V30 20 2 20 21
M  V30 21 1 21 22
M  V30 22 1 22 23
M  V30 23 2 22 24
M  V30 24 1 24 25
M  V30 25 2 25 26
M  V30 26 1 18 27
M  V30 27 2 27 28
M  V30 28 2 4 29
M  V30 29 1 29 30
M  V30 30 2 30 31
M  V30 31 1 31 2
M  V30 32 1 11 6
M  V30 33 1 28 15
M  V30 34 1 26 20
M  V30 35 1 1 32
M  V30 36 1 1 33
M  V30 37 1 3 34
M  V30 38 1 7 35
M  V30 39 1 8 36
M  V30 40 1 10 37
M  V30 41 1 11 38
M  V30 42 1 16 39
M  V30 43 1 17 40
M  V30 44 1 21 41
M  V30 45 1 23 42
M  V30 46 1 23 43
M  V30 47 1 24 44
M  V30 48 1 25 45
M  V30 49 1 26 46
M  V30 50 1 27 47
M  V30 51 1 28 48
M  V30 52 1 29 49
M  V30 53 1 30 50
M  V30 54 1 31 51
M  V30 END BOND
M  V30 END CTAB
M  END
