
     RDKit          3D

  0  0  0  0  0  0  0  0  0  0999 V3000
M  V30 BEGIN CTAB
M  V30 COUNTS 25 24 0 0 0
M  V30 BEGIN ATOM
M  V30 1 O 1.43381 2.05096 -0.0570371 0
M  V30 2 C 2.23967 0.891147 -0.0574737 0
M  V30 3 C 1.61374 -0.196569 -0.890669 0
M  V30 4 C 0.23672 -0.58581 -0.355782 0
M  V30 5 N -0.572151 0.576908 -0.401141 0
M  V30 6 C -1.62225 0.834102 0.244997 0
M  V30 7 N -2.27448 2.07688 0.0365821 0
M  V30 8 N -2.19306 -0.0509129 1.17314 0
M  V30 9 C -0.258789 -1.67496 -1.31838 0
M  V30 10 C 0.332065 -1.23712 0.99079 0
M  V30 11 H 1.40993 2.34403 0.903111 0
M  V30 12 H 3.17601 1.19063 -0.573226 0
M  V30 13 H 2.39634 0.493542 0.953195 0
M  V30 14 H 1.45223 0.112306 -1.94765 0
M  V30 15 H 2.28944 -1.0514 -0.905271 0
M  V30 16 H -1.9281 2.94183 0.53269 0
M  V30 17 H -3.09157 2.16105 -0.596791 0
M  V30 18 H -2.01726 0.0760182 2.17911 0
M  V30 19 H -2.7856 -0.823421 0.840138 0
M  V30 20 H -0.25309 -1.25204 -2.34729 0
M  V30 21 H 0.545284 -2.44931 -1.30801 0
M  V30 22 H -1.22749 -2.0794 -1.01367 0
M  V30 23 H 0.272854 -0.556694 1.83555 0
M  V30 24 H -0.469541 -1.9848 1.07287 0
M  V30 25 H 1.29529 -1.80695 1.01022 0
M  V30 END ATOM
M  V30 BEGIN BOND
M  V30 1 1 1 2
M  V30 2 1 2 3
M  V30 3 1 3 4
M  V30 4 1 4 5
M  V30 5 2 5 6 CFG=2
M  V30 6 1 6 7
M  V30 7 1 6 8
M  V30 8 1 4 9
M  V30 9 1 4 10
M  V30 10 1 1 11
M  V30 11 1 2 12
M  V30 12 1 2 13
M  V30 13 1 3 14
M  V30 14 1 3 15
M  V30 15 1 7 16
M  V30 16 1 7 17
M  V30 17 1 8 18
M  V30 18 1 8 19
M  V30 19 1 9 20
M  V30 20 1 9 21
M  V30 21 1 9 22
M  V30 22 1 10 23
M  V30 23 1 10 24
M  V30 24 1 10 25
M  V30 END BOND
M  V30 END CTAB
M  END
