
     RDKit          3D

  0  0  0  0  0  0  0  0  0  0999 V3000
M  V30 BEGIN CTAB
M  V30 COUNTS 20 20 0 0 0
M  V30 BEGIN ATOM
M  V30 1 N 2.96852 -1.15634 0.476874 0
M  V30 2 N 1.89409 -0.471809 -0.119899 0
M  V30 3 C 0.708659 -0.358208 0.701922 0
M  V30 4 O 0.640957 -0.827855 1.90345 0
M  V30 5 C -0.538511 0.335038 0.225083 0
M  V30 6 C -1.17777 -0.256189 -1.02403 0
M  V30 7 N -1.58007 -1.64726 -0.703767 0
M  V30 8 C -1.25157 1.17272 1.181 0
M  V30 9 C -0.43476 1.85408 0.1545 0
M  V30 10 H 3.71082 -0.49191 0.817323 0
M  V30 11 H 3.32762 -1.90313 -0.190247 0
M  V30 12 H 1.93697 -0.048637 -1.06856 0
M  V30 13 H -2.024 0.314087 -1.40783 0
M  V30 14 H -0.411641 -0.320199 -1.85748 0
M  V30 15 H -2.47812 -1.8745 -1.20756 0
M  V30 16 H -1.74624 -1.59622 0.34758 0
M  V30 17 H -0.857997 1.31335 2.23039 0
M  V30 18 H -2.35134 1.39198 1.1972 0
M  V30 19 H 0.5972 2.23048 0.313827 0
M  V30 20 H -0.932821 2.34052 -0.686615 0
M  V30 END ATOM
M  V30 BEGIN BOND
M  V30 1 1 1 2
M  V30 2 1 2 3
M  V30 3 2 3 4
M  V30 4 1 3 5
M  V30 5 1 5 6
M  V30 6 1 6 7
M  V30 7 1 5 8
M  V30 8 1 8 9
M  V30 9 1 9 5
M  V30 10 1 1 10
M  V30 11 1 1 11
M  V30 12 1 2 12
M  V30 13 1 6 13
M  V30 14 1 6 14
M  V30 15 1 7 15
M  V30 16 1 7 16
M  V30 17 1 8 17
M  V30 18 1 8 18
M  V30 19 1 9 19
M  V30 20 1 9 20
M  V30 END BOND
M  V30 END CTAB
M  END
