
     RDKit          3D

  0  0  0  0  0  0  0  0  0  0999 V3000
M  V30 BEGIN CTAB
M  V30 COUNTS 30 30 0 0 0
M  V30 BEGIN ATOM
M  V30 1 C 3.94542 -0.119477 0.926254 0
M  V30 2 C 3.24133 0.70155 -0.101648 0
M  V30 3 C 1.78863 0.561624 -0.128258 0
M  V30 4 C 1.22653 -0.566768 -0.680236 0
M  V30 5 N 2.08047 -1.57223 -1.21085 0
M  V30 6 N -0.109931 -0.739377 -0.719691 0
M  V30 7 C -0.969724 0.187544 -0.216587 0
M  V30 8 N -0.411366 1.27077 0.313217 0
M  V30 9 C 0.899579 1.51261 0.387338 0
M  V30 10 O 1.39106 2.54222 0.892363 0
M  V30 11 C -2.43626 -0.0107071 -0.262887 0
M  V30 12 N -2.7952 -1.17057 -1.07989 0
M  V30 13 C -3.09955 1.18306 -0.914381 0
M  V30 14 C -2.99979 -0.229045 1.13863 0
M  V30 15 H 4.37443 -1.02997 0.41244 0
M  V30 16 H 4.87279 0.427532 1.27245 0
M  V30 17 H 3.33975 -0.391471 1.79684 0
M  V30 18 H 3.46146 1.77999 0.155501 0
M  V30 19 H 3.72767 0.517242 -1.08394 0
M  V30 20 H 2.37567 -2.32328 -0.517116 0
M  V30 21 H 2.38723 -1.57446 -2.20271 0
M  V30 22 H -0.542393 -1.59835 -1.13588 0
M  V30 23 H -3.80582 -1.0026 -1.36989 0
M  V30 24 H -2.75665 -2.05168 -0.517274 0
M  V30 25 H -2.31425 1.86733 -1.3088 0
M  V30 26 H -3.75094 0.891252 -1.77049 0
M  V30 27 H -3.66398 1.77062 -0.166567 0
M  V30 28 H -2.55751 0.47123 1.84579 0
M  V30 29 H -4.08921 -0.0106819 1.09868 0
M  V30 30 H -2.80944 -1.29392 1.39296 0
M  V30 END ATOM
M  V30 BEGIN BOND
M  V30 1 1 1 2
M  V30 2 1 2 3
M  V30 3 2 3 4
M  V30 4 1 4 5
M  V30 5 1 4 6
M  V30 6 1 6 7
M  V30 7 2 7 8
M  V30 8 1 8 9
M  V30 9 2 9 10
M  V30 10 1 7 11
M  V30 11 1 11 12
M  V30 12 1 11 13
M  V30 13 1 11 14
M  V30 14 1 9 3
M  V30 15 1 1 15
M  V30 16 1 1 16
M  V30 17 1 1 17
M  V30 18 1 2 18
M  V30 19 1 2 19
M  V30 20 1 5 20
M  V30 21 1 5 21
M  V30 22 1 6 22
M  V30 23 1 12 23
M  V30 24 1 12 24
M  V30 25 1 13 25
M  V30 26 1 13 26
M  V30 27 1 13 27
M  V30 28 1 14 28
M  V30 29 1 14 29
M  V30 30 1 14 30
M  V30 END BOND
M  V30 END CTAB
M  END
