
     RDKit          3D

  0  0  0  0  0  0  0  0  0  0999 V3000
M  V30 BEGIN CTAB
M  V30 COUNTS 22 23 0 0 0
M  V30 BEGIN ATOM
M  V30 1 Cl -4.12984 -1.67715 0.344056 0
M  V30 2 C -2.93796 -0.397497 0.25461 0
M  V30 3 C -3.37919 0.903506 0.307616 0
M  V30 4 C -2.41456 1.90712 0.234876 0
M  V30 5 C -1.06594 1.62444 0.114279 0
M  V30 6 C -0.632567 0.317183 0.0618905 0
M  V30 7 C -1.58261 -0.672531 0.133517 0
M  V30 8 N -1.16898 -2.02504 0.082337 0
M  V30 9 C 0.78976 -0.0219006 -0.065722 0
M  V30 10 N 1.32421 -1.2537 -0.126085 0
M  V30 11 N 2.63187 -1.21023 -0.239423 0
M  V30 12 C 2.96686 0.0912362 -0.25396 0
M  V30 13 N 1.83129 0.822538 -0.146894 0
M  V30 14 N 4.3003 0.573381 -0.364575 0
M  V30 15 H -4.4016 1.20561 0.40001 0
M  V30 16 H -2.69671 2.94578 0.271096 0
M  V30 17 H -0.314852 2.41055 0.0576889 0
M  V30 18 H -0.883627 -2.39619 -0.864444 0
M  V30 19 H -1.14046 -2.64032 0.925598 0
M  V30 20 H 3.32563 -2.00334 -0.308708 0
M  V30 21 H 4.84581 0.345865 -1.20663 0
M  V30 22 H 4.73315 1.15068 0.388862 0
M  V30 END ATOM
M  V30 BEGIN BOND
M  V30 1 1 1 2
M  V30 2 2 2 3
M  V30 3 1 3 4
M  V30 4 2 4 5
M  V30 5 1 5 6
M  V30 6 2 6 7
M  V30 7 1 7 8
M  V30 8 1 6 9
M  V30 9 2 9 10
M  V30 10 1 10 11
M  V30 11 1 11 12
M  V30 12 2 12 13
M  V30 13 1 12 14
M  V30 14 1 7 2
M  V30 15 1 13 9
M  V30 16 1 3 15
M  V30 17 1 4 16
M  V30 18 1 5 17
M  V30 19 1 8 18
M  V30 20 1 8 19
M  V30 21 1 11 20
M  V30 22 1 14 21
M  V30 23 1 14 22
M  V30 END BOND
M  V30 END CTAB
M  END
