
     RDKit          3D

  0  0  0  0  0  0  0  0  0  0999 V3000
M  V30 BEGIN CTAB
M  V30 COUNTS 141 145 0 0 0
M  V30 BEGIN ATOM
M  V30 1 C 8.40089 5.038 0.432077 0
M  V30 2 C 7.1294 4.40499 -0.0625444 0
M  V30 3 C 6.42884 5.37627 -1.01275 0
M  V30 4 C 6.21646 3.90191 0.995005 0 CFG=2
M  V30 5 N 5.0565 3.32942 0.373282 0
M  V30 6 C 4.56875 2.02855 0.682849 0
M  V30 7 O 5.20525 1.37005 1.57145 0
M  V30 8 C 3.40225 1.38322 0.0730959 0 CFG=2
M  V30 9 C 2.54182 2.43318 -0.595511 0
M  V30 10 S 1.76906 3.55694 0.572596 0
M  V30 11 S 0.711478 5.02626 -0.51438 0
M  V30 12 C -0.548206 4.29105 -1.60635 0
M  V30 13 C 0.0537829 3.54818 -2.74566 0
M  V30 14 C -1.31266 5.48665 -2.1955 0
M  V30 15 C -1.50395 3.46284 -0.760766 0 CFG=1
M  V30 16 N -2.40115 4.44928 -0.148142 0
M  V30 17 C -2.38958 4.76022 1.21753 0
M  V30 18 O -1.58695 4.18433 1.9774 0
M  V30 19 C -3.32063 5.76516 1.76352 0 CFG=1
M  V30 20 N -3.0832 5.91113 3.17521 0
M  V30 21 C -3.10908 7.13 1.13368 0
M  V30 22 C -4.07286 8.09665 1.7223 0
M  V30 23 O -5.22542 8.43623 1.03137 0
M  V30 24 O -3.88615 8.63461 2.84683 0
M  V30 25 C -2.19392 2.44238 -1.54289 0
M  V30 26 O -2.43305 2.73388 -2.7646 0
M  V30 27 N -2.62234 1.16557 -1.08694 0
M  V30 28 C -3.29703 0.928581 0.16141 0 CFG=1
M  V30 29 C -4.70134 1.44844 0.233878 0
M  V30 30 C -5.64537 0.892064 -0.767175 0
M  V30 31 C -5.79536 1.53835 -1.96981 0
M  V30 32 C -6.67436 1.03923 -2.90077 0
M  V30 33 C -7.43364 -0.091365 -2.70325 0
M  V30 34 C -7.25245 -0.714589 -1.47298 0
M  V30 35 C -6.38422 -0.23529 -0.536309 0
M  V30 36 C -3.1301 -0.417943 0.723419 0
M  V30 37 O -3.38186 -0.455166 2.00704 0
M  V30 38 N -2.76412 -1.63798 0.179503 0
M  V30 39 C -3.11693 -2.27236 -1.04548 0 CFG=2
M  V30 40 C -4.06704 -3.43756 -0.908457 0
M  V30 41 C -3.67175 -4.56496 -0.102341 0
M  V30 42 C -3.12169 -5.73816 -0.613002 0
M  V30 43 N -2.86218 -6.56405 0.394197 0
M  V30 44 C -3.20988 -6.00716 1.55402 0
M  V30 45 C -3.7153 -4.76171 1.25379 0
M  V30 46 C -4.16078 -3.99564 2.33239 0
M  V30 47 C -4.11239 -4.4207 3.62938 0
M  V30 48 C -3.59882 -5.67308 3.90047 0
M  V30 49 C -3.15465 -6.44649 2.84752 0
M  V30 50 C -2.00547 -2.69583 -1.91811 0
M  V30 51 O -2.04949 -2.17785 -3.11394 0
M  V30 52 N -0.923721 -3.54239 -1.7083 0
M  V30 53 C 0.211581 -3.44069 -0.813597 0 CFG=1
M  V30 54 C 0.721029 -4.82622 -0.415328 0
M  V30 55 C 1.1809 -5.65458 -1.58888 0
M  V30 56 C 1.67727 -7.0261 -1.0876 0
M  V30 57 N 0.556838 -7.69105 -0.417249 0
M  V30 58 C 1.35143 -2.75783 -1.45366 0
M  V30 59 O 1.42282 -2.87013 -2.74083 0
M  V30 60 N 2.30908 -2.03263 -0.776253 0
M  V30 61 C 2.43607 -1.8622 0.634327 0 CFG=1
M  V30 62 C 3.85043 -2.09375 1.12378 0
M  V30 63 C 4.36877 -3.44304 0.85449 0
M  V30 64 C 5.0091 -3.72394 -0.345154 0
M  V30 65 C 5.51117 -4.99514 -0.55413 0
M  V30 66 C 5.41485 -6.01544 0.364103 0
M  V30 67 O 5.91844 -7.29575 0.16046 0
M  V30 68 C 4.77118 -5.74028 1.57321 0
M  V30 69 C 4.27602 -4.48446 1.77964 0
M  V30 70 C 1.95077 -0.509204 1.01772 0
M  V30 71 O 0.694451 -0.449345 1.3093 0
M  V30 72 N 2.66423 0.678722 1.10216 0
M  V30 73 C 5.86489 4.93051 2.00492 0
M  V30 74 O 6.77597 5.64055 2.73666 0
M  V30 75 O 4.63817 5.15669 2.19209 0
M  V30 76 H 8.95449 4.41867 1.14112 0
M  V30 77 H 8.2108 6.08725 0.793802 0
M  V30 78 H 9.07479 5.18419 -0.461808 0
M  V30 79 H 7.4343 3.53402 -0.685907 0
M  V30 80 H 5.99838 4.82282 -1.84694 0
M  V30 81 H 5.69952 6.00816 -0.462915 0
M  V30 82 H 7.21002 6.0532 -1.40706 0
M  V30 83 H 6.72453 3.05883 1.54271 0
M  V30 84 H 4.55526 3.89027 -0.325936 0
M  V30 85 H 3.69472 0.684633 -0.755944 0
M  V30 86 H 3.10058 2.98847 -1.35687 0
M  V30 87 H 1.71963 1.90847 -1.15472 0
M  V30 88 H -0.00176079 2.45156 -2.69381 0
M  V30 89 H 1.1432 3.83683 -2.78795 0
M  V30 90 H -0.342347 3.92494 -3.73182 0
M  V30 91 H -2.25317 5.20303 -2.66275 0
M  V30 92 H -0.644518 6.00553 -2.94446 0
M  V30 93 H -1.48397 6.24672 -1.40917 0
M  V30 94 H -0.878088 3.01097 0.0411097 0
M  V30 95 H -3.07185 4.91672 -0.824358 0
M  V30 96 H -4.38808 5.49235 1.63357 0
M  V30 97 H -2.86109 5.02789 3.64963 0
M  V30 98 H -2.21754 6.5156 3.26232 0
M  V30 99 H -2.09332 7.50738 1.30292 0
M  V30 100 H -3.26332 7.08843 0.0243483 0
M  V30 101 H -5.93988 7.74128 0.909248 0
M  V30 102 H -2.39694 0.374743 -1.75617 0
M  V30 103 H -2.73116 1.67366 0.867247 0
M  V30 104 H -4.74723 2.56112 0.0927509 0
M  V30 105 H -5.11641 1.3274 1.28138 0
M  V30 106 H -5.23202 2.45516 -2.20106 0
M  V30 107 H -6.80851 1.54244 -3.86985 0
M  V30 108 H -8.12121 -0.470474 -3.44362 0
M  V30 109 H -7.85975 -1.61186 -1.32548 0
M  V30 110 H -6.27467 -0.759554 0.415429 0
M  V30 111 H -2.09758 -2.22376 0.789401 0
M  V30 112 H -3.74651 -1.51807 -1.65534 0
M  V30 113 H -4.36125 -3.71828 -1.95709 0
M  V30 114 H -5.02606 -3.00285 -0.482121 0
M  V30 115 H -2.92169 -5.97786 -1.65487 0
M  V30 116 H -2.44745 -7.51622 0.304513 0
M  V30 117 H -4.56714 -3.04459 2.10452 0
M  V30 118 H -4.48241 -3.75416 4.41884 0
M  V30 119 H -3.5472 -6.03317 4.90045 0
M  V30 120 H -2.74648 -7.43689 3.03249 0
M  V30 121 H -0.876476 -4.43742 -2.32032 0
M  V30 122 H -0.00579622 -2.93693 0.139273 0
M  V30 123 H 1.5757 -4.77479 0.272535 0
M  V30 124 H -0.0968047 -5.38552 0.12501 0
M  V30 125 H 2.03919 -5.15458 -2.09839 0
M  V30 126 H 0.37806 -5.91141 -2.30311 0
M  V30 127 H 2.52838 -6.93879 -0.415894 0
M  V30 128 H 1.97108 -7.61999 -1.95909 0
M  V30 129 H 0.412122 -7.3253 0.559077 0
M  V30 130 H -0.303476 -7.6203 -0.996431 0
M  V30 131 H 3.05638 -1.5307 -1.36008 0
M  V30 132 H 1.77963 -2.61414 1.1468 0
M  V30 133 H 3.84857 -1.96455 2.23241 0
M  V30 134 H 4.54692 -1.31 0.741005 0
M  V30 135 H 5.11267 -2.95495 -1.10559 0
M  V30 136 H 6.00883 -5.1865 -1.49793 0
M  V30 137 H 6.39512 -7.56102 -0.691101 0
M  V30 138 H 4.6685 -6.50816 2.32514 0
M  V30 139 H 3.77321 -4.28927 2.73411 0
M  V30 140 H 2.67337 1.17779 2.05249 0
M  V30 141 H 6.52426 6.53354 3.12086 0
M  V30 END ATOM
M  V30 BEGIN BOND
M  V30 1 1 1 2
M  V30 2 1 2 3
M  V30 3 1 2 4
M  V30 4 1 4 5
M  V30 5 1 5 6
M  V30 6 2 6 7
M  V30 7 1 6 8
M  V30 8 1 8 9
M  V30 9 1 9 10
M  V30 10 1 10 11
M  V30 11 1 11 12
M  V30 12 1 12 13
M  V30 13 1 12 14
M  V30 14 1 12 15
M  V30 15 1 15 16
M  V30 16 1 16 17
M  V30 17 2 17 18
M  V30 18 1 17 19
M  V30 19 1 19 20
M  V30 20 1 19 21
M  V30 21 1 21 22
M  V30 22 1 22 23
M  V30 23 2 22 24
M  V30 24 1 15 25
M  V30 25 2 25 26
M  V30 26 1 25 27
M  V30 27 1 27 28
M  V30 28 1 28 29
M  V30 29 1 29 30
M  V30 30 2 30 31
M  V30 31 1 31 32
M  V30 32 2 32 33
M  V30 33 1 33 34
M  V30 34 2 34 35
M  V30 35 1 28 36
M  V30 36 2 36 37
M  V30 37 1 36 38
M  V30 38 1 38 39
M  V30 39 1 39 40
M  V30 40 1 40 41
M  V30 41 2 41 42
M  V30 42 1 42 43
M  V30 43 1 43 44
M  V30 44 2 44 45
M  V30 45 1 45 46
M  V30 46 2 46 47
M  V30 47 1 47 48
M  V30 48 2 48 49
M  V30 49 1 39 50
M  V30 50 2 50 51
M  V30 51 1 50 52
M  V30 52 1 52 53
M  V30 53 1 53 54
M  V30 54 1 54 55
M  V30 55 1 55 56
M  V30 56 1 56 57
M  V30 57 1 53 58
M  V30 58 2 58 59
M  V30 59 1 58 60
M  V30 60 1 60 61
M  V30 61 1 61 62
M  V30 62 1 62 63
M  V30 63 2 63 64
M  V30 64 1 64 65
M  V30 65 2 65 66
M  V30 66 1 66 67
M  V30 67 1 66 68
M  V30 68 2 68 69
M  V30 69 1 61 70
M  V30 70 2 70 71
M  V30 71 1 70 72
M  V30 72 1 4 73
M  V30 73 1 73 74
M  V30 74 2 73 75
M  V30 75 1 72 8
M  V30 76 1 35 30
M  V30 77 1 45 41
M  V30 78 1 69 63
M  V30 79 1 49 44
M  V30 80 1 1 76
M  V30 81 1 1 77
M  V30 82 1 1 78
M  V30 83 1 2 79
M  V30 84 1 3 80
M  V30 85 1 3 81
M  V30 86 1 3 82
M  V30 87 1 4 83 CFG=1
M  V30 88 1 5 84
M  V30 89 1 8 85 CFG=3
M  V30 90 1 9 86
M  V30 91 1 9 87
M  V30 92 1 13 88
M  V30 93 1 13 89
M  V30 94 1 13 90
M  V30 95 1 14 91
M  V30 96 1 14 92
M  V30 97 1 14 93
M  V30 98 1 15 94 CFG=1
M  V30 99 1 16 95
M  V30 100 1 19 96 CFG=1
M  V30 101 1 20 97
M  V30 102 1 20 98
M  V30 103 1 21 99
M  V30 104 1 21 100
M  V30 105 1 23 101
M  V30 106 1 27 102
M  V30 107 1 28 103 CFG=1
M  V30 108 1 29 104
M  V30 109 1 29 105
M  V30 110 1 31 106
M  V30 111 1 32 107
M  V30 112 1 33 108
M  V30 113 1 34 109
M  V30 114 1 35 110
M  V30 115 1 38 111
M  V30 116 1 39 112 CFG=3
M  V30 117 1 40 113
M  V30 118 1 40 114
M  V30 119 1 42 115
M  V30 120 1 43 116
M  V30 121 1 46 117
M  V30 122 1 47 118
M  V30 123 1 48 119
M  V30 124 1 49 120
M  V30 125 1 52 121
M  V30 126 1 53 122 CFG=1
M  V30 127 1 54 123
M  V30 128 1 54 124
M  V30 129 1 55 125
M  V30 130 1 55 126
M  V30 131 1 56 127
M  V30 132 1 56 128
M  V30 133 1 57 129
M  V30 134 1 57 130
M  V30 135 1 60 131
M  V30 136 1 61 132 CFG=1
M  V30 137 1 62 133
M  V30 138 1 62 134
M  V30 139 1 64 135
M  V30 140 1 65 136
M  V30 141 1 67 137
M  V30 142 1 68 138
M  V30 143 1 69 139
M  V30 144 1 72 140
M  V30 145 1 74 141
M  V30 END BOND
M  V30 END CTAB
M  END
