
     RDKit          3D

  0  0  0  0  0  0  0  0  0  0999 V3000
M  V30 BEGIN CTAB
M  V30 COUNTS 64 63 0 0 0
M  V30 BEGIN ATOM
M  V30 1 N 9.66446 0.0917036 0.114517 0
M  V30 2 C 9.00699 1.17359 -0.583334 0
M  V30 3 C 7.58224 0.778989 -0.929811 0
M  V30 4 C 6.84317 0.478123 0.332488 0
M  V30 5 C 5.38679 0.0834799 0.112154 0
M  V30 6 C 5.32482 -1.13435 -0.727109 0
M  V30 7 C 3.99041 -1.66377 -1.1038 0
M  V30 8 N 3.06213 -2.0684 -0.154454 0
M  V30 9 C 2.36427 -1.1905 0.674524 0
M  V30 10 C 1.37108 -0.299427 -0.0613264 0
M  V30 11 C 0.315911 -1.10921 -0.782352 0
M  V30 12 C -0.614061 -0.158143 -1.48223 0
M  V30 13 C -1.31526 0.791682 -0.575078 0
M  V30 14 C -2.17547 0.102058 0.456566 0
M  V30 15 N -2.84476 1.01437 1.32667 0
M  V30 16 C -3.85297 1.81128 0.722899 0
M  V30 17 C -5.07914 1.10445 0.264301 0
M  V30 18 C -5.80039 0.403296 1.39456 0
M  V30 19 C -7.03927 -0.305605 0.921759 0
M  V30 20 C -8.03318 0.646638 0.291822 0
M  V30 21 C -9.25085 -0.165087 -0.153292 0
M  V30 22 N -8.87431 -1.17509 -1.11468 0
M  V30 23 H 9.33016 0.00651887 1.10153 0
M  V30 24 H 10.6918 0.303208 0.170913 0
M  V30 25 H 9.563 1.30145 -1.55619 0
M  V30 26 H 9.05812 2.13337 -0.0489341 0
M  V30 27 H 7.67507 -0.138195 -1.55347 0
M  V30 28 H 7.10444 1.5551 -1.52979 0
M  V30 29 H 7.33262 -0.340649 0.884586 0
M  V30 30 H 6.79885 1.42835 0.931743 0
M  V30 31 H 5.03399 -0.182616 1.14138 0
M  V30 32 H 4.85782 0.911217 -0.351374 0
M  V30 33 H 5.84882 -0.904207 -1.7146 0
M  V30 34 H 5.95223 -1.96303 -0.289829 0
M  V30 35 H 3.55163 -0.957859 -1.88241 0
M  V30 36 H 4.22079 -2.5933 -1.74417 0
M  V30 37 H 3.41801 -2.88263 0.384083 0
M  V30 38 H 1.6701 -1.85072 1.31632 0
M  V30 39 H 2.86701 -0.5634 1.39153 0
M  V30 40 H 1.92609 0.381491 -0.720159 0
M  V30 41 H 0.851695 0.289898 0.723033 0
M  V30 42 H 0.739609 -1.79666 -1.52312 0
M  V30 43 H -0.254379 -1.67315 -0.0410407 0
M  V30 44 H -1.36343 -0.784071 -2.0421 0
M  V30 45 H -0.079242 0.43536 -2.25181 0
M  V30 46 H -2.00461 1.40374 -1.2127 0
M  V30 47 H -0.587815 1.4781 -0.145804 0
M  V30 48 H -1.47404 -0.504573 1.10025 0
M  V30 49 H -2.84009 -0.638646 -0.0327775 0
M  V30 50 H -3.15463 0.527685 2.17364 0
M  V30 51 H -3.43533 2.37683 -0.132938 0
M  V30 52 H -4.14609 2.60232 1.47233 0
M  V30 53 H -5.73965 1.87552 -0.214981 0
M  V30 54 H -4.80358 0.396854 -0.546657 0
M  V30 55 H -6.06894 1.14427 2.14989 0
M  V30 56 H -5.10814 -0.379073 1.77983 0
M  V30 57 H -7.54042 -0.716665 1.82872 0
M  V30 58 H -6.82302 -1.16976 0.266922 0
M  V30 59 H -7.63964 1.13525 -0.62107 0
M  V30 60 H -8.35037 1.3614 1.06645 0
M  V30 61 H -9.93378 0.547328 -0.700435 0
M  V30 62 H -9.7815 -0.606211 0.696494 0
M  V30 63 H -7.90669 -0.964204 -1.45036 0
M  V30 64 H -9.48907 -1.19573 -1.95841 0
M  V30 END ATOM
M  V30 BEGIN BOND
M  V30 1 1 1 2
M  V30 2 1 2 3
M  V30 3 1 3 4
M  V30 4 1 4 5
M  V30 5 1 5 6
M  V30 6 1 6 7
M  V30 7 1 7 8
M  V30 8 1 8 9
M  V30 9 1 9 10
M  V30 10 1 10 11
M  V30 11 1 11 12
M  V30 12 1 12 13
M  V30 13 1 13 14
M  V30 14 1 14 15
M  V30 15 1 15 16
M  V30 16 1 16 17
M  V30 17 1 17 18
M  V30 18 1 18 19
M  V30 19 1 19 20
M  V30 20 1 20 21
M  V30 21 1 21 22
M  V30 22 1 1 23
M  V30 23 1 1 24
M  V30 24 1 2 25
M  V30 25 1 2 26
M  V30 26 1 3 27
M  V30 27 1 3 28
M  V30 28 1 4 29
M  V30 29 1 4 30
M  V30 30 1 5 31
M  V30 31 1 5 32
M  V30 32 1 6 33
M  V30 33 1 6 34
M  V30 34 1 7 35
M  V30 35 1 7 36
M  V30 36 1 8 37
M  V30 37 1 9 38
M  V30 38 1 9 39
M  V30 39 1 10 40
M  V30 40 1 10 41
M  V30 41 1 11 42
M  V30 42 1 11 43
M  V30 43 1 12 44
M  V30 44 1 12 45
M  V30 45 1 13 46
M  V30 46 1 13 47
M  V30 47 1 14 48
M  V30 48 1 14 49
M  V30 49 1 15 50
M  V30 50 1 16 51
M  V30 51 1 16 52
M  V30 52 1 17 53
M  V30 53 1 17 54
M  V30 54 1 18 55
M  V30 55 1 18 56
M  V30 56 1 19 57
M  V30 57 1 19 58
M  V30 58 1 20 59
M  V30 59 1 20 60
M  V30 60 1 21 61
M  V30 61 1 21 62
M  V30 62 1 22 63
M  V30 63 1 22 64
M  V30 END BOND
M  V30 END CTAB
M  END
