
     RDKit          3D

  0  0  0  0  0  0  0  0  0  0999 V3000
M  V30 BEGIN CTAB
M  V30 COUNTS 50 52 0 0 0
M  V30 BEGIN ATOM
M  V30 1 N -5.12762 0.997121 -2.18682 0
M  V30 2 C -4.12772 1.30779 -1.18917 0
M  V30 3 C -3.83341 0.165861 -0.278518 0
M  V30 4 C -5.06261 -0.2823 0.478621 0
M  V30 5 C -4.90196 -1.43851 1.45123 0
M  V30 6 C -5.2994 -0.0608543 1.89816 0
M  V30 7 N -2.736 0.488141 0.601047 0
M  V30 8 C -1.43047 0.780018 0.145843 0
M  V30 9 O -1.17285 0.764648 -1.07123 0
M  V30 10 C -0.319113 1.11474 1.09004 0
M  V30 11 C -0.0896247 -0.0308488 2.06563 0
M  V30 12 C 1.36963 -0.2132 2.04582 0
M  V30 13 O 2.05252 -0.726835 2.98798 0
M  V30 14 N 1.87143 0.275509 0.813892 0
M  V30 15 C 0.974796 1.29581 0.32642 0
M  V30 16 C 3.05264 -0.170061 0.178279 0
M  V30 17 C 2.9609 -1.20411 -0.749359 0
M  V30 18 C 4.08686 -1.68237 -1.40345 0
M  V30 19 C 5.3019 -1.12369 -1.12671 0
M  V30 20 C 5.4387 -0.0957084 -0.213216 0
M  V30 21 C 4.30405 0.352432 0.415002 0
M  V30 22 S 7.0172 0.595991 0.115969 0
M  V30 23 O 7.88531 0.421004 -1.09579 0
M  V30 24 O 6.90276 2.06251 0.421602 0
M  V30 25 N 7.79163 -0.258427 1.42859 0
M  V30 26 C -3.38526 -1.07583 -1.06046 0
M  V30 27 H -5.32757 1.77227 -2.82379 0
M  V30 28 H -5.04409 0.0653767 -2.6 0
M  V30 29 H -3.2636 1.71285 -1.73208 0
M  V30 30 H -4.51523 2.1609 -0.564602 0
M  V30 31 H -5.92618 -0.4493 -0.217505 0
M  V30 32 H -3.88058 -1.75999 1.7368 0
M  V30 33 H -5.64241 -2.25548 1.46396 0
M  V30 34 H -4.69053 0.55149 2.55678 0
M  V30 35 H -6.3972 -0.0104497 2.18304 0
M  V30 36 H -2.91547 0.506451 1.65484 0
M  V30 37 H -0.609367 2.03281 1.63315 0
M  V30 38 H -0.578412 -0.927636 1.65111 0
M  V30 39 H -0.448509 0.235704 3.08587 0
M  V30 40 H 0.79845 1.17335 -0.773991 0
M  V30 41 H 1.42806 2.28246 0.544322 0
M  V30 42 H 1.99785 -1.62461 -0.948146 0
M  V30 43 H 4.02241 -2.4826 -2.12268 0
M  V30 44 H 6.22626 -1.46388 -1.61574 0
M  V30 45 H 4.38316 1.15624 1.13463 0
M  V30 46 H 8.22434 -1.11883 0.995105 0
M  V30 47 H 8.57877 0.3464 1.74951 0
M  V30 48 H -2.83104 -1.7045 -0.334822 0
M  V30 49 H -2.80174 -0.815146 -1.96405 0
M  V30 50 H -4.31168 -1.64271 -1.31586 0
M  V30 END ATOM
M  V30 BEGIN BOND
M  V30 1 1 1 2
M  V30 2 1 2 3
M  V30 3 1 3 4
M  V30 4 1 4 5
M  V30 5 1 5 6
M  V30 6 1 3 7
M  V30 7 1 7 8
M  V30 8 2 8 9
M  V30 9 1 8 10
M  V30 10 1 10 11
M  V30 11 1 11 12
M  V30 12 2 12 13
M  V30 13 1 12 14
M  V30 14 1 14 15
M  V30 15 1 14 16
M  V30 16 2 16 17
M  V30 17 1 17 18
M  V30 18 2 18 19
M  V30 19 1 19 20
M  V30 20 2 20 21
M  V30 21 1 20 22
M  V30 22 2 22 23
M  V30 23 2 22 24
M  V30 24 1 22 25
M  V30 25 1 3 26
M  V30 26 1 6 4
M  V30 27 1 15 10
M  V30 28 1 21 16
M  V30 29 1 1 27
M  V30 30 1 1 28
M  V30 31 1 2 29
M  V30 32 1 2 30
M  V30 33 1 4 31
M  V30 34 1 5 32
M  V30 35 1 5 33
M  V30 36 1 6 34
M  V30 37 1 6 35
M  V30 38 1 7 36
M  V30 39 1 10 37
M  V30 40 1 11 38
M  V30 41 1 11 39
M  V30 42 1 15 40
M  V30 43 1 15 41
M  V30 44 1 17 42
M  V30 45 1 18 43
M  V30 46 1 19 44
M  V30 47 1 21 45
M  V30 48 1 25 46
M  V30 49 1 25 47
M  V30 50 1 26 48
M  V30 51 1 26 49
M  V30 52 1 26 50
M  V30 END BOND
M  V30 END CTAB
M  END
