
     RDKit          3D

  0  0  0  0  0  0  0  0  0  0999 V3000
M  V30 BEGIN CTAB
M  V30 COUNTS 31 32 0 0 0
M  V30 BEGIN ATOM
M  V30 1 C -3.7287 -2.10737 1.41087 0
M  V30 2 O -3.40947 -1.09792 0.692298 0
M  V30 3 C -3.11224 -0.0614327 -0.0356996 0
M  V30 4 C -4.11321 0.877623 -0.343578 0
M  V30 5 C -3.74748 1.97845 -1.14513 0
M  V30 6 C -2.45684 2.10611 -1.61414 0
M  V30 7 C -1.51099 1.15343 -1.29642 0
M  V30 8 C -1.86759 0.0927698 -0.512913 0
M  V30 9 S -0.567011 -1.0968 0.030745 0
M  V30 10 C 0.504325 -0.19475 1.17556 0
M  V30 11 C 1.89922 -0.161124 0.593797 0
M  V30 12 N 2.27511 0.703424 -0.338682 0
M  V30 13 C 3.54134 0.680625 -0.745309 0
M  V30 14 N 4.00783 1.57466 -1.74989 0
M  V30 15 N 4.40812 -0.173443 -0.22868 0
M  V30 16 C 4.04049 -1.03641 0.717172 0
M  V30 17 N 2.76714 -1.02911 1.13273 0
M  V30 18 N 5.02767 -1.88304 1.2481 0
M  V30 19 H -3.4949 -2.04482 2.51668 0
M  V30 20 H -3.13359 -3.08207 1.10736 0
M  V30 21 H -4.78088 -2.55834 1.41413 0
M  V30 22 H -5.09789 0.818435 -0.0129177 0
M  V30 23 H -4.44796 2.76126 -1.3691 0
M  V30 24 H -2.23003 2.93906 -2.21203 0
M  V30 25 H -0.476761 1.18989 -1.684 0
M  V30 26 H 0.485796 -0.623927 2.18337 0
M  V30 27 H 0.140335 0.88713 1.27181 0
M  V30 28 H 5.01505 1.69345 -1.96564 0
M  V30 29 H 3.34511 2.16379 -2.3279 0
M  V30 30 H 5.59703 -1.61253 2.05906 0
M  V30 31 H 5.12099 -2.85703 0.827353 0
M  V30 END ATOM
M  V30 BEGIN BOND
M  V30 1 1 1 2
M  V30 2 1 2 3
M  V30 3 2 3 4
M  V30 4 1 4 5
M  V30 5 2 5 6
M  V30 6 1 6 7
M  V30 7 2 7 8
M  V30 8 1 8 9
M  V30 9 1 9 10
M  V30 10 1 10 11
M  V30 11 2 11 12
M  V30 12 1 12 13
M  V30 13 1 13 14
M  V30 14 2 13 15
M  V30 15 1 15 16
M  V30 16 2 16 17
M  V30 17 1 16 18
M  V30 18 1 8 3
M  V30 19 1 17 11
M  V30 20 1 1 19
M  V30 21 1 1 20
M  V30 22 1 1 21
M  V30 23 1 4 22
M  V30 24 1 5 23
M  V30 25 1 6 24
M  V30 26 1 7 25
M  V30 27 1 10 26
M  V30 28 1 10 27
M  V30 29 1 14 28
M  V30 30 1 14 29
M  V30 31 1 18 30
M  V30 32 1 18 31
M  V30 END BOND
M  V30 END CTAB
M  END
