
     RDKit          3D

  0  0  0  0  0  0  0  0  0  0999 V3000
M  V30 BEGIN CTAB
M  V30 COUNTS 35 35 0 0 0
M  V30 BEGIN ATOM
M  V30 1 N 4.68129 -0.87129 1.28924 0
M  V30 2 C 4.4964 0.576762 1.18421 0
M  V30 3 C 4.39777 0.941285 -0.264683 0
M  V30 4 C 3.22551 0.224269 -0.867246 0
M  V30 5 N 1.97681 0.554279 -0.246405 0
M  V30 6 C 0.780199 -0.0458144 -0.709014 0
M  V30 7 O 0.857718 -0.857474 -1.66066 0
M  V30 8 C -0.532334 0.281154 -0.0794183 0
M  V30 9 C -1.65778 -0.487715 -0.750356 0
M  V30 10 C -2.96919 -0.168047 -0.129417 0
M  V30 11 C -3.84245 0.654717 -0.79069 0
M  V30 12 C -5.06043 0.957843 -0.224954 0
M  V30 13 C -5.38808 0.433424 0.995063 0
M  V30 14 C -4.52609 -0.400187 1.68563 0
M  V30 15 C -3.31333 -0.691014 1.10293 0
M  V30 16 N -1.41769 -1.92228 -0.607854 0
M  V30 17 F 4.37394 2.28809 -0.472736 0
M  V30 18 F 5.53857 0.456913 -0.920689 0
M  V30 19 H 4.93159 -1.17321 2.24317 0
M  V30 20 H 5.29082 -1.22889 0.537877 0
M  V30 21 H 3.61085 0.910862 1.73574 0
M  V30 22 H 5.39042 1.10432 1.61605 0
M  V30 23 H 3.21881 0.455694 -1.95119 0
M  V30 24 H 3.37634 -0.869713 -0.786642 0
M  V30 25 H 1.98877 1.24209 0.544994 0
M  V30 26 H -0.758394 1.35179 -0.0906115 0
M  V30 27 H -0.468993 -0.0403044 0.977092 0
M  V30 28 H -1.72773 -0.28945 -1.82211 0
M  V30 29 H -3.59255 1.0848 -1.7743 0
M  V30 30 H -5.76611 1.61942 -0.753547 0
M  V30 31 H -6.36316 0.692268 1.41946 0
M  V30 32 H -4.77528 -0.81607 2.64352 0
M  V30 33 H -2.59663 -1.34919 1.61556 0
M  V30 34 H -1.12191 -2.17814 0.349965 0
M  V30 35 H -2.25767 -2.44119 -0.943333 0
M  V30 END ATOM
M  V30 BEGIN BOND
M  V30 1 1 1 2
M  V30 2 1 2 3
M  V30 3 1 3 4
M  V30 4 1 4 5
M  V30 5 1 5 6
M  V30 6 2 6 7
M  V30 7 1 6 8
M  V30 8 1 8 9
M  V30 9 1 9 10
M  V30 10 2 10 11
M  V30 11 1 11 12
M  V30 12 2 12 13
M  V30 13 1 13 14
M  V30 14 2 14 15
M  V30 15 1 9 16
M  V30 16 1 3 17
M  V30 17 1 3 18
M  V30 18 1 15 10
M  V30 19 1 1 19
M  V30 20 1 1 20
M  V30 21 1 2 21
M  V30 22 1 2 22
M  V30 23 1 4 23
M  V30 24 1 4 24
M  V30 25 1 5 25
M  V30 26 1 8 26
M  V30 27 1 8 27
M  V30 28 1 9 28
M  V30 29 1 11 29
M  V30 30 1 12 30
M  V30 31 1 13 31
M  V30 32 1 14 32
M  V30 33 1 15 33
M  V30 34 1 16 34
M  V30 35 1 16 35
M  V30 END BOND
M  V30 END CTAB
M  END
