
     RDKit          3D

  0  0  0  0  0  0  0  0  0  0999 V3000
M  V30 BEGIN CTAB
M  V30 COUNTS 25 25 0 0 0
M  V30 BEGIN ATOM
M  V30 1 C 4.54115 0.116067 0.209676 0
M  V30 2 O 3.16252 0.327508 -0.0317715 0
M  V30 3 C 2.25695 -0.698228 0.283276 0
M  V30 4 O 2.73622 -1.75242 0.766051 0
M  V30 5 C 0.825957 -0.5419 0.0583299 0
M  V30 6 C -0.00232828 -1.58514 0.389196 0
M  V30 7 C -1.3537 -1.44486 0.179723 0
M  V30 8 C -1.88382 -0.293547 -0.348304 0
M  V30 9 C -1.04006 0.736549 -0.672075 0
M  V30 10 C 0.323339 0.625304 -0.473058 0
M  V30 11 N 1.23305 1.65649 -0.789835 0
M  V30 12 S -3.60751 -0.0903244 -0.625376 0
M  V30 13 O -4.18515 -1.44867 -0.975307 0
M  V30 14 O -3.7539 0.783241 -1.84002 0
M  V30 15 N -4.38605 0.583333 0.755176 0
M  V30 16 H 4.70597 -0.313557 1.23518 0
M  V30 17 H 5.01456 1.13742 0.177216 0
M  V30 18 H 5.01185 -0.556306 -0.528117 0
M  V30 19 H 0.373316 -2.50015 0.803689 0
M  V30 20 H -2.04725 -2.24907 0.42857 0
M  V30 21 H -1.37134 1.67811 -1.09236 0
M  V30 22 H 1.72224 1.63257 -1.69614 0
M  V30 23 H 1.41203 2.42667 -0.130374 0
M  V30 24 H -5.28589 0.143756 0.979712 0
M  V30 25 H -4.40217 1.62715 0.72621 0
M  V30 END ATOM
M  V30 BEGIN BOND
M  V30 1 1 1 2
M  V30 2 1 2 3
M  V30 3 2 3 4
M  V30 4 1 3 5
M  V30 5 2 5 6
M  V30 6 1 6 7
M  V30 7 2 7 8
M  V30 8 1 8 9
M  V30 9 2 9 10
M  V30 10 1 10 11
M  V30 11 1 8 12
M  V30 12 2 12 13
M  V30 13 2 12 14
M  V30 14 1 12 15
M  V30 15 1 10 5
M  V30 16 1 1 16
M  V30 17 1 1 17
M  V30 18 1 1 18
M  V30 19 1 6 19
M  V30 20 1 7 20
M  V30 21 1 9 21
M  V30 22 1 11 22
M  V30 23 1 11 23
M  V30 24 1 15 24
M  V30 25 1 15 25
M  V30 END BOND
M  V30 END CTAB
M  END
