
     RDKit          3D

  0  0  0  0  0  0  0  0  0  0999 V3000
M  V30 BEGIN CTAB
M  V30 COUNTS 47 47 0 0 0
M  V30 BEGIN ATOM
M  V30 1 N -1.83021 -3.06014 0.380618 0
M  V30 2 C -2.73467 -1.96388 0.273369 0
M  V30 3 C -2.2432 -0.892204 -0.611101 0
M  V30 4 N -1.02641 -0.263022 -0.239698 0
M  V30 5 C 0.281814 -0.756624 -0.148067 0
M  V30 6 O 0.583583 -1.93823 -0.418574 0
M  V30 7 C 1.41715 0.0920089 0.28142 0
M  V30 8 C 1.36532 1.45628 0.251324 0
M  V30 9 C 2.43891 2.22569 0.668253 0
M  V30 10 C 3.58843 1.6185 1.1246 0
M  V30 11 C 3.65747 0.258846 1.16117 0
M  V30 12 C 2.59248 -0.502175 0.747685 0
M  V30 13 C 4.89695 -0.38782 1.65297 0
M  V30 14 S 5.99931 -0.65247 0.279713 0
M  V30 15 O 5.36747 -1.55266 -0.734266 0
M  V30 16 O 7.29194 -1.24394 0.757925 0
M  V30 17 N 6.35696 0.906954 -0.420005 0
M  V30 18 C -3.31888 0.0756744 -1.03472 0
M  V30 19 C -4.0613 0.794526 0.00691086 0
M  V30 20 C -5.08228 1.68279 -0.748905 0
M  V30 21 C -3.29772 1.75915 0.873379 0
M  V30 22 C -1.89986 -1.63275 -1.9569 0
M  V30 23 H -2.12667 -3.92647 -0.0999557 0
M  V30 24 H -1.42783 -3.20456 1.31823 0
M  V30 25 H -3.72869 -2.35713 -0.124183 0
M  V30 26 H -2.94366 -1.62898 1.32075 0
M  V30 27 H -1.10297 0.792503 0.0150706 0
M  V30 28 H 0.474511 1.96779 -0.108013 0
M  V30 29 H 2.34797 3.32144 0.624884 0
M  V30 30 H 4.38979 2.27417 1.43525 0
M  V30 31 H 2.62617 -1.58099 0.768405 0
M  V30 32 H 5.39009 0.254844 2.40122 0
M  V30 33 H 4.68972 -1.3887 2.10918 0
M  V30 34 H 7.2969 0.801699 -0.873834 0
M  V30 35 H 6.47891 1.61139 0.341791 0
M  V30 36 H -4.05313 -0.418645 -1.71023 0
M  V30 37 H -2.81954 0.846197 -1.69067 0
M  V30 38 H -4.72573 0.135019 0.628057 0
M  V30 39 H -5.92497 1.06869 -1.10273 0
M  V30 40 H -5.45499 2.4658 -0.0504246 0
M  V30 41 H -4.59417 2.19882 -1.58608 0
M  V30 42 H -2.73756 2.50361 0.305708 0
M  V30 43 H -4.08267 2.3568 1.43147 0
M  V30 44 H -2.73005 1.2607 1.69307 0
M  V30 45 H -1.26678 -0.995344 -2.57759 0
M  V30 46 H -1.41646 -2.56906 -1.63425 0
M  V30 47 H -2.90144 -1.81409 -2.41135 0
M  V30 END ATOM
M  V30 BEGIN BOND
M  V30 1 1 1 2
M  V30 2 1 2 3
M  V30 3 1 3 4
M  V30 4 1 4 5
M  V30 5 2 5 6
M  V30 6 1 5 7
M  V30 7 2 7 8
M  V30 8 1 8 9
M  V30 9 2 9 10
M  V30 10 1 10 11
M  V30 11 2 11 12
M  V30 12 1 11 13
M  V30 13 1 13 14
M  V30 14 2 14 15
M  V30 15 2 14 16
M  V30 16 1 14 17
M  V30 17 1 3 18
M  V30 18 1 18 19
M  V30 19 1 19 20
M  V30 20 1 19 21
M  V30 21 1 3 22
M  V30 22 1 12 7
M  V30 23 1 1 23
M  V30 24 1 1 24
M  V30 25 1 2 25
M  V30 26 1 2 26
M  V30 27 1 4 27
M  V30 28 1 8 28
M  V30 29 1 9 29
M  V30 30 1 10 30
M  V30 31 1 12 31
M  V30 32 1 13 32
M  V30 33 1 13 33
M  V30 34 1 17 34
M  V30 35 1 17 35
M  V30 36 1 18 36
M  V30 37 1 18 37
M  V30 38 1 19 38
M  V30 39 1 20 39
M  V30 40 1 20 40
M  V30 41 1 20 41
M  V30 42 1 21 42
M  V30 43 1 21 43
M  V30 44 1 21 44
M  V30 45 1 22 45
M  V30 46 1 22 46
M  V30 47 1 22 47
M  V30 END BOND
M  V30 END CTAB
M  END
