
     RDKit          3D

  0  0  0  0  0  0  0  0  0  0999 V3000
M  V30 BEGIN CTAB
M  V30 COUNTS 44 44 0 0 0
M  V30 BEGIN ATOM
M  V30 1 N -3.19396 -1.76295 1.23957 0
M  V30 2 C -3.00003 -0.380974 1.3895 0
M  V30 3 C -3.32292 0.429531 0.201954 0
M  V30 4 C -2.58513 0.254283 -1.06013 0
M  V30 5 N -1.18207 0.514857 -1.07129 0
M  V30 6 C -0.190521 -0.46143 -0.919548 0
M  V30 7 O -0.597855 -1.68946 -0.83462 0
M  V30 8 C 1.26751 -0.286101 -0.84193 0 CFG=2
M  V30 9 C 1.86257 -1.12745 0.292404 0
M  V30 10 C 3.33278 -0.9602 0.38055 0
M  V30 11 C 4.19855 -1.77555 -0.34386 0
M  V30 12 C 5.56394 -1.62809 -0.26417 0
M  V30 13 C 6.13313 -0.664415 0.538318 0
M  V30 14 C 5.29181 0.150486 1.2616 0
M  V30 15 C 3.93904 -0.00783987 1.17229 0
M  V30 16 N 1.78484 1.02267 -0.856589 0
M  V30 17 C -0.722657 1.90296 -1.26298 0
M  V30 18 C -4.80685 0.110294 -0.130903 0
M  V30 19 C -3.40523 1.92752 0.5966 0
M  V30 20 H -3.45162 -2.14536 0.387211 0
M  V30 21 H -2.9854 -2.35495 1.9931 0
M  V30 22 H -1.98871 -0.16646 1.81873 0
M  V30 23 H -3.715 -0.0576074 2.209 0
M  V30 24 H -3.13249 0.816699 -1.8589 0
M  V30 25 H -2.73899 -0.8262 -1.37163 0
M  V30 26 H 1.67041 -0.798696 -1.77471 0
M  V30 27 H 1.41894 -0.835043 1.26397 0
M  V30 28 H 1.62202 -2.20264 0.146697 0
M  V30 29 H 3.7696 -2.52898 -0.97181 0
M  V30 30 H 6.22117 -2.26466 -0.829133 0
M  V30 31 H 7.22655 -0.551218 0.59791 0
M  V30 32 H 5.73956 0.903363 1.88845 0
M  V30 33 H 3.29684 0.65506 1.76249 0
M  V30 34 H 1.90317 1.51761 0.0283198 0
M  V30 35 H 2.4291 1.27036 -1.61204 0
M  V30 36 H -0.300994 2.35043 -0.370754 0
M  V30 37 H -1.65231 2.53408 -1.47614 0
M  V30 38 H -0.107921 2.04553 -2.14355 0
M  V30 39 H -4.89212 -0.886833 -0.569916 0
M  V30 40 H -5.12301 0.935849 -0.801371 0
M  V30 41 H -5.37222 0.240621 0.818603 0
M  V30 42 H -2.36877 2.23597 0.842048 0
M  V30 43 H -3.99511 2.04135 1.51783 0
M  V30 44 H -3.83966 2.50357 -0.223779 0
M  V30 END ATOM
M  V30 BEGIN BOND
M  V30 1 1 1 2
M  V30 2 1 2 3
M  V30 3 1 3 4
M  V30 4 1 4 5
M  V30 5 1 5 6
M  V30 6 2 6 7
M  V30 7 1 6 8
M  V30 8 1 8 9
M  V30 9 1 9 10
M  V30 10 2 10 11
M  V30 11 1 11 12
M  V30 12 2 12 13
M  V30 13 1 13 14
M  V30 14 2 14 15
M  V30 15 1 8 16
M  V30 16 1 5 17
M  V30 17 1 3 18
M  V30 18 1 3 19
M  V30 19 1 15 10
M  V30 20 1 1 20
M  V30 21 1 1 21
M  V30 22 1 2 22
M  V30 23 1 2 23
M  V30 24 1 4 24
M  V30 25 1 4 25
M  V30 26 1 8 26 CFG=3
M  V30 27 1 9 27
M  V30 28 1 9 28
M  V30 29 1 11 29
M  V30 30 1 12 30
M  V30 31 1 13 31
M  V30 32 1 14 32
M  V30 33 1 15 33
M  V30 34 1 16 34
M  V30 35 1 16 35
M  V30 36 1 17 36
M  V30 37 1 17 37
M  V30 38 1 17 38
M  V30 39 1 18 39
M  V30 40 1 18 40
M  V30 41 1 18 41
M  V30 42 1 19 42
M  V30 43 1 19 43
M  V30 44 1 19 44
M  V30 END BOND
M  V30 END CTAB
M  END
