
     RDKit          3D

  0  0  0  0  0  0  0  0  0  0999 V3000
M  V30 BEGIN CTAB
M  V30 COUNTS 38 40 0 0 0
M  V30 BEGIN ATOM
M  V30 1 N 4.75433 0.883024 -2.59418 0
M  V30 2 C 4.32631 0.645506 -1.2432 0
M  V30 3 N 3.14321 1.09111 -0.807304 0
M  V30 4 C 2.70398 0.886489 0.468302 0
M  V30 5 C 1.37592 1.42411 0.877732 0
M  V30 6 O 0.301689 0.631034 0.521882 0
M  V30 7 C 0.0892626 -0.630959 0.92692 0
M  V30 8 O 0.927053 -1.16464 1.70325 0
M  V30 9 C -1.06633 -1.41565 0.517887 0
M  V30 10 C -1.24035 -2.66667 1.14884 0
M  V30 11 C -2.32202 -3.46356 0.914723 0
M  V30 12 C -3.25936 -2.99362 0.0205014 0
M  V30 13 C -3.11817 -1.78851 -0.606707 0
M  V30 14 C -2.01125 -0.973218 -0.368975 0
M  V30 15 C -1.87497 0.248013 -1.12057 0
M  V30 16 O -0.871952 0.49285 -1.82718 0
M  V30 17 C -2.91895 1.29556 -1.10345 0
M  V30 18 C -3.94458 1.44783 -0.205488 0
M  V30 19 C -4.77533 2.48204 -0.392667 0
M  V30 20 C -4.53385 3.30034 -1.4623 0
M  V30 21 S -3.15104 2.59759 -2.17353 0
M  V30 22 N 3.53196 0.208751 1.26482 0
M  V30 23 C 4.72892 -0.267272 0.899011 0
M  V30 24 N 5.1123 -0.0304235 -0.390135 0
M  V30 25 N 5.579 -0.983524 1.78331 0
M  V30 26 H 4.70607 0.165502 -3.32443 0
M  V30 27 H 5.12242 1.8496 -2.78276 0
M  V30 28 H 1.24095 2.4207 0.389163 0
M  V30 29 H 1.45367 1.60785 1.97913 0
M  V30 30 H -0.504806 -3.03133 1.84747 0
M  V30 31 H -2.46144 -4.42633 1.39738 0
M  V30 32 H -4.13397 -3.60135 -0.188413 0
M  V30 33 H -3.85171 -1.3993 -1.31989 0
M  V30 34 H -4.07655 0.733764 0.646567 0
M  V30 35 H -5.64218 2.71034 0.266788 0
M  V30 36 H -5.10645 4.19312 -1.77244 0
M  V30 37 H 6.30014 -1.64146 1.43847 0
M  V30 38 H 5.46807 -0.837319 2.80024 0
M  V30 END ATOM
M  V30 BEGIN BOND
M  V30 1 1 1 2
M  V30 2 2 2 3
M  V30 3 1 3 4
M  V30 4 1 4 5
M  V30 5 1 5 6
M  V30 6 1 6 7
M  V30 7 2 7 8
M  V30 8 1 7 9
M  V30 9 2 9 10
M  V30 10 1 10 11
M  V30 11 2 11 12
M  V30 12 1 12 13
M  V30 13 2 13 14
M  V30 14 1 14 15
M  V30 15 2 15 16
M  V30 16 1 15 17
M  V30 17 2 17 18
M  V30 18 1 18 19
M  V30 19 2 19 20
M  V30 20 1 20 21
M  V30 21 2 4 22
M  V30 22 1 22 23
M  V30 23 2 23 24
M  V30 24 1 23 25
M  V30 25 1 24 2
M  V30 26 1 14 9
M  V30 27 1 21 17
M  V30 28 1 1 26
M  V30 29 1 1 27
M  V30 30 1 5 28
M  V30 31 1 5 29
M  V30 32 1 10 30
M  V30 33 1 11 31
M  V30 34 1 12 32
M  V30 35 1 13 33
M  V30 36 1 18 34
M  V30 37 1 19 35
M  V30 38 1 20 36
M  V30 39 1 25 37
M  V30 40 1 25 38
M  V30 END BOND
M  V30 END CTAB
M  END
