
     RDKit          3D

  0  0  0  0  0  0  0  0  0  0999 V3000
M  V30 BEGIN CTAB
M  V30 COUNTS 28 29 0 0 0
M  V30 BEGIN ATOM
M  V30 1 N 4.44883 -1.33645 -0.683507 0
M  V30 2 C 3.14191 -0.788302 -0.427544 0
M  V30 3 C 2.52796 0.0053383 -1.3759 0
M  V30 4 C 1.29027 0.493091 -1.07249 0
M  V30 5 C 0.627815 0.242129 0.109851 0
M  V30 6 C 1.24094 -0.544846 1.0487 0
M  V30 7 C 2.51367 -1.06346 0.769138 0
M  V30 8 C -0.705336 0.868251 0.389437 0
M  V30 9 N -0.819262 2.18565 0.369751 0
M  V30 10 C -1.97397 2.76071 0.581501 0
M  V30 11 S -2.99922 1.43085 0.828287 0
M  V30 12 C -1.8344 0.151688 0.635481 0
M  V30 13 S -2.21793 -1.5473 0.706337 0
M  V30 14 O -3.47842 -1.75992 1.5393 0
M  V30 15 O -1.14402 -2.45836 1.06486 0
M  V30 16 C -2.73669 -1.9716 -0.974445 0
M  V30 17 N -2.22341 4.17632 0.586006 0
M  V30 18 H 5.04987 -1.54534 0.151753 0
M  V30 19 H 4.78915 -1.52043 -1.66005 0
M  V30 20 H 3.04276 0.21442 -2.32263 0
M  V30 21 H 0.804499 1.1178 -1.81648 0
M  V30 22 H 0.832746 -0.78195 2.00549 0
M  V30 23 H 3.04077 -1.68854 1.47114 0
M  V30 24 H -3.70142 -1.42835 -1.10872 0
M  V30 25 H -2.85944 -3.04994 -1.08017 0
M  V30 26 H -2.03591 -1.51494 -1.70924 0
M  V30 27 H -1.5161 4.81899 1.01468 0
M  V30 28 H -3.10565 4.53449 0.161256 0
M  V30 END ATOM
M  V30 BEGIN BOND
M  V30 1 1 1 2
M  V30 2 2 2 3
M  V30 3 1 3 4
M  V30 4 2 4 5
M  V30 5 1 5 6
M  V30 6 2 6 7
M  V30 7 1 5 8
M  V30 8 1 8 9
M  V30 9 2 9 10
M  V30 10 1 10 11
M  V30 11 1 11 12
M  V30 12 1 12 13
M  V30 13 2 13 14
M  V30 14 2 13 15
M  V30 15 1 13 16
M  V30 16 1 10 17
M  V30 17 1 7 2
M  V30 18 2 12 8
M  V30 19 1 1 18
M  V30 20 1 1 19
M  V30 21 1 3 20
M  V30 22 1 4 21
M  V30 23 1 6 22
M  V30 24 1 7 23
M  V30 25 1 16 24
M  V30 26 1 16 25
M  V30 27 1 16 26
M  V30 28 1 17 27
M  V30 29 1 17 28
M  V30 END BOND
M  V30 END CTAB
M  END
