
     RDKit          3D

  0  0  0  0  0  0  0  0  0  0999 V3000
M  V30 BEGIN CTAB
M  V30 COUNTS 19 19 0 0 0
M  V30 BEGIN ATOM
M  V30 1 N 3.07488 -0.509695 -0.373192 0
M  V30 2 C 1.66811 -0.468185 -0.23759 0
M  V30 3 C 0.89672 -1.59806 -0.349664 0
M  V30 4 C -0.463773 -1.49811 -0.20883 0
M  V30 5 C -1.06894 -0.305454 0.0395372 0
M  V30 6 C -0.294193 0.829401 0.152108 0
M  V30 7 C 1.09625 0.76654 0.0145313 0
M  V30 8 Br 2.15954 2.3462 0.172621 0
M  V30 9 N -0.843331 2.10046 0.408005 0
M  V30 10 C -2.55626 -0.221659 0.189408 0
M  V30 11 F -3.12762 -1.47061 0.0397213 0
M  V30 12 F -3.11336 0.705033 -0.638003 0
M  V30 13 F -2.81668 0.164868 1.50945 0
M  V30 14 H 3.47419 -0.589779 -1.33204 0
M  V30 15 H 3.67999 -0.46068 0.469628 0
M  V30 16 H 1.40227 -2.54005 -0.548362 0
M  V30 17 H -1.07669 -2.3823 -0.295682 0
M  V30 18 H -0.879974 2.47554 1.36656 0
M  V30 19 H -1.21112 2.65653 -0.378199 0
M  V30 END ATOM
M  V30 BEGIN BOND
M  V30 1 1 1 2
M  V30 2 2 2 3
M  V30 3 1 3 4
M  V30 4 2 4 5
M  V30 5 1 5 6
M  V30 6 2 6 7
M  V30 7 1 7 8
M  V30 8 1 6 9
M  V30 9 1 5 10
M  V30 10 1 10 11
M  V30 11 1 10 12
M  V30 12 1 10 13
M  V30 13 1 7 2
M  V30 14 1 1 14
M  V30 15 1 1 15
M  V30 16 1 3 16
M  V30 17 1 4 17
M  V30 18 1 9 18
M  V30 19 1 9 19
M  V30 END BOND
M  V30 END CTAB
M  END
