
     RDKit          3D

  0  0  0  0  0  0  0  0  0  0999 V3000
M  V30 BEGIN CTAB
M  V30 COUNTS 27 27 0 0 0
M  V30 BEGIN ATOM
M  V30 1 C 1.74867 -1.67262 -1.41174 0
M  V30 2 C 1.67489 -0.199224 -1.58966 0
M  V30 3 C 1.1303 0.593094 -0.446501 0
M  V30 4 C -0.234563 0.247027 -0.131617 0
M  V30 5 N -0.642126 -0.889246 0.412187 0
M  V30 6 C -1.92179 -1.16635 0.722216 0
M  V30 7 N -2.25232 -2.41733 1.2916 0
M  V30 8 N -2.84661 -0.203981 0.454416 0
M  V30 9 C -2.49174 0.962884 -0.093773 0
M  V30 10 N -1.20474 1.17197 -0.376887 0
M  V30 11 N -3.48767 1.93974 -0.341682 0
M  V30 12 N 2.05127 0.441752 0.666587 0
M  V30 13 C 2.08274 1.55715 1.55676 0
M  V30 14 H 2.84493 -1.96982 -1.42581 0
M  V30 15 H 1.28895 -2.10625 -0.524348 0
M  V30 16 H 1.27362 -2.1844 -2.29895 0
M  V30 17 H 1.086 0.0470279 -2.53434 0
M  V30 18 H 2.69711 0.1841 -1.83409 0
M  V30 19 H 1.21716 1.68521 -0.728866 0
M  V30 20 H -2.49117 -3.19753 0.617944 0
M  V30 21 H -2.25282 -2.55514 2.32459 0
M  V30 22 H -4.44953 1.61678 -0.610909 0
M  V30 23 H -3.3113 2.95973 -0.265125 0
M  V30 24 H 2.13285 -0.492479 1.05936 0
M  V30 25 H 3.11546 1.97545 1.61257 0
M  V30 26 H 1.83329 1.29165 2.6308 0
M  V30 27 H 1.40915 2.38081 1.26526 0
M  V30 END ATOM
M  V30 BEGIN BOND
M  V30 1 1 1 2
M  V30 2 1 2 3
M  V30 3 1 3 4
M  V30 4 2 4 5
M  V30 5 1 5 6
M  V30 6 1 6 7
M  V30 7 2 6 8
M  V30 8 1 8 9
M  V30 9 2 9 10
M  V30 10 1 9 11
M  V30 11 1 3 12
M  V30 12 1 12 13
M  V30 13 1 10 4
M  V30 14 1 1 14
M  V30 15 1 1 15
M  V30 16 1 1 16
M  V30 17 1 2 17
M  V30 18 1 2 18
M  V30 19 1 3 19
M  V30 20 1 7 20
M  V30 21 1 7 21
M  V30 22 1 11 22
M  V30 23 1 11 23
M  V30 24 1 12 24
M  V30 25 1 13 25
M  V30 26 1 13 26
M  V30 27 1 13 27
M  V30 END BOND
M  V30 END CTAB
M  END
