
     RDKit          3D

  0  0  0  0  0  0  0  0  0  0999 V3000
M  V30 BEGIN CTAB
M  V30 COUNTS 70 73 0 0 0
M  V30 BEGIN ATOM
M  V30 1 C 0.983018 -2.88839 -2.90281 0
M  V30 2 C 0.943887 -2.13679 -1.55133 0
M  V30 3 C -0.308631 -1.3018 -1.46024 0
M  V30 4 N -0.530544 -0.569064 -0.305238 0
M  V30 5 C 0.352676 0.499354 0.0424893 0
M  V30 6 C 1.71527 0.132742 0.442132 0
M  V30 7 N 1.97293 -0.896834 1.29741 0
M  V30 8 C 3.26603 -1.14968 1.62353 0
M  V30 9 N 3.60534 -2.2057 2.50813 0
M  V30 10 N 4.2689 -0.413626 1.12453 0
M  V30 11 C 4.05537 0.594778 0.290433 0
M  V30 12 N 2.74528 0.836445 -0.0283217 0
M  V30 13 N 5.03966 1.41747 -0.281231 0
M  V30 14 C 6.42618 1.34452 -0.0864648 0
M  V30 15 C 7.09202 0.468986 0.719392 0
M  V30 16 C 8.48868 0.450208 0.872989 0
M  V30 17 C 9.2383 1.35508 0.181738 0
M  V30 18 C 8.58084 2.24314 -0.634094 0
M  V30 19 C 7.22257 2.26187 -0.783976 0
M  V30 20 C 6.57695 3.2474 -1.68581 0
M  V30 21 C -1.20961 -1.1122 0.812765 0
M  V30 22 C -2.59633 -1.50744 0.724368 0
M  V30 23 N -2.9263 -2.80682 0.735844 0
M  V30 24 C -4.20015 -3.17017 0.674655 0
M  V30 25 N -4.58706 -4.56576 0.685724 0
M  V30 26 N -5.1611 -2.27355 0.60166 0
M  V30 27 C -4.89802 -0.933888 0.58525 0
M  V30 28 N -3.60251 -0.630964 0.649121 0
M  V30 29 N -5.98607 -0.0645671 0.510665 0
M  V30 30 C -6.03449 1.34433 0.473097 0
M  V30 31 C -4.92017 2.11952 0.480047 0
M  V30 32 C -4.96995 3.51762 0.438144 0
M  V30 33 C -6.18274 4.15253 0.387579 0
M  V30 34 C -7.32297 3.37839 0.379582 0
M  V30 35 C -7.25957 2.01164 0.421065 0
M  V30 36 C -8.51232 1.20963 0.41359 0
M  V30 37 C -1.48183 -2.022 -2.08781 0
M  V30 38 H 0.0540164 -3.46766 -3.03392 0
M  V30 39 H 1.21231 -2.20964 -3.73621 0
M  V30 40 H 1.85062 -3.57846 -2.79803 0
M  V30 41 H 1.86352 -1.50915 -1.61547 0
M  V30 42 H 0.970373 -2.91329 -0.778083 0
M  V30 43 H -0.0989168 -0.476378 -2.27076 0
M  V30 44 H -0.116042 1.05233 0.905982 0
M  V30 45 H 0.397657 1.19732 -0.826002 0
M  V30 46 H 3.24136 -3.1551 2.29941 0
M  V30 47 H 4.20168 -2.01849 3.33543 0
M  V30 48 H 4.67498 2.18255 -0.936992 0
M  V30 49 H 6.55008 -0.264376 1.28769 0
M  V30 50 H 8.95932 -0.261905 1.52248 0
M  V30 51 H 10.3207 1.35526 0.2882 0
M  V30 52 H 9.20981 2.9613 -1.17958 0
M  V30 53 H 6.09914 2.79695 -2.56074 0
M  V30 54 H 5.82082 3.8516 -1.11992 0
M  V30 55 H 7.33861 3.98412 -2.01956 0
M  V30 56 H -0.539946 -1.92489 1.23202 0
M  V30 57 H -1.14841 -0.323777 1.62741 0
M  V30 58 H -5.41477 -4.8258 1.25642 0
M  V30 59 H -4.00092 -5.20713 0.116565 0
M  V30 60 H -6.95432 -0.570239 0.475694 0
M  V30 61 H -3.92479 1.71446 0.517572 0
M  V30 62 H -4.0775 4.12349 0.443726 0
M  V30 63 H -6.22591 5.23549 0.355212 0
M  V30 64 H -8.30167 3.86772 0.339338 0
M  V30 65 H -8.61883 0.603898 1.33841 0
M  V30 66 H -8.52342 0.59578 -0.496023 0
M  V30 67 H -9.38981 1.88508 0.365494 0
M  V30 68 H -1.5165 -3.10563 -1.84689 0
M  V30 69 H -1.35755 -2.0343 -3.22571 0
M  V30 70 H -2.4392 -1.49758 -1.95613 0
M  V30 END ATOM
M  V30 BEGIN BOND
M  V30 1 1 1 2
M  V30 2 1 2 3
M  V30 3 1 3 4
M  V30 4 1 4 5
M  V30 5 1 5 6
M  V30 6 2 6 7
M  V30 7 1 7 8
M  V30 8 1 8 9
M  V30 9 2 8 10
M  V30 10 1 10 11
M  V30 11 2 11 12
M  V30 12 1 11 13
M  V30 13 1 13 14
M  V30 14 2 14 15
M  V30 15 1 15 16
M  V30 16 2 16 17
M  V30 17 1 17 18
M  V30 18 2 18 19
M  V30 19 1 19 20
M  V30 20 1 4 21
M  V30 21 1 21 22
M  V30 22 2 22 23
M  V30 23 1 23 24
M  V30 24 1 24 25
M  V30 25 2 24 26
M  V30 26 1 26 27
M  V30 27 2 27 28
M  V30 28 1 27 29
M  V30 29 1 29 30
M  V30 30 2 30 31
M  V30 31 1 31 32
M  V30 32 2 32 33
M  V30 33 1 33 34
M  V30 34 2 34 35
M  V30 35 1 35 36
M  V30 36 1 3 37
M  V30 37 1 12 6
M  V30 38 1 19 14
M  V30 39 1 28 22
M  V30 40 1 35 30
M  V30 41 1 1 38
M  V30 42 1 1 39
M  V30 43 1 1 40
M  V30 44 1 2 41
M  V30 45 1 2 42
M  V30 46 1 3 43
M  V30 47 1 5 44
M  V30 48 1 5 45
M  V30 49 1 9 46
M  V30 50 1 9 47
M  V30 51 1 13 48
M  V30 52 1 15 49
M  V30 53 1 16 50
M  V30 54 1 17 51
M  V30 55 1 18 52
M  V30 56 1 20 53
M  V30 57 1 20 54
M  V30 58 1 20 55
M  V30 59 1 21 56
M  V30 60 1 21 57
M  V30 61 1 25 58
M  V30 62 1 25 59
M  V30 63 1 29 60
M  V30 64 1 31 61
M  V30 65 1 32 62
M  V30 66 1 33 63
M  V30 67 1 34 64
M  V30 68 1 36 65
M  V30 69 1 36 66
M  V30 70 1 36 67
M  V30 71 1 37 68
M  V30 72 1 37 69
M  V30 73 1 37 70
M  V30 END BOND
M  V30 END CTAB
M  END
