
     RDKit          3D

  0  0  0  0  0  0  0  0  0  0999 V3000
M  V30 BEGIN CTAB
M  V30 COUNTS 23 23 0 0 0
M  V30 BEGIN ATOM
M  V30 1 F 3.72438 0.936917 -1.10751 0
M  V30 2 C 3.69995 0.054176 -0.0467495 0
M  V30 3 C 2.43457 -0.770052 -0.0419826 0
M  V30 4 N 1.30398 0.116593 0.0650764 0
M  V30 5 C -0.0418606 -0.348484 0.0962291 0
M  V30 6 N -0.280817 -1.66686 0.0235278 0
M  V30 7 C -1.54044 -2.13695 0.0504895 0
M  V30 8 C -2.55832 -1.22321 0.154174 0
M  V30 9 C -2.3442 0.115964 0.229315 0
M  V30 10 C -1.04663 0.584674 0.200553 0
M  V30 11 N -0.761005 1.98677 0.276459 0
M  V30 12 N -3.37425 1.09189 0.337486 0
M  V30 13 F 3.73745 0.795178 1.11325 0
M  V30 14 F 4.78656 -0.778513 -0.172015 0
M  V30 15 H 2.39132 -1.39727 -0.960564 0
M  V30 16 H 2.40111 -1.48033 0.807229 0
M  V30 17 H 1.48663 1.13968 0.121646 0
M  V30 18 H -1.7259 -3.20624 -0.00887164 0
M  V30 19 H -3.56899 -1.60051 0.175824 0
M  V30 20 H -1.13988 2.60628 1.01752 0
M  V30 21 H -0.133593 2.35429 -0.477613 0
M  V30 22 H -4.1751 0.866862 0.966905 0
M  V30 23 H -3.27496 1.95916 -0.205822 0
M  V30 END ATOM
M  V30 BEGIN BOND
M  V30 1 1 1 2
M  V30 2 1 2 3
M  V30 3 1 3 4
M  V30 4 1 4 5
M  V30 5 2 5 6
M  V30 6 1 6 7
M  V30 7 2 7 8
M  V30 8 1 8 9
M  V30 9 2 9 10
M  V30 10 1 10 11
M  V30 11 1 9 12
M  V30 12 1 2 13
M  V30 13 1 2 14
M  V30 14 1 10 5
M  V30 15 1 3 15
M  V30 16 1 3 16
M  V30 17 1 4 17
M  V30 18 1 7 18
M  V30 19 1 8 19
M  V30 20 1 11 20
M  V30 21 1 11 21
M  V30 22 1 12 22
M  V30 23 1 12 23
M  V30 END BOND
M  V30 END CTAB
M  END
