
     RDKit          3D

  0  0  0  0  0  0  0  0  0  0999 V3000
M  V30 BEGIN CTAB
M  V30 COUNTS 35 36 0 0 0
M  V30 BEGIN ATOM
M  V30 1 C -0.0309502 -2.54284 0.133596 0
M  V30 2 C -0.0405773 -1.17551 -0.481904 0
M  V30 3 C -0.184719 -1.40695 -1.99618 0
M  V30 4 C 1.2125 -0.424375 -0.200485 0
M  V30 5 C 2.11054 -0.889791 0.729879 0
M  V30 6 C 3.27976 -0.208941 1.00218 0
M  V30 7 Cl 4.43726 -0.811542 2.19967 0
M  V30 8 C 3.55324 0.967141 0.323806 0
M  V30 9 N 4.75243 1.71972 0.561301 0
M  V30 10 C 2.68511 1.47573 -0.618152 0
M  V30 11 C 1.52076 0.740414 -0.847507 0
M  V30 12 C -1.23722 -0.388065 -0.0960542 0
M  V30 13 C -1.83874 0.51574 -0.938805 0
M  V30 14 C -2.9458 1.25481 -0.598253 0
M  V30 15 Cl -3.67658 2.4042 -1.72389 0
M  V30 16 C -3.4782 1.07385 0.662533 0
M  V30 17 N -4.62347 1.82812 1.03333 0
M  V30 18 C -2.8919 0.168174 1.53435 0
M  V30 19 C -1.78229 -0.555228 1.15777 0
M  V30 20 H -0.971693 -3.0534 -0.222563 0
M  V30 21 H 0.0487777 -2.58086 1.21671 0
M  V30 22 H 0.812158 -3.11757 -0.29899 0
M  V30 23 H 0.259823 -0.537279 -2.5176 0
M  V30 24 H -1.25902 -1.48071 -2.28496 0
M  V30 25 H 0.338627 -2.34459 -2.28911 0
M  V30 26 H 1.92643 -1.82159 1.28779 0
M  V30 27 H 5.1792 1.80382 1.49456 0
M  V30 28 H 5.22551 2.20978 -0.237746 0
M  V30 29 H 2.87756 2.39511 -1.16226 0
M  V30 30 H 0.862614 1.17083 -1.59479 0
M  V30 31 H -1.43568 0.661333 -1.9209 0
M  V30 32 H -5.50672 1.3092 1.20037 0
M  V30 33 H -4.51401 2.85922 1.11677 0
M  V30 34 H -3.32422 0.034875 2.52928 0
M  V30 35 H -1.3405 -1.25283 1.84627 0
M  V30 END ATOM
M  V30 BEGIN BOND
M  V30 1 1 1 2
M  V30 2 1 2 3
M  V30 3 1 2 4
M  V30 4 2 4 5
M  V30 5 1 5 6
M  V30 6 1 6 7
M  V30 7 2 6 8
M  V30 8 1 8 9
M  V30 9 1 8 10
M  V30 10 2 10 11
M  V30 11 1 2 12
M  V30 12 2 12 13
M  V30 13 1 13 14
M  V30 14 1 14 15
M  V30 15 2 14 16
M  V30 16 1 16 17
M  V30 17 1 16 18
M  V30 18 2 18 19
M  V30 19 1 11 4
M  V30 20 1 19 12
M  V30 21 1 1 20
M  V30 22 1 1 21
M  V30 23 1 1 22
M  V30 24 1 3 23
M  V30 25 1 3 24
M  V30 26 1 3 25
M  V30 27 1 5 26
M  V30 28 1 9 27
M  V30 29 1 9 28
M  V30 30 1 10 29
M  V30 31 1 11 30
M  V30 32 1 13 31
M  V30 33 1 17 32
M  V30 34 1 17 33
M  V30 35 1 18 34
M  V30 36 1 19 35
M  V30 END BOND
M  V30 END CTAB
M  END
