
     RDKit          3D

  0  0  0  0  0  0  0  0  0  0999 V3000
M  V30 BEGIN CTAB
M  V30 COUNTS 57 60 0 0 0
M  V30 BEGIN ATOM
M  V30 1 C 6.73607 -0.590425 2.31517 0
M  V30 2 O 6.84187 -0.6138 0.910722 0
M  V30 3 C 5.70357 -0.718683 0.0965716 0
M  V30 4 C 5.80942 -0.741119 -1.26456 0
M  V30 5 C 4.70075 -0.843381 -2.06587 0
M  V30 6 C 3.42443 -0.9279 -1.50757 0
M  V30 7 C 2.24703 -1.04399 -2.37546 0
M  V30 8 C 1.71725 0.291226 -2.77811 0 CFG=2
M  V30 9 N 2.75485 1.04243 -3.50068 0
M  V30 10 C 1.20548 1.05932 -1.63635 0
M  V30 11 O 1.73092 2.15424 -1.34709 0
M  V30 12 N 0.130563 0.589811 -0.857259 0
M  V30 13 C -0.42484 1.28428 0.270122 0 CFG=2
M  V30 14 C -0.533996 0.333481 1.41594 0 CFG=1
M  V30 15 C -0.680791 1.03326 2.74781 0
M  V30 16 O 0.383244 1.85402 3.03725 0
M  V30 17 O -1.58467 -0.486011 1.11735 0
M  V30 18 C -2.39541 0.0896942 0.176073 0 CFG=2
M  V30 19 C -1.91426 1.50707 -0.0353867 0 CFG=2
M  V30 20 O -2.05635 1.92493 -1.33972 0
M  V30 21 N -3.7622 0.0340444 0.656505 0
M  V30 22 C -4.37036 0.755819 1.58897 0
M  V30 23 N -5.66214 0.351697 1.70476 0
M  V30 24 C -5.88428 -0.639678 0.837148 0
M  V30 25 C -4.66981 -0.834155 0.175352 0
M  V30 26 N -4.65242 -1.8002 -0.761762 0
M  V30 27 C -5.71766 -2.55836 -1.07571 0
M  V30 28 N -6.86788 -2.33657 -0.412676 0
M  V30 29 C -6.99074 -1.4006 0.536678 0
M  V30 30 N -8.24113 -1.24365 1.17638 0
M  V30 31 C 3.34183 -0.904036 -0.152607 0
M  V30 32 C 4.45729 -0.800668 0.673002 0
M  V30 33 H 7.73369 -0.477929 2.75557 0
M  V30 34 H 6.08684 0.25504 2.63452 0
M  V30 35 H 6.27802 -1.53491 2.68471 0
M  V30 36 H 6.80401 -0.675134 -1.69719 0
M  V30 37 H 4.78798 -0.860853 -3.13855 0
M  V30 38 H 2.54266 -1.5951 -3.31096 0
M  V30 39 H 1.41527 -1.60916 -1.8941 0
M  V30 40 H 0.927155 0.104525 -3.55134 0
M  V30 41 H 3.15546 0.490806 -4.26719 0
M  V30 42 H 3.46072 1.4252 -2.84954 0
M  V30 43 H -0.296277 -0.326588 -1.11111 0
M  V30 44 H 0.0791167 2.23547 0.498672 0
M  V30 45 H 0.387494 -0.279507 1.48074 0
M  V30 46 H -1.59312 1.64857 2.76583 0
M  V30 47 H -0.771279 0.294353 3.56113 0
M  V30 48 H 1.14082 1.40128 3.47073 0
M  V30 49 H -2.31056 -0.401115 -0.838874 0
M  V30 50 H -2.36371 2.23706 0.6326 0
M  V30 51 H -2.07977 2.91092 -1.39447 0
M  V30 52 H -3.91656 1.54594 2.1723 0
M  V30 53 H -5.60209 -3.30497 -1.8399 0
M  V30 54 H -8.38473 -1.62708 2.13091 0
M  V30 55 H -9.00755 -0.731246 0.654965 0
M  V30 56 H 2.39917 -0.968428 0.377161 0
M  V30 57 H 4.35163 -0.78471 1.74838 0
M  V30 END ATOM
M  V30 BEGIN BOND
M  V30 1 1 1 2
M  V30 2 1 2 3
M  V30 3 2 3 4
M  V30 4 1 4 5
M  V30 5 2 5 6
M  V30 6 1 6 7
M  V30 7 1 7 8
M  V30 8 1 8 9
M  V30 9 1 8 10
M  V30 10 2 10 11
M  V30 11 1 10 12
M  V30 12 1 12 13
M  V30 13 1 13 14
M  V30 14 1 14 15
M  V30 15 1 15 16
M  V30 16 1 14 17
M  V30 17 1 17 18
M  V30 18 1 18 19
M  V30 19 1 19 20
M  V30 20 1 18 21
M  V30 21 1 21 22
M  V30 22 2 22 23
M  V30 23 1 23 24
M  V30 24 2 24 25
M  V30 25 1 25 26
M  V30 26 2 26 27
M  V30 27 1 27 28
M  V30 28 2 28 29
M  V30 29 1 29 30
M  V30 30 1 6 31
M  V30 31 2 31 32
M  V30 32 1 32 3
M  V30 33 1 19 13
M  V30 34 1 25 21
M  V30 35 1 29 24
M  V30 36 1 1 33
M  V30 37 1 1 34
M  V30 38 1 1 35
M  V30 39 1 4 36
M  V30 40 1 5 37
M  V30 41 1 7 38
M  V30 42 1 7 39
M  V30 43 1 8 40 CFG=3
M  V30 44 1 9 41
M  V30 45 1 9 42
M  V30 46 1 12 43
M  V30 47 1 13 44 CFG=1
M  V30 48 1 14 45 CFG=1
M  V30 49 1 15 46
M  V30 50 1 15 47
M  V30 51 1 16 48
M  V30 52 1 18 49 CFG=3
M  V30 53 1 19 50 CFG=1
M  V30 54 1 20 51
M  V30 55 1 22 52
M  V30 56 1 27 53
M  V30 57 1 30 54
M  V30 58 1 30 55
M  V30 59 1 31 56
M  V30 60 1 32 57
M  V30 END BOND
M  V30 END CTAB
M  END
