
     RDKit          3D

  0  0  0  0  0  0  0  0  0  0999 V3000
M  V30 BEGIN CTAB
M  V30 COUNTS 18 17 0 0 0
M  V30 BEGIN ATOM
M  V30 1 N 2.76532 -0.350424 0.730224 0
M  V30 2 C 1.80081 0.106269 -0.249819 0 MASS=13
M  V30 3 C 0.405732 0.0490158 0.384444 0
M  V30 4 C -0.567806 0.531321 -0.66566 0
M  V30 5 C -1.98474 0.532435 -0.190829 0 MASS=13
M  V30 6 N -2.49635 -0.723346 0.207912 0
M  V30 7 H 3.61352 -0.656266 0.195906 0
M  V30 8 H 2.35183 -1.17974 1.20758 0
M  V30 9 H 1.78904 -0.641241 -1.0886 0
M  V30 10 H 2.02203 1.12387 -0.616555 0
M  V30 11 H 0.214349 -0.988862 0.697282 0
M  V30 12 H 0.379309 0.75525 1.24954 0
M  V30 13 H -0.29324 1.60752 -0.865258 0
M  V30 14 H -0.420319 0.00668645 -1.62358 0
M  V30 15 H -2.02963 1.22764 0.695156 0
M  V30 16 H -2.61812 0.984677 -0.958793 0
M  V30 17 H -2.76251 -0.837286 1.18561 0
M  V30 18 H -2.16923 -1.5475 -0.294562 0
M  V30 END ATOM
M  V30 BEGIN BOND
M  V30 1 1 1 2
M  V30 2 1 2 3
M  V30 3 1 3 4
M  V30 4 1 4 5
M  V30 5 1 5 6
M  V30 6 1 1 7
M  V30 7 1 1 8
M  V30 8 1 2 9
M  V30 9 1 2 10
M  V30 10 1 3 11
M  V30 11 1 3 12
M  V30 12 1 4 13
M  V30 13 1 4 14
M  V30 14 1 5 15
M  V30 15 1 5 16
M  V30 16 1 6 17
M  V30 17 1 6 18
M  V30 END BOND
M  V30 END CTAB
M  END
