
     RDKit          3D

  0  0  0  0  0  0  0  0  0  0999 V3000
M  V30 BEGIN CTAB
M  V30 COUNTS 27 28 0 0 0
M  V30 BEGIN ATOM
M  V30 1 N -2.44425 -2.8727 0.568829 0
M  V30 2 C -2.22862 -1.49095 0.36552 0
M  V30 3 N -3.33274 -0.698006 0.305126 0
M  V30 4 C -3.21934 0.600458 0.11818 0
M  V30 5 N -4.37587 1.41466 0.057182 0
M  V30 6 C -1.97316 1.16342 -0.0177282 0
M  V30 7 N -1.82565 2.55507 -0.218796 0
M  V30 8 O -1.58694 3.09135 -1.30976 0
M  V30 9 C -0.80446 0.388947 0.0371022 0
M  V30 10 N 0.456765 0.986002 -0.120683 0
M  V30 11 C 1.73329 0.401347 -0.0832869 0
M  V30 12 C 1.98983 -0.840056 0.402282 0
M  V30 13 C 3.28103 -1.40031 0.403057 0
M  V30 14 C 4.34117 -0.691287 -0.0977956 0
M  V30 15 Br 6.12108 -1.41071 -0.120303 0
M  V30 16 C 4.08614 0.567704 -0.590486 0
M  V30 17 C 2.82977 1.12205 -0.595485 0
M  V30 18 N -1.02414 -0.918507 0.230186 0
M  V30 19 H -3.11732 -3.37567 -0.0701092 0
M  V30 20 H -1.99693 -3.45111 1.29853 0
M  V30 21 H -4.50482 2.03738 -0.741096 0
M  V30 22 H -5.06718 1.35573 0.832555 0
M  V30 23 H 0.418192 2.05848 -0.293992 0
M  V30 24 H 1.22676 -1.45482 0.821636 0
M  V30 25 H 3.46297 -2.39013 0.793909 0
M  V30 26 H 4.91957 1.13011 -0.986077 0
M  V30 27 H 2.63485 2.12153 -0.988498 0
M  V30 END ATOM
M  V30 BEGIN BOND
M  V30 1 1 1 2
M  V30 2 2 2 3
M  V30 3 1 3 4
M  V30 4 1 4 5
M  V30 5 2 4 6
M  V30 6 1 6 7
M  V30 7 2 7 8
M  V30 8 1 6 9
M  V30 9 1 9 10
M  V30 10 1 10 11
M  V30 11 2 11 12
M  V30 12 1 12 13
M  V30 13 2 13 14
M  V30 14 1 14 15
M  V30 15 1 14 16
M  V30 16 2 16 17
M  V30 17 2 9 18
M  V30 18 1 18 2
M  V30 19 1 17 11
M  V30 20 1 1 19
M  V30 21 1 1 20
M  V30 22 1 5 21
M  V30 23 1 5 22
M  V30 24 1 10 23
M  V30 25 1 12 24
M  V30 26 1 13 25
M  V30 27 1 16 26
M  V30 28 1 17 27
M  V30 END BOND
M  V30 END CTAB
M  END
