
     RDKit          3D

  0  0  0  0  0  0  0  0  0  0999 V3000
M  V30 BEGIN CTAB
M  V30 COUNTS 50 49 0 0 0
M  V30 BEGIN ATOM
M  V30 1 N 5.90589 1.13147 1.0334 0
M  V30 2 C 6.1296 1.65872 -0.254777 0
M  V30 3 C 5.18226 1.20904 -1.31226 0
M  V30 4 O 3.90407 1.50377 -1.11943 0
M  V30 5 C 3.22273 0.981068 -0.105685 0
M  V30 6 C 3.18487 -0.555925 -0.225531 0
M  V30 7 O 2.59176 -0.916196 -1.38179 0
M  V30 8 C 1.32151 -0.566878 -1.67072 0
M  V30 9 C 0.21601 -1.07843 -0.822562 0
M  V30 10 C -1.07072 -0.36504 -1.37229 0
M  V30 11 O -2.10745 -0.921613 -0.671259 0
M  V30 12 C -3.34255 -0.454434 -1.05102 0
M  V30 13 C -3.45018 1.02023 -0.839287 0
M  V30 14 O -4.67176 1.50782 -1.20658 0
M  V30 15 C -5.7014 0.943243 -0.506483 0
M  V30 16 C -5.52473 1.1756 0.980581 0
M  V30 17 N -6.67123 0.543885 1.6584 0
M  V30 18 O 0.223274 -0.776227 0.506825 0
M  V30 19 C -0.0308217 -1.9321 1.24935 0
M  V30 20 C -0.0373793 -1.6652 2.70515 0
M  V30 21 O 0.186004 -0.401028 3.25115 0
M  V30 22 O -0.257687 -2.64411 3.46332 0
M  V30 23 H 6.17528 1.72406 1.82598 0
M  V30 24 H 6.0354 0.122773 1.14829 0
M  V30 25 H 6.1185 2.78239 -0.174968 0
M  V30 26 H 7.16564 1.45183 -0.64773 0
M  V30 27 H 5.39449 0.108642 -1.4796 0
M  V30 28 H 5.47858 1.65976 -2.32568 0
M  V30 29 H 3.48465 1.23166 0.927114 0
M  V30 30 H 2.11907 1.27565 -0.233082 0
M  V30 31 H 4.2285 -0.972812 -0.248502 0
M  V30 32 H 2.75734 -0.896081 0.718578 0
M  V30 33 H 1.21042 0.548597 -1.86112 0
M  V30 34 H 1.10386 -1.00106 -2.71607 0
M  V30 35 H 0.0601703 -2.17334 -0.969534 0
M  V30 36 H -1.12314 -0.48547 -2.46936 0
M  V30 37 H -0.940525 0.729576 -1.14418 0
M  V30 38 H -3.60158 -0.725304 -2.1034 0
M  V30 39 H -4.07811 -1.008 -0.399916 0
M  V30 40 H -2.66746 1.51865 -1.49388 0
M  V30 41 H -3.13431 1.24816 0.202236 0
M  V30 42 H -5.80016 -0.128065 -0.718277 0
M  V30 43 H -6.65313 1.43759 -0.862446 0
M  V30 44 H -4.65354 0.563383 1.32031 0
M  V30 45 H -5.40599 2.22676 1.23662 0
M  V30 46 H -6.55918 -0.467608 1.53667 0
M  V30 47 H -6.56522 0.773641 2.66455 0
M  V30 48 H 0.785927 -2.67463 1.01559 0
M  V30 49 H -0.978439 -2.38316 0.920328 0
M  V30 50 H 0.840898 -0.249882 4.02297 0
M  V30 END ATOM
M  V30 BEGIN BOND
M  V30 1 1 1 2
M  V30 2 1 2 3
M  V30 3 1 3 4
M  V30 4 1 4 5
M  V30 5 1 5 6
M  V30 6 1 6 7
M  V30 7 1 7 8
M  V30 8 1 8 9
M  V30 9 1 9 10
M  V30 10 1 10 11
M  V30 11 1 11 12
M  V30 12 1 12 13
M  V30 13 1 13 14
M  V30 14 1 14 15
M  V30 15 1 15 16
M  V30 16 1 16 17
M  V30 17 1 9 18
M  V30 18 1 18 19
M  V30 19 1 19 20
M  V30 20 1 20 21
M  V30 21 2 20 22
M  V30 22 1 1 23
M  V30 23 1 1 24
M  V30 24 1 2 25
M  V30 25 1 2 26
M  V30 26 1 3 27
M  V30 27 1 3 28
M  V30 28 1 5 29
M  V30 29 1 5 30
M  V30 30 1 6 31
M  V30 31 1 6 32
M  V30 32 1 8 33
M  V30 33 1 8 34
M  V30 34 1 9 35
M  V30 35 1 10 36
M  V30 36 1 10 37
M  V30 37 1 12 38
M  V30 38 1 12 39
M  V30 39 1 13 40
M  V30 40 1 13 41
M  V30 41 1 15 42
M  V30 42 1 15 43
M  V30 43 1 16 44
M  V30 44 1 16 45
M  V30 45 1 17 46
M  V30 46 1 17 47
M  V30 47 1 19 48
M  V30 48 1 19 49
M  V30 49 1 21 50
M  V30 END BOND
M  V30 END CTAB
M  END
