
     RDKit          3D

  0  0  0  0  0  0  0  0  0  0999 V3000
M  V30 BEGIN CTAB
M  V30 COUNTS 77 78 0 0 0
M  V30 BEGIN ATOM
M  V30 1 C 3.80162 -0.354606 -0.286248 0 CFG=1
M  V30 2 N 3.89085 -0.0652952 1.11214 0
M  V30 3 C 3.90778 -1.85003 -0.541538 0
M  V30 4 C 5.24992 -2.2418 -0.011019 0
M  V30 5 C 6.29184 -2.18082 -0.916295 0
M  V30 6 C 7.54698 -2.50817 -0.513304 0
M  V30 7 C 7.73669 -2.89849 0.817036 0
M  V30 8 O 9.01345 -3.24228 1.27052 0
M  V30 9 C 6.6925 -2.95618 1.70922 0
M  V30 10 C 5.40288 -2.62104 1.29965 0
M  V30 11 C 2.60102 0.161692 -0.938123 0
M  V30 12 O 2.3666 -0.0926897 -2.14063 0
M  V30 13 N 1.65906 0.972075 -0.22415 0
M  V30 14 C 0.481605 1.4761 -0.868941 0 CFG=2
M  V30 15 C 0.233145 2.90596 -0.591054 0
M  V30 16 C 1.24212 3.87707 -1.00815 0
M  V30 17 C 2.60763 3.85323 -0.442838 0
M  V30 18 N 2.67892 4.02164 0.998412 0
M  V30 19 C 2.32944 5.27352 1.55061 0
M  V30 20 N 0.995301 5.47971 1.98823 0
M  V30 21 N 3.19927 6.21587 1.65804 0
M  V30 22 C -0.656287 0.642865 -0.315348 0
M  V30 23 O -0.531408 -0.0581203 0.719388 0
M  V30 24 N -1.8891 0.657067 -0.991315 0
M  V30 25 C -3.05185 -0.131842 -0.480511 0 CFG=1
M  V30 26 C -4.25052 0.716456 -0.8158 0
M  V30 27 C -5.57399 0.221839 -0.459887 0
M  V30 28 C -6.17645 0.424102 0.7696 0
M  V30 29 C -7.45738 -0.0190578 1.02783 0
M  V30 30 C -8.2093 -0.684953 0.0846273 0
M  V30 31 C -7.62943 -0.900372 -1.15342 0
M  V30 32 C -6.35125 -0.458376 -1.41031 0
M  V30 33 C -3.03624 -1.45218 -1.16142 0
M  V30 34 O -2.93403 -1.44688 -2.44039 0
M  V30 35 N -3.11166 -2.69705 -0.512396 0
M  V30 36 C -3.128 -3.93209 -1.31514 0
M  V30 37 C -3.13487 -2.84397 0.909023 0
M  V30 38 C -4.46682 -2.9553 1.52372 0
M  V30 39 O -5.6515 -3.16645 0.852235 0
M  V30 40 O -4.55497 -2.85513 2.78258 0
M  V30 41 H 4.68286 0.148317 -0.76258 0
M  V30 42 H 4.86306 -0.0164808 1.42967 0
M  V30 43 H 3.23881 -0.632067 1.66528 0
M  V30 44 H 3.85902 -1.97995 -1.64548 0
M  V30 45 H 3.10062 -2.36278 -0.0087244 0
M  V30 46 H 6.15035 -1.87705 -1.95604 0
M  V30 47 H 8.39691 -2.4714 -1.19943 0
M  V30 48 H 9.78863 -3.19951 0.611351 0
M  V30 49 H 6.79201 -3.25146 2.74689 0
M  V30 50 H 4.5656 -2.65483 1.96592 0
M  V30 51 H 1.81909 1.18859 0.77745 0
M  V30 52 H 0.487579 1.29356 -1.96737 0
M  V30 53 H -0.0893242 3.05394 0.490817 0
M  V30 54 H -0.73131 3.17877 -1.1539 0
M  V30 55 H 0.851697 4.93797 -0.849446 0
M  V30 56 H 1.36274 3.83544 -2.14637 0
M  V30 57 H 3.28748 3.07565 -0.780706 0
M  V30 58 H 3.11533 4.81658 -0.845815 0
M  V30 59 H 2.97607 3.26258 1.64055 0
M  V30 60 H 0.757145 5.15566 2.94147 0
M  V30 61 H 0.349787 5.9455 1.31585 0
M  V30 62 H 2.98368 7.14592 2.0563 0
M  V30 63 H -1.9985 1.21274 -1.8568 0
M  V30 64 H -2.89137 -0.265923 0.575454 0
M  V30 65 H -4.06468 1.76262 -0.412316 0
M  V30 66 H -4.25128 0.91441 -1.94185 0
M  V30 67 H -5.57527 0.949876 1.50728 0
M  V30 68 H -7.90554 0.149885 1.99458 0
M  V30 69 H -9.21308 -1.03817 0.266754 0
M  V30 70 H -8.22928 -1.42348 -1.8906 0
M  V30 71 H -5.88927 -0.625562 -2.37842 0
M  V30 72 H -3.90979 -4.64373 -0.927673 0
M  V30 73 H -2.15883 -4.44025 -1.18912 0
M  V30 74 H -3.29876 -3.66712 -2.36998 0
M  V30 75 H -2.56319 -2.04104 1.43557 0
M  V30 76 H -2.50968 -3.77201 1.14617 0
M  V30 77 H -6.28285 -3.95121 1.04083 0
M  V30 END ATOM
M  V30 BEGIN BOND
M  V30 1 1 1 2
M  V30 2 1 1 3
M  V30 3 1 3 4
M  V30 4 2 4 5
M  V30 5 1 5 6
M  V30 6 2 6 7
M  V30 7 1 7 8
M  V30 8 1 7 9
M  V30 9 2 9 10
M  V30 10 1 1 11
M  V30 11 2 11 12
M  V30 12 1 11 13
M  V30 13 1 13 14
M  V30 14 1 14 15
M  V30 15 1 15 16
M  V30 16 1 16 17
M  V30 17 1 17 18
M  V30 18 1 18 19
M  V30 19 1 19 20
M  V30 20 2 19 21 CFG=2
M  V30 21 1 14 22
M  V30 22 2 22 23
M  V30 23 1 22 24
M  V30 24 1 24 25
M  V30 25 1 25 26
M  V30 26 1 26 27
M  V30 27 2 27 28
M  V30 28 1 28 29
M  V30 29 2 29 30
M  V30 30 1 30 31
M  V30 31 2 31 32
M  V30 32 1 25 33
M  V30 33 2 33 34
M  V30 34 1 33 35
M  V30 35 1 35 36
M  V30 36 1 35 37
M  V30 37 1 37 38
M  V30 38 1 38 39
M  V30 39 2 38 40
M  V30 40 1 10 4
M  V30 41 1 32 27
M  V30 42 1 1 41 CFG=3
M  V30 43 1 2 42
M  V30 44 1 2 43
M  V30 45 1 3 44
M  V30 46 1 3 45
M  V30 47 1 5 46
M  V30 48 1 6 47
M  V30 49 1 8 48
M  V30 50 1 9 49
M  V30 51 1 10 50
M  V30 52 1 13 51
M  V30 53 1 14 52 CFG=3
M  V30 54 1 15 53
M  V30 55 1 15 54
M  V30 56 1 16 55
M  V30 57 1 16 56
M  V30 58 1 17 57
M  V30 59 1 17 58
M  V30 60 1 18 59
M  V30 61 1 20 60
M  V30 62 1 20 61
M  V30 63 1 21 62
M  V30 64 1 24 63
M  V30 65 1 25 64 CFG=1
M  V30 66 1 26 65
M  V30 67 1 26 66
M  V30 68 1 28 67
M  V30 69 1 29 68
M  V30 70 1 30 69
M  V30 71 1 31 70
M  V30 72 1 32 71
M  V30 73 1 36 72
M  V30 74 1 36 73
M  V30 75 1 36 74
M  V30 76 1 37 75
M  V30 77 1 37 76
M  V30 78 1 39 77
M  V30 END BOND
M  V30 END CTAB
M  END
