
     RDKit          3D

  0  0  0  0  0  0  0  0  0  0999 V3000
M  V30 BEGIN CTAB
M  V30 COUNTS 21 22 0 0 0
M  V30 BEGIN ATOM
M  V30 1 N -1.42261 -1.46763 -0.723179 0
M  V30 2 C -0.81515 -0.287162 -0.183785 0
M  V30 3 C -1.59346 0.185086 1.06524 0
M  V30 4 C -2.5432 0.804508 0.058386 0
M  V30 5 C -1.3319 0.954261 -0.862518 0
M  V30 6 C 0.647289 -0.345109 0.0687769 0
M  V30 7 O 1.16633 -1.20142 0.922048 0
M  V30 8 N 2.44562 -1.04047 0.954945 0
M  V30 9 C 2.79621 -0.0519689 0.106769 0
M  V30 10 N 1.63968 0.366066 -0.437483 0
M  V30 11 N 4.11539 0.369777 -0.0808605 0
M  V30 12 H -2.03355 -1.98892 -0.0995285 0
M  V30 13 H -0.794843 -2.0283 -1.3501 0
M  V30 14 H -0.968786 0.890165 1.61717 0
M  V30 15 H -2.03072 -0.645997 1.66738 0
M  V30 16 H -3.01122 1.74251 0.351194 0
M  V30 17 H -3.24293 0.00179095 -0.29615 0
M  V30 18 H -0.76726 1.85469 -0.547466 0
M  V30 19 H -1.55183 0.841278 -1.9194 0
M  V30 20 H 4.92662 -0.308475 -0.0287739 0
M  V30 21 H 4.37032 1.35532 -0.282677 0
M  V30 END ATOM
M  V30 BEGIN BOND
M  V30 1 1 1 2
M  V30 2 1 2 3
M  V30 3 1 3 4
M  V30 4 1 4 5
M  V30 5 1 2 6
M  V30 6 1 6 7
M  V30 7 1 7 8
M  V30 8 2 8 9
M  V30 9 1 9 10
M  V30 10 1 9 11
M  V30 11 1 5 2
M  V30 12 2 10 6
M  V30 13 1 1 12
M  V30 14 1 1 13
M  V30 15 1 3 14
M  V30 16 1 3 15
M  V30 17 1 4 16
M  V30 18 1 4 17
M  V30 19 1 5 18
M  V30 20 1 5 19
M  V30 21 1 11 20
M  V30 22 1 11 21
M  V30 END BOND
M  V30 END CTAB
M  END
