
     RDKit          3D

  0  0  0  0  0  0  0  0  0  0999 V3000
M  V30 BEGIN CTAB
M  V30 COUNTS 46 49 0 0 0
M  V30 BEGIN ATOM
M  V30 1 N 1.79825 3.91784 -2.86355 0
M  V30 2 C 1.27152 3.04119 -1.86465 0
M  V30 3 C 1.89278 1.86861 -1.52514 0
M  V30 4 C 1.37234 1.00774 -0.54225 0
M  V30 5 C 2.11071 -0.208078 -0.232146 0
M  V30 6 C 1.9926 -1.34427 -0.993193 0
M  V30 7 C 2.72218 -2.46385 -0.681234 0
M  V30 8 C 3.58323 -2.48385 0.388734 0
M  V30 9 C 3.70974 -1.35382 1.1569 0
M  V30 10 C 2.97453 -0.232835 0.838417 0
M  V30 11 C 0.209137 1.31359 0.120297 0
M  V30 12 C -0.40352 2.50792 -0.239792 0
M  V30 13 C 0.0953533 3.35496 -1.19664 0
M  V30 14 C -0.375084 0.46958 1.1482 0
M  V30 15 C -1.41314 -0.412978 0.928348 0
M  V30 16 C -1.89168 -1.18347 2.00281 0
M  V30 17 C -1.37846 -1.10409 3.27089 0
M  V30 18 N -1.8997 -1.91142 4.33633 0
M  V30 19 C -0.343895 -0.221929 3.48779 0
M  V30 20 C 0.129201 0.529718 2.45725 0
M  V30 21 C -2.07099 -0.573779 -0.362979 0
M  V30 22 C -2.965 0.380369 -0.787411 0
M  V30 23 C -3.58887 0.214485 -2.00783 0
M  V30 24 C -3.33085 -0.885187 -2.80071 0
M  V30 25 C -2.42676 -1.83456 -2.35384 0
M  V30 26 C -1.80114 -1.67546 -1.13819 0
M  V30 27 H 2.25394 3.48969 -3.68574 0
M  V30 28 H 1.73937 4.94556 -2.79212 0
M  V30 29 H 2.80929 1.61773 -2.04097 0
M  V30 30 H 1.30196 -1.30375 -1.83788 0
M  V30 31 H 2.60808 -3.33899 -1.29705 0
M  V30 32 H 4.14985 -3.39969 0.605561 0
M  V30 33 H 4.39558 -1.39812 1.99459 0
M  V30 34 H 3.09419 0.665805 1.46541 0
M  V30 35 H -1.32266 2.80948 0.254389 0
M  V30 36 H -0.392706 4.29022 -1.47277 0
M  V30 37 H -2.70987 -1.87303 1.80785 0
M  V30 38 H -1.29472 -2.60492 4.81018 0
M  V30 39 H -2.89024 -1.83099 4.66765 0
M  V30 40 H 0.0678515 -0.152356 4.48782 0
M  V30 41 H 0.929126 1.23291 2.61803 0
M  V30 42 H -3.23096 1.26589 -0.221463 0
M  V30 43 H -4.30302 0.985353 -2.33775 0
M  V30 44 H -3.85295 -0.951327 -3.74147 0
M  V30 45 H -2.22813 -2.70391 -2.99046 0
M  V30 46 H -1.09648 -2.46201 -0.840201 0
M  V30 END ATOM
M  V30 BEGIN BOND
M  V30 1 1 1 2
M  V30 2 2 2 3
M  V30 3 1 3 4
M  V30 4 1 4 5
M  V30 5 2 5 6
M  V30 6 1 6 7
M  V30 7 2 7 8
M  V30 8 1 8 9
M  V30 9 2 9 10
M  V30 10 2 4 11
M  V30 11 1 11 12
M  V30 12 2 12 13
M  V30 13 1 11 14
M  V30 14 1 14 15
M  V30 15 2 15 16
M  V30 16 1 16 17
M  V30 17 1 17 18
M  V30 18 2 17 19
M  V30 19 1 19 20
M  V30 20 1 15 21
M  V30 21 2 21 22
M  V30 22 1 22 23
M  V30 23 2 23 24
M  V30 24 1 24 25
M  V30 25 2 25 26
M  V30 26 1 13 2
M  V30 27 2 20 14
M  V30 28 1 26 21
M  V30 29 1 10 5
M  V30 30 1 1 27
M  V30 31 1 1 28
M  V30 32 1 3 29
M  V30 33 1 6 30
M  V30 34 1 7 31
M  V30 35 1 8 32
M  V30 36 1 9 33
M  V30 37 1 10 34
M  V30 38 1 12 35
M  V30 39 1 13 36
M  V30 40 1 16 37
M  V30 41 1 18 38
M  V30 42 1 18 39
M  V30 43 1 19 40
M  V30 44 1 20 41
M  V30 45 1 22 42
M  V30 46 1 23 43
M  V30 47 1 24 44
M  V30 48 1 25 45
M  V30 49 1 26 46
M  V30 END BOND
M  V30 END CTAB
M  END
