
     RDKit          3D

  0  0  0  0  0  0  0  0  0  0999 V3000
M  V30 BEGIN CTAB
M  V30 COUNTS 137 141 0 0 0
M  V30 BEGIN ATOM
M  V30 1 N -9.684 -3.73466 1.09644 0
M  V30 2 C -9.8208 -3.44831 -0.276895 0 CFG=1
M  V30 3 C -11.2691 -3.60967 -0.699992 0
M  V30 4 C -11.7077 -5.01644 -0.462967 0
M  V30 5 O -12.8917 -5.54372 -0.96725 0
M  V30 6 O -10.9691 -5.75778 0.213154 0
M  V30 7 C -9.31438 -2.10202 -0.641125 0
M  V30 8 O -9.84837 -1.54563 -1.65871 0
M  V30 9 N -8.32014 -1.45394 0.0504938 0
M  V30 10 C -7.77814 -0.156403 -0.191834 0 CFG=1
M  V30 11 C -8.01795 0.75656 0.92318 0
M  V30 12 C -7.55921 2.16444 0.64257 0
M  V30 13 C -8.14266 3.02483 1.78498 0
M  V30 14 N -9.57758 2.79365 1.74665 0
M  V30 15 C -10.3958 3.18782 0.694274 0
M  V30 16 N -11.3864 2.27171 0.189412 0
M  V30 17 N -10.3307 4.3238 0.114395 0
M  V30 18 C -6.45266 -0.165503 -0.786967 0
M  V30 19 O -6.36994 -0.0345961 -2.06386 0
M  V30 20 N -5.22392 -0.324927 -0.111334 0
M  V30 21 C -3.88261 -0.348185 -0.527035 0 CFG=1
M  V30 22 C -3.31468 -1.75691 -0.399487 0
M  V30 23 C -2.69581 -2.05753 0.918864 0
M  V30 24 S -1.87042 -3.69265 0.733205 0
M  V30 25 S 0.119376 -3.35125 0.205721 0
M  V30 26 C 0.44468 -3.04567 -1.51491 0
M  V30 27 C 0.934849 -1.6978 -1.89192 0
M  V30 28 C 0.924862 -0.691134 -0.737625 0 CFG=2
M  V30 29 N 0.438524 0.579029 -1.20755 0
M  V30 30 C -0.7246 1.35323 -1.20539 0
M  V30 31 O -1.077 1.72078 -0.0163914 0
M  V30 32 C -1.63679 1.85258 -2.22072 0 CFG=2
M  V30 33 C -1.91222 3.36542 -2.10646 0
M  V30 34 C -2.64131 3.92147 -1.0207 0
M  V30 35 C -2.23908 4.32605 0.204228 0
M  V30 36 C -3.06188 4.89201 1.17303 0
M  V30 37 C -4.39737 5.08326 0.917706 0
M  V30 38 O -5.23525 5.64596 1.85915 0
M  V30 39 C -4.87287 4.69395 -0.32051 0
M  V30 40 C -4.04739 4.14181 -1.24121 0
M  V30 41 N -2.94417 1.25498 -2.34822 0
M  V30 42 C -3.53844 0.102657 -1.90468 0
M  V30 43 O -3.88209 -0.785329 -2.79913 0
M  V30 44 C 2.30136 -0.481203 -0.190041 0
M  V30 45 O 2.75482 0.73451 -0.475491 0
M  V30 46 N 3.17098 -1.23406 0.516927 0
M  V30 47 C 4.52483 -0.703027 0.940292 0 CFG=1
M  V30 48 C 4.6013 -0.754451 2.42407 0
M  V30 49 C 4.51507 -2.12681 3.00009 0
M  V30 50 C 3.39674 -2.86561 3.36389 0
M  V30 51 N 3.70569 -4.04506 3.86424 0
M  V30 52 C 5.06639 -4.09641 3.83402 0
M  V30 53 N 5.56499 -2.95414 3.31825 0
M  V30 54 C 5.5647 -1.43431 0.253942 0
M  V30 55 O 5.06088 -2.36192 -0.560676 0
M  V30 56 N 6.96629 -1.42119 0.21691 0
M  V30 57 C 7.71817 -2.30463 -0.681182 0
M  V30 58 C 9.00722 -2.55576 0.00101852 0
M  V30 59 C 9.00345 -1.72824 1.2445 0
M  V30 60 C 7.88341 -0.674228 0.981975 0 CFG=1
M  V30 61 C 8.55028 0.491618 0.44065 0
M  V30 62 O 8.6838 1.50663 1.23886 0
M  V30 63 N 9.10103 0.718156 -0.842573 0
M  V30 64 C 9.71377 2.0318 -1.14178 0 CFG=1
M  V30 65 C 11.1122 1.83137 -1.64061 0
M  V30 66 C 12.0398 1.15076 -0.740416 0
M  V30 67 C 12.8188 1.86096 0.145851 0
M  V30 68 C 13.7 1.16447 0.971881 0
M  V30 69 C 13.7812 -0.20293 0.891918 0
M  V30 70 C 13.0044 -0.938831 0.0075273 0
M  V30 71 C 12.1446 -0.234108 -0.796297 0
M  V30 72 C 8.92721 2.65907 -2.25621 0
M  V30 73 O 9.18561 3.9649 -2.6483 0
M  V30 74 O 8.0462 1.99209 -2.82159 0
M  V30 75 H -8.78886 -3.49352 1.47081 0
M  V30 76 H -10.4575 -3.28468 1.63422 0
M  V30 77 H -9.20829 -4.22348 -0.860284 0
M  V30 78 H -11.4425 -3.28868 -1.72132 0
M  V30 79 H -11.9608 -2.98023 -0.0499025 0
M  V30 80 H -13.6804 -5.04041 -1.25967 0
M  V30 81 H -7.85732 -1.95365 0.886729 0
M  V30 82 H -8.46252 0.243847 -1.07819 0
M  V30 83 H -7.4262 0.445993 1.85683 0
M  V30 84 H -9.05626 0.798936 1.28279 0
M  V30 85 H -6.44046 2.23512 0.737286 0
M  V30 86 H -7.81146 2.54129 -0.337729 0
M  V30 87 H -7.68383 2.73267 2.73903 0
M  V30 88 H -7.92659 4.07056 1.58066 0
M  V30 89 H -9.98144 2.29049 2.56999 0
M  V30 90 H -11.4094 2.02107 -0.809793 0
M  V30 91 H -12.0574 1.87087 0.850874 0
M  V30 92 H -9.65523 5.06853 0.380086 0
M  V30 93 H -5.3573 -0.489665 0.971702 0
M  V30 94 H -3.29464 0.367359 0.14505 0
M  V30 95 H -2.55068 -1.90384 -1.24054 0
M  V30 96 H -4.06797 -2.53452 -0.633415 0
M  V30 97 H -1.91704 -1.26818 1.09948 0
M  V30 98 H -3.40323 -2.03467 1.74356 0
M  V30 99 H 1.24781 -3.79351 -1.82673 0
M  V30 100 H -0.4456 -3.40288 -2.10489 0
M  V30 101 H 1.93052 -1.71284 -2.40704 0
M  V30 102 H 0.231937 -1.3003 -2.6537 0
M  V30 103 H 0.391765 -1.21056 0.0502112 0
M  V30 104 H 1.32801 1.07671 -1.67149 0
M  V30 105 H -1.2615 1.78765 -3.30942 0
M  V30 106 H -0.832617 3.80469 -2.1526 0
M  V30 107 H -2.32663 3.74651 -3.08664 0
M  V30 108 H -1.21439 4.27518 0.488348 0
M  V30 109 H -2.67169 5.17012 2.15067 0
M  V30 110 H -4.90815 5.91664 2.76317 0
M  V30 111 H -5.94143 4.85687 -0.515818 0
M  V30 112 H -4.47124 3.87353 -2.187 0
M  V30 113 H -3.58318 1.86319 -2.98373 0
M  V30 114 H 3.00517 -2.19323 0.832269 0
M  V30 115 H 4.58331 0.357972 0.590788 0
M  V30 116 H 5.48106 -0.229882 2.79629 0
M  V30 117 H 3.74215 -0.132233 2.87632 0
M  V30 118 H 2.39768 -2.47061 3.22575 0
M  V30 119 H 5.63871 -4.94448 4.19183 0
M  V30 120 H 6.55728 -2.71599 3.18116 0
M  V30 121 H 7.79505 -1.88736 -1.70728 0
M  V30 122 H 7.13276 -3.2838 -0.732342 0
M  V30 123 H 9.08047 -3.62597 0.337294 0
M  V30 124 H 9.8849 -2.36874 -0.670125 0
M  V30 125 H 8.79693 -2.27819 2.17401 0
M  V30 126 H 9.94139 -1.18153 1.38491 0
M  V30 127 H 7.49438 -0.443544 2.02215 0
M  V30 128 H 9.08259 -0.0221776 -1.56287 0
M  V30 129 H 9.68912 2.69937 -0.274045 0
M  V30 130 H 11.5244 2.85519 -1.89127 0
M  V30 131 H 11.0803 1.28734 -2.6239 0
M  V30 132 H 12.7362 2.93543 0.188879 0
M  V30 133 H 14.2978 1.73507 1.64526 0
M  V30 134 H 14.449 -0.756709 1.529 0
M  V30 135 H 13.0793 -2.00852 -0.0382899 0
M  V30 136 H 11.5222 -0.771974 -1.50611 0
M  V30 137 H 9.98858 4.17701 -3.22417 0
M  V30 END ATOM
M  V30 BEGIN BOND
M  V30 1 1 1 2
M  V30 2 1 2 3
M  V30 3 1 3 4
M  V30 4 1 4 5
M  V30 5 2 4 6
M  V30 6 1 2 7
M  V30 7 2 7 8
M  V30 8 1 7 9
M  V30 9 1 9 10
M  V30 10 1 10 11
M  V30 11 1 11 12
M  V30 12 1 12 13
M  V30 13 1 13 14
M  V30 14 1 14 15
M  V30 15 1 15 16
M  V30 16 2 15 17 CFG=2
M  V30 17 1 10 18
M  V30 18 2 18 19
M  V30 19 1 18 20
M  V30 20 1 20 21
M  V30 21 1 21 22
M  V30 22 1 22 23
M  V30 23 1 23 24
M  V30 24 1 24 25
M  V30 25 1 25 26
M  V30 26 1 26 27
M  V30 27 1 27 28
M  V30 28 1 28 29
M  V30 29 1 29 30
M  V30 30 2 30 31
M  V30 31 1 30 32
M  V30 32 1 32 33
M  V30 33 1 33 34
M  V30 34 2 34 35
M  V30 35 1 35 36
M  V30 36 2 36 37
M  V30 37 1 37 38
M  V30 38 1 37 39
M  V30 39 2 39 40
M  V30 40 1 32 41
M  V30 41 1 41 42
M  V30 42 2 42 43
M  V30 43 1 28 44
M  V30 44 2 44 45
M  V30 45 1 44 46
M  V30 46 1 46 47
M  V30 47 1 47 48
M  V30 48 1 48 49
M  V30 49 2 49 50
M  V30 50 1 50 51
M  V30 51 2 51 52
M  V30 52 1 52 53
M  V30 53 1 47 54
M  V30 54 2 54 55
M  V30 55 1 54 56
M  V30 56 1 56 57
M  V30 57 1 57 58
M  V30 58 1 58 59
M  V30 59 1 59 60
M  V30 60 1 60 61
M  V30 61 2 61 62
M  V30 62 1 61 63
M  V30 63 1 63 64
M  V30 64 1 64 65
M  V30 65 1 65 66
M  V30 66 2 66 67
M  V30 67 1 67 68
M  V30 68 2 68 69
M  V30 69 1 69 70
M  V30 70 2 70 71
M  V30 71 1 64 72
M  V30 72 1 72 73
M  V30 73 2 72 74
M  V30 74 1 42 21
M  V30 75 1 53 49
M  V30 76 1 60 56
M  V30 77 1 71 66
M  V30 78 1 40 34
M  V30 79 1 1 75
M  V30 80 1 1 76
M  V30 81 1 2 77 CFG=3
M  V30 82 1 3 78
M  V30 83 1 3 79
M  V30 84 1 5 80
M  V30 85 1 9 81
M  V30 86 1 10 82 CFG=3
M  V30 87 1 11 83
M  V30 88 1 11 84
M  V30 89 1 12 85
M  V30 90 1 12 86
M  V30 91 1 13 87
M  V30 92 1 13 88
M  V30 93 1 14 89
M  V30 94 1 16 90
M  V30 95 1 16 91
M  V30 96 1 17 92
M  V30 97 1 20 93
M  V30 98 1 21 94 CFG=1
M  V30 99 1 22 95
M  V30 100 1 22 96
M  V30 101 1 23 97
M  V30 102 1 23 98
M  V30 103 1 26 99
M  V30 104 1 26 100
M  V30 105 1 27 101
M  V30 106 1 27 102
M  V30 107 1 28 103 CFG=1
M  V30 108 1 29 104
M  V30 109 1 32 105 CFG=3
M  V30 110 1 33 106
M  V30 111 1 33 107
M  V30 112 1 35 108
M  V30 113 1 36 109
M  V30 114 1 38 110
M  V30 115 1 39 111
M  V30 116 1 40 112
M  V30 117 1 41 113
M  V30 118 1 46 114
M  V30 119 1 47 115 CFG=3
M  V30 120 1 48 116
M  V30 121 1 48 117
M  V30 122 1 50 118
M  V30 123 1 52 119
M  V30 124 1 53 120
M  V30 125 1 57 121
M  V30 126 1 57 122
M  V30 127 1 58 123
M  V30 128 1 58 124
M  V30 129 1 59 125
M  V30 130 1 59 126
M  V30 131 1 60 127 CFG=1
M  V30 132 1 63 128
M  V30 133 1 64 129 CFG=1
M  V30 134 1 65 130
M  V30 135 1 65 131
M  V30 136 1 67 132
M  V30 137 1 68 133
M  V30 138 1 69 134
M  V30 139 1 70 135
M  V30 140 1 71 136
M  V30 141 1 73 137
M  V30 END BOND
M  V30 END CTAB
M  END
