
     RDKit          3D

  0  0  0  0  0  0  0  0  0  0999 V3000
M  V30 BEGIN CTAB
M  V30 COUNTS 36 37 0 0 0
M  V30 BEGIN ATOM
M  V30 1 C 5.63296 2.17317 0.21445 0
M  V30 2 O 4.66219 1.52703 1.03864 0
M  V30 3 C 3.70943 0.70211 0.438624 0
M  V30 4 C 2.76448 0.0642686 1.17532 0
M  V30 5 C 1.77263 -0.782165 0.641797 0
M  V30 6 S 0.689519 -1.4927 1.80501 0
M  V30 7 S -0.761221 0.031771 2.01914 0
M  V30 8 C -2.00577 -0.454733 0.948208 0
M  V30 9 C -2.33801 -1.75094 0.564831 0
M  V30 10 N -1.54822 -2.80099 1.1027 0
M  V30 11 C -3.40347 -2.02089 -0.265561 0
M  V30 12 C -4.20175 -1.00722 -0.761033 0
M  V30 13 C -3.90011 0.270079 -0.400796 0
M  V30 14 O -4.70751 1.30585 -0.899871 0
M  V30 15 C -4.40959 2.63929 -0.536566 0
M  V30 16 C -2.85064 0.534712 0.416138 0
M  V30 17 C 1.81685 -0.932327 -0.716311 0
M  V30 18 N 0.86729 -1.78103 -1.33756 0
M  V30 19 C 2.77431 -0.291708 -1.50755 0
M  V30 20 C 3.71082 0.517779 -0.930823 0
M  V30 21 H 6.20547 1.39262 -0.365021 0
M  V30 22 H 6.34353 2.74343 0.812263 0
M  V30 23 H 5.07675 2.76099 -0.538679 0
M  V30 24 H 2.81155 0.247921 2.25997 0
M  V30 25 H -1.59107 -2.9599 2.13292 0
M  V30 26 H -0.930881 -3.41707 0.518706 0
M  V30 27 H -3.66239 -3.04248 -0.566953 0
M  V30 28 H -5.03818 -1.20593 -1.41159 0
M  V30 29 H -4.30743 2.78581 0.546875 0
M  V30 30 H -3.47009 3.00673 -1.02691 0
M  V30 31 H -5.25471 3.28852 -0.906705 0
M  V30 32 H -2.66797 1.57681 0.662264 0
M  V30 33 H 0.797843 -2.79758 -1.10731 0
M  V30 34 H 0.183535 -1.42034 -2.0656 0
M  V30 35 H 2.74881 -0.454188 -2.56033 0
M  V30 36 H 4.48104 1.04332 -1.49211 0
M  V30 END ATOM
M  V30 BEGIN BOND
M  V30 1 1 1 2
M  V30 2 1 2 3
M  V30 3 2 3 4
M  V30 4 1 4 5
M  V30 5 1 5 6
M  V30 6 1 6 7
M  V30 7 1 7 8
M  V30 8 2 8 9
M  V30 9 1 9 10
M  V30 10 1 9 11
M  V30 11 2 11 12
M  V30 12 1 12 13
M  V30 13 1 13 14
M  V30 14 1 14 15
M  V30 15 2 13 16
M  V30 16 2 5 17
M  V30 17 1 17 18
M  V30 18 1 17 19
M  V30 19 2 19 20
M  V30 20 1 20 3
M  V30 21 1 16 8
M  V30 22 1 1 21
M  V30 23 1 1 22
M  V30 24 1 1 23
M  V30 25 1 4 24
M  V30 26 1 10 25
M  V30 27 1 10 26
M  V30 28 1 11 27
M  V30 29 1 12 28
M  V30 30 1 15 29
M  V30 31 1 15 30
M  V30 32 1 15 31
M  V30 33 1 16 32
M  V30 34 1 18 33
M  V30 35 1 18 34
M  V30 36 1 19 35
M  V30 37 1 20 36
M  V30 END BOND
M  V30 END CTAB
M  END
