
     RDKit          3D

  0  0  0  0  0  0  0  0  0  0999 V3000
M  V30 BEGIN CTAB
M  V30 COUNTS 32 33 0 0 0
M  V30 BEGIN ATOM
M  V30 1 C -0.83089 -3.15583 -0.498937 0
M  V30 2 O -0.997974 -1.81837 -0.0745988 0
M  V30 3 C -1.98941 -0.986918 -0.55101 0
M  V30 4 O -2.80251 -1.39425 -1.40079 0
M  V30 5 C -2.07777 0.367178 -0.0537398 0
M  V30 6 C -3.09661 1.19868 -0.534421 0
M  V30 7 C -3.21043 2.4924 -0.0786585 0
M  V30 8 N -4.23865 3.37998 -0.543244 0
M  V30 9 C -2.30384 2.94666 0.855699 0
M  V30 10 C -1.2954 2.11062 1.32588 0
M  V30 11 C -1.1754 0.814612 0.874109 0
M  V30 12 S 0.0981983 -0.299117 1.44322 0
M  V30 13 C 1.54158 -0.109323 0.371759 0
M  V30 14 N 1.67569 0.715276 -0.681639 0
M  V30 15 N 2.897 0.555048 -1.20914 0
M  V30 16 C 3.55713 -0.375819 -0.496346 0
M  V30 17 N 2.70895 -0.768845 0.466081 0
M  V30 18 N 3.00572 -1.73178 1.43004 0
M  V30 19 C 4.95649 -0.881007 -0.720637 0
M  V30 20 H -0.753772 -3.78176 0.414088 0
M  V30 21 H -1.74313 -3.4907 -1.03809 0
M  V30 22 H 0.0787386 -3.31256 -1.08898 0
M  V30 23 H -3.813 0.856731 -1.26554 0
M  V30 24 H -4.88738 3.74663 0.1829 0
M  V30 25 H -4.33016 3.64254 -1.55233 0
M  V30 26 H -2.41601 3.96828 1.19745 0
M  V30 27 H -0.590402 2.46676 2.0537 0
M  V30 28 H 3.81936 -2.37486 1.34152 0
M  V30 29 H 2.41908 -1.84778 2.28673 0
M  V30 30 H 5.40535 -1.24095 0.217474 0
M  V30 31 H 5.51378 -0.0302567 -1.16681 0
M  V30 32 H 4.87568 -1.66125 -1.50573 0
M  V30 END ATOM
M  V30 BEGIN BOND
M  V30 1 1 1 2
M  V30 2 1 2 3
M  V30 3 2 3 4
M  V30 4 1 3 5
M  V30 5 2 5 6
M  V30 6 1 6 7
M  V30 7 1 7 8
M  V30 8 2 7 9
M  V30 9 1 9 10
M  V30 10 2 10 11
M  V30 11 1 11 12
M  V30 12 1 12 13
M  V30 13 2 13 14
M  V30 14 1 14 15
M  V30 15 2 15 16
M  V30 16 1 16 17
M  V30 17 1 17 18
M  V30 18 1 16 19
M  V30 19 1 11 5
M  V30 20 1 17 13
M  V30 21 1 1 20
M  V30 22 1 1 21
M  V30 23 1 1 22
M  V30 24 1 6 23
M  V30 25 1 8 24
M  V30 26 1 8 25
M  V30 27 1 9 26
M  V30 28 1 10 27
M  V30 29 1 18 28
M  V30 30 1 18 29
M  V30 31 1 19 30
M  V30 32 1 19 31
M  V30 33 1 19 32
M  V30 END BOND
M  V30 END CTAB
M  END
