
     RDKit          3D

  0  0  0  0  0  0  0  0  0  0999 V3000
M  V30 BEGIN CTAB
M  V30 COUNTS 19 20 0 0 0
M  V30 BEGIN ATOM
M  V30 1 N -2.91062 -2.06665 -0.148873 0
M  V30 2 C -1.81607 -1.14931 -0.0885363 0
M  V30 3 N -0.541167 -1.57982 -0.0753227 0
M  V30 4 C 0.508588 -0.724903 -0.0184035 0
M  V30 5 C 0.299579 0.637234 0.0285968 0
M  V30 6 N 1.34103 1.49623 0.0854659 0
M  V30 7 C 2.61781 1.0702 0.0988811 0
M  V30 8 C 2.81793 -0.294688 0.0515674 0
M  V30 9 O 4.0093 -0.699994 0.063787 0
M  V30 10 N 1.78206 -1.15163 -0.00509346 0
M  V30 11 C -1.01081 1.06805 0.0145711 0
M  V30 12 N -1.23307 2.47225 0.0628873 0
M  V30 13 N -2.01921 0.179507 -0.042668 0
M  V30 14 H -3.5227 -2.10205 -0.974295 0
M  V30 15 H -3.07014 -2.69756 0.666548 0
M  V30 16 H 3.4268 1.79118 0.145102 0
M  V30 17 H 1.9366 -2.19854 -0.0413529 0
M  V30 18 H -0.863547 2.99942 0.88301 0
M  V30 19 H -1.75237 2.95106 -0.705871 0
M  V30 END ATOM
M  V30 BEGIN BOND
M  V30 1 1 1 2
M  V30 2 2 2 3
M  V30 3 1 3 4
M  V30 4 2 4 5
M  V30 5 1 5 6
M  V30 6 2 6 7
M  V30 7 1 7 8
M  V30 8 2 8 9
M  V30 9 1 8 10
M  V30 10 1 5 11
M  V30 11 1 11 12
M  V30 12 2 11 13
M  V30 13 1 13 2
M  V30 14 1 10 4
M  V30 15 1 1 14
M  V30 16 1 1 15
M  V30 17 1 7 16
M  V30 18 1 10 17
M  V30 19 1 12 18
M  V30 20 1 12 19
M  V30 END BOND
M  V30 END CTAB
M  END
