
     RDKit          3D

  0  0  0  0  0  0  0  0  0  0999 V3000
M  V30 BEGIN CTAB
M  V30 COUNTS 28 28 0 0 0
M  V30 BEGIN ATOM
M  V30 1 C -0.0599539 -1.26955 -1.36542 0
M  V30 2 C -0.227859 -0.619601 -0.00513613 0
M  V30 3 C -0.37134 -1.69539 1.00977 0
M  V30 4 C -1.48142 0.225308 -0.0754991 0
M  V30 5 N -1.83542 0.765886 1.20576 0
M  V30 6 C -1.00729 1.37535 -0.951867 0
M  V30 7 C 0.468346 1.50982 -0.706007 0
M  V30 8 C 0.857564 0.348126 0.212732 0
M  V30 9 C 2.22117 -0.11469 -0.251338 0
M  V30 10 N 0.985936 0.877264 1.52721 0
M  V30 11 H 0.707048 -2.07972 -1.35041 0
M  V30 12 H -1.02807 -1.7998 -1.57691 0
M  V30 13 H 0.145032 -0.504625 -2.14493 0
M  V30 14 H -0.539178 -1.36241 2.0375 0
M  V30 15 H 0.464287 -2.41722 0.952906 0
M  V30 16 H -1.28896 -2.29213 0.729353 0
M  V30 17 H -2.28988 -0.359583 -0.546766 0
M  V30 18 H -2.03694 0.0221849 1.89704 0
M  V30 19 H -2.70944 1.31589 1.08642 0
M  V30 20 H -1.21879 1.0935 -2.01687 0
M  V30 21 H -1.56897 2.29003 -0.739295 0
M  V30 22 H 0.636196 2.4846 -0.20716 0
M  V30 23 H 0.98703 1.40771 -1.67135 0
M  V30 24 H 2.12491 -0.617374 -1.23627 0
M  V30 25 H 2.68053 -0.776048 0.516874 0
M  V30 26 H 2.85926 0.790124 -0.414242 0
M  V30 27 H 1.97873 1.05568 1.8048 0
M  V30 28 H 0.547483 0.346648 2.27911 0
M  V30 END ATOM
M  V30 BEGIN BOND
M  V30 1 1 1 2
M  V30 2 1 2 3
M  V30 3 1 2 4
M  V30 4 1 4 5
M  V30 5 1 4 6
M  V30 6 1 6 7
M  V30 7 1 7 8
M  V30 8 1 8 9
M  V30 9 1 8 10
M  V30 10 1 8 2
M  V30 11 1 1 11
M  V30 12 1 1 12
M  V30 13 1 1 13
M  V30 14 1 3 14
M  V30 15 1 3 15
M  V30 16 1 3 16
M  V30 17 1 4 17
M  V30 18 1 5 18
M  V30 19 1 5 19
M  V30 20 1 6 20
M  V30 21 1 6 21
M  V30 22 1 7 22
M  V30 23 1 7 23
M  V30 24 1 9 24
M  V30 25 1 9 25
M  V30 26 1 9 26
M  V30 27 1 10 27
M  V30 28 1 10 28
M  V30 END BOND
M  V30 END CTAB
M  END
