
     RDKit          3D

  0  0  0  0  0  0  0  0  0  0999 V3000
M  V30 BEGIN CTAB
M  V30 COUNTS 16 15 0 0 0
M  V30 BEGIN ATOM
M  V30 1 C -0.991305 0.0469959 0.335432 0 CFG=2
M  V30 2 C -1.50583 -1.11957 -0.482932 0
M  V30 3 N -1.26477 1.2528 -0.350513 0
M  V30 4 C 0.442932 -0.173815 0.635942 0
M  V30 5 O 0.72146 -1.23828 1.24642 0
M  V30 6 N 1.46933 0.708967 0.28849 0
M  V30 7 N 2.79121 0.416947 0.61332 0
M  V30 8 H -1.52296 0.0405418 1.30856 0
M  V30 9 H -1.60707 -0.84267 -1.55134 0
M  V30 10 H -0.782254 -1.95834 -0.416332 0
M  V30 11 H -2.45958 -1.4987 -0.0764161 0
M  V30 12 H -2.21671 1.16045 -0.81639 0
M  V30 13 H -0.5886 1.52146 -1.08155 0
M  V30 14 H 1.25672 1.59124 -0.215178 0
M  V30 15 H 2.87385 -0.595805 0.769489 0
M  V30 16 H 3.38359 0.687782 -0.206992 0
M  V30 END ATOM
M  V30 BEGIN BOND
M  V30 1 1 1 2
M  V30 2 1 1 3
M  V30 3 1 1 4
M  V30 4 2 4 5
M  V30 5 1 4 6
M  V30 6 1 6 7
M  V30 7 1 1 8 CFG=1
M  V30 8 1 2 9
M  V30 9 1 2 10
M  V30 10 1 2 11
M  V30 11 1 3 12
M  V30 12 1 3 13
M  V30 13 1 6 14
M  V30 14 1 7 15
M  V30 15 1 7 16
M  V30 END BOND
M  V30 END CTAB
M  END
