
     RDKit          3D

  0  0  0  0  0  0  0  0  0  0999 V3000
M  V30 BEGIN CTAB
M  V30 COUNTS 12 11 0 0 0
M  V30 BEGIN ATOM
M  V30 1 C -1.66801 -0.472831 -0.158667 0
M  V30 2 C -0.252134 -0.0772354 -0.0259408 0
M  V30 3 N 0.113202 1.2841 -0.136031 0
M  V30 4 N 0.615152 -1.00206 0.189159 0
M  V30 5 N 1.95837 -0.634704 0.315971 0
M  V30 6 H -1.99884 -0.409281 -1.22637 0
M  V30 7 H -1.84167 -1.48639 0.199979 0
M  V30 8 H -2.26057 0.229257 0.489474 0
M  V30 9 H -0.208634 1.92148 0.638969 0
M  V30 10 H 0.671475 1.6049 -0.953836 0
M  V30 11 H 2.57826 -1.06792 1.02216 0
M  V30 12 H 2.2934 0.110675 -0.354869 0
M  V30 END ATOM
M  V30 BEGIN BOND
M  V30 1 1 1 2
M  V30 2 1 2 3
M  V30 3 2 2 4 CFG=2
M  V30 4 1 4 5
M  V30 5 1 1 6
M  V30 6 1 1 7
M  V30 7 1 1 8
M  V30 8 1 3 9
M  V30 9 1 3 10
M  V30 10 1 5 11
M  V30 11 1 5 12
M  V30 END BOND
M  V30 END CTAB
M  END
