
     RDKit          3D

  0  0  0  0  0  0  0  0  0  0999 V3000
M  V30 BEGIN CTAB
M  V30 COUNTS 25 25 0 0 0
M  V30 BEGIN ATOM
M  V30 1 C 1.88278 0.827349 -1.70963 0
M  V30 2 N 1.48202 -0.202994 -0.741078 0
M  V30 3 C 0.194434 -0.050716 -0.184182 0
M  V30 4 C -0.047518 0.354107 1.1113 0
M  V30 5 C -1.32728 0.505353 1.61113 0
M  V30 6 C -2.42577 0.255432 0.82295 0
M  V30 7 C -2.16775 -0.156774 -0.495368 0
M  V30 8 N -0.912997 -0.293213 -0.940665 0
M  V30 9 N -3.30803 -0.402012 -1.30611 0
M  V30 10 N -3.77078 0.394184 1.26502 0
M  V30 11 C 2.43636 -1.23326 -0.484296 0
M  V30 12 C 3.63623 -0.702575 0.215914 0
M  V30 13 C 4.62587 -0.280664 0.763564 0
M  V30 14 H 0.965259 1.24644 -2.21893 0
M  V30 15 H 2.61713 0.42782 -2.43637 0
M  V30 16 H 2.2754 1.66519 -1.10441 0
M  V30 17 H 0.821627 0.556501 1.75487 0
M  V30 18 H -1.49777 0.831657 2.64742 0
M  V30 19 H -3.23752 -0.229748 -2.31968 0
M  V30 20 H -4.18054 -0.74899 -0.863141 0
M  V30 21 H -4.37091 1.14789 0.880345 0
M  V30 22 H -4.14049 -0.261611 1.96975 0
M  V30 23 H 2.85696 -1.64225 -1.45268 0
M  V30 24 H 2.07761 -2.0852 0.10436 0
M  V30 25 H 5.51568 0.0780854 1.23827 0
M  V30 END ATOM
M  V30 BEGIN BOND
M  V30 1 1 1 2
M  V30 2 1 2 3
M  V30 3 2 3 4
M  V30 4 1 4 5
M  V30 5 2 5 6
M  V30 6 1 6 7
M  V30 7 2 7 8
M  V30 8 1 7 9
M  V30 9 1 6 10
M  V30 10 1 2 11
M  V30 11 1 11 12
M  V30 12 3 12 13
M  V30 13 1 8 3
M  V30 14 1 1 14
M  V30 15 1 1 15
M  V30 16 1 1 16
M  V30 17 1 4 17
M  V30 18 1 5 18
M  V30 19 1 9 19
M  V30 20 1 9 20
M  V30 21 1 10 21
M  V30 22 1 10 22
M  V30 23 1 11 23
M  V30 24 1 11 24
M  V30 25 1 13 25
M  V30 END BOND
M  V30 END CTAB
M  END
