
     RDKit          3D

  0  0  0  0  0  0  0  0  0  0999 V3000
M  V30 BEGIN CTAB
M  V30 COUNTS 37 38 0 0 0
M  V30 BEGIN ATOM
M  V30 1 N -6.92607 -1.61411 0.173381 0
M  V30 2 C -6.44849 -0.461319 -0.540573 0
M  V30 3 N -6.7481 -0.417279 -1.79428 0
M  V30 4 N -5.71138 0.509795 0.149801 0
M  V30 5 C -4.29095 0.520446 0.206713 0
M  V30 6 C -3.54445 -0.456832 -0.435608 0
M  V30 7 C -2.17457 -0.425315 -0.366215 0
M  V30 8 C -1.4761 0.540445 0.318687 0
M  V30 9 C -2.23038 1.50423 0.951506 0
M  V30 10 C -3.61731 1.49151 0.894377 0
M  V30 11 C -0.0398563 0.584657 0.399052 0
M  V30 12 O 0.537838 1.49697 1.04318 0
M  V30 13 O 0.79281 -0.351374 -0.212083 0
M  V30 14 C 2.17666 -0.284668 -0.118176 0
M  V30 15 C 2.91714 0.417376 -1.04676 0
M  V30 16 C 4.30356 0.488772 -0.959386 0
M  V30 17 C 4.97151 -0.158898 0.0846216 0
M  V30 18 C 4.23504 -0.86349 1.01751 0
M  V30 19 C 2.84602 -0.917504 0.904241 0
M  V30 20 S 6.71469 -0.0812778 0.212336 0
M  V30 21 N 7.47925 -1.36336 -0.632994 0
M  V30 22 O 7.25173 1.23901 -0.23523 0
M  V30 23 O 7.04468 -0.266204 1.68665 0
M  V30 24 H -6.32536 -2.45035 0.239744 0
M  V30 25 H -7.86095 -1.59565 0.611298 0
M  V30 26 H -6.46108 0.35776 -2.40573 0
M  V30 27 H -6.22005 1.26746 0.650587 0
M  V30 28 H -4.09609 -1.21615 -0.97419 0
M  V30 29 H -1.58338 -1.19854 -0.874392 0
M  V30 30 H -1.75074 2.29568 1.50955 0
M  V30 31 H -4.14256 2.2948 1.42543 0
M  V30 32 H 2.45989 0.937613 -1.87436 0
M  V30 33 H 4.91155 1.02644 -1.66487 0
M  V30 34 H 4.75253 -1.36417 1.82471 0
M  V30 35 H 2.25205 -1.45896 1.61724 0
M  V30 36 H 8.37517 -1.57984 -0.141308 0
M  V30 37 H 7.62577 -1.14324 -1.64446 0
M  V30 END ATOM
M  V30 BEGIN BOND
M  V30 1 1 1 2
M  V30 2 2 2 3 CFG=2
M  V30 3 1 2 4
M  V30 4 1 4 5
M  V30 5 2 5 6
M  V30 6 1 6 7
M  V30 7 2 7 8
M  V30 8 1 8 9
M  V30 9 2 9 10
M  V30 10 1 8 11
M  V30 11 2 11 12
M  V30 12 1 11 13
M  V30 13 1 13 14
M  V30 14 2 14 15
M  V30 15 1 15 16
M  V30 16 2 16 17
M  V30 17 1 17 18
M  V30 18 2 18 19
M  V30 19 1 17 20
M  V30 20 1 20 21
M  V30 21 2 20 22
M  V30 22 2 20 23
M  V30 23 1 10 5
M  V30 24 1 19 14
M  V30 25 1 1 24
M  V30 26 1 1 25
M  V30 27 1 3 26
M  V30 28 1 4 27
M  V30 29 1 6 28
M  V30 30 1 7 29
M  V30 31 1 9 30
M  V30 32 1 10 31
M  V30 33 1 15 32
M  V30 34 1 16 33
M  V30 35 1 18 34
M  V30 36 1 19 35
M  V30 37 1 21 36
M  V30 38 1 21 37
M  V30 END BOND
M  V30 END CTAB
M  END
