
     RDKit          3D

  0  0  0  0  0  0  0  0  0  0999 V3000
M  V30 BEGIN CTAB
M  V30 COUNTS 36 38 0 0 0
M  V30 BEGIN ATOM
M  V30 1 N 3.55354 2.64304 -1.64981 0
M  V30 2 C 3.73258 1.41483 -0.942518 0
M  V30 3 N 2.66511 0.715252 -0.487382 0
M  V30 4 C 2.78289 -0.434571 0.176975 0
M  V30 5 C 1.58505 -1.16909 0.658306 0
M  V30 6 O 0.418222 -0.471105 0.303755 0
M  V30 7 C -0.859696 -0.996987 0.667187 0
M  V30 8 O -0.835099 -2.05408 1.28195 0
M  V30 9 C -2.04636 -0.264384 0.293357 0
M  V30 10 C -1.99664 1.15148 0.409141 0
M  V30 11 C -3.10709 1.89718 0.160255 0
M  V30 12 C -2.99997 3.38821 0.298271 0
M  V30 13 N -4.27545 1.38016 -0.196589 0
M  V30 14 C -4.36404 0.0466485 -0.31996 0
M  V30 15 C -3.2577 -0.780621 -0.0780178 0
M  V30 16 C -3.70299 -2.03734 -0.307031 0
M  V30 17 C -2.96563 -3.30132 -0.257588 0
M  V30 18 N -5.02604 -1.93334 -0.662428 0
M  V30 19 O -5.39289 -0.701781 -0.663017 0
M  V30 20 N 4.02214 -0.912141 0.399702 0
M  V30 21 C 5.12102 -0.264166 -0.0267817 0
M  V30 22 N 4.9456 0.891331 -0.691867 0
M  V30 23 N 6.43767 -0.764423 0.205711 0
M  V30 24 H 3.95107 2.83435 -2.58487 0
M  V30 25 H 2.97177 3.36596 -1.14238 0
M  V30 26 H 1.6368 -1.17132 1.77761 0
M  V30 27 H 1.58109 -2.22026 0.284614 0
M  V30 28 H -1.03774 1.5702 0.700507 0
M  V30 29 H -3.97014 3.85117 0.478803 0
M  V30 30 H -2.33823 3.56105 1.17387 0
M  V30 31 H -2.49554 3.74959 -0.619524 0
M  V30 32 H -2.97311 -3.7209 0.742183 0
M  V30 33 H -2.00426 -3.3132 -0.81041 0
M  V30 34 H -3.58249 -4.04869 -0.866592 0
M  V30 35 H 6.67935 -1.03869 1.17994 0
M  V30 36 H 7.1472 -0.862072 -0.546895 0
M  V30 END ATOM
M  V30 BEGIN BOND
M  V30 1 1 1 2
M  V30 2 2 2 3
M  V30 3 1 3 4
M  V30 4 1 4 5
M  V30 5 1 5 6
M  V30 6 1 6 7
M  V30 7 2 7 8
M  V30 8 1 7 9
M  V30 9 2 9 10
M  V30 10 1 10 11
M  V30 11 1 11 12
M  V30 12 2 11 13
M  V30 13 1 13 14
M  V30 14 2 14 15
M  V30 15 1 15 16
M  V30 16 1 16 17
M  V30 17 2 16 18
M  V30 18 1 18 19
M  V30 19 2 4 20
M  V30 20 1 20 21
M  V30 21 2 21 22
M  V30 22 1 21 23
M  V30 23 1 22 2
M  V30 24 1 15 9
M  V30 25 1 19 14
M  V30 26 1 1 24
M  V30 27 1 1 25
M  V30 28 1 5 26
M  V30 29 1 5 27
M  V30 30 1 10 28
M  V30 31 1 12 29
M  V30 32 1 12 30
M  V30 33 1 12 31
M  V30 34 1 17 32
M  V30 35 1 17 33
M  V30 36 1 17 34
M  V30 37 1 23 35
M  V30 38 1 23 36
M  V30 END BOND
M  V30 END CTAB
M  END
