
     RDKit          3D

  0  0  0  0  0  0  0  0  0  0999 V3000
M  V30 BEGIN CTAB
M  V30 COUNTS 98 99 0 0 0
M  V30 BEGIN ATOM
M  V30 1 C 6.45875 1.03226 0.315575 0 CFG=1
M  V30 2 N 7.43287 1.7282 1.09338 0
M  V30 3 C 7.19196 0.146938 -0.683921 0
M  V30 4 C 8.01989 1.01515 -1.53785 0
M  V30 5 C 7.48942 1.52441 -2.69934 0
M  V30 6 C 8.23717 2.34521 -3.52613 0
M  V30 7 C 9.53193 2.67027 -3.20267 0
M  V30 8 O 10.2699 3.50196 -4.05353 0
M  V30 9 C 10.0798 2.17047 -2.0449 0
M  V30 10 C 9.31459 1.343 -1.21859 0
M  V30 11 C 5.59527 0.13383 1.12861 0
M  V30 12 O 4.71726 -0.49928 0.498417 0
M  V30 13 N 5.72919 -0.0173979 2.51294 0
M  V30 14 C 4.8793 -0.875036 3.26838 0
M  V30 15 C 3.48689 -0.434604 3.28583 0
M  V30 16 O 2.63378 -1.17224 3.88886 0
M  V30 17 N 2.9819 0.735568 2.70553 0
M  V30 18 C 1.58749 1.06623 2.76121 0
M  V30 19 C 0.646365 0.215231 2.03439 0
M  V30 20 O -0.589827 0.556162 2.17665 0
M  V30 21 N 0.998409 -0.889778 1.22144 0
M  V30 22 C 0.0192762 -1.66562 0.476074 0 CFG=1
M  V30 23 C -0.480237 -2.89864 1.0921 0
M  V30 24 C 0.558358 -3.94349 1.37436 0
M  V30 25 C 1.16991 -4.09701 2.57357 0
M  V30 26 C 2.12725 -5.07592 2.77653 0
M  V30 27 C 2.46788 -5.91554 1.735 0
M  V30 28 C 1.86891 -5.7929 0.498002 0
M  V30 29 C 0.922584 -4.80916 0.334051 0
M  V30 30 C -0.97329 -0.816772 -0.227583 0
M  V30 31 O -0.62688 0.352343 -0.501398 0
M  V30 32 N -2.2316 -1.26785 -0.578089 0
M  V30 33 C -3.26414 -0.523264 -1.2642 0 CFG=1
M  V30 34 C -3.58788 -1.0525 -2.60335 0
M  V30 35 C -4.04977 -2.44554 -2.73913 0
M  V30 36 C -4.2824 -2.65896 -4.25407 0
M  V30 37 C -5.32512 -2.84075 -2.10039 0
M  V30 38 C -4.43218 -0.168965 -0.483782 0
M  V30 39 O -4.61255 -0.495018 0.7273 0
M  V30 40 N -5.48624 0.597895 -1.04623 0
M  V30 41 C -6.67155 0.991962 -0.336091 0 CFG=1
M  V30 42 C -6.86613 2.48574 -0.266146 0
M  V30 43 C -5.728 3.19932 0.42748 0
M  V30 44 C -5.96522 4.69648 0.469515 0
M  V30 45 C -7.24352 5.01891 1.22732 0
M  V30 46 N -7.47576 6.45017 1.26717 0
M  V30 47 C -7.84799 0.459128 -1.06978 0
M  V30 48 O -9.12548 0.705074 -0.533056 0
M  V30 49 O -7.80625 -0.194408 -2.13057 0
M  V30 50 H 5.81087 1.74961 -0.203464 0
M  V30 51 H 8.04121 0.99774 1.55907 0
M  V30 52 H 7.00242 2.27586 1.8698 0
M  V30 53 H 7.80967 -0.592607 -0.127277 0
M  V30 54 H 6.47302 -0.418134 -1.32707 0
M  V30 55 H 6.4639 1.26629 -2.95486 0
M  V30 56 H 7.77929 2.72583 -4.43368 0
M  V30 57 H 10.2399 4.49927 -3.90864 0
M  V30 58 H 11.0912 2.4346 -1.80711 0
M  V30 59 H 9.74164 0.9473 -0.306596 0
M  V30 60 H 6.48709 0.520154 3.03396 0
M  V30 61 H 5.21648 -0.95707 4.34234 0
M  V30 62 H 4.94863 -1.93606 2.89506 0
M  V30 63 H 3.63483 1.43116 2.22013 0
M  V30 64 H 1.26458 1.07548 3.85858 0
M  V30 65 H 1.4522 2.15383 2.4803 0
M  V30 66 H 2.02562 -1.16225 1.14972 0
M  V30 67 H 0.716526 -2.07329 -0.402828 0
M  V30 68 H -0.985255 -2.71586 2.08772 0
M  V30 69 H -1.21472 -3.43514 0.433659 0
M  V30 70 H 0.898127 -3.42948 3.40918 0
M  V30 71 H 2.61091 -5.18249 3.75787 0
M  V30 72 H 3.21641 -6.67731 1.90217 0
M  V30 73 H 2.13134 -6.45138 -0.333149 0
M  V30 74 H 0.429136 -4.68316 -0.627848 0
M  V30 75 H -2.50462 -2.25419 -0.333266 0
M  V30 76 H -2.75031 0.481683 -1.46217 0
M  V30 77 H -2.66141 -0.959927 -3.25573 0
M  V30 78 H -4.32298 -0.398703 -3.12233 0
M  V30 79 H -3.20949 -3.17094 -2.52936 0
M  V30 80 H -3.61308 -2.02284 -4.82954 0
M  V30 81 H -5.32286 -2.3406 -4.46598 0
M  V30 82 H -4.19421 -3.74526 -4.48884 0
M  V30 83 H -5.53242 -2.49702 -1.09736 0
M  V30 84 H -5.36758 -3.96122 -2.05674 0
M  V30 85 H -6.17346 -2.48115 -2.75871 0
M  V30 86 H -5.40155 0.900454 -2.03193 0
M  V30 87 H -6.70095 0.616162 0.687879 0
M  V30 88 H -7.14852 2.94101 -1.22585 0
M  V30 89 H -7.76628 2.61788 0.405862 0
M  V30 90 H -5.77183 2.86196 1.50464 0
M  V30 91 H -4.75317 2.99255 -0.0261694 0
M  V30 92 H -5.10587 5.1882 0.922238 0
M  V30 93 H -6.15595 5.01602 -0.576161 0
M  V30 94 H -7.14895 4.60447 2.26875 0
M  V30 95 H -8.13282 4.57002 0.775395 0
M  V30 96 H -8.31939 6.72957 0.693767 0
M  V30 97 H -7.71734 6.69517 2.25392 0
M  V30 98 H -9.25414 0.662525 0.481104 0
M  V30 END ATOM
M  V30 BEGIN BOND
M  V30 1 1 1 2
M  V30 2 1 1 3
M  V30 3 1 3 4
M  V30 4 2 4 5
M  V30 5 1 5 6
M  V30 6 2 6 7
M  V30 7 1 7 8
M  V30 8 1 7 9
M  V30 9 2 9 10
M  V30 10 1 1 11
M  V30 11 2 11 12
M  V30 12 1 11 13
M  V30 13 1 13 14
M  V30 14 1 14 15
M  V30 15 2 15 16
M  V30 16 1 15 17
M  V30 17 1 17 18
M  V30 18 1 18 19
M  V30 19 2 19 20
M  V30 20 1 19 21
M  V30 21 1 21 22
M  V30 22 1 22 23
M  V30 23 1 23 24
M  V30 24 2 24 25
M  V30 25 1 25 26
M  V30 26 2 26 27
M  V30 27 1 27 28
M  V30 28 2 28 29
M  V30 29 1 22 30
M  V30 30 2 30 31
M  V30 31 1 30 32
M  V30 32 1 32 33
M  V30 33 1 33 34
M  V30 34 1 34 35
M  V30 35 1 35 36
M  V30 36 1 35 37
M  V30 37 1 33 38
M  V30 38 2 38 39
M  V30 39 1 38 40
M  V30 40 1 40 41
M  V30 41 1 41 42
M  V30 42 1 42 43
M  V30 43 1 43 44
M  V30 44 1 44 45
M  V30 45 1 45 46
M  V30 46 1 41 47
M  V30 47 1 47 48
M  V30 48 2 47 49
M  V30 49 1 10 4
M  V30 50 1 29 24
M  V30 51 1 1 50 CFG=3
M  V30 52 1 2 51
M  V30 53 1 2 52
M  V30 54 1 3 53
M  V30 55 1 3 54
M  V30 56 1 5 55
M  V30 57 1 6 56
M  V30 58 1 8 57
M  V30 59 1 9 58
M  V30 60 1 10 59
M  V30 61 1 13 60
M  V30 62 1 14 61
M  V30 63 1 14 62
M  V30 64 1 17 63
M  V30 65 1 18 64
M  V30 66 1 18 65
M  V30 67 1 21 66
M  V30 68 1 22 67 CFG=3
M  V30 69 1 23 68
M  V30 70 1 23 69
M  V30 71 1 25 70
M  V30 72 1 26 71
M  V30 73 1 27 72
M  V30 74 1 28 73
M  V30 75 1 29 74
M  V30 76 1 32 75
M  V30 77 1 33 76 CFG=3
M  V30 78 1 34 77
M  V30 79 1 34 78
M  V30 80 1 35 79
M  V30 81 1 36 80
M  V30 82 1 36 81
M  V30 83 1 36 82
M  V30 84 1 37 83
M  V30 85 1 37 84
M  V30 86 1 37 85
M  V30 87 1 40 86
M  V30 88 1 41 87 CFG=1
M  V30 89 1 42 88
M  V30 90 1 42 89
M  V30 91 1 43 90
M  V30 92 1 43 91
M  V30 93 1 44 92
M  V30 94 1 44 93
M  V30 95 1 45 94
M  V30 96 1 45 95
M  V30 97 1 46 96
M  V30 98 1 46 97
M  V30 99 1 48 98
M  V30 END BOND
M  V30 END CTAB
M  END
