
     RDKit          3D

  0  0  0  0  0  0  0  0  0  0999 V3000
M  V30 BEGIN CTAB
M  V30 COUNTS 24 24 0 0 0
M  V30 BEGIN ATOM
M  V30 1 N 3.75477 0.128268 0.068146 0
M  V30 2 C 2.34373 0.05283 0.0476735 0
M  V30 3 C 1.62983 1.2107 -0.139679 0
M  V30 4 C 0.229845 1.20207 -0.169732 0
M  V30 5 C -0.514736 2.45341 -0.371667 0
M  V30 6 C -0.415695 -0.0259449 -0.00241341 0
M  V30 7 C 0.306951 -1.1761 0.183883 0
M  V30 8 N 1.66503 -1.08181 0.200367 0
M  V30 9 C -0.292673 -2.51027 0.366201 0
M  V30 10 C -1.84995 -0.0476668 -0.0305047 0
M  V30 11 N -2.58283 1.0122 -0.203938 0
M  V30 12 N -2.61258 -1.2336 0.13161 0
M  V30 13 H 4.21631 0.720036 -0.666985 0
M  V30 14 H 4.35748 -0.361466 0.759679 0
M  V30 15 H 2.14506 2.17599 -0.271021 0
M  V30 16 H -1.07978 2.81567 0.507535 0
M  V30 17 H -1.03288 2.53621 -1.3414 0
M  V30 18 H 0.284725 3.28325 -0.477028 0
M  V30 19 H -0.826287 -2.8617 -0.529255 0
M  V30 20 H 0.592551 -3.25154 0.414638 0
M  V30 21 H -0.886853 -2.63162 1.28497 0
M  V30 22 H -3.60874 0.948098 -0.21683 0
M  V30 23 H -2.92208 -1.52284 1.10207 0
M  V30 24 H -2.9012 -1.83417 -0.646317 0
M  V30 END ATOM
M  V30 BEGIN BOND
M  V30 1 1 1 2
M  V30 2 2 2 3
M  V30 3 1 3 4
M  V30 4 1 4 5
M  V30 5 2 4 6
M  V30 6 1 6 7
M  V30 7 2 7 8
M  V30 8 1 7 9
M  V30 9 1 6 10
M  V30 10 2 10 11 CFG=2
M  V30 11 1 10 12
M  V30 12 1 8 2
M  V30 13 1 1 13
M  V30 14 1 1 14
M  V30 15 1 3 15
M  V30 16 1 5 16
M  V30 17 1 5 17
M  V30 18 1 5 18
M  V30 19 1 9 19
M  V30 20 1 9 20
M  V30 21 1 9 21
M  V30 22 1 11 22
M  V30 23 1 12 23
M  V30 24 1 12 24
M  V30 END BOND
M  V30 END CTAB
M  END
