
     RDKit          3D

  0  0  0  0  0  0  0  0  0  0999 V3000
M  V30 BEGIN CTAB
M  V30 COUNTS 34 35 0 0 0
M  V30 BEGIN ATOM
M  V30 1 N -2.26502 3.07146 0.57079 0
M  V30 2 C -2.12479 1.84364 -0.152958 0
M  V30 3 C -1.43081 0.863364 0.74214 0
M  V30 4 N -1.18519 -0.412322 0.224215 0
M  V30 5 C -2.26666 -1.28222 -0.0430416 0
M  V30 6 C -1.80191 -2.7024 0.250456 0
M  V30 7 O -0.479568 -2.88441 -0.147195 0
M  V30 8 C -0.151183 -2.02552 -1.19588 0
M  V30 9 C -0.139037 -0.579766 -0.715687 0 CFG=2
M  V30 10 C 1.1726 -0.253415 -0.0867263 0
M  V30 11 C 1.47376 -0.714045 1.15675 0
M  V30 12 C 2.69622 -0.399069 1.71597 0
M  V30 13 N 3.60986 0.351896 1.07413 0
M  V30 14 C 3.3209 0.813831 -0.160033 0
M  V30 15 C 2.09474 0.515734 -0.757332 0
M  V30 16 N 4.21931 1.60948 -0.907528 0
M  V30 17 H -1.98851 3.88503 0.0268486 0
M  V30 18 H -1.77766 3.06941 1.45772 0
M  V30 19 H -1.63669 2.04316 -1.10436 0
M  V30 20 H -3.16837 1.47557 -0.339664 0
M  V30 21 H -0.464188 1.32678 1.05152 0
M  V30 22 H -2.03694 0.777529 1.68377 0
M  V30 23 H -3.1928 -1.0551 0.523042 0
M  V30 24 H -2.48765 -1.25707 -1.15013 0
M  V30 25 H -2.44035 -3.45937 -0.25008 0
M  V30 26 H -1.82729 -2.83274 1.36864 0
M  V30 27 H -0.882132 -2.16167 -1.99732 0
M  V30 28 H 0.867433 -2.30569 -1.54302 0
M  V30 29 H -0.300021 0.108976 -1.571 0
M  V30 30 H 0.734706 -1.31819 1.66943 0
M  V30 31 H 2.93786 -0.762299 2.70286 0
M  V30 32 H 1.85674 0.889003 -1.75582 0
M  V30 33 H 4.62646 1.20641 -1.77184 0
M  V30 34 H 4.43619 2.55404 -0.568688 0
M  V30 END ATOM
M  V30 BEGIN BOND
M  V30 1 1 1 2
M  V30 2 1 2 3
M  V30 3 1 3 4
M  V30 4 1 4 5
M  V30 5 1 5 6
M  V30 6 1 6 7
M  V30 7 1 7 8
M  V30 8 1 8 9
M  V30 9 1 9 10
M  V30 10 2 10 11
M  V30 11 1 11 12
M  V30 12 2 12 13
M  V30 13 1 13 14
M  V30 14 2 14 15
M  V30 15 1 14 16
M  V30 16 1 9 4
M  V30 17 1 15 10
M  V30 18 1 1 17
M  V30 19 1 1 18
M  V30 20 1 2 19
M  V30 21 1 2 20
M  V30 22 1 3 21
M  V30 23 1 3 22
M  V30 24 1 5 23
M  V30 25 1 5 24
M  V30 26 1 6 25
M  V30 27 1 6 26
M  V30 28 1 8 27
M  V30 29 1 8 28
M  V30 30 1 9 29 CFG=3
M  V30 31 1 11 30
M  V30 32 1 12 31
M  V30 33 1 15 32
M  V30 34 1 16 33
M  V30 35 1 16 34
M  V30 END BOND
M  V30 END CTAB
M  END
