
     RDKit          3D

  0  0  0  0  0  0  0  0  0  0999 V3000
M  V30 BEGIN CTAB
M  V30 COUNTS 29 30 0 0 0
M  V30 BEGIN ATOM
M  V30 1 N -3.90437 -0.389609 -1.07359 0
M  V30 2 C -2.75686 0.0973776 -0.392778 0
M  V30 3 C -2.87451 1.07273 0.53817 0
M  V30 4 N -4.1304 1.68267 0.829868 0
M  V30 5 C -1.75276 1.52995 1.22413 0
M  V30 6 N -0.560403 0.971506 0.927783 0
M  V30 7 C -0.43814 0.00416223 0.01297 0
M  V30 8 C -1.52264 -0.46071 -0.668704 0
M  V30 9 C 0.908345 -0.596598 -0.274689 0
M  V30 10 C 1.05236 -1.63493 -1.15396 0
M  V30 11 C 2.32082 -2.16071 -1.4687 0
M  V30 12 C 3.40423 -1.58422 -0.854826 0
M  V30 13 C 3.26522 -0.5353 0.0369324 0
M  V30 14 C 2.0173 -0.0430746 0.329055 0
M  V30 15 C 4.50144 0.0624103 0.672236 0
M  V30 16 F 5.59632 -0.174452 -0.11102 0
M  V30 17 F 4.34623 1.43605 0.745777 0
M  V30 18 F 4.6954 -0.445984 1.94682 0
M  V30 19 C -1.90658 2.58221 2.17503 0
M  V30 20 N -2.04499 3.43791 2.93118 0
M  V30 21 H -4.38929 -1.23246 -0.748682 0
M  V30 22 H -4.17404 0.187276 -1.91271 0
M  V30 23 H -4.88274 1.02616 1.13176 0
M  V30 24 H -4.20448 2.69302 0.721279 0
M  V30 25 H -1.45768 -1.25946 -1.40878 0
M  V30 26 H 0.200124 -2.09912 -1.67016 0
M  V30 27 H 2.40344 -2.97807 -2.17744 0
M  V30 28 H 4.38702 -1.94226 -1.06978 0
M  V30 29 H 1.90163 0.75352 1.01457 0
M  V30 END ATOM
M  V30 BEGIN BOND
M  V30 1 1 1 2
M  V30 2 2 2 3
M  V30 3 1 3 4
M  V30 4 1 3 5
M  V30 5 2 5 6
M  V30 6 1 6 7
M  V30 7 2 7 8
M  V30 8 1 7 9
M  V30 9 2 9 10
M  V30 10 1 10 11
M  V30 11 2 11 12
M  V30 12 1 12 13
M  V30 13 2 13 14
M  V30 14 1 13 15
M  V30 15 1 15 16
M  V30 16 1 15 17
M  V30 17 1 15 18
M  V30 18 1 5 19
M  V30 19 3 19 20
M  V30 20 1 8 2
M  V30 21 1 14 9
M  V30 22 1 1 21
M  V30 23 1 1 22
M  V30 24 1 4 23
M  V30 25 1 4 24
M  V30 26 1 8 25
M  V30 27 1 10 26
M  V30 28 1 11 27
M  V30 29 1 12 28
M  V30 30 1 14 29
M  V30 END BOND
M  V30 END CTAB
M  END
