
     RDKit          3D

  0  0  0  0  0  0  0  0  0  0999 V3000
M  V30 BEGIN CTAB
M  V30 COUNTS 17 17 0 0 0
M  V30 BEGIN ATOM
M  V30 1 N 4.26235 0.209195 0.897884 0
M  V30 2 C 3.15741 0.0432702 0.649242 0
M  V30 3 C 1.75589 -0.146662 0.336568 0
M  V30 4 C 0.935761 0.983183 0.32491 0
M  V30 5 C -0.40798 0.872286 0.0349469 0
M  V30 6 N -1.29698 1.97436 0.00536669 0
M  V30 7 C -0.914623 -0.371859 -0.24035 0
M  V30 8 C -0.089779 -1.49309 -0.226538 0
M  V30 9 C 1.25456 -1.39979 0.0611125 0
M  V30 10 Br -0.799014 -3.21334 -0.608916 0
M  V30 11 N -2.29047 -0.596764 -0.552638 0
M  V30 12 H 1.34742 1.97407 0.545872 0
M  V30 13 H -1.43745 2.46143 -0.90808 0
M  V30 14 H -1.81967 2.33698 0.816675 0
M  V30 15 H 1.93709 -2.23578 0.0852105 0
M  V30 16 H -2.72745 -0.397974 -1.45756 0
M  V30 17 H -2.86706 -0.999501 0.236289 0
M  V30 END ATOM
M  V30 BEGIN BOND
M  V30 1 3 1 2
M  V30 2 1 2 3
M  V30 3 2 3 4
M  V30 4 1 4 5
M  V30 5 1 5 6
M  V30 6 2 5 7
M  V30 7 1 7 8
M  V30 8 2 8 9
M  V30 9 1 8 10
M  V30 10 1 7 11
M  V30 11 1 9 3
M  V30 12 1 4 12
M  V30 13 1 6 13
M  V30 14 1 6 14
M  V30 15 1 9 15
M  V30 16 1 11 16
M  V30 17 1 11 17
M  V30 END BOND
M  V30 END CTAB
M  END
