
     RDKit          3D

  0  0  0  0  0  0  0  0  0  0999 V3000
M  V30 BEGIN CTAB
M  V30 COUNTS 35 38 0 0 0
M  V30 BEGIN ATOM
M  V30 1 N -1.69428 4.32673 -2.57064 0
M  V30 2 C -1.25426 3.3941 -2.04854 0
M  V30 3 C -0.724286 2.22984 -1.42066 0
M  V30 4 C -1.49628 1.30322 -0.729942 0
M  V30 5 N -2.81367 1.2095 -0.461786 0
M  V30 6 C -3.30447 0.165251 0.255943 0
M  V30 7 C -4.65259 0.061629 0.535078 0
M  V30 8 C -5.1351 -1.00709 1.26645 0
M  V30 9 C -4.22627 -1.94017 1.69217 0
M  V30 10 C -2.88242 -1.84983 1.42186 0
M  V30 11 C -2.40458 -0.77443 0.687143 0
M  V30 12 N -1.06854 -0.677421 0.413987 0
M  V30 13 C -0.592584 0.356159 -0.294839 0
M  V30 14 N 0.652233 0.716158 -0.714382 0
M  V30 15 C 0.600481 1.86297 -1.40808 0
M  V30 16 N 1.71554 2.53882 -2.0002 0
M  V30 17 C 1.81659 -0.019455 -0.450397 0
M  V30 18 C 2.50715 -0.660585 -1.4537 0
M  V30 19 C 3.64869 -1.38832 -1.23185 0
M  V30 20 C 4.14061 -1.49613 0.0289788 0
M  V30 21 C 3.45944 -0.856518 1.05942 0
M  V30 22 C 2.29945 -0.117608 0.830686 0
M  V30 23 N 4.00311 -0.990724 2.36767 0
M  V30 24 H -5.36008 0.806051 0.192621 0
M  V30 25 H -6.18764 -1.10936 1.49746 0
M  V30 26 H -4.60728 -2.77485 2.26406 0
M  V30 27 H -2.21176 -2.61947 1.78565 0
M  V30 28 H 2.361 3.15211 -1.48398 0
M  V30 29 H 1.88185 2.39863 -3.02066 0
M  V30 30 H 2.14153 -0.594047 -2.46781 0
M  V30 31 H 4.16366 -1.87763 -2.0435 0
M  V30 32 H 5.04967 -2.07173 0.227916 0
M  V30 33 H 1.78503 0.371586 1.64372 0
M  V30 34 H 3.44213 -1.4827 3.07837 0
M  V30 35 H 4.94793 -0.584667 2.55176 0
M  V30 END ATOM
M  V30 BEGIN BOND
M  V30 1 3 1 2
M  V30 2 1 2 3
M  V30 3 1 3 4
M  V30 4 2 4 5
M  V30 5 1 5 6
M  V30 6 2 6 7
M  V30 7 1 7 8
M  V30 8 2 8 9
M  V30 9 1 9 10
M  V30 10 2 10 11
M  V30 11 1 11 12
M  V30 12 2 12 13
M  V30 13 1 13 14
M  V30 14 1 14 15
M  V30 15 1 15 16
M  V30 16 1 14 17
M  V30 17 2 17 18
M  V30 18 1 18 19
M  V30 19 2 19 20
M  V30 20 1 20 21
M  V30 21 2 21 22
M  V30 22 1 21 23
M  V30 23 2 15 3
M  V30 24 1 22 17
M  V30 25 1 13 4
M  V30 26 1 11 6
M  V30 27 1 7 24
M  V30 28 1 8 25
M  V30 29 1 9 26
M  V30 30 1 10 27
M  V30 31 1 16 28
M  V30 32 1 16 29
M  V30 33 1 18 30
M  V30 34 1 19 31
M  V30 35 1 20 32
M  V30 36 1 22 33
M  V30 37 1 23 34
M  V30 38 1 23 35
M  V30 END BOND
M  V30 END CTAB
M  END
