
     RDKit          3D

  0  0  0  0  0  0  0  0  0  0999 V3000
M  V30 BEGIN CTAB
M  V30 COUNTS 27 27 0 0 0
M  V30 BEGIN ATOM
M  V30 1 N -5.15081 -0.77961 0.107566 0
M  V30 2 C -4.77873 0.598933 0.33763 0
M  V30 3 C -3.33467 0.776274 -0.0852334 0
M  V30 4 C -2.41023 -0.124326 0.704379 0
M  V30 5 C -1.02949 0.0993645 0.243307 0
M  V30 6 O -0.791304 0.924157 -0.658288 0
M  V30 7 N 0.0232225 -0.629497 0.832191 0
M  V30 8 C 1.37649 -0.408436 0.378426 0
M  V30 9 N 1.80104 0.428252 -0.566203 0
M  V30 10 N 3.03218 0.491392 -0.834769 0
M  V30 11 C 3.89601 -0.273505 -0.177166 0
M  V30 12 S 2.84917 -1.1176 0.877582 0
M  V30 13 S 5.65444 -0.367274 -0.368439 0
M  V30 14 N 6.43965 0.757669 0.672417 0
M  V30 15 O 6.04658 -1.75064 0.0832765 0
M  V30 16 O 6.0257 -0.200728 -1.79561 0
M  V30 17 H -6.11483 -0.875407 -0.244601 0
M  V30 18 H -4.44712 -1.31698 -0.415088 0
M  V30 19 H -4.91846 0.913667 1.39397 0
M  V30 20 H -5.41325 1.22254 -0.301118 0
M  V30 21 H -3.00829 1.82636 0.0592378 0
M  V30 22 H -3.24412 0.55123 -1.16023 0
M  V30 23 H -2.70112 -1.18973 0.632418 0
M  V30 24 H -2.48733 0.129649 1.793 0
M  V30 25 H -0.0933719 -1.32852 1.58228 0
M  V30 26 H 5.72468 1.35223 1.17515 0
M  V30 27 H 7.05398 0.290538 1.37645 0
M  V30 END ATOM
M  V30 BEGIN BOND
M  V30 1 1 1 2
M  V30 2 1 2 3
M  V30 3 1 3 4
M  V30 4 1 4 5
M  V30 5 2 5 6
M  V30 6 1 5 7
M  V30 7 1 7 8
M  V30 8 2 8 9
M  V30 9 1 9 10
M  V30 10 2 10 11
M  V30 11 1 11 12
M  V30 12 1 11 13
M  V30 13 1 13 14
M  V30 14 2 13 15
M  V30 15 2 13 16
M  V30 16 1 12 8
M  V30 17 1 1 17
M  V30 18 1 1 18
M  V30 19 1 2 19
M  V30 20 1 2 20
M  V30 21 1 3 21
M  V30 22 1 3 22
M  V30 23 1 4 23
M  V30 24 1 4 24
M  V30 25 1 7 25
M  V30 26 1 14 26
M  V30 27 1 14 27
M  V30 END BOND
M  V30 END CTAB
M  END
