
     RDKit          3D

  0  0  0  0  0  0  0  0  0  0999 V3000
M  V30 BEGIN CTAB
M  V30 COUNTS 48 50 0 0 0
M  V30 BEGIN ATOM
M  V30 1 C -4.31269 1.93797 -2.11978 0
M  V30 2 O -3.17384 1.38735 -1.49525 0
M  V30 3 C -3.24906 0.2115 -0.770007 0
M  V30 4 C -4.46907 -0.454277 -0.645314 0
M  V30 5 C -4.51964 -1.60915 0.0728875 0
M  V30 6 C -3.40371 -2.13228 0.674839 0
M  V30 7 C -2.1959 -1.43403 0.526779 0
M  V30 8 C -2.0748 -0.263805 -0.183849 0
M  V30 9 N -0.881914 0.465651 -0.351844 0
M  V30 10 C 0.402143 0.191922 0.147606 0
M  V30 11 O 0.649596 -0.789955 0.838443 0
M  V30 12 C 1.50238 1.14568 -0.183136 0
M  V30 13 C 1.18808 2.51578 0.294575 0
M  V30 14 C 1.1837 3.5844 -0.573017 0
M  V30 15 C 0.89076 4.8429 -0.127078 0
M  V30 16 C 0.593705 5.07908 1.19107 0
M  V30 17 C 0.590415 4.03183 2.07985 0
M  V30 18 C 0.889848 2.75224 1.61832 0
M  V30 19 S 3.0074 0.560488 0.626784 0
M  V30 20 C 3.58627 -0.970558 -0.0485157 0
M  V30 21 N 3.00747 -1.64155 -1.04471 0
M  V30 22 C 3.46799 -2.80274 -1.54177 0
M  V30 23 N 2.81831 -3.49359 -2.61479 0
M  V30 24 N 4.59346 -3.30432 -0.978775 0
M  V30 25 C 5.22985 -2.67804 0.0320304 0
M  V30 26 N 4.71332 -1.52001 0.479357 0
M  V30 27 N 6.41417 -3.19712 0.632043 0
M  V30 28 C -3.43304 -3.38979 1.46422 0
M  V30 29 H -5.19909 1.97377 -1.46189 0
M  V30 30 H -4.08063 3.0205 -2.34481 0
M  V30 31 H -4.51399 1.47494 -3.11351 0
M  V30 32 H -5.34929 -0.0294586 -1.12801 0
M  V30 33 H -5.4634 -2.14458 0.182958 0
M  V30 34 H -1.31863 -1.86838 1.01409 0
M  V30 35 H -1.00669 1.36093 -0.95959 0
M  V30 36 H 1.694 1.18872 -1.28795 0
M  V30 37 H 1.41063 3.45242 -1.62451 0
M  V30 38 H 0.880448 5.71454 -0.797466 0
M  V30 39 H 0.361133 6.06549 1.5553 0
M  V30 40 H 0.363277 4.16513 3.12688 0
M  V30 41 H 0.884348 1.93714 2.32158 0
M  V30 42 H 2.93153 -3.20906 -3.61261 0
M  V30 43 H 2.21524 -4.30441 -2.38973 0
M  V30 44 H 7.18985 -3.48655 0.00384846 0
M  V30 45 H 6.43043 -3.25621 1.67264 0
M  V30 46 H -4.25484 -4.01314 1.04912 0
M  V30 47 H -3.67928 -3.10399 2.5184 0
M  V30 48 H -2.51023 -3.96336 1.4052 0
M  V30 END ATOM
M  V30 BEGIN BOND
M  V30 1 1 1 2
M  V30 2 1 2 3
M  V30 3 2 3 4
M  V30 4 1 4 5
M  V30 5 2 5 6
M  V30 6 1 6 7
M  V30 7 2 7 8
M  V30 8 1 8 9
M  V30 9 1 9 10
M  V30 10 2 10 11
M  V30 11 1 10 12
M  V30 12 1 12 13
M  V30 13 2 13 14
M  V30 14 1 14 15
M  V30 15 2 15 16
M  V30 16 1 16 17
M  V30 17 2 17 18
M  V30 18 1 12 19
M  V30 19 1 19 20
M  V30 20 2 20 21
M  V30 21 1 21 22
M  V30 22 1 22 23
M  V30 23 2 22 24
M  V30 24 1 24 25
M  V30 25 2 25 26
M  V30 26 1 25 27
M  V30 27 1 6 28
M  V30 28 1 8 3
M  V30 29 1 18 13
M  V30 30 1 26 20
M  V30 31 1 1 29
M  V30 32 1 1 30
M  V30 33 1 1 31
M  V30 34 1 4 32
M  V30 35 1 5 33
M  V30 36 1 7 34
M  V30 37 1 9 35
M  V30 38 1 12 36
M  V30 39 1 14 37
M  V30 40 1 15 38
M  V30 41 1 16 39
M  V30 42 1 17 40
M  V30 43 1 18 41
M  V30 44 1 23 42
M  V30 45 1 23 43
M  V30 46 1 27 44
M  V30 47 1 27 45
M  V30 48 1 28 46
M  V30 49 1 28 47
M  V30 50 1 28 48
M  V30 END BOND
M  V30 END CTAB
M  END
