
     RDKit          3D

  0  0  0  0  0  0  0  0  0  0999 V3000
M  V30 BEGIN CTAB
M  V30 COUNTS 28 28 0 0 0
M  V30 BEGIN ATOM
M  V30 1 C -1.97849 1.54338 0.522823 0
M  V30 2 C -2.41879 0.147015 0.41871 0
M  V30 3 C -1.56277 -0.971397 0.818193 0
M  V30 4 C -0.272725 -1.25841 0.214206 0
M  V30 5 C 0.835289 -0.305967 0.375055 0
M  V30 6 N 1.02559 0.741784 1.18071 0
M  V30 7 C 2.23532 1.24984 0.939128 0
M  V30 8 N 2.86022 0.557223 -0.0182128 0
M  V30 9 C 2.02768 -0.401291 -0.382154 0
M  V30 10 N 2.28313 -1.39546 -1.3741 0
M  V30 11 N 4.14509 0.779422 -0.549152 0
M  V30 12 C -3.06051 -0.0534108 -0.958468 0
M  V30 13 H -1.28325 1.90632 -0.243784 0
M  V30 14 H -1.70412 1.83261 1.56187 0
M  V30 15 H -2.92068 2.179 0.33001 0
M  V30 16 H -3.34351 0.0746176 1.11353 0
M  V30 17 H -2.22663 -1.90059 0.809352 0
M  V30 18 H -1.38462 -0.869068 1.95135 0
M  V30 19 H 0.12072 -2.22174 0.691772 0
M  V30 20 H -0.352452 -1.5875 -0.876413 0
M  V30 21 H 2.66773 2.11796 1.45054 0
M  V30 22 H 3.21359 -1.88845 -1.30458 0
M  V30 23 H 1.65752 -1.66957 -2.13231 0
M  V30 24 H 4.93584 0.764041 0.110668 0
M  V30 25 H 4.33097 0.956325 -1.55518 0
M  V30 26 H -2.37951 -0.492809 -1.69613 0
M  V30 27 H -3.50381 0.916332 -1.28028 0
M  V30 28 H -3.94682 -0.750234 -0.866175 0
M  V30 END ATOM
M  V30 BEGIN BOND
M  V30 1 1 1 2
M  V30 2 1 2 3
M  V30 3 1 3 4
M  V30 4 1 4 5
M  V30 5 1 5 6
M  V30 6 2 6 7
M  V30 7 1 7 8
M  V30 8 1 8 9
M  V30 9 1 9 10
M  V30 10 1 8 11
M  V30 11 1 2 12
M  V30 12 2 9 5
M  V30 13 1 1 13
M  V30 14 1 1 14
M  V30 15 1 1 15
M  V30 16 1 2 16
M  V30 17 1 3 17
M  V30 18 1 3 18
M  V30 19 1 4 19
M  V30 20 1 4 20
M  V30 21 1 7 21
M  V30 22 1 10 22
M  V30 23 1 10 23
M  V30 24 1 11 24
M  V30 25 1 11 25
M  V30 26 1 12 26
M  V30 27 1 12 27
M  V30 28 1 12 28
M  V30 END BOND
M  V30 END CTAB
M  END
