
     RDKit          3D

  0  0  0  0  0  0  0  0  0  0999 V3000
M  V30 BEGIN CTAB
M  V30 COUNTS 47 49 0 0 0
M  V30 BEGIN ATOM
M  V30 1 N -5.72125 -2.63614 -1.01682 0
M  V30 2 C -4.81684 -1.62989 -0.572775 0
M  V30 3 C -5.27466 -0.312537 -1.11372 0
M  V30 4 C -4.39658 0.851731 -0.720721 0
M  V30 5 C -4.37379 0.967674 0.7672 0
M  V30 6 C -3.51676 2.11766 1.24968 0 CFG=1
M  V30 7 C -2.08771 1.95607 0.799991 0
M  V30 8 O -1.56349 2.87711 0.145437 0
M  V30 9 N -1.38525 0.789965 1.12166 0
M  V30 10 C -0.0589926 0.525972 0.773312 0
M  V30 11 C 0.360461 -0.814284 0.723645 0
M  V30 12 C 1.64785 -1.13535 0.416474 0
M  V30 13 C 2.55842 -0.151688 0.149813 0
M  V30 14 C 2.14924 1.15596 0.198673 0
M  V30 15 C 0.849986 1.5038 0.508108 0
M  V30 16 C 3.95158 -0.458286 -0.184722 0
M  V30 17 N 4.91835 0.429262 -0.461368 0
M  V30 18 C 6.07735 -0.200721 -0.724511 0
M  V30 19 C 5.77227 -1.55398 -0.593804 0
M  V30 20 O 4.50393 -1.6446 -0.27429 0
M  V30 21 C 6.77938 -2.48589 -0.80691 0
M  V30 22 C 8.05067 -2.07105 -1.14027 0
M  V30 23 C 8.37178 -0.734333 -1.2743 0
M  V30 24 C 7.36071 0.178113 -1.05942 0
M  V30 25 N -4.06659 3.3823 0.822261 0
M  V30 26 H -5.75607 -3.47999 -0.498051 0
M  V30 27 H -6.4773 -2.34012 -1.5777 0
M  V30 28 H -4.83648 -1.6285 0.538955 0
M  V30 29 H -3.80909 -1.87343 -0.911373 0
M  V30 30 H -6.2901 -0.0915344 -0.705317 0
M  V30 31 H -5.31434 -0.328376 -2.21655 0
M  V30 32 H -4.83466 1.76219 -1.1673 0
M  V30 33 H -3.38585 0.738229 -1.16495 0
M  V30 34 H -5.39682 1.15452 1.12818 0
M  V30 35 H -3.92834 0.0454678 1.22351 0
M  V30 36 H -3.51477 2.09116 2.35733 0
M  V30 37 H -1.91243 0.0443155 1.68195 0
M  V30 38 H -0.35631 -1.57077 0.932814 0
M  V30 39 H 2.00049 -2.16209 0.370639 0
M  V30 40 H 2.8778 1.94994 -0.0149751 0
M  V30 41 H 0.635797 2.57954 0.536098 0
M  V30 42 H 6.58735 -3.54687 -0.716185 0
M  V30 43 H 8.81944 -2.80109 -1.30219 0
M  V30 44 H 9.37359 -0.449514 -1.53529 0
M  V30 45 H 7.57664 1.2331 -1.15586 0
M  V30 46 H -4.80661 3.63776 1.54255 0
M  V30 47 H -3.34202 4.12921 0.855707 0
M  V30 END ATOM
M  V30 BEGIN BOND
M  V30 1 1 1 2
M  V30 2 1 2 3
M  V30 3 1 3 4
M  V30 4 1 4 5
M  V30 5 1 5 6
M  V30 6 1 6 7
M  V30 7 2 7 8
M  V30 8 1 7 9
M  V30 9 1 9 10
M  V30 10 2 10 11
M  V30 11 1 11 12
M  V30 12 2 12 13
M  V30 13 1 13 14
M  V30 14 2 14 15
M  V30 15 1 13 16
M  V30 16 2 16 17
M  V30 17 1 17 18
M  V30 18 2 18 19
M  V30 19 1 19 20
M  V30 20 1 19 21
M  V30 21 2 21 22
M  V30 22 1 22 23
M  V30 23 2 23 24
M  V30 24 1 6 25
M  V30 25 1 15 10
M  V30 26 1 20 16
M  V30 27 1 24 18
M  V30 28 1 1 26
M  V30 29 1 1 27
M  V30 30 1 2 28
M  V30 31 1 2 29
M  V30 32 1 3 30
M  V30 33 1 3 31
M  V30 34 1 4 32
M  V30 35 1 4 33
M  V30 36 1 5 34
M  V30 37 1 5 35
M  V30 38 1 6 36 CFG=1
M  V30 39 1 9 37
M  V30 40 1 11 38
M  V30 41 1 12 39
M  V30 42 1 14 40
M  V30 43 1 15 41
M  V30 44 1 21 42
M  V30 45 1 22 43
M  V30 46 1 23 44
M  V30 47 1 24 45
M  V30 48 1 25 46
M  V30 49 1 25 47
M  V30 END BOND
M  V30 END CTAB
M  END
