
     RDKit          3D

  0  0  0  0  0  0  0  0  0  0999 V3000
M  V30 BEGIN CTAB
M  V30 COUNTS 25 25 0 0 0
M  V30 BEGIN ATOM
M  V30 1 O -3.20202 -0.877781 0.324063 0
M  V30 2 C -3.1239 0.268217 -0.268642 0
M  V30 3 C -1.75326 0.89639 -0.229362 0 CFG=2
M  V30 4 C -0.663707 0.0676588 -0.881593 0
M  V30 5 C 0.260885 0.603624 0.219801 0 CFG=1
M  V30 6 C -1.0011 0.676548 1.08493 0
M  V30 7 N 1.24372 -0.318229 0.680759 0
M  V30 8 C 2.22664 -0.887921 -0.15288 0
M  V30 9 N 3.19648 -0.185357 -0.604074 0
M  V30 10 N 3.33561 1.17904 -0.297751 0
M  V30 11 N 2.14631 -2.25342 -0.499391 0
M  V30 12 H -3.15702 -1.68567 0.0419799 0
M  V30 13 H -3.37259 0.144454 -1.36364 0
M  V30 14 H -3.84684 1.02386 0.101191 0
M  V30 15 H -1.76307 1.96021 -0.490683 0
M  V30 16 H -0.887212 -1.00777 -0.727212 0
M  V30 17 H -0.374526 0.367908 -1.88944 0
M  V30 18 H 0.623132 1.61062 -0.072268 0
M  V30 19 H -1.02686 1.53433 1.77253 0
M  V30 20 H -1.17277 -0.31859 1.53988 0
M  V30 21 H 1.23993 -0.588854 1.68671 0
M  V30 22 H 3.85761 1.79461 -0.980566 0
M  V30 23 H 2.94021 1.57686 0.570966 0
M  V30 24 H 2.52261 -2.9511 0.202158 0
M  V30 25 H 1.75173 -2.62965 -1.37898 0
M  V30 END ATOM
M  V30 BEGIN BOND
M  V30 1 1 1 2
M  V30 2 1 2 3
M  V30 3 1 3 4
M  V30 4 1 4 5
M  V30 5 1 5 6
M  V30 6 1 5 7
M  V30 7 1 7 8
M  V30 8 2 8 9 CFG=2
M  V30 9 1 9 10
M  V30 10 1 8 11
M  V30 11 1 6 3
M  V30 12 1 1 12
M  V30 13 1 2 13
M  V30 14 1 2 14
M  V30 15 1 3 15 CFG=3
M  V30 16 1 4 16
M  V30 17 1 4 17
M  V30 18 1 5 18 CFG=3
M  V30 19 1 6 19
M  V30 20 1 6 20
M  V30 21 1 7 21
M  V30 22 1 10 22
M  V30 23 1 10 23
M  V30 24 1 11 24
M  V30 25 1 11 25
M  V30 END BOND
M  V30 END CTAB
M  END
