
     RDKit          3D

  0  0  0  0  0  0  0  0  0  0999 V3000
M  V30 BEGIN CTAB
M  V30 COUNTS 35 37 0 0 0
M  V30 BEGIN ATOM
M  V30 1 N 6.49022 -0.194826 -1.22161 0
M  V30 2 C 5.88123 -0.232599 0.042653 0
M  V30 3 N 6.61719 -0.310729 1.08009 0
M  V30 4 C 4.44566 -0.1832 0.153228 0
M  V30 5 C 3.77208 -0.216248 1.36793 0
M  V30 6 C 2.38052 -0.163474 1.37353 0
M  V30 7 C 1.61881 -0.0792577 0.232298 0
M  V30 8 C 2.29898 -0.0469604 -0.971927 0
M  V30 9 C 3.689 -0.098741 -0.996989 0
M  V30 10 C 0.164833 -0.0260785 0.278426 0
M  V30 11 N -0.601957 -0.0491294 1.35935 0
M  V30 12 C -1.91419 0.0179202 1.00722 0
M  V30 13 C -1.92257 0.0848366 -0.369728 0
M  V30 14 N -0.658573 0.0574799 -0.80027 0
M  V30 15 C -3.11812 0.164206 -1.06845 0
M  V30 16 C -4.32737 0.178301 -0.406561 0
M  V30 17 C -4.29709 0.10966 0.988833 0
M  V30 18 C -3.12047 0.0313091 1.68125 0
M  V30 19 C -5.60124 0.260446 -1.09958 0
M  V30 20 N -6.81274 0.270119 -0.344193 0
M  V30 21 N -5.69546 0.324885 -2.35651 0
M  V30 22 H 7.09213 0.59983 -1.48528 0
M  V30 23 H 6.33615 -0.964277 -1.89102 0
M  V30 24 H 6.29031 -0.345593 2.06114 0
M  V30 25 H 4.30785 -0.281023 2.28543 0
M  V30 26 H 1.89682 -0.191685 2.33826 0
M  V30 27 H 1.7422 0.018241 -1.88154 0
M  V30 28 H 4.21918 -0.0729056 -1.949 0
M  V30 29 H -0.319394 0.0924889 -1.79154 0
M  V30 30 H -3.07932 0.215922 -2.16841 0
M  V30 31 H -5.26065 0.122231 1.48851 0
M  V30 32 H -3.10338 -0.0217309 2.76436 0
M  V30 33 H -7.56944 0.950529 -0.650306 0
M  V30 34 H -6.97464 -0.34269 0.465163 0
M  V30 35 H -4.86658 0.322743 -2.96551 0
M  V30 END ATOM
M  V30 BEGIN BOND
M  V30 1 1 1 2
M  V30 2 2 2 3 CFG=2
M  V30 3 1 2 4
M  V30 4 2 4 5
M  V30 5 1 5 6
M  V30 6 2 6 7
M  V30 7 1 7 8
M  V30 8 2 8 9
M  V30 9 1 7 10
M  V30 10 2 10 11
M  V30 11 1 11 12
M  V30 12 2 12 13
M  V30 13 1 13 14
M  V30 14 1 13 15
M  V30 15 2 15 16
M  V30 16 1 16 17
M  V30 17 2 17 18
M  V30 18 1 16 19
M  V30 19 1 19 20
M  V30 20 2 19 21 CFG=2
M  V30 21 1 9 4
M  V30 22 1 14 10
M  V30 23 1 18 12
M  V30 24 1 1 22
M  V30 25 1 1 23
M  V30 26 1 3 24
M  V30 27 1 5 25
M  V30 28 1 6 26
M  V30 29 1 8 27
M  V30 30 1 9 28
M  V30 31 1 14 29
M  V30 32 1 15 30
M  V30 33 1 17 31
M  V30 34 1 18 32
M  V30 35 1 20 33
M  V30 36 1 20 34
M  V30 37 1 21 35
M  V30 END BOND
M  V30 END CTAB
M  END
