
     RDKit          3D

  0  0  0  0  0  0  0  0  0  0999 V3000
M  V30 BEGIN CTAB
M  V30 COUNTS 27 28 0 0 0
M  V30 BEGIN ATOM
M  V30 1 N -0.0667738 1.26904 0.0120241 0
M  V30 2 C -0.225857 -0.127367 0.263988 0
M  V30 3 C -1.64196 -0.578907 0.258122 0
M  V30 4 C -2.55743 0.0757246 1.28577 0
M  V30 5 C -3.67153 -0.104471 0.243823 0
M  V30 6 C -2.5487 0.0226362 -0.797382 0
M  V30 7 C 0.554354 -0.993085 -0.691886 0
M  V30 8 C 2.01373 -0.713373 -0.614816 0
M  V30 9 O 2.9656 -1.28833 -1.30828 0
M  V30 10 N 4.08143 -0.747676 -0.928458 0
M  V30 11 C 3.88207 0.17769 0.00719999 0
M  V30 12 N 2.54296 0.204312 0.214656 0
M  V30 13 N 4.81397 1.00534 0.693708 0
M  V30 14 H -0.433327 1.58508 -0.907247 0
M  V30 15 H -0.529761 1.83715 0.753071 0
M  V30 16 H 0.184212 -0.334278 1.28979 0
M  V30 17 H -1.74611 -1.68151 0.222484 0
M  V30 18 H -2.72098 -0.499127 2.20099 0
M  V30 19 H -2.33764 1.13635 1.37679 0
M  V30 20 H -4.05775 -1.1471 0.320212 0
M  V30 21 H -4.40835 0.694147 0.215834 0
M  V30 22 H -2.70069 -0.63192 -1.67616 0
M  V30 23 H -2.40364 1.08446 -1.01944 0
M  V30 24 H 0.422713 -2.06433 -0.508179 0
M  V30 25 H 0.267125 -0.793551 -1.75815 0
M  V30 26 H 4.68208 2.02779 0.768269 0
M  V30 27 H 5.64025 0.585303 1.12853 0
M  V30 END ATOM
M  V30 BEGIN BOND
M  V30 1 1 1 2
M  V30 2 1 2 3
M  V30 3 1 3 4
M  V30 4 1 4 5
M  V30 5 1 5 6
M  V30 6 1 2 7
M  V30 7 1 7 8
M  V30 8 1 8 9
M  V30 9 1 9 10
M  V30 10 2 10 11
M  V30 11 1 11 12
M  V30 12 1 11 13
M  V30 13 1 6 3
M  V30 14 2 12 8
M  V30 15 1 1 14
M  V30 16 1 1 15
M  V30 17 1 2 16
M  V30 18 1 3 17
M  V30 19 1 4 18
M  V30 20 1 4 19
M  V30 21 1 5 20
M  V30 22 1 5 21
M  V30 23 1 6 22
M  V30 24 1 6 23
M  V30 25 1 7 24
M  V30 26 1 7 25
M  V30 27 1 13 26
M  V30 28 1 13 27
M  V30 END BOND
M  V30 END CTAB
M  END
