
     RDKit          3D

  0  0  0  0  0  0  0  0  0  0999 V3000
M  V30 BEGIN CTAB
M  V30 COUNTS 66 70 0 0 0
M  V30 BEGIN ATOM
M  V30 1 N 9.99959 0.892816 -2.49717 0
M  V30 2 C 8.68735 0.272153 -2.36867 0
M  V30 3 C 7.62361 1.1886 -2.88314 0
M  V30 4 O 6.32766 0.75339 -2.83379 0
M  V30 5 C 5.50061 0.43778 -1.7979 0
M  V30 6 C 4.22074 -0.0100945 -2.08414 0
M  V30 7 C 3.32344 -0.347684 -1.06126 0
M  V30 8 C 3.64677 -0.258877 0.266295 0
M  V30 9 C 4.94813 0.197722 0.52448 0
M  V30 10 C 5.8341 0.531366 -0.473628 0
M  V30 11 C 2.76068 -0.598556 1.34485 0
M  V30 12 O 3.30444 -0.405445 2.52983 0
M  V30 13 N 1.46127 -1.08358 1.36461 0
M  V30 14 C 0.841041 -1.31816 2.70398 0
M  V30 15 C -0.399902 -0.475127 2.7107 0
M  V30 16 C -1.41053 -1.10945 1.7893 0
M  V30 17 C -0.730433 -1.993 0.794846 0
M  V30 18 C 0.594446 -1.40951 0.28673 0
M  V30 19 O -2.32804 -1.85102 2.53264 0
M  V30 20 C -3.31673 -1.07899 3.10442 0
M  V30 21 C -4.27204 -0.494095 2.04143 0 CFG=2
M  V30 22 C -3.55999 -0.642608 0.752455 0 CFG=2
M  V30 23 C -2.17766 -0.0593295 0.978532 0
M  V30 24 N -4.11214 -0.0954462 -0.419105 0
M  V30 25 C -3.39353 0.0658832 -1.5484 0
M  V30 26 N -4.15389 0.596263 -2.49536 0
M  V30 27 C -5.3819 0.80497 -2.04644 0
M  V30 28 C -5.34234 0.358785 -0.718669 0
M  V30 29 N -6.46126 0.454527 -0.0312526 0
M  V30 30 C -7.5938 0.943389 -0.532145 0
M  V30 31 N -7.64454 1.37419 -1.80221 0
M  V30 32 C -6.55155 1.31604 -2.58218 0
M  V30 33 N -6.55644 1.7585 -3.92921 0
M  V30 34 C -4.47842 0.936281 2.43869 0
M  V30 35 O -5.42598 -1.28129 2.16801 0
M  V30 36 H 10.7259 0.186888 -2.26419 0
M  V30 37 H 10.0726 1.639 -1.78052 0
M  V30 38 H 8.76116 -0.650906 -2.99192 0
M  V30 39 H 8.58738 -0.00180476 -1.32083 0
M  V30 40 H 7.77171 2.16306 -2.31574 0
M  V30 41 H 7.91365 1.4182 -3.95288 0
M  V30 42 H 3.92362 -0.095556 -3.1163 0
M  V30 43 H 2.35719 -0.680925 -1.38271 0
M  V30 44 H 5.2402 0.281262 1.5556 0
M  V30 45 H 6.8251 0.898231 -0.224372 0
M  V30 46 H 1.55852 -1.04086 3.48881 0
M  V30 47 H 0.608386 -2.40141 2.74755 0
M  V30 48 H -0.134649 0.528865 2.29823 0
M  V30 49 H -0.761354 -0.417142 3.75697 0
M  V30 50 H -1.34557 -2.13929 -0.139223 0
M  V30 51 H -0.577894 -3.00842 1.21058 0
M  V30 52 H 1.02588 -2.23118 -0.331516 0
M  V30 53 H 0.304961 -0.573203 -0.347641 0
M  V30 54 H -3.83172 -1.67714 3.8549 0
M  V30 55 H -2.78857 -0.261794 3.65914 0
M  V30 56 H -3.39687 -1.75153 0.597453 0
M  V30 57 H -1.6448 0.225558 0.0763561 0
M  V30 58 H -2.28121 0.813438 1.69025 0
M  V30 59 H -2.34335 -0.173212 -1.75756 0
M  V30 60 H -8.47918 0.993999 0.0873479 0
M  V30 61 H -6.36252 2.74913 -4.134 0
M  V30 62 H -6.75072 1.11264 -4.71834 0
M  V30 63 H -5.52594 1.1318 2.78565 0
M  V30 64 H -3.84174 1.26576 3.30101 0
M  V30 65 H -4.18525 1.64031 1.60704 0
M  V30 66 H -5.20765 -2.17029 1.83372 0
M  V30 END ATOM
M  V30 BEGIN BOND
M  V30 1 1 1 2
M  V30 2 1 2 3
M  V30 3 1 3 4
M  V30 4 1 4 5
M  V30 5 2 5 6
M  V30 6 1 6 7
M  V30 7 2 7 8
M  V30 8 1 8 9
M  V30 9 2 9 10
M  V30 10 1 8 11
M  V30 11 2 11 12
M  V30 12 1 11 13
M  V30 13 1 13 14
M  V30 14 1 14 15
M  V30 15 1 15 16
M  V30 16 1 16 17
M  V30 17 1 17 18
M  V30 18 1 16 19
M  V30 19 1 19 20
M  V30 20 1 20 21
M  V30 21 1 21 22
M  V30 22 1 22 23
M  V30 23 1 22 24
M  V30 24 1 24 25
M  V30 25 2 25 26
M  V30 26 1 26 27
M  V30 27 2 27 28
M  V30 28 1 28 29
M  V30 29 2 29 30
M  V30 30 1 30 31
M  V30 31 2 31 32
M  V30 32 1 32 33
M  V30 33 1 21 34
M  V30 34 1 21 35 CFG=3
M  V30 35 1 10 5
M  V30 36 1 18 13
M  V30 37 1 28 24
M  V30 38 1 23 16
M  V30 39 1 32 27
M  V30 40 1 1 36
M  V30 41 1 1 37
M  V30 42 1 2 38
M  V30 43 1 2 39
M  V30 44 1 3 40
M  V30 45 1 3 41
M  V30 46 1 6 42
M  V30 47 1 7 43
M  V30 48 1 9 44
M  V30 49 1 10 45
M  V30 50 1 14 46
M  V30 51 1 14 47
M  V30 52 1 15 48
M  V30 53 1 15 49
M  V30 54 1 17 50
M  V30 55 1 17 51
M  V30 56 1 18 52
M  V30 57 1 18 53
M  V30 58 1 20 54
M  V30 59 1 20 55
M  V30 60 1 22 56 CFG=3
M  V30 61 1 23 57
M  V30 62 1 23 58
M  V30 63 1 25 59
M  V30 64 1 30 60
M  V30 65 1 33 61
M  V30 66 1 33 62
M  V30 67 1 34 63
M  V30 68 1 34 64
M  V30 69 1 34 65
M  V30 70 1 35 66
M  V30 END BOND
M  V30 END CTAB
M  END
