
     RDKit          3D

  0  0  0  0  0  0  0  0  0  0999 V3000
M  V30 BEGIN CTAB
M  V30 COUNTS 51 54 0 0 0
M  V30 BEGIN ATOM
M  V30 1 N 2.926 -3.97533 -1.47488 0
M  V30 2 C 2.2079 -3.02502 -0.710308 0
M  V30 3 C 0.911307 -3.24777 -0.309678 0
M  V30 4 C 0.194582 -2.34291 0.435296 0
M  V30 5 C 0.790597 -1.16764 0.796646 0
M  V30 6 O 0.10502 -0.218071 1.55235 0
M  V30 7 C -0.646069 0.787321 1.00584 0
M  V30 8 C -1.99172 0.609136 0.740575 0
M  V30 9 C -2.81459 1.56721 0.194991 0
M  V30 10 C -4.20945 1.36743 -0.131581 0
M  V30 11 O -4.78253 2.32788 -0.794864 0
M  V30 12 C -5.07932 0.266227 0.158699 0
M  V30 13 C -4.97713 -0.483499 1.28641 0
M  V30 14 C -5.80427 -1.56268 1.50134 0
M  V30 15 C -6.77496 -1.9164 0.564473 0
M  V30 16 C -6.88517 -1.15861 -0.581273 0
M  V30 17 C -6.06093 -0.0965419 -0.78008 0
M  V30 18 C -2.21103 2.80452 -0.10446 0
M  V30 19 N -2.98904 3.85093 -0.673157 0
M  V30 20 C -0.880448 2.99612 0.15148 0
M  V30 21 C -0.0800699 2.00321 0.705851 0
M  V30 22 C 2.08716 -0.904724 0.41553 0
M  V30 23 C 2.81156 -1.80577 -0.32878 0
M  V30 24 C 4.15043 -1.59884 -0.815389 0
M  V30 25 O 4.6646 -2.4501 -1.64172 0
M  V30 26 C 4.98658 -0.48903 -0.446449 0
M  V30 27 C 5.81999 0.106274 -1.40636 0
M  V30 28 C 6.67874 1.11053 -1.09702 0
M  V30 29 C 6.75928 1.58283 0.188582 0
M  V30 30 C 5.95908 1.01859 1.13748 0
M  V30 31 C 5.08028 -0.00729338 0.829614 0
M  V30 32 H 2.91479 -3.96724 -2.50806 0
M  V30 33 H 3.47855 -4.69897 -0.980839 0
M  V30 34 H 0.434279 -4.18597 -0.598794 0
M  V30 35 H -0.844093 -2.55451 0.739981 0
M  V30 36 H -2.36814 -0.381513 0.966572 0
M  V30 37 H -4.25653 -0.228765 2.07331 0
M  V30 38 H -5.67554 -2.13126 2.4282 0
M  V30 39 H -7.39466 -2.77342 0.787548 0
M  V30 40 H -7.65875 -1.45867 -1.30359 0
M  V30 41 H -6.13626 0.507593 -1.67524 0
M  V30 42 H -3.03454 4.00265 -1.70201 0
M  V30 43 H -3.53556 4.49479 -0.0619735 0
M  V30 44 H -0.434107 3.9585 -0.0870437 0
M  V30 45 H 0.975045 2.169 0.904835 0
M  V30 46 H 2.53737 0.0686452 0.688753 0
M  V30 47 H 5.76485 -0.257795 -2.42281 0
M  V30 48 H 7.32038 1.56515 -1.85031 0
M  V30 49 H 7.44226 2.37736 0.418221 0
M  V30 50 H 6.01027 1.37771 2.15119 0
M  V30 51 H 4.51403 -0.396332 1.6629 0
M  V30 END ATOM
M  V30 BEGIN BOND
M  V30 1 1 1 2
M  V30 2 2 2 3
M  V30 3 1 3 4
M  V30 4 2 4 5
M  V30 5 1 5 6
M  V30 6 1 6 7
M  V30 7 2 7 8
M  V30 8 1 8 9
M  V30 9 1 9 10
M  V30 10 2 10 11
M  V30 11 1 10 12
M  V30 12 2 12 13
M  V30 13 1 13 14
M  V30 14 2 14 15
M  V30 15 1 15 16
M  V30 16 2 16 17
M  V30 17 2 9 18
M  V30 18 1 18 19
M  V30 19 1 18 20
M  V30 20 2 20 21
M  V30 21 1 5 22
M  V30 22 2 22 23
M  V30 23 1 23 24
M  V30 24 2 24 25
M  V30 25 1 24 26
M  V30 26 2 26 27
M  V30 27 1 27 28
M  V30 28 2 28 29
M  V30 29 1 29 30
M  V30 30 2 30 31
M  V30 31 1 23 2
M  V30 32 1 31 26
M  V30 33 1 21 7
M  V30 34 1 17 12
M  V30 35 1 1 32
M  V30 36 1 1 33
M  V30 37 1 3 34
M  V30 38 1 4 35
M  V30 39 1 8 36
M  V30 40 1 13 37
M  V30 41 1 14 38
M  V30 42 1 15 39
M  V30 43 1 16 40
M  V30 44 1 17 41
M  V30 45 1 19 42
M  V30 46 1 19 43
M  V30 47 1 20 44
M  V30 48 1 21 45
M  V30 49 1 22 46
M  V30 50 1 27 47
M  V30 51 1 28 48
M  V30 52 1 29 49
M  V30 53 1 30 50
M  V30 54 1 31 51
M  V30 END BOND
M  V30 END CTAB
M  END
