
     RDKit          3D

  0  0  0  0  0  0  0  0  0  0999 V3000
M  V30 BEGIN CTAB
M  V30 COUNTS 41 41 0 0 0
M  V30 BEGIN ATOM
M  V30 1 C -3.98045 2.82602 0.355692 0
M  V30 2 C -3.9764 1.34114 0.623154 0
M  V30 3 C -2.63325 0.728928 0.299431 0
M  V30 4 C -2.6198 -0.758881 0.564929 0
M  V30 5 C -1.31496 -1.36995 0.253792 0
M  V30 6 O -0.676312 -1.9527 1.16267 0
M  V30 7 N -0.726957 -1.336 -1.04274 0
M  V30 8 C 0.540056 -1.93208 -1.335 0
M  V30 9 C 1.6962 -1.1519 -0.847707 0
M  V30 10 C 2.95596 -1.65093 -1.06459 0
M  V30 11 C 4.10273 -1.00413 -0.651373 0
M  V30 12 C 3.95504 0.193163 0.00547535 0
M  V30 13 C 2.70551 0.73207 0.244779 0
M  V30 14 C 1.56724 0.0448555 -0.1903 0
M  V30 15 S 5.41232 1.00637 0.526328 0
M  V30 16 O 5.19128 1.79381 1.7933 0
M  V30 17 O 6.51432 0.0145561 0.815089 0
M  V30 18 N 5.93723 2.04877 -0.720037 0
M  V30 19 N -2.92341 -0.969771 1.96617 0
M  V30 20 C -3.68252 -1.47821 -0.233019 0
M  V30 21 H -3.03071 3.14826 -0.160518 0
M  V30 22 H -4.13781 3.41901 1.28307 0
M  V30 23 H -4.78822 3.06933 -0.352039 0
M  V30 24 H -4.17082 1.20599 1.70731 0
M  V30 25 H -4.79328 0.878969 0.06981 0
M  V30 26 H -1.87964 1.24085 0.930622 0
M  V30 27 H -2.40259 0.978024 -0.750287 0
M  V30 28 H -1.27908 -0.841952 -1.79163 0
M  V30 29 H 0.644015 -2.23413 -2.40021 0
M  V30 30 H 0.568261 -2.90665 -0.763295 0
M  V30 31 H 3.08959 -2.59718 -1.58281 0
M  V30 32 H 5.07355 -1.45317 -0.854467 0
M  V30 33 H 2.6093 1.66835 0.759284 0
M  V30 34 H 0.609851 0.469927 0.000263536 0
M  V30 35 H 5.64867 1.69276 -1.67924 0
M  V30 36 H 6.97205 2.10428 -0.729466 0
M  V30 37 H -2.48819 -0.178293 2.50994 0
M  V30 38 H -2.39947 -1.8223 2.26456 0
M  V30 39 H -3.65621 -1.23145 -1.30354 0
M  V30 40 H -3.56514 -2.55844 -0.0206162 0
M  V30 41 H -4.66795 -1.17731 0.192984 0
M  V30 END ATOM
M  V30 BEGIN BOND
M  V30 1 1 1 2
M  V30 2 1 2 3
M  V30 3 1 3 4
M  V30 4 1 4 5
M  V30 5 2 5 6
M  V30 6 1 5 7
M  V30 7 1 7 8
M  V30 8 1 8 9
M  V30 9 2 9 10
M  V30 10 1 10 11
M  V30 11 2 11 12
M  V30 12 1 12 13
M  V30 13 2 13 14
M  V30 14 1 12 15
M  V30 15 2 15 16
M  V30 16 2 15 17
M  V30 17 1 15 18
M  V30 18 1 4 19
M  V30 19 1 4 20
M  V30 20 1 14 9
M  V30 21 1 1 21
M  V30 22 1 1 22
M  V30 23 1 1 23
M  V30 24 1 2 24
M  V30 25 1 2 25
M  V30 26 1 3 26
M  V30 27 1 3 27
M  V30 28 1 7 28
M  V30 29 1 8 29
M  V30 30 1 8 30
M  V30 31 1 10 31
M  V30 32 1 11 32
M  V30 33 1 13 33
M  V30 34 1 14 34
M  V30 35 1 18 35
M  V30 36 1 18 36
M  V30 37 1 19 37
M  V30 38 1 19 38
M  V30 39 1 20 39
M  V30 40 1 20 40
M  V30 41 1 20 41
M  V30 END BOND
M  V30 END CTAB
M  END
