
     RDKit          3D

  0  0  0  0  0  0  0  0  0  0999 V3000
M  V30 BEGIN CTAB
M  V30 COUNTS 29 30 0 0 0
M  V30 BEGIN ATOM
M  V30 1 N -0.881741 -0.579656 -1.32707 0
M  V30 2 C -1.14685 0.457841 -0.379726 0
M  V30 3 C -2.52064 0.262683 0.279888 0
M  V30 4 C -2.66026 -1.02917 1.02062 0
M  V30 5 S -4.10033 -1.49876 -0.0149301 0
M  V30 6 C -3.60638 0.0574388 -0.778492 0
M  V30 7 C -0.12949 0.434629 0.726392 0
M  V30 8 C 1.24622 0.625928 0.277891 0
M  V30 9 C 1.86688 1.83646 0.165935 0
M  V30 10 C 3.16229 1.88353 -0.267119 0
M  V30 11 N 3.86622 0.778652 -0.593345 0
M  V30 12 C 3.2857 -0.434463 -0.495134 0
M  V30 13 C 1.98673 -0.505089 -0.0627753 0
M  V30 14 N 3.97457 -1.63656 -0.824094 0
M  V30 15 H -1.21463 -1.51437 -1.01492 0
M  V30 16 H -1.13191 -0.340701 -2.29672 0
M  V30 17 H -1.12649 1.42791 -0.90915 0
M  V30 18 H -2.80922 1.11927 0.922829 0
M  V30 19 H -3.02935 -0.930995 2.07519 0
M  V30 20 H -1.83449 -1.73907 0.972459 0
M  V30 21 H -4.38161 0.82218 -0.794991 0
M  V30 22 H -3.21226 -0.12286 -1.80162 0
M  V30 23 H -0.374255 1.28176 1.4239 0
M  V30 24 H -0.202854 -0.544565 1.24264 0
M  V30 25 H 1.27955 2.71426 0.434603 0
M  V30 26 H 3.65721 2.84717 -0.356535 0
M  V30 27 H 1.53023 -1.49113 0.0118756 0
M  V30 28 H 4.9989 -1.7099 -0.64931 0
M  V30 29 H 3.50825 -2.47243 -1.24037 0
M  V30 END ATOM
M  V30 BEGIN BOND
M  V30 1 1 1 2
M  V30 2 1 2 3
M  V30 3 1 3 4
M  V30 4 1 4 5
M  V30 5 1 5 6
M  V30 6 1 2 7
M  V30 7 1 7 8
M  V30 8 2 8 9
M  V30 9 1 9 10
M  V30 10 2 10 11
M  V30 11 1 11 12
M  V30 12 2 12 13
M  V30 13 1 12 14
M  V30 14 1 6 3
M  V30 15 1 13 8
M  V30 16 1 1 15
M  V30 17 1 1 16
M  V30 18 1 2 17
M  V30 19 1 3 18
M  V30 20 1 4 19
M  V30 21 1 4 20
M  V30 22 1 6 21
M  V30 23 1 6 22
M  V30 24 1 7 23
M  V30 25 1 7 24
M  V30 26 1 9 25
M  V30 27 1 10 26
M  V30 28 1 13 27
M  V30 29 1 14 28
M  V30 30 1 14 29
M  V30 END BOND
M  V30 END CTAB
M  END
