
     RDKit          3D

  0  0  0  0  0  0  0  0  0  0999 V3000
M  V30 BEGIN CTAB
M  V30 COUNTS 49 51 0 0 0
M  V30 BEGIN ATOM
M  V30 1 C -4.44134 -3.10908 -1.64502 0
M  V30 2 C -3.02076 -3.0414 -1.18012 0
M  V30 3 O -2.15807 -3.80425 -1.66425 0
M  V30 4 O -2.65161 -2.14439 -0.220916 0
M  V30 5 C -1.30201 -2.03625 0.262584 0
M  V30 6 C -1.2382 -0.931956 1.3336 0 CFG=1
M  V30 7 O 0.0673777 -0.879535 1.75188 0
M  V30 8 C 0.554685 0.414957 1.50881 0 CFG=2
M  V30 9 C -0.215494 0.847328 0.318004 0 CFG=2
M  V30 10 O -0.155317 2.1371 -0.0795166 0
M  V30 11 C 0.215576 2.60981 -1.31463 0
M  V30 12 C 0.252971 4.0355 -1.66324 0
M  V30 13 O 0.525486 1.67763 -2.13087 0
M  V30 14 C -1.61381 0.348879 0.708157 0 CFG=2
M  V30 15 O -2.33103 1.25829 1.44626 0
M  V30 16 C -3.50216 1.87636 1.12841 0
M  V30 17 C -4.14932 2.82941 2.02726 0
M  V30 18 O -4.02093 1.61159 0.0413248 0
M  V30 19 N 1.96778 0.384069 1.35065 0
M  V30 20 C 2.85392 1.1088 2.05637 0
M  V30 21 N 4.11652 0.843378 1.65748 0
M  V30 22 C 4.02802 -0.0808131 0.665368 0
M  V30 23 C 2.68782 -0.351938 0.490586 0
M  V30 24 N 2.34444 -1.23699 -0.437033 0
M  V30 25 C 3.21268 -1.88832 -1.21898 0
M  V30 26 N 2.74078 -2.81554 -2.18117 0
M  V30 27 N 4.52152 -1.6353 -1.06096 0
M  V30 28 C 4.93136 -0.74286 -0.1312 0
M  V30 29 N 6.30445 -0.485935 0.0255344 0
M  V30 30 H -4.95565 -4.00321 -1.22943 0
M  V30 31 H -4.98976 -2.22054 -1.32436 0
M  V30 32 H -4.44121 -3.12516 -2.76767 0
M  V30 33 H -0.71451 -1.74937 -0.63434 0
M  V30 34 H -0.934629 -2.99787 0.658551 0
M  V30 35 H -1.93793 -1.29098 2.12048 0
M  V30 36 H 0.306252 0.994012 2.41979 0
M  V30 37 H 0.0904377 0.185069 -0.530555 0
M  V30 38 H 1.07626 4.28868 -2.37793 0
M  V30 39 H 0.31899 4.63714 -0.738959 0
M  V30 40 H -0.683144 4.34426 -2.18903 0
M  V30 41 H -2.14643 0.167028 -0.249992 0
M  V30 42 H -5.19364 3.06854 1.74088 0
M  V30 43 H -3.53545 3.76725 2.15911 0
M  V30 44 H -4.20978 2.39931 3.07011 0
M  V30 45 H 2.63469 1.82667 2.85241 0
M  V30 46 H 2.30144 -3.69307 -1.83766 0
M  V30 47 H 2.85447 -2.57782 -3.19474 0
M  V30 48 H 6.81852 0.211591 -0.552404 0
M  V30 49 H 6.81575 -1.03009 0.761353 0
M  V30 END ATOM
M  V30 BEGIN BOND
M  V30 1 1 1 2
M  V30 2 2 2 3
M  V30 3 1 2 4
M  V30 4 1 4 5
M  V30 5 1 5 6
M  V30 6 1 6 7
M  V30 7 1 7 8
M  V30 8 1 8 9
M  V30 9 1 9 10
M  V30 10 1 10 11
M  V30 11 1 11 12
M  V30 12 2 11 13
M  V30 13 1 9 14
M  V30 14 1 14 15
M  V30 15 1 15 16
M  V30 16 1 16 17
M  V30 17 2 16 18
M  V30 18 1 8 19
M  V30 19 1 19 20
M  V30 20 2 20 21
M  V30 21 1 21 22
M  V30 22 2 22 23
M  V30 23 1 23 24
M  V30 24 2 24 25
M  V30 25 1 25 26
M  V30 26 1 25 27
M  V30 27 2 27 28
M  V30 28 1 28 29
M  V30 29 1 14 6
M  V30 30 1 23 19
M  V30 31 1 28 22
M  V30 32 1 1 30
M  V30 33 1 1 31
M  V30 34 1 1 32
M  V30 35 1 5 33
M  V30 36 1 5 34
M  V30 37 1 6 35 CFG=1
M  V30 38 1 8 36 CFG=1
M  V30 39 1 9 37 CFG=3
M  V30 40 1 12 38
M  V30 41 1 12 39
M  V30 42 1 12 40
M  V30 43 1 14 41 CFG=3
M  V30 44 1 17 42
M  V30 45 1 17 43
M  V30 46 1 17 44
M  V30 47 1 20 45
M  V30 48 1 26 46
M  V30 49 1 26 47
M  V30 50 1 29 48
M  V30 51 1 29 49
M  V30 END BOND
M  V30 END CTAB
M  END
