
     RDKit          3D

  0  0  0  0  0  0  0  0  0  0999 V3000
M  V30 BEGIN CTAB
M  V30 COUNTS 36 38 0 0 0
M  V30 BEGIN ATOM
M  V30 1 C -5.57745 0.49359 0.46707 0
M  V30 2 C -4.17078 0.752624 0.0940197 0
M  V30 3 N -3.80946 1.86626 -0.551777 0
M  V30 4 C -2.53187 2.1128 -0.896508 0
M  V30 5 N -2.11887 3.28255 -1.58051 0
M  V30 6 N -1.62083 1.19947 -0.570495 0
M  V30 7 C -1.87954 0.0290255 0.0876064 0
M  V30 8 C -3.17219 -0.178981 0.415081 0
M  V30 9 C -0.732829 -0.816349 0.351809 0
M  V30 10 C 0.532831 -0.367882 0.0353616 0
M  V30 11 C 1.68028 -1.10732 0.240954 0
M  V30 12 C 1.50764 -2.34754 0.790751 0
M  V30 13 C 0.27717 -2.8437 1.12402 0
M  V30 14 C -0.854233 -2.06008 0.897693 0
M  V30 15 O -2.05233 -2.64072 1.26228 0
M  V30 16 C 2.98533 -0.570588 -0.116704 0
M  V30 17 N 3.09137 0.671981 -0.660593 0
M  V30 18 C 4.26622 1.21894 -1.00991 0
M  V30 19 N 4.31927 2.53115 -1.57854 0
M  V30 20 N 5.38664 0.509428 -0.814396 0
M  V30 21 C 5.3852 -0.721949 -0.285503 0
M  V30 22 C 4.1399 -1.26327 0.0682566 0
M  V30 23 H -6.08543 -0.163894 -0.285376 0
M  V30 24 H -6.15883 1.41703 0.589931 0
M  V30 25 H -5.57783 -0.114584 1.41502 0
M  V30 26 H -2.37499 3.40384 -2.57943 0
M  V30 27 H -1.56493 4.03501 -1.12566 0
M  V30 28 H -3.46697 -1.06395 0.939034 0
M  V30 29 H 0.654937 0.627016 -0.403548 0
M  V30 30 H 2.36589 -2.97005 0.974506 0
M  V30 31 H 0.19861 -3.84351 1.56133 0
M  V30 32 H -2.11375 -3.54893 1.658 0
M  V30 33 H 3.58484 3.22875 -1.32392 0
M  V30 34 H 5.05651 2.81134 -2.23007 0
M  V30 35 H 6.2792 -1.31064 -0.119807 0
M  V30 36 H 4.15129 -2.25686 0.493801 0
M  V30 END ATOM
M  V30 BEGIN BOND
M  V30 1 1 1 2
M  V30 2 2 2 3
M  V30 3 1 3 4
M  V30 4 1 4 5
M  V30 5 2 4 6
M  V30 6 1 6 7
M  V30 7 2 7 8
M  V30 8 1 7 9
M  V30 9 2 9 10
M  V30 10 1 10 11
M  V30 11 2 11 12
M  V30 12 1 12 13
M  V30 13 2 13 14
M  V30 14 1 14 15
M  V30 15 1 11 16
M  V30 16 2 16 17
M  V30 17 1 17 18
M  V30 18 1 18 19
M  V30 19 2 18 20
M  V30 20 1 20 21
M  V30 21 2 21 22
M  V30 22 1 8 2
M  V30 23 1 14 9
M  V30 24 1 22 16
M  V30 25 1 1 23
M  V30 26 1 1 24
M  V30 27 1 1 25
M  V30 28 1 5 26
M  V30 29 1 5 27
M  V30 30 1 8 28
M  V30 31 1 10 29
M  V30 32 1 12 30
M  V30 33 1 13 31
M  V30 34 1 15 32
M  V30 35 1 19 33
M  V30 36 1 19 34
M  V30 37 1 21 35
M  V30 38 1 22 36
M  V30 END BOND
M  V30 END CTAB
M  END
