
     RDKit          3D

  0  0  0  0  0  0  0  0  0  0999 V3000
M  V30 BEGIN CTAB
M  V30 COUNTS 26 27 0 0 0
M  V30 BEGIN ATOM
M  V30 1 N 4.73904 0.0160787 0.586328 0
M  V30 2 C 3.33537 -0.0419613 0.435077 0
M  V30 3 C 2.62456 -0.993849 1.13455 0
M  V30 4 C 1.25584 -1.06641 1.00055 0
M  V30 5 C 0.625735 -0.165584 0.152955 0
M  V30 6 C 1.30651 0.796492 -0.559486 0
M  V30 7 C 2.68671 0.842551 -0.401495 0
M  V30 8 C -0.820592 -0.279888 0.0387418 0
M  V30 9 C -1.39907 -1.53204 -0.146092 0
M  V30 10 C -2.76178 -1.61573 -0.253948 0
M  V30 11 C -3.55129 -0.483721 -0.181518 0
M  V30 12 C -3.01314 0.765199 8.80983e-05 0
M  V30 13 C -1.62314 0.838517 0.108781 0
M  V30 14 F -1.0637 2.05456 0.291251 0
M  V30 15 N -3.77552 1.95028 0.0805413 0
M  V30 16 F -4.90461 -0.610747 -0.293704 0
M  V30 17 H 5.19628 0.958187 0.682119 0
M  V30 18 H 5.37068 -0.801161 0.611883 0
M  V30 19 H 3.11088 -1.69477 1.79349 0
M  V30 20 H 0.655694 -1.80947 1.54011 0
M  V30 21 H 0.811502 1.50628 -1.22976 0
M  V30 22 H 3.26246 1.58248 -0.941895 0
M  V30 23 H -0.74756 -2.39271 -0.197454 0
M  V30 24 H -3.19171 -2.60766 -0.398326 0
M  V30 25 H -3.98084 2.54888 -0.739852 0
M  V30 26 H -4.14832 2.23619 1.00469 0
M  V30 END ATOM
M  V30 BEGIN BOND
M  V30 1 1 1 2
M  V30 2 2 2 3
M  V30 3 1 3 4
M  V30 4 2 4 5
M  V30 5 1 5 6
M  V30 6 2 6 7
M  V30 7 1 5 8
M  V30 8 2 8 9
M  V30 9 1 9 10
M  V30 10 2 10 11
M  V30 11 1 11 12
M  V30 12 2 12 13
M  V30 13 1 13 14
M  V30 14 1 12 15
M  V30 15 1 11 16
M  V30 16 1 7 2
M  V30 17 1 13 8
M  V30 18 1 1 17
M  V30 19 1 1 18
M  V30 20 1 3 19
M  V30 21 1 4 20
M  V30 22 1 6 21
M  V30 23 1 7 22
M  V30 24 1 9 23
M  V30 25 1 10 24
M  V30 26 1 15 25
M  V30 27 1 15 26
M  V30 END BOND
M  V30 END CTAB
M  END
