
     RDKit          3D

  0  0  0  0  0  0  0  0  0  0999 V3000
M  V30 BEGIN CTAB
M  V30 COUNTS 24 25 0 0 0
M  V30 BEGIN ATOM
M  V30 1 C 3.81347 2.13421 -0.420292 0
M  V30 2 C 2.65839 1.18848 -0.202477 0
M  V30 3 N 2.71868 -0.0828562 0.152791 0
M  V30 4 C 1.62847 -0.767474 0.300643 0
M  V30 5 C 0.440112 -0.110083 0.072079 0
M  V30 6 S 0.979277 1.45299 -0.340922 0
M  V30 7 C -0.927274 -0.657135 0.169531 0
M  V30 8 N -1.3016 -1.88894 0.493622 0
M  V30 9 N -2.62212 -1.94725 0.458583 0
M  V30 10 C -3.12945 -0.734496 0.105636 0
M  V30 11 N -2.04342 0.0528877 -0.0687816 0
M  V30 12 N -2.1149 1.3959 -0.440688 0
M  V30 13 N -4.49821 -0.411044 -0.0361907 0
M  V30 14 C 1.62607 -2.23047 0.70632 0
M  V30 15 H 4.1602 1.98101 -1.46058 0
M  V30 16 H 4.64755 1.89215 0.271919 0
M  V30 17 H 3.45046 3.16155 -0.226694 0
M  V30 18 H -1.71155 2.17898 0.121245 0
M  V30 19 H -2.59729 1.64703 -1.33102 0
M  V30 20 H -5.09496 -0.832283 -0.767209 0
M  V30 21 H -4.91682 0.273118 0.616984 0
M  V30 22 H 0.984792 -2.34816 1.60917 0
M  V30 23 H 1.20941 -2.85631 -0.0847934 0
M  V30 24 H 2.64074 -2.4918 1.03242 0
M  V30 END ATOM
M  V30 BEGIN BOND
M  V30 1 1 1 2
M  V30 2 2 2 3
M  V30 3 1 3 4
M  V30 4 2 4 5
M  V30 5 1 5 6
M  V30 6 1 5 7
M  V30 7 2 7 8
M  V30 8 1 8 9
M  V30 9 2 9 10
M  V30 10 1 10 11
M  V30 11 1 11 12
M  V30 12 1 10 13
M  V30 13 1 4 14
M  V30 14 1 6 2
M  V30 15 1 11 7
M  V30 16 1 1 15
M  V30 17 1 1 16
M  V30 18 1 1 17
M  V30 19 1 12 18
M  V30 20 1 12 19
M  V30 21 1 13 20
M  V30 22 1 13 21
M  V30 23 1 14 22
M  V30 24 1 14 23
M  V30 25 1 14 24
M  V30 END BOND
M  V30 END CTAB
M  END
