
     RDKit          3D

  0  0  0  0  0  0  0  0  0  0999 V3000
M  V30 BEGIN CTAB
M  V30 COUNTS 46 49 0 0 0
M  V30 BEGIN ATOM
M  V30 1 N -2.67652 -3.01407 -3.94463 0
M  V30 2 C -2.72646 -2.06751 -2.85589 0
M  V30 3 N -3.81244 -1.30781 -2.63688 0
M  V30 4 C -3.8684 -0.414793 -1.61099 0
M  V30 5 N -5.00624 0.370004 -1.35434 0
M  V30 6 C -2.78034 -0.260036 -0.740595 0
M  V30 7 C -2.8533 0.611818 0.411976 0
M  V30 8 C -3.56225 0.0947176 1.51678 0
M  V30 9 C -3.71189 0.803754 2.67038 0
M  V30 10 C -3.16767 2.06023 2.78771 0
M  V30 11 Cl -3.35604 2.96676 4.26944 0
M  V30 12 C -2.47614 2.56178 1.70837 0
M  V30 13 Cl -1.77892 4.17824 1.91713 0
M  V30 14 C -2.31689 1.86159 0.540023 0
M  V30 15 C -1.68585 -1.03483 -0.97543 0
M  V30 16 C -0.435716 -0.907124 -0.199328 0
M  V30 17 C 0.484205 0.0189351 -0.986978 0
M  V30 18 C 1.76928 0.259129 -0.306257 0
M  V30 19 C 2.00513 1.34725 0.521426 0
M  V30 20 C 3.22583 1.52273 1.14253 0
M  V30 21 C 4.25777 0.608643 0.957267 0
M  V30 22 C 5.5011 0.75056 1.57125 0
M  V30 23 C 6.50605 -0.160872 1.38526 0
M  V30 24 C 6.25848 -1.24164 0.563458 0
M  V30 25 C 5.03074 -1.38927 -0.0493057 0
M  V30 26 C 4.02871 -0.467933 0.143585 0
M  V30 27 C 2.79981 -0.636822 -0.478162 0
M  V30 28 N -1.69058 -1.91793 -2.0255 0
M  V30 29 H -1.99877 -2.92963 -4.71634 0
M  V30 30 H -3.35159 -3.81922 -3.95329 0
M  V30 31 H -4.98211 1.38468 -1.54804 0
M  V30 32 H -5.89467 -0.0318619 -0.975509 0
M  V30 33 H -4.01152 -0.892213 1.46546 0
M  V30 34 H -4.27415 0.357347 3.50024 0
M  V30 35 H -1.76467 2.28851 -0.313361 0
M  V30 36 H -0.617174 -0.400267 0.777389 0
M  V30 37 H -0.0039788 -1.91081 -0.0784684 0
M  V30 38 H -0.052472 0.944708 -1.21064 0
M  V30 39 H 0.663462 -0.475988 -2.00135 0
M  V30 40 H 1.23851 2.10143 0.696803 0
M  V30 41 H 3.43788 2.36925 1.7894 0
M  V30 42 H 5.6957 1.60048 2.21231 0
M  V30 43 H 7.48081 -0.065276 1.84865 0
M  V30 44 H 6.99583 -1.97702 0.38157 0
M  V30 45 H 4.84372 -2.22836 -0.688948 0
M  V30 46 H 2.63374 -1.51125 -1.12817 0
M  V30 END ATOM
M  V30 BEGIN BOND
M  V30 1 1 1 2
M  V30 2 2 2 3
M  V30 3 1 3 4
M  V30 4 1 4 5
M  V30 5 2 4 6
M  V30 6 1 6 7
M  V30 7 2 7 8
M  V30 8 1 8 9
M  V30 9 2 9 10
M  V30 10 1 10 11
M  V30 11 1 10 12
M  V30 12 1 12 13
M  V30 13 2 12 14
M  V30 14 1 6 15
M  V30 15 1 15 16
M  V30 16 1 16 17
M  V30 17 1 17 18
M  V30 18 2 18 19
M  V30 19 1 19 20
M  V30 20 2 20 21
M  V30 21 1 21 22
M  V30 22 2 22 23
M  V30 23 1 23 24
M  V30 24 2 24 25
M  V30 25 1 25 26
M  V30 26 2 26 27
M  V30 27 2 15 28
M  V30 28 1 28 2
M  V30 29 1 14 7
M  V30 30 1 27 18
M  V30 31 1 26 21
M  V30 32 1 1 29
M  V30 33 1 1 30
M  V30 34 1 5 31
M  V30 35 1 5 32
M  V30 36 1 8 33
M  V30 37 1 9 34
M  V30 38 1 14 35
M  V30 39 1 16 36
M  V30 40 1 16 37
M  V30 41 1 17 38
M  V30 42 1 17 39
M  V30 43 1 19 40
M  V30 44 1 20 41
M  V30 45 1 22 42
M  V30 46 1 23 43
M  V30 47 1 24 44
M  V30 48 1 25 45
M  V30 49 1 27 46
M  V30 END BOND
M  V30 END CTAB
M  END
