
     RDKit          3D

  0  0  0  0  0  0  0  0  0  0999 V3000
M  V30 BEGIN CTAB
M  V30 COUNTS 29 29 0 0 0
M  V30 BEGIN ATOM
M  V30 1 C 4.91932 0.302468 0.138234 0
M  V30 2 C 3.45152 -0.165514 0.135838 0
M  V30 3 C 2.64474 1.07071 0.44573 0
M  V30 4 N 1.25167 0.768599 0.484647 0
M  V30 5 C 0.545981 0.281197 -0.62129 0
M  V30 6 O 1.10127 0.0854166 -1.71099 0
M  V30 7 C -0.875342 -0.0202631 -0.543831 0
M  V30 8 C -1.49738 -0.821193 -1.4951 0
M  V30 9 C -2.83254 -1.11486 -1.45245 0
M  V30 10 N -3.47612 -1.9336 -2.42214 0
M  V30 11 C -3.54397 -0.561403 -0.391578 0
M  V30 12 C -2.95705 0.222857 0.547541 0
M  V30 13 C -1.60182 0.514949 0.495282 0
M  V30 14 N -3.72803 0.761869 1.60837 0
M  V30 15 H 4.92447 1.26256 -0.430527 0
M  V30 16 H 5.17466 0.466346 1.19762 0
M  V30 17 H 5.50711 -0.49318 -0.346293 0
M  V30 18 H 3.37383 -0.925367 0.938277 0
M  V30 19 H 3.22598 -0.571674 -0.863156 0
M  V30 20 H 2.95794 1.52985 1.40211 0
M  V30 21 H 2.86868 1.83294 -0.337806 0
M  V30 22 H 0.761658 0.929271 1.41729 0
M  V30 23 H -0.890925 -1.21484 -2.28515 0
M  V30 24 H -3.14656 -2.0109 -3.40478 0
M  V30 25 H -4.30837 -2.47856 -2.14558 0
M  V30 26 H -4.60854 -0.801652 -0.366333 0
M  V30 27 H -1.18534 1.15421 1.27404 0
M  V30 28 H -3.36938 0.807181 2.59404 0
M  V30 29 H -4.68746 1.12257 1.37937 0
M  V30 END ATOM
M  V30 BEGIN BOND
M  V30 1 1 1 2
M  V30 2 1 2 3
M  V30 3 1 3 4
M  V30 4 1 4 5
M  V30 5 2 5 6
M  V30 6 1 5 7
M  V30 7 2 7 8
M  V30 8 1 8 9
M  V30 9 1 9 10
M  V30 10 2 9 11
M  V30 11 1 11 12
M  V30 12 2 12 13
M  V30 13 1 12 14
M  V30 14 1 13 7
M  V30 15 1 1 15
M  V30 16 1 1 16
M  V30 17 1 1 17
M  V30 18 1 2 18
M  V30 19 1 2 19
M  V30 20 1 3 20
M  V30 21 1 3 21
M  V30 22 1 4 22
M  V30 23 1 8 23
M  V30 24 1 10 24
M  V30 25 1 10 25
M  V30 26 1 11 26
M  V30 27 1 13 27
M  V30 28 1 14 28
M  V30 29 1 14 29
M  V30 END BOND
M  V30 END CTAB
M  END
