
     RDKit          3D

  0  0  0  0  0  0  0  0  0  0999 V3000
M  V30 BEGIN CTAB
M  V30 COUNTS 45 47 0 0 0
M  V30 BEGIN ATOM
M  V30 1 C -5.36859 -0.300123 2.44901 0
M  V30 2 O -4.44419 -1.222 2.16493 0
M  V30 3 C -4.09097 -1.72748 0.976318 0
M  V30 4 C -3.89369 -0.69575 -0.0747021 0
M  V30 5 C -5.04518 -0.0697269 -0.52498 0
M  V30 6 C -5.07379 0.799109 -1.58805 0
M  V30 7 C -6.30848 1.45943 -2.04104 0
M  V30 8 N -3.88028 1.03365 -2.20686 0
M  V30 9 C -2.75913 0.429283 -1.77091 0
M  V30 10 C -2.68551 -0.443753 -0.722254 0
M  V30 11 C -1.46311 -0.852369 -0.315878 0
M  V30 12 N -1.22152 -1.73526 0.802994 0
M  V30 13 C -0.386707 -0.323945 -1.0187 0
M  V30 14 S -1.09283 0.655345 -2.179 0
M  V30 15 C 1.00613 -0.574827 -0.651934 0
M  V30 16 O 1.3088 -1.47593 0.146418 0
M  V30 17 N 2.03433 0.256676 -1.20174 0
M  V30 18 C 3.38402 0.0858619 -0.710686 0
M  V30 19 C 3.48497 -0.288007 0.587386 0
M  V30 20 C 4.72216 -0.474644 1.13122 0
M  V30 21 C 5.84824 -0.295558 0.4012 0
M  V30 22 C 5.75751 0.0832368 -0.910236 0
M  V30 23 C 4.46682 0.281156 -1.48989 0
M  V30 24 S 7.40937 -0.506892 1.16485 0
M  V30 25 O 7.22232 -0.348666 2.67011 0
M  V30 26 O 7.99073 -1.84828 0.925412 0
M  V30 27 N 8.45087 0.802576 0.706693 0
M  V30 28 H -6.41019 -0.43706 2.25323 0
M  V30 29 H -5.04934 0.726589 2.03839 0
M  V30 30 H -5.279 -0.0790153 3.56163 0
M  V30 31 H -3.33304 -2.46466 0.997075 0
M  V30 32 H -5.05641 -2.31666 0.652355 0
M  V30 33 H -6.0279 -0.246987 -0.0632613 0
M  V30 34 H -6.31374 1.50471 -3.17992 0
M  V30 35 H -7.18029 0.934152 -1.62819 0
M  V30 36 H -6.35783 2.51569 -1.72753 0
M  V30 37 H -0.94935 -2.69655 0.732384 0
M  V30 38 H -1.39963 -1.30128 1.76783 0
M  V30 39 H 1.8524 0.982442 -1.92681 0
M  V30 40 H 2.64612 -0.407755 1.27939 0
M  V30 41 H 4.85607 -0.78658 2.1829 0
M  V30 42 H 6.57885 0.256659 -1.56098 0
M  V30 43 H 4.40922 0.609715 -2.49001 0
M  V30 44 H 8.2017 1.0821 -0.292808 0
M  V30 45 H 9.44008 0.466134 0.684659 0
M  V30 END ATOM
M  V30 BEGIN BOND
M  V30 1 1 1 2
M  V30 2 1 2 3
M  V30 3 1 3 4
M  V30 4 2 4 5
M  V30 5 1 5 6
M  V30 6 1 6 7
M  V30 7 2 6 8
M  V30 8 1 8 9
M  V30 9 2 9 10
M  V30 10 1 10 11
M  V30 11 1 11 12
M  V30 12 2 11 13
M  V30 13 1 13 14
M  V30 14 1 13 15
M  V30 15 2 15 16
M  V30 16 1 15 17
M  V30 17 1 17 18
M  V30 18 2 18 19
M  V30 19 1 19 20
M  V30 20 2 20 21
M  V30 21 1 21 22
M  V30 22 2 22 23
M  V30 23 1 21 24
M  V30 24 2 24 25
M  V30 25 2 24 26
M  V30 26 1 24 27
M  V30 27 1 10 4
M  V30 28 1 23 18
M  V30 29 1 14 9
M  V30 30 1 1 28
M  V30 31 1 1 29
M  V30 32 1 1 30
M  V30 33 1 3 31
M  V30 34 1 3 32
M  V30 35 1 5 33
M  V30 36 1 7 34
M  V30 37 1 7 35
M  V30 38 1 7 36
M  V30 39 1 12 37
M  V30 40 1 12 38
M  V30 41 1 17 39
M  V30 42 1 19 40
M  V30 43 1 20 41
M  V30 44 1 22 42
M  V30 45 1 23 43
M  V30 46 1 27 44
M  V30 47 1 27 45
M  V30 END BOND
M  V30 END CTAB
M  END
