
     RDKit          3D

  0  0  0  0  0  0  0  0  0  0999 V3000
M  V30 BEGIN CTAB
M  V30 COUNTS 29 30 0 0 0
M  V30 BEGIN ATOM
M  V30 1 C -2.2954 -2.5794 0.71385 0
M  V30 2 C -1.11502 -1.73613 0.414073 0
M  V30 3 O 0.00746663 -2.27411 0.465251 0
M  V30 4 C -1.22637 -0.329545 0.0693817 0
M  V30 5 N -2.47744 0.218248 0.0295477 0
M  V30 6 C -2.71954 1.49892 -0.266736 0
M  V30 7 N -4.04556 2.03969 -0.299076 0
M  V30 8 N -1.65295 2.28387 -0.540326 0
M  V30 9 C -0.392846 1.81592 -0.520991 0
M  V30 10 N 0.666659 2.72693 -0.825036 0
M  V30 11 C -0.155626 0.484458 -0.21214 0
M  V30 12 C 1.18933 -0.00265111 -0.208318 0
M  V30 13 C 1.69521 -0.544508 -1.37369 0
M  V30 14 C 2.994 -1.00372 -1.35143 0
M  V30 15 C 3.77475 -0.9251 -0.190686 0
M  V30 16 Cl 5.42255 -1.5254 -0.218899 0
M  V30 17 C 3.21951 -0.374345 0.945937 0
M  V30 18 C 1.92402 0.0935009 0.955325 0
M  V30 19 H -2.10446 -3.59501 0.280849 0
M  V30 20 H -3.18967 -2.18046 0.236458 0
M  V30 21 H -2.41196 -2.74245 1.80905 0
M  V30 22 H -4.66993 1.77332 0.492878 0
M  V30 23 H -4.39859 2.65364 -1.03613 0
M  V30 24 H 1.08758 3.36179 -0.132856 0
M  V30 25 H 1.00222 2.71311 -1.82232 0
M  V30 26 H 1.10416 -0.615273 -2.28918 0
M  V30 27 H 3.41903 -1.43605 -2.25831 0
M  V30 28 H 3.84719 -0.328708 1.82312 0
M  V30 29 H 1.50172 0.529462 1.87464 0
M  V30 END ATOM
M  V30 BEGIN BOND
M  V30 1 1 1 2
M  V30 2 2 2 3
M  V30 3 1 2 4
M  V30 4 2 4 5
M  V30 5 1 5 6
M  V30 6 1 6 7
M  V30 7 2 6 8
M  V30 8 1 8 9
M  V30 9 1 9 10
M  V30 10 2 9 11
M  V30 11 1 11 12
M  V30 12 2 12 13
M  V30 13 1 13 14
M  V30 14 2 14 15
M  V30 15 1 15 16
M  V30 16 1 15 17
M  V30 17 2 17 18
M  V30 18 1 11 4
M  V30 19 1 18 12
M  V30 20 1 1 19
M  V30 21 1 1 20
M  V30 22 1 1 21
M  V30 23 1 7 22
M  V30 24 1 7 23
M  V30 25 1 10 24
M  V30 26 1 10 25
M  V30 27 1 13 26
M  V30 28 1 14 27
M  V30 29 1 17 28
M  V30 30 1 18 29
M  V30 END BOND
M  V30 END CTAB
M  END
