
     RDKit          3D

  0  0  0  0  0  0  0  0  0  0999 V3000
M  V30 BEGIN CTAB
M  V30 COUNTS 30 30 0 0 0
M  V30 BEGIN ATOM
M  V30 1 N 1.11248 -3.34485 -0.577577 0
M  V30 2 N 0.834668 -2.12853 0.0466452 0
M  V30 3 C 1.49994 -0.918908 -0.28458 0
M  V30 4 O 2.37647 -1.00059 -1.18488 0
M  V30 5 C 1.15349 0.325743 0.403692 0
M  V30 6 C -0.0982055 0.995648 -0.0495904 0
M  V30 7 C -1.33996 0.215449 0.0687085 0
M  V30 8 C -2.12865 0.165003 1.19394 0
M  V30 9 C -3.30439 -0.577868 1.23471 0
M  V30 10 C -3.71114 -1.29171 0.128967 0
M  V30 11 C -2.92799 -1.24661 -1.00062 0
M  V30 12 C -1.7663 -0.506709 -1.02642 0
M  V30 13 C 2.26436 1.29449 0.238203 0
M  V30 14 O 3.28727 1.00909 -0.42393 0
M  V30 15 N 2.19422 2.58117 0.832155 0
M  V30 16 N 3.24164 3.51331 0.683212 0
M  V30 17 H 2.03621 -3.31668 -1.10522 0
M  V30 18 H 1.16926 -4.11276 0.106995 0
M  V30 19 H 0.107598 -2.14732 0.793528 0
M  V30 20 H 1.0723 0.153096 1.52819 0
M  V30 21 H 0.0506412 1.3609 -1.11231 0
M  V30 22 H -0.167036 1.95889 0.538371 0
M  V30 23 H -1.82445 0.715587 2.06191 0
M  V30 24 H -3.9272 -0.61772 2.12325 0
M  V30 25 H -4.63234 -1.86456 0.183439 0
M  V30 26 H -3.21356 -1.78936 -1.87886 0
M  V30 27 H -1.18244 -0.510938 -1.96132 0
M  V30 28 H 1.38864 2.9215 1.40613 0
M  V30 29 H 3.33974 4.07378 1.55378 0
M  V30 30 H 3.09472 4.09147 -0.174629 0
M  V30 END ATOM
M  V30 BEGIN BOND
M  V30 1 1 1 2
M  V30 2 1 2 3
M  V30 3 2 3 4
M  V30 4 1 3 5
M  V30 5 1 5 6
M  V30 6 1 6 7
M  V30 7 2 7 8
M  V30 8 1 8 9
M  V30 9 2 9 10
M  V30 10 1 10 11
M  V30 11 2 11 12
M  V30 12 1 5 13
M  V30 13 2 13 14
M  V30 14 1 13 15
M  V30 15 1 15 16
M  V30 16 1 12 7
M  V30 17 1 1 17
M  V30 18 1 1 18
M  V30 19 1 2 19
M  V30 20 1 5 20
M  V30 21 1 6 21
M  V30 22 1 6 22
M  V30 23 1 8 23
M  V30 24 1 9 24
M  V30 25 1 10 25
M  V30 26 1 11 26
M  V30 27 1 12 27
M  V30 28 1 15 28
M  V30 29 1 16 29
M  V30 30 1 16 30
M  V30 END BOND
M  V30 END CTAB
M  END
