
     RDKit          3D

  0  0  0  0  0  0  0  0  0  0999 V3000
M  V30 BEGIN CTAB
M  V30 COUNTS 29 29 0 0 0
M  V30 BEGIN ATOM
M  V30 1 N -2.56949 1.20666 1.13562 0
M  V30 2 C -2.98965 0.0389472 0.440596 0
M  V30 3 C -2.06147 -0.26373 -0.7421 0
M  V30 4 N -0.773538 -0.469892 -0.269347 0
M  V30 5 C -0.499114 -1.62425 0.497515 0
M  V30 6 C 0.707776 -2.31972 -0.12561 0
M  V30 7 N 1.65676 -1.32299 -0.608929 0
M  V30 8 C 1.51694 -0.0673046 0.0866705 0 CFG=2
M  V30 9 C 0.194565 0.544746 -0.288788 0
M  V30 10 S 2.90519 0.971222 -0.174437 0
M  V30 11 O 4.16955 0.232363 0.136483 0
M  V30 12 O 2.98382 1.36851 -1.64015 0
M  V30 13 N 2.86314 2.41405 0.724555 0
M  V30 14 H -2.75644 1.26178 2.09889 0
M  V30 15 H -2.81301 2.04289 0.614484 0
M  V30 16 H -2.95386 -0.803585 1.18315 0
M  V30 17 H -4.03351 0.153602 0.133779 0
M  V30 18 H -2.19776 0.501411 -1.5191 0
M  V30 19 H -2.4666 -1.22268 -1.18077 0
M  V30 20 H -1.37153 -2.2797 0.528495 0
M  V30 21 H -0.271246 -1.31197 1.53484 0
M  V30 22 H 1.17096 -2.97581 0.618453 0
M  V30 23 H 0.365538 -2.90163 -1.00849 0
M  V30 24 H 1.67314 -1.25334 -1.62699 0
M  V30 25 H 1.47196 -0.313691 1.18396 0
M  V30 26 H -0.064079 1.29816 0.510729 0
M  V30 27 H 0.229937 1.14882 -1.22236 0
M  V30 28 H 2.12006 3.07241 0.411845 0
M  V30 29 H 3.79197 2.87472 0.642025 0
M  V30 END ATOM
M  V30 BEGIN BOND
M  V30 1 1 1 2
M  V30 2 1 2 3
M  V30 3 1 3 4
M  V30 4 1 4 5
M  V30 5 1 5 6
M  V30 6 1 6 7
M  V30 7 1 7 8
M  V30 8 1 8 9
M  V30 9 1 8 10
M  V30 10 2 10 11
M  V30 11 2 10 12
M  V30 12 1 10 13
M  V30 13 1 9 4
M  V30 14 1 1 14
M  V30 15 1 1 15
M  V30 16 1 2 16
M  V30 17 1 2 17
M  V30 18 1 3 18
M  V30 19 1 3 19
M  V30 20 1 5 20
M  V30 21 1 5 21
M  V30 22 1 6 22
M  V30 23 1 6 23
M  V30 24 1 7 24
M  V30 25 1 8 25 CFG=1
M  V30 26 1 9 26
M  V30 27 1 9 27
M  V30 28 1 13 28
M  V30 29 1 13 29
M  V30 END BOND
M  V30 END CTAB
M  END
