
     RDKit          3D

  0  0  0  0  0  0  0  0  0  0999 V3000
M  V30 BEGIN CTAB
M  V30 COUNTS 28 28 0 0 0
M  V30 BEGIN ATOM
M  V30 1 N 3.82033 -0.0485294 -1.19369 0
M  V30 2 S 2.43525 0.871758 -0.810962 0
M  V30 3 O 2.70303 1.89826 0.225178 0
M  V30 4 O 2.00278 1.5703 -2.08055 0
M  V30 5 C 1.09999 -0.194393 -0.258544 0 CFG=1
M  V30 6 C 1.57429 -0.902511 0.9642 0
M  V30 7 O 0.572587 -1.33369 1.79939 0
M  V30 8 C -0.463423 -1.94134 1.1294 0
M  V30 9 C -1.59231 -0.915219 1.02764 0
M  V30 10 N -1.33069 -0.108859 -0.133631 0
M  V30 11 C -0.135414 0.651067 -0.0233313 0
M  V30 12 S -2.71268 0.734561 -0.625729 0
M  V30 13 O -2.40959 1.47314 -1.90005 0
M  V30 14 O -3.79747 -0.274184 -0.938878 0
M  V30 15 N -3.34021 1.83498 0.509539 0
M  V30 16 H 4.6335 0.0991413 -0.654707 0
M  V30 17 H 3.56759 -0.979293 -1.43781 0
M  V30 18 H 0.856594 -0.910219 -1.0853 0
M  V30 19 H 2.2035 -1.77334 0.616013 0
M  V30 20 H 2.27827 -0.263308 1.56402 0
M  V30 21 H -0.160223 -2.23172 0.107125 0
M  V30 22 H -0.834675 -2.84189 1.68809 0
M  V30 23 H -2.51431 -1.50121 0.82928 0
M  V30 24 H -1.68458 -0.34231 1.96422 0
M  V30 25 H -0.0927446 1.47387 -0.758276 0
M  V30 26 H -0.0484969 1.1387 0.986607 0
M  V30 27 H -2.64231 2.32508 1.08538 0
M  V30 28 H -3.98857 2.49116 0.0475032 0
M  V30 END ATOM
M  V30 BEGIN BOND
M  V30 1 1 1 2
M  V30 2 2 2 3
M  V30 3 2 2 4
M  V30 4 1 2 5
M  V30 5 1 5 6
M  V30 6 1 6 7
M  V30 7 1 7 8
M  V30 8 1 8 9
M  V30 9 1 9 10
M  V30 10 1 10 11
M  V30 11 1 10 12
M  V30 12 2 12 13
M  V30 13 2 12 14
M  V30 14 1 12 15
M  V30 15 1 11 5
M  V30 16 1 1 16
M  V30 17 1 1 17
M  V30 18 1 5 18 CFG=3
M  V30 19 1 6 19
M  V30 20 1 6 20
M  V30 21 1 8 21
M  V30 22 1 8 22
M  V30 23 1 9 23
M  V30 24 1 9 24
M  V30 25 1 11 25
M  V30 26 1 11 26
M  V30 27 1 15 27
M  V30 28 1 15 28
M  V30 END BOND
M  V30 END CTAB
M  END
