
     RDKit          3D

  0  0  0  0  0  0  0  0  0  0999 V3000
M  V30 BEGIN CTAB
M  V30 COUNTS 25 25 0 0 0
M  V30 BEGIN ATOM
M  V30 1 N 2.26286 -1.22629 -0.672608 0
M  V30 2 C 1.95361 -0.344493 0.418701 0
M  V30 3 C 0.435626 -0.245166 0.654062 0
M  V30 4 C 0.265136 0.695987 1.8067 0
M  V30 5 S 0.462329 2.38054 1.15987 0
M  V30 6 C -0.671266 2.40483 -0.241035 0
M  V30 7 C -0.735575 1.13674 -1.01003 0
M  V30 8 N -0.196768 -0.0189747 -0.52689 0
M  V30 9 S -1.15379 -1.37174 -1.02339 0
M  V30 10 O -1.93924 -1.03503 -2.28076 0
M  V30 11 O -0.364204 -2.59751 -1.24057 0
M  V30 12 N -2.35094 -1.58146 0.22935 0
M  V30 13 H 2.46184 -0.613928 -1.5103 0
M  V30 14 H 3.19319 -1.70922 -0.49048 0
M  V30 15 H 2.3743 0.672262 0.241999 0
M  V30 16 H 2.45913 -0.7323 1.32452 0
M  V30 17 H 0.166368 -1.26465 1.06935 0
M  V30 18 H -0.69555 0.566594 2.33676 0
M  V30 19 H 1.06793 0.537004 2.55683 0
M  V30 20 H -1.68094 2.69746 0.176059 0
M  V30 21 H -0.383267 3.30032 -0.866234 0
M  V30 22 H -1.82687 0.982841 -1.2777 0
M  V30 23 H -0.276943 1.37076 -2.02278 0
M  V30 24 H -1.90701 -1.58817 1.16575 0
M  V30 25 H -2.91996 -2.4164 0.0228342 0
M  V30 END ATOM
M  V30 BEGIN BOND
M  V30 1 1 1 2
M  V30 2 1 2 3
M  V30 3 1 3 4
M  V30 4 1 4 5
M  V30 5 1 5 6
M  V30 6 1 6 7
M  V30 7 1 7 8
M  V30 8 1 8 9
M  V30 9 2 9 10
M  V30 10 2 9 11
M  V30 11 1 9 12
M  V30 12 1 8 3
M  V30 13 1 1 13
M  V30 14 1 1 14
M  V30 15 1 2 15
M  V30 16 1 2 16
M  V30 17 1 3 17
M  V30 18 1 4 18
M  V30 19 1 4 19
M  V30 20 1 6 20
M  V30 21 1 6 21
M  V30 22 1 7 22
M  V30 23 1 7 23
M  V30 24 1 12 24
M  V30 25 1 12 25
M  V30 END BOND
M  V30 END CTAB
M  END
