
     RDKit          3D

  0  0  0  0  0  0  0  0  0  0999 V3000
M  V30 BEGIN CTAB
M  V30 COUNTS 26 26 0 0 0
M  V30 BEGIN ATOM
M  V30 1 N -2.7963 0.215095 2.28356 0
M  V30 2 C -2.1536 0.153295 1.01451 0
M  V30 3 C -0.809203 0.397881 0.901452 0
M  V30 4 C -0.227532 0.327342 -0.346427 0
M  V30 5 C -0.984672 0.0164165 -1.46009 0
M  V30 6 C -2.34223 -0.234725 -1.37423 0
M  V30 7 C -2.90402 -0.15871 -0.115366 0
M  V30 8 N -3.09382 -0.551994 -2.53826 0
M  V30 9 N 1.14149 0.566202 -0.530901 0
M  V30 10 S 2.28152 -0.0293553 0.340069 0
M  V30 11 O 1.6629 -0.881227 1.40271 0
M  V30 12 C 3.39447 -1.04575 -0.589448 0
M  V30 13 C 3.21232 1.31945 1.0195 0
M  V30 14 H -2.34005 0.609472 3.11432 0
M  V30 15 H -3.76383 -0.148145 2.39113 0
M  V30 16 H -0.235126 0.641375 1.7985 0
M  V30 17 H -0.550349 -0.0456654 -2.45577 0
M  V30 18 H -3.97929 -0.349549 0.00752903 0
M  V30 19 H -4.0216 -0.10528 -2.7095 0
M  V30 20 H -2.76673 -1.2302 -3.26402 0
M  V30 21 H 4.11591 -1.48181 0.141233 0
M  V30 22 H 4.00474 -0.463179 -1.30592 0
M  V30 23 H 2.89961 -1.88712 -1.08506 0
M  V30 24 H 3.22891 2.15942 0.265616 0
M  V30 25 H 4.27436 1.02665 1.15744 0
M  V30 26 H 2.75213 1.7345 1.93744 0
M  V30 END ATOM
M  V30 BEGIN BOND
M  V30 1 1 1 2
M  V30 2 2 2 3
M  V30 3 1 3 4
M  V30 4 2 4 5
M  V30 5 1 5 6
M  V30 6 2 6 7
M  V30 7 1 6 8
M  V30 8 1 4 9
M  V30 9 2 9 10 CFG=2
M  V30 10 2 10 11
M  V30 11 1 10 12
M  V30 12 1 10 13
M  V30 13 1 7 2
M  V30 14 1 1 14
M  V30 15 1 1 15
M  V30 16 1 3 16
M  V30 17 1 5 17
M  V30 18 1 7 18
M  V30 19 1 8 19
M  V30 20 1 8 20
M  V30 21 1 12 21
M  V30 22 1 12 22
M  V30 23 1 12 23
M  V30 24 1 13 24
M  V30 25 1 13 25
M  V30 26 1 13 26
M  V30 END BOND
M  V30 END CTAB
M  END
