
     RDKit          3D

  0  0  0  0  0  0  0  0  0  0999 V3000
M  V30 BEGIN CTAB
M  V30 COUNTS 28 27 0 0 0
M  V30 BEGIN ATOM
M  V30 1 C -1.34288 -2.0709 0.139162 0
M  V30 2 C -1.12633 -0.576129 0.125799 0
M  V30 3 S 0.291284 -0.0789178 1.11253 0
M  V30 4 C 1.85148 -0.656713 0.492985 0
M  V30 5 C 2.27893 -0.0662649 -0.834973 0
M  V30 6 N 3.57779 -0.6882 -1.13209 0
M  V30 7 C 2.49586 1.38642 -0.755094 0
M  V30 8 O 1.45729 2.27617 -0.562515 0
M  V30 9 O 3.65598 1.83946 -0.86393 0
M  V30 10 C -2.4057 0.0726588 0.596937 0 CFG=2
M  V30 11 N -3.52408 -0.257096 -0.255288 0
M  V30 12 C -2.30896 1.52368 0.735006 0
M  V30 13 O -1.33295 2.20541 1.4402 0
M  V30 14 O -3.18512 2.24414 0.16633 0
M  V30 15 H -2.40124 -2.34813 0.3205 0
M  V30 16 H -1.05568 -2.54477 -0.828664 0
M  V30 17 H -0.779752 -2.54057 0.97928 0
M  V30 18 H -0.953388 -0.263164 -0.917111 0
M  V30 19 H 2.64313 -0.383987 1.22385 0
M  V30 20 H 1.91614 -1.76077 0.373104 0
M  V30 21 H 1.59362 -0.340116 -1.63881 0
M  V30 22 H 3.54304 -1.72205 -0.972426 0
M  V30 23 H 4.32941 -0.266271 -0.543847 0
M  V30 24 H 1.39605 2.75537 0.339824 0
M  V30 25 H -2.69398 -0.318866 1.6172 0
M  V30 26 H -3.25379 -1.00464 -0.93314 0
M  V30 27 H -3.76004 0.582865 -0.824413 0
M  V30 28 H -0.906124 3.00139 0.945085 0
M  V30 END ATOM
M  V30 BEGIN BOND
M  V30 1 1 1 2
M  V30 2 1 2 3
M  V30 3 1 3 4
M  V30 4 1 4 5
M  V30 5 1 5 6
M  V30 6 1 5 7
M  V30 7 1 7 8
M  V30 8 2 7 9
M  V30 9 1 2 10
M  V30 10 1 10 11
M  V30 11 1 10 12
M  V30 12 1 12 13
M  V30 13 2 12 14
M  V30 14 1 1 15
M  V30 15 1 1 16
M  V30 16 1 1 17
M  V30 17 1 2 18
M  V30 18 1 4 19
M  V30 19 1 4 20
M  V30 20 1 5 21
M  V30 21 1 6 22
M  V30 22 1 6 23
M  V30 23 1 8 24
M  V30 24 1 10 25 CFG=1
M  V30 25 1 11 26
M  V30 26 1 11 27
M  V30 27 1 13 28
M  V30 END BOND
M  V30 END CTAB
M  END
