
     RDKit          3D

  0  0  0  0  0  0  0  0  0  0999 V3000
M  V30 BEGIN CTAB
M  V30 COUNTS 48 50 0 0 0
M  V30 BEGIN ATOM
M  V30 1 C -7.06173 -1.61903 -0.0608613 0
M  V30 2 O -6.21424 -0.503588 -0.0972807 0
M  V30 3 C -4.86698 -0.508979 -0.111278 0
M  V30 4 C -4.21804 0.748827 -0.107087 0
M  V30 5 O -5.03305 1.82983 -0.0866233 0
M  V30 6 C -4.94374 3.16872 -0.0454056 0
M  V30 7 C -2.82452 0.80708 -0.115815 0
M  V30 8 C -2.03115 -0.284782 -0.127749 0
M  V30 9 C -2.72454 -1.52594 -0.133432 0
M  V30 10 C -4.07687 -1.62832 -0.121097 0
M  V30 11 N -0.684876 -0.292576 -0.00943764 0
M  V30 12 C -0.214585 -0.182673 1.43554 0
M  V30 13 C 0.401775 -0.612202 -0.870471 0
M  V30 14 C 1.61177 0.171751 -0.506536 0
M  V30 15 C 2.82346 -0.548939 -0.463017 0
M  V30 16 C 2.84561 -1.97105 -0.793161 0
M  V30 17 C 3.9832 0.148587 -0.206379 0
M  V30 18 C 3.94958 1.54429 -0.0126526 0
M  V30 19 N 2.76831 2.16345 -0.0810873 0
M  V30 20 C 1.61976 1.51152 -0.319404 0
M  V30 21 N 5.08804 2.18686 0.312081 0
M  V30 22 C 6.2293 1.48831 0.460253 0
M  V30 23 N 7.45647 2.12466 0.784534 0
M  V30 24 N 6.28338 0.166347 0.29985 0
M  V30 25 C 5.1657 -0.517774 -0.029352 0
M  V30 26 N 5.20246 -1.9606 0.0914353 0
M  V30 27 H -6.48531 -2.56586 -0.213644 0
M  V30 28 H -7.88302 -1.56393 -0.793504 0
M  V30 29 H -7.49672 -1.6266 0.981405 0
M  V30 30 H -5.90926 3.63953 0.328976 0
M  V30 31 H -4.12295 3.56742 0.594853 0
M  V30 32 H -4.82202 3.65999 -1.05843 0
M  V30 33 H -2.39574 1.82291 -0.118342 0
M  V30 34 H -2.10667 -2.43585 -0.141169 0
M  V30 35 H -4.57001 -2.62657 -0.0994393 0
M  V30 36 H 0.82942 0.0324652 1.50303 0
M  V30 37 H -0.912788 0.368147 2.03542 0
M  V30 38 H -0.308614 -1.30095 1.73594 0
M  V30 39 H 0.129785 -0.153925 -1.91029 0
M  V30 40 H 0.491807 -1.665 -0.934243 0
M  V30 41 H 2.50497 -2.66774 -0.0500085 0
M  V30 42 H 3.64089 -2.3056 -1.49883 0
M  V30 43 H 2.0064 -2.0389 -1.60009 0
M  V30 44 H 0.68245 2.11043 -0.383001 0
M  V30 45 H 7.61737 3.11874 0.546993 0
M  V30 46 H 8.24023 1.61455 1.26572 0
M  V30 47 H 5.68977 -2.60416 -0.506849 0
M  V30 48 H 4.64552 -2.28286 0.964961 0
M  V30 END ATOM
M  V30 BEGIN BOND
M  V30 1 1 1 2
M  V30 2 1 2 3
M  V30 3 2 3 4
M  V30 4 1 4 5
M  V30 5 1 5 6
M  V30 6 1 4 7
M  V30 7 2 7 8
M  V30 8 1 8 9
M  V30 9 2 9 10
M  V30 10 1 8 11
M  V30 11 1 11 12
M  V30 12 1 11 13
M  V30 13 1 13 14
M  V30 14 2 14 15
M  V30 15 1 15 16
M  V30 16 1 15 17
M  V30 17 2 17 18
M  V30 18 1 18 19
M  V30 19 2 19 20
M  V30 20 1 18 21
M  V30 21 2 21 22
M  V30 22 1 22 23
M  V30 23 1 22 24
M  V30 24 2 24 25
M  V30 25 1 25 26
M  V30 26 1 10 3
M  V30 27 1 20 14
M  V30 28 1 25 17
M  V30 29 1 1 27
M  V30 30 1 1 28
M  V30 31 1 1 29
M  V30 32 1 6 30
M  V30 33 1 6 31
M  V30 34 1 6 32
M  V30 35 1 7 33
M  V30 36 1 9 34
M  V30 37 1 10 35
M  V30 38 1 12 36
M  V30 39 1 12 37
M  V30 40 1 12 38
M  V30 41 1 13 39
M  V30 42 1 13 40
M  V30 43 1 16 41
M  V30 44 1 16 42
M  V30 45 1 16 43
M  V30 46 1 20 44
M  V30 47 1 23 45
M  V30 48 1 23 46
M  V30 49 1 26 47
M  V30 50 1 26 48
M  V30 END BOND
M  V30 END CTAB
M  END
