
     RDKit          3D

  0  0  0  0  0  0  0  0  0  0999 V3000
M  V30 BEGIN CTAB
M  V30 COUNTS 30 30 0 0 0
M  V30 BEGIN ATOM
M  V30 1 C -2.41798 -0.783198 -1.12737 0
M  V30 2 C -1.90454 0.513049 -0.52578 0
M  V30 3 C -1.49384 0.349189 0.897743 0 CFG=2
M  V30 4 C -0.416622 -0.631467 1.16951 0
M  V30 5 C 0.874097 -0.352623 0.514458 0
M  V30 6 N 1.96713 -1.12714 0.614704 0
M  V30 7 N 2.96185 -0.631482 -0.0629377 0
M  V30 8 C 2.53882 0.505556 -0.637967 0
M  V30 9 N 1.25023 0.662991 -0.272189 0
M  V30 10 N 3.32426 1.34726 -1.46147 0
M  V30 11 C 4.31687 -1.19423 -0.193201 0
M  V30 12 N -2.66574 -0.101132 1.67442 0
M  V30 13 C -3.07191 1.49551 -0.609444 0
M  V30 14 H -2.48124 -0.646691 -2.24235 0
M  V30 15 H -3.42749 -1.01212 -0.746699 0
M  V30 16 H -1.76701 -1.63536 -0.954359 0
M  V30 17 H -1.11916 0.930945 -1.15219 0
M  V30 18 H -1.25191 1.34423 1.34496 0
M  V30 19 H -0.784555 -1.63137 0.833347 0
M  V30 20 H -0.304921 -0.664752 2.29653 0
M  V30 21 H 4.19766 1.79618 -1.12374 0
M  V30 22 H 3.03001 1.53232 -2.4408 0
M  V30 23 H 4.50199 -1.72179 0.782362 0
M  V30 24 H 4.3348 -1.9542 -0.988844 0
M  V30 25 H 5.03997 -0.3874 -0.318979 0
M  V30 26 H -2.35926 -0.0429136 2.6919 0
M  V30 27 H -2.76814 -1.14829 1.51311 0
M  V30 28 H -3.81432 1.30191 0.174276 0
M  V30 29 H -2.70614 2.54478 -0.535955 0
M  V30 30 H -3.5829 1.34224 -1.59921 0
M  V30 END ATOM
M  V30 BEGIN BOND
M  V30 1 1 1 2
M  V30 2 1 2 3
M  V30 3 1 3 4
M  V30 4 1 4 5
M  V30 5 2 5 6
M  V30 6 1 6 7
M  V30 7 1 7 8
M  V30 8 2 8 9
M  V30 9 1 8 10
M  V30 10 1 7 11
M  V30 11 1 3 12
M  V30 12 1 2 13
M  V30 13 1 9 5
M  V30 14 1 1 14
M  V30 15 1 1 15
M  V30 16 1 1 16
M  V30 17 1 2 17
M  V30 18 1 3 18 CFG=1
M  V30 19 1 4 19
M  V30 20 1 4 20
M  V30 21 1 10 21
M  V30 22 1 10 22
M  V30 23 1 11 23
M  V30 24 1 11 24
M  V30 25 1 11 25
M  V30 26 1 12 26
M  V30 27 1 12 27
M  V30 28 1 13 28
M  V30 29 1 13 29
M  V30 30 1 13 30
M  V30 END BOND
M  V30 END CTAB
M  END
