
     RDKit          3D

  0  0  0  0  0  0  0  0  0  0999 V3000
M  V30 BEGIN CTAB
M  V30 COUNTS 20 20 0 0 0
M  V30 BEGIN ATOM
M  V30 1 N -1.29341 2.49275 -0.625944 0
M  V30 2 C -0.894204 1.15462 -0.326875 0
M  V30 3 C 0.44863 0.870701 -0.114314 0
M  V30 4 C 0.839622 -0.401661 0.171408 0
M  V30 5 O 2.17077 -0.727238 0.390447 0
M  V30 6 C 3.23614 0.169963 0.348372 0
M  V30 7 F 3.11594 1.18618 1.26844 0
M  V30 8 F 3.49765 0.653861 -0.924241 0
M  V30 9 F 4.38379 -0.545425 0.715408 0
M  V30 10 C -0.103346 -1.40249 0.247945 0
M  V30 11 C -1.45902 -1.16575 0.0427409 0
M  V30 12 C -1.82195 0.139185 -0.245783 0
M  V30 13 N -2.41058 -2.1954 0.123691 0
M  V30 14 Cl 0.367586 -3.05938 0.615504 0
M  V30 15 H -1.03031 3.21857 0.0756836 0
M  V30 16 H -1.81342 2.77015 -1.47549 0
M  V30 17 H 1.15667 1.6848 -0.183674 0
M  V30 18 H -2.88411 0.331295 -0.407811 0
M  V30 19 H -3.40318 -1.98717 0.244365 0
M  V30 20 H -2.10328 -3.18757 0.0601178 0
M  V30 END ATOM
M  V30 BEGIN BOND
M  V30 1 1 1 2
M  V30 2 2 2 3
M  V30 3 1 3 4
M  V30 4 1 4 5
M  V30 5 1 5 6
M  V30 6 1 6 7
M  V30 7 1 6 8
M  V30 8 1 6 9
M  V30 9 2 4 10
M  V30 10 1 10 11
M  V30 11 2 11 12
M  V30 12 1 11 13
M  V30 13 1 10 14
M  V30 14 1 12 2
M  V30 15 1 1 15
M  V30 16 1 1 16
M  V30 17 1 3 17
M  V30 18 1 12 18
M  V30 19 1 13 19
M  V30 20 1 13 20
M  V30 END BOND
M  V30 END CTAB
M  END
