
     RDKit          3D

  0  0  0  0  0  0  0  0  0  0999 V3000
M  V30 BEGIN CTAB
M  V30 COUNTS 68 68 0 0 0
M  V30 BEGIN ATOM
M  V30 1 N 6.25908 2.58924 0.369061 0
M  V30 2 C 6.86537 1.41015 -0.178129 0
M  V30 3 C 5.84127 0.281783 -0.167572 0
M  V30 4 C 4.67181 0.726137 -1.01326 0
M  V30 5 C 3.57045 -0.302205 -1.09869 0
M  V30 6 C 3.04271 -0.574867 0.318815 0 CFG=2
M  V30 7 C 1.97751 -1.56824 0.310797 0
M  V30 8 O 2.35567 -2.6509 -0.317608 0
M  V30 9 N 0.681508 -1.54558 0.842659 0
M  V30 10 C -0.169708 -2.71465 0.670138 0
M  V30 11 C -0.366288 -3.17414 -0.716057 0
M  V30 12 C -1.78131 -3.76513 -0.828571 0
M  V30 13 O -2.71355 -2.82915 -1.19744 0
M  V30 14 C -3.89708 -2.93966 -0.42987 0
M  V30 15 C -4.91302 -1.9477 -0.890567 0
M  V30 16 C -5.0649 -0.768031 0.0790363 0
M  V30 17 C -4.37928 0.467959 -0.520117 0
M  V30 18 O -4.11199 1.42942 0.387112 0
M  V30 19 C -2.74719 1.84506 0.446953 0 CFG=1
M  V30 20 C -1.99287 0.65617 0.837997 0 CFG=1
M  V30 21 C -0.52457 0.608157 0.658351 0 CFG=1
M  V30 22 C 0.146314 -0.424483 1.556 0
M  V30 23 O -0.272236 0.333416 -0.685634 0
M  V30 24 O -2.21493 0.49574 2.23719 0
M  V30 25 C -2.38041 2.65304 -0.728738 0 CFG=1
M  V30 26 C -1.22441 3.61336 -0.548604 0
M  V30 27 O -1.34437 4.68909 -1.47619 0
M  V30 28 O -2.44451 2.07097 -1.96676 0
M  V30 29 N 2.8419 0.668732 0.935845 0
M  V30 30 H 5.77501 3.12647 -0.378234 0
M  V30 31 H 5.53324 2.32399 1.06062 0
M  V30 32 H 7.22542 1.60973 -1.21159 0
M  V30 33 H 7.72248 1.1273 0.441625 0
M  V30 34 H 6.28508 -0.611874 -0.645182 0
M  V30 35 H 5.60224 0.101117 0.886484 0
M  V30 36 H 4.26615 1.65766 -0.563801 0
M  V30 37 H 5.04911 0.994783 -2.02739 0
M  V30 38 H 3.8909 -1.23054 -1.56926 0
M  V30 39 H 2.75498 0.157262 -1.6888 0
M  V30 40 H 3.93945 -1.05083 0.828942 0
M  V30 41 H 0.248441 -3.59123 1.25494 0
M  V30 42 H -1.17109 -2.55875 1.14555 0
M  V30 43 H -0.287185 -2.43679 -1.50948 0
M  V30 44 H 0.387888 -3.96949 -0.955792 0
M  V30 45 H -1.71634 -4.64478 -1.51729 0
M  V30 46 H -2.09774 -4.1833 0.161419 0
M  V30 47 H -4.27985 -3.98631 -0.433912 0
M  V30 48 H -3.57795 -2.6273 0.6067 0
M  V30 49 H -4.60257 -1.53559 -1.85561 0
M  V30 50 H -5.88821 -2.46271 -1.03287 0
M  V30 51 H -4.64105 -1.04682 1.04946 0
M  V30 52 H -6.15316 -0.600532 0.211777 0
M  V30 53 H -3.5906 0.0820068 -1.14956 0
M  V30 54 H -5.15804 0.880777 -1.22986 0
M  V30 55 H -2.75055 2.56529 1.32253 0
M  V30 56 H -2.39247 -0.31121 0.426274 0
M  V30 57 H -0.05595 1.57463 0.896865 0
M  V30 58 H 0.826021 0.0547752 2.28514 0
M  V30 59 H -0.680448 -0.812811 2.25104 0
M  V30 60 H 0.469332 0.903315 -1.024 0
M  V30 61 H -3.10741 0.172617 2.43026 0
M  V30 62 H -3.27424 3.409 -0.792293 0
M  V30 63 H -0.236681 3.18756 -0.79931 0
M  V30 64 H -1.25419 4.08113 0.451912 0
M  V30 65 H -2.19181 5.15058 -1.34482 0
M  V30 66 H -2.58567 2.73967 -2.65596 0
M  V30 67 H 3.51926 0.975417 1.65476 0
M  V30 68 H 2.48725 1.4521 0.376399 0
M  V30 END ATOM
M  V30 BEGIN BOND
M  V30 1 1 1 2
M  V30 2 1 2 3
M  V30 3 1 3 4
M  V30 4 1 4 5
M  V30 5 1 5 6
M  V30 6 1 6 7
M  V30 7 2 7 8
M  V30 8 1 7 9
M  V30 9 1 9 10
M  V30 10 1 10 11
M  V30 11 1 11 12
M  V30 12 1 12 13
M  V30 13 1 13 14
M  V30 14 1 14 15
M  V30 15 1 15 16
M  V30 16 1 16 17
M  V30 17 1 17 18
M  V30 18 1 18 19
M  V30 19 1 19 20
M  V30 20 1 20 21
M  V30 21 1 21 22
M  V30 22 1 21 23
M  V30 23 1 20 24
M  V30 24 1 19 25
M  V30 25 1 25 26
M  V30 26 1 26 27
M  V30 27 1 25 28
M  V30 28 1 6 29
M  V30 29 1 22 9
M  V30 30 1 1 30
M  V30 31 1 1 31
M  V30 32 1 2 32
M  V30 33 1 2 33
M  V30 34 1 3 34
M  V30 35 1 3 35
M  V30 36 1 4 36
M  V30 37 1 4 37
M  V30 38 1 5 38
M  V30 39 1 5 39
M  V30 40 1 6 40 CFG=1
M  V30 41 1 10 41
M  V30 42 1 10 42
M  V30 43 1 11 43
M  V30 44 1 11 44
M  V30 45 1 12 45
M  V30 46 1 12 46
M  V30 47 1 14 47
M  V30 48 1 14 48
M  V30 49 1 15 49
M  V30 50 1 15 50
M  V30 51 1 16 51
M  V30 52 1 16 52
M  V30 53 1 17 53
M  V30 54 1 17 54
M  V30 55 1 19 55 CFG=1
M  V30 56 1 20 56 CFG=3
M  V30 57 1 21 57 CFG=1
M  V30 58 1 22 58
M  V30 59 1 22 59
M  V30 60 1 23 60
M  V30 61 1 24 61
M  V30 62 1 25 62 CFG=3
M  V30 63 1 26 63
M  V30 64 1 26 64
M  V30 65 1 27 65
M  V30 66 1 28 66
M  V30 67 1 29 67
M  V30 68 1 29 68
M  V30 END BOND
M  V30 END CTAB
M  END
