
     RDKit          3D

  0  0  0  0  0  0  0  0  0  0999 V3000
M  V30 BEGIN CTAB
M  V30 COUNTS 91 92 0 0 0
M  V30 BEGIN ATOM
M  V30 1 C 5.18129 -3.1751 -1.64997 0
M  V30 2 Si 4.30958 -1.56817 -1.2183 0 VAL=4
M  V30 3 C 5.15 -0.22649 -2.2567 0
M  V30 4 C 4.5343 -1.23922 0.602139 0
M  V30 5 C 5.77426 -1.83498 1.16871 0
M  V30 6 C 7.06148 -1.35766 0.605765 0
M  V30 7 C 7.33759 0.0955155 0.783666 0
M  V30 8 O 8.60216 0.371084 0.175951 0
M  V30 9 C 9.15409 1.63323 0.165674 0
M  V30 10 C 8.55082 2.73492 0.731673 0
M  V30 11 C 9.15907 3.98307 0.688204 0
M  V30 12 C 10.3852 4.15551 0.076872 0
M  V30 13 N 10.9773 5.44795 0.0517868 0
M  V30 14 C 10.9744 3.04356 -0.483853 0
M  V30 15 C 10.3769 1.78977 -0.447289 0
M  V30 16 O 2.69541 -1.57285 -1.68933 0
M  V30 17 Si 1.57016 -2.11783 -0.550952 0 VAL=4
M  V30 18 C 1.23511 -0.77169 0.673439 0
M  V30 19 C 2.13628 -3.7028 0.218384 0
M  V30 20 O 0.122505 -2.43284 -1.40806 0
M  V30 21 Si -1.292 -2.31297 -0.475062 0 VAL=4
M  V30 22 C -2.61349 -3.44932 -1.20646 0
M  V30 23 C -1.07073 -2.7819 1.28423 0
M  V30 24 O -1.84787 -0.713388 -0.604201 0
M  V30 25 Si -3.17056 -0.312439 0.353889 0 VAL=4
M  V30 26 C -2.77232 -0.225261 2.18586 0
M  V30 27 C -3.65851 1.45521 -0.122895 0
M  V30 28 C -4.68356 -1.35772 0.0493363 0
M  V30 29 C -5.91347 -0.479122 0.303963 0
M  V30 30 C -7.18412 -1.30142 0.0621523 0
M  V30 31 C -8.41028 -0.435262 0.309387 0
M  V30 32 O -8.44146 0.674565 -0.5392 0
M  V30 33 C -9.43677 1.63059 -0.536368 0
M  V30 34 C -10.524 1.59025 0.320026 0
M  V30 35 C -11.4983 2.56569 0.291619 0
M  V30 36 C -11.4136 3.61569 -0.598387 0
M  V30 37 N -12.3958 4.64139 -0.659028 0
M  V30 38 C -10.3401 3.67651 -1.46052 0
M  V30 39 C -9.38853 2.69482 -1.41006 0
M  V30 40 H 5.37126 -3.7909 -0.739965 0
M  V30 41 H 4.52143 -3.71622 -2.36427 0
M  V30 42 H 6.12594 -2.96862 -2.18944 0
M  V30 43 H 4.70935 -0.286665 -3.28154 0
M  V30 44 H 4.99141 0.765471 -1.79942 0
M  V30 45 H 6.21425 -0.504712 -2.36872 0
M  V30 46 H 3.68132 -1.72845 1.13541 0
M  V30 47 H 4.43262 -0.153612 0.814279 0
M  V30 48 H 5.71543 -2.9371 1.07817 0
M  V30 49 H 5.75664 -1.61567 2.27572 0
M  V30 50 H 7.87954 -1.91622 1.12693 0
M  V30 51 H 7.18012 -1.60135 -0.466065 0
M  V30 52 H 7.35806 0.408932 1.85245 0
M  V30 53 H 6.60281 0.759071 0.299275 0
M  V30 54 H 7.59321 2.59901 1.20944 0
M  V30 55 H 8.64066 4.81999 1.15016 0
M  V30 56 H 10.5464 6.2305 -0.492364 0
M  V30 57 H 11.8599 5.65961 0.573885 0
M  V30 58 H 11.9405 3.18518 -0.964356 0
M  V30 59 H 10.9048 0.968984 -0.910078 0
M  V30 60 H 1.98052 0.0681575 0.545427 0
M  V30 61 H 1.4427 -1.13783 1.7191 0
M  V30 62 H 0.25502 -0.302224 0.590663 0
M  V30 63 H 1.37697 -4.52832 0.0738052 0
M  V30 64 H 2.25005 -3.63785 1.32241 0
M  V30 65 H 3.03725 -4.07062 -0.300079 0
M  V30 66 H -3.04604 -3.04999 -2.12323 0
M  V30 67 H -2.13685 -4.42364 -1.48564 0
M  V30 68 H -3.4048 -3.68274 -0.494732 0
M  V30 69 H -0.777998 -1.97975 1.96703 0
M  V30 70 H -0.383786 -3.63934 1.44073 0
M  V30 71 H -2.06525 -3.1569 1.66736 0
M  V30 72 H -1.75357 0.182011 2.30889 0
M  V30 73 H -2.95278 -1.18317 2.68872 0
M  V30 74 H -3.47529 0.50407 2.68075 0
M  V30 75 H -3.85405 1.51962 -1.20904 0
M  V30 76 H -2.76634 2.08294 0.133335 0
M  V30 77 H -4.48855 1.81041 0.508113 0
M  V30 78 H -4.73416 -2.17712 0.806273 0
M  V30 79 H -4.66206 -1.70265 -0.987642 0
M  V30 80 H -5.90862 -0.0634249 1.31252 0
M  V30 81 H -5.92727 0.341436 -0.421419 0
M  V30 82 H -7.15958 -2.13962 0.785024 0
M  V30 83 H -7.17906 -1.73767 -0.950747 0
M  V30 84 H -8.34224 -0.0725113 1.36247 0
M  V30 85 H -9.30612 -1.0717 0.264983 0
M  V30 86 H -10.6298 0.792761 1.02785 0
M  V30 87 H -12.3617 2.56277 0.948939 0
M  V30 88 H -13.0819 4.67671 -1.43213 0
M  V30 89 H -12.4291 5.36869 0.0820451 0
M  V30 90 H -10.2396 4.49082 -2.17729 0
M  V30 91 H -8.53412 2.74856 -2.10067 0
M  V30 END ATOM
M  V30 BEGIN BOND
M  V30 1 1 1 2
M  V30 2 1 2 3
M  V30 3 1 2 4
M  V30 4 1 4 5
M  V30 5 1 5 6
M  V30 6 1 6 7
M  V30 7 1 7 8
M  V30 8 1 8 9
M  V30 9 2 9 10
M  V30 10 1 10 11
M  V30 11 2 11 12
M  V30 12 1 12 13
M  V30 13 1 12 14
M  V30 14 2 14 15
M  V30 15 1 2 16
M  V30 16 1 16 17
M  V30 17 1 17 18
M  V30 18 1 17 19
M  V30 19 1 17 20
M  V30 20 1 20 21
M  V30 21 1 21 22
M  V30 22 1 21 23
M  V30 23 1 21 24
M  V30 24 1 24 25
M  V30 25 1 25 26
M  V30 26 1 25 27
M  V30 27 1 25 28
M  V30 28 1 28 29
M  V30 29 1 29 30
M  V30 30 1 30 31
M  V30 31 1 31 32
M  V30 32 1 32 33
M  V30 33 2 33 34
M  V30 34 1 34 35
M  V30 35 2 35 36
M  V30 36 1 36 37
M  V30 37 1 36 38
M  V30 38 2 38 39
M  V30 39 1 15 9
M  V30 40 1 39 33
M  V30 41 1 1 40
M  V30 42 1 1 41
M  V30 43 1 1 42
M  V30 44 1 3 43
M  V30 45 1 3 44
M  V30 46 1 3 45
M  V30 47 1 4 46
M  V30 48 1 4 47
M  V30 49 1 5 48
M  V30 50 1 5 49
M  V30 51 1 6 50
M  V30 52 1 6 51
M  V30 53 1 7 52
M  V30 54 1 7 53
M  V30 55 1 10 54
M  V30 56 1 11 55
M  V30 57 1 13 56
M  V30 58 1 13 57
M  V30 59 1 14 58
M  V30 60 1 15 59
M  V30 61 1 18 60
M  V30 62 1 18 61
M  V30 63 1 18 62
M  V30 64 1 19 63
M  V30 65 1 19 64
M  V30 66 1 19 65
M  V30 67 1 22 66
M  V30 68 1 22 67
M  V30 69 1 22 68
M  V30 70 1 23 69
M  V30 71 1 23 70
M  V30 72 1 23 71
M  V30 73 1 26 72
M  V30 74 1 26 73
M  V30 75 1 26 74
M  V30 76 1 27 75
M  V30 77 1 27 76
M  V30 78 1 27 77
M  V30 79 1 28 78
M  V30 80 1 28 79
M  V30 81 1 29 80
M  V30 82 1 29 81
M  V30 83 1 30 82
M  V30 84 1 30 83
M  V30 85 1 31 84
M  V30 86 1 31 85
M  V30 87 1 34 86
M  V30 88 1 35 87
M  V30 89 1 37 88
M  V30 90 1 37 89
M  V30 91 1 38 90
M  V30 92 1 39 91
M  V30 END BOND
M  V30 END CTAB
M  END
