
     RDKit          3D

  0  0  0  0  0  0  0  0  0  0999 V3000
M  V30 BEGIN CTAB
M  V30 COUNTS 47 49 0 0 0
M  V30 BEGIN ATOM
M  V30 1 N 2.84777 -2.77967 -0.798904 0
M  V30 2 C 1.93149 -2.05091 -0.702059 0
M  V30 3 C 0.785248 -1.17173 -0.604177 0
M  V30 4 C -0.391257 -1.56336 -0.973415 0
M  V30 5 N -1.59432 -0.862765 -0.952707 0
M  V30 6 C -2.42682 -0.863574 0.19088 0
M  V30 7 C -2.51017 -2.04753 0.929963 0
M  V30 8 C -3.32808 -2.15904 2.01028 0
M  V30 9 C -4.12379 -1.1103 2.44089 0
M  V30 10 C -4.05502 0.0842246 1.71537 0
M  V30 11 C -3.21709 0.169087 0.623942 0
M  V30 12 N -4.96419 -1.26718 3.5722 0
M  V30 13 C -2.09271 -0.248016 -2.11811 0
M  V30 14 C -1.45378 0.587948 -2.98953 0
M  V30 15 C -2.06866 1.12429 -4.09444 0
M  V30 16 C -3.37047 0.847772 -4.38687 0
M  V30 17 C -4.05275 0.010241 -3.5346 0
M  V30 18 C -3.4316 -0.521336 -2.43505 0
M  V30 19 C 0.975067 0.196754 -0.0481321 0
M  V30 20 O -0.0226316 0.947942 0.0857345 0
M  V30 21 N 2.21757 0.560941 0.27932 0
M  V30 22 C 3.4818 0.931563 0.612522 0
M  V30 23 C 4.26623 -0.0317836 1.27398 0
M  V30 24 C 5.5657 0.236046 1.5606 0
M  V30 25 C 6.11761 1.44075 1.20804 0
M  V30 26 C 5.3845 2.40025 0.564053 0
M  V30 27 C 4.08335 2.12132 0.283276 0
M  V30 28 N 7.50208 1.69846 1.52314 0
M  V30 29 H -0.406221 -2.62861 -1.35953 0
M  V30 30 H -1.9149 -2.93017 0.660544 0
M  V30 31 H -3.39696 -3.08995 2.59008 0
M  V30 32 H -4.67325 0.877221 2.06613 0
M  V30 33 H -3.20642 1.12881 0.0913826 0
M  V30 34 H -5.99615 -1.25476 3.42745 0
M  V30 35 H -4.62195 -1.39424 4.54674 0
M  V30 36 H -0.39272 0.84109 -2.79443 0
M  V30 37 H -1.52803 1.78873 -4.7731 0
M  V30 38 H -3.88101 1.2669 -5.26878 0
M  V30 39 H -5.07866 -0.224078 -3.73833 0
M  V30 40 H -3.97379 -1.17504 -1.77116 0
M  V30 41 H 1.72192 1.74621 0.813495 0
M  V30 42 H 3.81087 -0.965801 1.54352 0
M  V30 43 H 6.18682 -0.49129 2.07066 0
M  V30 44 H 5.81687 3.36573 0.278547 0
M  V30 45 H 3.48738 2.87492 -0.227916 0
M  V30 46 H 8.13824 1.95933 0.750526 0
M  V30 47 H 7.85289 1.62459 2.49718 0
M  V30 END ATOM
M  V30 BEGIN BOND
M  V30 1 3 1 2
M  V30 2 1 2 3
M  V30 3 2 3 4
M  V30 4 1 4 5
M  V30 5 1 5 6
M  V30 6 2 6 7
M  V30 7 1 7 8
M  V30 8 2 8 9
M  V30 9 1 9 10
M  V30 10 2 10 11
M  V30 11 1 9 12
M  V30 12 1 5 13
M  V30 13 2 13 14
M  V30 14 1 14 15
M  V30 15 2 15 16
M  V30 16 1 16 17
M  V30 17 2 17 18
M  V30 18 1 3 19
M  V30 19 2 19 20
M  V30 20 1 19 21
M  V30 21 1 21 22
M  V30 22 2 22 23
M  V30 23 1 23 24
M  V30 24 2 24 25
M  V30 25 1 25 26
M  V30 26 2 26 27
M  V30 27 1 25 28
M  V30 28 1 11 6
M  V30 29 1 18 13
M  V30 30 1 27 22
M  V30 31 1 4 29
M  V30 32 1 7 30
M  V30 33 1 8 31
M  V30 34 1 10 32
M  V30 35 1 11 33
M  V30 36 1 12 34
M  V30 37 1 12 35
M  V30 38 1 14 36
M  V30 39 1 15 37
M  V30 40 1 16 38
M  V30 41 1 17 39
M  V30 42 1 18 40
M  V30 43 1 21 41
M  V30 44 1 23 42
M  V30 45 1 24 43
M  V30 46 1 26 44
M  V30 47 1 27 45
M  V30 48 1 28 46
M  V30 49 1 28 47
M  V30 END BOND
M  V30 END CTAB
M  END
