
     RDKit          3D

  0  0  0  0  0  0  0  0  0  0999 V3000
M  V30 BEGIN CTAB
M  V30 COUNTS 37 38 0 0 0
M  V30 BEGIN ATOM
M  V30 1 O 0.595224 1.05582 0.989363 0
M  V30 2 C 0.344896 0.119261 0.178385 0
M  V30 3 C -1.13338 -0.264481 0.214451 0
M  V30 4 S -2.02247 1.30767 0.270349 0
M  V30 5 C -3.79114 1.03862 0.242497 0
M  V30 6 N -4.26466 -0.211492 0.216936 0
M  V30 7 C -5.5844 -0.428219 0.178405 0
M  V30 8 N -6.07935 -1.75592 0.159879 0
M  V30 9 N -6.42396 0.642958 0.164619 0
M  V30 10 C -5.98084 1.91776 0.188681 0
M  V30 11 N -4.65487 2.08406 0.228135 0
M  V30 12 N -6.89011 3.02288 0.162468 0
M  V30 13 N 1.22347 -0.501593 -0.650487 0
M  V30 14 C 2.09834 -1.11793 -1.4741 0
M  V30 15 C 3.29 -1.85685 -0.849095 0
M  V30 16 C 4.11867 -0.92562 -0.0893971 0
M  V30 17 C 3.91662 -0.727807 1.25205 0
M  V30 18 C 4.7162 0.157861 1.98651 0
M  V30 19 C 5.72427 0.831249 1.30393 0
M  V30 20 C 5.94744 0.650205 -0.0463136 0
M  V30 21 C 5.12101 -0.244342 -0.723205 0
M  V30 22 F 6.52757 1.67471 1.95677 0
M  V30 23 H -1.41273 -0.916587 -0.60587 0
M  V30 24 H -1.24724 -0.85814 1.16017 0
M  V30 25 H -6.19172 -2.23885 -0.736305 0
M  V30 26 H -6.32235 -2.21461 1.04259 0
M  V30 27 H -6.56268 4.00386 0.167438 0
M  V30 28 H -7.90608 2.83793 0.138163 0
M  V30 29 H 2.19187 0.38996 -0.254694 0
M  V30 30 H 1.59874 -1.92044 -2.10981 0
M  V30 31 H 2.54642 -0.447992 -2.28525 0
M  V30 32 H 3.8927 -2.28263 -1.68366 0
M  V30 33 H 2.88611 -2.69416 -0.233441 0
M  V30 34 H 3.13501 -1.2337 1.81764 0
M  V30 35 H 4.56221 0.32037 3.03567 0
M  V30 36 H 6.74344 1.17839 -0.590077 0
M  V30 37 H 5.28777 -0.392201 -1.77379 0
M  V30 END ATOM
M  V30 BEGIN BOND
M  V30 1 2 1 2
M  V30 2 1 2 3
M  V30 3 1 3 4
M  V30 4 1 4 5
M  V30 5 2 5 6
M  V30 6 1 6 7
M  V30 7 1 7 8
M  V30 8 2 7 9
M  V30 9 1 9 10
M  V30 10 2 10 11
M  V30 11 1 10 12
M  V30 12 1 2 13
M  V30 13 1 13 14
M  V30 14 1 14 15
M  V30 15 1 15 16
M  V30 16 2 16 17
M  V30 17 1 17 18
M  V30 18 2 18 19
M  V30 19 1 19 20
M  V30 20 2 20 21
M  V30 21 1 19 22
M  V30 22 1 11 5
M  V30 23 1 21 16
M  V30 24 1 3 23
M  V30 25 1 3 24
M  V30 26 1 8 25
M  V30 27 1 8 26
M  V30 28 1 12 27
M  V30 29 1 12 28
M  V30 30 1 13 29
M  V30 31 1 14 30
M  V30 32 1 14 31
M  V30 33 1 15 32
M  V30 34 1 15 33
M  V30 35 1 17 34
M  V30 36 1 18 35
M  V30 37 1 20 36
M  V30 38 1 21 37
M  V30 END BOND
M  V30 END CTAB
M  END
