
     RDKit          3D

  0  0  0  0  0  0  0  0  0  0999 V3000
M  V30 BEGIN CTAB
M  V30 COUNTS 25 26 0 0 0
M  V30 BEGIN ATOM
M  V30 1 N -1.92737 1.28575 1.81104 0
M  V30 2 C -2.57539 0.206602 1.14736 0
M  V30 3 N -3.6571 -0.427019 1.46024 0
M  V30 4 N -3.9396 -1.42521 0.528832 0
M  V30 5 C -3.04543 -1.45757 -0.4064 0
M  V30 6 N -2.9773 -2.33034 -1.53651 0
M  V30 7 C -2.08935 -0.404491 -0.0830831 0
M  V30 8 N -1.05824 -0.112587 -0.761006 0
M  V30 9 N -0.176753 0.915101 -0.393823 0
M  V30 10 C 1.1825 0.630279 -0.163659 0
M  V30 11 C 1.72572 -0.634048 -0.278447 0
M  V30 12 C 3.05667 -0.887707 -0.0485392 0
M  V30 13 C 3.88971 0.161183 0.312408 0
M  V30 14 Br 5.73529 -0.196101 0.630195 0
M  V30 15 C 3.38606 1.42275 0.434895 0
M  V30 16 C 2.04733 1.65012 0.19865 0
M  V30 17 H -1.30197 1.14005 2.61381 0
M  V30 18 H -2.08043 2.26899 1.48505 0
M  V30 19 H -2.52008 -2.03789 -2.42186 0
M  V30 20 H -3.39267 -3.27301 -1.46967 0
M  V30 21 H -0.499377 1.90073 -0.283442 0
M  V30 22 H 1.07721 -1.44703 -0.558804 0
M  V30 23 H 3.49164 -1.8827 -0.137337 0
M  V30 24 H 4.00007 2.26828 0.713966 0
M  V30 25 H 1.64888 2.66587 0.298742 0
M  V30 END ATOM
M  V30 BEGIN BOND
M  V30 1 1 1 2
M  V30 2 2 2 3
M  V30 3 1 3 4
M  V30 4 2 4 5
M  V30 5 1 5 6
M  V30 6 1 5 7
M  V30 7 2 7 8
M  V30 8 1 8 9
M  V30 9 1 9 10
M  V30 10 2 10 11
M  V30 11 1 11 12
M  V30 12 2 12 13
M  V30 13 1 13 14
M  V30 14 1 13 15
M  V30 15 2 15 16
M  V30 16 1 7 2
M  V30 17 1 16 10
M  V30 18 1 1 17
M  V30 19 1 1 18
M  V30 20 1 6 19
M  V30 21 1 6 20
M  V30 22 1 9 21
M  V30 23 1 11 22
M  V30 24 1 12 23
M  V30 25 1 15 24
M  V30 26 1 16 25
M  V30 END BOND
M  V30 END CTAB
M  END
