
     RDKit          3D

  0  0  0  0  0  0  0  0  0  0999 V3000
M  V30 BEGIN CTAB
M  V30 COUNTS 45 46 0 0 0
M  V30 BEGIN ATOM
M  V30 1 N -4.99131 1.44579 0.94761 0
M  V30 2 C -4.84048 0.51197 -0.209847 0
M  V30 3 C -3.56773 -0.183184 -0.0501719 0
M  V30 4 C -2.95231 -0.920801 -1.02924 0
M  V30 5 C -1.76537 -1.60672 -0.795579 0
M  V30 6 C -1.17804 -1.55699 0.444652 0
M  V30 7 O 0.00400022 -2.2226 0.738279 0
M  V30 8 C 1.19392 -1.53971 0.600534 0
M  V30 9 C 1.75195 -0.7978 1.62586 0
M  V30 10 C 2.95445 -0.131077 1.40978 0
M  V30 11 C 3.60688 -0.188581 0.199078 0
M  V30 12 C 3.03094 -0.941972 -0.830572 0
M  V30 13 C 1.84043 -1.60049 -0.610488 0
M  V30 14 C 4.90656 0.454784 -0.0591996 0
M  V30 15 N 5.75748 -0.31848 -0.947798 0
M  V30 16 C 5.75111 0.660345 1.2022 0
M  V30 17 F 6.98894 1.23331 0.853359 0
M  V30 18 F 6.00075 -0.500592 1.85651 0
M  V30 19 F 5.20337 1.6324 2.03225 0
M  V30 20 C 4.73263 1.84761 -0.696276 0
M  V30 21 F 4.0245 2.69311 0.144261 0
M  V30 22 F 5.9891 2.30269 -0.999878 0
M  V30 23 F 4.0284 1.73629 -1.87429 0
M  V30 24 C -1.76591 -0.822074 1.46516 0
M  V30 25 C -2.92044 -0.167351 1.19624 0
M  V30 26 C -5.03184 1.3542 -1.41811 0
M  V30 27 F -4.94902 0.737835 -2.61545 0
M  V30 28 F -4.14445 2.43153 -1.44487 0
M  V30 29 F -6.29525 1.96841 -1.35762 0
M  V30 30 C -5.99987 -0.466767 0.0105025 0
M  V30 31 F -7.19199 0.190841 -0.00227966 0
M  V30 32 F -5.9823 -1.43597 -0.962099 0
M  V30 33 F -5.77759 -0.994644 1.28236 0
M  V30 34 H -4.18825 2.12896 0.974664 0
M  V30 35 H -5.93052 1.8873 0.959879 0
M  V30 36 H -3.37359 -0.991244 -2.02219 0
M  V30 37 H -1.30621 -2.17865 -1.59291 0
M  V30 38 H 1.22796 -0.766197 2.57358 0
M  V30 39 H 3.32198 0.425041 2.27527 0
M  V30 40 H 3.455 -1.04792 -1.80187 0
M  V30 41 H 1.41068 -2.18442 -1.43726 0
M  V30 42 H 6.26705 -1.05323 -0.47023 0
M  V30 43 H 5.35536 -0.630744 -1.81621 0
M  V30 44 H -1.25893 -0.808755 2.4299 0
M  V30 45 H -3.39205 0.414556 1.98141 0
M  V30 END ATOM
M  V30 BEGIN BOND
M  V30 1 1 1 2
M  V30 2 1 2 3
M  V30 3 2 3 4
M  V30 4 1 4 5
M  V30 5 2 5 6
M  V30 6 1 6 7
M  V30 7 1 7 8
M  V30 8 2 8 9
M  V30 9 1 9 10
M  V30 10 2 10 11
M  V30 11 1 11 12
M  V30 12 2 12 13
M  V30 13 1 11 14
M  V30 14 1 14 15
M  V30 15 1 14 16
M  V30 16 1 16 17
M  V30 17 1 16 18
M  V30 18 1 16 19
M  V30 19 1 14 20
M  V30 20 1 20 21
M  V30 21 1 20 22
M  V30 22 1 20 23
M  V30 23 1 6 24
M  V30 24 2 24 25
M  V30 25 1 2 26
M  V30 26 1 26 27
M  V30 27 1 26 28
M  V30 28 1 26 29
M  V30 29 1 2 30
M  V30 30 1 30 31
M  V30 31 1 30 32
M  V30 32 1 30 33
M  V30 33 1 25 3
M  V30 34 1 13 8
M  V30 35 1 1 34
M  V30 36 1 1 35
M  V30 37 1 4 36
M  V30 38 1 5 37
M  V30 39 1 9 38
M  V30 40 1 10 39
M  V30 41 1 12 40
M  V30 42 1 13 41
M  V30 43 1 15 42
M  V30 44 1 15 43
M  V30 45 1 24 44
M  V30 46 1 25 45
M  V30 END BOND
M  V30 END CTAB
M  END
