
     RDKit          3D

  0  0  0  0  0  0  0  0  0  0999 V3000
M  V30 BEGIN CTAB
M  V30 COUNTS 28 28 0 0 0
M  V30 BEGIN ATOM
M  V30 1 N -2.1499 1.34091 0.980743 0
M  V30 2 C -2.86754 0.43711 0.172555 0
M  V30 3 C -1.95233 0.129555 -1.02557 0
M  V30 4 N -0.778217 -0.431041 -0.493226 0
M  V30 5 C -0.86009 -1.70808 0.0834307 0
M  V30 6 C 0.584428 -2.20909 0.228613 0
M  V30 7 O 1.23643 -1.30389 1.0457 0
M  V30 8 C 1.31938 -0.0223211 0.540839 0 CFG=2
M  V30 9 C 0.456702 0.198396 -0.676019 0
M  V30 10 S 3.02131 0.387607 0.202498 0
M  V30 11 O 3.79794 0.161067 1.45558 0
M  V30 12 O 3.5433 -0.545905 -0.859604 0
M  V30 13 N 3.19285 2.01221 -0.328494 0
M  V30 14 H -1.63728 2.02095 0.497925 0
M  V30 15 H -2.55103 1.54881 1.82798 0
M  V30 16 H -3.83304 0.813294 -0.169511 0
M  V30 17 H -3.05387 -0.468175 0.78279 0
M  V30 18 H -2.47856 -0.617138 -1.66737 0
M  V30 19 H -1.78971 1.05164 -1.58812 0
M  V30 20 H -1.47277 -2.39196 -0.505614 0
M  V30 21 H -1.2989 -1.65336 1.11615 0
M  V30 22 H 1.01858 -2.25524 -0.796681 0
M  V30 23 H 0.560438 -3.17389 0.732233 0
M  V30 24 H 0.989568 0.703225 1.34457 0
M  V30 25 H 0.976376 -0.233681 -1.57765 0
M  V30 26 H 0.300197 1.28662 -0.867253 0
M  V30 27 H 3.33159 2.64975 0.480555 0
M  V30 28 H 2.39414 2.27262 -0.937059 0
M  V30 END ATOM
M  V30 BEGIN BOND
M  V30 1 1 1 2
M  V30 2 1 2 3
M  V30 3 1 3 4
M  V30 4 1 4 5
M  V30 5 1 5 6
M  V30 6 1 6 7
M  V30 7 1 7 8
M  V30 8 1 8 9
M  V30 9 1 8 10
M  V30 10 2 10 11
M  V30 11 2 10 12
M  V30 12 1 10 13
M  V30 13 1 9 4
M  V30 14 1 1 14
M  V30 15 1 1 15
M  V30 16 1 2 16
M  V30 17 1 2 17
M  V30 18 1 3 18
M  V30 19 1 3 19
M  V30 20 1 5 20
M  V30 21 1 5 21
M  V30 22 1 6 22
M  V30 23 1 6 23
M  V30 24 1 8 24 CFG=1
M  V30 25 1 9 25
M  V30 26 1 9 26
M  V30 27 1 13 27
M  V30 28 1 13 28
M  V30 END BOND
M  V30 END CTAB
M  END
