
     RDKit          3D

  0  0  0  0  0  0  0  0  0  0999 V3000
M  V30 BEGIN CTAB
M  V30 COUNTS 42 44 0 0 0
M  V30 BEGIN ATOM
M  V30 1 C -5.02662 -1.57515 -2.12145 0
M  V30 2 O -4.11891 -0.659356 -1.60496 0
M  V30 3 C -4.41085 0.127399 -0.489583 0
M  V30 4 C -5.60405 0.0931312 0.166189 0
M  V30 5 C -5.8101 0.920276 1.28431 0
M  V30 6 C -4.83638 1.75791 1.75366 0
M  V30 7 C -3.62249 1.75703 1.04203 0
M  V30 8 C -3.38711 0.977819 -0.0544452 0
M  V30 9 C -2.20298 0.994786 -0.936467 0
M  V30 10 O -0.923925 0.880669 -0.782647 0
M  V30 11 C -0.0349287 -0.035871 -0.253342 0
M  V30 12 C -0.405064 -1.15757 0.389608 0
M  V30 13 C 0.524518 -2.10571 0.90249 0
M  V30 14 C 1.90083 -1.85089 0.725783 0
M  V30 15 C 2.29792 -0.67787 0.0601092 0
M  V30 16 C 1.34984 0.202698 -0.413491 0
M  V30 17 C 3.65556 -0.299046 -0.0338511 0
M  V30 18 C 4.6615 -1.20382 -0.40422 0
M  V30 19 C 5.93107 -0.702259 -0.491404 0
M  V30 20 N 7.05512 -1.54039 -0.829353 0
M  V30 21 N 6.23149 0.598928 -0.225103 0
M  V30 22 C 5.25641 1.46303 0.132271 0
M  V30 23 N 4.0428 0.950604 0.196339 0
M  V30 24 N 5.52025 2.85248 0.451843 0
M  V30 25 H -5.99608 -1.0316 -2.19128 0
M  V30 26 H -5.23598 -2.45225 -1.40001 0
M  V30 27 H -4.67751 -1.93801 -3.06497 0
M  V30 28 H -6.36449 -0.600409 -0.203289 0
M  V30 29 H -6.79196 0.830691 1.71185 0
M  V30 30 H -5.01229 2.45893 2.56339 0
M  V30 31 H -2.86366 2.48321 1.39482 0
M  V30 32 H -2.5768 1.2899 -2.03089 0
M  V30 33 H -2.03938 2.35993 -0.730401 0
M  V30 34 H -1.49797 -1.3713 0.564884 0
M  V30 35 H 0.126446 -2.96474 1.39583 0
M  V30 36 H 2.59836 -2.557 1.12878 0
M  V30 37 H 1.66919 1.06442 -0.929228 0
M  V30 38 H 4.48244 -2.25634 -0.639405 0
M  V30 39 H 7.21443 -2.32382 -0.192136 0
M  V30 40 H 7.65397 -1.39838 -1.68902 0
M  V30 41 H 6.42943 3.12019 0.871108 0
M  V30 42 H 4.83799 3.51775 0.265322 0
M  V30 END ATOM
M  V30 BEGIN BOND
M  V30 1 1 1 2
M  V30 2 1 2 3
M  V30 3 2 3 4
M  V30 4 1 4 5
M  V30 5 2 5 6
M  V30 6 1 6 7
M  V30 7 2 7 8
M  V30 8 1 8 9
M  V30 9 1 9 10
M  V30 10 1 10 11
M  V30 11 2 11 12
M  V30 12 1 12 13
M  V30 13 2 13 14
M  V30 14 1 14 15
M  V30 15 2 15 16
M  V30 16 1 15 17
M  V30 17 2 17 18
M  V30 18 1 18 19
M  V30 19 1 19 20
M  V30 20 2 19 21
M  V30 21 1 21 22
M  V30 22 2 22 23
M  V30 23 1 22 24
M  V30 24 1 8 3
M  V30 25 1 16 11
M  V30 26 1 23 17
M  V30 27 1 1 25
M  V30 28 1 1 26
M  V30 29 1 1 27
M  V30 30 1 4 28
M  V30 31 1 5 29
M  V30 32 1 6 30
M  V30 33 1 7 31
M  V30 34 1 9 32
M  V30 35 1 9 33
M  V30 36 1 12 34
M  V30 37 1 13 35
M  V30 38 1 14 36
M  V30 39 1 16 37
M  V30 40 1 18 38
M  V30 41 1 20 39
M  V30 42 1 20 40
M  V30 43 1 24 41
M  V30 44 1 24 42
M  V30 END BOND
M  V30 END CTAB
M  END
