
     RDKit          3D

  0  0  0  0  0  0  0  0  0  0999 V3000
M  V30 BEGIN CTAB
M  V30 COUNTS 32 33 0 0 0
M  V30 BEGIN ATOM
M  V30 1 N 4.42526 -1.35972 0.663149 0
M  V30 2 C 3.52512 -0.354101 0.241583 0
M  V30 3 C 4.02591 0.881699 -0.0585542 0
M  V30 4 C 3.1534 1.87231 -0.471917 0
M  V30 5 C 1.80654 1.59739 -0.572691 0
M  V30 6 C 1.31654 0.332646 -0.262468 0
M  V30 7 N 2.1999 -0.577927 0.128519 0
M  V30 8 C -0.143957 0.0743446 -0.383566 0 CFG=1
M  V30 9 N -0.290879 -1.20035 -1.05521 0
M  V30 10 C -1.6928 -1.41911 -1.27792 0
M  V30 11 C -2.35699 -1.58295 0.0434201 0
M  V30 12 N -2.06919 -0.577965 1.0046 0
M  V30 13 C -0.790119 0.0068306 0.972776 0
M  V30 14 S -3.36057 0.493861 1.28718 0
M  V30 15 O -2.96432 1.47649 2.35109 0
M  V30 16 O -4.55209 -0.322722 1.75264 0
M  V30 17 N -3.74091 1.32121 -0.167683 0
M  V30 18 H 5.30206 -1.54977 0.150703 0
M  V30 19 H 4.20308 -1.91881 1.50301 0
M  V30 20 H 5.09144 1.07056 0.0297091 0
M  V30 21 H 3.50627 2.85756 -0.717502 0
M  V30 22 H 1.09622 2.36214 -0.896777 0
M  V30 23 H -0.614363 0.896242 -0.961651 0
M  V30 24 H 0.291671 -1.26904 -1.9097 0
M  V30 25 H -1.79015 -2.39403 -1.83437 0
M  V30 26 H -2.146 -0.660101 -1.93592 0
M  V30 27 H -2.07605 -2.59272 0.439933 0
M  V30 28 H -3.45919 -1.63247 -0.134159 0
M  V30 29 H -0.0552605 -0.513488 1.65222 0
M  V30 30 H -0.84664 1.04555 1.36105 0
M  V30 31 H -4.01862 2.31582 -0.0102729 0
M  V30 32 H -2.97531 1.32065 -0.863949 0
M  V30 END ATOM
M  V30 BEGIN BOND
M  V30 1 1 1 2
M  V30 2 2 2 3
M  V30 3 1 3 4
M  V30 4 2 4 5
M  V30 5 1 5 6
M  V30 6 2 6 7
M  V30 7 1 6 8
M  V30 8 1 8 9
M  V30 9 1 9 10
M  V30 10 1 10 11
M  V30 11 1 11 12
M  V30 12 1 12 13
M  V30 13 1 12 14
M  V30 14 2 14 15
M  V30 15 2 14 16
M  V30 16 1 14 17
M  V30 17 1 7 2
M  V30 18 1 13 8
M  V30 19 1 1 18
M  V30 20 1 1 19
M  V30 21 1 3 20
M  V30 22 1 4 21
M  V30 23 1 5 22
M  V30 24 1 8 23 CFG=3
M  V30 25 1 9 24
M  V30 26 1 10 25
M  V30 27 1 10 26
M  V30 28 1 11 27
M  V30 29 1 11 28
M  V30 30 1 13 29
M  V30 31 1 13 30
M  V30 32 1 17 31
M  V30 33 1 17 32
M  V30 END BOND
M  V30 END CTAB
M  END
