
     RDKit          3D

  0  0  0  0  0  0  0  0  0  0999 V3000
M  V30 BEGIN CTAB
M  V30 COUNTS 142 144 0 0 0
M  V30 BEGIN ATOM
M  V30 1 C -0.641241 2.41543 -3.07904 0
M  V30 2 C -0.409485 2.99588 -1.72585 0
M  V30 3 C 1.0601 2.94081 -1.29366 0 CFG=2
M  V30 4 C 1.92408 3.67725 -2.2505 0
M  V30 5 C 1.46352 1.52248 -0.979472 0 CFG=2
M  V30 6 N 0.587909 1.04288 0.117494 0
M  V30 7 C -0.304981 -0.0100225 -0.0593637 0
M  V30 8 O -0.413954 -0.610419 -1.12537 0
M  V30 9 C -1.17234 -0.422494 1.09966 0 CFG=2
M  V30 10 C -0.373552 -0.836344 2.27303 0
M  V30 11 C -1.12469 -1.25696 3.45509 0
M  V30 12 C -1.46392 -2.58365 3.61486 0
M  V30 13 C -2.16405 -3.05635 4.70648 0
M  V30 14 C -2.54523 -2.17305 5.68273 0
M  V30 15 O -3.26435 -2.61981 6.81895 0
M  V30 16 C -2.21511 -0.844453 5.537 0
M  V30 17 C -1.51807 -0.377374 4.44961 0
M  V30 18 N -2.10429 -1.42196 0.603163 0
M  V30 19 C -3.34106 -1.07199 0.0744199 0
M  V30 20 O -3.61853 0.174448 0.0214854 0
M  V30 21 C -4.33387 -2.02279 -0.41631 0 CFG=1
M  V30 22 N -5.48228 -1.23738 -0.966405 0
M  V30 23 C -6.36759 -0.59761 -0.0656959 0
M  V30 24 O -6.09614 -0.734351 1.18017 0
M  V30 25 C -7.54305 0.206005 -0.406 0 CFG=2
M  V30 26 C -7.99383 0.109179 -1.79397 0
M  V30 27 C -8.45446 -1.25985 -2.21123 0
M  V30 28 C -8.92234 -1.23826 -3.65938 0
M  V30 29 N -10.0109 -0.268916 -3.68762 0
M  V30 30 C -11.1865 -0.586639 -2.98522 0
M  V30 31 N -11.8247 0.350737 -2.10187 0
M  V30 32 N -11.7455 -1.72589 -3.09596 0
M  V30 33 N -7.62479 1.48753 0.249612 0
M  V30 34 C -8.35497 1.80066 1.40532 0
M  V30 35 O -9.01121 0.907749 1.98341 0
M  V30 36 C -8.35806 3.17384 1.94377 0 CFG=1
M  V30 37 N -7.77939 4.12904 1.01359 0
M  V30 38 C -9.75516 3.64725 2.32985 0
M  V30 39 C -9.63348 5.02101 2.84585 0
M  V30 40 O -9.77318 5.31808 4.16622 0
M  V30 41 O -9.39014 5.93056 1.99969 0
M  V30 42 C -3.92328 -3.11973 -1.29139 0
M  V30 43 C -3.2534 -2.71221 -2.58222 0
M  V30 44 C -3.15455 -4.24789 -0.657779 0
M  V30 45 C 2.8396 1.35123 -0.481459 0
M  V30 46 O 2.97668 1.06469 0.749034 0
M  V30 47 N 3.9503 1.48753 -1.32791 0
M  V30 48 C 5.28792 1.2943 -0.877361 0 CFG=1
M  V30 49 C 5.8224 2.27122 0.115433 0
M  V30 50 C 5.92192 3.66814 -0.316684 0
M  V30 51 C 6.28486 4.73808 0.50034 0
M  V30 52 N 6.31182 5.86194 -0.223012 0
M  V30 53 C 5.97256 5.53847 -1.48859 0
M  V30 54 N 5.74036 4.19811 -1.52475 0
M  V30 55 C 5.64202 -0.101797 -0.503203 0
M  V30 56 O 4.83386 -0.819435 0.09617 0
M  V30 57 N 6.91482 -0.654842 -0.816078 0
M  V30 58 C 7.30082 -2.00839 -0.434511 0 CFG=1
M  V30 59 C 6.7864 -2.96568 -1.5578 0
M  V30 60 C 8.74305 -2.21005 -0.417833 0
M  V30 61 O 9.47549 -1.30509 -0.911561 0
M  V30 62 N 9.41486 -3.34821 0.112525 0
M  V30 63 C 10.8572 -3.49413 0.0953086 0 CFG=1
M  V30 64 C 11.5042 -3.23017 1.43522 0
M  V30 65 C 11.2186 -1.85044 1.85758 0
M  V30 66 C 10.1136 -1.51898 2.6273 0
M  V30 67 C 9.89546 -0.202651 3.01219 0
M  V30 68 C 10.7809 0.779952 2.62738 0
M  V30 69 C 11.8828 0.463579 1.86314 0
M  V30 70 C 12.1052 -0.840046 1.47884 0
M  V30 71 C 11.2833 -4.7985 -0.477643 0
M  V30 72 O 12.6378 -5.07596 -0.598567 0
M  V30 73 O 10.4506 -5.64199 -0.846494 0
M  V30 74 H -0.0652343 1.49782 -3.24112 0
M  V30 75 H -1.71419 2.14278 -3.18007 0
M  V30 76 H -0.419949 3.16788 -3.88432 0
M  V30 77 H -0.97644 2.40102 -0.978951 0
M  V30 78 H -0.801317 4.03294 -1.65311 0
M  V30 79 H 1.08218 3.47398 -0.299724 0
M  V30 80 H 2.89399 3.9099 -1.80341 0
M  V30 81 H 1.39544 4.60504 -2.57321 0
M  V30 82 H 2.0062 3.05025 -3.18971 0
M  V30 83 H 1.2404 0.885378 -1.84609 0
M  V30 84 H 0.686107 1.54167 1.01309 0
M  V30 85 H -1.78744 0.475756 1.35859 0
M  V30 86 H 0.333675 -1.65782 1.97098 0
M  V30 87 H 0.32588 -0.0171983 2.60493 0
M  V30 88 H -1.17501 -3.32554 2.86394 0
M  V30 89 H -2.40136 -4.10322 4.7848 0
M  V30 90 H -4.27879 -2.60019 6.70046 0
M  V30 91 H -2.52482 -0.145846 6.32828 0
M  V30 92 H -1.26252 0.687426 4.34852 0
M  V30 93 H -1.81468 -2.41008 0.659423 0
M  V30 94 H -4.77342 -2.46972 0.544988 0
M  V30 95 H -5.50971 -1.22259 -1.99877 0
M  V30 96 H -8.41973 -0.372938 0.182467 0
M  V30 97 H -7.11027 0.329834 -2.48142 0
M  V30 98 H -8.72322 0.90234 -2.0984 0
M  V30 99 H -9.26748 -1.65468 -1.55253 0
M  V30 100 H -7.64393 -1.98091 -2.15898 0
M  V30 101 H -9.26692 -2.24569 -3.91162 0
M  V30 102 H -8.07527 -0.971818 -4.2877 0
M  V30 103 H -9.84928 0.615626 -4.23816 0
M  V30 104 H -11.4701 0.463389 -1.1266 0
M  V30 105 H -12.6252 0.895924 -2.45946 0
M  V30 106 H -11.353 -2.48085 -3.71932 0
M  V30 107 H -7.06296 2.27326 -0.201183 0
M  V30 108 H -7.74439 3.25979 2.87731 0
M  V30 109 H -6.76055 3.92278 0.951093 0
M  V30 110 H -8.20876 3.92262 0.0730461 0
M  V30 111 H -10.2014 2.98466 3.09373 0
M  V30 112 H -10.3865 3.6425 1.41763 0
M  V30 113 H -10.1862 4.64251 4.795 0
M  V30 114 H -4.897 -3.61351 -1.64909 0
M  V30 115 H -3.86777 -2.00542 -3.17507 0
M  V30 116 H -3.19594 -3.65226 -3.20661 0
M  V30 117 H -2.20107 -2.41249 -2.46255 0
M  V30 118 H -3.53292 -5.24176 -1.03076 0
M  V30 119 H -3.38584 -4.23615 0.414019 0
M  V30 120 H -2.05467 -4.20058 -0.869624 0
M  V30 121 H 3.75683 1.73904 -2.32851 0
M  V30 122 H 5.93664 1.47097 -1.81464 0
M  V30 123 H 5.11199 2.22144 0.999505 0
M  V30 124 H 6.78814 1.90634 0.578884 0
M  V30 125 H 6.50756 4.62304 1.56542 0
M  V30 126 H 5.89357 6.19587 -2.34273 0
M  V30 127 H 5.46098 3.71437 -2.4046 0
M  V30 128 H 7.59333 -0.0731581 -1.32738 0
M  V30 129 H 6.76512 -2.34402 0.438605 0
M  V30 130 H 5.70773 -3.0597 -1.50539 0
M  V30 131 H 7.25598 -3.93636 -1.32878 0
M  V30 132 H 7.17626 -2.60674 -2.51911 0
M  V30 133 H 8.78742 -4.09965 0.531853 0
M  V30 134 H 11.2521 -2.6939 -0.582137 0
M  V30 135 H 12.5952 -3.36777 1.31537 0
M  V30 136 H 11.1707 -3.97804 2.20486 0
M  V30 137 H 9.40877 -2.30858 2.93455 0
M  V30 138 H 9.01986 0.042029 3.61966 0
M  V30 139 H 10.5971 1.82476 2.93874 0
M  V30 140 H 12.5803 1.25464 1.56237 0
M  V30 141 H 12.9629 -1.09109 0.882733 0
M  V30 142 H 13.3655 -4.60462 -0.0811902 0
M  V30 END ATOM
M  V30 BEGIN BOND
M  V30 1 1 1 2
M  V30 2 1 2 3
M  V30 3 1 3 4
M  V30 4 1 3 5
M  V30 5 1 5 6
M  V30 6 1 6 7
M  V30 7 2 7 8
M  V30 8 1 7 9
M  V30 9 1 9 10
M  V30 10 1 10 11
M  V30 11 2 11 12
M  V30 12 1 12 13
M  V30 13 2 13 14
M  V30 14 1 14 15
M  V30 15 1 14 16
M  V30 16 2 16 17
M  V30 17 1 9 18
M  V30 18 1 18 19
M  V30 19 2 19 20
M  V30 20 1 19 21
M  V30 21 1 21 22
M  V30 22 1 22 23
M  V30 23 2 23 24
M  V30 24 1 23 25
M  V30 25 1 25 26
M  V30 26 1 26 27
M  V30 27 1 27 28
M  V30 28 1 28 29
M  V30 29 1 29 30
M  V30 30 1 30 31
M  V30 31 2 30 32 CFG=2
M  V30 32 1 25 33
M  V30 33 1 33 34
M  V30 34 2 34 35
M  V30 35 1 34 36
M  V30 36 1 36 37
M  V30 37 1 36 38
M  V30 38 1 38 39
M  V30 39 1 39 40
M  V30 40 2 39 41
M  V30 41 1 21 42
M  V30 42 1 42 43
M  V30 43 1 42 44
M  V30 44 1 5 45
M  V30 45 2 45 46
M  V30 46 1 45 47
M  V30 47 1 47 48
M  V30 48 1 48 49
M  V30 49 1 49 50
M  V30 50 2 50 51
M  V30 51 1 51 52
M  V30 52 2 52 53
M  V30 53 1 53 54
M  V30 54 1 48 55
M  V30 55 2 55 56
M  V30 56 1 55 57
M  V30 57 1 57 58
M  V30 58 1 58 59
M  V30 59 1 58 60
M  V30 60 2 60 61
M  V30 61 1 60 62
M  V30 62 1 62 63
M  V30 63 1 63 64
M  V30 64 1 64 65
M  V30 65 2 65 66
M  V30 66 1 66 67
M  V30 67 2 67 68
M  V30 68 1 68 69
M  V30 69 2 69 70
M  V30 70 1 63 71
M  V30 71 1 71 72
M  V30 72 2 71 73
M  V30 73 1 17 11
M  V30 74 1 54 50
M  V30 75 1 70 65
M  V30 76 1 1 74
M  V30 77 1 1 75
M  V30 78 1 1 76
M  V30 79 1 2 77
M  V30 80 1 2 78
M  V30 81 1 3 79 CFG=1
M  V30 82 1 4 80
M  V30 83 1 4 81
M  V30 84 1 4 82
M  V30 85 1 5 83 CFG=3
M  V30 86 1 6 84
M  V30 87 1 9 85 CFG=1
M  V30 88 1 10 86
M  V30 89 1 10 87
M  V30 90 1 12 88
M  V30 91 1 13 89
M  V30 92 1 15 90
M  V30 93 1 16 91
M  V30 94 1 17 92
M  V30 95 1 18 93
M  V30 96 1 21 94 CFG=1
M  V30 97 1 22 95
M  V30 98 1 25 96 CFG=1
M  V30 99 1 26 97
M  V30 100 1 26 98
M  V30 101 1 27 99
M  V30 102 1 27 100
M  V30 103 1 28 101
M  V30 104 1 28 102
M  V30 105 1 29 103
M  V30 106 1 31 104
M  V30 107 1 31 105
M  V30 108 1 32 106
M  V30 109 1 33 107
M  V30 110 1 36 108 CFG=1
M  V30 111 1 37 109
M  V30 112 1 37 110
M  V30 113 1 38 111
M  V30 114 1 38 112
M  V30 115 1 40 113
M  V30 116 1 42 114
M  V30 117 1 43 115
M  V30 118 1 43 116
M  V30 119 1 43 117
M  V30 120 1 44 118
M  V30 121 1 44 119
M  V30 122 1 44 120
M  V30 123 1 47 121
M  V30 124 1 48 122 CFG=3
M  V30 125 1 49 123
M  V30 126 1 49 124
M  V30 127 1 51 125
M  V30 128 1 53 126
M  V30 129 1 54 127
M  V30 130 1 57 128
M  V30 131 1 58 129 CFG=1
M  V30 132 1 59 130
M  V30 133 1 59 131
M  V30 134 1 59 132
M  V30 135 1 62 133
M  V30 136 1 63 134 CFG=3
M  V30 137 1 64 135
M  V30 138 1 64 136
M  V30 139 1 66 137
M  V30 140 1 67 138
M  V30 141 1 68 139
M  V30 142 1 69 140
M  V30 143 1 70 141
M  V30 144 1 72 142
M  V30 END BOND
M  V30 END CTAB
M  END
