
     RDKit          3D

  0  0  0  0  0  0  0  0  0  0999 V3000
M  V30 BEGIN CTAB
M  V30 COUNTS 23 23 0 0 0
M  V30 BEGIN ATOM
M  V30 1 C 4.00179 0.290865 0.53322 0
M  V30 2 O 2.63934 -0.0279122 0.43056 0
M  V30 3 C 1.66648 0.840923 -0.0378602 0
M  V30 4 O 2.04095 1.98387 -0.389938 0
M  V30 5 C 0.272472 0.413373 -0.106368 0
M  V30 6 C -0.718505 1.25555 -0.568065 0
M  V30 7 C -2.03472 0.854921 -0.633857 0
M  V30 8 O -3.02123 1.71055 -1.09968 0
M  V30 9 C -2.42727 -0.408721 -0.241193 0
M  V30 10 C -1.44532 -1.25921 0.222053 0
M  V30 11 C -0.115274 -0.852037 0.287698 0
M  V30 12 N 0.900957 -1.70977 0.759003 0
M  V30 13 N -3.79467 -0.823712 -0.309989 0
M  V30 14 H 4.51789 0.190377 -0.45035 0
M  V30 15 H 4.08 1.32304 0.921611 0
M  V30 16 H 4.45436 -0.450135 1.24404 0
M  V30 17 H -0.403116 2.26138 -0.880126 0
M  V30 18 H -2.87312 2.64188 -1.41163 0
M  V30 19 H -1.7231 -2.2573 0.537359 0
M  V30 20 H 1.16576 -1.764 1.75965 0
M  V30 21 H 1.4083 -2.31329 0.0852332 0
M  V30 22 H -4.51748 -0.123828 -0.00338377 0
M  V30 23 H -4.0745 -1.77682 -0.647976 0
M  V30 END ATOM
M  V30 BEGIN BOND
M  V30 1 1 1 2
M  V30 2 1 2 3
M  V30 3 2 3 4
M  V30 4 1 3 5
M  V30 5 2 5 6
M  V30 6 1 6 7
M  V30 7 1 7 8
M  V30 8 2 7 9
M  V30 9 1 9 10
M  V30 10 2 10 11
M  V30 11 1 11 12
M  V30 12 1 9 13
M  V30 13 1 11 5
M  V30 14 1 1 14
M  V30 15 1 1 15
M  V30 16 1 1 16
M  V30 17 1 6 17
M  V30 18 1 8 18
M  V30 19 1 10 19
M  V30 20 1 12 20
M  V30 21 1 12 21
M  V30 22 1 13 22
M  V30 23 1 13 23
M  V30 END BOND
M  V30 END CTAB
M  END
