
     RDKit          3D

  0  0  0  0  0  0  0  0  0  0999 V3000
M  V30 BEGIN CTAB
M  V30 COUNTS 52 54 0 0 0
M  V30 BEGIN ATOM
M  V30 1 C 6.3407 1.01269 -3.37234 0
M  V30 2 C 5.22885 1.45172 -2.49946 0
M  V30 3 C 5.18373 1.15111 -1.16001 0
M  V30 4 C 4.10097 1.60631 -0.410331 0
M  V30 5 C 3.09154 2.33455 -0.956847 0
M  V30 6 C 3.14692 2.63079 -2.30349 0
M  V30 7 C 4.205 2.19898 -3.08771 0
M  V30 8 S 1.74061 2.899 -0.0170522 0
M  V30 9 O 1.27218 4.22897 -0.615974 0
M  V30 10 O 2.24405 3.17103 1.38235 0
M  V30 11 N 0.404357 1.84442 -0.0628987 0
M  V30 12 C 0.491732 0.51509 0.417249 0
M  V30 13 C 1.35945 0.133667 1.41809 0
M  V30 14 C 1.42916 -1.1621 1.90951 0
M  V30 15 N 2.32057 -1.5472 2.9372 0
M  V30 16 C 0.588201 -2.10622 1.36638 0
M  V30 17 N 0.60543 -3.4432 1.82089 0
M  V30 18 C -0.284386 -1.72025 0.358316 0
M  V30 19 C -0.379276 -0.448044 -0.151414 0
M  V30 20 N -1.25724 -0.0665659 -1.19756 0
M  V30 21 S -2.68216 -0.918219 -1.53493 0
M  V30 22 O -3.36651 -0.228013 -2.70121 0
M  V30 23 O -2.39445 -2.36273 -1.91324 0
M  V30 24 C -3.83452 -0.949088 -0.234592 0
M  V30 25 C -4.73211 0.107497 -0.143885 0
M  V30 26 C -5.69279 0.193774 0.835577 0
M  V30 27 C -5.76389 -0.815663 1.76621 0
M  V30 28 C -6.79692 -0.737209 2.83015 0
M  V30 29 C -4.88293 -1.86504 1.68756 0
M  V30 30 C -3.91875 -1.94949 0.702739 0
M  V30 31 H 6.59486 -0.0449361 -3.10299 0
M  V30 32 H 6.03781 1.10466 -4.42487 0
M  V30 33 H 7.21136 1.68733 -3.12031 0
M  V30 34 H 5.97585 0.578287 -0.725588 0
M  V30 35 H 4.12956 1.33987 0.635903 0
M  V30 36 H 2.36551 3.21178 -2.79607 0
M  V30 37 H 4.20919 2.45337 -4.13658 0
M  V30 38 H -0.54204 2.14978 -0.441204 0
M  V30 39 H 2.04474 0.84747 1.87803 0
M  V30 40 H 3.23069 -1.99901 2.70547 0
M  V30 41 H 2.12541 -1.40635 3.9567 0
M  V30 42 H 0.242681 -4.18904 1.21647 0
M  V30 43 H 0.980529 -3.65609 2.75256 0
M  V30 44 H -0.928144 -2.50729 -0.0397598 0
M  V30 45 H -0.985063 0.75954 -1.76296 0
M  V30 46 H -4.70807 0.929367 -0.866381 0
M  V30 47 H -6.39484 1.03058 0.897481 0
M  V30 48 H -7.77682 -1.14261 2.48376 0
M  V30 49 H -6.94601 0.344567 3.05209 0
M  V30 50 H -6.44631 -1.21032 3.76221 0
M  V30 51 H -4.96387 -2.65283 2.44095 0
M  V30 52 H -3.22453 -2.78868 0.647795 0
M  V30 END ATOM
M  V30 BEGIN BOND
M  V30 1 1 1 2
M  V30 2 2 2 3
M  V30 3 1 3 4
M  V30 4 2 4 5
M  V30 5 1 5 6
M  V30 6 2 6 7
M  V30 7 1 5 8
M  V30 8 2 8 9
M  V30 9 2 8 10
M  V30 10 1 8 11
M  V30 11 1 11 12
M  V30 12 2 12 13
M  V30 13 1 13 14
M  V30 14 1 14 15
M  V30 15 2 14 16
M  V30 16 1 16 17
M  V30 17 1 16 18
M  V30 18 2 18 19
M  V30 19 1 19 20
M  V30 20 1 20 21
M  V30 21 2 21 22
M  V30 22 2 21 23
M  V30 23 1 21 24
M  V30 24 2 24 25
M  V30 25 1 25 26
M  V30 26 2 26 27
M  V30 27 1 27 28
M  V30 28 1 27 29
M  V30 29 2 29 30
M  V30 30 1 7 2
M  V30 31 1 19 12
M  V30 32 1 30 24
M  V30 33 1 1 31
M  V30 34 1 1 32
M  V30 35 1 1 33
M  V30 36 1 3 34
M  V30 37 1 4 35
M  V30 38 1 6 36
M  V30 39 1 7 37
M  V30 40 1 11 38
M  V30 41 1 13 39
M  V30 42 1 15 40
M  V30 43 1 15 41
M  V30 44 1 17 42
M  V30 45 1 17 43
M  V30 46 1 18 44
M  V30 47 1 20 45
M  V30 48 1 25 46
M  V30 49 1 26 47
M  V30 50 1 28 48
M  V30 51 1 28 49
M  V30 52 1 28 50
M  V30 53 1 29 51
M  V30 54 1 30 52
M  V30 END BOND
M  V30 END CTAB
M  END
