
     RDKit          3D

  0  0  0  0  0  0  0  0  0  0999 V3000
M  V30 BEGIN CTAB
M  V30 COUNTS 38 40 0 0 0
M  V30 BEGIN ATOM
M  V30 1 C 1.12142 1.76497 0.882663 0
M  V30 2 C -0.256164 1.74278 0.453569 0
M  V30 3 C -1.03662 2.92392 0.468752 0
M  V30 4 N -0.367898 4.10793 0.931893 0
M  V30 5 C -2.33891 2.9849 0.0748954 0
M  V30 6 F -3.0383 4.13454 0.108725 0
M  V30 7 C -2.95066 1.85063 -0.365582 0
M  V30 8 C -2.2448 0.675194 -0.403151 0
M  V30 9 C -0.91078 0.616427 0.00122953 0
M  V30 10 N -0.312819 -0.550201 -0.0716308 0
M  V30 11 C -0.999117 -1.67493 -0.537059 0
M  V30 12 C -2.28335 -1.6256 -0.927851 0
M  V30 13 C -2.9897 -2.82903 -1.41697 0
M  V30 14 O -4.30311 -2.76192 -1.81286 0
M  V30 15 O -2.36645 -3.90534 -1.46185 0
M  V30 16 C -2.94169 -0.432228 -0.867892 0
M  V30 17 O -4.14912 -0.358573 -1.22918 0
M  V30 18 C 1.01571 -0.84573 0.281816 0
M  V30 19 C 1.26125 -1.39957 1.50108 0
M  V30 20 F 0.2692 -1.51662 2.43736 0
M  V30 21 C 2.50276 -1.8741 1.87545 0
M  V30 22 C 3.52463 -1.77108 0.954684 0
M  V30 23 F 4.74231 -2.24214 1.33564 0
M  V30 24 C 3.30816 -1.21478 -0.289353 0
M  V30 25 N 4.39566 -1.13976 -1.18303 0
M  V30 26 C 2.02417 -0.751559 -0.607712 0
M  V30 27 H 1.20647 2.83432 1.37144 0
M  V30 28 H 1.44627 1.27506 1.79169 0
M  V30 29 H 1.88942 2.0092 0.110569 0
M  V30 30 H 0.189685 4.6354 0.233419 0
M  V30 31 H -0.44587 4.40624 1.9073 0
M  V30 32 H -3.99909 1.853 -0.692822 0
M  V30 33 H -0.424593 -2.60078 -0.56374 0
M  V30 34 H -4.71233 -3.41028 -2.46817 0
M  V30 35 H 2.66288 -2.31386 2.86624 0
M  V30 36 H 5.11556 -0.397552 -1.16056 0
M  V30 37 H 4.48173 -1.88012 -1.91549 0
M  V30 38 H 1.9141 -0.318749 -1.61352 0
M  V30 END ATOM
M  V30 BEGIN BOND
M  V30 1 1 1 2
M  V30 2 2 2 3
M  V30 3 1 3 4
M  V30 4 1 3 5
M  V30 5 1 5 6
M  V30 6 2 5 7
M  V30 7 1 7 8
M  V30 8 2 8 9
M  V30 9 1 9 10
M  V30 10 1 10 11
M  V30 11 2 11 12
M  V30 12 1 12 13
M  V30 13 1 13 14
M  V30 14 2 13 15
M  V30 15 1 12 16
M  V30 16 2 16 17
M  V30 17 1 10 18
M  V30 18 2 18 19
M  V30 19 1 19 20
M  V30 20 1 19 21
M  V30 21 2 21 22
M  V30 22 1 22 23
M  V30 23 1 22 24
M  V30 24 1 24 25
M  V30 25 2 24 26
M  V30 26 1 9 2
M  V30 27 1 26 18
M  V30 28 1 16 8
M  V30 29 1 1 27
M  V30 30 1 1 28
M  V30 31 1 1 29
M  V30 32 1 4 30
M  V30 33 1 4 31
M  V30 34 1 7 32
M  V30 35 1 11 33
M  V30 36 1 14 34
M  V30 37 1 21 35
M  V30 38 1 25 36
M  V30 39 1 25 37
M  V30 40 1 26 38
M  V30 END BOND
M  V30 END CTAB
M  END
