
     RDKit          3D

  0  0  0  0  0  0  0  0  0  0999 V3000
M  V30 BEGIN CTAB
M  V30 COUNTS 28 29 0 0 0
M  V30 BEGIN ATOM
M  V30 1 N 4.39416 -0.0873678 0.666419 0
M  V30 2 C 2.98874 -0.114174 0.489279 0
M  V30 3 C 2.23646 -1.26374 0.637572 0
M  V30 4 C 0.868766 -1.24239 0.455055 0
M  V30 5 C 0.199251 -0.0859848 0.120314 0
M  V30 6 N 0.945833 1.03153 -0.0218579 0
M  V30 7 C 2.28465 1.03391 0.15182 0
M  V30 8 N 3.05443 2.23551 -0.00536637 0
M  V30 9 N -1.21729 -0.0649548 -0.0685195 0
M  V30 10 C -1.93752 -1.28881 0.0998054 0
M  V30 11 C -3.40526 -1.17439 0.0438685 0
M  V30 12 O -3.94092 -0.156039 -0.659547 0
M  V30 13 C -3.11284 0.727988 -1.2594 0
M  V30 14 C -1.92406 1.13744 -0.417936 0
M  V30 15 H 4.99406 -0.268709 -0.159212 0
M  V30 16 H 4.85387 0.103778 1.57691 0
M  V30 17 H 2.76642 -2.16942 0.90046 0
M  V30 18 H 0.275928 -2.13666 0.569406 0
M  V30 19 H 4.01742 2.22554 -0.412909 0
M  V30 20 H 2.5803 3.10793 0.316176 0
M  V30 21 H -1.64481 -1.69631 1.11269 0
M  V30 22 H -1.51922 -2.04944 -0.620861 0
M  V30 23 H -3.83007 -1.14143 1.09068 0
M  V30 24 H -3.8147 -2.14215 -0.371823 0
M  V30 25 H -2.80214 0.319335 -2.24755 0
M  V30 26 H -3.67496 1.66774 -1.47959 0
M  V30 27 H -1.30429 1.81796 -1.01553 0
M  V30 28 H -2.33221 1.6733 0.465987 0
M  V30 END ATOM
M  V30 BEGIN BOND
M  V30 1 1 1 2
M  V30 2 2 2 3
M  V30 3 1 3 4
M  V30 4 2 4 5
M  V30 5 1 5 6
M  V30 6 2 6 7
M  V30 7 1 7 8
M  V30 8 1 5 9
M  V30 9 1 9 10
M  V30 10 1 10 11
M  V30 11 1 11 12
M  V30 12 1 12 13
M  V30 13 1 13 14
M  V30 14 1 7 2
M  V30 15 1 14 9
M  V30 16 1 1 15
M  V30 17 1 1 16
M  V30 18 1 3 17
M  V30 19 1 4 18
M  V30 20 1 8 19
M  V30 21 1 8 20
M  V30 22 1 10 21
M  V30 23 1 10 22
M  V30 24 1 11 23
M  V30 25 1 11 24
M  V30 26 1 13 25
M  V30 27 1 13 26
M  V30 28 1 14 27
M  V30 29 1 14 28
M  V30 END BOND
M  V30 END CTAB
M  END
