
     RDKit          3D

  0  0  0  0  0  0  0  0  0  0999 V3000
M  V30 BEGIN CTAB
M  V30 COUNTS 81 83 0 0 0
M  V30 BEGIN ATOM
M  V30 1 O -6.72536 -1.00356 -0.151454 0
M  V30 2 C -6.59392 0.353411 0.16469 0
M  V30 3 C -5.14926 0.563654 0.561838 0 CFG=1
M  V30 4 O -4.37565 0.194735 -0.562858 0
M  V30 5 C -3.04886 0.198337 -0.0743515 0 CFG=1
M  V30 6 O -2.23391 -0.669495 -0.776103 0
M  V30 7 C -1.67468 -1.65156 -0.00557523 0 CFG=1
M  V30 8 O -2.1155 -2.92103 -0.438838 0
M  V30 9 C -1.46163 -3.15197 -1.63757 0 CFG=2
M  V30 10 C -0.152312 -2.41144 -1.59189 0
M  V30 11 C -0.179555 -1.82101 -0.186732 0
M  V30 12 O 0.378203 -0.57741 -0.123021 0
M  V30 13 C 1.3109 -0.366022 0.839315 0 CFG=2
M  V30 14 C 1.04397 0.749828 1.78884 0 CFG=2
M  V30 15 O 1.14195 2.00751 1.20181 0
M  V30 16 C 2.04385 0.607879 2.93488 0 CFG=2
M  V30 17 O 2.19217 1.80595 3.62066 0
M  V30 18 C 3.36804 0.0513348 2.44911 0 CFG=1
M  V30 19 C 3.66335 0.478298 1.04382 0 CFG=2
M  V30 20 C 2.65602 -0.172303 0.127883 0 CFG=2
M  V30 21 N 2.49095 0.688921 -1.02739 0
M  V30 22 C 3.57779 1.03026 -1.86363 0
M  V30 23 N 3.9522 2.25305 -1.97044 0
M  V30 24 N 4.26048 0.0227083 -2.58977 0
M  V30 25 O 4.91793 -0.0115289 0.690102 0
M  V30 26 N 4.40144 0.398561 3.39248 0
M  V30 27 C 5.7218 -0.0401587 3.15696 0
M  V30 28 N 6.02711 -1.29169 3.17291 0
M  V30 29 N 6.72196 0.936457 2.90187 0
M  V30 30 O -0.0291514 -1.44191 -2.55988 0
M  V30 31 O 0.903647 -3.31915 -1.59488 0
M  V30 32 C 1.04472 -4.00395 -2.77729 0
M  V30 33 C -2.25518 -2.63365 -2.81275 0
M  V30 34 C -2.60584 1.64313 -0.134335 0 CFG=2
M  V30 35 C -3.4575 2.41215 0.853665 0 CFG=2
M  V30 36 C -4.89116 2.00273 0.852395 0 CFG=1
M  V30 37 O -5.60193 2.80956 -0.0450523 0
M  V30 38 O -3.41657 3.77521 0.477528 0
M  V30 39 N -2.86508 2.22433 -1.44243 0
M  V30 40 C -2.12301 1.5614 -2.49416 0
M  V30 41 H -6.46102 -1.55369 0.597987 0
M  V30 42 H -6.84923 0.905079 -0.759411 0
M  V30 43 H -7.25871 0.645582 0.978419 0
M  V30 44 H -4.83016 -0.0928838 1.37167 0
M  V30 45 H -3.05649 -0.113054 0.996176 0
M  V30 46 H -1.95835 -1.60224 1.06467 0
M  V30 47 H -1.26844 -4.24369 -1.71454 0
M  V30 48 H 0.193712 -2.53715 0.562772 0
M  V30 49 H 1.44607 -1.30236 1.4301 0
M  V30 50 H 0.051893 0.649568 2.22425 0
M  V30 51 H 0.495821 2.64654 1.61257 0
M  V30 52 H 1.61622 -0.124735 3.65211 0
M  V30 53 H 2.14813 1.67647 4.60707 0
M  V30 54 H 3.33133 -1.07655 2.4351 0
M  V30 55 H 3.70447 1.57575 0.918629 0
M  V30 56 H 3.05732 -1.13166 -0.224133 0
M  V30 57 H 1.51453 1.05646 -1.22278 0
M  V30 58 H 4.74226 2.5486 -2.57063 0
M  V30 59 H 5.27961 0.0526912 -2.79498 0
M  V30 60 H 3.72779 -0.799511 -2.9448 0
M  V30 61 H 5.4362 0.644527 0.153339 0
M  V30 62 H 4.20158 0.960597 4.23795 0
M  V30 63 H 6.98254 -1.63302 3.004 0
M  V30 64 H 6.45797 1.79019 2.39901 0
M  V30 65 H 7.6938 0.798634 3.21159 0
M  V30 66 H 0.915361 -1.40565 -2.84593 0
M  V30 67 H 0.19216 -4.60597 -3.08696 0
M  V30 68 H 1.91879 -4.69919 -2.63213 0
M  V30 69 H 1.35011 -3.34901 -3.62784 0
M  V30 70 H -3.34446 -2.67054 -2.60424 0
M  V30 71 H -1.9905 -3.2661 -3.69225 0
M  V30 72 H -1.98437 -1.60202 -3.04126 0
M  V30 73 H -1.55265 1.76131 0.167827 0
M  V30 74 H -2.96727 2.32611 1.84733 0
M  V30 75 H -5.32432 2.2205 1.85252 0
M  V30 76 H -6.09174 3.52562 0.400827 0
M  V30 77 H -2.58001 4.20167 0.747186 0
M  V30 78 H -3.8583 2.23634 -1.6829 0
M  V30 79 H -2.15651 2.2564 -3.37759 0
M  V30 80 H -2.7029 0.672983 -2.79249 0
M  V30 81 H -1.08468 1.37585 -2.22861 0
M  V30 END ATOM
M  V30 BEGIN BOND
M  V30 1 1 1 2
M  V30 2 1 2 3
M  V30 3 1 3 4
M  V30 4 1 4 5
M  V30 5 1 5 6
M  V30 6 1 6 7
M  V30 7 1 7 8
M  V30 8 1 8 9
M  V30 9 1 9 10
M  V30 10 1 10 11
M  V30 11 1 11 12
M  V30 12 1 12 13
M  V30 13 1 13 14
M  V30 14 1 14 15
M  V30 15 1 14 16
M  V30 16 1 16 17
M  V30 17 1 16 18
M  V30 18 1 18 19
M  V30 19 1 19 20
M  V30 20 1 20 21
M  V30 21 1 21 22
M  V30 22 2 22 23 CFG=2
M  V30 23 1 22 24
M  V30 24 1 19 25
M  V30 25 1 18 26
M  V30 26 1 26 27
M  V30 27 2 27 28 CFG=2
M  V30 28 1 27 29
M  V30 29 1 10 30
M  V30 30 1 10 31
M  V30 31 1 31 32
M  V30 32 1 9 33
M  V30 33 1 5 34
M  V30 34 1 34 35
M  V30 35 1 35 36
M  V30 36 1 36 37
M  V30 37 1 35 38
M  V30 38 1 34 39
M  V30 39 1 39 40
M  V30 40 1 36 3
M  V30 41 1 11 7
M  V30 42 1 20 13
M  V30 43 1 1 41
M  V30 44 1 2 42
M  V30 45 1 2 43
M  V30 46 1 3 44 CFG=1
M  V30 47 1 5 45 CFG=1
M  V30 48 1 7 46 CFG=1
M  V30 49 1 9 47 CFG=3
M  V30 50 1 11 48
M  V30 51 1 13 49 CFG=1
M  V30 52 1 14 50 CFG=1
M  V30 53 1 15 51
M  V30 54 1 16 52 CFG=1
M  V30 55 1 17 53
M  V30 56 1 18 54 CFG=3
M  V30 57 1 19 55 CFG=1
M  V30 58 1 20 56 CFG=3
M  V30 59 1 21 57
M  V30 60 1 23 58
M  V30 61 1 24 59
M  V30 62 1 24 60
M  V30 63 1 25 61
M  V30 64 1 26 62
M  V30 65 1 28 63
M  V30 66 1 29 64
M  V30 67 1 29 65
M  V30 68 1 30 66
M  V30 69 1 32 67
M  V30 70 1 32 68
M  V30 71 1 32 69
M  V30 72 1 33 70
M  V30 73 1 33 71
M  V30 74 1 33 72
M  V30 75 1 34 73 CFG=1
M  V30 76 1 35 74 CFG=1
M  V30 77 1 36 75 CFG=1
M  V30 78 1 37 76
M  V30 79 1 38 77
M  V30 80 1 39 78
M  V30 81 1 40 79
M  V30 82 1 40 80
M  V30 83 1 40 81
M  V30 END BOND
M  V30 END CTAB
M  END
