
     RDKit          3D

  0  0  0  0  0  0  0  0  0  0999 V3000
M  V30 BEGIN CTAB
M  V30 COUNTS 28 28 0 0 0
M  V30 BEGIN ATOM
M  V30 1 N -3.56238 1.73294 0.417463 0
M  V30 2 N -3.45221 0.467447 -0.126549 0
M  V30 3 C -2.36538 -0.190927 0.0485725 0
M  V30 4 N -1.30952 0.3831 0.787452 0
M  V30 5 C 0.0791149 0.197312 0.416383 0
M  V30 6 C 0.48849 -1.25143 0.417591 0
M  V30 7 C 1.88127 -1.4526 1.00297 0
M  V30 8 C 2.70631 -0.233916 0.892967 0
M  V30 9 C 2.67947 0.679386 -0.0752339 0
M  V30 10 C 1.80782 0.684162 -1.27687 0
M  V30 11 C 0.357006 0.839613 -0.948226 0
M  V30 12 N -2.26675 -1.4939 -0.518143 0
M  V30 13 H -4.29321 1.9654 1.10621 0
M  V30 14 H -2.89579 2.46372 0.126524 0
M  V30 15 H -1.54613 0.964088 1.63481 0
M  V30 16 H 0.732383 0.719448 1.13149 0
M  V30 17 H -0.180753 -1.87801 1.05035 0
M  V30 18 H 0.531189 -1.59174 -0.628504 0
M  V30 19 H 2.4152 -2.25881 0.442424 0
M  V30 20 H 1.83801 -1.79254 2.05387 0
M  V30 21 H 3.41869 -0.0485608 1.68203 0
M  V30 22 H 3.3843 1.48756 0.0683433 0
M  V30 23 H 2.13984 1.55992 -1.90245 0
M  V30 24 H 1.97855 -0.24744 -1.87885 0
M  V30 25 H -0.269753 0.394102 -1.73499 0
M  V30 26 H 0.158189 1.93364 -0.83317 0
M  V30 27 H -2.30788 -2.3697 0.0536598 0
M  V30 28 H -2.14607 -1.66225 -1.54869 0
M  V30 END ATOM
M  V30 BEGIN BOND
M  V30 1 1 1 2
M  V30 2 2 2 3 CFG=2
M  V30 3 1 3 4
M  V30 4 1 4 5
M  V30 5 1 5 6
M  V30 6 1 6 7
M  V30 7 1 7 8
M  V30 8 2 8 9
M  V30 9 1 9 10
M  V30 10 1 10 11
M  V30 11 1 3 12
M  V30 12 1 11 5
M  V30 13 1 1 13
M  V30 14 1 1 14
M  V30 15 1 4 15
M  V30 16 1 5 16
M  V30 17 1 6 17
M  V30 18 1 6 18
M  V30 19 1 7 19
M  V30 20 1 7 20
M  V30 21 1 8 21
M  V30 22 1 9 22
M  V30 23 1 10 23
M  V30 24 1 10 24
M  V30 25 1 11 25
M  V30 26 1 11 26
M  V30 27 1 12 27
M  V30 28 1 12 28
M  V30 END BOND
M  V30 END CTAB
M  END
