
     RDKit          3D

  0  0  0  0  0  0  0  0  0  0999 V3000
M  V30 BEGIN CTAB
M  V30 COUNTS 72 77 0 0 0
M  V30 BEGIN ATOM
M  V30 1 C 2.97548 3.37506 -2.87432 0
M  V30 2 C 2.18602 3.55844 -1.60756 0
M  V30 3 O 2.04772 2.38448 -0.856051 0
M  V30 4 C 3.14311 1.67166 -0.346696 0
M  V30 5 O 4.27646 2.1331 -0.593567 0
M  V30 6 C 2.95937 0.430736 0.455698 0
M  V30 7 C 4.01211 -0.107222 0.904822 0
M  V30 8 N 5.32628 0.454725 0.583086 0
M  V30 9 O 3.91323 -1.17554 1.73447 0
M  V30 10 C 2.68514 -1.67571 2.1239 0
M  V30 11 C 1.49594 -1.08729 1.63 0
M  V30 12 C 1.57825 -0.281156 0.454604 0
M  V30 13 C 2.06004 -1.26647 -0.701509 0
M  V30 14 C 2.65226 -0.854961 -1.80744 0
M  V30 15 C 3.0601 -1.7602 -2.79954 0
M  V30 16 C 2.83681 -3.10092 -2.61494 0
M  V30 17 C 2.22158 -3.52045 -1.46834 0
M  V30 18 C 1.82455 -2.5847 -0.492103 0
M  V30 19 C 0.297674 -1.55822 2.13303 0
M  V30 20 C 0.325503 -2.60686 3.08873 0
M  V30 21 C 1.52031 -3.15005 3.50642 0
M  V30 22 C 2.70246 -2.7048 3.04429 0
M  V30 23 C -0.804608 -3.00781 3.76057 0
M  V30 24 C -1.96747 -2.3711 3.50807 0
M  V30 25 C -2.02056 -1.34549 2.59286 0
M  V30 26 C -0.925328 -0.894677 1.85483 0
M  V30 27 C -1.0263 0.0590514 0.782337 0
M  V30 28 C -1.48689 -0.642518 -0.529025 0
M  V30 29 C -1.21423 -0.0749723 -1.7239 0
M  V30 30 C -1.64937 -0.646156 -2.92002 0
M  V30 31 C -2.3594 -1.8002 -2.86554 0
M  V30 32 C -2.64393 -2.393 -1.67564 0
M  V30 33 C -2.18957 -1.78586 -0.507813 0
M  V30 34 C -2.39689 0.710245 0.862821 0
M  V30 35 C -3.36988 0.31817 1.59886 0
M  V30 36 O -3.28474 -0.716559 2.46628 0
M  V30 37 N -4.66641 0.957503 1.56596 0
M  V30 38 C -2.70845 2.00036 0.169852 0
M  V30 39 O -1.857 2.54761 -0.528255 0
M  V30 40 O -3.92329 2.63204 0.267414 0
M  V30 41 C -4.1667 3.8658 -0.41719 0
M  V30 42 C -5.54756 4.36691 -0.167728 0
M  V30 43 H 2.75675 4.20652 -3.57586 0
M  V30 44 H 2.70081 2.4405 -3.4076 0
M  V30 45 H 4.07173 3.37923 -2.71174 0
M  V30 46 H 2.63243 4.39555 -1.04056 0
M  V30 47 H 1.16602 3.88453 -1.89827 0
M  V30 48 H 5.76953 0.0423563 -0.262735 0
M  V30 49 H 5.74371 1.18991 1.1628 0
M  V30 50 H 1.17788 0.558106 0.0987159 0
M  V30 51 H 2.85186 0.151948 -2.07284 0
M  V30 52 H 3.53914 -1.41314 -3.68923 0
M  V30 53 H 3.15255 -3.81647 -3.38473 0
M  V30 54 H 2.04022 -4.57604 -1.31271 0
M  V30 55 H 1.32708 -3.04241 0.351338 0
M  V30 56 H 1.46572 -3.96778 4.2327 0
M  V30 57 H 3.64902 -3.12803 3.37224 0
M  V30 58 H -0.730108 -3.83065 4.4775 0
M  V30 59 H -2.88632 -2.67243 4.03754 0
M  V30 60 H -0.557161 0.974617 0.710412 0
M  V30 61 H -0.592966 0.815473 -1.8468 0
M  V30 62 H -1.40912 -0.155319 -3.84198 0
M  V30 63 H -2.71643 -2.2764 -3.77094 0
M  V30 64 H -3.20201 -3.30966 -1.5632 0
M  V30 65 H -2.42174 -2.31099 0.397108 0
M  V30 66 H -5.2904 0.6654 0.787866 0
M  V30 67 H -4.989 1.6531 2.24361 0
M  V30 68 H -4.0659 3.63523 -1.49246 0
M  V30 69 H -3.37297 4.59161 -0.171207 0
M  V30 70 H -5.94266 4.93689 -1.04827 0
M  V30 71 H -6.24946 3.54979 0.0977927 0
M  V30 72 H -5.50997 5.07557 0.680787 0
M  V30 END ATOM
M  V30 BEGIN BOND
M  V30 1 1 1 2
M  V30 2 1 2 3
M  V30 3 1 3 4
M  V30 4 2 4 5
M  V30 5 1 4 6
M  V30 6 2 6 7
M  V30 7 1 7 8
M  V30 8 1 7 9
M  V30 9 1 9 10
M  V30 10 2 10 11
M  V30 11 1 11 12
M  V30 12 1 12 13
M  V30 13 2 13 14
M  V30 14 1 14 15
M  V30 15 2 15 16
M  V30 16 1 16 17
M  V30 17 2 17 18
M  V30 18 1 11 19
M  V30 19 2 19 20
M  V30 20 1 20 21
M  V30 21 2 21 22
M  V30 22 1 20 23
M  V30 23 2 23 24
M  V30 24 1 24 25
M  V30 25 2 25 26
M  V30 26 1 26 27
M  V30 27 1 27 28
M  V30 28 2 28 29
M  V30 29 1 29 30
M  V30 30 2 30 31
M  V30 31 1 31 32
M  V30 32 2 32 33
M  V30 33 1 27 34
M  V30 34 2 34 35
M  V30 35 1 35 36
M  V30 36 1 35 37
M  V30 37 1 34 38
M  V30 38 2 38 39
M  V30 39 1 38 40
M  V30 40 1 40 41
M  V30 41 1 41 42
M  V30 42 1 12 6
M  V30 43 1 18 13
M  V30 44 1 26 19
M  V30 45 1 33 28
M  V30 46 1 22 10
M  V30 47 1 36 25
M  V30 48 1 1 43
M  V30 49 1 1 44
M  V30 50 1 1 45
M  V30 51 1 2 46
M  V30 52 1 2 47
M  V30 53 1 8 48
M  V30 54 1 8 49
M  V30 55 1 12 50
M  V30 56 1 14 51
M  V30 57 1 15 52
M  V30 58 1 16 53
M  V30 59 1 17 54
M  V30 60 1 18 55
M  V30 61 1 21 56
M  V30 62 1 22 57
M  V30 63 1 23 58
M  V30 64 1 24 59
M  V30 65 1 27 60
M  V30 66 1 29 61
M  V30 67 1 30 62
M  V30 68 1 31 63
M  V30 69 1 32 64
M  V30 70 1 33 65
M  V30 71 1 37 66
M  V30 72 1 37 67
M  V30 73 1 41 68
M  V30 74 1 41 69
M  V30 75 1 42 70
M  V30 76 1 42 71
M  V30 77 1 42 72
M  V30 END BOND
M  V30 END CTAB
M  END
