
     RDKit          3D

  0  0  0  0  0  0  0  0  0  0999 V3000
M  V30 BEGIN CTAB
M  V30 COUNTS 25 25 0 0 0
M  V30 BEGIN ATOM
M  V30 1 C -3.9271 0.482522 0.492021 0
M  V30 2 C -3.21534 1.20916 -0.628741 0
M  V30 3 O -1.82361 1.23714 -0.463368 0
M  V30 4 C -1.13431 0.0394962 -0.399608 0
M  V30 5 O -1.79675 -1.02217 -0.494008 0
M  V30 6 C 0.312318 -0.00746153 -0.228871 0
M  V30 7 C 1.00954 1.19158 -0.128289 0
M  V30 8 C 2.36931 1.15467 0.0323055 0
M  V30 9 Br 3.3545 2.7876 0.173464 0
M  V30 10 C 3.02077 -0.0480297 0.0915101 0
M  V30 11 C 2.32748 -1.24602 -0.00858867 0
M  V30 12 C 0.968572 -1.21417 -0.169162 0
M  V30 13 N 0.205655 -2.408 -0.277457 0
M  V30 14 N 4.44395 -0.0824109 0.259673 0
M  V30 15 H -3.15817 0.306869 1.28979 0
M  V30 16 H -4.22963 -0.540827 0.158784 0
M  V30 17 H -4.77204 1.07348 0.851174 0
M  V30 18 H -3.54302 0.741284 -1.5765 0
M  V30 19 H -3.57809 2.27514 -0.647927 0
M  V30 20 H 0.457245 2.13081 -0.179686 0
M  V30 21 H 2.88358 -2.16768 0.0435116 0
M  V30 22 H -0.337181 -2.75297 0.55503 0
M  V30 23 H 0.215303 -2.90591 -1.20102 0
M  V30 24 H 4.96953 -0.948201 -0.0469639 0
M  V30 25 H 4.97748 0.714094 0.672566 0
M  V30 END ATOM
M  V30 BEGIN BOND
M  V30 1 1 1 2
M  V30 2 1 2 3
M  V30 3 1 3 4
M  V30 4 2 4 5
M  V30 5 1 4 6
M  V30 6 2 6 7
M  V30 7 1 7 8
M  V30 8 1 8 9
M  V30 9 2 8 10
M  V30 10 1 10 11
M  V30 11 2 11 12
M  V30 12 1 12 13
M  V30 13 1 10 14
M  V30 14 1 12 6
M  V30 15 1 1 15
M  V30 16 1 1 16
M  V30 17 1 1 17
M  V30 18 1 2 18
M  V30 19 1 2 19
M  V30 20 1 7 20
M  V30 21 1 11 21
M  V30 22 1 13 22
M  V30 23 1 13 23
M  V30 24 1 14 24
M  V30 25 1 14 25
M  V30 END BOND
M  V30 END CTAB
M  END
