
     RDKit          3D

  0  0  0  0  0  0  0  0  0  0999 V3000
M  V30 BEGIN CTAB
M  V30 COUNTS 17 17 0 0 0
M  V30 BEGIN ATOM
M  V30 1 C 3.86571 -0.280782 0.348948 0
M  V30 2 S 2.4927 -1.46471 0.287157 0
M  V30 3 C 0.960602 -0.58269 0.108136 0
M  V30 4 N 0.931112 0.752132 0.038826 0
M  V30 5 N -0.171512 1.42946 -0.0921382 0
M  V30 6 C -1.36871 0.838002 -0.168017 0
M  V30 7 N -2.56547 1.58297 -0.310645 0
M  V30 8 C -1.38922 -0.554873 -0.100207 0
M  V30 9 N -2.62391 -1.22902 -0.175236 0
M  V30 10 N -0.235235 -1.2045 0.0338931 0
M  V30 11 H 3.61121 0.565515 -0.336671 0
M  V30 12 H 4.83449 -0.73728 0.125663 0
M  V30 13 H 3.86572 0.145671 1.37954 0
M  V30 14 H -3.03744 1.9518 0.525207 0
M  V30 15 H -2.94951 1.74685 -1.25047 0
M  V30 16 H -3.50908 -0.708931 -0.373433 0
M  V30 17 H -2.71146 -2.24962 -0.0405555 0
M  V30 END ATOM
M  V30 BEGIN BOND
M  V30 1 1 1 2
M  V30 2 1 2 3
M  V30 3 2 3 4
M  V30 4 1 4 5
M  V30 5 2 5 6
M  V30 6 1 6 7
M  V30 7 1 6 8
M  V30 8 1 8 9
M  V30 9 2 8 10
M  V30 10 1 10 3
M  V30 11 1 1 11
M  V30 12 1 1 12
M  V30 13 1 1 13
M  V30 14 1 7 14
M  V30 15 1 7 15
M  V30 16 1 9 16
M  V30 17 1 9 17
M  V30 END BOND
M  V30 END CTAB
M  END
