
     RDKit          3D

  0  0  0  0  0  0  0  0  0  0999 V3000
M  V30 BEGIN CTAB
M  V30 COUNTS 30 31 0 0 0
M  V30 BEGIN ATOM
M  V30 1 O -0.354214 0.15339 1.903 0
M  V30 2 C -1.11964 0.588332 0.795032 0
M  V30 3 C -2.49308 0.0785858 0.918484 0
M  V30 4 C -3.16322 -0.447366 -0.281336 0
M  V30 5 C -2.2986 -0.737679 -1.46001 0
M  V30 6 C -0.896353 -1.08168 -0.967308 0
M  V30 7 C -0.365239 0.219176 -0.429478 0
M  V30 8 N 1.0526 0.164689 -0.130477 0
M  V30 9 N 1.70005 -0.900552 0.310164 0
M  V30 10 C 3.00237 -0.642348 0.494708 0
M  V30 11 C 3.16593 0.681658 0.140357 0
M  V30 12 C 1.93017 1.17695 -0.251145 0
M  V30 13 N 1.63475 2.49555 -0.695553 0
M  V30 14 N 4.01295 -1.55433 0.963049 0
M  V30 15 H -0.682516 -0.762378 2.16679 0
M  V30 16 H -1.07871 1.7157 0.873433 0
M  V30 17 H -3.13459 0.910543 1.33995 0
M  V30 18 H -2.55049 -0.706548 1.73144 0
M  V30 19 H -3.72955 -1.40167 -0.0601855 0
M  V30 20 H -3.97291 0.25156 -0.649406 0
M  V30 21 H -2.21294 0.214099 -2.0592 0
M  V30 22 H -2.68385 -1.55006 -2.08092 0
M  V30 23 H -0.294848 -1.43812 -1.83999 0
M  V30 24 H -0.911105 -1.81576 -0.16036 0
M  V30 25 H -0.470784 0.970106 -1.25788 0
M  V30 26 H 4.1029 1.2269 0.168047 0
M  V30 27 H 1.77324 3.32762 -0.0864752 0
M  V30 28 H 1.26256 2.63631 -1.6757 0
M  V30 29 H 4.16109 -2.49074 0.527273 0
M  V30 30 H 4.61404 -1.28194 1.75368 0
M  V30 END ATOM
M  V30 BEGIN BOND
M  V30 1 1 1 2
M  V30 2 1 2 3
M  V30 3 1 3 4
M  V30 4 1 4 5
M  V30 5 1 5 6
M  V30 6 1 6 7
M  V30 7 1 7 8
M  V30 8 1 8 9
M  V30 9 2 9 10
M  V30 10 1 10 11
M  V30 11 2 11 12
M  V30 12 1 12 13
M  V30 13 1 10 14
M  V30 14 1 7 2
M  V30 15 1 12 8
M  V30 16 1 1 15
M  V30 17 1 2 16
M  V30 18 1 3 17
M  V30 19 1 3 18
M  V30 20 1 4 19
M  V30 21 1 4 20
M  V30 22 1 5 21
M  V30 23 1 5 22
M  V30 24 1 6 23
M  V30 25 1 6 24
M  V30 26 1 7 25
M  V30 27 1 11 26
M  V30 28 1 13 27
M  V30 29 1 13 28
M  V30 30 1 14 29
M  V30 31 1 14 30
M  V30 END BOND
M  V30 END CTAB
M  END
