
     RDKit          3D

  0  0  0  0  0  0  0  0  0  0999 V3000
M  V30 BEGIN CTAB
M  V30 COUNTS 38 40 0 0 0
M  V30 BEGIN ATOM
M  V30 1 N 5.59937 2.60666 0.105391 0
M  V30 2 C 4.99075 1.40177 -0.296852 0
M  V30 3 N 5.66609 0.478898 -1.00045 0
M  V30 4 C 5.05853 -0.682368 -1.38085 0
M  V30 5 N 3.78807 -0.899217 -1.05101 0
M  V30 6 C 3.04486 -0.0253949 -0.348869 0
M  V30 7 C 3.67623 1.16482 0.0380178 0
M  V30 8 N 2.72256 1.83583 0.709888 0
M  V30 9 C 1.57489 1.14177 0.754355 0
M  V30 10 N 1.77619 -0.0222235 0.092309 0
M  V30 11 C 0.779874 -1.06221 -0.0917025 0 CFG=2
M  V30 12 O -0.301415 -0.643761 -0.829466 0
M  V30 13 C -1.45217 -1.05424 -0.215875 0 CFG=2
M  V30 14 C -2.63862 -0.134019 -0.517195 0
M  V30 15 O -3.72271 -0.645686 0.147677 0
M  V30 16 P -5.1359 0.209866 -0.0440395 0
M  V30 17 N -5.18177 1.16397 -1.49552 0
M  V30 18 O -5.499 1.20726 1.26472 0
M  V30 19 O -6.27966 -0.804225 -0.145592 0
M  V30 20 C -1.12933 -1.00372 1.25832 0 CFG=1
M  V30 21 O -1.87877 -1.89466 1.99971 0
M  V30 22 C 0.302883 -1.4991 1.25105 0 CFG=1
M  V30 23 O 0.24998 -2.89045 1.32435 0
M  V30 24 H 5.92417 2.75818 1.08048 0
M  V30 25 H 5.73129 3.37061 -0.585312 0
M  V30 26 H 5.64173 -1.3774 -1.93659 0
M  V30 27 H 0.678943 1.4958 1.24494 0
M  V30 28 H 1.27339 -1.93009 -0.581631 0
M  V30 29 H -1.7598 -2.07571 -0.479956 0
M  V30 30 H -2.41403 0.916413 -0.314533 0
M  V30 31 H -2.79733 -0.222564 -1.63162 0
M  V30 32 H -4.92823 2.17636 -1.29364 0
M  V30 33 H -6.16559 1.221 -1.89586 0
M  V30 34 H -4.72845 1.4034 1.83712 0
M  V30 35 H -1.21867 0.0361697 1.58146 0
M  V30 36 H -2.46132 -1.34289 2.60786 0
M  V30 37 H 0.893458 -1.10209 2.09847 0
M  V30 38 H 0.319506 -3.27676 0.421 0
M  V30 END ATOM
M  V30 BEGIN BOND
M  V30 1 1 1 2
M  V30 2 2 2 3
M  V30 3 1 3 4
M  V30 4 2 4 5
M  V30 5 1 5 6
M  V30 6 2 6 7
M  V30 7 1 7 8
M  V30 8 2 8 9
M  V30 9 1 9 10
M  V30 10 1 10 11
M  V30 11 1 11 12
M  V30 12 1 12 13
M  V30 13 1 13 14
M  V30 14 1 14 15
M  V30 15 1 15 16
M  V30 16 1 16 17
M  V30 17 1 16 18
M  V30 18 2 16 19
M  V30 19 1 13 20
M  V30 20 1 20 21
M  V30 21 1 20 22
M  V30 22 1 22 23
M  V30 23 1 7 2
M  V30 24 1 22 11
M  V30 25 1 10 6
M  V30 26 1 1 24
M  V30 27 1 1 25
M  V30 28 1 4 26
M  V30 29 1 9 27
M  V30 30 1 11 28 CFG=3
M  V30 31 1 13 29 CFG=3
M  V30 32 1 14 30
M  V30 33 1 14 31
M  V30 34 1 17 32
M  V30 35 1 17 33
M  V30 36 1 18 34
M  V30 37 1 20 35 CFG=1
M  V30 38 1 21 36
M  V30 39 1 22 37 CFG=1
M  V30 40 1 23 38
M  V30 END BOND
M  V30 END CTAB
M  END
