
     RDKit          3D

  0  0  0  0  0  0  0  0  0  0999 V3000
M  V30 BEGIN CTAB
M  V30 COUNTS 17 17 0 0 0
M  V30 BEGIN ATOM
M  V30 1 N 2.54077 -0.404329 -0.63431 0
M  V30 2 C 1.63569 0.28493 0.209415 0
M  V30 3 S 2.18018 1.44927 1.20565 0
M  V30 4 C 0.232878 -0.0652973 0.166132 0
M  V30 5 C -0.207046 -1.37136 0.264684 0
M  V30 6 C -1.5612 -1.62535 0.215032 0
M  V30 7 C -2.50597 -0.630442 0.0705263 0
M  V30 8 N -2.04521 0.629314 -0.0225564 0
M  V30 9 C -0.73198 0.938386 0.0197137 0
M  V30 10 N -0.255907 2.26619 -0.0789182 0
M  V30 11 H 2.37803 -0.547377 -1.65741 0
M  V30 12 H 3.44525 -0.819972 -0.275506 0
M  V30 13 H 0.539916 -2.1524 0.378411 0
M  V30 14 H -1.91588 -2.65231 0.292047 0
M  V30 15 H -3.5761 -0.842469 0.0323546 0
M  V30 16 H -0.136741 2.81664 0.797412 0
M  V30 17 H -0.0166908 2.72658 -0.982673 0
M  V30 END ATOM
M  V30 BEGIN BOND
M  V30 1 1 1 2
M  V30 2 2 2 3
M  V30 3 1 2 4
M  V30 4 2 4 5
M  V30 5 1 5 6
M  V30 6 2 6 7
M  V30 7 1 7 8
M  V30 8 2 8 9
M  V30 9 1 9 10
M  V30 10 1 9 4
M  V30 11 1 1 11
M  V30 12 1 1 12
M  V30 13 1 5 13
M  V30 14 1 6 14
M  V30 15 1 7 15
M  V30 16 1 10 16
M  V30 17 1 10 17
M  V30 END BOND
M  V30 END CTAB
M  END
