
     RDKit          3D

  0  0  0  0  0  0  0  0  0  0999 V3000
M  V30 BEGIN CTAB
M  V30 COUNTS 42 45 0 0 0
M  V30 BEGIN ATOM
M  V30 1 N 8.94006 0.940194 0.0673131 0
M  V30 2 C 7.5754 0.569946 0.206685 0
M  V30 3 C 6.63099 0.90864 -0.770132 0
M  V30 4 C 5.31023 0.542902 -0.621882 0
M  V30 5 C 4.90325 -0.15925 0.487731 0
M  V30 6 C 5.83577 -0.506176 1.47451 0
M  V30 7 C 7.13297 -0.131414 1.30061 0
M  V30 8 C 3.49669 -0.561061 0.696407 0
M  V30 9 O 3.3364 -1.56731 1.43407 0
M  V30 10 N 2.48932 0.189763 0.0748075 0
M  V30 11 C 1.09483 -0.00293757 0.12624 0
M  V30 12 C 0.290507 0.887424 -0.589522 0
M  V30 13 C -1.06254 0.755317 -0.580334 0
M  V30 14 C -1.72881 -0.236194 0.113828 0
M  V30 15 C -0.954984 -1.10747 0.813375 0
M  V30 16 C 0.441567 -0.986689 0.815483 0
M  V30 17 C -3.18494 -0.301658 0.066653 0
M  V30 18 O -3.98089 -1.16845 0.659388 0
M  V30 19 C -5.24493 -0.913465 0.386354 0
M  V30 20 C -5.27942 0.195602 -0.441397 0
M  V30 21 N -3.98462 0.532501 -0.60688 0
M  V30 22 C -6.45878 0.73093 -0.917513 0
M  V30 23 C -7.63182 0.140537 -0.555329 0
M  V30 24 C -7.63248 -0.968174 0.269842 0
M  V30 25 C -6.44593 -1.49111 0.737208 0
M  V30 26 N -8.87891 0.662834 -1.0262 0
M  V30 27 H 9.1588 1.94234 -0.0832926 0
M  V30 28 H 9.65616 0.191957 0.122401 0
M  V30 29 H 6.92864 1.45366 -1.63808 0
M  V30 30 H 4.59832 0.804298 -1.38064 0
M  V30 31 H 5.47647 -1.06131 2.33758 0
M  V30 32 H 7.85216 -0.404853 2.07227 0
M  V30 33 H 2.83243 1.01462 -0.505424 0
M  V30 34 H 0.718412 1.68111 -1.15216 0
M  V30 35 H -1.65936 1.46491 -1.14787 0
M  V30 36 H -1.39723 -1.90848 1.38048 0
M  V30 37 H 1.01584 -1.7076 1.39002 0
M  V30 38 H -6.4905 1.5967 -1.564 0
M  V30 39 H -8.57786 -1.40207 0.530531 0
M  V30 40 H -6.42221 -2.36719 1.39084 0
M  V30 41 H -9.72486 0.0706041 -1.12787 0
M  V30 42 H -8.97414 1.67608 -1.28606 0
M  V30 END ATOM
M  V30 BEGIN BOND
M  V30 1 1 1 2
M  V30 2 2 2 3
M  V30 3 1 3 4
M  V30 4 2 4 5
M  V30 5 1 5 6
M  V30 6 2 6 7
M  V30 7 1 5 8
M  V30 8 2 8 9
M  V30 9 1 8 10
M  V30 10 1 10 11
M  V30 11 2 11 12
M  V30 12 1 12 13
M  V30 13 2 13 14
M  V30 14 1 14 15
M  V30 15 2 15 16
M  V30 16 1 14 17
M  V30 17 1 17 18
M  V30 18 1 18 19
M  V30 19 2 19 20
M  V30 20 1 20 21
M  V30 21 1 20 22
M  V30 22 2 22 23
M  V30 23 1 23 24
M  V30 24 2 24 25
M  V30 25 1 23 26
M  V30 26 1 7 2
M  V30 27 1 16 11
M  V30 28 2 21 17
M  V30 29 1 25 19
M  V30 30 1 1 27
M  V30 31 1 1 28
M  V30 32 1 3 29
M  V30 33 1 4 30
M  V30 34 1 6 31
M  V30 35 1 7 32
M  V30 36 1 10 33
M  V30 37 1 12 34
M  V30 38 1 13 35
M  V30 39 1 15 36
M  V30 40 1 16 37
M  V30 41 1 22 38
M  V30 42 1 24 39
M  V30 43 1 25 40
M  V30 44 1 26 41
M  V30 45 1 26 42
M  V30 END BOND
M  V30 END CTAB
M  END
