
     RDKit          3D

  0  0  0  0  0  0  0  0  0  0999 V3000
M  V30 BEGIN CTAB
M  V30 COUNTS 40 40 0 0 0
M  V30 BEGIN ATOM
M  V30 1 C 3.34224 0.163448 1.28534 0
M  V30 2 C 2.40506 0.717574 0.268931 0
M  V30 3 C 1.99057 2.10516 0.683892 0
M  V30 4 C 3.21745 0.850717 -1.02779 0
M  V30 5 C 1.23291 -0.0868266 -0.0332548 0
M  V30 6 C -0.0170184 0.442028 0.186688 0
M  V30 7 C -1.17594 -0.295429 -0.0881817 0
M  V30 8 C -1.03566 -1.57165 -0.587373 0
M  V30 9 N -2.18131 -2.34846 -0.877752 0
M  V30 10 C 0.206982 -2.1156 -0.813083 0
M  V30 11 C 1.33791 -1.38888 -0.542098 0
M  V30 12 N 2.64478 -1.85488 -0.73774 0
M  V30 13 C -2.52916 0.232229 0.132412 0
M  V30 14 C -2.43251 1.65444 0.685928 0
M  V30 15 C -3.36377 0.273735 -1.10741 0
M  V30 16 C -3.19474 -0.599088 1.22145 0
M  V30 17 H 4.25295 -0.303469 0.827731 0
M  V30 18 H 2.86383 -0.499054 2.03682 0
M  V30 19 H 3.74662 1.0203 1.86577 0
M  V30 20 H 1.40599 2.10208 1.62572 0
M  V30 21 H 2.8949 2.75245 0.796256 0
M  V30 22 H 1.33299 2.58829 -0.085716 0
M  V30 23 H 2.59064 0.554293 -1.89182 0
M  V30 24 H 3.46603 1.91586 -1.18511 0
M  V30 25 H 4.1556 0.259443 -0.983879 0
M  V30 26 H -0.193407 1.45373 0.583814 0
M  V30 27 H -2.64142 -2.30889 -1.80882 0
M  V30 28 H -2.58294 -2.97445 -0.160156 0
M  V30 29 H 0.316747 -3.11761 -1.205 0
M  V30 30 H 3.16477 -2.28458 0.0480854 0
M  V30 31 H 3.10383 -1.77833 -1.66216 0
M  V30 32 H -3.4682 2.04265 0.82922 0
M  V30 33 H -1.9238 1.67785 1.65198 0
M  V30 34 H -1.93021 2.33722 -0.0252257 0
M  V30 35 H -3.89293 1.24459 -1.20079 0
M  V30 36 H -2.76078 0.121663 -2.03837 0
M  V30 37 H -4.17909 -0.500695 -1.03563 0
M  V30 38 H -3.71283 0.0411502 1.96628 0
M  V30 39 H -3.97062 -1.21347 0.711802 0
M  V30 40 H -2.48647 -1.30954 1.68923 0
M  V30 END ATOM
M  V30 BEGIN BOND
M  V30 1 1 1 2
M  V30 2 1 2 3
M  V30 3 1 2 4
M  V30 4 1 2 5
M  V30 5 2 5 6
M  V30 6 1 6 7
M  V30 7 2 7 8
M  V30 8 1 8 9
M  V30 9 1 8 10
M  V30 10 2 10 11
M  V30 11 1 11 12
M  V30 12 1 7 13
M  V30 13 1 13 14
M  V30 14 1 13 15
M  V30 15 1 13 16
M  V30 16 1 11 5
M  V30 17 1 1 17
M  V30 18 1 1 18
M  V30 19 1 1 19
M  V30 20 1 3 20
M  V30 21 1 3 21
M  V30 22 1 3 22
M  V30 23 1 4 23
M  V30 24 1 4 24
M  V30 25 1 4 25
M  V30 26 1 6 26
M  V30 27 1 9 27
M  V30 28 1 9 28
M  V30 29 1 10 29
M  V30 30 1 12 30
M  V30 31 1 12 31
M  V30 32 1 14 32
M  V30 33 1 14 33
M  V30 34 1 14 34
M  V30 35 1 15 35
M  V30 36 1 15 36
M  V30 37 1 15 37
M  V30 38 1 16 38
M  V30 39 1 16 39
M  V30 40 1 16 40
M  V30 END BOND
M  V30 END CTAB
M  END
