
     RDKit          3D

  0  0  0  0  0  0  0  0  0  0999 V3000
M  V30 BEGIN CTAB
M  V30 COUNTS 47 50 0 0 0
M  V30 BEGIN ATOM
M  V30 1 C 7.52644 -0.329879 1.85655 0
M  V30 2 O 6.39045 0.51484 1.85015 0
M  V30 3 C 5.29218 0.183533 1.06986 0
M  V30 4 C 5.27179 -0.944762 0.298731 0
M  V30 5 C 4.14941 -1.23963 -0.469237 0
M  V30 6 C 3.04239 -0.420589 -0.478379 0
M  V30 7 C 3.07841 0.707782 0.300708 0
M  V30 8 C 4.18763 1.01296 1.06895 0
M  V30 9 C 1.9351 1.68708 0.380662 0
M  V30 10 C 1.10796 1.46513 -0.874659 0
M  V30 11 N 0.780652 0.0720252 -1.01416 0
M  V30 12 C 1.89002 -0.819524 -1.33129 0
M  V30 13 C -0.536582 -0.386471 -0.842848 0
M  V30 14 C -1.58213 0.390344 -0.419765 0
M  V30 15 C -2.87194 -0.125928 -0.273983 0
M  V30 16 N -3.04213 -1.42131 -0.567638 0
M  V30 17 C -2.04258 -2.22576 -0.987738 0
M  V30 18 N -0.815007 -1.69526 -1.11657 0
M  V30 19 N -2.285 -3.60158 -1.28676 0
M  V30 20 C -4.02095 0.690786 0.181246 0
M  V30 21 C -4.91295 0.0555249 1.20442 0
M  V30 22 C -6.00496 -0.151522 0.175405 0
M  V30 23 C -5.15272 0.582567 -0.832917 0
M  V30 24 N -7.21713 0.601369 0.463072 0
M  V30 25 H 7.28272 -1.2527 2.40622 0
M  V30 26 H 7.83722 -0.572806 0.816452 0
M  V30 27 H 8.3906 0.157772 2.34571 0
M  V30 28 H 6.14345 -1.5882 0.306906 0
M  V30 29 H 4.18895 -2.13679 -1.05423 0
M  V30 30 H 4.22909 1.90068 1.68836 0
M  V30 31 H 2.29282 2.72895 0.352432 0
M  V30 32 H 1.31471 1.43593 1.24083 0
M  V30 33 H 1.79059 1.77436 -1.72558 0
M  V30 34 H 0.260186 2.15798 -0.853478 0
M  V30 35 H 1.6477 -1.86569 -1.09721 0
M  V30 36 H 2.20458 -0.752375 -2.38236 0
M  V30 37 H -1.44223 1.43217 -0.180581 0
M  V30 38 H -2.5512 -3.82386 -2.26871 0
M  V30 39 H -2.20648 -4.34231 -0.588523 0
M  V30 40 H -3.72309 1.73475 0.380879 0
M  V30 41 H -5.23901 0.801282 1.96926 0
M  V30 42 H -4.5553 -0.872601 1.67093 0
M  V30 43 H -6.17462 -1.21822 -0.0512773 0
M  V30 44 H -4.9511 -0.0640201 -1.69346 0
M  V30 45 H -5.53933 1.55887 -1.15906 0
M  V30 46 H -7.31459 0.679414 1.51249 0
M  V30 47 H -8.05402 0.194029 0.0101716 0
M  V30 END ATOM
M  V30 BEGIN BOND
M  V30 1 1 1 2
M  V30 2 1 2 3
M  V30 3 2 3 4
M  V30 4 1 4 5
M  V30 5 2 5 6
M  V30 6 1 6 7
M  V30 7 2 7 8
M  V30 8 1 7 9
M  V30 9 1 9 10
M  V30 10 1 10 11
M  V30 11 1 11 12
M  V30 12 1 11 13
M  V30 13 2 13 14
M  V30 14 1 14 15
M  V30 15 2 15 16
M  V30 16 1 16 17
M  V30 17 2 17 18
M  V30 18 1 17 19
M  V30 19 1 15 20
M  V30 20 1 20 21
M  V30 21 1 21 22
M  V30 22 1 22 23
M  V30 23 1 22 24
M  V30 24 1 8 3
M  V30 25 1 18 13
M  V30 26 1 23 20
M  V30 27 1 12 6
M  V30 28 1 1 25
M  V30 29 1 1 26
M  V30 30 1 1 27
M  V30 31 1 4 28
M  V30 32 1 5 29
M  V30 33 1 8 30
M  V30 34 1 9 31
M  V30 35 1 9 32
M  V30 36 1 10 33
M  V30 37 1 10 34
M  V30 38 1 12 35
M  V30 39 1 12 36
M  V30 40 1 14 37
M  V30 41 1 19 38
M  V30 42 1 19 39
M  V30 43 1 20 40
M  V30 44 1 21 41
M  V30 45 1 21 42
M  V30 46 1 22 43
M  V30 47 1 23 44
M  V30 48 1 23 45
M  V30 49 1 24 46
M  V30 50 1 24 47
M  V30 END BOND
M  V30 END CTAB
M  END
