
     RDKit          3D

  0  0  0  0  0  0  0  0  0  0999 V3000
M  V30 BEGIN CTAB
M  V30 COUNTS 34 34 0 0 0
M  V30 BEGIN ATOM
M  V30 1 N 4.11529 1.84017 -0.687875 0
M  V30 2 C 3.25679 0.695629 -1.03103 0
M  V30 3 C 2.00152 0.857876 -0.264863 0
M  V30 4 C 0.958136 -0.190227 -0.453188 0 CFG=1
M  V30 5 C 1.3835 -1.58362 -0.0871065 0
M  V30 6 O 0.55724 -2.48168 -0.712292 0
M  V30 7 C -0.545836 -2.89526 -0.025529 0
M  V30 8 C -1.18795 -1.86693 0.863847 0
M  V30 9 N -1.31864 -0.608243 0.126746 0
M  V30 10 C -0.159791 0.167597 0.530922 0
M  V30 11 C -2.49014 0.122186 0.561869 0
M  V30 12 C -2.68205 1.30656 -0.356207 0
M  V30 13 N -3.84176 2.10256 0.0257846 0
M  V30 14 H 3.90396 2.09023 0.31302 0
M  V30 15 H 3.80896 2.68364 -1.25172 0
M  V30 16 H 3.10559 0.710629 -2.11924 0
M  V30 17 H 3.84562 -0.192374 -0.690999 0
M  V30 18 H 2.20509 0.94554 0.823736 0
M  V30 19 H 1.53039 1.8285 -0.570978 0
M  V30 20 H 0.510557 -0.209522 -1.46309 0
M  V30 21 H 2.42136 -1.7338 -0.509565 0
M  V30 22 H 1.42638 -1.74702 0.996158 0
M  V30 23 H -0.402658 -3.81479 0.57451 0
M  V30 24 H -1.34047 -3.16325 -0.785568 0
M  V30 25 H -2.22053 -2.1962 1.08443 0
M  V30 26 H -0.686495 -1.72138 1.8318 0
M  V30 27 H 0.213373 -0.22021 1.5255 0
M  V30 28 H -0.307712 1.2429 0.578147 0
M  V30 29 H -2.23485 0.560808 1.56521 0
M  V30 30 H -3.38211 -0.507966 0.610254 0
M  V30 31 H -1.81713 1.96224 -0.454748 0
M  V30 32 H -2.88095 0.864379 -1.36881 0
M  V30 33 H -3.73039 3.11636 -0.248303 0
M  V30 34 H -4.01429 2.03466 1.06918 0
M  V30 END ATOM
M  V30 BEGIN BOND
M  V30 1 1 1 2
M  V30 2 1 2 3
M  V30 3 1 3 4
M  V30 4 1 4 5
M  V30 5 1 5 6
M  V30 6 1 6 7
M  V30 7 1 7 8
M  V30 8 1 8 9
M  V30 9 1 9 10
M  V30 10 1 9 11
M  V30 11 1 11 12
M  V30 12 1 12 13
M  V30 13 1 10 4
M  V30 14 1 1 14
M  V30 15 1 1 15
M  V30 16 1 2 16
M  V30 17 1 2 17
M  V30 18 1 3 18
M  V30 19 1 3 19
M  V30 20 1 4 20 CFG=3
M  V30 21 1 5 21
M  V30 22 1 5 22
M  V30 23 1 7 23
M  V30 24 1 7 24
M  V30 25 1 8 25
M  V30 26 1 8 26
M  V30 27 1 10 27
M  V30 28 1 10 28
M  V30 29 1 11 29
M  V30 30 1 11 30
M  V30 31 1 12 31
M  V30 32 1 12 32
M  V30 33 1 13 33
M  V30 34 1 13 34
M  V30 END BOND
M  V30 END CTAB
M  END
