
     RDKit          3D

  0  0  0  0  0  0  0  0  0  0999 V3000
M  V30 BEGIN CTAB
M  V30 COUNTS 59 60 0 0 0
M  V30 BEGIN ATOM
M  V30 1 C -4.33458 3.9548 -0.262219 0
M  V30 2 C -4.6732 2.68994 0.513626 0
M  V30 3 O -3.84704 1.61699 0.14751 0
M  V30 4 C -2.47369 1.64239 0.28327 0
M  V30 5 O -2.01228 2.73499 0.774965 0
M  V30 6 C -1.57789 0.533911 -0.0932806 0
M  V30 7 C -1.758 -0.71866 0.702546 0
M  V30 8 C -3.07557 -1.34404 0.64553 0
M  V30 9 C -4.06871 -1.06389 1.56141 0
M  V30 10 C -5.30875 -1.64072 1.52381 0
M  V30 11 C -5.60554 -2.56215 0.516159 0
M  V30 12 C -4.63899 -2.86185 -0.409692 0
M  V30 13 C -3.38549 -2.25581 -0.342376 0
M  V30 14 C -6.90471 -3.16725 0.475099 0
M  V30 15 N -7.89119 -2.83278 1.45307 0
M  V30 16 N -7.24462 -4.01967 -0.418478 0
M  V30 17 N -0.191442 0.966055 0.152785 0
M  V30 18 C 0.694285 1.10869 -0.931669 0
M  V30 19 O 0.275327 0.86191 -2.09125 0
M  V30 20 C 2.11881 1.5455 -0.742704 0
M  V30 21 N 2.31881 1.75428 0.685124 0
M  V30 22 S 3.92313 2.26024 1.0263 0
M  V30 23 O 4.15968 3.6034 0.36566 0
M  V30 24 O 4.00018 2.49098 2.52521 0
M  V30 25 C 5.1056 1.084 0.555092 0
M  V30 26 C 5.54623 0.0845524 1.39733 0
M  V30 27 C 6.50342 -0.843098 0.973257 0
M  V30 28 C 7.03319 -0.785375 -0.296546 0
M  V30 29 C 6.58521 0.217036 -1.12811 0
M  V30 30 C 5.6387 1.13767 -0.714804 0
M  V30 31 C 8.03919 -1.75861 -0.742174 0
M  V30 32 N 8.57959 -1.68798 -2.05424 0
M  V30 33 N 8.44217 -2.6878 0.0556176 0
M  V30 34 H -3.61729 3.75508 -1.08502 0
M  V30 35 H -5.25094 4.45782 -0.657311 0
M  V30 36 H -3.85201 4.68917 0.41255 0
M  V30 37 H -4.69132 2.91845 1.57865 0
M  V30 38 H -5.72838 2.43945 0.223776 0
M  V30 39 H -1.69547 0.368729 -1.19008 0
M  V30 40 H -1.44581 -0.471154 1.7539 0
M  V30 41 H -0.972683 -1.44048 0.361479 0
M  V30 42 H -3.85332 -0.347271 2.35358 0
M  V30 43 H -6.05353 -1.39533 2.25545 0
M  V30 44 H -4.83468 -3.5619 -1.19207 0
M  V30 45 H -2.60363 -2.47933 -1.06702 0
M  V30 46 H -8.08076 -1.83105 1.6577 0
M  V30 47 H -8.43061 -3.5555 1.97171 0
M  V30 48 H -6.66701 -4.37825 -1.19839 0
M  V30 49 H 0.052185 1.14462 1.15058 0
M  V30 50 H 2.22975 2.50076 -1.29541 0
M  V30 51 H 2.78483 0.753607 -1.14464 0
M  V30 52 H 1.68195 2.53255 0.963027 0
M  V30 53 H 5.1519 0.0163963 2.38871 0
M  V30 54 H 6.85303 -1.63508 1.6401 0
M  V30 55 H 7.01242 0.254653 -2.13647 0
M  V30 56 H 5.30621 1.90835 -1.38019 0
M  V30 57 H 8.13494 -2.18223 -2.85993 0
M  V30 58 H 9.44655 -1.1377 -2.27074 0
M  V30 59 H 9.15181 -3.38201 -0.244598 0
M  V30 END ATOM
M  V30 BEGIN BOND
M  V30 1 1 1 2
M  V30 2 1 2 3
M  V30 3 1 3 4
M  V30 4 2 4 5
M  V30 5 1 4 6
M  V30 6 1 6 7
M  V30 7 1 7 8
M  V30 8 2 8 9
M  V30 9 1 9 10
M  V30 10 2 10 11
M  V30 11 1 11 12
M  V30 12 2 12 13
M  V30 13 1 11 14
M  V30 14 1 14 15
M  V30 15 2 14 16 CFG=2
M  V30 16 1 6 17
M  V30 17 1 17 18
M  V30 18 2 18 19
M  V30 19 1 18 20
M  V30 20 1 20 21
M  V30 21 1 21 22
M  V30 22 2 22 23
M  V30 23 2 22 24
M  V30 24 1 22 25
M  V30 25 2 25 26
M  V30 26 1 26 27
M  V30 27 2 27 28
M  V30 28 1 28 29
M  V30 29 2 29 30
M  V30 30 1 28 31
M  V30 31 1 31 32
M  V30 32 2 31 33 CFG=2
M  V30 33 1 13 8
M  V30 34 1 30 25
M  V30 35 1 1 34
M  V30 36 1 1 35
M  V30 37 1 1 36
M  V30 38 1 2 37
M  V30 39 1 2 38
M  V30 40 1 6 39
M  V30 41 1 7 40
M  V30 42 1 7 41
M  V30 43 1 9 42
M  V30 44 1 10 43
M  V30 45 1 12 44
M  V30 46 1 13 45
M  V30 47 1 15 46
M  V30 48 1 15 47
M  V30 49 1 16 48
M  V30 50 1 17 49
M  V30 51 1 20 50
M  V30 52 1 20 51
M  V30 53 1 21 52
M  V30 54 1 26 53
M  V30 55 1 27 54
M  V30 56 1 29 55
M  V30 57 1 30 56
M  V30 58 1 32 57
M  V30 59 1 32 58
M  V30 60 1 33 59
M  V30 END BOND
M  V30 END CTAB
M  END
