
     RDKit          3D

  0  0  0  0  0  0  0  0  0  0999 V3000
M  V30 BEGIN CTAB
M  V30 COUNTS 25 26 0 0 0
M  V30 BEGIN ATOM
M  V30 1 N -0.896646 0.093639 2.52442 0
M  V30 2 C -0.747905 -0.7622 1.36329 0
M  V30 3 C 0.522584 -0.480429 0.655391 0
M  V30 4 N 1.02435 0.73844 0.356012 0
M  V30 5 N 2.17431 0.603873 -0.277758 0
M  V30 6 C 2.44277 -0.71157 -0.402758 0
M  V30 7 N 1.41861 -1.36213 0.175458 0
M  V30 8 N 3.60086 -1.23921 -1.03401 0
M  V30 9 C 3.01664 1.66622 -0.762725 0
M  V30 10 C -1.8654 -0.451426 0.391772 0
M  V30 11 C -3.19218 -0.282367 0.677188 0
M  V30 12 C -4.0195 -0.0108996 -0.339867 0
M  V30 13 C -3.45838 0.0747306 -1.59142 0
M  V30 14 S -1.80849 -0.225756 -1.29678 0
M  V30 15 H -0.725456 1.07757 2.21927 0
M  V30 16 H -1.88611 0.0156245 2.83842 0
M  V30 17 H -0.781568 -1.83226 1.65273 0
M  V30 18 H 3.90838 -0.980926 -1.99571 0
M  V30 19 H 4.17374 -1.92251 -0.504589 0
M  V30 20 H 4.06681 1.29734 -0.928127 0
M  V30 21 H 3.08317 2.47532 0.0146705 0
M  V30 22 H 2.6249 2.15497 -1.67659 0
M  V30 23 H -3.55169 -0.371574 1.72607 0
M  V30 24 H -5.12209 0.145128 -0.214487 0
M  V30 25 H -4.00172 0.290409 -2.52852 0
M  V30 END ATOM
M  V30 BEGIN BOND
M  V30 1 1 1 2
M  V30 2 1 2 3
M  V30 3 2 3 4
M  V30 4 1 4 5
M  V30 5 1 5 6
M  V30 6 2 6 7
M  V30 7 1 6 8
M  V30 8 1 5 9
M  V30 9 1 2 10
M  V30 10 2 10 11
M  V30 11 1 11 12
M  V30 12 2 12 13
M  V30 13 1 13 14
M  V30 14 1 7 3
M  V30 15 1 14 10
M  V30 16 1 1 15
M  V30 17 1 1 16
M  V30 18 1 2 17
M  V30 19 1 8 18
M  V30 20 1 8 19
M  V30 21 1 9 20
M  V30 22 1 9 21
M  V30 23 1 9 22
M  V30 24 1 11 23
M  V30 25 1 12 24
M  V30 26 1 13 25
M  V30 END BOND
M  V30 END CTAB
M  END
