
     RDKit          3D

  0  0  0  0  0  0  0  0  0  0999 V3000
M  V30 BEGIN CTAB
M  V30 COUNTS 40 39 0 0 0
M  V30 BEGIN ATOM
M  V30 1 C 4.9652 0.25292 -0.302696 0
M  V30 2 C 3.85458 1.24498 -0.214641 0
M  V30 3 C 2.47933 0.68805 -0.363024 0
M  V30 4 C 2.08722 -0.333784 0.655562 0
M  V30 5 C 0.68671 -0.775788 0.353538 0
M  V30 6 O 0.528541 -2.00746 0.182439 0
M  V30 7 N -0.370697 0.164097 0.273156 0
M  V30 8 C -1.74783 -0.148799 -0.00685105 0
M  V30 9 C -1.85825 -0.853989 -1.36426 0
M  V30 10 N -1.33895 0.0326904 -2.39805 0
M  V30 11 C -2.291 -1.04373 1.04557 0
M  V30 12 C -3.74275 -1.41414 0.819565 0
M  V30 13 C -2.54092 1.12431 -0.17856 0
M  V30 14 C -2.51416 1.99639 1.04751 0
M  V30 15 N 3.00223 -1.43562 0.691641 0
M  V30 16 H 4.70961 -0.538006 -1.02872 0
M  V30 17 H 5.26623 -0.18899 0.670003 0
M  V30 18 H 5.88935 0.742286 -0.693557 0
M  V30 19 H 3.96986 2.02384 -1.01735 0
M  V30 20 H 3.89726 1.84328 0.742082 0
M  V30 21 H 2.33843 0.336986 -1.40894 0
M  V30 22 H 1.7701 1.54903 -0.25056 0
M  V30 23 H 2.10637 0.139493 1.66016 0
M  V30 24 H -0.124916 1.18611 0.433929 0
M  V30 25 H -1.39388 -1.83752 -1.3596 0
M  V30 26 H -2.93993 -0.970507 -1.56813 0
M  V30 27 H -1.05042 -0.570777 -3.20203 0
M  V30 28 H -2.09422 0.664576 -2.78193 0
M  V30 29 H -1.74024 -2.0046 1.02545 0
M  V30 30 H -2.20577 -0.651377 2.06495 0
M  V30 31 H -4.03735 -2.05661 1.67747 0
M  V30 32 H -3.89366 -2.00652 -0.090838 0
M  V30 33 H -4.38981 -0.507287 0.874845 0
M  V30 34 H -3.56468 0.869514 -0.514465 0
M  V30 35 H -2.05943 1.6921 -1.00111 0
M  V30 36 H -2.0409 2.99348 0.855203 0
M  V30 37 H -2.00786 1.54138 1.90072 0
M  V30 38 H -3.5797 2.22976 1.30797 0
M  V30 39 H 2.99139 -1.92908 1.6019 0
M  V30 40 H 2.98492 -2.04068 -0.13837 0
M  V30 END ATOM
M  V30 BEGIN BOND
M  V30 1 1 1 2
M  V30 2 1 2 3
M  V30 3 1 3 4
M  V30 4 1 4 5
M  V30 5 2 5 6
M  V30 6 1 5 7
M  V30 7 1 7 8
M  V30 8 1 8 9
M  V30 9 1 9 10
M  V30 10 1 8 11
M  V30 11 1 11 12
M  V30 12 1 8 13
M  V30 13 1 13 14
M  V30 14 1 4 15
M  V30 15 1 1 16
M  V30 16 1 1 17
M  V30 17 1 1 18
M  V30 18 1 2 19
M  V30 19 1 2 20
M  V30 20 1 3 21
M  V30 21 1 3 22
M  V30 22 1 4 23
M  V30 23 1 7 24
M  V30 24 1 9 25
M  V30 25 1 9 26
M  V30 26 1 10 27
M  V30 27 1 10 28
M  V30 28 1 11 29
M  V30 29 1 11 30
M  V30 30 1 12 31
M  V30 31 1 12 32
M  V30 32 1 12 33
M  V30 33 1 13 34
M  V30 34 1 13 35
M  V30 35 1 14 36
M  V30 36 1 14 37
M  V30 37 1 14 38
M  V30 38 1 15 39
M  V30 39 1 15 40
M  V30 END BOND
M  V30 END CTAB
M  END
