
     RDKit          3D

  0  0  0  0  0  0  0  0  0  0999 V3000
M  V30 BEGIN CTAB
M  V30 COUNTS 24 24 0 0 0
M  V30 BEGIN ATOM
M  V30 1 C -1.9528 1.48253 -0.123131 0
M  V30 2 C -1.19284 0.143386 0.0409197 0
M  V30 3 C -1.59892 -0.353056 1.41919 0
M  V30 4 F -1.06797 -1.59412 1.73327 0
M  V30 5 F -1.09094 0.568455 2.36759 0
M  V30 6 F -2.95473 -0.414955 1.6058 0
M  V30 7 C 0.239009 0.530985 0.03845 0
M  V30 8 N 0.722228 1.79781 0.240551 0
M  V30 9 N 2.01702 1.78383 0.197143 0
M  V30 10 C 2.45362 0.540456 -0.0281474 0
M  V30 11 N 1.32955 -0.227409 -0.126267 0
M  V30 12 N 1.35582 -1.58776 -0.380838 0
M  V30 13 N 3.79306 0.116172 -0.134364 0
M  V30 14 C -1.64512 -0.760223 -1.01332 0
M  V30 15 H -1.68029 1.82002 -1.17482 0
M  V30 16 H -1.53694 2.14461 0.63157 0
M  V30 17 H -3.02421 1.3514 -0.0362379 0
M  V30 18 H 1.2729 -1.97068 -1.35312 0
M  V30 19 H 1.46704 -2.26468 0.396368 0
M  V30 20 H 4.53946 0.831704 -0.267026 0
M  V30 21 H 4.08305 -0.866428 -0.082747 0
M  V30 22 H -1.07992 -1.71208 -1.16025 0
M  V30 23 H -2.67785 -1.1101 -0.768297 0
M  V30 24 H -1.77025 -0.249864 -2.0223 0
M  V30 END ATOM
M  V30 BEGIN BOND
M  V30 1 1 1 2
M  V30 2 1 2 3
M  V30 3 1 3 4
M  V30 4 1 3 5
M  V30 5 1 3 6
M  V30 6 1 2 7
M  V30 7 2 7 8
M  V30 8 1 8 9
M  V30 9 2 9 10
M  V30 10 1 10 11
M  V30 11 1 11 12
M  V30 12 1 10 13
M  V30 13 1 2 14
M  V30 14 1 11 7
M  V30 15 1 1 15
M  V30 16 1 1 16
M  V30 17 1 1 17
M  V30 18 1 12 18
M  V30 19 1 12 19
M  V30 20 1 13 20
M  V30 21 1 13 21
M  V30 22 1 14 22
M  V30 23 1 14 23
M  V30 24 1 14 24
M  V30 END BOND
M  V30 END CTAB
M  END
