
     RDKit          3D

  0  0  0  0  0  0  0  0  0  0999 V3000
M  V30 BEGIN CTAB
M  V30 COUNTS 45 47 0 0 0
M  V30 BEGIN ATOM
M  V30 1 N 4.65496 0.925614 0.21502 0
M  V30 2 C 3.40443 0.19419 0.442929 0
M  V30 3 C 2.30537 1.03613 -0.151405 0
M  V30 4 C 0.943106 0.405896 0.00785115 0
M  V30 5 C -0.057033 1.34605 -0.625928 0
M  V30 6 C -1.42563 0.727094 -0.583602 0
M  V30 7 C -2.43077 1.63901 -1.25103 0
M  V30 8 N -2.52381 2.92393 -0.622579 0
M  V30 9 C -1.39861 -0.563318 -1.38409 0
M  V30 10 C -0.438265 -1.52546 -0.734164 0
M  V30 11 C 0.943049 -0.902982 -0.789712 0
M  V30 12 C -0.894709 -1.75417 0.682203 0
M  V30 13 C -0.798191 -0.469396 1.46818 0
M  V30 14 C 0.612846 0.0613386 1.41895 0
M  V30 15 C -1.79442 0.495993 0.849812 0
M  V30 16 C -1.22662 -0.797564 2.89353 0
M  V30 17 C -0.409212 -2.80132 -1.52046 0
M  V30 18 H 4.78212 1.13723 -0.799595 0
M  V30 19 H 5.48093 0.417184 0.546894 0
M  V30 20 H 3.51209 -0.79237 -0.0106215 0
M  V30 21 H 3.29554 0.157427 1.56023 0
M  V30 22 H 2.34393 2.02883 0.337486 0
M  V30 23 H 2.53343 1.14992 -1.23007 0
M  V30 24 H 0.262005 1.46354 -1.69739 0
M  V30 25 H -0.0498711 2.31079 -0.0830181 0
M  V30 26 H -2.18946 1.77731 -2.32336 0
M  V30 27 H -3.4253 1.15068 -1.219 0
M  V30 28 H -1.87225 3.6365 -1.04466 0
M  V30 29 H -3.4911 3.31178 -0.733115 0
M  V30 30 H -2.41273 -0.974546 -1.49386 0
M  V30 31 H -0.961758 -0.294296 -2.38341 0
M  V30 32 H 1.67166 -1.60118 -0.354575 0
M  V30 33 H 1.14952 -0.632098 -1.83957 0
M  V30 34 H -0.427813 -2.60886 1.17027 0
M  V30 35 H -1.99672 -1.99349 0.620924 0
M  V30 36 H 1.27833 -0.771529 1.73227 0
M  V30 37 H 0.768453 0.876736 2.14378 0
M  V30 38 H -2.78468 0.0137154 0.915059 0
M  V30 39 H -1.73695 1.45888 1.37667 0
M  V30 40 H -0.586478 -1.6197 3.2616 0
M  V30 41 H -2.25474 -1.25398 2.78596 0
M  V30 42 H -1.24144 0.0802785 3.54237 0
M  V30 43 H 0.240723 -2.65674 -2.41733 0
M  V30 44 H 0.0653444 -3.58088 -0.886314 0
M  V30 45 H -1.41926 -3.13215 -1.79313 0
M  V30 END ATOM
M  V30 BEGIN BOND
M  V30 1 1 1 2
M  V30 2 1 2 3
M  V30 3 1 3 4
M  V30 4 1 4 5
M  V30 5 1 5 6
M  V30 6 1 6 7
M  V30 7 1 7 8
M  V30 8 1 6 9
M  V30 9 1 9 10
M  V30 10 1 10 11
M  V30 11 1 10 12
M  V30 12 1 12 13
M  V30 13 1 13 14
M  V30 14 1 13 15
M  V30 15 1 13 16
M  V30 16 1 10 17
M  V30 17 1 14 4
M  V30 18 1 11 4
M  V30 19 1 15 6
M  V30 20 1 1 18
M  V30 21 1 1 19
M  V30 22 1 2 20
M  V30 23 1 2 21
M  V30 24 1 3 22
M  V30 25 1 3 23
M  V30 26 1 5 24
M  V30 27 1 5 25
M  V30 28 1 7 26
M  V30 29 1 7 27
M  V30 30 1 8 28
M  V30 31 1 8 29
M  V30 32 1 9 30
M  V30 33 1 9 31
M  V30 34 1 11 32
M  V30 35 1 11 33
M  V30 36 1 12 34
M  V30 37 1 12 35
M  V30 38 1 14 36
M  V30 39 1 14 37
M  V30 40 1 15 38
M  V30 41 1 15 39
M  V30 42 1 16 40
M  V30 43 1 16 41
M  V30 44 1 16 42
M  V30 45 1 17 43
M  V30 46 1 17 44
M  V30 47 1 17 45
M  V30 END BOND
M  V30 END CTAB
M  END
