
     RDKit          3D

  0  0  0  0  0  0  0  0  0  0999 V3000
M  V30 BEGIN CTAB
M  V30 COUNTS 54 55 0 0 0
M  V30 BEGIN ATOM
M  V30 1 N 2.62897 -2.39952 1.48197 0
M  V30 2 C 3.10578 -1.5649 0.835532 0
M  V30 3 C 3.69549 -0.517254 0.0491876 0
M  V30 4 C 2.95343 0.619342 -0.190804 0
M  V30 5 S 1.30026 0.743291 0.451335 0
M  V30 6 C 1.34791 1.44779 2.0879 0
M  V30 7 C 0.0268679 1.61566 2.76116 0
M  V30 8 C -0.913545 2.51172 1.99999 0
M  V30 9 C -2.23433 2.7177 2.6728 0
M  V30 10 S -3.27544 1.30079 2.88124 0
M  V30 11 C -4.01693 0.659882 1.42066 0
M  V30 12 N -5.17452 1.25737 1.01164 0
M  V30 13 C -5.86494 0.88483 -0.0530863 0
M  V30 14 N -7.06202 1.52713 -0.446142 0
M  V30 15 C -5.37779 -0.185295 -0.803156 0
M  V30 16 C -4.22312 -0.84154 -0.461637 0
M  V30 17 C -3.55294 -0.37906 0.687787 0
M  V30 18 C -2.36847 -1.07267 1.12655 0
M  V30 19 N -1.44286 -1.65636 1.47607 0
M  V30 20 C -3.68769 -1.96335 -1.22832 0
M  V30 21 C -4.4007 -3.27046 -1.02988 0
M  V30 22 C -6.1159 -0.602142 -1.96375 0
M  V30 23 N -6.71004 -0.920564 -2.91118 0
M  V30 24 N 3.51791 1.5998 -0.927342 0
M  V30 25 C 4.75703 1.50582 -1.42542 0
M  V30 26 C 5.50998 0.37186 -1.19172 0
M  V30 27 C 4.991 -0.664056 -0.447393 0
M  V30 28 C 5.79051 -1.8975 -0.183182 0
M  V30 29 C 5.2706 -2.99876 -1.05218 0
M  V30 30 C 6.8566 0.233525 -1.71486 0
M  V30 31 N 7.92325 0.127837 -2.15111 0
M  V30 32 N 5.32891 2.55163 -2.19942 0
M  V30 33 H 1.91341 2.41564 2.10529 0
M  V30 34 H 1.95036 0.753418 2.74265 0
M  V30 35 H 0.267491 2.12973 3.75096 0
M  V30 36 H -0.409667 0.644325 3.02359 0
M  V30 37 H -0.375033 3.46107 1.81074 0
M  V30 38 H -1.10348 2.09708 0.963946 0
M  V30 39 H -2.7769 3.60705 2.24235 0
M  V30 40 H -1.97232 3.08458 3.7224 0
M  V30 41 H -7.40588 1.41654 -1.41668 0
M  V30 42 H -7.60902 2.10964 0.21455 0
M  V30 43 H -2.5934 -2.03459 -1.05549 0
M  V30 44 H -3.80186 -1.70661 -2.31977 0
M  V30 45 H -3.74074 -4.07773 -1.46663 0
M  V30 46 H -5.34594 -3.33696 -1.59318 0
M  V30 47 H -4.64369 -3.49031 0.0278803 0
M  V30 48 H 5.76124 -2.20318 0.882724 0
M  V30 49 H 6.86357 -1.6518 -0.393264 0
M  V30 50 H 4.58679 -3.6786 -0.464035 0
M  V30 51 H 4.67292 -2.64056 -1.91063 0
M  V30 52 H 6.12681 -3.57444 -1.47772 0
M  V30 53 H 4.98477 3.52817 -2.05483 0
M  V30 54 H 6.06729 2.40497 -2.90004 0
M  V30 END ATOM
M  V30 BEGIN BOND
M  V30 1 3 1 2
M  V30 2 1 2 3
M  V30 3 2 3 4
M  V30 4 1 4 5
M  V30 5 1 5 6
M  V30 6 1 6 7
M  V30 7 1 7 8
M  V30 8 1 8 9
M  V30 9 1 9 10
M  V30 10 1 10 11
M  V30 11 2 11 12
M  V30 12 1 12 13
M  V30 13 1 13 14
M  V30 14 2 13 15
M  V30 15 1 15 16
M  V30 16 2 16 17
M  V30 17 1 17 18
M  V30 18 3 18 19
M  V30 19 1 16 20
M  V30 20 1 20 21
M  V30 21 1 15 22
M  V30 22 3 22 23
M  V30 23 1 4 24
M  V30 24 2 24 25
M  V30 25 1 25 26
M  V30 26 2 26 27
M  V30 27 1 27 28
M  V30 28 1 28 29
M  V30 29 1 26 30
M  V30 30 3 30 31
M  V30 31 1 25 32
M  V30 32 1 27 3
M  V30 33 1 17 11
M  V30 34 1 6 33
M  V30 35 1 6 34
M  V30 36 1 7 35
M  V30 37 1 7 36
M  V30 38 1 8 37
M  V30 39 1 8 38
M  V30 40 1 9 39
M  V30 41 1 9 40
M  V30 42 1 14 41
M  V30 43 1 14 42
M  V30 44 1 20 43
M  V30 45 1 20 44
M  V30 46 1 21 45
M  V30 47 1 21 46
M  V30 48 1 21 47
M  V30 49 1 28 48
M  V30 50 1 28 49
M  V30 51 1 29 50
M  V30 52 1 29 51
M  V30 53 1 29 52
M  V30 54 1 32 53
M  V30 55 1 32 54
M  V30 END BOND
M  V30 END CTAB
M  END
