
     RDKit          3D

  0  0  0  0  0  0  0  0  0  0999 V3000
M  V30 BEGIN CTAB
M  V30 COUNTS 78 78 0 0 0
M  V30 BEGIN ATOM
M  V30 1 N 2.66495 4.30386 3.17442 0
M  V30 2 C 2.12812 3.48759 2.14709 0
M  V30 3 C 3.13626 2.48246 1.74238 0
M  V30 4 O 4.26348 2.51948 2.35583 0
M  V30 5 N 2.90379 1.5213 0.740622 0
M  V30 6 C 3.94216 0.534018 0.367937 0 CFG=2
M  V30 7 C 4.37576 0.579445 -1.03061 0
M  V30 8 C 5.5427 -0.305355 -1.35859 0
M  V30 9 C 6.77256 0.0897307 -0.523223 0
M  V30 10 N 7.88016 -0.789783 -0.882904 0
M  V30 11 C 8.46616 -0.698769 -2.17986 0
M  V30 12 N 8.47578 -1.81767 -3.05194 0
M  V30 13 N 8.9945 0.389658 -2.58705 0
M  V30 14 C 3.32779 -0.757824 0.76753 0
M  V30 15 O 2.92579 -0.819439 1.99637 0
M  V30 16 N 3.15546 -1.85192 -0.0667285 0
M  V30 17 C 2.55752 -3.13071 0.3087 0
M  V30 18 C 1.15436 -3.12047 0.670437 0
M  V30 19 O 0.644022 -4.24443 1.00397 0
M  V30 20 N 0.354062 -1.9506 0.660901 0
M  V30 21 C -1.04729 -2.01875 1.01309 0 CFG=1
M  V30 22 C -1.36479 -1.52679 2.40639 0
M  V30 23 C -0.705463 -2.31619 3.45785 0
M  V30 24 O -1.44447 -3.20842 4.25839 0
M  V30 25 O 0.513465 -2.26765 3.72303 0
M  V30 26 C -1.90852 -1.24713 0.0910548 0
M  V30 27 O -1.43798 -0.556649 -0.842443 0
M  V30 28 N -3.30334 -1.29237 0.27188 0
M  V30 29 C -4.23309 -0.552148 -0.580902 0 CFG=1
M  V30 30 C -4.89488 -1.57815 -1.52771 0
M  V30 31 O -3.87401 -2.18431 -2.28863 0
M  V30 32 C -5.31062 -0.0347317 0.256368 0
M  V30 33 O -5.41436 -0.503985 1.44875 0
M  V30 34 N -6.2212 0.932903 -0.171804 0
M  V30 35 C -7.38335 1.42205 0.611473 0
M  V30 36 C -8.47822 1.51071 -0.439513 0
M  V30 37 C -7.71833 1.8647 -1.68501 0
M  V30 38 C -6.26393 1.70634 -1.3688 0 CFG=1
M  V30 39 C -5.66477 3.07241 -1.16404 0
M  V30 40 O -5.65097 3.99125 -2.19026 0
M  V30 41 O -5.18942 3.32994 -0.0404924 0
M  V30 42 H 2.60546 5.29166 3.0329 0
M  V30 43 H 3.49826 3.97751 3.62922 0
M  V30 44 H 1.19765 2.95706 2.5116 0
M  V30 45 H 1.7659 4.08201 1.27613 0
M  V30 46 H 2.01288 1.47932 0.243464 0
M  V30 47 H 4.82964 0.759617 1.02782 0
M  V30 48 H 3.52303 0.182672 -1.65917 0
M  V30 49 H 4.62977 1.61482 -1.38455 0
M  V30 50 H 5.39892 -1.37132 -1.35027 0
M  V30 51 H 5.84578 -0.0218785 -2.4231 0
M  V30 52 H 6.57986 -0.0926092 0.553303 0
M  V30 53 H 7.057 1.12463 -0.689446 0
M  V30 54 H 8.28549 -1.50291 -0.232244 0
M  V30 55 H 7.58259 -2.26391 -3.35463 0
M  V30 56 H 9.36538 -2.21726 -3.40708 0
M  V30 57 H 9.02671 1.24379 -2.01518 0
M  V30 58 H 3.41671 -1.74797 -1.10023 0
M  V30 59 H 3.21757 -3.50346 1.14016 0
M  V30 60 H 2.71261 -3.89008 -0.503625 0
M  V30 61 H 0.712786 -1.00873 0.385047 0
M  V30 62 H -1.34333 -3.0912 0.983602 0
M  V30 63 H -2.45321 -1.55567 2.61094 0
M  V30 64 H -1.11026 -0.425431 2.50422 0
M  V30 65 H -1.91327 -3.99382 3.85545 0
M  V30 66 H -3.71688 -1.87876 1.0488 0
M  V30 67 H -3.71413 0.146413 -1.21046 0
M  V30 68 H -5.48846 -2.31283 -0.984105 0
M  V30 69 H -5.53692 -1.05518 -2.23867 0
M  V30 70 H -3.47283 -1.50755 -2.88707 0
M  V30 71 H -7.17203 2.40649 1.05071 0
M  V30 72 H -7.63723 0.715717 1.4069 0
M  V30 73 H -9.24836 2.24856 -0.18956 0
M  V30 74 H -8.91864 0.481236 -0.531379 0
M  V30 75 H -7.94371 2.92836 -1.95099 0
M  V30 76 H -8.03968 1.20085 -2.52428 0
M  V30 77 H -5.77442 1.21217 -2.22795 0
M  V30 78 H -6.4505 4.42406 -2.59252 0
M  V30 END ATOM
M  V30 BEGIN BOND
M  V30 1 1 1 2
M  V30 2 1 2 3
M  V30 3 2 3 4
M  V30 4 1 3 5
M  V30 5 1 5 6
M  V30 6 1 6 7
M  V30 7 1 7 8
M  V30 8 1 8 9
M  V30 9 1 9 10
M  V30 10 1 10 11
M  V30 11 1 11 12
M  V30 12 2 11 13 CFG=2
M  V30 13 1 6 14
M  V30 14 2 14 15
M  V30 15 1 14 16
M  V30 16 1 16 17
M  V30 17 1 17 18
M  V30 18 2 18 19
M  V30 19 1 18 20
M  V30 20 1 20 21
M  V30 21 1 21 22
M  V30 22 1 22 23
M  V30 23 1 23 24
M  V30 24 2 23 25
M  V30 25 1 21 26
M  V30 26 2 26 27
M  V30 27 1 26 28
M  V30 28 1 28 29
M  V30 29 1 29 30
M  V30 30 1 30 31
M  V30 31 1 29 32
M  V30 32 2 32 33
M  V30 33 1 32 34
M  V30 34 1 34 35
M  V30 35 1 35 36
M  V30 36 1 36 37
M  V30 37 1 37 38
M  V30 38 1 38 39
M  V30 39 1 39 40
M  V30 40 2 39 41
M  V30 41 1 38 34
M  V30 42 1 1 42
M  V30 43 1 1 43
M  V30 44 1 2 44
M  V30 45 1 2 45
M  V30 46 1 5 46
M  V30 47 1 6 47 CFG=1
M  V30 48 1 7 48
M  V30 49 1 7 49
M  V30 50 1 8 50
M  V30 51 1 8 51
M  V30 52 1 9 52
M  V30 53 1 9 53
M  V30 54 1 10 54
M  V30 55 1 12 55
M  V30 56 1 12 56
M  V30 57 1 13 57
M  V30 58 1 16 58
M  V30 59 1 17 59
M  V30 60 1 17 60
M  V30 61 1 20 61
M  V30 62 1 21 62 CFG=1
M  V30 63 1 22 63
M  V30 64 1 22 64
M  V30 65 1 24 65
M  V30 66 1 28 66
M  V30 67 1 29 67 CFG=3
M  V30 68 1 30 68
M  V30 69 1 30 69
M  V30 70 1 31 70
M  V30 71 1 35 71
M  V30 72 1 35 72
M  V30 73 1 36 73
M  V30 74 1 36 74
M  V30 75 1 37 75
M  V30 76 1 37 76
M  V30 77 1 38 77 CFG=3
M  V30 78 1 40 78
M  V30 END BOND
M  V30 END CTAB
M  END
