
     RDKit          3D

  0  0  0  0  0  0  0  0  0  0999 V3000
M  V30 BEGIN CTAB
M  V30 COUNTS 30 31 0 0 0
M  V30 BEGIN ATOM
M  V30 1 N 3.39726 -0.207593 -1.30118 0
M  V30 2 S 2.95561 0.190351 0.292084 0
M  V30 3 O 3.7564 -0.78569 1.18577 0
M  V30 4 O 3.48869 1.50188 0.633254 0
M  V30 5 C 1.30772 -0.196759 0.562747 0 CFG=1
M  V30 6 C 0.824739 -0.0164224 1.98807 0
M  V30 7 N -0.355318 -0.860655 2.09094 0
M  V30 8 C -1.31882 -0.949095 1.05657 0
M  V30 9 C -1.00234 -0.36773 -0.171625 0
M  V30 10 N 0.276249 0.280043 -0.306574 0
M  V30 11 S 0.363226 1.53628 -1.44793 0
M  V30 12 O 0.250392 1.10764 -2.85986 0
M  V30 13 O 1.70485 2.28815 -1.3513 0
M  V30 14 N -0.710559 2.85593 -1.09211 0
M  V30 15 C -1.92472 -0.422458 -1.2196 0
M  V30 16 C -3.13791 -1.04379 -1.05006 0
M  V30 17 C -3.42428 -1.61049 0.173757 0
M  V30 18 C -2.53444 -1.57169 1.22551 0
M  V30 19 H 4.19485 -0.785796 -1.38965 0
M  V30 20 H 2.60334 -0.414463 -1.89723 0
M  V30 21 H 1.28575 -1.33327 0.433131 0
M  V30 22 H 1.58573 -0.408388 2.66692 0
M  V30 23 H 0.542554 1.03604 2.19719 0
M  V30 24 H -0.491521 -1.4293 2.98078 0
M  V30 25 H -0.536644 3.58337 -1.8099 0
M  V30 26 H -0.447438 3.22266 -0.146315 0
M  V30 27 H -1.64443 0.0345019 -2.13768 0
M  V30 28 H -3.88141 -1.10881 -1.83611 0
M  V30 29 H -4.36689 -2.10723 0.344125 0
M  V30 30 H -2.76063 -2.01721 2.1863 0
M  V30 END ATOM
M  V30 BEGIN BOND
M  V30 1 1 1 2
M  V30 2 2 2 3
M  V30 3 2 2 4
M  V30 4 1 2 5
M  V30 5 1 5 6
M  V30 6 1 6 7
M  V30 7 1 7 8
M  V30 8 2 8 9
M  V30 9 1 9 10
M  V30 10 1 10 11
M  V30 11 2 11 12
M  V30 12 2 11 13
M  V30 13 1 11 14
M  V30 14 1 9 15
M  V30 15 2 15 16
M  V30 16 1 16 17
M  V30 17 2 17 18
M  V30 18 1 10 5
M  V30 19 1 18 8
M  V30 20 1 1 19
M  V30 21 1 1 20
M  V30 22 1 5 21 CFG=3
M  V30 23 1 6 22
M  V30 24 1 6 23
M  V30 25 1 7 24
M  V30 26 1 14 25
M  V30 27 1 14 26
M  V30 28 1 15 27
M  V30 29 1 16 28
M  V30 30 1 17 29
M  V30 31 1 18 30
M  V30 END BOND
M  V30 END CTAB
M  END
