
     RDKit          3D

  0  0  0  0  0  0  0  0  0  0999 V3000
M  V30 BEGIN CTAB
M  V30 COUNTS 72 75 0 0 0
M  V30 BEGIN ATOM
M  V30 1 C -0.803099 1.34087 0.709423 0 CFG=2
M  V30 2 C -2.04505 1.08824 1.45362 0
M  V30 3 C -3.12134 0.327313 0.739328 0
M  V30 4 C -3.66996 1.2243 -0.368307 0
M  V30 5 C -4.8279 0.422455 -1.07692 0
M  V30 6 N -5.7324 -0.029541 -0.357427 0
M  V30 7 C -6.80378 -0.591358 0.520698 0
M  V30 8 O -6.73141 -1.46208 1.29969 0
M  V30 9 C -8.1043 0.1309 0.320489 0
M  V30 10 C -8.91312 -0.142586 -0.733987 0
M  V30 11 C -10.0574 0.651682 -0.967229 0
M  V30 12 C -10.2989 1.68395 -0.0929523 0
M  V30 13 C -9.48449 1.97468 0.990452 0
M  V30 14 C -8.36402 1.17425 1.19129 0
M  V30 15 C -8.68275 -1.27601 -1.61994 0
M  V30 16 O -9.55751 -1.48547 -2.67355 0
M  V30 17 O -7.70246 -2.0724 -1.44596 0
M  V30 18 N 0.0988609 0.304006 0.460921 0
M  V30 19 C 0.171011 -1.05779 0.271648 0
M  V30 20 O -0.724147 -1.93495 0.274794 0
M  V30 21 C 1.52621 -1.62014 0.0077242 0
M  V30 22 C 2.47069 -1.56458 0.979373 0
M  V30 23 C 3.72285 -2.06255 0.725751 0
M  V30 24 C 4.03261 -2.61988 -0.494008 0
M  V30 25 N 5.30227 -3.16729 -0.747973 0
M  V30 26 C 6.40537 -3.33163 0.149629 0
M  V30 27 C 7.07086 -2.03893 0.463311 0
M  V30 28 N 7.20223 -1.12253 -0.516288 0
M  V30 29 C 7.84702 0.0517165 -0.261609 0
M  V30 30 C 7.99963 0.978923 -1.28756 0
M  V30 31 N 7.46527 0.705924 -2.57282 0
M  V30 32 N 8.65661 2.11926 -1.01341 0
M  V30 33 C 9.15068 2.33041 0.257036 0
M  V30 34 N 9.8269 3.54169 0.496955 0
M  V30 35 N 8.99804 1.43832 1.22434 0
M  V30 36 C 8.36357 0.29769 1.01674 0
M  V30 37 N 8.22098 -0.647134 1.98634 0
M  V30 38 C 7.58617 -1.7852 1.71369 0
M  V30 39 C 3.04063 -2.67079 -1.48766 0
M  V30 40 C 1.79651 -2.16577 -1.20745 0
M  V30 41 C -0.160565 2.64649 1.03723 0
M  V30 42 O -0.945489 3.78475 1.26975 0
M  V30 43 O 1.07201 2.77572 1.11714 0
M  V30 44 H -1.22276 1.56436 -0.381435 0
M  V30 45 H -2.51163 2.07967 1.79531 0
M  V30 46 H -1.85152 0.606956 2.46406 0
M  V30 47 H -2.86964 -0.598959 0.239522 0
M  V30 48 H -3.94569 0.0950358 1.47858 0
M  V30 49 H -2.98255 1.46972 -1.15129 0
M  V30 50 H -4.08541 2.14546 0.0504012 0
M  V30 51 H -4.21647 -0.269347 -1.74734 0
M  V30 52 H -5.10685 1.19737 -1.90912 0
M  V30 53 H -4.91859 -0.964433 0.229642 0
M  V30 54 H -10.7041 0.437705 -1.82455 0
M  V30 55 H -11.1668 2.34841 -0.236666 0
M  V30 56 H -9.68464 2.78646 1.65813 0
M  V30 57 H -7.69223 1.37618 2.03624 0
M  V30 58 H -10.0378 -2.39525 -2.77489 0
M  V30 59 H 1.17919 0.738999 0.356516 0
M  V30 60 H 2.27259 -1.11752 1.98095 0
M  V30 61 H 4.43734 -1.99237 1.53255 0
M  V30 62 H 5.4637 -3.52104 -1.76318 0
M  V30 63 H 5.99789 -3.78768 1.09462 0
M  V30 64 H 7.16622 -4.06945 -0.263558 0
M  V30 65 H 7.53794 -0.225432 -3.01251 0
M  V30 66 H 6.98311 1.48842 -3.09306 0
M  V30 67 H 10.7652 3.51165 0.964118 0
M  V30 68 H 9.45949 4.48337 0.239236 0
M  V30 69 H 7.44253 -2.57246 2.45622 0
M  V30 70 H 3.24376 -3.11095 -2.46955 0
M  V30 71 H 1.01386 -2.20974 -1.97993 0
M  V30 72 H -1.26298 4.35991 0.490417 0
M  V30 END ATOM
M  V30 BEGIN BOND
M  V30 1 1 1 2
M  V30 2 1 2 3
M  V30 3 1 3 4
M  V30 4 1 4 5
M  V30 5 1 5 6
M  V30 6 1 6 7
M  V30 7 2 7 8
M  V30 8 1 7 9
M  V30 9 2 9 10
M  V30 10 1 10 11
M  V30 11 2 11 12
M  V30 12 1 12 13
M  V30 13 2 13 14
M  V30 14 1 10 15
M  V30 15 1 15 16
M  V30 16 2 15 17
M  V30 17 1 1 18
M  V30 18 1 18 19
M  V30 19 2 19 20
M  V30 20 1 19 21
M  V30 21 2 21 22
M  V30 22 1 22 23
M  V30 23 2 23 24
M  V30 24 1 24 25
M  V30 25 1 25 26
M  V30 26 1 26 27
M  V30 27 2 27 28
M  V30 28 1 28 29
M  V30 29 2 29 30
M  V30 30 1 30 31
M  V30 31 1 30 32
M  V30 32 2 32 33
M  V30 33 1 33 34
M  V30 34 1 33 35
M  V30 35 2 35 36
M  V30 36 1 36 37
M  V30 37 2 37 38
M  V30 38 1 24 39
M  V30 39 2 39 40
M  V30 40 1 1 41
M  V30 41 1 41 42
M  V30 42 2 41 43
M  V30 43 1 14 9
M  V30 44 1 40 21
M  V30 45 1 38 27
M  V30 46 1 36 29
M  V30 47 1 1 44 CFG=3
M  V30 48 1 2 45
M  V30 49 1 2 46
M  V30 50 1 3 47
M  V30 51 1 3 48
M  V30 52 1 4 49
M  V30 53 1 4 50
M  V30 54 1 5 51
M  V30 55 1 5 52
M  V30 56 1 6 53
M  V30 57 1 11 54
M  V30 58 1 12 55
M  V30 59 1 13 56
M  V30 60 1 14 57
M  V30 61 1 16 58
M  V30 62 1 18 59
M  V30 63 1 22 60
M  V30 64 1 23 61
M  V30 65 1 25 62
M  V30 66 1 26 63
M  V30 67 1 26 64
M  V30 68 1 31 65
M  V30 69 1 31 66
M  V30 70 1 34 67
M  V30 71 1 34 68
M  V30 72 1 38 69
M  V30 73 1 39 70
M  V30 74 1 40 71
M  V30 75 1 42 72
M  V30 END BOND
M  V30 END CTAB
M  END
