
     RDKit          3D

  0  0  0  0  0  0  0  0  0  0999 V3000
M  V30 BEGIN CTAB
M  V30 COUNTS 100 108 0 0 0
M  V30 BEGIN ATOM
M  V30 1 C 9.16727 -0.294949 0.127288 0
M  V30 2 C 7.6625 -0.171769 0.160857 0
M  V30 3 C 6.99342 0.296048 -0.946088 0
M  V30 4 C 5.59015 0.418303 -0.934585 0
M  V30 5 C 4.95943 0.966311 -2.16399 0
M  V30 6 C 4.87643 0.0723712 0.176322 0
M  V30 7 C 5.56133 -0.392181 1.2721 0
M  V30 8 C 4.81339 -0.773304 2.48543 0
M  V30 9 C 6.94723 -0.515649 1.26962 0
M  V30 10 C 3.40583 0.177249 0.150861 0
M  V30 11 C 2.61425 -0.971135 -0.071924 0
M  V30 12 N 1.45242 -1.36021 0.482345 0
M  V30 13 C 1.11215 -2.5215 -0.0872866 0
M  V30 14 C 2.09193 -2.88793 -1.0348 0
M  V30 15 C 3.04814 -1.91019 -1.0309 0
M  V30 16 C -0.000789992 -3.36818 0.0871062 0
M  V30 17 C -1.32485 -2.9737 0.234343 0
M  V30 18 N -1.61431 -1.67104 0.0490906 0
M  V30 19 C -2.94707 -1.46983 0.241991 0
M  V30 20 C -3.52044 -2.67964 0.558384 0
M  V30 21 C -2.49699 -3.60035 0.548387 0
M  V30 22 C -3.37094 -0.159139 0.0835736 0
M  V30 23 C -2.57391 0.989016 -0.069763 0
M  V30 24 C -2.98512 1.97823 -0.978969 0
M  V30 25 C -2.0451 2.97111 -0.95392 0
M  V30 26 C -1.07763 2.54408 -0.0132128 0
M  V30 27 N -1.41842 1.35358 0.504397 0
M  V30 28 C 0.0342709 3.37235 0.222215 0
M  V30 29 C 1.36709 3.0094 0.354628 0
M  V30 30 C 2.53688 3.63442 0.643526 0
M  V30 31 C 3.53484 2.68555 0.622528 0
M  V30 32 C 2.95425 1.47908 0.317658 0
M  V30 33 N 1.64716 1.71386 0.163229 0
M  V30 34 C -0.158283 4.85004 0.325139 0
M  V30 35 C -0.202329 5.65977 -0.768587 0
M  V30 36 C -0.391494 7.03004 -0.591666 0
M  V30 37 N -0.433454 7.84581 -1.75208 0
M  V30 38 C -0.533147 7.56619 0.68108 0
M  V30 39 C -0.487806 6.74936 1.77424 0
M  V30 40 C -0.298623 5.38462 1.58062 0
M  V30 41 C -4.86148 -0.0697982 0.0934658 0
M  V30 42 C -5.53635 0.27482 1.22481 0
M  V30 43 C -4.79375 0.594501 2.4665 0
M  V30 44 C -6.90327 0.329442 1.22724 0
M  V30 45 C -7.65765 0.0411624 0.0955196 0
M  V30 46 C -9.13675 0.0930323 0.0734331 0
M  V30 47 C -6.95906 -0.303825 -1.03192 0
M  V30 48 C -5.56753 -0.363187 -1.04621 0
M  V30 49 C -4.94893 -0.77908 -2.33128 0
M  V30 50 C 0.149029 -4.83204 0.0988737 0
M  V30 51 C 0.165242 -5.4867 -1.10673 0
M  V30 52 C 0.302909 -6.86218 -1.19041 0
M  V30 53 N 0.322762 -7.56632 -2.42861 0
M  V30 54 C 0.42839 -7.60599 -0.0312719 0
M  V30 55 C 0.412405 -6.95268 1.17377 0
M  V30 56 C 0.274831 -5.58319 1.24625 0
M  V30 57 H 9.5861 -0.308409 1.14401 0
M  V30 58 H 9.36781 -1.25491 -0.416551 0
M  V30 59 H 9.55455 0.519411 -0.510546 0
M  V30 60 H 7.57648 0.563678 -1.81515 0
M  V30 61 H 3.86958 0.858691 -2.20267 0
M  V30 62 H 5.26094 2.05607 -2.22544 0
M  V30 63 H 5.3857 0.482071 -3.06601 0
M  V30 64 H 5.07385 -1.80121 2.77625 0
M  V30 65 H 5.19666 -0.118862 3.31798 0
M  V30 66 H 3.73952 -0.584964 2.41629 0
M  V30 67 H 7.46932 -0.88412 2.14402 0
M  V30 68 H 0.891399 -0.824951 1.2875 0
M  V30 69 H 2.12375 -3.79033 -1.67726 0
M  V30 70 H 3.96028 -1.89752 -1.65309 0
M  V30 71 H -4.57325 -2.84528 0.76938 0
M  V30 72 H -2.65363 -4.65654 0.765536 0
M  V30 73 H -3.89739 2.00084 -1.61034 0
M  V30 74 H -2.06443 3.90189 -1.54688 0
M  V30 75 H -0.854867 0.785739 1.28462 0
M  V30 76 H 2.6292 4.69442 0.848565 0
M  V30 77 H 4.59325 2.82915 0.807349 0
M  V30 78 H -0.0882593 5.22683 -1.74288 0
M  V30 79 H 0.0660305 8.7633 -1.80877 0
M  V30 80 H -0.990405 7.49022 -2.55936 0
M  V30 81 H -0.682313 8.64557 0.82717 0
M  V30 82 H -0.598141 7.16818 2.76855 0
M  V30 83 H -0.267144 4.76157 2.46375 0
M  V30 84 H -3.80328 0.120761 2.52101 0
M  V30 85 H -5.44405 0.36867 3.32075 0
M  V30 86 H -4.63911 1.70478 2.48016 0
M  V30 87 H -7.44357 0.60431 2.12996 0
M  V30 88 H -9.55625 0.0469877 1.10458 0
M  V30 89 H -9.52371 -0.694281 -0.591828 0
M  V30 90 H -9.47384 1.0827 -0.326348 0
M  V30 91 H -7.51992 -0.533738 -1.92696 0
M  V30 92 H -5.18181 0.01747 -3.07172 0
M  V30 93 H -3.86345 -0.872718 -2.27608 0
M  V30 94 H -5.44723 -1.69914 -2.7218 0
M  V30 95 H 0.0720524 -4.97174 -2.06855 0
M  V30 96 H -0.212448 -8.46656 -2.54067 0
M  V30 97 H 0.876874 -7.19073 -3.24808 0
M  V30 98 H 0.537829 -8.70076 -0.0988282 0
M  V30 99 H 0.507763 -7.51153 2.0773 0
M  V30 100 H 0.259092 -5.03912 2.1985 0
M  V30 END ATOM
M  V30 BEGIN BOND
M  V30 1 1 1 2
M  V30 2 2 2 3
M  V30 3 1 3 4
M  V30 4 1 4 5
M  V30 5 2 4 6
M  V30 6 1 6 7
M  V30 7 1 7 8
M  V30 8 2 7 9
M  V30 9 1 6 10
M  V30 10 2 10 11
M  V30 11 1 11 12
M  V30 12 1 12 13
M  V30 13 1 13 14
M  V30 14 2 14 15
M  V30 15 2 13 16
M  V30 16 1 16 17
M  V30 17 2 17 18
M  V30 18 1 18 19
M  V30 19 1 19 20
M  V30 20 2 20 21
M  V30 21 2 19 22
M  V30 22 1 22 23
M  V30 23 2 23 24
M  V30 24 1 24 25
M  V30 25 2 25 26
M  V30 26 1 26 27
M  V30 27 1 26 28
M  V30 28 2 28 29
M  V30 29 1 29 30
M  V30 30 2 30 31
M  V30 31 1 31 32
M  V30 32 2 32 33
M  V30 33 1 28 34
M  V30 34 2 34 35
M  V30 35 1 35 36
M  V30 36 1 36 37
M  V30 37 2 36 38
M  V30 38 1 38 39
M  V30 39 2 39 40
M  V30 40 1 22 41
M  V30 41 2 41 42
M  V30 42 1 42 43
M  V30 43 1 42 44
M  V30 44 2 44 45
M  V30 45 1 45 46
M  V30 46 1 45 47
M  V30 47 2 47 48
M  V30 48 1 48 49
M  V30 49 1 16 50
M  V30 50 2 50 51
M  V30 51 1 51 52
M  V30 52 1 52 53
M  V30 53 2 52 54
M  V30 54 1 54 55
M  V30 55 2 55 56
M  V30 56 1 9 2
M  V30 57 1 32 10
M  V30 58 1 40 34
M  V30 59 1 48 41
M  V30 60 1 56 50
M  V30 61 1 15 11
M  V30 62 1 21 17
M  V30 63 1 27 23
M  V30 64 1 33 29
M  V30 65 1 1 57
M  V30 66 1 1 58
M  V30 67 1 1 59
M  V30 68 1 3 60
M  V30 69 1 5 61
M  V30 70 1 5 62
M  V30 71 1 5 63
M  V30 72 1 8 64
M  V30 73 1 8 65
M  V30 74 1 8 66
M  V30 75 1 9 67
M  V30 76 1 12 68
M  V30 77 1 14 69
M  V30 78 1 15 70
M  V30 79 1 20 71
M  V30 80 1 21 72
M  V30 81 1 24 73
M  V30 82 1 25 74
M  V30 83 1 27 75
M  V30 84 1 30 76
M  V30 85 1 31 77
M  V30 86 1 35 78
M  V30 87 1 37 79
M  V30 88 1 37 80
M  V30 89 1 38 81
M  V30 90 1 39 82
M  V30 91 1 40 83
M  V30 92 1 43 84
M  V30 93 1 43 85
M  V30 94 1 43 86
M  V30 95 1 44 87
M  V30 96 1 46 88
M  V30 97 1 46 89
M  V30 98 1 46 90
M  V30 99 1 47 91
M  V30 100 1 49 92
M  V30 101 1 49 93
M  V30 102 1 49 94
M  V30 103 1 51 95
M  V30 104 1 53 96
M  V30 105 1 53 97
M  V30 106 1 54 98
M  V30 107 1 55 99
M  V30 108 1 56 100
M  V30 END BOND
M  V30 END CTAB
M  END
