
     RDKit          3D

  0  0  0  0  0  0  0  0  0  0999 V3000
M  V30 BEGIN CTAB
M  V30 COUNTS 41 42 0 0 0
M  V30 BEGIN ATOM
M  V30 1 C -2.60321 0.945016 2.68931 0
M  V30 2 N -2.49271 0.504787 1.3 0
M  V30 3 C -3.61704 0.500355 0.571661 0
M  V30 4 O -4.7498 0.849045 1.01775 0
M  V30 5 N -3.51875 0.0931024 -0.722973 0
M  V30 6 C -4.74686 0.0730996 -1.53796 0
M  V30 7 C -2.3491 -0.287003 -1.2516 0
M  V30 8 N -2.28361 -0.710754 -2.62134 0
M  V30 9 C -1.16832 -0.285097 -0.495916 0
M  V30 10 C 0.0455124 -0.739243 -1.15626 0
M  V30 11 C 1.31284 -0.581839 -0.482225 0
M  V30 12 C 1.9678 0.631409 -0.445878 0
M  V30 13 N 1.41715 1.77882 -1.08324 0
M  V30 14 N 3.15299 0.793654 0.179271 0
M  V30 15 C 3.81318 2.1026 0.189174 0
M  V30 16 C 3.71886 -0.241308 0.783773 0
M  V30 17 O 4.84004 -0.0683889 1.37059 0
M  V30 18 N 3.10528 -1.45442 0.771601 0
M  V30 19 C 3.76546 -2.5417 1.43985 0
M  V30 20 C 1.93013 -1.63265 0.15728 0
M  V30 21 O 1.43877 -2.79717 0.199377 0
M  V30 22 C -1.28639 0.126048 0.802776 0
M  V30 23 O -0.269461 0.152563 1.5413 0
M  V30 24 H -2.90529 2.03067 2.68232 0
M  V30 25 H -3.45801 0.385411 3.14527 0
M  V30 26 H -1.65831 0.82319 3.23871 0
M  V30 27 H -4.4764 0.0134211 -2.6156 0
M  V30 28 H -5.26735 1.03349 -1.36977 0
M  V30 29 H -5.36501 -0.771395 -1.18069 0
M  V30 30 H -2.12608 -0.0530683 -3.40955 0
M  V30 31 H -2.40339 -1.72983 -2.7993 0
M  V30 32 H -0.0779441 -1.83724 -1.37938 0
M  V30 33 H 0.0940823 -0.241958 -2.15591 0
M  V30 34 H 1.27658 2.6535 -0.550572 0
M  V30 35 H 1.16109 1.73058 -2.08368 0
M  V30 36 H 3.59441 2.57162 -0.808714 0
M  V30 37 H 3.36661 2.68683 0.99153 0
M  V30 38 H 4.90963 1.94755 0.270677 0
M  V30 39 H 3.06151 -3.30906 1.82046 0
M  V30 40 H 4.48694 -2.99342 0.701549 0
M  V30 41 H 4.36416 -2.15123 2.28632 0
M  V30 END ATOM
M  V30 BEGIN BOND
M  V30 1 1 1 2
M  V30 2 1 2 3
M  V30 3 2 3 4
M  V30 4 1 3 5
M  V30 5 1 5 6
M  V30 6 1 5 7
M  V30 7 1 7 8
M  V30 8 2 7 9
M  V30 9 1 9 10
M  V30 10 1 10 11
M  V30 11 2 11 12
M  V30 12 1 12 13
M  V30 13 1 12 14
M  V30 14 1 14 15
M  V30 15 1 14 16
M  V30 16 2 16 17
M  V30 17 1 16 18
M  V30 18 1 18 19
M  V30 19 1 18 20
M  V30 20 2 20 21
M  V30 21 1 9 22
M  V30 22 2 22 23
M  V30 23 1 22 2
M  V30 24 1 20 11
M  V30 25 1 1 24
M  V30 26 1 1 25
M  V30 27 1 1 26
M  V30 28 1 6 27
M  V30 29 1 6 28
M  V30 30 1 6 29
M  V30 31 1 8 30
M  V30 32 1 8 31
M  V30 33 1 10 32
M  V30 34 1 10 33
M  V30 35 1 13 34
M  V30 36 1 13 35
M  V30 37 1 15 36
M  V30 38 1 15 37
M  V30 39 1 15 38
M  V30 40 1 19 39
M  V30 41 1 19 40
M  V30 42 1 19 41
M  V30 END BOND
M  V30 END CTAB
M  END
