
     RDKit          3D

  0  0  0  0  0  0  0  0  0  0999 V3000
M  V30 BEGIN CTAB
M  V30 COUNTS 36 37 0 0 0
M  V30 BEGIN ATOM
M  V30 1 N -1.7004 -3.1083 1.39745 0
M  V30 2 C -1.82977 -1.72156 1.62925 0
M  V30 3 C -0.730094 -0.902658 0.959889 0
M  V30 4 C -0.715137 -1.07064 -0.483809 0
M  V30 5 O -1.61804 -1.75334 -1.0257 0
M  V30 6 N 0.299356 -0.475922 -1.27168 0
M  V30 7 C 0.41655 -0.539053 -2.73805 0
M  V30 8 C 1.83781 -1.03153 -2.87853 0
M  V30 9 C 2.5504 -0.307511 -1.75763 0 CFG=2
M  V30 10 C 1.45289 0.307644 -0.879375 0
M  V30 11 N 3.32429 0.807499 -2.27832 0
M  V30 12 C -0.961301 0.496777 1.3486 0
M  V30 13 C -1.88836 1.25064 0.679655 0
M  V30 14 C -2.11759 2.56081 1.05926 0
M  V30 15 C -1.41991 3.11374 2.10603 0
M  V30 16 C -0.492409 2.34737 2.7694 0
M  V30 17 C -0.265611 1.04266 2.38972 0
M  V30 18 H -2.57057 -3.59613 1.34047 0
M  V30 19 H -1.02009 -3.55227 1.96766 0
M  V30 20 H -1.71232 -1.55032 2.72516 0
M  V30 21 H -2.83631 -1.38553 1.34252 0
M  V30 22 H 0.227554 -1.23715 1.42322 0
M  V30 23 H -0.325236 -1.19603 -3.18478 0
M  V30 24 H 0.395999 0.499635 -3.12872 0
M  V30 25 H 2.23989 -0.764094 -3.87744 0
M  V30 26 H 1.90389 -2.1389 -2.71221 0
M  V30 27 H 3.16545 -0.984535 -1.13099 0
M  V30 28 H 1.72179 0.199546 0.190837 0
M  V30 29 H 1.26682 1.34636 -1.18741 0
M  V30 30 H 4.25396 0.436672 -2.61997 0
M  V30 31 H 3.50554 1.47878 -1.52246 0
M  V30 32 H -2.47173 0.855791 -0.162873 0
M  V30 33 H -2.8498 3.15694 0.531246 0
M  V30 34 H -1.5668 4.13913 2.43942 0
M  V30 35 H 0.0520542 2.79006 3.5917 0
M  V30 36 H 0.477265 0.485424 2.94844 0
M  V30 END ATOM
M  V30 BEGIN BOND
M  V30 1 1 1 2
M  V30 2 1 2 3
M  V30 3 1 3 4
M  V30 4 2 4 5
M  V30 5 1 4 6
M  V30 6 1 6 7
M  V30 7 1 7 8
M  V30 8 1 8 9
M  V30 9 1 9 10
M  V30 10 1 9 11
M  V30 11 1 3 12
M  V30 12 2 12 13
M  V30 13 1 13 14
M  V30 14 2 14 15
M  V30 15 1 15 16
M  V30 16 2 16 17
M  V30 17 1 10 6
M  V30 18 1 17 12
M  V30 19 1 1 18
M  V30 20 1 1 19
M  V30 21 1 2 20
M  V30 22 1 2 21
M  V30 23 1 3 22
M  V30 24 1 7 23
M  V30 25 1 7 24
M  V30 26 1 8 25
M  V30 27 1 8 26
M  V30 28 1 9 27 CFG=1
M  V30 29 1 10 28
M  V30 30 1 10 29
M  V30 31 1 11 30
M  V30 32 1 11 31
M  V30 33 1 13 32
M  V30 34 1 14 33
M  V30 35 1 15 34
M  V30 36 1 16 35
M  V30 37 1 17 36
M  V30 END BOND
M  V30 END CTAB
M  END
