
     RDKit          3D

  0  0  0  0  0  0  0  0  0  0999 V3000
M  V30 BEGIN CTAB
M  V30 COUNTS 64 63 0 0 0
M  V30 BEGIN ATOM
M  V30 1 O -6.36342 3.95764 -1.32225 0
M  V30 2 C -5.67319 2.89875 -0.880673 0
M  V30 3 C -6.63205 1.93276 -0.198832 0 CFG=1
M  V30 4 C -5.82759 0.755461 0.207488 0
M  V30 5 O -5.73442 0.399545 1.41077 0
M  V30 6 N -5.13329 -0.012367 -0.753767 0
M  V30 7 C -4.31733 -1.20243 -0.360791 0 CFG=2
M  V30 8 C -2.92608 -0.903366 -0.693002 0
M  V30 9 O -2.56069 0.291604 -0.367726 0
M  V30 10 N -1.96438 -1.68878 -1.29454 0
M  V30 11 C -0.592642 -1.23954 -1.54651 0
M  V30 12 C 0.158204 -0.907203 -0.332798 0
M  V30 13 O -0.367851 -1.03695 0.790644 0
M  V30 14 N 1.51483 -0.421925 -0.355613 0
M  V30 15 C 2.23406 -0.101554 0.842295 0 CFG=2
M  V30 16 C 2.69892 1.31325 0.844628 0
M  V30 17 O 2.41819 2.02181 -0.152921 0
M  V30 18 N 3.43455 1.91551 1.89256 0
M  V30 19 C 3.86846 3.29084 1.86007 0
M  V30 20 C 4.60719 3.5979 3.0948 0
M  V30 21 O 4.76759 2.72298 3.96593 0
M  V30 22 O 5.12724 4.85874 3.29441 0
M  V30 23 C 3.2445 -1.05414 1.3316 0
M  V30 24 C 4.42373 -1.41333 0.532545 0
M  V30 25 C 4.23413 -2.06996 -0.788816 0
M  V30 26 N 5.55419 -2.39361 -1.39404 0
M  V30 27 C 6.41497 -1.35257 -1.82768 0
M  V30 28 N 7.68883 -1.50452 -1.93097 0
M  V30 29 N 5.83965 -0.101891 -2.15665 0
M  V30 30 C -4.90908 -2.43802 -0.910397 0
M  V30 31 C -4.17159 -3.6287 -0.448431 0
M  V30 32 O -4.18074 -4.71753 -1.07627 0
M  V30 33 O -3.43976 -3.51734 0.745517 0
M  V30 34 N -7.29734 2.54525 0.918617 0
M  V30 35 H -7.03601 3.78823 -1.91254 0
M  V30 36 H -5.1943 2.41622 -1.75645 0
M  V30 37 H -4.86576 3.21268 -0.184571 0
M  V30 38 H -7.40298 1.62266 -0.932886 0
M  V30 39 H -5.14704 0.19576 -1.75768 0
M  V30 40 H -4.39378 -1.20634 0.768607 0
M  V30 41 H -2.21456 -2.66485 -1.62637 0
M  V30 42 H -0.669866 -0.410539 -2.27459 0
M  V30 43 H -0.0172367 -2.03996 -2.0823 0
M  V30 44 H 1.89268 -0.308181 -1.3132 0
M  V30 45 H 1.42541 -0.100476 1.66669 0
M  V30 46 H 3.66501 1.3169 2.72317 0
M  V30 47 H 3.02666 3.99301 1.67729 0
M  V30 48 H 4.54636 3.3913 0.971069 0
M  V30 49 H 6.12968 4.98477 3.45187 0
M  V30 50 H 3.65641 -0.675829 2.33523 0
M  V30 51 H 2.77749 -2.03524 1.66631 0
M  V30 52 H 5.13749 -0.526476 0.449863 0
M  V30 53 H 5.07129 -2.13975 1.134 0
M  V30 54 H 3.66306 -2.99154 -0.701849 0
M  V30 55 H 3.82973 -1.33119 -1.52899 0
M  V30 56 H 5.83042 -3.38073 -1.49275 0
M  V30 57 H 8.1881 -2.37889 -1.71246 0
M  V30 58 H 6.27023 0.757155 -1.77602 0
M  V30 59 H 5.00504 0.0122966 -2.7617 0
M  V30 60 H -4.94383 -2.37469 -2.0254 0
M  V30 61 H -5.97246 -2.57452 -0.612554 0
M  V30 62 H -2.80936 -4.24722 1.05048 0
M  V30 63 H -7.3753 1.92926 1.75795 0
M  V30 64 H -8.21037 2.96984 0.643015 0
M  V30 END ATOM
M  V30 BEGIN BOND
M  V30 1 1 1 2
M  V30 2 1 2 3
M  V30 3 1 3 4
M  V30 4 2 4 5
M  V30 5 1 4 6
M  V30 6 1 6 7
M  V30 7 1 7 8
M  V30 8 2 8 9
M  V30 9 1 8 10
M  V30 10 1 10 11
M  V30 11 1 11 12
M  V30 12 2 12 13
M  V30 13 1 12 14
M  V30 14 1 14 15
M  V30 15 1 15 16
M  V30 16 2 16 17
M  V30 17 1 16 18
M  V30 18 1 18 19
M  V30 19 1 19 20
M  V30 20 2 20 21
M  V30 21 1 20 22
M  V30 22 1 15 23
M  V30 23 1 23 24
M  V30 24 1 24 25
M  V30 25 1 25 26
M  V30 26 1 26 27
M  V30 27 2 27 28 CFG=2
M  V30 28 1 27 29
M  V30 29 1 7 30
M  V30 30 1 30 31
M  V30 31 2 31 32
M  V30 32 1 31 33
M  V30 33 1 3 34
M  V30 34 1 1 35
M  V30 35 1 2 36
M  V30 36 1 2 37
M  V30 37 1 3 38 CFG=3
M  V30 38 1 6 39
M  V30 39 1 7 40 CFG=1
M  V30 40 1 10 41
M  V30 41 1 11 42
M  V30 42 1 11 43
M  V30 43 1 14 44
M  V30 44 1 15 45 CFG=1
M  V30 45 1 18 46
M  V30 46 1 19 47
M  V30 47 1 19 48
M  V30 48 1 22 49
M  V30 49 1 23 50
M  V30 50 1 23 51
M  V30 51 1 24 52
M  V30 52 1 24 53
M  V30 53 1 25 54
M  V30 54 1 25 55
M  V30 55 1 26 56
M  V30 56 1 28 57
M  V30 57 1 29 58
M  V30 58 1 29 59
M  V30 59 1 30 60
M  V30 60 1 30 61
M  V30 61 1 33 62
M  V30 62 1 34 63
M  V30 63 1 34 64
M  V30 END BOND
M  V30 END CTAB
M  END
