
     RDKit          3D

  0  0  0  0  0  0  0  0  0  0999 V3000
M  V30 BEGIN CTAB
M  V30 COUNTS 37 38 0 0 0
M  V30 BEGIN ATOM
M  V30 1 N 0.135934 -5.01213 1.83779 0
M  V30 2 C 0.208741 -4.06125 1.1841 0
M  V30 3 C 0.273566 -2.82821 0.349032 0
M  V30 4 C 1.40867 -2.64514 -0.254551 0
M  V30 5 N 1.68226 -1.54781 -1.08963 0
M  V30 6 C 2.58905 -0.535392 -0.600804 0
M  V30 7 C 2.91044 0.571517 -1.35504 0
M  V30 8 C 3.77036 1.55015 -0.914444 0
M  V30 9 C 4.35004 1.44884 0.326087 0
M  V30 10 C 4.03261 0.339871 1.09049 0
M  V30 11 C 3.17052 -0.639128 0.646172 0
M  V30 12 Cl 4.78106 0.22069 2.67777 0
M  V30 13 N 5.2547 2.44899 0.8261 0
M  V30 14 C -0.882337 -1.99397 0.294544 0
M  V30 15 O -1.87116 -2.45575 1.01956 0
M  V30 16 N -1.12094 -0.799423 -0.387819 0
M  V30 17 C -2.36504 -0.0897318 -0.303875 0
M  V30 18 C -2.78566 0.64174 -1.42934 0
M  V30 19 C -3.94817 1.37687 -1.42632 0
M  V30 20 C -4.74609 1.4187 -0.304311 0
M  V30 21 C -4.32857 0.702431 0.790673 0
M  V30 22 C -3.1469 -0.0538812 0.810994 0
M  V30 23 N -5.94752 2.17822 -0.302179 0
M  V30 24 H 2.24415 -3.39964 -0.116554 0
M  V30 25 H 1.30011 -1.40802 -2.04504 0
M  V30 26 H 2.44407 0.63853 -2.33512 0
M  V30 27 H 3.99991 2.40293 -1.53022 0
M  V30 28 H 2.92794 -1.50162 1.24896 0
M  V30 29 H 4.8845 3.39159 1.07522 0
M  V30 30 H 6.25062 2.24863 0.939756 0
M  V30 31 H -0.430132 -0.325835 -1.00361 0
M  V30 32 H -2.1622 0.614079 -2.31815 0
M  V30 33 H -4.27792 1.94755 -2.30197 0
M  V30 34 H -4.95057 0.730062 1.67745 0
M  V30 35 H -2.90187 -0.561359 1.7282 0
M  V30 36 H -6.85825 1.84158 0.0452918 0
M  V30 37 H -5.89591 3.14533 -0.681233 0
M  V30 END ATOM
M  V30 BEGIN BOND
M  V30 1 3 1 2
M  V30 2 1 2 3
M  V30 3 2 3 4
M  V30 4 1 4 5
M  V30 5 1 5 6
M  V30 6 2 6 7
M  V30 7 1 7 8
M  V30 8 2 8 9
M  V30 9 1 9 10
M  V30 10 2 10 11
M  V30 11 1 10 12
M  V30 12 1 9 13
M  V30 13 1 3 14
M  V30 14 2 14 15
M  V30 15 1 14 16
M  V30 16 1 16 17
M  V30 17 2 17 18
M  V30 18 1 18 19
M  V30 19 2 19 20
M  V30 20 1 20 21
M  V30 21 2 21 22
M  V30 22 1 20 23
M  V30 23 1 11 6
M  V30 24 1 22 17
M  V30 25 1 4 24
M  V30 26 1 5 25
M  V30 27 1 7 26
M  V30 28 1 8 27
M  V30 29 1 11 28
M  V30 30 1 13 29
M  V30 31 1 13 30
M  V30 32 1 16 31
M  V30 33 1 18 32
M  V30 34 1 19 33
M  V30 35 1 21 34
M  V30 36 1 22 35
M  V30 37 1 23 36
M  V30 38 1 23 37
M  V30 END BOND
M  V30 END CTAB
M  END
