
     RDKit          3D

  0  0  0  0  0  0  0  0  0  0999 V3000
M  V30 BEGIN CTAB
M  V30 COUNTS 31 33 0 0 0
M  V30 BEGIN ATOM
M  V30 1 N 3.63483 1.08425 -0.278046 0
M  V30 2 C 2.44588 0.442404 -0.701378 0
M  V30 3 N 1.97509 0.670596 -1.85679 0
M  V30 4 C 1.79252 -0.498407 0.248223 0
M  V30 5 C 2.6548 -1.7213 0.604439 0
M  V30 6 C 2.34053 -0.657433 1.6211 0
M  V30 7 C 0.342973 -0.817182 0.0923873 0
M  V30 8 N -0.0201116 -2.10226 -0.203738 0
M  V30 9 C -1.28267 -2.47822 -0.417608 0
M  V30 10 C -2.27098 -1.52731 -0.336596 0
M  V30 11 C -1.92024 -0.209317 -0.0338944 0
M  V30 12 C -0.594093 0.157567 0.185795 0
M  V30 13 C -0.231117 1.45157 0.50289 0
M  V30 14 C -1.24334 2.40715 0.597843 0
M  V30 15 C -2.5548 2.05431 0.380486 0
M  V30 16 C -2.89865 0.759918 0.0672136 0
M  V30 17 N -4.25449 0.37585 -0.161133 0
M  V30 18 H 3.63749 2.11508 -0.188442 0
M  V30 19 H 4.50404 0.563531 -0.0538245 0
M  V30 20 H 1.09961 0.195647 -2.16372 0
M  V30 21 H 3.67708 -1.76887 0.191852 0
M  V30 22 H 2.14966 -2.69775 0.685333 0
M  V30 23 H 3.2028 -0.0420588 1.97026 0
M  V30 24 H 1.63832 -0.955429 2.40516 0
M  V30 25 H -1.55642 -3.50816 -0.653213 0
M  V30 26 H -3.31227 -1.78136 -0.502707 0
M  V30 27 H 0.804665 1.75965 0.701604 0
M  V30 28 H -0.960891 3.43318 0.847928 0
M  V30 29 H -3.31494 2.81047 0.459344 0
M  V30 30 H -4.49636 -0.193029 -0.988828 0
M  V30 31 H -4.98892 0.67691 0.515888 0
M  V30 END ATOM
M  V30 BEGIN BOND
M  V30 1 1 1 2
M  V30 2 2 2 3 CFG=2
M  V30 3 1 2 4
M  V30 4 1 4 5
M  V30 5 1 5 6
M  V30 6 1 4 7
M  V30 7 2 7 8
M  V30 8 1 8 9
M  V30 9 2 9 10
M  V30 10 1 10 11
M  V30 11 2 11 12
M  V30 12 1 12 13
M  V30 13 2 13 14
M  V30 14 1 14 15
M  V30 15 2 15 16
M  V30 16 1 16 17
M  V30 17 1 6 4
M  V30 18 1 12 7
M  V30 19 1 16 11
M  V30 20 1 1 18
M  V30 21 1 1 19
M  V30 22 1 3 20
M  V30 23 1 5 21
M  V30 24 1 5 22
M  V30 25 1 6 23
M  V30 26 1 6 24
M  V30 27 1 9 25
M  V30 28 1 10 26
M  V30 29 1 13 27
M  V30 30 1 14 28
M  V30 31 1 15 29
M  V30 32 1 17 30
M  V30 33 1 17 31
M  V30 END BOND
M  V30 END CTAB
M  END
