
     RDKit          3D

  0  0  0  0  0  0  0  0  0  0999 V3000
M  V30 BEGIN CTAB
M  V30 COUNTS 51 54 0 0 0
M  V30 BEGIN ATOM
M  V30 1 N 6.18647 0.341316 -0.154934 0
M  V30 2 C 4.89441 0.613321 0.421784 0
M  V30 3 C 3.89626 1.12669 -0.578907 0
M  V30 4 C 2.78002 0.16678 -0.850974 0
M  V30 5 C 1.9952 -0.231527 0.357854 0
M  V30 6 C 2.96787 -0.329404 1.55273 0
M  V30 7 C 4.31724 -0.685485 0.98328 0
M  V30 8 N 0.973798 0.613423 0.766192 0
M  V30 9 C -0.142515 0.925696 0.0152611 0
M  V30 10 C -1.163 -0.184009 -0.230294 0
M  V30 11 N -0.642829 -1.31046 -0.920361 0
M  V30 12 C -1.81567 -0.620902 1.04454 0
M  V30 13 C -2.78508 -1.734 0.742979 0
M  V30 14 C -3.85231 -1.24887 -0.208608 0
M  V30 15 C -3.19735 -0.73754 -1.47795 0
M  V30 16 C -2.27106 0.389378 -1.13025 0
M  V30 17 C -3.02808 1.48706 -0.46736 0
M  V30 18 C -3.7026 0.976234 0.789377 0
M  V30 19 C -2.61304 0.47952 1.70514 0
M  V30 20 C -4.6387 -0.166654 0.464091 0
M  V30 21 H 6.77027 1.19647 -0.272144 0
M  V30 22 H 6.13074 -0.225649 -1.02749 0
M  V30 23 H 5.00769 1.30538 1.25243 0
M  V30 24 H 4.44739 1.25677 -1.54406 0
M  V30 25 H 3.52819 2.11988 -0.282642 0
M  V30 26 H 3.21869 -0.734843 -1.33052 0
M  V30 27 H 2.14684 0.631083 -1.64564 0
M  V30 28 H 1.65387 -1.27492 0.230314 0
M  V30 29 H 3.03364 0.698571 1.99055 0
M  V30 30 H 2.60156 -1.063 2.29489 0
M  V30 31 H 4.25285 -1.48726 0.250803 0
M  V30 32 H 5.03112 -1.00192 1.77736 0
M  V30 33 H 1.04015 1.01026 1.7275 0
M  V30 34 H 0.0254868 1.38868 -0.97937 0
M  V30 35 H -0.726402 1.71415 0.584316 0
M  V30 36 H -0.0594173 -1.11693 -1.73621 0
M  V30 37 H -0.462156 -2.16297 -0.399926 0
M  V30 38 H -1.07807 -0.975991 1.7913 0
M  V30 39 H -3.28926 -2.04734 1.685 0
M  V30 40 H -2.26863 -2.61094 0.364076 0
M  V30 41 H -4.4787 -2.11632 -0.501131 0
M  V30 42 H -3.98305 -0.436398 -2.18661 0
M  V30 43 H -2.65229 -1.59008 -1.95767 0
M  V30 44 H -1.79426 0.796857 -2.04073 0
M  V30 45 H -2.46689 2.38956 -0.23179 0
M  V30 46 H -3.84401 1.78063 -1.15397 0
M  V30 47 H -4.26602 1.78664 1.26127 0
M  V30 48 H -2.00222 1.28349 2.10992 0
M  V30 49 H -3.13394 -0.00192492 2.57561 0
M  V30 50 H -5.48706 0.186737 -0.160407 0
M  V30 51 H -5.05515 -0.569219 1.39217 0
M  V30 END ATOM
M  V30 BEGIN BOND
M  V30 1 1 1 2
M  V30 2 1 2 3
M  V30 3 1 3 4
M  V30 4 1 4 5
M  V30 5 1 5 6
M  V30 6 1 6 7
M  V30 7 1 5 8
M  V30 8 1 8 9
M  V30 9 1 9 10
M  V30 10 1 10 11
M  V30 11 1 10 12
M  V30 12 1 12 13
M  V30 13 1 13 14
M  V30 14 1 14 15
M  V30 15 1 15 16
M  V30 16 1 16 17
M  V30 17 1 17 18
M  V30 18 1 18 19
M  V30 19 1 18 20
M  V30 20 1 7 2
M  V30 21 1 16 10
M  V30 22 1 19 12
M  V30 23 1 20 14
M  V30 24 1 1 21
M  V30 25 1 1 22
M  V30 26 1 2 23
M  V30 27 1 3 24
M  V30 28 1 3 25
M  V30 29 1 4 26
M  V30 30 1 4 27
M  V30 31 1 5 28
M  V30 32 1 6 29
M  V30 33 1 6 30
M  V30 34 1 7 31
M  V30 35 1 7 32
M  V30 36 1 8 33
M  V30 37 1 9 34
M  V30 38 1 9 35
M  V30 39 1 11 36
M  V30 40 1 11 37
M  V30 41 1 12 38
M  V30 42 1 13 39
M  V30 43 1 13 40
M  V30 44 1 14 41
M  V30 45 1 15 42
M  V30 46 1 15 43
M  V30 47 1 16 44
M  V30 48 1 17 45
M  V30 49 1 17 46
M  V30 50 1 18 47
M  V30 51 1 19 48
M  V30 52 1 19 49
M  V30 53 1 20 50
M  V30 54 1 20 51
M  V30 END BOND
M  V30 END CTAB
M  END
