
     RDKit          3D

  0  0  0  0  0  0  0  0  0  0999 V3000
M  V30 BEGIN CTAB
M  V30 COUNTS 38 40 0 0 0
M  V30 BEGIN ATOM
M  V30 1 N -4.91912 -0.723254 -1.10413 0
M  V30 2 C -4.18973 0.299219 -0.403273 0
M  V30 3 C -4.88708 1.42116 -0.075901 0
M  V30 4 C -4.27626 2.44923 0.595756 0
M  V30 5 C -2.94645 2.29483 0.91783 0
M  V30 6 C -2.24003 1.16007 0.587694 0
M  V30 7 C -2.83144 0.116507 -0.0866079 0
M  V30 8 S -2.11003 -1.36552 -0.616798 0
M  V30 9 C -0.384118 -1.56933 -0.4988 0
M  V30 10 N 0.54082 -0.690084 -0.11405 0
M  V30 11 C 1.85227 -0.904363 0.00392193 0
M  V30 12 C 2.30805 -2.18912 -0.309337 0
M  V30 13 C 1.43167 -3.16706 -0.717109 0
M  V30 14 C 0.0966651 -2.86464 -0.812976 0
M  V30 15 N -0.826721 -3.85397 -1.23126 0 CHG=1
M  V30 16 O -0.453328 -4.7653 -1.96877 0
M  V30 17 O -2.12053 -3.78965 -0.816496 0 CHG=-1
M  V30 18 C 2.83423 0.124539 0.381544 0
M  V30 19 C 4.09816 -0.236023 0.8228 0
M  V30 20 C 5.07454 0.675306 1.15535 0
M  V30 21 C 4.8247 2.00943 1.05973 0
M  V30 22 C 3.5923 2.40487 0.628808 0
M  V30 23 C 2.60874 1.47679 0.292849 0
M  V30 24 N 1.36734 1.94352 -0.177805 0
M  V30 25 H -5.31368 -0.493225 -2.04173 0
M  V30 26 H -5.06773 -1.67433 -0.715567 0
M  V30 27 H -5.94141 1.55486 -0.325343 0
M  V30 28 H -4.82478 3.35836 0.864798 0
M  V30 29 H -2.47575 3.10854 1.44489 0
M  V30 30 H -1.19757 1.04801 0.866014 0
M  V30 31 H 3.3431 -2.42933 -0.242313 0
M  V30 32 H 1.7805 -4.18058 -0.965187 0
M  V30 33 H 4.36997 -1.26926 0.933745 0
M  V30 34 H 6.04152 0.332282 1.49348 0
M  V30 35 H 5.61556 2.69285 1.33118 0
M  V30 36 H 3.40178 3.47183 0.555714 0
M  V30 37 H 0.759982 2.52632 0.420345 0
M  V30 38 H 1.06387 1.6965 -1.13301 0
M  V30 END ATOM
M  V30 BEGIN BOND
M  V30 1 1 1 2
M  V30 2 2 2 3
M  V30 3 1 3 4
M  V30 4 2 4 5
M  V30 5 1 5 6
M  V30 6 2 6 7
M  V30 7 1 7 8
M  V30 8 1 8 9
M  V30 9 2 9 10
M  V30 10 1 10 11
M  V30 11 2 11 12
M  V30 12 1 12 13
M  V30 13 2 13 14
M  V30 14 1 14 15
M  V30 15 2 15 16
M  V30 16 1 15 17
M  V30 17 1 11 18
M  V30 18 2 18 19
M  V30 19 1 19 20
M  V30 20 2 20 21
M  V30 21 1 21 22
M  V30 22 2 22 23
M  V30 23 1 23 24
M  V30 24 1 7 2
M  V30 25 1 14 9
M  V30 26 1 23 18
M  V30 27 1 1 25
M  V30 28 1 1 26
M  V30 29 1 3 27
M  V30 30 1 4 28
M  V30 31 1 5 29
M  V30 32 1 6 30
M  V30 33 1 12 31
M  V30 34 1 13 32
M  V30 35 1 19 33
M  V30 36 1 20 34
M  V30 37 1 21 35
M  V30 38 1 22 36
M  V30 39 1 24 37
M  V30 40 1 24 38
M  V30 END BOND
M  V30 END CTAB
M  END
