
     RDKit          3D

  0  0  0  0  0  0  0  0  0  0999 V3000
M  V30 BEGIN CTAB
M  V30 COUNTS 30 30 0 0 0
M  V30 BEGIN ATOM
M  V30 1 N 2.87653 -2.53804 -0.3219 0
M  V30 2 C 2.28801 -1.2646 -0.0771984 0
M  V30 3 C 0.9165 -1.13119 -0.22044 0
M  V30 4 C 0.296317 0.0762228 0.00168246 0
M  V30 5 C 1.05593 1.15635 0.3706 0
M  V30 6 C 2.43737 1.06921 0.527735 0
M  V30 7 N 3.26613 2.14095 0.906369 0
M  V30 8 C 3.02088 -0.165467 0.293402 0
M  V30 9 N -1.10934 0.113308 -0.15408 0
M  V30 10 C -1.93343 -0.0622523 1.0442 0
M  V30 11 C -2.63976 -1.40517 1.00996 0
M  V30 12 Cl -3.62727 -1.55476 2.48023 0
M  V30 13 C -1.77803 0.28622 -1.4111 0
M  V30 14 C -2.547 1.55305 -1.5614 0
M  V30 15 Cl -1.62419 3.02928 -1.42699 0
M  V30 16 H 2.27177 -3.38291 -0.382196 0
M  V30 17 H 3.89479 -2.63819 -0.440607 0
M  V30 18 H 0.350726 -2.01549 -0.517996 0
M  V30 19 H 0.637968 2.12262 0.566451 0
M  V30 20 H 3.46114 2.4256 1.87624 0
M  V30 21 H 3.73507 2.70944 0.143272 0
M  V30 22 H 4.07362 -0.264602 0.404931 0
M  V30 23 H -1.34634 0.0254775 1.95983 0
M  V30 24 H -2.73 0.70366 1.04692 0
M  V30 25 H -1.92728 -2.25587 1.00648 0
M  V30 26 H -3.30295 -1.5048 0.118118 0
M  V30 27 H -1.05371 0.21864 -2.25173 0
M  V30 28 H -2.52248 -0.558099 -1.50563 0
M  V30 29 H -2.99847 1.53912 -2.59894 0
M  V30 30 H -3.44247 1.57228 -0.886225 0
M  V30 END ATOM
M  V30 BEGIN BOND
M  V30 1 1 1 2
M  V30 2 2 2 3
M  V30 3 1 3 4
M  V30 4 2 4 5
M  V30 5 1 5 6
M  V30 6 1 6 7
M  V30 7 2 6 8
M  V30 8 1 4 9
M  V30 9 1 9 10
M  V30 10 1 10 11
M  V30 11 1 11 12
M  V30 12 1 9 13
M  V30 13 1 13 14
M  V30 14 1 14 15
M  V30 15 1 8 2
M  V30 16 1 1 16
M  V30 17 1 1 17
M  V30 18 1 3 18
M  V30 19 1 5 19
M  V30 20 1 7 20
M  V30 21 1 7 21
M  V30 22 1 8 22
M  V30 23 1 10 23
M  V30 24 1 10 24
M  V30 25 1 11 25
M  V30 26 1 11 26
M  V30 27 1 13 27
M  V30 28 1 13 28
M  V30 29 1 14 29
M  V30 30 1 14 30
M  V30 END BOND
M  V30 END CTAB
M  END
