
     RDKit          3D

  0  0  0  0  0  0  0  0  0  0999 V3000
M  V30 BEGIN CTAB
M  V30 COUNTS 27 27 0 0 0
M  V30 BEGIN ATOM
M  V30 1 N 4.13881 -0.253892 -0.0579529 0
M  V30 2 C 2.98825 0.435814 0.36862 0
M  V30 3 C 1.77301 -0.457109 0.0648293 0
M  V30 4 N 0.569329 0.191362 0.461896 0
M  V30 5 C 0.315011 1.30936 -0.390545 0
M  V30 6 C -1.14651 1.23009 -0.788656 0
M  V30 7 C -1.76776 0.265561 0.203726 0 CFG=2
M  V30 8 C -0.591711 -0.633498 0.558055 0
M  V30 9 C -2.8535 -0.537006 -0.469157 0
M  V30 10 N -3.49367 -1.47811 0.405561 0
M  V30 11 H 4.97062 0.236625 -0.26896 0
M  V30 12 H 4.09704 -1.2476 0.0536805 0
M  V30 13 H 3.00406 0.619775 1.45838 0
M  V30 14 H 2.83981 1.35594 -0.220644 0
M  V30 15 H 1.79602 -0.55103 -1.05492 0
M  V30 16 H 1.89291 -1.47417 0.447322 0
M  V30 17 H 0.537238 2.26775 0.0964228 0
M  V30 18 H 0.925058 1.26406 -1.33939 0
M  V30 19 H -1.24767 0.806041 -1.827 0
M  V30 20 H -1.61727 2.22104 -0.7819 0
M  V30 21 H -2.13009 0.777637 1.10521 0
M  V30 22 H -0.575978 -1.51289 -0.10863 0
M  V30 23 H -0.774129 -1.0188 1.58703 0
M  V30 24 H -2.40997 -1.0933 -1.32426 0
M  V30 25 H -3.62257 0.172257 -0.840171 0
M  V30 26 H -4.50984 -1.35757 0.401251 0
M  V30 27 H -3.10649 -1.53833 1.35775 0
M  V30 END ATOM
M  V30 BEGIN BOND
M  V30 1 1 1 2
M  V30 2 1 2 3
M  V30 3 1 3 4
M  V30 4 1 4 5
M  V30 5 1 5 6
M  V30 6 1 6 7
M  V30 7 1 7 8
M  V30 8 1 7 9
M  V30 9 1 9 10
M  V30 10 1 8 4
M  V30 11 1 1 11
M  V30 12 1 1 12
M  V30 13 1 2 13
M  V30 14 1 2 14
M  V30 15 1 3 15
M  V30 16 1 3 16
M  V30 17 1 5 17
M  V30 18 1 5 18
M  V30 19 1 6 19
M  V30 20 1 6 20
M  V30 21 1 7 21 CFG=1
M  V30 22 1 8 22
M  V30 23 1 8 23
M  V30 24 1 9 24
M  V30 25 1 9 25
M  V30 26 1 10 26
M  V30 27 1 10 27
M  V30 END BOND
M  V30 END CTAB
M  END
