
     RDKit          3D

  0  0  0  0  0  0  0  0  0  0999 V3000
M  V30 BEGIN CTAB
M  V30 COUNTS 33 34 0 0 0
M  V30 BEGIN ATOM
M  V30 1 N -2.83363 0.905265 1.60835 0
M  V30 2 C -1.89688 -0.10507 1.14484 0
M  V30 3 C -1.47014 0.126866 -0.270889 0
M  V30 4 C -2.44152 0.146627 -1.36674 0
M  V30 5 C -1.96861 1.43796 -0.858037 0
M  V30 6 C 0.0200328 -0.0882002 -0.526878 0
M  V30 7 O 0.190122 0.176312 -1.90748 0
M  V30 8 C 0.29709 -1.53923 -0.332143 0
M  V30 9 C 1.78149 -1.74257 -0.557233 0
M  V30 10 C 2.50261 -1.05399 0.548084 0
M  V30 11 C 2.12404 0.342867 0.810163 0
M  V30 12 C 0.859084 0.847308 0.270284 0
M  V30 13 N 3.21336 1.19993 0.305901 0
M  V30 14 H -3.08959 0.650123 2.59007 0
M  V30 15 H -3.68961 0.813502 1.0078 0
M  V30 16 H -2.46491 -1.07184 1.17533 0
M  V30 17 H -1.05145 -0.186807 1.84311 0
M  V30 18 H -2.1793 -0.202023 -2.39582 0
M  V30 19 H -3.48197 -0.190269 -1.08859 0
M  V30 20 H -2.62178 2.08866 -0.242366 0
M  V30 21 H -1.30763 2.01808 -1.53399 0
M  V30 22 H -0.0494884 -0.61239 -2.45559 0
M  V30 23 H -0.0306522 -1.93496 0.646191 0
M  V30 24 H -0.225219 -2.09967 -1.13189 0
M  V30 25 H 2.03515 -1.30012 -1.53331 0
M  V30 26 H 2.0553 -2.8279 -0.518166 0
M  V30 27 H 2.36821 -1.69378 1.47145 0
M  V30 28 H 3.60672 -1.15711 0.325116 0
M  V30 29 H 2.16539 0.503357 1.92953 0
M  V30 30 H 0.20404 1.23586 1.10775 0
M  V30 31 H 1.0008 1.77207 -0.367446 0
M  V30 32 H 3.44308 1.96007 0.951256 0
M  V30 33 H 2.93588 1.58106 -0.648659 0
M  V30 END ATOM
M  V30 BEGIN BOND
M  V30 1 1 1 2
M  V30 2 1 2 3
M  V30 3 1 3 4
M  V30 4 1 4 5
M  V30 5 1 3 6
M  V30 6 1 6 7
M  V30 7 1 6 8
M  V30 8 1 8 9
M  V30 9 1 9 10
M  V30 10 1 10 11
M  V30 11 1 11 12
M  V30 12 1 11 13
M  V30 13 1 5 3
M  V30 14 1 12 6
M  V30 15 1 1 14
M  V30 16 1 1 15
M  V30 17 1 2 16
M  V30 18 1 2 17
M  V30 19 1 4 18
M  V30 20 1 4 19
M  V30 21 1 5 20
M  V30 22 1 5 21
M  V30 23 1 7 22
M  V30 24 1 8 23
M  V30 25 1 8 24
M  V30 26 1 9 25
M  V30 27 1 9 26
M  V30 28 1 10 27
M  V30 29 1 10 28
M  V30 30 1 11 29
M  V30 31 1 12 30
M  V30 32 1 12 31
M  V30 33 1 13 32
M  V30 34 1 13 33
M  V30 END BOND
M  V30 END CTAB
M  END
