
     RDKit          3D

  0  0  0  0  0  0  0  0  0  0999 V3000
M  V30 BEGIN CTAB
M  V30 COUNTS 26 27 0 0 0
M  V30 BEGIN ATOM
M  V30 1 N 3.95064 0.992395 -0.552575 0
M  V30 2 C 2.81677 0.172426 -0.307553 0
M  V30 3 N 2.78538 -1.17018 -0.393611 0
M  V30 4 N 1.55941 -1.61642 -0.088088 0
M  V30 5 C 0.773048 -0.553952 0.202754 0
M  V30 6 N 1.58133 0.533875 0.0566958 0
M  V30 7 C -0.664015 -0.524497 0.610404 0
M  V30 8 N -0.771156 -1.38508 1.80594 0
M  V30 9 C -1.60817 -1.02045 -0.433387 0
M  V30 10 C -2.83518 -0.0946097 -0.335668 0
M  V30 11 O -2.39812 1.11572 -0.898489 0
M  V30 12 C -1.50652 1.74264 -0.0474314 0
M  V30 13 C -1.00093 0.866413 1.07775 0
M  V30 14 H 4.91975 0.791203 -0.235437 0
M  V30 15 H 3.83093 1.8862 -1.10264 0
M  V30 16 H 3.62345 -1.73426 -0.656928 0
M  V30 17 H -0.824167 -2.39777 1.50348 0
M  V30 18 H 0.0913406 -1.25357 2.40765 0
M  V30 19 H -1.93592 -2.07668 -0.312049 0
M  V30 20 H -1.21502 -0.874015 -1.46969 0
M  V30 21 H -3.66752 -0.457421 -0.941941 0
M  V30 22 H -3.07829 0.107093 0.710169 0
M  V30 23 H -2.04213 2.60331 0.423696 0
M  V30 24 H -0.668603 2.18087 -0.619691 0
M  V30 25 H -1.66474 0.853335 1.95965 0
M  V30 26 H -0.051566 1.31341 1.42443 0
M  V30 END ATOM
M  V30 BEGIN BOND
M  V30 1 1 1 2
M  V30 2 1 2 3
M  V30 3 1 3 4
M  V30 4 2 4 5
M  V30 5 1 5 6
M  V30 6 1 5 7
M  V30 7 1 7 8
M  V30 8 1 7 9
M  V30 9 1 9 10
M  V30 10 1 10 11
M  V30 11 1 11 12
M  V30 12 1 12 13
M  V30 13 2 6 2
M  V30 14 1 13 7
M  V30 15 1 1 14
M  V30 16 1 1 15
M  V30 17 1 3 16
M  V30 18 1 8 17
M  V30 19 1 8 18
M  V30 20 1 9 19
M  V30 21 1 9 20
M  V30 22 1 10 21
M  V30 23 1 10 22
M  V30 24 1 12 23
M  V30 25 1 12 24
M  V30 26 1 13 25
M  V30 27 1 13 26
M  V30 END BOND
M  V30 END CTAB
M  END
