
     RDKit          3D

  0  0  0  0  0  0  0  0  0  0999 V3000
M  V30 BEGIN CTAB
M  V30 COUNTS 24 25 0 0 0
M  V30 BEGIN ATOM
M  V30 1 Cl -2.81591 -3.17206 -0.842078 0
M  V30 2 C -1.94926 -1.72457 -0.438608 0
M  V30 3 C -2.67031 -0.595852 -0.058428 0
M  V30 4 C -1.99986 0.568326 0.267345 0
M  V30 5 C -2.72353 1.80656 0.681276 0
M  V30 6 C -0.605444 0.590827 0.20882 0
M  V30 7 C 0.0872643 -0.550286 -0.173836 0
M  V30 8 C -0.57409 -1.71174 -0.499197 0
M  V30 9 C 1.47735 -0.575245 -0.246717 0
M  V30 10 N 2.17438 -1.75175 -0.640456 0
M  V30 11 C 2.13369 0.593378 0.0810863 0
M  V30 12 C 1.42887 1.71795 0.459234 0
M  V30 13 N 0.0890096 1.70301 0.51751 0
M  V30 14 N 3.56 0.59906 0.0159215 0
M  V30 15 H -3.75331 -0.626047 -0.0168802 0
M  V30 16 H -2.41096 2.63481 0.0303176 0
M  V30 17 H -3.81495 1.63836 0.532151 0
M  V30 18 H -2.54347 1.99087 1.76159 0
M  V30 19 H -0.0581977 -2.6057 -0.797713 0
M  V30 20 H 2.75049 -2.24925 0.0660056 0
M  V30 21 H 2.12642 -2.12151 -1.59266 0
M  V30 22 H 1.98927 2.62856 0.71238 0
M  V30 23 H 3.99706 1.14522 -0.747463 0
M  V30 24 H 4.10547 0.0670736 0.720393 0
M  V30 END ATOM
M  V30 BEGIN BOND
M  V30 1 1 1 2
M  V30 2 2 2 3
M  V30 3 1 3 4
M  V30 4 1 4 5
M  V30 5 2 4 6
M  V30 6 1 6 7
M  V30 7 2 7 8
M  V30 8 1 7 9
M  V30 9 1 9 10
M  V30 10 2 9 11
M  V30 11 1 11 12
M  V30 12 2 12 13
M  V30 13 1 11 14
M  V30 14 1 8 2
M  V30 15 1 13 6
M  V30 16 1 3 15
M  V30 17 1 5 16
M  V30 18 1 5 17
M  V30 19 1 5 18
M  V30 20 1 8 19
M  V30 21 1 10 20
M  V30 22 1 10 21
M  V30 23 1 12 22
M  V30 24 1 14 23
M  V30 25 1 14 24
M  V30 END BOND
M  V30 END CTAB
M  END
