
     RDKit          3D

  0  0  0  0  0  0  0  0  0  0999 V3000
M  V30 BEGIN CTAB
M  V30 COUNTS 38 39 0 0 0
M  V30 BEGIN ATOM
M  V30 1 N -1.92187 3.43726 -0.228109 0
M  V30 2 C -1.68977 2.28218 0.592235 0
M  V30 3 C -1.16056 1.18994 -0.270187 0
M  V30 4 N -0.884747 -0.0525676 0.46953 0
M  V30 5 C -2.15571 -0.555559 0.873167 0
M  V30 6 C -2.17418 -1.976 1.33821 0
M  V30 7 C -2.13282 -2.96112 0.192689 0
M  V30 8 O -0.898179 -3.14999 -0.341399 0
M  V30 9 C 0.0850551 -2.28313 0.0371995 0
M  V30 10 C -0.180808 -0.890994 -0.48293 0 CFG=2
M  V30 11 C 1.14875 -0.263861 -0.701403 0
M  V30 12 C 1.69254 -0.103303 -1.95551 0
M  V30 13 C 2.93445 0.480897 -2.15773 0
M  V30 14 C 3.64592 0.914558 -1.06071 0
M  V30 15 C 3.13682 0.771407 0.202444 0
M  V30 16 C 1.88337 0.179512 0.376404 0
M  V30 17 N 3.90801 1.23223 1.28895 0
M  V30 18 H -2.70752 3.38743 -0.833703 0
M  V30 19 H -1.11233 3.92323 -0.562011 0
M  V30 20 H -2.619 2.0513 1.1116 0
M  V30 21 H -0.925157 2.55451 1.36575 0
M  V30 22 H -0.221059 1.55787 -0.749736 0
M  V30 23 H -1.9038 0.923236 -1.05315 0
M  V30 24 H -2.84645 -0.481144 0.00787163 0
M  V30 25 H -2.50589 0.0778593 1.72433 0
M  V30 26 H -3.1859 -2.13278 1.82266 0
M  V30 27 H -1.4516 -2.20262 2.1413 0
M  V30 28 H -2.52081 -3.92714 0.574711 0
M  V30 29 H -2.87489 -2.59314 -0.556101 0
M  V30 30 H 1.0439 -2.67844 -0.416768 0
M  V30 31 H 0.297404 -2.21529 1.10773 0
M  V30 32 H -0.752301 -0.923971 -1.4225 0
M  V30 33 H 1.16191 -0.431397 -2.83945 0
M  V30 34 H 3.32362 0.587543 -3.16021 0
M  V30 35 H 4.61472 1.36985 -1.21708 0
M  V30 36 H 1.5372 0.0959545 1.39972 0
M  V30 37 H 4.96085 1.25017 1.23151 0
M  V30 38 H 3.45084 1.55551 2.15068 0
M  V30 END ATOM
M  V30 BEGIN BOND
M  V30 1 1 1 2
M  V30 2 1 2 3
M  V30 3 1 3 4
M  V30 4 1 4 5
M  V30 5 1 5 6
M  V30 6 1 6 7
M  V30 7 1 7 8
M  V30 8 1 8 9
M  V30 9 1 9 10
M  V30 10 1 10 11
M  V30 11 2 11 12
M  V30 12 1 12 13
M  V30 13 2 13 14
M  V30 14 1 14 15
M  V30 15 2 15 16
M  V30 16 1 15 17
M  V30 17 1 10 4
M  V30 18 1 16 11
M  V30 19 1 1 18
M  V30 20 1 1 19
M  V30 21 1 2 20
M  V30 22 1 2 21
M  V30 23 1 3 22
M  V30 24 1 3 23
M  V30 25 1 5 24
M  V30 26 1 5 25
M  V30 27 1 6 26
M  V30 28 1 6 27
M  V30 29 1 7 28
M  V30 30 1 7 29
M  V30 31 1 9 30
M  V30 32 1 9 31
M  V30 33 1 10 32 CFG=3
M  V30 34 1 12 33
M  V30 35 1 13 34
M  V30 36 1 14 35
M  V30 37 1 16 36
M  V30 38 1 17 37
M  V30 39 1 17 38
M  V30 END BOND
M  V30 END CTAB
M  END
