
     RDKit          3D

  0  0  0  0  0  0  0  0  0  0999 V3000
M  V30 BEGIN CTAB
M  V30 COUNTS 44 46 0 0 0
M  V30 BEGIN ATOM
M  V30 1 N -6.49541 -0.73117 -1.14045 0
M  V30 2 C -5.44291 0.233212 -1.3373 0
M  V30 3 C -4.08268 -0.375449 -1.62565 0
M  V30 4 C -3.49424 0.714313 -0.73935 0
M  V30 5 C -4.84593 0.779905 -0.0514735 0
M  V30 6 C -2.38618 0.257392 0.127852 0
M  V30 7 C -1.22228 0.9973 0.144534 0
M  V30 8 C -0.122435 0.656369 0.922873 0
M  V30 9 N 1.05698 1.44882 0.926145 0
M  V30 10 C 2.21203 1.09315 1.70903 0
M  V30 11 C 2.8245 -0.17234 1.17986 0
M  V30 12 N 3.22798 0.00333781 -0.205066 0
M  V30 13 C 3.81523 -1.17353 -0.762868 0
M  V30 14 C 5.27738 -0.8514 -0.946461 0
M  V30 15 C 5.23188 0.621426 -1.30276 0
M  V30 16 C 4.13279 1.1048 -0.380663 0
M  V30 17 N -0.249805 -0.437856 1.66392 0
M  V30 18 C -1.37883 -1.17113 1.65913 0
M  V30 19 N -2.44365 -0.826023 0.894558 0
M  V30 20 N -1.39842 -2.32837 2.49819 0
M  V30 21 H -6.08986 -1.6896 -1.27331 0
M  V30 22 H -7.23209 -0.543994 -1.8478 0
M  V30 23 H -5.67221 1.00994 -2.10029 0
M  V30 24 H -3.75118 -0.304144 -2.67886 0
M  V30 25 H -4.03003 -1.38577 -1.17129 0
M  V30 26 H -3.28087 1.62031 -1.30114 0
M  V30 27 H -5.18872 1.79753 0.213346 0
M  V30 28 H -4.99749 0.0662225 0.769646 0
M  V30 29 H -1.10826 1.89878 -0.46163 0
M  V30 30 H 1.12702 2.32871 0.351811 0
M  V30 31 H 2.95544 1.9311 1.68142 0
M  V30 32 H 1.9647 0.980798 2.7893 0
M  V30 33 H 2.16903 -1.03107 1.27519 0
M  V30 34 H 3.7908 -0.310684 1.7518 0
M  V30 35 H 3.34257 -1.32284 -1.7772 0
M  V30 36 H 3.64386 -2.0863 -0.154437 0
M  V30 37 H 5.74093 -1.45462 -1.74442 0
M  V30 38 H 5.81378 -1.02047 0.0100624 0
M  V30 39 H 4.97229 0.699075 -2.35673 0
M  V30 40 H 6.16015 1.14992 -1.04671 0
M  V30 41 H 3.67393 2.00526 -0.812049 0
M  V30 42 H 4.59219 1.37295 0.603655 0
M  V30 43 H -1.31015 -2.26021 3.54434 0
M  V30 44 H -1.50182 -3.29366 2.10317 0
M  V30 END ATOM
M  V30 BEGIN BOND
M  V30 1 1 1 2
M  V30 2 1 2 3
M  V30 3 1 3 4
M  V30 4 1 4 5
M  V30 5 1 4 6
M  V30 6 2 6 7
M  V30 7 1 7 8
M  V30 8 1 8 9
M  V30 9 1 9 10
M  V30 10 1 10 11
M  V30 11 1 11 12
M  V30 12 1 12 13
M  V30 13 1 13 14
M  V30 14 1 14 15
M  V30 15 1 15 16
M  V30 16 2 8 17
M  V30 17 1 17 18
M  V30 18 2 18 19
M  V30 19 1 18 20
M  V30 20 1 5 2
M  V30 21 1 19 6
M  V30 22 1 16 12
M  V30 23 1 1 21
M  V30 24 1 1 22
M  V30 25 1 2 23
M  V30 26 1 3 24
M  V30 27 1 3 25
M  V30 28 1 4 26
M  V30 29 1 5 27
M  V30 30 1 5 28
M  V30 31 1 7 29
M  V30 32 1 9 30
M  V30 33 1 10 31
M  V30 34 1 10 32
M  V30 35 1 11 33
M  V30 36 1 11 34
M  V30 37 1 13 35
M  V30 38 1 13 36
M  V30 39 1 14 37
M  V30 40 1 14 38
M  V30 41 1 15 39
M  V30 42 1 15 40
M  V30 43 1 16 41
M  V30 44 1 16 42
M  V30 45 1 20 43
M  V30 46 1 20 44
M  V30 END BOND
M  V30 END CTAB
M  END
