
     RDKit          3D

  0  0  0  0  0  0  0  0  0  0999 V3000
M  V30 BEGIN CTAB
M  V30 COUNTS 22 23 0 0 0
M  V30 BEGIN ATOM
M  V30 1 N 4.2528 0.213934 0.121815 0
M  V30 2 N 3.20714 -0.305453 -0.64691 0
M  V30 3 N 2.31819 -0.999266 0.16182 0
M  V30 4 C 1.04803 -0.351992 0.00228519 0
M  V30 5 C 1.18891 0.708266 -0.868593 0
M  V30 6 O 2.52268 0.70935 -1.23542 0
M  V30 7 C 0.11783 1.50715 -1.20177 0
M  V30 8 C -1.12349 1.24957 -0.658993 0
M  V30 9 C -1.30738 0.206396 0.210265 0
M  V30 10 C -0.211852 -0.571739 0.520449 0
M  V30 11 S -2.89554 -0.0960843 0.88338 0
M  V30 12 N -3.71869 -1.16795 -0.162123 0
M  V30 13 O -2.7315 -0.718111 2.22198 0
M  V30 14 O -3.6307 1.20274 1.06619 0
M  V30 15 H 3.85158 0.430796 1.05936 0
M  V30 16 H 4.98157 -0.519423 0.236847 0
M  V30 17 H 2.53446 -1.81629 0.75625 0
M  V30 18 H 0.220005 2.33541 -1.87991 0
M  V30 19 H -1.95521 1.86973 -0.917557 0
M  V30 20 H -0.329275 -1.41764 1.21663 0
M  V30 21 H -3.80398 -0.836793 -1.12838 0
M  V30 22 H -4.53559 -1.63259 0.242377 0
M  V30 END ATOM
M  V30 BEGIN BOND
M  V30 1 1 1 2
M  V30 2 1 2 3
M  V30 3 1 3 4
M  V30 4 2 4 5
M  V30 5 1 5 6
M  V30 6 1 5 7
M  V30 7 2 7 8
M  V30 8 1 8 9
M  V30 9 2 9 10
M  V30 10 1 9 11
M  V30 11 1 11 12
M  V30 12 2 11 13
M  V30 13 2 11 14
M  V30 14 1 6 2
M  V30 15 1 10 4
M  V30 16 1 1 15
M  V30 17 1 1 16
M  V30 18 1 3 17
M  V30 19 1 7 18
M  V30 20 1 8 19
M  V30 21 1 10 20
M  V30 22 1 12 21
M  V30 23 1 12 22
M  V30 END BOND
M  V30 END CTAB
M  END
