
     RDKit          3D

  0  0  0  0  0  0  0  0  0  0999 V3000
M  V30 BEGIN CTAB
M  V30 COUNTS 35 36 0 0 0
M  V30 BEGIN ATOM
M  V30 1 N -3.22687 1.74837 -0.404602 0
M  V30 2 C -2.81339 1.13857 0.791815 0
M  V30 3 C -1.36332 0.637286 0.728332 0
M  V30 4 N -1.22372 -0.277884 -0.309748 0
M  V30 5 C -1.91825 -1.52353 -0.0629274 0
M  V30 6 C -1.1128 -2.34133 0.902202 0
M  V30 7 N 0.212885 -2.54342 0.381781 0
M  V30 8 C 0.429795 -1.91119 -0.889792 0
M  V30 9 C 0.0310164 -0.471128 -0.958272 0 CFG=2
M  V30 10 C 1.10384 0.467083 -0.695912 0
M  V30 11 C 1.0478 1.8005 -1.01476 0
M  V30 12 C 2.04696 2.68364 -0.735589 0
M  V30 13 N 3.1634 2.25365 -0.113261 0
M  V30 14 C 3.28198 0.944828 0.229503 0
M  V30 15 C 2.26578 0.0519069 -0.0561946 0
M  V30 16 N 4.46019 0.517973 0.892898 0
M  V30 17 H -3.4676 2.71528 -0.32102 0
M  V30 18 H -2.60021 1.55336 -1.17548 0
M  V30 19 H -2.88216 1.92715 1.59655 0
M  V30 20 H -3.53211 0.371558 1.08758 0
M  V30 21 H -1.23074 0.151128 1.752 0
M  V30 22 H -0.756739 1.53148 0.775648 0
M  V30 23 H -2.06157 -2.06582 -1.02596 0
M  V30 24 H -2.89074 -1.34196 0.371203 0
M  V30 25 H -1.66364 -3.3057 1.08533 0
M  V30 26 H -1.01732 -1.84882 1.87107 0
M  V30 27 H 0.297335 -3.59194 0.200014 0
M  V30 28 H 1.48456 -2.09055 -1.18802 0
M  V30 29 H -0.171029 -2.486 -1.6322 0
M  V30 30 H -0.22319 -0.318332 -2.07116 0
M  V30 31 H 0.157168 2.15596 -1.51633 0
M  V30 32 H 1.97668 3.72326 -0.996356 0
M  V30 33 H 2.42991 -0.97695 0.244849 0
M  V30 34 H 4.80632 1.03834 1.72178 0
M  V30 35 H 4.95977 -0.316749 0.535034 0
M  V30 END ATOM
M  V30 BEGIN BOND
M  V30 1 1 1 2
M  V30 2 1 2 3
M  V30 3 1 3 4
M  V30 4 1 4 5
M  V30 5 1 5 6
M  V30 6 1 6 7
M  V30 7 1 7 8
M  V30 8 1 8 9
M  V30 9 1 9 10
M  V30 10 2 10 11
M  V30 11 1 11 12
M  V30 12 2 12 13
M  V30 13 1 13 14
M  V30 14 2 14 15
M  V30 15 1 14 16
M  V30 16 1 9 4
M  V30 17 1 15 10
M  V30 18 1 1 17
M  V30 19 1 1 18
M  V30 20 1 2 19
M  V30 21 1 2 20
M  V30 22 1 3 21
M  V30 23 1 3 22
M  V30 24 1 5 23
M  V30 25 1 5 24
M  V30 26 1 6 25
M  V30 27 1 6 26
M  V30 28 1 7 27
M  V30 29 1 8 28
M  V30 30 1 8 29
M  V30 31 1 9 30 CFG=3
M  V30 32 1 11 31
M  V30 33 1 12 32
M  V30 34 1 15 33
M  V30 35 1 16 34
M  V30 36 1 16 35
M  V30 END BOND
M  V30 END CTAB
M  END
