
     RDKit          3D

  0  0  0  0  0  0  0  0  0  0999 V3000
M  V30 BEGIN CTAB
M  V30 COUNTS 34 35 0 0 0
M  V30 BEGIN ATOM
M  V30 1 C -4.77024 0.663532 1.57383 0
M  V30 2 O -4.1117 -0.354296 0.873898 0
M  V30 3 C -2.86532 -0.121155 0.303043 0
M  V30 4 C -2.27192 1.10387 0.420363 0
M  V30 5 C -1.04518 1.31853 -0.146841 0
M  V30 6 C -0.346198 0.356984 -0.848815 0
M  V30 7 C 0.920797 0.641992 -1.45176 0
M  V30 8 C 2.17809 0.468881 -0.779982 0
M  V30 9 C 2.42552 -0.0440915 0.435478 0
M  V30 10 N 1.37127 -0.513223 1.24065 0
M  V30 11 N 3.72089 -0.11857 0.898141 0
M  V30 12 C 4.7734 0.298611 0.194106 0
M  V30 13 N 6.10978 0.230993 0.6501 0
M  V30 14 N 4.53989 0.812546 -1.02074 0
M  V30 15 C 3.30772 0.910816 -1.52265 0
M  V30 16 C -0.976814 -0.869639 -0.947202 0
M  V30 17 C -2.21014 -1.1131 -0.386458 0
M  V30 18 C -2.86805 -2.4357 -0.499645 0
M  V30 19 F -3.08739 -2.98978 0.744896 0
M  V30 20 F -2.16701 -3.27 -1.33292 0
M  V30 21 F -4.14498 -2.306 -1.06498 0
M  V30 22 H -4.81675 1.62776 1.03465 0
M  V30 23 H -5.82565 0.331023 1.71759 0
M  V30 24 H -4.36179 0.806695 2.60867 0
M  V30 25 H -2.77899 1.88016 0.957062 0
M  V30 26 H -0.595817 2.29501 -0.0403741 0
M  V30 27 H 1.03294 0.0582802 -2.44059 0
M  V30 28 H 0.944587 1.71314 -1.88245 0
M  V30 29 H 0.891527 0.130546 1.88445 0
M  V30 30 H 1.08741 -1.5047 1.20283 0
M  V30 31 H 6.63266 1.00386 1.09664 0
M  V30 32 H 6.60194 -0.681642 0.520122 0
M  V30 33 H 3.1952 1.33626 -2.51009 0
M  V30 34 H -0.489681 -1.6676 -1.48101 0
M  V30 END ATOM
M  V30 BEGIN BOND
M  V30 1 1 1 2
M  V30 2 1 2 3
M  V30 3 2 3 4
M  V30 4 1 4 5
M  V30 5 2 5 6
M  V30 6 1 6 7
M  V30 7 1 7 8
M  V30 8 2 8 9
M  V30 9 1 9 10
M  V30 10 1 9 11
M  V30 11 2 11 12
M  V30 12 1 12 13
M  V30 13 1 12 14
M  V30 14 2 14 15
M  V30 15 1 6 16
M  V30 16 2 16 17
M  V30 17 1 17 18
M  V30 18 1 18 19
M  V30 19 1 18 20
M  V30 20 1 18 21
M  V30 21 1 17 3
M  V30 22 1 15 8
M  V30 23 1 1 22
M  V30 24 1 1 23
M  V30 25 1 1 24
M  V30 26 1 4 25
M  V30 27 1 5 26
M  V30 28 1 7 27
M  V30 29 1 7 28
M  V30 30 1 10 29
M  V30 31 1 10 30
M  V30 32 1 13 31
M  V30 33 1 13 32
M  V30 34 1 15 33
M  V30 35 1 16 34
M  V30 END BOND
M  V30 END CTAB
M  END
