
     RDKit          3D

  0  0  0  0  0  0  0  0  0  0999 V3000
M  V30 BEGIN CTAB
M  V30 COUNTS 50 51 0 0 0
M  V30 BEGIN ATOM
M  V30 1 C 5.71315 1.58913 -1.20155 0
M  V30 2 C 5.43435 1.66301 0.273048 0
M  V30 3 C 3.98031 1.56654 0.602916 0
M  V30 4 C 3.45511 0.258143 0.100819 0
M  V30 5 C 1.94191 0.122524 0.427087 0
M  V30 6 C 1.55202 -1.21505 -0.124313 0
M  V30 7 C 0.165084 -1.66198 0.046829 0
M  V30 8 C -0.954125 -0.897366 -0.527233 0
M  V30 9 C -1.19356 0.469516 -0.0838506 0
M  V30 10 C -1.42057 1.47553 -0.997386 0
M  V30 11 C -1.6812 2.77444 -0.645263 0
M  V30 12 C -1.72521 3.12411 0.682956 0
M  V30 13 N -1.99776 4.48531 1.07945 0
M  V30 14 C -1.50376 2.14773 1.62299 0
M  V30 15 C -1.24041 0.832721 1.24228 0
M  V30 16 C -2.19531 -1.73681 -0.444878 0
M  V30 17 C -2.52607 -2.34612 0.726025 0
M  V30 18 C -3.66891 -3.13868 0.856925 0
M  V30 19 C -4.49636 -3.30859 -0.252446 0
M  V30 20 N -5.65687 -4.1175 -0.107362 0
M  V30 21 C -4.16231 -2.688 -1.4501 0
M  V30 22 C -3.02476 -1.91695 -1.52743 0
M  V30 23 H 6.63688 2.11518 -1.49237 0
M  V30 24 H 5.8448 0.524602 -1.49862 0
M  V30 25 H 4.89319 2.05299 -1.80984 0
M  V30 26 H 5.90256 2.61112 0.645245 0
M  V30 27 H 6.02462 0.845794 0.757478 0
M  V30 28 H 3.4608 2.38731 0.0429862 0
M  V30 29 H 3.82218 1.73179 1.66808 0
M  V30 30 H 3.52534 0.194811 -0.985705 0
M  V30 31 H 3.92918 -0.579623 0.650736 0
M  V30 32 H 1.7895 0.209628 1.50368 0
M  V30 33 H 1.49113 0.922937 -0.18243 0
M  V30 34 H 1.91096 -1.30798 -1.18584 0
M  V30 35 H 2.20524 -1.97736 0.418873 0
M  V30 36 H 0.020486 -1.91286 1.13561 0
M  V30 37 H 0.101725 -2.69631 -0.435576 0
M  V30 38 H -0.745098 -0.899959 -1.66827 0
M  V30 39 H -1.39454 1.24152 -2.04829 0
M  V30 40 H -1.85401 3.53446 -1.3976 0
M  V30 41 H -1.22125 5.00751 1.52633 0
M  V30 42 H -2.91432 4.95228 0.940101 0
M  V30 43 H -1.54041 2.43205 2.66225 0
M  V30 44 H -1.07264 0.0997138 2.01927 0
M  V30 45 H -1.90784 -2.22961 1.59702 0
M  V30 46 H -3.8907 -3.60307 1.80812 0
M  V30 47 H -6.19801 -4.18952 0.769606 0
M  V30 48 H -5.99305 -4.67604 -0.925179 0
M  V30 49 H -4.8058 -2.8189 -2.31632 0
M  V30 50 H -2.81568 -1.45412 -2.49884 0
M  V30 END ATOM
M  V30 BEGIN BOND
M  V30 1 1 1 2
M  V30 2 1 2 3
M  V30 3 1 3 4
M  V30 4 1 4 5
M  V30 5 1 5 6
M  V30 6 1 6 7
M  V30 7 1 7 8
M  V30 8 1 8 9
M  V30 9 2 9 10
M  V30 10 1 10 11
M  V30 11 2 11 12
M  V30 12 1 12 13
M  V30 13 1 12 14
M  V30 14 2 14 15
M  V30 15 1 8 16
M  V30 16 2 16 17
M  V30 17 1 17 18
M  V30 18 2 18 19
M  V30 19 1 19 20
M  V30 20 1 19 21
M  V30 21 2 21 22
M  V30 22 1 15 9
M  V30 23 1 22 16
M  V30 24 1 1 23
M  V30 25 1 1 24
M  V30 26 1 1 25
M  V30 27 1 2 26
M  V30 28 1 2 27
M  V30 29 1 3 28
M  V30 30 1 3 29
M  V30 31 1 4 30
M  V30 32 1 4 31
M  V30 33 1 5 32
M  V30 34 1 5 33
M  V30 35 1 6 34
M  V30 36 1 6 35
M  V30 37 1 7 36
M  V30 38 1 7 37
M  V30 39 1 8 38
M  V30 40 1 10 39
M  V30 41 1 11 40
M  V30 42 1 13 41
M  V30 43 1 13 42
M  V30 44 1 14 43
M  V30 45 1 15 44
M  V30 46 1 17 45
M  V30 47 1 18 46
M  V30 48 1 20 47
M  V30 49 1 20 48
M  V30 50 1 21 49
M  V30 51 1 22 50
M  V30 END BOND
M  V30 END CTAB
M  END
