
     RDKit          3D

  0  0  0  0  0  0  0  0  0  0999 V3000
M  V30 BEGIN CTAB
M  V30 COUNTS 30 31 0 0 0
M  V30 BEGIN ATOM
M  V30 1 N 5.08079 -0.575543 0.27047 0
M  V30 2 C 3.66261 -0.573129 0.258021 0
M  V30 3 N 2.96351 -1.62966 0.717231 0
M  V30 4 C 1.62961 -1.59041 0.689246 0
M  V30 5 C 0.918186 -0.51069 0.208505 0
M  V30 6 C 1.61944 0.597992 -0.273631 0
M  V30 7 C 2.98185 0.531134 -0.23327 0
M  V30 8 N 3.75873 1.62773 -0.709463 0
M  V30 9 O -0.445593 -0.56152 0.219911 0
M  V30 10 C -1.28528 0.481572 -0.24574 0
M  V30 11 C -2.73837 0.116195 -0.0966693 0
M  V30 12 C -3.67185 1.17132 -0.568148 0
M  V30 13 C -3.11464 -1.26249 -0.573336 0
M  V30 14 O -4.0144 -1.32802 0.506372 0
M  V30 15 C -3.10362 -0.520116 1.20949 0
M  V30 16 H 5.59349 -0.755844 -0.616302 0
M  V30 17 H 5.63563 -0.405514 1.12466 0
M  V30 18 H 1.07096 -2.46098 1.06777 0
M  V30 19 H 1.09378 1.44902 -0.652261 0
M  V30 20 H 3.76966 1.88319 -1.71449 0
M  V30 21 H 4.35021 2.22166 -0.0699182 0
M  V30 22 H -1.02885 0.679791 -1.30578 0
M  V30 23 H -1.09595 1.37075 0.378545 0
M  V30 24 H -3.27426 2.18227 -0.326638 0
M  V30 25 H -3.81925 1.13136 -1.66215 0
M  V30 26 H -4.67589 1.10688 -0.110342 0
M  V30 27 H -3.62779 -1.3346 -1.53037 0
M  V30 28 H -2.32422 -2.02419 -0.405017 0
M  V30 29 H -2.29992 -1.15504 1.60224 0
M  V30 30 H -3.60856 0.136892 1.94533 0
M  V30 END ATOM
M  V30 BEGIN BOND
M  V30 1 1 1 2
M  V30 2 2 2 3
M  V30 3 1 3 4
M  V30 4 2 4 5
M  V30 5 1 5 6
M  V30 6 2 6 7
M  V30 7 1 7 8
M  V30 8 1 5 9
M  V30 9 1 9 10
M  V30 10 1 10 11
M  V30 11 1 11 12
M  V30 12 1 11 13
M  V30 13 1 13 14
M  V30 14 1 14 15
M  V30 15 1 7 2
M  V30 16 1 15 11
M  V30 17 1 1 16
M  V30 18 1 1 17
M  V30 19 1 4 18
M  V30 20 1 6 19
M  V30 21 1 8 20
M  V30 22 1 8 21
M  V30 23 1 10 22
M  V30 24 1 10 23
M  V30 25 1 12 24
M  V30 26 1 12 25
M  V30 27 1 12 26
M  V30 28 1 13 27
M  V30 29 1 13 28
M  V30 30 1 15 29
M  V30 31 1 15 30
M  V30 END BOND
M  V30 END CTAB
M  END
