
     RDKit          3D

  0  0  0  0  0  0  0  0  0  0999 V3000
M  V30 BEGIN CTAB
M  V30 COUNTS 26 27 0 0 0
M  V30 BEGIN ATOM
M  V30 1 N 3.9242 0.240354 -0.531245 0
M  V30 2 C 2.52603 0.362783 -0.31421 0
M  V30 3 C 2.00027 1.46607 0.367341 0
M  V30 4 C 0.633409 1.56894 0.57002 0
M  V30 5 C -0.241937 0.604714 0.115292 0
M  V30 6 C 0.25656 -0.489321 -0.558134 0
M  V30 7 C 1.61723 -0.577234 -0.751667 0
M  V30 8 N 2.15289 -1.70393 -1.44759 0
M  V30 9 C -1.70454 0.692935 0.319776 0
M  V30 10 C -2.55435 0.361221 -0.874904 0
M  V30 11 C -3.35934 -0.570718 0.00990286 0
M  V30 12 C -2.23159 -0.55845 1.01702 0
M  V30 13 H 4.5022 -0.172241 0.227266 0
M  V30 14 H 4.39056 0.542775 -1.40802 0
M  V30 15 H 2.66256 2.23183 0.731953 0
M  V30 16 H 0.203613 2.42251 1.09972 0
M  V30 17 H -0.427646 -1.26972 -0.928738 0
M  V30 18 H 2.90598 -1.61307 -2.13985 0
M  V30 19 H 1.77929 -2.65962 -1.25973 0
M  V30 20 H -1.97507 1.60881 0.867714 0
M  V30 21 H -1.97303 -0.166863 -1.67508 0
M  V30 22 H -3.14954 1.21429 -1.19871 0
M  V30 23 H -3.48853 -1.54548 -0.520374 0
M  V30 24 H -4.31252 -0.155513 0.377586 0
M  V30 25 H -1.59069 -1.45139 0.863728 0
M  V30 26 H -2.546 -0.383697 2.06213 0
M  V30 END ATOM
M  V30 BEGIN BOND
M  V30 1 1 1 2
M  V30 2 2 2 3
M  V30 3 1 3 4
M  V30 4 2 4 5
M  V30 5 1 5 6
M  V30 6 2 6 7
M  V30 7 1 7 8
M  V30 8 1 5 9
M  V30 9 1 9 10
M  V30 10 1 10 11
M  V30 11 1 11 12
M  V30 12 1 7 2
M  V30 13 1 12 9
M  V30 14 1 1 13
M  V30 15 1 1 14
M  V30 16 1 3 15
M  V30 17 1 4 16
M  V30 18 1 6 17
M  V30 19 1 8 18
M  V30 20 1 8 19
M  V30 21 1 9 20
M  V30 22 1 10 21
M  V30 23 1 10 22
M  V30 24 1 11 23
M  V30 25 1 11 24
M  V30 26 1 12 25
M  V30 27 1 12 26
M  V30 END BOND
M  V30 END CTAB
M  END
