
     RDKit          3D

  0  0  0  0  0  0  0  0  0  0999 V3000
M  V30 BEGIN CTAB
M  V30 COUNTS 25 24 0 0 0
M  V30 BEGIN ATOM
M  V30 1 C -1.78208 1.28001 -1.05723 0
M  V30 2 C -0.76304 0.521741 -0.249923 0
M  V30 3 C -0.732896 0.998997 1.14548 0
M  V30 4 C -0.729361 1.3901 2.29466 0
M  V30 5 N 0.519892 0.692445 -0.874478 0
M  V30 6 C 1.72324 0.1356 -0.415697 0
M  V30 7 N 2.01825 -1.07097 -0.724166 0
M  V30 8 N 3.21417 -1.67926 -0.289807 0
M  V30 9 N 2.59635 0.904747 0.378075 0
M  V30 10 C -1.03654 -0.960544 -0.210569 0
M  V30 11 C -2.38308 -1.2813 0.399277 0
M  V30 12 H -1.33274 2.18286 -1.55991 0
M  V30 13 H -2.55829 1.69469 -0.376661 0
M  V30 14 H -2.21842 0.671457 -1.87589 0
M  V30 15 H -0.724891 1.71936 3.30205 0
M  V30 16 H 0.583954 1.27326 -1.73946 0
M  V30 17 H 3.34105 -2.69702 -0.471585 0
M  V30 18 H 3.96657 -1.15674 0.199852 0
M  V30 19 H 2.22135 1.41526 1.19593 0
M  V30 20 H 3.60767 0.973772 0.16492 0
M  V30 21 H -1.06497 -1.322 -1.25668 0
M  V30 22 H -0.277735 -1.44812 0.41479 0
M  V30 23 H -2.70936 -2.25279 -0.0271251 0
M  V30 24 H -2.3156 -1.44142 1.49812 0
M  V30 25 H -3.16348 -0.544125 0.136029 0
M  V30 END ATOM
M  V30 BEGIN BOND
M  V30 1 1 1 2
M  V30 2 1 2 3
M  V30 3 3 3 4
M  V30 4 1 2 5
M  V30 5 1 5 6
M  V30 6 2 6 7 CFG=2
M  V30 7 1 7 8
M  V30 8 1 6 9
M  V30 9 1 2 10
M  V30 10 1 10 11
M  V30 11 1 1 12
M  V30 12 1 1 13
M  V30 13 1 1 14
M  V30 14 1 4 15
M  V30 15 1 5 16
M  V30 16 1 8 17
M  V30 17 1 8 18
M  V30 18 1 9 19
M  V30 19 1 9 20
M  V30 20 1 10 21
M  V30 21 1 10 22
M  V30 22 1 11 23
M  V30 23 1 11 24
M  V30 24 1 11 25
M  V30 END BOND
M  V30 END CTAB
M  END
