
     RDKit          3D

  0  0  0  0  0  0  0  0  0  0999 V3000
M  V30 BEGIN CTAB
M  V30 COUNTS 48 47 0 0 0
M  V30 BEGIN ATOM
M  V30 1 C 5.92468 -0.182761 1.13616 0
M  V30 2 C 4.65365 -0.306869 0.324066 0
M  V30 3 N 4.99653 -1.05754 -0.880397 0
M  V30 4 C 4.22769 1.09155 -0.0714329 0
M  V30 5 N 3.04694 1.1289 -0.839802 0
M  V30 6 C 1.83851 0.754582 -0.158298 0
M  V30 7 C 1.64832 1.77081 0.935347 0
M  V30 8 C 0.774302 0.698004 -1.17871 0
M  V30 9 N -0.528671 0.357574 -0.881162 0
M  V30 10 C -0.935742 -0.920164 -0.516128 0
M  V30 11 C -0.38601 -1.45332 0.774076 0
M  V30 12 C -2.418 -1.18408 -0.625565 0
M  V30 13 N -3.23 -0.329201 0.17821 0
M  V30 14 C -4.65232 -0.62067 0.0307801 0
M  V30 15 C -5.126 -0.395568 -1.38862 0
M  V30 16 C -5.47712 0.301572 0.904581 0
M  V30 17 N -5.10731 0.119688 2.29176 0
M  V30 18 H 6.45816 0.715931 0.763657 0
M  V30 19 H 6.55094 -1.08595 0.954175 0
M  V30 20 H 5.7124 -0.109854 2.22441 0
M  V30 21 H 3.88806 -0.854632 0.893443 0
M  V30 22 H 5.82792 -1.68371 -0.709804 0
M  V30 23 H 5.27866 -0.344393 -1.60448 0
M  V30 24 H 4.14903 1.70593 0.848764 0
M  V30 25 H 5.05449 1.52681 -0.667828 0
M  V30 26 H 2.94995 1.88274 -1.52882 0
M  V30 27 H 2.03387 -0.219721 0.313183 0
M  V30 28 H 2.26558 1.44053 1.82259 0
M  V30 29 H 0.632919 1.87536 1.29492 0
M  V30 30 H 2.07326 2.76168 0.653962 0
M  V30 31 H 0.738816 1.67852 -1.76362 0
M  V30 32 H 1.12978 -0.00722821 -2.00298 0
M  V30 33 H -1.25806 1.09217 -0.949938 0
M  V30 34 H -0.49364 -1.62853 -1.30409 0
M  V30 35 H 0.573083 -2.0258 0.649109 0
M  V30 36 H -1.15695 -2.10432 1.26163 0
M  V30 37 H -0.23249 -0.60885 1.46795 0
M  V30 38 H -2.78722 -1.12881 -1.67208 0
M  V30 39 H -2.59176 -2.23294 -0.294993 0
M  V30 40 H -3.03196 -0.353689 1.19018 0
M  V30 41 H -4.90814 -1.65729 0.304078 0
M  V30 42 H -5.32412 -1.36816 -1.9063 0
M  V30 43 H -4.39218 0.227176 -1.95454 0
M  V30 44 H -6.08415 0.161953 -1.43138 0
M  V30 45 H -5.33996 1.36292 0.637048 0
M  V30 46 H -6.54949 0.0509058 0.763156 0
M  V30 47 H -4.43435 0.876602 2.53914 0
M  V30 48 H -5.98191 0.282147 2.86582 0
M  V30 END ATOM
M  V30 BEGIN BOND
M  V30 1 1 1 2
M  V30 2 1 2 3
M  V30 3 1 2 4
M  V30 4 1 4 5
M  V30 5 1 5 6
M  V30 6 1 6 7
M  V30 7 1 6 8
M  V30 8 1 8 9
M  V30 9 1 9 10
M  V30 10 1 10 11
M  V30 11 1 10 12
M  V30 12 1 12 13
M  V30 13 1 13 14
M  V30 14 1 14 15
M  V30 15 1 14 16
M  V30 16 1 16 17
M  V30 17 1 1 18
M  V30 18 1 1 19
M  V30 19 1 1 20
M  V30 20 1 2 21
M  V30 21 1 3 22
M  V30 22 1 3 23
M  V30 23 1 4 24
M  V30 24 1 4 25
M  V30 25 1 5 26
M  V30 26 1 6 27
M  V30 27 1 7 28
M  V30 28 1 7 29
M  V30 29 1 7 30
M  V30 30 1 8 31
M  V30 31 1 8 32
M  V30 32 1 9 33
M  V30 33 1 10 34
M  V30 34 1 11 35
M  V30 35 1 11 36
M  V30 36 1 11 37
M  V30 37 1 12 38
M  V30 38 1 12 39
M  V30 39 1 13 40
M  V30 40 1 14 41
M  V30 41 1 15 42
M  V30 42 1 15 43
M  V30 43 1 15 44
M  V30 44 1 16 45
M  V30 45 1 16 46
M  V30 46 1 17 47
M  V30 47 1 17 48
M  V30 END BOND
M  V30 END CTAB
M  END
