
     RDKit          3D

  0  0  0  0  0  0  0  0  0  0999 V3000
M  V30 BEGIN CTAB
M  V30 COUNTS 40 41 0 0 0
M  V30 BEGIN ATOM
M  V30 1 C 0.61982 -0.645035 1.62836 0
M  V30 2 N 0.0846211 -0.448197 0.317977 0
M  V30 3 C -1.29209 -0.81734 0.187898 0
M  V30 4 C -1.79393 -1.02882 -1.18779 0
M  V30 5 C -2.99032 -0.231862 -1.59299 0
M  V30 6 C -4.03107 -0.0653844 -0.544087 0
M  V30 7 C -3.60924 -0.543146 0.821321 0
M  V30 8 C -2.21756 0.00968907 1.06277 0
M  V30 9 C -2.11873 1.472 0.892265 0
M  V30 10 C 0.578122 0.656952 -0.389828 0
M  V30 11 C 2.05733 0.477649 -0.585017 0
M  V30 12 N 2.58784 -0.749803 -0.723273 0
M  V30 13 C 3.90546 -0.95813 -0.894841 0
M  V30 14 N 4.39863 -2.27951 -1.03417 0
M  V30 15 N 4.70788 0.121152 -0.926427 0
M  V30 16 C 4.21915 1.35547 -0.792864 0
M  V30 17 N 2.89738 1.52063 -0.623444 0
M  V30 18 N 5.11496 2.46566 -0.832209 0
M  V30 19 H 0.697799 0.322417 2.13937 0
M  V30 20 H 1.54814 -1.22746 1.57489 0
M  V30 21 H -0.130594 -1.23693 2.20773 0
M  V30 22 H -1.34805 -1.83564 0.698175 0
M  V30 23 H -2.01181 -2.12126 -1.41272 0
M  V30 24 H -0.991977 -0.800391 -1.92065 0
M  V30 25 H -3.48229 -0.785476 -2.45112 0
M  V30 26 H -2.7091 0.742699 -2.05756 0
M  V30 27 H -4.26511 1.03477 -0.431861 0
M  V30 28 H -5.00974 -0.533805 -0.780729 0
M  V30 29 H -3.49949 -1.65431 0.817443 0
M  V30 30 H -4.32125 -0.233788 1.58105 0
M  V30 31 H -1.96945 -0.233564 2.12079 0
M  V30 32 H -1.36579 1.87364 1.626 0
M  V30 33 H -1.89838 1.85022 -0.102602 0
M  V30 34 H -3.08368 1.92728 1.20097 0
M  V30 35 H 0.475502 1.64739 0.104301 0
M  V30 36 H 0.165118 0.756949 -1.40725 0
M  V30 37 H 4.46215 -2.72268 -1.97944 0
M  V30 38 H 4.71497 -2.86402 -0.230597 0
M  V30 39 H 4.79192 3.42969 -0.616119 0
M  V30 40 H 6.11286 2.35229 -1.07561 0
M  V30 END ATOM
M  V30 BEGIN BOND
M  V30 1 1 1 2
M  V30 2 1 2 3
M  V30 3 1 3 4
M  V30 4 1 4 5
M  V30 5 1 5 6
M  V30 6 1 6 7
M  V30 7 1 7 8
M  V30 8 1 8 9
M  V30 9 1 2 10
M  V30 10 1 10 11
M  V30 11 2 11 12
M  V30 12 1 12 13
M  V30 13 1 13 14
M  V30 14 2 13 15
M  V30 15 1 15 16
M  V30 16 2 16 17
M  V30 17 1 16 18
M  V30 18 1 8 3
M  V30 19 1 17 11
M  V30 20 1 1 19
M  V30 21 1 1 20
M  V30 22 1 1 21
M  V30 23 1 3 22
M  V30 24 1 4 23
M  V30 25 1 4 24
M  V30 26 1 5 25
M  V30 27 1 5 26
M  V30 28 1 6 27
M  V30 29 1 6 28
M  V30 30 1 7 29
M  V30 31 1 7 30
M  V30 32 1 8 31
M  V30 33 1 9 32
M  V30 34 1 9 33
M  V30 35 1 9 34
M  V30 36 1 10 35
M  V30 37 1 10 36
M  V30 38 1 14 37
M  V30 39 1 14 38
M  V30 40 1 18 39
M  V30 41 1 18 40
M  V30 END BOND
M  V30 END CTAB
M  END
