
     RDKit          3D

  0  0  0  0  0  0  0  0  0  0999 V3000
M  V30 BEGIN CTAB
M  V30 COUNTS 53 56 0 0 0
M  V30 BEGIN ATOM
M  V30 1 N -3.84075 0.69531 3.71719 0
M  V30 2 C -3.54029 0.044371 2.47276 0
M  V30 3 N -2.94329 0.706758 1.46733 0
M  V30 4 C -2.65944 0.121092 0.313646 0
M  V30 5 C -2.98729 -1.20747 0.14201 0
M  V30 6 N -2.59592 -1.53045 -1.08519 0
M  V30 7 C -2.03676 -0.428686 -1.66581 0
M  V30 8 N -2.06722 0.607431 -0.811864 0
M  V30 9 C -1.58728 1.93333 -1.04248 0 CFG=2
M  V30 10 O -2.09999 2.4941 -2.21092 0
M  V30 11 C -1.09989 3.17444 -2.85255 0 CFG=2
M  V30 12 C -0.619744 2.31103 -4.00697 0
M  V30 13 O 0.397275 2.99686 -4.66552 0
M  V30 14 C 0.0122635 3.39182 -1.84536 0 CFG=1
M  V30 15 O -0.346016 4.47364 -1.06992 0
M  V30 16 C -0.0888143 2.07652 -1.08608 0 CFG=1
M  V30 17 O 0.425772 2.12319 0.16316 0
M  V30 18 C 1.43136 1.3014 0.526028 0
M  V30 19 C 1.20409 -0.170053 0.454628 0
M  V30 20 C 2.49616 -0.847509 0.917747 0
M  V30 21 C 2.35897 -2.35162 0.878502 0
M  V30 22 N 3.60383 -2.94582 1.32433 0
M  V30 23 C 3.95039 -3.27694 2.59305 0
M  V30 24 C 5.23193 -3.82172 2.5895 0
M  V30 25 N 5.63785 -3.80931 1.3106 0
M  V30 26 C 4.65376 -3.27828 0.534825 0
M  V30 27 C -3.60734 -1.92913 1.16102 0
M  V30 28 N -3.94472 -3.29707 0.983823 0
M  V30 29 N -3.85454 -1.24991 2.29264 0
M  V30 30 H -3.12965 0.712211 4.46255 0
M  V30 31 H -4.76329 1.14592 3.86996 0
M  V30 32 H -1.63168 -0.418164 -2.67759 0
M  V30 33 H -1.92332 2.64409 -0.227232 0
M  V30 34 H -1.42644 4.14647 -3.27974 0
M  V30 35 H -0.314127 1.30802 -3.69094 0
M  V30 36 H -1.4523 2.20481 -4.72895 0
M  V30 37 H 1.07558 2.39833 -5.04257 0
M  V30 38 H 0.942724 3.50325 -2.39616 0
M  V30 39 H -0.154342 5.28614 -1.57584 0
M  V30 40 H 0.32932 1.32076 -1.75562 0
M  V30 41 H 1.64283 1.52365 1.61838 0
M  V30 42 H 2.41139 1.58764 0.0377974 0
M  V30 43 H 0.42481 -0.52302 1.16097 0
M  V30 44 H 0.90479 -0.52936 -0.548752 0
M  V30 45 H 3.35984 -0.541165 0.293775 0
M  V30 46 H 2.67998 -0.505935 1.94429 0
M  V30 47 H 2.16681 -2.70224 -0.145998 0
M  V30 48 H 1.57059 -2.70349 1.55132 0
M  V30 49 H 3.37345 -3.16006 3.48152 0
M  V30 50 H 5.81751 -4.18807 3.3991 0
M  V30 51 H 4.74728 -3.16367 -0.531823 0
M  V30 52 H -3.87502 -3.93715 1.80412 0
M  V30 53 H -4.2611 -3.71627 0.0841393 0
M  V30 END ATOM
M  V30 BEGIN BOND
M  V30 1 1 1 2
M  V30 2 2 2 3
M  V30 3 1 3 4
M  V30 4 2 4 5
M  V30 5 1 5 6
M  V30 6 2 6 7
M  V30 7 1 7 8
M  V30 8 1 8 9
M  V30 9 1 9 10
M  V30 10 1 10 11
M  V30 11 1 11 12
M  V30 12 1 12 13
M  V30 13 1 11 14
M  V30 14 1 14 15
M  V30 15 1 14 16
M  V30 16 1 16 17
M  V30 17 1 17 18
M  V30 18 1 18 19
M  V30 19 1 19 20
M  V30 20 1 20 21
M  V30 21 1 21 22
M  V30 22 1 22 23
M  V30 23 2 23 24
M  V30 24 1 24 25
M  V30 25 2 25 26
M  V30 26 1 5 27
M  V30 27 1 27 28
M  V30 28 2 27 29
M  V30 29 1 29 2
M  V30 30 1 8 4
M  V30 31 1 16 9
M  V30 32 1 26 22
M  V30 33 1 1 30
M  V30 34 1 1 31
M  V30 35 1 7 32
M  V30 36 1 9 33 CFG=1
M  V30 37 1 11 34 CFG=3
M  V30 38 1 12 35
M  V30 39 1 12 36
M  V30 40 1 13 37
M  V30 41 1 14 38 CFG=3
M  V30 42 1 15 39
M  V30 43 1 16 40 CFG=3
M  V30 44 1 18 41
M  V30 45 1 18 42
M  V30 46 1 19 43
M  V30 47 1 19 44
M  V30 48 1 20 45
M  V30 49 1 20 46
M  V30 50 1 21 47
M  V30 51 1 21 48
M  V30 52 1 23 49
M  V30 53 1 24 50
M  V30 54 1 26 51
M  V30 55 1 28 52
M  V30 56 1 28 53
M  V30 END BOND
M  V30 END CTAB
M  END
