
     RDKit          3D

  0  0  0  0  0  0  0  0  0  0999 V3000
M  V30 BEGIN CTAB
M  V30 COUNTS 182 187 0 0 0
M  V30 BEGIN ATOM
M  V30 1 C -1.87292 7.33106 -3.82928 0
M  V30 2 C -2.07475 7.81548 -2.40415 0
M  V30 3 C -2.30872 9.30452 -2.43611 0
M  V30 4 C -3.15315 7.0523 -1.70836 0 CFG=2
M  V30 5 N -2.86954 5.63377 -1.60504 0
M  V30 6 C -2.95393 4.91835 -0.397142 0
M  V30 7 O -3.29965 5.60945 0.627454 0
M  V30 8 C -2.67879 3.4729 -0.253545 0 CFG=2
M  V30 9 C -3.10048 2.61236 -1.37887 0
M  V30 10 S -1.74935 1.49599 -1.86099 0
M  V30 11 S -0.492261 1.11785 -0.193962 0
M  V30 12 C -0.41562 -0.65504 0.22078 0
M  V30 13 C 0.705956 -0.967429 1.13321 0 CFG=2
M  V30 14 N 1.93382 -1.21989 0.407521 0
M  V30 15 C 3.12409 -0.502998 0.609016 0
M  V30 16 O 3.07845 0.425277 1.48886 0
M  V30 17 C 4.39455 -0.714328 -0.0892736 0 CFG=2
M  V30 18 C 5.08498 -2.01014 0.363786 0
M  V30 19 C 4.27594 -3.21766 0.131345 0
M  V30 20 O 4.20654 -3.7947 -1.11928 0
M  V30 21 O 3.63761 -3.73746 1.07707 0
M  V30 22 N 5.34554 0.328542 0.294959 0
M  V30 23 C 6.33525 0.770549 -0.609697 0
M  V30 24 O 6.40745 0.242572 -1.7511 0
M  V30 25 C 7.29925 1.83586 -0.277605 0 CFG=2
M  V30 26 C 6.74346 3.21811 -0.594895 0
M  V30 27 C 6.98796 3.40513 -2.07051 0
M  V30 28 C 8.0801 2.42631 -2.39288 0
M  V30 29 N 8.43941 1.76723 -1.16053 0
M  V30 30 C 9.7147 1.19532 -0.842502 0
M  V30 31 O 9.84096 0.717817 0.340012 0
M  V30 32 C 10.879 1.1038 -1.71752 0 CFG=1
M  V30 33 N 12.1126 0.998825 -0.90816 0
M  V30 34 C 13.0422 2.04944 -0.886898 0
M  V30 35 O 12.8313 3.09904 -1.57265 0
M  V30 36 C 14.2643 1.96903 -0.0821922 0 CFG=1
M  V30 37 N 14.9686 3.24288 -0.149247 0
M  V30 38 C 13.9413 1.73005 1.37092 0
M  V30 39 C 15.2274 1.66125 2.1717 0
M  V30 40 C 14.9183 1.42336 3.60047 0
M  V30 41 O 15.0618 2.44179 4.56176 0
M  V30 42 O 14.518 0.31789 4.0357 0
M  V30 43 C 10.8898 -0.104907 -2.6082 0
M  V30 44 C 11.9935 -0.0767908 -3.62774 0
M  V30 45 O 10.8871 -1.30408 -1.89396 0
M  V30 46 C 0.375974 -2.04306 2.07874 0
M  V30 47 O 0.561774 -1.69766 3.32694 0
M  V30 48 N -0.0879397 -3.33754 1.8601 0
M  V30 49 C -1.31964 -3.79676 1.26204 0 CFG=1
M  V30 50 C -1.27807 -5.29774 1.06297 0
M  V30 51 C -0.246243 -5.80219 0.153611 0
M  V30 52 C 0.977803 -6.20218 0.605699 0
M  V30 53 C 1.96257 -6.69312 -0.242484 0
M  V30 54 C 1.72061 -6.7914 -1.58933 0
M  V30 55 C 0.487452 -6.38745 -2.04445 0
M  V30 56 C -0.493639 -5.90125 -1.22568 0
M  V30 57 C -2.53498 -3.42825 2.03459 0
M  V30 58 O -2.40562 -3.61249 3.30606 0
M  V30 59 N -3.754 -2.92372 1.55991 0
M  V30 60 C -4.5973 -3.64688 0.607063 0 CFG=1
M  V30 61 C -5.65526 -4.44308 1.33876 0
M  V30 62 C -6.42499 -5.31591 0.441261 0
M  V30 63 C -7.55638 -5.11172 -0.273207 0
M  V30 64 N -7.80402 -6.24966 -0.976551 0
M  V30 65 C -6.85841 -7.17097 -0.727478 0
M  V30 66 C -5.97507 -6.62254 0.158032 0
M  V30 67 C -4.88913 -7.36542 0.60926 0
M  V30 68 C -4.66685 -8.64787 0.192107 0
M  V30 69 C -5.58267 -9.18133 -0.710537 0
M  V30 70 C -6.64542 -8.47005 -1.15966 0
M  V30 71 C -5.25215 -2.67727 -0.3407 0
M  V30 72 O -5.42306 -3.22453 -1.50807 0
M  V30 73 N -5.68197 -1.38662 -0.215511 0
M  V30 74 C -6.71773 -0.656449 0.436999 0 CFG=1
M  V30 75 C -8.09346 -1.31713 0.481192 0
M  V30 76 C -9.06517 -0.398346 1.15938 0
M  V30 77 C -10.4618 -0.827232 1.29876 0
M  V30 78 C -10.7825 -2.04417 2.07421 0
M  V30 79 N -10.2393 -3.27517 1.5994 0
M  V30 80 C -6.44178 -0.195536 1.80393 0
M  V30 81 O -6.53726 -1.02984 2.78313 0
M  V30 82 N -6.07011 1.10598 2.19273 0
M  V30 83 C -5.46057 2.07829 1.30763 0 CFG=1
M  V30 84 C -6.03827 3.42639 1.67988 0
M  V30 85 C -7.50986 3.40023 1.5256 0
M  V30 86 C -8.11466 3.63704 0.299504 0
M  V30 87 C -9.48043 3.64908 0.1264 0
M  V30 88 C -10.3145 3.42464 1.18354 0
M  V30 89 O -11.7101 3.431 1.04663 0
M  V30 90 C -9.75021 3.18647 2.41638 0
M  V30 91 C -8.37378 3.17191 2.5982 0
M  V30 92 C -3.96565 2.06273 1.47732 0
M  V30 93 O -3.52726 1.0152 2.09489 0
M  V30 94 N -3.02778 2.98518 1.07583 0
M  V30 95 C -4.46975 7.2783 -2.35649 0
M  V30 96 O -4.92659 8.56239 -2.51645 0
M  V30 97 O -5.14428 6.31564 -2.74632 0
M  V30 98 H -1.40823 8.15943 -4.39992 0
M  V30 99 H -1.22599 6.4286 -3.88296 0
M  V30 100 H -2.86252 7.15377 -4.32667 0
M  V30 101 H -1.07837 7.68415 -1.91267 0
M  V30 102 H -2.86817 9.55027 -3.35625 0
M  V30 103 H -1.35007 9.87327 -2.45959 0
M  V30 104 H -2.92592 9.6452 -1.58546 0
M  V30 105 H -3.27193 7.42649 -0.675524 0
M  V30 106 H -2.59676 5.1677 -2.48996 0
M  V30 107 H -1.52463 3.3735 -0.257699 0
M  V30 108 H -3.25117 3.27191 -2.26682 0
M  V30 109 H -4.055 2.06981 -1.25969 0
M  V30 110 H -0.360491 -1.19793 -0.760147 0
M  V30 111 H -1.40801 -0.897284 0.657058 0
M  V30 112 H 0.942644 0.000318877 1.70473 0
M  V30 113 H 1.91294 -1.97413 -0.315157 0
M  V30 114 H 4.28 -0.832523 -1.17101 0
M  V30 115 H 5.34857 -1.86065 1.43272 0
M  V30 116 H 6.04939 -2.12838 -0.170137 0
M  V30 117 H 3.32355 -3.96559 -1.6129 0
M  V30 118 H 5.27853 0.726459 1.23851 0
M  V30 119 H 7.61915 1.78171 0.794691 0
M  V30 120 H 7.40436 3.92885 -0.0505175 0
M  V30 121 H 5.72403 3.37228 -0.267313 0
M  V30 122 H 6.0727 3.28885 -2.68775 0
M  V30 123 H 7.36942 4.44194 -2.2969 0
M  V30 124 H 7.68033 1.70695 -3.13308 0
M  V30 125 H 8.97193 2.96037 -2.82845 0
M  V30 126 H 10.9359 2.01724 -2.32481 0
M  V30 127 H 12.247 0.127013 -0.372253 0
M  V30 128 H 14.9538 1.16299 -0.422294 0
M  V30 129 H 14.4843 3.95381 0.473826 0
M  V30 130 H 15.9489 3.16983 0.139268 0
M  V30 131 H 13.3644 2.60382 1.73947 0
M  V30 132 H 13.3195 0.815179 1.52839 0
M  V30 133 H 15.7001 2.67081 2.10182 0
M  V30 134 H 15.9165 0.918834 1.73715 0
M  V30 135 H 15.754 2.27605 5.27687 0
M  V30 136 H 9.93375 -0.0856651 -3.18582 0
M  V30 137 H 12.9899 0.115378 -3.17167 0
M  V30 138 H 12.0063 -1.06413 -4.14317 0
M  V30 139 H 11.7191 0.65994 -4.39643 0
M  V30 140 H 10.6789 -1.19721 -0.940613 0
M  V30 141 H 0.575645 -4.10756 2.21697 0
M  V30 142 H -1.3382 -3.37378 0.224925 0
M  V30 143 H -2.25791 -5.74465 0.834795 0
M  V30 144 H -1.0227 -5.75658 2.08081 0
M  V30 145 H 1.26015 -6.18609 1.65586 0
M  V30 146 H 2.91277 -6.99052 0.16186 0
M  V30 147 H 2.51012 -7.17942 -2.22587 0
M  V30 148 H 0.302563 -6.47401 -3.11826 0
M  V30 149 H -1.47445 -5.58492 -1.53407 0
M  V30 150 H -4.01894 -1.97041 1.94899 0
M  V30 151 H -3.9514 -4.35182 0.0898097 0
M  V30 152 H -6.30751 -3.78826 1.95797 0
M  V30 153 H -5.10158 -5.08087 2.05617 0
M  V30 154 H -8.20077 -4.23438 -0.338616 0
M  V30 155 H -8.60902 -6.42426 -1.63135 0
M  V30 156 H -4.21092 -6.91784 1.32356 0
M  V30 157 H -3.81847 -9.26113 0.535957 0
M  V30 158 H -5.38 -10.2158 -1.01907 0
M  V30 159 H -7.34092 -8.89761 -1.84878 0
M  V30 160 H -5.06051 -0.671603 -0.814361 0
M  V30 161 H -6.97212 0.305088 -0.131043 0
M  V30 162 H -8.45049 -1.63112 -0.496827 0
M  V30 163 H -7.97007 -2.21476 1.1602 0
M  V30 164 H -9.08996 0.529542 0.474261 0
M  V30 165 H -8.62324 -0.0764268 2.13718 0
M  V30 166 H -10.9455 -0.883752 0.284628 0
M  V30 167 H -11.0156 0.0365455 1.79724 0
M  V30 168 H -11.907 -2.16596 2.04321 0
M  V30 169 H -10.5834 -1.89972 3.17342 0
M  V30 170 H -10.8217 -3.70503 0.853487 0
M  V30 171 H -10.0731 -3.91768 2.38886 0
M  V30 172 H -6.22701 1.44162 3.19238 0
M  V30 173 H -5.79463 1.86817 0.30037 0
M  V30 174 H -5.70188 4.21246 0.956166 0
M  V30 175 H -5.77181 3.73372 2.6907 0
M  V30 176 H -7.46068 3.82391 -0.560874 0
M  V30 177 H -9.8817 3.83066 -0.849558 0
M  V30 178 H -12.2054 4.30421 1.17606 0
M  V30 179 H -10.4226 3.00715 3.26525 0
M  V30 180 H -7.97665 2.98919 3.57484 0
M  V30 181 H -2.42971 3.43773 1.84756 0
M  V30 182 H -5.81878 8.90012 -2.17371 0
M  V30 END ATOM
M  V30 BEGIN BOND
M  V30 1 1 1 2
M  V30 2 1 2 3
M  V30 3 1 2 4
M  V30 4 1 4 5
M  V30 5 1 5 6
M  V30 6 2 6 7
M  V30 7 1 6 8
M  V30 8 1 8 9
M  V30 9 1 9 10
M  V30 10 1 10 11
M  V30 11 1 11 12
M  V30 12 1 12 13
M  V30 13 1 13 14
M  V30 14 1 14 15
M  V30 15 2 15 16
M  V30 16 1 15 17
M  V30 17 1 17 18
M  V30 18 1 18 19
M  V30 19 1 19 20
M  V30 20 2 19 21
M  V30 21 1 17 22
M  V30 22 1 22 23
M  V30 23 2 23 24
M  V30 24 1 23 25
M  V30 25 1 25 26
M  V30 26 1 26 27
M  V30 27 1 27 28
M  V30 28 1 28 29
M  V30 29 1 29 30
M  V30 30 2 30 31
M  V30 31 1 30 32
M  V30 32 1 32 33
M  V30 33 1 33 34
M  V30 34 2 34 35
M  V30 35 1 34 36
M  V30 36 1 36 37
M  V30 37 1 36 38
M  V30 38 1 38 39
M  V30 39 1 39 40
M  V30 40 1 40 41
M  V30 41 2 40 42
M  V30 42 1 32 43
M  V30 43 1 43 44
M  V30 44 1 43 45
M  V30 45 1 13 46
M  V30 46 2 46 47
M  V30 47 1 46 48
M  V30 48 1 48 49
M  V30 49 1 49 50
M  V30 50 1 50 51
M  V30 51 2 51 52
M  V30 52 1 52 53
M  V30 53 2 53 54
M  V30 54 1 54 55
M  V30 55 2 55 56
M  V30 56 1 49 57
M  V30 57 2 57 58
M  V30 58 1 57 59
M  V30 59 1 59 60
M  V30 60 1 60 61
M  V30 61 1 61 62
M  V30 62 2 62 63
M  V30 63 1 63 64
M  V30 64 1 64 65
M  V30 65 2 65 66
M  V30 66 1 66 67
M  V30 67 2 67 68
M  V30 68 1 68 69
M  V30 69 2 69 70
M  V30 70 1 60 71
M  V30 71 2 71 72
M  V30 72 1 71 73
M  V30 73 1 73 74
M  V30 74 1 74 75
M  V30 75 1 75 76
M  V30 76 1 76 77
M  V30 77 1 77 78
M  V30 78 1 78 79
M  V30 79 1 74 80
M  V30 80 2 80 81
M  V30 81 1 80 82
M  V30 82 1 82 83
M  V30 83 1 83 84
M  V30 84 1 84 85
M  V30 85 2 85 86
M  V30 86 1 86 87
M  V30 87 2 87 88
M  V30 88 1 88 89
M  V30 89 1 88 90
M  V30 90 2 90 91
M  V30 91 1 83 92
M  V30 92 2 92 93
M  V30 93 1 92 94
M  V30 94 1 4 95
M  V30 95 1 95 96
M  V30 96 2 95 97
M  V30 97 1 94 8
M  V30 98 1 29 25
M  V30 99 1 56 51
M  V30 100 1 66 62
M  V30 101 1 91 85
M  V30 102 1 70 65
M  V30 103 1 1 98
M  V30 104 1 1 99
M  V30 105 1 1 100
M  V30 106 1 2 101
M  V30 107 1 3 102
M  V30 108 1 3 103
M  V30 109 1 3 104
M  V30 110 1 4 105 CFG=1
M  V30 111 1 5 106
M  V30 112 1 8 107 CFG=1
M  V30 113 1 9 108
M  V30 114 1 9 109
M  V30 115 1 12 110
M  V30 116 1 12 111
M  V30 117 1 13 112 CFG=1
M  V30 118 1 14 113
M  V30 119 1 17 114 CFG=3
M  V30 120 1 18 115
M  V30 121 1 18 116
M  V30 122 1 20 117
M  V30 123 1 22 118
M  V30 124 1 25 119 CFG=1
M  V30 125 1 26 120
M  V30 126 1 26 121
M  V30 127 1 27 122
M  V30 128 1 27 123
M  V30 129 1 28 124
M  V30 130 1 28 125
M  V30 131 1 32 126 CFG=3
M  V30 132 1 33 127
M  V30 133 1 36 128 CFG=3
M  V30 134 1 37 129
M  V30 135 1 37 130
M  V30 136 1 38 131
M  V30 137 1 38 132
M  V30 138 1 39 133
M  V30 139 1 39 134
M  V30 140 1 41 135
M  V30 141 1 43 136
M  V30 142 1 44 137
M  V30 143 1 44 138
M  V30 144 1 44 139
M  V30 145 1 45 140
M  V30 146 1 48 141
M  V30 147 1 49 142 CFG=3
M  V30 148 1 50 143
M  V30 149 1 50 144
M  V30 150 1 52 145
M  V30 151 1 53 146
M  V30 152 1 54 147
M  V30 153 1 55 148
M  V30 154 1 56 149
M  V30 155 1 59 150
M  V30 156 1 60 151 CFG=3
M  V30 157 1 61 152
M  V30 158 1 61 153
M  V30 159 1 63 154
M  V30 160 1 64 155
M  V30 161 1 67 156
M  V30 162 1 68 157
M  V30 163 1 69 158
M  V30 164 1 70 159
M  V30 165 1 73 160
M  V30 166 1 74 161 CFG=3
M  V30 167 1 75 162
M  V30 168 1 75 163
M  V30 169 1 76 164
M  V30 170 1 76 165
M  V30 171 1 77 166
M  V30 172 1 77 167
M  V30 173 1 78 168
M  V30 174 1 78 169
M  V30 175 1 79 170
M  V30 176 1 79 171
M  V30 177 1 82 172
M  V30 178 1 83 173 CFG=3
M  V30 179 1 84 174
M  V30 180 1 84 175
M  V30 181 1 86 176
M  V30 182 1 87 177
M  V30 183 1 89 178
M  V30 184 1 90 179
M  V30 185 1 91 180
M  V30 186 1 94 181
M  V30 187 1 96 182
M  V30 END BOND
M  V30 END CTAB
M  END
