
     RDKit          3D

  0  0  0  0  0  0  0  0  0  0999 V3000
M  V30 BEGIN CTAB
M  V30 COUNTS 47 50 0 0 0
M  V30 BEGIN ATOM
M  V30 1 O 1.41246 -1.45316 -1.97629 0
M  V30 2 C 1.53795 -2.42831 -1.22551 0
M  V30 3 N 2.56551 -2.49863 -0.26689 0
M  V30 4 C 3.52766 -1.47989 -0.064269 0
M  V30 5 C 3.37592 -0.159226 -0.382386 0
M  V30 6 C 4.38923 0.780867 -0.173737 0
M  V30 7 C 5.59858 0.42143 0.366822 0
M  V30 8 C 5.75215 -0.915466 0.689635 0
M  V30 9 C 4.76424 -1.84118 0.487739 0
M  V30 10 S 6.84433 1.60114 0.620846 0
M  V30 11 O 8.22476 0.994995 0.533289 0
M  V30 12 O 6.69268 2.7506 -0.339144 0
M  V30 13 N 6.64986 2.25336 2.21794 0
M  V30 14 C 0.561017 -3.58033 -1.33682 0
M  V30 15 S -0.728129 -3.2938 -2.51272 0
M  V30 16 C -1.94054 -2.09156 -2.05832 0
M  V30 17 N -2.99238 -1.66816 -2.82048 0
M  V30 18 N -3.68209 -0.787948 -2.12799 0
M  V30 19 C -3.1267 -0.605977 -0.923378 0
M  V30 20 N -2.03911 -1.43764 -0.912834 0
M  V30 21 N -1.23708 -1.49698 0.242869 0
M  V30 22 C -3.57134 0.274456 0.147386 0
M  V30 23 N -3.02456 0.464363 1.35129 0
M  V30 24 N -3.75448 1.36293 2.0341 0
M  V30 25 C -4.78332 1.75985 1.26835 0
M  V30 26 C -4.68767 1.08139 0.0644602 0
M  V30 27 C -5.79582 1.47786 -0.815164 0
M  V30 28 C -6.46944 2.61459 -0.120105 0
M  V30 29 C -5.94722 2.65024 1.27961 0
M  V30 30 H 2.65251 -3.35666 0.366805 0
M  V30 31 H 2.43254 0.214348 -0.802323 0
M  V30 32 H 4.21212 1.81537 -0.446098 0
M  V30 33 H 6.71693 -1.20917 1.12178 0
M  V30 34 H 4.89516 -2.8881 0.7444 0
M  V30 35 H 7.49973 2.77539 2.51564 0
M  V30 36 H 5.8101 2.89438 2.16085 0
M  V30 37 H 0.104728 -3.70579 -0.321024 0
M  V30 38 H 1.14124 -4.50009 -1.49553 0
M  V30 39 H -0.552289 -0.704074 0.35408 0
M  V30 40 H -1.35356 -2.27604 0.898732 0
M  V30 41 H -3.55215 1.6956 2.99866 0
M  V30 42 H -6.52177 0.632259 -0.97393 0
M  V30 43 H -5.42614 1.8329 -1.81884 0
M  V30 44 H -7.56523 2.41295 -0.0675724 0
M  V30 45 H -6.29798 3.59667 -0.647138 0
M  V30 46 H -6.72834 2.34481 2.02259 0
M  V30 47 H -5.58409 3.67545 1.54248 0
M  V30 END ATOM
M  V30 BEGIN BOND
M  V30 1 2 1 2
M  V30 2 1 2 3
M  V30 3 1 3 4
M  V30 4 2 4 5
M  V30 5 1 5 6
M  V30 6 2 6 7
M  V30 7 1 7 8
M  V30 8 2 8 9
M  V30 9 1 7 10
M  V30 10 2 10 11
M  V30 11 2 10 12
M  V30 12 1 10 13
M  V30 13 1 2 14
M  V30 14 1 14 15
M  V30 15 1 15 16
M  V30 16 2 16 17
M  V30 17 1 17 18
M  V30 18 2 18 19
M  V30 19 1 19 20
M  V30 20 1 20 21
M  V30 21 1 19 22
M  V30 22 2 22 23
M  V30 23 1 23 24
M  V30 24 1 24 25
M  V30 25 2 25 26
M  V30 26 1 26 27
M  V30 27 1 27 28
M  V30 28 1 28 29
M  V30 29 1 9 4
M  V30 30 1 20 16
M  V30 31 1 26 22
M  V30 32 1 29 25
M  V30 33 1 3 30
M  V30 34 1 5 31
M  V30 35 1 6 32
M  V30 36 1 8 33
M  V30 37 1 9 34
M  V30 38 1 13 35
M  V30 39 1 13 36
M  V30 40 1 14 37
M  V30 41 1 14 38
M  V30 42 1 21 39
M  V30 43 1 21 40
M  V30 44 1 24 41
M  V30 45 1 27 42
M  V30 46 1 27 43
M  V30 47 1 28 44
M  V30 48 1 28 45
M  V30 49 1 29 46
M  V30 50 1 29 47
M  V30 END BOND
M  V30 END CTAB
M  END
