
     RDKit          3D

  0  0  0  0  0  0  0  0  0  0999 V3000
M  V30 BEGIN CTAB
M  V30 COUNTS 38 39 0 0 0
M  V30 BEGIN ATOM
M  V30 1 O 0.953713 -0.307919 -1.40705 0
M  V30 2 C 0.361369 -0.676864 -0.369717 0
M  V30 3 C 1.10315 -1.40713 0.665564 0
M  V30 4 C 2.55145 -1.62852 0.333272 0
M  V30 5 C 3.31145 -0.383177 0.133962 0
M  V30 6 C 3.33503 0.613925 1.07653 0
M  V30 7 C 4.06382 1.79096 0.871074 0
M  V30 8 C 4.76685 1.95721 -0.286401 0
M  V30 9 C 4.75839 0.978383 -1.23932 0
M  V30 10 C 4.02619 -0.194781 -1.02362 0
M  V30 11 C 3.1695 -2.31395 1.56032 0
M  V30 12 O -0.982708 -0.411886 -0.173745 0
M  V30 13 C -1.76996 0.286515 -1.12245 0
M  V30 14 C -3.15846 0.403349 -0.612836 0
M  V30 15 N -4.10222 -0.53313 -0.872929 0
M  V30 16 C -5.35298 -0.414129 -0.405641 0
M  V30 17 N -6.37788 -1.36242 -0.647075 0
M  V30 18 N -5.68015 0.670457 0.345506 0
M  V30 19 C -4.76353 1.61618 0.619716 0
M  V30 20 N -3.53241 1.46882 0.141723 0
M  V30 21 N -5.14344 2.73638 1.40887 0
M  V30 22 H 0.953469 -0.978625 1.67242 0
M  V30 23 H 0.641695 -2.43693 0.719021 0
M  V30 24 H 2.65242 -2.28732 -0.544594 0
M  V30 25 H 2.79998 0.539762 2.00927 0
M  V30 26 H 4.06871 2.56347 1.6265 0
M  V30 27 H 5.32006 2.87581 -0.417493 0
M  V30 28 H 5.31638 1.10946 -2.15887 0
M  V30 29 H 4.06538 -0.923639 -1.81873 0
M  V30 30 H 2.85162 -3.37153 1.59515 0
M  V30 31 H 4.27226 -2.20819 1.51999 0
M  V30 32 H 2.82799 -1.73179 2.45558 0
M  V30 33 H -1.3479 1.31489 -1.23007 0
M  V30 34 H -1.8237 -0.23647 -2.08927 0
M  V30 35 H -6.82474 -1.87691 0.130817 0
M  V30 36 H -6.7187 -1.57706 -1.6077 0
M  V30 37 H -5.03022 2.78866 2.42481 0
M  V30 38 H -5.56191 3.54814 0.910102 0
M  V30 END ATOM
M  V30 BEGIN BOND
M  V30 1 2 1 2
M  V30 2 1 2 3
M  V30 3 1 3 4
M  V30 4 1 4 5
M  V30 5 2 5 6
M  V30 6 1 6 7
M  V30 7 2 7 8
M  V30 8 1 8 9
M  V30 9 2 9 10
M  V30 10 1 4 11
M  V30 11 1 2 12
M  V30 12 1 12 13
M  V30 13 1 13 14
M  V30 14 2 14 15
M  V30 15 1 15 16
M  V30 16 1 16 17
M  V30 17 2 16 18
M  V30 18 1 18 19
M  V30 19 2 19 20
M  V30 20 1 19 21
M  V30 21 1 10 5
M  V30 22 1 20 14
M  V30 23 1 3 22
M  V30 24 1 3 23
M  V30 25 1 4 24
M  V30 26 1 6 25
M  V30 27 1 7 26
M  V30 28 1 8 27
M  V30 29 1 9 28
M  V30 30 1 10 29
M  V30 31 1 11 30
M  V30 32 1 11 31
M  V30 33 1 11 32
M  V30 34 1 13 33
M  V30 35 1 13 34
M  V30 36 1 17 35
M  V30 37 1 17 36
M  V30 38 1 21 37
M  V30 39 1 21 38
M  V30 END BOND
M  V30 END CTAB
M  END
