
     RDKit          3D

  0  0  0  0  0  0  0  0  0  0999 V3000
M  V30 BEGIN CTAB
M  V30 COUNTS 34 34 0 0 0
M  V30 BEGIN ATOM
M  V30 1 C -2.77754 -1.53411 0.177308 0
M  V30 2 C -1.5304 -0.816316 0.57042 0
M  V30 3 C -1.38973 0.502702 -0.118897 0
M  V30 4 C -0.163924 1.26685 0.236845 0
M  V30 5 C 1.10608 0.559879 -0.0766971 0
M  V30 6 C 1.79194 0.731505 -1.27224 0
M  V30 7 C 2.95503 0.0927116 -1.56817 0
M  V30 8 C 3.51533 -0.778237 -0.661846 0
M  V30 9 C 2.87319 -0.978968 0.532126 0
M  V30 10 C 1.68832 -0.320783 0.819716 0
M  V30 11 N 3.44474 -1.88008 1.4803 0
M  V30 12 N -0.0848167 1.74681 1.56843 0
M  V30 13 C -1.35699 0.273881 -1.61679 0
M  V30 14 C -2.64036 1.30679 0.16853 0
M  V30 15 H -3.1031 -1.41523 -0.850289 0
M  V30 16 H -2.66969 -2.64617 0.34521 0
M  V30 17 H -3.66587 -1.2625 0.821461 0
M  V30 18 H -0.653852 -1.46601 0.272678 0
M  V30 19 H -1.56503 -0.708749 1.67446 0
M  V30 20 H -0.157054 2.17339 -0.442297 0
M  V30 21 H 1.36075 1.4172 -1.99707 0
M  V30 22 H 3.46909 0.244583 -2.50755 0
M  V30 23 H 4.45487 -1.28686 -0.914662 0
M  V30 24 H 1.20098 -0.496206 1.76881 0
M  V30 25 H 4.08623 -2.64859 1.17021 0
M  V30 26 H 3.2589 -1.82297 2.50681 0
M  V30 27 H 0.280316 2.7243 1.60628 0
M  V30 28 H -0.911987 1.68619 2.14768 0
M  V30 29 H -2.32934 0.0331811 -2.05045 0
M  V30 30 H -0.665376 -0.571013 -1.80502 0
M  V30 31 H -1.02202 1.21582 -2.14357 0
M  V30 32 H -2.33083 2.18491 0.771135 0
M  V30 33 H -3.37357 0.754596 0.787639 0
M  V30 34 H -3.09428 1.71749 -0.758147 0
M  V30 END ATOM
M  V30 BEGIN BOND
M  V30 1 1 1 2
M  V30 2 1 2 3
M  V30 3 1 3 4
M  V30 4 1 4 5
M  V30 5 2 5 6
M  V30 6 1 6 7
M  V30 7 2 7 8
M  V30 8 1 8 9
M  V30 9 2 9 10
M  V30 10 1 9 11
M  V30 11 1 4 12
M  V30 12 1 3 13
M  V30 13 1 3 14
M  V30 14 1 10 5
M  V30 15 1 1 15
M  V30 16 1 1 16
M  V30 17 1 1 17
M  V30 18 1 2 18
M  V30 19 1 2 19
M  V30 20 1 4 20
M  V30 21 1 6 21
M  V30 22 1 7 22
M  V30 23 1 8 23
M  V30 24 1 10 24
M  V30 25 1 11 25
M  V30 26 1 11 26
M  V30 27 1 12 27
M  V30 28 1 12 28
M  V30 29 1 13 29
M  V30 30 1 13 30
M  V30 31 1 13 31
M  V30 32 1 14 32
M  V30 33 1 14 33
M  V30 34 1 14 34
M  V30 END BOND
M  V30 END CTAB
M  END
