
     RDKit          3D

  0  0  0  0  0  0  0  0  0  0999 V3000
M  V30 BEGIN CTAB
M  V30 COUNTS 21 20 0 0 0
M  V30 BEGIN ATOM
M  V30 1 N -1.4479 1.85934 0.885468 0
M  V30 2 C -1.21606 0.515083 1.37985 0
M  V30 3 C -0.563484 -0.356834 0.343624 0
M  V30 4 N 0.704207 0.120275 -0.0971605 0
M  V30 5 C 1.93165 -0.576778 0.072215 0
M  V30 6 O 1.975 -1.69837 0.642469 0
M  V30 7 C 3.18059 -0.0447809 -0.393928 0
M  V30 8 C 4.2481 0.396219 -0.793596 0
M  V30 9 C -1.55782 -0.575214 -0.764243 0
M  V30 10 N -1.0128 -1.38299 -1.76763 0
M  V30 11 H -2.36321 2.2009 1.29647 0
M  V30 12 H -0.65374 2.46474 1.22544 0
M  V30 13 H -2.2066 0.0484144 1.61222 0
M  V30 14 H -0.658122 0.552355 2.32759 0
M  V30 15 H -0.393659 -1.35414 0.831003 0
M  V30 16 H 0.755136 1.04354 -0.579843 0
M  V30 17 H 5.17947 0.763568 -1.1328 0
M  V30 18 H -2.45239 -1.06456 -0.328242 0
M  V30 19 H -1.86479 0.405984 -1.19514 0
M  V30 20 H -0.498032 -2.21287 -1.51859 0
M  V30 21 H -1.08556 -1.10388 -2.73205 0
M  V30 END ATOM
M  V30 BEGIN BOND
M  V30 1 1 1 2
M  V30 2 1 2 3
M  V30 3 1 3 4
M  V30 4 1 4 5
M  V30 5 2 5 6
M  V30 6 1 5 7
M  V30 7 3 7 8
M  V30 8 1 3 9
M  V30 9 1 9 10
M  V30 10 1 1 11
M  V30 11 1 1 12
M  V30 12 1 2 13
M  V30 13 1 2 14
M  V30 14 1 3 15
M  V30 15 1 4 16
M  V30 16 1 8 17
M  V30 17 1 9 18
M  V30 18 1 9 19
M  V30 19 1 10 20
M  V30 20 1 10 21
M  V30 END BOND
M  V30 END CTAB
M  END
