
     RDKit          3D

  0  0  0  0  0  0  0  0  0  0999 V3000
M  V30 BEGIN CTAB
M  V30 COUNTS 46 47 0 0 0
M  V30 BEGIN ATOM
M  V30 1 C -7.23534 2.0721 -0.104389 0
M  V30 2 C -6.15831 0.990551 -0.0591776 0
M  V30 3 C -5.58458 0.893799 1.33643 0
M  V30 4 O -4.62124 -0.0618289 1.41446 0
M  V30 5 C -3.41121 -0.276659 0.875991 0
M  V30 6 C -2.78069 0.563834 0.00790264 0
M  V30 7 C -1.5171 0.286698 -0.519468 0
M  V30 8 C -0.851034 -0.876124 -0.167841 0
M  V30 9 C -1.47249 -1.73712 0.709016 0
M  V30 10 C -2.71818 -1.45296 1.22156 0
M  V30 11 N -3.33972 -2.35231 2.12129 0
M  V30 12 C 0.451415 -1.18771 -0.704768 0
M  V30 13 O 0.832133 -0.530951 -1.72768 0
M  V30 14 N 1.34974 -2.15868 -0.198369 0
M  V30 15 C 2.642 -2.41034 -0.799799 0
M  V30 16 C 3.63517 -1.35781 -0.457167 0
M  V30 17 C 3.35919 -0.343875 0.444722 0
M  V30 18 C 4.28354 0.640763 0.763652 0
M  V30 19 C 5.53423 0.635809 0.175556 0
M  V30 20 C 5.81225 -0.371366 -0.722087 0
M  V30 21 C 4.88999 -1.35152 -1.03844 0
M  V30 22 S 6.7234 1.87243 0.56104 0
M  V30 23 O 8.10978 1.31024 0.58586 0
M  V30 24 O 6.35497 2.38579 1.94647 0
M  V30 25 N 6.54715 3.18339 -0.521578 0
M  V30 26 H -7.0479 2.71187 -0.98703 0
M  V30 27 H -8.25769 1.65666 -0.174767 0
M  V30 28 H -7.18793 2.65447 0.854645 0
M  V30 29 H -5.44239 1.18727 -0.84895 0
M  V30 30 H -6.72034 0.0344544 -0.272915 0
M  V30 31 H -5.24593 1.92379 1.6232 0
M  V30 32 H -6.45099 0.660742 2.02297 0
M  V30 33 H -3.26463 1.48871 -0.273425 0
M  V30 34 H -1.03976 0.968699 -1.20604 0
M  V30 35 H -0.950614 -2.66359 0.991454 0
M  V30 36 H -4.04815 -2.00525 2.77381 0
M  V30 37 H -3.0505 -3.35036 2.08706 0
M  V30 38 H 1.02587 -2.6963 0.654971 0
M  V30 39 H 2.5033 -2.38741 -1.89984 0
M  V30 40 H 3.02897 -3.40242 -0.528722 0
M  V30 41 H 2.3686 -0.328199 0.922264 0
M  V30 42 H 4.0151 1.41603 1.47949 0
M  V30 43 H 6.80225 -0.372603 -1.18433 0
M  V30 44 H 5.15565 -2.12877 -1.75475 0
M  V30 45 H 7.33072 3.15953 -1.2091 0
M  V30 46 H 5.64128 3.10652 -0.99802 0
M  V30 END ATOM
M  V30 BEGIN BOND
M  V30 1 1 1 2
M  V30 2 1 2 3
M  V30 3 1 3 4
M  V30 4 1 4 5
M  V30 5 2 5 6
M  V30 6 1 6 7
M  V30 7 2 7 8
M  V30 8 1 8 9
M  V30 9 2 9 10
M  V30 10 1 10 11
M  V30 11 1 8 12
M  V30 12 2 12 13
M  V30 13 1 12 14
M  V30 14 1 14 15
M  V30 15 1 15 16
M  V30 16 2 16 17
M  V30 17 1 17 18
M  V30 18 2 18 19
M  V30 19 1 19 20
M  V30 20 2 20 21
M  V30 21 1 19 22
M  V30 22 2 22 23
M  V30 23 2 22 24
M  V30 24 1 22 25
M  V30 25 1 10 5
M  V30 26 1 21 16
M  V30 27 1 1 26
M  V30 28 1 1 27
M  V30 29 1 1 28
M  V30 30 1 2 29
M  V30 31 1 2 30
M  V30 32 1 3 31
M  V30 33 1 3 32
M  V30 34 1 6 33
M  V30 35 1 7 34
M  V30 36 1 9 35
M  V30 37 1 11 36
M  V30 38 1 11 37
M  V30 39 1 14 38
M  V30 40 1 15 39
M  V30 41 1 15 40
M  V30 42 1 17 41
M  V30 43 1 18 42
M  V30 44 1 20 43
M  V30 45 1 21 44
M  V30 46 1 25 45
M  V30 47 1 25 46
M  V30 END BOND
M  V30 END CTAB
M  END
