
     RDKit          3D

  0  0  0  0  0  0  0  0  0  0999 V3000
M  V30 BEGIN CTAB
M  V30 COUNTS 57 61 0 0 0
M  V30 BEGIN ATOM
M  V30 1 N 9.77595 3.21588 -0.274705 0
M  V30 2 C 9.16943 2.02314 0.233376 0
M  V30 3 C 9.81275 0.819493 0.217412 0
M  V30 4 C 9.14232 -0.310559 0.714837 0
M  V30 5 C 7.91049 -0.246235 1.19769 0
M  V30 6 C 7.21471 0.990165 1.22855 0
M  V30 7 C 7.85866 2.1067 0.744055 0
M  V30 8 C 7.12966 -1.41861 1.71529 0
M  V30 9 O 7.77622 -2.20315 2.46235 0
M  V30 10 N 5.82059 -1.48428 1.31758 0
M  V30 11 C 4.55696 -1.56069 0.942414 0
M  V30 12 C 4.26399 -1.25816 -0.429433 0
M  V30 13 Cl 5.61316 -1.14069 -1.54999 0
M  V30 14 C 2.98799 -1.11322 -0.839166 0
M  V30 15 C 1.91835 -1.2496 0.0184517 0
M  V30 16 C 2.20227 -1.54843 1.32704 0
M  V30 17 C 3.46526 -1.70623 1.80704 0
M  V30 18 Cl 3.72356 -2.09171 3.47206 0
M  V30 19 C 0.566536 -0.996382 -0.449088 0
M  V30 20 N -0.553387 -1.08469 0.31641 0
M  V30 21 C -1.64675 -0.739292 -0.336659 0
M  V30 22 C -1.20596 -0.388313 -1.66353 0
M  V30 23 N 0.132533 -0.584044 -1.60785 0
M  V30 24 C -2.12969 0.0313525 -2.54173 0
M  V30 25 C -3.46147 0.123828 -2.16395 0
M  V30 26 C -3.94709 -0.17628 -0.96161 0
M  V30 27 C -2.97862 -0.635967 0.00462572 0
M  V30 28 Cl -3.52518 -1.04555 1.59786 0
M  V30 29 N -5.30256 -0.124627 -0.514131 0
M  V30 30 C -6.34814 0.516275 -1.10416 0
M  V30 31 O -6.21636 1.19899 -2.19433 0
M  V30 32 C -7.70576 0.493757 -0.54645 0
M  V30 33 C -8.4446 -0.615924 -0.432522 0
M  V30 34 C -9.72785 -0.560602 0.123842 0
M  V30 35 C -10.297 0.591025 0.572987 0
M  V30 36 C -9.52022 1.78266 0.457503 0
M  V30 37 C -8.25963 1.70196 -0.0916275 0
M  V30 38 N -11.5714 0.707143 1.16529 0
M  V30 39 H 10.4447 3.74871 0.302542 0
M  V30 40 H 9.51725 3.52037 -1.22537 0
M  V30 41 H 10.839 0.738147 -0.175232 0
M  V30 42 H 9.69241 -1.26122 0.670511 0
M  V30 43 H 6.21987 1.00304 1.62659 0
M  V30 44 H 7.39641 3.06689 0.734342 0
M  V30 45 H 5.68856 -2.70792 1.98539 0
M  V30 46 H 2.77715 -0.8788 -1.87715 0
M  V30 47 H 1.37162 -1.67585 2.03423 0
M  V30 48 H -0.537434 -1.38533 1.33068 0
M  V30 49 H -1.84825 0.302656 -3.54707 0
M  V30 50 H -4.18534 0.484505 -2.9411 0
M  V30 51 H -5.51285 -0.650205 0.409649 0
M  V30 52 H -8.02228 -1.58182 -0.794947 0
M  V30 53 H -10.2891 -1.49445 0.184298 0
M  V30 54 H -9.97193 2.68648 0.801714 0
M  V30 55 H -7.64641 2.57593 -0.193272 0
M  V30 56 H -11.8017 0.202262 2.07717 0
M  V30 57 H -12.3314 1.28747 0.733856 0
M  V30 END ATOM
M  V30 BEGIN BOND
M  V30 1 1 1 2
M  V30 2 2 2 3
M  V30 3 1 3 4
M  V30 4 2 4 5
M  V30 5 1 5 6
M  V30 6 2 6 7
M  V30 7 1 5 8
M  V30 8 2 8 9
M  V30 9 1 8 10
M  V30 10 1 10 11
M  V30 11 2 11 12
M  V30 12 1 12 13
M  V30 13 1 12 14
M  V30 14 2 14 15
M  V30 15 1 15 16
M  V30 16 2 16 17
M  V30 17 1 17 18
M  V30 18 1 15 19
M  V30 19 1 19 20
M  V30 20 1 20 21
M  V30 21 2 21 22
M  V30 22 1 22 23
M  V30 23 1 22 24
M  V30 24 2 24 25
M  V30 25 1 25 26
M  V30 26 2 26 27
M  V30 27 1 27 28
M  V30 28 1 26 29
M  V30 29 1 29 30
M  V30 30 2 30 31
M  V30 31 1 30 32
M  V30 32 2 32 33
M  V30 33 1 33 34
M  V30 34 2 34 35
M  V30 35 1 35 36
M  V30 36 2 36 37
M  V30 37 1 35 38
M  V30 38 1 7 2
M  V30 39 1 17 11
M  V30 40 2 23 19
M  V30 41 1 37 32
M  V30 42 1 27 21
M  V30 43 1 1 39
M  V30 44 1 1 40
M  V30 45 1 3 41
M  V30 46 1 4 42
M  V30 47 1 6 43
M  V30 48 1 7 44
M  V30 49 1 10 45
M  V30 50 1 14 46
M  V30 51 1 16 47
M  V30 52 1 20 48
M  V30 53 1 24 49
M  V30 54 1 25 50
M  V30 55 1 29 51
M  V30 56 1 33 52
M  V30 57 1 34 53
M  V30 58 1 36 54
M  V30 59 1 37 55
M  V30 60 1 38 56
M  V30 61 1 38 57
M  V30 END BOND
M  V30 END CTAB
M  END
