
     RDKit          3D

  0  0  0  0  0  0  0  0  0  0999 V3000
M  V30 BEGIN CTAB
M  V30 COUNTS 24 24 0 0 0
M  V30 BEGIN ATOM
M  V30 1 N -0.0421809 -1.59898 0.244727 0
M  V30 2 C -0.649702 -0.379645 -0.245036 0
M  V30 3 C -1.87671 -0.119486 0.589809 0
M  V30 4 C -3.24158 -0.319269 0.0964867 0
M  V30 5 C -2.68686 1.07947 0.0528653 0
M  V30 6 C 0.290796 0.776826 0.0790081 0
M  V30 7 N 1.52888 0.671507 -0.633214 0
M  V30 8 S 2.79295 0.37697 0.519083 0
M  V30 9 O 2.2298 0.201662 1.90906 0
M  V30 10 O 3.78512 1.49169 0.531833 0
M  V30 11 N 3.55216 -1.09973 0.00547102 0
M  V30 12 H 0.573135 -2.0626 -0.452182 0
M  V30 13 H -0.780685 -2.2656 0.549396 0
M  V30 14 H -0.843916 -0.402955 -1.32665 0
M  V30 15 H -1.67654 -0.12337 1.67165 0
M  V30 16 H -4.00898 -0.5021 0.891239 0
M  V30 17 H -3.49021 -0.831325 -0.846458 0
M  V30 18 H -2.46462 1.44232 -0.961523 0
M  V30 19 H -3.03014 1.833 0.780695 0
M  V30 20 H -0.227808 1.74759 -0.12404 0
M  V30 21 H 0.413035 0.744244 1.19119 0
M  V30 22 H 1.7238 1.51191 -1.21813 0
M  V30 23 H 3.628 -1.07032 -1.03799 0
M  V30 24 H 4.50226 -1.10182 0.448541 0
M  V30 END ATOM
M  V30 BEGIN BOND
M  V30 1 1 1 2
M  V30 2 1 2 3
M  V30 3 1 3 4
M  V30 4 1 4 5
M  V30 5 1 2 6
M  V30 6 1 6 7
M  V30 7 1 7 8
M  V30 8 2 8 9
M  V30 9 2 8 10
M  V30 10 1 8 11
M  V30 11 1 5 3
M  V30 12 1 1 12
M  V30 13 1 1 13
M  V30 14 1 2 14
M  V30 15 1 3 15
M  V30 16 1 4 16
M  V30 17 1 4 17
M  V30 18 1 5 18
M  V30 19 1 5 19
M  V30 20 1 6 20
M  V30 21 1 6 21
M  V30 22 1 7 22
M  V30 23 1 11 23
M  V30 24 1 11 24
M  V30 END BOND
M  V30 END CTAB
M  END
