
     RDKit          3D

  0  0  0  0  0  0  0  0  0  0999 V3000
M  V30 BEGIN CTAB
M  V30 COUNTS 24 24 0 0 0
M  V30 BEGIN ATOM
M  V30 1 N -2.42536 -1.29564 1.13521 0
M  V30 2 C -1.299 -0.940346 0.33245 0
M  V30 3 C -1.52275 0.44517 -0.241464 0
M  V30 4 C -0.0782792 0.827709 -0.596263 0
M  V30 5 N 0.613483 0.445625 0.602031 0
M  V30 6 C -0.0267697 -0.756939 1.10089 0
M  V30 7 S 2.27352 0.0167475 0.26968 0
M  V30 8 O 2.93771 1.18148 -0.450522 0
M  V30 9 O 2.91966 -0.251737 1.57966 0
M  V30 10 N 2.27083 -1.32108 -0.787057 0
M  V30 11 C -0.0965274 2.32008 -0.827045 0
M  V30 12 H -2.6315 -2.31393 1.04381 0
M  V30 13 H -3.22478 -0.701727 0.896199 0
M  V30 14 H -1.13935 -1.61249 -0.54228 0
M  V30 15 H -2.17726 0.454871 -1.11052 0
M  V30 16 H -1.81878 1.09342 0.590173 0
M  V30 17 H 0.256477 0.273351 -1.49251 0
M  V30 18 H 0.591669 -1.66733 0.941156 0
M  V30 19 H -0.226838 -0.703181 2.19201 0
M  V30 20 H 2.2428 -2.23749 -0.321838 0
M  V30 21 H 2.95706 -1.28584 -1.54663 0
M  V30 22 H -0.620624 2.81257 -0.00189462 0
M  V30 23 H -0.689802 2.48454 -1.75988 0
M  V30 24 H 0.914414 2.73215 -1.00536 0
M  V30 END ATOM
M  V30 BEGIN BOND
M  V30 1 1 1 2
M  V30 2 1 2 3
M  V30 3 1 3 4
M  V30 4 1 4 5
M  V30 5 1 5 6
M  V30 6 1 5 7
M  V30 7 2 7 8
M  V30 8 2 7 9
M  V30 9 1 7 10
M  V30 10 1 4 11
M  V30 11 1 6 2
M  V30 12 1 1 12
M  V30 13 1 1 13
M  V30 14 1 2 14
M  V30 15 1 3 15
M  V30 16 1 3 16
M  V30 17 1 4 17
M  V30 18 1 6 18
M  V30 19 1 6 19
M  V30 20 1 10 20
M  V30 21 1 10 21
M  V30 22 1 11 22
M  V30 23 1 11 23
M  V30 24 1 11 24
M  V30 END BOND
M  V30 END CTAB
M  END
