
     RDKit          3D

  0  0  0  0  0  0  0  0  0  0999 V3000
M  V30 BEGIN CTAB
M  V30 COUNTS 38 39 0 0 0
M  V30 BEGIN ATOM
M  V30 1 C 4.59456 -0.822547 -1.02899 0
M  V30 2 C 3.69939 -0.204226 0.0172435 0
M  V30 3 C 3.92963 1.27052 0.0342682 0
M  V30 4 C 2.25113 -0.59742 -0.143075 0
M  V30 5 C 1.47814 0.0736231 0.942409 0
M  V30 6 C 0.0138084 -0.219532 0.922989 0
M  V30 7 C -0.839328 0.410121 0.0185013 0
M  V30 8 C -0.326904 1.42247 -0.925493 0
M  V30 9 C -2.17847 0.0385682 0.0854716 0
M  V30 10 C -2.65564 -0.902683 0.995826 0
M  V30 11 C -1.78669 -1.49 1.85933 0
M  V30 12 C -0.460978 -1.15977 1.83294 0
M  V30 13 N -3.9825 -1.23136 1.01738 0
M  V30 14 C -4.87246 -0.683455 0.188724 0
M  V30 15 N -6.26645 -1.042 0.232175 0
M  V30 16 N -4.41849 0.21563 -0.682951 0
M  V30 17 C -3.11302 0.585881 -0.755375 0
M  V30 18 N -2.70496 1.53483 -1.71249 0
M  V30 19 H 4.52903 -1.93015 -1.06019 0
M  V30 20 H 5.6462 -0.543266 -0.721734 0
M  V30 21 H 4.42065 -0.334881 -1.99772 0
M  V30 22 H 4.07815 -0.611164 1.00138 0
M  V30 23 H 3.82289 1.62501 1.09521 0
M  V30 24 H 3.19792 1.8393 -0.551774 0
M  V30 25 H 4.94019 1.53385 -0.323446 0
M  V30 26 H 1.86928 -0.508448 -1.15305 0
M  V30 27 H 2.22227 -1.70502 0.0862746 0
M  V30 28 H 1.90883 -0.366838 1.8999 0
M  V30 29 H 1.70328 1.15781 1.08389 0
M  V30 30 H 0.782194 1.53297 -0.637126 0
M  V30 31 H -0.612367 2.47217 -0.700605 0
M  V30 32 H -0.205357 1.12908 -1.95824 0
M  V30 33 H -2.20155 -2.22648 2.56148 0
M  V30 34 H 0.198785 -1.65693 2.54497 0
M  V30 35 H -6.79256 -1.15664 1.12314 0
M  V30 36 H -6.76208 -1.19023 -0.666173 0
M  V30 37 H -2.71848 2.56398 -1.56561 0
M  V30 38 H -2.38805 1.17721 -2.63774 0
M  V30 END ATOM
M  V30 BEGIN BOND
M  V30 1 1 1 2
M  V30 2 1 2 3
M  V30 3 1 2 4
M  V30 4 1 4 5
M  V30 5 1 5 6
M  V30 6 2 6 7
M  V30 7 1 7 8
M  V30 8 1 7 9
M  V30 9 2 9 10
M  V30 10 1 10 11
M  V30 11 2 11 12
M  V30 12 1 10 13
M  V30 13 2 13 14
M  V30 14 1 14 15
M  V30 15 1 14 16
M  V30 16 2 16 17
M  V30 17 1 17 18
M  V30 18 1 12 6
M  V30 19 1 17 9
M  V30 20 1 1 19
M  V30 21 1 1 20
M  V30 22 1 1 21
M  V30 23 1 2 22
M  V30 24 1 3 23
M  V30 25 1 3 24
M  V30 26 1 3 25
M  V30 27 1 4 26
M  V30 28 1 4 27
M  V30 29 1 5 28
M  V30 30 1 5 29
M  V30 31 1 8 30
M  V30 32 1 8 31
M  V30 33 1 8 32
M  V30 34 1 11 33
M  V30 35 1 12 34
M  V30 36 1 15 35
M  V30 37 1 15 36
M  V30 38 1 18 37
M  V30 39 1 18 38
M  V30 END BOND
M  V30 END CTAB
M  END
