
     RDKit          3D

  0  0  0  0  0  0  0  0  0  0999 V3000
M  V30 BEGIN CTAB
M  V30 COUNTS 23 23 0 0 0
M  V30 BEGIN ATOM
M  V30 1 C -3.75952 -0.491044 0.222435 0
M  V30 2 C -3.19376 0.724472 -0.47195 0
M  V30 3 O -1.87092 0.990647 -0.123223 0
M  V30 4 C -0.836951 0.0952202 -0.338373 0
M  V30 5 O -1.10525 -1.00168 -0.870076 0
M  V30 6 C 0.501434 0.492848 0.071188 0
M  V30 7 N 0.74483 1.68302 0.639731 0
M  V30 8 C 1.99088 2.05935 1.02373 0
M  V30 9 Cl 2.19298 3.65164 1.76276 0
M  V30 10 N 3.01508 1.2292 0.835742 0
M  V30 11 C 2.87362 0.00540478 0.270146 0
M  V30 12 N 3.99628 -0.862084 0.0828811 0
M  V30 13 C 1.59302 -0.340869 -0.106606 0
M  V30 14 N 1.40284 -1.6162 -0.703497 0
M  V30 15 H -3.34536 -0.55658 1.23321 0
M  V30 16 H -4.86687 -0.34278 0.277243 0
M  V30 17 H -3.57187 -1.42656 -0.349492 0
M  V30 18 H -3.35429 0.640855 -1.56656 0
M  V30 19 H -3.80745 1.60621 -0.126177 0
M  V30 20 H 4.14316 -1.57586 0.830351 0
M  V30 21 H 4.60362 -0.757967 -0.755856 0
M  V30 22 H 1.58824 -1.80149 -1.72523 0
M  V30 23 H 1.06626 -2.40573 -0.11239 0
M  V30 END ATOM
M  V30 BEGIN BOND
M  V30 1 1 1 2
M  V30 2 1 2 3
M  V30 3 1 3 4
M  V30 4 2 4 5
M  V30 5 1 4 6
M  V30 6 2 6 7
M  V30 7 1 7 8
M  V30 8 1 8 9
M  V30 9 2 8 10
M  V30 10 1 10 11
M  V30 11 1 11 12
M  V30 12 2 11 13
M  V30 13 1 13 14
M  V30 14 1 13 6
M  V30 15 1 1 15
M  V30 16 1 1 16
M  V30 17 1 1 17
M  V30 18 1 2 18
M  V30 19 1 2 19
M  V30 20 1 12 20
M  V30 21 1 12 21
M  V30 22 1 14 22
M  V30 23 1 14 23
M  V30 END BOND
M  V30 END CTAB
M  END
