
     RDKit          3D

  0  0  0  0  0  0  0  0  0  0999 V3000
M  V30 BEGIN CTAB
M  V30 COUNTS 23 23 0 0 0
M  V30 BEGIN ATOM
M  V30 1 C 3.39495 0.822314 0.324705 0
M  V30 2 O 2.55438 -0.24784 0.0516171 0
M  V30 3 C 1.17372 -0.190592 0.00460194 0
M  V30 4 C 0.456513 0.965135 0.229437 0
M  V30 5 C -0.942732 0.940696 0.163552 0
M  V30 6 N -1.66232 2.12932 0.395562 0
M  V30 7 C -1.6343 -0.220718 -0.123427 0
M  V30 8 C -3.1244 -0.263001 -0.197184 0
M  V30 9 C -0.915649 -1.37586 -0.348067 0
M  V30 10 C 0.459406 -1.3365 -0.279926 0
M  V30 11 N 1.19949 -2.54265 -0.514939 0
M  V30 12 H 4.40849 0.68662 -0.149802 0
M  V30 13 H 3.56096 0.873919 1.42075 0
M  V30 14 H 2.97803 1.81984 0.0331752 0
M  V30 15 H 0.984705 1.87451 0.45367 0
M  V30 16 H -2.05735 2.64178 -0.41265 0
M  V30 17 H -1.79859 2.49156 1.35569 0
M  V30 18 H -3.49287 -0.905511 0.648673 0
M  V30 19 H -3.45082 -0.767572 -1.12805 0
M  V30 20 H -3.52136 0.763128 -0.144853 0
M  V30 21 H -1.45224 -2.28764 -0.573092 0
M  V30 22 H 1.38142 -2.78474 -1.51353 0
M  V30 23 H 1.50057 -3.08621 0.304077 0
M  V30 END ATOM
M  V30 BEGIN BOND
M  V30 1 1 1 2
M  V30 2 1 2 3
M  V30 3 2 3 4
M  V30 4 1 4 5
M  V30 5 1 5 6
M  V30 6 2 5 7
M  V30 7 1 7 8
M  V30 8 1 7 9
M  V30 9 2 9 10
M  V30 10 1 10 11
M  V30 11 1 10 3
M  V30 12 1 1 12
M  V30 13 1 1 13
M  V30 14 1 1 14
M  V30 15 1 4 15
M  V30 16 1 6 16
M  V30 17 1 6 17
M  V30 18 1 8 18
M  V30 19 1 8 19
M  V30 20 1 8 20
M  V30 21 1 9 21
M  V30 22 1 11 22
M  V30 23 1 11 23
M  V30 END BOND
M  V30 END CTAB
M  END
