
     RDKit          3D

  0  0  0  0  0  0  0  0  0  0999 V3000
M  V30 BEGIN CTAB
M  V30 COUNTS 26 27 0 0 0
M  V30 BEGIN ATOM
M  V30 1 N -5.18187 -0.0033501 -0.0599166 0
M  V30 2 C -3.76054 -0.0930513 -0.0283191 0
M  V30 3 C -3.04119 1.02925 -0.366827 0
M  V30 4 C -1.64146 0.947976 -0.337856 0
M  V30 5 C -0.962648 -0.179324 0.00646082 0
M  V30 6 O 0.32499 -0.322752 0.053959 0
M  V30 7 C 1.54938 0.129409 -0.0794819 0
M  V30 8 C 2.62884 -0.746784 0.189691 0
M  V30 9 C 3.93572 -0.384485 0.0837696 0
M  V30 10 N 5.00516 -1.29604 0.363638 0
M  V30 11 N 4.19107 0.880845 -0.299382 0
M  V30 12 C 3.21499 1.75559 -0.567796 0
M  V30 13 C 1.8907 1.40216 -0.46462 0
M  V30 14 C -1.75749 -1.30715 0.346409 0
M  V30 15 C -3.12607 -1.26466 0.329311 0
M  V30 16 H -5.60445 0.768295 0.522274 0
M  V30 17 H -5.75605 -0.65967 -0.622637 0
M  V30 18 H -3.54849 1.94418 -0.646144 0
M  V30 19 H -1.12885 1.8338 -0.605209 0
M  V30 20 H 2.39728 -1.77609 0.501295 0
M  V30 21 H 5.10212 -1.77166 1.2892 0
M  V30 22 H 5.67902 -1.45136 -0.41995 0
M  V30 23 H 3.47479 2.78409 -0.87907 0
M  V30 24 H 1.11667 2.15176 -0.69444 0
M  V30 25 H -1.28104 -2.24017 0.631117 0
M  V30 26 H -3.72059 -2.13082 0.590444 0
M  V30 END ATOM
M  V30 BEGIN BOND
M  V30 1 1 1 2
M  V30 2 2 2 3
M  V30 3 1 3 4
M  V30 4 2 4 5
M  V30 5 1 5 6
M  V30 6 1 6 7
M  V30 7 2 7 8
M  V30 8 1 8 9
M  V30 9 1 9 10
M  V30 10 2 9 11
M  V30 11 1 11 12
M  V30 12 2 12 13
M  V30 13 1 5 14
M  V30 14 2 14 15
M  V30 15 1 15 2
M  V30 16 1 13 7
M  V30 17 1 1 16
M  V30 18 1 1 17
M  V30 19 1 3 18
M  V30 20 1 4 19
M  V30 21 1 8 20
M  V30 22 1 10 21
M  V30 23 1 10 22
M  V30 24 1 12 23
M  V30 25 1 13 24
M  V30 26 1 14 25
M  V30 27 1 15 26
M  V30 END BOND
M  V30 END CTAB
M  END
