
     RDKit          3D

  0  0  0  0  0  0  0  0  0  0999 V3000
M  V30 BEGIN CTAB
M  V30 COUNTS 35 36 0 0 0
M  V30 BEGIN ATOM
M  V30 1 N 4.78351 1.38415 -0.989448 0
M  V30 2 C 3.47394 0.882465 -0.764476 0
M  V30 3 C 2.86931 1.13385 0.445457 0
M  V30 4 C 1.58186 0.655393 0.700432 0
M  V30 5 C 0.890926 -0.0711414 -0.23846 0
M  V30 6 C 1.49784 -0.319234 -1.44326 0
M  V30 7 C 2.78572 0.148533 -1.72316 0
M  V30 8 C -0.468419 -0.56775 0.0503203 0 CFG=1
M  V30 9 C -0.33598 -1.83512 0.865383 0
M  V30 10 C -1.45669 -2.80738 0.569553 0
M  V30 11 O -2.55658 -2.48246 1.35515 0
M  V30 12 C -3.09689 -1.246 1.01059 0
M  V30 13 C -2.30745 -0.0951379 1.53888 0
M  V30 14 N -1.30767 0.410354 0.660766 0
M  V30 15 S -1.97665 1.5275 -0.466044 0
M  V30 16 O -2.83154 0.832864 -1.45832 0
M  V30 17 O -2.81344 2.5357 0.268169 0
M  V30 18 N -0.704624 2.41728 -1.26268 0
M  V30 19 H 5.59709 0.745806 -1.11049 0
M  V30 20 H 4.8981 2.4392 -1.02907 0
M  V30 21 H 3.40684 1.70286 1.18458 0
M  V30 22 H 1.17585 0.900087 1.68669 0
M  V30 23 H 1.02291 -0.882108 -2.23395 0
M  V30 24 H 3.2337 -0.0638195 -2.67936 0
M  V30 25 H -0.981009 -0.882025 -0.907006 0
M  V30 26 H 0.61173 -2.3226 0.557857 0
M  V30 27 H -0.28011 -1.64916 1.94172 0
M  V30 28 H -1.10946 -3.80592 0.906303 0
M  V30 29 H -1.67773 -2.83808 -0.498135 0
M  V30 30 H -3.2866 -1.14517 -0.0605649 0
M  V30 31 H -4.11238 -1.21825 1.50523 0
M  V30 32 H -3.03428 0.748629 1.73167 0
M  V30 33 H -1.89848 -0.329772 2.56016 0
M  V30 34 H -0.432089 3.19928 -0.597957 0
M  V30 35 H -1.16125 2.89716 -2.07653 0
M  V30 END ATOM
M  V30 BEGIN BOND
M  V30 1 1 1 2
M  V30 2 2 2 3
M  V30 3 1 3 4
M  V30 4 2 4 5
M  V30 5 1 5 6
M  V30 6 2 6 7
M  V30 7 1 5 8
M  V30 8 1 8 9
M  V30 9 1 9 10
M  V30 10 1 10 11
M  V30 11 1 11 12
M  V30 12 1 12 13
M  V30 13 1 13 14
M  V30 14 1 14 15
M  V30 15 2 15 16
M  V30 16 2 15 17
M  V30 17 1 15 18
M  V30 18 1 7 2
M  V30 19 1 14 8
M  V30 20 1 1 19
M  V30 21 1 1 20
M  V30 22 1 3 21
M  V30 23 1 4 22
M  V30 24 1 6 23
M  V30 25 1 7 24
M  V30 26 1 8 25 CFG=3
M  V30 27 1 9 26
M  V30 28 1 9 27
M  V30 29 1 10 28
M  V30 30 1 10 29
M  V30 31 1 12 30
M  V30 32 1 12 31
M  V30 33 1 13 32
M  V30 34 1 13 33
M  V30 35 1 18 34
M  V30 36 1 18 35
M  V30 END BOND
M  V30 END CTAB
M  END
