
     RDKit          3D

  0  0  0  0  0  0  0  0  0  0999 V3000
M  V30 BEGIN CTAB
M  V30 COUNTS 34 35 0 0 0
M  V30 BEGIN ATOM
M  V30 1 C -4.04842 -1.98005 -0.392232 0
M  V30 2 C -2.7219 -1.38048 0.12909 0
M  V30 3 C -1.91986 -0.977449 -1.04922 0
M  V30 4 C -0.618258 -0.372505 -0.675742 0
M  V30 5 N 0.435291 -1.23259 -0.54943 0
M  V30 6 C 1.67178 -0.881705 -0.198869 0
M  V30 7 C 1.9345 0.44776 0.063177 0
M  V30 8 C 0.903737 1.34979 -0.0518416 0
M  V30 9 C -0.388873 0.943874 -0.425222 0
M  V30 10 C -1.42113 1.98575 -0.555748 0
M  V30 11 C -2.33806 2.18498 0.586238 0
M  V30 12 C 3.21227 0.811579 0.426423 0
M  V30 13 N 3.5026 2.17286 0.701784 0
M  V30 14 N 4.20945 -0.0821696 0.534191 0
M  V30 15 C 3.93088 -1.388 0.272605 0
M  V30 16 N 4.99688 -2.31743 0.391058 0
M  V30 17 N 2.68193 -1.77579 -0.0873357 0
M  V30 18 H -4.38516 -2.71501 0.34784 0
M  V30 19 H -3.89613 -2.43037 -1.39658 0
M  V30 20 H -4.74175 -1.11905 -0.474378 0
M  V30 21 H -2.17286 -2.24945 0.605451 0
M  V30 22 H -2.93837 -0.655422 0.884845 0
M  V30 23 H -1.74963 -1.91824 -1.65965 0
M  V30 24 H -2.46772 -0.315933 -1.75859 0
M  V30 25 H 1.10606 2.39042 0.152519 0
M  V30 26 H -1.98224 1.8312 -1.53622 0
M  V30 27 H -0.904314 2.97623 -0.735665 0
M  V30 28 H -3.40021 1.94425 0.317356 0
M  V30 29 H -2.38146 3.22893 0.966361 0
M  V30 30 H -2.05777 1.53802 1.45763 0
M  V30 31 H 3.73691 2.80698 -0.0952191 0
M  V30 32 H 3.46712 2.49098 1.69857 0
M  V30 33 H 5.77938 -2.13178 1.02904 0
M  V30 34 H 4.96532 -3.18019 -0.180716 0
M  V30 END ATOM
M  V30 BEGIN BOND
M  V30 1 1 1 2
M  V30 2 1 2 3
M  V30 3 1 3 4
M  V30 4 2 4 5
M  V30 5 1 5 6
M  V30 6 2 6 7
M  V30 7 1 7 8
M  V30 8 2 8 9
M  V30 9 1 9 10
M  V30 10 1 10 11
M  V30 11 1 7 12
M  V30 12 1 12 13
M  V30 13 2 12 14
M  V30 14 1 14 15
M  V30 15 1 15 16
M  V30 16 2 15 17
M  V30 17 1 9 4
M  V30 18 1 17 6
M  V30 19 1 1 18
M  V30 20 1 1 19
M  V30 21 1 1 20
M  V30 22 1 2 21
M  V30 23 1 2 22
M  V30 24 1 3 23
M  V30 25 1 3 24
M  V30 26 1 8 25
M  V30 27 1 10 26
M  V30 28 1 10 27
M  V30 29 1 11 28
M  V30 30 1 11 29
M  V30 31 1 11 30
M  V30 32 1 13 31
M  V30 33 1 13 32
M  V30 34 1 16 33
M  V30 35 1 16 34
M  V30 END BOND
M  V30 END CTAB
M  END
