
     RDKit          3D

  0  0  0  0  0  0  0  0  0  0999 V3000
M  V30 BEGIN CTAB
M  V30 COUNTS 16 16 0 0 0
M  V30 BEGIN ATOM
M  V30 1 N 2.74617 -0.665219 0.197801 0
M  V30 2 C 1.36111 -0.351192 0.101331 0
M  V30 3 C 0.910902 0.933427 -0.12205 0
M  V30 4 Cl 2.09625 2.20906 -0.290293 0
M  V30 5 C -0.432954 1.22416 -0.213368 0
M  V30 6 Cl -1.00768 2.86638 -0.498911 0
M  V30 7 C -1.40022 0.22924 -0.083552 0
M  V30 8 N -2.78454 0.520827 -0.17634 0
M  V30 9 C -0.932383 -1.05091 0.139682 0
M  V30 10 C 0.40575 -1.33709 0.230076 0
M  V30 11 H 3.2113 -0.75703 1.14916 0
M  V30 12 H 3.36856 -0.819094 -0.618258 0
M  V30 13 H -3.35152 -0.0499798 -0.831397 0
M  V30 14 H -3.26936 1.2622 0.362657 0
M  V30 15 H -1.65911 -1.8563 0.246619 0
M  V30 16 H 0.737726 -2.35848 0.40684 0
M  V30 END ATOM
M  V30 BEGIN BOND
M  V30 1 1 1 2
M  V30 2 2 2 3
M  V30 3 1 3 4
M  V30 4 1 3 5
M  V30 5 1 5 6
M  V30 6 2 5 7
M  V30 7 1 7 8
M  V30 8 1 7 9
M  V30 9 2 9 10
M  V30 10 1 10 2
M  V30 11 1 1 11
M  V30 12 1 1 12
M  V30 13 1 8 13
M  V30 14 1 8 14
M  V30 15 1 9 15
M  V30 16 1 10 16
M  V30 END BOND
M  V30 END CTAB
M  END
