
     RDKit          3D

  0  0  0  0  0  0  0  0  0  0999 V3000
M  V30 BEGIN CTAB
M  V30 COUNTS 34 35 0 0 0
M  V30 BEGIN ATOM
M  V30 1 O -2.85537 -2.95911 -0.983844 0
M  V30 2 C -2.33101 -2.09174 -0.0226406 0
M  V30 3 C -2.64799 -0.659688 -0.146619 0
M  V30 4 C -3.86958 -0.0872867 -0.431986 0
M  V30 5 C -4.04162 1.2773 -0.325161 0
M  V30 6 N -5.36975 1.80157 -0.426478 0
M  V30 7 C -2.99865 2.06172 0.0540782 0
M  V30 8 C -1.77138 1.5238 0.343267 0
M  V30 9 C -1.54128 0.157558 0.26051 0
M  V30 10 O -0.422001 -0.43811 0.505022 0
M  V30 11 C 0.717472 -0.944911 0.77364 0
M  V30 12 C 2.0295 -0.410567 0.318098 0
M  V30 13 C 2.28374 0.831649 -0.142329 0
M  V30 14 C 3.6289 1.2877 -0.364188 0
M  V30 15 C 4.66687 0.468467 -0.117846 0
M  V30 16 C 4.43416 -0.831609 0.352795 0
M  V30 17 C 3.13826 -1.24913 0.558806 0
M  V30 18 N 6.03646 0.850976 -0.217885 0
M  V30 19 H -2.01803 -3.06856 -1.63722 0
M  V30 20 H -1.58727 -2.4144 0.683522 0
M  V30 21 H -3.30043 -2.33842 0.788255 0
M  V30 22 H -4.736 -0.722179 -0.703302 0
M  V30 23 H -5.59733 2.66133 -0.918346 0
M  V30 24 H -6.13043 1.2601 0.0841698 0
M  V30 25 H -3.14787 3.16116 0.0968428 0
M  V30 26 H -0.911211 2.15577 0.609529 0
M  V30 27 H 0.73752 -2.03662 0.265532 0
M  V30 28 H 0.906394 -1.30499 1.85583 0
M  V30 29 H 1.51336 1.52656 -0.352458 0
M  V30 30 H 3.84172 2.29515 -0.685268 0
M  V30 31 H 5.25427 -1.49998 0.531685 0
M  V30 32 H 2.91148 -2.2748 0.857814 0
M  V30 33 H 6.79841 0.184475 -0.510057 0
M  V30 34 H 6.37868 1.82683 0.0575349 0
M  V30 END ATOM
M  V30 BEGIN BOND
M  V30 1 1 1 2
M  V30 2 1 2 3
M  V30 3 2 3 4
M  V30 4 1 4 5
M  V30 5 1 5 6
M  V30 6 2 5 7
M  V30 7 1 7 8
M  V30 8 2 8 9
M  V30 9 1 9 10
M  V30 10 1 10 11
M  V30 11 1 11 12
M  V30 12 2 12 13
M  V30 13 1 13 14
M  V30 14 2 14 15
M  V30 15 1 15 16
M  V30 16 2 16 17
M  V30 17 1 15 18
M  V30 18 1 9 3
M  V30 19 1 17 12
M  V30 20 1 1 19
M  V30 21 1 2 20
M  V30 22 1 2 21
M  V30 23 1 4 22
M  V30 24 1 6 23
M  V30 25 1 6 24
M  V30 26 1 7 25
M  V30 27 1 8 26
M  V30 28 1 11 27
M  V30 29 1 11 28
M  V30 30 1 13 29
M  V30 31 1 14 30
M  V30 32 1 16 31
M  V30 33 1 17 32
M  V30 34 1 18 33
M  V30 35 1 18 34
M  V30 END BOND
M  V30 END CTAB
M  END
