
     RDKit          3D

  0  0  0  0  0  0  0  0  0  0999 V3000
M  V30 BEGIN CTAB
M  V30 COUNTS 36 40 0 0 0
M  V30 BEGIN ATOM
M  V30 1 N 6.57306 1.88635 -0.371142 0
M  V30 2 C 5.29995 1.24667 -0.267039 0
M  V30 3 N 4.15384 1.94595 -0.181837 0
M  V30 4 C 2.94744 1.33572 -0.0831642 0
M  V30 5 C 2.93225 -0.0522085 -0.072706 0
M  V30 6 C 1.69715 -0.680793 0.0283395 0
M  V30 7 C 0.51144 0.0431323 0.116482 0
M  V30 8 C 0.570149 1.41975 0.102689 0
M  V30 9 C 1.77841 2.04782 0.00375092 0
M  V30 10 N -0.526854 -0.790609 0.203462 0
M  V30 11 C -0.0417126 -2.0321 0.17371 0
M  V30 12 C 1.34968 -2.00407 0.0644199 0
M  V30 13 C -1.92338 -0.436586 0.31059 0
M  V30 14 N -2.93419 -0.841816 -0.435488 0
M  V30 15 C -4.14175 -0.413718 -0.190994 0
M  V30 16 C -4.30534 0.455781 0.852543 0
M  V30 17 S -2.70228 0.607368 1.42432 0
M  V30 18 C -5.56349 0.974327 1.19757 0
M  V30 19 C -6.69023 0.620348 0.4876 0
M  V30 20 C -6.50648 -0.253186 -0.556138 0
M  V30 21 C -5.30422 -0.764131 -0.905054 0
M  V30 22 C 4.09655 -0.775383 -0.159175 0
M  V30 23 N 4.15296 -2.1736 -0.154256 0
M  V30 24 N 5.26079 -0.0976672 -0.254993 0
M  V30 25 H 7.44091 1.40481 -0.0585808 0
M  V30 26 H 6.66196 2.84497 -0.760414 0
M  V30 27 H -0.372967 1.96397 0.173012 0
M  V30 28 H 1.827 3.14475 -0.00738233 0
M  V30 29 H -0.601539 -2.95518 0.22377 0
M  V30 30 H 1.94632 -2.89035 0.0235541 0
M  V30 31 H -5.59253 1.64372 2.02409 0
M  V30 32 H -7.66823 0.983077 0.705556 0
M  V30 33 H -7.4049 -0.533278 -1.11954 0
M  V30 34 H -5.27267 -1.44755 -1.74844 0
M  V30 35 H 4.25424 -2.66668 0.764835 0
M  V30 36 H 4.09868 -2.7596 -1.03044 0
M  V30 END ATOM
M  V30 BEGIN BOND
M  V30 1 1 1 2
M  V30 2 2 2 3
M  V30 3 1 3 4
M  V30 4 2 4 5
M  V30 5 1 5 6
M  V30 6 2 6 7
M  V30 7 1 7 8
M  V30 8 2 8 9
M  V30 9 1 7 10
M  V30 10 1 10 11
M  V30 11 2 11 12
M  V30 12 1 10 13
M  V30 13 2 13 14
M  V30 14 1 14 15
M  V30 15 2 15 16
M  V30 16 1 16 17
M  V30 17 1 16 18
M  V30 18 2 18 19
M  V30 19 1 19 20
M  V30 20 2 20 21
M  V30 21 1 5 22
M  V30 22 1 22 23
M  V30 23 2 22 24
M  V30 24 1 24 2
M  V30 25 1 9 4
M  V30 26 1 17 13
M  V30 27 1 12 6
M  V30 28 1 21 15
M  V30 29 1 1 25
M  V30 30 1 1 26
M  V30 31 1 8 27
M  V30 32 1 9 28
M  V30 33 1 11 29
M  V30 34 1 12 30
M  V30 35 1 18 31
M  V30 36 1 19 32
M  V30 37 1 20 33
M  V30 38 1 21 34
M  V30 39 1 23 35
M  V30 40 1 23 36
M  V30 END BOND
M  V30 END CTAB
M  END
