
     RDKit          3D

  0  0  0  0  0  0  0  0  0  0999 V3000
M  V30 BEGIN CTAB
M  V30 COUNTS 60 64 0 0 0
M  V30 BEGIN ATOM
M  V30 1 N -3.31245 2.75301 -0.0611096 0
M  V30 2 C -3.04683 1.61249 0.0105573 0
M  V30 3 C -2.7881 0.211031 0.115961 0
M  V30 4 C -3.85205 -0.671453 0.278359 0
M  V30 5 N -3.6264 -1.98615 0.406075 0
M  V30 6 C -2.39035 -2.4961 0.382091 0
M  V30 7 C -1.29379 -1.65583 0.221598 0
M  V30 8 C -1.51643 -0.296781 0.0894603 0
M  V30 9 C -0.424109 0.570914 -0.0672124 0
M  V30 10 C -0.26442 2.03202 -0.226343 0
M  V30 11 C 1.22103 2.19898 -0.332741 0
M  V30 12 O 1.7447 3.33803 -0.485091 0
M  V30 13 N 1.86277 0.955306 -0.239202 0
M  V30 14 C 0.824863 -0.0155482 -0.078012 0
M  V30 15 N 1.00696 -1.35512 0.0537078 0
M  V30 16 C -0.0219143 -2.19242 0.203479 0
M  V30 17 N 0.19178 -3.59303 0.343231 0
M  V30 18 C 3.26646 0.753469 -0.296355 0
M  V30 19 C 4.02098 1.24208 -1.36303 0
M  V30 20 C 5.38845 1.05481 -1.40797 0
M  V30 21 C 6.07033 0.38696 -0.419403 0
M  V30 22 C 5.32637 -0.0970393 0.63562 0
M  V30 23 C 3.95397 0.0843181 0.692525 0
M  V30 24 C 7.54345 0.184088 -0.450285 0
M  V30 25 C 7.93145 -1.27458 -0.393543 0
M  V30 26 C 8.1558 0.939298 0.724965 0
M  V30 27 N -2.16735 -3.87656 0.51313 0
M  V30 28 N -5.21363 -0.181378 0.276819 0
M  V30 29 C -5.88265 -0.100684 -0.986787 0
M  V30 30 C -6.53423 1.20726 -1.20967 0
M  V30 31 C -7.17682 1.75806 0.0100958 0
M  V30 32 C -7.19073 0.823003 1.18379 0
M  V30 33 C -5.86792 0.197628 1.48488 0
M  V30 34 H -0.645433 2.43593 -1.17096 0
M  V30 35 H -0.519621 2.60698 0.689462 0
M  V30 36 H 0.321689 -3.97124 1.29682 0
M  V30 37 H 0.2196 -4.21107 -0.480839 0
M  V30 38 H 3.46399 1.76676 -2.13371 0
M  V30 39 H 5.9576 1.44804 -2.25647 0
M  V30 40 H 5.88824 -0.625615 1.41095 0
M  V30 41 H 3.42676 -0.313763 1.5366 0
M  V30 42 H 7.98821 0.622281 -1.36079 0
M  V30 43 H 9.05148 -1.29216 -0.321551 0
M  V30 44 H 7.56944 -1.751 0.542306 0
M  V30 45 H 7.53907 -1.76056 -1.30049 0
M  V30 46 H 9.18541 1.22289 0.459266 0
M  V30 47 H 7.50561 1.81745 0.884991 0
M  V30 48 H 8.10801 0.258258 1.60302 0
M  V30 49 H -2.03344 -4.29861 1.44472 0
M  V30 50 H -2.14236 -4.47099 -0.331034 0
M  V30 51 H -5.21445 -0.406501 -1.83639 0
M  V30 52 H -6.68879 -0.878542 -0.98334 0
M  V30 53 H -5.75006 1.93136 -1.59586 0
M  V30 54 H -7.27269 1.1083 -2.06977 0
M  V30 55 H -6.80106 2.75723 0.284728 0
M  V30 56 H -8.26884 1.92261 -0.240703 0
M  V30 57 H -7.95916 0.0297713 0.97229 0
M  V30 58 H -7.55869 1.42125 2.0524 0
M  V30 59 H -6.07835 -0.711912 2.12555 0
M  V30 60 H -5.2314 0.832748 2.14546 0
M  V30 END ATOM
M  V30 BEGIN BOND
M  V30 1 3 1 2
M  V30 2 1 2 3
M  V30 3 2 3 4
M  V30 4 1 4 5
M  V30 5 2 5 6
M  V30 6 1 6 7
M  V30 7 2 7 8
M  V30 8 1 8 9
M  V30 9 1 9 10
M  V30 10 1 10 11
M  V30 11 2 11 12
M  V30 12 1 11 13
M  V30 13 1 13 14
M  V30 14 1 14 15
M  V30 15 2 15 16
M  V30 16 1 16 17
M  V30 17 1 13 18
M  V30 18 2 18 19
M  V30 19 1 19 20
M  V30 20 2 20 21
M  V30 21 1 21 22
M  V30 22 2 22 23
M  V30 23 1 21 24
M  V30 24 1 24 25
M  V30 25 1 24 26
M  V30 26 1 6 27
M  V30 27 1 4 28
M  V30 28 1 28 29
M  V30 29 1 29 30
M  V30 30 1 30 31
M  V30 31 1 31 32
M  V30 32 1 32 33
M  V30 33 1 8 3
M  V30 34 2 14 9
M  V30 35 1 23 18
M  V30 36 1 33 28
M  V30 37 1 16 7
M  V30 38 1 10 34
M  V30 39 1 10 35
M  V30 40 1 17 36
M  V30 41 1 17 37
M  V30 42 1 19 38
M  V30 43 1 20 39
M  V30 44 1 22 40
M  V30 45 1 23 41
M  V30 46 1 24 42
M  V30 47 1 25 43
M  V30 48 1 25 44
M  V30 49 1 25 45
M  V30 50 1 26 46
M  V30 51 1 26 47
M  V30 52 1 26 48
M  V30 53 1 27 49
M  V30 54 1 27 50
M  V30 55 1 29 51
M  V30 56 1 29 52
M  V30 57 1 30 53
M  V30 58 1 30 54
M  V30 59 1 31 55
M  V30 60 1 31 56
M  V30 61 1 32 57
M  V30 62 1 32 58
M  V30 63 1 33 59
M  V30 64 1 33 60
M  V30 END BOND
M  V30 END CTAB
M  END
