
     RDKit          3D

  0  0  0  0  0  0  0  0  0  0999 V3000
M  V30 BEGIN CTAB
M  V30 COUNTS 33 34 0 0 0
M  V30 BEGIN ATOM
M  V30 1 C -3.42675 -2.43253 0.745427 0
M  V30 2 O -3.48238 -1.0803 0.395796 0
M  V30 3 C -2.35039 -0.353315 -0.000117379 0
M  V30 4 C -1.10756 -0.929128 -0.0694033 0
M  V30 5 C 0.037832 -0.200047 -0.468268 0
M  V30 6 C -0.167133 1.1155 -0.782146 0
M  V30 7 C -1.43164 1.72191 -0.71678 0
M  V30 8 C -2.52225 0.975792 -0.322823 0
M  V30 9 O -3.80419 1.5187 -0.237419 0
M  V30 10 C -4.09083 2.8554 -0.541567 0
M  V30 11 C 1.26584 -0.969581 -0.504779 0
M  V30 12 C 2.53277 -0.271815 -0.310463 0
M  V30 13 N 2.8532 1.01378 -0.317464 0
M  V30 14 N 4.13368 1.17129 -0.0887835 0
M  V30 15 C 4.69296 -0.0348654 0.0767814 0
M  V30 16 N 3.71884 -0.918968 -0.0578475 0
M  V30 17 N 6.07673 -0.28179 0.345683 0
M  V30 18 N 1.21682 -1.97561 0.597006 0
M  V30 19 H -2.9696 -2.62278 1.74062 0
M  V30 20 H -2.84444 -2.9793 -0.0271537 0
M  V30 21 H -4.47466 -2.84619 0.687081 0
M  V30 22 H -1.03433 -1.98479 0.198235 0
M  V30 23 H 0.675066 1.70159 -1.10465 0
M  V30 24 H -1.5341 2.7521 -0.972432 0
M  V30 25 H -4.10492 2.97806 -1.62895 0
M  V30 26 H -3.40094 3.56798 -0.0352869 0
M  V30 27 H -5.10515 3.08408 -0.136927 0
M  V30 28 H 1.31496 -1.51557 -1.47284 0
M  V30 29 H 4.68737 2.08223 -0.0333312 0
M  V30 30 H 6.35685 -1.20564 0.728303 0
M  V30 31 H 6.80349 0.424111 0.173095 0
M  V30 32 H 0.821339 -2.82849 0.185419 0
M  V30 33 H 0.66353 -1.53184 1.33639 0
M  V30 END ATOM
M  V30 BEGIN BOND
M  V30 1 1 1 2
M  V30 2 1 2 3
M  V30 3 2 3 4
M  V30 4 1 4 5
M  V30 5 2 5 6
M  V30 6 1 6 7
M  V30 7 2 7 8
M  V30 8 1 8 9
M  V30 9 1 9 10
M  V30 10 1 5 11
M  V30 11 1 11 12
M  V30 12 2 12 13
M  V30 13 1 13 14
M  V30 14 1 14 15
M  V30 15 2 15 16
M  V30 16 1 15 17
M  V30 17 1 11 18
M  V30 18 1 8 3
M  V30 19 1 16 12
M  V30 20 1 1 19
M  V30 21 1 1 20
M  V30 22 1 1 21
M  V30 23 1 4 22
M  V30 24 1 6 23
M  V30 25 1 7 24
M  V30 26 1 10 25
M  V30 27 1 10 26
M  V30 28 1 10 27
M  V30 29 1 11 28
M  V30 30 1 14 29
M  V30 31 1 17 30
M  V30 32 1 17 31
M  V30 33 1 18 32
M  V30 34 1 18 33
M  V30 END BOND
M  V30 END CTAB
M  END
