
     RDKit          3D

  0  0  0  0  0  0  0  0  0  0999 V3000
M  V30 BEGIN CTAB
M  V30 COUNTS 59 62 0 0 0
M  V30 BEGIN ATOM
M  V30 1 C -6.21866 3.25114 2.01681 0
M  V30 2 C -5.66811 1.80415 1.97349 0
M  V30 3 C -4.4583 1.71109 1.28726 0
M  V30 4 N -3.26667 1.64052 0.646923 0
M  V30 5 C -2.12239 1.94345 0.0824046 0
M  V30 6 O -1.58562 3.14034 -0.0176929 0
M  V30 7 C -1.24733 0.90729 -0.518061 0
M  V30 8 C -0.00337863 1.01071 -0.865295 0
M  V30 9 N 0.760365 2.26499 -0.628127 0
M  V30 10 N 0.497698 -0.129195 -1.36745 0
M  V30 11 C -0.462117 -1.03587 -1.35427 0
M  V30 12 C -1.60143 -0.445105 -0.824415 0
M  V30 13 N -2.74877 -1.17704 -0.626897 0
M  V30 14 C -2.6331 -2.50881 -1.00955 0
M  V30 15 C -3.7212 -3.28047 -0.810645 0
M  V30 16 C -3.93446 -4.58011 -1.03198 0
M  V30 17 C -2.70873 -5.18506 -1.60879 0
M  V30 18 C -1.59117 -4.46247 -1.83384 0
M  V30 19 C -1.50754 -3.07566 -1.5339 0
M  V30 20 N -0.416142 -2.34821 -1.70947 0
M  V30 21 C 1.95916 -0.170334 -1.6082 0
M  V30 22 C 2.48589 -0.331586 -0.192583 0
M  V30 23 C 3.91146 -0.274462 0.00364386 0
M  V30 24 C 4.72869 -1.26693 0.336127 0
M  V30 25 C 6.08996 -1.02536 0.599068 0
M  V30 26 C 6.68414 0.181794 0.526251 0
M  V30 27 C 5.7958 1.29509 0.124757 0
M  V30 28 C 4.52761 1.02205 -0.0911821 0
M  V30 29 S 8.34635 0.587245 0.774201 0
M  V30 30 O 9.06104 -0.49564 1.53397 0
M  V30 31 O 8.38224 1.82983 1.67996 0
M  V30 32 N 9.19753 0.969806 -0.62259 0
M  V30 33 C -6.78405 0.991925 1.19447 0
M  V30 34 H -5.83978 3.74482 2.90359 0
M  V30 35 H -7.30522 3.16102 1.97707 0
M  V30 36 H -5.87986 3.70909 1.03623 0
M  V30 37 H -5.73127 1.4636 3.02688 0
M  V30 38 H -4.27707 0.436418 1.74659 0
M  V30 39 H -3.71209 1.99521 2.45519 0
M  V30 40 H -3.5799 3.12903 0.459785 0
M  V30 41 H 1.15746 2.73031 -1.43234 0
M  V30 42 H 0.783086 2.5791 0.33142 0
M  V30 43 H -4.655 -2.77569 -0.405542 0
M  V30 44 H -4.74474 -5.207 -0.90641 0
M  V30 45 H -2.87037 -6.22543 -1.7781 0
M  V30 46 H -0.757472 -4.95455 -2.26307 0
M  V30 47 H 2.26052 0.760635 -2.05168 0
M  V30 48 H 2.1731 -1.06869 -2.18821 0
M  V30 49 H 2.16884 -1.38452 0.138031 0
M  V30 50 H 1.9645 0.462402 0.401551 0
M  V30 51 H 4.33478 -2.28006 0.480696 0
M  V30 52 H 6.68755 -1.87844 0.882835 0
M  V30 53 H 6.29724 2.23021 0.0812613 0
M  V30 54 H 3.7999 1.82505 -0.313449 0
M  V30 55 H 9.33077 0.348165 -1.3947 0
M  V30 56 H 9.58578 1.90137 -0.694361 0
M  V30 57 H -7.72338 1.44015 1.42377 0
M  V30 58 H -6.71793 -0.0853111 1.45337 0
M  V30 59 H -6.49825 1.184 0.105188 0
M  V30 END ATOM
M  V30 BEGIN BOND
M  V30 1 1 1 2
M  V30 2 1 2 3
M  V30 3 1 3 4
M  V30 4 1 4 5
M  V30 5 2 5 6
M  V30 6 1 5 7
M  V30 7 2 7 8
M  V30 8 1 8 9
M  V30 9 1 8 10
M  V30 10 1 10 11
M  V30 11 2 11 12
M  V30 12 1 12 13
M  V30 13 2 13 14
M  V30 14 1 14 15
M  V30 15 2 15 16
M  V30 16 1 16 17
M  V30 17 2 17 18
M  V30 18 1 18 19
M  V30 19 2 19 20
M  V30 20 1 10 21
M  V30 21 1 21 22
M  V30 22 1 22 23
M  V30 23 2 23 24
M  V30 24 1 24 25
M  V30 25 2 25 26
M  V30 26 1 26 27
M  V30 27 2 27 28
M  V30 28 1 26 29
M  V30 29 2 29 30
M  V30 30 2 29 31
M  V30 31 1 29 32
M  V30 32 1 2 33
M  V30 33 1 12 7
M  V30 34 1 19 14
M  V30 35 1 28 23
M  V30 36 1 20 11
M  V30 37 1 1 34
M  V30 38 1 1 35
M  V30 39 1 1 36
M  V30 40 1 2 37
M  V30 41 1 3 38
M  V30 42 1 3 39
M  V30 43 1 4 40
M  V30 44 1 9 41
M  V30 45 1 9 42
M  V30 46 1 15 43
M  V30 47 1 16 44
M  V30 48 1 17 45
M  V30 49 1 18 46
M  V30 50 1 21 47
M  V30 51 1 21 48
M  V30 52 1 22 49
M  V30 53 1 22 50
M  V30 54 1 24 51
M  V30 55 1 25 52
M  V30 56 1 27 53
M  V30 57 1 28 54
M  V30 58 1 32 55
M  V30 59 1 32 56
M  V30 60 1 33 57
M  V30 61 1 33 58
M  V30 62 1 33 59
M  V30 END BOND
M  V30 END CTAB
M  END
