
     RDKit          3D

  0  0  0  0  0  0  0  0  0  0999 V3000
M  V30 BEGIN CTAB
M  V30 COUNTS 42 43 0 0 0
M  V30 BEGIN ATOM
M  V30 1 C -3.44037 2.84974 2.70064 0
M  V30 2 C -2.27406 2.15582 2.06361 0
M  V30 3 O -2.64077 1.10218 1.22615 0
M  V30 4 C -1.65274 0.372002 0.570359 0
M  V30 5 C -0.338632 0.67124 0.734725 0
M  V30 6 C 0.697909 0.00316403 0.126661 0
M  V30 7 C 0.361885 -1.04079 -0.704552 0
M  V30 8 C -0.978161 -1.37589 -0.896411 0
M  V30 9 C -1.99088 -0.691126 -0.276578 0
M  V30 10 O -3.3371 -0.933775 -0.394538 0
M  V30 11 C -3.86933 -1.94226 -1.2031 0
M  V30 12 C -3.55918 -1.79636 -2.65532 0
M  V30 13 C 2.11009 0.398524 0.363329 0
M  V30 14 C 2.67872 0.948609 -0.878631 0
M  V30 15 C 3.59516 0.408745 -1.61063 0
M  V30 16 N 4.05998 1.02863 -2.77736 0
M  V30 17 S 4.28115 -1.15552 -1.12613 0
M  V30 18 C 3.83256 -1.395 0.585866 0
M  V30 19 C 2.87351 -0.629974 1.04718 0
M  V30 20 C 2.53636 -0.8568 2.45066 0
M  V30 21 N 2.27446 -1.01802 3.5695 0
M  V30 22 N 4.50352 -2.38223 1.39533 0
M  V30 23 C 2.14256 2.22234 -1.30577 0
M  V30 24 N 1.70891 3.24337 -1.66162 0
M  V30 25 H -3.67216 2.38575 3.66235 0
M  V30 26 H -4.34414 2.80881 2.05933 0
M  V30 27 H -3.23141 3.92305 2.89274 0
M  V30 28 H -1.68309 2.90559 1.48298 0
M  V30 29 H -1.59471 1.83239 2.89344 0
M  V30 30 H -0.0842354 1.50425 1.39898 0
M  V30 31 H 1.11727 -1.61495 -1.21889 0
M  V30 32 H -1.23067 -2.21179 -1.55406 0
M  V30 33 H -4.99071 -1.91606 -1.07851 0
M  V30 34 H -3.5996 -2.96631 -0.811328 0
M  V30 35 H -3.04373 -2.6805 -3.05498 0
M  V30 36 H -4.45582 -1.63213 -3.28758 0
M  V30 37 H -2.85783 -0.928182 -2.76567 0
M  V30 38 H 2.07682 1.27548 1.08144 0
M  V30 39 H 4.78588 1.76675 -2.72306 0
M  V30 40 H 3.67982 0.751056 -3.69507 0
M  V30 41 H 5.42096 -2.07004 1.80493 0
M  V30 42 H 4.13181 -3.3198 1.56961 0
M  V30 END ATOM
M  V30 BEGIN BOND
M  V30 1 1 1 2
M  V30 2 1 2 3
M  V30 3 1 3 4
M  V30 4 2 4 5
M  V30 5 1 5 6
M  V30 6 2 6 7
M  V30 7 1 7 8
M  V30 8 2 8 9
M  V30 9 1 9 10
M  V30 10 1 10 11
M  V30 11 1 11 12
M  V30 12 1 6 13
M  V30 13 1 13 14
M  V30 14 2 14 15
M  V30 15 1 15 16
M  V30 16 1 15 17
M  V30 17 1 17 18
M  V30 18 2 18 19
M  V30 19 1 19 20
M  V30 20 3 20 21
M  V30 21 1 18 22
M  V30 22 1 14 23
M  V30 23 3 23 24
M  V30 24 1 9 4
M  V30 25 1 19 13
M  V30 26 1 1 25
M  V30 27 1 1 26
M  V30 28 1 1 27
M  V30 29 1 2 28
M  V30 30 1 2 29
M  V30 31 1 5 30
M  V30 32 1 7 31
M  V30 33 1 8 32
M  V30 34 1 11 33
M  V30 35 1 11 34
M  V30 36 1 12 35
M  V30 37 1 12 36
M  V30 38 1 12 37
M  V30 39 1 13 38
M  V30 40 1 16 39
M  V30 41 1 16 40
M  V30 42 1 22 41
M  V30 43 1 22 42
M  V30 END BOND
M  V30 END CTAB
M  END
