
     RDKit          3D

  0  0  0  0  0  0  0  0  0  0999 V3000
M  V30 BEGIN CTAB
M  V30 COUNTS 27 26 0 0 0
M  V30 BEGIN ATOM
M  V30 1 C -1.70842 2.15682 0.141096 0
M  V30 2 C -1.95024 1.01559 0.755491 0
M  V30 3 C -1.58047 -0.299974 0.189628 0
M  V30 4 C -0.234575 -0.266262 -0.436918 0
M  V30 5 N 0.766388 0.100681 0.529655 0
M  V30 6 C 2.16639 0.122596 0.210908 0
M  V30 7 N 2.82485 1.20857 0.022452 0
M  V30 8 N 4.18398 1.14199 -0.28409 0
M  V30 9 N 2.89532 -1.10695 0.0957376 0
M  V30 10 C -1.53401 -1.34359 1.31408 0
M  V30 11 C -2.67202 -0.704119 -0.780755 0
M  V30 12 H -1.2264 2.20675 -0.812727 0
M  V30 13 H -1.99879 3.10395 0.590049 0
M  V30 14 H -2.44397 1.04564 1.72264 0
M  V30 15 H -0.270259 0.489291 -1.26914 0
M  V30 16 H 0.00301432 -1.25163 -0.916679 0
M  V30 17 H 0.52501 0.375716 1.50396 0
M  V30 18 H 4.70088 2.05341 -0.380364 0
M  V30 19 H 4.65707 0.228793 -0.411749 0
M  V30 20 H 2.58521 -1.8426 -0.583163 0
M  V30 21 H 3.74162 -1.32784 0.660687 0
M  V30 22 H -1.28314 -2.31219 0.876344 0
M  V30 23 H -2.50434 -1.32733 1.86111 0
M  V30 24 H -0.760575 -1.06306 2.04053 0
M  V30 25 H -3.36994 -1.36853 -0.249504 0
M  V30 26 H -2.26156 -1.20824 -1.67922 0
M  V30 27 H -3.25102 0.172521 -1.133 0
M  V30 END ATOM
M  V30 BEGIN BOND
M  V30 1 2 1 2 CFG=2
M  V30 2 1 2 3
M  V30 3 1 3 4
M  V30 4 1 4 5
M  V30 5 1 5 6
M  V30 6 2 6 7
M  V30 7 1 7 8
M  V30 8 1 6 9
M  V30 9 1 3 10
M  V30 10 1 3 11
M  V30 11 1 1 12
M  V30 12 1 1 13
M  V30 13 1 2 14
M  V30 14 1 4 15
M  V30 15 1 4 16
M  V30 16 1 5 17
M  V30 17 1 8 18
M  V30 18 1 8 19
M  V30 19 1 9 20
M  V30 20 1 9 21
M  V30 21 1 10 22
M  V30 22 1 10 23
M  V30 23 1 10 24
M  V30 24 1 11 25
M  V30 25 1 11 26
M  V30 26 1 11 27
M  V30 END BOND
M  V30 END CTAB
M  END
