
     RDKit          3D

  0  0  0  0  0  0  0  0  0  0999 V3000
M  V30 BEGIN CTAB
M  V30 COUNTS 63 66 0 0 0
M  V30 BEGIN ATOM
M  V30 1 C -1.25428 -4.87805 0.903643 0
M  V30 2 O -2.33951 -4.04896 0.906078 0
M  V30 3 C -2.09612 -2.85764 0.280327 0
M  V30 4 C -1.00284 -2.08914 0.963492 0
M  V30 5 N -0.735595 -0.800341 0.309762 0
M  V30 6 C -1.44401 0.37371 0.711425 0
M  V30 7 C -1.22624 0.865213 1.98776 0
M  V30 8 O -0.413584 0.299868 2.79615 0
M  V30 9 N -1.90769 1.96375 2.3381 0
M  V30 10 C -2.77792 2.59031 1.50733 0
M  V30 11 O -3.34694 3.62819 1.99233 0
M  V30 12 N -3.01833 2.14528 0.261938 0
M  V30 13 C -2.34417 1.04223 -0.115276 0
M  V30 14 N -2.49873 0.519991 -1.41934 0
M  V30 15 C -3.91666 2.79747 -0.638484 0
M  V30 16 C -5.33119 2.43298 -0.579815 0
M  V30 17 C -5.94413 1.38022 -1.19845 0
M  V30 18 C -7.30467 1.18762 -1.04242 0
M  V30 19 C -8.12281 1.99656 -0.289862 0
M  V30 20 C -7.50293 3.05998 0.333691 0
M  V30 21 C -6.15088 3.26584 0.188718 0
M  V30 22 C 0.248463 -0.798131 -0.712206 0
M  V30 23 O 0.469488 0.309842 -1.27948 0
M  V30 24 C 1.00088 -1.98096 -1.12985 0
M  V30 25 S 2.16525 -1.54556 -2.44967 0
M  V30 26 C 3.39489 -0.452195 -1.76487 0
M  V30 27 N 3.38492 0.872946 -1.69712 0
M  V30 28 N 4.49268 1.27179 -1.1106 0
M  V30 29 C 5.26868 0.194966 -0.77408 0
M  V30 30 N 4.57889 -0.852513 -1.18346 0
M  V30 31 N 4.95361 -2.20307 -1.06794 0
M  V30 32 C 6.54851 0.312963 -0.119253 0
M  V30 33 C 7.3285 -0.743175 0.259676 0
M  V30 34 C 8.57301 -0.611254 0.891029 0
M  V30 35 C 9.03102 0.650127 1.14125 0
M  V30 36 C 8.29303 1.75708 0.784437 0
M  V30 37 C 7.08514 1.5734 0.170877 0
M  V30 38 F 6.35613 2.64775 -0.181686 0
M  V30 39 H -0.352083 -4.51794 1.41938 0
M  V30 40 H -1.54737 -5.86993 1.34358 0
M  V30 41 H -0.913512 -5.04375 -0.164787 0
M  V30 42 H -3.03335 -2.2268 0.196831 0
M  V30 43 H -1.84593 -3.09784 -0.779612 0
M  V30 44 H -0.0504922 -2.66201 0.984446 0
M  V30 45 H -1.30906 -1.84497 1.99703 0
M  V30 46 H -1.75315 2.34925 3.30282 0
M  V30 47 H -2.75529 -0.468154 -1.61306 0
M  V30 48 H -2.35505 1.1381 -2.25775 0
M  V30 49 H -3.78457 3.90502 -0.450831 0
M  V30 50 H -3.59088 2.66458 -1.69459 0
M  V30 51 H -5.35422 0.719963 -1.80949 0
M  V30 52 H -7.78257 0.350788 -1.53595 0
M  V30 53 H -9.18354 1.8327 -0.177886 0
M  V30 54 H -8.12764 3.72213 0.940601 0
M  V30 55 H -5.73572 4.13531 0.695363 0
M  V30 56 H 1.53424 -2.44561 -0.262087 0
M  V30 57 H 0.378191 -2.80973 -1.54574 0
M  V30 58 H 4.5582 -2.86482 -0.372176 0
M  V30 59 H 5.67445 -2.56107 -1.72368 0
M  V30 60 H 7.01852 -1.75957 0.0903316 0
M  V30 61 H 9.14166 -1.50873 1.16523 0
M  V30 62 H 9.9883 0.821589 1.62796 0
M  V30 63 H 8.68702 2.76241 0.998035 0
M  V30 END ATOM
M  V30 BEGIN BOND
M  V30 1 1 1 2
M  V30 2 1 2 3
M  V30 3 1 3 4
M  V30 4 1 4 5
M  V30 5 1 5 6
M  V30 6 1 6 7
M  V30 7 2 7 8
M  V30 8 1 7 9
M  V30 9 1 9 10
M  V30 10 2 10 11
M  V30 11 1 10 12
M  V30 12 1 12 13
M  V30 13 1 13 14
M  V30 14 1 12 15
M  V30 15 1 15 16
M  V30 16 2 16 17
M  V30 17 1 17 18
M  V30 18 2 18 19
M  V30 19 1 19 20
M  V30 20 2 20 21
M  V30 21 1 5 22
M  V30 22 2 22 23
M  V30 23 1 22 24
M  V30 24 1 24 25
M  V30 25 1 25 26
M  V30 26 2 26 27
M  V30 27 1 27 28
M  V30 28 2 28 29
M  V30 29 1 29 30
M  V30 30 1 30 31
M  V30 31 1 29 32
M  V30 32 2 32 33
M  V30 33 1 33 34
M  V30 34 2 34 35
M  V30 35 1 35 36
M  V30 36 2 36 37
M  V30 37 1 37 38
M  V30 38 2 13 6
M  V30 39 1 21 16
M  V30 40 1 30 26
M  V30 41 1 37 32
M  V30 42 1 1 39
M  V30 43 1 1 40
M  V30 44 1 1 41
M  V30 45 1 3 42
M  V30 46 1 3 43
M  V30 47 1 4 44
M  V30 48 1 4 45
M  V30 49 1 9 46
M  V30 50 1 14 47
M  V30 51 1 14 48
M  V30 52 1 15 49
M  V30 53 1 15 50
M  V30 54 1 17 51
M  V30 55 1 18 52
M  V30 56 1 19 53
M  V30 57 1 20 54
M  V30 58 1 21 55
M  V30 59 1 24 56
M  V30 60 1 24 57
M  V30 61 1 31 58
M  V30 62 1 31 59
M  V30 63 1 33 60
M  V30 64 1 34 61
M  V30 65 1 35 62
M  V30 66 1 36 63
M  V30 END BOND
M  V30 END CTAB
M  END
