
     RDKit          3D

  0  0  0  0  0  0  0  0  0  0999 V3000
M  V30 BEGIN CTAB
M  V30 COUNTS 47 50 0 0 0
M  V30 BEGIN ATOM
M  V30 1 C 8.20426 1.27562 -0.607087 0
M  V30 2 O 6.84723 1.01321 -0.78536 0
M  V30 3 C 6.02271 0.660533 0.34001 0
M  V30 4 O 6.67377 0.625603 1.40204 0
M  V30 5 N 4.70791 0.415894 0.157201 0
M  V30 6 C 3.39329 0.170809 -0.0226191 0
M  V30 7 C 2.90281 -1.10727 -0.367867 0
M  V30 8 N 3.84822 -2.14362 -0.486643 0
M  V30 9 N 1.59854 -1.23522 -0.559568 0
M  V30 10 C 0.736883 -0.221072 -0.443002 0
M  V30 11 N 1.20664 0.993468 -0.113368 0
M  V30 12 C 2.49374 1.24445 0.104331 0
M  V30 13 N 2.99413 2.52123 0.465326 0
M  V30 14 C -0.694002 -0.37939 -0.659929 0
M  V30 15 N -1.64269 0.594692 -0.572898 0
M  V30 16 N -2.8247 0.126236 -0.820755 0
M  V30 17 C -4.01975 0.983564 -0.792319 0
M  V30 18 C -4.64811 1.07042 0.517096 0
M  V30 19 C -5.91167 1.62132 0.611676 0
M  V30 20 F -6.60116 2.05751 -0.468094 0
M  V30 21 C -6.50633 1.73061 1.84805 0
M  V30 22 C -5.86595 1.29788 3.02242 0
M  V30 23 C -4.60825 0.752168 2.90152 0
M  V30 24 C -4.01975 0.645449 1.66831 0
M  V30 25 C -2.72788 -1.16363 -1.08048 0
M  V30 26 C -1.38369 -1.52419 -0.98849 0
M  V30 27 C -1.0412 -2.8293 -1.22489 0
M  V30 28 C -2.00901 -3.75977 -1.54517 0
M  V30 29 C -3.32819 -3.33018 -1.619 0
M  V30 30 N -3.67261 -2.06589 -1.39205 0
M  V30 31 H 8.41801 1.58353 0.432045 0
M  V30 32 H 8.59106 2.04174 -1.29857 0
M  V30 33 H 8.77681 0.349991 -0.817062 0
M  V30 34 H 4.53863 0.18193 1.49437 0
M  V30 35 H 3.50762 -3.123 -0.513205 0
M  V30 36 H 4.86931 -1.96524 -0.548009 0
M  V30 37 H 2.8112 3.33112 -0.147067 0
M  V30 38 H 3.53774 2.64285 1.33512 0
M  V30 39 H -4.6704 0.661742 -1.63079 0
M  V30 40 H -3.71239 2.05081 -1.05248 0
M  V30 41 H -7.49144 2.15443 1.96671 0
M  V30 42 H -6.38348 1.40832 3.97356 0
M  V30 43 H -4.07985 0.407715 3.79871 0
M  V30 44 H -3.01964 0.212285 1.59356 0
M  V30 45 H 0.0064293 -3.10237 -1.15388 0
M  V30 46 H -1.76482 -4.78479 -1.73334 0
M  V30 47 H -4.05997 -4.09219 -1.87031 0
M  V30 END ATOM
M  V30 BEGIN BOND
M  V30 1 1 1 2
M  V30 2 1 2 3
M  V30 3 2 3 4
M  V30 4 1 3 5
M  V30 5 1 5 6
M  V30 6 2 6 7
M  V30 7 1 7 8
M  V30 8 1 7 9
M  V30 9 2 9 10
M  V30 10 1 10 11
M  V30 11 2 11 12
M  V30 12 1 12 13
M  V30 13 1 10 14
M  V30 14 2 14 15
M  V30 15 1 15 16
M  V30 16 1 16 17
M  V30 17 1 17 18
M  V30 18 2 18 19
M  V30 19 1 19 20
M  V30 20 1 19 21
M  V30 21 2 21 22
M  V30 22 1 22 23
M  V30 23 2 23 24
M  V30 24 1 16 25
M  V30 25 2 25 26
M  V30 26 1 26 27
M  V30 27 2 27 28
M  V30 28 1 28 29
M  V30 29 2 29 30
M  V30 30 1 12 6
M  V30 31 1 26 14
M  V30 32 1 24 18
M  V30 33 1 30 25
M  V30 34 1 1 31
M  V30 35 1 1 32
M  V30 36 1 1 33
M  V30 37 1 5 34
M  V30 38 1 8 35
M  V30 39 1 8 36
M  V30 40 1 13 37
M  V30 41 1 13 38
M  V30 42 1 17 39
M  V30 43 1 17 40
M  V30 44 1 21 41
M  V30 45 1 22 42
M  V30 46 1 23 43
M  V30 47 1 24 44
M  V30 48 1 27 45
M  V30 49 1 28 46
M  V30 50 1 29 47
M  V30 END BOND
M  V30 END CTAB
M  END
