
     RDKit          3D

  0  0  0  0  0  0  0  0  0  0999 V3000
M  V30 BEGIN CTAB
M  V30 COUNTS 31 32 0 0 0
M  V30 BEGIN ATOM
M  V30 1 C -4.18244 0.737819 -0.244525 0
M  V30 2 C -2.74104 0.775621 -0.575368 0
M  V30 3 C -1.80783 1.29145 0.483388 0
M  V30 4 N -0.830059 0.345588 -0.00440466 0
M  V30 5 C -1.94075 -0.465787 -0.453997 0
M  V30 6 C -2.33425 -1.4501 0.601857 0
M  V30 7 C 0.582044 0.273165 -0.0203645 0
M  V30 8 C 1.33095 1.30002 0.537995 0
M  V30 9 C 2.7098 1.27563 0.547073 0
M  V30 10 C 3.40185 0.233159 0.00345552 0
M  V30 11 C 2.68164 -0.799348 -0.557454 0
M  V30 12 C 1.28543 -0.772536 -0.565521 0
M  V30 13 N 3.31393 -1.93343 -1.15078 0
M  V30 14 N 4.81758 0.194703 0.00564806 0
M  V30 15 H -4.41322 1.64928 0.381822 0
M  V30 16 H -4.50199 -0.124494 0.365618 0
M  V30 17 H -4.78104 0.768981 -1.15194 0
M  V30 18 H -2.57235 1.25635 -1.56906 0
M  V30 19 H -1.52134 2.35847 0.375672 0
M  V30 20 H -2.1516 0.998824 1.49139 0
M  V30 21 H -1.74338 -1.01286 -1.41892 0
M  V30 22 H -1.42136 -1.84212 1.11956 0
M  V30 23 H -2.99493 -1.06122 1.37201 0
M  V30 24 H -2.84891 -2.32096 0.12286 0
M  V30 25 H 0.822907 2.15774 0.986248 0
M  V30 26 H 3.26018 2.09138 0.989919 0
M  V30 27 H 0.721597 -1.576 -1.00206 0
M  V30 28 H 3.58985 -2.73503 -0.535993 0
M  V30 29 H 3.50908 -1.99238 -2.16318 0
M  V30 30 H 5.37801 -0.38114 -0.660577 0
M  V30 31 H 5.38166 0.759225 0.696482 0
M  V30 END ATOM
M  V30 BEGIN BOND
M  V30 1 1 1 2
M  V30 2 1 2 3
M  V30 3 1 3 4
M  V30 4 1 4 5
M  V30 5 1 5 6
M  V30 6 1 4 7
M  V30 7 2 7 8
M  V30 8 1 8 9
M  V30 9 2 9 10
M  V30 10 1 10 11
M  V30 11 2 11 12
M  V30 12 1 11 13
M  V30 13 1 10 14
M  V30 14 1 5 2
M  V30 15 1 12 7
M  V30 16 1 1 15
M  V30 17 1 1 16
M  V30 18 1 1 17
M  V30 19 1 2 18
M  V30 20 1 3 19
M  V30 21 1 3 20
M  V30 22 1 5 21
M  V30 23 1 6 22
M  V30 24 1 6 23
M  V30 25 1 6 24
M  V30 26 1 8 25
M  V30 27 1 9 26
M  V30 28 1 12 27
M  V30 29 1 13 28
M  V30 30 1 13 29
M  V30 31 1 14 30
M  V30 32 1 14 31
M  V30 END BOND
M  V30 END CTAB
M  END
