
     RDKit          3D

  0  0  0  0  0  0  0  0  0  0999 V3000
M  V30 BEGIN CTAB
M  V30 COUNTS 59 61 0 0 0
M  V30 BEGIN ATOM
M  V30 1 N -4.84544 3.95223 -0.246475 0
M  V30 2 C -4.12318 2.72696 -0.228884 0
M  V30 3 C -3.75709 2.10725 0.938203 0
M  V30 4 C -3.05902 0.929037 0.918592 0
M  V30 5 C -2.69202 0.310965 -0.282038 0
M  V30 6 C -3.0643 0.939941 -1.44252 0
M  V30 7 C -3.77225 2.13536 -1.4401 0
M  V30 8 N -1.98038 -0.899172 -0.332264 0
M  V30 9 C -0.540673 -1.01781 -0.270238 0
M  V30 10 O -0.123054 -2.18679 -0.32488 0
M  V30 11 C 0.349041 0.0980759 -0.153717 0
M  V30 12 O -0.273234 1.23402 -0.283025 0
M  V30 13 N 1.74332 0.160578 0.0668159 0
M  V30 14 C 2.37779 1.47402 -0.105293 0
M  V30 15 C 1.7248 2.28019 -1.23626 0
M  V30 16 C 2.18516 2.24629 1.15668 0
M  V30 17 C 3.82431 1.41647 -0.502026 0
M  V30 18 C 4.65844 0.401727 0.169787 0
M  V30 19 C 3.87487 -0.450284 1.09023 0
M  V30 20 C 2.55141 -0.949544 0.52848 0
M  V30 21 C 2.87907 -1.84314 -0.619912 0
M  V30 22 C 1.93745 -1.68287 1.72106 0
M  V30 23 N 5.71649 1.0296 0.981331 0
M  V30 24 C -2.78954 -2.08704 -0.442194 0
M  V30 25 C -2.80931 -2.96787 0.636978 0
M  V30 26 C -3.56136 -4.12835 0.606106 0
M  V30 27 C -4.30478 -4.43761 -0.489275 0
M  V30 28 C -4.2983 -3.57906 -1.56767 0
M  V30 29 C -3.53508 -2.40654 -1.52926 0
M  V30 30 H -5.42035 4.27856 -1.03053 0
M  V30 31 H -4.77785 4.55607 0.610053 0
M  V30 32 H -4.01953 2.54835 1.87478 0
M  V30 33 H -2.756 0.415322 1.8327 0
M  V30 34 H -2.82732 0.543398 -2.40516 0
M  V30 35 H -4.06351 2.62978 -2.34704 0
M  V30 36 H 1.31307 1.64069 -2.03484 0
M  V30 37 H 2.57746 2.82377 -1.75228 0
M  V30 38 H 1.05691 3.07892 -0.866334 0
M  V30 39 H 3.13023 2.67499 1.5445 0
M  V30 40 H 1.75181 1.63744 1.9886 0
M  V30 41 H 1.46164 3.10264 1.03368 0
M  V30 42 H 3.91805 1.34887 -1.62492 0
M  V30 43 H 4.2424 2.43783 -0.263384 0
M  V30 44 H 5.22519 -0.184501 -0.605458 0
M  V30 45 H 4.48848 -1.36101 1.32194 0
M  V30 46 H 3.69559 0.0867721 2.04682 0
M  V30 47 H 3.97903 -1.83133 -0.879135 0
M  V30 48 H 2.39117 -1.55987 -1.58083 0
M  V30 49 H 2.66572 -2.91848 -0.444288 0
M  V30 50 H 0.999129 -1.23282 2.07701 0
M  V30 51 H 2.60978 -1.6107 2.63812 0
M  V30 52 H 1.90514 -2.77623 1.54131 0
M  V30 53 H 6.01175 1.9516 0.539125 0
M  V30 54 H 5.23981 1.31671 1.86303 0
M  V30 55 H -2.2286 -2.76531 1.54047 0
M  V30 56 H -3.55474 -4.7968 1.46547 0
M  V30 57 H -4.91318 -5.34908 -0.550808 0
M  V30 58 H -4.86555 -3.76221 -2.47082 0
M  V30 59 H -3.52887 -1.73001 -2.38002 0
M  V30 END ATOM
M  V30 BEGIN BOND
M  V30 1 1 1 2
M  V30 2 2 2 3
M  V30 3 1 3 4
M  V30 4 2 4 5
M  V30 5 1 5 6
M  V30 6 2 6 7
M  V30 7 1 5 8
M  V30 8 1 8 9
M  V30 9 2 9 10
M  V30 10 1 9 11
M  V30 11 2 11 12
M  V30 12 1 11 13
M  V30 13 1 13 14
M  V30 14 1 14 15
M  V30 15 1 14 16
M  V30 16 1 14 17
M  V30 17 1 17 18
M  V30 18 1 18 19
M  V30 19 1 19 20
M  V30 20 1 20 21
M  V30 21 1 20 22
M  V30 22 1 18 23
M  V30 23 1 8 24
M  V30 24 2 24 25
M  V30 25 1 25 26
M  V30 26 2 26 27
M  V30 27 1 27 28
M  V30 28 2 28 29
M  V30 29 1 7 2
M  V30 30 1 20 13
M  V30 31 1 29 24
M  V30 32 1 1 30
M  V30 33 1 1 31
M  V30 34 1 3 32
M  V30 35 1 4 33
M  V30 36 1 6 34
M  V30 37 1 7 35
M  V30 38 1 15 36
M  V30 39 1 15 37
M  V30 40 1 15 38
M  V30 41 1 16 39
M  V30 42 1 16 40
M  V30 43 1 16 41
M  V30 44 1 17 42
M  V30 45 1 17 43
M  V30 46 1 18 44
M  V30 47 1 19 45
M  V30 48 1 19 46
M  V30 49 1 21 47
M  V30 50 1 21 48
M  V30 51 1 21 49
M  V30 52 1 22 50
M  V30 53 1 22 51
M  V30 54 1 22 52
M  V30 55 1 23 53
M  V30 56 1 23 54
M  V30 57 1 25 55
M  V30 58 1 26 56
M  V30 59 1 27 57
M  V30 60 1 28 58
M  V30 61 1 29 59
M  V30 END BOND
M  V30 END CTAB
M  END
