
     RDKit          3D

  0  0  0  0  0  0  0  0  0  0999 V3000
M  V30 BEGIN CTAB
M  V30 COUNTS 26 26 0 0 0
M  V30 BEGIN ATOM
M  V30 1 N 3.00481 1.87145 0.374738 0
M  V30 2 N 1.98055 0.969977 0.544041 0
M  V30 3 C 1.60052 0.0590313 -0.479484 0
M  V30 4 O 2.24779 0.113549 -1.55735 0
M  V30 5 C 0.523854 -0.918061 -0.357164 0
M  V30 6 N -0.770499 -0.333536 -0.105118 0
M  V30 7 N -1.88051 -1.03613 -0.0214984 0
M  V30 8 C -2.91883 -0.253645 0.215231 0
M  V30 9 C -2.45598 1.03472 0.28996 0
M  V30 10 C -1.08219 0.939845 0.0802867 0
M  V30 11 N -3.21174 2.1987 0.527698 0
M  V30 12 C 0.909108 -1.87787 0.775159 0
M  V30 13 C 0.448814 -1.7563 -1.60978 0
M  V30 14 H 3.30925 1.9587 -0.619434 0
M  V30 15 H 3.78128 1.71327 1.02229 0
M  V30 16 H 1.45366 0.935588 1.44008 0
M  V30 17 H -3.98031 -0.491315 0.342989 0
M  V30 18 H -0.435854 1.78917 0.0800372 0
M  V30 19 H -4.12564 2.12874 0.995453 0
M  V30 20 H -2.84851 3.11353 0.233558 0
M  V30 21 H 1.01394 -1.3256 1.73761 0
M  V30 22 H 1.94668 -2.2316 0.530049 0
M  V30 23 H 0.187068 -2.69064 0.86993 0
M  V30 24 H -0.534103 -2.2621 -1.7131 0
M  V30 25 H 1.26644 -2.51588 -1.55237 0
M  V30 26 H 0.570395 -1.13358 -2.52696 0
M  V30 END ATOM
M  V30 BEGIN BOND
M  V30 1 1 1 2
M  V30 2 1 2 3
M  V30 3 2 3 4
M  V30 4 1 3 5
M  V30 5 1 5 6
M  V30 6 1 6 7
M  V30 7 2 7 8
M  V30 8 1 8 9
M  V30 9 2 9 10
M  V30 10 1 9 11
M  V30 11 1 5 12
M  V30 12 1 5 13
M  V30 13 1 10 6
M  V30 14 1 1 14
M  V30 15 1 1 15
M  V30 16 1 2 16
M  V30 17 1 8 17
M  V30 18 1 10 18
M  V30 19 1 11 19
M  V30 20 1 11 20
M  V30 21 1 12 21
M  V30 22 1 12 22
M  V30 23 1 12 23
M  V30 24 1 13 24
M  V30 25 1 13 25
M  V30 26 1 13 26
M  V30 END BOND
M  V30 END CTAB
M  END
