
     RDKit          3D

  0  0  0  0  0  0  0  0  0  0999 V3000
M  V30 BEGIN CTAB
M  V30 COUNTS 48 48 0 0 0
M  V30 BEGIN ATOM
M  V30 1 N 5.13203 -0.520611 -0.902293 0
M  V30 2 C 3.80305 -0.743011 -0.334997 0
M  V30 3 C 3.21814 0.589186 0.0150462 0
M  V30 4 N 1.84024 0.403798 0.620226 0
M  V30 5 C 0.787886 0.370126 -0.270367 0
M  V30 6 O 1.19006 0.81896 -1.48539 0
M  V30 7 N -0.55233 0.0299857 -0.326973 0
M  V30 8 C -1.41851 0.701799 -1.32686 0
M  V30 9 C -1.27232 -0.018731 -2.6255 0
M  V30 10 C -0.893965 2.13415 -1.56689 0
M  V30 11 C -2.80677 0.890714 -0.841671 0
M  V30 12 C -3.24959 0.274781 0.410297 0
M  V30 13 C -2.23112 -0.427358 1.26417 0
M  V30 14 C -1.22017 -1.05555 0.355967 0
M  V30 15 C -0.334879 -2.0445 1.0488 0
M  V30 16 C -2.02153 -1.95126 -0.609343 0
M  V30 17 N -3.86876 1.27632 1.31307 0
M  V30 18 C 1.91431 0.453302 2.0315 0
M  V30 19 O 0.923406 0.4158 2.78391 0
M  V30 20 C 3.22713 0.55991 2.76308 0
M  V30 21 H 5.07061 -0.320795 -1.91401 0
M  V30 22 H 5.55289 0.326501 -0.456913 0
M  V30 23 H 3.22032 -1.20182 -1.19766 0
M  V30 24 H 3.77806 -1.49626 0.447514 0
M  V30 25 H 3.07055 1.18018 -0.910104 0
M  V30 26 H 3.84231 1.1804 0.691528 0
M  V30 27 H -2.19148 -0.60198 -2.89852 0
M  V30 28 H -1.13803 0.678782 -3.49441 0
M  V30 29 H -0.345658 -0.659358 -2.6904 0
M  V30 30 H -0.338278 2.53081 -0.716309 0
M  V30 31 H -0.439816 2.20375 -2.55083 0
M  V30 32 H -1.8087 2.80281 -1.62854 0
M  V30 33 H -3.1082 1.99086 -0.787434 0
M  V30 34 H -3.4851 0.541045 -1.68425 0
M  V30 35 H -4.1238 -0.427527 0.236587 0
M  V30 36 H -1.81887 0.30421 1.97614 0
M  V30 37 H -2.77017 -1.22362 1.8385 0
M  V30 38 H 0.707693 -2.05689 0.738764 0
M  V30 39 H -0.408739 -1.98337 2.17549 0
M  V30 40 H -0.665444 -3.12848 0.880218 0
M  V30 41 H -1.34981 -2.34695 -1.38671 0
M  V30 42 H -2.98132 -1.61082 -0.902695 0
M  V30 43 H -2.23553 -2.88721 0.0263421 0
M  V30 44 H -4.14209 0.713039 2.1614 0
M  V30 45 H -4.72498 1.65338 0.881551 0
M  V30 46 H 3.0899 0.121335 3.76777 0
M  V30 47 H 4.00781 -0.051306 2.27821 0
M  V30 48 H 3.56958 1.61147 2.80299 0
M  V30 END ATOM
M  V30 BEGIN BOND
M  V30 1 1 1 2
M  V30 2 1 2 3
M  V30 3 1 3 4
M  V30 4 1 4 5
M  V30 5 2 5 6
M  V30 6 1 5 7
M  V30 7 1 7 8
M  V30 8 1 8 9
M  V30 9 1 8 10
M  V30 10 1 8 11
M  V30 11 1 11 12
M  V30 12 1 12 13
M  V30 13 1 13 14
M  V30 14 1 14 15
M  V30 15 1 14 16
M  V30 16 1 12 17
M  V30 17 1 4 18
M  V30 18 2 18 19
M  V30 19 1 18 20
M  V30 20 1 14 7
M  V30 21 1 1 21
M  V30 22 1 1 22
M  V30 23 1 2 23
M  V30 24 1 2 24
M  V30 25 1 3 25
M  V30 26 1 3 26
M  V30 27 1 9 27
M  V30 28 1 9 28
M  V30 29 1 9 29
M  V30 30 1 10 30
M  V30 31 1 10 31
M  V30 32 1 10 32
M  V30 33 1 11 33
M  V30 34 1 11 34
M  V30 35 1 12 35
M  V30 36 1 13 36
M  V30 37 1 13 37
M  V30 38 1 15 38
M  V30 39 1 15 39
M  V30 40 1 15 40
M  V30 41 1 16 41
M  V30 42 1 16 42
M  V30 43 1 16 43
M  V30 44 1 17 44
M  V30 45 1 17 45
M  V30 46 1 20 46
M  V30 47 1 20 47
M  V30 48 1 20 48
M  V30 END BOND
M  V30 END CTAB
M  END
