
     RDKit          3D

  0  0  0  0  0  0  0  0  0  0999 V3000
M  V30 BEGIN CTAB
M  V30 COUNTS 52 54 0 0 0
M  V30 BEGIN ATOM
M  V30 1 C -5.81131 -1.4752 -1.35976 0
M  V30 2 N -5.24923 -0.236924 -0.902793 0
M  V30 3 C -4.81647 -0.281263 0.476565 0
M  V30 4 C -3.62132 -1.18822 0.645317 0
M  V30 5 N -2.49606 -0.79431 -0.126849 0
M  V30 6 C -1.37117 -1.62166 0.0371169 0
M  V30 7 C -0.0228806 -0.985549 -0.207048 0
M  V30 8 N 0.0650286 0.336472 0.327415 0
M  V30 9 C -1.15177 0.94298 0.813227 0
M  V30 10 C -2.21761 0.584684 -0.236217 0
M  V30 11 C 1.28574 1.02314 0.373752 0
M  V30 12 C 2.47448 0.469374 -0.0875489 0
M  V30 13 C 3.6719 1.14693 -0.0471681 0
M  V30 14 N 3.66717 2.391 0.462779 0
M  V30 15 C 2.52887 2.97281 0.92596 0
M  V30 16 N 1.37766 2.28399 0.871583 0
M  V30 17 N 2.49974 4.27342 1.46492 0
M  V30 18 C 4.92952 0.578448 -0.52722 0
M  V30 19 C 5.33641 -0.763154 0.105949 0
M  V30 20 C 6.00727 -1.04528 -1.24727 0
M  V30 21 C 4.88251 -0.183023 -1.84228 0
M  V30 22 N 5.98545 -2.42076 -1.65044 0
M  V30 23 C -6.26368 0.792075 -1.01084 0
M  V30 24 H -5.08436 -2.13853 -1.8802 0
M  V30 25 H -6.34429 -2.04186 -0.583044 0
M  V30 26 H -6.57257 -1.21991 -2.14522 0
M  V30 27 H -5.65271 -0.800492 1.03446 0
M  V30 28 H -4.71917 0.695826 0.946596 0
M  V30 29 H -3.34147 -1.21468 1.71816 0
M  V30 30 H -3.9517 -2.21818 0.348516 0
M  V30 31 H -1.43845 -2.46913 -0.707679 0
M  V30 32 H -1.38662 -2.14924 1.02992 0
M  V30 33 H 0.734418 -1.69536 0.210912 0
M  V30 34 H 0.138623 -0.955201 -1.31603 0
M  V30 35 H -1.11508 2.04835 0.844642 0
M  V30 36 H -1.46304 0.52266 1.79094 0
M  V30 37 H -3.05177 1.27178 -0.0471662 0
M  V30 38 H -1.79699 0.866821 -1.23494 0
M  V30 39 H 2.41937 -0.540113 -0.488209 0
M  V30 40 H 2.644 5.08358 0.84645 0
M  V30 41 H 2.33055 4.37624 2.48963 0
M  V30 42 H 5.8132 1.22602 -0.502324 0
M  V30 43 H 6.04638 -0.665887 0.943966 0
M  V30 44 H 4.51705 -1.46698 0.245854 0
M  V30 45 H 6.99817 -0.552987 -1.29335 0
M  V30 46 H 5.18003 0.366468 -2.73269 0
M  V30 47 H 3.98909 -0.850048 -1.94895 0
M  V30 48 H 6.72212 -2.54081 -2.3849 0
M  V30 49 H 6.30609 -3.01513 -0.832823 0
M  V30 50 H -5.80535 1.8092 -0.964673 0
M  V30 51 H -7.05234 0.71682 -0.260867 0
M  V30 52 H -6.75341 0.750822 -2.01896 0
M  V30 END ATOM
M  V30 BEGIN BOND
M  V30 1 1 1 2
M  V30 2 1 2 3
M  V30 3 1 3 4
M  V30 4 1 4 5
M  V30 5 1 5 6
M  V30 6 1 6 7
M  V30 7 1 7 8
M  V30 8 1 8 9
M  V30 9 1 9 10
M  V30 10 1 8 11
M  V30 11 2 11 12
M  V30 12 1 12 13
M  V30 13 2 13 14
M  V30 14 1 14 15
M  V30 15 2 15 16
M  V30 16 1 15 17
M  V30 17 1 13 18
M  V30 18 1 18 19
M  V30 19 1 19 20
M  V30 20 1 20 21
M  V30 21 1 20 22
M  V30 22 1 2 23
M  V30 23 1 10 5
M  V30 24 1 16 11
M  V30 25 1 21 18
M  V30 26 1 1 24
M  V30 27 1 1 25
M  V30 28 1 1 26
M  V30 29 1 3 27
M  V30 30 1 3 28
M  V30 31 1 4 29
M  V30 32 1 4 30
M  V30 33 1 6 31
M  V30 34 1 6 32
M  V30 35 1 7 33
M  V30 36 1 7 34
M  V30 37 1 9 35
M  V30 38 1 9 36
M  V30 39 1 10 37
M  V30 40 1 10 38
M  V30 41 1 12 39
M  V30 42 1 17 40
M  V30 43 1 17 41
M  V30 44 1 18 42
M  V30 45 1 19 43
M  V30 46 1 19 44
M  V30 47 1 20 45
M  V30 48 1 21 46
M  V30 49 1 21 47
M  V30 50 1 22 48
M  V30 51 1 22 49
M  V30 52 1 23 50
M  V30 53 1 23 51
M  V30 54 1 23 52
M  V30 END BOND
M  V30 END CTAB
M  END
