
     RDKit          3D

  0  0  0  0  0  0  0  0  0  0999 V3000
M  V30 BEGIN CTAB
M  V30 COUNTS 30 33 0 0 0
M  V30 BEGIN ATOM
M  V30 1 N -6.54228 0.488282 -0.233575 0
M  V30 2 C -5.21436 0.0278087 -0.106642 0
M  V30 3 N -4.74511 -1.17282 0.256775 0
M  V30 4 C -3.39882 -1.11403 0.224045 0
M  V30 5 C -2.38314 -2.02674 0.493028 0
M  V30 6 C -1.05429 -1.64808 0.361859 0
M  V30 7 C -0.694266 -0.37618 -0.0326356 0
M  V30 8 C -1.72279 0.522002 -0.296847 0
M  V30 9 C -3.05618 0.159258 -0.170612 0
M  V30 10 O -4.18467 0.832894 -0.36502 0
M  V30 11 C 0.711875 0.0270246 -0.174627 0
M  V30 12 C 1.72305 -0.476343 0.596311 0
M  V30 13 C 3.03623 -0.0694186 0.428507 0
M  V30 14 C 3.36983 0.876683 -0.542843 0
M  V30 15 O 4.66815 1.07086 -0.478956 0
M  V30 16 C 5.19078 0.323114 0.457361 0
M  V30 17 N 6.57056 0.283553 0.795906 0
M  V30 18 N 4.19864 -0.392911 1.03425 0
M  V30 19 C 2.35368 1.38535 -1.32057 0
M  V30 20 C 1.04917 0.961653 -1.13258 0
M  V30 21 H -7.15273 0.511025 0.598072 0
M  V30 22 H -6.88454 0.796187 -1.15621 0
M  V30 23 H -2.63223 -3.03098 0.805487 0
M  V30 24 H -0.263165 -2.36202 0.573422 0
M  V30 25 H -1.47794 1.5265 -0.608345 0
M  V30 26 H 1.49298 -1.19633 1.34295 0
M  V30 27 H 7.21722 -0.448927 0.431707 0
M  V30 28 H 6.9405 1.02079 1.43473 0
M  V30 29 H 2.62248 2.12763 -2.08073 0
M  V30 30 H 0.261354 1.37418 -1.75532 0
M  V30 END ATOM
M  V30 BEGIN BOND
M  V30 1 1 1 2
M  V30 2 2 2 3
M  V30 3 1 3 4
M  V30 4 2 4 5
M  V30 5 1 5 6
M  V30 6 2 6 7
M  V30 7 1 7 8
M  V30 8 2 8 9
M  V30 9 1 9 10
M  V30 10 1 7 11
M  V30 11 2 11 12
M  V30 12 1 12 13
M  V30 13 2 13 14
M  V30 14 1 14 15
M  V30 15 1 15 16
M  V30 16 1 16 17
M  V30 17 2 16 18
M  V30 18 1 14 19
M  V30 19 2 19 20
M  V30 20 1 10 2
M  V30 21 1 20 11
M  V30 22 1 9 4
M  V30 23 1 18 13
M  V30 24 1 1 21
M  V30 25 1 1 22
M  V30 26 1 5 23
M  V30 27 1 6 24
M  V30 28 1 8 25
M  V30 29 1 12 26
M  V30 30 1 17 27
M  V30 31 1 17 28
M  V30 32 1 19 29
M  V30 33 1 20 30
M  V30 END BOND
M  V30 END CTAB
M  END
