
     RDKit          3D

  0  0  0  0  0  0  0  0  0  0999 V3000
M  V30 BEGIN CTAB
M  V30 COUNTS 34 35 0 0 0
M  V30 BEGIN ATOM
M  V30 1 N 5.15848 1.49487 1.75206 0
M  V30 2 C 4.32912 0.733263 0.870948 0
M  V30 3 C 4.61986 -0.598375 0.647948 0
M  V30 4 C 3.87023 -1.38938 -0.182098 0
M  V30 5 C 2.76399 -0.810108 -0.826108 0
M  V30 6 C 2.46313 0.515004 -0.614045 0
M  V30 7 C 3.24598 1.28955 0.236197 0
M  V30 8 N 2.01427 -1.61215 -1.72558 0
M  V30 9 C 0.617234 -1.70195 -1.82534 0
M  V30 10 S -0.0190567 -2.65861 -3.01998 0
M  V30 11 N -0.287112 -1.01219 -0.998753 0
M  V30 12 C -1.68272 -1.12143 -1.18229 0
M  V30 13 O -2.13496 -1.8443 -2.09441 0
M  V30 14 C -2.62619 -0.416268 -0.339545 0
M  V30 15 C -3.98673 -0.662334 -0.435014 0
M  V30 16 C -4.91566 -0.0196454 0.335935 0
M  V30 17 C -4.47813 0.915618 1.24963 0
M  V30 18 C -3.14464 1.19476 1.38228 0
M  V30 19 C -2.22708 0.512701 0.571982 0
M  V30 20 N -5.41495 1.60446 2.06923 0
M  V30 21 H 4.71234 1.90292 2.60768 0
M  V30 22 H 6.16026 1.63505 1.54852 0
M  V30 23 H 5.48679 -1.02673 1.16117 0
M  V30 24 H 4.0692 -2.42803 -0.377073 0
M  V30 25 H 1.61901 1.02017 -1.11025 0
M  V30 26 H 3.00173 2.33036 0.39762 0
M  V30 27 H 2.56382 -2.2328 -2.42121 0
M  V30 28 H 0.0757935 -0.406033 -0.19307 0
M  V30 29 H -4.32598 -1.38817 -1.14415 0
M  V30 30 H -5.98575 -0.229822 0.243669 0
M  V30 31 H -2.79786 1.92959 2.09981 0
M  V30 32 H -1.20046 0.779525 0.724248 0
M  V30 33 H -5.82243 2.53537 1.82984 0
M  V30 34 H -5.72155 1.16511 2.96497 0
M  V30 END ATOM
M  V30 BEGIN BOND
M  V30 1 1 1 2
M  V30 2 2 2 3
M  V30 3 1 3 4
M  V30 4 2 4 5
M  V30 5 1 5 6
M  V30 6 2 6 7
M  V30 7 1 5 8
M  V30 8 1 8 9
M  V30 9 2 9 10
M  V30 10 1 9 11
M  V30 11 1 11 12
M  V30 12 2 12 13
M  V30 13 1 12 14
M  V30 14 2 14 15
M  V30 15 1 15 16
M  V30 16 2 16 17
M  V30 17 1 17 18
M  V30 18 2 18 19
M  V30 19 1 17 20
M  V30 20 1 7 2
M  V30 21 1 19 14
M  V30 22 1 1 21
M  V30 23 1 1 22
M  V30 24 1 3 23
M  V30 25 1 4 24
M  V30 26 1 6 25
M  V30 27 1 7 26
M  V30 28 1 8 27
M  V30 29 1 11 28
M  V30 30 1 15 29
M  V30 31 1 16 30
M  V30 32 1 18 31
M  V30 33 1 19 32
M  V30 34 1 20 33
M  V30 35 1 20 34
M  V30 END BOND
M  V30 END CTAB
M  END
