
     RDKit          3D

  0  0  0  0  0  0  0  0  0  0999 V3000
M  V30 BEGIN CTAB
M  V30 COUNTS 18 17 0 0 0
M  V30 BEGIN ATOM
M  V30 1 N 2.70762 0.119065 -0.0870756 0
M  V30 2 C 1.3969 0.529993 -0.463557 0
M  V30 3 C 0.402906 -0.0784712 0.450977 0
M  V30 4 C -1.02556 0.235916 0.218433 0
M  V30 5 C -1.58221 -0.151826 -1.10101 0
M  V30 6 F -1.48907 -1.50754 -1.32141 0
M  V30 7 F -1.13475 0.60669 -2.16481 0
M  V30 8 N -1.79034 -0.521312 1.2286 0
M  V30 9 H 2.93302 0.15886 0.909003 0
M  V30 10 H 3.15127 -0.60025 -0.647951 0
M  V30 11 H 1.36393 1.65293 -0.360673 0
M  V30 12 H 1.24521 0.328822 -1.5245 0
M  V30 13 H 0.643254 0.261038 1.50111 0
M  V30 14 H 0.557974 -1.1916 0.494766 0
M  V30 15 H -1.22355 1.32614 0.404679 0
M  V30 16 H -2.69621 0.0520083 -1.06359 0
M  V30 17 H -1.23074 -1.30641 1.6051 0
M  V30 18 H -2.22965 0.0859438 1.92191 0
M  V30 END ATOM
M  V30 BEGIN BOND
M  V30 1 1 1 2
M  V30 2 1 2 3
M  V30 3 1 3 4
M  V30 4 1 4 5
M  V30 5 1 5 6
M  V30 6 1 5 7
M  V30 7 1 4 8
M  V30 8 1 1 9
M  V30 9 1 1 10
M  V30 10 1 2 11
M  V30 11 1 2 12
M  V30 12 1 3 13
M  V30 13 1 3 14
M  V30 14 1 4 15
M  V30 15 1 5 16
M  V30 16 1 8 17
M  V30 17 1 8 18
M  V30 END BOND
M  V30 END CTAB
M  END
