
     RDKit          3D

  0  0  0  0  0  0  0  0  0  0999 V3000
M  V30 BEGIN CTAB
M  V30 COUNTS 41 42 0 0 0
M  V30 BEGIN ATOM
M  V30 1 C -6.35382 -0.745017 1.28799 0
M  V30 2 C -6.25251 0.730483 1.23548 0
M  V30 3 C -5.68198 1.3779 0.0357806 0
M  V30 4 O -4.39452 1.14075 -0.347237 0
M  V30 5 C -3.74743 0.0587852 -0.825664 0
M  V30 6 O -4.38495 -0.99797 -1.00186 0
M  V30 7 C -2.32136 0.0321298 -1.16078 0
M  V30 8 C -1.72508 -1.10613 -1.64472 0
M  V30 9 C -0.366136 -1.14264 -1.96745 0
M  V30 10 C 0.411631 -0.0144178 -1.80162 0
M  V30 11 C -0.176038 1.13152 -1.31731 0
M  V30 12 C -1.52895 1.14771 -1.00216 0
M  V30 13 N 0.636848 2.2829 -1.15249 0
M  V30 14 S 2.16955 -0.0300896 -2.20946 0
M  V30 15 C 3.06297 -0.52359 -0.729902 0
M  V30 16 N 2.54266 -0.832689 0.480698 0
M  V30 17 N 3.51831 -1.14602 1.31265 0
M  V30 18 C 4.69295 -1.04846 0.664894 0
M  V30 19 N 4.39022 -0.667307 -0.579622 0
M  V30 20 N 5.32218 -0.445717 -1.59446 0
M  V30 21 C 6.03072 -1.32404 1.27042 0
M  V30 22 C 6.62078 -0.07353 1.88016 0
M  V30 23 H -5.40555 -1.22778 1.61574 0
M  V30 24 H -7.11842 -0.984638 2.10869 0
M  V30 25 H -6.81633 -1.21768 0.397365 0
M  V30 26 H -7.25619 1.1964 1.45041 0
M  V30 27 H -5.63109 1.0537 2.11489 0
M  V30 28 H -5.84976 2.50626 0.16618 0
M  V30 29 H -6.3662 1.19619 -0.880235 0
M  V30 30 H -2.30725 -1.99501 -1.78238 0
M  V30 31 H 0.0544412 -2.05319 -2.34166 0
M  V30 32 H -1.97628 2.03927 -0.627629 0
M  V30 33 H 1.14948 2.60362 -2.02547 0
M  V30 34 H 0.734547 2.78511 -0.255933 0
M  V30 35 H 5.8318 -1.18947 -2.10284 0
M  V30 36 H 5.53154 0.539788 -1.8728 0
M  V30 37 H 6.71683 -1.70555 0.508171 0
M  V30 38 H 5.95722 -2.12544 2.05823 0
M  V30 39 H 7.66561 0.0375012 1.57954 0
M  V30 40 H 6.5616 -0.0644645 2.98189 0
M  V30 41 H 6.058 0.800814 1.49607 0
M  V30 END ATOM
M  V30 BEGIN BOND
M  V30 1 1 1 2
M  V30 2 1 2 3
M  V30 3 1 3 4
M  V30 4 1 4 5
M  V30 5 2 5 6
M  V30 6 1 5 7
M  V30 7 2 7 8
M  V30 8 1 8 9
M  V30 9 2 9 10
M  V30 10 1 10 11
M  V30 11 2 11 12
M  V30 12 1 11 13
M  V30 13 1 10 14
M  V30 14 1 14 15
M  V30 15 2 15 16
M  V30 16 1 16 17
M  V30 17 2 17 18
M  V30 18 1 18 19
M  V30 19 1 19 20
M  V30 20 1 18 21
M  V30 21 1 21 22
M  V30 22 1 12 7
M  V30 23 1 19 15
M  V30 24 1 1 23
M  V30 25 1 1 24
M  V30 26 1 1 25
M  V30 27 1 2 26
M  V30 28 1 2 27
M  V30 29 1 3 28
M  V30 30 1 3 29
M  V30 31 1 8 30
M  V30 32 1 9 31
M  V30 33 1 12 32
M  V30 34 1 13 33
M  V30 35 1 13 34
M  V30 36 1 20 35
M  V30 37 1 20 36
M  V30 38 1 21 37
M  V30 39 1 21 38
M  V30 40 1 22 39
M  V30 41 1 22 40
M  V30 42 1 22 41
M  V30 END BOND
M  V30 END CTAB
M  END
