
     RDKit          3D

  0  0  0  0  0  0  0  0  0  0999 V3000
M  V30 BEGIN CTAB
M  V30 COUNTS 45 46 0 0 0
M  V30 BEGIN ATOM
M  V30 1 C 1.83679 0.944068 -1.4286 0 CFG=1
M  V30 2 N 2.42888 2.23134 -1.32933 0
M  V30 3 C 2.5136 -0.172142 -0.733217 0
M  V30 4 C 3.90292 -0.509443 -1.14456 0
M  V30 5 C 4.86673 0.58812 -0.923643 0
M  V30 6 N 4.91809 0.918517 0.496596 0
M  V30 7 C 5.51489 -0.0577509 1.33818 0
M  V30 8 N 4.69438 -0.849365 2.17162 0
M  V30 9 N 6.81227 -0.195392 1.31903 0
M  V30 10 C 0.415555 1.01693 -0.907134 0
M  V30 11 O 0.0859631 2.07076 -0.322722 0
M  V30 12 N -0.403221 -0.107607 -1.12974 0
M  V30 13 C -1.7358 -0.174075 -0.707071 0
M  V30 14 C -2.49569 0.896707 -0.384757 0
M  V30 15 C -3.82163 0.727874 0.0539766 0
M  V30 16 C -4.31542 -0.54759 0.14312 0
M  V30 17 C -3.56943 -1.66258 -0.177753 0
M  V30 18 C -2.28946 -1.45764 -0.598355 0
M  V30 19 C -5.6213 -0.795443 0.570199 0
M  V30 20 C -6.14344 -2.18918 0.660604 0
M  V30 21 C -6.38409 0.301929 0.895473 0
M  V30 22 C -5.82825 1.57471 0.785139 0
M  V30 23 O -6.52498 2.57377 1.08191 0
M  V30 24 O -4.59201 1.73067 0.375984 0
M  V30 25 H 1.77439 0.683856 -2.51514 0
M  V30 26 H 2.00925 2.93063 -1.97892 0
M  V30 27 H 2.43104 2.64533 -0.376164 0
M  V30 28 H 1.8324 -1.07723 -0.858719 0
M  V30 29 H 2.45192 0.0292574 0.388809 0
M  V30 30 H 3.86976 -0.829484 -2.23092 0
M  V30 31 H 4.1916 -1.44146 -0.585999 0
M  V30 32 H 4.7398 1.50214 -1.48863 0
M  V30 33 H 5.90008 0.194524 -1.21673 0
M  V30 34 H 4.53086 1.8209 0.815396 0
M  V30 35 H 4.30971 -1.77821 1.89778 0
M  V30 36 H 4.45337 -0.495123 3.11771 0
M  V30 37 H 7.3905 0.391612 0.706991 0
M  V30 38 H 0.0303698 -0.936207 -1.65864 0
M  V30 39 H -2.16005 1.91925 -0.453 0
M  V30 40 H -3.97241 -2.6514 -0.102582 0
M  V30 41 H -1.69984 -2.32884 -0.851802 0
M  V30 42 H -7.23284 -2.12477 0.818481 0
M  V30 43 H -6.00184 -2.73049 -0.29411 0
M  V30 44 H -5.70822 -2.73593 1.52328 0
M  V30 45 H -7.40523 0.154477 1.23257 0
M  V30 END ATOM
M  V30 BEGIN BOND
M  V30 1 1 1 2
M  V30 2 1 1 3
M  V30 3 1 3 4
M  V30 4 1 4 5
M  V30 5 1 5 6
M  V30 6 1 6 7
M  V30 7 1 7 8
M  V30 8 2 7 9 CFG=2
M  V30 9 1 1 10
M  V30 10 2 10 11
M  V30 11 1 10 12
M  V30 12 1 12 13
M  V30 13 2 13 14
M  V30 14 1 14 15
M  V30 15 2 15 16
M  V30 16 1 16 17
M  V30 17 2 17 18
M  V30 18 1 16 19
M  V30 19 1 19 20
M  V30 20 2 19 21
M  V30 21 1 21 22
M  V30 22 2 22 23
M  V30 23 1 22 24
M  V30 24 1 18 13
M  V30 25 1 24 15
M  V30 26 1 1 25 CFG=3
M  V30 27 1 2 26
M  V30 28 1 2 27
M  V30 29 1 3 28
M  V30 30 1 3 29
M  V30 31 1 4 30
M  V30 32 1 4 31
M  V30 33 1 5 32
M  V30 34 1 5 33
M  V30 35 1 6 34
M  V30 36 1 8 35
M  V30 37 1 8 36
M  V30 38 1 9 37
M  V30 39 1 12 38
M  V30 40 1 14 39
M  V30 41 1 17 40
M  V30 42 1 18 41
M  V30 43 1 20 42
M  V30 44 1 20 43
M  V30 45 1 20 44
M  V30 46 1 21 45
M  V30 END BOND
M  V30 END CTAB
M  END
