
     RDKit          3D

  0  0  0  0  0  0  0  0  0  0999 V3000
M  V30 BEGIN CTAB
M  V30 COUNTS 38 40 0 0 0
M  V30 BEGIN ATOM
M  V30 1 F 4.21951 -0.833625 -3.37034 0
M  V30 2 C 4.09395 -0.707051 -2.03315 0
M  V30 3 C 2.98662 -1.24189 -1.41337 0
M  V30 4 C 2.82956 -1.12774 -0.0383923 0
M  V30 5 C 3.77846 -0.481797 0.699118 0
M  V30 6 C 4.88232 0.0451215 0.0398861 0
M  V30 7 C 5.07018 -0.0497303 -1.32131 0
M  V30 8 O 3.72827 -0.307704 2.05939 0
M  V30 9 C 2.74096 -0.724412 2.93723 0
M  V30 10 C 1.40148 -0.0952681 2.62565 0
M  V30 11 S -0.156069 -0.569659 3.1531 0
M  V30 12 C -1.06796 0.648768 2.37466 0
M  V30 13 C -0.0868558 1.36719 1.73741 0
M  V30 14 N 1.13731 0.963166 1.88744 0
M  V30 15 C -0.434575 2.57709 0.896675 0
M  V30 16 S -0.76334 2.08351 -0.820963 0
M  V30 17 C -2.24825 1.07604 -0.907033 0
M  V30 18 N -2.12743 -0.252177 -0.77519 0
M  V30 19 C -3.16398 -1.117 -0.820687 0
M  V30 20 N -2.99189 -2.51377 -0.676498 0
M  V30 21 C -4.42322 -0.55402 -1.01892 0
M  V30 22 C -4.54726 0.813332 -1.15457 0
M  V30 23 N -3.46018 1.61273 -1.09733 0
M  V30 24 N -5.85641 1.32171 -1.35383 0
M  V30 25 H 2.22225 -1.76235 -2.0116 0
M  V30 26 H 1.96664 -1.55056 0.451673 0
M  V30 27 H 5.64097 0.563557 0.644376 0
M  V30 28 H 5.9221 0.359899 -1.80923 0
M  V30 29 H 3.00143 -0.627196 3.99975 0
M  V30 30 H 2.5741 -1.82585 2.75589 0
M  V30 31 H -2.1567 0.831177 2.36991 0
M  V30 32 H -1.3496 3.0191 1.32302 0
M  V30 33 H 0.400369 3.31302 0.923668 0
M  V30 34 H -2.53784 -2.87461 0.175787 0
M  V30 35 H -3.31523 -3.16502 -1.41231 0
M  V30 36 H -5.25988 -1.21879 -1.05865 0
M  V30 37 H -6.19593 1.51329 -2.2948 0
M  V30 38 H -6.45389 1.49152 -0.519889 0
M  V30 END ATOM
M  V30 BEGIN BOND
M  V30 1 1 1 2
M  V30 2 2 2 3
M  V30 3 1 3 4
M  V30 4 2 4 5
M  V30 5 1 5 6
M  V30 6 2 6 7
M  V30 7 1 5 8
M  V30 8 1 8 9
M  V30 9 1 9 10
M  V30 10 1 10 11
M  V30 11 1 11 12
M  V30 12 2 12 13
M  V30 13 1 13 14
M  V30 14 1 13 15
M  V30 15 1 15 16
M  V30 16 1 16 17
M  V30 17 2 17 18
M  V30 18 1 18 19
M  V30 19 1 19 20
M  V30 20 2 19 21
M  V30 21 1 21 22
M  V30 22 2 22 23
M  V30 23 1 22 24
M  V30 24 1 7 2
M  V30 25 2 14 10
M  V30 26 1 23 17
M  V30 27 1 3 25
M  V30 28 1 4 26
M  V30 29 1 6 27
M  V30 30 1 7 28
M  V30 31 1 9 29
M  V30 32 1 9 30
M  V30 33 1 12 31
M  V30 34 1 15 32
M  V30 35 1 15 33
M  V30 36 1 20 34
M  V30 37 1 20 35
M  V30 38 1 21 36
M  V30 39 1 24 37
M  V30 40 1 24 38
M  V30 END BOND
M  V30 END CTAB
M  END
