
     RDKit          3D

  0  0  0  0  0  0  0  0  0  0999 V3000
M  V30 BEGIN CTAB
M  V30 COUNTS 38 39 0 0 0
M  V30 BEGIN ATOM
M  V30 1 C -6.97872 0.591074 -1.77485 0
M  V30 2 O -5.5765 0.547368 -1.56042 0
M  V30 3 C -4.99721 0.184135 -0.367884 0
M  V30 4 O -5.72704 -0.117301 0.599771 0
M  V30 5 C -3.5497 0.145735 -0.221654 0
M  V30 6 C -2.9262 -0.175916 0.977343 0
M  V30 7 C -1.54748 -0.227923 1.08526 0
M  V30 8 N -0.974963 -0.567449 2.33196 0
M  V30 9 C -0.716155 0.0427864 -0.0137402 0
M  V30 10 C -1.34458 0.365817 -1.21294 0
M  V30 11 C -2.71621 0.411633 -1.29875 0
M  V30 12 C 0.723838 0.000543648 0.109909 0
M  V30 13 C 1.47375 -0.741176 -0.786829 0
M  V30 14 N 0.827698 -1.50202 -1.80257 0
M  V30 15 C 2.84308 -0.80998 -0.745021 0
M  V30 16 C 3.54364 -0.122354 0.22332 0
M  V30 17 C 2.80495 0.634964 1.14274 0
M  V30 18 C 1.4376 0.69073 1.08302 0
M  V30 19 C 4.99183 -0.190298 0.297043 0
M  V30 20 O 5.64096 -0.893577 -0.496285 0
M  V30 21 O 5.63574 0.540086 1.2632 0
M  V30 22 C 7.02797 0.559807 1.44204 0
M  V30 23 H -7.29924 -0.253358 -2.41749 0
M  V30 24 H -7.16014 1.53761 -2.34574 0
M  V30 25 H -7.54711 0.609246 -0.846203 0
M  V30 26 H -3.5775 -0.382803 1.83149 0
M  V30 27 H -0.693041 -1.54167 2.50835 0
M  V30 28 H -0.843363 0.156977 3.04905 0
M  V30 29 H -0.715152 0.582471 -2.06548 0
M  V30 30 H -3.18179 0.658617 -2.23867 0
M  V30 31 H 0.744795 -1.12042 -2.76188 0
M  V30 32 H 0.418772 -2.45697 -1.64828 0
M  V30 33 H 3.43038 -1.39908 -1.46253 0
M  V30 34 H 3.37269 1.16154 1.88699 0
M  V30 35 H 0.899978 1.2873 1.81186 0
M  V30 36 H 7.30538 0.654941 2.51378 0
M  V30 37 H 7.52355 -0.320539 0.984412 0
M  V30 38 H 7.42546 1.45945 0.925658 0
M  V30 END ATOM
M  V30 BEGIN BOND
M  V30 1 1 1 2
M  V30 2 1 2 3
M  V30 3 2 3 4
M  V30 4 1 3 5
M  V30 5 2 5 6
M  V30 6 1 6 7
M  V30 7 1 7 8
M  V30 8 2 7 9
M  V30 9 1 9 10
M  V30 10 2 10 11
M  V30 11 1 9 12
M  V30 12 2 12 13
M  V30 13 1 13 14
M  V30 14 1 13 15
M  V30 15 2 15 16
M  V30 16 1 16 17
M  V30 17 2 17 18
M  V30 18 1 16 19
M  V30 19 2 19 20
M  V30 20 1 19 21
M  V30 21 1 21 22
M  V30 22 1 11 5
M  V30 23 1 18 12
M  V30 24 1 1 23
M  V30 25 1 1 24
M  V30 26 1 1 25
M  V30 27 1 6 26
M  V30 28 1 8 27
M  V30 29 1 8 28
M  V30 30 1 10 29
M  V30 31 1 11 30
M  V30 32 1 14 31
M  V30 33 1 14 32
M  V30 34 1 15 33
M  V30 35 1 17 34
M  V30 36 1 18 35
M  V30 37 1 22 36
M  V30 38 1 22 37
M  V30 39 1 22 38
M  V30 END BOND
M  V30 END CTAB
M  END
