
     RDKit          3D

  0  0  0  0  0  0  0  0  0  0999 V3000
M  V30 BEGIN CTAB
M  V30 COUNTS 20 21 0 0 0
M  V30 BEGIN ATOM
M  V30 1 N 1.39413 -0.879408 -1.30312 0
M  V30 2 N 1.28662 -0.21927 -0.0709207 0
M  V30 3 C 2.37803 0.0396311 0.725031 0
M  V30 4 N 3.717 -0.31381 0.418756 0
M  V30 5 N 1.88887 0.669813 1.79476 0
M  V30 6 N 0.58658 0.797926 1.68045 0
M  V30 7 C 0.175272 0.237676 0.496033 0
M  V30 8 C -1.22297 0.206025 0.0498707 0
M  V30 9 C -2.2116 0.775559 0.866167 0
M  V30 10 C -3.5189 0.747411 0.451645 0
M  V30 11 N -3.92388 0.201265 -0.704432 0
M  V30 12 N -2.99189 -0.329883 -1.46294 0
M  V30 13 C -1.66608 -0.341629 -1.1196 0
M  V30 14 H 1.35406 -0.400662 -2.20742 0
M  V30 15 H 1.52083 -1.90912 -1.28134 0
M  V30 16 H 4.39281 -0.516246 1.16997 0
M  V30 17 H 4.01145 -0.367148 -0.567556 0
M  V30 18 H -1.89184 1.20839 1.78205 0
M  V30 19 H -4.30161 1.18473 1.07189 0
M  V30 20 H -0.976877 -0.791254 -1.78929 0
M  V30 END ATOM
M  V30 BEGIN BOND
M  V30 1 1 1 2
M  V30 2 1 2 3
M  V30 3 1 3 4
M  V30 4 2 3 5
M  V30 5 1 5 6
M  V30 6 2 6 7
M  V30 7 1 7 8
M  V30 8 2 8 9
M  V30 9 1 9 10
M  V30 10 2 10 11
M  V30 11 1 11 12
M  V30 12 2 12 13
M  V30 13 1 7 2
M  V30 14 1 13 8
M  V30 15 1 1 14
M  V30 16 1 1 15
M  V30 17 1 4 16
M  V30 18 1 4 17
M  V30 19 1 9 18
M  V30 20 1 10 19
M  V30 21 1 13 20
M  V30 END BOND
M  V30 END CTAB
M  END
