
     RDKit          3D

  0  0  0  0  0  0  0  0  0  0999 V3000
M  V30 BEGIN CTAB
M  V30 COUNTS 53 56 0 0 0
M  V30 BEGIN ATOM
M  V30 1 O -2.9145 2.24845 1.70941 0
M  V30 2 C -3.20791 1.85675 0.555818 0
M  V30 3 C -3.8169 0.568928 0.38297 0
M  V30 4 C -4.06419 -0.19634 1.5331 0
M  V30 5 N -3.73239 0.308519 2.82436 0
M  V30 6 N -4.6127 -1.41615 1.48983 0
M  V30 7 C -4.85907 -2.17486 2.70677 0
M  V30 8 C -4.95611 -1.96285 0.281928 0
M  V30 9 O -5.46233 -3.11205 0.342424 0
M  V30 10 N -4.74006 -1.27342 -0.830881 0
M  V30 11 C -4.18122 -0.0294463 -0.787378 0
M  V30 12 O -3.99605 0.589554 -1.87552 0
M  V30 13 C -5.09269 -1.83952 -2.10295 0
M  V30 14 C -2.87157 2.82047 -0.537462 0
M  V30 15 S -1.48538 2.35406 -1.54242 0
M  V30 16 C 0.0719189 2.26923 -0.753065 0
M  V30 17 N 0.982734 3.23745 -0.591197 0
M  V30 18 N 2.01959 2.70365 0.050107 0
M  V30 19 C 1.82813 1.41268 0.319363 0
M  V30 20 N 0.586733 1.16248 -0.199142 0
M  V30 21 N -0.0448685 -0.0600117 -0.151854 0
M  V30 22 C 2.65021 0.380741 0.992047 0
M  V30 23 C 3.56788 -0.355383 0.129061 0
M  V30 24 C 3.1747 -1.56937 -0.384761 0
M  V30 25 C 4.0022 -2.27519 -1.25519 0
M  V30 26 C 5.22109 -1.75937 -1.60421 0
M  V30 27 C 5.63367 -0.558723 -1.10647 0
M  V30 28 C 4.79563 0.148822 -0.229804 0
M  V30 29 C 5.27579 1.3483 0.260447 0
M  V30 30 C 6.51632 1.84968 -0.0835575 0
M  V30 31 C 7.32477 1.14928 -0.943199 0
M  V30 32 C 6.86193 -0.035871 -1.43115 0
M  V30 33 H -2.80155 0.0531414 3.20966 0
M  V30 34 H -4.35293 0.90654 3.3989 0
M  V30 35 H -4.75596 -3.26106 2.42304 0
M  V30 36 H -5.88164 -1.95306 3.06894 0
M  V30 37 H -4.10685 -1.93082 3.46438 0
M  V30 38 H -4.23189 -2.33369 -2.60405 0
M  V30 39 H -5.92275 -2.59812 -2.0065 0
M  V30 40 H -5.45423 -1.08923 -2.83427 0
M  V30 41 H -2.73467 3.85133 -0.130708 0
M  V30 42 H -3.77269 2.89966 -1.17972 0
M  V30 43 H -0.587531 -0.329246 0.6973 0
M  V30 44 H 0.00483615 -0.736842 -0.954198 0
M  V30 45 H 1.92427 -0.316811 1.51534 0
M  V30 46 H 3.15964 0.880809 1.87106 0
M  V30 47 H 2.22634 -1.96768 -0.0970321 0
M  V30 48 H 3.63484 -3.23677 -1.63437 0
M  V30 49 H 5.85391 -2.31952 -2.28075 0
M  V30 50 H 4.6553 1.88954 0.952299 0
M  V30 51 H 6.86909 2.81122 0.324909 0
M  V30 52 H 8.29463 1.59309 -1.18125 0
M  V30 53 H 7.5045 -0.602979 -2.11916 0
M  V30 END ATOM
M  V30 BEGIN BOND
M  V30 1 2 1 2
M  V30 2 1 2 3
M  V30 3 2 3 4
M  V30 4 1 4 5
M  V30 5 1 4 6
M  V30 6 1 6 7
M  V30 7 1 6 8
M  V30 8 2 8 9
M  V30 9 1 8 10
M  V30 10 1 10 11
M  V30 11 2 11 12
M  V30 12 1 10 13
M  V30 13 1 2 14
M  V30 14 1 14 15
M  V30 15 1 15 16
M  V30 16 2 16 17
M  V30 17 1 17 18
M  V30 18 2 18 19
M  V30 19 1 19 20
M  V30 20 1 20 21
M  V30 21 1 19 22
M  V30 22 1 22 23
M  V30 23 2 23 24
M  V30 24 1 24 25
M  V30 25 2 25 26
M  V30 26 1 26 27
M  V30 27 2 27 28
M  V30 28 1 28 29
M  V30 29 2 29 30
M  V30 30 1 30 31
M  V30 31 2 31 32
M  V30 32 1 11 3
M  V30 33 1 20 16
M  V30 34 1 28 23
M  V30 35 1 32 27
M  V30 36 1 5 33
M  V30 37 1 5 34
M  V30 38 1 7 35
M  V30 39 1 7 36
M  V30 40 1 7 37
M  V30 41 1 13 38
M  V30 42 1 13 39
M  V30 43 1 13 40
M  V30 44 1 14 41
M  V30 45 1 14 42
M  V30 46 1 21 43
M  V30 47 1 21 44
M  V30 48 1 22 45
M  V30 49 1 22 46
M  V30 50 1 24 47
M  V30 51 1 25 48
M  V30 52 1 26 49
M  V30 53 1 29 50
M  V30 54 1 30 51
M  V30 55 1 31 52
M  V30 56 1 32 53
M  V30 END BOND
M  V30 END CTAB
M  END
