
     RDKit          3D

  0  0  0  0  0  0  0  0  0  0999 V3000
M  V30 BEGIN CTAB
M  V30 COUNTS 28 28 0 0 0
M  V30 BEGIN ATOM
M  V30 1 O -1.12801 -0.962534 -2.25005 0
M  V30 2 C -2.27066 -0.891014 -1.48506 0
M  V30 3 C -2.18319 0.0246128 -0.291072 0
M  V30 4 N -1.1733 -0.326988 0.663922 0
M  V30 5 C 0.219405 -0.196563 0.541549 0
M  V30 6 C 1.03603 -0.645433 1.58327 0
M  V30 7 C 2.38861 -0.501082 1.47991 0
M  V30 8 C 2.94222 0.0816982 0.358879 0
M  V30 9 C 2.11505 0.524958 -0.672791 0
M  V30 10 N 0.790494 0.36358 -0.530345 0
M  V30 11 N 2.7044 1.1227 -1.81949 0
M  V30 12 N 4.33983 0.255162 0.202011 0
M  V30 13 C -3.56854 0.0498339 0.373922 0
M  V30 14 O -3.58235 0.987094 1.40519 0
M  V30 15 H -1.15356 -0.330485 -3.01343 0
M  V30 16 H -2.55654 -1.92687 -1.12337 0
M  V30 17 H -3.11668 -0.616428 -2.15544 0
M  V30 18 H -1.9697 1.08904 -0.63125 0
M  V30 19 H -1.54215 -0.741361 1.58203 0
M  V30 20 H 0.605095 -1.10703 2.47227 0
M  V30 21 H 3.08832 -0.827878 2.25338 0
M  V30 22 H 2.84867 2.14803 -1.92662 0
M  V30 23 H 3.00573 0.490033 -2.59101 0
M  V30 24 H 5.03645 -0.503883 0.33504 0
M  V30 25 H 4.69557 1.20176 -0.063357 0
M  V30 26 H -3.73967 -0.955859 0.815398 0
M  V30 27 H -4.3371 0.291188 -0.388598 0
M  V30 28 H -3.49443 1.90373 1.04011 0
M  V30 END ATOM
M  V30 BEGIN BOND
M  V30 1 1 1 2
M  V30 2 1 2 3
M  V30 3 1 3 4
M  V30 4 1 4 5
M  V30 5 2 5 6
M  V30 6 1 6 7
M  V30 7 2 7 8
M  V30 8 1 8 9
M  V30 9 2 9 10
M  V30 10 1 9 11
M  V30 11 1 8 12
M  V30 12 1 3 13
M  V30 13 1 13 14
M  V30 14 1 10 5
M  V30 15 1 1 15
M  V30 16 1 2 16
M  V30 17 1 2 17
M  V30 18 1 3 18
M  V30 19 1 4 19
M  V30 20 1 6 20
M  V30 21 1 7 21
M  V30 22 1 11 22
M  V30 23 1 11 23
M  V30 24 1 12 24
M  V30 25 1 12 25
M  V30 26 1 13 26
M  V30 27 1 13 27
M  V30 28 1 14 28
M  V30 END BOND
M  V30 END CTAB
M  END
