
     RDKit          3D

  0  0  0  0  0  0  0  0  0  0999 V3000
M  V30 BEGIN CTAB
M  V30 COUNTS 33 35 0 0 0
M  V30 BEGIN ATOM
M  V30 1 N -2.12351 -2.79526 0.048546 0
M  V30 2 C -1.1436 -1.77765 0.082758 0
M  V30 3 C 0.232719 -1.88959 0.0936662 0
M  V30 4 C 0.73691 -0.626299 0.129094 0
M  V30 5 N -0.305883 0.190322 0.138465 0
M  V30 6 N -1.45175 -0.47145 0.11119 0
M  V30 7 C -2.70695 0.1685 0.114211 0
M  V30 8 C -3.23159 0.620936 1.2995 0
M  V30 9 C -4.47877 1.26107 1.32987 0
M  V30 10 C -5.17863 1.43573 0.165442 0
M  V30 11 C -4.67346 0.992243 -1.02601 0
M  V30 12 C -3.42692 0.355119 -1.03922 0
M  V30 13 C 2.14014 -0.189707 0.153483 0
M  V30 14 C 2.46829 1.1428 0.188809 0
M  V30 15 C 3.76277 1.61929 0.213092 0
M  V30 16 C 4.78931 0.710274 0.201369 0
M  V30 17 N 6.11609 1.17979 0.225805 0
M  V30 18 C 4.4851 -0.654848 0.165495 0
M  V30 19 C 3.18177 -1.09842 0.141917 0
M  V30 20 H -2.48508 -3.18437 0.941672 0
M  V30 21 H -2.49528 -3.16799 -0.850123 0
M  V30 22 H 0.798773 -2.80021 0.0773234 0
M  V30 23 H -2.71561 0.506274 2.24828 0
M  V30 24 H -4.90606 1.62417 2.2607 0
M  V30 25 H -6.15415 1.93728 0.194613 0
M  V30 26 H -5.26119 1.15253 -1.9167 0
M  V30 27 H -3.06246 0.0220591 -1.98273 0
M  V30 28 H 1.63713 1.85388 0.197694 0
M  V30 29 H 3.95418 2.6971 0.240931 0
M  V30 30 H 6.57716 1.48516 -0.648719 0
M  V30 31 H 6.65106 1.22829 1.11002 0
M  V30 32 H 5.3101 -1.36612 0.156543 0
M  V30 33 H 2.95938 -2.1609 0.114132 0
M  V30 END ATOM
M  V30 BEGIN BOND
M  V30 1 1 1 2
M  V30 2 2 2 3
M  V30 3 1 3 4
M  V30 4 2 4 5
M  V30 5 1 5 6
M  V30 6 1 6 7
M  V30 7 2 7 8
M  V30 8 1 8 9
M  V30 9 2 9 10
M  V30 10 1 10 11
M  V30 11 2 11 12
M  V30 12 1 4 13
M  V30 13 2 13 14
M  V30 14 1 14 15
M  V30 15 2 15 16
M  V30 16 1 16 17
M  V30 17 1 16 18
M  V30 18 2 18 19
M  V30 19 1 6 2
M  V30 20 1 12 7
M  V30 21 1 19 13
M  V30 22 1 1 20
M  V30 23 1 1 21
M  V30 24 1 3 22
M  V30 25 1 8 23
M  V30 26 1 9 24
M  V30 27 1 10 25
M  V30 28 1 11 26
M  V30 29 1 12 27
M  V30 30 1 14 28
M  V30 31 1 15 29
M  V30 32 1 17 30
M  V30 33 1 17 31
M  V30 34 1 18 32
M  V30 35 1 19 33
M  V30 END BOND
M  V30 END CTAB
M  END
