
     RDKit          3D

  0  0  0  0  0  0  0  0  0  0999 V3000
M  V30 BEGIN CTAB
M  V30 COUNTS 27 27 0 0 0
M  V30 BEGIN ATOM
M  V30 1 C -2.7797 -0.492961 1.32176 0
M  V30 2 C -1.28447 -0.710889 1.18716 0
M  V30 3 C -0.791197 -0.143149 -0.162242 0
M  V30 4 C 0.666502 -0.416921 -0.235104 0
M  V30 5 C 1.28451 -0.90757 0.923344 0
M  V30 6 C 2.64377 -1.10767 0.966094 0
M  V30 7 Cl 3.40072 -1.72746 2.44082 0
M  V30 8 C 3.38326 -0.816271 -0.152966 0
M  V30 9 N 2.78936 -0.352006 -1.25262 0
M  V30 10 C 1.45676 -0.145762 -1.32811 0
M  V30 11 N 0.893332 0.259395 -2.58248 0
M  V30 12 C -0.999489 1.36426 -0.0358836 0
M  V30 13 N -0.647982 2.11743 -1.15608 0
M  V30 14 F -1.51203 -0.692214 -1.16836 0
M  V30 15 H -3.30191 -0.618925 0.351102 0
M  V30 16 H -3.02131 0.459527 1.82884 0
M  V30 17 H -3.15326 -1.30128 1.98458 0
M  V30 18 H -1.07971 -1.77018 1.23402 0
M  V30 19 H -0.842577 -0.16091 2.02971 0
M  V30 20 H 0.729293 -1.16082 1.82909 0
M  V30 21 H 4.46623 -0.980561 -0.100353 0
M  V30 22 H 1.35776 1.03332 -3.10921 0
M  V30 23 H 0.0555476 -0.191378 -2.98109 0
M  V30 24 H -0.368317 1.69819 0.844245 0
M  V30 25 H -2.067 1.5893 0.215318 0
M  V30 26 H -1.37117 2.34175 -1.84698 0
M  V30 27 H 0.0930659 2.83377 -1.04461 0
M  V30 END ATOM
M  V30 BEGIN BOND
M  V30 1 1 1 2
M  V30 2 1 2 3
M  V30 3 1 3 4
M  V30 4 2 4 5
M  V30 5 1 5 6
M  V30 6 1 6 7
M  V30 7 2 6 8
M  V30 8 1 8 9
M  V30 9 2 9 10
M  V30 10 1 10 11
M  V30 11 1 3 12
M  V30 12 1 12 13
M  V30 13 1 3 14
M  V30 14 1 10 4
M  V30 15 1 1 15
M  V30 16 1 1 16
M  V30 17 1 1 17
M  V30 18 1 2 18
M  V30 19 1 2 19
M  V30 20 1 5 20
M  V30 21 1 8 21
M  V30 22 1 11 22
M  V30 23 1 11 23
M  V30 24 1 12 24
M  V30 25 1 12 25
M  V30 26 1 13 26
M  V30 27 1 13 27
M  V30 END BOND
M  V30 END CTAB
M  END
