
     RDKit          3D

  0  0  0  0  0  0  0  0  0  0999 V3000
M  V30 BEGIN CTAB
M  V30 COUNTS 34 34 0 0 0
M  V30 BEGIN ATOM
M  V30 1 C -4.57988 1.2185 0.905981 0
M  V30 2 C -4.65718 -0.0218727 0.115224 0
M  V30 3 C -3.62416 -1.05968 0.25202 0
M  V30 4 N -2.28143 -0.817608 -0.0442516 0
M  V30 5 C -1.37088 0.043984 0.551075 0
M  V30 6 O -1.64041 0.772899 1.50761 0
M  V30 7 C 0.0464256 0.12261 0.0302552 0
M  V30 8 S 1.1973 -0.0424833 1.4318 0
M  V30 9 C 2.88106 -0.0846806 0.868522 0
M  V30 10 N 3.49772 -1.25235 0.540674 0
M  V30 11 C 4.77501 -1.30343 0.106762 0
M  V30 12 N 5.375 -2.54716 -0.221677 0
M  V30 13 C 5.49569 -0.127285 -0.0130627 0
M  V30 14 C 4.86735 1.052 0.319983 0
M  V30 15 N 3.57667 1.04437 0.752248 0
M  V30 16 N 5.62675 2.2457 0.194754 0
M  V30 17 C -4.90928 0.369523 -1.34035 0
M  V30 18 H -4.42351 1.03445 1.99189 0
M  V30 19 H -5.64058 1.6613 0.89691 0
M  V30 20 H -3.97912 2.0393 0.484247 0
M  V30 21 H -5.6434 -0.531788 0.407489 0
M  V30 22 H -3.75876 -1.46791 1.32509 0
M  V30 23 H -4.01447 -1.96578 -0.33303 0
M  V30 24 H -1.87295 -1.39142 -0.872125 0
M  V30 25 H 0.201733 1.08472 -0.508911 0
M  V30 26 H 0.270663 -0.695018 -0.672565 0
M  V30 27 H 5.28831 -3.03126 -1.14702 0
M  V30 28 H 5.94677 -3.01684 0.509467 0
M  V30 29 H 6.51625 -0.191767 -0.364106 0
M  V30 30 H 5.79794 2.57854 -0.79062 0
M  V30 31 H 6.01249 2.79 0.993966 0
M  V30 32 H -5.5577 1.26394 -1.3227 0
M  V30 33 H -5.44877 -0.424885 -1.88678 0
M  V30 34 H -3.97063 0.651385 -1.85927 0
M  V30 END ATOM
M  V30 BEGIN BOND
M  V30 1 1 1 2
M  V30 2 1 2 3
M  V30 3 1 3 4
M  V30 4 1 4 5
M  V30 5 2 5 6
M  V30 6 1 5 7
M  V30 7 1 7 8
M  V30 8 1 8 9
M  V30 9 2 9 10
M  V30 10 1 10 11
M  V30 11 1 11 12
M  V30 12 2 11 13
M  V30 13 1 13 14
M  V30 14 2 14 15
M  V30 15 1 14 16
M  V30 16 1 2 17
M  V30 17 1 15 9
M  V30 18 1 1 18
M  V30 19 1 1 19
M  V30 20 1 1 20
M  V30 21 1 2 21
M  V30 22 1 3 22
M  V30 23 1 3 23
M  V30 24 1 4 24
M  V30 25 1 7 25
M  V30 26 1 7 26
M  V30 27 1 12 27
M  V30 28 1 12 28
M  V30 29 1 13 29
M  V30 30 1 16 30
M  V30 31 1 16 31
M  V30 32 1 17 32
M  V30 33 1 17 33
M  V30 34 1 17 34
M  V30 END BOND
M  V30 END CTAB
M  END
