
     RDKit          3D

  0  0  0  0  0  0  0  0  0  0999 V3000
M  V30 BEGIN CTAB
M  V30 COUNTS 26 27 0 0 0
M  V30 BEGIN ATOM
M  V30 1 N 4.84248 0.823011 0.307764 0
M  V30 2 C 3.59955 0.134437 0.253142 0
M  V30 3 C 3.26035 -0.515967 -0.950713 0
M  V30 4 C 2.06534 -1.17982 -1.05256 0
M  V30 5 C 1.18438 -1.21241 0.0368131 0
M  V30 6 C 1.53542 -0.576513 1.19069 0
M  V30 7 C 2.74159 0.102759 1.31292 0
M  V30 8 S -0.401625 -2.04462 -0.182649 0
M  V30 9 C -1.65084 -0.817205 -0.597154 0
M  V30 10 N -1.91646 -0.298376 -1.81406 0
M  V30 11 N -2.91269 0.557283 -1.68506 0
M  V30 12 C -3.30128 0.59822 -0.398737 0
M  V30 13 N -2.50713 -0.269592 0.291278 0
M  V30 14 N -2.64426 -0.54056 1.66939 0
M  V30 15 C -4.37788 1.42105 0.208477 0
M  V30 16 F -5.62337 0.868419 0.0101744 0
M  V30 17 F -4.40596 2.6912 -0.394365 0
M  V30 18 F -4.17038 1.61887 1.5407 0
M  V30 19 H 5.56086 0.69474 1.04481 0
M  V30 20 H 5.0204 1.52954 -0.473457 0
M  V30 21 H 3.91394 -0.522281 -1.79512 0
M  V30 22 H 1.76291 -1.70315 -1.9578 0
M  V30 23 H 0.87647 -0.586772 2.03184 0
M  V30 24 H 3.00456 0.613616 2.2217 0
M  V30 25 H -3.15887 -1.43892 1.93508 0
M  V30 26 H -2.29751 0.053029 2.40853 0
M  V30 END ATOM
M  V30 BEGIN BOND
M  V30 1 1 1 2
M  V30 2 2 2 3
M  V30 3 1 3 4
M  V30 4 2 4 5
M  V30 5 1 5 6
M  V30 6 2 6 7
M  V30 7 1 5 8
M  V30 8 1 8 9
M  V30 9 2 9 10
M  V30 10 1 10 11
M  V30 11 2 11 12
M  V30 12 1 12 13
M  V30 13 1 13 14
M  V30 14 1 12 15
M  V30 15 1 15 16
M  V30 16 1 15 17
M  V30 17 1 15 18
M  V30 18 1 7 2
M  V30 19 1 13 9
M  V30 20 1 1 19
M  V30 21 1 1 20
M  V30 22 1 3 21
M  V30 23 1 4 22
M  V30 24 1 6 23
M  V30 25 1 7 24
M  V30 26 1 14 25
M  V30 27 1 14 26
M  V30 END BOND
M  V30 END CTAB
M  END
