
     RDKit          3D

  0  0  0  0  0  0  0  0  0  0999 V3000
M  V30 BEGIN CTAB
M  V30 COUNTS 39 38 0 0 0
M  V30 BEGIN ATOM
M  V30 1 N 5.50879 1.32029 -1.05369 0
M  V30 2 C 5.65818 0.376999 0.00350878 0
M  V30 3 C 4.30493 0.191064 0.670836 0
M  V30 4 C 3.28262 -0.340236 -0.328501 0 CFG=1
M  V30 5 O 3.65828 -1.55319 -0.834813 0
M  V30 6 C 1.96722 -0.402385 0.377999 0
M  V30 7 N 0.953634 -0.872404 -0.524947 0
M  V30 8 C -0.385812 -0.726397 0.0762413 0
M  V30 9 C -1.42693 -1.34603 -0.810813 0
M  V30 10 C -2.78462 -1.15116 -0.196962 0
M  V30 11 C -3.08859 0.314494 -0.115107 0
M  V30 12 C -4.47076 0.598589 0.47212 0 CFG=2
M  V30 13 N -5.40666 -0.0751729 -0.426347 0
M  V30 14 C -4.67284 2.05983 0.304564 0
M  V30 15 O -5.54864 2.5165 -0.658396 0
M  V30 16 O -4.04751 2.85426 1.03325 0
M  V30 17 H 5.2457 2.22105 -0.726899 0
M  V30 18 H 5.3128 0.972804 -1.94551 0
M  V30 19 H 6.40427 0.766166 0.719597 0
M  V30 20 H 5.92822 -0.583645 -0.457231 0
M  V30 21 H 4.41964 -0.618135 1.43563 0
M  V30 22 H 3.97886 1.12147 1.15334 0
M  V30 23 H 3.18285 0.414069 -1.16415 0
M  V30 24 H 3.04954 -2.29819 -0.586087 0
M  V30 25 H 2.02854 -1.04036 1.2898 0
M  V30 26 H 1.63943 0.618688 0.72219 0
M  V30 27 H 1.09298 -1.88011 -0.779476 0
M  V30 28 H -0.533082 0.386507 0.140889 0
M  V30 29 H -0.336741 -1.17748 1.07623 0
M  V30 30 H -1.44299 -0.799367 -1.79826 0
M  V30 31 H -1.19277 -2.4124 -1.02741 0
M  V30 32 H -3.56791 -1.63813 -0.810845 0
M  V30 33 H -2.82344 -1.6226 0.814654 0
M  V30 34 H -2.3845 0.896883 0.488435 0
M  V30 35 H -3.12412 0.719457 -1.15648 0
M  V30 36 H -4.5658 0.27391 1.51265 0
M  V30 37 H -5.55866 -1.05501 -0.0745716 0
M  V30 38 H -4.9897 -0.104216 -1.37247 0
M  V30 39 H -5.26439 3.07359 -1.46959 0
M  V30 END ATOM
M  V30 BEGIN BOND
M  V30 1 1 1 2
M  V30 2 1 2 3
M  V30 3 1 3 4
M  V30 4 1 4 5
M  V30 5 1 4 6
M  V30 6 1 6 7
M  V30 7 1 7 8
M  V30 8 1 8 9
M  V30 9 1 9 10
M  V30 10 1 10 11
M  V30 11 1 11 12
M  V30 12 1 12 13
M  V30 13 1 12 14
M  V30 14 1 14 15
M  V30 15 2 14 16
M  V30 16 1 1 17
M  V30 17 1 1 18
M  V30 18 1 2 19
M  V30 19 1 2 20
M  V30 20 1 3 21
M  V30 21 1 3 22
M  V30 22 1 4 23 CFG=3
M  V30 23 1 5 24
M  V30 24 1 6 25
M  V30 25 1 6 26
M  V30 26 1 7 27
M  V30 27 1 8 28
M  V30 28 1 8 29
M  V30 29 1 9 30
M  V30 30 1 9 31
M  V30 31 1 10 32
M  V30 32 1 10 33
M  V30 33 1 11 34
M  V30 34 1 11 35
M  V30 35 1 12 36 CFG=1
M  V30 36 1 13 37
M  V30 37 1 13 38
M  V30 38 1 15 39
M  V30 END BOND
M  V30 END CTAB
M  END
