
     RDKit          3D

  0  0  0  0  0  0  0  0  0  0999 V3000
M  V30 BEGIN CTAB
M  V30 COUNTS 33 34 0 0 0
M  V30 BEGIN ATOM
M  V30 1 N -4.55543 2.81865 1.57019 0
M  V30 2 N -3.37634 2.60441 0.859281 0
M  V30 3 C -2.73851 1.32593 0.758718 0
M  V30 4 O -3.30399 0.393678 1.35251 0
M  V30 5 C -1.51398 1.18535 -8.34017e-05 0
M  V30 6 C -0.876816 0.0421378 -0.435175 0
M  V30 7 N 0.269062 0.45114 -0.987717 0
M  V30 8 C 1.36543 -0.280349 -1.55136 0
M  V30 9 C 2.4952 -0.446072 -0.595583 0
M  V30 10 C 2.85062 -1.59559 0.0479925 0
M  V30 11 C 3.91869 -1.63988 0.92663 0
M  V30 12 C 4.65813 -0.497264 1.17146 0
M  V30 13 C 4.3347 0.688772 0.542129 0
M  V30 14 C 3.26909 0.693566 -0.322114 0
M  V30 15 N 0.353876 1.7948 -0.913733 0
M  V30 16 N -0.711053 2.26052 -0.322024 0
M  V30 17 C -1.36665 -1.33097 -0.468846 0
M  V30 18 O -0.56227 -2.3105 -0.294242 0
M  V30 19 N -2.6995 -1.72281 -0.692697 0
M  V30 20 N -3.05819 -3.06378 -0.691273 0
M  V30 21 H -4.442 3.5826 2.28777 0
M  V30 22 H -5.36595 3.03238 0.953504 0
M  V30 23 H -2.9385 3.41585 0.377654 0
M  V30 24 H 1.03912 -1.27356 -1.94997 0
M  V30 25 H 1.77176 0.277834 -2.422 0
M  V30 26 H 2.27917 -2.50769 -0.14006 0
M  V30 27 H 4.20658 -2.54485 1.44013 0
M  V30 28 H 5.49878 -0.504134 1.85434 0
M  V30 29 H 4.92352 1.58606 0.740848 0
M  V30 30 H 3.02422 1.64405 -0.814856 0
M  V30 31 H -3.42855 -1.03269 -0.896793 0
M  V30 32 H -2.63552 -3.51614 0.150388 0
M  V30 33 H -2.68468 -3.53145 -1.53501 0
M  V30 END ATOM
M  V30 BEGIN BOND
M  V30 1 1 1 2
M  V30 2 1 2 3
M  V30 3 2 3 4
M  V30 4 1 3 5
M  V30 5 2 5 6
M  V30 6 1 6 7
M  V30 7 1 7 8
M  V30 8 1 8 9
M  V30 9 2 9 10
M  V30 10 1 10 11
M  V30 11 2 11 12
M  V30 12 1 12 13
M  V30 13 2 13 14
M  V30 14 1 7 15
M  V30 15 2 15 16
M  V30 16 1 6 17
M  V30 17 2 17 18
M  V30 18 1 17 19
M  V30 19 1 19 20
M  V30 20 1 16 5
M  V30 21 1 14 9
M  V30 22 1 1 21
M  V30 23 1 1 22
M  V30 24 1 2 23
M  V30 25 1 8 24
M  V30 26 1 8 25
M  V30 27 1 10 26
M  V30 28 1 11 27
M  V30 29 1 12 28
M  V30 30 1 13 29
M  V30 31 1 14 30
M  V30 32 1 19 31
M  V30 33 1 20 32
M  V30 34 1 20 33
M  V30 END BOND
M  V30 END CTAB
M  END
