
     RDKit          3D

  0  0  0  0  0  0  0  0  0  0999 V3000
M  V30 BEGIN CTAB
M  V30 COUNTS 25 26 0 0 0
M  V30 BEGIN ATOM
M  V30 1 N 4.6736 0.170154 -1.30828 0
M  V30 2 C 3.5691 0.192305 -0.416806 0
M  V30 3 N 3.63793 0.168279 0.918833 0
M  V30 4 N 2.40925 0.200476 1.44603 0
M  V30 5 C 1.54541 0.245666 0.431182 0
M  V30 6 N 2.2418 0.241137 -0.71027 0
M  V30 7 C 0.0560715 0.292946 0.561725 0 CFG=1
M  V30 8 C -0.562161 -0.0064313 -0.762932 0
M  V30 9 C -2.04088 0.0397422 -0.676504 0
M  V30 10 C -2.80189 0.339887 0.428467 0
M  V30 11 N -4.12525 0.271686 0.100258 0
M  V30 12 C -4.17344 -0.0682785 -1.19878 0
M  V30 13 N -2.92993 -0.210341 -1.67637 0
M  V30 14 N -0.27056 -0.706081 1.5672 0
M  V30 15 H 4.56409 0.580538 -2.25205 0
M  V30 16 H 5.57587 -0.26021 -0.994074 0
M  V30 17 H 2.14783 0.192605 2.46233 0
M  V30 18 H -0.2118 1.27419 0.962806 0
M  V30 19 H -0.236261 -1.01787 -1.08037 0
M  V30 20 H -0.215574 0.776295 -1.47595 0
M  V30 21 H -2.46947 0.596578 1.4144 0
M  V30 22 H -4.9145 0.453087 0.751452 0
M  V30 23 H -5.09 -0.207762 -1.77803 0
M  V30 24 H 0.543778 -1.06962 2.07528 0
M  V30 25 H -0.922996 -1.43232 1.21045 0
M  V30 END ATOM
M  V30 BEGIN BOND
M  V30 1 1 1 2
M  V30 2 2 2 3
M  V30 3 1 3 4
M  V30 4 1 4 5
M  V30 5 2 5 6
M  V30 6 1 5 7
M  V30 7 1 7 8
M  V30 8 1 8 9
M  V30 9 2 9 10
M  V30 10 1 10 11
M  V30 11 1 11 12
M  V30 12 2 12 13
M  V30 13 1 7 14
M  V30 14 1 6 2
M  V30 15 1 13 9
M  V30 16 1 1 15
M  V30 17 1 1 16
M  V30 18 1 4 17
M  V30 19 1 7 18 CFG=1
M  V30 20 1 8 19
M  V30 21 1 8 20
M  V30 22 1 10 21
M  V30 23 1 11 22
M  V30 24 1 12 23
M  V30 25 1 14 24
M  V30 26 1 14 25
M  V30 END BOND
M  V30 END CTAB
M  END
