
     RDKit          3D

  0  0  0  0  0  0  0  0  0  0999 V3000
M  V30 BEGIN CTAB
M  V30 COUNTS 24 24 0 0 0
M  V30 BEGIN ATOM
M  V30 1 C 2.90411 0.945024 0.578873 0
M  V30 2 C 1.939 -0.170368 0.239505 0
M  V30 3 C 0.541048 0.339331 0.121435 0
M  V30 4 N 0.10157 1.54193 0.267502 0
M  V30 5 N -1.27983 1.6219 0.0763691 0
M  V30 6 C -1.74021 0.303349 -0.223736 0
M  V30 7 O -2.91773 -0.0486303 -0.460492 0
M  V30 8 C -0.575389 -0.542774 -0.199415 0
M  V30 9 C -0.525161 -1.8597 -0.42339 0
M  V30 10 N 0.647813 -2.60727 -0.380542 0
M  V30 11 N -1.73478 -2.53702 -0.7221 0
M  V30 12 C -2.11384 2.82331 0.163628 0
M  V30 13 H 3.80959 0.469072 1.00865 0
M  V30 14 H 3.24718 1.49627 -0.333578 0
M  V30 15 H 2.47133 1.67322 1.28205 0
M  V30 16 H 2.01054 -0.91178 1.07643 0
M  V30 17 H 2.26656 -0.599369 -0.730231 0
M  V30 18 H 1.21169 -2.75722 -1.23176 0
M  V30 19 H 0.971236 -3.02425 0.509043 0
M  V30 20 H -2.37282 -2.76063 0.0601991 0
M  V30 21 H -1.91726 -2.77351 -1.71167 0
M  V30 22 H -2.7774 2.84482 -0.716772 0
M  V30 23 H -1.4455 3.71224 0.111049 0
M  V30 24 H -2.72174 2.82206 1.08551 0
M  V30 END ATOM
M  V30 BEGIN BOND
M  V30 1 1 1 2
M  V30 2 1 2 3
M  V30 3 2 3 4
M  V30 4 1 4 5
M  V30 5 1 5 6
M  V30 6 2 6 7
M  V30 7 1 6 8
M  V30 8 2 8 9 CFG=2
M  V30 9 1 9 10
M  V30 10 1 9 11
M  V30 11 1 5 12
M  V30 12 1 8 3
M  V30 13 1 1 13
M  V30 14 1 1 14
M  V30 15 1 1 15
M  V30 16 1 2 16
M  V30 17 1 2 17
M  V30 18 1 10 18
M  V30 19 1 10 19
M  V30 20 1 11 20
M  V30 21 1 11 21
M  V30 22 1 12 22
M  V30 23 1 12 23
M  V30 24 1 12 24
M  V30 END BOND
M  V30 END CTAB
M  END
