
     RDKit          3D

  0  0  0  0  0  0  0  0  0  0999 V3000
M  V30 BEGIN CTAB
M  V30 COUNTS 37 38 0 0 0
M  V30 BEGIN ATOM
M  V30 1 N 3.8384 -1.6223 0.503766 0
M  V30 2 C 3.45522 -0.881609 -0.712232 0
M  V30 3 C 1.97564 -0.573834 -0.673138 0
M  V30 4 N 1.5403 0.201791 0.422856 0
M  V30 5 C 1.84117 1.56982 0.500967 0
M  V30 6 C 0.974416 2.4532 -0.356772 0
M  V30 7 C -0.398246 2.71878 0.15211 0
M  V30 8 O -1.01324 1.69655 0.865837 0
M  V30 9 C -0.834513 0.478715 0.330969 0 CFG=1
M  V30 10 C 0.322575 -0.260465 0.937617 0
M  V30 11 C -1.94576 -0.39642 -0.0497064 0
M  V30 12 C -2.20228 -0.796434 -1.34552 0
M  V30 13 C -3.30283 -1.53249 -1.7016 0
M  V30 14 C -4.21431 -1.9005 -0.694491 0
M  V30 15 N -3.96386 -1.51298 0.580632 0
M  V30 16 C -2.9004 -0.808046 0.907358 0
M  V30 17 N -2.58749 -0.511484 2.2579 0
M  V30 18 H 3.1257 -2.38504 0.589663 0
M  V30 19 H 4.75973 -2.06348 0.331497 0
M  V30 20 H 4.07932 -0.000190019 -0.837012 0
M  V30 21 H 3.59035 -1.59844 -1.53527 0
M  V30 22 H 1.66978 -0.196738 -1.66234 0
M  V30 23 H 1.45156 -1.58151 -0.567315 0
M  V30 24 H 2.89096 1.76115 0.240344 0
M  V30 25 H 1.68625 1.91429 1.54339 0
M  V30 26 H 0.988361 2.085 -1.4298 0
M  V30 27 H 1.50561 3.42812 -0.436102 0
M  V30 28 H -1.08603 2.89437 -0.742124 0
M  V30 29 H -0.500624 3.67941 0.706261 0
M  V30 30 H -0.37838 0.75323 -0.741603 0
M  V30 31 H 0.240452 -1.34504 0.875507 0
M  V30 32 H 0.356532 -0.0176624 2.07233 0
M  V30 33 H -1.47735 -0.507524 -2.11283 0
M  V30 34 H -3.49605 -1.83887 -2.73347 0
M  V30 35 H -5.04528 -2.47651 -0.987228 0
M  V30 36 H -1.8215 -1.01646 2.731 0
M  V30 37 H -3.12416 0.189608 2.76855 0
M  V30 END ATOM
M  V30 BEGIN BOND
M  V30 1 1 1 2
M  V30 2 1 2 3
M  V30 3 1 3 4
M  V30 4 1 4 5
M  V30 5 1 5 6
M  V30 6 1 6 7
M  V30 7 1 7 8
M  V30 8 1 8 9
M  V30 9 1 9 10
M  V30 10 1 9 11
M  V30 11 2 11 12
M  V30 12 1 12 13
M  V30 13 2 13 14
M  V30 14 1 14 15
M  V30 15 2 15 16
M  V30 16 1 16 17
M  V30 17 1 10 4
M  V30 18 1 16 11
M  V30 19 1 1 18
M  V30 20 1 1 19
M  V30 21 1 2 20
M  V30 22 1 2 21
M  V30 23 1 3 22
M  V30 24 1 3 23
M  V30 25 1 5 24
M  V30 26 1 5 25
M  V30 27 1 6 26
M  V30 28 1 6 27
M  V30 29 1 7 28
M  V30 30 1 7 29
M  V30 31 1 9 30 CFG=3
M  V30 32 1 10 31
M  V30 33 1 10 32
M  V30 34 1 12 33
M  V30 35 1 13 34
M  V30 36 1 14 35
M  V30 37 1 17 36
M  V30 38 1 17 37
M  V30 END BOND
M  V30 END CTAB
M  END
