
     RDKit          3D

  0  0  0  0  0  0  0  0  0  0999 V3000
M  V30 BEGIN CTAB
M  V30 COUNTS 37 39 0 0 0
M  V30 BEGIN ATOM
M  V30 1 C -3.77686 -1.51059 1.24813 0
M  V30 2 C -3.14977 -1.68535 -0.129473 0
M  V30 3 C -2.56528 -0.408757 -0.518411 0
M  V30 4 C -3.48049 0.537985 -1.00021 0
M  V30 5 C -4.87906 0.224335 -1.09383 0
M  V30 6 N -6.0013 -0.0297302 -1.18951 0
M  V30 7 C -3.12225 1.79761 -1.41156 0
M  V30 8 N -4.05942 2.7358 -1.89365 0
M  V30 9 N -1.81775 2.10139 -1.33325 0
M  V30 10 C -0.924127 1.20272 -0.871928 0
M  V30 11 C -1.20839 -0.0661257 -0.446103 0
M  V30 12 C -0.176831 -0.817349 -0.0131746 0
M  V30 13 N -0.270546 -2.18443 0.490076 0
M  V30 14 C 1.06858 -0.243959 -0.0386532 0
M  V30 15 S 0.762825 1.30918 -0.658847 0
M  V30 16 C 2.35979 -0.786745 0.375337 0
M  V30 17 O 2.35454 -1.97284 0.856923 0
M  V30 18 C 3.60872 -0.0674957 0.272602 0
M  V30 19 C 4.56319 -0.387378 1.24449 0
M  V30 20 C 5.77891 0.223679 1.22324 0
M  V30 21 C 6.12203 1.15677 0.276634 0
M  V30 22 C 5.19414 1.48584 -0.691408 0
M  V30 23 C 3.93635 0.860529 -0.678253 0
M  V30 24 Cl 5.56832 2.66588 -1.92451 0
M  V30 25 Cl 7.70714 1.94198 0.264177 0
M  V30 26 H -4.86246 -1.44412 1.2403 0
M  V30 27 H -3.52511 -2.39538 1.90316 0
M  V30 28 H -3.27822 -0.65355 1.74356 0
M  V30 29 H -2.5378 -2.56561 -0.0759847 0
M  V30 30 H -4.06498 -1.89529 -0.807639 0
M  V30 31 H -4.86514 2.42722 -2.45666 0
M  V30 32 H -3.9324 3.73605 -1.678 0
M  V30 33 H -0.440611 -2.26931 1.5168 0
M  V30 34 H -0.175489 -2.99509 -0.125715 0
M  V30 35 H 4.34105 -1.12051 2.01683 0
M  V30 36 H 6.50939 -0.0328077 1.98211 0
M  V30 37 H 3.23929 1.12545 -1.44916 0
M  V30 END ATOM
M  V30 BEGIN BOND
M  V30 1 1 1 2
M  V30 2 1 2 3
M  V30 3 2 3 4
M  V30 4 1 4 5
M  V30 5 3 5 6
M  V30 6 1 4 7
M  V30 7 1 7 8
M  V30 8 2 7 9
M  V30 9 1 9 10
M  V30 10 2 10 11
M  V30 11 1 11 12
M  V30 12 1 12 13
M  V30 13 2 12 14
M  V30 14 1 14 15
M  V30 15 1 14 16
M  V30 16 2 16 17
M  V30 17 1 16 18
M  V30 18 2 18 19
M  V30 19 1 19 20
M  V30 20 2 20 21
M  V30 21 1 21 22
M  V30 22 2 22 23
M  V30 23 1 22 24
M  V30 24 1 21 25
M  V30 25 1 11 3
M  V30 26 1 23 18
M  V30 27 1 15 10
M  V30 28 1 1 26
M  V30 29 1 1 27
M  V30 30 1 1 28
M  V30 31 1 2 29
M  V30 32 1 2 30
M  V30 33 1 8 31
M  V30 34 1 8 32
M  V30 35 1 13 33
M  V30 36 1 13 34
M  V30 37 1 19 35
M  V30 38 1 20 36
M  V30 39 1 23 37
M  V30 END BOND
M  V30 END CTAB
M  END
