
     RDKit          3D

  0  0  0  0  0  0  0  0  0  0999 V3000
M  V30 BEGIN CTAB
M  V30 COUNTS 17 17 0 0 0
M  V30 BEGIN ATOM
M  V30 1 N -2.15511 -3.02927 0.43218 0
M  V30 2 C -1.49071 -2.09276 0.287027 0
M  V30 3 C -0.652278 -0.921983 0.121293 0
M  V30 4 C 0.678352 -1.10847 -0.187862 0
M  V30 5 C 1.52899 -0.0191653 -0.358239 0
M  V30 6 N 2.89471 -0.210693 -0.675545 0
M  V30 7 C 0.998248 1.24565 -0.208077 0
M  V30 8 C -0.337625 1.44021 0.102463 0
M  V30 9 C -1.16714 0.34935 0.267963 0
M  V30 10 N -2.54127 0.481249 0.585886 0
M  V30 11 I -1.16497 3.35175 0.335196 0
M  V30 12 H 1.05895 -2.12569 -0.298032 0
M  V30 13 H 3.61296 0.455579 -0.328779 0
M  V30 14 H 3.18645 -1.02108 -1.25862 0
M  V30 15 H 1.62578 2.11679 -0.332248 0
M  V30 16 H -2.75143 0.759133 1.58986 0
M  V30 17 H -3.32391 0.329391 -0.0744651 0
M  V30 END ATOM
M  V30 BEGIN BOND
M  V30 1 3 1 2
M  V30 2 1 2 3
M  V30 3 2 3 4
M  V30 4 1 4 5
M  V30 5 1 5 6
M  V30 6 2 5 7
M  V30 7 1 7 8
M  V30 8 2 8 9
M  V30 9 1 9 10
M  V30 10 1 8 11
M  V30 11 1 9 3
M  V30 12 1 4 12
M  V30 13 1 6 13
M  V30 14 1 6 14
M  V30 15 1 7 15
M  V30 16 1 10 16
M  V30 17 1 10 17
M  V30 END BOND
M  V30 END CTAB
M  END
