
     RDKit          3D

  0  0  0  0  0  0  0  0  0  0999 V3000
M  V30 BEGIN CTAB
M  V30 COUNTS 57 59 0 0 0
M  V30 BEGIN ATOM
M  V30 1 N 7.69516 1.35971 -2.50161 0
M  V30 2 C 6.99707 0.688675 -1.45294 0
M  V30 3 N 6.37002 1.43376 -0.545589 0
M  V30 4 C 5.69268 0.849176 0.47029 0
M  V30 5 C 5.6316 -0.503106 0.595866 0
M  V30 6 C 4.91435 -1.1647 1.68714 0
M  V30 7 C 3.91529 -0.34104 2.41883 0
M  V30 8 C 2.51679 -0.438791 1.90925 0
M  V30 9 C 2.30502 -0.0313246 0.503442 0
M  V30 10 C 0.864305 -0.193953 0.178637 0
M  V30 11 C 0.324758 -1.35735 -0.328325 0
M  V30 12 C -1.01761 -1.47455 -0.619398 0
M  V30 13 C -1.88122 -0.390356 -0.401614 0
M  V30 14 C -1.33837 0.761023 0.101749 0
M  V30 15 C 0.00520797 0.857478 0.385802 0
M  V30 16 C -3.28563 -0.503047 -0.701038 0
M  V30 17 O -3.72928 -1.60759 -1.10453 0
M  V30 18 N -4.16795 0.584403 -0.554504 0
M  V30 19 C -5.6173 0.465265 -0.863766 0 CFG=1
M  V30 20 C -6.41123 0.897264 0.317439 0
M  V30 21 C -7.87722 0.804909 0.105148 0
M  V30 22 C -8.40973 -0.528331 -0.191655 0
M  V30 23 O -9.76569 -0.739893 -0.476767 0
M  V30 24 O -7.69781 -1.55708 -0.210508 0
M  V30 25 C -5.83226 1.33689 -2.02543 0
M  V30 26 O -7.05709 1.41653 -2.64096 0
M  V30 27 O -4.90208 2.0295 -2.48787 0
M  V30 28 C 4.32659 1.07757 2.4544 0
M  V30 29 O 4.03149 1.76902 3.46032 0
M  V30 30 N 5.04462 1.69218 1.39233 0
M  V30 31 C 6.28313 -1.26124 -0.347622 0
M  V30 32 N 6.26293 -2.65596 -0.282118 0
M  V30 33 N 6.95764 -0.643057 -1.36041 0
M  V30 34 H 8.59324 0.990515 -2.90963 0
M  V30 35 H 7.33684 2.24641 -2.90328 0
M  V30 36 H 5.71985 -1.42693 2.44484 0
M  V30 37 H 4.52128 -2.1694 1.40416 0
M  V30 38 H 3.88136 -0.690414 3.48962 0
M  V30 39 H 2.12306 -1.48516 2.02914 0
M  V30 40 H 1.87238 0.186268 2.56025 0
M  V30 41 H 2.55395 1.04057 0.350925 0
M  V30 42 H 2.86543 -0.621862 -0.242505 0
M  V30 43 H 0.959407 -2.21694 -0.510304 0
M  V30 44 H -1.47518 -2.36861 -1.01689 0
M  V30 45 H -1.95321 1.61736 0.286814 0
M  V30 46 H 0.388114 1.7667 0.774829 0
M  V30 47 H -3.87893 1.52403 -0.229154 0
M  V30 48 H -5.76049 -0.567908 -1.18449 0
M  V30 49 H -6.15901 0.284891 1.21754 0
M  V30 50 H -6.11539 1.93862 0.586759 0
M  V30 51 H -8.26528 1.53158 -0.634014 0
M  V30 52 H -8.38078 1.09314 1.10781 0
M  V30 53 H -10.0322 -0.812442 -1.45982 0
M  V30 54 H -7.4912 2.32685 -2.76216 0
M  V30 55 H 5.08195 2.72763 1.31106 0
M  V30 56 H 6.64946 -3.23244 0.496697 0
M  V30 57 H 5.81715 -3.17426 -1.09221 0
M  V30 END ATOM
M  V30 BEGIN BOND
M  V30 1 1 1 2
M  V30 2 2 2 3
M  V30 3 1 3 4
M  V30 4 2 4 5
M  V30 5 1 5 6
M  V30 6 1 6 7
M  V30 7 1 7 8
M  V30 8 1 8 9
M  V30 9 1 9 10
M  V30 10 2 10 11
M  V30 11 1 11 12
M  V30 12 2 12 13
M  V30 13 1 13 14
M  V30 14 2 14 15
M  V30 15 1 13 16
M  V30 16 2 16 17
M  V30 17 1 16 18
M  V30 18 1 18 19
M  V30 19 1 19 20
M  V30 20 1 20 21
M  V30 21 1 21 22
M  V30 22 1 22 23
M  V30 23 2 22 24
M  V30 24 1 19 25
M  V30 25 1 25 26
M  V30 26 2 25 27
M  V30 27 1 7 28
M  V30 28 2 28 29
M  V30 29 1 28 30
M  V30 30 1 5 31
M  V30 31 1 31 32
M  V30 32 2 31 33
M  V30 33 1 33 2
M  V30 34 1 30 4
M  V30 35 1 15 10
M  V30 36 1 1 34
M  V30 37 1 1 35
M  V30 38 1 6 36
M  V30 39 1 6 37
M  V30 40 1 7 38
M  V30 41 1 8 39
M  V30 42 1 8 40
M  V30 43 1 9 41
M  V30 44 1 9 42
M  V30 45 1 11 43
M  V30 46 1 12 44
M  V30 47 1 14 45
M  V30 48 1 15 46
M  V30 49 1 18 47
M  V30 50 1 19 48 CFG=3
M  V30 51 1 20 49
M  V30 52 1 20 50
M  V30 53 1 21 51
M  V30 54 1 21 52
M  V30 55 1 23 53
M  V30 56 1 26 54
M  V30 57 1 30 55
M  V30 58 1 32 56
M  V30 59 1 32 57
M  V30 END BOND
M  V30 END CTAB
M  END
