
     RDKit          3D

  0  0  0  0  0  0  0  0  0  0999 V3000
M  V30 BEGIN CTAB
M  V30 COUNTS 56 60 0 0 0
M  V30 BEGIN ATOM
M  V30 1 N -8.78352 -0.900862 -0.745574 0
M  V30 2 C -7.68592 -1.28416 -0.737202 0
M  V30 3 C -6.32537 -1.78229 -0.73642 0
M  V30 4 C -6.16764 -3.1041 -1.06953 0
M  V30 5 N -7.21381 -3.98596 -1.40346 0
M  V30 6 N -4.89744 -3.53749 -1.06046 0
M  V30 7 C -3.85893 -2.70359 -0.739996 0
M  V30 8 C -3.98664 -1.38901 -0.406018 0
M  V30 9 C -5.31215 -0.912212 -0.408767 0
M  V30 10 C -5.66408 0.46385 -0.0794819 0
M  V30 11 C -5.8499 1.46155 -1.01117 0
M  V30 12 C -6.20533 2.74282 -0.646737 0
M  V30 13 C -6.38542 3.06176 0.668846 0
M  V30 14 C -6.20888 2.09108 1.63232 0
M  V30 15 C -5.85355 0.813893 1.2549 0
M  V30 16 Cl -6.84034 4.69184 1.1642 0
M  V30 17 C -2.86725 -0.702452 -0.11825 0
M  V30 18 N -2.80452 0.705849 0.253558 0
M  V30 19 C -1.69046 -1.38866 -0.186068 0
M  V30 20 S -2.15975 -2.95429 -0.643173 0
M  V30 21 C -0.308851 -0.928996 0.068085 0
M  V30 22 O -0.174246 0.25563 0.393683 0
M  V30 23 N 0.706562 -1.8878 -0.0874811 0
M  V30 24 C 2.08434 -1.74543 0.0794429 0
M  V30 25 C 2.93858 -2.85034 0.0152474 0
M  V30 26 C 4.28911 -2.73375 0.167745 0
M  V30 27 C 4.92943 -1.49904 0.400956 0
M  V30 28 C 4.08005 -0.43106 0.462571 0
M  V30 29 C 2.68399 -0.544141 0.304762 0
M  V30 30 C 6.34724 -1.4987 0.617766 0
M  V30 31 O 6.8388 -2.67539 0.925563 0
M  V30 32 C 7.28763 -0.440786 0.550069 0
M  V30 33 C 7.06487 0.785641 0.196015 0
M  V30 34 C 8.20372 1.76174 0.196377 0
M  V30 35 C 8.1818 3.08249 -0.140834 0
M  V30 36 C 9.33821 3.75925 -0.0617746 0
M  V30 37 C 10.4435 3.0617 0.352394 0
M  V30 38 S 9.8334 1.49347 0.615602 0
M  V30 39 H -7.24419 -4.56081 -2.28531 0
M  V30 40 H -8.00821 -4.09191 -0.76179 0
M  V30 41 H -5.70474 1.19958 -2.05426 0
M  V30 42 H -6.34836 3.52266 -1.40608 0
M  V30 43 H -6.35884 2.36975 2.68474 0
M  V30 44 H -5.7217 0.0723359 2.03148 0
M  V30 45 H -2.76229 1.00005 1.24967 0
M  V30 46 H -2.79422 1.39715 -0.49965 0
M  V30 47 H 0.382569 -2.86783 -0.377302 0
M  V30 48 H 2.45839 -3.8181 -0.164854 0
M  V30 49 H 4.9247 -3.62249 0.10646 0
M  V30 50 H 4.44854 0.540323 0.681773 0
M  V30 51 H 2.09629 0.381439 0.366082 0
M  V30 52 H 8.34612 -0.672293 0.834246 0
M  V30 53 H 6.15352 1.16196 -0.132127 0
M  V30 54 H 7.22963 3.55792 -0.46562 0
M  V30 55 H 9.42837 4.8452 -0.316546 0
M  V30 56 H 11.4672 3.46655 0.471384 0
M  V30 END ATOM
M  V30 BEGIN BOND
M  V30 1 3 1 2
M  V30 2 1 2 3
M  V30 3 2 3 4
M  V30 4 1 4 5
M  V30 5 1 4 6
M  V30 6 2 6 7
M  V30 7 1 7 8
M  V30 8 2 8 9
M  V30 9 1 9 10
M  V30 10 2 10 11
M  V30 11 1 11 12
M  V30 12 2 12 13
M  V30 13 1 13 14
M  V30 14 2 14 15
M  V30 15 1 13 16
M  V30 16 1 8 17
M  V30 17 1 17 18
M  V30 18 2 17 19
M  V30 19 1 19 20
M  V30 20 1 19 21
M  V30 21 2 21 22
M  V30 22 1 21 23
M  V30 23 1 23 24
M  V30 24 2 24 25
M  V30 25 1 25 26
M  V30 26 2 26 27
M  V30 27 1 27 28
M  V30 28 2 28 29
M  V30 29 1 27 30
M  V30 30 2 30 31
M  V30 31 1 30 32
M  V30 32 2 32 33
M  V30 33 1 33 34
M  V30 34 2 34 35
M  V30 35 1 35 36
M  V30 36 2 36 37
M  V30 37 1 37 38
M  V30 38 1 9 3
M  V30 39 1 15 10
M  V30 40 1 29 24
M  V30 41 1 38 34
M  V30 42 1 20 7
M  V30 43 1 5 39
M  V30 44 1 5 40
M  V30 45 1 11 41
M  V30 46 1 12 42
M  V30 47 1 14 43
M  V30 48 1 15 44
M  V30 49 1 18 45
M  V30 50 1 18 46
M  V30 51 1 23 47
M  V30 52 1 25 48
M  V30 53 1 26 49
M  V30 54 1 28 50
M  V30 55 1 29 51
M  V30 56 1 32 52
M  V30 57 1 33 53
M  V30 58 1 35 54
M  V30 59 1 36 55
M  V30 60 1 37 56
M  V30 END BOND
M  V30 END CTAB
M  END
