
     RDKit          3D

  0  0  0  0  0  0  0  0  0  0999 V3000
M  V30 BEGIN CTAB
M  V30 COUNTS 32 32 0 0 0
M  V30 BEGIN ATOM
M  V30 1 N 5.69815 0.995101 1.24944 0
M  V30 2 N 4.8227 0.954953 0.163789 0
M  V30 3 C 3.43105 0.662089 0.296904 0
M  V30 4 O 3.02348 0.437638 1.46145 0
M  V30 5 C 2.54248 0.629357 -0.87037 0
M  V30 6 O 1.22747 0.279953 -0.631152 0
M  V30 7 C 0.686786 -0.860345 -0.142859 0
M  V30 8 C 1.39509 -1.97931 0.220857 0
M  V30 9 C 0.779598 -3.12101 0.718804 0
M  V30 10 C -0.588336 -3.15764 0.862106 0
M  V30 11 C -1.32077 -2.04896 0.504173 0
M  V30 12 C -0.696308 -0.920288 0.0106168 0
M  V30 13 O -1.44113 0.18573 -0.34513 0
M  V30 14 C -2.84854 0.156546 -0.201216 0
M  V30 15 C -3.48473 1.40354 -0.62149 0
M  V30 16 O -2.80667 2.37036 -1.05774 0
M  V30 17 N -4.89656 1.52863 -0.536583 0
M  V30 18 N -5.56328 2.71025 -0.928788 0
M  V30 19 H 6.34445 1.83233 1.14809 0
M  V30 20 H 5.1053 1.18259 2.09927 0
M  V30 21 H 5.19867 1.14579 -0.77888 0
M  V30 22 H 2.59231 1.59428 -1.45588 0
M  V30 23 H 2.98017 -0.12343 -1.59222 0
M  V30 24 H 2.46929 -2.00191 0.117642 0
M  V30 25 H 1.36726 -3.9857 0.99641 0
M  V30 26 H -1.0765 -4.05749 1.25484 0
M  V30 27 H -2.40954 -2.08879 0.622163 0
M  V30 28 H -3.15156 -0.0293938 0.870469 0
M  V30 29 H -3.25209 -0.742687 -0.751684 0
M  V30 30 H -5.47766 0.757905 -0.184991 0
M  V30 31 H -5.11657 3.55395 -0.509898 0
M  V30 32 H -5.53403 2.73596 -1.98814 0
M  V30 END ATOM
M  V30 BEGIN BOND
M  V30 1 1 1 2
M  V30 2 1 2 3
M  V30 3 2 3 4
M  V30 4 1 3 5
M  V30 5 1 5 6
M  V30 6 1 6 7
M  V30 7 2 7 8
M  V30 8 1 8 9
M  V30 9 2 9 10
M  V30 10 1 10 11
M  V30 11 2 11 12
M  V30 12 1 12 13
M  V30 13 1 13 14
M  V30 14 1 14 15
M  V30 15 2 15 16
M  V30 16 1 15 17
M  V30 17 1 17 18
M  V30 18 1 12 7
M  V30 19 1 1 19
M  V30 20 1 1 20
M  V30 21 1 2 21
M  V30 22 1 5 22
M  V30 23 1 5 23
M  V30 24 1 8 24
M  V30 25 1 9 25
M  V30 26 1 10 26
M  V30 27 1 11 27
M  V30 28 1 14 28
M  V30 29 1 14 29
M  V30 30 1 17 30
M  V30 31 1 18 31
M  V30 32 1 18 32
M  V30 END BOND
M  V30 END CTAB
M  END
