
     RDKit          3D

  0  0  0  0  0  0  0  0  0  0999 V3000
M  V30 BEGIN CTAB
M  V30 COUNTS 121 120 0 0 0
M  V30 BEGIN ATOM
M  V30 1 N -18.8034 2.38035 0.4335 0
M  V30 2 C -18.2355 1.64779 -0.689183 0
M  V30 3 C -18.1615 0.178898 -0.370029 0
M  V30 4 C -17.2793 -0.0586483 0.864457 0
M  V30 5 O -17.2096 -1.39635 1.15763 0
M  V30 6 C -16.4664 -1.75592 2.23722 0
M  V30 7 C -14.9856 -1.36467 2.13607 0
M  V30 8 O -14.4574 -1.97888 1.04855 0
M  V30 9 C -13.1119 -1.67114 0.842699 0
M  V30 10 C -12.1994 -2.06651 1.94612 0
M  V30 11 O -10.9141 -1.78813 1.77167 0
M  V30 12 C -10.1041 -2.36929 0.939129 0
M  V30 13 C -10.2849 -2.42304 -0.533629 0
M  V30 14 C -9.04874 -3.13303 -1.11461 0
M  V30 15 N -7.82985 -2.4228 -0.797094 0
M  V30 16 C -7.60941 -1.08134 -1.20775 0
M  V30 17 O -8.45375 -0.433314 -1.86694 0
M  V30 18 C -6.27627 -0.465643 -0.798107 0
M  V30 19 C -6.33952 0.945478 -1.29529 0
M  V30 20 O -5.36608 1.80564 -1.19511 0
M  V30 21 C -4.79348 2.18785 -0.0663984 0
M  V30 22 C -3.89493 1.18507 0.583945 0
M  V30 23 O -2.84842 0.844277 -0.291355 0
M  V30 24 C -2.11103 1.94326 -0.702585 0
M  V30 25 C -0.994328 1.46405 -1.59032 0
M  V30 26 O -0.167763 0.60095 -0.921257 0
M  V30 27 C 0.446351 1.15722 0.177918 0
M  V30 28 C 1.22338 2.37146 -0.217711 0
M  V30 29 O 2.17605 2.19944 -1.0992 0
M  V30 30 C 3.33915 1.59338 -1.02964 0
M  V30 31 C 3.50102 0.175692 -0.635979 0
M  V30 32 O 4.82988 -0.243922 -0.680769 0
M  V30 33 C 5.72464 0.438341 0.0717731 0
M  V30 34 C 7.08505 -0.238506 -0.094504 0
M  V30 35 C 8.12217 0.5066 0.685733 0
M  V30 36 O 7.80309 1.57636 1.28676 0
M  V30 37 N 9.45635 0.0621438 0.78026 0
M  V30 38 C 10.478 0.779461 1.51709 0
M  V30 39 C 10.7509 2.14888 0.965361 0
M  V30 40 C 11.1986 2.15631 -0.452476 0
M  V30 41 O 12.3498 1.63878 -0.837582 0
M  V30 42 C 12.8237 0.418697 -0.691288 0
M  V30 43 C 14.1827 0.337473 -1.46794 0
M  V30 44 O 15.0428 1.25629 -0.965356 0
M  V30 45 C 15.426 1.17017 0.333558 0
M  V30 46 C 16.207 -0.0823724 0.697629 0
M  V30 47 O 17.3621 -0.098695 -0.074647 0
M  V30 48 C 18.1961 -1.14862 0.233613 0
M  V30 49 C 17.5246 -2.46729 -0.00300263 0
M  V30 50 C 17.134 -2.64797 -1.43723 0
M  V30 51 N 16.4787 -3.93239 -1.57267 0
M  V30 52 H -18.4861 3.37633 0.390602 0
M  V30 53 H -19.8607 2.35547 0.355615 0
M  V30 54 H -17.2172 2.06981 -0.907233 0
M  V30 55 H -18.8838 1.83736 -1.56875 0
M  V30 56 H -17.7677 -0.378564 -1.24026 0
M  V30 57 H -19.2053 -0.155799 -0.159082 0
M  V30 58 H -17.7428 0.553474 1.67169 0
M  V30 59 H -16.2738 0.327315 0.664374 0
M  V30 60 H -16.4749 -2.87273 2.28821 0
M  V30 61 H -16.8436 -1.30594 3.19035 0
M  V30 62 H -14.8482 -0.271874 2.18182 0
M  V30 63 H -14.4839 -1.77853 3.06347 0
M  V30 64 H -13.092 -0.542032 0.809502 0
M  V30 65 H -12.8609 -2.09786 -0.123518 0
M  V30 66 H -12.5771 -1.62084 2.94679 0
M  V30 67 H -12.3696 -3.20223 2.08742 0
M  V30 68 H -9.04602 -1.94251 1.1006 0
M  V30 69 H -9.88874 -3.48459 1.23227 0
M  V30 70 H -11.1098 -3.14765 -0.817987 0
M  V30 71 H -10.5025 -1.47512 -0.993305 0
M  V30 72 H -8.99881 -4.15052 -0.692523 0
M  V30 73 H -9.13437 -3.18667 -2.21308 0
M  V30 74 H -7.0964 -2.92635 -0.246973 0
M  V30 75 H -6.3774 -0.511425 0.337553 0
M  V30 76 H -5.42907 -1.05049 -1.14491 0
M  V30 77 H -6.67211 0.827679 -2.39209 0
M  V30 78 H -7.33633 1.34154 -0.83102 0
M  V30 79 H -4.2788 3.19928 -0.135481 0
M  V30 80 H -5.58598 2.40657 0.757669 0
M  V30 81 H -4.37717 0.251727 0.859055 0
M  V30 82 H -3.43118 1.63517 1.51287 0
M  V30 83 H -2.78272 2.62357 -1.32232 0
M  V30 84 H -1.68734 2.55081 0.112417 0
M  V30 85 H -1.52247 0.871685 -2.41548 0
M  V30 86 H -0.455743 2.31227 -2.07994 0
M  V30 87 H -0.367653 1.41353 0.928031 0
M  V30 88 H 1.02272 0.370902 0.696033 0
M  V30 89 H 1.65264 2.8717 0.722067 0
M  V30 90 H 0.515058 3.17943 -0.57649 0
M  V30 91 H 4.00437 2.18446 -0.287483 0
M  V30 92 H 3.85629 1.71086 -2.04878 0
M  V30 93 H 3.20654 0.00811906 0.445043 0
M  V30 94 H 2.91281 -0.551932 -1.22542 0
M  V30 95 H 5.46328 0.315776 1.14258 0
M  V30 96 H 5.81939 1.52522 -0.116008 0
M  V30 97 H 7.04481 -1.29652 0.231531 0
M  V30 98 H 7.38622 -0.235583 -1.15939 0
M  V30 99 H 9.6927 -0.845412 0.274775 0
M  V30 100 H 10.0253 0.922633 2.56701 0
M  V30 101 H 11.3333 0.135204 1.66222 0
M  V30 102 H 9.85463 2.79361 1.1038 0
M  V30 103 H 11.5313 2.61737 1.63808 0
M  V30 104 H 11.187 3.25575 -0.803098 0
M  V30 105 H 10.3098 1.73655 -1.0706 0
M  V30 106 H 12.206 -0.421123 -1.12105 0
M  V30 107 H 13.0914 0.0667941 0.338417 0
M  V30 108 H 14.0066 0.574954 -2.53732 0
M  V30 109 H 14.5184 -0.723478 -1.4373 0
M  V30 110 H 14.5458 1.27228 1.01386 0
M  V30 111 H 16.1141 2.05313 0.531705 0
M  V30 112 H 15.6089 -0.988718 0.409605 0
M  V30 113 H 16.4845 -0.0890387 1.75226 0
M  V30 114 H 19.0767 -1.0671 -0.442859 0
M  V30 115 H 18.4915 -1.01847 1.29702 0
M  V30 116 H 18.2844 -3.25813 0.244776 0
M  V30 117 H 16.6697 -2.65262 0.674959 0
M  V30 118 H 16.5514 -1.81855 -1.84542 0
M  V30 119 H 18.099 -2.65353 -2.03485 0
M  V30 120 H 16.7798 -4.38059 -2.47614 0
M  V30 121 H 16.8062 -4.54775 -0.780929 0
M  V30 END ATOM
M  V30 BEGIN BOND
M  V30 1 1 1 2
M  V30 2 1 2 3
M  V30 3 1 3 4
M  V30 4 1 4 5
M  V30 5 1 5 6
M  V30 6 1 6 7
M  V30 7 1 7 8
M  V30 8 1 8 9
M  V30 9 1 9 10
M  V30 10 1 10 11
M  V30 11 1 11 12
M  V30 12 1 12 13
M  V30 13 1 13 14
M  V30 14 1 14 15
M  V30 15 1 15 16
M  V30 16 2 16 17
M  V30 17 1 16 18
M  V30 18 1 18 19
M  V30 19 1 19 20
M  V30 20 1 20 21
M  V30 21 1 21 22
M  V30 22 1 22 23
M  V30 23 1 23 24
M  V30 24 1 24 25
M  V30 25 1 25 26
M  V30 26 1 26 27
M  V30 27 1 27 28
M  V30 28 1 28 29
M  V30 29 1 29 30
M  V30 30 1 30 31
M  V30 31 1 31 32
M  V30 32 1 32 33
M  V30 33 1 33 34
M  V30 34 1 34 35
M  V30 35 2 35 36
M  V30 36 1 35 37
M  V30 37 1 37 38
M  V30 38 1 38 39
M  V30 39 1 39 40
M  V30 40 1 40 41
M  V30 41 1 41 42
M  V30 42 1 42 43
M  V30 43 1 43 44
M  V30 44 1 44 45
M  V30 45 1 45 46
M  V30 46 1 46 47
M  V30 47 1 47 48
M  V30 48 1 48 49
M  V30 49 1 49 50
M  V30 50 1 50 51
M  V30 51 1 1 52
M  V30 52 1 1 53
M  V30 53 1 2 54
M  V30 54 1 2 55
M  V30 55 1 3 56
M  V30 56 1 3 57
M  V30 57 1 4 58
M  V30 58 1 4 59
M  V30 59 1 6 60
M  V30 60 1 6 61
M  V30 61 1 7 62
M  V30 62 1 7 63
M  V30 63 1 9 64
M  V30 64 1 9 65
M  V30 65 1 10 66
M  V30 66 1 10 67
M  V30 67 1 12 68
M  V30 68 1 12 69
M  V30 69 1 13 70
M  V30 70 1 13 71
M  V30 71 1 14 72
M  V30 72 1 14 73
M  V30 73 1 15 74
M  V30 74 1 18 75
M  V30 75 1 18 76
M  V30 76 1 19 77
M  V30 77 1 19 78
M  V30 78 1 21 79
M  V30 79 1 21 80
M  V30 80 1 22 81
M  V30 81 1 22 82
M  V30 82 1 24 83
M  V30 83 1 24 84
M  V30 84 1 25 85
M  V30 85 1 25 86
M  V30 86 1 27 87
M  V30 87 1 27 88
M  V30 88 1 28 89
M  V30 89 1 28 90
M  V30 90 1 30 91
M  V30 91 1 30 92
M  V30 92 1 31 93
M  V30 93 1 31 94
M  V30 94 1 33 95
M  V30 95 1 33 96
M  V30 96 1 34 97
M  V30 97 1 34 98
M  V30 98 1 37 99
M  V30 99 1 38 100
M  V30 100 1 38 101
M  V30 101 1 39 102
M  V30 102 1 39 103
M  V30 103 1 40 104
M  V30 104 1 40 105
M  V30 105 1 42 106
M  V30 106 1 42 107
M  V30 107 1 43 108
M  V30 108 1 43 109
M  V30 109 1 45 110
M  V30 110 1 45 111
M  V30 111 1 46 112
M  V30 112 1 46 113
M  V30 113 1 48 114
M  V30 114 1 48 115
M  V30 115 1 49 116
M  V30 116 1 49 117
M  V30 117 1 50 118
M  V30 118 1 50 119
M  V30 119 1 51 120
M  V30 120 1 51 121
M  V30 END BOND
M  V30 END CTAB
M  END
