
     RDKit          3D

  0  0  0  0  0  0  0  0  0  0999 V3000
M  V30 BEGIN CTAB
M  V30 COUNTS 27 27 0 0 0
M  V30 BEGIN ATOM
M  V30 1 N -3.80209 0.420779 1.77819 0
M  V30 2 C -2.7023 0.104075 0.936257 0
M  V30 3 N -1.46867 -0.101771 1.41443 0
M  V30 4 C -0.418499 -0.404508 0.607249 0
M  V30 5 N 0.846932 -0.624661 1.19713 0
M  V30 6 C 2.06408 -0.887367 0.513262 0
M  V30 7 C 2.62213 0.301364 -0.2357 0
M  V30 8 C 3.91477 -0.203325 -0.896694 0
M  V30 9 O 4.7329 -0.623277 0.145191 0
M  V30 10 C -0.649438 -0.498265 -0.736496 0
M  V30 11 C -1.91857 -0.2921 -1.28467 0
M  V30 12 C -2.9368 0.0103943 -0.419467 0
M  V30 13 N -4.23263 0.221565 -0.97267 0
M  V30 14 H -3.81893 0.0940875 2.76942 0
M  V30 15 H -4.6238 0.979048 1.45818 0
M  V30 16 H 0.918163 -0.594989 2.26281 0
M  V30 17 H 1.98338 -1.69836 -0.246774 0
M  V30 18 H 2.88701 -1.22157 1.19817 0
M  V30 19 H 1.91616 0.713294 -0.970323 0
M  V30 20 H 2.91975 1.10633 0.481107 0
M  V30 21 H 4.37802 0.59624 -1.51048 0
M  V30 22 H 3.6487 -1.08502 -1.51253 0
M  V30 23 H 4.95902 -1.58268 0.0827225 0
M  V30 24 H 0.168741 -0.750255 -1.39077 0
M  V30 25 H -2.0379 -0.38022 -2.35966 0
M  V30 26 H -4.36816 1.03272 -1.59653 0
M  V30 27 H -4.98198 -0.46658 -0.711356 0
M  V30 END ATOM
M  V30 BEGIN BOND
M  V30 1 1 1 2
M  V30 2 2 2 3
M  V30 3 1 3 4
M  V30 4 1 4 5
M  V30 5 1 5 6
M  V30 6 1 6 7
M  V30 7 1 7 8
M  V30 8 1 8 9
M  V30 9 2 4 10
M  V30 10 1 10 11
M  V30 11 2 11 12
M  V30 12 1 12 13
M  V30 13 1 12 2
M  V30 14 1 1 14
M  V30 15 1 1 15
M  V30 16 1 5 16
M  V30 17 1 6 17
M  V30 18 1 6 18
M  V30 19 1 7 19
M  V30 20 1 7 20
M  V30 21 1 8 21
M  V30 22 1 8 22
M  V30 23 1 9 23
M  V30 24 1 10 24
M  V30 25 1 11 25
M  V30 26 1 13 26
M  V30 27 1 13 27
M  V30 END BOND
M  V30 END CTAB
M  END
