
     RDKit          3D

  0  0  0  0  0  0  0  0  0  0999 V3000
M  V30 BEGIN CTAB
M  V30 COUNTS 24 25 0 0 0
M  V30 BEGIN ATOM
M  V30 1 N -3.54016 0.0555867 0.218018 0
M  V30 2 C -2.42511 -0.800413 0.118894 0
M  V30 3 N -2.64533 -2.07072 0.0875195 0
M  V30 4 C -1.09853 -0.23634 0.0566927 0
M  V30 5 C -0.040191 -1.13356 -0.0413006 0
M  V30 6 C 1.23375 -0.595407 -0.101472 0
M  V30 7 C 2.34738 -1.44144 -0.201076 0
M  V30 8 C 3.6074 -0.893287 -0.260018 0
M  V30 9 C 3.72961 0.477731 -0.218677 0
M  V30 10 C 2.66197 1.33024 -0.121707 0
M  V30 11 C 1.3867 0.775598 -0.0620464 0
M  V30 12 N 0.32701 1.62243 0.034238 0
M  V30 13 C -0.918399 1.11623 0.0937778 0
M  V30 14 N -2.06758 1.94849 0.195447 0
M  V30 15 H -3.99634 0.390701 -0.648363 0
M  V30 16 H -3.91974 0.359096 1.13133 0
M  V30 17 H -3.58187 -2.47705 0.130939 0
M  V30 18 H -0.203013 -2.20012 -0.0692406 0
M  V30 19 H 2.16636 -2.50318 -0.227713 0
M  V30 20 H 4.48825 -1.54938 -0.338337 0
M  V30 21 H 4.72862 0.899562 -0.265863 0
M  V30 22 H 2.74346 2.40965 -0.0882359 0
M  V30 23 H -2.37517 2.18085 1.16502 0
M  V30 24 H -2.60907 2.33472 -0.587823 0
M  V30 END ATOM
M  V30 BEGIN BOND
M  V30 1 1 1 2
M  V30 2 2 2 3 CFG=2
M  V30 3 1 2 4
M  V30 4 2 4 5
M  V30 5 1 5 6
M  V30 6 2 6 7
M  V30 7 1 7 8
M  V30 8 2 8 9
M  V30 9 1 9 10
M  V30 10 2 10 11
M  V30 11 1 11 12
M  V30 12 2 12 13
M  V30 13 1 13 14
M  V30 14 1 13 4
M  V30 15 1 11 6
M  V30 16 1 1 15
M  V30 17 1 1 16
M  V30 18 1 3 17
M  V30 19 1 5 18
M  V30 20 1 7 19
M  V30 21 1 8 20
M  V30 22 1 9 21
M  V30 23 1 10 22
M  V30 24 1 14 23
M  V30 25 1 14 24
M  V30 END BOND
M  V30 END CTAB
M  END
