
     RDKit          3D

  0  0  0  0  0  0  0  0  0  0999 V3000
M  V30 BEGIN CTAB
M  V30 COUNTS 21 22 0 0 0
M  V30 BEGIN ATOM
M  V30 1 N -2.99246 -1.9595 0.834943 0
M  V30 2 C -2.15061 -0.885838 0.436411 0
M  V30 3 N -2.65191 0.32871 0.148584 0
M  V30 4 C -1.85576 1.33995 -0.227131 0
M  V30 5 N -2.47173 2.58438 -0.51058 0
M  V30 6 N -0.506287 1.16772 -0.329659 0
M  V30 7 C 0.0563521 -0.0200014 -0.0563094 0
M  V30 8 C -0.778884 -1.04508 0.327711 0
M  V30 9 C 1.49909 -0.236146 -0.156866 0
M  V30 10 S 2.34731 -1.67971 0.15686 0
M  V30 11 C 3.93872 -1.15182 -0.171081 0
M  V30 12 C 3.74766 0.157022 -0.520336 0
M  V30 13 C 2.49579 0.628273 -0.513433 0
M  V30 14 Cl 2.07777 2.30676 -0.941934 0
M  V30 15 H -3.62756 -2.4383 0.169194 0
M  V30 16 H -2.96007 -2.26193 1.82258 0
M  V30 17 H -2.8805 2.82801 -1.41905 0
M  V30 18 H -2.49468 3.28178 0.284423 0
M  V30 19 H -0.331697 -1.99849 0.547636 0
M  V30 20 H 4.89815 -1.70553 -0.121843 0
M  V30 21 H 4.64131 0.759737 -0.791232 0
M  V30 END ATOM
M  V30 BEGIN BOND
M  V30 1 1 1 2
M  V30 2 2 2 3
M  V30 3 1 3 4
M  V30 4 1 4 5
M  V30 5 2 4 6
M  V30 6 1 6 7
M  V30 7 2 7 8
M  V30 8 1 7 9
M  V30 9 1 9 10
M  V30 10 1 10 11
M  V30 11 2 11 12
M  V30 12 1 12 13
M  V30 13 1 13 14
M  V30 14 1 8 2
M  V30 15 2 13 9
M  V30 16 1 1 15
M  V30 17 1 1 16
M  V30 18 1 5 17
M  V30 19 1 5 18
M  V30 20 1 8 19
M  V30 21 1 11 20
M  V30 22 1 12 21
M  V30 END BOND
M  V30 END CTAB
M  END
