
     RDKit          3D

  0  0  0  0  0  0  0  0  0  0999 V3000
M  V30 BEGIN CTAB
M  V30 COUNTS 38 38 0 0 0
M  V30 BEGIN ATOM
M  V30 1 C -4.20218 -0.0491927 0.16295 0
M  V30 2 C -3.10261 -0.531241 -0.732558 0
M  V30 3 C -1.90271 0.321511 -0.665289 0
M  V30 4 C -1.23879 0.445629 0.682099 0 CFG=1
M  V30 5 C -0.0606248 1.33274 0.512334 0
M  V30 6 O -0.102404 2.55106 0.907677 0
M  V30 7 N 1.1488 0.897501 -0.0791865 0
M  V30 8 C 2.25798 1.82909 -0.241474 0
M  V30 9 C 3.40517 1.22404 0.531749 0
M  V30 10 C 3.77076 -0.133998 0.0273742 0
M  V30 11 C 2.64961 -1.04942 -0.239845 0
M  V30 12 C 1.30495 -0.448135 -0.502927 0
M  V30 13 N 3.00425 -1.97595 -1.32861 0
M  V30 14 N -2.11376 1.14054 1.62561 0
M  V30 15 C -2.86206 -1.98643 -0.451244 0
M  V30 16 H -4.12511 -0.396006 1.18553 0
M  V30 17 H -4.21331 1.06135 0.1441 0
M  V30 18 H -5.18211 -0.425595 -0.223725 0
M  V30 19 H -3.51478 -0.48543 -1.78122 0
M  V30 20 H -1.14352 0.00530038 -1.39707 0
M  V30 21 H -2.17525 1.36381 -0.961669 0
M  V30 22 H -0.956281 -0.504628 1.14468 0
M  V30 23 H 2.48918 1.95262 -1.31343 0
M  V30 24 H 2.00594 2.79353 0.215092 0
M  V30 25 H 4.25483 1.92306 0.445311 0
M  V30 26 H 3.10599 1.23059 1.6108 0
M  V30 27 H 4.50837 -0.55991 0.770484 0
M  V30 28 H 4.37437 0.0108385 -0.90671 0
M  V30 29 H 2.53037 -1.72305 0.657708 0
M  V30 30 H 0.50446 -1.10932 -0.112989 0
M  V30 31 H 1.17774 -0.46263 -1.62649 0
M  V30 32 H 3.7613 -2.64048 -1.01313 0
M  V30 33 H 3.29503 -1.44923 -2.17793 0
M  V30 34 H -2.04853 2.16522 1.53883 0
M  V30 35 H -2.03434 0.774132 2.58624 0
M  V30 36 H -1.95234 -2.38045 -0.930317 0
M  V30 37 H -3.72101 -2.55415 -0.8875 0
M  V30 38 H -2.89738 -2.15731 0.63913 0
M  V30 END ATOM
M  V30 BEGIN BOND
M  V30 1 1 1 2
M  V30 2 1 2 3
M  V30 3 1 3 4
M  V30 4 1 4 5
M  V30 5 2 5 6
M  V30 6 1 5 7
M  V30 7 1 7 8
M  V30 8 1 8 9
M  V30 9 1 9 10
M  V30 10 1 10 11
M  V30 11 1 11 12
M  V30 12 1 11 13
M  V30 13 1 4 14
M  V30 14 1 2 15
M  V30 15 1 12 7
M  V30 16 1 1 16
M  V30 17 1 1 17
M  V30 18 1 1 18
M  V30 19 1 2 19
M  V30 20 1 3 20
M  V30 21 1 3 21
M  V30 22 1 4 22 CFG=1
M  V30 23 1 8 23
M  V30 24 1 8 24
M  V30 25 1 9 25
M  V30 26 1 9 26
M  V30 27 1 10 27
M  V30 28 1 10 28
M  V30 29 1 11 29
M  V30 30 1 12 30
M  V30 31 1 12 31
M  V30 32 1 13 32
M  V30 33 1 13 33
M  V30 34 1 14 34
M  V30 35 1 14 35
M  V30 36 1 15 36
M  V30 37 1 15 37
M  V30 38 1 15 38
M  V30 END BOND
M  V30 END CTAB
M  END
