
     RDKit          3D

  0  0  0  0  0  0  0  0  0  0999 V3000
M  V30 BEGIN CTAB
M  V30 COUNTS 25 26 0 0 0
M  V30 BEGIN ATOM
M  V30 1 C 4.31846 -0.336796 0.163967 0
M  V30 2 C 3.06699 0.0452866 0.0667071 0
M  V30 3 C 1.90237 0.140862 0.969864 0
M  V30 4 N 1.0466 0.0373615 -0.201009 0
M  V30 5 C 2.17162 0.574669 -0.981349 0
M  V30 6 C -0.282679 -0.394695 -0.451271 0
M  V30 7 N -0.582155 -1.40284 -1.2806 0
M  V30 8 C -1.85673 -1.78723 -1.49514 0
M  V30 9 C -2.91539 -1.15506 -0.865886 0
M  V30 10 C -2.61715 -0.123171 -0.0162889 0
M  V30 11 C -1.31291 0.255427 0.190735 0
M  V30 12 N -1.02434 1.34931 1.09381 0
M  V30 13 N -3.65154 0.561223 0.655128 0
M  V30 14 H 4.70054 -0.699869 1.13545 0
M  V30 15 H 5.03635 -0.33315 -0.63187 0
M  V30 16 H 1.78846 -0.685277 1.69975 0
M  V30 17 H 1.75702 1.11008 1.47533 0
M  V30 18 H 2.26661 0.13347 -1.97853 0
M  V30 19 H 2.13566 1.70313 -0.976135 0
M  V30 20 H -2.11062 -2.59756 -2.1606 0
M  V30 21 H -3.94806 -1.48602 -1.05627 0
M  V30 22 H -0.991112 1.16772 2.10695 0
M  V30 23 H -0.85108 2.30713 0.74625 0
M  V30 24 H -3.9497 0.246975 1.59387 0
M  V30 25 H -4.09719 1.36901 0.197136 0
M  V30 END ATOM
M  V30 BEGIN BOND
M  V30 1 2 1 2 CFG=2
M  V30 2 1 2 3
M  V30 3 1 3 4
M  V30 4 1 4 5
M  V30 5 1 4 6
M  V30 6 2 6 7
M  V30 7 1 7 8
M  V30 8 2 8 9
M  V30 9 1 9 10
M  V30 10 2 10 11
M  V30 11 1 11 12
M  V30 12 1 10 13
M  V30 13 1 5 2
M  V30 14 1 11 6
M  V30 15 1 1 14
M  V30 16 1 1 15
M  V30 17 1 3 16
M  V30 18 1 3 17
M  V30 19 1 5 18
M  V30 20 1 5 19
M  V30 21 1 8 20
M  V30 22 1 9 21
M  V30 23 1 12 22
M  V30 24 1 12 23
M  V30 25 1 13 24
M  V30 26 1 13 25
M  V30 END BOND
M  V30 END CTAB
M  END
