
     RDKit          3D

  0  0  0  0  0  0  0  0  0  0999 V3000
M  V30 BEGIN CTAB
M  V30 COUNTS 56 60 0 0 0
M  V30 BEGIN ATOM
M  V30 1 C 6.98682 -1.49868 1.40543 0
M  V30 2 C 5.61071 -1.52659 0.813105 0
M  V30 3 C 4.51698 -1.9643 1.53482 0
M  V30 4 C 3.24344 -1.97894 0.954561 0
M  V30 5 C 3.04833 -1.5595 -0.344583 0
M  V30 6 C 4.15056 -1.12587 -1.05053 0
M  V30 7 C 5.41478 -1.11254 -0.470967 0
M  V30 8 S 1.47383 -1.5881 -1.08915 0
M  V30 9 C 0.480223 -0.152728 -0.927439 0
M  V30 10 C -0.784497 -0.208139 -1.53836 0
M  V30 11 S -1.33451 -1.65607 -2.38537 0
M  V30 12 C -2.21378 -2.81044 -1.36293 0
M  V30 13 C -1.60125 -3.83777 -0.680217 0
M  V30 14 C -2.36982 -4.70786 0.108153 0
M  V30 15 C -3.73241 -4.55408 0.213089 0
M  V30 16 C -4.35424 -3.54363 -0.455691 0
M  V30 17 C -3.586 -2.69069 -1.23088 0
M  V30 18 C -4.54258 -5.49026 1.05855 0
M  V30 19 C -1.64482 0.8686 -1.48835 0
M  V30 20 N -2.94261 0.838169 -2.11502 0
M  V30 21 C -1.29501 2.03967 -0.8353 0
M  V30 22 C -0.0602779 2.10679 -0.232542 0
M  V30 23 C 0.801488 1.00319 -0.293827 0
M  V30 24 N 2.0402 1.15898 0.34741 0
M  V30 25 C 0.332907 3.31838 0.457695 0
M  V30 26 O 1.4622 3.42819 1.02927 0
M  V30 27 C -0.55957 4.47263 0.525546 0
M  V30 28 C -1.78164 4.38105 -0.0815665 0
M  V30 29 C -2.21336 3.17487 -0.787457 0
M  V30 30 O -3.31883 3.07757 -1.34271 0
M  V30 31 C -2.64496 5.4508 -0.0355834 0
M  V30 32 C -2.27209 6.60093 0.619394 0
M  V30 33 C -1.03924 6.698 1.2338 0
M  V30 34 C -0.1816 5.62085 1.18209 0
M  V30 35 H 7.01572 -1.96363 2.39487 0
M  V30 36 H 7.28557 -0.420412 1.46468 0
M  V30 37 H 7.73437 -1.97148 0.735231 0
M  V30 38 H 4.69099 -2.28792 2.54874 0
M  V30 39 H 2.42801 -2.3313 1.56749 0
M  V30 40 H 4.05216 -0.790757 -2.0603 0
M  V30 41 H 6.27936 -0.764141 -1.04827 0
M  V30 42 H -0.537861 -3.97329 -0.757489 0
M  V30 43 H -1.84429 -5.5024 0.628015 0
M  V30 44 H -5.4289 -3.4053 -0.386103 0
M  V30 45 H -4.09616 -1.91763 -1.74224 0
M  V30 46 H -4.22363 -6.52468 0.901465 0
M  V30 47 H -4.45803 -5.22652 2.13513 0
M  V30 48 H -5.62101 -5.40366 0.798817 0
M  V30 49 H -2.96008 1.07183 -3.13104 0
M  V30 50 H -3.80576 0.602095 -1.60257 0
M  V30 51 H 2.1674 0.901708 1.34418 0
M  V30 52 H 2.82903 1.55115 -0.209769 0
M  V30 53 H -3.61134 5.36765 -0.520125 0
M  V30 54 H -2.97514 7.44026 0.643493 0
M  V30 55 H -0.806696 7.62945 1.73192 0
M  V30 56 H 0.796902 5.68652 1.66504 0
M  V30 END ATOM
M  V30 BEGIN BOND
M  V30 1 1 1 2
M  V30 2 2 2 3
M  V30 3 1 3 4
M  V30 4 2 4 5
M  V30 5 1 5 6
M  V30 6 2 6 7
M  V30 7 1 5 8
M  V30 8 1 8 9
M  V30 9 1 9 10
M  V30 10 1 10 11
M  V30 11 1 11 12
M  V30 12 2 12 13
M  V30 13 1 13 14
M  V30 14 2 14 15
M  V30 15 1 15 16
M  V30 16 2 16 17
M  V30 17 1 15 18
M  V30 18 2 10 19
M  V30 19 1 19 20
M  V30 20 1 19 21
M  V30 21 2 21 22
M  V30 22 1 22 23
M  V30 23 1 23 24
M  V30 24 1 22 25
M  V30 25 2 25 26
M  V30 26 1 25 27
M  V30 27 2 27 28
M  V30 28 1 28 29
M  V30 29 2 29 30
M  V30 30 1 28 31
M  V30 31 2 31 32
M  V30 32 1 32 33
M  V30 33 2 33 34
M  V30 34 1 7 2
M  V30 35 2 23 9
M  V30 36 1 34 27
M  V30 37 1 17 12
M  V30 38 1 29 21
M  V30 39 1 1 35
M  V30 40 1 1 36
M  V30 41 1 1 37
M  V30 42 1 3 38
M  V30 43 1 4 39
M  V30 44 1 6 40
M  V30 45 1 7 41
M  V30 46 1 13 42
M  V30 47 1 14 43
M  V30 48 1 16 44
M  V30 49 1 17 45
M  V30 50 1 18 46
M  V30 51 1 18 47
M  V30 52 1 18 48
M  V30 53 1 20 49
M  V30 54 1 20 50
M  V30 55 1 24 51
M  V30 56 1 24 52
M  V30 57 1 31 53
M  V30 58 1 32 54
M  V30 59 1 33 55
M  V30 60 1 34 56
M  V30 END BOND
M  V30 END CTAB
M  END
