
     RDKit          3D

  0  0  0  0  0  0  0  0  0  0999 V3000
M  V30 BEGIN CTAB
M  V30 COUNTS 47 48 0 0 0
M  V30 BEGIN ATOM
M  V30 1 N 5.93959 1.36226 0.239606 0
M  V30 2 C 4.55371 1.22052 0.0786507 0 CFG=1
M  V30 3 C 4.10793 0.836658 -1.31425 0
M  V30 4 C 2.75767 0.213188 -1.09444 0
M  V30 5 N 2.61599 0.0148368 0.326351 0
M  V30 6 C 3.95318 0.0725085 0.898148 0 CFG=1
M  V30 7 C 4.64137 -1.22535 0.562417 0
M  V30 8 C 1.41378 -0.197121 1.04613 0
M  V30 9 O 1.44079 -0.356045 2.29127 0
M  V30 10 N 0.171108 -0.233039 0.378661 0
M  V30 11 C -1.04495 -0.450705 1.13196 0
M  V30 12 C -2.24378 -0.446568 0.189126 0
M  V30 13 N -2.07358 -1.49745 -0.77086 0
M  V30 14 C -3.45553 -0.76865 1.05499 0
M  V30 15 C -4.66955 -1.10188 0.217008 0
M  V30 16 C -5.07249 0.190857 -0.490037 0
M  V30 17 C -4.32543 0.239473 -1.7941 0
M  V30 18 C -3.03077 0.970649 -1.72827 0
M  V30 19 C -2.34832 0.915486 -0.402718 0
M  V30 20 H 6.55932 0.858528 -0.382779 0
M  V30 21 H 6.21123 2.34864 0.283307 0
M  V30 22 H 4.02313 2.13189 0.35909 0
M  V30 23 H 4.0918 1.71712 -1.97519 0
M  V30 24 H 4.79807 0.0771371 -1.76829 0
M  V30 25 H 1.99329 0.936626 -1.46825 0
M  V30 26 H 2.61004 -0.731853 -1.65192 0
M  V30 27 H 3.94903 0.300467 1.96823 0
M  V30 28 H 4.25769 -1.5796 -0.417171 0
M  V30 29 H 4.33221 -1.96926 1.32108 0
M  V30 30 H 5.75023 -1.1221 0.555565 0
M  V30 31 H 0.156825 -0.10048 -0.653683 0
M  V30 32 H -1.18519 0.333829 1.92628 0
M  V30 33 H -1.02153 -1.46833 1.60297 0
M  V30 34 H -1.4131 -2.19478 -0.395971 0
M  V30 35 H -1.79599 -1.199 -1.70983 0
M  V30 36 H -3.636 0.131383 1.67402 0
M  V30 37 H -3.15589 -1.62662 1.69554 0
M  V30 38 H -4.3876 -1.87726 -0.525371 0
M  V30 39 H -5.45073 -1.45521 0.909154 0
M  V30 40 H -6.15687 0.0981983 -0.713623 0
M  V30 41 H -4.92743 1.07029 0.136013 0
M  V30 42 H -4.99098 0.789645 -2.52084 0
M  V30 43 H -4.23566 -0.794177 -2.20963 0
M  V30 44 H -2.33848 0.599681 -2.50926 0
M  V30 45 H -3.20167 2.05242 -1.97055 0
M  V30 46 H -1.31553 1.31259 -0.535492 0
M  V30 47 H -2.85094 1.60061 0.307897 0
M  V30 END ATOM
M  V30 BEGIN BOND
M  V30 1 1 1 2
M  V30 2 1 2 3
M  V30 3 1 3 4
M  V30 4 1 4 5
M  V30 5 1 5 6
M  V30 6 1 6 7
M  V30 7 1 5 8
M  V30 8 2 8 9
M  V30 9 1 8 10
M  V30 10 1 10 11
M  V30 11 1 11 12
M  V30 12 1 12 13
M  V30 13 1 12 14
M  V30 14 1 14 15
M  V30 15 1 15 16
M  V30 16 1 16 17
M  V30 17 1 17 18
M  V30 18 1 18 19
M  V30 19 1 6 2
M  V30 20 1 19 12
M  V30 21 1 1 20
M  V30 22 1 1 21
M  V30 23 1 2 22 CFG=1
M  V30 24 1 3 23
M  V30 25 1 3 24
M  V30 26 1 4 25
M  V30 27 1 4 26
M  V30 28 1 6 27 CFG=1
M  V30 29 1 7 28
M  V30 30 1 7 29
M  V30 31 1 7 30
M  V30 32 1 10 31
M  V30 33 1 11 32
M  V30 34 1 11 33
M  V30 35 1 13 34
M  V30 36 1 13 35
M  V30 37 1 14 36
M  V30 38 1 14 37
M  V30 39 1 15 38
M  V30 40 1 15 39
M  V30 41 1 16 40
M  V30 42 1 16 41
M  V30 43 1 17 42
M  V30 44 1 17 43
M  V30 45 1 18 44
M  V30 46 1 18 45
M  V30 47 1 19 46
M  V30 48 1 19 47
M  V30 END BOND
M  V30 END CTAB
M  END
