
     RDKit          3D

  0  0  0  0  0  0  0  0  0  0999 V3000
M  V30 BEGIN CTAB
M  V30 COUNTS 59 62 0 0 0
M  V30 BEGIN ATOM
M  V30 1 N -1.74132 -3.63964 -3.25377 0
M  V30 2 C -1.41556 -2.62096 -2.27341 0
M  V30 3 N -0.228127 -2.26252 -1.85414 0
M  V30 4 C -0.330048 -1.29603 -0.925093 0
M  V30 5 C -1.63378 -1.03178 -0.746208 0
M  V30 6 N -2.30556 -1.88468 -1.61453 0
M  V30 7 C -2.4042 -0.218083 0.132218 0
M  V30 8 C -2.23049 0.288819 1.30378 0
M  V30 9 C -3.31072 1.1551 1.96769 0
M  V30 10 N -4.3846 1.3876 1.20262 0
M  V30 11 C -5.48835 1.6481 0.377414 0
M  V30 12 O -5.41569 2.22106 -0.728147 0
M  V30 13 C -6.84957 1.22315 0.849245 0
M  V30 14 C -7.19024 0.625662 2.02214 0
M  V30 15 C -8.57743 0.437293 2.04548 0
M  V30 16 Br -9.56253 -0.34132 3.47278 0
M  V30 17 C -9.02858 0.947179 0.841703 0
M  V30 18 Br -10.8556 0.969513 0.302454 0
M  V30 19 N -7.96518 1.41082 0.147993 0
M  V30 20 C 0.853369 -0.684382 -0.318567 0
M  V30 21 N 1.08389 -0.780459 1.06765 0
M  V30 22 C 1.63452 0.478073 1.49853 0
M  V30 23 N 2.31665 0.698448 2.71462 0
M  V30 24 N 1.39814 1.38517 0.608739 0
M  V30 25 C 0.689067 0.820091 -0.460012 0
M  V30 26 O 0.0495392 1.35982 -1.3545 0
M  V30 27 C 2.05775 -0.969443 -1.14637 0
M  V30 28 C 3.20595 -1.44812 -0.741442 0
M  V30 29 C 4.333 -1.67924 -1.74475 0
M  V30 30 N 5.4669 -1.02239 -1.61944 0
M  V30 31 C 6.65573 -0.334505 -1.4891 0
M  V30 32 O 7.656 -0.447719 -2.25999 0
M  V30 33 C 6.87326 0.641165 -0.372419 0
M  V30 34 C 5.95345 1.10125 0.544961 0
M  V30 35 C 6.60445 1.98235 1.4204 0
M  V30 36 Br 5.84755 2.93139 2.89921 0
M  V30 37 C 7.90527 2.02896 0.999647 0
M  V30 38 Br 9.3403 3.0538 1.77907 0
M  V30 39 N 8.04835 1.20977 -0.087142 0
M  V30 40 H -2.71226 -3.96709 -3.33792 0
M  V30 41 H -1.02108 -4.05042 -3.87604 0
M  V30 42 H -3.34787 -1.94203 -1.73355 0
M  V30 43 H -3.41011 0.11074 -0.288706 0
M  V30 44 H -1.35602 0.0930949 1.84349 0
M  V30 45 H -3.62109 0.601986 2.92364 0
M  V30 46 H -2.77508 2.03987 2.38617 0
M  V30 47 H -3.59645 2.04719 0.303537 0
M  V30 48 H -6.48234 0.347547 2.80676 0
M  V30 49 H -8.01435 1.84921 -0.784704 0
M  V30 50 H 0.910781 -1.58051 1.70627 0
M  V30 51 H 1.73406 0.862887 3.55824 0
M  V30 52 H 3.34537 0.693725 2.73922 0
M  V30 53 H 1.93447 -0.734874 -2.20732 0
M  V30 54 H 3.30509 -1.66253 0.309043 0
M  V30 55 H 3.79978 -1.47302 -2.75703 0
M  V30 56 H 4.41324 -2.81321 -1.74146 0
M  V30 57 H 5.98044 -1.65033 -2.7309 0
M  V30 58 H 4.91622 0.816185 0.582879 0
M  V30 59 H 8.94161 1.06828 -0.597152 0
M  V30 END ATOM
M  V30 BEGIN BOND
M  V30 1 1 1 2
M  V30 2 2 2 3
M  V30 3 1 3 4
M  V30 4 2 4 5
M  V30 5 1 5 6
M  V30 6 1 5 7
M  V30 7 2 7 8
M  V30 8 1 8 9
M  V30 9 1 9 10
M  V30 10 1 10 11
M  V30 11 2 11 12
M  V30 12 1 11 13
M  V30 13 2 13 14
M  V30 14 1 14 15
M  V30 15 1 15 16
M  V30 16 2 15 17
M  V30 17 1 17 18
M  V30 18 1 17 19
M  V30 19 1 4 20
M  V30 20 1 20 21
M  V30 21 1 21 22
M  V30 22 1 22 23
M  V30 23 2 22 24
M  V30 24 1 24 25
M  V30 25 2 25 26
M  V30 26 1 20 27
M  V30 27 2 27 28
M  V30 28 1 28 29
M  V30 29 1 29 30
M  V30 30 1 30 31
M  V30 31 2 31 32
M  V30 32 1 31 33
M  V30 33 2 33 34
M  V30 34 1 34 35
M  V30 35 1 35 36
M  V30 36 2 35 37
M  V30 37 1 37 38
M  V30 38 1 37 39
M  V30 39 1 6 2
M  V30 40 1 19 13
M  V30 41 1 25 20
M  V30 42 1 39 33
M  V30 43 1 1 40
M  V30 44 1 1 41
M  V30 45 1 6 42
M  V30 46 1 7 43
M  V30 47 1 8 44
M  V30 48 1 9 45
M  V30 49 1 9 46
M  V30 50 1 10 47
M  V30 51 1 14 48
M  V30 52 1 19 49
M  V30 53 1 21 50
M  V30 54 1 23 51
M  V30 55 1 23 52
M  V30 56 1 27 53
M  V30 57 1 28 54
M  V30 58 1 29 55
M  V30 59 1 29 56
M  V30 60 1 30 57
M  V30 61 1 34 58
M  V30 62 1 39 59
M  V30 END BOND
M  V30 END CTAB
M  END
