
     RDKit          3D

  0  0  0  0  0  0  0  0  0  0999 V3000
M  V30 BEGIN CTAB
M  V30 COUNTS 85 90 0 0 0
M  V30 BEGIN ATOM
M  V30 1 N 0.639628 -1.27507 2.14033 0
M  V30 2 C 1.25623 -1.85999 1.35587 0
M  V30 3 C 2.04704 -2.60058 0.374947 0
M  V30 4 C 3.40384 -2.454 0.315548 0
M  V30 5 C 4.13953 -3.16508 -0.601089 0
M  V30 6 C 3.50303 -4.04341 -1.47419 0
M  V30 7 C 2.14976 -4.19693 -1.42366 0
M  V30 8 C 1.40001 -3.46454 -0.485487 0
M  V30 9 C -0.0184527 -3.64659 -0.404775 0
M  V30 10 C -0.989211 -2.6843 -0.922545 0
M  V30 11 C -2.32117 -2.83729 -0.449828 0
M  V30 12 C -3.35471 -2.06511 -0.849427 0
M  V30 13 C -3.18121 -1.03385 -1.78073 0
M  V30 14 C -1.90388 -0.878057 -2.23857 0
M  V30 15 C -0.823525 -1.68703 -1.81953 0
M  V30 16 C 0.448053 -1.3852 -2.40276 0
M  V30 17 N 1.45182 -1.10814 -2.89414 0
M  V30 18 N -4.29288 -0.287403 -2.22588 0
M  V30 19 C -4.29321 0.978633 -2.7962 0
M  V30 20 O -3.24621 1.63553 -2.96146 0
M  V30 21 C -5.54719 1.63274 -3.25493 0
M  V30 22 S -6.95613 0.573392 -2.88305 0
M  V30 23 C -7.2513 0.596817 -1.11123 0
M  V30 24 N -8.19341 -0.200495 -0.672424 0
M  V30 25 C -8.48434 -0.229949 0.709019 0
M  V30 26 N -7.83429 0.521195 1.51809 0
M  V30 27 C -6.78831 1.44265 1.16709 0
M  V30 28 N -6.4849 1.40973 -0.265172 0
M  V30 29 C -7.21087 2.8364 1.50849 0
M  V30 30 C -8.462 3.25362 1.15096 0
M  V30 31 C -8.85293 4.53578 1.45462 0
M  V30 32 C -7.96663 5.38063 2.11919 0
M  V30 33 C -6.72131 4.95567 2.47174 0
M  V30 34 C -6.3358 3.66133 2.16182 0
M  V30 35 Cl -8.5127 7.01366 2.48266 0
M  V30 36 N -9.50969 -1.11036 1.15997 0
M  V30 37 N 5.57386 -3.00275 -0.636425 0
M  V30 38 C 6.30753 -3.02441 -1.82239 0
M  V30 39 O 5.66472 -3.16688 -2.92854 0
M  V30 40 C 7.76041 -2.90587 -1.92167 0
M  V30 41 S 8.66372 -2.63716 -0.410798 0
M  V30 42 C 8.49773 -1.01227 0.260103 0
M  V30 43 N 9.12198 -0.694843 1.3517 0
M  V30 44 C 9.05609 0.564558 1.94966 0
M  V30 45 N 8.34857 1.48708 1.40948 0
M  V30 46 C 7.60322 1.29345 0.190322 0
M  V30 47 N 7.68188 -0.0340345 -0.345644 0
M  V30 48 C 6.19825 1.6921 0.468316 0
M  V30 49 C 5.12054 0.978111 0.0322051 0
M  V30 50 C 3.83722 1.41769 0.352731 0
M  V30 51 C 3.65741 2.55932 1.1006 0
M  V30 52 C 4.75099 3.27358 1.53576 0
M  V30 53 C 6.03798 2.84606 1.223 0
M  V30 54 Cl 2.04222 3.13222 1.52382 0
M  V30 55 N 9.76496 0.840555 3.15092 0
M  V30 56 H 3.88499 -1.76215 1.01412 0
M  V30 57 H 4.06777 -4.63793 -2.19696 0
M  V30 58 H 1.60907 -4.87166 -2.08748 0
M  V30 59 H -0.298375 -4.6519 -0.845415 0
M  V30 60 H -0.27881 -3.83645 0.705671 0
M  V30 61 H -2.46692 -3.63813 0.276634 0
M  V30 62 H -4.3814 -2.20018 -0.470947 0
M  V30 63 H -1.71425 -0.101209 -2.96779 0
M  V30 64 H -5.23391 -0.769216 -2.11168 0
M  V30 65 H -5.50754 1.85847 -4.34743 0
M  V30 66 H -5.73293 2.60054 -2.69121 0
M  V30 67 H -5.87282 1.20969 1.73926 0
M  V30 68 H -5.70924 1.98673 -0.649604 0
M  V30 69 H -9.13337 2.56938 0.631732 0
M  V30 70 H -9.83049 4.91837 1.19345 0
M  V30 71 H -6.02151 5.61786 2.99441 0
M  V30 72 H -5.33067 3.35692 2.4596 0
M  V30 73 H -10.3554 -1.23577 0.579834 0
M  V30 74 H -9.43164 -1.62978 2.05575 0
M  V30 75 H 6.04447 -2.8681 0.274723 0
M  V30 76 H 8.19773 -3.77728 -2.5054 0
M  V30 77 H 8.00769 -2.02521 -2.60814 0
M  V30 78 H 8.02964 1.99068 -0.591271 0
M  V30 79 H 7.11819 -0.274968 -1.20775 0
M  V30 80 H 5.23493 0.0828794 -0.552607 0
M  V30 81 H 2.98109 0.850149 0.00704858 0
M  V30 82 H 4.59148 4.17589 2.12812 0
M  V30 83 H 6.9088 3.37736 1.54469 0
M  V30 84 H 10.3351 0.0758056 3.57183 0
M  V30 85 H 9.6964 1.78829 3.56917 0
M  V30 END ATOM
M  V30 BEGIN BOND
M  V30 1 3 1 2
M  V30 2 1 2 3
M  V30 3 2 3 4
M  V30 4 1 4 5
M  V30 5 2 5 6
M  V30 6 1 6 7
M  V30 7 2 7 8
M  V30 8 1 8 9
M  V30 9 1 9 10
M  V30 10 2 10 11
M  V30 11 1 11 12
M  V30 12 2 12 13
M  V30 13 1 13 14
M  V30 14 2 14 15
M  V30 15 1 15 16
M  V30 16 3 16 17
M  V30 17 1 13 18
M  V30 18 1 18 19
M  V30 19 2 19 20
M  V30 20 1 19 21
M  V30 21 1 21 22
M  V30 22 1 22 23
M  V30 23 2 23 24
M  V30 24 1 24 25
M  V30 25 2 25 26
M  V30 26 1 26 27
M  V30 27 1 27 28
M  V30 28 1 27 29
M  V30 29 2 29 30
M  V30 30 1 30 31
M  V30 31 2 31 32
M  V30 32 1 32 33
M  V30 33 2 33 34
M  V30 34 1 32 35
M  V30 35 1 25 36
M  V30 36 1 5 37
M  V30 37 1 37 38
M  V30 38 2 38 39
M  V30 39 1 38 40
M  V30 40 1 40 41
M  V30 41 1 41 42
M  V30 42 2 42 43
M  V30 43 1 43 44
M  V30 44 2 44 45
M  V30 45 1 45 46
M  V30 46 1 46 47
M  V30 47 1 46 48
M  V30 48 2 48 49
M  V30 49 1 49 50
M  V30 50 2 50 51
M  V30 51 1 51 52
M  V30 52 2 52 53
M  V30 53 1 51 54
M  V30 54 1 44 55
M  V30 55 1 8 3
M  V30 56 1 15 10
M  V30 57 1 28 23
M  V30 58 1 34 29
M  V30 59 1 47 42
M  V30 60 1 53 48
M  V30 61 1 4 56
M  V30 62 1 6 57
M  V30 63 1 7 58
M  V30 64 1 9 59
M  V30 65 1 9 60
M  V30 66 1 11 61
M  V30 67 1 12 62
M  V30 68 1 14 63
M  V30 69 1 18 64
M  V30 70 1 21 65
M  V30 71 1 21 66
M  V30 72 1 27 67
M  V30 73 1 28 68
M  V30 74 1 30 69
M  V30 75 1 31 70
M  V30 76 1 33 71
M  V30 77 1 34 72
M  V30 78 1 36 73
M  V30 79 1 36 74
M  V30 80 1 37 75
M  V30 81 1 40 76
M  V30 82 1 40 77
M  V30 83 1 46 78
M  V30 84 1 47 79
M  V30 85 1 49 80
M  V30 86 1 50 81
M  V30 87 1 52 82
M  V30 88 1 53 83
M  V30 89 1 55 84
M  V30 90 1 55 85
M  V30 END BOND
M  V30 END CTAB
M  END
