
     RDKit          3D

  0  0  0  0  0  0  0  0  0  0999 V3000
M  V30 BEGIN CTAB
M  V30 COUNTS 61 63 0 0 0
M  V30 BEGIN ATOM
M  V30 1 N -6.53307 -3.47269 1.67357 0
M  V30 2 C -5.88288 -2.32936 1.12964 0
M  V30 3 C -6.57177 -1.40021 0.397351 0
M  V30 4 C -5.86662 -0.323693 -0.0913594 0
M  V30 5 C -4.51312 -0.118006 0.107172 0
M  V30 6 C -3.81733 -1.07086 0.852571 0
M  V30 7 C -4.51618 -2.14508 1.34287 0
M  V30 8 O -2.43225 -0.905131 1.07459 0
M  V30 9 C -1.4905 -0.883933 -0.00111512 0
M  V30 10 C -0.779552 -2.20687 -0.134641 0
M  V30 11 O -0.0195074 -2.14794 -1.3026 0
M  V30 12 C 1.31632 -2.19597 -0.992121 0
M  V30 13 C 2.17418 -1.55991 -2.0998 0
M  V30 14 O 3.49287 -1.45117 -1.77502 0
M  V30 15 C 4.30309 -1.14604 -0.749163 0
M  V30 16 C 5.12713 -2.12954 -0.219949 0
M  V30 17 C 6.00131 -1.93681 0.830492 0
M  V30 18 N 6.83217 -2.9804 1.34473 0
M  V30 19 C 6.08541 -0.704787 1.41052 0
M  V30 20 C 5.28395 0.294351 0.911284 0
M  V30 21 C 4.39 0.127843 -0.149954 0
M  V30 22 O 3.65518 1.19855 -0.550565 0
M  V30 23 C 2.31016 1.4989 -0.6297 0
M  V30 24 C 2.13052 2.9291 -0.114642 0
M  V30 25 O 0.788038 3.15855 0.143465 0
M  V30 26 C 0.491833 4.46604 -0.247122 0
M  V30 27 C -0.911937 4.54282 -0.817736 0
M  V30 28 O -1.77302 3.87355 0.05161 0
M  V30 29 C -2.34583 2.81895 -0.61676 0
M  V30 30 C -3.20124 1.99804 0.359929 0
M  V30 31 O -3.8252 0.993462 -0.400833 0
M  V30 32 H -7.29828 -3.40512 2.37191 0
M  V30 33 H -6.23869 -4.42209 1.36688 0
M  V30 34 H -7.62408 -1.54401 0.233364 0
M  V30 35 H -6.45946 0.402885 -0.690499 0
M  V30 36 H -4.02592 -2.92131 1.94669 0
M  V30 37 H -0.70853 -0.136729 0.310472 0
M  V30 38 H -1.95716 -0.57828 -0.952603 0
M  V30 39 H -1.49473 -3.05453 -0.24206 0
M  V30 40 H -0.139815 -2.38163 0.751007 0
M  V30 41 H 1.70335 -3.22046 -0.816674 0
M  V30 42 H 1.50059 -1.60602 -0.0683724 0
M  V30 43 H 2.1373 -2.39009 -2.90157 0
M  V30 44 H 1.67231 -0.736088 -2.6128 0
M  V30 45 H 5.17154 -3.17147 -0.599662 0
M  V30 46 H 7.12398 -3.01206 2.34431 0
M  V30 47 H 7.1823 -3.75619 0.739855 0
M  V30 48 H 6.77011 -0.556962 2.23286 0
M  V30 49 H 5.42859 1.25514 1.43476 0
M  V30 50 H 2.01221 1.54997 -1.70175 0
M  V30 51 H 1.62975 0.803271 -0.100275 0
M  V30 52 H 2.74148 3.04925 0.807625 0
M  V30 53 H 2.4995 3.61007 -0.888269 0
M  V30 54 H 1.193 4.79142 -1.04611 0
M  V30 55 H 0.569924 5.18233 0.585541 0
M  V30 56 H -0.887765 4.03126 -1.82122 0
M  V30 57 H -1.19475 5.59186 -0.968417 0
M  V30 58 H -1.55471 2.1644 -1.06934 0
M  V30 59 H -3.04792 3.21854 -1.36877 0
M  V30 60 H -2.66383 1.67888 1.24396 0
M  V30 61 H -3.94244 2.77204 0.742442 0
M  V30 END ATOM
M  V30 BEGIN BOND
M  V30 1 1 1 2
M  V30 2 2 2 3
M  V30 3 1 3 4
M  V30 4 2 4 5
M  V30 5 1 5 6
M  V30 6 2 6 7
M  V30 7 1 6 8
M  V30 8 1 8 9
M  V30 9 1 9 10
M  V30 10 1 10 11
M  V30 11 1 11 12
M  V30 12 1 12 13
M  V30 13 1 13 14
M  V30 14 1 14 15
M  V30 15 2 15 16
M  V30 16 1 16 17
M  V30 17 1 17 18
M  V30 18 2 17 19
M  V30 19 1 19 20
M  V30 20 2 20 21
M  V30 21 1 21 22
M  V30 22 1 22 23
M  V30 23 1 23 24
M  V30 24 1 24 25
M  V30 25 1 25 26
M  V30 26 1 26 27
M  V30 27 1 27 28
M  V30 28 1 28 29
M  V30 29 1 29 30
M  V30 30 1 30 31
M  V30 31 1 7 2
M  V30 32 1 21 15
M  V30 33 1 31 5
M  V30 34 1 1 32
M  V30 35 1 1 33
M  V30 36 1 3 34
M  V30 37 1 4 35
M  V30 38 1 7 36
M  V30 39 1 9 37
M  V30 40 1 9 38
M  V30 41 1 10 39
M  V30 42 1 10 40
M  V30 43 1 12 41
M  V30 44 1 12 42
M  V30 45 1 13 43
M  V30 46 1 13 44
M  V30 47 1 16 45
M  V30 48 1 18 46
M  V30 49 1 18 47
M  V30 50 1 19 48
M  V30 51 1 20 49
M  V30 52 1 23 50
M  V30 53 1 23 51
M  V30 54 1 24 52
M  V30 55 1 24 53
M  V30 56 1 26 54
M  V30 57 1 26 55
M  V30 58 1 27 56
M  V30 59 1 27 57
M  V30 60 1 29 58
M  V30 61 1 29 59
M  V30 62 1 30 60
M  V30 63 1 30 61
M  V30 END BOND
M  V30 END CTAB
M  END
