
     RDKit          3D

  0  0  0  0  0  0  0  0  0  0999 V3000
M  V30 BEGIN CTAB
M  V30 COUNTS 44 47 0 0 0
M  V30 BEGIN ATOM
M  V30 1 N 7.31785 0.227579 1.28522 0
M  V30 2 C 6.02519 0.935085 1.26824 0
M  V30 3 C 5.2787 1.01496 0.0891224 0
M  V30 4 C 3.84569 1.24331 -0.266122 0
M  V30 5 N 3.44553 -0.171329 -0.409797 0
M  V30 6 C 2.05504 -0.366828 -0.215473 0
M  V30 7 C 1.20713 0.229727 -1.29427 0
M  V30 8 C -0.230319 -0.00628354 -1.03426 0
M  V30 9 C -0.927106 0.931256 -0.302672 0
M  V30 10 C -2.26627 0.79766 -0.00994168 0
M  V30 11 C -2.93354 -0.318529 -0.467875 0
M  V30 12 C -2.26334 -1.24868 -1.18783 0
M  V30 13 C -0.919284 -1.09511 -1.47034 0
M  V30 14 C -4.36956 -0.421724 -0.131288 0
M  V30 15 N -4.9827 0.525101 0.586433 0
M  V30 16 C -6.27405 0.519276 0.937902 0
M  V30 17 N -6.88535 1.53878 1.69592 0
M  V30 18 C -7.05895 -0.554663 0.530608 0
M  V30 19 C -6.48939 -1.57 -0.214867 0
M  V30 20 C -5.14304 -1.48762 -0.537039 0
M  V30 21 C 4.27801 -0.926583 0.514069 0
M  V30 22 C 4.87215 0.137771 1.34541 0
M  V30 23 H 7.51144 -0.223162 0.37504 0
M  V30 24 H 7.35718 -0.430214 2.09196 0
M  V30 25 H 6.12357 1.86009 1.90145 0
M  V30 26 H 5.72322 0.428207 -0.778123 0
M  V30 27 H 3.72735 1.79354 -1.20149 0
M  V30 28 H 3.34153 1.71069 0.613093 0
M  V30 29 H 1.87488 -1.47542 -0.243597 0
M  V30 30 H 1.77271 -0.047329 0.807524 0
M  V30 31 H 1.34568 1.3232 -1.40644 0
M  V30 32 H 1.45006 -0.288919 -2.24295 0
M  V30 33 H -0.433225 1.83836 0.0828389 0
M  V30 34 H -2.79234 1.56923 0.57891 0
M  V30 35 H -2.77461 -2.13042 -1.55382 0
M  V30 36 H -0.385178 -1.84159 -2.04712 0
M  V30 37 H -7.24535 1.32761 2.63786 0
M  V30 38 H -6.97085 2.48765 1.30885 0
M  V30 39 H -8.11373 -0.593423 0.798321 0
M  V30 40 H -7.0866 -2.42469 -0.54658 0
M  V30 41 H -4.73512 -2.29247 -1.11592 0
M  V30 42 H 5.02781 -1.49228 -0.0727671 0
M  V30 43 H 3.65221 -1.60736 1.15757 0
M  V30 44 H 4.04696 0.575554 1.99294 0
M  V30 END ATOM
M  V30 BEGIN BOND
M  V30 1 1 1 2
M  V30 2 1 2 3
M  V30 3 1 3 4
M  V30 4 1 4 5
M  V30 5 1 5 6
M  V30 6 1 6 7
M  V30 7 1 7 8
M  V30 8 2 8 9
M  V30 9 1 9 10
M  V30 10 2 10 11
M  V30 11 1 11 12
M  V30 12 2 12 13
M  V30 13 1 11 14
M  V30 14 2 14 15
M  V30 15 1 15 16
M  V30 16 1 16 17
M  V30 17 2 16 18
M  V30 18 1 18 19
M  V30 19 2 19 20
M  V30 20 1 5 21
M  V30 21 1 21 22
M  V30 22 1 22 2
M  V30 23 1 22 3
M  V30 24 1 13 8
M  V30 25 1 20 14
M  V30 26 1 1 23
M  V30 27 1 1 24
M  V30 28 1 2 25
M  V30 29 1 3 26
M  V30 30 1 4 27
M  V30 31 1 4 28
M  V30 32 1 6 29
M  V30 33 1 6 30
M  V30 34 1 7 31
M  V30 35 1 7 32
M  V30 36 1 9 33
M  V30 37 1 10 34
M  V30 38 1 12 35
M  V30 39 1 13 36
M  V30 40 1 17 37
M  V30 41 1 17 38
M  V30 42 1 18 39
M  V30 43 1 19 40
M  V30 44 1 20 41
M  V30 45 1 21 42
M  V30 46 1 21 43
M  V30 47 1 22 44
M  V30 END BOND
M  V30 END CTAB
M  END
