
     RDKit          3D

  0  0  0  0  0  0  0  0  0  0999 V3000
M  V30 BEGIN CTAB
M  V30 COUNTS 64 67 0 0 0
M  V30 BEGIN ATOM
M  V30 1 C -4.26889 3.24866 1.10416 0
M  V30 2 O -3.01005 2.98089 1.65109 0
M  V30 3 C -2.00126 3.39217 0.798712 0
M  V30 4 C -1.86974 2.69529 -0.491367 0
M  V30 5 C -1.51443 1.26281 -0.513254 0
M  V30 6 C -2.38587 0.280837 0.15789 0
M  V30 7 C -3.37186 -0.0385208 -0.927185 0
M  V30 8 N -2.82059 0.278805 -2.04134 0
M  V30 9 O -1.55901 0.7859 -1.8789 0
M  V30 10 C -4.70413 -0.600352 -0.780189 0
M  V30 11 C -5.50165 -0.840538 -1.88954 0
M  V30 12 C -6.75089 -1.36271 -1.80978 0
M  V30 13 C -7.2843 -1.68153 -0.58201 0
M  V30 14 C -6.53206 -1.46244 0.557161 0
M  V30 15 C -5.24601 -0.922223 0.442067 0
M  V30 16 C -7.08794 -1.79608 1.85298 0
M  V30 17 N -6.33638 -1.58305 3.06038 0
M  V30 18 N -8.25985 -2.29147 1.99854 0
M  V30 19 C -0.0779514 1.1105 -0.0896577 0
M  V30 20 O 0.211621 1.42591 1.05253 0
M  V30 21 N 0.84223 0.615837 -1.03092 0
M  V30 22 C 2.23169 0.402266 -0.839208 0
M  V30 23 C 2.9387 -0.367824 -1.77058 0
M  V30 24 C 4.28687 -0.616355 -1.67416 0
M  V30 25 C 5.01846 -0.102571 -0.626084 0
M  V30 26 C 4.35228 0.655586 0.299272 0
M  V30 27 C 2.97684 0.906641 0.197456 0
M  V30 28 C 6.44514 -0.35615 -0.578054 0
M  V30 29 C 7.02374 -1.18748 0.34504 0
M  V30 30 C 8.42287 -1.34829 0.335005 0
M  V30 31 C 9.24434 -0.710219 -0.560678 0
M  V30 32 C 8.65593 0.126132 -1.49025 0
M  V30 33 C 7.30263 0.287247 -1.48641 0
M  V30 34 S 6.04008 -2.05202 1.48277 0
M  V30 35 N 4.88578 -3.01725 0.62259 0
M  V30 36 O 5.3957 -1.2358 2.52458 0
M  V30 37 O 6.97156 -3.02507 2.22263 0
M  V30 38 H -4.36144 4.36136 0.940699 0
M  V30 39 H -4.38208 2.69451 0.171472 0
M  V30 40 H -5.06422 2.9829 1.82766 0
M  V30 41 H -1.04381 3.47769 1.36006 0
M  V30 42 H -2.26019 4.48329 0.578976 0
M  V30 43 H -1.1079 3.27876 -1.10257 0
M  V30 44 H -2.80345 2.81566 -1.10424 0
M  V30 45 H -1.76047 -0.65444 0.339292 0
M  V30 46 H -2.88614 0.545141 1.07175 0
M  V30 47 H -5.0988 -0.594706 -2.87969 0
M  V30 48 H -7.32435 -1.52793 -2.70117 0
M  V30 49 H -8.2825 -2.09362 -0.582276 0
M  V30 50 H -4.67619 -0.760368 1.35648 0
M  V30 51 H -6.8402 -1.28102 3.9284 0
M  V30 52 H -5.31389 -1.7152 3.11181 0
M  V30 53 H -8.94844 -2.5179 1.28024 0
M  V30 54 H 0.495827 0.36524 -2.02162 0
M  V30 55 H 2.35247 -0.780913 -2.60816 0
M  V30 56 H 4.77957 -1.23092 -2.44291 0
M  V30 57 H 4.85208 1.10736 1.12746 0
M  V30 58 H 2.49619 1.52303 0.955229 0
M  V30 59 H 8.83849 -2.01892 1.08926 0
M  V30 60 H 10.3109 -0.884516 -0.505475 0
M  V30 61 H 9.32792 0.613436 -2.18152 0
M  V30 62 H 6.83558 0.935423 -2.2052 0
M  V30 63 H 5.25216 -3.97671 0.501907 0
M  V30 64 H 3.94935 -3.00417 1.04886 0
M  V30 END ATOM
M  V30 BEGIN BOND
M  V30 1 1 1 2
M  V30 2 1 2 3
M  V30 3 1 3 4
M  V30 4 1 4 5
M  V30 5 1 5 6
M  V30 6 1 6 7
M  V30 7 2 7 8
M  V30 8 1 8 9
M  V30 9 1 7 10
M  V30 10 2 10 11
M  V30 11 1 11 12
M  V30 12 2 12 13
M  V30 13 1 13 14
M  V30 14 2 14 15
M  V30 15 1 14 16
M  V30 16 1 16 17
M  V30 17 2 16 18 CFG=2
M  V30 18 1 5 19
M  V30 19 2 19 20
M  V30 20 1 19 21
M  V30 21 1 21 22
M  V30 22 2 22 23
M  V30 23 1 23 24
M  V30 24 2 24 25
M  V30 25 1 25 26
M  V30 26 2 26 27
M  V30 27 1 25 28
M  V30 28 2 28 29
M  V30 29 1 29 30
M  V30 30 2 30 31
M  V30 31 1 31 32
M  V30 32 2 32 33
M  V30 33 1 29 34
M  V30 34 1 34 35
M  V30 35 2 34 36
M  V30 36 2 34 37
M  V30 37 1 9 5
M  V30 38 1 15 10
M  V30 39 1 27 22
M  V30 40 1 33 28
M  V30 41 1 1 38
M  V30 42 1 1 39
M  V30 43 1 1 40
M  V30 44 1 3 41
M  V30 45 1 3 42
M  V30 46 1 4 43
M  V30 47 1 4 44
M  V30 48 1 6 45
M  V30 49 1 6 46
M  V30 50 1 11 47
M  V30 51 1 12 48
M  V30 52 1 13 49
M  V30 53 1 15 50
M  V30 54 1 17 51
M  V30 55 1 17 52
M  V30 56 1 18 53
M  V30 57 1 21 54
M  V30 58 1 23 55
M  V30 59 1 24 56
M  V30 60 1 26 57
M  V30 61 1 27 58
M  V30 62 1 30 59
M  V30 63 1 31 60
M  V30 64 1 32 61
M  V30 65 1 33 62
M  V30 66 1 35 63
M  V30 67 1 35 64
M  V30 END BOND
M  V30 END CTAB
M  END
