
     RDKit          3D

  0  0  0  0  0  0  0  0  0  0999 V3000
M  V30 BEGIN CTAB
M  V30 COUNTS 26 27 0 0 0
M  V30 BEGIN ATOM
M  V30 1 N -4.02589 -0.686752 -0.219126 0
M  V30 2 C -2.63115 -0.494474 -0.0858015 0
M  V30 3 C -1.76601 -1.5411 -0.283607 0
M  V30 4 C -0.399059 -1.40583 -0.165734 0
M  V30 5 C 0.163041 -0.191379 0.161543 0
M  V30 6 C -0.716105 0.871776 0.362465 0
M  V30 7 C -2.0842 0.744596 0.246459 0
M  V30 8 N -2.97785 1.82877 0.451528 0
M  V30 9 F -0.216717 2.09297 0.687731 0
M  V30 10 N 1.56082 -0.0439581 0.283982 0
M  V30 11 C 2.51449 -1.11567 0.0891527 0
M  V30 12 C 3.85222 -0.51546 0.123325 0
M  V30 13 C 3.74613 0.754574 0.418308 0
M  V30 14 C 2.32818 1.13334 0.61139 0
M  V30 15 H -4.54088 -1.23246 0.494502 0
M  V30 16 H -4.54097 -0.287929 -1.02336 0
M  V30 17 H -2.18764 -2.51491 -0.544209 0
M  V30 18 H 0.260785 -2.272 -0.33295 0
M  V30 19 H -3.80843 1.70637 1.06852 0
M  V30 20 H -2.82448 2.75215 -0.00229118 0
M  V30 21 H 2.28365 -1.55921 -0.914509 0
M  V30 22 H 2.36859 -1.92014 0.835099 0
M  V30 23 H 4.76719 -1.04751 -0.0663082 0
M  V30 24 H 4.5493 1.50583 0.527103 0
M  V30 25 H 2.13295 1.96857 -0.121459 0
M  V30 26 H 2.19205 1.46983 1.65259 0
M  V30 END ATOM
M  V30 BEGIN BOND
M  V30 1 1 1 2
M  V30 2 2 2 3
M  V30 3 1 3 4
M  V30 4 2 4 5
M  V30 5 1 5 6
M  V30 6 2 6 7
M  V30 7 1 7 8
M  V30 8 1 6 9
M  V30 9 1 5 10
M  V30 10 1 10 11
M  V30 11 1 11 12
M  V30 12 2 12 13
M  V30 13 1 13 14
M  V30 14 1 7 2
M  V30 15 1 14 10
M  V30 16 1 1 15
M  V30 17 1 1 16
M  V30 18 1 3 17
M  V30 19 1 4 18
M  V30 20 1 8 19
M  V30 21 1 8 20
M  V30 22 1 11 21
M  V30 23 1 11 22
M  V30 24 1 12 23
M  V30 25 1 13 24
M  V30 26 1 14 25
M  V30 27 1 14 26
M  V30 END BOND
M  V30 END CTAB
M  END
