
     RDKit          3D

  0  0  0  0  0  0  0  0  0  0999 V3000
M  V30 BEGIN CTAB
M  V30 COUNTS 23 23 0 0 0
M  V30 BEGIN ATOM
M  V30 1 O 4.10751 0.89419 -0.744022 0
M  V30 2 C 2.76899 0.607987 -0.851504 0
M  V30 3 O 2.27248 0.381585 -1.97164 0
M  V30 4 C 1.9486 0.576148 0.37614 0
M  V30 5 C 0.531644 0.254784 0.157554 0
M  V30 6 C -0.366906 1.29854 0.17186 0
M  V30 7 C -1.72817 1.04865 -0.0354004 0
M  V30 8 N -2.67829 2.09997 -0.0316116 0
M  V30 9 C -2.11066 -0.259593 -0.248379 0
M  V30 10 C -1.18456 -1.29198 -0.258298 0
M  V30 11 C 0.158261 -1.05049 -0.0547631 0
M  V30 12 O 1.07704 -2.0924 -0.0660656 0
M  V30 13 N -1.65395 -2.61432 -0.477728 0
M  V30 14 H 4.55549 1.18122 0.125532 0
M  V30 15 H 2.44924 -0.18166 1.05018 0
M  V30 16 H 2.07212 1.54802 0.912505 0
M  V30 17 H -0.10965 2.33653 0.335303 0
M  V30 18 H -2.9144 2.59845 0.836823 0
M  V30 19 H -3.13157 2.35703 -0.917473 0
M  V30 20 H -3.16929 -0.459283 -0.413615 0
M  V30 21 H 0.820961 -3.03157 -0.218305 0
M  V30 22 H -1.07572 -3.37204 -0.860581 0
M  V30 23 H -2.63918 -2.82975 -0.237934 0
M  V30 END ATOM
M  V30 BEGIN BOND
M  V30 1 1 1 2
M  V30 2 2 2 3
M  V30 3 1 2 4
M  V30 4 1 4 5
M  V30 5 2 5 6
M  V30 6 1 6 7
M  V30 7 1 7 8
M  V30 8 2 7 9
M  V30 9 1 9 10
M  V30 10 2 10 11
M  V30 11 1 11 12
M  V30 12 1 10 13
M  V30 13 1 11 5
M  V30 14 1 1 14
M  V30 15 1 4 15
M  V30 16 1 4 16
M  V30 17 1 6 17
M  V30 18 1 8 18
M  V30 19 1 8 19
M  V30 20 1 9 20
M  V30 21 1 12 21
M  V30 22 1 13 22
M  V30 23 1 13 23
M  V30 END BOND
M  V30 END CTAB
M  END
