
     RDKit          3D

  0  0  0  0  0  0  0  0  0  0999 V3000
M  V30 BEGIN CTAB
M  V30 COUNTS 34 35 0 0 0
M  V30 BEGIN ATOM
M  V30 1 C 5.55756 -1.47638 0.146678 0
M  V30 2 C 4.34542 -0.633971 0.125564 0
M  V30 3 N 3.12902 -1.20523 0.267346 0
M  V30 4 C 2.0237 -0.440076 0.248455 0
M  V30 5 C 2.08864 0.92239 0.0876689 0
M  V30 6 C 0.909875 1.79313 0.0612442 0
M  V30 7 N -0.330534 1.11935 0.216321 0
M  V30 8 C -1.05708 0.631682 -0.704138 0
M  V30 9 C -2.32664 -0.0510823 -0.470937 0
M  V30 10 C -3.06583 -0.557494 -1.51887 0
M  V30 11 N -4.2425 -1.19139 -1.31488 0
M  V30 12 C -4.74837 -1.35845 -0.0808703 0
M  V30 13 C -6.0515 -2.06218 0.12633 0
M  V30 14 N -4.03719 -0.869306 0.948222 0
M  V30 15 C -2.8501 -0.225138 0.793102 0
M  V30 16 N -2.11214 0.284035 1.87854 0
M  V30 17 C 3.33755 1.48168 -0.0547663 0
M  V30 18 N 3.47999 2.86847 -0.223196 0
M  V30 19 N 4.44065 0.682373 -0.0318088 0
M  V30 20 H 5.98296 -1.57904 -0.878927 0
M  V30 21 H 5.29568 -2.51079 0.474264 0
M  V30 22 H 6.31936 -1.1113 0.856252 0
M  V30 23 H 1.06003 -0.907255 0.362456 0
M  V30 24 H 0.869828 2.34373 -0.924428 0
M  V30 25 H 1.0748 2.60747 0.816093 0
M  V30 26 H -0.708287 0.731485 -1.72282 0
M  V30 27 H -2.65537 -0.42242 -2.52524 0
M  V30 28 H -6.32204 -2.5698 -0.816095 0
M  V30 29 H -6.00581 -2.80791 0.93386 0
M  V30 30 H -6.78746 -1.28132 0.400991 0
M  V30 31 H -1.51291 -0.291291 2.50629 0
M  V30 32 H -2.16096 1.3065 2.07765 0
M  V30 33 H 3.00502 3.34547 -1.00859 0
M  V30 34 H 4.05463 3.43404 0.4253 0
M  V30 END ATOM
M  V30 BEGIN BOND
M  V30 1 1 1 2
M  V30 2 2 2 3
M  V30 3 1 3 4
M  V30 4 2 4 5
M  V30 5 1 5 6
M  V30 6 1 6 7
M  V30 7 2 7 8
M  V30 8 1 8 9
M  V30 9 2 9 10
M  V30 10 1 10 11
M  V30 11 2 11 12
M  V30 12 1 12 13
M  V30 13 1 12 14
M  V30 14 2 14 15
M  V30 15 1 15 16
M  V30 16 1 5 17
M  V30 17 1 17 18
M  V30 18 2 17 19
M  V30 19 1 19 2
M  V30 20 1 15 9
M  V30 21 1 1 20
M  V30 22 1 1 21
M  V30 23 1 1 22
M  V30 24 1 4 23
M  V30 25 1 6 24
M  V30 26 1 6 25
M  V30 27 1 8 26
M  V30 28 1 10 27
M  V30 29 1 13 28
M  V30 30 1 13 29
M  V30 31 1 13 30
M  V30 32 1 16 31
M  V30 33 1 16 32
M  V30 34 1 18 33
M  V30 35 1 18 34
M  V30 END BOND
M  V30 END CTAB
M  END
