
     RDKit          3D

  0  0  0  0  0  0  0  0  0  0999 V3000
M  V30 BEGIN CTAB
M  V30 COUNTS 37 38 0 0 0
M  V30 BEGIN ATOM
M  V30 1 N -5.13354 -0.368061 -2.42053 0
M  V30 2 C -4.47933 0.0898428 -1.2311 0
M  V30 3 N -3.24512 -0.343005 -0.894774 0
M  V30 4 C -2.63259 0.0881006 0.22243 0
M  V30 5 C -3.28527 0.992888 1.03893 0
M  V30 6 N -2.46874 1.2592 2.07452 0
M  V30 7 C -1.33941 0.548319 1.9191 0
M  V30 8 N -1.42208 -0.177086 0.786703 0
M  V30 9 C -0.464023 -1.07966 0.214393 0
M  V30 10 C 0.477988 -0.365297 -0.731373 0
M  V30 11 O 1.4053 -1.21813 -1.29175 0
M  V30 12 C 2.22325 -1.85532 -0.388829 0
M  V30 13 P 3.18662 -0.67806 0.598251 0
M  V30 14 O 4.61654 -1.46006 1.08822 0
M  V30 15 O 2.46864 -0.254875 1.84793 0
M  V30 16 O 3.54102 0.718968 -0.286535 0
M  V30 17 P 5.19141 1.03924 -0.102947 0
M  V30 18 O 6.03277 -0.376687 -0.48819 0
M  V30 19 O 5.44726 1.49494 1.5132 0
M  V30 20 O 5.60104 2.16022 -1.02948 0
M  V30 21 C -4.5457 1.4342 0.694398 0
M  V30 22 N -5.26268 2.36392 1.49687 0
M  V30 23 N -5.10577 0.967575 -0.433703 0
M  V30 24 H -5.69215 0.316672 -2.97142 0
M  V30 25 H -5.07451 -1.35294 -2.75653 0
M  V30 26 H -0.461351 0.516559 2.56465 0
M  V30 27 H -0.981888 -1.86482 -0.407922 0
M  V30 28 H 0.0466257 -1.6182 1.02202 0
M  V30 29 H -0.12425 0.064578 -1.54726 0
M  V30 30 H 0.998292 0.454666 -0.187347 0
M  V30 31 H 2.94872 -2.48003 -0.980294 0
M  V30 32 H 1.68711 -2.55411 0.265169 0
M  V30 33 H 4.49919 -2.43229 1.1765 0
M  V30 34 H 6.21065 -0.342708 -1.46851 0
M  V30 35 H 6.166 0.954206 1.93307 0
M  V30 36 H -5.40959 3.33327 1.15907 0
M  V30 37 H -5.62042 2.02399 2.41562 0
M  V30 END ATOM
M  V30 BEGIN BOND
M  V30 1 1 1 2
M  V30 2 2 2 3
M  V30 3 1 3 4
M  V30 4 2 4 5
M  V30 5 1 5 6
M  V30 6 2 6 7
M  V30 7 1 7 8
M  V30 8 1 8 9
M  V30 9 1 9 10
M  V30 10 1 10 11
M  V30 11 1 11 12
M  V30 12 1 12 13
M  V30 13 1 13 14
M  V30 14 2 13 15
M  V30 15 1 13 16
M  V30 16 1 16 17
M  V30 17 1 17 18
M  V30 18 1 17 19
M  V30 19 2 17 20
M  V30 20 1 5 21
M  V30 21 1 21 22
M  V30 22 2 21 23
M  V30 23 1 23 2
M  V30 24 1 8 4
M  V30 25 1 1 24
M  V30 26 1 1 25
M  V30 27 1 7 26
M  V30 28 1 9 27
M  V30 29 1 9 28
M  V30 30 1 10 29
M  V30 31 1 10 30
M  V30 32 1 12 31
M  V30 33 1 12 32
M  V30 34 1 14 33
M  V30 35 1 18 34
M  V30 36 1 19 35
M  V30 37 1 22 36
M  V30 38 1 22 37
M  V30 END BOND
M  V30 END CTAB
M  END
