
     RDKit          3D

  0  0  0  0  0  0  0  0  0  0999 V3000
M  V30 BEGIN CTAB
M  V30 COUNTS 23 23 0 0 0
M  V30 BEGIN ATOM
M  V30 1 N 2.78033 0.297064 0.191588 0
M  V30 2 C 1.85052 -0.729767 -0.034849 0
M  V30 3 C 0.503867 -0.267718 -0.539433 0
M  V30 4 C -0.350371 -1.50626 -0.720756 0
M  V30 5 O -1.26727 -1.6286 0.348083 0
M  V30 6 C -2.24582 -0.659589 0.115584 0
M  V30 7 C -1.66928 0.723833 0.104205 0
M  V30 8 C -0.193645 0.64973 0.410781 0
M  V30 9 N 0.328417 2.00831 0.35609 0
M  V30 10 H 3.52879 0.441329 -0.465049 0
M  V30 11 H 2.68334 0.891805 0.994725 0
M  V30 12 H 2.26426 -1.40257 -0.842794 0
M  V30 13 H 1.66819 -1.4066 0.826091 0
M  V30 14 H 0.60159 0.191236 -1.55181 0
M  V30 15 H -0.916525 -1.49589 -1.67264 0
M  V30 16 H 0.247157 -2.43728 -0.699089 0
M  V30 17 H -2.70262 -0.894422 -0.889854 0
M  V30 18 H -3.03558 -0.684085 0.907094 0
M  V30 19 H -2.12147 1.38477 0.88162 0
M  V30 20 H -1.87127 1.23287 -0.866336 0
M  V30 21 H -0.0872098 0.268652 1.44167 0
M  V30 22 H 0.0591087 2.46474 1.25605 0
M  V30 23 H -0.0544916 2.55843 -0.421463 0
M  V30 END ATOM
M  V30 BEGIN BOND
M  V30 1 1 1 2
M  V30 2 1 2 3
M  V30 3 1 3 4
M  V30 4 1 4 5
M  V30 5 1 5 6
M  V30 6 1 6 7
M  V30 7 1 7 8
M  V30 8 1 8 9
M  V30 9 1 8 3
M  V30 10 1 1 10
M  V30 11 1 1 11
M  V30 12 1 2 12
M  V30 13 1 2 13
M  V30 14 1 3 14
M  V30 15 1 4 15
M  V30 16 1 4 16
M  V30 17 1 6 17
M  V30 18 1 6 18
M  V30 19 1 7 19
M  V30 20 1 7 20
M  V30 21 1 8 21
M  V30 22 1 9 22
M  V30 23 1 9 23
M  V30 END BOND
M  V30 END CTAB
M  END
