
     RDKit          3D

  0  0  0  0  0  0  0  0  0  0999 V3000
M  V30 BEGIN CTAB
M  V30 COUNTS 28 29 0 0 0
M  V30 BEGIN ATOM
M  V30 1 N -1.43495 1.85837 -0.104901 0
M  V30 2 C -1.33693 0.502485 0.410512 0
M  V30 3 C -2.75769 -0.00152351 0.741118 0
M  V30 4 C -3.19435 -0.808001 -0.468274 0
M  V30 5 C -2.08359 -0.712135 -1.50362 0
M  V30 6 C -0.886665 -0.507039 -0.587538 0
M  V30 7 S 0.581829 -0.204806 -1.51313 0
M  V30 8 C 2.00582 -0.366808 -0.455019 0
M  V30 9 N 2.56266 -1.6093 -0.268739 0
M  V30 10 C 3.64109 -1.81832 0.496554 0
M  V30 11 C 4.24717 -0.763007 1.14192 0
M  V30 12 N 3.72271 0.456554 0.974226 0
M  V30 13 C 2.62255 0.662955 0.19232 0
M  V30 14 N 2.11219 1.98286 0.0165789 0
M  V30 15 H -1.15667 2.57206 0.614933 0
M  V30 16 H -2.40179 2.08377 -0.465279 0
M  V30 17 H -0.778794 0.521104 1.34356 0
M  V30 18 H -3.45847 0.865511 0.822027 0
M  V30 19 H -2.77215 -0.640111 1.63045 0
M  V30 20 H -3.28563 -1.88853 -0.191558 0
M  V30 21 H -4.1176 -0.442677 -0.932263 0
M  V30 22 H -2.16733 0.20229 -2.11878 0
M  V30 23 H -1.91433 -1.63888 -2.05361 0
M  V30 24 H -0.839037 -1.48801 -0.00040355 0
M  V30 25 H 4.07027 -2.79912 0.638505 0
M  V30 26 H 5.12829 -0.903719 1.77221 0
M  V30 27 H 1.51818 2.41765 0.755433 0
M  V30 28 H 2.37324 2.46639 -0.887227 0
M  V30 END ATOM
M  V30 BEGIN BOND
M  V30 1 1 1 2
M  V30 2 1 2 3
M  V30 3 1 3 4
M  V30 4 1 4 5
M  V30 5 1 5 6
M  V30 6 1 6 7
M  V30 7 1 7 8
M  V30 8 2 8 9
M  V30 9 1 9 10
M  V30 10 2 10 11
M  V30 11 1 11 12
M  V30 12 2 12 13
M  V30 13 1 13 14
M  V30 14 1 6 2
M  V30 15 1 13 8
M  V30 16 1 1 15
M  V30 17 1 1 16
M  V30 18 1 2 17
M  V30 19 1 3 18
M  V30 20 1 3 19
M  V30 21 1 4 20
M  V30 22 1 4 21
M  V30 23 1 5 22
M  V30 24 1 5 23
M  V30 25 1 6 24
M  V30 26 1 10 25
M  V30 27 1 11 26
M  V30 28 1 14 27
M  V30 29 1 14 28
M  V30 END BOND
M  V30 END CTAB
M  END
