
     RDKit          3D

  0  0  0  0  0  0  0  0  0  0999 V3000
M  V30 BEGIN CTAB
M  V30 COUNTS 30 30 0 0 0
M  V30 BEGIN ATOM
M  V30 1 C -3.29317 -1.7468 -0.826295 0
M  V30 2 N -2.88179 -0.457438 -0.300298 0
M  V30 3 C -3.695 0.581334 0.00195341 0
M  V30 4 C -2.88558 1.59101 0.465578 0
M  V30 5 N -3.38162 2.86128 0.888097 0
M  V30 6 C -1.59607 1.14661 0.436233 0
M  V30 7 C -1.60465 -0.14911 -0.0493794 0
M  V30 8 C -0.431284 -0.994323 -0.241019 0
M  V30 9 O -0.601458 -2.15511 -0.693391 0
M  V30 10 N 0.873771 -0.534151 0.0697262 0
M  V30 11 C 1.99073 -1.3994 -0.135427 0
M  V30 12 C 3.31464 -0.821946 0.221257 0
M  V30 13 C 3.70413 0.384377 -0.528592 0
M  V30 14 N 4.94879 0.995452 -0.129149 0
M  V30 15 N 3.08385 0.940952 -1.48221 0
M  V30 16 H -2.84661 -1.9508 -1.83109 0
M  V30 17 H -2.96321 -2.53291 -0.0958771 0
M  V30 18 H -4.39053 -1.77504 -0.885257 0
M  V30 19 H -4.78971 0.59531 -0.10903 0
M  V30 20 H -2.89765 3.44823 1.59793 0
M  V30 21 H -4.26779 3.24431 0.483986 0
M  V30 22 H -0.7126 1.68691 0.732142 0
M  V30 23 H 0.959757 0.441618 0.443948 0
M  V30 24 H 1.83621 -2.29876 0.507073 0
M  V30 25 H 2.05429 -1.78694 -1.17263 0
M  V30 26 H 3.45758 -0.675733 1.31269 0
M  V30 27 H 4.08323 -1.60683 -0.0488035 0
M  V30 28 H 4.92814 1.63751 0.689626 0
M  V30 29 H 5.81602 0.770611 -0.674266 0
M  V30 30 H 2.1876 0.559773 -1.83307 0
M  V30 END ATOM
M  V30 BEGIN BOND
M  V30 1 1 1 2
M  V30 2 1 2 3
M  V30 3 2 3 4
M  V30 4 1 4 5
M  V30 5 1 4 6
M  V30 6 2 6 7
M  V30 7 1 7 8
M  V30 8 2 8 9
M  V30 9 1 8 10
M  V30 10 1 10 11
M  V30 11 1 11 12
M  V30 12 1 12 13
M  V30 13 1 13 14
M  V30 14 2 13 15 CFG=2
M  V30 15 1 7 2
M  V30 16 1 1 16
M  V30 17 1 1 17
M  V30 18 1 1 18
M  V30 19 1 3 19
M  V30 20 1 5 20
M  V30 21 1 5 21
M  V30 22 1 6 22
M  V30 23 1 10 23
M  V30 24 1 11 24
M  V30 25 1 11 25
M  V30 26 1 12 26
M  V30 27 1 12 27
M  V30 28 1 14 28
M  V30 29 1 14 29
M  V30 30 1 15 30
M  V30 END BOND
M  V30 END CTAB
M  END
