
     RDKit          3D

  0  0  0  0  0  0  0  0  0  0999 V3000
M  V30 BEGIN CTAB
M  V30 COUNTS 42 43 0 0 0
M  V30 BEGIN ATOM
M  V30 1 N -4.62058 3.32635 0.611739 0
M  V30 2 C -3.71607 2.24757 0.957429 0
M  V30 3 C -2.52046 2.27206 0.073115 0
M  V30 4 O -1.62558 1.21638 0.34888 0
M  V30 5 C -1.97116 -0.114749 0.123405 0
M  V30 6 C -3.19106 -0.473696 -0.399951 0
M  V30 7 C -3.54107 -1.79564 -0.602659 0
M  V30 8 C -2.68582 -2.80914 -0.287108 0
M  V30 9 C -1.47172 -2.47392 0.229623 0
M  V30 10 C -1.07126 -1.10087 0.443523 0
M  V30 11 C 0.343909 -0.994843 0.649584 0
M  V30 12 O 0.980636 -2.02924 0.940933 0
M  V30 13 N 1.16336 0.243224 0.53067 0
M  V30 14 C 2.53506 -0.171825 0.584702 0
M  V30 15 C 3.71448 0.585181 0.331936 0
M  V30 16 C 4.34712 1.46841 1.13977 0
M  V30 17 C 5.64334 1.89002 0.854402 0
M  V30 18 C 6.25672 1.39735 -0.263443 0
M  V30 19 N 5.67356 0.524647 -1.09141 0
M  V30 20 C 4.4337 0.12485 -0.809878 0
M  V30 21 N 3.76172 -0.716469 -1.72327 0
M  V30 22 C -3.02858 -4.27192 -0.509978 0
M  V30 23 H -4.76192 3.32258 -0.422645 0
M  V30 24 H -4.23323 4.22427 0.899187 0
M  V30 25 H -4.24636 1.32777 1.07795 0
M  V30 26 H -3.36502 2.52438 2.0156 0
M  V30 27 H -2.73565 2.42398 -0.980805 0
M  V30 28 H -1.93357 3.20188 0.416125 0
M  V30 29 H -3.86174 0.30716 -0.723726 0
M  V30 30 H -4.52432 -2.06017 -1.03422 0
M  V30 31 H -0.803196 -3.27672 0.494876 0
M  V30 32 H 0.737282 1.12229 0.42868 0
M  V30 33 H 2.62639 -0.368826 1.79414 0
M  V30 34 H 2.62578 -1.26294 0.243235 0
M  V30 35 H 3.83716 1.84873 2.03561 0
M  V30 36 H 6.15785 2.5849 1.53529 0
M  V30 37 H 7.27473 1.71868 -0.487426 0
M  V30 38 H 4.08283 -0.733345 -2.74337 0
M  V30 39 H 2.9719 -1.32276 -1.53224 0
M  V30 40 H -3.9758 -4.33973 -1.03302 0
M  V30 41 H -2.16566 -4.79265 -1.02256 0
M  V30 42 H -3.11773 -4.79321 0.485256 0
M  V30 END ATOM
M  V30 BEGIN BOND
M  V30 1 1 1 2
M  V30 2 1 2 3
M  V30 3 1 3 4
M  V30 4 1 4 5
M  V30 5 2 5 6
M  V30 6 1 6 7
M  V30 7 2 7 8
M  V30 8 1 8 9
M  V30 9 2 9 10
M  V30 10 1 10 11
M  V30 11 2 11 12
M  V30 12 1 11 13
M  V30 13 1 13 14
M  V30 14 1 14 15
M  V30 15 2 15 16
M  V30 16 1 16 17
M  V30 17 2 17 18
M  V30 18 1 18 19
M  V30 19 2 19 20
M  V30 20 1 20 21
M  V30 21 1 8 22
M  V30 22 1 10 5
M  V30 23 1 20 15
M  V30 24 1 1 23
M  V30 25 1 1 24
M  V30 26 1 2 25
M  V30 27 1 2 26
M  V30 28 1 3 27
M  V30 29 1 3 28
M  V30 30 1 6 29
M  V30 31 1 7 30
M  V30 32 1 9 31
M  V30 33 1 13 32
M  V30 34 1 14 33
M  V30 35 1 14 34
M  V30 36 1 16 35
M  V30 37 1 17 36
M  V30 38 1 18 37
M  V30 39 1 21 38
M  V30 40 1 21 39
M  V30 41 1 22 40
M  V30 42 1 22 41
M  V30 43 1 22 42
M  V30 END BOND
M  V30 END CTAB
M  END
