
     RDKit          3D

  0  0  0  0  0  0  0  0  0  0999 V3000
M  V30 BEGIN CTAB
M  V30 COUNTS 45 46 0 0 0
M  V30 BEGIN ATOM
M  V30 1 N -1.20967 -3.34416 0.783362 0
M  V30 2 C -1.42464 -2.2776 1.73284 0
M  V30 3 C -0.964276 -0.931897 1.17615 0
M  V30 4 C -1.76157 -0.631573 -0.0973863 0
M  V30 5 C -3.19971 -0.588595 0.289907 0
M  V30 6 C -4.07278 0.237355 -0.598006 0
M  V30 7 C -3.46685 1.62534 -0.657712 0
M  V30 8 C -2.19201 1.45943 -1.44986 0
M  V30 9 C -1.23065 0.497682 -0.866374 0
M  V30 10 N 0.440632 -0.891669 0.976482 0
M  V30 11 C 1.29472 -0.0121055 1.69179 0
M  V30 12 O 0.782352 0.761729 2.53612 0
M  V30 13 C 2.75469 0.0382083 1.49263 0
M  V30 14 C 3.08601 0.381504 0.0648465 0
M  V30 15 C 3.45828 -0.583366 -0.848072 0
M  V30 16 C 3.75622 -0.226083 -2.15679 0
M  V30 17 C 3.69347 1.0727 -2.58437 0
M  V30 18 C 3.32229 2.0472 -1.6805 0
M  V30 19 C 3.02576 1.69274 -0.378571 0
M  V30 20 N 3.41055 0.996549 2.31896 0
M  V30 21 H -0.440824 -3.05526 0.13829 0
M  V30 22 H -2.03605 -3.54106 0.182476 0
M  V30 23 H -2.52625 -2.19328 1.90192 0
M  V30 24 H -0.956047 -2.46762 2.69836 0
M  V30 25 H -1.23919 -0.182491 1.95561 0
M  V30 26 H -1.63219 -1.56804 -0.721169 0
M  V30 27 H -3.34328 -0.218491 1.32983 0
M  V30 28 H -3.64951 -1.62647 0.296495 0
M  V30 29 H -4.19223 -0.154582 -1.6098 0
M  V30 30 H -5.06307 0.327014 -0.115089 0
M  V30 31 H -4.12718 2.29001 -1.24959 0
M  V30 32 H -3.20237 2.02066 0.32339 0
M  V30 33 H -2.49951 1.15913 -2.48498 0
M  V30 34 H -1.75581 2.48473 -1.55509 0
M  V30 35 H -0.527647 1.09328 -0.210204 0
M  V30 36 H -0.556074 0.156017 -1.70876 0
M  V30 37 H 0.899174 -1.52386 0.279872 0
M  V30 38 H 3.20894 -0.968777 1.70907 0
M  V30 39 H 3.50438 -1.60287 -0.500571 0
M  V30 40 H 4.04572 -1.01335 -2.84787 0
M  V30 41 H 3.92998 1.33815 -3.61396 0
M  V30 42 H 3.26671 3.081 -1.99952 0
M  V30 43 H 2.72805 2.43194 0.368107 0
M  V30 44 H 3.84729 0.595226 3.17694 0
M  V30 45 H 2.8142 1.81561 2.51083 0
M  V30 END ATOM
M  V30 BEGIN BOND
M  V30 1 1 1 2
M  V30 2 1 2 3
M  V30 3 1 3 4
M  V30 4 1 4 5
M  V30 5 1 5 6
M  V30 6 1 6 7
M  V30 7 1 7 8
M  V30 8 1 8 9
M  V30 9 1 3 10
M  V30 10 1 10 11
M  V30 11 2 11 12
M  V30 12 1 11 13
M  V30 13 1 13 14
M  V30 14 2 14 15
M  V30 15 1 15 16
M  V30 16 2 16 17
M  V30 17 1 17 18
M  V30 18 2 18 19
M  V30 19 1 13 20
M  V30 20 1 9 4
M  V30 21 1 19 14
M  V30 22 1 1 21
M  V30 23 1 1 22
M  V30 24 1 2 23
M  V30 25 1 2 24
M  V30 26 1 3 25
M  V30 27 1 4 26
M  V30 28 1 5 27
M  V30 29 1 5 28
M  V30 30 1 6 29
M  V30 31 1 6 30
M  V30 32 1 7 31
M  V30 33 1 7 32
M  V30 34 1 8 33
M  V30 35 1 8 34
M  V30 36 1 9 35
M  V30 37 1 9 36
M  V30 38 1 10 37
M  V30 39 1 13 38
M  V30 40 1 15 39
M  V30 41 1 16 40
M  V30 42 1 17 41
M  V30 43 1 18 42
M  V30 44 1 19 43
M  V30 45 1 20 44
M  V30 46 1 20 45
M  V30 END BOND
M  V30 END CTAB
M  END
