
     RDKit          3D

  0  0  0  0  0  0  0  0  0  0999 V3000
M  V30 BEGIN CTAB
M  V30 COUNTS 27 28 0 0 0
M  V30 BEGIN ATOM
M  V30 1 N -5.46255 0.811164 0.219934 0
M  V30 2 C -4.06394 0.489732 0.12645 0
M  V30 3 N -3.12115 1.31752 0.609512 0
M  V30 4 C -1.81303 1.01408 0.520611 0
M  V30 5 C -1.37255 -0.154589 -0.0669207 0
M  V30 6 C -2.36003 -0.993953 -0.558423 0
M  V30 7 N -3.65953 -0.657814 -0.451966 0
M  V30 8 N -1.93734 -2.2049 -1.16903 0
M  V30 9 S 0.315048 -0.587974 -0.203455 0
M  V30 10 O 0.613273 -1.90497 0.454534 0
M  V30 11 O 0.74745 -0.705302 -1.63517 0
M  V30 12 C 1.25799 0.719904 0.530445 0
M  V30 13 C 2.73569 0.433022 0.459347 0
M  V30 14 C 3.62656 0.754418 -0.50945 0
M  V30 15 C 4.90481 0.385127 -0.343795 0
M  V30 16 C 5.20963 -0.29681 0.808257 0
M  V30 17 S 3.7025 -0.38987 1.60296 0
M  V30 18 H -5.85908 1.46171 -0.475222 0
M  V30 19 H -6.00705 0.378219 0.976259 0
M  V30 20 H -1.03921 1.68132 0.910725 0
M  V30 21 H -1.30417 -2.88422 -0.745658 0
M  V30 22 H -2.31248 -2.40157 -2.12644 0
M  V30 23 H 1.00636 1.664 0.00594275 0
M  V30 24 H 0.978237 0.848466 1.59421 0
M  V30 25 H 3.29751 1.31051 -1.41578 0
M  V30 26 H 5.72299 0.593463 -1.07087 0
M  V30 27 H 6.19409 -0.680684 1.12217 0
M  V30 END ATOM
M  V30 BEGIN BOND
M  V30 1 1 1 2
M  V30 2 2 2 3
M  V30 3 1 3 4
M  V30 4 2 4 5
M  V30 5 1 5 6
M  V30 6 2 6 7
M  V30 7 1 6 8
M  V30 8 1 5 9
M  V30 9 2 9 10
M  V30 10 2 9 11
M  V30 11 1 9 12
M  V30 12 1 12 13
M  V30 13 2 13 14
M  V30 14 1 14 15
M  V30 15 2 15 16
M  V30 16 1 16 17
M  V30 17 1 7 2
M  V30 18 1 17 13
M  V30 19 1 1 18
M  V30 20 1 1 19
M  V30 21 1 4 20
M  V30 22 1 8 21
M  V30 23 1 8 22
M  V30 24 1 12 23
M  V30 25 1 12 24
M  V30 26 1 14 25
M  V30 27 1 15 26
M  V30 28 1 16 27
M  V30 END BOND
M  V30 END CTAB
M  END
