
     RDKit          3D

  0  0  0  0  0  0  0  0  0  0999 V3000
M  V30 BEGIN CTAB
M  V30 COUNTS 34 36 0 0 0
M  V30 BEGIN ATOM
M  V30 1 N -1.14782 4.41769 -0.558267 0
M  V30 2 C -1.06916 3.0139 -0.373276 0
M  V30 3 N 0.102531 2.35911 -0.312326 0
M  V30 4 C 0.183765 1.02164 -0.13624 0
M  V30 5 C 1.47777 0.360992 -0.0764112 0
M  V30 6 C 1.90358 -0.314737 1.0474 0
M  V30 7 C 3.13636 -0.939242 1.09629 0
M  V30 8 C 3.9268 -0.861312 -0.0235801 0
M  V30 9 C 3.51382 -0.194719 -1.14099 0
M  V30 10 C 2.28471 0.428257 -1.19011 0
M  V30 11 C -1.00904 0.312275 -0.0153636 0
M  V30 12 N -2.1915 0.964202 -0.07567 0
M  V30 13 C -2.24417 2.30562 -0.252837 0
M  V30 14 N -3.47083 3.01774 -0.320094 0
M  V30 15 C -0.9967 -1.12759 0.175111 0
M  V30 16 C -1.51637 -1.66493 1.32718 0
M  V30 17 C -1.51776 -3.02499 1.53013 0
M  V30 18 C -1.00013 -3.84854 0.582765 0
M  V30 19 C -0.469558 -3.35059 -0.585941 0
M  V30 20 C -0.480139 -1.98318 -0.76552 0
M  V30 21 H -1.48869 4.76986 -1.47588 0
M  V30 22 H -0.882843 5.09482 0.174447 0
M  V30 23 H 1.29503 -0.388202 1.9426 0
M  V30 24 H 3.48908 -1.47347 1.96615 0
M  V30 25 H 4.91212 -1.32527 -0.069532 0
M  V30 26 H 4.13582 -0.126242 -2.04052 0
M  V30 27 H 1.98956 0.949263 -2.09462 0
M  V30 28 H -3.86813 3.43972 0.545283 0
M  V30 29 H -3.9774 3.12736 -1.20214 0
M  V30 30 H -1.93472 -0.998726 2.09295 0
M  V30 31 H -1.94505 -3.39649 2.46665 0
M  V30 32 H -1.01433 -4.91296 0.768959 0
M  V30 33 H -0.0748986 -4.0399 -1.29962 0
M  V30 34 H -0.0517197 -1.61136 -1.70697 0
M  V30 END ATOM
M  V30 BEGIN BOND
M  V30 1 1 1 2
M  V30 2 2 2 3
M  V30 3 1 3 4
M  V30 4 1 4 5
M  V30 5 2 5 6
M  V30 6 1 6 7
M  V30 7 2 7 8
M  V30 8 1 8 9
M  V30 9 2 9 10
M  V30 10 2 4 11
M  V30 11 1 11 12
M  V30 12 2 12 13
M  V30 13 1 13 14
M  V30 14 1 11 15
M  V30 15 2 15 16
M  V30 16 1 16 17
M  V30 17 2 17 18
M  V30 18 1 18 19
M  V30 19 2 19 20
M  V30 20 1 13 2
M  V30 21 1 20 15
M  V30 22 1 10 5
M  V30 23 1 1 21
M  V30 24 1 1 22
M  V30 25 1 6 23
M  V30 26 1 7 24
M  V30 27 1 8 25
M  V30 28 1 9 26
M  V30 29 1 10 27
M  V30 30 1 14 28
M  V30 31 1 14 29
M  V30 32 1 16 30
M  V30 33 1 17 31
M  V30 34 1 18 32
M  V30 35 1 19 33
M  V30 36 1 20 34
M  V30 END BOND
M  V30 END CTAB
M  END
