
     RDKit          3D

  0  0  0  0  0  0  0  0  0  0999 V3000
M  V30 BEGIN CTAB
M  V30 COUNTS 29 30 0 0 0
M  V30 BEGIN ATOM
M  V30 1 N -4.28921 0.983585 1.07306 0
M  V30 2 C -2.99823 0.543676 0.673099 0
M  V30 3 C -1.89762 0.712535 1.48535 0
M  V30 4 C -0.642781 0.264835 1.0539 0
M  V30 5 C -0.465786 -0.345527 -0.16774 0
M  V30 6 C -1.58446 -0.507142 -0.971825 0
M  V30 7 C -2.81956 -0.0673963 -0.548869 0
M  V30 8 N -3.96871 -0.230684 -1.36904 0
M  V30 9 N 0.800505 -0.781779 -0.584019 0
M  V30 10 C 2.00964 -0.560911 0.135569 0
M  V30 11 C 3.20626 -1.23859 -0.552434 0
M  V30 12 C 4.32949 -0.492951 0.12878 0
M  V30 13 C 3.90774 0.727843 0.429258 0
M  V30 14 C 2.50067 0.890611 -0.0173971 0
M  V30 15 H -5.14411 0.447646 0.808049 0
M  V30 16 H -4.44757 1.84519 1.63945 0
M  V30 17 H -1.99479 1.19362 2.46533 0
M  V30 18 H 0.203466 0.405548 1.71238 0
M  V30 19 H -1.44263 -0.991059 -1.93938 0
M  V30 20 H -3.96036 -1.01511 -2.05561 0
M  V30 21 H -4.79595 0.387116 -1.31123 0
M  V30 22 H 0.871028 -1.31591 -1.50062 0
M  V30 23 H 1.99297 -0.766482 1.20202 0
M  V30 24 H 3.2243 -0.954934 -1.60779 0
M  V30 25 H 3.24575 -2.30821 -0.346627 0
M  V30 26 H 5.2845 -0.968894 0.296594 0
M  V30 27 H 4.51319 1.46926 0.922191 0
M  V30 28 H 1.92572 1.58405 0.585211 0
M  V30 29 H 2.43657 1.09006 -1.11568 0
M  V30 END ATOM
M  V30 BEGIN BOND
M  V30 1 1 1 2
M  V30 2 2 2 3
M  V30 3 1 3 4
M  V30 4 2 4 5
M  V30 5 1 5 6
M  V30 6 2 6 7
M  V30 7 1 7 8
M  V30 8 1 5 9
M  V30 9 1 9 10
M  V30 10 1 10 11
M  V30 11 1 11 12
M  V30 12 2 12 13
M  V30 13 1 13 14
M  V30 14 1 7 2
M  V30 15 1 14 10
M  V30 16 1 1 15
M  V30 17 1 1 16
M  V30 18 1 3 17
M  V30 19 1 4 18
M  V30 20 1 6 19
M  V30 21 1 8 20
M  V30 22 1 8 21
M  V30 23 1 9 22
M  V30 24 1 10 23
M  V30 25 1 11 24
M  V30 26 1 11 25
M  V30 27 1 12 26
M  V30 28 1 13 27
M  V30 29 1 14 28
M  V30 30 1 14 29
M  V30 END BOND
M  V30 END CTAB
M  END
