
     RDKit          3D

  0  0  0  0  0  0  0  0  0  0999 V3000
M  V30 BEGIN CTAB
M  V30 COUNTS 29 30 0 0 0
M  V30 BEGIN ATOM
M  V30 1 N -3.71702 0.183603 -1.07651 0
M  V30 2 C -2.30493 0.350521 -1.09534 0
M  V30 3 C -1.61331 -0.426206 -0.00380022 0
M  V30 4 N -0.196351 -0.233029 -0.0556205 0
M  V30 5 C 0.757814 -1.26688 -0.268784 0
M  V30 6 O 0.550982 -2.49812 -0.44545 0
M  V30 7 C 2.09448 -0.685133 -0.256512 0
M  V30 8 C 1.99892 0.691928 -0.0401316 0
M  V30 9 C 0.570672 0.958336 0.0827495 0
M  V30 10 O 0.087699 2.08462 0.282991 0
M  V30 11 C 3.12865 1.47963 0.0155684 0
M  V30 12 C 4.36796 0.903478 -0.143898 0
M  V30 13 C 4.50729 -0.447979 -0.358882 0
M  V30 14 C 3.35908 -1.20472 -0.408775 0
M  V30 15 C -2.09351 -0.0428754 1.3705 0
M  V30 16 N -3.49799 -0.261116 1.57139 0
M  V30 17 H -4.06832 -0.771462 -1.02133 0
M  V30 18 H -4.25992 0.913544 -0.6105 0
M  V30 19 H -2.06072 1.41473 -0.970549 0
M  V30 20 H -1.92673 -0.0685668 -2.06438 0
M  V30 21 H -1.86663 -1.49415 -0.152799 0
M  V30 22 H 3.03331 2.53834 0.183193 0
M  V30 23 H 5.23108 1.54441 -0.0953526 0
M  V30 24 H 5.49943 -0.83539 -0.475245 0
M  V30 25 H 3.4777 -2.27729 -0.579852 0
M  V30 26 H -1.54987 -0.682581 2.09646 0
M  V30 27 H -1.82263 1.0018 1.59768 0
M  V30 28 H -3.74518 -1.25818 1.71604 0
M  V30 29 H -3.94195 0.388742 2.23025 0
M  V30 END ATOM
M  V30 BEGIN BOND
M  V30 1 1 1 2
M  V30 2 1 2 3
M  V30 3 1 3 4
M  V30 4 1 4 5
M  V30 5 2 5 6
M  V30 6 1 5 7
M  V30 7 2 7 8
M  V30 8 1 8 9
M  V30 9 2 9 10
M  V30 10 1 8 11
M  V30 11 2 11 12
M  V30 12 1 12 13
M  V30 13 2 13 14
M  V30 14 1 3 15
M  V30 15 1 15 16
M  V30 16 1 9 4
M  V30 17 1 14 7
M  V30 18 1 1 17
M  V30 19 1 1 18
M  V30 20 1 2 19
M  V30 21 1 2 20
M  V30 22 1 3 21
M  V30 23 1 11 22
M  V30 24 1 12 23
M  V30 25 1 13 24
M  V30 26 1 14 25
M  V30 27 1 15 26
M  V30 28 1 15 27
M  V30 29 1 16 28
M  V30 30 1 16 29
M  V30 END BOND
M  V30 END CTAB
M  END
