
     RDKit          3D

  0  0  0  0  0  0  0  0  0  0999 V3000
M  V30 BEGIN CTAB
M  V30 COUNTS 20 21 0 0 0
M  V30 BEGIN ATOM
M  V30 1 N -1.65738 -2.40232 -0.255564 0
M  V30 2 C -1.20669 -1.06274 -0.0921486 0
M  V30 3 C -2.08419 -0.00641453 0.0839068 0
M  V30 4 Cl -3.8123 -0.30486 0.109806 0
M  V30 5 C -1.59954 1.28244 0.239186 0
M  V30 6 Cl -2.69902 2.65216 0.466024 0
M  V30 7 C -0.247243 1.54803 0.22324 0
M  V30 8 C 0.607745 0.469919 0.0451052 0
M  V30 9 C 0.154272 -0.830939 -0.112985 0
M  V30 10 N 1.03299 -1.84059 -0.282804 0
M  V30 11 C 2.33678 -1.52161 -0.2897 0
M  V30 12 C 2.80435 -0.23566 -0.134158 0
M  V30 13 N 1.91683 0.752167 0.0330546 0
M  V30 14 N 0.260409 2.86568 0.381505 0
M  V30 15 H -2.53816 -2.61417 -0.803675 0
M  V30 16 H -1.10458 -3.17859 0.17488 0
M  V30 17 H 3.0985 -2.30702 -0.424795 0
M  V30 18 H 3.8864 -0.0211085 -0.146652 0
M  V30 19 H 0.854446 3.19132 1.14789 0
M  V30 20 H -0.00361483 3.5643 -0.362115 0
M  V30 END ATOM
M  V30 BEGIN BOND
M  V30 1 1 1 2
M  V30 2 2 2 3
M  V30 3 1 3 4
M  V30 4 1 3 5
M  V30 5 1 5 6
M  V30 6 2 5 7
M  V30 7 1 7 8
M  V30 8 2 8 9
M  V30 9 1 9 10
M  V30 10 2 10 11
M  V30 11 1 11 12
M  V30 12 2 12 13
M  V30 13 1 7 14
M  V30 14 1 9 2
M  V30 15 1 13 8
M  V30 16 1 1 15
M  V30 17 1 1 16
M  V30 18 1 11 17
M  V30 19 1 12 18
M  V30 20 1 14 19
M  V30 21 1 14 20
M  V30 END BOND
M  V30 END CTAB
M  END
