
     RDKit          3D

  0  0  0  0  0  0  0  0  0  0999 V3000
M  V30 BEGIN CTAB
M  V30 COUNTS 37 40 0 0 0
M  V30 BEGIN ATOM
M  V30 1 N -6.22358 2.60871 1.25456 0
M  V30 2 N -6.26857 1.81755 0.116793 0
M  V30 3 C -5.06223 1.12004 -0.270726 0
M  V30 4 N -4.66431 -0.0868732 0.0860504 0
M  V30 5 C -3.53422 -0.56085 -0.365996 0
M  V30 6 C -2.80553 0.238097 -1.20546 0
M  V30 7 S -3.79271 1.62943 -1.29541 0
M  V30 8 C -1.57954 -0.177207 -1.74494 0
M  V30 9 C -1.05841 -1.41707 -1.44675 0
M  V30 10 C -1.80581 -2.20333 -0.602195 0
M  V30 11 C -2.99405 -1.83047 -0.0646189 0
M  V30 12 C 0.219546 -1.92978 -1.96951 0
M  V30 13 C 1.28286 -1.53725 -1.01808 0
M  V30 14 C 1.63462 -2.35317 0.0340161 0
M  V30 15 C 2.60025 -2.04033 0.932015 0
M  V30 16 C 3.31326 -0.833135 0.83399 0
M  V30 17 C 2.97459 -0.00944394 -0.208694 0
M  V30 18 C 1.97377 -0.350617 -1.12621 0
M  V30 19 S 4.04552 1.30134 0.0357538 0
M  V30 20 C 4.8516 0.724883 1.43841 0
M  V30 21 N 4.2549 -0.430638 1.63371 0
M  V30 22 N 5.90645 1.34786 2.2001 0
M  V30 23 N 6.35999 2.58371 1.77313 0
M  V30 24 H -6.47344 1.99587 2.08013 0
M  V30 25 H -5.2554 2.95763 1.3737 0
M  V30 26 H -7.08828 1.67353 -0.491237 0
M  V30 27 H -1.079 0.506325 -2.38841 0
M  V30 28 H -1.40169 -3.19713 -0.354925 0
M  V30 29 H -3.50058 -2.5242 0.587563 0
M  V30 30 H 0.190393 -3.05411 -2.08833 0
M  V30 31 H 0.431781 -1.56195 -3.00312 0
M  V30 32 H 1.07997 -3.2938 0.111474 0
M  V30 33 H 2.81221 -2.75688 1.74133 0
M  V30 34 H 1.77366 0.348596 -1.908 0
M  V30 35 H 6.30653 0.890862 3.02931 0
M  V30 36 H 5.5473 3.09781 1.32143 0
M  V30 37 H 7.02813 2.40423 0.969158 0
M  V30 END ATOM
M  V30 BEGIN BOND
M  V30 1 1 1 2
M  V30 2 1 2 3
M  V30 3 2 3 4
M  V30 4 1 4 5
M  V30 5 2 5 6
M  V30 6 1 6 7
M  V30 7 1 6 8
M  V30 8 2 8 9
M  V30 9 1 9 10
M  V30 10 2 10 11
M  V30 11 1 9 12
M  V30 12 1 12 13
M  V30 13 2 13 14
M  V30 14 1 14 15
M  V30 15 2 15 16
M  V30 16 1 16 17
M  V30 17 2 17 18
M  V30 18 1 17 19
M  V30 19 1 19 20
M  V30 20 2 20 21
M  V30 21 1 20 22
M  V30 22 1 22 23
M  V30 23 1 7 3
M  V30 24 1 18 13
M  V30 25 1 11 5
M  V30 26 1 21 16
M  V30 27 1 1 24
M  V30 28 1 1 25
M  V30 29 1 2 26
M  V30 30 1 8 27
M  V30 31 1 10 28
M  V30 32 1 11 29
M  V30 33 1 12 30
M  V30 34 1 12 31
M  V30 35 1 14 32
M  V30 36 1 15 33
M  V30 37 1 18 34
M  V30 38 1 22 35
M  V30 39 1 23 36
M  V30 40 1 23 37
M  V30 END BOND
M  V30 END CTAB
M  END
