
     RDKit          3D

  0  0  0  0  0  0  0  0  0  0999 V3000
M  V30 BEGIN CTAB
M  V30 COUNTS 32 32 0 0 0
M  V30 BEGIN ATOM
M  V30 1 N -3.29933 -1.05958 2.40567 0
M  V30 2 C -2.70118 -1.2834 1.11175 0
M  V30 3 C -2.83903 -0.00863768 0.28642 0
M  V30 4 O -3.41272 0.953223 0.83867 0
M  V30 5 N -2.29404 -0.101073 -0.997265 0
M  V30 6 C -1.77066 -0.189749 -2.23012 0
M  V30 7 C -0.672692 0.846937 -2.46907 0
M  V30 8 C 0.452499 0.706115 -1.51734 0
M  V30 9 C 1.56439 -0.0772582 -1.74249 0
M  V30 10 C 2.59252 -0.174342 -0.821724 0
M  V30 11 C 2.55151 0.513595 0.371893 0
M  V30 12 C 1.4471 1.30214 0.61394 0
M  V30 13 C 0.426115 1.39291 -0.310074 0
M  V30 14 S 3.83263 0.42507 1.56722 0
M  V30 15 O 3.82605 1.69778 2.39136 0
M  V30 16 O 5.14486 0.194426 0.923967 0
M  V30 17 N 3.44627 -0.92217 2.60055 0
M  V30 18 H -3.03628 -1.81066 3.06919 0
M  V30 19 H -4.34185 -1.08374 2.33017 0
M  V30 20 H -3.26787 -2.05045 0.548495 0
M  V30 21 H -1.63937 -1.55487 1.19879 0
M  V30 22 H -2.69938 1.18014 -1.21912 0
M  V30 23 H -1.30843 -1.22831 -2.44606 0
M  V30 24 H -2.53944 -0.0304788 -3.05959 0
M  V30 25 H -1.12544 1.85683 -2.46294 0
M  V30 26 H -0.332145 0.660508 -3.52316 0
M  V30 27 H 1.60925 -0.619821 -2.67392 0
M  V30 28 H 3.47187 -0.791376 -0.99333 0
M  V30 29 H 1.39486 1.85496 1.55142 0
M  V30 30 H -0.442177 2.0105 -0.124114 0
M  V30 31 H 2.42499 -0.836676 2.81394 0
M  V30 32 H 3.5371 -1.77254 1.96686 0
M  V30 END ATOM
M  V30 BEGIN BOND
M  V30 1 1 1 2
M  V30 2 1 2 3
M  V30 3 2 3 4
M  V30 4 1 3 5
M  V30 5 1 5 6
M  V30 6 1 6 7
M  V30 7 1 7 8
M  V30 8 2 8 9
M  V30 9 1 9 10
M  V30 10 2 10 11
M  V30 11 1 11 12
M  V30 12 2 12 13
M  V30 13 1 11 14
M  V30 14 2 14 15
M  V30 15 2 14 16
M  V30 16 1 14 17
M  V30 17 1 13 8
M  V30 18 1 1 18
M  V30 19 1 1 19
M  V30 20 1 2 20
M  V30 21 1 2 21
M  V30 22 1 5 22
M  V30 23 1 6 23
M  V30 24 1 6 24
M  V30 25 1 7 25
M  V30 26 1 7 26
M  V30 27 1 9 27
M  V30 28 1 10 28
M  V30 29 1 12 29
M  V30 30 1 13 30
M  V30 31 1 17 31
M  V30 32 1 17 32
M  V30 END BOND
M  V30 END CTAB
M  END
