
     RDKit          3D

  0  0  0  0  0  0  0  0  0  0999 V3000
M  V30 BEGIN CTAB
M  V30 COUNTS 15 15 0 0 0
M  V30 BEGIN ATOM
M  V30 1 N 3.26305 -0.537866 -0.138298 0
M  V30 2 C 1.82837 -0.342896 -0.0884509 0
M  V30 3 S 0.604309 -1.51444 -0.345452 0
M  V30 4 C -0.756504 -0.511599 -0.11506 0
M  V30 5 C -0.171605 0.696562 0.152896 0
M  V30 6 N 1.13663 0.738265 0.156584 0
M  V30 7 N -0.970554 1.87976 0.421229 0
M  V30 8 C -2.21581 -0.864454 -0.187758 0
M  V30 9 H 3.84189 0.29892 -0.0263092 0
M  V30 10 H 3.6141 -1.49025 -0.281052 0
M  V30 11 H -0.726131 2.54373 1.17745 0
M  V30 12 H -1.82094 2.09624 -0.145364 0
M  V30 13 H -2.48274 -0.844166 -1.2462 0
M  V30 14 H -2.8167 -0.227656 0.467669 0
M  V30 15 H -2.32737 -1.92015 0.198115 0
M  V30 END ATOM
M  V30 BEGIN BOND
M  V30 1 1 1 2
M  V30 2 1 2 3
M  V30 3 1 3 4
M  V30 4 2 4 5
M  V30 5 1 5 6
M  V30 6 1 5 7
M  V30 7 1 4 8
M  V30 8 2 6 2
M  V30 9 1 1 9
M  V30 10 1 1 10
M  V30 11 1 7 11
M  V30 12 1 7 12
M  V30 13 1 8 13
M  V30 14 1 8 14
M  V30 15 1 8 15
M  V30 END BOND
M  V30 END CTAB
M  END
