
     RDKit          3D

  0  0  0  0  0  0  0  0  0  0999 V3000
M  V30 BEGIN CTAB
M  V30 COUNTS 24 25 0 0 0
M  V30 BEGIN ATOM
M  V30 1 C 3.49738 -1.00445 -0.0369923 0
M  V30 2 C 2.14596 -0.377522 -0.0311413 0
M  V30 3 C 2.06135 0.996769 -0.0790227 0
M  V30 4 C 0.801647 1.55711 -0.0727092 0
M  V30 5 C -0.33244 0.784492 -0.0208703 0
M  V30 6 C -0.201883 -0.588607 0.0260001 0
M  V30 7 N 1.04043 -1.11469 0.0188114 0
M  V30 8 C -1.3284 -1.38061 0.0783801 0
M  V30 9 N -1.18748 -2.77944 0.125962 0
M  V30 10 C -2.58649 -0.812983 0.0843961 0
M  V30 11 C -2.75268 0.554697 0.0384723 0
M  V30 12 C -1.60986 1.32595 -0.0135011 0
M  V30 13 N -1.73168 2.71558 -0.0611611 0
M  V30 14 H 3.51779 -1.94393 0.55116 0
M  V30 15 H 3.82199 -1.25113 -1.0841 0
M  V30 16 H 4.251 -0.326241 0.403161 0
M  V30 17 H 2.96392 1.61792 -0.1205 0
M  V30 18 H 0.679631 2.62395 -0.108685 0
M  V30 19 H -1.92439 -3.4012 -0.259864 0
M  V30 20 H -0.345812 -3.23317 0.546549 0
M  V30 21 H -3.47461 -1.4318 0.125482 0
M  V30 22 H -3.75193 0.997014 0.0435578 0
M  V30 23 H -1.56038 3.28164 0.787546 0
M  V30 24 H -1.99306 3.19065 -0.940927 0
M  V30 END ATOM
M  V30 BEGIN BOND
M  V30 1 1 1 2
M  V30 2 2 2 3
M  V30 3 1 3 4
M  V30 4 2 4 5
M  V30 5 1 5 6
M  V30 6 2 6 7
M  V30 7 1 6 8
M  V30 8 1 8 9
M  V30 9 2 8 10
M  V30 10 1 10 11
M  V30 11 2 11 12
M  V30 12 1 12 13
M  V30 13 1 7 2
M  V30 14 1 12 5
M  V30 15 1 1 14
M  V30 16 1 1 15
M  V30 17 1 1 16
M  V30 18 1 3 17
M  V30 19 1 4 18
M  V30 20 1 9 19
M  V30 21 1 9 20
M  V30 22 1 10 21
M  V30 23 1 11 22
M  V30 24 1 13 23
M  V30 25 1 13 24
M  V30 END BOND
M  V30 END CTAB
M  END
