
     RDKit          3D

  0  0  0  0  0  0  0  0  0  0999 V3000
M  V30 BEGIN CTAB
M  V30 COUNTS 31 31 0 0 0
M  V30 BEGIN ATOM
M  V30 1 C -2.2939 2.06327 1.64861 0
M  V30 2 O -1.682 1.53484 0.502673 0
M  V30 3 C -1.49409 0.172877 0.285707 0
M  V30 4 O -1.91096 -0.590684 1.19275 0
M  V30 5 C -0.851215 -0.390613 -0.917234 0
M  V30 6 N -0.539369 0.75583 -1.77487 0
M  V30 7 C -1.76816 -1.26966 -1.71637 0
M  V30 8 N -2.28142 -2.40054 -1.03696 0
M  V30 9 C 0.388142 -1.17112 -0.575058 0
M  V30 10 C 1.44454 -0.42275 0.0916767 0
M  V30 11 C 1.51215 -0.351696 1.4658 0
M  V30 12 C 2.50373 0.355293 2.1231 0
M  V30 13 C 3.4426 1.00058 1.35148 0
M  V30 14 C 3.37215 0.927436 -0.0195825 0
M  V30 15 C 2.39313 0.22924 -0.682314 0
M  V30 16 H -1.50282 2.22472 2.42516 0
M  V30 17 H -2.64651 3.09542 1.37517 0
M  V30 18 H -3.12125 1.43328 2.00777 0
M  V30 19 H -1.43849 1.286 -1.87668 0
M  V30 20 H -0.32295 0.402756 -2.74768 0
M  V30 21 H -1.24121 -1.58125 -2.64404 0
M  V30 22 H -2.60796 -0.614334 -2.07005 0
M  V30 23 H -1.85114 -2.65362 -0.142947 0
M  V30 24 H -2.50626 -3.21376 -1.65057 0
M  V30 25 H 0.793499 -1.60763 -1.50546 0
M  V30 26 H 0.0730789 -2.02191 0.0629084 0
M  V30 27 H 0.800751 -0.842696 2.12638 0
M  V30 28 H 2.54776 0.404955 3.20842 0
M  V30 29 H 4.23964 1.56847 1.85645 0
M  V30 30 H 4.13563 1.45289 -0.602633 0
M  V30 31 H 2.41289 0.224419 -1.7616 0
M  V30 END ATOM
M  V30 BEGIN BOND
M  V30 1 1 1 2
M  V30 2 1 2 3
M  V30 3 2 3 4
M  V30 4 1 3 5
M  V30 5 1 5 6
M  V30 6 1 5 7
M  V30 7 1 7 8
M  V30 8 1 5 9
M  V30 9 1 9 10
M  V30 10 2 10 11
M  V30 11 1 11 12
M  V30 12 2 12 13
M  V30 13 1 13 14
M  V30 14 2 14 15
M  V30 15 1 15 10
M  V30 16 1 1 16
M  V30 17 1 1 17
M  V30 18 1 1 18
M  V30 19 1 6 19
M  V30 20 1 6 20
M  V30 21 1 7 21
M  V30 22 1 7 22
M  V30 23 1 8 23
M  V30 24 1 8 24
M  V30 25 1 9 25
M  V30 26 1 9 26
M  V30 27 1 11 27
M  V30 28 1 12 28
M  V30 29 1 13 29
M  V30 30 1 14 30
M  V30 31 1 15 31
M  V30 END BOND
M  V30 END CTAB
M  END
