
     RDKit          3D

  0  0  0  0  0  0  0  0  0  0999 V3000
M  V30 BEGIN CTAB
M  V30 COUNTS 15 15 0 0 0
M  V30 BEGIN ATOM
M  V30 1 N -2.72828 0.156259 -0.250529 0
M  V30 2 C -1.32082 0.0483637 -0.125933 0
M  V30 3 C -0.677319 -1.14599 -0.393837 0
M  V30 4 N 0.655431 -1.30339 -0.29148 0
M  V30 5 C 1.45652 -0.288088 0.0849781 0
M  V30 6 N 2.86174 -0.496303 0.180874 0
M  V30 7 C 0.846046 0.914208 0.358781 0
M  V30 8 C -0.519623 1.10874 0.263325 0
M  V30 9 H -3.15767 -0.0977646 -1.16608 0
M  V30 10 H -3.3806 0.470448 0.499721 0
M  V30 11 H -1.33224 -1.97524 -0.70139 0
M  V30 12 H 3.39891 -0.411913 1.07447 0
M  V30 13 H 3.4127 -0.747515 -0.667714 0
M  V30 14 H 1.48977 1.72795 0.660683 0
M  V30 15 H -1.00455 2.04023 0.474131 0
M  V30 END ATOM
M  V30 BEGIN BOND
M  V30 1 1 1 2
M  V30 2 2 2 3
M  V30 3 1 3 4
M  V30 4 2 4 5
M  V30 5 1 5 6
M  V30 6 1 5 7
M  V30 7 2 7 8
M  V30 8 1 8 2
M  V30 9 1 1 9
M  V30 10 1 1 10
M  V30 11 1 3 11
M  V30 12 1 6 12
M  V30 13 1 6 13
M  V30 14 1 7 14
M  V30 15 1 8 15
M  V30 END BOND
M  V30 END CTAB
M  END
