
     RDKit          3D

  0  0  0  0  0  0  0  0  0  0999 V3000
M  V30 BEGIN CTAB
M  V30 COUNTS 23 23 0 0 0
M  V30 BEGIN ATOM
M  V30 1 N -1.09754 -2.004 0.0491605 0
M  V30 2 C -1.29332 -0.624738 0.24186 0
M  V30 3 C -0.318245 0.0739893 0.922197 0
M  V30 4 S 1.14744 -0.754419 1.54089 0
M  V30 5 C 2.47324 -0.752714 0.306255 0
M  V30 6 C 2.97647 0.608546 0.0347869 0
M  V30 7 C 4.23644 0.940278 0.2423 0
M  V30 8 N -0.511991 1.395 1.10033 0
M  V30 9 C -1.61638 2.00676 0.63106 0
M  V30 10 C -2.59717 1.30966 -0.0520824 0
M  V30 11 C -2.44014 -0.0471965 -0.257949 0
M  V30 12 N -3.42966 -0.783154 -0.953341 0
M  V30 13 H -1.09286 -2.37495 -0.928311 0
M  V30 14 H -0.961701 -2.64319 0.837766 0
M  V30 15 H 3.31352 -1.3582 0.738509 0
M  V30 16 H 2.17313 -1.289 -0.623409 0
M  V30 17 H 2.30123 1.36507 -0.344848 0
M  V30 18 H 4.94672 0.191647 0.628877 0
M  V30 19 H 4.64133 1.9235 0.0557947 0
M  V30 20 H -1.78914 3.07929 0.768088 0
M  V30 21 H -3.45726 1.82346 -0.409274 0
M  V30 22 H -4.01861 -0.29325 -1.64762 0
M  V30 23 H -3.58551 -1.79239 -0.793039 0
M  V30 END ATOM
M  V30 BEGIN BOND
M  V30 1 1 1 2
M  V30 2 2 2 3
M  V30 3 1 3 4
M  V30 4 1 4 5
M  V30 5 1 5 6
M  V30 6 2 6 7 CFG=2
M  V30 7 1 3 8
M  V30 8 2 8 9
M  V30 9 1 9 10
M  V30 10 2 10 11
M  V30 11 1 11 12
M  V30 12 1 11 2
M  V30 13 1 1 13
M  V30 14 1 1 14
M  V30 15 1 5 15
M  V30 16 1 5 16
M  V30 17 1 6 17
M  V30 18 1 7 18
M  V30 19 1 7 19
M  V30 20 1 9 20
M  V30 21 1 10 21
M  V30 22 1 12 22
M  V30 23 1 12 23
M  V30 END BOND
M  V30 END CTAB
M  END
