
     RDKit          3D

  0  0  0  0  0  0  0  0  0  0999 V3000
M  V30 BEGIN CTAB
M  V30 COUNTS 25 26 0 0 0
M  V30 BEGIN ATOM
M  V30 1 C 3.8754 0.0417853 0.066658 0
M  V30 2 O 2.69104 -0.684632 -0.0590433 0
M  V30 3 C 1.42316 -0.154894 0.000345441 0
M  V30 4 C 1.12764 1.16107 0.191081 0
M  V30 5 C -0.182354 1.58997 0.234875 0
M  V30 6 N -0.494114 2.95319 0.432382 0
M  V30 7 C -1.23827 0.700993 0.0870248 0
M  V30 8 N -2.51883 1.10625 0.127753 0
M  V30 9 C -3.55651 0.26387 -0.0129082 0
M  V30 10 C -3.33616 -1.08943 -0.21032 0
M  V30 11 C -2.02125 -1.50757 -0.25244 0
M  V30 12 C -0.957846 -0.629452 -0.106086 0
M  V30 13 C 0.359 -1.052 -0.148834 0
M  V30 14 N 0.578559 -2.43569 -0.350774 0
M  V30 15 H 4.29778 0.196803 -0.966281 0
M  V30 16 H 4.6736 -0.550227 0.602571 0
M  V30 17 H 3.7729 0.999697 0.599285 0
M  V30 18 H 1.94307 1.86273 0.307506 0
M  V30 19 H -0.70836 3.26815 1.40068 0
M  V30 20 H -0.496558 3.59014 -0.404589 0
M  V30 21 H -4.59577 0.583695 0.0188012 0
M  V30 22 H -4.16779 -1.76505 -0.32312 0
M  V30 23 H -1.77533 -2.5418 -0.402143 0
M  V30 24 H 0.150232 -3.11262 0.299062 0
M  V30 25 H 1.15675 -2.79498 -1.13148 0
M  V30 END ATOM
M  V30 BEGIN BOND
M  V30 1 1 1 2
M  V30 2 1 2 3
M  V30 3 2 3 4
M  V30 4 1 4 5
M  V30 5 1 5 6
M  V30 6 2 5 7
M  V30 7 1 7 8
M  V30 8 2 8 9
M  V30 9 1 9 10
M  V30 10 2 10 11
M  V30 11 1 11 12
M  V30 12 2 12 13
M  V30 13 1 13 14
M  V30 14 1 13 3
M  V30 15 1 12 7
M  V30 16 1 1 15
M  V30 17 1 1 16
M  V30 18 1 1 17
M  V30 19 1 4 18
M  V30 20 1 6 19
M  V30 21 1 6 20
M  V30 22 1 9 21
M  V30 23 1 10 22
M  V30 24 1 11 23
M  V30 25 1 14 24
M  V30 26 1 14 25
M  V30 END BOND
M  V30 END CTAB
M  END
