
     RDKit          3D

  0  0  0  0  0  0  0  0  0  0999 V3000
M  V30 BEGIN CTAB
M  V30 COUNTS 34 36 0 0 0
M  V30 BEGIN ATOM
M  V30 1 C -5.72747 0.188956 0.0383283 0
M  V30 2 C -4.25105 -0.0410778 -0.079176 0
M  V30 3 C -3.54403 0.482416 -1.1615 0
M  V30 4 C -2.19201 0.29752 -1.31081 0
M  V30 5 C -1.49285 -0.434777 -0.357058 0
M  V30 6 O -0.134331 -0.652491 -0.455379 0
M  V30 7 C 0.777943 0.227893 0.107041 0
M  V30 8 C 0.308831 1.33875 0.774991 0
M  V30 9 C 1.23905 2.21621 1.33608 0
M  V30 10 C 2.59244 1.97552 1.22357 0
M  V30 11 C 3.06601 0.86572 0.556383 0
M  V30 12 C 2.13149 0.00375171 0.00466853 0
M  V30 13 C 2.56119 -1.12544 -0.675504 0
M  V30 14 N 1.60596 -1.9935 -1.23149 0
M  V30 15 N 3.88974 -1.34852 -0.777848 0
M  V30 16 C 4.80674 -0.512622 -0.242545 0
M  V30 17 N 6.18457 -0.814281 -0.391722 0
M  V30 18 N 4.37281 0.58846 0.420307 0
M  V30 19 C -2.2028 -0.948726 0.710775 0
M  V30 20 C -3.55704 -0.763282 0.859937 0
M  V30 21 H -6.21793 -0.8129 -0.0682017 0
M  V30 22 H -6.01363 0.60294 1.01124 0
M  V30 23 H -6.0614 0.823448 -0.785795 0
M  V30 24 H -4.10095 1.048 -1.8925 0
M  V30 25 H -1.68138 0.72171 -2.16715 0
M  V30 26 H -0.752127 1.52431 0.861272 0
M  V30 27 H 0.871447 3.08769 1.8601 0
M  V30 28 H 3.28421 2.67581 1.67006 0
M  V30 29 H 1.30888 -2.82142 -0.685818 0
M  V30 30 H 1.18749 -1.835 -2.16896 0
M  V30 31 H 6.87695 -0.498308 0.31625 0
M  V30 32 H 6.53649 -1.35497 -1.20619 0
M  V30 33 H -1.62192 -1.52078 1.44429 0
M  V30 34 H -4.05133 -1.191 1.71655 0
M  V30 END ATOM
M  V30 BEGIN BOND
M  V30 1 1 1 2
M  V30 2 2 2 3
M  V30 3 1 3 4
M  V30 4 2 4 5
M  V30 5 1 5 6
M  V30 6 1 6 7
M  V30 7 2 7 8
M  V30 8 1 8 9
M  V30 9 2 9 10
M  V30 10 1 10 11
M  V30 11 2 11 12
M  V30 12 1 12 13
M  V30 13 1 13 14
M  V30 14 2 13 15
M  V30 15 1 15 16
M  V30 16 1 16 17
M  V30 17 2 16 18
M  V30 18 1 5 19
M  V30 19 2 19 20
M  V30 20 1 20 2
M  V30 21 1 12 7
M  V30 22 1 18 11
M  V30 23 1 1 21
M  V30 24 1 1 22
M  V30 25 1 1 23
M  V30 26 1 3 24
M  V30 27 1 4 25
M  V30 28 1 8 26
M  V30 29 1 9 27
M  V30 30 1 10 28
M  V30 31 1 14 29
M  V30 32 1 14 30
M  V30 33 1 17 31
M  V30 34 1 17 32
M  V30 35 1 19 33
M  V30 36 1 20 34
M  V30 END BOND
M  V30 END CTAB
M  END
