
     RDKit          3D

  0  0  0  0  0  0  0  0  0  0999 V3000
M  V30 BEGIN CTAB
M  V30 COUNTS 32 32 0 0 0
M  V30 BEGIN ATOM
M  V30 1 N -2.71703 2.0006 0.724828 0
M  V30 2 C -1.60254 1.05219 0.916351 0
M  V30 3 C -1.58219 0.212004 -0.318936 0
M  V30 4 C -0.549157 -0.862819 -0.405255 0
M  V30 5 C 0.867007 -0.419232 -0.254933 0
M  V30 6 C 1.72389 -0.472287 -1.31317 0
M  V30 7 C 3.04132 -0.0758295 -1.19322 0
M  V30 8 C 3.44623 0.37134 0.0375364 0
M  V30 9 C 2.59453 0.432317 1.11772 0
M  V30 10 C 1.29935 0.0325765 0.966924 0
M  V30 11 N 3.0743 0.919655 2.35587 0
M  V30 12 O -0.743983 -1.94136 0.421863 0
M  V30 13 C -0.726037 -1.40945 -1.84559 0
M  V30 14 C -2.93671 -0.505073 -0.337757 0
M  V30 15 H -2.37568 2.9291 0.369973 0
M  V30 16 H -3.40332 1.65613 0.0296883 0
M  V30 17 H -0.715535 1.74735 1.00773 0
M  V30 18 H -1.81747 0.503231 1.84939 0
M  V30 19 H -1.51542 0.860547 -1.20394 0
M  V30 20 H 1.45857 -0.835947 -2.31943 0
M  V30 21 H 3.75826 -0.111302 -2.01018 0
M  V30 22 H 4.48688 0.685251 0.138905 0
M  V30 23 H 0.683687 0.0876123 1.84123 0
M  V30 24 H 2.79586 1.81402 2.79364 0
M  V30 25 H 3.76316 0.314824 2.83952 0
M  V30 26 H 0.0296168 -2.55731 0.287808 0
M  V30 27 H -0.15925 -2.31494 -2.02455 0
M  V30 28 H -0.468948 -0.547585 -2.51672 0
M  V30 29 H -1.80038 -1.56761 -2.04572 0
M  V30 30 H -3.59571 -0.0655132 -1.09103 0
M  V30 31 H -2.85168 -1.59774 -0.393389 0
M  V30 32 H -3.46164 -0.334758 0.648408 0
M  V30 END ATOM
M  V30 BEGIN BOND
M  V30 1 1 1 2
M  V30 2 1 2 3
M  V30 3 1 3 4
M  V30 4 1 4 5
M  V30 5 2 5 6
M  V30 6 1 6 7
M  V30 7 2 7 8
M  V30 8 1 8 9
M  V30 9 2 9 10
M  V30 10 1 9 11
M  V30 11 1 4 12
M  V30 12 1 4 13
M  V30 13 1 3 14
M  V30 14 1 10 5
M  V30 15 1 1 15
M  V30 16 1 1 16
M  V30 17 1 2 17
M  V30 18 1 2 18
M  V30 19 1 3 19
M  V30 20 1 6 20
M  V30 21 1 7 21
M  V30 22 1 8 22
M  V30 23 1 10 23
M  V30 24 1 11 24
M  V30 25 1 11 25
M  V30 26 1 12 26
M  V30 27 1 13 27
M  V30 28 1 13 28
M  V30 29 1 13 29
M  V30 30 1 14 30
M  V30 31 1 14 31
M  V30 32 1 14 32
M  V30 END BOND
M  V30 END CTAB
M  END
