
     RDKit          3D

  0  0  0  0  0  0  0  0  0  0999 V3000
M  V30 BEGIN CTAB
M  V30 COUNTS 37 38 0 0 0
M  V30 BEGIN ATOM
M  V30 1 C -3.06541 1.79326 -3.44029 0
M  V30 2 N -1.92066 0.96236 -3.18095 0
M  V30 3 C -1.64697 0.42736 -1.89846 0
M  V30 4 C -2.49397 0.706992 -0.843726 0
M  V30 5 C -2.23607 0.184856 0.425524 0
M  V30 6 N -3.11967 0.491402 1.47678 0
M  V30 7 C -2.85672 0.0112322 2.80498 0
M  V30 8 C -1.12627 -0.608857 0.599467 0
M  V30 9 C -0.242934 -0.918156 -0.436035 0
M  V30 10 C 0.908926 -1.78106 -0.182264 0
M  V30 11 C 2.03247 -1.16165 0.519868 0
M  V30 12 C 2.19677 -1.41072 1.88771 0
M  V30 13 N 3.19702 -0.854642 2.56785 0
M  V30 14 C 4.0695 -0.0392202 1.94229 0
M  V30 15 N 5.14724 0.578494 2.61929 0
M  V30 16 N 3.91971 0.202934 0.637431 0
M  V30 17 C 2.92866 -0.332637 -0.0944329 0
M  V30 18 N 2.83276 -0.035713 -1.5075 0
M  V30 19 C -0.537962 -0.381787 -1.66719 0
M  V30 20 H -4.00656 1.19264 -3.30205 0
M  V30 21 H -3.14244 2.66422 -2.74979 0
M  V30 22 H -3.04695 2.21386 -4.45878 0
M  V30 23 H -1.26809 0.743267 -3.95758 0
M  V30 24 H -3.36608 1.33743 -1.00176 0
M  V30 25 H -3.95889 1.06107 1.29757 0
M  V30 26 H -3.37407 0.680095 3.55447 0
M  V30 27 H -3.19377 -1.03365 2.95527 0
M  V30 28 H -1.77884 0.081723 3.06533 0
M  V30 29 H -0.935624 -1.0074 1.57797 0
M  V30 30 H 0.560561 -2.69135 0.373133 0
M  V30 31 H 1.25501 -2.1922 -1.18193 0
M  V30 32 H 1.52508 -2.05382 2.42591 0
M  V30 33 H 6.01349 0.0571616 2.81053 0
M  V30 34 H 5.05924 1.55876 2.92175 0
M  V30 35 H 2.78651 0.947498 -1.80218 0
M  V30 36 H 2.81244 -0.832973 -2.21178 0
M  V30 37 H 0.0725461 -0.560782 -2.54642 0
M  V30 END ATOM
M  V30 BEGIN BOND
M  V30 1 1 1 2
M  V30 2 1 2 3
M  V30 3 2 3 4
M  V30 4 1 4 5
M  V30 5 1 5 6
M  V30 6 1 6 7
M  V30 7 2 5 8
M  V30 8 1 8 9
M  V30 9 1 9 10
M  V30 10 1 10 11
M  V30 11 2 11 12
M  V30 12 1 12 13
M  V30 13 2 13 14
M  V30 14 1 14 15
M  V30 15 1 14 16
M  V30 16 2 16 17
M  V30 17 1 17 18
M  V30 18 2 9 19
M  V30 19 1 19 3
M  V30 20 1 17 11
M  V30 21 1 1 20
M  V30 22 1 1 21
M  V30 23 1 1 22
M  V30 24 1 2 23
M  V30 25 1 4 24
M  V30 26 1 6 25
M  V30 27 1 7 26
M  V30 28 1 7 27
M  V30 29 1 7 28
M  V30 30 1 8 29
M  V30 31 1 10 30
M  V30 32 1 10 31
M  V30 33 1 12 32
M  V30 34 1 15 33
M  V30 35 1 15 34
M  V30 36 1 18 35
M  V30 37 1 18 36
M  V30 38 1 19 37
M  V30 END BOND
M  V30 END CTAB
M  END
