
     RDKit          3D

  0  0  0  0  0  0  0  0  0  0999 V3000
M  V30 BEGIN CTAB
M  V30 COUNTS 34 35 0 0 0
M  V30 BEGIN ATOM
M  V30 1 N -5.53064 0.429596 -0.265288 0
M  V30 2 C -4.14345 0.227783 -0.0880874 0
M  V30 3 C -3.62281 0.0356967 1.17535 0
M  V30 4 C -2.29561 -0.161803 1.39018 0
M  V30 5 C -1.39764 -0.179286 0.340557 0
M  V30 6 C -1.89584 0.0108701 -0.933741 0
M  V30 7 C -3.25 0.211553 -1.1444 0
M  V30 8 C 0.0193035 -0.396994 0.640414 0 CFG=1
M  V30 9 C 0.436547 -1.6914 -0.0520493 0
M  V30 10 C 1.91823 -1.61787 -0.341364 0
M  V30 11 C 2.56685 -0.879391 0.826376 0
M  V30 12 N 2.21731 0.515556 0.720044 0
M  V30 13 C 0.905577 0.734496 0.182388 0
M  V30 14 S 3.43926 1.41916 -0.0589307 0
M  V30 15 O 2.99814 2.82392 -0.274144 0
M  V30 16 O 3.7371 0.798187 -1.41466 0
M  V30 17 N 4.89584 1.32458 0.874027 0
M  V30 18 H -5.86834 1.18503 -0.88389 0
M  V30 19 H -6.22533 -0.164978 0.212763 0
M  V30 20 H -4.31955 0.0481218 2.00136 0
M  V30 21 H -1.95193 -0.307017 2.41379 0
M  V30 22 H -1.20944 0.000383848 -1.76557 0
M  V30 23 H -3.64069 0.36157 -2.15288 0
M  V30 24 H 0.163468 -0.52098 1.71294 0
M  V30 25 H -0.100512 -1.80366 -1.02002 0
M  V30 26 H 0.216373 -2.55587 0.588612 0
M  V30 27 H 2.33704 -2.64371 -0.4095 0
M  V30 28 H 2.09104 -1.06207 -1.29209 0
M  V30 29 H 2.12452 -1.33818 1.74875 0
M  V30 30 H 3.64745 -1.05044 0.772263 0
M  V30 31 H 0.501312 1.66174 0.683876 0
M  V30 32 H 0.870031 0.921373 -0.892509 0
M  V30 33 H 4.71225 1.82481 1.79153 0
M  V30 34 H 5.65415 1.83921 0.336011 0
M  V30 END ATOM
M  V30 BEGIN BOND
M  V30 1 1 1 2
M  V30 2 2 2 3
M  V30 3 1 3 4
M  V30 4 2 4 5
M  V30 5 1 5 6
M  V30 6 2 6 7
M  V30 7 1 5 8
M  V30 8 1 8 9
M  V30 9 1 9 10
M  V30 10 1 10 11
M  V30 11 1 11 12
M  V30 12 1 12 13
M  V30 13 1 12 14
M  V30 14 2 14 15
M  V30 15 2 14 16
M  V30 16 1 14 17
M  V30 17 1 7 2
M  V30 18 1 13 8
M  V30 19 1 1 18
M  V30 20 1 1 19
M  V30 21 1 3 20
M  V30 22 1 4 21
M  V30 23 1 6 22
M  V30 24 1 7 23
M  V30 25 1 8 24 CFG=1
M  V30 26 1 9 25
M  V30 27 1 9 26
M  V30 28 1 10 27
M  V30 29 1 10 28
M  V30 30 1 11 29
M  V30 31 1 11 30
M  V30 32 1 13 31
M  V30 33 1 13 32
M  V30 34 1 17 33
M  V30 35 1 17 34
M  V30 END BOND
M  V30 END CTAB
M  END
