
     RDKit          3D

  0  0  0  0  0  0  0  0  0  0999 V3000
M  V30 BEGIN CTAB
M  V30 COUNTS 38 39 0 0 0
M  V30 BEGIN ATOM
M  V30 1 C 6.33172 0.621953 0.195869 0
M  V30 2 O 5.25059 0.313641 1.05474 0
M  V30 3 C 3.94931 0.356225 0.573034 0
M  V30 4 C 3.70289 0.701115 -0.751685 0
M  V30 5 C 2.40591 0.737341 -1.209 0
M  V30 6 C 1.3315 0.446811 -0.413972 0
M  V30 7 C 1.58664 0.106938 0.894566 0
M  V30 8 C 2.88809 0.0584028 1.39808 0
M  V30 9 F 3.13553 -0.279127 2.69609 0
M  V30 10 C -0.0345551 0.488004 -0.906829 0
M  V30 11 N -0.543379 -0.708729 -1.45138 0
M  V30 12 C -1.86886 -0.699263 -1.95245 0
M  V30 13 C -2.81545 -0.344772 -0.863803 0
M  V30 14 N -3.2241 -1.2797 -0.00298574 0
M  V30 15 C -4.08372 -0.977116 0.983381 0
M  V30 16 N -4.54534 -1.92952 1.91808 0
M  V30 17 N -4.50209 0.3005 1.05279 0
M  V30 18 C -4.11706 1.26662 0.210757 0
M  V30 19 N -3.25612 0.936893 -0.767439 0
M  V30 20 N -4.58454 2.61263 0.317953 0
M  V30 21 C -0.16141 -1.91467 -0.775236 0
M  V30 22 H 7.30784 0.354467 0.634372 0
M  V30 23 H 6.2152 -0.0602787 -0.695439 0
M  V30 24 H 6.30306 1.6404 -0.187751 0
M  V30 25 H 4.56278 0.927977 -1.36695 0
M  V30 26 H 2.23895 1.00565 -2.23339 0
M  V30 27 H 0.800525 -0.138095 1.59517 0
M  V30 28 H -0.766926 0.857373 -0.127599 0
M  V30 29 H -0.0824216 1.28519 -1.70377 0
M  V30 30 H -1.93513 0.089904 -2.74893 0
M  V30 31 H -2.12271 -1.69741 -2.35975 0
M  V30 32 H -4.79968 -2.8802 1.60818 0
M  V30 33 H -4.63045 -1.67929 2.91514 0
M  V30 34 H -5.54833 2.76821 0.686533 0
M  V30 35 H -4.02708 3.43657 0.0532688 0
M  V30 36 H -0.531034 -1.86046 0.279415 0
M  V30 37 H -0.739201 -2.75709 -1.24914 0
M  V30 38 H 0.909048 -2.10711 -0.754014 0
M  V30 END ATOM
M  V30 BEGIN BOND
M  V30 1 1 1 2
M  V30 2 1 2 3
M  V30 3 2 3 4
M  V30 4 1 4 5
M  V30 5 2 5 6
M  V30 6 1 6 7
M  V30 7 2 7 8
M  V30 8 1 8 9
M  V30 9 1 6 10
M  V30 10 1 10 11
M  V30 11 1 11 12
M  V30 12 1 12 13
M  V30 13 2 13 14
M  V30 14 1 14 15
M  V30 15 1 15 16
M  V30 16 2 15 17
M  V30 17 1 17 18
M  V30 18 2 18 19
M  V30 19 1 18 20
M  V30 20 1 11 21
M  V30 21 1 8 3
M  V30 22 1 19 13
M  V30 23 1 1 22
M  V30 24 1 1 23
M  V30 25 1 1 24
M  V30 26 1 4 25
M  V30 27 1 5 26
M  V30 28 1 7 27
M  V30 29 1 10 28
M  V30 30 1 10 29
M  V30 31 1 12 30
M  V30 32 1 12 31
M  V30 33 1 16 32
M  V30 34 1 16 33
M  V30 35 1 20 34
M  V30 36 1 20 35
M  V30 37 1 21 36
M  V30 38 1 21 37
M  V30 39 1 21 38
M  V30 END BOND
M  V30 END CTAB
M  END
