
     RDKit          3D

  0  0  0  0  0  0  0  0  0  0999 V3000
M  V30 BEGIN CTAB
M  V30 COUNTS 32 33 0 0 0
M  V30 BEGIN ATOM
M  V30 1 C -3.21373 2.53513 0.925223 0
M  V30 2 O -3.47862 1.38269 0.184973 0
M  V30 3 C -2.67851 0.278528 0.093865 0
M  V30 4 C -3.12129 -0.76715 -0.695931 0
M  V30 5 O -4.3392 -0.672171 -1.36188 0
M  V30 6 C -2.38773 -1.92037 -0.850917 0
M  V30 7 C -1.16093 -2.02521 -0.185089 0
M  V30 8 C -0.671861 -1.0183 0.611833 0
M  V30 9 C 0.630838 -1.08248 1.3255 0
M  V30 10 C 1.70896 -0.317468 0.702297 0
M  V30 11 C 2.04673 0.903805 1.24099 0
M  V30 12 N 3.0265 1.64078 0.690708 0
M  V30 13 C 3.71273 1.21814 -0.401877 0
M  V30 14 N 4.74724 1.99558 -0.984841 0
M  V30 15 N 3.37314 0.0265503 -0.915311 0
M  V30 16 C 2.39234 -0.755095 -0.397485 0
M  V30 17 N 2.14198 -1.98393 -1.02768 0
M  V30 18 C -1.4725 0.124402 0.722175 0
M  V30 19 H -2.66298 2.37449 1.86443 0
M  V30 20 H -4.15803 3.05783 1.1806 0
M  V30 21 H -2.66877 3.25298 0.246225 0
M  V30 22 H -4.68858 -1.41944 -1.94602 0
M  V30 23 H -2.69263 -2.7639 -1.45668 0
M  V30 24 H -0.593348 -2.9348 -0.301647 0
M  V30 25 H 0.510256 -0.858912 2.4139 0
M  V30 26 H 0.944081 -2.16314 1.29985 0
M  V30 27 H 1.53399 1.30088 2.11691 0
M  V30 28 H 5.71336 2.00434 -0.61484 0
M  V30 29 H 4.51291 2.57258 -1.8132 0
M  V30 30 H 1.88319 -2.02414 -2.02633 0
M  V30 31 H 2.21327 -2.87395 -0.500287 0
M  V30 32 H -1.1028 0.91175 1.33934 0
M  V30 END ATOM
M  V30 BEGIN BOND
M  V30 1 1 1 2
M  V30 2 1 2 3
M  V30 3 2 3 4
M  V30 4 1 4 5
M  V30 5 1 4 6
M  V30 6 2 6 7
M  V30 7 1 7 8
M  V30 8 1 8 9
M  V30 9 1 9 10
M  V30 10 2 10 11
M  V30 11 1 11 12
M  V30 12 2 12 13
M  V30 13 1 13 14
M  V30 14 1 13 15
M  V30 15 2 15 16
M  V30 16 1 16 17
M  V30 17 2 8 18
M  V30 18 1 18 3
M  V30 19 1 16 10
M  V30 20 1 1 19
M  V30 21 1 1 20
M  V30 22 1 1 21
M  V30 23 1 5 22
M  V30 24 1 6 23
M  V30 25 1 7 24
M  V30 26 1 9 25
M  V30 27 1 9 26
M  V30 28 1 11 27
M  V30 29 1 14 28
M  V30 30 1 14 29
M  V30 31 1 17 30
M  V30 32 1 17 31
M  V30 33 1 18 32
M  V30 END BOND
M  V30 END CTAB
M  END
