
     RDKit          3D

  0  0  0  0  0  0  0  0  0  0999 V3000
M  V30 BEGIN CTAB
M  V30 COUNTS 20 19 0 0 0
M  V30 BEGIN ATOM
M  V30 1 N 2.77752 0.089012 -0.0612377 0
M  V30 2 C 1.90262 -0.935933 0.437518 0
M  V30 3 C 0.489956 -0.386322 0.677407 0
M  V30 4 C 0.00137476 0.114296 -0.649006 0
M  V30 5 C -1.3825 0.693359 -0.598395 0
M  V30 6 N -1.49594 1.81113 0.292521 0
M  V30 7 C -2.33896 -0.348232 -0.248684 0
M  V30 8 C -3.12328 -1.2287 0.0419311 0
M  V30 9 H 3.27091 0.626562 0.667892 0
M  V30 10 H 3.50723 -0.31838 -0.691823 0
M  V30 11 H 1.87031 -1.76686 -0.305119 0
M  V30 12 H 2.33204 -1.36383 1.35926 0
M  V30 13 H 0.57497 0.401004 1.44691 0
M  V30 14 H -0.0974288 -1.20081 1.09945 0
M  V30 15 H 0.724009 0.843658 -1.03416 0
M  V30 16 H -0.00813621 -0.741477 -1.34825 0
M  V30 17 H -1.63651 1.03175 -1.62325 0
M  V30 18 H -1.03769 2.65279 -0.118969 0
M  V30 19 H -2.5313 2.03467 0.364445 0
M  V30 20 H -3.79917 -2.00768 0.291549 0
M  V30 END ATOM
M  V30 BEGIN BOND
M  V30 1 1 1 2
M  V30 2 1 2 3
M  V30 3 1 3 4
M  V30 4 1 4 5
M  V30 5 1 5 6
M  V30 6 1 5 7
M  V30 7 3 7 8
M  V30 8 1 1 9
M  V30 9 1 1 10
M  V30 10 1 2 11
M  V30 11 1 2 12
M  V30 12 1 3 13
M  V30 13 1 3 14
M  V30 14 1 4 15
M  V30 15 1 4 16
M  V30 16 1 5 17
M  V30 17 1 6 18
M  V30 18 1 6 19
M  V30 19 1 8 20
M  V30 END BOND
M  V30 END CTAB
M  END
