
     RDKit          3D

  0  0  0  0  0  0  0  0  0  0999 V3000
M  V30 BEGIN CTAB
M  V30 COUNTS 31 32 0 0 0
M  V30 BEGIN ATOM
M  V30 1 N -6.08406 0.135043 0.165253 0
M  V30 2 C -4.66551 0.0824759 0.242357 0
M  V30 3 C -3.87133 1.19674 0.0769113 0
M  V30 4 C -2.5001 1.17468 0.146273 0
M  V30 5 C -1.8666 -0.0140212 0.392484 0
M  V30 6 C -0.440198 -0.184926 0.469464 0
M  V30 7 C 0.456933 0.275692 -0.350766 0
M  V30 8 C 0.0376483 1.0542 -1.49332 0
M  V30 9 N -0.281414 1.67604 -2.43956 0
M  V30 10 C 1.88107 0.0525572 -0.186335 0
M  V30 11 C 2.74841 0.585167 -1.11477 0
M  V30 12 C 4.11774 0.422518 -1.03561 0
M  V30 13 C 4.6776 -0.287981 -0.0118903 0
M  V30 14 N 6.0894 -0.484814 0.114341 0
M  V30 15 C 3.82568 -0.826653 0.923924 0
M  V30 16 C 2.46013 -0.657832 0.834916 0
M  V30 17 C -2.67032 -1.15735 0.563203 0
M  V30 18 C -4.03726 -1.12374 0.492317 0
M  V30 19 H -6.59804 1.0532 0.285063 0
M  V30 20 H -6.67066 -0.709046 -0.00901602 0
M  V30 21 H -4.35483 2.16264 -0.122041 0
M  V30 22 H -1.89266 2.07223 0.0277702 0
M  V30 23 H -0.0754148 -0.771006 1.31819 0
M  V30 24 H 2.39566 1.1697 -1.97027 0
M  V30 25 H 4.78085 0.849515 -1.77558 0
M  V30 26 H 6.68624 -0.198105 -0.678936 0
M  V30 27 H 6.46919 -0.902304 0.982681 0
M  V30 28 H 4.27039 -1.39925 1.75007 0
M  V30 29 H 1.8577 -1.09868 1.58932 0
M  V30 30 H -2.16569 -2.10548 0.760587 0
M  V30 31 H -4.58052 -2.04122 0.634053 0
M  V30 END ATOM
M  V30 BEGIN BOND
M  V30 1 1 1 2
M  V30 2 2 2 3
M  V30 3 1 3 4
M  V30 4 2 4 5
M  V30 5 1 5 6
M  V30 6 2 6 7 CFG=2
M  V30 7 1 7 8
M  V30 8 3 8 9
M  V30 9 1 7 10
M  V30 10 2 10 11
M  V30 11 1 11 12
M  V30 12 2 12 13
M  V30 13 1 13 14
M  V30 14 1 13 15
M  V30 15 2 15 16
M  V30 16 1 5 17
M  V30 17 2 17 18
M  V30 18 1 18 2
M  V30 19 1 16 10
M  V30 20 1 1 19
M  V30 21 1 1 20
M  V30 22 1 3 21
M  V30 23 1 4 22
M  V30 24 1 6 23
M  V30 25 1 11 24
M  V30 26 1 12 25
M  V30 27 1 14 26
M  V30 28 1 14 27
M  V30 29 1 15 28
M  V30 30 1 16 29
M  V30 31 1 17 30
M  V30 32 1 18 31
M  V30 END BOND
M  V30 END CTAB
M  END
