
     RDKit          3D

  0  0  0  0  0  0  0  0  0  0999 V3000
M  V30 BEGIN CTAB
M  V30 COUNTS 34 35 0 0 0
M  V30 BEGIN ATOM
M  V30 1 N -3.04386 2.53151 0.338628 0
M  V30 2 C -2.77312 1.14485 0.143821 0
M  V30 3 C -3.74941 0.391975 -0.465957 0
M  V30 4 O -4.96187 0.980505 -0.875929 0
M  V30 5 C -3.50666 -0.946377 -0.66208 0
M  V30 6 C -2.30967 -1.54287 -0.260794 0
M  V30 7 C -1.32837 -0.803257 0.347705 0
M  V30 8 C -1.60063 0.562788 0.537124 0
M  V30 9 C -0.028406 -1.27069 0.811829 0
M  V30 10 C 1.10924 -0.5798 0.119152 0
M  V30 11 C 2.09551 0.0458645 0.867055 0
M  V30 12 C 3.15201 0.706494 0.286176 0
M  V30 13 N 4.12694 1.32547 1.09385 0
M  V30 14 C 3.27124 0.771976 -1.07988 0
M  V30 15 O 4.28916 1.40756 -1.73589 0
M  V30 16 C 2.28735 0.147887 -1.85013 0
M  V30 17 C 1.24685 -0.502178 -1.2366 0
M  V30 18 C 0.214473 -2.73277 0.844054 0
M  V30 19 Cl 1.87767 -3.04739 1.49014 0
M  V30 20 Cl -0.906817 -3.63414 1.84902 0
M  V30 21 Cl 0.284414 -3.36791 -0.837717 0
M  V30 22 H -3.28718 3.18485 -0.427059 0
M  V30 23 H -2.99102 2.89703 1.31007 0
M  V30 24 H -5.08828 1.96919 -0.70727 0
M  V30 25 H -4.25048 -1.54485 -1.13235 0
M  V30 26 H -2.14676 -2.60332 -0.417493 0
M  V30 27 H -0.859131 1.18802 1.01245 0
M  V30 28 H 0.0435517 -0.935972 1.89675 0
M  V30 29 H 1.99931 -0.00809809 1.95813 0
M  V30 30 H 3.86121 2.20972 1.59494 0
M  V30 31 H 5.09597 0.963533 1.22731 0
M  V30 32 H 5.03123 1.87769 -1.23679 0
M  V30 33 H 2.33831 0.172398 -2.93207 0
M  V30 34 H 0.507246 -0.959687 -1.87019 0
M  V30 END ATOM
M  V30 BEGIN BOND
M  V30 1 1 1 2
M  V30 2 2 2 3
M  V30 3 1 3 4
M  V30 4 1 3 5
M  V30 5 2 5 6
M  V30 6 1 6 7
M  V30 7 2 7 8
M  V30 8 1 7 9
M  V30 9 1 9 10
M  V30 10 2 10 11
M  V30 11 1 11 12
M  V30 12 1 12 13
M  V30 13 2 12 14
M  V30 14 1 14 15
M  V30 15 1 14 16
M  V30 16 2 16 17
M  V30 17 1 9 18
M  V30 18 1 18 19
M  V30 19 1 18 20
M  V30 20 1 18 21
M  V30 21 1 8 2
M  V30 22 1 17 10
M  V30 23 1 1 22
M  V30 24 1 1 23
M  V30 25 1 4 24
M  V30 26 1 5 25
M  V30 27 1 6 26
M  V30 28 1 8 27
M  V30 29 1 9 28
M  V30 30 1 11 29
M  V30 31 1 13 30
M  V30 32 1 13 31
M  V30 33 1 15 32
M  V30 34 1 16 33
M  V30 35 1 17 34
M  V30 END BOND
M  V30 END CTAB
M  END
