
     RDKit          3D

  0  0  0  0  0  0  0  0  0  0999 V3000
M  V30 BEGIN CTAB
M  V30 COUNTS 28 28 0 0 0
M  V30 BEGIN ATOM
M  V30 1 N 4.87026 0.533909 0.476323 0
M  V30 2 C 3.42682 0.564212 0.543377 0
M  V30 3 C 2.89386 -0.423416 -0.474797 0
M  V30 4 C 1.40415 -0.453909 -0.470091 0
M  V30 5 C 0.696467 0.394846 -1.29426 0
M  V30 6 C -0.699707 0.379622 -1.3026 0
M  V30 7 C -1.41348 -0.479543 -0.491798 0
M  V30 8 C -0.703669 -1.32998 0.334016 0
M  V30 9 C 0.684088 -1.30926 0.336958 0
M  V30 10 C -2.90895 -0.498961 -0.497738 0
M  V30 11 C -3.45535 0.454002 0.502637 0
M  V30 12 N -2.66849 1.1725 1.24522 0
M  V30 13 N -4.86642 0.544013 0.610326 0
M  V30 14 H 5.20665 1.23679 -0.220551 0
M  V30 15 H 5.24513 -0.391329 0.22096 0
M  V30 16 H 3.05123 1.59434 0.333862 0
M  V30 17 H 3.14665 0.227485 1.56811 0
M  V30 18 H 3.3071 -0.152366 -1.46834 0
M  V30 19 H 3.30067 -1.41958 -0.216957 0
M  V30 20 H 1.21683 1.08418 -1.94565 0
M  V30 21 H -1.24488 1.05751 -1.96053 0
M  V30 22 H -1.26939 -2.00157 0.967676 0
M  V30 23 H 1.23841 -1.9907 0.998431 0
M  V30 24 H -3.26552 -1.53411 -0.230173 0
M  V30 25 H -3.31925 -0.239826 -1.49596 0
M  V30 26 H -3.09597 1.82821 1.93405 0
M  V30 27 H -5.28916 0.531278 1.55566 0
M  V30 28 H -5.48808 0.621666 -0.216011 0
M  V30 END ATOM
M  V30 BEGIN BOND
M  V30 1 1 1 2
M  V30 2 1 2 3
M  V30 3 1 3 4
M  V30 4 2 4 5
M  V30 5 1 5 6
M  V30 6 2 6 7
M  V30 7 1 7 8
M  V30 8 2 8 9
M  V30 9 1 7 10
M  V30 10 1 10 11
M  V30 11 2 11 12 CFG=2
M  V30 12 1 11 13
M  V30 13 1 9 4
M  V30 14 1 1 14
M  V30 15 1 1 15
M  V30 16 1 2 16
M  V30 17 1 2 17
M  V30 18 1 3 18
M  V30 19 1 3 19
M  V30 20 1 5 20
M  V30 21 1 6 21
M  V30 22 1 8 22
M  V30 23 1 9 23
M  V30 24 1 10 24
M  V30 25 1 10 25
M  V30 26 1 12 26
M  V30 27 1 13 27
M  V30 28 1 13 28
M  V30 END BOND
M  V30 END CTAB
M  END
