
     RDKit          3D

  0  0  0  0  0  0  0  0  0  0999 V3000
M  V30 BEGIN CTAB
M  V30 COUNTS 20 20 0 0 0
M  V30 BEGIN ATOM
M  V30 1 N 2.74655 -1.28943 -0.229563 0
M  V30 2 C 1.5835 -0.481688 -0.153694 0
M  V30 3 C 1.67156 0.891147 -0.289534 0
M  V30 4 C 0.587211 1.72115 -0.225772 0
M  V30 5 C -0.684078 1.20188 -0.0156265 0
M  V30 6 C -0.78378 -0.162919 0.120977 0
M  V30 7 C 0.317501 -0.984672 0.0542964 0
M  V30 8 O 0.160306 -2.37065 0.200195 0
M  V30 9 C -2.15276 -0.710423 0.346227 0
M  V30 10 F -2.12521 -2.08172 0.467128 0
M  V30 11 F -2.96897 -0.409568 -0.730491 0
M  V30 12 F -2.66451 -0.086183 1.44681 0
M  V30 13 N -1.82616 2.05737 0.0532388 0
M  V30 14 H 2.80426 -2.16716 0.328463 0
M  V30 15 H 3.56702 -1.05215 -0.824393 0
M  V30 16 H 2.6454 1.36099 -0.457039 0
M  V30 17 H 0.676156 2.80948 -0.335923 0
M  V30 18 H 0.947442 -3.00262 0.156556 0
M  V30 19 H -2.19932 2.42087 -0.843089 0
M  V30 20 H -2.30212 2.33629 0.931238 0
M  V30 END ATOM
M  V30 BEGIN BOND
M  V30 1 1 1 2
M  V30 2 2 2 3
M  V30 3 1 3 4
M  V30 4 2 4 5
M  V30 5 1 5 6
M  V30 6 2 6 7
M  V30 7 1 7 8
M  V30 8 1 6 9
M  V30 9 1 9 10
M  V30 10 1 9 11
M  V30 11 1 9 12
M  V30 12 1 5 13
M  V30 13 1 7 2
M  V30 14 1 1 14
M  V30 15 1 1 15
M  V30 16 1 3 16
M  V30 17 1 4 17
M  V30 18 1 8 18
M  V30 19 1 13 19
M  V30 20 1 13 20
M  V30 END BOND
M  V30 END CTAB
M  END
