
     RDKit          3D

  0  0  0  0  0  0  0  0  0  0999 V3000
M  V30 BEGIN CTAB
M  V30 COUNTS 33 34 0 0 0
M  V30 BEGIN ATOM
M  V30 1 C -4.07648 -1.64459 0.423557 0
M  V30 2 O -2.95723 -0.846655 0.704017 0
M  V30 3 C -2.03276 -0.994242 -0.30288 0 CFG=2
M  V30 4 C -0.69372 -1.47681 0.20396 0
M  V30 5 N 0.25038 -0.418113 -0.0437951 0
M  V30 6 C -0.480716 0.769547 -0.322699 0 CFG=1
M  V30 7 C -1.75308 0.321641 -0.969966 0
M  V30 8 C -0.835589 1.56326 0.911668 0
M  V30 9 N -1.57231 2.73471 0.471012 0
M  V30 10 C 1.65264 -0.586819 -0.00351185 0
M  V30 11 C 2.52338 0.461953 -0.249342 0
M  V30 12 C 3.88862 0.317908 -0.214917 0
M  V30 13 N 4.70249 1.44349 -0.478764 0
M  V30 14 N 4.40406 -0.88336 0.0673373 0
M  V30 15 C 3.57953 -1.9117 0.308398 0
M  V30 16 N 2.23049 -1.76865 0.274208 0
M  V30 17 H -4.48878 -1.2926 -0.547803 0
M  V30 18 H -4.84033 -1.52023 1.20151 0
M  V30 19 H -3.69777 -2.69153 0.338038 0
M  V30 20 H -2.40909 -1.70657 -1.079 0
M  V30 21 H -0.738578 -1.77117 1.27279 0
M  V30 22 H -0.365317 -2.35951 -0.38381 0
M  V30 23 H 0.0583426 1.41219 -1.05577 0
M  V30 24 H -2.54249 1.07772 -0.770167 0
M  V30 25 H -1.59555 0.185886 -2.07009 0
M  V30 26 H -1.48039 0.934786 1.55329 0
M  V30 27 H 0.0513935 1.91031 1.46303 0
M  V30 28 H -1.34615 3.58917 1.00779 0
M  V30 29 H -1.55864 2.85584 -0.54826 0
M  V30 30 H 2.06856 1.43525 -0.47805 0
M  V30 31 H 5.00625 2.1203 0.251294 0
M  V30 32 H 5.02016 1.60865 -1.4667 0
M  V30 33 H 4.02868 -2.87008 0.53362 0
M  V30 END ATOM
M  V30 BEGIN BOND
M  V30 1 1 1 2
M  V30 2 1 2 3
M  V30 3 1 3 4
M  V30 4 1 4 5
M  V30 5 1 5 6
M  V30 6 1 6 7
M  V30 7 1 6 8
M  V30 8 1 8 9
M  V30 9 1 5 10
M  V30 10 2 10 11
M  V30 11 1 11 12
M  V30 12 1 12 13
M  V30 13 2 12 14
M  V30 14 1 14 15
M  V30 15 2 15 16
M  V30 16 1 7 3
M  V30 17 1 16 10
M  V30 18 1 1 17
M  V30 19 1 1 18
M  V30 20 1 1 19
M  V30 21 1 3 20 CFG=3
M  V30 22 1 4 21
M  V30 23 1 4 22
M  V30 24 1 6 23 CFG=3
M  V30 25 1 7 24
M  V30 26 1 7 25
M  V30 27 1 8 26
M  V30 28 1 8 27
M  V30 29 1 9 28
M  V30 30 1 9 29
M  V30 31 1 11 30
M  V30 32 1 13 31
M  V30 33 1 13 32
M  V30 34 1 15 33
M  V30 END BOND
M  V30 END CTAB
M  END
