
     RDKit          3D

  0  0  0  0  0  0  0  0  0  0999 V3000
M  V30 BEGIN CTAB
M  V30 COUNTS 16 16 0 0 0
M  V30 BEGIN ATOM
M  V30 1 N -1.88003 1.15955 -0.169659 0
M  V30 2 C -0.561316 0.627625 -0.0585401 0
M  V30 3 C -0.350607 -0.750543 0.0169043 0
M  V30 4 N -1.48528 -1.5777 -0.0214347 0
M  V30 5 C 0.94158 -1.24821 0.124762 0
M  V30 6 F 1.10038 -2.59286 0.195301 0
M  V30 7 C 2.03859 -0.423394 0.16069 0
M  V30 8 F 3.3111 -0.885997 0.265661 0
M  V30 9 C 1.83803 0.944758 0.0863643 0
M  V30 10 C 0.567301 1.42243 -0.0191779 0
M  V30 11 F 0.355349 2.77753 -0.0936435 0
M  V30 12 H -2.427 1.54712 0.606913 0
M  V30 13 H -2.34279 1.16008 -1.1258 0
M  V30 14 H -2.0134 -1.79865 0.842541 0
M  V30 15 H -1.80037 -1.97351 -0.925198 0
M  V30 16 H 2.70847 1.61177 0.114323 0
M  V30 END ATOM
M  V30 BEGIN BOND
M  V30 1 1 1 2
M  V30 2 2 2 3
M  V30 3 1 3 4
M  V30 4 1 3 5
M  V30 5 1 5 6
M  V30 6 2 5 7
M  V30 7 1 7 8
M  V30 8 1 7 9
M  V30 9 2 9 10
M  V30 10 1 10 11
M  V30 11 1 10 2
M  V30 12 1 1 12
M  V30 13 1 1 13
M  V30 14 1 4 14
M  V30 15 1 4 15
M  V30 16 1 9 16
M  V30 END BOND
M  V30 END CTAB
M  END
