
     RDKit          3D

  0  0  0  0  0  0  0  0  0  0999 V3000
M  V30 BEGIN CTAB
M  V30 COUNTS 30 31 0 0 0
M  V30 BEGIN ATOM
M  V30 1 N 1.03057 -0.810804 -1.74791 0
M  V30 2 C 0.783651 -0.663299 -0.300943 0
M  V30 3 C 1.83382 0.152155 0.314839 0
M  V30 4 O 1.64284 1.12283 1.1646 0
M  V30 5 N 2.75591 1.66069 1.53661 0
M  V30 6 C 3.75846 1.02649 0.910228 0
M  V30 7 N 3.15903 0.0774793 0.143194 0
M  V30 8 N 5.16841 1.28163 1.01516 0
M  V30 9 C -0.589667 -0.0273938 -0.199066 0
M  V30 10 C -0.935189 0.160125 1.22551 0
M  V30 11 C -2.2596 -0.37695 1.64613 0
M  V30 12 C -3.27919 0.0298186 0.615174 0
M  V30 13 C -3.00158 -0.550386 -0.743246 0
M  V30 14 C -1.56307 -0.789033 -1.03649 0
M  V30 15 H 1.03213 0.182466 -2.11563 0
M  V30 16 H 2.00204 -1.17982 -1.82131 0
M  V30 17 H 0.694534 -1.67479 0.135237 0
M  V30 18 H 5.52519 2.22889 1.24648 0
M  V30 19 H 5.84963 0.499557 0.855841 0
M  V30 20 H -0.440958 1.00736 -0.638165 0
M  V30 21 H -0.862935 1.221 1.5437 0
M  V30 22 H -0.173768 -0.360836 1.88514 0
M  V30 23 H -2.25782 -1.45518 1.85645 0
M  V30 24 H -2.54648 0.136163 2.59605 0
M  V30 25 H -3.28847 1.14024 0.583896 0
M  V30 26 H -4.27375 -0.271614 1.00786 0
M  V30 27 H -3.5837 -1.49361 -0.814596 0
M  V30 28 H -3.46007 0.13679 -1.48516 0
M  V30 29 H -1.34942 -1.87514 -0.948926 0
M  V30 30 H -1.37053 -0.53482 -2.10056 0
M  V30 END ATOM
M  V30 BEGIN BOND
M  V30 1 1 1 2
M  V30 2 1 2 3
M  V30 3 1 3 4
M  V30 4 1 4 5
M  V30 5 2 5 6
M  V30 6 1 6 7
M  V30 7 1 6 8
M  V30 8 1 2 9
M  V30 9 1 9 10
M  V30 10 1 10 11
M  V30 11 1 11 12
M  V30 12 1 12 13
M  V30 13 1 13 14
M  V30 14 2 7 3
M  V30 15 1 14 9
M  V30 16 1 1 15
M  V30 17 1 1 16
M  V30 18 1 2 17
M  V30 19 1 8 18
M  V30 20 1 8 19
M  V30 21 1 9 20
M  V30 22 1 10 21
M  V30 23 1 10 22
M  V30 24 1 11 23
M  V30 25 1 11 24
M  V30 26 1 12 25
M  V30 27 1 12 26
M  V30 28 1 13 27
M  V30 29 1 13 28
M  V30 30 1 14 29
M  V30 31 1 14 30
M  V30 END BOND
M  V30 END CTAB
M  END
