
     RDKit          3D

  0  0  0  0  0  0  0  0  0  0999 V3000
M  V30 BEGIN CTAB
M  V30 COUNTS 31 33 0 0 0
M  V30 BEGIN ATOM
M  V30 1 N -4.6363 -2.76535 0.170028 0
M  V30 2 C -4.13352 -1.424 0.185421 0
M  V30 3 C -4.95629 -0.334132 0.296737 0
M  V30 4 C -4.44974 0.944646 0.3098 0
M  V30 5 C -3.06654 1.1087 0.20602 0
M  V30 6 C -2.18978 0.0458101 0.0910756 0
M  V30 7 C -2.76303 -1.19584 0.0851478 0
M  V30 8 N -0.916936 0.550067 0.010189 0
M  V30 9 C -1.0719 1.86934 0.0787011 0
M  V30 10 O -0.135438 2.72356 0.0424636 0
M  V30 11 O -2.35546 2.19344 0.194605 0
M  V30 12 C 0.23092 -0.26005 -0.0861852 0
M  V30 13 O 0.122129 -1.53956 -0.0347473 0
M  V30 14 C 1.58545 0.252459 -0.244801 0
M  V30 15 C 2.03949 1.12908 -1.19748 0
M  V30 16 C 3.38888 1.33577 -0.965983 0
M  V30 17 C 3.7105 0.573267 0.125187 0
M  V30 18 O 2.62899 -0.0354951 0.505573 0
M  V30 19 S 5.31525 0.489941 0.819929 0
M  V30 20 O 6.24403 1.34637 0.0218471 0
M  V30 21 O 5.34012 0.941181 2.25011 0
M  V30 22 N 5.93643 -1.12102 0.786594 0
M  V30 23 H -4.25748 -3.40187 -0.556085 0
M  V30 24 H -5.34549 -3.10519 0.842942 0
M  V30 25 H -6.02768 -0.452693 0.377383 0
M  V30 26 H -5.06993 1.83781 0.396779 0
M  V30 27 H -2.15396 -2.06858 -0.0018655 0
M  V30 28 H 1.47593 1.60225 -2.0193 0
M  V30 29 H 4.02915 1.98993 -1.56457 0
M  V30 30 H 5.33655 -1.80317 1.28297 0
M  V30 31 H 6.14566 -1.42669 -0.190599 0
M  V30 END ATOM
M  V30 BEGIN BOND
M  V30 1 1 1 2
M  V30 2 2 2 3
M  V30 3 1 3 4
M  V30 4 2 4 5
M  V30 5 1 5 6
M  V30 6 2 6 7
M  V30 7 1 6 8
M  V30 8 1 8 9
M  V30 9 2 9 10
M  V30 10 1 9 11
M  V30 11 1 8 12
M  V30 12 2 12 13
M  V30 13 1 12 14
M  V30 14 2 14 15
M  V30 15 1 15 16
M  V30 16 2 16 17
M  V30 17 1 17 18
M  V30 18 1 17 19
M  V30 19 2 19 20
M  V30 20 2 19 21
M  V30 21 1 19 22
M  V30 22 1 7 2
M  V30 23 1 18 14
M  V30 24 1 11 5
M  V30 25 1 1 23
M  V30 26 1 1 24
M  V30 27 1 3 25
M  V30 28 1 4 26
M  V30 29 1 7 27
M  V30 30 1 15 28
M  V30 31 1 16 29
M  V30 32 1 22 30
M  V30 33 1 22 31
M  V30 END BOND
M  V30 END CTAB
M  END
