
     RDKit          3D

  0  0  0  0  0  0  0  0  0  0999 V3000
M  V30 BEGIN CTAB
M  V30 COUNTS 34 34 0 0 0
M  V30 BEGIN ATOM
M  V30 1 N -3.76512 0.188863 -0.953639 0
M  V30 2 C -3.67415 -0.730914 0.102717 0
M  V30 3 C -2.78499 -0.260066 1.2157 0
M  V30 4 N -1.43426 -0.00948198 0.84318 0
M  V30 5 C -1.21546 1.10118 -0.0241909 0
M  V30 6 C 0.148447 1.67874 0.292872 0
M  V30 7 O 1.07312 1.26283 -0.624801 0
M  V30 8 C 1.24701 -0.0905376 -0.743664 0 CFG=2
M  V30 9 C 0.74678 -0.908388 0.405 0
M  V30 10 C -0.750957 -1.16677 0.320686 0
M  V30 11 C 2.75886 -0.317122 -0.907033 0
M  V30 12 C 3.46533 0.232856 0.331248 0
M  V30 13 N 4.87835 0.0311574 0.198043 0
M  V30 14 H -4.34028 0.967387 -0.827842 0
M  V30 15 H -3.4137 0.0132639 -1.83146 0
M  V30 16 H -4.70334 -0.840436 0.528719 0
M  V30 17 H -3.37812 -1.73868 -0.269997 0
M  V30 18 H -3.2421 0.654147 1.64445 0
M  V30 19 H -2.76152 -1.01635 2.04755 0
M  V30 20 H -1.23599 0.7376 -1.0795 0
M  V30 21 H -1.94951 1.90238 0.0515706 0
M  V30 22 H 0.396883 1.46967 1.34588 0
M  V30 23 H 0.109242 2.80154 0.219916 0
M  V30 24 H 0.803186 -0.490396 -1.69703 0
M  V30 25 H 0.984274 -0.480155 1.37778 0
M  V30 26 H 1.27908 -1.90261 0.35389 0
M  V30 27 H -0.954448 -2.08552 0.913898 0
M  V30 28 H -1.02598 -1.39081 -0.729526 0
M  V30 29 H 2.97598 -1.37358 -1.07577 0
M  V30 30 H 3.05638 0.339031 -1.75383 0
M  V30 31 H 3.01869 -0.289671 1.20485 0
M  V30 32 H 3.2203 1.31348 0.389534 0
M  V30 33 H 5.36342 0.951063 0.0999855 0
M  V30 34 H 5.10461 -0.553677 -0.627744 0
M  V30 END ATOM
M  V30 BEGIN BOND
M  V30 1 1 1 2
M  V30 2 1 2 3
M  V30 3 1 3 4
M  V30 4 1 4 5
M  V30 5 1 5 6
M  V30 6 1 6 7
M  V30 7 1 7 8
M  V30 8 1 8 9
M  V30 9 1 9 10
M  V30 10 1 8 11
M  V30 11 1 11 12
M  V30 12 1 12 13
M  V30 13 1 10 4
M  V30 14 1 1 14
M  V30 15 1 1 15
M  V30 16 1 2 16
M  V30 17 1 2 17
M  V30 18 1 3 18
M  V30 19 1 3 19
M  V30 20 1 5 20
M  V30 21 1 5 21
M  V30 22 1 6 22
M  V30 23 1 6 23
M  V30 24 1 8 24 CFG=3
M  V30 25 1 9 25
M  V30 26 1 9 26
M  V30 27 1 10 27
M  V30 28 1 10 28
M  V30 29 1 11 29
M  V30 30 1 11 30
M  V30 31 1 12 31
M  V30 32 1 12 32
M  V30 33 1 13 33
M  V30 34 1 13 34
M  V30 END BOND
M  V30 END CTAB
M  END
