
     RDKit          3D

  0  0  0  0  0  0  0  0  0  0999 V3000
M  V30 BEGIN CTAB
M  V30 COUNTS 49 50 0 0 0
M  V30 BEGIN ATOM
M  V30 1 N -7.54185 -0.646581 -2.49753 0
M  V30 2 C -7.68077 -0.615266 -1.07876 0
M  V30 3 N -8.86068 -0.681983 -0.616403 0
M  V30 4 C -6.5358 -0.512164 -0.191178 0
M  V30 5 C -6.62658 -0.478955 1.17939 0
M  V30 6 C -5.50417 -0.380165 1.97366 0
M  V30 7 Br -5.67287 -0.33713 3.86869 0
M  V30 8 C -4.20943 -0.307894 1.43857 0
M  V30 9 O -3.15135 -0.213869 2.29944 0
M  V30 10 C -1.80197 -0.114292 2.08675 0
M  V30 11 C -1.31149 1.11248 1.36478 0
M  V30 12 C 0.212881 0.98074 1.25869 0
M  V30 13 C 0.770059 2.20618 0.529468 0
M  V30 14 C 2.26546 2.06015 0.434465 0
M  V30 15 O 2.55512 0.880922 -0.286187 0
M  V30 16 C 3.86705 0.517975 -0.512885 0
M  V30 17 C 4.13806 -0.642325 -1.2219 0
M  V30 18 Br 2.75955 -1.76204 -1.89953 0
M  V30 19 C 5.44435 -1.00247 -1.44687 0
M  V30 20 C 6.48539 -0.216667 -0.971617 0
M  V30 21 C 6.18829 0.924574 -0.274129 0
M  V30 22 C 4.87265 1.3205 -0.027281 0
M  V30 23 C 7.84849 -0.635609 -1.23268 0
M  V30 24 N 8.10636 -1.83868 -1.96758 0
M  V30 25 N 8.84103 0.0264855 -0.832802 0
M  V30 26 C -4.12593 -0.342277 0.0646197 0
M  V30 27 C -5.24499 -0.440608 -0.732431 0
M  V30 28 H -7.90759 0.168243 -3.03322 0
M  V30 29 H -7.10037 -1.42994 -3.0185 0
M  V30 30 H -9.14266 -0.672837 0.368096 0
M  V30 31 H -7.62025 -0.533047 1.63832 0
M  V30 32 H -1.19037 -0.281603 3.00147 0
M  V30 33 H -1.51452 -0.979248 1.40523 0
M  V30 34 H -1.53899 1.98953 2.03272 0
M  V30 35 H -1.6762 1.25343 0.362976 0
M  V30 36 H 0.621719 0.913722 2.26904 0
M  V30 37 H 0.481692 0.0855283 0.676336 0
M  V30 38 H 0.460591 3.12688 1.05127 0
M  V30 39 H 0.322805 2.18113 -0.479038 0
M  V30 40 H 2.70187 2.95832 -0.0552107 0
M  V30 41 H 2.71404 1.9323 1.442 0
M  V30 42 H 5.71779 -1.89606 -1.99317 0
M  V30 43 H 6.991 1.55059 0.104598 0
M  V30 44 H 4.67944 2.23123 0.529145 0
M  V30 45 H 7.71716 -1.99662 -2.92054 0
M  V30 46 H 8.69967 -2.60285 -1.56479 0
M  V30 47 H 8.83573 0.907801 -0.29517 0
M  V30 48 H -3.1611 -0.305575 -0.412051 0
M  V30 49 H -5.17833 -0.46724 -1.81827 0
M  V30 END ATOM
M  V30 BEGIN BOND
M  V30 1 1 1 2
M  V30 2 2 2 3 CFG=2
M  V30 3 1 2 4
M  V30 4 2 4 5
M  V30 5 1 5 6
M  V30 6 1 6 7
M  V30 7 2 6 8
M  V30 8 1 8 9
M  V30 9 1 9 10
M  V30 10 1 10 11
M  V30 11 1 11 12
M  V30 12 1 12 13
M  V30 13 1 13 14
M  V30 14 1 14 15
M  V30 15 1 15 16
M  V30 16 2 16 17
M  V30 17 1 17 18
M  V30 18 1 17 19
M  V30 19 2 19 20
M  V30 20 1 20 21
M  V30 21 2 21 22
M  V30 22 1 20 23
M  V30 23 1 23 24
M  V30 24 2 23 25 CFG=2
M  V30 25 1 8 26
M  V30 26 2 26 27
M  V30 27 1 27 4
M  V30 28 1 22 16
M  V30 29 1 1 28
M  V30 30 1 1 29
M  V30 31 1 3 30
M  V30 32 1 5 31
M  V30 33 1 10 32
M  V30 34 1 10 33
M  V30 35 1 11 34
M  V30 36 1 11 35
M  V30 37 1 12 36
M  V30 38 1 12 37
M  V30 39 1 13 38
M  V30 40 1 13 39
M  V30 41 1 14 40
M  V30 42 1 14 41
M  V30 43 1 19 42
M  V30 44 1 21 43
M  V30 45 1 22 44
M  V30 46 1 24 45
M  V30 47 1 24 46
M  V30 48 1 25 47
M  V30 49 1 26 48
M  V30 50 1 27 49
M  V30 END BOND
M  V30 END CTAB
M  END
