
     RDKit          3D

  0  0  0  0  0  0  0  0  0  0999 V3000
M  V30 BEGIN CTAB
M  V30 COUNTS 31 31 0 0 0
M  V30 BEGIN ATOM
M  V30 1 N -3.56668 1.51379 -0.790745 0
M  V30 2 C -2.88097 0.830094 0.258971 0
M  V30 3 C -1.98078 -0.286349 -0.236921 0
M  V30 4 N -2.78821 -1.25835 -0.946413 0
M  V30 5 C -1.32991 -0.928474 0.973456 0
M  V30 6 C 0.103141 -0.486072 0.985466 0
M  V30 7 C 0.329507 0.392256 -0.206226 0
M  V30 8 C -0.859518 0.210362 -1.08664 0
M  V30 9 S 1.85006 -0.0881281 -0.981591 0
M  V30 10 O 2.10957 0.672804 -2.24196 0
M  V30 11 O 1.82698 -1.54959 -1.31916 0
M  V30 12 C 3.19119 0.193629 0.148705 0
M  V30 13 C 4.51592 -0.19074 -0.439029 0
M  V30 14 H -3.21298 1.25811 -1.7215 0
M  V30 15 H -3.51906 2.54961 -0.66809 0
M  V30 16 H -3.55672 0.452769 1.05356 0
M  V30 17 H -2.22281 1.58568 0.781591 0
M  V30 18 H -2.31471 -2.17101 -1.07866 0
M  V30 19 H -3.10626 -0.827059 -1.84341 0
M  V30 20 H -1.45644 -2.02845 0.91905 0
M  V30 21 H -1.81297 -0.590273 1.90085 0
M  V30 22 H 0.37618 0.085919 1.89214 0
M  V30 23 H 0.754277 -1.40388 0.926791 0
M  V30 24 H 0.397003 1.47516 0.0521172 0
M  V30 25 H -0.666155 -0.561015 -1.88832 0
M  V30 26 H -1.15381 1.12406 -1.63058 0
M  V30 27 H 3.03493 -0.452932 1.0581 0
M  V30 28 H 3.24129 1.24128 0.490775 0
M  V30 29 H 4.54756 -0.0629982 -1.54133 0
M  V30 30 H 4.84556 -1.20607 -0.118938 0
M  V30 31 H 5.3048 0.505865 -0.0435204 0
M  V30 END ATOM
M  V30 BEGIN BOND
M  V30 1 1 1 2
M  V30 2 1 2 3
M  V30 3 1 3 4
M  V30 4 1 3 5
M  V30 5 1 5 6
M  V30 6 1 6 7
M  V30 7 1 7 8
M  V30 8 1 7 9
M  V30 9 2 9 10
M  V30 10 2 9 11
M  V30 11 1 9 12
M  V30 12 1 12 13
M  V30 13 1 8 3
M  V30 14 1 1 14
M  V30 15 1 1 15
M  V30 16 1 2 16
M  V30 17 1 2 17
M  V30 18 1 4 18
M  V30 19 1 4 19
M  V30 20 1 5 20
M  V30 21 1 5 21
M  V30 22 1 6 22
M  V30 23 1 6 23
M  V30 24 1 7 24
M  V30 25 1 8 25
M  V30 26 1 8 26
M  V30 27 1 12 27
M  V30 28 1 12 28
M  V30 29 1 13 29
M  V30 30 1 13 30
M  V30 31 1 13 31
M  V30 END BOND
M  V30 END CTAB
M  END
