
     RDKit          3D

  0  0  0  0  0  0  0  0  0  0999 V3000
M  V30 BEGIN CTAB
M  V30 COUNTS 30 33 0 0 0
M  V30 BEGIN ATOM
M  V30 1 N -6.93693 0.783322 0.197798 0
M  V30 2 C -5.51265 0.557562 0.110794 0
M  V30 3 N -4.84565 -0.293133 -0.63513 0
M  V30 4 C -3.54302 -0.350437 -0.573978 0
M  V30 5 C -2.71719 -1.21349 -1.31757 0
M  V30 6 C -1.37373 -1.16261 -1.15077 0
M  V30 7 C -0.713688 -0.312389 -0.288191 0
M  V30 8 C -1.52517 0.531854 0.439049 0
M  V30 9 C -2.91685 0.50372 0.289672 0
M  V30 10 S -4.24061 1.34281 0.966489 0
M  V30 11 C 0.731204 -0.339865 -0.186181 0
M  V30 12 C 1.47105 0.777217 0.109977 0
M  V30 13 C 2.84573 0.736862 0.204753 0
M  V30 14 C 3.58018 -0.403115 0.0144875 0
M  V30 15 C 2.83761 -1.56712 -0.292074 0
M  V30 16 C 1.47408 -1.49869 -0.379873 0
M  V30 17 N 4.87864 -0.310221 0.132272 0
M  V30 18 C 5.43807 0.843243 0.422952 0
M  V30 19 N 6.8414 1.08228 0.580058 0
M  V30 20 S 4.09162 1.88602 0.546292 0
M  V30 21 H -7.25039 1.75462 -0.0218524 0
M  V30 22 H -7.57805 0.00555672 0.464917 0
M  V30 23 H -3.13536 -1.92425 -2.02712 0
M  V30 24 H -0.746621 -1.84706 -1.74351 0
M  V30 25 H -1.08048 1.22275 1.13187 0
M  V30 26 H 0.99222 1.71542 0.275525 0
M  V30 27 H 3.32141 -2.51162 -0.459491 0
M  V30 28 H 0.863345 -2.3847 -0.615725 0
M  V30 29 H 7.42456 0.555528 1.25654 0
M  V30 30 H 7.32527 1.81993 -0.00562091 0
M  V30 END ATOM
M  V30 BEGIN BOND
M  V30 1 1 1 2
M  V30 2 2 2 3
M  V30 3 1 3 4
M  V30 4 2 4 5
M  V30 5 1 5 6
M  V30 6 2 6 7
M  V30 7 1 7 8
M  V30 8 2 8 9
M  V30 9 1 9 10
M  V30 10 1 7 11
M  V30 11 2 11 12
M  V30 12 1 12 13
M  V30 13 2 13 14
M  V30 14 1 14 15
M  V30 15 2 15 16
M  V30 16 1 14 17
M  V30 17 2 17 18
M  V30 18 1 18 19
M  V30 19 1 18 20
M  V30 20 1 10 2
M  V30 21 1 16 11
M  V30 22 1 9 4
M  V30 23 1 20 13
M  V30 24 1 1 21
M  V30 25 1 1 22
M  V30 26 1 5 23
M  V30 27 1 6 24
M  V30 28 1 8 25
M  V30 29 1 12 26
M  V30 30 1 15 27
M  V30 31 1 16 28
M  V30 32 1 19 29
M  V30 33 1 19 30
M  V30 END BOND
M  V30 END CTAB
M  END
