
     RDKit          3D

  0  0  0  0  0  0  0  0  0  0999 V3000
M  V30 BEGIN CTAB
M  V30 COUNTS 74 79 0 0 0
M  V30 BEGIN ATOM
M  V30 1 C -6.67094 2.54544 -1.30914 0
M  V30 2 C -6.12519 1.57594 -2.3262 0
M  V30 3 C -5.04414 0.688101 -1.74226 0
M  V30 4 C -5.58308 -0.109364 -0.599641 0
M  V30 5 N -6.87112 -0.0121093 -0.147633 0
M  V30 6 C -7.06338 -0.84843 0.870687 0
M  V30 7 C -5.85452 -1.48233 1.05268 0
M  V30 8 N -4.95991 -1.01598 0.142125 0
M  V30 9 C -3.59939 -1.45357 0.0410863 0
M  V30 10 C -2.63651 -0.721454 0.865739 0
M  V30 11 O -2.73262 -0.854223 2.14156 0
M  V30 12 N -1.61202 0.113966 0.410835 0
M  V30 13 C -1.27797 0.423903 -0.947155 0
M  V30 14 C 0.161884 0.614623 -1.19055 0
M  V30 15 C 1.09615 0.00216808 -0.164573 0
M  V30 16 C 0.609764 0.122312 1.23941 0
M  V30 17 C -0.730803 0.796343 1.37141 0
M  V30 18 O 1.35671 -1.27485 -0.594783 0
M  V30 19 C 2.34391 -1.94447 0.0278001 0
M  V30 20 C 3.70336 -1.24114 -0.00708881 0 CFG=2
M  V30 21 C 3.57742 0.173393 0.402206 0 CFG=2
M  V30 22 C 2.37723 0.788589 -0.267646 0
M  V30 23 N 4.68932 1.03611 0.0464767 0
M  V30 24 C 4.60972 2.32416 -0.390862 0
M  V30 25 N 5.80149 2.84565 -0.632512 0
M  V30 26 C 6.69913 1.9123 -0.359733 0
M  V30 27 C 6.01492 0.791565 0.0605505 0
M  V30 28 N 6.7444 -0.259109 0.382963 0
M  V30 29 C 8.07886 -0.351715 0.345088 0
M  V30 30 N 8.80271 -1.50933 0.705074 0
M  V30 31 N 8.73171 0.771751 -0.0746889 0
M  V30 32 C 8.09042 1.89669 -0.427371 0
M  V30 33 N 8.78568 3.06936 -0.865817 0
M  V30 34 C 4.25416 -1.40699 -1.40885 0
M  V30 35 O 4.43933 -2.04592 0.901769 0
M  V30 36 C -5.77692 -2.42223 2.06937 0
M  V30 37 C -6.86087 -2.71603 2.86978 0
M  V30 38 C -8.07413 -2.08203 2.68947 0
M  V30 39 C -8.15169 -1.13894 1.6691 0
M  V30 40 H -6.05077 2.52037 -0.379677 0
M  V30 41 H -7.71533 2.3205 -1.03181 0
M  V30 42 H -6.62855 3.58073 -1.69923 0
M  V30 43 H -5.63722 2.16059 -3.14197 0
M  V30 44 H -6.94703 0.989865 -2.73142 0
M  V30 45 H -4.24435 1.32229 -1.31715 0
M  V30 46 H -4.72043 -0.0153412 -2.519 0
M  V30 47 H -3.27143 -1.45052 -1.02672 0
M  V30 48 H -3.58891 -2.52887 0.339846 0
M  V30 49 H -1.72252 -0.334381 -1.63166 0
M  V30 50 H -1.85099 1.36818 -1.20739 0
M  V30 51 H 0.346616 1.70662 -1.31286 0
M  V30 52 H 0.377845 0.196367 -2.21629 0
M  V30 53 H 0.482787 -0.893296 1.6595 0
M  V30 54 H 1.30056 0.657839 1.91827 0
M  V30 55 H -0.697001 1.86677 1.10104 0
M  V30 56 H -1.15912 0.656005 2.36195 0
M  V30 57 H 2.51021 -2.9042 -0.521069 0
M  V30 58 H 2.09683 -2.27384 1.07658 0
M  V30 59 H 3.44959 0.208397 1.50442 0
M  V30 60 H 2.17291 1.7435 0.302999 0
M  V30 61 H 2.59046 1.07743 -1.31105 0
M  V30 62 H 3.67405 2.84259 -0.519463 0
M  V30 63 H 9.17292 -1.61756 1.65954 0
M  V30 64 H 8.95972 -2.24812 0.00448731 0
M  V30 65 H 8.36764 3.74749 -1.52917 0
M  V30 66 H 9.74531 3.21439 -0.482897 0
M  V30 67 H 5.03682 -2.17479 -1.48494 0
M  V30 68 H 4.5994 -0.444934 -1.83721 0
M  V30 69 H 3.43852 -1.75012 -2.11134 0
M  V30 70 H 4.23494 -1.82363 1.82238 0
M  V30 71 H -4.86851 -2.95563 2.26942 0
M  V30 72 H -6.79458 -3.46125 3.67308 0
M  V30 73 H -8.93366 -2.30128 3.30949 0
M  V30 74 H -9.06979 -0.604313 1.47126 0
M  V30 END ATOM
M  V30 BEGIN BOND
M  V30 1 1 1 2
M  V30 2 1 2 3
M  V30 3 1 3 4
M  V30 4 2 4 5
M  V30 5 1 5 6
M  V30 6 2 6 7
M  V30 7 1 7 8
M  V30 8 1 8 9
M  V30 9 1 9 10
M  V30 10 2 10 11
M  V30 11 1 10 12
M  V30 12 1 12 13
M  V30 13 1 13 14
M  V30 14 1 14 15
M  V30 15 1 15 16
M  V30 16 1 16 17
M  V30 17 1 15 18
M  V30 18 1 18 19
M  V30 19 1 19 20
M  V30 20 1 20 21
M  V30 21 1 21 22
M  V30 22 1 21 23
M  V30 23 1 23 24
M  V30 24 2 24 25
M  V30 25 1 25 26
M  V30 26 2 26 27
M  V30 27 1 27 28
M  V30 28 2 28 29
M  V30 29 1 29 30
M  V30 30 1 29 31
M  V30 31 2 31 32
M  V30 32 1 32 33
M  V30 33 1 20 34
M  V30 34 1 20 35 CFG=1
M  V30 35 1 7 36
M  V30 36 2 36 37
M  V30 37 1 37 38
M  V30 38 2 38 39
M  V30 39 1 8 4
M  V30 40 1 17 12
M  V30 41 1 27 23
M  V30 42 1 39 6
M  V30 43 1 22 15
M  V30 44 1 32 26
M  V30 45 1 1 40
M  V30 46 1 1 41
M  V30 47 1 1 42
M  V30 48 1 2 43
M  V30 49 1 2 44
M  V30 50 1 3 45
M  V30 51 1 3 46
M  V30 52 1 9 47
M  V30 53 1 9 48
M  V30 54 1 13 49
M  V30 55 1 13 50
M  V30 56 1 14 51
M  V30 57 1 14 52
M  V30 58 1 16 53
M  V30 59 1 16 54
M  V30 60 1 17 55
M  V30 61 1 17 56
M  V30 62 1 19 57
M  V30 63 1 19 58
M  V30 64 1 21 59 CFG=1
M  V30 65 1 22 60
M  V30 66 1 22 61
M  V30 67 1 24 62
M  V30 68 1 30 63
M  V30 69 1 30 64
M  V30 70 1 33 65
M  V30 71 1 33 66
M  V30 72 1 34 67
M  V30 73 1 34 68
M  V30 74 1 34 69
M  V30 75 1 35 70
M  V30 76 1 36 71
M  V30 77 1 37 72
M  V30 78 1 38 73
M  V30 79 1 39 74
M  V30 END BOND
M  V30 END CTAB
M  END
