
     RDKit          3D

  0  0  0  0  0  0  0  0  0  0999 V3000
M  V30 BEGIN CTAB
M  V30 COUNTS 21 21 0 0 0
M  V30 BEGIN ATOM
M  V30 1 C 2.50014 -0.111654 -0.564858 0
M  V30 2 N 1.49997 0.0425274 0.473436 0
M  V30 3 C 0.11081 0.0427607 0.250734 0
M  V30 4 C -0.541747 -1.1773 0.306953 0
M  V30 5 N 0.148286 -2.39519 0.578118 0
M  V30 6 C -1.90285 -1.17251 0.0881364 0
M  V30 7 C -2.60406 -0.013766 -0.177007 0
M  V30 8 C -1.94459 1.18807 -0.229716 0
M  V30 9 C -0.579834 1.23096 -0.0165999 0
M  V30 10 N 0.165784 2.43399 -0.0556545 0
M  V30 11 H 3.43655 0.38969 -0.265949 0
M  V30 12 H 2.14186 0.405426 -1.50222 0
M  V30 13 H 2.6567 -1.17017 -0.854934 0
M  V30 14 H 1.84484 0.160762 1.44934 0
M  V30 15 H 0.725934 -2.46763 1.44465 0
M  V30 16 H 0.0536824 -3.17673 -0.0995644 0
M  V30 17 H -2.4654 -2.09388 0.119408 0
M  V30 18 H -3.68976 -0.0469007 -0.346676 0
M  V30 19 H -2.43155 2.13361 -0.432426 0
M  V30 20 H -0.15476 3.21195 -0.661946 0
M  V30 21 H 1.02999 2.58599 0.496769 0
M  V30 END ATOM
M  V30 BEGIN BOND
M  V30 1 1 1 2
M  V30 2 1 2 3
M  V30 3 2 3 4
M  V30 4 1 4 5
M  V30 5 1 4 6
M  V30 6 2 6 7
M  V30 7 1 7 8
M  V30 8 2 8 9
M  V30 9 1 9 10
M  V30 10 1 9 3
M  V30 11 1 1 11
M  V30 12 1 1 12
M  V30 13 1 1 13
M  V30 14 1 2 14
M  V30 15 1 5 15
M  V30 16 1 5 16
M  V30 17 1 6 17
M  V30 18 1 7 18
M  V30 19 1 8 19
M  V30 20 1 10 20
M  V30 21 1 10 21
M  V30 END BOND
M  V30 END CTAB
M  END
