
     RDKit          3D

  0  0  0  0  0  0  0  0  0  0999 V3000
M  V30 BEGIN CTAB
M  V30 COUNTS 20 21 0 0 0
M  V30 BEGIN ATOM
M  V30 1 N -3.28724 1.29347 1.20391 0
M  V30 2 C -2.49286 0.48927 0.349491 0
M  V30 3 N -3.09347 -0.226851 -0.608602 0
M  V30 4 C -2.35994 -0.996214 -1.42999 0
M  V30 5 C -0.97801 -1.05673 -1.29489 0
M  V30 6 C -0.331763 -0.33071 -0.317932 0
M  V30 7 C -1.12861 0.443204 0.499424 0
M  V30 8 C 1.13039 -0.374823 -0.150904 0
M  V30 9 O 1.91157 -1.09539 -0.906045 0
M  V30 10 N 3.13437 -0.925363 -0.515712 0
M  V30 11 C 3.14846 -0.0724974 0.51961 0
M  V30 12 N 1.88176 0.262975 0.735037 0
M  V30 13 N 4.23972 0.414157 1.27365 0
M  V30 14 H -3.13181 2.33478 1.13982 0
M  V30 15 H -3.98082 0.870353 1.85313 0
M  V30 16 H -2.89156 -1.55857 -2.1914 0
M  V30 17 H -0.416061 -1.67373 -1.95758 0
M  V30 18 H -0.618261 1.01245 1.26599 0
M  V30 19 H 4.22148 1.39075 1.60958 0
M  V30 20 H 5.04266 -0.200531 1.48419 0
M  V30 END ATOM
M  V30 BEGIN BOND
M  V30 1 1 1 2
M  V30 2 2 2 3
M  V30 3 1 3 4
M  V30 4 2 4 5
M  V30 5 1 5 6
M  V30 6 2 6 7
M  V30 7 1 6 8
M  V30 8 1 8 9
M  V30 9 1 9 10
M  V30 10 2 10 11
M  V30 11 1 11 12
M  V30 12 1 11 13
M  V30 13 1 7 2
M  V30 14 2 12 8
M  V30 15 1 1 14
M  V30 16 1 1 15
M  V30 17 1 4 16
M  V30 18 1 5 17
M  V30 19 1 7 18
M  V30 20 1 13 19
M  V30 21 1 13 20
M  V30 END BOND
M  V30 END CTAB
M  END
