
     RDKit          3D

  0  0  0  0  0  0  0  0  0  0999 V3000
M  V30 BEGIN CTAB
M  V30 COUNTS 29 30 0 0 0
M  V30 BEGIN ATOM
M  V30 1 N -1.29989 2.09089 0.589593 0
M  V30 2 C -1.32829 0.983428 -0.322443 0
M  V30 3 C -2.37165 -0.0464767 0.0196044 0
M  V30 4 C -1.6827 -1.35821 -0.196543 0
M  V30 5 C -0.471436 -1.01726 -1.08632 0
M  V30 6 C -0.0289204 0.154213 -0.234839 0
M  V30 7 C 0.0322361 -0.449503 1.11277 0
M  V30 8 C -0.927425 -1.65489 1.09138 0
M  V30 9 C 1.06016 0.954733 -0.741222 0
M  V30 10 S 2.67459 0.349897 -0.802778 0
M  V30 11 O 3.56751 1.48196 -1.3117 0
M  V30 12 O 2.88447 -0.769264 -1.78171 0
M  V30 13 N 3.32535 -0.0855011 0.734021 0
M  V30 14 H -1.14381 2.95996 0.0107255 0
M  V30 15 H -2.17795 2.18823 1.14737 0
M  V30 16 H -1.45792 1.25827 -1.37389 0
M  V30 17 H -2.62909 0.118635 1.10697 0
M  V30 18 H -3.3124 0.0710202 -0.534602 0
M  V30 19 H -2.2751 -2.16264 -0.569721 0
M  V30 20 H 0.185917 -1.87625 -1.02081 0
M  V30 21 H -0.766679 -0.68542 -2.07182 0
M  V30 22 H 0.991303 -0.77163 1.49299 0
M  V30 23 H -0.416011 0.252002 1.84458 0
M  V30 24 H -0.347221 -2.59976 0.933515 0
M  V30 25 H -1.57195 -1.67973 1.96802 0
M  V30 26 H 0.765092 1.31636 -1.77267 0
M  V30 27 H 1.0817 1.9231 -0.154275 0
M  V30 28 H 4.34908 0.168069 0.805567 0
M  V30 29 H 3.29104 -1.11424 0.899868 0
M  V30 END ATOM
M  V30 BEGIN BOND
M  V30 1 1 1 2
M  V30 2 1 2 3
M  V30 3 1 3 4
M  V30 4 1 4 5
M  V30 5 1 5 6
M  V30 6 1 6 7
M  V30 7 1 7 8
M  V30 8 1 6 9
M  V30 9 1 9 10
M  V30 10 2 10 11
M  V30 11 2 10 12
M  V30 12 1 10 13
M  V30 13 1 6 2
M  V30 14 1 8 4
M  V30 15 1 1 14
M  V30 16 1 1 15
M  V30 17 1 2 16
M  V30 18 1 3 17
M  V30 19 1 3 18
M  V30 20 1 4 19
M  V30 21 1 5 20
M  V30 22 1 5 21
M  V30 23 1 7 22
M  V30 24 1 7 23
M  V30 25 1 8 24
M  V30 26 1 8 25
M  V30 27 1 9 26
M  V30 28 1 9 27
M  V30 29 1 13 28
M  V30 30 1 13 29
M  V30 END BOND
M  V30 END CTAB
M  END
