
     RDKit          3D

  0  0  0  0  0  0  0  0  0  0999 V3000
M  V30 BEGIN CTAB
M  V30 COUNTS 23 23 0 0 0
M  V30 BEGIN ATOM
M  V30 1 N -3.33153 -0.622655 -1.17715 0
M  V30 2 C -2.39544 -0.790907 -0.0890887 0
M  V30 3 C -1.02324 -0.198121 -0.434013 0
M  V30 4 C -0.144981 -0.431567 0.761498 0
M  V30 5 C 1.22133 0.0761343 0.608773 0
M  V30 6 O 1.70011 1.25444 0.909473 0
M  V30 7 N 2.9663 1.32912 0.627795 0
M  V30 8 C 3.36312 0.142991 0.111248 0
M  V30 9 N 2.2576 -0.620998 0.109763 0
M  V30 10 N 4.67893 -0.134469 -0.307187 0
M  V30 11 C -1.25113 1.27208 -0.702877 0
M  V30 12 H -3.99169 0.15773 -0.933614 0
M  V30 13 H -3.9416 -1.49426 -1.20466 0
M  V30 14 H -2.72485 -0.255121 0.836092 0
M  V30 15 H -2.27045 -1.87586 0.162341 0
M  V30 16 H -0.629469 -0.676873 -1.33428 0
M  V30 17 H -0.639802 0.000816606 1.66494 0
M  V30 18 H -0.118161 -1.53057 0.936534 0
M  V30 19 H 5.50266 0.220497 0.257114 0
M  V30 20 H 4.92103 -0.687174 -1.16821 0
M  V30 21 H -0.444778 1.75303 -1.25335 0
M  V30 22 H -2.16918 1.33108 -1.35544 0
M  V30 23 H -1.53475 1.78065 0.239824 0
M  V30 END ATOM
M  V30 BEGIN BOND
M  V30 1 1 1 2
M  V30 2 1 2 3
M  V30 3 1 3 4
M  V30 4 1 4 5
M  V30 5 1 5 6
M  V30 6 1 6 7
M  V30 7 2 7 8
M  V30 8 1 8 9
M  V30 9 1 8 10
M  V30 10 1 3 11
M  V30 11 2 9 5
M  V30 12 1 1 12
M  V30 13 1 1 13
M  V30 14 1 2 14
M  V30 15 1 2 15
M  V30 16 1 3 16
M  V30 17 1 4 17
M  V30 18 1 4 18
M  V30 19 1 10 19
M  V30 20 1 10 20
M  V30 21 1 11 21
M  V30 22 1 11 22
M  V30 23 1 11 23
M  V30 END BOND
M  V30 END CTAB
M  END
