
     RDKit          3D

  0  0  0  0  0  0  0  0  0  0999 V3000
M  V30 BEGIN CTAB
M  V30 COUNTS 38 38 0 0 0
M  V30 BEGIN ATOM
M  V30 1 C -2.8982 1.57468 0.728328 0
M  V30 2 C -3.779 0.505793 0.174989 0
M  V30 3 C -3.18941 -0.114395 -1.07253 0
M  V30 4 C -1.86938 -0.747983 -0.852367 0
M  V30 5 O -1.83989 -1.98037 -0.761081 0
M  V30 6 N -0.705888 0.0368598 -0.755583 0
M  V30 7 C 0.623114 -0.402378 -0.549741 0
M  V30 8 C 1.01903 -1.70013 -0.724679 0
M  V30 9 C 2.35622 -2.01221 -0.466413 0
M  V30 10 C 3.26222 -1.06135 -0.0495386 0
M  V30 11 C 2.87886 0.254133 0.131571 0
M  V30 12 C 1.56102 0.550381 -0.12503 0
M  V30 13 S 4.05056 1.41281 0.655811 0
M  V30 14 O 4.56703 1.14241 2.04184 0
M  V30 15 O 5.16683 1.60601 -0.333278 0
M  V30 16 N 3.22803 2.95394 0.775379 0
M  V30 17 C 4.67389 -1.41501 0.217512 0
M  V30 18 N -4.15669 -1.16533 -1.47623 0
M  V30 19 C -4.01007 -0.520417 1.2586 0
M  V30 20 H -1.97771 1.17226 1.19628 0
M  V30 21 H -3.39952 2.13545 1.57204 0
M  V30 22 H -2.61639 2.35918 0.00575205 0
M  V30 23 H -4.7543 0.949603 -0.128983 0
M  V30 24 H -3.1983 0.634983 -1.88609 0
M  V30 25 H -0.818054 1.09865 -0.866262 0
M  V30 26 H 0.361926 -2.49718 -1.06112 0
M  V30 27 H 2.65087 -3.05142 -0.611462 0
M  V30 28 H 1.26008 1.59326 0.02013 0
M  V30 29 H 3.83768 3.67459 1.18561 0
M  V30 30 H 2.84455 3.17423 -0.157559 0
M  V30 31 H 5.00885 -1.14315 1.23766 0
M  V30 32 H 4.75191 -2.51986 0.156617 0
M  V30 33 H 5.36222 -1.02046 -0.565051 0
M  V30 34 H -4.1867 -1.23007 -2.51429 0
M  V30 35 H -3.8559 -2.04983 -1.01392 0
M  V30 36 H -3.05318 -0.707252 1.76304 0
M  V30 37 H -4.69566 -0.0647674 1.99963 0
M  V30 38 H -4.46065 -1.42566 0.832578 0
M  V30 END ATOM
M  V30 BEGIN BOND
M  V30 1 1 1 2
M  V30 2 1 2 3
M  V30 3 1 3 4
M  V30 4 2 4 5
M  V30 5 1 4 6
M  V30 6 1 6 7
M  V30 7 2 7 8
M  V30 8 1 8 9
M  V30 9 2 9 10
M  V30 10 1 10 11
M  V30 11 2 11 12
M  V30 12 1 11 13
M  V30 13 2 13 14
M  V30 14 2 13 15
M  V30 15 1 13 16
M  V30 16 1 10 17
M  V30 17 1 3 18
M  V30 18 1 2 19
M  V30 19 1 12 7
M  V30 20 1 1 20
M  V30 21 1 1 21
M  V30 22 1 1 22
M  V30 23 1 2 23
M  V30 24 1 3 24
M  V30 25 1 6 25
M  V30 26 1 8 26
M  V30 27 1 9 27
M  V30 28 1 12 28
M  V30 29 1 16 29
M  V30 30 1 16 30
M  V30 31 1 17 31
M  V30 32 1 17 32
M  V30 33 1 17 33
M  V30 34 1 18 34
M  V30 35 1 18 35
M  V30 36 1 19 36
M  V30 37 1 19 37
M  V30 38 1 19 38
M  V30 END BOND
M  V30 END CTAB
M  END
