
     RDKit          3D

  0  0  0  0  0  0  0  0  0  0999 V3000
M  V30 BEGIN CTAB
M  V30 COUNTS 58 59 0 0 0
M  V30 BEGIN ATOM
M  V30 1 N 6.55341 3.25878 1.01096 0
M  V30 2 C 5.87869 2.53712 -0.030527 0
M  V30 3 C 4.90765 1.52953 0.540252 0
M  V30 4 C 4.20846 0.777241 -0.536058 0
M  V30 5 O 4.52374 1.02881 -1.72537 0
M  V30 6 N 3.21053 -0.199029 -0.221595 0
M  V30 7 C 2.50352 -0.959778 -1.22149 0
M  V30 8 C 1.50934 -1.92043 -0.636023 0
M  V30 9 C 2.23534 -2.89093 0.248478 0
M  V30 10 C 1.36991 -3.85205 0.993111 0
M  V30 11 C 0.101116 -3.17686 1.43466 0
M  V30 12 C 0.429735 -1.67226 1.53175 0
M  V30 13 N 0.472684 -1.23936 0.158555 0
M  V30 14 C -0.400133 -0.288459 -0.396073 0
M  V30 15 O -0.292454 -0.0610379 -1.63043 0
M  V30 16 C -1.39249 0.424899 0.371338 0
M  V30 17 C -2.80348 0.442348 -0.146112 0
M  V30 18 C -3.37047 -0.982853 -0.240239 0
M  V30 19 N -3.37346 -1.62252 1.06055 0
M  V30 20 C -3.63018 1.12171 0.94999 0
M  V30 21 C -5.02271 1.41916 0.512128 0
M  V30 22 C -4.98195 2.46645 -0.576338 0
M  V30 23 C -3.59702 2.5846 -1.18789 0
M  V30 24 C -3.06882 1.15601 -1.40081 0
M  V30 25 H 5.92256 3.37765 1.83427 0
M  V30 26 H 6.87136 4.18579 0.696777 0
M  V30 27 H 5.35769 3.28864 -0.687337 0
M  V30 28 H 6.64611 2.05017 -0.67366 0
M  V30 29 H 5.49199 0.822105 1.15033 0
M  V30 30 H 4.1816 2.07159 1.20401 0
M  V30 31 H 2.98975 -0.360594 0.797263 0
M  V30 32 H 3.27696 -1.6188 -1.71179 0
M  V30 33 H 2.11996 -0.329661 -2.0351 0
M  V30 34 H 1.06447 -2.49642 -1.46546 0
M  V30 35 H 2.96527 -2.38372 0.937562 0
M  V30 36 H 2.92845 -3.45989 -0.45146 0
M  V30 37 H 1.11067 -4.73104 0.332329 0
M  V30 38 H 1.91022 -4.2811 1.86861 0
M  V30 39 H -0.272776 -3.5515 2.40327 0
M  V30 40 H -0.666185 -3.35087 0.652731 0
M  V30 41 H -0.242496 -1.159 2.19525 0
M  V30 42 H 1.44178 -1.62103 2.0402 0
M  V30 43 H -1.4767 0.133977 1.43521 0
M  V30 44 H -1.11189 1.53313 0.429009 0
M  V30 45 H -2.74102 -1.62184 -0.899049 0
M  V30 46 H -4.40458 -0.924137 -0.594469 0
M  V30 47 H -4.29902 -1.4677 1.52341 0
M  V30 48 H -3.23449 -2.65106 1.01314 0
M  V30 49 H -3.14548 2.11086 1.2086 0
M  V30 50 H -3.6364 0.552363 1.8915 0
M  V30 51 H -5.58446 0.52325 0.230033 0
M  V30 52 H -5.54623 1.86924 1.39851 0
M  V30 53 H -5.31683 3.43965 -0.20527 0
M  V30 54 H -5.66375 2.1073 -1.40338 0
M  V30 55 H -2.91596 3.1946 -0.594936 0
M  V30 56 H -3.75679 2.98176 -2.23123 0
M  V30 57 H -3.94148 0.649566 -1.91959 0
M  V30 58 H -2.29328 1.23563 -2.15013 0
M  V30 END ATOM
M  V30 BEGIN BOND
M  V30 1 1 1 2
M  V30 2 1 2 3
M  V30 3 1 3 4
M  V30 4 2 4 5
M  V30 5 1 4 6
M  V30 6 1 6 7
M  V30 7 1 7 8
M  V30 8 1 8 9
M  V30 9 1 9 10
M  V30 10 1 10 11
M  V30 11 1 11 12
M  V30 12 1 12 13
M  V30 13 1 13 14
M  V30 14 2 14 15
M  V30 15 1 14 16
M  V30 16 1 16 17
M  V30 17 1 17 18
M  V30 18 1 18 19
M  V30 19 1 17 20
M  V30 20 1 20 21
M  V30 21 1 21 22
M  V30 22 1 22 23
M  V30 23 1 23 24
M  V30 24 1 13 8
M  V30 25 1 24 17
M  V30 26 1 1 25
M  V30 27 1 1 26
M  V30 28 1 2 27
M  V30 29 1 2 28
M  V30 30 1 3 29
M  V30 31 1 3 30
M  V30 32 1 6 31
M  V30 33 1 7 32
M  V30 34 1 7 33
M  V30 35 1 8 34
M  V30 36 1 9 35
M  V30 37 1 9 36
M  V30 38 1 10 37
M  V30 39 1 10 38
M  V30 40 1 11 39
M  V30 41 1 11 40
M  V30 42 1 12 41
M  V30 43 1 12 42
M  V30 44 1 16 43
M  V30 45 1 16 44
M  V30 46 1 18 45
M  V30 47 1 18 46
M  V30 48 1 19 47
M  V30 49 1 19 48
M  V30 50 1 20 49
M  V30 51 1 20 50
M  V30 52 1 21 51
M  V30 53 1 21 52
M  V30 54 1 22 53
M  V30 55 1 22 54
M  V30 56 1 23 55
M  V30 57 1 23 56
M  V30 58 1 24 57
M  V30 59 1 24 58
M  V30 END BOND
M  V30 END CTAB
M  END
