
     RDKit          3D

  0  0  0  0  0  0  0  0  0  0999 V3000
M  V30 BEGIN CTAB
M  V30 COUNTS 25 26 0 0 0
M  V30 BEGIN ATOM
M  V30 1 N 4.80107 0.294499 0.649741 0
M  V30 2 N 4.03425 -0.429247 -0.313478 0
M  V30 3 C 2.6224 -0.283553 -0.281258 0
M  V30 4 N 1.85683 -1.1594 0.345285 0
M  V30 5 C 0.537715 -1.08967 0.427656 0
M  V30 6 N -0.104497 -2.13129 1.14847 0
M  V30 7 C -0.169327 -0.0273607 -0.173825 0
M  V30 8 C 0.633185 0.87093 -0.817006 0
M  V30 9 N 1.98831 0.747596 -0.870309 0
M  V30 10 S -0.473413 2.01528 -1.42587 0
M  V30 11 C -1.92645 1.32489 -0.849371 0
M  V30 12 C -1.4904 0.202005 -0.187924 0
M  V30 13 C -2.52914 -0.691418 0.471446 0
M  V30 14 C -3.3412 1.83285 -1.02707 0
M  V30 15 H 4.45884 1.3045 0.652695 0
M  V30 16 H 4.61203 -0.0421348 1.61152 0
M  V30 17 H 4.57533 -1.01298 -0.964884 0
M  V30 18 H -0.0983158 -3.13525 0.852375 0
M  V30 19 H -0.608035 -1.86251 2.02784 0
M  V30 20 H -3.55073 -0.4407 0.125154 0
M  V30 21 H -2.38688 -1.75281 0.146681 0
M  V30 22 H -2.54348 -0.552938 1.56678 0
M  V30 23 H -3.74474 1.53897 -1.99489 0
M  V30 24 H -3.22403 2.95995 -0.953544 0
M  V30 25 H -3.92931 1.51981 -0.166209 0
M  V30 END ATOM
M  V30 BEGIN BOND
M  V30 1 1 1 2
M  V30 2 1 2 3
M  V30 3 2 3 4
M  V30 4 1 4 5
M  V30 5 1 5 6
M  V30 6 2 5 7
M  V30 7 1 7 8
M  V30 8 2 8 9
M  V30 9 1 8 10
M  V30 10 1 10 11
M  V30 11 2 11 12
M  V30 12 1 12 13
M  V30 13 1 11 14
M  V30 14 1 9 3
M  V30 15 1 12 7
M  V30 16 1 1 15
M  V30 17 1 1 16
M  V30 18 1 2 17
M  V30 19 1 6 18
M  V30 20 1 6 19
M  V30 21 1 13 20
M  V30 22 1 13 21
M  V30 23 1 13 22
M  V30 24 1 14 23
M  V30 25 1 14 24
M  V30 26 1 14 25
M  V30 END BOND
M  V30 END CTAB
M  END
