
     RDKit          3D

  0  0  0  0  0  0  0  0  0  0999 V3000
M  V30 BEGIN CTAB
M  V30 COUNTS 145 144 0 0 0
M  V30 BEGIN ATOM
M  V30 1 N -21.6599 -1.15551 -0.534393 0
M  V30 2 C -21.8199 -0.0429767 0.370045 0
M  V30 3 C -21.3766 1.24065 -0.279932 0
M  V30 4 O -20.0527 1.24718 -0.670152 0
M  V30 5 C -19.1981 1.07966 0.411515 0
M  V30 6 C -17.7691 1.13969 -0.0550874 0
M  V30 7 O -17.4094 0.180869 -0.983169 0
M  V30 8 C -17.5267 -1.07263 -0.402885 0
M  V30 9 C -17.0802 -2.20689 -1.26551 0
M  V30 10 O -15.8641 -2.28507 -1.74095 0
M  V30 11 C -14.687 -2.31005 -1.16539 0
M  V30 12 C -14.3326 -1.0168 -0.444684 0
M  V30 13 O -13.0571 -1.1612 0.109504 0
M  V30 14 C -12.684 -0.0254265 0.810689 0
M  V30 15 C -12.6289 1.15793 -0.11357 0
M  V30 16 O -12.267 2.33804 0.457239 0
M  V30 17 C -11.0873 2.51542 1.04809 0
M  V30 18 C -9.83333 2.38404 0.189691 0
M  V30 19 O -9.77059 1.12819 -0.332248 0
M  V30 20 C -8.70913 0.844664 -1.1396 0
M  V30 21 C -7.42116 1.06332 -0.433134 0
M  V30 22 O -6.27222 0.79783 -1.09598 0
M  V30 23 C -6.00233 1.40431 -2.2757 0
M  V30 24 C -4.60673 1.02015 -2.72516 0
M  V30 25 O -3.59425 1.36871 -1.91002 0
M  V30 26 C -3.49927 0.940905 -0.646329 0
M  V30 27 C -3.33073 -0.498079 -0.358684 0
M  V30 28 O -2.22445 -1.14339 -0.834929 0
M  V30 29 C -1.04248 -0.591335 -0.371846 0
M  V30 30 C 0.114 -1.4347 -0.774354 0
M  V30 31 O 0.368089 -1.66778 -2.06081 0
M  V30 32 C 0.635773 -0.702814 -2.95047 0
M  V30 33 C 1.81148 0.195511 -2.64507 0
M  V30 34 O 2.95446 -0.579004 -2.5319 0
M  V30 35 C 4.10595 0.132773 -2.33414 0
M  V30 36 C 4.12108 1.06777 -1.18173 0
M  V30 37 O 3.92995 0.580788 0.0603255 0
M  V30 38 C 4.81161 -0.333611 0.561609 0
M  V30 39 C 6.2257 0.144448 0.619181 0
M  V30 40 O 7.09175 -0.80176 1.1413 0
M  V30 41 C 6.83894 -1.17381 2.43843 0
M  V30 42 C 7.84846 -2.19153 2.90068 0
M  V30 43 O 9.11539 -1.62079 2.81647 0
M  V30 44 C 10.0667 -2.49961 3.26954 0
M  V30 45 C 11.4309 -1.93186 3.18 0
M  V30 46 O 11.8145 -1.62246 1.93144 0
M  V30 47 C 11.2133 -0.738097 1.14403 0
M  V30 48 C 11.9879 -0.66565 -0.182045 0
M  V30 49 O 13.1945 -0.301756 -0.240038 0
M  V30 50 C 14.4036 -0.437472 0.123367 0
M  V30 51 C 14.7599 -0.0924569 1.55078 0
M  V30 52 O 16.164 -0.314885 1.72836 0
M  V30 53 C 16.4641 0.0685904 3.02338 0
M  V30 54 C 17.8704 -0.124821 3.44137 0
M  V30 55 O 18.8562 0.509799 2.76283 0
M  V30 56 C 18.9852 0.206137 1.44204 0
M  V30 57 C 20.1985 0.952115 0.846395 0
M  V30 58 O 20.2698 0.588635 -0.516287 0
M  V30 59 C 21.3396 1.21269 -1.15726 0
M  V30 60 C 21.3731 0.764845 -2.60719 0
M  V30 61 N 20.1403 1.11853 -3.30082 0
M  V30 62 H -21.2476 -1.9538 -0.0475621 0
M  V30 63 H -22.5388 -1.42383 -0.990904 0
M  V30 64 H -21.3488 -0.208236 1.35106 0
M  V30 65 H -22.9166 0.0522263 0.561927 0
M  V30 66 H -21.5415 2.08247 0.454371 0
M  V30 67 H -22.0077 1.4188 -1.18685 0
M  V30 68 H -19.4033 0.115704 0.885768 0
M  V30 69 H -19.3928 1.8803 1.17213 0
M  V30 70 H -17.1001 1.08354 0.850747 0
M  V30 71 H -17.5783 2.17221 -0.461952 0
M  V30 72 H -17.2256 -1.11814 0.651554 0
M  V30 73 H -18.678 -1.23823 -0.334675 0
M  V30 74 H -17.3886 -3.15017 -0.686072 0
M  V30 75 H -17.8101 -2.2179 -2.14389 0
M  V30 76 H -14.5225 -3.18855 -0.450491 0
M  V30 77 H -13.8528 -2.49768 -1.92464 0
M  V30 78 H -15.0386 -0.84222 0.360322 0
M  V30 79 H -14.4145 -0.227663 -1.20434 0
M  V30 80 H -13.4227 0.134061 1.64135 0
M  V30 81 H -11.675 -0.251664 1.22953 0
M  V30 82 H -12.0752 0.858588 -1.02452 0
M  V30 83 H -13.7044 1.34155 -0.46535 0
M  V30 84 H -11.0631 3.56209 1.47241 0
M  V30 85 H -10.9859 1.86581 1.9584 0
M  V30 86 H -9.81498 3.2046 -0.583624 0
M  V30 87 H -8.94643 2.63801 0.850433 0
M  V30 88 H -8.80246 1.43831 -2.07886 0
M  V30 89 H -8.74522 -0.226093 -1.44142 0
M  V30 90 H -7.44049 0.376615 0.46982 0
M  V30 91 H -7.30905 2.08573 0.0231263 0
M  V30 92 H -6.18623 2.49685 -2.33166 0
M  V30 93 H -6.70122 0.9638 -3.05332 0
M  V30 94 H -4.43652 1.51933 -3.72571 0
M  V30 95 H -4.64759 -0.0753724 -2.98683 0
M  V30 96 H -2.56286 1.44842 -0.216198 0
M  V30 97 H -4.282 1.34211 0.0545933 0
M  V30 98 H -3.35792 -0.721228 0.755057 0
M  V30 99 H -4.21494 -1.11593 -0.723524 0
M  V30 100 H -1.09108 -0.601777 0.744274 0
M  V30 101 H -0.914488 0.478369 -0.661716 0
M  V30 102 H 0.992469 -1.06433 -0.175878 0
M  V30 103 H -0.0775689 -2.45262 -0.288211 0
M  V30 104 H 0.925222 -1.2192 -3.92028 0
M  V30 105 H -0.260778 -0.0927858 -3.27254 0
M  V30 106 H 1.99285 0.916145 -3.4932 0
M  V30 107 H 1.56251 0.804411 -1.7814 0
M  V30 108 H 4.27227 0.755771 -3.26498 0
M  V30 109 H 4.93115 -0.639727 -2.24944 0
M  V30 110 H 5.02771 1.75289 -1.22057 0
M  V30 111 H 3.27856 1.80769 -1.37289 0
M  V30 112 H 4.47744 -0.511694 1.62918 0
M  V30 113 H 4.7286 -1.3517 0.088294 0
M  V30 114 H 6.61486 0.342952 -0.425189 0
M  V30 115 H 6.27983 1.08484 1.21 0
M  V30 116 H 7.02022 -0.256772 3.07993 0
M  V30 117 H 5.80916 -1.49702 2.65133 0
M  V30 118 H 7.62285 -2.54451 3.93614 0
M  V30 119 H 7.86572 -3.10825 2.249 0
M  V30 120 H 9.81953 -2.733 4.33237 0
M  V30 121 H 9.95147 -3.43419 2.64687 0
M  V30 122 H 12.1276 -2.73682 3.59777 0
M  V30 123 H 11.4833 -1.04344 3.8859 0
M  V30 124 H 10.1558 -0.94388 0.832809 0
M  V30 125 H 11.2253 0.31334 1.5339 0
M  V30 126 H 11.3226 0.045306 -0.80955 0
M  V30 127 H 11.8211 -1.70268 -0.68809 0
M  V30 128 H 14.8743 -1.47886 -0.108089 0
M  V30 129 H 15.1031 0.208635 -0.518158 0
M  V30 130 H 14.5099 0.944973 1.76638 0
M  V30 131 H 14.2836 -0.722335 2.31931 0
M  V30 132 H 16.1509 1.12938 3.21425 0
M  V30 133 H 15.7907 -0.550042 3.68757 0
M  V30 134 H 17.9247 0.196772 4.52677 0
M  V30 135 H 18.0939 -1.24321 3.45823 0
M  V30 136 H 19.1198 -0.862646 1.20706 0
M  V30 137 H 18.1049 0.657565 0.887162 0
M  V30 138 H 19.9667 2.03011 0.873521 0
M  V30 139 H 21.1137 0.696114 1.37939 0
M  V30 140 H 22.261 0.826745 -0.662479 0
M  V30 141 H 21.2695 2.3141 -1.08761 0
M  V30 142 H 22.2072 1.26077 -3.14053 0
M  V30 143 H 21.5005 -0.339204 -2.68226 0
M  V30 144 H 20.0744 0.461073 -4.10621 0
M  V30 145 H 19.3693 0.939181 -2.60521 0
M  V30 END ATOM
M  V30 BEGIN BOND
M  V30 1 1 1 2
M  V30 2 1 2 3
M  V30 3 1 3 4
M  V30 4 1 4 5
M  V30 5 1 5 6
M  V30 6 1 6 7
M  V30 7 1 7 8
M  V30 8 1 8 9
M  V30 9 1 9 10
M  V30 10 1 10 11
M  V30 11 1 11 12
M  V30 12 1 12 13
M  V30 13 1 13 14
M  V30 14 1 14 15
M  V30 15 1 15 16
M  V30 16 1 16 17
M  V30 17 1 17 18
M  V30 18 1 18 19
M  V30 19 1 19 20
M  V30 20 1 20 21
M  V30 21 1 21 22
M  V30 22 1 22 23
M  V30 23 1 23 24
M  V30 24 1 24 25
M  V30 25 1 25 26
M  V30 26 1 26 27
M  V30 27 1 27 28
M  V30 28 1 28 29
M  V30 29 1 29 30
M  V30 30 1 30 31
M  V30 31 1 31 32
M  V30 32 1 32 33
M  V30 33 1 33 34
M  V30 34 1 34 35
M  V30 35 1 35 36
M  V30 36 1 36 37
M  V30 37 1 37 38
M  V30 38 1 38 39
M  V30 39 1 39 40
M  V30 40 1 40 41
M  V30 41 1 41 42
M  V30 42 1 42 43
M  V30 43 1 43 44
M  V30 44 1 44 45
M  V30 45 1 45 46
M  V30 46 1 46 47
M  V30 47 1 47 48
M  V30 48 1 48 49
M  V30 49 1 49 50
M  V30 50 1 50 51
M  V30 51 1 51 52
M  V30 52 1 52 53
M  V30 53 1 53 54
M  V30 54 1 54 55
M  V30 55 1 55 56
M  V30 56 1 56 57
M  V30 57 1 57 58
M  V30 58 1 58 59
M  V30 59 1 59 60
M  V30 60 1 60 61
M  V30 61 1 1 62
M  V30 62 1 1 63
M  V30 63 1 2 64
M  V30 64 1 2 65
M  V30 65 1 3 66
M  V30 66 1 3 67
M  V30 67 1 5 68
M  V30 68 1 5 69
M  V30 69 1 6 70
M  V30 70 1 6 71
M  V30 71 1 8 72
M  V30 72 1 8 73
M  V30 73 1 9 74
M  V30 74 1 9 75
M  V30 75 1 11 76
M  V30 76 1 11 77
M  V30 77 1 12 78
M  V30 78 1 12 79
M  V30 79 1 14 80
M  V30 80 1 14 81
M  V30 81 1 15 82
M  V30 82 1 15 83
M  V30 83 1 17 84
M  V30 84 1 17 85
M  V30 85 1 18 86
M  V30 86 1 18 87
M  V30 87 1 20 88
M  V30 88 1 20 89
M  V30 89 1 21 90
M  V30 90 1 21 91
M  V30 91 1 23 92
M  V30 92 1 23 93
M  V30 93 1 24 94
M  V30 94 1 24 95
M  V30 95 1 26 96
M  V30 96 1 26 97
M  V30 97 1 27 98
M  V30 98 1 27 99
M  V30 99 1 29 100
M  V30 100 1 29 101
M  V30 101 1 30 102
M  V30 102 1 30 103
M  V30 103 1 32 104
M  V30 104 1 32 105
M  V30 105 1 33 106
M  V30 106 1 33 107
M  V30 107 1 35 108
M  V30 108 1 35 109
M  V30 109 1 36 110
M  V30 110 1 36 111
M  V30 111 1 38 112
M  V30 112 1 38 113
M  V30 113 1 39 114
M  V30 114 1 39 115
M  V30 115 1 41 116
M  V30 116 1 41 117
M  V30 117 1 42 118
M  V30 118 1 42 119
M  V30 119 1 44 120
M  V30 120 1 44 121
M  V30 121 1 45 122
M  V30 122 1 45 123
M  V30 123 1 47 124
M  V30 124 1 47 125
M  V30 125 1 48 126
M  V30 126 1 48 127
M  V30 127 1 50 128
M  V30 128 1 50 129
M  V30 129 1 51 130
M  V30 130 1 51 131
M  V30 131 1 53 132
M  V30 132 1 53 133
M  V30 133 1 54 134
M  V30 134 1 54 135
M  V30 135 1 56 136
M  V30 136 1 56 137
M  V30 137 1 57 138
M  V30 138 1 57 139
M  V30 139 1 59 140
M  V30 140 1 59 141
M  V30 141 1 60 142
M  V30 142 1 60 143
M  V30 143 1 61 144
M  V30 144 1 61 145
M  V30 END BOND
M  V30 END CTAB
M  END
