
     RDKit          3D

  0  0  0  0  0  0  0  0  0  0999 V3000
M  V30 BEGIN CTAB
M  V30 COUNTS 43 44 0 0 0
M  V30 BEGIN ATOM
M  V30 1 N -3.93931 -1.14224 1.20516 0
M  V30 2 C -2.99306 -0.167222 1.716 0
M  V30 3 C -1.85726 0.0260908 0.73856 0
M  V30 4 C -2.36 0.520095 -0.603266 0
M  V30 5 C -1.30176 0.166475 -1.63447 0
M  V30 6 C -2.61158 1.99011 -0.637798 0
M  V30 7 C -1.5494 2.83373 -0.0181165 0
M  V30 8 C -1.05514 2.24543 1.30966 0
M  V30 9 N -0.833184 0.866404 1.181 0
M  V30 10 S 0.509235 0.187988 1.93144 0
M  V30 11 O 0.0569716 -0.578808 3.14862 0
M  V30 12 O 1.45663 1.24429 2.41566 0
M  V30 13 C 1.30419 -0.887234 0.783653 0
M  V30 14 C 0.968538 -2.22859 0.685242 0
M  V30 15 C 1.58382 -3.07794 -0.209979 0
M  V30 16 C 2.56334 -2.62253 -1.04736 0
M  V30 17 C 2.9162 -1.29168 -0.969546 0
M  V30 18 C 2.29421 -0.426371 -0.0624786 0
M  V30 19 S 4.17001 -0.671793 -2.02982 0
M  V30 20 O 4.13285 -1.39835 -3.32207 0
M  V30 21 O 3.83877 0.776655 -2.28484 0
M  V30 22 N 5.70698 -0.836297 -1.26148 0
M  V30 23 H -4.31776 -1.7638 1.93316 0
M  V30 24 H -3.44898 -1.7346 0.494564 0
M  V30 25 H -3.5356 0.788863 1.89839 0
M  V30 26 H -2.59665 -0.532268 2.66621 0
M  V30 27 H -1.43403 -0.992527 0.550841 0
M  V30 28 H -3.30121 0.00142896 -0.884427 0
M  V30 29 H -0.394904 0.767431 -1.37405 0
M  V30 30 H -1.04648 -0.905358 -1.63473 0
M  V30 31 H -1.61272 0.518454 -2.65722 0
M  V30 32 H -2.66429 2.28419 -1.72715 0
M  V30 33 H -3.61283 2.27736 -0.232325 0
M  V30 34 H -1.9701 3.82706 0.242608 0
M  V30 35 H -0.688786 3.01457 -0.703292 0
M  V30 36 H -1.73991 2.55502 2.12241 0
M  V30 37 H -0.0893552 2.75491 1.51138 0
M  V30 38 H 0.17771 -2.56862 1.37066 0
M  V30 39 H 1.27599 -4.11002 -0.235925 0
M  V30 40 H 3.07985 -3.25114 -1.77172 0
M  V30 41 H 2.58936 0.618606 -0.0193497 0
M  V30 42 H 5.89505 -0.0760741 -0.572657 0
M  V30 43 H 6.43461 -0.85928 -2.01114 0
M  V30 END ATOM
M  V30 BEGIN BOND
M  V30 1 1 1 2
M  V30 2 1 2 3
M  V30 3 1 3 4
M  V30 4 1 4 5
M  V30 5 1 4 6
M  V30 6 1 6 7
M  V30 7 1 7 8
M  V30 8 1 8 9
M  V30 9 1 9 10
M  V30 10 2 10 11
M  V30 11 2 10 12
M  V30 12 1 10 13
M  V30 13 2 13 14
M  V30 14 1 14 15
M  V30 15 2 15 16
M  V30 16 1 16 17
M  V30 17 2 17 18
M  V30 18 1 17 19
M  V30 19 2 19 20
M  V30 20 2 19 21
M  V30 21 1 19 22
M  V30 22 1 9 3
M  V30 23 1 18 13
M  V30 24 1 1 23
M  V30 25 1 1 24
M  V30 26 1 2 25
M  V30 27 1 2 26
M  V30 28 1 3 27
M  V30 29 1 4 28
M  V30 30 1 5 29
M  V30 31 1 5 30
M  V30 32 1 5 31
M  V30 33 1 6 32
M  V30 34 1 6 33
M  V30 35 1 7 34
M  V30 36 1 7 35
M  V30 37 1 8 36
M  V30 38 1 8 37
M  V30 39 1 14 38
M  V30 40 1 15 39
M  V30 41 1 16 40
M  V30 42 1 18 41
M  V30 43 1 22 42
M  V30 44 1 22 43
M  V30 END BOND
M  V30 END CTAB
M  END
