
     RDKit          3D

  0  0  0  0  0  0  0  0  0  0999 V3000
M  V30 BEGIN CTAB
M  V30 COUNTS 36 37 0 0 0
M  V30 BEGIN ATOM
M  V30 1 N -3.90181 2.14191 1.18114 0
M  V30 2 C -2.9505 1.57593 0.265023 0
M  V30 3 C -1.9872 0.652926 0.968715 0
M  V30 4 N -1.01178 0.051582 0.124314 0
M  V30 5 C -1.46736 -0.891349 -0.812273 0
M  V30 6 C -1.24386 -2.32806 -0.49553 0
M  V30 7 C 0.236256 -2.49098 -0.177891 0
M  V30 8 C 0.449387 -1.67882 1.08113 0
M  V30 9 C 0.205321 -0.223319 0.809571 0 CFG=1
M  V30 10 C 1.32692 0.434924 0.0936217 0
M  V30 11 C 1.21107 1.73021 -0.361661 0
M  V30 12 C 2.23869 2.37574 -1.03139 0
M  V30 13 N 3.38425 1.72516 -1.24666 0
M  V30 14 C 3.55415 0.471931 -0.830021 0
M  V30 15 C 2.52675 -0.195982 -0.151549 0
M  V30 16 N 4.77619 -0.236516 -1.05477 0
M  V30 17 H -4.87841 2.01447 0.949096 0
M  V30 18 H -3.7093 3.08833 1.46497 0
M  V30 19 H -2.44075 2.42328 -0.226536 0
M  V30 20 H -3.52207 0.969934 -0.466286 0
M  V30 21 H -2.49839 -0.142603 1.53081 0
M  V30 22 H -1.4368 1.2568 1.74631 0
M  V30 23 H -2.57768 -0.760241 -0.953407 0
M  V30 24 H -1.04124 -0.69567 -1.8366 0
M  V30 25 H -1.81962 -2.63833 0.40555 0
M  V30 26 H -1.54649 -2.93641 -1.36952 0
M  V30 27 H 0.504258 -3.55413 -0.0274618 0
M  V30 28 H 0.797589 -2.034 -1.02329 0
M  V30 29 H 1.40139 -1.85797 1.56399 0
M  V30 30 H -0.353075 -2.01809 1.79285 0
M  V30 31 H 0.146756 0.280071 1.80677 0
M  V30 32 H 0.302026 2.27796 -0.201762 0
M  V30 33 H 2.15153 3.39865 -1.3914 0
M  V30 34 H 2.70499 -1.19894 0.165398 0
M  V30 35 H 5.43213 0.0825261 -1.80453 0
M  V30 36 H 5.03669 -1.07091 -0.486714 0
M  V30 END ATOM
M  V30 BEGIN BOND
M  V30 1 1 1 2
M  V30 2 1 2 3
M  V30 3 1 3 4
M  V30 4 1 4 5
M  V30 5 1 5 6
M  V30 6 1 6 7
M  V30 7 1 7 8
M  V30 8 1 8 9
M  V30 9 1 9 10
M  V30 10 2 10 11
M  V30 11 1 11 12
M  V30 12 2 12 13
M  V30 13 1 13 14
M  V30 14 2 14 15
M  V30 15 1 14 16
M  V30 16 1 9 4
M  V30 17 1 15 10
M  V30 18 1 1 17
M  V30 19 1 1 18
M  V30 20 1 2 19
M  V30 21 1 2 20
M  V30 22 1 3 21
M  V30 23 1 3 22
M  V30 24 1 5 23
M  V30 25 1 5 24
M  V30 26 1 6 25
M  V30 27 1 6 26
M  V30 28 1 7 27
M  V30 29 1 7 28
M  V30 30 1 8 29
M  V30 31 1 8 30
M  V30 32 1 9 31 CFG=1
M  V30 33 1 11 32
M  V30 34 1 12 33
M  V30 35 1 15 34
M  V30 36 1 16 35
M  V30 37 1 16 36
M  V30 END BOND
M  V30 END CTAB
M  END
