
     RDKit          3D

  0  0  0  0  0  0  0  0  0  0999 V3000
M  V30 BEGIN CTAB
M  V30 COUNTS 31 33 0 0 0
M  V30 BEGIN ATOM
M  V30 1 N -4.90283 -2.15721 0.088305 0
M  V30 2 C -3.91395 -1.14705 0.0328352 0
M  V30 3 C -4.27111 0.204009 -0.0224817 0
M  V30 4 C -3.31352 1.20993 -0.0774509 0
M  V30 5 N -3.7535 2.55496 -0.131574 0
M  V30 6 C -1.98591 0.855509 -0.076831 0
M  V30 7 C -1.57862 -0.458429 -0.0237035 0
M  V30 8 C -2.56329 -1.42113 0.0296653 0
M  V30 9 C -0.157587 -0.823661 -0.0236657 0
M  V30 10 N 0.383852 -2.03929 0.0236694 0
M  V30 11 N 1.70366 -1.96956 0.00571669 0
M  V30 12 C 2.00362 -0.661366 -0.0551747 0
M  V30 13 N 0.847078 0.058764 -0.0737875 0
M  V30 14 C 3.32918 -0.040313 -0.0974442 0
M  V30 15 C 3.47791 1.32666 -0.159207 0
M  V30 16 C 4.72491 1.92904 -0.199761 0
M  V30 17 C 5.81617 1.11632 -0.176358 0
M  V30 18 N 5.69715 -0.233326 -0.115693 0
M  V30 19 C 4.46922 -0.816074 -0.0762175 0
M  V30 20 H -5.34449 -2.3821 0.989946 0
M  V30 21 H -5.1637 -2.65056 -0.776176 0
M  V30 22 H -5.32612 0.430955 -0.020554 0
M  V30 23 H -4.60285 2.8491 0.371599 0
M  V30 24 H -3.2153 3.2412 -0.68074 0
M  V30 25 H -1.21926 1.64395 -0.120102 0
M  V30 26 H -2.23572 -2.47162 0.0721207 0
M  V30 27 H 2.42801 -2.72013 0.0305472 0
M  V30 28 H 2.60156 1.95003 -0.176715 0
M  V30 29 H 4.87181 2.99867 -0.248439 0
M  V30 30 H 6.82182 1.51762 -0.205341 0
M  V30 31 H 4.3718 -1.89491 -0.0276974 0
M  V30 END ATOM
M  V30 BEGIN BOND
M  V30 1 1 1 2
M  V30 2 2 2 3
M  V30 3 1 3 4
M  V30 4 1 4 5
M  V30 5 2 4 6
M  V30 6 1 6 7
M  V30 7 2 7 8
M  V30 8 1 7 9
M  V30 9 2 9 10
M  V30 10 1 10 11
M  V30 11 1 11 12
M  V30 12 2 12 13
M  V30 13 1 12 14
M  V30 14 2 14 15
M  V30 15 1 15 16
M  V30 16 2 16 17
M  V30 17 1 17 18
M  V30 18 2 18 19
M  V30 19 1 8 2
M  V30 20 1 13 9
M  V30 21 1 19 14
M  V30 22 1 1 20
M  V30 23 1 1 21
M  V30 24 1 3 22
M  V30 25 1 5 23
M  V30 26 1 5 24
M  V30 27 1 6 25
M  V30 28 1 8 26
M  V30 29 1 11 27
M  V30 30 1 15 28
M  V30 31 1 16 29
M  V30 32 1 17 30
M  V30 33 1 19 31
M  V30 END BOND
M  V30 END CTAB
M  END
