
     RDKit          3D

  0  0  0  0  0  0  0  0  0  0999 V3000
M  V30 BEGIN CTAB
M  V30 COUNTS 27 27 0 0 0
M  V30 BEGIN ATOM
M  V30 1 N 4.78709 1.10738 0.13123 0
M  V30 2 S 4.11374 -0.455596 0.269296 0
M  V30 3 O 4.2628 -1.25382 -1.01661 0
M  V30 4 O 4.80322 -1.16147 1.40188 0
M  V30 5 N 2.41548 -0.301564 0.548011 0
M  V30 6 C 1.71303 -0.281415 -0.723353 0
M  V30 7 C 0.252826 -0.145462 -0.373614 0
M  V30 8 C -0.359131 1.05896 -0.251571 0
M  V30 9 C -1.6975 1.11419 0.0708055 0
M  V30 10 C -2.42441 -0.0525629 0.271637 0
M  V30 11 C -1.81015 -1.28576 0.149664 0
M  V30 12 C -0.470214 -1.29538 -0.174071 0
M  V30 13 S -4.12371 0.0602308 0.679946 0
M  V30 14 O -4.32201 1.38671 1.38624 0
M  V30 15 O -4.55247 -1.05409 1.56745 0
M  V30 16 N -5.02281 0.0599909 -0.790651 0
M  V30 17 H 4.32539 1.71663 -0.561373 0
M  V30 18 H 5.81486 1.07393 0.0454826 0
M  V30 19 H 2.20654 0.56258 1.07466 0
M  V30 20 H 1.82935 -1.243 -1.26032 0
M  V30 21 H 2.03298 0.56417 -1.36284 0
M  V30 22 H 0.208778 1.96777 -0.40842 0
M  V30 23 H -2.15715 2.08694 0.161 0
M  V30 24 H -2.39264 -2.18302 0.309796 0
M  V30 25 H -0.0272542 -2.29059 -0.259744 0
M  V30 26 H -4.61037 -0.706366 -1.39495 0
M  V30 27 H -4.79625 0.950615 -1.28437 0
M  V30 END ATOM
M  V30 BEGIN BOND
M  V30 1 1 1 2
M  V30 2 2 2 3
M  V30 3 2 2 4
M  V30 4 1 2 5
M  V30 5 1 5 6
M  V30 6 1 6 7
M  V30 7 2 7 8
M  V30 8 1 8 9
M  V30 9 2 9 10
M  V30 10 1 10 11
M  V30 11 2 11 12
M  V30 12 1 10 13
M  V30 13 2 13 14
M  V30 14 2 13 15
M  V30 15 1 13 16
M  V30 16 1 12 7
M  V30 17 1 1 17
M  V30 18 1 1 18
M  V30 19 1 5 19
M  V30 20 1 6 20
M  V30 21 1 6 21
M  V30 22 1 8 22
M  V30 23 1 9 23
M  V30 24 1 11 24
M  V30 25 1 12 25
M  V30 26 1 16 26
M  V30 27 1 16 27
M  V30 END BOND
M  V30 END CTAB
M  END
