
     RDKit          3D

  0  0  0  0  0  0  0  0  0  0999 V3000
M  V30 BEGIN CTAB
M  V30 COUNTS 47 48 0 0 0
M  V30 BEGIN ATOM
M  V30 1 N -4.57361 -0.642635 0.430791 0
M  V30 2 C -3.70841 0.445187 0.849818 0
M  V30 3 C -2.66264 -0.0763873 1.73711 0
M  V30 4 C -1.38835 -0.556606 1.09436 0
M  V30 5 C -0.424703 -0.689361 2.30036 0
M  V30 6 C -1.51677 -1.9397 0.537532 0
M  V30 7 N -0.938239 0.436019 0.181899 0
M  V30 8 C -1.7427 1.48985 -0.341576 0
M  V30 9 C -3.24261 1.27959 -0.27098 0
M  V30 10 C -1.4126 1.8805 -1.79741 0
M  V30 11 C -1.45837 2.76387 0.466707 0
M  V30 12 C 0.403269 0.347539 -0.276441 0
M  V30 13 O 0.889661 1.31564 -0.995699 0
M  V30 14 N 1.33654 -0.672176 -0.0718659 0
M  V30 15 C 2.66996 -0.732973 -0.52072 0
M  V30 16 C 3.48661 0.322365 -0.759754 0
M  V30 17 C 4.78513 0.186115 -1.24137 0
M  V30 18 C 5.28 -1.05401 -1.49025 0
M  V30 19 C 4.49851 -2.15989 -1.26559 0
M  V30 20 C 3.21503 -1.99994 -0.788685 0
M  V30 21 N 6.60648 -1.26179 -1.98665 0
M  V30 22 H -5.10493 -0.981649 1.2863 0
M  V30 23 H -5.32376 -0.185834 -0.169301 0
M  V30 24 H -4.38518 1.07712 1.50977 0
M  V30 25 H -2.35995 0.690207 2.51091 0
M  V30 26 H -3.05364 -0.933499 2.34277 0
M  V30 27 H 0.424359 0.0191467 2.20023 0
M  V30 28 H -0.157146 -1.72831 2.49725 0
M  V30 29 H -0.954517 -0.338485 3.20986 0
M  V30 30 H -2.5819 -2.22886 0.666426 0
M  V30 31 H -1.31975 -2.00617 -0.546678 0
M  V30 32 H -0.955794 -2.64655 1.14262 0
M  V30 33 H -3.76613 2.25823 -0.291883 0
M  V30 34 H -3.51756 0.78086 -1.22996 0
M  V30 35 H -0.753082 2.7573 -1.87113 0
M  V30 36 H -0.999894 1.07107 -2.3811 0
M  V30 37 H -2.37738 2.27876 -2.2718 0
M  V30 38 H -0.78666 3.44728 -0.0634063 0
M  V30 39 H -0.943707 2.50112 1.42843 0
M  V30 40 H -2.36868 3.29702 0.738176 0
M  V30 41 H 1.03547 -1.52314 0.468791 0
M  V30 42 H 3.10805 1.33388 -0.540706 0
M  V30 43 H 5.36865 1.05814 -1.40647 0
M  V30 44 H 4.91728 -3.14791 -1.47232 0
M  V30 45 H 2.6036 -2.89101 -0.61429 0
M  V30 46 H 6.83148 -0.810961 -2.89668 0
M  V30 47 H 7.31858 -1.82896 -1.47905 0
M  V30 END ATOM
M  V30 BEGIN BOND
M  V30 1 1 1 2
M  V30 2 1 2 3
M  V30 3 1 3 4
M  V30 4 1 4 5
M  V30 5 1 4 6
M  V30 6 1 4 7
M  V30 7 1 7 8
M  V30 8 1 8 9
M  V30 9 1 8 10
M  V30 10 1 8 11
M  V30 11 1 7 12
M  V30 12 2 12 13
M  V30 13 1 12 14
M  V30 14 1 14 15
M  V30 15 2 15 16
M  V30 16 1 16 17
M  V30 17 2 17 18
M  V30 18 1 18 19
M  V30 19 2 19 20
M  V30 20 1 18 21
M  V30 21 1 9 2
M  V30 22 1 20 15
M  V30 23 1 1 22
M  V30 24 1 1 23
M  V30 25 1 2 24
M  V30 26 1 3 25
M  V30 27 1 3 26
M  V30 28 1 5 27
M  V30 29 1 5 28
M  V30 30 1 5 29
M  V30 31 1 6 30
M  V30 32 1 6 31
M  V30 33 1 6 32
M  V30 34 1 9 33
M  V30 35 1 9 34
M  V30 36 1 10 35
M  V30 37 1 10 36
M  V30 38 1 10 37
M  V30 39 1 11 38
M  V30 40 1 11 39
M  V30 41 1 11 40
M  V30 42 1 14 41
M  V30 43 1 16 42
M  V30 44 1 17 43
M  V30 45 1 19 44
M  V30 46 1 20 45
M  V30 47 1 21 46
M  V30 48 1 21 47
M  V30 END BOND
M  V30 END CTAB
M  END
