
     RDKit          3D

  0  0  0  0  0  0  0  0  0  0999 V3000
M  V30 BEGIN CTAB
M  V30 COUNTS 137 141 0 0 0
M  V30 BEGIN ATOM
M  V30 1 C -6.62075 -0.135434 -2.34871 0 CFG=1
M  V30 2 C -5.59818 -0.673629 -3.29271 0
M  V30 3 C -4.58973 0.482206 -3.38749 0
M  V30 4 C -4.96741 1.47962 -2.37036 0 CFG=2
M  V30 5 C -3.86511 1.99355 -1.45238 0 CFG=2
M  V30 6 C -3.13406 0.911598 -0.790213 0
M  V30 7 O -3.5444 -0.287691 -0.961408 0
M  V30 8 O -2.02761 1.02411 0.0190114 0
M  V30 9 C -1.40559 -0.101892 0.619114 0
M  V30 10 C -2.24314 -0.840597 1.587 0
M  V30 11 C -1.5168 -2.00598 2.18966 0
M  V30 12 C -1.10264 -2.97749 1.14125 0
M  V30 13 C -0.469693 -4.21994 1.71203 0
M  V30 14 C 0.739551 -4.05922 2.51869 0
M  V30 15 C 1.95725 -3.47249 1.81344 0
M  V30 16 C 2.37593 -4.29196 0.668777 0
M  V30 17 C 3.55657 -3.92965 -0.131012 0
M  V30 18 C 4.89617 -3.97803 0.473979 0
M  V30 19 C 5.26278 -3.09213 1.59723 0
M  V30 20 C 5.14642 -1.64527 1.16918 0
M  V30 21 C 5.50119 -0.681913 2.28183 0
M  V30 22 C 6.87337 -0.870139 2.80437 0
M  V30 23 C 8.01075 -0.728215 1.88015 0
M  V30 24 C 8.20156 0.583089 1.23702 0
M  V30 25 O 7.28714 1.43929 1.38863 0
M  V30 26 N 9.39384 0.861151 0.469544 0
M  V30 27 C 10.3761 -0.125238 0.316095 0
M  V30 28 C 10.3857 -1.22946 -0.612267 0
M  V30 29 C 10.2743 -1.13913 -2.06451 0
M  V30 30 N 9.00406 -0.662372 -2.49599 0
M  V30 31 C 9.58983 2.23158 0.0594867 0
M  V30 32 C 9.0402 2.7206 -1.19207 0 CFG=1
M  V30 33 O 7.63828 2.54434 -1.29374 0
M  V30 34 C 9.24968 4.17746 -1.53391 0
M  V30 35 C 10.6317 4.66017 -1.67402 0
M  V30 36 N 11.4848 4.6125 -0.530348 0
M  V30 37 C -4.57788 2.86688 -0.389801 0 CFG=1
M  V30 38 C -3.58773 3.65678 0.384771 0
M  V30 39 C -4.26065 4.67867 1.25106 0
M  V30 40 C -5.39776 5.40349 0.600712 0
M  V30 41 C -6.18089 4.49934 -0.343168 0 CFG=1
M  V30 42 C -7.06391 5.35884 -1.2 0
M  V30 43 O -5.30962 3.79505 -1.17084 0
M  V30 44 N -5.50471 2.09789 0.409999 0
M  V30 45 C -6.22227 1.03387 -0.228352 0
M  V30 46 N -7.0615 0.308347 0.383914 0
M  V30 47 C -7.82437 -0.794829 -0.217933 0 CFG=1
M  V30 48 C -7.32647 -1.20955 -1.56862 0
M  V30 49 C -7.65939 -1.88149 0.82027 0
M  V30 50 C -7.95805 -3.25266 0.374372 0
M  V30 51 C -9.32256 -3.39203 -0.202127 0
M  V30 52 C -10.2216 -2.41991 -0.294702 0
M  V30 53 C -10.139 -1.02716 0.112983 0 CFG=2
M  V30 54 C -11.4297 -0.308006 -0.284432 0
M  V30 55 C -11.4231 1.14148 0.106095 0
M  V30 56 O -9.09786 -0.304045 -0.331109 0
M  V30 57 N -5.96458 0.805971 -1.56913 0
M  V30 58 H -7.39922 0.381772 -2.95116 0
M  V30 59 H -5.12535 -1.61124 -2.93625 0
M  V30 60 H -6.09733 -0.842794 -4.29131 0
M  V30 61 H -4.69061 0.876939 -4.44086 0
M  V30 62 H -3.59928 0.038315 -3.33612 0
M  V30 63 H -5.4863 2.33083 -2.87368 0
M  V30 64 H -3.22899 2.66469 -2.02639 0
M  V30 65 H -1.07676 -0.750882 -0.243159 0
M  V30 66 H -0.46823 0.245727 1.0976 0
M  V30 67 H -3.15455 -1.30222 1.0983 0
M  V30 68 H -2.59737 -0.125585 2.38786 0
M  V30 69 H -0.645942 -1.62865 2.7802 0
M  V30 70 H -2.18564 -2.55122 2.90088 0
M  V30 71 H -1.99642 -3.29687 0.571264 0
M  V30 72 H -0.408871 -2.46442 0.435835 0
M  V30 73 H -1.25288 -4.7072 2.34449 0
M  V30 74 H -0.345715 -4.91717 0.844538 0
M  V30 75 H 1.04047 -5.04854 2.91751 0
M  V30 76 H 0.539191 -3.39888 3.38724 0
M  V30 77 H 1.71217 -2.41105 1.53622 0
M  V30 78 H 2.7251 -3.40608 2.58569 0
M  V30 79 H 1.49471 -4.295 -0.0708479 0
M  V30 80 H 2.50777 -5.38222 0.97875 0
M  V30 81 H 3.6188 -4.58981 -1.07801 0
M  V30 82 H 3.33154 -2.901 -0.57103 0
M  V30 83 H 5.70132 -3.79612 -0.338759 0
M  V30 84 H 5.13247 -5.06008 0.770957 0
M  V30 85 H 6.4151 -3.28467 1.72471 0
M  V30 86 H 4.84475 -3.33333 2.5617 0
M  V30 87 H 5.7843 -1.51613 0.282529 0
M  V30 88 H 4.1094 -1.43879 0.858798 0
M  V30 89 H 5.19834 0.320072 1.99433 0
M  V30 90 H 4.80242 -0.95481 3.13495 0
M  V30 91 H 6.95805 -0.258359 3.73481 0
M  V30 92 H 6.91603 -1.93514 3.199 0
M  V30 93 H 7.85476 -1.50836 1.06652 0
M  V30 94 H 8.92438 -1.08619 2.40399 0
M  V30 95 H 11.429 0.384936 0.189685 0
M  V30 96 H 10.6075 -0.61299 1.36067 0
M  V30 97 H 11.3786 -1.82312 -0.430727 0
M  V30 98 H 9.65415 -2.07516 -0.303529 0
M  V30 99 H 11.1305 -0.622731 -2.56966 0
M  V30 100 H 10.3556 -2.19907 -2.47355 0
M  V30 101 H 9.05496 -0.12336 -3.40797 0
M  V30 102 H 8.30411 -1.43045 -2.62233 0
M  V30 103 H 10.6979 2.45927 0.0972715 0
M  V30 104 H 9.19522 2.88436 0.902454 0
M  V30 105 H 9.46977 2.17094 -2.07764 0
M  V30 106 H 7.32941 3.03513 -2.1065 0
M  V30 107 H 8.64062 4.84021 -0.865 0
M  V30 108 H 8.74114 4.3201 -2.5425 0
M  V30 109 H 10.6609 5.73897 -2.02921 0
M  V30 110 H 11.0998 4.11747 -2.55652 0
M  V30 111 H 11.1557 5.16848 0.271657 0
M  V30 112 H 12.4572 4.87804 -0.789742 0
M  V30 113 H -2.95556 4.20925 -0.340143 0
M  V30 114 H -2.93378 3.05586 1.04822 0
M  V30 115 H -4.62012 4.23426 2.20878 0
M  V30 116 H -3.48912 5.45456 1.52371 0
M  V30 117 H -6.12106 5.77606 1.35781 0
M  V30 118 H -5.07931 6.30912 0.019823 0
M  V30 119 H -6.83297 3.79148 0.227123 0
M  V30 120 H -6.62591 6.35528 -1.41767 0
M  V30 121 H -8.01552 5.56028 -0.646944 0
M  V30 122 H -7.37409 4.8315 -2.14337 0
M  V30 123 H -5.65071 2.31006 1.42883 0
M  V30 124 H -6.57275 -2.0516 -1.51345 0
M  V30 125 H -8.13808 -1.59267 -2.21839 0
M  V30 126 H -6.60504 -1.88175 1.22872 0
M  V30 127 H -8.2866 -1.61746 1.69107 0
M  V30 128 H -7.96119 -3.90017 1.30326 0
M  V30 129 H -7.1836 -3.70906 -0.279403 0
M  V30 130 H -9.5556 -4.38259 -0.559492 0
M  V30 131 H -11.1513 -2.74294 -0.745651 0
M  V30 132 H -10.1429 -0.968207 1.24134 0
M  V30 133 H -11.4918 -0.389154 -1.39642 0
M  V30 134 H -12.3181 -0.849175 0.0993761 0
M  V30 135 H -11.997 1.69732 -0.669422 0
M  V30 136 H -10.4041 1.51995 0.168809 0
M  V30 137 H -11.9659 1.18291 1.09995 0
M  V30 END ATOM
M  V30 BEGIN BOND
M  V30 1 1 1 2
M  V30 2 1 2 3
M  V30 3 1 3 4
M  V30 4 1 4 5
M  V30 5 1 5 6
M  V30 6 2 6 7
M  V30 7 1 6 8
M  V30 8 1 8 9
M  V30 9 1 9 10
M  V30 10 1 10 11
M  V30 11 1 11 12
M  V30 12 1 12 13
M  V30 13 1 13 14
M  V30 14 1 14 15
M  V30 15 1 15 16
M  V30 16 1 16 17
M  V30 17 1 17 18
M  V30 18 1 18 19
M  V30 19 1 19 20
M  V30 20 1 20 21
M  V30 21 1 21 22
M  V30 22 1 22 23
M  V30 23 1 23 24
M  V30 24 2 24 25
M  V30 25 1 24 26
M  V30 26 1 26 27
M  V30 27 1 27 28
M  V30 28 1 28 29
M  V30 29 1 29 30
M  V30 30 1 26 31
M  V30 31 1 31 32
M  V30 32 1 32 33
M  V30 33 1 32 34
M  V30 34 1 34 35
M  V30 35 1 35 36
M  V30 36 1 5 37
M  V30 37 1 37 38
M  V30 38 1 38 39
M  V30 39 1 39 40
M  V30 40 1 40 41
M  V30 41 1 41 42
M  V30 42 1 41 43
M  V30 43 1 37 44
M  V30 44 1 44 45
M  V30 45 2 45 46
M  V30 46 1 47 46 CFG=1
M  V30 47 1 47 48
M  V30 48 1 47 49
M  V30 49 1 49 50
M  V30 50 1 50 51
M  V30 51 2 51 52
M  V30 52 1 52 53
M  V30 53 1 53 54
M  V30 54 1 54 55
M  V30 55 1 53 56
M  V30 56 1 45 57
M  V30 57 1 48 1
M  V30 58 1 57 1
M  V30 59 1 57 4
M  V30 60 1 37 43 CFG=3
M  V30 61 1 56 47
M  V30 62 1 1 58 CFG=3
M  V30 63 1 2 59
M  V30 64 1 2 60
M  V30 65 1 3 61
M  V30 66 1 3 62
M  V30 67 1 4 63 CFG=3
M  V30 68 1 5 64 CFG=3
M  V30 69 1 9 65
M  V30 70 1 9 66
M  V30 71 1 10 67
M  V30 72 1 10 68
M  V30 73 1 11 69
M  V30 74 1 11 70
M  V30 75 1 12 71
M  V30 76 1 12 72
M  V30 77 1 13 73
M  V30 78 1 13 74
M  V30 79 1 14 75
M  V30 80 1 14 76
M  V30 81 1 15 77
M  V30 82 1 15 78
M  V30 83 1 16 79
M  V30 84 1 16 80
M  V30 85 1 17 81
M  V30 86 1 17 82
M  V30 87 1 18 83
M  V30 88 1 18 84
M  V30 89 1 19 85
M  V30 90 1 19 86
M  V30 91 1 20 87
M  V30 92 1 20 88
M  V30 93 1 21 89
M  V30 94 1 21 90
M  V30 95 1 22 91
M  V30 96 1 22 92
M  V30 97 1 23 93
M  V30 98 1 23 94
M  V30 99 1 27 95
M  V30 100 1 27 96
M  V30 101 1 28 97
M  V30 102 1 28 98
M  V30 103 1 29 99
M  V30 104 1 29 100
M  V30 105 1 30 101
M  V30 106 1 30 102
M  V30 107 1 31 103
M  V30 108 1 31 104
M  V30 109 1 32 105 CFG=3
M  V30 110 1 33 106
M  V30 111 1 34 107
M  V30 112 1 34 108
M  V30 113 1 35 109
M  V30 114 1 35 110
M  V30 115 1 36 111
M  V30 116 1 36 112
M  V30 117 1 38 113
M  V30 118 1 38 114
M  V30 119 1 39 115
M  V30 120 1 39 116
M  V30 121 1 40 117
M  V30 122 1 40 118
M  V30 123 1 41 119 CFG=1
M  V30 124 1 42 120
M  V30 125 1 42 121
M  V30 126 1 42 122
M  V30 127 1 44 123
M  V30 128 1 48 124
M  V30 129 1 48 125
M  V30 130 1 49 126
M  V30 131 1 49 127
M  V30 132 1 50 128
M  V30 133 1 50 129
M  V30 134 1 51 130
M  V30 135 1 52 131
M  V30 136 1 53 132 CFG=1
M  V30 137 1 54 133
M  V30 138 1 54 134
M  V30 139 1 55 135
M  V30 140 1 55 136
M  V30 141 1 55 137
M  V30 END BOND
M  V30 END CTAB
M  END
