
     RDKit          3D

  0  0  0  0  0  0  0  0  0  0999 V3000
M  V30 BEGIN CTAB
M  V30 COUNTS 20 20 0 0 0
M  V30 BEGIN ATOM
M  V30 1 O 3.43044 0.831715 -0.548772 0
M  V30 2 N 2.07206 0.864698 -0.356318 0
M  V30 3 C 1.38565 -0.237535 -0.227733 0
M  V30 4 C -0.049141 -0.220728 -0.0239488 0
M  V30 5 C -0.736351 -1.40989 0.107142 0
M  V30 6 C -2.10091 -1.44079 0.302223 0
M  V30 7 Cl -2.97399 -2.95552 0.468881 0
M  V30 8 C -2.75371 -0.223583 0.361074 0
M  V30 9 C -2.07005 0.967125 0.230448 0
M  V30 10 C -0.715426 1.00588 0.036557 0
M  V30 11 N 0.0595678 2.1755 -0.106482 0
M  V30 12 Cl -2.91143 2.51363 0.306971 0
M  V30 13 N 2.0409 -1.48335 -0.286117 0
M  V30 14 H 4.12173 0.905151 0.160223 0
M  V30 15 H -0.230237 -2.37328 0.0620804 0
M  V30 16 H -3.81859 -0.229769 0.512802 0
M  V30 17 H 0.202814 2.53202 -1.09081 0
M  V30 18 H 0.489451 2.69743 0.679997 0
M  V30 19 H 1.77434 -2.21354 0.414516 0
M  V30 20 H 2.78287 -1.70517 -1.00273 0
M  V30 END ATOM
M  V30 BEGIN BOND
M  V30 1 1 1 2
M  V30 2 2 2 3 CFG=2
M  V30 3 1 3 4
M  V30 4 2 4 5
M  V30 5 1 5 6
M  V30 6 1 6 7
M  V30 7 2 6 8
M  V30 8 1 8 9
M  V30 9 2 9 10
M  V30 10 1 10 11
M  V30 11 1 9 12
M  V30 12 1 3 13
M  V30 13 1 10 4
M  V30 14 1 1 14
M  V30 15 1 5 15
M  V30 16 1 8 16
M  V30 17 1 11 17
M  V30 18 1 11 18
M  V30 19 1 13 19
M  V30 20 1 13 20
M  V30 END BOND
M  V30 END CTAB
M  END
