
     RDKit          3D

 15 14  0  0  0  0  0  0  0  0999 V2000
   -0.5513    0.2310   -3.1341 N   0  0  0  0  0  0  0  0  0  0  0  0
    0.6286    0.6641   -2.3735 C   0  0  0  0  0  0  0  0  0  0  0  0
    0.3621    0.8139   -0.8574 C   0  0  2  0  0  0  0  0  0  0  0  0
    0.5510   -0.5488   -0.1480 C   0  0  0  0  0  0  0  0  0  0  0  0
   -0.2755   -1.5018   -0.6298 F   0  0  0  0  0  0  0  0  0  0  0  0
    0.3098   -0.4254    1.1803 F   0  0  0  0  0  0  0  0  0  0  0  0
    1.8214   -0.9936   -0.2827 F   0  0  0  0  0  0  0  0  0  0  0  0
   -0.9649    1.4775   -0.6438 N   0  0  0  0  0  0  0  0  0  0  0  0
   -1.3505    0.7606   -2.7663 H   0  0  0  0  0  0  0  0  0  0  0  0
   -0.7753   -0.7347   -2.8832 H   0  0  0  0  0  0  0  0  0  0  0  0
    1.4633   -0.0179   -2.5681 H   0  0  0  0  0  0  0  0  0  0  0  0
    0.9221    1.6427   -2.7720 H   0  0  0  0  0  0  0  0  0  0  0  0
    1.1221    1.4892   -0.4450 H   0  0  0  0  0  0  0  0  0  0  0  0
   -1.1359    1.5536    0.3612 H   0  0  0  0  0  0  0  0  0  0  0  0
   -0.9192    2.4309   -1.0051 H   0  0  0  0  0  0  0  0  0  0  0  0
  1  2  1  0
  2  3  1  0
  3  4  1  0
  4  5  1  0
  4  6  1  0
  4  7  1  0
  3  8  1  0
  1  9  1  0
  1 10  1  0
  2 11  1  0
  2 12  1  0
  3 13  1  1
  8 14  1  0
  8 15  1  0
M  END
