
     RDKit          3D

  0  0  0  0  0  0  0  0  0  0999 V3000
M  V30 BEGIN CTAB
M  V30 COUNTS 40 41 0 0 0
M  V30 BEGIN ATOM
M  V30 1 C 2.99833 -2.23725 -0.507678 0
M  V30 2 C 2.44078 -1.10987 -1.33174 0
M  V30 3 C 2.6616 0.151426 -0.636167 0
M  V30 4 C 1.87589 0.5257 0.418273 0
M  V30 5 C 0.79666 -0.346209 0.839333 0
M  V30 6 C -0.35884 -0.328186 0.0963014 0
M  V30 7 C -1.4619 -1.09087 0.381873 0
M  V30 8 N -2.65579 -1.03752 -0.427499 0
M  V30 9 N -3.35771 0.0142459 -0.349248 0
M  V30 10 N -4.53162 0.251541 -1.04578 0
M  V30 11 C -5.11957 -0.844838 -1.78859 0
M  V30 12 C -5.20376 1.53133 -1.07215 0
M  V30 13 C -1.35944 -1.90822 1.4882 0
M  V30 14 Cl -2.72608 -2.91074 1.91444 0
M  V30 15 C -0.219601 -1.95644 2.2594 0
M  V30 16 C 0.860343 -1.17173 1.93147 0
M  V30 17 C 2.14965 1.7394 1.03791 0
M  V30 18 N 1.33896 2.13258 2.1351 0
M  V30 19 N 3.17499 2.52567 0.596807 0
M  V30 20 C 3.93382 2.14615 -0.43551 0
M  V30 21 N 4.98546 3.00522 -0.8512 0
M  V30 22 N 3.67573 0.972403 -1.04077 0
M  V30 23 H 3.80197 -2.7867 -1.07189 0
M  V30 24 H 3.50564 -1.90239 0.421812 0
M  V30 25 H 2.24209 -2.98543 -0.216393 0
M  V30 26 H 3.01939 -1.0796 -2.30324 0
M  V30 27 H 1.39747 -1.29016 -1.65748 0
M  V30 28 H -0.434012 0.326416 -0.782684 0
M  V30 29 H -6.16816 -0.613919 -2.09835 0
M  V30 30 H -5.09667 -1.77271 -1.19258 0
M  V30 31 H -4.49287 -0.951586 -2.72491 0
M  V30 32 H -5.65846 1.75841 -2.06614 0
M  V30 33 H -4.45849 2.34398 -0.89039 0
M  V30 34 H -6.03715 1.54587 -0.339573 0
M  V30 35 H -0.162485 -2.62037 3.14217 0
M  V30 36 H 1.76011 -1.20796 2.53712 0
M  V30 37 H 1.58723 1.78008 3.08101 0
M  V30 38 H 0.5357 2.74517 1.99072 0
M  V30 39 H 5.35859 3.73382 -0.210049 0
M  V30 40 H 5.4022 2.92326 -1.79956 0
M  V30 END ATOM
M  V30 BEGIN BOND
M  V30 1 1 1 2
M  V30 2 1 2 3
M  V30 3 2 3 4
M  V30 4 1 4 5
M  V30 5 2 5 6
M  V30 6 1 6 7
M  V30 7 1 7 8
M  V30 8 2 8 9
M  V30 9 1 9 10
M  V30 10 1 10 11
M  V30 11 1 10 12
M  V30 12 2 7 13
M  V30 13 1 13 14
M  V30 14 1 13 15
M  V30 15 2 15 16
M  V30 16 1 4 17
M  V30 17 1 17 18
M  V30 18 2 17 19
M  V30 19 1 19 20
M  V30 20 1 20 21
M  V30 21 2 20 22
M  V30 22 1 22 3
M  V30 23 1 16 5
M  V30 24 1 1 23
M  V30 25 1 1 24
M  V30 26 1 1 25
M  V30 27 1 2 26
M  V30 28 1 2 27
M  V30 29 1 6 28
M  V30 30 1 11 29
M  V30 31 1 11 30
M  V30 32 1 11 31
M  V30 33 1 12 32
M  V30 34 1 12 33
M  V30 35 1 12 34
M  V30 36 1 15 35
M  V30 37 1 16 36
M  V30 38 1 18 37
M  V30 39 1 18 38
M  V30 40 1 21 39
M  V30 41 1 21 40
M  V30 END BOND
M  V30 END CTAB
M  END
