
     RDKit          3D

  0  0  0  0  0  0  0  0  0  0999 V3000
M  V30 BEGIN CTAB
M  V30 COUNTS 30 31 0 0 0
M  V30 BEGIN ATOM
M  V30 1 N 3.22718 -2.42524 -1.0554 0
M  V30 2 C 3.02192 -1.14581 -0.47331 0
M  V30 3 N 2.03041 -0.884063 0.384169 0
M  V30 4 C 1.79082 0.290352 0.957361 0
M  V30 5 S 0.477401 0.65177 2.10066 0
M  V30 6 C -1.00598 1.21462 1.25573 0
M  V30 7 C -1.70347 0.0895406 0.641052 0
M  V30 8 C -1.35876 -1.22771 0.826224 0
M  V30 9 C -2.09876 -2.27149 0.252545 0
M  V30 10 C -3.19377 -1.92996 -0.508486 0
M  V30 11 C -3.56197 -0.61865 -0.708694 0
M  V30 12 C -2.82369 0.393759 -0.138617 0
M  V30 13 C -3.19392 1.78775 -0.334472 0
M  V30 14 N 2.67027 1.28745 0.601847 0
M  V30 15 C 3.68056 1.1014 -0.245227 0
M  V30 16 N 3.84724 -0.122175 -0.77802 0
M  V30 17 N 4.58906 2.15975 -0.602256 0
M  V30 18 H 2.56531 -2.84502 -1.71584 0
M  V30 19 H 4.09472 -2.96077 -0.795864 0
M  V30 20 H -1.61183 1.73124 2.03921 0
M  V30 21 H -0.725904 1.98884 0.472497 0
M  V30 22 H -0.525017 -1.50775 1.45003 0
M  V30 23 H -1.81732 -3.30735 0.403959 0
M  V30 24 H -3.75857 -2.74664 -0.947496 0
M  V30 25 H -4.44164 -0.360268 -1.32003 0
M  V30 26 H -4.28789 1.96412 -0.194931 0
M  V30 27 H -2.6769 2.51596 0.278296 0
M  V30 28 H -3.00467 2.06636 -1.4132 0
M  V30 29 H 4.60542 2.98296 0.0390938 0
M  V30 30 H 5.18974 2.12704 -1.42839 0
M  V30 END ATOM
M  V30 BEGIN BOND
M  V30 1 1 1 2
M  V30 2 2 2 3
M  V30 3 1 3 4
M  V30 4 1 4 5
M  V30 5 1 5 6
M  V30 6 1 6 7
M  V30 7 2 7 8
M  V30 8 1 8 9
M  V30 9 2 9 10
M  V30 10 1 10 11
M  V30 11 2 11 12
M  V30 12 1 12 13
M  V30 13 2 4 14
M  V30 14 1 14 15
M  V30 15 2 15 16
M  V30 16 1 15 17
M  V30 17 1 16 2
M  V30 18 1 12 7
M  V30 19 1 1 18
M  V30 20 1 1 19
M  V30 21 1 6 20
M  V30 22 1 6 21
M  V30 23 1 8 22
M  V30 24 1 9 23
M  V30 25 1 10 24
M  V30 26 1 11 25
M  V30 27 1 13 26
M  V30 28 1 13 27
M  V30 29 1 13 28
M  V30 30 1 17 29
M  V30 31 1 17 30
M  V30 END BOND
M  V30 END CTAB
M  END
