
     RDKit          3D

  0  0  0  0  0  0  0  0  0  0999 V3000
M  V30 BEGIN CTAB
M  V30 COUNTS 26 26 0 0 0
M  V30 BEGIN ATOM
M  V30 1 N 3.07337 1.97846 0.0346433 0
M  V30 2 C 2.58378 0.869712 -0.635255 0
M  V30 3 C 1.35596 0.185401 -0.207764 0
M  V30 4 N 0.0866931 0.587721 -0.34167 0
M  V30 5 C -0.950714 -0.26691 -0.20661 0
M  V30 6 N -0.798006 -1.51726 0.098193 0
M  V30 7 C 0.460264 -2.05477 0.252119 0
M  V30 8 C 1.50415 -1.1902 0.0844279 0
M  V30 9 N 2.87837 -1.61351 0.128485 0
M  V30 10 C -2.30182 0.253798 -0.636009 0
M  V30 11 C -3.31769 -0.83417 -0.537357 0
M  V30 12 C -2.61815 1.4578 0.185104 0
M  V30 13 H 2.54229 2.76762 0.32933 0
M  V30 14 H 3.75272 1.64711 0.826776 0
M  V30 15 H 3.35577 0.238261 -1.09602 0
M  V30 16 H 2.2122 1.42264 -1.68561 0
M  V30 17 H 0.607433 -3.10357 0.422463 0
M  V30 18 H 3.35138 -1.49872 1.01854 0
M  V30 19 H 3.28029 -1.95009 -0.752875 0
M  V30 20 H -2.20258 0.594651 -1.72895 0
M  V30 21 H -4.32388 -0.394201 -0.692772 0
M  V30 22 H -3.22111 -1.31843 0.464196 0
M  V30 23 H -3.18908 -1.55624 -1.36777 0
M  V30 24 H -2.11423 1.39288 1.18963 0
M  V30 25 H -3.72537 1.50367 0.414389 0
M  V30 26 H -2.28207 2.39835 -0.33709 0
M  V30 END ATOM
M  V30 BEGIN BOND
M  V30 1 1 1 2
M  V30 2 1 2 3
M  V30 3 2 3 4
M  V30 4 1 4 5
M  V30 5 2 5 6
M  V30 6 1 6 7
M  V30 7 2 7 8
M  V30 8 1 8 9
M  V30 9 1 5 10
M  V30 10 1 10 11
M  V30 11 1 10 12
M  V30 12 1 8 3
M  V30 13 1 1 13
M  V30 14 1 1 14
M  V30 15 1 2 15
M  V30 16 1 2 16
M  V30 17 1 7 17
M  V30 18 1 9 18
M  V30 19 1 9 19
M  V30 20 1 10 20
M  V30 21 1 11 21
M  V30 22 1 11 22
M  V30 23 1 11 23
M  V30 24 1 12 24
M  V30 25 1 12 25
M  V30 26 1 12 26
M  V30 END BOND
M  V30 END CTAB
M  END
