
     RDKit          3D

  0  0  0  0  0  0  0  0  0  0999 V3000
M  V30 BEGIN CTAB
M  V30 COUNTS 34 34 0 0 0
M  V30 BEGIN ATOM
M  V30 1 C 5.67114 0.86461 0.16999 0
M  V30 2 C 4.95724 -0.00540024 1.16839 0
M  V30 3 O 3.55717 0.00947591 0.960021 0
M  V30 4 C 2.95409 -0.399986 -0.213385 0
M  V30 5 O 3.69407 -0.806127 -1.14115 0
M  V30 6 C 1.50333 -0.37489 -0.403938 0
M  V30 7 C 0.94074 -0.770961 -1.53528 0
M  V30 8 N 1.80011 -1.23069 -2.58164 0
M  V30 9 C -0.505667 -0.745517 -1.72405 0
M  V30 10 O -0.975272 -1.14217 -2.84048 0
M  V30 11 C -1.39507 -0.28123 -0.671002 0
M  V30 12 C -2.81563 -0.267982 -0.886773 0
M  V30 13 O -3.27993 -0.657835 -1.98446 0
M  V30 14 O -3.70445 0.174143 0.108756 0
M  V30 15 C -5.07618 0.147922 -0.201191 0
M  V30 16 C -5.92558 0.639178 0.929414 0
M  V30 17 C -0.851822 0.123953 0.480646 0
M  V30 18 N -1.66057 0.586026 1.54214 0
M  V30 19 C 0.60044 0.0882701 0.643775 0
M  V30 20 O 1.15251 0.466904 1.7278 0
M  V30 21 H 5.1442 1.83342 0.0225254 0
M  V30 22 H 6.70063 1.09083 0.56453 0
M  V30 23 H 5.81887 0.397927 -0.807359 0
M  V30 24 H 5.14955 0.39023 2.18767 0
M  V30 25 H 5.3215 -1.05216 1.07136 0
M  V30 26 H 2.04938 -2.2426 -2.63052 0
M  V30 27 H 2.19687 -0.597845 -3.30966 0
M  V30 28 H -5.22572 0.825268 -1.07655 0
M  V30 29 H -5.38848 -0.89006 -0.506918 0
M  V30 30 H -5.46405 0.405562 1.91532 0
M  V30 31 H -6.9297 0.160852 0.831753 0
M  V30 32 H -6.09755 1.74189 0.826438 0
M  V30 33 H -2.08104 1.52535 1.48754 0
M  V30 34 H -1.83514 -0.00635991 2.37168 0
M  V30 END ATOM
M  V30 BEGIN BOND
M  V30 1 1 1 2
M  V30 2 1 2 3
M  V30 3 1 3 4
M  V30 4 2 4 5
M  V30 5 1 4 6
M  V30 6 2 6 7
M  V30 7 1 7 8
M  V30 8 1 7 9
M  V30 9 2 9 10
M  V30 10 1 9 11
M  V30 11 1 11 12
M  V30 12 2 12 13
M  V30 13 1 12 14
M  V30 14 1 14 15
M  V30 15 1 15 16
M  V30 16 2 11 17
M  V30 17 1 17 18
M  V30 18 1 17 19
M  V30 19 2 19 20
M  V30 20 1 19 6
M  V30 21 1 1 21
M  V30 22 1 1 22
M  V30 23 1 1 23
M  V30 24 1 2 24
M  V30 25 1 2 25
M  V30 26 1 8 26
M  V30 27 1 8 27
M  V30 28 1 15 28
M  V30 29 1 15 29
M  V30 30 1 16 30
M  V30 31 1 16 31
M  V30 32 1 16 32
M  V30 33 1 18 33
M  V30 34 1 18 34
M  V30 END BOND
M  V30 END CTAB
M  END
