
     RDKit          3D

  0  0  0  0  0  0  0  0  0  0999 V3000
M  V30 BEGIN CTAB
M  V30 COUNTS 22 22 0 0 0
M  V30 BEGIN ATOM
M  V30 1 C 3.93494 0.479445 0.163223 0
M  V30 2 O 2.50492 0.603034 0.146353 0
M  V30 3 C 1.71615 -0.523934 0.10203 0
M  V30 4 O 2.28344 -1.64415 0.0773271 0
M  V30 5 C 0.250513 -0.45714 0.0829956 0
M  V30 6 C -0.50757 -1.59476 0.0387858 0
M  V30 7 C -1.89275 -1.56244 0.0198684 0
M  V30 8 Cl -2.87322 -3.00091 -0.0363657 0
M  V30 9 C -2.52617 -0.339006 0.0466471 0
M  V30 10 C -1.79522 0.847127 0.091897 0
M  V30 11 C -0.420297 0.748522 0.108715 0
M  V30 12 N 0.347397 1.93992 0.154626 0
M  V30 13 N -3.94886 -0.25735 0.0286091 0
M  V30 14 H 4.30068 0.0952003 1.11454 0
M  V30 15 H 4.41885 1.42151 -0.0982613 0
M  V30 16 H 4.23518 -0.267077 -0.627554 0
M  V30 17 H -0.0541363 -2.57453 0.0165751 0
M  V30 18 H -2.31876 1.79489 0.112211 0
M  V30 19 H 0.693091 2.33071 1.0418 0
M  V30 20 H 0.56277 2.42554 -0.732887 0
M  V30 21 H -4.46242 -0.103179 -0.851069 0
M  V30 22 H -4.44854 -0.361429 0.952006 0
M  V30 END ATOM
M  V30 BEGIN BOND
M  V30 1 1 1 2
M  V30 2 1 2 3
M  V30 3 2 3 4
M  V30 4 1 3 5
M  V30 5 2 5 6
M  V30 6 1 6 7
M  V30 7 1 7 8
M  V30 8 2 7 9
M  V30 9 1 9 10
M  V30 10 2 10 11
M  V30 11 1 11 12
M  V30 12 1 9 13
M  V30 13 1 11 5
M  V30 14 1 1 14
M  V30 15 1 1 15
M  V30 16 1 1 16
M  V30 17 1 6 17
M  V30 18 1 10 18
M  V30 19 1 12 19
M  V30 20 1 12 20
M  V30 21 1 13 21
M  V30 22 1 13 22
M  V30 END BOND
M  V30 END CTAB
M  END
