
     RDKit          3D

  0  0  0  0  0  0  0  0  0  0999 V3000
M  V30 BEGIN CTAB
M  V30 COUNTS 30 30 0 0 0
M  V30 BEGIN ATOM
M  V30 1 C 4.24749 -0.464975 0.161189 0
M  V30 2 C 2.88052 -0.585398 -0.361804 0
M  V30 3 O 2.68594 -1.17394 -1.43927 0
M  V30 4 N 1.79522 -0.0436862 0.341713 0
M  V30 5 C 0.420092 -0.108976 -0.0863133 0 CFG=2
M  V30 6 C -0.257059 1.22109 -0.132995 0 CFG=1
M  V30 7 N 0.415055 2.16412 -1.01017 0
M  V30 8 C -1.65436 1.0311 -0.668763 0
M  V30 9 C -2.25588 -0.273767 -0.296727 0
M  V30 10 C -1.67136 -1.17834 0.447052 0
M  V30 11 C -0.322212 -0.932049 0.976253 0 CFG=1
M  V30 12 N 0.390262 -2.12419 1.32063 0
M  V30 13 C -3.59323 -0.544692 -0.807698 0
M  V30 14 O -4.23872 -1.74502 -0.510157 0
M  V30 15 O -4.23055 0.266903 -1.52983 0
M  V30 16 H 4.76236 0.462164 -0.1695 0
M  V30 17 H 4.17313 -0.378848 1.27857 0
M  V30 18 H 4.88841 -1.34353 -0.120482 0
M  V30 19 H 1.97268 0.447342 1.24409 0
M  V30 20 H 0.26865 -0.630808 -1.03657 0
M  V30 21 H -0.377503 1.67619 0.890579 0
M  V30 22 H 0.546963 1.69885 -1.93409 0
M  V30 23 H -0.248639 2.95822 -1.15949 0
M  V30 24 H -2.35373 1.82145 -0.339222 0
M  V30 25 H -1.62217 1.0786 -1.78502 0
M  V30 26 H -2.16923 -2.11767 0.683416 0
M  V30 27 H -0.443187 -0.230818 1.84859 0
M  V30 28 H 0.834506 -1.98972 2.26741 0
M  V30 29 H -0.320034 -2.8937 1.46246 0
M  V30 30 H -4.52342 -1.9035 0.466144 0
M  V30 END ATOM
M  V30 BEGIN BOND
M  V30 1 1 1 2
M  V30 2 2 2 3
M  V30 3 1 2 4
M  V30 4 1 4 5
M  V30 5 1 5 6
M  V30 6 1 6 7
M  V30 7 1 6 8
M  V30 8 1 8 9
M  V30 9 2 9 10
M  V30 10 1 10 11
M  V30 11 1 11 12
M  V30 12 1 9 13
M  V30 13 1 13 14
M  V30 14 2 13 15
M  V30 15 1 11 5
M  V30 16 1 1 16
M  V30 17 1 1 17
M  V30 18 1 1 18
M  V30 19 1 4 19
M  V30 20 1 5 20 CFG=3
M  V30 21 1 6 21 CFG=1
M  V30 22 1 7 22
M  V30 23 1 7 23
M  V30 24 1 8 24
M  V30 25 1 8 25
M  V30 26 1 10 26
M  V30 27 1 11 27 CFG=1
M  V30 28 1 12 28
M  V30 29 1 12 29
M  V30 30 1 14 30
M  V30 END BOND
M  V30 END CTAB
M  END
