
     RDKit          3D

  0  0  0  0  0  0  0  0  0  0999 V3000
M  V30 BEGIN CTAB
M  V30 COUNTS 39 41 0 0 0
M  V30 BEGIN ATOM
M  V30 1 N -4.23577 -2.56059 -0.800934 0
M  V30 2 C -3.05264 -1.80543 -0.969252 0
M  V30 3 C -2.79989 -1.03788 0.315629 0
M  V30 4 N -1.60693 -0.265822 0.15776 0
M  V30 5 C -0.286979 -0.854962 0.0483202 0
M  V30 6 C 0.739213 -0.150353 0.900051 0 CFG=2
M  V30 7 N 0.571513 1.26674 0.930961 0
M  V30 8 C -0.605294 1.94941 0.476319 0
M  V30 9 C -1.6778 1.16061 0.0968125 0
M  V30 10 C -2.81055 1.78655 -0.340208 0
M  V30 11 C -2.85992 3.17012 -0.392655 0
M  V30 12 C -1.79471 3.95089 -0.0158642 0
M  V30 13 C -0.652207 3.31755 0.424885 0
M  V30 14 C 2.10606 -0.522 0.489477 0
M  V30 15 C 3.19738 0.124803 1.02625 0
M  V30 16 C 4.49395 -0.227243 0.632707 0
M  V30 17 C 4.71113 -1.22088 -0.29342 0
M  V30 18 N 3.62504 -1.82693 -0.792406 0
M  V30 19 C 2.37679 -1.52082 -0.443901 0
M  V30 20 N 6.04472 -1.56641 -0.684696 0
M  V30 21 H -4.74827 -2.83449 -1.60712 0
M  V30 22 H -4.62615 -2.5776 0.0980881 0
M  V30 23 H -3.24548 -1.07366 -1.77813 0
M  V30 24 H -2.23852 -2.51025 -1.20008 0
M  V30 25 H -2.56867 -1.81378 1.09416 0
M  V30 26 H -3.70295 -0.484494 0.521222 0
M  V30 27 H -0.259793 -1.92489 0.33148 0
M  V30 28 H -0.0235935 -0.811925 -1.0382 0
M  V30 29 H 0.606878 -0.53119 1.94705 0
M  V30 30 H 1.36688 1.84267 1.31359 0
M  V30 31 H -3.65324 1.1788 -0.639189 0
M  V30 32 H -3.77016 3.65479 -0.742774 0
M  V30 33 H -1.87399 5.0478 -0.071971 0
M  V30 34 H 0.188194 3.92608 0.721949 0
M  V30 35 H 3.09952 0.914144 1.7609 0
M  V30 36 H 5.35984 0.283736 1.05512 0
M  V30 37 H 1.56173 -2.06324 -0.897063 0
M  V30 38 H 6.57183 -2.20513 -0.0665884 0
M  V30 39 H 6.47286 -1.18473 -1.56828 0
M  V30 END ATOM
M  V30 BEGIN BOND
M  V30 1 1 1 2
M  V30 2 1 2 3
M  V30 3 1 3 4
M  V30 4 1 4 5
M  V30 5 1 5 6
M  V30 6 1 6 7
M  V30 7 1 7 8
M  V30 8 2 8 9
M  V30 9 1 9 10
M  V30 10 2 10 11
M  V30 11 1 11 12
M  V30 12 2 12 13
M  V30 13 1 6 14
M  V30 14 2 14 15
M  V30 15 1 15 16
M  V30 16 2 16 17
M  V30 17 1 17 18
M  V30 18 2 18 19
M  V30 19 1 17 20
M  V30 20 1 9 4
M  V30 21 1 19 14
M  V30 22 1 13 8
M  V30 23 1 1 21
M  V30 24 1 1 22
M  V30 25 1 2 23
M  V30 26 1 2 24
M  V30 27 1 3 25
M  V30 28 1 3 26
M  V30 29 1 5 27
M  V30 30 1 5 28
M  V30 31 1 6 29 CFG=1
M  V30 32 1 7 30
M  V30 33 1 10 31
M  V30 34 1 11 32
M  V30 35 1 12 33
M  V30 36 1 13 34
M  V30 37 1 15 35
M  V30 38 1 16 36
M  V30 39 1 19 37
M  V30 40 1 20 38
M  V30 41 1 20 39
M  V30 END BOND
M  V30 END CTAB
M  END
