
     RDKit          3D

  0  0  0  0  0  0  0  0  0  0999 V3000
M  V30 BEGIN CTAB
M  V30 COUNTS 25 24 0 0 0
M  V30 BEGIN ATOM
M  V30 1 N -2.53204 1.21122 1.27608 0
M  V30 2 C -2.09139 0.253856 0.299767 0
M  V30 3 C -0.997203 -0.650128 0.848983 0
M  V30 4 S 0.448332 0.262299 1.36109 0
M  V30 5 C 1.33726 1.04678 0.0151676 0
M  V30 6 C 1.98037 0.0490043 -0.926062 0
M  V30 7 N 2.65849 0.848963 -1.96194 0
M  V30 8 C 3.05642 -0.720387 -0.248758 0
M  V30 9 O 2.72389 -1.52036 0.827398 0
M  V30 10 O 4.25901 -0.677132 -0.60879 0
M  V30 11 C -3.2588 -0.529461 -0.160859 0
M  V30 12 O -3.1998 -1.52988 -1.12449 0
M  V30 13 O -4.39568 -0.289571 0.34109 0
M  V30 14 H -3.37128 1.70346 0.853098 0
M  V30 15 H -1.83203 1.96092 1.44324 0
M  V30 16 H -1.71696 0.809996 -0.588077 0
M  V30 17 H -1.43073 -1.13771 1.75127 0
M  V30 18 H -0.799313 -1.44583 0.112036 0
M  V30 19 H 2.15945 1.65412 0.447175 0
M  V30 20 H 0.714031 1.7302 -0.590364 0
M  V30 21 H 1.25305 -0.57778 -1.45385 0
M  V30 22 H 3.31356 0.214864 -2.49754 0
M  V30 23 H 3.32116 1.48675 -1.42748 0
M  V30 24 H 2.37895 -2.47774 0.72989 0
M  V30 25 H -3.97875 -1.67644 -1.72081 0
M  V30 END ATOM
M  V30 BEGIN BOND
M  V30 1 1 1 2
M  V30 2 1 2 3
M  V30 3 1 3 4
M  V30 4 1 4 5
M  V30 5 1 5 6
M  V30 6 1 6 7
M  V30 7 1 6 8
M  V30 8 1 8 9
M  V30 9 2 8 10
M  V30 10 1 2 11
M  V30 11 1 11 12
M  V30 12 2 11 13
M  V30 13 1 1 14
M  V30 14 1 1 15
M  V30 15 1 2 16
M  V30 16 1 3 17
M  V30 17 1 3 18
M  V30 18 1 5 19
M  V30 19 1 5 20
M  V30 20 1 6 21
M  V30 21 1 7 22
M  V30 22 1 7 23
M  V30 23 1 9 24
M  V30 24 1 12 25
M  V30 END BOND
M  V30 END CTAB
M  END
