
     RDKit          3D

  0  0  0  0  0  0  0  0  0  0999 V3000
M  V30 BEGIN CTAB
M  V30 COUNTS 26 27 0 0 0
M  V30 BEGIN ATOM
M  V30 1 N 0.448208 -0.245609 -2.36904 0
M  V30 2 C 0.141037 -0.10288 -0.976708 0
M  V30 3 C 1.13625 0.0363639 -0.0440316 0
M  V30 4 C 0.860175 0.170663 1.29409 0
M  V30 5 N -0.435046 0.162347 1.66908 0
M  V30 6 C -1.41806 0.0268992 0.762618 0
M  V30 7 C -1.18201 -0.11135 -0.598449 0
M  V30 8 C -2.21457 -0.242747 -1.50421 0
M  V30 9 C -3.53046 -0.242638 -1.0965 0
M  V30 10 C -3.78532 -0.106325 0.248936 0
M  V30 11 C -2.75668 0.0248715 1.1528 0
M  V30 12 C -3.02965 0.169562 2.56564 0
M  V30 13 N -3.25644 0.299197 3.67274 0
M  V30 14 C 2.55159 0.0517442 -0.503273 0
M  V30 15 O 2.70423 -0.0666721 -1.73057 0
M  V30 16 N 3.57066 0.19739 0.471868 0
M  V30 17 N 4.47258 0.326286 1.33484 0
M  V30 18 H 0.448177 -1.19825 -2.76773 0
M  V30 19 H 0.665111 0.56958 -2.96184 0
M  V30 20 H 1.65861 0.280348 2.0341 0
M  V30 21 H -2.00053 -0.347051 -2.53818 0
M  V30 22 H -4.35165 -0.3468 -1.82013 0
M  V30 23 H -4.8147 -0.104527 0.563321 0
M  V30 24 H 4.51431 0.150457 -0.508755 0
M  V30 25 H 4.49305 1.1089 2.02642 0
M  V30 26 H 5.11113 -0.459767 1.62296 0
M  V30 END ATOM
M  V30 BEGIN BOND
M  V30 1 1 1 2
M  V30 2 2 2 3
M  V30 3 1 3 4
M  V30 4 2 4 5
M  V30 5 1 5 6
M  V30 6 2 6 7
M  V30 7 1 7 8
M  V30 8 2 8 9
M  V30 9 1 9 10
M  V30 10 2 10 11
M  V30 11 1 11 12
M  V30 12 3 12 13
M  V30 13 1 3 14
M  V30 14 2 14 15
M  V30 15 1 14 16
M  V30 16 1 16 17
M  V30 17 1 7 2
M  V30 18 1 11 6
M  V30 19 1 1 18
M  V30 20 1 1 19
M  V30 21 1 4 20
M  V30 22 1 8 21
M  V30 23 1 9 22
M  V30 24 1 10 23
M  V30 25 1 16 24
M  V30 26 1 17 25
M  V30 27 1 17 26
M  V30 END BOND
M  V30 END CTAB
M  END
