
     RDKit          3D

  0  0  0  0  0  0  0  0  0  0999 V3000
M  V30 BEGIN CTAB
M  V30 COUNTS 54 57 0 0 0
M  V30 BEGIN ATOM
M  V30 1 N 4.48028 2.73353 -2.99245 0
M  V30 2 C 5.6447 2.21118 -2.42842 0 CFG=1
M  V30 3 C 5.58264 0.690969 -2.55198 0
M  V30 4 C 4.36301 0.272599 -1.80186 0
M  V30 5 C 3.11656 0.150993 -2.36567 0
M  V30 6 C 2.00758 -0.240818 -1.62001 0
M  V30 7 C 2.11558 -0.519835 -0.296955 0
M  V30 8 C 3.37753 -0.398172 0.280285 0
M  V30 9 C 4.46378 -0.0135308 -0.454837 0
M  V30 10 C 1.01588 -0.937297 0.565886 0
M  V30 11 N 1.20902 -1.1826 1.87852 0
M  V30 12 C 0.204247 -1.56574 2.67664 0
M  V30 13 N 0.470764 -1.80693 4.04599 0
M  V30 14 N -1.0372 -1.72747 2.22938 0
M  V30 15 C -1.33004 -1.50846 0.941312 0
M  V30 16 O -2.59786 -1.65636 0.404285 0
M  V30 17 C -3.71304 -2.0452 1.1441 0
M  V30 18 C -4.99928 -1.44225 0.705267 0
M  V30 19 C -5.56562 -0.209359 0.720031 0
M  V30 20 C -6.78761 -0.0740734 0.146418 0
M  V30 21 C -7.3679 -1.17413 -0.402862 0
M  V30 22 S -6.22154 -2.38242 -0.122751 0
M  V30 23 C -4.93546 0.961326 1.38737 0
M  V30 24 C -3.86679 1.02896 2.23294 0
M  V30 25 C -3.65239 2.35471 2.60522 0
M  V30 26 C -4.63491 3.04537 1.94532 0
M  V30 27 O -5.36016 2.20101 1.24822 0
M  V30 28 C -3.85009 -3.59835 1.04089 0
M  V30 29 F -4.00681 -4.01149 -0.236627 0
M  V30 30 F -4.86215 -3.92144 1.89482 0
M  V30 31 F -2.67752 -4.10475 1.53633 0
M  V30 32 C -0.268579 -1.10644 0.111411 0
M  V30 33 C 6.8863 2.76459 -3.00913 0
M  V30 34 O 8.10589 2.32264 -2.53676 0
M  V30 35 O 6.8922 3.62981 -3.92428 0
M  V30 36 H 4.54751 3.01503 -3.9121 0
M  V30 37 H 3.81573 3.11147 -2.40234 0
M  V30 38 H 5.66529 2.48296 -1.33249 0
M  V30 39 H 6.45746 0.289711 -2.01112 0
M  V30 40 H 5.55342 0.396146 -3.61399 0
M  V30 41 H 3.03547 0.374852 -3.42049 0
M  V30 42 H 1.04591 -0.323554 -2.10188 0
M  V30 43 H 3.4816 -0.620002 1.34869 0
M  V30 44 H 5.41545 0.0578453 0.0690628 0
M  V30 45 H 1.35213 -2.29159 4.29891 0
M  V30 46 H -0.172589 -1.52156 4.79831 0
M  V30 47 H -3.55311 -1.91688 2.20012 0
M  V30 48 H -7.36952 0.885314 0.0877026 0
M  V30 49 H -8.3567 -1.22736 -0.904053 0
M  V30 50 H -3.25618 0.232747 2.60333 0
M  V30 51 H -2.9045 2.74816 3.2488 0
M  V30 52 H -4.81518 4.11162 1.97013 0
M  V30 53 H -0.494095 -0.927003 -0.930571 0
M  V30 54 H 8.35091 2.3815 -1.55188 0
M  V30 END ATOM
M  V30 BEGIN BOND
M  V30 1 1 1 2
M  V30 2 1 2 3
M  V30 3 1 3 4
M  V30 4 2 4 5
M  V30 5 1 5 6
M  V30 6 2 6 7
M  V30 7 1 7 8
M  V30 8 2 8 9
M  V30 9 1 7 10
M  V30 10 2 10 11
M  V30 11 1 11 12
M  V30 12 1 12 13
M  V30 13 2 12 14
M  V30 14 1 14 15
M  V30 15 1 15 16
M  V30 16 1 16 17
M  V30 17 1 17 18
M  V30 18 2 18 19
M  V30 19 1 19 20
M  V30 20 2 20 21
M  V30 21 1 21 22
M  V30 22 1 19 23
M  V30 23 2 23 24
M  V30 24 1 24 25
M  V30 25 2 25 26
M  V30 26 1 26 27
M  V30 27 1 17 28
M  V30 28 1 28 29
M  V30 29 1 28 30
M  V30 30 1 28 31
M  V30 31 2 15 32
M  V30 32 1 2 33
M  V30 33 1 33 34
M  V30 34 2 33 35
M  V30 35 1 9 4
M  V30 36 1 32 10
M  V30 37 1 22 18
M  V30 38 1 27 23
M  V30 39 1 1 36
M  V30 40 1 1 37
M  V30 41 1 2 38 CFG=1
M  V30 42 1 3 39
M  V30 43 1 3 40
M  V30 44 1 5 41
M  V30 45 1 6 42
M  V30 46 1 8 43
M  V30 47 1 9 44
M  V30 48 1 13 45
M  V30 49 1 13 46
M  V30 50 1 17 47
M  V30 51 1 20 48
M  V30 52 1 21 49
M  V30 53 1 24 50
M  V30 54 1 25 51
M  V30 55 1 26 52
M  V30 56 1 32 53
M  V30 57 1 34 54
M  V30 END BOND
M  V30 END CTAB
M  END
