
     RDKit          3D

  0  0  0  0  0  0  0  0  0  0999 V3000
M  V30 BEGIN CTAB
M  V30 COUNTS 45 48 0 0 0
M  V30 BEGIN ATOM
M  V30 1 N 4.26051 -3.01045 1.54164 0
M  V30 2 C 3.11722 -2.81563 1.42347 0
M  V30 3 C 1.68249 -2.59748 1.2886 0
M  V30 4 C 0.806637 -3.56985 1.73827 0
M  V30 5 N 1.29572 -4.76119 2.32098 0
M  V30 6 N -0.495873 -3.30799 1.58529 0
M  V30 7 C -0.924466 -2.14147 1.01503 0
M  V30 8 C -0.102378 -1.15183 0.555907 0
M  V30 9 C 1.27432 -1.41466 0.711105 0
M  V30 10 C 2.312 -0.482285 0.284784 0
M  V30 11 C 2.91582 -0.645656 -0.968373 0
M  V30 12 C 3.91638 0.224264 -1.36983 0
M  V30 13 C 4.33333 1.25147 -0.561398 0
M  V30 14 C 3.72964 1.3923 0.658166 0
M  V30 15 C 2.73029 0.552587 1.10218 0
M  V30 16 O 5.32335 2.09163 -0.98895 0
M  V30 17 C 5.85011 3.1737 -0.283683 0
M  V30 18 C -0.692056 -0.0632007 0.0176209 0
M  V30 19 N 0.022446 1.08451 -0.521464 0
M  V30 20 C -2.05978 -0.0465777 -0.0205843 0
M  V30 21 S -2.47985 -1.54048 0.691148 0
M  V30 22 C -2.9409 1.00429 -0.569578 0
M  V30 23 O -2.40409 2.02904 -1.09697 0
M  V30 24 C -4.36644 0.936869 -0.546195 0
M  V30 25 C -5.11401 1.54996 -1.56206 0
M  V30 26 C -6.4704 1.55388 -1.61308 0
M  V30 27 C -7.18877 0.925523 -0.620772 0
M  V30 28 C -6.50081 0.309471 0.398531 0
M  V30 29 C -5.09706 0.316075 0.434607 0
M  V30 30 H 1.45303 -4.82844 3.36912 0
M  V30 31 H 1.52937 -5.63011 1.78345 0
M  V30 32 H 2.56472 -1.46884 -1.58737 0
M  V30 33 H 4.37705 0.0902313 -2.33976 0
M  V30 34 H 4.05307 2.20588 1.30901 0
M  V30 35 H 2.25399 0.664354 2.06539 0
M  V30 36 H 5.14206 3.6711 0.399314 0
M  V30 37 H 6.16922 3.94502 -1.01901 0
M  V30 38 H 6.78646 2.85657 0.242709 0
M  V30 39 H 0.10158 1.89618 0.132748 0
M  V30 40 H 0.416529 1.12233 -1.46109 0
M  V30 41 H -4.55608 2.04058 -2.33729 0
M  V30 42 H -7.0491 2.03254 -2.40577 0
M  V30 43 H -8.26654 0.916375 -0.641259 0
M  V30 44 H -7.0734 -0.183865 1.17765 0
M  V30 45 H -4.63534 -0.176724 1.27025 0
M  V30 END ATOM
M  V30 BEGIN BOND
M  V30 1 3 1 2
M  V30 2 1 2 3
M  V30 3 2 3 4
M  V30 4 1 4 5
M  V30 5 1 4 6
M  V30 6 2 6 7
M  V30 7 1 7 8
M  V30 8 2 8 9
M  V30 9 1 9 10
M  V30 10 2 10 11
M  V30 11 1 11 12
M  V30 12 2 12 13
M  V30 13 1 13 14
M  V30 14 2 14 15
M  V30 15 1 13 16
M  V30 16 1 16 17
M  V30 17 1 8 18
M  V30 18 1 18 19
M  V30 19 2 18 20
M  V30 20 1 20 21
M  V30 21 1 20 22
M  V30 22 2 22 23
M  V30 23 1 22 24
M  V30 24 2 24 25
M  V30 25 1 25 26
M  V30 26 2 26 27
M  V30 27 1 27 28
M  V30 28 2 28 29
M  V30 29 1 9 3
M  V30 30 1 15 10
M  V30 31 1 29 24
M  V30 32 1 21 7
M  V30 33 1 5 30
M  V30 34 1 5 31
M  V30 35 1 11 32
M  V30 36 1 12 33
M  V30 37 1 14 34
M  V30 38 1 15 35
M  V30 39 1 17 36
M  V30 40 1 17 37
M  V30 41 1 17 38
M  V30 42 1 19 39
M  V30 43 1 19 40
M  V30 44 1 25 41
M  V30 45 1 26 42
M  V30 46 1 27 43
M  V30 47 1 28 44
M  V30 48 1 29 45
M  V30 END BOND
M  V30 END CTAB
M  END
