
     RDKit          3D

  0  0  0  0  0  0  0  0  0  0999 V3000
M  V30 BEGIN CTAB
M  V30 COUNTS 37 39 0 0 0
M  V30 BEGIN ATOM
M  V30 1 C 5.48959 -0.800326 -1.13456 0
M  V30 2 C 4.95996 -0.0807159 0.0809059 0 CFG=2
M  V30 3 C 3.49912 -0.334893 0.158203 0
M  V30 4 C 2.95605 -1.16438 1.11774 0
M  V30 5 C 1.60466 -1.39091 1.17946 0
M  V30 6 C 0.714202 -0.791602 0.272553 0
M  V30 7 C 1.24424 0.0381014 -0.690839 0
M  V30 8 C 2.60639 0.239584 -0.718492 0
M  V30 9 C -0.703242 -1.0806 0.353735 0
M  V30 10 O -1.0088 -2.29745 0.542905 0
M  V30 11 N -1.70665 -0.105192 0.237016 0
M  V30 12 C -1.56023 1.21754 0.0577549 0
M  V30 13 C -2.83229 1.74623 -0.0137522 0
M  V30 14 C -3.78297 0.755951 0.121223 0
M  V30 15 C -3.04163 -0.399852 0.277892 0
M  V30 16 N -3.70095 -1.56461 0.436515 0
M  V30 17 C -5.0383 -1.63352 0.446496 0
M  V30 18 C -5.80223 -0.46997 0.288704 0
M  V30 19 C -5.16429 0.733438 0.124872 0
M  V30 20 N -5.91499 1.91423 -0.0353441 0
M  V30 21 N 5.21733 1.34207 -0.111613 0
M  V30 22 H 4.65488 -1.18857 -1.77186 0
M  V30 23 H 6.08429 -0.119141 -1.79248 0
M  V30 24 H 6.08012 -1.6854 -0.828369 0
M  V30 25 H 5.47835 -0.376384 1.01124 0
M  V30 26 H 3.61251 -1.65421 1.84689 0
M  V30 27 H 1.21122 -2.03895 1.93391 0
M  V30 28 H 0.617182 0.531373 -1.44963 0
M  V30 29 H 3.04027 0.898272 -1.48077 0
M  V30 30 H -0.63869 1.81362 -0.0120472 0
M  V30 31 H -3.10156 2.78765 -0.155011 0
M  V30 32 H -5.56239 -2.55838 0.572365 0
M  V30 33 H -6.87522 -0.500407 0.293378 0
M  V30 34 H -6.22939 2.4147 0.828419 0
M  V30 35 H -6.18446 2.33292 -0.947038 0
M  V30 36 H 4.54092 1.93598 0.39678 0
M  V30 37 H 5.23702 1.5338 -1.13579 0
M  V30 END ATOM
M  V30 BEGIN BOND
M  V30 1 1 1 2
M  V30 2 1 2 3
M  V30 3 2 3 4
M  V30 4 1 4 5
M  V30 5 2 5 6
M  V30 6 1 6 7
M  V30 7 2 7 8
M  V30 8 1 6 9
M  V30 9 2 9 10
M  V30 10 1 9 11
M  V30 11 1 11 12
M  V30 12 2 12 13
M  V30 13 1 13 14
M  V30 14 2 14 15
M  V30 15 1 15 16
M  V30 16 2 16 17
M  V30 17 1 17 18
M  V30 18 2 18 19
M  V30 19 1 19 20
M  V30 20 1 2 21
M  V30 21 1 8 3
M  V30 22 1 15 11
M  V30 23 1 19 14
M  V30 24 1 1 22
M  V30 25 1 1 23
M  V30 26 1 1 24
M  V30 27 1 2 25 CFG=1
M  V30 28 1 4 26
M  V30 29 1 5 27
M  V30 30 1 7 28
M  V30 31 1 8 29
M  V30 32 1 12 30
M  V30 33 1 13 31
M  V30 34 1 17 32
M  V30 35 1 18 33
M  V30 36 1 20 34
M  V30 37 1 20 35
M  V30 38 1 21 36
M  V30 39 1 21 37
M  V30 END BOND
M  V30 END CTAB
M  END
