
     RDKit          3D

  0  0  0  0  0  0  0  0  0  0999 V3000
M  V30 BEGIN CTAB
M  V30 COUNTS 28 29 0 0 0
M  V30 BEGIN ATOM
M  V30 1 C 4.88905 0.370659 -1.22794 0
M  V30 2 O 4.06887 -0.550741 -0.535897 0
M  V30 3 C 2.70716 -0.34369 -0.350002 0
M  V30 4 C 2.04914 0.765076 -0.819382 0
M  V30 5 C 0.69672 0.876067 -0.582486 0
M  V30 6 C 0.0161732 -0.102819 0.110271 0
M  V30 7 C 0.666729 -1.21518 0.583648 0
M  V30 8 C 2.0261 -1.31892 0.341018 0
M  V30 9 C -1.41772 0.058947 0.349517 0
M  V30 10 N -1.90059 1.22906 0.814194 0
M  V30 11 C -3.20677 1.43014 1.04119 0
M  V30 12 N -3.67377 2.68989 1.53512 0
M  V30 13 N -4.04465 0.41176 0.788128 0
M  V30 14 C -3.65743 -0.786869 0.324885 0
M  V30 15 C -2.29399 -0.967596 0.0978715 0
M  V30 16 N -1.87034 -2.21894 -0.39859 0
M  V30 17 Cl -4.74015 -2.09964 -0.00100878 0
M  V30 18 H 5.12055 1.225 -0.552824 0
M  V30 19 H 4.33474 0.729241 -2.13003 0
M  V30 20 H 5.84513 -0.102679 -1.51234 0
M  V30 21 H 2.61732 1.51306 -1.3593 0
M  V30 22 H 0.179052 1.7706 -0.964088 0
M  V30 23 H 0.143365 -2.00913 1.14693 0
M  V30 24 H 2.53326 -2.20525 0.720384 0
M  V30 25 H -3.01626 3.47529 1.60405 0
M  V30 26 H -4.65262 2.82047 1.82075 0
M  V30 27 H -1.83622 -3.04262 0.264838 0
M  V30 28 H -1.58281 -2.40118 -1.38468 0
M  V30 END ATOM
M  V30 BEGIN BOND
M  V30 1 1 1 2
M  V30 2 1 2 3
M  V30 3 2 3 4
M  V30 4 1 4 5
M  V30 5 2 5 6
M  V30 6 1 6 7
M  V30 7 2 7 8
M  V30 8 1 6 9
M  V30 9 2 9 10
M  V30 10 1 10 11
M  V30 11 1 11 12
M  V30 12 2 11 13
M  V30 13 1 13 14
M  V30 14 2 14 15
M  V30 15 1 15 16
M  V30 16 1 14 17
M  V30 17 1 8 3
M  V30 18 1 15 9
M  V30 19 1 1 18
M  V30 20 1 1 19
M  V30 21 1 1 20
M  V30 22 1 4 21
M  V30 23 1 5 22
M  V30 24 1 7 23
M  V30 25 1 8 24
M  V30 26 1 12 25
M  V30 27 1 12 26
M  V30 28 1 16 27
M  V30 29 1 16 28
M  V30 END BOND
M  V30 END CTAB
M  END
