
     RDKit          3D

  0  0  0  0  0  0  0  0  0  0999 V3000
M  V30 BEGIN CTAB
M  V30 COUNTS 52 52 0 0 0
M  V30 BEGIN ATOM
M  V30 1 C -7.1317 -0.386239 0.269975 0
M  V30 2 C -6.49151 0.961148 -0.0319385 0
M  V30 3 N -5.26793 1.12973 0.717019 0
M  V30 4 C -4.00029 1.23386 0.147379 0
M  V30 5 O -3.94035 1.16008 -1.12931 0
M  V30 6 C -2.74285 1.40702 0.859264 0
M  V30 7 C -1.67703 0.559177 0.504705 0
M  V30 8 C -0.483512 0.557584 1.21217 0
M  V30 9 C -0.414358 1.43339 2.27503 0
M  V30 10 C -1.4275 2.27614 2.64941 0
M  V30 11 C -2.63607 2.26477 1.91301 0
M  V30 12 N -3.62093 3.19674 2.32367 0 CHG=1
M  V30 13 O -3.69298 3.49736 3.5249 0
M  V30 14 O -4.47955 3.75928 1.44721 0 CHG=-1
M  V30 15 N 0.549024 -0.327516 0.836451 0
M  V30 16 C 1.89193 -0.20243 1.16732 0
M  V30 17 O 2.36365 0.735403 1.84713 0
M  V30 18 C 2.92201 -1.21208 0.721984 0 CFG=2
M  V30 19 C 3.84766 -0.457383 -0.227407 0
M  V30 20 C 4.94671 -1.34164 -0.778289 0
M  V30 21 C 5.81755 -0.529706 -1.70579 0
M  V30 22 N 6.87659 -1.28607 -2.29646 0
M  V30 23 C 6.52688 -2.29018 -3.2404 0
M  V30 24 N 5.67476 -2.02626 -4.19141 0
M  V30 25 N 7.08911 -3.57985 -3.18768 0
M  V30 26 N 2.32309 -2.33654 0.0703518 0
M  V30 27 C -7.48987 2.0145 0.383795 0
M  V30 28 H -6.62011 -1.1773 -0.271504 0
M  V30 29 H -8.16606 -0.322598 -0.0927371 0
M  V30 30 H -7.14425 -0.503986 1.36143 0
M  V30 31 H -6.30298 0.965782 -1.13875 0
M  V30 32 H -5.37168 1.15093 1.7575 0
M  V30 33 H -1.82191 -0.0953225 -0.341845 0
M  V30 34 H 0.474294 1.50001 2.90448 0
M  V30 35 H -1.34448 2.95591 3.49418 0
M  V30 36 H 0.281789 -1.17264 0.243434 0
M  V30 37 H 3.53983 -1.57178 1.56163 0
M  V30 38 H 3.24014 -0.044268 -1.06409 0
M  V30 39 H 4.32575 0.399104 0.274805 0
M  V30 40 H 4.54732 -2.25664 -1.21777 0
M  V30 41 H 5.55126 -1.66968 0.118295 0
M  V30 42 H 6.20299 0.334004 -1.09844 0
M  V30 43 H 5.18286 -0.0988721 -2.50785 0
M  V30 44 H 7.85908 -1.0943 -2.03296 0
M  V30 45 H 5.23873 -1.08793 -4.27729 0
M  V30 46 H 8.06305 -3.67395 -2.83577 0
M  V30 47 H 6.50635 -4.40065 -3.50308 0
M  V30 48 H 1.76717 -2.9515 0.699291 0
M  V30 49 H 1.88454 -2.15886 -0.842827 0
M  V30 50 H -7.23258 2.27337 1.45447 0
M  V30 51 H -7.46683 2.90681 -0.256643 0
M  V30 52 H -8.52681 1.58407 0.390688 0
M  V30 END ATOM
M  V30 BEGIN BOND
M  V30 1 1 1 2
M  V30 2 1 2 3
M  V30 3 1 3 4
M  V30 4 2 4 5
M  V30 5 1 4 6
M  V30 6 2 6 7
M  V30 7 1 7 8
M  V30 8 2 8 9
M  V30 9 1 9 10
M  V30 10 2 10 11
M  V30 11 1 11 12
M  V30 12 2 12 13
M  V30 13 1 12 14
M  V30 14 1 8 15
M  V30 15 1 15 16
M  V30 16 2 16 17
M  V30 17 1 16 18
M  V30 18 1 18 19
M  V30 19 1 19 20
M  V30 20 1 20 21
M  V30 21 1 21 22
M  V30 22 1 22 23
M  V30 23 2 23 24 CFG=2
M  V30 24 1 23 25
M  V30 25 1 18 26
M  V30 26 1 2 27
M  V30 27 1 11 6
M  V30 28 1 1 28
M  V30 29 1 1 29
M  V30 30 1 1 30
M  V30 31 1 2 31
M  V30 32 1 3 32
M  V30 33 1 7 33
M  V30 34 1 9 34
M  V30 35 1 10 35
M  V30 36 1 15 36
M  V30 37 1 18 37 CFG=1
M  V30 38 1 19 38
M  V30 39 1 19 39
M  V30 40 1 20 40
M  V30 41 1 20 41
M  V30 42 1 21 42
M  V30 43 1 21 43
M  V30 44 1 22 44
M  V30 45 1 24 45
M  V30 46 1 25 46
M  V30 47 1 25 47
M  V30 48 1 26 48
M  V30 49 1 26 49
M  V30 50 1 27 50
M  V30 51 1 27 51
M  V30 52 1 27 52
M  V30 END BOND
M  V30 END CTAB
M  END
