
     RDKit          3D

  0  0  0  0  0  0  0  0  0  0999 V3000
M  V30 BEGIN CTAB
M  V30 COUNTS 18 18 0 0 0
M  V30 BEGIN ATOM
M  V30 1 C -1.5221 1.5717 -0.0350157 0
M  V30 2 C -0.490457 0.48268 -0.0185514 0
M  V30 3 C -0.853909 -0.845285 -0.03024 0
M  V30 4 N -2.22159 -1.22394 -0.058307 0
M  V30 5 C 0.11623 -1.82509 -0.0146228 0
M  V30 6 N 1.42104 -1.47462 0.0121249 0
M  V30 7 C 1.81506 -0.193994 0.0242494 0
M  V30 8 N 3.1803 0.195594 0.0522989 0
M  V30 9 C 0.845851 0.802835 0.00871163 0
M  V30 10 H -2.04256 1.59467 -1.02003 0
M  V30 11 H -1.01937 2.54037 0.0809028 0
M  V30 12 H -2.26535 1.44036 0.776352 0
M  V30 13 H -2.69206 -1.36545 0.862202 0
M  V30 14 H -2.68253 -1.34047 -0.984251 0
M  V30 15 H -0.111535 -2.88249 -0.0227408 0
M  V30 16 H 3.47862 1.19058 0.0541569 0
M  V30 17 H 3.92065 -0.534317 0.0719337 0
M  V30 18 H 1.12369 1.86687 0.017802 0
M  V30 END ATOM
M  V30 BEGIN BOND
M  V30 1 1 1 2
M  V30 2 2 2 3
M  V30 3 1 3 4
M  V30 4 1 3 5
M  V30 5 2 5 6
M  V30 6 1 6 7
M  V30 7 1 7 8
M  V30 8 2 7 9
M  V30 9 1 9 2
M  V30 10 1 1 10
M  V30 11 1 1 11
M  V30 12 1 1 12
M  V30 13 1 4 13
M  V30 14 1 4 14
M  V30 15 1 5 15
M  V30 16 1 8 16
M  V30 17 1 8 17
M  V30 18 1 9 18
M  V30 END BOND
M  V30 END CTAB
M  END
