
     RDKit          3D

  0  0  0  0  0  0  0  0  0  0999 V3000
M  V30 BEGIN CTAB
M  V30 COUNTS 26 25 0 0 0
M  V30 BEGIN ATOM
M  V30 1 N -1.81573 -0.477737 -0.979312 0
M  V30 2 C -2.15929 0.29723 0.20119 0
M  V30 3 C -2.07834 -0.53685 1.44562 0
M  V30 4 S -0.457537 -1.22119 1.75665 0
M  V30 5 S 0.87028 0.388565 2.17199 0
M  V30 6 C 1.58297 0.906451 0.590465 0
M  V30 7 C 2.44424 -0.270025 0.109444 0
M  V30 8 N 3.48978 -0.545442 1.09644 0
M  V30 9 C 3.10238 0.00352723 -1.16817 0
M  V30 10 O 4.4709 -0.0151208 -1.33583 0
M  V30 11 O 2.38615 0.274098 -2.18544 0
M  V30 12 C -3.59008 0.701823 0.0345026 0
M  V30 13 O -4.34923 0.355505 -1.0644 0
M  V30 14 O -4.17521 1.39747 0.92157 0
M  V30 15 H -1.89138 -1.49867 -0.703892 0
M  V30 16 H -2.48411 -0.309225 -1.76833 0
M  V30 17 H -1.51872 1.19164 0.250857 0
M  V30 18 H -2.49654 0.0343454 2.29078 0
M  V30 19 H -2.78646 -1.40561 1.29908 0
M  V30 20 H 2.24156 1.78167 0.677126 0
M  V30 21 H 0.841834 1.11869 -0.180465 0
M  V30 22 H 1.75618 -1.13909 0.0439164 0
M  V30 23 H 3.63399 -1.59423 1.13738 0
M  V30 24 H 3.21658 -0.183478 2.04069 0
M  V30 25 H 5.00164 0.843926 -1.21998 0
M  V30 26 H -5.23585 -0.09827 -0.90861 0
M  V30 END ATOM
M  V30 BEGIN BOND
M  V30 1 1 1 2
M  V30 2 1 2 3
M  V30 3 1 3 4
M  V30 4 1 4 5
M  V30 5 1 5 6
M  V30 6 1 6 7
M  V30 7 1 7 8
M  V30 8 1 7 9
M  V30 9 1 9 10
M  V30 10 2 9 11
M  V30 11 1 2 12
M  V30 12 1 12 13
M  V30 13 2 12 14
M  V30 14 1 1 15
M  V30 15 1 1 16
M  V30 16 1 2 17
M  V30 17 1 3 18
M  V30 18 1 3 19
M  V30 19 1 6 20
M  V30 20 1 6 21
M  V30 21 1 7 22
M  V30 22 1 8 23
M  V30 23 1 8 24
M  V30 24 1 10 25
M  V30 25 1 13 26
M  V30 END BOND
M  V30 END CTAB
M  END
