
     RDKit          3D

  0  0  0  0  0  0  0  0  0  0999 V3000
M  V30 BEGIN CTAB
M  V30 COUNTS 23 23 0 0 0
M  V30 BEGIN ATOM
M  V30 1 N 2.04478 -0.564265 -0.0884378 0
M  V30 2 C 2.11468 0.838462 0.0972464 0
M  V30 3 N 3.09855 1.4771 -0.444334 0
M  V30 4 N 4.07289 0.83237 -1.1914 0
M  V30 5 S 0.908272 1.72116 1.0368 0
M  V30 6 C -0.406134 0.663156 1.66265 0
M  V30 7 C -1.27054 0.130736 0.582333 0
M  V30 8 C -1.11811 0.423162 -0.751754 0
M  V30 9 C -1.9623 -0.0971151 -1.7122 0
M  V30 10 C -2.99139 -0.933567 -1.34605 0
M  V30 11 N -3.14878 -1.22689 -0.032585 0
M  V30 12 C -2.31317 -0.710888 0.909616 0
M  V30 13 C -2.52578 -1.05851 2.30091 0
M  V30 14 N -2.68537 -1.3523 3.41822 0
M  V30 15 H 2.38464 -1.19996 0.68014 0
M  V30 16 H 1.67497 -1.01381 -0.944996 0
M  V30 17 H 3.90811 0.338142 -2.09992 0
M  V30 18 H 5.05228 0.828547 -0.838245 0
M  V30 19 H -1.02663 1.24473 2.37627 0
M  V30 20 H 0.0270095 -0.186454 2.22569 0
M  V30 21 H -0.299868 1.09335 -1.02575 0
M  V30 22 H -1.84558 0.129777 -2.75974 0
M  V30 23 H -3.69254 -1.37693 -2.05448 0
M  V30 END ATOM
M  V30 BEGIN BOND
M  V30 1 1 1 2
M  V30 2 2 2 3 CFG=2
M  V30 3 1 3 4
M  V30 4 1 2 5
M  V30 5 1 5 6
M  V30 6 1 6 7
M  V30 7 2 7 8
M  V30 8 1 8 9
M  V30 9 2 9 10
M  V30 10 1 10 11
M  V30 11 2 11 12
M  V30 12 1 12 13
M  V30 13 3 13 14
M  V30 14 1 12 7
M  V30 15 1 1 15
M  V30 16 1 1 16
M  V30 17 1 4 17
M  V30 18 1 4 18
M  V30 19 1 6 19
M  V30 20 1 6 20
M  V30 21 1 8 21
M  V30 22 1 9 22
M  V30 23 1 10 23
M  V30 END BOND
M  V30 END CTAB
M  END
