
     RDKit          3D

  0  0  0  0  0  0  0  0  0  0999 V3000
M  V30 BEGIN CTAB
M  V30 COUNTS 29 29 0 0 0
M  V30 BEGIN ATOM
M  V30 1 N 4.65319 0.686449 -0.28756 0
M  V30 2 C 3.53276 0.0564065 0.298611 0
M  V30 3 C 2.23926 0.508794 -0.252318 0
M  V30 4 O 2.26238 1.37548 -1.15242 0
M  V30 5 N 1.02878 -0.00102283 0.202775 0
M  V30 6 C -0.282482 0.388178 -0.283682 0
M  V30 7 C -0.983424 1.11168 0.820615 0
M  V30 8 C -1.85502 0.219287 1.66862 0
M  V30 9 C -2.89799 -0.333923 0.695048 0
M  V30 10 C -2.16704 -1.29781 -0.180809 0
M  V30 11 C -1.00624 -0.721589 -0.91538 0
M  V30 12 N -1.47401 -0.368794 -2.25908 0
M  V30 13 H 4.4871 1.32147 -1.06477 0
M  V30 14 H 5.50059 0.772436 0.244973 0
M  V30 15 H 3.64742 -1.0533 0.229756 0
M  V30 16 H 3.54836 0.280351 1.40258 0
M  V30 17 H 1.0239 -0.733266 0.964293 0
M  V30 18 H -0.0693823 1.1653 -1.07812 0
M  V30 19 H -1.63965 1.93025 0.454037 0
M  V30 20 H -0.217839 1.63163 1.46677 0
M  V30 21 H -1.28065 -0.628983 2.07525 0
M  V30 22 H -2.31445 0.834484 2.45266 0
M  V30 23 H -3.69978 -0.865367 1.21235 0
M  V30 24 H -3.31055 0.470783 0.0458404 0
M  V30 25 H -2.92341 -1.7305 -0.892552 0
M  V30 26 H -1.87181 -2.16792 0.463984 0
M  V30 27 H -0.273177 -1.56752 -1.07539 0
M  V30 28 H -2.53358 -0.289167 -2.26895 0
M  V30 29 H -1.12326 -0.993823 -2.98712 0
M  V30 END ATOM
M  V30 BEGIN BOND
M  V30 1 1 1 2
M  V30 2 1 2 3
M  V30 3 2 3 4
M  V30 4 1 3 5
M  V30 5 1 5 6
M  V30 6 1 6 7
M  V30 7 1 7 8
M  V30 8 1 8 9
M  V30 9 1 9 10
M  V30 10 1 10 11
M  V30 11 1 11 12
M  V30 12 1 11 6
M  V30 13 1 1 13
M  V30 14 1 1 14
M  V30 15 1 2 15
M  V30 16 1 2 16
M  V30 17 1 5 17
M  V30 18 1 6 18
M  V30 19 1 7 19
M  V30 20 1 7 20
M  V30 21 1 8 21
M  V30 22 1 8 22
M  V30 23 1 9 23
M  V30 24 1 9 24
M  V30 25 1 10 25
M  V30 26 1 10 26
M  V30 27 1 11 27
M  V30 28 1 12 28
M  V30 29 1 12 29
M  V30 END BOND
M  V30 END CTAB
M  END
