
     RDKit          3D

  0  0  0  0  0  0  0  0  0  0999 V3000
M  V30 BEGIN CTAB
M  V30 COUNTS 15 15 0 0 0
M  V30 BEGIN ATOM
M  V30 1 N -1.43052 1.46124 0.184877 0
M  V30 2 C -0.318679 0.592943 0.0610848 0
M  V30 3 C 0.962603 1.06411 0.0236803 0
M  V30 4 C 2.00486 0.182558 -0.0972153 0
M  V30 5 F 3.30603 0.650579 -0.135936 0
M  V30 6 C 1.77357 -1.16224 -0.180571 0
M  V30 7 N 0.523402 -1.62314 -0.144161 0
M  V30 8 C -0.502597 -0.772961 -0.0264111 0
M  V30 9 N -1.82606 -1.30135 0.00920694 0
M  V30 10 H -1.30183 2.44042 0.527673 0
M  V30 11 H -2.40074 1.18284 -0.0498191 0
M  V30 12 H 1.16202 2.13527 0.0892305 0
M  V30 13 H 2.61961 -1.8762 -0.278584 0
M  V30 14 H -2.33732 -1.35997 0.921832 0
M  V30 15 H -2.23436 -1.61411 -0.904886 0
M  V30 END ATOM
M  V30 BEGIN BOND
M  V30 1 1 1 2
M  V30 2 2 2 3
M  V30 3 1 3 4
M  V30 4 1 4 5
M  V30 5 2 4 6
M  V30 6 1 6 7
M  V30 7 2 7 8
M  V30 8 1 8 9
M  V30 9 1 8 2
M  V30 10 1 1 10
M  V30 11 1 1 11
M  V30 12 1 3 12
M  V30 13 1 6 13
M  V30 14 1 9 14
M  V30 15 1 9 15
M  V30 END BOND
M  V30 END CTAB
M  END
