
     RDKit          3D

  0  0  0  0  0  0  0  0  0  0999 V3000
M  V30 BEGIN CTAB
M  V30 COUNTS 25 26 0 0 0
M  V30 BEGIN ATOM
M  V30 1 N -3.08147 2.27957 1.06206 0
M  V30 2 C -2.43059 1.10525 0.561731 0
M  V30 3 N -3.17698 0.0729087 0.142312 0
M  V30 4 C -2.54242 -1.01364 -0.321123 0
M  V30 5 N -3.24919 -2.14831 -0.783861 0
M  V30 6 N -1.1847 -1.08532 -0.372079 0
M  V30 7 C -0.403211 -0.0823298 0.0345429 0
M  V30 8 C -1.02856 1.04671 0.515575 0
M  V30 9 C 1.0722 -0.172625 -0.0260137 0
M  V30 10 C 1.69309 -1.24028 -0.481417 0
M  V30 11 C 3.17342 -1.08245 -0.439387 0
M  V30 12 C 3.30232 0.4401 -0.37371 0
M  V30 13 C 2.05474 0.827279 0.383302 0
M  V30 14 H -3.63123 2.84957 0.380976 0
M  V30 15 H -3.00524 2.54407 2.05528 0
M  V30 16 H -3.60308 -2.83353 -0.0851941 0
M  V30 17 H -3.41615 -2.30471 -1.78047 0
M  V30 18 H -0.439485 1.86776 0.849226 0
M  V30 19 H 1.18347 -2.15179 -0.853488 0
M  V30 20 H 3.57099 -1.56407 0.474802 0
M  V30 21 H 3.57471 -1.47703 -1.37306 0
M  V30 22 H 4.22948 0.718249 0.172512 0
M  V30 23 H 3.28185 0.842239 -1.40951 0
M  V30 24 H 2.30608 0.68875 1.47593 0
M  V30 25 H 1.74996 1.87362 0.191078 0
M  V30 END ATOM
M  V30 BEGIN BOND
M  V30 1 1 1 2
M  V30 2 2 2 3
M  V30 3 1 3 4
M  V30 4 1 4 5
M  V30 5 2 4 6
M  V30 6 1 6 7
M  V30 7 2 7 8
M  V30 8 1 7 9
M  V30 9 2 9 10
M  V30 10 1 10 11
M  V30 11 1 11 12
M  V30 12 1 12 13
M  V30 13 1 8 2
M  V30 14 1 13 9
M  V30 15 1 1 14
M  V30 16 1 1 15
M  V30 17 1 5 16
M  V30 18 1 5 17
M  V30 19 1 8 18
M  V30 20 1 10 19
M  V30 21 1 11 20
M  V30 22 1 11 21
M  V30 23 1 12 22
M  V30 24 1 12 23
M  V30 25 1 13 24
M  V30 26 1 13 25
M  V30 END BOND
M  V30 END CTAB
M  END
