
     RDKit          3D

  0  0  0  0  0  0  0  0  0  0999 V3000
M  V30 BEGIN CTAB
M  V30 COUNTS 20 21 0 0 0
M  V30 BEGIN ATOM
M  V30 1 C -2.10531 0.34623 -1.30386 0
M  V30 2 C -2.24237 -0.0274888 0.170055 0
M  V30 3 N -3.42962 -0.362231 0.621473 0
M  V30 4 N -3.61878 -0.637537 1.85476 0
M  V30 5 S -2.10526 -0.449601 2.52669 0
M  V30 6 C -1.22404 0.0111625 1.07 0
M  V30 7 C 0.205792 0.246944 1.02227 0
M  V30 8 N 0.902098 0.520936 2.1901 0
M  V30 9 N 2.17934 0.647505 1.91835 0
M  V30 10 C 2.37379 0.47034 0.620211 0
M  V30 11 N 1.12049 0.222389 0.099346 0
M  V30 12 N 0.996928 -0.0503574 -1.26636 0
M  V30 13 N 3.56745 0.512134 -0.128497 0
M  V30 14 H -1.79598 -0.505454 -1.91518 0
M  V30 15 H -3.12644 0.617628 -1.71832 0
M  V30 16 H -1.54841 1.28113 -1.38831 0
M  V30 17 H 0.726597 -1.00264 -1.60525 0
M  V30 18 H 1.18018 0.717266 -1.94627 0
M  V30 19 H 4.38968 -0.0126733 0.18077 0
M  V30 20 H 3.55389 1.1035 -1.00199 0
M  V30 END ATOM
M  V30 BEGIN BOND
M  V30 1 1 1 2
M  V30 2 1 2 3
M  V30 3 2 3 4
M  V30 4 1 4 5
M  V30 5 1 5 6
M  V30 6 1 6 7
M  V30 7 2 7 8
M  V30 8 1 8 9
M  V30 9 2 9 10
M  V30 10 1 10 11
M  V30 11 1 11 12
M  V30 12 1 10 13
M  V30 13 2 6 2
M  V30 14 1 11 7
M  V30 15 1 1 14
M  V30 16 1 1 15
M  V30 17 1 1 16
M  V30 18 1 12 17
M  V30 19 1 12 18
M  V30 20 1 13 19
M  V30 21 1 13 20
M  V30 END BOND
M  V30 END CTAB
M  END
