
     RDKit          3D

  0  0  0  0  0  0  0  0  0  0999 V3000
M  V30 BEGIN CTAB
M  V30 COUNTS 35 38 0 0 0
M  V30 BEGIN ATOM
M  V30 1 N 7.94607 -1.86475 0.709043 0
M  V30 2 C 6.91005 -1.5803 0.261056 0
M  V30 3 C 5.62808 -1.20601 -0.298277 0
M  V30 4 C 4.54903 -1.15945 0.531343 0
M  V30 5 C 3.29431 -0.794686 -0.00847938 0
M  V30 6 C 3.2938 -0.518758 -1.34439 0
M  V30 7 N 4.40754 -0.578945 -2.1419 0
M  V30 8 C 5.61867 -0.925873 -1.64586 0
M  V30 9 N 6.75628 -0.982063 -2.48603 0
M  V30 10 S 1.66419 -0.12547 -1.65575 0
M  V30 11 C 1.0309 -0.322016 -0.0845694 0
M  V30 12 C 2.11743 -0.692767 0.648668 0
M  V30 13 N 1.94344 -0.952437 2.07642 0
M  V30 14 C -0.365528 -0.130453 0.353283 0
M  V30 15 O -0.629524 -0.324911 1.55354 0
M  V30 16 N -1.29431 0.258284 -0.621441 0
M  V30 17 C -2.63753 0.440257 -0.188828 0
M  V30 18 N -3.69871 0.797028 -0.879228 0
M  V30 19 C -4.858 0.909695 -0.290576 0
M  V30 20 C -4.92207 0.646678 1.04681 0
M  V30 21 S -3.29926 0.24676 1.39661 0
M  V30 22 C -6.12113 0.738483 1.7755 0
M  V30 23 C -7.29179 1.10451 1.14741 0
M  V30 24 C -7.20397 1.36487 -0.200359 0
M  V30 25 C -6.06211 1.28175 -0.915143 0
M  V30 26 H 4.68367 -1.40174 1.57314 0
M  V30 27 H 7.73113 -0.858832 -2.15077 0
M  V30 28 H 6.61078 -1.15697 -3.49976 0
M  V30 29 H 1.39175 -1.80817 2.30449 0
M  V30 30 H 2.33855 -0.332964 2.79108 0
M  V30 31 H -1.04532 0.410539 -1.60263 0
M  V30 32 H -6.04181 0.507749 2.8161 0
M  V30 33 H -8.19495 1.17041 1.71207 0
M  V30 34 H -8.15077 1.65917 -0.699923 0
M  V30 35 H -6.09891 1.50946 -1.98267 0
M  V30 END ATOM
M  V30 BEGIN BOND
M  V30 1 3 1 2
M  V30 2 1 2 3
M  V30 3 2 3 4
M  V30 4 1 4 5
M  V30 5 2 5 6
M  V30 6 1 6 7
M  V30 7 2 7 8
M  V30 8 1 8 9
M  V30 9 1 6 10
M  V30 10 1 10 11
M  V30 11 2 11 12
M  V30 12 1 12 13
M  V30 13 1 11 14
M  V30 14 2 14 15
M  V30 15 1 14 16
M  V30 16 1 16 17
M  V30 17 2 17 18
M  V30 18 1 18 19
M  V30 19 2 19 20
M  V30 20 1 20 21
M  V30 21 1 20 22
M  V30 22 2 22 23
M  V30 23 1 23 24
M  V30 24 2 24 25
M  V30 25 1 8 3
M  V30 26 1 21 17
M  V30 27 1 12 5
M  V30 28 1 25 19
M  V30 29 1 4 26
M  V30 30 1 9 27
M  V30 31 1 9 28
M  V30 32 1 13 29
M  V30 33 1 13 30
M  V30 34 1 16 31
M  V30 35 1 22 32
M  V30 36 1 23 33
M  V30 37 1 24 34
M  V30 38 1 25 35
M  V30 END BOND
M  V30 END CTAB
M  END
