
     RDKit          3D

  0  0  0  0  0  0  0  0  0  0999 V3000
M  V30 BEGIN CTAB
M  V30 COUNTS 30 30 0 0 0
M  V30 BEGIN ATOM
M  V30 1 N -2.6347 -1.81304 -0.393685 0
M  V30 2 C -2.28667 -0.84923 -1.35339 0
M  V30 3 C -1.16728 0.066543 -0.840404 0 CFG=1
M  V30 4 C -1.67491 0.738354 0.385664 0
M  V30 5 C -0.958896 2.08339 0.504901 0
M  V30 6 C 0.319179 1.81734 1.25715 0
M  V30 7 C 1.25819 1.09745 0.285402 0
M  V30 8 N 1.02258 -0.301641 0.233144 0
M  V30 9 C 0.0455526 -0.756677 -0.673322 0
M  V30 10 S 2.52471 -1.09683 -0.176626 0
M  V30 11 O 2.30854 -2.60201 -0.220206 0
M  V30 12 O 2.97743 -0.613352 -1.50255 0
M  V30 13 N 3.63646 -0.726824 1.09286 0
M  V30 14 H -2.78762 -1.53585 0.538869 0
M  V30 15 H -2.25151 -2.72414 -0.50654 0
M  V30 16 H -3.17563 -0.292017 -1.65008 0
M  V30 17 H -1.909 -1.38522 -2.26501 0
M  V30 18 H -1.02387 0.820462 -1.66843 0
M  V30 19 H -1.41155 0.0995603 1.27192 0
M  V30 20 H -2.76613 0.881402 0.409525 0
M  V30 21 H -0.676504 2.41683 -0.529824 0
M  V30 22 H -1.58059 2.85667 0.95092 0
M  V30 23 H 0.785694 2.7167 1.66042 0
M  V30 24 H 0.0917777 1.08983 2.07565 0
M  V30 25 H 2.28123 1.24556 0.743757 0
M  V30 26 H 1.29434 1.60408 -0.688709 0
M  V30 27 H 0.492796 -0.926687 -1.69519 0
M  V30 28 H -0.279116 -1.79037 -0.354018 0
M  V30 29 H 4.45074 -1.3855 1.11274 0
M  V30 30 H 3.09477 -0.734811 1.99505 0
M  V30 END ATOM
M  V30 BEGIN BOND
M  V30 1 1 1 2
M  V30 2 1 2 3
M  V30 3 1 3 4
M  V30 4 1 4 5
M  V30 5 1 5 6
M  V30 6 1 6 7
M  V30 7 1 7 8
M  V30 8 1 8 9
M  V30 9 1 8 10
M  V30 10 2 10 11
M  V30 11 2 10 12
M  V30 12 1 10 13
M  V30 13 1 9 3
M  V30 14 1 1 14
M  V30 15 1 1 15
M  V30 16 1 2 16
M  V30 17 1 2 17
M  V30 18 1 3 18 CFG=3
M  V30 19 1 4 19
M  V30 20 1 4 20
M  V30 21 1 5 21
M  V30 22 1 5 22
M  V30 23 1 6 23
M  V30 24 1 6 24
M  V30 25 1 7 25
M  V30 26 1 7 26
M  V30 27 1 9 27
M  V30 28 1 9 28
M  V30 29 1 13 29
M  V30 30 1 13 30
M  V30 END BOND
M  V30 END CTAB
M  END
