
     RDKit          3D

  0  0  0  0  0  0  0  0  0  0999 V3000
M  V30 BEGIN CTAB
M  V30 COUNTS 38 40 0 0 0
M  V30 BEGIN ATOM
M  V30 1 N 7.30811 -0.816099 0.530412 0
M  V30 2 C 6.05004 -0.232436 0.266804 0
M  V30 3 C 6.00511 1.07525 -0.186352 0
M  V30 4 C 4.79624 1.70017 -0.461727 0
M  V30 5 C 3.63303 0.975141 -0.26934 0
M  V30 6 O 2.43007 1.58628 -0.539664 0
M  V30 7 C 1.257 0.872402 -0.351618 0
M  V30 8 C 0.593684 0.884647 0.855602 0
M  V30 9 F 1.12221 1.61947 1.86609 0
M  V30 10 C -0.580411 0.174367 1.05352 0
M  V30 11 F -1.19984 0.19901 2.25645 0
M  V30 12 C -1.10106 -0.573048 -0.0059091 0
M  V30 13 O -2.26192 -1.31172 0.0933362 0
M  V30 14 C -3.55904 -0.880752 -0.087193 0
M  V30 15 C -4.16769 -0.796898 -1.34645 0
M  V30 16 C -5.46262 -0.36475 -1.49979 0
M  V30 17 C -6.17201 -0.00725425 -0.378584 0
M  V30 18 N -7.50497 0.439528 -0.520625 0
M  V30 19 C -5.57948 -0.0883395 0.859257 0
M  V30 20 C -4.28844 -0.519092 1.01496 0
M  V30 21 C -0.414529 -0.569517 -1.20876 0
M  V30 22 F -0.847448 -1.29282 -2.27149 0
M  V30 23 C 0.765411 0.144251 -1.40838 0
M  V30 24 F 1.40211 0.113754 -2.616 0
M  V30 25 C 3.69311 -0.315315 0.178619 0
M  V30 26 C 4.89919 -0.955661 0.459179 0
M  V30 27 H 7.43786 -1.82931 0.381035 0
M  V30 28 H 8.08048 -0.220823 0.868925 0
M  V30 29 H 6.91685 1.659 -0.342474 0
M  V30 30 H 4.72213 2.70371 -0.811448 0
M  V30 31 H -3.64049 -1.07424 -2.22606 0
M  V30 32 H -5.94285 -0.297498 -2.48497 0
M  V30 33 H -7.73161 1.4545 -0.372321 0
M  V30 34 H -8.31328 -0.17431 -0.769251 0
M  V30 35 H -6.1562 0.197454 1.72369 0
M  V30 36 H -3.88547 -0.574712 1.99722 0
M  V30 37 H 2.79541 -0.920126 0.342705 0
M  V30 38 H 4.90132 -1.98421 0.813963 0
M  V30 END ATOM
M  V30 BEGIN BOND
M  V30 1 1 1 2
M  V30 2 2 2 3
M  V30 3 1 3 4
M  V30 4 2 4 5
M  V30 5 1 5 6
M  V30 6 1 6 7
M  V30 7 2 7 8
M  V30 8 1 8 9
M  V30 9 1 8 10
M  V30 10 1 10 11
M  V30 11 2 10 12
M  V30 12 1 12 13
M  V30 13 1 13 14
M  V30 14 2 14 15
M  V30 15 1 15 16
M  V30 16 2 16 17
M  V30 17 1 17 18
M  V30 18 1 17 19
M  V30 19 2 19 20
M  V30 20 1 12 21
M  V30 21 1 21 22
M  V30 22 2 21 23
M  V30 23 1 23 24
M  V30 24 1 5 25
M  V30 25 2 25 26
M  V30 26 1 26 2
M  V30 27 1 23 7
M  V30 28 1 20 14
M  V30 29 1 1 27
M  V30 30 1 1 28
M  V30 31 1 3 29
M  V30 32 1 4 30
M  V30 33 1 15 31
M  V30 34 1 16 32
M  V30 35 1 18 33
M  V30 36 1 18 34
M  V30 37 1 19 35
M  V30 38 1 20 36
M  V30 39 1 25 37
M  V30 40 1 26 38
M  V30 END BOND
M  V30 END CTAB
M  END
