
     RDKit          3D

  0  0  0  0  0  0  0  0  0  0999 V3000
M  V30 BEGIN CTAB
M  V30 COUNTS 34 34 0 0 0
M  V30 BEGIN ATOM
M  V30 1 N -5.04399 0.850516 -0.373546 0
M  V30 2 C -4.69004 0.486309 0.977876 0
M  V30 3 C -4.3386 -0.977792 1.10547 0
M  V30 4 C -3.17811 -1.36893 0.249655 0
M  V30 5 C -1.91867 -0.610694 0.58444 0
M  V30 6 C -0.815098 -1.08023 -0.333771 0
M  V30 7 N 0.432537 -0.389716 -0.0668213 0
M  V30 8 C 1.58965 -0.69197 -0.826579 0
M  V30 9 O 1.50842 -1.56389 -1.72768 0
M  V30 10 C 2.86926 -0.0310481 -0.60328 0
M  V30 11 C 3.03782 0.933841 0.365534 0
M  V30 12 C 4.2921 1.49445 0.491106 0
M  V30 13 C 5.36348 1.13706 -0.296536 0
M  V30 14 N 5.17471 0.200711 -1.22717 0
M  V30 15 C 3.97751 -0.372791 -1.38813 0
M  V30 16 N 6.65907 1.74048 -0.140735 0
M  V30 17 H -5.01255 0.0628861 -1.04194 0
M  V30 18 H -4.60542 1.72234 -0.697672 0
M  V30 19 H -5.57092 0.694411 1.61842 0
M  V30 20 H -3.82893 1.08806 1.29871 0
M  V30 21 H -5.20654 -1.56989 0.81414 0
M  V30 22 H -4.07206 -1.16297 2.16318 0
M  V30 23 H -3.37097 -1.28505 -0.828672 0
M  V30 24 H -2.96483 -2.4433 0.448606 0
M  V30 25 H -2.08016 0.471234 0.425422 0
M  V30 26 H -1.58276 -0.796784 1.626 0
M  V30 27 H -0.630992 -2.16084 -0.229899 0
M  V30 28 H -1.08485 -0.910966 -1.40445 0
M  V30 29 H 0.419835 0.319908 0.69631 0
M  V30 30 H 2.20488 1.22045 0.987239 0
M  V30 31 H 4.41042 2.25138 1.25639 0
M  V30 32 H 3.87468 -1.13662 -2.1667 0
M  V30 33 H 6.99583 1.83121 0.8429 0
M  V30 34 H 7.18529 2.04823 -0.971243 0
M  V30 END ATOM
M  V30 BEGIN BOND
M  V30 1 1 1 2
M  V30 2 1 2 3
M  V30 3 1 3 4
M  V30 4 1 4 5
M  V30 5 1 5 6
M  V30 6 1 6 7
M  V30 7 1 7 8
M  V30 8 2 8 9
M  V30 9 1 8 10
M  V30 10 2 10 11
M  V30 11 1 11 12
M  V30 12 2 12 13
M  V30 13 1 13 14
M  V30 14 2 14 15
M  V30 15 1 13 16
M  V30 16 1 15 10
M  V30 17 1 1 17
M  V30 18 1 1 18
M  V30 19 1 2 19
M  V30 20 1 2 20
M  V30 21 1 3 21
M  V30 22 1 3 22
M  V30 23 1 4 23
M  V30 24 1 4 24
M  V30 25 1 5 25
M  V30 26 1 5 26
M  V30 27 1 6 27
M  V30 28 1 6 28
M  V30 29 1 7 29
M  V30 30 1 11 30
M  V30 31 1 12 31
M  V30 32 1 15 32
M  V30 33 1 16 33
M  V30 34 1 16 34
M  V30 END BOND
M  V30 END CTAB
M  END
