
     RDKit          3D

  0  0  0  0  0  0  0  0  0  0999 V3000
M  V30 BEGIN CTAB
M  V30 COUNTS 28 28 0 0 0
M  V30 BEGIN ATOM
M  V30 1 C 4.03504 0.737809 0.202504 0
M  V30 2 C 3.77791 -0.746438 0.122461 0
M  V30 3 O 2.66937 -1.05124 -0.709644 0
M  V30 4 C 1.3938 -0.589156 -0.436059 0
M  V30 5 O 1.24768 0.111413 0.583126 0
M  V30 6 C 0.202315 -0.879343 -1.28611 0
M  V30 7 C -1.02625 -0.274019 -0.718101 0
M  V30 8 C -1.56634 0.909352 -1.22255 0
M  V30 9 C -2.71169 1.4038 -0.609304 0
M  V30 10 N -3.30004 2.59876 -1.07391 0
M  V30 11 C -3.26628 0.715753 0.461928 0
M  V30 12 C -2.73475 -0.449033 0.958611 0
M  V30 13 C -1.59964 -0.936201 0.348503 0
M  V30 14 N -1.02656 -2.1507 0.843894 0
M  V30 15 Cl -3.40719 -1.33969 2.30934 0
M  V30 16 H 3.56627 1.21152 1.10121 0
M  V30 17 H 3.7519 1.26611 -0.729996 0
M  V30 18 H 5.12802 0.87052 0.324874 0
M  V30 19 H 4.67274 -1.22529 -0.306933 0
M  V30 20 H 3.67399 -1.10545 1.15386 0
M  V30 21 H 0.0412581 -1.97261 -1.31217 0
M  V30 22 H 0.378861 -0.521179 -2.31575 0
M  V30 23 H -1.08136 1.39475 -2.06109 0
M  V30 24 H -2.71061 3.34522 -1.51764 0
M  V30 25 H -4.33651 2.80042 -1.00238 0
M  V30 26 H -4.15609 1.09363 0.945559 0
M  V30 27 H -0.786594 -2.96694 0.240845 0
M  V30 28 H -0.829259 -2.25177 1.86419 0
M  V30 END ATOM
M  V30 BEGIN BOND
M  V30 1 1 1 2
M  V30 2 1 2 3
M  V30 3 1 3 4
M  V30 4 2 4 5
M  V30 5 1 4 6
M  V30 6 1 6 7
M  V30 7 2 7 8
M  V30 8 1 8 9
M  V30 9 1 9 10
M  V30 10 2 9 11
M  V30 11 1 11 12
M  V30 12 2 12 13
M  V30 13 1 13 14
M  V30 14 1 12 15
M  V30 15 1 13 7
M  V30 16 1 1 16
M  V30 17 1 1 17
M  V30 18 1 1 18
M  V30 19 1 2 19
M  V30 20 1 2 20
M  V30 21 1 6 21
M  V30 22 1 6 22
M  V30 23 1 8 23
M  V30 24 1 10 24
M  V30 25 1 10 25
M  V30 26 1 11 26
M  V30 27 1 14 27
M  V30 28 1 14 28
M  V30 END BOND
M  V30 END CTAB
M  END
