
     RDKit          3D

  0  0  0  0  0  0  0  0  0  0999 V3000
M  V30 BEGIN CTAB
M  V30 COUNTS 29 30 0 0 0
M  V30 BEGIN ATOM
M  V30 1 N -0.654531 -0.321624 3.16244 0
M  V30 2 N 0.312881 -0.314131 2.23474 0
M  V30 3 C 0.176565 -0.133214 0.941974 0
M  V30 4 C -1.12901 0.0906845 0.41172 0
M  V30 5 C -2.12205 0.804648 1.09301 0
M  V30 6 C -3.31101 1.19762 0.509199 0
M  V30 7 Br -4.63924 2.16846 1.47589 0
M  V30 8 C -3.58482 0.900867 -0.804063 0
M  V30 9 C -2.63758 0.201703 -1.50354 0
M  V30 10 C -1.4381 -0.1931 -0.896922 0
M  V30 11 N -0.647957 -1.06939 -1.72547 0
M  V30 12 C 1.45459 -0.110346 0.218089 0
M  V30 13 C 1.67133 0.541006 -0.941191 0
M  V30 14 C 2.89758 0.469423 -1.61997 0
M  V30 15 C 3.92877 -0.268231 -1.12616 0
M  V30 16 C 3.74094 -0.948364 0.0639903 0
M  V30 17 C 2.53187 -0.862055 0.706492 0
M  V30 18 H -1.45737 -1.01467 3.09377 0
M  V30 19 H -0.719935 0.312021 3.99941 0
M  V30 20 H -1.97981 1.10691 2.10114 0
M  V30 21 H -4.51667 1.2037 -1.28546 0
M  V30 22 H -2.86365 -0.0275553 -2.54201 0
M  V30 23 H -0.535922 -0.787992 -2.72059 0
M  V30 24 H -0.228014 -1.93375 -1.30913 0
M  V30 25 H 0.938605 1.19086 -1.39142 0
M  V30 26 H 3.02143 1.00797 -2.5463 0
M  V30 27 H 4.85459 -0.299646 -1.6743 0
M  V30 28 H 4.57477 -1.52659 0.436355 0
M  V30 29 H 2.36174 -1.38522 1.6383 0
M  V30 END ATOM
M  V30 BEGIN BOND
M  V30 1 1 1 2
M  V30 2 2 2 3
M  V30 3 1 3 4
M  V30 4 2 4 5
M  V30 5 1 5 6
M  V30 6 1 6 7
M  V30 7 2 6 8
M  V30 8 1 8 9
M  V30 9 2 9 10
M  V30 10 1 10 11
M  V30 11 1 3 12
M  V30 12 2 12 13
M  V30 13 1 13 14
M  V30 14 2 14 15
M  V30 15 1 15 16
M  V30 16 2 16 17
M  V30 17 1 10 4
M  V30 18 1 17 12
M  V30 19 1 1 18
M  V30 20 1 1 19
M  V30 21 1 5 20
M  V30 22 1 8 21
M  V30 23 1 9 22
M  V30 24 1 11 23
M  V30 25 1 11 24
M  V30 26 1 13 25
M  V30 27 1 14 26
M  V30 28 1 15 27
M  V30 29 1 16 28
M  V30 30 1 17 29
M  V30 END BOND
M  V30 END CTAB
M  END
