
     RDKit          3D

  0  0  0  0  0  0  0  0  0  0999 V3000
M  V30 BEGIN CTAB
M  V30 COUNTS 34 35 0 0 0
M  V30 BEGIN ATOM
M  V30 1 N -0.455546 3.08715 1.07675 0
M  V30 2 C -0.911217 2.05744 0.782491 0
M  V30 3 C -1.46018 0.779132 0.419496 0
M  V30 4 C -0.651239 -0.302616 0.159395 0
M  V30 5 C 0.782454 -0.167939 0.248484 0
M  V30 6 C 1.48202 -0.404752 1.43817 0
M  V30 7 C 2.83693 -0.274639 1.51175 0
M  V30 8 C 3.50848 0.101672 0.366867 0
M  V30 9 C 2.83206 0.339185 -0.815788 0
M  V30 10 C 1.46616 0.209278 -0.894751 0
M  V30 11 C 0.74394 0.467012 -2.17317 0
M  V30 12 C 4.97948 0.249331 0.422599 0
M  V30 13 C -1.24155 -1.49389 -0.181798 0
M  V30 14 C -0.391583 -2.61912 -0.452049 0
M  V30 15 N 0.292739 -3.51919 -0.66908 0
M  V30 16 C -2.6147 -1.61753 -0.265708 0
M  V30 17 O -3.12704 -2.71902 -0.579953 0
M  V30 18 N -3.37792 -0.526881 -0.00152827 0
M  V30 19 C -2.85571 0.644627 0.331847 0
M  V30 20 N -3.71594 1.7385 0.593309 0
M  V30 21 N -4.77115 -0.681204 -0.0943994 0
M  V30 22 H 0.852637 -0.697375 2.28365 0
M  V30 23 H 3.32185 -0.469388 2.45232 0
M  V30 24 H 3.36046 0.638113 -1.72735 0
M  V30 25 H -0.289483 0.134931 -2.08379 0
M  V30 26 H 0.837959 1.55614 -2.42088 0
M  V30 27 H 1.2156 -0.128236 -3.00157 0
M  V30 28 H 5.40432 -0.406289 -0.390394 0
M  V30 29 H 5.37924 -0.151933 1.36926 0
M  V30 30 H 5.30569 1.29066 0.211476 0
M  V30 31 H -4.53381 1.98384 -0.014263 0
M  V30 32 H -3.57678 2.37195 1.42414 0
M  V30 33 H -5.21929 -1.61036 -0.208002 0
M  V30 34 H -5.40889 0.141402 -0.0518687 0
M  V30 END ATOM
M  V30 BEGIN BOND
M  V30 1 3 1 2
M  V30 2 1 2 3
M  V30 3 1 3 4
M  V30 4 1 4 5
M  V30 5 2 5 6
M  V30 6 1 6 7
M  V30 7 2 7 8
M  V30 8 1 8 9
M  V30 9 2 9 10
M  V30 10 1 10 11
M  V30 11 1 8 12
M  V30 12 2 4 13
M  V30 13 1 13 14
M  V30 14 3 14 15
M  V30 15 1 13 16
M  V30 16 2 16 17
M  V30 17 1 16 18
M  V30 18 1 18 19
M  V30 19 1 19 20
M  V30 20 1 18 21
M  V30 21 2 19 3
M  V30 22 1 10 5
M  V30 23 1 6 22
M  V30 24 1 7 23
M  V30 25 1 9 24
M  V30 26 1 11 25
M  V30 27 1 11 26
M  V30 28 1 11 27
M  V30 29 1 12 28
M  V30 30 1 12 29
M  V30 31 1 12 30
M  V30 32 1 20 31
M  V30 33 1 20 32
M  V30 34 1 21 33
M  V30 35 1 21 34
M  V30 END BOND
M  V30 END CTAB
M  END
