
     RDKit          3D

  0  0  0  0  0  0  0  0  0  0999 V3000
M  V30 BEGIN CTAB
M  V30 COUNTS 32 33 0 0 0
M  V30 BEGIN ATOM
M  V30 1 O -0.559233 -1.37438 0.499565 0
M  V30 2 C -0.813462 -1.38332 -0.710341 0
M  V30 3 N -1.90299 -0.784105 -1.29214 0
M  V30 4 C -2.94989 -0.0441285 -0.65691 0
M  V30 5 C -3.0659 0.17979 0.680298 0
M  V30 6 C -4.1163 0.910601 1.2562 0
M  V30 7 C -5.09135 1.43771 0.445155 0
M  V30 8 C -4.98635 1.21754 -0.921297 0
M  V30 9 C -3.9585 0.504155 -1.47082 0
M  V30 10 F -3.9298 0.336758 -2.8011 0
M  V30 11 F -6.12019 2.1474 0.961105 0
M  V30 12 C 0.179284 -2.12165 -1.57046 0
M  V30 13 S 1.47667 -0.998322 -2.14578 0
M  V30 14 C 2.49621 -0.411124 -0.810518 0
M  V30 15 N 2.21113 0.69086 -0.12069 0
M  V30 16 C 2.96213 1.16208 0.887615 0
M  V30 17 N 2.57217 2.35166 1.56378 0
M  V30 18 C 4.09566 0.446418 1.21456 0
M  V30 19 C 4.44148 -0.70883 0.530007 0
M  V30 20 N 3.62241 -1.0951 -0.462656 0
M  V30 21 N 5.62139 -1.45622 0.865463 0
M  V30 22 H -1.97597 -0.888451 -2.37017 0
M  V30 23 H -2.327 -0.214565 1.35868 0
M  V30 24 H -4.15925 1.05857 2.33192 0
M  V30 25 H -5.77732 1.64996 -1.54133 0
M  V30 26 H 0.657361 -2.93989 -0.989587 0
M  V30 27 H -0.326529 -2.60012 -2.43283 0
M  V30 28 H 2.72676 3.25562 1.05567 0
M  V30 29 H 2.15258 2.33512 2.51741 0
M  V30 30 H 4.73434 0.782228 2.01659 0
M  V30 31 H 6.40326 -1.51248 0.165367 0
M  V30 32 H 5.70719 -1.93379 1.78051 0
M  V30 END ATOM
M  V30 BEGIN BOND
M  V30 1 2 1 2
M  V30 2 1 2 3
M  V30 3 1 3 4
M  V30 4 2 4 5
M  V30 5 1 5 6
M  V30 6 2 6 7
M  V30 7 1 7 8
M  V30 8 2 8 9
M  V30 9 1 9 10
M  V30 10 1 7 11
M  V30 11 1 2 12
M  V30 12 1 12 13
M  V30 13 1 13 14
M  V30 14 2 14 15
M  V30 15 1 15 16
M  V30 16 1 16 17
M  V30 17 2 16 18
M  V30 18 1 18 19
M  V30 19 2 19 20
M  V30 20 1 19 21
M  V30 21 1 9 4
M  V30 22 1 20 14
M  V30 23 1 3 22
M  V30 24 1 5 23
M  V30 25 1 6 24
M  V30 26 1 8 25
M  V30 27 1 12 26
M  V30 28 1 12 27
M  V30 29 1 17 28
M  V30 30 1 17 29
M  V30 31 1 18 30
M  V30 32 1 21 31
M  V30 33 1 21 32
M  V30 END BOND
M  V30 END CTAB
M  END
