
     RDKit          3D

  0  0  0  0  0  0  0  0  0  0999 V3000
M  V30 BEGIN CTAB
M  V30 COUNTS 42 43 0 0 0
M  V30 BEGIN ATOM
M  V30 1 N 2.71381 -2.75096 1.15445 0
M  V30 2 C 3.01446 -1.88919 0.0457015 0
M  V30 3 C 2.27943 -0.546305 0.195073 0
M  V30 4 C 2.66107 0.261231 -0.999751 0
M  V30 5 C 4.18443 0.50213 -1.08929 0
M  V30 6 C 3.16499 1.63025 -0.97333 0
M  V30 7 N 0.850463 -0.790278 0.232619 0
M  V30 8 C -0.0901803 0.261659 0.351821 0
M  V30 9 O 0.331517 1.43929 0.425627 0
M  V30 10 C -1.56413 -0.0130067 0.390226 0
M  V30 11 C -1.9097 -0.702254 -0.900809 0
M  V30 12 C -3.36897 -0.704413 -1.21652 0
M  V30 13 C -4.03027 0.622126 -0.993966 0
M  V30 14 C -3.77985 1.00483 0.458111 0
M  V30 15 C -2.31047 1.26834 0.601985 0
M  V30 16 N -4.59621 2.1621 0.743225 0
M  V30 17 C 2.67542 0.0874017 1.50217 0
M  V30 18 H 3.50079 -3.31264 1.49456 0
M  V30 19 H 1.80642 -3.24015 1.08392 0
M  V30 20 H 2.71635 -2.39357 -0.883525 0
M  V30 21 H 4.10174 -1.68036 0.0519282 0
M  V30 22 H 2.24016 -0.107964 -1.97483 0
M  V30 23 H 4.68892 0.308175 -2.03439 0
M  V30 24 H 4.78954 0.329051 -0.19076 0
M  V30 25 H 3.25327 2.28033 -0.10305 0
M  V30 26 H 3.09015 2.20577 -1.93862 0
M  V30 27 H 0.488005 -1.77533 0.1702 0
M  V30 28 H -1.72758 -0.690934 1.23619 0
M  V30 29 H -1.58418 -1.76429 -0.796341 0
M  V30 30 H -1.29446 -0.266 -1.70234 0
M  V30 31 H -3.48001 -0.991952 -2.29053 0
M  V30 32 H -3.87024 -1.49971 -0.636291 0
M  V30 33 H -3.51679 1.3781 -1.62117 0
M  V30 34 H -5.10188 0.519484 -1.22337 0
M  V30 35 H -4.0661 0.1396 1.09106 0
M  V30 36 H -2.14182 1.5675 1.6721 0
M  V30 37 H -2.01983 2.06754 -0.0854241 0
M  V30 38 H -5.52068 1.77923 1.10732 0
M  V30 39 H -4.82544 2.65635 -0.126944 0
M  V30 40 H 1.97761 -0.326239 2.28314 0
M  V30 41 H 3.72692 -0.19838 1.72127 0
M  V30 42 H 2.54335 1.17345 1.42562 0
M  V30 END ATOM
M  V30 BEGIN BOND
M  V30 1 1 1 2
M  V30 2 1 2 3
M  V30 3 1 3 4
M  V30 4 1 4 5
M  V30 5 1 5 6
M  V30 6 1 3 7
M  V30 7 1 7 8
M  V30 8 2 8 9
M  V30 9 1 8 10
M  V30 10 1 10 11
M  V30 11 1 11 12
M  V30 12 1 12 13
M  V30 13 1 13 14
M  V30 14 1 14 15
M  V30 15 1 14 16
M  V30 16 1 3 17
M  V30 17 1 6 4
M  V30 18 1 15 10
M  V30 19 1 1 18
M  V30 20 1 1 19
M  V30 21 1 2 20
M  V30 22 1 2 21
M  V30 23 1 4 22
M  V30 24 1 5 23
M  V30 25 1 5 24
M  V30 26 1 6 25
M  V30 27 1 6 26
M  V30 28 1 7 27
M  V30 29 1 10 28
M  V30 30 1 11 29
M  V30 31 1 11 30
M  V30 32 1 12 31
M  V30 33 1 12 32
M  V30 34 1 13 33
M  V30 35 1 13 34
M  V30 36 1 14 35
M  V30 37 1 15 36
M  V30 38 1 15 37
M  V30 39 1 16 38
M  V30 40 1 16 39
M  V30 41 1 17 40
M  V30 42 1 17 41
M  V30 43 1 17 42
M  V30 END BOND
M  V30 END CTAB
M  END
