
     RDKit          3D

  0  0  0  0  0  0  0  0  0  0999 V3000
M  V30 BEGIN CTAB
M  V30 COUNTS 32 32 0 0 0
M  V30 BEGIN ATOM
M  V30 1 N 4.41095 1.29373 0.192883 0
M  V30 2 C 3.96676 0.0325326 -0.449523 0
M  V30 3 C 2.51439 -0.130003 -0.251513 0
M  V30 4 C 1.59414 0.732321 -0.861839 0
M  V30 5 N 0.320547 0.429343 -0.676829 0
M  V30 6 C -0.163277 -0.592993 0.0358978 0
M  V30 7 N 0.761821 -1.43376 0.642947 0
M  V30 8 C 2.07905 -1.16142 0.47212 0
M  V30 9 N 3.02049 -2.05889 1.09869 0
M  V30 10 C -1.55613 -0.889704 0.129283 0
M  V30 11 C -2.5458 0.21623 0.0669378 0
M  V30 12 C -3.91753 -0.507941 0.0126007 0
M  V30 13 C -2.68867 1.02684 1.34852 0
M  V30 14 C -2.40496 1.14525 -1.04765 0
M  V30 15 H 5.36242 1.1376 0.639163 0
M  V30 16 H 3.73078 1.69435 0.836178 0
M  V30 17 H 4.53439 -0.818092 -0.195474 0
M  V30 18 H 4.17303 0.355058 -1.6004 0
M  V30 19 H 1.93865 1.52837 -1.50948 0
M  V30 20 H 3.6054 -1.82614 1.90229 0
M  V30 21 H 3.05325 -3.05262 0.683773 0
M  V30 22 H -1.8074 -1.70693 -0.567239 0
M  V30 23 H -1.72409 -1.35422 1.19519 0
M  V30 24 H -3.73812 -1.24968 -0.827833 0
M  V30 25 H -4.06648 -1.14276 0.898318 0
M  V30 26 H -4.70181 0.174514 -0.265825 0
M  V30 27 H -1.83114 1.60442 1.6294 0
M  V30 28 H -3.53447 1.73896 1.08057 0
M  V30 29 H -3.12296 0.349195 2.12066 0
M  V30 30 H -1.67398 1.99989 -0.815406 0
M  V30 31 H -3.36882 1.74404 -1.1508 0
M  V30 32 H -2.22041 0.722501 -2.05509 0
M  V30 END ATOM
M  V30 BEGIN BOND
M  V30 1 1 1 2
M  V30 2 1 2 3
M  V30 3 2 3 4
M  V30 4 1 4 5
M  V30 5 2 5 6
M  V30 6 1 6 7
M  V30 7 2 7 8
M  V30 8 1 8 9
M  V30 9 1 6 10
M  V30 10 1 10 11
M  V30 11 1 11 12
M  V30 12 1 11 13
M  V30 13 1 11 14
M  V30 14 1 8 3
M  V30 15 1 1 15
M  V30 16 1 1 16
M  V30 17 1 2 17
M  V30 18 1 2 18
M  V30 19 1 4 19
M  V30 20 1 9 20
M  V30 21 1 9 21
M  V30 22 1 10 22
M  V30 23 1 10 23
M  V30 24 1 12 24
M  V30 25 1 12 25
M  V30 26 1 12 26
M  V30 27 1 13 27
M  V30 28 1 13 28
M  V30 29 1 13 29
M  V30 30 1 14 30
M  V30 31 1 14 31
M  V30 32 1 14 32
M  V30 END BOND
M  V30 END CTAB
M  END
