
     RDKit          3D

  0  0  0  0  0  0  0  0  0  0999 V3000
M  V30 BEGIN CTAB
M  V30 COUNTS 40 42 0 0 0
M  V30 BEGIN ATOM
M  V30 1 F 8.32588 -1.64273 2.13852 0
M  V30 2 C 7.15181 -1.1807 1.68175 0
M  V30 3 C 6.14269 -0.914092 2.58518 0
M  V30 4 C 4.95745 -0.445317 2.10077 0
M  V30 5 C 4.75484 -0.236526 0.74041 0
M  V30 6 C 5.79078 -0.513288 -0.156543 0
M  V30 7 C 6.97101 -0.982099 0.345847 0
M  V30 8 O 3.53116 0.23642 0.349826 0
M  V30 9 C 3.19963 0.490017 -1.00177 0
M  V30 10 C 1.79318 1.00009 -1.11816 0
M  V30 11 C 1.43743 2.33664 -1.07122 0
M  V30 12 C 0.0671398 2.3382 -1.21595 0
M  V30 13 C -0.365279 1.03608 -1.34402 0
M  V30 14 O 0.705656 0.286865 -1.27821 0
M  V30 15 C -1.75713 0.596067 -1.51896 0
M  V30 16 O -1.99161 -0.633798 -1.62154 0
M  V30 17 O -2.81528 1.45327 -1.57658 0
M  V30 18 C -4.16329 1.15948 -1.73672 0
M  V30 19 C -4.7525 0.304109 -0.677716 0
M  V30 20 N -4.86556 -1.0216 -0.866841 0
M  V30 21 C -5.40069 -1.83492 0.0827329 0
M  V30 22 N -5.5031 -3.23908 -0.157221 0
M  V30 23 N -5.82911 -1.33221 1.23267 0
M  V30 24 C -5.73169 -0.00465384 1.4582 0
M  V30 25 N -5.19315 0.793033 0.495543 0
M  V30 26 N -6.1716 0.590216 2.6655 0
M  V30 27 H 6.28307 -1.06894 3.62887 0
M  V30 28 H 4.16661 -0.235429 2.79938 0
M  V30 29 H 5.63312 -0.350921 -1.21412 0
M  V30 30 H 7.78917 -1.20535 -0.316129 0
M  V30 31 H 3.86929 1.27565 -1.36873 0
M  V30 32 H 3.33067 -0.426686 -1.62502 0
M  V30 33 H 2.11422 3.17848 -0.94644 0
M  V30 34 H -0.557439 3.23475 -1.22526 0
M  V30 35 H -4.40437 0.736375 -2.74967 0
M  V30 36 H -4.71124 2.14897 -1.73181 0
M  V30 37 H -6.4151 -3.74035 -0.0346384 0
M  V30 38 H -4.69844 -3.80817 -0.45575 0
M  V30 39 H -5.50175 0.89598 3.39529 0
M  V30 40 H -7.18647 0.726149 2.82989 0
M  V30 END ATOM
M  V30 BEGIN BOND
M  V30 1 1 1 2
M  V30 2 2 2 3
M  V30 3 1 3 4
M  V30 4 2 4 5
M  V30 5 1 5 6
M  V30 6 2 6 7
M  V30 7 1 5 8
M  V30 8 1 8 9
M  V30 9 1 9 10
M  V30 10 2 10 11
M  V30 11 1 11 12
M  V30 12 2 12 13
M  V30 13 1 13 14
M  V30 14 1 13 15
M  V30 15 2 15 16
M  V30 16 1 15 17
M  V30 17 1 17 18
M  V30 18 1 18 19
M  V30 19 2 19 20
M  V30 20 1 20 21
M  V30 21 1 21 22
M  V30 22 2 21 23
M  V30 23 1 23 24
M  V30 24 2 24 25
M  V30 25 1 24 26
M  V30 26 1 7 2
M  V30 27 1 14 10
M  V30 28 1 25 19
M  V30 29 1 3 27
M  V30 30 1 4 28
M  V30 31 1 6 29
M  V30 32 1 7 30
M  V30 33 1 9 31
M  V30 34 1 9 32
M  V30 35 1 11 33
M  V30 36 1 12 34
M  V30 37 1 18 35
M  V30 38 1 18 36
M  V30 39 1 22 37
M  V30 40 1 22 38
M  V30 41 1 26 39
M  V30 42 1 26 40
M  V30 END BOND
M  V30 END CTAB
M  END
