
     RDKit          3D

  0  0  0  0  0  0  0  0  0  0999 V3000
M  V30 BEGIN CTAB
M  V30 COUNTS 26 26 0 0 0
M  V30 BEGIN ATOM
M  V30 1 N -1.45571 -2.84905 -1.69302 0
M  V30 2 C -1.57855 -1.94196 -0.991601 0
M  V30 3 C -1.71137 -0.752608 -0.0944875 0
M  V30 4 C -2.83224 -0.110893 -0.160395 0
M  V30 5 N -3.79513 -0.681639 -1.1348 0
M  V30 6 C -3.30942 1.05922 0.57718 0
M  V30 7 C -0.586789 -0.46035 0.706686 0
M  V30 8 O 0.424953 -1.28255 0.616983 0
M  V30 9 C -0.355531 0.628893 1.63584 0
M  V30 10 S 0.752689 1.90607 0.880968 0
M  V30 11 C 2.36708 1.12666 0.646745 0
M  V30 12 N 3.36546 1.08206 1.54154 0
M  V30 13 N 4.34824 0.412113 0.969386 0
M  V30 14 C 4.01583 0.0201913 -0.275167 0
M  V30 15 N 2.76203 0.480977 -0.460815 0
M  V30 16 N 4.78863 -0.72437 -1.22202 0
M  V30 17 H -3.58154 -0.419876 -2.0975 0
M  V30 18 H -4.55337 -1.26159 -0.772165 0
M  V30 19 H -3.38886 0.777842 1.64866 0
M  V30 20 H -2.74143 1.97317 0.480935 0
M  V30 21 H -4.37661 1.24165 0.278028 0
M  V30 22 H 0.259058 0.257579 2.53815 0
M  V30 23 H -1.19713 1.17726 2.04108 0
M  V30 24 H 2.17963 0.353831 -1.34936 0
M  V30 25 H 4.35073 -1.38838 -1.88871 0
M  V30 26 H 5.84937 -0.624238 -1.27909 0
M  V30 END ATOM
M  V30 BEGIN BOND
M  V30 1 3 1 2
M  V30 2 1 2 3
M  V30 3 2 3 4 CFG=2
M  V30 4 1 4 5
M  V30 5 1 4 6
M  V30 6 1 3 7
M  V30 7 2 7 8
M  V30 8 1 7 9
M  V30 9 1 9 10
M  V30 10 1 10 11
M  V30 11 2 11 12
M  V30 12 1 12 13
M  V30 13 2 13 14
M  V30 14 1 14 15
M  V30 15 1 14 16
M  V30 16 1 15 11
M  V30 17 1 5 17
M  V30 18 1 5 18
M  V30 19 1 6 19
M  V30 20 1 6 20
M  V30 21 1 6 21
M  V30 22 1 9 22
M  V30 23 1 9 23
M  V30 24 1 15 24
M  V30 25 1 16 25
M  V30 26 1 16 26
M  V30 END BOND
M  V30 END CTAB
M  END
