
     RDKit          3D

  0  0  0  0  0  0  0  0  0  0999 V3000
M  V30 BEGIN CTAB
M  V30 COUNTS 30 31 0 0 0
M  V30 BEGIN ATOM
M  V30 1 C 5.08731 -0.158557 -1.04037 0
M  V30 2 O 4.34911 0.242031 0.0653553 0
M  V30 3 C 3.03907 -0.14659 0.326619 0
M  V30 4 C 2.35033 0.280512 1.44075 0
M  V30 5 C 1.03494 -0.133454 1.66633 0
M  V30 6 C 0.385981 -0.975787 0.790514 0
M  V30 7 C 1.07265 -1.40662 -0.328026 0
M  V30 8 C 2.37698 -0.988715 -0.54024 0
M  V30 9 C -1.01067 -1.43375 1.00152 0
M  V30 10 C -1.92757 -0.458998 0.344483 0
M  V30 11 N -2.3197 -0.590712 -0.94085 0
M  V30 12 C -3.14752 0.305308 -1.50488 0
M  V30 13 N -3.58946 0.218477 -2.84062 0
M  V30 14 N -3.57638 1.34157 -0.749771 0
M  V30 15 C -3.20701 1.50355 0.530362 0
M  V30 16 N -2.38146 0.587664 1.05198 0
M  V30 17 N -3.66565 2.59896 1.31443 0
M  V30 18 H 4.90433 -1.24577 -1.20472 0
M  V30 19 H 4.91307 0.447032 -1.95223 0
M  V30 20 H 6.17669 -0.094151 -0.751952 0
M  V30 21 H 2.85092 0.933684 2.12162 0
M  V30 22 H 0.489474 0.196449 2.53576 0
M  V30 23 H 0.566363 -2.07944 -1.03555 0
M  V30 24 H 2.87972 -1.35806 -1.44257 0
M  V30 25 H -1.19854 -2.42461 0.544903 0
M  V30 26 H -1.27222 -1.5325 2.07535 0
M  V30 27 H -4.57296 0.446393 -3.07791 0
M  V30 28 H -2.94779 -0.0712756 -3.60189 0
M  V30 29 H -4.20344 3.37802 0.90015 0
M  V30 30 H -3.45656 2.61935 2.32869 0
M  V30 END ATOM
M  V30 BEGIN BOND
M  V30 1 1 1 2
M  V30 2 1 2 3
M  V30 3 2 3 4
M  V30 4 1 4 5
M  V30 5 2 5 6
M  V30 6 1 6 7
M  V30 7 2 7 8
M  V30 8 1 6 9
M  V30 9 1 9 10
M  V30 10 2 10 11
M  V30 11 1 11 12
M  V30 12 1 12 13
M  V30 13 2 12 14
M  V30 14 1 14 15
M  V30 15 2 15 16
M  V30 16 1 15 17
M  V30 17 1 8 3
M  V30 18 1 16 10
M  V30 19 1 1 18
M  V30 20 1 1 19
M  V30 21 1 1 20
M  V30 22 1 4 21
M  V30 23 1 5 22
M  V30 24 1 7 23
M  V30 25 1 8 24
M  V30 26 1 9 25
M  V30 27 1 9 26
M  V30 28 1 13 27
M  V30 29 1 13 28
M  V30 30 1 17 29
M  V30 31 1 17 30
M  V30 END BOND
M  V30 END CTAB
M  END
