
     RDKit          3D

  0  0  0  0  0  0  0  0  0  0999 V3000
M  V30 BEGIN CTAB
M  V30 COUNTS 45 47 0 0 0
M  V30 BEGIN ATOM
M  V30 1 C 4.1034 1.357 -0.894836 0
M  V30 2 C 3.7937 0.943595 0.522575 0
M  V30 3 C 2.30875 0.76312 0.740023 0
M  V30 4 C 1.73353 -0.298502 -0.168054 0
M  V30 5 C 0.268065 -0.504815 0.019103 0
M  V30 6 C -0.118559 -0.929451 1.40069 0
M  V30 7 C -1.58022 -1.25162 1.45556 0
M  V30 8 C -1.96195 -2.28977 0.422293 0
M  V30 9 C -1.63422 -1.76577 -0.9376 0
M  V30 10 C -0.161423 -1.54281 -1.02517 0
M  V30 11 C -2.33145 -0.468969 -1.2593 0
M  V30 12 C -1.96405 0.540713 -0.19984 0
M  V30 13 C -0.474274 0.785003 -0.301931 0
M  V30 14 C -2.36476 0.00770596 1.14057 0
M  V30 15 C -2.66192 1.86328 -0.417048 0
M  V30 16 N -2.31171 2.44078 -1.70258 0
M  V30 17 N 2.44903 -1.53278 -0.107179 0
M  V30 18 H 3.79854 0.600413 -1.64359 0
M  V30 19 H 5.20352 1.53983 -0.938243 0
M  V30 20 H 3.64367 2.36252 -1.12531 0
M  V30 21 H 4.16068 1.72605 1.18912 0
M  V30 22 H 4.35929 0.00979388 0.718822 0
M  V30 23 H 1.84595 1.7548 0.556574 0
M  V30 24 H 2.11824 0.52964 1.80641 0
M  V30 25 H 1.86699 0.100536 -1.2179 0
M  V30 26 H 0.513288 -1.75698 1.79322 0
M  V30 27 H 0.0584501 -0.0674279 2.07607 0
M  V30 28 H -1.91242 -1.63169 2.43122 0
M  V30 29 H -1.31369 -3.17143 0.609271 0
M  V30 30 H -2.99371 -2.61164 0.546405 0
M  V30 31 H -1.89781 -2.55893 -1.67773 0
M  V30 32 H 0.334771 -2.49807 -0.693128 0
M  V30 33 H 0.203619 -1.20827 -1.99895 0
M  V30 34 H -1.9076 -0.101063 -2.21447 0
M  V30 35 H -3.41398 -0.58319 -1.3935 0
M  V30 36 H -0.247273 1.01234 -1.36138 0
M  V30 37 H -0.179786 1.58907 0.396936 0
M  V30 38 H -2.19482 0.789098 1.89981 0
M  V30 39 H -3.4334 -0.275577 1.09065 0
M  V30 40 H -2.273 2.55893 0.368215 0
M  V30 41 H -3.74977 1.80024 -0.26691 0
M  V30 42 H -1.39139 2.9119 -1.59153 0
M  V30 43 H -3.00952 3.21722 -1.87086 0
M  V30 44 H 2.0037 -2.25691 0.492477 0
M  V30 45 H 2.71552 -1.89793 -1.04729 0
M  V30 END ATOM
M  V30 BEGIN BOND
M  V30 1 1 1 2
M  V30 2 1 2 3
M  V30 3 1 3 4
M  V30 4 1 4 5
M  V30 5 1 5 6
M  V30 6 1 6 7
M  V30 7 1 7 8
M  V30 8 1 8 9
M  V30 9 1 9 10
M  V30 10 1 9 11
M  V30 11 1 11 12
M  V30 12 1 12 13
M  V30 13 1 12 14
M  V30 14 1 12 15
M  V30 15 1 15 16
M  V30 16 1 4 17
M  V30 17 1 10 5
M  V30 18 1 13 5
M  V30 19 1 14 7
M  V30 20 1 1 18
M  V30 21 1 1 19
M  V30 22 1 1 20
M  V30 23 1 2 21
M  V30 24 1 2 22
M  V30 25 1 3 23
M  V30 26 1 3 24
M  V30 27 1 4 25
M  V30 28 1 6 26
M  V30 29 1 6 27
M  V30 30 1 7 28
M  V30 31 1 8 29
M  V30 32 1 8 30
M  V30 33 1 9 31
M  V30 34 1 10 32
M  V30 35 1 10 33
M  V30 36 1 11 34
M  V30 37 1 11 35
M  V30 38 1 13 36
M  V30 39 1 13 37
M  V30 40 1 14 38
M  V30 41 1 14 39
M  V30 42 1 15 40
M  V30 43 1 15 41
M  V30 44 1 16 42
M  V30 45 1 16 43
M  V30 46 1 17 44
M  V30 47 1 17 45
M  V30 END BOND
M  V30 END CTAB
M  END
