
     RDKit          3D

  0  0  0  0  0  0  0  0  0  0999 V3000
M  V30 BEGIN CTAB
M  V30 COUNTS 49 51 0 0 0
M  V30 BEGIN ATOM
M  V30 1 C 7.60043 -0.159337 -0.399657 0
M  V30 2 C 7.14132 1.26957 -0.313336 0
M  V30 3 C 5.81569 1.37357 0.44486 0
M  V30 4 C 4.81256 0.543917 -0.333573 0
M  V30 5 C 3.44945 0.568724 0.323613 0
M  V30 6 O 2.58895 -0.225086 -0.466311 0
M  V30 7 C 1.2734 -0.36415 -0.0747019 0
M  V30 8 C 0.434684 -1.13797 -0.844766 0
M  V30 9 C -0.899103 -1.30537 -0.487036 0
M  V30 10 C -1.39107 -0.694217 0.646389 0
M  V30 11 C -0.515038 0.0690323 1.38375 0
M  V30 12 C 0.807998 0.256974 1.06148 0
M  V30 13 C -2.80692 -0.845392 1.07618 0
M  V30 14 C -3.28048 -2.22048 0.994716 0
M  V30 15 C -4.39559 -2.54967 0.373922 0
M  V30 16 N -4.85361 -3.89588 0.297031 0
M  V30 17 O -5.19506 -1.5709 -0.249249 0
M  V30 18 C -4.857 -0.233479 -0.241966 0
M  V30 19 C -3.69521 0.131301 0.402222 0
M  V30 20 C -3.37428 1.4717 0.399598 0
M  V30 21 C -4.17348 2.4176 -0.218151 0
M  V30 22 C -5.33714 2.06438 -0.865352 0
M  V30 23 C -5.66438 0.726207 -0.866675 0
M  V30 24 N -6.15279 3.03835 -1.49715 0
M  V30 25 C -2.49048 -3.24353 1.61979 0
M  V30 26 N -1.84629 -4.05883 2.12945 0
M  V30 27 H 7.48958 -0.518886 -1.43579 0
M  V30 28 H 8.69538 -0.230644 -0.132747 0
M  V30 29 H 7.05044 -0.831038 0.312748 0
M  V30 30 H 6.98237 1.67725 -1.34902 0
M  V30 31 H 7.90286 1.90198 0.180931 0
M  V30 32 H 5.49572 2.41691 0.551454 0
M  V30 33 H 5.95737 0.890288 1.43236 0
M  V30 34 H 5.14372 -0.51437 -0.340076 0
M  V30 35 H 4.70619 0.877017 -1.37694 0
M  V30 36 H 3.03839 1.61344 0.36348 0
M  V30 37 H 3.50209 0.232717 1.37841 0
M  V30 38 H 0.839777 -1.60557 -1.72501 0
M  V30 39 H -1.5601 -1.90965 -1.08564 0
M  V30 40 H -0.885292 0.558538 2.28075 0
M  V30 41 H 1.4798 0.861242 1.65515 0
M  V30 42 H -2.84522 -0.55563 2.17104 0
M  V30 43 H -4.74726 -4.43452 -0.574259 0
M  V30 44 H -5.2932 -4.32401 1.12563 0
M  V30 45 H -2.46471 1.80388 0.899048 0
M  V30 46 H -3.91186 3.47856 -0.215728 0
M  V30 47 H -6.57848 0.390238 -1.36651 0
M  V30 48 H -7.2097 2.95045 -1.4503 0
M  V30 49 H -5.78442 3.84478 -2.01091 0
M  V30 END ATOM
M  V30 BEGIN BOND
M  V30 1 1 1 2
M  V30 2 1 2 3
M  V30 3 1 3 4
M  V30 4 1 4 5
M  V30 5 1 5 6
M  V30 6 1 6 7
M  V30 7 2 7 8
M  V30 8 1 8 9
M  V30 9 2 9 10
M  V30 10 1 10 11
M  V30 11 2 11 12
M  V30 12 1 10 13
M  V30 13 1 13 14
M  V30 14 2 14 15
M  V30 15 1 15 16
M  V30 16 1 15 17
M  V30 17 1 17 18
M  V30 18 2 18 19
M  V30 19 1 19 20
M  V30 20 2 20 21
M  V30 21 1 21 22
M  V30 22 2 22 23
M  V30 23 1 22 24
M  V30 24 1 14 25
M  V30 25 3 25 26
M  V30 26 1 12 7
M  V30 27 1 19 13
M  V30 28 1 23 18
M  V30 29 1 1 27
M  V30 30 1 1 28
M  V30 31 1 1 29
M  V30 32 1 2 30
M  V30 33 1 2 31
M  V30 34 1 3 32
M  V30 35 1 3 33
M  V30 36 1 4 34
M  V30 37 1 4 35
M  V30 38 1 5 36
M  V30 39 1 5 37
M  V30 40 1 8 38
M  V30 41 1 9 39
M  V30 42 1 11 40
M  V30 43 1 12 41
M  V30 44 1 13 42
M  V30 45 1 16 43
M  V30 46 1 16 44
M  V30 47 1 20 45
M  V30 48 1 21 46
M  V30 49 1 23 47
M  V30 50 1 24 48
M  V30 51 1 24 49
M  V30 END BOND
M  V30 END CTAB
M  END
