
     RDKit          3D

  0  0  0  0  0  0  0  0  0  0999 V3000
M  V30 BEGIN CTAB
M  V30 COUNTS 62 69 0 0 0
M  V30 BEGIN ATOM
M  V30 1 C 4.44436 -1.02961 1.71081 0 CFG=2
M  V30 2 S 5.60557 0.132691 2.52842 0
M  V30 3 C 6.97612 -0.275849 1.46151 0
M  V30 4 N 8.30354 -0.154068 1.3985 0
M  V30 5 C 8.7069 -0.74511 0.230063 0
M  V30 6 C 7.54904 -1.20367 -0.360109 0
M  V30 7 N 7.69737 -1.83489 -1.54704 0
M  V30 8 C 8.88121 -2.02635 -2.1519 0
M  V30 9 N 9.98016 -1.55972 -1.53431 0
M  V30 10 C 9.93711 -0.923013 -0.359965 0
M  V30 11 N 11.0769 -0.424201 0.307738 0
M  V30 12 N 6.46697 -0.903337 0.421888 0
M  V30 13 C 5.07089 -1.08503 0.3718 0 CFG=2
M  V30 14 O 4.39389 -0.113025 -0.366797 0
M  V30 15 C 3.06992 -0.417294 -0.0569207 0 CFG=2
M  V30 16 C 2.0937 0.580885 -0.630928 0
M  V30 17 O 0.814965 0.15752 -0.246614 0
M  V30 18 P -0.370888 1.22666 -0.84991 0
M  V30 19 O 0.206648 2.80437 -0.534518 0
M  V30 20 O -0.507053 1.03754 -2.32156 0
M  V30 21 O -1.7775 0.956281 0.00384855 0
M  V30 22 C -2.91871 1.39189 -0.687216 0 CFG=2
M  V30 23 C -3.67734 2.35992 0.174631 0 CFG=1
M  V30 24 C -3.83482 3.68846 -0.56454 0
M  V30 25 O -4.45706 3.52774 -1.79256 0
M  V30 26 O -4.93688 1.81364 0.384553 0
M  V30 27 C -4.77563 0.427708 0.373542 0 CFG=1
M  V30 28 N -6.04143 -0.196029 0.119911 0
M  V30 29 C -6.4286 -0.261597 -1.15059 0
M  V30 30 S -5.10794 0.469359 -2.11752 0
M  V30 31 C -3.84271 0.234533 -0.789393 0 CFG=1
M  V30 32 N -7.63088 -0.849676 -1.25047 0
M  V30 33 C -8.06113 -1.18867 -0.0115967 0
M  V30 34 C -7.06381 -0.77842 0.844507 0
M  V30 35 N -7.19807 -0.978482 2.16634 0
M  V30 36 C -8.28524 -1.57121 2.67695 0
M  V30 37 N -9.25087 -1.96667 1.83067 0
M  V30 38 C -9.17046 -1.79322 0.50679 0
M  V30 39 N -10.1886 -2.20928 -0.394546 0
M  V30 40 C 3.11662 -0.374443 1.45731 0 CFG=1
M  V30 41 O 2.13371 -1.20544 2.00357 0
M  V30 42 H 4.39783 -1.98786 2.21391 0
M  V30 43 H 8.92477 -2.54253 -3.10581 0
M  V30 44 H 11.9818 -0.925622 0.171426 0
M  V30 45 H 11.0805 0.406232 0.925312 0
M  V30 46 H 4.80035 -2.07226 -0.0623611 0
M  V30 47 H 2.85475 -1.44375 -0.361502 0
M  V30 48 H 2.30588 1.60605 -0.332041 0
M  V30 49 H 2.1334 0.463044 -1.73343 0
M  V30 50 H -0.210901 3.15793 0.29363 0
M  V30 51 H -2.64198 1.83066 -1.67133 0
M  V30 52 H -3.22022 2.57208 1.13946 0
M  V30 53 H -2.84974 4.15016 -0.758417 0
M  V30 54 H -4.41619 4.41062 0.0258151 0
M  V30 55 H -4.14558 4.20228 -2.43425 0
M  V30 56 H -4.34654 0.0555128 1.32445 0
M  V30 57 H -3.38662 -0.744746 -0.847331 0
M  V30 58 H -8.39169 -1.73379 3.76431 0
M  V30 59 H -11.1926 -2.01679 -0.154822 0
M  V30 60 H -9.88131 -2.69418 -1.26547 0
M  V30 61 H 3.03795 0.6463 1.86222 0
M  V30 62 H 2.16619 -2.08021 1.5712 0
M  V30 END ATOM
M  V30 BEGIN BOND
M  V30 1 1 1 2
M  V30 2 1 2 3
M  V30 3 2 3 4
M  V30 4 1 4 5
M  V30 5 2 5 6
M  V30 6 1 6 7
M  V30 7 2 7 8
M  V30 8 1 8 9
M  V30 9 2 9 10
M  V30 10 1 10 11
M  V30 11 1 6 12
M  V30 12 1 12 13
M  V30 13 1 13 14
M  V30 14 1 14 15
M  V30 15 1 15 16
M  V30 16 1 16 17
M  V30 17 1 17 18
M  V30 18 1 18 19
M  V30 19 2 18 20
M  V30 20 1 18 21
M  V30 21 1 21 22
M  V30 22 1 22 23
M  V30 23 1 23 24
M  V30 24 1 24 25
M  V30 25 1 23 26
M  V30 26 1 26 27
M  V30 27 1 27 28
M  V30 28 1 28 29
M  V30 29 1 29 30
M  V30 30 1 30 31
M  V30 31 2 29 32
M  V30 32 1 32 33
M  V30 33 2 33 34
M  V30 34 1 34 35
M  V30 35 2 35 36
M  V30 36 1 36 37
M  V30 37 2 37 38
M  V30 38 1 38 39
M  V30 39 1 15 40
M  V30 40 1 40 41
M  V30 41 1 13 1
M  V30 42 1 31 22
M  V30 43 1 38 33
M  V30 44 1 40 1
M  V30 45 1 12 3
M  V30 46 1 31 27
M  V30 47 1 10 5
M  V30 48 1 34 28
M  V30 49 1 1 42 CFG=1
M  V30 50 1 8 43
M  V30 51 1 11 44
M  V30 52 1 11 45
M  V30 53 1 13 46 CFG=3
M  V30 54 1 15 47 CFG=1
M  V30 55 1 16 48
M  V30 56 1 16 49
M  V30 57 1 19 50
M  V30 58 1 22 51 CFG=3
M  V30 59 1 23 52 CFG=1
M  V30 60 1 24 53
M  V30 61 1 24 54
M  V30 62 1 25 55
M  V30 63 1 27 56 CFG=1
M  V30 64 1 31 57 CFG=1
M  V30 65 1 36 58
M  V30 66 1 39 59
M  V30 67 1 39 60
M  V30 68 1 40 61 CFG=3
M  V30 69 1 41 62
M  V30 END BOND
M  V30 END CTAB
M  END
