
     RDKit          3D

  0  0  0  0  0  0  0  0  0  0999 V3000
M  V30 BEGIN CTAB
M  V30 COUNTS 28 28 0 0 0
M  V30 BEGIN ATOM
M  V30 1 N -4.25921 0.785344 -0.365136 0
M  V30 2 C -2.83877 0.720869 -0.738978 0
M  V30 3 C -2.10026 0.141547 0.411292 0
M  V30 4 N -0.698559 0.002261 0.228789 0
M  V30 5 C 0.0239258 -0.546159 1.3089 0
M  V30 6 C 1.40679 0.119252 1.31489 0
M  V30 7 N 1.96965 -0.132014 0.00506591 0
M  V30 8 C 1.20566 -0.655171 -1.08587 0
M  V30 9 C -0.240741 -0.266702 -1.07161 0
M  V30 10 C 3.34867 0.15886 -0.19439 0
M  V30 11 S 4.28257 0.764842 1.02853 0
M  V30 12 N 4.00558 -0.0451187 -1.4267 0
M  V30 13 H -4.87751 0.753257 -1.20439 0
M  V30 14 H -4.44626 0.0156049 0.309173 0
M  V30 15 H -2.5324 1.8006 -0.847953 0
M  V30 16 H -2.75819 0.169334 -1.67372 0
M  V30 17 H -2.53657 -0.874897 0.636673 0
M  V30 18 H -2.2833 0.75253 1.31351 0
M  V30 19 H 0.214566 -1.6348 1.24821 0
M  V30 20 H -0.486294 -0.301053 2.25711 0
M  V30 21 H 1.29508 1.22112 1.42173 0
M  V30 22 H 2.0197 -0.288573 2.12934 0
M  V30 23 H 1.27959 -1.77764 -1.11011 0
M  V30 24 H 1.67015 -0.2895 -2.04213 0
M  V30 25 H -0.816437 -1.02517 -1.63646 0
M  V30 26 H -0.33382 0.679032 -1.6826 0
M  V30 27 H 4.20891 0.751789 -2.03767 0
M  V30 28 H 4.27749 -0.999434 -1.70464 0
M  V30 END ATOM
M  V30 BEGIN BOND
M  V30 1 1 1 2
M  V30 2 1 2 3
M  V30 3 1 3 4
M  V30 4 1 4 5
M  V30 5 1 5 6
M  V30 6 1 6 7
M  V30 7 1 7 8
M  V30 8 1 8 9
M  V30 9 1 7 10
M  V30 10 2 10 11
M  V30 11 1 10 12
M  V30 12 1 9 4
M  V30 13 1 1 13
M  V30 14 1 1 14
M  V30 15 1 2 15
M  V30 16 1 2 16
M  V30 17 1 3 17
M  V30 18 1 3 18
M  V30 19 1 5 19
M  V30 20 1 5 20
M  V30 21 1 6 21
M  V30 22 1 6 22
M  V30 23 1 8 23
M  V30 24 1 8 24
M  V30 25 1 9 25
M  V30 26 1 9 26
M  V30 27 1 12 27
M  V30 28 1 12 28
M  V30 END BOND
M  V30 END CTAB
M  END
