
     RDKit          3D

  0  0  0  0  0  0  0  0  0  0999 V3000
M  V30 BEGIN CTAB
M  V30 COUNTS 46 48 0 0 0
M  V30 BEGIN ATOM
M  V30 1 N 3.363 1.84227 3.10672 0
M  V30 2 C 3.44262 1.0349 1.92896 0
M  V30 3 N 4.61987 0.606541 1.43539 0
M  V30 4 C 4.68563 -0.156906 0.320137 0
M  V30 5 N 5.95316 -0.593401 -0.174262 0
M  V30 6 N 3.54279 -0.495437 -0.310129 0
M  V30 7 C 2.33143 -0.112517 0.112541 0
M  V30 8 C 2.28139 0.664825 1.25011 0
M  V30 9 N 1.1811 -0.512723 -0.60881 0
M  V30 10 C 1.34444 -1.34601 -1.76384 0
M  V30 11 C 0.111252 -2.25664 -1.77713 0
M  V30 12 C -1.06853 -1.36017 -2.05409 0 CFG=1
M  V30 13 C -1.25492 -0.285989 -1.01496 0 CFG=2
M  V30 14 C -0.0977744 -0.0480509 -0.125466 0
M  V30 15 C -2.56593 -0.514071 -0.32925 0
M  V30 16 C -2.942 0.422494 0.717473 0
M  V30 17 C -2.66454 0.272855 2.04717 0
M  V30 18 C -3.05239 1.21109 2.97148 0
M  V30 19 C -3.74418 2.35627 2.60415 0
M  V30 20 C -4.02378 2.50477 1.2568 0
M  V30 21 C -3.64013 1.57065 0.319178 0
M  V30 22 C -0.847777 -0.773801 -3.45492 0
M  V30 23 O -2.17896 -2.19832 -2.16935 0
M  V30 24 H 2.59736 1.73623 3.79844 0
M  V30 25 H 4.10267 2.55574 3.26408 0
M  V30 26 H 6.15514 -0.664799 -1.20988 0
M  V30 27 H 6.67491 -0.839853 0.525766 0
M  V30 28 H 1.33934 1.00797 1.64749 0
M  V30 29 H 2.24313 -1.98274 -1.62244 0
M  V30 30 H 1.36961 -0.809355 -2.7127 0
M  V30 31 H 0.233975 -2.9234 -2.64315 0
M  V30 32 H 0.0807044 -2.74909 -0.807536 0
M  V30 33 H -1.39696 0.672057 -1.60632 0
M  V30 34 H 0.0555023 1.05497 0.0822104 0
M  V30 35 H -0.265081 -0.575694 0.836788 0
M  V30 36 H -2.61108 -1.54996 0.125003 0
M  V30 37 H -3.36522 -0.507764 -1.09913 0
M  V30 38 H -2.12267 -0.634342 2.32211 0
M  V30 39 H -2.79432 1.01759 4.00237 0
M  V30 40 H -4.04275 3.0862 3.34372 0
M  V30 41 H -4.56476 3.40283 0.978667 0
M  V30 42 H -3.88525 1.73613 -0.727732 0
M  V30 43 H -1.84864 -0.62378 -3.92502 0
M  V30 44 H -0.343772 -1.56428 -4.04771 0
M  V30 45 H -0.277658 0.173148 -3.40211 0
M  V30 46 H -2.10995 -2.85043 -1.41082 0
M  V30 END ATOM
M  V30 BEGIN BOND
M  V30 1 1 1 2
M  V30 2 2 2 3
M  V30 3 1 3 4
M  V30 4 1 4 5
M  V30 5 2 4 6
M  V30 6 1 6 7
M  V30 7 2 7 8
M  V30 8 1 7 9
M  V30 9 1 9 10
M  V30 10 1 10 11
M  V30 11 1 11 12
M  V30 12 1 12 13
M  V30 13 1 13 14
M  V30 14 1 13 15
M  V30 15 1 15 16
M  V30 16 2 16 17
M  V30 17 1 17 18
M  V30 18 2 18 19
M  V30 19 1 19 20
M  V30 20 2 20 21
M  V30 21 1 12 22
M  V30 22 1 12 23 CFG=3
M  V30 23 1 8 2
M  V30 24 1 14 9
M  V30 25 1 21 16
M  V30 26 1 1 24
M  V30 27 1 1 25
M  V30 28 1 5 26
M  V30 29 1 5 27
M  V30 30 1 8 28
M  V30 31 1 10 29
M  V30 32 1 10 30
M  V30 33 1 11 31
M  V30 34 1 11 32
M  V30 35 1 13 33 CFG=3
M  V30 36 1 14 34
M  V30 37 1 14 35
M  V30 38 1 15 36
M  V30 39 1 15 37
M  V30 40 1 17 38
M  V30 41 1 18 39
M  V30 42 1 19 40
M  V30 43 1 20 41
M  V30 44 1 21 42
M  V30 45 1 22 43
M  V30 46 1 22 44
M  V30 47 1 22 45
M  V30 48 1 23 46
M  V30 END BOND
M  V30 END CTAB
M  END
