
     RDKit          3D

  0  0  0  0  0  0  0  0  0  0999 V3000
M  V30 BEGIN CTAB
M  V30 COUNTS 89 89 0 0 0
M  V30 BEGIN ATOM
M  V30 1 C 9.8525 5.51288 -1.28778 0
M  V30 2 C 8.79057 4.48122 -1.148 0
M  V30 3 S 7.21022 5.28793 -0.79891 0
M  V30 4 C 5.9 4.03959 -0.664651 0
M  V30 5 O 4.79584 4.40944 -0.355348 0
M  V30 6 C 6.2749 2.63283 -0.946459 0
M  V30 7 N 5.25921 1.69364 -0.829423 0
M  V30 8 C 4.2777 0.79107 -0.720129 0
M  V30 9 O 3.15291 0.776864 -1.33664 0
M  V30 10 C 4.52617 -0.354115 0.245001 0 CFG=2
M  V30 11 C 5.3225 -1.40874 -0.552562 0
M  V30 12 N 3.29058 -0.877055 0.691244 0
M  V30 13 C 2.3612 -1.6549 -0.0342851 0
M  V30 14 O 2.5059 -1.99521 -1.2469 0
M  V30 15 C 1.14564 -2.08138 0.73148 0 CFG=2
M  V30 16 C 1.38185 -3.37849 1.44942 0
M  V30 17 C 0.165104 -3.77282 2.22251 0
M  V30 18 C 0.353153 -5.12935 2.90425 0
M  V30 19 N 1.48168 -5.07572 3.80187 0
M  V30 20 C 1.54547 -4.33989 4.98984 0
M  V30 21 N 2.82801 -3.96159 5.52349 0
M  V30 22 N 0.512399 -3.96679 5.66734 0
M  V30 23 N -0.0101575 -2.16024 -0.148806 0
M  V30 24 C -1.05296 -1.19741 -0.053184 0
M  V30 25 O -0.864472 -0.279441 0.825349 0
M  V30 26 C -2.28299 -1.14458 -0.821212 0 CFG=2
M  V30 27 C -2.15034 -1.18781 -2.30105 0
M  V30 28 C -3.46347 -1.13273 -2.98864 0
M  V30 29 C -3.98205 0.0667776 -3.38741 0
M  V30 30 C -5.23347 0.126212 -4.02311 0
M  V30 31 C -5.9644 -1.02505 -4.25777 0
M  V30 32 O -7.18791 -1.03166 -4.87458 0
M  V30 33 C -5.43078 -2.22578 -3.84982 0
M  V30 34 C -4.1971 -2.27373 -3.22529 0
M  V30 35 N -3.10516 0.00489089 -0.448651 0
M  V30 36 C -4.0762 -0.00376573 0.526073 0
M  V30 37 O -4.29739 -1.06363 1.18642 0
M  V30 38 C -4.89217 1.17215 0.86537 0 CFG=1
M  V30 39 N -4.88589 1.49495 2.27965 0
M  V30 40 C -4.63284 2.37965 0.0060021 0
M  V30 41 C -5.5491 3.48636 0.495791 0
M  V30 42 C -5.35544 4.74751 -0.327951 0
M  V30 43 C -6.9656 2.99013 0.481558 0
M  V30 44 H 9.40704 6.51808 -1.20761 0
M  V30 45 H 10.6511 5.35639 -0.53669 0
M  V30 46 H 10.3491 5.44314 -2.28288 0
M  V30 47 H 9.08097 3.79996 -0.29235 0
M  V30 48 H 8.70354 3.8043 -2.02927 0
M  V30 49 H 6.75973 2.54781 -1.97324 0
M  V30 50 H 7.1512 2.40311 -0.248413 0
M  V30 51 H 4.51944 2.3785 -1.77172 0
M  V30 52 H 5.21704 -0.0561291 1.04369 0
M  V30 53 H 5.24491 -2.38681 -0.0443515 0
M  V30 54 H 6.35795 -1.03061 -0.597904 0
M  V30 55 H 4.88492 -1.4281 -1.56368 0
M  V30 56 H 3.05274 -0.636254 1.71426 0
M  V30 57 H 0.937427 -1.29495 1.47286 0
M  V30 58 H 1.71765 -4.18748 0.766207 0
M  V30 59 H 2.19246 -3.20351 2.16994 0
M  V30 60 H -0.756506 -3.75579 1.61272 0
M  V30 61 H 0.022746 -2.98143 3.0218 0
M  V30 62 H -0.559142 -5.28436 3.5194 0
M  V30 63 H 0.452247 -5.95346 2.19393 0
M  V30 64 H 2.3435 -5.64599 3.54527 0
M  V30 65 H 3.06564 -4.03129 6.53575 0
M  V30 66 H 3.59339 -3.5885 4.8836 0
M  V30 67 H 0.597668 -3.41169 6.56272 0
M  V30 68 H -0.099981 -2.91423 -0.858672 0
M  V30 69 H -2.90573 -2.02066 -0.423838 0
M  V30 70 H -1.56043 -0.332686 -2.63883 0
M  V30 71 H -1.66106 -2.14763 -2.64626 0
M  V30 72 H -3.50026 1.01741 -3.25789 0
M  V30 73 H -5.65067 1.04633 -4.33678 0
M  V30 74 H -7.69084 -1.89084 -5.0261 0
M  V30 75 H -5.97816 -3.12748 -4.02169 0
M  V30 76 H -3.8255 -3.23475 -2.93297 0
M  V30 77 H -2.91278 0.885285 -0.966406 0
M  V30 78 H -5.99585 0.932263 0.66876 0
M  V30 79 H -4.82463 0.577306 2.78815 0
M  V30 80 H -4.11106 2.13943 2.51937 0
M  V30 81 H -3.58381 2.71876 0.0411915 0
M  V30 82 H -4.94841 2.15593 -1.04909 0
M  V30 83 H -5.27027 3.74532 1.5514 0
M  V30 84 H -5.96029 4.72754 -1.23849 0
M  V30 85 H -4.29384 4.76953 -0.644288 0
M  V30 86 H -5.56972 5.64158 0.300369 0
M  V30 87 H -7.1416 2.25584 -0.333118 0
M  V30 88 H -7.16856 2.48608 1.44076 0
M  V30 89 H -7.68703 3.8225 0.306283 0
M  V30 END ATOM
M  V30 BEGIN BOND
M  V30 1 1 1 2
M  V30 2 1 2 3
M  V30 3 1 3 4
M  V30 4 2 4 5
M  V30 5 1 4 6
M  V30 6 1 6 7
M  V30 7 1 7 8
M  V30 8 2 8 9
M  V30 9 1 8 10
M  V30 10 1 10 11
M  V30 11 1 10 12
M  V30 12 1 12 13
M  V30 13 2 13 14
M  V30 14 1 13 15
M  V30 15 1 15 16
M  V30 16 1 16 17
M  V30 17 1 17 18
M  V30 18 1 18 19
M  V30 19 1 19 20
M  V30 20 1 20 21
M  V30 21 2 20 22 CFG=2
M  V30 22 1 15 23
M  V30 23 1 23 24
M  V30 24 2 24 25
M  V30 25 1 24 26
M  V30 26 1 26 27
M  V30 27 1 27 28
M  V30 28 2 28 29
M  V30 29 1 29 30
M  V30 30 2 30 31
M  V30 31 1 31 32
M  V30 32 1 31 33
M  V30 33 2 33 34
M  V30 34 1 26 35
M  V30 35 1 35 36
M  V30 36 2 36 37
M  V30 37 1 36 38
M  V30 38 1 38 39
M  V30 39 1 38 40
M  V30 40 1 40 41
M  V30 41 1 41 42
M  V30 42 1 41 43
M  V30 43 1 34 28
M  V30 44 1 1 44
M  V30 45 1 1 45
M  V30 46 1 1 46
M  V30 47 1 2 47
M  V30 48 1 2 48
M  V30 49 1 6 49
M  V30 50 1 6 50
M  V30 51 1 7 51
M  V30 52 1 10 52 CFG=1
M  V30 53 1 11 53
M  V30 54 1 11 54
M  V30 55 1 11 55
M  V30 56 1 12 56
M  V30 57 1 15 57 CFG=1
M  V30 58 1 16 58
M  V30 59 1 16 59
M  V30 60 1 17 60
M  V30 61 1 17 61
M  V30 62 1 18 62
M  V30 63 1 18 63
M  V30 64 1 19 64
M  V30 65 1 21 65
M  V30 66 1 21 66
M  V30 67 1 22 67
M  V30 68 1 23 68
M  V30 69 1 26 69 CFG=1
M  V30 70 1 27 70
M  V30 71 1 27 71
M  V30 72 1 29 72
M  V30 73 1 30 73
M  V30 74 1 32 74
M  V30 75 1 33 75
M  V30 76 1 34 76
M  V30 77 1 35 77
M  V30 78 1 38 78 CFG=3
M  V30 79 1 39 79
M  V30 80 1 39 80
M  V30 81 1 40 81
M  V30 82 1 40 82
M  V30 83 1 41 83
M  V30 84 1 42 84
M  V30 85 1 42 85
M  V30 86 1 42 86
M  V30 87 1 43 87
M  V30 88 1 43 88
M  V30 89 1 43 89
M  V30 END BOND
M  V30 END CTAB
M  END
