
     RDKit          3D

  0  0  0  0  0  0  0  0  0  0999 V3000
M  V30 BEGIN CTAB
M  V30 COUNTS 22 23 0 0 0
M  V30 BEGIN ATOM
M  V30 1 N -2.13982 -2.22751 0.289217 0
M  V30 2 C -1.91502 -0.838941 0.0902989 0
M  V30 3 C -0.640506 -0.337789 -0.0502891 0
M  V30 4 C -0.494861 1.00969 -0.239136 0
M  V30 5 S 1.09598 1.78629 -0.434907 0
M  V30 6 C 2.42321 0.598347 -0.352609 0
M  V30 7 N 3.04477 0.246688 0.785383 0
M  V30 8 C 3.99616 -0.660407 0.545823 0
M  V30 9 C 3.98483 -0.902576 -0.810337 0
M  V30 10 N 3.01738 -0.120306 -1.31959 0
M  V30 11 N -1.5892 1.78405 -0.279749 0
M  V30 12 C -2.83661 1.28652 -0.141208 0
M  V30 13 N -3.00499 -0.0344678 0.0454015 0
M  V30 14 N -4.00154 2.10053 -0.183073 0
M  V30 15 H -2.20188 -2.81675 -0.568738 0
M  V30 16 H -2.22799 -2.57039 1.26133 0
M  V30 17 H 0.215662 -0.991944 -0.0120386 0
M  V30 18 H 2.84342 0.610293 1.75807 0
M  V30 19 H 4.64507 -1.11083 1.28642 0
M  V30 20 H 4.65148 -1.60052 -1.31308 0
M  V30 21 H -4.29844 2.59933 -1.04464 0
M  V30 22 H -4.56713 2.19071 0.687445 0
M  V30 END ATOM
M  V30 BEGIN BOND
M  V30 1 1 1 2
M  V30 2 2 2 3
M  V30 3 1 3 4
M  V30 4 1 4 5
M  V30 5 1 5 6
M  V30 6 1 6 7
M  V30 7 1 7 8
M  V30 8 2 8 9
M  V30 9 1 9 10
M  V30 10 2 4 11
M  V30 11 1 11 12
M  V30 12 2 12 13
M  V30 13 1 12 14
M  V30 14 1 13 2
M  V30 15 2 10 6
M  V30 16 1 1 15
M  V30 17 1 1 16
M  V30 18 1 3 17
M  V30 19 1 7 18
M  V30 20 1 8 19
M  V30 21 1 9 20
M  V30 22 1 14 21
M  V30 23 1 14 22
M  V30 END BOND
M  V30 END CTAB
M  END
