
     RDKit          3D

  0  0  0  0  0  0  0  0  0  0999 V3000
M  V30 BEGIN CTAB
M  V30 COUNTS 45 47 0 0 0
M  V30 BEGIN ATOM
M  V30 1 C 6.39104 1.07667 -0.408484 0
M  V30 2 C 5.56463 0.38174 -1.43707 0
M  V30 3 S 4.80222 -1.10489 -0.841104 0
M  V30 4 O 5.92665 -2.02977 -0.403882 0
M  V30 5 O 4.11774 -1.76058 -1.97864 0
M  V30 6 N 3.7633 -0.830071 0.471716 0
M  V30 7 C 4.06334 -0.295686 1.78094 0
M  V30 8 C 2.82157 0.52012 2.06674 0
M  V30 9 C 1.75297 -0.302324 1.44582 0
M  V30 10 C 2.3508 -1.09675 0.495243 0
M  V30 11 C 1.5296 -1.9553 -0.21757 0
M  V30 12 C 0.170707 -2.02794 -0.0011499 0
M  V30 13 C -0.433858 -1.22837 0.956506 0
M  V30 14 C 0.383879 -0.376762 1.66262 0
M  V30 15 C -1.89273 -1.31119 1.18229 0
M  V30 16 O -2.61076 -2.07513 0.524628 0
M  V30 17 C -2.48746 -0.44903 2.22679 0
M  V30 18 S -2.83327 1.20481 1.57644 0
M  V30 19 C -4.14095 1.06349 0.376685 0
M  V30 20 N -4.75584 -0.067034 0.0396776 0
M  V30 21 C -5.74028 -0.135858 -0.872803 0
M  V30 22 N -6.37082 -1.34789 -1.20581 0
M  V30 23 C -6.11171 1.04297 -1.47521 0
M  V30 24 C -5.49487 2.22581 -1.1475 0
M  V30 25 N -4.52741 2.21494 -0.233835 0
M  V30 26 N -5.875 3.45917 -1.77047 0
M  V30 27 H 6.85406 0.357947 0.319166 0
M  V30 28 H 5.84682 1.88357 0.124416 0
M  V30 29 H 7.23437 1.58036 -0.931249 0
M  V30 30 H 4.78734 1.08806 -1.80231 0
M  V30 31 H 6.23083 0.0833413 -2.27666 0
M  V30 32 H 4.05095 -1.13938 2.52788 0
M  V30 33 H 4.98524 0.280701 1.83711 0
M  V30 34 H 2.68502 0.61409 3.16669 0
M  V30 35 H 2.86508 1.49984 1.56423 0
M  V30 36 H 2.00914 -2.57483 -0.96366 0
M  V30 37 H -0.442958 -2.70616 -0.572054 0
M  V30 38 H -0.0703064 0.26643 2.42157 0
M  V30 39 H -1.84518 -0.321022 3.1241 0
M  V30 40 H -3.42186 -0.915753 2.63343 0
M  V30 41 H -6.53037 -1.58561 -2.19635 0
M  V30 42 H -6.67205 -1.99564 -0.462648 0
M  V30 43 H -6.89915 1.0091 -2.20951 0
M  V30 44 H -6.71532 3.92752 -1.41329 0
M  V30 45 H -5.31517 3.85229 -2.54951 0
M  V30 END ATOM
M  V30 BEGIN BOND
M  V30 1 1 1 2
M  V30 2 1 2 3
M  V30 3 2 3 4
M  V30 4 2 3 5
M  V30 5 1 3 6
M  V30 6 1 6 7
M  V30 7 1 7 8
M  V30 8 1 8 9
M  V30 9 2 9 10
M  V30 10 1 10 11
M  V30 11 2 11 12
M  V30 12 1 12 13
M  V30 13 2 13 14
M  V30 14 1 13 15
M  V30 15 2 15 16
M  V30 16 1 15 17
M  V30 17 1 17 18
M  V30 18 1 18 19
M  V30 19 2 19 20
M  V30 20 1 20 21
M  V30 21 1 21 22
M  V30 22 2 21 23
M  V30 23 1 23 24
M  V30 24 2 24 25
M  V30 25 1 24 26
M  V30 26 1 10 6
M  V30 27 1 25 19
M  V30 28 1 14 9
M  V30 29 1 1 27
M  V30 30 1 1 28
M  V30 31 1 1 29
M  V30 32 1 2 30
M  V30 33 1 2 31
M  V30 34 1 7 32
M  V30 35 1 7 33
M  V30 36 1 8 34
M  V30 37 1 8 35
M  V30 38 1 11 36
M  V30 39 1 12 37
M  V30 40 1 14 38
M  V30 41 1 17 39
M  V30 42 1 17 40
M  V30 43 1 22 41
M  V30 44 1 22 42
M  V30 45 1 23 43
M  V30 46 1 26 44
M  V30 47 1 26 45
M  V30 END BOND
M  V30 END CTAB
M  END
