
     RDKit          3D

  0  0  0  0  0  0  0  0  0  0999 V3000
M  V30 BEGIN CTAB
M  V30 COUNTS 22 22 0 0 0
M  V30 BEGIN ATOM
M  V30 1 C -1.57839 1.40639 0.440797 0
M  V30 2 C -1.38146 -0.0788866 0.1716 0
M  V30 3 C -0.0772192 -0.215645 -0.572801 0
M  V30 4 N 0.116216 -0.544685 -1.82789 0
M  V30 5 N 1.44983 -0.580375 -2.02752 0
M  V30 6 C 2.08317 -0.273793 -0.885984 0
M  V30 7 N 1.10647 -0.0492044 0.0101172 0
M  V30 8 N 1.37654 0.287415 1.33511 0
M  V30 9 N 3.45407 -0.166922 -0.610254 0
M  V30 10 O -1.15904 -0.764207 1.41279 0
M  V30 11 C -2.53111 -0.736006 -0.554264 0
M  V30 12 H -2.65704 1.59975 0.338523 0
M  V30 13 H -1.03474 1.98825 -0.346429 0
M  V30 14 H -1.13557 1.65143 1.42899 0
M  V30 15 H 1.67907 -0.398707 2.03054 0
M  V30 16 H 1.24606 1.29781 1.55292 0
M  V30 17 H 4.16998 -0.669798 -1.20164 0
M  V30 18 H 3.83126 0.420196 0.1686 0
M  V30 19 H -0.57931 -1.53213 1.32114 0
M  V30 20 H -3.35833 -0.818881 0.17677 0
M  V30 21 H -2.19335 -1.7453 -0.869325 0
M  V30 22 H -2.8271 -0.076701 -1.3899 0
M  V30 END ATOM
M  V30 BEGIN BOND
M  V30 1 1 1 2
M  V30 2 1 2 3
M  V30 3 2 3 4
M  V30 4 1 4 5
M  V30 5 2 5 6
M  V30 6 1 6 7
M  V30 7 1 7 8
M  V30 8 1 6 9
M  V30 9 1 2 10
M  V30 10 1 2 11
M  V30 11 1 7 3
M  V30 12 1 1 12
M  V30 13 1 1 13
M  V30 14 1 1 14
M  V30 15 1 8 15
M  V30 16 1 8 16
M  V30 17 1 9 17
M  V30 18 1 9 18
M  V30 19 1 10 19
M  V30 20 1 11 20
M  V30 21 1 11 21
M  V30 22 1 11 22
M  V30 END BOND
M  V30 END CTAB
M  END
