
     RDKit          3D

  0  0  0  0  0  0  0  0  0  0999 V3000
M  V30 BEGIN CTAB
M  V30 COUNTS 29 30 0 0 0
M  V30 BEGIN ATOM
M  V30 1 N -3.73287 1.68621 -0.664317 0
M  V30 2 C -3.22348 0.537128 -1.42591 0
M  V30 3 C -2.24987 -0.144703 -0.559964 0
M  V30 4 C -2.60427 -1.15971 0.317447 0
M  V30 5 C -1.63124 -1.74909 1.09613 0
M  V30 6 C -0.287485 -1.36884 1.04398 0
M  V30 7 C 0.0601245 -0.361322 0.171861 0
M  V30 8 C -0.930719 0.226185 -0.60901 0
M  V30 9 C 1.42609 0.0905922 0.0506667 0
M  V30 10 C 1.67967 1.46234 0.0601842 0
M  V30 11 C 2.94848 1.98781 -0.0542578 0
M  V30 12 C 3.98351 1.0741 -0.181933 0
M  V30 13 C 3.74171 -0.282167 -0.192307 0
M  V30 14 C 2.46836 -0.798203 -0.0772421 0
M  V30 15 F 5.23953 1.58844 -0.295295 0
M  V30 16 N 0.652289 -2.02265 1.88209 0
M  V30 17 H -2.97988 2.14108 -0.130944 0
M  V30 18 H -4.50682 1.37477 -0.0375973 0
M  V30 19 H -4.02133 -0.133975 -1.73466 0
M  V30 20 H -2.68419 0.987849 -2.29787 0
M  V30 21 H -3.63221 -1.44088 0.348169 0
M  V30 22 H -1.90921 -2.54585 1.78494 0
M  V30 23 H -0.674986 1.03425 -1.31358 0
M  V30 24 H 0.871419 2.18427 0.160095 0
M  V30 25 H 3.13514 3.05245 -0.0458527 0
M  V30 26 H 4.57384 -0.993512 -0.29436 0
M  V30 27 H 2.295 -1.88666 -0.090723 0
M  V30 28 H 0.920991 -3.0017 1.68241 0
M  V30 29 H 1.07241 -1.53821 2.68753 0
M  V30 END ATOM
M  V30 BEGIN BOND
M  V30 1 1 1 2
M  V30 2 1 2 3
M  V30 3 2 3 4
M  V30 4 1 4 5
M  V30 5 2 5 6
M  V30 6 1 6 7
M  V30 7 2 7 8
M  V30 8 1 7 9
M  V30 9 2 9 10
M  V30 10 1 10 11
M  V30 11 2 11 12
M  V30 12 1 12 13
M  V30 13 2 13 14
M  V30 14 1 12 15
M  V30 15 1 6 16
M  V30 16 1 8 3
M  V30 17 1 14 9
M  V30 18 1 1 17
M  V30 19 1 1 18
M  V30 20 1 2 19
M  V30 21 1 2 20
M  V30 22 1 4 21
M  V30 23 1 5 22
M  V30 24 1 8 23
M  V30 25 1 10 24
M  V30 26 1 11 25
M  V30 27 1 13 26
M  V30 28 1 14 27
M  V30 29 1 16 28
M  V30 30 1 16 29
M  V30 END BOND
M  V30 END CTAB
M  END
