
     RDKit          3D

  0  0  0  0  0  0  0  0  0  0999 V3000
M  V30 BEGIN CTAB
M  V30 COUNTS 52 53 0 0 0
M  V30 BEGIN ATOM
M  V30 1 C -2.14766 -3.4211 1.20259 0
M  V30 2 C -1.24687 -3.12467 0.00513853 0
M  V30 3 C -0.320686 -1.97632 0.279673 0
M  V30 4 C 0.581498 -1.64338 -0.862171 0
M  V30 5 C 1.49304 -2.73714 -1.30186 0
M  V30 6 C 2.44323 -3.24255 -0.268287 0
M  V30 7 C 1.38035 -0.41801 -0.695995 0
M  V30 8 C 2.23048 -0.182866 0.358901 0
M  V30 9 C 2.97001 0.981049 0.498682 0
M  V30 10 N 3.82822 1.17107 1.61314 0
M  V30 11 C 2.83646 1.94496 -0.477671 0
M  V30 12 O 3.5669 3.11108 -0.34876 0
M  V30 13 C 3.45518 4.12949 -1.32781 0
M  V30 14 C 1.9983 1.77362 -1.57007 0
M  V30 15 C 1.29123 0.595295 -1.65011 0
M  V30 16 C -1.19233 -0.807964 0.597758 0
M  V30 17 C -1.18357 -0.212734 1.83867 0
M  V30 18 C -1.99502 0.858658 2.10413 0
M  V30 19 C -2.86047 1.38653 1.12632 0
M  V30 20 O -3.60786 2.39908 1.42513 0
M  V30 21 C -4.16416 3.36804 2.09432 0
M  V30 22 C -2.87737 0.789044 -0.141528 0
M  V30 23 N -3.72082 1.26152 -1.17909 0
M  V30 24 C -2.04644 -0.281793 -0.358223 0
M  V30 25 H -2.61069 -4.42367 1.06476 0
M  V30 26 H -2.85756 -2.63669 1.42163 0
M  V30 27 H -1.47334 -3.52944 2.09857 0
M  V30 28 H -0.762737 -4.06616 -0.249365 0
M  V30 29 H -1.9623 -2.90785 -0.835878 0
M  V30 30 H 0.224898 -2.21017 1.21917 0
M  V30 31 H -0.110764 -1.47923 -1.74209 0
M  V30 32 H 0.962427 -3.57166 -1.84467 0
M  V30 33 H 2.12441 -2.28796 -2.12868 0
M  V30 34 H 3.41656 -2.74311 -0.280268 0
M  V30 35 H 2.04712 -3.27992 0.767472 0
M  V30 36 H 2.65747 -4.31032 -0.547205 0
M  V30 37 H 2.32862 -0.934494 1.10611 0
M  V30 38 H 3.44661 1.16196 2.57344 0
M  V30 39 H 4.84727 1.31936 1.38426 0
M  V30 40 H 2.35564 4.31902 -1.48513 0
M  V30 41 H 3.82814 3.77605 -2.30266 0
M  V30 42 H 3.8677 5.07036 -0.978233 0
M  V30 43 H 1.89761 2.5355 -2.34524 0
M  V30 44 H 0.6394 0.444133 -2.49489 0
M  V30 45 H -0.51358 -0.619615 2.60367 0
M  V30 46 H -1.97621 1.32407 3.07354 0
M  V30 47 H -4.44394 4.24289 1.41607 0
M  V30 48 H -3.45154 3.77196 2.8859 0
M  V30 49 H -5.08521 3.11806 2.72244 0
M  V30 50 H -3.57102 2.22867 -1.52753 0
M  V30 51 H -4.47025 0.712404 -1.61114 0
M  V30 52 H -2.06637 -0.745073 -1.35203 0
M  V30 END ATOM
M  V30 BEGIN BOND
M  V30 1 1 1 2
M  V30 2 1 2 3
M  V30 3 1 3 4
M  V30 4 1 4 5
M  V30 5 1 5 6
M  V30 6 1 4 7
M  V30 7 2 7 8
M  V30 8 1 8 9
M  V30 9 1 9 10
M  V30 10 2 9 11
M  V30 11 1 11 12
M  V30 12 1 12 13
M  V30 13 1 11 14
M  V30 14 2 14 15
M  V30 15 1 3 16
M  V30 16 2 16 17
M  V30 17 1 17 18
M  V30 18 2 18 19
M  V30 19 1 19 20
M  V30 20 1 20 21
M  V30 21 1 19 22
M  V30 22 1 22 23
M  V30 23 2 22 24
M  V30 24 1 15 7
M  V30 25 1 24 16
M  V30 26 1 1 25
M  V30 27 1 1 26
M  V30 28 1 1 27
M  V30 29 1 2 28
M  V30 30 1 2 29
M  V30 31 1 3 30
M  V30 32 1 4 31
M  V30 33 1 5 32
M  V30 34 1 5 33
M  V30 35 1 6 34
M  V30 36 1 6 35
M  V30 37 1 6 36
M  V30 38 1 8 37
M  V30 39 1 10 38
M  V30 40 1 10 39
M  V30 41 1 13 40
M  V30 42 1 13 41
M  V30 43 1 13 42
M  V30 44 1 14 43
M  V30 45 1 15 44
M  V30 46 1 17 45
M  V30 47 1 18 46
M  V30 48 1 21 47
M  V30 49 1 21 48
M  V30 50 1 21 49
M  V30 51 1 23 50
M  V30 52 1 23 51
M  V30 53 1 24 52
M  V30 END BOND
M  V30 END CTAB
M  END
