
     RDKit          3D

  0  0  0  0  0  0  0  0  0  0999 V3000
M  V30 BEGIN CTAB
M  V30 COUNTS 47 49 0 0 0
M  V30 BEGIN ATOM
M  V30 1 C -2.58091 -2.38429 0.259975 0
M  V30 2 C -3.78501 -1.57453 0.57854 0
M  V30 3 N -4.87368 -2.10002 1.1956 0
M  V30 4 C -5.95061 -1.31297 1.46234 0
M  V30 5 N -7.12283 -1.79595 2.10453 0
M  V30 6 N -5.93261 -0.0155118 1.11331 0
M  V30 7 C -4.87822 0.562824 0.497409 0
M  V30 8 N -4.87917 1.93389 0.131742 0
M  V30 9 C -3.77509 -0.242069 0.223931 0
M  V30 10 C -2.61279 0.332925 -0.438712 0
M  V30 11 C -1.48463 0.663904 0.30904 0
M  V30 12 C -0.409524 1.21049 -0.345905 0
M  V30 13 C -0.428166 1.4328 -1.70577 0
M  V30 14 C 0.699983 2.02291 -2.46418 0
M  V30 15 N 1.84155 2.12093 -1.59839 0
M  V30 16 C 2.60568 0.930862 -1.29803 0
M  V30 17 O 2.25002 -0.167207 -1.80187 0
M  V30 18 N 3.7067 1.07309 -0.457445 0
M  V30 19 C 4.62105 0.0981468 -0.00118582 0
M  V30 20 C 4.49707 -1.25303 -0.206937 0
M  V30 21 C 5.44186 -2.18447 0.250578 0
M  V30 22 C 6.55569 -1.77465 0.939705 0
M  V30 23 C 6.68944 -0.423398 1.15166 0
M  V30 24 C 5.77065 0.491903 0.707462 0
M  V30 25 C 7.86462 0.026167 1.88045 0
M  V30 26 N 8.81174 0.383519 2.44337 0
M  V30 27 C -1.57573 1.0865 -2.41115 0
M  V30 28 C -2.67216 0.538769 -1.80078 0
M  V30 29 H -1.95295 -1.87607 -0.486458 0
M  V30 30 H -1.98758 -2.58171 1.19466 0
M  V30 31 H -2.93706 -3.39619 -0.0929074 0
M  V30 32 H -7.99548 -2.06635 1.61972 0
M  V30 33 H -7.09566 -1.88196 3.14363 0
M  V30 34 H -5.21986 2.23994 -0.788962 0
M  V30 35 H -4.52964 2.62928 0.811561 0
M  V30 36 H -1.47479 0.486412 1.38418 0
M  V30 37 H 0.466222 1.46935 0.224708 0
M  V30 38 H 0.430666 3.04989 -2.84561 0
M  V30 39 H 0.949711 1.44507 -3.36914 0
M  V30 40 H 2.09451 3.04729 -1.20497 0
M  V30 41 H 3.89885 2.06428 -0.0927415 0
M  V30 42 H 3.63855 -1.63959 -0.737905 0
M  V30 43 H 5.29255 -3.25844 0.0557934 0
M  V30 44 H 7.27623 -2.50227 1.28564 0
M  V30 45 H 5.90826 1.55453 0.893181 0
M  V30 46 H -1.58914 1.26021 -3.47699 0
M  V30 47 H -3.56831 0.274762 -2.38564 0
M  V30 END ATOM
M  V30 BEGIN BOND
M  V30 1 1 1 2
M  V30 2 2 2 3
M  V30 3 1 3 4
M  V30 4 1 4 5
M  V30 5 2 4 6
M  V30 6 1 6 7
M  V30 7 1 7 8
M  V30 8 2 7 9
M  V30 9 1 9 10
M  V30 10 2 10 11
M  V30 11 1 11 12
M  V30 12 2 12 13
M  V30 13 1 13 14
M  V30 14 1 14 15
M  V30 15 1 15 16
M  V30 16 2 16 17
M  V30 17 1 16 18
M  V30 18 1 18 19
M  V30 19 2 19 20
M  V30 20 1 20 21
M  V30 21 2 21 22
M  V30 22 1 22 23
M  V30 23 2 23 24
M  V30 24 1 23 25
M  V30 25 3 25 26
M  V30 26 1 13 27
M  V30 27 2 27 28
M  V30 28 1 9 2
M  V30 29 1 28 10
M  V30 30 1 24 19
M  V30 31 1 1 29
M  V30 32 1 1 30
M  V30 33 1 1 31
M  V30 34 1 5 32
M  V30 35 1 5 33
M  V30 36 1 8 34
M  V30 37 1 8 35
M  V30 38 1 11 36
M  V30 39 1 12 37
M  V30 40 1 14 38
M  V30 41 1 14 39
M  V30 42 1 15 40
M  V30 43 1 18 41
M  V30 44 1 20 42
M  V30 45 1 21 43
M  V30 46 1 22 44
M  V30 47 1 24 45
M  V30 48 1 27 46
M  V30 49 1 28 47
M  V30 END BOND
M  V30 END CTAB
M  END
