
     RDKit          3D

  0  0  0  0  0  0  0  0  0  0999 V3000
M  V30 BEGIN CTAB
M  V30 COUNTS 28 29 0 0 0
M  V30 BEGIN ATOM
M  V30 1 N 5.40878 -0.0242995 -0.196129 0
M  V30 2 N 4.10693 -0.48321 -0.359224 0
M  V30 3 C 3.0053 0.291111 0.0463316 0
M  V30 4 O 3.24241 1.43006 0.569319 0
M  V30 5 C 1.62222 -0.136652 -0.0991011 0
M  V30 6 C 1.26195 -1.34608 -0.649551 0
M  V30 7 N -0.040618 -1.70274 -0.767777 0
M  V30 8 C -0.988805 -0.85314 -0.336743 0
M  V30 9 C -0.681248 0.369352 0.222122 0
M  V30 10 C 0.624015 0.721193 0.33802 0
M  V30 11 N 0.908291 1.99489 0.920706 0
M  V30 12 C -1.68468 1.22754 0.657578 0
M  V30 13 C -3.00765 0.878313 0.541677 0
M  V30 14 C -3.32074 -0.342757 -0.0161924 0
M  V30 15 C -2.3328 -1.19627 -0.449009 0
M  V30 16 C -4.74154 -0.748799 -0.156012 0
M  V30 17 F -5.59454 0.215193 0.335523 0
M  V30 18 F -4.99779 -0.865816 -1.51465 0
M  V30 19 F -4.88034 -1.96605 0.489359 0
M  V30 20 H 6.0474 -0.815995 0.117148 0
M  V30 21 H 5.78857 0.333879 -1.10077 0
M  V30 22 H 3.95856 -1.40857 -0.786952 0
M  V30 23 H 2.0594 -2.00465 -0.985729 0
M  V30 24 H 0.954431 2.06035 1.96355 0
M  V30 25 H 1.06967 2.85023 0.36598 0
M  V30 26 H -1.42 2.18105 1.09151 0
M  V30 27 H -3.82435 1.50452 0.862106 0
M  V30 28 H -2.5428 -2.16265 -0.891749 0
M  V30 END ATOM
M  V30 BEGIN BOND
M  V30 1 1 1 2
M  V30 2 1 2 3
M  V30 3 2 3 4
M  V30 4 1 3 5
M  V30 5 2 5 6
M  V30 6 1 6 7
M  V30 7 2 7 8
M  V30 8 1 8 9
M  V30 9 2 9 10
M  V30 10 1 10 11
M  V30 11 1 9 12
M  V30 12 2 12 13
M  V30 13 1 13 14
M  V30 14 2 14 15
M  V30 15 1 14 16
M  V30 16 1 16 17
M  V30 17 1 16 18
M  V30 18 1 16 19
M  V30 19 1 10 5
M  V30 20 1 15 8
M  V30 21 1 1 20
M  V30 22 1 1 21
M  V30 23 1 2 22
M  V30 24 1 6 23
M  V30 25 1 11 24
M  V30 26 1 11 25
M  V30 27 1 12 26
M  V30 28 1 13 27
M  V30 29 1 15 28
M  V30 END BOND
M  V30 END CTAB
M  END
