
     RDKit          3D

  0  0  0  0  0  0  0  0  0  0999 V3000
M  V30 BEGIN CTAB
M  V30 COUNTS 60 63 0 0 0
M  V30 BEGIN ATOM
M  V30 1 N -7.83576 0.19448 0.246882 0
M  V30 2 C -7.36813 1.51193 0.295296 0 CFG=1
M  V30 3 C -6.31156 1.80057 -0.748591 0
M  V30 4 C -5.12712 0.956859 -0.616523 0
M  V30 5 C -5.06712 -0.249033 -1.27968 0
M  V30 6 C -3.96913 -1.08623 -1.18764 0
M  V30 7 C -2.86965 -0.716152 -0.399642 0
M  V30 8 C -2.92538 0.47217 0.255404 0
M  V30 9 C -4.03489 1.29324 0.148173 0
M  V30 10 C -1.74254 -1.63459 -0.333724 0
M  V30 11 N -1.79103 -2.79914 -1.01649 0
M  V30 12 C -0.817581 -3.70207 -1.01823 0
M  V30 13 N -0.962273 -4.90016 -1.77026 0
M  V30 14 N 0.279565 -3.43277 -0.293689 0
M  V30 15 C 0.411178 -2.29203 0.418787 0
M  V30 16 O 1.54237 -2.07105 1.13455 0
M  V30 17 C 1.89914 -0.981956 1.92399 0
M  V30 18 C 3.14093 -0.420382 1.33093 0
M  V30 19 C 3.13549 -0.23252 -0.0607276 0
M  V30 20 C 4.24964 0.276177 -0.690451 0
M  V30 21 C 5.37141 0.60012 0.05498 0
M  V30 22 C 5.38719 0.418849 1.42814 0
M  V30 23 C 4.25117 -0.0969267 2.04845 0
M  V30 24 C 6.57712 1.14348 -0.596889 0
M  V30 25 C 6.92967 0.779879 -1.87617 0
M  V30 26 C 8.05753 1.31233 -2.43635 0
M  V30 27 F 8.43792 0.978476 -3.69509 0
M  V30 28 C 8.85577 2.20549 -1.75678 0
M  V30 29 C 8.5232 2.58661 -0.470364 0
M  V30 30 C 7.38007 2.03507 0.0724181 0
M  V30 31 C 2.04421 -1.35557 3.38174 0
M  V30 32 F 3.00012 -2.30079 3.62545 0
M  V30 33 F 2.09785 -0.254845 4.20482 0
M  V30 34 F 0.826499 -1.98436 3.7284 0
M  V30 35 C -0.615728 -1.36863 0.404162 0
M  V30 36 C -8.48276 2.45752 0.0531429 0
M  V30 37 O -9.74789 1.96223 -0.163936 0
M  V30 38 O -8.3001 3.69054 0.0418773 0
M  V30 39 H -7.92668 -0.282079 1.11559 0
M  V30 40 H -8.20863 -0.191434 -0.57186 0
M  V30 41 H -7.00218 1.71938 1.32293 0
M  V30 42 H -6.05043 2.882 -0.736925 0
M  V30 43 H -6.78278 1.58694 -1.73536 0
M  V30 44 H -5.909 -0.561222 -1.89982 0
M  V30 45 H -3.95627 -2.02159 -1.71973 0
M  V30 46 H -2.1244 0.818396 0.873525 0
M  V30 47 H -4.05473 2.22057 0.671461 0
M  V30 48 H -1.84358 -5.45826 -1.76287 0
M  V30 49 H -0.180135 -5.25541 -2.35596 0
M  V30 50 H 1.14424 -0.142402 1.92064 0
M  V30 51 H 2.26149 -0.482851 -0.656751 0
M  V30 52 H 4.30958 0.444581 -1.75658 0
M  V30 53 H 6.22887 0.652167 2.06211 0
M  V30 54 H 4.26916 -0.237057 3.09894 0
M  V30 55 H 6.3114 0.0783246 -2.42245 0
M  V30 56 H 9.74778 2.62662 -2.2001 0
M  V30 57 H 9.12359 3.28645 0.0993254 0
M  V30 58 H 7.15287 2.36445 1.09432 0
M  V30 59 H -0.586838 -0.444725 0.940326 0
M  V30 60 H -10.3527 1.60034 0.585492 0
M  V30 END ATOM
M  V30 BEGIN BOND
M  V30 1 1 1 2
M  V30 2 1 2 3
M  V30 3 1 3 4
M  V30 4 2 4 5
M  V30 5 1 5 6
M  V30 6 2 6 7
M  V30 7 1 7 8
M  V30 8 2 8 9
M  V30 9 1 7 10
M  V30 10 2 10 11
M  V30 11 1 11 12
M  V30 12 1 12 13
M  V30 13 2 12 14
M  V30 14 1 14 15
M  V30 15 1 15 16
M  V30 16 1 16 17
M  V30 17 1 17 18
M  V30 18 2 18 19
M  V30 19 1 19 20
M  V30 20 2 20 21
M  V30 21 1 21 22
M  V30 22 2 22 23
M  V30 23 1 21 24
M  V30 24 2 24 25
M  V30 25 1 25 26
M  V30 26 1 26 27
M  V30 27 2 26 28
M  V30 28 1 28 29
M  V30 29 2 29 30
M  V30 30 1 17 31
M  V30 31 1 31 32
M  V30 32 1 31 33
M  V30 33 1 31 34
M  V30 34 2 15 35
M  V30 35 1 2 36
M  V30 36 1 36 37
M  V30 37 2 36 38
M  V30 38 1 9 4
M  V30 39 1 35 10
M  V30 40 1 23 18
M  V30 41 1 30 24
M  V30 42 1 1 39
M  V30 43 1 1 40
M  V30 44 1 2 41 CFG=1
M  V30 45 1 3 42
M  V30 46 1 3 43
M  V30 47 1 5 44
M  V30 48 1 6 45
M  V30 49 1 8 46
M  V30 50 1 9 47
M  V30 51 1 13 48
M  V30 52 1 13 49
M  V30 53 1 17 50
M  V30 54 1 19 51
M  V30 55 1 20 52
M  V30 56 1 22 53
M  V30 57 1 23 54
M  V30 58 1 25 55
M  V30 59 1 28 56
M  V30 60 1 29 57
M  V30 61 1 30 58
M  V30 62 1 35 59
M  V30 63 1 37 60
M  V30 END BOND
M  V30 END CTAB
M  END
