
     RDKit          3D

  0  0  0  0  0  0  0  0  0  0999 V3000
M  V30 BEGIN CTAB
M  V30 COUNTS 32 33 0 0 0
M  V30 BEGIN ATOM
M  V30 1 C 3.84732 -0.168405 0.598896 0
M  V30 2 C 3.50513 0.77445 -0.529576 0
M  V30 3 C 2.14563 1.2869 -0.39459 0
M  V30 4 C 1.01071 0.391955 -0.459674 0
M  V30 5 N -0.24438 0.874966 -0.158285 0
M  V30 6 C -1.13938 -0.0788899 -0.299747 0
M  V30 7 C -0.511363 -1.21807 -0.697333 0
M  V30 8 N 0.811786 -0.884343 -0.784306 0
M  V30 9 N 1.80143 -1.76341 -1.18307 0
M  V30 10 N -1.0171 -2.51144 -0.984201 0
M  V30 11 C -2.61724 -0.010462 -0.081515 0
M  V30 12 C -3.11116 1.35173 0.358827 0
M  V30 13 C -3.82984 0.649603 1.50657 0
M  V30 14 C -2.9656 -0.585104 1.27324 0
M  V30 15 H 2.96164 -0.398692 1.24459 0
M  V30 16 H 4.56922 0.298928 1.32131 0
M  V30 17 H 4.35802 -1.09402 0.273046 0
M  V30 18 H 3.77119 0.356736 -1.52205 0
M  V30 19 H 4.21449 1.65176 -0.42786 0
M  V30 20 H 2.06396 1.88675 0.561402 0
M  V30 21 H 1.96429 2.08941 -1.18015 0
M  V30 22 H 2.03659 -2.65828 -0.705989 0
M  V30 23 H 2.36174 -1.51925 -2.02729 0
M  V30 24 H -0.616855 -3.3711 -0.568028 0
M  V30 25 H -1.83298 -2.66451 -1.64119 0
M  V30 26 H -3.22186 -0.45194 -0.874127 0
M  V30 27 H -3.78486 1.84568 -0.370615 0
M  V30 28 H -2.30037 2.02622 0.712406 0
M  V30 29 H -3.57821 1.12289 2.47681 0
M  V30 30 H -4.9089 0.472429 1.33388 0
M  V30 31 H -2.13268 -0.673974 1.9866 0
M  V30 32 H -3.61039 -1.48587 1.24201 0
M  V30 END ATOM
M  V30 BEGIN BOND
M  V30 1 1 1 2
M  V30 2 1 2 3
M  V30 3 1 3 4
M  V30 4 2 4 5
M  V30 5 1 5 6
M  V30 6 2 6 7
M  V30 7 1 7 8
M  V30 8 1 8 9
M  V30 9 1 7 10
M  V30 10 1 6 11
M  V30 11 1 11 12
M  V30 12 1 12 13
M  V30 13 1 13 14
M  V30 14 1 8 4
M  V30 15 1 14 11
M  V30 16 1 1 15
M  V30 17 1 1 16
M  V30 18 1 1 17
M  V30 19 1 2 18
M  V30 20 1 2 19
M  V30 21 1 3 20
M  V30 22 1 3 21
M  V30 23 1 9 22
M  V30 24 1 9 23
M  V30 25 1 10 24
M  V30 26 1 10 25
M  V30 27 1 11 26
M  V30 28 1 12 27
M  V30 29 1 12 28
M  V30 30 1 13 29
M  V30 31 1 13 30
M  V30 32 1 14 31
M  V30 33 1 14 32
M  V30 END BOND
M  V30 END CTAB
M  END
