
     RDKit          3D

  0  0  0  0  0  0  0  0  0  0999 V3000
M  V30 BEGIN CTAB
M  V30 COUNTS 32 33 0 0 0
M  V30 BEGIN ATOM
M  V30 1 N -3.66415 -1.28506 -1.34281 0
M  V30 2 C -2.76955 -1.21367 -0.185964 0
M  V30 3 C -3.39952 -0.298967 0.808266 0
M  V30 4 C -3.14025 1.13265 0.316693 0
M  V30 5 C -1.68675 1.39918 0.650281 0
M  V30 6 N -0.879968 0.378754 0.0246703 0
M  V30 7 C -1.39329 -0.828554 -0.559443 0
M  V30 8 C 0.52704 0.571356 -0.0237374 0
M  V30 9 O 1.05033 1.60497 0.466505 0
M  V30 10 C 1.44627 -0.427399 -0.649571 0
M  V30 11 N 2.81977 0.00991048 -0.568261 0
M  V30 12 N 3.43535 0.740241 -1.47759 0
M  V30 13 N 4.70018 0.962921 -1.08416 0
M  V30 14 C 4.88604 0.364492 0.0907188 0
M  V30 15 C 3.69299 -0.239974 0.417703 0
M  V30 16 N 6.1138 0.393921 0.803068 0
M  V30 17 H -4.3265 -2.09068 -1.2736 0
M  V30 18 H -4.27896 -0.428401 -1.38965 0
M  V30 19 H -2.77763 -2.25944 0.240196 0
M  V30 20 H -2.84825 -0.421477 1.7766 0
M  V30 21 H -4.45767 -0.483741 0.967654 0
M  V30 22 H -3.25719 1.22651 -0.761514 0
M  V30 23 H -3.82044 1.78473 0.903914 0
M  V30 24 H -1.63265 1.35292 1.77144 0
M  V30 25 H -1.44396 2.41761 0.267741 0
M  V30 26 H -1.33226 -0.688646 -1.6787 0
M  V30 27 H -0.681715 -1.64234 -0.308452 0
M  V30 28 H 1.14355 -0.636059 -1.70847 0
M  V30 29 H 1.33176 -1.40645 -0.107103 0
M  V30 30 H 3.5183 -0.814096 1.32505 0
M  V30 31 H 7.05318 0.234624 0.384687 0
M  V30 32 H 6.07214 0.590175 1.82413 0
M  V30 END ATOM
M  V30 BEGIN BOND
M  V30 1 1 1 2
M  V30 2 1 2 3
M  V30 3 1 3 4
M  V30 4 1 4 5
M  V30 5 1 5 6
M  V30 6 1 6 7
M  V30 7 1 6 8
M  V30 8 2 8 9
M  V30 9 1 8 10
M  V30 10 1 10 11
M  V30 11 1 11 12
M  V30 12 2 12 13
M  V30 13 1 13 14
M  V30 14 2 14 15
M  V30 15 1 14 16
M  V30 16 1 7 2
M  V30 17 1 15 11
M  V30 18 1 1 17
M  V30 19 1 1 18
M  V30 20 1 2 19
M  V30 21 1 3 20
M  V30 22 1 3 21
M  V30 23 1 4 22
M  V30 24 1 4 23
M  V30 25 1 5 24
M  V30 26 1 5 25
M  V30 27 1 7 26
M  V30 28 1 7 27
M  V30 29 1 10 28
M  V30 30 1 10 29
M  V30 31 1 15 30
M  V30 32 1 16 31
M  V30 33 1 16 32
M  V30 END BOND
M  V30 END CTAB
M  END
