
     RDKit          3D

  0  0  0  0  0  0  0  0  0  0999 V3000
M  V30 BEGIN CTAB
M  V30 COUNTS 68 67 0 0 0
M  V30 BEGIN ATOM
M  V30 1 N -3.64503 -3.02029 -2.5922 0
M  V30 2 C -4.13711 -2.0968 -1.5992 0
M  V30 3 C -3.31916 -2.22573 -0.306398 0
M  V30 4 O -2.07099 -1.99255 -0.411259 0
M  V30 5 C -1.18647 -1.10499 -0.708921 0
M  V30 6 C -0.93595 0.171727 0.0549185 0
M  V30 7 N -1.98729 1.09162 0.144296 0
M  V30 8 C -2.62139 1.69656 -0.913801 0
M  V30 9 C -2.20721 2.82977 -1.69165 0
M  V30 10 O -2.80072 2.98474 -2.97766 0
M  V30 11 O -1.40456 3.73424 -1.45391 0
M  V30 12 C -2.6493 1.23139 1.38596 0
M  V30 13 C -3.54528 2.33639 1.64021 0
M  V30 14 O -4.47101 2.25242 2.70559 0
M  V30 15 O -3.60749 3.40808 1.00358 0
M  V30 16 C 0.448621 0.713605 -0.00964167 0
M  V30 17 O 0.743888 1.52596 -1.10603 0
M  V30 18 C 0.486932 1.76137 1.11872 0
M  V30 19 O 1.70466 2.40545 1.21947 0
M  V30 20 C 1.5867 -0.240206 0.104857 0
M  V30 21 C 2.25559 -0.683462 -1.15197 0
M  V30 22 O 2.61084 0.330274 -2.02747 0
M  V30 23 C 3.67812 1.0981 -1.61417 0
M  V30 24 C 3.94927 2.18659 -2.65801 0
M  V30 25 N 5.06235 3.01279 -2.26613 0
M  V30 26 N 1.41431 -1.32016 1.08076 0
M  V30 27 C 1.58947 -0.956876 2.44881 0
M  V30 28 C 0.732848 -1.67124 3.42465 0
M  V30 29 O 1.07466 -1.52792 4.78772 0
M  V30 30 O -0.253523 -2.38155 3.15991 0
M  V30 31 C 2.3997 -2.36727 0.781798 0
M  V30 32 C 2.1981 -3.5451 1.62737 0
M  V30 33 O 2.79565 -3.81048 2.84508 0
M  V30 34 O 1.38507 -4.46893 1.23493 0
M  V30 35 H -2.63386 -3.15429 -2.44414 0
M  V30 36 H -3.87068 -2.67595 -3.55627 0
M  V30 37 H -4.13712 -1.07489 -1.9785 0
M  V30 38 H -5.18994 -2.3682 -1.32288 0
M  V30 39 H -3.52669 -3.29812 0.0842383 0
M  V30 40 H -3.85954 -1.57739 0.442794 0
M  V30 41 H -1.37718 -0.825019 -1.82367 0
M  V30 42 H -0.200035 -1.66264 -0.850811 0
M  V30 43 H -0.915204 -0.274055 1.15114 0
M  V30 44 H -3.71473 1.86215 -0.638353 0
M  V30 45 H -2.87827 0.822022 -1.72148 0
M  V30 46 H -3.81854 2.86821 -3.06316 0
M  V30 47 H -3.24786 0.268999 1.53578 0
M  V30 48 H -1.97223 1.1844 2.29768 0
M  V30 49 H -4.59623 1.35351 3.14505 0
M  V30 50 H 0.386745 1.19315 -1.96014 0
M  V30 51 H -0.301474 2.55474 0.870331 0
M  V30 52 H 0.233388 1.28352 2.03939 0
M  V30 53 H 1.61122 3.36628 1.07379 0
M  V30 54 H 2.41934 0.375402 0.61713 0
M  V30 55 H 1.7855 -1.5291 -1.69719 0
M  V30 56 H 3.28489 -1.09279 -0.825332 0
M  V30 57 H 4.58199 0.415272 -1.59959 0
M  V30 58 H 3.57021 1.57933 -0.640437 0
M  V30 59 H 4.15318 1.77389 -3.65866 0
M  V30 60 H 3.07432 2.85449 -2.76334 0
M  V30 61 H 5.29898 2.90671 -1.26107 0
M  V30 62 H 5.87318 2.80672 -2.87215 0
M  V30 63 H 2.66136 -1.39941 2.77714 0
M  V30 64 H 1.79953 0.0799922 2.70256 0
M  V30 65 H 1.16864 -0.543031 5.07184 0
M  V30 66 H 2.30102 -2.74006 -0.275231 0
M  V30 67 H 3.43018 -2.00336 0.980036 0
M  V30 68 H 3.33161 -4.688 2.88332 0
M  V30 END ATOM
M  V30 BEGIN BOND
M  V30 1 1 1 2
M  V30 2 1 2 3
M  V30 3 1 3 4
M  V30 4 1 4 5
M  V30 5 1 5 6
M  V30 6 1 6 7
M  V30 7 1 7 8
M  V30 8 1 8 9
M  V30 9 1 9 10
M  V30 10 2 9 11
M  V30 11 1 7 12
M  V30 12 1 12 13
M  V30 13 1 13 14
M  V30 14 2 13 15
M  V30 15 1 6 16
M  V30 16 1 16 17
M  V30 17 1 16 18
M  V30 18 1 18 19
M  V30 19 1 16 20
M  V30 20 1 20 21
M  V30 21 1 21 22
M  V30 22 1 22 23
M  V30 23 1 23 24
M  V30 24 1 24 25
M  V30 25 1 20 26
M  V30 26 1 26 27
M  V30 27 1 27 28
M  V30 28 1 28 29
M  V30 29 2 28 30
M  V30 30 1 26 31
M  V30 31 1 31 32
M  V30 32 1 32 33
M  V30 33 2 32 34
M  V30 34 1 1 35
M  V30 35 1 1 36
M  V30 36 1 2 37
M  V30 37 1 2 38
M  V30 38 1 3 39
M  V30 39 1 3 40
M  V30 40 1 5 41
M  V30 41 1 5 42
M  V30 42 1 6 43
M  V30 43 1 8 44
M  V30 44 1 8 45
M  V30 45 1 10 46
M  V30 46 1 12 47
M  V30 47 1 12 48
M  V30 48 1 14 49
M  V30 49 1 17 50
M  V30 50 1 18 51
M  V30 51 1 18 52
M  V30 52 1 19 53
M  V30 53 1 20 54
M  V30 54 1 21 55
M  V30 55 1 21 56
M  V30 56 1 23 57
M  V30 57 1 23 58
M  V30 58 1 24 59
M  V30 59 1 24 60
M  V30 60 1 25 61
M  V30 61 1 25 62
M  V30 62 1 27 63
M  V30 63 1 27 64
M  V30 64 1 29 65
M  V30 65 1 31 66
M  V30 66 1 31 67
M  V30 67 1 33 68
M  V30 END BOND
M  V30 END CTAB
M  END
