
     RDKit          3D

  0  0  0  0  0  0  0  0  0  0999 V3000
M  V30 BEGIN CTAB
M  V30 COUNTS 23 23 0 0 0
M  V30 BEGIN ATOM
M  V30 1 C -2.69962 -1.03319 0.187278 0
M  V30 2 O -1.70879 -0.866077 -0.804889 0
M  V30 3 C -0.48138 -0.35484 -0.41325 0
M  V30 4 C 0.512908 -1.23709 0.0621574 0
M  V30 5 N 0.177885 -2.62132 0.111069 0
M  V30 6 C 1.73535 -0.74931 0.451121 0
M  V30 7 C 1.99376 0.60662 0.377565 0
M  V30 8 C 1.02278 1.46499 -0.0864607 0
M  V30 9 C -0.239079 0.987924 -0.491427 0
M  V30 10 C -1.23863 1.95235 -0.988617 0
M  V30 11 F -0.722143 3.24463 -1.01145 0
M  V30 12 F -1.5884 1.56846 -2.26389 0
M  V30 13 F -2.3685 1.9531 -0.209463 0
M  V30 14 N 3.2541 1.08824 0.781404 0
M  V30 15 H -2.85985 -2.13497 0.351475 0
M  V30 16 H -3.69088 -0.642781 -0.0928299 0
M  V30 17 H -2.38617 -0.608356 1.18434 0
M  V30 18 H 0.617163 -3.16927 0.898142 0
M  V30 19 H -0.446928 -3.09672 -0.556413 0
M  V30 20 H 2.49291 -1.43203 0.814646 0
M  V30 21 H 1.18275 2.54155 -0.161492 0
M  V30 22 H 3.97975 0.440141 1.12661 0
M  V30 23 H 3.46103 2.09794 0.734374 0
M  V30 END ATOM
M  V30 BEGIN BOND
M  V30 1 1 1 2
M  V30 2 1 2 3
M  V30 3 2 3 4
M  V30 4 1 4 5
M  V30 5 1 4 6
M  V30 6 2 6 7
M  V30 7 1 7 8
M  V30 8 2 8 9
M  V30 9 1 9 10
M  V30 10 1 10 11
M  V30 11 1 10 12
M  V30 12 1 10 13
M  V30 13 1 7 14
M  V30 14 1 9 3
M  V30 15 1 1 15
M  V30 16 1 1 16
M  V30 17 1 1 17
M  V30 18 1 5 18
M  V30 19 1 5 19
M  V30 20 1 6 20
M  V30 21 1 8 21
M  V30 22 1 14 22
M  V30 23 1 14 23
M  V30 END BOND
M  V30 END CTAB
M  END
