
     RDKit          3D

  0  0  0  0  0  0  0  0  0  0999 V3000
M  V30 BEGIN CTAB
M  V30 COUNTS 56 59 0 0 0
M  V30 BEGIN ATOM
M  V30 1 N -5.9722 -4.65297 0.161943 0
M  V30 2 C -4.73708 -3.92665 0.185307 0
M  V30 3 C -4.68535 -2.61063 -0.182424 0
M  V30 4 C -3.48186 -1.88643 -0.164133 0
M  V30 5 C -3.48882 -0.48042 -0.475282 0
M  V30 6 O -2.48114 0.237487 -0.354322 0
M  V30 7 N -4.68821 0.162549 -0.949106 0
M  V30 8 C -4.66709 1.56782 -1.25294 0
M  V30 9 C -5.82786 2.16115 -1.70113 0
M  V30 10 C -5.85152 3.50497 -2.00506 0
M  V30 11 C -4.66869 4.2227 -1.84102 0
M  V30 12 Br -4.65085 6.08188 -2.24799 0
M  V30 13 C -3.52753 3.61953 -1.39592 0
M  V30 14 N -3.53979 2.30147 -1.10743 0
M  V30 15 C -2.29806 -2.51905 0.236248 0
M  V30 16 N -1.02481 -1.90626 0.170496 0
M  V30 17 C 0.0874374 -2.33099 0.919143 0
M  V30 18 O 0.117898 -3.26494 1.73239 0
M  V30 19 C 1.39394 -1.6195 0.759952 0
M  V30 20 C 1.67643 -0.83117 -0.313297 0
M  V30 21 C 2.89612 -0.186404 -0.407552 0
M  V30 22 C 3.87468 -0.290966 0.541214 0
M  V30 23 C 3.57326 -1.09938 1.63109 0
M  V30 24 C 2.3637 -1.74737 1.73804 0
M  V30 25 C 5.15021 0.391271 0.476283 0
M  V30 26 C 5.24271 1.73435 0.718107 0
M  V30 27 C 6.49391 2.3317 0.617766 0
M  V30 28 C 7.6187 1.61734 0.288169 0
M  V30 29 C 7.53503 0.267356 0.0444165 0
M  V30 30 C 6.3133 -0.330615 0.139178 0
M  V30 31 S 3.86572 2.67938 1.1641 0
M  V30 32 N 4.43278 4.31291 1.47721 0
M  V30 33 O 3.2456 2.22083 2.45284 0
M  V30 34 O 2.82801 2.82823 0.112956 0
M  V30 35 C -2.38169 -3.84206 0.600748 0
M  V30 36 C -3.58071 -4.52551 0.573728 0
M  V30 37 H -6.70218 -4.45893 0.858368 0
M  V30 38 H -6.07552 -5.36778 -0.585555 0
M  V30 39 H -5.58472 -2.11567 -0.491861 0
M  V30 40 H -5.5761 -0.333832 -1.0863 0
M  V30 41 H -6.73776 1.59603 -1.82447 0
M  V30 42 H -6.74072 4.02156 -2.36202 0
M  V30 43 H -2.59765 4.16394 -1.26273 0
M  V30 44 H -0.881411 -1.10992 -0.507584 0
M  V30 45 H 0.964013 -0.70377 -1.09506 0
M  V30 46 H 3.06578 0.417142 -1.30585 0
M  V30 47 H 4.34356 -1.19067 2.39348 0
M  V30 48 H 2.13986 -2.37204 2.58778 0
M  V30 49 H 6.57697 3.40453 0.808575 0
M  V30 50 H 8.60307 2.07467 0.20675 0
M  V30 51 H 8.40305 -0.335661 -0.218871 0
M  V30 52 H 6.17644 -1.40499 -0.0430427 0
M  V30 53 H 4.91779 4.62303 0.591535 0
M  V30 54 H 3.65668 4.9392 1.71738 0
M  V30 55 H -1.51332 -4.45178 0.913888 0
M  V30 56 H -3.594 -5.58669 0.877003 0
M  V30 END ATOM
M  V30 BEGIN BOND
M  V30 1 1 1 2
M  V30 2 2 2 3
M  V30 3 1 3 4
M  V30 4 1 4 5
M  V30 5 2 5 6
M  V30 6 1 5 7
M  V30 7 1 7 8
M  V30 8 2 8 9
M  V30 9 1 9 10
M  V30 10 2 10 11
M  V30 11 1 11 12
M  V30 12 1 11 13
M  V30 13 2 13 14
M  V30 14 2 4 15
M  V30 15 1 15 16
M  V30 16 1 16 17
M  V30 17 2 17 18
M  V30 18 1 17 19
M  V30 19 2 19 20
M  V30 20 1 20 21
M  V30 21 2 21 22
M  V30 22 1 22 23
M  V30 23 2 23 24
M  V30 24 1 22 25
M  V30 25 2 25 26
M  V30 26 1 26 27
M  V30 27 2 27 28
M  V30 28 1 28 29
M  V30 29 2 29 30
M  V30 30 1 26 31
M  V30 31 1 31 32
M  V30 32 2 31 33
M  V30 33 2 31 34
M  V30 34 1 15 35
M  V30 35 2 35 36
M  V30 36 1 36 2
M  V30 37 1 14 8
M  V30 38 1 24 19
M  V30 39 1 30 25
M  V30 40 1 1 37
M  V30 41 1 1 38
M  V30 42 1 3 39
M  V30 43 1 7 40
M  V30 44 1 9 41
M  V30 45 1 10 42
M  V30 46 1 13 43
M  V30 47 1 16 44
M  V30 48 1 20 45
M  V30 49 1 21 46
M  V30 50 1 23 47
M  V30 51 1 24 48
M  V30 52 1 27 49
M  V30 53 1 28 50
M  V30 54 1 29 51
M  V30 55 1 30 52
M  V30 56 1 32 53
M  V30 57 1 32 54
M  V30 58 1 35 55
M  V30 59 1 36 56
M  V30 END BOND
M  V30 END CTAB
M  END
