
     RDKit          3D

  0  0  0  0  0  0  0  0  0  0999 V3000
M  V30 BEGIN CTAB
M  V30 COUNTS 73 72 0 0 0
M  V30 BEGIN ATOM
M  V30 1 N -4.31962 3.48372 1.15305 0
M  V30 2 C -5.65143 3.30374 0.964673 0 CFG=1
M  V30 3 C -6.16778 2.73856 -0.30531 0
M  V30 4 C -5.73516 1.38417 -0.700224 0
M  V30 5 C -4.31111 1.1768 -0.996751 0
M  V30 6 O -3.55609 2.16106 -1.25007 0
M  V30 7 N -3.71594 -0.0871771 -1.01592 0
M  V30 8 C -2.30271 -0.363128 -1.31247 0 CFG=1
M  V30 9 C -1.5382 -0.637357 -0.0886389 0
M  V30 10 S 0.206106 -0.916679 -0.427588 0
M  V30 11 S 1.15913 0.748954 -1.2732 0
M  V30 12 C 1.86443 1.85034 -0.071411 0
M  V30 13 C 3.05891 1.32352 0.68408 0 CFG=2
M  V30 14 N 2.67548 0.145859 1.4011 0
M  V30 15 C 3.40925 -1.08056 1.15878 0
M  V30 16 O 4.33241 -0.994941 0.3169 0
M  V30 17 C 3.05995 -2.30796 1.87726 0
M  V30 18 C 3.87377 -3.48381 1.51445 0
M  V30 19 C 3.77278 -3.91632 0.0825543 0 CFG=2
M  V30 20 N 2.36534 -4.25691 -0.201539 0
M  V30 21 C 4.56783 -5.18307 -0.0361297 0
M  V30 22 O 3.96145 -6.3632 -0.364608 0
M  V30 23 O 5.81111 -5.15105 0.170371 0
M  V30 24 C 3.47005 2.3732 1.65814 0
M  V30 25 O 3.33722 2.1032 2.88539 0
M  V30 26 N 3.99531 3.63626 1.31293 0
M  V30 27 C 4.33579 4.57282 2.35726 0
M  V30 28 C 5.74311 4.40369 2.80459 0
M  V30 29 O 6.27948 5.27239 3.75261 0
M  V30 30 O 6.39233 3.46544 2.2917 0
M  V30 31 N 4.20789 4.00171 -0.00721659 0
M  V30 32 O 4.15252 5.20333 -0.414359 0
M  V30 33 C -2.32144 -1.31027 -2.40909 0
M  V30 34 O -3.45019 -1.45269 -3.07638 0
M  V30 35 N -1.30236 -2.13865 -2.89978 0
M  V30 36 C -1.48224 -3.05294 -4.01827 0
M  V30 37 C -2.52233 -4.07853 -3.8094 0
M  V30 38 O -2.82854 -4.94199 -4.83387 0
M  V30 39 O -3.11723 -4.1634 -2.7226 0
M  V30 40 C -6.16781 2.41509 2.08837 0
M  V30 41 O -7.50526 2.06762 2.00803 0
M  V30 42 O -5.40161 2.04243 3.00808 0
M  V30 43 H -3.87918 4.35922 1.21959 0
M  V30 44 H -3.83329 2.73843 1.57264 0
M  V30 45 H -6.17389 4.30537 1.10516 0
M  V30 46 H -7.284 2.8481 -0.333595 0
M  V30 47 H -5.83148 3.44895 -1.12892 0
M  V30 48 H -6.12799 0.623136 0.0247279 0
M  V30 49 H -6.27129 1.16469 -1.68606 0
M  V30 50 H -4.28485 -0.92665 -0.805975 0
M  V30 51 H -1.92907 0.634744 -1.70407 0
M  V30 52 H -1.66746 0.246755 0.598061 0
M  V30 53 H -1.89002 -1.51101 0.500759 0
M  V30 54 H 2.08491 2.81172 -0.581336 0
M  V30 55 H 1.04513 2.10657 0.6776 0
M  V30 56 H 3.87128 1.14505 -0.0430516 0
M  V30 57 H 1.88837 0.16376 2.08761 0
M  V30 58 H 1.98463 -2.55842 1.67495 0
M  V30 59 H 3.15759 -2.15576 2.99744 0
M  V30 60 H 3.54939 -4.33719 2.18423 0
M  V30 61 H 4.97254 -3.30582 1.71139 0
M  V30 62 H 4.13733 -3.1675 -0.612397 0
M  V30 63 H 2.21194 -5.16786 0.321252 0
M  V30 64 H 2.28904 -4.43258 -1.23672 0
M  V30 65 H 4.48227 -7.23318 -0.448587 0
M  V30 66 H 4.19383 5.59514 1.93766 0
M  V30 67 H 3.67829 4.48767 3.24186 0
M  V30 68 H 7.2904 5.37377 3.80181 0
M  V30 69 H -0.342893 -2.1522 -2.49505 0
M  V30 70 H -1.60165 -2.45326 -4.93692 0
M  V30 71 H -0.529636 -3.67806 -4.14524 0
M  V30 72 H -3.56713 -5.61774 -4.7358 0
M  V30 73 H -8.25774 2.6509 2.38349 0
M  V30 END ATOM
M  V30 BEGIN BOND
M  V30 1 1 1 2
M  V30 2 1 2 3
M  V30 3 1 3 4
M  V30 4 1 4 5
M  V30 5 2 5 6
M  V30 6 1 5 7
M  V30 7 1 7 8
M  V30 8 1 8 9
M  V30 9 1 9 10
M  V30 10 1 10 11
M  V30 11 1 11 12
M  V30 12 1 12 13
M  V30 13 1 13 14
M  V30 14 1 14 15
M  V30 15 2 15 16
M  V30 16 1 15 17
M  V30 17 1 17 18
M  V30 18 1 18 19
M  V30 19 1 19 20
M  V30 20 1 19 21
M  V30 21 1 21 22
M  V30 22 2 21 23
M  V30 23 1 13 24
M  V30 24 2 24 25
M  V30 25 1 24 26
M  V30 26 1 26 27
M  V30 27 1 27 28
M  V30 28 1 28 29
M  V30 29 2 28 30
M  V30 30 1 26 31
M  V30 31 2 31 32
M  V30 32 1 8 33
M  V30 33 2 33 34
M  V30 34 1 33 35
M  V30 35 1 35 36
M  V30 36 1 36 37
M  V30 37 1 37 38
M  V30 38 2 37 39
M  V30 39 1 2 40
M  V30 40 1 40 41
M  V30 41 2 40 42
M  V30 42 1 1 43
M  V30 43 1 1 44
M  V30 44 1 2 45 CFG=1
M  V30 45 1 3 46
M  V30 46 1 3 47
M  V30 47 1 4 48
M  V30 48 1 4 49
M  V30 49 1 7 50
M  V30 50 1 8 51 CFG=3
M  V30 51 1 9 52
M  V30 52 1 9 53
M  V30 53 1 12 54
M  V30 54 1 12 55
M  V30 55 1 13 56 CFG=3
M  V30 56 1 14 57
M  V30 57 1 17 58
M  V30 58 1 17 59
M  V30 59 1 18 60
M  V30 60 1 18 61
M  V30 61 1 19 62 CFG=3
M  V30 62 1 20 63
M  V30 63 1 20 64
M  V30 64 1 22 65
M  V30 65 1 27 66
M  V30 66 1 27 67
M  V30 67 1 29 68
M  V30 68 1 35 69
M  V30 69 1 36 70
M  V30 70 1 36 71
M  V30 71 1 38 72
M  V30 72 1 41 73
M  V30 END BOND
M  V30 END CTAB
M  END
