
     RDKit          3D

  0  0  0  0  0  0  0  0  0  0999 V3000
M  V30 BEGIN CTAB
M  V30 COUNTS 22 22 0 0 0
M  V30 BEGIN ATOM
M  V30 1 N -3.69125 -0.0117218 0.820759 0
M  V30 2 N -2.32408 -0.11937 1.07059 0
M  V30 3 C -1.48389 0.0454017 0.102099 0
M  V30 4 C -0.0419248 -0.0627992 0.339587 0
M  V30 5 C 0.869229 0.109181 -0.67844 0
M  V30 6 C 2.23158 0.0145662 -0.491223 0
M  V30 7 N 3.16126 0.194987 -1.55394 0
M  V30 8 C 2.67933 -0.26711 0.788005 0
M  V30 9 C 1.76702 -0.44501 1.83502 0
M  V30 10 C 0.412552 -0.34254 1.60805 0
M  V30 11 F -0.468779 -0.514838 2.62164 0
M  V30 12 C -1.94708 0.343089 -1.25139 0
M  V30 13 H -4.11452 0.926513 0.664443 0
M  V30 14 H -4.30019 -0.85479 0.787237 0
M  V30 15 H 0.525554 0.327802 -1.67208 0
M  V30 16 H 3.8473 -0.603766 -1.68832 0
M  V30 17 H 3.18092 1.04138 -2.16397 0
M  V30 18 H 3.74796 -0.343961 0.947675 0
M  V30 19 H 2.14895 -0.660439 2.80552 0
M  V30 20 H -1.68299 1.36667 -1.58579 0
M  V30 21 H -1.46563 -0.384791 -1.95495 0
M  V30 22 H -3.05132 0.241542 -1.35052 0
M  V30 END ATOM
M  V30 BEGIN BOND
M  V30 1 1 1 2
M  V30 2 2 2 3 CFG=2
M  V30 3 1 3 4
M  V30 4 2 4 5
M  V30 5 1 5 6
M  V30 6 1 6 7
M  V30 7 2 6 8
M  V30 8 1 8 9
M  V30 9 2 9 10
M  V30 10 1 10 11
M  V30 11 1 3 12
M  V30 12 1 10 4
M  V30 13 1 1 13
M  V30 14 1 1 14
M  V30 15 1 5 15
M  V30 16 1 7 16
M  V30 17 1 7 17
M  V30 18 1 8 18
M  V30 19 1 9 19
M  V30 20 1 12 20
M  V30 21 1 12 21
M  V30 22 1 12 22
M  V30 END BOND
M  V30 END CTAB
M  END
