
     RDKit          3D

  0  0  0  0  0  0  0  0  0  0999 V3000
M  V30 BEGIN CTAB
M  V30 COUNTS 37 39 0 0 0
M  V30 BEGIN ATOM
M  V30 1 N 5.58846 -0.27019 -1.92628 0
M  V30 2 S 5.95489 0.005314 -0.278812 0
M  V30 3 O 6.09191 1.47665 0.00689461 0
M  V30 4 O 7.34765 -0.563641 -0.0209435 0
M  V30 5 C 4.87572 -0.811442 0.832433 0
M  V30 6 C 3.45454 -0.440622 0.719875 0
M  V30 7 C 2.94115 0.621677 1.42318 0
M  V30 8 C 1.61845 1.00569 1.38013 0
M  V30 9 C 0.722978 0.297119 0.589427 0
M  V30 10 C 1.19238 -0.768826 -0.127862 0
M  V30 11 C 2.55063 -1.14577 -0.0712719 0
M  V30 12 C -0.681587 0.720298 0.55953 0
M  V30 13 O -1.19771 1.71765 1.24053 0
M  V30 14 N -2.46534 1.82393 0.994168 0
M  V30 15 C -2.82373 0.870803 0.114615 0
M  V30 16 N -1.69705 0.187946 -0.149737 0
M  V30 17 C -4.1587 0.5747 -0.485519 0
M  V30 18 N -4.7934 1.68167 -1.16242 0
M  V30 19 C -5.14845 -0.103494 0.445075 0
M  V30 20 C -5.41694 -1.1118 -0.642359 0
M  V30 21 C -4.17675 -0.651891 -1.34379 0
M  V30 22 H 6.16881 0.433669 -2.48467 0
M  V30 23 H 5.99374 -1.18607 -2.23446 0
M  V30 24 H 5.25436 -0.763056 1.8785 0
M  V30 25 H 4.95254 -1.91103 0.581323 0
M  V30 26 H 3.6332 1.17522 2.03663 0
M  V30 27 H 1.23272 1.8474 1.92584 0
M  V30 28 H 0.475338 -1.31206 -0.739325 0
M  V30 29 H 2.89145 -1.9909 -0.648404 0
M  V30 30 H -4.57924 1.73788 -2.18659 0
M  V30 31 H -5.81992 1.76259 -0.959618 0
M  V30 32 H -4.59648 -0.527049 1.32842 0
M  V30 33 H -6.01833 0.518061 0.717873 0
M  V30 34 H -5.34963 -2.17855 -0.339746 0
M  V30 35 H -6.36396 -0.878776 -1.19412 0
M  V30 36 H -4.3335 -0.49335 -2.43863 0
M  V30 37 H -3.3202 -1.34975 -1.12206 0
M  V30 END ATOM
M  V30 BEGIN BOND
M  V30 1 1 1 2
M  V30 2 2 2 3
M  V30 3 2 2 4
M  V30 4 1 2 5
M  V30 5 1 5 6
M  V30 6 2 6 7
M  V30 7 1 7 8
M  V30 8 2 8 9
M  V30 9 1 9 10
M  V30 10 2 10 11
M  V30 11 1 9 12
M  V30 12 1 12 13
M  V30 13 1 13 14
M  V30 14 2 14 15
M  V30 15 1 15 16
M  V30 16 1 15 17
M  V30 17 1 17 18
M  V30 18 1 17 19
M  V30 19 1 19 20
M  V30 20 1 20 21
M  V30 21 1 11 6
M  V30 22 2 16 12
M  V30 23 1 21 17
M  V30 24 1 1 22
M  V30 25 1 1 23
M  V30 26 1 5 24
M  V30 27 1 5 25
M  V30 28 1 7 26
M  V30 29 1 8 27
M  V30 30 1 10 28
M  V30 31 1 11 29
M  V30 32 1 18 30
M  V30 33 1 18 31
M  V30 34 1 19 32
M  V30 35 1 19 33
M  V30 36 1 20 34
M  V30 37 1 20 35
M  V30 38 1 21 36
M  V30 39 1 21 37
M  V30 END BOND
M  V30 END CTAB
M  END
