
     RDKit          3D

  0  0  0  0  0  0  0  0  0  0999 V3000
M  V30 BEGIN CTAB
M  V30 COUNTS 28 29 0 0 0
M  V30 BEGIN ATOM
M  V30 1 N 3.8774 1.26862 1.10372 0
M  V30 2 C 2.89086 0.447688 0.527306 0
M  V30 3 N 1.59279 0.738615 0.710837 0
M  V30 4 C 0.588745 0.0163109 0.201924 0
M  V30 5 N -0.756189 0.383136 0.436993 0
M  V30 6 C -1.84121 -0.386427 -0.105471 0
M  V30 7 C -3.16301 0.199127 0.2802 0
M  V30 8 C -3.40301 1.61474 -0.181998 0
M  V30 9 S -4.12566 1.0707 -1.74187 0
M  V30 10 C -4.26335 -0.317416 -0.626132 0
M  V30 11 C 0.926054 -1.08244 -0.548721 0
M  V30 12 C 2.26526 -1.42825 -0.769439 0
M  V30 13 C 3.2589 -0.649333 -0.221765 0
M  V30 14 N 4.63128 -0.979069 -0.431052 0
M  V30 15 H 4.80099 1.48374 0.671274 0
M  V30 16 H 3.68859 1.70308 2.0325 0
M  V30 17 H -0.970355 1.22588 1.01335 0
M  V30 18 H -1.80778 -0.417094 -1.22728 0
M  V30 19 H -1.80168 -1.41828 0.31965 0
M  V30 20 H -3.43974 0.0281244 1.35961 0
M  V30 21 H -2.47275 2.19685 -0.387623 0
M  V30 22 H -4.11024 2.11264 0.519999 0
M  V30 23 H -3.98412 -1.2684 -1.13924 0
M  V30 24 H -5.26093 -0.386185 -0.145173 0
M  V30 25 H 0.148308 -1.68646 -0.973512 0
M  V30 26 H 2.54015 -2.29435 -1.36102 0
M  V30 27 H 5.14809 -0.42894 -1.14956 0
M  V30 28 H 5.0426 -1.74662 0.140625 0
M  V30 END ATOM
M  V30 BEGIN BOND
M  V30 1 1 1 2
M  V30 2 2 2 3
M  V30 3 1 3 4
M  V30 4 1 4 5
M  V30 5 1 5 6
M  V30 6 1 6 7
M  V30 7 1 7 8
M  V30 8 1 8 9
M  V30 9 1 9 10
M  V30 10 2 4 11
M  V30 11 1 11 12
M  V30 12 2 12 13
M  V30 13 1 13 14
M  V30 14 1 13 2
M  V30 15 1 10 7
M  V30 16 1 1 15
M  V30 17 1 1 16
M  V30 18 1 5 17
M  V30 19 1 6 18
M  V30 20 1 6 19
M  V30 21 1 7 20
M  V30 22 1 8 21
M  V30 23 1 8 22
M  V30 24 1 10 23
M  V30 25 1 10 24
M  V30 26 1 11 25
M  V30 27 1 12 26
M  V30 28 1 14 27
M  V30 29 1 14 28
M  V30 END BOND
M  V30 END CTAB
M  END
