
     RDKit          3D

  0  0  0  0  0  0  0  0  0  0999 V3000
M  V30 BEGIN CTAB
M  V30 COUNTS 24 23 0 0 0
M  V30 BEGIN ATOM
M  V30 1 H 1.17257 -0.191506 2.17092 0 MASS=2
M  V30 2 C 0.953802 -0.800455 1.25384 0
M  V30 3 H 1.18727 -1.85543 1.60351 0 MASS=2
M  V30 4 C -0.48177 -0.80207 0.887221 0
M  V30 5 C -1.04786 0.45728 0.334814 0
M  V30 6 C -2.54367 0.263656 0.0361521 0
M  V30 7 N -3.08545 1.48837 -0.498935 0
M  V30 8 C 1.91273 -0.520837 0.157365 0
M  V30 9 N 1.76302 -1.51259 -0.882854 0
M  V30 10 C 2.00983 0.856164 -0.316816 0
M  V30 11 O 2.05524 1.92702 0.56374 0
M  V30 12 O 2.05826 1.15774 -1.55033 0
M  V30 13 H -1.13527 -1.15879 1.73003 0
M  V30 14 H -0.612494 -1.62049 0.115449 0
M  V30 15 H -0.619608 0.694738 -0.682759 0
M  V30 16 H -0.898685 1.31714 0.997165 0
M  V30 17 H -3.08239 -0.0703142 0.950265 0
M  V30 18 H -2.60164 -0.539916 -0.726147 0
M  V30 19 H -3.28637 1.38255 -1.52253 0
M  V30 20 H -3.94627 1.75275 0.040809 0
M  V30 21 H 2.95 -0.762559 0.593423 0
M  V30 22 H 1.92526 -2.44889 -0.500492 0
M  V30 23 H 2.37887 -1.31858 -1.70005 0
M  V30 24 H 2.97465 2.30503 0.80752 0
M  V30 END ATOM
M  V30 BEGIN BOND
M  V30 1 1 1 2
M  V30 2 1 2 3
M  V30 3 1 2 4
M  V30 4 1 4 5
M  V30 5 1 5 6
M  V30 6 1 6 7
M  V30 7 1 2 8
M  V30 8 1 8 9
M  V30 9 1 8 10
M  V30 10 1 10 11
M  V30 11 2 10 12
M  V30 12 1 4 13
M  V30 13 1 4 14
M  V30 14 1 5 15
M  V30 15 1 5 16
M  V30 16 1 6 17
M  V30 17 1 6 18
M  V30 18 1 7 19
M  V30 19 1 7 20
M  V30 20 1 8 21
M  V30 21 1 9 22
M  V30 22 1 9 23
M  V30 23 1 11 24
M  V30 END BOND
M  V30 END CTAB
M  END
