
     RDKit          3D

  0  0  0  0  0  0  0  0  0  0999 V3000
M  V30 BEGIN CTAB
M  V30 COUNTS 43 42 0 0 0
M  V30 BEGIN ATOM
M  V30 1 C -3.26832 2.58801 -1.91239 0
M  V30 2 C -3.01393 2.10694 -0.507578 0
M  V30 3 C -2.21929 0.813387 -0.497826 0 CFG=2
M  V30 4 C -2.93765 -0.280612 -1.21826 0
M  V30 5 C -1.89278 0.457824 0.945224 0 CFG=2
M  V30 6 N -1.10452 1.59189 1.45525 0
M  V30 7 C -1.06624 -0.774447 0.979303 0
M  V30 8 O -1.60838 -1.83484 0.572023 0
M  V30 9 N 0.297408 -0.770815 1.45504 0
M  V30 10 C 1.11046 -1.944 1.4966 0 CFG=1
M  V30 11 C 2.11916 -2.13213 0.433239 0
M  V30 12 C 3.20273 -1.16545 0.236998 0
M  V30 13 C 2.88734 0.235503 -0.121685 0
M  V30 14 C 2.09608 0.347087 -1.41963 0
M  V30 15 N 1.86475 1.76982 -1.6383 0
M  V30 16 C 1.63764 -2.22134 2.86195 0
M  V30 17 O 2.44658 -3.32989 3.06592 0
M  V30 18 O 1.39321 -1.5023 3.86383 0
M  V30 19 H -4.35757 2.54185 -2.16546 0
M  V30 20 H -2.9153 3.62748 -2.05108 0
M  V30 21 H -2.72866 1.94655 -2.65636 0
M  V30 22 H -2.47839 2.87321 0.0866755 0
M  V30 23 H -3.97424 1.92524 0.00501389 0
M  V30 24 H -1.24439 0.989167 -1.01529 0
M  V30 25 H -3.59447 -0.81667 -0.473961 0
M  V30 26 H -2.2003 -0.967068 -1.65749 0
M  V30 27 H -3.56893 0.193167 -2.00316 0
M  V30 28 H -2.83999 0.357918 1.47036 0
M  V30 29 H -0.855193 1.35801 2.43669 0
M  V30 30 H -0.25924 1.72752 0.871248 0
M  V30 31 H 0.647352 0.14029 1.78927 0
M  V30 32 H 0.363069 -2.80359 1.3273 0
M  V30 33 H 2.62715 -3.14996 0.552463 0
M  V30 34 H 1.56183 -2.30107 -0.553521 0
M  V30 35 H 3.84383 -1.56789 -0.616738 0
M  V30 36 H 3.91542 -1.23275 1.10745 0
M  V30 37 H 3.90451 0.689124 -0.428515 0
M  V30 38 H 2.45063 0.852278 0.650994 0
M  V30 39 H 2.78281 0.0180357 -2.2467 0
M  V30 40 H 1.16122 -0.227314 -1.40931 0
M  V30 41 H 2.69687 2.20959 -2.10917 0
M  V30 42 H 1.01624 1.9343 -2.22571 0
M  V30 43 H 2.1015 -4.27204 2.91189 0
M  V30 END ATOM
M  V30 BEGIN BOND
M  V30 1 1 1 2
M  V30 2 1 2 3
M  V30 3 1 3 4
M  V30 4 1 3 5
M  V30 5 1 5 6
M  V30 6 1 5 7
M  V30 7 2 7 8
M  V30 8 1 7 9
M  V30 9 1 9 10
M  V30 10 1 10 11
M  V30 11 1 11 12
M  V30 12 1 12 13
M  V30 13 1 13 14
M  V30 14 1 14 15
M  V30 15 1 10 16
M  V30 16 1 16 17
M  V30 17 2 16 18
M  V30 18 1 1 19
M  V30 19 1 1 20
M  V30 20 1 1 21
M  V30 21 1 2 22
M  V30 22 1 2 23
M  V30 23 1 3 24 CFG=3
M  V30 24 1 4 25
M  V30 25 1 4 26
M  V30 26 1 4 27
M  V30 27 1 5 28 CFG=1
M  V30 28 1 6 29
M  V30 29 1 6 30
M  V30 30 1 9 31
M  V30 31 1 10 32 CFG=3
M  V30 32 1 11 33
M  V30 33 1 11 34
M  V30 34 1 12 35
M  V30 35 1 12 36
M  V30 36 1 13 37
M  V30 37 1 13 38
M  V30 38 1 14 39
M  V30 39 1 14 40
M  V30 40 1 15 41
M  V30 41 1 15 42
M  V30 42 1 17 43
M  V30 END BOND
M  V30 END CTAB
M  END
