
     RDKit          3D

  0  0  0  0  0  0  0  0  0  0999 V3000
M  V30 BEGIN CTAB
M  V30 COUNTS 41 42 0 0 0
M  V30 BEGIN ATOM
M  V30 1 C 4.8744 0.359251 2.53945 0
M  V30 2 C 4.72045 1.16129 1.28206 0
M  V30 3 C 3.86937 0.508603 0.25884 0
M  V30 4 N 4.38566 -0.105947 -0.825361 0
M  V30 5 C 3.64905 -0.708789 -1.7671 0
M  V30 6 N 4.27194 -1.33828 -2.88876 0
M  V30 7 N 2.31306 -0.697248 -1.61675 0
M  V30 8 C 1.71823 -0.0956422 -0.546733 0
M  V30 9 C 2.51542 0.51504 0.402094 0
M  V30 10 C 1.87165 1.16635 1.55454 0
M  V30 11 N 0.299429 -0.0956544 -0.409031 0
M  V30 12 C -0.509588 -0.751376 -1.42806 0
M  V30 13 C -1.94982 -0.603659 -1.06586 0
M  V30 14 C -2.5263 -1.45882 -0.146925 0
M  V30 15 C -3.8745 -1.31257 0.18444 0
M  V30 16 C -4.64678 -0.318428 -0.396954 0
M  V30 17 C -4.07133 0.539068 -1.31781 0
M  V30 18 C -2.74028 0.376751 -1.62959 0
M  V30 19 S -6.33823 -0.159459 0.0452299 0
M  V30 20 O -6.86492 -1.50955 0.514233 0
M  V30 21 O -7.17822 0.300923 -1.11052 0
M  V30 22 N -6.52147 0.942735 1.36562 0
M  V30 23 H 4.31896 0.755048 3.40834 0
M  V30 24 H 5.94 0.288855 2.85179 0
M  V30 25 H 4.50939 -0.697952 2.38987 0
M  V30 26 H 4.42867 2.22004 1.47604 0
M  V30 27 H 5.74518 1.2431 0.814473 0
M  V30 28 H 5.10383 -1.95904 -2.81494 0
M  V30 29 H 3.85619 -1.1528 -3.82102 0
M  V30 30 H 1.01413 1.79933 1.2231 0
M  V30 31 H 1.45536 0.397927 2.27019 0
M  V30 32 H 2.5675 1.78119 2.15955 0
M  V30 33 H -0.147174 0.357824 0.395019 0
M  V30 34 H -0.386429 -0.240139 -2.42151 0
M  V30 35 H -0.277045 -1.80834 -1.54205 0
M  V30 36 H -1.96321 -2.25321 0.335665 0
M  V30 37 H -4.36041 -1.97236 0.907923 0
M  V30 38 H -4.68633 1.31923 -1.77151 0
M  V30 39 H -2.26406 1.04162 -2.35371 0
M  V30 40 H -6.31556 0.444735 2.2604 0
M  V30 41 H -5.80621 1.72036 1.23532 0
M  V30 END ATOM
M  V30 BEGIN BOND
M  V30 1 1 1 2
M  V30 2 1 2 3
M  V30 3 2 3 4
M  V30 4 1 4 5
M  V30 5 1 5 6
M  V30 6 2 5 7
M  V30 7 1 7 8
M  V30 8 2 8 9
M  V30 9 1 9 10
M  V30 10 1 8 11
M  V30 11 1 11 12
M  V30 12 1 12 13
M  V30 13 2 13 14
M  V30 14 1 14 15
M  V30 15 2 15 16
M  V30 16 1 16 17
M  V30 17 2 17 18
M  V30 18 1 16 19
M  V30 19 2 19 20
M  V30 20 2 19 21
M  V30 21 1 19 22
M  V30 22 1 9 3
M  V30 23 1 18 13
M  V30 24 1 1 23
M  V30 25 1 1 24
M  V30 26 1 1 25
M  V30 27 1 2 26
M  V30 28 1 2 27
M  V30 29 1 6 28
M  V30 30 1 6 29
M  V30 31 1 10 30
M  V30 32 1 10 31
M  V30 33 1 10 32
M  V30 34 1 11 33
M  V30 35 1 12 34
M  V30 36 1 12 35
M  V30 37 1 14 36
M  V30 38 1 15 37
M  V30 39 1 17 38
M  V30 40 1 18 39
M  V30 41 1 22 40
M  V30 42 1 22 41
M  V30 END BOND
M  V30 END CTAB
M  END
