
     RDKit          3D

  0  0  0  0  0  0  0  0  0  0999 V3000
M  V30 BEGIN CTAB
M  V30 COUNTS 20 21 0 0 0
M  V30 BEGIN ATOM
M  V30 1 N 3.31017 -1.11082 0.117563 0
M  V30 2 C 2.80074 0.196965 -0.214195 0
M  V30 3 C 1.30371 0.149977 -0.116942 0
M  V30 4 N 0.552218 1.22898 -0.371693 0
M  V30 5 C -0.785751 1.16947 -0.279957 0
M  V30 6 N -1.58167 2.31745 -0.551195 0
M  V30 7 C -1.44346 0.0114271 0.0759201 0
M  V30 8 C -0.649357 -1.08639 0.333453 0
M  V30 9 N 0.689385 -0.987508 0.230832 0
M  V30 10 N -1.51094 -2.07724 0.654774 0
M  V30 11 C -2.78442 -1.654 0.609963 0
M  V30 12 N -2.72152 -0.357295 0.249412 0
M  V30 13 H 4.04124 -1.45437 -0.529804 0
M  V30 14 H 3.52385 -1.21385 1.11641 0
M  V30 15 H 3.01096 0.342525 -1.31322 0
M  V30 16 H 3.22428 1.00909 0.384825 0
M  V30 17 H -1.53994 3.15645 0.0482676 0
M  V30 18 H -2.20746 2.28021 -1.37615 0
M  V30 19 H -3.69854 -2.20479 0.813084 0
M  V30 20 H -3.5335 0.283715 0.118655 0
M  V30 END ATOM
M  V30 BEGIN BOND
M  V30 1 1 1 2
M  V30 2 1 2 3
M  V30 3 2 3 4
M  V30 4 1 4 5
M  V30 5 1 5 6
M  V30 6 2 5 7
M  V30 7 1 7 8
M  V30 8 2 8 9
M  V30 9 1 8 10
M  V30 10 2 10 11
M  V30 11 1 11 12
M  V30 12 1 9 3
M  V30 13 1 12 7
M  V30 14 1 1 13
M  V30 15 1 1 14
M  V30 16 1 2 15
M  V30 17 1 2 16
M  V30 18 1 6 17
M  V30 19 1 6 18
M  V30 20 1 11 19
M  V30 21 1 12 20
M  V30 END BOND
M  V30 END CTAB
M  END
