
     RDKit          3D

  0  0  0  0  0  0  0  0  0  0999 V3000
M  V30 BEGIN CTAB
M  V30 COUNTS 41 42 0 0 0
M  V30 BEGIN ATOM
M  V30 1 N 4.94158 -2.16436 -1.18658 0
M  V30 2 C 5.89992 -1.57746 -0.276588 0
M  V30 3 C 5.62895 -0.128065 -0.0116372 0
M  V30 4 C 4.24901 0.0164635 0.601203 0
M  V30 5 S 3.81875 -0.0105491 2.25736 0
M  V30 6 C 2.13296 0.215155 2.0782 0
M  V30 7 C 2.01045 0.298979 0.709009 0
M  V30 8 N 3.10015 0.193379 0.0134131 0
M  V30 9 C 0.690288 0.50181 0.0724384 0
M  V30 10 O 0.56706 0.577304 -1.17488 0
M  V30 11 N -0.493256 0.620275 0.8352 0
M  V30 12 C -1.79053 0.816547 0.2792 0
M  V30 13 C -2.3598 2.15691 0.710995 0
M  V30 14 C -3.62435 2.43834 -0.0806138 0
M  V30 15 C -4.65939 1.37649 0.247211 0
M  V30 16 C -4.0733 0.0383913 -0.117439 0
M  V30 17 C -2.79131 -0.237103 0.653262 0
M  V30 18 C -2.3543 -1.62851 0.27476 0
M  V30 19 N -2.15553 -1.70823 -1.15438 0
M  V30 20 H 5.33201 -3.08013 -1.51732 0
M  V30 21 H 4.88707 -1.55159 -2.0421 0
M  V30 22 H 5.9186 -2.19193 0.645069 0
M  V30 23 H 6.89692 -1.66029 -0.749759 0
M  V30 24 H 6.38997 0.280544 0.6479 0
M  V30 25 H 5.62671 0.398675 -0.986112 0
M  V30 26 H 1.33641 0.279559 2.84276 0
M  V30 27 H -0.413005 0.560236 1.87359 0
M  V30 28 H -1.6986 0.857281 -0.829162 0
M  V30 29 H -1.63496 2.95282 0.434626 0
M  V30 30 H -2.63309 2.18223 1.76986 0
M  V30 31 H -3.45027 2.47562 -1.15802 0
M  V30 32 H -4.02461 3.41543 0.258721 0
M  V30 33 H -5.55407 1.5328 -0.375837 0
M  V30 34 H -4.8473 1.43086 1.33201 0
M  V30 35 H -4.80752 -0.739256 0.216954 0
M  V30 36 H -3.94935 -0.0743567 -1.19368 0
M  V30 37 H -3.02572 -0.193098 1.72197 0
M  V30 38 H -3.19311 -2.31126 0.524075 0
M  V30 39 H -1.48224 -1.97825 0.84505 0
M  V30 40 H -1.40466 -2.39616 -1.39385 0
M  V30 41 H -3.00653 -1.98549 -1.67603 0
M  V30 END ATOM
M  V30 BEGIN BOND
M  V30 1 1 1 2
M  V30 2 1 2 3
M  V30 3 1 3 4
M  V30 4 1 4 5
M  V30 5 1 5 6
M  V30 6 2 6 7
M  V30 7 1 7 8
M  V30 8 1 7 9
M  V30 9 2 9 10
M  V30 10 1 9 11
M  V30 11 1 11 12
M  V30 12 1 12 13
M  V30 13 1 13 14
M  V30 14 1 14 15
M  V30 15 1 15 16
M  V30 16 1 16 17
M  V30 17 1 17 18
M  V30 18 1 18 19
M  V30 19 2 8 4
M  V30 20 1 17 12
M  V30 21 1 1 20
M  V30 22 1 1 21
M  V30 23 1 2 22
M  V30 24 1 2 23
M  V30 25 1 3 24
M  V30 26 1 3 25
M  V30 27 1 6 26
M  V30 28 1 11 27
M  V30 29 1 12 28
M  V30 30 1 13 29
M  V30 31 1 13 30
M  V30 32 1 14 31
M  V30 33 1 14 32
M  V30 34 1 15 33
M  V30 35 1 15 34
M  V30 36 1 16 35
M  V30 37 1 16 36
M  V30 38 1 17 37
M  V30 39 1 18 38
M  V30 40 1 18 39
M  V30 41 1 19 40
M  V30 42 1 19 41
M  V30 END BOND
M  V30 END CTAB
M  END
