
     RDKit          3D

  0  0  0  0  0  0  0  0  0  0999 V3000
M  V30 BEGIN CTAB
M  V30 COUNTS 25 25 0 0 0
M  V30 BEGIN ATOM
M  V30 1 C -2.00788 0.2088 1.4205 0
M  V30 2 C -1.42349 -0.243859 0.119408 0
M  V30 3 C 0.052476 -0.0690527 0.0547307 0
M  V30 4 N 0.942769 -1.11705 0.167822 0
M  V30 5 C 2.26065 -0.873044 0.0802887 0
M  V30 6 N 3.21521 -1.9126 0.241534 0
M  V30 7 N 2.68611 0.380593 -0.111983 0
M  V30 8 C 1.841 1.4144 -0.225418 0
M  V30 9 N 0.52865 1.1463 -0.131016 0
M  V30 10 N 2.23026 2.75902 -0.451251 0
M  V30 11 C -1.9438 0.613049 -1.05822 0
M  V30 12 C -1.86133 -1.64765 -0.190011 0
M  V30 13 H -2.30963 -0.635698 2.07394 0
M  V30 14 H -2.89484 0.89556 1.3165 0
M  V30 15 H -1.25055 0.826131 2.01173 0
M  V30 16 H 3.50345 -2.2493 1.20207 0
M  V30 17 H 3.67243 -2.38173 -0.547347 0
M  V30 18 H 1.95266 3.32832 -1.30586 0
M  V30 19 H 2.83565 3.23798 0.2181 0
M  V30 20 H -1.38519 1.5741 -1.07737 0
M  V30 21 H -3.02951 0.692129 -1.02182 0
M  V30 22 H -1.59634 0.0449112 -1.97336 0
M  V30 23 H -2.93633 -1.60386 -0.423643 0
M  V30 24 H -1.35461 -2.0546 -1.07086 0
M  V30 25 H -1.72781 -2.33284 0.681522 0
M  V30 END ATOM
M  V30 BEGIN BOND
M  V30 1 1 1 2
M  V30 2 1 2 3
M  V30 3 2 3 4
M  V30 4 1 4 5
M  V30 5 1 5 6
M  V30 6 2 5 7
M  V30 7 1 7 8
M  V30 8 2 8 9
M  V30 9 1 8 10
M  V30 10 1 2 11
M  V30 11 1 2 12
M  V30 12 1 9 3
M  V30 13 1 1 13
M  V30 14 1 1 14
M  V30 15 1 1 15
M  V30 16 1 6 16
M  V30 17 1 6 17
M  V30 18 1 10 18
M  V30 19 1 10 19
M  V30 20 1 11 20
M  V30 21 1 11 21
M  V30 22 1 11 22
M  V30 23 1 12 23
M  V30 24 1 12 24
M  V30 25 1 12 25
M  V30 END BOND
M  V30 END CTAB
M  END
