
     RDKit          3D

  0  0  0  0  0  0  0  0  0  0999 V3000
M  V30 BEGIN CTAB
M  V30 COUNTS 35 37 0 0 0
M  V30 BEGIN ATOM
M  V30 1 C 0.63201 -2.02837 0.414125 0
M  V30 2 C 0.718469 -0.744181 -0.273002 0
M  V30 3 C -0.173008 -0.335328 -1.21972 0
M  V30 4 C -1.47663 -0.937151 -1.49242 0
M  V30 5 C -2.61221 -0.44824 -0.644089 0
M  V30 6 C -3.04843 0.858205 -0.970227 0
M  V30 7 C -3.99207 1.48027 -0.212803 0
M  V30 8 C -4.55156 0.872983 0.884096 0
M  V30 9 C -4.14663 -0.395835 1.21954 0
M  V30 10 C -3.17452 -1.03465 0.433599 0
M  V30 11 Cl -2.87892 -2.73411 0.878192 0
M  V30 12 C 0.0972909 0.838599 -1.95193 0
M  V30 13 N 1.1969 1.53948 -1.72075 0
M  V30 14 C 2.10221 1.189 -0.798056 0
M  V30 15 C 1.87581 0.0212535 -0.0432351 0
M  V30 16 C 2.80041 -0.297365 0.908114 0
M  V30 17 N 2.65343 -1.41004 1.76438 0
M  V30 18 N 3.90224 0.515956 1.0874 0
M  V30 19 C 4.11308 1.61399 0.37054 0
M  V30 20 N 5.26864 2.43065 0.59036 0
M  V30 21 N 3.19688 1.91322 -0.553937 0
M  V30 22 H -0.129169 -2.61136 -0.237745 0
M  V30 23 H 0.179449 -2.10168 1.37595 0
M  V30 24 H 1.47986 -2.75387 0.178683 0
M  V30 25 H -1.5347 -2.02895 -1.46311 0
M  V30 26 H -1.75671 -0.685869 -2.56591 0
M  V30 27 H -2.63803 1.38332 -1.84752 0
M  V30 28 H -4.31001 2.48764 -0.487985 0
M  V30 29 H -5.30658 1.3483 1.50921 0
M  V30 30 H -4.569 -0.890854 2.07495 0
M  V30 31 H -0.561548 1.1821 -2.72507 0
M  V30 32 H 2.02828 -1.40381 2.57319 0
M  V30 33 H 3.2152 -2.29477 1.60073 0
M  V30 34 H 6.18979 1.98396 0.708792 0
M  V30 35 H 5.20976 3.47747 0.635657 0
M  V30 END ATOM
M  V30 BEGIN BOND
M  V30 1 1 1 2
M  V30 2 2 2 3
M  V30 3 1 3 4
M  V30 4 1 4 5
M  V30 5 2 5 6
M  V30 6 1 6 7
M  V30 7 2 7 8
M  V30 8 1 8 9
M  V30 9 2 9 10
M  V30 10 1 10 11
M  V30 11 1 3 12
M  V30 12 2 12 13
M  V30 13 1 13 14
M  V30 14 2 14 15
M  V30 15 1 15 16
M  V30 16 1 16 17
M  V30 17 2 16 18
M  V30 18 1 18 19
M  V30 19 1 19 20
M  V30 20 2 19 21
M  V30 21 1 15 2
M  V30 22 1 10 5
M  V30 23 1 21 14
M  V30 24 1 1 22
M  V30 25 1 1 23
M  V30 26 1 1 24
M  V30 27 1 4 25
M  V30 28 1 4 26
M  V30 29 1 6 27
M  V30 30 1 7 28
M  V30 31 1 8 29
M  V30 32 1 9 30
M  V30 33 1 12 31
M  V30 34 1 17 32
M  V30 35 1 17 33
M  V30 36 1 20 34
M  V30 37 1 20 35
M  V30 END BOND
M  V30 END CTAB
M  END
