
     RDKit          3D

  0  0  0  0  0  0  0  0  0  0999 V3000
M  V30 BEGIN CTAB
M  V30 COUNTS 37 38 0 0 0
M  V30 BEGIN ATOM
M  V30 1 O -1.68055 1.34837 -0.495048 0
M  V30 2 C -1.46713 0.292258 -1.14974 0
M  V30 3 O -2.55333 -0.256098 -1.815 0
M  V30 4 N -3.80427 0.311313 -1.77204 0
M  V30 5 C -4.56606 0.132826 -0.744809 0
M  V30 6 C -5.90343 0.713949 -0.650184 0
M  V30 7 N -6.55135 1.4824 -1.5345 0
M  V30 8 O -7.70093 1.76931 -1.04695 0
M  V30 9 N -7.86668 1.23553 0.12208 0
M  V30 10 C -6.74991 0.553702 0.418535 0
M  V30 11 N -6.47201 -0.19064 1.59012 0
M  V30 12 N -4.04354 -0.665087 0.308772 0
M  V30 13 C -0.111239 -0.337154 -1.20595 0
M  V30 14 C 0.89475 0.433851 -0.412329 0
M  V30 15 C 2.22614 -0.294833 -0.542042 0
M  V30 16 O 3.16615 0.44706 0.213453 0
M  V30 17 C 4.49781 0.0734322 0.323256 0
M  V30 18 C 5.04379 -1.02837 -0.271238 0
M  V30 19 C 6.3935 -1.32447 -0.104253 0
M  V30 20 C 7.22763 -0.528044 0.65922 0
M  V30 21 C 6.66211 0.582454 1.25427 0
M  V30 22 C 5.32356 0.872798 1.08644 0
M  V30 23 Cl 4.69584 2.30391 1.88072 0
M  V30 24 Cl 8.93382 -0.917582 0.860034 0
M  V30 25 H -6.40088 0.299131 2.49073 0
M  V30 26 H -6.34147 -1.21347 1.54599 0
M  V30 27 H -3.50438 -0.280172 1.11463 0
M  V30 28 H -4.19897 -1.69242 0.289778 0
M  V30 29 H -0.192065 -1.35783 -0.777656 0
M  V30 30 H 0.194366 -0.336159 -2.26587 0
M  V30 31 H 0.974271 1.4854 -0.713829 0
M  V30 32 H 0.658532 0.424198 0.68131 0
M  V30 33 H 2.17002 -1.31654 -0.127957 0
M  V30 34 H 2.55084 -0.387056 -1.59788 0
M  V30 35 H 4.38925 -1.65561 -0.871869 0
M  V30 36 H 6.8051 -2.19723 -0.580837 0
M  V30 37 H 7.30072 1.21687 1.85541 0
M  V30 END ATOM
M  V30 BEGIN BOND
M  V30 1 2 1 2
M  V30 2 1 2 3
M  V30 3 1 3 4
M  V30 4 2 4 5
M  V30 5 1 5 6
M  V30 6 2 6 7
M  V30 7 1 7 8
M  V30 8 1 8 9
M  V30 9 2 9 10
M  V30 10 1 10 11
M  V30 11 1 5 12
M  V30 12 1 2 13
M  V30 13 1 13 14
M  V30 14 1 14 15
M  V30 15 1 15 16
M  V30 16 1 16 17
M  V30 17 2 17 18
M  V30 18 1 18 19
M  V30 19 2 19 20
M  V30 20 1 20 21
M  V30 21 2 21 22
M  V30 22 1 22 23
M  V30 23 1 20 24
M  V30 24 1 10 6
M  V30 25 1 22 17
M  V30 26 1 11 25
M  V30 27 1 11 26
M  V30 28 1 12 27
M  V30 29 1 12 28
M  V30 30 1 13 29
M  V30 31 1 13 30
M  V30 32 1 14 31
M  V30 33 1 14 32
M  V30 34 1 15 33
M  V30 35 1 15 34
M  V30 36 1 18 35
M  V30 37 1 19 36
M  V30 38 1 21 37
M  V30 END BOND
M  V30 END CTAB
M  END
