
     RDKit          3D

  0  0  0  0  0  0  0  0  0  0999 V3000
M  V30 BEGIN CTAB
M  V30 COUNTS 35 35 0 0 0
M  V30 BEGIN ATOM
M  V30 1 O -2.64653 -1.47835 -0.83426 0
M  V30 2 C -1.36467 -1.40932 -0.313815 0
M  V30 3 C -1.11664 -0.145915 0.469869 0
M  V30 4 S -1.30991 1.32323 -0.484044 0
M  V30 5 O -0.263804 1.41376 -1.561 0
M  V30 6 O -1.18599 2.55928 0.349157 0
M  V30 7 C -2.88632 1.3783 -1.28164 0
M  V30 8 C -4.02497 1.33499 -0.261068 0
M  V30 9 C 0.141574 -0.182085 1.26287 0
M  V30 10 C 1.37667 -0.368642 0.497276 0
M  V30 11 C 1.77363 -1.61168 0.0538179 0
M  V30 12 C 2.9189 -1.82914 -0.663137 0
M  V30 13 C 3.75349 -0.781783 -0.984286 0
M  V30 14 C 3.38493 0.473525 -0.555667 0
M  V30 15 C 2.22142 0.671899 0.168943 0
M  V30 16 N 4.23793 1.57178 -0.879264 0
M  V30 17 N -0.0313043 -1.19294 2.31569 0
M  V30 18 H -3.29562 -1.72741 -0.123678 0
M  V30 19 H -1.25631 -2.26212 0.383222 0
M  V30 20 H -0.611845 -1.42778 -1.13035 0
M  V30 21 H -1.95116 -0.117329 1.23646 0
M  V30 22 H -2.95701 2.40149 -1.7347 0
M  V30 23 H -3.0221 0.611768 -2.04217 0
M  V30 24 H -4.34293 2.33912 0.041817 0
M  V30 25 H -3.69333 0.780602 0.652601 0
M  V30 26 H -4.85932 0.718042 -0.680379 0
M  V30 27 H 0.166634 0.789238 1.84531 0
M  V30 28 H 1.16381 -2.47519 0.271711 0
M  V30 29 H 3.17893 -2.82882 -0.984572 0
M  V30 30 H 4.67301 -0.942003 -1.55751 0
M  V30 31 H 1.98315 1.67628 0.478234 0
M  V30 32 H 4.39937 2.34837 -0.188581 0
M  V30 33 H 4.70417 1.60301 -1.80851 0
M  V30 34 H 0.0495296 -2.14302 1.94361 0
M  V30 35 H 0.692629 -1.07115 3.06272 0
M  V30 END ATOM
M  V30 BEGIN BOND
M  V30 1 1 1 2
M  V30 2 1 2 3
M  V30 3 1 3 4
M  V30 4 2 4 5
M  V30 5 2 4 6
M  V30 6 1 4 7
M  V30 7 1 7 8
M  V30 8 1 3 9
M  V30 9 1 9 10
M  V30 10 2 10 11
M  V30 11 1 11 12
M  V30 12 2 12 13
M  V30 13 1 13 14
M  V30 14 2 14 15
M  V30 15 1 14 16
M  V30 16 1 9 17
M  V30 17 1 15 10
M  V30 18 1 1 18
M  V30 19 1 2 19
M  V30 20 1 2 20
M  V30 21 1 3 21
M  V30 22 1 7 22
M  V30 23 1 7 23
M  V30 24 1 8 24
M  V30 25 1 8 25
M  V30 26 1 8 26
M  V30 27 1 9 27
M  V30 28 1 11 28
M  V30 29 1 12 29
M  V30 30 1 13 30
M  V30 31 1 15 31
M  V30 32 1 16 32
M  V30 33 1 16 33
M  V30 34 1 17 34
M  V30 35 1 17 35
M  V30 END BOND
M  V30 END CTAB
M  END
