
     RDKit          3D

  0  0  0  0  0  0  0  0  0  0999 V3000
M  V30 BEGIN CTAB
M  V30 COUNTS 38 38 0 0 0
M  V30 BEGIN ATOM
M  V30 1 N -2.27856 0.373661 2.09536 0
M  V30 2 C -2.67571 0.226966 1.00752 0
M  V30 3 C -3.19227 0.068028 -0.305918 0
M  V30 4 C -2.47914 -0.808954 -1.0865 0
M  V30 5 C -1.30796 -1.4362 -0.454513 0
M  V30 6 C -1.35621 -2.62929 0.181982 0
M  V30 7 C -0.280952 -3.12113 0.926512 0
M  V30 8 C 0.866025 -2.32567 0.988565 0
M  V30 9 C 0.962034 -1.14583 0.360493 0
M  V30 10 C -0.160724 -0.702598 -0.38042 0
M  V30 11 C 2.09803 -0.233542 0.31164 0
M  V30 12 C 3.35875 -0.487694 0.406236 0
M  V30 13 C 4.39347 0.612458 0.289553 0
M  V30 14 C 5.52956 0.564806 0.394045 0
M  V30 15 C 6.95633 0.53001 0.521266 0
M  V30 16 N 8.10101 0.433347 0.594508 0
M  V30 17 C 5.63107 2.34535 0.863598 0
M  V30 18 N 5.66212 3.4898 1.22434 0
M  V30 19 N 3.72417 1.84576 -0.234323 0
M  V30 20 C 3.87129 -1.78393 0.566486 0
M  V30 21 N 4.28207 -2.84094 0.67188 0
M  V30 22 C -4.31617 0.719501 -0.898296 0
M  V30 23 C -5.10269 1.56241 -0.305223 0
M  V30 24 C -6.23586 2.16464 -1.03321 0
M  V30 25 N -7.11621 2.60648 -1.61716 0
M  V30 26 C -5.04227 2.00372 1.04347 0
M  V30 27 N -5.01694 2.3986 2.15521 0
M  V30 28 N -4.5893 0.401306 -2.3047 0
M  V30 29 H -2.76043 -1.00251 -2.05743 0
M  V30 30 H -2.29026 -3.19481 0.130634 0
M  V30 31 H -0.302273 -4.04892 1.43028 0
M  V30 32 H 1.64959 -2.70413 1.5833 0
M  V30 33 H -0.101784 0.209644 -0.910864 0
M  V30 34 H 1.83407 0.851634 0.212437 0
M  V30 35 H 3.48133 2.5907 0.373738 0
M  V30 36 H 3.53959 1.83832 -1.24741 0
M  V30 37 H -5.15068 -0.424281 -2.54767 0
M  V30 38 H -4.18409 1.05329 -2.94942 0
M  V30 END ATOM
M  V30 BEGIN BOND
M  V30 1 3 1 2
M  V30 2 1 2 3
M  V30 3 2 3 4
M  V30 4 1 4 5
M  V30 5 2 5 6
M  V30 6 1 6 7
M  V30 7 2 7 8
M  V30 8 1 8 9
M  V30 9 2 9 10
M  V30 10 1 9 11
M  V30 11 2 11 12
M  V30 12 1 12 13
M  V30 13 2 13 14
M  V30 14 1 14 15
M  V30 15 3 15 16
M  V30 16 1 14 17
M  V30 17 3 17 18
M  V30 18 1 13 19
M  V30 19 1 12 20
M  V30 20 3 20 21
M  V30 21 1 3 22
M  V30 22 2 22 23
M  V30 23 1 23 24
M  V30 24 3 24 25
M  V30 25 1 23 26
M  V30 26 3 26 27
M  V30 27 1 22 28
M  V30 28 1 10 5
M  V30 29 1 4 29
M  V30 30 1 6 30
M  V30 31 1 7 31
M  V30 32 1 8 32
M  V30 33 1 10 33
M  V30 34 1 11 34
M  V30 35 1 19 35
M  V30 36 1 19 36
M  V30 37 1 28 37
M  V30 38 1 28 38
M  V30 END BOND
M  V30 END CTAB
M  END
