
     RDKit          3D

  0  0  0  0  0  0  0  0  0  0999 V3000
M  V30 BEGIN CTAB
M  V30 COUNTS 29 30 0 0 0
M  V30 BEGIN ATOM
M  V30 1 N 0.0797254 -3.29464 0.785849 0
M  V30 2 C -0.385958 -2.26412 0.565371 0
M  V30 3 C -0.962399 -1.0058 0.272466 0
M  V30 4 C -0.196411 0.0939009 0.008008 0
M  V30 5 C 1.24721 0.00511381 0.03547 0
M  V30 6 C 1.91541 -0.742165 -0.90536 0
M  V30 7 C 3.29478 -0.792977 -0.891534 0
M  V30 8 C 3.99625 -0.0894312 0.0773 0
M  V30 9 C 3.37521 0.664693 1.03269 0
M  V30 10 C 1.9898 0.698996 0.992783 0
M  V30 11 O 4.06419 1.37287 2.00874 0
M  V30 12 C -0.801293 1.29797 -0.269753 0
M  V30 13 C 0.0386572 2.42968 -0.530584 0
M  V30 14 N 0.713911 3.33831 -0.716307 0
M  V30 15 C -2.19677 1.36991 -0.277149 0
M  V30 16 O -2.7232 2.47443 -0.534295 0
M  V30 17 N -2.9474 0.306472 -0.0220564 0
M  V30 18 C -2.34219 -0.872453 0.251633 0
M  V30 19 N -3.17022 -2.01052 0.526056 0
M  V30 20 N -4.34567 0.348167 -0.0265894 0
M  V30 21 H 1.35866 -1.307 -1.66733 0
M  V30 22 H 3.79544 -1.39029 -1.64277 0
M  V30 23 H 5.0861 -0.141513 0.0709841 0
M  V30 24 H 1.46071 1.29047 1.7369 0
M  V30 25 H 4.33981 2.32143 1.8195 0
M  V30 26 H -3.89756 -1.92463 1.26193 0
M  V30 27 H -3.05753 -2.90994 0.00362113 0
M  V30 28 H -4.89801 0.0208573 0.786219 0
M  V30 29 H -4.83127 0.712204 -0.862684 0
M  V30 END ATOM
M  V30 BEGIN BOND
M  V30 1 3 1 2
M  V30 2 1 2 3
M  V30 3 1 3 4
M  V30 4 1 4 5
M  V30 5 2 5 6
M  V30 6 1 6 7
M  V30 7 2 7 8
M  V30 8 1 8 9
M  V30 9 2 9 10
M  V30 10 1 9 11
M  V30 11 2 4 12
M  V30 12 1 12 13
M  V30 13 3 13 14
M  V30 14 1 12 15
M  V30 15 2 15 16
M  V30 16 1 15 17
M  V30 17 1 17 18
M  V30 18 1 18 19
M  V30 19 1 17 20
M  V30 20 2 18 3
M  V30 21 1 10 5
M  V30 22 1 6 21
M  V30 23 1 7 22
M  V30 24 1 8 23
M  V30 25 1 10 24
M  V30 26 1 11 25
M  V30 27 1 19 26
M  V30 28 1 19 27
M  V30 29 1 20 28
M  V30 30 1 20 29
M  V30 END BOND
M  V30 END CTAB
M  END
