
     RDKit          3D

  0  0  0  0  0  0  0  0  0  0999 V3000
M  V30 BEGIN CTAB
M  V30 COUNTS 61 60 0 0 0
M  V30 BEGIN ATOM
M  V30 1 N 8.95638 1.98386 -0.66843 0
M  V30 2 C 9.19904 1.20668 -1.83825 0
M  V30 3 C 8.03405 0.869354 -2.69292 0
M  V30 4 O 7.0719 0.133281 -2.10248 0
M  V30 5 C 6.45973 0.666863 -1.02442 0
M  V30 6 C 5.28976 -0.267418 -0.560758 0
M  V30 7 O 4.74571 0.370696 0.531459 0
M  V30 8 C 3.68748 -0.293201 1.0994 0
M  V30 9 C 2.52154 -0.512731 0.195097 0
M  V30 10 O 1.95542 0.639802 -0.297604 0
M  V30 11 C 1.47626 1.48772 0.674081 0
M  V30 12 C 0.411557 0.875427 1.53532 0
M  V30 13 O -0.707485 0.469171 0.84006 0
M  V30 14 C -1.59543 -0.0761092 1.78145 0
M  V30 15 C -2.83464 -0.517414 0.958075 0
M  V30 16 O -2.37384 -1.42791 0.0656287 0
M  V30 17 C -3.35203 -1.98684 -0.711169 0
M  V30 18 C -4.06193 -0.944598 -1.52943 0
M  V30 19 O -5.00519 -1.50356 -2.31286 0
M  V30 20 C -6.01509 -2.19591 -1.77054 0
M  V30 21 C -6.92986 -1.42068 -0.876287 0
M  V30 22 O -6.36903 -0.846195 0.233218 0
M  V30 23 C -7.4027 -0.184163 0.914946 0
M  V30 24 C -6.92793 0.497362 2.15566 0
M  V30 25 N -5.92634 1.48479 1.85985 0
M  V30 26 H 9.30588 2.95636 -0.806796 0
M  V30 27 H 9.39811 1.61541 0.189811 0
M  V30 28 H 9.95488 1.70244 -2.49982 0
M  V30 29 H 9.74275 0.272959 -1.48711 0
M  V30 30 H 7.60433 1.86907 -3.07373 0
M  V30 31 H 8.37406 0.415115 -3.68161 0
M  V30 32 H 7.10084 0.631981 -0.0835818 0
M  V30 33 H 5.98347 1.65432 -1.16518 0
M  V30 34 H 5.75192 -1.23924 -0.292506 0
M  V30 35 H 4.60181 -0.439708 -1.3908 0
M  V30 36 H 3.34355 0.307707 1.97153 0
M  V30 37 H 3.97296 -1.28704 1.52267 0
M  V30 38 H 2.81551 -1.13471 -0.693143 0
M  V30 39 H 1.77686 -1.12511 0.742395 0
M  V30 40 H 1.02085 2.36437 0.146661 0
M  V30 41 H 2.25424 1.91123 1.33624 0
M  V30 42 H 0.761993 0.0411386 2.14603 0
M  V30 43 H 0.0888164 1.67625 2.25872 0
M  V30 44 H -1.92435 0.662471 2.52981 0
M  V30 45 H -1.16588 -0.935738 2.30997 0
M  V30 46 H -3.1291 0.428266 0.404342 0
M  V30 47 H -3.6445 -0.843396 1.62014 0
M  V30 48 H -4.06902 -2.55667 -0.0539374 0
M  V30 49 H -2.87225 -2.76333 -1.36012 0
M  V30 50 H -4.42467 -0.150022 -0.854743 0
M  V30 51 H -3.26489 -0.465989 -2.18058 0
M  V30 52 H -5.5972 -3.08206 -1.18486 0
M  V30 53 H -6.64042 -2.71026 -2.58574 0
M  V30 54 H -7.78152 -2.0867 -0.528436 0
M  V30 55 H -7.38854 -0.611362 -1.49786 0
M  V30 56 H -8.23884 -0.863683 1.09415 0
M  V30 57 H -7.77458 0.621104 0.218476 0
M  V30 58 H -6.53435 -0.265833 2.88869 0
M  V30 59 H -7.77613 0.973391 2.64768 0
M  V30 60 H -5.65151 1.49324 0.851751 0
M  V30 61 H -6.28241 2.45575 2.06002 0
M  V30 END ATOM
M  V30 BEGIN BOND
M  V30 1 1 1 2
M  V30 2 1 2 3
M  V30 3 1 3 4
M  V30 4 1 4 5
M  V30 5 1 5 6
M  V30 6 1 6 7
M  V30 7 1 7 8
M  V30 8 1 8 9
M  V30 9 1 9 10
M  V30 10 1 10 11
M  V30 11 1 11 12
M  V30 12 1 12 13
M  V30 13 1 13 14
M  V30 14 1 14 15
M  V30 15 1 15 16
M  V30 16 1 16 17
M  V30 17 1 17 18
M  V30 18 1 18 19
M  V30 19 1 19 20
M  V30 20 1 20 21
M  V30 21 1 21 22
M  V30 22 1 22 23
M  V30 23 1 23 24
M  V30 24 1 24 25
M  V30 25 1 1 26
M  V30 26 1 1 27
M  V30 27 1 2 28
M  V30 28 1 2 29
M  V30 29 1 3 30
M  V30 30 1 3 31
M  V30 31 1 5 32
M  V30 32 1 5 33
M  V30 33 1 6 34
M  V30 34 1 6 35
M  V30 35 1 8 36
M  V30 36 1 8 37
M  V30 37 1 9 38
M  V30 38 1 9 39
M  V30 39 1 11 40
M  V30 40 1 11 41
M  V30 41 1 12 42
M  V30 42 1 12 43
M  V30 43 1 14 44
M  V30 44 1 14 45
M  V30 45 1 15 46
M  V30 46 1 15 47
M  V30 47 1 17 48
M  V30 48 1 17 49
M  V30 49 1 18 50
M  V30 50 1 18 51
M  V30 51 1 20 52
M  V30 52 1 20 53
M  V30 53 1 21 54
M  V30 54 1 21 55
M  V30 55 1 23 56
M  V30 56 1 23 57
M  V30 57 1 24 58
M  V30 58 1 24 59
M  V30 59 1 25 60
M  V30 60 1 25 61
M  V30 END BOND
M  V30 END CTAB
M  END
