
     RDKit          3D

  0  0  0  0  0  0  0  0  0  0999 V3000
M  V30 BEGIN CTAB
M  V30 COUNTS 30 29 0 0 0
M  V30 BEGIN ATOM
M  V30 1 C 2.6109 -0.514141 -0.292023 0 CFG=1
M  V30 2 N 2.95468 -0.965842 1.02186 0
M  V30 3 C 1.74495 0.71531 -0.29177 0
M  V30 4 C 0.441092 0.516036 0.415374 0
M  V30 5 C -0.403626 -0.576045 -0.197408 0
M  V30 6 C -1.6796 -0.682983 0.591403 0
M  V30 7 C -2.51067 0.552422 0.637245 0 CFG=2
M  V30 8 N -3.71796 0.290094 1.45381 0
M  V30 9 C -2.9936 0.943667 -0.702497 0
M  V30 10 O -4.35965 0.90126 -1.00736 0
M  V30 11 O -2.24425 1.32851 -1.63208 0
M  V30 12 C 3.85316 -0.21463 -1.04048 0
M  V30 13 O 3.84857 0.245814 -2.35106 0
M  V30 14 O 4.96312 -0.378128 -0.482501 0
M  V30 15 H 2.11216 -1.35559 -0.85085 0
M  V30 16 H 3.71259 -1.69172 0.917267 0
M  V30 17 H 2.17588 -1.36299 1.56122 0
M  V30 18 H 2.30084 1.50518 0.254688 0
M  V30 19 H 1.60288 1.01759 -1.34535 0
M  V30 20 H 0.608067 0.291779 1.47279 0
M  V30 21 H -0.137392 1.45895 0.344623 0
M  V30 22 H -0.630046 -0.405597 -1.25375 0
M  V30 23 H 0.109119 -1.56951 -0.120315 0
M  V30 24 H -2.32461 -1.52253 0.233615 0
M  V30 25 H -1.46143 -0.956621 1.66697 0
M  V30 26 H -2.00456 1.39311 1.16104 0
M  V30 27 H -4.05947 -0.676611 1.31816 0
M  V30 28 H -3.49906 0.420619 2.46986 0
M  V30 29 H -4.91665 0.0722233 -0.883915 0
M  V30 30 H 3.90457 1.22037 -2.608 0
M  V30 END ATOM
M  V30 BEGIN BOND
M  V30 1 1 1 2
M  V30 2 1 1 3
M  V30 3 1 3 4
M  V30 4 1 4 5
M  V30 5 1 5 6
M  V30 6 1 6 7
M  V30 7 1 7 8
M  V30 8 1 7 9
M  V30 9 1 9 10
M  V30 10 2 9 11
M  V30 11 1 1 12
M  V30 12 1 12 13
M  V30 13 2 12 14
M  V30 14 1 1 15 CFG=3
M  V30 15 1 2 16
M  V30 16 1 2 17
M  V30 17 1 3 18
M  V30 18 1 3 19
M  V30 19 1 4 20
M  V30 20 1 4 21
M  V30 21 1 5 22
M  V30 22 1 5 23
M  V30 23 1 6 24
M  V30 24 1 6 25
M  V30 25 1 7 26 CFG=1
M  V30 26 1 8 27
M  V30 27 1 8 28
M  V30 28 1 10 29
M  V30 29 1 13 30
M  V30 END BOND
M  V30 END CTAB
M  END
