
     RDKit          3D

  0  0  0  0  0  0  0  0  0  0999 V3000
M  V30 BEGIN CTAB
M  V30 COUNTS 23 24 0 0 0
M  V30 BEGIN ATOM
M  V30 1 N 3.7752 -1.25067 0.332588 0
M  V30 2 C 3.68663 0.0453848 -0.211279 0
M  V30 3 N 4.90436 0.712908 -0.511589 0
M  V30 4 N 2.61081 0.680908 -0.461464 0
M  V30 5 C 1.34583 0.0974211 -0.195751 0
M  V30 6 N 0.113449 0.538141 -0.361501 0
M  V30 7 C -0.890887 -0.213136 -0.0293618 0
M  V30 8 C -0.611286 -1.45458 0.488507 0
M  V30 9 S 1.10006 -1.45373 0.460817 0
M  V30 10 C -2.30938 0.227059 -0.191963 0
M  V30 11 C -2.75954 1.43194 -0.6918 0
M  V30 12 N -4.10269 1.48348 -0.692078 0
M  V30 13 C -4.52417 0.319703 -0.195638 0
M  V30 14 C -3.4472 -0.477247 0.122548 0
M  V30 15 H 3.93345 -2.07257 -0.280767 0
M  V30 16 H 3.6844 -1.40958 1.35359 0
M  V30 17 H 5.53514 1.11603 0.200763 0
M  V30 18 H 5.17181 0.797598 -1.51457 0
M  V30 19 H -1.32545 -2.2263 0.824613 0
M  V30 20 H -2.11263 2.23036 -1.03806 0
M  V30 21 H -4.71361 2.27461 -1.01525 0
M  V30 22 H -5.58548 0.0798083 -0.0777628 0
M  V30 23 H -3.47882 -1.47753 0.543974 0
M  V30 END ATOM
M  V30 BEGIN BOND
M  V30 1 1 1 2
M  V30 2 1 2 3
M  V30 3 2 2 4
M  V30 4 1 4 5
M  V30 5 2 5 6
M  V30 6 1 6 7
M  V30 7 2 7 8
M  V30 8 1 8 9
M  V30 9 1 7 10
M  V30 10 2 10 11
M  V30 11 1 11 12
M  V30 12 1 12 13
M  V30 13 2 13 14
M  V30 14 1 9 5
M  V30 15 1 14 10
M  V30 16 1 1 15
M  V30 17 1 1 16
M  V30 18 1 3 17
M  V30 19 1 3 18
M  V30 20 1 8 19
M  V30 21 1 11 20
M  V30 22 1 12 21
M  V30 23 1 13 22
M  V30 24 1 14 23
M  V30 END BOND
M  V30 END CTAB
M  END
