
     RDKit          3D

  0  0  0  0  0  0  0  0  0  0999 V3000
M  V30 BEGIN CTAB
M  V30 COUNTS 36 38 0 0 0
M  V30 BEGIN ATOM
M  V30 1 N 4.59095 0.107932 1.71482 0
M  V30 2 C 3.78684 0.126102 0.537402 0
M  V30 3 N 4.29285 0.441668 -0.667106 0
M  V30 4 C 3.56929 0.470366 -1.79991 0
M  V30 5 C 2.22653 0.160946 -1.74259 0
M  V30 6 C 1.63544 -0.172844 -0.540847 0
M  V30 7 C 2.43382 -0.182759 0.57578 0
M  V30 8 C 0.240452 -0.529144 -0.493017 0 CFG=2
M  V30 9 C -0.430171 -0.696715 -1.85729 0
M  V30 10 N -1.71077 -1.33279 -1.59742 0
M  V30 11 C -2.45632 -1.1595 -0.40298 0
M  V30 12 C -1.93018 -0.326385 0.575331 0
M  V30 13 N -0.657615 0.289865 0.273403 0
M  V30 14 S -0.382422 1.87478 0.823292 0
M  V30 15 O -1.61038 2.5111 1.47474 0
M  V30 16 O 0.71005 2.02577 1.81794 0
M  V30 17 N -0.112782 2.95022 -0.552477 0
M  V30 18 C -2.58554 -0.0855905 1.78186 0
M  V30 19 C -3.80812 -0.70059 2.01065 0
M  V30 20 C -4.30964 -1.51835 1.0323 0
M  V30 21 C -3.67 -1.77157 -0.177649 0
M  V30 22 H 5.1473 -0.74655 1.89013 0
M  V30 23 H 4.63304 0.896311 2.37582 0
M  V30 24 H 4.09088 0.739445 -2.70863 0
M  V30 25 H 1.66858 0.189827 -2.65636 0
M  V30 26 H 2.0548 -0.450387 1.57026 0
M  V30 27 H 0.182487 -1.58473 -0.0668721 0
M  V30 28 H -0.572003 0.266266 -2.37112 0
M  V30 29 H 0.188383 -1.39533 -2.42042 0
M  V30 30 H -2.07698 -1.96042 -2.37995 0
M  V30 31 H 0.634406 3.60047 -0.297795 0
M  V30 32 H 0.0209731 2.37543 -1.3925 0
M  V30 33 H -2.10006 0.560387 2.49346 0
M  V30 34 H -4.32772 -0.5215 2.94305 0
M  V30 35 H -5.27433 -2.02884 1.16505 0
M  V30 36 H -4.09203 -2.42288 -0.930346 0
M  V30 END ATOM
M  V30 BEGIN BOND
M  V30 1 1 1 2
M  V30 2 2 2 3
M  V30 3 1 3 4
M  V30 4 2 4 5
M  V30 5 1 5 6
M  V30 6 2 6 7
M  V30 7 1 6 8
M  V30 8 1 8 9
M  V30 9 1 9 10
M  V30 10 1 10 11
M  V30 11 2 11 12
M  V30 12 1 12 13
M  V30 13 1 13 14
M  V30 14 2 14 15
M  V30 15 2 14 16
M  V30 16 1 14 17
M  V30 17 1 12 18
M  V30 18 2 18 19
M  V30 19 1 19 20
M  V30 20 2 20 21
M  V30 21 1 7 2
M  V30 22 1 13 8
M  V30 23 1 21 11
M  V30 24 1 1 22
M  V30 25 1 1 23
M  V30 26 1 4 24
M  V30 27 1 5 25
M  V30 28 1 7 26
M  V30 29 1 8 27 CFG=1
M  V30 30 1 9 28
M  V30 31 1 9 29
M  V30 32 1 10 30
M  V30 33 1 17 31
M  V30 34 1 17 32
M  V30 35 1 18 33
M  V30 36 1 19 34
M  V30 37 1 20 35
M  V30 38 1 21 36
M  V30 END BOND
M  V30 END CTAB
M  END
