
     RDKit          3D

  0  0  0  0  0  0  0  0  0  0999 V3000
M  V30 BEGIN CTAB
M  V30 COUNTS 31 33 0 0 0
M  V30 BEGIN ATOM
M  V30 1 C 5.68114 1.18223 0.0858418 0
M  V30 2 C 4.37486 0.447901 0.00838073 0
M  V30 3 C 4.32289 -0.923078 -0.1617 0
M  V30 4 C 3.11432 -1.59039 -0.231849 0
M  V30 5 C 1.92029 -0.919987 -0.135657 0
M  V30 6 C 1.95715 0.458912 0.0355697 0
M  V30 7 C 3.17025 1.11299 0.104023 0
M  V30 8 N 0.664597 0.833607 0.096008 0
M  V30 9 C -0.127614 -0.246014 -0.0299007 0
M  V30 10 O 0.647614 -1.28103 -0.166999 0
M  V30 11 C -1.59095 -0.182925 -0.00641225 0
M  V30 12 C -2.35586 -1.32656 -0.140548 0
M  V30 13 C -3.73495 -1.25053 -0.116354 0
M  V30 14 N -4.50436 -2.4266 -0.254468 0
M  V30 15 C -4.40405 -0.0521353 0.0399146 0
M  V30 16 C -3.64644 1.09669 0.174775 0
M  V30 17 C -2.26437 1.00935 0.149143 0
M  V30 18 N -4.30136 2.34415 0.337015 0
M  V30 19 Cl -6.16331 0.0186443 0.0675153 0
M  V30 20 H 5.84327 1.62922 -0.913641 0
M  V30 21 H 6.49304 0.504983 0.406165 0
M  V30 22 H 5.50261 2.01467 0.810793 0
M  V30 23 H 5.28178 -1.44854 -0.237342 0
M  V30 24 H 3.09608 -2.66863 -0.36586 0
M  V30 25 H 3.18604 2.19698 0.23877 0
M  V30 26 H -1.82718 -2.26535 -0.263018 0
M  V30 27 H -4.58769 -2.93054 -1.15164 0
M  V30 28 H -5.01005 -2.80643 0.575825 0
M  V30 29 H -1.67374 1.90159 0.25386 0
M  V30 30 H -4.56806 2.88549 -0.507265 0
M  V30 31 H -4.49596 2.68133 1.29906 0
M  V30 END ATOM
M  V30 BEGIN BOND
M  V30 1 1 1 2
M  V30 2 2 2 3
M  V30 3 1 3 4
M  V30 4 2 4 5
M  V30 5 1 5 6
M  V30 6 2 6 7
M  V30 7 1 6 8
M  V30 8 2 8 9
M  V30 9 1 9 10
M  V30 10 1 9 11
M  V30 11 2 11 12
M  V30 12 1 12 13
M  V30 13 1 13 14
M  V30 14 2 13 15
M  V30 15 1 15 16
M  V30 16 2 16 17
M  V30 17 1 16 18
M  V30 18 1 15 19
M  V30 19 1 7 2
M  V30 20 1 17 11
M  V30 21 1 10 5
M  V30 22 1 1 20
M  V30 23 1 1 21
M  V30 24 1 1 22
M  V30 25 1 3 23
M  V30 26 1 4 24
M  V30 27 1 7 25
M  V30 28 1 12 26
M  V30 29 1 14 27
M  V30 30 1 14 28
M  V30 31 1 17 29
M  V30 32 1 18 30
M  V30 33 1 18 31
M  V30 END BOND
M  V30 END CTAB
M  END
