
     RDKit          3D

  0  0  0  0  0  0  0  0  0  0999 V3000
M  V30 BEGIN CTAB
M  V30 COUNTS 43 44 0 0 0
M  V30 BEGIN ATOM
M  V30 1 C 5.58935 0.997056 -1.39933 0
M  V30 2 C 4.84561 -0.325049 -2.01869 0
M  V30 3 O 4.26074 -0.765735 -0.870212 0
M  V30 4 C 3.25205 -0.397945 -0.065662 0
M  V30 5 C 3.26763 -1.11175 1.16544 0
M  V30 6 C 4.23514 -2.18011 1.2909 0
M  V30 7 N 4.98426 -3.07104 1.40251 0
M  V30 8 C 2.3591 -0.866408 2.11874 0
M  V30 9 N 2.50401 -1.48218 3.45287 0
M  V30 10 C 1.37339 0.0861739 1.89138 0
M  V30 11 C 1.38873 0.716143 0.687822 0
M  V30 12 N 2.26957 0.493439 -0.237333 0
M  V30 13 C 0.0937238 1.5309 0.496677 0
M  V30 14 O 0.21624 2.52964 1.19541 0
M  V30 15 N -0.846872 1.00667 -0.29643 0
M  V30 16 C -1.87269 0.497915 -1.12091 0
M  V30 17 C -2.82082 -0.327817 -0.282546 0
M  V30 18 C -3.98801 0.289161 0.119214 0
M  V30 19 C -4.90028 -0.504951 0.791767 0
M  V30 20 C -4.72985 -1.8339 1.06228 0
M  V30 21 C -3.53877 -2.43172 0.640915 0
M  V30 22 C -2.6448 -1.63113 -0.00582398 0
M  V30 23 S -4.424 1.96263 -0.126709 0
M  V30 24 N -4.45227 2.45491 -1.80475 0
M  V30 25 O -3.59632 2.92828 0.696297 0
M  V30 26 O -5.82461 2.18057 0.391863 0
M  V30 27 H 4.98747 1.21318 -0.423984 0
M  V30 28 H 5.47971 1.84021 -2.01624 0
M  V30 29 H 6.56098 0.704784 -1.05889 0
M  V30 30 H 4.18098 0.0720221 -2.74868 0
M  V30 31 H 5.60126 -0.923692 -2.36647 0
M  V30 32 H 2.54396 -0.788065 4.26791 0
M  V30 33 H 2.61307 -2.51224 3.57562 0
M  V30 34 H 0.689125 0.316303 2.73204 0
M  V30 35 H -1.4388 2.22926 -0.375393 0
M  V30 36 H -2.33406 1.04986 -1.86905 0
M  V30 37 H -1.30521 -0.316812 -1.78422 0
M  V30 38 H -5.88501 -0.116273 1.12308 0
M  V30 39 H -5.4065 -2.47846 1.5685 0
M  V30 40 H -3.37683 -3.47251 0.828865 0
M  V30 41 H -1.67821 -2.09114 -0.336832 0
M  V30 42 H -4.63616 1.56311 -2.38934 0
M  V30 43 H -3.59602 2.9667 -2.05868 0
M  V30 END ATOM
M  V30 BEGIN BOND
M  V30 1 1 1 2
M  V30 2 1 2 3
M  V30 3 1 3 4
M  V30 4 2 4 5
M  V30 5 1 5 6
M  V30 6 3 6 7
M  V30 7 1 5 8
M  V30 8 1 8 9
M  V30 9 2 8 10
M  V30 10 1 10 11
M  V30 11 2 11 12
M  V30 12 1 11 13
M  V30 13 2 13 14
M  V30 14 1 13 15
M  V30 15 1 15 16
M  V30 16 1 16 17
M  V30 17 2 17 18
M  V30 18 1 18 19
M  V30 19 2 19 20
M  V30 20 1 20 21
M  V30 21 2 21 22
M  V30 22 1 18 23
M  V30 23 1 23 24
M  V30 24 2 23 25
M  V30 25 2 23 26
M  V30 26 1 12 4
M  V30 27 1 22 17
M  V30 28 1 1 27
M  V30 29 1 1 28
M  V30 30 1 1 29
M  V30 31 1 2 30
M  V30 32 1 2 31
M  V30 33 1 9 32
M  V30 34 1 9 33
M  V30 35 1 10 34
M  V30 36 1 15 35
M  V30 37 1 16 36
M  V30 38 1 16 37
M  V30 39 1 19 38
M  V30 40 1 20 39
M  V30 41 1 21 40
M  V30 42 1 22 41
M  V30 43 1 24 42
M  V30 44 1 24 43
M  V30 END BOND
M  V30 END CTAB
M  END
