
     RDKit          3D

  0  0  0  0  0  0  0  0  0  0999 V3000
M  V30 BEGIN CTAB
M  V30 COUNTS 30 30 0 0 0
M  V30 BEGIN ATOM
M  V30 1 C -3.12275 0.631533 -1.27485 0
M  V30 2 C -2.9289 0.105701 0.129182 0
M  V30 3 C -1.49494 -0.242615 0.353555 0
M  V30 4 C -0.535991 0.894095 0.197146 0
M  V30 5 C 0.864942 0.404959 0.455976 0
M  V30 6 C 1.72638 0.182604 -0.599918 0
M  V30 7 C 3.0095 -0.268445 -0.337629 0
M  V30 8 C 4.00171 -0.531549 -1.41457 0
M  V30 9 C 3.33481 -0.464489 0.981851 0
M  V30 10 N 2.47903 -0.241317 1.99612 0
M  V30 11 C 1.21683 0.199681 1.77925 0
M  V30 12 N 0.317508 0.433837 2.86382 0
M  V30 13 N -3.71615 -1.10906 0.282785 0
M  V30 14 H -2.51342 1.53884 -1.43373 0
M  V30 15 H -2.83996 -0.147452 -2.02525 0
M  V30 16 H -4.19659 0.93758 -1.37913 0
M  V30 17 H -3.33225 0.83086 0.853856 0
M  V30 18 H -1.23268 -1.02471 -0.416953 0
M  V30 19 H -1.39263 -0.75574 1.326 0
M  V30 20 H -0.773252 1.66256 0.967136 0
M  V30 21 H -0.604812 1.35233 -0.789724 0
M  V30 22 H 1.42029 0.353572 -1.63737 0
M  V30 23 H 4.41742 -1.55169 -1.34298 0
M  V30 24 H 4.88737 0.164491 -1.31695 0
M  V30 25 H 3.55497 -0.300363 -2.39607 0
M  V30 26 H 4.3471 -0.820472 1.18526 0
M  V30 27 H -0.198403 1.32381 2.99679 0
M  V30 28 H 0.17959 -0.33907 3.553 0
M  V30 29 H -3.18555 -1.86673 -0.195777 0
M  V30 30 H -3.68917 -1.35276 1.31694 0
M  V30 END ATOM
M  V30 BEGIN BOND
M  V30 1 1 1 2
M  V30 2 1 2 3
M  V30 3 1 3 4
M  V30 4 1 4 5
M  V30 5 2 5 6
M  V30 6 1 6 7
M  V30 7 1 7 8
M  V30 8 2 7 9
M  V30 9 1 9 10
M  V30 10 2 10 11
M  V30 11 1 11 12
M  V30 12 1 2 13
M  V30 13 1 11 5
M  V30 14 1 1 14
M  V30 15 1 1 15
M  V30 16 1 1 16
M  V30 17 1 2 17
M  V30 18 1 3 18
M  V30 19 1 3 19
M  V30 20 1 4 20
M  V30 21 1 4 21
M  V30 22 1 6 22
M  V30 23 1 8 23
M  V30 24 1 8 24
M  V30 25 1 8 25
M  V30 26 1 9 26
M  V30 27 1 12 27
M  V30 28 1 12 28
M  V30 29 1 13 29
M  V30 30 1 13 30
M  V30 END BOND
M  V30 END CTAB
M  END
