
     RDKit          3D

  0  0  0  0  0  0  0  0  0  0999 V3000
M  V30 BEGIN CTAB
M  V30 COUNTS 28 29 0 0 0
M  V30 BEGIN ATOM
M  V30 1 N 4.00663 -0.821084 0.272029 0
M  V30 2 C 2.94394 0.0900419 0.0161712 0
M  V30 3 C 3.23589 1.37765 -0.417924 0
M  V30 4 C 2.19964 2.24226 -0.659588 0
M  V30 5 N 0.919874 1.83831 -0.475362 0
M  V30 6 C 0.589805 0.610372 -0.0592949 0
M  V30 7 C 1.62331 -0.26848 0.187149 0
M  V30 8 N 1.32182 -1.59208 0.633428 0
M  V30 9 N -0.77721 0.236569 0.118564 0
M  V30 10 C -1.8135 1.21085 -0.159052 0
M  V30 11 C -3.11524 0.614161 0.362488 0
M  V30 12 C -3.35167 -0.663909 -0.405352 0
M  V30 13 C -2.14507 -1.53523 -0.280373 0
M  V30 14 O -1.14873 -0.979398 0.532355 0
M  V30 15 H 3.83646 -1.84316 0.167921 0
M  V30 16 H 4.96009 -0.519157 0.562091 0
M  V30 17 H 4.27445 1.64519 -0.547651 0
M  V30 18 H 2.40334 3.24782 -0.997624 0
M  V30 19 H 1.01324 -2.33572 -0.0399328 0
M  V30 20 H 1.39064 -1.88455 1.63137 0
M  V30 21 H -1.90801 1.28221 -1.25163 0
M  V30 22 H -1.5962 2.18488 0.334527 0
M  V30 23 H -2.97993 0.34978 1.42696 0
M  V30 24 H -3.94286 1.3194 0.179049 0
M  V30 25 H -3.46526 -0.364295 -1.48588 0
M  V30 26 H -4.29598 -1.16577 -0.120598 0
M  V30 27 H -1.72078 -1.79328 -1.29064 0
M  V30 28 H -2.45869 -2.48336 0.214284 0
M  V30 END ATOM
M  V30 BEGIN BOND
M  V30 1 1 1 2
M  V30 2 2 2 3
M  V30 3 1 3 4
M  V30 4 2 4 5
M  V30 5 1 5 6
M  V30 6 2 6 7
M  V30 7 1 7 8
M  V30 8 1 6 9
M  V30 9 1 9 10
M  V30 10 1 10 11
M  V30 11 1 11 12
M  V30 12 1 12 13
M  V30 13 1 13 14
M  V30 14 1 7 2
M  V30 15 1 14 9
M  V30 16 1 1 15
M  V30 17 1 1 16
M  V30 18 1 3 17
M  V30 19 1 4 18
M  V30 20 1 8 19
M  V30 21 1 8 20
M  V30 22 1 10 21
M  V30 23 1 10 22
M  V30 24 1 11 23
M  V30 25 1 11 24
M  V30 26 1 12 25
M  V30 27 1 12 26
M  V30 28 1 13 27
M  V30 29 1 13 28
M  V30 END BOND
M  V30 END CTAB
M  END
