
     RDKit          3D

  0  0  0  0  0  0  0  0  0  0999 V3000
M  V30 BEGIN CTAB
M  V30 COUNTS 37 38 0 0 0
M  V30 BEGIN ATOM
M  V30 1 N 5.1708 -1.70312 0.637895 0
M  V30 2 C 4.16428 -0.806645 0.159826 0
M  V30 3 C 4.52159 0.22889 -0.648066 0
M  V30 4 C 3.57651 1.11104 -1.1261 0
M  V30 5 C 2.25162 0.964463 -0.797367 0
M  V30 6 C 1.91161 -0.103504 0.0310305 0
M  V30 7 C 2.85431 -0.969664 0.497914 0
M  V30 8 C 0.498655 -0.254279 0.377783 0 CFG=1
M  V30 9 C -0.0546453 0.897683 1.15892 0
M  V30 10 C -1.08601 1.71032 0.451435 0
M  V30 11 C -2.45676 1.13036 0.475702 0
M  V30 12 N -2.673 -0.136247 -0.016824 0
M  V30 13 C -1.68769 -1.04574 -0.311381 0
M  V30 14 C -0.376308 -0.546581 -0.818201 0
M  V30 15 S -4.23963 -0.427957 -0.598494 0
M  V30 16 O -4.42382 -1.81913 -1.12063 0
M  V30 17 O -4.5868 0.539225 -1.70507 0
M  V30 18 N -5.34966 -0.227882 0.720044 0
M  V30 19 H 5.16467 -2.6729 0.293305 0
M  V30 20 H 5.85954 -1.34367 1.30588 0
M  V30 21 H 5.55662 0.383866 -0.934092 0
M  V30 22 H 3.85232 1.93863 -1.77011 0
M  V30 23 H 1.54438 1.66235 -1.18242 0
M  V30 24 H 2.57761 -1.80148 1.14512 0
M  V30 25 H 0.400364 -1.15412 1.04081 0
M  V30 26 H -0.426413 0.614923 2.16514 0
M  V30 27 H 0.816681 1.58797 1.36374 0
M  V30 28 H -1.1486 2.69338 1.01429 0
M  V30 29 H -0.745205 2.01172 -0.561138 0
M  V30 30 H -3.13066 1.87053 -0.0432574 0
M  V30 31 H -2.80783 1.17028 1.55143 0
M  V30 32 H -2.06338 -1.7938 -1.07228 0
M  V30 33 H -1.46323 -1.68848 0.591236 0
M  V30 34 H 0.134872 -1.40256 -1.35315 0
M  V30 35 H -0.432179 0.258936 -1.54639 0
M  V30 36 H -6.21579 0.243749 0.442996 0
M  V30 37 H -5.48882 -1.12056 1.23998 0
M  V30 END ATOM
M  V30 BEGIN BOND
M  V30 1 1 1 2
M  V30 2 2 2 3
M  V30 3 1 3 4
M  V30 4 2 4 5
M  V30 5 1 5 6
M  V30 6 2 6 7
M  V30 7 1 6 8
M  V30 8 1 8 9
M  V30 9 1 9 10
M  V30 10 1 10 11
M  V30 11 1 11 12
M  V30 12 1 12 13
M  V30 13 1 13 14
M  V30 14 1 12 15
M  V30 15 2 15 16
M  V30 16 2 15 17
M  V30 17 1 15 18
M  V30 18 1 7 2
M  V30 19 1 14 8
M  V30 20 1 1 19
M  V30 21 1 1 20
M  V30 22 1 3 21
M  V30 23 1 4 22
M  V30 24 1 5 23
M  V30 25 1 7 24
M  V30 26 1 8 25 CFG=1
M  V30 27 1 9 26
M  V30 28 1 9 27
M  V30 29 1 10 28
M  V30 30 1 10 29
M  V30 31 1 11 30
M  V30 32 1 11 31
M  V30 33 1 13 32
M  V30 34 1 13 33
M  V30 35 1 14 34
M  V30 36 1 14 35
M  V30 37 1 18 36
M  V30 38 1 18 37
M  V30 END BOND
M  V30 END CTAB
M  END
