
     RDKit          3D

  0  0  0  0  0  0  0  0  0  0999 V3000
M  V30 BEGIN CTAB
M  V30 COUNTS 32 33 0 0 0
M  V30 BEGIN ATOM
M  V30 1 N 5.13182 -1.99808 -0.587186 0
M  V30 2 C 4.15546 -1.01417 -0.232218 0
M  V30 3 N 2.83389 -1.3051 -0.275842 0
M  V30 4 C 1.89688 -0.403901 0.0509158 0
M  V30 5 S 0.155239 -0.798719 -0.0102797 0
M  V30 6 C -0.786257 0.635793 0.488966 0
M  V30 7 C -2.27435 0.410923 0.473105 0
M  V30 8 C -2.72526 -0.680979 1.3779 0
M  V30 9 C -4.20524 -0.881429 1.21181 0
M  V30 10 O -4.61309 -1.00971 -0.0914265 0
M  V30 11 C -4.25243 0.0450804 -0.898028 0
M  V30 12 C -2.72025 0.0774253 -0.933654 0
M  V30 13 N 2.28379 0.830724 0.434941 0
M  V30 14 C 3.57715 1.17821 0.497912 0
M  V30 15 C 4.52882 0.248949 0.161527 0
M  V30 16 N 3.96764 2.49851 0.909432 0
M  V30 17 H 5.93436 -2.16617 0.0367512 0
M  V30 18 H 4.99531 -2.51253 -1.46947 0
M  V30 19 H -0.570113 1.45755 -0.240009 0
M  V30 20 H -0.439673 0.993883 1.47919 0
M  V30 21 H -2.78878 1.344 0.758055 0
M  V30 22 H -2.23294 -1.64941 1.17069 0
M  V30 23 H -2.54607 -0.463104 2.45693 0
M  V30 24 H -4.80262 -0.1202 1.78903 0
M  V30 25 H -4.44904 -1.85652 1.72549 0
M  V30 26 H -4.57459 1.03414 -0.475544 0
M  V30 27 H -4.58642 -0.123578 -1.92093 0
M  V30 28 H -2.34203 0.768683 -1.69087 0
M  V30 29 H -2.40207 -0.965292 -1.13098 0
M  V30 30 H 5.59461 0.506252 0.204049 0
M  V30 31 H 3.60038 3.36201 0.473104 0
M  V30 32 H 4.65587 2.55675 1.68785 0
M  V30 END ATOM
M  V30 BEGIN BOND
M  V30 1 1 1 2
M  V30 2 2 2 3
M  V30 3 1 3 4
M  V30 4 1 4 5
M  V30 5 1 5 6
M  V30 6 1 6 7
M  V30 7 1 7 8
M  V30 8 1 8 9
M  V30 9 1 9 10
M  V30 10 1 10 11
M  V30 11 1 11 12
M  V30 12 2 4 13
M  V30 13 1 13 14
M  V30 14 2 14 15
M  V30 15 1 14 16
M  V30 16 1 15 2
M  V30 17 1 12 7
M  V30 18 1 1 17
M  V30 19 1 1 18
M  V30 20 1 6 19
M  V30 21 1 6 20
M  V30 22 1 7 21
M  V30 23 1 8 22
M  V30 24 1 8 23
M  V30 25 1 9 24
M  V30 26 1 9 25
M  V30 27 1 11 26
M  V30 28 1 11 27
M  V30 29 1 12 28
M  V30 30 1 12 29
M  V30 31 1 15 30
M  V30 32 1 16 31
M  V30 33 1 16 32
M  V30 END BOND
M  V30 END CTAB
M  END
