
     RDKit          3D

  0  0  0  0  0  0  0  0  0  0999 V3000
M  V30 BEGIN CTAB
M  V30 COUNTS 30 31 0 0 0
M  V30 BEGIN ATOM
M  V30 1 N 2.61877 1.51553 0.319762 0
M  V30 2 N 2.72094 0.326982 -0.429171 0
M  V30 3 C 1.64099 -0.329014 -0.904255 0
M  V30 4 C 0.201889 0.0365236 -0.750444 0
M  V30 5 C -0.30279 -0.609424 0.490126 0
M  V30 6 C -1.73903 -0.348713 0.803019 0
M  V30 7 C -2.07785 1.09537 0.993301 0
M  V30 8 C -3.5766 1.04048 0.655184 0
M  V30 9 C -3.51826 0.179207 -0.590509 0
M  V30 10 N -2.64794 -0.906761 -0.155793 0
M  V30 11 N 2.13357 -1.39856 -1.55643 0
M  V30 12 N 3.46855 -1.39947 -1.48449 0
M  V30 13 C 3.85077 -0.331537 -0.785814 0
M  V30 14 N 5.16593 0.0994132 -0.440856 0
M  V30 15 H 1.8643 1.58922 1.00638 0
M  V30 16 H 3.28975 2.31261 0.189238 0
M  V30 17 H 0.149992 1.1328 -0.74812 0
M  V30 18 H -0.30405 -0.30892 -1.67255 0
M  V30 19 H 0.371854 -0.358253 1.32954 0
M  V30 20 H -0.199912 -1.71988 0.3521 0
M  V30 21 H -1.95075 -0.861425 1.78394 0
M  V30 22 H -1.98458 1.42768 2.04415 0
M  V30 23 H -1.56491 1.76006 0.271604 0
M  V30 24 H -3.99229 2.03182 0.471669 0
M  V30 25 H -4.09598 0.449584 1.4271 0
M  V30 26 H -3.07736 0.783496 -1.39702 0
M  V30 27 H -4.52193 -0.217559 -0.840171 0
M  V30 28 H -3.26045 -1.66249 0.225362 0
M  V30 29 H 5.67384 -0.275933 0.407944 0
M  V30 30 H 5.66353 0.795853 -1.0148 0
M  V30 END ATOM
M  V30 BEGIN BOND
M  V30 1 1 1 2
M  V30 2 1 2 3
M  V30 3 1 3 4
M  V30 4 1 4 5
M  V30 5 1 5 6
M  V30 6 1 6 7
M  V30 7 1 7 8
M  V30 8 1 8 9
M  V30 9 1 9 10
M  V30 10 2 3 11
M  V30 11 1 11 12
M  V30 12 2 12 13
M  V30 13 1 13 14
M  V30 14 1 13 2
M  V30 15 1 10 6
M  V30 16 1 1 15
M  V30 17 1 1 16
M  V30 18 1 4 17
M  V30 19 1 4 18
M  V30 20 1 5 19
M  V30 21 1 5 20
M  V30 22 1 6 21
M  V30 23 1 7 22
M  V30 24 1 7 23
M  V30 25 1 8 24
M  V30 26 1 8 25
M  V30 27 1 9 26
M  V30 28 1 9 27
M  V30 29 1 10 28
M  V30 30 1 14 29
M  V30 31 1 14 30
M  V30 END BOND
M  V30 END CTAB
M  END
