
     RDKit          3D

  0  0  0  0  0  0  0  0  0  0999 V3000
M  V30 BEGIN CTAB
M  V30 COUNTS 62 63 0 0 0
M  V30 BEGIN ATOM
M  V30 1 N -5.45139 0.127128 -0.419557 0
M  V30 2 C -4.23867 0.492815 0.3152 0
M  V30 3 C -3.60913 -0.644108 0.997366 0
M  V30 4 C -2.36399 -1.18817 0.333756 0
M  V30 5 C -1.96399 -2.25071 1.36804 0
M  V30 6 C -2.71486 -1.84672 -0.934156 0
M  V30 7 N -1.27872 -0.153022 0.205873 0
M  V30 8 C -1.87744 1.16084 0.167321 0
M  V30 9 C -3.26727 1.10212 -0.592801 0
M  V30 10 C -2.17171 1.84099 1.44495 0
M  V30 11 C -1.20203 2.16211 -0.761286 0
M  V30 12 C -0.0101464 -0.646375 -0.059743 0
M  V30 13 S -0.105985 -2.36848 -0.467136 0
M  V30 14 N 1.35359 -0.308612 -0.128493 0
M  V30 15 C 2.03 0.870138 0.291605 0
M  V30 16 C 2.31376 1.96796 -0.641424 0
M  V30 17 C 1.46553 1.46939 1.60514 0
M  V30 18 C 3.4638 0.511149 0.854652 0
M  V30 19 C 4.33297 -0.0597329 -0.190681 0
M  V30 20 C 3.52035 -0.527742 -1.33811 0
M  V30 21 C 2.26359 -1.2402 -0.892474 0
M  V30 22 C 2.62128 -2.45779 -0.10654 0
M  V30 23 C 1.65007 -1.67168 -2.2126 0
M  V30 24 N 5.45471 0.769997 -0.59093 0
M  V30 25 H -6.17717 0.856966 -0.257249 0
M  V30 26 H -5.24185 0.197012 -1.45362 0
M  V30 27 H -4.58047 1.2131 1.08243 0
M  V30 28 H -4.34119 -1.51737 0.897808 0
M  V30 29 H -3.48963 -0.558631 2.08908 0
M  V30 30 H -1.9311 -3.26595 0.974142 0
M  V30 31 H -1.02347 -1.99498 1.85612 0
M  V30 32 H -2.80281 -2.27604 2.12817 0
M  V30 33 H -2.62832 -2.97074 -0.9447 0
M  V30 34 H -2.20046 -1.49602 -1.84715 0
M  V30 35 H -3.82533 -1.70448 -1.16685 0
M  V30 36 H -3.1387 0.708471 -1.58919 0
M  V30 37 H -3.5318 2.19681 -0.692337 0
M  V30 38 H -1.37989 2.66484 1.55122 0
M  V30 39 H -2.067 1.23604 2.36668 0
M  V30 40 H -3.11506 2.40793 1.37914 0
M  V30 41 H -0.658775 1.68131 -1.59005 0
M  V30 42 H -0.613537 2.92353 -0.19813 0
M  V30 43 H -2.00259 2.76646 -1.23094 0
M  V30 44 H 1.80656 1.88463 -1.63121 0
M  V30 45 H 1.9452 2.95729 -0.228933 0
M  V30 46 H 3.37356 2.17367 -0.883557 0
M  V30 47 H 0.695753 0.713251 1.92888 0
M  V30 48 H 1.00274 2.44119 1.454 0
M  V30 49 H 2.1809 1.52043 2.41381 0
M  V30 50 H 3.35936 -0.0610335 1.7921 0
M  V30 51 H 3.8553 1.5029 1.14598 0
M  V30 52 H 4.83724 -0.96539 0.278501 0
M  V30 53 H 4.13401 -1.38601 -1.81412 0
M  V30 54 H 3.33559 0.158987 -2.15675 0
M  V30 55 H 2.16108 -2.4118 0.898417 0
M  V30 56 H 2.28076 -3.42635 -0.559894 0
M  V30 57 H 3.73329 -2.60165 -0.0297548 0
M  V30 58 H 0.763669 -1.08462 -2.51493 0
M  V30 59 H 1.58036 -2.76433 -2.34619 0
M  V30 60 H 2.38144 -1.39767 -3.05819 0
M  V30 61 H 5.43256 1.05998 -1.57152 0
M  V30 62 H 5.67545 1.50695 0.088935 0
M  V30 END ATOM
M  V30 BEGIN BOND
M  V30 1 1 1 2
M  V30 2 1 2 3
M  V30 3 1 3 4
M  V30 4 1 4 5
M  V30 5 1 4 6
M  V30 6 1 4 7
M  V30 7 1 7 8
M  V30 8 1 8 9
M  V30 9 1 8 10
M  V30 10 1 8 11
M  V30 11 1 7 12
M  V30 12 2 12 13
M  V30 13 1 12 14
M  V30 14 1 14 15
M  V30 15 1 15 16
M  V30 16 1 15 17
M  V30 17 1 15 18
M  V30 18 1 18 19
M  V30 19 1 19 20
M  V30 20 1 20 21
M  V30 21 1 21 22
M  V30 22 1 21 23
M  V30 23 1 19 24
M  V30 24 1 9 2
M  V30 25 1 21 14
M  V30 26 1 1 25
M  V30 27 1 1 26
M  V30 28 1 2 27
M  V30 29 1 3 28
M  V30 30 1 3 29
M  V30 31 1 5 30
M  V30 32 1 5 31
M  V30 33 1 5 32
M  V30 34 1 6 33
M  V30 35 1 6 34
M  V30 36 1 6 35
M  V30 37 1 9 36
M  V30 38 1 9 37
M  V30 39 1 10 38
M  V30 40 1 10 39
M  V30 41 1 10 40
M  V30 42 1 11 41
M  V30 43 1 11 42
M  V30 44 1 11 43
M  V30 45 1 16 44
M  V30 46 1 16 45
M  V30 47 1 16 46
M  V30 48 1 17 47
M  V30 49 1 17 48
M  V30 50 1 17 49
M  V30 51 1 18 50
M  V30 52 1 18 51
M  V30 53 1 19 52
M  V30 54 1 20 53
M  V30 55 1 20 54
M  V30 56 1 22 55
M  V30 57 1 22 56
M  V30 58 1 22 57
M  V30 59 1 23 58
M  V30 60 1 23 59
M  V30 61 1 23 60
M  V30 62 1 24 61
M  V30 63 1 24 62
M  V30 END BOND
M  V30 END CTAB
M  END
