
     RDKit          3D

  0  0  0  0  0  0  0  0  0  0999 V3000
M  V30 BEGIN CTAB
M  V30 COUNTS 37 38 0 0 0
M  V30 BEGIN ATOM
M  V30 1 C -4.09173 1.40338 0.495333 0
M  V30 2 C -3.72664 0.676703 -0.773553 0
M  V30 3 C -2.62913 -0.260616 -0.469665 0
M  V30 4 C -2.86572 -1.54505 -0.0708952 0
M  V30 5 C -1.83867 -2.40996 0.209644 0
M  V30 6 C -0.543413 -1.95548 0.0808074 0
M  V30 7 C -0.250134 -0.669332 -0.317924 0
M  V30 8 C -1.31318 0.167657 -0.590106 0
M  V30 9 N 1.10962 -0.201884 -0.450134 0
M  V30 10 C 1.75279 -0.358513 -1.70708 0
M  V30 11 N 0.991648 -0.981558 -2.77531 0
M  V30 12 N 2.94452 0.0173017 -1.93039 0
M  V30 13 C 3.67151 0.619756 -0.886708 0
M  V30 14 N 5.0062 1.0605 -1.07416 0
M  V30 15 N 3.13085 0.781474 0.264965 0
M  V30 16 C 1.80562 0.403951 0.641041 0
M  V30 17 C 1.05885 1.57115 1.24453 0
M  V30 18 C 1.93236 -0.678476 1.72676 0
M  V30 19 H -5.09533 1.05741 0.802644 0
M  V30 20 H -4.03196 2.49438 0.374044 0
M  V30 21 H -3.40865 1.13817 1.34067 0
M  V30 22 H -4.60787 0.191224 -1.22643 0
M  V30 23 H -3.38207 1.43675 -1.52892 0
M  V30 24 H -3.87538 -1.88749 0.0258381 0
M  V30 25 H -1.99306 -3.42241 0.524295 0
M  V30 26 H 0.282192 -2.61076 0.293823 0
M  V30 27 H -1.08039 1.1739 -0.902031 0
M  V30 28 H 0.617597 -1.94009 -2.62634 0
M  V30 29 H 0.817712 -0.498338 -3.66572 0
M  V30 30 H 5.23665 2.06674 -1.22176 0
M  V30 31 H 5.7533 0.324355 -1.05733 0
M  V30 32 H 0.411162 1.19945 2.05961 0
M  V30 33 H 1.84505 2.20733 1.74784 0
M  V30 34 H 0.561322 2.20581 0.512309 0
M  V30 35 H 0.914894 -0.852505 2.10752 0
M  V30 36 H 2.28521 -1.58506 1.20744 0
M  V30 37 H 2.60429 -0.339868 2.53956 0
M  V30 END ATOM
M  V30 BEGIN BOND
M  V30 1 1 1 2
M  V30 2 1 2 3
M  V30 3 2 3 4
M  V30 4 1 4 5
M  V30 5 2 5 6
M  V30 6 1 6 7
M  V30 7 2 7 8
M  V30 8 1 7 9
M  V30 9 1 9 10
M  V30 10 1 10 11
M  V30 11 2 10 12
M  V30 12 1 12 13
M  V30 13 1 13 14
M  V30 14 2 13 15
M  V30 15 1 15 16
M  V30 16 1 16 17
M  V30 17 1 16 18
M  V30 18 1 8 3
M  V30 19 1 16 9
M  V30 20 1 1 19
M  V30 21 1 1 20
M  V30 22 1 1 21
M  V30 23 1 2 22
M  V30 24 1 2 23
M  V30 25 1 4 24
M  V30 26 1 5 25
M  V30 27 1 6 26
M  V30 28 1 8 27
M  V30 29 1 11 28
M  V30 30 1 11 29
M  V30 31 1 14 30
M  V30 32 1 14 31
M  V30 33 1 17 32
M  V30 34 1 17 33
M  V30 35 1 17 34
M  V30 36 1 18 35
M  V30 37 1 18 36
M  V30 38 1 18 37
M  V30 END BOND
M  V30 END CTAB
M  END
