
     RDKit          3D

  0  0  0  0  0  0  0  0  0  0999 V3000
M  V30 BEGIN CTAB
M  V30 COUNTS 32 33 0 0 0
M  V30 BEGIN ATOM
M  V30 1 C 4.14272 -0.346698 -1.07606 0
M  V30 2 C 3.35941 -0.0137455 0.191687 0
M  V30 3 C 1.90322 -0.049756 0.0147607 0
M  V30 4 C 1.22984 0.858737 -0.75428 0
M  V30 5 C -0.168075 0.832418 -0.795791 0
M  V30 6 C -0.906622 -0.0773998 -0.0944508 0
M  V30 7 C -0.227946 -1.01972 0.703928 0
M  V30 8 C 1.16652 -0.956616 0.711364 0
M  V30 9 F 1.8168 -1.87567 1.48949 0
M  V30 10 C -2.3567 -0.0502022 0.0084649 0
M  V30 11 C -3.18347 1.03746 0.125334 0
M  V30 12 N -2.7079 2.37738 0.441136 0
M  V30 13 C -4.50037 0.61482 -0.000418308 0
M  V30 14 N -4.44092 -0.702796 -0.172496 0
M  V30 15 N -3.15459 -1.09261 -0.165566 0
M  V30 16 C -2.7256 -2.48715 -0.41889 0
M  V30 17 N 3.68956 1.48539 0.367574 0
M  V30 18 H 5.2313 -0.540018 -0.74581 0
M  V30 19 H 4.12986 0.424201 -1.83322 0
M  V30 20 H 3.80573 -1.33269 -1.50432 0
M  V30 21 H 3.8092 -0.469025 1.04071 0
M  V30 22 H 1.79277 1.57939 -1.28919 0
M  V30 23 H -0.681883 1.56521 -1.4159 0
M  V30 24 H -0.785855 -1.71504 1.2573 0
M  V30 25 H -2.46756 3.13207 -0.18245 0
M  V30 26 H -2.61492 2.61315 1.48369 0
M  V30 27 H -5.35476 1.23467 0.086129 0
M  V30 28 H -1.72165 -2.45288 -0.909912 0
M  V30 29 H -3.48737 -2.912 -1.11821 0
M  V30 30 H -2.71154 -3.07665 0.504388 0
M  V30 31 H 4.58967 1.65367 -0.0615749 0
M  V30 32 H 3.5311 1.76209 1.319 0
M  V30 END ATOM
M  V30 BEGIN BOND
M  V30 1 1 1 2
M  V30 2 1 2 3
M  V30 3 2 3 4
M  V30 4 1 4 5
M  V30 5 2 5 6
M  V30 6 1 6 7
M  V30 7 2 7 8
M  V30 8 1 8 9
M  V30 9 1 6 10
M  V30 10 2 10 11
M  V30 11 1 11 12
M  V30 12 1 11 13
M  V30 13 2 13 14
M  V30 14 1 14 15
M  V30 15 1 15 16
M  V30 16 1 2 17
M  V30 17 1 8 3
M  V30 18 1 15 10
M  V30 19 1 1 18
M  V30 20 1 1 19
M  V30 21 1 1 20
M  V30 22 1 2 21
M  V30 23 1 4 22
M  V30 24 1 5 23
M  V30 25 1 7 24
M  V30 26 1 12 25
M  V30 27 1 12 26
M  V30 28 1 13 27
M  V30 29 1 16 28
M  V30 30 1 16 29
M  V30 31 1 16 30
M  V30 32 1 17 31
M  V30 33 1 17 32
M  V30 END BOND
M  V30 END CTAB
M  END
