
     RDKit          3D

  0  0  0  0  0  0  0  0  0  0999 V3000
M  V30 BEGIN CTAB
M  V30 COUNTS 33 33 0 0 0
M  V30 BEGIN ATOM
M  V30 1 N 3.39523 1.16984 -0.642444 0
M  V30 2 C 3.13627 -0.198515 -0.257629 0
M  V30 3 C 1.67041 -0.426804 -0.0198196 0
M  V30 4 N 1.44795 -1.79709 0.36014 0
M  V30 5 C 0.821847 -0.116812 -1.23444 0
M  V30 6 C -0.567771 -0.591163 -0.920123 0
M  V30 7 N -1.03424 -0.274843 0.381489 0
M  V30 8 C -0.275261 0.731416 1.07152 0
M  V30 9 C 1.20441 0.527711 1.05998 0
M  V30 10 C -2.42597 0.0360749 0.491462 0
M  V30 11 C -2.86305 1.30974 -0.141288 0
M  V30 12 C -3.30453 -1.07139 -0.0865559 0
M  V30 13 H 4.22942 1.53698 -0.141988 0
M  V30 14 H 3.5087 1.24605 -1.68788 0
M  V30 15 H 3.64784 -0.419263 0.71328 0
M  V30 16 H 3.56711 -0.916685 -0.984005 0
M  V30 17 H 1.84244 -2.39742 -0.39207 0
M  V30 18 H 2.03237 -1.97512 1.21598 0
M  V30 19 H 1.20507 -0.633206 -2.1251 0
M  V30 20 H 0.804643 0.975234 -1.38257 0
M  V30 21 H -1.25928 -0.312537 -1.73772 0
M  V30 22 H -0.516137 -1.72182 -0.971138 0
M  V30 23 H -0.594939 0.689774 2.14452 0
M  V30 24 H -0.545038 1.75878 0.738038 0
M  V30 25 H 1.61834 0.186592 2.031 0
M  V30 26 H 1.69057 1.51229 0.811188 0
M  V30 27 H -2.67748 0.0687184 1.57458 0
M  V30 28 H -3.3152 2.00913 0.624526 0
M  V30 29 H -3.66731 1.17521 -0.895188 0
M  V30 30 H -2.05832 1.89766 -0.615523 0
M  V30 31 H -3.27503 -1.10946 -1.18475 0
M  V30 32 H -4.35916 -0.826044 0.198456 0
M  V30 33 H -3.08389 -2.04304 0.393611 0
M  V30 END ATOM
M  V30 BEGIN BOND
M  V30 1 1 1 2
M  V30 2 1 2 3
M  V30 3 1 3 4
M  V30 4 1 3 5
M  V30 5 1 5 6
M  V30 6 1 6 7
M  V30 7 1 7 8
M  V30 8 1 8 9
M  V30 9 1 7 10
M  V30 10 1 10 11
M  V30 11 1 10 12
M  V30 12 1 9 3
M  V30 13 1 1 13
M  V30 14 1 1 14
M  V30 15 1 2 15
M  V30 16 1 2 16
M  V30 17 1 4 17
M  V30 18 1 4 18
M  V30 19 1 5 19
M  V30 20 1 5 20
M  V30 21 1 6 21
M  V30 22 1 6 22
M  V30 23 1 8 23
M  V30 24 1 8 24
M  V30 25 1 9 25
M  V30 26 1 9 26
M  V30 27 1 10 27
M  V30 28 1 11 28
M  V30 29 1 11 29
M  V30 30 1 11 30
M  V30 31 1 12 31
M  V30 32 1 12 32
M  V30 33 1 12 33
M  V30 END BOND
M  V30 END CTAB
M  END
