
     RDKit          3D

  0  0  0  0  0  0  0  0  0  0999 V3000
M  V30 BEGIN CTAB
M  V30 COUNTS 18 18 0 0 0
M  V30 BEGIN ATOM
M  V30 1 N 3.25948 0.631123 0.401984 0
M  V30 2 C 1.87945 0.305258 0.367347 0
M  V30 3 C 0.899157 1.29185 0.247926 0
M  V30 4 C -0.440278 0.964848 0.215138 0
M  V30 5 C -0.868386 -0.342749 0.298304 0
M  V30 6 C 0.0869546 -1.32217 0.416083 0
M  V30 7 C 1.42471 -1.00308 0.449413 0
M  V30 8 Cl -0.451238 -3.007 0.523786 0
M  V30 9 C -2.29614 -0.687696 0.263075 0
M  V30 10 S -2.74051 -2.21114 0.622485 0
M  V30 11 N -3.27773 0.259495 -0.0709004 0
M  V30 12 H 3.63125 1.41705 -0.159806 0
M  V30 13 H 3.91774 0.0866311 0.991074 0
M  V30 14 H 1.25977 2.323 0.183363 0
M  V30 15 H -1.15625 1.78119 0.120468 0
M  V30 16 H 2.14113 -1.79403 0.542118 0
M  V30 17 H -4.1245 0.0706732 -0.653858 0
M  V30 18 H -3.14461 1.23673 0.2985 0
M  V30 END ATOM
M  V30 BEGIN BOND
M  V30 1 1 1 2
M  V30 2 2 2 3
M  V30 3 1 3 4
M  V30 4 2 4 5
M  V30 5 1 5 6
M  V30 6 2 6 7
M  V30 7 1 6 8
M  V30 8 1 5 9
M  V30 9 2 9 10
M  V30 10 1 9 11
M  V30 11 1 7 2
M  V30 12 1 1 12
M  V30 13 1 1 13
M  V30 14 1 3 14
M  V30 15 1 4 15
M  V30 16 1 7 16
M  V30 17 1 11 17
M  V30 18 1 11 18
M  V30 END BOND
M  V30 END CTAB
M  END
