
     RDKit          3D

  0  0  0  0  0  0  0  0  0  0999 V3000
M  V30 BEGIN CTAB
M  V30 COUNTS 23 23 0 0 0
M  V30 BEGIN ATOM
M  V30 1 N 4.14456 -0.469233 -0.153661 0
M  V30 2 O 2.78625 -0.44836 0.039908 0
M  V30 3 C 1.92177 0.376038 -0.626154 0
M  V30 4 O 2.35292 1.18077 -1.47741 0
M  V30 5 C 0.498575 0.325641 -0.352706 0
M  V30 6 C -0.402616 1.14999 -1.01408 0
M  V30 7 C -1.75022 1.11428 -0.767767 0
M  V30 8 C -2.20629 0.22707 0.168167 0
M  V30 9 C -1.34931 -0.615667 0.854409 0
M  V30 10 C 0.00592005 -0.551647 0.579041 0
M  V30 11 N 0.888737 -1.41581 1.28187 0
M  V30 12 N -1.82412 -1.52436 1.81721 0 CHG=1
M  V30 13 O -1.17016 -1.87436 2.82003 0
M  V30 14 O -3.07542 -2.07596 1.67349 0 CHG=-1
M  V30 15 N -2.64495 1.96468 -1.45699 0 CHG=1
M  V30 16 O -3.87012 1.89869 -1.20497 0
M  V30 17 O -2.23804 2.87411 -2.40365 0 CHG=-1
M  V30 18 H 4.33942 -1.13645 -0.958386 0
M  V30 19 H 4.40179 0.479323 -0.555935 0
M  V30 20 H -0.00843638 1.83329 -1.74163 0
M  V30 21 H -3.27103 0.199287 0.362609 0
M  V30 22 H 0.958152 -2.44592 1.05838 0
M  V30 23 H 1.51263 -1.06542 2.0582 0
M  V30 END ATOM
M  V30 BEGIN BOND
M  V30 1 1 1 2
M  V30 2 1 2 3
M  V30 3 2 3 4
M  V30 4 1 3 5
M  V30 5 2 5 6
M  V30 6 1 6 7
M  V30 7 2 7 8
M  V30 8 1 8 9
M  V30 9 2 9 10
M  V30 10 1 10 11
M  V30 11 1 9 12
M  V30 12 2 12 13
M  V30 13 1 12 14
M  V30 14 1 7 15
M  V30 15 2 15 16
M  V30 16 1 15 17
M  V30 17 1 10 5
M  V30 18 1 1 18
M  V30 19 1 1 19
M  V30 20 1 6 20
M  V30 21 1 8 21
M  V30 22 1 11 22
M  V30 23 1 11 23
M  V30 END BOND
M  V30 END CTAB
M  END
