
     RDKit          3D

  0  0  0  0  0  0  0  0  0  0999 V3000
M  V30 BEGIN CTAB
M  V30 COUNTS 31 33 0 0 0
M  V30 BEGIN ATOM
M  V30 1 O -3.45533 -2.51307 0.234631 0
M  V30 2 C -3.32709 -1.3263 -0.173207 0
M  V30 3 C -4.3214 -0.592212 -1.01141 0
M  V30 4 N -3.99648 0.783011 -0.632126 0
M  V30 5 C -2.64214 0.791226 -0.204997 0
M  V30 6 C -2.20898 -0.422406 0.0737905 0
M  V30 7 C -0.873936 -0.855786 0.531099 0
M  V30 8 S -0.439379 -2.02659 1.69088 0
M  V30 9 C 1.2637 -1.8887 1.57603 0
M  V30 10 C 1.39693 -0.919505 0.621972 0
M  V30 11 N 0.301894 -0.420901 0.117229 0
M  V30 12 C 2.72696 -0.436063 0.151789 0
M  V30 13 C 2.84374 0.534127 -0.813086 0
M  V30 14 C 4.07933 0.959342 -1.23495 0
M  V30 15 C 5.21553 0.39335 -0.670996 0
M  V30 16 C 5.11745 -0.573343 0.289911 0
M  V30 17 C 3.86256 -0.985046 0.698701 0
M  V30 18 N -1.85437 1.9604 -0.0886498 0
M  V30 19 N -4.93549 1.81687 -0.720765 0
M  V30 20 H -4.14769 -0.767505 -2.07959 0
M  V30 21 H -5.36943 -0.841078 -0.767533 0
M  V30 22 H 2.05002 -2.43793 2.12906 0
M  V30 23 H 1.94214 0.950283 -1.2275 0
M  V30 24 H 4.2074 1.70836 -1.98137 0
M  V30 25 H 6.19537 0.745039 -1.0197 0
M  V30 26 H 6.00583 -0.996518 0.711545 0
M  V30 27 H 3.78963 -1.74723 1.45687 0
M  V30 28 H -2.04138 2.61032 0.701039 0
M  V30 29 H -1.10797 2.18417 -0.755558 0
M  V30 30 H -5.71798 1.5749 -0.0744042 0
M  V30 31 H -4.55945 2.73878 -0.412116 0
M  V30 END ATOM
M  V30 BEGIN BOND
M  V30 1 2 1 2
M  V30 2 1 2 3
M  V30 3 1 3 4
M  V30 4 1 4 5
M  V30 5 2 5 6
M  V30 6 1 6 7
M  V30 7 1 7 8
M  V30 8 1 8 9
M  V30 9 2 9 10
M  V30 10 1 10 11
M  V30 11 1 10 12
M  V30 12 2 12 13
M  V30 13 1 13 14
M  V30 14 2 14 15
M  V30 15 1 15 16
M  V30 16 2 16 17
M  V30 17 1 5 18
M  V30 18 1 4 19
M  V30 19 1 6 2
M  V30 20 2 11 7
M  V30 21 1 17 12
M  V30 22 1 3 20
M  V30 23 1 3 21
M  V30 24 1 9 22
M  V30 25 1 13 23
M  V30 26 1 14 24
M  V30 27 1 15 25
M  V30 28 1 16 26
M  V30 29 1 17 27
M  V30 30 1 18 28
M  V30 31 1 18 29
M  V30 32 1 19 30
M  V30 33 1 19 31
M  V30 END BOND
M  V30 END CTAB
M  END
