
     RDKit          3D

  0  0  0  0  0  0  0  0  0  0999 V3000
M  V30 BEGIN CTAB
M  V30 COUNTS 38 39 0 0 0
M  V30 BEGIN ATOM
M  V30 1 N -6.15142 -0.799724 0.891883 0
M  V30 2 C -5.14585 -0.0341358 0.232833 0
M  V30 3 C -5.5023 0.881684 -0.734217 0
M  V30 4 C -4.54031 1.63049 -1.38128 0
M  V30 5 C -3.20691 1.49387 -1.09032 0
M  V30 6 C -2.84388 0.56639 -0.110732 0
M  V30 7 C -3.81855 -0.172453 0.524806 0
M  V30 8 C -1.45996 0.357722 0.258905 0
M  V30 9 N -0.53136 1.03761 -0.32226 0
M  V30 10 N 0.828414 0.892875 -0.0200468 0
M  V30 11 C 1.54908 -0.0434552 -0.479404 0
M  V30 12 C 2.97844 -0.186381 -0.155089 0
M  V30 13 C 3.72964 -1.21887 -0.674563 0
M  V30 14 C 5.08667 -1.36064 -0.371052 0
M  V30 15 C 5.69445 -0.450459 0.466536 0
M  V30 16 C 4.95913 0.605235 1.00748 0
M  V30 17 C 3.62304 0.703324 0.678751 0
M  V30 18 N 5.61321 1.52276 1.86416 0
M  V30 19 C 0.934328 -1.04664 -1.38617 0
M  V30 20 C -1.11126 -0.626639 1.29439 0
M  V30 21 H -5.91245 -1.32541 1.75312 0
M  V30 22 H -7.12032 -0.830475 0.510052 0
M  V30 23 H -6.56342 1.01498 -0.99061 0
M  V30 24 H -4.85775 2.33966 -2.13486 0
M  V30 25 H -2.42625 2.05917 -1.57259 0
M  V30 26 H -3.5448 -0.89576 1.28769 0
M  V30 27 H 3.26883 -1.93447 -1.328 0
M  V30 28 H 5.68428 -2.16806 -0.774246 0
M  V30 29 H 6.74127 -0.525616 0.725317 0
M  V30 30 H 3.03658 1.51822 1.09068 0
M  V30 31 H 6.63582 1.69378 1.81032 0
M  V30 32 H 5.07123 2.05055 2.57462 0
M  V30 33 H -0.0477639 -0.725027 -1.75319 0
M  V30 34 H 0.868983 -2.02519 -0.84896 0
M  V30 35 H 1.56658 -1.24445 -2.28369 0
M  V30 36 H -0.0521505 -0.556522 1.60803 0
M  V30 37 H -1.75268 -0.551242 2.19981 0
M  V30 38 H -1.2806 -1.64667 0.876553 0
M  V30 END ATOM
M  V30 BEGIN BOND
M  V30 1 1 1 2
M  V30 2 2 2 3
M  V30 3 1 3 4
M  V30 4 2 4 5
M  V30 5 1 5 6
M  V30 6 2 6 7
M  V30 7 1 6 8
M  V30 8 2 8 9
M  V30 9 1 9 10
M  V30 10 2 10 11
M  V30 11 1 11 12
M  V30 12 2 12 13
M  V30 13 1 13 14
M  V30 14 2 14 15
M  V30 15 1 15 16
M  V30 16 2 16 17
M  V30 17 1 16 18
M  V30 18 1 11 19
M  V30 19 1 8 20
M  V30 20 1 7 2
M  V30 21 1 17 12
M  V30 22 1 1 21
M  V30 23 1 1 22
M  V30 24 1 3 23
M  V30 25 1 4 24
M  V30 26 1 5 25
M  V30 27 1 7 26
M  V30 28 1 13 27
M  V30 29 1 14 28
M  V30 30 1 15 29
M  V30 31 1 17 30
M  V30 32 1 18 31
M  V30 33 1 18 32
M  V30 34 1 19 33
M  V30 35 1 19 34
M  V30 36 1 19 35
M  V30 37 1 20 36
M  V30 38 1 20 37
M  V30 39 1 20 38
M  V30 END BOND
M  V30 END CTAB
M  END
