
     RDKit          3D

  0  0  0  0  0  0  0  0  0  0999 V3000
M  V30 BEGIN CTAB
M  V30 COUNTS 35 36 0 0 0
M  V30 BEGIN ATOM
M  V30 1 O -0.234843 1.86082 1.1007 0
M  V30 2 C -0.342008 0.847519 0.374082 0
M  V30 3 C 0.897795 0.188592 -0.102463 0
M  V30 4 C 2.12374 0.817184 0.562484 0
M  V30 5 C 3.2977 0.0998169 0.0351741 0
M  V30 6 C 4.26969 0.769381 -0.644329 0
M  V30 7 C 5.34755 0.0733226 -1.13712 0
M  V30 8 C 5.46442 -1.30195 -0.955115 0
M  V30 9 C 4.47236 -1.9668 -0.265233 0
M  V30 10 C 3.39354 -1.25438 0.225424 0
M  V30 11 N 2.06258 0.575168 2.00065 0
M  V30 12 N -1.60243 0.330853 0.0102929 0
M  V30 13 C -2.77185 1.02309 0.508305 0
M  V30 14 C -4.03676 0.223572 0.26617 0
M  V30 15 C -4.34586 -0.818485 1.11679 0
M  V30 16 S -5.82109 -1.36373 0.453223 0
M  V30 17 C -5.95641 -0.257358 -0.838885 0
M  V30 18 N -4.85769 0.473182 -0.692967 0
M  V30 19 N -7.00296 -0.159495 -1.82368 0
M  V30 20 H 0.810625 -0.881437 0.0758113 0
M  V30 21 H 1.06357 0.344203 -1.20131 0
M  V30 22 H 2.14061 1.88176 0.392688 0
M  V30 23 H 4.24087 1.84432 -0.821795 0
M  V30 24 H 6.14795 0.553256 -1.68202 0
M  V30 25 H 6.31664 -1.84928 -1.34348 0
M  V30 26 H 4.52543 -3.03892 -0.105121 0
M  V30 27 H 2.64507 -1.83449 0.757681 0
M  V30 28 H 1.15787 0.114402 2.25415 0
M  V30 29 H 2.21228 1.47012 2.50939 0
M  V30 30 H -1.67225 -0.518312 -0.588773 0
M  V30 31 H -2.79277 1.99936 0.0309683 0
M  V30 32 H -2.61654 1.17677 1.58858 0
M  V30 33 H -3.7646 -1.17193 1.9862 0
M  V30 34 H -7.99272 -0.346114 -1.56311 0
M  V30 35 H -6.77951 0.0959964 -2.78593 0
M  V30 END ATOM
M  V30 BEGIN BOND
M  V30 1 2 1 2
M  V30 2 1 2 3
M  V30 3 1 3 4
M  V30 4 1 4 5
M  V30 5 2 5 6
M  V30 6 1 6 7
M  V30 7 2 7 8
M  V30 8 1 8 9
M  V30 9 2 9 10
M  V30 10 1 4 11
M  V30 11 1 2 12
M  V30 12 1 12 13
M  V30 13 1 13 14
M  V30 14 2 14 15
M  V30 15 1 15 16
M  V30 16 1 16 17
M  V30 17 2 17 18
M  V30 18 1 17 19
M  V30 19 1 10 5
M  V30 20 1 18 14
M  V30 21 1 3 20
M  V30 22 1 3 21
M  V30 23 1 4 22
M  V30 24 1 6 23
M  V30 25 1 7 24
M  V30 26 1 8 25
M  V30 27 1 9 26
M  V30 28 1 10 27
M  V30 29 1 11 28
M  V30 30 1 11 29
M  V30 31 1 12 30
M  V30 32 1 13 31
M  V30 33 1 13 32
M  V30 34 1 15 33
M  V30 35 1 19 34
M  V30 36 1 19 35
M  V30 END BOND
M  V30 END CTAB
M  END
