
     RDKit          3D

  0  0  0  0  0  0  0  0  0  0999 V3000
M  V30 BEGIN CTAB
M  V30 COUNTS 45 46 0 0 0
M  V30 BEGIN ATOM
M  V30 1 N 5.51128 -0.104756 0.513147 0
M  V30 2 C 4.37807 0.114294 -0.377189 0
M  V30 3 C 3.28663 0.801055 0.424098 0
M  V30 4 C 2.68894 -0.256808 1.33072 0
M  V30 5 C 1.72573 -1.06496 0.451985 0
M  V30 6 C 2.38368 -1.33947 -0.8591 0
M  V30 7 C 3.87435 -1.20904 -0.842233 0
M  V30 8 N 0.533463 -0.25523 0.297343 0
M  V30 9 C -0.716041 -0.636598 0.847717 0
M  V30 10 O -0.769788 -1.71655 1.48789 0
M  V30 11 C -1.93168 0.197569 0.684283 0
M  V30 12 C -3.09933 -0.455605 1.39547 0
M  V30 13 C -4.26764 0.496593 1.53324 0
M  V30 14 C -4.30005 1.37072 0.30605 0
M  V30 15 C -3.72696 0.663245 -0.899708 0
M  V30 16 C -2.22809 0.461612 -0.766425 0
M  V30 17 C -1.79302 -0.640162 -1.67539 0
M  V30 18 N -1.60143 1.71953 -1.1232 0
M  V30 19 H 5.62703 0.648145 1.20746 0
M  V30 20 H 6.38485 -0.295421 0.00177403 0
M  V30 21 H 4.65267 0.81151 -1.20497 0
M  V30 22 H 2.54313 1.16781 -0.315854 0
M  V30 23 H 3.67674 1.6623 1.00949 0
M  V30 24 H 3.49249 -0.93223 1.6697 0
M  V30 25 H 2.19577 0.149048 2.21318 0
M  V30 26 H 1.4941 -1.97821 1.0391 0
M  V30 27 H 1.91195 -0.694202 -1.62758 0
M  V30 28 H 2.14559 -2.3874 -1.14518 0
M  V30 29 H 4.21619 -1.33181 -1.9095 0
M  V30 30 H 4.32191 -2.05278 -0.295341 0
M  V30 31 H 0.573754 0.640478 -0.231656 0
M  V30 32 H -1.7884 1.18017 1.17918 0
M  V30 33 H -2.7683 -0.713105 2.42296 0
M  V30 34 H -3.41179 -1.40665 0.918239 0
M  V30 35 H -4.09029 1.15583 2.40925 0
M  V30 36 H -5.21723 -0.0126827 1.69862 0
M  V30 37 H -3.78117 2.31994 0.50504 0
M  V30 38 H -5.35882 1.60147 0.079108 0
M  V30 39 H -4.17605 -0.345022 -0.942989 0
M  V30 40 H -3.98523 1.20767 -1.82225 0
M  V30 41 H -2.67489 -1.07199 -2.21709 0
M  V30 42 H -1.29986 -1.48508 -1.17461 0
M  V30 43 H -1.14469 -0.216542 -2.47946 0
M  V30 44 H -1.22879 1.7194 -2.08811 0
M  V30 45 H -2.25873 2.51395 -0.924873 0
M  V30 END ATOM
M  V30 BEGIN BOND
M  V30 1 1 1 2
M  V30 2 1 2 3
M  V30 3 1 3 4
M  V30 4 1 4 5
M  V30 5 1 5 6
M  V30 6 1 6 7
M  V30 7 1 5 8
M  V30 8 1 8 9
M  V30 9 2 9 10
M  V30 10 1 9 11
M  V30 11 1 11 12
M  V30 12 1 12 13
M  V30 13 1 13 14
M  V30 14 1 14 15
M  V30 15 1 15 16
M  V30 16 1 16 17
M  V30 17 1 16 18
M  V30 18 1 7 2
M  V30 19 1 16 11
M  V30 20 1 1 19
M  V30 21 1 1 20
M  V30 22 1 2 21
M  V30 23 1 3 22
M  V30 24 1 3 23
M  V30 25 1 4 24
M  V30 26 1 4 25
M  V30 27 1 5 26
M  V30 28 1 6 27
M  V30 29 1 6 28
M  V30 30 1 7 29
M  V30 31 1 7 30
M  V30 32 1 8 31
M  V30 33 1 11 32
M  V30 34 1 12 33
M  V30 35 1 12 34
M  V30 36 1 13 35
M  V30 37 1 13 36
M  V30 38 1 14 37
M  V30 39 1 14 38
M  V30 40 1 15 39
M  V30 41 1 15 40
M  V30 42 1 17 41
M  V30 43 1 17 42
M  V30 44 1 17 43
M  V30 45 1 18 44
M  V30 46 1 18 45
M  V30 END BOND
M  V30 END CTAB
M  END
