
     RDKit          3D

  0  0  0  0  0  0  0  0  0  0999 V3000
M  V30 BEGIN CTAB
M  V30 COUNTS 40 42 0 0 0
M  V30 BEGIN ATOM
M  V30 1 N -5.77684 0.00933872 -0.980916 0
M  V30 2 C -5.18821 0.777792 0.0762292 0 CFG=2
M  V30 3 C -4.02334 1.64351 -0.333129 0
M  V30 4 C -3.11157 0.932659 0.658466 0 CFG=1
M  V30 5 C -4.24385 -0.0256284 0.960126 0
M  V30 6 C -1.95488 0.230291 -0.000641232 0
M  V30 7 C -0.662697 0.4293 0.438089 0
M  V30 8 C 0.398478 -0.214585 -0.165979 0
M  V30 9 N 0.0922316 -1.03025 -1.18795 0
M  V30 10 C -1.15334 -1.24225 -1.63495 0
M  V30 11 N -2.17528 -0.604298 -1.03187 0
M  V30 12 N -1.32323 -2.1267 -2.71785 0
M  V30 13 N 1.74221 -0.0332922 0.259583 0
M  V30 14 C 2.77645 -0.751004 -0.436895 0
M  V30 15 C 4.12608 -0.477888 0.0991538 0
M  V30 16 C 4.64064 -1.26156 1.11428 0
M  V30 17 N 5.86852 -1.02694 1.61462 0
M  V30 18 C 6.64696 -0.0297158 1.15697 0
M  V30 19 C 6.13552 0.754138 0.143493 0
M  V30 20 N 4.90596 0.518954 -0.357309 0
M  V30 21 C 2.0027 0.855402 1.36171 0
M  V30 22 H -5.20985 -0.796156 -1.29694 0
M  V30 23 H -6.0481 0.624693 -1.76084 0
M  V30 24 H -5.93642 1.34291 0.646386 0
M  V30 25 H -3.69053 1.4271 -1.36703 0
M  V30 26 H -4.1567 2.73058 -0.104157 0
M  V30 27 H -2.78276 1.5736 1.47578 0
M  V30 28 H -4.56244 -0.0415763 2.01836 0
M  V30 29 H -4.09612 -1.05218 0.549664 0
M  V30 30 H -0.471592 1.09323 1.2609 0
M  V30 31 H -1.2253 -3.14213 -2.57339 0
M  V30 32 H -1.54521 -1.75655 -3.65291 0
M  V30 33 H 2.72877 -0.551829 -1.52354 0
M  V30 34 H 2.59329 -1.84328 -0.315181 0
M  V30 35 H 4.03245 -2.07705 1.50505 0
M  V30 36 H 7.63984 0.176266 1.5467 0
M  V30 37 H 6.76918 1.55319 -0.217441 0
M  V30 38 H 1.43521 1.81791 1.28712 0
M  V30 39 H 3.08415 1.17629 1.38296 0
M  V30 40 H 1.71963 0.417706 2.35081 0
M  V30 END ATOM
M  V30 BEGIN BOND
M  V30 1 1 1 2
M  V30 2 1 2 3
M  V30 3 1 3 4
M  V30 4 1 4 5
M  V30 5 1 4 6
M  V30 6 2 6 7
M  V30 7 1 7 8
M  V30 8 2 8 9
M  V30 9 1 9 10
M  V30 10 2 10 11
M  V30 11 1 10 12
M  V30 12 1 8 13
M  V30 13 1 13 14
M  V30 14 1 14 15
M  V30 15 2 15 16
M  V30 16 1 16 17
M  V30 17 2 17 18
M  V30 18 1 18 19
M  V30 19 2 19 20
M  V30 20 1 13 21
M  V30 21 1 5 2
M  V30 22 1 11 6
M  V30 23 1 20 15
M  V30 24 1 1 22
M  V30 25 1 1 23
M  V30 26 1 2 24 CFG=1
M  V30 27 1 3 25
M  V30 28 1 3 26
M  V30 29 1 4 27 CFG=1
M  V30 30 1 5 28
M  V30 31 1 5 29
M  V30 32 1 7 30
M  V30 33 1 12 31
M  V30 34 1 12 32
M  V30 35 1 14 33
M  V30 36 1 14 34
M  V30 37 1 16 35
M  V30 38 1 18 36
M  V30 39 1 19 37
M  V30 40 1 21 38
M  V30 41 1 21 39
M  V30 42 1 21 40
M  V30 END BOND
M  V30 END CTAB
M  END
