
     RDKit          3D

  0  0  0  0  0  0  0  0  0  0999 V3000
M  V30 BEGIN CTAB
M  V30 COUNTS 18 18 0 0 0
M  V30 BEGIN ATOM
M  V30 1 N 1.58354 0.505253 -0.657009 0
M  V30 2 C 1.86449 -0.146059 0.614146 0
M  V30 3 C 0.710966 0.00421119 1.57952 0
M  V30 4 N -0.465583 -0.60723 0.979843 0
M  V30 5 N -0.83082 -1.87193 1.11605 0
M  V30 6 N -1.95297 -2.1095 0.440283 0
M  V30 7 C -2.34769 -0.961533 -0.166827 0
M  V30 8 C -1.39247 -0.0344329 0.190985 0
M  V30 9 N -1.42407 1.32156 -0.236683 0
M  V30 10 H 1.92089 1.51123 -0.640435 0
M  V30 11 H 2.14464 -0.00202728 -1.37764 0
M  V30 12 H 1.99928 -1.2303 0.408482 0
M  V30 13 H 2.79402 0.310553 1.00347 0
M  V30 14 H 0.992768 -0.553102 2.5002 0
M  V30 15 H 0.521879 1.0407 1.86618 0
M  V30 16 H -3.22796 -0.872614 -0.779494 0
M  V30 17 H -1.2007 1.64148 -1.19512 0
M  V30 18 H -1.6902 2.05374 0.457706 0
M  V30 END ATOM
M  V30 BEGIN BOND
M  V30 1 1 1 2
M  V30 2 1 2 3
M  V30 3 1 3 4
M  V30 4 1 4 5
M  V30 5 2 5 6
M  V30 6 1 6 7
M  V30 7 2 7 8
M  V30 8 1 8 9
M  V30 9 1 8 4
M  V30 10 1 1 10
M  V30 11 1 1 11
M  V30 12 1 2 12
M  V30 13 1 2 13
M  V30 14 1 3 14
M  V30 15 1 3 15
M  V30 16 1 7 16
M  V30 17 1 9 17
M  V30 18 1 9 18
M  V30 END BOND
M  V30 END CTAB
M  END
