
     RDKit          3D

  0  0  0  0  0  0  0  0  0  0999 V3000
M  V30 BEGIN CTAB
M  V30 COUNTS 38 41 0 0 0
M  V30 BEGIN ATOM
M  V30 1 O 2.28984 -0.0374736 1.60184 0
M  V30 2 C 1.28574 -0.373963 0.883972 0
M  V30 3 C 0.0780996 0.403431 0.998252 0
M  V30 4 C -0.0752418 1.5088 1.84539 0
M  V30 5 N 0.926965 2.01936 2.70649 0
M  V30 6 N -1.31499 1.94384 1.66241 0
M  V30 7 C -1.96985 1.19846 0.759167 0
M  V30 8 C -1.11157 0.197121 0.306726 0
M  V30 9 N -1.55522 -0.677071 -0.61059 0
M  V30 10 C -2.80171 -0.604551 -1.09637 0
M  V30 11 C -3.2876 -1.49362 -2.04449 0
M  V30 12 C -4.57186 -1.41365 -2.54065 0
M  V30 13 C -5.43084 -0.422312 -2.09678 0
M  V30 14 C -4.97384 0.458543 -1.16811 0
M  V30 15 C -3.67608 0.371273 -0.672075 0
M  V30 16 N -3.21122 1.23222 0.243572 0
M  V30 17 N -1.86106 3.05458 2.34203 0
M  V30 18 N 1.44277 -1.4758 0.0414315 0
M  V30 19 C 2.66296 -2.25278 -0.0683649 0
M  V30 20 C 3.82868 -1.43788 -0.529382 0
M  V30 21 C 4.88223 -0.928396 0.174319 0
M  V30 22 C 5.7994 -0.218635 -0.510998 0
M  V30 23 C 5.59645 -0.0685492 -1.85735 0
M  V30 24 S 4.14198 -0.917444 -2.11972 0
M  V30 25 H 0.752219 2.15807 3.72398 0
M  V30 26 H 1.87548 2.275 2.3546 0
M  V30 27 H -2.65728 -2.28621 -2.42408 0
M  V30 28 H -4.96059 -2.10049 -3.27895 0
M  V30 29 H -6.44547 -0.318259 -2.45496 0
M  V30 30 H -5.61812 1.24301 -0.801346 0
M  V30 31 H -1.3599 3.96447 2.23597 0
M  V30 32 H -2.71358 2.9239 2.9027 0
M  V30 33 H 0.660154 -1.79192 -0.56175 0
M  V30 34 H 2.934 -2.57739 0.977802 0
M  V30 35 H 2.55519 -3.15387 -0.669079 0
M  V30 36 H 4.94734 -1.116 1.27366 0
M  V30 37 H 6.69327 0.234529 -0.0153422 0
M  V30 38 H 6.24326 0.479634 -2.57309 0
M  V30 END ATOM
M  V30 BEGIN BOND
M  V30 1 2 1 2
M  V30 2 1 2 3
M  V30 3 2 3 4
M  V30 4 1 4 5
M  V30 5 1 4 6
M  V30 6 1 6 7
M  V30 7 2 7 8
M  V30 8 1 8 9
M  V30 9 2 9 10
M  V30 10 1 10 11
M  V30 11 2 11 12
M  V30 12 1 12 13
M  V30 13 2 13 14
M  V30 14 1 14 15
M  V30 15 2 15 16
M  V30 16 1 6 17
M  V30 17 1 2 18
M  V30 18 1 18 19
M  V30 19 1 19 20
M  V30 20 2 20 21
M  V30 21 1 21 22
M  V30 22 2 22 23
M  V30 23 1 23 24
M  V30 24 1 8 3
M  V30 25 1 15 10
M  V30 26 1 24 20
M  V30 27 1 16 7
M  V30 28 1 5 25
M  V30 29 1 5 26
M  V30 30 1 11 27
M  V30 31 1 12 28
M  V30 32 1 13 29
M  V30 33 1 14 30
M  V30 34 1 17 31
M  V30 35 1 17 32
M  V30 36 1 18 33
M  V30 37 1 19 34
M  V30 38 1 19 35
M  V30 39 1 21 36
M  V30 40 1 22 37
M  V30 41 1 23 38
M  V30 END BOND
M  V30 END CTAB
M  END
