
     RDKit          3D

  0  0  0  0  0  0  0  0  0  0999 V3000
M  V30 BEGIN CTAB
M  V30 COUNTS 26 26 0 0 0
M  V30 BEGIN ATOM
M  V30 1 C 4.0691 0.899799 0.941163 0
M  V30 2 O 3.02032 1.11377 -0.0320834 0
M  V30 3 C 2.35119 0.0105178 -0.497786 0
M  V30 4 O 2.71228 -1.13307 -0.0266753 0
M  V30 5 C 1.26993 0.105385 -1.4819 0
M  V30 6 C -0.0325271 -0.296344 -0.893992 0
M  V30 7 C -0.561562 -1.57449 -1.10244 0
M  V30 8 C -1.76729 -1.93176 -0.565284 0
M  V30 9 C -2.53028 -1.05616 0.210002 0
M  V30 10 C -2.01809 0.201303 0.419916 0
M  V30 11 C -0.789101 0.559558 -0.129075 0
M  V30 12 N -0.338539 1.89012 0.13117 0
M  V30 13 C -2.75937 1.13661 1.20675 0
M  V30 14 N -3.36129 1.89972 1.88021 0
M  V30 15 N -3.78908 -1.47199 0.732563 0
M  V30 16 H 4.95239 0.452198 0.461186 0
M  V30 17 H 3.6963 0.216163 1.74053 0
M  V30 18 H 4.28101 1.90597 1.37575 0
M  V30 19 H 1.1734 1.18004 -1.79503 0
M  V30 20 H 1.45319 -0.486515 -2.39695 0
M  V30 21 H 0.00115732 -2.27752 -1.6982 0
M  V30 22 H -2.20569 -2.93487 -0.710339 0
M  V30 23 H 0.0254419 2.4636 -0.686765 0
M  V30 24 H -0.350515 2.29825 1.08368 0
M  V30 25 H -3.99628 -2.45769 0.992632 0
M  V30 26 H -4.50611 -0.712596 0.840948 0
M  V30 END ATOM
M  V30 BEGIN BOND
M  V30 1 1 1 2
M  V30 2 1 2 3
M  V30 3 2 3 4
M  V30 4 1 3 5
M  V30 5 1 5 6
M  V30 6 2 6 7
M  V30 7 1 7 8
M  V30 8 2 8 9
M  V30 9 1 9 10
M  V30 10 2 10 11
M  V30 11 1 11 12
M  V30 12 1 10 13
M  V30 13 3 13 14
M  V30 14 1 9 15
M  V30 15 1 11 6
M  V30 16 1 1 16
M  V30 17 1 1 17
M  V30 18 1 1 18
M  V30 19 1 5 19
M  V30 20 1 5 20
M  V30 21 1 7 21
M  V30 22 1 8 22
M  V30 23 1 12 23
M  V30 24 1 12 24
M  V30 25 1 15 25
M  V30 26 1 15 26
M  V30 END BOND
M  V30 END CTAB
M  END
