
     RDKit          3D

  0  0  0  0  0  0  0  0  0  0999 V3000
M  V30 BEGIN CTAB
M  V30 COUNTS 41 42 0 0 0
M  V30 BEGIN ATOM
M  V30 1 C -4.95781 1.65986 0.0709269 0
M  V30 2 C -3.7726 2.36162 0.700695 0
M  V30 3 C -3.04484 1.45127 1.63828 0
M  V30 4 O -2.53796 0.296637 1.04453 0
M  V30 5 C -1.61614 0.260411 0.010777 0
M  V30 6 O -1.20061 1.36225 -0.42983 0
M  V30 7 C -1.13488 -1.01418 -0.55741 0
M  V30 8 C -1.64504 -2.17203 -0.0121752 0
M  V30 9 C -1.20055 -3.37889 -0.537679 0
M  V30 10 N -1.6871 -4.59031 -0.0200701 0
M  V30 11 C -0.279983 -3.41253 -1.56987 0
M  V30 12 C 0.203932 -2.23758 -2.08531 0
M  V30 13 C -0.223246 -1.0415 -1.57945 0
M  V30 14 S 0.377552 0.511327 -2.22048 0
M  V30 15 C 1.84368 1.06293 -1.35083 0
M  V30 16 N 2.52036 2.19645 -1.61044 0
M  V30 17 N 3.54064 2.29549 -0.790952 0
M  V30 18 C 3.5718 1.23492 0.0339944 0
M  V30 19 N 2.50437 0.482789 -0.335612 0
M  V30 20 N 2.16687 -0.716672 0.270864 0
M  V30 21 C 4.55715 0.951557 1.11045 0
M  V30 22 C 5.56087 2.08341 1.13859 0
M  V30 23 H -4.73475 1.45018 -0.997138 0
M  V30 24 H -5.12026 0.681293 0.581613 0
M  V30 25 H -5.89733 2.24299 0.160309 0
M  V30 26 H -3.11574 2.85318 -0.0261637 0
M  V30 27 H -4.21519 3.19888 1.31698 0
M  V30 28 H -3.7865 1.12041 2.41283 0
M  V30 29 H -2.27988 2.05147 2.1693 0
M  V30 30 H -2.37757 -2.15601 0.808951 0
M  V30 31 H -1.27405 -4.93731 0.876919 0
M  V30 32 H -2.4211 -5.1536 -0.467593 0
M  V30 33 H 0.0561243 -4.35785 -1.968 0
M  V30 34 H 0.930872 -2.26352 -2.90039 0
M  V30 35 H 1.51965 -0.667719 1.09207 0
M  V30 36 H 2.52722 -1.63139 -0.0555776 0
M  V30 37 H 5.13009 0.0302482 0.811922 0
M  V30 38 H 4.05135 0.805632 2.0861 0
M  V30 39 H 5.61984 2.49662 0.111333 0
M  V30 40 H 6.57398 1.69114 1.36872 0
M  V30 41 H 5.26677 2.89815 1.83525 0
M  V30 END ATOM
M  V30 BEGIN BOND
M  V30 1 1 1 2
M  V30 2 1 2 3
M  V30 3 1 3 4
M  V30 4 1 4 5
M  V30 5 2 5 6
M  V30 6 1 5 7
M  V30 7 2 7 8
M  V30 8 1 8 9
M  V30 9 1 9 10
M  V30 10 2 9 11
M  V30 11 1 11 12
M  V30 12 2 12 13
M  V30 13 1 13 14
M  V30 14 1 14 15
M  V30 15 2 15 16
M  V30 16 1 16 17
M  V30 17 2 17 18
M  V30 18 1 18 19
M  V30 19 1 19 20
M  V30 20 1 18 21
M  V30 21 1 21 22
M  V30 22 1 13 7
M  V30 23 1 19 15
M  V30 24 1 1 23
M  V30 25 1 1 24
M  V30 26 1 1 25
M  V30 27 1 2 26
M  V30 28 1 2 27
M  V30 29 1 3 28
M  V30 30 1 3 29
M  V30 31 1 8 30
M  V30 32 1 10 31
M  V30 33 1 10 32
M  V30 34 1 11 33
M  V30 35 1 12 34
M  V30 36 1 20 35
M  V30 37 1 20 36
M  V30 38 1 21 37
M  V30 39 1 21 38
M  V30 40 1 22 39
M  V30 41 1 22 40
M  V30 42 1 22 41
M  V30 END BOND
M  V30 END CTAB
M  END
