
     RDKit          3D

  0  0  0  0  0  0  0  0  0  0999 V3000
M  V30 BEGIN CTAB
M  V30 COUNTS 31 33 0 0 0
M  V30 BEGIN ATOM
M  V30 1 N -5.82698 1.60395 0.469311 0
M  V30 2 C -4.61465 0.926287 0.221995 0
M  V30 3 N -3.4591 1.59868 0.251421 0
M  V30 4 C -2.27017 0.994951 0.0211156 0
M  V30 5 C -1.09156 1.70634 0.0554868 0
M  V30 6 C 0.0871961 1.06501 -0.181707 0
M  V30 7 C 0.111792 -0.284142 -0.453114 0
M  V30 8 S 1.54669 -1.25207 -0.719195 0
M  V30 9 C 3.09275 -0.64155 -0.209571 0
M  V30 10 C 3.37602 0.361959 0.665655 0
M  V30 11 C 4.64279 0.793948 0.958503 0
M  V30 12 Cl 4.84794 2.10442 2.11067 0
M  V30 13 C 5.72787 0.215745 0.364915 0
M  V30 14 C 5.49301 -0.803574 -0.525681 0
M  V30 15 C 4.22512 -1.23063 -0.815013 0
M  V30 16 C -1.09667 -0.999954 -0.486735 0
M  V30 17 C -2.28295 -0.364104 -0.251042 0
M  V30 18 C -3.48343 -1.0797 -0.28506 0
M  V30 19 N -3.48342 -2.47279 -0.565258 0
M  V30 20 N -4.60662 -0.388276 -0.0431484 0
M  V30 21 H -5.83903 2.37152 1.2015 0
M  V30 22 H -6.70131 1.39141 -0.0249479 0
M  V30 23 H -1.1049 2.75493 0.26721 0
M  V30 24 H 1.03974 1.60123 -0.197416 0
M  V30 25 H 2.53309 0.821549 1.18581 0
M  V30 26 H 6.73505 0.563032 0.601063 0
M  V30 27 H 6.37239 -1.25238 -0.988226 0
M  V30 28 H 4.10426 -2.03396 -1.52125 0
M  V30 29 H -1.1305 -2.06798 -0.698136 0
M  V30 30 H -3.09891 -2.82312 -1.48345 0
M  V30 31 H -3.84551 -3.18074 0.0906857 0
M  V30 END ATOM
M  V30 BEGIN BOND
M  V30 1 1 1 2
M  V30 2 2 2 3
M  V30 3 1 3 4
M  V30 4 2 4 5
M  V30 5 1 5 6
M  V30 6 2 6 7
M  V30 7 1 7 8
M  V30 8 1 8 9
M  V30 9 2 9 10
M  V30 10 1 10 11
M  V30 11 1 11 12
M  V30 12 2 11 13
M  V30 13 1 13 14
M  V30 14 2 14 15
M  V30 15 1 7 16
M  V30 16 2 16 17
M  V30 17 1 17 18
M  V30 18 1 18 19
M  V30 19 2 18 20
M  V30 20 1 20 2
M  V30 21 1 17 4
M  V30 22 1 15 9
M  V30 23 1 1 21
M  V30 24 1 1 22
M  V30 25 1 5 23
M  V30 26 1 6 24
M  V30 27 1 10 25
M  V30 28 1 13 26
M  V30 29 1 14 27
M  V30 30 1 15 28
M  V30 31 1 16 29
M  V30 32 1 19 30
M  V30 33 1 19 31
M  V30 END BOND
M  V30 END CTAB
M  END
