
     RDKit          3D

  0  0  0  0  0  0  0  0  0  0999 V3000
M  V30 BEGIN CTAB
M  V30 COUNTS 50 53 0 0 0
M  V30 BEGIN ATOM
M  V30 1 N 7.27572 1.17536 -1.45965 0
M  V30 2 C 7.50071 -0.151681 -0.97283 0
M  V30 3 C 6.32986 -0.566781 -0.127144 0
M  V30 4 N 6.33471 -1.76163 0.484791 0
M  V30 5 C 5.32042 -2.189 1.25227 0
M  V30 6 C 4.21201 -1.35448 1.42143 0
M  V30 7 C 4.17311 -0.129028 0.812175 0
M  V30 8 C 5.25222 0.260061 0.0293241 0
M  V30 9 C 3.06777 0.801564 0.92906 0
M  V30 10 O 3.0204 1.84136 0.205204 0
M  V30 11 N 2.02215 0.57543 1.84577 0
M  V30 12 C 0.912982 1.51128 1.95513 0
M  V30 13 C -0.0170276 1.31738 0.809852 0
M  V30 14 C -1.056 2.20456 0.601778 0
M  V30 15 C -1.94219 2.04186 -0.464623 0
M  V30 16 C -1.77584 0.982384 -1.3186 0
M  V30 17 C -0.752709 0.0785294 -1.14295 0
M  V30 18 C 0.106525 0.262489 -0.0835132 0
M  V30 19 C -2.69261 0.781206 -2.45704 0
M  V30 20 O -3.55391 -0.271488 -2.20677 0
M  V30 21 C -4.47711 -0.456045 -1.23811 0
M  V30 22 N -4.70386 0.461006 -0.29224 0
M  V30 23 C -5.60805 0.328937 0.690384 0
M  V30 24 N -5.78788 1.35938 1.66253 0
M  V30 25 N -6.33507 -0.795108 0.731688 0
M  V30 26 C -6.16506 -1.7767 -0.193562 0
M  V30 27 C -5.22793 -1.6088 -1.18942 0
M  V30 28 N -5.25494 -2.6977 -1.95782 0
M  V30 29 C -6.17979 -3.57389 -1.49793 0
M  V30 30 N -6.72045 -2.98278 -0.417567 0
M  V30 31 H 7.14958 1.86464 -0.685237 0
M  V30 32 H 6.45484 1.17391 -2.08232 0
M  V30 33 H 7.51916 -0.847364 -1.83568 0
M  V30 34 H 8.4564 -0.276503 -0.440859 0
M  V30 35 H 5.30521 -3.15001 1.75456 0
M  V30 36 H 3.37774 -1.68708 2.0414 0
M  V30 37 H 5.23235 1.21888 -0.453238 0
M  V30 38 H 2.04895 -0.268962 2.44975 0
M  V30 39 H 0.405699 1.34081 2.91252 0
M  V30 40 H 1.32742 2.5243 1.91927 0
M  V30 41 H -1.18713 3.04131 1.27654 0
M  V30 42 H -2.73277 2.77366 -0.567576 0
M  V30 43 H -0.605484 -0.772091 -1.81463 0
M  V30 44 H 0.899307 -0.458842 0.0363786 0
M  V30 45 H -3.22438 1.75509 -2.63845 0
M  V30 46 H -2.06539 0.560766 -3.37037 0
M  V30 47 H -4.99839 1.9408 1.98338 0
M  V30 48 H -6.72918 1.54581 2.07017 0
M  V30 49 H -6.43517 -4.54918 -1.91006 0
M  V30 50 H -7.47691 -3.39764 0.180976 0
M  V30 END ATOM
M  V30 BEGIN BOND
M  V30 1 1 1 2
M  V30 2 1 2 3
M  V30 3 2 3 4
M  V30 4 1 4 5
M  V30 5 2 5 6
M  V30 6 1 6 7
M  V30 7 2 7 8
M  V30 8 1 7 9
M  V30 9 2 9 10
M  V30 10 1 9 11
M  V30 11 1 11 12
M  V30 12 1 12 13
M  V30 13 2 13 14
M  V30 14 1 14 15
M  V30 15 2 15 16
M  V30 16 1 16 17
M  V30 17 2 17 18
M  V30 18 1 16 19
M  V30 19 1 19 20
M  V30 20 1 20 21
M  V30 21 2 21 22
M  V30 22 1 22 23
M  V30 23 1 23 24
M  V30 24 2 23 25
M  V30 25 1 25 26
M  V30 26 2 26 27
M  V30 27 1 27 28
M  V30 28 2 28 29
M  V30 29 1 29 30
M  V30 30 1 8 3
M  V30 31 1 18 13
M  V30 32 1 27 21
M  V30 33 1 30 26
M  V30 34 1 1 31
M  V30 35 1 1 32
M  V30 36 1 2 33
M  V30 37 1 2 34
M  V30 38 1 5 35
M  V30 39 1 6 36
M  V30 40 1 8 37
M  V30 41 1 11 38
M  V30 42 1 12 39
M  V30 43 1 12 40
M  V30 44 1 14 41
M  V30 45 1 15 42
M  V30 46 1 17 43
M  V30 47 1 18 44
M  V30 48 1 19 45
M  V30 49 1 19 46
M  V30 50 1 24 47
M  V30 51 1 24 48
M  V30 52 1 29 49
M  V30 53 1 30 50
M  V30 END BOND
M  V30 END CTAB
M  END
