
     RDKit          3D

  0  0  0  0  0  0  0  0  0  0999 V3000
M  V30 BEGIN CTAB
M  V30 COUNTS 27 28 0 0 0
M  V30 BEGIN ATOM
M  V30 1 N 0.972706 -1.68206 -0.117683 0
M  V30 2 C 1.32221 -0.306086 -0.0828453 0
M  V30 3 C 2.68516 -0.0114326 -0.195271 0
M  V30 4 N 3.63594 -1.04613 -0.334416 0
M  V30 5 C 3.01824 1.32741 -0.16071 0
M  V30 6 C 2.10051 2.34554 -0.0254311 0
M  V30 7 N 0.792436 1.97121 0.0779852 0
M  V30 8 C 0.397375 0.707488 0.0528696 0
M  V30 9 N -0.973654 0.344655 0.162665 0
M  V30 10 C -1.62248 -0.475588 1.15762 0
M  V30 11 C -3.0897 -0.415176 0.785316 0
M  V30 12 C -2.98882 -0.303228 -0.726587 0
M  V30 13 C -1.95774 0.817928 -0.825435 0
M  V30 14 H 1.09966 -2.27412 0.728578 0
M  V30 15 H 0.589033 -2.09857 -0.991077 0
M  V30 16 H 3.99942 -1.28464 -1.26647 0
M  V30 17 H 3.96733 -1.56382 0.496076 0
M  V30 18 H 4.06105 1.59044 -0.244876 0
M  V30 19 H 2.37642 3.39482 0.000270671 0
M  V30 20 H -1.32915 -1.53824 1.11259 0
M  V30 21 H -1.54345 -0.0516338 2.17954 0
M  V30 22 H -3.60389 -1.34533 1.09362 0
M  V30 23 H -3.58342 0.500637 1.16449 0
M  V30 24 H -3.92947 -0.061221 -1.2096 0
M  V30 25 H -2.48924 -1.21556 -1.11543 0
M  V30 26 H -2.37453 1.75111 -0.392012 0
M  V30 27 H -1.53194 0.921596 -1.81759 0
M  V30 END ATOM
M  V30 BEGIN BOND
M  V30 1 1 1 2
M  V30 2 2 2 3
M  V30 3 1 3 4
M  V30 4 1 3 5
M  V30 5 2 5 6
M  V30 6 1 6 7
M  V30 7 2 7 8
M  V30 8 1 8 9
M  V30 9 1 9 10
M  V30 10 1 10 11
M  V30 11 1 11 12
M  V30 12 1 12 13
M  V30 13 1 8 2
M  V30 14 1 13 9
M  V30 15 1 1 14
M  V30 16 1 1 15
M  V30 17 1 4 16
M  V30 18 1 4 17
M  V30 19 1 5 18
M  V30 20 1 6 19
M  V30 21 1 10 20
M  V30 22 1 10 21
M  V30 23 1 11 22
M  V30 24 1 11 23
M  V30 25 1 12 24
M  V30 26 1 12 25
M  V30 27 1 13 26
M  V30 28 1 13 27
M  V30 END BOND
M  V30 END CTAB
M  END
