
     RDKit          3D

  0  0  0  0  0  0  0  0  0  0999 V3000
M  V30 BEGIN CTAB
M  V30 COUNTS 44 43 0 0 0
M  V30 BEGIN ATOM
M  V30 1 C 5.6903 -1.33603 0.913706 0
M  V30 2 C 5.76164 -0.24102 -0.135487 0
M  V30 3 C 4.39563 -0.0777748 -0.747904 0
M  V30 4 C 3.42308 0.310066 0.343239 0
M  V30 5 C 2.01896 0.470637 -0.247022 0
M  V30 6 C 1.09987 0.877876 0.876681 0
M  V30 7 C -0.346053 1.0716 0.357781 0
M  V30 8 C -0.855814 -0.185682 -0.204493 0
M  V30 9 N -2.19159 -0.0605855 -0.75907 0
M  V30 10 C -2.60526 -1.29025 -1.31709 0
M  V30 11 C -3.84818 -1.3359 -2.13732 0
M  V30 12 N -4.99992 -0.975583 -1.39778 0
M  V30 13 C -3.06212 0.675286 0.0572219 0
M  V30 14 C -3.44449 0.0817615 1.37368 0
M  V30 15 N -4.3481 1.02809 2.05546 0
M  V30 16 H 5.18974 -0.978632 1.81421 0
M  V30 17 H 6.72786 -1.61375 1.21135 0
M  V30 18 H 5.13706 -2.22485 0.520439 0
M  V30 19 H 6.53254 -0.48189 -0.911408 0
M  V30 20 H 6.00198 0.714629 0.376054 0
M  V30 21 H 4.04791 -1.04217 -1.1722 0
M  V30 22 H 4.43034 0.687722 -1.55436 0
M  V30 23 H 3.35734 -0.444802 1.13636 0
M  V30 24 H 3.70115 1.27352 0.780284 0
M  V30 25 H 2.00506 1.30384 -1.00171 0
M  V30 26 H 1.71262 -0.496323 -0.718791 0
M  V30 27 H 1.45806 1.86359 1.24511 0
M  V30 28 H 1.10606 0.195815 1.73239 0
M  V30 29 H -0.375979 1.89473 -0.37266 0
M  V30 30 H -0.920013 1.41252 1.2591 0
M  V30 31 H -0.227447 -0.528997 -1.05539 0
M  V30 32 H -0.80873 -0.99384 0.557132 0
M  V30 33 H -2.63347 -2.08978 -0.502908 0
M  V30 34 H -1.76155 -1.66757 -1.97967 0
M  V30 35 H -4.02943 -2.38327 -2.53476 0
M  V30 36 H -3.718 -0.741336 -3.08062 0
M  V30 37 H -5.61779 -1.78166 -1.13881 0
M  V30 38 H -5.54604 -0.17818 -1.79655 0
M  V30 39 H -2.53707 1.65514 0.299491 0
M  V30 40 H -3.96898 1.0628 -0.493976 0
M  V30 41 H -3.89283 -0.919928 1.34352 0
M  V30 42 H -2.57065 -0.0245262 2.08097 0
M  V30 43 H -5.35074 0.790535 1.86021 0
M  V30 44 H -4.13693 1.09096 3.0656 0
M  V30 END ATOM
M  V30 BEGIN BOND
M  V30 1 1 1 2
M  V30 2 1 2 3
M  V30 3 1 3 4
M  V30 4 1 4 5
M  V30 5 1 5 6
M  V30 6 1 6 7
M  V30 7 1 7 8
M  V30 8 1 8 9
M  V30 9 1 9 10
M  V30 10 1 10 11
M  V30 11 1 11 12
M  V30 12 1 9 13
M  V30 13 1 13 14
M  V30 14 1 14 15
M  V30 15 1 1 16
M  V30 16 1 1 17
M  V30 17 1 1 18
M  V30 18 1 2 19
M  V30 19 1 2 20
M  V30 20 1 3 21
M  V30 21 1 3 22
M  V30 22 1 4 23
M  V30 23 1 4 24
M  V30 24 1 5 25
M  V30 25 1 5 26
M  V30 26 1 6 27
M  V30 27 1 6 28
M  V30 28 1 7 29
M  V30 29 1 7 30
M  V30 30 1 8 31
M  V30 31 1 8 32
M  V30 32 1 10 33
M  V30 33 1 10 34
M  V30 34 1 11 35
M  V30 35 1 11 36
M  V30 36 1 12 37
M  V30 37 1 12 38
M  V30 38 1 13 39
M  V30 39 1 13 40
M  V30 40 1 14 41
M  V30 41 1 14 42
M  V30 42 1 15 43
M  V30 43 1 15 44
M  V30 END BOND
M  V30 END CTAB
M  END
