
     RDKit          3D

  0  0  0  0  0  0  0  0  0  0999 V3000
M  V30 BEGIN CTAB
M  V30 COUNTS 24 25 0 0 0
M  V30 BEGIN ATOM
M  V30 1 C 4.83102 0.164657 1.01968 0
M  V30 2 N 3.57663 -0.322497 0.45288 0
M  V30 3 N 3.45704 -1.31845 -0.415678 0
M  V30 4 N 2.15997 -1.47949 -0.707752 0
M  V30 5 C 1.45405 -0.572758 -0.0136975 0
M  V30 6 N 2.35951 0.122406 0.690097 0
M  V30 7 C -0.0093904 -0.396066 -0.0358083 0
M  V30 8 C -0.81148 -1.19941 -0.82022 0
M  V30 9 C -2.18952 -1.07641 -0.878209 0
M  V30 10 C -2.74092 -0.0801909 -0.0889157 0
M  V30 11 C -1.97811 0.739775 0.705099 0
M  V30 12 C -0.616489 0.580317 0.729856 0
M  V30 13 N -2.63801 1.73066 1.477 0
M  V30 14 N -4.15039 0.0915439 -0.108826 0
M  V30 15 H 4.69321 0.299276 2.0973 0
M  V30 16 H 5.07498 1.14623 0.537154 0
M  V30 17 H 5.64434 -0.519293 0.744711 0
M  V30 18 H -0.299573 -1.96479 -1.41615 0
M  V30 19 H -2.7823 -1.72739 -1.50705 0
M  V30 20 H 0.0094705 1.21437 1.34812 0
M  V30 21 H -3.62848 1.67222 1.75621 0
M  V30 22 H -2.10567 2.57293 1.78826 0
M  V30 23 H -4.76965 -0.484344 0.500601 0
M  V30 24 H -4.54026 0.806698 -0.747986 0
M  V30 END ATOM
M  V30 BEGIN BOND
M  V30 1 1 1 2
M  V30 2 1 2 3
M  V30 3 2 3 4
M  V30 4 1 4 5
M  V30 5 2 5 6
M  V30 6 1 5 7
M  V30 7 2 7 8
M  V30 8 1 8 9
M  V30 9 2 9 10
M  V30 10 1 10 11
M  V30 11 2 11 12
M  V30 12 1 11 13
M  V30 13 1 10 14
M  V30 14 1 6 2
M  V30 15 1 12 7
M  V30 16 1 1 15
M  V30 17 1 1 16
M  V30 18 1 1 17
M  V30 19 1 8 18
M  V30 20 1 9 19
M  V30 21 1 12 20
M  V30 22 1 13 21
M  V30 23 1 13 22
M  V30 24 1 14 23
M  V30 25 1 14 24
M  V30 END BOND
M  V30 END CTAB
M  END
