
     RDKit          3D

  0  0  0  0  0  0  0  0  0  0999 V3000
M  V30 BEGIN CTAB
M  V30 COUNTS 24 24 0 0 0
M  V30 BEGIN ATOM
M  V30 1 N 3.01302 1.59323 0.563005 0
M  V30 2 N 1.80146 1.08362 0.125408 0
M  V30 3 C 1.63621 -0.166944 -0.122328 0
M  V30 4 N 0.390566 -0.635629 -0.561938 0
M  V30 5 C -0.803459 -0.0507957 -0.0859889 0
M  V30 6 C -1.20285 -0.316377 1.20432 0
M  V30 7 C -2.39763 0.228538 1.67038 0
M  V30 8 C -3.16579 1.02067 0.853138 0
M  V30 9 C -2.73049 1.26441 -0.433851 0
M  V30 10 C -1.54712 0.736707 -0.925113 0
M  V30 11 C 0.291589 -1.75888 -1.51798 0
M  V30 12 N 2.7287 -1.07564 0.0458915 0
M  V30 13 H 3.70238 1.93025 -0.121695 0
M  V30 14 H 3.21609 1.63565 1.57316 0
M  V30 15 H -0.628886 -0.935229 1.89436 0
M  V30 16 H -2.68718 -0.00215816 2.68916 0
M  V30 17 H -4.08898 1.41874 1.26336 0
M  V30 18 H -3.35842 1.89001 -1.05548 0
M  V30 19 H -1.24296 0.951828 -1.94457 0
M  V30 20 H -0.739406 -1.76598 -1.92964 0
M  V30 21 H 0.539942 -2.68086 -0.983704 0
M  V30 22 H 0.996137 -1.56038 -2.36795 0
M  V30 23 H 3.41403 -1.1525 -0.726892 0
M  V30 24 H 2.86306 -1.65227 0.89495 0
M  V30 END ATOM
M  V30 BEGIN BOND
M  V30 1 1 1 2
M  V30 2 2 2 3
M  V30 3 1 3 4
M  V30 4 1 4 5
M  V30 5 2 5 6
M  V30 6 1 6 7
M  V30 7 2 7 8
M  V30 8 1 8 9
M  V30 9 2 9 10
M  V30 10 1 4 11
M  V30 11 1 3 12
M  V30 12 1 10 5
M  V30 13 1 1 13
M  V30 14 1 1 14
M  V30 15 1 6 15
M  V30 16 1 7 16
M  V30 17 1 8 17
M  V30 18 1 9 18
M  V30 19 1 10 19
M  V30 20 1 11 20
M  V30 21 1 11 21
M  V30 22 1 11 22
M  V30 23 1 12 23
M  V30 24 1 12 24
M  V30 END BOND
M  V30 END CTAB
M  END
