
     RDKit          3D

  0  0  0  0  0  0  0  0  0  0999 V3000
M  V30 BEGIN CTAB
M  V30 COUNTS 71 76 0 0 0
M  V30 BEGIN ATOM
M  V30 1 N 8.41981 2.14886 1.09506 0
M  V30 2 C 8.16913 0.750843 1.01524 0
M  V30 3 N 7.1198 0.324887 0.290667 0
M  V30 4 C 6.86645 -0.991192 0.203003 0
M  V30 5 C 7.70221 -1.88241 0.868611 0
M  V30 6 N 7.20225 -3.10598 0.596709 0
M  V30 7 C 6.11722 -2.96845 -0.194122 0
M  V30 8 N 5.90379 -1.67296 -0.440857 0
M  V30 9 C 4.86397 -1.07281 -1.23228 0 CFG=1
M  V30 10 C 3.81817 -2.07982 -1.66217 0
M  V30 11 C 2.67235 -1.14232 -2.06585 0 CFG=2
M  V30 12 O 2.73871 -1.02491 -3.45671 0
M  V30 13 C 3.09203 0.146281 -1.41682 0 CFG=1
M  V30 14 C 1.94466 0.855253 -0.737763 0
M  V30 15 O 0.96355 1.16503 -1.65404 0
M  V30 16 P -0.334209 1.96568 -0.893563 0
M  V30 17 O -1.61845 2.17221 -1.95595 0
M  V30 18 O 0.181807 3.30168 -0.359903 0
M  V30 19 O -0.841542 1.0519 0.414434 0
M  V30 20 C -2.16813 0.615416 0.292559 0 CFG=1
M  V30 21 C -2.24169 -0.902571 0.375571 0
M  V30 22 C -3.08179 -1.1869 1.58472 0 CFG=1
M  V30 23 O -3.71619 -0.00772469 1.93014 0
M  V30 24 C -2.90555 1.04184 1.52793 0 CFG=2
M  V30 25 C -3.72734 2.29068 1.33054 0
M  V30 26 O -2.96186 3.36584 0.929368 0
M  V30 27 P -3.88909 4.74614 0.714054 0
M  V30 28 O -5.22444 4.77036 1.77414 0
M  V30 29 O -4.51825 4.74162 -0.860874 0
M  V30 30 O -3.10156 5.99958 0.981349 0
M  V30 31 N -4.12324 -2.16277 1.2863 0
M  V30 32 C -4.16476 -3.4273 1.70124 0
M  V30 33 N -5.28286 -4.0052 1.21724 0
M  V30 34 C -5.93891 -3.09291 0.497443 0
M  V30 35 C -5.217 -1.90275 0.525407 0
M  V30 36 N -5.63128 -0.806751 -0.110174 0
M  V30 37 C -6.7895 -0.87346 -0.796784 0
M  V30 38 N -7.27998 0.270046 -1.49554 0
M  V30 39 N -7.50962 -2.00811 -0.842987 0
M  V30 40 C -7.11854 -3.12749 -0.21348 0
M  V30 41 O -7.83389 -4.15166 -0.295227 0
M  V30 42 O 4.09129 -0.172007 -0.496807 0
M  V30 43 C 8.77112 -1.43173 1.60549 0
M  V30 44 O 9.53084 -2.22357 2.20925 0
M  V30 45 N 8.99391 -0.113759 1.67103 0
M  V30 46 H 8.91761 2.65648 0.350041 0
M  V30 47 H 8.08273 2.65262 1.93705 0
M  V30 48 H 5.49711 -3.78015 -0.582116 0
M  V30 49 H 5.21778 -0.541583 -2.12223 0
M  V30 50 H 4.17324 -2.66988 -2.54611 0
M  V30 51 H 3.52387 -2.75002 -0.840823 0
M  V30 52 H 1.69874 -1.51771 -1.72719 0
M  V30 53 H 2.4231 -0.118364 -3.72854 0
M  V30 54 H 3.5612 0.821162 -2.16139 0
M  V30 55 H 2.35752 1.82401 -0.353902 0
M  V30 56 H 1.58196 0.304362 0.149962 0
M  V30 57 H -1.59799 1.41094 -2.6072 0
M  V30 58 H -2.62488 0.971257 -0.651264 0
M  V30 59 H -2.76557 -1.31841 -0.529524 0
M  V30 60 H -1.2343 -1.32933 0.494495 0
M  V30 61 H -2.47564 -1.53284 2.45358 0
M  V30 62 H -2.18577 1.23743 2.34958 0
M  V30 63 H -4.14673 2.55139 2.33481 0
M  V30 64 H -4.53198 2.05052 0.606634 0
M  V30 65 H -5.89395 5.37423 1.34249 0
M  V30 66 H -4.59465 3.79664 -1.14452 0
M  V30 67 H -3.41246 -3.90471 2.32858 0
M  V30 68 H -6.94191 0.409106 -2.46847 0
M  V30 69 H -7.95459 0.923928 -1.01514 0
M  V30 70 H -8.41408 -2.00813 -1.39729 0
M  V30 71 H 9.79627 0.30043 2.21872 0
M  V30 END ATOM
M  V30 BEGIN BOND
M  V30 1 1 1 2
M  V30 2 2 2 3
M  V30 3 1 3 4
M  V30 4 2 4 5
M  V30 5 1 5 6
M  V30 6 2 6 7
M  V30 7 1 7 8
M  V30 8 1 8 9
M  V30 9 1 9 10
M  V30 10 1 10 11
M  V30 11 1 11 12
M  V30 12 1 11 13
M  V30 13 1 13 14
M  V30 14 1 14 15
M  V30 15 1 15 16
M  V30 16 1 16 17
M  V30 17 2 16 18
M  V30 18 1 16 19
M  V30 19 1 19 20
M  V30 20 1 20 21
M  V30 21 1 21 22
M  V30 22 1 22 23
M  V30 23 1 23 24
M  V30 24 1 24 25
M  V30 25 1 25 26
M  V30 26 1 26 27
M  V30 27 1 27 28
M  V30 28 1 27 29
M  V30 29 2 27 30
M  V30 30 1 22 31
M  V30 31 1 31 32
M  V30 32 2 32 33
M  V30 33 1 33 34
M  V30 34 2 34 35
M  V30 35 1 35 36
M  V30 36 2 36 37
M  V30 37 1 37 38
M  V30 38 1 37 39
M  V30 39 1 39 40
M  V30 40 2 40 41
M  V30 41 1 13 42
M  V30 42 1 5 43
M  V30 43 2 43 44
M  V30 44 1 43 45
M  V30 45 1 45 2
M  V30 46 1 8 4
M  V30 47 1 42 9
M  V30 48 1 24 20
M  V30 49 1 35 31
M  V30 50 1 40 34
M  V30 51 1 1 46
M  V30 52 1 1 47
M  V30 53 1 7 48
M  V30 54 1 9 49 CFG=3
M  V30 55 1 10 50
M  V30 56 1 10 51
M  V30 57 1 11 52 CFG=3
M  V30 58 1 12 53
M  V30 59 1 13 54 CFG=3
M  V30 60 1 14 55
M  V30 61 1 14 56
M  V30 62 1 17 57
M  V30 63 1 20 58 CFG=3
M  V30 64 1 21 59
M  V30 65 1 21 60
M  V30 66 1 22 61 CFG=1
M  V30 67 1 24 62 CFG=1
M  V30 68 1 25 63
M  V30 69 1 25 64
M  V30 70 1 28 65
M  V30 71 1 29 66
M  V30 72 1 32 67
M  V30 73 1 38 68
M  V30 74 1 38 69
M  V30 75 1 39 70
M  V30 76 1 45 71
M  V30 END BOND
M  V30 END CTAB
M  END
