
     RDKit          3D

  0  0  0  0  0  0  0  0  0  0999 V3000
M  V30 BEGIN CTAB
M  V30 COUNTS 19 19 0 0 0
M  V30 BEGIN ATOM
M  V30 1 N 3.45855 1.06216 1.59328 0
M  V30 2 C 3.42495 0.335699 0.67111 0
M  V30 3 C 3.35203 -0.559922 -0.446636 0
M  V30 4 S 2.15168 0.0801242 -1.65403 0
M  V30 5 C 0.506657 0.125108 -0.910181 0
M  V30 6 N -0.00931431 1.23727 -0.362189 0
M  V30 7 C -1.21939 1.28895 0.238464 0
M  V30 8 N -1.75154 2.48724 0.798148 0
M  V30 9 C -1.93897 0.105344 0.274752 0
M  V30 10 C -1.44037 -1.05045 -0.275507 0
M  V30 11 N -0.223902 -1.00808 -0.857011 0
M  V30 12 N -2.12917 -2.28885 -0.234394 0
M  V30 13 H 3.08735 -1.59737 -0.144941 0
M  V30 14 H 4.31983 -0.646215 -0.985591 0
M  V30 15 H -1.27352 2.97528 1.57832 0
M  V30 16 H -2.63664 2.87074 0.406857 0
M  V30 17 H -2.91581 0.118444 0.740105 0
M  V30 18 H -1.60774 -3.20106 -0.10203 0
M  V30 19 H -3.15467 -2.3344 -0.328529 0
M  V30 END ATOM
M  V30 BEGIN BOND
M  V30 1 3 1 2
M  V30 2 1 2 3
M  V30 3 1 3 4
M  V30 4 1 4 5
M  V30 5 2 5 6
M  V30 6 1 6 7
M  V30 7 1 7 8
M  V30 8 2 7 9
M  V30 9 1 9 10
M  V30 10 2 10 11
M  V30 11 1 10 12
M  V30 12 1 11 5
M  V30 13 1 3 13
M  V30 14 1 3 14
M  V30 15 1 8 15
M  V30 16 1 8 16
M  V30 17 1 9 17
M  V30 18 1 12 18
M  V30 19 1 12 19
M  V30 END BOND
M  V30 END CTAB
M  END
