
     RDKit          3D

  0  0  0  0  0  0  0  0  0  0999 V3000
M  V30 BEGIN CTAB
M  V30 COUNTS 25 26 0 0 0
M  V30 BEGIN ATOM
M  V30 1 N 3.28653 -0.0140883 1.13493 0
M  V30 2 C 3.18396 1.14789 0.269617 0
M  V30 3 C 2.40356 0.771594 -0.984579 0
M  V30 4 C 1.03848 0.306983 -0.658998 0
M  V30 5 N -0.0805983 1.04814 -0.554475 0
M  V30 6 C -1.12928 0.269178 -0.24325 0
M  V30 7 C -0.637808 -1.01444 -0.150472 0
M  V30 8 N 0.678341 -0.964291 -0.406827 0
M  V30 9 C -1.46553 -2.0713 0.159146 0
M  V30 10 C -2.80293 -1.82269 0.376266 0
M  V30 11 C -3.32973 -0.549904 0.29174 0
M  V30 12 C -2.48409 0.476669 -0.0168849 0
M  V30 13 N -2.96574 1.79245 -0.116192 0
M  V30 14 H 2.31551 -0.21584 1.46076 0
M  V30 15 H 3.60135 -0.807431 0.534755 0
M  V30 16 H 4.18997 1.44484 -0.037986 0
M  V30 17 H 2.71294 2.00009 0.795443 0
M  V30 18 H 3.00161 -0.0393373 -1.47785 0
M  V30 19 H 2.39053 1.61073 -1.68768 0
M  V30 20 H 1.29375 -1.8053 -0.401568 0
M  V30 21 H -1.04715 -3.0822 0.22628 0
M  V30 22 H -3.42086 -2.67897 0.617152 0
M  V30 23 H -4.39827 -0.418037 0.474872 0
M  V30 24 H -2.3919 2.59071 -0.470064 0
M  V30 25 H -3.94265 2.02455 0.168703 0
M  V30 END ATOM
M  V30 BEGIN BOND
M  V30 1 1 1 2
M  V30 2 1 2 3
M  V30 3 1 3 4
M  V30 4 2 4 5
M  V30 5 1 5 6
M  V30 6 2 6 7
M  V30 7 1 7 8
M  V30 8 1 7 9
M  V30 9 2 9 10
M  V30 10 1 10 11
M  V30 11 2 11 12
M  V30 12 1 12 13
M  V30 13 1 8 4
M  V30 14 1 12 6
M  V30 15 1 1 14
M  V30 16 1 1 15
M  V30 17 1 2 16
M  V30 18 1 2 17
M  V30 19 1 3 18
M  V30 20 1 3 19
M  V30 21 1 8 20
M  V30 22 1 9 21
M  V30 23 1 10 22
M  V30 24 1 11 23
M  V30 25 1 13 24
M  V30 26 1 13 25
M  V30 END BOND
M  V30 END CTAB
M  END
