
     RDKit          3D

  0  0  0  0  0  0  0  0  0  0999 V3000
M  V30 BEGIN CTAB
M  V30 COUNTS 34 35 0 0 0
M  V30 BEGIN ATOM
M  V30 1 N 5.34137 1.15284 0.702421 0
M  V30 2 C 4.06351 0.633482 0.39182 0
M  V30 3 C 2.91653 1.18249 0.897213 0
M  V30 4 C 1.64558 0.668193 0.590008 0
M  V30 5 C 1.52334 -0.411037 -0.236273 0
M  V30 6 C 2.6922 -0.951405 -0.735872 0
M  V30 7 C 3.94283 -0.461212 -0.445231 0
M  V30 8 N 2.65904 -2.08988 -1.61289 0
M  V30 9 N 0.277861 -0.974848 -0.535077 0
M  V30 10 C -1.00621 -0.4685 -0.280835 0
M  V30 11 C -1.36164 0.836295 -0.324671 0
M  V30 12 C -2.63931 1.32872 -0.0405431 0
M  V30 13 C -2.95899 2.77831 -0.107954 0
M  V30 14 C -3.57584 0.376551 0.30483 0
M  V30 15 C -3.2533 -0.969958 0.36071 0
M  V30 16 C -1.98221 -1.39992 0.072243 0
M  V30 17 C -4.28637 -1.97809 0.736774 0
M  V30 18 H 6.08028 1.16651 -0.00734248 0
M  V30 19 H 5.49553 1.51524 1.66988 0
M  V30 20 H 3.02271 2.04696 1.55748 0
M  V30 21 H 0.824619 1.18338 1.07478 0
M  V30 22 H 4.83731 -0.913062 -0.857158 0
M  V30 23 H 2.22498 -1.95614 -2.5435 0
M  V30 24 H 3.04997 -3.00863 -1.33484 0
M  V30 25 H 0.335997 -1.92881 -1.02761 0
M  V30 26 H -0.647468 1.60876 -0.616623 0
M  V30 27 H -2.84527 3.25496 0.901902 0
M  V30 28 H -2.33465 3.30579 -0.864791 0
M  V30 29 H -4.01278 2.94936 -0.410625 0
M  V30 30 H -4.59579 0.672469 0.541802 0
M  V30 31 H -1.7411 -2.46871 0.120493 0
M  V30 32 H -3.94816 -2.56072 1.63126 0
M  V30 33 H -5.22681 -1.46982 1.0368 0
M  V30 34 H -4.51775 -2.64956 -0.106335 0
M  V30 END ATOM
M  V30 BEGIN BOND
M  V30 1 1 1 2
M  V30 2 2 2 3
M  V30 3 1 3 4
M  V30 4 2 4 5
M  V30 5 1 5 6
M  V30 6 2 6 7
M  V30 7 1 6 8
M  V30 8 1 5 9
M  V30 9 1 9 10
M  V30 10 2 10 11
M  V30 11 1 11 12
M  V30 12 1 12 13
M  V30 13 2 12 14
M  V30 14 1 14 15
M  V30 15 2 15 16
M  V30 16 1 15 17
M  V30 17 1 7 2
M  V30 18 1 16 10
M  V30 19 1 1 18
M  V30 20 1 1 19
M  V30 21 1 3 20
M  V30 22 1 4 21
M  V30 23 1 7 22
M  V30 24 1 8 23
M  V30 25 1 8 24
M  V30 26 1 9 25
M  V30 27 1 11 26
M  V30 28 1 13 27
M  V30 29 1 13 28
M  V30 30 1 13 29
M  V30 31 1 14 30
M  V30 32 1 16 31
M  V30 33 1 17 32
M  V30 34 1 17 33
M  V30 35 1 17 34
M  V30 END BOND
M  V30 END CTAB
M  END
