
     RDKit          3D

  0  0  0  0  0  0  0  0  0  0999 V3000
M  V30 BEGIN CTAB
M  V30 COUNTS 58 60 0 0 0
M  V30 BEGIN ATOM
M  V30 1 C -7.30894 -0.234504 3.42826 0
M  V30 2 C -6.16131 -0.915739 2.68463 0
M  V30 3 C -6.31909 -0.780948 1.20116 0
M  V30 4 C -5.20284 -1.48461 0.49005 0
M  V30 5 C -3.88821 -0.886262 0.883578 0
M  V30 6 C -2.68484 -1.41006 0.245096 0
M  V30 7 C -2.32552 -1.21822 -1.16553 0
M  V30 8 C -1.9225 0.183063 -1.5564 0
M  V30 9 C -2.80734 1.13806 -1.97166 0
M  V30 10 C -4.17694 0.74639 -2.32109 0
M  V30 11 N -5.24831 0.451514 -2.63525 0
M  V30 12 C -2.50015 2.47093 -2.22362 0
M  V30 13 N -3.51614 3.34967 -2.63817 0
M  V30 14 N -1.2211 2.79951 -2.03603 0
M  V30 15 C -0.310754 1.87965 -1.63034 0
M  V30 16 C -0.562841 0.561977 -1.36886 0
M  V30 17 C 0.492453 -0.168369 -0.997476 0
M  V30 18 N 0.505221 -1.59042 -0.699334 0
M  V30 19 C 1.713 0.445712 -0.906952 0
M  V30 20 S 1.37236 2.06168 -1.34964 0
M  V30 21 C 3.0356 -0.100501 -0.525242 0
M  V30 22 O 3.11126 -1.28983 -0.228302 0
M  V30 23 N 4.11537 0.79706 -0.533288 0
M  V30 24 C 5.45823 0.553587 -0.22561 0
M  V30 25 C 6.33311 1.618 -0.0228258 0
M  V30 26 C 7.6589 1.45443 0.266363 0
M  V30 27 C 8.1499 0.177953 0.361204 0
M  V30 28 C 7.31874 -0.886304 0.167878 0
M  V30 29 C 5.95711 -0.70948 -0.129328 0
M  V30 30 O 9.50466 0.0264702 0.657181 0
M  V30 31 C 10.3838 -0.0287522 -0.461505 0
M  V30 32 F 10.3158 1.12173 -1.22533 0
M  V30 33 F 10.0553 -1.11875 -1.22331 0
M  V30 34 F 11.6627 -0.173783 0.0486404 0
M  V30 35 H -7.33747 -0.533613 4.484 0
M  V30 36 H -7.2546 0.842133 3.24762 0
M  V30 37 H -8.25893 -0.605211 2.96255 0
M  V30 38 H -6.03934 -1.95902 3.00237 0
M  V30 39 H -5.25584 -0.319101 2.99277 0
M  V30 40 H -6.17699 0.319889 0.982243 0
M  V30 41 H -7.32191 -1.10343 0.843742 0
M  V30 42 H -5.23306 -2.55312 0.92099 0
M  V30 43 H -5.35195 -1.65724 -0.576647 0
M  V30 44 H -3.90344 0.236311 0.813208 0
M  V30 45 H -3.7637 -1.06652 2.0002 0
M  V30 46 H -2.69762 -2.54823 0.418613 0
M  V30 47 H -1.81967 -1.01944 0.911307 0
M  V30 48 H -3.30704 -1.35108 -1.76924 0
M  V30 49 H -1.70507 -2.00015 -1.62521 0
M  V30 50 H -4.50756 3.29562 -2.35088 0
M  V30 51 H -3.2862 4.14734 -3.30014 0
M  V30 52 H 0.639489 -2.28702 -1.45719 0
M  V30 53 H 0.387122 -1.93869 0.271567 0
M  V30 54 H 3.91335 1.82924 -0.818516 0
M  V30 55 H 5.92903 2.62138 -0.100001 0
M  V30 56 H 8.31796 2.30958 0.419466 0
M  V30 57 H 7.68812 -1.89903 0.238857 0
M  V30 58 H 5.35854 -1.60143 -0.279182 0
M  V30 END ATOM
M  V30 BEGIN BOND
M  V30 1 1 1 2
M  V30 2 1 2 3
M  V30 3 1 3 4
M  V30 4 1 4 5
M  V30 5 1 5 6
M  V30 6 1 6 7
M  V30 7 1 7 8
M  V30 8 2 8 9
M  V30 9 1 9 10
M  V30 10 3 10 11
M  V30 11 1 9 12
M  V30 12 1 12 13
M  V30 13 2 12 14
M  V30 14 1 14 15
M  V30 15 2 15 16
M  V30 16 1 16 17
M  V30 17 1 17 18
M  V30 18 2 17 19
M  V30 19 1 19 20
M  V30 20 1 19 21
M  V30 21 2 21 22
M  V30 22 1 21 23
M  V30 23 1 23 24
M  V30 24 2 24 25
M  V30 25 1 25 26
M  V30 26 2 26 27
M  V30 27 1 27 28
M  V30 28 2 28 29
M  V30 29 1 27 30
M  V30 30 1 30 31
M  V30 31 1 31 32
M  V30 32 1 31 33
M  V30 33 1 31 34
M  V30 34 1 16 8
M  V30 35 1 29 24
M  V30 36 1 20 15
M  V30 37 1 1 35
M  V30 38 1 1 36
M  V30 39 1 1 37
M  V30 40 1 2 38
M  V30 41 1 2 39
M  V30 42 1 3 40
M  V30 43 1 3 41
M  V30 44 1 4 42
M  V30 45 1 4 43
M  V30 46 1 5 44
M  V30 47 1 5 45
M  V30 48 1 6 46
M  V30 49 1 6 47
M  V30 50 1 7 48
M  V30 51 1 7 49
M  V30 52 1 13 50
M  V30 53 1 13 51
M  V30 54 1 18 52
M  V30 55 1 18 53
M  V30 56 1 23 54
M  V30 57 1 25 55
M  V30 58 1 26 56
M  V30 59 1 28 57
M  V30 60 1 29 58
M  V30 END BOND
M  V30 END CTAB
M  END
