
     RDKit          3D

  0  0  0  0  0  0  0  0  0  0999 V3000
M  V30 BEGIN CTAB
M  V30 COUNTS 39 40 0 0 0
M  V30 BEGIN ATOM
M  V30 1 O 0.547951 -0.0259302 -1.55683 0
M  V30 2 C 0.0104307 -0.420266 -0.406748 0
M  V30 3 N 0.971577 -0.756557 0.525363 0
M  V30 4 C 2.39148 -0.692361 0.183229 0
M  V30 5 C 3.15923 -1.83416 0.0732277 0
M  V30 6 O 2.62901 -2.96599 0.266917 0
M  V30 7 N 4.47003 -1.71384 -0.241896 0
M  V30 8 C 5.0096 -0.49427 -0.444157 0
M  V30 9 O 6.22657 -0.376877 -0.738429 0
M  V30 10 N 4.26209 0.627546 -0.337385 0
M  V30 11 C 2.93717 0.544529 -0.0202457 0
M  V30 12 N 2.17528 1.73252 0.110658 0
M  V30 13 C 4.82641 1.92944 -0.560462 0
M  V30 14 C 0.716664 -1.16942 1.88468 0
M  V30 15 C -1.42628 -0.412678 -0.361615 0
M  V30 16 C -2.22164 -0.915824 0.640043 0
M  V30 17 C -3.6216 -0.813899 0.609695 0
M  V30 18 C -4.24961 -0.200682 -0.432522 0
M  V30 19 C -3.46807 0.304136 -1.43754 0
M  V30 20 C -2.09815 0.216277 -1.43144 0
M  V30 21 S -5.98108 -0.0295743 -0.554784 0
M  V30 22 O -6.41081 0.111491 -2.00711 0
M  V30 23 O -6.69222 -1.16545 0.0975704 0
M  V30 24 N -6.39542 1.4293 0.30247 0
M  V30 25 H 5.07607 -2.5836 -0.331177 0
M  V30 26 H 1.73228 2.06542 0.98654 0
M  V30 27 H 2.00916 2.37867 -0.721312 0
M  V30 28 H 4.80247 2.55323 0.344537 0
M  V30 29 H 5.8439 1.84328 -1.00588 0
M  V30 30 H 4.20734 2.45995 -1.34295 0
M  V30 31 H 0.288734 -2.18693 1.88578 0
M  V30 32 H 1.70316 -1.24874 2.46405 0
M  V30 33 H 0.0449596 -0.501078 2.44737 0
M  V30 34 H -1.79891 -1.41751 1.46972 0
M  V30 35 H -4.22619 -1.2201 1.40819 0
M  V30 36 H -3.96691 0.804803 -2.28396 0
M  V30 37 H -1.51304 0.625514 -2.2328 0
M  V30 38 H -5.8845 2.25682 -0.0477722 0
M  V30 39 H -6.08712 1.26281 1.3064 0
M  V30 END ATOM
M  V30 BEGIN BOND
M  V30 1 2 1 2
M  V30 2 1 2 3
M  V30 3 1 3 4
M  V30 4 1 4 5
M  V30 5 2 5 6
M  V30 6 1 5 7
M  V30 7 1 7 8
M  V30 8 2 8 9
M  V30 9 1 8 10
M  V30 10 1 10 11
M  V30 11 1 11 12
M  V30 12 1 10 13
M  V30 13 1 3 14
M  V30 14 1 2 15
M  V30 15 2 15 16
M  V30 16 1 16 17
M  V30 17 2 17 18
M  V30 18 1 18 19
M  V30 19 2 19 20
M  V30 20 1 18 21
M  V30 21 2 21 22
M  V30 22 2 21 23
M  V30 23 1 21 24
M  V30 24 2 11 4
M  V30 25 1 20 15
M  V30 26 1 7 25
M  V30 27 1 12 26
M  V30 28 1 12 27
M  V30 29 1 13 28
M  V30 30 1 13 29
M  V30 31 1 13 30
M  V30 32 1 14 31
M  V30 33 1 14 32
M  V30 34 1 14 33
M  V30 35 1 16 34
M  V30 36 1 17 35
M  V30 37 1 19 36
M  V30 38 1 20 37
M  V30 39 1 24 38
M  V30 40 1 24 39
M  V30 END BOND
M  V30 END CTAB
M  END
