
     RDKit          3D

  0  0  0  0  0  0  0  0  0  0999 V3000
M  V30 BEGIN CTAB
M  V30 COUNTS 45 46 0 0 0
M  V30 BEGIN ATOM
M  V30 1 N 0.873208 -3.51492 -2.692 0
M  V30 2 C 0.926761 -2.48533 -2.17191 0
M  V30 3 C 0.967783 -1.13708 -1.49085 0
M  V30 4 C 2.10701 -0.589983 -1.30585 0
M  V30 5 N 2.43376 0.621232 -0.751458 0
M  V30 6 C 3.74714 0.584545 -0.0467597 0
M  V30 7 C 4.68727 1.42182 -0.499527 0
M  V30 8 C 5.9414 1.42643 0.120787 0
M  V30 9 C 6.12653 0.557311 1.16997 0
M  V30 10 C 5.16025 -0.309255 1.64201 0
M  V30 11 C 3.91863 -0.264704 0.973772 0
M  V30 12 N 5.33965 -1.20659 2.71839 0
M  V30 13 C 1.81466 1.85088 -0.538203 0
M  V30 14 O 0.936923 2.29845 -1.30475 0
M  V30 15 C 2.16787 2.69587 0.619729 0
M  V30 16 C -0.233447 -0.727221 -0.842475 0
M  V30 17 O -0.337468 0.106686 0.0364494 0
M  V30 18 N -1.44552 -1.35743 -1.27071 0
M  V30 19 C -2.72933 -1.09498 -0.759006 0
M  V30 20 C -3.04197 -0.563072 0.465772 0
M  V30 21 C -4.37428 -0.32079 0.83937 0
M  V30 22 C -5.41241 -0.607883 -0.00512509 0
M  V30 23 C -5.10876 -1.1415 -1.23368 0
M  V30 24 C -3.81748 -1.37352 -1.59068 0
M  V30 25 S -7.09526 -0.339669 0.381892 0
M  V30 26 O -7.36229 -0.541225 1.83888 0
M  V30 27 O -7.92354 -1.37147 -0.366411 0
M  V30 28 N -7.58957 1.22145 -0.0996066 0
M  V30 29 H 3.01665 -1.20215 -1.67146 0
M  V30 30 H 4.52432 2.09445 -1.32094 0
M  V30 31 H 6.71128 2.09554 -0.23344 0
M  V30 32 H 7.09453 0.545925 1.66701 0
M  V30 33 H 3.14939 -0.92577 1.31769 0
M  V30 34 H 5.05576 -0.933974 3.68477 0
M  V30 35 H 5.75147 -2.14644 2.5823 0
M  V30 36 H 2.88255 3.50008 0.341045 0
M  V30 37 H 1.23414 3.10997 1.0479 0
M  V30 38 H 2.61175 2.03236 1.39413 0
M  V30 39 H -1.38324 -2.09435 -2.0375 0
M  V30 40 H -2.26357 -0.336594 1.16747 0
M  V30 41 H -4.60434 0.100462 1.80865 0
M  V30 42 H -5.93114 -1.38007 -1.92969 0
M  V30 43 H -3.60541 -1.79743 -2.57295 0
M  V30 44 H -6.8821 1.74036 -0.659428 0
M  V30 45 H -8.03956 1.75956 0.647053 0
M  V30 END ATOM
M  V30 BEGIN BOND
M  V30 1 3 1 2
M  V30 2 1 2 3
M  V30 3 2 3 4
M  V30 4 1 4 5
M  V30 5 1 5 6
M  V30 6 2 6 7
M  V30 7 1 7 8
M  V30 8 2 8 9
M  V30 9 1 9 10
M  V30 10 2 10 11
M  V30 11 1 10 12
M  V30 12 1 5 13
M  V30 13 2 13 14
M  V30 14 1 13 15
M  V30 15 1 3 16
M  V30 16 2 16 17
M  V30 17 1 16 18
M  V30 18 1 18 19
M  V30 19 2 19 20
M  V30 20 1 20 21
M  V30 21 2 21 22
M  V30 22 1 22 23
M  V30 23 2 23 24
M  V30 24 1 22 25
M  V30 25 2 25 26
M  V30 26 2 25 27
M  V30 27 1 25 28
M  V30 28 1 11 6
M  V30 29 1 24 19
M  V30 30 1 4 29
M  V30 31 1 7 30
M  V30 32 1 8 31
M  V30 33 1 9 32
M  V30 34 1 11 33
M  V30 35 1 12 34
M  V30 36 1 12 35
M  V30 37 1 15 36
M  V30 38 1 15 37
M  V30 39 1 15 38
M  V30 40 1 18 39
M  V30 41 1 20 40
M  V30 42 1 21 41
M  V30 43 1 23 42
M  V30 44 1 24 43
M  V30 45 1 28 44
M  V30 46 1 28 45
M  V30 END BOND
M  V30 END CTAB
M  END
