
     RDKit          3D

  0  0  0  0  0  0  0  0  0  0999 V3000
M  V30 BEGIN CTAB
M  V30 COUNTS 47 47 0 0 0
M  V30 BEGIN ATOM
M  V30 1 C -2.60567 2.92145 0.405317 0
M  V30 2 C -2.96652 1.79507 -0.521942 0
M  V30 3 C -2.72035 0.432708 0.0881808 0
M  V30 4 N -1.35608 0.213955 0.449318 0
M  V30 5 C -0.237029 0.247605 -0.397322 0
M  V30 6 O -0.36524 0.493445 -1.62907 0
M  V30 7 C 1.15351 -0.000213248 0.0915312 0
M  V30 8 C 2.16157 0.104379 -1.01896 0
M  V30 9 C 3.54442 -0.13838 -0.548724 0
M  V30 10 C 4.36509 0.919347 -0.260877 0
M  V30 11 C 5.66697 0.733173 0.180945 0
M  V30 12 C 6.10913 -0.570331 0.321152 0
M  V30 13 C 5.29238 -1.62902 0.0346254 0
M  V30 14 C 4.00661 -1.41637 -0.401512 0
M  V30 15 N 1.89815 -0.76626 -2.11986 0
M  V30 16 C 1.1811 -1.35157 0.768287 0
M  V30 17 C -3.57862 0.241846 1.32335 0
M  V30 18 N -4.97826 0.323463 1.10722 0
M  V30 19 C -3.13809 -0.595313 -0.923076 0
M  V30 20 C -2.94375 -2.01178 -0.449331 0
M  V30 21 H -1.79981 3.57492 -0.0182478 0
M  V30 22 H -2.30596 2.60934 1.40572 0
M  V30 23 H -3.49114 3.582 0.511835 0
M  V30 24 H -4.03614 1.83904 -0.808534 0
M  V30 25 H -2.39975 1.85881 -1.46944 0
M  V30 26 H -1.14212 0.000717536 1.46968 0
M  V30 27 H 1.34832 0.759883 0.874324 0
M  V30 28 H 2.09146 1.16424 -1.39765 0
M  V30 29 H 4.0324 1.96386 -0.36585 0
M  V30 30 H 6.31792 1.57236 0.409267 0
M  V30 31 H 7.13751 -0.705256 0.670255 0
M  V30 32 H 5.67841 -2.64678 0.157987 0
M  V30 33 H 3.37797 -2.29374 -0.622882 0
M  V30 34 H 2.75928 -1.28896 -2.43166 0
M  V30 35 H 1.57428 -0.240221 -2.96085 0
M  V30 36 H 1.06991 -2.18136 0.015084 0
M  V30 37 H 0.285972 -1.45165 1.42173 0
M  V30 38 H 2.05459 -1.49315 1.42621 0
M  V30 39 H -3.29215 0.929683 2.14039 0
M  V30 40 H -3.35376 -0.792041 1.70984 0
M  V30 41 H -5.31358 0.615397 0.190803 0
M  V30 42 H -5.52526 0.806962 1.83315 0
M  V30 43 H -4.23539 -0.494272 -1.13097 0
M  V30 44 H -2.59694 -0.427135 -1.86978 0
M  V30 45 H -2.91268 -2.65354 -1.35511 0
M  V30 46 H -3.8201 -2.38509 0.149053 0
M  V30 47 H -1.99255 -2.17122 0.0850888 0
M  V30 END ATOM
M  V30 BEGIN BOND
M  V30 1 1 1 2
M  V30 2 1 2 3
M  V30 3 1 3 4
M  V30 4 1 4 5
M  V30 5 2 5 6
M  V30 6 1 5 7
M  V30 7 1 7 8
M  V30 8 1 8 9
M  V30 9 2 9 10
M  V30 10 1 10 11
M  V30 11 2 11 12
M  V30 12 1 12 13
M  V30 13 2 13 14
M  V30 14 1 8 15
M  V30 15 1 7 16
M  V30 16 1 3 17
M  V30 17 1 17 18
M  V30 18 1 3 19
M  V30 19 1 19 20
M  V30 20 1 14 9
M  V30 21 1 1 21
M  V30 22 1 1 22
M  V30 23 1 1 23
M  V30 24 1 2 24
M  V30 25 1 2 25
M  V30 26 1 4 26
M  V30 27 1 7 27
M  V30 28 1 8 28
M  V30 29 1 10 29
M  V30 30 1 11 30
M  V30 31 1 12 31
M  V30 32 1 13 32
M  V30 33 1 14 33
M  V30 34 1 15 34
M  V30 35 1 15 35
M  V30 36 1 16 36
M  V30 37 1 16 37
M  V30 38 1 16 38
M  V30 39 1 17 39
M  V30 40 1 17 40
M  V30 41 1 18 41
M  V30 42 1 18 42
M  V30 43 1 19 43
M  V30 44 1 19 44
M  V30 45 1 20 45
M  V30 46 1 20 46
M  V30 47 1 20 47
M  V30 END BOND
M  V30 END CTAB
M  END
