
     RDKit          3D

  0  0  0  0  0  0  0  0  0  0999 V3000
M  V30 BEGIN CTAB
M  V30 COUNTS 23 24 0 0 0
M  V30 BEGIN ATOM
M  V30 1 N -2.84045 -1.85192 1.35393 0
M  V30 2 C -2.32234 -0.794536 0.55376 0
M  V30 3 N -3.14632 0.0739895 -0.102136 0
M  V30 4 C -2.62902 1.06261 -0.850315 0
M  V30 5 N -3.53029 1.93681 -1.51042 0
M  V30 6 N -1.28533 1.18745 -0.946195 0
M  V30 7 C -0.45093 0.347099 -0.31162 0
M  V30 8 C -0.95146 -0.677389 0.463671 0
M  V30 9 C 1.00714 0.499809 -0.428694 0
M  V30 10 N 1.65416 1.43121 -1.13374 0
M  V30 11 N 2.95122 1.23031 -0.983225 0
M  V30 12 N 3.17532 0.185046 -0.193024 0
M  V30 13 C 1.96605 -0.290518 0.167923 0
M  V30 14 C 4.43593 -0.370182 0.225498 0
M  V30 15 H -2.7165 -2.83932 1.07026 0
M  V30 16 H -3.35737 -1.616 2.24824 0
M  V30 17 H -3.6058 2.92288 -1.18097 0
M  V30 18 H -4.12782 1.65158 -2.31259 0
M  V30 19 H -0.25427 -1.33655 0.961382 0
M  V30 20 H 1.77084 -1.14248 0.812404 0
M  V30 21 H 4.29374 -1.47729 0.344913 0
M  V30 22 H 5.27557 -0.137208 -0.443586 0
M  V30 23 H 4.68793 0.00460875 1.25291 0
M  V30 END ATOM
M  V30 BEGIN BOND
M  V30 1 1 1 2
M  V30 2 2 2 3
M  V30 3 1 3 4
M  V30 4 1 4 5
M  V30 5 2 4 6
M  V30 6 1 6 7
M  V30 7 2 7 8
M  V30 8 1 7 9
M  V30 9 1 9 10
M  V30 10 2 10 11
M  V30 11 1 11 12
M  V30 12 1 12 13
M  V30 13 1 12 14
M  V30 14 1 8 2
M  V30 15 2 13 9
M  V30 16 1 1 15
M  V30 17 1 1 16
M  V30 18 1 5 17
M  V30 19 1 5 18
M  V30 20 1 8 19
M  V30 21 1 13 20
M  V30 22 1 14 21
M  V30 23 1 14 22
M  V30 24 1 14 23
M  V30 END BOND
M  V30 END CTAB
M  END
