
     RDKit          3D

  0  0  0  0  0  0  0  0  0  0999 V3000
M  V30 BEGIN CTAB
M  V30 COUNTS 21 22 0 0 0
M  V30 BEGIN ATOM
M  V30 1 N 4.67771 0.364397 -0.22112 0
M  V30 2 C 3.27822 0.578701 -0.489895 0
M  V30 3 N 2.71159 1.42967 -1.31709 0
M  V30 4 C 1.36189 1.22642 -1.19103 0
M  V30 5 N 1.10725 0.26918 -0.303484 0
M  V30 6 N 2.33434 -0.108509 0.110635 0
M  V30 7 C -0.0597084 -0.327 0.200636 0
M  V30 8 O 0.148804 -1.26213 1.08974 0
M  V30 9 C -1.43182 -0.0594434 -0.117068 0
M  V30 10 C -1.99404 0.828652 -0.979011 0
M  V30 11 N -3.36698 0.721666 -0.944675 0
M  V30 12 N -3.64431 -0.220379 -0.0725259 0
M  V30 13 C -2.52317 -0.728758 0.459438 0
M  V30 14 N -2.45639 -1.76194 1.43384 0
M  V30 15 H 5.28644 1.18224 -0.0674755 0
M  V30 16 H 5.01062 -0.614042 -0.194596 0
M  V30 17 H 0.619824 1.77559 -1.74297 0
M  V30 18 H -1.53534 1.54996 -1.63494 0
M  V30 19 H -4.62264 -0.502134 0.145136 0
M  V30 20 H -2.93997 -2.65602 1.21675 0
M  V30 21 H -1.96233 -1.68613 2.33957 0
M  V30 END ATOM
M  V30 BEGIN BOND
M  V30 1 1 1 2
M  V30 2 1 2 3
M  V30 3 2 3 4
M  V30 4 1 4 5
M  V30 5 1 5 6
M  V30 6 1 5 7
M  V30 7 2 7 8
M  V30 8 1 7 9
M  V30 9 1 9 10
M  V30 10 2 10 11
M  V30 11 1 11 12
M  V30 12 1 12 13
M  V30 13 1 13 14
M  V30 14 2 6 2
M  V30 15 2 13 9
M  V30 16 1 1 15
M  V30 17 1 1 16
M  V30 18 1 4 17
M  V30 19 1 10 18
M  V30 20 1 12 19
M  V30 21 1 14 20
M  V30 22 1 14 21
M  V30 END BOND
M  V30 END CTAB
M  END
