
     RDKit          3D

  0  0  0  0  0  0  0  0  0  0999 V3000
M  V30 BEGIN CTAB
M  V30 COUNTS 25 26 0 0 0
M  V30 BEGIN ATOM
M  V30 1 N -3.43845 1.30497 0.184604 0
M  V30 2 C -2.42143 0.326142 -0.0195378 0
M  V30 3 C -2.81838 -0.955096 -0.36148 0
M  V30 4 C -1.87881 -1.90743 -0.562296 0
M  V30 5 C -0.521724 -1.60599 -0.427246 0
M  V30 6 C -0.169342 -0.33838 -0.090689 0
M  V30 7 N -1.14666 0.593047 0.103202 0
M  V30 8 C 1.2143 0.0690457 0.0722796 0
M  V30 9 C 2.34045 -0.669797 -0.0661564 0
M  V30 10 N 2.45598 -2.03547 -0.406929 0
M  V30 11 C 3.44352 0.173154 0.194936 0
M  V30 12 N 2.93646 1.35551 0.472415 0
M  V30 13 N 1.60342 1.31055 0.403446 0
M  V30 14 C 0.750408 2.4784 0.662284 0
M  V30 15 H -4.05327 1.22655 1.00587 0
M  V30 16 H -3.53263 2.06914 -0.497882 0
M  V30 17 H -3.87769 -1.197 -0.468573 0
M  V30 18 H -2.14071 -2.93386 -0.833828 0
M  V30 19 H 0.165345 -2.40588 -0.600327 0
M  V30 20 H 2.63807 -2.29194 -1.39218 0
M  V30 21 H 2.36296 -2.7811 0.30353 0
M  V30 22 H 4.4692 -0.163685 0.15395 0
M  V30 23 H 1.39341 3.36951 0.894065 0
M  V30 24 H 0.153643 2.72104 -0.230606 0
M  V30 25 H 0.0719396 2.28857 1.50715 0
M  V30 END ATOM
M  V30 BEGIN BOND
M  V30 1 1 1 2
M  V30 2 2 2 3
M  V30 3 1 3 4
M  V30 4 2 4 5
M  V30 5 1 5 6
M  V30 6 2 6 7
M  V30 7 1 6 8
M  V30 8 2 8 9
M  V30 9 1 9 10
M  V30 10 1 9 11
M  V30 11 2 11 12
M  V30 12 1 12 13
M  V30 13 1 13 14
M  V30 14 1 7 2
M  V30 15 1 13 8
M  V30 16 1 1 15
M  V30 17 1 1 16
M  V30 18 1 3 17
M  V30 19 1 4 18
M  V30 20 1 5 19
M  V30 21 1 10 20
M  V30 22 1 10 21
M  V30 23 1 11 22
M  V30 24 1 14 23
M  V30 25 1 14 24
M  V30 26 1 14 25
M  V30 END BOND
M  V30 END CTAB
M  END
