
     RDKit          3D

  0  0  0  0  0  0  0  0  0  0999 V3000
M  V30 BEGIN CTAB
M  V30 COUNTS 16 16 0 0 0
M  V30 BEGIN ATOM
M  V30 1 N -1.81469 2.24546 -0.232495 0
M  V30 2 C -1.01001 1.0637 -0.102974 0
M  V30 3 N 0.316401 1.15972 -0.265798 0
M  V30 4 C 1.1205 0.0980304 -0.158347 0
M  V30 5 N 0.573375 -1.09417 0.120991 0
M  V30 6 C -0.754909 -1.2027 0.286323 0
M  V30 7 N -1.40287 -2.43495 0.584069 0
M  V30 8 N -1.57186 -0.119742 0.176368 0
M  V30 9 C 2.57388 0.293157 -0.353274 0
M  V30 10 Br 3.44415 -0.081374 1.33988 0
M  V30 11 Br 3.27101 -0.833006 -1.75417 0
M  V30 12 H -1.89857 2.85858 0.614918 0
M  V30 13 H -2.27778 2.45405 -1.13562 0
M  V30 14 H -2.0896 -2.44499 1.37849 0
M  V30 15 H -1.24264 -3.31868 0.0712913 0
M  V30 16 H 2.7636 1.3569 -0.569667 0
M  V30 END ATOM
M  V30 BEGIN BOND
M  V30 1 1 1 2
M  V30 2 2 2 3
M  V30 3 1 3 4
M  V30 4 2 4 5
M  V30 5 1 5 6
M  V30 6 1 6 7
M  V30 7 2 6 8
M  V30 8 1 4 9
M  V30 9 1 9 10
M  V30 10 1 9 11
M  V30 11 1 8 2
M  V30 12 1 1 12
M  V30 13 1 1 13
M  V30 14 1 7 14
M  V30 15 1 7 15
M  V30 16 1 9 16
M  V30 END BOND
M  V30 END CTAB
M  END
