
     RDKit          3D

  0  0  0  0  0  0  0  0  0  0999 V3000
M  V30 BEGIN CTAB
M  V30 COUNTS 24 25 0 0 0
M  V30 BEGIN ATOM
M  V30 1 N -3.84347 -0.870187 0.209396 0
M  V30 2 C -2.43747 -0.666153 0.142509 0
M  V30 3 C -1.61654 -1.64421 -0.36529 0
M  V30 4 C -0.230797 -1.41425 -0.418899 0
M  V30 5 C 0.287672 -0.248349 0.0223726 0
M  V30 6 C -0.584249 0.721141 0.532101 0
M  V30 7 C -1.94385 0.543495 0.605198 0
M  V30 8 N -2.77942 1.56264 1.1322 0
M  V30 9 C 1.71763 0.0175778 -0.0207345 0
M  V30 10 C 2.58193 -0.920758 -0.516329 0
M  V30 11 N 3.91831 -0.611238 -0.530574 0
M  V30 12 C 4.34858 0.572959 -0.0718377 0
M  V30 13 C 3.48871 1.52794 0.430382 0
M  V30 14 N 2.18826 1.22206 0.44224 0
M  V30 15 H -4.43303 -0.3617 0.897287 0
M  V30 16 H -4.30143 -1.53877 -0.437633 0
M  V30 17 H -2.00325 -2.59388 -0.728629 0
M  V30 18 H 0.368084 -2.23001 -0.833019 0
M  V30 19 H -0.128101 1.62992 0.870354 0
M  V30 20 H -2.35608 2.3182 1.69829 0
M  V30 21 H -3.79166 1.57431 0.969578 0
M  V30 22 H 2.24844 -1.87124 -0.88585 0
M  V30 23 H 5.42244 0.810127 -0.0882102 0
M  V30 24 H 3.87931 2.47037 0.790185 0
M  V30 END ATOM
M  V30 BEGIN BOND
M  V30 1 1 1 2
M  V30 2 2 2 3
M  V30 3 1 3 4
M  V30 4 2 4 5
M  V30 5 1 5 6
M  V30 6 2 6 7
M  V30 7 1 7 8
M  V30 8 1 5 9
M  V30 9 2 9 10
M  V30 10 1 10 11
M  V30 11 2 11 12
M  V30 12 1 12 13
M  V30 13 2 13 14
M  V30 14 1 7 2
M  V30 15 1 14 9
M  V30 16 1 1 15
M  V30 17 1 1 16
M  V30 18 1 3 17
M  V30 19 1 4 18
M  V30 20 1 6 19
M  V30 21 1 8 20
M  V30 22 1 8 21
M  V30 23 1 10 22
M  V30 24 1 12 23
M  V30 25 1 13 24
M  V30 END BOND
M  V30 END CTAB
M  END
