
     RDKit          3D

  0  0  0  0  0  0  0  0  0  0999 V3000
M  V30 BEGIN CTAB
M  V30 COUNTS 117 118 0 0 0
M  V30 BEGIN ATOM
M  V30 1 C -9.08894 2.81439 3.94593 0
M  V30 2 S -9.6483 1.26544 3.1732 0
M  V30 3 C -8.35878 0.0422189 3.10495 0
M  V30 4 C -7.22191 0.301078 2.17279 0
M  V30 5 C -7.57737 0.356923 0.726402 0
M  V30 6 C -6.40574 0.603333 -0.125392 0
M  V30 7 O -6.50246 1.28093 -1.17325 0
M  V30 8 N -5.13397 0.0763394 0.22722 0
M  V30 9 C -3.97723 0.313194 -0.598578 0
M  V30 10 C -3.19504 -0.973946 -0.816737 0
M  V30 11 O -3.72687 -1.93445 -0.206038 0
M  V30 12 N -2.06893 -0.921449 -1.6046 0
M  V30 13 C -1.11154 -1.861 -2.03061 0
M  V30 14 C 0.113685 -1.2452 -2.47955 0
M  V30 15 O -0.0207491 -0.257221 -3.33469 0
M  V30 16 N 1.46129 -1.49014 -2.17952 0
M  V30 17 C 2.55901 -0.763419 -2.78854 0
M  V30 18 C 2.89202 0.488683 -2.00894 0
M  V30 19 O 2.35381 0.691939 -0.912096 0
M  V30 20 N 3.8101 1.42073 -2.54028 0
M  V30 21 C 4.18443 2.62687 -1.86754 0
M  V30 22 C 4.92348 2.36851 -0.641166 0
M  V30 23 O 5.25472 3.3944 0.0477884 0
M  V30 24 N 5.29651 1.11297 -0.176429 0
M  V30 25 C 6.06505 1.05311 1.09442 0
M  V30 26 C 5.3434 0.247947 2.08111 0
M  V30 27 O 4.24825 -0.305965 1.70125 0
M  V30 28 O 5.74405 0.0407313 3.37371 0
M  V30 29 C 7.37303 0.42256 0.736048 0
M  V30 30 C 8.24392 0.353397 1.93326 0
M  V30 31 C 8.59485 -0.713632 2.72217 0
M  V30 32 N 9.42132 -0.275597 3.67859 0
M  V30 33 C 9.64306 1.043 3.56801 0
M  V30 34 C 8.91178 1.46069 2.47479 0
M  V30 35 C 8.9135 2.77968 2.07025 0
M  V30 36 C 9.65061 3.74311 2.74624 0
M  V30 37 C 10.3852 3.30866 3.84925 0
M  V30 38 C 10.3749 1.99498 4.24041 0
M  V30 39 C 3.77185 -1.64803 -2.81438 0
M  V30 40 C 3.62289 -2.92592 -3.57404 0
M  V30 41 C 4.94826 -3.67448 -3.47333 0
M  V30 42 N 5.21344 -3.91353 -2.08102 0
M  V30 43 C 4.46113 -4.77896 -1.25009 0
M  V30 44 N 4.25545 -4.50815 -0.0136111 0
M  V30 45 N 3.93468 -5.96869 -1.81415 0
M  V30 46 C -1.14549 -3.20623 -1.46433 0
M  V30 47 C -2.43076 -3.9323 -1.89049 0
M  V30 48 C -0.0088289 -4.12118 -1.7947 0
M  V30 49 C -3.0539 1.33307 0.0401211 0
M  V30 50 C -2.55588 0.885053 1.38414 0
M  V30 51 C -1.67404 1.93112 1.93693 0
M  V30 52 O -1.15283 1.78264 3.09195 0
M  V30 53 O -1.33765 3.11497 1.29783 0
M  V30 54 N -8.75475 1.10391 0.412007 0
M  V30 55 C -8.78629 2.48974 0.161828 0
M  V30 56 O -7.70459 3.15673 0.23604 0
M  V30 57 C -10.0522 3.20872 -0.188286 0
M  V30 58 C -10.5229 2.72052 -1.53267 0
M  V30 59 O -10.8297 1.37158 -1.562 0
M  V30 60 N -9.77059 4.6468 -0.252494 0
M  V30 61 H -8.44916 3.33351 3.23395 0
M  V30 62 H -10.0055 3.42258 4.13702 0
M  V30 63 H -8.55177 2.61345 4.89399 0
M  V30 64 H -8.83454 -0.926092 2.77165 0
M  V30 65 H -8.00991 -0.160532 4.15252 0
M  V30 66 H -6.5831 1.15506 2.48657 0
M  V30 67 H -6.54467 -0.60328 2.29161 0
M  V30 68 H -7.83955 -0.741278 0.433314 0
M  V30 69 H -5.05553 -0.489434 1.09565 0
M  V30 70 H -4.28422 0.687997 -1.56886 0
M  V30 71 H -1.87925 0.0947797 -2.01509 0
M  V30 72 H -1.61939 -2.12902 -3.15464 0
M  V30 73 H 1.70923 -2.21318 -1.47288 0
M  V30 74 H 2.31367 -0.403998 -3.79911 0
M  V30 75 H 4.227 1.17768 -3.4923 0
M  V30 76 H 3.26425 3.27445 -1.67567 0
M  V30 77 H 4.78677 3.30003 -2.55591 0
M  V30 78 H 5.12599 0.183951 -0.591572 0
M  V30 79 H 6.15514 2.07927 1.45928 0
M  V30 80 H 5.3076 -0.63052 3.98002 0
M  V30 81 H 7.26217 -0.611033 0.346124 0
M  V30 82 H 7.90749 0.998387 -0.0540102 0
M  V30 83 H 8.22653 -1.72452 2.54267 0
M  V30 84 H 9.83732 -0.892264 4.41131 0
M  V30 85 H 8.32734 3.07384 1.19695 0
M  V30 86 H 9.64816 4.77778 2.41728 0
M  V30 87 H 10.9502 4.05212 4.36939 0
M  V30 88 H 10.9503 1.66363 5.09865 0
M  V30 89 H 4.66788 -1.05917 -3.15123 0
M  V30 90 H 4.06753 -1.96101 -1.76129 0
M  V30 91 H 3.42674 -2.6971 -4.6292 0
M  V30 92 H 2.82931 -3.57946 -3.19193 0
M  V30 93 H 5.74356 -3.04617 -3.91474 0
M  V30 94 H 4.91734 -4.60955 -4.07353 0
M  V30 95 H 6.01835 -3.42642 -1.61607 0
M  V30 96 H 3.73095 -5.06762 0.65504 0
M  V30 97 H 2.91788 -6.07113 -1.98765 0
M  V30 98 H 4.57542 -6.743 -2.0514 0
M  V30 99 H -1.21908 -3.22446 -0.329811 0
M  V30 100 H -2.96039 -4.41759 -1.081 0
M  V30 101 H -2.10834 -4.72083 -2.66737 0
M  V30 102 H -3.00909 -3.22623 -2.50723 0
M  V30 103 H 0.683714 -4.2951 -0.951771 0
M  V30 104 H 0.508329 -3.82273 -2.74666 0
M  V30 105 H -0.42711 -5.12712 -2.03297 0
M  V30 106 H -2.19046 1.48728 -0.625811 0
M  V30 107 H -3.64653 2.26566 0.159427 0
M  V30 108 H -1.97552 -0.0580402 1.29923 0
M  V30 109 H -3.38119 0.70851 2.10619 0
M  V30 110 H -1.93054 3.47487 0.538646 0
M  V30 111 H -9.69424 0.587193 0.380969 0
M  V30 112 H -10.8581 3.06618 0.545533 0
M  V30 113 H -9.77522 2.99465 -2.31271 0
M  V30 114 H -11.4644 3.26175 -1.85154 0
M  V30 115 H -10.9856 1.05134 -2.49763 0
M  V30 116 H -8.74959 4.84468 -0.234909 0
M  V30 117 H -10.2058 5.11606 0.554411 0
M  V30 END ATOM
M  V30 BEGIN BOND
M  V30 1 1 1 2
M  V30 2 1 2 3
M  V30 3 1 3 4
M  V30 4 1 4 5
M  V30 5 1 5 6
M  V30 6 2 6 7
M  V30 7 1 6 8
M  V30 8 1 8 9
M  V30 9 1 9 10
M  V30 10 2 10 11
M  V30 11 1 10 12
M  V30 12 1 12 13
M  V30 13 1 13 14
M  V30 14 2 14 15
M  V30 15 1 14 16
M  V30 16 1 16 17
M  V30 17 1 17 18
M  V30 18 2 18 19
M  V30 19 1 18 20
M  V30 20 1 20 21
M  V30 21 1 21 22
M  V30 22 2 22 23
M  V30 23 1 22 24
M  V30 24 1 24 25
M  V30 25 1 25 26
M  V30 26 2 26 27
M  V30 27 1 26 28
M  V30 28 1 25 29
M  V30 29 1 29 30
M  V30 30 2 30 31
M  V30 31 1 31 32
M  V30 32 1 32 33
M  V30 33 2 33 34
M  V30 34 1 34 35
M  V30 35 2 35 36
M  V30 36 1 36 37
M  V30 37 2 37 38
M  V30 38 1 17 39
M  V30 39 1 39 40
M  V30 40 1 40 41
M  V30 41 1 41 42
M  V30 42 1 42 43
M  V30 43 2 43 44 CFG=2
M  V30 44 1 43 45
M  V30 45 1 13 46
M  V30 46 1 46 47
M  V30 47 1 46 48
M  V30 48 1 9 49
M  V30 49 1 49 50
M  V30 50 1 50 51
M  V30 51 2 51 52
M  V30 52 1 51 53
M  V30 53 1 5 54
M  V30 54 1 54 55
M  V30 55 2 55 56
M  V30 56 1 55 57
M  V30 57 1 57 58
M  V30 58 1 58 59
M  V30 59 1 57 60
M  V30 60 1 34 30
M  V30 61 1 38 33
M  V30 62 1 1 61
M  V30 63 1 1 62
M  V30 64 1 1 63
M  V30 65 1 3 64
M  V30 66 1 3 65
M  V30 67 1 4 66
M  V30 68 1 4 67
M  V30 69 1 5 68
M  V30 70 1 8 69
M  V30 71 1 9 70
M  V30 72 1 12 71
M  V30 73 1 13 72
M  V30 74 1 16 73
M  V30 75 1 17 74
M  V30 76 1 20 75
M  V30 77 1 21 76
M  V30 78 1 21 77
M  V30 79 1 24 78
M  V30 80 1 25 79
M  V30 81 1 28 80
M  V30 82 1 29 81
M  V30 83 1 29 82
M  V30 84 1 31 83
M  V30 85 1 32 84
M  V30 86 1 35 85
M  V30 87 1 36 86
M  V30 88 1 37 87
M  V30 89 1 38 88
M  V30 90 1 39 89
M  V30 91 1 39 90
M  V30 92 1 40 91
M  V30 93 1 40 92
M  V30 94 1 41 93
M  V30 95 1 41 94
M  V30 96 1 42 95
M  V30 97 1 44 96
M  V30 98 1 45 97
M  V30 99 1 45 98
M  V30 100 1 46 99
M  V30 101 1 47 100
M  V30 102 1 47 101
M  V30 103 1 47 102
M  V30 104 1 48 103
M  V30 105 1 48 104
M  V30 106 1 48 105
M  V30 107 1 49 106
M  V30 108 1 49 107
M  V30 109 1 50 108
M  V30 110 1 50 109
M  V30 111 1 53 110
M  V30 112 1 54 111
M  V30 113 1 57 112
M  V30 114 1 58 113
M  V30 115 1 58 114
M  V30 116 1 59 115
M  V30 117 1 60 116
M  V30 118 1 60 117
M  V30 END BOND
M  V30 END CTAB
M  END
