
     RDKit          3D

  0  0  0  0  0  0  0  0  0  0999 V3000
M  V30 BEGIN CTAB
M  V30 COUNTS 30 31 0 0 0
M  V30 BEGIN ATOM
M  V30 1 N -4.00171 -2.02987 0.421628 0
M  V30 2 C -2.98657 -1.07432 0.177641 0
M  V30 3 C -1.83747 -1.0008 0.932894 0
M  V30 4 C -0.826941 -0.0749539 0.715958 0
M  V30 5 C -0.99535 0.811401 -0.313372 0
M  V30 6 O -0.0615048 1.75925 -0.605139 0
M  V30 7 C 1.14534 1.96977 0.0281669 0
M  V30 8 C 2.03642 0.781474 -0.122167 0
M  V30 9 C 1.88605 -0.123222 -1.14255 0
M  V30 10 C 2.73404 -1.19324 -1.23544 0
M  V30 11 C 3.73391 -1.35531 -0.303214 0
M  V30 12 C 3.92546 -0.473757 0.739968 0
M  V30 13 C 3.05912 0.59331 0.810124 0
M  V30 14 C -2.13962 0.791257 -1.11935 0
M  V30 15 N -2.2752 1.74408 -2.19221 0
M  V30 16 C -3.09677 -0.145972 -0.851818 0
M  V30 17 H -4.13955 -2.3923 1.37212 0
M  V30 18 H -4.59302 -2.35403 -0.35267 0
M  V30 19 H -1.70548 -1.69997 1.74365 0
M  V30 20 H 0.0523624 -0.0852978 1.37869 0
M  V30 21 H 1.00186 2.203 1.11038 0
M  V30 22 H 1.65992 2.8345 -0.458341 0
M  V30 23 H 1.08851 0.0194316 -1.87346 0
M  V30 24 H 2.63437 -1.92759 -2.03939 0
M  V30 25 H 4.42138 -2.21594 -0.372034 0
M  V30 26 H 4.72802 -0.616825 1.47593 0
M  V30 27 H 3.1878 1.30775 1.62672 0
M  V30 28 H -2.56803 1.39212 -3.12147 0
M  V30 29 H -2.06833 2.74772 -1.97055 0
M  V30 30 H -3.999 -0.191681 -1.45679 0
M  V30 END ATOM
M  V30 BEGIN BOND
M  V30 1 1 1 2
M  V30 2 2 2 3
M  V30 3 1 3 4
M  V30 4 2 4 5
M  V30 5 1 5 6
M  V30 6 1 6 7
M  V30 7 1 7 8
M  V30 8 2 8 9
M  V30 9 1 9 10
M  V30 10 2 10 11
M  V30 11 1 11 12
M  V30 12 2 12 13
M  V30 13 1 5 14
M  V30 14 1 14 15
M  V30 15 2 14 16
M  V30 16 1 16 2
M  V30 17 1 13 8
M  V30 18 1 1 17
M  V30 19 1 1 18
M  V30 20 1 3 19
M  V30 21 1 4 20
M  V30 22 1 7 21
M  V30 23 1 7 22
M  V30 24 1 9 23
M  V30 25 1 10 24
M  V30 26 1 11 25
M  V30 27 1 12 26
M  V30 28 1 13 27
M  V30 29 1 15 28
M  V30 30 1 15 29
M  V30 31 1 16 30
M  V30 END BOND
M  V30 END CTAB
M  END
