
     RDKit          3D

  0  0  0  0  0  0  0  0  0  0999 V3000
M  V30 BEGIN CTAB
M  V30 COUNTS 19 20 0 0 0
M  V30 BEGIN ATOM
M  V30 1 Br -4.59322 -0.365399 -2.05405 0
M  V30 2 C -3.28075 -0.125664 -0.676464 0
M  V30 3 O -3.53784 0.0900297 0.594609 0
M  V30 4 C -2.43436 0.211496 1.28291 0
M  V30 5 C -1.36344 0.0637839 0.39277 0
M  V30 6 C -1.9161 -0.149927 -0.848833 0
M  V30 7 C 0.0393194 0.132096 0.762587 0
M  V30 8 N 0.507213 0.345357 2.00322 0
M  V30 9 N 1.81401 0.349704 1.99989 0
M  V30 10 C 2.24561 0.140086 0.76077 0
M  V30 11 N 1.13045 0.0060238 -0.00100328 0
M  V30 12 N 1.14527 -0.227134 -1.36904 0
M  V30 13 N 3.56964 0.059197 0.257099 0
M  V30 14 H -2.39955 0.393251 2.34841 0
M  V30 15 H -1.39321 -0.306389 -1.77824 0
M  V30 16 H 0.854837 -1.14684 -1.77934 0
M  V30 17 H 1.4553 0.529229 -2.04885 0
M  V30 18 H 4.0387 0.806686 -0.293729 0
M  V30 19 H 4.11815 -0.805591 0.447288 0
M  V30 END ATOM
M  V30 BEGIN BOND
M  V30 1 1 1 2
M  V30 2 1 2 3
M  V30 3 1 3 4
M  V30 4 2 4 5
M  V30 5 1 5 6
M  V30 6 1 5 7
M  V30 7 2 7 8
M  V30 8 1 8 9
M  V30 9 2 9 10
M  V30 10 1 10 11
M  V30 11 1 11 12
M  V30 12 1 10 13
M  V30 13 2 6 2
M  V30 14 1 11 7
M  V30 15 1 4 14
M  V30 16 1 6 15
M  V30 17 1 12 16
M  V30 18 1 12 17
M  V30 19 1 13 18
M  V30 20 1 13 19
M  V30 END BOND
M  V30 END CTAB
M  END
