
     RDKit          3D

  0  0  0  0  0  0  0  0  0  0999 V3000
M  V30 BEGIN CTAB
M  V30 COUNTS 21 21 0 0 0
M  V30 BEGIN ATOM
M  V30 1 C 4.12623 0.449882 0.0363452 0
M  V30 2 O 2.71509 0.427351 -0.0429396 0
M  V30 3 C 1.91143 -0.50733 0.5572 0
M  V30 4 O 2.45163 -1.41839 1.23133 0
M  V30 5 C 0.455398 -0.5016 0.455107 0
M  V30 6 C -0.299012 -1.47414 1.08508 0
M  V30 7 N -1.64581 -1.47914 0.997849 0
M  V30 8 C -2.30261 -0.53059 0.289595 0
M  V30 9 N -3.71098 -0.514317 0.183275 0
M  V30 10 C -1.6074 0.469668 -0.363771 0
M  V30 11 N -2.31207 1.46483 -1.10793 0
M  V30 12 C -0.23681 0.453095 -0.259834 0
M  V30 13 H 4.57079 -0.495812 -0.354517 0
M  V30 14 H 4.45167 1.26737 -0.673108 0
M  V30 15 H 4.51006 0.741539 1.01792 0
M  V30 16 H 0.168507 -2.26597 1.67086 0
M  V30 17 H -4.15856 -0.610575 -0.742631 0
M  V30 18 H -4.2775 -0.405672 1.03839 0
M  V30 19 H -2.58123 2.34662 -0.610123 0
M  V30 20 H -2.56942 1.36926 -2.09518 0
M  V30 21 H 0.340608 1.21392 -0.753545 0
M  V30 END ATOM
M  V30 BEGIN BOND
M  V30 1 1 1 2
M  V30 2 1 2 3
M  V30 3 2 3 4
M  V30 4 1 3 5
M  V30 5 2 5 6
M  V30 6 1 6 7
M  V30 7 2 7 8
M  V30 8 1 8 9
M  V30 9 1 8 10
M  V30 10 1 10 11
M  V30 11 2 10 12
M  V30 12 1 12 5
M  V30 13 1 1 13
M  V30 14 1 1 14
M  V30 15 1 1 15
M  V30 16 1 6 16
M  V30 17 1 9 17
M  V30 18 1 9 18
M  V30 19 1 11 19
M  V30 20 1 11 20
M  V30 21 1 12 21
M  V30 END BOND
M  V30 END CTAB
M  END
