
     RDKit          3D

  0  0  0  0  0  0  0  0  0  0999 V3000
M  V30 BEGIN CTAB
M  V30 COUNTS 22 21 0 0 0
M  V30 BEGIN ATOM
M  V30 1 N -0.901938 2.38231 -0.161153 0
M  V30 2 C -1.60281 1.13693 -0.22051 0
M  V30 3 C -0.660713 0.0482323 0.294821 0
M  V30 4 N 0.517667 -0.00316962 -0.53048 0
M  V30 5 C 1.83483 0.0947005 -0.00626206 0
M  V30 6 O 1.95917 0.232038 1.2364 0
M  V30 7 C 3.02083 0.0407135 -0.857831 0
M  V30 8 C -1.46163 -1.25674 0.188122 0
M  V30 9 N -0.644939 -2.33871 0.65558 0
M  V30 10 H -0.539878 2.63005 0.769433 0
M  V30 11 H -1.37134 3.1619 -0.659772 0
M  V30 12 H -1.7895 0.893976 -1.28998 0
M  V30 13 H -2.52691 1.09882 0.375915 0
M  V30 14 H -0.408357 0.169196 1.34595 0
M  V30 15 H 0.379403 -0.117765 -1.5572 0
M  V30 16 H 3.27117 -0.975254 -1.22399 0
M  V30 17 H 2.83985 0.683908 -1.76729 0
M  V30 18 H 3.9116 0.481799 -0.370096 0
M  V30 19 H -2.42348 -1.14901 0.725872 0
M  V30 20 H -1.72767 -1.44284 -0.877521 0
M  V30 21 H -0.96626 -2.59112 1.62649 0
M  V30 22 H -0.709094 -3.17996 0.0630934 0
M  V30 END ATOM
M  V30 BEGIN BOND
M  V30 1 1 1 2
M  V30 2 1 2 3
M  V30 3 1 3 4
M  V30 4 1 4 5
M  V30 5 2 5 6
M  V30 6 1 5 7
M  V30 7 1 3 8
M  V30 8 1 8 9
M  V30 9 1 1 10
M  V30 10 1 1 11
M  V30 11 1 2 12
M  V30 12 1 2 13
M  V30 13 1 3 14
M  V30 14 1 4 15
M  V30 15 1 7 16
M  V30 16 1 7 17
M  V30 17 1 7 18
M  V30 18 1 8 19
M  V30 19 1 8 20
M  V30 20 1 9 21
M  V30 21 1 9 22
M  V30 END BOND
M  V30 END CTAB
M  END
