
     RDKit          3D

  0  0  0  0  0  0  0  0  0  0999 V3000
M  V30 BEGIN CTAB
M  V30 COUNTS 56 60 0 0 0
M  V30 BEGIN ATOM
M  V30 1 N -2.7907 -2.37905 1.57801 0
M  V30 2 C -2.60034 -1.46527 0.843586 0
M  V30 3 C -2.43043 -0.32389 -0.035255 0
M  V30 4 C -3.50582 0.565859 -0.158825 0
M  V30 5 N -3.37098 1.62623 -0.947366 0
M  V30 6 C -2.22196 1.86018 -1.62912 0
M  V30 7 C -1.15408 1.00932 -1.52976 0
M  V30 8 C -1.25392 -0.129624 -0.702359 0
M  V30 9 C -0.168665 -1.0129 -0.592313 0
M  V30 10 C 0.0256969 -2.24378 0.191779 0
M  V30 11 C 1.41267 -2.66616 -0.225984 0
M  V30 12 O 1.94364 -3.72355 0.190864 0
M  V30 13 N 1.98084 -1.73888 -1.10565 0
M  V30 14 C 0.976247 -0.726774 -1.31426 0
M  V30 15 N 1.03529 0.374586 -2.09706 0
M  V30 16 C 0.0173635 1.22963 -2.21734 0
M  V30 17 N 0.0963266 2.38812 -3.04705 0
M  V30 18 C 3.29216 -1.71646 -1.72718 0
M  V30 19 C 4.29204 -1.00642 -0.915187 0
M  V30 20 C 3.98583 -0.435341 0.300192 0
M  V30 21 C 4.95996 0.233909 1.04955 0
M  V30 22 C 6.24943 0.326242 0.568061 0
M  V30 23 C 6.54691 -0.248522 -0.649744 0
M  V30 24 C 5.57939 -0.916705 -1.40046 0
M  V30 25 O 7.22737 0.989671 1.30467 0
M  V30 26 C 6.91401 1.57004 2.54099 0
M  V30 27 N -2.1151 3.0068 -2.46522 0
M  V30 28 N -4.70172 0.291659 0.544275 0
M  V30 29 C -5.58511 -0.79404 0.24449 0
M  V30 30 C -6.36122 -1.23507 1.43589 0
M  V30 31 O -6.65487 -0.256322 2.34747 0
M  V30 32 C -5.50255 0.398966 2.79479 0
M  V30 33 C -5.01029 1.21824 1.63658 0
M  V30 34 H 0.0301556 -2.05597 1.28907 0
M  V30 35 H -0.586729 -3.10641 -0.135544 0
M  V30 36 H 0.4527 3.29058 -2.61269 0
M  V30 37 H -0.157452 2.42503 -4.04125 0
M  V30 38 H 3.2674 -1.23622 -2.72958 0
M  V30 39 H 3.68606 -2.74638 -1.90126 0
M  V30 40 H 2.96591 -0.531968 0.637214 0
M  V30 41 H 4.65473 0.66706 2.00833 0
M  V30 42 H 7.5614 -0.16892 -1.01565 0
M  V30 43 H 5.85385 -1.36223 -2.36666 0
M  V30 44 H 5.9714 2.15688 2.46813 0
M  V30 45 H 6.786 0.813471 3.35362 0
M  V30 46 H 7.69537 2.29507 2.85686 0
M  V30 47 H -2.40307 2.90256 -3.4592 0
M  V30 48 H -1.7759 3.90421 -2.10894 0
M  V30 49 H -5.07133 -1.64308 -0.2462 0
M  V30 50 H -6.35717 -0.383414 -0.482196 0
M  V30 51 H -7.34631 -1.69346 1.13253 0
M  V30 52 H -5.85393 -2.06188 2.00271 0
M  V30 53 H -5.77009 1.03268 3.64249 0
M  V30 54 H -4.72798 -0.312827 3.13396 0
M  V30 55 H -5.82626 1.92272 1.34839 0
M  V30 56 H -4.15619 1.82181 1.93937 0
M  V30 END ATOM
M  V30 BEGIN BOND
M  V30 1 3 1 2
M  V30 2 1 2 3
M  V30 3 2 3 4
M  V30 4 1 4 5
M  V30 5 2 5 6
M  V30 6 1 6 7
M  V30 7 2 7 8
M  V30 8 1 8 9
M  V30 9 1 9 10
M  V30 10 1 10 11
M  V30 11 2 11 12
M  V30 12 1 11 13
M  V30 13 1 13 14
M  V30 14 1 14 15
M  V30 15 2 15 16
M  V30 16 1 16 17
M  V30 17 1 13 18
M  V30 18 1 18 19
M  V30 19 2 19 20
M  V30 20 1 20 21
M  V30 21 2 21 22
M  V30 22 1 22 23
M  V30 23 2 23 24
M  V30 24 1 22 25
M  V30 25 1 25 26
M  V30 26 1 6 27
M  V30 27 1 4 28
M  V30 28 1 28 29
M  V30 29 1 29 30
M  V30 30 1 30 31
M  V30 31 1 31 32
M  V30 32 1 32 33
M  V30 33 1 8 3
M  V30 34 2 14 9
M  V30 35 1 24 19
M  V30 36 1 33 28
M  V30 37 1 16 7
M  V30 38 1 10 34
M  V30 39 1 10 35
M  V30 40 1 17 36
M  V30 41 1 17 37
M  V30 42 1 18 38
M  V30 43 1 18 39
M  V30 44 1 20 40
M  V30 45 1 21 41
M  V30 46 1 23 42
M  V30 47 1 24 43
M  V30 48 1 26 44
M  V30 49 1 26 45
M  V30 50 1 26 46
M  V30 51 1 27 47
M  V30 52 1 27 48
M  V30 53 1 29 49
M  V30 54 1 29 50
M  V30 55 1 30 51
M  V30 56 1 30 52
M  V30 57 1 32 53
M  V30 58 1 32 54
M  V30 59 1 33 55
M  V30 60 1 33 56
M  V30 END BOND
M  V30 END CTAB
M  END
