
     RDKit          3D

  0  0  0  0  0  0  0  0  0  0999 V3000
M  V30 BEGIN CTAB
M  V30 COUNTS 41 41 0 0 0
M  V30 BEGIN ATOM
M  V30 1 N -3.30419 -2.54845 0.353022 0
M  V30 2 C -1.9902 -2.10989 0.698534 0
M  V30 3 C -1.33923 -1.17322 -0.27494 0
M  V30 4 N -0.0363444 -0.852997 0.253092 0
M  V30 5 C 0.908976 -0.0467494 -0.41189 0
M  V30 6 O 0.733237 0.475173 -1.52775 0
M  V30 7 C 2.22516 0.235645 0.212344 0
M  V30 8 C 2.6955 -0.204552 1.43137 0
M  V30 9 O 3.91337 0.267838 1.6205 0
M  V30 10 C 4.28201 1.00301 0.587829 0
M  V30 11 C 3.23419 1.00002 -0.317455 0
M  V30 12 C 5.56497 1.72228 0.379095 0
M  V30 13 N 6.46592 0.81252 -0.295339 0
M  V30 14 C -2.05594 0.0281242 -0.682167 0
M  V30 15 C -2.44724 1.08053 0.261022 0
M  V30 16 C -3.15174 2.20403 -0.565902 0
M  V30 17 C -3.52098 0.68381 1.25173 0
M  V30 18 C -1.10226 -2.00591 -1.55082 0
M  V30 19 H -3.47983 -3.55667 0.54811 0
M  V30 20 H -3.54368 -2.24883 -0.594227 0
M  V30 21 H -1.91306 -1.87366 1.74801 0
M  V30 22 H -1.34846 -3.06143 0.605768 0
M  V30 23 H 0.22749 -1.24534 1.19643 0
M  V30 24 H 2.14178 -0.832441 2.10574 0
M  V30 25 H 3.20604 1.51123 -1.28281 0
M  V30 26 H 5.34032 2.63048 -0.215904 0
M  V30 27 H 5.97294 2.06001 1.35397 0
M  V30 28 H 7.10405 1.34006 -0.930749 0
M  V30 29 H 5.94054 0.141413 -0.904918 0
M  V30 30 H -3.05845 -0.352053 -1.14519 0
M  V30 31 H -1.58517 0.47066 -1.58765 0
M  V30 32 H -1.65187 1.59756 0.789299 0
M  V30 33 H -3.75647 1.71696 -1.35033 0
M  V30 34 H -2.39695 2.8724 -1.00541 0
M  V30 35 H -3.78835 2.79221 0.0939488 0
M  V30 36 H -4.39314 0.198931 0.75187 0
M  V30 37 H -3.1219 0.0558719 2.0382 0
M  V30 38 H -3.9109 1.65577 1.67971 0
M  V30 39 H -0.251965 -2.67645 -1.40448 0
M  V30 40 H -2.00724 -2.49739 -1.9039 0
M  V30 41 H -0.800903 -1.27049 -2.34589 0
M  V30 END ATOM
M  V30 BEGIN BOND
M  V30 1 1 1 2
M  V30 2 1 2 3
M  V30 3 1 3 4
M  V30 4 1 4 5
M  V30 5 2 5 6
M  V30 6 1 5 7
M  V30 7 2 7 8
M  V30 8 1 8 9
M  V30 9 1 9 10
M  V30 10 2 10 11
M  V30 11 1 10 12
M  V30 12 1 12 13
M  V30 13 1 3 14
M  V30 14 1 14 15
M  V30 15 1 15 16
M  V30 16 1 15 17
M  V30 17 1 3 18
M  V30 18 1 11 7
M  V30 19 1 1 19
M  V30 20 1 1 20
M  V30 21 1 2 21
M  V30 22 1 2 22
M  V30 23 1 4 23
M  V30 24 1 8 24
M  V30 25 1 11 25
M  V30 26 1 12 26
M  V30 27 1 12 27
M  V30 28 1 13 28
M  V30 29 1 13 29
M  V30 30 1 14 30
M  V30 31 1 14 31
M  V30 32 1 15 32
M  V30 33 1 16 33
M  V30 34 1 16 34
M  V30 35 1 16 35
M  V30 36 1 17 36
M  V30 37 1 17 37
M  V30 38 1 17 38
M  V30 39 1 18 39
M  V30 40 1 18 40
M  V30 41 1 18 41
M  V30 END BOND
M  V30 END CTAB
M  END
