
     RDKit          3D

  0  0  0  0  0  0  0  0  0  0999 V3000
M  V30 BEGIN CTAB
M  V30 COUNTS 48 51 0 0 0
M  V30 BEGIN ATOM
M  V30 1 N -6.57061 2.29046 0.611788 0
M  V30 2 C -6.30607 0.97267 0.0508973 0
M  V30 3 C -5.30134 1.04898 -1.07835 0
M  V30 4 C -4.20186 0.923044 -0.0243427 0
M  V30 5 C -5.2462 0.273482 0.878844 0
M  V30 6 C -3.12844 -0.00688616 -0.364732 0
M  V30 7 C -1.76704 0.263202 -0.178936 0
M  V30 8 C -0.807704 -0.650609 -0.51841 0
M  V30 9 N -1.18956 -1.82002 -1.03647 0
M  V30 10 C -2.49651 -2.13055 -1.23669 0
M  V30 11 N -3.42255 -1.20668 -0.891191 0
M  V30 12 N -2.8481 -3.38622 -1.79013 0
M  V30 13 N 0.566514 -0.394805 -0.337893 0
M  V30 14 C 0.963225 0.865333 0.232076 0
M  V30 15 C 2.36513 0.926437 0.727257 0
M  V30 16 N 3.30216 0.167228 -0.0787246 0
M  V30 17 C 2.7578 -0.512895 -1.231 0
M  V30 18 C 1.59857 -1.3652 -0.711112 0
M  V30 19 C 4.67419 0.101381 0.25351 0
M  V30 20 C 5.25376 -1.12441 0.539566 0
M  V30 21 C 6.58759 -1.21555 0.867238 0
M  V30 22 C 7.38155 -0.0697306 0.916926 0
M  V30 23 C 6.80143 1.15992 0.63025 0
M  V30 24 C 5.46332 1.23144 0.303906 0
M  V30 25 F 4.96628 2.45827 0.0357477 0
M  V30 26 H -6.60529 2.23193 1.67337 0
M  V30 27 H -5.81004 2.96833 0.383995 0
M  V30 28 H -7.20757 0.379278 -0.167099 0
M  V30 29 H -5.32277 0.213086 -1.77915 0
M  V30 30 H -5.23273 2.06005 -1.53665 0
M  V30 31 H -3.91523 1.88925 0.403771 0
M  V30 32 H -5.19573 0.574009 1.93801 0
M  V30 33 H -5.22341 -0.834003 0.74456 0
M  V30 34 H -1.53262 1.22091 0.24097 0
M  V30 35 H -3.38798 -3.45283 -2.65241 0
M  V30 36 H -2.54209 -4.24316 -1.2954 0
M  V30 37 H 0.29521 1.05797 1.12294 0
M  V30 38 H 0.74898 1.65082 -0.519792 0
M  V30 39 H 2.63765 2.01869 0.770616 0
M  V30 40 H 2.38032 0.483056 1.75267 0
M  V30 41 H 2.31428 0.259419 -1.89431 0
M  V30 42 H 3.47852 -1.08132 -1.80568 0
M  V30 43 H 1.22677 -2.06757 -1.46204 0
M  V30 44 H 1.94441 -1.84416 0.228757 0
M  V30 45 H 4.64122 -1.99796 0.499962 0
M  V30 46 H 7.02932 -2.17622 1.08846 0
M  V30 47 H 8.42886 -0.128559 1.17267 0
M  V30 48 H 7.45439 2.0207 0.681029 0
M  V30 END ATOM
M  V30 BEGIN BOND
M  V30 1 1 1 2
M  V30 2 1 2 3
M  V30 3 1 3 4
M  V30 4 1 4 5
M  V30 5 1 4 6
M  V30 6 2 6 7
M  V30 7 1 7 8
M  V30 8 2 8 9
M  V30 9 1 9 10
M  V30 10 2 10 11
M  V30 11 1 10 12
M  V30 12 1 8 13
M  V30 13 1 13 14
M  V30 14 1 14 15
M  V30 15 1 15 16
M  V30 16 1 16 17
M  V30 17 1 17 18
M  V30 18 1 16 19
M  V30 19 2 19 20
M  V30 20 1 20 21
M  V30 21 2 21 22
M  V30 22 1 22 23
M  V30 23 2 23 24
M  V30 24 1 24 25
M  V30 25 1 5 2
M  V30 26 1 11 6
M  V30 27 1 18 13
M  V30 28 1 24 19
M  V30 29 1 1 26
M  V30 30 1 1 27
M  V30 31 1 2 28
M  V30 32 1 3 29
M  V30 33 1 3 30
M  V30 34 1 4 31
M  V30 35 1 5 32
M  V30 36 1 5 33
M  V30 37 1 7 34
M  V30 38 1 12 35
M  V30 39 1 12 36
M  V30 40 1 14 37
M  V30 41 1 14 38
M  V30 42 1 15 39
M  V30 43 1 15 40
M  V30 44 1 17 41
M  V30 45 1 17 42
M  V30 46 1 18 43
M  V30 47 1 18 44
M  V30 48 1 20 45
M  V30 49 1 21 46
M  V30 50 1 22 47
M  V30 51 1 23 48
M  V30 END BOND
M  V30 END CTAB
M  END
