
     RDKit          3D

  0  0  0  0  0  0  0  0  0  0999 V3000
M  V30 BEGIN CTAB
M  V30 COUNTS 43 45 0 0 0
M  V30 BEGIN ATOM
M  V30 1 N 3.33834 -0.364606 2.77619 0
M  V30 2 C 2.172 -0.213188 1.88906 0
M  V30 3 C 2.14303 1.17004 1.37723 0
M  V30 4 C 1.50002 1.38046 0.0562699 0
M  V30 5 C 2.60257 1.74461 -0.939308 0
M  V30 6 C 2.83211 0.681797 -1.95994 0
M  V30 7 C 2.82286 -0.712298 -1.42412 0
M  V30 8 C 1.6875 -0.981914 -0.461948 0
M  V30 9 C 2.25237 -1.29434 0.874237 0
M  V30 10 C 0.775121 0.204819 -0.501601 0
M  V30 11 N -0.525473 -0.024056 0.0668151 0
M  V30 12 C -1.73224 0.0317277 -0.655659 0
M  V30 13 O -1.68603 0.297658 -1.87942 0
M  V30 14 C -3.01845 -0.206619 -0.0354574 0
M  V30 15 C -3.19203 -0.505415 1.29926 0
M  V30 16 C -4.4399 -0.725363 1.85109 0
M  V30 17 C -5.58638 -0.656722 1.08826 0
M  V30 18 C -5.43511 -0.360385 -0.243525 0
M  V30 19 C -4.1949 -0.142339 -0.789367 0
M  V30 20 N -4.03097 0.167385 -2.17896 0
M  V30 21 H 4.09503 0.267349 2.49137 0
M  V30 22 H 3.6907 -1.33451 2.78719 0
M  V30 23 H 1.29478 -0.363364 2.58714 0
M  V30 24 H 3.1936 1.58628 1.41077 0
M  V30 25 H 1.59055 1.81915 2.11988 0
M  V30 26 H 0.775082 2.24395 0.0539025 0
M  V30 27 H 3.57602 1.92563 -0.416557 0
M  V30 28 H 2.37553 2.69602 -1.46728 0
M  V30 29 H 3.86491 0.857166 -2.38288 0
M  V30 30 H 2.15844 0.795907 -2.85119 0
M  V30 31 H 3.81708 -0.883186 -0.923933 0
M  V30 32 H 2.81223 -1.41241 -2.28828 0
M  V30 33 H 1.10632 -1.85217 -0.874376 0
M  V30 34 H 1.68094 -2.17808 1.28101 0
M  V30 35 H 3.32067 -1.63588 0.754666 0
M  V30 36 H 0.594885 0.425669 -1.59651 0
M  V30 37 H -0.566573 -0.245424 1.08203 0
M  V30 38 H -2.34901 -0.574721 1.94949 0
M  V30 39 H -4.51711 -0.956676 2.90673 0
M  V30 40 H -6.54976 -0.833931 1.5493 0
M  V30 41 H -6.31491 -0.301903 -0.855273 0
M  V30 42 H -4.03644 1.11998 -2.56184 0
M  V30 43 H -3.8974 -0.656086 -2.83205 0
M  V30 END ATOM
M  V30 BEGIN BOND
M  V30 1 1 1 2
M  V30 2 1 2 3
M  V30 3 1 3 4
M  V30 4 1 4 5
M  V30 5 1 5 6
M  V30 6 1 6 7
M  V30 7 1 7 8
M  V30 8 1 8 9
M  V30 9 1 8 10
M  V30 10 1 10 11
M  V30 11 1 11 12
M  V30 12 2 12 13
M  V30 13 1 12 14
M  V30 14 2 14 15
M  V30 15 1 15 16
M  V30 16 2 16 17
M  V30 17 1 17 18
M  V30 18 2 18 19
M  V30 19 1 19 20
M  V30 20 1 9 2
M  V30 21 1 19 14
M  V30 22 1 10 4
M  V30 23 1 1 21
M  V30 24 1 1 22
M  V30 25 1 2 23
M  V30 26 1 3 24
M  V30 27 1 3 25
M  V30 28 1 4 26
M  V30 29 1 5 27
M  V30 30 1 5 28
M  V30 31 1 6 29
M  V30 32 1 6 30
M  V30 33 1 7 31
M  V30 34 1 7 32
M  V30 35 1 8 33
M  V30 36 1 9 34
M  V30 37 1 9 35
M  V30 38 1 10 36
M  V30 39 1 11 37
M  V30 40 1 15 38
M  V30 41 1 16 39
M  V30 42 1 17 40
M  V30 43 1 18 41
M  V30 44 1 20 42
M  V30 45 1 20 43
M  V30 END BOND
M  V30 END CTAB
M  END
