
     RDKit          3D

  0  0  0  0  0  0  0  0  0  0999 V3000
M  V30 BEGIN CTAB
M  V30 COUNTS 27 28 0 0 0
M  V30 BEGIN ATOM
M  V30 1 C 2.29071 0.875981 1.18454 0
M  V30 2 C 1.85728 0.551873 -0.22041 0
M  V30 3 C 2.99017 0.05907 -1.0824 0
M  V30 4 O 2.47608 -0.818204 -2.00549 0
M  V30 5 C 1.19298 -1.14451 -1.6604 0
M  V30 6 C 0.967022 -0.659427 -0.232594 0
M  V30 7 C -0.462411 -0.333026 -0.0324036 0
M  V30 8 N -1.09528 -0.956644 0.975391 0
M  V30 9 C -2.40625 -0.743345 1.26196 0
M  V30 10 N -3.06269 -1.40663 2.32692 0
M  V30 11 N -3.05069 0.136795 0.475096 0
M  V30 12 C -2.46409 0.790825 -0.549966 0
M  V30 13 N -1.14768 0.521687 -0.771963 0
M  V30 14 N -3.16545 1.71114 -1.36143 0
M  V30 15 H 1.37113 1.13548 1.74996 0
M  V30 16 H 2.93947 1.77534 1.16905 0
M  V30 17 H 2.84798 0.0455628 1.64078 0
M  V30 18 H 1.41351 1.43465 -0.688395 0
M  V30 19 H 3.67395 -0.515226 -0.414918 0
M  V30 20 H 3.50762 0.872655 -1.61702 0
M  V30 21 H 0.943124 -2.21311 -1.77961 0
M  V30 22 H 0.491696 -0.521964 -2.28924 0
M  V30 23 H 1.35212 -1.3887 0.481436 0
M  V30 24 H -2.53041 -1.71571 3.15966 0
M  V30 25 H -4.07852 -1.58399 2.27434 0
M  V30 26 H -3.84646 1.35898 -2.05737 0
M  V30 27 H -3.00492 2.73044 -1.26651 0
M  V30 END ATOM
M  V30 BEGIN BOND
M  V30 1 1 1 2
M  V30 2 1 2 3
M  V30 3 1 3 4
M  V30 4 1 4 5
M  V30 5 1 5 6
M  V30 6 1 6 7
M  V30 7 2 7 8
M  V30 8 1 8 9
M  V30 9 1 9 10
M  V30 10 2 9 11
M  V30 11 1 11 12
M  V30 12 2 12 13
M  V30 13 1 12 14
M  V30 14 1 6 2
M  V30 15 1 13 7
M  V30 16 1 1 15
M  V30 17 1 1 16
M  V30 18 1 1 17
M  V30 19 1 2 18
M  V30 20 1 3 19
M  V30 21 1 3 20
M  V30 22 1 5 21
M  V30 23 1 5 22
M  V30 24 1 6 23
M  V30 25 1 10 24
M  V30 26 1 10 25
M  V30 27 1 14 26
M  V30 28 1 14 27
M  V30 END BOND
M  V30 END CTAB
M  END
