
     RDKit          3D

  0  0  0  0  0  0  0  0  0  0999 V3000
M  V30 BEGIN CTAB
M  V30 COUNTS 53 54 0 0 0
M  V30 BEGIN ATOM
M  V30 1 N -6.17899 -0.269541 -1.19581 0
M  V30 2 C -6.36227 0.927352 -0.459389 0
M  V30 3 N -7.5184 1.16173 0.281239 0
M  V30 4 C -7.5357 2.37417 0.990064 0
M  V30 5 N -8.72308 2.62892 1.75691 0
M  V30 6 C -6.56415 3.2183 0.961707 0
M  V30 7 Cl -6.4814 4.71329 1.97857 0
M  V30 8 N -5.36 3.01344 0.247876 0
M  V30 9 C -5.37826 1.88165 -0.401316 0
M  V30 10 C -4.30992 1.74316 -1.80695 0
M  V30 11 O -4.74063 1.47348 -2.22777 0
M  V30 12 N -3.16124 2.45224 -0.748488 0
M  V30 13 C -2.27155 3.09033 -0.402951 0
M  V30 14 N -1.33804 3.73694 0.0438525 0
M  V30 15 N -1.80489 1.92452 0.968632 0
M  V30 16 C -0.708498 1.22404 0.521763 0
M  V30 17 C 0.627676 1.91192 0.388766 0
M  V30 18 C 1.67251 0.884006 -0.117136 0
M  V30 19 C 1.92258 -0.19324 0.858572 0
M  V30 20 C 2.81048 -1.21125 0.169323 0
M  V30 21 C 2.16036 -1.90716 -0.817795 0
M  V30 22 C 2.86251 -2.92595 -1.49134 0
M  V30 23 C 4.15932 -3.08347 -1.0359 0
M  V30 24 C 4.80582 -2.46071 -0.119316 0
M  V30 25 O 6.13428 -2.65658 0.31624 0
M  V30 26 C 6.82382 -3.71597 -0.403167 0
M  V30 27 C 8.271 -3.66091 -0.0376845 0
M  V30 28 O 8.9729 -4.68656 -0.74793 0
M  V30 29 C 4.0981 -1.38581 0.600949 0
M  V30 30 H -5.15592 -0.545858 -1.25048 0
M  V30 31 H -6.90194 -0.777527 -1.63353 0
M  V30 32 H -9.23742 3.52956 1.62252 0
M  V30 33 H -9.01861 1.92981 2.42004 0
M  V30 34 H -3.50573 1.60567 0.0408791 0
M  V30 35 H -0.896794 3.85637 0.921755 0
M  V30 36 H -2.40747 2.08514 1.63181 0
M  V30 37 H -0.418052 0.395813 1.33185 0
M  V30 38 H -0.848439 0.566931 -0.343678 0
M  V30 39 H 0.662874 2.79533 -0.274619 0
M  V30 40 H 1.08942 2.16932 1.40816 0
M  V30 41 H 2.58912 1.4036 -0.403954 0
M  V30 42 H 1.27666 0.471024 -1.0861 0
M  V30 43 H 2.55837 0.290023 1.70781 0
M  V30 44 H 1.07898 -0.747968 1.28297 0
M  V30 45 H 1.18221 -1.80837 -1.09229 0
M  V30 46 H 2.46576 -3.48373 -2.28189 0
M  V30 47 H 4.76143 -3.83174 -1.64713 0
M  V30 48 H 6.67421 -3.70355 -1.45237 0
M  V30 49 H 6.38385 -4.71499 -0.0170395 0
M  V30 50 H 8.44851 -3.84767 1.02186 0
M  V30 51 H 8.60182 -2.65866 -0.316448 0
M  V30 52 H 9.13537 -4.29161 -1.66095 0
M  V30 53 H 4.59744 -0.889228 1.34467 0
M  V30 END ATOM
M  V30 BEGIN BOND
M  V30 1 1 1 2
M  V30 2 2 2 3
M  V30 3 1 3 4
M  V30 4 1 4 5
M  V30 5 2 4 6
M  V30 6 1 6 7
M  V30 7 1 6 8
M  V30 8 2 8 9
M  V30 9 1 9 10
M  V30 10 2 10 11
M  V30 11 1 10 12
M  V30 12 1 12 13
M  V30 13 2 13 14 CFG=2
M  V30 14 1 13 15
M  V30 15 1 15 16
M  V30 16 1 16 17
M  V30 17 1 17 18
M  V30 18 1 18 19
M  V30 19 1 19 20
M  V30 20 2 20 21
M  V30 21 1 21 22
M  V30 22 2 22 23
M  V30 23 1 23 24
M  V30 24 1 24 25
M  V30 25 1 25 26
M  V30 26 1 26 27
M  V30 27 1 27 28
M  V30 28 2 24 29
M  V30 29 1 9 2
M  V30 30 1 29 20
M  V30 31 1 1 30
M  V30 32 1 1 31
M  V30 33 1 5 32
M  V30 34 1 5 33
M  V30 35 1 12 34
M  V30 36 1 14 35
M  V30 37 1 15 36
M  V30 38 1 16 37
M  V30 39 1 16 38
M  V30 40 1 17 39
M  V30 41 1 17 40
M  V30 42 1 18 41
M  V30 43 1 18 42
M  V30 44 1 19 43
M  V30 45 1 19 44
M  V30 46 1 21 45
M  V30 47 1 22 46
M  V30 48 1 23 47
M  V30 49 1 26 48
M  V30 50 1 26 49
M  V30 51 1 27 50
M  V30 52 1 27 51
M  V30 53 1 28 52
M  V30 54 1 29 53
M  V30 END BOND
M  V30 END CTAB
M  END
