
     RDKit          3D

  0  0  0  0  0  0  0  0  0  0999 V3000
M  V30 BEGIN CTAB
M  V30 COUNTS 25 25 0 0 0
M  V30 BEGIN ATOM
M  V30 1 N 3.41389 0.490537 1.07802 0
M  V30 2 C 3.05485 0.274432 -0.275032 0
M  V30 3 N 4.04798 0.529348 -1.27377 0
M  V30 4 N 1.88098 -0.135063 -0.590835 0
M  V30 5 S 0.749761 -0.415257 0.68708 0
M  V30 6 O 0.826238 0.769718 1.59689 0
M  V30 7 O 1.20469 -1.63082 1.4531 0
M  V30 8 C -0.862169 -0.598186 0.0837334 0
M  V30 9 C -1.67085 0.502296 -0.0614493 0
M  V30 10 C -1.27797 1.85695 0.285625 0
M  V30 11 O -1.54552 2.3103 1.56408 0
M  V30 12 O -0.717994 2.58222 -0.553387 0
M  V30 13 C -2.96622 0.354134 -0.559764 0
M  V30 14 Br -4.07677 1.8882 -0.756742 0
M  V30 15 C -3.43982 -0.890445 -0.907026 0
M  V30 16 Br -5.19255 -1.15836 -1.59061 0
M  V30 17 C -2.62307 -2.00429 -0.760241 0
M  V30 18 Br -3.27317 -3.73087 -1.23912 0
M  V30 19 C -1.34414 -1.86722 -0.269765 0
M  V30 20 Br -0.169515 -3.34956 -0.0421019 0
M  V30 21 H 4.02747 1.31731 1.30937 0
M  V30 22 H 3.10814 -0.121228 1.87166 0
M  V30 23 H 4.44223 -0.220619 -1.8822 0
M  V30 24 H 4.41072 1.49549 -1.42115 0
M  V30 25 H -2.00718 1.751 2.25362 0
M  V30 END ATOM
M  V30 BEGIN BOND
M  V30 1 1 1 2
M  V30 2 1 2 3
M  V30 3 2 2 4
M  V30 4 1 4 5
M  V30 5 2 5 6
M  V30 6 2 5 7
M  V30 7 1 5 8
M  V30 8 2 8 9
M  V30 9 1 9 10
M  V30 10 1 10 11
M  V30 11 2 10 12
M  V30 12 1 9 13
M  V30 13 1 13 14
M  V30 14 2 13 15
M  V30 15 1 15 16
M  V30 16 1 15 17
M  V30 17 1 17 18
M  V30 18 2 17 19
M  V30 19 1 19 20
M  V30 20 1 19 8
M  V30 21 1 1 21
M  V30 22 1 1 22
M  V30 23 1 3 23
M  V30 24 1 3 24
M  V30 25 1 11 25
M  V30 END BOND
M  V30 END CTAB
M  END
