
     RDKit          3D

  0  0  0  0  0  0  0  0  0  0999 V3000
M  V30 BEGIN CTAB
M  V30 COUNTS 53 54 0 0 0
M  V30 BEGIN ATOM
M  V30 1 N -8.82225 -2.04668 1.02949 0
M  V30 2 C -8.51379 -0.958484 0.187723 0
M  V30 3 N -9.45747 -0.372738 -0.456611 0
M  V30 4 C -7.1523 -0.473713 0.0234619 0
M  V30 5 C -6.86303 0.590702 -0.801595 0
M  V30 6 C -5.55165 1.04954 -0.95375 0
M  V30 7 C -4.50303 0.454032 -0.284586 0
M  V30 8 O -3.24726 0.960069 -0.484833 0
M  V30 9 C -2.06062 0.478424 0.114074 0
M  V30 10 C -0.941599 1.34983 -0.408225 0
M  V30 11 C 0.408239 0.994958 0.121578 0
M  V30 12 C 0.743492 -0.42007 -0.257961 0
M  V30 13 C 2.1146 -0.827479 0.255388 0
M  V30 14 O 3.11298 -0.00581194 -0.266128 0
M  V30 15 C 4.43714 -0.171792 0.0464864 0
M  V30 16 C 5.39537 0.678666 -0.502995 0
M  V30 17 C 6.73401 0.544226 -0.213736 0
M  V30 18 C 7.18112 -0.456029 0.646342 0
M  V30 19 C 6.22605 -1.28687 1.18063 0
M  V30 20 C 4.86476 -1.16138 0.895408 0
M  V30 21 C 8.6142 -0.583648 0.943271 0
M  V30 22 N 9.55658 0.32049 0.350558 0
M  V30 23 N 9.0813 -1.48208 1.72358 0
M  V30 24 N 5.00563 1.71452 -1.38372 0 CHG=1
M  V30 25 O 5.8442 2.11108 -2.38327 0 CHG=-1
M  V30 26 O 3.90421 2.25132 -1.23732 0
M  V30 27 C -4.78475 -0.608846 0.540441 0
M  V30 28 C -6.08043 -1.05996 0.688966 0
M  V30 29 N -5.30456 2.14736 -1.81359 0 CHG=1
M  V30 30 O -6.08694 2.343 -2.91804 0 CHG=-1
M  V30 31 O -4.37266 2.93285 -1.55983 0
M  V30 32 H -8.73894 -3.01041 0.660392 0
M  V30 33 H -9.12999 -1.90304 2.00798 0
M  V30 34 H -10.4479 -0.656526 -0.393997 0
M  V30 35 H -7.68323 1.05783 -1.32609 0
M  V30 36 H -2.10231 0.437287 1.20013 0
M  V30 37 H -1.95423 -0.575397 -0.279997 0
M  V30 38 H -0.995046 1.27834 -1.52786 0
M  V30 39 H -1.21619 2.41114 -0.184643 0
M  V30 40 H 1.17195 1.68557 -0.28682 0
M  V30 41 H 0.402717 1.14925 1.21761 0
M  V30 42 H -0.0491913 -1.0784 0.177796 0
M  V30 43 H 0.711244 -0.572804 -1.35386 0
M  V30 44 H 2.04243 -0.762114 1.37312 0
M  V30 45 H 2.3339 -1.87007 0.00407205 0
M  V30 46 H 7.49203 1.20586 -0.639742 0
M  V30 47 H 6.52751 -2.08589 1.86018 0
M  V30 48 H 4.13703 -1.8472 1.34457 0
M  V30 49 H 9.31244 1.32091 0.304993 0
M  V30 50 H 10.4775 -0.0174544 -0.0320382 0
M  V30 51 H 8.50097 -2.19072 2.20981 0
M  V30 52 H -3.95701 -1.0729 1.06379 0
M  V30 53 H -6.31718 -1.90877 1.3461 0
M  V30 END ATOM
M  V30 BEGIN BOND
M  V30 1 1 1 2
M  V30 2 2 2 3 CFG=2
M  V30 3 1 2 4
M  V30 4 2 4 5
M  V30 5 1 5 6
M  V30 6 2 6 7
M  V30 7 1 7 8
M  V30 8 1 8 9
M  V30 9 1 9 10
M  V30 10 1 10 11
M  V30 11 1 11 12
M  V30 12 1 12 13
M  V30 13 1 13 14
M  V30 14 1 14 15
M  V30 15 2 15 16
M  V30 16 1 16 17
M  V30 17 2 17 18
M  V30 18 1 18 19
M  V30 19 2 19 20
M  V30 20 1 18 21
M  V30 21 1 21 22
M  V30 22 2 21 23 CFG=2
M  V30 23 1 16 24
M  V30 24 1 24 25
M  V30 25 2 24 26
M  V30 26 1 7 27
M  V30 27 2 27 28
M  V30 28 1 6 29
M  V30 29 1 29 30
M  V30 30 2 29 31
M  V30 31 1 28 4
M  V30 32 1 20 15
M  V30 33 1 1 32
M  V30 34 1 1 33
M  V30 35 1 3 34
M  V30 36 1 5 35
M  V30 37 1 9 36
M  V30 38 1 9 37
M  V30 39 1 10 38
M  V30 40 1 10 39
M  V30 41 1 11 40
M  V30 42 1 11 41
M  V30 43 1 12 42
M  V30 44 1 12 43
M  V30 45 1 13 44
M  V30 46 1 13 45
M  V30 47 1 17 46
M  V30 48 1 19 47
M  V30 49 1 20 48
M  V30 50 1 22 49
M  V30 51 1 22 50
M  V30 52 1 23 51
M  V30 53 1 27 52
M  V30 54 1 28 53
M  V30 END BOND
M  V30 END CTAB
M  END
