
     RDKit          3D

  0  0  0  0  0  0  0  0  0  0999 V3000
M  V30 BEGIN CTAB
M  V30 COUNTS 19 19 0 0 0
M  V30 BEGIN ATOM
M  V30 1 N -2.1196 -1.00838 -0.426961 0
M  V30 2 C -1.00873 -0.545487 0.39872 0
M  V30 3 C -0.905544 0.949457 0.31206 0
M  V30 4 C 0.451086 1.29037 -0.208159 0
M  V30 5 C 1.17373 0.00924713 -0.505053 0
M  V30 6 N 2.45905 -0.0958434 0.114054 0
M  V30 7 C 0.306863 -1.11912 -0.0316182 0
M  V30 8 H -2.88563 -1.4037 0.15606 0
M  V30 9 H -2.55018 -0.179064 -0.926126 0
M  V30 10 H -1.21731 -0.871771 1.44658 0
M  V30 11 H -1.1353 1.38978 1.29849 0
M  V30 12 H -1.68618 1.34673 -0.390569 0
M  V30 13 H 0.373084 1.89566 -1.14345 0
M  V30 14 H 1.05195 1.91893 0.493631 0
M  V30 15 H 1.31534 -0.108846 -1.60905 0
M  V30 16 H 3.02879 0.753724 0.101423 0
M  V30 17 H 2.48924 -0.653831 0.976991 0
M  V30 18 H 0.771107 -1.70696 0.786273 0
M  V30 19 H 0.0882241 -1.86091 -0.843305 0
M  V30 END ATOM
M  V30 BEGIN BOND
M  V30 1 1 1 2
M  V30 2 1 2 3
M  V30 3 1 3 4
M  V30 4 1 4 5
M  V30 5 1 5 6
M  V30 6 1 5 7
M  V30 7 1 7 2
M  V30 8 1 1 8
M  V30 9 1 1 9
M  V30 10 1 2 10
M  V30 11 1 3 11
M  V30 12 1 3 12
M  V30 13 1 4 13
M  V30 14 1 4 14
M  V30 15 1 5 15
M  V30 16 1 6 16
M  V30 17 1 6 17
M  V30 18 1 7 18
M  V30 19 1 7 19
M  V30 END BOND
M  V30 END CTAB
M  END
