
     RDKit          3D

  0  0  0  0  0  0  0  0  0  0999 V3000
M  V30 BEGIN CTAB
M  V30 COUNTS 57 60 0 0 0
M  V30 BEGIN ATOM
M  V30 1 C 1.76312 0.837639 2.85948 0
M  V30 2 C 1.69678 1.51962 1.52484 0
M  V30 3 C 2.70628 0.908517 0.581888 0
M  V30 4 C 3.92497 1.68521 0.900107 0
M  V30 5 N 3.56352 2.77739 1.45888 0
M  V30 6 O 2.18089 2.84678 1.56816 0
M  V30 7 C 5.31965 1.27392 0.622337 0
M  V30 8 C 6.40655 2.033 0.93932 0
M  V30 9 C 7.70154 1.65014 0.680962 0
M  V30 10 C 7.91099 0.44104 0.0723682 0
M  V30 11 C 6.82397 -0.379806 -0.275128 0
M  V30 12 C 5.54654 0.0457183 0.00336936 0
M  V30 13 C 7.16217 -1.63534 -0.913501 0
M  V30 14 N 8.53481 -1.98437 -1.159 0
M  V30 15 N 6.25854 -2.45266 -1.26924 0
M  V30 16 C 0.316081 1.50127 0.951631 0
M  V30 17 O -0.131159 2.6254 0.630757 0
M  V30 18 N -0.396079 0.306642 0.79777 0
M  V30 19 C -1.68824 0.133287 0.282717 0
M  V30 20 C -2.13676 -1.18045 0.100537 0
M  V30 21 C -3.40501 -1.4301 -0.396776 0
M  V30 22 C -4.26343 -0.411523 -0.72729 0
M  V30 23 C -3.82963 0.865949 -0.55204 0
M  V30 24 C -2.55225 1.1375 -0.0503939 0
M  V30 25 C -5.56378 -0.70012 -1.27803 0
M  V30 26 C -6.7416 -0.487771 -0.590727 0
M  V30 27 C -7.98018 -0.75473 -1.18111 0
M  V30 28 C -8.09575 -1.23834 -2.46158 0
M  V30 29 C -6.90901 -1.44879 -3.14133 0
M  V30 30 C -5.6858 -1.19445 -2.58468 0
M  V30 31 S -6.74748 0.0811771 1.04199 0
M  V30 32 N -5.84003 -1.00405 2.03445 0
M  V30 33 O -6.27537 1.45438 1.26211 0
M  V30 34 O -8.17423 0.0243322 1.59592 0
M  V30 35 H 2.63626 0.132647 2.90456 0
M  V30 36 H 0.868983 0.273577 3.12804 0
M  V30 37 H 1.97628 1.60891 3.64192 0
M  V30 38 H 2.36724 1.11115 -0.456796 0
M  V30 39 H 2.85867 -0.174056 0.765927 0
M  V30 40 H 6.25739 2.99261 1.42143 0
M  V30 41 H 8.51814 2.31898 0.967808 0
M  V30 42 H 8.92815 0.141825 -0.129805 0
M  V30 43 H 4.71779 -0.585102 -0.264051 0
M  V30 44 H 8.77675 -2.28577 -2.11629 0
M  V30 45 H 9.18319 -1.90739 -0.353421 0
M  V30 46 H 5.26459 -2.25539 -1.11886 0
M  V30 47 H 0.11823 -0.575867 1.11871 0
M  V30 48 H -1.49546 -2.01952 0.346513 0
M  V30 49 H -3.76117 -2.44679 -0.541293 0
M  V30 50 H -4.44047 1.73324 -0.811768 0
M  V30 51 H -2.28224 2.16182 0.0656741 0
M  V30 52 H -8.90793 -0.586597 -0.639953 0
M  V30 53 H -9.04408 -1.4499 -2.93282 0
M  V30 54 H -6.99043 -1.83625 -4.1669 0
M  V30 55 H -4.75306 -1.35685 -3.11087 0
M  V30 56 H -6.16223 -0.847935 3.02156 0
M  V30 57 H -6.03519 -1.99375 1.71178 0
M  V30 END ATOM
M  V30 BEGIN BOND
M  V30 1 1 1 2
M  V30 2 1 2 3
M  V30 3 1 3 4
M  V30 4 2 4 5
M  V30 5 1 5 6
M  V30 6 1 4 7
M  V30 7 2 7 8
M  V30 8 1 8 9
M  V30 9 2 9 10
M  V30 10 1 10 11
M  V30 11 2 11 12
M  V30 12 1 11 13
M  V30 13 1 13 14
M  V30 14 2 13 15 CFG=2
M  V30 15 1 2 16
M  V30 16 2 16 17
M  V30 17 1 16 18
M  V30 18 1 18 19
M  V30 19 2 19 20
M  V30 20 1 20 21
M  V30 21 2 21 22
M  V30 22 1 22 23
M  V30 23 2 23 24
M  V30 24 1 22 25
M  V30 25 2 25 26
M  V30 26 1 26 27
M  V30 27 2 27 28
M  V30 28 1 28 29
M  V30 29 2 29 30
M  V30 30 1 26 31
M  V30 31 1 31 32
M  V30 32 2 31 33
M  V30 33 2 31 34
M  V30 34 1 6 2
M  V30 35 1 12 7
M  V30 36 1 24 19
M  V30 37 1 30 25
M  V30 38 1 1 35
M  V30 39 1 1 36
M  V30 40 1 1 37
M  V30 41 1 3 38
M  V30 42 1 3 39
M  V30 43 1 8 40
M  V30 44 1 9 41
M  V30 45 1 10 42
M  V30 46 1 12 43
M  V30 47 1 14 44
M  V30 48 1 14 45
M  V30 49 1 15 46
M  V30 50 1 18 47
M  V30 51 1 20 48
M  V30 52 1 21 49
M  V30 53 1 23 50
M  V30 54 1 24 51
M  V30 55 1 27 52
M  V30 56 1 28 53
M  V30 57 1 29 54
M  V30 58 1 30 55
M  V30 59 1 32 56
M  V30 60 1 32 57
M  V30 END BOND
M  V30 END CTAB
M  END
