
     RDKit          3D

  0  0  0  0  0  0  0  0  0  0999 V3000
M  V30 BEGIN CTAB
M  V30 COUNTS 44 46 0 0 0
M  V30 BEGIN ATOM
M  V30 1 C -4.43314 2.83617 0.608593 0
M  V30 2 O -4.35438 2.09653 -0.588867 0
M  V30 3 C -3.881 0.789486 -0.600731 0
M  V30 4 C -2.52428 0.501335 -0.78247 0
M  V30 5 C -2.08534 -0.785024 -0.791319 0
M  V30 6 C -2.98819 -1.84744 -0.616311 0
M  V30 7 C -4.31256 -1.53306 -0.439833 0
M  V30 8 C -4.77287 -0.23356 -0.429364 0
M  V30 9 O -6.14191 0.0532946 -0.245262 0
M  V30 10 C -7.00539 -1.04861 -0.0733359 0
M  V30 11 C -1.65876 1.6794 -0.990709 0
M  V30 12 N -0.284345 1.32324 -1.09779 0
M  V30 13 C 0.466458 0.810425 -0.0131087 0
M  V30 14 O -0.0235078 0.645713 1.09345 0
M  V30 15 C 1.87735 0.471037 -0.243298 0
M  V30 16 S 2.79521 0.607755 -1.67592 0
M  V30 17 C 4.29518 0.0206603 -1.10085 0
M  V30 18 C 4.02579 -0.266406 0.207946 0
M  V30 19 C 2.78242 -0.0356262 0.651842 0
M  V30 20 N 2.34356 -0.292717 2.0241 0
M  V30 21 C 5.12279 -0.779774 0.931108 0
M  V30 22 C 6.34501 -0.963745 0.341195 0
M  V30 23 C 6.57159 -0.659489 -0.985266 0
M  V30 24 N 5.52751 -0.170048 -1.67667 0
M  V30 25 N 7.83628 -0.84906 -1.5996 0
M  V30 26 C 7.44649 -1.49797 1.1344 0
M  V30 27 N 8.31983 -1.90546 1.77498 0
M  V30 28 H -5.44729 3.2592 0.775337 0
M  V30 29 H -4.2488 2.13339 1.45854 0
M  V30 30 H -3.68324 3.65482 0.661726 0
M  V30 31 H -1.05588 -1.02733 -0.950243 0
M  V30 32 H -2.64434 -2.86862 -0.621753 0
M  V30 33 H -5.0522 -2.33348 -0.300295 0
M  V30 34 H -6.98426 -1.67846 -0.986199 0
M  V30 35 H -6.65343 -1.69212 0.775995 0
M  V30 36 H -8.04262 -0.680767 0.140978 0
M  V30 37 H -1.75088 2.37201 -0.122961 0
M  V30 38 H -2.0266 2.24156 -1.89071 0
M  V30 39 H 0.241871 1.4334 -2.02446 0
M  V30 40 H 1.91819 0.436411 2.60155 0
M  V30 41 H 2.48151 -1.25552 2.39535 0
M  V30 42 H 5.0426 -1.04952 1.98293 0
M  V30 43 H 8.57968 -0.125839 -1.67445 0
M  V30 44 H 8.03588 -1.78621 -2.00749 0
M  V30 END ATOM
M  V30 BEGIN BOND
M  V30 1 1 1 2
M  V30 2 1 2 3
M  V30 3 2 3 4
M  V30 4 1 4 5
M  V30 5 2 5 6
M  V30 6 1 6 7
M  V30 7 2 7 8
M  V30 8 1 8 9
M  V30 9 1 9 10
M  V30 10 1 4 11
M  V30 11 1 11 12
M  V30 12 1 12 13
M  V30 13 2 13 14
M  V30 14 1 13 15
M  V30 15 1 15 16
M  V30 16 1 16 17
M  V30 17 2 17 18
M  V30 18 1 18 19
M  V30 19 1 19 20
M  V30 20 1 18 21
M  V30 21 2 21 22
M  V30 22 1 22 23
M  V30 23 2 23 24
M  V30 24 1 23 25
M  V30 25 1 22 26
M  V30 26 3 26 27
M  V30 27 1 8 3
M  V30 28 2 19 15
M  V30 29 1 24 17
M  V30 30 1 1 28
M  V30 31 1 1 29
M  V30 32 1 1 30
M  V30 33 1 5 31
M  V30 34 1 6 32
M  V30 35 1 7 33
M  V30 36 1 10 34
M  V30 37 1 10 35
M  V30 38 1 10 36
M  V30 39 1 11 37
M  V30 40 1 11 38
M  V30 41 1 12 39
M  V30 42 1 20 40
M  V30 43 1 20 41
M  V30 44 1 21 42
M  V30 45 1 25 43
M  V30 46 1 25 44
M  V30 END BOND
M  V30 END CTAB
M  END
