
     RDKit          3D

  0  0  0  0  0  0  0  0  0  0999 V3000
M  V30 BEGIN CTAB
M  V30 COUNTS 18 18 0 0 0
M  V30 BEGIN ATOM
M  V30 1 C -3.48472 0.0027334 0.262408 0
M  V30 2 O -2.50856 -0.922588 -0.156312 0
M  V30 3 C -1.15481 -0.679982 -0.169254 0
M  V30 4 N -0.350732 -1.67452 -0.600606 0
M  V30 5 C 0.98541 -1.55281 -0.657176 0
M  V30 6 C 1.55305 -0.366713 -0.25912 0
M  V30 7 N 2.95982 -0.250636 -0.323171 0
M  V30 8 C 0.747866 0.678421 0.191142 0
M  V30 9 N 1.37829 1.86959 0.586314 0
M  V30 10 N -0.585357 0.475872 0.217412 0
M  V30 11 H -3.08698 0.871335 0.789994 0
M  V30 12 H -4.07384 0.291605 -0.651757 0
M  V30 13 H -4.1962 -0.562261 0.921373 0
M  V30 14 H 1.56128 -2.39772 -1.01546 0
M  V30 15 H 3.46427 0.000406287 -1.20146 0
M  V30 16 H 3.53589 -0.418076 0.528641 0
M  V30 17 H 1.49239 2.70701 -0.0388574 0
M  V30 18 H 1.76292 1.92831 1.57588 0
M  V30 END ATOM
M  V30 BEGIN BOND
M  V30 1 1 1 2
M  V30 2 1 2 3
M  V30 3 2 3 4
M  V30 4 1 4 5
M  V30 5 2 5 6
M  V30 6 1 6 7
M  V30 7 1 6 8
M  V30 8 1 8 9
M  V30 9 2 8 10
M  V30 10 1 10 3
M  V30 11 1 1 11
M  V30 12 1 1 12
M  V30 13 1 1 13
M  V30 14 1 5 14
M  V30 15 1 7 15
M  V30 16 1 7 16
M  V30 17 1 9 17
M  V30 18 1 9 18
M  V30 END BOND
M  V30 END CTAB
M  END
