
     RDKit          3D

  0  0  0  0  0  0  0  0  0  0999 V3000
M  V30 BEGIN CTAB
M  V30 COUNTS 19 19 0 0 0
M  V30 BEGIN ATOM
M  V30 1 N 2.43969 0.212216 -0.618467 0
M  V30 2 C 1.64635 -0.456069 0.413468 0
M  V30 3 C 0.18436 -0.347291 0.191162 0
M  V30 4 C -0.60133 -1.47542 0.268773 0
M  V30 5 C -1.97259 -1.39405 0.146898 0
M  V30 6 F -2.7237 -2.54195 0.241148 0
M  V30 7 C -2.60605 -0.165941 -0.0654045 0
M  V30 8 C -1.79464 0.950424 -0.141271 0
M  V30 9 C -0.410656 0.878947 -0.0187577 0
M  V30 10 N 0.456605 1.97106 -0.129432 0
M  V30 11 H 2.72549 -0.424339 -1.39931 0
M  V30 12 H 3.29894 0.554407 -0.102438 0
M  V30 13 H 1.88193 -1.57927 0.223349 0
M  V30 14 H 1.96787 -0.28378 1.43377 0
M  V30 15 H -0.135546 -2.4763 0.421141 0
M  V30 16 H -3.67963 -0.123597 -0.158329 0
M  V30 17 H -2.22098 1.92075 -0.288148 0
M  V30 18 H 0.388076 2.54971 -0.993848 0
M  V30 19 H 1.1558 2.23049 0.575694 0
M  V30 END ATOM
M  V30 BEGIN BOND
M  V30 1 1 1 2
M  V30 2 1 2 3
M  V30 3 2 3 4
M  V30 4 1 4 5
M  V30 5 1 5 6
M  V30 6 2 5 7
M  V30 7 1 7 8
M  V30 8 2 8 9
M  V30 9 1 9 10
M  V30 10 1 9 3
M  V30 11 1 1 11
M  V30 12 1 1 12
M  V30 13 1 2 13
M  V30 14 1 2 14
M  V30 15 1 4 15
M  V30 16 1 7 16
M  V30 17 1 8 17
M  V30 18 1 10 18
M  V30 19 1 10 19
M  V30 END BOND
M  V30 END CTAB
M  END
