
     RDKit          3D

  0  0  0  0  0  0  0  0  0  0999 V3000
M  V30 BEGIN CTAB
M  V30 COUNTS 26 27 0 0 0
M  V30 BEGIN ATOM
M  V30 1 N -4.88858 0.206883 -0.24362 0
M  V30 2 C -3.46704 0.169802 -0.204433 0
M  V30 3 C -2.71253 1.29 0.155346 0
M  V30 4 C -1.33764 1.23011 0.186111 0
M  V30 5 F -0.612295 2.34639 0.543691 0
M  V30 6 C -0.727234 0.0437018 -0.145134 0
M  V30 7 C -1.43086 -1.08348 -0.505189 0
M  V30 8 F -0.79088 -2.2615 -0.832896 0
M  V30 9 C -2.80555 -0.99555 -0.52761 0
M  V30 10 C 0.711473 -0.0282753 -0.115689 0
M  V30 11 C 1.32636 -0.406239 1.05859 0
M  V30 12 F 0.62741 -0.715095 2.1946 0
M  V30 13 C 2.70313 -0.47163 1.07512 0
M  V30 14 C 3.4742 -0.16871 -0.0516695 0
M  V30 15 N 4.8896 -0.240521 -0.019324 0
M  V30 16 C 2.80439 0.204962 -1.20352 0
M  V30 17 C 1.42869 0.279829 -1.25191 0
M  V30 18 F 0.825884 0.656718 -2.42438 0
M  V30 19 H -5.36787 1.12303 -0.393552 0
M  V30 20 H -5.44223 -0.661401 -0.125333 0
M  V30 21 H -3.21876 2.20021 0.408138 0
M  V30 22 H -3.36721 -1.87102 -0.807797 0
M  V30 23 H 3.20568 -0.765401 1.98421 0
M  V30 24 H 5.41375 -0.215712 0.868629 0
M  V30 25 H 5.39187 -0.319746 -0.923632 0
M  V30 26 H 3.36625 0.452639 -2.11473 0
M  V30 END ATOM
M  V30 BEGIN BOND
M  V30 1 1 1 2
M  V30 2 2 2 3
M  V30 3 1 3 4
M  V30 4 1 4 5
M  V30 5 2 4 6
M  V30 6 1 6 7
M  V30 7 1 7 8
M  V30 8 2 7 9
M  V30 9 1 6 10
M  V30 10 2 10 11
M  V30 11 1 11 12
M  V30 12 1 11 13
M  V30 13 2 13 14
M  V30 14 1 14 15
M  V30 15 1 14 16
M  V30 16 2 16 17
M  V30 17 1 17 18
M  V30 18 1 9 2
M  V30 19 1 17 10
M  V30 20 1 1 19
M  V30 21 1 1 20
M  V30 22 1 3 21
M  V30 23 1 9 22
M  V30 24 1 13 23
M  V30 25 1 15 24
M  V30 26 1 15 25
M  V30 27 1 16 26
M  V30 END BOND
M  V30 END CTAB
M  END
