
     RDKit          3D

  0  0  0  0  0  0  0  0  0  0999 V3000
M  V30 BEGIN CTAB
M  V30 COUNTS 59 61 0 0 0
M  V30 BEGIN ATOM
M  V30 1 C 10.1623 -0.767014 1.29892 0
M  V30 2 C 9.87413 0.537773 0.604167 0
M  V30 3 C 9.07754 0.193347 -0.643248 0
M  V30 4 O 7.95504 -0.48429 -0.262935 0
M  V30 5 N 6.93825 -1.03863 -0.741129 0
M  V30 6 C 5.89905 -1.38528 -1.13419 0
M  V30 7 N 5.55496 -2.62523 -1.70853 0
M  V30 8 C 4.65161 -0.501702 -0.920739 0
M  V30 9 C 4.80684 0.66827 -0.2432 0
M  V30 10 C 3.66788 1.38921 0.2004 0
M  V30 11 C 2.44328 0.926364 -0.0397403 0
M  V30 12 C 2.29623 -0.260139 -0.73135 0
M  V30 13 C 3.3996 -0.942035 -1.16211 0
M  V30 14 C 1.19322 1.52096 0.555379 0
M  V30 15 C 1.10764 2.5319 1.45249 0
M  V30 16 C -0.242483 2.6847 1.6896 0
M  V30 17 C -0.94167 1.77517 0.93564 0
M  V30 18 O 0.0344056 1.10888 0.270864 0
M  V30 19 C -2.32749 1.45623 0.789261 0
M  V30 20 C -3.19328 2.52802 0.630441 0
M  V30 21 C -4.53108 2.30255 0.413724 0
M  V30 22 C -4.95091 0.988003 0.376048 0
M  V30 23 C -4.16072 -0.0731556 0.54097 0
M  V30 24 C -2.81508 0.179145 0.746603 0
M  V30 25 C -6.35439 0.8095 -0.0993266 0
M  V30 26 N -6.76698 1.81743 -1.01585 0
M  V30 27 N -6.94088 -0.15692 0.283532 0
M  V30 28 O -7.43637 -1.21072 0.759127 0
M  V30 29 C -8.04555 -2.17093 -0.193038 0
M  V30 30 C -9.47964 -2.12514 0.45751 0
M  V30 31 C -10.435 -2.84463 -0.397855 0
M  V30 32 H 11.1482 -0.78696 1.77763 0
M  V30 33 H 10.024 -1.59191 0.54376 0
M  V30 34 H 9.34391 -0.926299 2.08523 0
M  V30 35 H 9.28399 1.2002 1.26269 0
M  V30 36 H 10.817 1.09867 0.405172 0
M  V30 37 H 9.72375 -0.27557 -1.3881 0
M  V30 38 H 8.74366 1.20792 -1.05631 0
M  V30 39 H 5.96345 -3.11938 -2.48542 0
M  V30 40 H 4.70323 -3.16281 -1.21927 0
M  V30 41 H 5.77803 1.10532 -0.0126754 0
M  V30 42 H 3.76285 2.36416 0.724727 0
M  V30 43 H 1.27587 -0.60211 -0.90955 0
M  V30 44 H 3.22867 -1.86482 -1.70909 0
M  V30 45 H 1.92442 3.06886 1.95693 0
M  V30 46 H -0.741211 3.41914 2.34179 0
M  V30 47 H -2.85679 3.5686 0.635955 0
M  V30 48 H -5.25761 3.12393 0.283364 0
M  V30 49 H -4.61975 -1.05532 0.551994 0
M  V30 50 H -2.13743 -0.675352 0.907429 0
M  V30 51 H -6.13424 1.99001 -1.86013 0
M  V30 52 H -7.59899 2.37522 -1.0082 0
M  V30 53 H -7.64284 -3.19587 0.044353 0
M  V30 54 H -8.05503 -1.82574 -1.17093 0
M  V30 55 H -9.44736 -2.34064 1.51931 0
M  V30 56 H -9.67538 -0.985153 0.406649 0
M  V30 57 H -10.1287 -3.89254 -0.5211 0
M  V30 58 H -10.3785 -2.34566 -1.43017 0
M  V30 59 H -11.4877 -2.70751 -0.0307374 0
M  V30 END ATOM
M  V30 BEGIN BOND
M  V30 1 1 1 2
M  V30 2 1 2 3
M  V30 3 1 3 4
M  V30 4 1 4 5
M  V30 5 2 5 6 CFG=2
M  V30 6 1 6 7
M  V30 7 1 6 8
M  V30 8 2 8 9
M  V30 9 1 9 10
M  V30 10 2 10 11
M  V30 11 1 11 12
M  V30 12 2 12 13
M  V30 13 1 11 14
M  V30 14 2 14 15
M  V30 15 1 15 16
M  V30 16 2 16 17
M  V30 17 1 17 18
M  V30 18 1 17 19
M  V30 19 2 19 20
M  V30 20 1 20 21
M  V30 21 2 21 22
M  V30 22 1 22 23
M  V30 23 2 23 24
M  V30 24 1 22 25
M  V30 25 1 25 26
M  V30 26 2 25 27 CFG=2
M  V30 27 1 27 28
M  V30 28 1 28 29
M  V30 29 1 29 30
M  V30 30 1 30 31
M  V30 31 1 13 8
M  V30 32 1 18 14
M  V30 33 1 24 19
M  V30 34 1 1 32
M  V30 35 1 1 33
M  V30 36 1 1 34
M  V30 37 1 2 35
M  V30 38 1 2 36
M  V30 39 1 3 37
M  V30 40 1 3 38
M  V30 41 1 7 39
M  V30 42 1 7 40
M  V30 43 1 9 41
M  V30 44 1 10 42
M  V30 45 1 12 43
M  V30 46 1 13 44
M  V30 47 1 15 45
M  V30 48 1 16 46
M  V30 49 1 20 47
M  V30 50 1 21 48
M  V30 51 1 23 49
M  V30 52 1 24 50
M  V30 53 1 26 51
M  V30 54 1 26 52
M  V30 55 1 29 53
M  V30 56 1 29 54
M  V30 57 1 30 55
M  V30 58 1 30 56
M  V30 59 1 31 57
M  V30 60 1 31 58
M  V30 61 1 31 59
M  V30 END BOND
M  V30 END CTAB
M  END
