
     RDKit          3D

  0  0  0  0  0  0  0  0  0  0999 V3000
M  V30 BEGIN CTAB
M  V30 COUNTS 23 23 0 0 0
M  V30 BEGIN ATOM
M  V30 1 C -2.47603 -1.26315 0.181143 0
M  V30 2 C -2.59713 0.210364 -0.0667431 0
M  V30 3 C -1.41826 0.985307 0.458251 0
M  V30 4 C -0.15183 0.546893 -0.179212 0
M  V30 5 N 0.252248 0.806787 -1.43405 0
M  V30 6 O 1.42161 0.250056 -1.62306 0
M  V30 7 C 1.81997 -0.373548 -0.54616 0
M  V30 8 N 0.839919 -0.190772 0.358741 0
M  V30 9 C 3.10744 -1.10677 -0.438027 0
M  V30 10 N 4.17659 -0.229785 0.0306843 0
M  V30 11 N -1.67051 2.40153 0.158754 0
M  V30 12 H -3.49706 -1.67681 0.342354 0
M  V30 13 H -1.89354 -1.39494 1.12826 0
M  V30 14 H -2.03202 -1.80455 -0.67009 0
M  V30 15 H -3.49309 0.573183 0.488221 0
M  V30 16 H -2.81128 0.442174 -1.14196 0
M  V30 17 H -1.40383 0.891032 1.54897 0
M  V30 18 H 3.40775 -1.55043 -1.40953 0
M  V30 19 H 3.01038 -1.90557 0.331813 0
M  V30 20 H 4.3499 -0.3192 1.04812 0
M  V30 21 H 5.05441 -0.412731 -0.529345 0
M  V30 22 H -2.70834 2.56355 0.0930631 0
M  V30 23 H -1.28728 2.55738 -0.800666 0
M  V30 END ATOM
M  V30 BEGIN BOND
M  V30 1 1 1 2
M  V30 2 1 2 3
M  V30 3 1 3 4
M  V30 4 2 4 5
M  V30 5 1 5 6
M  V30 6 1 6 7
M  V30 7 2 7 8
M  V30 8 1 7 9
M  V30 9 1 9 10
M  V30 10 1 3 11
M  V30 11 1 8 4
M  V30 12 1 1 12
M  V30 13 1 1 13
M  V30 14 1 1 14
M  V30 15 1 2 15
M  V30 16 1 2 16
M  V30 17 1 3 17
M  V30 18 1 9 18
M  V30 19 1 9 19
M  V30 20 1 10 20
M  V30 21 1 10 21
M  V30 22 1 11 22
M  V30 23 1 11 23
M  V30 END BOND
M  V30 END CTAB
M  END
