
     RDKit          3D

  0  0  0  0  0  0  0  0  0  0999 V3000
M  V30 BEGIN CTAB
M  V30 COUNTS 52 54 0 0 0
M  V30 BEGIN ATOM
M  V30 1 N 5.92319 -0.31342 -1.36632 0
M  V30 2 C 6.33938 0.799188 -0.685438 0
M  V30 3 C 5.30885 1.75952 -0.217946 0
M  V30 4 C 4.29007 1.26178 0.732736 0
M  V30 5 C 3.42271 0.141738 0.276088 0
M  V30 6 C 2.45771 -0.151105 1.44743 0 CFG=1
M  V30 7 C 1.59026 -1.26535 1.00667 0
M  V30 8 O 1.80887 -2.42548 1.45593 0
M  V30 9 N 0.535025 -0.996976 0.0931463 0
M  V30 10 C 0.16642 0.270082 -0.495714 0
M  V30 11 C -1.33388 0.0499904 -0.857062 0 CFG=1
M  V30 12 C -1.21594 -1.35416 -1.39476 0 CFG=1
M  V30 13 C -0.367662 -2.02945 -0.375819 0
M  V30 14 O -2.39244 -1.96511 -1.71727 0
M  V30 15 C -2.06635 0.198225 0.422941 0
M  V30 16 C -3.51414 0.0440934 0.389809 0
M  V30 17 C -4.16353 -1.13532 0.636466 0
M  V30 18 C -5.53888 -1.17973 0.573853 0
M  V30 19 C -6.25569 -0.0464785 0.265692 0
M  V30 20 N -5.62089 1.10088 0.026099 0
M  V30 21 C -4.28711 1.1677 0.0810603 0
M  V30 22 C -6.56713 2.00688 -0.240061 0
M  V30 23 C -7.81479 1.42174 -0.166999 0
M  V30 24 N -7.58593 0.129995 0.152916 0
M  V30 25 N 3.26676 -0.619858 2.57617 0
M  V30 26 H 5.41673 -0.222561 -2.2031 0
M  V30 27 H 6.08344 -1.20795 -1.02184 0
M  V30 28 H 7.02936 1.38994 -1.36131 0
M  V30 29 H 6.99491 0.492153 0.161942 0
M  V30 30 H 5.86935 2.59064 0.309307 0
M  V30 31 H 4.8123 2.27028 -1.0735 0
M  V30 32 H 3.59239 2.12899 0.938053 0
M  V30 33 H 4.76052 1.07328 1.72601 0
M  V30 34 H 2.83616 0.420639 -0.589561 0
M  V30 35 H 3.93729 -0.827023 0.113492 0
M  V30 36 H 1.93158 0.776926 1.68551 0
M  V30 37 H 0.273314 1.06875 0.246599 0
M  V30 38 H 0.668497 0.445983 -1.45798 0
M  V30 39 H -1.67845 0.775339 -1.5921 0
M  V30 40 H -0.605044 -1.26217 -2.33589 0
M  V30 41 H -0.989504 -2.31898 0.504968 0
M  V30 42 H 0.182633 -2.91043 -0.77286 0
M  V30 43 H -2.41201 -2.89054 -1.32269 0
M  V30 44 H -1.59713 -0.438677 1.23436 0
M  V30 45 H -1.85217 1.2473 0.790909 0
M  V30 46 H -3.6187 -2.02785 0.88263 0
M  V30 47 H -6.08606 -2.10613 0.765468 0
M  V30 48 H -3.79049 2.10263 -0.115269 0
M  V30 49 H -6.39033 3.04877 -0.478874 0
M  V30 50 H -8.79784 1.89019 -0.330877 0
M  V30 51 H 4.21455 -0.920771 2.24935 0
M  V30 52 H 2.82982 -1.45809 3.02501 0
M  V30 END ATOM
M  V30 BEGIN BOND
M  V30 1 1 1 2
M  V30 2 1 2 3
M  V30 3 1 3 4
M  V30 4 1 4 5
M  V30 5 1 5 6
M  V30 6 1 6 7
M  V30 7 2 7 8
M  V30 8 1 7 9
M  V30 9 1 9 10
M  V30 10 1 10 11
M  V30 11 1 11 12
M  V30 12 1 12 13
M  V30 13 1 12 14
M  V30 14 1 11 15
M  V30 15 1 15 16
M  V30 16 1 16 17
M  V30 17 2 17 18
M  V30 18 1 18 19
M  V30 19 1 19 20
M  V30 20 1 20 21
M  V30 21 1 20 22
M  V30 22 2 22 23
M  V30 23 1 23 24
M  V30 24 1 6 25
M  V30 25 1 13 9
M  V30 26 2 21 16
M  V30 27 2 24 19
M  V30 28 1 1 26
M  V30 29 1 1 27
M  V30 30 1 2 28
M  V30 31 1 2 29
M  V30 32 1 3 30
M  V30 33 1 3 31
M  V30 34 1 4 32
M  V30 35 1 4 33
M  V30 36 1 5 34
M  V30 37 1 5 35
M  V30 38 1 6 36 CFG=1
M  V30 39 1 10 37
M  V30 40 1 10 38
M  V30 41 1 11 39 CFG=3
M  V30 42 1 12 40 CFG=3
M  V30 43 1 13 41
M  V30 44 1 13 42
M  V30 45 1 14 43
M  V30 46 1 15 44
M  V30 47 1 15 45
M  V30 48 1 17 46
M  V30 49 1 18 47
M  V30 50 1 21 48
M  V30 51 1 22 49
M  V30 52 1 23 50
M  V30 53 1 25 51
M  V30 54 1 25 52
M  V30 END BOND
M  V30 END CTAB
M  END
