
     RDKit          3D

  0  0  0  0  0  0  0  0  0  0999 V3000
M  V30 BEGIN CTAB
M  V30 COUNTS 31 30 0 0 0
M  V30 BEGIN ATOM
M  V30 1 N 2.93916 -0.512866 -0.711088 0
M  V30 2 C 1.52648 -0.162713 -0.799231 0
M  V30 3 C 0.883953 -0.1132 0.546943 0
M  V30 4 C -0.538835 0.254546 0.584699 0
M  V30 5 C -1.51686 -0.601631 -0.142517 0
M  V30 6 N -1.31335 -0.528754 -1.5467 0
M  V30 7 C -2.96008 -0.224024 0.230432 0
M  V30 8 O -0.922287 0.104662 1.96418 0
M  V30 9 C -0.823997 1.69535 0.243538 0
M  V30 10 C 1.09874 -1.4215 1.31712 0
M  V30 11 C 1.70217 0.910889 1.35282 0
M  V30 12 H 3.52831 0.24396 -0.357472 0
M  V30 13 H 3.11202 -1.45191 -0.353159 0
M  V30 14 H 1.47331 0.832422 -1.272 0
M  V30 15 H 1.095 -0.987011 -1.41147 0
M  V30 16 H -1.45445 -1.67753 0.142368 0
M  V30 17 H -1.94002 0.143086 -2.04352 0
M  V30 18 H -1.23073 -1.4422 -2.02513 0
M  V30 19 H -3.31041 0.641892 -0.33042 0
M  V30 20 H -3.63635 -1.10356 0.056409 0
M  V30 21 H -2.96938 0.0287253 1.32253 0
M  V30 22 H -1.28618 0.925318 2.33022 0
M  V30 23 H -1.89794 1.89826 0.436342 0
M  V30 24 H -0.265526 2.34746 0.977102 0
M  V30 25 H -0.622524 1.95082 -0.794372 0
M  V30 26 H 2.1731 -1.64421 1.448 0
M  V30 27 H 0.690071 -1.22655 2.33838 0
M  V30 28 H 0.636661 -2.27002 0.817619 0
M  V30 29 H 1.94774 1.7959 0.731563 0
M  V30 30 H 1.2138 1.1796 2.2874 0
M  V30 31 H 2.6684 0.414791 1.58797 0
M  V30 END ATOM
M  V30 BEGIN BOND
M  V30 1 1 1 2
M  V30 2 1 2 3
M  V30 3 1 3 4
M  V30 4 1 4 5
M  V30 5 1 5 6
M  V30 6 1 5 7
M  V30 7 1 4 8
M  V30 8 1 4 9
M  V30 9 1 3 10
M  V30 10 1 3 11
M  V30 11 1 1 12
M  V30 12 1 1 13
M  V30 13 1 2 14
M  V30 14 1 2 15
M  V30 15 1 5 16
M  V30 16 1 6 17
M  V30 17 1 6 18
M  V30 18 1 7 19
M  V30 19 1 7 20
M  V30 20 1 7 21
M  V30 21 1 8 22
M  V30 22 1 9 23
M  V30 23 1 9 24
M  V30 24 1 9 25
M  V30 25 1 10 26
M  V30 26 1 10 27
M  V30 27 1 10 28
M  V30 28 1 11 29
M  V30 29 1 11 30
M  V30 30 1 11 31
M  V30 END BOND
M  V30 END CTAB
M  END
