
     RDKit          3D

  0  0  0  0  0  0  0  0  0  0999 V3000
M  V30 BEGIN CTAB
M  V30 COUNTS 63 65 0 0 0
M  V30 BEGIN ATOM
M  V30 1 C -4.0789 -3.99499 1.08432 0
M  V30 2 C -3.88349 -2.84272 2.07723 0
M  V30 3 C -3.28631 -3.46115 3.32685 0
M  V30 4 O -3.08356 -1.86202 1.51858 0
M  V30 5 C -3.35239 -0.56537 1.20599 0
M  V30 6 C -4.61543 -0.0281613 1.43914 0
M  V30 7 C -4.94206 1.27251 1.14382 0
M  V30 8 N -6.23416 1.8077 1.38629 0
M  V30 9 C -6.52316 3.15032 1.07092 0
M  V30 10 N -6.53719 4.10007 2.11143 0
M  V30 11 N -6.77618 3.54195 -0.140399 0
M  V30 12 C -3.959 2.0666 0.591114 0
M  V30 13 C -2.71795 1.54507 0.359956 0
M  V30 14 C -2.38452 0.239837 0.654722 0
M  V30 15 C -1.01301 -0.202487 0.357866 0
M  V30 16 C -0.478041 -1.44419 0.558072 0
M  V30 17 C 0.846223 -1.36755 0.121938 0
M  V30 18 C 1.04241 -0.0983763 -0.314506 0
M  V30 19 O -0.0650322 0.561688 -0.164022 0
M  V30 20 C 2.2568 0.477229 -0.863635 0
M  V30 21 C 3.43882 -0.229566 -1.0328 0
M  V30 22 O 3.54429 -1.52992 -0.69292 0
M  V30 23 C 4.56903 -2.44182 -0.756327 0
M  V30 24 C 4.262 -3.64919 -1.61935 0
M  V30 25 C 5.02579 -2.95309 0.59481 0
M  V30 26 C 4.53776 0.448685 -1.57274 0
M  V30 27 C 4.49651 1.77198 -1.93884 0
M  V30 28 N 5.65214 2.39784 -2.48324 0
M  V30 29 C 5.66359 3.75247 -2.87331 0
M  V30 30 N 4.92792 4.26874 -3.9704 0
M  V30 31 N 6.38564 4.61625 -2.20885 0
M  V30 32 C 3.34136 2.46748 -1.77479 0
M  V30 33 C 2.25113 1.82666 -1.24845 0
M  V30 34 H -4.24324 -3.56367 0.0667713 0
M  V30 35 H -4.97132 -4.56969 1.39132 0
M  V30 36 H -3.19261 -4.65845 1.05587 0
M  V30 37 H -4.88653 -2.50192 2.32539 0
M  V30 38 H -2.23281 -3.19398 3.44601 0
M  V30 39 H -3.34551 -4.58376 3.31001 0
M  V30 40 H -3.80867 -3.14002 4.24469 0
M  V30 41 H -5.40743 -0.643705 1.87623 0
M  V30 42 H -6.96196 1.206 1.79509 0
M  V30 43 H -5.71995 4.71754 2.24683 0
M  V30 44 H -7.35303 4.18877 2.74217 0
M  V30 45 H -6.98506 4.52564 -0.351501 0
M  V30 46 H -4.21007 3.10442 0.352317 0
M  V30 47 H -1.95131 2.19886 -0.0817681 0
M  V30 48 H -0.899414 -2.34306 0.955454 0
M  V30 49 H 1.53112 -2.21543 0.159534 0
M  V30 50 H 5.46608 -1.97201 -1.20779 0
M  V30 51 H 5.2251 -4.0661 -1.96209 0
M  V30 52 H 3.68033 -3.36899 -2.50881 0
M  V30 53 H 3.74183 -4.37424 -0.95802 0
M  V30 54 H 4.59538 -2.3637 1.42978 0
M  V30 55 H 6.13466 -3.03088 0.665152 0
M  V30 56 H 4.62662 -3.97992 0.71189 0
M  V30 57 H 5.4876 -0.0623154 -1.72468 0
M  V30 58 H 6.53833 1.85465 -2.60856 0
M  V30 59 H 4.20481 4.98759 -3.77146 0
M  V30 60 H 5.05928 3.98013 -4.96049 0
M  V30 61 H 6.94315 4.30063 -1.40215 0
M  V30 62 H 3.29093 3.52849 -2.06241 0
M  V30 63 H 1.3327 2.39662 -1.12326 0
M  V30 END ATOM
M  V30 BEGIN BOND
M  V30 1 1 1 2
M  V30 2 1 2 3
M  V30 3 1 2 4
M  V30 4 1 4 5
M  V30 5 2 5 6
M  V30 6 1 6 7
M  V30 7 1 7 8
M  V30 8 1 8 9
M  V30 9 1 9 10
M  V30 10 2 9 11 CFG=2
M  V30 11 2 7 12
M  V30 12 1 12 13
M  V30 13 2 13 14
M  V30 14 1 14 15
M  V30 15 2 15 16
M  V30 16 1 16 17
M  V30 17 2 17 18
M  V30 18 1 18 19
M  V30 19 1 18 20
M  V30 20 2 20 21
M  V30 21 1 21 22
M  V30 22 1 22 23
M  V30 23 1 23 24
M  V30 24 1 23 25
M  V30 25 1 21 26
M  V30 26 2 26 27
M  V30 27 1 27 28
M  V30 28 1 28 29
M  V30 29 1 29 30
M  V30 30 2 29 31 CFG=2
M  V30 31 1 27 32
M  V30 32 2 32 33
M  V30 33 1 14 5
M  V30 34 1 19 15
M  V30 35 1 33 20
M  V30 36 1 1 34
M  V30 37 1 1 35
M  V30 38 1 1 36
M  V30 39 1 2 37
M  V30 40 1 3 38
M  V30 41 1 3 39
M  V30 42 1 3 40
M  V30 43 1 6 41
M  V30 44 1 8 42
M  V30 45 1 10 43
M  V30 46 1 10 44
M  V30 47 1 11 45
M  V30 48 1 12 46
M  V30 49 1 13 47
M  V30 50 1 16 48
M  V30 51 1 17 49
M  V30 52 1 23 50
M  V30 53 1 24 51
M  V30 54 1 24 52
M  V30 55 1 24 53
M  V30 56 1 25 54
M  V30 57 1 25 55
M  V30 58 1 25 56
M  V30 59 1 26 57
M  V30 60 1 28 58
M  V30 61 1 30 59
M  V30 62 1 30 60
M  V30 63 1 31 61
M  V30 64 1 32 62
M  V30 65 1 33 63
M  V30 END BOND
M  V30 END CTAB
M  END
