
     RDKit          3D

  0  0  0  0  0  0  0  0  0  0999 V3000
M  V30 BEGIN CTAB
M  V30 COUNTS 45 46 0 0 0
M  V30 BEGIN ATOM
M  V30 1 N 7.25768 0.504388 0.00853631 0
M  V30 2 C 5.9255 0.207618 0.526728 0
M  V30 3 C 5.03094 -0.0036506 -0.670559 0
M  V30 4 N 3.66809 -0.308491 -0.298682 0
M  V30 5 C 2.92289 -0.486297 -1.51354 0
M  V30 6 C 1.48699 -0.903462 -1.24629 0
M  V30 7 N 1.16429 -0.640223 0.167312 0
M  V30 8 C 1.59316 0.662451 0.63657 0
M  V30 9 C 3.11645 0.610085 0.641559 0
M  V30 10 C 0.541117 -1.64308 0.894551 0
M  V30 11 C -0.727444 -1.74664 1.1095 0
M  V30 12 C -1.65967 -0.757534 0.571947 0
M  V30 13 O -1.31355 0.212718 -0.101066 0
M  V30 14 N -3.04149 -0.932017 0.845348 0
M  V30 15 C -4.12147 -0.136849 0.457936 0
M  V30 16 C -3.99614 1.13127 -0.0380486 0
M  V30 17 C -5.13396 1.83151 -0.414278 0
M  V30 18 C -6.39589 1.30207 -0.309282 0
M  V30 19 C -6.48799 0.017567 0.196599 0
M  V30 20 C -5.39509 -0.716134 0.582181 0
M  V30 21 N -7.55072 2.01381 -0.691564 0
M  V30 22 C -1.25329 -2.86642 1.90173 0
M  V30 23 N -1.68536 -3.74377 2.51893 0
M  V30 24 H 7.80524 1.10204 0.660545 0
M  V30 25 H 7.16974 0.956667 -0.937136 0
M  V30 26 H 6.01384 -0.693136 1.14847 0
M  V30 27 H 5.61676 1.11128 1.11579 0
M  V30 28 H 5.11874 0.878953 -1.31276 0
M  V30 29 H 5.42744 -0.886812 -1.21382 0
M  V30 30 H 2.96606 0.493279 -2.06405 0
M  V30 31 H 3.39356 -1.25159 -2.12575 0
M  V30 32 H 0.852912 -0.266942 -1.85624 0
M  V30 33 H 1.39865 -1.98343 -1.46779 0
M  V30 34 H 1.24966 1.49598 -0.0406489 0
M  V30 35 H 1.27173 0.86107 1.67287 0
M  V30 36 H 3.4178 0.268967 1.65305 0
M  V30 37 H 3.50624 1.64285 0.53755 0
M  V30 38 H 1.18194 -2.438 1.33921 0
M  V30 39 H -3.26192 -1.8055 1.44122 0
M  V30 40 H -3.07591 1.64619 -0.15461 0
M  V30 41 H -5.04923 2.84672 -0.813076 0
M  V30 42 H -7.47231 -0.424458 0.290327 0
M  V30 43 H -5.55803 -1.70857 0.965313 0
M  V30 44 H -8.47084 1.78358 -0.263996 0
M  V30 45 H -7.4471 2.76195 -1.40291 0
M  V30 END ATOM
M  V30 BEGIN BOND
M  V30 1 1 1 2
M  V30 2 1 2 3
M  V30 3 1 3 4
M  V30 4 1 4 5
M  V30 5 1 5 6
M  V30 6 1 6 7
M  V30 7 1 7 8
M  V30 8 1 8 9
M  V30 9 1 7 10
M  V30 10 2 10 11
M  V30 11 1 11 12
M  V30 12 2 12 13
M  V30 13 1 12 14
M  V30 14 1 14 15
M  V30 15 2 15 16
M  V30 16 1 16 17
M  V30 17 2 17 18
M  V30 18 1 18 19
M  V30 19 2 19 20
M  V30 20 1 18 21
M  V30 21 1 11 22
M  V30 22 3 22 23
M  V30 23 1 9 4
M  V30 24 1 20 15
M  V30 25 1 1 24
M  V30 26 1 1 25
M  V30 27 1 2 26
M  V30 28 1 2 27
M  V30 29 1 3 28
M  V30 30 1 3 29
M  V30 31 1 5 30
M  V30 32 1 5 31
M  V30 33 1 6 32
M  V30 34 1 6 33
M  V30 35 1 8 34
M  V30 36 1 8 35
M  V30 37 1 9 36
M  V30 38 1 9 37
M  V30 39 1 10 38
M  V30 40 1 14 39
M  V30 41 1 16 40
M  V30 42 1 17 41
M  V30 43 1 19 42
M  V30 44 1 20 43
M  V30 45 1 21 44
M  V30 46 1 21 45
M  V30 END BOND
M  V30 END CTAB
M  END
