
     RDKit          3D

  0  0  0  0  0  0  0  0  0  0999 V3000
M  V30 BEGIN CTAB
M  V30 COUNTS 31 32 0 0 0
M  V30 BEGIN ATOM
M  V30 1 C -0.995342 1.52551 -1.35072 0
M  V30 2 C -1.32267 0.422301 -0.361293 0
M  V30 3 C -1.64745 -0.806751 -1.2252 0
M  V30 4 N -2.46723 0.700779 0.414026 0
M  V30 5 C -2.52909 0.657641 1.6899 0
M  V30 6 N -3.80867 0.982319 2.27341 0
M  V30 7 N -1.40665 0.311085 2.48984 0
M  V30 8 C -0.312001 0.0400174 1.85135 0
M  V30 9 N 0.884542 -0.322562 2.55839 0
M  V30 10 N -0.195043 0.0740993 0.448709 0
M  V30 11 C 1.07755 -0.245688 -0.185694 0
M  V30 12 C 1.39856 -1.521 -0.551656 0
M  V30 13 C 2.61427 -1.78226 -1.15011 0
M  V30 14 I 3.10322 -3.72909 -1.70829 0
M  V30 15 C 3.52292 -0.75518 -1.38671 0
M  V30 16 C 3.21867 0.540077 -1.02494 0
M  V30 17 C 1.99515 0.756167 -0.430712 0
M  V30 18 H -1.9144 1.77582 -1.87952 0
M  V30 19 H -0.280803 1.10333 -2.08355 0
M  V30 20 H -0.542066 2.39882 -0.883323 0
M  V30 21 H -1.81965 -1.69029 -0.576957 0
M  V30 22 H -2.61243 -0.633235 -1.77377 0
M  V30 23 H -0.840103 -1.02435 -1.93781 0
M  V30 24 H -3.87363 1.70892 3.02173 0
M  V30 25 H -4.67405 0.521097 1.979 0
M  V30 26 H 1.43826 -1.14481 2.28637 0
M  V30 27 H 1.17598 0.265396 3.34977 0
M  V30 28 H 0.678368 -2.31641 -0.360906 0
M  V30 29 H 4.46808 -0.933564 -1.84772 0
M  V30 30 H 3.92305 1.36756 -1.20295 0
M  V30 31 H 1.74265 1.75427 -0.143718 0
M  V30 END ATOM
M  V30 BEGIN BOND
M  V30 1 1 1 2
M  V30 2 1 2 3
M  V30 3 1 2 4
M  V30 4 2 4 5
M  V30 5 1 5 6
M  V30 6 1 5 7
M  V30 7 2 7 8
M  V30 8 1 8 9
M  V30 9 1 8 10
M  V30 10 1 10 11
M  V30 11 2 11 12
M  V30 12 1 12 13
M  V30 13 1 13 14
M  V30 14 2 13 15
M  V30 15 1 15 16
M  V30 16 2 16 17
M  V30 17 1 10 2
M  V30 18 1 17 11
M  V30 19 1 1 18
M  V30 20 1 1 19
M  V30 21 1 1 20
M  V30 22 1 3 21
M  V30 23 1 3 22
M  V30 24 1 3 23
M  V30 25 1 6 24
M  V30 26 1 6 25
M  V30 27 1 9 26
M  V30 28 1 9 27
M  V30 29 1 12 28
M  V30 30 1 15 29
M  V30 31 1 16 30
M  V30 32 1 17 31
M  V30 END BOND
M  V30 END CTAB
M  END
