
     RDKit          3D

  0  0  0  0  0  0  0  0  0  0999 V3000
M  V30 BEGIN CTAB
M  V30 COUNTS 39 38 0 0 0
M  V30 BEGIN ATOM
M  V30 1 N 4.76123 -1.31225 1.24649 0
M  V30 2 C 4.56793 -0.210237 0.343732 0
M  V30 3 N 5.07016 -0.358981 -0.824669 0
M  V30 4 N 3.86128 0.952461 0.748944 0
M  V30 5 C 3.33889 1.91558 -0.15316 0
M  V30 6 C 2.22501 1.47285 -1.00042 0
M  V30 7 C 0.958542 1.07931 -0.355383 0
M  V30 8 C 0.920452 -0.0612551 0.582888 0
M  V30 9 N -0.342683 -0.364676 1.07355 0
M  V30 10 C -1.37828 -0.984507 0.44441 0
M  V30 11 C -2.09389 -0.319251 -0.668236 0
M  V30 12 C -3.24776 -1.29751 -1.05599 0
M  V30 13 N -4.09385 -1.43055 0.103161 0
M  V30 14 C -4.88184 -0.302568 0.505047 0
M  V30 15 N -4.41746 0.569758 1.51839 0
M  V30 16 N -6.01208 -0.101476 -0.0684339 0
M  V30 17 H 5.68554 -1.33659 1.74732 0
M  V30 18 H 4.00345 -2.01864 1.36398 0
M  V30 19 H 4.98876 0.36812 -1.54121 0
M  V30 20 H 3.73092 1.11299 1.78168 0
M  V30 21 H 4.1924 2.32822 -0.773929 0
M  V30 22 H 2.98732 2.84413 0.389018 0
M  V30 23 H 2.63509 0.651171 -1.66546 0
M  V30 24 H 1.963 2.34008 -1.69907 0
M  V30 25 H 0.598859 1.99001 0.271317 0
M  V30 26 H 0.181899 0.942547 -1.14106 0
M  V30 27 H 1.66958 0.0962254 1.4215 0
M  V30 28 H 1.32078 -1.01743 0.097135 0
M  V30 29 H -0.489728 -0.111056 2.09746 0
M  V30 30 H -0.968585 -1.97484 -0.00867504 0
M  V30 31 H -2.18197 -1.3932 1.14175 0
M  V30 32 H -1.48075 -0.292189 -1.62623 0
M  V30 33 H -2.4919 0.674167 -0.45792 0
M  V30 34 H -3.77574 -0.879264 -1.93893 0
M  V30 35 H -2.79648 -2.26659 -1.32625 0
M  V30 36 H -4.17719 -2.29732 0.67566 0
M  V30 37 H -4.05288 1.51617 1.25214 0
M  V30 38 H -4.4526 0.237922 2.50877 0
M  V30 39 H -6.32542 -0.761345 -0.808506 0
M  V30 END ATOM
M  V30 BEGIN BOND
M  V30 1 1 1 2
M  V30 2 2 2 3 CFG=2
M  V30 3 1 2 4
M  V30 4 1 4 5
M  V30 5 1 5 6
M  V30 6 1 6 7
M  V30 7 1 7 8
M  V30 8 1 8 9
M  V30 9 1 9 10
M  V30 10 1 10 11
M  V30 11 1 11 12
M  V30 12 1 12 13
M  V30 13 1 13 14
M  V30 14 1 14 15
M  V30 15 2 14 16 CFG=2
M  V30 16 1 1 17
M  V30 17 1 1 18
M  V30 18 1 3 19
M  V30 19 1 4 20
M  V30 20 1 5 21
M  V30 21 1 5 22
M  V30 22 1 6 23
M  V30 23 1 6 24
M  V30 24 1 7 25
M  V30 25 1 7 26
M  V30 26 1 8 27
M  V30 27 1 8 28
M  V30 28 1 9 29
M  V30 29 1 10 30
M  V30 30 1 10 31
M  V30 31 1 11 32
M  V30 32 1 11 33
M  V30 33 1 12 34
M  V30 34 1 12 35
M  V30 35 1 13 36
M  V30 36 1 15 37
M  V30 37 1 15 38
M  V30 38 1 16 39
M  V30 END BOND
M  V30 END CTAB
M  END
