
     RDKit          3D

  0  0  0  0  0  0  0  0  0  0999 V3000
M  V30 BEGIN CTAB
M  V30 COUNTS 18 17 0 0 0
M  V30 BEGIN ATOM
M  V30 1 C -0.752624 -0.286509 -0.580605 0 CFG=2
M  V30 2 C -1.34752 0.711582 0.356686 0
M  V30 3 N -1.29634 -1.59719 -0.291292 0
M  V30 4 C 0.75637 -0.384822 -0.441166 0 CFG=2
M  V30 5 N 1.0397 -0.783417 0.909669 0
M  V30 6 C 1.43266 0.832058 -0.863796 0
M  V30 7 O 2.27326 1.53029 -0.0196791 0
M  V30 8 O 1.26481 1.27978 -2.01973 0
M  V30 9 H -1.02826 -0.0230797 -1.60788 0
M  V30 10 H -2.42974 0.761239 0.167317 0
M  V30 11 H -0.948188 1.73288 0.186119 0
M  V30 12 H -1.19616 0.351466 1.38645 0
M  V30 13 H -0.549081 -2.3272 -0.200878 0
M  V30 14 H -1.81218 -1.60053 0.614863 0
M  V30 15 H 1.05657 -1.25262 -1.0963 0
M  V30 16 H 1.44035 0.0156692 1.42738 0
M  V30 17 H 0.208375 -1.12725 1.4331 0
M  V30 18 H 1.88799 2.16765 0.639738 0
M  V30 END ATOM
M  V30 BEGIN BOND
M  V30 1 1 1 2
M  V30 2 1 1 3
M  V30 3 1 1 4
M  V30 4 1 4 5
M  V30 5 1 4 6
M  V30 6 1 6 7
M  V30 7 2 6 8
M  V30 8 1 1 9 CFG=3
M  V30 9 1 2 10
M  V30 10 1 2 11
M  V30 11 1 2 12
M  V30 12 1 3 13
M  V30 13 1 3 14
M  V30 14 1 4 15 CFG=3
M  V30 15 1 5 16
M  V30 16 1 5 17
M  V30 17 1 7 18
M  V30 END BOND
M  V30 END CTAB
M  END
