
     RDKit          3D

  0  0  0  0  0  0  0  0  0  0999 V3000
M  V30 BEGIN CTAB
M  V30 COUNTS 42 43 0 0 0
M  V30 BEGIN ATOM
M  V30 1 N 5.23313 -0.786048 -0.87904 0
M  V30 2 C 4.46479 0.0501072 0.0492827 0
M  V30 3 C 3.63062 0.970771 -0.848704 0
M  V30 4 C 2.54755 1.62619 -0.0530535 0
M  V30 5 C 1.5868 0.608266 0.596048 0
M  V30 6 C 2.15005 -0.756174 0.303205 0
M  V30 7 C 3.55361 -0.83278 0.854686 0
M  V30 8 N 0.26937 0.685793 0.212256 0
M  V30 9 C -1.04218 0.763526 -0.170016 0
M  V30 10 O -1.64147 1.7153 -0.729002 0
M  V30 11 C -2.01312 -0.401612 0.0686981 0
M  V30 12 N -1.37285 -1.49901 0.73028 0
M  V30 13 C -3.10292 0.192163 0.933206 0
M  V30 14 C -4.17761 0.931468 0.225017 0
M  V30 15 C -4.67021 0.301285 -1.05456 0
M  V30 16 C -4.08093 -1.06345 -1.15983 0
M  V30 17 C -2.55443 -0.895671 -1.24914 0
M  V30 18 H 5.345 -1.73571 -0.505864 0
M  V30 19 H 6.14703 -0.359 -1.06466 0
M  V30 20 H 5.16343 0.653436 0.70156 0
M  V30 21 H 3.35603 0.475109 -1.77341 0
M  V30 22 H 4.34027 1.80981 -1.13153 0
M  V30 23 H 3.10062 2.19131 0.766145 0
M  V30 24 H 2.02533 2.37711 -0.671109 0
M  V30 25 H 1.75 0.870589 1.70107 0
M  V30 26 H 2.14795 -0.885796 -0.799272 0
M  V30 27 H 1.54847 -1.58296 0.788627 0
M  V30 28 H 3.57745 -0.486691 1.93581 0
M  V30 29 H 3.87661 -1.87788 0.768484 0
M  V30 30 H 0.44736 1.98963 -0.150932 0
M  V30 31 H -0.759333 -2.00937 0.0531558 0
M  V30 32 H -2.14417 -2.11954 1.11075 0
M  V30 33 H -2.63708 0.904935 1.66332 0
M  V30 34 H -3.57811 -0.58136 1.60974 0
M  V30 35 H -3.96654 1.99159 0.0129404 0
M  V30 36 H -5.07469 0.935065 0.929259 0
M  V30 37 H -4.35209 0.929548 -1.9338 0
M  V30 38 H -5.76831 0.203699 -1.13545 0
M  V30 39 H -4.39363 -1.54426 -2.09688 0
M  V30 40 H -4.37185 -1.64544 -0.279067 0
M  V30 41 H -2.18353 -1.90619 -1.54952 0
M  V30 42 H -2.37639 -0.207774 -2.07342 0
M  V30 END ATOM
M  V30 BEGIN BOND
M  V30 1 1 1 2
M  V30 2 1 2 3
M  V30 3 1 3 4
M  V30 4 1 4 5
M  V30 5 1 5 6
M  V30 6 1 6 7
M  V30 7 1 5 8
M  V30 8 1 8 9
M  V30 9 2 9 10
M  V30 10 1 9 11
M  V30 11 1 11 12
M  V30 12 1 11 13
M  V30 13 1 13 14
M  V30 14 1 14 15
M  V30 15 1 15 16
M  V30 16 1 16 17
M  V30 17 1 7 2
M  V30 18 1 17 11
M  V30 19 1 1 18
M  V30 20 1 1 19
M  V30 21 1 2 20
M  V30 22 1 3 21
M  V30 23 1 3 22
M  V30 24 1 4 23
M  V30 25 1 4 24
M  V30 26 1 5 25
M  V30 27 1 6 26
M  V30 28 1 6 27
M  V30 29 1 7 28
M  V30 30 1 7 29
M  V30 31 1 8 30
M  V30 32 1 12 31
M  V30 33 1 12 32
M  V30 34 1 13 33
M  V30 35 1 13 34
M  V30 36 1 14 35
M  V30 37 1 14 36
M  V30 38 1 15 37
M  V30 39 1 15 38
M  V30 40 1 16 39
M  V30 41 1 16 40
M  V30 42 1 17 41
M  V30 43 1 17 42
M  V30 END BOND
M  V30 END CTAB
M  END
