
     RDKit          3D

  0  0  0  0  0  0  0  0  0  0999 V3000
M  V30 BEGIN CTAB
M  V30 COUNTS 15 15 0 0 0
M  V30 BEGIN ATOM
M  V30 1 N -2.40465 -0.782226 -0.303169 0
M  V30 2 C -1.18667 -0.0861389 -0.0921713 0
M  V30 3 C 0.0316293 -0.725434 -0.154033 0
M  V30 4 C 1.22007 -0.0264275 0.0558946 0
M  V30 5 N 2.45484 -0.712823 -0.0146708 0
M  V30 6 C 1.11838 1.31801 0.324878 0
M  V30 7 N -0.0739684 1.92532 0.381671 0
M  V30 8 C -1.23443 1.26019 0.180248 0
M  V30 9 H -2.78834 -1.00789 -1.24374 0
M  V30 10 H -2.98568 -1.10758 0.513117 0
M  V30 11 H 0.0827137 -1.78267 -0.367172 0
M  V30 12 H 2.89547 -1.07762 -0.885829 0
M  V30 13 H 2.97541 -0.872009 0.874605 0
M  V30 14 H 2.05873 1.86525 0.489784 0
M  V30 15 H -2.16351 1.81205 0.240584 0
M  V30 END ATOM
M  V30 BEGIN BOND
M  V30 1 1 1 2
M  V30 2 2 2 3
M  V30 3 1 3 4
M  V30 4 1 4 5
M  V30 5 2 4 6
M  V30 6 1 6 7
M  V30 7 2 7 8
M  V30 8 1 8 2
M  V30 9 1 1 9
M  V30 10 1 1 10
M  V30 11 1 3 11
M  V30 12 1 5 12
M  V30 13 1 5 13
M  V30 14 1 6 14
M  V30 15 1 8 15
M  V30 END BOND
M  V30 END CTAB
M  END
