
     RDKit          3D

  0  0  0  0  0  0  0  0  0  0999 V3000
M  V30 BEGIN CTAB
M  V30 COUNTS 30 30 0 0 0
M  V30 BEGIN ATOM
M  V30 1 N 0.755542 1.94928 -2.03201 0
M  V30 2 C 0.00771218 2.0345 -0.799918 0
M  V30 3 C -0.401993 0.656301 -0.336716 0
M  V30 4 C -1.18276 0.731586 0.944514 0
M  V30 5 C -1.74758 -0.569129 1.37335 0
M  V30 6 C -1.9376 -1.57636 0.279296 0
M  V30 7 C -0.701305 -2.37053 -0.0342795 0
M  V30 8 C 0.359336 -1.59189 -0.744296 0
M  V30 9 N 0.606212 -0.296299 -0.255345 0
M  V30 10 S 1.88155 -0.0839 0.798733 0
M  V30 11 O 2.93511 -1.17546 0.704216 0
M  V30 12 O 1.55866 0.0729414 2.2324 0
M  V30 13 N 2.73379 1.37759 0.337445 0
M  V30 14 H 0.184634 1.75793 -2.85763 0
M  V30 15 H 1.35804 2.81556 -2.17268 0
M  V30 16 H 0.486995 2.64113 -0.0348933 0
M  V30 17 H -0.954695 2.56574 -1.0611 0
M  V30 18 H -1.14196 0.310939 -1.12207 0
M  V30 19 H -0.584701 1.17188 1.74223 0
M  V30 20 H -2.01304 1.47203 0.750811 0
M  V30 21 H -2.74741 -0.381938 1.82269 0
M  V30 22 H -1.11268 -1.04492 2.1509 0
M  V30 23 H -2.44617 -1.17228 -0.618481 0
M  V30 24 H -2.67133 -2.33277 0.696919 0
M  V30 25 H -0.34762 -2.82846 0.900934 0
M  V30 26 H -1.01144 -3.20183 -0.703245 0
M  V30 27 H 0.0957416 -1.53336 -1.82739 0
M  V30 28 H 1.29436 -2.19363 -0.691732 0
M  V30 29 H 3.43976 1.58531 1.08748 0
M  V30 30 H 3.30485 1.21005 -0.530142 0
M  V30 END ATOM
M  V30 BEGIN BOND
M  V30 1 1 1 2
M  V30 2 1 2 3
M  V30 3 1 3 4
M  V30 4 1 4 5
M  V30 5 1 5 6
M  V30 6 1 6 7
M  V30 7 1 7 8
M  V30 8 1 8 9
M  V30 9 1 9 10
M  V30 10 2 10 11
M  V30 11 2 10 12
M  V30 12 1 10 13
M  V30 13 1 9 3
M  V30 14 1 1 14
M  V30 15 1 1 15
M  V30 16 1 2 16
M  V30 17 1 2 17
M  V30 18 1 3 18
M  V30 19 1 4 19
M  V30 20 1 4 20
M  V30 21 1 5 21
M  V30 22 1 5 22
M  V30 23 1 6 23
M  V30 24 1 6 24
M  V30 25 1 7 25
M  V30 26 1 7 26
M  V30 27 1 8 27
M  V30 28 1 8 28
M  V30 29 1 13 29
M  V30 30 1 13 30
M  V30 END BOND
M  V30 END CTAB
M  END
