
     RDKit          3D

  0  0  0  0  0  0  0  0  0  0999 V3000
M  V30 BEGIN CTAB
M  V30 COUNTS 18 17 0 0 0
M  V30 BEGIN ATOM
M  V30 1 N -1.12636 -1.91357 -0.775674 0
M  V30 2 C -1.1425 -0.893183 0.230784 0
M  V30 3 C -0.416673 0.350856 -0.204187 0
M  V30 4 N -0.44602 1.34847 0.810047 0
M  V30 5 C 0.195113 2.58538 0.556811 0
M  V30 6 N 0.728913 3.5964 0.358056 0
M  V30 7 C 1.00957 0.0997018 -0.599984 0
M  V30 8 N 1.81483 -0.451738 0.446844 0
M  V30 9 H -1.20198 -2.84824 -0.314998 0
M  V30 10 H -1.91647 -1.84788 -1.45454 0
M  V30 11 H -0.792578 -1.26403 1.22898 0
M  V30 12 H -2.20969 -0.597185 0.391268 0
M  V30 13 H -0.949406 0.743486 -1.09478 0
M  V30 14 H -0.935171 1.16926 1.7303 0
M  V30 15 H 1.0628 -0.538624 -1.51511 0
M  V30 16 H 1.44777 1.08031 -0.881286 0
M  V30 17 H 2.23275 0.2946 1.0791 0
M  V30 18 H 2.6451 -0.914015 0.00835325 0
M  V30 END ATOM
M  V30 BEGIN BOND
M  V30 1 1 1 2
M  V30 2 1 2 3
M  V30 3 1 3 4
M  V30 4 1 4 5
M  V30 5 3 5 6
M  V30 6 1 3 7
M  V30 7 1 7 8
M  V30 8 1 1 9
M  V30 9 1 1 10
M  V30 10 1 2 11
M  V30 11 1 2 12
M  V30 12 1 3 13
M  V30 13 1 4 14
M  V30 14 1 7 15
M  V30 15 1 7 16
M  V30 16 1 8 17
M  V30 17 1 8 18
M  V30 END BOND
M  V30 END CTAB
M  END
