
     RDKit          3D

 27 28  0  0  0  0  0  0  0  0999 V2000
   -2.7977    1.4701    3.1502 N   0  0  0  0  0  0  0  0  0  0  0  0
   -1.6726    1.3053    2.3356 C   0  0  0  0  0  0  0  0  0  0  0  0
   -1.7534    1.5555    0.9643 C   0  0  0  0  0  0  0  0  0  0  0  0
   -0.6098    1.5092    0.1597 C   0  0  0  0  0  0  0  0  0  0  0  0
    0.6403    1.2447    0.7249 C   0  0  0  0  0  0  0  0  0  0  0  0
    2.1205    1.1935   -0.2687 S   0  0  0  0  0  0  0  0  0  0  0  0
    1.7054   -0.0417   -1.4864 C   0  0  0  0  0  0  0  0  0  0  0  0
    1.8173    0.2681   -2.8436 C   0  0  0  0  0  0  0  0  0  0  0  0
    1.5080   -0.6900   -3.8151 C   0  0  0  0  0  0  0  0  0  0  0  0
    1.0494   -1.9569   -3.4483 C   0  0  0  0  0  0  0  0  0  0  0  0
    0.8560   -2.9454   -4.4188 N   0  0  0  0  0  0  0  0  0  0  0  0
    1.0068   -2.2843   -2.0916 C   0  0  0  0  0  0  0  0  0  0  0  0
    1.3152   -1.3309   -1.1152 C   0  0  0  0  0  0  0  0  0  0  0  0
    0.7347    1.0638    2.1065 C   0  0  0  0  0  0  0  0  0  0  0  0
   -0.4126    1.1120    2.9057 C   0  0  0  0  0  0  0  0  0  0  0  0
   -2.7366    0.9857    4.0402 H   0  0  0  0  0  0  0  0  0  0  0  0
   -3.6783    1.2969    2.6760 H   0  0  0  0  0  0  0  0  0  0  0  0
   -2.7100    1.7918    0.5061 H   0  0  0  0  0  0  0  0  0  0  0  0
   -0.7062    1.6952   -0.9070 H   0  0  0  0  0  0  0  0  0  0  0  0
    2.1574    1.2515   -3.1588 H   0  0  0  0  0  0  0  0  0  0  0  0
    1.6315   -0.4350   -4.8643 H   0  0  0  0  0  0  0  0  0  0  0  0
    0.6008   -2.5823   -5.3317 H   0  0  0  0  0  0  0  0  0  0  0  0
    0.2483   -3.7019   -4.1207 H   0  0  0  0  0  0  0  0  0  0  0  0
    0.7339   -3.2885   -1.7787 H   0  0  0  0  0  0  0  0  0  0  0  0
    1.2601   -1.6116   -0.0665 H   0  0  0  0  0  0  0  0  0  0  0  0
    1.7009    0.8964    2.5762 H   0  0  0  0  0  0  0  0  0  0  0  0
   -0.3101    0.9982    3.9816 H   0  0  0  0  0  0  0  0  0  0  0  0
  1  2  1  0
  2  3  2  0
  3  4  1  0
  4  5  2  0
  5  6  1  0
  6  7  1  0
  7  8  2  0
  8  9  1  0
  9 10  2  0
 10 11  1  0
 10 12  1  0
 12 13  2  0
  5 14  1  0
 14 15  2  0
 15  2  1  0
 13  7  1  0
  1 16  1  0
  1 17  1  0
  3 18  1  0
  4 19  1  0
  8 20  1  0
  9 21  1  0
 11 22  1  0
 11 23  1  0
 12 24  1  0
 13 25  1  0
 14 26  1  0
 15 27  1  0
M  END
