
     RDKit          3D

  0  0  0  0  0  0  0  0  0  0999 V3000
M  V30 BEGIN CTAB
M  V30 COUNTS 67 69 0 0 0
M  V30 BEGIN ATOM
M  V30 1 N 6.07379 2.72965 1.86317 0
M  V30 2 C 6.50623 1.56574 1.16813 0
M  V30 3 C 5.50122 0.670809 0.776209 0
M  V30 4 C 4.10747 0.963262 1.13025 0
M  V30 5 N 3.15818 0.0517506 0.643664 0
M  V30 6 C 2.87136 0.0222213 -0.738438 0
M  V30 7 C 2.2995 -1.31714 -1.12157 0
M  V30 8 O 1.57374 -1.25983 -2.30842 0
M  V30 9 C 0.683212 -2.33183 -2.34134 0
M  V30 10 C -0.63605 -1.83325 -2.88877 0
M  V30 11 O -1.71497 -2.49353 -2.31949 0
M  V30 12 C -2.59461 -1.57092 -1.71095 0
M  V30 13 C -2.59557 -1.88797 -0.255033 0
M  V30 14 N -3.27455 -0.851068 0.557414 0
M  V30 15 C -4.41111 -0.456837 -0.231708 0
M  V30 16 C -5.38054 0.423025 0.396222 0
M  V30 17 C -6.47368 0.872124 -0.315985 0
M  V30 18 N -6.66936 0.509909 -1.6959 0
M  V30 19 C -7.42481 1.68396 0.254895 0
M  V30 20 C -7.31951 2.08174 1.5705 0
M  V30 21 C -6.23723 1.64432 2.29689 0
M  V30 22 C -5.2769 0.817198 1.70012 0
M  V30 23 C -2.3263 0.253671 0.730139 0
M  V30 24 C -1.4295 0.0967012 1.90917 0
M  V30 25 O -0.245205 -0.542108 1.64206 0
M  V30 26 C 0.747776 0.332597 1.14218 0
M  V30 27 C 2.06705 -0.240689 1.52232 0
M  V30 28 C 5.93199 -0.444492 0.110043 0
M  V30 29 C 7.29649 -0.651695 -0.151101 0
M  V30 30 C 8.24512 0.252183 0.251221 0
M  V30 31 C 7.83776 1.37945 0.922764 0
M  V30 32 H 6.28714 2.77399 2.88392 0
M  V30 33 H 5.57421 3.47808 1.35201 0
M  V30 34 H 3.88912 2.01353 0.772336 0
M  V30 35 H 4.03006 1.07292 2.26194 0
M  V30 36 H 3.78481 0.193588 -1.3305 0
M  V30 37 H 2.1861 0.857235 -1.06327 0
M  V30 38 H 1.66151 -1.71122 -0.30756 0
M  V30 39 H 3.13292 -2.06274 -1.23894 0
M  V30 40 H 0.482855 -2.7071 -1.31356 0
M  V30 41 H 1.07667 -3.19684 -2.91011 0
M  V30 42 H -0.71527 -0.757891 -2.64847 0
M  V30 43 H -0.654925 -1.94471 -3.99526 0
M  V30 44 H -3.61375 -1.7713 -2.14274 0
M  V30 45 H -2.25882 -0.573884 -1.99202 0
M  V30 46 H -3.1826 -2.81719 -0.106435 0
M  V30 47 H -1.58171 -2.07826 0.10033 0
M  V30 48 H -4.05174 -0.0116835 -1.2116 0
M  V30 49 H -4.87817 -1.43166 -0.578752 0
M  V30 50 H -6.00717 0.924856 -2.37923 0
M  V30 51 H -7.43836 -0.135589 -1.98307 0
M  V30 52 H -8.28066 2.03437 -0.306524 0
M  V30 53 H -8.08039 2.73198 2.03036 0
M  V30 54 H -6.14591 1.95099 3.33002 0
M  V30 55 H -4.47105 0.519493 2.35556 0
M  V30 56 H -2.84678 1.21671 0.783065 0
M  V30 57 H -1.74015 0.291212 -0.225967 0
M  V30 58 H -1.96383 -0.479106 2.69389 0
M  V30 59 H -1.19984 1.10903 2.32683 0
M  V30 60 H 0.532747 1.32056 1.62473 0
M  V30 61 H 0.553731 0.38572 0.0564514 0
M  V30 62 H 2.32864 0.206501 2.5272 0
M  V30 63 H 1.97804 -1.33673 1.6623 0
M  V30 64 H 5.2301 -1.20359 -0.212614 0
M  V30 65 H 7.6045 -1.54784 -0.68387 0
M  V30 66 H 9.304 0.106417 0.0572246 0
M  V30 67 H 8.58296 2.11122 1.25136 0
M  V30 END ATOM
M  V30 BEGIN BOND
M  V30 1 1 1 2
M  V30 2 2 2 3
M  V30 3 1 3 4
M  V30 4 1 4 5
M  V30 5 1 5 6
M  V30 6 1 6 7
M  V30 7 1 7 8
M  V30 8 1 8 9
M  V30 9 1 9 10
M  V30 10 1 10 11
M  V30 11 1 11 12
M  V30 12 1 12 13
M  V30 13 1 13 14
M  V30 14 1 14 15
M  V30 15 1 15 16
M  V30 16 2 16 17
M  V30 17 1 17 18
M  V30 18 1 17 19
M  V30 19 2 19 20
M  V30 20 1 20 21
M  V30 21 2 21 22
M  V30 22 1 14 23
M  V30 23 1 23 24
M  V30 24 1 24 25
M  V30 25 1 25 26
M  V30 26 1 26 27
M  V30 27 1 3 28
M  V30 28 2 28 29
M  V30 29 1 29 30
M  V30 30 2 30 31
M  V30 31 1 31 2
M  V30 32 1 27 5
M  V30 33 1 22 16
M  V30 34 1 1 32
M  V30 35 1 1 33
M  V30 36 1 4 34
M  V30 37 1 4 35
M  V30 38 1 6 36
M  V30 39 1 6 37
M  V30 40 1 7 38
M  V30 41 1 7 39
M  V30 42 1 9 40
M  V30 43 1 9 41
M  V30 44 1 10 42
M  V30 45 1 10 43
M  V30 46 1 12 44
M  V30 47 1 12 45
M  V30 48 1 13 46
M  V30 49 1 13 47
M  V30 50 1 15 48
M  V30 51 1 15 49
M  V30 52 1 18 50
M  V30 53 1 18 51
M  V30 54 1 19 52
M  V30 55 1 20 53
M  V30 56 1 21 54
M  V30 57 1 22 55
M  V30 58 1 23 56
M  V30 59 1 23 57
M  V30 60 1 24 58
M  V30 61 1 24 59
M  V30 62 1 26 60
M  V30 63 1 26 61
M  V30 64 1 27 62
M  V30 65 1 27 63
M  V30 66 1 28 64
M  V30 67 1 29 65
M  V30 68 1 30 66
M  V30 69 1 31 67
M  V30 END BOND
M  V30 END CTAB
M  END
