
     RDKit          3D

  0  0  0  0  0  0  0  0  0  0999 V3000
M  V30 BEGIN CTAB
M  V30 COUNTS 39 41 0 0 0
M  V30 BEGIN ATOM
M  V30 1 N 6.84904 -1.9758 0.865209 0
M  V30 2 C 6.60511 -0.654488 0.415524 0
M  V30 3 N 7.59469 0.0902392 0.171767 0
M  V30 4 C 5.24411 -0.189514 0.246372 0
M  V30 5 C 4.92539 1.08618 -0.188336 0
M  V30 6 C 3.60091 1.4582 -0.325759 0
M  V30 7 C 2.58784 0.576808 -0.0360347 0
M  V30 8 C 2.90599 -0.693218 0.396767 0
M  V30 9 C 4.20126 -1.07484 0.537166 0
M  V30 10 C 1.1702 0.965179 -0.179952 0
M  V30 11 C 0.0915469 0.151174 0.0866559 0
M  V30 12 C -1.05408 0.881772 -0.170916 0
M  V30 13 C -0.614388 2.11902 -0.586525 0
M  V30 14 O 0.692902 2.11508 -0.57389 0
M  V30 15 C -2.43766 0.436904 -0.0320042 0
M  V30 16 C -3.39864 0.958287 -0.87548 0
M  V30 17 C -4.71785 0.588105 -0.804443 0
M  V30 18 C -5.14351 -0.344146 0.138319 0
M  V30 19 C -4.17514 -0.857922 0.975117 0
M  V30 20 C -2.84193 -0.473316 0.891449 0
M  V30 21 C -6.54117 -0.71726 0.191953 0
M  V30 22 N -7.4587 -0.120327 -0.724547 0
M  V30 23 N -6.93767 -1.57375 1.05597 0
M  V30 24 H 7.34198 -2.08678 1.78927 0
M  V30 25 H 6.5678 -2.81734 0.332726 0
M  V30 26 H 7.55299 1.04954 -0.153599 0
M  V30 27 H 5.73342 1.79719 -0.422046 0
M  V30 28 H 3.34938 2.4431 -0.661347 0
M  V30 29 H 2.10246 -1.38724 0.624815 0
M  V30 30 H 4.45865 -2.08048 0.879821 0
M  V30 31 H 0.128003 -0.884534 0.438112 0
M  V30 32 H -1.30147 2.91355 -0.86181 0
M  V30 33 H -3.0715 1.68194 -1.60844 0
M  V30 34 H -5.4547 0.999411 -1.46413 0
M  V30 35 H -4.43846 -1.58928 1.73321 0
M  V30 36 H -2.14448 -0.914605 1.57487 0
M  V30 37 H -7.58774 -0.5372 -1.66809 0
M  V30 38 H -8.01348 0.726215 -0.488662 0
M  V30 39 H -6.37108 -2.06587 1.76169 0
M  V30 END ATOM
M  V30 BEGIN BOND
M  V30 1 1 1 2
M  V30 2 2 2 3 CFG=2
M  V30 3 1 2 4
M  V30 4 2 4 5
M  V30 5 1 5 6
M  V30 6 2 6 7
M  V30 7 1 7 8
M  V30 8 2 8 9
M  V30 9 1 7 10
M  V30 10 2 10 11
M  V30 11 1 11 12
M  V30 12 2 12 13
M  V30 13 1 13 14
M  V30 14 1 12 15
M  V30 15 2 15 16
M  V30 16 1 16 17
M  V30 17 2 17 18
M  V30 18 1 18 19
M  V30 19 2 19 20
M  V30 20 1 18 21
M  V30 21 1 21 22
M  V30 22 2 21 23 CFG=2
M  V30 23 1 9 4
M  V30 24 1 14 10
M  V30 25 1 20 15
M  V30 26 1 1 24
M  V30 27 1 1 25
M  V30 28 1 3 26
M  V30 29 1 5 27
M  V30 30 1 6 28
M  V30 31 1 8 29
M  V30 32 1 9 30
M  V30 33 1 11 31
M  V30 34 1 13 32
M  V30 35 1 16 33
M  V30 36 1 17 34
M  V30 37 1 19 35
M  V30 38 1 20 36
M  V30 39 1 22 37
M  V30 40 1 22 38
M  V30 41 1 23 39
M  V30 END BOND
M  V30 END CTAB
M  END
