
     RDKit          3D

  0  0  0  0  0  0  0  0  0  0999 V3000
M  V30 BEGIN CTAB
M  V30 COUNTS 19 19 0 0 0
M  V30 BEGIN ATOM
M  V30 1 N -3.5867 -1.19947 0.143378 0
M  V30 2 N -2.20511 -1.0796 0.138936 0
M  V30 3 C -1.53444 0.161724 0.261233 0
M  V30 4 O -2.16325 1.25335 0.38382 0
M  V30 5 C -0.0735103 0.141769 0.241105 0
M  V30 6 N 0.626617 -0.98392 0.114018 0
M  V30 7 C 1.96234 -1.00211 0.0956019 0
M  V30 8 Cl 2.77871 -2.54701 -0.0770423 0
M  V30 9 C 2.66518 0.181832 0.211484 0
M  V30 10 S 4.43035 0.116051 0.182763 0
M  V30 11 N 1.957 1.31323 0.339273 0
M  V30 12 C 0.613728 1.3416 0.358855 0
M  V30 13 N -0.0931885 2.56883 0.496708 0
M  V30 14 H -3.99087 -1.34246 1.0898 0
M  V30 15 H -3.94465 -1.87489 -0.566144 0
M  V30 16 H -1.64566 -1.94667 0.0408251 0
M  V30 17 H 4.86923 -1.08809 -0.390666 0
M  V30 18 H -0.127197 3.18697 -0.347543 0
M  V30 19 H -0.538581 2.79886 1.41018 0
M  V30 END ATOM
M  V30 BEGIN BOND
M  V30 1 1 1 2
M  V30 2 1 2 3
M  V30 3 2 3 4
M  V30 4 1 3 5
M  V30 5 2 5 6
M  V30 6 1 6 7
M  V30 7 1 7 8
M  V30 8 2 7 9
M  V30 9 1 9 10
M  V30 10 1 9 11
M  V30 11 2 11 12
M  V30 12 1 12 13
M  V30 13 1 12 5
M  V30 14 1 1 14
M  V30 15 1 1 15
M  V30 16 1 2 16
M  V30 17 1 10 17
M  V30 18 1 13 18
M  V30 19 1 13 19
M  V30 END BOND
M  V30 END CTAB
M  END
