
     RDKit          3D

  0  0  0  0  0  0  0  0  0  0999 V3000
M  V30 BEGIN CTAB
M  V30 COUNTS 34 35 0 0 0
M  V30 BEGIN ATOM
M  V30 1 O 0.123913 0.58991 -1.14521 0
M  V30 2 C 0.579635 -0.463547 -1.62536 0
M  V30 3 N 0.21937 -1.08598 -2.7991 0
M  V30 4 C -1.32715 -0.407895 -2.98492 0
M  V30 5 O -1.54914 -0.226394 -4.14739 0
M  V30 6 C -2.07185 -0.180324 -1.86172 0
M  V30 7 C -2.02503 -0.87641 -0.638771 0
M  V30 8 C -2.92185 -0.738315 0.385413 0
M  V30 9 C -3.96636 0.146021 0.231058 0
M  V30 10 C -4.06876 0.859921 -0.953515 0
M  V30 11 C -3.18273 0.720346 -1.9598 0
M  V30 12 N -3.30655 1.42139 -3.20266 0
M  V30 13 N 1.62819 -1.05941 -0.804433 0
M  V30 14 C 2.16795 -0.524094 0.361064 0
M  V30 15 C 2.68157 -1.37774 1.3303 0
M  V30 16 C 3.27854 -0.962851 2.4925 0
M  V30 17 C 3.37933 0.405002 2.72156 0
M  V30 18 C 2.89107 1.2779 1.80354 0
M  V30 19 C 2.28913 0.816444 0.631118 0
M  V30 20 N 3.99304 0.933878 3.89781 0
M  V30 21 H -0.0305284 -1.5176 -3.61312 0
M  V30 22 H -1.27171 -1.66019 -0.473919 0
M  V30 23 H -2.84819 -1.31006 1.32697 0
M  V30 24 H -4.66489 0.249241 1.03739 0
M  V30 25 H -4.90814 1.54668 -1.03157 0
M  V30 26 H -3.82487 0.977728 -3.98277 0
M  V30 27 H -2.89115 2.34957 -3.33856 0
M  V30 28 H 1.991 -2.003 -1.15972 0
M  V30 29 H 2.60477 -2.44558 1.16424 0
M  V30 30 H 3.6756 -1.61544 3.24834 0
M  V30 31 H 2.94318 2.36809 1.93238 0
M  V30 32 H 1.93807 1.5463 -0.0533379 0
M  V30 33 H 4.06233 1.94847 4.07231 0
M  V30 34 H 4.4122 0.297945 4.6409 0
M  V30 END ATOM
M  V30 BEGIN BOND
M  V30 1 2 1 2
M  V30 2 1 2 3
M  V30 3 1 3 4
M  V30 4 2 4 5
M  V30 5 1 4 6
M  V30 6 2 6 7
M  V30 7 1 7 8
M  V30 8 2 8 9
M  V30 9 1 9 10
M  V30 10 2 10 11
M  V30 11 1 11 12
M  V30 12 1 2 13
M  V30 13 1 13 14
M  V30 14 2 14 15
M  V30 15 1 15 16
M  V30 16 2 16 17
M  V30 17 1 17 18
M  V30 18 2 18 19
M  V30 19 1 17 20
M  V30 20 1 11 6
M  V30 21 1 19 14
M  V30 22 1 3 21
M  V30 23 1 7 22
M  V30 24 1 8 23
M  V30 25 1 9 24
M  V30 26 1 10 25
M  V30 27 1 12 26
M  V30 28 1 12 27
M  V30 29 1 13 28
M  V30 30 1 15 29
M  V30 31 1 16 30
M  V30 32 1 18 31
M  V30 33 1 19 32
M  V30 34 1 20 33
M  V30 35 1 20 34
M  V30 END BOND
M  V30 END CTAB
M  END
