
     RDKit          3D

  0  0  0  0  0  0  0  0  0  0999 V3000
M  V30 BEGIN CTAB
M  V30 COUNTS 32 32 0 0 0
M  V30 BEGIN ATOM
M  V30 1 N 3.9474 -0.0208582 -1.29013 0
M  V30 2 C 3.33304 -0.833647 -0.315958 0 CFG=1
M  V30 3 C 2.99068 0.0119615 0.896404 0
M  V30 4 C 1.58067 0.508841 0.642688 0
M  V30 5 N 1.02173 -0.38741 -0.317576 0
M  V30 6 C 2.00855 -1.38283 -0.761373 0
M  V30 7 C -0.312005 -0.350715 -0.80401 0
M  V30 8 O -0.675989 -1.22727 -1.66953 0
M  V30 9 C -1.3308 0.607599 -0.406515 0
M  V30 10 C -2.52375 -0.101211 0.230792 0
M  V30 11 C -3.17066 -1.07693 -0.7231 0
M  V30 12 C -3.54093 0.929006 0.639704 0
M  V30 13 N -0.896343 1.61413 0.502384 0
M  V30 14 H 3.57776 0.0102153 -2.1942 0
M  V30 15 H 4.51595 0.734096 -0.995582 0
M  V30 16 H 4.00721 -1.64756 -0.0430115 0
M  V30 17 H 3.03067 -0.571191 1.81862 0
M  V30 18 H 3.67272 0.859682 0.965457 0
M  V30 19 H 1.04857 0.480313 1.63881 0
M  V30 20 H 1.61212 1.54631 0.233728 0
M  V30 21 H 1.89559 -1.46266 -1.84528 0
M  V30 22 H 1.79596 -2.37606 -0.292162 0
M  V30 23 H -1.70427 1.11993 -1.35057 0
M  V30 24 H -2.19565 -0.657622 1.11957 0
M  V30 25 H -2.70595 -2.07988 -0.603303 0
M  V30 26 H -3.06307 -0.697973 -1.7433 0
M  V30 27 H -4.25652 -1.10448 -0.474537 0
M  V30 28 H -4.5578 0.4599 0.62405 0
M  V30 29 H -3.55584 1.73259 -0.120529 0
M  V30 30 H -3.35686 1.32693 1.65752 0
M  V30 31 H -1.03755 2.58311 0.172739 0
M  V30 32 H -1.15464 1.45368 1.48606 0
M  V30 END ATOM
M  V30 BEGIN BOND
M  V30 1 1 1 2
M  V30 2 1 2 3
M  V30 3 1 3 4
M  V30 4 1 4 5
M  V30 5 1 5 6
M  V30 6 1 5 7
M  V30 7 2 7 8
M  V30 8 1 7 9
M  V30 9 1 9 10
M  V30 10 1 10 11
M  V30 11 1 10 12
M  V30 12 1 9 13
M  V30 13 1 6 2
M  V30 14 1 1 14
M  V30 15 1 1 15
M  V30 16 1 2 16 CFG=1
M  V30 17 1 3 17
M  V30 18 1 3 18
M  V30 19 1 4 19
M  V30 20 1 4 20
M  V30 21 1 6 21
M  V30 22 1 6 22
M  V30 23 1 9 23
M  V30 24 1 10 24
M  V30 25 1 11 25
M  V30 26 1 11 26
M  V30 27 1 11 27
M  V30 28 1 12 28
M  V30 29 1 12 29
M  V30 30 1 12 30
M  V30 31 1 13 31
M  V30 32 1 13 32
M  V30 END BOND
M  V30 END CTAB
M  END
