
     RDKit          3D

  0  0  0  0  0  0  0  0  0  0999 V3000
M  V30 BEGIN CTAB
M  V30 COUNTS 41 43 0 0 0
M  V30 BEGIN ATOM
M  V30 1 O 0.547078 1.82574 -1.11512 0
M  V30 2 C -0.0303588 1.08225 -0.306481 0
M  V30 3 C -1.52533 1.23068 -0.104942 0
M  V30 4 S -2.2439 -0.372068 -0.554335 0
M  V30 5 C -4.03338 -0.314102 -0.352008 0
M  V30 6 N -4.64098 0.804559 0.0753506 0
M  V30 7 C -5.96166 0.887405 0.237762 0
M  V30 8 N -6.60548 2.08648 0.695082 0
M  V30 9 N -6.69717 -0.214553 -0.0464765 0
M  V30 10 C -6.12486 -1.35015 -0.475747 0
M  V30 11 N -4.78438 -1.38702 -0.625184 0
M  V30 12 N -6.92349 -2.49385 -0.767109 0
M  V30 13 C -1.7105 1.51409 1.37492 0
M  V30 14 N 0.626221 0.0998594 0.442039 0
M  V30 15 C 2.00299 -0.231494 0.434701 0
M  V30 16 C 2.43985 -1.27849 1.25922 0
M  V30 17 C 3.7535 -1.67874 1.32798 0
M  V30 18 C 4.70558 -1.0427 0.565412 0
M  V30 19 C 4.33023 -0.0136665 -0.25675 0
M  V30 20 C 2.98023 0.375033 -0.30744 0
M  V30 21 C 5.5421 0.472388 -0.948362 0
M  V30 22 C 6.6462 0.130663 0.0131539 0
M  V30 23 C 6.18748 -1.26894 0.450291 0
M  V30 24 H -1.91711 2.06437 -0.686052 0
M  V30 25 H -6.0683 2.78297 1.25802 0
M  V30 26 H -7.61321 2.25994 0.462819 0
M  V30 27 H -6.74369 -3.13605 -1.5668 0
M  V30 28 H -7.73694 -2.71122 -0.152524 0
M  V30 29 H -1.57834 0.568443 1.94234 0
M  V30 30 H -2.71814 1.92948 1.59484 0
M  V30 31 H -0.908906 2.2058 1.72039 0
M  V30 32 H -0.0171037 -0.465271 1.10307 0
M  V30 33 H 1.68072 -1.77816 1.86048 0
M  V30 34 H 4.04312 -2.50586 1.99124 0
M  V30 35 H 2.7335 1.17842 -0.958078 0
M  V30 36 H 5.50217 1.5507 -1.19411 0
M  V30 37 H 5.67841 -0.162681 -1.85272 0
M  V30 38 H 6.57819 0.79885 0.883492 0
M  V30 39 H 7.64078 0.0962613 -0.458862 0
M  V30 40 H 6.32291 -1.99986 -0.362885 0
M  V30 41 H 6.64197 -1.53952 1.40218 0
M  V30 END ATOM
M  V30 BEGIN BOND
M  V30 1 2 1 2
M  V30 2 1 2 3
M  V30 3 1 3 4
M  V30 4 1 4 5
M  V30 5 2 5 6
M  V30 6 1 6 7
M  V30 7 1 7 8
M  V30 8 2 7 9
M  V30 9 1 9 10
M  V30 10 2 10 11
M  V30 11 1 10 12
M  V30 12 1 3 13
M  V30 13 1 2 14
M  V30 14 1 14 15
M  V30 15 2 15 16
M  V30 16 1 16 17
M  V30 17 2 17 18
M  V30 18 1 18 19
M  V30 19 2 19 20
M  V30 20 1 19 21
M  V30 21 1 21 22
M  V30 22 1 22 23
M  V30 23 1 11 5
M  V30 24 1 20 15
M  V30 25 1 23 18
M  V30 26 1 3 24
M  V30 27 1 8 25
M  V30 28 1 8 26
M  V30 29 1 12 27
M  V30 30 1 12 28
M  V30 31 1 13 29
M  V30 32 1 13 30
M  V30 33 1 13 31
M  V30 34 1 14 32
M  V30 35 1 16 33
M  V30 36 1 17 34
M  V30 37 1 20 35
M  V30 38 1 21 36
M  V30 39 1 21 37
M  V30 40 1 22 38
M  V30 41 1 22 39
M  V30 42 1 23 40
M  V30 43 1 23 41
M  V30 END BOND
M  V30 END CTAB
M  END
