
     RDKit          3D

  0  0  0  0  0  0  0  0  0  0999 V3000
M  V30 BEGIN CTAB
M  V30 COUNTS 57 59 0 0 0
M  V30 BEGIN ATOM
M  V30 1 C -4.97215 -1.64843 0.845412 0
M  V30 2 C -3.80146 -1.42043 -0.0762133 0
M  V30 3 C -2.8018 -2.52414 0.121613 0
M  V30 4 C -4.23205 -1.27325 -1.51484 0
M  V30 5 Si -2.98629 0.157856 0.523708 0 VAL=4
M  V30 6 C -4.24623 1.52792 0.412656 0
M  V30 7 C -2.47887 -0.0834172 2.26841 0
M  V30 8 O -1.71907 0.578166 -0.520069 0
M  V30 9 C -0.447624 0.32874 0.064258 0 CFG=1
M  V30 10 C 0.3946 -0.420472 -0.998495 0
M  V30 11 C 1.82122 0.0242185 -0.548566 0 CFG=1
M  V30 12 O 1.68678 1.03277 0.310652 0
M  V30 13 C 0.344394 1.53123 0.131115 0 CFG=2
M  V30 14 C 0.144165 2.77394 0.894583 0
M  V30 15 O 0.418954 3.82277 -0.0880356 0
M  V30 16 S 1.70667 4.75773 0.322149 0
M  V30 17 N 1.59008 6.2914 -0.404016 0
M  V30 18 O 2.936 4.09001 -0.422148 0
M  V30 19 O 2.06508 4.8171 1.73006 0
M  V30 20 N 2.55916 -1.14432 -0.210956 0
M  V30 21 C 2.13643 -2.4177 -0.143853 0
M  V30 22 N 3.22672 -3.24775 0.0411127 0
M  V30 23 C 4.30311 -2.43544 0.0792982 0
M  V30 24 C 3.93439 -1.10481 -0.0696424 0
M  V30 25 N 4.88463 -0.188112 -0.0645988 0
M  V30 26 C 6.13183 -0.539111 0.0724426 0
M  V30 27 N 6.58938 -1.82445 0.221492 0
M  V30 28 C 5.63773 -2.81071 0.222117 0
M  V30 29 N 6.01888 -4.2143 0.309108 0
M  V30 30 H -5.27931 -0.68869 1.34391 0
M  V30 31 H -4.70102 -2.32163 1.69437 0
M  V30 32 H -5.86558 -2.02289 0.328204 0
M  V30 33 H -3.30327 -3.44996 0.419654 0
M  V30 34 H -2.10236 -2.66242 -0.73452 0
M  V30 35 H -2.12795 -2.24219 0.978528 0
M  V30 36 H -3.33578 -1.18912 -2.15671 0
M  V30 37 H -4.88257 -2.12007 -1.75656 0
M  V30 38 H -4.74095 -0.277524 -1.60468 0
M  V30 39 H -5.26839 1.15504 0.389168 0
M  V30 40 H -4.06264 2.28283 1.22667 0
M  V30 41 H -4.10274 2.14255 -0.527128 0
M  V30 42 H -3.2999 -0.663915 2.76896 0
M  V30 43 H -1.57697 -0.66066 2.45971 0
M  V30 44 H -2.43115 0.891546 2.84439 0
M  V30 45 H -0.452148 -0.225453 0.953559 0
M  V30 46 H 0.187341 -1.45146 -1.03127 0
M  V30 47 H 0.156603 0.119601 -1.97783 0
M  V30 48 H 2.30821 0.502953 -1.49207 0
M  V30 49 H 0.518508 1.89035 -1.02543 0
M  V30 50 H 0.763702 2.90409 1.77562 0
M  V30 51 H -0.90028 2.94097 1.16265 0
M  V30 52 H 2.49767 6.51183 -0.890724 0
M  V30 53 H 0.838025 6.20391 -1.15458 0
M  V30 54 H 1.14262 -2.79894 -0.213616 0
M  V30 55 H 6.94851 0.178105 0.0726415 0
M  V30 56 H 6.90649 -4.58063 -0.0948899 0
M  V30 57 H 5.32067 -4.80527 0.793024 0
M  V30 END ATOM
M  V30 BEGIN BOND
M  V30 1 1 1 2
M  V30 2 1 2 3
M  V30 3 1 2 4
M  V30 4 1 2 5
M  V30 5 1 5 6
M  V30 6 1 5 7
M  V30 7 1 5 8
M  V30 8 1 8 9
M  V30 9 1 9 10
M  V30 10 1 10 11
M  V30 11 1 11 12
M  V30 12 1 12 13
M  V30 13 1 13 14
M  V30 14 1 14 15
M  V30 15 1 15 16
M  V30 16 1 16 17
M  V30 17 2 16 18
M  V30 18 2 16 19
M  V30 19 1 11 20
M  V30 20 1 20 21
M  V30 21 2 21 22
M  V30 22 1 22 23
M  V30 23 2 23 24
M  V30 24 1 24 25
M  V30 25 2 25 26
M  V30 26 1 26 27
M  V30 27 2 27 28
M  V30 28 1 28 29
M  V30 29 1 13 9
M  V30 30 1 24 20
M  V30 31 1 28 23
M  V30 32 1 1 30
M  V30 33 1 1 31
M  V30 34 1 1 32
M  V30 35 1 3 33
M  V30 36 1 3 34
M  V30 37 1 3 35
M  V30 38 1 4 36
M  V30 39 1 4 37
M  V30 40 1 4 38
M  V30 41 1 6 39
M  V30 42 1 6 40
M  V30 43 1 6 41
M  V30 44 1 7 42
M  V30 45 1 7 43
M  V30 46 1 7 44
M  V30 47 1 9 45 CFG=1
M  V30 48 1 10 46
M  V30 49 1 10 47
M  V30 50 1 11 48 CFG=3
M  V30 51 1 13 49 CFG=3
M  V30 52 1 14 50
M  V30 53 1 14 51
M  V30 54 1 17 52
M  V30 55 1 17 53
M  V30 56 1 21 54
M  V30 57 1 26 55
M  V30 58 1 29 56
M  V30 59 1 29 57
M  V30 END BOND
M  V30 END CTAB
M  END
