
     RDKit          3D

  0  0  0  0  0  0  0  0  0  0999 V3000
M  V30 BEGIN CTAB
M  V30 COUNTS 79 81 0 0 0
M  V30 BEGIN ATOM
M  V30 1 C -8.39274 4.00656 -3.04775 0
M  V30 2 C -7.54451 4.74595 -2.05123 0
M  V30 3 C -6.77735 3.73542 -1.20297 0
M  V30 4 C -5.88902 2.87624 -2.08323 0
M  V30 5 O -5.19095 1.94388 -1.24646 0
M  V30 6 C -4.32446 1.03586 -1.79623 0
M  V30 7 O -4.16092 1.04381 -3.04941 0
M  V30 8 C -3.60988 0.0788847 -0.921081 0
M  V30 9 C -3.95429 0.362524 0.507887 0
M  V30 10 C -3.25469 -0.61618 1.4087 0
M  V30 11 N -1.84034 -0.550785 1.28768 0
M  V30 12 C -0.945996 -0.359984 2.37345 0
M  V30 13 O -1.44827 -0.247283 3.52289 0
M  V30 14 C 0.491164 -0.299265 2.15789 0
M  V30 15 C 1.04193 0.0422065 0.941929 0
M  V30 16 C 2.40669 0.0865576 0.749918 0
M  V30 17 C 3.29097 -0.208892 1.76618 0
M  V30 18 C 2.76003 -0.552776 2.99077 0
M  V30 19 C 1.39434 -0.595797 3.1781 0
M  V30 20 N 4.71604 -0.150352 1.54363 0
M  V30 21 C 5.42753 -1.27751 0.983091 0
M  V30 22 C 5.42838 1.03988 1.89369 0
M  V30 23 C 6.85892 0.895109 1.53386 0
M  V30 24 N 7.34121 1.39736 0.380382 0
M  V30 25 C 8.63765 1.26893 0.0403711 0
M  V30 26 C 9.53543 0.617238 0.85537 0
M  V30 27 N 9.04475 0.110733 2.02115 0
M  V30 28 C 7.74924 0.235793 2.36718 0
M  V30 29 N 10.8039 0.511933 0.483498 0
M  V30 30 C 11.3088 1.00617 -0.665615 0
M  V30 31 N 12.6746 0.861777 -1.00886 0
M  V30 32 N 10.4317 1.65203 -1.47834 0
M  V30 33 C 9.13416 1.7882 -1.15144 0
M  V30 34 N 8.20094 2.45382 -1.97706 0
M  V30 35 C -3.71558 -2.02159 1.06707 0
M  V30 36 O -2.85216 -2.873 0.76277 0
M  V30 37 O -4.99965 -2.38125 1.07853 0
M  V30 38 C -5.78469 -3.45399 0.843573 0
M  V30 39 C -5.91807 -4.03783 -0.504401 0
M  V30 40 C -4.77803 -4.66529 -1.18638 0
M  V30 41 C -4.21607 -5.87247 -0.45861 0
M  V30 42 H -8.4455 2.94508 -2.755 0
M  V30 43 H -7.95299 4.03943 -4.07666 0
M  V30 44 H -9.42138 4.42445 -3.05925 0
M  V30 45 H -8.15867 5.38772 -1.41954 0
M  V30 46 H -6.78193 5.36613 -2.56664 0
M  V30 47 H -7.52776 3.10697 -0.709094 0
M  V30 48 H -6.199 4.29595 -0.456784 0
M  V30 49 H -5.12965 3.45835 -2.60937 0
M  V30 50 H -6.51009 2.31418 -2.80362 0
M  V30 51 H -2.50544 0.196442 -1.06553 0
M  V30 52 H -3.94188 -0.949154 -1.17409 0
M  V30 53 H -3.58602 1.38543 0.807226 0
M  V30 54 H -5.0585 0.375668 0.682331 0
M  V30 55 H -3.59832 -0.490506 2.47916 0
M  V30 56 H -1.42119 -0.65826 0.341476 0
M  V30 57 H 0.346494 0.283072 0.121561 0
M  V30 58 H 2.77443 0.362897 -0.232615 0
M  V30 59 H 3.42044 -0.791728 3.81446 0
M  V30 60 H 0.970965 -0.86803 4.14985 0
M  V30 61 H 4.68479 -1.91762 0.449866 0
M  V30 62 H 6.24685 -0.970338 0.310123 0
M  V30 63 H 5.82461 -1.87465 1.82738 0
M  V30 64 H 5.34318 1.28136 2.98375 0
M  V30 65 H 4.98223 1.92935 1.3744 0
M  V30 66 H 7.39393 -0.178167 3.29902 0
M  V30 67 H 13.3771 0.734426 -0.258587 0
M  V30 68 H 12.982 0.881212 -1.99607 0
M  V30 69 H 7.55897 1.8989 -2.564 0
M  V30 70 H 8.15053 3.48498 -2.00338 0
M  V30 71 H -5.57131 -4.28001 1.61564 0
M  V30 72 H -6.84342 -3.15308 1.18365 0
M  V30 73 H -6.28456 -3.20209 -1.20064 0
M  V30 74 H -6.80954 -4.74259 -0.526601 0
M  V30 75 H -3.9758 -3.98751 -1.50739 0
M  V30 76 H -5.20518 -5.09611 -2.1652 0
M  V30 77 H -3.28357 -5.63675 0.0836415 0
M  V30 78 H -4.98467 -6.33231 0.209768 0
M  V30 79 H -3.94096 -6.6557 -1.19429 0
M  V30 END ATOM
M  V30 BEGIN BOND
M  V30 1 1 1 2
M  V30 2 1 2 3
M  V30 3 1 3 4
M  V30 4 1 4 5
M  V30 5 1 5 6
M  V30 6 2 6 7
M  V30 7 1 6 8
M  V30 8 1 8 9
M  V30 9 1 9 10
M  V30 10 1 10 11
M  V30 11 1 11 12
M  V30 12 2 12 13
M  V30 13 1 12 14
M  V30 14 2 14 15
M  V30 15 1 15 16
M  V30 16 2 16 17
M  V30 17 1 17 18
M  V30 18 2 18 19
M  V30 19 1 17 20
M  V30 20 1 20 21
M  V30 21 1 20 22
M  V30 22 1 22 23
M  V30 23 2 23 24
M  V30 24 1 24 25
M  V30 25 2 25 26
M  V30 26 1 26 27
M  V30 27 2 27 28
M  V30 28 1 26 29
M  V30 29 2 29 30
M  V30 30 1 30 31
M  V30 31 1 30 32
M  V30 32 2 32 33
M  V30 33 1 33 34
M  V30 34 1 10 35
M  V30 35 2 35 36
M  V30 36 1 35 37
M  V30 37 1 37 38
M  V30 38 1 38 39
M  V30 39 1 39 40
M  V30 40 1 40 41
M  V30 41 1 19 14
M  V30 42 1 28 23
M  V30 43 1 33 25
M  V30 44 1 1 42
M  V30 45 1 1 43
M  V30 46 1 1 44
M  V30 47 1 2 45
M  V30 48 1 2 46
M  V30 49 1 3 47
M  V30 50 1 3 48
M  V30 51 1 4 49
M  V30 52 1 4 50
M  V30 53 1 8 51
M  V30 54 1 8 52
M  V30 55 1 9 53
M  V30 56 1 9 54
M  V30 57 1 10 55
M  V30 58 1 11 56
M  V30 59 1 15 57
M  V30 60 1 16 58
M  V30 61 1 18 59
M  V30 62 1 19 60
M  V30 63 1 21 61
M  V30 64 1 21 62
M  V30 65 1 21 63
M  V30 66 1 22 64
M  V30 67 1 22 65
M  V30 68 1 28 66
M  V30 69 1 31 67
M  V30 70 1 31 68
M  V30 71 1 34 69
M  V30 72 1 34 70
M  V30 73 1 38 71
M  V30 74 1 38 72
M  V30 75 1 39 73
M  V30 76 1 39 74
M  V30 77 1 40 75
M  V30 78 1 40 76
M  V30 79 1 41 77
M  V30 80 1 41 78
M  V30 81 1 41 79
M  V30 END BOND
M  V30 END CTAB
M  END
