
     RDKit          3D

  0  0  0  0  0  0  0  0  0  0999 V3000
M  V30 BEGIN CTAB
M  V30 COUNTS 43 44 0 0 0
M  V30 BEGIN ATOM
M  V30 1 N -4.14826 -2.63403 -2.35456 0
M  V30 2 C -4.70699 -1.95303 -1.60349 0
M  V30 3 C -5.40585 -1.06636 -0.647116 0
M  V30 4 C -4.79421 0.303556 -0.629872 0
M  V30 5 S -3.07148 0.348283 -0.155304 0
M  V30 6 C -2.85099 -0.017256 1.5661 0
M  V30 7 C -3.92697 -0.162997 2.40532 0
M  V30 8 C -3.81088 -0.46809 3.74917 0
M  V30 9 C -2.52716 -0.623005 4.22184 0
M  V30 10 C -1.40968 -0.487839 3.4266 0
M  V30 11 C -1.54438 -0.184615 2.09231 0
M  V30 12 N -0.485648 -0.0160506 1.17223 0
M  V30 13 C 0.866915 -0.151867 1.51359 0
M  V30 14 O 1.32586 -0.427373 2.61843 0
M  V30 15 C 1.86966 0.0606418 0.417177 0
M  V30 16 S 3.56265 -0.147743 1.0171 0
M  V30 17 C 4.64835 0.126772 -0.385172 0
M  V30 18 N 5.11899 1.34827 -0.692159 0
M  V30 19 C 5.93442 1.59692 -1.7333 0
M  V30 20 N 6.41204 2.89983 -2.02914 0
M  V30 21 C 6.32466 0.553792 -2.54843 0
M  V30 22 C 5.84844 -0.698389 -2.2425 0
M  V30 23 N 5.03494 -0.889037 -1.18802 0
M  V30 24 N 6.22145 -1.79995 -3.0474 0
M  V30 25 C -5.02177 0.997334 -1.9752 0
M  V30 26 H -6.48059 -0.986176 -0.908275 0
M  V30 27 H -5.34721 -1.53966 0.331112 0
M  V30 28 H -5.37888 0.892386 0.133769 0
M  V30 29 H -4.9482 -0.0200118 2.01998 0
M  V30 30 H -4.67057 -0.574514 4.37243 0
M  V30 31 H -2.38542 -0.867266 5.28749 0
M  V30 32 H -0.459433 -0.628144 3.89227 0
M  V30 33 H -0.746212 0.229235 0.162693 0
M  V30 34 H 1.69231 -0.655865 -0.405693 0
M  V30 35 H 1.70815 1.11178 0.0381677 0
M  V30 36 H 7.39967 3.12904 -1.89114 0
M  V30 37 H 5.75503 3.62121 -2.38675 0
M  V30 38 H 6.98507 0.722963 -3.40005 0
M  V30 39 H 6.181 -2.79296 -2.73999 0
M  V30 40 H 6.55939 -1.6075 -4.01317 0
M  V30 41 H -4.13298 0.883046 -2.63161 0
M  V30 42 H -5.92253 0.518658 -2.40774 0
M  V30 43 H -5.27271 2.05601 -1.78106 0
M  V30 END ATOM
M  V30 BEGIN BOND
M  V30 1 3 1 2
M  V30 2 1 2 3
M  V30 3 1 3 4
M  V30 4 1 4 5
M  V30 5 1 5 6
M  V30 6 2 6 7
M  V30 7 1 7 8
M  V30 8 2 8 9
M  V30 9 1 9 10
M  V30 10 2 10 11
M  V30 11 1 11 12
M  V30 12 1 12 13
M  V30 13 2 13 14
M  V30 14 1 13 15
M  V30 15 1 15 16
M  V30 16 1 16 17
M  V30 17 2 17 18
M  V30 18 1 18 19
M  V30 19 1 19 20
M  V30 20 2 19 21
M  V30 21 1 21 22
M  V30 22 2 22 23
M  V30 23 1 22 24
M  V30 24 1 4 25
M  V30 25 1 11 6
M  V30 26 1 23 17
M  V30 27 1 3 26
M  V30 28 1 3 27
M  V30 29 1 4 28
M  V30 30 1 7 29
M  V30 31 1 8 30
M  V30 32 1 9 31
M  V30 33 1 10 32
M  V30 34 1 12 33
M  V30 35 1 15 34
M  V30 36 1 15 35
M  V30 37 1 20 36
M  V30 38 1 20 37
M  V30 39 1 21 38
M  V30 40 1 24 39
M  V30 41 1 24 40
M  V30 42 1 25 41
M  V30 43 1 25 42
M  V30 44 1 25 43
M  V30 END BOND
M  V30 END CTAB
M  END
