
     RDKit          3D

  0  0  0  0  0  0  0  0  0  0999 V3000
M  V30 BEGIN CTAB
M  V30 COUNTS 38 39 0 0 0
M  V30 BEGIN ATOM
M  V30 1 N 3.32631 -2.6358 2.20939 0
M  V30 2 N 2.52207 -2.06274 1.20907 0
M  V30 3 C 2.99978 -1.11267 0.288814 0
M  V30 4 O 4.23946 -0.800864 0.412416 0
M  V30 5 C 2.26042 -0.449247 -0.78155 0
M  V30 6 N 0.871744 -0.731118 -0.897718 0
M  V30 7 C 0.0191801 -0.170774 0.107417 0
M  V30 8 C -1.38289 -0.56242 -0.167483 0
M  V30 9 C -2.35212 -0.493952 0.843073 0
M  V30 10 C -3.66839 -0.842664 0.639005 0
M  V30 11 Br -4.9524 -0.727257 2.06492 0
M  V30 12 C -4.07439 -1.28032 -0.601571 0
M  V30 13 C -3.15769 -1.35753 -1.602 0
M  V30 14 C -1.84097 -1.00596 -1.38825 0
M  V30 15 N -0.93433 -1.12083 -2.50281 0
M  V30 16 C 0.173326 1.32918 0.179524 0
M  V30 17 C 0.271018 2.09798 -0.966908 0
M  V30 18 C 0.403563 3.45059 -0.822065 0
M  V30 19 C 0.442898 4.07018 0.408 0
M  V30 20 C 0.34509 3.30252 1.55148 0
M  V30 21 C 0.212251 1.94471 1.40981 0
M  V30 22 H 2.73219 -2.73489 3.05709 0
M  V30 23 H 3.73621 -3.53889 1.96259 0
M  V30 24 H 1.54492 -2.41103 1.18282 0
M  V30 25 H 2.49323 0.640837 -0.783453 0
M  V30 26 H 2.72356 -0.812041 -1.75361 0
M  V30 27 H 0.79845 -1.79751 -0.758241 0
M  V30 28 H 0.292962 -0.512345 1.13153 0
M  V30 29 H -2.01638 -0.148695 1.80956 0
M  V30 30 H -5.12739 -1.55322 -0.740925 0
M  V30 31 H -3.44958 -1.6948 -2.57552 0
M  V30 32 H -0.760586 -0.25271 -3.04209 0
M  V30 33 H -0.481733 -2.00196 -2.7624 0
M  V30 34 H 0.241903 1.59618 -1.9211 0
M  V30 35 H 0.480248 4.04027 -1.73002 0
M  V30 36 H 0.55233 5.16348 0.478468 0
M  V30 37 H 0.376788 3.80174 2.51454 0
M  V30 38 H 0.13895 1.37454 2.33818 0
M  V30 END ATOM
M  V30 BEGIN BOND
M  V30 1 1 1 2
M  V30 2 1 2 3
M  V30 3 2 3 4
M  V30 4 1 3 5
M  V30 5 1 5 6
M  V30 6 1 6 7
M  V30 7 1 7 8
M  V30 8 2 8 9
M  V30 9 1 9 10
M  V30 10 1 10 11
M  V30 11 2 10 12
M  V30 12 1 12 13
M  V30 13 2 13 14
M  V30 14 1 14 15
M  V30 15 1 7 16
M  V30 16 2 16 17
M  V30 17 1 17 18
M  V30 18 2 18 19
M  V30 19 1 19 20
M  V30 20 2 20 21
M  V30 21 1 14 8
M  V30 22 1 21 16
M  V30 23 1 1 22
M  V30 24 1 1 23
M  V30 25 1 2 24
M  V30 26 1 5 25
M  V30 27 1 5 26
M  V30 28 1 6 27
M  V30 29 1 7 28
M  V30 30 1 9 29
M  V30 31 1 12 30
M  V30 32 1 13 31
M  V30 33 1 15 32
M  V30 34 1 15 33
M  V30 35 1 17 34
M  V30 36 1 18 35
M  V30 37 1 19 36
M  V30 38 1 20 37
M  V30 39 1 21 38
M  V30 END BOND
M  V30 END CTAB
M  END
