
     RDKit          3D

  0  0  0  0  0  0  0  0  0  0999 V3000
M  V30 BEGIN CTAB
M  V30 COUNTS 32 33 0 0 0
M  V30 BEGIN ATOM
M  V30 1 C -3.47416 2.49742 0.33371 0
M  V30 2 O -2.80921 1.24569 0.166757 0
M  V30 3 C -1.4294 1.1611 0.28583 0
M  V30 4 O -0.80596 2.21639 0.542213 0
M  V30 5 C -0.692047 -0.099452 0.124292 0
M  V30 6 C -1.04912 -0.846246 -1.15865 0
M  V30 7 C -1.22662 -2.12629 -0.334004 0
M  V30 8 C -1.34171 -1.22234 0.870345 0
M  V30 9 N -2.40645 -2.84716 -0.697574 0
M  V30 10 C 0.770257 0.0389882 0.223263 0
M  V30 11 C 1.56295 -0.784862 0.99334 0
M  V30 12 C 2.95453 -0.649636 1.06937 0
M  V30 13 C 3.56366 0.351965 0.342245 0
M  V30 14 C 2.76944 1.17755 -0.429829 0
M  V30 15 C 1.39851 1.04501 -0.505477 0
M  V30 16 N 4.97274 0.555905 0.365409 0
M  V30 17 H -3.12085 2.92233 1.30052 0
M  V30 18 H -4.56314 2.32819 0.374492 0
M  V30 19 H -3.18519 3.16153 -0.498432 0
M  V30 20 H -1.98993 -0.462725 -1.58726 0
M  V30 21 H -0.220077 -0.9007 -1.87779 0
M  V30 22 H -0.321488 -2.73313 -0.288553 0
M  V30 23 H -2.4096 -0.994447 1.16106 0
M  V30 24 H -0.823816 -1.5634 1.77012 0
M  V30 25 H -3.06304 -3.01721 0.0797232 0
M  V30 26 H -2.84608 -2.54343 -1.58431 0
M  V30 27 H 1.14824 -1.58083 1.57746 0
M  V30 28 H 3.53657 -1.31919 1.68705 0
M  V30 29 H 3.22283 1.98452 -1.02069 0
M  V30 30 H 0.838522 1.73564 -1.14874 0
M  V30 31 H 5.47436 1.00089 -0.43502 0
M  V30 32 H 5.56527 0.267912 1.18678 0
M  V30 END ATOM
M  V30 BEGIN BOND
M  V30 1 1 1 2
M  V30 2 1 2 3
M  V30 3 2 3 4
M  V30 4 1 3 5
M  V30 5 1 5 6
M  V30 6 1 6 7
M  V30 7 1 7 8
M  V30 8 1 7 9
M  V30 9 1 5 10
M  V30 10 2 10 11
M  V30 11 1 11 12
M  V30 12 2 12 13
M  V30 13 1 13 14
M  V30 14 2 14 15
M  V30 15 1 13 16
M  V30 16 1 8 5
M  V30 17 1 15 10
M  V30 18 1 1 17
M  V30 19 1 1 18
M  V30 20 1 1 19
M  V30 21 1 6 20
M  V30 22 1 6 21
M  V30 23 1 7 22
M  V30 24 1 8 23
M  V30 25 1 8 24
M  V30 26 1 9 25
M  V30 27 1 9 26
M  V30 28 1 11 27
M  V30 29 1 12 28
M  V30 30 1 14 29
M  V30 31 1 15 30
M  V30 32 1 16 31
M  V30 33 1 16 32
M  V30 END BOND
M  V30 END CTAB
M  END
