
     RDKit          3D

  0  0  0  0  0  0  0  0  0  0999 V3000
M  V30 BEGIN CTAB
M  V30 COUNTS 60 63 0 0 0
M  V30 BEGIN ATOM
M  V30 1 C -3.33201 -0.911856 -3.85872 0
M  V30 2 C -3.64244 -0.43153 -2.47978 0
M  V30 3 N -4.23521 -1.09558 -1.47451 0
M  V30 4 N -4.33821 -0.339885 -0.402574 0
M  V30 5 C -3.79298 0.876356 -0.703672 0
M  V30 6 C -3.34765 0.826127 -2.02453 0
M  V30 7 C -4.92318 -0.659731 0.845695 0
M  V30 8 C -4.33566 -1.60467 1.66828 0
M  V30 9 C -4.98615 -1.88136 2.85201 0
M  V30 10 C -6.18033 -1.27018 3.25675 0
M  V30 11 Cl -6.94936 -1.68183 4.79114 0
M  V30 12 C -6.72895 -0.337718 2.41214 0
M  V30 13 C -6.11908 -0.0309751 1.22557 0
M  V30 14 C -3.08861 -2.2427 1.27756 0
M  V30 15 O -1.96266 -1.35955 1.26801 0
M  V30 16 C -0.960787 -1.43739 0.342345 0
M  V30 17 C 0.0867007 -0.526862 0.4181 0
M  V30 18 C 1.12692 -0.55113 -0.482879 0
M  V30 19 N 1.06619 -1.50633 -1.43605 0
M  V30 20 C 0.0821373 -2.39661 -1.54392 0
M  V30 21 N 0.113669 -3.36247 -2.58645 0
M  V30 22 N -0.920653 -2.33906 -0.639402 0
M  V30 23 C 2.25152 0.385123 -0.44621 0
M  V30 24 C 2.38492 1.38107 0.491682 0
M  V30 25 C 3.48619 2.24716 0.47278 0
M  V30 26 C 4.47454 2.13617 -0.481579 0
M  V30 27 C 5.61994 3.07645 -0.459185 0
M  V30 28 C 6.76419 2.55567 0.380567 0 CFG=2
M  V30 29 N 6.40568 2.33257 1.74861 0
M  V30 30 C 7.87908 3.53188 0.270537 0
M  V30 31 O 8.39854 4.06763 1.45522 0
M  V30 32 O 8.36485 3.88859 -0.824344 0
M  V30 33 C 4.34349 1.1385 -1.42329 0
M  V30 34 C 3.26162 0.283099 -1.40943 0
M  V30 35 C -2.75108 -3.40353 2.20877 0
M  V30 36 F -1.55706 -4.01282 1.75766 0
M  V30 37 F -3.6925 -4.37146 2.27587 0
M  V30 38 F -2.44216 -2.95456 3.49101 0
M  V30 39 H -3.78414 -1.9144 -4.04584 0
M  V30 40 H -2.2442 -0.981002 -4.04713 0
M  V30 41 H -3.80767 -0.244146 -4.63535 0
M  V30 42 H -3.74135 1.6992 -0.00343812 0
M  V30 43 H -2.8637 1.66157 -2.54303 0
M  V30 44 H -4.64189 -2.61217 3.59094 0
M  V30 45 H -7.663 0.169278 2.68369 0
M  V30 46 H -6.52069 0.691219 0.543844 0
M  V30 47 H -3.19119 -2.71155 0.279456 0
M  V30 48 H 0.0729719 0.209704 1.20411 0
M  V30 49 H -0.768444 -3.82073 -2.92352 0
M  V30 50 H 1.00518 -3.63209 -3.03275 0
M  V30 51 H 1.62908 1.49509 1.25249 0
M  V30 52 H 3.57573 3.03531 1.22846 0
M  V30 53 H 5.29848 4.03089 -0.0214898 0
M  V30 54 H 5.99372 3.18022 -1.5008 0
M  V30 55 H 7.15534 1.59306 -0.0207351 0
M  V30 56 H 5.8617 3.11562 2.16947 0
M  V30 57 H 6.04007 1.39807 1.96454 0
M  V30 58 H 8.51078 5.06912 1.46771 0
M  V30 59 H 5.11868 1.05305 -2.17036 0
M  V30 60 H 3.14109 -0.50187 -2.13536 0
M  V30 END ATOM
M  V30 BEGIN BOND
M  V30 1 1 1 2
M  V30 2 2 2 3
M  V30 3 1 3 4
M  V30 4 1 4 5
M  V30 5 2 5 6
M  V30 6 1 4 7
M  V30 7 1 7 8
M  V30 8 2 8 9
M  V30 9 1 9 10
M  V30 10 1 10 11
M  V30 11 2 10 12
M  V30 12 1 12 13
M  V30 13 1 8 14
M  V30 14 1 14 15
M  V30 15 1 15 16
M  V30 16 2 16 17
M  V30 17 1 17 18
M  V30 18 2 18 19
M  V30 19 1 19 20
M  V30 20 1 20 21
M  V30 21 2 20 22
M  V30 22 1 18 23
M  V30 23 2 23 24
M  V30 24 1 24 25
M  V30 25 2 25 26
M  V30 26 1 26 27
M  V30 27 1 27 28
M  V30 28 1 28 29
M  V30 29 1 28 30
M  V30 30 1 30 31
M  V30 31 2 30 32
M  V30 32 1 26 33
M  V30 33 2 33 34
M  V30 34 1 14 35
M  V30 35 1 35 36
M  V30 36 1 35 37
M  V30 37 1 35 38
M  V30 38 1 6 2
M  V30 39 2 13 7
M  V30 40 1 22 16
M  V30 41 1 34 23
M  V30 42 1 1 39
M  V30 43 1 1 40
M  V30 44 1 1 41
M  V30 45 1 5 42
M  V30 46 1 6 43
M  V30 47 1 9 44
M  V30 48 1 12 45
M  V30 49 1 13 46
M  V30 50 1 14 47
M  V30 51 1 17 48
M  V30 52 1 21 49
M  V30 53 1 21 50
M  V30 54 1 24 51
M  V30 55 1 25 52
M  V30 56 1 27 53
M  V30 57 1 27 54
M  V30 58 1 28 55 CFG=3
M  V30 59 1 29 56
M  V30 60 1 29 57
M  V30 61 1 31 58
M  V30 62 1 33 59
M  V30 63 1 34 60
M  V30 END BOND
M  V30 END CTAB
M  END
