
     RDKit          3D

  0  0  0  0  0  0  0  0  0  0999 V3000
M  V30 BEGIN CTAB
M  V30 COUNTS 23 23 0 0 0
M  V30 BEGIN ATOM
M  V30 1 N -2.77527 0.476079 0.844964 0
M  V30 2 C -3.18048 0.115943 -0.443475 0
M  V30 3 N -2.31221 -0.118057 -1.33777 0
M  V30 4 N -0.968637 -0.0113913 -1.01789 0
M  V30 5 C -0.36824 -0.621537 -0.0905934 0
M  V30 6 C 1.05577 -0.392768 0.110443 0
M  V30 7 C 1.73755 -1.05985 1.13276 0
M  V30 8 C 3.07005 -0.840861 1.31499 0
M  V30 9 C 3.78102 0.0254309 0.518542 0
M  V30 10 C 3.09701 0.672671 -0.480856 0
M  V30 11 C 1.75481 0.476511 -0.693541 0
M  V30 12 O 1.03885 1.12648 -1.70682 0
M  V30 13 N -4.54411 0.0131103 -0.748296 0
M  V30 14 H -3.05895 -0.058282 1.68497 0
M  V30 15 H -2.16921 1.3043 0.98468 0
M  V30 16 H -0.91064 -1.30604 0.545134 0
M  V30 17 H 1.22235 -1.7414 1.77406 0
M  V30 18 H 3.61184 -1.35176 2.10449 0
M  V30 19 H 4.8426 0.21187 0.649438 0
M  V30 20 H 3.59998 1.36556 -1.13973 0
M  V30 21 H 1.57745 1.7596 -2.28259 0
M  V30 22 H -5.11887 0.865976 -0.840191 0
M  V30 23 H -4.98264 -0.911582 -0.882719 0
M  V30 END ATOM
M  V30 BEGIN BOND
M  V30 1 1 1 2
M  V30 2 2 2 3 CFG=2
M  V30 3 1 3 4
M  V30 4 2 4 5 CFG=2
M  V30 5 1 5 6
M  V30 6 2 6 7
M  V30 7 1 7 8
M  V30 8 2 8 9
M  V30 9 1 9 10
M  V30 10 2 10 11
M  V30 11 1 11 12
M  V30 12 1 2 13
M  V30 13 1 11 6
M  V30 14 1 1 14
M  V30 15 1 1 15
M  V30 16 1 5 16
M  V30 17 1 7 17
M  V30 18 1 8 18
M  V30 19 1 9 19
M  V30 20 1 10 20
M  V30 21 1 12 21
M  V30 22 1 13 22
M  V30 23 1 13 23
M  V30 END BOND
M  V30 END CTAB
M  END
