
     RDKit          3D

  0  0  0  0  0  0  0  0  0  0999 V3000
M  V30 BEGIN CTAB
M  V30 COUNTS 27 29 0 0 0
M  V30 BEGIN ATOM
M  V30 1 N -4.76435 -0.682629 -1.31958 0
M  V30 2 C -3.62333 -0.0906664 -0.718297 0
M  V30 3 C -2.36043 -0.599013 -0.929749 0
M  V30 4 C -1.21966 -0.0319791 -0.347236 0
M  V30 5 C -1.43181 1.06882 0.453645 0
M  V30 6 S 0.00118595 1.72044 1.1397 0
M  V30 7 C 1.40755 0.8723 0.691668 0
M  V30 8 C 2.68748 1.22518 1.13173 0
M  V30 9 C 3.80111 0.511417 0.745189 0
M  V30 10 C 3.62346 -0.563482 -0.0891794 0
M  V30 11 N 4.77962 -1.31612 -0.499248 0
M  V30 12 C 2.35965 -0.902176 -0.516361 0
M  V30 13 C 1.21225 -0.204585 -0.146603 0
M  V30 14 C -0.0177947 -0.606209 -0.616614 0
M  V30 15 O 0.00164859 -1.63062 -1.38614 0
M  V30 16 C -2.69776 1.60717 0.687285 0
M  V30 17 C -3.79037 1.0184 0.0949418 0
M  V30 18 H -5.15232 -1.58228 -1.00009 0
M  V30 19 H -5.21652 -0.185599 -2.10674 0
M  V30 20 H -2.29123 -1.46722 -1.57475 0
M  V30 21 H 2.73059 2.08208 1.78347 0
M  V30 22 H 4.77851 0.80425 1.09887 0
M  V30 23 H 4.67713 -2.3155 -0.746877 0
M  V30 24 H 5.72633 -0.859197 -0.549153 0
M  V30 25 H 2.30315 -1.77165 -1.17941 0
M  V30 26 H -2.73868 2.46184 1.32593 0
M  V30 27 H -4.78541 1.43703 0.275174 0
M  V30 END ATOM
M  V30 BEGIN BOND
M  V30 1 1 1 2
M  V30 2 2 2 3
M  V30 3 1 3 4
M  V30 4 2 4 5
M  V30 5 1 5 6
M  V30 6 1 6 7
M  V30 7 2 7 8
M  V30 8 1 8 9
M  V30 9 2 9 10
M  V30 10 1 10 11
M  V30 11 1 10 12
M  V30 12 2 12 13
M  V30 13 1 13 14
M  V30 14 2 14 15
M  V30 15 1 5 16
M  V30 16 2 16 17
M  V30 17 1 17 2
M  V30 18 1 14 4
M  V30 19 1 13 7
M  V30 20 1 1 18
M  V30 21 1 1 19
M  V30 22 1 3 20
M  V30 23 1 8 21
M  V30 24 1 9 22
M  V30 25 1 11 23
M  V30 26 1 11 24
M  V30 27 1 12 25
M  V30 28 1 16 26
M  V30 29 1 17 27
M  V30 END BOND
M  V30 END CTAB
M  END
