
     RDKit          3D

  0  0  0  0  0  0  0  0  0  0999 V3000
M  V30 BEGIN CTAB
M  V30 COUNTS 169 170 0 0 0
M  V30 BEGIN ATOM
M  V30 1 C -9.01939 0.208495 -2.4276 0 CFG=1
M  V30 2 C -9.83886 -0.890124 -1.81787 0
M  V30 3 C -9.76006 0.988046 -3.49149 0
M  V30 4 C -11.0263 1.62495 -3.02437 0
M  V30 5 C -8.0904 0.943684 -1.58401 0 CFG=2
M  V30 6 N -7.06701 0.128909 -0.976443 0
M  V30 7 C -5.76275 0.478677 -0.635084 0
M  V30 8 O -5.46382 1.70646 -0.944794 0
M  V30 9 C -4.82474 -0.391996 -0.00310654 0 CFG=2
M  V30 10 C -5.24276 -1.16861 1.20226 0
M  V30 11 C -6.31994 -2.15028 1.13228 0
M  V30 12 C -6.10353 -3.37429 0.533906 0
M  V30 13 C -7.02145 -4.38493 0.507636 0
M  V30 14 C -8.25394 -4.14144 1.1291 0
M  V30 15 O -9.23423 -5.14821 1.12931 0
M  V30 16 C -8.49499 -2.94956 1.72398 0
M  V30 17 C -7.55555 -1.95102 1.74043 0
M  V30 18 N -3.54053 0.213976 0.309986 0
M  V30 19 C -2.9736 0.519176 1.53177 0
M  V30 20 O -3.58376 0.292552 2.61695 0
M  V30 21 C -1.65289 1.11438 1.70092 0 CFG=2
M  V30 22 C -1.76076 2.52573 2.29628 0
M  V30 23 C -1.44396 3.45501 1.16931 0
M  V30 24 C -1.2322 2.56486 -0.0523084 0
M  V30 25 N -0.849523 1.30005 0.53525 0
M  V30 26 C 0.147012 0.406903 0.0620308 0
M  V30 27 O 0.189027 -0.678958 0.835066 0
M  V30 28 C 1.03079 0.571326 -1.04425 0 CFG=2
M  V30 29 C 0.44036 0.704606 -2.44953 0
M  V30 30 C -0.292979 -0.514307 -2.87608 0
M  V30 31 C -0.769203 -0.458518 -4.30233 0
M  V30 32 N -1.30261 -1.79015 -4.72172 0
M  V30 33 C -0.551977 -2.90378 -4.9091 0
M  V30 34 N 0.917483 -2.13325 -5.27214 0
M  V30 35 N -0.0868869 -3.98401 -5.02684 0
M  V30 36 N 2.04743 -0.4983 -1.15609 0
M  V30 37 C 3.24006 -0.587648 -0.414966 0
M  V30 38 O 3.507 0.229204 0.452678 0
M  V30 39 C 4.14399 -1.71137 -0.739138 0 CFG=2
M  V30 40 C 3.46012 -2.97669 -1.20086 0
M  V30 41 C 2.50631 -3.56389 -0.239398 0
M  V30 42 C 1.85692 -4.80252 -0.781205 0
M  V30 43 N 2.6667 -5.92832 -1.03268 0
M  V30 44 C 3.63321 -6.1124 -2.02353 0
M  V30 45 N 3.50653 -5.77981 -3.40081 0
M  V30 46 N 4.78367 -6.6486 -1.68627 0
M  V30 47 N 5.12516 -2.03047 0.221686 0
M  V30 48 C 6.55019 -1.88684 -0.00100668 0
M  V30 49 O 6.86828 -1.43737 -1.11439 0
M  V30 50 C 7.40657 -2.2828 1.08508 0
M  V30 51 N 8.79991 -2.10865 1.06548 0
M  V30 52 C 9.18737 -0.746342 1.49359 0
M  V30 53 C 8.84287 0.346297 0.59902 0
M  V30 54 N 9.25747 1.66039 1.17328 0
M  V30 55 C 10.6466 1.74108 1.19472 0
M  V30 56 C 11.1348 3.06172 1.75947 0
M  V30 57 N 12.5236 3.19403 1.84114 0
M  V30 58 C 13.1892 2.36236 2.73846 0
M  V30 59 C 12.8705 2.65471 4.15396 0
M  V30 60 O 12.1652 3.80123 4.46021 0
M  V30 61 O 13.2446 1.86129 5.07212 0
M  V30 62 C 13.1405 4.41787 1.52414 0
M  V30 63 C 13.0575 4.74971 0.0779594 0
M  V30 64 O 13.572 5.87717 -0.45841 0
M  V30 65 O 12.4507 3.89658 -0.680315 0
M  V30 66 C 8.57715 2.69145 0.466637 0
M  V30 67 C 7.09274 2.65768 0.782499 0
M  V30 68 O 6.67379 1.93766 1.89384 0
M  V30 69 O 6.3411 3.28918 0.0114011 0
M  V30 70 C 9.4584 -2.35958 -0.210308 0
M  V30 71 C 9.36831 -3.76124 -0.604793 0
M  V30 72 O 8.63872 -4.67907 0.0719662 0
M  V30 73 O 10.0162 -4.14423 -1.65093 0
M  V30 74 C -8.57898 1.90327 -0.570984 0
M  V30 75 O -8.02787 3.04833 -0.519049 0
M  V30 76 N -9.5994 1.60748 0.358938 0
M  V30 77 C -10.0339 2.63912 1.31759 0 CFG=1
M  V30 78 C -10.9817 2.00672 2.275 0
M  V30 79 C -11.5513 2.97286 3.27117 0
M  V30 80 C -12.5021 2.21842 4.20274 0
M  V30 81 C -12.4198 3.93735 2.4531 0
M  V30 82 C -8.79335 3.02558 2.13567 0
M  V30 83 O -8.77696 4.14614 2.9374 0
M  V30 84 O -7.77378 2.31249 2.07268 0
M  V30 85 H -8.28913 -0.421775 -3.12311 0
M  V30 86 H -9.97088 -1.69642 -2.60241 0
M  V30 87 H -9.36964 -1.40986 -0.976207 0
M  V30 88 H -10.8871 -0.549232 -1.6341 0
M  V30 89 H -9.06483 1.77699 -3.91872 0
M  V30 90 H -10.0227 0.342382 -4.34928 0
M  V30 91 H -11.016 2.13152 -2.06089 0
M  V30 92 H -11.3471 2.34832 -3.84234 0
M  V30 93 H -11.8885 0.908991 -2.98327 0
M  V30 94 H -7.48876 1.62832 -2.33657 0
M  V30 95 H -7.35778 -0.874809 -0.84139 0
M  V30 96 H -4.55947 -1.24767 -0.748816 0
M  V30 97 H -5.55949 -0.455583 2.03667 0
M  V30 98 H -4.33294 -1.6994 1.6041 0
M  V30 99 H -5.144 -3.59967 0.0233077 0
M  V30 100 H -6.87069 -5.33587 0.0550667 0
M  V30 101 H -9.91646 -5.20066 0.36576 0
M  V30 102 H -9.43801 -2.72692 2.20609 0
M  V30 103 H -7.78019 -1.00821 2.2289 0
M  V30 104 H -2.97967 0.425566 -0.582216 0
M  V30 105 H -1.11468 0.455182 2.45605 0
M  V30 106 H -2.77911 2.7151 2.69026 0
M  V30 107 H -1.05381 2.664 3.15638 0
M  V30 108 H -2.20121 4.2334 0.984587 0
M  V30 109 H -0.486466 4.02008 1.3151 0
M  V30 110 H -2.17191 2.5727 -0.598026 0
M  V30 111 H -0.432674 2.98915 -0.700913 0
M  V30 112 H 1.64645 1.47164 -0.859232 0
M  V30 113 H -0.184202 1.57899 -2.54345 0
M  V30 114 H 1.35236 0.908557 -3.08938 0
M  V30 115 H -1.24276 -0.657163 -2.26761 0
M  V30 116 H 0.269288 -1.42602 -2.7095 0
M  V30 117 H 0.0505919 -0.206311 -5.01341 0
M  V30 118 H -1.53912 0.306125 -4.39326 0
M  V30 119 H -2.35186 -1.83959 -4.86119 0
M  V30 120 H 1.5258 -2.16398 -4.52346 0
M  V30 121 H 0.841595 -1.81522 -6.1861 0
M  V30 122 H -0.894645 -4.82545 -4.83355 0
M  V30 123 H 1.87092 -1.26172 -1.83582 0
M  V30 124 H 4.75295 -1.41029 -1.67962 0
M  V30 125 H 3.0095 -2.89141 -2.21757 0
M  V30 126 H 4.30566 -3.72809 -1.32431 0
M  V30 127 H 3.03287 -3.77533 0.733069 0
M  V30 128 H 1.67416 -2.85002 -0.0155837 0
M  V30 129 H 1.38853 -4.47822 -1.78527 0
M  V30 130 H 0.920013 -5.06851 -0.183144 0
M  V30 131 H 2.51078 -6.75908 -0.370585 0
M  V30 132 H 2.62951 -5.99854 -3.90256 0
M  V30 133 H 4.26811 -5.32239 -3.95234 0
M  V30 134 H 4.93242 -6.9146 -0.687776 0
M  V30 135 H 4.82626 -2.40001 1.13993 0
M  V30 136 H 7.17107 -3.33889 1.45123 0
M  V30 137 H 7.0084 -1.68169 2.00434 0
M  V30 138 H 10.2994 -0.847895 1.67621 0
M  V30 139 H 8.75414 -0.637331 2.51686 0
M  V30 140 H 9.4246 0.250571 -0.371632 0
M  V30 141 H 7.77989 0.490191 0.367925 0
M  V30 142 H 11.0194 0.940599 1.92074 0
M  V30 143 H 11.0659 1.52819 0.1986 0
M  V30 144 H 10.6718 3.13071 2.76726 0
M  V30 145 H 10.6973 3.92008 1.16558 0
M  V30 146 H 14.3279 2.48773 2.58627 0
M  V30 147 H 12.975 1.28968 2.52618 0
M  V30 148 H 12.6208 4.65862 4.72324 0
M  V30 149 H 14.2361 4.40245 1.77612 0
M  V30 150 H 12.7305 5.29456 2.10416 0
M  V30 151 H 13.0899 6.51951 -1.09845 0
M  V30 152 H 8.92122 3.70475 0.60581 0
M  V30 153 H 8.64347 2.46238 -0.639828 0
M  V30 154 H 6.23458 2.45568 2.63073 0
M  V30 155 H 9.2623 -1.62438 -0.981291 0
M  V30 156 H 10.5659 -2.1943 0.0486614 0
M  V30 157 H 8.86667 -5.68422 -0.0328899 0
M  V30 158 H -10.0179 0.667326 0.365665 0
M  V30 159 H -10.2985 3.56122 0.819226 0
M  V30 160 H -11.8205 1.46781 1.78296 0
M  V30 161 H -10.4339 1.21136 2.86731 0
M  V30 162 H -10.7792 3.46629 3.8429 0
M  V30 163 H -12.2331 1.14181 4.23856 0
M  V30 164 H -12.4321 2.64046 5.20794 0
M  V30 165 H -13.5123 2.32837 3.80935 0
M  V30 166 H -11.7515 4.76902 2.11872 0
M  V30 167 H -12.8922 3.42943 1.58404 0
M  V30 168 H -13.2 4.36653 3.10355 0
M  V30 169 H -9.18344 5.02882 2.5758 0
M  V30 END ATOM
M  V30 BEGIN BOND
M  V30 1 1 1 2
M  V30 2 1 1 3
M  V30 3 1 3 4
M  V30 4 1 1 5
M  V30 5 1 5 6
M  V30 6 1 6 7
M  V30 7 2 7 8
M  V30 8 1 7 9
M  V30 9 1 9 10
M  V30 10 1 10 11
M  V30 11 2 11 12
M  V30 12 1 12 13
M  V30 13 2 13 14
M  V30 14 1 14 15
M  V30 15 1 14 16
M  V30 16 2 16 17
M  V30 17 1 9 18
M  V30 18 1 18 19
M  V30 19 2 19 20
M  V30 20 1 19 21
M  V30 21 1 21 22
M  V30 22 1 22 23
M  V30 23 1 23 24
M  V30 24 1 24 25
M  V30 25 1 25 26
M  V30 26 2 26 27
M  V30 27 1 26 28
M  V30 28 1 28 29
M  V30 29 1 29 30
M  V30 30 1 30 31
M  V30 31 1 31 32
M  V30 32 1 32 33
M  V30 33 1 33 34
M  V30 34 2 33 35 CFG=2
M  V30 35 1 28 36
M  V30 36 1 36 37
M  V30 37 2 37 38
M  V30 38 1 37 39
M  V30 39 1 39 40
M  V30 40 1 40 41
M  V30 41 1 41 42
M  V30 42 1 42 43
M  V30 43 1 43 44
M  V30 44 1 44 45
M  V30 45 2 44 46 CFG=2
M  V30 46 1 39 47
M  V30 47 1 47 48
M  V30 48 2 48 49
M  V30 49 1 48 50
M  V30 50 1 50 51
M  V30 51 1 51 52
M  V30 52 1 52 53
M  V30 53 1 53 54
M  V30 54 1 54 55
M  V30 55 1 55 56
M  V30 56 1 56 57
M  V30 57 1 57 58
M  V30 58 1 58 59
M  V30 59 1 59 60
M  V30 60 2 59 61
M  V30 61 1 57 62
M  V30 62 1 62 63
M  V30 63 1 63 64
M  V30 64 2 63 65
M  V30 65 1 54 66
M  V30 66 1 66 67
M  V30 67 1 67 68
M  V30 68 2 67 69
M  V30 69 1 51 70
M  V30 70 1 70 71
M  V30 71 1 71 72
M  V30 72 2 71 73
M  V30 73 1 5 74
M  V30 74 2 74 75
M  V30 75 1 74 76
M  V30 76 1 76 77
M  V30 77 1 77 78
M  V30 78 1 78 79
M  V30 79 1 79 80
M  V30 80 1 79 81
M  V30 81 1 77 82
M  V30 82 1 82 83
M  V30 83 2 82 84
M  V30 84 1 17 11
M  V30 85 1 25 21
M  V30 86 1 1 85 CFG=3
M  V30 87 1 2 86
M  V30 88 1 2 87
M  V30 89 1 2 88
M  V30 90 1 3 89
M  V30 91 1 3 90
M  V30 92 1 4 91
M  V30 93 1 4 92
M  V30 94 1 4 93
M  V30 95 1 5 94 CFG=3
M  V30 96 1 6 95
M  V30 97 1 9 96 CFG=3
M  V30 98 1 10 97
M  V30 99 1 10 98
M  V30 100 1 12 99
M  V30 101 1 13 100
M  V30 102 1 15 101
M  V30 103 1 16 102
M  V30 104 1 17 103
M  V30 105 1 18 104
M  V30 106 1 21 105 CFG=1
M  V30 107 1 22 106
M  V30 108 1 22 107
M  V30 109 1 23 108
M  V30 110 1 23 109
M  V30 111 1 24 110
M  V30 112 1 24 111
M  V30 113 1 28 112 CFG=1
M  V30 114 1 29 113
M  V30 115 1 29 114
M  V30 116 1 30 115
M  V30 117 1 30 116
M  V30 118 1 31 117
M  V30 119 1 31 118
M  V30 120 1 32 119
M  V30 121 1 34 120
M  V30 122 1 34 121
M  V30 123 1 35 122
M  V30 124 1 36 123
M  V30 125 1 39 124 CFG=3
M  V30 126 1 40 125
M  V30 127 1 40 126
M  V30 128 1 41 127
M  V30 129 1 41 128
M  V30 130 1 42 129
M  V30 131 1 42 130
M  V30 132 1 43 131
M  V30 133 1 45 132
M  V30 134 1 45 133
M  V30 135 1 46 134
M  V30 136 1 47 135
M  V30 137 1 50 136
M  V30 138 1 50 137
M  V30 139 1 52 138
M  V30 140 1 52 139
M  V30 141 1 53 140
M  V30 142 1 53 141
M  V30 143 1 55 142
M  V30 144 1 55 143
M  V30 145 1 56 144
M  V30 146 1 56 145
M  V30 147 1 58 146
M  V30 148 1 58 147
M  V30 149 1 60 148
M  V30 150 1 62 149
M  V30 151 1 62 150
M  V30 152 1 64 151
M  V30 153 1 66 152
M  V30 154 1 66 153
M  V30 155 1 68 154
M  V30 156 1 70 155
M  V30 157 1 70 156
M  V30 158 1 72 157
M  V30 159 1 76 158
M  V30 160 1 77 159 CFG=3
M  V30 161 1 78 160
M  V30 162 1 78 161
M  V30 163 1 79 162
M  V30 164 1 80 163
M  V30 165 1 80 164
M  V30 166 1 80 165
M  V30 167 1 81 166
M  V30 168 1 81 167
M  V30 169 1 81 168
M  V30 170 1 83 169
M  V30 END BOND
M  V30 END CTAB
M  END
