
     RDKit          3D

  0  0  0  0  0  0  0  0  0  0999 V3000
M  V30 BEGIN CTAB
M  V30 COUNTS 29 28 0 0 0
M  V30 BEGIN ATOM
M  V30 1 C -2.8109 -0.498599 -1.44996 0
M  V30 2 C -1.84378 0.30319 -0.574136 0
M  V30 3 C -0.532045 -0.446996 -0.513823 0
M  V30 4 C -0.801589 -1.83677 0.0848725 0
M  V30 5 C 0.512135 0.19971 0.32806 0
M  V30 6 C 0.919302 1.55128 -0.0434508 0
M  V30 7 O 2.05606 1.74539 -0.539424 0
M  V30 8 N 0.110692 2.71032 0.111773 0
M  V30 9 N 0.540455 3.95869 -0.260438 0
M  V30 10 C 1.70436 -0.685512 0.329606 0
M  V30 11 O 2.55309 -0.485434 -0.605707 0
M  V30 12 N 1.95843 -1.71154 1.26959 0
M  V30 13 N 3.12632 -2.46594 1.13343 0
M  V30 14 H -3.42478 -1.1358 -0.774112 0
M  V30 15 H -3.51091 0.209714 -1.94089 0
M  V30 16 H -2.29059 -1.09421 -2.20287 0
M  V30 17 H -2.31855 0.45068 0.383581 0
M  V30 18 H -1.67506 1.23086 -1.18397 0
M  V30 19 H -0.155803 -0.607419 -1.53493 0
M  V30 20 H -1.77705 -2.22649 -0.29626 0
M  V30 21 H 0.0294956 -2.48246 -0.18884 0
M  V30 22 H -0.910442 -1.75519 1.18027 0
M  V30 23 H 0.140209 0.208992 1.41072 0
M  V30 24 H -0.832512 2.58975 0.531726 0
M  V30 25 H 1.23757 4.39908 0.346514 0
M  V30 26 H -0.194733 4.59377 -0.626695 0
M  V30 27 H 1.27844 -1.86973 2.03017 0
M  V30 28 H 3.00871 -3.05237 0.256344 0
M  V30 29 H 3.90348 -1.79695 0.906849 0
M  V30 END ATOM
M  V30 BEGIN BOND
M  V30 1 1 1 2
M  V30 2 1 2 3
M  V30 3 1 3 4
M  V30 4 1 3 5
M  V30 5 1 5 6
M  V30 6 2 6 7
M  V30 7 1 6 8
M  V30 8 1 8 9
M  V30 9 1 5 10
M  V30 10 2 10 11
M  V30 11 1 10 12
M  V30 12 1 12 13
M  V30 13 1 1 14
M  V30 14 1 1 15
M  V30 15 1 1 16
M  V30 16 1 2 17
M  V30 17 1 2 18
M  V30 18 1 3 19
M  V30 19 1 4 20
M  V30 20 1 4 21
M  V30 21 1 4 22
M  V30 22 1 5 23
M  V30 23 1 8 24
M  V30 24 1 9 25
M  V30 25 1 9 26
M  V30 26 1 12 27
M  V30 27 1 13 28
M  V30 28 1 13 29
M  V30 END BOND
M  V30 END CTAB
M  END
