
     RDKit          3D

  0  0  0  0  0  0  0  0  0  0999 V3000
M  V30 BEGIN CTAB
M  V30 COUNTS 36 37 0 0 0
M  V30 BEGIN ATOM
M  V30 1 C -0.299145 -3.66577 0.486359 0
M  V30 2 O -0.97379 -2.44316 0.303371 0
M  V30 3 C -0.251428 -1.25766 0.305874 0
M  V30 4 C -0.865656 -0.0447829 0.131815 0
M  V30 5 C -0.0866192 1.11827 0.14837 0
M  V30 6 C 1.28725 1.06606 0.3356 0
M  V30 7 C 1.91684 -0.129661 0.508719 0
M  V30 8 O 3.24425 -0.261105 0.691971 0
M  V30 9 C 4.33772 0.525241 0.756196 0
M  V30 10 C 4.63296 1.25976 -0.511261 0
M  V30 11 N 4.84546 0.243182 -1.55249 0
M  V30 12 C 1.1234 -1.2753 0.489799 0
M  V30 13 C -2.30633 0.146361 -0.046414 0
M  V30 14 C -3.18648 -0.856035 -0.353163 0
M  V30 15 C -4.54353 -0.564363 -0.529696 0
M  V30 16 C -4.96554 0.735936 -0.390297 0
M  V30 17 C -4.07244 1.74876 -0.0806141 0
M  V30 18 N -4.50666 3.10356 0.0658725 0
M  V30 19 N -2.7996 1.40789 0.0745372 0
M  V30 20 H 0.410229 -3.84157 -0.37441 0
M  V30 21 H 0.320819 -3.61629 1.42954 0
M  V30 22 H -0.969756 -4.52416 0.50327 0
M  V30 23 H -0.567044 2.08099 0.0102114 0
M  V30 24 H 1.83946 2.02115 0.353375 0
M  V30 25 H 4.21581 1.25106 1.60394 0
M  V30 26 H 5.2252 -0.110118 1.01661 0
M  V30 27 H 5.5609 1.88858 -0.410535 0
M  V30 28 H 3.78944 1.87766 -0.817785 0
M  V30 29 H 3.942 -0.276683 -1.63088 0
M  V30 30 H 5.62611 -0.39262 -1.27994 0
M  V30 31 H 1.58821 -2.23554 0.624005 0
M  V30 32 H -2.89056 -1.87855 -0.487038 0
M  V30 33 H -5.25167 -1.34586 -0.771793 0
M  V30 34 H -6.00545 1.01936 -0.515942 0
M  V30 35 H -4.28597 3.84622 -0.632666 0
M  V30 36 H -5.07838 3.37919 0.916362 0
M  V30 END ATOM
M  V30 BEGIN BOND
M  V30 1 1 1 2
M  V30 2 1 2 3
M  V30 3 2 3 4
M  V30 4 1 4 5
M  V30 5 2 5 6
M  V30 6 1 6 7
M  V30 7 1 7 8
M  V30 8 1 8 9
M  V30 9 1 9 10
M  V30 10 1 10 11
M  V30 11 2 7 12
M  V30 12 1 4 13
M  V30 13 2 13 14
M  V30 14 1 14 15
M  V30 15 2 15 16
M  V30 16 1 16 17
M  V30 17 1 17 18
M  V30 18 2 17 19
M  V30 19 1 12 3
M  V30 20 1 19 13
M  V30 21 1 1 20
M  V30 22 1 1 21
M  V30 23 1 1 22
M  V30 24 1 5 23
M  V30 25 1 6 24
M  V30 26 1 9 25
M  V30 27 1 9 26
M  V30 28 1 10 27
M  V30 29 1 10 28
M  V30 30 1 11 29
M  V30 31 1 11 30
M  V30 32 1 12 31
M  V30 33 1 14 32
M  V30 34 1 15 33
M  V30 35 1 16 34
M  V30 36 1 18 35
M  V30 37 1 18 36
M  V30 END BOND
M  V30 END CTAB
M  END
