
     RDKit          3D

  0  0  0  0  0  0  0  0  0  0999 V3000
M  V30 BEGIN CTAB
M  V30 COUNTS 44 46 0 0 0
M  V30 BEGIN ATOM
M  V30 1 N 3.74188 -0.20468 3.28766 0
M  V30 2 C 3.95115 0.0649998 1.90808 0
M  V30 3 C 5.18885 0.538934 1.52501 0
M  V30 4 C 5.40863 0.805798 0.189629 0
M  V30 5 C 4.38948 0.593905 -0.732098 0
M  V30 6 C 3.14625 0.121083 -0.369709 0
M  V30 7 C 2.94009 -0.141503 0.967968 0
M  V30 8 O 2.19403 -0.0592638 -1.35318 0
M  V30 9 C 0.881345 -0.543245 -1.07633 0
M  V30 10 C 0.183849 -0.587839 -2.40349 0
M  V30 11 C -1.21844 -1.05961 -2.4216 0
M  V30 12 N -2.09436 -0.250468 -1.62202 0
M  V30 13 C -2.70484 0.895703 -2.21975 0
M  V30 14 O -2.60754 1.02082 -3.46343 0
M  V30 15 C -3.43024 1.90487 -1.39573 0
M  V30 16 C -2.52934 3.0997 -1.08915 0
M  V30 17 O -3.8417 1.33633 -0.186153 0
M  V30 18 C -3.29454 0.251253 0.437088 0
M  V30 19 C -2.40913 -0.559313 -0.274344 0
M  V30 20 N -1.90506 -1.60488 0.366454 0
M  V30 21 C -2.15765 -1.9622 1.62803 0
M  V30 22 N -1.54177 -3.10501 2.16889 0
M  V30 23 C -3.02764 -1.17153 2.3431 0
M  V30 24 C -3.60083 -0.0656932 1.76096 0
M  V30 25 H 2.81824 -0.00696273 3.69223 0
M  V30 26 H 4.54258 -0.59482 3.83279 0
M  V30 27 H 5.95042 0.688184 2.27678 0
M  V30 28 H 6.38448 1.17767 -0.0998872 0
M  V30 29 H 4.5726 0.806997 -1.78052 0
M  V30 30 H 1.97953 -0.512041 1.28417 0
M  V30 31 H 0.907152 -1.53621 -0.614917 0
M  V30 32 H 0.365706 0.165978 -0.405177 0
M  V30 33 H 0.23603 0.43543 -2.87701 0
M  V30 34 H 0.765996 -1.23228 -3.13682 0
M  V30 35 H -1.59854 -1.16218 -3.47731 0
M  V30 36 H -1.22588 -2.1225 -2.0507 0
M  V30 37 H -4.30944 2.29168 -1.97181 0
M  V30 38 H -1.48882 2.92835 -1.42092 0
M  V30 39 H -2.49179 3.30431 -0.00243537 0
M  V30 40 H -2.90554 4.01256 -1.57704 0
M  V30 41 H -1.03777 -3.11082 3.09855 0
M  V30 42 H -1.58886 -4.00242 1.61147 0
M  V30 43 H -3.2471 -1.43688 3.36053 0
M  V30 44 H -4.29144 0.587793 2.28214 0
M  V30 END ATOM
M  V30 BEGIN BOND
M  V30 1 1 1 2
M  V30 2 2 2 3
M  V30 3 1 3 4
M  V30 4 2 4 5
M  V30 5 1 5 6
M  V30 6 2 6 7
M  V30 7 1 6 8
M  V30 8 1 8 9
M  V30 9 1 9 10
M  V30 10 1 10 11
M  V30 11 1 11 12
M  V30 12 1 12 13
M  V30 13 2 13 14
M  V30 14 1 13 15
M  V30 15 1 15 16
M  V30 16 1 15 17
M  V30 17 1 17 18
M  V30 18 2 18 19
M  V30 19 1 19 20
M  V30 20 2 20 21
M  V30 21 1 21 22
M  V30 22 1 21 23
M  V30 23 2 23 24
M  V30 24 1 7 2
M  V30 25 1 19 12
M  V30 26 1 24 18
M  V30 27 1 1 25
M  V30 28 1 1 26
M  V30 29 1 3 27
M  V30 30 1 4 28
M  V30 31 1 5 29
M  V30 32 1 7 30
M  V30 33 1 9 31
M  V30 34 1 9 32
M  V30 35 1 10 33
M  V30 36 1 10 34
M  V30 37 1 11 35
M  V30 38 1 11 36
M  V30 39 1 15 37
M  V30 40 1 16 38
M  V30 41 1 16 39
M  V30 42 1 16 40
M  V30 43 1 22 41
M  V30 44 1 22 42
M  V30 45 1 23 43
M  V30 46 1 24 44
M  V30 END BOND
M  V30 END CTAB
M  END
