
     RDKit          3D

  0  0  0  0  0  0  0  0  0  0999 V3000
M  V30 BEGIN CTAB
M  V30 COUNTS 28 29 0 0 0
M  V30 BEGIN ATOM
M  V30 1 C -3.92886 -0.162954 0.0617612 0
M  V30 2 C -2.45071 -0.335198 0.0865831 0
M  V30 3 C -1.89792 -1.57099 0.344859 0
M  V30 4 C -0.526451 -1.7159 0.364718 0
M  V30 5 C 0.302824 -0.640468 0.129499 0
M  V30 6 C 1.69141 -0.772513 0.146495 0
M  V30 7 N 2.22678 -2.05733 0.415338 0
M  V30 8 C 2.48431 0.330166 -0.0942117 0
M  V30 9 C 3.96399 0.179542 -0.0740021 0
M  V30 10 C 1.85763 1.53579 -0.345485 0
M  V30 11 C 0.502392 1.70965 -0.371639 0
M  V30 12 C -0.289615 0.584765 -0.126218 0
M  V30 13 C -1.65269 0.765714 -0.153802 0
M  V30 14 N -2.22279 2.03192 -0.418386 0
M  V30 15 H -4.41077 -1.15143 0.228562 0
M  V30 16 H -4.26251 0.267393 -0.899712 0
M  V30 17 H -4.28655 0.518734 0.860148 0
M  V30 18 H -2.53491 -2.43994 0.534632 0
M  V30 19 H -0.0690412 -2.67518 0.564974 0
M  V30 20 H 1.93206 -2.92794 -0.0326469 0
M  V30 21 H 2.99676 -2.1027 1.14467 0
M  V30 22 H 4.25175 -0.840146 -0.367979 0
M  V30 23 H 4.30656 0.44419 0.948681 0
M  V30 24 H 4.41264 0.956843 -0.745161 0
M  V30 25 H 2.4822 2.39459 -0.532983 0
M  V30 26 H 0.0188055 2.66259 -0.570342 0
M  V30 27 H -2.65081 2.1859 -1.35238 0
M  V30 28 H -2.24646 2.82489 0.254027 0
M  V30 END ATOM
M  V30 BEGIN BOND
M  V30 1 1 1 2
M  V30 2 2 2 3
M  V30 3 1 3 4
M  V30 4 2 4 5
M  V30 5 1 5 6
M  V30 6 1 6 7
M  V30 7 2 6 8
M  V30 8 1 8 9
M  V30 9 1 8 10
M  V30 10 2 10 11
M  V30 11 1 11 12
M  V30 12 2 12 13
M  V30 13 1 13 14
M  V30 14 1 13 2
M  V30 15 1 12 5
M  V30 16 1 1 15
M  V30 17 1 1 16
M  V30 18 1 1 17
M  V30 19 1 3 18
M  V30 20 1 4 19
M  V30 21 1 7 20
M  V30 22 1 7 21
M  V30 23 1 9 22
M  V30 24 1 9 23
M  V30 25 1 9 24
M  V30 26 1 10 25
M  V30 27 1 11 26
M  V30 28 1 14 27
M  V30 29 1 14 28
M  V30 END BOND
M  V30 END CTAB
M  END
