
     RDKit          3D

  0  0  0  0  0  0  0  0  0  0999 V3000
M  V30 BEGIN CTAB
M  V30 COUNTS 46 46 0 0 0
M  V30 BEGIN ATOM
M  V30 1 N -0.75041 -3.03086 2.05927 0
M  V30 2 C -1.85237 -3.2189 1.16354 0
M  V30 3 C -1.68703 -2.61649 -0.202215 0
M  V30 4 N -1.47938 -1.20403 -0.227568 0
M  V30 5 C -0.18557 -0.640238 -0.239212 0
M  V30 6 S -0.0148025 1.02033 -0.214541 0
M  V30 7 N 1.01966 -1.36568 -0.263973 0
M  V30 8 C 2.3187 -0.843203 -0.290455 0
M  V30 9 C 2.65997 0.217115 -1.07934 0
M  V30 10 C 3.97992 0.696628 -1.01068 0
M  V30 11 C 4.88656 0.0978909 -0.165589 0
M  V30 12 C 4.51053 -0.968803 0.614509 0
M  V30 13 C 3.23793 -1.44895 0.564451 0
M  V30 14 S 6.51834 0.709706 -0.0970895 0
M  V30 15 O 6.85067 1.25006 -1.46284 0
M  V30 16 O 7.45155 -0.419278 0.27846 0
M  V30 17 N 6.58688 1.92346 1.11675 0
M  V30 18 C -2.61823 -0.358652 -0.246531 0
M  V30 19 O -3.79754 -0.825411 -0.241127 0
M  V30 20 O -2.55531 1.02524 -0.272212 0
M  V30 21 C -3.69994 1.81854 -0.290544 0
M  V30 22 C -3.25129 3.27016 -0.314858 0
M  V30 23 C -4.5728 1.64272 0.928308 0
M  V30 24 C -4.52452 1.62666 -1.56965 0
M  V30 25 H -1.02446 -3.00246 3.0449 0
M  V30 26 H 0.0506369 -3.67358 1.89746 0
M  V30 27 H -1.98335 -4.31923 1.01415 0
M  V30 28 H -2.76886 -2.88002 1.68204 0
M  V30 29 H -2.61132 -2.80147 -0.831217 0
M  V30 30 H -0.842697 -3.13098 -0.70428 0
M  V30 31 H 0.949006 -2.42855 -0.277605 0
M  V30 32 H 1.9674 0.68998 -1.77342 0
M  V30 33 H 4.22189 1.53669 -1.64476 0
M  V30 34 H 5.22981 -1.43849 1.27975 0
M  V30 35 H 2.97073 -2.28978 1.19001 0
M  V30 36 H 7.20075 2.71598 0.852249 0
M  V30 37 H 5.61756 2.28495 1.36013 0
M  V30 38 H -2.46747 3.38272 -1.08935 0
M  V30 39 H -4.13941 3.89517 -0.528507 0
M  V30 40 H -2.80699 3.50031 0.691165 0
M  V30 41 H -5.57673 1.23971 0.616879 0
M  V30 42 H -4.79542 2.60873 1.42624 0
M  V30 43 H -4.16973 0.959917 1.67182 0
M  V30 44 H -5.04688 2.57313 -1.77127 0
M  V30 45 H -5.21024 0.760459 -1.48597 0
M  V30 46 H -3.79575 1.45877 -2.38924 0
M  V30 END ATOM
M  V30 BEGIN BOND
M  V30 1 1 1 2
M  V30 2 1 2 3
M  V30 3 1 3 4
M  V30 4 1 4 5
M  V30 5 2 5 6
M  V30 6 1 5 7
M  V30 7 1 7 8
M  V30 8 2 8 9
M  V30 9 1 9 10
M  V30 10 2 10 11
M  V30 11 1 11 12
M  V30 12 2 12 13
M  V30 13 1 11 14
M  V30 14 2 14 15
M  V30 15 2 14 16
M  V30 16 1 14 17
M  V30 17 1 4 18
M  V30 18 2 18 19
M  V30 19 1 18 20
M  V30 20 1 20 21
M  V30 21 1 21 22
M  V30 22 1 21 23
M  V30 23 1 21 24
M  V30 24 1 13 8
M  V30 25 1 1 25
M  V30 26 1 1 26
M  V30 27 1 2 27
M  V30 28 1 2 28
M  V30 29 1 3 29
M  V30 30 1 3 30
M  V30 31 1 7 31
M  V30 32 1 9 32
M  V30 33 1 10 33
M  V30 34 1 12 34
M  V30 35 1 13 35
M  V30 36 1 17 36
M  V30 37 1 17 37
M  V30 38 1 22 38
M  V30 39 1 22 39
M  V30 40 1 22 40
M  V30 41 1 23 41
M  V30 42 1 23 42
M  V30 43 1 23 43
M  V30 44 1 24 44
M  V30 45 1 24 45
M  V30 46 1 24 46
M  V30 END BOND
M  V30 END CTAB
M  END
