
     RDKit          3D

  0  0  0  0  0  0  0  0  0  0999 V3000
M  V30 BEGIN CTAB
M  V30 COUNTS 31 32 0 0 0
M  V30 BEGIN ATOM
M  V30 1 N -2.79488 2.79166 -0.734074 0
M  V30 2 C -1.53806 2.16904 -0.640341 0
M  V30 3 C -1.53252 0.759246 -0.23845 0
M  V30 4 C -2.64364 0.019636 0.0473008 0
M  V30 5 C -2.51101 -1.303 0.415873 0
M  V30 6 C -1.28663 -1.92437 0.510951 0
M  V30 7 C -0.141241 -1.17247 0.219403 0
M  V30 8 C -0.27681 0.14314 -0.146998 0
M  V30 9 C 0.96016 0.917346 -0.452116 0
M  V30 10 C 2.17256 0.161951 0.0166603 0
M  V30 11 N 2.11427 -1.20944 -0.511265 0
M  V30 12 C 1.16034 -1.88716 0.336879 0
M  V30 13 C 3.41291 0.805116 -0.432744 0
M  V30 14 O 4.22215 0.188935 -1.14987 0
M  V30 15 O 3.72642 2.10697 -0.0800661 0
M  V30 16 N -1.15067 -3.2878 0.890964 0
M  V30 17 H -3.58366 2.24376 -1.06614 0
M  V30 18 H -3.05568 3.28267 0.1497 0
M  V30 19 H -0.890608 2.72007 0.0970825 0
M  V30 20 H -1.01193 2.2561 -1.61475 0
M  V30 21 H -3.6166 0.48831 -0.021072 0
M  V30 22 H -3.4247 -1.8487 0.633002 0
M  V30 23 H 0.975751 1.90183 0.0876768 0
M  V30 24 H 1.06339 1.11012 -1.53898 0
M  V30 25 H 2.1443 0.109418 1.11913 0
M  V30 26 H 3.05994 -1.63668 -0.29894 0
M  V30 27 H 1.02159 -2.94712 0.0628347 0
M  V30 28 H 1.48229 -1.76425 1.4042 0
M  V30 29 H 4.15636 2.37203 0.789084 0
M  V30 30 H -0.961032 -4.06428 0.238392 0
M  V30 31 H -1.25275 -3.50207 1.90668 0
M  V30 END ATOM
M  V30 BEGIN BOND
M  V30 1 1 1 2
M  V30 2 1 2 3
M  V30 3 2 3 4
M  V30 4 1 4 5
M  V30 5 2 5 6
M  V30 6 1 6 7
M  V30 7 2 7 8
M  V30 8 1 8 9
M  V30 9 1 9 10
M  V30 10 1 10 11
M  V30 11 1 11 12
M  V30 12 1 10 13
M  V30 13 2 13 14
M  V30 14 1 13 15
M  V30 15 1 6 16
M  V30 16 1 8 3
M  V30 17 1 12 7
M  V30 18 1 1 17
M  V30 19 1 1 18
M  V30 20 1 2 19
M  V30 21 1 2 20
M  V30 22 1 4 21
M  V30 23 1 5 22
M  V30 24 1 9 23
M  V30 25 1 9 24
M  V30 26 1 10 25
M  V30 27 1 11 26
M  V30 28 1 12 27
M  V30 29 1 12 28
M  V30 30 1 15 29
M  V30 31 1 16 30
M  V30 32 1 16 31
M  V30 END BOND
M  V30 END CTAB
M  END
