
     RDKit          3D

 32 33  0  0  0  0  0  0  0  0999 V2000
   -0.8162    1.4954    4.6025 N   0  0  0  0  0  0  0  0  0  0  0  0
   -0.1911    0.6011    3.7251 C   0  0  0  0  0  0  0  0  0  0  0  0
   -0.9499   -0.3137    2.9929 C   0  0  0  0  0  0  0  0  0  0  0  0
   -0.3307   -1.2871    2.2031 C   0  0  0  0  0  0  0  0  0  0  0  0
    1.0641   -1.3903    2.1675 C   0  0  0  0  0  0  0  0  0  0  0  0
    1.7373   -2.4295    1.3029 C   0  0  0  0  0  0  0  0  0  0  0  0
    2.2179   -1.8830   -0.0473 C   0  0  0  0  0  0  0  0  0  0  0  0
    1.0951   -1.6074   -1.0189 C   0  0  0  0  0  0  0  0  0  0  0  0
    0.5450   -2.6419   -1.7840 C   0  0  0  0  0  0  0  0  0  0  0  0
   -0.5041   -2.3856   -2.6723 C   0  0  0  0  0  0  0  0  0  0  0  0
   -1.0537   -1.1067   -2.7794 C   0  0  0  0  0  0  0  0  0  0  0  0
   -0.4674   -0.0657   -2.0574 C   0  0  0  0  0  0  0  0  0  0  0  0
    0.5825   -0.3142   -1.1681 C   0  0  0  0  0  0  0  0  0  0  0  0
   -2.0233   -0.8336   -3.7518 N   0  0  0  0  0  0  0  0  0  0  0  0
    1.8242   -0.5095    2.9452 C   0  0  0  0  0  0  0  0  0  0  0  0
    1.1979    0.4608    3.7336 C   0  0  0  0  0  0  0  0  0  0  0  0
   -1.7553    1.7546    4.3178 H   0  0  0  0  0  0  0  0  0  0  0  0
   -0.2466    2.3020    4.8365 H   0  0  0  0  0  0  0  0  0  0  0  0
   -2.0351   -0.2752    3.0250 H   0  0  0  0  0  0  0  0  0  0  0  0
   -0.9470   -1.9656    1.6172 H   0  0  0  0  0  0  0  0  0  0  0  0
    1.0653   -3.2853    1.1588 H   0  0  0  0  0  0  0  0  0  0  0  0
    2.6019   -2.8230    1.8537 H   0  0  0  0  0  0  0  0  0  0  0  0
    2.8196   -0.9758    0.0927 H   0  0  0  0  0  0  0  0  0  0  0  0
    2.8933   -2.6170   -0.5062 H   0  0  0  0  0  0  0  0  0  0  0  0
    0.9374   -3.6529   -1.7058 H   0  0  0  0  0  0  0  0  0  0  0  0
   -0.8903   -3.1989   -3.2804 H   0  0  0  0  0  0  0  0  0  0  0  0
   -0.8260    0.9529   -2.1756 H   0  0  0  0  0  0  0  0  0  0  0  0
    0.9980    0.5113   -0.5942 H   0  0  0  0  0  0  0  0  0  0  0  0
   -2.6019   -1.6336   -3.9864 H   0  0  0  0  0  0  0  0  0  0  0  0
   -2.5728   -0.0031   -3.5559 H   0  0  0  0  0  0  0  0  0  0  0  0
    2.9092   -0.5801    2.9550 H   0  0  0  0  0  0  0  0  0  0  0  0
    1.8088    1.1096    4.3551 H   0  0  0  0  0  0  0  0  0  0  0  0
  1  2  1  0
  2  3  2  0
  3  4  1  0
  4  5  2  0
  5  6  1  0
  6  7  1  0
  7  8  1  0
  8  9  2  0
  9 10  1  0
 10 11  2  0
 11 12  1  0
 12 13  2  0
 11 14  1  0
  5 15  1  0
 15 16  2  0
 16  2  1  0
 13  8  1  0
  1 17  1  0
  1 18  1  0
  3 19  1  0
  4 20  1  0
  6 21  1  0
  6 22  1  0
  7 23  1  0
  7 24  1  0
  9 25  1  0
 10 26  1  0
 12 27  1  0
 13 28  1  0
 14 29  1  0
 14 30  1  0
 15 31  1  0
 16 32  1  0
M  END
