
     RDKit          3D

  0  0  0  0  0  0  0  0  0  0999 V3000
M  V30 BEGIN CTAB
M  V30 COUNTS 39 40 0 0 0
M  V30 BEGIN ATOM
M  V30 1 N 5.93273 0.67592 -1.21731 0
M  V30 2 C 5.85735 0.732752 0.2107 0
M  V30 3 C 4.41117 0.95452 0.61879 0
M  V30 4 C 3.61072 -0.224406 0.0762834 0
M  V30 5 C 2.17265 -0.00808868 0.479926 0
M  V30 6 C 1.27381 -1.11752 -0.00259899 0
M  V30 7 C -0.106439 -0.841482 0.425231 0
M  V30 8 O -0.637564 -1.02587 1.63325 0
M  V30 9 N -1.8838 -0.657668 1.59269 0
M  V30 10 C -2.20283 -0.223936 0.363624 0
M  V30 11 N -1.07428 -0.34805 -0.351124 0
M  V30 12 N -3.47575 0.255511 -0.0488606 0
M  V30 13 C -3.63234 0.684645 -1.42858 0
M  V30 14 C -5.10832 0.596834 -1.83577 0
M  V30 15 O -5.88129 1.22242 -0.869537 0
M  V30 16 C -5.91317 0.4006 0.242009 0
M  V30 17 C -4.5673 0.309321 0.88039 0
M  V30 18 N 1.7071 -2.41182 0.490958 0
M  V30 19 H 5.14215 1.08373 -1.7228 0
M  V30 20 H 6.34687 -0.173985 -1.60937 0
M  V30 21 H 6.53324 1.47174 0.6681 0
M  V30 22 H 6.16532 -0.272306 0.604624 0
M  V30 23 H 4.31106 1.05193 1.71918 0
M  V30 24 H 4.08785 1.88784 0.114868 0
M  V30 25 H 4.01439 -1.17858 0.46735 0
M  V30 26 H 3.75076 -0.225658 -1.00806 0
M  V30 27 H 2.11294 0.104979 1.57604 0
M  V30 28 H 1.83843 0.924951 -0.0454122 0
M  V30 29 H 1.31365 -1.1419 -1.11053 0
M  V30 30 H -3.25504 1.71426 -1.59175 0
M  V30 31 H -3.03213 -0.00772053 -2.05295 0
M  V30 32 H -5.22979 1.05742 -2.82102 0
M  V30 33 H -5.33588 -0.498175 -1.89284 0
M  V30 34 H -6.25671 -0.625745 0.00435843 0
M  V30 35 H -6.62797 0.848868 0.967346 0
M  V30 36 H -4.51781 -0.611216 1.50831 0
M  V30 37 H -4.45885 1.16525 1.5995 0
M  V30 38 H 0.993515 -3.10555 0.122276 0
M  V30 39 H 1.62155 -2.44383 1.52381 0
M  V30 END ATOM
M  V30 BEGIN BOND
M  V30 1 1 1 2
M  V30 2 1 2 3
M  V30 3 1 3 4
M  V30 4 1 4 5
M  V30 5 1 5 6
M  V30 6 1 6 7
M  V30 7 1 7 8
M  V30 8 1 8 9
M  V30 9 2 9 10
M  V30 10 1 10 11
M  V30 11 1 10 12
M  V30 12 1 12 13
M  V30 13 1 13 14
M  V30 14 1 14 15
M  V30 15 1 15 16
M  V30 16 1 16 17
M  V30 17 1 6 18
M  V30 18 2 11 7
M  V30 19 1 17 12
M  V30 20 1 1 19
M  V30 21 1 1 20
M  V30 22 1 2 21
M  V30 23 1 2 22
M  V30 24 1 3 23
M  V30 25 1 3 24
M  V30 26 1 4 25
M  V30 27 1 4 26
M  V30 28 1 5 27
M  V30 29 1 5 28
M  V30 30 1 6 29
M  V30 31 1 13 30
M  V30 32 1 13 31
M  V30 33 1 14 32
M  V30 34 1 14 33
M  V30 35 1 16 34
M  V30 36 1 16 35
M  V30 37 1 17 36
M  V30 38 1 17 37
M  V30 39 1 18 38
M  V30 40 1 18 39
M  V30 END BOND
M  V30 END CTAB
M  END
