
     RDKit          3D

  0  0  0  0  0  0  0  0  0  0999 V3000
M  V30 BEGIN CTAB
M  V30 COUNTS 25 25 0 0 0
M  V30 BEGIN ATOM
M  V30 1 C 1.73622 -1.73349 0.226007 0
M  V30 2 C 1.71979 -0.27754 0.217697 0
M  V30 3 N 2.91069 0.293831 0.336543 0
M  V30 4 N 4.08425 -0.407652 0.459393 0
M  V30 5 C 0.559442 0.60084 0.0377586 0
M  V30 6 N 0.847897 1.84384 -0.0253141 0
M  V30 7 N 0.248584 3.01316 -0.168909 0
M  V30 8 C -0.802207 0.190121 -0.142584 0
M  V30 9 C -1.7253 0.985639 -0.781969 0
M  V30 10 C -3.07972 0.642777 -0.886111 0
M  V30 11 C -3.52463 -0.530136 -0.33617 0
M  V30 12 C -2.61875 -1.32553 0.298953 0
M  V30 13 C -1.259 -0.977416 0.402945 0
M  V30 14 H 2.7526 -2.13666 -0.0755962 0
M  V30 15 H 1.5787 -2.21245 1.21518 0
M  V30 16 H 1.02938 -2.20729 -0.509601 0
M  V30 17 H 4.77049 -0.402727 -0.319357 0
M  V30 18 H 4.29567 -0.94204 1.31761 0
M  V30 19 H 0.296118 3.6952 -0.965487 0
M  V30 20 H -0.390525 3.36139 0.615136 0
M  V30 21 H -1.48074 1.92759 -1.28138 0
M  V30 22 H -3.74849 1.32103 -1.40434 0
M  V30 23 H -4.56159 -0.78428 -0.421211 0
M  V30 24 H -2.97854 -2.24952 0.729629 0
M  V30 25 H -0.66032 -1.68869 0.965841 0
M  V30 END ATOM
M  V30 BEGIN BOND
M  V30 1 1 1 2
M  V30 2 2 2 3 CFG=2
M  V30 3 1 3 4
M  V30 4 1 2 5
M  V30 5 2 5 6 CFG=2
M  V30 6 1 6 7
M  V30 7 1 5 8
M  V30 8 2 8 9
M  V30 9 1 9 10
M  V30 10 2 10 11
M  V30 11 1 11 12
M  V30 12 2 12 13
M  V30 13 1 13 8
M  V30 14 1 1 14
M  V30 15 1 1 15
M  V30 16 1 1 16
M  V30 17 1 4 17
M  V30 18 1 4 18
M  V30 19 1 7 19
M  V30 20 1 7 20
M  V30 21 1 9 21
M  V30 22 1 10 22
M  V30 23 1 11 23
M  V30 24 1 12 24
M  V30 25 1 13 25
M  V30 END BOND
M  V30 END CTAB
M  END
