
     RDKit          3D

  0  0  0  0  0  0  0  0  0  0999 V3000
M  V30 BEGIN CTAB
M  V30 COUNTS 22 22 0 0 0
M  V30 BEGIN ATOM
M  V30 1 C -2.75764 -0.178246 0.748824 0
M  V30 2 C -2.03035 -0.16234 -0.572038 0
M  V30 3 C -0.551313 -0.195961 -0.369092 0
M  V30 4 C 0.16561 0.917874 0.00122603 0
M  V30 5 N -0.489982 2.15314 0.168387 0
M  V30 6 C 1.54059 0.87388 0.213858 0
M  V30 7 C 2.191 -0.322103 0.0465956 0
M  V30 8 C 1.48682 -1.44721 -0.325263 0
M  V30 9 C 0.103686 -1.39503 -0.538874 0
M  V30 10 Cl -0.716444 -2.87429 -1.01627 0
M  V30 11 N 3.59274 -0.39359 0.264145 0
M  V30 12 H -3.45329 -1.04278 0.77424 0
M  V30 13 H -2.00662 -0.22878 1.56469 0
M  V30 14 H -3.35147 0.738276 0.938545 0
M  V30 15 H -2.23759 0.833996 -1.06415 0
M  V30 16 H -2.34403 -0.991931 -1.22702 0
M  V30 17 H -0.44316 2.75782 1.02824 0
M  V30 18 H -1.07308 2.47332 -0.665793 0
M  V30 19 H 2.10911 1.75439 0.511897 0
M  V30 20 H 1.9801 -2.40918 -0.464687 0
M  V30 21 H 4.17488 0.436885 0.525671 0
M  V30 22 H 4.11042 -1.29814 0.171507 0
M  V30 END ATOM
M  V30 BEGIN BOND
M  V30 1 1 1 2
M  V30 2 1 2 3
M  V30 3 2 3 4
M  V30 4 1 4 5
M  V30 5 1 4 6
M  V30 6 2 6 7
M  V30 7 1 7 8
M  V30 8 2 8 9
M  V30 9 1 9 10
M  V30 10 1 7 11
M  V30 11 1 9 3
M  V30 12 1 1 12
M  V30 13 1 1 13
M  V30 14 1 1 14
M  V30 15 1 2 15
M  V30 16 1 2 16
M  V30 17 1 5 17
M  V30 18 1 5 18
M  V30 19 1 6 19
M  V30 20 1 8 20
M  V30 21 1 11 21
M  V30 22 1 11 22
M  V30 END BOND
M  V30 END CTAB
M  END
