
     RDKit          3D

  0  0  0  0  0  0  0  0  0  0999 V3000
M  V30 BEGIN CTAB
M  V30 COUNTS 21 22 0 0 0
M  V30 BEGIN ATOM
M  V30 1 N 3.81164 0.605349 0.161221 0
M  V30 2 C 3.10464 -0.223776 -0.791735 0
M  V30 3 C 1.66214 -0.142573 -0.49125 0
M  V30 4 C 1.10125 0.604451 0.514181 0
M  V30 5 N -0.243017 0.410674 0.459748 0
M  V30 6 C -0.518192 -0.426135 -0.541375 0
M  V30 7 N 0.661634 -0.756569 -1.11518 0
M  V30 8 C -1.80052 -0.830125 -0.865435 0
M  V30 9 C -2.83011 -0.326834 -0.0977376 0
M  V30 10 N -2.54632 0.516937 0.910855 0
M  V30 11 C -1.27813 0.881262 1.18761 0
M  V30 12 N -4.15208 -0.734598 -0.420978 0
M  V30 13 H 3.51891 1.60492 -0.0581247 0
M  V30 14 H 3.47056 0.441367 1.134 0
M  V30 15 H 3.47134 -1.27229 -0.784362 0
M  V30 16 H 3.29305 0.162444 -1.83492 0
M  V30 17 H 1.60419 1.2528 1.24959 0
M  V30 18 H -1.97658 -1.51733 -1.69449 0
M  V30 19 H -1.03282 1.55664 1.99239 0
M  V30 20 H -4.61898 -0.576612 -1.3392 0
M  V30 21 H -4.7026 -1.23 0.311359 0
M  V30 END ATOM
M  V30 BEGIN BOND
M  V30 1 1 1 2
M  V30 2 1 2 3
M  V30 3 2 3 4
M  V30 4 1 4 5
M  V30 5 1 5 6
M  V30 6 2 6 7
M  V30 7 1 6 8
M  V30 8 2 8 9
M  V30 9 1 9 10
M  V30 10 2 10 11
M  V30 11 1 9 12
M  V30 12 1 7 3
M  V30 13 1 11 5
M  V30 14 1 1 13
M  V30 15 1 1 14
M  V30 16 1 2 15
M  V30 17 1 2 16
M  V30 18 1 4 17
M  V30 19 1 8 18
M  V30 20 1 11 19
M  V30 21 1 12 20
M  V30 22 1 12 21
M  V30 END BOND
M  V30 END CTAB
M  END
