
     RDKit          3D

  0  0  0  0  0  0  0  0  0  0999 V3000
M  V30 BEGIN CTAB
M  V30 COUNTS 21 21 0 0 0
M  V30 BEGIN ATOM
M  V30 1 Br 4.42624 -1.10568 -0.758183 0
M  V30 2 C 2.53595 -1.27273 -0.473167 0
M  V30 3 C 1.9169 0.0533324 -0.295343 0
M  V30 4 O 2.62944 1.08648 -0.343492 0
M  V30 5 C 0.485282 0.189808 -0.0633049 0
M  V30 6 C -0.308239 -0.941899 -0.00852703 0
M  V30 7 C -1.66685 -0.88316 0.207364 0
M  V30 8 N -2.48276 -2.05165 0.263399 0
M  V30 9 C -2.24041 0.359261 0.372975 0
M  V30 10 C -1.44857 1.48524 0.31811 0
M  V30 11 C -0.0894523 1.43284 0.102531 0
M  V30 12 N 0.717322 2.61485 0.0487605 0
M  V30 13 Cl -2.19331 3.0556 0.530534 0
M  V30 14 H 2.07348 -1.75161 -1.38485 0
M  V30 15 H 2.36144 -1.89468 0.424039 0
M  V30 16 H 0.127737 -1.92626 -0.136846 0
M  V30 17 H -3.50582 -1.99503 0.0685932 0
M  V30 18 H -2.09506 -2.98881 0.496719 0
M  V30 19 H -3.31203 0.399545 0.542893 0
M  V30 20 H 0.739391 3.25416 -0.771385 0
M  V30 21 H 1.32932 2.88038 0.859177 0
M  V30 END ATOM
M  V30 BEGIN BOND
M  V30 1 1 1 2
M  V30 2 1 2 3
M  V30 3 2 3 4
M  V30 4 1 3 5
M  V30 5 2 5 6
M  V30 6 1 6 7
M  V30 7 1 7 8
M  V30 8 2 7 9
M  V30 9 1 9 10
M  V30 10 2 10 11
M  V30 11 1 11 12
M  V30 12 1 10 13
M  V30 13 1 11 5
M  V30 14 1 2 14
M  V30 15 1 2 15
M  V30 16 1 6 16
M  V30 17 1 8 17
M  V30 18 1 8 18
M  V30 19 1 9 19
M  V30 20 1 12 20
M  V30 21 1 12 21
M  V30 END BOND
M  V30 END CTAB
M  END
