
     RDKit          3D

  0  0  0  0  0  0  0  0  0  0999 V3000
M  V30 BEGIN CTAB
M  V30 COUNTS 19 19 0 0 0
M  V30 BEGIN ATOM
M  V30 1 N -0.0410875 1.98446 0.444852 0
M  V30 2 C -0.596021 0.71564 0.260992 0
M  V30 3 C 0.124003 -0.262888 -0.391197 0
M  V30 4 C -0.415593 -1.53408 -0.582656 0
M  V30 5 C -1.68203 -1.85598 -0.128818 0
M  V30 6 C -2.40432 -0.877772 0.524266 0
M  V30 7 C -1.86441 0.39295 0.715431 0
M  V30 8 S 1.73046 0.1452 -0.966981 0
M  V30 9 N 2.71241 0.612884 0.360367 0
M  V30 10 O 1.69042 1.29072 -1.93453 0
M  V30 11 O 2.32014 -1.07056 -1.58979 0
M  V30 12 H 0.639741 2.25812 1.17475 0
M  V30 13 H -0.335132 2.75184 -0.218501 0
M  V30 14 H 0.196965 -2.28154 -1.10867 0
M  V30 15 H -2.081 -2.85627 -0.290884 0
M  V30 16 H -3.39042 -1.09483 0.889043 0
M  V30 17 H -2.42222 1.17519 1.22889 0
M  V30 18 H 3.60307 0.0979327 0.362505 0
M  V30 19 H 2.21503 0.408986 1.25094 0
M  V30 END ATOM
M  V30 BEGIN BOND
M  V30 1 1 1 2
M  V30 2 2 2 3
M  V30 3 1 3 4
M  V30 4 2 4 5
M  V30 5 1 5 6
M  V30 6 2 6 7
M  V30 7 1 3 8
M  V30 8 1 8 9
M  V30 9 2 8 10
M  V30 10 2 8 11
M  V30 11 1 7 2
M  V30 12 1 1 12
M  V30 13 1 1 13
M  V30 14 1 4 14
M  V30 15 1 5 15
M  V30 16 1 6 16
M  V30 17 1 7 17
M  V30 18 1 9 18
M  V30 19 1 9 19
M  V30 END BOND
M  V30 END CTAB
M  END
