
     RDKit          3D

  0  0  0  0  0  0  0  0  0  0999 V3000
M  V30 BEGIN CTAB
M  V30 COUNTS 67 70 0 0 0
M  V30 BEGIN ATOM
M  V30 1 O -6.65775 1.73197 -1.00857 0
M  V30 2 C -5.80925 1.64533 0.0267664 0
M  V30 3 O -5.12762 2.70139 0.269816 0
M  V30 4 C -5.62304 0.480093 0.857776 0
M  V30 5 C -4.7452 -0.633613 0.478927 0
M  V30 6 C -4.83827 -1.66032 1.64452 0
M  V30 7 C -6.24482 -2.15393 1.57723 0
M  V30 8 C -6.64552 -2.05875 0.132656 0
M  V30 9 C -5.47483 -1.43769 -0.598532 0
M  V30 10 C -3.32603 -0.437649 0.184434 0
M  V30 11 C -2.85644 0.341642 -0.924524 0
M  V30 12 O -3.59403 0.760924 -1.83729 0
M  V30 13 N -1.4823 0.686363 -1.04329 0
M  V30 14 C -0.459059 0.256501 -0.0763407 0 CFG=1
M  V30 15 C 0.528067 -0.667393 -0.697129 0
M  V30 16 C 1.84396 -0.0932434 -1.07433 0
M  V30 17 C 2.42941 0.832723 -0.0431544 0 CFG=1
M  V30 18 C 1.42802 1.91714 0.278299 0 CFG=1
M  V30 19 C 0.100702 1.41429 0.679303 0
M  V30 20 O 1.97182 2.63363 1.37122 0
M  V30 21 O 2.70742 0.122511 1.10064 0
M  V30 22 C 3.65674 1.50456 -0.621318 0
M  V30 23 N 4.66864 0.566454 -1.00332 0
M  V30 24 C 4.89289 -0.0655884 -2.1555 0
M  V30 25 N 5.9675 -0.870291 -2.08243 0
M  V30 26 C 6.45139 -0.755705 -0.849798 0
M  V30 27 C 5.6505 0.139051 -0.161804 0
M  V30 28 N 5.9646 0.401621 1.11421 0
M  V30 29 C 7.02227 -0.170778 1.74081 0
M  V30 30 N 7.3461 0.11129 3.08667 0
M  V30 31 N 7.78909 -1.04859 1.02858 0
M  V30 32 C 7.54053 -1.36426 -0.25295 0
M  V30 33 N 8.38904 -2.28793 -0.922656 0
M  V30 34 C -1.02197 1.51048 -2.16847 0
M  V30 35 H -6.81671 2.33775 -1.69322 0
M  V30 36 H -6.67396 0.0167569 0.971864 0
M  V30 37 H -5.43275 0.773209 1.94956 0
M  V30 38 H -4.60461 -1.1495 2.59461 0
M  V30 39 H -4.08987 -2.43694 1.3962 0
M  V30 40 H -6.32147 -3.21012 1.96433 0
M  V30 41 H -6.89802 -1.55493 2.2424 0
M  V30 42 H -6.83291 -3.10066 -0.224518 0
M  V30 43 H -7.58667 -1.52056 0.00952645 0
M  V30 44 H -5.88047 -0.811139 -1.39269 0
M  V30 45 H -4.86995 -2.2483 -1.00053 0
M  V30 46 H -2.81003 -1.45771 0.132898 0
M  V30 47 H -2.8773 -0.0552307 1.18394 0
M  V30 48 H -1.0086 -0.352878 0.676507 0
M  V30 49 H 0.0687804 -1.07293 -1.64673 0
M  V30 50 H 0.706499 -1.57735 -0.0569028 0
M  V30 51 H 2.57149 -0.955908 -1.15588 0
M  V30 52 H 1.84333 0.349922 -2.09045 0
M  V30 53 H 1.41488 2.64781 -0.558558 0
M  V30 54 H 0.106911 1.24256 1.78575 0
M  V30 55 H -0.635519 2.26279 0.550262 0
M  V30 56 H 1.23335 3.20659 1.69147 0
M  V30 57 H 1.88706 -0.0825026 1.58619 0
M  V30 58 H 4.0067 2.24715 0.127557 0
M  V30 59 H 3.2862 2.10966 -1.49563 0
M  V30 60 H 4.27959 0.0572745 -3.04286 0
M  V30 61 H 6.99059 -0.497644 3.83709 0
M  V30 62 H 7.93567 0.923316 3.31213 0
M  V30 63 H 8.21339 -3.31882 -0.879362 0
M  V30 64 H 9.22053 -1.99896 -1.48547 0
M  V30 65 H -1.91226 1.76132 -2.79826 0
M  V30 66 H -0.350048 0.93942 -2.84118 0
M  V30 67 H -0.606396 2.47433 -1.82786 0
M  V30 END ATOM
M  V30 BEGIN BOND
M  V30 1 1 1 2
M  V30 2 2 2 3
M  V30 3 1 2 4
M  V30 4 1 4 5
M  V30 5 1 5 6
M  V30 6 1 6 7
M  V30 7 1 7 8
M  V30 8 1 8 9
M  V30 9 1 5 10
M  V30 10 1 10 11
M  V30 11 2 11 12
M  V30 12 1 11 13
M  V30 13 1 13 14
M  V30 14 1 14 15
M  V30 15 1 15 16
M  V30 16 1 16 17
M  V30 17 1 17 18
M  V30 18 1 18 19
M  V30 19 1 18 20
M  V30 20 1 17 21 CFG=1
M  V30 21 1 17 22
M  V30 22 1 22 23
M  V30 23 1 23 24
M  V30 24 2 24 25
M  V30 25 1 25 26
M  V30 26 2 26 27
M  V30 27 1 27 28
M  V30 28 2 28 29
M  V30 29 1 29 30
M  V30 30 1 29 31
M  V30 31 2 31 32
M  V30 32 1 32 33
M  V30 33 1 13 34
M  V30 34 1 9 5
M  V30 35 1 19 14
M  V30 36 1 27 23
M  V30 37 1 32 26
M  V30 38 1 1 35
M  V30 39 1 4 36
M  V30 40 1 4 37
M  V30 41 1 6 38
M  V30 42 1 6 39
M  V30 43 1 7 40
M  V30 44 1 7 41
M  V30 45 1 8 42
M  V30 46 1 8 43
M  V30 47 1 9 44
M  V30 48 1 9 45
M  V30 49 1 10 46
M  V30 50 1 10 47
M  V30 51 1 14 48 CFG=1
M  V30 52 1 15 49
M  V30 53 1 15 50
M  V30 54 1 16 51
M  V30 55 1 16 52
M  V30 56 1 18 53 CFG=3
M  V30 57 1 19 54
M  V30 58 1 19 55
M  V30 59 1 20 56
M  V30 60 1 21 57
M  V30 61 1 22 58
M  V30 62 1 22 59
M  V30 63 1 24 60
M  V30 64 1 30 61
M  V30 65 1 30 62
M  V30 66 1 33 63
M  V30 67 1 33 64
M  V30 68 1 34 65
M  V30 69 1 34 66
M  V30 70 1 34 67
M  V30 END BOND
M  V30 END CTAB
M  END
