
     RDKit          3D

  0  0  0  0  0  0  0  0  0  0999 V3000
M  V30 BEGIN CTAB
M  V30 COUNTS 30 31 0 0 0
M  V30 BEGIN ATOM
M  V30 1 N -1.93786 -1.74804 -0.60288 0
M  V30 2 C -2.19736 -0.387145 -0.279975 0
M  V30 3 C -3.46725 0.104572 -0.529894 0
M  V30 4 N -4.48217 -0.71331 -1.0889 0
M  V30 5 C -3.73506 1.43202 -0.219499 0
M  V30 6 C -2.73138 2.18097 0.315565 0
M  V30 7 N -1.49851 1.67179 0.548764 0
M  V30 8 C -1.20163 0.393191 0.261921 0
M  V30 9 N 0.0951119 -0.143759 0.506778 0
M  V30 10 C 1.15486 0.623862 1.06486 0
M  V30 11 C 2.38303 -0.209268 1.20058 0
M  V30 12 C 2.92049 -0.783749 -0.0950141 0
M  V30 13 C 4.32033 -0.559631 0.493886 0
M  V30 14 C 3.68478 0.602383 1.26635 0
M  V30 15 H -2.02076 -2.52787 0.11106 0
M  V30 16 H -1.65633 -1.94591 -1.59617 0
M  V30 17 H -4.99779 -0.408215 -1.93597 0
M  V30 18 H -4.7124 -1.63036 -0.644112 0
M  V30 19 H -4.73518 1.80365 -0.420951 0
M  V30 20 H -2.96551 3.22521 0.552434 0
M  V30 21 H 0.26256 -1.14306 0.262446 0
M  V30 22 H 1.38778 1.45444 0.356526 0
M  V30 23 H 0.93067 1.07554 2.04856 0
M  V30 24 H 2.36062 -0.985113 1.99931 0
M  V30 25 H 2.68501 -1.83829 -0.285784 0
M  V30 26 H 2.79308 -0.0864919 -0.95521 0
M  V30 27 H 5.07176 -0.255011 -0.233963 0
M  V30 28 H 4.59304 -1.4241 1.14665 0
M  V30 29 H 4.06977 0.745325 2.27622 0
M  V30 30 H 3.62629 1.47636 0.603821 0
M  V30 END ATOM
M  V30 BEGIN BOND
M  V30 1 1 1 2
M  V30 2 2 2 3
M  V30 3 1 3 4
M  V30 4 1 3 5
M  V30 5 2 5 6
M  V30 6 1 6 7
M  V30 7 2 7 8
M  V30 8 1 8 9
M  V30 9 1 9 10
M  V30 10 1 10 11
M  V30 11 1 11 12
M  V30 12 1 12 13
M  V30 13 1 13 14
M  V30 14 1 8 2
M  V30 15 1 14 11
M  V30 16 1 1 15
M  V30 17 1 1 16
M  V30 18 1 4 17
M  V30 19 1 4 18
M  V30 20 1 5 19
M  V30 21 1 6 20
M  V30 22 1 9 21
M  V30 23 1 10 22
M  V30 24 1 10 23
M  V30 25 1 11 24
M  V30 26 1 12 25
M  V30 27 1 12 26
M  V30 28 1 13 27
M  V30 29 1 13 28
M  V30 30 1 14 29
M  V30 31 1 14 30
M  V30 END BOND
M  V30 END CTAB
M  END
