
     RDKit          3D

  0  0  0  0  0  0  0  0  0  0999 V3000
M  V30 BEGIN CTAB
M  V30 COUNTS 35 35 0 0 0
M  V30 BEGIN ATOM
M  V30 1 C -4.1092 -2.04639 -0.0241124 0
M  V30 2 C -3.82118 -0.576332 -0.24616 0
M  V30 3 C -2.41656 -0.311626 0.182733 0
M  V30 4 C -2.00551 1.13113 0.0092925 0
M  V30 5 C -2.85699 2.07807 0.799346 0
M  V30 6 S -1.32317 -1.31908 -0.882897 0
M  V30 7 C 0.388267 -1.08244 -0.459398 0
M  V30 8 C 1.18476 -0.113362 -1.03137 0
M  V30 9 C 2.50731 0.0546746 -0.690781 0
M  V30 10 C 3.04588 -0.781704 0.258049 0
M  V30 11 N 4.41001 -0.623129 0.622554 0
M  V30 12 C 2.2794 -1.78033 0.867608 0
M  V30 13 C 0.950805 -1.90813 0.48876 0
M  V30 14 Cl 0.0259048 -3.17584 1.28042 0
M  V30 15 S 3.5128 1.28173 -1.41606 0
M  V30 16 N 4.13031 2.38051 -0.241079 0
M  V30 17 O 4.67441 0.556712 -2.07314 0
M  V30 18 O 2.76739 1.96923 -2.51165 0
M  V30 19 H -3.17732 -2.59878 -0.207332 0
M  V30 20 H -4.3746 -2.23287 1.05681 0
M  V30 21 H -4.94756 -2.41604 -0.650448 0
M  V30 22 H -4.58232 -0.0127975 0.31757 0
M  V30 23 H -3.94454 -0.386939 -1.32632 0
M  V30 24 H -2.27026 -0.608273 1.23267 0
M  V30 25 H -2.13451 1.38303 -1.06642 0
M  V30 26 H -0.958845 1.24172 0.352583 0
M  V30 27 H -3.064 1.73744 1.83061 0
M  V30 28 H -3.78099 2.35706 0.248747 0
M  V30 29 H -2.2801 3.03398 0.906305 0
M  V30 30 H 0.753203 0.525411 -1.76353 0
M  V30 31 H 5.2147 -0.993527 0.0739274 0
M  V30 32 H 4.62789 -0.100905 1.49869 0
M  V30 33 H 2.73274 -2.40451 1.59479 0
M  V30 34 H 3.67176 3.31702 -0.351398 0
M  V30 35 H 5.1701 2.4253 -0.311004 0
M  V30 END ATOM
M  V30 BEGIN BOND
M  V30 1 1 1 2
M  V30 2 1 2 3
M  V30 3 1 3 4
M  V30 4 1 4 5
M  V30 5 1 3 6
M  V30 6 1 6 7
M  V30 7 2 7 8
M  V30 8 1 8 9
M  V30 9 2 9 10
M  V30 10 1 10 11
M  V30 11 1 10 12
M  V30 12 2 12 13
M  V30 13 1 13 14
M  V30 14 1 9 15
M  V30 15 1 15 16
M  V30 16 2 15 17
M  V30 17 2 15 18
M  V30 18 1 13 7
M  V30 19 1 1 19
M  V30 20 1 1 20
M  V30 21 1 1 21
M  V30 22 1 2 22
M  V30 23 1 2 23
M  V30 24 1 3 24
M  V30 25 1 4 25
M  V30 26 1 4 26
M  V30 27 1 5 27
M  V30 28 1 5 28
M  V30 29 1 5 29
M  V30 30 1 8 30
M  V30 31 1 11 31
M  V30 32 1 11 32
M  V30 33 1 12 33
M  V30 34 1 16 34
M  V30 35 1 16 35
M  V30 END BOND
M  V30 END CTAB
M  END
