
     RDKit          3D

  0  0  0  0  0  0  0  0  0  0999 V3000
M  V30 BEGIN CTAB
M  V30 COUNTS 60 64 0 0 0
M  V30 BEGIN ATOM
M  V30 1 O -4.18418 -0.0134619 -0.224873 0
M  V30 2 C -4.64961 -0.154868 0.910255 0
M  V30 3 N -5.99842 -0.258387 1.19722 0
M  V30 4 C -7.07068 -0.22832 0.284011 0
M  V30 5 C -6.9571 -0.262727 -1.08308 0
M  V30 6 C -8.10527 -0.214816 -1.87919 0
M  V30 7 C -9.3581 -0.133636 -1.31616 0
M  V30 8 C -9.5095 -0.0974488 0.0479573 0
M  V30 9 C -8.37868 -0.144789 0.810328 0
M  V30 10 S -11.1093 0.00345553 0.712703 0
M  V30 11 O -11.0402 0.718448 2.05462 0
M  V30 12 O -12.0288 0.815364 -0.147874 0
M  V30 13 N -11.7969 -1.54785 1.00266 0
M  V30 14 C -3.64631 -0.213514 2.02609 0
M  V30 15 O -2.32706 -0.0613132 1.6079 0
M  V30 16 C -1.74854 1.01333 0.995757 0
M  V30 17 O -2.46582 2.01373 0.767375 0
M  V30 18 C -0.34486 1.05816 0.594958 0
M  V30 19 C 0.506348 -0.00133393 0.808803 0
M  V30 20 C 1.82251 0.120149 0.402158 0
M  V30 21 C 2.31585 1.25468 -0.206262 0
M  V30 22 C 1.44885 2.33036 -0.422826 0
M  V30 23 C 0.142912 2.19033 -0.0112695 0
M  V30 24 N 3.66437 1.38215 -0.608057 0
M  V30 25 C 4.15134 2.41936 -1.54719 0
M  V30 26 C 5.2935 1.62511 -2.14784 0
M  V30 27 O 5.7236 1.73507 -3.29988 0
M  V30 28 C 5.75324 0.735728 -1.10134 0
M  V30 29 C 4.80099 0.611814 -0.226931 0
M  V30 30 N 4.88197 -0.18386 0.973401 0
M  V30 31 C 7.05908 0.0997624 -1.04893 0
M  V30 32 N 7.84604 -0.156258 -0.0211383 0
M  V30 33 C 8.99878 -0.746431 -0.198543 0
M  V30 34 C 9.346 -1.08095 -1.4788 0
M  V30 35 S 7.99093 -0.526624 -2.36049 0
M  V30 36 C 10.5597 -1.71819 -1.79094 0
M  V30 37 C 11.4713 -2.03934 -0.792636 0
M  V30 38 C 11.0847 -1.6865 0.48104 0
M  V30 39 C 9.92636 -1.07329 0.817747 0
M  V30 40 H -6.26124 -0.379256 2.22959 0
M  V30 41 H -5.99271 -0.332843 -1.54991 0
M  V30 42 H -7.94226 -0.245805 -2.95053 0
M  V30 43 H -10.2517 -0.0969936 -1.95287 0
M  V30 44 H -8.51653 -0.113793 1.87991 0
M  V30 45 H -12.5758 -1.47544 1.69013 0
M  V30 46 H -11.0971 -2.26129 1.24732 0
M  V30 47 H -3.73606 -1.23825 2.47385 0
M  V30 48 H -3.94516 0.497041 2.82733 0
M  V30 49 H 0.110666 -0.879431 1.28316 0
M  V30 50 H 2.459 -0.743304 0.583092 0
M  V30 51 H 1.815 3.23953 -0.902462 0
M  V30 52 H -0.54926 3.03255 -0.177755 0
M  V30 53 H 4.53472 3.26805 -0.975569 0
M  V30 54 H 3.40174 2.65722 -2.31064 0
M  V30 55 H 5.09953 -1.19217 0.867285 0
M  V30 56 H 4.73483 0.20024 1.91865 0
M  V30 57 H 10.7182 -1.92951 -2.82981 0
M  V30 58 H 12.3838 -2.52187 -1.05569 0
M  V30 59 H 11.7995 -1.93681 1.27139 0
M  V30 60 H 9.74201 -0.84981 1.85279 0
M  V30 END ATOM
M  V30 BEGIN BOND
M  V30 1 2 1 2
M  V30 2 1 2 3
M  V30 3 1 3 4
M  V30 4 2 4 5
M  V30 5 1 5 6
M  V30 6 2 6 7
M  V30 7 1 7 8
M  V30 8 2 8 9
M  V30 9 1 8 10
M  V30 10 2 10 11
M  V30 11 2 10 12
M  V30 12 1 10 13
M  V30 13 1 2 14
M  V30 14 1 14 15
M  V30 15 1 15 16
M  V30 16 2 16 17
M  V30 17 1 16 18
M  V30 18 2 18 19
M  V30 19 1 19 20
M  V30 20 2 20 21
M  V30 21 1 21 22
M  V30 22 2 22 23
M  V30 23 1 21 24
M  V30 24 1 24 25
M  V30 25 1 25 26
M  V30 26 2 26 27
M  V30 27 1 26 28
M  V30 28 2 28 29
M  V30 29 1 29 30
M  V30 30 1 28 31
M  V30 31 2 31 32
M  V30 32 1 32 33
M  V30 33 2 33 34
M  V30 34 1 34 35
M  V30 35 1 34 36
M  V30 36 2 36 37
M  V30 37 1 37 38
M  V30 38 2 38 39
M  V30 39 1 9 4
M  V30 40 1 23 18
M  V30 41 1 29 24
M  V30 42 1 35 31
M  V30 43 1 39 33
M  V30 44 1 3 40
M  V30 45 1 5 41
M  V30 46 1 6 42
M  V30 47 1 7 43
M  V30 48 1 9 44
M  V30 49 1 13 45
M  V30 50 1 13 46
M  V30 51 1 14 47
M  V30 52 1 14 48
M  V30 53 1 19 49
M  V30 54 1 20 50
M  V30 55 1 22 51
M  V30 56 1 23 52
M  V30 57 1 25 53
M  V30 58 1 25 54
M  V30 59 1 30 55
M  V30 60 1 30 56
M  V30 61 1 36 57
M  V30 62 1 37 58
M  V30 63 1 38 59
M  V30 64 1 39 60
M  V30 END BOND
M  V30 END CTAB
M  END
