
     RDKit          3D

  0  0  0  0  0  0  0  0  0  0999 V3000
M  V30 BEGIN CTAB
M  V30 COUNTS 59 61 0 0 0
M  V30 BEGIN ATOM
M  V30 1 C 5.56136 0.929029 -1.34828 0 CFG=2
M  V30 2 C 6.4049 -0.221637 -1.78345 0
M  V30 3 C 6.58367 -1.24299 -0.719725 0
M  V30 4 C 7.28644 -0.73498 0.460027 0
M  V30 5 O 7.42914 -1.55356 1.5897 0
M  V30 6 O 7.76756 0.401511 0.505925 0
M  V30 7 N 4.23166 0.472981 -0.958095 0
M  V30 8 C 3.70043 0.774643 0.311894 0
M  V30 9 O 4.38729 1.4494 1.11956 0
M  V30 10 C 2.39201 0.322186 0.690147 0
M  V30 11 C 1.92086 0.650265 1.95632 0
M  V30 12 C 0.68828 0.2439 2.36309 0
M  V30 13 C -0.168984 -0.511674 1.5597 0
M  V30 14 C 0.322681 -0.82117 0.313882 0
M  V30 15 C 1.56678 -0.42246 -0.12316 0
M  V30 16 C -1.4954 -0.951137 2.03963 0
M  V30 17 C -1.65159 -2.41951 1.84684 0
M  V30 18 C -2.61727 -0.132275 1.48422 0
M  V30 19 C -2.77053 -0.113362 0.0142757 0
M  V30 20 C -3.94376 0.701318 -0.38993 0
M  V30 21 C -3.89007 2.05349 -0.760086 0
M  V30 22 N -5.12424 2.48727 -1.01678 0
M  V30 23 C -6.02734 1.50591 -0.84427 0
M  V30 24 C -5.28213 0.392468 -0.453213 0
M  V30 25 C -5.97472 -0.756291 -0.222875 0
M  V30 26 N -5.23439 -1.91761 0.151141 0
M  V30 27 N -7.32193 -0.806668 -0.365831 0
M  V30 28 C -8.04457 0.260309 -0.739582 0
M  V30 29 N -9.46226 0.195628 -0.886706 0
M  V30 30 N -7.36522 1.40974 -0.973422 0
M  V30 31 C 5.36319 1.89268 -2.47433 0
M  V30 32 O 6.49117 2.49009 -3.04584 0
M  V30 33 O 4.23249 2.16853 -2.90547 0
M  V30 34 H 5.97434 1.49982 -0.516384 0
M  V30 35 H 6.00724 -0.716484 -2.70622 0
M  V30 36 H 7.39761 0.181498 -2.08989 0
M  V30 37 H 7.1425 -2.10509 -1.18379 0
M  V30 38 H 5.57311 -1.65044 -0.422287 0
M  V30 39 H 7.53369 -1.14532 2.5191 0
M  V30 40 H 3.70451 -0.0719511 -1.64211 0
M  V30 41 H 2.5431 1.23319 2.61935 0
M  V30 42 H 0.325778 0.505371 3.35732 0
M  V30 43 H -0.341706 -1.41572 -0.325378 0
M  V30 44 H 1.88763 -0.705273 -1.122 0
M  V30 45 H -1.49341 -0.76384 3.15944 0
M  V30 46 H -2.12037 -2.69444 0.880113 0
M  V30 47 H -2.13673 -2.87894 2.72053 0
M  V30 48 H -0.614215 -2.8641 1.81028 0
M  V30 49 H -2.38216 0.939606 1.81347 0
M  V30 50 H -3.56572 -0.343777 1.99574 0
M  V30 51 H -1.87463 0.418768 -0.424613 0
M  V30 52 H -2.75488 -1.1054 -0.470017 0
M  V30 53 H -2.96569 2.6272 -0.817356 0
M  V30 54 H -5.34373 3.46628 -1.31261 0
M  V30 55 H -4.85184 -2.49948 -0.623058 0
M  V30 56 H -5.0504 -2.22268 1.12063 0
M  V30 57 H -9.84188 -0.151386 -1.78877 0
M  V30 58 H -10.1397 0.472942 -0.150146 0
M  V30 59 H 7.43202 2.2008 -2.79663 0
M  V30 END ATOM
M  V30 BEGIN BOND
M  V30 1 1 1 2
M  V30 2 1 2 3
M  V30 3 1 3 4
M  V30 4 1 4 5
M  V30 5 2 4 6
M  V30 6 1 1 7
M  V30 7 1 7 8
M  V30 8 2 8 9
M  V30 9 1 8 10
M  V30 10 2 10 11
M  V30 11 1 11 12
M  V30 12 2 12 13
M  V30 13 1 13 14
M  V30 14 2 14 15
M  V30 15 1 13 16
M  V30 16 1 16 17
M  V30 17 1 16 18
M  V30 18 1 18 19
M  V30 19 1 19 20
M  V30 20 2 20 21
M  V30 21 1 21 22
M  V30 22 1 22 23
M  V30 23 2 23 24
M  V30 24 1 24 25
M  V30 25 1 25 26
M  V30 26 2 25 27
M  V30 27 1 27 28
M  V30 28 1 28 29
M  V30 29 2 28 30
M  V30 30 1 1 31
M  V30 31 1 31 32
M  V30 32 2 31 33
M  V30 33 1 15 10
M  V30 34 1 24 20
M  V30 35 1 30 23
M  V30 36 1 1 34 CFG=1
M  V30 37 1 2 35
M  V30 38 1 2 36
M  V30 39 1 3 37
M  V30 40 1 3 38
M  V30 41 1 5 39
M  V30 42 1 7 40
M  V30 43 1 11 41
M  V30 44 1 12 42
M  V30 45 1 14 43
M  V30 46 1 15 44
M  V30 47 1 16 45
M  V30 48 1 17 46
M  V30 49 1 17 47
M  V30 50 1 17 48
M  V30 51 1 18 49
M  V30 52 1 18 50
M  V30 53 1 19 51
M  V30 54 1 19 52
M  V30 55 1 21 53
M  V30 56 1 22 54
M  V30 57 1 26 55
M  V30 58 1 26 56
M  V30 59 1 29 57
M  V30 60 1 29 58
M  V30 61 1 32 59
M  V30 END BOND
M  V30 END CTAB
M  END
