
     RDKit          3D

  0  0  0  0  0  0  0  0  0  0999 V3000
M  V30 BEGIN CTAB
M  V30 COUNTS 61 64 0 0 0
M  V30 BEGIN ATOM
M  V30 1 C 5.12057 -4.61921 1.32198 0
M  V30 2 O 4.09361 -3.98154 0.652066 0
M  V30 3 C 2.89348 -4.62597 0.874905 0
M  V30 4 C 1.74587 -3.97672 0.171858 0
M  V30 5 O 2.01659 -3.99653 -1.2425 0
M  V30 6 N 2.97113 -3.01419 -1.44787 0
M  V30 7 C 2.86564 -2.08846 -0.540897 0
M  V30 8 C 1.74004 -2.45048 0.373476 0
M  V30 9 C 0.419507 -1.94637 -0.159227 0
M  V30 10 O -0.200226 -2.76366 -0.864616 0
M  V30 11 N -0.0249883 -0.646298 0.147365 0
M  V30 12 C -1.22946 -0.0378142 -0.278622 0
M  V30 13 C -1.40597 1.34102 -0.058189 0
M  V30 14 C -2.56297 1.97725 -0.442608 0
M  V30 15 C -3.59963 1.30664 -1.05695 0
M  V30 16 C -3.46198 -0.0435044 -1.28881 0
M  V30 17 C -2.27695 -0.671072 -0.889731 0
M  V30 18 C -4.80203 2.01705 -1.43491 0
M  V30 19 C -4.98345 2.4546 -2.75783 0
M  V30 20 C -6.10879 3.1435 -3.15134 0
M  V30 21 C -7.07556 3.4019 -2.20328 0
M  V30 22 C -6.9383 2.99175 -0.898309 0
M  V30 23 C -5.78002 2.28922 -0.519308 0
M  V30 24 S -5.61212 1.75652 1.12999 0
M  V30 25 N -7.07237 2.19917 2.00334 0
M  V30 26 O -4.4847 2.4284 1.86281 0
M  V30 27 O -5.52838 0.259075 1.20582 0
M  V30 28 C 3.76297 -0.950944 -0.524162 0
M  V30 29 C 3.65848 -0.0224517 0.474199 0
M  V30 30 C 4.47044 1.07563 0.546016 0
M  V30 31 C 5.43212 1.2418 -0.437105 0
M  V30 32 C 5.54903 0.313429 -1.44985 0
M  V30 33 C 4.73045 -0.789481 -1.5185 0
M  V30 34 C 4.30499 2.02416 1.63599 0
M  V30 35 N 5.17659 3.16169 1.67012 0
M  V30 36 N 3.40348 1.82218 2.51774 0
M  V30 37 H 4.94926 -4.63903 2.40404 0
M  V30 38 H 5.20658 -5.65469 0.959551 0
M  V30 39 H 6.09643 -4.11779 1.08756 0
M  V30 40 H 2.69885 -4.62481 1.96924 0
M  V30 41 H 3.01178 -5.66546 0.514535 0
M  V30 42 H 0.755312 -4.36842 0.42165 0
M  V30 43 H 1.92755 -2.18786 1.39823 0
M  V30 44 H 0.592463 -0.0473317 0.776763 0
M  V30 45 H -0.58708 1.85359 0.421962 0
M  V30 46 H -2.65668 3.05114 -0.258275 0
M  V30 47 H -4.24484 -0.632351 -1.77115 0
M  V30 48 H -2.20907 -1.74039 -1.08243 0
M  V30 49 H -4.17803 2.21277 -3.44512 0
M  V30 50 H -6.19443 3.45397 -4.17641 0
M  V30 51 H -7.98836 3.95054 -2.48207 0
M  V30 52 H -7.69579 3.19119 -0.143705 0
M  V30 53 H -7.25253 3.20569 1.868 0
M  V30 54 H -7.83039 1.61971 1.54021 0
M  V30 55 H 2.91741 -0.140352 1.24878 0
M  V30 56 H 6.06288 2.1027 -0.373562 0
M  V30 57 H 6.32888 0.506829 -2.19172 0
M  V30 58 H 4.84287 -1.50145 -2.32203 0
M  V30 59 H 5.36421 3.68384 0.799723 0
M  V30 60 H 5.58149 3.40101 2.60205 0
M  V30 61 H 3.29417 2.50668 3.29232 0
M  V30 END ATOM
M  V30 BEGIN BOND
M  V30 1 1 1 2
M  V30 2 1 2 3
M  V30 3 1 3 4
M  V30 4 1 4 5
M  V30 5 1 5 6
M  V30 6 2 6 7
M  V30 7 1 7 8
M  V30 8 1 8 9
M  V30 9 2 9 10
M  V30 10 1 9 11
M  V30 11 1 11 12
M  V30 12 2 12 13
M  V30 13 1 13 14
M  V30 14 2 14 15
M  V30 15 1 15 16
M  V30 16 2 16 17
M  V30 17 1 15 18
M  V30 18 2 18 19
M  V30 19 1 19 20
M  V30 20 2 20 21
M  V30 21 1 21 22
M  V30 22 2 22 23
M  V30 23 1 23 24
M  V30 24 1 24 25
M  V30 25 2 24 26
M  V30 26 2 24 27
M  V30 27 1 7 28
M  V30 28 2 28 29
M  V30 29 1 29 30
M  V30 30 2 30 31
M  V30 31 1 31 32
M  V30 32 2 32 33
M  V30 33 1 30 34
M  V30 34 1 34 35
M  V30 35 2 34 36 CFG=2
M  V30 36 1 8 4
M  V30 37 1 17 12
M  V30 38 1 23 18
M  V30 39 1 33 28
M  V30 40 1 1 37
M  V30 41 1 1 38
M  V30 42 1 1 39
M  V30 43 1 3 40
M  V30 44 1 3 41
M  V30 45 1 4 42
M  V30 46 1 8 43
M  V30 47 1 11 44
M  V30 48 1 13 45
M  V30 49 1 14 46
M  V30 50 1 16 47
M  V30 51 1 17 48
M  V30 52 1 19 49
M  V30 53 1 20 50
M  V30 54 1 21 51
M  V30 55 1 22 52
M  V30 56 1 25 53
M  V30 57 1 25 54
M  V30 58 1 29 55
M  V30 59 1 31 56
M  V30 60 1 32 57
M  V30 61 1 33 58
M  V30 62 1 35 59
M  V30 63 1 35 60
M  V30 64 1 36 61
M  V30 END BOND
M  V30 END CTAB
M  END
