
     RDKit          3D

  0  0  0  0  0  0  0  0  0  0999 V3000
M  V30 BEGIN CTAB
M  V30 COUNTS 21 22 0 0 0
M  V30 BEGIN ATOM
M  V30 1 N -3.23102 0.302577 0.269527 0
M  V30 2 C -1.85483 0.476545 -0.0017396 0
M  V30 3 C -1.47095 1.63281 -0.651602 0
M  V30 4 N -0.173843 1.82916 -0.924053 0
M  V30 5 C 0.788273 0.952427 -0.596196 0
M  V30 6 C 0.402972 -0.205344 0.0546322 0
M  V30 7 C -0.91586 -0.462181 0.361297 0
M  V30 8 N -1.33037 -1.64073 1.02673 0
M  V30 9 C 1.38866 -1.12934 0.403881 0
M  V30 10 F 0.994472 -2.261 1.04233 0
M  V30 11 C 2.72524 -0.931515 0.125471 0
M  V30 12 C 3.06621 0.235499 -0.524314 0
M  V30 13 C 2.12393 1.17454 -0.887078 0
M  V30 14 Cl 2.57678 2.65751 -1.71535 0
M  V30 15 H -3.56374 0.398011 1.24408 0
M  V30 16 H -3.91415 0.0834236 -0.473714 0
M  V30 17 H -2.2338 2.37548 -0.936199 0
M  V30 18 H -1.52129 -2.49011 0.446241 0
M  V30 19 H -1.45541 -1.70694 2.06438 0
M  V30 20 H 3.48109 -1.67503 0.411425 0
M  V30 21 H 4.11764 0.384215 -0.739751 0
M  V30 END ATOM
M  V30 BEGIN BOND
M  V30 1 1 1 2
M  V30 2 2 2 3
M  V30 3 1 3 4
M  V30 4 2 4 5
M  V30 5 1 5 6
M  V30 6 2 6 7
M  V30 7 1 7 8
M  V30 8 1 6 9
M  V30 9 1 9 10
M  V30 10 2 9 11
M  V30 11 1 11 12
M  V30 12 2 12 13
M  V30 13 1 13 14
M  V30 14 1 7 2
M  V30 15 1 13 5
M  V30 16 1 1 15
M  V30 17 1 1 16
M  V30 18 1 3 17
M  V30 19 1 8 18
M  V30 20 1 8 19
M  V30 21 1 11 20
M  V30 22 1 12 21
M  V30 END BOND
M  V30 END CTAB
M  END
