
     RDKit          3D

  0  0  0  0  0  0  0  0  0  0999 V3000
M  V30 BEGIN CTAB
M  V30 COUNTS 35 36 0 0 0
M  V30 BEGIN ATOM
M  V30 1 C 3.98305 -1.05402 -0.882439 0
M  V30 2 C 2.92421 -0.538094 -1.81628 0
M  V30 3 O 1.72907 -0.378321 -1.13645 0
M  V30 4 C 1.42347 0.397648 -0.0691134 0
M  V30 5 C 2.31 1.21934 0.567782 0
M  V30 6 C 1.94611 1.99569 1.65915 0
M  V30 7 C 0.676955 1.96542 2.13939 0
M  V30 8 C -0.247596 1.13238 1.504 0
M  V30 9 C 0.137993 0.37365 0.425515 0
M  V30 10 C -0.884445 -0.51207 -0.246782 0
M  V30 11 C -1.58926 -1.22269 0.807908 0
M  V30 12 C -2.84148 -1.67333 0.718257 0
M  V30 13 N -3.43824 -2.34773 1.78912 0
M  V30 14 S -3.65123 -1.35368 -0.84227 0
M  V30 15 C -2.88101 0.121752 -1.51218 0
M  V30 16 C -1.63646 0.34098 -1.13715 0
M  V30 17 C -0.992443 1.5369 -1.67806 0
M  V30 18 N -0.468598 2.47152 -2.11433 0
M  V30 19 N -3.58362 0.987499 -2.39011 0
M  V30 20 C -0.888164 -1.4783 2.05013 0
M  V30 21 N -0.332129 -1.70276 3.04728 0
M  V30 22 Br 0.148863 3.02482 3.64153 0
M  V30 23 H 4.80335 -0.303727 -0.861551 0
M  V30 24 H 4.34376 -2.05725 -1.18897 0
M  V30 25 H 3.56296 -1.10601 0.137617 0
M  V30 26 H 3.24019 0.375865 -2.35943 0
M  V30 27 H 2.75655 -1.33693 -2.59446 0
M  V30 28 H 3.31551 1.28001 0.230709 0
M  V30 29 H 2.68986 2.62371 2.11913 0
M  V30 30 H -1.23392 1.14616 1.91561 0
M  V30 31 H -0.322739 -1.28303 -0.862445 0
M  V30 32 H -3.6685 -3.3598 1.70485 0
M  V30 33 H -3.66644 -1.87824 2.67988 0
M  V30 34 H -4.24049 1.70013 -2.04187 0
M  V30 35 H -3.42513 0.892515 -3.40398 0
M  V30 END ATOM
M  V30 BEGIN BOND
M  V30 1 1 1 2
M  V30 2 1 2 3
M  V30 3 1 3 4
M  V30 4 2 4 5
M  V30 5 1 5 6
M  V30 6 2 6 7
M  V30 7 1 7 8
M  V30 8 2 8 9
M  V30 9 1 9 10
M  V30 10 1 10 11
M  V30 11 2 11 12
M  V30 12 1 12 13
M  V30 13 1 12 14
M  V30 14 1 14 15
M  V30 15 2 15 16
M  V30 16 1 16 17
M  V30 17 3 17 18
M  V30 18 1 15 19
M  V30 19 1 11 20
M  V30 20 3 20 21
M  V30 21 1 7 22
M  V30 22 1 9 4
M  V30 23 1 16 10
M  V30 24 1 1 23
M  V30 25 1 1 24
M  V30 26 1 1 25
M  V30 27 1 2 26
M  V30 28 1 2 27
M  V30 29 1 5 28
M  V30 30 1 6 29
M  V30 31 1 8 30
M  V30 32 1 10 31
M  V30 33 1 13 32
M  V30 34 1 13 33
M  V30 35 1 19 34
M  V30 36 1 19 35
M  V30 END BOND
M  V30 END CTAB
M  END
