
     RDKit          3D

  0  0  0  0  0  0  0  0  0  0999 V3000
M  V30 BEGIN CTAB
M  V30 COUNTS 37 40 0 0 0
M  V30 BEGIN ATOM
M  V30 1 C 6.19475 0.00370264 0.244184 0
M  V30 2 O 5.30091 -0.707031 1.07924 0
M  V30 3 C 3.92301 -0.556262 0.833289 0
M  V30 4 C 2.9995 -1.22866 1.61985 0
M  V30 5 C 1.62276 -1.10183 1.40307 0
M  V30 6 C 1.18599 -0.29125 0.386494 0
M  V30 7 C 2.0781 0.374046 -0.392052 0
M  V30 8 C 1.69421 1.27597 -1.4976 0
M  V30 9 C 0.269314 1.39122 -1.81381 0
M  V30 10 C -0.63448 0.672264 -0.918759 0
M  V30 11 C -2.0244 0.797299 -1.12638 0
M  V30 12 C -2.87571 0.117045 -0.301386 0
M  V30 13 C -4.2604 0.216709 -0.47716 0
M  V30 14 N -4.69965 1.04891 -1.54004 0
M  V30 15 N -5.10105 -0.450637 0.33177 0
M  V30 16 C -4.67302 -1.23654 1.33601 0
M  V30 17 N -5.58086 -1.93941 2.18718 0
M  V30 18 N -3.34501 -1.34436 1.52 0
M  V30 19 C -2.44671 -0.689212 0.728518 0
M  V30 20 N -1.12955 -0.800903 0.917162 0
M  V30 21 C -0.246307 -0.127938 0.102874 0
M  V30 22 C 3.45391 0.250388 -0.179539 0
M  V30 23 H 6.03647 1.09235 0.362308 0
M  V30 24 H 7.2356 -0.310151 0.394825 0
M  V30 25 H 5.91856 -0.280853 -0.808276 0
M  V30 26 H 3.3946 -1.85874 2.4125 0
M  V30 27 H 0.935622 -1.64361 2.03935 0
M  V30 28 H 2.14524 2.28303 -1.18918 0
M  V30 29 H 2.27272 0.989528 -2.42712 0
M  V30 30 H 0.121056 1.04308 -2.8949 0
M  V30 31 H 0.00870134 2.49229 -1.85341 0
M  V30 32 H -2.35572 1.42984 -1.93416 0
M  V30 33 H -4.56167 0.706417 -2.51252 0
M  V30 34 H -5.15072 1.97847 -1.42316 0
M  V30 35 H -6.49303 -1.49814 2.41189 0
M  V30 36 H -5.38775 -2.87467 2.60218 0
M  V30 37 H 4.17502 0.777637 -0.796392 0
M  V30 END ATOM
M  V30 BEGIN BOND
M  V30 1 1 1 2
M  V30 2 1 2 3
M  V30 3 2 3 4
M  V30 4 1 4 5
M  V30 5 2 5 6
M  V30 6 1 6 7
M  V30 7 1 7 8
M  V30 8 1 8 9
M  V30 9 1 9 10
M  V30 10 2 10 11
M  V30 11 1 11 12
M  V30 12 2 12 13
M  V30 13 1 13 14
M  V30 14 1 13 15
M  V30 15 2 15 16
M  V30 16 1 16 17
M  V30 17 1 16 18
M  V30 18 2 18 19
M  V30 19 1 19 20
M  V30 20 2 20 21
M  V30 21 2 7 22
M  V30 22 1 22 3
M  V30 23 1 21 6
M  V30 24 1 21 10
M  V30 25 1 19 12
M  V30 26 1 1 23
M  V30 27 1 1 24
M  V30 28 1 1 25
M  V30 29 1 4 26
M  V30 30 1 5 27
M  V30 31 1 8 28
M  V30 32 1 8 29
M  V30 33 1 9 30
M  V30 34 1 9 31
M  V30 35 1 11 32
M  V30 36 1 14 33
M  V30 37 1 14 34
M  V30 38 1 17 35
M  V30 39 1 17 36
M  V30 40 1 22 37
M  V30 END BOND
M  V30 END CTAB
M  END
