
     RDKit          3D

  0  0  0  0  0  0  0  0  0  0999 V3000
M  V30 BEGIN CTAB
M  V30 COUNTS 16 16 0 0 0
M  V30 BEGIN ATOM
M  V30 1 N -1.40344 -1.30801 1.14273 0
M  V30 2 C -1.01426 -0.207484 0.307218 0
M  V30 3 N -1.90761 0.576465 -0.102988 0
M  V30 4 N -1.82709 1.67234 -0.886461 0
M  V30 5 C 0.417784 -0.0355594 -0.0399938 0
M  V30 6 C 0.841429 0.994277 -0.831282 0
M  V30 7 S 2.55539 0.731328 -0.917207 0
M  V30 8 C 2.65654 -0.654437 0.0414849 0
M  V30 9 C 1.36901 -0.881875 0.40493 0
M  V30 10 Br 1.02959 -2.41943 1.54 0
M  V30 11 H -1.43466 -1.14561 2.17263 0
M  V30 12 H -1.62866 -2.19524 0.664514 0
M  V30 13 H -1.91214 1.58768 -1.93618 0
M  V30 14 H -1.68274 2.65194 -0.492977 0
M  V30 15 H 0.370253 1.82466 -1.34085 0
M  V30 16 H 3.57059 -1.19105 0.274433 0
M  V30 END ATOM
M  V30 BEGIN BOND
M  V30 1 1 1 2
M  V30 2 2 2 3
M  V30 3 1 3 4
M  V30 4 1 2 5
M  V30 5 2 5 6
M  V30 6 1 6 7
M  V30 7 1 7 8
M  V30 8 2 8 9
M  V30 9 1 9 10
M  V30 10 1 9 5
M  V30 11 1 1 11
M  V30 12 1 1 12
M  V30 13 1 4 13
M  V30 14 1 4 14
M  V30 15 1 6 15
M  V30 16 1 8 16
M  V30 END BOND
M  V30 END CTAB
M  END
