
     RDKit          3D

  0  0  0  0  0  0  0  0  0  0999 V3000
M  V30 BEGIN CTAB
M  V30 COUNTS 45 47 0 0 0
M  V30 BEGIN ATOM
M  V30 1 C 1.5216 2.45864 -1.79129 0
M  V30 2 C 0.51948 1.77518 -0.954073 0
M  V30 3 O -0.697225 1.84326 -1.3562 0
M  V30 4 C 0.877103 1.06696 0.251709 0
M  V30 5 N 2.03301 0.940337 0.731716 0
M  V30 6 N 3.22925 1.41633 0.269102 0
M  V30 7 C 4.33249 0.56966 -0.0437046 0
M  V30 8 C 5.52339 1.08164 -0.507821 0
M  V30 9 C 6.61033 0.293859 -0.82011 0
M  V30 10 C 6.50275 -1.07203 -0.661147 0
M  V30 11 C 5.32158 -1.6309 -0.196293 0
M  V30 12 C 4.26017 -0.812254 0.104282 0
M  V30 13 N -0.262028 0.456885 0.939905 0
M  V30 14 N -0.968708 1.0166 1.89912 0
M  V30 15 C -1.94246 0.192841 2.31589 0
M  V30 16 N -2.83795 0.566435 3.35401 0
M  V30 17 C -1.83942 -0.947971 1.5743 0
M  V30 18 N -2.67242 -2.06899 1.70128 0
M  V30 19 N -3.77852 -2.14585 1.14221 0
M  V30 20 C -4.34926 -1.16647 0.328633 0
M  V30 21 C -3.92802 -0.876819 -0.94023 0
M  V30 22 C -4.53075 0.0982234 -1.71021 0
M  V30 23 C -5.58803 0.82939 -1.23923 0
M  V30 24 C -6.01786 0.545914 0.0326132 0
M  V30 25 C -5.43078 -0.423559 0.819553 0
M  V30 26 C -0.766253 -0.757067 0.709003 0
M  V30 27 N -0.300821 -1.70116 -0.235579 0
M  V30 28 H 2.3725 1.83487 -2.10655 0
M  V30 29 H 1.8556 3.44075 -1.34948 0
M  V30 30 H 1.03315 2.80923 -2.75953 0
M  V30 31 H 3.3851 2.44329 0.131231 0
M  V30 32 H 5.58828 2.16568 -0.626775 0
M  V30 33 H 7.54772 0.687057 -1.18456 0
M  V30 34 H 7.34158 -1.72052 -0.898562 0
M  V30 35 H 5.26819 -2.70381 -0.0823627 0
M  V30 36 H 3.31832 -1.22703 0.47222 0
M  V30 37 H -2.71625 0.203952 4.33525 0
M  V30 38 H -3.65257 1.20833 3.21087 0
M  V30 39 H -3.09812 -1.43243 -1.35375 0
M  V30 40 H -4.16887 0.304358 -2.72047 0
M  V30 41 H -6.03056 1.57664 -1.86287 0
M  V30 42 H -6.85372 1.09955 0.450232 0
M  V30 43 H -5.76309 -0.652867 1.82173 0
M  V30 44 H -0.717635 -1.75058 -1.18614 0
M  V30 45 H 0.469718 -2.37174 -0.00790461 0
M  V30 END ATOM
M  V30 BEGIN BOND
M  V30 1 1 1 2
M  V30 2 2 2 3
M  V30 3 1 2 4
M  V30 4 2 4 5 CFG=2
M  V30 5 1 5 6
M  V30 6 1 6 7
M  V30 7 2 7 8
M  V30 8 1 8 9
M  V30 9 2 9 10
M  V30 10 1 10 11
M  V30 11 2 11 12
M  V30 12 1 4 13
M  V30 13 1 13 14
M  V30 14 2 14 15
M  V30 15 1 15 16
M  V30 16 1 15 17
M  V30 17 1 17 18
M  V30 18 2 18 19 CFG=2
M  V30 19 1 19 20
M  V30 20 2 20 21
M  V30 21 1 21 22
M  V30 22 2 22 23
M  V30 23 1 23 24
M  V30 24 2 24 25
M  V30 25 2 17 26
M  V30 26 1 26 27
M  V30 27 1 12 7
M  V30 28 1 26 13
M  V30 29 1 25 20
M  V30 30 1 1 28
M  V30 31 1 1 29
M  V30 32 1 1 30
M  V30 33 1 6 31
M  V30 34 1 8 32
M  V30 35 1 9 33
M  V30 36 1 10 34
M  V30 37 1 11 35
M  V30 38 1 12 36
M  V30 39 1 16 37
M  V30 40 1 16 38
M  V30 41 1 21 39
M  V30 42 1 22 40
M  V30 43 1 23 41
M  V30 44 1 24 42
M  V30 45 1 25 43
M  V30 46 1 27 44
M  V30 47 1 27 45
M  V30 END BOND
M  V30 END CTAB
M  END
