
     RDKit          3D

  0  0  0  0  0  0  0  0  0  0999 V3000
M  V30 BEGIN CTAB
M  V30 COUNTS 46 46 0 0 0
M  V30 BEGIN ATOM
M  V30 1 N 1.26807 1.90394 2.70463 0
M  V30 2 C 1.95599 1.38412 1.52495 0
M  V30 3 C 1.12957 0.510783 0.678197 0
M  V30 4 O -0.0413481 1.04749 0.163057 0
M  V30 5 C -1.18681 0.344696 0.391429 0 CFG=2
M  V30 6 O -1.587 -0.12623 -0.870634 0
M  V30 7 C -2.64231 -0.960182 -0.866172 0 CFG=2
M  V30 8 C -3.16817 -1.07247 -2.28798 0
M  V30 9 O -3.56615 0.193136 -2.76301 0
M  V30 10 C -3.78428 -0.631245 0.0255125 0 CFG=1
M  V30 11 C -3.40418 0.0603849 1.29238 0 CFG=1
M  V30 12 C -2.36574 1.12619 0.897785 0 CFG=1
M  V30 13 O -2.13027 1.98844 1.92361 0
M  V30 14 O -4.46595 0.601254 1.95447 0
M  V30 15 O -4.71849 0.198353 -0.635693 0
M  V30 16 C 1.9971 0.00251688 -0.493868 0
M  V30 17 C 3.14775 -0.760528 0.0810844 0
M  V30 18 C 4.04697 -1.3842 -0.993067 0 CFG=1
M  V30 19 C 4.60834 -0.335156 -1.85567 0
M  V30 20 O 5.83172 -0.0294541 -1.74123 0
M  V30 21 O 3.85322 0.330925 -2.79052 0
M  V30 22 N 5.11684 -2.03922 -0.233879 0
M  V30 23 H 2.01877 2.30034 3.32004 0
M  V30 24 H 0.909389 1.06018 3.21844 0
M  V30 25 H 2.54755 2.15912 1.00158 0
M  V30 26 H 2.73844 0.70868 2.00442 0
M  V30 27 H 0.864502 -0.413406 1.22179 0
M  V30 28 H -1.07522 -0.568735 1.0089 0
M  V30 29 H -2.28871 -1.99106 -0.598039 0
M  V30 30 H -4.00875 -1.78748 -2.36022 0
M  V30 31 H -2.3067 -1.38131 -2.91397 0
M  V30 32 H -4.15619 0.0805942 -3.54332 0
M  V30 33 H -4.34295 -1.55198 0.293827 0
M  V30 34 H -2.88249 -0.653944 1.94883 0
M  V30 35 H -2.85721 1.63337 0.00997214 0
M  V30 36 H -2.72261 2.75848 1.88354 0
M  V30 37 H -5.02697 1.19521 1.42408 0
M  V30 38 H -5.60772 0.0598945 -0.199127 0
M  V30 39 H 1.34027 -0.617257 -1.11276 0
M  V30 40 H 2.36622 0.911871 -1.01497 0
M  V30 41 H 3.80883 -0.0437629 0.630641 0
M  V30 42 H 2.82087 -1.57718 0.745089 0
M  V30 43 H 3.48622 -2.15672 -1.51941 0
M  V30 44 H 4.0434 1.30127 -2.95166 0
M  V30 45 H 4.66657 -2.5116 0.568998 0
M  V30 46 H 5.76964 -1.26811 0.0853006 0
M  V30 END ATOM
M  V30 BEGIN BOND
M  V30 1 1 1 2
M  V30 2 1 2 3
M  V30 3 1 3 4
M  V30 4 1 4 5
M  V30 5 1 5 6
M  V30 6 1 6 7
M  V30 7 1 7 8
M  V30 8 1 8 9
M  V30 9 1 7 10
M  V30 10 1 10 11
M  V30 11 1 11 12
M  V30 12 1 12 13
M  V30 13 1 11 14
M  V30 14 1 10 15
M  V30 15 1 3 16
M  V30 16 1 16 17
M  V30 17 1 17 18
M  V30 18 1 18 19
M  V30 19 2 19 20
M  V30 20 1 19 21
M  V30 21 1 18 22
M  V30 22 1 12 5
M  V30 23 1 1 23
M  V30 24 1 1 24
M  V30 25 1 2 25
M  V30 26 1 2 26
M  V30 27 1 3 27
M  V30 28 1 5 28 CFG=1
M  V30 29 1 7 29 CFG=1
M  V30 30 1 8 30
M  V30 31 1 8 31
M  V30 32 1 9 32
M  V30 33 1 10 33 CFG=1
M  V30 34 1 11 34 CFG=1
M  V30 35 1 12 35 CFG=3
M  V30 36 1 13 36
M  V30 37 1 14 37
M  V30 38 1 15 38
M  V30 39 1 16 39
M  V30 40 1 16 40
M  V30 41 1 17 41
M  V30 42 1 17 42
M  V30 43 1 18 43 CFG=3
M  V30 44 1 21 44
M  V30 45 1 22 45
M  V30 46 1 22 46
M  V30 END BOND
M  V30 END CTAB
M  END
