
     RDKit          3D

  0  0  0  0  0  0  0  0  0  0999 V3000
M  V30 BEGIN CTAB
M  V30 COUNTS 24 25 0 0 0
M  V30 BEGIN ATOM
M  V30 1 C 4.68377 -0.315804 -0.268054 0
M  V30 2 C 3.21713 -0.279222 0.00205311 0
M  V30 3 N 2.3521 -0.64351 -0.929881 0
M  V30 4 C 1.01553 -0.648812 -0.793009 0
M  V30 5 C 0.514033 -0.23823 0.425128 0
M  V30 6 C 1.40913 0.144011 1.40444 0
M  V30 7 N 2.74321 0.126197 1.20247 0
M  V30 8 C -0.93356 -0.210523 0.667961 0
M  V30 9 N -1.61698 -0.637535 1.72669 0
M  V30 10 C -2.93331 -0.428146 1.55235 0
M  V30 11 N -3.0622 0.152935 0.332723 0
M  V30 12 C -1.84388 0.29288 -0.221869 0
M  V30 13 N -1.57287 0.8713 -1.51926 0
M  V30 14 N -4.27099 0.54447 -0.254837 0
M  V30 15 H 5.10815 -1.32529 -0.00767807 0
M  V30 16 H 5.2085 0.489236 0.292857 0
M  V30 17 H 4.80939 -0.217656 -1.36582 0
M  V30 18 H 0.356007 -0.960519 -1.59957 0
M  V30 19 H 1.01613 0.470703 2.37294 0
M  V30 20 H -3.75711 -0.663091 2.22838 0
M  V30 21 H -1.24169 1.83131 -1.64785 0
M  V30 22 H -1.73176 0.255629 -2.35026 0
M  V30 23 H -5.0657 0.819355 0.351672 0
M  V30 24 H -4.40302 0.570315 -1.28078 0
M  V30 END ATOM
M  V30 BEGIN BOND
M  V30 1 1 1 2
M  V30 2 2 2 3
M  V30 3 1 3 4
M  V30 4 2 4 5
M  V30 5 1 5 6
M  V30 6 2 6 7
M  V30 7 1 5 8
M  V30 8 1 8 9
M  V30 9 2 9 10
M  V30 10 1 10 11
M  V30 11 1 11 12
M  V30 12 1 12 13
M  V30 13 1 11 14
M  V30 14 1 7 2
M  V30 15 2 12 8
M  V30 16 1 1 15
M  V30 17 1 1 16
M  V30 18 1 1 17
M  V30 19 1 4 18
M  V30 20 1 6 19
M  V30 21 1 10 20
M  V30 22 1 13 21
M  V30 23 1 13 22
M  V30 24 1 14 23
M  V30 25 1 14 24
M  V30 END BOND
M  V30 END CTAB
M  END
