
     RDKit          3D

  0  0  0  0  0  0  0  0  0  0999 V3000
M  V30 BEGIN CTAB
M  V30 COUNTS 27 29 0 0 0
M  V30 BEGIN ATOM
M  V30 1 C -4.01969 -0.298045 -0.543973 0
M  V30 2 N -2.66627 -0.424608 0.0115239 0
M  V30 3 C -2.39833 -0.995569 1.18613 0
M  V30 4 C -1.02228 -0.91858 1.34981 0
M  V30 5 C -0.488469 -0.298878 0.262981 0
M  V30 6 C -1.54766 0.0155941 -0.591865 0
M  V30 7 C -1.31236 0.653589 -1.78245 0
M  V30 8 C -0.035462 0.990522 -2.14835 0
M  V30 9 C 1.00804 0.676129 -1.29724 0
M  V30 10 N 2.28578 0.995752 -1.6292 0
M  V30 11 C 3.31121 0.697619 -0.813931 0
M  V30 12 N 4.61349 1.07533 -1.25356 0
M  V30 13 N 3.12015 0.0755634 0.355658 0
M  V30 14 C 1.87235 -0.271677 0.74831 0
M  V30 15 N 1.70639 -0.935986 2.00602 0
M  V30 16 C 0.819752 0.0313882 -0.0827735 0
M  V30 17 H -4.6799 -0.069796 0.316522 0
M  V30 18 H -4.28916 -1.22791 -1.05314 0
M  V30 19 H -4.08354 0.527812 -1.2777 0
M  V30 20 H -3.12712 -1.43522 1.87734 0
M  V30 21 H -0.554698 -1.306 2.21201 0
M  V30 22 H -2.15028 0.897681 -2.44957 0
M  V30 23 H 0.149713 1.49303 -3.08615 0
M  V30 24 H 5.10259 1.82731 -0.704635 0
M  V30 25 H 5.09219 0.649002 -2.07659 0
M  V30 26 H 1.73078 -1.98847 2.0378 0
M  V30 27 H 1.56279 -0.435587 2.9018 0
M  V30 END ATOM
M  V30 BEGIN BOND
M  V30 1 1 1 2
M  V30 2 1 2 3
M  V30 3 2 3 4
M  V30 4 1 4 5
M  V30 5 2 5 6
M  V30 6 1 6 7
M  V30 7 2 7 8
M  V30 8 1 8 9
M  V30 9 2 9 10
M  V30 10 1 10 11
M  V30 11 1 11 12
M  V30 12 2 11 13
M  V30 13 1 13 14
M  V30 14 1 14 15
M  V30 15 2 14 16
M  V30 16 1 6 2
M  V30 17 1 16 9
M  V30 18 1 16 5
M  V30 19 1 1 17
M  V30 20 1 1 18
M  V30 21 1 1 19
M  V30 22 1 3 20
M  V30 23 1 4 21
M  V30 24 1 7 22
M  V30 25 1 8 23
M  V30 26 1 12 24
M  V30 27 1 12 25
M  V30 28 1 15 26
M  V30 29 1 15 27
M  V30 END BOND
M  V30 END CTAB
M  END
