
     RDKit          3D

  0  0  0  0  0  0  0  0  0  0999 V3000
M  V30 BEGIN CTAB
M  V30 COUNTS 53 55 0 0 0
M  V30 BEGIN ATOM
M  V30 1 C -1.46429 1.99293 2.02946 0
M  V30 2 C -1.78199 0.87385 1.11319 0
M  V30 3 C -2.87824 0.0835956 1.3028 0
M  V30 4 C -3.17849 -0.976187 0.431316 0
M  V30 5 C -2.3196 -1.18586 -0.618879 0
M  V30 6 N -2.53189 -2.23147 -1.55199 0
M  V30 7 C -1.22215 -0.35246 -0.76197 0
M  V30 8 O -0.468611 -0.602308 -1.75456 0
M  V30 9 N -0.940946 0.652638 0.0622701 0
M  V30 10 C 0.166131 1.54401 -0.118285 0
M  V30 11 C 1.39096 1.141 0.579788 0
M  V30 12 O 1.41397 0.0847852 1.24738 0
M  V30 13 N 2.57341 1.94542 0.510482 0
M  V30 14 C 3.80902 1.64347 1.14757 0
M  V30 15 C 4.49882 0.494246 0.563259 0
M  V30 16 C 4.02791 -0.155165 -0.539799 0
M  V30 17 C 4.76644 -1.21296 -1.05529 0
M  V30 18 C 5.93545 -1.58272 -0.461442 0
M  V30 19 N 6.72786 -2.66172 -0.956528 0
M  V30 20 N 6.37227 -0.917822 0.628446 0
M  V30 21 C 5.69386 0.107562 1.16095 0
M  V30 22 C 6.16182 0.838166 2.34758 0
M  V30 23 S -4.63207 -1.95245 0.648833 0
M  V30 24 O -5.36656 -1.50897 1.85258 0
M  V30 25 O -4.23855 -3.37747 0.724136 0
M  V30 26 N -5.59687 -1.63745 -0.768798 0
M  V30 27 C -5.93827 -0.229415 -0.832251 0
M  V30 28 C -5.50411 0.376439 -2.1873 0
M  V30 29 C -6.92277 0.342296 -1.73928 0
M  V30 30 H -2.17893 1.96959 2.90199 0
M  V30 31 H -0.46019 1.95436 2.44171 0
M  V30 32 H -1.63923 2.98023 1.55096 0
M  V30 33 H -3.57401 0.218811 2.11907 0
M  V30 34 H -2.2205 -3.19104 -1.30155 0
M  V30 35 H -2.98199 -2.07994 -2.47287 0
M  V30 36 H -0.106968 2.58707 0.213527 0
M  V30 37 H 0.384673 1.65052 -1.20347 0
M  V30 38 H 2.51804 2.83451 -0.0699427 0
M  V30 39 H 4.51684 2.52014 1.02936 0
M  V30 40 H 3.70521 1.56182 2.26133 0
M  V30 41 H 3.11366 0.133321 -1.03755 0
M  V30 42 H 4.39343 -1.72551 -1.92354 0
M  V30 43 H 7.5602 -2.96553 -0.426885 0
M  V30 44 H 6.48449 -3.15221 -1.84182 0
M  V30 45 H 6.61613 1.81696 2.09798 0
M  V30 46 H 5.40605 0.901885 3.15579 0
M  V30 47 H 7.00818 0.232017 2.78868 0
M  V30 48 H -6.39963 -2.26064 -0.849092 0
M  V30 49 H -5.55097 0.354017 0.0189878 0
M  V30 50 H -5.22153 -0.290592 -3.00124 0
M  V30 51 H -4.92039 1.31997 -2.16835 0
M  V30 52 H -7.63884 -0.234266 -2.3276 0
M  V30 53 H -7.36623 1.32851 -1.41126 0
M  V30 END ATOM
M  V30 BEGIN BOND
M  V30 1 1 1 2
M  V30 2 2 2 3
M  V30 3 1 3 4
M  V30 4 2 4 5
M  V30 5 1 5 6
M  V30 6 1 5 7
M  V30 7 2 7 8
M  V30 8 1 7 9
M  V30 9 1 9 10
M  V30 10 1 10 11
M  V30 11 2 11 12
M  V30 12 1 11 13
M  V30 13 1 13 14
M  V30 14 1 14 15
M  V30 15 2 15 16
M  V30 16 1 16 17
M  V30 17 2 17 18
M  V30 18 1 18 19
M  V30 19 1 18 20
M  V30 20 2 20 21
M  V30 21 1 21 22
M  V30 22 1 4 23
M  V30 23 2 23 24
M  V30 24 2 23 25
M  V30 25 1 23 26
M  V30 26 1 26 27
M  V30 27 1 27 28
M  V30 28 1 28 29
M  V30 29 1 9 2
M  V30 30 1 21 15
M  V30 31 1 29 27
M  V30 32 1 1 30
M  V30 33 1 1 31
M  V30 34 1 1 32
M  V30 35 1 3 33
M  V30 36 1 6 34
M  V30 37 1 6 35
M  V30 38 1 10 36
M  V30 39 1 10 37
M  V30 40 1 13 38
M  V30 41 1 14 39
M  V30 42 1 14 40
M  V30 43 1 16 41
M  V30 44 1 17 42
M  V30 45 1 19 43
M  V30 46 1 19 44
M  V30 47 1 22 45
M  V30 48 1 22 46
M  V30 49 1 22 47
M  V30 50 1 26 48
M  V30 51 1 27 49
M  V30 52 1 28 50
M  V30 53 1 28 51
M  V30 54 1 29 52
M  V30 55 1 29 53
M  V30 END BOND
M  V30 END CTAB
M  END
