
     RDKit          3D

  0  0  0  0  0  0  0  0  0  0999 V3000
M  V30 BEGIN CTAB
M  V30 COUNTS 28 28 0 0 0
M  V30 BEGIN ATOM
M  V30 1 N -3.26237 -0.604302 0.878696 0
M  V30 2 C -2.1002 0.1875 1.13491 0
M  V30 3 C -1.2022 0.217665 -0.0763352 0
M  V30 4 N -1.86547 0.777729 -1.2292 0
M  V30 5 C -0.711445 -1.17886 -0.411244 0
M  V30 6 C 0.376915 -0.839995 -1.42526 0
M  V30 7 C 1.08973 0.299579 -0.719829 0
M  V30 8 C 0.101334 0.932302 0.196652 0
M  V30 9 S 2.49663 -0.370759 0.102978 0
M  V30 10 O 3.33905 -1.10166 -0.903526 0
M  V30 11 O 2.06696 -1.35893 1.15007 0
M  V30 12 C 3.48706 0.858516 0.883809 0
M  V30 13 H -3.16531 -1.60709 1.05289 0
M  V30 14 H -3.79086 -0.338919 0.0301686 0
M  V30 15 H -2.40793 1.21795 1.37837 0
M  V30 16 H -1.56043 -0.236259 1.97941 0
M  V30 17 H -2.55766 1.53484 -0.96331 0
M  V30 18 H -2.45086 0.0156511 -1.65679 0
M  V30 19 H -0.290453 -1.64982 0.492409 0
M  V30 20 H -1.51623 -1.7863 -0.868036 0
M  V30 21 H 1.04144 -1.6988 -1.61365 0
M  V30 22 H -0.146105 -0.477949 -2.3358 0
M  V30 23 H 1.41367 1.01073 -1.50306 0
M  V30 24 H 0.383197 0.881689 1.26559 0
M  V30 25 H -0.00232539 2.02847 -0.0488159 0
M  V30 26 H 3.0162 1.23254 1.79994 0
M  V30 27 H 3.77084 1.68931 0.222189 0
M  V30 28 H 4.44682 0.365157 1.18679 0
M  V30 END ATOM
M  V30 BEGIN BOND
M  V30 1 1 1 2
M  V30 2 1 2 3
M  V30 3 1 3 4
M  V30 4 1 3 5
M  V30 5 1 5 6
M  V30 6 1 6 7
M  V30 7 1 7 8
M  V30 8 1 7 9
M  V30 9 2 9 10
M  V30 10 2 9 11
M  V30 11 1 9 12
M  V30 12 1 8 3
M  V30 13 1 1 13
M  V30 14 1 1 14
M  V30 15 1 2 15
M  V30 16 1 2 16
M  V30 17 1 4 17
M  V30 18 1 4 18
M  V30 19 1 5 19
M  V30 20 1 5 20
M  V30 21 1 6 21
M  V30 22 1 6 22
M  V30 23 1 7 23
M  V30 24 1 8 24
M  V30 25 1 8 25
M  V30 26 1 12 26
M  V30 27 1 12 27
M  V30 28 1 12 28
M  V30 END BOND
M  V30 END CTAB
M  END
