
     RDKit          3D

  0  0  0  0  0  0  0  0  0  0999 V3000
M  V30 BEGIN CTAB
M  V30 COUNTS 38 40 0 0 0
M  V30 BEGIN ATOM
M  V30 1 N -2.68831 -0.161676 -2.03693 0
M  V30 2 C -3.34839 -0.683001 -0.899545 0
M  V30 3 C -4.70219 -1.03666 -0.998476 0
M  V30 4 C -5.31026 -1.56296 0.106695 0
M  V30 5 C -4.63556 -1.75251 1.30045 0
M  V30 6 C -3.31181 -1.40193 1.38388 0
M  V30 7 C -2.64951 -0.861672 0.285009 0
M  V30 8 O -1.34163 -0.521209 0.379035 0
M  V30 9 C -0.755641 0.719761 0.278129 0
M  V30 10 C -1.42601 1.90931 0.116594 0
M  V30 11 C -0.768684 3.13847 0.0172492 0
M  V30 12 C 0.605821 3.18639 0.0819411 0
M  V30 13 C 1.30356 2.00161 0.245391 0
M  V30 14 C 0.649244 0.791686 0.341822 0
M  V30 15 O 1.31092 -0.410595 0.502072 0
M  V30 16 C 2.65557 -0.628639 0.524748 0
M  V30 17 C 3.30003 -1.10413 1.67358 0
M  V30 18 C 4.65436 -1.31433 1.65938 0
M  V30 19 C 5.3931 -1.06209 0.522405 0
M  V30 20 C 4.76412 -0.595391 -0.608565 0
M  V30 21 C 3.38733 -0.376029 -0.613244 0
M  V30 22 N 2.81569 0.0831646 -1.84488 0
M  V30 23 H -2.96498 0.760307 -2.40546 0
M  V30 24 H -1.93733 -0.702443 -2.49058 0
M  V30 25 H -5.2414 -0.891956 -1.93125 0
M  V30 26 H -6.35724 -1.84996 0.0723854 0
M  V30 27 H -5.1209 -2.17263 2.18144 0
M  V30 28 H -2.73573 -1.52682 2.2876 0
M  V30 29 H -2.52038 1.89448 0.0791829 0
M  V30 30 H -1.36445 4.03518 -0.109896 0
M  V30 31 H 1.10404 4.14019 0.00423725 0
M  V30 32 H 2.39093 2.07069 0.30863 0
M  V30 33 H 2.67786 -1.29209 2.55582 0
M  V30 34 H 5.13627 -1.68477 2.56426 0
M  V30 35 H 6.46532 -1.24851 0.574047 0
M  V30 36 H 5.35269 -0.396867 -1.5069 0
M  V30 37 H 3.37474 0.658646 -2.49939 0
M  V30 38 H 1.83884 -0.151042 -2.10085 0
M  V30 END ATOM
M  V30 BEGIN BOND
M  V30 1 1 1 2
M  V30 2 2 2 3
M  V30 3 1 3 4
M  V30 4 2 4 5
M  V30 5 1 5 6
M  V30 6 2 6 7
M  V30 7 1 7 8
M  V30 8 1 8 9
M  V30 9 2 9 10
M  V30 10 1 10 11
M  V30 11 2 11 12
M  V30 12 1 12 13
M  V30 13 2 13 14
M  V30 14 1 14 15
M  V30 15 1 15 16
M  V30 16 2 16 17
M  V30 17 1 17 18
M  V30 18 2 18 19
M  V30 19 1 19 20
M  V30 20 2 20 21
M  V30 21 1 21 22
M  V30 22 1 7 2
M  V30 23 1 14 9
M  V30 24 1 21 16
M  V30 25 1 1 23
M  V30 26 1 1 24
M  V30 27 1 3 25
M  V30 28 1 4 26
M  V30 29 1 5 27
M  V30 30 1 6 28
M  V30 31 1 10 29
M  V30 32 1 11 30
M  V30 33 1 12 31
M  V30 34 1 13 32
M  V30 35 1 17 33
M  V30 36 1 18 34
M  V30 37 1 19 35
M  V30 38 1 20 36
M  V30 39 1 22 37
M  V30 40 1 22 38
M  V30 END BOND
M  V30 END CTAB
M  END
