
     RDKit          3D

  0  0  0  0  0  0  0  0  0  0999 V3000
M  V30 BEGIN CTAB
M  V30 COUNTS 48 51 0 0 0
M  V30 BEGIN ATOM
M  V30 1 O 0.520547 -0.114478 2.01653 0
M  V30 2 C -0.100731 -0.585031 0.952272 0
M  V30 3 N 0.754054 -0.674013 -0.166324 0
M  V30 4 C 1.98636 0.0816314 -0.11375 0
M  V30 5 C 3.00579 -0.454203 0.621909 0
M  V30 6 C 4.2107 0.218044 0.739132 0
M  V30 7 C 4.33713 1.4286 0.0919424 0
M  V30 8 C 3.30995 1.9926 -0.664999 0
M  V30 9 C 2.1148 1.26302 -0.742938 0
M  V30 10 O 3.50757 3.19781 -1.27528 0
M  V30 11 C 4.58444 4.05939 -1.0166 0
M  V30 12 C 5.49318 3.57757 0.0891774 0
M  V30 13 O 5.51732 2.15074 0.172761 0
M  V30 14 C 0.561026 -1.60543 -1.23771 0
M  V30 15 C 1.42749 -2.82122 -0.979175 0
M  V30 16 C 1.12557 -3.89409 -0.222892 0
M  V30 17 C 2.07903 -4.86509 -0.111228 0
M  V30 18 C 3.24777 -4.65503 -0.779628 0
M  V30 19 S 3.00632 -3.14929 -1.53223 0
M  V30 20 C -1.49644 -0.908182 1.11656 0
M  V30 21 S -2.55105 -1.14393 -0.270305 0
M  V30 22 C -4.06946 -0.227013 -0.220039 0
M  V30 23 N -4.27204 1.02016 -0.645405 0
M  V30 24 C -5.46975 1.65338 -0.621295 0
M  V30 25 N -5.64994 2.96727 -1.08639 0
M  V30 26 C -6.5558 0.954154 -0.118112 0
M  V30 27 C -6.37957 -0.333014 0.330644 0
M  V30 28 N -5.16252 -0.890933 0.272943 0
M  V30 29 N -7.49297 -1.06787 0.842016 0
M  V30 30 H 2.92148 -1.39335 1.12963 0
M  V30 31 H 5.03601 -0.189641 1.31854 0
M  V30 32 H 1.34645 1.73409 -1.33951 0
M  V30 33 H 5.19062 4.15672 -1.95321 0
M  V30 34 H 4.17305 5.06441 -0.741117 0
M  V30 35 H 5.22297 4.00208 1.08136 0
M  V30 36 H 6.51908 3.9251 -0.145992 0
M  V30 37 H -0.473075 -2.03948 -1.14977 0
M  V30 38 H 0.65507 -1.1995 -2.2311 0
M  V30 39 H 0.142012 -4.02583 0.310627 0
M  V30 40 H 1.93918 -5.78683 0.506593 0
M  V30 41 H 4.11639 -5.33867 -0.787712 0
M  V30 42 H -1.60243 -1.78832 1.83152 0
M  V30 43 H -1.95065 -0.0510237 1.74724 0
M  V30 44 H -5.75886 3.16028 -2.11692 0
M  V30 45 H -5.67789 3.78053 -0.434815 0
M  V30 46 H -7.50167 1.46464 -0.105894 0
M  V30 47 H -8.1315 -0.632309 1.56532 0
M  V30 48 H -7.75503 -2.01844 0.565828 0
M  V30 END ATOM
M  V30 BEGIN BOND
M  V30 1 2 1 2
M  V30 2 1 2 3
M  V30 3 1 3 4
M  V30 4 2 4 5
M  V30 5 1 5 6
M  V30 6 2 6 7
M  V30 7 1 7 8
M  V30 8 2 8 9
M  V30 9 1 8 10
M  V30 10 1 10 11
M  V30 11 1 11 12
M  V30 12 1 12 13
M  V30 13 1 3 14
M  V30 14 1 14 15
M  V30 15 2 15 16
M  V30 16 1 16 17
M  V30 17 2 17 18
M  V30 18 1 18 19
M  V30 19 1 2 20
M  V30 20 1 20 21
M  V30 21 1 21 22
M  V30 22 2 22 23
M  V30 23 1 23 24
M  V30 24 1 24 25
M  V30 25 2 24 26
M  V30 26 1 26 27
M  V30 27 2 27 28
M  V30 28 1 27 29
M  V30 29 1 9 4
M  V30 30 1 19 15
M  V30 31 1 28 22
M  V30 32 1 13 7
M  V30 33 1 5 30
M  V30 34 1 6 31
M  V30 35 1 9 32
M  V30 36 1 11 33
M  V30 37 1 11 34
M  V30 38 1 12 35
M  V30 39 1 12 36
M  V30 40 1 14 37
M  V30 41 1 14 38
M  V30 42 1 16 39
M  V30 43 1 17 40
M  V30 44 1 18 41
M  V30 45 1 20 42
M  V30 46 1 20 43
M  V30 47 1 25 44
M  V30 48 1 25 45
M  V30 49 1 26 46
M  V30 50 1 29 47
M  V30 51 1 29 48
M  V30 END BOND
M  V30 END CTAB
M  END
