
     RDKit          3D

  0  0  0  0  0  0  0  0  0  0999 V3000
M  V30 BEGIN CTAB
M  V30 COUNTS 30 31 0 0 0
M  V30 BEGIN ATOM
M  V30 1 N 3.98354 -0.22747 0.31612 0
M  V30 2 C 3.07357 0.623681 -0.338682 0
M  V30 3 C 1.65634 0.360433 0.171497 0 CFG=2
M  V30 4 N 1.34335 -1.00412 -0.107491 0
M  V30 5 C -0.0110907 -1.41898 -0.0723339 0
M  V30 6 C -0.345736 -2.76561 0.101646 0
M  V30 7 C -1.68278 -3.08292 0.123997 0
M  V30 8 C -2.65748 -2.12025 -0.0183589 0
M  V30 9 C -2.32198 -0.788111 -0.190396 0
M  V30 10 C -0.9873 -0.451188 -0.215383 0
M  V30 11 N -0.663129 0.932487 -0.394454 0
M  V30 12 C 0.744955 1.33364 -0.531842 0
M  V30 13 S -1.87934 2.11265 -0.450535 0
M  V30 14 O -2.77045 2.02442 -1.64797 0
M  V30 15 O -1.21606 3.46814 -0.553219 0
M  V30 16 N -2.79909 2.18923 1.03212 0
M  V30 17 H 4.72811 -0.616502 -0.160468 0
M  V30 18 H 3.6639 -0.641645 1.13142 0
M  V30 19 H 3.38804 1.6577 -0.192041 0
M  V30 20 H 3.06603 0.335039 -1.41829 0
M  V30 21 H 1.67246 0.581729 1.26378 0
M  V30 22 H 2.08921 -1.72323 -0.341301 0
M  V30 23 H 0.455724 -3.46688 0.206705 0
M  V30 24 H -1.93733 -4.13162 0.259578 0
M  V30 25 H -3.70849 -2.36653 -0.00120584 0
M  V30 26 H -3.04486 -0.00619114 -0.305076 0
M  V30 27 H 0.95147 1.32147 -1.61979 0
M  V30 28 H 0.893411 2.34622 -0.152927 0
M  V30 29 H -3.53697 2.9083 0.862153 0
M  V30 30 H -2.148 2.61612 1.73433 0
M  V30 END ATOM
M  V30 BEGIN BOND
M  V30 1 1 1 2
M  V30 2 1 2 3
M  V30 3 1 3 4
M  V30 4 1 4 5
M  V30 5 2 5 6
M  V30 6 1 6 7
M  V30 7 2 7 8
M  V30 8 1 8 9
M  V30 9 2 9 10
M  V30 10 1 10 11
M  V30 11 1 11 12
M  V30 12 1 11 13
M  V30 13 2 13 14
M  V30 14 2 13 15
M  V30 15 1 13 16
M  V30 16 1 12 3
M  V30 17 1 10 5
M  V30 18 1 1 17
M  V30 19 1 1 18
M  V30 20 1 2 19
M  V30 21 1 2 20
M  V30 22 1 3 21 CFG=1
M  V30 23 1 4 22
M  V30 24 1 6 23
M  V30 25 1 7 24
M  V30 26 1 8 25
M  V30 27 1 9 26
M  V30 28 1 12 27
M  V30 29 1 12 28
M  V30 30 1 16 29
M  V30 31 1 16 30
M  V30 END BOND
M  V30 END CTAB
M  END
