
     RDKit          3D

  0  0  0  0  0  0  0  0  0  0999 V3000
M  V30 BEGIN CTAB
M  V30 COUNTS 28 28 0 0 0
M  V30 BEGIN ATOM
M  V30 1 N 3.18285 1.22767 -0.986844 0
M  V30 2 S 2.91816 0.431032 0.49564 0
M  V30 3 O 3.97681 -0.610155 0.727354 0
M  V30 4 O 3.00258 1.44687 1.59574 0
M  V30 5 C 1.28977 -0.332017 0.475754 0 CFG=2
M  V30 6 C 1.24976 -1.38925 -0.604402 0
M  V30 7 O 0.306538 -2.38465 -0.309304 0
M  V30 8 C -0.981047 -1.88153 -0.47411 0
M  V30 9 C -1.34379 -1.00947 0.688345 0
M  V30 10 N -1.06478 0.370647 0.505276 0
M  V30 11 C 0.268112 0.707994 0.175786 0
M  V30 12 S -2.25743 1.20565 -0.410739 0
M  V30 13 O -1.89858 2.64277 -0.556271 0
M  V30 14 O -2.46138 0.629436 -1.76761 0
M  V30 15 N -3.75365 1.10877 0.442719 0
M  V30 16 H 4.18475 1.47466 -1.0678 0
M  V30 17 H 2.60893 2.08813 -1.07489 0
M  V30 18 H 1.17648 -0.826865 1.4506 0
M  V30 19 H 2.2366 -1.915 -0.660629 0
M  V30 20 H 0.976326 -0.973952 -1.59514 0
M  V30 21 H -1.01478 -1.33754 -1.42955 0
M  V30 22 H -1.68658 -2.75244 -0.547391 0
M  V30 23 H -2.43457 -1.12523 0.866444 0
M  V30 24 H -0.854795 -1.34407 1.64239 0
M  V30 25 H 0.545857 1.62789 0.767919 0
M  V30 26 H 0.386021 1.01111 -0.885295 0
M  V30 27 H -4.11441 0.125033 0.343281 0
M  V30 28 H -4.44376 1.7845 0.0472777 0
M  V30 END ATOM
M  V30 BEGIN BOND
M  V30 1 1 1 2
M  V30 2 2 2 3
M  V30 3 2 2 4
M  V30 4 1 2 5
M  V30 5 1 5 6
M  V30 6 1 6 7
M  V30 7 1 7 8
M  V30 8 1 8 9
M  V30 9 1 9 10
M  V30 10 1 10 11
M  V30 11 1 10 12
M  V30 12 2 12 13
M  V30 13 2 12 14
M  V30 14 1 12 15
M  V30 15 1 11 5
M  V30 16 1 1 16
M  V30 17 1 1 17
M  V30 18 1 5 18 CFG=1
M  V30 19 1 6 19
M  V30 20 1 6 20
M  V30 21 1 8 21
M  V30 22 1 8 22
M  V30 23 1 9 23
M  V30 24 1 9 24
M  V30 25 1 11 25
M  V30 26 1 11 26
M  V30 27 1 15 27
M  V30 28 1 15 28
M  V30 END BOND
M  V30 END CTAB
M  END
