
     RDKit          3D

  0  0  0  0  0  0  0  0  0  0999 V3000
M  V30 BEGIN CTAB
M  V30 COUNTS 25 25 0 0 0
M  V30 BEGIN ATOM
M  V30 1 C -1.81903 -0.449126 -0.346151 0 CFG=2
M  V30 2 C -2.03603 0.467677 0.838576 0
M  V30 3 N -1.6087 -1.77539 0.162823 0
M  V30 4 C -0.680238 0.05089 -1.19829 0 CFG=1
M  V30 5 N -0.99967 1.34661 -1.65752 0
M  V30 6 C 0.634964 -0.0116736 -0.533358 0
M  V30 7 C 1.56744 -1.00079 -0.75308 0
M  V30 8 C 2.79309 -1.03251 -0.115689 0
M  V30 9 C 3.09445 -0.0209894 0.785358 0
M  V30 10 C 2.18754 0.98484 1.03105 0
M  V30 11 C 0.96446 0.977694 0.366652 0
M  V30 12 H -2.73508 -0.38251 -0.967555 0
M  V30 13 H -3.08348 0.282816 1.20275 0
M  V30 14 H -2.07034 1.51971 0.440956 0
M  V30 15 H -1.29762 0.333897 1.63913 0
M  V30 16 H -2.42638 -2.37218 -0.156459 0
M  V30 17 H -1.66412 -1.81855 1.21806 0
M  V30 18 H -0.585323 -0.610128 -2.10997 0
M  V30 19 H -1.13998 1.48422 -2.65092 0
M  V30 20 H -0.818666 2.13398 -1.06171 0
M  V30 21 H 1.35635 -1.796 -1.44754 0
M  V30 22 H 3.52638 -1.80973 -0.288024 0
M  V30 23 H 4.07265 -0.0554346 1.28742 0
M  V30 24 H 2.46268 1.75368 1.74074 0
M  V30 25 H 0.304641 1.799 0.61043 0
M  V30 END ATOM
M  V30 BEGIN BOND
M  V30 1 1 1 2
M  V30 2 1 1 3
M  V30 3 1 1 4
M  V30 4 1 4 5
M  V30 5 1 4 6
M  V30 6 2 6 7
M  V30 7 1 7 8
M  V30 8 2 8 9
M  V30 9 1 9 10
M  V30 10 2 10 11
M  V30 11 1 11 6
M  V30 12 1 1 12 CFG=3
M  V30 13 1 2 13
M  V30 14 1 2 14
M  V30 15 1 2 15
M  V30 16 1 3 16
M  V30 17 1 3 17
M  V30 18 1 4 18 CFG=3
M  V30 19 1 5 19
M  V30 20 1 5 20
M  V30 21 1 7 21
M  V30 22 1 8 22
M  V30 23 1 9 23
M  V30 24 1 10 24
M  V30 25 1 11 25
M  V30 END BOND
M  V30 END CTAB
M  END
