
     RDKit          3D

  0  0  0  0  0  0  0  0  0  0999 V3000
M  V30 BEGIN CTAB
M  V30 COUNTS 27 27 0 0 0
M  V30 BEGIN ATOM
M  V30 1 C -3.56719 1.27881 0.0427692 0
M  V30 2 C -2.30009 0.606421 -0.451872 0
M  V30 3 C -2.04944 -0.66598 0.285144 0
M  V30 4 C -0.817232 -1.34793 -0.190476 0 CFG=1
M  V30 5 C 0.416019 -0.559719 0.0128699 0
M  V30 6 N 1.65485 -1.00018 -0.390066 0
M  V30 7 N 2.54284 -0.113898 -0.0565818 0
M  V30 8 C 1.91474 0.903087 0.558619 0
M  V30 9 N 0.599427 0.613885 0.594588 0
M  V30 10 N 2.5364 2.06836 1.07415 0
M  V30 11 C 3.96557 -0.230894 -0.318011 0
M  V30 12 N -0.66825 -2.71636 0.333736 0
M  V30 13 H -3.30118 1.88482 0.90837 0
M  V30 14 H -4.2688 0.508787 0.332384 0
M  V30 15 H -3.9584 1.89891 -0.737173 0
M  V30 16 H -2.47673 0.397067 -1.53259 0
M  V30 17 H -1.50926 1.35532 -0.376045 0
M  V30 18 H -2.93978 -1.32911 0.166294 0
M  V30 19 H -2.01225 -0.44146 1.38484 0
M  V30 20 H -0.87112 -1.51218 -1.32808 0
M  V30 21 H 3.44438 1.99679 1.58341 0
M  V30 22 H 2.13739 3.02628 0.977663 0
M  V30 23 H 4.51995 0.676802 -0.0103338 0
M  V30 24 H 4.38377 -1.09169 0.255339 0
M  V30 25 H 4.09321 -0.359756 -1.40619 0
M  V30 26 H 0.103815 -2.78804 1.0143 0
M  V30 27 H -1.57263 -3.05812 0.746428 0
M  V30 END ATOM
M  V30 BEGIN BOND
M  V30 1 1 1 2
M  V30 2 1 2 3
M  V30 3 1 3 4
M  V30 4 1 4 5
M  V30 5 2 5 6
M  V30 6 1 6 7
M  V30 7 1 7 8
M  V30 8 2 8 9
M  V30 9 1 8 10
M  V30 10 1 7 11
M  V30 11 1 4 12
M  V30 12 1 9 5
M  V30 13 1 1 13
M  V30 14 1 1 14
M  V30 15 1 1 15
M  V30 16 1 2 16
M  V30 17 1 2 17
M  V30 18 1 3 18
M  V30 19 1 3 19
M  V30 20 1 4 20 CFG=3
M  V30 21 1 10 21
M  V30 22 1 10 22
M  V30 23 1 11 23
M  V30 24 1 11 24
M  V30 25 1 11 25
M  V30 26 1 12 26
M  V30 27 1 12 27
M  V30 END BOND
M  V30 END CTAB
M  END
