
     RDKit          3D

  0  0  0  0  0  0  0  0  0  0999 V3000
M  V30 BEGIN CTAB
M  V30 COUNTS 25 24 0 0 0
M  V30 BEGIN ATOM
M  V30 1 N 3.45921 -0.9038 -0.593345 0
M  V30 2 N 2.23623 -0.865716 0.0575288 0
M  V30 3 C 1.50332 0.343574 0.128063 0
M  V30 4 O 2.05312 1.36367 -0.435586 0
M  V30 5 C 0.189774 0.522511 0.784655 0 CFG=2
M  V30 6 C -0.958899 -0.0859561 0.00282856 0
M  V30 7 C -2.2769 0.148214 0.73067 0
M  V30 8 C -0.788211 -1.58366 -0.0610676 0
M  V30 9 C -1.07796 0.553153 -1.36038 0
M  V30 10 N -0.0481248 1.95589 0.967207 0
M  V30 11 H 3.80059 0.0356671 -0.798799 0
M  V30 12 H 4.13959 -1.4873 -0.123832 0
M  V30 13 H 1.87722 -1.74403 0.50253 0
M  V30 14 H 0.238939 0.088389 1.79573 0
M  V30 15 H -3.10056 -0.265678 0.116799 0
M  V30 16 H -2.48742 1.22354 0.869433 0
M  V30 17 H -2.30754 -0.358952 1.70993 0
M  V30 18 H -1.77063 -2.08511 -0.260127 0
M  V30 19 H -0.0463007 -1.82208 -0.834226 0
M  V30 20 H -0.421839 -1.91919 0.929009 0
M  V30 21 H -1.3294 1.62611 -1.17887 0
M  V30 22 H -1.93352 0.122695 -1.89487 0
M  V30 23 H -0.128778 0.488153 -1.93538 0
M  V30 24 H -0.827201 2.16044 1.59521 0
M  V30 25 H 0.005289 2.48946 0.0997027 0
M  V30 END ATOM
M  V30 BEGIN BOND
M  V30 1 1 1 2
M  V30 2 1 2 3
M  V30 3 2 3 4
M  V30 4 1 3 5
M  V30 5 1 5 6
M  V30 6 1 6 7
M  V30 7 1 6 8
M  V30 8 1 6 9
M  V30 9 1 5 10
M  V30 10 1 1 11
M  V30 11 1 1 12
M  V30 12 1 2 13
M  V30 13 1 5 14 CFG=1
M  V30 14 1 7 15
M  V30 15 1 7 16
M  V30 16 1 7 17
M  V30 17 1 8 18
M  V30 18 1 8 19
M  V30 19 1 8 20
M  V30 20 1 9 21
M  V30 21 1 9 22
M  V30 22 1 9 23
M  V30 23 1 10 24
M  V30 24 1 10 25
M  V30 END BOND
M  V30 END CTAB
M  END
