
     RDKit          3D

  0  0  0  0  0  0  0  0  0  0999 V3000
M  V30 BEGIN CTAB
M  V30 COUNTS 28 28 0 0 0
M  V30 BEGIN ATOM
M  V30 1 C -3.25294 -0.76058 0.57682 0
M  V30 2 C -1.80796 -0.379635 0.750732 0 CFG=1
M  V30 3 C -1.15055 -0.286546 -0.594756 0
M  V30 4 C 0.270183 0.0466066 -0.573265 0
M  V30 5 C 1.10644 0.0186426 0.528521 0
M  V30 6 C 2.43378 0.332411 0.454284 0
M  V30 7 C 3.30698 0.280175 1.65279 0
M  V30 8 C 2.9809 0.694976 -0.75761 0
M  V30 9 N 2.17312 0.723866 -1.83427 0
M  V30 10 C 0.860083 0.413601 -1.76548 0
M  V30 11 N 0.111821 0.475972 -2.98174 0
M  V30 12 O -1.24301 -1.51572 -1.29046 0
M  V30 13 N -1.75255 0.875286 1.47632 0
M  V30 14 H -3.70113 -1.27853 1.4492 0
M  V30 15 H -3.92234 0.106301 0.355653 0
M  V30 16 H -3.41315 -1.46297 -0.279166 0
M  V30 17 H -1.34369 -1.13058 1.42557 0
M  V30 18 H -1.70091 0.45001 -1.20735 0
M  V30 19 H 0.692656 -0.261106 1.47774 0
M  V30 20 H 2.92745 0.942835 2.4477 0
M  V30 21 H 4.36912 0.455778 1.38128 0
M  V30 22 H 3.19297 -0.778567 2.03974 0
M  V30 23 H 4.0322 0.944537 -0.789377 0
M  V30 24 H -0.244922 1.374 -3.35011 0
M  V30 25 H -0.0879568 -0.403547 -3.51624 0
M  V30 26 H -0.767428 -2.22097 -0.765537 0
M  V30 27 H -1.61989 0.76863 2.50194 0
M  V30 28 H -2.44929 1.57512 1.18708 0
M  V30 END ATOM
M  V30 BEGIN BOND
M  V30 1 1 1 2
M  V30 2 1 2 3
M  V30 3 1 3 4
M  V30 4 2 4 5
M  V30 5 1 5 6
M  V30 6 1 6 7
M  V30 7 2 6 8
M  V30 8 1 8 9
M  V30 9 2 9 10
M  V30 10 1 10 11
M  V30 11 1 3 12
M  V30 12 1 2 13
M  V30 13 1 10 4
M  V30 14 1 1 14
M  V30 15 1 1 15
M  V30 16 1 1 16
M  V30 17 1 2 17 CFG=1
M  V30 18 1 3 18
M  V30 19 1 5 19
M  V30 20 1 7 20
M  V30 21 1 7 21
M  V30 22 1 7 22
M  V30 23 1 8 23
M  V30 24 1 11 24
M  V30 25 1 11 25
M  V30 26 1 12 26
M  V30 27 1 13 27
M  V30 28 1 13 28
M  V30 END BOND
M  V30 END CTAB
M  END
