
     RDKit          3D

  0  0  0  0  0  0  0  0  0  0999 V3000
M  V30 BEGIN CTAB
M  V30 COUNTS 25 26 0 0 0
M  V30 BEGIN ATOM
M  V30 1 N 4.42405 0.205795 -0.1547 0
M  V30 2 C 3.01512 0.0429154 -0.105141 0
M  V30 3 C 2.41507 -0.817638 0.787661 0
M  V30 4 C 1.04482 -0.959097 0.817334 0
M  V30 5 C 0.220488 -0.238074 -0.0529068 0
M  V30 6 C 0.807607 0.619821 -0.944204 0
M  V30 7 C 2.18998 0.742905 -0.952404 0
M  V30 8 C -1.22977 -0.446647 0.0355554 0
M  V30 9 C -1.75722 -1.72556 0.0850697 0
M  V30 10 N -3.08565 -1.91792 0.161447 0
M  V30 11 C -3.9766 -0.913223 0.194582 0
M  V30 12 C -3.50082 0.376232 0.147841 0
M  V30 13 C -2.12108 0.602782 0.0681734 0
M  V30 14 N -1.63087 1.9103 0.0253731 0
M  V30 15 H 5.04727 -0.265768 -0.839507 0
M  V30 16 H 4.9203 0.841088 0.532557 0
M  V30 17 H 3.03583 -1.38709 1.47219 0
M  V30 18 H 0.554567 -1.6287 1.5099 0
M  V30 19 H 0.193213 1.18939 -1.63322 0
M  V30 20 H 2.6376 1.42821 -1.66619 0
M  V30 21 H -1.05764 -2.55192 0.0596501 0
M  V30 22 H -5.05919 -1.10024 0.257247 0
M  V30 23 H -4.19195 1.19881 0.172855 0
M  V30 24 H -0.889959 2.20747 0.680777 0
M  V30 25 H -2.00516 2.58615 -0.659941 0
M  V30 END ATOM
M  V30 BEGIN BOND
M  V30 1 1 1 2
M  V30 2 2 2 3
M  V30 3 1 3 4
M  V30 4 2 4 5
M  V30 5 1 5 6
M  V30 6 2 6 7
M  V30 7 1 5 8
M  V30 8 2 8 9
M  V30 9 1 9 10
M  V30 10 2 10 11
M  V30 11 1 11 12
M  V30 12 2 12 13
M  V30 13 1 13 14
M  V30 14 1 7 2
M  V30 15 1 13 8
M  V30 16 1 1 15
M  V30 17 1 1 16
M  V30 18 1 3 17
M  V30 19 1 4 18
M  V30 20 1 6 19
M  V30 21 1 7 20
M  V30 22 1 9 21
M  V30 23 1 11 22
M  V30 24 1 12 23
M  V30 25 1 14 24
M  V30 26 1 14 25
M  V30 END BOND
M  V30 END CTAB
M  END
