
     RDKit          3D

  0  0  0  0  0  0  0  0  0  0999 V3000
M  V30 BEGIN CTAB
M  V30 COUNTS 21 22 0 0 0
M  V30 BEGIN ATOM
M  V30 1 C -4.31723 -0.386727 0.19982 0
M  V30 2 C -2.83848 -0.652359 -0.109468 0
M  V30 3 N -2.48537 -1.7122 -0.831635 0
M  V30 4 S -0.818379 -1.62846 -0.930979 0
M  V30 5 C -0.56295 -0.205847 -0.0289312 0
M  V30 6 C -1.84122 0.158375 0.326011 0
M  V30 7 C 0.686806 0.489382 0.308077 0
M  V30 8 N 0.819392 1.60487 1.02174 0
M  V30 9 N 2.09155 1.94054 1.12262 0
M  V30 10 C 2.78516 1.01559 0.456608 0
M  V30 11 N 1.91194 0.129009 -0.0396485 0
M  V30 12 N 2.26168 -0.980971 -0.794279 0
M  V30 13 N 4.19401 0.964262 0.292988 0
M  V30 14 H -4.39339 0.248788 1.10859 0
M  V30 15 H -4.81601 -1.34615 0.368629 0
M  V30 16 H -4.7664 0.198703 -0.628633 0
M  V30 17 H -2.04207 1.07631 0.941788 0
M  V30 18 H 1.86612 -1.07691 -1.75392 0
M  V30 19 H 2.90255 -1.72999 -0.45309 0
M  V30 20 H 4.57063 0.752401 -0.651246 0
M  V30 21 H 4.79164 1.14138 1.12746 0
M  V30 END ATOM
M  V30 BEGIN BOND
M  V30 1 1 1 2
M  V30 2 2 2 3
M  V30 3 1 3 4
M  V30 4 1 4 5
M  V30 5 2 5 6
M  V30 6 1 5 7
M  V30 7 2 7 8
M  V30 8 1 8 9
M  V30 9 2 9 10
M  V30 10 1 10 11
M  V30 11 1 11 12
M  V30 12 1 10 13
M  V30 13 1 6 2
M  V30 14 1 11 7
M  V30 15 1 1 14
M  V30 16 1 1 15
M  V30 17 1 1 16
M  V30 18 1 6 17
M  V30 19 1 12 18
M  V30 20 1 12 19
M  V30 21 1 13 20
M  V30 22 1 13 21
M  V30 END BOND
M  V30 END CTAB
M  END
