
     RDKit          3D

  0  0  0  0  0  0  0  0  0  0999 V3000
M  V30 BEGIN CTAB
M  V30 COUNTS 32 31 0 0 0
M  V30 BEGIN ATOM
M  V30 1 C -2.16962 2.19248 0.399116 0
M  V30 2 C -1.71748 0.74808 0.441857 0
M  V30 3 O -2.28397 0.072967 1.29404 0
M  V30 4 C -0.694743 0.223392 -0.46143 0
M  V30 5 C 0.645191 -0.0864487 0.202179 0
M  V30 6 C 1.1962 1.16281 0.806201 0
M  V30 7 O 0.630819 1.69624 1.75003 0
M  V30 8 C 2.44409 1.81882 0.30326 0
M  V30 9 C 0.616925 -1.14712 1.21702 0
M  V30 10 O 0.0554559 -1.07721 2.28702 0
M  V30 11 C 1.32903 -2.42639 0.938387 0
M  V30 12 N 1.52762 -0.433502 -0.910802 0
M  V30 13 C -1.18454 -0.903916 -1.29933 0
M  V30 14 O -1.15052 -0.750622 -2.51961 0
M  V30 15 C -1.70747 -2.18914 -0.732806 0
M  V30 16 N -0.417122 1.32058 -1.42876 0
M  V30 17 H -1.39045 2.86822 0.0372997 0
M  V30 18 H -2.45184 2.533 1.41469 0
M  V30 19 H -3.05418 2.31376 -0.260016 0
M  V30 20 H 2.44598 2.87512 0.561845 0
M  V30 21 H 3.33122 1.3581 0.82964 0
M  V30 22 H 2.55507 1.73186 -0.787375 0
M  V30 23 H 0.80816 -3.26752 1.44293 0
M  V30 24 H 2.36343 -2.42272 1.3701 0
M  V30 25 H 1.36524 -2.5509 -0.160715 0
M  V30 26 H 1.10581 -1.08903 -1.57469 0
M  V30 27 H 2.47544 -0.707464 -0.580214 0
M  V30 28 H -1.01595 -2.98722 -1.06167 0
M  V30 29 H -1.7539 -2.20283 0.358503 0
M  V30 30 H -2.69313 -2.45279 -1.19679 0
M  V30 31 H 0.146628 2.06537 -1.01602 0
M  V30 32 H -1.35739 1.714 -1.66388 0
M  V30 END ATOM
M  V30 BEGIN BOND
M  V30 1 1 1 2
M  V30 2 2 2 3
M  V30 3 1 2 4
M  V30 4 1 4 5
M  V30 5 1 5 6
M  V30 6 2 6 7
M  V30 7 1 6 8
M  V30 8 1 5 9
M  V30 9 2 9 10
M  V30 10 1 9 11
M  V30 11 1 5 12
M  V30 12 1 4 13
M  V30 13 2 13 14
M  V30 14 1 13 15
M  V30 15 1 4 16
M  V30 16 1 1 17
M  V30 17 1 1 18
M  V30 18 1 1 19
M  V30 19 1 8 20
M  V30 20 1 8 21
M  V30 21 1 8 22
M  V30 22 1 11 23
M  V30 23 1 11 24
M  V30 24 1 11 25
M  V30 25 1 12 26
M  V30 26 1 12 27
M  V30 27 1 15 28
M  V30 28 1 15 29
M  V30 29 1 15 30
M  V30 30 1 16 31
M  V30 31 1 16 32
M  V30 END BOND
M  V30 END CTAB
M  END
