
     RDKit          3D

  0  0  0  0  0  0  0  0  0  0999 V3000
M  V30 BEGIN CTAB
M  V30 COUNTS 22 22 0 0 0
M  V30 BEGIN ATOM
M  V30 1 C 3.69458 0.0767578 -0.272288 0
M  V30 2 N 2.28447 0.348798 -0.0901781 0
M  V30 3 C 1.26132 -0.485742 -0.121097 0
M  V30 4 C 0.0641743 0.228523 0.201266 0
M  V30 5 C 0.489936 1.50426 0.389524 0
M  V30 6 N 1.8298 1.62252 0.226938 0
M  V30 7 Br -0.60817 3.05137 0.737564 0
M  V30 8 C -1.2187 -0.471514 0.500422 0
M  V30 9 C -1.9696 -0.953791 -0.701675 0
M  V30 10 N -2.42145 0.226865 -1.51455 0
M  V30 11 N -2.00098 0.107329 1.5412 0
M  V30 12 H 3.76281 -0.965125 -0.746145 0
M  V30 13 H 4.21209 0.77364 -0.948727 0
M  V30 14 H 4.25857 -0.0609504 0.69116 0
M  V30 15 H 1.26781 -1.53053 -0.32591 0
M  V30 16 H -0.871825 -1.48287 0.971201 0
M  V30 17 H -1.3628 -1.5356 -1.41218 0
M  V30 18 H -2.92058 -1.5338 -0.466019 0
M  V30 19 H -2.97313 0.884804 -0.873138 0
M  V30 20 H -3.0809 -0.105998 -2.2706 0
M  V30 21 H -1.50083 0.905893 2.01344 0
M  V30 22 H -2.19657 -0.604822 2.31887 0
M  V30 END ATOM
M  V30 BEGIN BOND
M  V30 1 1 1 2
M  V30 2 1 2 3
M  V30 3 2 3 4
M  V30 4 1 4 5
M  V30 5 2 5 6
M  V30 6 1 5 7
M  V30 7 1 4 8
M  V30 8 1 8 9
M  V30 9 1 9 10
M  V30 10 1 8 11
M  V30 11 1 6 2
M  V30 12 1 1 12
M  V30 13 1 1 13
M  V30 14 1 1 14
M  V30 15 1 3 15
M  V30 16 1 8 16
M  V30 17 1 9 17
M  V30 18 1 9 18
M  V30 19 1 10 19
M  V30 20 1 10 20
M  V30 21 1 11 21
M  V30 22 1 11 22
M  V30 END BOND
M  V30 END CTAB
M  END
