
     RDKit          3D

  0  0  0  0  0  0  0  0  0  0999 V3000
M  V30 BEGIN CTAB
M  V30 COUNTS 43 44 0 0 0
M  V30 BEGIN ATOM
M  V30 1 C -4.3282 0.040949 -1.52156 0
M  V30 2 C -3.6548 -1.01655 -0.764089 0
M  V30 3 N -2.31533 -0.765933 -0.336048 0
M  V30 4 C -1.82133 -0.784558 0.967926 0
M  V30 5 O -2.6096 -1.04911 1.9107 0
M  V30 6 C -0.423786 -0.518267 1.3759 0 CFG=2
M  V30 7 C -0.428288 0.632693 2.35107 0
M  V30 8 C 0.182691 1.78586 1.63864 0 CFG=1
M  V30 9 C 0.188902 1.28831 0.197922 0
M  V30 10 N 0.444457 -0.163857 0.275972 0
M  V30 11 C 1.82669 -0.375811 0.584154 0
M  V30 12 C 2.76257 -0.164475 -0.542805 0
M  V30 13 C 2.37295 0.160847 -1.81309 0
M  V30 14 C 3.32885 0.314662 -2.78596 0
M  V30 15 C 4.67776 0.156339 -2.548 0
M  V30 16 N 5.01073 -0.162859 -1.28727 0
M  V30 17 C 4.12028 -0.325661 -0.296359 0
M  V30 18 N 4.54647 -0.668185 1.03417 0
M  V30 19 N -0.676862 2.95299 1.70949 0
M  V30 20 C -3.65267 -2.30645 -1.55683 0
M  V30 21 H -3.725 0.928608 -1.77526 0
M  V30 22 H -4.70601 -0.347652 -2.51327 0
M  V30 23 H -5.23545 0.4162 -1.00447 0
M  V30 24 H -4.25081 -1.23587 0.170574 0
M  V30 25 H -1.62879 -0.543885 -1.10991 0
M  V30 26 H -0.000855036 -1.43123 1.87279 0
M  V30 27 H 0.112491 0.353343 3.28723 0
M  V30 28 H -1.47266 0.90124 2.66336 0
M  V30 29 H 1.18262 1.98542 2.0295 0
M  V30 30 H 0.981907 1.83943 -0.310857 0
M  V30 31 H -0.825461 1.50751 -0.192249 0
M  V30 32 H 2.12528 0.248713 1.43729 0
M  V30 33 H 1.95695 -1.44247 0.905045 0
M  V30 34 H 1.3033 0.287593 -2.04477 0
M  V30 35 H 3.03393 0.57362 -3.80133 0
M  V30 36 H 5.42342 0.28386 -3.33828 0
M  V30 37 H 4.86591 0.098879 1.646 0
M  V30 38 H 4.54455 -1.63511 1.39267 0
M  V30 39 H -0.620733 3.42933 2.63049 0
M  V30 40 H -1.674 2.67554 1.58045 0
M  V30 41 H -4.13749 -2.12924 -2.53108 0
M  V30 42 H -2.60909 -2.66753 -1.74887 0
M  V30 43 H -4.19549 -3.12722 -1.0375 0
M  V30 END ATOM
M  V30 BEGIN BOND
M  V30 1 1 1 2
M  V30 2 1 2 3
M  V30 3 1 3 4
M  V30 4 2 4 5
M  V30 5 1 4 6
M  V30 6 1 6 7
M  V30 7 1 7 8
M  V30 8 1 8 9
M  V30 9 1 9 10
M  V30 10 1 10 11
M  V30 11 1 11 12
M  V30 12 2 12 13
M  V30 13 1 13 14
M  V30 14 2 14 15
M  V30 15 1 15 16
M  V30 16 2 16 17
M  V30 17 1 17 18
M  V30 18 1 8 19
M  V30 19 1 2 20
M  V30 20 1 10 6
M  V30 21 1 17 12
M  V30 22 1 1 21
M  V30 23 1 1 22
M  V30 24 1 1 23
M  V30 25 1 2 24
M  V30 26 1 3 25
M  V30 27 1 6 26 CFG=1
M  V30 28 1 7 27
M  V30 29 1 7 28
M  V30 30 1 8 29 CFG=1
M  V30 31 1 9 30
M  V30 32 1 9 31
M  V30 33 1 11 32
M  V30 34 1 11 33
M  V30 35 1 13 34
M  V30 36 1 14 35
M  V30 37 1 15 36
M  V30 38 1 18 37
M  V30 39 1 18 38
M  V30 40 1 19 39
M  V30 41 1 19 40
M  V30 42 1 20 41
M  V30 43 1 20 42
M  V30 44 1 20 43
M  V30 END BOND
M  V30 END CTAB
M  END
