
     RDKit          3D

  0  0  0  0  0  0  0  0  0  0999 V3000
M  V30 BEGIN CTAB
M  V30 COUNTS 32 33 0 0 0
M  V30 BEGIN ATOM
M  V30 1 N -0.785594 3.27282 0.300313 0
M  V30 2 C 0.020079 2.4592 0.252039 0
M  V30 3 C 1.08702 1.41454 0.205098 0
M  V30 4 C 2.1865 1.75058 -0.421072 0
M  V30 5 N 2.3815 3.02605 -1.0312 0
M  V30 6 S 3.53184 0.58772 -0.519925 0
M  V30 7 C 2.73822 -1.00929 -0.19207 0
M  V30 8 C 1.58951 -1.04462 0.40967 0
M  V30 9 C 0.861166 0.143528 0.860372 0
M  V30 10 C -0.608485 -0.185126 0.960826 0
M  V30 11 C -1.15931 -0.505244 2.18835 0
M  V30 12 C -2.49692 -0.779484 2.34594 0
M  V30 13 C -3.32779 -0.736645 1.24751 0
M  V30 14 C -2.81582 -0.424422 0.0201591 0
M  V30 15 C -1.45079 -0.14908 -0.11931 0
M  V30 16 O -0.940534 0.160952 -1.37063 0
M  V30 17 C -1.81079 0.19773 -2.48394 0
M  V30 18 C 1.02353 -2.37749 0.628642 0
M  V30 19 N 0.569616 -3.41729 0.812142 0
M  V30 20 N 3.40696 -2.18337 -0.609136 0
M  V30 21 H 3.01146 3.14416 -1.85097 0
M  V30 22 H 1.88885 3.87758 -0.661648 0
M  V30 23 H 1.19332 0.293557 1.94009 0
M  V30 24 H -0.519995 -0.545532 3.07465 0
M  V30 25 H -2.938 -1.02992 3.29579 0
M  V30 26 H -4.38372 -0.952862 1.37359 0
M  V30 27 H -3.41204 -0.375318 -0.871327 0
M  V30 28 H -1.17667 0.411365 -3.37536 0
M  V30 29 H -2.37408 -0.756399 -2.59969 0
M  V30 30 H -2.54886 0.990897 -2.28908 0
M  V30 31 H 4.4039 -2.19099 -0.855842 0
M  V30 32 H 2.8559 -3.06759 -0.663975 0
M  V30 END ATOM
M  V30 BEGIN BOND
M  V30 1 3 1 2
M  V30 2 1 2 3
M  V30 3 2 3 4
M  V30 4 1 4 5
M  V30 5 1 4 6
M  V30 6 1 6 7
M  V30 7 2 7 8
M  V30 8 1 8 9
M  V30 9 1 9 10
M  V30 10 2 10 11
M  V30 11 1 11 12
M  V30 12 2 12 13
M  V30 13 1 13 14
M  V30 14 2 14 15
M  V30 15 1 15 16
M  V30 16 1 16 17
M  V30 17 1 8 18
M  V30 18 3 18 19
M  V30 19 1 7 20
M  V30 20 1 9 3
M  V30 21 1 15 10
M  V30 22 1 5 21
M  V30 23 1 5 22
M  V30 24 1 9 23
M  V30 25 1 11 24
M  V30 26 1 12 25
M  V30 27 1 13 26
M  V30 28 1 14 27
M  V30 29 1 17 28
M  V30 30 1 17 29
M  V30 31 1 17 30
M  V30 32 1 20 31
M  V30 33 1 20 32
M  V30 END BOND
M  V30 END CTAB
M  END
