
     RDKit          3D

  0  0  0  0  0  0  0  0  0  0999 V3000
M  V30 BEGIN CTAB
M  V30 COUNTS 74 75 0 0 0
M  V30 BEGIN ATOM
M  V30 1 N -0.290313 -0.32062 1.15014 0
M  V30 2 C 0.0600314 -1.68425 1.05326 0
M  V30 3 N 1.25477 -1.99981 0.718886 0
M  V30 4 C 2.26727 -0.998604 0.434261 0
M  V30 5 C 3.49546 -1.38186 1.20889 0
M  V30 6 C 4.60163 -0.400237 0.98618 0
M  V30 7 C 4.94514 -0.369077 -0.480843 0 CFG=1
M  V30 8 C 6.0541 0.62898 -0.620625 0
M  V30 9 O 5.89746 1.80168 -0.222732 0
M  V30 10 O 7.22755 0.227241 -1.18817 0
M  V30 11 C 8.26407 1.20528 -1.30604 0
M  V30 12 C 7.71308 2.32388 -2.16558 0
M  V30 13 C 9.4162 0.52913 -2.0195 0
M  V30 14 C 8.63409 1.67556 0.0667941 0
M  V30 15 N 5.34299 -1.64697 -1.00266 0
M  V30 16 N -0.878235 -2.69468 1.3167 0
M  V30 17 S -2.18392 -3.01422 0.310294 0
M  V30 18 O -2.901 -4.24884 0.869377 0
M  V30 19 O -1.68285 -3.49219 -1.05072 0
M  V30 20 C -3.3334 -1.76709 0.0756266 0
M  V30 21 C -3.26544 -0.939657 -1.01351 0
M  V30 22 C -2.23483 -1.10721 -2.06763 0
M  V30 23 C -4.18061 0.0950307 -1.20571 0
M  V30 24 C -4.05952 0.962144 -2.40464 0
M  V30 25 C -5.17522 0.317705 -0.315791 0
M  V30 26 C -5.27248 -0.487767 0.778988 0
M  V30 27 C -4.37387 -1.51599 0.983471 0
M  V30 28 C -4.45473 -2.40271 2.15864 0
M  V30 29 C -6.36113 -0.257568 1.7678 0
M  V30 30 C -7.44425 0.584187 1.17965 0
M  V30 31 C -6.86574 1.80985 0.52322 0
M  V30 32 O -6.058 1.35608 -0.549943 0
M  V30 33 C -6.0238 2.57551 1.52925 0
M  V30 34 C -7.94647 2.71187 -0.00434323 0
M  V30 35 H -0.672027 0.0874274 2.04319 0
M  V30 36 H -0.19249 0.348044 0.356171 0
M  V30 37 H 1.94122 0.0253728 0.603319 0
M  V30 38 H 2.50539 -1.11381 -0.653413 0
M  V30 39 H 3.87114 -2.38114 0.955022 0
M  V30 40 H 3.29708 -1.39826 2.31598 0
M  V30 41 H 4.22674 0.615285 1.24793 0
M  V30 42 H 5.49071 -0.678568 1.56481 0
M  V30 43 H 4.09682 0.0544955 -1.08603 0
M  V30 44 H 6.86814 1.96852 -2.76131 0
M  V30 45 H 7.41056 3.20566 -1.56965 0
M  V30 46 H 8.50257 2.6957 -2.86817 0
M  V30 47 H 9.37727 -0.552164 -1.83194 0
M  V30 48 H 9.28514 0.716672 -3.11073 0
M  V30 49 H 10.4064 0.891342 -1.64833 0
M  V30 50 H 8.36084 2.75746 0.208369 0
M  V30 51 H 9.725 1.55802 0.211356 0
M  V30 52 H 8.05985 1.12321 0.845472 0
M  V30 53 H 6.21396 -1.96751 -0.569507 0
M  V30 54 H 4.56167 -2.30665 -0.961922 0
M  V30 55 H -0.719823 -3.25269 2.19398 0
M  V30 56 H -2.22085 -0.225047 -2.7573 0
M  V30 57 H -2.52309 -1.95426 -2.75044 0
M  V30 58 H -1.20171 -1.17952 -1.69683 0
M  V30 59 H -4.91293 1.64801 -2.4875 0
M  V30 60 H -4.1152 0.291678 -3.30629 0
M  V30 61 H -3.13833 1.56203 -2.41482 0
M  V30 62 H -5.00459 -3.32586 1.87604 0
M  V30 63 H -5.09482 -1.90181 2.92025 0
M  V30 64 H -3.49241 -2.59536 2.6405 0
M  V30 65 H -6.81655 -1.25444 2.04063 0
M  V30 66 H -6.0008 0.223564 2.68687 0
M  V30 67 H -8.11868 0.0560824 0.493353 0
M  V30 68 H -8.08524 0.940895 2.03115 0
M  V30 69 H -4.92676 2.39815 1.32959 0
M  V30 70 H -6.23199 2.25927 2.56142 0
M  V30 71 H -6.26545 3.66689 1.46872 0
M  V30 72 H -7.71457 3.04238 -1.05584 0
M  V30 73 H -7.99368 3.62661 0.596481 0
M  V30 74 H -8.94656 2.24956 -0.0216417 0
M  V30 END ATOM
M  V30 BEGIN BOND
M  V30 1 1 1 2
M  V30 2 2 2 3
M  V30 3 1 3 4
M  V30 4 1 4 5
M  V30 5 1 5 6
M  V30 6 1 6 7
M  V30 7 1 7 8
M  V30 8 2 8 9
M  V30 9 1 8 10
M  V30 10 1 10 11
M  V30 11 1 11 12
M  V30 12 1 11 13
M  V30 13 1 11 14
M  V30 14 1 7 15
M  V30 15 1 2 16
M  V30 16 1 16 17
M  V30 17 2 17 18
M  V30 18 2 17 19
M  V30 19 1 17 20
M  V30 20 2 20 21
M  V30 21 1 21 22
M  V30 22 1 21 23
M  V30 23 1 23 24
M  V30 24 2 23 25
M  V30 25 1 25 26
M  V30 26 2 26 27
M  V30 27 1 27 28
M  V30 28 1 26 29
M  V30 29 1 29 30
M  V30 30 1 30 31
M  V30 31 1 31 32
M  V30 32 1 31 33
M  V30 33 1 31 34
M  V30 34 1 27 20
M  V30 35 1 32 25
M  V30 36 1 1 35
M  V30 37 1 1 36
M  V30 38 1 4 37
M  V30 39 1 4 38
M  V30 40 1 5 39
M  V30 41 1 5 40
M  V30 42 1 6 41
M  V30 43 1 6 42
M  V30 44 1 7 43 CFG=3
M  V30 45 1 12 44
M  V30 46 1 12 45
M  V30 47 1 12 46
M  V30 48 1 13 47
M  V30 49 1 13 48
M  V30 50 1 13 49
M  V30 51 1 14 50
M  V30 52 1 14 51
M  V30 53 1 14 52
M  V30 54 1 15 53
M  V30 55 1 15 54
M  V30 56 1 16 55
M  V30 57 1 22 56
M  V30 58 1 22 57
M  V30 59 1 22 58
M  V30 60 1 24 59
M  V30 61 1 24 60
M  V30 62 1 24 61
M  V30 63 1 28 62
M  V30 64 1 28 63
M  V30 65 1 28 64
M  V30 66 1 29 65
M  V30 67 1 29 66
M  V30 68 1 30 67
M  V30 69 1 30 68
M  V30 70 1 33 69
M  V30 71 1 33 70
M  V30 72 1 33 71
M  V30 73 1 34 72
M  V30 74 1 34 73
M  V30 75 1 34 74
M  V30 END BOND
M  V30 END CTAB
M  END
