
     RDKit          3D

  0  0  0  0  0  0  0  0  0  0999 V3000
M  V30 BEGIN CTAB
M  V30 COUNTS 44 46 0 0 0
M  V30 BEGIN ATOM
M  V30 1 N 6.9648 0.555735 0.762828 0
M  V30 2 C 6.29257 0.484158 -0.513763 0
M  V30 3 C 4.90978 0.0450622 -0.276059 0
M  V30 4 C 4.62725 -1.29213 -0.284935 0
M  V30 5 C 3.33718 -1.74521 -0.0652281 0
M  V30 6 C 2.28298 -0.862742 0.171979 0
M  V30 7 C 2.57466 0.482428 0.179649 0
M  V30 8 C 3.86097 0.918353 -0.0402078 0
M  V30 9 C 0.941768 -1.39531 0.402318 0
M  V30 10 N -0.0628771 -0.466139 -0.136261 0
M  V30 11 C -1.43965 -0.769507 -0.0111068 0
M  V30 12 N -1.80941 -1.92092 0.626624 0
M  V30 13 C -3.07823 -2.29685 0.807073 0
M  V30 14 N -3.4087 -3.52631 1.48945 0
M  V30 15 N -4.02817 -1.48565 0.328636 0
M  V30 16 C -3.7872 -0.341048 -0.308448 0
M  V30 17 C -2.44067 0.0336688 -0.486838 0
M  V30 18 C -2.03221 1.26875 -1.17849 0
M  V30 19 C -2.59431 2.49498 -0.470127 0
M  V30 20 N -3.99927 2.67202 -0.754437 0
M  V30 21 C -4.87948 1.78005 -0.0921103 0
M  V30 22 C -4.99004 0.406066 -0.74893 0
M  V30 23 H 6.27854 0.672769 1.5509 0
M  V30 24 H 7.61204 -0.248456 0.925902 0
M  V30 25 H 6.28982 1.45345 -1.05428 0
M  V30 26 H 6.81555 -0.260082 -1.15563 0
M  V30 27 H 5.42622 -2.00994 -0.466985 0
M  V30 28 H 3.1808 -2.80929 -0.0850644 0
M  V30 29 H 1.81595 1.22929 0.3584 0
M  V30 30 H 4.08102 1.98341 -0.032194 0
M  V30 31 H 0.76477 -1.61543 1.46697 0
M  V30 32 H 0.835354 -2.36467 -0.138817 0
M  V30 33 H 0.248296 0.395427 -0.597491 0
M  V30 34 H -4.06383 -3.46753 2.30106 0
M  V30 35 H -3.0197 -4.43359 1.19668 0
M  V30 36 H -1.00297 1.42405 -1.36128 0
M  V30 37 H -2.53383 1.22918 -2.2013 0
M  V30 38 H -2.40368 2.43989 0.597833 0
M  V30 39 H -2.05651 3.37113 -0.885975 0
M  V30 40 H -4.27418 3.66453 -0.744777 0
M  V30 41 H -5.89364 2.2153 -0.00751627 0
M  V30 42 H -4.5103 1.61626 0.939749 0
M  V30 43 H -5.88598 -0.118595 -0.427447 0
M  V30 44 H -4.94547 0.593454 -1.84373 0
M  V30 END ATOM
M  V30 BEGIN BOND
M  V30 1 1 1 2
M  V30 2 1 2 3
M  V30 3 2 3 4
M  V30 4 1 4 5
M  V30 5 2 5 6
M  V30 6 1 6 7
M  V30 7 2 7 8
M  V30 8 1 6 9
M  V30 9 1 9 10
M  V30 10 1 10 11
M  V30 11 2 11 12
M  V30 12 1 12 13
M  V30 13 1 13 14
M  V30 14 2 13 15
M  V30 15 1 15 16
M  V30 16 2 16 17
M  V30 17 1 17 18
M  V30 18 1 18 19
M  V30 19 1 19 20
M  V30 20 1 20 21
M  V30 21 1 21 22
M  V30 22 1 8 3
M  V30 23 1 17 11
M  V30 24 1 22 16
M  V30 25 1 1 23
M  V30 26 1 1 24
M  V30 27 1 2 25
M  V30 28 1 2 26
M  V30 29 1 4 27
M  V30 30 1 5 28
M  V30 31 1 7 29
M  V30 32 1 8 30
M  V30 33 1 9 31
M  V30 34 1 9 32
M  V30 35 1 10 33
M  V30 36 1 14 34
M  V30 37 1 14 35
M  V30 38 1 18 36
M  V30 39 1 18 37
M  V30 40 1 19 38
M  V30 41 1 19 39
M  V30 42 1 20 40
M  V30 43 1 21 41
M  V30 44 1 21 42
M  V30 45 1 22 43
M  V30 46 1 22 44
M  V30 END BOND
M  V30 END CTAB
M  END
