
     RDKit          3D

  0  0  0  0  0  0  0  0  0  0999 V3000
M  V30 BEGIN CTAB
M  V30 COUNTS 35 37 0 0 0
M  V30 BEGIN ATOM
M  V30 1 C -6.08756 1.03671 0.897454 0
M  V30 2 O -4.954 1.07612 0.0823035 0
M  V30 3 C -4.06698 0.0411554 -0.111144 0
M  V30 4 C -4.18416 -1.19681 0.48762 0
M  V30 5 C -3.23252 -2.15914 0.218358 0
M  V30 6 C -2.17083 -1.88217 -0.645205 0
M  V30 7 C -2.04034 -0.650942 -1.25054 0
M  V30 8 S -0.667569 -0.335554 -2.34935 0
M  V30 9 C 0.744297 0.311398 -1.50177 0
M  V30 10 C 0.904855 1.66507 -1.34696 0
M  V30 11 C 2.02564 2.12403 -0.67662 0
M  V30 12 C 2.98986 1.28878 -0.156073 0
M  V30 13 N 4.07945 1.72921 0.495338 0
M  V30 14 C 5.01265 0.880885 0.997316 0
M  V30 15 N 6.14536 1.38846 1.67677 0
M  V30 16 N 4.79742 -0.431234 0.812718 0
M  V30 17 C 3.71855 -0.921915 0.165226 0
M  V30 18 N 3.54385 -2.33249 -0.000381264 0
M  V30 19 C 2.77674 -0.0693158 -0.341545 0
M  V30 20 C 1.68101 -0.555829 -0.998621 0
M  V30 21 C -2.99483 0.298209 -0.973778 0
M  V30 22 H -6.5515 0.047047 0.991809 0
M  V30 23 H -6.88366 1.71831 0.481834 0
M  V30 24 H -5.85247 1.38033 1.93566 0
M  V30 25 H -5.02373 -1.38165 1.15626 0
M  V30 26 H -3.32252 -3.12592 0.684904 0
M  V30 27 H -1.43189 -2.64216 -0.848978 0
M  V30 28 H 0.177023 2.38623 -1.73575 0
M  V30 29 H 2.16483 3.20855 -0.546475 0
M  V30 30 H 6.56821 0.848363 2.45301 0
M  V30 31 H 6.56661 2.29752 1.4135 0
M  V30 32 H 4.02163 -2.88306 -0.746007 0
M  V30 33 H 2.90427 -2.81114 0.667196 0
M  V30 34 H 1.53139 -1.61224 -1.13353 0
M  V30 35 H -2.88909 1.2652 -1.45149 0
M  V30 END ATOM
M  V30 BEGIN BOND
M  V30 1 1 1 2
M  V30 2 1 2 3
M  V30 3 2 3 4
M  V30 4 1 4 5
M  V30 5 2 5 6
M  V30 6 1 6 7
M  V30 7 1 7 8
M  V30 8 1 8 9
M  V30 9 2 9 10
M  V30 10 1 10 11
M  V30 11 2 11 12
M  V30 12 1 12 13
M  V30 13 2 13 14
M  V30 14 1 14 15
M  V30 15 1 14 16
M  V30 16 2 16 17
M  V30 17 1 17 18
M  V30 18 1 17 19
M  V30 19 2 19 20
M  V30 20 2 7 21
M  V30 21 1 21 3
M  V30 22 1 20 9
M  V30 23 1 19 12
M  V30 24 1 1 22
M  V30 25 1 1 23
M  V30 26 1 1 24
M  V30 27 1 4 25
M  V30 28 1 5 26
M  V30 29 1 6 27
M  V30 30 1 10 28
M  V30 31 1 11 29
M  V30 32 1 15 30
M  V30 33 1 15 31
M  V30 34 1 18 32
M  V30 35 1 18 33
M  V30 36 1 20 34
M  V30 37 1 21 35
M  V30 END BOND
M  V30 END CTAB
M  END
