
     RDKit          3D

  0  0  0  0  0  0  0  0  0  0999 V3000
M  V30 BEGIN CTAB
M  V30 COUNTS 38 41 0 0 0
M  V30 BEGIN ATOM
M  V30 1 N -2.62823 -2.79491 -0.872468 0
M  V30 2 C -2.76955 -1.52663 -0.245382 0
M  V30 3 N -3.87154 -1.14039 0.447528 0
M  V30 4 C -3.69812 0.106803 0.916105 0
M  V30 5 C -4.4903 0.952031 1.66485 0
M  V30 6 C -4.0096 2.20444 1.99007 0
M  V30 7 C -2.76189 2.63565 1.58908 0
M  V30 8 C -1.97045 1.79563 0.842986 0
M  V30 9 C -2.43604 0.534239 0.506645 0
M  V30 10 N -1.92634 -0.497595 -0.190624 0
M  V30 11 C -0.612555 -0.464153 -0.798542 0
M  V30 12 C 0.441363 -0.97827 0.167619 0
M  V30 13 N 1.74018 -0.931258 -0.470436 0
M  V30 14 C 2.28227 -1.92724 -1.19029 0
M  V30 15 N 1.70049 -3.21668 -1.47104 0
M  V30 16 N 3.48252 -1.48182 -1.60036 0
M  V30 17 C 3.68298 -0.223569 -1.14013 0
M  V30 18 C 4.69548 0.691199 -1.24532 0
M  V30 19 C 4.59689 1.92276 -0.645286 0
M  V30 20 C 3.48865 2.29615 0.0837765 0
M  V30 21 C 2.46473 1.38553 0.196619 0
M  V30 22 C 2.56665 0.131123 -0.415316 0
M  V30 23 H -2.71905 -2.90601 -1.90429 0
M  V30 24 H -2.42914 -3.65544 -0.32103 0
M  V30 25 H -5.48637 0.614579 1.98797 0
M  V30 26 H -4.60488 2.89409 2.57677 0
M  V30 27 H -2.39082 3.63066 1.85259 0
M  V30 28 H -0.995288 2.13057 0.528667 0
M  V30 29 H -0.6622 -1.06302 -1.71679 0
M  V30 30 H -0.3296 0.56656 -1.08664 0
M  V30 31 H 0.261212 -2.01953 0.468676 0
M  V30 32 H 0.428605 -0.308851 1.04275 0
M  V30 33 H 1.54465 -3.47953 -2.44782 0
M  V30 34 H 1.43981 -3.87568 -0.709427 0
M  V30 35 H 5.57269 0.422903 -1.81022 0
M  V30 36 H 5.40228 2.66858 -0.720843 0
M  V30 37 H 3.42926 3.28979 0.557673 0
M  V30 38 H 1.57124 1.61727 0.753459 0
M  V30 END ATOM
M  V30 BEGIN BOND
M  V30 1 1 1 2
M  V30 2 2 2 3
M  V30 3 1 3 4
M  V30 4 2 4 5
M  V30 5 1 5 6
M  V30 6 2 6 7
M  V30 7 1 7 8
M  V30 8 2 8 9
M  V30 9 1 9 10
M  V30 10 1 10 11
M  V30 11 1 11 12
M  V30 12 1 12 13
M  V30 13 1 13 14
M  V30 14 1 14 15
M  V30 15 2 14 16
M  V30 16 1 16 17
M  V30 17 2 17 18
M  V30 18 1 18 19
M  V30 19 2 19 20
M  V30 20 1 20 21
M  V30 21 2 21 22
M  V30 22 1 10 2
M  V30 23 1 22 13
M  V30 24 1 9 4
M  V30 25 1 22 17
M  V30 26 1 1 23
M  V30 27 1 1 24
M  V30 28 1 5 25
M  V30 29 1 6 26
M  V30 30 1 7 27
M  V30 31 1 8 28
M  V30 32 1 11 29
M  V30 33 1 11 30
M  V30 34 1 12 31
M  V30 35 1 12 32
M  V30 36 1 15 33
M  V30 37 1 15 34
M  V30 38 1 18 35
M  V30 39 1 19 36
M  V30 40 1 20 37
M  V30 41 1 21 38
M  V30 END BOND
M  V30 END CTAB
M  END
