
     RDKit          3D

  0  0  0  0  0  0  0  0  0  0999 V3000
M  V30 BEGIN CTAB
M  V30 COUNTS 45 47 0 0 0
M  V30 BEGIN ATOM
M  V30 1 N 6.92665 -2.16268 -2.21694 0
M  V30 2 C 6.33067 -1.1634 -1.39521 0
M  V30 3 N 4.97454 -1.03481 -1.36085 0
M  V30 4 C 4.37358 -0.104559 -0.59849 0
M  V30 5 S 2.59809 0.0878858 -0.532864 0
M  V30 6 C 1.98308 -0.977832 0.78367 0
M  V30 7 C 0.495478 -0.892213 0.927608 0
M  V30 8 O 0.010581 -1.60311 1.81741 0
M  V30 9 C -0.291842 -0.041422 0.0848709 0
M  V30 10 C -1.60826 0.132987 0.100867 0
M  V30 11 N -2.22547 1.03334 -0.826742 0
M  V30 12 C -1.5704 1.85874 -1.8435 0
M  V30 13 C -3.62314 1.01638 -0.616653 0
M  V30 14 C -3.93212 0.162732 0.387031 0
M  V30 15 C -2.67742 -0.43159 0.9189 0
M  V30 16 C -2.81914 -1.93452 0.699499 0
M  V30 17 C -2.54448 -0.126614 2.40421 0
M  V30 18 C -5.27157 -0.0308831 0.773032 0
M  V30 19 C -6.29474 0.635866 0.1475 0
M  V30 20 C -5.98134 1.50349 -0.871798 0
M  V30 21 C -4.67463 1.69431 -1.25088 0
M  V30 22 N 5.13102 0.72045 0.149587 0
M  V30 23 C 6.4904 0.627218 0.145662 0
M  V30 24 N 7.04362 -0.319747 -0.633653 0
M  V30 25 N 7.26872 1.51055 0.944602 0
M  V30 26 H 7.88441 -2.04299 -2.60048 0
M  V30 27 H 6.3936 -3.02713 -2.43668 0
M  V30 28 H 2.50063 -0.673643 1.73052 0
M  V30 29 H 2.2341 -2.02443 0.516518 0
M  V30 30 H 0.312565 0.527015 -0.663255 0
M  V30 31 H -0.576755 2.2088 -1.49703 0
M  V30 32 H -2.18289 2.76135 -2.01159 0
M  V30 33 H -1.41937 1.30705 -2.78921 0
M  V30 34 H -2.70548 -2.50393 1.64809 0
M  V30 35 H -3.80111 -2.14323 0.250821 0
M  V30 36 H -2.0678 -2.22006 -0.0651457 0
M  V30 37 H -2.59006 -1.07942 2.949 0
M  V30 38 H -1.72584 0.543624 2.65111 0
M  V30 39 H -3.48526 0.419584 2.69883 0
M  V30 40 H -5.45079 -0.736546 1.59271 0
M  V30 41 H -7.31692 0.462994 0.470455 0
M  V30 42 H -6.80932 2.02804 -1.36066 0
M  V30 43 H -4.46541 2.37364 -2.04447 0
M  V30 44 H 8.01553 1.12317 1.59285 0
M  V30 45 H 7.14431 2.53556 0.928635 0
M  V30 END ATOM
M  V30 BEGIN BOND
M  V30 1 1 1 2
M  V30 2 2 2 3
M  V30 3 1 3 4
M  V30 4 1 4 5
M  V30 5 1 5 6
M  V30 6 1 6 7
M  V30 7 2 7 8
M  V30 8 1 7 9
M  V30 9 2 9 10 CFG=2
M  V30 10 1 10 11
M  V30 11 1 11 12
M  V30 12 1 11 13
M  V30 13 2 13 14
M  V30 14 1 14 15
M  V30 15 1 15 16
M  V30 16 1 15 17
M  V30 17 1 14 18
M  V30 18 2 18 19
M  V30 19 1 19 20
M  V30 20 2 20 21
M  V30 21 2 4 22
M  V30 22 1 22 23
M  V30 23 2 23 24
M  V30 24 1 23 25
M  V30 25 1 24 2
M  V30 26 1 15 10
M  V30 27 1 21 13
M  V30 28 1 1 26
M  V30 29 1 1 27
M  V30 30 1 6 28
M  V30 31 1 6 29
M  V30 32 1 9 30
M  V30 33 1 12 31
M  V30 34 1 12 32
M  V30 35 1 12 33
M  V30 36 1 16 34
M  V30 37 1 16 35
M  V30 38 1 16 36
M  V30 39 1 17 37
M  V30 40 1 17 38
M  V30 41 1 17 39
M  V30 42 1 18 40
M  V30 43 1 19 41
M  V30 44 1 20 42
M  V30 45 1 21 43
M  V30 46 1 25 44
M  V30 47 1 25 45
M  V30 END BOND
M  V30 END CTAB
M  END
