
     RDKit          3D

  0  0  0  0  0  0  0  0  0  0999 V3000
M  V30 BEGIN CTAB
M  V30 COUNTS 28 28 0 0 0
M  V30 BEGIN ATOM
M  V30 1 C 4.51775 0.0517289 -0.806871 0
M  V30 2 O 3.21487 0.582984 -0.730052 0
M  V30 3 C 2.28963 0.168761 0.189449 0
M  V30 4 O 2.60775 -0.725712 1.00641 0
M  V30 5 C 0.890932 0.707896 0.306003 0 CFG=1
M  V30 6 N 0.827355 1.71962 -0.74293 0
M  V30 7 C -0.00535741 -0.434853 0.0179391 0 CFG=1
M  V30 8 N 0.202773 -1.52927 0.945126 0
M  V30 9 C -1.439 -0.178029 -0.0384914 0
M  V30 10 C -2.23139 -1.31701 -0.235943 0
M  V30 11 C -3.58763 -1.27816 -0.308624 0
M  V30 12 C -4.20687 -0.0620636 -0.181933 0
M  V30 13 C -3.46201 1.0791 0.013209 0
M  V30 14 C -2.08749 1.01288 0.0834207 0
M  V30 15 H 4.70974 -0.733266 -0.0564021 0
M  V30 16 H 5.225 0.890818 -0.658519 0
M  V30 17 H 4.74389 -0.388928 -1.79441 0
M  V30 18 H 0.730972 1.18172 1.28052 0
M  V30 19 H 1.45952 1.51803 -1.52436 0
M  V30 20 H 0.814899 2.67799 -0.389807 0
M  V30 21 H 0.296208 -0.84494 -0.989065 0
M  V30 22 H 0.777784 -2.30776 0.560674 0
M  V30 23 H 0.38429 -1.25913 1.91251 0
M  V30 24 H -1.77751 -2.31091 -0.342505 0
M  V30 25 H -4.17338 -2.18931 -0.463808 0
M  V30 26 H -5.29102 0.0100355 -0.234666 0
M  V30 27 H -3.93929 2.04234 0.11432 0
M  V30 28 H -1.4924 1.91543 0.243949 0
M  V30 END ATOM
M  V30 BEGIN BOND
M  V30 1 1 1 2
M  V30 2 1 2 3
M  V30 3 2 3 4
M  V30 4 1 3 5
M  V30 5 1 5 6
M  V30 6 1 5 7
M  V30 7 1 7 8
M  V30 8 1 7 9
M  V30 9 2 9 10
M  V30 10 1 10 11
M  V30 11 2 11 12
M  V30 12 1 12 13
M  V30 13 2 13 14
M  V30 14 1 14 9
M  V30 15 1 1 15
M  V30 16 1 1 16
M  V30 17 1 1 17
M  V30 18 1 5 18 CFG=1
M  V30 19 1 6 19
M  V30 20 1 6 20
M  V30 21 1 7 21 CFG=3
M  V30 22 1 8 22
M  V30 23 1 8 23
M  V30 24 1 10 24
M  V30 25 1 11 25
M  V30 26 1 12 26
M  V30 27 1 13 27
M  V30 28 1 14 28
M  V30 END BOND
M  V30 END CTAB
M  END
