
     RDKit          3D

  0  0  0  0  0  0  0  0  0  0999 V3000
M  V30 BEGIN CTAB
M  V30 COUNTS 28 27 0 0 0
M  V30 BEGIN ATOM
M  V30 1 N 3.38579 1.37715 -0.016129 0
M  V30 2 N 2.15939 0.892615 -0.418922 0
M  V30 3 C 1.45916 -0.00447262 0.399336 0
M  V30 4 O 2.02914 -0.320574 1.49938 0
M  V30 5 C 0.159576 -0.605775 0.123881 0
M  V30 6 C -0.981935 0.360111 0.0092108 0
M  V30 7 N -0.802863 1.32814 -1.05282 0
M  V30 8 C -2.26624 -0.390329 -0.336999 0
M  V30 9 C -1.24944 1.1208 1.27002 0
M  V30 10 C -0.102895 -1.66931 1.16114 0
M  V30 11 C 0.300394 -1.35966 -1.20876 0
M  V30 12 H 3.62824 2.31423 -0.343734 0
M  V30 13 H 4.14412 0.677576 -0.0472179 0
M  V30 14 H 1.75818 1.18763 -1.31987 0
M  V30 15 H -1.47753 2.11773 -0.850497 0
M  V30 16 H -1.1095 0.954434 -1.98743 0
M  V30 17 H -2.17595 -0.873748 -1.33989 0
M  V30 18 H -2.5805 -1.07711 0.454577 0
M  V30 19 H -3.06015 0.399096 -0.479026 0
M  V30 20 H -0.654738 2.06423 1.26647 0
M  V30 21 H -1.03966 0.581978 2.18991 0
M  V30 22 H -2.31708 1.45401 1.32432 0
M  V30 23 H -1.00194 -2.25963 0.975361 0
M  V30 24 H -0.073477 -1.21464 2.18969 0
M  V30 25 H 0.797071 -2.35203 1.14491 0
M  V30 26 H 0.0639952 -0.716396 -2.06021 0
M  V30 27 H 1.34803 -1.7202 -1.33065 0
M  V30 28 H -0.33918 -2.26585 -1.21605 0
M  V30 END ATOM
M  V30 BEGIN BOND
M  V30 1 1 1 2
M  V30 2 1 2 3
M  V30 3 2 3 4
M  V30 4 1 3 5
M  V30 5 1 5 6
M  V30 6 1 6 7
M  V30 7 1 6 8
M  V30 8 1 6 9
M  V30 9 1 5 10
M  V30 10 1 5 11
M  V30 11 1 1 12
M  V30 12 1 1 13
M  V30 13 1 2 14
M  V30 14 1 7 15
M  V30 15 1 7 16
M  V30 16 1 8 17
M  V30 17 1 8 18
M  V30 18 1 8 19
M  V30 19 1 9 20
M  V30 20 1 9 21
M  V30 21 1 9 22
M  V30 22 1 10 23
M  V30 23 1 10 24
M  V30 24 1 10 25
M  V30 25 1 11 26
M  V30 26 1 11 27
M  V30 27 1 11 28
M  V30 END BOND
M  V30 END CTAB
M  END
