
     RDKit          3D

  0  0  0  0  0  0  0  0  0  0999 V3000
M  V30 BEGIN CTAB
M  V30 COUNTS 34 35 0 0 0
M  V30 BEGIN ATOM
M  V30 1 N 3.99848 0.516366 2.17519 0
M  V30 2 C 3.41773 0.104202 0.938598 0
M  V30 3 C 4.22946 -0.221042 -0.126021 0
M  V30 4 C 3.67722 -0.622137 -1.33016 0
M  V30 5 C 2.30497 -0.691384 -1.44863 0
M  V30 6 C 1.45728 -0.375476 -0.410416 0
M  V30 7 C 2.0511 0.0195283 0.771931 0
M  V30 8 C 0.00902012 -0.471066 -0.605138 0 CFG=1
M  V30 9 C -0.524791 -1.49478 0.37604 0
M  V30 10 C -2.01676 -1.59026 0.384178 0
M  V30 11 C -2.55287 -0.620288 -0.65053 0
M  V30 12 N -2.08727 0.67318 -0.300555 0
M  V30 13 C -0.676613 0.865542 -0.423996 0
M  V30 14 S -3.0488 1.97197 -0.771726 0
M  V30 15 O -2.39399 3.25029 -0.325867 0
M  V30 16 O -3.32778 2.02504 -2.24465 0
M  V30 17 N -4.6033 1.80922 0.0110812 0
M  V30 18 H 3.45874 0.54587 3.0599 0
M  V30 19 H 4.99366 0.799539 2.20833 0
M  V30 20 H 5.30401 -0.158473 -0.00745659 0
M  V30 21 H 4.3183 -0.875839 -2.16105 0
M  V30 22 H 1.91112 -1.01445 -2.42203 0
M  V30 23 H 1.39333 0.267838 1.58743 0
M  V30 24 H -0.198607 -0.807684 -1.63412 0
M  V30 25 H -0.114952 -1.26525 1.39588 0
M  V30 26 H -0.121577 -2.4848 0.0865286 0
M  V30 27 H -2.40044 -2.61297 0.19789 0
M  V30 28 H -2.37096 -1.19689 1.38188 0
M  V30 29 H -2.23008 -0.986413 -1.64522 0
M  V30 30 H -3.66171 -0.618715 -0.605644 0
M  V30 31 H -0.30781 1.26731 0.557561 0
M  V30 32 H -0.367195 1.53568 -1.22317 0
M  V30 33 H -5.11626 1.06138 -0.51685 0
M  V30 34 H -4.40267 1.39496 0.961829 0
M  V30 END ATOM
M  V30 BEGIN BOND
M  V30 1 1 1 2
M  V30 2 2 2 3
M  V30 3 1 3 4
M  V30 4 2 4 5
M  V30 5 1 5 6
M  V30 6 2 6 7
M  V30 7 1 6 8
M  V30 8 1 8 9
M  V30 9 1 9 10
M  V30 10 1 10 11
M  V30 11 1 11 12
M  V30 12 1 12 13
M  V30 13 1 12 14
M  V30 14 2 14 15
M  V30 15 2 14 16
M  V30 16 1 14 17
M  V30 17 1 7 2
M  V30 18 1 13 8
M  V30 19 1 1 18
M  V30 20 1 1 19
M  V30 21 1 3 20
M  V30 22 1 4 21
M  V30 23 1 5 22
M  V30 24 1 7 23
M  V30 25 1 8 24 CFG=3
M  V30 26 1 9 25
M  V30 27 1 9 26
M  V30 28 1 10 27
M  V30 29 1 10 28
M  V30 30 1 11 29
M  V30 31 1 11 30
M  V30 32 1 13 31
M  V30 33 1 13 32
M  V30 34 1 17 33
M  V30 35 1 17 34
M  V30 END BOND
M  V30 END CTAB
M  END
