
     RDKit          3D

  0  0  0  0  0  0  0  0  0  0999 V3000
M  V30 BEGIN CTAB
M  V30 COUNTS 68 71 0 0 0
M  V30 BEGIN ATOM
M  V30 1 C -5.95223 -2.34812 4.39705 0
M  V30 2 O -6.87489 -1.80412 3.45915 0
M  V30 3 C -6.50775 -1.75556 2.10057 0
M  V30 4 C -5.29167 -2.2441 1.71801 0
M  V30 5 C -4.88701 -2.22573 0.400267 0
M  V30 6 N -3.65775 -2.78265 0.0735093 0
M  V30 7 C -2.90349 -2.48642 -1.06353 0
M  V30 8 O -3.21135 -1.67317 -1.93883 0
M  V30 9 C -1.60856 -3.22513 -1.23354 0 CFG=2
M  V30 10 C -0.729301 -3.07049 -0.0201921 0
M  V30 11 S 0.809594 -3.96202 -0.153386 0
M  V30 12 S 2.12232 -3.26512 -1.62913 0
M  V30 13 C 3.26056 -2.00611 -1.02042 0
M  V30 14 C 2.50409 -0.747769 -0.734418 0 CFG=1
M  V30 15 C 3.40775 0.327201 -0.209276 0
M  V30 16 O 3.70361 0.180605 1.01267 0
M  V30 17 N 3.87324 1.3685 -0.984378 0
M  V30 18 C 4.71714 2.39295 -0.505305 0
M  V30 19 C 5.49574 3.03419 -1.48069 0
M  V30 20 C 6.33531 4.04852 -1.11887 0
M  V30 21 O 7.10322 4.68066 -2.08227 0
M  V30 22 C 6.99158 4.25249 -3.42424 0
M  V30 23 C 6.42215 4.44777 0.203794 0
M  V30 24 C 5.66844 3.83922 1.18552 0
M  V30 25 C 4.82727 2.81429 0.79215 0
M  V30 26 C 5.72192 4.20641 2.51928 0
M  V30 27 C 6.57347 5.23077 2.87231 0
M  V30 28 C 7.32996 5.84548 1.90401 0
M  V30 29 C 7.27198 5.47567 0.572658 0
M  V30 30 N 2.02684 -0.265435 -2.04109 0
M  V30 31 N -0.970065 -2.76724 -2.41692 0
M  V30 32 C -5.74463 -1.70241 -0.513536 0
M  V30 33 C -6.98822 -1.20064 -0.117368 0
M  V30 34 C -7.38114 -1.22429 1.20027 0
M  V30 35 C -8.63074 -0.72831 1.59408 0
M  V30 36 C -9.43461 -0.222292 0.597269 0
M  V30 37 C -9.06854 -0.188946 -0.712431 0
M  V30 38 C -7.83197 -0.680814 -1.08522 0
M  V30 39 H -5.01308 -1.77479 4.35625 0
M  V30 40 H -5.73208 -3.39224 4.03494 0
M  V30 41 H -6.38736 -2.43451 5.40941 0
M  V30 42 H -4.60597 -2.66845 2.47709 0
M  V30 43 H -3.2732 -3.50422 0.763654 0
M  V30 44 H -1.8283 -4.30223 -1.3528 0
M  V30 45 H -0.495306 -1.98119 0.166588 0
M  V30 46 H -1.25927 -3.42965 0.877156 0
M  V30 47 H 3.78831 -2.41474 -0.136027 0
M  V30 48 H 4.03846 -1.85333 -1.81226 0
M  V30 49 H 1.72274 -0.922591 -0.0156961 0
M  V30 50 H 3.5608 1.37671 -2.00704 0
M  V30 51 H 5.41699 2.71514 -2.51808 0
M  V30 52 H 5.99275 4.5019 -3.86446 0
M  V30 53 H 7.14892 3.14652 -3.45623 0
M  V30 54 H 7.77341 4.76137 -4.01574 0
M  V30 55 H 4.22823 2.35762 1.56315 0
M  V30 56 H 5.12478 3.7223 3.2807 0
M  V30 57 H 6.63525 5.53662 3.919 0
M  V30 58 H 7.99779 6.65138 2.1975 0
M  V30 59 H 7.84445 5.93076 -0.207708 0
M  V30 60 H 1.6035 -1.09147 -2.51577 0
M  V30 61 H 1.21994 0.384865 -1.83521 0
M  V30 62 H -0.790913 -1.75838 -2.50173 0
M  V30 63 H -1.2044 -3.28939 -3.25913 0
M  V30 64 H -5.50103 -1.66545 -1.58034 0
M  V30 65 H -8.89263 -0.758736 2.62941 0
M  V30 66 H -10.4056 0.162245 0.901962 0
M  V30 67 H -9.70205 0.207237 -1.49721 0
M  V30 68 H -7.4974 -0.671954 -2.11891 0
M  V30 END ATOM
M  V30 BEGIN BOND
M  V30 1 1 1 2
M  V30 2 1 2 3
M  V30 3 2 3 4
M  V30 4 1 4 5
M  V30 5 1 5 6
M  V30 6 1 6 7
M  V30 7 2 7 8
M  V30 8 1 7 9
M  V30 9 1 9 10
M  V30 10 1 10 11
M  V30 11 1 11 12
M  V30 12 1 12 13
M  V30 13 1 13 14
M  V30 14 1 14 15
M  V30 15 2 15 16
M  V30 16 1 15 17
M  V30 17 1 17 18
M  V30 18 2 18 19
M  V30 19 1 19 20
M  V30 20 1 20 21
M  V30 21 1 21 22
M  V30 22 2 20 23
M  V30 23 1 23 24
M  V30 24 2 24 25
M  V30 25 1 24 26
M  V30 26 2 26 27
M  V30 27 1 27 28
M  V30 28 2 28 29
M  V30 29 1 14 30
M  V30 30 1 9 31
M  V30 31 2 5 32
M  V30 32 1 32 33
M  V30 33 2 33 34
M  V30 34 1 34 35
M  V30 35 2 35 36
M  V30 36 1 36 37
M  V30 37 2 37 38
M  V30 38 1 34 3
M  V30 39 1 25 18
M  V30 40 1 38 33
M  V30 41 1 29 23
M  V30 42 1 1 39
M  V30 43 1 1 40
M  V30 44 1 1 41
M  V30 45 1 4 42
M  V30 46 1 6 43
M  V30 47 1 9 44 CFG=3
M  V30 48 1 10 45
M  V30 49 1 10 46
M  V30 50 1 13 47
M  V30 51 1 13 48
M  V30 52 1 14 49 CFG=1
M  V30 53 1 17 50
M  V30 54 1 19 51
M  V30 55 1 22 52
M  V30 56 1 22 53
M  V30 57 1 22 54
M  V30 58 1 25 55
M  V30 59 1 26 56
M  V30 60 1 27 57
M  V30 61 1 28 58
M  V30 62 1 29 59
M  V30 63 1 30 60
M  V30 64 1 30 61
M  V30 65 1 31 62
M  V30 66 1 31 63
M  V30 67 1 32 64
M  V30 68 1 35 65
M  V30 69 1 36 66
M  V30 70 1 37 67
M  V30 71 1 38 68
M  V30 END BOND
M  V30 END CTAB
M  END
