
     RDKit          3D

  0  0  0  0  0  0  0  0  0  0999 V3000
M  V30 BEGIN CTAB
M  V30 COUNTS 22 21 0 0 0
M  V30 BEGIN ATOM
M  V30 1 N 2.16792 1.50753 -0.226752 0
M  V30 2 C 2.73098 0.21497 -0.541036 0
M  V30 3 C 1.92219 -0.809281 0.252621 0
M  V30 4 C 0.496457 -0.67181 -0.215859 0
M  V30 5 C -0.453077 -1.59862 0.454114 0
M  V30 6 S -2.10752 -1.31113 -0.217304 0
M  V30 7 C -2.76871 0.282629 0.215393 0
M  V30 8 N -4.05431 0.606549 -0.287716 0
M  V30 9 N -2.05905 1.05142 0.957648 0
M  V30 10 H 2.40762 2.2427 -0.914582 0
M  V30 11 H 2.32359 1.79078 0.769099 0
M  V30 12 H 2.58288 0.0626493 -1.63586 0
M  V30 13 H 3.80991 0.133259 -0.331068 0
M  V30 14 H 2.04123 -0.567643 1.32542 0
M  V30 15 H 2.34895 -1.80412 0.077813 0
M  V30 16 H 0.201568 0.367044 -0.0323615 0
M  V30 17 H 0.502914 -0.881598 -1.31636 0
M  V30 18 H -0.487159 -1.40191 1.54928 0
M  V30 19 H -0.189259 -2.66522 0.349405 0
M  V30 20 H -4.15056 1.40688 -0.938982 0
M  V30 21 H -4.9008 0.0399142 -0.00206872 0
M  V30 22 H -2.36577 2.00502 1.26253 0
M  V30 END ATOM
M  V30 BEGIN BOND
M  V30 1 1 1 2
M  V30 2 1 2 3
M  V30 3 1 3 4
M  V30 4 1 4 5
M  V30 5 1 5 6
M  V30 6 1 6 7
M  V30 7 1 7 8
M  V30 8 2 7 9 CFG=2
M  V30 9 1 1 10
M  V30 10 1 1 11
M  V30 11 1 2 12
M  V30 12 1 2 13
M  V30 13 1 3 14
M  V30 14 1 3 15
M  V30 15 1 4 16
M  V30 16 1 4 17
M  V30 17 1 5 18
M  V30 18 1 5 19
M  V30 19 1 8 20
M  V30 20 1 8 21
M  V30 21 1 9 22
M  V30 END BOND
M  V30 END CTAB
M  END
