
     RDKit          3D

  0  0  0  0  0  0  0  0  0  0999 V3000
M  V30 BEGIN CTAB
M  V30 COUNTS 26 26 0 0 0
M  V30 BEGIN ATOM
M  V30 1 C -2.60428 -1.39506 0.262581 0
M  V30 2 C -1.89313 -0.970544 -1.03214 0
M  V30 3 C -0.538096 -0.50126 -0.583245 0
M  V30 4 C 0.513924 -1.38188 -0.762175 0
M  V30 5 C 1.78543 -1.00265 -0.34363 0
M  V30 6 N 2.92277 -1.8336 -0.48289 0
M  V30 7 C 1.92122 0.241287 0.230322 0
M  V30 8 C 0.856071 1.11678 0.403638 0
M  V30 9 C -0.389941 0.746207 -0.00636565 0
M  V30 10 O -1.52922 1.50886 0.102435 0
M  V30 11 C -1.63867 2.78032 0.644302 0
M  V30 12 F -2.11916 3.64421 -0.353981 0
M  V30 13 F -2.68502 2.73343 1.5771 0
M  V30 14 N 3.22428 0.648632 0.673236 0
M  V30 15 H -2.2974 -2.45733 0.457186 0
M  V30 16 H -2.31358 -0.720488 1.08018 0
M  V30 17 H -3.67893 -1.4006 0.037608 0
M  V30 18 H -2.44923 -0.135236 -1.52078 0
M  V30 19 H -1.8256 -1.82539 -1.72298 0
M  V30 20 H 0.415467 -2.36011 -1.21168 0
M  V30 21 H 3.86875 -1.49717 -0.768819 0
M  V30 22 H 2.83275 -2.85296 -0.291987 0
M  V30 23 H 0.975428 2.08325 0.8525 0
M  V30 24 H -0.730916 3.21159 1.0599 0
M  V30 25 H 4.08154 0.295405 0.23811 0
M  V30 26 H 3.29553 1.32432 1.46157 0
M  V30 END ATOM
M  V30 BEGIN BOND
M  V30 1 1 1 2
M  V30 2 1 2 3
M  V30 3 2 3 4
M  V30 4 1 4 5
M  V30 5 1 5 6
M  V30 6 2 5 7
M  V30 7 1 7 8
M  V30 8 2 8 9
M  V30 9 1 9 10
M  V30 10 1 10 11
M  V30 11 1 11 12
M  V30 12 1 11 13
M  V30 13 1 7 14
M  V30 14 1 9 3
M  V30 15 1 1 15
M  V30 16 1 1 16
M  V30 17 1 1 17
M  V30 18 1 2 18
M  V30 19 1 2 19
M  V30 20 1 4 20
M  V30 21 1 6 21
M  V30 22 1 6 22
M  V30 23 1 8 23
M  V30 24 1 11 24
M  V30 25 1 14 25
M  V30 26 1 14 26
M  V30 END BOND
M  V30 END CTAB
M  END
