
     RDKit          3D

  0  0  0  0  0  0  0  0  0  0999 V3000
M  V30 BEGIN CTAB
M  V30 COUNTS 21 22 0 0 0
M  V30 BEGIN ATOM
M  V30 1 Cl -1.36665 -2.59468 1.43434 0
M  V30 2 C -1.84294 -1.16158 0.558555 0
M  V30 3 C -3.18056 -0.921054 0.326334 0
M  V30 4 C -3.53383 0.237898 -0.379737 0
M  V30 5 C -2.551 1.07965 -0.808557 0
M  V30 6 N -1.24958 0.787517 -0.54841 0
M  V30 7 C -0.871639 -0.299449 0.116962 0
M  V30 8 C 0.563859 -0.557113 0.365906 0
M  V30 9 N 1.06598 -1.60191 1.01488 0
M  V30 10 N 2.38164 -1.49225 1.0395 0
M  V30 11 C 2.761 -0.34898 0.392298 0
M  V30 12 N 1.6007 0.202874 -0.0111443 0
M  V30 13 N 1.48826 1.41348 -0.731304 0
M  V30 14 N 4.08244 0.124753 0.203004 0
M  V30 15 H -3.96703 -1.58395 0.663203 0
M  V30 16 H -4.57044 0.45037 -0.575054 0
M  V30 17 H -2.82549 1.98073 -1.35751 0
M  V30 18 H 1.58823 1.42119 -1.77065 0
M  V30 19 H 1.30568 2.27758 -0.193645 0
M  V30 20 H 4.66083 -0.287731 -0.540211 0
M  V30 21 H 4.46054 0.872664 0.801231 0
M  V30 END ATOM
M  V30 BEGIN BOND
M  V30 1 1 1 2
M  V30 2 2 2 3
M  V30 3 1 3 4
M  V30 4 2 4 5
M  V30 5 1 5 6
M  V30 6 2 6 7
M  V30 7 1 7 8
M  V30 8 2 8 9
M  V30 9 1 9 10
M  V30 10 2 10 11
M  V30 11 1 11 12
M  V30 12 1 12 13
M  V30 13 1 11 14
M  V30 14 1 7 2
M  V30 15 1 12 8
M  V30 16 1 3 15
M  V30 17 1 4 16
M  V30 18 1 5 17
M  V30 19 1 13 18
M  V30 20 1 13 19
M  V30 21 1 14 20
M  V30 22 1 14 21
M  V30 END BOND
M  V30 END CTAB
M  END
