
     RDKit          3D

  0  0  0  0  0  0  0  0  0  0999 V3000
M  V30 BEGIN CTAB
M  V30 COUNTS 41 43 0 0 0
M  V30 BEGIN ATOM
M  V30 1 C 2.89436 -2.34689 2.07642 0
M  V30 2 O 3.45739 -1.06341 1.91398 0
M  V30 3 C 3.03812 -0.277433 0.852138 0
M  V30 4 C 3.56903 0.982054 0.66557 0
M  V30 5 C 3.16623 1.76784 -0.375409 0
M  V30 6 O 3.69252 3.04234 -0.577986 0
M  V30 7 C 4.65721 3.56207 0.28418 0
M  V30 8 C 2.20342 1.27399 -1.25277 0
M  V30 9 C 1.65372 0.020851 -1.09418 0
M  V30 10 C 0.627652 -0.504765 -2.02962 0
M  V30 11 C -0.750774 -0.152112 -1.56818 0
M  V30 12 C -1.41942 -1.02111 -0.72834 0
M  V30 13 C -2.69529 -0.74223 -0.273062 0
M  V30 14 C -3.343 0.438303 -0.65727 0
M  V30 15 C -2.65965 1.29363 -1.49617 0
M  V30 16 C -1.38678 0.997002 -1.93947 0
M  V30 17 N -4.58876 0.694327 -0.203081 0
M  V30 18 C -5.23275 -0.167894 0.620769 0
M  V30 19 N -6.53876 0.0664272 1.11714 0
M  V30 20 N -4.60028 -1.31918 0.995068 0
M  V30 21 C -3.36654 -1.6019 0.56254 0
M  V30 22 N -2.74712 -2.80283 0.972578 0
M  V30 23 C 2.08667 -0.7405 -0.0318275 0
M  V30 24 H 3.35594 -2.92767 2.87594 0
M  V30 25 H 2.99383 -2.94267 1.14154 0
M  V30 26 H 1.78628 -2.28684 2.27759 0
M  V30 27 H 4.32111 1.34944 1.36337 0
M  V30 28 H 4.31737 3.41726 1.35001 0
M  V30 29 H 4.69218 4.67739 0.144938 0
M  V30 30 H 5.65684 3.11344 0.13 0
M  V30 31 H 1.91398 1.92599 -2.0601 0
M  V30 32 H 0.677997 -1.61611 -2.08944 0
M  V30 33 H 0.792867 -0.115856 -3.06047 0
M  V30 34 H -0.907509 -1.94952 -0.427429 0
M  V30 35 H -3.13602 2.23074 -1.81953 0
M  V30 36 H -0.833921 1.66757 -2.60548 0
M  V30 37 H -6.69086 0.87835 1.74125 0
M  V30 38 H -7.30102 -0.574251 0.845731 0
M  V30 39 H -2.5551 -3.52968 0.257334 0
M  V30 40 H -2.48286 -2.97226 1.96223 0
M  V30 41 H 1.68171 -1.74391 0.139492 0
M  V30 END ATOM
M  V30 BEGIN BOND
M  V30 1 1 1 2
M  V30 2 1 2 3
M  V30 3 2 3 4
M  V30 4 1 4 5
M  V30 5 1 5 6
M  V30 6 1 6 7
M  V30 7 2 5 8
M  V30 8 1 8 9
M  V30 9 1 9 10
M  V30 10 1 10 11
M  V30 11 2 11 12
M  V30 12 1 12 13
M  V30 13 2 13 14
M  V30 14 1 14 15
M  V30 15 2 15 16
M  V30 16 1 14 17
M  V30 17 2 17 18
M  V30 18 1 18 19
M  V30 19 1 18 20
M  V30 20 2 20 21
M  V30 21 1 21 22
M  V30 22 2 9 23
M  V30 23 1 23 3
M  V30 24 1 16 11
M  V30 25 1 21 13
M  V30 26 1 1 24
M  V30 27 1 1 25
M  V30 28 1 1 26
M  V30 29 1 4 27
M  V30 30 1 7 28
M  V30 31 1 7 29
M  V30 32 1 7 30
M  V30 33 1 8 31
M  V30 34 1 10 32
M  V30 35 1 10 33
M  V30 36 1 12 34
M  V30 37 1 15 35
M  V30 38 1 16 36
M  V30 39 1 19 37
M  V30 40 1 19 38
M  V30 41 1 22 39
M  V30 42 1 22 40
M  V30 43 1 23 41
M  V30 END BOND
M  V30 END CTAB
M  END
