
     RDKit          3D

  0  0  0  0  0  0  0  0  0  0999 V3000
M  V30 BEGIN CTAB
M  V30 COUNTS 27 27 0 0 0
M  V30 BEGIN ATOM
M  V30 1 N -0.78096 2.32842 0.836405 0
M  V30 2 C -0.349262 2.06742 -0.509572 0
M  V30 3 C 0.0825905 0.593881 -0.631912 0
M  V30 4 C -1.11741 -0.220152 -0.287732 0
M  V30 5 C -0.961021 -1.72582 -0.334465 0
M  V30 6 C -1.95278 -1.76894 0.838004 0
M  V30 7 C -1.37647 -0.390346 1.20439 0
M  V30 8 N 1.20535 0.385996 0.266026 0
M  V30 9 S 2.66426 0.00182406 -0.569346 0
M  V30 10 O 2.60205 0.694463 -1.9081 0
M  V30 11 O 3.80373 0.554663 0.251722 0
M  V30 12 N 2.88857 -1.69259 -0.787484 0
M  V30 13 H -1.70121 2.78941 0.879262 0
M  V30 14 H -0.0650144 2.76662 1.43137 0
M  V30 15 H 0.468904 2.74593 -0.818901 0
M  V30 16 H -1.2272 2.17383 -1.17058 0
M  V30 17 H 0.468363 0.426279 -1.65015 0
M  V30 18 H -2.06505 0.0973285 -0.763643 0
M  V30 19 H -0.00137331 -2.11197 0.0241349 0
M  V30 20 H -1.36393 -2.20609 -1.25139 0
M  V30 21 H -1.75852 -2.54094 1.57699 0
M  V30 22 H -3.00488 -1.67336 0.470659 0
M  V30 23 H -2.13943 0.288302 1.63443 0
M  V30 24 H -0.475249 -0.550879 1.81738 0
M  V30 25 H 1.29869 1.18671 0.91103 0
M  V30 26 H 2.23525 -2.02153 -1.55924 0
M  V30 27 H 2.622 -2.19846 0.100715 0
M  V30 END ATOM
M  V30 BEGIN BOND
M  V30 1 1 1 2
M  V30 2 1 2 3
M  V30 3 1 3 4
M  V30 4 1 4 5
M  V30 5 1 5 6
M  V30 6 1 6 7
M  V30 7 1 3 8
M  V30 8 1 8 9
M  V30 9 2 9 10
M  V30 10 2 9 11
M  V30 11 1 9 12
M  V30 12 1 7 4
M  V30 13 1 1 13
M  V30 14 1 1 14
M  V30 15 1 2 15
M  V30 16 1 2 16
M  V30 17 1 3 17
M  V30 18 1 4 18
M  V30 19 1 5 19
M  V30 20 1 5 20
M  V30 21 1 6 21
M  V30 22 1 6 22
M  V30 23 1 7 23
M  V30 24 1 7 24
M  V30 25 1 8 25
M  V30 26 1 12 26
M  V30 27 1 12 27
M  V30 END BOND
M  V30 END CTAB
M  END
