
     RDKit          3D

  0  0  0  0  0  0  0  0  0  0999 V3000
M  V30 BEGIN CTAB
M  V30 COUNTS 20 20 0 0 0
M  V30 BEGIN ATOM
M  V30 1 C 4.3225 1.09479 0.601254 0
M  V30 2 S 2.75181 1.96155 0.402844 0
M  V30 3 C 1.3874 0.827648 0.242207 0
M  V30 4 N 0.0867517 1.09503 0.0806983 0
M  V30 5 N -0.59914 -0.0514141 0.00352812 0
M  V30 6 C -1.99958 -0.194592 -0.167699 0
M  V30 7 S -2.57417 -1.35257 -1.16133 0
M  V30 8 N -2.92756 0.646422 0.505009 0
M  V30 9 N -4.30168 0.501606 0.333359 0
M  V30 10 C 0.271715 -1.06079 0.116827 0
M  V30 11 N 0.0606955 -2.45727 0.0995748 0
M  V30 12 N 1.51126 -0.505629 0.265714 0
M  V30 13 H 4.12103 0.0915139 1.0452 0
M  V30 14 H 4.74973 0.895215 -0.4083 0
M  V30 15 H 5.02837 1.63158 1.26259 0
M  V30 16 H -2.58773 1.39179 1.14351 0
M  V30 17 H -4.83759 1.34995 0.550392 0
M  V30 18 H -4.44965 0.157581 -0.64103 0
M  V30 19 H 0.72925 -3.09265 -0.407935 0
M  V30 20 H -0.743403 -2.92978 0.572573 0
M  V30 END ATOM
M  V30 BEGIN BOND
M  V30 1 1 1 2
M  V30 2 1 2 3
M  V30 3 2 3 4
M  V30 4 1 4 5
M  V30 5 1 5 6
M  V30 6 2 6 7
M  V30 7 1 6 8
M  V30 8 1 8 9
M  V30 9 1 5 10
M  V30 10 1 10 11
M  V30 11 2 10 12
M  V30 12 1 12 3
M  V30 13 1 1 13
M  V30 14 1 1 14
M  V30 15 1 1 15
M  V30 16 1 8 16
M  V30 17 1 9 17
M  V30 18 1 9 18
M  V30 19 1 11 19
M  V30 20 1 11 20
M  V30 END BOND
M  V30 END CTAB
M  END
