
     RDKit          3D

  0  0  0  0  0  0  0  0  0  0999 V3000
M  V30 BEGIN CTAB
M  V30 COUNTS 26 27 0 0 0
M  V30 BEGIN ATOM
M  V30 1 N 3.46902 -2.44625 0.6651 0
M  V30 2 N 2.96739 -1.19034 0.388778 0
M  V30 3 C 1.6266 -1.01871 -0.0290772 0
M  V30 4 O 0.935442 -2.04256 -0.132463 0
M  V30 5 C 1.08798 0.341057 -0.325567 0
M  V30 6 N 1.94492 1.24135 -0.761896 0
M  V30 7 C 1.55445 2.43873 -1.09595 0
M  V30 8 S -0.112505 2.36741 -0.802833 0
M  V30 9 C -0.206505 0.701877 -0.230494 0
M  V30 10 C -1.47045 0.0850272 0.159044 0
M  V30 11 C -1.60911 -0.929999 1.03723 0
M  V30 12 C -2.85651 -1.49499 1.27828 0
M  V30 13 C -3.96883 -1.03022 0.630688 0
M  V30 14 C -3.8501 0.00584095 -0.266956 0
M  V30 15 C -2.63207 0.540221 -0.488598 0
M  V30 16 N 2.29318 3.55195 -1.58462 0
M  V30 17 H 4.07447 -2.78192 -0.121859 0
M  V30 18 H 4.0266 -2.51044 1.52392 0
M  V30 19 H 3.57458 -0.362155 0.486822 0
M  V30 20 H -0.773051 -1.32303 1.64077 0
M  V30 21 H -2.93124 -2.32323 2.00015 0
M  V30 22 H -4.95372 -1.47597 0.820673 0
M  V30 23 H -4.76749 0.337412 -0.753565 0
M  V30 24 H -2.54353 1.35893 -1.19904 0
M  V30 25 H 2.81136 3.54928 -2.48174 0
M  V30 26 H 2.30912 4.41071 -1.00462 0
M  V30 END ATOM
M  V30 BEGIN BOND
M  V30 1 1 1 2
M  V30 2 1 2 3
M  V30 3 2 3 4
M  V30 4 1 3 5
M  V30 5 1 5 6
M  V30 6 2 6 7
M  V30 7 1 7 8
M  V30 8 1 8 9
M  V30 9 1 9 10
M  V30 10 2 10 11
M  V30 11 1 11 12
M  V30 12 2 12 13
M  V30 13 1 13 14
M  V30 14 2 14 15
M  V30 15 1 7 16
M  V30 16 2 9 5
M  V30 17 1 15 10
M  V30 18 1 1 17
M  V30 19 1 1 18
M  V30 20 1 2 19
M  V30 21 1 11 20
M  V30 22 1 12 21
M  V30 23 1 13 22
M  V30 24 1 14 23
M  V30 25 1 15 24
M  V30 26 1 16 25
M  V30 27 1 16 26
M  V30 END BOND
M  V30 END CTAB
M  END
