
     RDKit          3D

  0  0  0  0  0  0  0  0  0  0999 V3000
M  V30 BEGIN CTAB
M  V30 COUNTS 56 55 0 0 0
M  V30 BEGIN ATOM
M  V30 1 C 1.26604 -1.89645 -2.56093 0
M  V30 2 C 1.02954 -0.479594 -2.13918 0
M  V30 3 C -0.0245779 0.214009 -2.96213 0
M  V30 4 C 0.879022 -0.297997 -0.656375 0 CFG=2
M  V30 5 N 2.10668 -0.752115 -0.0512653 0
M  V30 6 C 2.94345 0.178431 0.621085 0
M  V30 7 O 2.53884 1.39065 0.643875 0
M  V30 8 C 4.20123 -0.240048 1.2513 0
M  V30 9 C 5.04939 0.849152 1.81553 0
M  V30 10 C 5.49144 1.78632 0.725332 0 CFG=2
M  V30 11 N 6.24958 0.983837 -0.223382 0
M  V30 12 C 6.39131 2.8017 1.37423 0
M  V30 13 O 7.73299 2.91996 1.08197 0
M  V30 14 O 5.87603 3.56464 2.21616 0
M  V30 15 C -0.27585 -0.96069 -0.0549476 0
M  V30 16 O -0.0314887 -1.82317 0.859405 0
M  V30 17 N -1.6297 -0.765096 -0.359287 0
M  V30 18 C -2.70221 -1.47678 0.29711 0 CFG=1
M  V30 19 C -3.58212 -0.512603 1.0543 0
M  V30 20 C -4.21255 0.524733 0.177223 0
M  V30 21 C -5.07975 1.46131 0.987401 0
M  V30 22 C -6.19915 0.742642 1.6988 0
M  V30 23 N -7.08112 0.0608201 0.78991 0
M  V30 24 C -3.47915 -2.315 -0.652712 0
M  V30 25 O -4.54831 -3.09057 -0.290076 0
M  V30 26 O -3.15405 -2.33105 -1.87603 0
M  V30 27 H 2.0619 -2.38081 -2.0003 0
M  V30 28 H 1.55225 -1.92379 -3.63221 0
M  V30 29 H 0.290954 -2.42919 -2.49525 0
M  V30 30 H 1.99081 0.0674498 -2.39346 0
M  V30 31 H -0.866363 -0.450062 -3.22875 0
M  V30 32 H 0.401386 0.542614 -3.95665 0
M  V30 33 H -0.330997 1.14848 -2.45111 0
M  V30 34 H 0.781018 0.786983 -0.475864 0
M  V30 35 H 2.40939 -1.75896 -0.0895258 0
M  V30 36 H 4.80505 -0.755972 0.458632 0
M  V30 37 H 4.05055 -1.02147 2.03107 0
M  V30 38 H 4.51134 1.38062 2.63332 0
M  V30 39 H 5.98292 0.372952 2.21165 0
M  V30 40 H 4.69118 2.25607 0.166705 0
M  V30 41 H 5.82308 0.927075 -1.15268 0
M  V30 42 H 6.62555 0.114251 0.170565 0
M  V30 43 H 8.17602 3.82131 1.08999 0
M  V30 44 H -1.87719 -0.073374 -1.08987 0
M  V30 45 H -2.28129 -2.17355 1.05383 0
M  V30 46 H -4.38313 -1.04436 1.60619 0
M  V30 47 H -2.94679 -0.0115494 1.81251 0
M  V30 48 H -3.39703 1.14823 -0.264772 0
M  V30 49 H -4.80713 0.131025 -0.639693 0
M  V30 50 H -5.5303 2.24708 0.350494 0
M  V30 51 H -4.4463 1.96934 1.73638 0
M  V30 52 H -6.82419 1.5347 2.20565 0
M  V30 53 H -5.85311 0.051298 2.4803 0
M  V30 54 H -8.09374 0.245115 0.967524 0
M  V30 55 H -6.79648 0.125523 -0.19369 0
M  V30 56 H -5.47488 -3.03316 -0.678311 0
M  V30 END ATOM
M  V30 BEGIN BOND
M  V30 1 1 1 2
M  V30 2 1 2 3
M  V30 3 1 2 4
M  V30 4 1 4 5
M  V30 5 1 5 6
M  V30 6 2 6 7
M  V30 7 1 6 8
M  V30 8 1 8 9
M  V30 9 1 9 10
M  V30 10 1 10 11
M  V30 11 1 10 12
M  V30 12 1 12 13
M  V30 13 2 12 14
M  V30 14 1 4 15
M  V30 15 2 15 16
M  V30 16 1 15 17
M  V30 17 1 17 18
M  V30 18 1 18 19
M  V30 19 1 19 20
M  V30 20 1 20 21
M  V30 21 1 21 22
M  V30 22 1 22 23
M  V30 23 1 18 24
M  V30 24 1 24 25
M  V30 25 2 24 26
M  V30 26 1 1 27
M  V30 27 1 1 28
M  V30 28 1 1 29
M  V30 29 1 2 30
M  V30 30 1 3 31
M  V30 31 1 3 32
M  V30 32 1 3 33
M  V30 33 1 4 34 CFG=3
M  V30 34 1 5 35
M  V30 35 1 8 36
M  V30 36 1 8 37
M  V30 37 1 9 38
M  V30 38 1 9 39
M  V30 39 1 10 40 CFG=3
M  V30 40 1 11 41
M  V30 41 1 11 42
M  V30 42 1 13 43
M  V30 43 1 17 44
M  V30 44 1 18 45 CFG=1
M  V30 45 1 19 46
M  V30 46 1 19 47
M  V30 47 1 20 48
M  V30 48 1 20 49
M  V30 49 1 21 50
M  V30 50 1 21 51
M  V30 51 1 22 52
M  V30 52 1 22 53
M  V30 53 1 23 54
M  V30 54 1 23 55
M  V30 55 1 25 56
M  V30 END BOND
M  V30 END CTAB
M  END
