
     RDKit          3D

  0  0  0  0  0  0  0  0  0  0999 V3000
M  V30 BEGIN CTAB
M  V30 COUNTS 26 27 0 0 0
M  V30 BEGIN ATOM
M  V30 1 N -4.31633 1.35276 -0.57364 0
M  V30 2 C -3.15797 0.545415 -0.432423 0
M  V30 3 C -2.93037 -0.561795 -1.23989 0
M  V30 4 C -1.81563 -1.35164 -1.11521 0
M  V30 5 C -0.861206 -1.07358 -0.168256 0
M  V30 6 C -1.05698 0.0191395 0.649778 0
M  V30 7 C -2.18229 0.803707 0.5127 0
M  V30 8 C 0.356583 -1.89938 0.00350581 0
M  V30 9 S 1.74827 -1.34772 -1.00426 0
M  V30 10 C 2.37296 0.234396 -0.541366 0
M  V30 11 N 2.01854 1.46137 -0.970549 0
M  V30 12 N 2.74853 2.39858 -0.359478 0
M  V30 13 C 3.58832 1.77265 0.477785 0
M  V30 14 N 3.36433 0.450619 0.371937 0
M  V30 15 N 4.01794 -0.551073 1.06667 0
M  V30 16 H -5.22067 0.969187 -0.914433 0
M  V30 17 H -4.28517 2.36439 -0.334782 0
M  V30 18 H -3.69773 -0.76176 -1.98072 0
M  V30 19 H -1.66801 -2.21031 -1.7629 0
M  V30 20 H -0.336807 0.286101 1.41461 0
M  V30 21 H -2.3248 1.6642 1.16549 0
M  V30 22 H 0.115106 -2.9427 -0.331849 0
M  V30 23 H 0.631074 -2.00827 1.08434 0
M  V30 24 H 4.30482 2.29393 1.10844 0
M  V30 25 H 4.95115 -0.891698 0.750288 0
M  V30 26 H 3.63633 -1.0165 1.92227 0
M  V30 END ATOM
M  V30 BEGIN BOND
M  V30 1 1 1 2
M  V30 2 2 2 3
M  V30 3 1 3 4
M  V30 4 2 4 5
M  V30 5 1 5 6
M  V30 6 2 6 7
M  V30 7 1 5 8
M  V30 8 1 8 9
M  V30 9 1 9 10
M  V30 10 2 10 11
M  V30 11 1 11 12
M  V30 12 2 12 13
M  V30 13 1 13 14
M  V30 14 1 14 15
M  V30 15 1 7 2
M  V30 16 1 14 10
M  V30 17 1 1 16
M  V30 18 1 1 17
M  V30 19 1 3 18
M  V30 20 1 4 19
M  V30 21 1 6 20
M  V30 22 1 7 21
M  V30 23 1 8 22
M  V30 24 1 8 23
M  V30 25 1 13 24
M  V30 26 1 15 25
M  V30 27 1 15 26
M  V30 END BOND
M  V30 END CTAB
M  END
