
     RDKit          3D

  0  0  0  0  0  0  0  0  0  0999 V3000
M  V30 BEGIN CTAB
M  V30 COUNTS 48 50 0 0 0
M  V30 BEGIN ATOM
M  V30 1 N -1.75091 -1.90495 -3.47626 0
M  V30 2 C -2.1756 -1.5135 -2.15034 0
M  V30 3 C -1.28495 -0.473655 -1.54808 0
M  V30 4 O -0.331234 -0.104762 -2.31081 0
M  V30 5 N -1.48894 0.0375522 -0.266695 0
M  V30 6 C -2.60638 -0.428122 0.523999 0
M  V30 7 C -3.60322 0.72914 0.561306 0
M  V30 8 C -2.94709 2.00874 0.0894033 0
M  V30 9 C -1.57672 2.20718 0.677195 0
M  V30 10 C -0.62241 1.0568 0.341133 0
M  V30 11 C -0.0640844 0.569275 1.61641 0
M  V30 12 N -0.714989 0.841589 2.78635 0
M  V30 13 C -0.338133 0.387059 3.98289 0
M  V30 14 N -1.05445 0.693486 5.18353 0
M  V30 15 N 0.76003 -0.39709 4.05567 0
M  V30 16 C 1.4499 -0.705943 2.9545 0
M  V30 17 C 1.04016 -0.217154 1.70016 0
M  V30 18 C 1.84651 -0.500632 0.525467 0
M  V30 19 C 1.97809 -1.81811 0.143422 0
M  V30 20 C 2.75493 -2.20813 -0.93535 0
M  V30 21 C 3.39652 -1.20266 -1.61423 0
M  V30 22 C 3.29228 0.124721 -1.26646 0
M  V30 23 C 2.50774 0.471465 -0.184477 0
M  V30 24 O 3.96631 1.13206 -1.9894 0
M  V30 25 C 4.75133 0.714532 -3.08397 0
M  V30 26 H -2.55004 -2.28311 -4.03239 0
M  V30 27 H -1.33071 -1.10429 -3.99546 0
M  V30 28 H -3.2062 -1.04369 -2.19574 0
M  V30 29 H -2.20094 -2.36418 -1.44704 0
M  V30 30 H -2.36177 -0.695044 1.55389 0
M  V30 31 H -3.11979 -1.28096 0.0130515 0
M  V30 32 H -3.97908 0.824519 1.59832 0
M  V30 33 H -4.4933 0.494642 -0.0776681 0
M  V30 34 H -3.5679 2.84593 0.472845 0
M  V30 35 H -2.97941 2.03012 -0.99792 0
M  V30 36 H -1.69221 2.34361 1.76499 0
M  V30 37 H -1.15734 3.13529 0.238708 0
M  V30 38 H 0.10923 1.4152 -0.356807 0
M  V30 39 H -1.7344 0.0264685 5.60342 0
M  V30 40 H -0.906428 1.59886 5.66257 0
M  V30 41 H 2.34606 -1.33484 2.94466 0
M  V30 42 H 1.47553 -2.62134 0.673954 0
M  V30 43 H 2.84211 -3.25743 -1.21992 0
M  V30 44 H 4.00819 -1.51198 -2.46357 0
M  V30 45 H 2.42757 1.51921 0.0987967 0
M  V30 46 H 5.07007 1.56489 -3.72278 0
M  V30 47 H 4.18271 0.029096 -3.77141 0
M  V30 48 H 5.63337 0.170132 -2.65986 0
M  V30 END ATOM
M  V30 BEGIN BOND
M  V30 1 1 1 2
M  V30 2 1 2 3
M  V30 3 2 3 4
M  V30 4 1 3 5
M  V30 5 1 5 6
M  V30 6 1 6 7
M  V30 7 1 7 8
M  V30 8 1 8 9
M  V30 9 1 9 10
M  V30 10 1 10 11
M  V30 11 2 11 12
M  V30 12 1 12 13
M  V30 13 1 13 14
M  V30 14 2 13 15
M  V30 15 1 15 16
M  V30 16 2 16 17
M  V30 17 1 17 18
M  V30 18 2 18 19
M  V30 19 1 19 20
M  V30 20 2 20 21
M  V30 21 1 21 22
M  V30 22 2 22 23
M  V30 23 1 22 24
M  V30 24 1 24 25
M  V30 25 1 10 5
M  V30 26 1 17 11
M  V30 27 1 23 18
M  V30 28 1 1 26
M  V30 29 1 1 27
M  V30 30 1 2 28
M  V30 31 1 2 29
M  V30 32 1 6 30
M  V30 33 1 6 31
M  V30 34 1 7 32
M  V30 35 1 7 33
M  V30 36 1 8 34
M  V30 37 1 8 35
M  V30 38 1 9 36
M  V30 39 1 9 37
M  V30 40 1 10 38
M  V30 41 1 14 39
M  V30 42 1 14 40
M  V30 43 1 16 41
M  V30 44 1 19 42
M  V30 45 1 20 43
M  V30 46 1 21 44
M  V30 47 1 23 45
M  V30 48 1 25 46
M  V30 49 1 25 47
M  V30 50 1 25 48
M  V30 END BOND
M  V30 END CTAB
M  END
