
     RDKit          3D

  0  0  0  0  0  0  0  0  0  0999 V3000
M  V30 BEGIN CTAB
M  V30 COUNTS 47 48 0 0 0
M  V30 BEGIN ATOM
M  V30 1 C -3.27607 -0.819053 2.60755 0
M  V30 2 C -3.04486 -1.89104 1.56714 0
M  V30 3 C -1.63436 -1.84302 1.02436 0
M  V30 4 N -1.31425 -0.583988 0.393627 0
M  V30 5 C -2.04984 -0.061997 -0.743715 0
M  V30 6 C -2.70789 1.21983 -0.514602 0
M  V30 7 C -2.44249 2.24355 -1.54634 0
M  V30 8 S -1.98843 1.25626 -2.95281 0
M  V30 9 O -3.19427 0.755762 -3.66958 0
M  V30 10 O -1.01121 1.93561 -3.84078 0
M  V30 11 C -1.21468 -0.0534018 -1.99461 0
M  V30 12 C -0.237816 0.191453 0.888741 0
M  V30 13 O 0.0927201 1.29901 0.385919 0
M  V30 14 C 0.527608 -0.330206 2.04883 0
M  V30 15 S 1.85397 0.785503 2.53886 0
M  V30 16 C 3.06485 0.840726 1.22478 0
M  V30 17 N 2.92003 0.129091 0.0922345 0
M  V30 18 C 3.82163 0.161901 -0.900965 0
M  V30 19 N 3.61074 -0.611034 -2.06853 0
M  V30 20 C 4.9493 0.941349 -0.792491 0
M  V30 21 C 5.10348 1.67799 0.374879 0
M  V30 22 N 4.1685 1.6148 1.35149 0
M  V30 23 N 6.23583 2.50065 0.557101 0
M  V30 24 C -1.4455 -3.00826 0.046763 0
M  V30 25 H -2.58145 0.0164909 2.3906 0
M  V30 26 H -4.2998 -0.389837 2.54227 0
M  V30 27 H -3.16944 -1.2055 3.63856 0
M  V30 28 H -3.80591 -1.81709 0.776678 0
M  V30 29 H -3.17449 -2.86518 2.06336 0
M  V30 30 H -0.96223 -2.07356 1.87539 0
M  V30 31 H -2.85036 -0.837259 -0.957284 0
M  V30 32 H -2.43853 1.68393 0.483009 0
M  V30 33 H -3.83247 1.11474 -0.432796 0
M  V30 34 H -3.34674 2.83619 -1.80284 0
M  V30 35 H -1.58806 2.93151 -1.31835 0
M  V30 36 H -0.167654 0.272787 -1.83571 0
M  V30 37 H -1.21681 -1.00525 -2.52269 0
M  V30 38 H 0.944809 -1.35294 1.81575 0
M  V30 39 H -0.117474 -0.490671 2.94548 0
M  V30 40 H 4.38277 -0.957736 -2.65535 0
M  V30 41 H 2.63272 -0.84558 -2.35629 0
M  V30 42 H 5.7073 1.00229 -1.56642 0
M  V30 43 H 6.14533 3.52273 0.72183 0
M  V30 44 H 7.18564 2.08844 0.528302 0
M  V30 45 H -2.29843 -3.08969 -0.653218 0
M  V30 46 H -1.46975 -3.93071 0.67487 0
M  V30 47 H -0.465959 -2.9596 -0.433033 0
M  V30 END ATOM
M  V30 BEGIN BOND
M  V30 1 1 1 2
M  V30 2 1 2 3
M  V30 3 1 3 4
M  V30 4 1 4 5
M  V30 5 1 5 6
M  V30 6 1 6 7
M  V30 7 1 7 8
M  V30 8 2 8 9
M  V30 9 2 8 10
M  V30 10 1 8 11
M  V30 11 1 4 12
M  V30 12 2 12 13
M  V30 13 1 12 14
M  V30 14 1 14 15
M  V30 15 1 15 16
M  V30 16 2 16 17
M  V30 17 1 17 18
M  V30 18 1 18 19
M  V30 19 2 18 20
M  V30 20 1 20 21
M  V30 21 2 21 22
M  V30 22 1 21 23
M  V30 23 1 3 24
M  V30 24 1 11 5
M  V30 25 1 22 16
M  V30 26 1 1 25
M  V30 27 1 1 26
M  V30 28 1 1 27
M  V30 29 1 2 28
M  V30 30 1 2 29
M  V30 31 1 3 30
M  V30 32 1 5 31
M  V30 33 1 6 32
M  V30 34 1 6 33
M  V30 35 1 7 34
M  V30 36 1 7 35
M  V30 37 1 11 36
M  V30 38 1 11 37
M  V30 39 1 14 38
M  V30 40 1 14 39
M  V30 41 1 19 40
M  V30 42 1 19 41
M  V30 43 1 20 42
M  V30 44 1 23 43
M  V30 45 1 23 44
M  V30 46 1 24 45
M  V30 47 1 24 46
M  V30 48 1 24 47
M  V30 END BOND
M  V30 END CTAB
M  END
