
     RDKit          3D

  0  0  0  0  0  0  0  0  0  0999 V3000
M  V30 BEGIN CTAB
M  V30 COUNTS 43 45 0 0 0
M  V30 BEGIN ATOM
M  V30 1 O -5.95912 -2.19987 1.55455 0
M  V30 2 C -5.19478 -1.35391 1.01051 0
M  V30 3 C -3.85321 -1.20267 1.50712 0
M  V30 4 N -2.89028 -0.570995 0.54448 0
M  V30 5 C -1.56287 -0.819424 0.872595 0
M  V30 6 C -0.354623 -0.24359 0.433202 0
M  V30 7 O -0.0600984 0.931132 0.774572 0
M  V30 8 C 0.683251 -0.901927 -0.44433 0
M  V30 9 C 2.03345 -0.492492 -0.0728127 0
M  V30 10 C 2.879 0.185291 -0.964892 0
M  V30 11 C 4.14503 0.597451 -0.624713 0
M  V30 12 C 4.65582 0.360611 0.637339 0
M  V30 13 C 3.84126 -0.296283 1.50639 0
M  V30 14 C 2.56632 -0.727003 1.20362 0
M  V30 15 S 6.28407 0.888323 1.0475 0
M  V30 16 O 6.89062 0.0223558 2.11385 0
M  V30 17 O 7.16002 0.889363 -0.179351 0
M  V30 18 N 6.25814 2.51114 1.63664 0
M  V30 19 N 0.504351 -2.32022 -0.25735 0
M  V30 20 C -3.47579 0.130704 -0.521049 0
M  V30 21 C -4.84475 0.111164 -0.815451 0
M  V30 22 O -5.74455 -0.64486 -0.0356094 0
M  V30 23 C -5.39285 0.802892 -1.85564 0
M  V30 24 C -4.57857 1.56702 -2.67666 0
M  V30 25 C -3.23835 1.58422 -2.39095 0
M  V30 26 C -2.64686 0.893317 -1.34151 0
M  V30 27 Cl -2.1631 2.5392 -3.41033 0
M  V30 28 H -3.90641 -0.526543 2.41508 0
M  V30 29 H -3.38912 -2.13493 1.87467 0
M  V30 30 H -1.37779 -1.99315 0.764481 0
M  V30 31 H -1.53514 -0.79642 2.0438 0
M  V30 32 H 0.490104 -0.65411 -1.51343 0
M  V30 33 H 2.47454 0.370469 -1.96545 0
M  V30 34 H 4.79386 1.12412 -1.34312 0
M  V30 35 H 4.25598 -0.484482 2.51888 0
M  V30 36 H 2.00982 -1.23366 1.95949 0
M  V30 37 H 5.46845 2.64395 2.30987 0
M  V30 38 H 6.23637 3.17859 0.831888 0
M  V30 39 H 0.649446 -2.89794 -1.10234 0
M  V30 40 H 1.0042 -2.65647 0.590849 0
M  V30 41 H -6.47062 0.755065 -2.0356 0
M  V30 42 H -5.04705 2.1027 -3.48224 0
M  V30 43 H -1.59816 0.961876 -1.22572 0
M  V30 END ATOM
M  V30 BEGIN BOND
M  V30 1 2 1 2
M  V30 2 1 2 3
M  V30 3 1 3 4
M  V30 4 1 4 5
M  V30 5 1 5 6
M  V30 6 2 6 7
M  V30 7 1 6 8
M  V30 8 1 8 9
M  V30 9 2 9 10
M  V30 10 1 10 11
M  V30 11 2 11 12
M  V30 12 1 12 13
M  V30 13 2 13 14
M  V30 14 1 12 15
M  V30 15 2 15 16
M  V30 16 2 15 17
M  V30 17 1 15 18
M  V30 18 1 8 19
M  V30 19 1 4 20
M  V30 20 2 20 21
M  V30 21 1 21 22
M  V30 22 1 21 23
M  V30 23 2 23 24
M  V30 24 1 24 25
M  V30 25 2 25 26
M  V30 26 1 25 27
M  V30 27 1 22 2
M  V30 28 1 14 9
M  V30 29 1 26 20
M  V30 30 1 3 28
M  V30 31 1 3 29
M  V30 32 1 5 30
M  V30 33 1 5 31
M  V30 34 1 8 32
M  V30 35 1 10 33
M  V30 36 1 11 34
M  V30 37 1 13 35
M  V30 38 1 14 36
M  V30 39 1 18 37
M  V30 40 1 18 38
M  V30 41 1 19 39
M  V30 42 1 19 40
M  V30 43 1 23 41
M  V30 44 1 24 42
M  V30 45 1 26 43
M  V30 END BOND
M  V30 END CTAB
M  END
