
     RDKit          3D

  0  0  0  0  0  0  0  0  0  0999 V3000
M  V30 BEGIN CTAB
M  V30 COUNTS 99 104 0 0 0
M  V30 BEGIN ATOM
M  V30 1 N -0.895634 3.02413 2.01599 0
M  V30 2 C -2.00344 2.80842 1.74213 0
M  V30 3 C -3.38286 2.52091 1.39432 0
M  V30 4 C -4.30594 3.25102 1.96655 0
M  V30 5 N -3.94015 4.27172 2.87691 0
M  V30 6 O -5.61567 3.02017 1.68503 0
M  V30 7 C -5.9974 2.01678 0.789261 0
M  V30 8 C -5.08993 1.28974 0.19616 0
M  V30 9 C -3.60042 1.45381 0.388687 0
M  V30 10 C -2.85514 0.21456 0.578632 0
M  V30 11 C -3.03223 -0.501197 1.75056 0
M  V30 12 C -3.94039 -0.138288 2.84853 0
M  V30 13 C -2.28262 -1.66676 1.91233 0
M  V30 14 C -1.39055 -2.13414 0.981728 0
M  V30 15 C -1.20946 -1.42075 -0.186804 0
M  V30 16 C -1.95686 -0.243385 -0.362583 0
M  V30 17 C -1.64261 0.540618 -1.59941 0
M  V30 18 C -0.346649 -1.91197 -1.23119 0
M  V30 19 C 1.0738 -1.94896 -1.28414 0
M  V30 20 C 1.56327 -2.79285 -2.32266 0
M  V30 21 C 0.585347 -3.49532 -3.24116 0
M  V30 22 C 2.88937 -2.97053 -2.49272 0
M  V30 23 C 3.86337 -2.36529 -1.69495 0
M  V30 24 C 3.41181 -1.54747 -0.687995 0
M  V30 25 C 2.01292 -1.34965 -0.498476 0
M  V30 26 C 1.60014 -0.455081 0.595068 0
M  V30 27 C 4.38456 -0.953192 0.251085 0
M  V30 28 C 5.291 -1.95443 0.884831 0
M  V30 29 C 6.56372 -1.76558 0.994256 0
M  V30 30 N 7.30649 -2.83545 1.64432 0
M  V30 31 O 7.24924 -0.649842 0.54131 0
M  V30 32 C 6.46898 0.315499 -0.0780069 0
M  V30 33 C 5.16107 0.180834 -0.219625 0
M  V30 34 C 4.52291 1.27631 -0.962238 0
M  V30 35 O 3.69012 1.02437 -1.83752 0
M  V30 36 C 4.86613 2.69986 -0.678152 0
M  V30 37 C 6.30308 2.78405 -0.185071 0
M  V30 38 C 7.08703 1.56795 -0.620406 0
M  V30 39 C 6.36765 2.89362 1.3196 0
M  V30 40 C 6.92334 3.99652 -0.843256 0
M  V30 41 C 4.69097 -3.19068 1.4301 0
M  V30 42 N 4.20112 -4.15101 1.8513 0
M  V30 43 C 5.28442 -2.61586 -1.97258 0
M  V30 44 C -0.658205 -3.42973 1.24216 0
M  V30 45 C -5.58155 0.233233 -0.675403 0
M  V30 46 O -5.03473 -0.213157 -1.67698 0
M  V30 47 C -6.92256 -0.394862 -0.314792 0
M  V30 48 C -7.94431 0.67079 -0.133095 0
M  V30 49 C -7.42983 1.85175 0.576218 0
M  V30 50 C -8.52742 1.13739 -1.46098 0
M  V30 51 C -9.09159 0.0611101 0.656461 0
M  V30 52 H -3.65941 3.98529 3.83828 0
M  V30 53 H -3.92927 5.29156 2.66046 0
M  V30 54 H -3.32276 1.97694 -0.581589 0
M  V30 55 H -5.01701 -0.150615 2.59278 0
M  V30 56 H -3.90008 -0.977723 3.63215 0
M  V30 57 H -3.61403 0.724806 3.46249 0
M  V30 58 H -2.40035 -2.26312 2.83951 0
M  V30 59 H -2.31996 0.265576 -2.41402 0
M  V30 60 H -0.602528 0.31794 -1.96322 0
M  V30 61 H -1.73554 1.63741 -1.4642 0
M  V30 62 H -0.691832 -3.04231 -1.33653 0
M  V30 63 H -0.819362 -1.54963 -2.22174 0
M  V30 64 H 1.1661 -3.93722 -4.06755 0
M  V30 65 H -0.147112 -2.78603 -3.67574 0
M  V30 66 H 0.0487121 -4.30152 -2.745 0
M  V30 67 H 3.25064 -3.61894 -3.28845 0
M  V30 68 H 0.788058 0.210547 0.211786 0
M  V30 69 H 1.38339 -0.953503 1.54688 0
M  V30 70 H 2.34744 0.359562 0.851396 0
M  V30 71 H 3.71588 -0.605752 1.14363 0
M  V30 72 H 7.94864 -2.6829 2.43626 0
M  V30 73 H 7.16284 -3.78291 1.27251 0
M  V30 74 H 4.21943 3.0604 0.137048 0
M  V30 75 H 4.66992 3.28151 -1.58234 0
M  V30 76 H 7.01366 1.48825 -1.72418 0
M  V30 77 H 8.12003 1.69537 -0.27523 0
M  V30 78 H 7.41304 2.99488 1.63051 0
M  V30 79 H 5.9108 1.97319 1.74927 0
M  V30 80 H 5.78876 3.76431 1.69132 0
M  V30 81 H 8.01103 3.81809 -0.967523 0
M  V30 82 H 6.41542 4.18131 -1.81232 0
M  V30 83 H 6.70033 4.88654 -0.21182 0
M  V30 84 H 5.72481 -3.48573 -1.43585 0
M  V30 85 H 5.9277 -1.74858 -2.08649 0
M  V30 86 H 5.30254 -3.03374 -3.0577 0
M  V30 87 H -1.44654 -4.21164 1.34571 0
M  V30 88 H 0.050443 -3.63121 0.442813 0
M  V30 89 H -0.201188 -3.31148 2.25019 0
M  V30 90 H -7.25748 -1.06463 -1.12953 0
M  V30 91 H -6.80164 -1.00905 0.578616 0
M  V30 92 H -7.88492 1.86715 1.63201 0
M  V30 93 H -7.86815 2.80227 0.143552 0
M  V30 94 H -8.78988 0.276589 -2.08551 0
M  V30 95 H -9.42154 1.75424 -1.1881 0
M  V30 96 H -7.80136 1.83549 -1.92294 0
M  V30 97 H -9.89867 0.794537 0.81576 0
M  V30 98 H -9.50225 -0.799806 0.0943939 0
M  V30 99 H -8.73044 -0.305463 1.63712 0
M  V30 END ATOM
M  V30 BEGIN BOND
M  V30 1 3 1 2
M  V30 2 1 2 3
M  V30 3 2 3 4
M  V30 4 1 4 5
M  V30 5 1 4 6
M  V30 6 1 6 7
M  V30 7 2 7 8
M  V30 8 1 8 9
M  V30 9 1 9 10
M  V30 10 2 10 11
M  V30 11 1 11 12
M  V30 12 1 11 13
M  V30 13 2 13 14
M  V30 14 1 14 15
M  V30 15 2 15 16
M  V30 16 1 16 17
M  V30 17 1 15 18
M  V30 18 1 18 19
M  V30 19 2 19 20
M  V30 20 1 20 21
M  V30 21 1 20 22
M  V30 22 2 22 23
M  V30 23 1 23 24
M  V30 24 2 24 25
M  V30 25 1 25 26
M  V30 26 1 24 27
M  V30 27 1 27 28
M  V30 28 2 28 29
M  V30 29 1 29 30
M  V30 30 1 29 31
M  V30 31 1 31 32
M  V30 32 2 32 33
M  V30 33 1 33 34
M  V30 34 2 34 35
M  V30 35 1 34 36
M  V30 36 1 36 37
M  V30 37 1 37 38
M  V30 38 1 37 39
M  V30 39 1 37 40
M  V30 40 1 28 41
M  V30 41 3 41 42
M  V30 42 1 23 43
M  V30 43 1 14 44
M  V30 44 1 8 45
M  V30 45 2 45 46
M  V30 46 1 45 47
M  V30 47 1 47 48
M  V30 48 1 48 49
M  V30 49 1 48 50
M  V30 50 1 48 51
M  V30 51 1 9 3
M  V30 52 1 16 10
M  V30 53 1 25 19
M  V30 54 1 33 27
M  V30 55 1 49 7
M  V30 56 1 38 32
M  V30 57 1 5 52
M  V30 58 1 5 53
M  V30 59 1 9 54
M  V30 60 1 12 55
M  V30 61 1 12 56
M  V30 62 1 12 57
M  V30 63 1 13 58
M  V30 64 1 17 59
M  V30 65 1 17 60
M  V30 66 1 17 61
M  V30 67 1 18 62
M  V30 68 1 18 63
M  V30 69 1 21 64
M  V30 70 1 21 65
M  V30 71 1 21 66
M  V30 72 1 22 67
M  V30 73 1 26 68
M  V30 74 1 26 69
M  V30 75 1 26 70
M  V30 76 1 27 71
M  V30 77 1 30 72
M  V30 78 1 30 73
M  V30 79 1 36 74
M  V30 80 1 36 75
M  V30 81 1 38 76
M  V30 82 1 38 77
M  V30 83 1 39 78
M  V30 84 1 39 79
M  V30 85 1 39 80
M  V30 86 1 40 81
M  V30 87 1 40 82
M  V30 88 1 40 83
M  V30 89 1 43 84
M  V30 90 1 43 85
M  V30 91 1 43 86
M  V30 92 1 44 87
M  V30 93 1 44 88
M  V30 94 1 44 89
M  V30 95 1 47 90
M  V30 96 1 47 91
M  V30 97 1 49 92
M  V30 98 1 49 93
M  V30 99 1 50 94
M  V30 100 1 50 95
M  V30 101 1 50 96
M  V30 102 1 51 97
M  V30 103 1 51 98
M  V30 104 1 51 99
M  V30 END BOND
M  V30 END CTAB
M  END
