
     RDKit          3D

  0  0  0  0  0  0  0  0  0  0999 V3000
M  V30 BEGIN CTAB
M  V30 COUNTS 26 27 0 0 0
M  V30 BEGIN ATOM
M  V30 1 N -3.11302 1.2287 2.20782 0
M  V30 2 C -2.75098 0.420251 1.07235 0
M  V30 3 N -3.70323 -0.244197 0.39238 0
M  V30 4 C -3.34878 -0.994799 -0.66552 0
M  V30 5 C -2.04192 -1.12699 -1.10396 0
M  V30 6 C -1.06812 -0.427982 -0.38296 0
M  V30 7 N -1.49881 0.294765 0.653797 0
M  V30 8 N 0.270649 -0.545758 -0.786271 0
M  V30 9 C 1.41925 0.0508708 -0.253554 0
M  V30 10 C 1.43582 1.09429 0.627769 0
M  V30 11 C 2.6423 1.62477 1.13309 0
M  V30 12 C 3.84962 1.11507 0.759986 0
M  V30 13 C 3.85793 0.0680256 -0.123924 0
M  V30 14 C 2.68193 -0.448543 -0.615722 0
M  V30 15 Cl 5.40812 -0.587181 -0.604003 0
M  V30 16 Cl 5.29911 1.83012 1.43294 0
M  V30 17 N -1.738 -1.93729 -2.23011 0
M  V30 18 H -2.88107 0.939925 3.16105 0
M  V30 19 H -3.62971 2.14345 2.0755 0
M  V30 20 H -4.09072 -1.54603 -1.23934 0
M  V30 21 H 0.420871 -1.19352 -1.63796 0
M  V30 22 H 0.521626 1.55449 0.958361 0
M  V30 23 H 2.60587 2.45476 1.83231 0
M  V30 24 H 2.70198 -1.26981 -1.30736 0
M  V30 25 H -2.14869 -1.7252 -3.16839 0
M  V30 26 H -1.102 -2.77219 -2.18828 0
M  V30 END ATOM
M  V30 BEGIN BOND
M  V30 1 1 1 2
M  V30 2 2 2 3
M  V30 3 1 3 4
M  V30 4 2 4 5
M  V30 5 1 5 6
M  V30 6 2 6 7
M  V30 7 1 6 8
M  V30 8 1 8 9
M  V30 9 2 9 10
M  V30 10 1 10 11
M  V30 11 2 11 12
M  V30 12 1 12 13
M  V30 13 2 13 14
M  V30 14 1 13 15
M  V30 15 1 12 16
M  V30 16 1 5 17
M  V30 17 1 7 2
M  V30 18 1 14 9
M  V30 19 1 1 18
M  V30 20 1 1 19
M  V30 21 1 4 20
M  V30 22 1 8 21
M  V30 23 1 10 22
M  V30 24 1 11 23
M  V30 25 1 14 24
M  V30 26 1 17 25
M  V30 27 1 17 26
M  V30 END BOND
M  V30 END CTAB
M  END
