
     RDKit          3D

  0  0  0  0  0  0  0  0  0  0999 V3000
M  V30 BEGIN CTAB
M  V30 COUNTS 31 31 0 0 0
M  V30 BEGIN ATOM
M  V30 1 N -0.661754 1.87868 1.01787 0
M  V30 2 C -0.446845 0.79951 0.0267979 0
M  V30 3 C -1.5098 -0.208631 0.209596 0
M  V30 4 S -3.11339 0.60299 -0.0196391 0
M  V30 5 O -3.26549 1.75579 0.906158 0
M  V30 6 O -3.16017 1.03808 -1.45702 0
M  V30 7 C -4.40025 -0.613123 0.218675 0
M  V30 8 C -1.49944 -1.30813 -0.8321 0
M  V30 9 C 0.939374 0.362035 0.0649649 0
M  V30 10 C 1.90859 1.35782 -0.0884172 0
M  V30 11 C 3.25911 1.08979 -0.0566313 0
M  V30 12 C 3.65244 -0.204117 0.132887 0
M  V30 13 C 2.71566 -1.19273 0.285214 0
M  V30 14 C 1.36289 -0.922171 0.253321 0
M  V30 15 N 5.03771 -0.49433 0.167516 0
M  V30 16 H 0.23543 2.3618 1.24365 0
M  V30 17 H -1.02802 1.38453 1.86746 0
M  V30 18 H -0.618325 1.31432 -0.958831 0
M  V30 19 H -1.51907 -0.596225 1.23326 0
M  V30 20 H -4.7967 -0.584703 1.26057 0
M  V30 21 H -3.94501 -1.61132 0.0372262 0
M  V30 22 H -5.18708 -0.442453 -0.530317 0
M  V30 23 H -1.51952 -2.2931 -0.300839 0
M  V30 24 H -2.39114 -1.31098 -1.48729 0
M  V30 25 H -0.627722 -1.21184 -1.51376 0
M  V30 26 H 1.62866 2.39131 -0.240632 0
M  V30 27 H 4.00271 1.87999 -0.178152 0
M  V30 28 H 3.0726 -2.20286 0.432838 0
M  V30 29 H 0.714485 -1.76508 0.392612 0
M  V30 30 H 5.41364 -1.3458 -0.329766 0
M  V30 31 H 5.74642 0.0909618 0.666386 0
M  V30 END ATOM
M  V30 BEGIN BOND
M  V30 1 1 1 2
M  V30 2 1 2 3
M  V30 3 1 3 4
M  V30 4 2 4 5
M  V30 5 2 4 6
M  V30 6 1 4 7
M  V30 7 1 3 8
M  V30 8 1 2 9
M  V30 9 2 9 10
M  V30 10 1 10 11
M  V30 11 2 11 12
M  V30 12 1 12 13
M  V30 13 2 13 14
M  V30 14 1 12 15
M  V30 15 1 14 9
M  V30 16 1 1 16
M  V30 17 1 1 17
M  V30 18 1 2 18
M  V30 19 1 3 19
M  V30 20 1 7 20
M  V30 21 1 7 21
M  V30 22 1 7 22
M  V30 23 1 8 23
M  V30 24 1 8 24
M  V30 25 1 8 25
M  V30 26 1 10 26
M  V30 27 1 11 27
M  V30 28 1 13 28
M  V30 29 1 14 29
M  V30 30 1 15 30
M  V30 31 1 15 31
M  V30 END BOND
M  V30 END CTAB
M  END
