
     RDKit          3D

  0  0  0  0  0  0  0  0  0  0999 V3000
M  V30 BEGIN CTAB
M  V30 COUNTS 38 38 0 0 0
M  V30 BEGIN ATOM
M  V30 1 N -3.74009 -1.90542 -0.598508 0
M  V30 2 C -2.5919 -1.03456 -0.86814 0 CFG=1
M  V30 3 C -3.08952 0.367984 -0.731612 0
M  V30 4 C -4.21283 0.513948 -1.7743 0
M  V30 5 C -3.72245 0.637893 0.612628 0
M  V30 6 C -2.08289 1.41928 -1.06552 0
M  V30 7 C -1.51917 -1.40906 0.0848709 0
M  V30 8 O -1.731 -2.20398 1.04212 0
M  V30 9 N -0.212447 -0.880484 -0.0554262 0
M  V30 10 C 0.80223 -1.26285 0.888743 0
M  V30 11 C 2.12371 -0.637946 0.627622 0
M  V30 12 C 2.53166 0.231786 -0.344846 0
M  V30 13 C 3.81349 0.627005 -0.320321 0
M  V30 14 C 4.60706 0.132198 0.66926 0
M  V30 15 S 3.54298 -0.874454 1.54303 0
M  V30 16 S 6.32358 0.458683 0.969349 0
M  V30 17 O 6.78449 1.49066 0.0130258 0
M  V30 18 O 7.12446 -0.800578 0.88641 0
M  V30 19 N 6.39079 1.15433 2.56433 0
M  V30 20 H -3.4649 -2.84292 -1.01919 0
M  V30 21 H -3.73941 -2.06609 0.434663 0
M  V30 22 H -2.26447 -1.20091 -1.90291 0
M  V30 23 H -3.7712 0.720199 -2.77832 0
M  V30 24 H -4.85815 1.38454 -1.54064 0
M  V30 25 H -4.76702 -0.425654 -1.84878 0
M  V30 26 H -2.97792 0.908676 1.36441 0
M  V30 27 H -4.39226 1.53895 0.494083 0
M  V30 28 H -4.39833 -0.186255 0.902462 0
M  V30 29 H -1.36544 1.64495 -0.253745 0
M  V30 30 H -2.6317 2.37173 -1.28191 0
M  V30 31 H -1.57249 1.16487 -2.00702 0
M  V30 32 H -0.0232242 -0.228723 -0.852962 0
M  V30 33 H 0.461748 -1.06777 1.91837 0
M  V30 34 H 0.934523 -2.36028 0.802494 0
M  V30 35 H 1.79631 0.575324 -1.11022 0
M  V30 36 H 4.22779 1.33356 -1.07507 0
M  V30 37 H 5.7225 0.599587 3.14633 0
M  V30 38 H 5.94149 2.11176 2.46526 0
M  V30 END ATOM
M  V30 BEGIN BOND
M  V30 1 1 1 2
M  V30 2 1 2 3
M  V30 3 1 3 4
M  V30 4 1 3 5
M  V30 5 1 3 6
M  V30 6 1 2 7
M  V30 7 2 7 8
M  V30 8 1 7 9
M  V30 9 1 9 10
M  V30 10 1 10 11
M  V30 11 2 11 12
M  V30 12 1 12 13
M  V30 13 2 13 14
M  V30 14 1 14 15
M  V30 15 1 14 16
M  V30 16 2 16 17
M  V30 17 2 16 18
M  V30 18 1 16 19
M  V30 19 1 15 11
M  V30 20 1 1 20
M  V30 21 1 1 21
M  V30 22 1 2 22 CFG=3
M  V30 23 1 4 23
M  V30 24 1 4 24
M  V30 25 1 4 25
M  V30 26 1 5 26
M  V30 27 1 5 27
M  V30 28 1 5 28
M  V30 29 1 6 29
M  V30 30 1 6 30
M  V30 31 1 6 31
M  V30 32 1 9 32
M  V30 33 1 10 33
M  V30 34 1 10 34
M  V30 35 1 12 35
M  V30 36 1 13 36
M  V30 37 1 19 37
M  V30 38 1 19 38
M  V30 END BOND
M  V30 END CTAB
M  END
