
     RDKit          3D

  0  0  0  0  0  0  0  0  0  0999 V3000
M  V30 BEGIN CTAB
M  V30 COUNTS 31 32 0 0 0
M  V30 BEGIN ATOM
M  V30 1 N 4.40997 -2.03977 -0.885351 0
M  V30 2 C 3.46756 -1.07143 -0.469895 0
M  V30 3 C 3.20609 0.0290077 -1.22434 0
M  V30 4 C 2.29173 0.97585 -0.828973 0
M  V30 5 C 1.59637 0.828997 0.378114 0
M  V30 6 C 1.85591 -0.270155 1.13423 0
M  V30 7 C 2.77653 -1.22014 0.732607 0
M  V30 8 S 0.448989 2.09035 0.812016 0
M  V30 9 O 1.00368 3.37568 0.26528 0
M  V30 10 O 0.418527 2.11229 2.31768 0
M  V30 11 N -1.09802 1.79931 0.144482 0
M  V30 12 C -1.91844 0.67965 0.423777 0
M  V30 13 C -2.93226 0.305642 -0.431343 0
M  V30 14 N -3.14161 1.05692 -1.61483 0
M  V30 15 C -3.76836 -0.764195 -0.211285 0
M  V30 16 C -3.59841 -1.51769 0.92393 0
M  V30 17 C -2.60074 -1.18032 1.80296 0
M  V30 18 C -1.77014 -0.0917225 1.55327 0
M  V30 19 H 4.37762 -2.98327 -0.463283 0
M  V30 20 H 5.12865 -1.82897 -1.5985 0
M  V30 21 H 3.74431 0.157345 -2.17401 0
M  V30 22 H 2.08529 1.85922 -1.43984 0
M  V30 23 H 1.31816 -0.389367 2.0759 0
M  V30 24 H 2.94078 -2.0638 1.36588 0
M  V30 25 H -1.46893 2.53381 -0.542942 0
M  V30 26 H -2.91331 0.669316 -2.55537 0
M  V30 27 H -3.53383 2.01934 -1.53133 0
M  V30 28 H -4.56655 -1.02664 -0.923472 0
M  V30 29 H -4.25732 -2.36135 1.09784 0
M  V30 30 H -2.48775 -1.79532 2.69628 0
M  V30 31 H -1.0145 0.111416 2.29473 0
M  V30 END ATOM
M  V30 BEGIN BOND
M  V30 1 1 1 2
M  V30 2 2 2 3
M  V30 3 1 3 4
M  V30 4 2 4 5
M  V30 5 1 5 6
M  V30 6 2 6 7
M  V30 7 1 5 8
M  V30 8 2 8 9
M  V30 9 2 8 10
M  V30 10 1 8 11
M  V30 11 1 11 12
M  V30 12 2 12 13
M  V30 13 1 13 14
M  V30 14 1 13 15
M  V30 15 2 15 16
M  V30 16 1 16 17
M  V30 17 2 17 18
M  V30 18 1 7 2
M  V30 19 1 18 12
M  V30 20 1 1 19
M  V30 21 1 1 20
M  V30 22 1 3 21
M  V30 23 1 4 22
M  V30 24 1 6 23
M  V30 25 1 7 24
M  V30 26 1 11 25
M  V30 27 1 14 26
M  V30 28 1 14 27
M  V30 29 1 15 28
M  V30 30 1 16 29
M  V30 31 1 17 30
M  V30 32 1 18 31
M  V30 END BOND
M  V30 END CTAB
M  END
