
     RDKit          3D

  0  0  0  0  0  0  0  0  0  0999 V3000
M  V30 BEGIN CTAB
M  V30 COUNTS 29 30 0 0 0
M  V30 BEGIN ATOM
M  V30 1 N 0.0158966 -1.70091 0.605589 0
M  V30 2 C -0.468494 -0.518457 -0.0126463 0
M  V30 3 N 0.346732 0.279957 -0.56529 0
M  V30 4 O 1.70753 0.0885684 -0.617009 0
M  V30 5 C 2.61371 0.748386 0.154588 0
M  V30 6 O 2.22438 1.59964 0.984879 0
M  V30 7 C 4.07634 0.532235 0.0883043 0
M  V30 8 C 4.76543 -0.331136 -0.722604 0
M  V30 9 C 6.09726 -0.354989 -0.605878 0
M  V30 10 C 6.66667 0.483176 0.3126 0
M  V30 11 S 5.31966 1.28058 0.986244 0
M  V30 12 C -1.8927 -0.209327 -0.0206943 0
M  V30 13 C -2.82914 -1.04439 0.567233 0
M  V30 14 C -4.17638 -0.752483 0.559922 0
M  V30 15 Cl -5.34416 -1.83013 1.31383 0
M  V30 16 C -4.62728 0.402599 -0.0466357 0
M  V30 17 C -3.71033 1.24627 -0.637179 0
M  V30 18 C -2.36472 0.941556 -0.622353 0
M  V30 19 Cl -4.26399 2.71262 -1.4094 0
M  V30 20 N -6.01326 0.694863 -0.0495657 0
M  V30 21 H 0.282954 -1.62569 1.61785 0
M  V30 22 H 0.0906423 -2.58076 0.0570476 0
M  V30 23 H 4.19011 -0.964657 -1.43219 0
M  V30 24 H 6.74828 -1.01728 -1.21495 0
M  V30 25 H 7.73733 0.601882 0.547602 0
M  V30 26 H -2.47888 -1.95053 1.04348 0
M  V30 27 H -1.63075 1.61276 -1.0927 0
M  V30 28 H -6.76573 -0.0305701 -0.09776 0
M  V30 29 H -6.31713 1.68621 -0.00132569 0
M  V30 END ATOM
M  V30 BEGIN BOND
M  V30 1 1 1 2
M  V30 2 2 2 3
M  V30 3 1 3 4
M  V30 4 1 4 5
M  V30 5 2 5 6
M  V30 6 1 5 7
M  V30 7 2 7 8
M  V30 8 1 8 9
M  V30 9 2 9 10
M  V30 10 1 10 11
M  V30 11 1 2 12
M  V30 12 2 12 13
M  V30 13 1 13 14
M  V30 14 1 14 15
M  V30 15 2 14 16
M  V30 16 1 16 17
M  V30 17 2 17 18
M  V30 18 1 17 19
M  V30 19 1 16 20
M  V30 20 1 11 7
M  V30 21 1 18 12
M  V30 22 1 1 21
M  V30 23 1 1 22
M  V30 24 1 8 23
M  V30 25 1 9 24
M  V30 26 1 10 25
M  V30 27 1 13 26
M  V30 28 1 18 27
M  V30 29 1 20 28
M  V30 30 1 20 29
M  V30 END BOND
M  V30 END CTAB
M  END
