
     RDKit          3D

  0  0  0  0  0  0  0  0  0  0999 V3000
M  V30 BEGIN CTAB
M  V30 COUNTS 52 54 0 0 0
M  V30 BEGIN ATOM
M  V30 1 C 6.36445 2.03947 0.800812 0
M  V30 2 C 5.77255 0.820135 1.44492 0
M  V30 3 C 4.40679 0.488775 1.01505 0
M  V30 4 C 3.29806 0.860427 1.79342 0
M  V30 5 C 2.00927 0.563031 1.38676 0
M  V30 6 C 1.80566 -0.099875 0.21584 0
M  V30 7 C 2.93522 -0.462382 -0.548564 0
M  V30 8 C 4.22585 -0.17835 -0.165517 0
M  V30 9 S 5.50554 -0.68842 -1.16059 0
M  V30 10 O 6.3936 0.32707 -1.75171 0
M  V30 11 O 6.36268 -1.70212 -0.416507 0
M  V30 12 N 4.86579 -1.58231 -2.532 0
M  V30 13 N 0.520162 -0.447209 -0.224229 0
M  V30 14 C -0.623132 -0.643609 0.571189 0
M  V30 15 O -0.589827 -0.531682 1.80562 0
M  V30 16 C -1.95304 -1.00159 -0.0732355 0
M  V30 17 C -2.92451 -1.31235 1.0131 0
M  V30 18 C -4.36291 -0.99177 0.679444 0
M  V30 19 C -4.71499 0.29708 1.37171 0
M  V30 20 C -5.24234 1.34752 0.436573 0
M  V30 21 C -4.43285 1.52632 -0.804439 0
M  V30 22 C -3.76467 0.267676 -1.2966 0
M  V30 23 C -2.35609 0.260631 -0.809161 0
M  V30 24 C -4.59808 -0.890752 -0.790779 0
M  V30 25 N -4.33996 -2.1188 -1.47913 0
M  V30 26 H 5.72937 2.48045 -0.00034295 0
M  V30 27 H 7.3949 1.81748 0.478191 0
M  V30 28 H 6.4812 2.8856 1.53651 0
M  V30 29 H 5.71077 1.05708 2.55136 0
M  V30 30 H 6.45808 -0.0544463 1.42502 0
M  V30 31 H 3.45222 1.38753 2.72529 0
M  V30 32 H 1.20672 0.896793 2.03506 0
M  V30 33 H 2.72078 -0.983866 -1.46373 0
M  V30 34 H 4.49442 -0.952085 -3.25714 0
M  V30 35 H 5.64686 -2.19842 -2.9076 0
M  V30 36 H 0.419114 -0.573154 -1.28101 0
M  V30 37 H -1.7201 -1.84336 -0.753566 0
M  V30 38 H -2.60666 -0.732655 1.92683 0
M  V30 39 H -2.82273 -2.38716 1.35242 0
M  V30 40 H -4.98672 -1.84454 1.04592 0
M  V30 41 H -3.86666 0.69857 1.97384 0
M  V30 42 H -5.51751 0.0674333 2.10442 0
M  V30 43 H -5.26042 2.31025 0.984528 0
M  V30 44 H -6.31139 1.10316 0.218482 0
M  V30 45 H -3.65775 2.31869 -0.714908 0
M  V30 46 H -5.12935 1.86695 -1.60314 0
M  V30 47 H -3.7398 0.301954 -2.40497 0
M  V30 48 H -2.16272 1.10102 -0.0959078 0
M  V30 49 H -1.60357 0.415268 -1.63127 0
M  V30 50 H -5.67282 -0.636719 -0.940224 0
M  V30 51 H -5.18019 -2.73305 -1.55544 0
M  V30 52 H -4.03928 -1.91568 -2.47783 0
M  V30 END ATOM
M  V30 BEGIN BOND
M  V30 1 1 1 2
M  V30 2 1 2 3
M  V30 3 2 3 4
M  V30 4 1 4 5
M  V30 5 2 5 6
M  V30 6 1 6 7
M  V30 7 2 7 8
M  V30 8 1 8 9
M  V30 9 2 9 10
M  V30 10 2 9 11
M  V30 11 1 9 12
M  V30 12 1 6 13
M  V30 13 1 13 14
M  V30 14 2 14 15
M  V30 15 1 14 16
M  V30 16 1 16 17
M  V30 17 1 17 18
M  V30 18 1 18 19
M  V30 19 1 19 20
M  V30 20 1 20 21
M  V30 21 1 21 22
M  V30 22 1 22 23
M  V30 23 1 22 24
M  V30 24 1 24 25
M  V30 25 1 8 3
M  V30 26 1 23 16
M  V30 27 1 24 18
M  V30 28 1 1 26
M  V30 29 1 1 27
M  V30 30 1 1 28
M  V30 31 1 2 29
M  V30 32 1 2 30
M  V30 33 1 4 31
M  V30 34 1 5 32
M  V30 35 1 7 33
M  V30 36 1 12 34
M  V30 37 1 12 35
M  V30 38 1 13 36
M  V30 39 1 16 37
M  V30 40 1 17 38
M  V30 41 1 17 39
M  V30 42 1 18 40
M  V30 43 1 19 41
M  V30 44 1 19 42
M  V30 45 1 20 43
M  V30 46 1 20 44
M  V30 47 1 21 45
M  V30 48 1 21 46
M  V30 49 1 22 47
M  V30 50 1 23 48
M  V30 51 1 23 49
M  V30 52 1 24 50
M  V30 53 1 25 51
M  V30 54 1 25 52
M  V30 END BOND
M  V30 END CTAB
M  END
