
     RDKit          3D

  0  0  0  0  0  0  0  0  0  0999 V3000
M  V30 BEGIN CTAB
M  V30 COUNTS 48 50 0 0 0
M  V30 BEGIN ATOM
M  V30 1 N -6.55328 -0.75131 -0.144082 0
M  V30 2 C -5.25033 -0.166597 -0.476148 0
M  V30 3 C -5.40855 1.32643 -0.660108 0
M  V30 4 C -5.91991 1.35907 -2.10179 0
M  V30 5 C -4.96699 0.39671 -2.78121 0
M  V30 6 C -4.78271 -0.709621 -1.78398 0
M  V30 7 C -4.28392 -0.414144 0.603214 0
M  V30 8 N -4.43211 -1.3734 1.59649 0
M  V30 9 O -3.46212 -1.27608 2.38174 0
M  V30 10 C -2.59992 -0.290104 2.02856 0
M  V30 11 N -3.12253 0.210427 0.945684 0
M  V30 12 C -1.40187 -0.0200855 2.86803 0
M  V30 13 S -0.00652172 -0.972388 2.40202 0
M  V30 14 C 0.921867 -0.274121 0.982283 0
M  V30 15 C 1.46783 1.02932 1.4643 0
M  V30 16 O 2.38761 1.71693 0.694955 0
M  V30 17 C 3.69479 1.28573 0.457535 0
M  V30 18 C 4.20987 0.106593 0.980612 0
M  V30 19 C 5.52252 -0.256673 0.715352 0
M  V30 20 C 6.34188 0.530978 -0.0718853 0
M  V30 21 C 5.84369 1.67519 -0.584801 0
M  V30 22 C 4.52831 2.0467 -0.31862 0
M  V30 23 S 7.99588 -0.00298322 -0.326298 0
M  V30 24 O 8.29801 -1.16255 0.619985 0
M  V30 25 O 8.99134 1.10421 -0.14584 0
M  V30 26 N 8.22091 -0.632842 -1.93994 0
M  V30 27 H -6.39117 -1.74972 0.150384 0
M  V30 28 H -7.05538 -0.190919 0.570382 0
M  V30 29 H -6.04082 1.80818 0.0563968 0
M  V30 30 H -4.40933 1.824 -0.69529 0
M  V30 31 H -6.95117 0.938389 -2.09777 0
M  V30 32 H -5.8432 2.36857 -2.51652 0
M  V30 33 H -4.01773 0.91957 -2.97312 0
M  V30 34 H -5.42556 -0.0110642 -3.71369 0
M  V30 35 H -5.32742 -1.64338 -2.10873 0
M  V30 36 H -3.68109 -0.95649 -1.79484 0
M  V30 37 H -1.14809 1.0784 2.71771 0
M  V30 38 H -1.66858 -0.08317 3.94687 0
M  V30 39 H 1.63212 -1.01418 0.656602 0
M  V30 40 H 0.153035 -0.0618364 0.193798 0
M  V30 41 H 0.572325 1.7326 1.55128 0
M  V30 42 H 1.80952 0.915692 2.5446 0
M  V30 43 H 3.59792 -0.508043 1.59804 0
M  V30 44 H 5.90403 -1.18476 1.13369 0
M  V30 45 H 6.49519 2.30761 -1.21028 0
M  V30 46 H 4.18684 2.99335 -0.772589 0
M  V30 47 H 9.09217 -1.17386 -2.01782 0
M  V30 48 H 8.28263 0.171452 -2.62517 0
M  V30 END ATOM
M  V30 BEGIN BOND
M  V30 1 1 1 2
M  V30 2 1 2 3
M  V30 3 1 3 4
M  V30 4 1 4 5
M  V30 5 1 5 6
M  V30 6 1 2 7
M  V30 7 2 7 8
M  V30 8 1 8 9
M  V30 9 1 9 10
M  V30 10 2 10 11
M  V30 11 1 10 12
M  V30 12 1 12 13
M  V30 13 1 13 14
M  V30 14 1 14 15
M  V30 15 1 15 16
M  V30 16 1 16 17
M  V30 17 2 17 18
M  V30 18 1 18 19
M  V30 19 2 19 20
M  V30 20 1 20 21
M  V30 21 2 21 22
M  V30 22 1 20 23
M  V30 23 2 23 24
M  V30 24 2 23 25
M  V30 25 1 23 26
M  V30 26 1 6 2
M  V30 27 1 11 7
M  V30 28 1 22 17
M  V30 29 1 1 27
M  V30 30 1 1 28
M  V30 31 1 3 29
M  V30 32 1 3 30
M  V30 33 1 4 31
M  V30 34 1 4 32
M  V30 35 1 5 33
M  V30 36 1 5 34
M  V30 37 1 6 35
M  V30 38 1 6 36
M  V30 39 1 12 37
M  V30 40 1 12 38
M  V30 41 1 14 39
M  V30 42 1 14 40
M  V30 43 1 15 41
M  V30 44 1 15 42
M  V30 45 1 18 43
M  V30 46 1 19 44
M  V30 47 1 21 45
M  V30 48 1 22 46
M  V30 49 1 26 47
M  V30 50 1 26 48
M  V30 END BOND
M  V30 END CTAB
M  END
