
     RDKit          3D

  0  0  0  0  0  0  0  0  0  0999 V3000
M  V30 BEGIN CTAB
M  V30 COUNTS 29 29 0 0 0
M  V30 BEGIN ATOM
M  V30 1 C -3.65819 -1.06335 -0.7821 0
M  V30 2 C -2.77382 0.0755822 -0.226656 0
M  V30 3 C -3.60595 0.619771 0.956378 0
M  V30 4 O -1.63265 -0.430665 0.305374 0
M  V30 5 C -0.321459 -0.337197 0.164218 0
M  V30 6 C 0.503493 -1.10508 0.996685 0
M  V30 7 C 1.86636 -1.07034 0.919519 0
M  V30 8 C 2.4943 -0.259914 -0.00135879 0
M  V30 9 C 1.7112 0.497142 -0.822943 0
M  V30 10 C 0.313493 0.464033 -0.746607 0
M  V30 11 N -0.356737 1.29567 -1.65451 0
M  V30 12 S 4.25322 -0.223509 -0.0916297 0
M  V30 13 N 4.84201 1.00046 0.968083 0
M  V30 14 O 4.73295 -1.55363 0.418592 0
M  V30 15 O 4.67729 0.00971536 -1.5005 0
M  V30 16 H -3.41297 -2.01606 -0.289501 0
M  V30 17 H -4.72992 -0.844178 -0.609092 0
M  V30 18 H -3.50821 -1.14005 -1.89208 0
M  V30 19 H -2.73576 0.799645 -1.03493 0
M  V30 20 H -4.64958 0.755857 0.668907 0
M  V30 21 H -3.11126 1.49761 1.38498 0
M  V30 22 H -3.56445 -0.189258 1.71743 0
M  V30 23 H 0.0198911 -1.74751 1.72628 0
M  V30 24 H 2.50132 -1.67669 1.57734 0
M  V30 25 H 2.22323 1.13431 -1.54746 0
M  V30 26 H -0.7415 2.21115 -1.3386 0
M  V30 27 H -0.483058 1.00999 -2.67113 0
M  V30 28 H 5.0798 0.604169 1.90578 0
M  V30 29 H 4.06695 1.6823 1.12973 0
M  V30 END ATOM
M  V30 BEGIN BOND
M  V30 1 1 1 2
M  V30 2 1 2 3
M  V30 3 1 2 4
M  V30 4 1 4 5
M  V30 5 2 5 6
M  V30 6 1 6 7
M  V30 7 2 7 8
M  V30 8 1 8 9
M  V30 9 2 9 10
M  V30 10 1 10 11
M  V30 11 1 8 12
M  V30 12 1 12 13
M  V30 13 2 12 14
M  V30 14 2 12 15
M  V30 15 1 10 5
M  V30 16 1 1 16
M  V30 17 1 1 17
M  V30 18 1 1 18
M  V30 19 1 2 19
M  V30 20 1 3 20
M  V30 21 1 3 21
M  V30 22 1 3 22
M  V30 23 1 6 23
M  V30 24 1 7 24
M  V30 25 1 9 25
M  V30 26 1 11 26
M  V30 27 1 11 27
M  V30 28 1 13 28
M  V30 29 1 13 29
M  V30 END BOND
M  V30 END CTAB
M  END
