
     RDKit          3D

  0  0  0  0  0  0  0  0  0  0999 V3000
M  V30 BEGIN CTAB
M  V30 COUNTS 26 27 0 0 0
M  V30 BEGIN ATOM
M  V30 1 C -3.87994 1.4883 0.428411 0
M  V30 2 C -2.59711 0.814817 0.106932 0
M  V30 3 C -1.3786 1.4595 0.181874 0
M  V30 4 C -0.202696 0.787332 -0.129084 0
M  V30 5 C -0.242435 -0.528343 -0.514905 0
M  V30 6 C -1.43886 -1.19561 -0.598633 0
M  V30 7 C -2.61423 -0.510554 -0.283915 0
M  V30 8 N -1.47159 -2.55615 -0.99833 0
M  V30 9 S 1.25012 -1.44652 -0.928991 0
M  V30 10 C 2.66287 -0.341053 -0.735869 0
M  V30 11 N 3.18083 0.455976 -1.68277 0
M  V30 12 N 4.20739 1.11588 -1.17041 0
M  V30 13 C 4.3637 0.752214 0.113195 0
M  V30 14 N 3.40257 -0.148945 0.369388 0
M  V30 15 N 3.21514 -0.78083 1.60418 0
M  V30 16 H -4.44717 1.57525 -0.524235 0
M  V30 17 H -4.52063 0.848515 1.10172 0
M  V30 18 H -3.74185 2.43827 0.95502 0
M  V30 19 H -1.37753 2.48498 0.485409 0
M  V30 20 H 0.743294 1.29784 -0.0679521 0
M  V30 21 H -3.55024 -1.07587 -0.362266 0
M  V30 22 H -0.745715 -2.93143 -1.6363 0
M  V30 23 H -2.23856 -3.15528 -0.633917 0
M  V30 24 H 5.13934 1.13906 0.790453 0
M  V30 25 H 2.91352 -0.193063 2.40919 0
M  V30 26 H 3.36839 -1.79426 1.72179 0
M  V30 END ATOM
M  V30 BEGIN BOND
M  V30 1 1 1 2
M  V30 2 2 2 3
M  V30 3 1 3 4
M  V30 4 2 4 5
M  V30 5 1 5 6
M  V30 6 2 6 7
M  V30 7 1 6 8
M  V30 8 1 5 9
M  V30 9 1 9 10
M  V30 10 2 10 11
M  V30 11 1 11 12
M  V30 12 2 12 13
M  V30 13 1 13 14
M  V30 14 1 14 15
M  V30 15 1 7 2
M  V30 16 1 14 10
M  V30 17 1 1 16
M  V30 18 1 1 17
M  V30 19 1 1 18
M  V30 20 1 3 19
M  V30 21 1 4 20
M  V30 22 1 7 21
M  V30 23 1 8 22
M  V30 24 1 8 23
M  V30 25 1 13 24
M  V30 26 1 15 25
M  V30 27 1 15 26
M  V30 END BOND
M  V30 END CTAB
M  END
