
     RDKit          3D

  0  0  0  0  0  0  0  0  0  0999 V3000
M  V30 BEGIN CTAB
M  V30 COUNTS 54 57 0 0 0
M  V30 BEGIN ATOM
M  V30 1 C 2.7976 -3.78041 -1.40816 0
M  V30 2 C 2.72698 -2.37298 -0.761527 0
M  V30 3 C 3.96748 -1.67448 -0.878405 0
M  V30 4 C 4.14105 -0.519819 -1.56474 0
M  V30 5 C 5.38024 0.0626014 -1.68432 0
M  V30 6 C 6.48273 -0.524954 -1.10647 0
M  V30 7 C 6.37299 -1.73357 -0.376765 0
M  V30 8 C 5.10985 -2.24536 -0.299112 0
M  V30 9 N 7.74505 -0.0119587 -1.16541 0
M  V30 10 C 7.87433 1.17092 -1.85519 0
M  V30 11 N 6.82766 1.76079 -2.4213 0
M  V30 12 C 5.59603 1.23546 -2.34924 0
M  V30 13 N 4.5432 1.95375 -2.93931 0
M  V30 14 C 1.65857 -1.91833 -0.317236 0
M  V30 15 F 0.48475 -2.65394 -0.395277 0
M  V30 16 C 1.60099 -0.61718 0.48458 0
M  V30 17 O 2.70189 -0.105078 0.703677 0
M  V30 18 N 0.352333 -0.256843 0.808994 0
M  V30 19 C -0.895936 0.147366 1.15956 0
M  V30 20 C -1.42474 1.39623 1.08864 0
M  V30 21 C -2.75158 1.69442 1.34029 0
M  V30 22 C -3.5951 0.632094 1.69005 0
M  V30 23 C -3.0894 -0.610948 1.77241 0
M  V30 24 C -1.77766 -0.925587 1.53006 0
M  V30 25 C -5.01225 0.929292 1.89376 0
M  V30 26 C -5.86832 0.882612 0.844209 0
M  V30 27 C -7.23204 1.1543 1.1165 0
M  V30 28 C -7.68275 1.45471 2.35051 0
M  V30 29 C -6.77085 1.50592 3.44495 0
M  V30 30 C -5.46191 1.23407 3.15411 0
M  V30 31 S -5.342 0.574517 -0.774798 0
M  V30 32 N -4.35109 1.86181 -1.35278 0
M  V30 33 O -6.59073 0.548988 -1.65026 0
M  V30 34 O -4.62784 -0.755284 -0.899859 0
M  V30 35 H 1.86796 -4.30559 -1.0879 0
M  V30 36 H 3.68361 -4.30349 -1.01814 0
M  V30 37 H 2.88863 -3.64339 -2.49357 0
M  V30 38 H 3.32336 -0.0161214 -2.0519 0
M  V30 39 H 7.23926 -2.20345 0.066197 0
M  V30 40 H 4.99564 -3.16443 0.267931 0
M  V30 41 H 8.88808 1.58471 -1.89993 0
M  V30 42 H 4.63577 2.99127 -3.05749 0
M  V30 43 H 3.67983 1.50332 -3.2621 0
M  V30 44 H 0.898182 0.795111 1.53912 0
M  V30 45 H -0.722682 2.18723 0.802022 0
M  V30 46 H -3.13765 2.68429 1.2961 0
M  V30 47 H -3.7939 -1.41609 2.0774 0
M  V30 48 H -1.36293 -1.91105 1.59653 0
M  V30 49 H -7.97598 1.12726 0.293946 0
M  V30 50 H -8.69767 1.67688 2.581 0
M  V30 51 H -7.13953 1.7378 4.43103 0
M  V30 52 H -4.70361 1.25762 3.95365 0
M  V30 53 H -4.90605 2.4725 -2.01773 0
M  V30 54 H -3.54989 1.45249 -1.90485 0
M  V30 END ATOM
M  V30 BEGIN BOND
M  V30 1 1 1 2
M  V30 2 1 2 3
M  V30 3 2 3 4
M  V30 4 1 4 5
M  V30 5 2 5 6
M  V30 6 1 6 7
M  V30 7 2 7 8
M  V30 8 1 6 9
M  V30 9 2 9 10
M  V30 10 1 10 11
M  V30 11 2 11 12
M  V30 12 1 12 13
M  V30 13 2 2 14
M  V30 14 1 14 15
M  V30 15 1 14 16
M  V30 16 2 16 17
M  V30 17 1 16 18
M  V30 18 1 18 19
M  V30 19 2 19 20
M  V30 20 1 20 21
M  V30 21 2 21 22
M  V30 22 1 22 23
M  V30 23 2 23 24
M  V30 24 1 22 25
M  V30 25 2 25 26
M  V30 26 1 26 27
M  V30 27 2 27 28
M  V30 28 1 28 29
M  V30 29 2 29 30
M  V30 30 1 26 31
M  V30 31 1 31 32
M  V30 32 2 31 33
M  V30 33 2 31 34
M  V30 34 1 8 3
M  V30 35 1 24 19
M  V30 36 1 30 25
M  V30 37 1 12 5
M  V30 38 1 1 35
M  V30 39 1 1 36
M  V30 40 1 1 37
M  V30 41 1 4 38
M  V30 42 1 7 39
M  V30 43 1 8 40
M  V30 44 1 10 41
M  V30 45 1 13 42
M  V30 46 1 13 43
M  V30 47 1 18 44
M  V30 48 1 20 45
M  V30 49 1 21 46
M  V30 50 1 23 47
M  V30 51 1 24 48
M  V30 52 1 27 49
M  V30 53 1 28 50
M  V30 54 1 29 51
M  V30 55 1 30 52
M  V30 56 1 32 53
M  V30 57 1 32 54
M  V30 END BOND
M  V30 END CTAB
M  END
