
     RDKit          3D

  0  0  0  0  0  0  0  0  0  0999 V3000
M  V30 BEGIN CTAB
M  V30 COUNTS 81 85 0 0 0
M  V30 BEGIN ATOM
M  V30 1 N 7.02777 -2.72916 -3.24444 0
M  V30 2 C 6.45319 -1.62835 -3.918 0
M  V30 3 N 6.41396 -1.55842 -5.18929 0
M  V30 4 N 5.90345 -0.594025 -3.11509 0
M  V30 5 C 5.85703 -0.699074 -1.66034 0
M  V30 6 C 5.11159 0.493746 -1.0825 0
M  V30 7 C 5.0417 0.36692 0.386167 0
M  V30 8 O 5.75834 -0.482275 0.965326 0
M  V30 9 N 4.19254 1.17059 1.17143 0
M  V30 10 C 4.07231 1.10867 2.61644 0
M  V30 11 C 2.77146 1.83131 3.02318 0
M  V30 12 N 1.74545 1.24437 2.09408 0
M  V30 13 C 1.89829 1.70218 0.735927 0
M  V30 14 C 3.34972 2.12595 0.492668 0
M  V30 15 C 0.814211 0.357749 2.54663 0
M  V30 16 O 0.785325 0.0167325 3.8036 0
M  V30 17 C -0.226255 -0.317589 1.716 0 CFG=2
M  V30 18 C -1.59984 0.303448 2.04581 0
M  V30 19 C -1.62146 1.75608 1.79364 0
M  V30 20 C -1.85889 2.3463 0.606128 0
M  V30 21 C -1.86974 3.73593 0.445369 0
M  V30 22 C -1.6374 4.55756 1.49708 0
M  V30 23 C -1.38339 3.96764 2.75957 0
M  V30 24 C -1.37723 2.59483 2.89655 0
M  V30 25 C -1.13626 4.88872 3.85692 0
M  V30 26 N -1.17112 6.30015 3.71643 0
M  V30 27 N -0.884892 4.40301 5.01601 0
M  V30 28 N -0.144212 -1.69479 2.18863 0
M  V30 29 S -0.159752 -2.91889 1.03446 0
M  V30 30 O 0.30307 -4.21367 1.6126 0
M  V30 31 O 0.852616 -2.61788 -0.0878044 0
M  V30 32 C -1.68589 -3.01518 0.204441 0
M  V30 33 C -2.07071 -2.2904 -0.857622 0
M  V30 34 C -3.33228 -2.48686 -1.45183 0
M  V30 35 C -4.1664 -3.44075 -0.918775 0
M  V30 36 C -3.79629 -4.211 0.188673 0
M  V30 37 C -2.56629 -3.98143 0.722804 0
M  V30 38 C -5.41505 -3.67153 -1.45347 0
M  V30 39 C -5.84824 -2.92745 -2.55647 0
M  V30 40 C -7.09086 -3.16063 -3.1121 0
M  V30 41 C -7.53194 -2.44807 -4.21227 0
M  V30 42 C -6.70219 -1.49327 -4.75216 0
M  V30 43 C -5.46446 -1.25578 -4.20403 0
M  V30 44 C -5.01129 -1.96468 -3.10023 0
M  V30 45 C -3.74808 -1.74358 -2.54375 0
M  V30 46 H 6.60018 -3.66339 -3.37868 0
M  V30 47 H 7.87095 -2.61163 -2.61932 0
M  V30 48 H 5.96749 -0.695525 -5.61982 0
M  V30 49 H 5.51454 0.266018 -3.52235 0
M  V30 50 H 5.26024 -1.58039 -1.37145 0
M  V30 51 H 6.85699 -0.748195 -1.2379 0
M  V30 52 H 5.65413 1.41427 -1.40903 0
M  V30 53 H 4.09551 0.546642 -1.56824 0
M  V30 54 H 4.93056 1.585 3.08221 0
M  V30 55 H 4.01815 0.0690897 2.92411 0
M  V30 56 H 2.52641 1.52548 4.01761 0
M  V30 57 H 2.89427 2.87622 2.80517 0
M  V30 58 H 1.28865 2.63647 0.558992 0
M  V30 59 H 1.58985 0.943551 -0.00954178 0
M  V30 60 H 3.5028 2.18884 -0.590034 0
M  V30 61 H 3.48542 3.15445 0.912357 0
M  V30 62 H -0.0997858 -0.215335 0.680052 0
M  V30 63 H -2.32984 -0.125821 1.2885 0
M  V30 64 H -1.87027 0.0961413 3.08803 0
M  V30 65 H -2.05225 1.75907 -0.271138 0
M  V30 66 H -2.05761 4.19325 -0.528001 0
M  V30 67 H -1.62586 5.65243 1.42855 0
M  V30 68 H -1.18554 2.14768 3.85265 0
M  V30 69 H -1.85128 6.78792 3.08042 0
M  V30 70 H -0.534408 6.94034 4.23641 0
M  V30 71 H -0.826065 3.44289 5.31464 0
M  V30 72 H -0.871551 -1.84644 2.95709 0
M  V30 73 H -1.45937 -1.51018 -1.32075 0
M  V30 74 H -4.47193 -4.95678 0.578251 0
M  V30 75 H -2.28564 -4.58837 1.59816 0
M  V30 76 H -6.09901 -4.41213 -1.06972 0
M  V30 77 H -7.76687 -3.90285 -2.70667 0
M  V30 78 H -8.51806 -2.65796 -4.62554 0
M  V30 79 H -7.04842 -0.935405 -5.62795 0
M  V30 80 H -4.8307 -0.509962 -4.62998 0
M  V30 81 H -3.12328 -0.992577 -2.97348 0
M  V30 END ATOM
M  V30 BEGIN BOND
M  V30 1 1 1 2
M  V30 2 2 2 3 CFG=2
M  V30 3 1 2 4
M  V30 4 1 4 5
M  V30 5 1 5 6
M  V30 6 1 6 7
M  V30 7 2 7 8
M  V30 8 1 7 9
M  V30 9 1 9 10
M  V30 10 1 10 11
M  V30 11 1 11 12
M  V30 12 1 12 13
M  V30 13 1 13 14
M  V30 14 1 12 15
M  V30 15 2 15 16
M  V30 16 1 15 17
M  V30 17 1 17 18
M  V30 18 1 18 19
M  V30 19 2 19 20
M  V30 20 1 20 21
M  V30 21 2 21 22
M  V30 22 1 22 23
M  V30 23 2 23 24
M  V30 24 1 23 25
M  V30 25 1 25 26
M  V30 26 2 25 27 CFG=2
M  V30 27 1 17 28
M  V30 28 1 28 29
M  V30 29 2 29 30
M  V30 30 2 29 31
M  V30 31 1 29 32
M  V30 32 2 32 33
M  V30 33 1 33 34
M  V30 34 2 34 35
M  V30 35 1 35 36
M  V30 36 2 36 37
M  V30 37 1 35 38
M  V30 38 2 38 39
M  V30 39 1 39 40
M  V30 40 2 40 41
M  V30 41 1 41 42
M  V30 42 2 42 43
M  V30 43 1 43 44
M  V30 44 2 44 45
M  V30 45 1 14 9
M  V30 46 1 24 19
M  V30 47 1 37 32
M  V30 48 1 44 39
M  V30 49 1 45 34
M  V30 50 1 1 46
M  V30 51 1 1 47
M  V30 52 1 3 48
M  V30 53 1 4 49
M  V30 54 1 5 50
M  V30 55 1 5 51
M  V30 56 1 6 52
M  V30 57 1 6 53
M  V30 58 1 10 54
M  V30 59 1 10 55
M  V30 60 1 11 56
M  V30 61 1 11 57
M  V30 62 1 13 58
M  V30 63 1 13 59
M  V30 64 1 14 60
M  V30 65 1 14 61
M  V30 66 1 17 62 CFG=3
M  V30 67 1 18 63
M  V30 68 1 18 64
M  V30 69 1 20 65
M  V30 70 1 21 66
M  V30 71 1 22 67
M  V30 72 1 24 68
M  V30 73 1 26 69
M  V30 74 1 26 70
M  V30 75 1 27 71
M  V30 76 1 28 72
M  V30 77 1 33 73
M  V30 78 1 36 74
M  V30 79 1 37 75
M  V30 80 1 38 76
M  V30 81 1 40 77
M  V30 82 1 41 78
M  V30 83 1 42 79
M  V30 84 1 43 80
M  V30 85 1 45 81
M  V30 END BOND
M  V30 END CTAB
M  END
