
     RDKit          3D

  0  0  0  0  0  0  0  0  0  0999 V3000
M  V30 BEGIN CTAB
M  V30 COUNTS 19 19 0 0 0
M  V30 BEGIN ATOM
M  V30 1 N 2.36154 -1.52422 -0.657487 0
M  V30 2 S 2.0277 -0.461948 0.693483 0
M  V30 3 O 1.71247 -1.25017 1.88118 0
M  V30 4 O 3.33884 0.307446 0.870633 0
M  V30 5 C 0.817211 0.680433 0.179473 0
M  V30 6 C -0.536178 0.695729 0.156889 0
M  V30 7 C -1.14262 1.80195 -0.356322 0
M  V30 8 Cl -2.92342 1.99691 -0.474016 0
M  V30 9 C -0.341132 2.8082 -0.806698 0
M  V30 10 Cl -0.821898 4.36211 -1.52273 0
M  V30 11 S 1.21998 2.21427 -0.516554 0
M  V30 12 S -1.47052 -0.691278 0.791564 0
M  V30 13 N -1.61899 -1.89993 -0.432986 0
M  V30 14 O -0.991421 -1.16923 2.08854 0
M  V30 15 O -2.92755 -0.258292 1.02518 0
M  V30 16 H 3.01871 -1.05882 -1.3377 0
M  V30 17 H 2.6812 -2.44956 -0.339725 0
M  V30 18 H -2.2036 -2.65333 -0.0435368 0
M  V30 19 H -2.20033 -1.45026 -1.1992 0
M  V30 END ATOM
M  V30 BEGIN BOND
M  V30 1 1 1 2
M  V30 2 2 2 3
M  V30 3 2 2 4
M  V30 4 1 2 5
M  V30 5 2 5 6
M  V30 6 1 6 7
M  V30 7 1 7 8
M  V30 8 2 7 9
M  V30 9 1 9 10
M  V30 10 1 9 11
M  V30 11 1 6 12
M  V30 12 1 12 13
M  V30 13 2 12 14
M  V30 14 2 12 15
M  V30 15 1 11 5
M  V30 16 1 1 16
M  V30 17 1 1 17
M  V30 18 1 13 18
M  V30 19 1 13 19
M  V30 END BOND
M  V30 END CTAB
M  END
