
     RDKit          3D

  0  0  0  0  0  0  0  0  0  0999 V3000
M  V30 BEGIN CTAB
M  V30 COUNTS 55 56 0 0 0
M  V30 BEGIN ATOM
M  V30 1 C -3.4438 2.40218 2.06226 0
M  V30 2 C -3.82752 1.62734 0.785407 0
M  V30 3 C -3.68003 0.177319 1.13595 0
M  V30 4 C -4.07109 -0.689292 -0.0505298 0
M  V30 5 C -3.22955 -0.408736 -1.19492 0
M  V30 6 O -3.53217 0.646151 -1.87293 0
M  V30 7 N -2.12244 -1.13278 -1.66881 0
M  V30 8 C -1.42395 -0.668719 -2.87017 0
M  V30 9 C 0.0224381 -0.500956 -2.46057 0
M  V30 10 C 0.62757 -1.77572 -1.95889 0
M  V30 11 C -0.341178 -2.8222 -1.56741 0
M  V30 12 C -1.64459 -2.30315 -1.01375 0
M  V30 13 C 1.53643 -1.37083 -0.797973 0
M  V30 14 O 1.29372 -1.85477 0.329746 0
M  V30 15 N 2.56866 -0.488541 -1.09525 0
M  V30 16 C 3.51847 0.0145863 -0.183663 0
M  V30 17 C 3.58932 -0.232625 1.15445 0
M  V30 18 C 4.59438 0.331602 1.96219 0
M  V30 19 C 5.55772 1.16107 1.44829 0
M  V30 20 C 5.50022 1.42064 0.099607 0
M  V30 21 C 4.52344 0.871834 -0.683563 0
M  V30 22 S 6.78529 1.84305 2.46598 0
M  V30 23 O 8.06468 2.11379 1.73485 0
M  V30 24 O 7.08048 0.940931 3.63794 0
M  V30 25 N 6.25084 3.37709 3.11031 0
M  V30 26 N -4.02414 -2.05055 0.452713 0
M  V30 27 C -5.53999 -0.383096 -0.298872 0
M  V30 28 H -3.22776 3.46027 1.80829 0
M  V30 29 H -2.57556 1.86517 2.48322 0
M  V30 30 H -4.31728 2.29531 2.74858 0
M  V30 31 H -4.85046 1.90692 0.481233 0
M  V30 32 H -3.04817 1.95418 0.0408283 0
M  V30 33 H -4.27336 -0.0919601 2.03858 0
M  V30 34 H -2.58789 -0.0519497 1.30431 0
M  V30 35 H -1.51748 -1.37513 -3.70336 0
M  V30 36 H -1.79782 0.33652 -3.15219 0
M  V30 37 H 0.574152 -0.147226 -3.35474 0
M  V30 38 H 0.0837055 0.318737 -1.7162 0
M  V30 39 H 1.32254 -2.17643 -2.71952 0
M  V30 40 H 0.12329 -3.41767 -0.733824 0
M  V30 41 H -0.54364 -3.56116 -2.37126 0
M  V30 42 H -1.54027 -2.10796 0.0713116 0
M  V30 43 H -2.3819 -3.11715 -1.14333 0
M  V30 44 H 2.61977 -0.17856 -2.12943 0
M  V30 45 H 2.85769 -0.873983 1.60578 0
M  V30 46 H 4.59443 0.0946645 3.01979 0
M  V30 47 H 6.27462 2.0823 -0.290575 0
M  V30 48 H 4.51362 1.10046 -1.73645 0
M  V30 49 H 6.30333 4.04365 2.30616 0
M  V30 50 H 5.21824 3.23472 3.30643 0
M  V30 51 H -4.17494 -2.1142 1.46754 0
M  V30 52 H -4.52975 -2.72639 -0.128492 0
M  V30 53 H -6.04396 -1.23951 -0.780656 0
M  V30 54 H -6.01812 -0.285654 0.716906 0
M  V30 55 H -5.69022 0.526422 -0.881532 0
M  V30 END ATOM
M  V30 BEGIN BOND
M  V30 1 1 1 2
M  V30 2 1 2 3
M  V30 3 1 3 4
M  V30 4 1 4 5
M  V30 5 2 5 6
M  V30 6 1 5 7
M  V30 7 1 7 8
M  V30 8 1 8 9
M  V30 9 1 9 10
M  V30 10 1 10 11
M  V30 11 1 11 12
M  V30 12 1 10 13
M  V30 13 2 13 14
M  V30 14 1 13 15
M  V30 15 1 15 16
M  V30 16 2 16 17
M  V30 17 1 17 18
M  V30 18 2 18 19
M  V30 19 1 19 20
M  V30 20 2 20 21
M  V30 21 1 19 22
M  V30 22 2 22 23
M  V30 23 2 22 24
M  V30 24 1 22 25
M  V30 25 1 4 26
M  V30 26 1 4 27
M  V30 27 1 12 7
M  V30 28 1 21 16
M  V30 29 1 1 28
M  V30 30 1 1 29
M  V30 31 1 1 30
M  V30 32 1 2 31
M  V30 33 1 2 32
M  V30 34 1 3 33
M  V30 35 1 3 34
M  V30 36 1 8 35
M  V30 37 1 8 36
M  V30 38 1 9 37
M  V30 39 1 9 38
M  V30 40 1 10 39
M  V30 41 1 11 40
M  V30 42 1 11 41
M  V30 43 1 12 42
M  V30 44 1 12 43
M  V30 45 1 15 44
M  V30 46 1 17 45
M  V30 47 1 18 46
M  V30 48 1 20 47
M  V30 49 1 21 48
M  V30 50 1 25 49
M  V30 51 1 25 50
M  V30 52 1 26 51
M  V30 53 1 26 52
M  V30 54 1 27 53
M  V30 55 1 27 54
M  V30 56 1 27 55
M  V30 END BOND
M  V30 END CTAB
M  END
