
     RDKit          3D

  0  0  0  0  0  0  0  0  0  0999 V3000
M  V30 BEGIN CTAB
M  V30 COUNTS 19 19 0 0 0
M  V30 BEGIN ATOM
M  V30 1 N -3.06336 1.03405 0.149832 0
M  V30 2 C -1.88065 0.243601 0.219004 0
M  V30 3 C -1.93446 -1.06012 0.663358 0
M  V30 4 C -0.776378 -1.80164 0.720234 0
M  V30 5 C 0.454124 -1.28335 0.344353 0
M  V30 6 C 0.504583 0.0158731 -0.0979437 0
M  V30 7 C -0.666197 0.764473 -0.15509 0
M  V30 8 S 2.05297 0.695113 -0.579992 0
M  V30 9 O 1.85422 2.133 -1.00642 0
M  V30 10 O 2.609 -0.0277906 -1.7736 0
M  V30 11 N 3.18881 0.688145 0.695788 0
M  V30 12 Br 2.04259 -2.30477 0.423801 0
M  V30 13 H -3.09136 1.92706 -0.374174 0
M  V30 14 H -3.93911 0.721534 0.635042 0
M  V30 15 H -2.90137 -1.45569 0.954808 0
M  V30 16 H -0.811146 -2.82686 1.06841 0
M  V30 17 H -0.59609 1.7975 -0.511702 0
M  V30 18 H 4.12664 0.372186 0.437123 0
M  V30 19 H 2.8272 0.367692 1.60046 0
M  V30 END ATOM
M  V30 BEGIN BOND
M  V30 1 1 1 2
M  V30 2 2 2 3
M  V30 3 1 3 4
M  V30 4 2 4 5
M  V30 5 1 5 6
M  V30 6 2 6 7
M  V30 7 1 6 8
M  V30 8 2 8 9
M  V30 9 2 8 10
M  V30 10 1 8 11
M  V30 11 1 5 12
M  V30 12 1 7 2
M  V30 13 1 1 13
M  V30 14 1 1 14
M  V30 15 1 3 15
M  V30 16 1 4 16
M  V30 17 1 7 17
M  V30 18 1 11 18
M  V30 19 1 11 19
M  V30 END BOND
M  V30 END CTAB
M  END
