
     RDKit          3D

  0  0  0  0  0  0  0  0  0  0999 V3000
M  V30 BEGIN CTAB
M  V30 COUNTS 57 59 0 0 0
M  V30 BEGIN ATOM
M  V30 1 N 4.46744 3.3836 2.29726 0
M  V30 2 C 3.6561 2.43677 1.60985 0
M  V30 3 C 3.65284 2.33111 0.253853 0
M  V30 4 C 2.86062 1.40795 -0.403575 0
M  V30 5 C 2.01975 0.533516 0.293656 0
M  V30 6 C 2.04621 0.665518 1.66384 0
M  V30 7 C 2.829 1.57776 2.31691 0
M  V30 8 N 1.2924 -0.466458 -0.400543 0
M  V30 9 C -0.0252808 -0.850734 -0.459367 0
M  V30 10 S -0.172265 -2.27725 -1.44571 0
M  V30 11 N -1.28097 -0.427641 0.0104634 0
M  V30 12 C -2.44412 -1.34648 -0.18492 0
M  V30 13 C -2.85995 -1.43598 -1.59748 0
M  V30 14 C -2.06781 -2.77059 0.289766 0
M  V30 15 C -3.57921 -1.0247 0.787643 0
M  V30 16 C -4.15171 0.303588 0.454033 0
M  V30 17 C -3.10858 1.26315 0.0398425 0
M  V30 18 C -1.67796 0.870538 0.501948 0
M  V30 19 C -0.875991 2.03003 -0.122589 0
M  V30 20 C -1.66077 1.04908 1.97368 0
M  V30 21 N -5.02087 0.753615 1.50883 0
M  V30 22 C 2.27496 -1.1441 -1.30823 0
M  V30 23 C 3.46227 -1.57156 -0.79607 0
M  V30 24 C 4.40703 -2.13178 -1.61156 0
M  V30 25 C 4.13544 -2.25523 -2.95953 0
M  V30 26 C 2.94262 -1.82948 -3.50045 0
M  V30 27 C 2.00558 -1.26358 -2.63859 0
M  V30 28 H 5.16421 3.06931 3.02038 0
M  V30 29 H 4.39244 4.41176 2.10231 0
M  V30 30 H 4.28765 2.98765 -0.324633 0
M  V30 31 H 2.92232 1.39452 -1.48141 0
M  V30 32 H 1.41419 0.0113175 2.23701 0
M  V30 33 H 2.85445 1.68717 3.40055 0
M  V30 34 H -2.2832 -0.804272 -2.30672 0
M  V30 35 H -3.93256 -1.13204 -1.77477 0
M  V30 36 H -2.81169 -2.48164 -2.02466 0
M  V30 37 H -2.17588 -3.51898 -0.489663 0
M  V30 38 H -2.85662 -3.08895 1.05729 0
M  V30 39 H -1.14795 -2.76212 0.88363 0
M  V30 40 H -4.32284 -1.86292 0.599222 0
M  V30 41 H -3.18921 -1.09807 1.80571 0
M  V30 42 H -4.81241 0.13074 -0.452483 0
M  V30 43 H -3.10368 1.48789 -1.0488 0
M  V30 44 H -3.29235 2.23511 0.551782 0
M  V30 45 H -0.44506 1.67935 -1.05157 0
M  V30 46 H -0.222555 2.52505 0.60288 0
M  V30 47 H -1.65489 2.79369 -0.44974 0
M  V30 48 H -1.27812 0.153143 2.52369 0
M  V30 49 H -2.6472 1.27492 2.36233 0
M  V30 50 H -0.984645 1.87033 2.29511 0
M  V30 51 H -4.78424 0.19752 2.38013 0
M  V30 52 H -6.01088 0.54494 1.26504 0
M  V30 53 H 3.66176 -1.4706 0.250137 0
M  V30 54 H 5.37707 -2.48714 -1.22608 0
M  V30 55 H 4.90233 -2.70722 -3.60241 0
M  V30 56 H 2.74469 -1.93298 -4.55855 0
M  V30 57 H 1.10812 -0.918146 -3.1187 0
M  V30 END ATOM
M  V30 BEGIN BOND
M  V30 1 1 1 2
M  V30 2 2 2 3
M  V30 3 1 3 4
M  V30 4 2 4 5
M  V30 5 1 5 6
M  V30 6 2 6 7
M  V30 7 1 5 8
M  V30 8 1 8 9
M  V30 9 2 9 10
M  V30 10 1 9 11
M  V30 11 1 11 12
M  V30 12 1 12 13
M  V30 13 1 12 14
M  V30 14 1 12 15
M  V30 15 1 15 16
M  V30 16 1 16 17
M  V30 17 1 17 18
M  V30 18 1 18 19
M  V30 19 1 18 20
M  V30 20 1 16 21
M  V30 21 1 8 22
M  V30 22 2 22 23
M  V30 23 1 23 24
M  V30 24 2 24 25
M  V30 25 1 25 26
M  V30 26 2 26 27
M  V30 27 1 7 2
M  V30 28 1 18 11
M  V30 29 1 27 22
M  V30 30 1 1 28
M  V30 31 1 1 29
M  V30 32 1 3 30
M  V30 33 1 4 31
M  V30 34 1 6 32
M  V30 35 1 7 33
M  V30 36 1 13 34
M  V30 37 1 13 35
M  V30 38 1 13 36
M  V30 39 1 14 37
M  V30 40 1 14 38
M  V30 41 1 14 39
M  V30 42 1 15 40
M  V30 43 1 15 41
M  V30 44 1 16 42
M  V30 45 1 17 43
M  V30 46 1 17 44
M  V30 47 1 19 45
M  V30 48 1 19 46
M  V30 49 1 19 47
M  V30 50 1 20 48
M  V30 51 1 20 49
M  V30 52 1 20 50
M  V30 53 1 21 51
M  V30 54 1 21 52
M  V30 55 1 23 53
M  V30 56 1 24 54
M  V30 57 1 25 55
M  V30 58 1 26 56
M  V30 59 1 27 57
M  V30 END BOND
M  V30 END CTAB
M  END
