
     RDKit          3D

  0  0  0  0  0  0  0  0  0  0999 V3000
M  V30 BEGIN CTAB
M  V30 COUNTS 22 22 0 0 0
M  V30 BEGIN ATOM
M  V30 1 N 4.08101 0.0545592 0.638432 0
M  V30 2 C 2.75027 -0.230874 1.04762 0
M  V30 3 C 1.80203 0.122173 -0.0561475 0
M  V30 4 O 2.34593 0.585049 -1.09158 0
M  V30 5 N 0.420467 -0.0680752 0.102671 0
M  V30 6 N -0.52842 0.237697 -0.882691 0
M  V30 7 C -0.348784 0.742652 -2.10763 0
M  V30 8 N -1.57102 0.867142 -2.70129 0
M  V30 9 N -2.46859 0.444569 -1.84828 0
M  V30 10 C -1.8789 0.0526307 -0.729592 0
M  V30 11 C -2.50529 -0.494788 0.49896 0
M  V30 12 N -3.93372 -0.565251 0.346784 0
M  V30 13 H 4.79204 -0.63347 0.915289 0
M  V30 14 H 4.30816 1.03921 0.814783 0
M  V30 15 H 2.65787 -1.34684 1.16527 0
M  V30 16 H 2.50405 0.2978 1.98296 0
M  V30 17 H 0.097005 -0.465866 1.02569 0
M  V30 18 H 0.595664 1.01812 -2.58093 0
M  V30 19 H -2.10639 -1.4637 0.804234 0
M  V30 20 H -2.27115 0.224287 1.3174 0
M  V30 21 H -4.37043 -0.986533 1.17251 0
M  V30 22 H -4.37182 0.350421 0.165531 0
M  V30 END ATOM
M  V30 BEGIN BOND
M  V30 1 1 1 2
M  V30 2 1 2 3
M  V30 3 2 3 4
M  V30 4 1 3 5
M  V30 5 1 5 6
M  V30 6 1 6 7
M  V30 7 2 7 8
M  V30 8 1 8 9
M  V30 9 2 9 10
M  V30 10 1 10 11
M  V30 11 1 11 12
M  V30 12 1 10 6
M  V30 13 1 1 13
M  V30 14 1 1 14
M  V30 15 1 2 15
M  V30 16 1 2 16
M  V30 17 1 5 17
M  V30 18 1 7 18
M  V30 19 1 11 19
M  V30 20 1 11 20
M  V30 21 1 12 21
M  V30 22 1 12 22
M  V30 END BOND
M  V30 END CTAB
M  END
