
     RDKit          3D

  0  0  0  0  0  0  0  0  0  0999 V3000
M  V30 BEGIN CTAB
M  V30 COUNTS 28 29 0 0 0
M  V30 BEGIN ATOM
M  V30 1 N 0.682886 0.111742 -1.87821 0
M  V30 2 C 0.653287 -0.0922484 -0.387872 0
M  V30 3 C -0.694431 0.171787 0.0872587 0
M  V30 4 C -1.62713 -0.874503 0.0195774 0
M  V30 5 C -1.17696 -2.20036 -0.472311 0
M  V30 6 C -2.93324 -0.71661 0.410149 0
M  V30 7 C -3.37887 0.493118 0.887731 0
M  V30 8 N -2.4944 1.49471 0.951348 0
M  V30 9 C -1.17889 1.3484 0.562812 0
M  V30 10 N -0.452459 2.54701 0.66807 0
M  V30 11 C 1.78825 0.691402 0.192303 0
M  V30 12 C 3.16238 0.261313 -0.375092 0
M  V30 13 C 2.81438 -0.190788 0.998946 0
M  V30 14 H -0.272882 0.041151 -2.23792 0
M  V30 15 H 1.28379 -0.60492 -2.311 0
M  V30 16 H 0.884746 -1.1686 -0.265141 0
M  V30 17 H -0.451477 -2.66429 0.232958 0
M  V30 18 H -2.03652 -2.90686 -0.541839 0
M  V30 19 H -0.770158 -2.12304 -1.48798 0
M  V30 20 H -3.65821 -1.5405 0.356374 0
M  V30 21 H -4.42582 0.629581 1.19734 0
M  V30 22 H -0.329131 2.99346 1.59646 0
M  V30 23 H -0.0451163 2.97366 -0.185812 0
M  V30 24 H 1.7328 1.67959 0.63839 0
M  V30 25 H 3.19187 -0.406595 -1.23989 0
M  V30 26 H 3.94505 1.05829 -0.393631 0
M  V30 27 H 2.51484 -1.26863 1.08489 0
M  V30 28 H 3.2714 0.262723 1.89209 0
M  V30 END ATOM
M  V30 BEGIN BOND
M  V30 1 1 1 2
M  V30 2 1 2 3
M  V30 3 2 3 4
M  V30 4 1 4 5
M  V30 5 1 4 6
M  V30 6 2 6 7
M  V30 7 1 7 8
M  V30 8 2 8 9
M  V30 9 1 9 10
M  V30 10 1 2 11
M  V30 11 1 11 12
M  V30 12 1 12 13
M  V30 13 1 9 3
M  V30 14 1 13 11
M  V30 15 1 1 14
M  V30 16 1 1 15
M  V30 17 1 2 16
M  V30 18 1 5 17
M  V30 19 1 5 18
M  V30 20 1 5 19
M  V30 21 1 6 20
M  V30 22 1 7 21
M  V30 23 1 10 22
M  V30 24 1 10 23
M  V30 25 1 11 24
M  V30 26 1 12 25
M  V30 27 1 12 26
M  V30 28 1 13 27
M  V30 29 1 13 28
M  V30 END BOND
M  V30 END CTAB
M  END
