
     RDKit          3D

  0  0  0  0  0  0  0  0  0  0999 V3000
M  V30 BEGIN CTAB
M  V30 COUNTS 43 43 0 0 0
M  V30 BEGIN ATOM
M  V30 1 C -4.70514 0.251692 0.532324 0
M  V30 2 C -4.10159 0.894117 -0.672566 0
M  V30 3 C -3.00382 0.0702462 -1.29635 0
M  V30 4 C -1.857 -0.189653 -0.359441 0
M  V30 5 C -0.84022 -1.02243 -1.12186 0
M  V30 6 N 0.322915 -1.31175 -0.238768 0
M  V30 7 C 1.37471 -0.414952 -0.242074 0
M  V30 8 O 1.17131 0.597836 -1.06258 0
M  V30 9 C 2.62288 -0.356256 0.450031 0
M  V30 10 C 3.05793 -1.28868 1.3513 0
M  V30 11 C 4.29601 -1.18983 2.00971 0
M  V30 12 F 4.70234 -2.12829 2.89814 0
M  V30 13 C 5.09799 -0.109914 1.73255 0
M  V30 14 C 4.71383 0.863435 0.832863 0
M  V30 15 C 3.48955 0.707584 0.222017 0
M  V30 16 N 3.11827 1.71756 -0.695505 0
M  V30 17 N 5.55346 1.98443 0.549404 0 CHG=1
M  V30 18 O 6.335 2.3392 1.45352 0
M  V30 19 O 5.54916 2.66953 -0.620508 0 CHG=-1
M  V30 20 C 0.224914 -2.50659 0.530557 0
M  V30 21 N -3.56292 -1.1965 -1.71826 0
M  V30 22 C -3.6561 2.2826 -0.318901 0
M  V30 23 H -5.52816 0.911196 0.886419 0
M  V30 24 H -5.19722 -0.729015 0.303235 0
M  V30 25 H -3.99738 0.161865 1.38164 0
M  V30 26 H -4.90161 0.991164 -1.43897 0
M  V30 27 H -2.59261 0.611762 -2.17298 0
M  V30 28 H -2.18669 -0.764203 0.536937 0
M  V30 29 H -1.33981 0.732456 -0.0525554 0
M  V30 30 H -0.507011 -0.471493 -2.02388 0
M  V30 31 H -1.31451 -1.95584 -1.45714 0
M  V30 32 H 2.50137 -2.14095 1.61478 0
M  V30 33 H 6.05618 0.00113508 2.21823 0
M  V30 34 H 2.60575 2.57886 -0.470073 0
M  V30 35 H 3.40577 1.54957 -1.70437 0
M  V30 36 H -0.76019 -3.04088 0.324949 0
M  V30 37 H 0.980916 -3.28575 0.308788 0
M  V30 38 H 0.203137 -2.36274 1.63125 0
M  V30 39 H -2.99874 -1.55246 -2.54356 0
M  V30 40 H -3.5348 -1.84838 -0.908563 0
M  V30 41 H -2.84572 2.30663 0.427992 0
M  V30 42 H -4.53009 2.79022 0.156492 0
M  V30 43 H -3.42204 2.85347 -1.23423 0
M  V30 END ATOM
M  V30 BEGIN BOND
M  V30 1 1 1 2
M  V30 2 1 2 3
M  V30 3 1 3 4
M  V30 4 1 4 5
M  V30 5 1 5 6
M  V30 6 1 6 7
M  V30 7 2 7 8
M  V30 8 1 7 9
M  V30 9 2 9 10
M  V30 10 1 10 11
M  V30 11 1 11 12
M  V30 12 2 11 13
M  V30 13 1 13 14
M  V30 14 2 14 15
M  V30 15 1 15 16
M  V30 16 1 14 17
M  V30 17 2 17 18
M  V30 18 1 17 19
M  V30 19 1 6 20
M  V30 20 1 3 21
M  V30 21 1 2 22
M  V30 22 1 15 9
M  V30 23 1 1 23
M  V30 24 1 1 24
M  V30 25 1 1 25
M  V30 26 1 2 26
M  V30 27 1 3 27
M  V30 28 1 4 28
M  V30 29 1 4 29
M  V30 30 1 5 30
M  V30 31 1 5 31
M  V30 32 1 10 32
M  V30 33 1 13 33
M  V30 34 1 16 34
M  V30 35 1 16 35
M  V30 36 1 20 36
M  V30 37 1 20 37
M  V30 38 1 20 38
M  V30 39 1 21 39
M  V30 40 1 21 40
M  V30 41 1 22 41
M  V30 42 1 22 42
M  V30 43 1 22 43
M  V30 END BOND
M  V30 END CTAB
M  END
