
     RDKit          3D

  0  0  0  0  0  0  0  0  0  0999 V3000
M  V30 BEGIN CTAB
M  V30 COUNTS 26 27 0 0 0
M  V30 BEGIN ATOM
M  V30 1 N -4.82617 1.25017 -0.632318 0
M  V30 2 C -3.65955 0.551199 -0.25548 0
M  V30 3 C -3.21084 0.565335 1.07591 0
M  V30 4 C -2.07754 -0.140687 1.38005 0
M  V30 5 C -1.31102 -0.891255 0.454296 0
M  V30 6 C -1.76833 -0.883365 -0.830908 0
M  V30 7 C -2.92285 -0.169159 -1.16393 0
M  V30 8 Cl -0.90938 -1.75155 -2.10768 0
M  V30 9 S 0.0954678 -1.67961 1.05868 0
M  V30 10 C 1.66925 -1.4268 0.327824 0
M  V30 11 N 2.3529 -2.27333 -0.46879 0
M  V30 12 N 3.52142 -1.71762 -0.825002 0
M  V30 13 C 3.60531 -0.51248 -0.26417 0
M  V30 14 N 2.47954 -0.340247 0.428528 0
M  V30 15 N 2.11449 0.804826 1.0874 0
M  V30 16 C 4.77208 0.388905 -0.404353 0
M  V30 17 F 5.86675 -0.28884 0.162765 0
M  V30 18 F 5.06639 0.573651 -1.73078 0
M  V30 19 F 4.60676 1.57015 0.271238 0
M  V30 20 H -5.69175 1.08481 -0.0512336 0
M  V30 21 H -4.94207 1.91519 -1.41231 0
M  V30 22 H -3.76467 1.13768 1.79349 0
M  V30 23 H -1.71594 -0.155 2.41069 0
M  V30 24 H -3.2674 -0.187464 -2.20768 0
M  V30 25 H 2.56205 1.09176 1.96017 0
M  V30 26 H 1.35508 1.48373 0.752267 0
M  V30 END ATOM
M  V30 BEGIN BOND
M  V30 1 1 1 2
M  V30 2 2 2 3
M  V30 3 1 3 4
M  V30 4 2 4 5
M  V30 5 1 5 6
M  V30 6 2 6 7
M  V30 7 1 6 8
M  V30 8 1 5 9
M  V30 9 1 9 10
M  V30 10 2 10 11
M  V30 11 1 11 12
M  V30 12 2 12 13
M  V30 13 1 13 14
M  V30 14 1 14 15
M  V30 15 1 13 16
M  V30 16 1 16 17
M  V30 17 1 16 18
M  V30 18 1 16 19
M  V30 19 1 7 2
M  V30 20 1 14 10
M  V30 21 1 1 20
M  V30 22 1 1 21
M  V30 23 1 3 22
M  V30 24 1 4 23
M  V30 25 1 7 24
M  V30 26 1 15 25
M  V30 27 1 15 26
M  V30 END BOND
M  V30 END CTAB
M  END
