
     RDKit          3D

  0  0  0  0  0  0  0  0  0  0999 V3000
M  V30 BEGIN CTAB
M  V30 COUNTS 19 18 0 0 0
M  V30 BEGIN ATOM
M  V30 1 C 2.34125 -0.97877 0.0183658 0
M  V30 2 O 0.997335 -1.01467 0.449051 0
M  V30 3 C 0.271082 0.0132953 -0.112654 0
M  V30 4 C -0.874309 -0.447768 -0.969563 0
M  V30 5 N -1.84003 -1.23821 -0.25492 0
M  V30 6 C -0.166447 0.932905 1.00265 0
M  V30 7 N -0.931869 2.02978 0.475851 0
M  V30 8 H 2.87458 -1.8109 0.489533 0
M  V30 9 H 2.83552 -0.0412463 0.372468 0
M  V30 10 H 2.43127 -1.02006 -1.06814 0
M  V30 11 H 0.950134 0.602032 -0.763139 0
M  V30 12 H -0.449788 -1.08728 -1.76752 0
M  V30 13 H -1.30701 0.444933 -1.45859 0
M  V30 14 H -1.71019 -1.23511 0.777651 0
M  V30 15 H -2.82639 -1.04472 -0.538995 0
M  V30 16 H -0.685104 0.38639 1.7891 0
M  V30 17 H 0.788543 1.34262 1.4445 0
M  V30 18 H -0.739321 2.21802 -0.531348 0
M  V30 19 H -1.95927 1.94877 0.645699 0
M  V30 END ATOM
M  V30 BEGIN BOND
M  V30 1 1 1 2
M  V30 2 1 2 3
M  V30 3 1 3 4
M  V30 4 1 4 5
M  V30 5 1 3 6
M  V30 6 1 6 7
M  V30 7 1 1 8
M  V30 8 1 1 9
M  V30 9 1 1 10
M  V30 10 1 3 11
M  V30 11 1 4 12
M  V30 12 1 4 13
M  V30 13 1 5 14
M  V30 14 1 5 15
M  V30 15 1 6 16
M  V30 16 1 6 17
M  V30 17 1 7 18
M  V30 18 1 7 19
M  V30 END BOND
M  V30 END CTAB
M  END
