
     RDKit          3D

  0  0  0  0  0  0  0  0  0  0999 V3000
M  V30 BEGIN CTAB
M  V30 COUNTS 24 23 0 0 0
M  V30 BEGIN ATOM
M  V30 1 N 3.43587 0.523732 -0.994578 0
M  V30 2 C 2.06155 0.726173 -0.47969 0
M  V30 3 C 1.86902 -0.211272 0.648133 0
M  V30 4 N 0.720241 -0.258499 1.39385 0
M  V30 5 C -0.536828 -0.674622 1.00653 0
M  V30 6 C -1.2234 0.260718 0.0655923 0
M  V30 7 O -1.35784 1.53122 0.697606 0
M  V30 8 C -2.68171 -0.15292 -0.210229 0
M  V30 9 N -2.78203 -1.41096 -0.868153 0
M  V30 10 H 3.41848 0.106378 -1.94557 0
M  V30 11 H 3.92944 1.45053 -1.11483 0
M  V30 12 H 1.96477 1.78378 -0.281418 0
M  V30 13 H 1.42439 0.358531 -1.34018 0
M  V30 14 H 2.07794 -1.2745 0.256945 0
M  V30 15 H 2.75058 -0.0924068 1.36821 0
M  V30 16 H 0.842772 -0.0829329 2.4217 0
M  V30 17 H -1.19519 -0.671618 1.94411 0
M  V30 18 H -0.612343 -1.74413 0.681741 0
M  V30 19 H -0.772828 0.443334 -0.899955 0
M  V30 20 H -2.03629 2.0792 0.26743 0
M  V30 21 H -3.17598 -0.163039 0.801595 0
M  V30 22 H -3.16505 0.659634 -0.771289 0
M  V30 23 H -1.92352 -1.96615 -0.773113 0
M  V30 24 H -3.03205 -1.22018 -1.87445 0
M  V30 END ATOM
M  V30 BEGIN BOND
M  V30 1 1 1 2
M  V30 2 1 2 3
M  V30 3 1 3 4
M  V30 4 1 4 5
M  V30 5 1 5 6
M  V30 6 1 6 7
M  V30 7 1 6 8
M  V30 8 1 8 9
M  V30 9 1 1 10
M  V30 10 1 1 11
M  V30 11 1 2 12
M  V30 12 1 2 13
M  V30 13 1 3 14
M  V30 14 1 3 15
M  V30 15 1 4 16
M  V30 16 1 5 17
M  V30 17 1 5 18
M  V30 18 1 6 19
M  V30 19 1 7 20
M  V30 20 1 8 21
M  V30 21 1 8 22
M  V30 22 1 9 23
M  V30 23 1 9 24
M  V30 END BOND
M  V30 END CTAB
M  END
