
     RDKit          3D

  0  0  0  0  0  0  0  0  0  0999 V3000
M  V30 BEGIN CTAB
M  V30 COUNTS 25 25 0 0 0
M  V30 BEGIN ATOM
M  V30 1 C 3.79992 0.346899 0.351433 0
M  V30 2 N 2.34599 0.430692 0.472175 0
M  V30 3 N 1.70719 0.802505 1.57278 0
M  V30 4 C 0.37296 0.780901 1.37543 0
M  V30 5 C 0.213709 0.363123 0.0534474 0
M  V30 6 C 1.45864 0.146564 -0.502665 0
M  V30 7 N 1.70867 -0.286988 -1.83408 0
M  V30 8 C -1.12366 0.204408 -0.573271 0
M  V30 9 C -1.97897 1.36507 -0.248894 0
M  V30 10 C -3.28604 1.22697 -0.208354 0
M  V30 11 N -1.79386 -0.989377 -0.164355 0
M  V30 12 N -2.036 -1.09245 1.18287 0
M  V30 13 H 4.17062 -0.619888 0.778877 0
M  V30 14 H 4.29415 1.14167 0.948199 0
M  V30 15 H 4.12884 0.497816 -0.694753 0
M  V30 16 H -0.412919 1.03285 2.0869 0
M  V30 17 H 1.86529 0.450466 -2.56457 0
M  V30 18 H 1.74707 -1.27135 -2.13272 0
M  V30 19 H -0.980837 0.192713 -1.6668 0
M  V30 20 H -1.54363 2.32722 -0.0442832 0
M  V30 21 H -3.95819 2.05658 0.0269172 0
M  V30 22 H -3.72367 0.266005 -0.412571 0
M  V30 23 H -2.5142 -1.32821 -0.802112 0
M  V30 24 H -3.04945 -1.28514 1.32477 0
M  V30 25 H -1.4116 -1.76784 1.67562 0
M  V30 END ATOM
M  V30 BEGIN BOND
M  V30 1 1 1 2
M  V30 2 1 2 3
M  V30 3 2 3 4
M  V30 4 1 4 5
M  V30 5 2 5 6
M  V30 6 1 6 7
M  V30 7 1 5 8
M  V30 8 1 8 9
M  V30 9 2 9 10 CFG=2
M  V30 10 1 8 11
M  V30 11 1 11 12
M  V30 12 1 6 2
M  V30 13 1 1 13
M  V30 14 1 1 14
M  V30 15 1 1 15
M  V30 16 1 4 16
M  V30 17 1 7 17
M  V30 18 1 7 18
M  V30 19 1 8 19
M  V30 20 1 9 20
M  V30 21 1 10 21
M  V30 22 1 10 22
M  V30 23 1 11 23
M  V30 24 1 12 24
M  V30 25 1 12 25
M  V30 END BOND
M  V30 END CTAB
M  END
