
     RDKit          3D

  0  0  0  0  0  0  0  0  0  0999 V3000
M  V30 BEGIN CTAB
M  V30 COUNTS 30 31 0 0 0
M  V30 BEGIN ATOM
M  V30 1 C -1.98763 0.612892 -1.35651 0
M  V30 2 C -1.66035 0.359326 0.101439 0
M  V30 3 C -2.71601 0.808189 1.13075 0
M  V30 4 C -2.49016 -0.646364 0.79005 0
M  V30 5 C -3.62776 -1.26046 0.000301951 0
M  V30 6 N -0.319307 0.660528 0.475488 0
M  V30 7 C 0.8392 0.0704999 -0.0466525 0
M  V30 8 N 0.765205 -0.877756 -0.993445 0
M  V30 9 C 1.8779 -1.45833 -1.5087 0
M  V30 10 C 3.14211 -1.10898 -1.09108 0
M  V30 11 C 3.24976 -0.138766 -0.120578 0
M  V30 12 C 2.09566 0.426882 0.377538 0
M  V30 13 N 2.21893 1.4157 1.36742 0
M  V30 14 N 4.54525 0.229977 0.318055 0
M  V30 15 H -2.64771 -0.198063 -1.76949 0
M  V30 16 H -1.07771 0.683805 -1.96548 0
M  V30 17 H -2.5413 1.59357 -1.37424 0
M  V30 18 H -3.59312 1.34284 0.732505 0
M  V30 19 H -2.3595 1.0853 2.14103 0
M  V30 20 H -2.0882 -1.32443 1.56357 0
M  V30 21 H -4.25575 -0.47272 -0.485313 0
M  V30 22 H -3.26654 -1.91957 -0.819286 0
M  V30 23 H -4.32133 -1.82409 0.660405 0
M  V30 24 H -0.175572 1.40602 1.22127 0
M  V30 25 H 1.79887 -2.23055 -2.28078 0
M  V30 26 H 4.02044 -1.58566 -1.51609 0
M  V30 27 H 2.83823 2.21704 1.22261 0
M  V30 28 H 1.68341 1.34808 2.26078 0
M  V30 29 H 5.29544 -0.454573 0.529097 0
M  V30 30 H 4.75754 1.23966 0.435336 0
M  V30 END ATOM
M  V30 BEGIN BOND
M  V30 1 1 1 2
M  V30 2 1 2 3
M  V30 3 1 3 4
M  V30 4 1 4 5
M  V30 5 1 2 6
M  V30 6 1 6 7
M  V30 7 2 7 8
M  V30 8 1 8 9
M  V30 9 2 9 10
M  V30 10 1 10 11
M  V30 11 2 11 12
M  V30 12 1 12 13
M  V30 13 1 11 14
M  V30 14 1 4 2
M  V30 15 1 12 7
M  V30 16 1 1 15
M  V30 17 1 1 16
M  V30 18 1 1 17
M  V30 19 1 3 18
M  V30 20 1 3 19
M  V30 21 1 4 20
M  V30 22 1 5 21
M  V30 23 1 5 22
M  V30 24 1 5 23
M  V30 25 1 6 24
M  V30 26 1 9 25
M  V30 27 1 10 26
M  V30 28 1 13 27
M  V30 29 1 13 28
M  V30 30 1 14 29
M  V30 31 1 14 30
M  V30 END BOND
M  V30 END CTAB
M  END
