
     RDKit          3D

  0  0  0  0  0  0  0  0  0  0999 V3000
M  V30 BEGIN CTAB
M  V30 COUNTS 42 42 0 0 0
M  V30 BEGIN ATOM
M  V30 1 N 3.02838 -4.25243 -0.244796 0
M  V30 2 C 2.543 -3.02208 0.367453 0
M  V30 3 C 2.18901 -2.08483 -0.754802 0
M  V30 4 N 1.6804 -0.792338 -0.293791 0
M  V30 5 C 0.371259 -0.433038 -0.0777292 0
M  V30 6 S 0.2476 1.18176 0.525535 0
M  V30 7 N -0.894513 -1.00208 -0.280576 0
M  V30 8 C -1.97697 0.0133007 -0.146404 0
M  V30 9 C -2.83329 0.0374659 0.90944 0
M  V30 10 C -3.80025 1.05385 1.01996 0
M  V30 11 C -3.87854 2.02636 0.05546 0
M  V30 12 C -3.00622 2.00086 -1.0217 0
M  V30 13 C -2.04743 0.972258 -1.10921 0
M  V30 14 N -4.81717 3.0951 0.100971 0
M  V30 15 C -1.38556 -2.23604 -0.653384 0
M  V30 16 O -0.794617 -3.3128 -0.595643 0
M  V30 17 C -2.794 -2.3352 -1.20762 0
M  V30 18 C 2.76074 0.187769 -0.0663431 0
M  V30 19 O 3.97287 -0.166454 -0.256977 0
M  V30 20 O 2.57692 1.47268 0.336668 0
M  V30 21 C 3.65857 2.37432 0.530101 0
M  V30 22 C 3.16132 3.73355 0.965056 0
M  V30 23 H 3.67107 -4.06752 -1.04094 0
M  V30 24 H 2.27591 -4.90271 -0.510765 0
M  V30 25 H 3.31034 -2.59361 1.04837 0
M  V30 26 H 1.62112 -3.27294 0.919746 0
M  V30 27 H 3.16738 -1.85973 -1.33429 0
M  V30 28 H 1.48415 -2.53398 -1.42935 0
M  V30 29 H -2.77332 -0.725362 1.66649 0
M  V30 30 H -4.46717 1.06109 1.85378 0
M  V30 31 H -3.02684 2.74054 -1.8016 0
M  V30 32 H -1.37286 0.952187 -1.94346 0
M  V30 33 H -5.81295 2.97725 0.326882 0
M  V30 34 H -4.49845 4.07197 -0.103681 0
M  V30 35 H -2.88276 -1.67688 -2.10194 0
M  V30 36 H -2.95067 -3.40146 -1.47164 0
M  V30 37 H -3.49763 -2.08759 -0.401793 0
M  V30 38 H 4.17561 2.55411 -0.4588 0
M  V30 39 H 4.38629 2.0316 1.28852 0
M  V30 40 H 4.05728 4.31622 1.24125 0
M  V30 41 H 2.52777 3.63735 1.8675 0
M  V30 42 H 2.64424 4.2675 0.136036 0
M  V30 END ATOM
M  V30 BEGIN BOND
M  V30 1 1 1 2
M  V30 2 1 2 3
M  V30 3 1 3 4
M  V30 4 1 4 5
M  V30 5 2 5 6
M  V30 6 1 5 7
M  V30 7 1 7 8
M  V30 8 2 8 9
M  V30 9 1 9 10
M  V30 10 2 10 11
M  V30 11 1 11 12
M  V30 12 2 12 13
M  V30 13 1 11 14
M  V30 14 1 7 15
M  V30 15 2 15 16
M  V30 16 1 15 17
M  V30 17 1 4 18
M  V30 18 2 18 19
M  V30 19 1 18 20
M  V30 20 1 20 21
M  V30 21 1 21 22
M  V30 22 1 13 8
M  V30 23 1 1 23
M  V30 24 1 1 24
M  V30 25 1 2 25
M  V30 26 1 2 26
M  V30 27 1 3 27
M  V30 28 1 3 28
M  V30 29 1 9 29
M  V30 30 1 10 30
M  V30 31 1 12 31
M  V30 32 1 13 32
M  V30 33 1 14 33
M  V30 34 1 14 34
M  V30 35 1 17 35
M  V30 36 1 17 36
M  V30 37 1 17 37
M  V30 38 1 21 38
M  V30 39 1 21 39
M  V30 40 1 22 40
M  V30 41 1 22 41
M  V30 42 1 22 42
M  V30 END BOND
M  V30 END CTAB
M  END
