
     RDKit          3D

  0  0  0  0  0  0  0  0  0  0999 V3000
M  V30 BEGIN CTAB
M  V30 COUNTS 33 34 0 0 0
M  V30 BEGIN ATOM
M  V30 1 C -5.89588 0.376834 -0.365571 0
M  V30 2 C -4.43006 0.188242 -0.41682 0
M  V30 3 C -3.81882 -0.437479 -1.46693 0
M  V30 4 C -2.47383 -0.583696 -1.46294 0
M  V30 5 C -1.62555 -0.127488 -0.428773 0
M  V30 6 C -2.25079 0.492548 0.606619 0
M  V30 7 C -3.65576 0.650856 0.613405 0
M  V30 8 C -1.46554 1.02565 1.73882 0
M  V30 9 S 0.0789013 -0.392468 -0.592748 0
M  V30 10 C 1.1805 0.0679442 0.692625 0
M  V30 11 C 2.61095 -0.211392 0.292657 0
M  V30 12 N 3.22684 -1.36895 0.5289 0
M  V30 13 C 4.50034 -1.57144 0.154469 0
M  V30 14 N 5.15065 -2.80624 0.408532 0
M  V30 15 N 5.16257 -0.591579 -0.467661 0
M  V30 16 C 4.55657 0.573059 -0.710331 0
M  V30 17 N 3.28145 0.768147 -0.332275 0
M  V30 18 N 5.2316 1.64708 -1.37453 0
M  V30 19 H -6.29626 0.353983 0.678538 0
M  V30 20 H -6.1237 1.36905 -0.789514 0
M  V30 21 H -6.34674 -0.428125 -0.979977 0
M  V30 22 H -4.40123 -0.826729 -2.31905 0
M  V30 23 H -2.0212 -1.08499 -2.31167 0
M  V30 24 H -4.12304 1.15499 1.46448 0
M  V30 25 H -0.915988 0.29002 2.31945 0
M  V30 26 H -0.908777 1.95226 1.46342 0
M  V30 27 H -2.22576 1.43502 2.48999 0
M  V30 28 H 1.07176 -0.589279 1.61603 0
M  V30 29 H 1.18376 1.12345 1.01904 0
M  V30 30 H 5.99894 -3.08191 -0.106444 0
M  V30 31 H 4.75742 -3.43334 1.12582 0
M  V30 32 H 5.19401 2.63811 -1.06094 0
M  V30 33 H 5.79265 1.42786 -2.22001 0
M  V30 END ATOM
M  V30 BEGIN BOND
M  V30 1 1 1 2
M  V30 2 2 2 3
M  V30 3 1 3 4
M  V30 4 2 4 5
M  V30 5 1 5 6
M  V30 6 2 6 7
M  V30 7 1 6 8
M  V30 8 1 5 9
M  V30 9 1 9 10
M  V30 10 1 10 11
M  V30 11 2 11 12
M  V30 12 1 12 13
M  V30 13 1 13 14
M  V30 14 2 13 15
M  V30 15 1 15 16
M  V30 16 2 16 17
M  V30 17 1 16 18
M  V30 18 1 7 2
M  V30 19 1 17 11
M  V30 20 1 1 19
M  V30 21 1 1 20
M  V30 22 1 1 21
M  V30 23 1 3 22
M  V30 24 1 4 23
M  V30 25 1 7 24
M  V30 26 1 8 25
M  V30 27 1 8 26
M  V30 28 1 8 27
M  V30 29 1 10 28
M  V30 30 1 10 29
M  V30 31 1 14 30
M  V30 32 1 14 31
M  V30 33 1 18 32
M  V30 34 1 18 33
M  V30 END BOND
M  V30 END CTAB
M  END
