
     RDKit          3D

  0  0  0  0  0  0  0  0  0  0999 V3000
M  V30 BEGIN CTAB
M  V30 COUNTS 37 38 0 0 0
M  V30 BEGIN ATOM
M  V30 1 N -5.62247 0.904891 0.198392 0
M  V30 2 C -4.9555 -0.358904 0.526845 0
M  V30 3 C -3.48914 -0.220155 0.314366 0
M  V30 4 C -2.66054 0.20734 1.34093 0
M  V30 5 C -1.30019 0.355019 1.20604 0
M  V30 6 C -0.694607 0.0723091 0.00142744 0
M  V30 7 C -1.52113 -0.353756 -1.02137 0
M  V30 8 C -2.88321 -0.502456 -0.88905 0
M  V30 9 C 0.777542 0.217435 -0.192816 0
M  V30 10 N 1.25042 1.48576 0.38319 0
M  V30 11 C 2.63236 1.57249 -0.120644 0
M  V30 12 C 3.43852 0.633121 0.730231 0
M  V30 13 C 2.82261 -0.687947 0.961722 0
M  V30 14 C 1.53211 -0.957887 0.289758 0
M  V30 15 C 1.71581 -1.92126 -0.891737 0
M  V30 16 N 4.75955 0.53243 0.131947 0
M  V30 17 H -6.11263 1.31064 1.02123 0
M  V30 18 H -4.90854 1.59019 -0.170484 0
M  V30 19 H -5.36145 -1.13483 -0.140673 0
M  V30 20 H -5.11664 -0.559114 1.59851 0
M  V30 21 H -3.14541 0.429042 2.29012 0
M  V30 22 H -0.666325 0.693566 2.0292 0
M  V30 23 H -1.03198 -0.576596 -1.97624 0
M  V30 24 H -3.50645 -0.836068 -1.7008 0
M  V30 25 H 0.930403 0.332581 -1.29108 0
M  V30 26 H 1.30263 1.43639 1.42127 0
M  V30 27 H 3.04485 2.58558 0.00785648 0
M  V30 28 H 2.6845 1.22387 -1.1648 0
M  V30 29 H 3.60193 1.16849 1.71283 0
M  V30 30 H 2.73929 -0.883137 2.07184 0
M  V30 31 H 3.55639 -1.47547 0.615772 0
M  V30 32 H 0.862115 -1.52587 1.0015 0
M  V30 33 H 1.69701 -1.31054 -1.83805 0
M  V30 34 H 2.68097 -2.43348 -0.858715 0
M  V30 35 H 0.850618 -2.61404 -0.979601 0
M  V30 36 H 5.35137 1.35606 0.333163 0
M  V30 37 H 4.7452 0.244299 -0.855051 0
M  V30 END ATOM
M  V30 BEGIN BOND
M  V30 1 1 1 2
M  V30 2 1 2 3
M  V30 3 2 3 4
M  V30 4 1 4 5
M  V30 5 2 5 6
M  V30 6 1 6 7
M  V30 7 2 7 8
M  V30 8 1 6 9
M  V30 9 1 9 10
M  V30 10 1 10 11
M  V30 11 1 11 12
M  V30 12 1 12 13
M  V30 13 1 13 14
M  V30 14 1 14 15
M  V30 15 1 12 16
M  V30 16 1 8 3
M  V30 17 1 14 9
M  V30 18 1 1 17
M  V30 19 1 1 18
M  V30 20 1 2 19
M  V30 21 1 2 20
M  V30 22 1 4 21
M  V30 23 1 5 22
M  V30 24 1 7 23
M  V30 25 1 8 24
M  V30 26 1 9 25
M  V30 27 1 10 26
M  V30 28 1 11 27
M  V30 29 1 11 28
M  V30 30 1 12 29
M  V30 31 1 13 30
M  V30 32 1 13 31
M  V30 33 1 14 32
M  V30 34 1 15 33
M  V30 35 1 15 34
M  V30 36 1 15 35
M  V30 37 1 16 36
M  V30 38 1 16 37
M  V30 END BOND
M  V30 END CTAB
M  END
