
     RDKit          3D

  0  0  0  0  0  0  0  0  0  0999 V3000
M  V30 BEGIN CTAB
M  V30 COUNTS 52 53 0 0 0
M  V30 BEGIN ATOM
M  V30 1 N 6.57852 0.835441 -0.16594 0
M  V30 2 C 5.73914 1.6481 0.684041 0
M  V30 3 C 4.74361 0.749211 1.38286 0
M  V30 4 C 3.87304 0.0165558 0.395647 0
M  V30 5 C 2.89612 -0.866467 1.1095 0
M  V30 6 C 2.0015 -1.62002 0.118005 0 CFG=1
M  V30 7 C 1.25028 -0.657305 -0.701277 0
M  V30 8 O 1.53191 -0.599306 -1.93796 0
M  V30 9 N 0.245385 0.2061 -0.237884 0
M  V30 10 C -0.194329 0.251719 1.14374 0
M  V30 11 C -1.66741 0.637424 1.11162 0
M  V30 12 C -2.33098 -0.109451 -0.0538245 0 CFG=2
M  V30 13 C -1.84958 0.550714 -1.31313 0 CFG=2
M  V30 14 C -0.44677 1.14259 -1.13367 0
M  V30 15 C -2.7661 1.59186 -1.85017 0
M  V30 16 O -1.7118 -0.455029 -2.28248 0
M  V30 17 N -3.7638 -0.0767562 0.100455 0
M  V30 18 C -4.31845 0.833055 0.909652 0
M  V30 19 C -5.68709 0.92391 1.10677 0
M  V30 20 C -6.45083 0.0177846 0.417423 0
M  V30 21 O -7.71903 0.0397605 0.548121 0
M  V30 22 N -5.88778 -0.893428 -0.393681 0
M  V30 23 C -4.55644 -0.935909 -0.547086 0
M  V30 24 O -4.0844 -1.82478 -1.33145 0
M  V30 25 N 2.86965 -2.43752 -0.719852 0
M  V30 26 H 6.05164 0.618897 -1.02692 0
M  V30 27 H 6.72195 -0.0782179 0.329387 0
M  V30 28 H 6.30472 2.23586 1.41192 0
M  V30 29 H 5.13442 2.29894 -0.00186928 0
M  V30 30 H 5.25131 0.00765468 2.03639 0
M  V30 31 H 4.11193 1.41255 2.01493 0
M  V30 32 H 4.54392 -0.657595 -0.207808 0
M  V30 33 H 3.4122 0.737603 -0.277494 0
M  V30 34 H 2.31003 -0.272726 1.80796 0
M  V30 35 H 3.45627 -1.61761 1.72496 0
M  V30 36 H 1.34331 -2.29162 0.702901 0
M  V30 37 H -0.0428183 -0.718719 1.65762 0
M  V30 38 H 0.340084 1.08368 1.64135 0
M  V30 39 H -1.69274 1.73136 0.922154 0
M  V30 40 H -2.12964 0.357368 2.07061 0
M  V30 41 H -1.98228 -1.15947 0.022829 0
M  V30 42 H -0.470948 2.15564 -0.734528 0
M  V30 43 H 0.00952219 1.15993 -2.1382 0
M  V30 44 H -2.14913 2.28129 -2.49754 0
M  V30 45 H -3.49109 1.12457 -2.57727 0
M  V30 46 H -3.25032 2.22757 -1.11017 0
M  V30 47 H -1.29397 -1.24392 -1.86296 0
M  V30 48 H -3.72417 1.56933 1.47212 0
M  V30 49 H -6.11579 1.67962 1.77609 0
M  V30 50 H -6.52221 -1.58109 -0.911949 0
M  V30 51 H 2.34057 -3.26159 -1.10943 0
M  V30 52 H 3.23888 -1.85046 -1.49452 0
M  V30 END ATOM
M  V30 BEGIN BOND
M  V30 1 1 1 2
M  V30 2 1 2 3
M  V30 3 1 3 4
M  V30 4 1 4 5
M  V30 5 1 5 6
M  V30 6 1 6 7
M  V30 7 2 7 8
M  V30 8 1 7 9
M  V30 9 1 9 10
M  V30 10 1 10 11
M  V30 11 1 11 12
M  V30 12 1 12 13
M  V30 13 1 13 14
M  V30 14 1 13 15
M  V30 15 1 13 16 CFG=3
M  V30 16 1 12 17
M  V30 17 1 17 18
M  V30 18 2 18 19
M  V30 19 1 19 20
M  V30 20 2 20 21
M  V30 21 1 20 22
M  V30 22 1 22 23
M  V30 23 2 23 24
M  V30 24 1 6 25
M  V30 25 1 14 9
M  V30 26 1 23 17
M  V30 27 1 1 26
M  V30 28 1 1 27
M  V30 29 1 2 28
M  V30 30 1 2 29
M  V30 31 1 3 30
M  V30 32 1 3 31
M  V30 33 1 4 32
M  V30 34 1 4 33
M  V30 35 1 5 34
M  V30 36 1 5 35
M  V30 37 1 6 36 CFG=1
M  V30 38 1 10 37
M  V30 39 1 10 38
M  V30 40 1 11 39
M  V30 41 1 11 40
M  V30 42 1 12 41 CFG=3
M  V30 43 1 14 42
M  V30 44 1 14 43
M  V30 45 1 15 44
M  V30 46 1 15 45
M  V30 47 1 15 46
M  V30 48 1 16 47
M  V30 49 1 18 48
M  V30 50 1 19 49
M  V30 51 1 22 50
M  V30 52 1 25 51
M  V30 53 1 25 52
M  V30 END BOND
M  V30 END CTAB
M  END
