
     RDKit          3D

  0  0  0  0  0  0  0  0  0  0999 V3000
M  V30 BEGIN CTAB
M  V30 COUNTS 64 68 0 0 0
M  V30 BEGIN ATOM
M  V30 1 O -1.3886 3.70428 0.738135 0
M  V30 2 C -1.45112 2.33788 0.511059 0 CFG=2
M  V30 3 C -0.220909 1.99082 -0.212368 0
M  V30 4 N -0.135191 0.805237 -0.980009 0
M  V30 5 C -0.892636 -0.384883 -1.20282 0
M  V30 6 C -2.35238 -0.305094 -0.913313 0 CFG=2
M  V30 7 C -2.82464 1.05163 -1.19361 0 CFG=2
M  V30 8 C -2.75684 2.06771 -0.121361 0
M  V30 9 C -4.25693 1.08653 -1.74917 0
M  V30 10 O -2.04925 1.56826 -2.27004 0
M  V30 11 N -2.58127 -0.868337 0.389942 0
M  V30 12 C -1.66401 -1.09867 1.3285 0
M  V30 13 N -2.2642 -1.63223 2.38598 0
M  V30 14 C -3.58171 -1.75988 2.15854 0
M  V30 15 C -3.77024 -1.27278 0.890709 0
M  V30 16 N -5.02506 -1.27335 0.371424 0
M  V30 17 C -6.01887 -1.74849 1.12031 0
M  V30 18 N -7.3594 -1.76472 0.602747 0
M  V30 19 N -5.84499 -2.23426 2.37928 0
M  V30 20 C -4.6257 -2.25917 2.94554 0
M  V30 21 N -4.36378 -2.75142 4.25363 0
M  V30 22 C 1.08857 0.79621 -1.78297 0
M  V30 23 O 1.28116 -0.212079 -2.50824 0
M  V30 24 C 2.0281 1.90421 -1.74016 0
M  V30 25 C 3.37072 1.73645 -2.33592 0
M  V30 26 C 4.15453 0.665784 -1.67909 0
M  V30 27 C 4.3111 -0.59131 -2.19955 0
M  V30 28 C 5.03832 -1.57794 -1.52344 0
M  V30 29 C 5.62989 -1.33114 -0.306924 0
M  V30 30 C 5.4821 -0.0705991 0.229043 0
M  V30 31 C 4.76636 0.900006 -0.435382 0
M  V30 32 N 6.15416 -0.104279 1.41015 0
M  V30 33 C 6.70004 -1.3123 1.61984 0
M  V30 34 N 6.36885 -2.06391 0.54973 0
M  V30 35 C 7.51652 -1.76219 2.79356 0
M  V30 36 H -0.56819 4.09905 0.782417 0
M  V30 37 H -1.42927 1.97863 1.59463 0
M  V30 38 H 0.140826 2.86479 -0.806084 0
M  V30 39 H 0.579154 1.88754 0.591322 0
M  V30 40 H -0.408548 -1.28023 -0.705788 0
M  V30 41 H -0.791802 -0.63888 -2.30311 0
M  V30 42 H -2.8813 -1.00458 -1.62987 0
M  V30 43 H -3.14004 3.02865 -0.583584 0
M  V30 44 H -3.49827 1.89079 0.707093 0
M  V30 45 H -4.49868 0.133894 -2.25958 0
M  V30 46 H -4.34928 1.85558 -2.57624 0
M  V30 47 H -4.98756 1.41997 -1.0006 0
M  V30 48 H -2.23811 1.0344 -3.05948 0
M  V30 49 H -0.579214 -0.901522 1.29131 0
M  V30 50 H -7.63797 -2.43983 -0.142208 0
M  V30 51 H -8.09166 -1.11143 0.948848 0
M  V30 52 H -4.38434 -3.74849 4.52937 0
M  V30 53 H -4.13348 -2.04931 4.98819 0
M  V30 54 H 1.59191 2.84313 -2.22749 0
M  V30 55 H 2.11736 2.25727 -0.659784 0
M  V30 56 H 4.00837 2.6662 -2.22595 0
M  V30 57 H 3.35353 1.56229 -3.43663 0
M  V30 58 H 3.88348 -0.844405 -3.17966 0
M  V30 59 H 5.14647 -2.5642 -1.95603 0
M  V30 60 H 4.65698 1.88072 -0.00777621 0
M  V30 61 H 6.65999 -3.07586 0.427839 0
M  V30 62 H 8.59146 -1.70994 2.62001 0
M  V30 63 H 7.24627 -1.12002 3.67671 0
M  V30 64 H 7.17922 -2.79664 3.07837 0
M  V30 END ATOM
M  V30 BEGIN BOND
M  V30 1 1 1 2
M  V30 2 1 2 3
M  V30 3 1 3 4
M  V30 4 1 4 5
M  V30 5 1 5 6
M  V30 6 1 6 7
M  V30 7 1 7 8
M  V30 8 1 7 9
M  V30 9 1 7 10 CFG=3
M  V30 10 1 6 11
M  V30 11 1 11 12
M  V30 12 2 12 13
M  V30 13 1 13 14
M  V30 14 2 14 15
M  V30 15 1 15 16
M  V30 16 2 16 17
M  V30 17 1 17 18
M  V30 18 1 17 19
M  V30 19 2 19 20
M  V30 20 1 20 21
M  V30 21 1 4 22
M  V30 22 2 22 23
M  V30 23 1 22 24
M  V30 24 1 24 25
M  V30 25 1 25 26
M  V30 26 2 26 27
M  V30 27 1 27 28
M  V30 28 2 28 29
M  V30 29 1 29 30
M  V30 30 2 30 31
M  V30 31 1 30 32
M  V30 32 2 32 33
M  V30 33 1 33 34
M  V30 34 1 33 35
M  V30 35 1 8 2
M  V30 36 1 15 11
M  V30 37 1 31 26
M  V30 38 1 20 14
M  V30 39 1 34 29
M  V30 40 1 1 36
M  V30 41 1 2 37 CFG=1
M  V30 42 1 3 38
M  V30 43 1 3 39
M  V30 44 1 5 40
M  V30 45 1 5 41
M  V30 46 1 6 42 CFG=3
M  V30 47 1 8 43
M  V30 48 1 8 44
M  V30 49 1 9 45
M  V30 50 1 9 46
M  V30 51 1 9 47
M  V30 52 1 10 48
M  V30 53 1 12 49
M  V30 54 1 18 50
M  V30 55 1 18 51
M  V30 56 1 21 52
M  V30 57 1 21 53
M  V30 58 1 24 54
M  V30 59 1 24 55
M  V30 60 1 25 56
M  V30 61 1 25 57
M  V30 62 1 27 58
M  V30 63 1 28 59
M  V30 64 1 31 60
M  V30 65 1 34 61
M  V30 66 1 35 62
M  V30 67 1 35 63
M  V30 68 1 35 64
M  V30 END BOND
M  V30 END CTAB
M  END
