
     RDKit          3D

  0  0  0  0  0  0  0  0  0  0999 V3000
M  V30 BEGIN CTAB
M  V30 COUNTS 43 42 0 0 0
M  V30 BEGIN ATOM
M  V30 1 C 4.08996 -0.385051 -0.734889 0 CFG=2
M  V30 2 N 4.61446 0.883202 -1.16347 0
M  V30 3 C 3.81427 -0.394139 0.765578 0
M  V30 4 C 2.80788 0.675756 1.12996 0
M  V30 5 C 1.4909 0.513076 0.462735 0
M  V30 6 C 0.745214 -0.74574 0.743823 0 CFG=2
M  V30 7 N -0.505188 -0.823081 0.0411814 0
M  V30 8 C -1.56064 0.0578931 0.348664 0
M  V30 9 O -1.43288 0.918697 1.23192 0
M  V30 10 C -2.86036 -0.0697864 -0.426298 0
M  V30 11 C -3.80949 0.98274 0.0991871 0
M  V30 12 C -5.13432 0.967738 -0.58005 0 CFG=1
M  V30 13 N -4.93515 1.21052 -1.99426 0
M  V30 14 C -5.93494 -0.228301 -0.324791 0
M  V30 15 O -6.4089 -0.983591 -1.37783 0
M  V30 16 O -6.20679 -0.592191 0.8382 0
M  V30 17 C 0.532678 -1.07786 2.15559 0
M  V30 18 O 1.5672 -1.04413 3.0695 0
M  V30 19 O -0.594114 -1.40723 2.59934 0
M  V30 20 C 5.06176 -1.43489 -1.04389 0
M  V30 21 O 6.25306 -1.12156 -1.65115 0
M  V30 22 O 4.80465 -2.61948 -0.753347 0
M  V30 23 H 3.14404 -0.644411 -1.2356 0
M  V30 24 H 5.30222 1.2125 -0.445931 0
M  V30 25 H 3.88107 1.596 -1.36696 0
M  V30 26 H 3.51061 -1.41052 0.999042 0
M  V30 27 H 4.78784 -0.180225 1.24992 0
M  V30 28 H 2.78683 0.883588 2.20915 0
M  V30 29 H 3.25521 1.6246 0.688364 0
M  V30 30 H 0.851906 1.37731 0.732578 0
M  V30 31 H 1.65057 0.572639 -0.634401 0
M  V30 32 H 1.40636 -1.5699 0.295437 0
M  V30 33 H -0.626484 -1.54079 -0.7029 0
M  V30 34 H -2.60656 0.163967 -1.47982 0
M  V30 35 H -3.26335 -1.07938 -0.373825 0
M  V30 36 H -3.35751 1.98425 -0.0437858 0
M  V30 37 H -3.95566 0.858519 1.19469 0
M  V30 38 H -5.70342 1.86332 -0.192688 0
M  V30 39 H -4.9935 0.331033 -2.55714 0
M  V30 40 H -5.5613 1.94138 -2.37136 0
M  V30 41 H -5.8551 -1.74459 -1.76612 0
M  V30 42 H 1.93874 -1.83441 3.55552 0
M  V30 43 H 7.00825 -0.622856 -1.18987 0
M  V30 END ATOM
M  V30 BEGIN BOND
M  V30 1 1 1 2
M  V30 2 1 1 3
M  V30 3 1 3 4
M  V30 4 1 4 5
M  V30 5 1 5 6
M  V30 6 1 6 7
M  V30 7 1 7 8
M  V30 8 2 8 9
M  V30 9 1 8 10
M  V30 10 1 10 11
M  V30 11 1 11 12
M  V30 12 1 12 13
M  V30 13 1 12 14
M  V30 14 1 14 15
M  V30 15 2 14 16
M  V30 16 1 6 17
M  V30 17 1 17 18
M  V30 18 2 17 19
M  V30 19 1 1 20
M  V30 20 1 20 21
M  V30 21 2 20 22
M  V30 22 1 1 23 CFG=3
M  V30 23 1 2 24
M  V30 24 1 2 25
M  V30 25 1 3 26
M  V30 26 1 3 27
M  V30 27 1 4 28
M  V30 28 1 4 29
M  V30 29 1 5 30
M  V30 30 1 5 31
M  V30 31 1 6 32 CFG=3
M  V30 32 1 7 33
M  V30 33 1 10 34
M  V30 34 1 10 35
M  V30 35 1 11 36
M  V30 36 1 11 37
M  V30 37 1 12 38 CFG=1
M  V30 38 1 13 39
M  V30 39 1 13 40
M  V30 40 1 15 41
M  V30 41 1 18 42
M  V30 42 1 21 43
M  V30 END BOND
M  V30 END CTAB
M  END
