
     RDKit          3D

  0  0  0  0  0  0  0  0  0  0999 V3000
M  V30 BEGIN CTAB
M  V30 COUNTS 24 24 0 0 0
M  V30 BEGIN ATOM
M  V30 1 N -1.87022 0.941821 -1.51813 0
M  V30 2 C -1.23087 1.23112 -0.285074 0
M  V30 3 N -1.34025 2.41075 0.218311 0
M  V30 4 C -0.442404 0.215672 0.438241 0
M  V30 5 C -1.30161 -0.990921 0.803994 0
M  V30 6 C -0.782122 -2.1169 -0.0512914 0
M  V30 7 C 0.686999 -1.71728 -0.200063 0
M  V30 8 N 0.67962 -0.267791 -0.296495 0
M  V30 9 S 2.18447 0.263097 0.417925 0
M  V30 10 O 3.34544 -0.283067 -0.362608 0
M  V30 11 O 2.2896 -0.227909 1.81717 0
M  V30 12 N 2.30266 1.97595 0.412909 0
M  V30 13 H -2.88451 1.15073 -1.70059 0
M  V30 14 H -1.36752 0.498021 -2.33132 0
M  V30 15 H -1.8905 3.14903 -0.269105 0
M  V30 16 H -0.0651496 0.61397 1.40668 0
M  V30 17 H -1.19425 -1.28445 1.84884 0
M  V30 18 H -2.35431 -0.780241 0.511238 0
M  V30 19 H -0.843794 -3.08288 0.478779 0
M  V30 20 H -1.25239 -2.16187 -1.04715 0
M  V30 21 H 1.15301 -2.21265 -1.05307 0
M  V30 22 H 1.16747 -2.03957 0.76508 0
M  V30 23 H 1.7011 2.42011 -0.319724 0
M  V30 24 H 3.30953 2.29526 0.315463 0
M  V30 END ATOM
M  V30 BEGIN BOND
M  V30 1 1 1 2
M  V30 2 2 2 3 CFG=2
M  V30 3 1 2 4
M  V30 4 1 4 5
M  V30 5 1 5 6
M  V30 6 1 6 7
M  V30 7 1 7 8
M  V30 8 1 8 9
M  V30 9 2 9 10
M  V30 10 2 9 11
M  V30 11 1 9 12
M  V30 12 1 8 4
M  V30 13 1 1 13
M  V30 14 1 1 14
M  V30 15 1 3 15
M  V30 16 1 4 16
M  V30 17 1 5 17
M  V30 18 1 5 18
M  V30 19 1 6 19
M  V30 20 1 6 20
M  V30 21 1 7 21
M  V30 22 1 7 22
M  V30 23 1 12 23
M  V30 24 1 12 24
M  V30 END BOND
M  V30 END CTAB
M  END
