
     RDKit          3D

  0  0  0  0  0  0  0  0  0  0999 V3000
M  V30 BEGIN CTAB
M  V30 COUNTS 38 39 0 0 0
M  V30 BEGIN ATOM
M  V30 1 O 1.94192 1.62811 1.75877 0
M  V30 2 C 1.3942 0.889893 0.958512 0
M  V30 3 N 1.75343 -0.508346 0.583484 0
M  V30 4 C 3.20966 -0.665665 0.713109 0
M  V30 5 C 4.02787 0.311372 1.14014 0
M  V30 6 C 5.43072 0.190009 0.884354 0
M  V30 7 C 5.93853 -0.892283 0.243131 0
M  V30 8 C 5.05706 -1.89415 -0.184304 0
M  V30 9 C 3.7409 -1.76235 0.0528291 0
M  V30 10 N 7.32056 -1.08647 -0.0141324 0
M  V30 11 N 0.321267 1.23001 0.152421 0
M  V30 12 C -0.669236 1.59438 -0.564847 0
M  V30 13 C -2.00263 1.04989 -0.253733 0
M  V30 14 C -2.95828 1.27439 -1.14961 0
M  V30 15 C -4.24846 0.743113 -1.18562 0
M  V30 16 C -4.56841 -0.133436 -0.10527 0
M  V30 17 C -3.55452 -0.393472 0.91458 0
M  V30 18 C -2.34921 0.215883 0.751067 0
M  V30 19 S -6.08639 -0.947847 -0.164718 0
M  V30 20 O -6.41198 -1.17286 -1.64831 0
M  V30 21 O -6.0925 -2.29871 0.49597 0
M  V30 22 N -7.33516 0.0213045 0.489211 0
M  V30 23 H 1.15004 -1.25241 0.361456 0
M  V30 24 H 3.73302 1.20189 1.65332 0
M  V30 25 H 6.04599 1.01353 1.17795 0
M  V30 26 H 5.47723 -2.76204 -0.713502 0
M  V30 27 H 3.02991 -2.49987 -0.31774 0
M  V30 28 H 7.7138 -0.931465 -0.921479 0
M  V30 29 H 7.93921 -1.3755 0.814748 0
M  V30 30 H -0.00134313 2.32836 1.04841 0
M  V30 31 H -0.75475 2.67105 -0.976448 0
M  V30 32 H -0.439927 1.12373 -1.68477 0
M  V30 33 H -2.71641 1.97416 -2.00507 0
M  V30 34 H -4.95374 0.960618 -1.89687 0
M  V30 35 H -3.84159 -1.03612 1.69806 0
M  V30 36 H -1.57097 0.0259811 1.54534 0
M  V30 37 H -7.47949 0.851151 -0.106274 0
M  V30 38 H -7.1903 0.314171 1.44936 0
M  V30 END ATOM
M  V30 BEGIN BOND
M  V30 1 2 1 2
M  V30 2 1 2 3
M  V30 3 1 3 4
M  V30 4 2 4 5
M  V30 5 1 5 6
M  V30 6 2 6 7
M  V30 7 1 7 8
M  V30 8 2 8 9
M  V30 9 1 7 10
M  V30 10 1 2 11
M  V30 11 1 11 12
M  V30 12 1 12 13
M  V30 13 2 13 14
M  V30 14 1 14 15
M  V30 15 2 15 16
M  V30 16 1 16 17
M  V30 17 2 17 18
M  V30 18 1 16 19
M  V30 19 2 19 20
M  V30 20 2 19 21
M  V30 21 1 19 22
M  V30 22 1 9 4
M  V30 23 1 18 13
M  V30 24 1 3 23
M  V30 25 1 5 24
M  V30 26 1 6 25
M  V30 27 1 8 26
M  V30 28 1 9 27
M  V30 29 1 10 28
M  V30 30 1 10 29
M  V30 31 1 11 30
M  V30 32 1 12 31
M  V30 33 1 12 32
M  V30 34 1 14 33
M  V30 35 1 15 34
M  V30 36 1 17 35
M  V30 37 1 18 36
M  V30 38 1 22 37
M  V30 39 1 22 38
M  V30 END BOND
M  V30 END CTAB
M  END
