
     RDKit          3D

  0  0  0  0  0  0  0  0  0  0999 V3000
M  V30 BEGIN CTAB
M  V30 COUNTS 36 37 0 0 0
M  V30 BEGIN ATOM
M  V30 1 N -2.53109 -2.08617 -0.191057 0
M  V30 2 C -2.95361 -0.71737 0.0297527 0
M  V30 3 C -2.11486 0.314402 -0.602729 0
M  V30 4 C -2.61326 1.70369 -0.328757 0
M  V30 5 C -2.73275 1.89868 1.15172 0
M  V30 6 C -1.52491 1.3869 1.84563 0
M  V30 7 C -0.366946 1.00745 0.951568 0
M  V30 8 N -0.687666 0.278131 -0.212456 0
M  V30 9 C 0.165022 -0.469561 -1.01779 0
M  V30 10 O -0.425737 -1.09602 -2.04262 0
M  V30 11 C 1.5741 -0.736007 -1.00558 0
M  V30 12 C 2.11526 -1.67594 -1.86438 0
M  V30 13 C 3.46024 -1.90715 -1.87961 0
M  V30 14 C 4.33034 -1.23362 -1.06068 0
M  V30 15 C 3.82887 -0.302672 -0.205122 0
M  V30 16 C 2.44474 -0.0637561 -0.189174 0
M  V30 17 N 4.67489 0.423953 0.663462 0
M  V30 18 H -2.85417 -2.40425 -1.1453 0
M  V30 19 H -3.06077 -2.69235 0.490491 0
M  V30 20 H -3.08465 -0.608484 1.12071 0
M  V30 21 H -4.01422 -0.676642 -0.370995 0
M  V30 22 H -2.1707 0.157226 -1.72492 0
M  V30 23 H -3.57786 1.89548 -0.844872 0
M  V30 24 H -1.82882 2.41482 -0.704902 0
M  V30 25 H -2.93486 2.98615 1.39001 0
M  V30 26 H -3.61317 1.29167 1.54532 0
M  V30 27 H -1.72207 0.610862 2.61744 0
M  V30 28 H -1.1234 2.25871 2.45876 0
M  V30 29 H 0.24341 1.916 0.718507 0
M  V30 30 H 0.274112 0.341152 1.59929 0
M  V30 31 H 1.4622 -2.22281 -2.51639 0
M  V30 32 H 3.85205 -2.64635 -2.56053 0
M  V30 33 H 5.38866 -1.46543 -1.12233 0
M  V30 34 H 2.1554 0.707152 0.508769 0
M  V30 35 H 4.35436 1.33589 1.03808 0
M  V30 36 H 5.61186 0.0762617 0.942342 0
M  V30 END ATOM
M  V30 BEGIN BOND
M  V30 1 1 1 2
M  V30 2 1 2 3
M  V30 3 1 3 4
M  V30 4 1 4 5
M  V30 5 1 5 6
M  V30 6 1 6 7
M  V30 7 1 7 8
M  V30 8 1 8 9
M  V30 9 2 9 10
M  V30 10 1 9 11
M  V30 11 2 11 12
M  V30 12 1 12 13
M  V30 13 2 13 14
M  V30 14 1 14 15
M  V30 15 2 15 16
M  V30 16 1 15 17
M  V30 17 1 8 3
M  V30 18 1 16 11
M  V30 19 1 1 18
M  V30 20 1 1 19
M  V30 21 1 2 20
M  V30 22 1 2 21
M  V30 23 1 3 22
M  V30 24 1 4 23
M  V30 25 1 4 24
M  V30 26 1 5 25
M  V30 27 1 5 26
M  V30 28 1 6 27
M  V30 29 1 6 28
M  V30 30 1 7 29
M  V30 31 1 7 30
M  V30 32 1 12 31
M  V30 33 1 13 32
M  V30 34 1 14 33
M  V30 35 1 16 34
M  V30 36 1 17 35
M  V30 37 1 17 36
M  V30 END BOND
M  V30 END CTAB
M  END
