
     RDKit          3D

  0  0  0  0  0  0  0  0  0  0999 V3000
M  V30 BEGIN CTAB
M  V30 COUNTS 32 33 0 0 0
M  V30 BEGIN ATOM
M  V30 1 N 5.14051 1.15743 0.93932 0
M  V30 2 C 4.52835 -0.141611 1.05973 0
M  V30 3 C 3.24944 -0.216025 0.295325 0
M  V30 4 C 2.54604 -1.39693 0.313968 0
M  V30 5 C 1.35177 -1.49616 -0.388408 0
M  V30 6 C 0.844492 -0.440648 -1.10954 0
M  V30 7 C 1.56602 0.732785 -1.11406 0
M  V30 8 C 2.76598 0.853392 -0.416386 0
M  V30 9 S -0.656338 -0.590195 -1.98273 0
M  V30 10 O -0.662074 0.282131 -3.20447 0
M  V30 11 O -0.858792 -2.0129 -2.45455 0
M  V30 12 C -2.02651 -0.147012 -1.01406 0
M  V30 13 C -2.63298 -1.1411 -0.275132 0
M  V30 14 C -3.71914 -0.911077 0.524333 0
M  V30 15 C -4.24921 0.351429 0.614739 0
M  V30 16 N -5.37639 0.581461 1.44669 0
M  V30 17 C -3.65313 1.35531 -0.118525 0
M  V30 18 C -2.54338 1.11885 -0.934976 0
M  V30 19 H 6.08227 1.10913 1.36532 0
M  V30 20 H 4.56242 1.85049 1.42833 0
M  V30 21 H 5.24207 -0.889387 0.669399 0
M  V30 22 H 4.34923 -0.412889 2.13709 0
M  V30 23 H 2.94781 -2.22736 0.882974 0
M  V30 24 H 0.836846 -2.44216 -0.343343 0
M  V30 25 H 1.235 1.60287 -1.65447 0
M  V30 26 H 3.32409 1.77893 -0.426776 0
M  V30 27 H -2.25463 -2.17264 -0.305679 0
M  V30 28 H -4.17764 -1.70455 1.09387 0
M  V30 29 H -6.08123 1.33268 1.26873 0
M  V30 30 H -5.53105 -0.0205716 2.28916 0
M  V30 31 H -4.07265 2.35084 -0.046027 0
M  V30 32 H -2.07719 1.90546 -1.50884 0
M  V30 END ATOM
M  V30 BEGIN BOND
M  V30 1 1 1 2
M  V30 2 1 2 3
M  V30 3 2 3 4
M  V30 4 1 4 5
M  V30 5 2 5 6
M  V30 6 1 6 7
M  V30 7 2 7 8
M  V30 8 1 6 9
M  V30 9 2 9 10
M  V30 10 2 9 11
M  V30 11 1 9 12
M  V30 12 2 12 13
M  V30 13 1 13 14
M  V30 14 2 14 15
M  V30 15 1 15 16
M  V30 16 1 15 17
M  V30 17 2 17 18
M  V30 18 1 8 3
M  V30 19 1 18 12
M  V30 20 1 1 19
M  V30 21 1 1 20
M  V30 22 1 2 21
M  V30 23 1 2 22
M  V30 24 1 4 23
M  V30 25 1 5 24
M  V30 26 1 7 25
M  V30 27 1 8 26
M  V30 28 1 13 27
M  V30 29 1 14 28
M  V30 30 1 16 29
M  V30 31 1 16 30
M  V30 32 1 17 31
M  V30 33 1 18 32
M  V30 END BOND
M  V30 END CTAB
M  END
