
     RDKit          3D

  0  0  0  0  0  0  0  0  0  0999 V3000
M  V30 BEGIN CTAB
M  V30 COUNTS 45 47 0 0 0
M  V30 BEGIN ATOM
M  V30 1 C -3.48609 -1.20675 0.36685 0
M  V30 2 C -3.40979 0.33941 0.406133 0
M  V30 3 C -3.60236 0.659564 1.86988 0
M  V30 4 N -4.51319 0.781435 -0.380947 0
M  V30 5 C -4.42717 1.49118 -1.43611 0
M  V30 6 N -5.6562 1.84687 -2.10844 0
M  V30 7 N -3.1924 1.94454 -1.97348 0
M  V30 8 C -2.13874 1.57559 -1.29713 0
M  V30 9 N -0.833368 1.98715 -1.76403 0
M  V30 10 N -2.17032 0.795027 -0.123508 0
M  V30 11 C -0.902783 0.491392 0.497808 0
M  V30 12 C -0.381806 1.33713 1.44012 0
M  V30 13 C 0.817137 1.07347 2.0452 0
M  V30 14 C 1.48934 -0.0750013 1.67652 0
M  V30 15 C 1.01353 -0.967879 0.730781 0
M  V30 16 C 1.7483 -2.20096 0.343911 0
M  V30 17 O 3.10002 -2.1935 0.593143 0
M  V30 18 C 3.98403 -1.33238 0.0247607 0
M  V30 19 C 3.62769 -0.379266 -0.881811 0
M  V30 20 C 4.62131 0.46243 -1.4065 0
M  V30 21 C 5.9222 0.348649 -1.03369 0
M  V30 22 C 6.28851 -0.610809 -0.120296 0
M  V30 23 C 5.3237 -1.45279 0.411118 0
M  V30 24 C -0.209598 -0.636465 0.157639 0
M  V30 25 H -4.39806 -1.46168 0.944013 0
M  V30 26 H -3.52874 -1.57222 -0.663376 0
M  V30 27 H -2.60165 -1.63918 0.866668 0
M  V30 28 H -2.68782 0.410608 2.41987 0
M  V30 29 H -4.45239 0.00862839 2.22404 0
M  V30 30 H -3.8844 1.68417 2.07916 0
M  V30 31 H -5.65413 2.08447 -3.12272 0
M  V30 32 H -6.54583 1.87116 -1.59983 0
M  V30 33 H -0.325188 2.79048 -1.38451 0
M  V30 34 H -0.38268 1.43639 -2.53005 0
M  V30 35 H -0.941606 2.24222 1.71042 0
M  V30 36 H 1.21198 1.76084 2.79207 0
M  V30 37 H 2.44767 -0.278525 2.16441 0
M  V30 38 H 1.21795 -3.0611 0.831086 0
M  V30 39 H 1.53995 -2.36102 -0.756851 0
M  V30 40 H 2.5967 -0.256108 -1.22292 0
M  V30 41 H 4.31002 1.19666 -2.11204 0
M  V30 42 H 6.71721 0.984822 -1.42111 0
M  V30 43 H 7.31282 -0.731495 0.199947 0
M  V30 44 H 5.6116 -2.2056 1.12801 0
M  V30 45 H -0.575356 -1.34402 -0.584236 0
M  V30 END ATOM
M  V30 BEGIN BOND
M  V30 1 1 1 2
M  V30 2 1 2 3
M  V30 3 1 2 4
M  V30 4 2 4 5
M  V30 5 1 5 6
M  V30 6 1 5 7
M  V30 7 2 7 8
M  V30 8 1 8 9
M  V30 9 1 8 10
M  V30 10 1 10 11
M  V30 11 2 11 12
M  V30 12 1 12 13
M  V30 13 2 13 14
M  V30 14 1 14 15
M  V30 15 1 15 16
M  V30 16 1 16 17
M  V30 17 1 17 18
M  V30 18 2 18 19
M  V30 19 1 19 20
M  V30 20 2 20 21
M  V30 21 1 21 22
M  V30 22 2 22 23
M  V30 23 2 15 24
M  V30 24 1 10 2
M  V30 25 1 24 11
M  V30 26 1 23 18
M  V30 27 1 1 25
M  V30 28 1 1 26
M  V30 29 1 1 27
M  V30 30 1 3 28
M  V30 31 1 3 29
M  V30 32 1 3 30
M  V30 33 1 6 31
M  V30 34 1 6 32
M  V30 35 1 9 33
M  V30 36 1 9 34
M  V30 37 1 12 35
M  V30 38 1 13 36
M  V30 39 1 14 37
M  V30 40 1 16 38
M  V30 41 1 16 39
M  V30 42 1 19 40
M  V30 43 1 20 41
M  V30 44 1 21 42
M  V30 45 1 22 43
M  V30 46 1 23 44
M  V30 47 1 24 45
M  V30 END BOND
M  V30 END CTAB
M  END
