
     RDKit          3D

  0  0  0  0  0  0  0  0  0  0999 V3000
M  V30 BEGIN CTAB
M  V30 COUNTS 35 37 0 0 0
M  V30 BEGIN ATOM
M  V30 1 N -2.86966 -1.89534 0.439769 0
M  V30 2 C -3.64231 -0.728538 0.671444 0
M  V30 3 N -4.7699 -0.713937 1.31617 0
M  V30 4 N -5.28277 0.577699 1.37603 0
M  V30 5 C -4.50717 1.41751 0.778207 0
M  V30 6 N -4.68504 2.81343 0.626796 0
M  V30 7 C -3.38153 0.643046 0.27261 0
M  V30 8 N -2.36694 1.06093 -0.385783 0
M  V30 9 N -1.37002 0.145051 -0.791777 0
M  V30 10 C -0.0570792 0.264387 -0.28682 0
M  V30 11 C 0.211295 1.29936 0.608748 0
M  V30 12 C 1.46674 1.46758 1.13368 0
M  V30 13 C 2.4553 0.587726 0.75318 0
M  V30 14 C 2.24402 -0.464199 -0.137307 0
M  V30 15 C 3.28492 -1.31123 -0.4712 0
M  V30 16 C 3.02582 -2.33797 -1.35375 0
M  V30 17 C 1.76239 -2.49339 -1.87172 0
M  V30 18 C 0.721501 -1.64869 -1.53921 0
M  V30 19 C 0.954837 -0.598052 -0.646007 0
M  V30 20 S 4.06484 0.781411 1.38956 0
M  V30 21 O 5.14154 1.0811 0.134897 0
M  V30 22 O 4.49212 -0.364993 2.25844 0
M  V30 23 O 4.06609 1.99592 2.28673 0
M  V30 24 H -2.20784 -2.28088 1.15926 0
M  V30 25 H -2.96654 -2.38156 -0.476931 0
M  V30 26 H -4.63369 3.41593 1.47553 0
M  V30 27 H -4.86319 3.234 -0.30759 0
M  V30 28 H -1.6985 -0.57173 -1.45693 0
M  V30 29 H -0.589591 1.99312 0.902017 0
M  V30 30 H 1.62924 2.28153 1.82283 0
M  V30 31 H 4.28136 -1.17121 -0.043981 0
M  V30 32 H 3.84747 -3.01166 -1.62145 0
M  V30 33 H 1.54633 -3.30602 -2.57384 0
M  V30 34 H -0.268131 -1.77629 -1.94946 0
M  V30 35 H 4.96408 1.99594 -0.197486 0
M  V30 END ATOM
M  V30 BEGIN BOND
M  V30 1 1 1 2
M  V30 2 2 2 3
M  V30 3 1 3 4
M  V30 4 2 4 5
M  V30 5 1 5 6
M  V30 6 1 5 7
M  V30 7 2 7 8
M  V30 8 1 8 9
M  V30 9 1 9 10
M  V30 10 2 10 11
M  V30 11 1 11 12
M  V30 12 2 12 13
M  V30 13 1 13 14
M  V30 14 2 14 15
M  V30 15 1 15 16
M  V30 16 2 16 17
M  V30 17 1 17 18
M  V30 18 2 18 19
M  V30 19 1 13 20
M  V30 20 1 20 21
M  V30 21 2 20 22
M  V30 22 2 20 23
M  V30 23 1 7 2
M  V30 24 1 19 10
M  V30 25 1 19 14
M  V30 26 1 1 24
M  V30 27 1 1 25
M  V30 28 1 6 26
M  V30 29 1 6 27
M  V30 30 1 9 28
M  V30 31 1 11 29
M  V30 32 1 12 30
M  V30 33 1 15 31
M  V30 34 1 16 32
M  V30 35 1 17 33
M  V30 36 1 18 34
M  V30 37 1 21 35
M  V30 END BOND
M  V30 END CTAB
M  END
