
     RDKit          3D

  0  0  0  0  0  0  0  0  0  0999 V3000
M  V30 BEGIN CTAB
M  V30 COUNTS 62 65 0 0 0
M  V30 BEGIN ATOM
M  V30 1 C 10.2111 2.39803 -1.21813 0
M  V30 2 C 8.89502 2.04575 -0.604586 0
M  V30 3 N 8.16465 1.1116 -1.23722 0
M  V30 4 C 6.95016 0.698808 -0.786456 0
M  V30 5 C 6.22215 -0.250379 -1.44135 0
M  V30 6 C 4.98652 -0.638808 -0.941255 0
M  V30 7 C 4.44472 -0.116204 0.192575 0
M  V30 8 N 3.2196 -0.486965 0.745836 0
M  V30 9 C 2.45053 -1.6258 0.464269 0
M  V30 10 O 2.8387 -2.46868 -0.368932 0
M  V30 11 C 1.1365 -1.84302 1.1726 0
M  V30 12 C 0.412685 -3.06048 0.715155 0
M  V30 13 C 0.0129972 -3.09442 -0.719602 0
M  V30 14 C -0.877535 -2.00426 -1.19187 0
M  V30 15 C -2.21439 -1.96355 -0.492506 0
M  V30 16 O -2.43012 -2.86419 0.332386 0
M  V30 17 N -3.14134 -0.965828 -0.768547 0
M  V30 18 C -4.41151 -0.768775 -0.221675 0
M  V30 19 C -4.87758 -1.41108 0.882368 0
M  V30 20 C -6.17452 -1.16196 1.34729 0
M  V30 21 C -7.01491 -0.279161 0.725869 0
M  V30 22 N -8.26887 -0.0327952 1.16813 0
M  V30 23 C -9.11447 0.826464 0.579627 0
M  V30 24 C -10.5009 1.06555 1.11096 0
M  V30 25 C -8.68716 1.50247 -0.543153 0
M  V30 26 C -7.40873 1.27474 -1.02401 0
M  V30 27 N -6.93335 1.94136 -2.16433 0
M  V30 28 C -6.56159 0.379699 -0.390744 0
M  V30 29 C -5.30115 0.139981 -0.846066 0
M  V30 30 C 5.22913 0.863174 0.84028 0
M  V30 31 C 6.4479 1.26762 0.374409 0
M  V30 32 C 7.21163 2.22966 1.01646 0
M  V30 33 N 6.70869 2.82065 2.20718 0
M  V30 34 C 8.44138 2.63442 0.54256 0
M  V30 35 H 10.0698 2.50514 -2.31585 0
M  V30 36 H 10.8764 1.4954 -1.09198 0
M  V30 37 H 10.6599 3.28388 -0.754102 0
M  V30 38 H 6.59412 -0.696344 -2.33384 0
M  V30 39 H 4.45054 -1.39646 -1.52709 0
M  V30 40 H 2.8172 0.195628 1.48153 0
M  V30 41 H 0.536917 -0.915306 1.12272 0
M  V30 42 H 1.40229 -1.99326 2.23973 0
M  V30 43 H -0.368502 -3.38055 1.4309 0
M  V30 44 H 1.18592 -3.90399 0.812513 0
M  V30 45 H -0.609569 -4.05004 -0.823697 0
M  V30 46 H 0.830506 -3.23886 -1.42797 0
M  V30 47 H -1.12762 -2.22186 -2.25685 0
M  V30 48 H -0.406426 -1.00291 -1.19451 0
M  V30 49 H -2.83287 -0.246224 -1.50338 0
M  V30 50 H -4.25983 -2.12451 1.43953 0
M  V30 51 H -6.52288 -1.68035 2.22054 0
M  V30 52 H -10.6325 2.13205 1.3933 0
M  V30 53 H -11.194 0.717773 0.338663 0
M  V30 54 H -10.6183 0.405287 1.98945 0
M  V30 55 H -9.36419 2.19276 -1.01732 0
M  V30 56 H -6.10679 2.56426 -2.14514 0
M  V30 57 H -7.41739 1.82352 -3.09784 0
M  V30 58 H -4.95273 0.668363 -1.73312 0
M  V30 59 H 4.84943 1.31394 1.74567 0
M  V30 60 H 6.38356 2.15974 2.95581 0
M  V30 61 H 6.65761 3.84561 2.34759 0
M  V30 62 H 9.03349 3.38369 1.04503 0
M  V30 END ATOM
M  V30 BEGIN BOND
M  V30 1 1 1 2
M  V30 2 2 2 3
M  V30 3 1 3 4
M  V30 4 2 4 5
M  V30 5 1 5 6
M  V30 6 2 6 7
M  V30 7 1 7 8
M  V30 8 1 8 9
M  V30 9 2 9 10
M  V30 10 1 9 11
M  V30 11 1 11 12
M  V30 12 1 12 13
M  V30 13 1 13 14
M  V30 14 1 14 15
M  V30 15 2 15 16
M  V30 16 1 15 17
M  V30 17 1 17 18
M  V30 18 2 18 19
M  V30 19 1 19 20
M  V30 20 2 20 21
M  V30 21 1 21 22
M  V30 22 2 22 23
M  V30 23 1 23 24
M  V30 24 1 23 25
M  V30 25 2 25 26
M  V30 26 1 26 27
M  V30 27 1 26 28
M  V30 28 2 28 29
M  V30 29 1 7 30
M  V30 30 2 30 31
M  V30 31 1 31 32
M  V30 32 1 32 33
M  V30 33 2 32 34
M  V30 34 1 34 2
M  V30 35 1 31 4
M  V30 36 1 29 18
M  V30 37 1 28 21
M  V30 38 1 1 35
M  V30 39 1 1 36
M  V30 40 1 1 37
M  V30 41 1 5 38
M  V30 42 1 6 39
M  V30 43 1 8 40
M  V30 44 1 11 41
M  V30 45 1 11 42
M  V30 46 1 12 43
M  V30 47 1 12 44
M  V30 48 1 13 45
M  V30 49 1 13 46
M  V30 50 1 14 47
M  V30 51 1 14 48
M  V30 52 1 17 49
M  V30 53 1 19 50
M  V30 54 1 20 51
M  V30 55 1 24 52
M  V30 56 1 24 53
M  V30 57 1 24 54
M  V30 58 1 25 55
M  V30 59 1 27 56
M  V30 60 1 27 57
M  V30 61 1 29 58
M  V30 62 1 30 59
M  V30 63 1 33 60
M  V30 64 1 33 61
M  V30 65 1 34 62
M  V30 END BOND
M  V30 END CTAB
M  END
