
     RDKit          3D

  0  0  0  0  0  0  0  0  0  0999 V3000
M  V30 BEGIN CTAB
M  V30 COUNTS 44 46 0 0 0
M  V30 BEGIN ATOM
M  V30 1 C -7.32339 -2.20433 0.229862 0
M  V30 2 O -6.66816 -0.969602 0.344069 0
M  V30 3 C -5.29756 -0.862915 0.313059 0
M  V30 4 C -4.45364 -1.96924 0.16621 0
M  V30 5 C -3.09637 -1.83893 0.138466 0
M  V30 6 C -2.5292 -0.561113 0.260426 0
M  V30 7 C -3.3534 0.525631 0.403945 0
M  V30 8 C -4.7389 0.383442 0.431537 0
M  V30 9 S -5.73801 1.79347 0.616357 0
M  V30 10 O -6.55521 1.70172 1.88534 0
M  V30 11 O -6.66188 1.97715 -0.557261 0
M  V30 12 N -4.7542 3.1884 0.737809 0
M  V30 13 N -1.13315 -0.453848 0.210131 0
M  V30 14 C -0.334417 0.618894 0.636627 0
M  V30 15 O -0.804659 1.64913 1.14076 0
M  V30 16 C 1.1449 0.53125 0.483776 0
M  V30 17 S 1.56615 -1.04183 -0.263305 0
M  V30 18 C 3.32412 -1.23249 -0.484268 0
M  V30 19 N 3.90889 -2.30438 -1.01607 0
M  V30 20 N 5.22025 -2.13138 -1.03764 0
M  V30 21 C 5.50645 -0.909305 -0.504136 0
M  V30 22 N 4.33123 -0.375846 -0.171913 0
M  V30 23 N 4.0708 0.854099 0.406927 0
M  V30 24 C 6.8568 -0.344108 -0.350453 0
M  V30 25 C 7.22175 0.859382 0.168596 0
M  V30 26 C 8.53451 1.14931 0.200055 0
M  V30 27 C 9.4 0.210689 -0.292631 0
M  V30 28 S 8.36013 -1.04476 -0.783728 0
M  V30 29 H -8.39305 -2.06424 0.494912 0
M  V30 30 H -7.29659 -2.62766 -0.7984 0
M  V30 31 H -6.85242 -2.92328 0.925551 0
M  V30 32 H -4.94175 -2.93151 0.076271 0
M  V30 33 H -2.48426 -2.69983 0.0261231 0
M  V30 34 H -2.97553 1.53739 0.489623 0
M  V30 35 H -5.30139 4.07499 0.656818 0
M  V30 36 H -4.03405 3.20192 -0.0403484 0
M  V30 37 H -0.630482 -1.31806 -0.220887 0
M  V30 38 H 1.55036 0.543975 1.53827 0
M  V30 39 H 1.51591 1.40504 -0.0906061 0
M  V30 40 H 3.96291 1.73335 -0.144739 0
M  V30 41 H 3.97917 0.895916 1.44738 0
M  V30 42 H 6.45791 1.58187 0.55529 0
M  V30 43 H 8.9334 2.10888 0.605662 0
M  V30 44 H 10.5061 0.282769 -0.344378 0
M  V30 END ATOM
M  V30 BEGIN BOND
M  V30 1 1 1 2
M  V30 2 1 2 3
M  V30 3 2 3 4
M  V30 4 1 4 5
M  V30 5 2 5 6
M  V30 6 1 6 7
M  V30 7 2 7 8
M  V30 8 1 8 9
M  V30 9 2 9 10
M  V30 10 2 9 11
M  V30 11 1 9 12
M  V30 12 1 6 13
M  V30 13 1 13 14
M  V30 14 2 14 15
M  V30 15 1 14 16
M  V30 16 1 16 17
M  V30 17 1 17 18
M  V30 18 2 18 19
M  V30 19 1 19 20
M  V30 20 2 20 21
M  V30 21 1 21 22
M  V30 22 1 22 23
M  V30 23 1 21 24
M  V30 24 2 24 25
M  V30 25 1 25 26
M  V30 26 2 26 27
M  V30 27 1 27 28
M  V30 28 1 8 3
M  V30 29 1 22 18
M  V30 30 1 28 24
M  V30 31 1 1 29
M  V30 32 1 1 30
M  V30 33 1 1 31
M  V30 34 1 4 32
M  V30 35 1 5 33
M  V30 36 1 7 34
M  V30 37 1 12 35
M  V30 38 1 12 36
M  V30 39 1 13 37
M  V30 40 1 16 38
M  V30 41 1 16 39
M  V30 42 1 23 40
M  V30 43 1 23 41
M  V30 44 1 25 42
M  V30 45 1 26 43
M  V30 46 1 27 44
M  V30 END BOND
M  V30 END CTAB
M  END
