
     RDKit          3D

  0  0  0  0  0  0  0  0  0  0999 V3000
M  V30 BEGIN CTAB
M  V30 COUNTS 65 68 0 0 0
M  V30 BEGIN ATOM
M  V30 1 C -0.800826 -3.3241 0.91494 0
M  V30 2 C -1.04798 -2.05967 1.65445 0
M  V30 3 C -0.466436 -0.805051 1.13455 0
M  V30 4 N -0.775941 -0.362943 -0.182962 0
M  V30 5 C -1.85904 0.450807 -0.598717 0
M  V30 6 C -1.58539 1.7904 -0.965959 0
M  V30 7 O -0.367485 2.12787 -0.907875 0
M  V30 8 N -2.56201 2.61008 -1.34017 0
M  V30 9 C -3.84706 2.21805 -1.38986 0
M  V30 10 O -4.74138 3.06625 -1.76345 0
M  V30 11 N -4.1555 0.958172 -1.05007 0
M  V30 12 C -3.16054 0.0928903 -0.663659 0
M  V30 13 N -3.53459 -1.23678 -0.465418 0
M  V30 14 C -5.51068 0.51696 -1.09402 0
M  V30 15 C -6.3454 0.92156 0.0815643 0
M  V30 16 C -7.24459 1.96473 -0.0468298 0
M  V30 17 C -8.01882 2.36773 1.00459 0
M  V30 18 C -7.94674 1.7615 2.24274 0
M  V30 19 C -7.05991 0.721755 2.39304 0
M  V30 20 C -6.26627 0.310715 1.30839 0
M  V30 21 C 0.13398 -0.76804 -1.24724 0
M  V30 22 O -0.233044 -0.695665 -2.46842 0
M  V30 23 C 1.4847 -1.24075 -0.943709 0
M  V30 24 S 2.52064 -1.39604 -2.44858 0
M  V30 25 C 4.22926 -1.3925 -1.85033 0
M  V30 26 N 5.01613 -2.38546 -1.50053 0
M  V30 27 N 6.17468 -1.93402 -1.05364 0
M  V30 28 C 6.16177 -0.564835 -1.10941 0
M  V30 29 N 4.96655 -0.25314 -1.59961 0
M  V30 30 N 4.4378 1.00166 -1.82739 0
M  V30 31 C 7.27405 0.213112 -0.600708 0
M  V30 32 C 8.14832 -0.395744 0.316452 0
M  V30 33 C 9.23842 0.239439 0.854844 0
M  V30 34 C 9.51714 1.5369 0.498922 0
M  V30 35 C 8.6977 2.15475 -0.381612 0
M  V30 36 C 7.59157 1.50171 -0.925803 0
M  V30 37 F 6.90014 2.22526 -1.81677 0
M  V30 38 C -0.388916 -2.35205 3.06859 0
M  V30 39 H -1.60638 -4.05276 1.23107 0
M  V30 40 H 0.14809 -3.82328 1.08517 0
M  V30 41 H -0.999926 -3.16198 -0.187972 0
M  V30 42 H -2.09808 -1.91915 1.95024 0
M  V30 43 H 0.666261 -0.928757 1.22494 0
M  V30 44 H -0.628776 0.046495 1.89405 0
M  V30 45 H -2.34739 3.59205 -1.6124 0
M  V30 46 H -3.38463 -1.90879 -1.27577 0
M  V30 47 H -3.93882 -1.66015 0.373751 0
M  V30 48 H -5.98773 0.861532 -2.01853 0
M  V30 49 H -5.49876 -0.621699 -1.05342 0
M  V30 50 H -7.33236 2.44237 -1.00597 0
M  V30 51 H -8.73611 3.1992 0.917901 0
M  V30 52 H -8.5881 2.11543 3.05735 0
M  V30 53 H -6.9565 0.202981 3.33875 0
M  V30 54 H -5.59632 -0.502985 1.46729 0
M  V30 55 H 1.9856 -0.417992 -0.350291 0
M  V30 56 H 1.53663 -2.18205 -0.424306 0
M  V30 57 H 4.14734 1.64322 -1.04246 0
M  V30 58 H 4.28545 1.39977 -2.78374 0
M  V30 59 H 7.95179 -1.42149 0.614006 0
M  V30 60 H 9.8768 -0.280949 1.56379 0
M  V30 61 H 10.3967 2.00451 0.955696 0
M  V30 62 H 8.93275 3.19541 -0.648717 0
M  V30 63 H 0.683559 -2.53444 2.88627 0
M  V30 64 H -0.637694 -1.55648 3.76408 0
M  V30 65 H -0.847776 -3.31553 3.34403 0
M  V30 END ATOM
M  V30 BEGIN BOND
M  V30 1 1 1 2
M  V30 2 1 2 3
M  V30 3 1 3 4
M  V30 4 1 4 5
M  V30 5 1 5 6
M  V30 6 2 6 7
M  V30 7 1 6 8
M  V30 8 1 8 9
M  V30 9 2 9 10
M  V30 10 1 9 11
M  V30 11 1 11 12
M  V30 12 1 12 13
M  V30 13 1 11 14
M  V30 14 1 14 15
M  V30 15 2 15 16
M  V30 16 1 16 17
M  V30 17 2 17 18
M  V30 18 1 18 19
M  V30 19 2 19 20
M  V30 20 1 4 21
M  V30 21 2 21 22
M  V30 22 1 21 23
M  V30 23 1 23 24
M  V30 24 1 24 25
M  V30 25 2 25 26
M  V30 26 1 26 27
M  V30 27 2 27 28
M  V30 28 1 28 29
M  V30 29 1 29 30
M  V30 30 1 28 31
M  V30 31 2 31 32
M  V30 32 1 32 33
M  V30 33 2 33 34
M  V30 34 1 34 35
M  V30 35 2 35 36
M  V30 36 1 36 37
M  V30 37 1 2 38
M  V30 38 2 12 5
M  V30 39 1 20 15
M  V30 40 1 29 25
M  V30 41 1 36 31
M  V30 42 1 1 39
M  V30 43 1 1 40
M  V30 44 1 1 41
M  V30 45 1 2 42
M  V30 46 1 3 43
M  V30 47 1 3 44
M  V30 48 1 8 45
M  V30 49 1 13 46
M  V30 50 1 13 47
M  V30 51 1 14 48
M  V30 52 1 14 49
M  V30 53 1 16 50
M  V30 54 1 17 51
M  V30 55 1 18 52
M  V30 56 1 19 53
M  V30 57 1 20 54
M  V30 58 1 23 55
M  V30 59 1 23 56
M  V30 60 1 30 57
M  V30 61 1 30 58
M  V30 62 1 32 59
M  V30 63 1 33 60
M  V30 64 1 34 61
M  V30 65 1 35 62
M  V30 66 1 38 63
M  V30 67 1 38 64
M  V30 68 1 38 65
M  V30 END BOND
M  V30 END CTAB
M  END
