
     RDKit          3D

  0  0  0  0  0  0  0  0  0  0999 V3000
M  V30 BEGIN CTAB
M  V30 COUNTS 40 42 0 0 0
M  V30 BEGIN ATOM
M  V30 1 N -7.19028 -0.826896 -0.134428 0
M  V30 2 C -6.6234 0.419331 0.210867 0
M  V30 3 N -7.43488 1.39528 0.457852 0
M  V30 4 C -5.18248 0.560867 0.270595 0
M  V30 5 C -4.38005 -0.519806 -0.00177131 0
M  V30 6 C -3.00247 -0.455238 0.0279368 0
M  V30 7 C -2.37493 0.733061 0.344253 0
M  V30 8 C -3.16718 1.8303 0.622726 0
M  V30 9 C -4.54008 1.74262 0.584386 0
M  V30 10 C -0.926087 0.843865 0.379736 0
M  V30 11 C -0.0738643 -0.24968 0.133345 0
M  V30 12 C 1.21878 0.137647 0.23229 0
M  V30 13 N 1.09144 1.48968 0.543797 0
M  V30 14 O -0.131687 1.83413 0.614003 0
M  V30 15 C 2.53339 -0.488656 0.0913265 0
M  V30 16 C 3.64325 0.385966 0.102701 0
M  V30 17 C 4.94261 -0.0648916 0.0758958 0
M  V30 18 C 5.21751 -1.4071 0.0370538 0
M  V30 19 C 4.16323 -2.26327 0.0243824 0
M  V30 20 C 2.80601 -1.8099 0.0495424 0
M  V30 21 N 1.88871 -2.86696 0.0507973 0 CHG=1
M  V30 22 O 2.25036 -3.99911 0.830478 0 CHG=-1
M  V30 23 O 0.875389 -3.04087 -0.595051 0
M  V30 24 C 6.01904 0.923047 0.080948 0
M  V30 25 N 5.70913 2.31852 0.124929 0
M  V30 26 N 7.2505 0.625848 0.0489095 0
M  V30 27 H -7.4753 -1.52164 0.57841 0
M  V30 28 H -7.32505 -1.04896 -1.14007 0
M  V30 29 H -7.13343 2.34175 0.716543 0
M  V30 30 H -4.82983 -1.48282 -0.264463 0
M  V30 31 H -2.43593 -1.35946 -0.199349 0
M  V30 32 H -2.66317 2.76318 0.871776 0
M  V30 33 H -5.13433 2.61039 0.807297 0
M  V30 34 H -0.422859 -1.23247 -0.092528 0
M  V30 35 H 3.44467 1.44744 0.129928 0
M  V30 36 H 6.23872 -1.73305 0.0170786 0
M  V30 37 H 4.35578 -3.33435 -0.0031935 0
M  V30 38 H 5.83137 2.84315 1.00701 0
M  V30 39 H 5.36606 2.79573 -0.721311 0
M  V30 40 H 7.60132 -0.336679 0.0163406 0
M  V30 END ATOM
M  V30 BEGIN BOND
M  V30 1 1 1 2
M  V30 2 2 2 3 CFG=2
M  V30 3 1 2 4
M  V30 4 2 4 5
M  V30 5 1 5 6
M  V30 6 2 6 7
M  V30 7 1 7 8
M  V30 8 2 8 9
M  V30 9 1 7 10
M  V30 10 2 10 11
M  V30 11 1 11 12
M  V30 12 2 12 13
M  V30 13 1 13 14
M  V30 14 1 12 15
M  V30 15 2 15 16
M  V30 16 1 16 17
M  V30 17 2 17 18
M  V30 18 1 18 19
M  V30 19 2 19 20
M  V30 20 1 20 21
M  V30 21 1 21 22
M  V30 22 2 21 23
M  V30 23 1 17 24
M  V30 24 1 24 25
M  V30 25 2 24 26 CFG=2
M  V30 26 1 9 4
M  V30 27 1 14 10
M  V30 28 1 20 15
M  V30 29 1 1 27
M  V30 30 1 1 28
M  V30 31 1 3 29
M  V30 32 1 5 30
M  V30 33 1 6 31
M  V30 34 1 8 32
M  V30 35 1 9 33
M  V30 36 1 11 34
M  V30 37 1 16 35
M  V30 38 1 18 36
M  V30 39 1 19 37
M  V30 40 1 25 38
M  V30 41 1 25 39
M  V30 42 1 26 40
M  V30 END BOND
M  V30 END CTAB
M  END
