
     RDKit          3D

  0  0  0  0  0  0  0  0  0  0999 V3000
M  V30 BEGIN CTAB
M  V30 COUNTS 32 32 0 0 0
M  V30 BEGIN ATOM
M  V30 1 C -2.75179 -1.35187 0.322296 0
M  V30 2 C -3.21624 -0.258298 -0.567943 0
M  V30 3 C -2.51763 1.05137 -0.339127 0
M  V30 4 C -1.05199 1.04764 -0.538755 0
M  V30 5 O -0.426245 0.156905 0.36915 0
M  V30 6 C 0.962407 -0.00692531 0.352887 0
M  V30 7 C 1.75671 0.677574 -0.541702 0
M  V30 8 C 3.11418 0.487455 -0.525879 0
M  V30 9 N 3.95301 1.17889 -1.43491 0
M  V30 10 C 3.70131 -0.393123 0.387769 0
M  V30 11 C 2.91279 -1.07816 1.28239 0
M  V30 12 C 1.52879 -0.869091 1.24924 0
M  V30 13 Br 0.512256 -1.8621 2.55017 0
M  V30 14 N 5.11229 -0.540251 0.346569 0
M  V30 15 C -4.70598 0.0027277 -0.340279 0
M  V30 16 H -1.83735 -1.87156 -0.044126 0
M  V30 17 H -2.4501 -0.890971 1.30825 0
M  V30 18 H -3.5184 -2.13377 0.487604 0
M  V30 19 H -3.10522 -0.579857 -1.64232 0
M  V30 20 H -2.81406 1.37315 0.691201 0
M  V30 21 H -2.96157 1.80452 -1.04981 0
M  V30 22 H -0.590469 2.03973 -0.545875 0
M  V30 23 H -0.838199 0.607595 -1.55799 0
M  V30 24 H 1.30687 1.34631 -1.23497 0
M  V30 25 H 3.80101 2.19552 -1.56965 0
M  V30 26 H 4.70283 0.705868 -1.96136 0
M  V30 27 H 3.36061 -1.76384 1.99521 0
M  V30 28 H 5.70246 -0.354307 1.17675 0
M  V30 29 H 5.56606 -0.840941 -0.534273 0
M  V30 30 H -4.85769 0.813739 0.398516 0
M  V30 31 H -5.14704 -0.922596 0.0799672 0
M  V30 32 H -5.20362 0.228677 -1.29514 0
M  V30 END ATOM
M  V30 BEGIN BOND
M  V30 1 1 1 2
M  V30 2 1 2 3
M  V30 3 1 3 4
M  V30 4 1 4 5
M  V30 5 1 5 6
M  V30 6 2 6 7
M  V30 7 1 7 8
M  V30 8 1 8 9
M  V30 9 2 8 10
M  V30 10 1 10 11
M  V30 11 2 11 12
M  V30 12 1 12 13
M  V30 13 1 10 14
M  V30 14 1 2 15
M  V30 15 1 12 6
M  V30 16 1 1 16
M  V30 17 1 1 17
M  V30 18 1 1 18
M  V30 19 1 2 19
M  V30 20 1 3 20
M  V30 21 1 3 21
M  V30 22 1 4 22
M  V30 23 1 4 23
M  V30 24 1 7 24
M  V30 25 1 9 25
M  V30 26 1 9 26
M  V30 27 1 11 27
M  V30 28 1 14 28
M  V30 29 1 14 29
M  V30 30 1 15 30
M  V30 31 1 15 31
M  V30 32 1 15 32
M  V30 END BOND
M  V30 END CTAB
M  END
