
     RDKit          3D

  0  0  0  0  0  0  0  0  0  0999 V3000
M  V30 BEGIN CTAB
M  V30 COUNTS 32 33 0 0 0
M  V30 BEGIN ATOM
M  V30 1 N -4.19453 1.41907 -0.921775 0
M  V30 2 C -3.07487 1.12261 -0.0898062 0
M  V30 3 C -2.72937 -0.325248 -0.30163 0
M  V30 4 N -1.61234 -0.774736 0.475246 0
M  V30 5 C -1.35296 -2.15015 0.215497 0
M  V30 6 C -0.0240974 -2.643 0.737681 0
M  V30 7 O 0.955707 -1.82433 0.236255 0
M  V30 8 C 0.809017 -0.545094 0.765399 0 CFG=2
M  V30 9 C -0.494427 0.094404 0.470109 0
M  V30 10 N 1.94296 0.281546 0.336027 0
M  V30 11 C 1.92588 1.50399 -0.190025 0
M  V30 12 C 3.20769 1.90405 -0.445004 0
M  V30 13 C 4.01525 0.869568 -0.0508544 0
M  V30 14 N 3.19744 -0.0881993 0.414776 0
M  V30 15 N 5.4503 0.859256 -0.138717 0
M  V30 16 H -4.15098 0.944273 -1.80414 0
M  V30 17 H -5.05109 1.65078 -0.521061 0
M  V30 18 H -2.28276 1.82161 -0.349882 0
M  V30 19 H -3.4249 1.22096 0.975193 0
M  V30 20 H -3.64071 -0.913843 -0.0688676 0
M  V30 21 H -2.51156 -0.48884 -1.37769 0
M  V30 22 H -1.31364 -2.27992 -0.899489 0
M  V30 23 H -2.14466 -2.83319 0.572757 0
M  V30 24 H 0.131949 -3.6641 0.33449 0
M  V30 25 H 0.0171502 -2.64329 1.84259 0
M  V30 26 H 0.940977 -0.655917 1.8754 0
M  V30 27 H -0.479355 0.641146 -0.499562 0
M  V30 28 H -0.69097 0.898366 1.23961 0
M  V30 29 H 1.05687 2.10412 -0.392919 0
M  V30 30 H 3.55311 2.82914 -0.866156 0
M  V30 31 H 5.92992 0.0278565 -0.55349 0
M  V30 32 H 6.039 1.6371 0.189288 0
M  V30 END ATOM
M  V30 BEGIN BOND
M  V30 1 1 1 2
M  V30 2 1 2 3
M  V30 3 1 3 4
M  V30 4 1 4 5
M  V30 5 1 5 6
M  V30 6 1 6 7
M  V30 7 1 7 8
M  V30 8 1 8 9
M  V30 9 1 8 10
M  V30 10 1 10 11
M  V30 11 2 11 12
M  V30 12 1 12 13
M  V30 13 2 13 14
M  V30 14 1 13 15
M  V30 15 1 9 4
M  V30 16 1 14 10
M  V30 17 1 1 16
M  V30 18 1 1 17
M  V30 19 1 2 18
M  V30 20 1 2 19
M  V30 21 1 3 20
M  V30 22 1 3 21
M  V30 23 1 5 22
M  V30 24 1 5 23
M  V30 25 1 6 24
M  V30 26 1 6 25
M  V30 27 1 8 26 CFG=1
M  V30 28 1 9 27
M  V30 29 1 9 28
M  V30 30 1 11 29
M  V30 31 1 12 30
M  V30 32 1 15 31
M  V30 33 1 15 32
M  V30 END BOND
M  V30 END CTAB
M  END
