
     RDKit          3D

  0  0  0  0  0  0  0  0  0  0999 V3000
M  V30 BEGIN CTAB
M  V30 COUNTS 48 49 0 0 0
M  V30 BEGIN ATOM
M  V30 1 N -3.73598 1.38925 2.27745 0
M  V30 2 C -2.69254 1.0817 1.32643 0
M  V30 3 C -2.93265 -0.214468 0.606071 0
M  V30 4 C -4.20239 -0.250115 -0.168468 0
M  V30 5 C -4.03246 0.660931 -1.36911 0
M  V30 6 C -3.01323 0.0291299 -2.25631 0
M  V30 7 C -1.70099 -0.262293 -1.61581 0
M  V30 8 N -1.74373 -0.501862 -0.201878 0
M  V30 9 C -0.57772 -1.04137 0.442042 0
M  V30 10 O -0.669651 -1.23626 1.67047 0
M  V30 11 C 0.646415 -1.35044 -0.262901 0
M  V30 12 C 1.93609 -0.748782 0.222274 0
M  V30 13 C 2.2159 -1.18847 1.64155 0
M  V30 14 N 3.50521 -0.614551 2.09234 0
M  V30 15 C 1.69894 0.732566 0.253361 0
M  V30 16 C 2.88401 1.60635 0.182972 0
M  V30 17 C 3.70406 1.20228 -1.01492 0
M  V30 18 C 4.10545 -0.242324 -0.986971 0
M  V30 19 C 3.04137 -1.20577 -0.674173 0
M  V30 20 H -4.34053 0.560708 2.48541 0
M  V30 21 H -4.28913 2.22794 1.97143 0
M  V30 22 H -2.47662 1.89481 0.61094 0
M  V30 23 H -1.75353 0.945388 1.93597 0
M  V30 24 H -2.99345 -1.02127 1.39729 0
M  V30 25 H -5.01525 0.0550089 0.484187 0
M  V30 26 H -4.35554 -1.27803 -0.552013 0
M  V30 27 H -5.01129 0.654695 -1.91534 0
M  V30 28 H -3.81591 1.68906 -1.07548 0
M  V30 29 H -3.46699 -0.90413 -2.68749 0
M  V30 30 H -2.8136 0.7614 -3.09453 0
M  V30 31 H -0.93962 0.510873 -1.86908 0
M  V30 32 H -1.31552 -1.21335 -2.09554 0
M  V30 33 H 0.57821 -1.12632 -1.361 0
M  V30 34 H 0.829936 -2.47134 -0.254391 0
M  V30 35 H 2.36258 -2.26551 1.64915 0
M  V30 36 H 1.48093 -0.821524 2.37957 0
M  V30 37 H 3.35283 0.109007 2.82719 0
M  V30 38 H 4.09913 -1.35664 2.53504 0
M  V30 39 H 1.03657 0.992203 -0.615883 0
M  V30 40 H 1.08829 0.990336 1.14776 0
M  V30 41 H 2.49804 2.64357 -0.0693177 0
M  V30 42 H 3.48117 1.74249 1.08075 0
M  V30 43 H 4.59261 1.86347 -1.03665 0
M  V30 44 H 3.09793 1.44576 -1.90985 0
M  V30 45 H 4.54212 -0.454189 -2.00425 0
M  V30 46 H 4.98425 -0.315766 -0.303863 0
M  V30 47 H 3.50498 -2.11336 -0.196815 0
M  V30 48 H 2.62131 -1.59079 -1.62761 0
M  V30 END ATOM
M  V30 BEGIN BOND
M  V30 1 1 1 2
M  V30 2 1 2 3
M  V30 3 1 3 4
M  V30 4 1 4 5
M  V30 5 1 5 6
M  V30 6 1 6 7
M  V30 7 1 7 8
M  V30 8 1 8 9
M  V30 9 2 9 10
M  V30 10 1 9 11
M  V30 11 1 11 12
M  V30 12 1 12 13
M  V30 13 1 13 14
M  V30 14 1 12 15
M  V30 15 1 15 16
M  V30 16 1 16 17
M  V30 17 1 17 18
M  V30 18 1 18 19
M  V30 19 1 8 3
M  V30 20 1 19 12
M  V30 21 1 1 20
M  V30 22 1 1 21
M  V30 23 1 2 22
M  V30 24 1 2 23
M  V30 25 1 3 24
M  V30 26 1 4 25
M  V30 27 1 4 26
M  V30 28 1 5 27
M  V30 29 1 5 28
M  V30 30 1 6 29
M  V30 31 1 6 30
M  V30 32 1 7 31
M  V30 33 1 7 32
M  V30 34 1 11 33
M  V30 35 1 11 34
M  V30 36 1 13 35
M  V30 37 1 13 36
M  V30 38 1 14 37
M  V30 39 1 14 38
M  V30 40 1 15 39
M  V30 41 1 15 40
M  V30 42 1 16 41
M  V30 43 1 16 42
M  V30 44 1 17 43
M  V30 45 1 17 44
M  V30 46 1 18 45
M  V30 47 1 18 46
M  V30 48 1 19 47
M  V30 49 1 19 48
M  V30 END BOND
M  V30 END CTAB
M  END
