
     RDKit          3D

  0  0  0  0  0  0  0  0  0  0999 V3000
M  V30 BEGIN CTAB
M  V30 COUNTS 51 52 0 0 0
M  V30 BEGIN ATOM
M  V30 1 N -7.25094 0.355677 -1.12316 0
M  V30 2 C -7.22865 0.41923 0.29696 0
M  V30 3 C -6.26849 -0.501779 0.934056 0
M  V30 4 N -4.90606 -0.328061 0.634541 0
M  V30 5 C -4.20874 -0.469903 -0.579359 0
M  V30 6 O -4.78158 -0.815031 -1.63834 0
M  V30 7 C -2.73634 -0.207182 -0.63749 0
M  V30 8 C -2.50347 1.22357 -0.221124 0
M  V30 9 C -1.01492 1.47008 -0.0463921 0
M  V30 10 C -0.510856 0.406604 0.906799 0
M  V30 11 N -0.637925 -0.920742 0.412058 0
M  V30 12 C -2.05915 -1.1982 0.249681 0
M  V30 13 C 0.0154058 -1.2378 -0.80018 0
M  V30 14 C 1.51048 -1.25156 -0.753201 0
M  V30 15 O 2.10722 -0.0476521 -0.395161 0
M  V30 16 C 3.47594 0.0204575 -0.327769 0
M  V30 17 C 4.29943 -1.04055 -0.594357 0
M  V30 18 C 5.66972 -0.969811 -0.526506 0
M  V30 19 C 6.26093 0.219434 -0.174588 0
M  V30 20 C 5.46149 1.30502 0.0995596 0
M  V30 21 C 4.0744 1.20453 0.0229829 0
M  V30 22 S 8.01648 0.372395 -0.070141 0
M  V30 23 O 8.6056 -0.650698 -1.01244 0
M  V30 24 O 8.46889 1.72541 -0.480996 0
M  V30 25 N 8.56723 0.00639568 1.52281 0
M  V30 26 H -6.81524 1.24513 -1.50528 0
M  V30 27 H -8.21479 0.344742 -1.5249 0
M  V30 28 H -7.02531 1.46979 0.639562 0
M  V30 29 H -8.25924 0.123241 0.650237 0
M  V30 30 H -6.43756 -0.588297 2.04858 0
M  V30 31 H -6.55894 -1.55003 0.570937 0
M  V30 32 H -4.29261 -0.0337571 1.48574 0
M  V30 33 H -2.42544 -0.294936 -1.68739 0
M  V30 34 H -2.91468 1.88741 -0.994575 0
M  V30 35 H -2.96788 1.43611 0.778134 0
M  V30 36 H -0.469722 1.5113 -0.989454 0
M  V30 37 H -0.893198 2.44779 0.480848 0
M  V30 38 H 0.484389 0.677615 1.30167 0
M  V30 39 H -1.1963 0.475448 1.80472 0
M  V30 40 H -2.51344 -1.15384 1.26045 0
M  V30 41 H -2.19336 -2.20409 -0.212459 0
M  V30 42 H -0.312403 -2.25483 -1.11278 0
M  V30 43 H -0.287184 -0.571039 -1.65976 0
M  V30 44 H 1.90968 -2.04205 -0.0764364 0
M  V30 45 H 1.90775 -1.52404 -1.76744 0
M  V30 46 H 3.82097 -1.97468 -0.871364 0
M  V30 47 H 6.30969 -1.83237 -0.744284 0
M  V30 48 H 5.93028 2.24321 0.37668 0
M  V30 49 H 3.50136 2.09672 0.251839 0
M  V30 50 H 7.95933 0.572472 2.18939 0
M  V30 51 H 9.52776 0.403131 1.66061 0
M  V30 END ATOM
M  V30 BEGIN BOND
M  V30 1 1 1 2
M  V30 2 1 2 3
M  V30 3 1 3 4
M  V30 4 1 4 5
M  V30 5 2 5 6
M  V30 6 1 5 7
M  V30 7 1 7 8
M  V30 8 1 8 9
M  V30 9 1 9 10
M  V30 10 1 10 11
M  V30 11 1 11 12
M  V30 12 1 11 13
M  V30 13 1 13 14
M  V30 14 1 14 15
M  V30 15 1 15 16
M  V30 16 2 16 17
M  V30 17 1 17 18
M  V30 18 2 18 19
M  V30 19 1 19 20
M  V30 20 2 20 21
M  V30 21 1 19 22
M  V30 22 2 22 23
M  V30 23 2 22 24
M  V30 24 1 22 25
M  V30 25 1 12 7
M  V30 26 1 21 16
M  V30 27 1 1 26
M  V30 28 1 1 27
M  V30 29 1 2 28
M  V30 30 1 2 29
M  V30 31 1 3 30
M  V30 32 1 3 31
M  V30 33 1 4 32
M  V30 34 1 7 33
M  V30 35 1 8 34
M  V30 36 1 8 35
M  V30 37 1 9 36
M  V30 38 1 9 37
M  V30 39 1 10 38
M  V30 40 1 10 39
M  V30 41 1 12 40
M  V30 42 1 12 41
M  V30 43 1 13 42
M  V30 44 1 13 43
M  V30 45 1 14 44
M  V30 46 1 14 45
M  V30 47 1 17 46
M  V30 48 1 18 47
M  V30 49 1 20 48
M  V30 50 1 21 49
M  V30 51 1 25 50
M  V30 52 1 25 51
M  V30 END BOND
M  V30 END CTAB
M  END
