
     RDKit          3D

  0  0  0  0  0  0  0  0  0  0999 V3000
M  V30 BEGIN CTAB
M  V30 COUNTS 16 17 0 0 0
M  V30 BEGIN ATOM
M  V30 1 N 3.18701 0.186645 0.0534273 0
M  V30 2 C 1.78726 -0.0437458 0.00286952 0
M  V30 3 N 1.25368 -1.25531 -0.234645 0
M  V30 4 C -0.0731248 -1.47457 -0.282742 0
M  V30 5 N -0.867757 -2.54721 -0.494357 0
M  V30 6 O -2.10975 -2.16806 -0.425883 0
M  V30 7 N -2.20524 -0.902393 -0.180479 0 CHG=1
M  V30 8 O -3.38128 -0.168801 -0.0429052 0 CHG=-1
M  V30 9 C -0.951104 -0.426302 -0.0828075 0
M  V30 10 C -0.410584 0.816623 0.160826 0
M  V30 11 N -1.32322 1.89698 0.36685 0
M  V30 12 N 0.923877 0.969802 0.196121 0
M  V30 13 H 3.67944 0.746554 -0.67012 0
M  V30 14 H 3.76052 -0.205139 0.826802 0
M  V30 15 H -1.83747 2.01854 1.24465 0
M  V30 16 H -1.43227 2.55637 -0.437605 0
M  V30 END ATOM
M  V30 BEGIN BOND
M  V30 1 1 1 2
M  V30 2 2 2 3
M  V30 3 1 3 4
M  V30 4 2 4 5
M  V30 5 1 5 6
M  V30 6 1 6 7
M  V30 7 1 7 8
M  V30 8 2 7 9
M  V30 9 1 9 10
M  V30 10 1 10 11
M  V30 11 2 10 12
M  V30 12 1 12 2
M  V30 13 1 9 4
M  V30 14 1 1 13
M  V30 15 1 1 14
M  V30 16 1 11 15
M  V30 17 1 11 16
M  V30 END BOND
M  V30 END CTAB
M  END
