
     RDKit          3D

  0  0  0  0  0  0  0  0  0  0999 V3000
M  V30 BEGIN CTAB
M  V30 COUNTS 29 29 0 0 0
M  V30 BEGIN ATOM
M  V30 1 C -3.41307 -1.01511 -0.300349 0
M  V30 2 C -2.51014 -0.612829 0.826797 0
M  V30 3 C -1.62667 0.53721 0.470354 0
M  V30 4 N -0.692742 0.293791 -0.594067 0
M  V30 5 C 0.708918 0.22085 -0.245282 0
M  V30 6 C 1.53438 1.31508 -0.23328 0
M  V30 7 C 2.87542 1.2477 0.0996445 0
M  V30 8 N 3.72651 2.37129 0.112534 0
M  V30 9 N 3.35497 0.0249713 0.422306 0
M  V30 10 C 2.57607 -1.06958 0.421477 0
M  V30 11 N 1.26454 -0.963432 0.0891652 0
M  V30 12 N 3.15192 -2.3193 0.771721 0
M  V30 13 C -1.05859 0.109567 -1.9851 0
M  V30 14 O -3.34407 -0.186551 1.8906 0
M  V30 15 H -4.39425 -1.31202 0.134985 0
M  V30 16 H -3.03165 -1.92526 -0.839798 0
M  V30 17 H -3.53374 -0.170056 -0.999347 0
M  V30 18 H -1.95134 -1.46472 1.23817 0
M  V30 19 H -1.05474 0.836163 1.38275 0
M  V30 20 H -2.23278 1.46677 0.240976 0
M  V30 21 H 1.11287 2.26926 -0.496688 0
M  V30 22 H 4.07211 2.73021 1.01652 0
M  V30 23 H 4.0103 2.84128 -0.761576 0
M  V30 24 H 4.06057 -2.65957 0.449495 0
M  V30 25 H 2.58196 -2.9236 1.41139 0
M  V30 26 H -1.41934 -0.888585 -2.22397 0
M  V30 27 H -1.83872 0.851967 -2.31577 0
M  V30 28 H -0.132466 0.251961 -2.62364 0
M  V30 29 H -2.79624 0.142545 2.63998 0
M  V30 END ATOM
M  V30 BEGIN BOND
M  V30 1 1 1 2
M  V30 2 1 2 3
M  V30 3 1 3 4
M  V30 4 1 4 5
M  V30 5 2 5 6
M  V30 6 1 6 7
M  V30 7 1 7 8
M  V30 8 2 7 9
M  V30 9 1 9 10
M  V30 10 2 10 11
M  V30 11 1 10 12
M  V30 12 1 4 13
M  V30 13 1 2 14
M  V30 14 1 11 5
M  V30 15 1 1 15
M  V30 16 1 1 16
M  V30 17 1 1 17
M  V30 18 1 2 18
M  V30 19 1 3 19
M  V30 20 1 3 20
M  V30 21 1 6 21
M  V30 22 1 8 22
M  V30 23 1 8 23
M  V30 24 1 12 24
M  V30 25 1 12 25
M  V30 26 1 13 26
M  V30 27 1 13 27
M  V30 28 1 13 28
M  V30 29 1 14 29
M  V30 END BOND
M  V30 END CTAB
M  END
