
     RDKit          3D

  0  0  0  0  0  0  0  0  0  0999 V3000
M  V30 BEGIN CTAB
M  V30 COUNTS 32 34 0 0 0
M  V30 BEGIN ATOM
M  V30 1 N -6.91682 -2.09849 0.496867 0
M  V30 2 C -5.98283 -1.4621 0.248611 0
M  V30 3 C -4.79057 -0.678782 -0.0545953 0
M  V30 4 C -3.54653 -1.15412 0.276086 0
M  V30 5 C -2.39359 -0.390214 -0.0203258 0
M  V30 6 C -2.64155 0.800366 -0.634752 0
M  V30 7 N -3.89748 1.2553 -0.956109 0
M  V30 8 C -5.00541 0.532392 -0.676863 0
M  V30 9 N -6.30272 0.95824 -0.986749 0
M  V30 10 S -1.08228 1.45971 -0.848514 0
M  V30 11 C -0.160069 0.20726 -0.152847 0
M  V30 12 C -1.09664 -0.704944 0.233917 0
M  V30 13 N -0.696836 -1.95534 0.889552 0
M  V30 14 C 1.31461 0.120571 0.0004891 0
M  V30 15 O 1.76293 -0.903703 0.546596 0
M  V30 16 N 2.0924 1.17373 -0.468664 0
M  V30 17 C 3.49129 1.21587 -0.385502 0
M  V30 18 N 4.30111 2.22542 -0.830449 0
M  V30 19 O 5.53265 1.91924 -0.585433 0
M  V30 20 C 5.66024 0.762186 0.00319628 0
M  V30 21 C 4.35011 0.285783 0.144015 0
M  V30 22 C 6.90379 0.0647269 0.444945 0
M  V30 23 H -3.48654 -2.11735 0.762695 0
M  V30 24 H -7.1268 0.603627 -0.462168 0
M  V30 25 H -6.47078 1.642 -1.75232 0
M  V30 26 H -1.03161 -2.20784 1.83313 0
M  V30 27 H -0.0584962 -2.61771 0.404134 0
M  V30 28 H 1.61432 2.00788 -0.921823 0
M  V30 29 H 4.15387 -0.655215 0.600373 0
M  V30 30 H 7.71995 0.794181 0.402108 0
M  V30 31 H 6.69725 -0.300784 1.47905 0
M  V30 32 H 7.09302 -0.781908 -0.242643 0
M  V30 END ATOM
M  V30 BEGIN BOND
M  V30 1 3 1 2
M  V30 2 1 2 3
M  V30 3 2 3 4
M  V30 4 1 4 5
M  V30 5 2 5 6
M  V30 6 1 6 7
M  V30 7 2 7 8
M  V30 8 1 8 9
M  V30 9 1 6 10
M  V30 10 1 10 11
M  V30 11 2 11 12
M  V30 12 1 12 13
M  V30 13 1 11 14
M  V30 14 2 14 15
M  V30 15 1 14 16
M  V30 16 1 16 17
M  V30 17 2 17 18
M  V30 18 1 18 19
M  V30 19 1 19 20
M  V30 20 2 20 21
M  V30 21 1 20 22
M  V30 22 1 8 3
M  V30 23 1 21 17
M  V30 24 1 12 5
M  V30 25 1 4 23
M  V30 26 1 9 24
M  V30 27 1 9 25
M  V30 28 1 13 26
M  V30 29 1 13 27
M  V30 30 1 16 28
M  V30 31 1 21 29
M  V30 32 1 22 30
M  V30 33 1 22 31
M  V30 34 1 22 32
M  V30 END BOND
M  V30 END CTAB
M  END
