
     RDKit          3D

  0  0  0  0  0  0  0  0  0  0999 V3000
M  V30 BEGIN CTAB
M  V30 COUNTS 31 31 0 0 0
M  V30 BEGIN ATOM
M  V30 1 C -3.23722 0.230324 1.08494 0
M  V30 2 C -2.42695 0.281648 -0.210206 0
M  V30 3 O -1.14443 0.53905 0.0619465 0
M  V30 4 C -0.151459 -0.345777 -0.22321 0
M  V30 5 C 1.1443 0.392175 0.0130255 0
M  V30 6 N 1.21006 1.75863 -0.0404935 0
M  V30 7 N 2.46424 2.16414 0.159579 0
M  V30 8 C 3.17062 1.02851 0.335461 0
M  V30 9 N 2.37797 -0.0253 0.248259 0
M  V30 10 N 2.73347 -1.35087 0.40126 0
M  V30 11 N 4.59451 0.944548 0.575872 0
M  V30 12 C -0.103808 -0.875127 -1.61263 0
M  V30 13 C -0.296555 -1.5096 0.737657 0
M  V30 14 C -2.96205 1.52749 -0.952272 0
M  V30 15 H -4.30337 0.477164 0.874272 0
M  V30 16 H -3.18221 -0.780581 1.49754 0
M  V30 17 H -2.75971 0.912624 1.80079 0
M  V30 18 H -2.67918 -0.65986 -0.744073 0
M  V30 19 H 2.64415 -2.07787 -0.316067 0
M  V30 20 H 3.12027 -1.61159 1.33451 0
M  V30 21 H 5.08594 1.5282 1.28295 0
M  V30 22 H 5.16484 0.271111 0.0088552 0
M  V30 23 H 0.946939 -1.23769 -1.80754 0
M  V30 24 H -0.349745 -0.1373 -2.39422 0
M  V30 25 H -0.789625 -1.76568 -1.67313 0
M  V30 26 H -1.32226 -1.91882 0.568191 0
M  V30 27 H 0.37626 -2.35369 0.511701 0
M  V30 28 H -0.166388 -1.10849 1.76332 0
M  V30 29 H -4.03008 1.70401 -0.77868 0
M  V30 30 H -2.447 2.43395 -0.504061 0
M  V30 31 H -2.68154 1.56468 -2.00355 0
M  V30 END ATOM
M  V30 BEGIN BOND
M  V30 1 1 1 2
M  V30 2 1 2 3
M  V30 3 1 3 4
M  V30 4 1 4 5
M  V30 5 2 5 6
M  V30 6 1 6 7
M  V30 7 2 7 8
M  V30 8 1 8 9
M  V30 9 1 9 10
M  V30 10 1 8 11
M  V30 11 1 4 12
M  V30 12 1 4 13
M  V30 13 1 2 14
M  V30 14 1 9 5
M  V30 15 1 1 15
M  V30 16 1 1 16
M  V30 17 1 1 17
M  V30 18 1 2 18
M  V30 19 1 10 19
M  V30 20 1 10 20
M  V30 21 1 11 21
M  V30 22 1 11 22
M  V30 23 1 12 23
M  V30 24 1 12 24
M  V30 25 1 12 25
M  V30 26 1 13 26
M  V30 27 1 13 27
M  V30 28 1 13 28
M  V30 29 1 14 29
M  V30 30 1 14 30
M  V30 31 1 14 31
M  V30 END BOND
M  V30 END CTAB
M  END
