
     RDKit          3D

  0  0  0  0  0  0  0  0  0  0999 V3000
M  V30 BEGIN CTAB
M  V30 COUNTS 43 45 0 0 0
M  V30 BEGIN ATOM
M  V30 1 C -3.32654 -3.0726 1.11571 0
M  V30 2 C -2.97208 -1.76498 0.523643 0
M  V30 3 C -1.65148 -1.50216 0.140995 0
M  V30 4 C -1.33711 -0.28775 -0.401817 0
M  V30 5 C -2.34181 0.679411 -0.56861 0
M  V30 6 C -3.6516 0.402256 -0.177623 0
M  V30 7 C -3.95329 -0.793646 0.352345 0
M  V30 8 C -5.34146 -1.18218 0.770681 0
M  V30 9 S -4.87529 1.67016 -0.312454 0
M  V30 10 O -6.01509 1.19892 -1.16844 0
M  V30 11 O -5.44099 1.96995 1.05611 0
M  V30 12 N -4.1673 3.08868 -0.912711 0
M  V30 13 C 0.0550025 0.0874249 -0.684695 0
M  V30 14 O 0.5404 0.926334 -1.55076 0
M  V30 15 N 1.81588 1.01669 -1.50508 0
M  V30 16 C 2.24124 0.157302 -0.512989 0
M  V30 17 N 1.1543 -0.415227 -0.0177742 0
M  V30 18 C 3.6608 0.0822421 -0.0661221 0
M  V30 19 N 3.70192 -0.497333 1.26802 0
M  V30 20 C 4.63578 -0.50322 -1.02481 0
M  V30 21 C 5.96902 0.0213467 -0.439589 0
M  V30 22 C 5.62978 1.33018 0.247319 0
M  V30 23 C 4.15508 1.55353 0.0999279 0
M  V30 24 H -3.67152 -2.95504 2.16285 0
M  V30 25 H -4.20543 -3.42801 0.528875 0
M  V30 26 H -2.51528 -3.81723 1.12451 0
M  V30 27 H -0.90502 -2.28861 0.306499 0
M  V30 28 H -2.08404 1.62896 -0.991002 0
M  V30 29 H -6.0326 -0.353793 0.878792 0
M  V30 30 H -5.71433 -1.87926 -0.0145279 0
M  V30 31 H -5.24635 -1.69 1.7552 0
M  V30 32 H -3.78438 3.08524 -1.8295 0
M  V30 33 H -4.4792 3.92898 -0.445837 0
M  V30 34 H 4.4409 -0.0399716 1.85993 0
M  V30 35 H 3.92652 -1.52229 1.25978 0
M  V30 36 H 4.47068 -0.0928357 -2.02604 0
M  V30 37 H 4.64561 -1.59568 -1.08805 0
M  V30 38 H 6.67169 0.154125 -1.25625 0
M  V30 39 H 6.33846 -0.727663 0.25026 0
M  V30 40 H 6.26211 2.1378 -0.166008 0
M  V30 41 H 5.85013 1.27246 1.35045 0
M  V30 42 H 3.88171 2.04691 -0.862491 0
M  V30 43 H 3.66517 1.9706 0.97128 0
M  V30 END ATOM
M  V30 BEGIN BOND
M  V30 1 1 1 2
M  V30 2 2 2 3
M  V30 3 1 3 4
M  V30 4 2 4 5
M  V30 5 1 5 6
M  V30 6 2 6 7
M  V30 7 1 7 8
M  V30 8 1 6 9
M  V30 9 2 9 10
M  V30 10 2 9 11
M  V30 11 1 9 12
M  V30 12 1 4 13
M  V30 13 1 13 14
M  V30 14 1 14 15
M  V30 15 2 15 16
M  V30 16 1 16 17
M  V30 17 1 16 18
M  V30 18 1 18 19
M  V30 19 1 18 20
M  V30 20 1 20 21
M  V30 21 1 21 22
M  V30 22 1 22 23
M  V30 23 1 7 2
M  V30 24 2 17 13
M  V30 25 1 23 18
M  V30 26 1 1 24
M  V30 27 1 1 25
M  V30 28 1 1 26
M  V30 29 1 3 27
M  V30 30 1 5 28
M  V30 31 1 8 29
M  V30 32 1 8 30
M  V30 33 1 8 31
M  V30 34 1 12 32
M  V30 35 1 12 33
M  V30 36 1 19 34
M  V30 37 1 19 35
M  V30 38 1 20 36
M  V30 39 1 20 37
M  V30 40 1 21 38
M  V30 41 1 21 39
M  V30 42 1 22 40
M  V30 43 1 22 41
M  V30 44 1 23 42
M  V30 45 1 23 43
M  V30 END BOND
M  V30 END CTAB
M  END
