
     RDKit          3D

 14 14  0  0  0  0  0  0  0  0999 V2000
   -1.8879   -0.4623   -2.8912 N   0  0  0  0  0  0  0  0  0  0  0  0
   -1.3384   -1.0607   -1.8208 C   0  0  0  0  0  0  0  0  0  0  0  0
   -1.8603   -1.9558   -0.9164 C   0  0  0  0  0  0  0  0  0  0  0  0
   -0.8343   -2.2636    0.0154 C   0  0  0  0  0  0  0  0  0  0  0  0
    0.2809   -1.5466   -0.3502 C   0  0  0  0  0  0  0  0  0  0  0  0
    1.5082   -1.4814    0.1931 N   0  0  0  0  0  0  0  0  0  0  0  0
   -0.0331   -0.8300   -1.4748 N   0  0  0  0  0  0  0  0  0  0  0  0
   -2.8948   -0.5104   -3.0288 H   0  0  0  0  0  0  0  0  0  0  0  0
   -1.4689    0.3542   -3.3262 H   0  0  0  0  0  0  0  0  0  0  0  0
   -2.8666   -2.3508   -0.9213 H   0  0  0  0  0  0  0  0  0  0  0  0
   -0.9088   -2.9382    0.8568 H   0  0  0  0  0  0  0  0  0  0  0  0
    1.6684   -1.8797    1.1155 H   0  0  0  0  0  0  0  0  0  0  0  0
    2.1581   -0.7342   -0.0322 H   0  0  0  0  0  0  0  0  0  0  0  0
    0.6056   -0.2418   -1.9837 H   0  0  0  0  0  0  0  0  0  0  0  0
  1  2  1  0
  2  3  2  0
  3  4  1  0
  4  5  2  0
  5  6  1  0
  5  7  1  0
  7  2  1  0
  1  8  1  0
  1  9  1  0
  3 10  1  0
  4 11  1  0
  6 12  1  0
  6 13  1  0
  7 14  1  0
M  END
