
     RDKit          3D

  0  0  0  0  0  0  0  0  0  0999 V3000
M  V30 BEGIN CTAB
M  V30 COUNTS 40 42 0 0 0
M  V30 BEGIN ATOM
M  V30 1 N -4.72531 -2.64552 -0.459413 0
M  V30 2 C -3.51751 -1.99 -0.12192 0
M  V30 3 C -3.33727 -1.30905 1.05918 0
M  V30 4 C -2.14853 -0.679234 1.36158 0
M  V30 5 C -1.08381 -0.704591 0.489398 0
M  V30 6 C -1.26677 -1.38795 -0.694271 0
M  V30 7 C -2.44737 -2.0215 -1.01019 0
M  V30 8 C 0.208761 -0.0233441 0.811297 0
M  V30 9 C 0.198944 1.38471 0.356605 0
M  V30 10 C -0.0628932 1.78937 -0.93508 0
M  V30 11 C -0.0573409 3.11242 -1.34002 0
M  V30 12 C 0.220777 4.10909 -0.429755 0
M  V30 13 N 0.225883 5.47499 -0.850656 0
M  V30 14 C 0.486726 3.73877 0.870387 0
M  V30 15 C 0.478147 2.4167 1.26091 0
M  V30 16 C 1.36449 -0.817273 0.437765 0
M  V30 17 C 1.79369 -1.81856 1.31767 0
M  V30 18 C 2.87179 -2.62381 1.06679 0
M  V30 19 C 3.58439 -2.46527 -0.0933509 0
M  V30 20 O 4.66828 -3.30726 -0.299031 0
M  V30 21 C 3.20835 -1.50174 -0.98837 0
M  V30 22 C 2.10237 -0.689684 -0.710731 0
M  V30 23 H -5.15365 -3.34092 0.175403 0
M  V30 24 H -5.18622 -2.42484 -1.35563 0
M  V30 25 H -4.1678 -1.28394 1.74989 0
M  V30 26 H -2.03596 -0.1437 2.31301 0
M  V30 27 H -0.408041 -1.39471 -1.37117 0
M  V30 28 H -2.54267 -2.55303 -1.96722 0
M  V30 29 H 0.211011 0.00319779 1.95309 0
M  V30 30 H -0.29118 1.02484 -1.66805 0
M  V30 31 H -0.268566 3.39556 -2.36903 0
M  V30 32 H 0.0763287 6.27353 -0.193976 0
M  V30 33 H 0.383485 5.71684 -1.85252 0
M  V30 34 H 0.705933 4.49449 1.5981 0
M  V30 35 H 0.687392 2.11224 2.28678 0
M  V30 36 H 1.23393 -1.96152 2.25551 0
M  V30 37 H 3.12493 -3.37195 1.81257 0
M  V30 38 H 5.23273 -3.23858 -1.13606 0
M  V30 39 H 3.78494 -1.39404 -1.89744 0
M  V30 40 H 1.84762 0.0452677 -1.43207 0
M  V30 END ATOM
M  V30 BEGIN BOND
M  V30 1 1 1 2
M  V30 2 2 2 3
M  V30 3 1 3 4
M  V30 4 2 4 5
M  V30 5 1 5 6
M  V30 6 2 6 7
M  V30 7 1 5 8
M  V30 8 1 8 9
M  V30 9 2 9 10
M  V30 10 1 10 11
M  V30 11 2 11 12
M  V30 12 1 12 13
M  V30 13 1 12 14
M  V30 14 2 14 15
M  V30 15 1 8 16
M  V30 16 2 16 17
M  V30 17 1 17 18
M  V30 18 2 18 19
M  V30 19 1 19 20
M  V30 20 1 19 21
M  V30 21 2 21 22
M  V30 22 1 7 2
M  V30 23 1 15 9
M  V30 24 1 22 16
M  V30 25 1 1 23
M  V30 26 1 1 24
M  V30 27 1 3 25
M  V30 28 1 4 26
M  V30 29 1 6 27
M  V30 30 1 7 28
M  V30 31 1 8 29
M  V30 32 1 10 30
M  V30 33 1 11 31
M  V30 34 1 13 32
M  V30 35 1 13 33
M  V30 36 1 14 34
M  V30 37 1 15 35
M  V30 38 1 17 36
M  V30 39 1 18 37
M  V30 40 1 20 38
M  V30 41 1 21 39
M  V30 42 1 22 40
M  V30 END BOND
M  V30 END CTAB
M  END
