
     RDKit          3D

  0  0  0  0  0  0  0  0  0  0999 V3000
M  V30 BEGIN CTAB
M  V30 COUNTS 24 24 0 0 0
M  V30 BEGIN ATOM
M  V30 1 C -0.452499 2.30231 0.938837 0
M  V30 2 N 0.340582 1.17632 0.494592 0
M  V30 3 N -0.106843 -0.0295491 0.28319 0
M  V30 4 C -1.47968 -0.482806 0.449291 0
M  V30 5 C -2.27809 -0.321667 -0.821586 0
M  V30 6 O -3.56747 -0.781333 -0.556401 0
M  V30 7 C 0.927826 -0.793933 -0.119553 0
M  V30 8 N 0.887482 -2.16566 -0.455572 0
M  V30 9 C 2.0674 -0.000785654 -0.15282 0
M  V30 10 N 3.392 -0.383066 -0.518778 0
M  V30 11 C 1.66108 1.25085 0.244105 0
M  V30 12 O 2.41347 2.26838 0.346082 0
M  V30 13 H 0.163578 3.19655 1.13491 0
M  V30 14 H -1.21188 2.59878 0.180891 0
M  V30 15 H -0.943951 1.98891 1.89828 0
M  V30 16 H -1.49143 -1.58079 0.69058 0
M  V30 17 H -2.00504 0.0221002 1.26426 0
M  V30 18 H -2.38875 0.759806 -1.09152 0
M  V30 19 H -1.87682 -0.890587 -1.66719 0
M  V30 20 H -3.54856 -1.6711 -0.095727 0
M  V30 21 H 1.70366 -2.64035 -0.882741 0
M  V30 22 H 0.0339387 -2.74034 -0.283027 0
M  V30 23 H 3.80657 -1.22558 -0.0613782 0
M  V30 24 H 3.95342 0.143532 -1.21874 0
M  V30 END ATOM
M  V30 BEGIN BOND
M  V30 1 1 1 2
M  V30 2 1 2 3
M  V30 3 1 3 4
M  V30 4 1 4 5
M  V30 5 1 5 6
M  V30 6 1 3 7
M  V30 7 1 7 8
M  V30 8 2 7 9
M  V30 9 1 9 10
M  V30 10 1 9 11
M  V30 11 2 11 12
M  V30 12 1 11 2
M  V30 13 1 1 13
M  V30 14 1 1 14
M  V30 15 1 1 15
M  V30 16 1 4 16
M  V30 17 1 4 17
M  V30 18 1 5 18
M  V30 19 1 5 19
M  V30 20 1 6 20
M  V30 21 1 8 21
M  V30 22 1 8 22
M  V30 23 1 10 23
M  V30 24 1 10 24
M  V30 END BOND
M  V30 END CTAB
M  END
