
     RDKit          3D

  0  0  0  0  0  0  0  0  0  0999 V3000
M  V30 BEGIN CTAB
M  V30 COUNTS 32 34 0 0 0
M  V30 BEGIN ATOM
M  V30 1 C -5.74064 1.19236 0.89653 0
M  V30 2 O -5.04555 0.282034 0.083969 0
M  V30 3 C -3.6469 0.203972 0.052433 0
M  V30 4 C -2.90193 1.05339 0.850322 0
M  V30 5 C -1.51044 0.944769 0.79064 0
M  V30 6 C -0.897312 0.0259857 -0.0319835 0
M  V30 7 C -1.68828 -0.792769 -0.803143 0
M  V30 8 C -3.06835 -0.723684 -0.779289 0
M  V30 9 N -3.89858 -1.55904 -1.56676 0
M  V30 10 C 0.57103 -0.081944 -0.0888869 0
M  V30 11 N 1.46799 0.64412 0.600499 0
M  V30 12 C 2.72068 0.267582 0.291862 0
M  V30 13 C 2.5713 -0.73876 -0.632519 0
M  V30 14 O 1.27282 -0.908015 -0.824222 0
M  V30 15 C 3.69606 -1.36005 -1.16859 0
M  V30 16 C 4.94412 -0.952641 -0.760573 0
M  V30 17 C 5.12883 0.0557008 0.166639 0
M  V30 18 C 3.99122 0.647549 0.675421 0
M  V30 19 N 6.4457 0.462405 0.57596 0
M  V30 20 H -5.60683 2.2314 0.55202 0
M  V30 21 H -6.81489 0.896235 0.8655 0
M  V30 22 H -5.32325 1.09255 1.932 0
M  V30 23 H -3.409 1.75706 1.47927 0
M  V30 24 H -0.894174 1.58881 1.39708 0
M  V30 25 H -1.25623 -1.54105 -1.47502 0
M  V30 26 H -4.33222 -2.38941 -1.11753 0
M  V30 27 H -4.09392 -1.38051 -2.57115 0
M  V30 28 H 3.56107 -2.14398 -1.88921 0
M  V30 29 H 5.85021 -1.42745 -1.16895 0
M  V30 30 H 4.09287 1.43327 1.39671 0
M  V30 31 H 6.56622 0.951883 1.48753 0
M  V30 32 H 7.2484 0.268228 -0.0289884 0
M  V30 END ATOM
M  V30 BEGIN BOND
M  V30 1 1 1 2
M  V30 2 1 2 3
M  V30 3 2 3 4
M  V30 4 1 4 5
M  V30 5 2 5 6
M  V30 6 1 6 7
M  V30 7 2 7 8
M  V30 8 1 8 9
M  V30 9 1 6 10
M  V30 10 2 10 11
M  V30 11 1 11 12
M  V30 12 2 12 13
M  V30 13 1 13 14
M  V30 14 1 13 15
M  V30 15 2 15 16
M  V30 16 1 16 17
M  V30 17 2 17 18
M  V30 18 1 17 19
M  V30 19 1 8 3
M  V30 20 1 14 10
M  V30 21 1 18 12
M  V30 22 1 1 20
M  V30 23 1 1 21
M  V30 24 1 1 22
M  V30 25 1 4 23
M  V30 26 1 5 24
M  V30 27 1 7 25
M  V30 28 1 9 26
M  V30 29 1 9 27
M  V30 30 1 15 28
M  V30 31 1 16 29
M  V30 32 1 18 30
M  V30 33 1 19 31
M  V30 34 1 19 32
M  V30 END BOND
M  V30 END CTAB
M  END
