
     RDKit          3D

  0  0  0  0  0  0  0  0  0  0999 V3000
M  V30 BEGIN CTAB
M  V30 COUNTS 62 61 0 0 0
M  V30 BEGIN ATOM
M  V30 1 C 7.99084 -0.882019 -1.05418 0
M  V30 2 C 7.55402 0.565786 -1.04184 0
M  V30 3 C 6.50263 0.789223 0.0546358 0
M  V30 4 C 5.31754 -0.0839677 -0.221048 0
M  V30 5 C 4.27526 0.113325 0.837448 0
M  V30 6 C 3.77592 1.51565 0.925178 0
M  V30 7 C 2.7308 1.62687 2.011 0
M  V30 8 C 1.54807 0.736405 1.75231 0
M  V30 9 C 0.857565 1.05194 0.460458 0
M  V30 10 C -0.327027 0.0303713 0.361796 0
M  V30 11 C -1.06391 0.265432 -0.879682 0
M  V30 12 C -2.17341 -0.478724 -1.40236 0
M  V30 13 N -3.46028 -0.703395 -0.900628 0
M  V30 14 C -3.76011 -1.61514 0.108432 0
M  V30 15 C -3.32474 -1.40545 1.4909 0
M  V30 16 C -3.83733 -0.151157 2.14396 0
M  V30 17 N -5.26734 -0.124346 2.27777 0
M  V30 18 C -4.36351 -0.913502 -2.07701 0
M  V30 19 C -5.79936 -0.871468 -1.81805 0
M  V30 20 C -6.29928 0.477582 -1.32456 0
M  V30 21 N -6.04815 1.50864 -2.3337 0
M  V30 22 H 7.47305 -1.43955 -1.85 0
M  V30 23 H 7.70211 -1.36931 -0.0820009 0
M  V30 24 H 9.09613 -0.971177 -1.10267 0
M  V30 25 H 8.43187 1.17944 -0.760137 0
M  V30 26 H 7.16542 0.878728 -2.01668 0
M  V30 27 H 6.93799 0.525339 1.02949 0
M  V30 28 H 6.24469 1.87728 -0.0245992 0
M  V30 29 H 5.6586 -1.13766 -0.214935 0
M  V30 30 H 4.92361 0.175706 -1.22899 0
M  V30 31 H 3.42814 -0.567968 0.619361 0
M  V30 32 H 4.71494 -0.173446 1.80375 0
M  V30 33 H 4.60626 2.22382 1.12924 0
M  V30 34 H 3.33385 1.7787 -0.0800341 0
M  V30 35 H 3.2278 1.33102 2.95665 0
M  V30 36 H 2.43549 2.68819 2.14081 0
M  V30 37 H 1.83397 -0.32325 1.83718 0
M  V30 38 H 0.809604 0.930149 2.58543 0
M  V30 39 H 0.39652 2.04193 0.483844 0
M  V30 40 H 1.52798 0.895026 -0.408708 0
M  V30 41 H -0.882119 0.28907 1.31448 0
M  V30 42 H 0.0680422 -0.99472 0.507096 0
M  V30 43 H -1.3187 1.3998 -0.854525 0
M  V30 44 H -0.244518 0.299117 -1.72113 0
M  V30 45 H -1.78371 -1.57416 -1.63216 0
M  V30 46 H -2.30019 -0.174405 -2.53655 0
M  V30 47 H -4.8795 -1.83441 0.17457 0
M  V30 48 H -3.37814 -2.64069 -0.265604 0
M  V30 49 H -2.26647 -1.59907 1.72058 0
M  V30 50 H -3.89143 -2.24934 2.11441 0
M  V30 51 H -3.54663 0.764443 1.58496 0
M  V30 52 H -3.41808 -0.116515 3.17472 0
M  V30 53 H -5.68557 0.813838 2.25767 0
M  V30 54 H -5.62768 -0.623401 3.11521 0
M  V30 55 H -4.00757 -0.245566 -2.88687 0
M  V30 56 H -4.09059 -1.94684 -2.42031 0
M  V30 57 H -6.38675 -1.00386 -2.79987 0
M  V30 58 H -6.22113 -1.68027 -1.19676 0
M  V30 59 H -5.7718 0.802615 -0.422482 0
M  V30 60 H -7.38347 0.491083 -1.1184 0
M  V30 61 H -6.68821 2.30063 -2.09841 0
M  V30 62 H -5.07201 1.91856 -2.19846 0
M  V30 END ATOM
M  V30 BEGIN BOND
M  V30 1 1 1 2
M  V30 2 1 2 3
M  V30 3 1 3 4
M  V30 4 1 4 5
M  V30 5 1 5 6
M  V30 6 1 6 7
M  V30 7 1 7 8
M  V30 8 1 8 9
M  V30 9 1 9 10
M  V30 10 1 10 11
M  V30 11 1 11 12
M  V30 12 1 12 13
M  V30 13 1 13 14
M  V30 14 1 14 15
M  V30 15 1 15 16
M  V30 16 1 16 17
M  V30 17 1 13 18
M  V30 18 1 18 19
M  V30 19 1 19 20
M  V30 20 1 20 21
M  V30 21 1 1 22
M  V30 22 1 1 23
M  V30 23 1 1 24
M  V30 24 1 2 25
M  V30 25 1 2 26
M  V30 26 1 3 27
M  V30 27 1 3 28
M  V30 28 1 4 29
M  V30 29 1 4 30
M  V30 30 1 5 31
M  V30 31 1 5 32
M  V30 32 1 6 33
M  V30 33 1 6 34
M  V30 34 1 7 35
M  V30 35 1 7 36
M  V30 36 1 8 37
M  V30 37 1 8 38
M  V30 38 1 9 39
M  V30 39 1 9 40
M  V30 40 1 10 41
M  V30 41 1 10 42
M  V30 42 1 11 43
M  V30 43 1 11 44
M  V30 44 1 12 45
M  V30 45 1 12 46
M  V30 46 1 14 47
M  V30 47 1 14 48
M  V30 48 1 15 49
M  V30 49 1 15 50
M  V30 50 1 16 51
M  V30 51 1 16 52
M  V30 52 1 17 53
M  V30 53 1 17 54
M  V30 54 1 18 55
M  V30 55 1 18 56
M  V30 56 1 19 57
M  V30 57 1 19 58
M  V30 58 1 20 59
M  V30 59 1 20 60
M  V30 60 1 21 61
M  V30 61 1 21 62
M  V30 END BOND
M  V30 END CTAB
M  END
