
     RDKit          3D

  0  0  0  0  0  0  0  0  0  0999 V3000
M  V30 BEGIN CTAB
M  V30 COUNTS 21 21 0 0 0
M  V30 BEGIN ATOM
M  V30 1 N -4.02094 -0.724241 -0.0152884 0
M  V30 2 C -2.6115 -1.04824 0.206331 0
M  V30 3 C -1.79113 -0.0237892 -0.568377 0
M  V30 4 N -0.425444 -0.132859 -0.507825 0
M  V30 5 C 0.927595 -0.241118 -0.447917 0
M  V30 6 O 1.62901 -1.21761 -0.807383 0
M  V30 7 C 1.74839 0.894633 0.0991433 0
M  V30 8 N 1.31806 2.0726 0.557832 0
M  V30 9 O 2.34387 2.75732 0.930535 0
M  V30 10 N 3.43043 2.08388 0.738452 0
M  V30 11 C 3.10549 0.873101 0.203549 0
M  V30 12 N 4.0199 -0.154696 -0.147055 0
M  V30 13 H -4.32768 0.0561368 0.586573 0
M  V30 14 H -4.23734 -0.622643 -1.02858 0
M  V30 15 H -2.45611 -2.05188 -0.197535 0
M  V30 16 H -2.45792 -0.966292 1.29844 0
M  V30 17 H -2.19544 0.98306 -0.21838 0
M  V30 18 H -2.21232 -0.0607486 -1.62451 0
M  V30 19 H -0.517694 -1.38592 -1.03276 0
M  V30 20 H 4.42126 -0.74532 0.60562 0
M  V30 21 H 4.30951 -0.345367 -1.12073 0
M  V30 END ATOM
M  V30 BEGIN BOND
M  V30 1 1 1 2
M  V30 2 1 2 3
M  V30 3 1 3 4
M  V30 4 1 4 5
M  V30 5 2 5 6
M  V30 6 1 5 7
M  V30 7 2 7 8
M  V30 8 1 8 9
M  V30 9 1 9 10
M  V30 10 2 10 11
M  V30 11 1 11 12
M  V30 12 1 11 7
M  V30 13 1 1 13
M  V30 14 1 1 14
M  V30 15 1 2 15
M  V30 16 1 2 16
M  V30 17 1 3 17
M  V30 18 1 3 18
M  V30 19 1 4 19
M  V30 20 1 12 20
M  V30 21 1 12 21
M  V30 END BOND
M  V30 END CTAB
M  END
