
     RDKit          3D

  0  0  0  0  0  0  0  0  0  0999 V3000
M  V30 BEGIN CTAB
M  V30 COUNTS 52 54 0 0 0
M  V30 BEGIN ATOM
M  V30 1 N 4.67392 -2.29774 -0.456761 0
M  V30 2 C 3.48961 -1.54565 -0.778774 0
M  V30 3 C 3.4655 -0.281146 0.050105 0
M  V30 4 C 4.67593 0.578046 -0.225753 0
M  V30 5 C 4.8638 1.4907 0.97062 0
M  V30 6 C 3.4962 1.93 1.41704 0
M  V30 7 C 2.49364 1.93519 0.292256 0
M  V30 8 C 2.23223 0.552638 -0.261688 0
M  V30 9 N 1.04419 0.0069023 0.315204 0
M  V30 10 C -0.053991 -0.377018 -0.48904 0
M  V30 11 O 0.0407565 -0.225428 -1.73435 0
M  V30 12 C -1.3079 -0.953263 0.122972 0
M  V30 13 C -1.86096 0.0565735 1.04371 0
M  V30 14 C -3.31886 0.00744177 1.29404 0
M  V30 15 C -3.97248 1.32468 0.931182 0
M  V30 16 C -4.47307 1.36512 -0.476829 0
M  V30 17 C -3.72848 0.463954 -1.41463 0
M  V30 18 C -3.59515 -0.943352 -0.918144 0
M  V30 19 C -2.18065 -1.4253 -0.967297 0
M  V30 20 C -4.04736 -1.07105 0.530981 0
M  V30 21 N -3.70353 -2.39866 0.970031 0
M  V30 22 H 5.18454 -1.92786 0.369338 0
M  V30 23 H 5.28571 -2.41763 -1.29657 0
M  V30 24 H 3.5285 -1.26105 -1.83274 0
M  V30 25 H 2.6193 -2.17877 -0.545974 0
M  V30 26 H 3.51333 -0.567679 1.12059 0
M  V30 27 H 5.58491 -0.0334462 -0.42383 0
M  V30 28 H 4.47442 1.18736 -1.11002 0
M  V30 29 H 5.52893 2.31863 0.716355 0
M  V30 30 H 5.36469 0.901783 1.77105 0
M  V30 31 H 3.18464 1.26878 2.24817 0
M  V30 32 H 3.58412 2.9662 1.78208 0
M  V30 33 H 1.53369 2.31276 0.721765 0
M  V30 34 H 2.87218 2.61435 -0.498237 0
M  V30 35 H 2.18916 0.634505 -1.36469 0
M  V30 36 H 0.97088 -0.116066 1.34166 0
M  V30 37 H -0.939128 -1.84594 0.70849 0
M  V30 38 H -1.3277 -0.0529362 2.03476 0
M  V30 39 H -1.57312 1.09714 0.70954 0
M  V30 40 H -3.5518 -0.176991 2.38255 0
M  V30 41 H -3.20108 2.11228 1.12106 0
M  V30 42 H -4.82071 1.51614 1.60397 0
M  V30 43 H -4.33233 2.41046 -0.849364 0
M  V30 44 H -5.58374 1.19566 -0.521925 0
M  V30 45 H -4.25102 0.502554 -2.39642 0
M  V30 46 H -2.7223 0.901958 -1.58781 0
M  V30 47 H -4.22047 -1.60141 -1.56705 0
M  V30 48 H -1.78097 -1.1467 -1.98625 0
M  V30 49 H -2.22487 -2.55271 -1.00347 0
M  V30 50 H -5.13252 -0.870733 0.639719 0
M  V30 51 H -4.5055 -3.05272 0.859585 0
M  V30 52 H -3.48509 -2.33055 2.00017 0
M  V30 END ATOM
M  V30 BEGIN BOND
M  V30 1 1 1 2
M  V30 2 1 2 3
M  V30 3 1 3 4
M  V30 4 1 4 5
M  V30 5 1 5 6
M  V30 6 1 6 7
M  V30 7 1 7 8
M  V30 8 1 8 9
M  V30 9 1 9 10
M  V30 10 2 10 11
M  V30 11 1 10 12
M  V30 12 1 12 13
M  V30 13 1 13 14
M  V30 14 1 14 15
M  V30 15 1 15 16
M  V30 16 1 16 17
M  V30 17 1 17 18
M  V30 18 1 18 19
M  V30 19 1 18 20
M  V30 20 1 20 21
M  V30 21 1 8 3
M  V30 22 1 19 12
M  V30 23 1 20 14
M  V30 24 1 1 22
M  V30 25 1 1 23
M  V30 26 1 2 24
M  V30 27 1 2 25
M  V30 28 1 3 26
M  V30 29 1 4 27
M  V30 30 1 4 28
M  V30 31 1 5 29
M  V30 32 1 5 30
M  V30 33 1 6 31
M  V30 34 1 6 32
M  V30 35 1 7 33
M  V30 36 1 7 34
M  V30 37 1 8 35
M  V30 38 1 9 36
M  V30 39 1 12 37
M  V30 40 1 13 38
M  V30 41 1 13 39
M  V30 42 1 14 40
M  V30 43 1 15 41
M  V30 44 1 15 42
M  V30 45 1 16 43
M  V30 46 1 16 44
M  V30 47 1 17 45
M  V30 48 1 17 46
M  V30 49 1 18 47
M  V30 50 1 19 48
M  V30 51 1 19 49
M  V30 52 1 20 50
M  V30 53 1 21 51
M  V30 54 1 21 52
M  V30 END BOND
M  V30 END CTAB
M  END
