
     RDKit          3D

  0  0  0  0  0  0  0  0  0  0999 V3000
M  V30 BEGIN CTAB
M  V30 COUNTS 26 26 0 0 0
M  V30 BEGIN ATOM
M  V30 1 C -0.892391 -1.70062 0.859168 0
M  V30 2 C -0.259838 -0.899923 -0.261147 0
M  V30 3 C 1.16999 -0.631008 0.124384 0
M  V30 4 N 1.94898 0.301414 -0.462942 0
M  V30 5 C 3.15927 0.255595 0.14073 0
M  V30 6 N 3.08964 -0.701453 1.07726 0
M  V30 7 O 1.88316 -1.20853 1.03779 0
M  V30 8 N 4.21519 1.13216 -0.220787 0
M  V30 9 C -0.895936 0.428579 -0.472399 0
M  V30 10 C -2.3488 0.464745 -0.783059 0
M  V30 11 C -2.68295 1.96024 -0.929253 0
M  V30 12 N -0.268701 -1.68125 -1.45356 0
M  V30 13 H -1.95402 -1.82281 0.680308 0
M  V30 14 H -0.629627 -1.28752 1.8548 0
M  V30 15 H -0.408195 -2.69336 0.7978 0
M  V30 16 H 4.63364 0.944124 -1.15933 0
M  V30 17 H 4.50283 1.88553 0.441322 0
M  V30 18 H -0.672455 1.09397 0.380318 0
M  V30 19 H -0.389992 0.889149 -1.38034 0
M  V30 20 H -2.99892 0.0883226 0.0355866 0
M  V30 21 H -2.6007 -0.023184 -1.73121 0
M  V30 22 H -2.45755 2.39723 0.090235 0
M  V30 23 H -1.98289 2.47393 -1.61544 0
M  V30 24 H -3.70341 2.10862 -1.2411 0
M  V30 25 H 0.260764 -1.19135 -2.20243 0
M  V30 26 H 0.28291 -2.58261 -1.30041 0
M  V30 END ATOM
M  V30 BEGIN BOND
M  V30 1 1 1 2
M  V30 2 1 2 3
M  V30 3 2 3 4
M  V30 4 1 4 5
M  V30 5 2 5 6
M  V30 6 1 6 7
M  V30 7 1 5 8
M  V30 8 1 2 9
M  V30 9 1 9 10
M  V30 10 1 10 11
M  V30 11 1 2 12
M  V30 12 1 7 3
M  V30 13 1 1 13
M  V30 14 1 1 14
M  V30 15 1 1 15
M  V30 16 1 8 16
M  V30 17 1 8 17
M  V30 18 1 9 18
M  V30 19 1 9 19
M  V30 20 1 10 20
M  V30 21 1 10 21
M  V30 22 1 11 22
M  V30 23 1 11 23
M  V30 24 1 11 24
M  V30 25 1 12 25
M  V30 26 1 12 26
M  V30 END BOND
M  V30 END CTAB
M  END
