
     RDKit          3D

  0  0  0  0  0  0  0  0  0  0999 V3000
M  V30 BEGIN CTAB
M  V30 COUNTS 19 19 0 0 0
M  V30 BEGIN ATOM
M  V30 1 N 2.97956 0.221605 0.98733 0
M  V30 2 C 1.69898 0.248871 0.380528 0
M  V30 3 C 0.632687 -0.441055 0.941468 0
M  V30 4 C -0.621156 -0.416085 0.349939 0
M  V30 5 C -1.75553 -1.15938 0.960608 0
M  V30 6 C -0.859084 0.290286 -0.812042 0
M  V30 7 C 0.196959 0.978004 -1.37421 0
M  V30 8 C 1.44065 0.948955 -0.781063 0
M  V30 9 F -0.036517 1.66416 -2.50397 0
M  V30 10 N -2.16438 0.280741 -1.37466 0
M  V30 11 H 3.80751 0.327789 0.379041 0
M  V30 12 H 3.12681 0.100896 2.00731 0
M  V30 13 H 0.783864 -1.00876 1.85763 0
M  V30 14 H -1.60922 -1.33084 2.0476 0
M  V30 15 H -1.82729 -2.15951 0.471554 0
M  V30 16 H -2.72557 -0.658054 0.757054 0
M  V30 17 H 2.27738 1.4978 -1.2324 0
M  V30 18 H -2.42064 -0.105515 -2.28467 0
M  V30 19 H -2.92501 0.7201 -0.777039 0
M  V30 END ATOM
M  V30 BEGIN BOND
M  V30 1 1 1 2
M  V30 2 2 2 3
M  V30 3 1 3 4
M  V30 4 1 4 5
M  V30 5 2 4 6
M  V30 6 1 6 7
M  V30 7 2 7 8
M  V30 8 1 7 9
M  V30 9 1 6 10
M  V30 10 1 8 2
M  V30 11 1 1 11
M  V30 12 1 1 12
M  V30 13 1 3 13
M  V30 14 1 5 14
M  V30 15 1 5 15
M  V30 16 1 5 16
M  V30 17 1 8 17
M  V30 18 1 10 18
M  V30 19 1 10 19
M  V30 END BOND
M  V30 END CTAB
M  END
