
     RDKit          3D

  0  0  0  0  0  0  0  0  0  0999 V3000
M  V30 BEGIN CTAB
M  V30 COUNTS 18 18 0 0 0
M  V30 BEGIN ATOM
M  V30 1 N 0.42008 2.42354 -0.199376 0
M  V30 2 C 0.784541 1.06913 -0.0586313 0
M  V30 3 N 1.99665 0.61747 0.32157 0
M  V30 4 C 1.95243 -0.713429 0.333678 0
M  V30 5 N 0.705671 -1.04684 -0.0382813 0
M  V30 6 N -0.0351209 0.0189573 -0.286395 0
M  V30 7 C -1.39131 -0.0612731 -0.717248 0
M  V30 8 C -2.40495 -0.0812838 0.3449 0
M  V30 9 O -2.27758 0.661748 1.32582 0
M  V30 10 O -3.49477 -0.957198 0.217011 0
M  V30 11 N 2.96324 -1.6708 0.660968 0
M  V30 12 H 0.702609 3.09835 0.534811 0
M  V30 13 H -0.103036 2.75581 -1.01069 0
M  V30 14 H -1.62021 0.810591 -1.40673 0
M  V30 15 H -1.51533 -0.964042 -1.39715 0
M  V30 16 H -3.38942 -1.88554 -0.16546 0
M  V30 17 H 3.04768 -2.08924 1.61635 0
M  V30 18 H 3.65882 -1.98595 -0.0751531 0
M  V30 END ATOM
M  V30 BEGIN BOND
M  V30 1 1 1 2
M  V30 2 2 2 3
M  V30 3 1 3 4
M  V30 4 2 4 5
M  V30 5 1 5 6
M  V30 6 1 6 7
M  V30 7 1 7 8
M  V30 8 2 8 9
M  V30 9 1 8 10
M  V30 10 1 4 11
M  V30 11 1 6 2
M  V30 12 1 1 12
M  V30 13 1 1 13
M  V30 14 1 7 14
M  V30 15 1 7 15
M  V30 16 1 10 16
M  V30 17 1 11 17
M  V30 18 1 11 18
M  V30 END BOND
M  V30 END CTAB
M  END
