
     RDKit          3D

  0  0  0  0  0  0  0  0  0  0999 V3000
M  V30 BEGIN CTAB
M  V30 COUNTS 16 15 0 0 0
M  V30 BEGIN ATOM
M  V30 1 N -0.969303 1.49823 0.797881 0
M  V30 2 C -0.387014 1.14491 -0.471129 0
M  V30 3 C 0.146217 -0.280052 -0.463517 0
M  V30 4 C -1.01455 -1.17793 -0.320514 0
M  V30 5 O -1.93796 -1.07345 -1.16857 0
M  V30 6 O -1.16712 -2.12147 0.668065 0
M  V30 7 O 1.11069 -0.446048 0.488832 0
M  V30 8 N 2.3073 -0.758916 -0.0944577 0
M  V30 9 H -0.242053 1.71097 1.52347 0
M  V30 10 H -1.72022 2.19629 0.732559 0
M  V30 11 H -1.20438 1.17101 -1.23248 0
M  V30 12 H 0.436734 1.79492 -0.775631 0
M  V30 13 H 0.58045 -0.442453 -1.48211 0
M  V30 14 H -1.66603 -1.95115 1.53537 0
M  V30 15 H 2.85192 -1.38637 0.540884 0
M  V30 16 H 2.87532 0.121515 -0.278661 0
M  V30 END ATOM
M  V30 BEGIN BOND
M  V30 1 1 1 2
M  V30 2 1 2 3
M  V30 3 1 3 4
M  V30 4 2 4 5
M  V30 5 1 4 6
M  V30 6 1 3 7
M  V30 7 1 7 8
M  V30 8 1 1 9
M  V30 9 1 1 10
M  V30 10 1 2 11
M  V30 11 1 2 12
M  V30 12 1 3 13
M  V30 13 1 6 14
M  V30 14 1 8 15
M  V30 15 1 8 16
M  V30 END BOND
M  V30 END CTAB
M  END
