
     RDKit          3D

  0  0  0  0  0  0  0  0  0  0999 V3000
M  V30 BEGIN CTAB
M  V30 COUNTS 30 30 0 0 0
M  V30 BEGIN ATOM
M  V30 1 C -4.04976 -0.970878 -0.764826 0
M  V30 2 C -3.62964 -0.443932 0.578167 0
M  V30 3 C -2.87985 0.857486 0.463781 0
M  V30 4 C -1.62603 0.707024 -0.365784 0
M  V30 5 C -0.881168 2.02271 -0.471819 0
M  V30 6 S 0.620133 1.85794 -1.46058 0
M  V30 7 C 1.81905 0.799245 -0.656436 0
M  V30 8 N 1.84207 -0.534599 -0.861103 0
M  V30 9 C 2.70584 -1.37512 -0.294872 0
M  V30 10 N 2.72436 -2.76847 -0.51142 0
M  V30 11 C 3.66016 -0.865484 0.571517 0
M  V30 12 C 3.65561 0.507719 0.798007 0
M  V30 13 N 4.63845 1.01022 1.68636 0
M  V30 14 N 2.74476 1.2953 0.184589 0
M  V30 15 H -3.45527 -1.88881 -0.96453 0
M  V30 16 H -3.86156 -0.204798 -1.52924 0
M  V30 17 H -5.13799 -1.21863 -0.765201 0
M  V30 18 H -3.03618 -1.19253 1.1441 0
M  V30 19 H -4.5448 -0.219956 1.19522 0
M  V30 20 H -3.55732 1.62882 0.0506171 0
M  V30 21 H -2.55345 1.158 1.48119 0
M  V30 22 H -0.979207 -0.0687046 0.0756469 0
M  V30 23 H -1.91084 0.37209 -1.37816 0
M  V30 24 H -1.55087 2.7236 -1.01897 0
M  V30 25 H -0.658944 2.45358 0.512367 0
M  V30 26 H 2.96935 -3.13873 -1.44122 0
M  V30 27 H 2.49341 -3.41318 0.257473 0
M  V30 28 H 4.38395 -1.49989 1.05786 0
M  V30 29 H 5.31708 1.77407 1.43161 0
M  V30 30 H 4.73864 0.635905 2.66298 0
M  V30 END ATOM
M  V30 BEGIN BOND
M  V30 1 1 1 2
M  V30 2 1 2 3
M  V30 3 1 3 4
M  V30 4 1 4 5
M  V30 5 1 5 6
M  V30 6 1 6 7
M  V30 7 2 7 8
M  V30 8 1 8 9
M  V30 9 1 9 10
M  V30 10 2 9 11
M  V30 11 1 11 12
M  V30 12 1 12 13
M  V30 13 2 12 14
M  V30 14 1 14 7
M  V30 15 1 1 15
M  V30 16 1 1 16
M  V30 17 1 1 17
M  V30 18 1 2 18
M  V30 19 1 2 19
M  V30 20 1 3 20
M  V30 21 1 3 21
M  V30 22 1 4 22
M  V30 23 1 4 23
M  V30 24 1 5 24
M  V30 25 1 5 25
M  V30 26 1 10 26
M  V30 27 1 10 27
M  V30 28 1 11 28
M  V30 29 1 13 29
M  V30 30 1 13 30
M  V30 END BOND
M  V30 END CTAB
M  END
