
     RDKit          3D

  0  0  0  0  0  0  0  0  0  0999 V3000
M  V30 BEGIN CTAB
M  V30 COUNTS 34 34 0 0 0
M  V30 BEGIN ATOM
M  V30 1 O 1.24501 2.37377 -2.82387 0
M  V30 2 C 0.872901 3.15452 -1.70677 0
M  V30 3 C -0.12859 2.31565 -0.936542 0
M  V30 4 C -0.565221 3.09051 0.267172 0
M  V30 5 C -1.72755 2.39781 0.943801 0
M  V30 6 C -1.72484 0.956419 0.470375 0
M  V30 7 C -0.327501 0.37163 0.515903 0
M  V30 8 C 0.466094 0.967857 -0.583614 0
M  V30 9 C -0.453245 -1.11665 0.48408 0
M  V30 10 N 0.768943 -1.83298 0.520002 0
M  V30 11 C 0.778949 -3.25321 0.493932 0
M  V30 12 N 1.2324 -3.9137 -0.508131 0
M  V30 13 N 1.2202 -5.29389 -0.485048 0
M  V30 14 N 0.281117 -4.01472 1.5886 0
M  V30 15 H 2.07846 2.71446 -3.20023 0
M  V30 16 H 0.400264 4.05646 -2.09646 0
M  V30 17 H 1.76492 3.35959 -1.10856 0
M  V30 18 H -1.00611 2.19257 -1.59651 0
M  V30 19 H -0.939072 4.06998 -0.0840542 0
M  V30 20 H 0.22773 3.19979 1.0343 0
M  V30 21 H -2.70494 2.83999 0.696272 0
M  V30 22 H -1.61789 2.38487 2.05028 0
M  V30 23 H -2.14734 0.861699 -0.554337 0
M  V30 24 H -2.35274 0.311224 1.11552 0
M  V30 25 H 0.116455 0.665845 1.49246 0
M  V30 26 H 1.53232 1.17035 -0.297042 0
M  V30 27 H 0.483684 0.353862 -1.51531 0
M  V30 28 H -1.03315 -1.43849 -0.426485 0
M  V30 29 H -1.07148 -1.4304 1.35093 0
M  V30 30 H 1.67124 -1.3351 0.565655 0
M  V30 31 H 1.17553 -5.85119 -1.35574 0
M  V30 32 H 1.25645 -5.78429 0.421172 0
M  V30 33 H -0.30833 -4.87604 1.45058 0
M  V30 34 H 0.535342 -3.66818 2.54339 0
M  V30 END ATOM
M  V30 BEGIN BOND
M  V30 1 1 1 2
M  V30 2 1 2 3
M  V30 3 1 3 4
M  V30 4 1 4 5
M  V30 5 1 5 6
M  V30 6 1 6 7
M  V30 7 1 7 8
M  V30 8 1 7 9
M  V30 9 1 9 10
M  V30 10 1 10 11
M  V30 11 2 11 12 CFG=2
M  V30 12 1 12 13
M  V30 13 1 11 14
M  V30 14 1 8 3
M  V30 15 1 1 15
M  V30 16 1 2 16
M  V30 17 1 2 17
M  V30 18 1 3 18
M  V30 19 1 4 19
M  V30 20 1 4 20
M  V30 21 1 5 21
M  V30 22 1 5 22
M  V30 23 1 6 23
M  V30 24 1 6 24
M  V30 25 1 7 25
M  V30 26 1 8 26
M  V30 27 1 8 27
M  V30 28 1 9 28
M  V30 29 1 9 29
M  V30 30 1 10 30
M  V30 31 1 13 31
M  V30 32 1 13 32
M  V30 33 1 14 33
M  V30 34 1 14 34
M  V30 END BOND
M  V30 END CTAB
M  END
