
     RDKit          3D

  0  0  0  0  0  0  0  0  0  0999 V3000
M  V30 BEGIN CTAB
M  V30 COUNTS 29 29 0 0 0
M  V30 BEGIN ATOM
M  V30 1 N 4.08909 -0.368558 -0.176883 0
M  V30 2 C 2.71513 -0.794929 0.131176 0
M  V30 3 C 1.83987 0.410619 -0.0754897 0
M  V30 4 C 0.389982 0.125171 0.204763 0
M  V30 5 O 0.264267 -0.28738 1.53418 0
M  V30 6 C -0.158021 -0.975029 -0.680876 0
M  V30 7 C -1.56037 -1.27107 -0.147351 0
M  V30 8 C -2.41412 -0.094415 -0.437299 0
M  V30 9 C -1.7005 1.17608 -0.703845 0
M  V30 10 C -0.42292 1.36524 0.0337253 0
M  V30 11 N -3.41235 0.0444173 0.63256 0
M  V30 12 H 3.98259 0.240193 -1.04067 0
M  V30 13 H 4.33918 0.308503 0.594967 0
M  V30 14 H 2.45199 -1.62317 -0.556413 0
M  V30 15 H 2.71625 -1.1828 1.15388 0
M  V30 16 H 2.0006 0.765422 -1.10554 0
M  V30 17 H 2.16138 1.19817 0.6326 0
M  V30 18 H 0.541528 -1.23554 1.65643 0
M  V30 19 H -0.304259 -0.573464 -1.70832 0
M  V30 20 H 0.432559 -1.89123 -0.659651 0
M  V30 21 H -1.47838 -1.47587 0.957377 0
M  V30 22 H -1.91902 -2.20031 -0.649392 0
M  V30 23 H -3.02536 -0.338726 -1.35506 0
M  V30 24 H -1.53205 1.35733 -1.80551 0
M  V30 25 H -2.3839 2.01998 -0.389456 0
M  V30 26 H -0.587731 1.87731 1.02468 0
M  V30 27 H 0.188581 2.11457 -0.550334 0
M  V30 28 H -2.98488 0.734804 1.30699 0
M  V30 29 H -4.22916 0.574682 0.205915 0
M  V30 END ATOM
M  V30 BEGIN BOND
M  V30 1 1 1 2
M  V30 2 1 2 3
M  V30 3 1 3 4
M  V30 4 1 4 5
M  V30 5 1 4 6
M  V30 6 1 6 7
M  V30 7 1 7 8
M  V30 8 1 8 9
M  V30 9 1 9 10
M  V30 10 1 8 11
M  V30 11 1 10 4
M  V30 12 1 1 12
M  V30 13 1 1 13
M  V30 14 1 2 14
M  V30 15 1 2 15
M  V30 16 1 3 16
M  V30 17 1 3 17
M  V30 18 1 5 18
M  V30 19 1 6 19
M  V30 20 1 6 20
M  V30 21 1 7 21
M  V30 22 1 7 22
M  V30 23 1 8 23
M  V30 24 1 9 24
M  V30 25 1 9 25
M  V30 26 1 10 26
M  V30 27 1 10 27
M  V30 28 1 11 28
M  V30 29 1 11 29
M  V30 END BOND
M  V30 END CTAB
M  END
