
     RDKit          3D

  0  0  0  0  0  0  0  0  0  0999 V3000
M  V30 BEGIN CTAB
M  V30 COUNTS 32 32 0 0 0
M  V30 BEGIN ATOM
M  V30 1 C -3.36998 -2.2415 0.132221 0
M  V30 2 C -2.57621 -1.62222 -1.02348 0
M  V30 3 N -2.02543 -0.330762 -0.60023 0
M  V30 4 C -2.99058 0.707223 -0.373779 0
M  V30 5 C -2.41465 2.01008 0.0612187 0
M  V30 6 C -0.632396 -0.140839 -0.433887 0
M  V30 7 C 0.181344 -0.321498 -1.53305 0
M  V30 8 Cl -0.535649 -0.768131 -3.06732 0
M  V30 9 N 1.50747 -0.145195 -1.38618 0
M  V30 10 C 2.0331 0.20331 -0.181304 0
M  V30 11 C 3.47397 0.395471 -0.0202745 0
M  V30 12 O 3.95975 0.717733 1.08473 0
M  V30 13 N 4.37646 0.225919 -1.10216 0
M  V30 14 N 5.74965 0.40469 -0.965368 0
M  V30 15 C 1.24012 0.389427 0.931211 0
M  V30 16 N 1.80165 0.755418 2.19298 0
M  V30 17 N -0.0827175 0.2082 0.762913 0
M  V30 18 H -3.31521 -3.34729 0.0595264 0
M  V30 19 H -2.98507 -1.94745 1.10954 0
M  V30 20 H -4.43876 -1.91903 0.0752371 0
M  V30 21 H -1.78701 -2.34353 -1.2846 0
M  V30 22 H -3.29241 -1.44274 -1.84924 0
M  V30 23 H -3.54213 0.906825 -1.33965 0
M  V30 24 H -3.75796 0.306405 0.311007 0
M  V30 25 H -2.48115 2.04733 1.17626 0
M  V30 26 H -1.39238 2.19373 -0.263146 0
M  V30 27 H -3.02334 2.88633 -0.303571 0
M  V30 28 H 4.00931 -0.0411557 -2.03391 0
M  V30 29 H 6.27432 -0.491049 -1.09176 0
M  V30 30 H 6.02217 0.874914 -0.094489 0
M  V30 31 H 1.69883 1.75427 2.53869 0
M  V30 32 H 2.31489 0.115105 2.81807 0
M  V30 END ATOM
M  V30 BEGIN BOND
M  V30 1 1 1 2
M  V30 2 1 2 3
M  V30 3 1 3 4
M  V30 4 1 4 5
M  V30 5 1 3 6
M  V30 6 2 6 7
M  V30 7 1 7 8
M  V30 8 1 7 9
M  V30 9 2 9 10
M  V30 10 1 10 11
M  V30 11 2 11 12
M  V30 12 1 11 13
M  V30 13 1 13 14
M  V30 14 1 10 15
M  V30 15 1 15 16
M  V30 16 2 15 17
M  V30 17 1 17 6
M  V30 18 1 1 18
M  V30 19 1 1 19
M  V30 20 1 1 20
M  V30 21 1 2 21
M  V30 22 1 2 22
M  V30 23 1 4 23
M  V30 24 1 4 24
M  V30 25 1 5 25
M  V30 26 1 5 26
M  V30 27 1 5 27
M  V30 28 1 13 28
M  V30 29 1 14 29
M  V30 30 1 14 30
M  V30 31 1 16 31
M  V30 32 1 16 32
M  V30 END BOND
M  V30 END CTAB
M  END
