
     RDKit          3D

  0  0  0  0  0  0  0  0  0  0999 V3000
M  V30 BEGIN CTAB
M  V30 COUNTS 41 44 0 0 0
M  V30 BEGIN ATOM
M  V30 1 O -0.0579552 2.09771 -0.488811 0
M  V30 2 C 0.602857 1.28548 0.233671 0
M  V30 3 N 0.103304 0.0169324 0.583305 0
M  V30 4 C -1.17317 -0.500527 0.265699 0
M  V30 5 C -1.3904 -1.84485 0.128904 0
M  V30 6 C -2.68644 -2.30901 -0.0642762 0
M  V30 7 C -3.75243 -1.44807 -0.120375 0
M  V30 8 C -3.56344 -0.0957451 0.0115156 0
M  V30 9 C -2.26512 0.35068 0.203086 0
M  V30 10 C -4.79196 0.513034 -0.0785814 0
M  V30 11 C -5.17516 1.8191 -0.0114401 0
M  V30 12 C -6.5129 2.17429 -0.130957 0
M  V30 13 C -7.43117 1.179 -0.314463 0
M  V30 14 C -7.04443 -0.136654 -0.380857 0
M  V30 15 C -5.70437 -0.488478 -0.262878 0
M  V30 16 O -5.05188 -1.62084 -0.283502 0
M  V30 17 C 1.91189 1.77013 0.699795 0
M  V30 18 S 2.89956 0.613843 1.6289 0
M  V30 19 C 4.22397 -0.0417078 0.633264 0
M  V30 20 N 5.42218 0.640807 0.655166 0
M  V30 21 C 6.51115 0.270604 0.00613928 0
M  V30 22 N 7.7417 1.0281 0.0869585 0
M  V30 23 C 6.42974 -0.878274 -0.741206 0
M  V30 24 C 5.25837 -1.60243 -0.800213 0
M  V30 25 N 4.1803 -1.14206 -0.0930502 0
M  V30 26 N 5.23635 -2.77684 -1.58619 0
M  V30 27 H 0.726625 -0.636382 1.14926 0
M  V30 28 H -0.551506 -2.55354 0.166141 0
M  V30 29 H -2.85043 -3.37493 -0.172189 0
M  V30 30 H -2.16744 1.42739 0.313547 0
M  V30 31 H -4.45381 2.62288 0.134615 0
M  V30 32 H -6.79552 3.19204 -0.0815379 0
M  V30 33 H -8.50117 1.4029 -0.419487 0
M  V30 34 H -7.74954 -0.911175 -0.52176 0
M  V30 35 H 1.7957 2.75575 1.25235 0
M  V30 36 H 2.47714 2.13268 -0.243991 0
M  V30 37 H 7.68012 2.0589 0.15297 0
M  V30 38 H 8.68024 0.591993 0.0830943 0
M  V30 39 H 7.31418 -1.18346 -1.27332 0
M  V30 40 H 5.52596 -2.72757 -2.57078 0
M  V30 41 H 4.94892 -3.67166 -1.17712 0
M  V30 END ATOM
M  V30 BEGIN BOND
M  V30 1 2 1 2
M  V30 2 1 2 3
M  V30 3 1 3 4
M  V30 4 2 4 5
M  V30 5 1 5 6
M  V30 6 2 6 7
M  V30 7 1 7 8
M  V30 8 2 8 9
M  V30 9 1 8 10
M  V30 10 2 10 11
M  V30 11 1 11 12
M  V30 12 2 12 13
M  V30 13 1 13 14
M  V30 14 2 14 15
M  V30 15 1 15 16
M  V30 16 1 2 17
M  V30 17 1 17 18
M  V30 18 1 18 19
M  V30 19 2 19 20
M  V30 20 1 20 21
M  V30 21 1 21 22
M  V30 22 2 21 23
M  V30 23 1 23 24
M  V30 24 2 24 25
M  V30 25 1 24 26
M  V30 26 1 9 4
M  V30 27 1 15 10
M  V30 28 1 25 19
M  V30 29 1 16 7
M  V30 30 1 3 27
M  V30 31 1 5 28
M  V30 32 1 6 29
M  V30 33 1 9 30
M  V30 34 1 11 31
M  V30 35 1 12 32
M  V30 36 1 13 33
M  V30 37 1 14 34
M  V30 38 1 17 35
M  V30 39 1 17 36
M  V30 40 1 22 37
M  V30 41 1 22 38
M  V30 42 1 23 39
M  V30 43 1 26 40
M  V30 44 1 26 41
M  V30 END BOND
M  V30 END CTAB
M  END
