
     RDKit          3D

  0  0  0  0  0  0  0  0  0  0999 V3000
M  V30 BEGIN CTAB
M  V30 COUNTS 166 169 0 0 0
M  V30 BEGIN ATOM
M  V30 1 C -14.296 3.78614 3.32504 0
M  V30 2 C -12.8078 3.95809 3.23403 0
M  V30 3 C -12.1807 3.02589 2.19157 0 CFG=2
M  V30 4 C -12.8192 3.39547 0.877894 0
M  V30 5 C -12.4373 1.58849 2.55891 0 CFG=2
M  V30 6 N -11.9118 1.23891 3.8457 0
M  V30 7 C -11.9896 0.618364 1.50972 0
M  V30 8 O -12.1492 0.993788 0.331853 0
M  V30 9 N -11.4243 -0.644143 1.89795 0
M  V30 10 C -10.9592 -1.67037 1.04677 0 CFG=1
M  V30 11 C -11.6435 -1.98104 -0.222914 0
M  V30 12 C -13.0241 -2.50122 -0.186968 0
M  V30 13 C -13.4931 -2.70199 -1.63622 0
M  V30 14 C -14.0784 -1.83915 0.578546 0
M  V30 15 C -9.54017 -1.96569 1.03344 0
M  V30 16 O -8.93377 -1.91645 2.16201 0
M  V30 17 N -8.7166 -2.30719 -0.0709962 0
M  V30 18 C -7.32847 -2.59797 0.0857166 0 CFG=1
M  V30 19 C -6.80403 -3.75088 -0.66933 0
M  V30 20 C -6.92786 -3.74187 -2.14498 0
M  V30 21 C -6.27226 -2.62913 -2.87635 0
M  V30 22 C -6.542 -2.87675 -4.37031 0
M  V30 23 N -5.94374 -1.83376 -5.16668 0
M  V30 24 C -6.43361 -1.39534 0.0684064 0
M  V30 25 O -7.03464 -0.302519 -0.0919086 0
M  V30 26 N -5.06593 -1.45947 0.221428 0
M  V30 27 C -4.15117 -0.298191 0.257091 0 CFG=1
M  V30 28 C -4.56765 0.429305 1.58171 0
M  V30 29 C -3.76622 1.67086 1.77777 0
M  V30 30 C -3.95585 2.71488 0.770176 0
M  V30 31 O -3.13978 3.84043 0.710598 0
M  V30 32 O -4.8675 2.63951 -0.0933371 0
M  V30 33 C -2.77935 -0.767014 0.429295 0
M  V30 34 O -2.57267 -1.64524 1.33418 0
M  V30 35 N -1.65213 -0.344802 -0.312695 0
M  V30 36 C -1.67572 0.543058 -1.44258 0
M  V30 37 C -0.621432 -0.0806279 -2.36535 0
M  V30 38 C 0.00585461 -1.23269 -1.56359 0
M  V30 39 C -0.260625 -0.716665 -0.109744 0 CFG=1
M  V30 40 C 0.677048 0.357169 0.18814 0
M  V30 41 O 0.408228 1.5612 0.108372 0
M  V30 42 N 1.99742 -0.0165474 0.594023 0
M  V30 43 C 3.01516 0.979556 0.893537 0 CFG=1
M  V30 44 C 3.253 1.02444 2.4033 0
M  V30 45 C 1.97263 1.37776 3.15337 0
M  V30 46 C 4.2619 2.06637 2.80603 0
M  V30 47 C 4.2942 0.656001 0.205264 0
M  V30 48 O 4.58859 -0.586808 0.254956 0
M  V30 49 N 5.10231 1.62211 -0.439575 0
M  V30 50 C 6.33679 1.34319 -1.0979 0 CFG=1
M  V30 51 C 6.18462 1.18075 -2.61848 0
M  V30 52 C 5.31635 0.0748853 -2.93523 0
M  V30 53 C 5.73528 -1.22189 -3.09558 0
M  V30 54 N 4.70199 -1.99714 -3.39545 0
M  V30 55 C 3.63107 -1.18451 -3.42248 0
M  V30 56 N 3.98696 0.082542 -3.14378 0
M  V30 57 C 7.414 2.34025 -0.861331 0
M  V30 58 O 7.18755 3.55978 -0.690877 0
M  V30 59 N 8.80152 1.91894 -0.826626 0
M  V30 60 C 9.86782 2.84864 -0.655754 0
M  V30 61 C 11.2224 2.2828 -0.574148 0
M  V30 62 O 12.202 3.11702 -0.533071 0
M  V30 63 N 11.5212 0.918968 -0.533001 0
M  V30 64 C 12.8917 0.37292 -0.460749 0 CFG=1
M  V30 65 C 13.2662 -0.0721999 0.896435 0
M  V30 66 C 13.1978 1.07817 1.85645 0
M  V30 67 C 14.3296 1.8613 2.03081 0
M  V30 68 C 14.3298 2.91558 2.90712 0
M  V30 69 C 13.1842 3.18613 3.61452 0
M  V30 70 O 13.1495 4.26151 4.51746 0
M  V30 71 C 12.0737 2.42845 3.45394 0
M  V30 72 C 12.0632 1.36444 2.57359 0
M  V30 73 C 13.0493 -0.576354 -1.5674 0
M  V30 74 O 12.3861 -0.17477 -2.65539 0
M  V30 75 N 13.7071 -1.77017 -1.76768 0
M  V30 76 C 13.5823 -2.3366 -3.16487 0
M  V30 77 C 13.4557 -3.83903 -3.07169 0
M  V30 78 S 15.0772 -4.63506 -2.95855 0
M  V30 79 S 16.5583 -3.21676 -2.37131 0
M  V30 80 C 15.9315 -2.15384 -1.03933 0
M  V30 81 C 14.4583 -2.48837 -0.779863 0
M  V30 82 H -14.848 4.74438 3.28737 0
M  V30 83 H -14.7266 3.13394 2.53274 0
M  V30 84 H -14.5749 3.2932 4.30334 0
M  V30 85 H -12.3227 3.89115 4.20948 0
M  V30 86 H -12.6404 5.00325 2.83681 0
M  V30 87 H -11.1156 3.22758 2.14849 0
M  V30 88 H -13.7423 2.80053 0.678628 0
M  V30 89 H -13.1809 4.44812 0.958694 0
M  V30 90 H -12.1091 3.41451 0.0198048 0
M  V30 91 H -13.5581 1.47223 2.63763 0
M  V30 92 H -12.6163 0.727966 4.42718 0
M  V30 93 H -11.4268 2.00606 4.3499 0
M  V30 94 H -11.3679 -0.764289 2.96721 0
M  V30 95 H -11.3643 -2.64836 1.6744 0
M  V30 96 H -11.5402 -1.12896 -0.964743 0
M  V30 97 H -11.0238 -2.79649 -0.715743 0
M  V30 98 H -13.0088 -3.59906 0.194846 0
M  V30 99 H -14.1678 -3.54816 -1.72646 0
M  V30 100 H -13.9167 -1.73555 -2.0167 0
M  V30 101 H -12.5814 -2.91033 -2.22627 0
M  V30 102 H -13.9273 -1.81012 1.67184 0
M  V30 103 H -14.4114 -0.8589 0.154555 0
M  V30 104 H -15.0161 -2.47379 0.464245 0
M  V30 105 H -9.1297 -2.34662 -1.01561 0
M  V30 106 H -7.23708 -2.91296 1.20273 0
M  V30 107 H -7.2711 -4.71855 -0.293765 0
M  V30 108 H -5.7081 -3.90484 -0.444499 0
M  V30 109 H -6.53639 -4.74797 -2.49951 0
M  V30 110 H -8.03372 -3.81478 -2.37504 0
M  V30 111 H -6.59555 -1.63331 -2.58707 0
M  V30 112 H -5.16944 -2.72038 -2.76142 0
M  V30 113 H -7.62066 -3.02759 -4.53887 0
M  V30 114 H -6.0664 -3.85518 -4.64912 0
M  V30 115 H -6.0652 -0.879534 -4.73589 0
M  V30 116 H -4.90847 -2.03702 -5.26847 0
M  V30 117 H -4.62555 -2.42156 0.32916 0
M  V30 118 H -4.29381 0.410618 -0.522605 0
M  V30 119 H -4.37875 -0.2634 2.42551 0
M  V30 120 H -5.61574 0.685464 1.54268 0
M  V30 121 H -2.67329 1.42819 1.86547 0
M  V30 122 H -4.09248 2.10449 2.76026 0
M  V30 123 H -2.15426 3.69346 0.597005 0
M  V30 124 H -1.52989 1.59962 -1.24929 0
M  V30 125 H -2.69776 0.360673 -1.9266 0
M  V30 126 H 0.148672 0.699315 -2.50654 0
M  V30 127 H -1.05402 -0.449903 -3.30322 0
M  V30 128 H 1.09026 -1.26418 -1.62841 0
M  V30 129 H -0.535894 -2.17469 -1.66901 0
M  V30 130 H -0.252952 -1.57367 0.58848 0
M  V30 131 H 2.20845 -1.02285 0.668238 0
M  V30 132 H 2.67248 1.95599 0.58212 0
M  V30 133 H 3.58784 0.0601243 2.79615 0
M  V30 134 H 1.79115 2.46827 3.09156 0
M  V30 135 H 2.09853 1.16287 4.2426 0
M  V30 136 H 1.09144 0.845388 2.80107 0
M  V30 137 H 4.79933 1.69242 3.72879 0
M  V30 138 H 5.03422 2.26541 2.065 0
M  V30 139 H 3.76815 3.01115 3.18755 0
M  V30 140 H 4.77065 2.6197 -0.425811 0
M  V30 141 H 6.71382 0.353678 -0.783261 0
M  V30 142 H 5.8856 2.15421 -3.07461 0
M  V30 143 H 7.20836 0.985576 -2.99781 0
M  V30 144 H 6.7701 -1.59976 -2.99608 0
M  V30 145 H 4.71963 -3.03389 -3.57939 0
M  V30 146 H 2.61935 -1.53052 -3.64617 0
M  V30 147 H 9.00787 0.90549 -0.931591 0
M  V30 148 H 9.8367 3.54971 -1.5316 0
M  V30 149 H 9.71532 3.47824 0.2685 0
M  V30 150 H 10.7847 0.175302 -0.551121 0
M  V30 151 H 13.5906 1.25587 -0.696097 0
M  V30 152 H 14.3567 -0.357863 0.906664 0
M  V30 153 H 12.6566 -0.876592 1.31373 0
M  V30 154 H 15.233 1.63981 1.46726 0
M  V30 155 H 15.2331 3.51755 3.01661 0
M  V30 156 H 13.9772 4.81524 4.62595 0
M  V30 157 H 11.1503 2.63974 4.01992 0
M  V30 158 H 11.1955 0.745385 2.43303 0
M  V30 159 H 14.5332 -2.0978 -3.67069 0
M  V30 160 H 12.7135 -1.86428 -3.64009 0
M  V30 161 H 12.7907 -4.134 -2.23255 0
M  V30 162 H 12.9994 -4.18701 -4.02283 0
M  V30 163 H 16.5096 -2.36544 -0.121704 0
M  V30 164 H 16.0464 -1.07258 -1.25521 0
M  V30 165 H 14.1347 -2.41662 0.233116 0
M  V30 166 H 14.3802 -3.61637 -1.00945 0
M  V30 END ATOM
M  V30 BEGIN BOND
M  V30 1 1 1 2
M  V30 2 1 2 3
M  V30 3 1 3 4
M  V30 4 1 3 5
M  V30 5 1 5 6
M  V30 6 1 5 7
M  V30 7 2 7 8
M  V30 8 1 7 9
M  V30 9 1 9 10
M  V30 10 1 10 11
M  V30 11 1 11 12
M  V30 12 1 12 13
M  V30 13 1 12 14
M  V30 14 1 10 15
M  V30 15 2 15 16
M  V30 16 1 15 17
M  V30 17 1 17 18
M  V30 18 1 18 19
M  V30 19 1 19 20
M  V30 20 1 20 21
M  V30 21 1 21 22
M  V30 22 1 22 23
M  V30 23 1 18 24
M  V30 24 2 24 25
M  V30 25 1 24 26
M  V30 26 1 26 27
M  V30 27 1 27 28
M  V30 28 1 28 29
M  V30 29 1 29 30
M  V30 30 1 30 31
M  V30 31 2 30 32
M  V30 32 1 27 33
M  V30 33 2 33 34
M  V30 34 1 33 35
M  V30 35 1 35 36
M  V30 36 1 36 37
M  V30 37 1 37 38
M  V30 38 1 38 39
M  V30 39 1 39 40
M  V30 40 2 40 41
M  V30 41 1 40 42
M  V30 42 1 42 43
M  V30 43 1 43 44
M  V30 44 1 44 45
M  V30 45 1 44 46
M  V30 46 1 43 47
M  V30 47 2 47 48
M  V30 48 1 47 49
M  V30 49 1 49 50
M  V30 50 1 50 51
M  V30 51 1 51 52
M  V30 52 2 52 53
M  V30 53 1 53 54
M  V30 54 1 54 55
M  V30 55 2 55 56
M  V30 56 1 50 57
M  V30 57 2 57 58
M  V30 58 1 57 59
M  V30 59 1 59 60
M  V30 60 1 60 61
M  V30 61 2 61 62
M  V30 62 1 61 63
M  V30 63 1 63 64
M  V30 64 1 64 65
M  V30 65 1 65 66
M  V30 66 2 66 67
M  V30 67 1 67 68
M  V30 68 2 68 69
M  V30 69 1 69 70
M  V30 70 1 69 71
M  V30 71 2 71 72
M  V30 72 1 64 73
M  V30 73 2 73 74
M  V30 74 1 73 75
M  V30 75 1 75 76
M  V30 76 1 76 77
M  V30 77 1 77 78
M  V30 78 1 78 79
M  V30 79 1 79 80
M  V30 80 1 80 81
M  V30 81 1 39 35
M  V30 82 1 56 52
M  V30 83 1 72 66
M  V30 84 1 81 75
M  V30 85 1 1 82
M  V30 86 1 1 83
M  V30 87 1 1 84
M  V30 88 1 2 85
M  V30 89 1 2 86
M  V30 90 1 3 87 CFG=3
M  V30 91 1 4 88
M  V30 92 1 4 89
M  V30 93 1 4 90
M  V30 94 1 5 91 CFG=1
M  V30 95 1 6 92
M  V30 96 1 6 93
M  V30 97 1 9 94
M  V30 98 1 10 95 CFG=1
M  V30 99 1 11 96
M  V30 100 1 11 97
M  V30 101 1 12 98
M  V30 102 1 13 99
M  V30 103 1 13 100
M  V30 104 1 13 101
M  V30 105 1 14 102
M  V30 106 1 14 103
M  V30 107 1 14 104
M  V30 108 1 17 105
M  V30 109 1 18 106 CFG=1
M  V30 110 1 19 107
M  V30 111 1 19 108
M  V30 112 1 20 109
M  V30 113 1 20 110
M  V30 114 1 21 111
M  V30 115 1 21 112
M  V30 116 1 22 113
M  V30 117 1 22 114
M  V30 118 1 23 115
M  V30 119 1 23 116
M  V30 120 1 26 117
M  V30 121 1 27 118 CFG=3
M  V30 122 1 28 119
M  V30 123 1 28 120
M  V30 124 1 29 121
M  V30 125 1 29 122
M  V30 126 1 31 123
M  V30 127 1 36 124
M  V30 128 1 36 125
M  V30 129 1 37 126
M  V30 130 1 37 127
M  V30 131 1 38 128
M  V30 132 1 38 129
M  V30 133 1 39 130 CFG=1
M  V30 134 1 42 131
M  V30 135 1 43 132 CFG=3
M  V30 136 1 44 133
M  V30 137 1 45 134
M  V30 138 1 45 135
M  V30 139 1 45 136
M  V30 140 1 46 137
M  V30 141 1 46 138
M  V30 142 1 46 139
M  V30 143 1 49 140
M  V30 144 1 50 141 CFG=1
M  V30 145 1 51 142
M  V30 146 1 51 143
M  V30 147 1 53 144
M  V30 148 1 54 145
M  V30 149 1 55 146
M  V30 150 1 59 147
M  V30 151 1 60 148
M  V30 152 1 60 149
M  V30 153 1 63 150
M  V30 154 1 64 151 CFG=3
M  V30 155 1 65 152
M  V30 156 1 65 153
M  V30 157 1 67 154
M  V30 158 1 68 155
M  V30 159 1 70 156
M  V30 160 1 71 157
M  V30 161 1 72 158
M  V30 162 1 76 159
M  V30 163 1 76 160
M  V30 164 1 77 161
M  V30 165 1 77 162
M  V30 166 1 80 163
M  V30 167 1 80 164
M  V30 168 1 81 165
M  V30 169 1 81 166
M  V30 END BOND
M  V30 END CTAB
M  END
