
     RDKit          3D

  0  0  0  0  0  0  0  0  0  0999 V3000
M  V30 BEGIN CTAB
M  V30 COUNTS 33 34 0 0 0
M  V30 BEGIN ATOM
M  V30 1 N 5.88531 -0.65648 1.16806 0
M  V30 2 C 5.22246 0.296304 -0.192508 0
M  V30 3 N 6.36711 0.553238 -0.472239 0
M  V30 4 N 3.95961 0.0127405 0.116256 0
M  V30 5 C 2.89394 0.502133 -0.746417 0
M  V30 6 O 3.22864 1.16327 -1.74657 0
M  V30 7 C 1.49035 0.233261 -0.463092 0
M  V30 8 C 0.548944 0.715256 -1.34909 0
M  V30 9 N 0.8809 1.45262 -2.51655 0
M  V30 10 N -0.759569 0.486865 -1.09966 0
M  V30 11 C -1.19633 -0.200712 -0.00573124 0
M  V30 12 N -2.59729 -0.390673 0.202956 0
M  V30 13 C -3.41474 -1.51121 0.488128 0
M  V30 14 C -4.63043 -0.883067 1.18938 0
M  V30 15 C -4.87383 0.31401 0.248147 0
M  V30 16 C -3.47191 0.801623 0.0875376 0
M  V30 17 C -0.256367 -0.674426 0.872654 0
M  V30 18 Cl -0.721492 -1.56405 2.30821 0
M  V30 19 N 1.05836 -0.436724 0.604899 0
M  V30 20 H 5.9076 -0.000193492 1.84228 0
M  V30 21 H 5.99984 -1.51868 0.780733 0
M  V30 22 H 6.77892 1.12103 -1.22564 0
M  V30 23 H 3.57706 -0.531723 0.915621 0
M  V30 24 H 0.703752 2.48516 -2.5695 0
M  V30 25 H 1.31167 1.02976 -3.37884 0
M  V30 26 H -3.00032 -2.30341 1.12209 0
M  V30 27 H -3.82684 -2.03518 -0.40446 0
M  V30 28 H -4.38684 -0.494109 2.19405 0
M  V30 29 H -5.50401 -1.53927 1.14023 0
M  V30 30 H -5.5879 1.0157 0.644029 0
M  V30 31 H -5.19105 -0.136485 -0.73255 0
M  V30 32 H -3.27385 1.16637 -0.948266 0
M  V30 33 H -3.12171 1.52706 0.827328 0
M  V30 END ATOM
M  V30 BEGIN BOND
M  V30 1 1 1 2
M  V30 2 2 2 3 CFG=2
M  V30 3 1 2 4
M  V30 4 1 4 5
M  V30 5 2 5 6
M  V30 6 1 5 7
M  V30 7 2 7 8
M  V30 8 1 8 9
M  V30 9 1 8 10
M  V30 10 2 10 11
M  V30 11 1 11 12
M  V30 12 1 12 13
M  V30 13 1 13 14
M  V30 14 1 14 15
M  V30 15 1 15 16
M  V30 16 1 11 17
M  V30 17 1 17 18
M  V30 18 2 17 19
M  V30 19 1 19 7
M  V30 20 1 16 12
M  V30 21 1 1 20
M  V30 22 1 1 21
M  V30 23 1 3 22
M  V30 24 1 4 23
M  V30 25 1 9 24
M  V30 26 1 9 25
M  V30 27 1 13 26
M  V30 28 1 13 27
M  V30 29 1 14 28
M  V30 30 1 14 29
M  V30 31 1 15 30
M  V30 32 1 15 31
M  V30 33 1 16 32
M  V30 34 1 16 33
M  V30 END BOND
M  V30 END CTAB
M  END
