
     RDKit          3D

  0  0  0  0  0  0  0  0  0  0999 V3000
M  V30 BEGIN CTAB
M  V30 COUNTS 45 47 0 0 0
M  V30 BEGIN ATOM
M  V30 1 C -8.44292 -0.175937 -0.232787 0
M  V30 2 C -7.43212 0.367988 -1.22631 0
M  V30 3 O -6.14692 0.177868 -0.675734 0
M  V30 4 C -5.0352 0.605428 -1.35825 0
M  V30 5 O -5.15961 1.16106 -2.47464 0
M  V30 6 C -3.71503 0.413189 -0.775068 0
M  V30 7 C -3.557 -0.244359 0.426564 0
M  V30 8 C -2.30912 -0.389975 0.997853 0
M  V30 9 C -1.1858 0.12357 0.373722 0
M  V30 10 C -1.38484 0.775565 -0.833503 0
M  V30 11 C -2.60768 0.928631 -1.41169 0
M  V30 12 N 0.133964 0.0164739 0.934744 0
M  V30 13 C 0.339903 0.762319 2.1596 0
M  V30 14 C 1.07374 -0.781866 0.24384 0
M  V30 15 C 2.46431 -0.728814 0.718075 0
M  V30 16 N 3.4058 -0.46483 -0.229884 0
M  V30 17 C 4.70598 -0.381728 0.0587559 0
M  V30 18 C 5.1391 -0.567141 1.36671 0
M  V30 19 N 4.19112 -0.825124 2.27703 0
M  V30 20 C 2.88411 -0.912463 2.00853 0
M  V30 21 N 6.45639 -0.478798 1.63421 0
M  V30 22 C 7.35515 -0.216822 0.665719 0
M  V30 23 N 8.74 -0.117209 0.911017 0
M  V30 24 N 6.92718 -0.0369726 -0.606485 0
M  V30 25 C 5.62136 -0.111913 -0.941308 0
M  V30 26 N 5.1314 0.0656415 -2.25514 0
M  V30 27 H -9.46755 -0.0398103 -0.673284 0
M  V30 28 H -8.2041 -1.21763 -0.0301999 0
M  V30 29 H -8.31622 0.449372 0.694311 0
M  V30 30 H -7.52126 -0.132897 -2.2124 0
M  V30 31 H -7.57248 1.47779 -1.3874 0
M  V30 32 H -4.41637 -0.669075 0.960475 0
M  V30 33 H -2.15355 -0.906126 1.95226 0
M  V30 34 H -0.497093 1.1738 -1.31755 0
M  V30 35 H -2.6653 1.46183 -2.37306 0
M  V30 36 H -0.413369 1.59764 2.27179 0
M  V30 37 H 0.0923946 0.10245 3.04806 0
M  V30 38 H 1.31648 1.24373 2.24976 0
M  V30 39 H 1.00634 -0.558449 -0.836427 0
M  V30 40 H 0.711963 -1.85154 0.332916 0
M  V30 41 H 2.13391 -1.12203 2.76467 0
M  V30 42 H 9.13976 -0.632369 1.71297 0
M  V30 43 H 9.38829 0.462083 0.312608 0
M  V30 44 H 4.62662 -0.738612 -2.73415 0
M  V30 45 H 5.21826 0.936066 -2.82079 0
M  V30 END ATOM
M  V30 BEGIN BOND
M  V30 1 1 1 2
M  V30 2 1 2 3
M  V30 3 1 3 4
M  V30 4 2 4 5
M  V30 5 1 4 6
M  V30 6 2 6 7
M  V30 7 1 7 8
M  V30 8 2 8 9
M  V30 9 1 9 10
M  V30 10 2 10 11
M  V30 11 1 9 12
M  V30 12 1 12 13
M  V30 13 1 12 14
M  V30 14 1 14 15
M  V30 15 2 15 16
M  V30 16 1 16 17
M  V30 17 2 17 18
M  V30 18 1 18 19
M  V30 19 2 19 20
M  V30 20 1 18 21
M  V30 21 2 21 22
M  V30 22 1 22 23
M  V30 23 1 22 24
M  V30 24 2 24 25
M  V30 25 1 25 26
M  V30 26 1 11 6
M  V30 27 1 20 15
M  V30 28 1 25 17
M  V30 29 1 1 27
M  V30 30 1 1 28
M  V30 31 1 1 29
M  V30 32 1 2 30
M  V30 33 1 2 31
M  V30 34 1 7 32
M  V30 35 1 8 33
M  V30 36 1 10 34
M  V30 37 1 11 35
M  V30 38 1 13 36
M  V30 39 1 13 37
M  V30 40 1 13 38
M  V30 41 1 14 39
M  V30 42 1 14 40
M  V30 43 1 20 41
M  V30 44 1 23 42
M  V30 45 1 23 43
M  V30 46 1 26 44
M  V30 47 1 26 45
M  V30 END BOND
M  V30 END CTAB
M  END
