
     RDKit          3D

  0  0  0  0  0  0  0  0  0  0999 V3000
M  V30 BEGIN CTAB
M  V30 COUNTS 17 17 0 0 0
M  V30 BEGIN ATOM
M  V30 1 N 2.35798 -0.483925 -0.234289 0
M  V30 2 C 1.07308 0.126206 -0.155749 0
M  V30 3 C 0.903728 1.48441 -0.336006 0
M  V30 4 C -0.357802 2.08363 -0.258915 0
M  V30 5 C -1.46477 1.30085 0.00392852 0
M  V30 6 C -1.31671 -0.0443008 0.185047 0
M  V30 7 C -2.48776 -0.844106 0.458882 0
M  V30 8 N -3.42782 -1.49078 0.691974 0
M  V30 9 C -0.0595395 -0.616449 0.104499 0
M  V30 10 N 0.0684377 -2.01219 0.295832 0
M  V30 11 H 2.45064 -1.49846 -0.431562 0
M  V30 12 H 3.23125 0.0714044 -0.0961269 0
M  V30 13 H 1.74787 2.12918 -0.543573 0
M  V30 14 H -0.513801 3.13466 -0.395115 0
M  V30 15 H -2.44801 1.75942 0.0653082 0
M  V30 16 H 0.201526 -2.60818 -0.563977 0
M  V30 17 H 0.0417111 -2.49137 1.20984 0
M  V30 END ATOM
M  V30 BEGIN BOND
M  V30 1 1 1 2
M  V30 2 2 2 3
M  V30 3 1 3 4
M  V30 4 2 4 5
M  V30 5 1 5 6
M  V30 6 1 6 7
M  V30 7 3 7 8
M  V30 8 2 6 9
M  V30 9 1 9 10
M  V30 10 1 9 2
M  V30 11 1 1 11
M  V30 12 1 1 12
M  V30 13 1 3 13
M  V30 14 1 4 14
M  V30 15 1 5 15
M  V30 16 1 10 16
M  V30 17 1 10 17
M  V30 END BOND
M  V30 END CTAB
M  END
