
     RDKit          3D

  0  0  0  0  0  0  0  0  0  0999 V3000
M  V30 BEGIN CTAB
M  V30 COUNTS 38 40 0 0 0
M  V30 BEGIN ATOM
M  V30 1 N 5.06993 0.0386931 0.848408 0
M  V30 2 C 4.75163 0.939471 -0.188958 0 CFG=2
M  V30 3 C 3.6141 1.86174 0.120585 0
M  V30 4 C 2.72679 1.06768 -0.788763 0 CFG=1
M  V30 5 C 3.91762 0.278725 -1.24181 0
M  V30 6 C 1.67784 0.264539 -0.069432 0
M  V30 7 C 0.373044 0.352812 -0.472334 0
M  V30 8 C -0.650208 -0.358639 0.143623 0
M  V30 9 N -0.280585 -1.14787 1.17005 0
M  V30 10 C 1.00485 -1.22842 1.55931 0
M  V30 11 N 1.99823 -0.532233 0.954768 0
M  V30 12 N 1.30405 -2.09201 2.65847 0
M  V30 13 N -1.99793 -0.248539 -0.295151 0
M  V30 14 C -2.99834 -1.02522 0.403823 0
M  V30 15 C -4.33861 -0.743201 -0.238855 0
M  V30 16 N -5.2183 0.195026 0.0680033 0
M  V30 17 C -6.32634 0.289743 -0.597281 0
M  V30 18 C -6.53109 -0.61637 -1.61386 0
M  V30 19 S -5.10209 -1.54713 -1.53826 0
M  V30 20 C -2.29186 0.624772 -1.40461 0
M  V30 21 H 4.87531 0.284099 1.75128 0
M  V30 22 H 5.82364 -0.543849 0.64549 0
M  V30 23 H 5.64641 1.48598 -0.573917 0
M  V30 24 H 3.76859 2.90466 -0.257087 0
M  V30 25 H 3.33527 1.84699 1.1954 0
M  V30 26 H 2.26778 1.67511 -1.61433 0
M  V30 27 H 4.22913 0.566194 -2.26975 0
M  V30 28 H 3.78859 -0.819688 -1.12256 0
M  V30 29 H 0.0698021 0.993636 -1.30646 0
M  V30 30 H 0.831904 -1.95282 3.55887 0
M  V30 31 H 2.00151 -2.86338 2.54669 0
M  V30 32 H -2.81606 -2.1113 0.237301 0
M  V30 33 H -3.00984 -0.811503 1.47621 0
M  V30 34 H -7.10753 1.06294 -0.382811 0
M  V30 35 H -7.41303 -0.677517 -2.27549 0
M  V30 36 H -1.65675 0.302109 -2.26073 0
M  V30 37 H -1.98584 1.66066 -1.11657 0
M  V30 38 H -3.35162 0.62411 -1.68041 0
M  V30 END ATOM
M  V30 BEGIN BOND
M  V30 1 1 1 2
M  V30 2 1 2 3
M  V30 3 1 3 4
M  V30 4 1 4 5
M  V30 5 1 4 6
M  V30 6 2 6 7
M  V30 7 1 7 8
M  V30 8 2 8 9
M  V30 9 1 9 10
M  V30 10 2 10 11
M  V30 11 1 10 12
M  V30 12 1 8 13
M  V30 13 1 13 14
M  V30 14 1 14 15
M  V30 15 2 15 16
M  V30 16 1 16 17
M  V30 17 2 17 18
M  V30 18 1 18 19
M  V30 19 1 13 20
M  V30 20 1 5 2
M  V30 21 1 11 6
M  V30 22 1 19 15
M  V30 23 1 1 21
M  V30 24 1 1 22
M  V30 25 1 2 23 CFG=3
M  V30 26 1 3 24
M  V30 27 1 3 25
M  V30 28 1 4 26 CFG=3
M  V30 29 1 5 27
M  V30 30 1 5 28
M  V30 31 1 7 29
M  V30 32 1 12 30
M  V30 33 1 12 31
M  V30 34 1 14 32
M  V30 35 1 14 33
M  V30 36 1 17 34
M  V30 37 1 18 35
M  V30 38 1 20 36
M  V30 39 1 20 37
M  V30 40 1 20 38
M  V30 END BOND
M  V30 END CTAB
M  END
