
     RDKit          3D

  0  0  0  0  0  0  0  0  0  0999 V3000
M  V30 BEGIN CTAB
M  V30 COUNTS 33 35 0 0 0
M  V30 BEGIN ATOM
M  V30 1 N 5.07377 -0.176139 1.79264 0
M  V30 2 C 4.5686 0.110772 0.497859 0
M  V30 3 N 3.74759 -0.794883 -0.113465 0
M  V30 4 C 3.05102 -0.399631 -1.20083 0
M  V30 5 S 1.74641 -1.49116 -1.79115 0
M  V30 6 C 0.528179 -1.66008 -0.58488 0
M  V30 7 C -0.856765 -1.2106 -0.580385 0
M  V30 8 N -1.56394 -0.117032 -0.351502 0
M  V30 9 C -2.85208 -0.463706 -0.0114287 0
M  V30 10 O -2.95341 -1.73607 -0.0818546 0
M  V30 11 C -1.83749 -2.276 -0.405651 0
M  V30 12 C -1.43325 -3.68693 -0.586183 0
M  V30 13 C -3.84042 0.546449 0.380793 0
M  V30 14 C -4.53159 1.56137 -0.0895182 0
M  V30 15 C -5.12603 2.4208 0.753536 0
M  V30 16 C -4.9764 2.17166 2.10628 0
M  V30 17 S -4.07524 0.777067 2.15498 0
M  V30 18 N 3.1151 0.82004 -1.66106 0
M  V30 19 C 3.89739 1.7645 -1.06646 0
M  V30 20 N 4.62577 1.34685 -0.00477004 0
M  V30 21 N 3.83294 3.09735 -1.49101 0
M  V30 22 H 5.96436 -0.384824 2.18872 0
M  V30 23 H 4.226 -0.120321 2.51843 0
M  V30 24 H 0.889368 -0.646178 0.192302 0
M  V30 25 H 0.77808 -2.35115 0.284181 0
M  V30 26 H -0.952576 -4.05179 0.342891 0
M  V30 27 H -0.627127 -3.69599 -1.4016 0
M  V30 28 H -2.27432 -4.34777 -0.845245 0
M  V30 29 H -4.65017 1.71559 -1.1917 0
M  V30 30 H -5.70258 3.32201 0.468763 0
M  V30 31 H -5.39424 2.7624 2.94854 0
M  V30 32 H 3.76667 3.40197 -2.45956 0
M  V30 33 H 3.83638 3.79144 -0.711663 0
M  V30 END ATOM
M  V30 BEGIN BOND
M  V30 1 1 1 2
M  V30 2 2 2 3
M  V30 3 1 3 4
M  V30 4 1 4 5
M  V30 5 1 5 6
M  V30 6 1 6 7
M  V30 7 1 7 8
M  V30 8 2 8 9
M  V30 9 1 9 10
M  V30 10 1 10 11
M  V30 11 1 11 12
M  V30 12 1 9 13
M  V30 13 2 13 14
M  V30 14 1 14 15
M  V30 15 2 15 16
M  V30 16 1 16 17
M  V30 17 2 4 18
M  V30 18 1 18 19
M  V30 19 2 19 20
M  V30 20 1 19 21
M  V30 21 1 20 2
M  V30 22 2 11 7
M  V30 23 1 17 13
M  V30 24 1 1 22
M  V30 25 1 1 23
M  V30 26 1 6 24
M  V30 27 1 6 25
M  V30 28 1 12 26
M  V30 29 1 12 27
M  V30 30 1 12 28
M  V30 31 1 14 29
M  V30 32 1 15 30
M  V30 33 1 16 31
M  V30 34 1 21 32
M  V30 35 1 21 33
M  V30 END BOND
M  V30 END CTAB
M  END
