
     RDKit          3D

  0  0  0  0  0  0  0  0  0  0999 V3000
M  V30 BEGIN CTAB
M  V30 COUNTS 30 30 0 0 0
M  V30 BEGIN ATOM
M  V30 1 N 5.26447 0.65399 -0.135318 0
M  V30 2 N 3.89655 0.423669 -0.251668 0
M  V30 3 C 3.35457 -0.630611 0.242984 0
M  V30 4 S 1.62363 -0.986115 0.131741 0
M  V30 5 C 0.71847 0.305034 -0.755658 0
M  V30 6 C -0.734782 -0.0993278 -0.789647 0
M  V30 7 C -1.61552 0.864904 -1.48914 0
M  V30 8 C -2.80629 1.32222 -0.737868 0
M  V30 9 C -3.52974 0.261232 0.0287172 0
M  V30 10 C -2.64435 -0.881498 0.453127 0
M  V30 11 C -1.24764 -0.321208 0.638001 0
M  V30 12 O -3.1096 -1.5069 1.6035 0
M  V30 13 N 4.1866 -1.56272 0.915802 0
M  V30 14 H 6.00331 0.0882665 -0.591907 0
M  V30 15 H 5.57301 1.45641 0.455781 0
M  V30 16 H 1.08407 0.388939 -1.77828 0
M  V30 17 H 0.843575 1.2721 -0.23067 0
M  V30 18 H -0.805041 -1.09471 -1.28443 0
M  V30 19 H -1.00317 1.76565 -1.7534 0
M  V30 20 H -1.94096 0.447968 -2.47927 0
M  V30 21 H -2.55152 2.20484 -0.0934852 0
M  V30 22 H -3.54426 1.73706 -1.48672 0
M  V30 23 H -3.90051 0.738503 0.975477 0
M  V30 24 H -4.42666 -0.136703 -0.482877 0
M  V30 25 H -2.656 -1.6234 -0.371169 0
M  V30 26 H -1.37594 0.675326 1.12448 0
M  V30 27 H -0.588713 -0.994994 1.20242 0
M  V30 28 H -3.07594 -0.923141 2.39249 0
M  V30 29 H 4.93386 -1.2388 1.54581 0
M  V30 30 H 4.07454 -2.60599 0.799257 0
M  V30 END ATOM
M  V30 BEGIN BOND
M  V30 1 1 1 2
M  V30 2 2 2 3 CFG=2
M  V30 3 1 3 4
M  V30 4 1 4 5
M  V30 5 1 5 6
M  V30 6 1 6 7
M  V30 7 1 7 8
M  V30 8 1 8 9
M  V30 9 1 9 10
M  V30 10 1 10 11
M  V30 11 1 10 12
M  V30 12 1 3 13
M  V30 13 1 11 6
M  V30 14 1 1 14
M  V30 15 1 1 15
M  V30 16 1 5 16
M  V30 17 1 5 17
M  V30 18 1 6 18
M  V30 19 1 7 19
M  V30 20 1 7 20
M  V30 21 1 8 21
M  V30 22 1 8 22
M  V30 23 1 9 23
M  V30 24 1 9 24
M  V30 25 1 10 25
M  V30 26 1 11 26
M  V30 27 1 11 27
M  V30 28 1 12 28
M  V30 29 1 13 29
M  V30 30 1 13 30
M  V30 END BOND
M  V30 END CTAB
M  END
