
     RDKit          3D

  0  0  0  0  0  0  0  0  0  0999 V3000
M  V30 BEGIN CTAB
M  V30 COUNTS 30 31 0 0 0
M  V30 BEGIN ATOM
M  V30 1 N -2.29562 -0.455208 -2.04837 0
M  V30 2 C -2.45852 0.0414761 -0.73549 0
M  V30 3 N -3.60917 0.734742 -0.503376 0
M  V30 4 C -3.9093 1.27059 0.691947 0
M  V30 5 C -2.99152 1.09265 1.70954 0
M  V30 6 C -1.81437 0.390648 1.50689 0
M  V30 7 C -1.52134 -0.150127 0.278203 0
M  V30 8 C -0.298157 -0.86415 -0.0889319 0 CFG=2
M  V30 9 C 0.473714 -1.45963 1.06349 0
M  V30 10 C 1.93375 -1.36991 0.665832 0
M  V30 11 N 1.9373 -0.644489 -0.552796 0
M  V30 12 C 0.764812 0.151145 -0.564308 0
M  V30 13 S 3.38035 0.27835 -0.769873 0
M  V30 14 O 4.61146 -0.54973 -0.851225 0
M  V30 15 O 3.24075 1.02138 -2.0762 0
M  V30 16 N 3.57341 1.45519 0.470464 0
M  V30 17 H -2.46917 0.126036 -2.92525 0
M  V30 18 H -1.9886 -1.43005 -2.20327 0
M  V30 19 H -4.84592 1.83439 0.852908 0
M  V30 20 H -3.21663 1.51884 2.66945 0
M  V30 21 H -1.12573 0.28263 2.31639 0
M  V30 22 H -0.431428 -1.54268 -0.934742 0
M  V30 23 H 0.238821 -2.56362 1.04997 0
M  V30 24 H 0.28518 -1.02308 2.03985 0
M  V30 25 H 2.43645 -0.800945 1.48416 0
M  V30 26 H 2.42465 -2.36013 0.603712 0
M  V30 27 H 0.530906 0.541475 -1.56338 0
M  V30 28 H 0.75768 0.936144 0.236561 0
M  V30 29 H 3.23442 2.39519 0.164721 0
M  V30 30 H 3.15183 1.14288 1.37515 0
M  V30 END ATOM
M  V30 BEGIN BOND
M  V30 1 1 1 2
M  V30 2 2 2 3
M  V30 3 1 3 4
M  V30 4 2 4 5
M  V30 5 1 5 6
M  V30 6 2 6 7
M  V30 7 1 7 8
M  V30 8 1 8 9
M  V30 9 1 9 10
M  V30 10 1 10 11
M  V30 11 1 11 12
M  V30 12 1 11 13
M  V30 13 2 13 14
M  V30 14 2 13 15
M  V30 15 1 13 16
M  V30 16 1 7 2
M  V30 17 1 12 8
M  V30 18 1 1 17
M  V30 19 1 1 18
M  V30 20 1 4 19
M  V30 21 1 5 20
M  V30 22 1 6 21
M  V30 23 1 8 22 CFG=3
M  V30 24 1 9 23
M  V30 25 1 9 24
M  V30 26 1 10 25
M  V30 27 1 10 26
M  V30 28 1 12 27
M  V30 29 1 12 28
M  V30 30 1 16 29
M  V30 31 1 16 30
M  V30 END BOND
M  V30 END CTAB
M  END
