
     RDKit          3D

  0  0  0  0  0  0  0  0  0  0999 V3000
M  V30 BEGIN CTAB
M  V30 COUNTS 30 31 0 0 0
M  V30 BEGIN ATOM
M  V30 1 N 2.87446 -1.68159 0.757085 0
M  V30 2 C 1.73638 -0.893633 0.963585 0
M  V30 3 C 1.36514 -0.0469156 -0.234549 0 CFG=1
M  V30 4 C 1.09507 -0.947938 -1.38882 0
M  V30 5 N -0.278964 -1.081 -1.77393 0
M  V30 6 C -1.29662 -0.80029 -0.823617 0
M  V30 7 C -1.04947 0.135144 0.157275 0
M  V30 8 N 0.222042 0.765346 0.152941 0
M  V30 9 S 0.38721 2.42083 0.608595 0
M  V30 10 O 1.35273 2.63434 1.70814 0
M  V30 11 O -0.931496 3.0826 0.808065 0
M  V30 12 N 1.05848 3.2106 -0.82 0
M  V30 13 C -1.98594 0.476097 1.13189 0
M  V30 14 C -3.20799 -0.159675 1.09653 0
M  V30 15 C -3.45819 -1.10927 0.0989945 0
M  V30 16 C -2.53072 -1.44507 -0.862723 0
M  V30 17 H 3.06661 -2.32356 1.49329 0
M  V30 18 H 3.60202 -1.38979 0.166763 0
M  V30 19 H 0.873988 -1.5678 1.1753 0
M  V30 20 H 1.84401 -0.259309 1.88636 0
M  V30 21 H 2.22985 0.628219 -0.455478 0
M  V30 22 H 1.67496 -0.643676 -2.30986 0
M  V30 23 H 1.46607 -1.99776 -1.19275 0
M  V30 24 H -0.55648 -1.38144 -2.73546 0
M  V30 25 H 1.85681 2.67998 -1.17977 0
M  V30 26 H 1.36691 4.1653 -0.581437 0
M  V30 27 H -1.72685 1.20997 1.87859 0
M  V30 28 H -3.92687 0.0996052 1.84105 0
M  V30 29 H -4.41963 -1.60082 0.0812895 0
M  V30 30 H -2.70352 -2.17849 -1.64735 0
M  V30 END ATOM
M  V30 BEGIN BOND
M  V30 1 1 1 2
M  V30 2 1 2 3
M  V30 3 1 3 4
M  V30 4 1 4 5
M  V30 5 1 5 6
M  V30 6 2 6 7
M  V30 7 1 7 8
M  V30 8 1 8 9
M  V30 9 2 9 10
M  V30 10 2 9 11
M  V30 11 1 9 12
M  V30 12 1 7 13
M  V30 13 2 13 14
M  V30 14 1 14 15
M  V30 15 2 15 16
M  V30 16 1 8 3
M  V30 17 1 16 6
M  V30 18 1 1 17
M  V30 19 1 1 18
M  V30 20 1 2 19
M  V30 21 1 2 20
M  V30 22 1 3 21 CFG=3
M  V30 23 1 4 22
M  V30 24 1 4 23
M  V30 25 1 5 24
M  V30 26 1 12 25
M  V30 27 1 12 26
M  V30 28 1 13 27
M  V30 29 1 14 28
M  V30 30 1 15 29
M  V30 31 1 16 30
M  V30 END BOND
M  V30 END CTAB
M  END
