
     RDKit          3D

  0  0  0  0  0  0  0  0  0  0999 V3000
M  V30 BEGIN CTAB
M  V30 COUNTS 28 29 0 0 0
M  V30 BEGIN ATOM
M  V30 1 N -2.58878 -2.76173 0.754559 0
M  V30 2 C -1.36159 -1.94319 0.734776 0
M  V30 3 C -1.65641 -0.647685 0.149278 0
M  V30 4 N -0.781319 0.412351 0.0509768 0
M  V30 5 C 0.565841 0.444155 -0.114596 0
M  V30 6 C 1.50266 -0.529168 0.0276142 0
M  V30 7 C 2.82408 -0.302224 -0.166821 0
M  V30 8 N 3.74103 -1.29523 0.051225 0
M  V30 9 C 3.29966 0.978134 -0.547322 0
M  V30 10 C 2.31928 1.95516 -0.685462 0
M  V30 11 C 1.00106 1.68747 -0.473164 0
M  V30 12 N -0.0939926 2.44231 -0.524843 0
M  V30 13 C -1.19375 1.66339 -0.200109 0
M  V30 14 C -2.53104 2.29178 -0.186206 0
M  V30 15 F -3.57537 1.42866 -0.271916 0
M  V30 16 F -2.71605 3.00029 1.00772 0
M  V30 17 F -2.6525 3.17415 -1.25905 0
M  V30 18 H -3.41916 -2.19605 0.489662 0
M  V30 19 H -2.56272 -3.58337 0.134677 0
M  V30 20 H -0.979111 -1.92208 1.73638 0
M  V30 21 H -0.735618 -2.57264 0.0065986 0
M  V30 22 H -2.47715 -0.222394 0.954897 0
M  V30 23 H -2.30247 -0.738749 -0.72274 0
M  V30 24 H 1.15227 -1.5098 0.378685 0
M  V30 25 H 4.3084 -1.32974 0.954685 0
M  V30 26 H 3.95197 -2.0406 -0.626619 0
M  V30 27 H 4.37021 1.16406 -0.676251 0
M  V30 28 H 2.59056 2.95273 -0.976632 0
M  V30 END ATOM
M  V30 BEGIN BOND
M  V30 1 1 1 2
M  V30 2 1 2 3
M  V30 3 1 3 4
M  V30 4 1 4 5
M  V30 5 2 5 6
M  V30 6 1 6 7
M  V30 7 1 7 8
M  V30 8 2 7 9
M  V30 9 1 9 10
M  V30 10 2 10 11
M  V30 11 1 11 12
M  V30 12 2 12 13
M  V30 13 1 13 14
M  V30 14 1 14 15
M  V30 15 1 14 16
M  V30 16 1 14 17
M  V30 17 1 13 4
M  V30 18 1 11 5
M  V30 19 1 1 18
M  V30 20 1 1 19
M  V30 21 1 2 20
M  V30 22 1 2 21
M  V30 23 1 3 22
M  V30 24 1 3 23
M  V30 25 1 6 24
M  V30 26 1 8 25
M  V30 27 1 8 26
M  V30 28 1 9 27
M  V30 29 1 10 28
M  V30 END BOND
M  V30 END CTAB
M  END
