
     RDKit          3D

  0  0  0  0  0  0  0  0  0  0999 V3000
M  V30 BEGIN CTAB
M  V30 COUNTS 35 35 0 0 0
M  V30 BEGIN ATOM
M  V30 1 N -4.34461 2.41493 -0.923151 0
M  V30 2 C -3.50247 2.13773 0.207109 0
M  V30 3 C -2.62801 0.97979 0.022675 0
M  V30 4 C -1.27064 1.10067 -0.158603 0
M  V30 5 C -0.457502 -0.0178002 -0.23828 0
M  V30 6 N 0.955279 0.190926 -0.446602 0
M  V30 7 C 1.9474 -0.546132 0.269743 0
M  V30 8 O 1.60959 -1.42313 1.08664 0
M  V30 9 C 3.38235 -0.266422 0.0630923 0
M  V30 10 N 4.16881 -1.40734 0.464815 0
M  V30 11 C 3.77482 0.205756 -1.28317 0
M  V30 12 C 3.79521 0.840012 1.07631 0
M  V30 13 C -0.988987 -1.27423 -0.133396 0
M  V30 14 C -2.34597 -1.42056 0.0444405 0
M  V30 15 C -3.12861 -0.306846 0.114956 0
M  V30 16 C -3.00859 -2.75743 0.180029 0
M  V30 17 F -3.95584 -2.63 1.20316 0
M  V30 18 F -3.67272 -3.09872 -0.964936 0
M  V30 19 F -2.11002 -3.72321 0.535849 0
M  V30 20 H -4.9257 1.57597 -1.21246 0
M  V30 21 H -5.05447 3.1427 -0.582507 0
M  V30 22 H -2.91149 3.06132 0.413878 0
M  V30 23 H -4.11686 1.99175 1.14235 0
M  V30 24 H -0.779137 2.08381 -0.220342 0
M  V30 25 H 1.22559 0.87 -1.17129 0
M  V30 26 H 5.09665 -1.08541 0.823665 0
M  V30 27 H 4.27004 -2.11889 -0.290851 0
M  V30 28 H 3.36509 1.20958 -1.53984 0
M  V30 29 H 3.61391 -0.505998 -2.10064 0
M  V30 30 H 4.89771 0.363698 -1.24741 0
M  V30 31 H 4.88845 0.752196 1.15788 0
M  V30 32 H 3.38601 0.473472 2.05268 0
M  V30 33 H 3.41556 1.8145 0.7916 0
M  V30 34 H -0.403192 -2.19003 -0.194432 0
M  V30 35 H -4.18765 -0.436648 0.237076 0
M  V30 END ATOM
M  V30 BEGIN BOND
M  V30 1 1 1 2
M  V30 2 1 2 3
M  V30 3 2 3 4
M  V30 4 1 4 5
M  V30 5 1 5 6
M  V30 6 1 6 7
M  V30 7 2 7 8
M  V30 8 1 7 9
M  V30 9 1 9 10
M  V30 10 1 9 11
M  V30 11 1 9 12
M  V30 12 2 5 13
M  V30 13 1 13 14
M  V30 14 2 14 15
M  V30 15 1 14 16
M  V30 16 1 16 17
M  V30 17 1 16 18
M  V30 18 1 16 19
M  V30 19 1 15 3
M  V30 20 1 1 20
M  V30 21 1 1 21
M  V30 22 1 2 22
M  V30 23 1 2 23
M  V30 24 1 4 24
M  V30 25 1 6 25
M  V30 26 1 10 26
M  V30 27 1 10 27
M  V30 28 1 11 28
M  V30 29 1 11 29
M  V30 30 1 11 30
M  V30 31 1 12 31
M  V30 32 1 12 32
M  V30 33 1 12 33
M  V30 34 1 13 34
M  V30 35 1 15 35
M  V30 END BOND
M  V30 END CTAB
M  END
