
     RDKit          3D

  0  0  0  0  0  0  0  0  0  0999 V3000
M  V30 BEGIN CTAB
M  V30 COUNTS 22 23 0 0 0
M  V30 BEGIN ATOM
M  V30 1 N 4.08646 -0.350201 0.255699 0
M  V30 2 C 2.76127 0.108675 0.483676 0
M  V30 3 N 2.30287 0.875347 1.51036 0
M  V30 4 O 1.0209 1.07059 1.34064 0
M  V30 5 C 0.600761 0.472329 0.251538 0
M  V30 6 N 1.69327 -0.125223 -0.276508 0
M  V30 7 C -0.741291 0.416727 -0.331876 0
M  V30 8 N -1.1094 1.52205 -1.14179 0
M  V30 9 C -0.954928 -0.855841 -1.11775 0
M  V30 10 O -2.31655 -1.0988 -0.994515 0
M  V30 11 C -2.46951 -1.01114 0.409825 0
M  V30 12 C -1.76286 0.263005 0.791041 0
M  V30 13 H 4.8992 0.01115 0.796291 0
M  V30 14 H 4.25919 -1.06238 -0.466458 0
M  V30 15 H -1.02696 2.45818 -0.742001 0
M  V30 16 H -1.05378 1.41317 -2.15303 0
M  V30 17 H -0.441145 -1.66546 -0.543908 0
M  V30 18 H -0.601326 -0.796528 -2.14391 0
M  V30 19 H -1.93963 -1.87145 0.894415 0
M  V30 20 H -3.53924 -0.99922 0.608733 0
M  V30 21 H -2.43403 1.13502 0.80952 0
M  V30 22 H -1.23324 0.0899978 1.76001 0
M  V30 END ATOM
M  V30 BEGIN BOND
M  V30 1 1 1 2
M  V30 2 2 2 3
M  V30 3 1 3 4
M  V30 4 1 4 5
M  V30 5 2 5 6
M  V30 6 1 5 7
M  V30 7 1 7 8
M  V30 8 1 7 9
M  V30 9 1 9 10
M  V30 10 1 10 11
M  V30 11 1 11 12
M  V30 12 1 6 2
M  V30 13 1 12 7
M  V30 14 1 1 13
M  V30 15 1 1 14
M  V30 16 1 8 15
M  V30 17 1 8 16
M  V30 18 1 9 17
M  V30 19 1 9 18
M  V30 20 1 11 19
M  V30 21 1 11 20
M  V30 22 1 12 21
M  V30 23 1 12 22
M  V30 END BOND
M  V30 END CTAB
M  END
