
     RDKit          3D

  0  0  0  0  0  0  0  0  0  0999 V3000
M  V30 BEGIN CTAB
M  V30 COUNTS 39 40 0 0 0
M  V30 BEGIN ATOM
M  V30 1 N 3.68942 -0.215446 1.93009 0
M  V30 2 C 4.24926 -0.224541 0.650783 0
M  V30 3 C 3.54051 0.603607 -0.386119 0
M  V30 4 N 2.18833 0.227755 -0.621175 0
M  V30 5 C 2.01295 -1.04246 -1.24562 0
M  V30 6 C 0.793057 -0.948922 -2.14686 0
M  V30 7 C -0.41159 -1.00316 -1.2637 0
M  V30 8 C -0.933907 0.333075 -0.838947 0 CFG=2
M  V30 9 C 0.0339467 1.19756 -0.122129 0
M  V30 10 C 1.25829 0.51134 0.412231 0
M  V30 11 C -2.19347 0.0877162 -0.0755007 0
M  V30 12 C -2.13517 -0.727684 1.03455 0
M  V30 13 C -3.29068 -0.977484 1.76991 0
M  V30 14 C -4.4522 -0.384339 1.33902 0
M  V30 15 C -4.52077 0.437761 0.223125 0
M  V30 16 N -3.3665 0.641285 -0.44724 0
M  V30 17 N -5.74427 1.02942 -0.185343 0
M  V30 18 H 3.76767 0.644709 2.44121 0
M  V30 19 H 3.89488 -1.03473 2.47443 0
M  V30 20 H 4.40269 -1.2603 0.272757 0
M  V30 21 H 5.29294 0.201562 0.728378 0
M  V30 22 H 4.10041 0.458382 -1.34563 0
M  V30 23 H 3.58789 1.67477 -0.154804 0
M  V30 24 H 1.72744 -1.76701 -0.427572 0
M  V30 25 H 2.89709 -1.4096 -1.77325 0
M  V30 26 H 0.880747 0.0176525 -2.69752 0
M  V30 27 H 0.842441 -1.80165 -2.86572 0
M  V30 28 H -1.23192 -1.51915 -1.81502 0
M  V30 29 H -0.16816 -1.65315 -0.396965 0
M  V30 30 H -1.23733 0.893645 -1.76828 0
M  V30 31 H 0.39402 2.04482 -0.745433 0
M  V30 32 H -0.486472 1.66365 0.751102 0
M  V30 33 H 1.05379 -0.405434 0.98728 0
M  V30 34 H 1.71587 1.25601 1.13231 0
M  V30 35 H -1.18923 -1.16142 1.31463 0
M  V30 36 H -3.22434 -1.61891 2.63754 0
M  V30 37 H -5.3486 -0.57107 1.89646 0
M  V30 38 H -5.91468 2.0324 -0.0204968 0
M  V30 39 H -6.47439 0.460247 -0.652501 0
M  V30 END ATOM
M  V30 BEGIN BOND
M  V30 1 1 1 2
M  V30 2 1 2 3
M  V30 3 1 3 4
M  V30 4 1 4 5
M  V30 5 1 5 6
M  V30 6 1 6 7
M  V30 7 1 7 8
M  V30 8 1 8 9
M  V30 9 1 9 10
M  V30 10 1 8 11
M  V30 11 2 11 12
M  V30 12 1 12 13
M  V30 13 2 13 14
M  V30 14 1 14 15
M  V30 15 2 15 16
M  V30 16 1 15 17
M  V30 17 1 10 4
M  V30 18 1 16 11
M  V30 19 1 1 18
M  V30 20 1 1 19
M  V30 21 1 2 20
M  V30 22 1 2 21
M  V30 23 1 3 22
M  V30 24 1 3 23
M  V30 25 1 5 24
M  V30 26 1 5 25
M  V30 27 1 6 26
M  V30 28 1 6 27
M  V30 29 1 7 28
M  V30 30 1 7 29
M  V30 31 1 8 30 CFG=3
M  V30 32 1 9 31
M  V30 33 1 9 32
M  V30 34 1 10 33
M  V30 35 1 10 34
M  V30 36 1 12 35
M  V30 37 1 13 36
M  V30 38 1 14 37
M  V30 39 1 17 38
M  V30 40 1 17 39
M  V30 END BOND
M  V30 END CTAB
M  END
