
     RDKit          3D

  0  0  0  0  0  0  0  0  0  0999 V3000
M  V30 BEGIN CTAB
M  V30 COUNTS 38 39 0 0 0
M  V30 BEGIN ATOM
M  V30 1 N -4.62368 1.22811 -0.572246 0
M  V30 2 C -4.0955 -0.0463633 -0.935044 0
M  V30 3 C -3.43633 -0.757005 0.194445 0
M  V30 4 N -2.33562 -0.109542 0.800177 0
M  V30 5 C -1.71921 -0.78471 1.88091 0
M  V30 6 C -0.667255 -1.71834 1.36159 0
M  V30 7 O 0.56483 -1.11251 1.49494 0
M  V30 8 C 0.749871 0.00724277 0.741795 0 CFG=2
M  V30 9 C -0.202862 0.184228 -0.393396 0
M  V30 10 C -1.53478 0.754101 0.0352248 0
M  V30 11 C 2.1306 0.000625901 0.208619 0
M  V30 12 C 2.64452 -1.1546 -0.330516 0
M  V30 13 C 3.93809 -1.20676 -0.843617 0
M  V30 14 C 4.72047 -0.0894751 -0.814447 0
M  V30 15 C 4.23856 1.07211 -0.285756 0
M  V30 16 C 2.94268 1.11346 0.225055 0
M  V30 17 N 5.08437 2.20658 -0.27589 0
M  V30 18 H -5.56234 1.23594 -0.232477 0
M  V30 19 H -4.40361 1.94979 -1.20771 0
M  V30 20 H -3.48151 -0.0200005 -1.85746 0
M  V30 21 H -4.99299 -0.674973 -1.22076 0
M  V30 22 H -4.21528 -0.931244 0.98359 0
M  V30 23 H -3.14436 -1.78387 -0.150979 0
M  V30 24 H -1.34533 -0.117747 2.68405 0
M  V30 25 H -2.50098 -1.42619 2.37402 0
M  V30 26 H -0.632978 -2.64224 2.01003 0
M  V30 27 H -0.902887 -2.07092 0.355006 0
M  V30 28 H 0.647368 0.896014 1.40547 0
M  V30 29 H -0.302642 -0.710151 -1.04077 0
M  V30 30 H 0.251238 0.970873 -1.06855 0
M  V30 31 H -2.06611 1.05543 -0.883106 0
M  V30 32 H -1.31704 1.67724 0.608862 0
M  V30 33 H 2.06955 -2.06383 -0.377994 0
M  V30 34 H 4.34415 -2.10659 -1.26575 0
M  V30 35 H 5.73991 -0.128235 -1.21813 0
M  V30 36 H 2.60676 2.05097 0.631378 0
M  V30 37 H 5.68149 2.39415 -1.10108 0
M  V30 38 H 5.12882 2.85844 0.528131 0
M  V30 END ATOM
M  V30 BEGIN BOND
M  V30 1 1 1 2
M  V30 2 1 2 3
M  V30 3 1 3 4
M  V30 4 1 4 5
M  V30 5 1 5 6
M  V30 6 1 6 7
M  V30 7 1 7 8
M  V30 8 1 8 9
M  V30 9 1 9 10
M  V30 10 1 8 11
M  V30 11 2 11 12
M  V30 12 1 12 13
M  V30 13 2 13 14
M  V30 14 1 14 15
M  V30 15 2 15 16
M  V30 16 1 15 17
M  V30 17 1 10 4
M  V30 18 1 16 11
M  V30 19 1 1 18
M  V30 20 1 1 19
M  V30 21 1 2 20
M  V30 22 1 2 21
M  V30 23 1 3 22
M  V30 24 1 3 23
M  V30 25 1 5 24
M  V30 26 1 5 25
M  V30 27 1 6 26
M  V30 28 1 6 27
M  V30 29 1 8 28 CFG=1
M  V30 30 1 9 29
M  V30 31 1 9 30
M  V30 32 1 10 31
M  V30 33 1 10 32
M  V30 34 1 12 33
M  V30 35 1 13 34
M  V30 36 1 14 35
M  V30 37 1 16 36
M  V30 38 1 17 37
M  V30 39 1 17 38
M  V30 END BOND
M  V30 END CTAB
M  END
