
     RDKit          3D

  0  0  0  0  0  0  0  0  0  0999 V3000
M  V30 BEGIN CTAB
M  V30 COUNTS 37 36 0 0 0
M  V30 BEGIN ATOM
M  V30 1 C 2.90372 1.49068 -0.596756 0
M  V30 2 N 2.46954 0.149628 -0.626174 0
M  V30 3 C 3.27342 -0.811037 -1.25645 0
M  V30 4 C 4.57473 -1.13387 -0.614317 0
M  V30 5 N 4.36705 -1.63508 0.702436 0
M  V30 6 C 1.45939 -0.25644 0.26535 0
M  V30 7 C 0.115408 0.392675 -0.0741116 0
M  V30 8 C -0.942529 -0.0607986 0.899196 0
M  V30 9 N -2.2154 0.470091 0.68864 0
M  V30 10 C -2.49629 1.82005 0.885682 0
M  V30 11 C -3.20029 -0.431153 0.285802 0
M  V30 12 C -4.57041 0.150841 0.0642 0
M  V30 13 N -5.44915 -0.929322 -0.349807 0
M  V30 14 H 2.85493 1.94932 0.431321 0
M  V30 15 H 2.21043 2.10683 -1.20754 0
M  V30 16 H 3.92566 1.63502 -1.01774 0
M  V30 17 H 2.68855 -1.75228 -1.36914 0
M  V30 18 H 3.48332 -0.47741 -2.3135 0
M  V30 19 H 5.13825 -1.82711 -1.27391 0
M  V30 20 H 5.1444 -0.167014 -0.520684 0
M  V30 21 H 4.37676 -0.951924 1.46635 0
M  V30 22 H 3.7722 -2.46131 0.805244 0
M  V30 23 H 1.33842 -1.35972 0.180494 0
M  V30 24 H 1.63245 -0.0544847 1.34004 0
M  V30 25 H -0.182882 0.0129863 -1.0788 0
M  V30 26 H 0.168593 1.49532 -0.054025 0
M  V30 27 H -0.579118 0.0657372 1.95979 0
M  V30 28 H -1.00105 -1.17777 0.779941 0
M  V30 29 H -3.1486 2.18229 0.0350685 0
M  V30 30 H -2.95159 2.07165 1.86354 0
M  V30 31 H -1.57806 2.43765 0.814119 0
M  V30 32 H -3.34897 -1.25252 1.04799 0
M  V30 33 H -2.86671 -0.993278 -0.630985 0
M  V30 34 H -4.94237 0.632142 1.00635 0
M  V30 35 H -4.60645 0.917636 -0.708282 0
M  V30 36 H -5.43248 -1.66919 0.359058 0
M  V30 37 H -6.38488 -0.578824 -0.604482 0
M  V30 END ATOM
M  V30 BEGIN BOND
M  V30 1 1 1 2
M  V30 2 1 2 3
M  V30 3 1 3 4
M  V30 4 1 4 5
M  V30 5 1 2 6
M  V30 6 1 6 7
M  V30 7 1 7 8
M  V30 8 1 8 9
M  V30 9 1 9 10
M  V30 10 1 9 11
M  V30 11 1 11 12
M  V30 12 1 12 13
M  V30 13 1 1 14
M  V30 14 1 1 15
M  V30 15 1 1 16
M  V30 16 1 3 17
M  V30 17 1 3 18
M  V30 18 1 4 19
M  V30 19 1 4 20
M  V30 20 1 5 21
M  V30 21 1 5 22
M  V30 22 1 6 23
M  V30 23 1 6 24
M  V30 24 1 7 25
M  V30 25 1 7 26
M  V30 26 1 8 27
M  V30 27 1 8 28
M  V30 28 1 10 29
M  V30 29 1 10 30
M  V30 30 1 10 31
M  V30 31 1 11 32
M  V30 32 1 11 33
M  V30 33 1 12 34
M  V30 34 1 12 35
M  V30 35 1 13 36
M  V30 36 1 13 37
M  V30 END BOND
M  V30 END CTAB
M  END
