
     RDKit          3D

  0  0  0  0  0  0  0  0  0  0999 V3000
M  V30 BEGIN CTAB
M  V30 COUNTS 56 59 0 0 0
M  V30 BEGIN ATOM
M  V30 1 N 4.90782 -3.76758 -0.674245 0
M  V30 2 C 3.62562 -3.21783 -0.548648 0
M  V30 3 N 2.54979 -4.01039 -0.561634 0
M  V30 4 C 1.30182 -3.50747 -0.444094 0
M  V30 5 N 0.153819 -4.38313 -0.464021 0
M  V30 6 C 1.16854 -2.15217 -0.309764 0
M  V30 7 C 2.27563 -1.28688 -0.291886 0
M  V30 8 C 2.11523 0.165942 -0.200553 0
M  V30 9 O 3.32583 0.805459 -0.147026 0
M  V30 10 C 4.10274 0.65614 0.950651 0
M  V30 11 C 5.364 1.44576 0.685356 0
M  V30 12 C 6.45301 0.829474 0.103264 0
M  V30 13 C 7.62988 1.53714 -0.148319 0
M  V30 14 C 7.71974 2.88743 0.188784 0
M  V30 15 C 6.63576 3.49761 0.767259 0
M  V30 16 C 5.48364 2.77703 1.00588 0
M  V30 17 N 3.46434 -1.90013 -0.416406 0
M  V30 18 C -0.139717 -1.57091 -0.176753 0
M  V30 19 C -0.748429 -1.6142 1.05265 0
M  V30 20 C -2.00258 -1.06843 1.21853 0
M  V30 21 C -2.65234 -0.476594 0.148932 0
M  V30 22 O -3.90814 0.0553517 0.367276 0
M  V30 23 C -4.66442 0.682959 -0.632307 0
M  V30 24 C -5.97414 1.16162 -0.146915 0
M  V30 25 C -7.12005 0.417479 -0.429573 0
M  V30 26 C -8.35656 0.832671 0.00836872 0
M  V30 27 C -8.52271 1.993 0.740384 0
M  V30 28 C -7.38573 2.73005 1.02016 0
M  V30 29 C -6.14263 2.31801 0.583117 0
M  V30 30 C -9.83137 2.42223 1.19525 0
M  V30 31 N -10.8873 2.76193 1.53991 0
M  V30 32 C -2.02559 -0.442239 -1.07863 0
M  V30 33 C -0.768827 -0.987673 -1.2481 0
M  V30 34 H 5.09989 -4.59083 -1.26777 0
M  V30 35 H 5.69717 -3.3364 -0.1546 0
M  V30 36 H -0.665149 -4.12184 -1.07183 0
M  V30 37 H 0.083063 -5.25137 0.0791374 0
M  V30 38 H 1.54333 0.495223 0.69604 0
M  V30 39 H 1.6263 0.591129 -1.14006 0
M  V30 40 H 4.43571 -0.363739 1.15736 0
M  V30 41 H 3.66165 1.14315 1.86394 0
M  V30 42 H 6.41365 -0.224723 -0.170099 0
M  V30 43 H 8.48334 1.06091 -0.602452 0
M  V30 44 H 8.64203 3.42105 -0.015544 0
M  V30 45 H 6.73126 4.5387 1.01725 0
M  V30 46 H 4.6465 3.29846 1.46563 0
M  V30 47 H -0.283242 -2.06896 1.93887 0
M  V30 48 H -2.50236 -1.08778 2.1707 0
M  V30 49 H -4.77773 -0.022388 -1.47666 0
M  V30 50 H -4.11155 1.56809 -1.05512 0
M  V30 51 H -7.02219 -0.507388 -1.01022 0
M  V30 52 H -9.26795 0.263072 -0.203586 0
M  V30 53 H -7.50577 3.63684 1.5925 0
M  V30 54 H -5.23699 2.88424 0.794119 0
M  V30 55 H -2.53573 0.0220317 -1.91176 0
M  V30 56 H -0.301931 -0.939146 -2.25022 0
M  V30 END ATOM
M  V30 BEGIN BOND
M  V30 1 1 1 2
M  V30 2 2 2 3
M  V30 3 1 3 4
M  V30 4 1 4 5
M  V30 5 2 4 6
M  V30 6 1 6 7
M  V30 7 1 7 8
M  V30 8 1 8 9
M  V30 9 1 9 10
M  V30 10 1 10 11
M  V30 11 2 11 12
M  V30 12 1 12 13
M  V30 13 2 13 14
M  V30 14 1 14 15
M  V30 15 2 15 16
M  V30 16 2 7 17
M  V30 17 1 6 18
M  V30 18 2 18 19
M  V30 19 1 19 20
M  V30 20 2 20 21
M  V30 21 1 21 22
M  V30 22 1 22 23
M  V30 23 1 23 24
M  V30 24 2 24 25
M  V30 25 1 25 26
M  V30 26 2 26 27
M  V30 27 1 27 28
M  V30 28 2 28 29
M  V30 29 1 27 30
M  V30 30 3 30 31
M  V30 31 1 21 32
M  V30 32 2 32 33
M  V30 33 1 17 2
M  V30 34 1 33 18
M  V30 35 1 16 11
M  V30 36 1 29 24
M  V30 37 1 1 34
M  V30 38 1 1 35
M  V30 39 1 5 36
M  V30 40 1 5 37
M  V30 41 1 8 38
M  V30 42 1 8 39
M  V30 43 1 10 40
M  V30 44 1 10 41
M  V30 45 1 12 42
M  V30 46 1 13 43
M  V30 47 1 14 44
M  V30 48 1 15 45
M  V30 49 1 16 46
M  V30 50 1 19 47
M  V30 51 1 20 48
M  V30 52 1 23 49
M  V30 53 1 23 50
M  V30 54 1 25 51
M  V30 55 1 26 52
M  V30 56 1 28 53
M  V30 57 1 29 54
M  V30 58 1 32 55
M  V30 59 1 33 56
M  V30 END BOND
M  V30 END CTAB
M  END
