
     RDKit          3D

  0  0  0  0  0  0  0  0  0  0999 V3000
M  V30 BEGIN CTAB
M  V30 COUNTS 59 63 0 0 0
M  V30 BEGIN ATOM
M  V30 1 Br 0.20465 3.75296 4.09255 0
M  V30 2 C -0.296572 3.72327 2.25485 0
M  V30 3 C -1.06592 4.75411 1.7434 0
M  V30 4 C -1.41039 4.69873 0.405571 0
M  V30 5 C -0.993465 3.64674 -0.375585 0
M  V30 6 C -0.227385 2.61601 0.124514 0
M  V30 7 C 0.10574 2.68764 1.45706 0
M  V30 8 C 0.189373 1.52446 -0.788423 0
M  V30 9 C -0.854736 0.543812 -1.07955 0
M  V30 10 C -1.06615 -0.126336 -2.29366 0
M  V30 11 C -0.238185 0.0297695 -3.51339 0
M  V30 12 N -2.11859 -0.916609 -2.17605 0
M  V30 13 N -2.61519 -0.811064 -0.96301 0
M  V30 14 C -1.86123 0.0777959 -0.266883 0
M  V30 15 N -2.12618 0.434803 1.08313 0
M  V30 16 C -3.74404 -1.49634 -0.443129 0
M  V30 17 C -3.58215 -2.74304 0.168067 0
M  V30 18 C -4.66289 -3.43289 0.682963 0
M  V30 19 C -5.94037 -2.91381 0.611179 0
M  V30 20 C -6.11224 -1.68267 0.00941595 0
M  V30 21 C -5.02268 -0.993451 -0.506481 0
M  V30 22 C 1.51541 0.973742 -0.464299 0
M  V30 23 C 2.69595 1.63725 -0.552753 0
M  V30 24 C 2.96775 3.0571 -0.978124 0
M  V30 25 N 3.65436 0.772372 -0.175898 0
M  V30 26 N 3.14096 -0.402445 0.14579 0
M  V30 27 C 1.79035 -0.293259 -0.0307399 0
M  V30 28 N 0.927421 -1.3982 0.226169 0
M  V30 29 C 3.81322 -1.57353 0.590676 0
M  V30 30 C 3.45779 -2.20807 1.76104 0
M  V30 31 C 4.12387 -3.34807 2.17897 0
M  V30 32 C 5.16634 -3.88704 1.437 0
M  V30 33 C 5.51841 -3.25987 0.279263 0
M  V30 34 C 4.85053 -2.11764 -0.138837 0
M  V30 35 H -1.40842 5.58781 2.31929 0
M  V30 36 H -2.02108 5.49491 -0.0479224 0
M  V30 37 H -1.2861 3.64347 -1.41847 0
M  V30 38 H 0.703161 1.89288 1.86649 0
M  V30 39 H 0.355636 2.06929 -1.78626 0
M  V30 40 H -0.544147 0.902904 -4.12354 0
M  V30 41 H -0.312212 -0.879981 -4.11544 0
M  V30 42 H 0.828242 0.112993 -3.18681 0
M  V30 43 H -2.74943 1.25043 1.27 0
M  V30 44 H -1.74055 -0.0621947 1.90671 0
M  V30 45 H -2.58161 -3.15639 0.227788 0
M  V30 46 H -4.55693 -4.39943 1.1598 0
M  V30 47 H -6.78028 -3.45996 1.01637 0
M  V30 48 H -7.10391 -1.2165 -0.0784569 0
M  V30 49 H -5.14 -0.0233685 -0.983439 0
M  V30 50 H 3.92112 3.1271 -1.54376 0
M  V30 51 H 2.17788 3.43536 -1.65343 0
M  V30 52 H 3.11086 3.70114 -0.0758751 0
M  V30 53 H 0.463911 -1.55312 1.1476 0
M  V30 54 H 0.787002 -2.06009 -0.593208 0
M  V30 55 H 2.66007 -1.83523 2.37322 0
M  V30 56 H 3.87295 -3.87153 3.09002 0
M  V30 57 H 5.69553 -4.78083 1.7556 0
M  V30 58 H 6.31905 -3.61329 -0.358352 0
M  V30 59 H 5.14548 -1.63257 -1.06356 0
M  V30 END ATOM
M  V30 BEGIN BOND
M  V30 1 1 1 2
M  V30 2 2 2 3
M  V30 3 1 3 4
M  V30 4 2 4 5
M  V30 5 1 5 6
M  V30 6 2 6 7
M  V30 7 1 6 8
M  V30 8 1 8 9
M  V30 9 1 9 10
M  V30 10 1 10 11
M  V30 11 2 10 12
M  V30 12 1 12 13
M  V30 13 1 13 14
M  V30 14 1 14 15
M  V30 15 1 13 16
M  V30 16 2 16 17
M  V30 17 1 17 18
M  V30 18 2 18 19
M  V30 19 1 19 20
M  V30 20 2 20 21
M  V30 21 1 8 22
M  V30 22 1 22 23
M  V30 23 1 23 24
M  V30 24 2 23 25
M  V30 25 1 25 26
M  V30 26 1 26 27
M  V30 27 1 27 28
M  V30 28 1 26 29
M  V30 29 2 29 30
M  V30 30 1 30 31
M  V30 31 2 31 32
M  V30 32 1 32 33
M  V30 33 2 33 34
M  V30 34 1 7 2
M  V30 35 2 14 9
M  V30 36 1 21 16
M  V30 37 2 27 22
M  V30 38 1 34 29
M  V30 39 1 3 35
M  V30 40 1 4 36
M  V30 41 1 5 37
M  V30 42 1 7 38
M  V30 43 1 8 39
M  V30 44 1 11 40
M  V30 45 1 11 41
M  V30 46 1 11 42
M  V30 47 1 15 43
M  V30 48 1 15 44
M  V30 49 1 17 45
M  V30 50 1 18 46
M  V30 51 1 19 47
M  V30 52 1 20 48
M  V30 53 1 21 49
M  V30 54 1 24 50
M  V30 55 1 24 51
M  V30 56 1 24 52
M  V30 57 1 28 53
M  V30 58 1 28 54
M  V30 59 1 30 55
M  V30 60 1 31 56
M  V30 61 1 32 57
M  V30 62 1 33 58
M  V30 63 1 34 59
M  V30 END BOND
M  V30 END CTAB
M  END
