
     RDKit          3D

  0  0  0  0  0  0  0  0  0  0999 V3000
M  V30 BEGIN CTAB
M  V30 COUNTS 16 16 0 0 0
M  V30 BEGIN ATOM
M  V30 1 N 2.97873 -0.366774 0.0409997 0
M  V30 2 C 1.6189 0.0324992 0.00335258 0
M  V30 3 N 1.28164 1.33404 -0.0971184 0
M  V30 4 C -0.00422781 1.73114 -0.134198 0
M  V30 5 C -1.07059 0.856721 -0.0737244 0
M  V30 6 C -2.44345 1.32116 -0.116363 0
M  V30 7 N -3.5415 1.69251 -0.138837 0
M  V30 8 C -0.760009 -0.484894 0.0296394 0
M  V30 9 N -1.81394 -1.43765 0.0961136 0
M  V30 10 C 0.568147 -0.864293 0.0656089 0
M  V30 11 H 3.26805 -1.27831 -0.370765 0
M  V30 12 H 3.73219 0.21236 0.468331 0
M  V30 13 H -0.255629 2.78324 -0.215297 0
M  V30 14 H -2.55695 -1.53413 -0.625462 0
M  V30 15 H -1.83768 -2.07508 0.920475 0
M  V30 16 H 0.836314 -1.92254 0.147245 0
M  V30 END ATOM
M  V30 BEGIN BOND
M  V30 1 1 1 2
M  V30 2 2 2 3
M  V30 3 1 3 4
M  V30 4 2 4 5
M  V30 5 1 5 6
M  V30 6 3 6 7
M  V30 7 1 5 8
M  V30 8 1 8 9
M  V30 9 2 8 10
M  V30 10 1 10 2
M  V30 11 1 1 11
M  V30 12 1 1 12
M  V30 13 1 4 13
M  V30 14 1 9 14
M  V30 15 1 9 15
M  V30 16 1 10 16
M  V30 END BOND
M  V30 END CTAB
M  END
