
     RDKit          3D

  0  0  0  0  0  0  0  0  0  0999 V3000
M  V30 BEGIN CTAB
M  V30 COUNTS 36 37 0 0 0
M  V30 BEGIN ATOM
M  V30 1 N -2.61712 3.01955 -0.0974543 0
M  V30 2 C -2.5061 1.72358 -0.644914 0
M  V30 3 C -1.54033 0.948969 0.170928 0
M  V30 4 N -1.28894 -0.405759 -0.250226 0
M  V30 5 C -2.41276 -1.28809 -0.0912761 0
M  V30 6 C -2.04097 -2.61557 -0.722995 0
M  V30 7 N -0.746736 -3.06918 -0.354193 0
M  V30 8 C -0.0978205 -2.35233 0.683663 0
M  V30 9 C -0.255378 -0.874026 0.690545 0 CFG=1
M  V30 10 C 1.04026 -0.182731 0.398837 0
M  V30 11 C 1.78801 0.448661 1.36976 0
M  V30 12 C 2.9951 1.07628 1.07284 0
M  V30 13 C 3.48662 1.08735 -0.218275 0
M  V30 14 C 2.73719 0.453722 -1.19288 0
M  V30 15 C 1.53952 -0.16791 -0.889597 0
M  V30 16 N 4.72212 1.73848 -0.530155 0
M  V30 17 H -3.16804 3.07016 0.707802 0
M  V30 18 H -1.87172 3.62635 -0.218091 0
M  V30 19 H -3.53915 1.30414 -0.635072 0
M  V30 20 H -2.15586 1.85584 -1.70366 0
M  V30 21 H -0.562237 1.47723 0.127232 0
M  V30 22 H -1.85414 0.920543 1.22467 0
M  V30 23 H -2.56557 -1.44534 1.00454 0
M  V30 24 H -3.32118 -0.9521 -0.621242 0
M  V30 25 H -2.8128 -3.3481 -0.417967 0
M  V30 26 H -2.0809 -2.46823 -1.82056 0
M  V30 27 H -0.169713 -3.49184 -1.07068 0
M  V30 28 H -0.463972 -2.78328 1.64696 0
M  V30 29 H 0.98555 -2.586 0.658247 0
M  V30 30 H -0.59689 -0.532934 1.68743 0
M  V30 31 H 1.41735 0.45354 2.38368 0
M  V30 32 H 3.5791 1.57086 1.8342 0
M  V30 33 H 3.10842 0.449123 -2.21493 0
M  V30 34 H 0.961411 -0.661804 -1.67461 0
M  V30 35 H 4.69065 2.77572 -0.673353 0
M  V30 36 H 5.61704 1.2251 -0.615527 0
M  V30 END ATOM
M  V30 BEGIN BOND
M  V30 1 1 1 2
M  V30 2 1 2 3
M  V30 3 1 3 4
M  V30 4 1 4 5
M  V30 5 1 5 6
M  V30 6 1 6 7
M  V30 7 1 7 8
M  V30 8 1 8 9
M  V30 9 1 9 10
M  V30 10 2 10 11
M  V30 11 1 11 12
M  V30 12 2 12 13
M  V30 13 1 13 14
M  V30 14 2 14 15
M  V30 15 1 13 16
M  V30 16 1 9 4
M  V30 17 1 15 10
M  V30 18 1 1 17
M  V30 19 1 1 18
M  V30 20 1 2 19
M  V30 21 1 2 20
M  V30 22 1 3 21
M  V30 23 1 3 22
M  V30 24 1 5 23
M  V30 25 1 5 24
M  V30 26 1 6 25
M  V30 27 1 6 26
M  V30 28 1 7 27
M  V30 29 1 8 28
M  V30 30 1 8 29
M  V30 31 1 9 30 CFG=1
M  V30 32 1 11 31
M  V30 33 1 12 32
M  V30 34 1 14 33
M  V30 35 1 15 34
M  V30 36 1 16 35
M  V30 37 1 16 36
M  V30 END BOND
M  V30 END CTAB
M  END
