
     RDKit          3D

  0  0  0  0  0  0  0  0  0  0999 V3000
M  V30 BEGIN CTAB
M  V30 COUNTS 24 24 0 0 0
M  V30 BEGIN ATOM
M  V30 1 N -2.64417 -1.66102 0.240412 0
M  V30 2 C -1.3758 -1.11123 -0.267806 0
M  V30 3 C -0.578872 -0.627657 0.899805 0
M  V30 4 C 0.740272 -0.0509256 0.549765 0
M  V30 5 C 1.87713 -0.854107 0.449782 0
M  V30 6 C 3.11724 -0.358992 0.13444 0
M  V30 7 C 3.2919 0.985867 -0.101793 0
M  V30 8 C 2.18488 1.79702 -0.00870158 0
M  V30 9 C 0.920107 1.28983 0.313342 0
M  V30 10 C -1.76422 -0.0114384 -1.17684 0
M  V30 11 N -2.60202 1.00847 -0.657943 0
M  V30 12 S -1.23358 -0.00225978 -2.70633 0
M  V30 13 H -2.49471 -2.36676 0.969591 0
M  V30 14 H -3.31315 -0.92052 0.494195 0
M  V30 15 H -0.868191 -1.91156 -0.842808 0
M  V30 16 H -0.466069 -1.45176 1.65746 0
M  V30 17 H -1.19546 0.144523 1.45059 0
M  V30 18 H 1.70016 -1.9123 0.64333 0
M  V30 19 H 3.97605 -1.01341 0.066077 0
M  V30 20 H 4.25266 1.41464 -0.352968 0
M  V30 21 H 2.28081 2.85096 -0.185885 0
M  V30 22 H 0.0629165 1.95039 0.384891 0
M  V30 23 H -3.2266 1.52987 -1.30827 0
M  V30 24 H -2.64128 1.28238 0.34785 0
M  V30 END ATOM
M  V30 BEGIN BOND
M  V30 1 1 1 2
M  V30 2 1 2 3
M  V30 3 1 3 4
M  V30 4 2 4 5
M  V30 5 1 5 6
M  V30 6 2 6 7
M  V30 7 1 7 8
M  V30 8 2 8 9
M  V30 9 1 2 10
M  V30 10 1 10 11
M  V30 11 2 10 12
M  V30 12 1 9 4
M  V30 13 1 1 13
M  V30 14 1 1 14
M  V30 15 1 2 15
M  V30 16 1 3 16
M  V30 17 1 3 17
M  V30 18 1 5 18
M  V30 19 1 6 19
M  V30 20 1 7 20
M  V30 21 1 8 21
M  V30 22 1 9 22
M  V30 23 1 11 23
M  V30 24 1 11 24
M  V30 END BOND
M  V30 END CTAB
M  END
