
     RDKit          3D

  0  0  0  0  0  0  0  0  0  0999 V3000
M  V30 BEGIN CTAB
M  V30 COUNTS 37 38 0 0 0
M  V30 BEGIN ATOM
M  V30 1 O -0.737442 -0.646586 -1.45472 0
M  V30 2 C -0.538376 -0.0698975 -0.369779 0
M  V30 3 C 0.8996 0.0633262 0.0283388 0
M  V30 4 S 1.97759 -0.670426 -1.20918 0
M  V30 5 C 3.68514 -0.499346 -0.711326 0
M  V30 6 N 4.32928 -1.41377 0.0359041 0
M  V30 7 C 5.63088 -1.24218 0.39214 0
M  V30 8 N 6.3128 -2.20027 1.17765 0
M  V30 9 N 6.28963 -0.119229 -0.0195252 0
M  V30 10 C 5.65697 0.802854 -0.767136 0
M  V30 11 N 4.36607 0.589454 -1.09575 0
M  V30 12 N 6.27863 1.99609 -1.23193 0
M  V30 13 C 1.14225 -0.496635 1.40837 0
M  V30 14 N -1.57655 0.418505 0.42117 0
M  V30 15 C -2.94956 0.355655 0.147533 0
M  V30 16 C -3.52187 0.058951 -1.0572 0
M  V30 17 C -4.91694 -0.00333811 -1.23853 0
M  V30 18 C -5.70785 0.244964 -0.16147 0
M  V30 19 C -5.15659 0.548633 1.07118 0
M  V30 20 C -3.80221 0.604127 1.22758 0
M  V30 21 C -7.18502 0.184365 -0.330834 0
M  V30 22 H 1.10757 1.15183 0.0686432 0
M  V30 23 H 6.567 -1.96278 2.15238 0
M  V30 24 H 6.56959 -3.13481 0.815546 0
M  V30 25 H 7.04962 2.44722 -0.70532 0
M  V30 26 H 5.94943 2.4223 -2.12026 0
M  V30 27 H 0.384605 -0.147066 2.11591 0
M  V30 28 H 2.16492 -0.195272 1.71253 0
M  V30 29 H 1.12302 -1.59899 1.3277 0
M  V30 30 H -1.26813 0.897543 1.33626 0
M  V30 31 H -2.89571 -0.126034 -1.9137 0
M  V30 32 H -5.27317 -0.242851 -2.21526 0
M  V30 33 H -5.83681 0.738121 1.8967 0
M  V30 34 H -3.41518 0.84865 2.22515 0
M  V30 35 H -7.65911 -0.150544 0.624026 0
M  V30 36 H -7.45596 -0.60621 -1.07618 0
M  V30 37 H -7.58812 1.15365 -0.684799 0
M  V30 END ATOM
M  V30 BEGIN BOND
M  V30 1 2 1 2
M  V30 2 1 2 3
M  V30 3 1 3 4
M  V30 4 1 4 5
M  V30 5 2 5 6
M  V30 6 1 6 7
M  V30 7 1 7 8
M  V30 8 2 7 9
M  V30 9 1 9 10
M  V30 10 2 10 11
M  V30 11 1 10 12
M  V30 12 1 3 13
M  V30 13 1 2 14
M  V30 14 1 14 15
M  V30 15 2 15 16
M  V30 16 1 16 17
M  V30 17 2 17 18
M  V30 18 1 18 19
M  V30 19 2 19 20
M  V30 20 1 18 21
M  V30 21 1 11 5
M  V30 22 1 20 15
M  V30 23 1 3 22
M  V30 24 1 8 23
M  V30 25 1 8 24
M  V30 26 1 12 25
M  V30 27 1 12 26
M  V30 28 1 13 27
M  V30 29 1 13 28
M  V30 30 1 13 29
M  V30 31 1 14 30
M  V30 32 1 16 31
M  V30 33 1 17 32
M  V30 34 1 19 33
M  V30 35 1 20 34
M  V30 36 1 21 35
M  V30 37 1 21 36
M  V30 38 1 21 37
M  V30 END BOND
M  V30 END CTAB
M  END
