
     RDKit          3D

  0  0  0  0  0  0  0  0  0  0999 V3000
M  V30 BEGIN CTAB
M  V30 COUNTS 21 21 0 0 0
M  V30 BEGIN ATOM
M  V30 1 O -3.94672 0.643287 -0.413646 0 CHG=-1
M  V30 2 N -3.16366 -0.447817 -0.611738 0 CHG=1
M  V30 3 O -3.66785 -1.53598 -1.01781 0
M  V30 4 C -1.7601 -0.398212 -0.365991 0
M  V30 5 C -0.895166 -1.22593 -1.05407 0
M  V30 6 C 0.470677 -1.20928 -0.839516 0
M  V30 7 C 1.03085 -0.352151 0.084661 0
M  V30 8 C 0.161492 0.471509 0.768278 0
M  V30 9 C -1.20317 0.461202 0.55959 0
M  V30 10 N -2.10492 1.31348 1.26717 0
M  V30 11 S 2.76682 -0.305899 0.381058 0
M  V30 12 O 3.29021 -1.69884 0.0954873 0
M  V30 13 O 2.99505 0.0879051 1.8116 0
M  V30 14 N 3.48762 0.852312 -0.644081 0
M  V30 15 H -1.32116 -1.91328 -1.79215 0
M  V30 16 H 1.15512 -1.85473 -1.37575 0
M  V30 17 H 0.582705 1.16158 1.50898 0
M  V30 18 H -2.36774 0.987094 2.2301 0
M  V30 19 H -2.47126 2.19449 0.850049 0
M  V30 20 H 2.81619 1.29388 -1.28608 0
M  V30 21 H 4.145 1.47537 -0.156134 0
M  V30 END ATOM
M  V30 BEGIN BOND
M  V30 1 1 1 2
M  V30 2 2 2 3
M  V30 3 1 2 4
M  V30 4 2 4 5
M  V30 5 1 5 6
M  V30 6 2 6 7
M  V30 7 1 7 8
M  V30 8 2 8 9
M  V30 9 1 9 10
M  V30 10 1 7 11
M  V30 11 2 11 12
M  V30 12 2 11 13
M  V30 13 1 11 14
M  V30 14 1 9 4
M  V30 15 1 5 15
M  V30 16 1 6 16
M  V30 17 1 8 17
M  V30 18 1 10 18
M  V30 19 1 10 19
M  V30 20 1 14 20
M  V30 21 1 14 21
M  V30 END BOND
M  V30 END CTAB
M  END
