
     RDKit          3D

  0  0  0  0  0  0  0  0  0  0999 V3000
M  V30 BEGIN CTAB
M  V30 COUNTS 29 29 0 0 0
M  V30 BEGIN ATOM
M  V30 1 C 5.31833 0.91892 0.361289 0
M  V30 2 O 4.37521 -0.0517306 -0.0779619 0
M  V30 3 C 3.02323 0.164236 0.125927 0
M  V30 4 C 2.59145 1.314 0.751493 0
M  V30 5 C 1.24973 1.48341 0.930537 0
M  V30 6 C 0.300981 0.568696 0.520689 0
M  V30 7 C 0.781055 -0.566098 -0.100396 0
M  V30 8 C 2.1289 -0.809545 -0.318248 0
M  V30 9 N 2.57162 -1.99146 -0.961206 0
M  V30 10 C -1.12971 0.795091 0.735337 0
M  V30 11 O -1.47387 1.86012 1.31109 0
M  V30 12 O -2.11271 -0.0710708 0.352916 0
M  V30 13 N -3.46046 0.140802 0.554378 0
M  V30 14 C -4.37483 -0.411808 -0.13495 0
M  V30 15 N -3.9561 -1.2949 -1.16696 0
M  V30 16 C -5.83334 -0.186273 0.0786064 0
M  V30 17 H 5.09092 1.13009 1.44358 0
M  V30 18 H 6.34853 0.598256 0.215801 0
M  V30 19 H 5.1135 1.84751 -0.194471 0
M  V30 20 H 3.3086 2.05585 1.08742 0
M  V30 21 H 0.882479 2.37618 1.41847 0
M  V30 22 H 0.0707442 -1.33258 -0.44957 0
M  V30 23 H 2.07943 -2.89562 -0.832222 0
M  V30 24 H 3.39855 -1.96308 -1.57159 0
M  V30 25 H -3.41792 -0.996225 -2.00768 0
M  V30 26 H -4.20558 -2.30278 -1.07178 0
M  V30 27 H -6.39112 -1.16174 0.0706546 0
M  V30 28 H -6.01448 0.26116 1.07479 0
M  V30 29 H -6.26312 0.520583 -0.661452 0
M  V30 END ATOM
M  V30 BEGIN BOND
M  V30 1 1 1 2
M  V30 2 1 2 3
M  V30 3 2 3 4
M  V30 4 1 4 5
M  V30 5 2 5 6
M  V30 6 1 6 7
M  V30 7 2 7 8
M  V30 8 1 8 9
M  V30 9 1 6 10
M  V30 10 2 10 11
M  V30 11 1 10 12
M  V30 12 1 12 13
M  V30 13 2 13 14
M  V30 14 1 14 15
M  V30 15 1 14 16
M  V30 16 1 8 3
M  V30 17 1 1 17
M  V30 18 1 1 18
M  V30 19 1 1 19
M  V30 20 1 4 20
M  V30 21 1 5 21
M  V30 22 1 7 22
M  V30 23 1 9 23
M  V30 24 1 9 24
M  V30 25 1 15 25
M  V30 26 1 15 26
M  V30 27 1 16 27
M  V30 28 1 16 28
M  V30 29 1 16 29
M  V30 END BOND
M  V30 END CTAB
M  END
