
     RDKit          3D

  0  0  0  0  0  0  0  0  0  0999 V3000
M  V30 BEGIN CTAB
M  V30 COUNTS 51 54 0 0 0
M  V30 BEGIN ATOM
M  V30 1 O 2.6328 1.41751 0.311939 0
M  V30 2 C 2.00561 0.347828 0.148129 0
M  V30 3 N 0.637423 0.430852 -0.219948 0
M  V30 4 C -0.0461218 1.69408 -0.409136 0
M  V30 5 C -1.19711 1.4433 -1.36321 0
M  V30 6 C -2.19954 0.580651 -0.650349 0
M  V30 7 C -1.54512 -0.508477 0.146837 0
M  V30 8 C -0.14926 -0.774908 -0.426247 0
M  V30 9 O -2.9915 1.43686 0.165326 0
M  V30 10 C -4.28757 0.915177 0.158847 0
M  V30 11 C -4.45977 0.0185914 -0.856899 0
M  V30 12 C -3.18345 -0.077836 -1.59874 0
M  V30 13 C -5.66329 -0.654906 -1.09488 0
M  V30 14 N -5.76571 -1.57265 -2.17076 0
M  V30 15 N -6.67611 -0.375747 -0.257366 0
M  V30 16 C -6.53065 0.507587 0.755204 0
M  V30 17 N -5.3669 1.1446 0.967849 0
M  V30 18 N -7.62303 0.776903 1.61958 0
M  V30 19 C 2.66153 -0.935501 0.33012 0
M  V30 20 C 4.11599 -0.884902 0.727778 0
M  V30 21 C 4.39841 -0.198873 1.99938 0
M  V30 22 C 5.71308 0.536119 2.05633 0
M  V30 23 N 6.1247 1.13922 0.834469 0
M  V30 24 C 6.27118 0.0751691 -0.141722 0
M  V30 25 C 4.91399 -0.443927 -0.456301 0
M  V30 26 H 0.60777 2.48882 -0.803716 0
M  V30 27 H -0.443056 2.00581 0.574895 0
M  V30 28 H -0.828652 1.01156 -2.305 0
M  V30 29 H -1.64868 2.45327 -1.56681 0
M  V30 30 H -1.5112 -0.250819 1.21328 0
M  V30 31 H -2.10019 -1.46654 0.0610451 0
M  V30 32 H -0.276169 -0.895056 -1.5189 0
M  V30 33 H 0.288937 -1.65069 0.051764 0
M  V30 34 H -2.90364 -1.09285 -1.88173 0
M  V30 35 H -3.19891 0.568352 -2.51757 0
M  V30 36 H -6.15288 -1.3196 -3.08849 0
M  V30 37 H -5.43134 -2.54286 -2.01428 0
M  V30 38 H -8.53684 1.14528 1.33269 0
M  V30 39 H -7.48397 0.582024 2.64306 0
M  V30 40 H 2.05188 -1.51948 1.06897 0
M  V30 41 H 2.52911 -1.51369 -0.629556 0
M  V30 42 H 4.40031 -1.97571 0.869114 0
M  V30 43 H 3.62277 0.515534 2.3565 0
M  V30 44 H 4.45339 -0.942258 2.85579 0
M  V30 45 H 5.67002 1.33337 2.84076 0
M  V30 46 H 6.51642 -0.159034 2.39022 0
M  V30 47 H 5.53747 1.90897 0.498325 0
M  V30 48 H 6.96156 -0.664866 0.275886 0
M  V30 49 H 6.673 0.557392 -1.06541 0
M  V30 50 H 5.05025 -1.30196 -1.17962 0
M  V30 51 H 4.36307 0.3212 -1.03744 0
M  V30 END ATOM
M  V30 BEGIN BOND
M  V30 1 2 1 2
M  V30 2 1 2 3
M  V30 3 1 3 4
M  V30 4 1 4 5
M  V30 5 1 5 6
M  V30 6 1 6 7
M  V30 7 1 7 8
M  V30 8 1 6 9
M  V30 9 1 9 10
M  V30 10 2 10 11
M  V30 11 1 11 12
M  V30 12 1 11 13
M  V30 13 1 13 14
M  V30 14 2 13 15
M  V30 15 1 15 16
M  V30 16 2 16 17
M  V30 17 1 16 18
M  V30 18 1 2 19
M  V30 19 1 19 20
M  V30 20 1 20 21
M  V30 21 1 21 22
M  V30 22 1 22 23
M  V30 23 1 23 24
M  V30 24 1 24 25
M  V30 25 1 8 3
M  V30 26 1 17 10
M  V30 27 1 25 20
M  V30 28 1 12 6
M  V30 29 1 4 26
M  V30 30 1 4 27
M  V30 31 1 5 28
M  V30 32 1 5 29
M  V30 33 1 7 30
M  V30 34 1 7 31
M  V30 35 1 8 32
M  V30 36 1 8 33
M  V30 37 1 12 34
M  V30 38 1 12 35
M  V30 39 1 14 36
M  V30 40 1 14 37
M  V30 41 1 18 38
M  V30 42 1 18 39
M  V30 43 1 19 40
M  V30 44 1 19 41
M  V30 45 1 20 42
M  V30 46 1 21 43
M  V30 47 1 21 44
M  V30 48 1 22 45
M  V30 49 1 22 46
M  V30 50 1 23 47
M  V30 51 1 24 48
M  V30 52 1 24 49
M  V30 53 1 25 50
M  V30 54 1 25 51
M  V30 END BOND
M  V30 END CTAB
M  END
