
     RDKit          3D

  0  0  0  0  0  0  0  0  0  0999 V3000
M  V30 BEGIN CTAB
M  V30 COUNTS 28 29 0 0 0
M  V30 BEGIN ATOM
M  V30 1 N -4.04067 -0.445998 0.20204 0
M  V30 2 C -2.82185 0.337324 0.149811 0
M  V30 3 C -1.73433 -0.134496 1.08727 0
M  V30 4 C -0.903964 -0.483582 -0.118087 0
M  V30 5 C -1.9349 0.074236 -1.04873 0
M  V30 6 F -0.912766 -1.88226 -0.265849 0
M  V30 7 C 0.450693 0.0268652 -0.181732 0
M  V30 8 C 1.52774 -0.848929 -0.255378 0
M  V30 9 C 2.8298 -0.443164 -0.316228 0
M  V30 10 C 3.91701 -1.43049 -0.392559 0
M  V30 11 C 3.10473 0.906663 -0.304749 0
M  V30 12 N 2.0801 1.77524 -0.234032 0
M  V30 13 C 0.791726 1.36403 -0.174033 0
M  V30 14 N -0.215642 2.36054 -0.103228 0
M  V30 15 H -4.19097 -0.914071 1.11591 0
M  V30 16 H -4.06572 -1.16871 -0.561327 0
M  V30 17 H -3.06972 1.4025 0.337743 0
M  V30 18 H -1.3289 0.585901 1.79229 0
M  V30 19 H -2.11579 -1.01888 1.6738 0
M  V30 20 H -2.46661 -0.674663 -1.70872 0
M  V30 21 H -1.67805 0.920086 -1.67333 0
M  V30 22 H 1.33015 -1.91382 -0.265439 0
M  V30 23 H 4.81472 -1.0824 0.153716 0
M  V30 24 H 3.54751 -2.37019 0.0821937 0
M  V30 25 H 4.14079 -1.66101 -1.45248 0
M  V30 26 H 4.14505 1.21109 -0.353716 0
M  V30 27 H -0.729744 2.64374 0.74713 0
M  V30 28 H -0.470402 2.86444 -0.985008 0
M  V30 END ATOM
M  V30 BEGIN BOND
M  V30 1 1 1 2
M  V30 2 1 2 3
M  V30 3 1 3 4
M  V30 4 1 4 5
M  V30 5 1 4 6
M  V30 6 1 4 7
M  V30 7 2 7 8
M  V30 8 1 8 9
M  V30 9 1 9 10
M  V30 10 2 9 11
M  V30 11 1 11 12
M  V30 12 2 12 13
M  V30 13 1 13 14
M  V30 14 1 5 2
M  V30 15 1 13 7
M  V30 16 1 1 15
M  V30 17 1 1 16
M  V30 18 1 2 17
M  V30 19 1 3 18
M  V30 20 1 3 19
M  V30 21 1 5 20
M  V30 22 1 5 21
M  V30 23 1 8 22
M  V30 24 1 10 23
M  V30 25 1 10 24
M  V30 26 1 10 25
M  V30 27 1 11 26
M  V30 28 1 14 27
M  V30 29 1 14 28
M  V30 END BOND
M  V30 END CTAB
M  END
