
     RDKit          3D

  0  0  0  0  0  0  0  0  0  0999 V3000
M  V30 BEGIN CTAB
M  V30 COUNTS 37 39 0 0 0
M  V30 BEGIN ATOM
M  V30 1 O -0.544972 -0.92236 1.34146 0
M  V30 2 C -0.324366 -1.89854 0.599139 0
M  V30 3 N 0.826688 -1.97186 -0.216985 0
M  V30 4 C 1.74329 -0.859209 -0.151987 0
M  V30 5 S 1.64211 0.571322 0.788054 0
M  V30 6 C 3.09126 1.32111 0.27714 0
M  V30 7 C 3.57939 0.398101 -0.611982 0
M  V30 8 N 2.87641 -0.681484 -0.800816 0
M  V30 9 C 4.80027 0.713623 -1.2349 0
M  V30 10 C 5.41012 -0.242545 -2.22698 0
M  V30 11 C 5.44581 1.88257 -0.952565 0
M  V30 12 C 4.96022 2.81771 -0.0575146 0
M  V30 13 C 3.76928 2.51139 0.550841 0
M  V30 14 C -1.28522 -3.01529 0.563182 0
M  V30 15 S -2.68179 -2.72026 1.65742 0
M  V30 16 C -3.62944 -1.34965 1.0275 0
M  V30 17 N -4.62398 -1.61728 0.151843 0
M  V30 18 C -5.39878 -0.653811 -0.380009 0
M  V30 19 N -6.44505 -0.948829 -1.30232 0
M  V30 20 C -5.18036 0.664228 -0.026168 0
M  V30 21 C -4.15423 0.934683 0.876525 0
M  V30 22 N -3.42458 -0.0757367 1.36405 0
M  V30 23 N -3.91551 2.29337 1.25235 0
M  V30 24 H 1.06354 -2.74265 -0.845259 0
M  V30 25 H 5.35688 -1.28515 -1.8709 0
M  V30 26 H 4.84787 -0.0709045 -3.16883 0
M  V30 27 H 6.44909 0.034432 -2.39157 0
M  V30 28 H 6.40316 2.10823 -1.45407 0
M  V30 29 H 5.53223 3.71029 0.104652 0
M  V30 30 H 3.33685 3.18779 1.25296 0
M  V30 31 H -1.6467 -3.14288 -0.478955 0
M  V30 32 H -0.737113 -3.92231 0.919834 0
M  V30 33 H -6.36854 -1.58541 -2.09972 0
M  V30 34 H -7.38376 -0.480696 -1.16735 0
M  V30 35 H -5.77532 1.47529 -0.425192 0
M  V30 36 H -2.96485 2.54032 1.56244 0
M  V30 37 H -4.6499 3.02237 1.22451 0
M  V30 END ATOM
M  V30 BEGIN BOND
M  V30 1 2 1 2
M  V30 2 1 2 3
M  V30 3 1 3 4
M  V30 4 1 4 5
M  V30 5 1 5 6
M  V30 6 2 6 7
M  V30 7 1 7 8
M  V30 8 1 7 9
M  V30 9 1 9 10
M  V30 10 2 9 11
M  V30 11 1 11 12
M  V30 12 2 12 13
M  V30 13 1 2 14
M  V30 14 1 14 15
M  V30 15 1 15 16
M  V30 16 2 16 17
M  V30 17 1 17 18
M  V30 18 1 18 19
M  V30 19 2 18 20
M  V30 20 1 20 21
M  V30 21 2 21 22
M  V30 22 1 21 23
M  V30 23 2 8 4
M  V30 24 1 22 16
M  V30 25 1 13 6
M  V30 26 1 3 24
M  V30 27 1 10 25
M  V30 28 1 10 26
M  V30 29 1 10 27
M  V30 30 1 11 28
M  V30 31 1 12 29
M  V30 32 1 13 30
M  V30 33 1 14 31
M  V30 34 1 14 32
M  V30 35 1 19 33
M  V30 36 1 19 34
M  V30 37 1 20 35
M  V30 38 1 23 36
M  V30 39 1 23 37
M  V30 END BOND
M  V30 END CTAB
M  END
