
     RDKit          3D

  0  0  0  0  0  0  0  0  0  0999 V3000
M  V30 BEGIN CTAB
M  V30 COUNTS 30 32 0 0 0
M  V30 BEGIN ATOM
M  V30 1 N 1.38038 2.76502 -1.37019 0
M  V30 2 C 1.60295 1.53937 -0.720977 0
M  V30 3 C 2.84795 1.06287 -0.407041 0
M  V30 4 C 3.01473 -0.148782 0.231746 0
M  V30 5 C 1.91589 -0.91309 0.57067 0
M  V30 6 N 2.03717 -2.16709 1.22924 0
M  V30 7 C 0.664118 -0.460301 0.268639 0
M  V30 8 C 0.510824 0.768364 -0.378253 0
M  V30 9 C -0.824532 1.23113 -0.690162 0
M  V30 10 O -0.961282 2.35112 -1.27963 0
M  V30 11 C -2.01937 0.481182 -0.364221 0
M  V30 12 C -3.28164 0.96619 -0.683874 0
M  V30 13 C -4.42257 0.250449 -0.372917 0
M  V30 14 C -4.27523 -0.967058 0.267749 0
M  V30 15 C -3.01741 -1.43988 0.580828 0
M  V30 16 C -1.85733 -0.730579 0.274289 0
M  V30 17 C -0.541617 -1.23152 0.605062 0
M  V30 18 O -0.433445 -2.34046 1.18728 0
M  V30 19 N 4.29449 -0.658168 0.563186 0 CHG=1
M  V30 20 O 4.42239 -1.50372 1.62712 0 CHG=-1
M  V30 21 O 5.27935 -0.331946 -0.11351 0
M  V30 22 H 1.31678 2.91457 -2.38373 0
M  V30 23 H 1.26737 3.61804 -0.747307 0
M  V30 24 H 3.70903 1.64798 -0.665551 0
M  V30 25 H 2.10942 -3.03786 0.679596 0
M  V30 26 H 2.05575 -2.23401 2.27085 0
M  V30 27 H -3.37877 1.91983 -1.18495 0
M  V30 28 H -5.42092 0.603577 -0.609745 0
M  V30 29 H -5.14387 -1.56103 0.529868 0
M  V30 30 H -2.85059 -2.39422 1.08593 0
M  V30 END ATOM
M  V30 BEGIN BOND
M  V30 1 1 1 2
M  V30 2 2 2 3
M  V30 3 1 3 4
M  V30 4 2 4 5
M  V30 5 1 5 6
M  V30 6 1 5 7
M  V30 7 2 7 8
M  V30 8 1 8 9
M  V30 9 2 9 10
M  V30 10 1 9 11
M  V30 11 2 11 12
M  V30 12 1 12 13
M  V30 13 2 13 14
M  V30 14 1 14 15
M  V30 15 2 15 16
M  V30 16 1 16 17
M  V30 17 2 17 18
M  V30 18 1 4 19
M  V30 19 1 19 20
M  V30 20 2 19 21
M  V30 21 1 8 2
M  V30 22 1 16 11
M  V30 23 1 17 7
M  V30 24 1 1 22
M  V30 25 1 1 23
M  V30 26 1 3 24
M  V30 27 1 6 25
M  V30 28 1 6 26
M  V30 29 1 12 27
M  V30 30 1 13 28
M  V30 31 1 14 29
M  V30 32 1 15 30
M  V30 END BOND
M  V30 END CTAB
M  END
