
     RDKit          3D

  0  0  0  0  0  0  0  0  0  0999 V3000
M  V30 BEGIN CTAB
M  V30 COUNTS 37 37 0 0 0
M  V30 BEGIN ATOM
M  V30 1 C -5.53087 -0.353733 0.718464 0
M  V30 2 C -4.19506 -0.441698 0.034708 0
M  V30 3 C -3.04302 -0.225213 1.0242 0
M  V30 4 C -1.77092 -0.339589 0.207773 0
M  V30 5 C -0.601808 -0.143295 1.08607 0
M  V30 6 O -0.738652 0.0815588 2.32356 0
M  V30 7 N 0.69523 -0.203482 0.557206 0
M  V30 8 C 1.88824 -0.0190742 1.36716 0
M  V30 9 C 3.01309 -0.731478 0.645194 0
M  V30 10 N 3.25414 -0.0964063 -0.613447 0
M  V30 11 C 2.09173 0.423966 -1.2634 0
M  V30 12 C 0.904782 -0.458473 -0.854469 0
M  V30 13 S 4.53424 1.03202 -0.465785 0
M  V30 14 O 4.75781 1.80657 -1.72663 0
M  V30 15 O 4.26396 2.05433 0.626332 0
M  V30 16 N 5.95598 0.152316 0.00100113 0
M  V30 17 N -4.03941 0.568695 -0.996954 0
M  V30 18 H -6.32151 -0.0452156 0.0139125 0
M  V30 19 H -5.46008 0.380313 1.54915 0
M  V30 20 H -5.76397 -1.36269 1.12911 0
M  V30 21 H -4.02891 -1.44266 -0.412374 0
M  V30 22 H -3.07577 -0.949622 1.8528 0
M  V30 23 H -3.13538 0.787018 1.46005 0
M  V30 24 H -1.83005 0.415602 -0.597653 0
M  V30 25 H -1.6865 -1.33188 -0.268468 0
M  V30 26 H 2.17186 1.04684 1.45376 0
M  V30 27 H 1.75505 -0.474008 2.37937 0
M  V30 28 H 3.96 -0.710131 1.23741 0
M  V30 29 H 2.68309 -1.7765 0.441944 0
M  V30 30 H 1.89179 1.4904 -1.06762 0
M  V30 31 H 2.19069 0.32793 -2.37531 0
M  V30 32 H 1.23473 -1.50362 -0.98863 0
M  V30 33 H 0.0126388 -0.242899 -1.46969 0
M  V30 34 H 6.7455 0.318933 -0.630874 0
M  V30 35 H 6.15855 0.21592 1.00344 0
M  V30 36 H -4.50984 0.270287 -1.88151 0
M  V30 37 H -4.43136 1.47897 -0.655805 0
M  V30 END ATOM
M  V30 BEGIN BOND
M  V30 1 1 1 2
M  V30 2 1 2 3
M  V30 3 1 3 4
M  V30 4 1 4 5
M  V30 5 2 5 6
M  V30 6 1 5 7
M  V30 7 1 7 8
M  V30 8 1 8 9
M  V30 9 1 9 10
M  V30 10 1 10 11
M  V30 11 1 11 12
M  V30 12 1 10 13
M  V30 13 2 13 14
M  V30 14 2 13 15
M  V30 15 1 13 16
M  V30 16 1 2 17
M  V30 17 1 12 7
M  V30 18 1 1 18
M  V30 19 1 1 19
M  V30 20 1 1 20
M  V30 21 1 2 21
M  V30 22 1 3 22
M  V30 23 1 3 23
M  V30 24 1 4 24
M  V30 25 1 4 25
M  V30 26 1 8 26
M  V30 27 1 8 27
M  V30 28 1 9 28
M  V30 29 1 9 29
M  V30 30 1 11 30
M  V30 31 1 11 31
M  V30 32 1 12 32
M  V30 33 1 12 33
M  V30 34 1 16 34
M  V30 35 1 16 35
M  V30 36 1 17 36
M  V30 37 1 17 37
M  V30 END BOND
M  V30 END CTAB
M  END
