
     RDKit          3D

  0  0  0  0  0  0  0  0  0  0999 V3000
M  V30 BEGIN CTAB
M  V30 COUNTS 43 45 0 0 0
M  V30 BEGIN ATOM
M  V30 1 N -4.7926 -2.83836 0.54466 0
M  V30 2 C -5.69535 -1.71445 0.516044 0
M  V30 3 N -6.88294 -1.92462 0.969105 0
M  V30 4 C -5.23871 -0.447236 -0.00291739 0
M  V30 5 C -3.94925 -0.324493 -0.463875 0
M  V30 6 C -3.46817 0.860517 -0.966888 0
M  V30 7 O -2.16457 0.927334 -1.41632 0
M  V30 8 C -1.10683 1.27091 -0.586199 0
M  V30 9 C -1.27991 1.56778 0.741706 0
M  V30 10 C -0.175865 1.90076 1.50228 0
M  V30 11 C 1.06766 1.9228 0.895458 0
M  V30 12 C 1.22825 1.62238 -0.440316 0
M  V30 13 O 2.46636 1.63968 -1.06503 0
M  V30 14 C 3.35404 0.588889 -1.06093 0
M  V30 15 C 3.25758 -0.347721 -2.09087 0
M  V30 16 C 4.13912 -1.40677 -2.10263 0
M  V30 17 C 5.09334 -1.5312 -1.11383 0
M  V30 18 C 5.2083 -0.607408 -0.074876 0
M  V30 19 C 4.3161 0.441496 -0.0855435 0
M  V30 20 C 6.22509 -0.76211 0.956152 0
M  V30 21 N 7.13362 -1.84934 0.946913 0
M  V30 22 N 6.29353 0.105701 1.88674 0
M  V30 23 N 0.115096 1.30298 -1.13925 0
M  V30 24 C -4.29846 1.96811 -1.01494 0
M  V30 25 C -5.5878 1.84951 -0.55523 0
M  V30 26 C -6.06948 0.647826 -0.0471679 0
M  V30 27 H -4.53353 -3.25597 -0.36429 0
M  V30 28 H -4.45795 -3.1599 1.47523 0
M  V30 29 H -7.64688 -1.24638 1.02412 0
M  V30 30 H -3.30813 -1.19576 -0.422221 0
M  V30 31 H -2.2759 1.5311 1.14849 0
M  V30 32 H -0.311839 2.13467 2.5484 0
M  V30 33 H 1.92696 2.18456 1.49848 0
M  V30 34 H 2.4906 -0.209975 -2.84846 0
M  V30 35 H 4.07662 -2.14022 -2.89457 0
M  V30 36 H 5.80548 -2.36122 -1.09801 0
M  V30 37 H 4.40084 1.16499 0.721679 0
M  V30 38 H 7.49749 -2.19149 0.0280424 0
M  V30 39 H 7.47405 -2.34363 1.79766 0
M  V30 40 H 6.98171 0.0874977 2.66937 0
M  V30 41 H -3.94971 2.89822 -1.40065 0
M  V30 42 H -6.2851 2.68376 -0.567601 0
M  V30 43 H -7.07286 0.556784 0.310269 0
M  V30 END ATOM
M  V30 BEGIN BOND
M  V30 1 1 1 2
M  V30 2 2 2 3 CFG=2
M  V30 3 1 2 4
M  V30 4 2 4 5
M  V30 5 1 5 6
M  V30 6 1 6 7
M  V30 7 1 7 8
M  V30 8 2 8 9
M  V30 9 1 9 10
M  V30 10 2 10 11
M  V30 11 1 11 12
M  V30 12 1 12 13
M  V30 13 1 13 14
M  V30 14 2 14 15
M  V30 15 1 15 16
M  V30 16 2 16 17
M  V30 17 1 17 18
M  V30 18 2 18 19
M  V30 19 1 18 20
M  V30 20 1 20 21
M  V30 21 2 20 22 CFG=2
M  V30 22 2 12 23
M  V30 23 2 6 24
M  V30 24 1 24 25
M  V30 25 2 25 26
M  V30 26 1 26 4
M  V30 27 1 23 8
M  V30 28 1 19 14
M  V30 29 1 1 27
M  V30 30 1 1 28
M  V30 31 1 3 29
M  V30 32 1 5 30
M  V30 33 1 9 31
M  V30 34 1 10 32
M  V30 35 1 11 33
M  V30 36 1 15 34
M  V30 37 1 16 35
M  V30 38 1 17 36
M  V30 39 1 19 37
M  V30 40 1 21 38
M  V30 41 1 21 39
M  V30 42 1 22 40
M  V30 43 1 24 41
M  V30 44 1 25 42
M  V30 45 1 26 43
M  V30 END BOND
M  V30 END CTAB
M  END
