
     RDKit          3D

  0  0  0  0  0  0  0  0  0  0999 V3000
M  V30 BEGIN CTAB
M  V30 COUNTS 32 31 0 0 0
M  V30 BEGIN ATOM
M  V30 1 C 2.84262 0.553506 0.0507429 0 CFG=1
M  V30 2 N 2.36074 -0.777624 0.052352 0
M  V30 3 C 2.33834 1.45152 1.13661 0
M  V30 4 S 0.630904 1.76192 1.14361 0
M  V30 5 S -0.752113 0.284569 1.42918 0
M  V30 6 C -1.42673 -0.474478 -0.0439331 0
M  V30 7 C -0.89879 0.111816 -1.32657 0
M  V30 8 C -1.14496 -1.95599 0.0206502 0
M  V30 9 C -2.95106 -0.253658 -0.113893 0 CFG=1
M  V30 10 N -3.59726 -0.837534 1.02709 0
M  V30 11 C -3.27153 1.1845 -0.174927 0
M  V30 12 O -2.83394 2.03132 -1.18166 0
M  V30 13 O -3.98009 1.68053 0.729856 0
M  V30 14 C 4.34897 0.51524 0.0538446 0
M  V30 15 O 4.97103 -0.702764 0.0751286 0
M  V30 16 O 4.94482 1.60764 0.0368458 0
M  V30 17 H 2.58081 0.977879 -0.972247 0
M  V30 18 H 2.19832 -1.14945 -0.890536 0
M  V30 19 H 2.87862 -1.4271 0.682395 0
M  V30 20 H 2.70847 1.01216 2.13592 0
M  V30 21 H 2.97749 2.38389 1.06845 0
M  V30 22 H -0.0991872 -0.566482 -1.70983 0
M  V30 23 H -1.69596 0.0602572 -2.1051 0
M  V30 24 H -0.533429 1.13498 -1.16371 0
M  V30 25 H -0.240236 -2.1453 -0.609128 0
M  V30 26 H -1.97898 -2.55525 -0.41447 0
M  V30 27 H -0.917699 -2.22415 1.05218 0
M  V30 28 H -3.34054 -0.729881 -1.02854 0
M  V30 29 H -4.61265 -0.683782 0.99123 0
M  V30 30 H -3.41535 -1.8435 1.13961 0
M  V30 31 H -2.85097 3.03182 -1.08325 0
M  V30 32 H 4.76035 -1.45661 -0.577921 0
M  V30 END ATOM
M  V30 BEGIN BOND
M  V30 1 1 1 2
M  V30 2 1 1 3
M  V30 3 1 3 4
M  V30 4 1 4 5
M  V30 5 1 5 6
M  V30 6 1 6 7
M  V30 7 1 6 8
M  V30 8 1 6 9
M  V30 9 1 9 10
M  V30 10 1 9 11
M  V30 11 1 11 12
M  V30 12 2 11 13
M  V30 13 1 1 14
M  V30 14 1 14 15
M  V30 15 2 14 16
M  V30 16 1 1 17 CFG=3
M  V30 17 1 2 18
M  V30 18 1 2 19
M  V30 19 1 3 20
M  V30 20 1 3 21
M  V30 21 1 7 22
M  V30 22 1 7 23
M  V30 23 1 7 24
M  V30 24 1 8 25
M  V30 25 1 8 26
M  V30 26 1 8 27
M  V30 27 1 9 28 CFG=3
M  V30 28 1 10 29
M  V30 29 1 10 30
M  V30 30 1 12 31
M  V30 31 1 15 32
M  V30 END BOND
M  V30 END CTAB
M  END
