
     RDKit          3D

  0  0  0  0  0  0  0  0  0  0999 V3000
M  V30 BEGIN CTAB
M  V30 COUNTS 41 43 0 0 0
M  V30 BEGIN ATOM
M  V30 1 N -1.05116 -0.752795 -3.06894 0
M  V30 2 C -0.690331 -0.455386 -1.72952 0
M  V30 3 N 0.507235 -0.565005 -1.15075 0
M  V30 4 C 0.465612 -0.190991 0.134635 0
M  V30 5 N 1.42796 -0.123117 1.15161 0
M  V30 6 C 2.77907 -0.467272 1.00302 0
M  V30 7 C 3.58923 -0.588913 2.15816 0
M  V30 8 C 4.91791 -0.908212 2.09608 0
M  V30 9 C 5.56619 -1.13512 0.904578 0
M  V30 10 C 4.80452 -1.02361 -0.231464 0
M  V30 11 C 3.43984 -0.695957 -0.176154 0
M  V30 12 S 7.2651 -1.54377 0.822428 0
M  V30 13 N 8.19683 -0.119178 0.699257 0
M  V30 14 O 7.49929 -2.47989 -0.329788 0
M  V30 15 O 7.70084 -2.28411 2.06676 0
M  V30 16 N -0.85022 0.162265 0.319643 0
M  V30 17 N -1.52875 0.00373701 -0.786319 0
M  V30 18 C -2.91531 0.286763 -0.90578 0
M  V30 19 O -3.45981 0.095752 -2.01756 0
M  V30 20 N -3.68286 0.766637 0.167118 0
M  V30 21 C -5.08308 1.03578 -0.0122799 0
M  V30 22 C -6.04055 0.0813099 0.206413 0
M  V30 23 F -5.65399 -1.15515 0.604379 0
M  V30 24 C -7.37581 0.37392 0.024547 0
M  V30 25 C -7.78512 1.62692 -0.380015 0
M  V30 26 C -6.81189 2.57579 -0.595919 0
M  V30 27 C -5.47536 2.29326 -0.416982 0
M  V30 28 F -4.53031 3.26559 -0.641941 0
M  V30 29 H -0.968928 -0.0104766 -3.7814 0
M  V30 30 H -1.38834 -1.69213 -3.32263 0
M  V30 31 H 1.10723 0.216867 2.10326 0
M  V30 32 H 3.0864 -0.412377 3.10434 0
M  V30 33 H 5.52137 -0.996693 2.99095 0
M  V30 34 H 5.27729 -1.19464 -1.19184 0
M  V30 35 H 2.89562 -0.613757 -1.10201 0
M  V30 36 H 7.65039 0.745416 0.622204 0
M  V30 37 H 8.95677 -0.0975875 1.38578 0
M  V30 38 H -3.27765 0.938233 1.09805 0
M  V30 39 H -8.13923 -0.37251 0.194579 0
M  V30 40 H -8.84597 1.8279 -0.515072 0
M  V30 41 H -7.10003 3.5825 -0.918 0
M  V30 END ATOM
M  V30 BEGIN BOND
M  V30 1 1 1 2
M  V30 2 2 2 3
M  V30 3 1 3 4
M  V30 4 1 4 5
M  V30 5 1 5 6
M  V30 6 2 6 7
M  V30 7 1 7 8
M  V30 8 2 8 9
M  V30 9 1 9 10
M  V30 10 2 10 11
M  V30 11 1 9 12
M  V30 12 1 12 13
M  V30 13 2 12 14
M  V30 14 2 12 15
M  V30 15 2 4 16
M  V30 16 1 16 17
M  V30 17 1 17 18
M  V30 18 2 18 19
M  V30 19 1 18 20
M  V30 20 1 20 21
M  V30 21 2 21 22
M  V30 22 1 22 23
M  V30 23 1 22 24
M  V30 24 2 24 25
M  V30 25 1 25 26
M  V30 26 2 26 27
M  V30 27 1 27 28
M  V30 28 1 17 2
M  V30 29 1 27 21
M  V30 30 1 11 6
M  V30 31 1 1 29
M  V30 32 1 1 30
M  V30 33 1 5 31
M  V30 34 1 7 32
M  V30 35 1 8 33
M  V30 36 1 10 34
M  V30 37 1 11 35
M  V30 38 1 13 36
M  V30 39 1 13 37
M  V30 40 1 20 38
M  V30 41 1 24 39
M  V30 42 1 25 40
M  V30 43 1 26 41
M  V30 END BOND
M  V30 END CTAB
M  END
