
     RDKit          3D

  0  0  0  0  0  0  0  0  0  0999 V3000
M  V30 BEGIN CTAB
M  V30 COUNTS 29 30 0 0 0
M  V30 BEGIN ATOM
M  V30 1 N -4.06197 1.45447 0.506622 0
M  V30 2 C -3.03736 0.64892 -0.060565 0
M  V30 3 N -1.82388 1.15046 -0.381671 0
M  V30 4 C -0.878284 0.336162 -0.922954 0
M  V30 5 S 0.73653 0.957977 -1.36137 0
M  V30 6 C 1.8032 0.770714 0.0789606 0
M  V30 7 C 2.05781 -0.664546 0.426802 0
M  V30 8 C 3.57457 -0.789083 0.514814 0
M  V30 9 C 4.06811 0.642202 0.693387 0
M  V30 10 C 3.12452 1.43744 -0.184233 0
M  V30 11 C -1.13504 -0.998433 -1.15167 0
M  V30 12 C -2.36761 -1.54229 -0.833924 0
M  V30 13 C -3.31841 -0.683228 -0.279903 0
M  V30 14 N -4.59496 -1.1876 0.064961 0
M  V30 15 H -4.06944 1.55571 1.54881 0
M  V30 16 H -4.78896 1.94081 -0.0268116 0
M  V30 17 H 1.34325 1.26155 0.977246 0
M  V30 18 H 1.64698 -1.38176 -0.315875 0
M  V30 19 H 1.60678 -0.935658 1.41412 0
M  V30 20 H 3.86881 -1.36302 1.40897 0
M  V30 21 H 3.91584 -1.21712 -0.440216 0
M  V30 22 H 5.08225 0.788485 0.316469 0
M  V30 23 H 3.90183 0.950068 1.74066 0
M  V30 24 H 3.38814 1.35101 -1.25602 0
M  V30 25 H 3.03838 2.4928 0.12984 0
M  V30 26 H -0.379373 -1.66153 -1.58898 0
M  V30 27 H -2.58886 -2.58229 -1.0047 0
M  V30 28 H -4.79496 -1.47131 1.01953 0
M  V30 29 H -5.31789 -1.26091 -0.674325 0
M  V30 END ATOM
M  V30 BEGIN BOND
M  V30 1 1 1 2
M  V30 2 2 2 3
M  V30 3 1 3 4
M  V30 4 1 4 5
M  V30 5 1 5 6
M  V30 6 1 6 7
M  V30 7 1 7 8
M  V30 8 1 8 9
M  V30 9 1 9 10
M  V30 10 2 4 11
M  V30 11 1 11 12
M  V30 12 2 12 13
M  V30 13 1 13 14
M  V30 14 1 13 2
M  V30 15 1 10 6
M  V30 16 1 1 15
M  V30 17 1 1 16
M  V30 18 1 6 17
M  V30 19 1 7 18
M  V30 20 1 7 19
M  V30 21 1 8 20
M  V30 22 1 8 21
M  V30 23 1 9 22
M  V30 24 1 9 23
M  V30 25 1 10 24
M  V30 26 1 10 25
M  V30 27 1 11 26
M  V30 28 1 12 27
M  V30 29 1 14 28
M  V30 30 1 14 29
M  V30 END BOND
M  V30 END CTAB
M  END
