
     RDKit          3D

  0  0  0  0  0  0  0  0  0  0999 V3000
M  V30 BEGIN CTAB
M  V30 COUNTS 34 33 0 0 0
M  V30 BEGIN ATOM
M  V30 1 N 5.71179 -0.140752 0.698904 0
M  V30 2 C 4.73236 -0.875075 -0.0741471 0
M  V30 3 C 3.46217 -0.0632426 -0.273088 0
M  V30 4 C 2.89993 0.244052 1.06487 0
M  V30 5 C 1.63113 1.04893 1.03206 0
M  V30 6 N 0.562294 0.414986 0.334336 0
M  V30 7 C -0.687424 1.07701 0.235266 0
M  V30 8 O -0.81879 2.20434 0.7651 0
M  V30 9 C -1.85702 0.501623 -0.467792 0 CFG=2
M  V30 10 C -3.05577 0.353617 0.438923 0
M  V30 11 C -4.17115 -0.246648 -0.421337 0
M  V30 12 C -5.38936 -0.427942 0.386206 0
M  V30 13 O -5.41459 -0.103343 1.61246 0
M  V30 14 O -6.5268 -0.951528 -0.164925 0
M  V30 15 N -1.53402 -0.78578 -1.01237 0
M  V30 16 H 5.60307 -0.302462 1.7305 0
M  V30 17 H 5.72081 0.880688 0.485897 0
M  V30 18 H 4.52717 -1.81379 0.486117 0
M  V30 19 H 5.21578 -1.12482 -1.04989 0
M  V30 20 H 2.79268 -0.633819 -0.934446 0
M  V30 21 H 3.76731 0.843496 -0.840423 0
M  V30 22 H 3.67988 0.7438 1.67016 0
M  V30 23 H 2.67041 -0.713155 1.57667 0
M  V30 24 H 1.86961 2.00301 0.479671 0
M  V30 25 H 1.31742 1.3587 2.03958 0
M  V30 26 H 0.6304 -0.526603 -0.122769 0
M  V30 27 H -2.16171 1.23222 -1.2658 0
M  V30 28 H -3.39071 1.29827 0.871944 0
M  V30 29 H -2.88118 -0.369996 1.25576 0
M  V30 30 H -3.86333 -1.21853 -0.834187 0
M  V30 31 H -4.4219 0.452789 -1.2589 0
M  V30 32 H -6.69746 -1.93385 -0.323124 0
M  V30 33 H -1.83034 -1.50632 -0.309628 0
M  V30 34 H -2.09265 -0.919886 -1.89415 0
M  V30 END ATOM
M  V30 BEGIN BOND
M  V30 1 1 1 2
M  V30 2 1 2 3
M  V30 3 1 3 4
M  V30 4 1 4 5
M  V30 5 1 5 6
M  V30 6 1 6 7
M  V30 7 2 7 8
M  V30 8 1 7 9
M  V30 9 1 9 10
M  V30 10 1 10 11
M  V30 11 1 11 12
M  V30 12 2 12 13
M  V30 13 1 12 14
M  V30 14 1 9 15
M  V30 15 1 1 16
M  V30 16 1 1 17
M  V30 17 1 2 18
M  V30 18 1 2 19
M  V30 19 1 3 20
M  V30 20 1 3 21
M  V30 21 1 4 22
M  V30 22 1 4 23
M  V30 23 1 5 24
M  V30 24 1 5 25
M  V30 25 1 6 26
M  V30 26 1 9 27 CFG=3
M  V30 27 1 10 28
M  V30 28 1 10 29
M  V30 29 1 11 30
M  V30 30 1 11 31
M  V30 31 1 14 32
M  V30 32 1 15 33
M  V30 33 1 15 34
M  V30 END BOND
M  V30 END CTAB
M  END
