
     RDKit          3D

  0  0  0  0  0  0  0  0  0  0999 V3000
M  V30 BEGIN CTAB
M  V30 COUNTS 27 28 0 0 0
M  V30 BEGIN ATOM
M  V30 1 N 4.44568 1.94157 1.83619 0
M  V30 2 C 3.44232 1.17519 1.123 0
M  V30 3 S 1.74512 1.35413 1.18671 0
M  V30 4 C 1.3078 0.0979327 0.0817489 0
M  V30 5 C 2.519 -0.379629 -0.264475 0
M  V30 6 N 3.57429 0.192243 0.283898 0
M  V30 7 C 2.71605 -1.53112 -1.2333 0
M  V30 8 C -0.0892849 -0.227949 -0.263671 0
M  V30 9 C -0.484916 -1.1629 -1.14999 0
M  V30 10 N -1.80344 -1.38839 -1.38308 0
M  V30 11 C -2.79907 -0.727472 -0.776986 0
M  V30 12 C -2.41115 0.237026 0.136641 0
M  V30 13 C -1.10001 0.48781 0.393515 0
M  V30 14 C -3.50552 0.977753 0.817089 0
M  V30 15 F -2.9246 1.88665 1.68133 0
M  V30 16 F -4.29954 1.66422 -0.049379 0
M  V30 17 F -4.27211 0.12333 1.62001 0
M  V30 18 N -4.16939 -0.97473 -1.03127 0
M  V30 19 H 4.22921 2.2972 2.77123 0
M  V30 20 H 5.33656 2.09329 1.36431 0
M  V30 21 H 3.81592 -1.79267 -1.29608 0
M  V30 22 H 2.44086 -1.27574 -2.25297 0
M  V30 23 H 2.25453 -2.40922 -0.77808 0
M  V30 24 H 0.242488 -1.7493 -1.69781 0
M  V30 25 H -0.836101 1.25568 1.12037 0
M  V30 26 H -4.77036 -0.319456 -1.56649 0
M  V30 27 H -4.60434 -1.84544 -0.672439 0
M  V30 END ATOM
M  V30 BEGIN BOND
M  V30 1 1 1 2
M  V30 2 1 2 3
M  V30 3 1 3 4
M  V30 4 2 4 5
M  V30 5 1 5 6
M  V30 6 1 5 7
M  V30 7 1 4 8
M  V30 8 2 8 9
M  V30 9 1 9 10
M  V30 10 2 10 11
M  V30 11 1 11 12
M  V30 12 2 12 13
M  V30 13 1 12 14
M  V30 14 1 14 15
M  V30 15 1 14 16
M  V30 16 1 14 17
M  V30 17 1 11 18
M  V30 18 2 6 2
M  V30 19 1 13 8
M  V30 20 1 1 19
M  V30 21 1 1 20
M  V30 22 1 7 21
M  V30 23 1 7 22
M  V30 24 1 7 23
M  V30 25 1 9 24
M  V30 26 1 13 25
M  V30 27 1 18 26
M  V30 28 1 18 27
M  V30 END BOND
M  V30 END CTAB
M  END
