
     RDKit          3D

  0  0  0  0  0  0  0  0  0  0999 V3000
M  V30 BEGIN CTAB
M  V30 COUNTS 33 33 0 0 0
M  V30 BEGIN ATOM
M  V30 1 N -2.68962 -1.97719 1.00045 0
M  V30 2 C -3.59036 -0.898199 0.678751 0
M  V30 3 C -2.98653 0.460682 0.670854 0
M  V30 4 N -1.89786 0.640757 -0.282415 0
M  V30 5 C -0.603666 0.363404 0.144759 0
M  V30 6 O -0.503399 -0.0154479 1.37728 0
M  V30 7 N 0.586273 0.44004 -0.576287 0
M  V30 8 C 1.90554 0.163294 -0.120157 0
M  V30 9 C 2.84094 -0.181145 -1.10534 0
M  V30 10 C 4.14961 -0.444091 -0.781035 0
M  V30 11 C 4.52579 -0.360276 0.551803 0
M  V30 12 C 3.60427 -0.0219521 1.51147 0
M  V30 13 C 2.2681 0.247981 1.18851 0
M  V30 14 N 5.84883 -0.617312 0.95113 0
M  V30 15 C -2.24334 1.11195 -1.55777 0
M  V30 16 O -1.43732 1.30447 -2.49977 0
M  V30 17 C -3.67581 1.44235 -1.9144 0
M  V30 18 H -2.22906 -2.38538 0.159097 0
M  V30 19 H -3.09247 -2.68138 1.63838 0
M  V30 20 H -4.1243 -1.17676 -0.229227 0
M  V30 21 H -4.34438 -0.889484 1.52689 0
M  V30 22 H -2.63637 0.710774 1.69611 0
M  V30 23 H -3.77081 1.19208 0.432209 0
M  V30 24 H 0.494175 0.747295 -1.5975 0
M  V30 25 H 2.56528 -0.251303 -2.14995 0
M  V30 26 H 4.9206 -0.71419 -1.48581 0
M  V30 27 H 3.87518 0.0509234 2.56864 0
M  V30 28 H 1.60077 0.526768 2.01097 0
M  V30 29 H 6.62415 -0.255467 0.352666 0
M  V30 30 H 5.99584 -1.15833 1.82796 0
M  V30 31 H -4.29385 0.541321 -1.80215 0
M  V30 32 H -3.99824 2.28354 -1.23739 0
M  V30 33 H -3.68801 1.80026 -2.94872 0
M  V30 END ATOM
M  V30 BEGIN BOND
M  V30 1 1 1 2
M  V30 2 1 2 3
M  V30 3 1 3 4
M  V30 4 1 4 5
M  V30 5 2 5 6
M  V30 6 1 5 7
M  V30 7 1 7 8
M  V30 8 2 8 9
M  V30 9 1 9 10
M  V30 10 2 10 11
M  V30 11 1 11 12
M  V30 12 2 12 13
M  V30 13 1 11 14
M  V30 14 1 4 15
M  V30 15 2 15 16
M  V30 16 1 15 17
M  V30 17 1 13 8
M  V30 18 1 1 18
M  V30 19 1 1 19
M  V30 20 1 2 20
M  V30 21 1 2 21
M  V30 22 1 3 22
M  V30 23 1 3 23
M  V30 24 1 7 24
M  V30 25 1 9 25
M  V30 26 1 10 26
M  V30 27 1 12 27
M  V30 28 1 13 28
M  V30 29 1 14 29
M  V30 30 1 14 30
M  V30 31 1 17 31
M  V30 32 1 17 32
M  V30 33 1 17 33
M  V30 END BOND
M  V30 END CTAB
M  END
