
     RDKit          3D

  0  0  0  0  0  0  0  0  0  0999 V3000
M  V30 BEGIN CTAB
M  V30 COUNTS 25 25 0 0 0
M  V30 BEGIN ATOM
M  V30 1 N -2.34042 -1.46664 -0.875863 0
M  V30 2 C -2.30999 -0.800428 0.374435 0
M  V30 3 C -1.58991 0.477152 0.465054 0
M  V30 4 C -0.166209 0.504743 0.171199 0
M  V30 5 C 0.595255 -0.544167 -0.289958 0
M  V30 6 C 1.93782 -0.398839 -0.53963 0
M  V30 7 C 2.76333 -1.5433 -1.04191 0
M  V30 8 C 2.52048 0.827761 -0.319104 0
M  V30 9 C 1.79807 1.89328 0.138522 0
M  V30 10 C 0.465772 1.74045 0.383733 0
M  V30 11 Cl 2.62322 3.41372 0.389743 0
M  V30 12 N -1.78399 1.08116 1.79276 0
M  V30 13 H -3.24171 -1.91248 -1.12871 0
M  V30 14 H -1.88448 -0.951106 -1.65816 0
M  V30 15 H -3.38494 -0.597832 0.662625 0
M  V30 16 H -1.98338 -1.54877 1.15561 0
M  V30 17 H -2.08768 1.19559 -0.254369 0
M  V30 18 H 0.151273 -1.49056 -0.456322 0
M  V30 19 H 3.81619 -1.2727 -0.958029 0
M  V30 20 H 2.60147 -2.46259 -0.438294 0
M  V30 21 H 2.49981 -1.79701 -2.08898 0
M  V30 22 H 3.58951 0.947554 -0.51676 0
M  V30 23 H -0.0919349 2.59106 0.744952 0
M  V30 24 H -1.93258 0.343387 2.50369 0
M  V30 25 H -2.56495 1.77056 1.78378 0
M  V30 END ATOM
M  V30 BEGIN BOND
M  V30 1 1 1 2
M  V30 2 1 2 3
M  V30 3 1 3 4
M  V30 4 2 4 5
M  V30 5 1 5 6
M  V30 6 1 6 7
M  V30 7 2 6 8
M  V30 8 1 8 9
M  V30 9 2 9 10
M  V30 10 1 9 11
M  V30 11 1 3 12
M  V30 12 1 10 4
M  V30 13 1 1 13
M  V30 14 1 1 14
M  V30 15 1 2 15
M  V30 16 1 2 16
M  V30 17 1 3 17
M  V30 18 1 5 18
M  V30 19 1 7 19
M  V30 20 1 7 20
M  V30 21 1 7 21
M  V30 22 1 8 22
M  V30 23 1 10 23
M  V30 24 1 12 24
M  V30 25 1 12 25
M  V30 END BOND
M  V30 END CTAB
M  END
