
     RDKit          3D

  0  0  0  0  0  0  0  0  0  0999 V3000
M  V30 BEGIN CTAB
M  V30 COUNTS 62 66 0 0 0
M  V30 BEGIN ATOM
M  V30 1 O 2.36581 0.562168 1.80215 0
M  V30 2 C 2.40404 -0.248441 0.787542 0
M  V30 3 C 3.65158 -0.19587 0.0719239 0
M  V30 4 C 4.15414 1.09891 -0.205499 0
M  V30 5 C 5.35223 1.25684 -0.83251 0
M  V30 6 C 6.09117 0.133791 -1.20295 0
M  V30 7 C 5.59626 -1.10463 -0.92834 0
M  V30 8 C 4.36004 -1.30524 -0.282222 0
M  V30 9 O 7.32242 0.320636 -1.84984 0
M  V30 10 C 8.41397 0.57761 -1.04952 0
M  V30 11 C 8.77514 1.88611 -0.744668 0
M  V30 12 C 9.86231 2.15831 0.0561316 0
M  V30 13 C 10.6433 1.15508 0.592933 0
M  V30 14 C 10.3008 -0.14492 0.301626 0
M  V30 15 C 9.19671 -0.426755 -0.511919 0
M  V30 16 N 11.7717 1.46746 1.42732 0
M  V30 17 C 1.21515 -1.03703 0.53985 0
M  V30 18 C 1.1795 -2.1643 -0.210604 0
M  V30 19 C -0.0468336 -2.81082 -0.447042 0
M  V30 20 C -1.18837 -2.30042 0.0765864 0
M  V30 21 C -1.17898 -1.14524 0.848925 0
M  V30 22 C 0.0227233 -0.51597 1.08162 0
M  V30 23 C -2.38562 -0.50454 1.34811 0
M  V30 24 O -2.30544 0.0797285 2.45237 0
M  V30 25 C -3.62048 -0.535157 0.598747 0
M  V30 26 C -3.71021 -0.730465 -0.75231 0
M  V30 27 C -4.91881 -0.712992 -1.4514 0
M  V30 28 C -6.08309 -0.492616 -0.784303 0
M  V30 29 C -6.02662 -0.29471 0.580147 0
M  V30 30 C -4.83671 -0.31196 1.27286 0
M  V30 31 O -7.28013 -0.469891 -1.43754 0
M  V30 32 C -8.40384 0.049143 -0.83706 0
M  V30 33 C -9.19169 -0.734156 -0.0417726 0
M  V30 34 C -10.3334 -0.227663 0.575913 0
M  V30 35 C -10.6921 1.083 0.393209 0
M  V30 36 C -9.89398 1.87707 -0.414044 0
M  V30 37 C -8.7657 1.38342 -1.02638 0
M  V30 38 N -11.8621 1.64839 1.01773 0
M  V30 39 H 3.54478 1.94809 0.097545 0
M  V30 40 H 5.76264 2.24696 -1.0641 0
M  V30 41 H 6.17234 -1.97911 -1.21198 0
M  V30 42 H 4.08167 -2.32981 -0.0774446 0
M  V30 43 H 8.16215 2.68821 -1.1696 0
M  V30 44 H 10.123 3.19118 0.27804 0
M  V30 45 H 10.8932 -0.957811 0.701995 0
M  V30 46 H 8.93789 -1.46254 -0.733753 0
M  V30 47 H 12.583 1.97588 0.985785 0
M  V30 48 H 11.8358 1.22356 2.4248 0
M  V30 49 H 2.05432 -2.59176 -0.654228 0
M  V30 50 H 0.00230069 -3.70448 -1.05303 0
M  V30 51 H -2.1359 -2.81197 -0.109532 0
M  V30 52 H 0.0349736 0.378353 1.67682 0
M  V30 53 H -2.78137 -0.88979 -1.33388 0
M  V30 54 H -4.859 -0.880787 -2.53863 0
M  V30 55 H -6.92941 -0.117037 1.12284 0
M  V30 56 H -4.76044 -0.168353 2.32928 0
M  V30 57 H -8.95545 -1.77789 0.143347 0
M  V30 58 H -10.91 -0.873511 1.18699 0
M  V30 59 H -10.206 2.90664 -0.542057 0
M  V30 60 H -8.12529 2.00116 -1.66357 0
M  V30 61 H -12.5639 2.07034 0.392164 0
M  V30 62 H -11.9163 1.59058 2.06272 0
M  V30 END ATOM
M  V30 BEGIN BOND
M  V30 1 2 1 2
M  V30 2 1 2 3
M  V30 3 2 3 4
M  V30 4 1 4 5
M  V30 5 2 5 6
M  V30 6 1 6 7
M  V30 7 2 7 8
M  V30 8 1 6 9
M  V30 9 1 9 10
M  V30 10 2 10 11
M  V30 11 1 11 12
M  V30 12 2 12 13
M  V30 13 1 13 14
M  V30 14 2 14 15
M  V30 15 1 13 16
M  V30 16 1 2 17
M  V30 17 2 17 18
M  V30 18 1 18 19
M  V30 19 2 19 20
M  V30 20 1 20 21
M  V30 21 2 21 22
M  V30 22 1 21 23
M  V30 23 2 23 24
M  V30 24 1 23 25
M  V30 25 2 25 26
M  V30 26 1 26 27
M  V30 27 2 27 28
M  V30 28 1 28 29
M  V30 29 2 29 30
M  V30 30 1 28 31
M  V30 31 1 31 32
M  V30 32 2 32 33
M  V30 33 1 33 34
M  V30 34 2 34 35
M  V30 35 1 35 36
M  V30 36 2 36 37
M  V30 37 1 35 38
M  V30 38 1 8 3
M  V30 39 1 15 10
M  V30 40 1 22 17
M  V30 41 1 30 25
M  V30 42 1 37 32
M  V30 43 1 4 39
M  V30 44 1 5 40
M  V30 45 1 7 41
M  V30 46 1 8 42
M  V30 47 1 11 43
M  V30 48 1 12 44
M  V30 49 1 14 45
M  V30 50 1 15 46
M  V30 51 1 16 47
M  V30 52 1 16 48
M  V30 53 1 18 49
M  V30 54 1 19 50
M  V30 55 1 20 51
M  V30 56 1 22 52
M  V30 57 1 26 53
M  V30 58 1 27 54
M  V30 59 1 29 55
M  V30 60 1 30 56
M  V30 61 1 33 57
M  V30 62 1 34 58
M  V30 63 1 36 59
M  V30 64 1 37 60
M  V30 65 1 38 61
M  V30 66 1 38 62
M  V30 END BOND
M  V30 END CTAB
M  END
