
     RDKit          3D

  0  0  0  0  0  0  0  0  0  0999 V3000
M  V30 BEGIN CTAB
M  V30 COUNTS 28 28 0 0 0
M  V30 BEGIN ATOM
M  V30 1 C -2.60204 -1.13125 -1.00207 0
M  V30 2 C -1.51368 -0.234747 -0.387131 0
M  V30 3 C -2.0665 0.131231 0.981746 0
M  V30 4 N -1.47258 0.957299 -1.1638 0
M  V30 5 C -0.279726 -1.04931 -0.310438 0
M  V30 6 C 0.914061 -0.415047 0.240375 0
M  V30 7 C 1.27445 -0.594975 1.56495 0
M  V30 8 C 2.38187 0.0149742 2.11332 0
M  V30 9 C 3.15849 0.834042 1.3123 0
M  V30 10 C 2.83241 1.03596 -0.00576131 0
M  V30 11 C 1.70328 0.401434 -0.52809 0
M  V30 12 N 1.45732 0.649239 -1.91188 0
M  V30 13 H -3.60117 -0.849664 -0.610584 0
M  V30 14 H -2.56743 -1.01716 -2.10947 0
M  V30 15 H -2.43488 -2.1908 -0.72565 0
M  V30 16 H -1.76588 -0.5952 1.75118 0
M  V30 17 H -1.71645 1.16711 1.21926 0
M  V30 18 H -3.18378 0.151364 0.974455 0
M  V30 19 H -2.4631 1.28272 -1.3152 0
M  V30 20 H -1.05344 1.70691 -0.528487 0
M  V30 21 H -0.0561949 -1.39286 -1.36675 0
M  V30 22 H -0.530973 -2.00441 0.213766 0
M  V30 23 H 0.700786 -1.23181 2.25021 0
M  V30 24 H 2.69089 -0.103753 3.14091 0
M  V30 25 H 4.0229 1.32119 1.70948 0
M  V30 26 H 3.44579 1.6766 -0.624256 0
M  V30 27 H 1.28715 -0.133148 -2.58438 0
M  V30 28 H 1.43842 1.61407 -2.298 0
M  V30 END ATOM
M  V30 BEGIN BOND
M  V30 1 1 1 2
M  V30 2 1 2 3
M  V30 3 1 2 4
M  V30 4 1 2 5
M  V30 5 1 5 6
M  V30 6 2 6 7
M  V30 7 1 7 8
M  V30 8 2 8 9
M  V30 9 1 9 10
M  V30 10 2 10 11
M  V30 11 1 11 12
M  V30 12 1 11 6
M  V30 13 1 1 13
M  V30 14 1 1 14
M  V30 15 1 1 15
M  V30 16 1 3 16
M  V30 17 1 3 17
M  V30 18 1 3 18
M  V30 19 1 4 19
M  V30 20 1 4 20
M  V30 21 1 5 21
M  V30 22 1 5 22
M  V30 23 1 7 23
M  V30 24 1 8 24
M  V30 25 1 9 25
M  V30 26 1 10 26
M  V30 27 1 12 27
M  V30 28 1 12 28
M  V30 END BOND
M  V30 END CTAB
M  END
