
     RDKit          3D

  0  0  0  0  0  0  0  0  0  0999 V3000
M  V30 BEGIN CTAB
M  V30 COUNTS 20 19 0 0 0
M  V30 BEGIN ATOM
M  V30 1 N 4.00916 1.43229 -0.1159 0
M  V30 2 C 3.69195 0.268511 -0.854729 0
M  V30 3 S 4.81371 -0.422724 -1.83537 0
M  V30 4 N 2.38838 -0.277835 -0.724081 0
M  V30 5 N 1.48066 0.351306 0.121608 0
M  V30 6 C 0.292147 -0.100752 0.29247 0
M  V30 7 C -0.614909 0.590182 1.18323 0
M  V30 8 N -1.80115 0.123072 1.34209 0
M  V30 9 N -2.20788 -1.02553 0.671047 0
M  V30 10 C -3.42448 -1.01766 -0.0636675 0
M  V30 11 N -4.22627 0.153219 -0.117084 0
M  V30 12 S -3.86439 -2.3843 -0.835491 0
M  V30 13 H 3.3929 2.25211 -0.176423 0
M  V30 14 H 4.85158 1.44016 0.470457 0
M  V30 15 H 2.16435 -1.13667 -1.27343 0
M  V30 16 H -0.0143274 -1.0124 -0.247034 0
M  V30 17 H -0.286712 1.47966 1.69728 0
M  V30 18 H -1.59074 -1.85423 0.739021 0
M  V30 19 H -3.79188 1.09512 -0.0585598 0
M  V30 20 H -5.26209 0.100714 -0.215441 0
M  V30 END ATOM
M  V30 BEGIN BOND
M  V30 1 1 1 2
M  V30 2 2 2 3
M  V30 3 1 2 4
M  V30 4 1 4 5
M  V30 5 2 5 6 CFG=2
M  V30 6 1 6 7
M  V30 7 2 7 8 CFG=2
M  V30 8 1 8 9
M  V30 9 1 9 10
M  V30 10 1 10 11
M  V30 11 2 10 12
M  V30 12 1 1 13
M  V30 13 1 1 14
M  V30 14 1 4 15
M  V30 15 1 6 16
M  V30 16 1 7 17
M  V30 17 1 9 18
M  V30 18 1 11 19
M  V30 19 1 11 20
M  V30 END BOND
M  V30 END CTAB
M  END
