
     RDKit          3D

  0  0  0  0  0  0  0  0  0  0999 V3000
M  V30 BEGIN CTAB
M  V30 COUNTS 24 25 0 0 0
M  V30 BEGIN ATOM
M  V30 1 N 3.49176 1.64675 -0.856957 0
M  V30 2 C 3.41765 0.364453 -0.254775 0
M  V30 3 O 4.42006 -0.391785 0.181691 0
M  V30 4 N 3.95614 -1.50261 0.672268 0
M  V30 5 C 2.61399 -1.52628 0.579147 0
M  V30 6 C 2.26354 -0.329902 -0.0153035 0
M  V30 7 N 0.909835 0.0381029 -0.295027 0
M  V30 8 N -0.0310839 -0.124606 0.517513 0
M  V30 9 C -1.38535 0.229324 0.271904 0
M  V30 10 C -1.79453 1.48951 -0.0797809 0
M  V30 11 C -3.12731 1.78682 -0.309226 0
M  V30 12 C -4.08358 0.805767 -0.186483 0
M  V30 13 C -3.70455 -0.466507 0.164539 0
M  V30 14 C -2.38968 -0.738875 0.385859 0
M  V30 15 N 1.75494 -2.56662 1.00558 0
M  V30 16 H 2.97287 1.85713 -1.73381 0
M  V30 17 H 4.06912 2.39798 -0.427466 0
M  V30 18 H -1.04186 2.28304 -0.18153 0
M  V30 19 H -3.46881 2.7725 -0.586844 0
M  V30 20 H -5.13745 0.974069 -0.351844 0
M  V30 21 H -4.43551 -1.28177 0.274088 0
M  V30 22 H -2.09474 -1.74678 0.66331 0
M  V30 23 H 1.42722 -2.66865 1.99685 0
M  V30 24 H 1.39734 -3.30108 0.336034 0
M  V30 END ATOM
M  V30 BEGIN BOND
M  V30 1 1 1 2
M  V30 2 1 2 3
M  V30 3 1 3 4
M  V30 4 2 4 5
M  V30 5 1 5 6
M  V30 6 1 6 7
M  V30 7 2 7 8
M  V30 8 1 8 9
M  V30 9 2 9 10
M  V30 10 1 10 11
M  V30 11 2 11 12
M  V30 12 1 12 13
M  V30 13 2 13 14
M  V30 14 1 5 15
M  V30 15 2 6 2
M  V30 16 1 14 9
M  V30 17 1 1 16
M  V30 18 1 1 17
M  V30 19 1 10 18
M  V30 20 1 11 19
M  V30 21 1 12 20
M  V30 22 1 13 21
M  V30 23 1 14 22
M  V30 24 1 15 23
M  V30 25 1 15 24
M  V30 END BOND
M  V30 END CTAB
M  END
