
     RDKit          3D

  0  0  0  0  0  0  0  0  0  0999 V3000
M  V30 BEGIN CTAB
M  V30 COUNTS 51 52 0 0 0
M  V30 BEGIN ATOM
M  V30 1 N -4.98716 2.13786 -0.925667 0
M  V30 2 C -4.78552 1.46802 0.316477 0
M  V30 3 C -3.54916 0.536404 0.193264 0
M  V30 4 C -3.37639 -0.133823 1.49343 0
M  V30 5 C -3.4853 -1.63442 1.46727 0
M  V30 6 C -4.68161 -1.9639 0.61148 0
M  V30 7 C -4.34979 -1.63304 -0.819859 0
M  V30 8 C -3.71609 -0.309146 -1.0152 0
M  V30 9 C -2.42502 1.52464 -0.042366 0
M  V30 10 C -1.09593 0.966227 -0.196918 0
M  V30 11 O -0.868992 -0.259321 -0.116676 0
M  V30 12 N 0.0104782 1.81891 -0.449908 0
M  V30 13 C 1.34778 1.31332 -0.60892 0
M  V30 14 C 1.88961 0.579757 0.578411 0
M  V30 15 C 3.28155 0.145919 0.203683 0
M  V30 16 C 3.47649 -1.07509 -0.400186 0
M  V30 17 C 4.74747 -1.49036 -0.751384 0
M  V30 18 C 5.79955 -0.642408 -0.475748 0
M  V30 19 C 5.63286 0.587344 0.128856 0
M  V30 20 C 4.36282 0.966254 0.462658 0
M  V30 21 S 7.41618 -1.13825 -0.90711 0
M  V30 22 O 7.39766 -1.9896 -2.14156 0
M  V30 23 O 8.21921 0.106926 -1.20283 0
M  V30 24 N 8.1208 -1.99224 0.406267 0
M  V30 25 H -4.55359 3.07477 -0.937243 0
M  V30 26 H -5.97969 2.1238 -1.20909 0
M  V30 27 H -4.44722 2.2472 1.06238 0
M  V30 28 H -5.64125 0.978171 0.758453 0
M  V30 29 H -4.19456 0.197801 2.20573 0
M  V30 30 H -2.44903 0.196766 2.03385 0
M  V30 31 H -2.57017 -2.15808 1.12707 0
M  V30 32 H -3.76066 -1.96712 2.4998 0
M  V30 33 H -4.87067 -3.05731 0.706595 0
M  V30 34 H -5.54928 -1.36946 0.908272 0
M  V30 35 H -5.284 -1.77108 -1.40431 0
M  V30 36 H -3.66548 -2.45871 -1.17461 0
M  V30 37 H -4.38374 0.265831 -1.72738 0
M  V30 38 H -2.77921 -0.423363 -1.58838 0
M  V30 39 H -2.40922 2.31364 0.749229 0
M  V30 40 H -2.76211 2.10033 -0.960378 0
M  V30 41 H -0.175793 2.84745 -0.519299 0
M  V30 42 H 1.32921 0.597194 -1.45713 0
M  V30 43 H 2.03807 2.16355 -0.805891 0
M  V30 44 H 1.97837 1.22488 1.47545 0
M  V30 45 H 1.36779 -0.340018 0.853729 0
M  V30 46 H 2.67195 -1.75512 -0.625973 0
M  V30 47 H 4.95177 -2.4272 -1.22132 0
M  V30 48 H 6.44708 1.2621 0.350973 0
M  V30 49 H 4.15694 1.90635 0.934361 0
M  V30 50 H 7.36882 -2.31452 1.03125 0
M  V30 51 H 8.78415 -1.34784 0.892935 0
M  V30 END ATOM
M  V30 BEGIN BOND
M  V30 1 1 1 2
M  V30 2 1 2 3
M  V30 3 1 3 4
M  V30 4 1 4 5
M  V30 5 1 5 6
M  V30 6 1 6 7
M  V30 7 1 7 8
M  V30 8 1 3 9
M  V30 9 1 9 10
M  V30 10 2 10 11
M  V30 11 1 10 12
M  V30 12 1 12 13
M  V30 13 1 13 14
M  V30 14 1 14 15
M  V30 15 2 15 16
M  V30 16 1 16 17
M  V30 17 2 17 18
M  V30 18 1 18 19
M  V30 19 2 19 20
M  V30 20 1 18 21
M  V30 21 2 21 22
M  V30 22 2 21 23
M  V30 23 1 21 24
M  V30 24 1 8 3
M  V30 25 1 20 15
M  V30 26 1 1 25
M  V30 27 1 1 26
M  V30 28 1 2 27
M  V30 29 1 2 28
M  V30 30 1 4 29
M  V30 31 1 4 30
M  V30 32 1 5 31
M  V30 33 1 5 32
M  V30 34 1 6 33
M  V30 35 1 6 34
M  V30 36 1 7 35
M  V30 37 1 7 36
M  V30 38 1 8 37
M  V30 39 1 8 38
M  V30 40 1 9 39
M  V30 41 1 9 40
M  V30 42 1 12 41
M  V30 43 1 13 42
M  V30 44 1 13 43
M  V30 45 1 14 44
M  V30 46 1 14 45
M  V30 47 1 16 46
M  V30 48 1 17 47
M  V30 49 1 19 48
M  V30 50 1 20 49
M  V30 51 1 24 50
M  V30 52 1 24 51
M  V30 END BOND
M  V30 END CTAB
M  END
