
     RDKit          3D

  0  0  0  0  0  0  0  0  0  0999 V3000
M  V30 BEGIN CTAB
M  V30 COUNTS 25 26 0 0 0
M  V30 BEGIN ATOM
M  V30 1 N 0.391776 2.66367 -2.69354 0
M  V30 2 C 0.00985712 2.00168 -1.824 0
M  V30 3 C -0.460832 1.14731 -0.739351 0
M  V30 4 C -1.16873 1.76699 0.186565 0
M  V30 5 N -1.46501 3.15027 0.157925 0
M  V30 6 S -1.76227 0.765203 1.5258 0
M  V30 7 C -1.69556 -0.933315 0.991034 0
M  V30 8 C -0.914682 -1.19058 -0.0435851 0
M  V30 9 C -0.107889 -0.258902 -0.793703 0
M  V30 10 C 1.34718 -0.367718 -0.411206 0
M  V30 11 C 2.41177 -0.759207 -1.1965 0
M  V30 12 O 3.51148 -0.717567 -0.48419 0
M  V30 13 C 3.24037 -0.315634 0.748104 0
M  V30 14 C 1.88167 -0.0856516 0.829278 0
M  V30 15 C -0.882648 -2.58876 -0.454656 0
M  V30 16 N -0.837422 -3.6971 -0.784536 0
M  V30 17 N -2.45932 -1.88534 1.68254 0
M  V30 18 H -1.74405 3.63346 1.03996 0
M  V30 19 H -1.42239 3.73335 -0.705436 0
M  V30 20 H -0.155683 -0.570045 -1.88089 0
M  V30 21 H 2.35975 -1.05557 -2.23575 0
M  V30 22 H 4.01289 -0.214507 1.494 0
M  V30 23 H 1.3899 0.248644 1.71617 0
M  V30 24 H -3.01651 -2.57146 1.15899 0
M  V30 25 H -2.46365 -1.89923 2.71698 0
M  V30 END ATOM
M  V30 BEGIN BOND
M  V30 1 3 1 2
M  V30 2 1 2 3
M  V30 3 2 3 4
M  V30 4 1 4 5
M  V30 5 1 4 6
M  V30 6 1 6 7
M  V30 7 2 7 8
M  V30 8 1 8 9
M  V30 9 1 9 10
M  V30 10 2 10 11
M  V30 11 1 11 12
M  V30 12 1 12 13
M  V30 13 2 13 14
M  V30 14 1 8 15
M  V30 15 3 15 16
M  V30 16 1 7 17
M  V30 17 1 9 3
M  V30 18 1 14 10
M  V30 19 1 5 18
M  V30 20 1 5 19
M  V30 21 1 9 20
M  V30 22 1 11 21
M  V30 23 1 13 22
M  V30 24 1 14 23
M  V30 25 1 17 24
M  V30 26 1 17 25
M  V30 END BOND
M  V30 END CTAB
M  END
