
     RDKit          3D

  0  0  0  0  0  0  0  0  0  0999 V3000
M  V30 BEGIN CTAB
M  V30 COUNTS 48 49 0 0 0
M  V30 BEGIN ATOM
M  V30 1 N -0.769082 -1.4597 -2.31118 0
M  V30 2 C -1.62467 -0.378556 -2.6816 0
M  V30 3 C -1.77242 0.658902 -1.58752 0
M  V30 4 C -2.36393 0.0214049 -0.330115 0
M  V30 5 C -3.6836 -0.672566 -0.698064 0
M  V30 6 C -4.52247 -0.934499 0.543219 0
M  V30 7 C -5.07984 0.41276 1.03658 0
M  V30 8 C -4.23697 1.53202 0.458358 0
M  V30 9 C -2.75198 1.21486 0.578221 0
M  V30 10 N -0.467902 1.18148 -1.39255 0
M  V30 11 C 0.416686 1.28504 -0.331055 0
M  V30 12 O 0.154609 0.836807 0.796999 0
M  V30 13 C 1.74894 1.94275 -0.462925 0
M  V30 14 C 2.64902 1.84403 0.69368 0
M  V30 15 N 3.09282 0.538056 1.08709 0
M  V30 16 N 2.54993 -0.286104 1.94512 0
M  V30 17 C 3.28416 -1.42837 2.04226 0
M  V30 18 C 4.35507 -1.30339 1.18632 0
M  V30 19 C 4.21814 -0.0723416 0.600755 0
M  V30 20 S 5.63169 -2.49706 0.916354 0
M  V30 21 O 6.15023 -2.358 -0.489608 0
M  V30 22 O 5.07868 -3.87611 1.15623 0
M  V30 23 N 6.94973 -2.23289 2.03624 0
M  V30 24 H -0.971349 -2.26845 -2.93823 0
M  V30 25 H 0.244202 -1.26389 -2.36663 0
M  V30 26 H -2.59228 -0.803187 -3.01932 0
M  V30 27 H -1.18021 0.138248 -3.56005 0
M  V30 28 H -2.53327 1.40347 -1.86042 0
M  V30 29 H -1.69362 -0.611974 0.196463 0
M  V30 30 H -4.28361 -0.0505228 -1.37378 0
M  V30 31 H -3.50983 -1.65071 -1.18224 0
M  V30 32 H -5.39101 -1.53986 0.220885 0
M  V30 33 H -3.95305 -1.37934 1.35343 0
M  V30 34 H -6.14222 0.528647 0.750077 0
M  V30 35 H -5.03816 0.386011 2.1413 0
M  V30 36 H -4.55968 1.78208 -0.559575 0
M  V30 37 H -4.39295 2.44144 1.06925 0
M  V30 38 H -2.22376 2.09266 0.179838 0
M  V30 39 H -2.54862 1.01915 1.62705 0
M  V30 40 H -0.0680607 1.6067 -2.31891 0
M  V30 41 H 2.29468 1.54464 -1.37027 0
M  V30 42 H 1.53239 3.00404 -0.72727 0
M  V30 43 H 2.12065 2.35487 1.56601 0
M  V30 44 H 3.53912 2.53619 0.54648 0
M  V30 45 H 3.06372 -2.26184 2.66943 0
M  V30 46 H 4.87349 0.359017 -0.121601 0
M  V30 47 H 7.78195 -1.85249 1.57442 0
M  V30 48 H 6.62462 -1.48341 2.71085 0
M  V30 END ATOM
M  V30 BEGIN BOND
M  V30 1 1 1 2
M  V30 2 1 2 3
M  V30 3 1 3 4
M  V30 4 1 4 5
M  V30 5 1 5 6
M  V30 6 1 6 7
M  V30 7 1 7 8
M  V30 8 1 8 9
M  V30 9 1 3 10
M  V30 10 1 10 11
M  V30 11 2 11 12
M  V30 12 1 11 13
M  V30 13 1 13 14
M  V30 14 1 14 15
M  V30 15 1 15 16
M  V30 16 2 16 17
M  V30 17 1 17 18
M  V30 18 2 18 19
M  V30 19 1 18 20
M  V30 20 2 20 21
M  V30 21 2 20 22
M  V30 22 1 20 23
M  V30 23 1 9 4
M  V30 24 1 19 15
M  V30 25 1 1 24
M  V30 26 1 1 25
M  V30 27 1 2 26
M  V30 28 1 2 27
M  V30 29 1 3 28
M  V30 30 1 4 29
M  V30 31 1 5 30
M  V30 32 1 5 31
M  V30 33 1 6 32
M  V30 34 1 6 33
M  V30 35 1 7 34
M  V30 36 1 7 35
M  V30 37 1 8 36
M  V30 38 1 8 37
M  V30 39 1 9 38
M  V30 40 1 9 39
M  V30 41 1 10 40
M  V30 42 1 13 41
M  V30 43 1 13 42
M  V30 44 1 14 43
M  V30 45 1 14 44
M  V30 46 1 17 45
M  V30 47 1 19 46
M  V30 48 1 23 47
M  V30 49 1 23 48
M  V30 END BOND
M  V30 END CTAB
M  END
