
     RDKit          3D

  0  0  0  0  0  0  0  0  0  0999 V3000
M  V30 BEGIN CTAB
M  V30 COUNTS 24 24 0 0 0
M  V30 BEGIN ATOM
M  V30 1 N -2.10934 -1.59468 -0.86751 0
M  V30 2 C -1.44766 -0.39582 -1.23481 0
M  V30 3 C -0.931792 0.265171 0.00525363 0 CFG=2
M  V30 4 C -0.208758 1.55136 -0.227617 0
M  V30 5 C 0.445877 1.78786 1.11852 0
M  V30 6 C 0.367271 0.439255 1.82148 0
M  V30 7 N -0.067888 -0.503323 0.81435 0
M  V30 8 S 1.18167 -1.3572 0.0802858 0
M  V30 9 O 1.98476 -2.02815 1.19254 0
M  V30 10 O 0.771311 -2.43553 -0.8353 0
M  V30 11 N 2.32174 -0.34094 -0.75231 0
M  V30 12 H -2.06569 -2.37224 -1.43154 0
M  V30 13 H -2.95886 -1.42297 -0.395616 0
M  V30 14 H -2.17677 0.246079 -1.77466 0
M  V30 15 H -0.603577 -0.687424 -1.88386 0
M  V30 16 H -1.82074 0.533257 0.655831 0
M  V30 17 H -0.901421 2.38796 -0.487176 0
M  V30 18 H 0.564031 1.52956 -0.997102 0
M  V30 19 H -0.165784 2.55705 1.63667 0
M  V30 20 H 1.49542 2.12809 1.01169 0
M  V30 21 H 1.29902 0.158955 2.31733 0
M  V30 22 H -0.452528 0.513901 2.57029 0
M  V30 23 H 2.17845 -0.358007 -1.78072 0
M  V30 24 H 3.30127 -0.602218 -0.556035 0
M  V30 END ATOM
M  V30 BEGIN BOND
M  V30 1 1 1 2
M  V30 2 1 2 3
M  V30 3 1 3 4
M  V30 4 1 4 5
M  V30 5 1 5 6
M  V30 6 1 6 7
M  V30 7 1 7 8
M  V30 8 2 8 9
M  V30 9 2 8 10
M  V30 10 1 8 11
M  V30 11 1 7 3
M  V30 12 1 1 12
M  V30 13 1 1 13
M  V30 14 1 2 14
M  V30 15 1 2 15
M  V30 16 1 3 16 CFG=1
M  V30 17 1 4 17
M  V30 18 1 4 18
M  V30 19 1 5 19
M  V30 20 1 5 20
M  V30 21 1 6 21
M  V30 22 1 6 22
M  V30 23 1 11 23
M  V30 24 1 11 24
M  V30 END BOND
M  V30 END CTAB
M  END
