
     RDKit          3D

  0  0  0  0  0  0  0  0  0  0999 V3000
M  V30 BEGIN CTAB
M  V30 COUNTS 29 30 0 0 0
M  V30 BEGIN ATOM
M  V30 1 C 3.67277 -0.248995 -1.33958 0
M  V30 2 N 2.55671 -0.219141 -0.392233 0
M  V30 3 N 1.26233 -0.267171 -0.757913 0
M  V30 4 C 0.472297 -0.215617 0.329451 0
M  V30 5 N 1.30285 -0.137204 1.36302 0
M  V30 6 C 2.57902 -0.141041 0.953489 0
M  V30 7 N 3.71941 -0.0830282 1.79482 0
M  V30 8 C -1.02391 -0.226968 0.346565 0
M  V30 9 N -1.45554 -1.01719 1.48498 0
M  V30 10 C -1.49664 -0.804577 -0.941159 0
M  V30 11 C -2.93669 -0.437264 -1.19773 0
M  V30 12 O -3.13062 0.916949 -1.22034 0
M  V30 13 C -2.78892 1.55946 -0.0425698 0
M  V30 14 C -1.43617 1.21455 0.443977 0
M  V30 15 H 3.7746 -1.27248 -1.72554 0
M  V30 16 H 4.58806 0.175481 -0.913115 0
M  V30 17 H 3.39733 0.393133 -2.22556 0
M  V30 18 H 4.29322 0.806621 1.92863 0
M  V30 19 H 4.07987 -0.904123 2.3303 0
M  V30 20 H -1.87953 -1.88458 1.12368 0
M  V30 21 H -2.06571 -0.424921 2.08395 0
M  V30 22 H -0.907312 -0.546526 -1.80813 0
M  V30 23 H -1.45986 -1.91516 -0.816666 0
M  V30 24 H -3.62745 -0.983636 -0.519805 0
M  V30 25 H -3.16005 -0.807051 -2.23529 0
M  V30 26 H -3.51545 1.46425 0.772013 0
M  V30 27 H -2.78892 2.65948 -0.29562 0
M  V30 28 H -1.38221 1.4981 1.52447 0
M  V30 29 H -0.64349 1.84864 -0.0480899 0
M  V30 END ATOM
M  V30 BEGIN BOND
M  V30 1 1 1 2
M  V30 2 1 2 3
M  V30 3 2 3 4
M  V30 4 1 4 5
M  V30 5 2 5 6
M  V30 6 1 6 7
M  V30 7 1 4 8
M  V30 8 1 8 9
M  V30 9 1 8 10
M  V30 10 1 10 11
M  V30 11 1 11 12
M  V30 12 1 12 13
M  V30 13 1 13 14
M  V30 14 1 6 2
M  V30 15 1 14 8
M  V30 16 1 1 15
M  V30 17 1 1 16
M  V30 18 1 1 17
M  V30 19 1 7 18
M  V30 20 1 7 19
M  V30 21 1 9 20
M  V30 22 1 9 21
M  V30 23 1 10 22
M  V30 24 1 10 23
M  V30 25 1 11 24
M  V30 26 1 11 25
M  V30 27 1 13 26
M  V30 28 1 13 27
M  V30 29 1 14 28
M  V30 30 1 14 29
M  V30 END BOND
M  V30 END CTAB
M  END
