
     RDKit          3D

  0  0  0  0  0  0  0  0  0  0999 V3000
M  V30 BEGIN CTAB
M  V30 COUNTS 37 38 0 0 0
M  V30 BEGIN ATOM
M  V30 1 C -0.93332 -2.24442 1.22606 0
M  V30 2 C -1.6184 -1.10505 0.580368 0
M  V30 3 C -3.01922 -1.233 0.537606 0
M  V30 4 C -3.77527 -0.234824 0.0278583 0
M  V30 5 C -3.15491 0.896893 -0.44202 0
M  V30 6 C -1.75751 1.01391 -0.394483 0
M  V30 7 C -1.24452 2.31995 -0.878034 0
M  V30 8 C -0.981648 -0.0016018 0.120707 0
M  V30 9 N 0.43517 0.110096 0.158262 0
M  V30 10 C 0.95276 0.71519 1.37483 0
M  V30 11 N 0.0142144 1.0916 2.40462 0
M  V30 12 N 2.20156 0.919838 1.5544 0
M  V30 13 C 3.12667 0.542698 0.537344 0
M  V30 14 N 4.49504 0.793595 0.776449 0
M  V30 15 N 2.75222 6.14836e-05 -0.549973 0
M  V30 16 C 1.35835 -0.282969 -0.8428 0
M  V30 17 C 1.03259 0.245334 -2.25217 0
M  V30 18 C 1.40111 -1.81842 -1.07954 0
M  V30 19 H -1.54061 -2.62688 2.10495 0
M  V30 20 H -0.915053 -3.08217 0.528912 0
M  V30 21 H 0.039057 -1.97426 1.68803 0
M  V30 22 H -3.52696 -2.11911 0.904993 0
M  V30 23 H -4.86753 -0.343774 -0.00315432 0
M  V30 24 H -3.75866 1.69965 -0.850772 0
M  V30 25 H -1.30302 2.30592 -1.98461 0
M  V30 26 H -1.9738 3.12963 -0.585425 0
M  V30 27 H -0.226629 2.5585 -0.586754 0
M  V30 28 H -0.690284 1.81808 2.27626 0
M  V30 29 H 0.0847534 0.58196 3.3046 0
M  V30 30 H 5.13385 0.0797874 1.13733 0
M  V30 31 H 4.87123 1.75545 0.574339 0
M  V30 32 H 1.68988 -0.352854 -2.93905 0
M  V30 33 H -0.00272409 -0.00350813 -2.45859 0
M  V30 34 H 1.21415 1.30423 -2.36954 0
M  V30 35 H 2.18957 -1.97192 -1.8858 0
M  V30 36 H 0.487896 -2.19575 -1.51711 0
M  V30 37 H 1.80998 -2.29186 -0.198101 0
M  V30 END ATOM
M  V30 BEGIN BOND
M  V30 1 1 1 2
M  V30 2 2 2 3
M  V30 3 1 3 4
M  V30 4 2 4 5
M  V30 5 1 5 6
M  V30 6 1 6 7
M  V30 7 2 6 8
M  V30 8 1 8 9
M  V30 9 1 9 10
M  V30 10 1 10 11
M  V30 11 2 10 12
M  V30 12 1 12 13
M  V30 13 1 13 14
M  V30 14 2 13 15
M  V30 15 1 15 16
M  V30 16 1 16 17
M  V30 17 1 16 18
M  V30 18 1 8 2
M  V30 19 1 16 9
M  V30 20 1 1 19
M  V30 21 1 1 20
M  V30 22 1 1 21
M  V30 23 1 3 22
M  V30 24 1 4 23
M  V30 25 1 5 24
M  V30 26 1 7 25
M  V30 27 1 7 26
M  V30 28 1 7 27
M  V30 29 1 11 28
M  V30 30 1 11 29
M  V30 31 1 14 30
M  V30 32 1 14 31
M  V30 33 1 17 32
M  V30 34 1 17 33
M  V30 35 1 17 34
M  V30 36 1 18 35
M  V30 37 1 18 36
M  V30 38 1 18 37
M  V30 END BOND
M  V30 END CTAB
M  END
