
     RDKit          3D

  0  0  0  0  0  0  0  0  0  0999 V3000
M  V30 BEGIN CTAB
M  V30 COUNTS 24 24 0 0 0
M  V30 BEGIN ATOM
M  V30 1 N 3.67864 1.42876 -0.10455 0
M  V30 2 N 2.40288 1.51917 0.4903 0
M  V30 3 C 1.69505 0.445444 0.608788 0
M  V30 4 N 0.411956 0.480489 1.19654 0
M  V30 5 C -0.660187 -0.195245 0.575345 0
M  V30 6 C -1.47186 0.417852 -0.359389 0
M  V30 7 C -1.20734 1.84132 -0.725122 0
M  V30 8 C -2.51212 -0.274991 -0.94673 0
M  V30 9 C -2.7922 -1.58908 -0.639228 0
M  V30 10 C -1.9834 -2.20542 0.29443 0
M  V30 11 C -0.941553 -1.52498 0.888238 0
M  V30 12 Cl 0.0919182 -2.28897 2.0715 0
M  V30 13 N 2.24676 -0.789377 0.126481 0
M  V30 14 H 3.88052 0.680735 -0.821557 0
M  V30 15 H 4.43801 2.07616 0.136668 0
M  V30 16 H 0.263983 0.997558 2.07373 0
M  V30 17 H -0.222287 1.92145 -1.22719 0
M  V30 18 H -1.97355 2.19788 -1.42348 0
M  V30 19 H -1.26144 2.49969 0.181499 0
M  V30 20 H -3.14534 0.21423 -1.68047 0
M  V30 21 H -3.61856 -2.10133 -1.12157 0
M  V30 22 H -2.18237 -3.23629 0.553075 0
M  V30 23 H 3.13356 -1.1848 0.46949 0
M  V30 24 H 1.72894 -1.33025 -0.616803 0
M  V30 END ATOM
M  V30 BEGIN BOND
M  V30 1 1 1 2
M  V30 2 2 2 3
M  V30 3 1 3 4
M  V30 4 1 4 5
M  V30 5 2 5 6
M  V30 6 1 6 7
M  V30 7 1 6 8
M  V30 8 2 8 9
M  V30 9 1 9 10
M  V30 10 2 10 11
M  V30 11 1 11 12
M  V30 12 1 3 13
M  V30 13 1 11 5
M  V30 14 1 1 14
M  V30 15 1 1 15
M  V30 16 1 4 16
M  V30 17 1 7 17
M  V30 18 1 7 18
M  V30 19 1 7 19
M  V30 20 1 8 20
M  V30 21 1 9 21
M  V30 22 1 10 22
M  V30 23 1 13 23
M  V30 24 1 13 24
M  V30 END BOND
M  V30 END CTAB
M  END
