
     RDKit          3D

  0  0  0  0  0  0  0  0  0  0999 V3000
M  V30 BEGIN CTAB
M  V30 COUNTS 27 28 0 0 0
M  V30 BEGIN ATOM
M  V30 1 N 4.17055 -1.55148 -0.382302 0
M  V30 2 C 2.92005 -0.886312 -0.244299 0
M  V30 3 N 2.69986 0.324006 -0.791748 0
M  V30 4 C 1.54009 0.985117 -0.686836 0
M  V30 5 N 1.3144 2.26425 -1.26816 0
M  V30 6 C 0.520129 0.41867 0.00577068 0
M  V30 7 C 0.70007 -0.81227 0.57963 0
M  V30 8 N 1.88461 -1.41703 0.435629 0
M  V30 9 C -0.365174 -1.48669 1.34658 0
M  V30 10 C -1.74812 -1.16962 0.88767 0
M  V30 11 C -1.84638 -0.0131507 -0.0559596 0
M  V30 12 C -0.811795 1.05378 0.191518 0
M  V30 13 C -3.18313 0.630611 0.0352762 0
M  V30 14 O -4.07573 0.213066 0.821924 0
M  V30 15 O -3.44147 1.72527 -0.778017 0
M  V30 16 H 5.03483 -0.988874 -0.540272 0
M  V30 17 H 4.27147 -2.57472 -0.334075 0
M  V30 18 H 1.02173 2.3289 -2.26801 0
M  V30 19 H 1.44142 3.11506 -0.69865 0
M  V30 20 H -0.224515 -1.16605 2.41775 0
M  V30 21 H -0.170622 -2.57815 1.32625 0
M  V30 22 H -2.42926 -0.96162 1.75677 0
M  V30 23 H -2.18079 -2.05799 0.380798 0
M  V30 24 H -1.71001 -0.37 -1.09803 0
M  V30 25 H -0.93166 1.41954 1.2387 0
M  V30 26 H -0.998945 1.87901 -0.4883 0
M  V30 27 H -3.40161 1.67667 -1.78961 0
M  V30 END ATOM
M  V30 BEGIN BOND
M  V30 1 1 1 2
M  V30 2 2 2 3
M  V30 3 1 3 4
M  V30 4 1 4 5
M  V30 5 2 4 6
M  V30 6 1 6 7
M  V30 7 2 7 8
M  V30 8 1 7 9
M  V30 9 1 9 10
M  V30 10 1 10 11
M  V30 11 1 11 12
M  V30 12 1 11 13
M  V30 13 2 13 14
M  V30 14 1 13 15
M  V30 15 1 8 2
M  V30 16 1 12 6
M  V30 17 1 1 16
M  V30 18 1 1 17
M  V30 19 1 5 18
M  V30 20 1 5 19
M  V30 21 1 9 20
M  V30 22 1 9 21
M  V30 23 1 10 22
M  V30 24 1 10 23
M  V30 25 1 11 24
M  V30 26 1 12 25
M  V30 27 1 12 26
M  V30 28 1 15 27
M  V30 END BOND
M  V30 END CTAB
M  END
