
     RDKit          3D

  0  0  0  0  0  0  0  0  0  0999 V3000
M  V30 BEGIN CTAB
M  V30 COUNTS 24 24 0 0 0
M  V30 BEGIN ATOM
M  V30 1 N -3.94992 -1.55477 -0.946696 0
M  V30 2 C -2.8302 -0.764162 -0.512017 0
M  V30 3 C -1.60384 -1.31873 -0.25797 0
M  V30 4 C -0.525296 -0.517636 0.16692 0
M  V30 5 O 0.644794 -1.08547 0.405422 0
M  V30 6 C 1.90888 -0.825957 0.792479 0
M  V30 7 C 2.64061 0.0892845 -0.152033 0
M  V30 8 F 1.99889 1.29074 -0.228514 0
M  V30 9 F 2.57361 -0.504975 -1.40887 0
M  V30 10 C 4.0838 0.296016 0.265527 0
M  V30 11 N -0.811231 0.773476 0.289297 0
M  V30 12 C -1.98689 1.36416 0.0549842 0
M  V30 13 N -2.99197 0.55969 -0.350023 0
M  V30 14 N -2.20282 2.77073 0.214843 0
M  V30 15 H -4.64344 -1.80373 -0.209203 0
M  V30 16 H -4.0396 -1.84587 -1.93411 0
M  V30 17 H -1.49498 -2.38226 -0.393972 0
M  V30 18 H 1.96583 -0.412123 1.84459 0
M  V30 19 H 2.55221 -1.75797 0.868669 0
M  V30 20 H 4.16256 0.375054 1.36754 0
M  V30 21 H 4.66455 -0.553156 -0.127128 0
M  V30 22 H 4.43334 1.23342 -0.207839 0
M  V30 23 H -2.41707 3.22455 1.10685 0
M  V30 24 H -2.13182 3.34969 -0.64874 0
M  V30 END ATOM
M  V30 BEGIN BOND
M  V30 1 1 1 2
M  V30 2 2 2 3
M  V30 3 1 3 4
M  V30 4 1 4 5
M  V30 5 1 5 6
M  V30 6 1 6 7
M  V30 7 1 7 8
M  V30 8 1 7 9
M  V30 9 1 7 10
M  V30 10 2 4 11
M  V30 11 1 11 12
M  V30 12 2 12 13
M  V30 13 1 12 14
M  V30 14 1 13 2
M  V30 15 1 1 15
M  V30 16 1 1 16
M  V30 17 1 3 17
M  V30 18 1 6 18
M  V30 19 1 6 19
M  V30 20 1 10 20
M  V30 21 1 10 21
M  V30 22 1 10 22
M  V30 23 1 14 23
M  V30 24 1 14 24
M  V30 END BOND
M  V30 END CTAB
M  END
