
     RDKit          3D

  0  0  0  0  0  0  0  0  0  0999 V3000
M  V30 BEGIN CTAB
M  V30 COUNTS 28 28 0 0 0
M  V30 BEGIN ATOM
M  V30 1 N 3.38196 -0.665454 0.176719 0
M  V30 2 C 2.5444 0.278449 -0.532373 0
M  V30 3 C 1.25301 0.482022 0.272869 0
M  V30 4 C 0.33358 1.44776 -0.398615 0
M  V30 5 C -0.911028 0.809556 -0.958864 0
M  V30 6 C -1.65251 -0.021777 0.0413759 0
M  V30 7 C -0.769516 -0.86511 0.903005 0
M  V30 8 C 0.666676 -0.873553 0.500484 0
M  V30 9 C -2.61888 -0.910869 -0.753061 0
M  V30 10 N -2.45399 0.820004 0.942462 0
M  V30 11 H 4.34751 -0.650112 -0.219331 0
M  V30 12 H 3.43068 -0.485331 1.18856 0
M  V30 13 H 3.06109 1.2429 -0.687327 0
M  V30 14 H 2.28444 -0.134332 -1.53175 0
M  V30 15 H 1.57066 0.930599 1.2483 0
M  V30 16 H 0.0799129 2.33683 0.239135 0
M  V30 17 H 0.889461 1.87638 -1.2808 0
M  V30 18 H -1.54385 1.57014 -1.3984 0
M  V30 19 H -0.574824 0.122126 -1.77611 0
M  V30 20 H -1.13173 -1.92481 0.864241 0
M  V30 21 H -0.81849 -0.578734 1.98665 0
M  V30 22 H 0.84003 -1.48472 -0.424423 0
M  V30 23 H 1.24338 -1.3496 1.3349 0
M  V30 24 H -3.45674 -0.247583 -1.04991 0
M  V30 25 H -2.93973 -1.77538 -0.172014 0
M  V30 26 H -2.07415 -1.3022 -1.65869 0
M  V30 27 H -3.15042 0.190033 1.42239 0
M  V30 28 H -1.83093 1.16276 1.72058 0
M  V30 END ATOM
M  V30 BEGIN BOND
M  V30 1 1 1 2
M  V30 2 1 2 3
M  V30 3 1 3 4
M  V30 4 1 4 5
M  V30 5 1 5 6
M  V30 6 1 6 7
M  V30 7 1 7 8
M  V30 8 1 6 9
M  V30 9 1 6 10
M  V30 10 1 8 3
M  V30 11 1 1 11
M  V30 12 1 1 12
M  V30 13 1 2 13
M  V30 14 1 2 14
M  V30 15 1 3 15
M  V30 16 1 4 16
M  V30 17 1 4 17
M  V30 18 1 5 18
M  V30 19 1 5 19
M  V30 20 1 7 20
M  V30 21 1 7 21
M  V30 22 1 8 22
M  V30 23 1 8 23
M  V30 24 1 9 24
M  V30 25 1 9 25
M  V30 26 1 9 26
M  V30 27 1 10 27
M  V30 28 1 10 28
M  V30 END BOND
M  V30 END CTAB
M  END
