
     RDKit          3D

  0  0  0  0  0  0  0  0  0  0999 V3000
M  V30 BEGIN CTAB
M  V30 COUNTS 25 26 0 0 0
M  V30 BEGIN ATOM
M  V30 1 N 3.86864 -1.33836 -0.222489 0
M  V30 2 C 2.94681 -0.232882 -0.107305 0
M  V30 3 C 3.42045 1.06001 -0.0151378 0
M  V30 4 C 2.52682 2.09428 0.0934675 0
M  V30 5 N 1.20784 1.86858 0.111259 0
M  V30 6 C 0.690824 0.606955 0.0228244 0
M  V30 7 C 1.59231 -0.425203 -0.0858214 0
M  V30 8 C -0.765529 0.420847 0.0475676 0
M  V30 9 C -1.57056 1.52124 0.159061 0
M  V30 10 C -2.94865 1.40483 0.187297 0
M  V30 11 C -3.52892 0.141182 0.100423 0
M  V30 12 C -2.73372 -0.980072 -0.0124987 0
M  V30 13 C -1.33783 -0.800071 -0.0360454 0
M  V30 14 N -3.29419 -2.28456 -0.103252 0
M  V30 15 H 4.85584 -1.13896 -0.412816 0
M  V30 16 H 3.494 -2.30456 -0.107141 0
M  V30 17 H 4.49172 1.19391 -0.033613 0
M  V30 18 H 2.94402 3.11003 0.164641 0
M  V30 19 H 1.23212 -1.42343 -0.157127 0
M  V30 20 H -1.14361 2.52729 0.229188 0
M  V30 21 H -3.59854 2.26592 0.275086 0
M  V30 22 H -4.59954 -0.0118309 0.117263 0
M  V30 23 H -0.741412 -1.69642 -0.125233 0
M  V30 24 H -4.11796 -2.58284 0.463097 0
M  V30 25 H -2.89092 -2.99589 -0.75106 0
M  V30 END ATOM
M  V30 BEGIN BOND
M  V30 1 1 1 2
M  V30 2 2 2 3
M  V30 3 1 3 4
M  V30 4 2 4 5
M  V30 5 1 5 6
M  V30 6 2 6 7
M  V30 7 1 6 8
M  V30 8 2 8 9
M  V30 9 1 9 10
M  V30 10 2 10 11
M  V30 11 1 11 12
M  V30 12 2 12 13
M  V30 13 1 12 14
M  V30 14 1 7 2
M  V30 15 1 13 8
M  V30 16 1 1 15
M  V30 17 1 1 16
M  V30 18 1 3 17
M  V30 19 1 4 18
M  V30 20 1 7 19
M  V30 21 1 9 20
M  V30 22 1 10 21
M  V30 23 1 11 22
M  V30 24 1 13 23
M  V30 25 1 14 24
M  V30 26 1 14 25
M  V30 END BOND
M  V30 END CTAB
M  END
