
     RDKit          3D

  0  0  0  0  0  0  0  0  0  0999 V3000
M  V30 BEGIN CTAB
M  V30 COUNTS 36 36 0 0 0
M  V30 BEGIN ATOM
M  V30 1 C -2.25226 -3.72968 -1.0562 0
M  V30 2 C -2.93328 -2.65721 -0.682062 0
M  V30 3 C -2.47924 -1.30703 -1.08987 0
M  V30 4 N -2.19223 -0.467935 0.0890397 0
M  V30 5 C -0.891108 -0.47468 0.642267 0
M  V30 6 O -0.0222832 -1.23436 0.0805891 0
M  V30 7 C -0.455514 0.320755 1.81544 0
M  V30 8 S 0.451153 1.79889 1.27423 0
M  V30 9 C 1.98376 1.25107 0.538142 0
M  V30 10 N 2.13711 0.936825 -0.747352 0
M  V30 11 C 3.32497 0.531464 -1.28095 0
M  V30 12 N 3.42359 0.205446 -2.66187 0
M  V30 13 C 4.40219 0.453134 -0.425551 0
M  V30 14 C 4.27681 0.776211 0.929966 0
M  V30 15 N 3.06 1.15949 1.33151 0
M  V30 16 N 5.39757 0.688191 1.78434 0
M  V30 17 C -3.31039 0.310236 0.586552 0
M  V30 18 C -3.33491 1.61813 -0.110697 0
M  V30 19 C -3.24653 2.77433 0.528773 0
M  V30 20 H -2.60253 -4.7114 -0.746118 0
M  V30 21 H -1.36621 -3.6146 -1.66426 0
M  V30 22 H -3.8148 -2.74447 -0.0855674 0
M  V30 23 H -1.6077 -1.31601 -1.75857 0
M  V30 24 H -3.31753 -0.859223 -1.67683 0
M  V30 25 H 0.179276 -0.330295 2.45635 0
M  V30 26 H -1.3366 0.577088 2.42337 0
M  V30 27 H 2.57449 0.0290596 -3.23578 0
M  V30 28 H 4.34431 0.142235 -3.10229 0
M  V30 29 H 5.35651 0.141023 -0.790116 0
M  V30 30 H 6.22189 0.125382 1.52429 0
M  V30 31 H 5.39124 1.19427 2.68289 0
M  V30 32 H -4.2758 -0.246572 0.378843 0
M  V30 33 H -3.23414 0.505847 1.66246 0
M  V30 34 H -3.43239 1.62513 -1.20092 0
M  V30 35 H -3.15086 2.8016 1.60728 0
M  V30 36 H -3.26858 3.72765 -0.0213256 0
M  V30 END ATOM
M  V30 BEGIN BOND
M  V30 1 2 1 2 CFG=2
M  V30 2 1 2 3
M  V30 3 1 3 4
M  V30 4 1 4 5
M  V30 5 2 5 6
M  V30 6 1 5 7
M  V30 7 1 7 8
M  V30 8 1 8 9
M  V30 9 2 9 10
M  V30 10 1 10 11
M  V30 11 1 11 12
M  V30 12 2 11 13
M  V30 13 1 13 14
M  V30 14 2 14 15
M  V30 15 1 14 16
M  V30 16 1 4 17
M  V30 17 1 17 18
M  V30 18 2 18 19 CFG=2
M  V30 19 1 15 9
M  V30 20 1 1 20
M  V30 21 1 1 21
M  V30 22 1 2 22
M  V30 23 1 3 23
M  V30 24 1 3 24
M  V30 25 1 7 25
M  V30 26 1 7 26
M  V30 27 1 12 27
M  V30 28 1 12 28
M  V30 29 1 13 29
M  V30 30 1 16 30
M  V30 31 1 16 31
M  V30 32 1 17 32
M  V30 33 1 17 33
M  V30 34 1 18 34
M  V30 35 1 19 35
M  V30 36 1 19 36
M  V30 END BOND
M  V30 END CTAB
M  END
