
     RDKit          3D

  0  0  0  0  0  0  0  0  0  0999 V3000
M  V30 BEGIN CTAB
M  V30 COUNTS 33 33 0 0 0
M  V30 BEGIN ATOM
M  V30 1 N -3.05679 1.46578 0.936167 0
M  V30 2 C -3.73484 0.781122 -0.111585 0
M  V30 3 C -2.89168 0.419979 -1.27652 0
M  V30 4 N -1.75481 -0.463208 -0.947689 0
M  V30 5 C -0.531802 0.170596 -0.62621 0
M  V30 6 S -0.513608 1.81732 -0.87785 0
M  V30 7 N 0.571983 -0.474125 -0.0571799 0
M  V30 8 C 1.84272 -0.0157908 0.286446 0
M  V30 9 C 2.37675 1.20481 -0.0289803 0
M  V30 10 C 3.68109 1.57083 0.338371 0
M  V30 11 C 4.47081 0.69645 1.03672 0
M  V30 12 C 3.96991 -0.543272 1.37297 0
M  V30 13 C 2.68947 -0.882596 1.00412 0
M  V30 14 Cl 2.10985 -2.47624 1.46645 0
M  V30 15 N 5.78915 1.06599 1.4082 0
M  V30 16 C -1.95778 -1.84946 -0.949269 0
M  V30 17 O -1.04693 -2.66499 -0.713947 0
M  V30 18 C -3.32201 -2.42009 -1.24448 0
M  V30 19 H -3.11523 1.04325 1.86873 0
M  V30 20 H -3.20764 2.47786 0.890092 0
M  V30 21 H -4.53001 1.48577 -0.516969 0
M  V30 22 H -4.34421 -0.0491015 0.317126 0
M  V30 23 H -3.48953 -0.00480524 -2.11094 0
M  V30 24 H -2.45991 1.35242 -1.68551 0
M  V30 25 H 0.408457 -1.50781 0.175724 0
M  V30 26 H 1.84144 1.94598 -0.585995 0
M  V30 27 H 4.07799 2.54711 0.0745661 0
M  V30 28 H 4.60931 -1.23349 1.93041 0
M  V30 29 H 6.56529 0.418043 1.21507 0
M  V30 30 H 5.94136 1.97587 1.86373 0
M  V30 31 H -3.2961 -3.04 -2.16061 0
M  V30 32 H -4.11361 -1.69666 -1.32972 0
M  V30 33 H -3.57909 -3.11754 -0.394771 0
M  V30 END ATOM
M  V30 BEGIN BOND
M  V30 1 1 1 2
M  V30 2 1 2 3
M  V30 3 1 3 4
M  V30 4 1 4 5
M  V30 5 2 5 6
M  V30 6 1 5 7
M  V30 7 1 7 8
M  V30 8 2 8 9
M  V30 9 1 9 10
M  V30 10 2 10 11
M  V30 11 1 11 12
M  V30 12 2 12 13
M  V30 13 1 13 14
M  V30 14 1 11 15
M  V30 15 1 4 16
M  V30 16 2 16 17
M  V30 17 1 16 18
M  V30 18 1 13 8
M  V30 19 1 1 19
M  V30 20 1 1 20
M  V30 21 1 2 21
M  V30 22 1 2 22
M  V30 23 1 3 23
M  V30 24 1 3 24
M  V30 25 1 7 25
M  V30 26 1 9 26
M  V30 27 1 10 27
M  V30 28 1 12 28
M  V30 29 1 15 29
M  V30 30 1 15 30
M  V30 31 1 18 31
M  V30 32 1 18 32
M  V30 33 1 18 33
M  V30 END BOND
M  V30 END CTAB
M  END
