
     RDKit          3D

  0  0  0  0  0  0  0  0  0  0999 V3000
M  V30 BEGIN CTAB
M  V30 COUNTS 21 21 0 0 0
M  V30 BEGIN ATOM
M  V30 1 Br 4.33622 -1.59406 -0.43513 0
M  V30 2 C 2.40045 -1.46828 -0.49741 0
M  V30 3 C 1.94868 -0.167987 0.0498232 0
M  V30 4 O 2.79041 0.639968 0.458094 0
M  V30 5 C 0.522087 0.104599 0.0835723 0
M  V30 6 C -0.395529 -0.815432 -0.37896 0
M  V30 7 C -1.74938 -0.56207 -0.349335 0
M  V30 8 N -2.71262 -1.49757 -0.821471 0
M  V30 9 C -2.14829 0.665753 0.169152 0
M  V30 10 C -1.23539 1.57567 0.626917 0
M  V30 11 C 0.120432 1.32535 0.598764 0
M  V30 12 N 1.0997 2.23978 1.06256 0
M  V30 13 I -4.20847 1.06211 0.219017 0
M  V30 14 H 2.06331 -1.59771 -1.5668 0
M  V30 15 H 1.99006 -2.26261 0.160419 0
M  V30 16 H -0.0538073 -1.75911 -0.77532 0
M  V30 17 H -2.93845 -2.39918 -0.361975 0
M  V30 18 H -3.2254 -1.25537 -1.69142 0
M  V30 19 H -1.55401 2.54252 1.03488 0
M  V30 20 H 1.56699 2.21269 1.99168 0
M  V30 21 H 1.383 3.01093 0.42294 0
M  V30 END ATOM
M  V30 BEGIN BOND
M  V30 1 1 1 2
M  V30 2 1 2 3
M  V30 3 2 3 4
M  V30 4 1 3 5
M  V30 5 2 5 6
M  V30 6 1 6 7
M  V30 7 1 7 8
M  V30 8 2 7 9
M  V30 9 1 9 10
M  V30 10 2 10 11
M  V30 11 1 11 12
M  V30 12 1 9 13
M  V30 13 1 11 5
M  V30 14 1 2 14
M  V30 15 1 2 15
M  V30 16 1 6 16
M  V30 17 1 8 17
M  V30 18 1 8 18
M  V30 19 1 10 19
M  V30 20 1 12 20
M  V30 21 1 12 21
M  V30 END BOND
M  V30 END CTAB
M  END
