
     RDKit          3D

  0  0  0  0  0  0  0  0  0  0999 V3000
M  V30 BEGIN CTAB
M  V30 COUNTS 34 35 0 0 0
M  V30 BEGIN ATOM
M  V30 1 N 4.03983 0.206819 -2.03452 0
M  V30 2 C 2.95489 0.891841 -1.35418 0
M  V30 3 C 2.09634 -0.161327 -0.711866 0
M  V30 4 N 0.970802 0.371171 0.00447358 0
M  V30 5 C 1.33269 1.10385 1.19032 0
M  V30 6 C 1.39756 0.00784981 2.26469 0
M  V30 7 C 0.0942163 -0.730394 1.93465 0
M  V30 8 C 0.138429 -0.727375 0.428582 0 CFG=1
M  V30 9 C -1.23643 -0.634015 -0.112633 0
M  V30 10 C -1.82601 -1.77539 -0.602285 0
M  V30 11 C -3.10271 -1.78969 -1.12887 0
M  V30 12 C -3.81495 -0.613364 -1.16525 0
M  V30 13 C -3.26374 0.556035 -0.685346 0
M  V30 14 C -1.96829 0.528724 -0.160303 0
M  V30 15 N -3.9678 1.77784 -0.709401 0
M  V30 16 H 4.33351 -0.679006 -1.56828 0
M  V30 17 H 4.87705 0.846445 -2.0845 0
M  V30 18 H 2.42171 1.476 -2.13276 0
M  V30 19 H 3.40737 1.52054 -0.581508 0
M  V30 20 H 1.72746 -0.835313 -1.50765 0
M  V30 21 H 2.77081 -0.746719 -0.0479821 0
M  V30 22 H 2.26606 1.66195 1.12379 0
M  V30 23 H 0.471033 1.74389 1.46979 0
M  V30 24 H 2.23598 -0.678442 2.06431 0
M  V30 25 H 1.39385 0.462987 3.2555 0
M  V30 26 H -0.775613 -0.141694 2.27018 0
M  V30 27 H 0.129998 -1.75871 2.35571 0
M  V30 28 H 0.58515 -1.71465 0.129528 0
M  V30 29 H -1.30237 -2.7445 -0.598734 0
M  V30 30 H -3.53835 -2.7259 -1.51067 0
M  V30 31 H -4.82187 -0.631157 -1.58222 0
M  V30 32 H -1.54346 1.43549 0.210265 0
M  V30 33 H -3.48856 2.68867 -0.551575 0
M  V30 34 H -4.99461 1.80754 -0.887719 0
M  V30 END ATOM
M  V30 BEGIN BOND
M  V30 1 1 1 2
M  V30 2 1 2 3
M  V30 3 1 3 4
M  V30 4 1 4 5
M  V30 5 1 5 6
M  V30 6 1 6 7
M  V30 7 1 7 8
M  V30 8 1 8 9
M  V30 9 2 9 10
M  V30 10 1 10 11
M  V30 11 2 11 12
M  V30 12 1 12 13
M  V30 13 2 13 14
M  V30 14 1 13 15
M  V30 15 1 8 4
M  V30 16 1 14 9
M  V30 17 1 1 16
M  V30 18 1 1 17
M  V30 19 1 2 18
M  V30 20 1 2 19
M  V30 21 1 3 20
M  V30 22 1 3 21
M  V30 23 1 5 22
M  V30 24 1 5 23
M  V30 25 1 6 24
M  V30 26 1 6 25
M  V30 27 1 7 26
M  V30 28 1 7 27
M  V30 29 1 8 28 CFG=3
M  V30 30 1 10 29
M  V30 31 1 11 30
M  V30 32 1 12 31
M  V30 33 1 14 32
M  V30 34 1 15 33
M  V30 35 1 15 34
M  V30 END BOND
M  V30 END CTAB
M  END
