
     RDKit          3D

  0  0  0  0  0  0  0  0  0  0999 V3000
M  V30 BEGIN CTAB
M  V30 COUNTS 25 26 0 0 0
M  V30 BEGIN ATOM
M  V30 1 Cl 1.42707 2.1162 1.66175 0
M  V30 2 C 2.31491 0.962136 0.710176 0
M  V30 3 C 3.67994 0.771216 0.842969 0
M  V30 4 C 4.36181 -0.148813 0.078175 0
M  V30 5 C 3.6966 -0.923763 -0.861336 0
M  V30 6 C 2.33657 -0.721453 -0.981456 0
M  V30 7 C 1.64554 0.193859 -0.223598 0
M  V30 8 N 0.231128 0.326587 -0.426801 0
M  V30 9 N -0.620918 -0.27626 0.270943 0
M  V30 10 C -2.02211 -0.180759 0.112867 0
M  V30 11 C -2.86325 -1.25599 -0.100871 0
M  V30 12 N -2.48182 -2.63449 -0.19977 0
M  V30 13 N -4.09594 -0.727161 -0.193257 0
M  V30 14 N -4.08425 0.584009 -0.0542669 0
M  V30 15 C -2.80303 0.941999 0.137002 0
M  V30 16 N -2.37248 2.28271 0.329341 0
M  V30 17 H 4.19944 1.38565 1.586 0
M  V30 18 H 5.4292 -0.244825 0.235711 0
M  V30 19 H 4.22259 -1.65064 -1.46859 0
M  V30 20 H 1.7934 -1.32103 -1.71514 0
M  V30 21 H -2.90107 -3.26323 -0.913238 0
M  V30 22 H -1.76967 -3.01803 0.4555 0
M  V30 23 H -4.89204 1.2602 -0.0802185 0
M  V30 24 H -2.4419 2.97148 -0.449683 0
M  V30 25 H -1.98971 2.57041 1.2478 0
M  V30 END ATOM
M  V30 BEGIN BOND
M  V30 1 1 1 2
M  V30 2 2 2 3
M  V30 3 1 3 4
M  V30 4 2 4 5
M  V30 5 1 5 6
M  V30 6 2 6 7
M  V30 7 1 7 8
M  V30 8 2 8 9
M  V30 9 1 9 10
M  V30 10 1 10 11
M  V30 11 1 11 12
M  V30 12 2 11 13
M  V30 13 1 13 14
M  V30 14 1 14 15
M  V30 15 1 15 16
M  V30 16 1 7 2
M  V30 17 2 15 10
M  V30 18 1 3 17
M  V30 19 1 4 18
M  V30 20 1 5 19
M  V30 21 1 6 20
M  V30 22 1 12 21
M  V30 23 1 12 22
M  V30 24 1 14 23
M  V30 25 1 16 24
M  V30 26 1 16 25
M  V30 END BOND
M  V30 END CTAB
M  END
