
     RDKit          3D

  0  0  0  0  0  0  0  0  0  0999 V3000
M  V30 BEGIN CTAB
M  V30 COUNTS 44 47 0 0 0
M  V30 BEGIN ATOM
M  V30 1 C 5.83656 1.05341 -1.71024 0
M  V30 2 C 5.15945 2.3721 -1.36263 0
M  V30 3 O 4.29306 2.17641 -0.24919 0
M  V30 4 C 3.24013 1.27456 -0.318973 0
M  V30 5 O 3.07558 0.644467 -1.37815 0
M  V30 6 C 2.39145 1.13732 0.88848 0
M  V30 7 C 3.18665 0.682067 2.09062 0
M  V30 8 N 1.26263 0.2383 0.63445 0
M  V30 9 N -0.0134908 0.551743 0.699339 0
M  V30 10 C -0.803362 -0.507337 0.40884 0
M  V30 11 C 0.0490732 -1.53758 0.146705 0
M  V30 12 C -0.164692 -2.84282 -0.216242 0
M  V30 13 N -1.4666 -3.3577 -0.406981 0
M  V30 14 N 0.908177 -3.6466 -0.424007 0
M  V30 15 C 2.13626 -3.16937 -0.277414 0
M  V30 16 N 2.3547 -1.90077 0.0734374 0
M  V30 17 C 1.34074 -1.04822 0.294966 0
M  V30 18 C -2.24387 -0.390466 0.397582 0
M  V30 19 C -2.83957 0.569529 -0.390443 0
M  V30 20 C -4.20361 0.763128 -0.405403 0
M  V30 21 C -5.01689 -0.0183752 0.386371 0
M  V30 22 O -6.2599 0.377596 0.176224 0
M  V30 23 C -6.29896 1.36089 -0.697339 0
M  V30 24 N -7.43812 2.05971 -1.18991 0
M  V30 25 N -5.01762 1.60336 -1.06176 0
M  V30 26 C -4.44824 -0.985162 1.18416 0
M  V30 27 C -3.06122 -1.15831 1.17876 0
M  V30 28 H 6.90247 1.29931 -1.94078 0
M  V30 29 H 5.3467 0.649689 -2.61638 0
M  V30 30 H 5.74292 0.38884 -0.837458 0
M  V30 31 H 4.60586 2.77073 -2.24137 0
M  V30 32 H 5.93355 3.11588 -1.02182 0
M  V30 33 H 1.99153 2.14576 1.12235 0
M  V30 34 H 3.9197 1.49397 2.30623 0
M  V30 35 H 3.67855 -0.291608 1.94162 0
M  V30 36 H 2.48092 0.677304 2.95501 0
M  V30 37 H -1.83467 -4.0529 0.283389 0
M  V30 38 H -2.0627 -3.06025 -1.21635 0
M  V30 39 H 3.02197 -3.79351 -0.43737 0
M  V30 40 H -2.24046 1.22169 -1.04195 0
M  V30 41 H -7.31956 3.08259 -1.42486 0
M  V30 42 H -8.36697 1.58728 -1.31927 0
M  V30 43 H -5.06354 -1.6098 1.81297 0
M  V30 44 H -2.69459 -1.92685 1.84944 0
M  V30 END ATOM
M  V30 BEGIN BOND
M  V30 1 1 1 2
M  V30 2 1 2 3
M  V30 3 1 3 4
M  V30 4 2 4 5
M  V30 5 1 4 6
M  V30 6 1 6 7
M  V30 7 1 6 8
M  V30 8 1 8 9
M  V30 9 2 9 10
M  V30 10 1 10 11
M  V30 11 2 11 12
M  V30 12 1 12 13
M  V30 13 1 12 14
M  V30 14 2 14 15
M  V30 15 1 15 16
M  V30 16 2 16 17
M  V30 17 1 10 18
M  V30 18 2 18 19
M  V30 19 1 19 20
M  V30 20 2 20 21
M  V30 21 1 21 22
M  V30 22 1 22 23
M  V30 23 1 23 24
M  V30 24 2 23 25
M  V30 25 1 21 26
M  V30 26 2 26 27
M  V30 27 1 17 8
M  V30 28 1 27 18
M  V30 29 1 17 11
M  V30 30 1 25 20
M  V30 31 1 1 28
M  V30 32 1 1 29
M  V30 33 1 1 30
M  V30 34 1 2 31
M  V30 35 1 2 32
M  V30 36 1 6 33
M  V30 37 1 7 34
M  V30 38 1 7 35
M  V30 39 1 7 36
M  V30 40 1 13 37
M  V30 41 1 13 38
M  V30 42 1 15 39
M  V30 43 1 19 40
M  V30 44 1 24 41
M  V30 45 1 24 42
M  V30 46 1 26 43
M  V30 47 1 27 44
M  V30 END BOND
M  V30 END CTAB
M  END
