
     RDKit          3D

  0  0  0  0  0  0  0  0  0  0999 V3000
M  V30 BEGIN CTAB
M  V30 COUNTS 37 38 0 0 0
M  V30 BEGIN ATOM
M  V30 1 C 5.42341 0.252703 0.06272 0
M  V30 2 C 4.09162 0.993825 0.241547 0
M  V30 3 O 3.20013 0.608297 -0.752233 0
M  V30 4 C 1.9977 -0.0315193 -0.614293 0
M  V30 5 C 1.26888 -0.319242 -1.76834 0
M  V30 6 C 0.043318 -0.968364 -1.66004 0
M  V30 7 C -0.511142 -1.35371 -0.468234 0
M  V30 8 C 0.246906 -1.05018 0.672595 0
M  V30 9 C 1.46399 -0.408577 0.599582 0
M  V30 10 C -1.81469 -2.02602 -0.310419 0
M  V30 11 C -2.87487 -1.14962 0.238497 0
M  V30 12 C -3.24566 -1.21218 1.56901 0
M  V30 13 N -4.19051 -0.40209 2.02532 0
M  V30 14 C -4.82646 0.498589 1.25698 0
M  V30 15 N -4.46368 0.554356 -0.0295847 0
M  V30 16 C -3.50028 -0.245682 -0.574442 0
M  V30 17 N -3.18684 -0.121107 -1.96349 0
M  V30 18 N -5.84507 1.35826 1.79552 0
M  V30 19 C 4.43591 2.47442 0.138312 0
M  V30 20 H 5.27718 -0.806445 0.320816 0
M  V30 21 H 5.73395 0.309607 -1.00319 0
M  V30 22 H 6.14817 0.762469 0.735504 0
M  V30 23 H 3.75544 0.728607 1.26203 0
M  V30 24 H 1.68526 -0.0247288 -2.72385 0
M  V30 25 H -0.49332 -1.19031 -2.58778 0
M  V30 26 H -0.182818 -1.35099 1.61866 0
M  V30 27 H 1.99464 -0.205198 1.51872 0
M  V30 28 H -2.18245 -2.47523 -1.24781 0
M  V30 29 H -1.71079 -2.89182 0.405445 0
M  V30 30 H -2.72049 -1.94656 2.17281 0
M  V30 31 H -3.39222 -0.901763 -2.59567 0
M  V30 32 H -2.75886 0.747412 -2.32004 0
M  V30 33 H -6.02086 1.40839 2.79935 0
M  V30 34 H -6.40736 1.93581 1.13644 0
M  V30 35 H 4.40558 2.73076 -0.933037 0
M  V30 36 H 5.45021 2.63227 0.562533 0
M  V30 37 H 3.70613 3.08557 0.706091 0
M  V30 END ATOM
M  V30 BEGIN BOND
M  V30 1 1 1 2
M  V30 2 1 2 3
M  V30 3 1 3 4
M  V30 4 2 4 5
M  V30 5 1 5 6
M  V30 6 2 6 7
M  V30 7 1 7 8
M  V30 8 2 8 9
M  V30 9 1 7 10
M  V30 10 1 10 11
M  V30 11 2 11 12
M  V30 12 1 12 13
M  V30 13 2 13 14
M  V30 14 1 14 15
M  V30 15 2 15 16
M  V30 16 1 16 17
M  V30 17 1 14 18
M  V30 18 1 2 19
M  V30 19 1 9 4
M  V30 20 1 16 11
M  V30 21 1 1 20
M  V30 22 1 1 21
M  V30 23 1 1 22
M  V30 24 1 2 23
M  V30 25 1 5 24
M  V30 26 1 6 25
M  V30 27 1 8 26
M  V30 28 1 9 27
M  V30 29 1 10 28
M  V30 30 1 10 29
M  V30 31 1 12 30
M  V30 32 1 17 31
M  V30 33 1 17 32
M  V30 34 1 18 33
M  V30 35 1 18 34
M  V30 36 1 19 35
M  V30 37 1 19 36
M  V30 38 1 19 37
M  V30 END BOND
M  V30 END CTAB
M  END
