
     RDKit          3D

  0  0  0  0  0  0  0  0  0  0999 V3000
M  V30 BEGIN CTAB
M  V30 COUNTS 26 25 0 0 0
M  V30 BEGIN ATOM
M  V30 1 C -2.62411 -0.794901 -0.425803 0
M  V30 2 C -1.75343 -0.429423 0.749783 0
M  V30 3 C -0.570441 0.39789 0.435508 0
M  V30 4 C 0.444483 -0.130965 -0.494326 0
M  V30 5 N 1.49396 0.87646 -0.616788 0
M  V30 6 S 3.00431 0.31127 -0.0478276 0
M  V30 7 O 4.10608 0.959259 -0.854819 0
M  V30 8 O 3.08788 -1.19035 -0.250509 0
M  V30 9 N 3.25908 0.619116 1.61414 0
M  V30 10 C 0.0139981 -0.455649 -1.87902 0
M  V30 11 N -2.60835 0.372343 1.64435 0
M  V30 12 H -3.72267 -0.751178 -0.14215 0
M  V30 13 H -2.47373 -1.85476 -0.736707 0
M  V30 14 H -2.55655 -0.096002 -1.27758 0
M  V30 15 H -1.50787 -1.36525 1.30895 0
M  V30 16 H -0.957668 1.41034 0.111561 0
M  V30 17 H -0.0627667 0.635306 1.41685 0
M  V30 18 H 0.924706 -1.02989 -0.0472193 0
M  V30 19 H 1.51647 1.33515 -1.53191 0
M  V30 20 H 2.67234 1.38023 2.00297 0
M  V30 21 H 4.27631 0.805094 1.75472 0
M  V30 22 H 0.970273 -0.51569 -2.48771 0
M  V30 23 H -0.530039 -1.3861 -2.02502 0
M  V30 24 H -0.488919 0.445302 -2.33905 0
M  V30 25 H -3.61612 0.138246 1.49817 0
M  V30 26 H -2.29724 0.314157 2.61943 0
M  V30 END ATOM
M  V30 BEGIN BOND
M  V30 1 1 1 2
M  V30 2 1 2 3
M  V30 3 1 3 4
M  V30 4 1 4 5
M  V30 5 1 5 6
M  V30 6 2 6 7
M  V30 7 2 6 8
M  V30 8 1 6 9
M  V30 9 1 4 10
M  V30 10 1 2 11
M  V30 11 1 1 12
M  V30 12 1 1 13
M  V30 13 1 1 14
M  V30 14 1 2 15
M  V30 15 1 3 16
M  V30 16 1 3 17
M  V30 17 1 4 18
M  V30 18 1 5 19
M  V30 19 1 9 20
M  V30 20 1 9 21
M  V30 21 1 10 22
M  V30 22 1 10 23
M  V30 23 1 10 24
M  V30 24 1 11 25
M  V30 25 1 11 26
M  V30 END BOND
M  V30 END CTAB
M  END
