
     RDKit          3D

  0  0  0  0  0  0  0  0  0  0999 V3000
M  V30 BEGIN CTAB
M  V30 COUNTS 31 31 0 0 0
M  V30 BEGIN ATOM
M  V30 1 O -3.04792 2.43939 0.199793 0
M  V30 2 C -3.38172 1.08807 0.0226289 0
M  V30 3 C -2.11452 0.360504 -0.302337 0
M  V30 4 C -2.27692 -1.1013 -0.525521 0
M  V30 5 C -0.995719 -1.84132 -0.201934 0
M  V30 6 C 0.227011 -1.03842 -0.554039 0
M  V30 7 C 0.278026 0.300189 0.123298 0
M  V30 8 C -1.05106 0.556016 0.770646 0
M  V30 9 N 1.37957 0.361002 1.05364 0
M  V30 10 C 2.68612 0.172776 0.523172 0
M  V30 11 N 3.56857 -0.574636 1.05537 0
M  V30 12 N 4.81322 -0.694701 0.464993 0
M  V30 13 N 2.98807 0.875782 -0.6711 0
M  V30 14 H -3.3701 3.00361 -0.535841 0
M  V30 15 H -3.86318 0.74658 0.942736 0
M  V30 16 H -4.04271 1.0342 -0.85468 0
M  V30 17 H -1.69652 0.82999 -1.23508 0
M  V30 18 H -2.47611 -1.27333 -1.61087 0
M  V30 19 H -3.1103 -1.4961 0.0871176 0
M  V30 20 H -0.975539 -2.76059 -0.815524 0
M  V30 21 H -0.970195 -2.16485 0.855168 0
M  V30 22 H 1.1091 -1.65069 -0.282064 0
M  V30 23 H 0.252819 -0.927248 -1.65494 0
M  V30 24 H 0.413743 1.09499 -0.66172 0
M  V30 25 H -1.12458 1.52769 1.25794 0
M  V30 26 H -1.25048 -0.216161 1.55412 0
M  V30 27 H 1.24539 0.533725 2.07086 0
M  V30 28 H 5.62298 -0.223201 0.896936 0
M  V30 29 H 4.9391 -1.24658 -0.396086 0
M  V30 30 H 3.68336 0.489751 -1.3621 0
M  V30 31 H 2.54047 1.79486 -0.914953 0
M  V30 END ATOM
M  V30 BEGIN BOND
M  V30 1 1 1 2
M  V30 2 1 2 3
M  V30 3 1 3 4
M  V30 4 1 4 5
M  V30 5 1 5 6
M  V30 6 1 6 7
M  V30 7 1 7 8
M  V30 8 1 7 9
M  V30 9 1 9 10
M  V30 10 2 10 11 CFG=2
M  V30 11 1 11 12
M  V30 12 1 10 13
M  V30 13 1 8 3
M  V30 14 1 1 14
M  V30 15 1 2 15
M  V30 16 1 2 16
M  V30 17 1 3 17
M  V30 18 1 4 18
M  V30 19 1 4 19
M  V30 20 1 5 20
M  V30 21 1 5 21
M  V30 22 1 6 22
M  V30 23 1 6 23
M  V30 24 1 7 24
M  V30 25 1 8 25
M  V30 26 1 8 26
M  V30 27 1 9 27
M  V30 28 1 12 28
M  V30 29 1 12 29
M  V30 30 1 13 30
M  V30 31 1 13 31
M  V30 END BOND
M  V30 END CTAB
M  END
