
     RDKit          3D

  0  0  0  0  0  0  0  0  0  0999 V3000
M  V30 BEGIN CTAB
M  V30 COUNTS 30 32 0 0 0
M  V30 BEGIN ATOM
M  V30 1 N 5.08427 1.6439 -0.439428 0
M  V30 2 C 3.77734 1.13749 -0.275512 0
M  V30 3 N 3.02175 1.4947 0.774819 0
M  V30 4 C 1.74531 0.992057 0.92239 0
M  V30 5 C 1.17378 0.122595 0.0399989 0
M  V30 6 C -0.0943025 -0.290626 0.322991 0
M  V30 7 C -0.667034 0.206333 1.4671 0
M  V30 8 C -2.01964 -0.0247036 2.1091 0
M  V30 9 C -3.02912 0.622956 1.2004 0
M  V30 10 C -2.94351 0.0768415 -0.193469 0
M  V30 11 C -2.3214 -1.28275 -0.254913 0
M  V30 12 C -0.857818 -1.23699 -0.586532 0
M  V30 13 S 0.546296 1.2203 2.11009 0
M  V30 14 C 1.98372 -0.241005 -1.0557 0
M  V30 15 N 1.53517 -1.14982 -2.04589 0
M  V30 16 N 3.2186 0.289204 -1.1342 0
M  V30 17 H 5.85216 1.28186 0.155515 0
M  V30 18 H 5.26758 2.36902 -1.14789 0
M  V30 19 H -2.22148 -1.09349 2.26822 0
M  V30 20 H -1.9699 0.505753 3.09267 0
M  V30 21 H -4.04951 0.446182 1.57995 0
M  V30 22 H -2.86061 1.7152 1.25594 0
M  V30 23 H -2.33471 0.806781 -0.781519 0
M  V30 24 H -3.96358 0.0242038 -0.604984 0
M  V30 25 H -2.79737 -1.7712 -1.17655 0
M  V30 26 H -2.58866 -1.9666 0.562263 0
M  V30 27 H -0.846636 -0.762543 -1.62212 0
M  V30 28 H -0.393149 -2.19813 -0.711605 0
M  V30 29 H 1.11592 -0.781457 -2.91655 0
M  V30 30 H 1.63655 -2.15607 -1.89649 0
M  V30 END ATOM
M  V30 BEGIN BOND
M  V30 1 1 1 2
M  V30 2 2 2 3
M  V30 3 1 3 4
M  V30 4 2 4 5
M  V30 5 1 5 6
M  V30 6 2 6 7
M  V30 7 1 7 8
M  V30 8 1 8 9
M  V30 9 1 9 10
M  V30 10 1 10 11
M  V30 11 1 11 12
M  V30 12 1 7 13
M  V30 13 1 5 14
M  V30 14 1 14 15
M  V30 15 2 14 16
M  V30 16 1 16 2
M  V30 17 1 13 4
M  V30 18 1 12 6
M  V30 19 1 1 17
M  V30 20 1 1 18
M  V30 21 1 8 19
M  V30 22 1 8 20
M  V30 23 1 9 21
M  V30 24 1 9 22
M  V30 25 1 10 23
M  V30 26 1 10 24
M  V30 27 1 11 25
M  V30 28 1 11 26
M  V30 29 1 12 27
M  V30 30 1 12 28
M  V30 31 1 15 29
M  V30 32 1 15 30
M  V30 END BOND
M  V30 END CTAB
M  END
