
     RDKit          3D

  0  0  0  0  0  0  0  0  0  0999 V3000
M  V30 BEGIN CTAB
M  V30 COUNTS 45 45 0 0 0
M  V30 BEGIN ATOM
M  V30 1 N 0.099606 -2.01565 0.257416 0
M  V30 2 C -0.218838 -0.637081 0.0265584 0 CFG=1
M  V30 3 C 1.26716 -0.274146 -0.569138 0
M  V30 4 C 2.208 -0.497227 0.556586 0
M  V30 5 C 3.60227 -0.457103 -0.0910262 0
M  V30 6 N 4.64639 -0.637159 0.823219 0
M  V30 7 C 5.9701 -0.777018 0.186801 0
M  V30 8 N 6.08902 -1.89198 -0.555923 0
M  V30 9 N 6.98333 0.15096 0.366485 0
M  V30 10 N 6.72324 1.50062 0.406356 0 CHG=1
M  V30 11 O 5.41711 1.96467 0.514985 0 CHG=-1
M  V30 12 O 7.61518 2.42299 0.355546 0
M  V30 13 C -1.12025 -0.313736 -1.08109 0
M  V30 14 N -1.62682 1.14389 -0.878153 0
M  V30 15 C -2.44306 0.860557 0.332303 0
M  V30 16 C -3.89367 1.0682 0.174863 0
M  V30 17 C -4.60656 -0.11652 0.443665 0
M  V30 18 N -3.92256 -1.33807 0.798266 0
M  V30 19 C -5.97321 -0.119524 0.46392 0
M  V30 20 C -6.57623 1.11316 0.20894 0
M  V30 21 C -5.96378 2.28034 -0.0364815 0
M  V30 22 C -4.52414 2.26698 -0.0630831 0
M  V30 23 H -0.559904 -2.66128 -0.130189 0
M  V30 24 H 0.22064 -2.17975 1.23727 0
M  V30 25 H -0.222301 -0.100064 0.944049 0
M  V30 26 H 1.45205 -1.03528 -1.36818 0
M  V30 27 H 1.16952 0.734348 -0.907606 0
M  V30 28 H 2.15294 0.44078 1.22342 0
M  V30 29 H 2.04142 -1.35783 1.18727 0
M  V30 30 H 3.55911 -1.45345 -0.710837 0
M  V30 31 H 3.63038 0.272186 -0.882357 0
M  V30 32 H 4.53235 -0.680463 1.8268 0
M  V30 33 H 5.22601 -2.48728 -0.525805 0
M  V30 34 H 7.98763 -0.15965 0.494637 0
M  V30 35 H -1.94473 -0.942043 -1.33947 0
M  V30 36 H -0.540453 -0.174441 -2.04041 0
M  V30 37 H -2.19102 1.30561 -1.70708 0
M  V30 38 H -2.15598 1.83723 0.944372 0
M  V30 39 H -2.07063 0.102232 0.928044 0
M  V30 40 H -4.17101 -2.2353 0.361781 0
M  V30 41 H -3.15857 -1.37162 1.5312 0
M  V30 42 H -6.53335 -1.05908 0.615536 0
M  V30 43 H -7.68544 1.07767 0.188054 0
M  V30 44 H -6.45876 3.25286 -0.156558 0
M  V30 45 H -4.03221 3.17747 -0.255964 0
M  V30 END ATOM
M  V30 BEGIN BOND
M  V30 1 1 1 2
M  V30 2 1 2 3
M  V30 3 1 3 4
M  V30 4 1 4 5
M  V30 5 1 5 6
M  V30 6 1 6 7
M  V30 7 2 7 8 CFG=2
M  V30 8 1 7 9
M  V30 9 1 9 10
M  V30 10 1 10 11
M  V30 11 2 10 12
M  V30 12 1 2 13
M  V30 13 1 13 14
M  V30 14 1 14 15
M  V30 15 1 15 16
M  V30 16 2 16 17
M  V30 17 1 17 18
M  V30 18 1 17 19
M  V30 19 2 19 20
M  V30 20 1 20 21
M  V30 21 2 21 22
M  V30 22 1 22 16
M  V30 23 1 1 23
M  V30 24 1 1 24
M  V30 25 1 2 25 CFG=1
M  V30 26 1 3 26
M  V30 27 1 3 27
M  V30 28 1 4 28
M  V30 29 1 4 29
M  V30 30 1 5 30
M  V30 31 1 5 31
M  V30 32 1 6 32
M  V30 33 1 8 33
M  V30 34 1 9 34
M  V30 35 1 13 35
M  V30 36 1 13 36
M  V30 37 1 14 37
M  V30 38 1 15 38
M  V30 39 1 15 39
M  V30 40 1 18 40
M  V30 41 1 18 41
M  V30 42 1 19 42
M  V30 43 1 20 43
M  V30 44 1 21 44
M  V30 45 1 22 45
M  V30 END BOND
M  V30 END CTAB
M  END
