
     RDKit          3D

  0  0  0  0  0  0  0  0  0  0999 V3000
M  V30 BEGIN CTAB
M  V30 COUNTS 66 70 0 0 0
M  V30 BEGIN ATOM
M  V30 1 O 10.8659 -0.447036 0.130577 0
M  V30 2 C 10.0991 0.500601 0.701484 0
M  V30 3 O 10.6312 1.39739 1.41855 0
M  V30 4 C 8.60671 0.569766 0.541211 0
M  V30 5 O 8.23537 -0.500907 -0.277137 0
M  V30 6 C 6.92556 -0.776471 -0.658775 0
M  V30 7 C 6.72928 -1.86171 -1.46308 0
M  V30 8 C 5.43631 -2.13087 -1.83905 0
M  V30 9 C 4.35584 -1.33974 -1.42627 0
M  V30 10 C 4.53049 -0.265648 -0.630485 0
M  V30 11 C 5.87892 -0.00247364 -0.252236 0
M  V30 12 C 3.49249 0.554563 -0.109478 0
M  V30 13 O 3.91068 1.70098 0.371642 0
M  V30 14 N 2.11076 0.310753 -0.03843 0
M  V30 15 C 1.3239 1.46355 0.50384 0
M  V30 16 C 0.128146 1.07685 1.27063 0
M  V30 17 C -0.674981 0.0620125 0.424857 0
M  V30 18 C 0.15317 -1.17373 0.402144 0
M  V30 19 C 1.43209 -0.904388 -0.376349 0
M  V30 20 O -0.830576 0.662863 -0.810224 0
M  V30 21 C -1.7506 0.0466029 -1.63711 0
M  V30 22 C -3.13666 -0.0806422 -0.973702 0 CFG=2
M  V30 23 C -3.03717 0.61422 0.312369 0 CFG=2
M  V30 24 C -1.9866 -0.121655 1.15923 0
M  V30 25 N -4.20029 0.942588 1.04361 0
M  V30 26 C -4.11925 1.78071 2.11034 0
M  V30 27 N -5.33278 1.95257 2.65087 0
M  V30 28 C -6.19973 1.24073 1.9537 0
M  V30 29 C -5.48683 0.618212 0.959172 0
M  V30 30 N -6.12623 -0.16378 0.111537 0
M  V30 31 C -7.43635 -0.381214 0.172106 0
M  V30 32 N -8.12703 -1.22913 -0.748313 0
M  V30 33 N -8.13806 0.236797 1.15793 0
M  V30 34 C -7.56788 1.04266 2.05468 0
M  V30 35 N -8.24432 1.71619 3.10623 0
M  V30 36 C -3.42157 -1.55861 -0.910008 0
M  V30 37 O -4.01088 0.586056 -1.86553 0
M  V30 38 H 10.9657 -0.630195 -0.806274 0
M  V30 39 H 8.30836 1.53761 0.0750118 0
M  V30 40 H 8.17973 0.46691 1.56843 0
M  V30 41 H 7.54609 -2.5033 -1.80623 0
M  V30 42 H 5.25465 -2.9815 -2.4732 0
M  V30 43 H 3.42033 -1.63384 -1.82543 0
M  V30 44 H 6.05816 0.862982 0.394682 0
M  V30 45 H 1.97539 2.11175 1.11545 0
M  V30 46 H 1.0235 2.0701 -0.395593 0
M  V30 47 H -0.572866 1.92984 1.3818 0
M  V30 48 H 0.308452 0.684897 2.27455 0
M  V30 49 H 0.473296 -1.39326 1.45747 0
M  V30 50 H -0.360576 -2.0601 0.0123614 0
M  V30 51 H 1.24858 -0.954661 -1.46484 0
M  V30 52 H 2.08045 -1.81156 -0.129502 0
M  V30 53 H -1.78197 0.633454 -2.57294 0
M  V30 54 H -1.3271 -0.937844 -1.91008 0
M  V30 55 H -2.51123 1.59854 0.0822695 0
M  V30 56 H -1.97298 0.304557 2.18287 0
M  V30 57 H -2.17856 -1.1845 1.24709 0
M  V30 58 H -3.22877 2.27543 2.51963 0
M  V30 59 H -8.95364 -1.80625 -0.493624 0
M  V30 60 H -7.78955 -1.277 -1.73118 0
M  V30 61 H -8.36095 2.75831 2.98932 0
M  V30 62 H -8.61979 1.27724 3.95159 0
M  V30 63 H -4.238 -1.76687 -1.6633 0
M  V30 64 H -2.56483 -2.19056 -1.28528 0
M  V30 65 H -3.65988 -1.9439 0.0770504 0
M  V30 66 H -3.74001 0.425067 -2.80296 0
M  V30 END ATOM
M  V30 BEGIN BOND
M  V30 1 1 1 2
M  V30 2 2 2 3
M  V30 3 1 2 4
M  V30 4 1 4 5
M  V30 5 1 5 6
M  V30 6 2 6 7
M  V30 7 1 7 8
M  V30 8 2 8 9
M  V30 9 1 9 10
M  V30 10 2 10 11
M  V30 11 1 10 12
M  V30 12 2 12 13
M  V30 13 1 12 14
M  V30 14 1 14 15
M  V30 15 1 15 16
M  V30 16 1 16 17
M  V30 17 1 17 18
M  V30 18 1 18 19
M  V30 19 1 17 20
M  V30 20 1 20 21
M  V30 21 1 21 22
M  V30 22 1 22 23
M  V30 23 1 23 24
M  V30 24 1 23 25
M  V30 25 1 25 26
M  V30 26 2 26 27
M  V30 27 1 27 28
M  V30 28 2 28 29
M  V30 29 1 29 30
M  V30 30 2 30 31
M  V30 31 1 31 32
M  V30 32 1 31 33
M  V30 33 2 33 34
M  V30 34 1 34 35
M  V30 35 1 22 36
M  V30 36 1 22 37 CFG=3
M  V30 37 1 11 6
M  V30 38 1 19 14
M  V30 39 1 29 25
M  V30 40 1 24 17
M  V30 41 1 34 28
M  V30 42 1 1 38
M  V30 43 1 4 39
M  V30 44 1 4 40
M  V30 45 1 7 41
M  V30 46 1 8 42
M  V30 47 1 9 43
M  V30 48 1 11 44
M  V30 49 1 15 45
M  V30 50 1 15 46
M  V30 51 1 16 47
M  V30 52 1 16 48
M  V30 53 1 18 49
M  V30 54 1 18 50
M  V30 55 1 19 51
M  V30 56 1 19 52
M  V30 57 1 21 53
M  V30 58 1 21 54
M  V30 59 1 23 55 CFG=3
M  V30 60 1 24 56
M  V30 61 1 24 57
M  V30 62 1 26 58
M  V30 63 1 32 59
M  V30 64 1 32 60
M  V30 65 1 35 61
M  V30 66 1 35 62
M  V30 67 1 36 63
M  V30 68 1 36 64
M  V30 69 1 36 65
M  V30 70 1 37 66
M  V30 END BOND
M  V30 END CTAB
M  END
