
     RDKit          3D

  0  0  0  0  0  0  0  0  0  0999 V3000
M  V30 BEGIN CTAB
M  V30 COUNTS 55 58 0 0 0
M  V30 BEGIN ATOM
M  V30 1 C 2.05079 0.190464 -0.487459 0 CFG=2
M  V30 2 C 3.16494 -0.292504 -1.31368 0
M  V30 3 C 4.39627 0.204672 -0.541679 0
M  V30 4 C 3.88088 0.724105 0.776957 0 CFG=2
M  V30 5 N 4.74971 0.38671 1.8814 0
M  V30 6 C 2.58186 -0.0367818 0.913154 0 CFG=2
M  V30 7 C 2.89421 -1.48827 1.16489 0
M  V30 8 C 1.65321 0.528573 1.92988 0
M  V30 9 C 0.322901 -0.221849 1.76665 0
M  V30 10 C -0.179377 0.0864063 0.397428 0 CFG=1
M  V30 11 C 0.729687 -0.462802 -0.693783 0 CFG=1
M  V30 12 C 0.213572 -0.0714202 -2.04194 0
M  V30 13 C -1.25206 -0.191052 -2.21829 0
M  V30 14 C -2.02918 0.442212 -1.08751 0 CFG=1
M  V30 15 C -3.49751 0.40759 -1.31828 0
M  V30 16 C -4.16695 1.02322 -0.0842927 0 CFG=1
M  V30 17 N -5.58667 1.16817 -0.261173 0
M  V30 18 C -3.9042 0.130524 1.08906 0
M  V30 19 C -2.40481 0.192463 1.37321 0
M  V30 20 C -1.621 -0.299718 0.182515 0 CFG=2
M  V30 21 C -1.83791 -1.77055 0.0528499 0
M  V30 22 H 1.93134 1.27463 -0.612463 0
M  V30 23 H 3.17059 0.0545343 -2.34993 0
M  V30 24 H 3.17898 -1.41743 -1.34383 0
M  V30 25 H 5.14579 -0.597753 -0.433434 0
M  V30 26 H 4.84575 1.03849 -1.11106 0
M  V30 27 H 3.72452 1.81537 0.743614 0
M  V30 28 H 4.35775 0.86315 2.72427 0
M  V30 29 H 5.67153 0.880848 1.69531 0
M  V30 30 H 3.76061 -1.82241 0.568957 0
M  V30 31 H 3.19379 -1.57525 2.22945 0
M  V30 32 H 2.03621 -2.16329 0.983077 0
M  V30 33 H 1.4349 1.58166 1.68543 0
M  V30 34 H 2.07189 0.388112 2.93217 0
M  V30 35 H 0.469148 -1.29749 1.9599 0
M  V30 36 H -0.362164 0.232049 2.49646 0
M  V30 37 H -0.137411 1.20448 0.276431 0
M  V30 38 H 0.879562 -1.55644 -0.582936 0
M  V30 39 H 0.702949 -0.740435 -2.80864 0
M  V30 40 H 0.538073 0.952957 -2.31387 0
M  V30 41 H -1.62531 -1.22339 -2.37001 0
M  V30 42 H -1.53693 0.369412 -3.14329 0
M  V30 43 H -1.72218 1.49461 -0.941772 0
M  V30 44 H -3.91395 -0.58884 -1.49574 0
M  V30 45 H -3.74657 1.05702 -2.15703 0
M  V30 46 H -3.68633 2.00506 0.123985 0
M  V30 47 H -5.83053 1.59401 -1.18561 0
M  V30 48 H -5.91355 1.87261 0.454512 0
M  V30 49 H -4.17627 -0.924324 0.866266 0
M  V30 50 H -4.43871 0.497238 1.98252 0
M  V30 51 H -2.23679 -0.564794 2.18912 0
M  V30 52 H -2.09886 1.20142 1.6565 0
M  V30 53 H -2.61535 -1.97002 -0.735683 0
M  V30 54 H -2.27056 -2.23027 0.983229 0
M  V30 55 H -0.960288 -2.35568 -0.213358 0
M  V30 END ATOM
M  V30 BEGIN BOND
M  V30 1 1 1 2
M  V30 2 1 2 3
M  V30 3 1 3 4
M  V30 4 1 4 5
M  V30 5 1 4 6
M  V30 6 1 6 7 CFG=1
M  V30 7 1 6 8
M  V30 8 1 8 9
M  V30 9 1 9 10
M  V30 10 1 10 11
M  V30 11 1 11 12
M  V30 12 1 12 13
M  V30 13 1 13 14
M  V30 14 1 14 15
M  V30 15 1 15 16
M  V30 16 1 16 17
M  V30 17 1 16 18
M  V30 18 1 18 19
M  V30 19 1 19 20
M  V30 20 1 20 21 CFG=3
M  V30 21 1 6 1
M  V30 22 1 20 10
M  V30 23 1 11 1
M  V30 24 1 20 14
M  V30 25 1 1 22 CFG=3
M  V30 26 1 2 23
M  V30 27 1 2 24
M  V30 28 1 3 25
M  V30 29 1 3 26
M  V30 30 1 4 27 CFG=3
M  V30 31 1 5 28
M  V30 32 1 5 29
M  V30 33 1 7 30
M  V30 34 1 7 31
M  V30 35 1 7 32
M  V30 36 1 8 33
M  V30 37 1 8 34
M  V30 38 1 9 35
M  V30 39 1 9 36
M  V30 40 1 10 37 CFG=1
M  V30 41 1 11 38 CFG=3
M  V30 42 1 12 39
M  V30 43 1 12 40
M  V30 44 1 13 41
M  V30 45 1 13 42
M  V30 46 1 14 43 CFG=1
M  V30 47 1 15 44
M  V30 48 1 15 45
M  V30 49 1 16 46 CFG=1
M  V30 50 1 17 47
M  V30 51 1 17 48
M  V30 52 1 18 49
M  V30 53 1 18 50
M  V30 54 1 19 51
M  V30 55 1 19 52
M  V30 56 1 21 53
M  V30 57 1 21 54
M  V30 58 1 21 55
M  V30 END BOND
M  V30 END CTAB
M  END
