
     RDKit          3D

  0  0  0  0  0  0  0  0  0  0999 V3000
M  V30 BEGIN CTAB
M  V30 COUNTS 49 48 0 0 0
M  V30 BEGIN ATOM
M  V30 1 N -3.52671 -3.57693 -0.168408 0
M  V30 2 C -4.08231 -2.36697 -0.716572 0
M  V30 3 C -4.34483 -1.31251 0.345952 0
M  V30 4 C -3.08477 -0.925245 1.06536 0
M  V30 5 N -2.04633 -0.371963 0.311711 0
M  V30 6 C -0.793153 -0.431307 1.04764 0
M  V30 7 C 0.346201 -0.0582147 0.138288 0
M  V30 8 N 1.64602 -0.240375 0.763014 0
M  V30 9 C 2.82567 -0.00654019 -0.00335075 0
M  V30 10 O 2.70719 0.379236 -1.21029 0
M  V30 11 O 4.08892 -0.181702 0.485061 0
M  V30 12 C 5.26288 0.0209302 -0.288908 0
M  V30 13 C 5.25788 -0.886638 -1.51703 0
M  V30 14 C 6.44894 -0.379709 0.585147 0
M  V30 15 C 5.46561 1.4327 -0.739244 0
M  V30 16 C -2.19608 0.660745 -0.594243 0
M  V30 17 C -2.51456 2.04675 -0.206567 0
M  V30 18 C -3.83148 2.23683 0.459375 0
M  V30 19 N -4.06721 3.65699 0.784006 0
M  V30 20 H -3.55464 -3.66501 0.851522 0
M  V30 21 H -2.61866 -3.8279 -0.620154 0
M  V30 22 H -5.06248 -2.61657 -1.16245 0
M  V30 23 H -3.43247 -1.97703 -1.52107 0
M  V30 24 H -4.94777 -0.526056 -0.0753541 0
M  V30 25 H -4.99954 -1.84515 1.10566 0
M  V30 26 H -2.67832 -1.92808 1.46401 0
M  V30 27 H -3.36691 -0.403042 1.99868 0
M  V30 28 H -0.784805 0.255344 1.9146 0
M  V30 29 H -0.630274 -1.45237 1.42027 0
M  V30 30 H 0.228502 1.04326 -0.0391604 0
M  V30 31 H 0.257899 -0.590201 -0.808544 0
M  V30 32 H 1.69373 -0.533069 1.74785 0
M  V30 33 H 4.84276 -0.316624 -2.37631 0
M  V30 34 H 6.29516 -1.17155 -1.74611 0
M  V30 35 H 4.62675 -1.78747 -1.32927 0
M  V30 36 H 6.44657 -1.49353 0.715402 0
M  V30 37 H 7.40286 -0.12838 0.0939918 0
M  V30 38 H 6.37642 0.113186 1.55009 0
M  V30 39 H 5.3713 2.15607 0.0983405 0
M  V30 40 H 6.4788 1.48369 -1.21138 0
M  V30 41 H 4.7539 1.7026 -1.53325 0
M  V30 42 H -1.27485 0.645657 -1.28262 0
M  V30 43 H -3.00148 0.345337 -1.34446 0
M  V30 44 H -1.68348 2.57522 0.322924 0
M  V30 45 H -2.58427 2.63186 -1.18183 0
M  V30 46 H -4.02568 1.70157 1.37429 0
M  V30 47 H -4.66111 1.94346 -0.249831 0
M  V30 48 H -3.90516 4.27083 -0.0494662 0
M  V30 49 H -5.12464 3.69788 0.928576 0
M  V30 END ATOM
M  V30 BEGIN BOND
M  V30 1 1 1 2
M  V30 2 1 2 3
M  V30 3 1 3 4
M  V30 4 1 4 5
M  V30 5 1 5 6
M  V30 6 1 6 7
M  V30 7 1 7 8
M  V30 8 1 8 9
M  V30 9 2 9 10
M  V30 10 1 9 11
M  V30 11 1 11 12
M  V30 12 1 12 13
M  V30 13 1 12 14
M  V30 14 1 12 15
M  V30 15 1 5 16
M  V30 16 1 16 17
M  V30 17 1 17 18
M  V30 18 1 18 19
M  V30 19 1 1 20
M  V30 20 1 1 21
M  V30 21 1 2 22
M  V30 22 1 2 23
M  V30 23 1 3 24
M  V30 24 1 3 25
M  V30 25 1 4 26
M  V30 26 1 4 27
M  V30 27 1 6 28
M  V30 28 1 6 29
M  V30 29 1 7 30
M  V30 30 1 7 31
M  V30 31 1 8 32
M  V30 32 1 13 33
M  V30 33 1 13 34
M  V30 34 1 13 35
M  V30 35 1 14 36
M  V30 36 1 14 37
M  V30 37 1 14 38
M  V30 38 1 15 39
M  V30 39 1 15 40
M  V30 40 1 15 41
M  V30 41 1 16 42
M  V30 42 1 16 43
M  V30 43 1 17 44
M  V30 44 1 17 45
M  V30 45 1 18 46
M  V30 46 1 18 47
M  V30 47 1 19 48
M  V30 48 1 19 49
M  V30 END BOND
M  V30 END CTAB
M  END
