
     RDKit          3D

  0  0  0  0  0  0  0  0  0  0999 V3000
M  V30 BEGIN CTAB
M  V30 COUNTS 45 46 0 0 0
M  V30 BEGIN ATOM
M  V30 1 N -1.69767 2.77208 -2.37093 0
M  V30 2 C -1.78921 1.87342 -1.2059 0
M  V30 3 C -0.748107 2.21846 -0.205313 0
M  V30 4 C -0.718101 1.47783 1.06239 0
M  V30 5 N -0.562869 0.0558106 1.11608 0
M  V30 6 C 0.780265 -0.442858 1.10829 0
M  V30 7 O 0.903817 -1.70835 1.22681 0
M  V30 8 C 2.01211 0.330454 0.978619 0
M  V30 9 C 3.16065 -0.309648 1.75648 0
M  V30 10 C 4.03679 -1.01816 0.781277 0
M  V30 11 C 3.88485 -0.224033 -0.498275 0
M  V30 12 C 2.48548 0.279386 -0.486556 0
M  V30 13 N 4.87547 0.814473 -0.545253 0
M  V30 14 C -1.69081 -0.797053 1.27577 0
M  V30 15 C -2.42243 -1.34615 0.165211 0
M  V30 16 C -3.81554 -1.16223 0.0236946 0
M  V30 17 C -4.54351 -1.67908 -1.01314 0
M  V30 18 C -3.9449 -2.42452 -1.99917 0
M  V30 19 C -2.59258 -2.6306 -1.90521 0
M  V30 20 C -1.85624 -2.0936 -0.834277 0
M  V30 21 H -1.42437 3.73628 -2.0248 0
M  V30 22 H -2.63573 2.84815 -2.8406 0
M  V30 23 H -1.52093 0.87515 -1.63527 0
M  V30 24 H -2.80966 1.85674 -0.824438 0
M  V30 25 H -0.937773 3.30874 0.0906263 0
M  V30 26 H 0.267032 2.31977 -0.715229 0
M  V30 27 H -1.66299 1.78036 1.6319 0
M  V30 28 H 0.0765686 1.96824 1.71396 0
M  V30 29 H 1.96847 1.37856 1.25886 0
M  V30 30 H 2.73076 -1.07249 2.44913 0
M  V30 31 H 3.68396 0.427959 2.38339 0
M  V30 32 H 5.07818 -0.991436 1.16547 0
M  V30 33 H 3.76307 -2.08551 0.649252 0
M  V30 34 H 4.08601 -0.899689 -1.37831 0
M  V30 35 H 1.85463 -0.446355 -1.0389 0
M  V30 36 H 2.43733 1.28588 -0.943232 0
M  V30 37 H 4.61232 1.59166 0.0822596 0
M  V30 38 H 5.79799 0.375481 -0.318457 0
M  V30 39 H -1.38235 -1.59048 2.03204 0
M  V30 40 H -2.43987 -0.198996 1.89894 0
M  V30 41 H -4.28971 -0.563529 0.817897 0
M  V30 42 H -5.60466 -1.52106 -1.09278 0
M  V30 43 H -4.49586 -2.84842 -2.83515 0
M  V30 44 H -2.09948 -3.21554 -2.67173 0
M  V30 45 H -0.81041 -2.30509 -0.85005 0
M  V30 END ATOM
M  V30 BEGIN BOND
M  V30 1 1 1 2
M  V30 2 1 2 3
M  V30 3 1 3 4
M  V30 4 1 4 5
M  V30 5 1 5 6
M  V30 6 2 6 7
M  V30 7 1 6 8
M  V30 8 1 8 9
M  V30 9 1 9 10
M  V30 10 1 10 11
M  V30 11 1 11 12
M  V30 12 1 11 13
M  V30 13 1 5 14
M  V30 14 1 14 15
M  V30 15 2 15 16
M  V30 16 1 16 17
M  V30 17 2 17 18
M  V30 18 1 18 19
M  V30 19 2 19 20
M  V30 20 1 12 8
M  V30 21 1 20 15
M  V30 22 1 1 21
M  V30 23 1 1 22
M  V30 24 1 2 23
M  V30 25 1 2 24
M  V30 26 1 3 25
M  V30 27 1 3 26
M  V30 28 1 4 27
M  V30 29 1 4 28
M  V30 30 1 8 29
M  V30 31 1 9 30
M  V30 32 1 9 31
M  V30 33 1 10 32
M  V30 34 1 10 33
M  V30 35 1 11 34
M  V30 36 1 12 35
M  V30 37 1 12 36
M  V30 38 1 13 37
M  V30 39 1 13 38
M  V30 40 1 14 39
M  V30 41 1 14 40
M  V30 42 1 16 41
M  V30 43 1 17 42
M  V30 44 1 18 43
M  V30 45 1 19 44
M  V30 46 1 20 45
M  V30 END BOND
M  V30 END CTAB
M  END
