
     RDKit          3D

  0  0  0  0  0  0  0  0  0  0999 V3000
M  V30 BEGIN CTAB
M  V30 COUNTS 26 26 0 0 0
M  V30 BEGIN ATOM
M  V30 1 C -3.52282 -1.03262 0.366582 0
M  V30 2 N -2.17162 -1.13271 0.855887 0
M  V30 3 P -1.15541 -0.118021 -0.100046 0
M  V30 4 N -1.65884 -0.0460709 -1.77547 0
M  V30 5 N -1.26282 1.35584 0.504548 0
M  V30 6 P -0.120429 1.70777 1.78603 0
M  V30 7 Cl -0.642901 0.544297 3.40801 0
M  V30 8 Cl -0.278517 3.71087 2.27119 0
M  V30 9 N 1.35864 1.44134 1.31291 0
M  V30 10 P 1.57178 0.528027 -0.146945 0
M  V30 11 N 1.04524 1.57684 -1.47252 0
M  V30 12 N 3.16541 0.0198381 -0.432092 0
M  V30 13 C 3.58359 -1.17012 0.233319 0
M  V30 14 N 0.509084 -0.648894 -0.0985 0
M  V30 15 H -3.51796 -1.2244 -0.738444 0
M  V30 16 H -3.90032 0.000507741 0.55083 0
M  V30 17 H -4.22164 -1.73955 0.836821 0
M  V30 18 H -1.83388 -2.08528 1.00954 0
M  V30 19 H -1.42007 -0.921399 -2.28308 0
M  V30 20 H -2.62891 0.27773 -1.89727 0
M  V30 21 H 0.965708 1.05005 -2.3559 0
M  V30 22 H 1.57387 2.45146 -1.51138 0
M  V30 23 H 3.30774 -0.129526 -1.46833 0
M  V30 24 H 3.22787 -1.22815 1.26299 0
M  V30 25 H 4.71224 -1.14394 0.278593 0
M  V30 26 H 3.31493 -2.04391 -0.397264 0
M  V30 END ATOM
M  V30 BEGIN BOND
M  V30 1 1 1 2
M  V30 2 1 2 3
M  V30 3 1 3 4
M  V30 4 2 3 5
M  V30 5 1 5 6
M  V30 6 1 6 7
M  V30 7 1 6 8
M  V30 8 2 6 9
M  V30 9 1 9 10
M  V30 10 1 10 11
M  V30 11 1 10 12
M  V30 12 1 12 13
M  V30 13 2 10 14
M  V30 14 1 14 3
M  V30 15 1 1 15
M  V30 16 1 1 16
M  V30 17 1 1 17
M  V30 18 1 2 18
M  V30 19 1 4 19
M  V30 20 1 4 20
M  V30 21 1 11 21
M  V30 22 1 11 22
M  V30 23 1 12 23
M  V30 24 1 13 24
M  V30 25 1 13 25
M  V30 26 1 13 26
M  V30 END BOND
M  V30 END CTAB
M  END
