
     RDKit          3D

  0  0  0  0  0  0  0  0  0  0999 V3000
M  V30 BEGIN CTAB
M  V30 COUNTS 42 44 0 0 0
M  V30 BEGIN ATOM
M  V30 1 N 8.06492 1.08505 -0.361289 0
M  V30 2 C 6.70633 0.878982 -0.753135 0
M  V30 3 C 5.83361 0.578804 0.458515 0
M  V30 4 C 4.4447 0.387475 -0.110543 0
M  V30 5 S 3.91887 0.476157 -1.73143 0
M  V30 6 C 2.26494 0.141704 -1.47872 0
M  V30 7 C 2.21572 -0.0232975 -0.118627 0
M  V30 8 N 3.33168 0.107572 0.537809 0
M  V30 9 C 0.943336 -0.338653 0.582808 0
M  V30 10 O 0.907441 -0.489152 1.83691 0
M  V30 11 N -0.256585 -0.478613 -0.127958 0
M  V30 12 C -1.48886 -0.781253 0.527424 0
M  V30 13 C -2.01414 -2.1368 0.0819082 0
M  V30 14 C -3.30781 -2.47707 0.734287 0
M  V30 15 C -3.99587 -1.32701 1.4271 0
M  V30 16 C -3.82434 -0.0694824 0.655062 0
M  V30 17 C -2.55067 0.192471 0.208407 0
M  V30 18 C -2.3102 1.33717 -0.512433 0
M  V30 19 C -3.35594 2.21641 -0.781728 0
M  V30 20 C -4.65353 1.96886 -0.337965 0
M  V30 21 C -4.87134 0.809913 0.385941 0
M  V30 22 N -5.70857 2.87861 -0.622831 0
M  V30 23 H 8.54593 0.227221 -0.0305564 0
M  V30 24 H 8.109 1.87499 0.308214 0
M  V30 25 H 6.66439 0.0271492 -1.48625 0
M  V30 26 H 6.35661 1.78521 -1.28554 0
M  V30 27 H 5.87527 1.46441 1.11558 0
M  V30 28 H 6.19406 -0.324979 0.953789 0
M  V30 29 H 1.42698 0.0689818 -2.19456 0
M  V30 30 H -0.252748 -0.359776 -1.15778 0
M  V30 31 H -1.33487 -0.879451 1.63132 0
M  V30 32 H -2.19712 -2.04138 -1.02793 0
M  V30 33 H -1.24473 -2.92664 0.197908 0
M  V30 34 H -3.12916 -3.26316 1.51521 0
M  V30 35 H -4.05199 -2.8706 -0.0184953 0
M  V30 36 H -3.57233 -1.19056 2.45554 0
M  V30 37 H -5.0883 -1.50798 1.49285 0
M  V30 38 H -1.33238 1.59904 -0.890614 0
M  V30 39 H -3.20073 3.12412 -1.34514 0
M  V30 40 H -5.85109 0.560431 0.757364 0
M  V30 41 H -5.9039 3.7116 -0.0407755 0
M  V30 42 H -6.30661 2.69777 -1.44965 0
M  V30 END ATOM
M  V30 BEGIN BOND
M  V30 1 1 1 2
M  V30 2 1 2 3
M  V30 3 1 3 4
M  V30 4 1 4 5
M  V30 5 1 5 6
M  V30 6 2 6 7
M  V30 7 1 7 8
M  V30 8 1 7 9
M  V30 9 2 9 10
M  V30 10 1 9 11
M  V30 11 1 11 12
M  V30 12 1 12 13
M  V30 13 1 13 14
M  V30 14 1 14 15
M  V30 15 1 15 16
M  V30 16 2 16 17
M  V30 17 1 17 18
M  V30 18 2 18 19
M  V30 19 1 19 20
M  V30 20 2 20 21
M  V30 21 1 20 22
M  V30 22 2 8 4
M  V30 23 1 17 12
M  V30 24 1 21 16
M  V30 25 1 1 23
M  V30 26 1 1 24
M  V30 27 1 2 25
M  V30 28 1 2 26
M  V30 29 1 3 27
M  V30 30 1 3 28
M  V30 31 1 6 29
M  V30 32 1 11 30
M  V30 33 1 12 31
M  V30 34 1 13 32
M  V30 35 1 13 33
M  V30 36 1 14 34
M  V30 37 1 14 35
M  V30 38 1 15 36
M  V30 39 1 15 37
M  V30 40 1 18 38
M  V30 41 1 19 39
M  V30 42 1 21 40
M  V30 43 1 22 41
M  V30 44 1 22 42
M  V30 END BOND
M  V30 END CTAB
M  END
