
     RDKit          3D

  0  0  0  0  0  0  0  0  0  0999 V3000
M  V30 BEGIN CTAB
M  V30 COUNTS 35 37 0 0 0
M  V30 BEGIN ATOM
M  V30 1 N 5.78659 0.00595897 1.11328 0
M  V30 2 C 4.52829 0.26798 0.518987 0
M  V30 3 N 4.19723 1.10394 -0.480615 0
M  V30 4 N 2.88422 1.03526 -0.724656 0
M  V30 5 C 2.32352 0.150597 0.11147 0
M  V30 6 C 3.33404 -0.347575 0.905076 0
M  V30 7 C 0.884428 -0.208239 0.155755 0 CFG=2
M  V30 8 C 0.437941 -0.748708 -1.20646 0
M  V30 9 C -1.01535 -1.09434 -1.06513 0
M  V30 10 C -1.48693 -2.14268 -1.8271 0
M  V30 11 C -2.81282 -2.51039 -1.74033 0
M  V30 12 C -3.64621 -1.82577 -0.894489 0
M  V30 13 C -3.16971 -0.773732 -0.130849 0
M  V30 14 C -1.84321 -0.40624 -0.218105 0
M  V30 15 N -1.33492 0.668199 0.553793 0
M  V30 16 C 0.060662 1.01456 0.413608 0
M  V30 17 S -2.32886 1.56788 1.64476 0
M  V30 18 O -2.97006 0.682989 2.67735 0
M  V30 19 O -1.52013 2.64472 2.29546 0
M  V30 20 N -3.60515 2.34631 0.772328 0
M  V30 21 H 6.64892 0.141913 0.56411 0
M  V30 22 H 5.86518 -0.321078 2.09215 0
M  V30 23 H 2.44165 1.62417 -1.4798 0
M  V30 24 H 3.26018 -1.08451 1.69728 0
M  V30 25 H 0.72532 -0.966191 0.950196 0
M  V30 26 H 0.484427 0.1259 -1.89496 0
M  V30 27 H 1.0405 -1.59193 -1.54098 0
M  V30 28 H -0.839398 -2.6907 -2.49819 0
M  V30 29 H -3.15296 -3.35082 -2.36277 0
M  V30 30 H -4.69742 -2.12576 -0.832954 0
M  V30 31 H -3.80542 -0.218986 0.543526 0
M  V30 32 H 0.395115 1.59723 1.29901 0
M  V30 33 H 0.138886 1.68306 -0.490168 0
M  V30 34 H -3.22865 2.57867 -0.184567 0
M  V30 35 H -3.9799 3.16832 1.26398 0
M  V30 END ATOM
M  V30 BEGIN BOND
M  V30 1 1 1 2
M  V30 2 2 2 3
M  V30 3 1 3 4
M  V30 4 1 4 5
M  V30 5 2 5 6
M  V30 6 1 5 7
M  V30 7 1 7 8
M  V30 8 1 8 9
M  V30 9 2 9 10
M  V30 10 1 10 11
M  V30 11 2 11 12
M  V30 12 1 12 13
M  V30 13 2 13 14
M  V30 14 1 14 15
M  V30 15 1 15 16
M  V30 16 1 15 17
M  V30 17 2 17 18
M  V30 18 2 17 19
M  V30 19 1 17 20
M  V30 20 1 6 2
M  V30 21 1 16 7
M  V30 22 1 14 9
M  V30 23 1 1 21
M  V30 24 1 1 22
M  V30 25 1 4 23
M  V30 26 1 6 24
M  V30 27 1 7 25 CFG=1
M  V30 28 1 8 26
M  V30 29 1 8 27
M  V30 30 1 10 28
M  V30 31 1 11 29
M  V30 32 1 12 30
M  V30 33 1 13 31
M  V30 34 1 16 32
M  V30 35 1 16 33
M  V30 36 1 20 34
M  V30 37 1 20 35
M  V30 END BOND
M  V30 END CTAB
M  END
