
     RDKit          3D

  0  0  0  0  0  0  0  0  0  0999 V3000
M  V30 BEGIN CTAB
M  V30 COUNTS 77 81 0 0 0
M  V30 BEGIN ATOM
M  V30 1 C 5.50308 3.9548 -0.460385 0
M  V30 2 C 6.63832 3.23268 0.21794 0
M  V30 3 C 7.10766 2.13061 -0.650878 0
M  V30 4 C 8.25067 2.336 -1.36464 0
M  V30 5 C 8.74044 1.35452 -2.20313 0
M  V30 6 C 8.08252 0.163799 -2.32692 0
M  V30 7 C 6.90298 -0.039542 -1.58591 0
M  V30 8 C 6.398 0.907794 -0.753147 0
M  V30 9 N 5.24038 0.782222 0.0211901 0
M  V30 10 C 4.35162 -0.304058 0.101049 0
M  V30 11 N 3.2517 -0.202306 0.946247 0
M  V30 12 C 2.37368 -1.20319 1.06709 0
M  V30 13 C 1.20434 -1.0952 1.94865 0
M  V30 14 N -0.0463247 -1.13643 1.26768 0
M  V30 15 C -0.210204 -0.136012 0.274558 0
M  V30 16 C -1.48458 -0.162346 -0.469747 0
M  V30 17 N -1.55279 -0.90723 -1.61429 0
M  V30 18 C -2.68081 -0.963429 -2.34605 0
M  V30 19 N -2.7157 -1.75029 -3.5282 0
M  V30 20 N -3.71741 -0.260927 -1.89992 0
M  V30 21 C -3.75137 0.49071 -0.804407 0
M  V30 22 N -2.57336 0.510477 -0.097186 0
M  V30 23 N -4.8512 1.23403 -0.358355 0
M  V30 24 C -6.12224 1.38823 -0.896438 0
M  V30 25 C -6.57875 0.771304 -2.04142 0
M  V30 26 C -7.88266 0.969909 -2.53236 0
M  V30 27 C -8.75404 1.79641 -1.877 0
M  V30 28 C -8.32171 2.42059 -0.735766 0
M  V30 29 C -7.033 2.22579 -0.24859 0
M  V30 30 C -6.64064 2.93077 0.968079 0
M  V30 31 C -5.7568 4.1342 0.725162 0
M  V30 32 C -0.565636 -2.4044 0.923969 0
M  V30 33 C -0.74854 -3.23577 2.15239 0
M  V30 34 C -1.80535 -2.92755 2.97799 0
M  V30 35 C -2.02397 -3.66906 4.12095 0
M  V30 36 C -1.1686 -4.69765 4.39323 0
M  V30 37 C -0.110168 -5.01275 3.57425 0
M  V30 38 C 0.10971 -4.27448 2.43374 0
M  V30 39 F -1.3909 -5.42315 5.52177 0
M  V30 40 N 2.58104 -2.31647 0.347969 0
M  V30 41 C 3.63174 -2.44034 -0.473335 0
M  V30 42 N 4.49226 -1.42952 -0.576421 0
M  V30 43 N 3.80661 -3.62808 -1.21015 0
M  V30 44 H 4.85382 3.29493 -1.04801 0
M  V30 45 H 4.93202 4.57589 0.290594 0
M  V30 46 H 5.96635 4.7221 -1.13912 0
M  V30 47 H 7.48065 3.9574 0.3314 0
M  V30 48 H 6.39913 2.9092 1.25618 0
M  V30 49 H 8.82746 3.25737 -1.31786 0
M  V30 50 H 9.65399 1.53689 -2.76464 0
M  V30 51 H 8.42019 -0.653016 -2.97552 0
M  V30 52 H 6.41151 -0.993492 -1.70982 0
M  V30 53 H 4.98211 1.62607 0.655156 0
M  V30 54 H 1.22608 -0.132655 2.54401 0
M  V30 55 H 1.24349 -1.88559 2.72482 0
M  V30 56 H -0.15313 0.852672 0.794066 0
M  V30 57 H 0.622949 -0.184087 -0.488111 0
M  V30 58 H -2.78875 -2.79822 -3.50594 0
M  V30 59 H -2.66978 -1.31408 -4.4665 0
M  V30 60 H -4.66049 1.76725 0.563374 0
M  V30 61 H -5.92605 0.107918 -2.59328 0
M  V30 62 H -8.19383 0.462742 -3.43646 0
M  V30 63 H -9.7646 1.9619 -2.24207 0
M  V30 64 H -9.01281 3.07498 -0.217753 0
M  V30 65 H -6.16773 2.29732 1.72111 0
M  V30 66 H -7.58781 3.35463 1.43813 0
M  V30 67 H -6.30772 5.08027 0.650299 0
M  V30 68 H -5.2193 3.96561 -0.224363 0
M  V30 69 H -5.05516 4.23562 1.57521 0
M  V30 70 H -0.025411 -2.93804 0.125428 0
M  V30 71 H -1.6188 -2.24841 0.545875 0
M  V30 72 H -2.44856 -2.10047 2.70873 0
M  V30 73 H -2.84528 -3.43364 4.76749 0
M  V30 74 H 0.580549 -5.82282 3.77005 0
M  V30 75 H 0.922104 -4.46767 1.74703 0
M  V30 76 H 4.36987 -4.41663 -0.851653 0
M  V30 77 H 3.37292 -3.76662 -2.15711 0
M  V30 END ATOM
M  V30 BEGIN BOND
M  V30 1 1 1 2
M  V30 2 1 2 3
M  V30 3 2 3 4
M  V30 4 1 4 5
M  V30 5 2 5 6
M  V30 6 1 6 7
M  V30 7 2 7 8
M  V30 8 1 8 9
M  V30 9 1 9 10
M  V30 10 2 10 11
M  V30 11 1 11 12
M  V30 12 1 12 13
M  V30 13 1 13 14
M  V30 14 1 14 15
M  V30 15 1 15 16
M  V30 16 2 16 17
M  V30 17 1 17 18
M  V30 18 1 18 19
M  V30 19 2 18 20
M  V30 20 1 20 21
M  V30 21 2 21 22
M  V30 22 1 21 23
M  V30 23 1 23 24
M  V30 24 2 24 25
M  V30 25 1 25 26
M  V30 26 2 26 27
M  V30 27 1 27 28
M  V30 28 2 28 29
M  V30 29 1 29 30
M  V30 30 1 30 31
M  V30 31 1 14 32
M  V30 32 1 32 33
M  V30 33 2 33 34
M  V30 34 1 34 35
M  V30 35 2 35 36
M  V30 36 1 36 37
M  V30 37 2 37 38
M  V30 38 1 36 39
M  V30 39 2 12 40
M  V30 40 1 40 41
M  V30 41 2 41 42
M  V30 42 1 41 43
M  V30 43 1 8 3
M  V30 44 1 42 10
M  V30 45 1 22 16
M  V30 46 1 29 24
M  V30 47 1 38 33
M  V30 48 1 1 44
M  V30 49 1 1 45
M  V30 50 1 1 46
M  V30 51 1 2 47
M  V30 52 1 2 48
M  V30 53 1 4 49
M  V30 54 1 5 50
M  V30 55 1 6 51
M  V30 56 1 7 52
M  V30 57 1 9 53
M  V30 58 1 13 54
M  V30 59 1 13 55
M  V30 60 1 15 56
M  V30 61 1 15 57
M  V30 62 1 19 58
M  V30 63 1 19 59
M  V30 64 1 23 60
M  V30 65 1 25 61
M  V30 66 1 26 62
M  V30 67 1 27 63
M  V30 68 1 28 64
M  V30 69 1 30 65
M  V30 70 1 30 66
M  V30 71 1 31 67
M  V30 72 1 31 68
M  V30 73 1 31 69
M  V30 74 1 32 70
M  V30 75 1 32 71
M  V30 76 1 34 72
M  V30 77 1 35 73
M  V30 78 1 37 74
M  V30 79 1 38 75
M  V30 80 1 43 76
M  V30 81 1 43 77
M  V30 END BOND
M  V30 END CTAB
M  END
