
     RDKit          3D

  0  0  0  0  0  0  0  0  0  0999 V3000
M  V30 BEGIN CTAB
M  V30 COUNTS 33 34 0 0 0
M  V30 BEGIN ATOM
M  V30 1 F -5.50663 2.92657 0.0665317 0
M  V30 2 C -4.58787 1.92347 0.0223152 0
M  V30 3 C -3.98758 1.46141 1.17363 0
M  V30 4 C -3.07487 0.440755 1.17056 0
M  V30 5 C -2.70814 -0.196251 -0.0487621 0
M  V30 6 C -3.30408 0.265475 -1.17794 0
M  V30 7 C -4.23048 1.30915 -1.16358 0
M  V30 8 C -1.74531 -1.32816 0.0562811 0
M  V30 9 S -0.149 -0.842281 0.730922 0
M  V30 10 C 1.13609 -0.89583 -0.564727 0
M  V30 11 C 2.39892 -0.279067 -0.14667 0
M  V30 12 N 3.23916 -0.91291 0.668721 0
M  V30 13 C 4.42216 -0.433003 1.0621 0
M  V30 14 N 5.29587 -1.12478 1.95768 0
M  V30 15 N 4.75745 0.779064 0.576131 0
M  V30 16 C 3.96483 1.47954 -0.252632 0
M  V30 17 N 2.78056 0.942269 -0.609324 0
M  V30 18 N 4.40758 2.73629 -0.729483 0
M  V30 19 C -2.29071 -2.52394 0.780115 0
M  V30 20 H -4.27094 1.95775 2.1117 0
M  V30 21 H -2.58558 0.0576642 2.07519 0
M  V30 22 H -3.03125 -0.224916 -2.12656 0
M  V30 23 H -4.694 1.6875 -2.06659 0
M  V30 24 H -1.51722 -1.69535 -1.01296 0
M  V30 25 H 0.715206 -0.552291 -1.51751 0
M  V30 26 H 1.38551 -2.03484 -0.669433 0
M  V30 27 H 5.4288 -0.755411 2.94651 0
M  V30 28 H 5.79453 -1.98323 1.62778 0
M  V30 29 H 4.67201 2.79465 -1.75166 0
M  V30 30 H 4.50745 3.60847 -0.180637 0
M  V30 31 H -3.40476 -2.60431 0.74348 0
M  V30 32 H -1.96367 -2.51083 1.86906 0
M  V30 33 H -1.85405 -3.47261 0.345142 0
M  V30 END ATOM
M  V30 BEGIN BOND
M  V30 1 1 1 2
M  V30 2 2 2 3
M  V30 3 1 3 4
M  V30 4 2 4 5
M  V30 5 1 5 6
M  V30 6 2 6 7
M  V30 7 1 5 8
M  V30 8 1 8 9
M  V30 9 1 9 10
M  V30 10 1 10 11
M  V30 11 2 11 12
M  V30 12 1 12 13
M  V30 13 1 13 14
M  V30 14 2 13 15
M  V30 15 1 15 16
M  V30 16 2 16 17
M  V30 17 1 16 18
M  V30 18 1 8 19
M  V30 19 1 7 2
M  V30 20 1 17 11
M  V30 21 1 3 20
M  V30 22 1 4 21
M  V30 23 1 6 22
M  V30 24 1 7 23
M  V30 25 1 8 24
M  V30 26 1 10 25
M  V30 27 1 10 26
M  V30 28 1 14 27
M  V30 29 1 14 28
M  V30 30 1 18 29
M  V30 31 1 18 30
M  V30 32 1 19 31
M  V30 33 1 19 32
M  V30 34 1 19 33
M  V30 END BOND
M  V30 END CTAB
M  END
