
     RDKit          3D

  0  0  0  0  0  0  0  0  0  0999 V3000
M  V30 BEGIN CTAB
M  V30 COUNTS 30 31 0 0 0
M  V30 BEGIN ATOM
M  V30 1 N 5.52364 -0.0596662 -0.336495 0
M  V30 2 N 4.21215 -0.494908 -0.0526934 0
M  V30 3 C 3.12753 0.331615 -0.378259 0
M  V30 4 O 3.35584 1.44497 -0.917645 0
M  V30 5 C 1.76004 -0.0847219 -0.10002 0
M  V30 6 C 1.41181 -1.27875 0.484738 0
M  V30 7 N 0.12657 -1.63617 0.73031 0
M  V30 8 C -0.897506 -0.81749 0.404796 0
M  V30 9 C -0.631399 0.397039 -0.184741 0
M  V30 10 C 0.678879 0.741784 -0.425824 0
M  V30 11 N 0.946796 1.9859 -1.02946 0
M  V30 12 C -1.68994 1.23628 -0.517871 0
M  V30 13 C -3.00469 0.907432 -0.283985 0
M  V30 14 C -3.25906 -0.310217 0.306324 0
M  V30 15 C -2.20634 -1.15285 0.641404 0
M  V30 16 C -2.51034 -2.45407 1.27417 0
M  V30 17 N -4.07922 1.79344 -0.638248 0 CHG=1
M  V30 18 O -3.89074 2.88618 -1.16569 0
M  V30 19 O -5.38031 1.42585 -0.386841 0 CHG=-1
M  V30 20 H 5.53034 0.974057 -0.263772 0
M  V30 21 H 6.12718 -0.495894 0.410477 0
M  V30 22 H 4.0403 -1.41667 0.39282 0
M  V30 23 H 2.16766 -1.98517 0.773226 0
M  V30 24 H 0.884309 2.9099 -0.555668 0
M  V30 25 H 1.23567 2.00646 -2.04257 0
M  V30 26 H -1.49301 2.18819 -0.979244 0
M  V30 27 H -4.28217 -0.59496 0.501958 0
M  V30 28 H -2.30236 -3.32051 0.609068 0
M  V30 29 H -1.90603 -2.59546 2.19646 0
M  V30 30 H -3.59559 -2.53159 1.53327 0
M  V30 END ATOM
M  V30 BEGIN BOND
M  V30 1 1 1 2
M  V30 2 1 2 3
M  V30 3 2 3 4
M  V30 4 1 3 5
M  V30 5 2 5 6
M  V30 6 1 6 7
M  V30 7 2 7 8
M  V30 8 1 8 9
M  V30 9 2 9 10
M  V30 10 1 10 11
M  V30 11 1 9 12
M  V30 12 2 12 13
M  V30 13 1 13 14
M  V30 14 2 14 15
M  V30 15 1 15 16
M  V30 16 1 13 17
M  V30 17 2 17 18
M  V30 18 1 17 19
M  V30 19 1 10 5
M  V30 20 1 15 8
M  V30 21 1 1 20
M  V30 22 1 1 21
M  V30 23 1 2 22
M  V30 24 1 6 23
M  V30 25 1 11 24
M  V30 26 1 11 25
M  V30 27 1 12 26
M  V30 28 1 14 27
M  V30 29 1 16 28
M  V30 30 1 16 29
M  V30 31 1 16 30
M  V30 END BOND
M  V30 END CTAB
M  END
