
     RDKit          3D

  0  0  0  0  0  0  0  0  0  0999 V3000
M  V30 BEGIN CTAB
M  V30 COUNTS 76 81 0 0 0
M  V30 BEGIN ATOM
M  V30 1 N -7.67124 3.02839 -3.00757 0
M  V30 2 C -7.63359 2.32359 -1.78191 0
M  V30 3 C -6.84152 1.19335 -1.59676 0
M  V30 4 C -6.847 0.549604 -0.378445 0
M  V30 5 C -6.07506 -0.593458 -0.149878 0
M  V30 6 N -5.2521 -1.05201 -1.20973 0
M  V30 7 C -3.97011 -0.537183 -1.56067 0
M  V30 8 C -2.95754 -0.632965 -0.475936 0
M  V30 9 C -1.61396 -0.0465576 -0.899505 0
M  V30 10 C -0.678504 -0.192725 0.252831 0
M  V30 11 C 0.681321 0.371306 -0.0512275 0
M  V30 12 C 1.26968 -0.34679 -1.21565 0
M  V30 13 C 2.65661 0.159511 -1.56987 0
M  V30 14 C 3.62307 -0.000774565 -0.445145 0
M  V30 15 N 4.92178 0.497431 -0.842177 0
M  V30 16 C 6.03628 0.468597 0.0375376 0
M  V30 17 C 6.87466 -0.618017 0.0716395 0
M  V30 18 C 6.64276 -1.69495 -0.749419 0
M  V30 19 C 7.46789 -2.78935 -0.730531 0
M  V30 20 N 7.27376 -3.92917 -1.55819 0
M  V30 21 C 8.55305 -2.77066 0.15336 0
M  V30 22 C 8.78659 -1.68766 0.979322 0
M  V30 23 C 7.95186 -0.589827 0.954729 0
M  V30 24 N 8.18567 0.461056 1.762 0
M  V30 25 C 7.3786 1.53454 1.74533 0
M  V30 26 C 6.28999 1.53008 0.867055 0
M  V30 27 C 5.46051 2.61538 0.839271 0
M  V30 28 C 5.71125 3.68695 1.67227 0
M  V30 29 C 6.79048 3.7032 2.54996 0
M  V30 30 C 7.61509 2.60393 2.5656 0
M  V30 31 C -6.09717 -1.24173 1.06972 0
M  V30 32 C -6.89874 -0.740573 2.0849 0
M  V30 33 C -6.96457 -1.36618 3.3055 0
M  V30 34 C -6.24427 -2.51173 3.57642 0
M  V30 35 C -5.44802 -3.01537 2.57354 0
M  V30 36 C -5.36979 -2.39366 1.33032 0
M  V30 37 N -7.63317 0.353384 1.86445 0
M  V30 38 C -7.61918 0.991623 0.67198 0
M  V30 39 C -8.40019 2.11636 0.469866 0
M  V30 40 C -8.40646 2.77099 -0.737687 0
M  V30 41 H -8.02004 2.58066 -3.87472 0
M  V30 42 H -7.33494 4.03426 -3.03459 0
M  V30 43 H -6.2604 0.858554 -2.42669 0
M  V30 44 H -5.65413 -1.84971 -1.7725 0
M  V30 45 H -4.05553 0.562995 -1.80662 0
M  V30 46 H -3.58389 -1.07491 -2.47122 0
M  V30 47 H -2.78923 -1.72319 -0.249021 0
M  V30 48 H -3.32317 -0.127687 0.429186 0
M  V30 49 H -1.22993 -0.63093 -1.76821 0
M  V30 50 H -1.74775 1.01307 -1.17262 0
M  V30 51 H -0.513972 -1.29263 0.462516 0
M  V30 52 H -1.08985 0.198975 1.2063 0
M  V30 53 H 0.588656 1.46608 -0.232105 0
M  V30 54 H 1.28215 0.278952 0.876583 0
M  V30 55 H 1.26738 -1.42915 -1.10849 0
M  V30 56 H 0.649602 -0.091079 -2.12336 0
M  V30 57 H 3.01134 -0.505403 -2.40406 0
M  V30 58 H 2.61121 1.16897 -1.98629 0
M  V30 59 H 3.33553 0.546151 0.469659 0
M  V30 60 H 3.68659 -1.07718 -0.172379 0
M  V30 61 H 5.01352 0.887416 -1.81905 0
M  V30 62 H 5.8054 -1.69053 -1.42036 0
M  V30 63 H 7.16916 -4.88172 -1.13572 0
M  V30 64 H 7.24348 -3.75465 -2.59076 0
M  V30 65 H 9.21342 -3.62914 0.178704 0
M  V30 66 H 9.63425 -1.68218 1.6644 0
M  V30 67 H 4.6276 2.60874 0.165384 0
M  V30 68 H 5.04226 4.5367 1.63479 0
M  V30 69 H 6.96676 4.55399 3.19299 0
M  V30 70 H 8.4574 2.58501 3.23195 0
M  V30 71 H -7.58618 -0.999297 4.13188 0
M  V30 72 H -6.27954 -3.01983 4.52656 0
M  V30 73 H -4.87623 -3.92331 2.78514 0
M  V30 74 H -4.75815 -2.81628 0.551256 0
M  V30 75 H -9.00305 2.45411 1.30467 0
M  V30 76 H -9.04845 3.6562 -0.829593 0
M  V30 END ATOM
M  V30 BEGIN BOND
M  V30 1 1 1 2
M  V30 2 2 2 3
M  V30 3 1 3 4
M  V30 4 2 4 5
M  V30 5 1 5 6
M  V30 6 1 6 7
M  V30 7 1 7 8
M  V30 8 1 8 9
M  V30 9 1 9 10
M  V30 10 1 10 11
M  V30 11 1 11 12
M  V30 12 1 12 13
M  V30 13 1 13 14
M  V30 14 1 14 15
M  V30 15 1 15 16
M  V30 16 1 16 17
M  V30 17 2 17 18
M  V30 18 1 18 19
M  V30 19 1 19 20
M  V30 20 2 19 21
M  V30 21 1 21 22
M  V30 22 2 22 23
M  V30 23 1 23 24
M  V30 24 2 24 25
M  V30 25 1 25 26
M  V30 26 1 26 27
M  V30 27 2 27 28
M  V30 28 1 28 29
M  V30 29 2 29 30
M  V30 30 1 5 31
M  V30 31 2 31 32
M  V30 32 1 32 33
M  V30 33 2 33 34
M  V30 34 1 34 35
M  V30 35 2 35 36
M  V30 36 1 32 37
M  V30 37 2 37 38
M  V30 38 1 38 39
M  V30 39 2 39 40
M  V30 40 1 40 2
M  V30 41 1 38 4
M  V30 42 2 26 16
M  V30 43 1 36 31
M  V30 44 1 23 17
M  V30 45 1 30 25
M  V30 46 1 1 41
M  V30 47 1 1 42
M  V30 48 1 3 43
M  V30 49 1 6 44
M  V30 50 1 7 45
M  V30 51 1 7 46
M  V30 52 1 8 47
M  V30 53 1 8 48
M  V30 54 1 9 49
M  V30 55 1 9 50
M  V30 56 1 10 51
M  V30 57 1 10 52
M  V30 58 1 11 53
M  V30 59 1 11 54
M  V30 60 1 12 55
M  V30 61 1 12 56
M  V30 62 1 13 57
M  V30 63 1 13 58
M  V30 64 1 14 59
M  V30 65 1 14 60
M  V30 66 1 15 61
M  V30 67 1 18 62
M  V30 68 1 20 63
M  V30 69 1 20 64
M  V30 70 1 21 65
M  V30 71 1 22 66
M  V30 72 1 27 67
M  V30 73 1 28 68
M  V30 74 1 29 69
M  V30 75 1 30 70
M  V30 76 1 33 71
M  V30 77 1 34 72
M  V30 78 1 35 73
M  V30 79 1 36 74
M  V30 80 1 39 75
M  V30 81 1 40 76
M  V30 END BOND
M  V30 END CTAB
M  END
