
     RDKit          3D

  0  0  0  0  0  0  0  0  0  0999 V3000
M  V30 BEGIN CTAB
M  V30 COUNTS 43 44 0 0 0
M  V30 BEGIN ATOM
M  V30 1 O -1.25821 2.7905 0.651096 0
M  V30 2 C -1.87163 1.70966 0.461123 0
M  V30 3 C -3.36286 1.77946 0.410396 0
M  V30 4 O -3.82727 0.482186 0.19592 0
M  V30 5 C -5.17682 0.214651 0.0978411 0
M  V30 6 C -6.10233 1.22733 0.209438 0
M  V30 7 C -7.46403 0.909383 0.103428 0
M  V30 8 C -7.86776 -0.383146 -0.107111 0
M  V30 9 C -6.92602 -1.3658 -0.213401 0
M  V30 10 C -5.56134 -1.09186 -0.114036 0
M  V30 11 C -4.56101 -2.18308 -0.233512 0
M  V30 12 N -1.17818 0.481471 0.302455 0
M  V30 13 N 0.209555 0.383802 0.345208 0
M  V30 14 C 0.932458 0.187036 -0.837434 0
M  V30 15 O 0.315203 0.101867 -1.92774 0
M  V30 16 C 2.40927 0.0683045 -0.905638 0
M  V30 17 S 3.19847 0.187031 0.697804 0
M  V30 18 C 4.97344 0.0223676 0.445605 0
M  V30 19 N 5.50252 -0.154994 -0.787152 0
M  V30 20 C 6.82947 -0.279114 -0.96064 0
M  V30 21 N 7.37955 -0.465555 -2.25803 0
M  V30 22 C 7.70355 -0.231334 0.103189 0
M  V30 23 C 7.16038 -0.0494354 1.36514 0
M  V30 24 N 5.83288 0.0679956 1.47704 0
M  V30 25 N 8.03487 0.0060925 2.48619 0
M  V30 26 H -3.70302 2.45033 -0.420274 0
M  V30 27 H -3.67572 2.1917 1.39769 0
M  V30 28 H -5.77786 2.24305 0.373692 0
M  V30 29 H -8.18555 1.70598 0.191775 0
M  V30 30 H -8.90639 -0.627211 -0.186956 0
M  V30 31 H -7.18178 -2.40136 -0.378947 0
M  V30 32 H -4.01884 -2.1387 -1.21154 0
M  V30 33 H -3.82781 -2.10913 0.603913 0
M  V30 34 H -5.05279 -3.16089 -0.152968 0
M  V30 35 H -1.74507 -0.375167 0.147406 0
M  V30 36 H 0.677 0.465025 1.29485 0
M  V30 37 H 2.78485 0.90913 -1.54367 0
M  V30 38 H 2.64352 -0.871879 -1.42334 0
M  V30 39 H 7.53277 0.395153 -2.84105 0
M  V30 40 H 7.62228 -1.4324 -2.61769 0
M  V30 41 H 8.77895 -0.330314 -0.0286961 0
M  V30 42 H 8.52777 0.895838 2.7061 0
M  V30 43 H 8.18356 -0.834054 3.08254 0
M  V30 END ATOM
M  V30 BEGIN BOND
M  V30 1 2 1 2
M  V30 2 1 2 3
M  V30 3 1 3 4
M  V30 4 1 4 5
M  V30 5 2 5 6
M  V30 6 1 6 7
M  V30 7 2 7 8
M  V30 8 1 8 9
M  V30 9 2 9 10
M  V30 10 1 10 11
M  V30 11 1 2 12
M  V30 12 1 12 13
M  V30 13 1 13 14
M  V30 14 2 14 15
M  V30 15 1 14 16
M  V30 16 1 16 17
M  V30 17 1 17 18
M  V30 18 2 18 19
M  V30 19 1 19 20
M  V30 20 1 20 21
M  V30 21 2 20 22
M  V30 22 1 22 23
M  V30 23 2 23 24
M  V30 24 1 23 25
M  V30 25 1 10 5
M  V30 26 1 24 18
M  V30 27 1 3 26
M  V30 28 1 3 27
M  V30 29 1 6 28
M  V30 30 1 7 29
M  V30 31 1 8 30
M  V30 32 1 9 31
M  V30 33 1 11 32
M  V30 34 1 11 33
M  V30 35 1 11 34
M  V30 36 1 12 35
M  V30 37 1 13 36
M  V30 38 1 16 37
M  V30 39 1 16 38
M  V30 40 1 21 39
M  V30 41 1 21 40
M  V30 42 1 22 41
M  V30 43 1 25 42
M  V30 44 1 25 43
M  V30 END BOND
M  V30 END CTAB
M  END
