
     RDKit          3D

  0  0  0  0  0  0  0  0  0  0999 V3000
M  V30 BEGIN CTAB
M  V30 COUNTS 47 48 0 0 0
M  V30 BEGIN ATOM
M  V30 1 N -3.74502 2.69142 -0.63949 0
M  V30 2 C -3.78612 1.60523 -1.56975 0
M  V30 3 C -3.3626 0.33756 -0.902583 0
M  V30 4 C -3.39829 -0.84287 -1.87157 0
M  V30 5 C -4.14497 -0.0276578 0.3282 0
M  V30 6 C -3.19847 -1.05899 0.993139 0
M  V30 7 N -1.90277 -0.597178 0.636541 0
M  V30 8 C -1.94835 0.410277 -0.369094 0
M  V30 9 C -1.07437 -0.226837 1.72156 0
M  V30 10 C 0.323676 -0.663171 1.43589 0
M  V30 11 O 0.823604 -1.57837 2.17047 0
M  V30 12 N 1.12464 -0.127649 0.415908 0
M  V30 13 C 2.43538 -0.60287 0.201214 0
M  V30 14 C 2.83696 -1.89623 0.36196 0
M  V30 15 C 4.18935 -2.23902 0.203668 0
M  V30 16 C 5.07281 -1.23393 -0.114933 0
M  V30 17 C 4.69603 0.0931225 -0.286361 0
M  V30 18 C 3.37002 0.392856 -0.125239 0
M  V30 19 S 5.90453 1.32308 -0.667624 0
M  V30 20 O 5.32073 2.63106 -0.146535 0
M  V30 21 O 7.17354 0.983479 0.0722894 0
M  V30 22 N 6.0931 1.37653 -2.36462 0
M  V30 23 C -1.46676 -0.801795 3.0625 0
M  V30 24 H -3.38628 2.45679 0.295686 0
M  V30 25 H -4.58876 3.29191 -0.652521 0
M  V30 26 H -4.85369 1.46498 -1.88501 0
M  V30 27 H -3.21262 1.80345 -2.50812 0
M  V30 28 H -2.78893 -1.64353 -1.41916 0
M  V30 29 H -2.88598 -0.494983 -2.7893 0
M  V30 30 H -4.43425 -1.16576 -2.09731 0
M  V30 31 H -4.31612 0.798292 1.01181 0
M  V30 32 H -5.10949 -0.484684 0.0857359 0
M  V30 33 H -3.41116 -2.01719 0.475194 0
M  V30 34 H -3.45208 -1.06118 2.05785 0
M  V30 35 H -1.65596 1.42559 -0.0232649 0
M  V30 36 H -1.24194 0.0802374 -1.19131 0
M  V30 37 H -1.06188 0.901891 1.81298 0
M  V30 38 H 0.761808 0.654314 -0.204928 0
M  V30 39 H 2.13183 -2.67278 0.593627 0
M  V30 40 H 4.43692 -3.26529 0.34494 0
M  V30 41 H 6.12238 -1.49487 -0.235659 0
M  V30 42 H 3.06002 1.43511 -0.259888 0
M  V30 43 H 6.69152 0.618702 -2.69569 0
M  V30 44 H 6.37455 2.32438 -2.7184 0
M  V30 45 H -1.78721 -1.84488 2.92866 0
M  V30 46 H -0.530668 -0.817235 3.69017 0
M  V30 47 H -2.19867 -0.241312 3.62784 0
M  V30 END ATOM
M  V30 BEGIN BOND
M  V30 1 1 1 2
M  V30 2 1 2 3
M  V30 3 1 3 4
M  V30 4 1 3 5
M  V30 5 1 5 6
M  V30 6 1 6 7
M  V30 7 1 7 8
M  V30 8 1 7 9
M  V30 9 1 9 10
M  V30 10 2 10 11
M  V30 11 1 10 12
M  V30 12 1 12 13
M  V30 13 2 13 14
M  V30 14 1 14 15
M  V30 15 2 15 16
M  V30 16 1 16 17
M  V30 17 2 17 18
M  V30 18 1 17 19
M  V30 19 2 19 20
M  V30 20 2 19 21
M  V30 21 1 19 22
M  V30 22 1 9 23
M  V30 23 1 8 3
M  V30 24 1 18 13
M  V30 25 1 1 24
M  V30 26 1 1 25
M  V30 27 1 2 26
M  V30 28 1 2 27
M  V30 29 1 4 28
M  V30 30 1 4 29
M  V30 31 1 4 30
M  V30 32 1 5 31
M  V30 33 1 5 32
M  V30 34 1 6 33
M  V30 35 1 6 34
M  V30 36 1 8 35
M  V30 37 1 8 36
M  V30 38 1 9 37
M  V30 39 1 12 38
M  V30 40 1 14 39
M  V30 41 1 15 40
M  V30 42 1 16 41
M  V30 43 1 18 42
M  V30 44 1 22 43
M  V30 45 1 22 44
M  V30 46 1 23 45
M  V30 47 1 23 46
M  V30 48 1 23 47
M  V30 END BOND
M  V30 END CTAB
M  END
