
     RDKit          3D

  0  0  0  0  0  0  0  0  0  0999 V3000
M  V30 BEGIN CTAB
M  V30 COUNTS 46 48 0 0 0
M  V30 BEGIN ATOM
M  V30 1 C 2.80116 4.20563 0.77235 0
M  V30 2 C 2.07747 3.15957 0.0336392 0
M  V30 3 O 2.30284 3.04283 -1.19575 0
M  V30 4 N 1.14589 2.28908 0.652871 0
M  V30 5 C 0.449491 1.26486 -0.116049 0 CFG=2
M  V30 6 C -1.0403 1.52651 -0.0303154 0
M  V30 7 N -1.62924 0.218495 -0.0591519 0
M  V30 8 C -0.614977 -0.811332 0.0444604 0
M  V30 9 C 0.580885 -0.0527226 0.583249 0 CFG=1
M  V30 10 C 1.77921 -0.814369 0.245734 0
M  V30 11 C 2.61426 -1.1881 1.27906 0
M  V30 12 C 3.77999 -1.9174 1.04464 0
M  V30 13 C 4.12033 -2.28058 -0.237571 0
M  V30 14 C 3.30016 -1.91665 -1.27781 0
M  V30 15 C 2.14496 -1.19071 -1.01951 0
M  V30 16 C 5.37169 -3.05614 -0.430004 0
M  V30 17 C -3.02064 -0.0990641 -0.172865 0
M  V30 18 C -3.97772 0.893871 -0.270885 0
M  V30 19 C -5.32144 0.60366 -0.380978 0
M  V30 20 N -6.28366 1.63334 -0.480038 0
M  V30 21 N -5.67144 -0.699743 -0.389588 0
M  V30 22 C -4.77144 -1.68311 -0.296602 0
M  V30 23 N -3.47668 -1.36306 -0.191181 0
M  V30 24 N -5.22569 -3.02204 -0.313542 0
M  V30 25 H 3.65988 3.75023 1.3007 0
M  V30 26 H 2.12465 4.61063 1.54568 0
M  V30 27 H 3.13287 5.01635 0.131907 0
M  V30 28 H 0.960999 2.38819 1.67246 0
M  V30 29 H 0.728512 1.26346 -1.16608 0
M  V30 30 H -1.23566 2.0429 0.931901 0
M  V30 31 H -1.39082 2.17529 -0.865756 0
M  V30 32 H -0.877279 -1.58462 0.802112 0
M  V30 33 H -0.350919 -1.24806 -0.941151 0
M  V30 34 H 0.504194 0.125908 1.65615 0
M  V30 35 H 2.42624 -0.946487 2.3183 0
M  V30 36 H 4.43557 -2.21159 1.84955 0
M  V30 37 H 3.59497 -2.21724 -2.27543 0
M  V30 38 H 1.53066 -0.9234 -1.84128 0
M  V30 39 H 6.09568 -2.72618 0.332063 0
M  V30 40 H 5.7454 -2.95253 -1.46408 0
M  V30 41 H 5.13545 -4.14392 -0.24584 0
M  V30 42 H -3.65374 1.92509 -0.260049 0
M  V30 43 H -6.18686 2.35055 -1.21326 0
M  V30 44 H -7.07822 1.67026 0.174622 0
M  V30 45 H -4.76906 -3.7109 0.354465 0
M  V30 46 H -5.96763 -3.39674 -0.920984 0
M  V30 END ATOM
M  V30 BEGIN BOND
M  V30 1 1 1 2
M  V30 2 2 2 3
M  V30 3 1 2 4
M  V30 4 1 4 5
M  V30 5 1 5 6
M  V30 6 1 6 7
M  V30 7 1 7 8
M  V30 8 1 8 9
M  V30 9 1 9 10
M  V30 10 2 10 11
M  V30 11 1 11 12
M  V30 12 2 12 13
M  V30 13 1 13 14
M  V30 14 2 14 15
M  V30 15 1 13 16
M  V30 16 1 7 17
M  V30 17 2 17 18
M  V30 18 1 18 19
M  V30 19 1 19 20
M  V30 20 2 19 21
M  V30 21 1 21 22
M  V30 22 2 22 23
M  V30 23 1 22 24
M  V30 24 1 9 5
M  V30 25 1 15 10
M  V30 26 1 23 17
M  V30 27 1 1 25
M  V30 28 1 1 26
M  V30 29 1 1 27
M  V30 30 1 4 28
M  V30 31 1 5 29 CFG=3
M  V30 32 1 6 30
M  V30 33 1 6 31
M  V30 34 1 8 32
M  V30 35 1 8 33
M  V30 36 1 9 34 CFG=1
M  V30 37 1 11 35
M  V30 38 1 12 36
M  V30 39 1 14 37
M  V30 40 1 15 38
M  V30 41 1 16 39
M  V30 42 1 16 40
M  V30 43 1 16 41
M  V30 44 1 18 42
M  V30 45 1 20 43
M  V30 46 1 20 44
M  V30 47 1 24 45
M  V30 48 1 24 46
M  V30 END BOND
M  V30 END CTAB
M  END
