
     RDKit          3D

  0  0  0  0  0  0  0  0  0  0999 V3000
M  V30 BEGIN CTAB
M  V30 COUNTS 35 35 0 0 0
M  V30 BEGIN ATOM
M  V30 1 N 4.35784 -0.379974 0.189424 0
M  V30 2 C 3.2018 -0.187867 -0.653428 0
M  V30 3 C 1.90906 -0.2131 0.132181 0
M  V30 4 C 0.784597 -0.0115552 -0.794344 0
M  V30 5 O 1.07764 0.161412 -2.01065 0
M  V30 6 N -0.583237 -0.00612942 -0.370492 0
M  V30 7 C -1.16052 -0.180346 0.941076 0
M  V30 8 C -2.54442 0.434428 0.88414 0
M  V30 9 C -2.56754 1.13146 -0.458855 0
M  V30 10 C -1.69743 0.192858 -1.26962 0
M  V30 11 C -2.47339 -1.06713 -1.52851 0
M  V30 12 N -3.88505 1.27559 -0.997729 0
M  V30 13 C 1.92388 0.915839 1.13832 0
M  V30 14 C 1.86232 -1.55696 0.825029 0
M  V30 15 H 4.6684 0.558297 0.522587 0
M  V30 16 H 5.11193 -0.79852 -0.360147 0
M  V30 17 H 3.23225 -0.965899 -1.43192 0
M  V30 18 H 3.34116 0.788509 -1.179 0
M  V30 19 H -0.623895 0.303621 1.75199 0
M  V30 20 H -1.24586 -1.28479 1.10082 0
M  V30 21 H -2.72498 1.16249 1.67809 0
M  V30 22 H -3.344 -0.326742 0.927417 0
M  V30 23 H -2.01951 2.08399 -0.335278 0
M  V30 24 H -1.40358 0.616272 -2.23936 0
M  V30 25 H -2.00132 -1.68319 -2.32816 0
M  V30 26 H -2.66728 -1.65929 -0.619882 0
M  V30 27 H -3.46357 -0.764189 -1.93241 0
M  V30 28 H -4.63602 1.23078 -0.258205 0
M  V30 29 H -3.94154 2.22727 -1.46153 0
M  V30 30 H 1.14627 1.65371 0.862422 0
M  V30 31 H 1.71807 0.587637 2.16816 0
M  V30 32 H 2.93463 1.40626 1.18205 0
M  V30 33 H 1.2433 -1.54196 1.73759 0
M  V30 34 H 1.56875 -2.32199 0.0994771 0
M  V30 35 H 2.90124 -1.78081 1.14703 0
M  V30 END ATOM
M  V30 BEGIN BOND
M  V30 1 1 1 2
M  V30 2 1 2 3
M  V30 3 1 3 4
M  V30 4 2 4 5
M  V30 5 1 4 6
M  V30 6 1 6 7
M  V30 7 1 7 8
M  V30 8 1 8 9
M  V30 9 1 9 10
M  V30 10 1 10 11
M  V30 11 1 9 12
M  V30 12 1 3 13
M  V30 13 1 3 14
M  V30 14 1 10 6
M  V30 15 1 1 15
M  V30 16 1 1 16
M  V30 17 1 2 17
M  V30 18 1 2 18
M  V30 19 1 7 19
M  V30 20 1 7 20
M  V30 21 1 8 21
M  V30 22 1 8 22
M  V30 23 1 9 23
M  V30 24 1 10 24
M  V30 25 1 11 25
M  V30 26 1 11 26
M  V30 27 1 11 27
M  V30 28 1 12 28
M  V30 29 1 12 29
M  V30 30 1 13 30
M  V30 31 1 13 31
M  V30 32 1 13 32
M  V30 33 1 14 33
M  V30 34 1 14 34
M  V30 35 1 14 35
M  V30 END BOND
M  V30 END CTAB
M  END
