
     RDKit          3D

  0  0  0  0  0  0  0  0  0  0999 V3000
M  V30 BEGIN CTAB
M  V30 COUNTS 35 34 0 0 0
M  V30 BEGIN ATOM
M  V30 1 C 4.30733 0.203451 -0.529636 0 CFG=2
M  V30 2 C 4.52267 0.379435 0.94949 0
M  V30 3 N 4.9194 1.30379 -1.27788 0
M  V30 4 C 2.85239 0.171323 -0.781353 0
M  V30 5 O 2.31311 1.00539 -1.5394 0
M  V30 6 N 2.06205 -0.814842 -0.156887 0
M  V30 7 C 0.641556 -0.851913 -0.398136 0
M  V30 8 C -0.000535012 -1.98204 0.367822 0
M  V30 9 C -1.4694 -1.98463 0.0871128 0
M  V30 10 N -2.07055 -0.755097 0.505872 0
M  V30 11 C -3.47223 -0.528764 0.329576 0
M  V30 12 O -4.16652 -1.42632 -0.198487 0
M  V30 13 C -4.0959 0.738256 0.760254 0 CFG=2
M  V30 14 C -4.64823 1.43074 -0.479795 0
M  V30 15 N -3.07926 1.59334 1.33283 0
M  V30 16 H 4.77741 -0.750107 -0.840497 0
M  V30 17 H 3.83192 -0.25425 1.51961 0
M  V30 18 H 5.58842 0.169087 1.22641 0
M  V30 19 H 4.30928 1.43517 1.23886 0
M  V30 20 H 4.69774 1.20405 -2.27991 0
M  V30 21 H 4.53602 2.17374 -0.87886 0
M  V30 22 H 2.47935 -1.50857 0.467657 0
M  V30 23 H 0.188409 0.107341 -0.127259 0
M  V30 24 H 0.508735 -1.07462 -1.49231 0
M  V30 25 H 0.42614 -2.96117 0.0660848 0
M  V30 26 H 0.196509 -1.79334 1.44142 0
M  V30 27 H -1.67056 -2.14854 -0.986635 0
M  V30 28 H -1.95567 -2.81483 0.638772 0
M  V30 29 H -1.50131 -0.0157887 0.944912 0
M  V30 30 H -4.87082 0.582935 1.53096 0
M  V30 31 H -5.17866 0.702578 -1.14044 0
M  V30 32 H -3.7594 1.82596 -1.02541 0
M  V30 33 H -5.26993 2.27674 -0.169104 0
M  V30 34 H -3.50493 2.38615 1.86395 0
M  V30 35 H -2.44453 1.97533 0.606075 0
M  V30 END ATOM
M  V30 BEGIN BOND
M  V30 1 1 1 2
M  V30 2 1 1 3
M  V30 3 1 1 4
M  V30 4 2 4 5
M  V30 5 1 4 6
M  V30 6 1 6 7
M  V30 7 1 7 8
M  V30 8 1 8 9
M  V30 9 1 9 10
M  V30 10 1 10 11
M  V30 11 2 11 12
M  V30 12 1 11 13
M  V30 13 1 13 14
M  V30 14 1 13 15
M  V30 15 1 1 16 CFG=3
M  V30 16 1 2 17
M  V30 17 1 2 18
M  V30 18 1 2 19
M  V30 19 1 3 20
M  V30 20 1 3 21
M  V30 21 1 6 22
M  V30 22 1 7 23
M  V30 23 1 7 24
M  V30 24 1 8 25
M  V30 25 1 8 26
M  V30 26 1 9 27
M  V30 27 1 9 28
M  V30 28 1 10 29
M  V30 29 1 13 30 CFG=1
M  V30 30 1 14 31
M  V30 31 1 14 32
M  V30 32 1 14 33
M  V30 33 1 15 34
M  V30 34 1 15 35
M  V30 END BOND
M  V30 END CTAB
M  END
