
     RDKit          3D

  0  0  0  0  0  0  0  0  0  0999 V3000
M  V30 BEGIN CTAB
M  V30 COUNTS 26 25 0 0 0
M  V30 BEGIN ATOM
M  V30 1 C -3.25428 -0.681934 0.00492381 0
M  V30 2 O -2.20625 0.08832 0.525912 0
M  V30 3 C -1.02979 -0.408825 -0.0327619 0
M  V30 4 C 0.137642 0.393088 0.500387 0
M  V30 5 C 1.42592 -0.0326261 -0.112999 0
M  V30 6 C 1.75247 -1.48649 0.146285 0
M  V30 7 N 3.01246 -1.84325 -0.47201 0
M  V30 8 C -0.0761529 1.85893 0.165467 0
M  V30 9 N -0.148279 2.07727 -1.26515 0
M  V30 10 O 0.19312 0.28226 1.87477 0
M  V30 11 H -3.2826 -0.594565 -1.11085 0
M  V30 12 H -3.11265 -1.75942 0.265247 0
M  V30 13 H -4.23546 -0.385416 0.378187 0
M  V30 14 H -0.937337 -1.45984 0.293447 0
M  V30 15 H -1.03803 -0.291605 -1.13947 0
M  V30 16 H 2.23874 0.592336 0.320892 0
M  V30 17 H 1.45149 0.1393 -1.2071 0
M  V30 18 H 0.917584 -2.11026 -0.255488 0
M  V30 19 H 1.83652 -1.71736 1.21616 0
M  V30 20 H 3.57242 -2.51042 0.137898 0
M  V30 21 H 3.63555 -1.01806 -0.619266 0
M  V30 22 H -0.906039 2.3118 0.720032 0
M  V30 23 H 0.852991 2.39063 0.522054 0
M  V30 24 H -1.07733 2.49855 -1.49256 0
M  V30 25 H 0.625283 2.65794 -1.63496 0
M  V30 26 H -0.347987 1.00963 2.27096 0
M  V30 END ATOM
M  V30 BEGIN BOND
M  V30 1 1 1 2
M  V30 2 1 2 3
M  V30 3 1 3 4
M  V30 4 1 4 5
M  V30 5 1 5 6
M  V30 6 1 6 7
M  V30 7 1 4 8
M  V30 8 1 8 9
M  V30 9 1 4 10
M  V30 10 1 1 11
M  V30 11 1 1 12
M  V30 12 1 1 13
M  V30 13 1 3 14
M  V30 14 1 3 15
M  V30 15 1 5 16
M  V30 16 1 5 17
M  V30 17 1 6 18
M  V30 18 1 6 19
M  V30 19 1 7 20
M  V30 20 1 7 21
M  V30 21 1 8 22
M  V30 22 1 8 23
M  V30 23 1 9 24
M  V30 24 1 9 25
M  V30 25 1 10 26
M  V30 END BOND
M  V30 END CTAB
M  END
