
     RDKit          3D

  0  0  0  0  0  0  0  0  0  0999 V3000
M  V30 BEGIN CTAB
M  V30 COUNTS 22 22 0 0 0
M  V30 BEGIN ATOM
M  V30 1 C 5.09033 0.675914 -0.502632 0
M  V30 2 C 4.25082 -0.109769 -0.395001 0
M  V30 3 C 3.08618 -1.03432 -0.162419 0
M  V30 4 O 1.9562 -0.325637 -0.683657 0
M  V30 5 N 1.08101 -0.210399 0.403221 0
M  V30 6 C -0.285279 0.0565408 0.166398 0
M  V30 7 C -1.14244 -1.04833 0.271223 0
M  V30 8 C -2.47686 -0.74469 0.101328 0
M  V30 9 N -3.39726 -1.83043 0.28904 0
M  V30 10 N -2.90848 0.517391 -0.161508 0
M  V30 11 C -2.06082 1.56269 -0.288778 0
M  V30 12 N -0.789014 1.20839 -0.109311 0
M  V30 13 N -2.45665 2.89582 -0.573453 0
M  V30 14 H 5.86591 1.42443 -0.641232 0
M  V30 15 H 3.18905 -1.94324 -0.821546 0
M  V30 16 H 2.92253 -1.27807 0.851032 0
M  V30 17 H 1.50891 -0.264114 1.35828 0
M  V30 18 H -0.706792 -1.96176 0.45912 0
M  V30 19 H -4.2551 -1.6391 0.91916 0
M  V30 20 H -3.29273 -2.71786 -0.150764 0
M  V30 21 H -2.03729 3.6902 -0.0142693 0
M  V30 22 H -3.14222 3.07634 -1.31066 0
M  V30 END ATOM
M  V30 BEGIN BOND
M  V30 1 3 1 2
M  V30 2 1 2 3
M  V30 3 1 3 4
M  V30 4 1 4 5
M  V30 5 1 5 6
M  V30 6 2 6 7
M  V30 7 1 7 8
M  V30 8 1 8 9
M  V30 9 2 8 10
M  V30 10 1 10 11
M  V30 11 2 11 12
M  V30 12 1 11 13
M  V30 13 1 12 6
M  V30 14 1 1 14
M  V30 15 1 3 15
M  V30 16 1 3 16
M  V30 17 1 5 17
M  V30 18 1 7 18
M  V30 19 1 9 19
M  V30 20 1 9 20
M  V30 21 1 13 21
M  V30 22 1 13 22
M  V30 END BOND
M  V30 END CTAB
M  END
