
     RDKit          3D

  0  0  0  0  0  0  0  0  0  0999 V3000
M  V30 BEGIN CTAB
M  V30 COUNTS 144 146 0 0 0
M  V30 BEGIN ATOM
M  V30 1 C -3.63862 0.870445 -0.865623 0 CFG=2
M  V30 2 C -4.01715 2.13473 -1.53033 0
M  V30 3 C -5.38309 2.17969 -2.08701 0
M  V30 4 C -5.66137 1.43347 -3.32608 0
M  V30 5 N -5.54913 0.0474535 -3.46229 0
M  V30 6 C -6.40453 -0.966142 -2.96012 0
M  V30 7 N -6.05368 -2.32946 -3.12443 0
M  V30 8 N -7.4849 -0.657373 -2.37127 0
M  V30 9 N -4.39646 0.661755 0.328664 0
M  V30 10 C -4.95406 -0.546788 0.755058 0
M  V30 11 O -4.83749 -1.58784 0.107866 0
M  V30 12 C -5.72248 -0.59552 2.04547 0 CFG=2
M  V30 13 C -5.13224 -1.74282 2.85447 0
M  V30 14 C -5.82764 -2.98653 2.35199 0
M  V30 15 C -7.05671 -2.44332 1.65368 0
M  V30 16 N -7.09769 -1.01868 1.89249 0
M  V30 17 C -8.18995 -0.126317 2.01074 0
M  V30 18 O -7.92332 1.1037 2.28241 0
M  V30 19 C -9.63107 -0.505688 1.85088 0 CFG=2
M  V30 20 C -9.93738 -1.04607 0.484477 0
M  V30 21 C -11.3923 -1.39015 0.37723 0
M  V30 22 C -11.8344 -2.4157 1.36721 0
M  V30 23 N -13.2465 -2.68126 1.13482 0
M  V30 24 C -13.996 -3.58728 1.9333 0
M  V30 25 N -13.4133 -4.26328 3.04571 0
M  V30 26 N -15.2205 -3.79773 1.64787 0
M  V30 27 N -10.4787 0.609109 2.19983 0
M  V30 28 C -10.5797 1.77507 1.4243 0
M  V30 29 O -9.90474 1.91538 0.345881 0
M  V30 30 C -11.464 2.89645 1.80751 0
M  V30 31 N -11.4386 3.96858 0.866975 0
M  V30 32 C -11.853 3.84522 -0.460797 0
M  V30 33 C -11.8225 4.95672 -1.45542 0
M  V30 34 O -12.2888 2.73538 -0.89031 0
M  V30 35 C -2.14606 0.761377 -0.619935 0
M  V30 36 O -1.80476 0.556637 0.539934 0
M  V30 37 N -1.33331 0.904921 -1.75306 0
M  V30 38 C 0.0759017 0.831738 -1.78113 0
M  V30 39 C 0.693505 0.650604 -3.03821 0
M  V30 40 C 2.03951 0.550145 -3.13153 0
M  V30 41 C 2.86896 0.618154 -2.01341 0
M  V30 42 C 2.26145 0.794653 -0.803945 0
M  V30 43 C 0.894794 0.899449 -0.695403 0
M  V30 44 C 4.29488 0.456221 -2.1743 0
M  V30 45 O 4.63363 -0.370914 -3.09739 0
M  V30 46 N 5.24617 1.1345 -1.40493 0
M  V30 47 C 6.67658 0.901982 -1.65807 0 CFG=1
M  V30 48 C 7.22774 2.08981 -2.43041 0
M  V30 49 C 8.67598 1.92531 -2.73314 0
M  V30 50 C 6.95045 3.40063 -1.73368 0
M  V30 51 C 7.39597 0.638911 -0.416113 0
M  V30 52 O 7.22849 1.27214 0.647525 0
M  V30 53 N 8.34391 -0.406772 -0.431439 0
M  V30 54 C 9.19917 -0.829763 0.675453 0 CFG=1
M  V30 55 C 8.4207 -1.78367 1.55368 0
M  V30 56 C 9.11883 -2.33246 2.70087 0
M  V30 57 C 9.61405 -3.61038 2.65657 0
M  V30 58 C 10.3092 -4.11772 3.71389 0
M  V30 59 C 10.5202 -3.3486 4.83938 0
M  V30 60 C 10.0228 -2.07699 4.87975 0
M  V30 61 C 9.31854 -1.56016 3.81349 0
M  V30 62 C 10.4708 -1.28499 0.141615 0
M  V30 63 O 10.6136 -1.36381 -1.15834 0
M  V30 64 N 11.6353 -1.67306 0.837895 0
M  V30 65 C 12.8393 -2.10845 0.167639 0
M  V30 66 C 13.5354 -1.01337 -0.611081 0
M  V30 67 C 14.0166 0.0687642 0.350019 0
M  V30 68 C 14.7136 1.15057 -0.381222 0
M  V30 69 C 13.8062 1.82588 -1.36305 0
M  V30 70 C 14.544 2.95179 -2.09785 0
M  V30 71 H -3.83786 0.00579004 -1.53078 0
M  V30 72 H -3.93423 2.98936 -0.760828 0
M  V30 73 H -3.23476 2.41504 -2.27188 0
M  V30 74 H -5.66591 3.25666 -2.27995 0
M  V30 75 H -6.12961 1.88491 -1.27572 0
M  V30 76 H -6.77559 1.66349 -3.56438 0
M  V30 77 H -5.14024 1.91999 -4.22091 0
M  V30 78 H -4.68559 -0.295147 -4.03536 0
M  V30 79 H -5.08384 -2.68088 -2.87417 0
M  V30 80 H -6.70622 -3.04722 -3.4938 0
M  V30 81 H -7.73363 0.351869 -2.26263 0
M  V30 82 H -4.52469 1.55985 0.917966 0
M  V30 83 H -5.59814 0.370243 2.5378 0
M  V30 84 H -5.37539 -1.62475 3.92488 0
M  V30 85 H -4.04756 -1.82642 2.75848 0
M  V30 86 H -5.23777 -3.56163 1.62047 0
M  V30 87 H -6.19486 -3.63057 3.1845 0
M  V30 88 H -6.98771 -2.61353 0.5646 0
M  V30 89 H -7.97753 -2.95058 2.02931 0
M  V30 90 H -9.7896 -1.37188 2.55455 0
M  V30 91 H -9.30676 -1.9647 0.331168 0
M  V30 92 H -9.64008 -0.369536 -0.337392 0
M  V30 93 H -11.6229 -1.67555 -0.667956 0
M  V30 94 H -11.9443 -0.40398 0.544716 0
M  V30 95 H -11.6933 -2.04734 2.41646 0
M  V30 96 H -11.2824 -3.34284 1.21478 0
M  V30 97 H -13.7084 -2.18932 0.351498 0
M  V30 98 H -13.1801 -5.27731 2.97383 0
M  V30 99 H -13.2046 -3.77276 3.94275 0
M  V30 100 H -15.7115 -3.34011 0.857066 0
M  V30 101 H -11.0451 0.544006 3.07159 0
M  V30 102 H -12.5243 2.51037 1.91161 0
M  V30 103 H -11.1931 3.24401 2.82765 0
M  V30 104 H -11.0859 4.90532 1.19403 0
M  V30 105 H -12.7834 4.87751 -2.03291 0
M  V30 106 H -11.6842 5.92209 -0.962698 0
M  V30 107 H -10.9767 4.75663 -2.18194 0
M  V30 108 H -1.80767 1.09293 -2.71251 0
M  V30 109 H 0.0454968 0.598551 -3.91328 0
M  V30 110 H 2.55243 0.413543 -4.08928 0
M  V30 111 H 2.84145 0.860115 0.127978 0
M  V30 112 H 0.43314 1.04659 0.289852 0
M  V30 113 H 4.96938 1.79322 -0.664893 0
M  V30 114 H 6.74369 0.0377219 -2.33595 0
M  V30 115 H 6.65627 2.11205 -3.39888 0
M  V30 116 H 9.28233 1.99204 -1.79859 0
M  V30 117 H 9.05504 2.78902 -3.36326 0
M  V30 118 H 8.93988 0.982633 -3.21079 0
M  V30 119 H 5.99874 3.85668 -2.10009 0
M  V30 120 H 6.96718 3.35772 -0.645881 0
M  V30 121 H 7.76462 4.10334 -2.08475 0
M  V30 122 H 8.48127 -0.974227 -1.32051 0
M  V30 123 H 9.36333 0.105701 1.29196 0
M  V30 124 H 8.02428 -2.59806 0.876471 0
M  V30 125 H 7.48638 -1.27184 1.92896 0
M  V30 126 H 9.43356 -4.20136 1.75317 0
M  V30 127 H 10.6909 -5.13511 3.66225 0
M  V30 128 H 11.0898 -3.78764 5.67595 0
M  V30 129 H 10.1819 -1.45832 5.75696 0
M  V30 130 H 8.93058 -0.532796 3.88531 0
M  V30 131 H 11.66 -1.61195 1.87986 0
M  V30 132 H 13.5328 -2.6444 0.83983 0
M  V30 133 H 12.5188 -2.88244 -0.592493 0
M  V30 134 H 12.8044 -0.531535 -1.2663 0
M  V30 135 H 14.3616 -1.4322 -1.18735 0
M  V30 136 H 13.1633 0.468471 0.93341 0
M  V30 137 H 14.7235 -0.413791 1.09047 0
M  V30 138 H 15.6138 0.71541 -0.921367 0
M  V30 139 H 15.0697 1.91465 0.356765 0
M  V30 140 H 12.9579 2.32055 -0.843912 0
M  V30 141 H 13.3936 1.15711 -2.11893 0
M  V30 142 H 15.3061 3.30896 -1.36636 0
M  V30 143 H 15.1172 2.57718 -2.95835 0
M  V30 144 H 13.8105 3.73213 -2.34288 0
M  V30 END ATOM
M  V30 BEGIN BOND
M  V30 1 1 1 2
M  V30 2 1 2 3
M  V30 3 1 3 4
M  V30 4 1 4 5
M  V30 5 1 5 6
M  V30 6 1 6 7
M  V30 7 2 6 8 CFG=2
M  V30 8 1 1 9
M  V30 9 1 9 10
M  V30 10 2 10 11
M  V30 11 1 10 12
M  V30 12 1 12 13
M  V30 13 1 13 14
M  V30 14 1 14 15
M  V30 15 1 15 16
M  V30 16 1 16 17
M  V30 17 2 17 18
M  V30 18 1 17 19
M  V30 19 1 19 20
M  V30 20 1 20 21
M  V30 21 1 21 22
M  V30 22 1 22 23
M  V30 23 1 23 24
M  V30 24 1 24 25
M  V30 25 2 24 26 CFG=2
M  V30 26 1 19 27
M  V30 27 1 27 28
M  V30 28 2 28 29
M  V30 29 1 28 30
M  V30 30 1 30 31
M  V30 31 1 31 32
M  V30 32 1 32 33
M  V30 33 2 32 34
M  V30 34 1 1 35
M  V30 35 2 35 36
M  V30 36 1 35 37
M  V30 37 1 37 38
M  V30 38 2 38 39
M  V30 39 1 39 40
M  V30 40 2 40 41
M  V30 41 1 41 42
M  V30 42 2 42 43
M  V30 43 1 41 44
M  V30 44 2 44 45
M  V30 45 1 44 46
M  V30 46 1 46 47
M  V30 47 1 47 48
M  V30 48 1 48 49
M  V30 49 1 48 50
M  V30 50 1 47 51
M  V30 51 2 51 52
M  V30 52 1 51 53
M  V30 53 1 53 54
M  V30 54 1 54 55
M  V30 55 1 55 56
M  V30 56 2 56 57
M  V30 57 1 57 58
M  V30 58 2 58 59
M  V30 59 1 59 60
M  V30 60 2 60 61
M  V30 61 1 54 62
M  V30 62 2 62 63
M  V30 63 1 62 64
M  V30 64 1 64 65
M  V30 65 1 65 66
M  V30 66 1 66 67
M  V30 67 1 67 68
M  V30 68 1 68 69
M  V30 69 1 69 70
M  V30 70 1 16 12
M  V30 71 1 43 38
M  V30 72 1 61 56
M  V30 73 1 1 71 CFG=3
M  V30 74 1 2 72
M  V30 75 1 2 73
M  V30 76 1 3 74
M  V30 77 1 3 75
M  V30 78 1 4 76
M  V30 79 1 4 77
M  V30 80 1 5 78
M  V30 81 1 7 79
M  V30 82 1 7 80
M  V30 83 1 8 81
M  V30 84 1 9 82
M  V30 85 1 12 83 CFG=1
M  V30 86 1 13 84
M  V30 87 1 13 85
M  V30 88 1 14 86
M  V30 89 1 14 87
M  V30 90 1 15 88
M  V30 91 1 15 89
M  V30 92 1 19 90 CFG=1
M  V30 93 1 20 91
M  V30 94 1 20 92
M  V30 95 1 21 93
M  V30 96 1 21 94
M  V30 97 1 22 95
M  V30 98 1 22 96
M  V30 99 1 23 97
M  V30 100 1 25 98
M  V30 101 1 25 99
M  V30 102 1 26 100
M  V30 103 1 27 101
M  V30 104 1 30 102
M  V30 105 1 30 103
M  V30 106 1 31 104
M  V30 107 1 33 105
M  V30 108 1 33 106
M  V30 109 1 33 107
M  V30 110 1 37 108
M  V30 111 1 39 109
M  V30 112 1 40 110
M  V30 113 1 42 111
M  V30 114 1 43 112
M  V30 115 1 46 113
M  V30 116 1 47 114 CFG=3
M  V30 117 1 48 115
M  V30 118 1 49 116
M  V30 119 1 49 117
M  V30 120 1 49 118
M  V30 121 1 50 119
M  V30 122 1 50 120
M  V30 123 1 50 121
M  V30 124 1 53 122
M  V30 125 1 54 123 CFG=1
M  V30 126 1 55 124
M  V30 127 1 55 125
M  V30 128 1 57 126
M  V30 129 1 58 127
M  V30 130 1 59 128
M  V30 131 1 60 129
M  V30 132 1 61 130
M  V30 133 1 64 131
M  V30 134 1 65 132
M  V30 135 1 65 133
M  V30 136 1 66 134
M  V30 137 1 66 135
M  V30 138 1 67 136
M  V30 139 1 67 137
M  V30 140 1 68 138
M  V30 141 1 68 139
M  V30 142 1 69 140
M  V30 143 1 69 141
M  V30 144 1 70 142
M  V30 145 1 70 143
M  V30 146 1 70 144
M  V30 END BOND
M  V30 END CTAB
M  END
