
     RDKit          3D

  0  0  0  0  0  0  0  0  0  0999 V3000
M  V30 BEGIN CTAB
M  V30 COUNTS 137 137 0 0 0
M  V30 BEGIN ATOM
M  V30 1 C 12.1886 -3.14747 1.34824 0
M  V30 2 C 12.4068 -1.65236 1.42469 0
M  V30 3 C 12.9242 -1.29289 2.79404 0
M  V30 4 C 10.9951 -1.02271 1.33196 0
M  V30 5 C 10.351 -1.3604 0.0532235 0 CFG=2
M  V30 6 N 11.085 -0.927258 -1.12345 0
M  V30 7 C 10.694 0.186493 -1.88225 0
M  V30 8 O 9.70591 0.902245 -1.64442 0
M  V30 9 C 11.4946 0.618804 -3.08872 0 CFG=1
M  V30 10 N 10.7764 1.61712 -3.83791 0
M  V30 11 C 12.8255 1.21766 -2.55388 0
M  V30 12 C 12.5471 2.3389 -1.66054 0
M  V30 13 C 12.4448 2.29193 -0.291567 0
M  V30 14 C 12.1101 3.31544 0.551349 0
M  V30 15 C 11.845 4.55401 -0.0145142 0
M  V30 16 O 11.4937 5.65284 0.791178 0
M  V30 17 C 11.934 4.65542 -1.37902 0
M  V30 18 C 12.267 3.62967 -2.21075 0
M  V30 19 C 8.92336 -0.943988 0.0103874 0
M  V30 20 O 8.18177 -1.13859 -0.941783 0
M  V30 21 N 8.42358 -0.23737 1.18076 0
M  V30 22 C 7.1066 0.259926 1.30683 0
M  V30 23 C 5.97527 -0.637541 1.24301 0
M  V30 24 O 6.11685 -1.8645 1.05 0
M  V30 25 N 4.6232 -0.18431 1.40132 0
M  V30 26 C 3.53407 -1.10428 1.30792 0 CFG=1
M  V30 27 C 3.15163 -1.57197 2.73314 0
M  V30 28 C 2.29766 -0.481929 0.789446 0
M  V30 29 O 2.23375 0.741866 0.528695 0
M  V30 30 N 1.15753 -1.30372 0.575397 0
M  V30 31 C -0.0513373 -0.666611 0.0508497 0 CFG=1
M  V30 32 C -0.366255 -1.15822 -1.3104 0 CFG=1
M  V30 33 C -0.582165 -2.67039 -1.32236 0
M  V30 34 O -1.44734 -0.531936 -1.91149 0
M  V30 35 C -1.10692 -0.746847 1.06278 0
M  V30 36 O -0.675214 -1.42971 2.1551 0
M  V30 37 N -2.30552 -0.319509 1.13744 0
M  V30 38 C -3.61512 -0.0551635 1.67603 0 CFG=1
M  V30 39 C -3.84247 1.35203 2.15474 0
M  V30 40 C -3.73659 2.46851 1.20873 0
M  V30 41 C -2.48185 2.77466 0.514788 0
M  V30 42 C -4.17363 3.74749 1.97564 0
M  V30 43 C -4.65091 -0.477261 0.739424 0
M  V30 44 O -4.47105 -0.820748 -0.403598 0
M  V30 45 N -6.01171 -0.458808 1.25737 0
M  V30 46 C -7.09741 -0.779157 0.410396 0 CFG=1
M  V30 47 C -7.07021 -2.33395 0.212416 0
M  V30 48 C -8.19637 -2.78863 -0.631853 0
M  V30 49 C -8.18519 -4.27928 -0.784779 0
M  V30 50 C -8.2878 -5.01001 0.54833 0
M  V30 51 N -8.30552 -6.4304 0.332082 0
M  V30 52 C -8.47425 -0.433304 0.858429 0
M  V30 53 O -8.92559 -0.725772 1.92198 0
M  V30 54 N -9.26076 0.321945 -0.119858 0
M  V30 55 C -10.557 0.726901 0.0158583 0
M  V30 56 C -11.8692 1.15044 0.173826 0
M  V30 57 O -12.2749 1.84682 1.18217 0
M  V30 58 N -12.7577 0.806209 -0.812033 0
M  V30 59 C -14.1513 1.05689 -1.10951 0 CFG=1
M  V30 60 C -14.3341 2.37742 -1.82809 0
M  V30 61 C -13.5673 2.45217 -3.08401 0
M  V30 62 C -14.1342 3.5804 -0.937847 0
M  V30 63 C -14.8406 -0.0722333 -1.65123 0
M  V30 64 O -15.9274 -0.386973 -2.31229 0
M  V30 65 O -14.0991 -1.22286 -1.40348 0
M  V30 66 H 12.8629 -3.7532 1.97706 0
M  V30 67 H 12.2346 -3.41454 0.274188 0
M  V30 68 H 11.152 -3.34953 1.71366 0
M  V30 69 H 13.0684 -1.27254 0.623481 0
M  V30 70 H 13.9629 -0.895633 2.7943 0
M  V30 71 H 12.9591 -2.2292 3.3884 0
M  V30 72 H 12.2286 -0.609653 3.32973 0
M  V30 73 H 10.4616 -1.50133 2.17376 0
M  V30 74 H 11.073 0.0785369 1.52126 0
M  V30 75 H 10.2672 -2.50659 -0.0107286 0
M  V30 76 H 11.9257 -1.48905 -1.40597 0
M  V30 77 H 11.7613 -0.250854 -3.68061 0
M  V30 78 H 10.0086 1.12889 -4.37297 0
M  V30 79 H 10.2332 2.21169 -3.14497 0
M  V30 80 H 13.4648 1.48629 -3.39942 0
M  V30 81 H 13.3235 0.359686 -2.05158 0
M  V30 82 H 12.6825 1.30374 0.1641 0
M  V30 83 H 12.0257 3.22462 1.62432 0
M  V30 84 H 12.2622 6.21857 1.10715 0
M  V30 85 H 11.7294 5.65065 -1.77956 0
M  V30 86 H 12.3231 3.72379 -3.28218 0
M  V30 87 H 9.09869 -0.0804946 1.94258 0
M  V30 88 H 7.05963 0.777801 2.30955 0
M  V30 89 H 6.95646 1.10818 0.54371 0
M  V30 90 H 4.44057 0.838598 1.56954 0
M  V30 91 H 3.84263 -2.02457 0.79376 0
M  V30 92 H 2.58715 -0.770746 3.22937 0
M  V30 93 H 4.00618 -1.96425 3.2685 0
M  V30 94 H 2.43126 -2.39873 2.54308 0
M  V30 95 H 1.18822 -2.29936 0.798886 0
M  V30 96 H 0.142714 0.447367 -0.0678101 0
M  V30 97 H 0.511376 -0.969989 -1.95265 0
M  V30 98 H -0.0541109 -3.18065 -0.490604 0
M  V30 99 H -1.67386 -2.91526 -1.18356 0
M  V30 100 H -0.282792 -3.0568 -2.30647 0
M  V30 101 H -1.22221 0.394088 -2.0953 0
M  V30 102 H -2.46811 0.191437 0.0103198 0
M  V30 103 H -3.67162 -0.70728 2.60012 0
M  V30 104 H -4.95944 1.3461 2.46051 0
M  V30 105 H -3.29096 1.52448 3.09578 0
M  V30 106 H -4.56112 2.379 0.419845 0
M  V30 107 H -2.51804 3.87258 0.239208 0
M  V30 108 H -1.61112 2.59982 1.1946 0
M  V30 109 H -2.29429 2.25826 -0.451372 0
M  V30 110 H -3.48922 3.89503 2.84839 0
M  V30 111 H -4.08162 4.62647 1.32226 0
M  V30 112 H -5.2433 3.68403 2.27528 0
M  V30 113 H -6.12539 -0.209623 2.25324 0
M  V30 114 H -6.91993 -0.418217 -0.609118 0
M  V30 115 H -6.95449 -2.87129 1.12834 0
M  V30 116 H -6.14201 -2.46218 -0.421801 0
M  V30 117 H -9.19122 -2.42399 -0.269108 0
M  V30 118 H -8.06918 -2.36485 -1.6733 0
M  V30 119 H -9.05977 -4.6086 -1.40129 0
M  V30 120 H -7.27342 -4.649 -1.30408 0
M  V30 121 H -7.40264 -4.79966 1.18519 0
M  V30 122 H -9.19275 -4.67093 1.10906 0
M  V30 123 H -7.85919 -7.01414 1.03012 0
M  V30 124 H -8.49372 -6.76131 -0.59562 0
M  V30 125 H -8.70459 0.530905 -0.996263 0
M  V30 126 H -10.3585 1.82531 -0.782934 0
M  V30 127 H -10.0742 1.66059 0.93562 0
M  V30 128 H -12.2978 0.166645 -1.61057 0
M  V30 129 H -14.5876 1.33469 -0.0637455 0
M  V30 130 H -15.4567 2.38384 -2.06252 0
M  V30 131 H -12.5451 2.87923 -2.87163 0
M  V30 132 H -13.356 1.40929 -3.4554 0
M  V30 133 H -14.084 3.05731 -3.85561 0
M  V30 134 H -13.0736 3.84211 -0.770242 0
M  V30 135 H -14.5739 3.35156 0.0780477 0
M  V30 136 H -14.6901 4.4278 -1.40928 0
M  V30 137 H -16.3476 -1.28012 -2.39641 0
M  V30 END ATOM
M  V30 BEGIN BOND
M  V30 1 1 1 2
M  V30 2 1 2 3
M  V30 3 1 2 4
M  V30 4 1 4 5
M  V30 5 1 5 6
M  V30 6 1 6 7
M  V30 7 2 7 8
M  V30 8 1 7 9
M  V30 9 1 9 10
M  V30 10 1 9 11
M  V30 11 1 11 12
M  V30 12 2 12 13
M  V30 13 1 13 14
M  V30 14 2 14 15
M  V30 15 1 15 16
M  V30 16 1 15 17
M  V30 17 2 17 18
M  V30 18 1 5 19
M  V30 19 2 19 20
M  V30 20 1 19 21
M  V30 21 1 21 22
M  V30 22 1 22 23
M  V30 23 2 23 24
M  V30 24 1 23 25
M  V30 25 1 25 26
M  V30 26 1 26 27
M  V30 27 1 26 28
M  V30 28 2 28 29
M  V30 29 1 28 30
M  V30 30 1 30 31
M  V30 31 1 31 32
M  V30 32 1 32 33
M  V30 33 1 32 34
M  V30 34 1 31 35
M  V30 35 2 35 36
M  V30 36 1 35 37
M  V30 37 1 37 38
M  V30 38 1 38 39
M  V30 39 1 39 40
M  V30 40 1 40 41
M  V30 41 1 40 42
M  V30 42 1 38 43
M  V30 43 2 43 44
M  V30 44 1 43 45
M  V30 45 1 45 46
M  V30 46 1 46 47
M  V30 47 1 47 48
M  V30 48 1 48 49
M  V30 49 1 49 50
M  V30 50 1 50 51
M  V30 51 1 46 52
M  V30 52 2 52 53
M  V30 53 1 52 54
M  V30 54 1 54 55
M  V30 55 1 55 56
M  V30 56 2 56 57
M  V30 57 1 56 58
M  V30 58 1 58 59
M  V30 59 1 59 60
M  V30 60 1 60 61
M  V30 61 1 60 62
M  V30 62 1 59 63
M  V30 63 1 63 64
M  V30 64 2 63 65
M  V30 65 1 18 12
M  V30 66 1 1 66
M  V30 67 1 1 67
M  V30 68 1 1 68
M  V30 69 1 2 69
M  V30 70 1 3 70
M  V30 71 1 3 71
M  V30 72 1 3 72
M  V30 73 1 4 73
M  V30 74 1 4 74
M  V30 75 1 5 75 CFG=3
M  V30 76 1 6 76
M  V30 77 1 9 77 CFG=3
M  V30 78 1 10 78
M  V30 79 1 10 79
M  V30 80 1 11 80
M  V30 81 1 11 81
M  V30 82 1 13 82
M  V30 83 1 14 83
M  V30 84 1 16 84
M  V30 85 1 17 85
M  V30 86 1 18 86
M  V30 87 1 21 87
M  V30 88 1 22 88
M  V30 89 1 22 89
M  V30 90 1 25 90
M  V30 91 1 26 91 CFG=3
M  V30 92 1 27 92
M  V30 93 1 27 93
M  V30 94 1 27 94
M  V30 95 1 30 95
M  V30 96 1 31 96 CFG=3
M  V30 97 1 32 97 CFG=3
M  V30 98 1 33 98
M  V30 99 1 33 99
M  V30 100 1 33 100
M  V30 101 1 34 101
M  V30 102 1 37 102
M  V30 103 1 38 103 CFG=1
M  V30 104 1 39 104
M  V30 105 1 39 105
M  V30 106 1 40 106
M  V30 107 1 41 107
M  V30 108 1 41 108
M  V30 109 1 41 109
M  V30 110 1 42 110
M  V30 111 1 42 111
M  V30 112 1 42 112
M  V30 113 1 45 113
M  V30 114 1 46 114 CFG=3
M  V30 115 1 47 115
M  V30 116 1 47 116
M  V30 117 1 48 117
M  V30 118 1 48 118
M  V30 119 1 49 119
M  V30 120 1 49 120
M  V30 121 1 50 121
M  V30 122 1 50 122
M  V30 123 1 51 123
M  V30 124 1 51 124
M  V30 125 1 54 125
M  V30 126 1 55 126
M  V30 127 1 55 127
M  V30 128 1 58 128
M  V30 129 1 59 129 CFG=1
M  V30 130 1 60 130
M  V30 131 1 61 131
M  V30 132 1 61 132
M  V30 133 1 61 133
M  V30 134 1 62 134
M  V30 135 1 62 135
M  V30 136 1 62 136
M  V30 137 1 64 137
M  V30 END BOND
M  V30 END CTAB
M  END
