
     RDKit          3D

  0  0  0  0  0  0  0  0  0  0999 V3000
M  V30 BEGIN CTAB
M  V30 COUNTS 67 70 0 0 0
M  V30 BEGIN ATOM
M  V30 1 C 4.62904 -5.07766 -0.00527505 0
M  V30 2 O 3.28441 -4.74894 -0.283574 0
M  V30 3 C 2.86406 -3.44782 0.0411911 0
M  V30 4 C 1.56446 -3.10698 -0.21923 0
M  V30 5 O 0.698597 -4.06035 -0.796845 0
M  V30 6 C 0.658564 -4.15048 -2.19889 0
M  V30 7 C 1.10602 -1.80731 0.0948961 0
M  V30 8 C -0.250127 -1.50854 -0.264509 0
M  V30 9 C -1.194 -0.714164 0.0553476 0
M  V30 10 C -1.29936 0.319964 1.02834 0
M  V30 11 O -0.378969 0.600755 1.82172 0
M  V30 12 N -2.53526 1.13081 1.14801 0
M  V30 13 N -2.55669 2.12356 2.12041 0
M  V30 14 C -3.58242 2.74097 2.56261 0
M  V30 15 C -4.86229 2.33227 1.94165 0
M  V30 16 C -6.02925 2.85939 2.47357 0
M  V30 17 C -7.24311 2.41746 2.01524 0
M  V30 18 C -7.32554 1.4538 1.0306 0
M  V30 19 C -6.15782 0.935387 0.504734 0
M  V30 20 C -4.92351 1.38473 0.9667 0
M  V30 21 C -3.66562 0.905442 0.306835 0
M  V30 22 C -3.55333 1.70548 -0.957047 0
M  V30 23 C -3.82249 1.33603 -2.17279 0
M  V30 24 C -3.62283 2.34477 -3.28789 0
M  V30 25 C -4.31511 0.0182989 -2.60163 0
M  V30 26 C 2.02245 -0.94149 0.654849 0
M  V30 27 C 3.35484 -1.2767 0.927619 0
M  V30 28 C 4.26189 -0.319325 1.54273 0
M  V30 29 C 4.76975 0.757316 0.711178 0
M  V30 30 C 4.21139 2.03822 0.819677 0
M  V30 31 N 4.66186 3.04378 0.0520344 0
M  V30 32 C 5.65193 2.87388 -0.841318 0
M  V30 33 N 6.11705 3.96584 -1.65342 0
M  V30 34 N 6.19743 1.65678 -0.958689 0
M  V30 35 C 5.76881 0.607133 -0.196961 0
M  V30 36 N 6.38916 -0.6454 -0.364272 0
M  V30 37 C 3.73497 -2.54294 0.605129 0
M  V30 38 H 5.25904 -4.43935 -0.673055 0
M  V30 39 H 4.81324 -6.12963 -0.332557 0
M  V30 40 H 4.90902 -4.90506 1.04641 0
M  V30 41 H 1.26278 -5.00398 -2.57084 0
M  V30 42 H -0.385394 -4.31922 -2.59063 0
M  V30 43 H 0.993398 -3.18529 -2.61908 0
M  V30 44 H -0.615479 -2.19022 -1.14915 0
M  V30 45 H -2.14503 -0.878502 -0.577902 0
M  V30 46 H -3.55447 3.50352 3.32574 0
M  V30 47 H -5.96454 3.61246 3.24277 0
M  V30 48 H -8.17769 2.80447 2.40433 0
M  V30 49 H -8.29757 1.09728 0.66324 0
M  V30 50 H -6.24428 0.184208 -0.248473 0
M  V30 51 H -3.82314 -0.137657 0.0514936 0
M  V30 52 H -3.1907 2.74515 -0.797896 0
M  V30 53 H -3.43508 1.83313 -4.23216 0
M  V30 54 H -4.49654 3.02862 -3.2991 0
M  V30 55 H -2.74089 2.97562 -3.01699 0
M  V30 56 H -3.96431 -0.251124 -3.63186 0
M  V30 57 H -4.07622 -0.819953 -1.93186 0
M  V30 58 H -5.43948 0.00119808 -2.6873 0
M  V30 59 H 1.74433 0.0726385 0.853433 0
M  V30 60 H 5.17521 -0.829654 1.98638 0
M  V30 61 H 3.80852 0.163161 2.46687 0
M  V30 62 H 3.41764 2.21079 1.52355 0
M  V30 63 H 6.73456 4.7101 -1.31937 0
M  V30 64 H 5.7948 3.9851 -2.64349 0
M  V30 65 H 6.12082 -1.2602 -1.14708 0
M  V30 66 H 7.11623 -0.949006 0.300593 0
M  V30 67 H 4.77225 -2.83254 0.822805 0
M  V30 END ATOM
M  V30 BEGIN BOND
M  V30 1 1 1 2
M  V30 2 1 2 3
M  V30 3 2 3 4
M  V30 4 1 4 5
M  V30 5 1 5 6
M  V30 6 1 4 7
M  V30 7 1 7 8
M  V30 8 2 8 9 CFG=2
M  V30 9 1 9 10
M  V30 10 2 10 11
M  V30 11 1 10 12
M  V30 12 1 12 13
M  V30 13 2 13 14
M  V30 14 1 14 15
M  V30 15 2 15 16
M  V30 16 1 16 17
M  V30 17 2 17 18
M  V30 18 1 18 19
M  V30 19 2 19 20
M  V30 20 1 20 21
M  V30 21 1 21 22
M  V30 22 2 22 23
M  V30 23 1 23 24
M  V30 24 1 23 25
M  V30 25 2 7 26
M  V30 26 1 26 27
M  V30 27 1 27 28
M  V30 28 1 28 29
M  V30 29 2 29 30
M  V30 30 1 30 31
M  V30 31 2 31 32
M  V30 32 1 32 33
M  V30 33 1 32 34
M  V30 34 2 34 35
M  V30 35 1 35 36
M  V30 36 2 27 37
M  V30 37 1 37 3
M  V30 38 1 21 12
M  V30 39 1 35 29
M  V30 40 1 20 15
M  V30 41 1 1 38
M  V30 42 1 1 39
M  V30 43 1 1 40
M  V30 44 1 6 41
M  V30 45 1 6 42
M  V30 46 1 6 43
M  V30 47 1 8 44
M  V30 48 1 9 45
M  V30 49 1 14 46
M  V30 50 1 16 47
M  V30 51 1 17 48
M  V30 52 1 18 49
M  V30 53 1 19 50
M  V30 54 1 21 51
M  V30 55 1 22 52
M  V30 56 1 24 53
M  V30 57 1 24 54
M  V30 58 1 24 55
M  V30 59 1 25 56
M  V30 60 1 25 57
M  V30 61 1 25 58
M  V30 62 1 26 59
M  V30 63 1 28 60
M  V30 64 1 28 61
M  V30 65 1 30 62
M  V30 66 1 33 63
M  V30 67 1 33 64
M  V30 68 1 36 65
M  V30 69 1 36 66
M  V30 70 1 37 67
M  V30 END BOND
M  V30 END CTAB
M  END
