
     RDKit          3D

  0  0  0  0  0  0  0  0  0  0999 V3000
M  V30 BEGIN CTAB
M  V30 COUNTS 36 37 0 0 0
M  V30 BEGIN ATOM
M  V30 1 N 6.32567 -0.00553411 -1.28013 0
M  V30 2 C 4.98195 -0.156477 -0.871134 0
M  V30 3 C 4.17681 -1.17941 -1.37935 0
M  V30 4 C 2.89526 -1.24413 -0.926014 0
M  V30 5 C 2.32902 -0.372614 0.000715844 0
M  V30 6 C 3.16185 0.61623 0.470317 0
M  V30 7 C 4.47632 0.728841 0.0430343 0
M  V30 8 C 0.949395 -0.522895 0.421357 0
M  V30 9 O 0.263228 -1.44872 -0.0686017 0
M  V30 10 C 0.321577 0.376549 1.40763 0
M  V30 11 C -0.417361 1.51711 0.737947 0
M  V30 12 N -1.47696 1.08447 -0.136946 0
M  V30 13 C -2.64162 0.388694 0.284736 0
M  V30 14 N -2.88351 0.0721937 1.56092 0
M  V30 15 C -3.98152 -0.57582 1.9755 0
M  V30 16 N -4.90211 -0.93518 1.07073 0
M  V30 17 C -4.75017 -0.662024 -0.238968 0
M  V30 18 N -5.72714 -1.04504 -1.18805 0
M  V30 19 C -3.59099 0.016278 -0.637304 0
M  V30 20 N -3.48156 0.277476 -2.02004 0 CHG=1
M  V30 21 O -4.25504 1.24452 -2.58386 0 CHG=-1
M  V30 22 O -2.68996 -0.367265 -2.71013 0
M  V30 23 H 6.61973 -0.389268 -2.19298 0
M  V30 24 H 7.00709 0.479649 -0.679762 0
M  V30 25 H 4.61394 -1.84719 -2.09153 0
M  V30 26 H 2.24501 -2.03155 -1.30566 0
M  V30 27 H 2.80068 1.33155 1.18783 0
M  V30 28 H 5.10171 1.5159 0.431171 0
M  V30 29 H 1.07377 0.833631 2.07949 0
M  V30 30 H -0.388869 -0.166495 2.07494 0
M  V30 31 H 0.285973 2.18819 0.197292 0
M  V30 32 H -0.805198 2.1452 1.58033 0
M  V30 33 H -1.37063 1.30504 -1.16612 0
M  V30 34 H -4.09908 -0.793992 3.03549 0
M  V30 35 H -6.67036 -0.623905 -1.17451 0
M  V30 36 H -5.49688 -1.75403 -1.90372 0
M  V30 END ATOM
M  V30 BEGIN BOND
M  V30 1 1 1 2
M  V30 2 2 2 3
M  V30 3 1 3 4
M  V30 4 2 4 5
M  V30 5 1 5 6
M  V30 6 2 6 7
M  V30 7 1 5 8
M  V30 8 2 8 9
M  V30 9 1 8 10
M  V30 10 1 10 11
M  V30 11 1 11 12
M  V30 12 1 12 13
M  V30 13 2 13 14
M  V30 14 1 14 15
M  V30 15 2 15 16
M  V30 16 1 16 17
M  V30 17 1 17 18
M  V30 18 2 17 19
M  V30 19 1 19 20
M  V30 20 1 20 21
M  V30 21 2 20 22
M  V30 22 1 7 2
M  V30 23 1 19 13
M  V30 24 1 1 23
M  V30 25 1 1 24
M  V30 26 1 3 25
M  V30 27 1 4 26
M  V30 28 1 6 27
M  V30 29 1 7 28
M  V30 30 1 10 29
M  V30 31 1 10 30
M  V30 32 1 11 31
M  V30 33 1 11 32
M  V30 34 1 12 33
M  V30 35 1 15 34
M  V30 36 1 18 35
M  V30 37 1 18 36
M  V30 END BOND
M  V30 END CTAB
M  END
