
     RDKit          3D

  0  0  0  0  0  0  0  0  0  0999 V3000
M  V30 BEGIN CTAB
M  V30 COUNTS 31 32 0 0 0
M  V30 BEGIN ATOM
M  V30 1 N 2.47711 0.95829 1.57321 0
M  V30 2 C 2.81553 0.0102263 0.52889 0
M  V30 3 C 1.61326 -0.360238 -0.310314 0
M  V30 4 N 2.06626 -1.30012 -1.31441 0
M  V30 5 C 0.972532 0.835957 -0.964935 0
M  V30 6 C -0.480893 0.972206 -0.632067 0
M  V30 7 N -1.20684 -0.23854 -0.613964 0
M  V30 8 C -0.620615 -1.4096 -0.11526 0
M  V30 9 C 0.653417 -1.09985 0.588885 0
M  V30 10 C -2.60946 -0.157842 -0.451995 0
M  V30 11 C -3.08152 0.431948 0.885628 0
M  V30 12 C -3.33323 1.13498 -0.40795 0
M  V30 13 H 3.06378 0.77991 2.42634 0
M  V30 14 H 2.65801 1.9141 1.18133 0
M  V30 15 H 3.26658 -0.885726 0.996874 0
M  V30 16 H 3.64608 0.440622 -0.102933 0
M  V30 17 H 2.57208 -2.06237 -0.770593 0
M  V30 18 H 1.24631 -1.75919 -1.77555 0
M  V30 19 H 1.13317 0.790906 -2.05794 0
M  V30 20 H 1.5144 1.73027 -0.615086 0
M  V30 21 H -0.610414 1.47328 0.354307 0
M  V30 22 H -0.9326 1.65925 -1.37738 0
M  V30 23 H -1.32015 -1.81914 0.679855 0
M  V30 24 H -0.532123 -2.24761 -0.840906 0
M  V30 25 H 0.454182 -0.570257 1.5357 0
M  V30 26 H 1.12391 -2.07926 0.867858 0
M  V30 27 H -3.16758 -1.05923 -0.820475 0
M  V30 28 H -2.33894 0.828582 1.59584 0
M  V30 29 H -3.90041 -0.137389 1.37556 0
M  V30 30 H -4.34854 1.13734 -0.838526 0
M  V30 31 H -2.79327 2.08849 -0.579992 0
M  V30 END ATOM
M  V30 BEGIN BOND
M  V30 1 1 1 2
M  V30 2 1 2 3
M  V30 3 1 3 4
M  V30 4 1 3 5
M  V30 5 1 5 6
M  V30 6 1 6 7
M  V30 7 1 7 8
M  V30 8 1 8 9
M  V30 9 1 7 10
M  V30 10 1 10 11
M  V30 11 1 11 12
M  V30 12 1 9 3
M  V30 13 1 12 10
M  V30 14 1 1 13
M  V30 15 1 1 14
M  V30 16 1 2 15
M  V30 17 1 2 16
M  V30 18 1 4 17
M  V30 19 1 4 18
M  V30 20 1 5 19
M  V30 21 1 5 20
M  V30 22 1 6 21
M  V30 23 1 6 22
M  V30 24 1 8 23
M  V30 25 1 8 24
M  V30 26 1 9 25
M  V30 27 1 9 26
M  V30 28 1 10 27
M  V30 29 1 11 28
M  V30 30 1 11 29
M  V30 31 1 12 30
M  V30 32 1 12 31
M  V30 END BOND
M  V30 END CTAB
M  END
