
     RDKit          3D

  0  0  0  0  0  0  0  0  0  0999 V3000
M  V30 BEGIN CTAB
M  V30 COUNTS 21 22 0 0 0
M  V30 BEGIN ATOM
M  V30 1 N 4.12024 -0.953978 -0.262926 0
M  V30 2 C 2.769 -0.543249 -0.259684 0
M  V30 3 N 2.43213 0.777806 -0.253809 0
M  V30 4 C 1.1582 1.20225 -0.250585 0
M  V30 5 N 0.888922 2.59532 -0.244489 0
M  V30 6 C 0.125377 0.292967 -0.25318 0
M  V30 7 C 0.444374 -1.06272 -0.259179 0
M  V30 8 N 1.73882 -1.42051 -0.262149 0
M  V30 9 N -0.563695 -1.9521 -0.261723 0
M  V30 10 C -1.86033 -1.54995 -0.25857 0
M  V30 11 C -2.17888 -0.214551 -0.252655 0
M  V30 12 N -1.17134 0.668726 -0.250135 0
M  V30 13 C -3.60908 0.169631 -0.249428 0
M  V30 14 Cl -3.07509 -2.79344 -0.262361 0
M  V30 15 H 4.43155 -1.73967 0.324706 0
M  V30 16 H 4.79636 -0.458366 -0.861497 0
M  V30 17 H 0.621574 3.10827 -1.11486 0
M  V30 18 H 0.945471 3.16392 0.621573 0
M  V30 19 H -3.77354 1.23121 -0.521813 0
M  V30 20 H -4.20646 -0.43061 -0.98752 0
M  V30 21 H -4.03359 -0.0909531 0.744102 0
M  V30 END ATOM
M  V30 BEGIN BOND
M  V30 1 1 1 2
M  V30 2 2 2 3
M  V30 3 1 3 4
M  V30 4 1 4 5
M  V30 5 2 4 6
M  V30 6 1 6 7
M  V30 7 2 7 8
M  V30 8 1 7 9
M  V30 9 2 9 10
M  V30 10 1 10 11
M  V30 11 2 11 12
M  V30 12 1 11 13
M  V30 13 1 10 14
M  V30 14 1 8 2
M  V30 15 1 12 6
M  V30 16 1 1 15
M  V30 17 1 1 16
M  V30 18 1 5 17
M  V30 19 1 5 18
M  V30 20 1 13 19
M  V30 21 1 13 20
M  V30 22 1 13 21
M  V30 END BOND
M  V30 END CTAB
M  END
