
     RDKit          3D

  0  0  0  0  0  0  0  0  0  0999 V3000
M  V30 BEGIN CTAB
M  V30 COUNTS 74 77 0 0 0
M  V30 BEGIN ATOM
M  V30 1 N -9.03096 1.62682 -2.72178 0
M  V30 2 C -7.58713 1.85515 -2.87718 0
M  V30 3 C -6.89277 1.61312 -1.55349 0
M  V30 4 O -7.09331 0.302249 -1.11267 0
M  V30 5 B -6.4259 0.0682836 0.162513 0
M  V30 6 C -7.21072 -0.753717 1.23394 0
M  V30 7 C -7.10628 -0.368154 2.54534 0
M  V30 8 C -7.77822 -1.05863 3.5329 0
M  V30 9 C -8.55017 -2.13919 3.15447 0
M  V30 10 C -8.6495 -2.51955 1.83523 0
M  V30 11 C -7.98175 -1.83271 0.857455 0
M  V30 12 C -4.88557 0.283419 0.306144 0
M  V30 13 C -4.02222 -0.790671 0.273982 0
M  V30 14 C -2.63665 -0.629726 0.400157 0
M  V30 15 C -2.08523 0.605479 0.560736 0
M  V30 16 C -0.642017 0.905709 0.698186 0
M  V30 17 C 0.0427651 1.1934 -0.588152 0
M  V30 18 O 0.0619975 0.220842 -1.53077 0
M  V30 19 C 0.718476 -0.942875 -1.25626 0
M  V30 20 C 2.15646 -0.793972 -1.01067 0
M  V30 21 C 2.67583 -0.765067 0.258885 0
M  V30 22 C 4.03773 -0.621932 0.487765 0
M  V30 23 C 4.88244 -0.507066 -0.573843 0
M  V30 24 C 4.40978 -0.530913 -1.8462 0
M  V30 25 C 3.03425 -0.675719 -2.0648 0
M  V30 26 B 6.41428 -0.347207 -0.238401 0
M  V30 27 O 7.04451 -1.47123 0.446739 0
M  V30 28 C 7.60545 -2.37253 -0.453914 0
M  V30 29 C 8.243 -3.51301 0.293668 0
M  V30 30 N 9.27907 -2.95357 1.15704 0
M  V30 31 C 6.8745 1.08793 0.200562 0
M  V30 32 C 6.03442 2.15599 0.287417 0
M  V30 33 C 6.41572 3.41519 0.668021 0
M  V30 34 C 7.74029 3.62294 0.986712 0
M  V30 35 C 8.6333 2.581 0.91688 0
M  V30 36 C 8.21262 1.3141 0.526427 0
M  V30 37 C -2.9602 1.69774 0.593768 0
M  V30 38 C -4.32161 1.53124 0.469061 0
M  V30 39 H -9.34732 1.90235 -1.77015 0
M  V30 40 H -9.24029 0.638716 -2.93402 0
M  V30 41 H -7.48672 2.90964 -3.18349 0
M  V30 42 H -7.16794 1.22449 -3.67445 0
M  V30 43 H -7.23734 2.34065 -0.804616 0
M  V30 44 H -5.80627 1.78967 -1.74198 0
M  V30 45 H -6.48536 0.493216 2.80843 0
M  V30 46 H -7.69035 -0.748346 4.56258 0
M  V30 47 H -9.09443 -2.71106 3.88804 0
M  V30 48 H -9.26343 -3.37439 1.55777 0
M  V30 49 H -8.0254 -2.091 -0.202304 0
M  V30 50 H -4.42659 -1.77977 0.148286 0
M  V30 51 H -1.97654 -1.48452 0.375232 0
M  V30 52 H -0.553428 1.82236 1.33145 0
M  V30 53 H -0.15617 0.101252 1.26091 0
M  V30 54 H 1.11811 1.44422 -0.345891 0
M  V30 55 H -0.352104 2.1205 -1.06489 0
M  V30 56 H 0.618854 -1.58173 -2.18623 0
M  V30 57 H 0.234356 -1.57122 -0.46799 0
M  V30 58 H 2.02382 -0.855698 1.10585 0
M  V30 59 H 4.40066 -0.604487 1.4963 0
M  V30 60 H 5.09076 -0.438977 -2.67569 0
M  V30 61 H 2.64532 -0.696291 -3.0673 0
M  V30 62 H 8.34334 -1.81086 -1.0619 0
M  V30 63 H 6.78609 -2.73327 -1.11446 0
M  V30 64 H 7.47297 -3.98797 0.928409 0
M  V30 65 H 8.6476 -4.28859 -0.366614 0
M  V30 66 H 8.88917 -2.08739 1.59115 0
M  V30 67 H 9.65319 -3.63237 1.83152 0
M  V30 68 H 4.98475 1.98265 0.0327202 0
M  V30 69 H 5.67217 4.2033 0.706984 0
M  V30 70 H 8.03009 4.62392 1.28648 0
M  V30 71 H 9.66803 2.75666 1.16903 0
M  V30 72 H 8.93526 0.532351 0.484707 0
M  V30 73 H -2.54888 2.71068 0.722319 0
M  V30 74 H -5.01268 2.38814 0.494497 0
M  V30 END ATOM
M  V30 BEGIN BOND
M  V30 1 1 1 2
M  V30 2 1 2 3
M  V30 3 1 3 4
M  V30 4 1 4 5
M  V30 5 1 5 6
M  V30 6 2 6 7
M  V30 7 1 7 8
M  V30 8 2 8 9
M  V30 9 1 9 10
M  V30 10 2 10 11
M  V30 11 1 5 12
M  V30 12 2 12 13
M  V30 13 1 13 14
M  V30 14 2 14 15
M  V30 15 1 15 16
M  V30 16 1 16 17
M  V30 17 1 17 18
M  V30 18 1 18 19
M  V30 19 1 19 20
M  V30 20 2 20 21
M  V30 21 1 21 22
M  V30 22 2 22 23
M  V30 23 1 23 24
M  V30 24 2 24 25
M  V30 25 1 23 26
M  V30 26 1 26 27
M  V30 27 1 27 28
M  V30 28 1 28 29
M  V30 29 1 29 30
M  V30 30 1 26 31
M  V30 31 2 31 32
M  V30 32 1 32 33
M  V30 33 2 33 34
M  V30 34 1 34 35
M  V30 35 2 35 36
M  V30 36 1 15 37
M  V30 37 2 37 38
M  V30 38 1 11 6
M  V30 39 1 38 12
M  V30 40 1 25 20
M  V30 41 1 36 31
M  V30 42 1 1 39
M  V30 43 1 1 40
M  V30 44 1 2 41
M  V30 45 1 2 42
M  V30 46 1 3 43
M  V30 47 1 3 44
M  V30 48 1 7 45
M  V30 49 1 8 46
M  V30 50 1 9 47
M  V30 51 1 10 48
M  V30 52 1 11 49
M  V30 53 1 13 50
M  V30 54 1 14 51
M  V30 55 1 16 52
M  V30 56 1 16 53
M  V30 57 1 17 54
M  V30 58 1 17 55
M  V30 59 1 19 56
M  V30 60 1 19 57
M  V30 61 1 21 58
M  V30 62 1 22 59
M  V30 63 1 24 60
M  V30 64 1 25 61
M  V30 65 1 28 62
M  V30 66 1 28 63
M  V30 67 1 29 64
M  V30 68 1 29 65
M  V30 69 1 30 66
M  V30 70 1 30 67
M  V30 71 1 32 68
M  V30 72 1 33 69
M  V30 73 1 34 70
M  V30 74 1 35 71
M  V30 75 1 36 72
M  V30 76 1 37 73
M  V30 77 1 38 74
M  V30 END BOND
M  V30 END CTAB
M  END
