
     RDKit          3D

  0  0  0  0  0  0  0  0  0  0999 V3000
M  V30 BEGIN CTAB
M  V30 COUNTS 106 107 0 0 0
M  V30 BEGIN ATOM
M  V30 1 C 10.143 3.05753 2.22561 0
M  V30 2 S 9.50212 1.39211 2.43596 0
M  V30 3 C 7.71514 1.42918 2.03986 0
M  V30 4 C 7.62364 1.74807 0.575049 0
M  V30 5 C 6.23037 1.85471 0.0178936 0 CFG=2
M  V30 6 N 5.51253 0.651115 0.159495 0
M  V30 7 C 4.45843 0.115319 -0.548549 0
M  V30 8 O 3.94408 0.68109 -1.54115 0
M  V30 9 C 3.85245 -1.16911 -0.179616 0 CFG=2
M  V30 10 C 4.35091 -2.35835 -0.879153 0
M  V30 11 C 5.74642 -2.79088 -0.790147 0
M  V30 12 C 6.87658 -2.03753 -1.33256 0
M  V30 13 N 6.76214 -1.81925 -2.78876 0
M  V30 14 C 7.786 -1.15342 -3.46075 0
M  V30 15 N 7.65492 -0.927676 -4.8598 0
M  V30 16 N 8.85627 -0.720119 -2.89329 0
M  V30 17 N 2.42175 -1.00221 -0.434009 0
M  V30 18 C 1.34806 -1.3748 0.365668 0
M  V30 19 O 1.53418 -1.94205 1.45869 0
M  V30 20 C -0.052971 -1.10767 -0.0717517 0 CFG=2
M  V30 21 C -0.259402 0.299416 -0.51917 0
M  V30 22 C -0.0713365 1.44502 0.344907 0
M  V30 23 C 1.22611 1.73112 0.982621 0
M  V30 24 C 1.18072 2.98337 1.86702 0
M  V30 25 N 0.839318 4.17264 1.20115 0
M  V30 26 N -1.04492 -1.59266 0.83257 0
M  V30 27 C -2.13943 -2.41795 0.631592 0
M  V30 28 O -2.3755 -2.8664 -0.525751 0
M  V30 29 C -3.05342 -2.78145 1.76112 0 CFG=2
M  V30 30 C -2.63538 -4.10536 2.28333 0
M  V30 31 S -2.74933 -5.37286 0.95483 0
M  V30 32 N -4.40714 -2.75296 1.22008 0
M  V30 33 C -5.20821 -1.61298 1.28661 0
M  V30 34 O -4.72873 -0.561707 1.82607 0
M  V30 35 C -6.58295 -1.58268 0.759236 0 CFG=2
M  V30 36 C -6.56972 -1.95234 -0.695246 0
M  V30 37 C -7.95106 -1.92363 -1.18694 0
M  V30 38 C -8.83159 -2.97793 -1.1605 0
M  V30 39 N -9.98497 -2.56292 -1.69491 0
M  V30 40 C -9.83408 -1.26072 -2.05434 0
M  V30 41 N -8.58973 -0.891474 -1.73669 0
M  V30 42 N -7.17997 -0.269207 1.00923 0
M  V30 43 C -6.73201 0.898582 0.356782 0
M  V30 44 O -5.8108 0.848684 -0.473464 0
M  V30 45 C -7.34305 2.24952 0.633763 0 CFG=2
M  V30 46 C -8.67061 2.11931 1.30061 0
M  V30 47 C -9.39529 3.36914 0.782957 0
M  V30 48 C -8.85455 3.43517 -0.652044 0
M  V30 49 N -7.48111 3.03048 -0.530382 0
M  V30 50 C 6.26853 2.54239 -1.30912 0
M  V30 51 O 7.47991 2.97881 -1.8523 0
M  V30 52 O 5.27029 2.75435 -1.97915 0
M  V30 53 H 10.8427 3.27704 3.06346 0
M  V30 54 H 9.29882 3.7738 2.23559 0
M  V30 55 H 10.7097 3.188 1.30404 0
M  V30 56 H 7.20211 2.24165 2.6076 0
M  V30 57 H 7.26393 0.463221 2.3311 0
M  V30 58 H 8.20335 0.936715 0.0320038 0
M  V30 59 H 8.2056 2.66983 0.323699 0
M  V30 60 H 5.70041 2.68547 0.644785 0
M  V30 61 H 5.88472 0.0475964 1.01917 0
M  V30 62 H 3.9163 -1.39819 0.923051 0
M  V30 63 H 4.04615 -2.33328 -1.9892 0
M  V30 64 H 3.74243 -3.28029 -0.52928 0
M  V30 65 H 5.84984 -3.86281 -1.24408 0
M  V30 66 H 6.02854 -3.03295 0.298795 0
M  V30 67 H 7.76229 -2.80994 -1.31462 0
M  V30 68 H 7.3173 -1.20128 -0.821264 0
M  V30 69 H 5.92388 -2.17179 -3.26249 0
M  V30 70 H 8.15985 -1.55047 -5.51046 0
M  V30 71 H 7.077 -0.161964 -5.20275 0
M  V30 72 H 9.62841 -0.226702 -3.36121 0
M  V30 73 H 2.21027 -0.525818 -1.36229 0
M  V30 74 H -0.169674 -1.69961 -1.00313 0
M  V30 75 H 0.407731 0.440764 -1.42399 0
M  V30 76 H -1.30095 0.35025 -0.949729 0
M  V30 77 H -0.927278 1.60663 1.08505 0
M  V30 78 H -0.239194 2.34687 -0.336602 0
M  V30 79 H 1.48979 0.921854 1.68478 0
M  V30 80 H 2.07423 1.8835 0.309742 0
M  V30 81 H 2.16102 3.10767 2.38181 0
M  V30 82 H 0.456344 2.82016 2.7036 0
M  V30 83 H -0.138727 4.43386 1.10565 0
M  V30 84 H 1.57141 4.74911 0.782665 0
M  V30 85 H -0.911424 -1.23781 1.83699 0
M  V30 86 H -2.96891 -1.9521 2.48812 0
M  V30 87 H -1.52275 -4.04746 2.48853 0
M  V30 88 H -3.1092 -4.46356 3.19526 0
M  V30 89 H -3.57509 -4.95165 -0.095061 0
M  V30 90 H -4.77674 -3.61981 0.786402 0
M  V30 91 H -7.24644 -2.32564 1.30572 0
M  V30 92 H -5.87371 -1.37392 -1.30974 0
M  V30 93 H -6.21849 -3.02464 -0.790209 0
M  V30 94 H -8.6618 -3.99021 -0.777251 0
M  V30 95 H -10.8807 -3.11614 -1.82905 0
M  V30 96 H -10.5813 -0.616304 -2.51426 0
M  V30 97 H -7.95532 -0.173752 1.68433 0
M  V30 98 H -6.68194 2.76603 1.40597 0
M  V30 99 H -9.23928 1.22276 1.0364 0
M  V30 100 H -8.59634 2.27885 2.418 0
M  V30 101 H -10.4856 3.24783 0.75564 0
M  V30 102 H -9.06925 4.28466 1.28024 0
M  V30 103 H -9.40993 2.69562 -1.29607 0
M  V30 104 H -8.93118 4.44616 -1.08504 0
M  V30 105 H -7.25969 2.40782 -1.36832 0
M  V30 106 H 7.55024 3.95557 -2.18245 0
M  V30 END ATOM
M  V30 BEGIN BOND
M  V30 1 1 1 2
M  V30 2 1 2 3
M  V30 3 1 3 4
M  V30 4 1 4 5
M  V30 5 1 5 6
M  V30 6 1 6 7
M  V30 7 2 7 8
M  V30 8 1 7 9
M  V30 9 1 9 10
M  V30 10 1 10 11
M  V30 11 1 11 12
M  V30 12 1 12 13
M  V30 13 1 13 14
M  V30 14 1 14 15
M  V30 15 2 14 16 CFG=2
M  V30 16 1 9 17
M  V30 17 1 17 18
M  V30 18 2 18 19
M  V30 19 1 18 20
M  V30 20 1 20 21
M  V30 21 1 21 22
M  V30 22 1 22 23
M  V30 23 1 23 24
M  V30 24 1 24 25
M  V30 25 1 20 26
M  V30 26 1 26 27
M  V30 27 2 27 28
M  V30 28 1 27 29
M  V30 29 1 29 30
M  V30 30 1 30 31
M  V30 31 1 29 32
M  V30 32 1 32 33
M  V30 33 2 33 34
M  V30 34 1 33 35
M  V30 35 1 35 36
M  V30 36 1 36 37
M  V30 37 2 37 38
M  V30 38 1 38 39
M  V30 39 1 39 40
M  V30 40 2 40 41
M  V30 41 1 35 42
M  V30 42 1 42 43
M  V30 43 2 43 44
M  V30 44 1 43 45
M  V30 45 1 45 46
M  V30 46 1 46 47
M  V30 47 1 47 48
M  V30 48 1 48 49
M  V30 49 1 5 50
M  V30 50 1 50 51
M  V30 51 2 50 52
M  V30 52 1 41 37
M  V30 53 1 49 45
M  V30 54 1 1 53
M  V30 55 1 1 54
M  V30 56 1 1 55
M  V30 57 1 3 56
M  V30 58 1 3 57
M  V30 59 1 4 58
M  V30 60 1 4 59
M  V30 61 1 5 60 CFG=1
M  V30 62 1 6 61
M  V30 63 1 9 62 CFG=1
M  V30 64 1 10 63
M  V30 65 1 10 64
M  V30 66 1 11 65
M  V30 67 1 11 66
M  V30 68 1 12 67
M  V30 69 1 12 68
M  V30 70 1 13 69
M  V30 71 1 15 70
M  V30 72 1 15 71
M  V30 73 1 16 72
M  V30 74 1 17 73
M  V30 75 1 20 74 CFG=3
M  V30 76 1 21 75
M  V30 77 1 21 76
M  V30 78 1 22 77
M  V30 79 1 22 78
M  V30 80 1 23 79
M  V30 81 1 23 80
M  V30 82 1 24 81
M  V30 83 1 24 82
M  V30 84 1 25 83
M  V30 85 1 25 84
M  V30 86 1 26 85
M  V30 87 1 29 86 CFG=1
M  V30 88 1 30 87
M  V30 89 1 30 88
M  V30 90 1 31 89
M  V30 91 1 32 90
M  V30 92 1 35 91 CFG=1
M  V30 93 1 36 92
M  V30 94 1 36 93
M  V30 95 1 38 94
M  V30 96 1 39 95
M  V30 97 1 40 96
M  V30 98 1 42 97
M  V30 99 1 45 98 CFG=1
M  V30 100 1 46 99
M  V30 101 1 46 100
M  V30 102 1 47 101
M  V30 103 1 47 102
M  V30 104 1 48 103
M  V30 105 1 48 104
M  V30 106 1 49 105
M  V30 107 1 51 106
M  V30 END BOND
M  V30 END CTAB
M  END
