
     RDKit          3D

  0  0  0  0  0  0  0  0  0  0999 V3000
M  V30 BEGIN CTAB
M  V30 COUNTS 22 23 0 0 0
M  V30 BEGIN ATOM
M  V30 1 N -3.60278 -0.627704 -0.023779 0
M  V30 2 C -2.18819 -0.47401 0.00598856 0
M  V30 3 C -1.37032 -1.55606 -0.298664 0
M  V30 4 C 0.00628756 -1.45426 -0.28283 0
M  V30 5 C 0.5611 -0.234799 0.0474798 0
M  V30 6 C -0.232472 0.851174 0.352997 0
M  V30 7 C -1.59165 0.727826 0.331085 0
M  V30 8 N -2.39174 1.86487 0.650703 0
M  V30 9 N 1.9959 -0.0971771 0.0726652 0
M  V30 10 N 2.88551 -0.955013 0.546842 0
M  V30 11 C 4.13026 -0.463078 0.387569 0
M  V30 12 C 3.95727 0.761949 -0.219135 0
M  V30 13 N 2.63223 0.962375 -0.401635 0
M  V30 14 H -4.21997 0.194438 -0.173831 0
M  V30 15 H -4.04956 -1.56228 0.103396 0
M  V30 16 H -1.84387 -2.50918 -0.556491 0
M  V30 17 H 0.624486 -2.32402 -0.527354 0
M  V30 18 H 0.263282 1.79637 0.608434 0
M  V30 19 H -3.2768 2.04343 0.0921687 0
M  V30 20 H -2.15119 2.53775 1.41219 0
M  V30 21 H 5.08493 -0.905217 0.663815 0
M  V30 22 H 4.77728 1.4226 -0.487706 0
M  V30 END ATOM
M  V30 BEGIN BOND
M  V30 1 1 1 2
M  V30 2 2 2 3
M  V30 3 1 3 4
M  V30 4 2 4 5
M  V30 5 1 5 6
M  V30 6 2 6 7
M  V30 7 1 7 8
M  V30 8 1 5 9
M  V30 9 1 9 10
M  V30 10 2 10 11
M  V30 11 1 11 12
M  V30 12 2 12 13
M  V30 13 1 7 2
M  V30 14 1 13 9
M  V30 15 1 1 14
M  V30 16 1 1 15
M  V30 17 1 3 16
M  V30 18 1 4 17
M  V30 19 1 6 18
M  V30 20 1 8 19
M  V30 21 1 8 20
M  V30 22 1 11 21
M  V30 23 1 12 22
M  V30 END BOND
M  V30 END CTAB
M  END
