
     RDKit          3D

  0  0  0  0  0  0  0  0  0  0999 V3000
M  V30 BEGIN CTAB
M  V30 COUNTS 17 17 0 0 0
M  V30 BEGIN ATOM
M  V30 1 N 2.79461 -0.566554 0.653557 0
M  V30 2 C 2.01896 0.0453109 -0.355295 0
M  V30 3 S 2.65543 0.486996 -1.7607 0
M  V30 4 C 0.611202 0.276505 -0.105598 0
M  V30 5 C 0.264324 1.41313 0.595779 0
M  V30 6 C -1.0925 1.59918 0.814633 0
M  V30 7 N -2.0108 0.724729 0.369885 0
M  V30 8 C -1.70929 -0.393987 -0.317248 0
M  V30 9 N -2.70173 -1.29808 -0.773634 0
M  V30 10 C -0.352609 -0.606046 -0.551497 0
M  V30 11 H 2.80838 -1.58652 0.824508 0
M  V30 12 H 3.3833 0.0496204 1.25534 0
M  V30 13 H 0.95577 2.14056 0.971544 0
M  V30 14 H -1.44196 2.46465 1.35551 0
M  V30 15 H -2.51135 -2.31895 -0.772415 0
M  V30 16 H -3.61422 -0.944285 -1.10759 0
M  V30 17 H -0.0575075 -1.48626 -1.09678 0
M  V30 END ATOM
M  V30 BEGIN BOND
M  V30 1 1 1 2
M  V30 2 2 2 3
M  V30 3 1 2 4
M  V30 4 2 4 5
M  V30 5 1 5 6
M  V30 6 2 6 7
M  V30 7 1 7 8
M  V30 8 1 8 9
M  V30 9 2 8 10
M  V30 10 1 10 4
M  V30 11 1 1 11
M  V30 12 1 1 12
M  V30 13 1 5 13
M  V30 14 1 6 14
M  V30 15 1 9 15
M  V30 16 1 9 16
M  V30 17 1 10 17
M  V30 END BOND
M  V30 END CTAB
M  END
