
     RDKit          3D

  0  0  0  0  0  0  0  0  0  0999 V3000
M  V30 BEGIN CTAB
M  V30 COUNTS 46 48 0 0 0
M  V30 BEGIN ATOM
M  V30 1 C 9.53082 -1.12077 -0.936751 0
M  V30 2 O 8.8337 -0.147391 -0.182179 0
M  V30 3 C 7.44875 -0.105414 -0.0820142 0
M  V30 4 C 6.61906 -1.01159 -0.710677 0
M  V30 5 C 5.2554 -0.908614 -0.566576 0
M  V30 6 C 4.67595 0.111501 0.216586 0
M  V30 7 C 5.52388 0.992257 0.825775 0
M  V30 8 C 6.9144 0.902933 0.690301 0
M  V30 9 N 3.26588 0.13616 0.313926 0
M  V30 10 C 2.4392 1.08667 0.909222 0
M  V30 11 O 2.87108 2.13307 1.47834 0
M  V30 12 C 0.971572 0.877907 0.883014 0
M  V30 13 C 0.148331 1.98115 0.979019 0
M  V30 14 C -1.23338 1.75092 0.963111 0
M  V30 15 C -1.73236 0.482507 0.856577 0
M  V30 16 C -0.87164 -0.575038 0.764503 0
M  V30 17 C 0.502824 -0.403529 0.77557 0
M  V30 18 C -3.1835 0.252708 0.840446 0
M  V30 19 S -3.85469 0.288064 -0.852637 0
M  V30 20 C -5.61251 -0.00463491 -0.731702 0
M  V30 21 N -6.47346 1.00941 -0.582695 0
M  V30 22 C -7.8037 0.838859 -0.487276 0
M  V30 23 N -8.71245 1.91758 -0.32942 0
M  V30 24 C -8.27736 -0.468872 -0.550054 0
M  V30 25 C -7.41268 -1.53195 -0.703166 0
M  V30 26 N -6.07892 -1.26426 -0.791346 0
M  V30 27 N -7.91429 -2.84761 -0.764213 0
M  V30 28 H 9.68465 -0.74722 -1.97837 0
M  V30 29 H 10.5494 -1.21003 -0.459404 0
M  V30 30 H 9.04684 -2.10734 -0.894715 0
M  V30 31 H 7.07528 -1.7891 -1.30839 0
M  V30 32 H 4.63236 -1.64377 -1.07983 0
M  V30 33 H 5.12793 1.77982 1.43345 0
M  V30 34 H 7.52192 1.63754 1.20316 0
M  V30 35 H 2.76813 -0.697819 -0.141815 0
M  V30 36 H 0.564204 2.96118 1.06125 0
M  V30 37 H -1.84759 2.63208 1.03969 0
M  V30 38 H -1.26337 -1.58672 0.679506 0
M  V30 39 H 1.09533 -1.29619 0.704299 0
M  V30 40 H -3.70765 1.04472 1.44287 0
M  V30 41 H -3.47425 -0.740117 1.26372 0
M  V30 42 H -9.59807 1.8369 0.197588 0
M  V30 43 H -8.47744 2.83298 -0.763969 0
M  V30 44 H -9.34631 -0.613831 -0.474021 0
M  V30 45 H -7.53109 -3.56893 -0.134956 0
M  V30 46 H -8.66013 -3.0962 -1.43128 0
M  V30 END ATOM
M  V30 BEGIN BOND
M  V30 1 1 1 2
M  V30 2 1 2 3
M  V30 3 2 3 4
M  V30 4 1 4 5
M  V30 5 2 5 6
M  V30 6 1 6 7
M  V30 7 2 7 8
M  V30 8 1 6 9
M  V30 9 1 9 10
M  V30 10 2 10 11
M  V30 11 1 10 12
M  V30 12 2 12 13
M  V30 13 1 13 14
M  V30 14 2 14 15
M  V30 15 1 15 16
M  V30 16 2 16 17
M  V30 17 1 15 18
M  V30 18 1 18 19
M  V30 19 1 19 20
M  V30 20 2 20 21
M  V30 21 1 21 22
M  V30 22 1 22 23
M  V30 23 2 22 24
M  V30 24 1 24 25
M  V30 25 2 25 26
M  V30 26 1 25 27
M  V30 27 1 8 3
M  V30 28 1 17 12
M  V30 29 1 26 20
M  V30 30 1 1 28
M  V30 31 1 1 29
M  V30 32 1 1 30
M  V30 33 1 4 31
M  V30 34 1 5 32
M  V30 35 1 7 33
M  V30 36 1 8 34
M  V30 37 1 9 35
M  V30 38 1 13 36
M  V30 39 1 14 37
M  V30 40 1 16 38
M  V30 41 1 17 39
M  V30 42 1 18 40
M  V30 43 1 18 41
M  V30 44 1 23 42
M  V30 45 1 23 43
M  V30 46 1 24 44
M  V30 47 1 27 45
M  V30 48 1 27 46
M  V30 END BOND
M  V30 END CTAB
M  END
