
     RDKit          3D

  0  0  0  0  0  0  0  0  0  0999 V3000
M  V30 BEGIN CTAB
M  V30 COUNTS 22 22 0 0 0
M  V30 BEGIN ATOM
M  V30 1 O 3.73865 0.955661 0.721899 0
M  V30 2 C 2.892 0.477018 -0.289989 0
M  V30 3 O 2.90836 0.920354 -1.46209 0
M  V30 4 C 1.94271 -0.597704 0.0227259 0
M  V30 5 C 0.515119 -0.141252 -0.0283581 0
M  V30 6 C 0.209847 1.21864 0.00795303 0
M  V30 7 C -1.1505 1.56171 0.0116711 0
M  V30 8 C -2.11229 0.585981 -0.0199938 0
M  V30 9 C -1.80054 -0.743229 -0.054703 0
M  V30 10 C -0.457043 -1.10516 -0.0586268 0
M  V30 11 N -0.0915267 -2.4873 -0.10259 0
M  V30 12 F -2.75649 -1.73008 -0.0927655 0
M  V30 13 N -3.50745 0.919358 0.0141398 0
M  V30 14 H 3.8388 1.94407 0.89683 0
M  V30 15 H 2.12625 -0.961669 1.08558 0
M  V30 16 H 2.14208 -1.43517 -0.636181 0
M  V30 17 H 0.990762 1.96231 0.0250449 0
M  V30 18 H -1.44076 2.6014 0.0507133 0
M  V30 19 H -0.524635 -3.13498 -0.804633 0
M  V30 20 H 0.614363 -2.89015 0.548739 0
M  V30 21 H -3.96189 1.06486 0.970428 0
M  V30 22 H -4.11582 1.01533 -0.805788 0
M  V30 END ATOM
M  V30 BEGIN BOND
M  V30 1 1 1 2
M  V30 2 2 2 3
M  V30 3 1 2 4
M  V30 4 1 4 5
M  V30 5 2 5 6
M  V30 6 1 6 7
M  V30 7 2 7 8
M  V30 8 1 8 9
M  V30 9 2 9 10
M  V30 10 1 10 11
M  V30 11 1 9 12
M  V30 12 1 8 13
M  V30 13 1 10 5
M  V30 14 1 1 14
M  V30 15 1 4 15
M  V30 16 1 4 16
M  V30 17 1 6 17
M  V30 18 1 7 18
M  V30 19 1 11 19
M  V30 20 1 11 20
M  V30 21 1 13 21
M  V30 22 1 13 22
M  V30 END BOND
M  V30 END CTAB
M  END
