
     RDKit          3D

  0  0  0  0  0  0  0  0  0  0999 V3000
M  V30 BEGIN CTAB
M  V30 COUNTS 26 26 0 0 0
M  V30 BEGIN ATOM
M  V30 1 N -4.37529 -0.383727 0.511686 0
M  V30 2 C -2.95268 -0.476242 0.354574 0
M  V30 3 C -2.48887 0.447464 -0.726556 0
M  V30 4 N -1.05158 0.346762 -0.883553 0
M  V30 5 C -0.122568 0.644195 0.126817 0
M  V30 6 O -0.443974 1.03469 1.28157 0
M  V30 7 C 1.32236 0.49606 -0.163794 0 CFG=2
M  V30 8 C 1.73263 -0.928001 -0.559208 0
M  V30 9 C 3.05226 -0.606741 0.158161 0 CFG=2
M  V30 10 C 2.19126 0.280841 1.07015 0
M  V30 11 N 3.91938 0.25825 -0.627919 0
M  V30 12 H -4.68895 -0.80607 1.39461 0
M  V30 13 H -4.77927 0.530381 0.339399 0
M  V30 14 H -2.73024 -1.52309 0.0109472 0
M  V30 15 H -2.45884 -0.305582 1.32712 0
M  V30 16 H -2.9921 0.119853 -1.6667 0
M  V30 17 H -2.80948 1.49497 -0.54037 0
M  V30 18 H -0.669946 0.0271142 -1.82381 0
M  V30 19 H 1.77162 1.26106 -0.811587 0
M  V30 20 H 1.82908 -1.09726 -1.63105 0
M  V30 21 H 1.17662 -1.65598 0.0408127 0
M  V30 22 H 3.52584 -1.45153 0.651212 0
M  V30 23 H 2.70107 1.16471 1.45031 0
M  V30 24 H 1.71279 -0.38704 1.82999 0
M  V30 25 H 3.64171 0.289126 -1.63503 0
M  V30 26 H 3.9872 1.22579 -0.218009 0
M  V30 END ATOM
M  V30 BEGIN BOND
M  V30 1 1 1 2
M  V30 2 1 2 3
M  V30 3 1 3 4
M  V30 4 1 4 5
M  V30 5 2 5 6
M  V30 6 1 5 7
M  V30 7 1 7 8
M  V30 8 1 8 9
M  V30 9 1 9 10
M  V30 10 1 9 11
M  V30 11 1 10 7
M  V30 12 1 1 12
M  V30 13 1 1 13
M  V30 14 1 2 14
M  V30 15 1 2 15
M  V30 16 1 3 16
M  V30 17 1 3 17
M  V30 18 1 4 18
M  V30 19 1 7 19 CFG=3
M  V30 20 1 8 20
M  V30 21 1 8 21
M  V30 22 1 9 22 CFG=1
M  V30 23 1 10 23
M  V30 24 1 10 24
M  V30 25 1 11 25
M  V30 26 1 11 26
M  V30 END BOND
M  V30 END CTAB
M  END
