
     RDKit          3D

  0  0  0  0  0  0  0  0  0  0999 V3000
M  V30 BEGIN CTAB
M  V30 COUNTS 21 22 0 0 0
M  V30 BEGIN ATOM
M  V30 1 N 4.39722 -0.192579 -0.326079 0
M  V30 2 C 2.97771 -0.222215 -0.238574 0
M  V30 3 C 2.28595 0.972232 -0.256581 0
M  V30 4 C 0.906637 0.966038 -0.17266 0
M  V30 5 C 0.278505 -0.260745 -0.0730216 0
M  V30 6 N 0.982144 -1.40581 -0.0582182 0
M  V30 7 C 2.3231 -1.44314 -0.13763 0
M  V30 8 C -1.18062 -0.297353 0.0173462 0
M  V30 9 N -1.93356 -1.4203 0.119419 0
M  V30 10 N -3.20041 -1.04302 0.177394 0
M  V30 11 C -3.27767 0.291142 0.115124 0
M  V30 12 N -2.0176 0.742416 0.0159691 0
M  V30 13 N -4.46474 1.08365 0.147441 0
M  V30 14 H 4.92978 -0.977444 0.0845976 0
M  V30 15 H 4.86169 0.615147 -0.799347 0
M  V30 16 H 2.78454 1.94346 -0.33554 0
M  V30 17 H 0.329082 1.87741 -0.183393 0
M  V30 18 H 2.89383 -2.35949 -0.126244 0
M  V30 19 H -4.04713 -1.65401 0.259463 0
M  V30 20 H -5.3287 0.784396 0.651029 0
M  V30 21 H -4.49977 2.00022 -0.341064 0
M  V30 END ATOM
M  V30 BEGIN BOND
M  V30 1 1 1 2
M  V30 2 2 2 3
M  V30 3 1 3 4
M  V30 4 2 4 5
M  V30 5 1 5 6
M  V30 6 2 6 7
M  V30 7 1 5 8
M  V30 8 2 8 9
M  V30 9 1 9 10
M  V30 10 1 10 11
M  V30 11 2 11 12
M  V30 12 1 11 13
M  V30 13 1 7 2
M  V30 14 1 12 8
M  V30 15 1 1 14
M  V30 16 1 1 15
M  V30 17 1 3 16
M  V30 18 1 4 17
M  V30 19 1 7 18
M  V30 20 1 10 19
M  V30 21 1 13 20
M  V30 22 1 13 21
M  V30 END BOND
M  V30 END CTAB
M  END
