
     RDKit          3D

  0  0  0  0  0  0  0  0  0  0999 V3000
M  V30 BEGIN CTAB
M  V30 COUNTS 40 41 0 0 0
M  V30 BEGIN ATOM
M  V30 1 N -2.05421 3.18879 -2.21704 0
M  V30 2 C -2.23637 2.2981 -1.4952 0
M  V30 3 C -2.45718 1.17196 -0.607465 0
M  V30 4 C -3.20308 1.40282 0.484544 0
M  V30 5 N -3.74067 2.68 0.746591 0
M  V30 6 S -3.44831 -0.0138588 1.54975 0
M  V30 7 C -3.36231 -1.45693 0.492144 0
M  V30 8 C -2.60534 -1.30377 -0.578762 0
M  V30 9 C -1.87254 -0.105509 -0.942672 0
M  V30 10 C -0.460617 -0.283649 -0.379943 0
M  V30 11 C 0.493698 0.752085 -0.887137 0
M  V30 12 C 1.84218 0.462082 -0.258446 0
M  V30 13 C 1.81816 0.516354 1.23572 0
M  V30 14 C 3.25587 0.460733 1.72098 0
M  V30 15 C 4.22591 0.238911 0.602223 0
M  V30 16 C 3.86561 -0.886578 -0.311163 0
M  V30 17 C 2.38866 -0.884079 -0.669382 0
M  V30 18 C -2.52415 -2.4712 -1.44869 0
M  V30 19 N -2.46048 -3.39168 -2.14792 0
M  V30 20 N -4.0534 -2.63417 0.80501 0
M  V30 21 H -3.14287 3.34878 1.29411 0
M  V30 22 H -4.67858 3.00962 0.441311 0
M  V30 23 H -1.71145 -0.12796 -2.06309 0
M  V30 24 H -0.115623 -1.26908 -0.69862 0
M  V30 25 H -0.483098 -0.262311 0.724037 0
M  V30 26 H 0.226707 1.78429 -0.584502 0
M  V30 27 H 0.638636 0.640781 -1.98071 0
M  V30 28 H 2.52919 1.25677 -0.613412 0
M  V30 29 H 1.30449 -0.353969 1.7025 0
M  V30 30 H 1.31033 1.44645 1.54701 0
M  V30 31 H 3.42267 -0.318314 2.47921 0
M  V30 32 H 3.5023 1.43708 2.19764 0
M  V30 33 H 4.4588 1.18534 0.0447223 0
M  V30 34 H 5.20943 -0.0378427 1.08396 0
M  V30 35 H 4.40395 -0.698933 -1.28519 0
M  V30 36 H 4.20918 -1.87844 0.0433233 0
M  V30 37 H 1.91238 -1.71457 -0.116694 0
M  V30 38 H 2.22419 -1.02312 -1.76254 0
M  V30 39 H -4.55364 -3.17718 0.0751125 0
M  V30 40 H -4.0784 -2.98778 1.77869 0
M  V30 END ATOM
M  V30 BEGIN BOND
M  V30 1 3 1 2
M  V30 2 1 2 3
M  V30 3 2 3 4
M  V30 4 1 4 5
M  V30 5 1 4 6
M  V30 6 1 6 7
M  V30 7 2 7 8
M  V30 8 1 8 9
M  V30 9 1 9 10
M  V30 10 1 10 11
M  V30 11 1 11 12
M  V30 12 1 12 13
M  V30 13 1 13 14
M  V30 14 1 14 15
M  V30 15 1 15 16
M  V30 16 1 16 17
M  V30 17 1 8 18
M  V30 18 3 18 19
M  V30 19 1 7 20
M  V30 20 1 9 3
M  V30 21 1 17 12
M  V30 22 1 5 21
M  V30 23 1 5 22
M  V30 24 1 9 23
M  V30 25 1 10 24
M  V30 26 1 10 25
M  V30 27 1 11 26
M  V30 28 1 11 27
M  V30 29 1 12 28
M  V30 30 1 13 29
M  V30 31 1 13 30
M  V30 32 1 14 31
M  V30 33 1 14 32
M  V30 34 1 15 33
M  V30 35 1 15 34
M  V30 36 1 16 35
M  V30 37 1 16 36
M  V30 38 1 17 37
M  V30 39 1 17 38
M  V30 40 1 20 39
M  V30 41 1 20 40
M  V30 END BOND
M  V30 END CTAB
M  END
