
     RDKit          3D

  0  0  0  0  0  0  0  0  0  0999 V3000
M  V30 BEGIN CTAB
M  V30 COUNTS 54 58 0 0 0
M  V30 BEGIN ATOM
M  V30 1 F 7.51971 -2.04054 -2.56448 0
M  V30 2 C 6.82322 -1.46632 -1.55851 0
M  V30 3 C 6.38823 -2.14823 -0.44439 0
M  V30 4 C 5.6726 -1.4958 0.560766 0
M  V30 5 C 5.37332 -0.156428 0.483082 0
M  V30 6 C 5.81415 0.529854 -0.643743 0
M  V30 7 C 6.52066 -0.130255 -1.62834 0
M  V30 8 C 4.60978 0.560823 1.54245 0
M  V30 9 N 3.23754 0.830134 1.16365 0
M  V30 10 C 2.25427 -0.176224 1.19828 0
M  V30 11 O 2.59974 -1.33282 1.57371 0
M  V30 12 C 0.85549 0.0132271 0.832003 0
M  V30 13 C -0.141651 -0.972115 0.867864 0
M  V30 14 N 0.0616984 -2.30933 1.27059 0
M  V30 15 N -1.31634 -0.47861 0.469944 0
M  V30 16 C -1.12779 0.831701 0.163849 0
M  V30 17 C 0.196316 1.14695 0.380563 0
M  V30 18 N 0.631631 2.40926 0.142487 0
M  V30 19 C -0.205126 3.36 -0.301438 0
M  V30 20 C 0.202334 4.65339 -0.554062 0
M  V30 21 C -0.613689 5.65902 -1.00799 0
M  V30 22 C -1.95113 5.31212 -1.21915 0
M  V30 23 C -2.40387 4.0336 -0.9808 0
M  V30 24 C -1.53911 3.06191 -0.525018 0
M  V30 25 N -1.94673 1.80238 -0.281391 0
M  V30 26 C -2.55399 -1.17055 0.3778 0
M  V30 27 C -2.70975 -2.26626 -0.43959 0
M  V30 28 C -3.89111 -2.95565 -0.552178 0
M  V30 29 C -4.98923 -2.56779 0.16496 0
M  V30 30 C -4.86484 -1.46915 0.996614 0
M  V30 31 C -3.65887 -0.77686 1.10217 0
M  V30 32 S -6.48216 -3.43652 0.0253798 0
M  V30 33 O -7.2217 -3.28938 1.34681 0
M  V30 34 O -6.28422 -4.90355 -0.206027 0
M  V30 35 N -7.4098 -2.70511 -1.24171 0
M  V30 36 H 6.60872 -3.2154 -0.349701 0
M  V30 37 H 5.36557 -2.08628 1.40668 0
M  V30 38 H 5.60194 1.57837 -0.744746 0
M  V30 39 H 6.85664 0.416875 -2.49852 0
M  V30 40 H 4.59417 -0.110244 2.42534 0
M  V30 41 H 5.13573 1.48727 1.85807 0
M  V30 42 H 2.95785 1.78644 0.856734 0
M  V30 43 H 0.433746 -3.02828 0.620641 0
M  V30 44 H -0.167386 -2.57784 2.24155 0
M  V30 45 H 1.2405 4.88641 -0.380192 0
M  V30 46 H -0.282503 6.67103 -1.20235 0
M  V30 47 H -2.59072 6.11202 -1.57876 0
M  V30 48 H -3.44772 3.8259 -1.16325 0
M  V30 49 H -1.82221 -2.56394 -1.00656 0
M  V30 50 H -3.96167 -3.80288 -1.20265 0
M  V30 51 H -5.74283 -1.16856 1.56251 0
M  V30 52 H -3.59911 0.0696439 1.75587 0
M  V30 53 H -6.79405 -2.40463 -2.02975 0
M  V30 54 H -7.83622 -1.83278 -0.84839 0
M  V30 END ATOM
M  V30 BEGIN BOND
M  V30 1 1 1 2
M  V30 2 2 2 3
M  V30 3 1 3 4
M  V30 4 2 4 5
M  V30 5 1 5 6
M  V30 6 2 6 7
M  V30 7 1 5 8
M  V30 8 1 8 9
M  V30 9 1 9 10
M  V30 10 2 10 11
M  V30 11 1 10 12
M  V30 12 2 12 13
M  V30 13 1 13 14
M  V30 14 1 13 15
M  V30 15 1 15 16
M  V30 16 2 16 17
M  V30 17 1 17 18
M  V30 18 2 18 19
M  V30 19 1 19 20
M  V30 20 2 20 21
M  V30 21 1 21 22
M  V30 22 2 22 23
M  V30 23 1 23 24
M  V30 24 2 24 25
M  V30 25 1 15 26
M  V30 26 2 26 27
M  V30 27 1 27 28
M  V30 28 2 28 29
M  V30 29 1 29 30
M  V30 30 2 30 31
M  V30 31 1 29 32
M  V30 32 2 32 33
M  V30 33 2 32 34
M  V30 34 1 32 35
M  V30 35 1 7 2
M  V30 36 1 17 12
M  V30 37 1 24 19
M  V30 38 1 31 26
M  V30 39 1 25 16
M  V30 40 1 3 36
M  V30 41 1 4 37
M  V30 42 1 6 38
M  V30 43 1 7 39
M  V30 44 1 8 40
M  V30 45 1 8 41
M  V30 46 1 9 42
M  V30 47 1 14 43
M  V30 48 1 14 44
M  V30 49 1 20 45
M  V30 50 1 21 46
M  V30 51 1 22 47
M  V30 52 1 23 48
M  V30 53 1 27 49
M  V30 54 1 28 50
M  V30 55 1 30 51
M  V30 56 1 31 52
M  V30 57 1 35 53
M  V30 58 1 35 54
M  V30 END BOND
M  V30 END CTAB
M  END
