
     RDKit          3D

  0  0  0  0  0  0  0  0  0  0999 V3000
M  V30 BEGIN CTAB
M  V30 COUNTS 43 44 0 0 0
M  V30 BEGIN ATOM
M  V30 1 C -1.50114 -2.47938 -0.583058 0
M  V30 2 N -0.64618 -1.34352 -0.291509 0
M  V30 3 C 0.62174 -1.79889 0.190262 0
M  V30 4 C 1.6509 -0.747026 0.249957 0
M  V30 5 C 2.46753 -0.602142 1.35933 0
M  V30 6 C 3.44316 0.371856 1.44713 0
M  V30 7 C 3.63553 1.2479 0.407737 0
M  V30 8 C 2.84274 1.12866 -0.702703 0
M  V30 9 C 1.86625 0.151018 -0.78621 0
M  V30 10 S 4.87991 2.46197 0.57306 0
M  V30 11 O 4.48011 3.69142 -0.195357 0
M  V30 12 O 5.01956 2.81161 2.02593 0
M  V30 13 N 6.39331 1.83526 0.0142317 0
M  V30 14 C 0.516963 -2.56202 1.49595 0
M  V30 15 C -1.34012 -0.504219 0.672505 0
M  V30 16 C -2.64272 -0.000618236 0.168222 0
M  V30 17 C -3.79694 -0.71841 0.407834 0
M  V30 18 C -5.04659 -0.304647 -0.0326726 0
M  V30 19 C -5.07496 0.89411 -0.741102 0
M  V30 20 C -3.95281 1.63622 -0.999915 0
M  V30 21 C -2.74013 1.18934 -0.546123 0
M  V30 22 N -4.05391 2.85608 -1.73273 0
M  V30 23 H -1.88612 -3.00055 0.295067 0
M  V30 24 H -2.27739 -2.11783 -1.29184 0
M  V30 25 H -0.931292 -3.26189 -1.16432 0
M  V30 26 H 1.00007 -2.54969 -0.565661 0
M  V30 27 H 2.34878 -1.27003 2.19914 0
M  V30 28 H 4.05141 0.434461 2.34176 0
M  V30 29 H 2.97657 1.81222 -1.54003 0
M  V30 30 H 1.24802 0.0694232 -1.66845 0
M  V30 31 H 6.38812 1.64741 -1.00062 0
M  V30 32 H 6.56335 0.953282 0.573239 0
M  V30 33 H -0.229438 -3.374 1.40997 0
M  V30 34 H 0.28901 -1.87613 2.3451 0
M  V30 35 H 1.47543 -3.05456 1.75562 0
M  V30 36 H -1.57594 -1.09162 1.59958 0
M  V30 37 H -0.704836 0.341765 1.01655 0
M  V30 38 H -3.74607 -1.64939 0.962952 0
M  V30 39 H -5.92754 -0.890768 0.172229 0
M  V30 40 H -6.01046 1.2521 -1.0976 0
M  V30 41 H -1.83325 1.77971 -0.751376 0
M  V30 42 H -3.2384 3.30031 -2.20802 0
M  V30 43 H -5.00224 3.33121 -1.79554 0
M  V30 END ATOM
M  V30 BEGIN BOND
M  V30 1 1 1 2
M  V30 2 1 2 3
M  V30 3 1 3 4
M  V30 4 2 4 5
M  V30 5 1 5 6
M  V30 6 2 6 7
M  V30 7 1 7 8
M  V30 8 2 8 9
M  V30 9 1 7 10
M  V30 10 2 10 11
M  V30 11 2 10 12
M  V30 12 1 10 13
M  V30 13 1 3 14
M  V30 14 1 2 15
M  V30 15 1 15 16
M  V30 16 2 16 17
M  V30 17 1 17 18
M  V30 18 2 18 19
M  V30 19 1 19 20
M  V30 20 2 20 21
M  V30 21 1 20 22
M  V30 22 1 9 4
M  V30 23 1 21 16
M  V30 24 1 1 23
M  V30 25 1 1 24
M  V30 26 1 1 25
M  V30 27 1 3 26
M  V30 28 1 5 27
M  V30 29 1 6 28
M  V30 30 1 8 29
M  V30 31 1 9 30
M  V30 32 1 13 31
M  V30 33 1 13 32
M  V30 34 1 14 33
M  V30 35 1 14 34
M  V30 36 1 14 35
M  V30 37 1 15 36
M  V30 38 1 15 37
M  V30 39 1 17 38
M  V30 40 1 18 39
M  V30 41 1 19 40
M  V30 42 1 21 41
M  V30 43 1 22 42
M  V30 44 1 22 43
M  V30 END BOND
M  V30 END CTAB
M  END
