
     RDKit          3D

  0  0  0  0  0  0  0  0  0  0999 V3000
M  V30 BEGIN CTAB
M  V30 COUNTS 17 17 0 0 0
M  V30 BEGIN ATOM
M  V30 1 N 4.31246 -0.693928 0.235586 0
M  V30 2 C 3.18111 -0.434642 0.169082 0
M  V30 3 C 1.7861 -0.104713 0.0689347 0
M  V30 4 C 0.838288 -1.10305 0.20685 0
M  V30 5 C -0.521963 -0.787899 0.110291 0
M  V30 6 N -1.51665 -1.78057 0.245755 0
M  V30 7 C -0.881634 0.536919 -0.124402 0
M  V30 8 C 0.0792879 1.51559 -0.258585 0
M  V30 9 C 1.42065 1.20884 -0.164046 0
M  V30 10 Cl -0.43711 3.16133 -0.552368 0
M  V30 11 N -2.25054 0.882304 -0.226314 0
M  V30 12 H 1.10553 -2.14374 0.390717 0
M  V30 13 H -1.39319 -2.59476 0.869695 0
M  V30 14 H -2.39337 -1.69092 -0.294157 0
M  V30 15 H 2.1995 1.95227 -0.264416 0
M  V30 16 H -2.86513 0.694501 -1.02402 0
M  V30 17 H -2.66335 1.38246 0.611392 0
M  V30 END ATOM
M  V30 BEGIN BOND
M  V30 1 3 1 2
M  V30 2 1 2 3
M  V30 3 2 3 4
M  V30 4 1 4 5
M  V30 5 1 5 6
M  V30 6 2 5 7
M  V30 7 1 7 8
M  V30 8 2 8 9
M  V30 9 1 8 10
M  V30 10 1 7 11
M  V30 11 1 9 3
M  V30 12 1 4 12
M  V30 13 1 6 13
M  V30 14 1 6 14
M  V30 15 1 9 15
M  V30 16 1 11 16
M  V30 17 1 11 17
M  V30 END BOND
M  V30 END CTAB
M  END
