
     RDKit          3D

  0  0  0  0  0  0  0  0  0  0999 V3000
M  V30 BEGIN CTAB
M  V30 COUNTS 15 14 0 0 0
M  V30 BEGIN ATOM
M  V30 1 N 2.27023 -0.357426 -0.506559 0
M  V30 2 P 0.708437 0.346353 -0.0940912 0
M  V30 3 N 0.426185 1.6841 -1.14753 0
M  V30 4 O 0.752124 0.75898 1.35603 0
M  V30 5 C -0.590301 -0.902829 -0.28331 0
M  V30 6 C -1.8405 -0.508387 0.485085 0
M  V30 7 Cl -2.49865 1.02857 -0.0764413 0
M  V30 8 H 2.18754 -1.04931 -1.27446 0
M  V30 9 H 2.69146 -0.772237 0.367604 0
M  V30 10 H -0.201024 2.38575 -0.707617 0
M  V30 11 H 1.33218 2.07298 -1.46822 0
M  V30 12 H -0.196764 -1.83344 0.181886 0
M  V30 13 H -0.814169 -1.08773 -1.34658 0
M  V30 14 H -1.61882 -0.469668 1.55858 0
M  V30 15 H -2.60793 -1.2957 0.343373 0
M  V30 END ATOM
M  V30 BEGIN BOND
M  V30 1 1 1 2
M  V30 2 1 2 3
M  V30 3 2 2 4
M  V30 4 1 2 5
M  V30 5 1 5 6
M  V30 6 1 6 7
M  V30 7 1 1 8
M  V30 8 1 1 9
M  V30 9 1 3 10
M  V30 10 1 3 11
M  V30 11 1 5 12
M  V30 12 1 5 13
M  V30 13 1 6 14
M  V30 14 1 6 15
M  V30 END BOND
M  V30 END CTAB
M  END
