
     RDKit          3D

  0  0  0  0  0  0  0  0  0  0999 V3000
M  V30 BEGIN CTAB
M  V30 COUNTS 20 19 0 0 0
M  V30 BEGIN ATOM
M  V30 1 N -3.10372 0.633176 0.737681 0
M  V30 2 O -2.58932 0.580855 -0.488089 0
M  V30 3 C -1.78667 -0.555517 -0.628643 0
M  V30 4 C -0.449474 -0.0448301 -1.19437 0
M  V30 5 C 0.435782 0.485208 -0.103057 0
M  V30 6 C 1.62635 -0.453168 0.18512 0
M  V30 7 O 2.73387 0.30787 -0.250941 0
M  V30 8 N 3.73156 0.286157 0.671853 0
M  V30 9 H -3.28883 1.62862 1.02784 0
M  V30 10 H -3.91302 0.0185823 0.804518 0
M  V30 11 H -2.23034 -1.27914 -1.28724 0
M  V30 12 H -1.61463 -0.996563 0.364479 0
M  V30 13 H -0.716319 0.841046 -1.84774 0
M  V30 14 H 0.0513877 -0.777143 -1.83703 0
M  V30 15 H -0.159509 0.575971 0.873339 0
M  V30 16 H 0.773602 1.50453 -0.297642 0
M  V30 17 H 1.64445 -0.75292 1.19226 0
M  V30 18 H 1.54003 -1.35305 -0.457745 0
M  V30 19 H 3.8446 -0.660309 1.06513 0
M  V30 20 H 3.4702 0.931123 1.47029 0
M  V30 END ATOM
M  V30 BEGIN BOND
M  V30 1 1 1 2
M  V30 2 1 2 3
M  V30 3 1 3 4
M  V30 4 1 4 5
M  V30 5 1 5 6
M  V30 6 1 6 7
M  V30 7 1 7 8
M  V30 8 1 1 9
M  V30 9 1 1 10
M  V30 10 1 3 11
M  V30 11 1 3 12
M  V30 12 1 4 13
M  V30 13 1 4 14
M  V30 14 1 5 15
M  V30 15 1 5 16
M  V30 16 1 6 17
M  V30 17 1 6 18
M  V30 18 1 8 19
M  V30 19 1 8 20
M  V30 END BOND
M  V30 END CTAB
M  END
