
     RDKit          3D

  0  0  0  0  0  0  0  0  0  0999 V3000
M  V30 BEGIN CTAB
M  V30 COUNTS 35 36 0 0 0
M  V30 BEGIN ATOM
M  V30 1 N -3.69853 -2.08516 -0.0713073 0
M  V30 2 C -2.29198 -1.66468 0.0114901 0
M  V30 3 C -2.26395 -0.234145 0.496798 0
M  V30 4 N -0.95121 0.301809 0.623994 0
M  V30 5 C -1.0551 1.66291 1.10254 0
M  V30 6 C -1.68488 2.5771 0.103419 0
M  V30 7 N -0.946813 2.52753 -1.12101 0
M  V30 8 C 0.211633 1.71249 -0.978435 0
M  V30 9 C -0.131305 0.284128 -0.543152 0 CFG=1
M  V30 10 C 1.20272 -0.368955 -0.282971 0
M  V30 11 C 1.71746 -1.2825 -1.17885 0
M  V30 12 C 2.93957 -1.88167 -0.941799 0
M  V30 13 C 3.64135 -1.56227 0.193482 0
M  V30 14 C 3.12126 -0.651288 1.08053 0
M  V30 15 N 1.92842 -0.0917234 0.811098 0
M  V30 16 N 3.84482 -0.303097 2.27907 0
M  V30 17 H -4.11534 -2.25011 0.853159 0
M  V30 18 H -3.71492 -2.923 -0.697591 0
M  V30 19 H -1.7366 -2.35871 0.661589 0
M  V30 20 H -1.93173 -1.67733 -1.0379 0
M  V30 21 H -2.71495 -0.245169 1.518 0
M  V30 22 H -2.95659 0.333411 -0.138272 0
M  V30 23 H -1.70764 1.64844 2.01751 0
M  V30 24 H -0.0829137 2.08704 1.39963 0
M  V30 25 H -1.69215 3.62401 0.488414 0
M  V30 26 H -2.74423 2.35296 -0.124942 0
M  V30 27 H -0.635982 3.46309 -1.46384 0
M  V30 28 H 0.996622 2.14015 -0.333858 0
M  V30 29 H 0.686384 1.59136 -1.99586 0
M  V30 30 H -0.581122 -0.203189 -1.40906 0
M  V30 31 H 1.17032 -1.55221 -2.09532 0
M  V30 32 H 3.36527 -2.59973 -1.62626 0
M  V30 33 H 4.60333 -1.98992 0.446315 0
M  V30 34 H 4.39437 -1.03626 2.74318 0
M  V30 35 H 3.81441 0.654662 2.66352 0
M  V30 END ATOM
M  V30 BEGIN BOND
M  V30 1 1 1 2
M  V30 2 1 2 3
M  V30 3 1 3 4
M  V30 4 1 4 5
M  V30 5 1 5 6
M  V30 6 1 6 7
M  V30 7 1 7 8
M  V30 8 1 8 9
M  V30 9 1 9 10
M  V30 10 2 10 11
M  V30 11 1 11 12
M  V30 12 2 12 13
M  V30 13 1 13 14
M  V30 14 2 14 15
M  V30 15 1 14 16
M  V30 16 1 9 4
M  V30 17 1 15 10
M  V30 18 1 1 17
M  V30 19 1 1 18
M  V30 20 1 2 19
M  V30 21 1 2 20
M  V30 22 1 3 21
M  V30 23 1 3 22
M  V30 24 1 5 23
M  V30 25 1 5 24
M  V30 26 1 6 25
M  V30 27 1 6 26
M  V30 28 1 7 27
M  V30 29 1 8 28
M  V30 30 1 8 29
M  V30 31 1 9 30 CFG=3
M  V30 32 1 11 31
M  V30 33 1 12 32
M  V30 34 1 13 33
M  V30 35 1 16 34
M  V30 36 1 16 35
M  V30 END BOND
M  V30 END CTAB
M  END
