
     RDKit          3D

  0  0  0  0  0  0  0  0  0  0999 V3000
M  V30 BEGIN CTAB
M  V30 COUNTS 26 26 0 0 0
M  V30 BEGIN ATOM
M  V30 1 N -3.73565 -1.14081 1.24094 0
M  V30 2 C -3.56699 0.00305385 0.409412 0
M  V30 3 N -4.45562 1.07682 0.539611 0
M  V30 4 N -2.58451 -0.0238532 -0.429166 0
M  V30 5 N -1.7114 -1.09439 -0.547802 0
M  V30 6 S -0.344971 -0.949269 -1.57447 0
M  V30 7 O -0.0880038 -2.30596 -2.18613 0
M  V30 8 O -0.708398 -0.0225259 -2.69293 0
M  V30 9 C 1.05156 -0.330007 -0.767007 0
M  V30 10 C 1.9814 -1.14947 -0.13996 0
M  V30 11 C 3.09048 -0.625318 0.49896 0
M  V30 12 C 3.30248 0.758067 0.527932 0
M  V30 13 C 2.3897 1.58376 -0.0891546 0
M  V30 14 C 1.30152 1.02488 -0.712795 0
M  V30 15 N 4.42176 1.3243 1.17 0 CHG=1
M  V30 16 O 5.34916 0.530392 1.79374 0 CHG=-1
M  V30 17 O 4.59809 2.55309 1.18837 0
M  V30 18 H -3.2167 -1.19814 2.14481 0
M  V30 19 H -4.38223 -1.88294 0.902323 0
M  V30 20 H -4.23666 1.84748 1.20951 0
M  V30 21 H -5.3551 1.1566 -0.0115029 0
M  V30 22 H -1.85278 -1.98144 -0.0387391 0
M  V30 23 H 1.81576 -2.22366 -0.163084 0
M  V30 24 H 3.82753 -1.24485 0.993824 0
M  V30 25 H 2.55574 2.65425 -0.0655145 0
M  V30 26 H 0.553805 1.65994 -1.21529 0
M  V30 END ATOM
M  V30 BEGIN BOND
M  V30 1 1 1 2
M  V30 2 1 2 3
M  V30 3 2 2 4
M  V30 4 1 4 5
M  V30 5 1 5 6
M  V30 6 2 6 7
M  V30 7 2 6 8
M  V30 8 1 6 9
M  V30 9 2 9 10
M  V30 10 1 10 11
M  V30 11 2 11 12
M  V30 12 1 12 13
M  V30 13 2 13 14
M  V30 14 1 12 15
M  V30 15 1 15 16
M  V30 16 2 15 17
M  V30 17 1 14 9
M  V30 18 1 1 18
M  V30 19 1 1 19
M  V30 20 1 3 20
M  V30 21 1 3 21
M  V30 22 1 5 22
M  V30 23 1 10 23
M  V30 24 1 11 24
M  V30 25 1 13 25
M  V30 26 1 14 26
M  V30 END BOND
M  V30 END CTAB
M  END
