
     RDKit          3D

  0  0  0  0  0  0  0  0  0  0999 V3000
M  V30 BEGIN CTAB
M  V30 COUNTS 24 25 0 0 0
M  V30 BEGIN ATOM
M  V30 1 C 4.86238 -0.0529994 -0.292389 0
M  V30 2 C 3.36228 -0.233784 -0.18917 0
M  V30 3 C 2.68922 -1.32922 0.271454 0
M  V30 4 C 1.34295 -1.27721 0.27657 0
M  V30 5 C 0.760865 -0.121027 -0.184289 0
M  V30 6 S 2.10913 0.841247 -0.603744 0
M  V30 7 C -0.656551 0.192085 -0.284381 0
M  V30 8 C -1.59881 -0.718454 0.105956 0
M  V30 9 C -2.9601 -0.401661 0.00330967 0
M  V30 10 N -3.97935 -1.29461 0.387982 0
M  V30 11 N -3.26449 0.80178 -0.48217 0
M  V30 12 C -2.35793 1.704 -0.86841 0
M  V30 13 N -1.04622 1.37884 -0.761372 0
M  V30 14 N -2.76783 2.95065 -1.36947 0
M  V30 15 H 5.18166 -0.190101 -1.33542 0
M  V30 16 H 5.30082 -0.797716 0.392749 0
M  V30 17 H 5.12182 0.959106 0.114046 0
M  V30 18 H 3.22644 -2.23936 0.632712 0
M  V30 19 H 0.669774 -2.10226 0.626733 0
M  V30 20 H -1.36705 -1.69465 0.500059 0
M  V30 21 H -4.53496 -1.10989 1.25348 0
M  V30 22 H -4.23257 -2.15725 -0.142279 0
M  V30 23 H -2.58267 3.23001 -2.36069 0
M  V30 24 H -3.27881 3.66247 -0.776879 0
M  V30 END ATOM
M  V30 BEGIN BOND
M  V30 1 1 1 2
M  V30 2 2 2 3
M  V30 3 1 3 4
M  V30 4 2 4 5
M  V30 5 1 5 6
M  V30 6 1 5 7
M  V30 7 2 7 8
M  V30 8 1 8 9
M  V30 9 1 9 10
M  V30 10 2 9 11
M  V30 11 1 11 12
M  V30 12 2 12 13
M  V30 13 1 12 14
M  V30 14 1 6 2
M  V30 15 1 13 7
M  V30 16 1 1 15
M  V30 17 1 1 16
M  V30 18 1 1 17
M  V30 19 1 3 18
M  V30 20 1 4 19
M  V30 21 1 8 20
M  V30 22 1 10 21
M  V30 23 1 10 22
M  V30 24 1 14 23
M  V30 25 1 14 24
M  V30 END BOND
M  V30 END CTAB
M  END
