
     RDKit          3D

  0  0  0  0  0  0  0  0  0  0999 V3000
M  V30 BEGIN CTAB
M  V30 COUNTS 46 48 0 0 0
M  V30 BEGIN ATOM
M  V30 1 N -7.80724 1.08128 0.227442 0
M  V30 2 C -7.10491 -0.031283 -0.310854 0
M  V30 3 N -7.78119 -0.98894 -0.809219 0
M  V30 4 C -5.64953 -0.0305259 -0.270671 0
M  V30 5 C -4.88624 -1.0624 -0.766844 0
M  V30 6 C -3.49702 -1.00051 -0.697786 0
M  V30 7 C -2.81325 0.0614327 -0.146989 0
M  V30 8 C -3.57905 1.09592 0.350356 0
M  V30 9 C -4.95385 1.04576 0.287657 0
M  V30 10 N -1.38586 0.0972946 -0.095535 0
M  V30 11 C -0.682705 -0.97886 -0.774323 0
M  V30 12 C 0.779504 -0.684312 -0.950919 0
M  V30 13 N 1.40596 -0.0424923 0.162452 0
M  V30 14 C 0.643744 0.607948 1.21213 0
M  V30 15 C -0.639664 1.11796 0.580994 0
M  V30 16 C 2.82813 -0.0360692 0.246072 0
M  V30 17 C 3.50629 0.430301 1.33702 0
M  V30 18 C 4.88676 0.4319 1.3919 0
M  V30 19 C 5.59182 -0.0443214 0.330025 0
M  V30 20 C 4.92511 -0.523798 -0.790277 0
M  V30 21 C 3.555 -0.520757 -0.834385 0
M  V30 22 C 7.04411 -0.0827701 0.29614 0
M  V30 23 N 7.75029 -0.58815 -0.832254 0
M  V30 24 N 7.75043 0.333303 1.27299 0
M  V30 25 H -7.54802 1.55106 1.12492 0
M  V30 26 H -8.64441 1.49803 -0.263177 0
M  V30 27 H -7.36194 -1.82513 -1.21677 0
M  V30 28 H -5.3581 -1.9303 -1.21467 0
M  V30 29 H -2.90283 -1.83227 -1.09663 0
M  V30 30 H -3.09247 1.97644 0.802572 0
M  V30 31 H -5.57492 1.85739 0.677391 0
M  V30 32 H -1.15594 -1.07015 -1.78466 0
M  V30 33 H -0.825686 -1.91408 -0.224698 0
M  V30 34 H 0.999567 -0.164158 -1.91978 0
M  V30 35 H 1.2779 -1.69542 -1.04972 0
M  V30 36 H 1.19296 1.53788 1.52746 0
M  V30 37 H 0.473925 -0.00506969 2.09479 0
M  V30 38 H -0.39905 1.98253 -0.066577 0
M  V30 39 H -1.24357 1.50899 1.4496 0
M  V30 40 H 2.95331 0.806364 2.18148 0
M  V30 41 H 5.41639 0.800131 2.25287 0
M  V30 42 H 5.45732 -0.906828 -1.64555 0
M  V30 43 H 3.01774 -0.892244 -1.70698 0
M  V30 44 H 7.6552 -1.59375 -1.07333 0
M  V30 45 H 8.35582 0.0167588 -1.41977 0
M  V30 46 H 7.42018 0.7252 2.1561 0
M  V30 END ATOM
M  V30 BEGIN BOND
M  V30 1 1 1 2
M  V30 2 2 2 3 CFG=2
M  V30 3 1 2 4
M  V30 4 2 4 5
M  V30 5 1 5 6
M  V30 6 2 6 7
M  V30 7 1 7 8
M  V30 8 2 8 9
M  V30 9 1 7 10
M  V30 10 1 10 11
M  V30 11 1 11 12
M  V30 12 1 12 13
M  V30 13 1 13 14
M  V30 14 1 14 15
M  V30 15 1 13 16
M  V30 16 2 16 17
M  V30 17 1 17 18
M  V30 18 2 18 19
M  V30 19 1 19 20
M  V30 20 2 20 21
M  V30 21 1 19 22
M  V30 22 1 22 23
M  V30 23 2 22 24 CFG=2
M  V30 24 1 9 4
M  V30 25 1 15 10
M  V30 26 1 21 16
M  V30 27 1 1 25
M  V30 28 1 1 26
M  V30 29 1 3 27
M  V30 30 1 5 28
M  V30 31 1 6 29
M  V30 32 1 8 30
M  V30 33 1 9 31
M  V30 34 1 11 32
M  V30 35 1 11 33
M  V30 36 1 12 34
M  V30 37 1 12 35
M  V30 38 1 14 36
M  V30 39 1 14 37
M  V30 40 1 15 38
M  V30 41 1 15 39
M  V30 42 1 17 40
M  V30 43 1 18 41
M  V30 44 1 20 42
M  V30 45 1 21 43
M  V30 46 1 23 44
M  V30 47 1 23 45
M  V30 48 1 24 46
M  V30 END BOND
M  V30 END CTAB
M  END
