
     RDKit          3D

  0  0  0  0  0  0  0  0  0  0999 V3000
M  V30 BEGIN CTAB
M  V30 COUNTS 55 59 0 0 0
M  V30 BEGIN ATOM
M  V30 1 C -7.1076 0.748418 -0.293779 0
M  V30 2 N -7.11371 -0.646961 -0.749605 0
M  V30 3 C -6.20362 -0.788952 -1.81287 0
M  V30 4 C -5.05188 -1.68779 -1.42722 0
M  V30 5 N -4.5687 -1.25042 -0.142725 0
M  V30 6 C -5.53071 -1.43001 0.938123 0
M  V30 7 C -6.9226 -1.5492 0.339246 0
M  V30 8 C -3.31814 -0.683106 0.130886 0
M  V30 9 C -2.4108 -0.343299 -0.858639 0
M  V30 10 C -1.17498 0.224272 -0.571807 0
M  V30 11 C -0.773104 0.485478 0.721168 0
M  V30 12 C -1.66964 0.149528 1.71212 0
M  V30 13 C -2.89625 -0.413139 1.43702 0
M  V30 14 C 0.527493 1.08932 1.01707 0
M  V30 15 C 1.74474 0.769957 0.502067 0
M  V30 16 N 2.07457 -0.174141 -0.397657 0
M  V30 17 C 3.37291 -0.341704 -0.79281 0
M  V30 18 C 4.3473 0.481397 -0.247897 0
M  V30 19 C 3.94278 1.42794 0.668257 0
M  V30 20 N 4.90036 2.28545 1.25349 0
M  V30 21 N 2.65141 1.58872 1.0561 0
M  V30 22 N 2.06826 2.42523 1.90967 0
M  V30 23 C 0.745853 2.136 1.90465 0
M  V30 24 C 5.75955 0.384287 -0.624819 0
M  V30 25 C 6.41663 -0.842816 -0.622944 0
M  V30 26 N 5.67529 -1.98213 -0.218304 0
M  V30 27 C 7.7419 -0.914027 -0.997425 0
M  V30 28 C 8.46814 0.190866 -1.38228 0
M  V30 29 C 7.82695 1.42094 -1.38887 0
M  V30 30 C 6.50097 1.47958 -1.01243 0
M  V30 31 H -6.08008 1.17143 -0.418588 0
M  V30 32 H -7.27755 0.734372 0.810742 0
M  V30 33 H -7.83718 1.37415 -0.809844 0
M  V30 34 H -5.76285 0.230261 -2.05301 0
M  V30 35 H -6.68204 -1.13754 -2.76517 0
M  V30 36 H -5.40616 -2.7585 -1.37372 0
M  V30 37 H -4.32706 -1.62299 -2.25091 0
M  V30 38 H -5.48674 -0.55509 1.59926 0
M  V30 39 H -5.29072 -2.35591 1.4561 0
M  V30 40 H -7.1356 -2.59865 0.0658051 0
M  V30 41 H -7.62965 -1.27485 1.14485 0
M  V30 42 H -2.70445 -0.538242 -1.8893 0
M  V30 43 H -0.506106 0.469399 -1.39382 0
M  V30 44 H -1.37974 0.344143 2.74896 0
M  V30 45 H -3.59674 -0.676661 2.24566 0
M  V30 46 H 3.65431 -1.08041 -1.50651 0
M  V30 47 H 4.96176 3.26752 0.944527 0
M  V30 48 H 5.5328 1.92814 1.98595 0
M  V30 49 H -0.0444614 2.61992 2.48514 0
M  V30 50 H 5.10944 -1.93078 0.642864 0
M  V30 51 H 5.7175 -2.83763 -0.792497 0
M  V30 52 H 8.20489 -1.89781 -0.976725 0
M  V30 53 H 9.52015 0.122267 -1.67698 0
M  V30 54 H 8.38195 2.31044 -1.69031 0
M  V30 55 H 6.04094 2.45334 -1.03642 0
M  V30 END ATOM
M  V30 BEGIN BOND
M  V30 1 1 1 2
M  V30 2 1 2 3
M  V30 3 1 3 4
M  V30 4 1 4 5
M  V30 5 1 5 6
M  V30 6 1 6 7
M  V30 7 1 5 8
M  V30 8 2 8 9
M  V30 9 1 9 10
M  V30 10 2 10 11
M  V30 11 1 11 12
M  V30 12 2 12 13
M  V30 13 1 11 14
M  V30 14 2 14 15
M  V30 15 1 15 16
M  V30 16 2 16 17
M  V30 17 1 17 18
M  V30 18 2 18 19
M  V30 19 1 19 20
M  V30 20 1 19 21
M  V30 21 1 21 22
M  V30 22 2 22 23
M  V30 23 1 18 24
M  V30 24 2 24 25
M  V30 25 1 25 26
M  V30 26 1 25 27
M  V30 27 2 27 28
M  V30 28 1 28 29
M  V30 29 2 29 30
M  V30 30 1 7 2
M  V30 31 1 13 8
M  V30 32 1 23 14
M  V30 33 1 30 24
M  V30 34 1 21 15
M  V30 35 1 1 31
M  V30 36 1 1 32
M  V30 37 1 1 33
M  V30 38 1 3 34
M  V30 39 1 3 35
M  V30 40 1 4 36
M  V30 41 1 4 37
M  V30 42 1 6 38
M  V30 43 1 6 39
M  V30 44 1 7 40
M  V30 45 1 7 41
M  V30 46 1 9 42
M  V30 47 1 10 43
M  V30 48 1 12 44
M  V30 49 1 13 45
M  V30 50 1 17 46
M  V30 51 1 20 47
M  V30 52 1 20 48
M  V30 53 1 23 49
M  V30 54 1 26 50
M  V30 55 1 26 51
M  V30 56 1 27 52
M  V30 57 1 28 53
M  V30 58 1 29 54
M  V30 59 1 30 55
M  V30 END BOND
M  V30 END CTAB
M  END
