
     RDKit          3D

  0  0  0  0  0  0  0  0  0  0999 V3000
M  V30 BEGIN CTAB
M  V30 COUNTS 20 20 0 0 0
M  V30 BEGIN ATOM
M  V30 1 C -1.81198 -2.04985 0.25806 0
M  V30 2 C -1.03454 -0.795493 0.0705051 0
M  V30 3 C -1.67244 0.426048 0.0906804 0
M  V30 4 C -0.868256 1.55283 -0.0931486 0
M  V30 5 N -1.53619 2.80045 -0.0701113 0
M  V30 6 N 0.468606 1.45103 -0.281444 0
M  V30 7 C 1.1117 0.270913 -0.304842 0
M  V30 8 C 0.329302 -0.867573 -0.123478 0
M  V30 9 C 2.54355 0.200952 -0.508858 0
M  V30 10 S 3.19846 0.944413 -1.79009 0
M  V30 11 N 3.34424 -0.507289 0.402128 0
M  V30 12 H -2.88213 -1.9282 -0.0129043 0
M  V30 13 H -1.37468 -2.805 -0.442997 0
M  V30 14 H -1.66274 -2.42128 1.29099 0
M  V30 15 H -2.73838 0.534344 0.239203 0
M  V30 16 H -1.95189 3.19672 -0.932905 0
M  V30 17 H -1.61492 3.33077 0.81673 0
M  V30 18 H 0.854868 -1.80511 -0.144188 0
M  V30 19 H 3.8201 -1.40256 0.177149 0
M  V30 20 H 3.47732 -0.126109 1.35953 0
M  V30 END ATOM
M  V30 BEGIN BOND
M  V30 1 1 1 2
M  V30 2 2 2 3
M  V30 3 1 3 4
M  V30 4 1 4 5
M  V30 5 2 4 6
M  V30 6 1 6 7
M  V30 7 2 7 8
M  V30 8 1 7 9
M  V30 9 2 9 10
M  V30 10 1 9 11
M  V30 11 1 8 2
M  V30 12 1 1 12
M  V30 13 1 1 13
M  V30 14 1 1 14
M  V30 15 1 3 15
M  V30 16 1 5 16
M  V30 17 1 5 17
M  V30 18 1 8 18
M  V30 19 1 11 19
M  V30 20 1 11 20
M  V30 END BOND
M  V30 END CTAB
M  END
