
     RDKit          3D

  0  0  0  0  0  0  0  0  0  0999 V3000
M  V30 BEGIN CTAB
M  V30 COUNTS 36 37 0 0 0
M  V30 BEGIN ATOM
M  V30 1 C 2.50571 3.28126 0.657428 0
M  V30 2 O 3.30325 2.16223 0.325159 0
M  V30 3 C 2.6551 0.954485 0.0900247 0
M  V30 4 C 1.25946 0.840237 0.176974 0
M  V30 5 C 0.656125 -0.370586 -0.0625632 0
M  V30 6 C 1.42865 -1.44473 -0.382162 0
M  V30 7 C 2.81764 -1.35765 -0.475003 0
M  V30 8 C 3.41101 -0.147826 -0.234848 0
M  V30 9 O 4.79954 -0.0164033 -0.317075 0
M  V30 10 C 5.60648 -1.12825 -0.648404 0
M  V30 11 C -0.807761 -0.429176 0.0401988 0
M  V30 12 N -1.57753 0.466167 -0.491509 0
M  V30 13 C -2.89189 0.372375 -0.37003 0
M  V30 14 S -3.06742 -1.05684 0.544973 0
M  V30 15 C -1.41768 -1.45781 0.721637 0
M  V30 16 C -0.77498 -2.62341 1.4333 0
M  V30 17 N -3.89631 1.2707 -0.892622 0
M  V30 18 C -5.12145 0.966599 -0.641931 0
M  V30 19 N -6.19268 1.80539 -1.1236 0
M  V30 20 N -5.53916 -0.1632 0.0945943 0
M  V30 21 H 2.06894 3.21908 1.67013 0
M  V30 22 H 1.73194 3.41323 -0.129307 0
M  V30 23 H 3.16098 4.18221 0.605902 0
M  V30 24 H 0.685158 1.72203 0.434377 0
M  V30 25 H 0.963571 -2.39345 -0.572487 0
M  V30 26 H 3.36677 -2.24488 -0.73164 0
M  V30 27 H 6.65591 -0.800291 -0.604597 0
M  V30 28 H 5.41142 -1.48249 -1.68574 0
M  V30 29 H 5.38432 -1.94363 0.0590999 0
M  V30 30 H -1.47224 -2.86544 2.26739 0
M  V30 31 H 0.202577 -2.3291 1.84212 0
M  V30 32 H -0.739289 -3.51239 0.788624 0
M  V30 33 H -6.09006 2.37156 -2.00442 0
M  V30 34 H -7.10302 1.88455 -0.624461 0
M  V30 35 H -5.80236 -1.04798 -0.366614 0
M  V30 36 H -5.58072 -0.0965668 1.12607 0
M  V30 END ATOM
M  V30 BEGIN BOND
M  V30 1 1 1 2
M  V30 2 1 2 3
M  V30 3 2 3 4
M  V30 4 1 4 5
M  V30 5 2 5 6
M  V30 6 1 6 7
M  V30 7 2 7 8
M  V30 8 1 8 9
M  V30 9 1 9 10
M  V30 10 1 5 11
M  V30 11 1 11 12
M  V30 12 2 12 13
M  V30 13 1 13 14
M  V30 14 1 14 15
M  V30 15 1 15 16
M  V30 16 1 13 17
M  V30 17 2 17 18 CFG=2
M  V30 18 1 18 19
M  V30 19 1 18 20
M  V30 20 1 8 3
M  V30 21 2 15 11
M  V30 22 1 1 21
M  V30 23 1 1 22
M  V30 24 1 1 23
M  V30 25 1 4 24
M  V30 26 1 6 25
M  V30 27 1 7 26
M  V30 28 1 10 27
M  V30 29 1 10 28
M  V30 30 1 10 29
M  V30 31 1 16 30
M  V30 32 1 16 31
M  V30 33 1 16 32
M  V30 34 1 19 33
M  V30 35 1 19 34
M  V30 36 1 20 35
M  V30 37 1 20 36
M  V30 END BOND
M  V30 END CTAB
M  END
