
     RDKit          3D

  0  0  0  0  0  0  0  0  0  0999 V3000
M  V30 BEGIN CTAB
M  V30 COUNTS 17 17 0 0 0
M  V30 BEGIN ATOM
M  V30 1 N 1.60215 3.43219 -0.191753 0
M  V30 2 C 1.30785 2.31724 -0.141924 0
M  V30 3 C 0.962562 0.92017 -0.0692762 0
M  V30 4 C 1.92835 -0.0654946 -0.0472419 0
M  V30 5 C 1.59234 -1.40269 0.0224149 0
M  V30 6 Cl 2.82134 -2.66564 0.0508564 0
M  V30 7 C 0.244044 -1.6986 0.0686008 0
M  V30 8 C -0.738485 -0.742572 0.048335 0
M  V30 9 C -0.383493 0.578277 -0.0210276 0
M  V30 10 N -1.38413 1.57515 -0.0427463 0
M  V30 11 N -2.11309 -1.10024 0.0979928 0
M  V30 12 H 2.95339 0.215349 -0.0849216 0
M  V30 13 H -0.0609864 -2.75489 0.124582 0
M  V30 14 H -2.278 1.49362 0.46781 0
M  V30 15 H -1.21543 2.4333 -0.598581 0
M  V30 16 H -2.84703 -0.746609 -0.519325 0
M  V30 17 H -2.39138 -1.78857 0.836204 0
M  V30 END ATOM
M  V30 BEGIN BOND
M  V30 1 3 1 2
M  V30 2 1 2 3
M  V30 3 2 3 4
M  V30 4 1 4 5
M  V30 5 1 5 6
M  V30 6 2 5 7
M  V30 7 1 7 8
M  V30 8 2 8 9
M  V30 9 1 9 10
M  V30 10 1 8 11
M  V30 11 1 9 3
M  V30 12 1 4 12
M  V30 13 1 7 13
M  V30 14 1 10 14
M  V30 15 1 10 15
M  V30 16 1 11 16
M  V30 17 1 11 17
M  V30 END BOND
M  V30 END CTAB
M  END
