
     RDKit          3D

  0  0  0  0  0  0  0  0  0  0999 V3000
M  V30 BEGIN CTAB
M  V30 COUNTS 26 27 0 0 0
M  V30 BEGIN ATOM
M  V30 1 N -4.4764 0.341543 -0.0756041 0
M  V30 2 C -3.05377 0.315732 -0.0752117 0
M  V30 3 C -2.37994 -0.706752 0.558394 0
M  V30 4 C -0.992175 -0.776947 0.586961 0
M  V30 5 N -0.328205 -1.85952 1.25023 0
M  V30 6 C -0.267493 0.207023 -0.0377654 0
M  V30 7 C -0.927517 1.25798 -0.689518 0
M  V30 8 C -2.30345 1.29864 -0.699847 0
M  V30 9 C 1.19049 0.153117 -0.0117395 0
M  V30 10 C 1.92411 -0.0707718 1.12877 0
M  V30 11 C 3.3137 -0.115346 1.07948 0
M  V30 12 C 3.96764 0.0659067 -0.119897 0
M  V30 13 C 3.23611 0.291535 -1.26975 0
M  V30 14 C 1.8619 0.330379 -1.19118 0
M  V30 15 H -4.96563 0.422401 0.840868 0
M  V30 16 H -4.99272 0.280153 -0.976584 0
M  V30 17 H -2.93455 -1.49356 1.05791 0
M  V30 18 H -0.208252 -1.93248 2.26609 0
M  V30 19 H 0.0452142 -2.60575 0.619427 0
M  V30 20 H -0.319713 2.02104 -1.1747 0
M  V30 21 H -2.83423 2.09625 -1.19417 0
M  V30 22 H 1.45082 -0.209839 2.06928 0
M  V30 23 H 3.89647 -0.291868 1.97667 0
M  V30 24 H 5.06279 0.0363579 -0.191244 0
M  V30 25 H 3.73255 0.436602 -2.22316 0
M  V30 26 H 1.30226 0.508166 -2.10099 0
M  V30 END ATOM
M  V30 BEGIN BOND
M  V30 1 1 1 2
M  V30 2 2 2 3
M  V30 3 1 3 4
M  V30 4 1 4 5
M  V30 5 2 4 6
M  V30 6 1 6 7
M  V30 7 2 7 8
M  V30 8 1 6 9
M  V30 9 2 9 10
M  V30 10 1 10 11
M  V30 11 2 11 12
M  V30 12 1 12 13
M  V30 13 2 13 14
M  V30 14 1 8 2
M  V30 15 1 14 9
M  V30 16 1 1 15
M  V30 17 1 1 16
M  V30 18 1 3 17
M  V30 19 1 5 18
M  V30 20 1 5 19
M  V30 21 1 7 20
M  V30 22 1 8 21
M  V30 23 1 10 22
M  V30 24 1 11 23
M  V30 25 1 12 24
M  V30 26 1 13 25
M  V30 27 1 14 26
M  V30 END BOND
M  V30 END CTAB
M  END
