
     RDKit          3D

  0  0  0  0  0  0  0  0  0  0999 V3000
M  V30 BEGIN CTAB
M  V30 COUNTS 119 121 0 0 0
M  V30 BEGIN ATOM
M  V30 1 C 12.4993 -3.77067 2.5541 0 CFG=1
M  V30 2 N 13.1078 -5.13085 2.63095 0
M  V30 3 C 11.0465 -3.92163 2.22785 0
M  V30 4 C 10.3461 -2.61992 2.11929 0
M  V30 5 C 10.8685 -1.72626 1.06247 0
M  V30 6 O 11.7548 -2.09665 0.262117 0
M  V30 7 N 10.3551 -0.385035 0.939829 0
M  V30 8 C 10.9135 0.440183 -0.102353 0 CFG=1
M  V30 9 C 9.85142 0.960132 -1.00423 0
M  V30 10 S 8.87682 -0.297567 -1.84637 0
M  V30 11 S 7.70777 0.599379 -3.36407 0
M  V30 12 C 6.10494 1.10148 -2.70827 0
M  V30 13 C 6.28246 2.15686 -1.65452 0
M  V30 14 N 5.0418 2.64795 -1.15625 0
M  V30 15 C 4.01449 1.89347 -0.537013 0
M  V30 16 O 4.14141 0.659829 -0.386588 0
M  V30 17 C 2.76782 2.56387 -0.0552857 0
M  V30 18 C 1.81371 1.5403 0.452152 0
M  V30 19 N 1.37047 0.566711 -0.522294 0
M  V30 20 C 0.664569 0.93866 -1.69882 0
M  V30 21 O 0.421726 2.18394 -1.91088 0
M  V30 22 C 0.172728 0.00825121 -2.73062 0 CFG=2
M  V30 23 O -0.14883 0.713822 -3.91551 0
M  V30 24 C -1.0547 -0.78154 -2.31908 0
M  V30 25 C -1.38845 -1.66062 -3.52819 0
M  V30 26 C -0.738628 -1.62962 -1.12357 0
M  V30 27 C -2.22177 0.104414 -2.00125 0
M  V30 28 O -3.29732 -0.701272 -1.63563 0
M  V30 29 P -4.66978 0.211979 -1.25521 0
M  V30 30 O -4.61231 1.72012 -2.04873 0
M  V30 31 O -4.71257 0.523094 0.218411 0
M  V30 32 O -6.09887 -0.534465 -1.72432 0
M  V30 33 P -6.70453 -1.58365 -0.564577 0
M  V30 34 O -6.60127 -3.18063 -1.1518 0
M  V30 35 O -5.8117 -1.51474 0.653643 0
M  V30 36 O -8.29196 -1.22524 -0.109801 0
M  V30 37 C -8.30596 -0.25453 0.873526 0
M  V30 38 C -9.71165 0.0901861 1.3207 0 CFG=1
M  V30 39 O -10.5173 0.570905 0.321223 0
M  V30 40 C -11.8337 0.263729 0.730385 0 CFG=2
M  V30 41 C -11.664 -1.20416 1.10971 0 CFG=2
M  V30 42 O -12.7247 -1.64588 1.89022 0
M  V30 43 C -10.3589 -1.13838 1.89033 0 CFG=2
M  V30 44 O -10.7191 -0.873946 3.22033 0
M  V30 45 P -10.1138 -2.05966 4.26119 0
M  V30 46 O -11.4395 -2.93633 4.83821 0
M  V30 47 O -9.33162 -1.38477 5.60146 0
M  V30 48 O -9.16776 -2.97448 3.51414 0
M  V30 49 N -12.7694 0.455471 -0.326095 0
M  V30 50 C -12.6487 0.190067 -1.63196 0
M  V30 51 N -13.7863 0.528541 -2.29577 0
M  V30 52 C -14.6436 1.01532 -1.40603 0
M  V30 53 C -14.0075 0.968823 -0.178831 0
M  V30 54 N -14.701 1.42254 0.900031 0
M  V30 55 C -15.9504 1.89443 0.769597 0
M  V30 56 N -16.5465 1.92811 -0.440859 0
M  V30 57 C -15.9245 1.49749 -1.54854 0
M  V30 58 N -16.6169 1.56888 -2.78023 0
M  V30 59 C 11.5601 1.64087 0.544518 0
M  V30 60 O 11.524 1.77665 1.77007 0
M  V30 61 N 12.2026 2.60157 -0.262665 0
M  V30 62 C 12.8209 3.75252 0.350982 0
M  V30 63 C 13.4365 4.62575 -0.674256 0
M  V30 64 O 14.0789 5.78817 -0.257406 0
M  V30 65 O 13.3885 4.34297 -1.87727 0
M  V30 66 C 12.705 -3.18568 3.89642 0
M  V30 67 O 12.461 -1.84648 4.17396 0
M  V30 68 O 13.1219 -3.89782 4.86011 0
M  V30 69 H 13.0997 -3.25644 1.80462 0
M  V30 70 H 14.1436 -4.97297 2.66721 0
M  V30 71 H 12.7303 -5.58192 3.47965 0
M  V30 72 H 10.9189 -4.56255 1.32141 0
M  V30 73 H 10.5747 -4.4966 3.05961 0
M  V30 74 H 9.23909 -2.78182 1.90063 0
M  V30 75 H 10.3691 -2.08587 3.07969 0
M  V30 76 H 9.61665 -0.006473 1.5602 0
M  V30 77 H 11.6982 -0.117701 -0.700768 0
M  V30 78 H 10.3508 1.58697 -1.80309 0
M  V30 79 H 9.19583 1.66387 -0.432387 0
M  V30 80 H 5.47098 1.44985 -3.55109 0
M  V30 81 H 5.58613 0.188443 -2.30026 0
M  V30 82 H 6.90679 2.95686 -2.10427 0
M  V30 83 H 6.83954 1.74825 -0.766312 0
M  V30 84 H 4.89183 3.70717 -1.2734 0
M  V30 85 H 2.30102 3.1905 -0.808861 0
M  V30 86 H 3.12486 3.24531 0.76387 0
M  V30 87 H 0.899109 2.08456 0.798496 0
M  V30 88 H 2.25539 0.961628 1.31963 0
M  V30 89 H 1.57533 -0.460749 -0.386106 0
M  V30 90 H 0.968458 -0.699238 -2.98803 0
M  V30 91 H 0.62074 0.673245 -4.53411 0
M  V30 92 H -1.32855 -0.974716 -4.40154 0
M  V30 93 H -2.32014 -2.20624 -3.42042 0
M  V30 94 H -0.493312 -2.3275 -3.64476 0
M  V30 95 H 0.22454 -2.16453 -1.28641 0
M  V30 96 H -1.55956 -2.3728 -0.918791 0
M  V30 97 H -0.705007 -0.992232 -0.226878 0
M  V30 98 H -1.95646 0.741896 -1.12415 0
M  V30 99 H -2.47843 0.794418 -2.83169 0
M  V30 100 H -4.58154 1.64732 -3.01464 0
M  V30 101 H -6.50304 -3.13629 -2.13455 0
M  V30 102 H -7.80159 -0.726614 1.76776 0
M  V30 103 H -7.71369 0.639796 0.618802 0
M  V30 104 H -9.61655 0.883642 2.09681 0
M  V30 105 H -12.0284 0.862207 1.63421 0
M  V30 106 H -11.484 -1.82941 0.239707 0
M  V30 107 H -12.625 -2.62472 1.98593 0
M  V30 108 H -9.76401 -2.04901 1.78591 0
M  V30 109 H -12.2437 -2.32778 4.87334 0
M  V30 110 H -8.59651 -0.82065 5.21599 0
M  V30 111 H -11.7993 -0.230453 -2.14094 0
M  V30 112 H -16.527 2.26459 1.62199 0
M  V30 113 H -16.1117 1.90338 -3.62276 0
M  V30 114 H -17.6112 1.29826 -2.86863 0
M  V30 115 H 12.23 2.48116 -1.28676 0
M  V30 116 H 12.0428 4.2933 0.946412 0
M  V30 117 H 13.603 3.46993 1.08375 0
M  V30 118 H 13.6586 6.686 -0.19423 0
M  V30 119 H 13.125 -1.11761 3.91743 0
M  V30 END ATOM
M  V30 BEGIN BOND
M  V30 1 1 1 2
M  V30 2 1 1 3
M  V30 3 1 3 4
M  V30 4 1 4 5
M  V30 5 2 5 6
M  V30 6 1 5 7
M  V30 7 1 7 8
M  V30 8 1 8 9
M  V30 9 1 9 10
M  V30 10 1 10 11
M  V30 11 1 11 12
M  V30 12 1 12 13
M  V30 13 1 13 14
M  V30 14 1 14 15
M  V30 15 2 15 16
M  V30 16 1 15 17
M  V30 17 1 17 18
M  V30 18 1 18 19
M  V30 19 1 19 20
M  V30 20 2 20 21
M  V30 21 1 20 22
M  V30 22 1 22 23
M  V30 23 1 22 24
M  V30 24 1 24 25
M  V30 25 1 24 26
M  V30 26 1 24 27
M  V30 27 1 27 28
M  V30 28 1 28 29
M  V30 29 1 29 30
M  V30 30 2 29 31
M  V30 31 1 29 32
M  V30 32 1 32 33
M  V30 33 1 33 34
M  V30 34 2 33 35
M  V30 35 1 33 36
M  V30 36 1 36 37
M  V30 37 1 37 38
M  V30 38 1 38 39
M  V30 39 1 39 40
M  V30 40 1 40 41
M  V30 41 1 41 42
M  V30 42 1 41 43
M  V30 43 1 43 44
M  V30 44 1 44 45
M  V30 45 1 45 46
M  V30 46 1 45 47
M  V30 47 2 45 48
M  V30 48 1 40 49
M  V30 49 1 49 50
M  V30 50 2 50 51
M  V30 51 1 51 52
M  V30 52 2 52 53
M  V30 53 1 53 54
M  V30 54 2 54 55
M  V30 55 1 55 56
M  V30 56 2 56 57
M  V30 57 1 57 58
M  V30 58 1 8 59
M  V30 59 2 59 60
M  V30 60 1 59 61
M  V30 61 1 61 62
M  V30 62 1 62 63
M  V30 63 1 63 64
M  V30 64 2 63 65
M  V30 65 1 1 66
M  V30 66 1 66 67
M  V30 67 2 66 68
M  V30 68 1 43 38
M  V30 69 1 53 49
M  V30 70 1 57 52
M  V30 71 1 1 69 CFG=3
M  V30 72 1 2 70
M  V30 73 1 2 71
M  V30 74 1 3 72
M  V30 75 1 3 73
M  V30 76 1 4 74
M  V30 77 1 4 75
M  V30 78 1 7 76
M  V30 79 1 8 77 CFG=3
M  V30 80 1 9 78
M  V30 81 1 9 79
M  V30 82 1 12 80
M  V30 83 1 12 81
M  V30 84 1 13 82
M  V30 85 1 13 83
M  V30 86 1 14 84
M  V30 87 1 17 85
M  V30 88 1 17 86
M  V30 89 1 18 87
M  V30 90 1 18 88
M  V30 91 1 19 89
M  V30 92 1 22 90 CFG=3
M  V30 93 1 23 91
M  V30 94 1 25 92
M  V30 95 1 25 93
M  V30 96 1 25 94
M  V30 97 1 26 95
M  V30 98 1 26 96
M  V30 99 1 26 97
M  V30 100 1 27 98
M  V30 101 1 27 99
M  V30 102 1 30 100
M  V30 103 1 34 101
M  V30 104 1 37 102
M  V30 105 1 37 103
M  V30 106 1 38 104 CFG=1
M  V30 107 1 40 105 CFG=1
M  V30 108 1 41 106 CFG=3
M  V30 109 1 42 107
M  V30 110 1 43 108 CFG=1
M  V30 111 1 46 109
M  V30 112 1 47 110
M  V30 113 1 50 111
M  V30 114 1 55 112
M  V30 115 1 58 113
M  V30 116 1 58 114
M  V30 117 1 61 115
M  V30 118 1 62 116
M  V30 119 1 62 117
M  V30 120 1 64 118
M  V30 121 1 67 119
M  V30 END BOND
M  V30 END CTAB
M  END
