
     RDKit          3D

  0  0  0  0  0  0  0  0  0  0999 V3000
M  V30 BEGIN CTAB
M  V30 COUNTS 62 65 0 0 0
M  V30 BEGIN ATOM
M  V30 1 C -6.51401 3.10142 1.19626 0
M  V30 2 C -5.44873 3.13824 0.132191 0
M  V30 3 C -5.1705 4.28044 -0.576614 0
M  V30 4 C -4.18315 4.21309 -1.53274 0
M  V30 5 C -3.52057 3.0377 -1.74607 0
M  V30 6 C -3.78447 1.85117 -1.03384 0
M  V30 7 N -3.05745 0.681406 -1.3546 0
M  V30 8 C -2.84052 -0.382517 -0.471487 0
M  V30 9 O -3.26171 -0.392518 0.690621 0
M  V30 10 C -2.05348 -1.6049 -0.922617 0
M  V30 11 C -1.9178 -2.50576 0.243424 0
M  V30 12 C -1.20771 -3.75992 0.0709426 0
M  V30 13 N -1.91958 -4.92183 -0.0761373 0
M  V30 14 C -1.36013 -6.12536 -0.22461 0
M  V30 15 N -2.17659 -7.30885 -0.374483 0
M  V30 16 N -0.022872 -6.21035 -0.231454 0
M  V30 17 C 0.7419 -5.11848 -0.0936414 0
M  V30 18 N 2.1725 -5.14869 -0.0952572 0
M  V30 19 C 0.154449 -3.84631 0.0630423 0
M  V30 20 C 0.993101 -2.67169 0.189505 0
M  V30 21 C 1.67013 -2.25187 -0.964651 0
M  V30 22 C 2.48444 -1.1457 -0.954341 0
M  V30 23 C 2.66602 -0.402236 0.199358 0
M  V30 24 N 3.50462 0.754465 0.211105 0
M  V30 25 C 3.76376 1.53912 1.37802 0
M  V30 26 C 4.64273 2.68758 1.05822 0
M  V30 27 C 4.41743 3.46769 -0.0558775 0
M  V30 28 C 5.22984 4.52906 -0.34432 0
M  V30 29 C 6.30533 4.84537 0.482921 0
M  V30 30 Cl 7.31046 6.20155 0.0787852 0
M  V30 31 C 6.5472 4.07894 1.59964 0
M  V30 32 C 5.7163 3.00118 1.88664 0
M  V30 33 C 1.9924 -0.829236 1.32735 0
M  V30 34 C 1.16173 -1.94494 1.34877 0
M  V30 35 C -4.77236 1.92651 -0.0811294 0
M  V30 36 H -7.20286 2.23953 0.988717 0
M  V30 37 H -7.10056 4.04562 1.13981 0
M  V30 38 H -6.05999 3.04014 2.19194 0
M  V30 39 H -5.72805 5.17388 -0.360253 0
M  V30 40 H -3.97096 5.12564 -2.08964 0
M  V30 41 H -2.73788 3.00225 -2.50868 0
M  V30 42 H -2.64276 0.597485 -2.33804 0
M  V30 43 H -1.15809 -1.28993 -1.43746 0
M  V30 44 H -2.75261 -2.07484 -1.68006 0
M  V30 45 H -1.52407 -1.88819 1.09195 0
M  V30 46 H -2.97731 -2.7386 0.585765 0
M  V30 47 H -1.99781 -7.9817 -1.16167 0
M  V30 48 H -2.9339 -7.50179 0.282837 0
M  V30 49 H 2.68032 -5.76567 -0.757248 0
M  V30 50 H 2.71443 -4.53727 0.583354 0
M  V30 51 H 1.53743 -2.82978 -1.8864 0
M  V30 52 H 3.02317 -0.794002 -1.83002 0
M  V30 53 H 3.94755 1.03521 -0.690453 0
M  V30 54 H 4.24026 0.874718 2.1365 0
M  V30 55 H 2.77053 1.87039 1.77414 0
M  V30 56 H 3.57203 3.21494 -0.70295 0
M  V30 57 H 5.00168 5.10838 -1.23778 0
M  V30 58 H 7.38793 4.35086 2.21826 0
M  V30 59 H 5.92276 2.42152 2.75765 0
M  V30 60 H 2.12432 -0.255834 2.24628 0
M  V30 61 H 0.638492 -2.26309 2.25563 0
M  V30 62 H -5.03676 1.05634 0.490048 0
M  V30 END ATOM
M  V30 BEGIN BOND
M  V30 1 1 1 2
M  V30 2 2 2 3
M  V30 3 1 3 4
M  V30 4 2 4 5
M  V30 5 1 5 6
M  V30 6 1 6 7
M  V30 7 1 7 8
M  V30 8 2 8 9
M  V30 9 1 8 10
M  V30 10 1 10 11
M  V30 11 1 11 12
M  V30 12 2 12 13
M  V30 13 1 13 14
M  V30 14 1 14 15
M  V30 15 2 14 16
M  V30 16 1 16 17
M  V30 17 1 17 18
M  V30 18 2 17 19
M  V30 19 1 19 20
M  V30 20 2 20 21
M  V30 21 1 21 22
M  V30 22 2 22 23
M  V30 23 1 23 24
M  V30 24 1 24 25
M  V30 25 1 25 26
M  V30 26 2 26 27
M  V30 27 1 27 28
M  V30 28 2 28 29
M  V30 29 1 29 30
M  V30 30 1 29 31
M  V30 31 2 31 32
M  V30 32 1 23 33
M  V30 33 2 33 34
M  V30 34 2 6 35
M  V30 35 1 35 2
M  V30 36 1 19 12
M  V30 37 1 34 20
M  V30 38 1 32 26
M  V30 39 1 1 36
M  V30 40 1 1 37
M  V30 41 1 1 38
M  V30 42 1 3 39
M  V30 43 1 4 40
M  V30 44 1 5 41
M  V30 45 1 7 42
M  V30 46 1 10 43
M  V30 47 1 10 44
M  V30 48 1 11 45
M  V30 49 1 11 46
M  V30 50 1 15 47
M  V30 51 1 15 48
M  V30 52 1 18 49
M  V30 53 1 18 50
M  V30 54 1 21 51
M  V30 55 1 22 52
M  V30 56 1 24 53
M  V30 57 1 25 54
M  V30 58 1 25 55
M  V30 59 1 27 56
M  V30 60 1 28 57
M  V30 61 1 31 58
M  V30 62 1 32 59
M  V30 63 1 33 60
M  V30 64 1 34 61
M  V30 65 1 35 62
M  V30 END BOND
M  V30 END CTAB
M  END
