
     RDKit          3D

  0  0  0  0  0  0  0  0  0  0999 V3000
M  V30 BEGIN CTAB
M  V30 COUNTS 31 32 0 0 0
M  V30 BEGIN ATOM
M  V30 1 C -2.43781 2.50356 -0.127382 0
M  V30 2 C -2.05577 1.04733 -0.137611 0
M  V30 3 N -0.85566 0.49399 -0.0494665 0
M  V30 4 N -0.955028 -0.827896 -0.0919844 0
M  V30 5 C -2.25199 -1.14867 -0.21223 0
M  V30 6 C -2.97709 0.0256586 -0.243483 0
M  V30 7 N -4.38957 0.146051 -0.359279 0
M  V30 8 C -2.7868 -2.53645 -0.297312 0
M  V30 9 C 0.159771 -1.69635 -0.00714128 0
M  V30 10 O -0.00120609 -2.95906 -0.0520047 0
M  V30 11 C 1.53397 -1.21251 0.136916 0
M  V30 12 C 2.57824 -1.93076 0.658418 0
M  V30 13 C 3.69258 -1.12314 0.617329 0
M  V30 14 C 3.27722 0.0712204 0.064744 0
M  V30 15 O 2.01737 -0.0398979 -0.193383 0
M  V30 16 S 4.32405 1.46463 -0.216862 0
M  V30 17 O 4.42469 1.77787 -1.66742 0
M  V30 18 O 5.71023 1.17824 0.336908 0
M  V30 19 N 3.73465 2.8622 0.604745 0
M  V30 20 H -2.66069 2.79353 0.936824 0
M  V30 21 H -1.59652 3.05041 -0.564202 0
M  V30 22 H -3.34949 2.69591 -0.736208 0
M  V30 23 H -5.0349 0.0572665 0.451199 0
M  V30 24 H -4.79551 0.329771 -1.29419 0
M  V30 25 H -2.4234 -3.17628 0.537455 0
M  V30 26 H -3.89211 -2.48343 -0.200281 0
M  V30 27 H -2.56112 -2.98923 -1.29397 0
M  V30 28 H 2.57228 -2.96434 1.04929 0
M  V30 29 H 4.68782 -1.41651 0.967333 0
M  V30 30 H 3.26138 3.46591 -0.111573 0
M  V30 31 H 3.05041 2.54098 1.34394 0
M  V30 END ATOM
M  V30 BEGIN BOND
M  V30 1 1 1 2
M  V30 2 2 2 3
M  V30 3 1 3 4
M  V30 4 1 4 5
M  V30 5 2 5 6
M  V30 6 1 6 7
M  V30 7 1 5 8
M  V30 8 1 4 9
M  V30 9 2 9 10
M  V30 10 1 9 11
M  V30 11 2 11 12
M  V30 12 1 12 13
M  V30 13 2 13 14
M  V30 14 1 14 15
M  V30 15 1 14 16
M  V30 16 2 16 17
M  V30 17 2 16 18
M  V30 18 1 16 19
M  V30 19 1 6 2
M  V30 20 1 15 11
M  V30 21 1 1 20
M  V30 22 1 1 21
M  V30 23 1 1 22
M  V30 24 1 7 23
M  V30 25 1 7 24
M  V30 26 1 8 25
M  V30 27 1 8 26
M  V30 28 1 8 27
M  V30 29 1 12 28
M  V30 30 1 13 29
M  V30 31 1 19 30
M  V30 32 1 19 31
M  V30 END BOND
M  V30 END CTAB
M  END
