
     RDKit          3D

  0  0  0  0  0  0  0  0  0  0999 V3000
M  V30 BEGIN CTAB
M  V30 COUNTS 20 20 0 0 0
M  V30 BEGIN ATOM
M  V30 1 N 2.62482 0.165904 0.445828 0
M  V30 2 N 1.28666 -0.0098981 0.591966 0
M  V30 3 C 0.739074 -1.26988 0.333591 0
M  V30 4 C -0.445098 -1.32482 -0.561315 0
M  V30 5 N -1.23489 -0.179277 -0.658646 0
M  V30 6 N -2.59965 -0.344792 -0.533004 0
M  V30 7 C -0.714075 1.07215 -0.339721 0
M  V30 8 C 0.457988 1.11339 0.579771 0
M  V30 9 H 2.90645 1.04703 0.972483 0
M  V30 10 H 2.88732 0.381602 -0.554701 0
M  V30 11 H 0.512672 -1.77078 1.32094 0
M  V30 12 H 1.53764 -1.92955 -0.115897 0
M  V30 13 H -0.135714 -1.64559 -1.59998 0
M  V30 14 H -1.09184 -2.18286 -0.20838 0
M  V30 15 H -2.86128 -0.320595 0.49055 0
M  V30 16 H -3.06428 0.516072 -0.93578 0
M  V30 17 H -1.5259 1.6976 0.13806 0
M  V30 18 H -0.47808 1.6289 -1.2939 0
M  V30 19 H 0.125205 1.33767 1.63213 0
M  V30 20 H 1.07298 2.01772 0.296009 0
M  V30 END ATOM
M  V30 BEGIN BOND
M  V30 1 1 1 2
M  V30 2 1 2 3
M  V30 3 1 3 4
M  V30 4 1 4 5
M  V30 5 1 5 6
M  V30 6 1 5 7
M  V30 7 1 7 8
M  V30 8 1 8 2
M  V30 9 1 1 9
M  V30 10 1 1 10
M  V30 11 1 3 11
M  V30 12 1 3 12
M  V30 13 1 4 13
M  V30 14 1 4 14
M  V30 15 1 6 15
M  V30 16 1 6 16
M  V30 17 1 7 17
M  V30 18 1 7 18
M  V30 19 1 8 19
M  V30 20 1 8 20
M  V30 END BOND
M  V30 END CTAB
M  END
