
     RDKit          3D

  0  0  0  0  0  0  0  0  0  0999 V3000
M  V30 BEGIN CTAB
M  V30 COUNTS 16 16 0 0 0
M  V30 BEGIN ATOM
M  V30 1 N 2.1966 0.138864 0.219932 0
M  V30 2 C 0.795827 0.322984 0.0837224 0
M  V30 3 C 0.266675 1.59737 0.0370088 0
M  V30 4 C -1.09692 1.75825 -0.0956459 0
M  V30 5 F -1.67303 3.00316 -0.147057 0
M  V30 6 C -1.92661 0.65579 -0.181081 0
M  V30 7 C -1.36962 -0.609141 -0.131608 0
M  V30 8 C -0.01266 -0.807109 0.000252904 0
M  V30 9 N 0.589316 -2.0826 0.0540623 0
M  V30 10 Br -2.46959 -2.18385 -0.245324 0
M  V30 11 F -3.28393 0.800775 -0.313194 0
M  V30 12 H 2.73577 -0.192755 -0.610158 0
M  V30 13 H 2.71494 0.318235 1.10804 0
M  V30 14 H 0.925371 2.45315 0.10477 0
M  V30 15 H 0.169445 -2.86079 -0.495254 0
M  V30 16 H 1.43841 -2.31232 0.611536 0
M  V30 END ATOM
M  V30 BEGIN BOND
M  V30 1 1 1 2
M  V30 2 2 2 3
M  V30 3 1 3 4
M  V30 4 1 4 5
M  V30 5 2 4 6
M  V30 6 1 6 7
M  V30 7 2 7 8
M  V30 8 1 8 9
M  V30 9 1 7 10
M  V30 10 1 6 11
M  V30 11 1 8 2
M  V30 12 1 1 12
M  V30 13 1 1 13
M  V30 14 1 3 14
M  V30 15 1 9 15
M  V30 16 1 9 16
M  V30 END BOND
M  V30 END CTAB
M  END
