
     RDKit          3D

  0  0  0  0  0  0  0  0  0  0999 V3000
M  V30 BEGIN CTAB
M  V30 COUNTS 31 32 0 0 0
M  V30 BEGIN ATOM
M  V30 1 N 4.89574 1.87619 0.506186 0
M  V30 2 C 3.79403 1.0811 0.108575 0
M  V30 3 N 3.32871 0.129615 0.927063 0
M  V30 4 C 2.26767 -0.676235 0.608518 0
M  V30 5 N 1.84096 -1.67126 1.53154 0
M  V30 6 C 1.65603 -0.498542 -0.602599 0
M  V30 7 C 0.497456 -1.34879 -0.965373 0
M  V30 8 C -0.769524 -0.988076 -0.35416 0
M  V30 9 C -1.33744 -1.74899 0.63363 0
M  V30 10 C -2.53766 -1.41035 1.23832 0
M  V30 11 C -3.21129 -0.276754 0.858511 0
M  V30 12 C -2.65205 0.506161 -0.1405 0
M  V30 13 C -3.3869 1.7432 -0.555472 0
M  V30 14 O -4.21707 1.55017 -1.62915 0
M  V30 15 C -1.45822 0.155834 -0.731439 0
M  V30 16 C 2.13307 0.48009 -1.44692 0
M  V30 17 N 3.17046 1.22672 -1.07027 0
M  V30 18 H 5.86378 1.50172 0.444137 0
M  V30 19 H 4.75857 2.84275 0.865902 0
M  V30 20 H 1.30457 -1.37602 2.36311 0
M  V30 21 H 2.06517 -2.66702 1.3694 0
M  V30 22 H 0.718916 -2.41344 -0.718917 0
M  V30 23 H 0.410734 -1.2853 -2.07177 0
M  V30 24 H -0.898619 -2.6704 1.0007 0
M  V30 25 H -2.97823 -2.01654 2.01728 0
M  V30 26 H -4.1656 0.0223075 1.31691 0
M  V30 27 H -3.95759 2.10145 0.334819 0
M  V30 28 H -2.58352 2.51471 -0.732498 0
M  V30 29 H -5.12515 1.92465 -1.53594 0
M  V30 30 H -1.04983 0.800119 -1.51743 0
M  V30 31 H 1.6228 0.59093 -2.39888 0
M  V30 END ATOM
M  V30 BEGIN BOND
M  V30 1 1 1 2
M  V30 2 2 2 3
M  V30 3 1 3 4
M  V30 4 1 4 5
M  V30 5 2 4 6
M  V30 6 1 6 7
M  V30 7 1 7 8
M  V30 8 2 8 9
M  V30 9 1 9 10
M  V30 10 2 10 11
M  V30 11 1 11 12
M  V30 12 1 12 13
M  V30 13 1 13 14
M  V30 14 2 12 15
M  V30 15 1 6 16
M  V30 16 2 16 17
M  V30 17 1 17 2
M  V30 18 1 15 8
M  V30 19 1 1 18
M  V30 20 1 1 19
M  V30 21 1 5 20
M  V30 22 1 5 21
M  V30 23 1 7 22
M  V30 24 1 7 23
M  V30 25 1 9 24
M  V30 26 1 10 25
M  V30 27 1 11 26
M  V30 28 1 13 27
M  V30 29 1 13 28
M  V30 30 1 14 29
M  V30 31 1 15 30
M  V30 32 1 16 31
M  V30 END BOND
M  V30 END CTAB
M  END
