
     RDKit          3D

  0  0  0  0  0  0  0  0  0  0999 V3000
M  V30 BEGIN CTAB
M  V30 COUNTS 49 51 0 0 0
M  V30 BEGIN ATOM
M  V30 1 C -4.08902 0.937984 -1.73295 0
M  V30 2 C -4.51812 0.352316 -0.399687 0
M  V30 3 C -4.31376 -1.16717 -0.555238 0
M  V30 4 N -5.86695 0.632469 -0.0800877 0
M  V30 5 C -6.32218 1.1623 0.996069 0
M  V30 6 N -7.72277 1.36543 1.13267 0
M  V30 7 N -5.41363 1.53801 2.03651 0
M  V30 8 C -4.16299 1.32284 1.83955 0
M  V30 9 N -3.18924 1.67689 2.84647 0
M  V30 10 N -3.63151 0.741246 0.665617 0
M  V30 11 C -2.20085 0.536636 0.533276 0
M  V30 12 C -1.41513 1.52131 -0.0152589 0
M  V30 13 C -0.0504135 1.3896 -0.169057 0
M  V30 14 C 0.543418 0.208438 0.251483 0
M  V30 15 O 1.91435 0.11117 0.0817849 0
M  V30 16 C 2.53459 -1.10002 0.511257 0
M  V30 17 C 3.99984 -1.06332 0.268897 0
M  V30 18 C 4.88639 -0.576936 1.23013 0
M  V30 19 C 6.2363 -0.542284 1.00883 0
M  V30 20 C 6.75347 -0.992607 -0.182446 0
M  V30 21 C 8.20319 -0.98011 -0.479089 0
M  V30 22 O 8.52173 0.233972 -1.07462 0
M  V30 23 C 5.89199 -1.48028 -1.15239 0
M  V30 24 C 4.53536 -1.51067 -0.919423 0
M  V30 25 C -0.220458 -0.794145 0.804408 0
M  V30 26 C -1.60309 -0.628843 0.946407 0
M  V30 27 H -5.00592 0.878189 -2.3899 0
M  V30 28 H -3.32057 0.328841 -2.21238 0
M  V30 29 H -3.81721 1.99125 -1.68079 0
M  V30 30 H -5.04844 -1.59237 -1.25358 0
M  V30 31 H -3.31065 -1.31544 -1.01206 0
M  V30 32 H -4.39263 -1.61471 0.459835 0
M  V30 33 H -8.09299 2.32432 1.17897 0
M  V30 34 H -8.34855 0.553066 1.18353 0
M  V30 35 H -2.78608 0.960681 3.4573 0
M  V30 36 H -2.91487 2.67508 2.92823 0
M  V30 37 H -1.87608 2.44213 -0.343408 0
M  V30 38 H 0.546213 2.18054 -0.604337 0
M  V30 39 H 2.39709 -1.13 1.62958 0
M  V30 40 H 2.05927 -1.96562 0.0271216 0
M  V30 41 H 4.46636 -0.233666 2.14402 0
M  V30 42 H 6.89112 -0.16021 1.77329 0
M  V30 43 H 8.78154 -1.13063 0.460618 0
M  V30 44 H 8.41913 -1.82644 -1.19325 0
M  V30 45 H 7.76742 0.607894 -1.57833 0
M  V30 46 H 6.29893 -1.83937 -2.10111 0
M  V30 47 H 3.89077 -1.8894 -1.6782 0
M  V30 48 H 0.269957 -1.70396 1.12324 0
M  V30 49 H -2.17435 -1.4344 1.38411 0
M  V30 END ATOM
M  V30 BEGIN BOND
M  V30 1 1 1 2
M  V30 2 1 2 3
M  V30 3 1 2 4
M  V30 4 2 4 5
M  V30 5 1 5 6
M  V30 6 1 5 7
M  V30 7 2 7 8
M  V30 8 1 8 9
M  V30 9 1 8 10
M  V30 10 1 10 11
M  V30 11 2 11 12
M  V30 12 1 12 13
M  V30 13 2 13 14
M  V30 14 1 14 15
M  V30 15 1 15 16
M  V30 16 1 16 17
M  V30 17 2 17 18
M  V30 18 1 18 19
M  V30 19 2 19 20
M  V30 20 1 20 21
M  V30 21 1 21 22
M  V30 22 1 20 23
M  V30 23 2 23 24
M  V30 24 1 14 25
M  V30 25 2 25 26
M  V30 26 1 10 2
M  V30 27 1 26 11
M  V30 28 1 24 17
M  V30 29 1 1 27
M  V30 30 1 1 28
M  V30 31 1 1 29
M  V30 32 1 3 30
M  V30 33 1 3 31
M  V30 34 1 3 32
M  V30 35 1 6 33
M  V30 36 1 6 34
M  V30 37 1 9 35
M  V30 38 1 9 36
M  V30 39 1 12 37
M  V30 40 1 13 38
M  V30 41 1 16 39
M  V30 42 1 16 40
M  V30 43 1 18 41
M  V30 44 1 19 42
M  V30 45 1 21 43
M  V30 46 1 21 44
M  V30 47 1 22 45
M  V30 48 1 23 46
M  V30 49 1 24 47
M  V30 50 1 25 48
M  V30 51 1 26 49
M  V30 END BOND
M  V30 END CTAB
M  END
