
     RDKit          3D

  0  0  0  0  0  0  0  0  0  0999 V3000
M  V30 BEGIN CTAB
M  V30 COUNTS 28 28 0 0 0
M  V30 BEGIN ATOM
M  V30 1 N 4.84258 -0.466278 0.936072 0
M  V30 2 C 4.76187 0.428486 -0.170132 0
M  V30 3 N 5.87645 0.881171 -0.631198 0
M  V30 4 N 3.51297 0.79227 -0.723658 0
M  V30 5 C 2.26223 0.290719 -0.214136 0
M  V30 6 O 2.34499 -0.483999 0.74481 0
M  V30 7 N 1.04089 0.670816 -0.785379 0
M  V30 8 C -0.224236 0.241821 -0.343406 0
M  V30 9 C -0.515265 -0.29476 0.881061 0
M  V30 10 C -1.81831 -0.709476 1.19408 0
M  V30 11 C -2.85064 -0.594601 0.290742 0
M  V30 12 C -2.52817 -0.0506461 -0.932575 0
M  V30 13 C -1.26598 0.362071 -1.26529 0
M  V30 14 S -4.48041 -1.10658 0.664739 0
M  V30 15 N -5.36974 0.218531 1.36826 0
M  V30 16 O -5.22865 -1.56903 -0.526143 0
M  V30 17 O -4.35787 -2.23132 1.67917 0
M  V30 18 H 4.98139 -0.0682667 1.88761 0
M  V30 19 H 4.76937 -1.50489 0.841033 0
M  V30 20 H 5.96507 1.53154 -1.42269 0
M  V30 21 H 3.48564 1.44938 -1.53335 0
M  V30 22 H 1.08775 1.34809 -1.62126 0
M  V30 23 H 0.253643 -0.395562 1.63505 0
M  V30 24 H -2.00008 -1.1333 2.18798 0
M  V30 25 H -3.32932 0.0457016 -1.6515 0
M  V30 26 H -1.058 0.78511 -2.24461 0
M  V30 27 H -5.23168 1.03575 0.700722 0
M  V30 28 H -4.92648 0.527253 2.27214 0
M  V30 END ATOM
M  V30 BEGIN BOND
M  V30 1 1 1 2
M  V30 2 2 2 3 CFG=2
M  V30 3 1 2 4
M  V30 4 1 4 5
M  V30 5 2 5 6
M  V30 6 1 5 7
M  V30 7 1 7 8
M  V30 8 2 8 9
M  V30 9 1 9 10
M  V30 10 2 10 11
M  V30 11 1 11 12
M  V30 12 2 12 13
M  V30 13 1 11 14
M  V30 14 1 14 15
M  V30 15 2 14 16
M  V30 16 2 14 17
M  V30 17 1 13 8
M  V30 18 1 1 18
M  V30 19 1 1 19
M  V30 20 1 3 20
M  V30 21 1 4 21
M  V30 22 1 7 22
M  V30 23 1 9 23
M  V30 24 1 10 24
M  V30 25 1 12 25
M  V30 26 1 13 26
M  V30 27 1 15 27
M  V30 28 1 15 28
M  V30 END BOND
M  V30 END CTAB
M  END
