
     RDKit          3D

  0  0  0  0  0  0  0  0  0  0999 V3000
M  V30 BEGIN CTAB
M  V30 COUNTS 29 30 0 0 0
M  V30 BEGIN ATOM
M  V30 1 N -1.12387 1.23859 -1.91377 0
M  V30 2 C -1.82813 0.736215 -0.786813 0
M  V30 3 C -3.12323 1.1334 -0.525946 0
M  V30 4 C -3.81031 0.648476 0.566383 0
M  V30 5 N -5.14949 1.07122 0.81962 0
M  V30 6 C -3.15277 -0.245706 1.3836 0
M  V30 7 C -1.85636 -0.635186 1.11135 0
M  V30 8 C -1.15635 -0.158363 0.0220898 0
M  V30 9 N 0.184527 -0.571136 -0.245873 0
M  V30 10 N 0.577691 -1.16074 -1.36476 0
M  V30 11 C 1.89074 -1.4307 -1.32911 0
M  V30 12 C 2.37305 -0.990242 -0.117938 0
M  V30 13 C 1.27919 -0.460699 0.528722 0
M  V30 14 S 4.03072 -1.09899 0.442335 0
M  V30 15 O 4.0824 -1.19611 1.92183 0
M  V30 16 O 4.70694 -2.28309 -0.200123 0
M  V30 17 C 4.89783 0.374383 -0.0552378 0
M  V30 18 F -1.20328 -1.52147 1.92051 0
M  V30 19 Cl -4.01356 -0.863524 2.76623 0
M  V30 20 H -1.25983 0.897902 -2.88084 0
M  V30 21 H -0.43247 1.99298 -1.75055 0
M  V30 22 H -3.6541 1.84432 -1.17064 0
M  V30 23 H -5.28102 1.9644 1.33679 0
M  V30 24 H -5.97293 0.525458 0.509591 0
M  V30 25 H 2.50275 -1.90126 -2.07784 0
M  V30 26 H 1.28303 -0.0170501 1.51557 0
M  V30 27 H 5.83856 0.493064 0.523211 0
M  V30 28 H 5.10311 0.341667 -1.1341 0
M  V30 29 H 4.26718 1.27219 0.185717 0
M  V30 END ATOM
M  V30 BEGIN BOND
M  V30 1 1 1 2
M  V30 2 2 2 3
M  V30 3 1 3 4
M  V30 4 1 4 5
M  V30 5 2 4 6
M  V30 6 1 6 7
M  V30 7 2 7 8
M  V30 8 1 8 9
M  V30 9 1 9 10
M  V30 10 2 10 11
M  V30 11 1 11 12
M  V30 12 2 12 13
M  V30 13 1 12 14
M  V30 14 2 14 15
M  V30 15 2 14 16
M  V30 16 1 14 17
M  V30 17 1 7 18
M  V30 18 1 6 19
M  V30 19 1 8 2
M  V30 20 1 13 9
M  V30 21 1 1 20
M  V30 22 1 1 21
M  V30 23 1 3 22
M  V30 24 1 5 23
M  V30 25 1 5 24
M  V30 26 1 11 25
M  V30 27 1 13 26
M  V30 28 1 17 27
M  V30 29 1 17 28
M  V30 30 1 17 29
M  V30 END BOND
M  V30 END CTAB
M  END
