
     RDKit          3D

  0  0  0  0  0  0  0  0  0  0999 V3000
M  V30 BEGIN CTAB
M  V30 COUNTS 35 35 0 0 0
M  V30 BEGIN ATOM
M  V30 1 C -3.30675 -0.187489 -0.601162 0
M  V30 2 C -2.59416 0.830779 0.256718 0
M  V30 3 N -2.08449 1.90938 -0.573638 0
M  V30 4 C -1.52259 0.222222 1.10856 0
M  V30 5 C -0.460483 -0.453098 0.338218 0
M  V30 6 C -0.59956 -1.78891 0.0362308 0
M  V30 7 C 0.367414 -2.4758 -0.685617 0
M  V30 8 C 1.49735 -1.7686 -1.10201 0
M  V30 9 N 2.53183 -2.4012 -1.84534 0
M  V30 10 C 1.66446 -0.433237 -0.815431 0
M  V30 11 O 2.76819 0.271379 -1.21824 0
M  V30 12 S 4.19274 0.437578 -0.32554 0
M  V30 13 C 3.91527 1.12329 1.27523 0
M  V30 14 O 4.93537 -0.856175 -0.168617 0
M  V30 15 O 5.10183 1.37549 -1.07885 0
M  V30 16 C 0.677705 0.205572 -0.0964072 0
M  V30 17 C -3.61058 1.42384 1.1652 0
M  V30 18 O -4.27322 0.611728 2.08382 0
M  V30 19 O -3.91834 2.63769 1.1587 0
M  V30 20 H -3.48907 -1.13179 -0.0915295 0
M  V30 21 H -2.73852 -0.289449 -1.55643 0
M  V30 22 H -4.32002 0.206974 -0.898824 0
M  V30 23 H -2.9094 2.45708 -0.936249 0
M  V30 24 H -1.53451 2.54708 0.0248769 0
M  V30 25 H -1.09776 1.05976 1.72786 0
M  V30 26 H -2.01837 -0.449213 1.83774 0
M  V30 27 H -1.46284 -2.33634 0.352558 0
M  V30 28 H 0.261215 -3.52853 -0.925478 0
M  V30 29 H 2.5274 -2.31484 -2.88475 0
M  V30 30 H 3.30747 -2.95422 -1.42149 0
M  V30 31 H 2.96844 0.777312 1.73811 0
M  V30 32 H 3.88005 2.23221 1.22833 0
M  V30 33 H 4.7495 0.856219 1.95527 0
M  V30 34 H 0.820235 1.24974 0.121196 0
M  V30 35 H -4.22582 0.933536 3.06071 0
M  V30 END ATOM
M  V30 BEGIN BOND
M  V30 1 1 1 2
M  V30 2 1 2 3
M  V30 3 1 2 4
M  V30 4 1 4 5
M  V30 5 2 5 6
M  V30 6 1 6 7
M  V30 7 2 7 8
M  V30 8 1 8 9
M  V30 9 1 8 10
M  V30 10 1 10 11
M  V30 11 1 11 12
M  V30 12 1 12 13
M  V30 13 2 12 14
M  V30 14 2 12 15
M  V30 15 2 10 16
M  V30 16 1 2 17
M  V30 17 1 17 18
M  V30 18 2 17 19
M  V30 19 1 16 5
M  V30 20 1 1 20
M  V30 21 1 1 21
M  V30 22 1 1 22
M  V30 23 1 3 23
M  V30 24 1 3 24
M  V30 25 1 4 25
M  V30 26 1 4 26
M  V30 27 1 6 27
M  V30 28 1 7 28
M  V30 29 1 9 29
M  V30 30 1 9 30
M  V30 31 1 13 31
M  V30 32 1 13 32
M  V30 33 1 13 33
M  V30 34 1 16 34
M  V30 35 1 18 35
M  V30 END BOND
M  V30 END CTAB
M  END
