
     RDKit          3D

  0  0  0  0  0  0  0  0  0  0999 V3000
M  V30 BEGIN CTAB
M  V30 COUNTS 61 67 0 0 0
M  V30 BEGIN ATOM
M  V30 1 C -5.28498 1.58623 -1.64281 0
M  V30 2 C -5.00186 0.208655 -1.20716 0
M  V30 3 C -4.00012 -0.0893921 -0.294104 0
M  V30 4 C -3.21736 0.908293 0.251048 0
M  V30 5 O -3.44274 2.06595 -0.104968 0
M  V30 6 N -2.22324 0.684789 1.14759 0
M  V30 7 C -1.49809 1.79152 1.65754 0
M  V30 8 C -0.885186 2.76867 0.697653 0
M  V30 9 C -1.55733 3.89092 1.46994 0
M  V30 10 C -2.33406 2.90734 2.30166 0
M  V30 11 C -1.97718 -0.577424 1.5329 0
M  V30 12 C -0.910901 -0.882623 2.47573 0
M  V30 13 N 0.3453 -1.24099 1.79544 0
M  V30 14 N 1.27638 -0.395635 1.41188 0
M  V30 15 C 2.32092 -1.04669 0.802296 0
M  V30 16 C 1.96932 -2.36796 0.832293 0
M  V30 17 C 2.56272 -3.51393 0.382832 0
M  V30 18 N 3.80539 -3.46105 -0.301038 0
M  V30 19 N 1.98521 -4.73819 0.532862 0
M  V30 20 C 0.799037 -4.84661 1.13507 0
M  V30 21 N 0.215726 -3.72261 1.57362 0
M  V30 22 C 0.729598 -2.49061 1.45683 0
M  V30 23 C 3.4956 -0.370875 0.243012 0
M  V30 24 C 4.76235 -0.682809 0.665262 0
M  V30 25 C 5.85908 -0.0355108 0.091983 0
M  V30 26 C 5.6458 0.903499 -0.885178 0
M  V30 27 O 6.45654 1.65007 -1.58293 0
M  V30 28 C 5.80494 2.4066 -2.40883 0
M  V30 29 N 6.39486 3.33902 -3.31436 0
M  V30 30 N 4.48593 2.15389 -2.25693 0
M  V30 31 C 4.36552 1.21203 -1.30389 0
M  V30 32 C 3.27826 0.564418 -0.730117 0
M  V30 33 C -2.75148 -1.63233 1.00416 0
M  V30 34 C -3.75369 -1.38751 0.098687 0
M  V30 35 C -4.50977 -2.41386 -0.418613 0
M  V30 36 C -5.52507 -2.18194 -1.33438 0
M  V30 37 C -5.73426 -0.879607 -1.69535 0
M  V30 38 H -4.50174 2.0523 -2.26884 0
M  V30 39 H -6.1481 1.50527 -2.38233 0
M  V30 40 H -5.72146 2.24415 -0.866655 0
M  V30 41 H -0.702897 1.55243 2.42456 0
M  V30 42 H 0.232016 2.92447 0.803736 0
M  V30 43 H -1.10944 2.68386 -0.360325 0
M  V30 44 H -2.21551 4.53588 0.86607 0
M  V30 45 H -0.897255 4.51653 2.09081 0
M  V30 46 H -3.40779 2.85561 2.15929 0
M  V30 47 H -2.14746 3.03372 3.40818 0
M  V30 48 H -0.732328 -0.193705 3.29226 0
M  V30 49 H -1.2125 -1.85169 3.00168 0
M  V30 50 H 3.83106 -3.02669 -1.2638 0
M  V30 51 H 4.66387 -3.83971 0.135568 0
M  V30 52 H 0.33376 -5.83097 1.25736 0
M  V30 53 H 4.98582 -1.40755 1.45097 0
M  V30 54 H 6.85496 -0.278918 0.421148 0
M  V30 55 H 6.17893 4.36315 -3.25296 0
M  V30 56 H 7.05105 2.99047 -4.04755 0
M  V30 57 H 2.28471 0.789138 -1.03998 0
M  V30 58 H -2.56649 -2.66327 1.31637 0
M  V30 59 H -4.33963 -3.43909 -0.129696 0
M  V30 60 H -6.13659 -2.96528 -1.75918 0
M  V30 61 H -6.52813 -0.63386 -2.42025 0
M  V30 END ATOM
M  V30 BEGIN BOND
M  V30 1 1 1 2
M  V30 2 2 2 3
M  V30 3 1 3 4
M  V30 4 2 4 5
M  V30 5 1 4 6
M  V30 6 1 6 7
M  V30 7 1 7 8
M  V30 8 1 8 9
M  V30 9 1 9 10
M  V30 10 1 6 11
M  V30 11 1 11 12
M  V30 12 1 12 13
M  V30 13 1 13 14
M  V30 14 2 14 15
M  V30 15 1 15 16
M  V30 16 2 16 17
M  V30 17 1 17 18
M  V30 18 1 17 19
M  V30 19 2 19 20
M  V30 20 1 20 21
M  V30 21 2 21 22
M  V30 22 1 15 23
M  V30 23 2 23 24
M  V30 24 1 24 25
M  V30 25 2 25 26
M  V30 26 1 26 27
M  V30 27 1 27 28
M  V30 28 1 28 29
M  V30 29 2 28 30
M  V30 30 1 30 31
M  V30 31 2 31 32
M  V30 32 2 11 33
M  V30 33 1 33 34
M  V30 34 2 34 35
M  V30 35 1 35 36
M  V30 36 2 36 37
M  V30 37 1 37 2
M  V30 38 1 34 3
M  V30 39 1 10 7
M  V30 40 1 22 13
M  V30 41 1 32 23
M  V30 42 1 22 16
M  V30 43 1 31 26
M  V30 44 1 1 38
M  V30 45 1 1 39
M  V30 46 1 1 40
M  V30 47 1 7 41
M  V30 48 1 8 42
M  V30 49 1 8 43
M  V30 50 1 9 44
M  V30 51 1 9 45
M  V30 52 1 10 46
M  V30 53 1 10 47
M  V30 54 1 12 48
M  V30 55 1 12 49
M  V30 56 1 18 50
M  V30 57 1 18 51
M  V30 58 1 20 52
M  V30 59 1 24 53
M  V30 60 1 25 54
M  V30 61 1 29 55
M  V30 62 1 29 56
M  V30 63 1 32 57
M  V30 64 1 33 58
M  V30 65 1 35 59
M  V30 66 1 36 60
M  V30 67 1 37 61
M  V30 END BOND
M  V30 END CTAB
M  END
