
     RDKit          3D

  0  0  0  0  0  0  0  0  0  0999 V3000
M  V30 BEGIN CTAB
M  V30 COUNTS 23 23 0 0 0
M  V30 BEGIN ATOM
M  V30 1 N 2.81202 -1.93761 -0.803718 0
M  V30 2 C 1.81638 -0.96428 -0.451202 0
M  V30 3 C 2.17422 0.207665 0.177848 0
M  V30 4 C 1.23119 1.15002 0.52187 0
M  V30 5 O 1.60603 2.31892 1.15164 0
M  V30 6 C -0.0965609 0.896553 0.221448 0
M  V30 7 C -0.493647 -0.260605 -0.40542 0
M  V30 8 C 0.482365 -1.17236 -0.72991 0
M  V30 9 S -2.16015 -0.575956 -0.781276 0
M  V30 10 O -2.28087 -1.95354 -1.39052 0
M  V30 11 O -2.75144 0.415986 -1.72253 0
M  V30 12 N -3.07641 -0.584574 0.683258 0
M  V30 13 C -1.12797 1.88225 0.575611 0
M  V30 14 H 3.74009 -1.90736 -0.340763 0
M  V30 15 H 2.60583 -2.65496 -1.50653 0
M  V30 16 H 3.20975 0.407635 0.413291 0
M  V30 17 H 2.57587 2.47151 1.35489 0
M  V30 18 H 0.234987 -2.11646 -1.23128 0
M  V30 19 H -2.49382 -0.798599 1.51537 0
M  V30 20 H -3.84953 -1.29382 0.661416 0
M  V30 21 H -0.646321 2.82587 0.902991 0
M  V30 22 H -1.79402 2.15874 -0.268191 0
M  V30 23 H -1.71799 1.48498 1.45171 0
M  V30 END ATOM
M  V30 BEGIN BOND
M  V30 1 1 1 2
M  V30 2 2 2 3
M  V30 3 1 3 4
M  V30 4 1 4 5
M  V30 5 2 4 6
M  V30 6 1 6 7
M  V30 7 2 7 8
M  V30 8 1 7 9
M  V30 9 2 9 10
M  V30 10 2 9 11
M  V30 11 1 9 12
M  V30 12 1 6 13
M  V30 13 1 8 2
M  V30 14 1 1 14
M  V30 15 1 1 15
M  V30 16 1 3 16
M  V30 17 1 5 17
M  V30 18 1 8 18
M  V30 19 1 12 19
M  V30 20 1 12 20
M  V30 21 1 13 21
M  V30 22 1 13 22
M  V30 23 1 13 23
M  V30 END BOND
M  V30 END CTAB
M  END
