
     RDKit          3D

  0  0  0  0  0  0  0  0  0  0999 V3000
M  V30 BEGIN CTAB
M  V30 COUNTS 34 34 0 0 0
M  V30 BEGIN ATOM
M  V30 1 C 2.36284 0.807303 1.81507 0
M  V30 2 C 2.43123 0.289045 0.388146 0
M  V30 3 C 3.53917 -0.79018 0.416438 0
M  V30 4 N 2.88673 1.36468 -0.455348 0
M  V30 5 C 1.16237 -0.333783 -0.0325371 0
M  V30 6 C -0.071544 0.190174 0.336128 0
M  V30 7 C -1.25491 -0.367899 -0.085126 0
M  V30 8 C -1.19282 -1.49503 -0.910538 0
M  V30 9 C 0.00207 -2.04632 -1.29929 0
M  V30 10 C 1.18829 -1.44236 -0.84382 0
M  V30 11 C -2.58716 0.201602 0.278781 0
M  V30 12 C -2.6432 0.699281 1.71101 0
M  V30 13 C -2.84563 1.35694 -0.701193 0
M  V30 14 N -3.64795 -0.736685 0.066964 0
M  V30 15 H 1.75279 0.0762457 2.39767 0
M  V30 16 H 2.01747 1.8434 1.84253 0
M  V30 17 H 3.39499 0.802075 2.21735 0
M  V30 18 H 4.27422 -0.597618 1.21104 0
M  V30 19 H 3.04202 -1.78575 0.615387 0
M  V30 20 H 3.99597 -0.862783 -0.600472 0
M  V30 21 H 3.93253 1.33939 -0.506723 0
M  V30 22 H 2.52993 2.27313 -0.0528439 0
M  V30 23 H -0.0658692 1.07567 0.987923 0
M  V30 24 H -2.14336 -1.91229 -1.21509 0
M  V30 25 H 0.0414382 -2.91139 -1.93548 0
M  V30 26 H 2.12804 -1.87524 -1.1622 0
M  V30 27 H -3.63082 1.20807 1.82686 0
M  V30 28 H -1.81948 1.40534 1.91615 0
M  V30 29 H -2.55662 -0.168604 2.36141 0
M  V30 30 H -2.25585 1.12724 -1.6355 0
M  V30 31 H -3.90171 1.36754 -1.00653 0
M  V30 32 H -2.59681 2.31956 -0.254702 0
M  V30 33 H -3.62841 -1.59194 0.627221 0
M  V30 34 H -3.83995 -0.828811 -0.946925 0
M  V30 END ATOM
M  V30 BEGIN BOND
M  V30 1 1 1 2
M  V30 2 1 2 3
M  V30 3 1 2 4
M  V30 4 1 2 5
M  V30 5 2 5 6
M  V30 6 1 6 7
M  V30 7 2 7 8
M  V30 8 1 8 9
M  V30 9 2 9 10
M  V30 10 1 7 11
M  V30 11 1 11 12
M  V30 12 1 11 13
M  V30 13 1 11 14
M  V30 14 1 10 5
M  V30 15 1 1 15
M  V30 16 1 1 16
M  V30 17 1 1 17
M  V30 18 1 3 18
M  V30 19 1 3 19
M  V30 20 1 3 20
M  V30 21 1 4 21
M  V30 22 1 4 22
M  V30 23 1 6 23
M  V30 24 1 8 24
M  V30 25 1 9 25
M  V30 26 1 10 26
M  V30 27 1 12 27
M  V30 28 1 12 28
M  V30 29 1 12 29
M  V30 30 1 13 30
M  V30 31 1 13 31
M  V30 32 1 13 32
M  V30 33 1 14 33
M  V30 34 1 14 34
M  V30 END BOND
M  V30 END CTAB
M  END
