
     RDKit          3D

  0  0  0  0  0  0  0  0  0  0999 V3000
M  V30 BEGIN CTAB
M  V30 COUNTS 40 41 0 0 0
M  V30 BEGIN ATOM
M  V30 1 C -1.54257 -1.92394 0.720684 0
M  V30 2 C -2.08968 -0.775111 -0.058169 0
M  V30 3 C -3.201 -0.0314372 0.668259 0
M  V30 4 C -4.47269 -0.826918 0.726143 0
M  V30 5 C -3.35266 1.29844 0.00365817 0
M  V30 6 C -2.94135 1.27988 -1.45788 0
M  V30 7 C -1.44627 1.00279 -1.61512 0
M  V30 8 C -1.02943 0.23604 -0.402034 0
M  V30 9 N 0.301874 -0.322602 -0.487054 0
M  V30 10 C 1.20951 0.668624 -0.0144862 0
M  V30 11 C 2.62944 0.246729 0.0019257 0
M  V30 12 N 3.53406 1.24065 0.153582 0
M  V30 13 C 4.85558 1.02092 0.204985 0
M  V30 14 N 5.78624 2.08302 0.340303 0
M  V30 15 N 5.28598 -0.25676 0.101685 0
M  V30 16 C 4.39639 -1.25 -0.0477612 0
M  V30 17 N 3.08414 -0.99175 -0.0962971 0
M  V30 18 N 4.91207 -2.57315 -0.157198 0
M  V30 19 H -1.75176 -2.87724 0.162172 0
M  V30 20 H -1.96935 -1.94269 1.72983 0
M  V30 21 H -0.424994 -1.8938 0.808 0
M  V30 22 H -2.54683 -1.11825 -1.03007 0
M  V30 23 H -2.8201 0.136687 1.69927 0
M  V30 24 H -5.19621 -0.529429 -0.0367435 0
M  V30 25 H -4.89015 -0.747813 1.76129 0
M  V30 26 H -4.21055 -1.90118 0.582728 0
M  V30 27 H -2.73618 2.10438 0.495905 0
M  V30 28 H -4.39226 1.69112 0.0348084 0
M  V30 29 H -3.47997 0.501129 -2.02046 0
M  V30 30 H -3.13694 2.27527 -1.87021 0
M  V30 31 H -1.22453 0.501303 -2.56587 0
M  V30 32 H -0.915431 1.9949 -1.57378 0
M  V30 33 H -1.03211 0.98309 0.451508 0
M  V30 34 H 0.453133 -0.568174 -1.49031 0
M  V30 35 H 0.946782 0.893411 1.05815 0
M  V30 36 H 1.02492 1.60505 -0.573279 0
M  V30 37 H 6.79262 1.91386 0.334206 0
M  V30 38 H 5.41346 3.04182 0.440544 0
M  V30 39 H 5.91484 -2.77551 -0.270592 0
M  V30 40 H 4.26201 -3.41335 -0.130043 0
M  V30 END ATOM
M  V30 BEGIN BOND
M  V30 1 1 1 2
M  V30 2 1 2 3
M  V30 3 1 3 4
M  V30 4 1 3 5
M  V30 5 1 5 6
M  V30 6 1 6 7
M  V30 7 1 7 8
M  V30 8 1 8 9
M  V30 9 1 9 10
M  V30 10 1 10 11
M  V30 11 2 11 12
M  V30 12 1 12 13
M  V30 13 1 13 14
M  V30 14 2 13 15
M  V30 15 1 15 16
M  V30 16 2 16 17
M  V30 17 1 16 18
M  V30 18 1 8 2
M  V30 19 1 17 11
M  V30 20 1 1 19
M  V30 21 1 1 20
M  V30 22 1 1 21
M  V30 23 1 2 22
M  V30 24 1 3 23
M  V30 25 1 4 24
M  V30 26 1 4 25
M  V30 27 1 4 26
M  V30 28 1 5 27
M  V30 29 1 5 28
M  V30 30 1 6 29
M  V30 31 1 6 30
M  V30 32 1 7 31
M  V30 33 1 7 32
M  V30 34 1 8 33
M  V30 35 1 9 34
M  V30 36 1 10 35
M  V30 37 1 10 36
M  V30 38 1 14 37
M  V30 39 1 14 38
M  V30 40 1 18 39
M  V30 41 1 18 40
M  V30 END BOND
M  V30 END CTAB
M  END
