
     RDKit          3D

  0  0  0  0  0  0  0  0  0  0999 V3000
M  V30 BEGIN CTAB
M  V30 COUNTS 17 16 0 0 0
M  V30 BEGIN ATOM
M  V30 1 N -0.919085 -1.94738 -0.20827 0
M  V30 2 C 0.0125047 -0.947935 0.142097 0
M  V30 3 N -0.352693 0.267861 0.18811 0
M  V30 4 C -1.63915 0.754722 -0.0836931 0
M  V30 5 N -2.60883 0.5572 0.73773 0
M  V30 6 N -1.89121 1.48525 -1.28149 0
M  V30 7 S 1.67079 -1.44023 0.50702 0
M  V30 8 C 2.73597 -0.0628136 0.937141 0
M  V30 9 C 2.94275 0.819787 -0.232638 0
M  V30 10 N 3.12726 1.49841 -1.15645 0
M  V30 11 H -1.41388 -1.90748 -1.13158 0
M  V30 12 H -1.16452 -2.76582 0.427499 0
M  V30 13 H -2.52457 0.0442285 1.63051 0
M  V30 14 H -1.27994 1.27988 -2.12683 0
M  V30 15 H -2.62798 2.20271 -1.38556 0
M  V30 16 H 2.24348 0.613808 1.69137 0
M  V30 17 H 3.6891 -0.452204 1.34504 0
M  V30 END ATOM
M  V30 BEGIN BOND
M  V30 1 1 1 2
M  V30 2 2 2 3 CFG=2
M  V30 3 1 3 4
M  V30 4 2 4 5 CFG=2
M  V30 5 1 4 6
M  V30 6 1 2 7
M  V30 7 1 7 8
M  V30 8 1 8 9
M  V30 9 3 9 10
M  V30 10 1 1 11
M  V30 11 1 1 12
M  V30 12 1 5 13
M  V30 13 1 6 14
M  V30 14 1 6 15
M  V30 15 1 8 16
M  V30 16 1 8 17
M  V30 END BOND
M  V30 END CTAB
M  END
