
     RDKit          3D

  0  0  0  0  0  0  0  0  0  0999 V3000
M  V30 BEGIN CTAB
M  V30 COUNTS 42 45 0 0 0
M  V30 BEGIN ATOM
M  V30 1 N 5.07723 -1.93075 -1.38852 0
M  V30 2 C 4.54854 -0.717162 -0.817173 0
M  V30 3 N 3.34898 -0.758671 -0.214438 0
M  V30 4 C 2.82404 0.357494 0.332529 0
M  V30 5 C 1.49889 0.284054 1.00071 0
M  V30 6 N 0.522175 -0.392196 0.207168 0
M  V30 7 C -0.775391 -0.52356 0.753771 0
M  V30 8 C -1.54323 0.714297 1.01601 0 CFG=2
M  V30 9 C -2.83752 0.291447 1.72559 0
M  V30 10 C -3.64742 -0.640967 0.866441 0 CFG=2
M  V30 11 C -2.82653 -1.84446 0.500298 0
M  V30 12 C -1.58153 -1.38171 -0.218284 0 CFG=1
M  V30 13 C -1.86252 -0.601589 -1.4583 0
M  V30 14 C -2.77429 0.555179 -1.11846 0 CFG=2
M  V30 15 C -1.97702 1.47058 -0.212745 0
M  V30 16 C -4.01135 0.0560935 -0.442753 0
M  V30 17 N 3.53768 1.49784 0.251776 0
M  V30 18 C 4.72362 1.56146 -0.338286 0
M  V30 19 N 5.22027 0.425081 -0.875512 0
M  V30 20 N 5.48682 2.76016 -0.42609 0
M  V30 21 H 4.39744 -2.4992 -1.97328 0
M  V30 22 H 6.05103 -2.23216 -1.24387 0
M  V30 23 H 1.69358 -0.189855 1.97755 0
M  V30 24 H 1.1582 1.3211 1.17192 0
M  V30 25 H 0.834915 -1.31964 -0.154898 0
M  V30 26 H -0.780659 -1.12195 1.70656 0
M  V30 27 H -1.07059 1.43084 1.69759 0
M  V30 28 H -2.61775 -0.180352 2.68272 0
M  V30 29 H -3.42774 1.22476 1.82709 0
M  V30 30 H -4.56164 -0.901378 1.42862 0
M  V30 31 H -3.41818 -2.53246 -0.115958 0
M  V30 32 H -2.50403 -2.35104 1.42569 0
M  V30 33 H -0.987141 -2.27966 -0.511391 0
M  V30 34 H -2.24292 -1.22049 -2.28816 0
M  V30 35 H -0.892882 -0.140387 -1.78214 0
M  V30 36 H -3.08957 1.11948 -2.03198 0
M  V30 37 H -2.69102 2.26178 0.140339 0
M  V30 38 H -1.15542 1.94665 -0.76413 0
M  V30 39 H -4.76472 0.846605 -0.29978 0
M  V30 40 H -4.44277 -0.764415 -1.08832 0
M  V30 41 H 6.18089 2.85402 -1.19597 0
M  V30 42 H 5.37953 3.54514 0.24807 0
M  V30 END ATOM
M  V30 BEGIN BOND
M  V30 1 1 1 2
M  V30 2 2 2 3
M  V30 3 1 3 4
M  V30 4 1 4 5
M  V30 5 1 5 6
M  V30 6 1 6 7
M  V30 7 1 7 8
M  V30 8 1 8 9
M  V30 9 1 9 10
M  V30 10 1 10 11
M  V30 11 1 11 12
M  V30 12 1 12 13
M  V30 13 1 13 14
M  V30 14 1 14 15
M  V30 15 1 14 16
M  V30 16 2 4 17
M  V30 17 1 17 18
M  V30 18 2 18 19
M  V30 19 1 18 20
M  V30 20 1 19 2
M  V30 21 1 12 7
M  V30 22 1 15 8
M  V30 23 1 16 10
M  V30 24 1 1 21
M  V30 25 1 1 22
M  V30 26 1 5 23
M  V30 27 1 5 24
M  V30 28 1 6 25
M  V30 29 1 7 26
M  V30 30 1 8 27 CFG=1
M  V30 31 1 9 28
M  V30 32 1 9 29
M  V30 33 1 10 30 CFG=1
M  V30 34 1 11 31
M  V30 35 1 11 32
M  V30 36 1 12 33 CFG=3
M  V30 37 1 13 34
M  V30 38 1 13 35
M  V30 39 1 14 36 CFG=3
M  V30 40 1 15 37
M  V30 41 1 15 38
M  V30 42 1 16 39
M  V30 43 1 16 40
M  V30 44 1 20 41
M  V30 45 1 20 42
M  V30 END BOND
M  V30 END CTAB
M  END
