
     RDKit          3D

  0  0  0  0  0  0  0  0  0  0999 V3000
M  V30 BEGIN CTAB
M  V30 COUNTS 40 39 0 0 0
M  V30 BEGIN ATOM
M  V30 1 C -4.07597 0.748512 0.233795 0
M  V30 2 C -2.64389 0.837014 -0.165599 0
M  V30 3 C -1.92695 -0.507219 -0.180664 0
M  V30 4 N -0.568185 -0.407522 -0.560916 0
M  V30 5 C 0.463432 0.36263 0.0144525 0
M  V30 6 O 0.220394 1.08839 0.998405 0
M  V30 7 C 1.86048 0.365082 -0.490396 0
M  V30 8 C 2.74167 1.28436 0.324134 0
M  V30 9 C 4.14014 1.25544 -0.220097 0
M  V30 10 N 5.02776 2.11467 0.517989 0
M  V30 11 C 4.71425 -0.142478 -0.212764 0
M  V30 12 C -2.64374 -1.25834 -1.35794 0
M  V30 13 N -2.0723 -2.52323 -1.48248 0
M  V30 14 C -2.2605 -1.30814 1.02169 0
M  V30 15 C -1.94197 -0.729864 2.35186 0
M  V30 16 H -4.43636 1.81864 0.317013 0
M  V30 17 H -4.24957 0.330552 1.24304 0
M  V30 18 H -4.73257 0.314026 -0.54799 0
M  V30 19 H -2.63472 1.2322 -1.22387 0
M  V30 20 H -2.09853 1.59478 0.422245 0
M  V30 21 H -0.236903 -0.988637 -1.40159 0
M  V30 22 H 1.90394 0.758313 -1.54779 0
M  V30 23 H 2.28594 -0.657523 -0.548099 0
M  V30 24 H 2.35842 2.31765 0.19853 0
M  V30 25 H 2.74025 1.01097 1.39684 0
M  V30 26 H 4.13837 1.61765 -1.27191 0
M  V30 27 H 5.63773 1.62234 1.18405 0
M  V30 28 H 4.60774 2.98882 0.850524 0
M  V30 29 H 4.25355 -0.752133 0.586242 0
M  V30 30 H 5.81559 -0.0501189 -0.119065 0
M  V30 31 H 4.54333 -0.599823 -1.22271 0
M  V30 32 H -3.71756 -1.35302 -1.10495 0
M  V30 33 H -2.46895 -0.64366 -2.23599 0
M  V30 34 H -2.46831 -3.30642 -0.959173 0
M  V30 35 H -1.50647 -2.73917 -2.30118 0
M  V30 36 H -3.37286 -1.48186 0.996548 0
M  V30 37 H -1.81202 -2.32237 0.876766 0
M  V30 38 H -2.57838 -1.26874 3.1093 0
M  V30 39 H -2.11187 0.341443 2.44232 0
M  V30 40 H -0.894387 -0.96318 2.63113 0
M  V30 END ATOM
M  V30 BEGIN BOND
M  V30 1 1 1 2
M  V30 2 1 2 3
M  V30 3 1 3 4
M  V30 4 1 4 5
M  V30 5 2 5 6
M  V30 6 1 5 7
M  V30 7 1 7 8
M  V30 8 1 8 9
M  V30 9 1 9 10
M  V30 10 1 9 11
M  V30 11 1 3 12
M  V30 12 1 12 13
M  V30 13 1 3 14
M  V30 14 1 14 15
M  V30 15 1 1 16
M  V30 16 1 1 17
M  V30 17 1 1 18
M  V30 18 1 2 19
M  V30 19 1 2 20
M  V30 20 1 4 21
M  V30 21 1 7 22
M  V30 22 1 7 23
M  V30 23 1 8 24
M  V30 24 1 8 25
M  V30 25 1 9 26
M  V30 26 1 10 27
M  V30 27 1 10 28
M  V30 28 1 11 29
M  V30 29 1 11 30
M  V30 30 1 11 31
M  V30 31 1 12 32
M  V30 32 1 12 33
M  V30 33 1 13 34
M  V30 34 1 13 35
M  V30 35 1 14 36
M  V30 36 1 14 37
M  V30 37 1 15 38
M  V30 38 1 15 39
M  V30 39 1 15 40
M  V30 END BOND
M  V30 END CTAB
M  END
