
     RDKit          3D

  0  0  0  0  0  0  0  0  0  0999 V3000
M  V30 BEGIN CTAB
M  V30 COUNTS 30 31 0 0 0
M  V30 BEGIN ATOM
M  V30 1 C -4.24397 -0.231578 -0.35109 0
M  V30 2 C -3.04622 0.624127 -0.0181781 0
M  V30 3 C -2.90331 1.01768 1.41619 0
M  V30 4 C -1.97198 -0.173937 1.60307 0
M  V30 5 C -1.73565 -0.125981 0.087241 0
M  V30 6 N -0.598649 0.69284 -0.211862 0
M  V30 7 C 0.739168 0.193071 -0.174953 0
M  V30 8 C 1.0005 -1.11881 0.154946 0
M  V30 9 C 2.29794 -1.5844 0.185648 0
M  V30 10 C 3.33953 -0.730744 -0.115897 0
M  V30 11 C 3.06647 0.593306 -0.44819 0
M  V30 12 N 1.77856 0.969359 -0.45578 0
M  V30 13 N 4.12548 1.4982 -0.764602 0
M  V30 14 N 4.70063 -1.11682 -0.110891 0
M  V30 15 H -4.48053 -0.888318 0.509993 0
M  V30 16 H -5.10015 0.435839 -0.504642 0
M  V30 17 H -4.00189 -0.796207 -1.26707 0
M  V30 18 H -2.93881 1.48437 -0.724425 0
M  V30 19 H -2.31853 1.96538 1.5354 0
M  V30 20 H -3.79476 0.954963 2.04653 0
M  V30 21 H -1.0759 0.0802871 2.18882 0
M  V30 22 H -2.55176 -1.03273 1.94995 0
M  V30 23 H -1.73247 -1.13598 -0.379335 0
M  V30 24 H -0.744052 1.69394 -0.467479 0
M  V30 25 H 0.219494 -1.81832 0.396837 0
M  V30 26 H 2.56254 -2.60652 0.438308 0
M  V30 27 H 5.06482 1.32931 -0.398279 0
M  V30 28 H 3.96061 2.33363 -1.36551 0
M  V30 29 H 5.25394 -1.00162 0.756164 0
M  V30 30 H 5.12894 -1.50432 -0.954835 0
M  V30 END ATOM
M  V30 BEGIN BOND
M  V30 1 1 1 2
M  V30 2 1 2 3
M  V30 3 1 3 4
M  V30 4 1 4 5
M  V30 5 1 5 6
M  V30 6 1 6 7
M  V30 7 2 7 8
M  V30 8 1 8 9
M  V30 9 2 9 10
M  V30 10 1 10 11
M  V30 11 2 11 12
M  V30 12 1 11 13
M  V30 13 1 10 14
M  V30 14 1 5 2
M  V30 15 1 12 7
M  V30 16 1 1 15
M  V30 17 1 1 16
M  V30 18 1 1 17
M  V30 19 1 2 18
M  V30 20 1 3 19
M  V30 21 1 3 20
M  V30 22 1 4 21
M  V30 23 1 4 22
M  V30 24 1 5 23
M  V30 25 1 6 24
M  V30 26 1 8 25
M  V30 27 1 9 26
M  V30 28 1 13 27
M  V30 29 1 13 28
M  V30 30 1 14 29
M  V30 31 1 14 30
M  V30 END BOND
M  V30 END CTAB
M  END
