
     RDKit          3D

  0  0  0  0  0  0  0  0  0  0999 V3000
M  V30 BEGIN CTAB
M  V30 COUNTS 33 33 0 0 0
M  V30 BEGIN ATOM
M  V30 1 N 0.478469 -0.63661 2.17575 0
M  V30 2 C 0.45292 -1.25986 0.865063 0
M  V30 3 C 1.73413 -1.06904 0.155715 0
M  V30 4 N 2.3153 -2.09743 -0.487177 0
M  V30 5 C 3.47733 -1.98624 -1.14836 0
M  V30 6 C 4.12599 -0.769339 -1.18482 0
M  V30 7 C 3.58794 0.329352 -0.547401 0
M  V30 8 C 2.393 0.147027 0.112917 0
M  V30 9 N 4.23907 1.5972 -0.570658 0
M  V30 10 C -0.711168 -0.826098 0.0774154 0
M  V30 11 O -0.908399 -1.25562 -1.08484 0
M  V30 12 O -1.62562 0.0735248 0.60176 0
M  V30 13 C -2.75159 0.505244 -0.135183 0
M  V30 14 C -2.32189 1.19825 -1.42248 0
M  V30 15 C -3.66294 -0.653016 -0.511833 0
M  V30 16 C -3.4999 1.54018 0.686482 0
M  V30 17 H 0.765424 0.351166 2.15739 0
M  V30 18 H 1.0885 -1.24283 2.77408 0
M  V30 19 H 0.339084 -2.36525 1.06674 0
M  V30 20 H 3.9558 -2.80752 -1.67033 0
M  V30 21 H 5.07242 -0.615326 -1.70506 0
M  V30 22 H 1.95061 0.989887 0.619583 0
M  V30 23 H 5.27477 1.65684 -0.683896 0
M  V30 24 H 3.72183 2.49786 -0.477857 0
M  V30 25 H -1.32061 1.65025 -1.30058 0
M  V30 26 H -3.09229 1.95536 -1.68754 0
M  V30 27 H -2.32132 0.449109 -2.23612 0
M  V30 28 H -4.72448 -0.324078 -0.330362 0
M  V30 29 H -3.5958 -0.887253 -1.59259 0
M  V30 30 H -3.42951 -1.5676 0.0708188 0
M  V30 31 H -4.10674 1.04788 1.45783 0
M  V30 32 H -4.14674 2.18161 0.0587836 0
M  V30 33 H -2.7536 2.19237 1.19088 0
M  V30 END ATOM
M  V30 BEGIN BOND
M  V30 1 1 1 2
M  V30 2 1 2 3
M  V30 3 2 3 4
M  V30 4 1 4 5
M  V30 5 2 5 6
M  V30 6 1 6 7
M  V30 7 2 7 8
M  V30 8 1 7 9
M  V30 9 1 2 10
M  V30 10 2 10 11
M  V30 11 1 10 12
M  V30 12 1 12 13
M  V30 13 1 13 14
M  V30 14 1 13 15
M  V30 15 1 13 16
M  V30 16 1 8 3
M  V30 17 1 1 17
M  V30 18 1 1 18
M  V30 19 1 2 19
M  V30 20 1 5 20
M  V30 21 1 6 21
M  V30 22 1 8 22
M  V30 23 1 9 23
M  V30 24 1 9 24
M  V30 25 1 14 25
M  V30 26 1 14 26
M  V30 27 1 14 27
M  V30 28 1 15 28
M  V30 29 1 15 29
M  V30 30 1 15 30
M  V30 31 1 16 31
M  V30 32 1 16 32
M  V30 33 1 16 33
M  V30 END BOND
M  V30 END CTAB
M  END
