
     RDKit          3D

  0  0  0  0  0  0  0  0  0  0999 V3000
M  V30 BEGIN CTAB
M  V30 COUNTS 21 21 0 0 0
M  V30 BEGIN ATOM
M  V30 1 Cl 4.2996 0.311613 0.83244 0
M  V30 2 C 3.0773 0.0381496 -0.449505 0
M  V30 3 C 1.71888 0.0957011 0.116569 0
M  V30 4 O 1.57336 0.313575 1.34332 0
M  V30 5 N 0.60554 -0.0922556 -0.714605 0
M  V30 6 C -0.71015 -0.028026 -0.11961 0
M  V30 7 C -1.38211 1.16263 -0.0438151 0
M  V30 8 N -0.769694 2.33156 -0.556953 0
M  V30 9 N -2.60275 1.14741 0.522939 0
M  V30 10 C -3.1433 0.00536994 0.997571 0
M  V30 11 N -2.46136 -1.15158 0.910529 0
M  V30 12 C -1.2225 -1.2255 0.352916 0
M  V30 13 N -0.508728 -2.44393 0.263273 0
M  V30 14 H 3.30294 -0.910404 -0.972667 0
M  V30 15 H 3.20471 0.882196 -1.17826 0
M  V30 16 H 0.742321 -0.2697 -1.7171 0
M  V30 17 H -0.604098 2.42528 -1.58409 0
M  V30 18 H -0.483431 3.0995 0.0883244 0
M  V30 19 H -4.12913 0.0916042 1.43589 0
M  V30 20 H 0.285567 -2.52951 -0.370914 0
M  V30 21 H -0.79295 -3.25366 0.843747 0
M  V30 END ATOM
M  V30 BEGIN BOND
M  V30 1 1 1 2
M  V30 2 1 2 3
M  V30 3 2 3 4
M  V30 4 1 3 5
M  V30 5 1 5 6
M  V30 6 2 6 7
M  V30 7 1 7 8
M  V30 8 1 7 9
M  V30 9 2 9 10
M  V30 10 1 10 11
M  V30 11 2 11 12
M  V30 12 1 12 13
M  V30 13 1 12 6
M  V30 14 1 2 14
M  V30 15 1 2 15
M  V30 16 1 5 16
M  V30 17 1 8 17
M  V30 18 1 8 18
M  V30 19 1 10 19
M  V30 20 1 13 20
M  V30 21 1 13 21
M  V30 END BOND
M  V30 END CTAB
M  END
