
     RDKit          3D

  0  0  0  0  0  0  0  0  0  0999 V3000
M  V30 BEGIN CTAB
M  V30 COUNTS 56 59 0 0 0
M  V30 BEGIN ATOM
M  V30 1 N 4.38874 -5.54793 -1.09 0
M  V30 2 C 3.36734 -4.5562 -0.84035 0
M  V30 3 N 3.5629 -3.27076 -1.15 0
M  V30 4 C 2.62191 -2.32155 -0.908566 0
M  V30 5 C 2.99812 -0.945295 -1.20247 0
M  V30 6 O 2.09027 -0.14696 -1.83291 0
M  V30 7 C 2.75943 1.07801 -2.08877 0
M  V30 8 C 3.39869 1.63951 -0.884068 0
M  V30 9 C 4.79804 1.60857 -0.842064 0
M  V30 10 C 5.44594 2.10668 0.25956 0
M  V30 11 C 4.73853 2.64204 1.33264 0
M  V30 12 F 5.38935 3.13086 2.41045 0
M  V30 13 C 3.37867 2.67609 1.29977 0
M  V30 14 C 2.72822 2.169 0.180056 0
M  V30 15 C 1.43806 -2.65842 -0.340766 0
M  V30 16 C 1.2332 -4.01585 -0.013881 0
M  V30 17 N 0.00440934 -4.36654 0.580681 0
M  V30 18 N 2.20095 -4.90619 -0.275702 0
M  V30 19 C 0.379527 -1.71563 -0.129791 0
M  V30 20 C 0.403702 -0.803268 0.878515 0
M  V30 21 C -0.645945 0.0783307 1.07579 0
M  V30 22 C -1.75515 0.0663376 0.260592 0
M  V30 23 N -2.8434 0.954386 0.483928 0
M  V30 24 C -4.05316 0.911175 -0.296729 0
M  V30 25 C -5.07488 1.81331 0.281152 0
M  V30 26 C -5.76652 1.33855 1.3763 0
M  V30 27 C -6.73972 2.0738 2.00359 0
M  V30 28 C -7.06278 3.34141 1.54164 0
M  V30 29 Cl -8.31305 4.29889 2.33415 0
M  V30 30 C -6.37665 3.82061 0.449534 0
M  V30 31 C -5.38845 3.06909 -0.181178 0
M  V30 32 C -1.80719 -0.846441 -0.771793 0
M  V30 33 C -0.7552 -1.7097 -0.949004 0
M  V30 34 H 4.57383 -5.87601 -2.07072 0
M  V30 35 H 4.92016 -5.90954 -0.284618 0
M  V30 36 H 4.01504 -0.899734 -1.71151 0
M  V30 37 H 3.21037 -0.459225 -0.198765 0
M  V30 38 H 1.91011 1.76262 -2.38465 0
M  V30 39 H 3.48411 1.00317 -2.90106 0
M  V30 40 H 5.34684 1.19218 -1.68124 0
M  V30 41 H 6.53682 2.0822 0.286426 0
M  V30 42 H 2.85564 3.08965 2.15243 0
M  V30 43 H 1.64979 2.20135 0.180365 0
M  V30 44 H -0.889906 -4.31701 0.0429685 0
M  V30 45 H -0.0327002 -4.68522 1.56499 0
M  V30 46 H 1.23348 -0.714785 1.57971 0
M  V30 47 H -0.617364 0.788952 1.87006 0
M  V30 48 H -2.76565 1.66565 1.23878 0
M  V30 49 H -3.92637 1.19683 -1.34542 0
M  V30 50 H -4.42227 -0.148956 -0.310532 0
M  V30 51 H -5.56649 0.341998 1.8025 0
M  V30 52 H -7.28732 1.69203 2.87503 0
M  V30 53 H -6.62684 4.81104 0.0889212 0
M  V30 54 H -4.85761 3.47454 -1.04669 0
M  V30 55 H -2.67209 -0.881892 -1.43432 0
M  V30 56 H -0.815502 -2.41579 -1.76572 0
M  V30 END ATOM
M  V30 BEGIN BOND
M  V30 1 1 1 2
M  V30 2 2 2 3
M  V30 3 1 3 4
M  V30 4 1 4 5
M  V30 5 1 5 6
M  V30 6 1 6 7
M  V30 7 1 7 8
M  V30 8 2 8 9
M  V30 9 1 9 10
M  V30 10 2 10 11
M  V30 11 1 11 12
M  V30 12 1 11 13
M  V30 13 2 13 14
M  V30 14 2 4 15
M  V30 15 1 15 16
M  V30 16 1 16 17
M  V30 17 2 16 18
M  V30 18 1 15 19
M  V30 19 2 19 20
M  V30 20 1 20 21
M  V30 21 2 21 22
M  V30 22 1 22 23
M  V30 23 1 23 24
M  V30 24 1 24 25
M  V30 25 2 25 26
M  V30 26 1 26 27
M  V30 27 2 27 28
M  V30 28 1 28 29
M  V30 29 1 28 30
M  V30 30 2 30 31
M  V30 31 1 22 32
M  V30 32 2 32 33
M  V30 33 1 18 2
M  V30 34 1 33 19
M  V30 35 1 14 8
M  V30 36 1 31 25
M  V30 37 1 1 34
M  V30 38 1 1 35
M  V30 39 1 5 36
M  V30 40 1 5 37
M  V30 41 1 7 38
M  V30 42 1 7 39
M  V30 43 1 9 40
M  V30 44 1 10 41
M  V30 45 1 13 42
M  V30 46 1 14 43
M  V30 47 1 17 44
M  V30 48 1 17 45
M  V30 49 1 20 46
M  V30 50 1 21 47
M  V30 51 1 23 48
M  V30 52 1 24 49
M  V30 53 1 24 50
M  V30 54 1 26 51
M  V30 55 1 27 52
M  V30 56 1 30 53
M  V30 57 1 31 54
M  V30 58 1 32 55
M  V30 59 1 33 56
M  V30 END BOND
M  V30 END CTAB
M  END
