
     RDKit          3D

  0  0  0  0  0  0  0  0  0  0999 V3000
M  V30 BEGIN CTAB
M  V30 COUNTS 33 35 0 0 0
M  V30 BEGIN ATOM
M  V30 1 N 4.84905 0.26515 0.235281 0
M  V30 2 C 3.55208 0.493346 0.665702 0
M  V30 3 C 2.56505 -0.59368 0.219797 0 CFG=1
M  V30 4 O 1.29952 -0.298787 0.684549 0
M  V30 5 C 0.465015 -0.107175 -0.383987 0 CFG=2
M  V30 6 C 1.39023 0.414512 -1.49339 0
M  V30 7 C 2.49035 -0.64086 -1.29204 0 CFG=2
M  V30 8 O 1.98832 -1.88331 -1.64188 0
M  V30 9 N -0.642671 0.74355 -0.15166 0
M  V30 10 C -0.637606 2.08651 -0.127448 0
M  V30 11 N -1.90255 2.52064 0.127711 0
M  V30 12 C -2.71242 1.45464 0.265862 0
M  V30 13 C -1.90044 0.33178 0.0862339 0
M  V30 14 N -2.51847 -0.860633 0.184551 0
M  V30 15 C -3.81106 -1.0257 0.433869 0
M  V30 16 N -4.43974 -2.31024 0.532567 0
M  V30 17 N -4.60735 0.0456814 0.609465 0
M  V30 18 C -4.05911 1.27572 0.52548 0
M  V30 19 O -4.78305 2.29578 0.685979 0
M  V30 20 H 5.0981 -0.662423 0.00100574 0
M  V30 21 H 5.38756 0.987361 -0.12519 0
M  V30 22 H 3.50721 0.60994 1.76686 0
M  V30 23 H 3.20272 1.48687 0.258651 0
M  V30 24 H 2.91132 -1.54892 0.656184 0
M  V30 25 H 0.156547 -1.13213 -0.745487 0
M  V30 26 H 1.8087 1.40039 -1.24384 0
M  V30 27 H 0.936641 0.334243 -2.48192 0
M  V30 28 H 3.41468 -0.362267 -1.79059 0
M  V30 29 H 1.78508 -2.45949 -0.8537 0
M  V30 30 H 0.189624 2.76807 -0.276208 0
M  V30 31 H -4.06664 -3.04187 1.17832 0
M  V30 32 H -5.28688 -2.52425 -0.0495517 0
M  V30 33 H -5.6298 -0.062462 0.807105 0
M  V30 END ATOM
M  V30 BEGIN BOND
M  V30 1 1 1 2
M  V30 2 1 2 3
M  V30 3 1 3 4
M  V30 4 1 4 5
M  V30 5 1 5 6
M  V30 6 1 6 7
M  V30 7 1 7 8
M  V30 8 1 5 9
M  V30 9 1 9 10
M  V30 10 2 10 11
M  V30 11 1 11 12
M  V30 12 2 12 13
M  V30 13 1 13 14
M  V30 14 2 14 15
M  V30 15 1 15 16
M  V30 16 1 15 17
M  V30 17 1 17 18
M  V30 18 2 18 19
M  V30 19 1 7 3
M  V30 20 1 13 9
M  V30 21 1 18 12
M  V30 22 1 1 20
M  V30 23 1 1 21
M  V30 24 1 2 22
M  V30 25 1 2 23
M  V30 26 1 3 24 CFG=1
M  V30 27 1 5 25 CFG=3
M  V30 28 1 6 26
M  V30 29 1 6 27
M  V30 30 1 7 28 CFG=3
M  V30 31 1 8 29
M  V30 32 1 10 30
M  V30 33 1 16 31
M  V30 34 1 16 32
M  V30 35 1 17 33
M  V30 END BOND
M  V30 END CTAB
M  END
