
     RDKit          3D

  0  0  0  0  0  0  0  0  0  0999 V3000
M  V30 BEGIN CTAB
M  V30 COUNTS 27 27 0 0 0
M  V30 BEGIN ATOM
M  V30 1 C -3.47951 -0.691858 0.199019 0
M  V30 2 N -2.115 -1.15514 0.071945 0
M  V30 3 C -1.0616 -0.216805 -0.0433478 0
M  V30 4 C -1.35873 1.12749 -0.0317033 0
M  V30 5 C -0.310729 2.05142 -0.146031 0
M  V30 6 N -0.607297 3.43769 -0.13502 0
M  V30 7 C 0.979023 1.58261 -0.265956 0
M  V30 8 C 1.30247 0.246833 -0.280276 0
M  V30 9 C 0.254413 -0.663048 -0.166147 0
M  V30 10 C 0.474217 -2.11458 -0.169404 0
M  V30 11 S 2.92478 -0.354244 -0.430451 0
M  V30 12 O 3.13903 -1.08303 -1.72937 0
M  V30 13 O 3.8706 0.839788 -0.467662 0
M  V30 14 N 3.38749 -1.3044 0.92314 0
M  V30 15 H -3.55822 -0.0793993 1.1406 0
M  V30 16 H -4.21155 -1.49609 0.183649 0
M  V30 17 H -3.64729 0.0324018 -0.631068 0
M  V30 18 H -1.93023 -2.19035 0.0677071 0
M  V30 19 H -2.36978 1.51854 0.0620135 0
M  V30 20 H -0.523476 4.02417 0.723644 0
M  V30 21 H -0.923506 3.91743 -1.00275 0
M  V30 22 H 1.77197 2.30256 -0.352728 0
M  V30 23 H -0.205229 -2.55091 -0.957487 0
M  V30 24 H 0.168379 -2.53095 0.810196 0
M  V30 25 H 1.49461 -2.40946 -0.458843 0
M  V30 26 H 4.02292 -0.769962 1.58465 0
M  V30 27 H 2.51226 -1.47073 1.50168 0
M  V30 END ATOM
M  V30 BEGIN BOND
M  V30 1 1 1 2
M  V30 2 1 2 3
M  V30 3 2 3 4
M  V30 4 1 4 5
M  V30 5 1 5 6
M  V30 6 2 5 7
M  V30 7 1 7 8
M  V30 8 2 8 9
M  V30 9 1 9 10
M  V30 10 1 8 11
M  V30 11 2 11 12
M  V30 12 2 11 13
M  V30 13 1 11 14
M  V30 14 1 9 3
M  V30 15 1 1 15
M  V30 16 1 1 16
M  V30 17 1 1 17
M  V30 18 1 2 18
M  V30 19 1 4 19
M  V30 20 1 6 20
M  V30 21 1 6 21
M  V30 22 1 7 22
M  V30 23 1 10 23
M  V30 24 1 10 24
M  V30 25 1 10 25
M  V30 26 1 14 26
M  V30 27 1 14 27
M  V30 END BOND
M  V30 END CTAB
M  END
