
     RDKit          3D

  0  0  0  0  0  0  0  0  0  0999 V3000
M  V30 BEGIN CTAB
M  V30 COUNTS 50 49 0 0 0
M  V30 BEGIN ATOM
M  V30 1 C 5.17291 1.08864 -2.46959 0
M  V30 2 C 5.50855 0.0461871 -1.45321 0
M  V30 3 C 5.6613 -1.28891 -2.19139 0
M  V30 4 C 6.78301 0.36325 -0.685906 0
M  V30 5 O 4.49637 -0.166278 -0.490558 0
M  V30 6 C 4.09724 0.891565 0.318372 0
M  V30 7 O 4.65086 1.98972 0.159169 0
M  V30 8 C 3.03243 0.63008 1.31961 0 CFG=2
M  V30 9 N 2.58509 -0.736073 1.27318 0
M  V30 10 C 1.86129 1.59762 1.08957 0
M  V30 11 S 0.635253 1.18017 2.36234 0
M  V30 12 S -0.0837669 -0.775625 1.9318 0
M  V30 13 C -1.53723 -0.538362 0.839543 0
M  V30 14 C -2.58862 0.160492 1.70718 0 CFG=1
M  V30 15 N -2.10291 1.4174 2.18522 0
M  V30 16 C -3.89751 0.25994 1.00394 0
M  V30 17 O -4.48954 1.36734 0.875557 0
M  V30 18 O -4.48742 -0.855079 0.479736 0
M  V30 19 C -5.73953 -0.840401 -0.206324 0
M  V30 20 C -6.00509 -2.2884 -0.61493 0
M  V30 21 C -6.7864 -0.478412 0.850761 0
M  V30 22 C -5.75818 0.104088 -1.36274 0
M  V30 23 H 5.42199 0.733478 -3.50065 0
M  V30 24 H 5.68155 2.05667 -2.31913 0
M  V30 25 H 4.07097 1.31689 -2.49731 0
M  V30 26 H 6.38623 -1.94667 -1.69157 0
M  V30 27 H 4.67665 -1.84036 -2.17968 0
M  V30 28 H 5.88098 -1.11942 -3.27048 0
M  V30 29 H 7.09323 1.37965 -0.99562 0
M  V30 30 H 7.5591 -0.410004 -0.886236 0
M  V30 31 H 6.6257 0.344184 0.414944 0
M  V30 32 H 3.47816 0.857804 2.3257 0
M  V30 33 H 3.06409 -1.29559 1.99603 0
M  V30 34 H 2.64146 -1.14849 0.327163 0
M  V30 35 H 1.50827 1.41798 0.0735947 0
M  V30 36 H 2.20025 2.64282 1.16623 0
M  V30 37 H -1.23791 0.121291 0.00697347 0
M  V30 38 H -1.92231 -1.52301 0.517459 0
M  V30 39 H -2.80182 -0.47551 2.61682 0
M  V30 40 H -2.40017 1.58297 3.15123 0
M  V30 41 H -2.26581 2.22172 1.54338 0
M  V30 42 H -6.36365 -2.87651 0.241897 0
M  V30 43 H -6.73993 -2.2771 -1.45674 0
M  V30 44 H -5.06926 -2.76525 -0.991962 0
M  V30 45 H -7.38205 -1.36606 1.14893 0
M  V30 46 H -7.42568 0.329065 0.425382 0
M  V30 47 H -6.31588 -0.0863187 1.77729 0
M  V30 48 H -4.74629 0.155541 -1.80657 0
M  V30 49 H -6.50738 -0.279026 -2.11482 0
M  V30 50 H -6.1186 1.12028 -1.02943 0
M  V30 END ATOM
M  V30 BEGIN BOND
M  V30 1 1 1 2
M  V30 2 1 2 3
M  V30 3 1 2 4
M  V30 4 1 2 5
M  V30 5 1 5 6
M  V30 6 2 6 7
M  V30 7 1 6 8
M  V30 8 1 8 9
M  V30 9 1 8 10
M  V30 10 1 10 11
M  V30 11 1 11 12
M  V30 12 1 12 13
M  V30 13 1 13 14
M  V30 14 1 14 15
M  V30 15 1 14 16
M  V30 16 2 16 17
M  V30 17 1 16 18
M  V30 18 1 18 19
M  V30 19 1 19 20
M  V30 20 1 19 21
M  V30 21 1 19 22
M  V30 22 1 1 23
M  V30 23 1 1 24
M  V30 24 1 1 25
M  V30 25 1 3 26
M  V30 26 1 3 27
M  V30 27 1 3 28
M  V30 28 1 4 29
M  V30 29 1 4 30
M  V30 30 1 4 31
M  V30 31 1 8 32 CFG=1
M  V30 32 1 9 33
M  V30 33 1 9 34
M  V30 34 1 10 35
M  V30 35 1 10 36
M  V30 36 1 13 37
M  V30 37 1 13 38
M  V30 38 1 14 39 CFG=1
M  V30 39 1 15 40
M  V30 40 1 15 41
M  V30 41 1 20 42
M  V30 42 1 20 43
M  V30 43 1 20 44
M  V30 44 1 21 45
M  V30 45 1 21 46
M  V30 46 1 21 47
M  V30 47 1 22 48
M  V30 48 1 22 49
M  V30 49 1 22 50
M  V30 END BOND
M  V30 END CTAB
M  END
