
     RDKit          3D

  0  0  0  0  0  0  0  0  0  0999 V3000
M  V30 BEGIN CTAB
M  V30 COUNTS 26 26 0 0 0
M  V30 BEGIN ATOM
M  V30 1 O -2.72656 2.16212 -0.9519 0
M  V30 2 C -2.8923 0.84979 -0.547254 0
M  V30 3 C -1.76303 0.480626 0.413467 0
M  V30 4 O -1.9123 -0.824516 0.82711 0
M  V30 5 C -1.45823 -1.72543 -0.127302 0
M  V30 6 C 0.0271383 -1.65193 -0.180809 0
M  V30 7 N 0.523833 -0.272064 -0.0964427 0
M  V30 8 C -0.439866 0.781619 -0.213127 0
M  V30 9 C 1.91241 -0.0635588 0.0934189 0
M  V30 10 N 2.50242 0.927934 -0.472815 0
M  V30 11 N 3.85047 1.2095 -0.345202 0
M  V30 12 N 2.67962 -0.939958 0.908746 0
M  V30 13 H -2.93499 2.72957 -0.152934 0
M  V30 14 H -3.82877 0.759558 0.043905 0
M  V30 15 H -2.89189 0.217972 -1.44759 0
M  V30 16 H -1.94201 1.12809 1.32175 0
M  V30 17 H -1.7424 -2.74875 0.19354 0
M  V30 18 H -1.85402 -1.5113 -1.1403 0
M  V30 19 H 0.44586 -2.15732 0.737485 0
M  V30 20 H 0.493053 -2.12385 -1.04482 0
M  V30 21 H -0.0780212 1.75514 0.215759 0
M  V30 22 H -0.59212 0.97959 -1.31049 0
M  V30 23 H 4.17787 1.83538 0.401901 0
M  V30 24 H 4.52423 0.790453 -1.00049 0
M  V30 25 H 2.97244 -1.84786 0.441235 0
M  V30 26 H 2.94716 -0.740792 1.87855 0
M  V30 END ATOM
M  V30 BEGIN BOND
M  V30 1 1 1 2
M  V30 2 1 2 3
M  V30 3 1 3 4
M  V30 4 1 4 5
M  V30 5 1 5 6
M  V30 6 1 6 7
M  V30 7 1 7 8
M  V30 8 1 7 9
M  V30 9 2 9 10 CFG=2
M  V30 10 1 10 11
M  V30 11 1 9 12
M  V30 12 1 8 3
M  V30 13 1 1 13
M  V30 14 1 2 14
M  V30 15 1 2 15
M  V30 16 1 3 16
M  V30 17 1 5 17
M  V30 18 1 5 18
M  V30 19 1 6 19
M  V30 20 1 6 20
M  V30 21 1 8 21
M  V30 22 1 8 22
M  V30 23 1 11 23
M  V30 24 1 11 24
M  V30 25 1 12 25
M  V30 26 1 12 26
M  V30 END BOND
M  V30 END CTAB
M  END
