
     RDKit          3D

  0  0  0  0  0  0  0  0  0  0999 V3000
M  V30 BEGIN CTAB
M  V30 COUNTS 46 48 0 0 0
M  V30 BEGIN ATOM
M  V30 1 O -0.698677 1.33161 -0.643359 0
M  V30 2 C -1.21175 0.295235 -1.12689 0
M  V30 3 C -2.62837 0.303792 -1.60437 0
M  V30 4 C -3.62251 0.684755 -0.569607 0
M  V30 5 C -3.47627 2.03292 0.0350204 0
M  V30 6 C -3.21572 1.88692 1.53833 0
M  V30 7 O -4.33195 1.34433 2.1718 0
M  V30 8 C -4.84428 0.252027 1.47955 0
M  V30 9 C -3.75886 -0.321401 0.556987 0
M  V30 10 N -2.98144 -0.998641 -2.12944 0
M  V30 11 N -0.469928 -0.881398 -1.22721 0
M  V30 12 C 0.861671 -1.15299 -0.857797 0
M  V30 13 C 1.37175 -2.45183 -1.02246 0
M  V30 14 C 2.6477 -2.81105 -0.696354 0
M  V30 15 C 3.48406 -1.83901 -0.174224 0
M  V30 16 C 3.06198 -0.54711 0.0173211 0
M  V30 17 C 1.74557 -0.245236 -0.336647 0
M  V30 18 N 4.13063 0.22566 0.562783 0
M  V30 19 C 5.3485 -0.507896 0.289778 0
M  V30 20 C 4.88672 -1.92899 0.265137 0
M  V30 21 S 4.00417 1.71775 1.37551 0
M  V30 22 O 3.33487 2.72594 0.467646 0
M  V30 23 O 5.35279 2.21659 1.76939 0
M  V30 24 N 3.05825 1.53666 2.80561 0
M  V30 25 H -2.72458 1.01873 -2.44664 0
M  V30 26 H -4.62714 0.658723 -1.089 0
M  V30 27 H -2.72337 2.68928 -0.394812 0
M  V30 28 H -4.44273 2.6197 -0.0120411 0
M  V30 29 H -3.10448 2.92519 1.91924 0
M  V30 30 H -2.29036 1.35853 1.76969 0
M  V30 31 H -5.63969 0.635228 0.805563 0
M  V30 32 H -5.27161 -0.519052 2.12641 0
M  V30 33 H -2.84053 -0.491988 1.1134 0
M  V30 34 H -4.15652 -1.29492 0.181891 0
M  V30 35 H -3.75096 -0.968221 -2.82025 0
M  V30 36 H -3.02699 -1.75406 -1.44129 0
M  V30 37 H -1.00624 -1.7078 -1.65723 0
M  V30 38 H 0.715504 -3.23288 -1.43671 0
M  V30 39 H 3.00052 -3.83712 -0.842834 0
M  V30 40 H 1.45841 0.787401 -0.168422 0
M  V30 41 H 5.73174 -0.152386 -0.69005 0
M  V30 42 H 6.0629 -0.276257 1.10323 0
M  V30 43 H 5.50872 -2.58579 -0.381954 0
M  V30 44 H 4.88455 -2.29741 1.31806 0
M  V30 45 H 2.55169 2.40712 3.04634 0
M  V30 46 H 3.64229 1.14934 3.55877 0
M  V30 END ATOM
M  V30 BEGIN BOND
M  V30 1 2 1 2
M  V30 2 1 2 3
M  V30 3 1 3 4
M  V30 4 1 4 5
M  V30 5 1 5 6
M  V30 6 1 6 7
M  V30 7 1 7 8
M  V30 8 1 8 9
M  V30 9 1 3 10
M  V30 10 1 2 11
M  V30 11 1 11 12
M  V30 12 2 12 13
M  V30 13 1 13 14
M  V30 14 2 14 15
M  V30 15 1 15 16
M  V30 16 2 16 17
M  V30 17 1 16 18
M  V30 18 1 18 19
M  V30 19 1 19 20
M  V30 20 1 18 21
M  V30 21 2 21 22
M  V30 22 2 21 23
M  V30 23 1 21 24
M  V30 24 1 9 4
M  V30 25 1 17 12
M  V30 26 1 20 15
M  V30 27 1 3 25
M  V30 28 1 4 26
M  V30 29 1 5 27
M  V30 30 1 5 28
M  V30 31 1 6 29
M  V30 32 1 6 30
M  V30 33 1 8 31
M  V30 34 1 8 32
M  V30 35 1 9 33
M  V30 36 1 9 34
M  V30 37 1 10 35
M  V30 38 1 10 36
M  V30 39 1 11 37
M  V30 40 1 13 38
M  V30 41 1 14 39
M  V30 42 1 17 40
M  V30 43 1 19 41
M  V30 44 1 19 42
M  V30 45 1 20 43
M  V30 46 1 20 44
M  V30 47 1 24 45
M  V30 48 1 24 46
M  V30 END BOND
M  V30 END CTAB
M  END
