
     RDKit          3D

  0  0  0  0  0  0  0  0  0  0999 V3000
M  V30 BEGIN CTAB
M  V30 COUNTS 30 31 0 0 0
M  V30 BEGIN ATOM
M  V30 1 C -2.32999 1.41328 0.425507 0
M  V30 2 C -2.91361 0.205001 -0.311393 0
M  V30 3 C -4.28164 -0.0836629 0.269267 0
M  V30 4 C -2.05675 -1.01008 -0.0843679 0
M  V30 5 C -0.676898 -0.863938 -0.54841 0
M  V30 6 N 0.269635 -0.385239 0.278047 0
M  V30 7 C 1.55191 -0.230548 -0.0959909 0
M  V30 8 C 1.92674 -0.571165 -1.37238 0
M  V30 9 N 1.00709 -1.04959 -2.21567 0
M  V30 10 C -0.283112 -1.20142 -1.82777 0
M  V30 11 N 3.2197 -0.400991 -1.70658 0
M  V30 12 C 4.11355 0.0904438 -0.806995 0
M  V30 13 N 5.47259 0.258038 -1.19237 0
M  V30 14 N 3.71613 0.417869 0.444324 0
M  V30 15 C 2.43205 0.269808 0.839586 0
M  V30 16 N 2.05092 0.619923 2.14881 0
M  V30 17 H -3.00325 2.27268 0.308646 0
M  V30 18 H -2.21742 1.20765 1.51092 0
M  V30 19 H -1.31826 1.64982 0.0370779 0
M  V30 20 H -2.96677 0.486969 -1.38286 0
M  V30 21 H -4.23437 0.108746 1.36233 0
M  V30 22 H -5.08301 0.49754 -0.224357 0
M  V30 23 H -4.49651 -1.17942 0.107785 0
M  V30 24 H -2.58877 -1.87522 -0.529662 0
M  V30 25 H -2.0465 -1.19943 1.01594 0
M  V30 26 H -1.0444 -1.58696 -2.49406 0
M  V30 27 H 5.70589 0.468301 -2.1913 0
M  V30 28 H 6.25057 0.18259 -0.532178 0
M  V30 29 H 1.69439 1.56479 2.35434 0
M  V30 30 H 2.13013 -0.0757874 2.90515 0
M  V30 END ATOM
M  V30 BEGIN BOND
M  V30 1 1 1 2
M  V30 2 1 2 3
M  V30 3 1 2 4
M  V30 4 1 4 5
M  V30 5 2 5 6
M  V30 6 1 6 7
M  V30 7 2 7 8
M  V30 8 1 8 9
M  V30 9 2 9 10
M  V30 10 1 8 11
M  V30 11 2 11 12
M  V30 12 1 12 13
M  V30 13 1 12 14
M  V30 14 2 14 15
M  V30 15 1 15 16
M  V30 16 1 10 5
M  V30 17 1 15 7
M  V30 18 1 1 17
M  V30 19 1 1 18
M  V30 20 1 1 19
M  V30 21 1 2 20
M  V30 22 1 3 21
M  V30 23 1 3 22
M  V30 24 1 3 23
M  V30 25 1 4 24
M  V30 26 1 4 25
M  V30 27 1 10 26
M  V30 28 1 13 27
M  V30 29 1 13 28
M  V30 30 1 16 29
M  V30 31 1 16 30
M  V30 END BOND
M  V30 END CTAB
M  END
