
     RDKit          3D

  0  0  0  0  0  0  0  0  0  0999 V3000
M  V30 BEGIN CTAB
M  V30 COUNTS 35 38 0 0 0
M  V30 BEGIN ATOM
M  V30 1 N 6.08282 -0.130137 0.0961188 0
M  V30 2 C 4.67 -0.0868302 0.262458 0
M  V30 3 C 4.07073 0.848622 1.07601 0
M  V30 4 C 2.70053 0.859987 1.21239 0
M  V30 5 C 1.91526 -0.0498041 0.54813 0
M  V30 6 C 2.51071 -0.979122 -0.259902 0
M  V30 7 C 3.87835 -1.01381 -0.415038 0
M  V30 8 C 0.433026 -0.0852721 0.73726 0
M  V30 9 C -0.00455981 -0.458694 1.99614 0
M  V30 10 S -1.69579 -0.461727 1.82862 0
M  V30 11 C -1.81674 0.00312725 0.196533 0
M  V30 12 C -2.91164 0.217854 -0.625005 0
M  V30 13 C -2.72171 0.613293 -1.92936 0
M  V30 14 N -1.43345 0.764831 -2.31209 0
M  V30 15 C -0.368519 0.559769 -1.52668 0
M  V30 16 N 0.908539 0.811771 -2.13517 0
M  V30 17 C -0.504689 0.153756 -0.189373 0
M  V30 18 C -4.26464 0.00330416 -0.0390027 0
M  V30 19 C -5.24889 0.924691 -0.264878 0
M  V30 20 S -6.59315 0.293609 0.567015 0
M  V30 21 C -5.88383 -1.12503 1.18527 0
M  V30 22 C -4.59714 -1.07118 0.721106 0
M  V30 23 H 6.53829 -1.06658 0.0852451 0
M  V30 24 H 6.68819 0.708967 -0.0149001 0
M  V30 25 H 4.67425 1.58139 1.61371 0
M  V30 26 H 2.21659 1.60487 1.86084 0
M  V30 27 H 1.92263 -1.70974 -0.792787 0
M  V30 28 H 4.37325 -1.73896 -1.0485 0
M  V30 29 H 0.60757 -0.694637 2.8862 0
M  V30 30 H -3.56619 0.774486 -2.54989 0
M  V30 31 H 1.29508 0.234977 -2.91266 0
M  V30 32 H 1.49612 1.60499 -1.79983 0
M  V30 33 H -5.15968 1.8611 -0.85997 0
M  V30 34 H -6.32518 -1.92673 1.8172 0
M  V30 35 H -3.88612 -1.90324 0.984798 0
M  V30 END ATOM
M  V30 BEGIN BOND
M  V30 1 1 1 2
M  V30 2 2 2 3
M  V30 3 1 3 4
M  V30 4 2 4 5
M  V30 5 1 5 6
M  V30 6 2 6 7
M  V30 7 1 5 8
M  V30 8 2 8 9
M  V30 9 1 9 10
M  V30 10 1 10 11
M  V30 11 2 11 12
M  V30 12 1 12 13
M  V30 13 2 13 14
M  V30 14 1 14 15
M  V30 15 1 15 16
M  V30 16 2 15 17
M  V30 17 1 12 18
M  V30 18 2 18 19
M  V30 19 1 19 20
M  V30 20 1 20 21
M  V30 21 2 21 22
M  V30 22 1 7 2
M  V30 23 1 17 8
M  V30 24 1 22 18
M  V30 25 1 17 11
M  V30 26 1 1 23
M  V30 27 1 1 24
M  V30 28 1 3 25
M  V30 29 1 4 26
M  V30 30 1 6 27
M  V30 31 1 7 28
M  V30 32 1 9 29
M  V30 33 1 13 30
M  V30 34 1 16 31
M  V30 35 1 16 32
M  V30 36 1 19 33
M  V30 37 1 21 34
M  V30 38 1 22 35
M  V30 END BOND
M  V30 END CTAB
M  END
