
     RDKit          3D

  0  0  0  0  0  0  0  0  0  0999 V3000
M  V30 BEGIN CTAB
M  V30 COUNTS 30 30 0 0 0
M  V30 BEGIN ATOM
M  V30 1 N -2.49137 -2.33362 -0.0859341 0
M  V30 2 C -2.52919 -0.951896 0.390513 0
M  V30 3 C -1.32366 -0.184188 -0.173488 0
M  V30 4 C -1.43287 1.20215 0.352668 0
M  V30 5 C -0.643847 2.20615 -0.456541 0
M  V30 6 C 0.828406 1.93366 -0.130173 0
M  V30 7 C 1.21282 0.716739 -0.906577 0
M  V30 8 N 1.12494 -0.50818 -0.22517 0
M  V30 9 C -0.116462 -0.929694 0.255326 0
M  V30 10 S 2.46559 -0.863824 0.791941 0
M  V30 11 O 2.66025 0.270886 1.75091 0
M  V30 12 O 2.25186 -2.12153 1.57564 0
M  V30 13 N 3.89275 -0.962728 -0.17703 0
M  V30 14 H -3.21539 -2.85147 0.487571 0
M  V30 15 H -2.78824 -2.36927 -1.07932 0
M  V30 16 H -2.33606 -1.00929 1.49499 0
M  V30 17 H -3.47692 -0.450129 0.160241 0
M  V30 18 H -1.43948 -0.228903 -1.27669 0
M  V30 19 H -1.0513 1.25567 1.38841 0
M  V30 20 H -2.4981 1.51183 0.361029 0
M  V30 21 H -0.939315 3.22324 -0.209666 0
M  V30 22 H -0.777072 2.01546 -1.53073 0
M  V30 23 H 0.859062 1.75705 0.961998 0
M  V30 24 H 1.42442 2.83921 -0.419239 0
M  V30 25 H 0.609836 0.673979 -1.84796 0
M  V30 26 H 2.267 0.862492 -1.25058 0
M  V30 27 H -0.270442 -2.01129 -0.0298506 0
M  V30 28 H -0.085001 -0.956123 1.38151 0
M  V30 29 H 3.8144 -1.69261 -0.90311 0
M  V30 30 H 4.00338 -0.0437776 -0.650692 0
M  V30 END ATOM
M  V30 BEGIN BOND
M  V30 1 1 1 2
M  V30 2 1 2 3
M  V30 3 1 3 4
M  V30 4 1 4 5
M  V30 5 1 5 6
M  V30 6 1 6 7
M  V30 7 1 7 8
M  V30 8 1 8 9
M  V30 9 1 8 10
M  V30 10 2 10 11
M  V30 11 2 10 12
M  V30 12 1 10 13
M  V30 13 1 9 3
M  V30 14 1 1 14
M  V30 15 1 1 15
M  V30 16 1 2 16
M  V30 17 1 2 17
M  V30 18 1 3 18
M  V30 19 1 4 19
M  V30 20 1 4 20
M  V30 21 1 5 21
M  V30 22 1 5 22
M  V30 23 1 6 23
M  V30 24 1 6 24
M  V30 25 1 7 25
M  V30 26 1 7 26
M  V30 27 1 9 27
M  V30 28 1 9 28
M  V30 29 1 13 29
M  V30 30 1 13 30
M  V30 END BOND
M  V30 END CTAB
M  END
