
     RDKit          3D

  0  0  0  0  0  0  0  0  0  0999 V3000
M  V30 BEGIN CTAB
M  V30 COUNTS 20 20 0 0 0
M  V30 BEGIN ATOM
M  V30 1 C 3.52731 -0.175164 0.126768 0
M  V30 2 O 2.41402 0.64738 0.258998 0
M  V30 3 C 1.10551 0.262242 0.0755609 0
M  V30 4 C 0.102606 1.19503 0.242728 0
M  V30 5 C -1.23319 0.894195 0.0785898 0
M  V30 6 N -2.26762 1.84275 0.247614 0
M  V30 7 C -1.53526 -0.424347 -0.271948 0
M  V30 8 C -0.530624 -1.37328 -0.443042 0
M  V30 9 C 0.792434 -1.03464 -0.270279 0
M  V30 10 Br -0.997937 -3.1562 -0.920903 0
M  V30 11 N -2.90322 -0.737772 -0.441403 0
M  V30 12 H 3.46943 -0.933148 -0.653538 0
M  V30 13 H 4.40711 0.484152 -0.125275 0
M  V30 14 H 3.82049 -0.694827 1.07837 0
M  V30 15 H 0.330333 2.23595 0.518761 0
M  V30 16 H -2.17355 2.57422 0.974349 0
M  V30 17 H -3.12598 1.82789 -0.339873 0
M  V30 18 H 1.60926 -1.72761 -0.389671 0
M  V30 19 H -3.32977 -0.703767 -1.37597 0
M  V30 20 H -3.48137 -1.00305 0.375972 0
M  V30 END ATOM
M  V30 BEGIN BOND
M  V30 1 1 1 2
M  V30 2 1 2 3
M  V30 3 2 3 4
M  V30 4 1 4 5
M  V30 5 1 5 6
M  V30 6 2 5 7
M  V30 7 1 7 8
M  V30 8 2 8 9
M  V30 9 1 8 10
M  V30 10 1 7 11
M  V30 11 1 9 3
M  V30 12 1 1 12
M  V30 13 1 1 13
M  V30 14 1 1 14
M  V30 15 1 4 15
M  V30 16 1 6 16
M  V30 17 1 6 17
M  V30 18 1 9 18
M  V30 19 1 11 19
M  V30 20 1 11 20
M  V30 END BOND
M  V30 END CTAB
M  END
