
     RDKit          3D

  0  0  0  0  0  0  0  0  0  0999 V3000
M  V30 BEGIN CTAB
M  V30 COUNTS 48 47 0 0 0
M  V30 BEGIN ATOM
M  V30 1 C 6.40941 0.457115 -0.295357 0
M  V30 2 C 6.16082 -1.01349 -0.206613 0
M  V30 3 C 5.00142 -1.47703 0.557576 0
M  V30 4 C 3.63824 -1.14626 0.0815185 0
M  V30 5 C 3.326 0.296539 -0.017994 0
M  V30 6 C 1.85995 0.508875 -0.465262 0
M  V30 7 C 0.952696 -0.105887 0.548903 0
M  V30 8 C -0.529925 0.0967591 0.200878 0
M  V30 9 C -0.89452 1.52945 0.12588 0
M  V30 10 C -2.28943 1.83696 -0.203028 0
M  V30 11 C -3.41863 1.45843 0.631336 0
M  V30 12 C -3.77816 0.0786648 0.939606 0
M  V30 13 C -4.09089 -0.850995 -0.195723 0
M  V30 14 N -4.3913 -2.16927 0.441056 0
M  V30 15 C -5.3187 -0.53844 -0.982792 0
M  V30 16 N -5.37877 0.708042 -1.64748 0
M  V30 17 H 6.21372 0.863658 -1.29146 0
M  V30 18 H 5.85251 1.04736 0.460291 0
M  V30 19 H 7.5186 0.59632 -0.116145 0
M  V30 20 H 6.12903 -1.46437 -1.26266 0
M  V30 21 H 7.0784 -1.54798 0.225648 0
M  V30 22 H 5.01911 -2.62351 0.683966 0
M  V30 23 H 5.11394 -1.10901 1.63363 0
M  V30 24 H 3.44028 -1.59152 -0.933127 0
M  V30 25 H 2.87678 -1.62507 0.779264 0
M  V30 26 H 3.95063 0.785005 -0.833895 0
M  V30 27 H 3.4578 0.793256 0.961677 0
M  V30 28 H 1.69284 1.60406 -0.564056 0
M  V30 29 H 1.80271 0.0236977 -1.45867 0
M  V30 30 H 1.05953 -1.23328 0.460879 0
M  V30 31 H 1.17314 0.258833 1.56021 0
M  V30 32 H -1.13184 -0.566864 0.800807 0
M  V30 33 H -0.59948 -0.30933 -0.855616 0
M  V30 34 H -0.262146 1.95113 -0.732036 0
M  V30 35 H -0.491563 2.12453 0.993892 0
M  V30 36 H -2.39682 2.96882 -0.385543 0
M  V30 37 H -2.47683 1.46152 -1.2753 0
M  V30 38 H -4.33612 1.98476 0.210283 0
M  V30 39 H -3.32038 2.06534 1.62658 0
M  V30 40 H -3.17985 -0.474229 1.68592 0
M  V30 41 H -4.79208 0.172327 1.52358 0
M  V30 42 H -3.22075 -1.0579 -0.838538 0
M  V30 43 H -4.97104 -1.9218 1.27422 0
M  V30 44 H -4.95032 -2.75421 -0.201887 0
M  V30 45 H -5.46398 -1.37762 -1.72907 0
M  V30 46 H -6.25399 -0.62408 -0.34885 0
M  V30 47 H -6.12936 1.34657 -1.24979 0
M  V30 48 H -5.6607 0.564147 -2.64171 0
M  V30 END ATOM
M  V30 BEGIN BOND
M  V30 1 1 1 2
M  V30 2 1 2 3
M  V30 3 1 3 4
M  V30 4 1 4 5
M  V30 5 1 5 6
M  V30 6 1 6 7
M  V30 7 1 7 8
M  V30 8 1 8 9
M  V30 9 1 9 10
M  V30 10 1 10 11
M  V30 11 1 11 12
M  V30 12 1 12 13
M  V30 13 1 13 14
M  V30 14 1 13 15
M  V30 15 1 15 16
M  V30 16 1 1 17
M  V30 17 1 1 18
M  V30 18 1 1 19
M  V30 19 1 2 20
M  V30 20 1 2 21
M  V30 21 1 3 22
M  V30 22 1 3 23
M  V30 23 1 4 24
M  V30 24 1 4 25
M  V30 25 1 5 26
M  V30 26 1 5 27
M  V30 27 1 6 28
M  V30 28 1 6 29
M  V30 29 1 7 30
M  V30 30 1 7 31
M  V30 31 1 8 32
M  V30 32 1 8 33
M  V30 33 1 9 34
M  V30 34 1 9 35
M  V30 35 1 10 36
M  V30 36 1 10 37
M  V30 37 1 11 38
M  V30 38 1 11 39
M  V30 39 1 12 40
M  V30 40 1 12 41
M  V30 41 1 13 42
M  V30 42 1 14 43
M  V30 43 1 14 44
M  V30 44 1 15 45
M  V30 45 1 15 46
M  V30 46 1 16 47
M  V30 47 1 16 48
M  V30 END BOND
M  V30 END CTAB
M  END
