
     RDKit          3D

  0  0  0  0  0  0  0  0  0  0999 V3000
M  V30 BEGIN CTAB
M  V30 COUNTS 32 33 0 0 0
M  V30 BEGIN ATOM
M  V30 1 C 5.46248 -0.313787 -0.0849565 0
M  V30 2 C 4.37291 0.715501 0.0206235 0
M  V30 3 C 3.16156 0.195432 0.708873 0
M  V30 4 N 2.85302 0.21133 2.01842 0
M  V30 5 N 1.66767 -0.366402 2.16668 0
M  V30 6 C 1.19032 -0.762482 0.977136 0
M  V30 7 N 2.1364 -0.40324 0.0799659 0
M  V30 8 N 2.05557 -0.624232 -1.29906 0
M  V30 9 S -0.33516 -1.5847 0.570878 0
M  V30 10 C -1.6386 -0.383805 0.241257 0
M  V30 11 C -1.40241 0.96578 0.315706 0
M  V30 12 C -2.39334 1.89153 0.0654446 0
M  V30 13 C -3.6376 1.39001 -0.264465 0
M  V30 14 C -3.91867 0.0511142 -0.350557 0
M  V30 15 C -2.88517 -0.850553 -0.0889506 0
M  V30 16 C -3.15669 -2.29055 -0.173378 0
M  V30 17 O -2.2141 -3.08333 0.0671698 0
M  V30 18 O -4.42527 -2.73108 -0.510818 0
M  V30 19 N -4.71307 2.2941 -0.53673 0
M  V30 20 H 5.54652 -0.745704 -1.11894 0
M  V30 21 H 6.4344 0.22068 0.0779804 0
M  V30 22 H 5.36969 -1.08757 0.689467 0
M  V30 23 H 4.68917 1.63013 0.558262 0
M  V30 24 H 4.12685 1.04083 -1.02267 0
M  V30 25 H 1.68166 0.06205 -1.97943 0
M  V30 26 H 2.3901 -1.54258 -1.70593 0
M  V30 27 H -0.427689 1.31804 0.573679 0
M  V30 28 H -2.23232 2.95726 0.117589 0
M  V30 29 H -4.9101 -0.331574 -0.613333 0
M  V30 30 H -4.6311 -3.0924 -1.43432 0
M  V30 31 H -5.25395 2.78556 0.191249 0
M  V30 32 H -4.96309 2.46465 -1.53411 0
M  V30 END ATOM
M  V30 BEGIN BOND
M  V30 1 1 1 2
M  V30 2 1 2 3
M  V30 3 2 3 4
M  V30 4 1 4 5
M  V30 5 2 5 6
M  V30 6 1 6 7
M  V30 7 1 7 8
M  V30 8 1 6 9
M  V30 9 1 9 10
M  V30 10 2 10 11
M  V30 11 1 11 12
M  V30 12 2 12 13
M  V30 13 1 13 14
M  V30 14 2 14 15
M  V30 15 1 15 16
M  V30 16 2 16 17
M  V30 17 1 16 18
M  V30 18 1 13 19
M  V30 19 1 7 3
M  V30 20 1 15 10
M  V30 21 1 1 20
M  V30 22 1 1 21
M  V30 23 1 1 22
M  V30 24 1 2 23
M  V30 25 1 2 24
M  V30 26 1 8 25
M  V30 27 1 8 26
M  V30 28 1 11 27
M  V30 29 1 12 28
M  V30 30 1 14 29
M  V30 31 1 18 30
M  V30 32 1 19 31
M  V30 33 1 19 32
M  V30 END BOND
M  V30 END CTAB
M  END
