
     RDKit          3D

  0  0  0  0  0  0  0  0  0  0999 V3000
M  V30 BEGIN CTAB
M  V30 COUNTS 28 28 0 0 0
M  V30 BEGIN ATOM
M  V30 1 N -0.887677 2.69143 -0.359276 0
M  V30 2 N 0.0826772 1.99438 0.300671 0
M  V30 3 C 0.480175 0.757005 -0.310568 0
M  V30 4 C 1.55213 0.109111 0.474485 0
M  V30 5 C 2.18802 0.603722 1.58675 0
M  V30 6 N 3.09503 -0.30915 1.96733 0
M  V30 7 N 3.07349 -1.35741 1.16101 0
M  V30 8 C 2.12527 -1.11387 0.233479 0
M  V30 9 N 1.81357 -2.03616 -0.818338 0
M  V30 10 C -0.627019 -0.138628 -0.684936 0
M  V30 11 C -1.62538 -0.544748 0.05221 0
M  V30 12 C -1.76654 -0.117421 1.45493 0
M  V30 13 C -2.65016 -1.45019 -0.500291 0
M  V30 14 H -0.531729 3.2891 -1.15116 0
M  V30 15 H -1.41193 3.29365 0.319005 0
M  V30 16 H 0.12799 2.05314 1.31268 0
M  V30 17 H 0.991513 1.07029 -1.27201 0
M  V30 18 H 1.96617 1.55671 2.03716 0
M  V30 19 H 3.72641 -0.175181 2.80561 0
M  V30 20 H 1.8057 -1.6591 -1.80574 0
M  V30 21 H 1.60236 -3.03276 -0.639019 0
M  V30 22 H -0.615149 -0.523382 -1.72776 0
M  V30 23 H -0.838531 -0.0181339 2.01725 0
M  V30 24 H -2.38844 0.827018 1.50087 0
M  V30 25 H -2.42211 -0.845004 2.03178 0
M  V30 26 H -3.38838 -1.77708 0.26021 0
M  V30 27 H -3.25217 -0.832051 -1.2304 0
M  V30 28 H -2.22529 -2.31529 -1.04339 0
M  V30 END ATOM
M  V30 BEGIN BOND
M  V30 1 1 1 2
M  V30 2 1 2 3
M  V30 3 1 3 4
M  V30 4 2 4 5
M  V30 5 1 5 6
M  V30 6 1 6 7
M  V30 7 2 7 8
M  V30 8 1 8 9
M  V30 9 1 3 10
M  V30 10 2 10 11 CFG=2
M  V30 11 1 11 12
M  V30 12 1 11 13
M  V30 13 1 8 4
M  V30 14 1 1 14
M  V30 15 1 1 15
M  V30 16 1 2 16
M  V30 17 1 3 17
M  V30 18 1 5 18
M  V30 19 1 6 19
M  V30 20 1 9 20
M  V30 21 1 9 21
M  V30 22 1 10 22
M  V30 23 1 12 23
M  V30 24 1 12 24
M  V30 25 1 12 25
M  V30 26 1 13 26
M  V30 27 1 13 27
M  V30 28 1 13 28
M  V30 END BOND
M  V30 END CTAB
M  END
