
     RDKit          3D

  0  0  0  0  0  0  0  0  0  0999 V3000
M  V30 BEGIN CTAB
M  V30 COUNTS 21 20 0 0 0
M  V30 BEGIN ATOM
M  V30 1 C -1.08807 1.73986 0.578181 0
M  V30 2 C -0.649301 1.1678 -0.730164 0
M  V30 3 C 0.308166 0.0130518 -0.601048 0
M  V30 4 S -0.402018 -1.33798 0.304496 0
M  V30 5 O -0.67805 -0.952208 1.73233 0
M  V30 6 O 0.527933 -2.51311 0.266889 0
M  V30 7 N -1.88649 -1.75574 -0.491073 0
M  V30 8 C 1.62273 0.403454 0.0255947 0
M  V30 9 N 2.44064 -0.788282 0.0888708 0
M  V30 10 H -0.248608 1.88385 1.2582 0
M  V30 11 H -1.63188 2.69604 0.348598 0
M  V30 12 H -1.88168 1.08019 1.0294 0
M  V30 13 H -0.228427 1.96 -1.36614 0
M  V30 14 H -1.56418 0.773275 -1.24023 0
M  V30 15 H 0.476945 -0.368422 -1.64452 0
M  V30 16 H -1.97036 -2.79313 -0.502187 0
M  V30 17 H -2.65835 -1.30189 0.0389428 0
M  V30 18 H 1.42091 0.731087 1.06996 0
M  V30 19 H 2.14086 1.19739 -0.516162 0
M  V30 20 H 3.14261 -0.842958 -0.675869 0
M  V30 21 H 2.80663 -0.99229 1.02594 0
M  V30 END ATOM
M  V30 BEGIN BOND
M  V30 1 1 1 2
M  V30 2 1 2 3
M  V30 3 1 3 4
M  V30 4 2 4 5
M  V30 5 2 4 6
M  V30 6 1 4 7
M  V30 7 1 3 8
M  V30 8 1 8 9
M  V30 9 1 1 10
M  V30 10 1 1 11
M  V30 11 1 1 12
M  V30 12 1 2 13
M  V30 13 1 2 14
M  V30 14 1 3 15
M  V30 15 1 7 16
M  V30 16 1 7 17
M  V30 17 1 8 18
M  V30 18 1 8 19
M  V30 19 1 9 20
M  V30 20 1 9 21
M  V30 END BOND
M  V30 END CTAB
M  END
