
     RDKit          3D

  0  0  0  0  0  0  0  0  0  0999 V3000
M  V30 BEGIN CTAB
M  V30 COUNTS 26 27 0 0 0
M  V30 BEGIN ATOM
M  V30 1 O -3.81984 -0.771086 0.821536 0
M  V30 2 C -2.6378 -0.134831 1.19224 0
M  V30 3 C -1.98861 0.376957 -0.0878245 0
M  V30 4 C -1.83882 -0.754366 -1.03697 0
M  V30 5 N -0.498476 -0.944861 -1.53688 0
M  V30 6 C 0.670967 -0.487289 -0.884685 0
M  V30 7 C 0.525574 0.525475 0.044599 0
M  V30 8 N -0.773919 1.0323 0.278869 0
M  V30 9 C 1.65908 0.972057 0.679689 0
M  V30 10 N 1.51541 2.01527 1.6381 0
M  V30 11 N 2.85576 0.428908 0.391776 0
M  V30 12 C 3.01126 -0.557693 -0.510894 0
M  V30 13 N 1.89437 -0.988856 -1.12829 0
M  V30 14 N 4.29373 -1.12015 -0.800918 0
M  V30 15 H -3.98732 -0.732158 -0.149826 0
M  V30 16 H -2.8299 0.708424 1.88706 0
M  V30 17 H -1.98751 -0.92134 1.65486 0
M  V30 18 H -2.67398 1.13012 -0.524738 0
M  V30 19 H -2.14162 -1.72598 -0.564356 0
M  V30 20 H -2.51067 -0.632417 -1.92114 0
M  V30 21 H -0.366719 -1.45619 -2.44533 0
M  V30 22 H -0.843023 1.95879 0.757901 0
M  V30 23 H 1.668 1.75888 2.63528 0
M  V30 24 H 1.27086 2.98852 1.37056 0
M  V30 25 H 4.71167 -1.09769 -1.74101 0
M  V30 26 H 4.82152 -1.57079 -0.0195973 0
M  V30 END ATOM
M  V30 BEGIN BOND
M  V30 1 1 1 2
M  V30 2 1 2 3
M  V30 3 1 3 4
M  V30 4 1 4 5
M  V30 5 1 5 6
M  V30 6 2 6 7
M  V30 7 1 7 8
M  V30 8 1 7 9
M  V30 9 1 9 10
M  V30 10 2 9 11
M  V30 11 1 11 12
M  V30 12 2 12 13
M  V30 13 1 12 14
M  V30 14 1 8 3
M  V30 15 1 13 6
M  V30 16 1 1 15
M  V30 17 1 2 16
M  V30 18 1 2 17
M  V30 19 1 3 18
M  V30 20 1 4 19
M  V30 21 1 4 20
M  V30 22 1 5 21
M  V30 23 1 8 22
M  V30 24 1 10 23
M  V30 25 1 10 24
M  V30 26 1 14 25
M  V30 27 1 14 26
M  V30 END BOND
M  V30 END CTAB
M  END
