
     RDKit          3D

  0  0  0  0  0  0  0  0  0  0999 V3000
M  V30 BEGIN CTAB
M  V30 COUNTS 33 34 0 0 0
M  V30 BEGIN ATOM
M  V30 1 C 6.44944 1.35324 -0.307347 0
M  V30 2 O 5.1527 0.80017 -0.446464 0
M  V30 3 C 4.39489 0.416995 0.647627 0
M  V30 4 O 4.89359 0.574056 1.79177 0
M  V30 5 C 3.04538 -0.157723 0.48587 0
M  V30 6 C 2.52693 -0.317011 -0.78069 0
M  V30 7 C 1.26983 -0.850616 -0.96704 0
M  V30 8 C 0.554124 -1.21702 0.152363 0
M  V30 9 O -0.708891 -1.75265 -0.044293 0
M  V30 10 C -1.82694 -0.901209 -0.0857188 0
M  V30 11 C -1.72223 0.460627 0.0624912 0
M  V30 12 C -2.86045 1.24467 0.012035 0
M  V30 13 C -4.1194 0.707393 -0.184389 0
M  V30 14 N -5.27434 1.54281 -0.231584 0
M  V30 15 C -4.22137 -0.665303 -0.333375 0
M  V30 16 N -5.49272 -1.2727 -0.538231 0
M  V30 17 C -3.08197 -1.43985 -0.281836 0
M  V30 18 C 1.08275 -1.05305 1.41334 0
M  V30 19 C 2.34662 -0.517401 1.61694 0
M  V30 20 H 6.85273 0.963333 0.664867 0
M  V30 21 H 6.4728 2.44053 -0.365226 0
M  V30 22 H 7.13459 0.951739 -1.10463 0
M  V30 23 H 3.1056 -0.0225359 -1.65097 0
M  V30 24 H 0.844056 -0.983633 -1.96405 0
M  V30 25 H -0.737538 0.894342 0.217475 0
M  V30 26 H -2.78527 2.3322 0.129443 0
M  V30 27 H -5.799 1.86399 0.588657 0
M  V30 28 H -5.62047 1.85745 -1.17302 0
M  V30 29 H -5.97751 -1.15958 -1.45592 0
M  V30 30 H -5.97788 -1.83421 0.186593 0
M  V30 31 H -3.19314 -2.52619 -0.403191 0
M  V30 32 H 0.521458 -1.33975 2.27836 0
M  V30 33 H 2.75163 -0.393113 2.60937 0
M  V30 END ATOM
M  V30 BEGIN BOND
M  V30 1 1 1 2
M  V30 2 1 2 3
M  V30 3 2 3 4
M  V30 4 1 3 5
M  V30 5 2 5 6
M  V30 6 1 6 7
M  V30 7 2 7 8
M  V30 8 1 8 9
M  V30 9 1 9 10
M  V30 10 2 10 11
M  V30 11 1 11 12
M  V30 12 2 12 13
M  V30 13 1 13 14
M  V30 14 1 13 15
M  V30 15 1 15 16
M  V30 16 2 15 17
M  V30 17 1 8 18
M  V30 18 2 18 19
M  V30 19 1 19 5
M  V30 20 1 17 10
M  V30 21 1 1 20
M  V30 22 1 1 21
M  V30 23 1 1 22
M  V30 24 1 6 23
M  V30 25 1 7 24
M  V30 26 1 11 25
M  V30 27 1 12 26
M  V30 28 1 14 27
M  V30 29 1 14 28
M  V30 30 1 16 29
M  V30 31 1 16 30
M  V30 32 1 17 31
M  V30 33 1 18 32
M  V30 34 1 19 33
M  V30 END BOND
M  V30 END CTAB
M  END
