
     RDKit          3D

  0  0  0  0  0  0  0  0  0  0999 V3000
M  V30 BEGIN CTAB
M  V30 COUNTS 45 46 0 0 0
M  V30 BEGIN ATOM
M  V30 1 C -1.74162 -3.44243 -1.09377 0
M  V30 2 O -2.18221 -2.25776 -0.46573 0
M  V30 3 C -1.24293 -1.48091 0.180264 0
M  V30 4 C 0.111513 -1.79817 0.247586 0
M  V30 5 C 1.01746 -1.00725 0.895951 0
M  V30 6 C 2.44623 -1.34927 0.94678 0
M  V30 7 C 3.31945 -0.549875 0.0833633 0
M  V30 8 C 3.40811 -0.766252 -1.26375 0
M  V30 9 N 2.66977 -1.78863 -1.91329 0
M  V30 10 N 4.23558 0.0115038 -2.03306 0
M  V30 11 C 4.98461 1.00075 -1.52402 0
M  V30 12 N 5.84359 1.80488 -2.3303 0
M  V30 13 N 4.90055 1.21668 -0.200227 0
M  V30 14 C 4.10987 0.490377 0.605157 0
M  V30 15 C 0.60241 0.14342 1.50946 0
M  V30 16 C -0.728338 0.474791 1.45531 0
M  V30 17 O -1.19547 1.62834 2.06103 0
M  V30 18 C -0.27998 2.45283 2.73247 0
M  V30 19 C -1.66588 -0.324797 0.795129 0
M  V30 20 O -2.99683 0.014176 0.745029 0
M  V30 21 C -3.567 0.805762 -0.278946 0
M  V30 22 C -5.0641 0.977186 -0.0145188 0
M  V30 23 C -5.69027 1.82692 -1.11061 0
M  V30 24 Cl -4.9234 3.42228 -1.14492 0
M  V30 25 H -2.66076 -4.04062 -1.31659 0
M  V30 26 H -1.18886 -3.19692 -2.02678 0
M  V30 27 H -1.08261 -4.06824 -0.479829 0
M  V30 28 H 0.404554 -2.72795 -0.242108 0
M  V30 29 H 2.82243 -1.33136 2.01811 0
M  V30 30 H 2.52268 -2.45235 0.702866 0
M  V30 31 H 2.23012 -1.5789 -2.83459 0
M  V30 32 H 2.55306 -2.72151 -1.51288 0
M  V30 33 H 6.89284 1.77911 -2.22119 0
M  V30 34 H 5.49258 2.45619 -3.06388 0
M  V30 35 H 4.02784 0.645278 1.66402 0
M  V30 36 H 1.28056 0.812112 2.04214 0
M  V30 37 H 0.546331 2.76608 2.05594 0
M  V30 38 H -0.793425 3.36698 3.08722 0
M  V30 39 H 0.210841 1.92319 3.59107 0
M  V30 40 H -3.38332 0.33255 -1.24523 0
M  V30 41 H -3.12508 1.82012 -0.271984 0
M  V30 42 H -5.58903 -0.00152663 -0.0175104 0
M  V30 43 H -5.23987 1.44929 0.956783 0
M  V30 44 H -5.53088 1.29449 -2.0789 0
M  V30 45 H -6.76112 1.96943 -0.955477 0
M  V30 END ATOM
M  V30 BEGIN BOND
M  V30 1 1 1 2
M  V30 2 1 2 3
M  V30 3 2 3 4
M  V30 4 1 4 5
M  V30 5 1 5 6
M  V30 6 1 6 7
M  V30 7 2 7 8
M  V30 8 1 8 9
M  V30 9 1 8 10
M  V30 10 2 10 11
M  V30 11 1 11 12
M  V30 12 1 11 13
M  V30 13 2 13 14
M  V30 14 2 5 15
M  V30 15 1 15 16
M  V30 16 1 16 17
M  V30 17 1 17 18
M  V30 18 2 16 19
M  V30 19 1 19 20
M  V30 20 1 20 21
M  V30 21 1 21 22
M  V30 22 1 22 23
M  V30 23 1 23 24
M  V30 24 1 19 3
M  V30 25 1 14 7
M  V30 26 1 1 25
M  V30 27 1 1 26
M  V30 28 1 1 27
M  V30 29 1 4 28
M  V30 30 1 6 29
M  V30 31 1 6 30
M  V30 32 1 9 31
M  V30 33 1 9 32
M  V30 34 1 12 33
M  V30 35 1 12 34
M  V30 36 1 14 35
M  V30 37 1 15 36
M  V30 38 1 18 37
M  V30 39 1 18 38
M  V30 40 1 18 39
M  V30 41 1 21 40
M  V30 42 1 21 41
M  V30 43 1 22 42
M  V30 44 1 22 43
M  V30 45 1 23 44
M  V30 46 1 23 45
M  V30 END BOND
M  V30 END CTAB
M  END
