
     RDKit          3D

  0  0  0  0  0  0  0  0  0  0999 V3000
M  V30 BEGIN CTAB
M  V30 COUNTS 30 30 0 0 0
M  V30 BEGIN ATOM
M  V30 1 N 3.77529 0.510555 0.602653 0
M  V30 2 C 2.4647 -0.0419024 0.673658 0
M  V30 3 C 1.71196 0.340462 -0.557145 0
M  V30 4 N 0.368509 -0.142022 -0.642423 0
M  V30 5 C 0.291692 -1.56692 -0.801319 0
M  V30 6 C -1.1312 -1.85496 -1.25321 0
M  V30 7 C -1.96616 -1.67814 -0.00272743 0
M  V30 8 C -1.65465 -0.437993 0.761518 0
M  V30 9 C -0.571321 0.425532 0.262575 0 CFG=2
M  V30 10 S -1.26539 1.94601 -0.383154 0
M  V30 11 O -0.201447 2.8835 -0.86672 0
M  V30 12 O -2.13367 1.63128 -1.56524 0
M  V30 13 N -2.2349 2.69614 0.836341 0
M  V30 14 H 4.4932 -0.0887559 0.366223 0
M  V30 15 H 3.80666 1.43541 0.279448 0
M  V30 16 H 1.98906 0.420593 1.58486 0
M  V30 17 H 2.48039 -1.12987 0.847334 0
M  V30 18 H 2.25193 -0.100717 -1.4483 0
M  V30 19 H 1.75917 1.41632 -0.690877 0
M  V30 20 H 0.421295 -2.06067 0.175335 0
M  V30 21 H 1.03699 -1.87134 -1.54268 0
M  V30 22 H -1.40678 -1.13067 -2.01972 0
M  V30 23 H -1.23493 -2.90759 -1.58798 0
M  V30 24 H -3.02923 -1.77688 -0.313744 0
M  V30 25 H -1.76828 -2.61069 0.607017 0
M  V30 26 H -2.62821 0.132297 0.83549 0
M  V30 27 H -1.4713 -0.747595 1.83454 0
M  V30 28 H 0.0349607 0.777153 1.15335 0
M  V30 29 H -2.46541 2.01635 1.58227 0
M  V30 30 H -1.72294 3.51511 1.27262 0
M  V30 END ATOM
M  V30 BEGIN BOND
M  V30 1 1 1 2
M  V30 2 1 2 3
M  V30 3 1 3 4
M  V30 4 1 4 5
M  V30 5 1 5 6
M  V30 6 1 6 7
M  V30 7 1 7 8
M  V30 8 1 8 9
M  V30 9 1 9 10
M  V30 10 2 10 11
M  V30 11 2 10 12
M  V30 12 1 10 13
M  V30 13 1 9 4
M  V30 14 1 1 14
M  V30 15 1 1 15
M  V30 16 1 2 16
M  V30 17 1 2 17
M  V30 18 1 3 18
M  V30 19 1 3 19
M  V30 20 1 5 20
M  V30 21 1 5 21
M  V30 22 1 6 22
M  V30 23 1 6 23
M  V30 24 1 7 24
M  V30 25 1 7 25
M  V30 26 1 8 26
M  V30 27 1 8 27
M  V30 28 1 9 28 CFG=1
M  V30 29 1 13 29
M  V30 30 1 13 30
M  V30 END BOND
M  V30 END CTAB
M  END
