
     RDKit          3D

  0  0  0  0  0  0  0  0  0  0999 V3000
M  V30 BEGIN CTAB
M  V30 COUNTS 29 29 0 0 0
M  V30 BEGIN ATOM
M  V30 1 N 4.39219 0.00546384 0.481548 0
M  V30 2 C 3.20208 -0.757127 0.108125 0
M  V30 3 C 2.64976 -0.257256 -1.19973 0
M  V30 4 S 0.853176 -0.38915 -1.30497 0
M  V30 5 C 0.0141816 0.785938 -0.199501 0
M  V30 6 C -1.0649 1.52337 -0.964779 0
M  V30 7 C -2.06646 0.475943 -1.35181 0
M  V30 8 C -2.76792 -0.00589534 -0.124883 0
M  V30 9 C -1.92016 -0.272161 1.05759 0
M  V30 10 C -0.492 0.0880994 1.01248 0
M  V30 11 N -3.51983 -1.19536 -0.532119 0
M  V30 12 H 4.59174 0.709123 -0.248682 0
M  V30 13 H 5.16371 -0.657475 0.676911 0
M  V30 14 H 2.49969 -0.639195 0.955301 0
M  V30 15 H 3.42905 -1.844 0.0354929 0
M  V30 16 H 3.06096 -0.91627 -2.00121 0
M  V30 17 H 3.02617 0.760724 -1.42778 0
M  V30 18 H 0.792832 1.55359 0.0434987 0
M  V30 19 H -0.603333 1.92756 -1.88392 0
M  V30 20 H -1.49456 2.3468 -0.379591 0
M  V30 21 H -1.54451 -0.358878 -1.83762 0
M  V30 22 H -2.85139 0.886534 -2.03661 0
M  V30 23 H -3.56701 0.747607 0.10107 0
M  V30 24 H -2.0376 -1.35649 1.3196 0
M  V30 25 H -2.38205 0.254727 1.93349 0
M  V30 26 H 0.127309 -0.838263 1.13461 0
M  V30 27 H -0.192699 0.721398 1.8883 0
M  V30 28 H -4.39422 -1.28048 0.0285345 0
M  V30 29 H -2.90418 -2.01888 -0.341575 0
M  V30 END ATOM
M  V30 BEGIN BOND
M  V30 1 1 1 2
M  V30 2 1 2 3
M  V30 3 1 3 4
M  V30 4 1 4 5
M  V30 5 1 5 6
M  V30 6 1 6 7
M  V30 7 1 7 8
M  V30 8 1 8 9
M  V30 9 1 9 10
M  V30 10 1 8 11
M  V30 11 1 10 5
M  V30 12 1 1 12
M  V30 13 1 1 13
M  V30 14 1 2 14
M  V30 15 1 2 15
M  V30 16 1 3 16
M  V30 17 1 3 17
M  V30 18 1 5 18
M  V30 19 1 6 19
M  V30 20 1 6 20
M  V30 21 1 7 21
M  V30 22 1 7 22
M  V30 23 1 8 23
M  V30 24 1 9 24
M  V30 25 1 9 25
M  V30 26 1 10 26
M  V30 27 1 10 27
M  V30 28 1 11 28
M  V30 29 1 11 29
M  V30 END BOND
M  V30 END CTAB
M  END
