
     RDKit          3D

  0  0  0  0  0  0  0  0  0  0999 V3000
M  V30 BEGIN CTAB
M  V30 COUNTS 20 20 0 0 0
M  V30 BEGIN ATOM
M  V30 1 C -2.71248 0.69105 0.301625 0
M  V30 2 C -1.68655 -0.39243 0.0880371 0
M  V30 3 O -1.94919 -1.12987 -1.04186 0
M  V30 4 N -0.376127 0.233059 -0.023612 0
M  V30 5 N -0.126741 1.52423 -0.187268 0
M  V30 6 C 1.17181 1.77154 -0.252644 0
M  V30 7 C 1.84146 0.572109 -0.125143 0
M  V30 8 N 3.26103 0.345496 -0.136206 0
M  V30 9 C 0.83449 -0.360908 0.0156137 0
M  V30 10 N 1.04409 -1.74855 0.178508 0
M  V30 11 H -2.51116 1.48183 -0.450801 0
M  V30 12 H -2.57832 1.0724 1.34179 0
M  V30 13 H -3.74557 0.318735 0.241679 0
M  V30 14 H -1.72757 -1.04611 1.00506 0
M  V30 15 H -2.18746 -2.06879 -0.771378 0
M  V30 16 H 1.6669 2.72693 -0.382168 0
M  V30 17 H 3.85806 0.837963 -0.805369 0
M  V30 18 H 3.69329 -0.331794 0.548131 0
M  V30 19 H 1.50243 -2.11532 1.03165 0
M  V30 20 H 0.727618 -2.38156 -0.575642 0
M  V30 END ATOM
M  V30 BEGIN BOND
M  V30 1 1 1 2
M  V30 2 1 2 3
M  V30 3 1 2 4
M  V30 4 1 4 5
M  V30 5 2 5 6
M  V30 6 1 6 7
M  V30 7 1 7 8
M  V30 8 2 7 9
M  V30 9 1 9 10
M  V30 10 1 9 4
M  V30 11 1 1 11
M  V30 12 1 1 12
M  V30 13 1 1 13
M  V30 14 1 2 14
M  V30 15 1 3 15
M  V30 16 1 6 16
M  V30 17 1 8 17
M  V30 18 1 8 18
M  V30 19 1 10 19
M  V30 20 1 10 20
M  V30 END BOND
M  V30 END CTAB
M  END
