
     RDKit          3D

  0  0  0  0  0  0  0  0  0  0999 V3000
M  V30 BEGIN CTAB
M  V30 COUNTS 25 26 0 0 0
M  V30 BEGIN ATOM
M  V30 1 C 3.90152 0.361831 0.00910204 0
M  V30 2 C 2.6026 0.306929 -0.756951 0
M  V30 3 C 1.46223 0.494474 0.224591 0
M  V30 4 C 1.325 -0.509537 1.34273 0
M  V30 5 C 0.350553 -0.5078 0.239984 0
M  V30 6 C -1.00775 0.0868376 0.454574 0
M  V30 7 N -1.32501 1.09819 1.29307 0
M  V30 8 N -2.62112 1.35138 1.21386 0
M  V30 9 C -3.17855 0.513768 0.324514 0
M  V30 10 N -2.16667 -0.258479 -0.132861 0
M  V30 11 N -2.31726 -1.2612 -1.07472 0
M  V30 12 N -4.55893 0.433442 -0.0761045 0
M  V30 13 H 4.73577 0.788048 -0.594138 0
M  V30 14 H 3.75874 1.00794 0.888091 0
M  V30 15 H 4.13315 -0.677227 0.350941 0
M  V30 16 H 2.59808 1.16609 -1.45881 0
M  V30 17 H 2.49186 -0.617856 -1.35742 0
M  V30 18 H 1.27402 1.55026 0.518323 0
M  V30 19 H 0.988254 -0.158044 2.34784 0
M  V30 20 H 2.08564 -1.31848 1.36832 0
M  V30 21 H 0.403165 -1.3203 -0.482131 0
M  V30 22 H -2.20169 -1.14989 -2.10056 0
M  V30 23 H -2.57131 -2.22234 -0.723398 0
M  V30 24 H -4.90575 0.986516 -0.915053 0
M  V30 25 H -5.25652 -0.144556 0.413575 0
M  V30 END ATOM
M  V30 BEGIN BOND
M  V30 1 1 1 2
M  V30 2 1 2 3
M  V30 3 1 3 4
M  V30 4 1 4 5
M  V30 5 1 5 6
M  V30 6 2 6 7
M  V30 7 1 7 8
M  V30 8 2 8 9
M  V30 9 1 9 10
M  V30 10 1 10 11
M  V30 11 1 9 12
M  V30 12 1 5 3
M  V30 13 1 10 6
M  V30 14 1 1 13
M  V30 15 1 1 14
M  V30 16 1 1 15
M  V30 17 1 2 16
M  V30 18 1 2 17
M  V30 19 1 3 18
M  V30 20 1 4 19
M  V30 21 1 4 20
M  V30 22 1 5 21
M  V30 23 1 11 22
M  V30 24 1 11 23
M  V30 25 1 12 24
M  V30 26 1 12 25
M  V30 END BOND
M  V30 END CTAB
M  END
