
     RDKit          3D

  0  0  0  0  0  0  0  0  0  0999 V3000
M  V30 BEGIN CTAB
M  V30 COUNTS 45 47 0 0 0
M  V30 BEGIN ATOM
M  V30 1 N -3.91028 2.47262 -3.29349 0
M  V30 2 C -3.28121 1.63607 -2.32965 0
M  V30 3 C -2.45711 2.21068 -1.39393 0
M  V30 4 C -1.82969 1.45605 -0.447569 0
M  V30 5 C -1.98232 0.0656058 -0.369104 0
M  V30 6 C -2.79732 -0.491619 -1.29786 0
M  V30 7 C -3.44881 0.288859 -2.27915 0
M  V30 8 N -1.24758 -0.612355 0.643686 0
M  V30 9 C 0.213311 -0.517758 0.713483 0
M  V30 10 S 0.920815 -1.38851 1.89842 0
M  V30 11 N 0.914872 0.228786 -0.232269 0
M  V30 12 C 2.29087 0.493783 -0.354572 0
M  V30 13 C 3.27869 0.102711 0.502886 0
M  V30 14 C 4.62978 0.422365 0.306551 0
M  V30 15 C 5.68187 -0.010141 1.24487 0
M  V30 16 C 4.99201 1.15709 -0.78539 0
M  V30 17 C 4.04665 1.57015 -1.66765 0
M  V30 18 C 2.72678 1.24131 -1.44957 0
M  V30 19 N 1.78772 1.69724 -2.3996 0
M  V30 20 C -1.83741 -1.5312 1.54655 0
M  V30 21 C -1.58551 -1.33733 2.909 0
M  V30 22 C -2.02799 -2.17587 3.89288 0
M  V30 23 C -2.76872 -3.28388 3.55554 0
M  V30 24 C -3.03879 -3.51149 2.24385 0
M  V30 25 C -2.57151 -2.63557 1.25428 0
M  V30 26 H -4.53595 3.26271 -3.01258 0
M  V30 27 H -3.77979 2.34052 -4.31808 0
M  V30 28 H -2.28921 3.30055 -1.39423 0
M  V30 29 H -1.18684 1.96088 0.277289 0
M  V30 30 H -2.98158 -1.53894 -1.35733 0
M  V30 31 H -4.09304 -0.187511 -3.00524 0
M  V30 32 H 0.310108 0.645758 -1.02582 0
M  V30 33 H 3.10559 -0.467303 1.38727 0
M  V30 34 H 6.38987 0.836454 1.38402 0
M  V30 35 H 6.30212 -0.836032 0.801442 0
M  V30 36 H 5.28379 -0.405172 2.19386 0
M  V30 37 H 6.03296 1.4239 -0.969434 0
M  V30 38 H 4.33575 2.1522 -2.53198 0
M  V30 39 H 1.25063 0.98993 -2.94955 0
M  V30 40 H 1.60017 2.71637 -2.58302 0
M  V30 41 H -1.04224 -0.462749 3.19671 0
M  V30 42 H -1.81827 -2.00324 4.93497 0
M  V30 43 H -3.14385 -3.98224 4.3095 0
M  V30 44 H -3.62097 -4.38206 1.98439 0
M  V30 45 H -2.81838 -2.9116 0.265632 0
M  V30 END ATOM
M  V30 BEGIN BOND
M  V30 1 1 1 2
M  V30 2 2 2 3
M  V30 3 1 3 4
M  V30 4 2 4 5
M  V30 5 1 5 6
M  V30 6 2 6 7
M  V30 7 1 5 8
M  V30 8 1 8 9
M  V30 9 2 9 10
M  V30 10 1 9 11
M  V30 11 1 11 12
M  V30 12 2 12 13
M  V30 13 1 13 14
M  V30 14 1 14 15
M  V30 15 2 14 16
M  V30 16 1 16 17
M  V30 17 2 17 18
M  V30 18 1 18 19
M  V30 19 1 8 20
M  V30 20 2 20 21
M  V30 21 1 21 22
M  V30 22 2 22 23
M  V30 23 1 23 24
M  V30 24 2 24 25
M  V30 25 1 7 2
M  V30 26 1 18 12
M  V30 27 1 25 20
M  V30 28 1 1 26
M  V30 29 1 1 27
M  V30 30 1 3 28
M  V30 31 1 4 29
M  V30 32 1 6 30
M  V30 33 1 7 31
M  V30 34 1 11 32
M  V30 35 1 13 33
M  V30 36 1 15 34
M  V30 37 1 15 35
M  V30 38 1 15 36
M  V30 39 1 16 37
M  V30 40 1 17 38
M  V30 41 1 19 39
M  V30 42 1 19 40
M  V30 43 1 21 41
M  V30 44 1 22 42
M  V30 45 1 23 43
M  V30 46 1 24 44
M  V30 47 1 25 45
M  V30 END BOND
M  V30 END CTAB
M  END
