
     RDKit          3D

  0  0  0  0  0  0  0  0  0  0999 V3000
M  V30 BEGIN CTAB
M  V30 COUNTS 29 30 0 0 0
M  V30 BEGIN ATOM
M  V30 1 N 6.50565 -0.389049 0.269071 0
M  V30 2 C 5.36123 -0.329049 0.192829 0
M  V30 3 C 3.92698 -0.279159 0.0960138 0
M  V30 4 C 3.27115 -0.253818 -1.10066 0
M  V30 5 C 1.88501 -0.206468 -1.12132 0
M  V30 6 C 1.17739 -0.185264 0.0413045 0
M  V30 7 C 1.82235 -0.210295 1.26429 0
M  V30 8 C 3.19308 -0.25687 1.26409 0
M  V30 9 C -0.286028 -0.138807 -0.0301738 0
M  V30 10 C -1.0093 0.999566 -0.267401 0
M  V30 11 C -0.312967 2.23778 -0.46003 0
M  V30 12 N 0.239332 3.24016 -0.621764 0
M  V30 13 C -2.391 1.00749 -0.327771 0
M  V30 14 N -3.14317 2.18583 -0.577136 0
M  V30 15 N -3.04522 -0.168473 -0.142187 0
M  V30 16 C -2.33787 -1.28713 0.0907094 0
M  V30 17 O -2.94726 -2.37487 0.262209 0
M  V30 18 C -0.971859 -1.32905 0.156413 0
M  V30 19 C -0.231021 -2.5465 0.407792 0
M  V30 20 N 0.376755 -3.52319 0.593326 0
M  V30 21 N -4.43962 -0.184495 -0.197642 0
M  V30 22 H 3.80401 -0.270309 -2.02034 0
M  V30 23 H 1.40834 -0.187667 -2.07472 0
M  V30 24 H 1.2054 -0.191146 2.14627 0
M  V30 25 H 3.6935 -0.276339 2.22291 0
M  V30 26 H -3.71752 2.29768 -1.43944 0
M  V30 27 H -3.14355 2.9785 0.0977953 0
M  V30 28 H -4.92573 -0.706726 -0.936347 0
M  V30 29 H -4.96806 0.347649 0.530006 0
M  V30 END ATOM
M  V30 BEGIN BOND
M  V30 1 3 1 2
M  V30 2 1 2 3
M  V30 3 2 3 4
M  V30 4 1 4 5
M  V30 5 2 5 6
M  V30 6 1 6 7
M  V30 7 2 7 8
M  V30 8 1 6 9
M  V30 9 1 9 10
M  V30 10 1 10 11
M  V30 11 3 11 12
M  V30 12 2 10 13
M  V30 13 1 13 14
M  V30 14 1 13 15
M  V30 15 1 15 16
M  V30 16 2 16 17
M  V30 17 1 16 18
M  V30 18 1 18 19
M  V30 19 3 19 20
M  V30 20 1 15 21
M  V30 21 1 8 3
M  V30 22 2 18 9
M  V30 23 1 4 22
M  V30 24 1 5 23
M  V30 25 1 7 24
M  V30 26 1 8 25
M  V30 27 1 14 26
M  V30 28 1 14 27
M  V30 29 1 21 28
M  V30 30 1 21 29
M  V30 END BOND
M  V30 END CTAB
M  END
