
     RDKit          3D

  0  0  0  0  0  0  0  0  0  0999 V3000
M  V30 BEGIN CTAB
M  V30 COUNTS 19 19 0 0 0
M  V30 BEGIN ATOM
M  V30 1 N 2.29312 -2.04089 -0.0483081 0
M  V30 2 C 1.47963 -0.893025 0.00262534 0
M  V30 3 N 0.148951 -0.933404 -0.0560634 0
M  V30 4 C -0.59027 0.169922 -0.0260004 0
M  V30 5 N 0.0434937 1.38108 0.0711215 0
M  V30 6 C 1.37519 1.44607 0.131988 0
M  V30 7 N 2.10014 2.65436 0.211443 0
M  V30 8 N 2.07932 0.303521 0.0942042 0
M  V30 9 C -2.07601 0.216271 -0.0711541 0
M  V30 10 F -2.45992 1.02533 1.00905 0
M  V30 11 F -2.46307 0.940437 -1.20561 0
M  V30 12 C -2.77101 -1.07831 0.023447 0
M  V30 13 F -4.13922 -0.833536 -0.109839 0
M  V30 14 F -2.61595 -1.50661 1.33302 0
M  V30 15 F -2.36918 -2.03483 -0.882422 0
M  V30 16 H 1.97095 -3.00165 0.210446 0
M  V30 17 H 3.28554 -1.9986 -0.354761 0
M  V30 18 H 2.32818 3.14228 -0.658595 0
M  V30 19 H 2.3801 3.04157 1.12191 0
M  V30 END ATOM
M  V30 BEGIN BOND
M  V30 1 1 1 2
M  V30 2 2 2 3
M  V30 3 1 3 4
M  V30 4 2 4 5
M  V30 5 1 5 6
M  V30 6 1 6 7
M  V30 7 2 6 8
M  V30 8 1 4 9
M  V30 9 1 9 10
M  V30 10 1 9 11
M  V30 11 1 9 12
M  V30 12 1 12 13
M  V30 13 1 12 14
M  V30 14 1 12 15
M  V30 15 1 8 2
M  V30 16 1 1 16
M  V30 17 1 1 17
M  V30 18 1 7 18
M  V30 19 1 7 19
M  V30 END BOND
M  V30 END CTAB
M  END
