
     RDKit          3D

  0  0  0  0  0  0  0  0  0  0999 V3000
M  V30 BEGIN CTAB
M  V30 COUNTS 21 21 0 0 0
M  V30 BEGIN ATOM
M  V30 1 N -1.48198 1.78349 0.335635 0
M  V30 2 C -0.270532 1.05187 0.261687 0
M  V30 3 C 0.924572 1.50454 0.770118 0
M  V30 4 I 0.945836 3.39024 1.70861 0
M  V30 5 C 2.08244 0.737318 0.665827 0
M  V30 6 C 2.06027 -0.495954 0.0500676 0
M  V30 7 C 0.851449 -0.927735 -0.451287 0
M  V30 8 C -0.303209 -0.17958 -0.355674 0
M  V30 9 S -1.78771 -0.778801 -1.00603 0
M  V30 10 N -2.92261 -0.889227 0.318299 0
M  V30 11 O -2.35102 0.108813 -2.07316 0
M  V30 12 O -1.57686 -2.18069 -1.49672 0
M  V30 13 N 3.23675 -1.3039 -0.0699622 0 CHG=1
M  V30 14 O 4.44469 -0.923135 0.405952 0 CHG=-1
M  V30 15 O 3.144 -2.4094 -0.639306 0
M  V30 16 H -1.75388 2.18243 1.25802 0
M  V30 17 H -2.13089 1.95907 -0.459416 0
M  V30 18 H 3.01516 1.12061 1.07748 0
M  V30 19 H 0.831164 -1.89623 -0.935517 0
M  V30 20 H -3.43396 -1.79428 0.300361 0
M  V30 21 H -3.52368 -0.0594523 0.335014 0
M  V30 END ATOM
M  V30 BEGIN BOND
M  V30 1 1 1 2
M  V30 2 2 2 3
M  V30 3 1 3 4
M  V30 4 1 3 5
M  V30 5 2 5 6
M  V30 6 1 6 7
M  V30 7 2 7 8
M  V30 8 1 8 9
M  V30 9 1 9 10
M  V30 10 2 9 11
M  V30 11 2 9 12
M  V30 12 1 6 13
M  V30 13 1 13 14
M  V30 14 2 13 15
M  V30 15 1 8 2
M  V30 16 1 1 16
M  V30 17 1 1 17
M  V30 18 1 5 18
M  V30 19 1 7 19
M  V30 20 1 10 20
M  V30 21 1 10 21
M  V30 END BOND
M  V30 END CTAB
M  END
