
     RDKit          3D

  0  0  0  0  0  0  0  0  0  0999 V3000
M  V30 BEGIN CTAB
M  V30 COUNTS 34 34 0 0 0
M  V30 BEGIN ATOM
M  V30 1 O -1.75977 -0.837325 -1.38455 0
M  V30 2 C -1.46782 -0.159457 -0.374484 0
M  V30 3 N -2.50134 0.381539 0.439718 0
M  V30 4 C -3.89576 0.201032 0.179108 0
M  V30 5 C -4.70194 0.902881 1.23259 0
M  V30 6 C -4.16907 0.803374 -1.20377 0
M  V30 7 C -4.29987 -1.2546 0.133842 0
M  V30 8 C -0.0458664 0.0612788 -0.0540481 0
M  V30 9 S 0.982725 -0.748831 -1.27044 0
M  V30 10 C 2.72591 -0.479495 -0.879595 0
M  V30 11 N 3.68899 -0.998572 -1.66096 0
M  V30 12 C 5.00169 -0.833741 -1.42335 0
M  V30 13 N 6.00044 -1.3921 -2.26359 0
M  V30 14 C 5.41047 -0.0998724 -0.330162 0
M  V30 15 C 4.39917 0.432515 0.471393 0
M  V30 16 N 3.10211 0.234263 0.183775 0
M  V30 17 N 4.83346 1.18647 1.59444 0
M  V30 18 H -2.21413 0.940761 1.27272 0
M  V30 19 H -4.84431 1.98784 0.966557 0
M  V30 20 H -4.10414 0.891564 2.17707 0
M  V30 21 H -5.66761 0.402207 1.45372 0
M  V30 22 H -3.45046 1.61945 -1.40583 0
M  V30 23 H -4.02105 -0.0227464 -1.9287 0
M  V30 24 H -5.2261 1.12613 -1.28887 0
M  V30 25 H -4.33444 -1.62112 -0.925036 0
M  V30 26 H -3.61286 -1.91055 0.675982 0
M  V30 27 H -5.3432 -1.38047 0.535778 0
M  V30 28 H 0.157617 -0.384802 0.95268 0
M  V30 29 H 0.211951 1.13574 0.0459081 0
M  V30 30 H 6.208 -0.909346 -3.16287 0
M  V30 31 H 6.49804 -2.25651 -1.97279 0
M  V30 32 H 6.44879 0.0557368 -0.104536 0
M  V30 33 H 4.84594 0.750083 2.53749 0
M  V30 34 H 5.14444 2.17666 1.50334 0
M  V30 END ATOM
M  V30 BEGIN BOND
M  V30 1 2 1 2
M  V30 2 1 2 3
M  V30 3 1 3 4
M  V30 4 1 4 5
M  V30 5 1 4 6
M  V30 6 1 4 7
M  V30 7 1 2 8
M  V30 8 1 8 9
M  V30 9 1 9 10
M  V30 10 2 10 11
M  V30 11 1 11 12
M  V30 12 1 12 13
M  V30 13 2 12 14
M  V30 14 1 14 15
M  V30 15 2 15 16
M  V30 16 1 15 17
M  V30 17 1 16 10
M  V30 18 1 3 18
M  V30 19 1 5 19
M  V30 20 1 5 20
M  V30 21 1 5 21
M  V30 22 1 6 22
M  V30 23 1 6 23
M  V30 24 1 6 24
M  V30 25 1 7 25
M  V30 26 1 7 26
M  V30 27 1 7 27
M  V30 28 1 8 28
M  V30 29 1 8 29
M  V30 30 1 13 30
M  V30 31 1 13 31
M  V30 32 1 14 32
M  V30 33 1 17 33
M  V30 34 1 17 34
M  V30 END BOND
M  V30 END CTAB
M  END
