
     RDKit          3D

  0  0  0  0  0  0  0  0  0  0999 V3000
M  V30 BEGIN CTAB
M  V30 COUNTS 22 22 0 0 0
M  V30 BEGIN ATOM
M  V30 1 N -2.51189 -0.536736 -1.28281 0
M  V30 2 C -1.88938 -0.51953 0.0053942 0
M  V30 3 C -2.52325 0.57366 0.87181 0
M  V30 4 F -3.86143 0.258156 0.97643 0
M  V30 5 F -2.31 1.77477 0.257526 0
M  V30 6 F -1.87942 0.562834 2.09614 0
M  V30 7 C -0.444285 -0.251336 -0.02344 0
M  V30 8 C 0.387175 -1.02193 0.75481 0
M  V30 9 C 1.75858 -0.839503 0.789373 0
M  V30 10 C 2.35135 0.144299 0.0265999 0
M  V30 11 C 1.51693 0.921771 -0.757981 0
M  V30 12 C 0.140606 0.731829 -0.786767 0
M  V30 13 N 3.76658 0.35987 0.0387524 0
M  V30 14 H -2.73467 -1.46846 -1.64845 0
M  V30 15 H -2.15986 0.14662 -1.95398 0
M  V30 16 H -2.06985 -1.49895 0.487567 0
M  V30 17 H -0.0375687 -1.80842 1.37148 0
M  V30 18 H 2.38427 -1.46165 1.41132 0
M  V30 19 H 2.00645 1.69546 -1.3546 0
M  V30 20 H -0.475112 1.36759 -1.41898 0
M  V30 21 H 4.32522 0.607528 -0.802259 0
M  V30 22 H 4.25954 0.262121 0.942078 0
M  V30 END ATOM
M  V30 BEGIN BOND
M  V30 1 1 1 2
M  V30 2 1 2 3
M  V30 3 1 3 4
M  V30 4 1 3 5
M  V30 5 1 3 6
M  V30 6 1 2 7
M  V30 7 2 7 8
M  V30 8 1 8 9
M  V30 9 2 9 10
M  V30 10 1 10 11
M  V30 11 2 11 12
M  V30 12 1 10 13
M  V30 13 1 12 7
M  V30 14 1 1 14
M  V30 15 1 1 15
M  V30 16 1 2 16
M  V30 17 1 8 17
M  V30 18 1 9 18
M  V30 19 1 11 19
M  V30 20 1 12 20
M  V30 21 1 13 21
M  V30 22 1 13 22
M  V30 END BOND
M  V30 END CTAB
M  END
