
     RDKit          3D

  0  0  0  0  0  0  0  0  0  0999 V3000
M  V30 BEGIN CTAB
M  V30 COUNTS 32 32 0 0 0
M  V30 BEGIN ATOM
M  V30 1 C -3.28762 2.32347 -0.16554 0
M  V30 2 C -2.45141 1.27606 0.568472 0
M  V30 3 C -1.76345 0.461634 -0.479199 0
M  V30 4 N -0.921232 -0.578978 -0.0118691 0
M  V30 5 C 0.482855 -0.453219 -0.242486 0
M  V30 6 N 1.09149 -1.02002 -1.2962 0
M  V30 7 C 2.41663 -0.864641 -1.46786 0
M  V30 8 C 3.19067 -0.127949 -0.581332 0
M  V30 9 C 2.58054 0.466535 0.515937 0
M  V30 10 C 1.22409 0.281297 0.652121 0
M  V30 11 N 3.37359 1.21731 1.41881 0
M  V30 12 N 4.58996 0.0247915 -0.773483 0
M  V30 13 C -1.33312 -1.78382 0.665083 0
M  V30 14 C -2.08998 -2.72122 -0.241513 0
M  V30 15 H -3.97099 2.82199 0.551994 0
M  V30 16 H -2.5815 3.10882 -0.531269 0
M  V30 17 H -3.80164 1.88925 -1.0379 0
M  V30 18 H -3.1077 0.731977 1.23887 0
M  V30 19 H -1.73145 1.85791 1.1799 0
M  V30 20 H -1.19874 1.19149 -1.11233 0
M  V30 21 H -2.51401 0.0192148 -1.18691 0
M  V30 22 H 2.88391 -1.3289 -2.3262 0
M  V30 23 H 0.762437 0.759833 1.5264 0
M  V30 24 H 4.21733 1.70897 1.07924 0
M  V30 25 H 3.13997 1.29208 2.42818 0
M  V30 26 H 5.035 0.76279 -1.34234 0
M  V30 27 H 5.2174 -0.655478 -0.306251 0
M  V30 28 H -1.98278 -1.42984 1.51705 0
M  V30 29 H -0.518345 -2.33425 1.12761 0
M  V30 30 H -2.35955 -2.25564 -1.20795 0
M  V30 31 H -1.5538 -3.6634 -0.429371 0
M  V30 32 H -3.03855 -2.97806 0.270359 0
M  V30 END ATOM
M  V30 BEGIN BOND
M  V30 1 1 1 2
M  V30 2 1 2 3
M  V30 3 1 3 4
M  V30 4 1 4 5
M  V30 5 2 5 6
M  V30 6 1 6 7
M  V30 7 2 7 8
M  V30 8 1 8 9
M  V30 9 2 9 10
M  V30 10 1 9 11
M  V30 11 1 8 12
M  V30 12 1 4 13
M  V30 13 1 13 14
M  V30 14 1 10 5
M  V30 15 1 1 15
M  V30 16 1 1 16
M  V30 17 1 1 17
M  V30 18 1 2 18
M  V30 19 1 2 19
M  V30 20 1 3 20
M  V30 21 1 3 21
M  V30 22 1 7 22
M  V30 23 1 10 23
M  V30 24 1 11 24
M  V30 25 1 11 25
M  V30 26 1 12 26
M  V30 27 1 12 27
M  V30 28 1 13 28
M  V30 29 1 13 29
M  V30 30 1 14 30
M  V30 31 1 14 31
M  V30 32 1 14 32
M  V30 END BOND
M  V30 END CTAB
M  END
