
     RDKit          3D

  0  0  0  0  0  0  0  0  0  0999 V3000
M  V30 BEGIN CTAB
M  V30 COUNTS 29 30 0 0 0
M  V30 BEGIN ATOM
M  V30 1 N -1.0507 -2.62245 -0.359053 0
M  V30 2 C -0.446379 -1.30171 -0.18234 0
M  V30 3 N 0.778326 -1.30528 -0.209511 0
M  V30 4 C 1.89563 -0.538386 -0.123583 0
M  V30 5 C 2.5002 0.053223 -1.24903 0
M  V30 6 C 3.63373 0.8127 -1.1453 0
M  V30 7 C 4.26594 1.05577 0.0545858 0
M  V30 8 Br 5.8381 2.115 0.179553 0
M  V30 9 C 3.69261 0.486483 1.17161 0
M  V30 10 C 2.55942 -0.275882 1.08764 0
M  V30 11 C -1.35521 -0.184619 -0.00187629 0
M  V30 12 C -2.73161 -0.447233 -0.00978836 0
M  V30 13 N -3.25963 -1.76487 -0.188085 0
M  V30 14 C -3.58063 0.627512 0.163367 0
M  V30 15 C -3.148 1.91589 0.339439 0
M  V30 16 C -1.80692 2.14582 0.343409 0
M  V30 17 C -0.909179 1.10952 0.174733 0
M  V30 18 H -1.20955 -3.1527 0.506584 0
M  V30 19 H -1.29076 -3.0003 -1.28328 0
M  V30 20 H 2.01472 -0.127091 -2.21106 0
M  V30 21 H 4.08678 1.26259 -2.02977 0
M  V30 22 H 4.19581 0.678856 2.13206 0
M  V30 23 H 2.13111 -0.711967 1.98987 0
M  V30 24 H -3.49009 -2.16243 -1.11405 0
M  V30 25 H -3.41671 -2.32656 0.665448 0
M  V30 26 H -4.65402 0.4005 0.154013 0
M  V30 27 H -3.89557 2.71506 0.470723 0
M  V30 28 H -1.48266 3.17087 0.483926 0
M  V30 29 H 0.135208 1.37168 0.189777 0
M  V30 END ATOM
M  V30 BEGIN BOND
M  V30 1 1 1 2
M  V30 2 2 2 3 CFG=2
M  V30 3 1 3 4
M  V30 4 2 4 5
M  V30 5 1 5 6
M  V30 6 2 6 7
M  V30 7 1 7 8
M  V30 8 1 7 9
M  V30 9 2 9 10
M  V30 10 1 2 11
M  V30 11 2 11 12
M  V30 12 1 12 13
M  V30 13 1 12 14
M  V30 14 2 14 15
M  V30 15 1 15 16
M  V30 16 2 16 17
M  V30 17 1 10 4
M  V30 18 1 17 11
M  V30 19 1 1 18
M  V30 20 1 1 19
M  V30 21 1 5 20
M  V30 22 1 6 21
M  V30 23 1 9 22
M  V30 24 1 10 23
M  V30 25 1 13 24
M  V30 26 1 13 25
M  V30 27 1 14 26
M  V30 28 1 15 27
M  V30 29 1 16 28
M  V30 30 1 17 29
M  V30 END BOND
M  V30 END CTAB
M  END
