
     RDKit          3D

  0  0  0  0  0  0  0  0  0  0999 V3000
M  V30 BEGIN CTAB
M  V30 COUNTS 23 23 0 0 0
M  V30 BEGIN ATOM
M  V30 1 N -3.83322 0.426878 0.638155 0
M  V30 2 C -3.40193 -0.443997 -0.421161 0
M  V30 3 C -1.99012 -0.175456 -0.868599 0
M  V30 4 N -1.07422 -0.357402 0.236225 0
M  V30 5 C 0.329233 -0.157365 0.0535446 0
M  V30 6 N 0.849699 0.200698 -1.12624 0
M  V30 7 C 2.1601 0.403119 -1.35807 0
M  V30 8 C 3.02883 0.231021 -0.31193 0
M  V30 9 C 2.58123 -0.135261 0.931242 0
M  V30 10 C 1.21213 -0.326867 1.09557 0
M  V30 11 Br 0.518856 -0.835163 2.79 0
M  V30 12 N 4.41976 0.429419 -0.493534 0
M  V30 13 H -4.76936 0.853223 0.480731 0
M  V30 14 H -3.11179 1.11822 0.936389 0
M  V30 15 H -4.11278 -0.357157 -1.26722 0
M  V30 16 H -3.46662 -1.48455 -0.0431715 0
M  V30 17 H -1.7389 -0.994435 -1.60524 0
M  V30 18 H -1.85603 0.781453 -1.36739 0
M  V30 19 H -1.44495 -0.634109 1.16139 0
M  V30 20 H 2.51594 0.698245 -2.36185 0
M  V30 21 H 3.26992 -0.274393 1.77113 0
M  V30 22 H 4.97108 -0.0267796 -1.2504 0
M  V30 23 H 4.94316 1.06066 0.150851 0
M  V30 END ATOM
M  V30 BEGIN BOND
M  V30 1 1 1 2
M  V30 2 1 2 3
M  V30 3 1 3 4
M  V30 4 1 4 5
M  V30 5 2 5 6
M  V30 6 1 6 7
M  V30 7 2 7 8
M  V30 8 1 8 9
M  V30 9 2 9 10
M  V30 10 1 10 11
M  V30 11 1 8 12
M  V30 12 1 10 5
M  V30 13 1 1 13
M  V30 14 1 1 14
M  V30 15 1 2 15
M  V30 16 1 2 16
M  V30 17 1 3 17
M  V30 18 1 3 18
M  V30 19 1 4 19
M  V30 20 1 7 20
M  V30 21 1 9 21
M  V30 22 1 12 22
M  V30 23 1 12 23
M  V30 END BOND
M  V30 END CTAB
M  END
