
     RDKit          3D

  0  0  0  0  0  0  0  0  0  0999 V3000
M  V30 BEGIN CTAB
M  V30 COUNTS 46 48 0 0 0
M  V30 BEGIN ATOM
M  V30 1 N 5.74554 1.23104 0.0264509 0
M  V30 2 C 4.56682 0.473169 0.062777 0
M  V30 3 C 4.66408 -0.513971 1.23525 0
M  V30 4 C 3.49577 -1.42962 1.09313 0
M  V30 5 C 2.15943 -0.783605 1.06511 0
M  V30 6 C 2.09084 0.612767 0.550563 0
M  V30 7 C 3.37487 1.31999 0.336178 0
M  V30 8 C 1.19739 0.736363 -0.646383 0
M  V30 9 O 1.7756 1.04768 -1.7316 0
M  V30 10 N -0.19283 0.526258 -0.601144 0
M  V30 11 C -1.04854 0.18201 0.498481 0
M  V30 12 C -2.16563 -0.659525 -0.0734377 0 CFG=2
M  V30 13 C -2.00081 -0.5354 -1.55775 0 CFG=1
M  V30 14 C -1.0729 0.629309 -1.75171 0
M  V30 15 N -1.29127 -1.71081 -2.0713 0
M  V30 16 C -3.50537 -0.226524 0.383419 0
M  V30 17 C -3.98256 1.05569 0.262274 0
M  V30 18 C -5.24931 1.44683 0.697606 0
M  V30 19 C -6.07643 0.511095 1.28117 0
M  V30 20 C -5.61784 -0.786233 1.41398 0
M  V30 21 C -4.35393 -1.14825 0.972516 0
M  V30 22 H 6.5606 0.802957 -0.279207 0
M  V30 23 H 5.66247 2.15026 0.358113 0
M  V30 24 H 4.43803 -0.14127 -0.856852 0
M  V30 25 H 5.58422 -1.0912 1.21682 0
M  V30 26 H 4.58838 0.112273 2.15978 0
M  V30 27 H 3.55009 -2.16579 1.93996 0
M  V30 28 H 3.67738 -2.03473 0.159931 0
M  V30 29 H 1.52523 -1.41517 0.371819 0
M  V30 30 H 1.69412 -0.913349 2.07103 0
M  V30 31 H 1.53983 1.20205 1.35164 0
M  V30 32 H 3.23297 2.02001 -0.535173 0
M  V30 33 H 3.63621 1.97171 1.21531 0
M  V30 34 H -1.41775 1.06123 1.0557 0
M  V30 35 H -0.486205 -0.449075 1.20395 0
M  V30 36 H -2.03518 -1.73448 0.178464 0
M  V30 37 H -2.96491 -0.397925 -2.08998 0
M  V30 38 H -0.491392 0.545741 -2.7088 0
M  V30 39 H -1.53682 1.61295 -1.74507 0
M  V30 40 H -1.44508 -2.52886 -1.44337 0
M  V30 41 H -1.57424 -1.91993 -3.04859 0
M  V30 42 H -3.34128 1.79158 -0.19185 0
M  V30 43 H -5.59659 2.47957 0.584389 0
M  V30 44 H -7.05921 0.790858 1.62487 0
M  V30 45 H -6.24889 -1.54897 1.87149 0
M  V30 46 H -4.0049 -2.1787 1.08442 0
M  V30 END ATOM
M  V30 BEGIN BOND
M  V30 1 1 1 2
M  V30 2 1 2 3
M  V30 3 1 3 4
M  V30 4 1 4 5
M  V30 5 1 5 6
M  V30 6 1 6 7
M  V30 7 1 6 8
M  V30 8 2 8 9
M  V30 9 1 8 10
M  V30 10 1 10 11
M  V30 11 1 11 12
M  V30 12 1 12 13
M  V30 13 1 13 14
M  V30 14 1 13 15
M  V30 15 1 12 16
M  V30 16 2 16 17
M  V30 17 1 17 18
M  V30 18 2 18 19
M  V30 19 1 19 20
M  V30 20 2 20 21
M  V30 21 1 7 2
M  V30 22 1 14 10
M  V30 23 1 21 16
M  V30 24 1 1 22
M  V30 25 1 1 23
M  V30 26 1 2 24
M  V30 27 1 3 25
M  V30 28 1 3 26
M  V30 29 1 4 27
M  V30 30 1 4 28
M  V30 31 1 5 29
M  V30 32 1 5 30
M  V30 33 1 6 31
M  V30 34 1 7 32
M  V30 35 1 7 33
M  V30 36 1 11 34
M  V30 37 1 11 35
M  V30 38 1 12 36 CFG=1
M  V30 39 1 13 37 CFG=3
M  V30 40 1 14 38
M  V30 41 1 14 39
M  V30 42 1 15 40
M  V30 43 1 15 41
M  V30 44 1 17 42
M  V30 45 1 18 43
M  V30 46 1 19 44
M  V30 47 1 20 45
M  V30 48 1 21 46
M  V30 END BOND
M  V30 END CTAB
M  END
