
     RDKit          3D

  0  0  0  0  0  0  0  0  0  0999 V3000
M  V30 BEGIN CTAB
M  V30 COUNTS 37 39 0 0 0
M  V30 BEGIN ATOM
M  V30 1 C 4.99342 1.64562 0.771965 0
M  V30 2 O 4.91929 0.272415 0.985192 0
M  V30 3 C 3.90486 -0.474769 0.400403 0
M  V30 4 C 2.9321 0.0988296 -0.41079 0
M  V30 5 C 1.92766 -0.645507 -0.988949 0
M  V30 6 C 0.894178 -0.0470484 -1.84863 0
M  V30 7 C -0.29846 0.405291 -1.12872 0
M  V30 8 C -1.37987 -0.444253 -0.92473 0
M  V30 9 C -2.49051 -0.00257264 -0.247014 0
M  V30 10 C -2.59825 1.26557 0.255274 0
M  V30 11 C -1.53293 2.122 0.0612717 0
M  V30 12 C -0.402578 1.68336 -0.624596 0
M  V30 13 N -3.69888 1.67651 0.91735 0
M  V30 14 C -4.73119 0.833846 1.10079 0
M  V30 15 N -5.91099 1.26807 1.80826 0
M  V30 16 N -4.63802 -0.415504 0.61202 0
M  V30 17 C -3.56765 -0.866313 -0.0500817 0
M  V30 18 N -3.47675 -2.1857 -0.562702 0
M  V30 19 C 1.92402 -1.996 -0.729426 0
M  V30 20 C 2.88461 -2.59392 0.0777372 0
M  V30 21 C 3.88163 -1.82541 0.645866 0
M  V30 22 H 4.91602 1.86203 -0.315861 0
M  V30 23 H 4.16233 2.1709 1.28987 0
M  V30 24 H 5.95017 2.04158 1.19152 0
M  V30 25 H 3.01338 1.16619 -0.559505 0
M  V30 26 H 1.29577 0.824869 -2.44462 0
M  V30 27 H 0.543593 -0.767947 -2.64372 0
M  V30 28 H -1.35956 -1.46514 -1.29796 0
M  V30 29 H -1.57972 3.12658 0.441107 0
M  V30 30 H 0.447089 2.34083 -0.788447 0
M  V30 31 H -6.64308 1.8267 1.32674 0
M  V30 32 H -6.06564 1.03945 2.80996 0
M  V30 33 H -4.11477 -2.45231 -1.33864 0
M  V30 34 H -2.81579 -2.88674 -0.2075 0
M  V30 35 H 1.17513 -2.6559 -1.14012 0
M  V30 36 H 2.90106 -3.65317 0.295183 0
M  V30 37 H 4.63832 -2.29244 1.28093 0
M  V30 END ATOM
M  V30 BEGIN BOND
M  V30 1 1 1 2
M  V30 2 1 2 3
M  V30 3 2 3 4
M  V30 4 1 4 5
M  V30 5 1 5 6
M  V30 6 1 6 7
M  V30 7 2 7 8
M  V30 8 1 8 9
M  V30 9 2 9 10
M  V30 10 1 10 11
M  V30 11 2 11 12
M  V30 12 1 10 13
M  V30 13 2 13 14
M  V30 14 1 14 15
M  V30 15 1 14 16
M  V30 16 2 16 17
M  V30 17 1 17 18
M  V30 18 2 5 19
M  V30 19 1 19 20
M  V30 20 2 20 21
M  V30 21 1 21 3
M  V30 22 1 12 7
M  V30 23 1 17 9
M  V30 24 1 1 22
M  V30 25 1 1 23
M  V30 26 1 1 24
M  V30 27 1 4 25
M  V30 28 1 6 26
M  V30 29 1 6 27
M  V30 30 1 8 28
M  V30 31 1 11 29
M  V30 32 1 12 30
M  V30 33 1 15 31
M  V30 34 1 15 32
M  V30 35 1 18 33
M  V30 36 1 18 34
M  V30 37 1 19 35
M  V30 38 1 20 36
M  V30 39 1 21 37
M  V30 END BOND
M  V30 END CTAB
M  END
