
     RDKit          3D

  0  0  0  0  0  0  0  0  0  0999 V3000
M  V30 BEGIN CTAB
M  V30 COUNTS 46 49 0 0 0
M  V30 BEGIN ATOM
M  V30 1 C -2.18221 -3.75568 1.08563 0
M  V30 2 N -2.43403 -2.38365 0.740918 0
M  V30 3 C -3.64675 -1.80462 0.789863 0
M  V30 4 O -4.61815 -2.52624 1.16521 0
M  V30 5 N -3.79577 -0.512106 0.449551 0
M  V30 6 C -5.11804 0.0742498 0.515515 0
M  V30 7 C -2.77723 0.253762 0.0534997 0
M  V30 8 C -1.50487 -0.311315 -0.00957474 0
M  V30 9 C -1.35947 -1.63931 0.341079 0
M  V30 10 O -0.228439 -2.1489 0.285761 0
M  V30 11 C -0.426037 0.417721 -0.409006 0
M  V30 12 C 0.948641 -0.105854 -0.504267 0
M  V30 13 C 1.93237 -0.0576972 0.453222 0
M  V30 14 C 1.63378 0.582355 1.81163 0
M  V30 15 C 3.12405 -0.600658 0.146155 0
M  V30 16 C 3.25027 -1.15605 -1.09903 0
M  V30 17 S 1.71955 -0.90599 -1.79479 0
M  V30 18 C 4.43873 -1.75317 -1.54107 0
M  V30 19 C 5.54629 -1.80707 -0.729012 0
M  V30 20 C 5.44461 -1.25901 0.51914 0
M  V30 21 C 4.28725 -0.679248 0.945421 0
M  V30 22 C -0.606594 1.75762 -0.762522 0
M  V30 23 C 0.543878 2.5702 -1.22328 0
M  V30 24 N 0.187344 3.93342 -1.55604 0
M  V30 25 C -1.85972 2.29961 -0.696126 0
M  V30 26 N -2.07874 3.6512 -1.04492 0
M  V30 27 N -2.91843 1.5411 -0.290816 0
M  V30 28 H -1.78684 -3.79319 2.11255 0
M  V30 29 H -1.45827 -4.15202 0.337529 0
M  V30 30 H -3.13872 -4.33577 1.02589 0
M  V30 31 H -5.14605 0.709107 1.43411 0
M  V30 32 H -5.88669 -0.707952 0.64543 0
M  V30 33 H -5.37922 0.629834 -0.400554 0
M  V30 34 H 0.617299 0.341691 2.12222 0
M  V30 35 H 1.74021 1.68057 1.73924 0
M  V30 36 H 2.33538 0.210911 2.56977 0
M  V30 37 H 4.45487 -2.16887 -2.53975 0
M  V30 38 H 6.44558 -2.25741 -1.05987 0
M  V30 39 H 6.32502 -1.31107 1.14219 0
M  V30 40 H 4.30578 -0.272335 1.9519 0
M  V30 41 H 1.35936 2.64807 -0.458251 0
M  V30 42 H 1.01404 2.10585 -2.12462 0
M  V30 43 H 0.132108 4.03411 -2.59728 0
M  V30 44 H 0.884478 4.63293 -1.23441 0
M  V30 45 H -2.32518 3.9576 -2.00341 0
M  V30 46 H -1.99542 4.37329 -0.304827 0
M  V30 END ATOM
M  V30 BEGIN BOND
M  V30 1 1 1 2
M  V30 2 1 2 3
M  V30 3 2 3 4
M  V30 4 1 3 5
M  V30 5 1 5 6
M  V30 6 1 5 7
M  V30 7 2 7 8
M  V30 8 1 8 9
M  V30 9 2 9 10
M  V30 10 1 8 11
M  V30 11 1 11 12
M  V30 12 2 12 13
M  V30 13 1 13 14
M  V30 14 1 13 15
M  V30 15 2 15 16
M  V30 16 1 16 17
M  V30 17 1 16 18
M  V30 18 2 18 19
M  V30 19 1 19 20
M  V30 20 2 20 21
M  V30 21 2 11 22
M  V30 22 1 22 23
M  V30 23 1 23 24
M  V30 24 1 22 25
M  V30 25 1 25 26
M  V30 26 2 25 27
M  V30 27 1 9 2
M  V30 28 1 17 12
M  V30 29 1 27 7
M  V30 30 1 21 15
M  V30 31 1 1 28
M  V30 32 1 1 29
M  V30 33 1 1 30
M  V30 34 1 6 31
M  V30 35 1 6 32
M  V30 36 1 6 33
M  V30 37 1 14 34
M  V30 38 1 14 35
M  V30 39 1 14 36
M  V30 40 1 18 37
M  V30 41 1 19 38
M  V30 42 1 20 39
M  V30 43 1 21 40
M  V30 44 1 23 41
M  V30 45 1 23 42
M  V30 46 1 24 43
M  V30 47 1 24 44
M  V30 48 1 26 45
M  V30 49 1 26 46
M  V30 END BOND
M  V30 END CTAB
M  END
