
     RDKit          3D

  0  0  0  0  0  0  0  0  0  0999 V3000
M  V30 BEGIN CTAB
M  V30 COUNTS 25 25 0 0 0
M  V30 BEGIN ATOM
M  V30 1 C -1.83487 -0.523064 -1.64033 0
M  V30 2 C -1.40568 -0.842216 -0.217341 0
M  V30 3 C -2.39307 -0.264896 0.759493 0
M  V30 4 N -2.56239 1.13982 0.711226 0
M  V30 5 C -0.0283778 -0.397883 -0.0456376 0
M  V30 6 C 0.950954 -1.32897 0.250298 0
M  V30 7 C 2.27716 -0.988096 0.42502 0
M  V30 8 C 2.6733 0.305593 0.309024 0
M  V30 9 N 4.03707 0.677932 0.485648 0
M  V30 10 C 1.73668 1.27252 0.015166 0
M  V30 11 C 0.407773 0.901104 -0.155743 0
M  V30 12 H -2.85759 -0.836593 -1.84675 0
M  V30 13 H -1.11922 -1.03763 -2.32579 0
M  V30 14 H -1.65171 0.565098 -1.78968 0
M  V30 15 H -1.42636 -1.9506 -0.149335 0
M  V30 16 H -2.18472 -0.569499 1.7992 0
M  V30 17 H -3.38534 -0.737112 0.508144 0
M  V30 18 H -2.75795 1.60706 1.59878 0
M  V30 19 H -2.97244 1.5361 -0.132126 0
M  V30 20 H 0.66479 -2.38561 0.3514 0
M  V30 21 H 3.0335 -1.75019 0.659639 0
M  V30 22 H 4.7782 0.158427 -0.00997881 0
M  V30 23 H 4.31508 1.46222 1.10222 0
M  V30 24 H 1.99506 2.32373 -0.0897681 0
M  V30 25 H -0.28983 1.66275 -0.382352 0
M  V30 END ATOM
M  V30 BEGIN BOND
M  V30 1 1 1 2
M  V30 2 1 2 3
M  V30 3 1 3 4
M  V30 4 1 2 5
M  V30 5 2 5 6
M  V30 6 1 6 7
M  V30 7 2 7 8
M  V30 8 1 8 9
M  V30 9 1 8 10
M  V30 10 2 10 11
M  V30 11 1 11 5
M  V30 12 1 1 12
M  V30 13 1 1 13
M  V30 14 1 1 14
M  V30 15 1 2 15
M  V30 16 1 3 16
M  V30 17 1 3 17
M  V30 18 1 4 18
M  V30 19 1 4 19
M  V30 20 1 6 20
M  V30 21 1 7 21
M  V30 22 1 9 22
M  V30 23 1 9 23
M  V30 24 1 10 24
M  V30 25 1 11 25
M  V30 END BOND
M  V30 END CTAB
M  END
