
     RDKit          3D

  0  0  0  0  0  0  0  0  0  0999 V3000
M  V30 BEGIN CTAB
M  V30 COUNTS 19 19 0 0 0
M  V30 BEGIN ATOM
M  V30 1 N -3.00887 -0.86933 -0.366255 0
M  V30 2 C -2.33115 0.404426 -0.344471 0
M  V30 3 C -0.860318 0.238444 -0.141137 0
M  V30 4 C -0.262062 -0.995851 0.00372889 0
M  V30 5 C 1.10221 -1.09512 0.189427 0
M  V30 6 C 1.92978 0.00711147 0.240144 0
M  V30 7 C 1.33249 1.24244 0.0953536 0
M  V30 8 C -0.0367692 1.34248 -0.0910469 0
M  V30 9 Cl -0.808838 2.92296 -0.277313 0
M  V30 10 N 3.33507 -0.134854 0.433557 0
M  V30 11 H -2.6098 -1.54453 -1.04413 0
M  V30 12 H -2.90306 -1.29945 0.579795 0
M  V30 13 H -2.78641 0.981468 0.511078 0
M  V30 14 H -2.4868 1.01185 -1.23603 0
M  V30 15 H -0.870466 -1.88245 -0.029501 0
M  V30 16 H 1.59915 -2.06552 0.306836 0
M  V30 17 H 1.94971 2.12954 0.129718 0
M  V30 18 H 4.03475 0.267283 -0.225751 0
M  V30 19 H 3.68138 -0.660896 1.266 0
M  V30 END ATOM
M  V30 BEGIN BOND
M  V30 1 1 1 2
M  V30 2 1 2 3
M  V30 3 2 3 4
M  V30 4 1 4 5
M  V30 5 2 5 6
M  V30 6 1 6 7
M  V30 7 2 7 8
M  V30 8 1 8 9
M  V30 9 1 6 10
M  V30 10 1 8 3
M  V30 11 1 1 11
M  V30 12 1 1 12
M  V30 13 1 2 13
M  V30 14 1 2 14
M  V30 15 1 4 15
M  V30 16 1 5 16
M  V30 17 1 7 17
M  V30 18 1 10 18
M  V30 19 1 10 19
M  V30 END BOND
M  V30 END CTAB
M  END
