
     RDKit          3D

  0  0  0  0  0  0  0  0  0  0999 V3000
M  V30 BEGIN CTAB
M  V30 COUNTS 30 31 0 0 0
M  V30 BEGIN ATOM
M  V30 1 C -0.681533 2.47563 -0.37069 0
M  V30 2 O -0.986572 1.2423 -0.877356 0
M  V30 3 C -0.859887 0.200357 0.00247895 0
M  V30 4 C -1.23987 -1.0785 -0.747221 0
M  V30 5 C -2.19218 -1.77223 0.171007 0
M  V30 6 C -2.9262 -0.619349 0.82187 0
M  V30 7 C -1.74042 0.28013 1.2009 0
M  V30 8 C 0.588487 0.102834 0.367779 0
M  V30 9 N 1.12901 0.214521 1.59265 0
M  V30 10 C 2.4475 0.0729231 1.53986 0
M  V30 11 N 2.74903 -0.133699 0.248135 0
M  V30 12 C 1.62371 -0.122347 -0.511058 0
M  V30 13 N 1.54248 -0.306086 -1.92424 0
M  V30 14 N 4.03144 -0.340536 -0.310783 0
M  V30 15 H 0.365685 2.56601 0.00250824 0
M  V30 16 H -1.43458 2.83219 0.357865 0
M  V30 17 H -0.733769 3.21691 -1.22133 0
M  V30 18 H -1.64531 -0.858852 -1.74684 0
M  V30 19 H -0.356867 -1.73685 -0.896918 0
M  V30 20 H -1.59268 -2.2515 0.980078 0
M  V30 21 H -2.86932 -2.48767 -0.328105 0
M  V30 22 H -3.52863 -0.139296 0.0189257 0
M  V30 23 H -3.51095 -0.915925 1.70028 0
M  V30 24 H -1.289 -0.207845 2.10733 0
M  V30 25 H -2.16356 1.25773 1.42376 0
M  V30 26 H 3.18573 0.106531 2.3392 0
M  V30 27 H 2.27042 -0.85243 -2.40763 0
M  V30 28 H 0.764171 0.0994356 -2.47823 0
M  V30 29 H 4.72319 0.435333 -0.400904 0
M  V30 30 H 4.33049 -1.27972 -0.653322 0
M  V30 END ATOM
M  V30 BEGIN BOND
M  V30 1 1 1 2
M  V30 2 1 2 3
M  V30 3 1 3 4
M  V30 4 1 4 5
M  V30 5 1 5 6
M  V30 6 1 6 7
M  V30 7 1 3 8
M  V30 8 1 8 9
M  V30 9 2 9 10
M  V30 10 1 10 11
M  V30 11 1 11 12
M  V30 12 1 12 13
M  V30 13 1 11 14
M  V30 14 1 7 3
M  V30 15 2 12 8
M  V30 16 1 1 15
M  V30 17 1 1 16
M  V30 18 1 1 17
M  V30 19 1 4 18
M  V30 20 1 4 19
M  V30 21 1 5 20
M  V30 22 1 5 21
M  V30 23 1 6 22
M  V30 24 1 6 23
M  V30 25 1 7 24
M  V30 26 1 7 25
M  V30 27 1 10 26
M  V30 28 1 13 27
M  V30 29 1 13 28
M  V30 30 1 14 29
M  V30 31 1 14 30
M  V30 END BOND
M  V30 END CTAB
M  END
