
     RDKit          3D

  0  0  0  0  0  0  0  0  0  0999 V3000
M  V30 BEGIN CTAB
M  V30 COUNTS 22 22 0 0 0
M  V30 BEGIN ATOM
M  V30 1 N 4.4911 -1.00065 0.0909643 0
M  V30 2 N 3.19102 -0.557709 0.510409 0
M  V30 3 C 2.17488 -0.571584 -0.455554 0
M  V30 4 O 2.54549 -0.984691 -1.62464 0
M  V30 5 C 0.808425 -0.17322 -0.245193 0
M  V30 6 C 0.000157576 0.00693717 -1.38207 0
M  V30 7 C -1.31065 0.403601 -1.2626 0
M  V30 8 F -2.0557 0.564743 -2.40301 0
M  V30 9 C -1.90955 0.646638 -0.0471231 0
M  V30 10 C -1.13355 0.474925 1.07362 0
M  V30 11 C 0.208517 0.0689184 0.959076 0
M  V30 12 F 0.887827 -0.089195 2.11809 0
M  V30 13 F -1.68142 0.702738 2.28952 0
M  V30 14 N -3.26833 1.0553 0.0226969 0
M  V30 15 N -4.29246 0.106353 0.118729 0
M  V30 16 H 4.57213 -0.913457 -0.953952 0
M  V30 17 H 5.22547 -0.448507 0.585838 0
M  V30 18 H 3.07651 -0.248946 1.48598 0
M  V30 19 H 0.459223 -0.181049 -2.35736 0
M  V30 20 H -3.53555 2.05278 0.00476891 0
M  V30 21 H -4.09229 -0.648726 -0.594652 0
M  V30 22 H -4.36126 -0.265199 1.08559 0
M  V30 END ATOM
M  V30 BEGIN BOND
M  V30 1 1 1 2
M  V30 2 1 2 3
M  V30 3 2 3 4
M  V30 4 1 3 5
M  V30 5 2 5 6
M  V30 6 1 6 7
M  V30 7 1 7 8
M  V30 8 2 7 9
M  V30 9 1 9 10
M  V30 10 2 10 11
M  V30 11 1 11 12
M  V30 12 1 10 13
M  V30 13 1 9 14
M  V30 14 1 14 15
M  V30 15 1 11 5
M  V30 16 1 1 16
M  V30 17 1 1 17
M  V30 18 1 2 18
M  V30 19 1 6 19
M  V30 20 1 14 20
M  V30 21 1 15 21
M  V30 22 1 15 22
M  V30 END BOND
M  V30 END CTAB
M  END
