
     RDKit          3D

  0  0  0  0  0  0  0  0  0  0999 V3000
M  V30 BEGIN CTAB
M  V30 COUNTS 26 27 0 0 0
M  V30 BEGIN ATOM
M  V30 1 O -2.57483 -0.0658152 -1.62402 0
M  V30 2 C -2.8185 -0.278739 -0.425024 0
M  V30 3 C -2.8523 1.0024 0.382803 0
M  V30 4 N -1.4417 1.24943 0.637581 0
M  V30 5 C -0.870862 -0.0461753 0.95826 0 CFG=1
M  V30 6 C -1.74329 -1.07779 0.289156 0
M  V30 7 C 0.533542 -0.114239 0.495409 0
M  V30 8 N 1.32026 0.942576 0.750754 0
M  V30 9 C 2.60637 0.985007 0.376107 0
M  V30 10 N 3.41549 2.10891 0.656109 0
M  V30 11 N 3.09874 -0.0847793 -0.277776 0
M  V30 12 C 2.34097 -1.16955 -0.555145 0
M  V30 13 N 1.0572 -1.15452 -0.154205 0
M  V30 14 N 2.86547 -2.28339 -1.23957 0
M  V30 15 H -2.72528 0.343143 -2.23755 0
M  V30 16 H -3.7784 -0.81484 -0.337402 0
M  V30 17 H -3.39215 0.861977 1.3225 0
M  V30 18 H -3.31097 1.82299 -0.179119 0
M  V30 19 H -0.960408 1.71336 -0.144069 0
M  V30 20 H -0.86486 -0.183023 2.05629 0
M  V30 21 H -1.16265 -1.71332 -0.401032 0
M  V30 22 H -2.2426 -1.6853 1.06519 0
M  V30 23 H 3.51622 2.41295 1.64198 0
M  V30 24 H 3.88312 2.59805 -0.111534 0
M  V30 25 H 2.9832 -3.17706 -0.708719 0
M  V30 26 H 3.11822 -2.19226 -2.23698 0
M  V30 END ATOM
M  V30 BEGIN BOND
M  V30 1 1 1 2
M  V30 2 1 2 3
M  V30 3 1 3 4
M  V30 4 1 4 5
M  V30 5 1 5 6
M  V30 6 1 5 7
M  V30 7 2 7 8
M  V30 8 1 8 9
M  V30 9 1 9 10
M  V30 10 2 9 11
M  V30 11 1 11 12
M  V30 12 2 12 13
M  V30 13 1 12 14
M  V30 14 1 6 2
M  V30 15 1 13 7
M  V30 16 1 1 15
M  V30 17 1 2 16
M  V30 18 1 3 17
M  V30 19 1 3 18
M  V30 20 1 4 19
M  V30 21 1 5 20 CFG=1
M  V30 22 1 6 21
M  V30 23 1 6 22
M  V30 24 1 10 23
M  V30 25 1 10 24
M  V30 26 1 14 25
M  V30 27 1 14 26
M  V30 END BOND
M  V30 END CTAB
M  END
