
     RDKit          3D

  0  0  0  0  0  0  0  0  0  0999 V3000
M  V30 BEGIN CTAB
M  V30 COUNTS 44 44 0 0 0
M  V30 BEGIN ATOM
M  V30 1 N -4.58292 -0.978514 0.36385 0
M  V30 2 C -3.85523 0.233314 0.632484 0
M  V30 3 C -2.93137 0.618622 -0.504568 0
M  V30 4 C -1.896 -0.39867 -0.817266 0
M  V30 5 N -0.984043 -0.734576 0.23138 0
M  V30 6 C 0.265803 -0.0513035 0.440076 0
M  V30 7 O 0.538963 0.86844 -0.360652 0
M  V30 8 C 1.17971 -0.396911 1.52142 0
M  V30 9 C 2.45412 0.385637 1.58785 0
M  V30 10 C 3.31179 0.258568 0.381234 0
M  V30 11 C 3.95048 -0.962025 0.129134 0
M  V30 12 C 4.77227 -1.12864 -0.963057 0
M  V30 13 C 5.00684 -0.109339 -1.85828 0
M  V30 14 C 4.384 1.09647 -1.62068 0
M  V30 15 C 3.55274 1.26922 -0.51802 0
M  V30 16 N 3.25139 -0.0443355 2.73848 0
M  V30 17 C -1.29965 -1.81915 1.13175 0
M  V30 18 C -3.86208 0.782486 -1.72384 0
M  V30 19 C -2.3782 2.01025 -0.261047 0
M  V30 20 H -4.76019 -1.53736 1.23502 0
M  V30 21 H -4.22802 -1.53168 -0.426876 0
M  V30 22 H -4.64877 1.03256 0.747062 0
M  V30 23 H -3.3743 0.176578 1.60643 0
M  V30 24 H -2.31368 -1.33765 -1.24484 0
M  V30 25 H -1.26918 0.0299652 -1.65946 0
M  V30 26 H 0.669513 -0.300691 2.51876 0
M  V30 27 H 1.4329 -1.49361 1.47447 0
M  V30 28 H 2.20073 1.44878 1.76599 0
M  V30 29 H 3.7626 -1.76971 0.84145 0
M  V30 30 H 5.25074 -2.08141 -1.13094 0
M  V30 31 H 5.65427 -0.229038 -2.7252 0
M  V30 32 H 4.54028 1.92718 -2.30001 0
M  V30 33 H 3.06887 2.22747 -0.335993 0
M  V30 34 H 3.32333 -1.07509 2.79642 0
M  V30 35 H 2.98085 0.422626 3.61111 0
M  V30 36 H -1.68767 -1.42766 2.08447 0
M  V30 37 H -0.367751 -2.4283 1.35036 0
M  V30 38 H -2.01985 -2.54965 0.709519 0
M  V30 39 H -3.26907 1.15442 -2.58403 0
M  V30 40 H -4.66094 1.47289 -1.42807 0
M  V30 41 H -4.28071 -0.211251 -1.9807 0
M  V30 42 H -1.79909 2.35995 -1.13111 0
M  V30 43 H -3.24177 2.73278 -0.145097 0
M  V30 44 H -1.84171 2.08835 0.704702 0
M  V30 END ATOM
M  V30 BEGIN BOND
M  V30 1 1 1 2
M  V30 2 1 2 3
M  V30 3 1 3 4
M  V30 4 1 4 5
M  V30 5 1 5 6
M  V30 6 2 6 7
M  V30 7 1 6 8
M  V30 8 1 8 9
M  V30 9 1 9 10
M  V30 10 2 10 11
M  V30 11 1 11 12
M  V30 12 2 12 13
M  V30 13 1 13 14
M  V30 14 2 14 15
M  V30 15 1 9 16
M  V30 16 1 5 17
M  V30 17 1 3 18
M  V30 18 1 3 19
M  V30 19 1 15 10
M  V30 20 1 1 20
M  V30 21 1 1 21
M  V30 22 1 2 22
M  V30 23 1 2 23
M  V30 24 1 4 24
M  V30 25 1 4 25
M  V30 26 1 8 26
M  V30 27 1 8 27
M  V30 28 1 9 28
M  V30 29 1 11 29
M  V30 30 1 12 30
M  V30 31 1 13 31
M  V30 32 1 14 32
M  V30 33 1 15 33
M  V30 34 1 16 34
M  V30 35 1 16 35
M  V30 36 1 17 36
M  V30 37 1 17 37
M  V30 38 1 17 38
M  V30 39 1 18 39
M  V30 40 1 18 40
M  V30 41 1 18 41
M  V30 42 1 19 42
M  V30 43 1 19 43
M  V30 44 1 19 44
M  V30 END BOND
M  V30 END CTAB
M  END
