
     RDKit          3D

  0  0  0  0  0  0  0  0  0  0999 V3000
M  V30 BEGIN CTAB
M  V30 COUNTS 46 48 0 0 0
M  V30 BEGIN ATOM
M  V30 1 N -6.20358 -0.178052 -2.27566 0
M  V30 2 C -5.78544 0.0811076 -0.924708 0
M  V30 3 C -4.70756 -0.844213 -0.374635 0
M  V30 4 C -4.19207 0.3727 0.377064 0
M  V30 5 C -4.7389 1.19714 -0.797603 0
M  V30 6 C -2.75067 0.462494 0.57076 0
M  V30 7 C -1.86519 0.291091 -0.46712 0
M  V30 8 C -0.494507 0.388427 -0.220136 0
M  V30 9 N -0.0516762 0.646567 1.01822 0
M  V30 10 C -0.921218 0.812489 2.02505 0
M  V30 11 N -2.23083 0.717228 1.77758 0
M  V30 12 N -0.446877 1.09245 3.36267 0
M  V30 13 N 0.450928 0.21616 -1.27217 0
M  V30 14 C 1.88782 0.305829 -1.00572 0
M  V30 15 C 2.51368 -1.05183 -1.18054 0
M  V30 16 O 3.85859 -1.03615 -0.941834 0
M  V30 17 C 4.64407 -0.770734 0.110932 0
M  V30 18 C 6.03235 -0.859858 -0.106892 0
M  V30 19 C 6.9557 -0.617083 0.879413 0
M  V30 20 C 6.52081 -0.270212 2.14172 0
M  V30 21 C 5.17612 -0.167309 2.41548 0
M  V30 22 C 4.28079 -0.421674 1.38987 0
M  V30 23 Cl 4.56199 0.270077 3.99829 0
M  V30 24 C 0.0479204 -0.0517001 -2.63696 0
M  V30 25 H -6.45725 0.685987 -2.80379 0
M  V30 26 H -6.98736 -0.864851 -2.23041 0
M  V30 27 H -6.57342 0.209874 -0.165106 0
M  V30 28 H -5.11406 -1.63751 0.305683 0
M  V30 29 H -3.9636 -1.19842 -1.08739 0
M  V30 30 H -4.81169 0.506335 1.29972 0
M  V30 31 H -4.0178 1.21468 -1.62829 0
M  V30 32 H -5.1296 2.15028 -0.429658 0
M  V30 33 H -2.17108 0.084471 -1.46506 0
M  V30 34 H 0.109412 1.92926 3.53132 0
M  V30 35 H -0.717456 0.393891 4.08515 0
M  V30 36 H 2.10509 0.743842 -0.0445797 0
M  V30 37 H 2.26103 1.01395 -1.8089 0
M  V30 38 H 2.28576 -1.40093 -2.23882 0
M  V30 39 H 1.97719 -1.82555 -0.55993 0
M  V30 40 H 6.39764 -1.13134 -1.09415 0
M  V30 41 H 8.01482 -0.697299 0.667629 0
M  V30 42 H 7.20903 -0.0704981 2.94697 0
M  V30 43 H 3.24171 -0.35293 1.61781 0
M  V30 44 H 0.894008 -0.0218856 -3.33746 0
M  V30 45 H -0.69667 0.748787 -2.91255 0
M  V30 46 H -0.397984 -1.06511 -2.66925 0
M  V30 END ATOM
M  V30 BEGIN BOND
M  V30 1 1 1 2
M  V30 2 1 2 3
M  V30 3 1 3 4
M  V30 4 1 4 5
M  V30 5 1 4 6
M  V30 6 2 6 7
M  V30 7 1 7 8
M  V30 8 2 8 9
M  V30 9 1 9 10
M  V30 10 2 10 11
M  V30 11 1 10 12
M  V30 12 1 8 13
M  V30 13 1 13 14
M  V30 14 1 14 15
M  V30 15 1 15 16
M  V30 16 1 16 17
M  V30 17 2 17 18
M  V30 18 1 18 19
M  V30 19 2 19 20
M  V30 20 1 20 21
M  V30 21 2 21 22
M  V30 22 1 21 23
M  V30 23 1 13 24
M  V30 24 1 5 2
M  V30 25 1 11 6
M  V30 26 1 22 17
M  V30 27 1 1 25
M  V30 28 1 1 26
M  V30 29 1 2 27
M  V30 30 1 3 28
M  V30 31 1 3 29
M  V30 32 1 4 30
M  V30 33 1 5 31
M  V30 34 1 5 32
M  V30 35 1 7 33
M  V30 36 1 12 34
M  V30 37 1 12 35
M  V30 38 1 14 36
M  V30 39 1 14 37
M  V30 40 1 15 38
M  V30 41 1 15 39
M  V30 42 1 18 40
M  V30 43 1 19 41
M  V30 44 1 20 42
M  V30 45 1 22 43
M  V30 46 1 24 44
M  V30 47 1 24 45
M  V30 48 1 24 46
M  V30 END BOND
M  V30 END CTAB
M  END
