
     RDKit          3D

  0  0  0  0  0  0  0  0  0  0999 V3000
M  V30 BEGIN CTAB
M  V30 COUNTS 25 27 0 0 0
M  V30 BEGIN ATOM
M  V30 1 N -2.92829 2.00169 -0.768402 0
M  V30 2 C -2.43121 0.753823 -0.318812 0
M  V30 3 C -3.34125 -0.223431 0.00664964 0
M  V30 4 C -2.93128 -1.46469 0.452136 0
M  V30 5 C -1.58235 -1.72817 0.572572 0
M  V30 6 C -0.650487 -0.781157 0.258209 0
M  V30 7 C -1.0892 0.46848 -0.19082 0
M  V30 8 O -0.0142811 1.16347 -0.413506 0
M  V30 9 C 1.07856 0.476764 -0.149286 0
M  V30 10 C 2.41659 0.826579 -0.245025 0
M  V30 11 N 2.81203 2.11747 -0.691454 0
M  V30 12 C 3.34636 -0.13794 0.113676 0
M  V30 13 C 2.98793 -1.39543 0.549125 0
M  V30 14 C 1.65791 -1.73451 0.641249 0
M  V30 15 C 0.72632 -0.785031 0.287807 0
M  V30 16 H -3.08364 2.18604 -1.78424 0
M  V30 17 H -3.12824 2.71992 -0.0285295 0
M  V30 18 H -4.42688 -0.0514446 -0.0761745 0
M  V30 19 H -3.63729 -2.24828 0.713567 0
M  V30 20 H -1.20672 -2.68998 0.91898 0
M  V30 21 H 3.67557 2.31958 -1.22913 0
M  V30 22 H 2.19148 2.91743 -0.462995 0
M  V30 23 H 4.39481 0.14188 0.0366512 0
M  V30 24 H 3.76035 -2.13104 0.823992 0
M  V30 25 H 1.40322 -2.72205 0.983763 0
M  V30 END ATOM
M  V30 BEGIN BOND
M  V30 1 1 1 2
M  V30 2 2 2 3
M  V30 3 1 3 4
M  V30 4 2 4 5
M  V30 5 1 5 6
M  V30 6 2 6 7
M  V30 7 1 7 8
M  V30 8 1 8 9
M  V30 9 2 9 10
M  V30 10 1 10 11
M  V30 11 1 10 12
M  V30 12 2 12 13
M  V30 13 1 13 14
M  V30 14 2 14 15
M  V30 15 1 7 2
M  V30 16 1 15 9
M  V30 17 1 15 6
M  V30 18 1 1 16
M  V30 19 1 1 17
M  V30 20 1 3 18
M  V30 21 1 4 19
M  V30 22 1 5 20
M  V30 23 1 11 21
M  V30 24 1 11 22
M  V30 25 1 12 23
M  V30 26 1 13 24
M  V30 27 1 14 25
M  V30 END BOND
M  V30 END CTAB
M  END
