
     RDKit          3D

  0  0  0  0  0  0  0  0  0  0999 V3000
M  V30 BEGIN CTAB
M  V30 COUNTS 33 33 0 0 0
M  V30 BEGIN ATOM
M  V30 1 N 0.187411 2.73227 1.10378 0
M  V30 2 C -0.187962 1.27602 1.06044 0
M  V30 3 C 1.0125 0.548139 0.594908 0
M  V30 4 N 1.54078 -0.6176 1.05923 0
M  V30 5 N 2.64179 -0.906153 0.389085 0
M  V30 6 C 2.87583 0.0475905 -0.529865 0
M  V30 7 N 1.87383 0.92725 -0.392014 0
M  V30 8 N 3.97276 0.07638 -1.4395 0
M  V30 9 C 3.49459 -2.0721 0.590903 0
M  V30 10 C -1.39764 1.22144 0.245556 0
M  V30 11 C -2.12172 -0.0263518 -0.0174763 0
M  V30 12 C -3.38557 0.274916 -0.886719 0
M  V30 13 C -2.64243 -0.745738 1.18337 0
M  V30 14 C -1.29349 -1.00519 -0.816774 0
M  V30 15 H -0.712148 3.23097 1.28814 0
M  V30 16 H 0.578419 3.00312 0.175398 0
M  V30 17 H -0.310326 1.02405 2.13293 0
M  V30 18 H 3.88384 0.316165 -2.43569 0
M  V30 19 H 4.93828 -0.16067 -1.08066 0
M  V30 20 H 3.74001 -2.45092 -0.426759 0
M  V30 21 H 2.90946 -2.87185 1.10998 0
M  V30 22 H 4.41821 -1.81334 1.14109 0
M  V30 23 H -2.1888 1.9651 0.616721 0
M  V30 24 H -1.11629 1.73353 -0.745053 0
M  V30 25 H -3.61964 -0.640262 -1.45515 0
M  V30 26 H -3.12438 1.07298 -1.59819 0
M  V30 27 H -4.2337 0.496252 -0.231912 0
M  V30 28 H -1.84177 -1.41132 1.5635 0
M  V30 29 H -3.45404 -1.42911 0.829453 0
M  V30 30 H -3.08236 -0.096682 1.94616 0
M  V30 31 H -1.92772 -1.49276 -1.61654 0
M  V30 32 H -0.895237 -1.77996 -0.131843 0
M  V30 33 H -0.532499 -0.426184 -1.35988 0
M  V30 END ATOM
M  V30 BEGIN BOND
M  V30 1 1 1 2
M  V30 2 1 2 3
M  V30 3 2 3 4
M  V30 4 1 4 5
M  V30 5 1 5 6
M  V30 6 2 6 7
M  V30 7 1 6 8
M  V30 8 1 5 9
M  V30 9 1 2 10
M  V30 10 1 10 11
M  V30 11 1 11 12
M  V30 12 1 11 13
M  V30 13 1 11 14
M  V30 14 1 7 3
M  V30 15 1 1 15
M  V30 16 1 1 16
M  V30 17 1 2 17
M  V30 18 1 8 18
M  V30 19 1 8 19
M  V30 20 1 9 20
M  V30 21 1 9 21
M  V30 22 1 9 22
M  V30 23 1 10 23
M  V30 24 1 10 24
M  V30 25 1 12 25
M  V30 26 1 12 26
M  V30 27 1 12 27
M  V30 28 1 13 28
M  V30 29 1 13 29
M  V30 30 1 13 30
M  V30 31 1 14 31
M  V30 32 1 14 32
M  V30 33 1 14 33
M  V30 END BOND
M  V30 END CTAB
M  END
