
     RDKit          3D

  0  0  0  0  0  0  0  0  0  0999 V3000
M  V30 BEGIN CTAB
M  V30 COUNTS 20 20 0 0 0
M  V30 BEGIN ATOM
M  V30 1 N -3.26734 -1.29508 0.285432 0
M  V30 2 N -1.8761 -1.10525 0.25807 0
M  V30 3 C -1.6032 0.264999 -0.0883928 0
M  V30 4 C -0.114961 0.492316 -0.119971 0
M  V30 5 C 0.363718 1.74883 -0.475511 0
M  V30 6 C 1.70417 2.0112 -0.520001 0
M  V30 7 N 2.55358 1.01497 -0.208644 0
M  V30 8 C 2.12458 -0.211623 0.139353 0
M  V30 9 C 0.7817 -0.507476 0.193585 0
M  V30 10 N 3.05849 -1.23725 0.461337 0
M  V30 11 H -3.59278 -0.86985 1.19085 0
M  V30 12 H -3.68274 -0.834145 -0.539132 0
M  V30 13 H -1.40733 -1.78528 -0.382541 0
M  V30 14 H -2.02025 0.896801 0.729208 0
M  V30 15 H -2.08282 0.597991 -1.01946 0
M  V30 16 H -0.33163 2.53912 -0.723015 0
M  V30 17 H 2.10727 2.99835 -0.798681 0
M  V30 18 H 0.414243 -1.4747 0.46781 0
M  V30 19 H 4.06952 -1.16121 0.14518 0
M  V30 20 H 2.80186 -2.08273 1.00453 0
M  V30 END ATOM
M  V30 BEGIN BOND
M  V30 1 1 1 2
M  V30 2 1 2 3
M  V30 3 1 3 4
M  V30 4 2 4 5
M  V30 5 1 5 6
M  V30 6 2 6 7
M  V30 7 1 7 8
M  V30 8 2 8 9
M  V30 9 1 8 10
M  V30 10 1 9 4
M  V30 11 1 1 11
M  V30 12 1 1 12
M  V30 13 1 2 13
M  V30 14 1 3 14
M  V30 15 1 3 15
M  V30 16 1 5 16
M  V30 17 1 6 17
M  V30 18 1 9 18
M  V30 19 1 10 19
M  V30 20 1 10 20
M  V30 END BOND
M  V30 END CTAB
M  END
