
     RDKit          3D

  0  0  0  0  0  0  0  0  0  0999 V3000
M  V30 BEGIN CTAB
M  V30 COUNTS 34 34 0 0 0
M  V30 BEGIN ATOM
M  V30 1 N -2.07962 1.28029 -1.804 0
M  V30 2 C -2.43214 -0.0783298 -1.39023 0
M  V30 3 C -2.50946 -0.0778966 0.103698 0
M  V30 4 C -1.29285 0.269804 0.813715 0
M  V30 5 C -0.0537658 -0.502794 0.748747 0
M  V30 6 C 0.996836 0.176679 1.62536 0
M  V30 7 C 1.60297 1.365 0.980688 0
M  V30 8 C 2.44383 1.07668 -0.220545 0
M  V30 9 C 3.01511 -0.284454 -0.276774 0
M  V30 10 C 1.99615 -1.34593 -0.338936 0
M  V30 11 C 0.55614 -0.865615 -0.541456 0
M  V30 12 N -3.15734 -1.30131 0.554989 0
M  V30 13 H -1.16788 1.31522 -2.29839 0
M  V30 14 H -2.13191 1.97122 -1.03779 0
M  V30 15 H -1.8379 -0.854865 -1.85755 0
M  V30 16 H -3.5025 -0.290467 -1.74163 0
M  V30 17 H -3.28554 0.724622 0.349599 0
M  V30 18 H -1.5114 0.410493 1.93265 0
M  V30 19 H -1.00898 1.34856 0.540536 0
M  V30 20 H -0.239218 -1.48905 1.30361 0
M  V30 21 H 1.74983 -0.494997 2.03005 0
M  V30 22 H 0.419003 0.557159 2.52088 0
M  V30 23 H 2.27152 1.84725 1.74016 0
M  V30 24 H 0.859678 2.14145 0.715451 0
M  V30 25 H 3.33557 1.7841 -0.251537 0
M  V30 26 H 1.91468 1.29774 -1.16711 0
M  V30 27 H 3.66284 -0.351927 -1.18791 0
M  V30 28 H 3.72124 -0.408548 0.574036 0
M  V30 29 H 2.2331 -2.12532 -1.11481 0
M  V30 30 H 1.98373 -1.9125 0.632772 0
M  V30 31 H 0.0624739 -1.78194 -1.00204 0
M  V30 32 H 0.493308 -0.0984208 -1.31355 0
M  V30 33 H -4.19984 -1.23741 0.515356 0
M  V30 34 H -2.90768 -2.06448 -0.138043 0
M  V30 END ATOM
M  V30 BEGIN BOND
M  V30 1 1 1 2
M  V30 2 1 2 3
M  V30 3 1 3 4
M  V30 4 1 4 5
M  V30 5 1 5 6
M  V30 6 1 6 7
M  V30 7 1 7 8
M  V30 8 1 8 9
M  V30 9 1 9 10
M  V30 10 1 10 11
M  V30 11 1 3 12
M  V30 12 1 11 5
M  V30 13 1 1 13
M  V30 14 1 1 14
M  V30 15 1 2 15
M  V30 16 1 2 16
M  V30 17 1 3 17
M  V30 18 1 4 18
M  V30 19 1 4 19
M  V30 20 1 5 20
M  V30 21 1 6 21
M  V30 22 1 6 22
M  V30 23 1 7 23
M  V30 24 1 7 24
M  V30 25 1 8 25
M  V30 26 1 8 26
M  V30 27 1 9 27
M  V30 28 1 9 28
M  V30 29 1 10 29
M  V30 30 1 10 30
M  V30 31 1 11 31
M  V30 32 1 11 32
M  V30 33 1 12 33
M  V30 34 1 12 34
M  V30 END BOND
M  V30 END CTAB
M  END
