
     RDKit          3D

  0  0  0  0  0  0  0  0  0  0999 V3000
M  V30 BEGIN CTAB
M  V30 COUNTS 30 31 0 0 0
M  V30 BEGIN ATOM
M  V30 1 C -0.780776 2.58595 -0.143249 0
M  V30 2 N -0.870189 1.54068 0.870291 0
M  V30 3 C -0.787828 0.253638 0.1945 0
M  V30 4 C -1.89293 0.00328692 -0.772141 0
M  V30 5 C -2.3439 -1.43641 -0.568281 0
M  V30 6 C -1.28309 -2.01073 0.372427 0
M  V30 7 C -1.05119 -0.798549 1.27726 0
M  V30 8 C 0.493644 0.0598752 -0.500116 0
M  V30 9 N 0.710651 -0.119533 -1.80271 0
M  V30 10 N 1.99353 -0.262181 -2.05708 0
M  V30 11 C 2.65705 -0.181683 -0.898003 0
M  V30 12 N 1.7265 0.0154055 0.0477121 0
M  V30 13 N 2.06455 0.13516 1.39966 0
M  V30 14 N 4.06769 -0.292173 -0.717063 0
M  V30 15 H -1.78745 2.91907 -0.450307 0
M  V30 16 H -0.178793 3.39995 0.285888 0
M  V30 17 H -0.239807 2.20919 -1.05421 0
M  V30 18 H -1.76978 1.61926 1.35293 0
M  V30 19 H -2.74401 0.652427 -0.495598 0
M  V30 20 H -1.57057 0.1256 -1.82761 0
M  V30 21 H -3.29999 -1.46969 0.0114887 0
M  V30 22 H -2.39932 -1.99767 -1.50313 0
M  V30 23 H -0.337903 -2.19845 -0.177478 0
M  V30 24 H -1.64689 -2.86843 0.935548 0
M  V30 25 H -0.214352 -0.9368 1.95766 0
M  V30 26 H -2.01724 -0.560218 1.74631 0
M  V30 27 H 2.25812 -0.779817 1.89522 0
M  V30 28 H 2.1197 1.03799 1.92448 0
M  V30 29 H 4.66759 -0.282908 -1.54967 0
M  V30 30 H 4.45699 -0.362231 0.245264 0
M  V30 END ATOM
M  V30 BEGIN BOND
M  V30 1 1 1 2
M  V30 2 1 2 3
M  V30 3 1 3 4
M  V30 4 1 4 5
M  V30 5 1 5 6
M  V30 6 1 6 7
M  V30 7 1 3 8
M  V30 8 2 8 9
M  V30 9 1 9 10
M  V30 10 2 10 11
M  V30 11 1 11 12
M  V30 12 1 12 13
M  V30 13 1 11 14
M  V30 14 1 7 3
M  V30 15 1 12 8
M  V30 16 1 1 15
M  V30 17 1 1 16
M  V30 18 1 1 17
M  V30 19 1 2 18
M  V30 20 1 4 19
M  V30 21 1 4 20
M  V30 22 1 5 21
M  V30 23 1 5 22
M  V30 24 1 6 23
M  V30 25 1 6 24
M  V30 26 1 7 25
M  V30 27 1 7 26
M  V30 28 1 13 27
M  V30 29 1 13 28
M  V30 30 1 14 29
M  V30 31 1 14 30
M  V30 END BOND
M  V30 END CTAB
M  END
