
     RDKit          3D

  0  0  0  0  0  0  0  0  0  0999 V3000
M  V30 BEGIN CTAB
M  V30 COUNTS 25 26 0 0 0
M  V30 BEGIN ATOM
M  V30 1 N -1.31603 2.0109 -0.258679 0
M  V30 2 C -1.69206 0.639168 -0.275915 0
M  V30 3 C -2.8694 0.294799 -0.948501 0
M  V30 4 C -3.29579 -1.01135 -0.991967 0
M  V30 5 N -2.56271 -1.94339 -0.378968 0
M  V30 6 C -1.41609 -1.62923 0.279434 0
M  V30 7 C -0.954926 -0.33739 0.346526 0
M  V30 8 C 0.296762 -0.0305557 1.05275 0
M  V30 9 C 1.45414 0.147417 0.124983 0
M  V30 10 C 2.74341 0.295061 0.618002 0
M  V30 11 C 3.59897 0.438825 -0.460607 0
M  V30 12 C 2.7713 0.370068 -1.57415 0
M  V30 13 O 1.51911 0.197739 -1.16763 0
M  V30 14 N 0.669177 -1.01678 2.04387 0
M  V30 15 H -0.382911 2.27355 -0.612829 0
M  V30 16 H -1.95661 2.76085 0.102034 0
M  V30 17 H -3.44591 1.08036 -1.43971 0
M  V30 18 H -4.21195 -1.2089 -1.52753 0
M  V30 19 H -0.874211 -2.40774 0.747419 0
M  V30 20 H 0.190706 0.930485 1.6474 0
M  V30 21 H 3.08941 0.305782 1.64306 0
M  V30 22 H 4.67817 0.575351 -0.421604 0
M  V30 23 H 3.13454 0.449316 -2.58867 0
M  V30 24 H 1.04493 -1.84145 1.53521 0
M  V30 25 H -0.212001 -1.34288 2.50607 0
M  V30 END ATOM
M  V30 BEGIN BOND
M  V30 1 1 1 2
M  V30 2 2 2 3
M  V30 3 1 3 4
M  V30 4 2 4 5
M  V30 5 1 5 6
M  V30 6 2 6 7
M  V30 7 1 7 8
M  V30 8 1 8 9
M  V30 9 2 9 10
M  V30 10 1 10 11
M  V30 11 2 11 12
M  V30 12 1 12 13
M  V30 13 1 8 14
M  V30 14 1 7 2
M  V30 15 1 13 9
M  V30 16 1 1 15
M  V30 17 1 1 16
M  V30 18 1 3 17
M  V30 19 1 4 18
M  V30 20 1 6 19
M  V30 21 1 8 20
M  V30 22 1 10 21
M  V30 23 1 11 22
M  V30 24 1 12 23
M  V30 25 1 14 24
M  V30 26 1 14 25
M  V30 END BOND
M  V30 END CTAB
M  END
