
     RDKit          3D

  0  0  0  0  0  0  0  0  0  0999 V3000
M  V30 BEGIN CTAB
M  V30 COUNTS 34 36 0 0 0
M  V30 BEGIN ATOM
M  V30 1 N 6.51893 -0.653831 -2.33744 0
M  V30 2 C 5.56383 0.15357 -1.61684 0
M  V30 3 N 4.55701 0.874662 -2.09694 0
M  V30 4 N 3.81407 1.52297 -1.31224 0
M  V30 5 C 4.03105 1.49059 -0.00437643 0
M  V30 6 S 5.40771 0.444431 0.059429 0
M  V30 7 S 3.16424 2.29133 1.34626 0
M  V30 8 C 1.81173 1.22504 1.95284 0
M  V30 9 C 0.766596 1.07993 0.948197 0
M  V30 10 O 0.91957 1.69768 -0.162533 0
M  V30 11 C -0.427359 0.302208 1.0919 0
M  V30 12 C -0.679731 -0.417249 2.27371 0
M  V30 13 O 0.159402 -0.365353 3.20615 0
M  V30 14 N -1.79758 -1.14266 2.39441 0
M  V30 15 C -2.67753 -1.18708 1.39537 0
M  V30 16 O -3.70515 -1.87673 1.55328 0
M  V30 17 N -2.52653 -0.534656 0.227003 0
M  V30 18 C -1.38605 0.199078 0.117086 0
M  V30 19 N -1.1322 0.927205 -1.07813 0
M  V30 20 C -3.43505 -0.552176 -0.872278 0
M  V30 21 C -4.87747 -0.328117 -0.554992 0
M  V30 22 C -4.37703 -1.62377 -1.19055 0
M  V30 23 H 6.93715 -0.401395 -3.23564 0
M  V30 24 H 6.76422 -1.547 -1.86195 0
M  V30 25 H 2.32155 0.25403 2.21983 0
M  V30 26 H 1.44986 1.73475 2.88956 0
M  V30 27 H -1.97091 -1.66665 3.26665 0
M  V30 28 H -1.51618 1.87104 -1.17922 0
M  V30 29 H -0.559464 0.472611 -1.81644 0
M  V30 30 H -3.10003 0.0589191 -1.75958 0
M  V30 31 H -5.50397 0.321324 -1.2133 0
M  V30 32 H -5.26418 -0.347166 0.48048 0
M  V30 33 H -4.57789 -2.51874 -0.607872 0
M  V30 34 H -4.67261 -1.7588 -2.26929 0
M  V30 END ATOM
M  V30 BEGIN BOND
M  V30 1 1 1 2
M  V30 2 2 2 3
M  V30 3 1 3 4
M  V30 4 2 4 5
M  V30 5 1 5 6
M  V30 6 1 5 7
M  V30 7 1 7 8
M  V30 8 1 8 9
M  V30 9 2 9 10
M  V30 10 1 9 11
M  V30 11 1 11 12
M  V30 12 2 12 13
M  V30 13 1 12 14
M  V30 14 1 14 15
M  V30 15 2 15 16
M  V30 16 1 15 17
M  V30 17 1 17 18
M  V30 18 1 18 19
M  V30 19 1 17 20
M  V30 20 1 20 21
M  V30 21 1 21 22
M  V30 22 1 6 2
M  V30 23 2 18 11
M  V30 24 1 22 20
M  V30 25 1 1 23
M  V30 26 1 1 24
M  V30 27 1 8 25
M  V30 28 1 8 26
M  V30 29 1 14 27
M  V30 30 1 19 28
M  V30 31 1 19 29
M  V30 32 1 20 30
M  V30 33 1 21 31
M  V30 34 1 21 32
M  V30 35 1 22 33
M  V30 36 1 22 34
M  V30 END BOND
M  V30 END CTAB
M  END
