
     RDKit          3D

  0  0  0  0  0  0  0  0  0  0999 V3000
M  V30 BEGIN CTAB
M  V30 COUNTS 28 29 0 0 0
M  V30 BEGIN ATOM
M  V30 1 N -5.32678 -0.556086 -0.256858 0
M  V30 2 C -4.033 0.0353873 -0.113172 0
M  V30 3 C -3.08787 -0.0127911 -1.11098 0
M  V30 4 C -1.84114 0.563628 -0.957694 0
M  V30 5 S -0.604538 0.51045 -2.24062 0
M  V30 6 S 0.571296 -1.21511 -1.99485 0
M  V30 7 C 1.98336 -0.9474 -0.960118 0
M  V30 8 C 2.82717 -2.01413 -0.729421 0
M  V30 9 C 3.95329 -1.92498 0.0564628 0
M  V30 10 C 4.24045 -0.707567 0.634354 0
M  V30 11 C 3.41737 0.376761 0.42317 0
M  V30 12 N 3.72823 1.62503 1.02676 0
M  V30 13 C 2.29463 0.258467 -0.369649 0
M  V30 14 C -1.54391 1.20061 0.225935 0
M  V30 15 C -2.45329 1.26679 1.2315 0
M  V30 16 C -3.69706 0.682616 1.05764 0
M  V30 17 H -6.13116 -0.0696053 -0.702813 0
M  V30 18 H -5.45614 -1.53098 0.111079 0
M  V30 19 H -3.33191 -0.51383 -2.03237 0
M  V30 20 H 2.63208 -2.99467 -1.17052 0
M  V30 21 H 4.5887 -2.79742 0.208326 0
M  V30 22 H 5.14067 -0.630339 1.26448 0
M  V30 23 H 3.76386 1.64222 2.088 0
M  V30 24 H 3.91803 2.4995 0.510372 0
M  V30 25 H 1.63111 1.0942 -0.552026 0
M  V30 26 H -0.56572 1.64257 0.322536 0
M  V30 27 H -2.22111 1.76963 2.1682 0
M  V30 28 H -4.39662 0.747043 1.86226 0
M  V30 END ATOM
M  V30 BEGIN BOND
M  V30 1 1 1 2
M  V30 2 2 2 3
M  V30 3 1 3 4
M  V30 4 1 4 5
M  V30 5 1 5 6
M  V30 6 1 6 7
M  V30 7 2 7 8
M  V30 8 1 8 9
M  V30 9 2 9 10
M  V30 10 1 10 11
M  V30 11 1 11 12
M  V30 12 2 11 13
M  V30 13 2 4 14
M  V30 14 1 14 15
M  V30 15 2 15 16
M  V30 16 1 16 2
M  V30 17 1 13 7
M  V30 18 1 1 17
M  V30 19 1 1 18
M  V30 20 1 3 19
M  V30 21 1 8 20
M  V30 22 1 9 21
M  V30 23 1 10 22
M  V30 24 1 12 23
M  V30 25 1 12 24
M  V30 26 1 13 25
M  V30 27 1 14 26
M  V30 28 1 15 27
M  V30 29 1 16 28
M  V30 END BOND
M  V30 END CTAB
M  END
