
     RDKit          3D

  0  0  0  0  0  0  0  0  0  0999 V3000
M  V30 BEGIN CTAB
M  V30 COUNTS 33 33 0 0 0
M  V30 BEGIN ATOM
M  V30 1 C 3.20711 -0.69872 1.10386 0
M  V30 2 C 2.40302 -0.307844 -0.172125 0
M  V30 3 C 0.990272 -0.374096 0.259494 0
M  V30 4 C -0.0756193 0.0138914 -0.778656 0
M  V30 5 C -1.3472 -0.146208 -0.0739054 0
M  V30 6 C -2.07426 1.03093 0.132208 0
M  V30 7 C -1.62661 2.35184 -0.298659 0
M  V30 8 C -3.27715 0.974465 0.795333 0
M  V30 9 C -3.73013 -0.253082 1.23034 0
M  V30 10 N -3.02838 -1.36969 1.02258 0
M  V30 11 C -1.81736 -1.351 0.363008 0
M  V30 12 N -1.19031 -2.56833 0.041914 0
M  V30 13 N -0.0748088 -1.0069 -1.84624 0
M  V30 14 C 2.88211 1.07632 -0.55281 0
M  V30 15 H 4.27364 -0.605876 0.888209 0
M  V30 16 H 2.84423 0.085032 1.84899 0
M  V30 17 H 2.86169 -1.69068 1.38013 0
M  V30 18 H 2.69574 -1.01404 -0.959221 0
M  V30 19 H 0.73131 -1.31233 0.709763 0
M  V30 20 H 0.818628 0.396586 1.10081 0
M  V30 21 H 0.185371 0.923738 -1.25122 0
M  V30 22 H -0.603899 2.495 -0.59351 0
M  V30 23 H -1.76526 3.02444 0.61195 0
M  V30 24 H -2.38905 2.73721 -1.01389 0
M  V30 25 H -3.87954 1.89247 0.986023 0
M  V30 26 H -4.6863 -0.259727 1.76282 0
M  V30 27 H -0.596296 -3.10793 0.66338 0
M  V30 28 H -1.3821 -2.9702 -0.929508 0
M  V30 29 H 0.619057 -1.77063 -1.65093 0
M  V30 30 H -0.0111759 -0.615274 -2.78641 0
M  V30 31 H 2.03385 1.79697 -0.71444 0
M  V30 32 H 3.46337 1.08653 -1.51079 0
M  V30 33 H 3.54605 1.53713 0.231524 0
M  V30 END ATOM
M  V30 BEGIN BOND
M  V30 1 1 1 2
M  V30 2 1 2 3
M  V30 3 1 3 4
M  V30 4 1 4 5
M  V30 5 2 5 6
M  V30 6 1 6 7
M  V30 7 1 6 8
M  V30 8 2 8 9
M  V30 9 1 9 10
M  V30 10 2 10 11
M  V30 11 1 11 12
M  V30 12 1 4 13
M  V30 13 1 2 14
M  V30 14 1 11 5
M  V30 15 1 1 15
M  V30 16 1 1 16
M  V30 17 1 1 17
M  V30 18 1 2 18
M  V30 19 1 3 19
M  V30 20 1 3 20
M  V30 21 1 4 21
M  V30 22 1 7 22
M  V30 23 1 7 23
M  V30 24 1 7 24
M  V30 25 1 8 25
M  V30 26 1 9 26
M  V30 27 1 12 27
M  V30 28 1 12 28
M  V30 29 1 13 29
M  V30 30 1 13 30
M  V30 31 1 14 31
M  V30 32 1 14 32
M  V30 33 1 14 33
M  V30 END BOND
M  V30 END CTAB
M  END
