
     RDKit          3D

  0  0  0  0  0  0  0  0  0  0999 V3000
M  V30 BEGIN CTAB
M  V30 COUNTS 30 31 0 0 0
M  V30 BEGIN ATOM
M  V30 1 C -3.3414 1.38201 0.485841 0
M  V30 2 C -2.47852 0.163723 0.479307 0
M  V30 3 C -1.07372 0.504323 0.901405 0
M  V30 4 C -0.0609162 0.210377 -0.185518 0
M  V30 5 N -0.150044 -1.19762 -0.490529 0
M  V30 6 C -1.45092 -1.61287 -0.903901 0
M  V30 7 C -2.48937 -0.530064 -0.855717 0
M  V30 8 C 1.28434 0.485184 0.397544 0
M  V30 9 N 1.56841 1.23672 1.48223 0
M  V30 10 N 2.85229 1.26578 1.71532 0
M  V30 11 C 3.43788 0.522697 0.772951 0
M  V30 12 N 2.48286 0.0478952 -0.0287831 0
M  V30 13 N 2.70105 -0.781596 -1.14611 0
M  V30 14 N 4.86021 0.304918 0.684566 0
M  V30 15 H -2.97614 2.10244 1.25856 0
M  V30 16 H -3.2936 1.85228 -0.517308 0
M  V30 17 H -4.39231 1.14841 0.703277 0
M  V30 18 H -2.89321 -0.550188 1.22114 0
M  V30 19 H -0.752566 -0.0963407 1.79547 0
M  V30 20 H -0.948856 1.57668 1.165 0
M  V30 21 H -0.240937 0.780506 -1.10593 0
M  V30 22 H 0.21707 -1.73384 0.326451 0
M  V30 23 H -1.80909 -2.46895 -0.283555 0
M  V30 24 H -1.43763 -1.99801 -1.95907 0
M  V30 25 H -3.48102 -1.0183 -0.962833 0
M  V30 26 H -2.41341 0.189492 -1.70549 0
M  V30 27 H 3.30493 -0.462406 -1.93544 0
M  V30 28 H 2.27672 -1.73121 -1.23027 0
M  V30 29 H 5.5072 1.07565 0.450168 0
M  V30 30 H 5.19071 -0.667702 0.86988 0
M  V30 END ATOM
M  V30 BEGIN BOND
M  V30 1 1 1 2
M  V30 2 1 2 3
M  V30 3 1 3 4
M  V30 4 1 4 5
M  V30 5 1 5 6
M  V30 6 1 6 7
M  V30 7 1 4 8
M  V30 8 2 8 9
M  V30 9 1 9 10
M  V30 10 2 10 11
M  V30 11 1 11 12
M  V30 12 1 12 13
M  V30 13 1 11 14
M  V30 14 1 7 2
M  V30 15 1 12 8
M  V30 16 1 1 15
M  V30 17 1 1 16
M  V30 18 1 1 17
M  V30 19 1 2 18
M  V30 20 1 3 19
M  V30 21 1 3 20
M  V30 22 1 4 21
M  V30 23 1 5 22
M  V30 24 1 6 23
M  V30 25 1 6 24
M  V30 26 1 7 25
M  V30 27 1 7 26
M  V30 28 1 13 27
M  V30 29 1 13 28
M  V30 30 1 14 29
M  V30 31 1 14 30
M  V30 END BOND
M  V30 END CTAB
M  END
