
     RDKit          3D

  0  0  0  0  0  0  0  0  0  0999 V3000
M  V30 BEGIN CTAB
M  V30 COUNTS 30 31 0 0 0
M  V30 BEGIN ATOM
M  V30 1 N -2.04313 1.17364 -1.66577 0
M  V30 2 C -2.56899 0.328272 -0.655577 0
M  V30 3 C -3.97458 0.274814 -0.609401 0
M  V30 4 C -4.63526 -0.52601 0.286431 0
M  V30 5 C -3.95624 -1.31566 1.18309 0
M  V30 6 C -2.58967 -1.25584 1.13054 0
M  V30 7 C -1.87764 -0.437865 0.217008 0
M  V30 8 C -0.440109 -0.458771 0.332524 0
M  V30 9 C 0.377655 0.349686 -0.248913 0
M  V30 10 C 1.842 0.397478 -0.189524 0
M  V30 11 C 2.50115 1.37158 -0.968459 0
M  V30 12 C 3.86415 1.49653 -0.973131 0
M  V30 13 C 4.67808 0.685174 -0.222807 0
M  V30 14 C 4.06091 -0.263595 0.537888 0
M  V30 15 C 2.65634 -0.40295 0.551893 0
M  V30 16 N 2.1334 -1.42521 1.39259 0
M  V30 17 H -1.65088 0.79152 -2.56056 0
M  V30 18 H -2.05962 2.2214 -1.49845 0
M  V30 19 H -4.51058 0.904708 -1.32416 0
M  V30 20 H -5.7141 -0.537287 0.288335 0
M  V30 21 H -4.50248 -1.94162 1.8821 0
M  V30 22 H -2.068 -1.88514 1.84641 0
M  V30 23 H -0.0387688 -1.26483 0.973458 0
M  V30 24 H -0.0415254 1.15915 -0.867668 0
M  V30 25 H 1.90064 2.03083 -1.57494 0
M  V30 26 H 4.36455 2.25735 -1.58259 0
M  V30 27 H 5.75157 0.800726 -0.241242 0
M  V30 28 H 4.65548 -0.927761 1.14675 0
M  V30 29 H 2.02533 -2.41533 1.03476 0
M  V30 30 H 1.86032 -1.185 2.37943 0
M  V30 END ATOM
M  V30 BEGIN BOND
M  V30 1 1 1 2
M  V30 2 2 2 3
M  V30 3 1 3 4
M  V30 4 2 4 5
M  V30 5 1 5 6
M  V30 6 2 6 7
M  V30 7 1 7 8
M  V30 8 2 8 9 CFG=2
M  V30 9 1 9 10
M  V30 10 2 10 11
M  V30 11 1 11 12
M  V30 12 2 12 13
M  V30 13 1 13 14
M  V30 14 2 14 15
M  V30 15 1 15 16
M  V30 16 1 7 2
M  V30 17 1 15 10
M  V30 18 1 1 17
M  V30 19 1 1 18
M  V30 20 1 3 19
M  V30 21 1 4 20
M  V30 22 1 5 21
M  V30 23 1 6 22
M  V30 24 1 8 23
M  V30 25 1 9 24
M  V30 26 1 11 25
M  V30 27 1 12 26
M  V30 28 1 13 27
M  V30 29 1 14 28
M  V30 30 1 16 29
M  V30 31 1 16 30
M  V30 END BOND
M  V30 END CTAB
M  END
