
     RDKit          3D

  0  0  0  0  0  0  0  0  0  0999 V3000
M  V30 BEGIN CTAB
M  V30 COUNTS 77 80 0 0 0
M  V30 BEGIN ATOM
M  V30 1 N -6.83632 -5.07214 -1.32657 0
M  V30 2 C -5.74927 -4.36783 -0.716266 0
M  V30 3 C -5.96844 -3.25351 0.065267 0
M  V30 4 C -4.86684 -2.61133 0.63209 0
M  V30 5 C -3.59639 -3.07899 0.415898 0
M  V30 6 C -3.41503 -4.18527 -0.363418 0
M  V30 7 C -4.47379 -4.84311 -0.937539 0
M  V30 8 S -2.22142 -2.29948 1.10888 0
M  V30 9 O -2.6818 -1.65423 2.40949 0
M  V30 10 O -1.17066 -3.29528 1.50035 0
M  V30 11 N -1.53081 -1.08795 0.152245 0
M  V30 12 C -2.41128 0.01341 -0.131099 0
M  V30 13 C -2.21114 1.14862 0.84981 0
M  V30 14 C -1.30232 2.22842 0.247809 0
M  V30 15 N -0.448569 2.73983 1.26362 0
M  V30 16 C 0.129401 4.02291 1.0181 0
M  V30 17 C -0.815369 5.1246 0.835295 0
M  V30 18 C -1.21269 5.51431 -0.419351 0
M  V30 19 C -2.11232 6.56281 -0.609459 0
M  V30 20 C -2.60604 7.2135 0.490369 0
M  V30 21 C -2.22756 6.84772 1.77336 0
M  V30 22 C -1.3237 5.79204 1.92415 0
M  V30 23 C 0.551662 1.83167 1.71958 0
M  V30 24 C 1.68391 1.80103 0.709294 0
M  V30 25 C 2.33583 0.426313 0.822725 0
M  V30 26 N 1.84127 -0.362791 -0.263059 0
M  V30 27 C 1.55486 -1.71904 0.0763667 0
M  V30 28 C 0.422954 -2.30015 -0.676908 0
M  V30 29 C 0.524505 -3.55154 -1.08105 0
M  V30 30 C -0.815013 -1.55403 -1.00018 0
M  V30 31 S 2.9519 -0.28633 -1.57051 0
M  V30 32 O 2.34372 -0.992691 -2.77171 0
M  V30 33 O 3.14367 1.15344 -2.03077 0
M  V30 34 C 4.52326 -0.914109 -1.20087 0
M  V30 35 C 4.83122 -2.24358 -1.36914 0
M  V30 36 C 6.10803 -2.72547 -1.06543 0
M  V30 37 C 7.09207 -1.88317 -0.59005 0
M  V30 38 N 8.40498 -2.38806 -0.279502 0
M  V30 39 C 6.78445 -0.555785 -0.422464 0
M  V30 40 C 5.52422 -0.103794 -0.726812 0
M  V30 41 H -6.7772 -5.4997 -2.27583 0
M  V30 42 H -7.74924 -5.183 -0.826451 0
M  V30 43 H -6.9855 -2.8997 0.223393 0
M  V30 44 H -5.07949 -1.73643 1.24204 0
M  V30 45 H -2.42385 -4.57953 -0.553844 0
M  V30 46 H -4.31023 -5.73888 -1.56673 0
M  V30 47 H -3.48055 -0.286813 -0.0844115 0
M  V30 48 H -2.19492 0.399765 -1.13612 0
M  V30 49 H -1.83101 0.792146 1.81528 0
M  V30 50 H -3.20595 1.63024 1.07982 0
M  V30 51 H -1.94828 2.9621 -0.223943 0
M  V30 52 H -0.667472 1.67081 -0.492746 0
M  V30 53 H 0.813151 3.9053 0.126243 0
M  V30 54 H 0.836909 4.3144 1.84395 0
M  V30 55 H -0.856097 5.03769 -1.32293 0
M  V30 56 H -2.43726 6.88487 -1.5862 0
M  V30 57 H -3.31603 8.04441 0.413044 0
M  V30 58 H -2.5963 7.33662 2.64024 0
M  V30 59 H -1.05285 5.53589 2.93638 0
M  V30 60 H 0.970338 2.21483 2.69594 0
M  V30 61 H 0.202353 0.813384 1.93543 0
M  V30 62 H 1.33772 1.98982 -0.327257 0
M  V30 63 H 2.41331 2.61108 0.935652 0
M  V30 64 H 3.431 0.584027 0.7948 0
M  V30 65 H 2.12726 -0.0307227 1.81502 0
M  V30 66 H 1.32616 -1.86795 1.15295 0
M  V30 67 H 2.4731 -2.31227 -0.107817 0
M  V30 68 H 1.4244 -4.11157 -0.852026 0
M  V30 69 H -0.29786 -4.01003 -1.64103 0
M  V30 70 H -1.48918 -2.11038 -1.65756 0
M  V30 71 H -0.505776 -0.634274 -1.57341 0
M  V30 72 H 4.1082 -2.94132 -1.73567 0
M  V30 73 H 6.37339 -3.76755 -1.18969 0
M  V30 74 H 8.48001 -3.35787 0.0644409 0
M  V30 75 H 9.25892 -1.81512 -0.390174 0
M  V30 76 H 7.53395 0.124634 -0.0526035 0
M  V30 77 H 5.33974 0.940117 -0.580729 0
M  V30 END ATOM
M  V30 BEGIN BOND
M  V30 1 1 1 2
M  V30 2 2 2 3
M  V30 3 1 3 4
M  V30 4 2 4 5
M  V30 5 1 5 6
M  V30 6 2 6 7
M  V30 7 1 5 8
M  V30 8 2 8 9
M  V30 9 2 8 10
M  V30 10 1 8 11
M  V30 11 1 11 12
M  V30 12 1 12 13
M  V30 13 1 13 14
M  V30 14 1 14 15
M  V30 15 1 15 16
M  V30 16 1 16 17
M  V30 17 2 17 18
M  V30 18 1 18 19
M  V30 19 2 19 20
M  V30 20 1 20 21
M  V30 21 2 21 22
M  V30 22 1 15 23
M  V30 23 1 23 24
M  V30 24 1 24 25
M  V30 25 1 25 26
M  V30 26 1 26 27
M  V30 27 1 27 28
M  V30 28 2 28 29 CFG=2
M  V30 29 1 28 30
M  V30 30 1 26 31
M  V30 31 2 31 32
M  V30 32 2 31 33
M  V30 33 1 31 34
M  V30 34 2 34 35
M  V30 35 1 35 36
M  V30 36 2 36 37
M  V30 37 1 37 38
M  V30 38 1 37 39
M  V30 39 2 39 40
M  V30 40 1 7 2
M  V30 41 1 30 11
M  V30 42 1 40 34
M  V30 43 1 22 17
M  V30 44 1 1 41
M  V30 45 1 1 42
M  V30 46 1 3 43
M  V30 47 1 4 44
M  V30 48 1 6 45
M  V30 49 1 7 46
M  V30 50 1 12 47
M  V30 51 1 12 48
M  V30 52 1 13 49
M  V30 53 1 13 50
M  V30 54 1 14 51
M  V30 55 1 14 52
M  V30 56 1 16 53
M  V30 57 1 16 54
M  V30 58 1 18 55
M  V30 59 1 19 56
M  V30 60 1 20 57
M  V30 61 1 21 58
M  V30 62 1 22 59
M  V30 63 1 23 60
M  V30 64 1 23 61
M  V30 65 1 24 62
M  V30 66 1 24 63
M  V30 67 1 25 64
M  V30 68 1 25 65
M  V30 69 1 27 66
M  V30 70 1 27 67
M  V30 71 1 29 68
M  V30 72 1 29 69
M  V30 73 1 30 70
M  V30 74 1 30 71
M  V30 75 1 35 72
M  V30 76 1 36 73
M  V30 77 1 38 74
M  V30 78 1 38 75
M  V30 79 1 39 76
M  V30 80 1 40 77
M  V30 END BOND
M  V30 END CTAB
M  END
