
     RDKit          3D

  0  0  0  0  0  0  0  0  0  0999 V3000
M  V30 BEGIN CTAB
M  V30 COUNTS 20 22 0 0 0
M  V30 BEGIN ATOM
M  V30 1 N -4.96393 -0.104687 -0.215465 0
M  V30 2 C -3.52642 -0.240444 -0.16949 0
M  V30 3 N -2.62537 0.717212 -0.248781 0
M  V30 4 C -1.36226 0.428211 -0.190787 0
M  V30 5 C -0.294626 1.34894 -0.262557 0
M  V30 6 C 1.0076 0.886116 -0.185674 0
M  V30 7 C 1.36051 -0.428651 -0.04153 0
M  V30 8 C 0.294897 -1.35674 0.0310491 0
M  V30 9 C -1.00611 -0.888075 -0.0464115 0
M  V30 10 S -2.55492 -1.63493 -0.00335413 0
M  V30 11 N 2.62388 -0.722737 0.0170037 0
M  V30 12 C 3.53604 0.225908 -0.0610979 0
M  V30 13 N 4.96271 0.109199 -0.0172954 0
M  V30 14 S 2.56007 1.62819 -0.22815 0
M  V30 15 H -5.38886 0.622961 0.377053 0
M  V30 16 H -5.53038 -0.726166 -0.82862 0
M  V30 17 H -0.448843 2.40506 -0.375482 0
M  V30 18 H 0.444987 -2.40553 0.143116 0
M  V30 19 H 5.39326 -0.754563 -0.347152 0
M  V30 20 H 5.51776 0.890732 0.342177 0
M  V30 END ATOM
M  V30 BEGIN BOND
M  V30 1 1 1 2
M  V30 2 2 2 3
M  V30 3 1 3 4
M  V30 4 2 4 5
M  V30 5 1 5 6
M  V30 6 2 6 7
M  V30 7 1 7 8
M  V30 8 2 8 9
M  V30 9 1 9 10
M  V30 10 1 7 11
M  V30 11 2 11 12
M  V30 12 1 12 13
M  V30 13 1 12 14
M  V30 14 1 10 2
M  V30 15 1 9 4
M  V30 16 1 14 6
M  V30 17 1 1 15
M  V30 18 1 1 16
M  V30 19 1 5 17
M  V30 20 1 8 18
M  V30 21 1 13 19
M  V30 22 1 13 20
M  V30 END BOND
M  V30 END CTAB
M  END
