
     RDKit          3D

  0  0  0  0  0  0  0  0  0  0999 V3000
M  V30 BEGIN CTAB
M  V30 COUNTS 19 19 0 0 0
M  V30 BEGIN ATOM
M  V30 1 N -2.76081 -1.04425 0.627812 0
M  V30 2 C -2.12395 0.207306 0.345446 0
M  V30 3 C -0.651253 0.0586618 0.113979 0
M  V30 4 N 0.118767 -1.01162 0.130492 0
M  V30 5 N 1.38379 -0.722241 -0.126092 0
M  V30 6 C 1.43129 0.607545 -0.318462 0
M  V30 7 C 0.149103 1.14547 -0.173565 0
M  V30 8 N -0.19982 2.51899 -0.304162 0
M  V30 9 C 2.48339 -1.66337 -0.183896 0
M  V30 10 H -2.23374 -1.56619 1.37431 0
M  V30 11 H -2.80142 -1.60116 -0.238636 0
M  V30 12 H -2.55455 0.581913 -0.627741 0
M  V30 13 H -2.25006 0.965701 1.13681 0
M  V30 14 H 2.3146 1.17686 -0.54853 0
M  V30 15 H -1.02954 2.81044 -0.874103 0
M  V30 16 H 0.34348 3.29463 0.153277 0
M  V30 17 H 2.20873 -2.60964 0.325175 0
M  V30 18 H 3.36088 -1.2518 0.387625 0
M  V30 19 H 2.81112 -1.89725 -1.19974 0
M  V30 END ATOM
M  V30 BEGIN BOND
M  V30 1 1 1 2
M  V30 2 1 2 3
M  V30 3 2 3 4
M  V30 4 1 4 5
M  V30 5 1 5 6
M  V30 6 2 6 7
M  V30 7 1 7 8
M  V30 8 1 5 9
M  V30 9 1 7 3
M  V30 10 1 1 10
M  V30 11 1 1 11
M  V30 12 1 2 12
M  V30 13 1 2 13
M  V30 14 1 6 14
M  V30 15 1 8 15
M  V30 16 1 8 16
M  V30 17 1 9 17
M  V30 18 1 9 18
M  V30 19 1 9 19
M  V30 END BOND
M  V30 END CTAB
M  END
