
     RDKit          3D

  0  0  0  0  0  0  0  0  0  0999 V3000
M  V30 BEGIN CTAB
M  V30 COUNTS 19 19 0 0 0
M  V30 BEGIN ATOM
M  V30 1 Br -3.15309 2.8555 -0.453248 0
M  V30 2 C -2.01472 1.33133 -0.306687 0
M  V30 3 C -2.50995 0.0561519 -0.238568 0
M  V30 4 C -1.68188 -1.05228 -0.131973 0
M  V30 5 C -0.325222 -0.833577 -0.0957775 0
M  V30 6 C 0.246121 0.440947 -0.160988 0
M  V30 7 C -0.63168 1.48869 -0.265327 0
M  V30 8 C 1.68871 0.539826 -0.11344 0
M  V30 9 N 2.27297 1.67477 -0.168627 0
M  V30 10 N 2.50644 -0.602898 -0.00498898 0
M  V30 11 N 0.524995 -1.96747 0.013376 0
M  V30 12 H -3.59691 -0.0782984 -0.270351 0
M  V30 13 H -2.12413 -2.03733 -0.0815953 0
M  V30 14 H -0.251419 2.48736 -0.318975 0
M  V30 15 H 1.73223 2.54957 -0.248446 0
M  V30 16 H 2.75456 -0.962341 0.926567 0
M  V30 17 H 2.85219 -1.07176 -0.852543 0
M  V30 18 H 0.914226 -2.47785 -0.82333 0
M  V30 19 H 0.796545 -2.34036 0.957438 0
M  V30 END ATOM
M  V30 BEGIN BOND
M  V30 1 1 1 2
M  V30 2 2 2 3
M  V30 3 1 3 4
M  V30 4 2 4 5
M  V30 5 1 5 6
M  V30 6 2 6 7
M  V30 7 1 6 8
M  V30 8 2 8 9 CFG=2
M  V30 9 1 8 10
M  V30 10 1 5 11
M  V30 11 1 7 2
M  V30 12 1 3 12
M  V30 13 1 4 13
M  V30 14 1 7 14
M  V30 15 1 9 15
M  V30 16 1 10 16
M  V30 17 1 10 17
M  V30 18 1 11 18
M  V30 19 1 11 19
M  V30 END BOND
M  V30 END CTAB
M  END
