
     RDKit          3D

  0  0  0  0  0  0  0  0  0  0999 V3000
M  V30 BEGIN CTAB
M  V30 COUNTS 32 34 0 0 0
M  V30 BEGIN ATOM
M  V30 1 N -2.56738 4.56462 -0.191811 0
M  V30 2 N -2.47546 3.27131 0.263508 0
M  V30 3 C -1.6685 2.29639 -0.373007 0
M  V30 4 O -1.03072 2.65397 -1.37916 0
M  V30 5 C -1.56652 0.930849 0.101361 0
M  V30 6 N -2.40282 0.481142 1.07737 0
M  V30 7 N -2.12099 -0.767527 1.29047 0
M  V30 8 N -1.13964 -1.1832 0.512065 0
M  V30 9 C -0.772754 -0.109523 -0.252556 0
M  V30 10 C 0.341306 -0.116917 -1.21698 0
M  V30 11 N 1.6128 0.286317 -0.701904 0
M  V30 12 C 2.18613 1.48283 -0.645397 0
M  V30 13 N 3.4145 1.37672 -0.0630187 0
M  V30 14 C 3.59836 0.0924605 0.243567 0
M  V30 15 N 2.50172 -0.551196 -0.149011 0
M  V30 16 N 4.73946 -0.476601 0.864308 0 CHG=1
M  V30 17 O 4.81016 -1.68732 1.10165 0
M  V30 18 O 5.83103 0.298578 1.23388 0 CHG=-1
M  V30 19 C -0.580033 -2.49716 0.478291 0
M  V30 20 N 0.262181 -3.07497 1.33377 0
M  V30 21 O 0.497931 -4.27232 0.915989 0
M  V30 22 N -0.147652 -4.52187 -0.179421 0
M  V30 23 C -0.854595 -3.42151 -0.507208 0
M  V30 24 N -1.70517 -3.25741 -1.63591 0
M  V30 25 H -2.94007 5.23962 0.482863 0
M  V30 26 H -3.17367 4.59668 -1.04234 0
M  V30 27 H -3.01294 2.97454 1.10961 0
M  V30 28 H 0.0651352 0.509073 -2.11993 0
M  V30 29 H 0.488373 -1.14517 -1.65543 0
M  V30 30 H 1.79369 2.42755 -0.990498 0
M  V30 31 H -2.73072 -3.12675 -1.53735 0
M  V30 32 H -1.25315 -3.27323 -2.57401 0
M  V30 END ATOM
M  V30 BEGIN BOND
M  V30 1 1 1 2
M  V30 2 1 2 3
M  V30 3 2 3 4
M  V30 4 1 3 5
M  V30 5 1 5 6
M  V30 6 2 6 7
M  V30 7 1 7 8
M  V30 8 1 8 9
M  V30 9 1 9 10
M  V30 10 1 10 11
M  V30 11 1 11 12
M  V30 12 2 12 13
M  V30 13 1 13 14
M  V30 14 2 14 15
M  V30 15 1 14 16
M  V30 16 2 16 17
M  V30 17 1 16 18
M  V30 18 1 8 19
M  V30 19 2 19 20
M  V30 20 1 20 21
M  V30 21 1 21 22
M  V30 22 2 22 23
M  V30 23 1 23 24
M  V30 24 2 9 5
M  V30 25 1 15 11
M  V30 26 1 23 19
M  V30 27 1 1 25
M  V30 28 1 1 26
M  V30 29 1 2 27
M  V30 30 1 10 28
M  V30 31 1 10 29
M  V30 32 1 12 30
M  V30 33 1 24 31
M  V30 34 1 24 32
M  V30 END BOND
M  V30 END CTAB
M  END
