
     RDKit          3D

  0  0  0  0  0  0  0  0  0  0999 V3000
M  V30 BEGIN CTAB
M  V30 COUNTS 36 37 0 0 0
M  V30 BEGIN ATOM
M  V30 1 C -2.9928 2.01532 0.869107 0
M  V30 2 C -1.50368 1.75914 0.604352 0
M  V30 3 C -1.40329 0.381557 0.0158842 0
M  V30 4 C -1.94699 -0.646797 0.96713 0
M  V30 5 C -2.40756 -1.832 0.11761 0
M  V30 6 C -1.49258 -1.89641 -1.08664 0
M  V30 7 C -0.105248 -1.41674 -0.693406 0
M  V30 8 N -0.101868 0.0100908 -0.414223 0
M  V30 9 C 0.874278 0.337647 0.605224 0
M  V30 10 C 2.25338 -0.0436388 0.176443 0
M  V30 11 C 2.93649 -1.2233 0.355685 0
M  V30 12 N 4.13597 -1.29899 -0.118432 0
M  V30 13 C 4.68423 -0.282537 -0.750598 0
M  V30 14 S 3.4069 0.882582 -0.674398 0
M  V30 15 N 5.96878 -0.14004 -1.3467 0
M  V30 16 N -1.08486 2.76118 -0.345638 0
M  V30 17 H -3.29754 3.02019 0.525838 0
M  V30 18 H -3.23067 1.95137 1.94279 0
M  V30 19 H -3.62706 1.29262 0.301368 0
M  V30 20 H -1.00583 1.85552 1.58495 0
M  V30 21 H -2.08202 0.375175 -0.886677 0
M  V30 22 H -2.82233 -0.2535 1.54503 0
M  V30 23 H -1.21236 -0.972938 1.73264 0
M  V30 24 H -3.45744 -1.58472 -0.178902 0
M  V30 25 H -2.39758 -2.77556 0.702018 0
M  V30 26 H -1.35855 -2.95991 -1.43253 0
M  V30 27 H -1.89567 -1.34858 -1.96155 0
M  V30 28 H 0.172709 -2.01616 0.211598 0
M  V30 29 H 0.587128 -1.58921 -1.53844 0
M  V30 30 H 0.87672 1.43598 0.711227 0
M  V30 31 H 0.63954 -0.130171 1.58484 0
M  V30 32 H 2.47313 -2.08661 0.891649 0
M  V30 33 H 6.25704 -0.793798 -2.07942 0
M  V30 34 H 6.58163 0.616633 -1.02956 0
M  V30 35 H -1.80981 3.02409 -1.01919 0
M  V30 36 H -0.612212 3.5725 0.11092 0
M  V30 END ATOM
M  V30 BEGIN BOND
M  V30 1 1 1 2
M  V30 2 1 2 3
M  V30 3 1 3 4
M  V30 4 1 4 5
M  V30 5 1 5 6
M  V30 6 1 6 7
M  V30 7 1 7 8
M  V30 8 1 8 9
M  V30 9 1 9 10
M  V30 10 2 10 11
M  V30 11 1 11 12
M  V30 12 2 12 13
M  V30 13 1 13 14
M  V30 14 1 13 15
M  V30 15 1 2 16
M  V30 16 1 8 3
M  V30 17 1 14 10
M  V30 18 1 1 17
M  V30 19 1 1 18
M  V30 20 1 1 19
M  V30 21 1 2 20
M  V30 22 1 3 21
M  V30 23 1 4 22
M  V30 24 1 4 23
M  V30 25 1 5 24
M  V30 26 1 5 25
M  V30 27 1 6 26
M  V30 28 1 6 27
M  V30 29 1 7 28
M  V30 30 1 7 29
M  V30 31 1 9 30
M  V30 32 1 9 31
M  V30 33 1 11 32
M  V30 34 1 15 33
M  V30 35 1 15 34
M  V30 36 1 16 35
M  V30 37 1 16 36
M  V30 END BOND
M  V30 END CTAB
M  END
