
     RDKit          3D

  0  0  0  0  0  0  0  0  0  0999 V3000
M  V30 BEGIN CTAB
M  V30 COUNTS 30 31 0 0 0
M  V30 BEGIN ATOM
M  V30 1 C -3.60029 1.44958 1.21883 0
M  V30 2 C -2.85901 0.55382 0.285303 0
M  V30 3 C -3.44335 -0.628563 -0.118516 0
M  V30 4 C -2.74599 -1.43088 -0.973119 0
M  V30 5 C -1.47378 -1.055 -1.42122 0
M  V30 6 C -0.883152 0.11306 -1.02863 0
M  V30 7 C 0.455248 0.46075 -1.50983 0
M  V30 8 C 1.54048 0.303944 -0.539719 0
M  V30 9 C 2.0839 -0.903359 -0.214423 0
M  V30 10 N 1.64237 -2.10902 -0.810205 0
M  V30 11 N 3.09505 -0.950668 0.713975 0
M  V30 12 C 3.56273 0.145877 1.30726 0
M  V30 13 N 4.6198 -0.0173657 2.26106 0
M  V30 14 N 3.04441 1.32939 1.0016 0
M  V30 15 C 2.04877 1.41943 0.0938984 0
M  V30 16 C -1.6085 0.913115 -0.160966 0
M  V30 17 H -2.89275 2.18982 1.67691 0
M  V30 18 H -4.15346 0.881594 1.98305 0
M  V30 19 H -4.34868 2.05458 0.660674 0
M  V30 20 H -4.44025 -0.887359 0.254345 0
M  V30 21 H -3.20584 -2.3679 -1.2948 0
M  V30 22 H -1.01091 -1.75771 -2.10705 0
M  V30 23 H 0.41291 1.51655 -1.91076 0
M  V30 24 H 0.645694 -0.142801 -2.44912 0
M  V30 25 H 1.98177 -2.42433 -1.74787 0
M  V30 26 H 0.95332 -2.74345 -0.337159 0
M  V30 27 H 4.4919 0.0289132 3.2802 0
M  V30 28 H 5.57445 -0.19365 1.8816 0
M  V30 29 H 1.6386 2.40699 -0.140975 0
M  V30 30 H -1.12545 1.84465 0.145653 0
M  V30 END ATOM
M  V30 BEGIN BOND
M  V30 1 1 1 2
M  V30 2 2 2 3
M  V30 3 1 3 4
M  V30 4 2 4 5
M  V30 5 1 5 6
M  V30 6 1 6 7
M  V30 7 1 7 8
M  V30 8 2 8 9
M  V30 9 1 9 10
M  V30 10 1 9 11
M  V30 11 2 11 12
M  V30 12 1 12 13
M  V30 13 1 12 14
M  V30 14 2 14 15
M  V30 15 2 6 16
M  V30 16 1 16 2
M  V30 17 1 15 8
M  V30 18 1 1 17
M  V30 19 1 1 18
M  V30 20 1 1 19
M  V30 21 1 3 20
M  V30 22 1 4 21
M  V30 23 1 5 22
M  V30 24 1 7 23
M  V30 25 1 7 24
M  V30 26 1 10 25
M  V30 27 1 10 26
M  V30 28 1 13 27
M  V30 29 1 13 28
M  V30 30 1 15 29
M  V30 31 1 16 30
M  V30 END BOND
M  V30 END CTAB
M  END
