
     RDKit          3D

  0  0  0  0  0  0  0  0  0  0999 V3000
M  V30 BEGIN CTAB
M  V30 COUNTS 20 20 0 0 0
M  V30 BEGIN ATOM
M  V30 1 N -2.60802 -1.33292 -0.222534 0
M  V30 2 C -1.95029 -0.0221058 -0.111563 0
M  V30 3 C -0.496773 -0.190586 -0.0626695 0
M  V30 4 C 0.0472882 -1.44995 -0.11846 0
M  V30 5 N 1.3788 -1.65072 -0.0764328 0
M  V30 6 C 2.1838 -0.582912 0.0226732 0
M  V30 7 N 1.66745 0.658274 0.0784677 0
M  V30 8 C 0.35028 0.869759 0.0376909 0
M  V30 9 C -0.183798 2.23743 0.100465 0
M  V30 10 F -1.0131 2.47387 1.16989 0
M  V30 11 F -0.804897 2.55405 -1.10348 0
M  V30 12 F 0.871583 3.14245 0.215193 0
M  V30 13 N 3.58436 -0.699072 0.0728026 0
M  V30 14 H -3.59914 -1.2389 -0.494226 0
M  V30 15 H -2.44238 -1.9117 0.613792 0
M  V30 16 H -2.31379 0.382596 0.876424 0
M  V30 17 H -2.31869 0.573274 -0.962551 0
M  V30 18 H -0.578476 -2.32435 -0.198247 0
M  V30 19 H 4.11745 -0.859943 -0.806297 0
M  V30 20 H 4.10832 -0.628543 0.96906 0
M  V30 END ATOM
M  V30 BEGIN BOND
M  V30 1 1 1 2
M  V30 2 1 2 3
M  V30 3 2 3 4
M  V30 4 1 4 5
M  V30 5 2 5 6
M  V30 6 1 6 7
M  V30 7 2 7 8
M  V30 8 1 8 9
M  V30 9 1 9 10
M  V30 10 1 9 11
M  V30 11 1 9 12
M  V30 12 1 6 13
M  V30 13 1 8 3
M  V30 14 1 1 14
M  V30 15 1 1 15
M  V30 16 1 2 16
M  V30 17 1 2 17
M  V30 18 1 4 18
M  V30 19 1 13 19
M  V30 20 1 13 20
M  V30 END BOND
M  V30 END CTAB
M  END
