
     RDKit          3D

  0  0  0  0  0  0  0  0  0  0999 V3000
M  V30 BEGIN CTAB
M  V30 COUNTS 22 22 0 0 0
M  V30 BEGIN ATOM
M  V30 1 N 3.70324 0.892817 1.06958 0
M  V30 2 N 2.72659 -0.0907475 0.917032 0
M  V30 3 C 1.99894 -0.13407 -0.164174 0
M  V30 4 N 1.01332 -1.15188 -0.28273 0
M  V30 5 C -0.375754 -0.896374 -0.145585 0
M  V30 6 C -1.30438 -1.90522 -0.266329 0
M  V30 7 C -2.65495 -1.65443 -0.132537 0
M  V30 8 C -3.13262 -0.386519 0.127144 0
M  V30 9 C -2.20581 0.627601 0.248956 0
M  V30 10 C -0.857162 0.373685 0.114728 0
M  V30 11 C -2.68685 1.94662 0.518063 0
M  V30 12 N -3.08586 3.01871 0.741992 0
M  V30 13 Cl -4.86216 -0.0735177 0.297018 0
M  V30 14 N 2.19908 0.832325 -1.20625 0
M  V30 15 H 4.49864 0.771694 1.72498 0
M  V30 16 H 3.61912 1.76353 0.50611 0
M  V30 17 H 1.30245 -2.13351 -0.478405 0
M  V30 18 H -0.915467 -2.91035 -0.472864 0
M  V30 19 H -3.37341 -2.44647 -0.228028 0
M  V30 20 H -0.136738 1.20048 0.21635 0
M  V30 21 H 2.41829 0.513134 -2.1675 0
M  V30 22 H 2.11149 1.84249 -0.937556 0
M  V30 END ATOM
M  V30 BEGIN BOND
M  V30 1 1 1 2
M  V30 2 2 2 3 CFG=2
M  V30 3 1 3 4
M  V30 4 1 4 5
M  V30 5 2 5 6
M  V30 6 1 6 7
M  V30 7 2 7 8
M  V30 8 1 8 9
M  V30 9 2 9 10
M  V30 10 1 9 11
M  V30 11 3 11 12
M  V30 12 1 8 13
M  V30 13 1 3 14
M  V30 14 1 10 5
M  V30 15 1 1 15
M  V30 16 1 1 16
M  V30 17 1 4 17
M  V30 18 1 6 18
M  V30 19 1 7 19
M  V30 20 1 10 20
M  V30 21 1 14 21
M  V30 22 1 14 22
M  V30 END BOND
M  V30 END CTAB
M  END
