
     RDKit          3D

  0  0  0  0  0  0  0  0  0  0999 V3000
M  V30 BEGIN CTAB
M  V30 COUNTS 31 32 0 0 0
M  V30 BEGIN ATOM
M  V30 1 C 0.193181 -1.38053 -1.7011 0
M  V30 2 C -0.0651996 -0.73584 -0.395702 0
M  V30 3 C 0.945022 -0.680291 0.524298 0
M  V30 4 C 2.30745 -1.17781 0.365271 0
M  V30 5 C 3.21693 -0.367459 -0.435717 0
M  V30 6 O 3.13372 -0.236486 -1.66608 0
M  V30 7 N 4.28665 0.333305 0.237524 0
M  V30 8 N 5.17579 1.11674 -0.456437 0
M  V30 9 C 0.600475 -0.0470839 1.74372 0
M  V30 10 O 1.49286 0.0314186 2.62724 0
M  V30 11 O -0.595734 0.435888 1.94451 0
M  V30 12 C -1.56727 0.391407 1.07788 0
M  V30 13 C -2.81366 0.937632 1.38419 0
M  V30 14 C -3.83547 0.893553 0.476129 0
M  V30 15 N -5.09305 1.45265 0.803819 0
M  V30 16 C -3.57726 0.285237 -0.750928 0
M  V30 17 C -2.347 -0.256669 -1.06087 0
M  V30 18 C -1.33138 -0.206013 -0.142508 0
M  V30 19 H 0.952933 -2.18403 -1.59177 0
M  V30 20 H 0.440628 -0.633602 -2.48899 0
M  V30 21 H -0.696126 -1.95134 -2.09812 0
M  V30 22 H 2.26256 -2.1855 -0.133763 0
M  V30 23 H 2.79166 -1.42274 1.355 0
M  V30 24 H 4.37432 0.241202 1.2705 0
M  V30 25 H 5.26717 0.956226 -1.45934 0
M  V30 26 H 5.18672 2.11725 -0.148448 0
M  V30 27 H -3.00619 1.41414 2.35501 0
M  V30 28 H -5.94945 1.06203 0.38667 0
M  V30 29 H -5.137 2.2464 1.45853 0
M  V30 30 H -4.39462 0.258829 -1.45035 0
M  V30 31 H -2.21866 -0.708536 -2.03016 0
M  V30 END ATOM
M  V30 BEGIN BOND
M  V30 1 1 1 2
M  V30 2 2 2 3
M  V30 3 1 3 4
M  V30 4 1 4 5
M  V30 5 2 5 6
M  V30 6 1 5 7
M  V30 7 1 7 8
M  V30 8 1 3 9
M  V30 9 2 9 10
M  V30 10 1 9 11
M  V30 11 1 11 12
M  V30 12 2 12 13
M  V30 13 1 13 14
M  V30 14 1 14 15
M  V30 15 2 14 16
M  V30 16 1 16 17
M  V30 17 2 17 18
M  V30 18 1 18 2
M  V30 19 1 18 12
M  V30 20 1 1 19
M  V30 21 1 1 20
M  V30 22 1 1 21
M  V30 23 1 4 22
M  V30 24 1 4 23
M  V30 25 1 7 24
M  V30 26 1 8 25
M  V30 27 1 8 26
M  V30 28 1 13 27
M  V30 29 1 15 28
M  V30 30 1 15 29
M  V30 31 1 16 30
M  V30 32 1 17 31
M  V30 END BOND
M  V30 END CTAB
M  END
