
     RDKit          3D

  0  0  0  0  0  0  0  0  0  0999 V3000
M  V30 BEGIN CTAB
M  V30 COUNTS 32 33 0 0 0
M  V30 BEGIN ATOM
M  V30 1 C 5.82204 0.0728989 0.775288 0
M  V30 2 C 4.65297 0.266921 -0.133953 0
M  V30 3 O 3.42537 0.0105229 0.523244 0
M  V30 4 C 2.22651 0.129021 -0.127203 0
M  V30 5 C 2.21366 0.506756 -1.45302 0
M  V30 6 C 1.00625 0.626495 -2.10945 0
M  V30 7 C -0.181575 0.366924 -1.43324 0
M  V30 8 C -0.198593 -0.0120974 -0.108786 0
M  V30 9 C 1.03813 -0.125187 0.530118 0
M  V30 10 C -1.36261 -0.271853 0.572735 0
M  V30 11 N -1.37013 -0.660669 1.9333 0
M  V30 12 C -2.59994 -0.15359 -0.0844086 0
M  V30 13 C -2.55303 0.224613 -1.40012 0
M  V30 14 N -1.37184 0.473897 -2.0416 0
M  V30 15 C -3.83407 -0.422499 0.615449 0
M  V30 16 O -3.8375 -0.773697 1.84502 0
M  V30 17 N -5.07412 -0.309418 -0.0239234 0
M  V30 18 N -6.28618 -0.563132 0.627099 0
M  V30 19 H 5.48708 -0.608001 1.60567 0
M  V30 20 H 6.66607 -0.426515 0.220026 0
M  V30 21 H 6.16689 1.05644 1.17256 0
M  V30 22 H 4.74074 -0.303653 -1.08046 0
M  V30 23 H 4.61665 1.3437 -0.439209 0
M  V30 24 H 3.14838 0.703927 -1.96029 0
M  V30 25 H 0.994669 0.919781 -3.13918 0
M  V30 26 H 1.03118 -0.422503 1.57031 0
M  V30 27 H -1.36646 0.08215 2.67091 0
M  V30 28 H -1.3793 -1.6855 2.20376 0
M  V30 29 H -3.4766 0.340701 -1.988 0
M  V30 30 H -5.1399 -0.0300347 -1.01553 0
M  V30 31 H -6.12746 -0.360114 1.6409 0
M  V30 32 H -7.07728 0.00370385 0.225395 0
M  V30 END ATOM
M  V30 BEGIN BOND
M  V30 1 1 1 2
M  V30 2 1 2 3
M  V30 3 1 3 4
M  V30 4 2 4 5
M  V30 5 1 5 6
M  V30 6 2 6 7
M  V30 7 1 7 8
M  V30 8 2 8 9
M  V30 9 1 8 10
M  V30 10 1 10 11
M  V30 11 2 10 12
M  V30 12 1 12 13
M  V30 13 2 13 14
M  V30 14 1 12 15
M  V30 15 2 15 16
M  V30 16 1 15 17
M  V30 17 1 17 18
M  V30 18 1 9 4
M  V30 19 1 14 7
M  V30 20 1 1 19
M  V30 21 1 1 20
M  V30 22 1 1 21
M  V30 23 1 2 22
M  V30 24 1 2 23
M  V30 25 1 5 24
M  V30 26 1 6 25
M  V30 27 1 9 26
M  V30 28 1 11 27
M  V30 29 1 11 28
M  V30 30 1 13 29
M  V30 31 1 17 30
M  V30 32 1 18 31
M  V30 33 1 18 32
M  V30 END BOND
M  V30 END CTAB
M  END
