
     RDKit          3D

  0  0  0  0  0  0  0  0  0  0999 V3000
M  V30 BEGIN CTAB
M  V30 COUNTS 59 62 0 0 0
M  V30 BEGIN ATOM
M  V30 1 C -7.80429 -1.17981 1.45806 0
M  V30 2 C -7.83776 -1.69214 0.0545786 0
M  V30 3 C -6.54686 -2.37031 -0.29814 0
M  V30 4 O -5.49623 -1.42348 -0.166365 0
M  V30 5 C -4.17517 -1.79813 -0.439599 0
M  V30 6 O -3.99782 -2.97813 -0.793463 0
M  V30 7 C -3.08119 -0.861685 -0.315599 0
M  V30 8 C -3.1738 0.466703 0.0696828 0
M  V30 9 N -4.33104 1.20853 0.424907 0
M  V30 10 O -1.97464 0.98562 0.0637595 0
M  V30 11 C -1.09525 0.0699322 -0.305217 0
M  V30 12 C -1.7417 -1.10125 -0.552809 0
M  V30 13 C -1.03023 -2.21878 -0.957831 0
M  V30 14 C 0.325079 -2.16664 -1.1154 0
M  V30 15 O 1.1599 -3.07624 -1.47817 0
M  V30 16 C 2.34192 -2.59132 -1.49276 0
M  V30 17 C 2.32684 -1.21933 -1.10458 0
M  V30 18 C 0.990968 -0.960752 -0.860418 0
M  V30 19 C 0.31117 0.138083 -0.464361 0
M  V30 20 C 0.842821 1.43525 -0.161169 0
M  V30 21 C 0.874993 2.41182 -1.13084 0
M  V30 22 C 1.27412 3.71927 -0.806819 0
M  V30 23 C 1.62727 4.00578 0.474342 0
M  V30 24 C 1.5967 3.02629 1.45451 0
M  V30 25 C 1.20368 1.75415 1.11801 0
M  V30 26 Cl 2.05217 3.39681 3.10169 0
M  V30 27 C 2.06523 5.36794 0.913285 0
M  V30 28 C 3.4856 -0.391403 -1.02501 0
M  V30 29 O 3.64286 0.757408 -0.723128 0
M  V30 30 O 4.72012 -1.02061 -1.3648 0
M  V30 31 C 5.93242 -0.319302 -1.32283 0
M  V30 32 C 6.33612 0.19919 0.0152139 0
M  V30 33 C 6.49161 -0.927334 1.03438 0
M  V30 34 N 3.53626 -3.28817 -1.8414 0
M  V30 35 H -8.79044 -0.792924 1.77915 0
M  V30 36 H -7.44243 -2.0124 2.1253 0
M  V30 37 H -7.05657 -0.373397 1.51237 0
M  V30 38 H -8.6912 -2.38642 -0.140343 0
M  V30 39 H -7.98243 -0.829526 -0.627422 0
M  V30 40 H -6.55921 -2.70738 -1.35999 0
M  V30 41 H -6.34279 -3.24203 0.358083 0
M  V30 42 H -4.66593 1.17792 1.39067 0
M  V30 43 H -4.79993 1.75917 -0.311146 0
M  V30 44 H -1.57492 -3.13729 -1.14717 0
M  V30 45 H 0.606924 2.25112 -2.1664 0
M  V30 46 H 1.30625 4.50029 -1.55146 0
M  V30 47 H 1.18062 0.997637 1.87553 0
M  V30 48 H 3.16641 5.27307 1.1034 0
M  V30 49 H 1.82184 6.10457 0.140048 0
M  V30 50 H 1.5724 5.61372 1.87233 0
M  V30 51 H 6.70295 -1.03132 -1.66087 0
M  V30 52 H 5.94982 0.501891 -2.08872 0
M  V30 53 H 5.72446 0.97004 0.463615 0
M  V30 54 H 7.37287 0.641404 -0.0787641 0
M  V30 55 H 7.35276 -1.58035 0.785626 0
M  V30 56 H 6.7493 -0.428461 1.99514 0
M  V30 57 H 5.54702 -1.47595 1.1744 0
M  V30 58 H 4.05885 -3.13738 -2.7212 0
M  V30 59 H 3.94151 -4.01398 -1.17866 0
M  V30 END ATOM
M  V30 BEGIN BOND
M  V30 1 1 1 2
M  V30 2 1 2 3
M  V30 3 1 3 4
M  V30 4 1 4 5
M  V30 5 2 5 6
M  V30 6 1 5 7
M  V30 7 2 7 8
M  V30 8 1 8 9
M  V30 9 1 8 10
M  V30 10 1 10 11
M  V30 11 2 11 12
M  V30 12 1 12 13
M  V30 13 2 13 14
M  V30 14 1 14 15
M  V30 15 1 15 16
M  V30 16 2 16 17
M  V30 17 1 17 18
M  V30 18 2 18 19
M  V30 19 1 19 20
M  V30 20 2 20 21
M  V30 21 1 21 22
M  V30 22 2 22 23
M  V30 23 1 23 24
M  V30 24 2 24 25
M  V30 25 1 24 26
M  V30 26 1 23 27
M  V30 27 1 17 28
M  V30 28 2 28 29
M  V30 29 1 28 30
M  V30 30 1 30 31
M  V30 31 1 31 32
M  V30 32 1 32 33
M  V30 33 1 16 34
M  V30 34 1 12 7
M  V30 35 1 18 14
M  V30 36 1 25 20
M  V30 37 1 19 11
M  V30 38 1 1 35
M  V30 39 1 1 36
M  V30 40 1 1 37
M  V30 41 1 2 38
M  V30 42 1 2 39
M  V30 43 1 3 40
M  V30 44 1 3 41
M  V30 45 1 9 42
M  V30 46 1 9 43
M  V30 47 1 13 44
M  V30 48 1 21 45
M  V30 49 1 22 46
M  V30 50 1 25 47
M  V30 51 1 27 48
M  V30 52 1 27 49
M  V30 53 1 27 50
M  V30 54 1 31 51
M  V30 55 1 31 52
M  V30 56 1 32 53
M  V30 57 1 32 54
M  V30 58 1 33 55
M  V30 59 1 33 56
M  V30 60 1 33 57
M  V30 61 1 34 58
M  V30 62 1 34 59
M  V30 END BOND
M  V30 END CTAB
M  END
