
     RDKit          3D

  0  0  0  0  0  0  0  0  0  0999 V3000
M  V30 BEGIN CTAB
M  V30 COUNTS 30 31 0 0 0
M  V30 BEGIN ATOM
M  V30 1 N 4.18606 0.478522 -0.295162 0
M  V30 2 C 2.74023 0.706229 -0.44514 0 CFG=2
M  V30 3 C 2.18616 0.961807 0.918155 0
M  V30 4 C 0.679928 0.922585 0.916472 0
M  V30 5 C 0.274222 -0.483092 0.507694 0 CFG=2
M  V30 6 C 0.694732 -0.658869 -0.933836 0
M  V30 7 C 2.1814 -0.511371 -1.11664 0
M  V30 8 C -1.19474 -0.628533 0.561631 0
M  V30 9 N -1.71056 -1.64404 1.28722 0
M  V30 10 C -3.04179 -1.79838 1.3526 0
M  V30 11 C -3.85612 -0.89784 0.663562 0
M  V30 12 C -3.3113 0.132995 -0.0722212 0
M  V30 13 N -1.97012 0.230022 -0.0952388 0
M  V30 14 N -4.16213 1.04607 -0.771743 0
M  V30 15 H 4.67163 1.39258 -0.157958 0
M  V30 16 H 4.2844 -0.0439317 0.609119 0
M  V30 17 H 2.63174 1.62722 -1.06634 0
M  V30 18 H 2.55872 0.174269 1.60959 0
M  V30 19 H 2.53433 1.96625 1.24153 0
M  V30 20 H 0.306438 1.11765 1.94898 0
M  V30 21 H 0.275277 1.63565 0.181562 0
M  V30 22 H 0.783491 -1.25695 1.09295 0
M  V30 23 H 0.170066 0.0280786 -1.61478 0
M  V30 24 H 0.426496 -1.69196 -1.23777 0
M  V30 25 H 2.66351 -1.42508 -0.731575 0
M  V30 26 H 2.39462 -0.468435 -2.19959 0
M  V30 27 H -3.52312 -2.59306 1.91763 0
M  V30 28 H -4.92302 -1.04117 0.730325 0
M  V30 29 H -4.87001 0.645816 -1.43309 0
M  V30 30 H -4.08055 2.07696 -0.628181 0
M  V30 END ATOM
M  V30 BEGIN BOND
M  V30 1 1 1 2
M  V30 2 1 2 3
M  V30 3 1 3 4
M  V30 4 1 4 5
M  V30 5 1 5 6
M  V30 6 1 6 7
M  V30 7 1 5 8
M  V30 8 2 8 9
M  V30 9 1 9 10
M  V30 10 2 10 11
M  V30 11 1 11 12
M  V30 12 2 12 13
M  V30 13 1 12 14
M  V30 14 1 7 2
M  V30 15 1 13 8
M  V30 16 1 1 15
M  V30 17 1 1 16
M  V30 18 1 2 17 CFG=3
M  V30 19 1 3 18
M  V30 20 1 3 19
M  V30 21 1 4 20
M  V30 22 1 4 21
M  V30 23 1 5 22 CFG=1
M  V30 24 1 6 23
M  V30 25 1 6 24
M  V30 26 1 7 25
M  V30 27 1 7 26
M  V30 28 1 10 27
M  V30 29 1 11 28
M  V30 30 1 14 29
M  V30 31 1 14 30
M  V30 END BOND
M  V30 END CTAB
M  END
