
     RDKit          3D

  0  0  0  0  0  0  0  0  0  0999 V3000
M  V30 BEGIN CTAB
M  V30 COUNTS 44 47 0 0 0
M  V30 BEGIN ATOM
M  V30 1 C 5.8779 1.44581 -0.372627 0
M  V30 2 C 4.85429 0.47941 0.215278 0
M  V30 3 C 4.84178 -0.805832 -0.536264 0
M  V30 4 C 3.86458 -1.80509 -0.00329713 0
M  V30 5 N 2.49761 -1.38838 -0.0019359 0
M  V30 6 C 1.85995 -0.769774 1.00792 0
M  V30 7 O 2.36396 -0.457536 2.13193 0
M  V30 8 C 0.547158 -0.528901 0.611522 0
M  V30 9 C 0.408815 -1.02071 -0.669323 0
M  V30 10 C 1.62784 -1.54644 -1.02514 0
M  V30 11 O 1.88756 -2.09571 -2.14834 0
M  V30 12 C -0.804507 -0.920572 -1.32896 0
M  V30 13 N -0.979887 -1.42093 -2.65775 0
M  V30 14 C -1.84497 -0.317663 -0.655949 0
M  V30 15 C -3.08273 -0.190785 -1.26967 0
M  V30 16 O -3.19456 -0.649106 -2.45058 0
M  V30 17 C -4.13799 0.408476 -0.616369 0
M  V30 18 C -5.37307 0.529769 -1.24147 0
M  V30 19 C -6.42986 1.13011 -0.586736 0
M  V30 20 C -6.30527 1.62531 0.692003 0
M  V30 21 C -5.0824 1.50534 1.31123 0
M  V30 22 C -4.0065 0.903509 0.667092 0
M  V30 23 C -2.7741 0.782154 1.29006 0
M  V30 24 O -2.67492 1.23809 2.4559 0
M  V30 25 C -1.72084 0.181667 0.632345 0
M  V30 26 C -0.502787 0.0743978 1.27843 0
M  V30 27 N -0.30342 0.562179 2.59482 0
M  V30 28 H 6.87287 1.09546 0.0299137 0
M  V30 29 H 5.66829 2.45898 -0.00264515 0
M  V30 30 H 5.9064 1.42148 -1.46355 0
M  V30 31 H 3.86469 0.985895 0.154506 0
M  V30 32 H 5.09203 0.344335 1.28409 0
M  V30 33 H 4.64507 -0.6891 -1.61631 0
M  V30 34 H 5.87298 -1.2537 -0.479278 0
M  V30 35 H 4.18952 -2.06624 1.02894 0
M  V30 36 H 4.02247 -2.75268 -0.593778 0
M  V30 37 H -1.15968 -2.43341 -2.77208 0
M  V30 38 H -0.936412 -0.827936 -3.49989 0
M  V30 39 H -5.46499 0.139182 -2.24536 0
M  V30 40 H -7.38297 1.2038 -1.11686 0
M  V30 41 H -7.16529 2.09169 1.17169 0
M  V30 42 H -4.9681 1.88872 2.31446 0
M  V30 43 H -0.0266211 1.52799 2.76794 0
M  V30 44 H -0.443917 -0.0832608 3.39676 0
M  V30 END ATOM
M  V30 BEGIN BOND
M  V30 1 1 1 2
M  V30 2 1 2 3
M  V30 3 1 3 4
M  V30 4 1 4 5
M  V30 5 1 5 6
M  V30 6 2 6 7
M  V30 7 1 6 8
M  V30 8 2 8 9
M  V30 9 1 9 10
M  V30 10 2 10 11
M  V30 11 1 9 12
M  V30 12 1 12 13
M  V30 13 2 12 14
M  V30 14 1 14 15
M  V30 15 2 15 16
M  V30 16 1 15 17
M  V30 17 2 17 18
M  V30 18 1 18 19
M  V30 19 2 19 20
M  V30 20 1 20 21
M  V30 21 2 21 22
M  V30 22 1 22 23
M  V30 23 2 23 24
M  V30 24 1 23 25
M  V30 25 2 25 26
M  V30 26 1 26 27
M  V30 27 1 10 5
M  V30 28 1 25 14
M  V30 29 1 26 8
M  V30 30 1 22 17
M  V30 31 1 1 28
M  V30 32 1 1 29
M  V30 33 1 1 30
M  V30 34 1 2 31
M  V30 35 1 2 32
M  V30 36 1 3 33
M  V30 37 1 3 34
M  V30 38 1 4 35
M  V30 39 1 4 36
M  V30 40 1 13 37
M  V30 41 1 13 38
M  V30 42 1 18 39
M  V30 43 1 19 40
M  V30 44 1 20 41
M  V30 45 1 21 42
M  V30 46 1 27 43
M  V30 47 1 27 44
M  V30 END BOND
M  V30 END CTAB
M  END
