
     RDKit          3D

  0  0  0  0  0  0  0  0  0  0999 V3000
M  V30 BEGIN CTAB
M  V30 COUNTS 28 29 0 0 0
M  V30 BEGIN ATOM
M  V30 1 N -3.18757 -2.03994 1.26877 0
M  V30 2 C -3.04556 -0.717077 0.776095 0
M  V30 3 C -4.01623 -0.174445 -0.0400207 0
M  V30 4 C -3.88426 1.10873 -0.52139 0
M  V30 5 C -2.79828 1.89893 -0.218254 0
M  V30 6 C -1.82156 1.36674 0.596912 0
M  V30 7 C -1.95011 0.084691 1.07983 0
M  V30 8 S -0.714572 -0.673674 2.14808 0
M  V30 9 S 0.682791 -1.64848 0.874109 0
M  V30 10 C 1.97167 -0.47943 0.488453 0
M  V30 11 C 1.96726 0.805247 0.988359 0
M  V30 12 C 2.96196 1.70393 0.688262 0
M  V30 13 C 3.97752 1.29635 -0.130763 0
M  V30 14 C 3.98241 0.0141677 -0.62998 0
M  V30 15 C 2.99676 -0.906904 -0.344457 0
M  V30 16 N 2.98349 -2.23023 -0.847771 0
M  V30 17 H -3.93861 -2.20331 1.97022 0
M  V30 18 H -2.5609 -2.80371 0.934289 0
M  V30 19 H -4.89051 -0.794824 -0.290947 0
M  V30 20 H -4.64432 1.53313 -1.16021 0
M  V30 21 H -2.71541 2.92339 -0.615988 0
M  V30 22 H -0.96417 1.95013 0.853921 0
M  V30 23 H 1.13289 1.08497 1.64077 0
M  V30 24 H 2.91333 2.71592 1.11143 0
M  V30 25 H 4.77104 1.95247 -0.393679 0
M  V30 26 H 4.78679 -0.341889 -1.29154 0
M  V30 27 H 2.13889 -2.64941 -1.24396 0
M  V30 28 H 3.86528 -2.77549 -0.805197 0
M  V30 END ATOM
M  V30 BEGIN BOND
M  V30 1 1 1 2
M  V30 2 2 2 3
M  V30 3 1 3 4
M  V30 4 2 4 5
M  V30 5 1 5 6
M  V30 6 2 6 7
M  V30 7 1 7 8
M  V30 8 1 8 9
M  V30 9 1 9 10
M  V30 10 2 10 11
M  V30 11 1 11 12
M  V30 12 2 12 13
M  V30 13 1 13 14
M  V30 14 2 14 15
M  V30 15 1 15 16
M  V30 16 1 7 2
M  V30 17 1 15 10
M  V30 18 1 1 17
M  V30 19 1 1 18
M  V30 20 1 3 19
M  V30 21 1 4 20
M  V30 22 1 5 21
M  V30 23 1 6 22
M  V30 24 1 11 23
M  V30 25 1 12 24
M  V30 26 1 13 25
M  V30 27 1 14 26
M  V30 28 1 16 27
M  V30 29 1 16 28
M  V30 END BOND
M  V30 END CTAB
M  END
