
     RDKit          3D

  0  0  0  0  0  0  0  0  0  0999 V3000
M  V30 BEGIN CTAB
M  V30 COUNTS 58 62 0 0 0
M  V30 BEGIN ATOM
M  V30 1 N 7.32028 -1.17947 3.1705 0
M  V30 2 C 6.64837 -0.439372 2.14128 0
M  V30 3 N 5.3133 -0.303932 2.13649 0
M  V30 4 C 4.6708 0.40344 1.15281 0
M  V30 5 O 3.33244 0.682423 0.930006 0
M  V30 6 C 3.17216 1.09019 -0.399365 0
M  V30 7 C 4.52181 1.69293 -0.801716 0
M  V30 8 C 5.40745 0.984183 0.153529 0
M  V30 9 C 6.7918 0.845402 0.156079 0
M  V30 10 N 7.34683 0.139019 1.15161 0
M  V30 11 N 7.53242 1.45042 -0.880654 0
M  V30 12 C 2.14261 2.1791 -0.560146 0
M  V30 13 C 0.759596 1.72737 -0.196207 0
M  V30 14 C 0.181433 0.767372 -1.20761 0
M  V30 15 N 0.570773 -0.571352 -0.8178 0
M  V30 16 C 1.91281 -1.05771 -0.646748 0
M  V30 17 C 2.92573 -0.103541 -1.25855 0
M  V30 18 C -0.442954 -1.52406 -0.572035 0
M  V30 19 O -0.208283 -2.70509 -0.230812 0
M  V30 20 C -1.86226 -1.10055 -0.727124 0
M  V30 21 C -2.78852 -2.24947 -0.423271 0
M  V30 22 N -4.17647 -1.88473 -0.566852 0
M  V30 23 C -4.854 -0.960084 0.261379 0
M  V30 24 N -4.21252 -0.374502 1.28448 0
M  V30 25 C -4.78653 0.489226 2.1075 0
M  V30 26 N -6.07017 0.840294 1.96802 0
M  V30 27 C -6.76841 0.288526 0.961613 0
M  V30 28 C -6.17664 -0.625381 0.083709 0
M  V30 29 C -6.94796 -1.15218 -0.925068 0
M  V30 30 C -8.28528 -0.789386 -1.07463 0
M  V30 31 C -8.84883 0.104884 -0.20849 0
M  V30 32 C -8.09108 0.638771 0.802953 0
M  V30 33 H 8.28996 -1.01195 3.46403 0
M  V30 34 H 6.77499 -1.93341 3.64179 0
M  V30 35 H 4.7662 1.4754 -1.85238 0
M  V30 36 H 4.54679 2.77723 -0.559761 0
M  V30 37 H 7.42703 1.13523 -1.85683 0
M  V30 38 H 8.18672 2.21931 -0.646888 0
M  V30 39 H 2.20237 2.55754 -1.59678 0
M  V30 40 H 2.41791 3.00073 0.129215 0
M  V30 41 H 0.104523 2.62888 -0.203097 0
M  V30 42 H 0.758697 1.3251 0.819751 0
M  V30 43 H 0.644866 1.01173 -2.20379 0
M  V30 44 H -0.902935 0.87144 -1.33514 0
M  V30 45 H 2.00487 -2.00898 -1.22359 0
M  V30 46 H 2.17411 -1.27053 0.409733 0
M  V30 47 H 2.56903 0.141389 -2.27375 0
M  V30 48 H 3.89595 -0.64594 -1.38548 0
M  V30 49 H -1.9729 -0.810963 -1.79551 0
M  V30 50 H -2.07244 -0.27654 -0.0437409 0
M  V30 51 H -2.61517 -2.57669 0.649065 0
M  V30 52 H -2.57172 -3.11506 -1.07855 0
M  V30 53 H -4.694 -2.34586 -1.3392 0
M  V30 54 H -4.15213 0.897139 2.90484 0
M  V30 55 H -6.49717 -1.85726 -1.60605 0
M  V30 56 H -8.86247 -1.2153 -1.86921 0
M  V30 57 H -9.90649 0.380171 -0.341328 0
M  V30 58 H -8.54732 1.34448 1.48124 0
M  V30 END ATOM
M  V30 BEGIN BOND
M  V30 1 1 1 2
M  V30 2 2 2 3
M  V30 3 1 3 4
M  V30 4 1 4 5
M  V30 5 1 5 6
M  V30 6 1 6 7
M  V30 7 1 7 8
M  V30 8 1 8 9
M  V30 9 2 9 10
M  V30 10 1 9 11
M  V30 11 1 6 12
M  V30 12 1 12 13
M  V30 13 1 13 14
M  V30 14 1 14 15
M  V30 15 1 15 16
M  V30 16 1 16 17
M  V30 17 1 15 18
M  V30 18 2 18 19
M  V30 19 1 18 20
M  V30 20 1 20 21
M  V30 21 1 21 22
M  V30 22 1 22 23
M  V30 23 2 23 24
M  V30 24 1 24 25
M  V30 25 2 25 26
M  V30 26 1 26 27
M  V30 27 2 27 28
M  V30 28 1 28 29
M  V30 29 2 29 30
M  V30 30 1 30 31
M  V30 31 2 31 32
M  V30 32 1 10 2
M  V30 33 1 28 23
M  V30 34 2 8 4
M  V30 35 1 32 27
M  V30 36 1 17 6
M  V30 37 1 1 33
M  V30 38 1 1 34
M  V30 39 1 7 35
M  V30 40 1 7 36
M  V30 41 1 11 37
M  V30 42 1 11 38
M  V30 43 1 12 39
M  V30 44 1 12 40
M  V30 45 1 13 41
M  V30 46 1 13 42
M  V30 47 1 14 43
M  V30 48 1 14 44
M  V30 49 1 16 45
M  V30 50 1 16 46
M  V30 51 1 17 47
M  V30 52 1 17 48
M  V30 53 1 20 49
M  V30 54 1 20 50
M  V30 55 1 21 51
M  V30 56 1 21 52
M  V30 57 1 22 53
M  V30 58 1 25 54
M  V30 59 1 29 55
M  V30 60 1 30 56
M  V30 61 1 31 57
M  V30 62 1 32 58
M  V30 END BOND
M  V30 END CTAB
M  END
