
     RDKit          3D

  0  0  0  0  0  0  0  0  0  0999 V3000
M  V30 BEGIN CTAB
M  V30 COUNTS 27 27 0 0 0
M  V30 BEGIN ATOM
M  V30 1 C -0.833161 0.529322 -2.07481 0
M  V30 2 C -0.534972 -0.037232 -0.680459 0
M  V30 3 C 0.674608 0.594432 -0.142874 0
M  V30 4 N 0.948329 1.88169 0.107355 0
M  V30 5 N 2.16663 2.01844 0.592647 0
M  V30 6 C 2.72647 0.791701 0.670745 0
M  V30 7 N 1.78759 -0.0747885 0.211233 0
M  V30 8 N 2.02805 -1.45184 0.149297 0
M  V30 9 N 4.03835 0.49572 1.14348 0
M  V30 10 C -1.76795 0.232135 0.14506 0
M  V30 11 C -2.92305 -0.488376 -0.541513 0
M  V30 12 C -1.67548 -0.267855 1.54476 0
M  V30 13 H -1.27638 1.54658 -1.8757 0
M  V30 14 H -1.55323 -0.128444 -2.56706 0
M  V30 15 H 0.0930285 0.715081 -2.63331 0
M  V30 16 H -0.425006 -1.12809 -0.760062 0
M  V30 17 H 1.8068 -2.02078 -0.696408 0
M  V30 18 H 2.44296 -1.96211 0.959798 0
M  V30 19 H 4.37721 0.838471 2.0463 0
M  V30 20 H 4.7005 -0.0890188 0.571324 0
M  V30 21 H -2.01053 1.30356 0.159882 0
M  V30 22 H -2.58668 -1.50495 -0.871757 0
M  V30 23 H -3.28642 0.0366594 -1.42396 0
M  V30 24 H -3.76418 -0.678044 0.163012 0
M  V30 25 H -2.72939 -0.317613 1.94826 0
M  V30 26 H -1.15852 0.453004 2.23857 0
M  V30 27 H -1.26558 -1.28768 1.6162 0
M  V30 END ATOM
M  V30 BEGIN BOND
M  V30 1 1 1 2
M  V30 2 1 2 3
M  V30 3 2 3 4
M  V30 4 1 4 5
M  V30 5 2 5 6
M  V30 6 1 6 7
M  V30 7 1 7 8
M  V30 8 1 6 9
M  V30 9 1 2 10
M  V30 10 1 10 11
M  V30 11 1 10 12
M  V30 12 1 7 3
M  V30 13 1 1 13
M  V30 14 1 1 14
M  V30 15 1 1 15
M  V30 16 1 2 16
M  V30 17 1 8 17
M  V30 18 1 8 18
M  V30 19 1 9 19
M  V30 20 1 9 20
M  V30 21 1 10 21
M  V30 22 1 11 22
M  V30 23 1 11 23
M  V30 24 1 11 24
M  V30 25 1 12 25
M  V30 26 1 12 26
M  V30 27 1 12 27
M  V30 END BOND
M  V30 END CTAB
M  END
