
     RDKit          3D

  0  0  0  0  0  0  0  0  0  0999 V3000
M  V30 BEGIN CTAB
M  V30 COUNTS 31 32 0 0 0
M  V30 BEGIN ATOM
M  V30 1 N -2.61956 2.80164 0.411001 0
M  V30 2 C -2.47676 1.50755 -0.153444 0
M  V30 3 C -1.08329 0.927009 0.188306 0
M  V30 4 N -1.00587 -0.357638 -0.405946 0
M  V30 5 C -1.93545 -1.30202 0.21411 0
M  V30 6 C -1.40185 -2.62962 -0.290917 0
M  V30 7 C 0.07061 -2.41952 0.0381276 0
M  V30 8 C 0.230214 -1.00072 -0.548073 0 CFG=2
M  V30 9 C 1.45463 -0.38136 -0.0908696 0
M  V30 10 N 2.28549 -0.941827 0.840112 0
M  V30 11 N 3.33077 -0.200758 1.04858 0
M  V30 12 C 3.25054 0.878135 0.27584 0
M  V30 13 C 2.07811 0.783888 -0.449015 0
M  V30 14 N 4.21668 1.90232 0.244496 0
M  V30 15 H -3.51626 3.178 0.53947 0
M  V30 16 H -1.79577 3.21711 0.747914 0
M  V30 17 H -2.63288 1.58258 -1.22888 0
M  V30 18 H -3.23805 0.850308 0.286522 0
M  V30 19 H -0.392721 1.62168 -0.324324 0
M  V30 20 H -0.995162 0.953716 1.28714 0
M  V30 21 H -1.7526 -1.30358 1.32226 0
M  V30 22 H -2.97805 -1.13858 -0.0524525 0
M  V30 23 H -1.51058 -2.6709 -1.39025 0
M  V30 24 H -1.83109 -3.48927 0.24084 0
M  V30 25 H 0.731365 -3.13562 -0.434684 0
M  V30 26 H 0.147071 -2.31117 1.12462 0
M  V30 27 H 0.339319 -1.21664 -1.67485 0
M  V30 28 H 2.1259 -1.86061 1.34322 0
M  V30 29 H 1.76679 1.5318 -1.1694 0
M  V30 30 H 3.90406 2.88142 0.0789227 0
M  V30 31 H 5.2344 1.74268 0.377851 0
M  V30 END ATOM
M  V30 BEGIN BOND
M  V30 1 1 1 2
M  V30 2 1 2 3
M  V30 3 1 3 4
M  V30 4 1 4 5
M  V30 5 1 5 6
M  V30 6 1 6 7
M  V30 7 1 7 8
M  V30 8 1 8 9
M  V30 9 1 9 10
M  V30 10 1 10 11
M  V30 11 2 11 12
M  V30 12 1 12 13
M  V30 13 1 12 14
M  V30 14 1 8 4
M  V30 15 2 13 9
M  V30 16 1 1 15
M  V30 17 1 1 16
M  V30 18 1 2 17
M  V30 19 1 2 18
M  V30 20 1 3 19
M  V30 21 1 3 20
M  V30 22 1 5 21
M  V30 23 1 5 22
M  V30 24 1 6 23
M  V30 25 1 6 24
M  V30 26 1 7 25
M  V30 27 1 7 26
M  V30 28 1 8 27 CFG=3
M  V30 29 1 10 28
M  V30 30 1 13 29
M  V30 31 1 14 30
M  V30 32 1 14 31
M  V30 END BOND
M  V30 END CTAB
M  END
