
     RDKit          3D

  0  0  0  0  0  0  0  0  0  0999 V3000
M  V30 BEGIN CTAB
M  V30 COUNTS 12 12 0 0 0
M  V30 BEGIN ATOM
M  V30 1 N 2.67892 -0.416482 -0.00644509 0
M  V30 2 C 1.31487 0.0671013 0.0372622 0
M  V30 3 N 0.195934 -0.626339 -0.0963487 0
M  V30 4 C -0.948978 -0.0307703 -0.0301761 0
M  V30 5 N -2.20202 -0.753282 -0.171399 0
M  V30 6 C -0.95407 1.3243 0.180366 0
M  V30 7 S 0.722051 1.6504 0.269717 0
M  V30 8 H 3.04044 -0.827025 0.883017 0
M  V30 9 H 3.26222 -0.36568 -0.847055 0
M  V30 10 H -2.736 -1.07405 0.640387 0
M  V30 11 H -2.5369 -0.932915 -1.12202 0
M  V30 12 H -1.83648 1.98474 0.262695 0
M  V30 END ATOM
M  V30 BEGIN BOND
M  V30 1 1 1 2
M  V30 2 2 2 3
M  V30 3 1 3 4
M  V30 4 1 4 5
M  V30 5 2 4 6
M  V30 6 1 6 7
M  V30 7 1 7 2
M  V30 8 1 1 8
M  V30 9 1 1 9
M  V30 10 1 5 10
M  V30 11 1 5 11
M  V30 12 1 6 12
M  V30 END BOND
M  V30 END CTAB
M  END
