
     RDKit          3D

  0  0  0  0  0  0  0  0  0  0999 V3000
M  V30 BEGIN CTAB
M  V30 COUNTS 17 16 0 0 0
M  V30 BEGIN ATOM
M  V30 1 C -1.81317 -1.41048 -0.449219 0
M  V30 2 C -0.825907 -0.477968 0.258139 0
M  V30 3 N 0.316758 -0.352865 -0.621076 0
M  V30 4 C 1.46326 0.0764165 -0.232649 0
M  V30 5 N 2.50965 0.154591 -1.19002 0
M  V30 6 N 1.66139 0.461234 1.13388 0
M  V30 7 C -1.46958 0.825149 0.451626 0
M  V30 8 C -1.99806 1.90108 0.632272 0
M  V30 9 H -2.37986 -1.94867 0.316409 0
M  V30 10 H -2.47943 -0.756401 -1.04339 0
M  V30 11 H -1.27775 -2.05887 -1.16794 0
M  V30 12 H -0.549262 -0.869872 1.256 0
M  V30 13 H 2.96997 1.07812 -1.32979 0
M  V30 14 H 2.81989 -0.670385 -1.74227 0
M  V30 15 H 0.882488 0.764019 1.74072 0
M  V30 16 H 2.61669 0.43779 1.53537 0
M  V30 17 H -2.44708 2.8471 0.795215 0
M  V30 END ATOM
M  V30 BEGIN BOND
M  V30 1 1 1 2
M  V30 2 1 2 3
M  V30 3 2 3 4 CFG=2
M  V30 4 1 4 5
M  V30 5 1 4 6
M  V30 6 1 2 7
M  V30 7 3 7 8
M  V30 8 1 1 9
M  V30 9 1 1 10
M  V30 10 1 1 11
M  V30 11 1 2 12
M  V30 12 1 5 13
M  V30 13 1 5 14
M  V30 14 1 6 15
M  V30 15 1 6 16
M  V30 16 1 8 17
M  V30 END BOND
M  V30 END CTAB
M  END
