
     RDKit          3D

  0  0  0  0  0  0  0  0  0  0999 V3000
M  V30 BEGIN CTAB
M  V30 COUNTS 40 40 0 0 0
M  V30 BEGIN ATOM
M  V30 1 C 2.96254 2.05722 -0.867241 0
M  V30 2 C 3.41756 1.22549 0.292086 0
M  V30 3 C 4.3344 0.118648 -0.180806 0
M  V30 4 C 2.34713 0.780414 1.22541 0
M  V30 5 N 1.3078 -0.0209224 0.673328 0
M  V30 6 C 0.209052 0.573969 0.169473 0
M  V30 7 O 0.0566765 1.83748 0.16528 0
M  V30 8 N -0.812678 -0.125751 -0.367758 0
M  V30 9 C -1.96303 0.546844 -0.912997 0
M  V30 10 C -3.04488 0.863004 0.0520929 0
M  V30 11 C -3.66579 -0.301605 0.758323 0
M  V30 12 C -4.19557 1.61273 -0.632611 0
M  V30 13 C -0.755873 -1.46319 -0.413742 0
M  V30 14 N -1.75649 -2.30456 -0.968004 0
M  V30 15 C 0.379354 -2.07997 0.107513 0
M  V30 16 N 0.519047 -3.50699 0.0979458 0
M  V30 17 C 1.42043 -1.35921 0.655706 0
M  V30 18 O 2.44357 -1.96988 1.12374 0
M  V30 19 H 2.59447 3.03608 -0.520628 0
M  V30 20 H 3.90571 2.30418 -1.44351 0
M  V30 21 H 2.32957 1.5379 -1.59225 0
M  V30 22 H 4.09702 1.91178 0.89257 0
M  V30 23 H 4.82445 -0.426506 0.627367 0
M  V30 24 H 3.8722 -0.544392 -0.932914 0
M  V30 25 H 5.18372 0.617969 -0.741879 0
M  V30 26 H 1.94784 1.65427 1.82117 0
M  V30 27 H 2.84651 0.155021 2.02474 0
M  V30 28 H -2.40344 -0.0610127 -1.75786 0
M  V30 29 H -1.65631 1.52552 -1.38534 0
M  V30 30 H -2.62499 1.57031 0.824792 0
M  V30 31 H -2.92147 -0.843898 1.39828 0
M  V30 32 H -4.43136 0.0468641 1.5202 0
M  V30 33 H -4.23918 -0.957009 0.0892675 0
M  V30 34 H -4.43908 1.0144 -1.53871 0
M  V30 35 H -3.89272 2.64286 -0.908387 0
M  V30 36 H -5.06357 1.57071 0.0421919 0
M  V30 37 H -2.29964 -2.09697 -1.82976 0
M  V30 38 H -1.96133 -3.19778 -0.472719 0
M  V30 39 H 0.609088 -3.97716 1.003 0
M  V30 40 H 0.51925 -3.96684 -0.829822 0
M  V30 END ATOM
M  V30 BEGIN BOND
M  V30 1 1 1 2
M  V30 2 1 2 3
M  V30 3 1 2 4
M  V30 4 1 4 5
M  V30 5 1 5 6
M  V30 6 2 6 7
M  V30 7 1 6 8
M  V30 8 1 8 9
M  V30 9 1 9 10
M  V30 10 1 10 11
M  V30 11 1 10 12
M  V30 12 1 8 13
M  V30 13 1 13 14
M  V30 14 2 13 15
M  V30 15 1 15 16
M  V30 16 1 15 17
M  V30 17 2 17 18
M  V30 18 1 17 5
M  V30 19 1 1 19
M  V30 20 1 1 20
M  V30 21 1 1 21
M  V30 22 1 2 22
M  V30 23 1 3 23
M  V30 24 1 3 24
M  V30 25 1 3 25
M  V30 26 1 4 26
M  V30 27 1 4 27
M  V30 28 1 9 28
M  V30 29 1 9 29
M  V30 30 1 10 30
M  V30 31 1 11 31
M  V30 32 1 11 32
M  V30 33 1 11 33
M  V30 34 1 12 34
M  V30 35 1 12 35
M  V30 36 1 12 36
M  V30 37 1 14 37
M  V30 38 1 14 38
M  V30 39 1 16 39
M  V30 40 1 16 40
M  V30 END BOND
M  V30 END CTAB
M  END
