
     RDKit          3D

  0  0  0  0  0  0  0  0  0  0999 V3000
M  V30 BEGIN CTAB
M  V30 COUNTS 32 33 0 0 0
M  V30 BEGIN ATOM
M  V30 1 N 2.29207 0.20234 -1.36978 0
M  V30 2 C 1.45389 -0.470644 -0.412797 0
M  V30 3 C 0.35894 -1.29158 -1.11143 0
M  V30 4 C -0.906803 -0.582173 -0.698715 0
M  V30 5 C -0.54329 -0.181569 0.74149 0
M  V30 6 C 0.704364 0.58677 0.375824 0
M  V30 7 C 1.4431 1.16293 1.50135 0
M  V30 8 C 0.153022 1.58131 -0.618659 0
M  V30 9 C -0.89548 0.75315 -1.37592 0
M  V30 10 C -1.61787 0.676184 1.31791 0
M  V30 11 C -0.282248 -1.39405 1.56557 0
M  V30 12 N -2.08677 -1.3277 -0.801382 0
M  V30 13 H 3.2834 -0.11742 -1.34722 0
M  V30 14 H 1.89452 0.263475 -2.3181 0
M  V30 15 H 2.02014 -1.13627 0.277461 0
M  V30 16 H 0.540495 -1.21563 -2.19614 0
M  V30 17 H 0.39105 -2.34619 -0.82498 0
M  V30 18 H 0.997273 2.12801 1.79288 0
M  V30 19 H 2.5106 1.32157 1.18997 0
M  V30 20 H 1.48855 0.434895 2.33446 0
M  V30 21 H 0.910888 1.94764 -1.3238 0
M  V30 22 H -0.347472 2.43628 -0.153635 0
M  V30 23 H -0.512306 0.579685 -2.42174 0
M  V30 24 H -1.85687 1.25338 -1.43839 0
M  V30 25 H -2.11274 1.33282 0.583727 0
M  V30 26 H -2.39343 -0.00457665 1.74943 0
M  V30 27 H -1.24331 1.27953 2.16771 0
M  V30 28 H -0.542911 -2.34705 1.03104 0
M  V30 29 H 0.755332 -1.4745 1.90371 0
M  V30 30 H -0.911418 -1.42114 2.50376 0
M  V30 31 H -2.04982 -1.9642 -1.61801 0
M  V30 32 H -2.89489 -0.665271 -1.00559 0
M  V30 END ATOM
M  V30 BEGIN BOND
M  V30 1 1 1 2
M  V30 2 1 2 3
M  V30 3 1 3 4
M  V30 4 1 4 5
M  V30 5 1 5 6
M  V30 6 1 6 7
M  V30 7 1 6 8
M  V30 8 1 8 9
M  V30 9 1 5 10
M  V30 10 1 5 11
M  V30 11 1 4 12
M  V30 12 1 6 2
M  V30 13 1 9 4
M  V30 14 1 1 13
M  V30 15 1 1 14
M  V30 16 1 2 15
M  V30 17 1 3 16
M  V30 18 1 3 17
M  V30 19 1 7 18
M  V30 20 1 7 19
M  V30 21 1 7 20
M  V30 22 1 8 21
M  V30 23 1 8 22
M  V30 24 1 9 23
M  V30 25 1 9 24
M  V30 26 1 10 25
M  V30 27 1 10 26
M  V30 28 1 10 27
M  V30 29 1 11 28
M  V30 30 1 11 29
M  V30 31 1 11 30
M  V30 32 1 12 31
M  V30 33 1 12 32
M  V30 END BOND
M  V30 END CTAB
M  END
