
     RDKit          3D

  0  0  0  0  0  0  0  0  0  0999 V3000
M  V30 BEGIN CTAB
M  V30 COUNTS 22 22 0 0 0
M  V30 BEGIN ATOM
M  V30 1 C 2.34767 -0.915555 1.09094 0
M  V30 2 C 1.2499 -0.273193 0.33846 0
M  V30 3 C 1.50686 0.909587 -0.321555 0
M  V30 4 N 2.78746 1.53182 -0.304105 0
M  V30 5 C 0.44886 1.46675 -1.0079 0
M  V30 6 C -0.798698 0.878448 -1.03618 0
M  V30 7 C -1.04734 -0.305078 -0.373052 0
M  V30 8 C 0.00557233 -0.868599 0.315666 0
M  V30 9 S -2.6415 -1.04539 -0.416304 0
M  V30 10 N -3.54838 -0.420215 0.920797 0
M  V30 11 O -3.2785 -0.644447 -1.70243 0
M  V30 12 O -2.54701 -2.53618 -0.254452 0
M  V30 13 H 2.26064 -0.78027 2.19014 0
M  V30 14 H 3.32766 -0.586732 0.74987 0
M  V30 15 H 2.29128 -2.02101 0.877089 0
M  V30 16 H 3.43939 1.43437 0.491758 0
M  V30 17 H 3.127 2.12044 -1.1044 0
M  V30 18 H 0.665585 2.40635 -1.52821 0
M  V30 19 H -1.61073 1.34865 -1.58965 0
M  V30 20 H -0.211791 -1.80709 0.83507 0
M  V30 21 H -3.19745 0.544034 1.10002 0
M  V30 22 H -4.57648 -0.436692 0.728424 0
M  V30 END ATOM
M  V30 BEGIN BOND
M  V30 1 1 1 2
M  V30 2 2 2 3
M  V30 3 1 3 4
M  V30 4 1 3 5
M  V30 5 2 5 6
M  V30 6 1 6 7
M  V30 7 2 7 8
M  V30 8 1 7 9
M  V30 9 1 9 10
M  V30 10 2 9 11
M  V30 11 2 9 12
M  V30 12 1 8 2
M  V30 13 1 1 13
M  V30 14 1 1 14
M  V30 15 1 1 15
M  V30 16 1 4 16
M  V30 17 1 4 17
M  V30 18 1 5 18
M  V30 19 1 6 19
M  V30 20 1 8 20
M  V30 21 1 10 21
M  V30 22 1 10 22
M  V30 END BOND
M  V30 END CTAB
M  END
