
     RDKit          3D

  0  0  0  0  0  0  0  0  0  0999 V3000
M  V30 BEGIN CTAB
M  V30 COUNTS 28 29 0 0 0
M  V30 BEGIN ATOM
M  V30 1 N 2.13785 0.463769 -2.27638 0
M  V30 2 C 2.36124 0.0570418 -0.942248 0
M  V30 3 C 1.30831 -0.128242 -0.00826192 0
M  V30 4 C 1.63986 -0.522191 1.25887 0
M  V30 5 C 2.95078 -0.741683 1.662 0
M  V30 6 C 3.95994 -0.559007 0.753303 0
M  V30 7 Cl 5.63389 -0.832801 1.24567 0
M  V30 8 C 3.64428 -0.165912 -0.523332 0
M  V30 9 C -0.0340075 0.0480746 -0.520743 0
M  V30 10 O -0.0869849 0.16509 -1.82615 0
M  V30 11 C -1.30883 0.116613 0.145918 0
M  V30 12 C -2.45124 0.0899911 -0.680246 0
M  V30 13 N -2.32727 -0.0803793 -2.07332 0
M  V30 14 C -3.69054 0.225946 -0.117762 0
M  V30 15 C -3.8686 0.389969 1.24238 0
M  V30 16 Cl -5.48058 0.557436 1.90345 0
M  V30 17 C -2.77863 0.421546 2.07619 0
M  V30 18 C -1.50966 0.283133 1.49719 0
M  V30 19 H 1.9106 1.43956 -2.54637 0
M  V30 20 H 2.20208 -0.24473 -3.03706 0
M  V30 21 H 0.899821 -0.723894 1.97964 0
M  V30 22 H 3.16416 -1.05718 2.69751 0
M  V30 23 H 4.4551 -0.0244143 -1.23843 0
M  V30 24 H -2.3472 0.744379 -2.725 0
M  V30 25 H -2.21388 -1.03633 -2.46881 0
M  V30 26 H -4.558 0.19995 -0.796695 0
M  V30 27 H -2.91056 0.548088 3.12847 0
M  V30 28 H -0.701951 0.366178 2.19023 0
M  V30 END ATOM
M  V30 BEGIN BOND
M  V30 1 1 1 2
M  V30 2 2 2 3
M  V30 3 1 3 4
M  V30 4 2 4 5
M  V30 5 1 5 6
M  V30 6 1 6 7
M  V30 7 2 6 8
M  V30 8 1 3 9
M  V30 9 2 9 10
M  V30 10 1 9 11
M  V30 11 2 11 12
M  V30 12 1 12 13
M  V30 13 1 12 14
M  V30 14 2 14 15
M  V30 15 1 15 16
M  V30 16 1 15 17
M  V30 17 2 17 18
M  V30 18 1 8 2
M  V30 19 1 18 11
M  V30 20 1 1 19
M  V30 21 1 1 20
M  V30 22 1 4 21
M  V30 23 1 5 22
M  V30 24 1 8 23
M  V30 25 1 13 24
M  V30 26 1 13 25
M  V30 27 1 14 26
M  V30 28 1 17 27
M  V30 29 1 18 28
M  V30 END BOND
M  V30 END CTAB
M  END
