
     RDKit          3D

  0  0  0  0  0  0  0  0  0  0999 V3000
M  V30 BEGIN CTAB
M  V30 COUNTS 53 55 0 0 0
M  V30 BEGIN ATOM
M  V30 1 N 10.4836 0.402629 -0.919425 0
M  V30 2 C 9.09475 0.373596 -0.54104 0
M  V30 3 N 8.15799 0.937955 -1.3221 0
M  V30 4 C 6.84572 0.945938 -1.02508 0
M  V30 5 C 6.44553 0.329305 0.166179 0
M  V30 6 N 5.16922 0.312382 0.500998 0
M  V30 7 C 4.24629 0.880152 -0.286515 0
M  V30 8 C 2.83442 0.830732 0.14003 0
M  V30 9 C 2.24014 -0.451425 -0.459382 0
M  V30 10 C 0.833481 -0.537954 -0.0567992 0
M  V30 11 C 0.44987 -1.18388 1.08125 0
M  V30 12 C -0.881467 -1.24612 1.4473 0
M  V30 13 C -1.87656 -0.655319 0.673747 0
M  V30 14 C -1.49725 -0.00664512 -0.468068 0
M  V30 15 C -0.143449 0.0430312 -0.818395 0
M  V30 16 C -3.2721 -0.723541 1.05858 0
M  V30 17 O -3.60572 -1.50608 1.98572 0
M  V30 18 N -4.26123 0.0517968 0.434998 0
M  V30 19 C -5.6772 -0.0124569 0.818015 0
M  V30 20 C -6.51847 -0.465106 -0.316614 0
M  V30 21 C -7.96708 -0.560665 0.0123797 0
M  V30 22 C -8.74942 -1.05953 -1.17799 0
M  V30 23 O -9.44239 -0.23062 -2.01957 0
M  V30 24 O -8.75007 -2.29623 -1.38589 0
M  V30 25 C -6.04492 1.29076 1.37575 0
M  V30 26 O -7.27903 1.63185 1.90856 0
M  V30 27 O -5.17436 2.22337 1.39172 0
M  V30 28 C 4.62244 1.49567 -1.46959 0
M  V30 29 N 5.9178 1.5074 -1.79992 0
M  V30 30 C 7.40808 -0.25125 0.969453 0
M  V30 31 N 6.95805 -0.860828 2.15869 0
M  V30 32 N 8.70371 -0.217678 0.602694 0
M  V30 33 H 11.0748 1.17972 -0.535765 0
M  V30 34 H 10.8426 -0.327429 -1.54386 0
M  V30 35 H 2.2514 1.71974 -0.157761 0
M  V30 36 H 2.77769 0.709984 1.24334 0
M  V30 37 H 2.34246 -0.315384 -1.57397 0
M  V30 38 H 2.86838 -1.2768 -0.111494 0
M  V30 39 H 1.1989 -1.6586 1.71367 0
M  V30 40 H -1.17203 -1.77089 2.36597 0
M  V30 41 H -2.21481 0.483452 -1.13561 0
M  V30 42 H 0.095328 0.569012 -1.7299 0
M  V30 43 H -4.02172 0.705078 -0.326449 0
M  V30 44 H -5.75014 -0.766151 1.62618 0
M  V30 45 H -6.42443 0.197524 -1.21963 0
M  V30 46 H -6.17893 -1.47629 -0.627538 0
M  V30 47 H -8.46102 0.394728 0.28005 0
M  V30 48 H -8.09208 -1.25426 0.867709 0
M  V30 49 H -10.3007 -0.468266 -2.48848 0
M  V30 50 H -7.55238 2.57448 2.03175 0
M  V30 51 H 3.85674 1.96174 -2.11391 0
M  V30 52 H 6.40837 -0.321543 2.84216 0
M  V30 53 H 7.18112 -1.85109 2.34178 0
M  V30 END ATOM
M  V30 BEGIN BOND
M  V30 1 1 1 2
M  V30 2 2 2 3
M  V30 3 1 3 4
M  V30 4 2 4 5
M  V30 5 1 5 6
M  V30 6 2 6 7
M  V30 7 1 7 8
M  V30 8 1 8 9
M  V30 9 1 9 10
M  V30 10 2 10 11
M  V30 11 1 11 12
M  V30 12 2 12 13
M  V30 13 1 13 14
M  V30 14 2 14 15
M  V30 15 1 13 16
M  V30 16 2 16 17
M  V30 17 1 16 18
M  V30 18 1 18 19
M  V30 19 1 19 20
M  V30 20 1 20 21
M  V30 21 1 21 22
M  V30 22 1 22 23
M  V30 23 2 22 24
M  V30 24 1 19 25
M  V30 25 1 25 26
M  V30 26 2 25 27
M  V30 27 1 7 28
M  V30 28 2 28 29
M  V30 29 1 5 30
M  V30 30 1 30 31
M  V30 31 2 30 32
M  V30 32 1 32 2
M  V30 33 1 29 4
M  V30 34 1 15 10
M  V30 35 1 1 33
M  V30 36 1 1 34
M  V30 37 1 8 35
M  V30 38 1 8 36
M  V30 39 1 9 37
M  V30 40 1 9 38
M  V30 41 1 11 39
M  V30 42 1 12 40
M  V30 43 1 14 41
M  V30 44 1 15 42
M  V30 45 1 18 43
M  V30 46 1 19 44
M  V30 47 1 20 45
M  V30 48 1 20 46
M  V30 49 1 21 47
M  V30 50 1 21 48
M  V30 51 1 23 49
M  V30 52 1 26 50
M  V30 53 1 28 51
M  V30 54 1 31 52
M  V30 55 1 31 53
M  V30 END BOND
M  V30 END CTAB
M  END
