
     RDKit          3D

  0  0  0  0  0  0  0  0  0  0999 V3000
M  V30 BEGIN CTAB
M  V30 COUNTS 22 23 0 0 0
M  V30 BEGIN ATOM
M  V30 1 N 1.86202 2.70214 -1.87459 0
M  V30 2 C 1.47206 1.70601 -1.38974 0
M  V30 3 C 0.960809 0.454737 -0.77943 0
M  V30 4 C 1.79019 -0.592338 -0.52979 0
M  V30 5 S 3.56415 -0.653561 -0.873434 0
M  V30 6 C 4.44855 -0.0340969 0.574752 0
M  V30 7 S 0.773322 -1.77325 0.15712 0
M  V30 8 C -0.695983 -0.909837 0.114346 0
M  V30 9 C -0.355971 0.287269 -0.438552 0
M  V30 10 N -1.40495 1.16305 -0.573553 0
M  V30 11 C -2.65755 0.913457 -0.212884 0
M  V30 12 N -3.69071 1.90138 -0.396279 0
M  V30 13 N -3.00994 -0.276604 0.33974 0
M  V30 14 C -2.02595 -1.17304 0.49656 0
M  V30 15 N -2.23218 -2.46083 1.05825 0
M  V30 16 H 4.08117 0.956503 0.915422 0
M  V30 17 H 5.52498 -0.0184378 0.363827 0
M  V30 18 H 4.30545 -0.755099 1.42066 0
M  V30 19 H -3.86067 2.25249 -1.33204 0
M  V30 20 H -4.22265 2.22094 0.417241 0
M  V30 21 H -1.8099 -2.75597 1.97617 0
M  V30 22 H -2.81624 -3.1549 0.566207 0
M  V30 END ATOM
M  V30 BEGIN BOND
M  V30 1 3 1 2
M  V30 2 1 2 3
M  V30 3 2 3 4
M  V30 4 1 4 5
M  V30 5 1 5 6
M  V30 6 1 4 7
M  V30 7 1 7 8
M  V30 8 2 8 9
M  V30 9 1 9 10
M  V30 10 2 10 11
M  V30 11 1 11 12
M  V30 12 1 11 13
M  V30 13 2 13 14
M  V30 14 1 14 15
M  V30 15 1 9 3
M  V30 16 1 14 8
M  V30 17 1 6 16
M  V30 18 1 6 17
M  V30 19 1 6 18
M  V30 20 1 12 19
M  V30 21 1 12 20
M  V30 22 1 15 21
M  V30 23 1 15 22
M  V30 END BOND
M  V30 END CTAB
M  END
