
     RDKit          3D

  0  0  0  0  0  0  0  0  0  0999 V3000
M  V30 BEGIN CTAB
M  V30 COUNTS 60 63 0 0 0
M  V30 BEGIN ATOM
M  V30 1 N -7.69346 -1.27385 -3.4973 0
M  V30 2 C -6.72301 -1.5432 -2.52391 0
M  V30 3 N -6.6008 -2.71437 -2.04071 0
M  V30 4 C -5.85228 -0.473622 -2.06636 0
M  V30 5 C -5.94964 0.811309 -2.56285 0
M  V30 6 C -5.12015 1.81093 -2.12088 0
M  V30 7 C -4.17768 1.48331 -1.15472 0
M  V30 8 C -4.05394 0.213139 -0.638779 0
M  V30 9 O -3.14933 -0.179733 0.313434 0
M  V30 10 C -2.17526 0.608067 0.954811 0
M  V30 11 C -0.833224 0.0841486 0.595466 0
M  V30 12 O -0.815405 -1.00057 -0.0134723 0
M  V30 13 N 0.341823 0.770385 0.916346 0
M  V30 14 C 1.64191 0.386618 0.630708 0
M  V30 15 C 2.65918 1.26305 1.0668 0
M  V30 16 F 2.35761 2.4196 1.73159 0
M  V30 17 C 3.95459 0.943687 0.817385 0
M  V30 18 C 4.32054 -0.199817 0.156424 0
M  V30 19 C 3.36242 -1.06201 -0.274573 0
M  V30 20 C 2.02366 -0.749748 -0.0269471 0
M  V30 21 C 5.72118 -0.455548 -0.0305905 0
M  V30 22 C 6.42634 -1.0351 1.03652 0
M  V30 23 C 7.7703 -1.29601 0.864987 0
M  V30 24 C 8.4122 -0.995499 -0.328205 0
M  V30 25 C 7.71886 -0.428441 -1.36959 0
M  V30 26 C 6.34819 -0.156696 -1.20886 0
M  V30 27 S 5.52816 0.564482 -2.53618 0
M  V30 28 N 4.27287 -0.33683 -3.2281 0
M  V30 29 O 6.53479 0.843768 -3.64347 0
M  V30 30 O 4.94765 1.89519 -2.0952 0
M  V30 31 C -2.36176 0.581604 2.4253 0
M  V30 32 C -3.61423 0.980476 2.92107 0
M  V30 33 C -3.88894 0.971741 4.26696 0
M  V30 34 C -2.95483 0.573233 5.19603 0
M  V30 35 C -1.72581 0.180243 4.72532 0
M  V30 36 C -1.44151 0.187635 3.3494 0
M  V30 37 C -4.90961 -0.767054 -1.11086 0
M  V30 38 H -7.53712 -1.53555 -4.48598 0
M  V30 39 H -8.57968 -0.808578 -3.23542 0
M  V30 40 H -7.21505 -3.50127 -2.35324 0
M  V30 41 H -6.7198 0.977881 -3.3203 0
M  V30 42 H -5.21184 2.81209 -2.5222 0
M  V30 43 H -3.5249 2.27003 -0.806912 0
M  V30 44 H -2.22503 1.67148 0.572073 0
M  V30 45 H 0.18136 1.6867 1.43868 0
M  V30 46 H 4.72477 1.63481 1.163 0
M  V30 47 H 3.58587 -1.98724 -0.798052 0
M  V30 48 H 1.29312 -1.47635 -0.394622 0
M  V30 49 H 5.89355 -1.25758 1.95645 0
M  V30 50 H 8.28685 -1.74316 1.70578 0
M  V30 51 H 9.46634 -1.23734 -0.365971 0
M  V30 52 H 8.24371 -0.205177 -2.28662 0
M  V30 53 H 3.33652 0.0671829 -3.21194 0
M  V30 54 H 4.37201 -1.35208 -3.24114 0
M  V30 55 H -4.36162 1.29924 2.17934 0
M  V30 56 H -4.87786 1.2902 4.61318 0
M  V30 57 H -3.19686 0.574954 6.26429 0
M  V30 58 H -0.951967 -0.143075 5.4069 0
M  V30 59 H -0.453617 -0.147239 3.01774 0
M  V30 60 H -4.83014 -1.79444 -0.712404 0
M  V30 END ATOM
M  V30 BEGIN BOND
M  V30 1 1 1 2
M  V30 2 2 2 3 CFG=2
M  V30 3 1 2 4
M  V30 4 2 4 5
M  V30 5 1 5 6
M  V30 6 2 6 7
M  V30 7 1 7 8
M  V30 8 1 8 9
M  V30 9 1 9 10
M  V30 10 1 10 11
M  V30 11 2 11 12
M  V30 12 1 11 13
M  V30 13 1 13 14
M  V30 14 2 14 15
M  V30 15 1 15 16
M  V30 16 1 15 17
M  V30 17 2 17 18
M  V30 18 1 18 19
M  V30 19 2 19 20
M  V30 20 1 18 21
M  V30 21 2 21 22
M  V30 22 1 22 23
M  V30 23 2 23 24
M  V30 24 1 24 25
M  V30 25 2 25 26
M  V30 26 1 26 27
M  V30 27 1 27 28
M  V30 28 2 27 29
M  V30 29 2 27 30
M  V30 30 1 10 31
M  V30 31 2 31 32
M  V30 32 1 32 33
M  V30 33 2 33 34
M  V30 34 1 34 35
M  V30 35 2 35 36
M  V30 36 2 8 37
M  V30 37 1 37 4
M  V30 38 1 20 14
M  V30 39 1 26 21
M  V30 40 1 36 31
M  V30 41 1 1 38
M  V30 42 1 1 39
M  V30 43 1 3 40
M  V30 44 1 5 41
M  V30 45 1 6 42
M  V30 46 1 7 43
M  V30 47 1 10 44
M  V30 48 1 13 45
M  V30 49 1 17 46
M  V30 50 1 19 47
M  V30 51 1 20 48
M  V30 52 1 22 49
M  V30 53 1 23 50
M  V30 54 1 24 51
M  V30 55 1 25 52
M  V30 56 1 28 53
M  V30 57 1 28 54
M  V30 58 1 32 55
M  V30 59 1 33 56
M  V30 60 1 34 57
M  V30 61 1 35 58
M  V30 62 1 36 59
M  V30 63 1 37 60
M  V30 END BOND
M  V30 END CTAB
M  END
