
     RDKit          3D

  0  0  0  0  0  0  0  0  0  0999 V3000
M  V30 BEGIN CTAB
M  V30 COUNTS 30 30 0 0 0
M  V30 BEGIN ATOM
M  V30 1 N 4.58879 -1.78933 -0.419017 0
M  V30 2 N 3.27655 -1.46588 -0.102945 0
M  V30 3 C 2.85172 -0.289115 0.133673 0
M  V30 4 N 1.49276 -0.0876657 0.444275 0
M  V30 5 C 0.59201 0.702696 -0.365015 0
M  V30 6 C -0.768541 0.681915 0.29032 0
M  V30 7 O -0.60923 1.23684 1.57468 0
M  V30 8 C -1.79573 1.44344 -0.477425 0
M  V30 9 C -2.75232 0.430544 -1.01065 0
M  V30 10 N -2.54981 -0.794151 -0.290691 0
M  V30 11 C -1.32028 -0.694 0.426753 0
M  V30 12 C -3.64895 -1.13452 0.565278 0
M  V30 13 N 3.71534 0.819578 0.091232 0
M  V30 14 H 5.21135 -1.04473 -0.784618 0
M  V30 15 H 4.89771 -2.77178 -0.27578 0
M  V30 16 H 1.15924 -0.565106 1.3348 0
M  V30 17 H 0.483195 0.187189 -1.34571 0
M  V30 18 H 0.943114 1.71639 -0.568332 0
M  V30 19 H 0.155819 1.86019 1.55818 0
M  V30 20 H -1.36733 2.08633 -1.27253 0
M  V30 21 H -2.35453 2.09627 0.231448 0
M  V30 22 H -2.52129 0.222282 -2.09147 0
M  V30 23 H -3.80737 0.784759 -0.887995 0
M  V30 24 H -0.577339 -1.43474 0.0251256 0
M  V30 25 H -1.52355 -0.942647 1.49577 0
M  V30 26 H -4.62528 -0.821664 0.122479 0
M  V30 27 H -3.57042 -0.693047 1.58756 0
M  V30 28 H -3.65901 -2.23588 0.716297 0
M  V30 29 H 3.64232 1.49445 -0.69661 0
M  V30 30 H 4.44108 1.00138 0.827694 0
M  V30 END ATOM
M  V30 BEGIN BOND
M  V30 1 1 1 2
M  V30 2 2 2 3 CFG=2
M  V30 3 1 3 4
M  V30 4 1 4 5
M  V30 5 1 5 6
M  V30 6 1 6 7
M  V30 7 1 6 8
M  V30 8 1 8 9
M  V30 9 1 9 10
M  V30 10 1 10 11
M  V30 11 1 10 12
M  V30 12 1 3 13
M  V30 13 1 11 6
M  V30 14 1 1 14
M  V30 15 1 1 15
M  V30 16 1 4 16
M  V30 17 1 5 17
M  V30 18 1 5 18
M  V30 19 1 7 19
M  V30 20 1 8 20
M  V30 21 1 8 21
M  V30 22 1 9 22
M  V30 23 1 9 23
M  V30 24 1 11 24
M  V30 25 1 11 25
M  V30 26 1 12 26
M  V30 27 1 12 27
M  V30 28 1 12 28
M  V30 29 1 13 29
M  V30 30 1 13 30
M  V30 END BOND
M  V30 END CTAB
M  END
