
     RDKit          3D

  0  0  0  0  0  0  0  0  0  0999 V3000
M  V30 BEGIN CTAB
M  V30 COUNTS 50 54 0 0 0
M  V30 BEGIN ATOM
M  V30 1 N 9.61488 0.935816 0.157158 0
M  V30 2 C 8.20771 0.836329 0.42569 0
M  V30 3 C 7.38658 1.94346 0.379722 0
M  V30 4 C 6.03416 1.84369 0.638537 0
M  V30 5 C 5.43837 0.633768 0.955361 0
M  V30 6 S 3.68741 0.518259 1.28806 0
M  V30 7 C 2.7909 0.195802 -0.221317 0
M  V30 8 C 3.46401 0.0688003 -1.44258 0
M  V30 9 C 2.74689 -0.179774 -2.59049 0
M  V30 10 C 1.37575 -0.301464 -2.52956 0
M  V30 11 C 0.699474 -0.175448 -1.31267 0
M  V30 12 C 1.41237 0.0757586 -0.145383 0
M  V30 13 C 0.728331 0.211831 1.14039 0
M  V30 14 O 1.42352 0.437066 2.1528 0
M  V30 15 C -0.718727 0.0851201 1.21562 0
M  V30 16 C -1.44208 -0.164142 0.0671194 0
M  V30 17 C -0.74849 -0.298277 -1.21212 0
M  V30 18 O -1.40835 -0.526807 -2.26712 0
M  V30 19 C -2.82792 -0.281388 0.165279 0
M  V30 20 S -3.73091 -0.602087 -1.32937 0
M  V30 21 C -5.46903 -0.712062 -0.969397 0
M  V30 22 C -6.09382 -1.89789 -0.63887 0
M  V30 23 C -7.45459 -1.88354 -0.374632 0
M  V30 24 C -8.18631 -0.717138 -0.435829 0
M  V30 25 N -9.57285 -0.711709 -0.16497 0
M  V30 26 C -7.55091 0.483218 -0.770983 0
M  V30 27 C -6.20299 0.470178 -1.03293 0
M  V30 28 C -3.4805 -0.157076 1.35677 0
M  V30 29 C -2.75908 0.0901733 2.49362 0
M  V30 30 C -1.39093 0.211513 2.43237 0
M  V30 31 C 6.26705 -0.470661 0.999508 0
M  V30 32 C 7.62088 -0.371285 0.740511 0
M  V30 33 H 10.2279 1.54204 0.747405 0
M  V30 34 H 10.0757 0.417685 -0.622711 0
M  V30 35 H 7.8484 2.88994 0.132633 0
M  V30 36 H 5.3777 2.7233 0.602748 0
M  V30 37 H 4.53824 0.176968 -1.4085 0
M  V30 38 H 3.28454 -0.273508 -3.51679 0
M  V30 39 H 0.796303 -0.497281 -3.42497 0
M  V30 40 H -5.49647 -2.80136 -0.597466 0
M  V30 41 H -7.94565 -2.81921 -0.114216 0
M  V30 42 H -9.96474 -1.40029 0.489453 0
M  V30 43 H -10.1937 -0.021491 -0.619598 0
M  V30 44 H -8.09693 1.41625 -0.827637 0
M  V30 45 H -5.71908 1.40275 -1.29141 0
M  V30 46 H -4.57628 -0.254094 1.40685 0
M  V30 47 H -3.30697 0.183168 3.42138 0
M  V30 48 H -0.798569 0.405713 3.30959 0
M  V30 49 H 5.82776 -1.4182 1.24275 0
M  V30 50 H 8.26106 -1.26241 0.781212 0
M  V30 END ATOM
M  V30 BEGIN BOND
M  V30 1 1 1 2
M  V30 2 2 2 3
M  V30 3 1 3 4
M  V30 4 2 4 5
M  V30 5 1 5 6
M  V30 6 1 6 7
M  V30 7 2 7 8
M  V30 8 1 8 9
M  V30 9 2 9 10
M  V30 10 1 10 11
M  V30 11 2 11 12
M  V30 12 1 12 13
M  V30 13 2 13 14
M  V30 14 1 13 15
M  V30 15 2 15 16
M  V30 16 1 16 17
M  V30 17 2 17 18
M  V30 18 1 16 19
M  V30 19 1 19 20
M  V30 20 1 20 21
M  V30 21 2 21 22
M  V30 22 1 22 23
M  V30 23 2 23 24
M  V30 24 1 24 25
M  V30 25 1 24 26
M  V30 26 2 26 27
M  V30 27 2 19 28
M  V30 28 1 28 29
M  V30 29 2 29 30
M  V30 30 1 5 31
M  V30 31 2 31 32
M  V30 32 1 32 2
M  V30 33 1 12 7
M  V30 34 1 30 15
M  V30 35 1 17 11
M  V30 36 1 27 21
M  V30 37 1 1 33
M  V30 38 1 1 34
M  V30 39 1 3 35
M  V30 40 1 4 36
M  V30 41 1 8 37
M  V30 42 1 9 38
M  V30 43 1 10 39
M  V30 44 1 22 40
M  V30 45 1 23 41
M  V30 46 1 25 42
M  V30 47 1 25 43
M  V30 48 1 26 44
M  V30 49 1 27 45
M  V30 50 1 28 46
M  V30 51 1 29 47
M  V30 52 1 30 48
M  V30 53 1 31 49
M  V30 54 1 32 50
M  V30 END BOND
M  V30 END CTAB
M  END
