
     RDKit          3D

  0  0  0  0  0  0  0  0  0  0999 V3000
M  V30 BEGIN CTAB
M  V30 COUNTS 31 32 0 0 0
M  V30 BEGIN ATOM
M  V30 1 C -4.29495 0.130345 0.241011 0
M  V30 2 N -2.958 0.402537 -0.202678 0
M  V30 3 C -2.11678 0.934324 0.832722 0
M  V30 4 C -0.874971 1.51834 0.136962 0
M  V30 5 N -0.188145 0.382525 -0.438527 0
M  V30 6 C -0.999555 -0.448518 -1.32475 0
M  V30 7 C -2.33438 -0.799069 -0.740156 0
M  V30 8 C 1.16581 0.0838517 -0.177176 0
M  V30 9 C 1.98717 0.837575 0.612827 0
M  V30 10 C 3.33038 0.457214 0.817057 0
M  V30 11 N 4.13714 1.26831 1.64084 0
M  V30 12 N 3.76469 -0.659297 0.213047 0
M  V30 13 C 2.96693 -1.41338 -0.569156 0
M  V30 14 N 3.46596 -2.59369 -1.19392 0
M  V30 15 N 1.69036 -1.01873 -0.740864 0
M  V30 16 H -5.01059 0.699729 -0.385061 0
M  V30 17 H -4.34991 0.445305 1.31662 0
M  V30 18 H -4.56901 -0.936184 0.198913 0
M  V30 19 H -2.61776 1.70633 1.44794 0
M  V30 20 H -1.7351 0.0924709 1.44198 0
M  V30 21 H -0.283409 2.11411 0.839719 0
M  V30 22 H -1.25627 2.10666 -0.723691 0
M  V30 23 H -1.15124 0.0561472 -2.30121 0
M  V30 24 H -0.452894 -1.38428 -1.54142 0
M  V30 25 H -2.1885 -1.56286 0.0521901 0
M  V30 26 H -2.94681 -1.24831 -1.51971 0
M  V30 27 H 1.62479 1.727 1.08718 0
M  V30 28 H 3.81668 1.51326 2.58868 0
M  V30 29 H 5.04406 1.6165 1.29974 0
M  V30 30 H 3.33365 -3.55023 -0.827792 0
M  V30 31 H 4.00065 -2.478 -2.08132 0
M  V30 END ATOM
M  V30 BEGIN BOND
M  V30 1 1 1 2
M  V30 2 1 2 3
M  V30 3 1 3 4
M  V30 4 1 4 5
M  V30 5 1 5 6
M  V30 6 1 6 7
M  V30 7 1 5 8
M  V30 8 2 8 9
M  V30 9 1 9 10
M  V30 10 1 10 11
M  V30 11 2 10 12
M  V30 12 1 12 13
M  V30 13 1 13 14
M  V30 14 2 13 15
M  V30 15 1 7 2
M  V30 16 1 15 8
M  V30 17 1 1 16
M  V30 18 1 1 17
M  V30 19 1 1 18
M  V30 20 1 3 19
M  V30 21 1 3 20
M  V30 22 1 4 21
M  V30 23 1 4 22
M  V30 24 1 6 23
M  V30 25 1 6 24
M  V30 26 1 7 25
M  V30 27 1 7 26
M  V30 28 1 9 27
M  V30 29 1 11 28
M  V30 30 1 11 29
M  V30 31 1 14 30
M  V30 32 1 14 31
M  V30 END BOND
M  V30 END CTAB
M  END
