
     RDKit          3D

  0  0  0  0  0  0  0  0  0  0999 V3000
M  V30 BEGIN CTAB
M  V30 COUNTS 20 21 0 0 0
M  V30 BEGIN ATOM
M  V30 1 N -3.17122 -1.33504 -0.81936 0
M  V30 2 C -2.02991 -0.494017 -0.83924 0
M  V30 3 N -1.89468 0.560544 -1.6758 0
M  V30 4 C -0.800227 1.33035 -1.66279 0
M  V30 5 N -0.729211 2.41949 -2.56979 0
M  V30 6 N 0.219728 1.06681 -0.79372 0
M  V30 7 C 0.150158 0.0366167 0.0626751 0
M  V30 8 C -0.978097 -0.749671 0.0428969 0
M  V30 9 C 1.23612 -0.251232 0.994274 0
M  V30 10 N 2.38456 0.387803 1.15529 0
M  V30 11 C 3.2303 -0.0190991 2.04038 0
M  V30 12 C 2.9034 -1.11552 2.79341 0
M  V30 13 S 1.34619 -1.49833 2.15258 0
M  V30 14 H -4.04776 -1.00664 -0.364913 0
M  V30 15 H -3.13961 -2.27951 -1.25615 0
M  V30 16 H 0.214322 2.76495 -2.86271 0
M  V30 17 H -1.58977 2.86911 -2.93914 0
M  V30 18 H -1.00986 -1.57202 0.741416 0
M  V30 19 H 4.20519 0.480916 2.21415 0
M  V30 20 H 3.50038 -1.59553 3.58655 0
M  V30 END ATOM
M  V30 BEGIN BOND
M  V30 1 1 1 2
M  V30 2 2 2 3
M  V30 3 1 3 4
M  V30 4 1 4 5
M  V30 5 2 4 6
M  V30 6 1 6 7
M  V30 7 2 7 8
M  V30 8 1 7 9
M  V30 9 2 9 10
M  V30 10 1 10 11
M  V30 11 2 11 12
M  V30 12 1 12 13
M  V30 13 1 8 2
M  V30 14 1 13 9
M  V30 15 1 1 14
M  V30 16 1 1 15
M  V30 17 1 5 16
M  V30 18 1 5 17
M  V30 19 1 8 18
M  V30 20 1 11 19
M  V30 21 1 12 20
M  V30 END BOND
M  V30 END CTAB
M  END
