
     RDKit          3D

  0  0  0  0  0  0  0  0  0  0999 V3000
M  V30 BEGIN CTAB
M  V30 COUNTS 23 24 0 0 0
M  V30 BEGIN ATOM
M  V30 1 N 4.06795 -0.111504 -0.104574 0
M  V30 2 C 2.65491 -0.0444312 -0.0738833 0
M  V30 3 N 1.99398 1.11644 -0.0109469 0
M  V30 4 C 0.614221 1.17211 0.0181822 0
M  V30 5 N 0.074928 2.4452 0.132804 0
M  V30 6 C -0.134569 0.0361188 -0.018168 0
M  V30 7 C 0.575612 -1.16011 -0.0817749 0
M  V30 8 C -0.0467779 -2.36348 -0.0997151 0
M  V30 9 C -1.40996 -2.39623 -0.0543845 0
M  V30 10 C -2.11115 -1.22085 0.00599481 0
M  V30 11 C -1.5291 0.0664607 0.0264231 0
M  V30 12 C -2.32596 1.26465 0.0280814 0
M  V30 13 F -2.34244 2.12232 -1.04285 0
M  V30 14 F -2.82025 1.73942 1.22523 0
M  V30 15 F -3.62507 0.733952 -0.349217 0
M  V30 16 N 1.92357 -1.1485 -0.106956 0
M  V30 17 H 4.56431 -0.978794 0.143075 0
M  V30 18 H 4.65231 0.709183 -0.377124 0
M  V30 19 H -0.363947 2.81092 0.979224 0
M  V30 20 H 0.154379 3.1092 -0.695296 0
M  V30 21 H 0.505048 -3.27985 -0.148278 0
M  V30 22 H -1.88982 -3.36323 -0.0681413 0
M  V30 23 H -3.18217 -1.259 0.0456656 0
M  V30 END ATOM
M  V30 BEGIN BOND
M  V30 1 1 1 2
M  V30 2 2 2 3
M  V30 3 1 3 4
M  V30 4 1 4 5
M  V30 5 2 4 6
M  V30 6 1 6 7
M  V30 7 1 7 8
M  V30 8 2 8 9
M  V30 9 1 9 10
M  V30 10 2 10 11
M  V30 11 1 11 12
M  V30 12 1 12 13
M  V30 13 1 12 14
M  V30 14 1 12 15
M  V30 15 2 7 16
M  V30 16 1 16 2
M  V30 17 1 11 6
M  V30 18 1 1 17
M  V30 19 1 1 18
M  V30 20 1 5 19
M  V30 21 1 5 20
M  V30 22 1 8 21
M  V30 23 1 9 22
M  V30 24 1 10 23
M  V30 END BOND
M  V30 END CTAB
M  END
