
     RDKit          3D

  0  0  0  0  0  0  0  0  0  0999 V3000
M  V30 BEGIN CTAB
M  V30 COUNTS 26 26 0 0 0
M  V30 BEGIN ATOM
M  V30 1 O 3.87233 0.720323 0.307416 0
M  V30 2 C 3.44943 -0.224841 -0.426161 0
M  V30 3 C 1.96437 -0.16044 -0.679752 0
M  V30 4 C 1.18463 -0.234831 0.614393 0 CFG=2
M  V30 5 C -0.27182 -0.169182 0.336182 0
M  V30 6 C -1.0714 -1.3026 0.354108 0
M  V30 7 C -2.40848 -1.27732 0.103831 0
M  V30 8 C -2.99778 -0.0645857 -0.181808 0
M  V30 9 C -2.24242 1.07656 -0.209021 0
M  V30 10 C -0.881463 1.0338 0.048211 0
M  V30 11 N -4.39496 -0.0545582 -0.440948 0
M  V30 12 N 1.50699 0.839091 1.50995 0
M  V30 13 H 3.79369 1.47783 0.428304 0
M  V30 14 H 3.9418 -0.1545 -1.43815 0
M  V30 15 H 3.6796 -1.24401 -0.0375832 0
M  V30 16 H 1.69855 -1.0799 -1.26566 0
M  V30 17 H 1.68688 0.714738 -1.28642 0
M  V30 18 H 1.36583 -1.19494 1.12619 0
M  V30 19 H -0.580578 -2.23552 0.580742 0
M  V30 20 H -3.00249 -2.19263 0.12782 0
M  V30 21 H -2.71353 2.01825 -0.433303 0
M  V30 22 H -0.308057 1.94432 0.0210777 0
M  V30 23 H -4.78219 -0.825436 -1.0554 0
M  V30 24 H -5.04132 0.662807 -0.0609378 0
M  V30 25 H 1.83113 0.447697 2.41184 0
M  V30 26 H 0.721267 1.47988 1.71991 0
M  V30 END ATOM
M  V30 BEGIN BOND
M  V30 1 1 1 2
M  V30 2 1 2 3
M  V30 3 1 3 4
M  V30 4 1 4 5
M  V30 5 2 5 6
M  V30 6 1 6 7
M  V30 7 2 7 8
M  V30 8 1 8 9
M  V30 9 2 9 10
M  V30 10 1 8 11
M  V30 11 1 4 12
M  V30 12 1 10 5
M  V30 13 1 1 13
M  V30 14 1 2 14
M  V30 15 1 2 15
M  V30 16 1 3 16
M  V30 17 1 3 17
M  V30 18 1 4 18 CFG=1
M  V30 19 1 6 19
M  V30 20 1 7 20
M  V30 21 1 9 21
M  V30 22 1 10 22
M  V30 23 1 11 23
M  V30 24 1 11 24
M  V30 25 1 12 25
M  V30 26 1 12 26
M  V30 END BOND
M  V30 END CTAB
M  END
