
     RDKit          3D

  0  0  0  0  0  0  0  0  0  0999 V3000
M  V30 BEGIN CTAB
M  V30 COUNTS 25 25 0 0 0
M  V30 BEGIN ATOM
M  V30 1 N -2.29055 2.54901 -0.37247 0
M  V30 2 C -2.35979 1.44013 -0.0297474 0
M  V30 3 C -2.42379 0.0247357 0.396323 0
M  V30 4 S -1.12151 -0.19538 1.62738 0
M  V30 5 C 0.482726 -0.0156988 0.861839 0
M  V30 6 N 1.09552 -1.10645 0.372626 0
M  V30 7 C 2.29536 -1.04731 -0.226296 0
M  V30 8 N 2.90318 -2.25322 -0.728173 0
M  V30 9 C 2.94115 0.147661 -0.359226 0
M  V30 10 C 2.32175 1.27518 0.138631 0
M  V30 11 N 1.12495 1.14429 0.72487 0
M  V30 12 N 2.99704 2.51761 -0.00571501 0
M  V30 13 C -3.75043 -0.265375 1.04356 0
M  V30 14 C -2.17432 -0.837648 -0.827386 0
M  V30 15 H 2.80118 -3.15654 -0.206308 0
M  V30 16 H 3.4444 -2.21155 -1.61687 0
M  V30 17 H 3.91289 0.218064 -0.842162 0
M  V30 18 H 3.22695 2.89461 -0.965011 0
M  V30 19 H 3.26779 3.05941 0.832154 0
M  V30 20 H -4.14029 0.646311 1.56531 0
M  V30 21 H -4.51255 -0.59964 0.305764 0
M  V30 22 H -3.63329 -1.09916 1.76486 0
M  V30 23 H -2.86577 -1.7176 -0.787959 0
M  V30 24 H -2.40968 -0.24328 -1.75292 0
M  V30 25 H -1.13291 -1.16816 -0.913081 0
M  V30 END ATOM
M  V30 BEGIN BOND
M  V30 1 3 1 2
M  V30 2 1 2 3
M  V30 3 1 3 4
M  V30 4 1 4 5
M  V30 5 2 5 6
M  V30 6 1 6 7
M  V30 7 1 7 8
M  V30 8 2 7 9
M  V30 9 1 9 10
M  V30 10 2 10 11
M  V30 11 1 10 12
M  V30 12 1 3 13
M  V30 13 1 3 14
M  V30 14 1 11 5
M  V30 15 1 8 15
M  V30 16 1 8 16
M  V30 17 1 9 17
M  V30 18 1 12 18
M  V30 19 1 12 19
M  V30 20 1 13 20
M  V30 21 1 13 21
M  V30 22 1 13 22
M  V30 23 1 14 23
M  V30 24 1 14 24
M  V30 25 1 14 25
M  V30 END BOND
M  V30 END CTAB
M  END
