
     RDKit          3D

  0  0  0  0  0  0  0  0  0  0999 V3000
M  V30 BEGIN CTAB
M  V30 COUNTS 20 20 0 0 0
M  V30 BEGIN ATOM
M  V30 1 C -2.30389 -1.74896 -0.0685884 0
M  V30 2 O -2.00853 -0.35952 -0.178468 0
M  V30 3 C -0.689986 0.0680232 -0.078161 0
M  V30 4 C 0.365084 -0.793082 0.125213 0
M  V30 5 C 1.67922 -0.382626 0.226793 0
M  V30 6 N 2.71914 -1.33558 0.437882 0
M  V30 7 C 1.91168 0.966748 0.114126 0
M  V30 8 C 0.87542 1.8525 -0.0897154 0
M  V30 9 C -0.431762 1.42134 -0.188414 0
M  V30 10 N -1.51658 2.31818 -0.398686 0
M  V30 11 H -3.32195 -1.96618 -0.449132 0
M  V30 12 H -1.61195 -2.35758 -0.702505 0
M  V30 13 H -2.22606 -2.01642 0.994131 0
M  V30 14 H 0.142039 -1.85413 0.209412 0
M  V30 15 H 3.52201 -1.29117 -0.227958 0
M  V30 16 H 2.73074 -2.04268 1.18016 0
M  V30 17 H 2.94052 1.29201 0.19325 0
M  V30 18 H 1.07127 2.92379 -0.177923 0
M  V30 19 H -1.8011 2.6423 -1.33933 0
M  V30 20 H -2.04533 2.66303 0.417911 0
M  V30 END ATOM
M  V30 BEGIN BOND
M  V30 1 1 1 2
M  V30 2 1 2 3
M  V30 3 2 3 4
M  V30 4 1 4 5
M  V30 5 1 5 6
M  V30 6 2 5 7
M  V30 7 1 7 8
M  V30 8 2 8 9
M  V30 9 1 9 10
M  V30 10 1 9 3
M  V30 11 1 1 11
M  V30 12 1 1 12
M  V30 13 1 1 13
M  V30 14 1 4 14
M  V30 15 1 6 15
M  V30 16 1 6 16
M  V30 17 1 7 17
M  V30 18 1 8 18
M  V30 19 1 10 19
M  V30 20 1 10 20
M  V30 END BOND
M  V30 END CTAB
M  END
