
     RDKit          3D

  0  0  0  0  0  0  0  0  0  0999 V3000
M  V30 BEGIN CTAB
M  V30 COUNTS 25 26 0 0 0
M  V30 BEGIN ATOM
M  V30 1 C 2.91665 0.00584168 0.857965 0
M  V30 2 C 1.74688 0.480069 -0.0311361 0 CFG=2
M  V30 3 C 1.11262 1.73729 0.557184 0
M  V30 4 C 0.433268 0.416958 0.576255 0 CFG=1
M  V30 5 C -0.858124 0.35023 -0.146249 0
M  V30 6 N -1.3088 1.01795 -1.21204 0
M  V30 7 N -2.534 0.645094 -1.53602 0
M  V30 8 C -2.92105 -0.298544 -0.667051 0
M  V30 9 N -1.89913 -0.475846 0.177487 0
M  V30 10 N -1.89016 -1.37819 1.24436 0
M  V30 11 N -4.19708 -0.963896 -0.678662 0
M  V30 12 C 2.07788 0.412102 -1.45018 0
M  V30 13 O 1.34306 0.741277 -2.41714 0
M  V30 14 O 3.33971 -0.06219 -1.89351 0
M  V30 15 H 3.31383 0.8053 1.48003 0
M  V30 16 H 3.7257 -0.436098 0.288273 0
M  V30 17 H 2.49429 -0.783093 1.50849 0
M  V30 18 H 0.735901 2.49522 -0.187564 0
M  V30 19 H 1.51765 2.20669 1.45346 0
M  V30 20 H 0.41803 -0.101917 1.59574 0
M  V30 21 H -1.55515 -2.35348 1.14381 0
M  V30 22 H -2.24917 -0.997647 2.16332 0
M  V30 23 H -4.8382 -0.923988 0.144511 0
M  V30 24 H -4.4414 -1.47657 -1.53441 0
M  V30 25 H 3.51679 -1.06256 -1.92635 0
M  V30 END ATOM
M  V30 BEGIN BOND
M  V30 1 1 1 2
M  V30 2 1 2 3
M  V30 3 1 3 4
M  V30 4 1 4 5
M  V30 5 2 5 6
M  V30 6 1 6 7
M  V30 7 2 7 8
M  V30 8 1 8 9
M  V30 9 1 9 10
M  V30 10 1 8 11
M  V30 11 1 2 12 CFG=3
M  V30 12 2 12 13
M  V30 13 1 12 14
M  V30 14 1 4 2
M  V30 15 1 9 5
M  V30 16 1 1 15
M  V30 17 1 1 16
M  V30 18 1 1 17
M  V30 19 1 3 18
M  V30 20 1 3 19
M  V30 21 1 4 20 CFG=1
M  V30 22 1 10 21
M  V30 23 1 10 22
M  V30 24 1 11 23
M  V30 25 1 11 24
M  V30 26 1 14 25
M  V30 END BOND
M  V30 END CTAB
M  END
