
     RDKit          3D

  0  0  0  0  0  0  0  0  0  0999 V3000
M  V30 BEGIN CTAB
M  V30 COUNTS 34 35 0 0 0
M  V30 BEGIN ATOM
M  V30 1 N -3.49962 1.82615 0.878641 0
M  V30 2 C -4.1659 0.653247 0.472128 0
M  V30 3 C -3.54213 -0.254682 -0.358321 0
M  V30 4 S -1.87895 0.0939168 -0.900674 0
M  V30 5 C -0.666415 -0.601957 0.264781 0
M  V30 6 C 0.701142 -0.264372 -0.265001 0
M  V30 7 S 2.02508 -0.894052 0.793736 0
M  V30 8 C 3.57577 -0.422684 0.0472596 0
M  V30 9 C 4.13466 0.785624 0.402511 0
M  V30 10 N 3.47836 1.61934 1.3396 0
M  V30 11 C 5.34075 1.20637 -0.145531 0
M  V30 12 C 6.02345 0.434483 -1.06299 0
M  V30 13 C 5.46487 -0.774112 -1.41861 0
M  V30 14 C 4.26284 -1.18562 -0.867711 0
M  V30 15 C -4.14812 -1.41754 -0.786045 0
M  V30 16 C -5.43418 -1.70198 -0.375641 0
M  V30 17 C -6.08335 -0.796353 0.464914 0
M  V30 18 C -5.45163 0.357514 0.875558 0
M  V30 19 H -2.97106 1.83196 1.76199 0
M  V30 20 H -3.54127 2.67271 0.295267 0
M  V30 21 H -0.746973 -1.71158 0.297101 0
M  V30 22 H -0.846354 -0.216212 1.26859 0
M  V30 23 H 0.776101 -0.61425 -1.30758 0
M  V30 24 H 0.789447 0.850126 -0.273704 0
M  V30 25 H 2.9309 2.44887 1.031 0
M  V30 26 H 3.53931 1.4054 2.36254 0
M  V30 27 H 5.78899 2.16257 0.131642 0
M  V30 28 H 6.97531 0.764681 -1.49661 0
M  V30 29 H 5.99829 -1.37727 -2.13549 0
M  V30 30 H 3.81989 -2.13834 -1.1463 0
M  V30 31 H -3.62949 -2.11689 -1.44298 0
M  V30 32 H -5.92897 -2.60752 -0.698352 0
M  V30 33 H -7.1028 -1.05583 0.769719 0
M  V30 34 H -5.98792 1.03829 1.52928 0
M  V30 END ATOM
M  V30 BEGIN BOND
M  V30 1 1 1 2
M  V30 2 2 2 3
M  V30 3 1 3 4
M  V30 4 1 4 5
M  V30 5 1 5 6
M  V30 6 1 6 7
M  V30 7 1 7 8
M  V30 8 2 8 9
M  V30 9 1 9 10
M  V30 10 1 9 11
M  V30 11 2 11 12
M  V30 12 1 12 13
M  V30 13 2 13 14
M  V30 14 1 3 15
M  V30 15 2 15 16
M  V30 16 1 16 17
M  V30 17 2 17 18
M  V30 18 1 18 2
M  V30 19 1 14 8
M  V30 20 1 1 19
M  V30 21 1 1 20
M  V30 22 1 5 21
M  V30 23 1 5 22
M  V30 24 1 6 23
M  V30 25 1 6 24
M  V30 26 1 10 25
M  V30 27 1 10 26
M  V30 28 1 11 27
M  V30 29 1 12 28
M  V30 30 1 13 29
M  V30 31 1 14 30
M  V30 32 1 15 31
M  V30 33 1 16 32
M  V30 34 1 17 33
M  V30 35 1 18 34
M  V30 END BOND
M  V30 END CTAB
M  END
