
     RDKit          3D

  0  0  0  0  0  0  0  0  0  0999 V3000
M  V30 BEGIN CTAB
M  V30 COUNTS 24 24 0 0 0
M  V30 BEGIN ATOM
M  V30 1 C -1.4284 1.17733 -1.13652 0
M  V30 2 C -1.10793 -0.1341 -0.415578 0
M  V30 3 C 0.352969 -0.0621331 -0.0610902 0
M  V30 4 C 0.842152 1.09844 0.42472 0
M  V30 5 C 2.14254 1.32247 0.776497 0
M  V30 6 Br 2.76238 3.01718 1.38738 0
M  V30 7 C 2.99544 0.239003 0.620545 0
M  V30 8 C 2.50009 -0.977675 0.132327 0
M  V30 9 C 1.19115 -1.14034 -0.210912 0
M  V30 10 N 0.69616 -2.38695 -0.719547 0
M  V30 11 N -1.75948 -0.0467285 0.912381 0
M  V30 12 N -3.05411 0.396461 0.822039 0
M  V30 13 H -2.50767 1.34304 -1.27564 0
M  V30 14 H -1.05734 0.996256 -2.19862 0
M  V30 15 H -0.858356 2.00142 -0.751159 0
M  V30 16 H -1.37676 -0.997918 -0.99025 0
M  V30 17 H 0.181015 1.96697 0.669204 0
M  V30 18 H 4.03589 0.387266 0.865084 0
M  V30 19 H 3.19919 -1.80447 0.0234156 0
M  V30 20 H 1.3591 -3.00609 -1.22667 0
M  V30 21 H -0.278746 -2.70837 -0.623833 0
M  V30 22 H -1.67297 -0.989101 1.33688 0
M  V30 23 H -3.58034 0.21209 -0.0200368 0
M  V30 24 H -3.57599 0.0959349 1.65939 0
M  V30 END ATOM
M  V30 BEGIN BOND
M  V30 1 1 1 2
M  V30 2 1 2 3
M  V30 3 2 3 4
M  V30 4 1 4 5
M  V30 5 1 5 6
M  V30 6 2 5 7
M  V30 7 1 7 8
M  V30 8 2 8 9
M  V30 9 1 9 10
M  V30 10 1 2 11
M  V30 11 1 11 12
M  V30 12 1 9 3
M  V30 13 1 1 13
M  V30 14 1 1 14
M  V30 15 1 1 15
M  V30 16 1 2 16
M  V30 17 1 4 17
M  V30 18 1 7 18
M  V30 19 1 8 19
M  V30 20 1 10 20
M  V30 21 1 10 21
M  V30 22 1 11 22
M  V30 23 1 12 23
M  V30 24 1 12 24
M  V30 END BOND
M  V30 END CTAB
M  END
