
     RDKit          3D

  0  0  0  0  0  0  0  0  0  0999 V3000
M  V30 BEGIN CTAB
M  V30 COUNTS 47 47 0 0 0
M  V30 BEGIN ATOM
M  V30 1 C 6.69582 0.646931 0.262898 0
M  V30 2 C 5.33207 0.422589 -0.429885 0
M  V30 3 C 4.34378 1.16483 0.390026 0
M  V30 4 C 2.92145 1.17046 -0.00875677 0
M  V30 5 C 2.17616 -0.0721225 0.0695955 0
M  V30 6 N 0.795922 0.0138383 -0.377837 0
M  V30 7 C -0.341192 -0.0707338 0.449365 0
M  V30 8 O -0.170594 -0.234529 1.68449 0
M  V30 9 C -1.7236 0.0176591 -0.0178325 0
M  V30 10 C -2.74874 -0.10262 1.06796 0
M  V30 11 C -4.09559 0.0102409 0.402712 0
M  V30 12 C -4.48784 1.29674 0.0482675 0
M  V30 13 C -5.69472 1.51254 -0.562835 0
M  V30 14 C -6.51316 0.45956 -0.823623 0
M  V30 15 C -6.11436 -0.829085 -0.465767 0
M  V30 16 C -4.8978 -1.05534 0.151367 0
M  V30 17 N -2.68105 0.935431 2.04658 0
M  V30 18 C -1.93847 -1.01253 -1.10533 0
M  V30 19 C 2.79042 -1.34496 -0.329056 0
M  V30 20 N 1.75322 -2.40646 -0.178287 0
M  V30 21 H 6.74789 1.65221 0.689461 0
M  V30 22 H 7.52576 0.425179 -0.438426 0
M  V30 23 H 6.78926 -0.0903879 1.09451 0
M  V30 24 H 5.26239 -0.637139 -0.554982 0
M  V30 25 H 5.49113 0.891197 -1.44101 0
M  V30 26 H 4.46792 0.767868 1.44713 0
M  V30 27 H 4.7567 2.23404 0.460317 0
M  V30 28 H 2.93949 1.57937 -1.09245 0
M  V30 29 H 2.44047 1.99035 0.619495 0
M  V30 30 H 2.01274 -0.219053 1.23582 0
M  V30 31 H 0.663439 0.149261 -1.39991 0
M  V30 32 H -1.83164 1.01944 -0.529533 0
M  V30 33 H -2.70001 -1.13082 1.4866 0
M  V30 34 H -3.83192 2.15188 0.255854 0
M  V30 35 H -5.94744 2.53376 -0.815791 0
M  V30 36 H -7.46173 0.655959 -1.30743 0
M  V30 37 H -6.80073 -1.63314 -0.694614 0
M  V30 38 H -4.58569 -2.04238 0.428713 0
M  V30 39 H -2.41279 0.476778 2.96742 0
M  V30 40 H -3.61419 1.38548 2.25058 0
M  V30 41 H -1.88971 -2.03273 -0.65345 0
M  V30 42 H -1.11432 -0.972167 -1.84306 0
M  V30 43 H -2.8904 -0.849116 -1.65207 0
M  V30 44 H 3.59662 -1.663 0.413264 0
M  V30 45 H 3.11109 -1.36573 -1.36238 0
M  V30 46 H 1.65336 -2.52614 0.855459 0
M  V30 47 H 2.2206 -3.27342 -0.531045 0
M  V30 END ATOM
M  V30 BEGIN BOND
M  V30 1 1 1 2
M  V30 2 1 2 3
M  V30 3 1 3 4
M  V30 4 1 4 5
M  V30 5 1 5 6
M  V30 6 1 6 7
M  V30 7 2 7 8
M  V30 8 1 7 9
M  V30 9 1 9 10
M  V30 10 1 10 11
M  V30 11 2 11 12
M  V30 12 1 12 13
M  V30 13 2 13 14
M  V30 14 1 14 15
M  V30 15 2 15 16
M  V30 16 1 10 17
M  V30 17 1 9 18
M  V30 18 1 5 19
M  V30 19 1 19 20
M  V30 20 1 16 11
M  V30 21 1 1 21
M  V30 22 1 1 22
M  V30 23 1 1 23
M  V30 24 1 2 24
M  V30 25 1 2 25
M  V30 26 1 3 26
M  V30 27 1 3 27
M  V30 28 1 4 28
M  V30 29 1 4 29
M  V30 30 1 5 30
M  V30 31 1 6 31
M  V30 32 1 9 32
M  V30 33 1 10 33
M  V30 34 1 12 34
M  V30 35 1 13 35
M  V30 36 1 14 36
M  V30 37 1 15 37
M  V30 38 1 16 38
M  V30 39 1 17 39
M  V30 40 1 17 40
M  V30 41 1 18 41
M  V30 42 1 18 42
M  V30 43 1 18 43
M  V30 44 1 19 44
M  V30 45 1 19 45
M  V30 46 1 20 46
M  V30 47 1 20 47
M  V30 END BOND
M  V30 END CTAB
M  END
