
     RDKit          3D

  0  0  0  0  0  0  0  0  0  0999 V3000
M  V30 BEGIN CTAB
M  V30 COUNTS 17 17 0 0 0
M  V30 BEGIN ATOM
M  V30 1 N -2.16397 -1.73115 -0.217349 0
M  V30 2 C -1.10524 -0.814094 -0.114072 0
M  V30 3 C -1.33643 0.544458 -0.142187 0
M  V30 4 C -0.300909 1.47687 -0.0413159 0
M  V30 5 C -0.580567 2.89766 -0.074526 0
M  V30 6 N -0.818192 4.03555 -0.110651 0
M  V30 7 C 0.999901 1.04364 0.0911269 0
M  V30 8 Cl 2.25906 2.25761 0.213488 0
M  V30 9 C 1.24653 -0.304541 0.120759 0
M  V30 10 N 2.5768 -0.756253 0.256243 0
M  V30 11 C 0.207037 -1.21999 0.0194271 0
M  V30 12 H -3.09884 -1.44167 -0.581295 0
M  V30 13 H -2.07689 -2.73419 0.058751 0
M  V30 14 H -2.3568 0.907669 -0.246163 0
M  V30 15 H 2.91273 -0.964653 1.2359 0
M  V30 16 H 3.25002 -0.901619 -0.509395 0
M  V30 17 H 0.385762 -2.29531 0.0412592 0
M  V30 END ATOM
M  V30 BEGIN BOND
M  V30 1 1 1 2
M  V30 2 2 2 3
M  V30 3 1 3 4
M  V30 4 1 4 5
M  V30 5 3 5 6
M  V30 6 2 4 7
M  V30 7 1 7 8
M  V30 8 1 7 9
M  V30 9 1 9 10
M  V30 10 2 9 11
M  V30 11 1 11 2
M  V30 12 1 1 12
M  V30 13 1 1 13
M  V30 14 1 3 14
M  V30 15 1 10 15
M  V30 16 1 10 16
M  V30 17 1 11 17
M  V30 END BOND
M  V30 END CTAB
M  END
