
     RDKit          3D

  0  0  0  0  0  0  0  0  0  0999 V3000
M  V30 BEGIN CTAB
M  V30 COUNTS 56 58 0 0 0
M  V30 BEGIN ATOM
M  V30 1 C 7.96511 1.76846 0.258827 0
M  V30 2 O 7.2153 0.590634 0.198873 0
M  V30 3 C 5.83688 0.64548 0.413706 0
M  V30 4 C 5.2089 1.83659 0.682311 0
M  V30 5 C 3.82417 1.83398 0.889686 0
M  V30 6 C 3.11843 0.662082 0.823997 0
M  V30 7 C 3.76223 -0.505337 0.556485 0
M  V30 8 C 5.1427 -0.530538 0.345677 0
M  V30 9 S 5.95072 -2.0353 0.0041007 0
M  V30 10 O 4.94247 -3.14382 -0.0310476 0
M  V30 11 O 6.94438 -2.30625 1.11121 0
M  V30 12 N 6.72769 -1.96966 -1.52375 0
M  V30 13 C 1.65529 0.665012 1.04393 0
M  V30 14 C 1.01032 0.871785 -0.297252 0
M  V30 15 N -0.41623 0.896924 -0.196524 0
M  V30 16 C -1.17479 -0.199408 0.271069 0
M  V30 17 O -0.642358 -1.25964 0.620817 0
M  V30 18 C -2.67493 -0.012154 0.323077 0
M  V30 19 C -3.15465 0.276054 -1.04056 0
M  V30 20 C -4.49709 -0.243381 -1.42208 0
M  V30 21 C -5.53511 0.795316 -1.09528 0
M  V30 22 C -5.78292 1.01678 0.344142 0
M  V30 23 C -5.58312 -0.11879 1.25666 0
M  V30 24 C -4.80064 -1.27739 0.73842 0
M  V30 25 C -3.33746 -1.11528 1.06902 0
M  V30 26 C -4.91319 -1.49842 -0.731368 0
M  V30 27 N -6.32131 -1.73498 -1.04762 0
M  V30 28 H 9.00958 1.51767 -0.0247058 0
M  V30 29 H 7.61032 2.52027 -0.480697 0
M  V30 30 H 7.91864 2.18253 1.26862 0
M  V30 31 H 5.73272 2.76327 0.739396 0
M  V30 32 H 3.35939 2.79327 1.09986 0
M  V30 33 H 3.25826 -1.47254 0.490492 0
M  V30 34 H 7.44238 -1.21386 -1.53274 0
M  V30 35 H 7.2215 -2.86099 -1.71324 0
M  V30 36 H 1.39849 1.51901 1.72644 0
M  V30 37 H 1.32554 -0.251837 1.53993 0
M  V30 38 H 1.35027 0.0402801 -0.972569 0
M  V30 39 H 1.42614 1.80044 -0.748099 0
M  V30 40 H -0.888855 1.80362 -0.498244 0
M  V30 41 H -2.80246 0.923326 0.945552 0
M  V30 42 H -2.4209 -0.162582 -1.78102 0
M  V30 43 H -3.07938 1.38601 -1.23779 0
M  V30 44 H -4.58416 -0.432648 -2.5203 0
M  V30 45 H -5.20444 1.7393 -1.62019 0
M  V30 46 H -6.47102 0.495665 -1.6347 0
M  V30 47 H -6.83535 1.41794 0.448866 0
M  V30 48 H -5.14315 1.89114 0.668644 0
M  V30 49 H -6.57067 -0.502517 1.60058 0
M  V30 50 H -5.07371 0.225812 2.20297 0
M  V30 51 H -5.12238 -2.23439 1.23744 0
M  V30 52 H -2.76795 -2.06315 0.929876 0
M  V30 53 H -3.29797 -0.928028 2.18282 0
M  V30 54 H -4.30711 -2.37922 -1.00027 0
M  V30 55 H -6.43064 -1.71069 -2.09278 0
M  V30 56 H -6.52386 -2.71585 -0.756192 0
M  V30 END ATOM
M  V30 BEGIN BOND
M  V30 1 1 1 2
M  V30 2 1 2 3
M  V30 3 2 3 4
M  V30 4 1 4 5
M  V30 5 2 5 6
M  V30 6 1 6 7
M  V30 7 2 7 8
M  V30 8 1 8 9
M  V30 9 2 9 10
M  V30 10 2 9 11
M  V30 11 1 9 12
M  V30 12 1 6 13
M  V30 13 1 13 14
M  V30 14 1 14 15
M  V30 15 1 15 16
M  V30 16 2 16 17
M  V30 17 1 16 18
M  V30 18 1 18 19
M  V30 19 1 19 20
M  V30 20 1 20 21
M  V30 21 1 21 22
M  V30 22 1 22 23
M  V30 23 1 23 24
M  V30 24 1 24 25
M  V30 25 1 24 26
M  V30 26 1 26 27
M  V30 27 1 8 3
M  V30 28 1 25 18
M  V30 29 1 26 20
M  V30 30 1 1 28
M  V30 31 1 1 29
M  V30 32 1 1 30
M  V30 33 1 4 31
M  V30 34 1 5 32
M  V30 35 1 7 33
M  V30 36 1 12 34
M  V30 37 1 12 35
M  V30 38 1 13 36
M  V30 39 1 13 37
M  V30 40 1 14 38
M  V30 41 1 14 39
M  V30 42 1 15 40
M  V30 43 1 18 41
M  V30 44 1 19 42
M  V30 45 1 19 43
M  V30 46 1 20 44
M  V30 47 1 21 45
M  V30 48 1 21 46
M  V30 49 1 22 47
M  V30 50 1 22 48
M  V30 51 1 23 49
M  V30 52 1 23 50
M  V30 53 1 24 51
M  V30 54 1 25 52
M  V30 55 1 25 53
M  V30 56 1 26 54
M  V30 57 1 27 55
M  V30 58 1 27 56
M  V30 END BOND
M  V30 END CTAB
M  END
