
     RDKit          3D

  0  0  0  0  0  0  0  0  0  0999 V3000
M  V30 BEGIN CTAB
M  V30 COUNTS 30 31 0 0 0
M  V30 BEGIN ATOM
M  V30 1 C -4.46581 1.19645 -0.306269 0
M  V30 2 C -3.50009 0.087198 -0.0534023 0
M  V30 3 C -3.83255 -0.879769 0.856917 0
M  V30 4 C -2.94099 -1.91757 1.10052 0
M  V30 5 C -1.73429 -1.99843 0.451393 0
M  V30 6 C -1.40847 -1.01428 -0.467735 0
M  V30 7 O -0.192512 -1.04986 -1.15579 0
M  V30 8 C 0.939681 -0.428792 -0.644378 0
M  V30 9 C 0.95386 0.25564 0.553667 0
M  V30 10 C 2.09618 0.868658 1.04569 0
M  V30 11 C 3.27426 0.802784 0.323753 0
M  V30 12 N 4.4501 1.43046 0.824349 0
M  V30 13 C 3.26323 0.119022 -0.874733 0
M  V30 14 N 4.48646 0.0631981 -1.60221 0
M  V30 15 C 2.10733 -0.496139 -1.36355 0
M  V30 16 C -2.28846 0.0114453 -0.709206 0
M  V30 17 H -3.88795 2.16359 -0.359172 0
M  V30 18 H -5.2015 1.25627 0.501273 0
M  V30 19 H -4.98129 1.02012 -1.27743 0
M  V30 20 H -4.7531 -0.86322 1.38549 0
M  V30 21 H -3.20983 -2.68898 1.82887 0
M  V30 22 H -1.01771 -2.79004 0.61575 0
M  V30 23 H 0.0103869 0.287996 1.09592 0
M  V30 24 H 2.07961 1.40647 2.00132 0
M  V30 25 H 4.44383 2.45986 0.992393 0
M  V30 26 H 5.29552 0.862229 1.01574 0
M  V30 27 H 4.48354 -0.0668377 -2.62149 0
M  V30 28 H 5.40143 0.152765 -1.1163 0
M  V30 29 H 2.15648 -1.02584 -2.32167 0
M  V30 30 H -2.02734 0.775619 -1.42767 0
M  V30 END ATOM
M  V30 BEGIN BOND
M  V30 1 1 1 2
M  V30 2 2 2 3
M  V30 3 1 3 4
M  V30 4 2 4 5
M  V30 5 1 5 6
M  V30 6 1 6 7
M  V30 7 1 7 8
M  V30 8 2 8 9
M  V30 9 1 9 10
M  V30 10 2 10 11
M  V30 11 1 11 12
M  V30 12 1 11 13
M  V30 13 1 13 14
M  V30 14 2 13 15
M  V30 15 2 6 16
M  V30 16 1 16 2
M  V30 17 1 15 8
M  V30 18 1 1 17
M  V30 19 1 1 18
M  V30 20 1 1 19
M  V30 21 1 3 20
M  V30 22 1 4 21
M  V30 23 1 5 22
M  V30 24 1 9 23
M  V30 25 1 10 24
M  V30 26 1 12 25
M  V30 27 1 12 26
M  V30 28 1 14 27
M  V30 29 1 14 28
M  V30 30 1 15 29
M  V30 31 1 16 30
M  V30 END BOND
M  V30 END CTAB
M  END
