
     RDKit          3D

  0  0  0  0  0  0  0  0  0  0999 V3000
M  V30 BEGIN CTAB
M  V30 COUNTS 29 30 0 0 0
M  V30 BEGIN ATOM
M  V30 1 N 5.89447 0.410427 0.332694 0
M  V30 2 C 4.48366 0.375049 0.157821 0
M  V30 3 C 3.74385 -0.701871 0.610469 0
M  V30 4 C 2.36656 -0.728008 0.435435 0
M  V30 5 C 1.70319 0.308446 -0.18842 0
M  V30 6 C 2.43994 1.36577 -0.631409 0
M  V30 7 C 3.81867 1.41154 -0.466274 0
M  V30 8 C 0.25263 0.293369 -0.379152 0
M  V30 9 O -0.311304 1.25776 -0.952374 0
M  V30 10 O -0.519317 -0.769254 0.0618061 0
M  V30 11 C -1.89965 -0.717756 -0.153554 0
M  V30 12 C -2.43122 -1.23583 -1.31532 0
M  V30 13 C -3.80907 -1.16946 -1.50029 0
M  V30 14 C -4.6336 -0.592452 -0.533368 0
M  V30 15 C -4.10092 -0.0745554 0.628302 0
M  V30 16 N -4.92326 0.520532 1.63199 0
M  V30 17 C -2.74005 -0.144269 0.802639 0
M  V30 18 H 6.35639 -0.346521 0.871859 0
M  V30 19 H 6.46288 1.16696 -0.0622972 0
M  V30 20 H 4.23879 -1.52752 1.10286 0
M  V30 21 H 1.76075 -1.55622 0.778505 0
M  V30 22 H 1.997 2.22077 -1.13177 0
M  V30 23 H 4.39604 2.25267 -0.819878 0
M  V30 24 H -1.80968 -1.68805 -2.07883 0
M  V30 25 H -4.24115 -1.56632 -2.39598 0
M  V30 26 H -5.70849 -0.540362 -0.677027 0
M  V30 27 H -5.82279 0.0991568 1.95311 0
M  V30 28 H -4.66089 1.4242 2.10391 0
M  V30 29 H -2.30343 0.251787 1.69777 0
M  V30 END ATOM
M  V30 BEGIN BOND
M  V30 1 1 1 2
M  V30 2 2 2 3
M  V30 3 1 3 4
M  V30 4 2 4 5
M  V30 5 1 5 6
M  V30 6 2 6 7
M  V30 7 1 5 8
M  V30 8 2 8 9
M  V30 9 1 8 10
M  V30 10 1 10 11
M  V30 11 2 11 12
M  V30 12 1 12 13
M  V30 13 2 13 14
M  V30 14 1 14 15
M  V30 15 1 15 16
M  V30 16 2 15 17
M  V30 17 1 7 2
M  V30 18 1 17 11
M  V30 19 1 1 18
M  V30 20 1 1 19
M  V30 21 1 3 20
M  V30 22 1 4 21
M  V30 23 1 6 22
M  V30 24 1 7 23
M  V30 25 1 12 24
M  V30 26 1 13 25
M  V30 27 1 14 26
M  V30 28 1 16 27
M  V30 29 1 16 28
M  V30 30 1 17 29
M  V30 END BOND
M  V30 END CTAB
M  END
