
     RDKit          3D

  0  0  0  0  0  0  0  0  0  0999 V3000
M  V30 BEGIN CTAB
M  V30 COUNTS 22 22 0 0 0
M  V30 BEGIN ATOM
M  V30 1 N -1.02011 -2.24409 -0.263292 0
M  V30 2 C -0.181789 -1.26521 0.537709 0
M  V30 3 C -0.316944 0.0477352 -0.0437775 0
M  V30 4 C 0.771976 0.804864 -0.44099 0
M  V30 5 C 2.18788 0.394047 -0.508458 0
M  V30 6 N 2.65768 -0.545272 0.431024 0
M  V30 7 C 0.29893 2.05888 -0.828581 0
M  V30 8 N -1.05121 2.02812 -0.6455 0
M  V30 9 N -1.40754 0.843356 -0.179411 0
M  V30 10 C -2.72063 0.570628 0.419566 0
M  V30 11 H -0.180444 -2.73374 -0.881373 0
M  V30 12 H -1.45578 -1.62201 -1.02164 0
M  V30 13 H 0.612613 -1.70113 0.997819 0
M  V30 14 H -0.962042 -1.19747 1.46072 0
M  V30 15 H 2.57197 0.311929 -1.50727 0
M  V30 16 H 2.70045 1.37134 -0.0863115 0
M  V30 17 H 2.92082 -0.197972 1.37734 0
M  V30 18 H 2.766 -1.51046 0.236424 0
M  V30 19 H 0.899122 2.87119 -1.21906 0
M  V30 20 H -2.49285 0.390532 1.55296 0
M  V30 21 H -3.30489 -0.227862 0.123575 0
M  V30 22 H -3.29324 1.55259 0.488524 0
M  V30 END ATOM
M  V30 BEGIN BOND
M  V30 1 1 1 2
M  V30 2 1 2 3
M  V30 3 2 3 4
M  V30 4 1 4 5
M  V30 5 1 5 6
M  V30 6 1 4 7
M  V30 7 2 7 8
M  V30 8 1 8 9
M  V30 9 1 9 10
M  V30 10 1 9 3
M  V30 11 1 1 11
M  V30 12 1 1 12
M  V30 13 1 2 13
M  V30 14 1 2 14
M  V30 15 1 5 15
M  V30 16 1 5 16
M  V30 17 1 6 17
M  V30 18 1 6 18
M  V30 19 1 7 19
M  V30 20 1 10 20
M  V30 21 1 10 21
M  V30 22 1 10 22
M  V30 END BOND
M  V30 END CTAB
M  END
