
     RDKit          3D

  0  0  0  0  0  0  0  0  0  0999 V3000
M  V30 BEGIN CTAB
M  V30 COUNTS 24 24 0 0 0
M  V30 BEGIN ATOM
M  V30 1 C 2.75906 -1.52933 -0.658145 0
M  V30 2 C 1.93647 -0.37135 -0.204428 0
M  V30 3 C 0.540599 -0.456372 -0.294115 0
M  V30 4 C -0.272985 0.576836 0.108372 0
M  V30 5 C -1.74687 0.540918 0.0256822 0
M  V30 6 C -2.31644 -0.7915 -0.315409 0
M  V30 7 N -1.96021 -1.79632 0.688619 0
M  V30 8 F -2.31089 0.967273 1.23708 0
M  V30 9 C 0.369513 1.70966 0.608415 0
M  V30 10 N 1.70953 1.77367 0.68692 0
M  V30 11 C 2.51065 0.767855 0.295853 0
M  V30 12 N -0.358421 2.836 1.05317 0
M  V30 13 H 2.36012 -1.84208 -1.65256 0
M  V30 14 H 2.62949 -2.37255 0.0612468 0
M  V30 15 H 3.79655 -1.22412 -0.800993 0
M  V30 16 H 0.121784 -1.3699 -0.701216 0
M  V30 17 H -2.14178 1.27026 -0.728371 0
M  V30 18 H -1.94853 -1.14063 -1.31397 0
M  V30 19 H -3.42341 -0.785418 -0.345544 0
M  V30 20 H -2.01459 -1.42864 1.64537 0
M  V30 21 H -2.56545 -2.65307 0.525947 0
M  V30 22 H 3.59217 0.820394 0.359258 0
M  V30 23 H -0.80853 2.80795 1.98458 0
M  V30 24 H -0.457831 3.69045 0.478661 0
M  V30 END ATOM
M  V30 BEGIN BOND
M  V30 1 1 1 2
M  V30 2 2 2 3
M  V30 3 1 3 4
M  V30 4 1 4 5
M  V30 5 1 5 6
M  V30 6 1 6 7
M  V30 7 1 5 8
M  V30 8 2 4 9
M  V30 9 1 9 10
M  V30 10 2 10 11
M  V30 11 1 9 12
M  V30 12 1 11 2
M  V30 13 1 1 13
M  V30 14 1 1 14
M  V30 15 1 1 15
M  V30 16 1 3 16
M  V30 17 1 5 17
M  V30 18 1 6 18
M  V30 19 1 6 19
M  V30 20 1 7 20
M  V30 21 1 7 21
M  V30 22 1 11 22
M  V30 23 1 12 23
M  V30 24 1 12 24
M  V30 END BOND
M  V30 END CTAB
M  END
