
     RDKit          3D

  0  0  0  0  0  0  0  0  0  0999 V3000
M  V30 BEGIN CTAB
M  V30 COUNTS 75 77 0 0 0
M  V30 BEGIN ATOM
M  V30 1 N -4.51667 -2.92402 3.18302 0
M  V30 2 C -4.84312 -1.72323 3.82128 0
M  V30 3 N -6.06838 -1.43548 4.05244 0
M  V30 4 N -3.82933 -0.828912 4.21176 0
M  V30 5 C -2.58513 -0.816487 3.47664 0
M  V30 6 C -2.87604 -0.26821 2.07239 0
M  V30 7 C -1.53905 -0.246719 1.27733 0
M  V30 8 C -1.83254 0.270909 -0.079387 0 CFG=1
M  V30 9 N -2.43903 1.58754 -0.074623 0
M  V30 10 S -3.95604 1.76406 -0.739034 0
M  V30 11 O -4.31738 3.2456 -0.645733 0
M  V30 12 O -5.07301 1.04804 -0.0428239 0
M  V30 13 C -3.91859 1.33604 -2.47612 0
M  V30 14 C -5.29669 1.49798 -3.00455 0
M  V30 15 C -6.1426 0.418705 -2.95994 0
M  V30 16 C -7.42101 0.57986 -3.45725 0
M  V30 17 C -7.82008 1.77509 -3.97333 0
M  V30 18 C -6.9876 2.87562 -4.02933 0
M  V30 19 C -5.6934 2.70515 -3.5234 0
M  V30 20 C -0.620379 0.432996 -0.885824 0
M  V30 21 O -0.756799 1.25547 -1.89955 0
M  V30 22 N 0.668983 -0.130396 -0.772999 0
M  V30 23 C 1.71713 0.220199 -1.78634 0
M  V30 24 C 2.60362 -0.971318 -1.83451 0
M  V30 25 C 2.06735 -1.96124 -0.827069 0
M  V30 26 C 1.34744 -1.00153 0.115822 0 CFG=1
M  V30 27 C 2.4021 -0.365146 0.939594 0
M  V30 28 O 2.54777 0.862246 0.904804 0
M  V30 29 N 3.22178 -1.1654 1.74774 0
M  V30 30 C 4.28457 -0.647854 2.58996 0
M  V30 31 C 5.42944 -0.313322 1.7109 0
M  V30 32 C 6.19724 -1.33471 1.21058 0
M  V30 33 C 7.26229 -1.03298 0.397403 0
M  V30 34 C 7.57463 0.26887 0.0748532 0
M  V30 35 C 6.79548 1.28432 0.584231 0
M  V30 36 C 5.7182 0.981119 1.40678 0
M  V30 37 C 8.70545 0.519579 -0.783639 0
M  V30 38 N 9.46494 -0.588348 -1.26473 0
M  V30 39 N 9.03329 1.69672 -1.11435 0
M  V30 40 H -3.53774 -3.25511 3.01903 0
M  V30 41 H -5.26778 -3.5601 2.8325 0
M  V30 42 H -6.41005 -0.575183 4.51709 0
M  V30 43 H -3.91929 -0.164237 5.00965 0
M  V30 44 H -1.81939 -0.182139 3.96694 0
M  V30 45 H -2.14431 -1.82474 3.39915 0
M  V30 46 H -3.60845 -0.894465 1.54905 0
M  V30 47 H -3.25142 0.743228 2.17258 0
M  V30 48 H -0.727073 0.183109 1.83333 0
M  V30 49 H -1.3443 -1.37742 1.23947 0
M  V30 50 H -2.56038 -0.394782 -0.605576 0
M  V30 51 H -2.37113 1.97765 0.861159 0
M  V30 52 H -3.55573 0.309129 -2.54774 0
M  V30 53 H -3.25279 2.06396 -3.02212 0
M  V30 54 H -5.84475 -0.537973 -2.55448 0
M  V30 55 H -8.08219 -0.265402 -3.42214 0
M  V30 56 H -8.83753 1.84791 -4.35189 0
M  V30 57 H -7.31203 3.80786 -4.43737 0
M  V30 58 H -5.06151 3.57994 -3.57781 0
M  V30 59 H 1.22096 0.440157 -2.76153 0
M  V30 60 H 2.22951 1.11802 -1.45149 0
M  V30 61 H 2.68098 -1.43525 -2.84612 0
M  V30 62 H 3.65446 -0.746555 -1.5065 0
M  V30 63 H 1.38892 -2.63901 -1.34312 0
M  V30 64 H 2.8373 -2.54309 -0.321112 0
M  V30 65 H 0.74165 -1.57203 0.841917 0
M  V30 66 H 3.0526 -2.21507 1.74246 0
M  V30 67 H 4.64359 -1.39855 3.31689 0
M  V30 68 H 3.89898 0.200875 3.16292 0
M  V30 69 H 5.98202 -2.38606 1.44383 0
M  V30 70 H 7.8566 -1.87274 0.0140746 0
M  V30 71 H 7.01262 2.31272 0.351167 0
M  V30 72 H 5.11848 1.78286 1.80256 0
M  V30 73 H 10.3561 -0.823172 -0.803974 0
M  V30 74 H 9.13822 -1.16435 -2.07017 0
M  V30 75 H 8.586 2.58919 -0.848228 0
M  V30 END ATOM
M  V30 BEGIN BOND
M  V30 1 1 1 2
M  V30 2 2 2 3 CFG=2
M  V30 3 1 2 4
M  V30 4 1 4 5
M  V30 5 1 5 6
M  V30 6 1 6 7
M  V30 7 1 7 8
M  V30 8 1 8 9
M  V30 9 1 9 10
M  V30 10 2 10 11
M  V30 11 2 10 12
M  V30 12 1 10 13
M  V30 13 1 13 14
M  V30 14 2 14 15
M  V30 15 1 15 16
M  V30 16 2 16 17
M  V30 17 1 17 18
M  V30 18 2 18 19
M  V30 19 1 8 20
M  V30 20 2 20 21
M  V30 21 1 20 22
M  V30 22 1 22 23
M  V30 23 1 23 24
M  V30 24 1 24 25
M  V30 25 1 25 26
M  V30 26 1 26 27
M  V30 27 2 27 28
M  V30 28 1 27 29
M  V30 29 1 29 30
M  V30 30 1 30 31
M  V30 31 2 31 32
M  V30 32 1 32 33
M  V30 33 2 33 34
M  V30 34 1 34 35
M  V30 35 2 35 36
M  V30 36 1 34 37
M  V30 37 1 37 38
M  V30 38 2 37 39 CFG=2
M  V30 39 1 19 14
M  V30 40 1 26 22
M  V30 41 1 36 31
M  V30 42 1 1 40
M  V30 43 1 1 41
M  V30 44 1 3 42
M  V30 45 1 4 43
M  V30 46 1 5 44
M  V30 47 1 5 45
M  V30 48 1 6 46
M  V30 49 1 6 47
M  V30 50 1 7 48
M  V30 51 1 7 49
M  V30 52 1 8 50 CFG=3
M  V30 53 1 9 51
M  V30 54 1 13 52
M  V30 55 1 13 53
M  V30 56 1 15 54
M  V30 57 1 16 55
M  V30 58 1 17 56
M  V30 59 1 18 57
M  V30 60 1 19 58
M  V30 61 1 23 59
M  V30 62 1 23 60
M  V30 63 1 24 61
M  V30 64 1 24 62
M  V30 65 1 25 63
M  V30 66 1 25 64
M  V30 67 1 26 65 CFG=1
M  V30 68 1 29 66
M  V30 69 1 30 67
M  V30 70 1 30 68
M  V30 71 1 32 69
M  V30 72 1 33 70
M  V30 73 1 35 71
M  V30 74 1 36 72
M  V30 75 1 38 73
M  V30 76 1 38 74
M  V30 77 1 39 75
M  V30 END BOND
M  V30 END CTAB
M  END
