
     RDKit          3D

  0  0  0  0  0  0  0  0  0  0999 V3000
M  V30 BEGIN CTAB
M  V30 COUNTS 26 27 0 0 0
M  V30 BEGIN ATOM
M  V30 1 N -3.66202 -0.974028 0.779055 0
M  V30 2 C -2.38683 -0.447739 0.464984 0
M  V30 3 C -1.2578 -1.27382 0.541009 0
M  V30 4 C 0.00781157 -0.809699 0.245233 0
M  V30 5 C 0.151636 0.506899 -0.134774 0
M  V30 6 C 1.47342 1.08298 -0.46876 0
M  V30 7 C 2.62115 0.205203 -0.0968055 0
M  V30 8 C 2.35697 -1.22312 -0.442044 0
M  V30 9 C 1.1734 -1.7392 0.344763 0
M  V30 10 C -0.93822 1.37888 -0.228596 0
M  V30 11 N -0.761728 2.73323 -0.623284 0
M  V30 12 C -2.16846 0.84646 0.081191 0
M  V30 13 H -4.42001 -0.368673 1.13187 0
M  V30 14 H -3.83205 -1.98461 0.650773 0
M  V30 15 H -1.34509 -2.31505 0.838007 0
M  V30 16 H 1.49906 1.22671 -1.57254 0
M  V30 17 H 1.63038 2.07303 0.0132421 0
M  V30 18 H 3.51241 0.553555 -0.65808 0
M  V30 19 H 2.89406 0.254027 0.975088 0
M  V30 20 H 2.2193 -1.33226 -1.53332 0
M  V30 21 H 3.24086 -1.81669 -0.130251 0
M  V30 22 H 1.50441 -1.85316 1.40212 0
M  V30 23 H 0.872001 -2.72574 -0.0710861 0
M  V30 24 H -1.36615 3.20919 -1.32462 0
M  V30 25 H 0.00668561 3.29219 -0.198972 0
M  V30 26 H -3.02522 1.50144 0.0157987 0
M  V30 END ATOM
M  V30 BEGIN BOND
M  V30 1 1 1 2
M  V30 2 2 2 3
M  V30 3 1 3 4
M  V30 4 2 4 5
M  V30 5 1 5 6
M  V30 6 1 6 7
M  V30 7 1 7 8
M  V30 8 1 8 9
M  V30 9 1 5 10
M  V30 10 1 10 11
M  V30 11 2 10 12
M  V30 12 1 12 2
M  V30 13 1 9 4
M  V30 14 1 1 13
M  V30 15 1 1 14
M  V30 16 1 3 15
M  V30 17 1 6 16
M  V30 18 1 6 17
M  V30 19 1 7 18
M  V30 20 1 7 19
M  V30 21 1 8 20
M  V30 22 1 8 21
M  V30 23 1 9 22
M  V30 24 1 9 23
M  V30 25 1 11 24
M  V30 26 1 11 25
M  V30 27 1 12 26
M  V30 END BOND
M  V30 END CTAB
M  END
