
     RDKit          3D

  0  0  0  0  0  0  0  0  0  0999 V3000
M  V30 BEGIN CTAB
M  V30 COUNTS 26 26 0 0 0
M  V30 BEGIN ATOM
M  V30 1 C -3.47212 -1.15115 -0.382571 0
M  V30 2 N -2.38725 -0.354573 0.203013 0
M  V30 3 N -1.42206 -0.179868 -0.777869 0
M  V30 4 C -0.0483678 0.0721846 -0.527693 0
M  V30 5 C 0.559311 1.23481 -0.946769 0
M  V30 6 C 1.88802 1.50956 -0.711201 0
M  V30 7 C 2.62287 0.569462 -0.0264763 0
M  V30 8 C 2.0686 -0.621885 0.422894 0
M  V30 9 C 0.71701 -0.850756 0.157166 0
M  V30 10 N 2.85834 -1.56603 1.12976 0
M  V30 11 N 3.99244 0.78806 0.252921 0
M  V30 12 C -2.97866 0.863632 0.681329 0
M  V30 13 H -2.97427 -1.9836 -0.921905 0
M  V30 14 H -4.12908 -1.58592 0.389584 0
M  V30 15 H -4.07103 -0.544407 -1.09352 0
M  V30 16 H -1.70107 -0.230365 -1.80129 0
M  V30 17 H -0.0233716 1.95206 -1.4776 0
M  V30 18 H 2.36741 2.41416 -1.03953 0
M  V30 19 H 0.311784 -1.78421 0.519306 0
M  V30 20 H 3.47903 -2.18448 0.576464 0
M  V30 21 H 2.81757 -1.63277 2.14689 0
M  V30 22 H 4.24698 1.25376 1.1451 0
M  V30 23 H 4.726 0.492484 -0.408679 0
M  V30 24 H -2.75306 1.66855 -0.0280105 0
M  V30 25 H -2.60637 1.07286 1.71937 0
M  V30 26 H -4.08868 0.778433 0.799322 0
M  V30 END ATOM
M  V30 BEGIN BOND
M  V30 1 1 1 2
M  V30 2 1 2 3
M  V30 3 1 3 4
M  V30 4 2 4 5
M  V30 5 1 5 6
M  V30 6 2 6 7
M  V30 7 1 7 8
M  V30 8 2 8 9
M  V30 9 1 8 10
M  V30 10 1 7 11
M  V30 11 1 2 12
M  V30 12 1 9 4
M  V30 13 1 1 13
M  V30 14 1 1 14
M  V30 15 1 1 15
M  V30 16 1 3 16
M  V30 17 1 5 17
M  V30 18 1 6 18
M  V30 19 1 9 19
M  V30 20 1 10 20
M  V30 21 1 10 21
M  V30 22 1 11 22
M  V30 23 1 11 23
M  V30 24 1 12 24
M  V30 25 1 12 25
M  V30 26 1 12 26
M  V30 END BOND
M  V30 END CTAB
M  END
