
     RDKit          3D

  0  0  0  0  0  0  0  0  0  0999 V3000
M  V30 BEGIN CTAB
M  V30 COUNTS 41 44 0 0 0
M  V30 BEGIN ATOM
M  V30 1 Br 7.6072 3.4531 0.609461 0
M  V30 2 C 6.06394 2.33032 0.486736 0
M  V30 3 C 4.81735 2.7615 0.908814 0
M  V30 4 C 3.71438 1.91798 0.805162 0
M  V30 5 C 3.85429 0.670316 0.29072 0
M  V30 6 C 5.10332 0.265584 -0.121551 0
M  V30 7 C 6.21855 1.07033 -0.0355024 0
M  V30 8 C 2.71835 -0.255443 0.161789 0
M  V30 9 N 1.48396 0.100975 0.552528 0
M  V30 10 C 0.444518 -0.724232 0.442949 0
M  V30 11 S -1.2124 -0.272889 0.956905 0
M  V30 12 C -2.01469 0.492615 -0.495157 0
M  V30 13 C -3.40477 0.910838 -0.186759 0
M  V30 14 N -4.46125 0.0911415 -0.365929 0
M  V30 15 C -5.72228 0.47258 -0.0854025 0
M  V30 16 N -6.85422 -0.369685 -0.264314 0
M  V30 17 N -5.94959 1.71664 0.392472 0
M  V30 18 C -4.92159 2.54986 0.57976 0
M  V30 19 N -3.66405 2.14147 0.289818 0
M  V30 20 N -5.1804 3.85308 1.08269 0
M  V30 21 C 0.650979 -1.98262 -0.0896349 0
M  V30 22 C 1.91161 -2.38623 -0.504111 0
M  V30 23 N 2.9058 -1.48129 -0.354222 0
M  V30 24 C 2.10718 -3.62767 -1.02786 0
M  V30 25 C 1.07263 -4.52497 -1.16653 0
M  V30 26 C -0.201584 -4.12259 -0.749753 0
M  V30 27 C -0.399019 -2.86598 -0.219714 0
M  V30 28 H 4.75142 3.76066 1.31137 0
M  V30 29 H 2.75537 2.26847 1.13719 0
M  V30 30 H 5.1924 -0.726914 -0.52627 0
M  V30 31 H 7.1705 0.672795 -0.384412 0
M  V30 32 H -1.41982 1.39525 -0.736095 0
M  V30 33 H -1.95625 -0.194532 -1.34444 0
M  V30 34 H -7.26515 -0.873379 0.52536 0
M  V30 35 H -7.25488 -0.460426 -1.22317 0
M  V30 36 H -4.94671 4.72021 0.562042 0
M  V30 37 H -5.63084 4.00518 2.0268 0
M  V30 38 H 3.09777 -3.91337 -1.34124 0
M  V30 39 H 1.22432 -5.51611 -1.58383 0
M  V30 40 H -1.02975 -4.80299 -0.845969 0
M  V30 41 H -1.37656 -2.51958 0.114704 0
M  V30 END ATOM
M  V30 BEGIN BOND
M  V30 1 1 1 2
M  V30 2 2 2 3
M  V30 3 1 3 4
M  V30 4 2 4 5
M  V30 5 1 5 6
M  V30 6 2 6 7
M  V30 7 1 5 8
M  V30 8 2 8 9
M  V30 9 1 9 10
M  V30 10 1 10 11
M  V30 11 1 11 12
M  V30 12 1 12 13
M  V30 13 2 13 14
M  V30 14 1 14 15
M  V30 15 1 15 16
M  V30 16 2 15 17
M  V30 17 1 17 18
M  V30 18 2 18 19
M  V30 19 1 18 20
M  V30 20 2 10 21
M  V30 21 1 21 22
M  V30 22 2 22 23
M  V30 23 1 22 24
M  V30 24 2 24 25
M  V30 25 1 25 26
M  V30 26 2 26 27
M  V30 27 1 7 2
M  V30 28 1 23 8
M  V30 29 1 19 13
M  V30 30 1 27 21
M  V30 31 1 3 28
M  V30 32 1 4 29
M  V30 33 1 6 30
M  V30 34 1 7 31
M  V30 35 1 12 32
M  V30 36 1 12 33
M  V30 37 1 16 34
M  V30 38 1 16 35
M  V30 39 1 20 36
M  V30 40 1 20 37
M  V30 41 1 24 38
M  V30 42 1 25 39
M  V30 43 1 26 40
M  V30 44 1 27 41
M  V30 END BOND
M  V30 END CTAB
M  END
