
     RDKit          3D

  0  0  0  0  0  0  0  0  0  0999 V3000
M  V30 BEGIN CTAB
M  V30 COUNTS 38 40 0 0 0
M  V30 BEGIN ATOM
M  V30 1 N -1.02021 0.699972 1.60797 0
M  V30 2 C -2.04037 0.623921 0.666224 0
M  V30 3 C -3.33363 0.876715 1.12749 0
M  V30 4 C -4.39694 0.809789 0.262144 0
M  V30 5 C -4.15739 0.491235 -1.05407 0
M  V30 6 C -2.88152 0.248985 -1.47772 0
M  V30 7 C -1.75935 0.304415 -0.634401 0
M  V30 8 C -0.430199 0.039982 -1.1862 0 CFG=1
M  V30 9 C 0.355662 1.32028 -1.16829 0
M  V30 10 C 1.85547 1.14272 -1.25576 0
M  V30 11 N 2.20331 0.28357 -0.125875 0
M  V30 12 C 1.54436 -0.988405 -0.15946 0
M  V30 13 C 0.271024 -1.14127 -0.649022 0
M  V30 14 C -0.338501 -2.37888 -0.651592 0
M  V30 15 C 0.336257 -3.46878 -0.159672 0
M  V30 16 C 1.61676 -3.37002 0.342583 0
M  V30 17 C 2.19415 -2.11869 0.329173 0
M  V30 18 S 3.28646 0.746897 1.11511 0
M  V30 19 O 4.56415 1.20927 0.420853 0
M  V30 20 O 3.68171 -0.311758 2.06578 0
M  V30 21 N 2.69981 2.15162 1.96058 0
M  V30 22 H -0.556604 -0.143035 2.01898 0
M  V30 23 H -0.681588 1.61579 1.93967 0
M  V30 24 H -3.50808 1.12749 2.17107 0
M  V30 25 H -5.39424 1.00893 0.636472 0
M  V30 26 H -5.01334 0.445234 -1.71369 0
M  V30 27 H -2.7619 0.000306602 -2.54066 0
M  V30 28 H -0.555964 -0.188378 -2.30101 0
M  V30 29 H 0.0296064 2.00033 -2.01922 0
M  V30 30 H 0.177492 1.94329 -0.268958 0
M  V30 31 H 2.30321 2.13405 -1.17682 0
M  V30 32 H 2.09779 0.724565 -2.22998 0
M  V30 33 H -1.35847 -2.51257 -1.04107 0
M  V30 34 H -0.124664 -4.46444 -0.149405 0
M  V30 35 H 2.15411 -4.21764 0.730103 0
M  V30 36 H 3.20383 -1.99837 0.700947 0
M  V30 37 H 2.35224 2.83033 1.24727 0
M  V30 38 H 3.38554 2.52255 2.62044 0
M  V30 END ATOM
M  V30 BEGIN BOND
M  V30 1 1 1 2
M  V30 2 2 2 3
M  V30 3 1 3 4
M  V30 4 2 4 5
M  V30 5 1 5 6
M  V30 6 2 6 7
M  V30 7 1 7 8
M  V30 8 1 8 9
M  V30 9 1 9 10
M  V30 10 1 10 11
M  V30 11 1 11 12
M  V30 12 2 12 13
M  V30 13 1 13 14
M  V30 14 2 14 15
M  V30 15 1 15 16
M  V30 16 2 16 17
M  V30 17 1 11 18
M  V30 18 2 18 19
M  V30 19 2 18 20
M  V30 20 1 18 21
M  V30 21 1 7 2
M  V30 22 1 13 8
M  V30 23 1 17 12
M  V30 24 1 1 22
M  V30 25 1 1 23
M  V30 26 1 3 24
M  V30 27 1 4 25
M  V30 28 1 5 26
M  V30 29 1 6 27
M  V30 30 1 8 28 CFG=3
M  V30 31 1 9 29
M  V30 32 1 9 30
M  V30 33 1 10 31
M  V30 34 1 10 32
M  V30 35 1 14 33
M  V30 36 1 15 34
M  V30 37 1 16 35
M  V30 38 1 17 36
M  V30 39 1 21 37
M  V30 40 1 21 38
M  V30 END BOND
M  V30 END CTAB
M  END
