
     RDKit          3D

  0  0  0  0  0  0  0  0  0  0999 V3000
M  V30 BEGIN CTAB
M  V30 COUNTS 39 41 0 0 0
M  V30 BEGIN ATOM
M  V30 1 C -3.78452 -0.197478 2.84828 0
M  V30 2 C -3.40441 0.233619 1.47303 0
M  V30 3 C -3.89136 1.41637 0.92417 0
M  V30 4 C -3.55466 1.82853 -0.334412 0
M  V30 5 C -4.0567 3.08276 -0.946683 0
M  V30 6 N -2.71989 1.06036 -1.07079 0
M  V30 7 C -2.25424 -0.0792548 -0.534463 0
M  V30 8 N -2.57848 -0.490251 0.696286 0
M  V30 9 C -1.43463 -0.672308 -1.47214 0
M  V30 10 N -0.73341 -1.87504 -1.35078 0
M  V30 11 N 0.311793 -2.28303 -0.99362 0
M  V30 12 C 1.52992 -1.90774 -0.469062 0
M  V30 13 C 1.68862 -1.81544 0.908711 0
M  V30 14 C 2.86258 -1.45004 1.52589 0
M  V30 15 C 3.96583 -1.15229 0.729356 0
M  V30 16 C 3.85183 -1.23141 -0.64714 0
M  V30 17 C 2.66053 -1.60071 -1.22838 0
M  V30 18 S 5.45802 -0.689336 1.46913 0
M  V30 19 O 5.49357 -1.30007 2.85159 0
M  V30 20 O 6.60027 -1.22233 0.679643 0
M  V30 21 N 5.53984 1.02421 1.68359 0
M  V30 22 C -1.44653 0.178595 -2.58031 0
M  V30 23 N -2.24096 1.22023 -2.29315 0
M  V30 24 N -0.72985 -0.0508103 -3.78533 0
M  V30 25 H -2.89894 -0.628742 3.36521 0
M  V30 26 H -4.60505 -0.939469 2.82212 0
M  V30 27 H -4.04962 0.719257 3.41506 0
M  V30 28 H -4.55988 2.04463 1.49645 0
M  V30 29 H -4.10248 3.01801 -2.05382 0
M  V30 30 H -5.105 3.28496 -0.616278 0
M  V30 31 H -3.39645 3.94825 -0.715325 0
M  V30 32 H 0.823195 -2.0488 1.5397 0
M  V30 33 H 2.95518 -1.38708 2.60462 0
M  V30 34 H 4.7265 -0.995184 -1.27361 0
M  V30 35 H 2.54041 -1.67156 -2.3012 0
M  V30 36 H 6.53335 1.35636 1.69538 0
M  V30 37 H 4.95786 1.53996 0.988493 0
M  V30 38 H -1.2248 0.0120468 -4.69942 0
M  V30 39 H 0.272591 -0.279756 -3.79131 0
M  V30 END ATOM
M  V30 BEGIN BOND
M  V30 1 1 1 2
M  V30 2 1 2 3
M  V30 3 2 3 4
M  V30 4 1 4 5
M  V30 5 1 4 6
M  V30 6 1 6 7
M  V30 7 1 7 8
M  V30 8 2 7 9
M  V30 9 1 9 10
M  V30 10 2 10 11
M  V30 11 1 11 12
M  V30 12 2 12 13
M  V30 13 1 13 14
M  V30 14 2 14 15
M  V30 15 1 15 16
M  V30 16 2 16 17
M  V30 17 1 15 18
M  V30 18 2 18 19
M  V30 19 2 18 20
M  V30 20 1 18 21
M  V30 21 1 9 22
M  V30 22 2 22 23
M  V30 23 1 22 24
M  V30 24 2 8 2
M  V30 25 1 17 12
M  V30 26 1 23 6
M  V30 27 1 1 25
M  V30 28 1 1 26
M  V30 29 1 1 27
M  V30 30 1 3 28
M  V30 31 1 5 29
M  V30 32 1 5 30
M  V30 33 1 5 31
M  V30 34 1 13 32
M  V30 35 1 14 33
M  V30 36 1 16 34
M  V30 37 1 17 35
M  V30 38 1 21 36
M  V30 39 1 21 37
M  V30 40 1 24 38
M  V30 41 1 24 39
M  V30 END BOND
M  V30 END CTAB
M  END
