
     RDKit          3D

  0  0  0  0  0  0  0  0  0  0999 V3000
M  V30 BEGIN CTAB
M  V30 COUNTS 21 21 0 0 0
M  V30 BEGIN ATOM
M  V30 1 N -2.86323 1.5144 -0.683112 0
M  V30 2 N -2.89634 0.126897 -0.707992 0
M  V30 3 C -1.97713 -0.565312 -0.0850697 0
M  V30 4 N -0.964219 0.159459 0.60392 0
M  V30 5 C 0.399326 0.096609 0.273262 0
M  V30 6 C 0.867981 -0.688147 -0.764881 0
M  V30 7 C 2.20372 -0.756468 -1.09695 0
M  V30 8 C 3.12691 -0.016808 -0.373222 0
M  V30 9 C 2.6666 0.768844 0.664445 0
M  V30 10 C 1.32507 0.825492 0.983459 0
M  V30 11 Br 0.749419 1.94068 2.44184 0
M  V30 12 F 4.45704 -0.0503839 -0.662156 0
M  V30 13 N -2.0595 -1.96389 -0.143389 0
M  V30 14 H -2.61979 1.97374 0.219364 0
M  V30 15 H -3.06193 2.13932 -1.49361 0
M  V30 16 H -1.26502 0.766958 1.39606 0
M  V30 17 H 0.141013 -1.25758 -1.319 0
M  V30 18 H 2.54718 -1.38634 -1.9241 0
M  V30 19 H 3.39763 1.34042 1.22042 0
M  V30 20 H -2.33539 -2.45043 -1.02123 0
M  V30 21 H -1.83932 -2.51744 0.710312 0
M  V30 END ATOM
M  V30 BEGIN BOND
M  V30 1 1 1 2
M  V30 2 2 2 3
M  V30 3 1 3 4
M  V30 4 1 4 5
M  V30 5 2 5 6
M  V30 6 1 6 7
M  V30 7 2 7 8
M  V30 8 1 8 9
M  V30 9 2 9 10
M  V30 10 1 10 11
M  V30 11 1 8 12
M  V30 12 1 3 13
M  V30 13 1 10 5
M  V30 14 1 1 14
M  V30 15 1 1 15
M  V30 16 1 4 16
M  V30 17 1 6 17
M  V30 18 1 7 18
M  V30 19 1 9 19
M  V30 20 1 13 20
M  V30 21 1 13 21
M  V30 END BOND
M  V30 END CTAB
M  END
