
     RDKit          3D

  0  0  0  0  0  0  0  0  0  0999 V3000
M  V30 BEGIN CTAB
M  V30 COUNTS 51 52 0 0 0
M  V30 BEGIN ATOM
M  V30 1 N -4.27325 -0.0803607 2.94525 0
M  V30 2 C -4.0594 -0.1188 1.48434 0
M  V30 3 C -3.59791 -1.42644 1.01553 0
M  V30 4 C -2.29324 -1.53346 0.289583 0
M  V30 5 C -1.46589 -2.53291 1.11354 0
M  V30 6 C -2.3762 -2.09844 -1.08636 0
M  V30 7 N -1.56976 -0.256391 0.229016 0
M  V30 8 C -2.37945 0.873544 -0.0682587 0
M  V30 9 C -3.1987 1.08531 1.19017 0
M  V30 10 C -3.44268 0.584723 -1.15463 0
M  V30 11 C -1.74004 2.1339 -0.527811 0
M  V30 12 C -0.158079 -0.27797 0.329364 0
M  V30 13 O 0.425271 -1.41915 0.0347134 0
M  V30 14 C 0.770138 0.730472 0.709181 0
M  V30 15 O 0.263209 1.67063 1.46993 0
M  V30 16 N 2.11496 0.955127 0.455432 0
M  V30 17 C 2.94916 0.213911 -0.40276 0
M  V30 18 O 2.59469 -0.777384 -1.07372 0
M  V30 19 C 4.39251 0.572745 -0.58627 0
M  V30 20 C 4.96709 1.63284 0.0724572 0
M  V30 21 C 6.32128 1.9212 -0.136883 0
M  V30 22 C 7.03141 1.13105 -0.997047 0
M  V30 23 C 6.48296 0.0699902 -1.66498 0
M  V30 24 C 5.12653 -0.221493 -1.45743 0
M  V30 25 N 4.53696 -1.31987 -2.14185 0
M  V30 26 H -3.3362 0.0325419 3.43225 0
M  V30 27 H -4.83828 0.73677 3.22378 0
M  V30 28 H -5.07806 0.13163 1.07485 0
M  V30 29 H -4.37267 -1.90671 0.361724 0
M  V30 30 H -3.62331 -2.11807 1.91938 0
M  V30 31 H -0.893977 -2.0592 1.91494 0
M  V30 32 H -2.22654 -3.17232 1.67921 0
M  V30 33 H -0.949105 -3.27476 0.494617 0
M  V30 34 H -3.40879 -2.05367 -1.53669 0
M  V30 35 H -2.15718 -3.20988 -1.11056 0
M  V30 36 H -1.60875 -1.68276 -1.78265 0
M  V30 37 H -2.55233 1.33035 2.0723 0
M  V30 38 H -3.8218 1.98656 1.02583 0
M  V30 39 H -2.98723 0.233369 -2.09358 0
M  V30 40 H -3.79712 1.64271 -1.44203 0
M  V30 41 H -4.339 0.111066 -0.811579 0
M  V30 42 H -0.77325 2.03598 -1.04237 0
M  V30 43 H -1.79469 2.9609 0.229031 0
M  V30 44 H -2.38549 2.61047 -1.36816 0
M  V30 45 H 2.60582 1.8085 0.935712 0
M  V30 46 H 4.39613 2.24487 0.746397 0
M  V30 47 H 6.78473 2.75459 0.377127 0
M  V30 48 H 8.08822 1.33459 -1.17754 0
M  V30 49 H 7.01154 -0.57656 -2.35178 0
M  V30 50 H 4.53192 -2.263 -1.744 0
M  V30 51 H 4.10381 -1.15073 -3.06672 0
M  V30 END ATOM
M  V30 BEGIN BOND
M  V30 1 1 1 2
M  V30 2 1 2 3
M  V30 3 1 3 4
M  V30 4 1 4 5
M  V30 5 1 4 6
M  V30 6 1 4 7
M  V30 7 1 7 8
M  V30 8 1 8 9
M  V30 9 1 8 10
M  V30 10 1 8 11
M  V30 11 1 7 12
M  V30 12 2 12 13
M  V30 13 1 12 14
M  V30 14 2 14 15
M  V30 15 1 14 16
M  V30 16 1 16 17
M  V30 17 2 17 18
M  V30 18 1 17 19
M  V30 19 2 19 20
M  V30 20 1 20 21
M  V30 21 2 21 22
M  V30 22 1 22 23
M  V30 23 2 23 24
M  V30 24 1 24 25
M  V30 25 1 9 2
M  V30 26 1 24 19
M  V30 27 1 1 26
M  V30 28 1 1 27
M  V30 29 1 2 28
M  V30 30 1 3 29
M  V30 31 1 3 30
M  V30 32 1 5 31
M  V30 33 1 5 32
M  V30 34 1 5 33
M  V30 35 1 6 34
M  V30 36 1 6 35
M  V30 37 1 6 36
M  V30 38 1 9 37
M  V30 39 1 9 38
M  V30 40 1 10 39
M  V30 41 1 10 40
M  V30 42 1 10 41
M  V30 43 1 11 42
M  V30 44 1 11 43
M  V30 45 1 11 44
M  V30 46 1 16 45
M  V30 47 1 20 46
M  V30 48 1 21 47
M  V30 49 1 22 48
M  V30 50 1 23 49
M  V30 51 1 25 50
M  V30 52 1 25 51
M  V30 END BOND
M  V30 END CTAB
M  END
