
     RDKit          3D

  0  0  0  0  0  0  0  0  0  0999 V3000
M  V30 BEGIN CTAB
M  V30 COUNTS 30 30 0 0 0
M  V30 BEGIN ATOM
M  V30 1 O -3.47498 -0.953398 1.18904 0
M  V30 2 C -2.11997 -0.940304 1.51387 0
M  V30 3 C -1.22765 -0.895741 0.281189 0
M  V30 4 C 0.201139 -1.12907 0.713114 0
M  V30 5 N 1.00763 0.0586514 0.473293 0
M  V30 6 C 0.349561 1.31334 0.789639 0
M  V30 7 C -0.805641 1.44592 -0.167442 0
M  V30 8 N -1.4145 0.228566 -0.539978 0
M  V30 9 C -2.76412 0.432085 -0.936654 0
M  V30 10 C 2.3218 0.0411052 -0.0234579 0
M  V30 11 N 3.08789 -1.00294 0.132266 0
M  V30 12 N 4.39451 -1.04707 -0.350141 0
M  V30 13 N 2.8756 1.14607 -0.711915 0
M  V30 14 H -3.90132 -1.82958 1.34877 0
M  V30 15 H -1.93249 -1.87013 2.09063 0
M  V30 16 H -1.86276 -0.077433 2.1692 0
M  V30 17 H -1.51189 -1.80462 -0.317527 0
M  V30 18 H 0.242594 -1.31543 1.80584 0
M  V30 19 H 0.661842 -2.01667 0.233988 0
M  V30 20 H 1.06474 2.15769 0.603277 0
M  V30 21 H 0.0613283 1.31912 1.8458 0
M  V30 22 H -1.51936 2.18442 0.261132 0
M  V30 23 H -0.396697 1.93025 -1.09604 0
M  V30 24 H -2.75258 1.04852 -1.88494 0
M  V30 25 H -3.27542 1.06563 -0.1995 0
M  V30 26 H -3.31613 -0.48633 -1.21922 0
M  V30 27 H 4.65687 -1.17466 -1.3497 0
M  V30 28 H 5.17479 -0.945762 0.33226 0
M  V30 29 H 3.51103 1.78891 -0.206147 0
M  V30 30 H 2.66418 1.32884 -1.7025 0
M  V30 END ATOM
M  V30 BEGIN BOND
M  V30 1 1 1 2
M  V30 2 1 2 3
M  V30 3 1 3 4
M  V30 4 1 4 5
M  V30 5 1 5 6
M  V30 6 1 6 7
M  V30 7 1 7 8
M  V30 8 1 8 9
M  V30 9 1 5 10
M  V30 10 2 10 11 CFG=2
M  V30 11 1 11 12
M  V30 12 1 10 13
M  V30 13 1 8 3
M  V30 14 1 1 14
M  V30 15 1 2 15
M  V30 16 1 2 16
M  V30 17 1 3 17
M  V30 18 1 4 18
M  V30 19 1 4 19
M  V30 20 1 6 20
M  V30 21 1 6 21
M  V30 22 1 7 22
M  V30 23 1 7 23
M  V30 24 1 9 24
M  V30 25 1 9 25
M  V30 26 1 9 26
M  V30 27 1 12 27
M  V30 28 1 12 28
M  V30 29 1 13 29
M  V30 30 1 13 30
M  V30 END BOND
M  V30 END CTAB
M  END
