
     RDKit          3D

  0  0  0  0  0  0  0  0  0  0999 V3000
M  V30 BEGIN CTAB
M  V30 COUNTS 56 64 0 0 0
M  V30 BEGIN ATOM
M  V30 1 N -0.946856 2.49453 -1.59787 0
M  V30 2 C -1.42098 1.59789 -0.551418 0
M  V30 3 C -0.697514 0.536414 -0.148119 0
M  V30 4 C 0.667178 0.556866 -0.164066 0
M  V30 5 C 1.35165 1.68098 -0.438097 0
M  V30 6 N 0.832135 2.99569 -0.055901 0
M  V30 7 C 2.74054 1.73202 -0.463945 0
M  V30 8 C 3.47228 0.60115 -0.175009 0
M  V30 9 C 4.86597 0.624772 -0.159085 0
M  V30 10 C 5.55296 -0.5442 0.184846 0
M  V30 11 C 6.93266 -0.560108 0.209186 0
M  V30 12 C 7.6039 0.592648 -0.110601 0
M  V30 13 C 6.93624 1.74778 -0.450312 0
M  V30 14 C 5.53503 1.77328 -0.477751 0
M  V30 15 C 4.88214 -1.70242 0.505492 0
M  V30 16 O 5.52272 -2.74405 0.81552 0
M  V30 17 C 3.50604 -1.71103 0.484008 0
M  V30 18 C 2.79992 -0.572741 0.143173 0
M  V30 19 C 1.43161 -0.616979 0.156865 0
M  V30 20 C 0.730722 -1.75519 0.531389 0
M  V30 21 C 1.44932 -2.87937 0.882811 0
M  V30 22 C 2.82425 -2.86293 0.856884 0
M  V30 23 C -0.659803 -1.76285 0.583274 0
M  V30 24 C -1.38838 -0.63882 0.256264 0
M  V30 25 C -2.7738 -0.655568 0.258713 0
M  V30 26 C -3.43128 -1.81575 0.611084 0
M  V30 27 C -2.69359 -2.92748 0.941921 0
M  V30 28 C -1.31512 -2.91602 0.929759 0
M  V30 29 C -4.80581 -1.84474 0.592969 0
M  V30 30 O -5.41576 -2.91437 0.927116 0
M  V30 31 C -5.52657 -0.739743 0.220747 0
M  V30 32 C -4.86894 0.434715 -0.151971 0
M  V30 33 C -5.59027 1.53499 -0.523633 0
M  V30 34 C -6.98697 1.43048 -0.512926 0
M  V30 35 C -7.64343 0.280268 -0.148014 0
M  V30 36 C -6.9032 -0.810702 0.220925 0
M  V30 37 C -3.49328 0.472246 -0.137135 0
M  V30 38 C -2.80594 1.60158 -0.545892 0
M  V30 39 H -0.329222 2.23104 -2.37746 0
M  V30 40 H -1.31998 3.46229 -1.57185 0
M  V30 41 H 0.223088 3.19875 0.727849 0
M  V30 42 H 1.19401 3.794 -0.641223 0
M  V30 43 H 3.25079 2.6416 -0.709119 0
M  V30 44 H 7.4349 -1.48224 0.479794 0
M  V30 45 H 8.6882 0.549397 -0.0826578 0
M  V30 46 H 7.45043 2.6557 -0.702384 0
M  V30 47 H 5.03739 2.68396 -0.746509 0
M  V30 48 H 0.979421 -3.78287 1.18176 0
M  V30 49 H 3.41071 -3.74234 1.12485 0
M  V30 50 H -3.24489 -3.82504 1.21626 0
M  V30 51 H -0.773763 -3.79662 1.18744 0
M  V30 52 H -5.18503 2.47414 -0.822646 0
M  V30 53 H -7.57202 2.29083 -0.803934 0
M  V30 54 H -8.72404 0.191028 -0.136944 0
M  V30 55 H -7.42156 -1.71258 0.507333 0
M  V30 56 H -3.36823 2.45572 -0.847372 0
M  V30 END ATOM
M  V30 BEGIN BOND
M  V30 1 1 1 2
M  V30 2 2 2 3
M  V30 3 1 3 4
M  V30 4 2 4 5
M  V30 5 1 5 6
M  V30 6 1 5 7
M  V30 7 2 7 8
M  V30 8 1 8 9
M  V30 9 2 9 10
M  V30 10 1 10 11
M  V30 11 2 11 12
M  V30 12 1 12 13
M  V30 13 2 13 14
M  V30 14 1 10 15
M  V30 15 2 15 16
M  V30 16 1 15 17
M  V30 17 1 17 18
M  V30 18 2 18 19
M  V30 19 1 19 20
M  V30 20 2 20 21
M  V30 21 1 21 22
M  V30 22 1 20 23
M  V30 23 2 23 24
M  V30 24 1 24 25
M  V30 25 2 25 26
M  V30 26 1 26 27
M  V30 27 2 27 28
M  V30 28 1 26 29
M  V30 29 2 29 30
M  V30 30 1 29 31
M  V30 31 2 31 32
M  V30 32 1 32 33
M  V30 33 2 33 34
M  V30 34 1 34 35
M  V30 35 2 35 36
M  V30 36 1 32 37
M  V30 37 2 37 38
M  V30 38 1 38 2
M  V30 39 1 24 3
M  V30 40 1 37 25
M  V30 41 1 19 4
M  V30 42 1 28 23
M  V30 43 1 36 31
M  V30 44 1 18 8
M  V30 45 1 14 9
M  V30 46 2 22 17
M  V30 47 1 1 39
M  V30 48 1 1 40
M  V30 49 1 6 41
M  V30 50 1 6 42
M  V30 51 1 7 43
M  V30 52 1 11 44
M  V30 53 1 12 45
M  V30 54 1 13 46
M  V30 55 1 14 47
M  V30 56 1 21 48
M  V30 57 1 22 49
M  V30 58 1 27 50
M  V30 59 1 28 51
M  V30 60 1 33 52
M  V30 61 1 34 53
M  V30 62 1 35 54
M  V30 63 1 36 55
M  V30 64 1 38 56
M  V30 END BOND
M  V30 END CTAB
M  END
