
     RDKit          3D

  0  0  0  0  0  0  0  0  0  0999 V3000
M  V30 BEGIN CTAB
M  V30 COUNTS 20 20 0 0 0
M  V30 BEGIN ATOM
M  V30 1 N -1.08122 -1.89021 -0.755461 0
M  V30 2 C -0.0209235 -1.04589 -0.347909 0
M  V30 3 C -0.265475 0.312775 -0.153568 0
M  V30 4 C 0.790263 1.10309 0.242879 0
M  V30 5 C 2.06318 0.604221 0.451404 0
M  V30 6 S 3.38708 1.69806 0.967612 0
M  V30 7 C 2.31013 -0.735648 0.261122 0
M  V30 8 Cl 3.92282 -1.3604 0.526639 0
M  V30 9 C 1.26099 -1.52514 -0.13361 0
M  V30 10 S -1.81778 1.02243 -0.38906 0
M  V30 11 N -3.03566 0.364534 0.618044 0
M  V30 12 O -2.28197 0.875789 -1.81261 0
M  V30 13 O -1.73502 2.49295 -0.100817 0
M  V30 14 H -1.38256 -2.662 -0.131108 0
M  V30 15 H -1.57109 -1.76768 -1.65721 0
M  V30 16 H 0.647421 2.18256 0.409459 0
M  V30 17 H 3.52441 2.79764 0.117825 0
M  V30 18 H 1.41844 -2.57579 -0.291391 0
M  V30 19 H -3.05702 -0.675614 0.616108 0
M  V30 20 H -3.07602 0.784313 1.56165 0
M  V30 END ATOM
M  V30 BEGIN BOND
M  V30 1 1 1 2
M  V30 2 2 2 3
M  V30 3 1 3 4
M  V30 4 2 4 5
M  V30 5 1 5 6
M  V30 6 1 5 7
M  V30 7 1 7 8
M  V30 8 2 7 9
M  V30 9 1 3 10
M  V30 10 1 10 11
M  V30 11 2 10 12
M  V30 12 2 10 13
M  V30 13 1 9 2
M  V30 14 1 1 14
M  V30 15 1 1 15
M  V30 16 1 4 16
M  V30 17 1 6 17
M  V30 18 1 9 18
M  V30 19 1 11 19
M  V30 20 1 11 20
M  V30 END BOND
M  V30 END CTAB
M  END
