
     RDKit          3D

  0  0  0  0  0  0  0  0  0  0999 V3000
M  V30 BEGIN CTAB
M  V30 COUNTS 39 41 0 0 0
M  V30 BEGIN ATOM
M  V30 1 O -7.73811 0.214335 0.96617 0 CHG=-1
M  V30 2 N -6.63576 -0.502611 0.480246 0 CHG=1
M  V30 3 O -6.73596 -1.72389 0.500844 0
M  V30 4 C -5.54342 0.208465 -0.0279061 0
M  V30 5 C -5.84724 1.39741 -0.67988 0
M  V30 6 C -4.84113 2.14488 -1.23003 0
M  V30 7 C -3.57013 1.70778 -1.12856 0
M  V30 8 C -3.21697 0.503 -0.474187 0
M  V30 9 C -4.24513 -0.22233 0.07203 0
M  V30 10 C -3.9571 -1.43067 0.890923 0
M  V30 11 C -1.81073 0.138626 -0.433238 0
M  V30 12 C -1.21133 -1.05262 -0.190296 0
M  V30 13 C 0.178911 -0.82159 -0.288957 0
M  V30 14 C 0.334349 0.506725 -0.58905 0
M  V30 15 O -0.843193 1.04721 -0.668691 0
M  V30 16 C 1.63213 1.17895 -0.782984 0
M  V30 17 N 2.74229 0.516418 -0.673603 0
M  V30 18 N 3.93227 1.2201 -0.870565 0
M  V30 19 C 5.05711 0.690483 -0.484472 0
M  V30 20 C 4.98204 -0.624249 0.136419 0
M  V30 21 N 3.90786 -1.39257 0.377655 0
M  V30 22 O 4.27931 -2.49503 0.950303 0
M  V30 23 N 5.56492 -2.50632 1.10793 0
M  V30 24 C 6.05236 -1.348 0.610505 0
M  V30 25 N 7.42207 -0.971689 0.59432 0
M  V30 26 N 6.29562 1.37444 -0.666242 0
M  V30 27 H -6.88651 1.74633 -0.760623 0
M  V30 28 H -5.01171 3.084 -1.75078 0
M  V30 29 H -2.76058 2.26682 -1.55089 0
M  V30 30 H -3.92297 -2.34572 0.332064 0
M  V30 31 H -3.06772 -1.22785 1.5642 0
M  V30 32 H -4.81028 -1.5128 1.64937 0
M  V30 33 H -1.63237 -2.03282 0.0165311 0
M  V30 34 H 0.911268 -1.57429 -0.146475 0
M  V30 35 H 1.63364 2.23418 -1.01801 0
M  V30 36 H 7.94966 -0.677646 1.44281 0
M  V30 37 H 7.9247 -0.992499 -0.319991 0
M  V30 38 H 6.88577 1.26456 -1.51172 0
M  V30 39 H 6.60203 2.01049 0.100219 0
M  V30 END ATOM
M  V30 BEGIN BOND
M  V30 1 1 1 2
M  V30 2 2 2 3
M  V30 3 1 2 4
M  V30 4 2 4 5
M  V30 5 1 5 6
M  V30 6 2 6 7
M  V30 7 1 7 8
M  V30 8 2 8 9
M  V30 9 1 9 10
M  V30 10 1 8 11
M  V30 11 2 11 12
M  V30 12 1 12 13
M  V30 13 2 13 14
M  V30 14 1 14 15
M  V30 15 1 14 16
M  V30 16 2 16 17
M  V30 17 1 17 18
M  V30 18 2 18 19
M  V30 19 1 19 20
M  V30 20 2 20 21
M  V30 21 1 21 22
M  V30 22 1 22 23
M  V30 23 2 23 24
M  V30 24 1 24 25
M  V30 25 1 19 26
M  V30 26 1 9 4
M  V30 27 1 15 11
M  V30 28 1 24 20
M  V30 29 1 5 27
M  V30 30 1 6 28
M  V30 31 1 7 29
M  V30 32 1 10 30
M  V30 33 1 10 31
M  V30 34 1 10 32
M  V30 35 1 12 33
M  V30 36 1 13 34
M  V30 37 1 16 35
M  V30 38 1 25 36
M  V30 39 1 25 37
M  V30 40 1 26 38
M  V30 41 1 26 39
M  V30 END BOND
M  V30 END CTAB
M  END
