
     RDKit          3D

  0  0  0  0  0  0  0  0  0  0999 V3000
M  V30 BEGIN CTAB
M  V30 COUNTS 44 46 0 0 0
M  V30 BEGIN ATOM
M  V30 1 N 8.22435 0.117127 0.41923 0
M  V30 2 C 6.87045 -0.185945 0.160685 0
M  V30 3 C 6.26021 -1.32867 0.65936 0
M  V30 4 C 4.95072 -1.63504 0.417476 0
M  V30 5 C 4.14677 -0.807108 -0.352234 0
M  V30 6 C 4.73441 0.327756 -0.853692 0
M  V30 7 C 6.06365 0.629307 -0.602307 0
M  V30 8 C 2.75835 -1.1436 -0.607675 0
M  V30 9 O 2.34121 -2.28114 -0.283263 0
M  V30 10 N 1.88065 -0.218288 -1.20891 0
M  V30 11 N 0.573731 -0.599007 -1.42574 0
M  V30 12 C -0.416351 -0.165827 -0.791453 0
M  V30 13 C -0.46644 0.801869 0.28728 0
M  V30 14 C 0.580684 1.47138 0.86444 0
M  V30 15 C 0.0408204 2.2842 1.84834 0
M  V30 16 C -1.31117 2.08836 1.84303 0
M  V30 17 N -1.62423 1.20017 0.909085 0
M  V30 18 C -2.90843 0.717088 0.57532 0
M  V30 19 C -3.44294 -0.441229 1.1117 0
M  V30 20 C -4.69804 -0.911334 0.784065 0
M  V30 21 C -5.47401 -0.208749 -0.119179 0
M  V30 22 C -4.96106 0.94877 -0.666323 0
M  V30 23 C -3.70492 1.41079 -0.332439 0
M  V30 24 S -7.05129 -0.807952 -0.524984 0
M  V30 25 O -7.95444 0.350497 -0.833107 0
M  V30 26 O -7.66511 -1.57493 0.618066 0
M  V30 27 N -6.92239 -1.86282 -1.87634 0
M  V30 28 H 8.49891 0.734412 1.19905 0
M  V30 29 H 8.96105 -0.287173 -0.184993 0
M  V30 30 H 6.86683 -1.99838 1.26765 0
M  V30 31 H 4.47172 -2.53665 0.811744 0
M  V30 32 H 4.12408 0.995388 -1.46608 0
M  V30 33 H 6.48356 1.54644 -1.02544 0
M  V30 34 H 2.1829 0.749892 -1.5037 0
M  V30 35 H -1.38705 -0.609296 -1.13033 0
M  V30 36 H 1.62841 1.45061 0.677639 0
M  V30 37 H 0.57654 2.96859 2.52194 0
M  V30 38 H -2.02171 2.5754 2.49309 0
M  V30 39 H -2.86653 -1.01853 1.82174 0
M  V30 40 H -5.10896 -1.81999 1.20924 0
M  V30 41 H -5.553 1.50515 -1.36976 0
M  V30 42 H -3.27528 2.31582 -0.745217 0
M  V30 43 H -6.57104 -2.80166 -1.57575 0
M  V30 44 H -7.83562 -1.94571 -2.35978 0
M  V30 END ATOM
M  V30 BEGIN BOND
M  V30 1 1 1 2
M  V30 2 2 2 3
M  V30 3 1 3 4
M  V30 4 2 4 5
M  V30 5 1 5 6
M  V30 6 2 6 7
M  V30 7 1 5 8
M  V30 8 2 8 9
M  V30 9 1 8 10
M  V30 10 1 10 11
M  V30 11 2 11 12 CFG=2
M  V30 12 1 12 13
M  V30 13 2 13 14
M  V30 14 1 14 15
M  V30 15 2 15 16
M  V30 16 1 16 17
M  V30 17 1 17 18
M  V30 18 2 18 19
M  V30 19 1 19 20
M  V30 20 2 20 21
M  V30 21 1 21 22
M  V30 22 2 22 23
M  V30 23 1 21 24
M  V30 24 2 24 25
M  V30 25 2 24 26
M  V30 26 1 24 27
M  V30 27 1 7 2
M  V30 28 1 17 13
M  V30 29 1 23 18
M  V30 30 1 1 28
M  V30 31 1 1 29
M  V30 32 1 3 30
M  V30 33 1 4 31
M  V30 34 1 6 32
M  V30 35 1 7 33
M  V30 36 1 10 34
M  V30 37 1 12 35
M  V30 38 1 14 36
M  V30 39 1 15 37
M  V30 40 1 16 38
M  V30 41 1 19 39
M  V30 42 1 20 40
M  V30 43 1 22 41
M  V30 44 1 23 42
M  V30 45 1 27 43
M  V30 46 1 27 44
M  V30 END BOND
M  V30 END CTAB
M  END
