
     RDKit          3D

  0  0  0  0  0  0  0  0  0  0999 V3000
M  V30 BEGIN CTAB
M  V30 COUNTS 29 29 0 0 0
M  V30 BEGIN ATOM
M  V30 1 N 3.85235 0.944734 0.666911 0
M  V30 2 C 2.43601 0.580546 0.880284 0
M  V30 3 C 1.85079 0.351379 -0.457355 0
M  V30 4 C 0.424328 -0.0319609 -0.50654 0
M  V30 5 C -0.516956 0.999218 -0.666952 0
M  V30 6 C -1.86866 0.747713 -0.700424 0
M  V30 7 C -2.87259 1.83582 -0.86878 0
M  V30 8 N -3.33709 2.26967 0.438967 0
M  V30 9 C -2.32123 -0.549455 -0.573369 0
M  V30 10 C -1.44819 -1.57614 -0.417009 0
M  V30 11 C -0.0702497 -1.30243 -0.385907 0
M  V30 12 O 0.767558 -2.36345 -0.233057 0
M  V30 13 C 1.24635 -2.99796 0.88801 0
M  V30 14 Cl -2.0247 -3.24157 -0.253541 0
M  V30 15 H 4.14515 0.836834 -0.318212 0
M  V30 16 H 3.96257 1.95208 0.9165 0
M  V30 17 H 1.92634 1.43241 1.43457 0
M  V30 18 H 2.45466 -0.317674 1.50261 0
M  V30 19 H 2.39986 -0.517254 -0.938045 0
M  V30 20 H 1.99882 1.20244 -1.17119 0
M  V30 21 H -0.136681 2.01066 -0.762952 0
M  V30 22 H -3.74802 1.45701 -1.46254 0
M  V30 23 H -2.36889 2.70181 -1.35117 0
M  V30 24 H -3.32833 1.44394 1.08897 0
M  V30 25 H -4.35109 2.5211 0.336513 0
M  V30 26 H -3.38291 -0.790307 -0.595596 0
M  V30 27 H 0.660709 -2.85149 1.80623 0
M  V30 28 H 1.34737 -4.09151 0.634635 0
M  V30 29 H 2.30269 -2.65618 1.06846 0
M  V30 END ATOM
M  V30 BEGIN BOND
M  V30 1 1 1 2
M  V30 2 1 2 3
M  V30 3 1 3 4
M  V30 4 2 4 5
M  V30 5 1 5 6
M  V30 6 1 6 7
M  V30 7 1 7 8
M  V30 8 2 6 9
M  V30 9 1 9 10
M  V30 10 2 10 11
M  V30 11 1 11 12
M  V30 12 1 12 13
M  V30 13 1 10 14
M  V30 14 1 11 4
M  V30 15 1 1 15
M  V30 16 1 1 16
M  V30 17 1 2 17
M  V30 18 1 2 18
M  V30 19 1 3 19
M  V30 20 1 3 20
M  V30 21 1 5 21
M  V30 22 1 7 22
M  V30 23 1 7 23
M  V30 24 1 8 24
M  V30 25 1 8 25
M  V30 26 1 9 26
M  V30 27 1 13 27
M  V30 28 1 13 28
M  V30 29 1 13 29
M  V30 END BOND
M  V30 END CTAB
M  END
