
     RDKit          3D

  0  0  0  0  0  0  0  0  0  0999 V3000
M  V30 BEGIN CTAB
M  V30 COUNTS 22 22 0 0 0
M  V30 BEGIN ATOM
M  V30 1 C 4.32703 0.224842 0.0398547 0
M  V30 2 O 3.00055 -0.272184 -0.101914 0
M  V30 3 C 1.92772 0.508503 0.301456 0
M  V30 4 O 2.18892 1.6378 0.781184 0
M  V30 5 C 0.550154 0.0920596 0.197878 0
M  V30 6 C 0.253404 -1.14192 -0.325616 0
M  V30 7 C -1.04392 -1.53214 -0.422373 0
M  V30 8 C -2.06523 -0.703455 -0.00105277 0
M  V30 9 N -3.38452 -1.18039 -0.13455 0
M  V30 10 C -1.79923 0.533883 0.525672 0
M  V30 11 N -2.83911 1.383 0.95699 0
M  V30 12 C -0.459956 0.922211 0.619202 0
M  V30 13 H 4.37182 0.924473 0.913392 0
M  V30 14 H 4.66279 0.800824 -0.832013 0
M  V30 15 H 5.04163 -0.582685 0.265623 0
M  V30 16 H 1.03431 -1.78851 -0.653431 0
M  V30 17 H -1.27825 -2.49745 -0.831771 0
M  V30 18 H -3.92952 -1.39885 0.72085 0
M  V30 19 H -3.77151 -1.2987 -1.0908 0
M  V30 20 H -2.98268 2.33309 0.524013 0
M  V30 21 H -3.51772 1.13175 1.71472 0
M  V30 22 H -0.286692 1.90384 1.03925 0
M  V30 END ATOM
M  V30 BEGIN BOND
M  V30 1 1 1 2
M  V30 2 1 2 3
M  V30 3 2 3 4
M  V30 4 1 3 5
M  V30 5 2 5 6
M  V30 6 1 6 7
M  V30 7 2 7 8
M  V30 8 1 8 9
M  V30 9 1 8 10
M  V30 10 1 10 11
M  V30 11 2 10 12
M  V30 12 1 12 5
M  V30 13 1 1 13
M  V30 14 1 1 14
M  V30 15 1 1 15
M  V30 16 1 6 16
M  V30 17 1 7 17
M  V30 18 1 9 18
M  V30 19 1 9 19
M  V30 20 1 11 20
M  V30 21 1 11 21
M  V30 22 1 12 22
M  V30 END BOND
M  V30 END CTAB
M  END
