
     RDKit          3D

  0  0  0  0  0  0  0  0  0  0999 V3000
M  V30 BEGIN CTAB
M  V30 COUNTS 26 26 0 0 0
M  V30 BEGIN ATOM
M  V30 1 C 2.3533 -0.173537 -0.10762 0 CFG=1
M  V30 2 N 2.80783 -1.54947 0.0811814 0
M  V30 3 C 1.96223 0.313154 1.25957 0
M  V30 4 S 0.646044 -0.683147 1.96945 0
M  V30 5 C -0.902122 -0.411765 1.12916 0
M  V30 6 C -1.01855 0.557394 0.16462 0
M  V30 7 C -2.21228 0.734918 -0.477461 0
M  V30 8 C -3.28759 -0.035761 -0.173108 0
M  V30 9 N -4.50827 0.176516 -0.857471 0
M  V30 10 C -3.18074 -1.01793 0.800943 0
M  V30 11 C -1.99667 -1.2017 1.44455 0
M  V30 12 C 3.45367 0.651223 -0.611503 0
M  V30 13 O 3.22359 2.01558 -0.86515 0
M  V30 14 O 4.57027 0.125453 -0.804933 0
M  V30 15 H 1.52592 -0.21527 -0.802091 0
M  V30 16 H 3.37949 -1.57331 0.941152 0
M  V30 17 H 3.34666 -1.85913 -0.743851 0
M  V30 18 H 1.66782 1.38545 1.15213 0
M  V30 19 H 2.85906 0.319095 1.92084 0
M  V30 20 H -0.165168 1.19679 -0.082328 0
M  V30 21 H -2.27101 1.51605 -1.24212 0
M  V30 22 H -5.07678 1.02669 -0.63743 0
M  V30 23 H -4.88183 -0.464241 -1.57268 0
M  V30 24 H -4.08055 -1.59223 0.988667 0
M  V30 25 H -1.91286 -1.96399 2.20042 0
M  V30 26 H 3.69854 2.72317 -0.303476 0
M  V30 END ATOM
M  V30 BEGIN BOND
M  V30 1 1 1 2
M  V30 2 1 1 3
M  V30 3 1 3 4
M  V30 4 1 4 5
M  V30 5 2 5 6
M  V30 6 1 6 7
M  V30 7 2 7 8
M  V30 8 1 8 9
M  V30 9 1 8 10
M  V30 10 2 10 11
M  V30 11 1 1 12
M  V30 12 1 12 13
M  V30 13 2 12 14
M  V30 14 1 11 5
M  V30 15 1 1 15 CFG=3
M  V30 16 1 2 16
M  V30 17 1 2 17
M  V30 18 1 3 18
M  V30 19 1 3 19
M  V30 20 1 6 20
M  V30 21 1 7 21
M  V30 22 1 9 22
M  V30 23 1 9 23
M  V30 24 1 10 24
M  V30 25 1 11 25
M  V30 26 1 13 26
M  V30 END BOND
M  V30 END CTAB
M  END
