
     RDKit          3D

  0  0  0  0  0  0  0  0  0  0999 V3000
M  V30 BEGIN CTAB
M  V30 COUNTS 25 26 0 0 0
M  V30 BEGIN ATOM
M  V30 1 N 5.13718 0.814155 -1.47788 0
M  V30 2 C 4.03857 0.172504 -0.852924 0
M  V30 3 N 2.87126 0.64531 -1.03494 0
M  V30 4 C 1.73323 0.00887292 -0.408242 0
M  V30 5 S 1.67461 -1.36033 0.603438 0
M  V30 6 C -0.0141902 -1.40166 0.871642 0
M  V30 7 C -0.4408 -0.317786 0.137416 0
M  V30 8 N 0.469762 0.362717 -0.489568 0
M  V30 9 C -1.90046 0.0199898 0.095537 0
M  V30 10 C -2.3182 1.10657 -0.641815 0
M  V30 11 C -3.64017 1.4769 -0.726947 0
M  V30 12 C -4.55476 0.711379 -0.0371753 0
M  V30 13 C -4.16953 -0.379216 0.707696 0
M  V30 14 C -2.81848 -0.729168 0.773808 0
M  V30 15 Br -6.39287 1.24542 -0.169579 0
M  V30 16 N 4.23141 -0.97097 -0.042185 0
M  V30 17 H 5.51101 0.358975 -2.35117 0
M  V30 18 H 5.5601 1.69178 -1.09991 0
M  V30 19 H -0.61445 -2.11115 1.47616 0
M  V30 20 H -1.57573 1.68475 -1.17005 0
M  V30 21 H -3.96188 2.34552 -1.31812 0
M  V30 22 H -4.89624 -0.955736 1.23251 0
M  V30 23 H -2.53846 -1.58638 1.36247 0
M  V30 24 H 4.48426 -0.90464 0.969706 0
M  V30 25 H 4.12483 -1.9278 -0.438433 0
M  V30 END ATOM
M  V30 BEGIN BOND
M  V30 1 1 1 2
M  V30 2 2 2 3 CFG=2
M  V30 3 1 3 4
M  V30 4 1 4 5
M  V30 5 1 5 6
M  V30 6 2 6 7
M  V30 7 1 7 8
M  V30 8 1 7 9
M  V30 9 2 9 10
M  V30 10 1 10 11
M  V30 11 2 11 12
M  V30 12 1 12 13
M  V30 13 2 13 14
M  V30 14 1 12 15
M  V30 15 1 2 16
M  V30 16 2 8 4
M  V30 17 1 14 9
M  V30 18 1 1 17
M  V30 19 1 1 18
M  V30 20 1 6 19
M  V30 21 1 10 20
M  V30 22 1 11 21
M  V30 23 1 13 22
M  V30 24 1 14 23
M  V30 25 1 16 24
M  V30 26 1 16 25
M  V30 END BOND
M  V30 END CTAB
M  END
