
     RDKit          3D

  0  0  0  0  0  0  0  0  0  0999 V3000
M  V30 BEGIN CTAB
M  V30 COUNTS 45 49 0 0 0
M  V30 BEGIN ATOM
M  V30 1 N -2.98429 -1.83286 -3.44182 0
M  V30 2 C -2.19753 -1.26994 -2.41195 0
M  V30 3 C -0.823973 -1.43724 -2.39824 0
M  V30 4 C -0.0264196 -0.907252 -1.41727 0
M  V30 5 C 1.42177 -1.0774 -1.39314 0
M  V30 6 N 2.18808 -1.74554 -2.27728 0
M  V30 7 N 3.44234 -1.63426 -1.8551 0
M  V30 8 C 3.47793 -0.912011 -0.72746 0
M  V30 9 O 2.23644 -0.596151 -0.484403 0
M  V30 10 C 4.6484 -0.54457 0.0754837 0
M  V30 11 C 4.52883 0.210156 1.22264 0
M  V30 12 C 5.58391 0.582936 2.0109 0
M  V30 13 C 6.85128 0.164528 1.61386 0
M  V30 14 C 7.01644 -0.591277 0.474095 0
M  V30 15 C 5.91312 -0.93882 -0.284597 0
M  V30 16 N 5.41484 1.36207 3.18607 0 CHG=1
M  V30 17 O 6.45691 1.73613 3.97372 0 CHG=-1
M  V30 18 O 4.25041 1.70869 3.49222 0
M  V30 19 C -0.631266 -0.182848 -0.413679 0
M  V30 20 N 0.122163 0.407866 0.652736 0
M  V30 21 C -1.99504 -0.000762978 -0.402497 0
M  V30 22 C -2.79345 -0.547755 -1.41001 0
M  V30 23 C -4.23135 -0.318831 -1.34091 0
M  V30 24 O -4.96586 -0.802578 -2.23758 0
M  V30 25 C -4.8674 0.449063 -0.276049 0
M  V30 26 C -6.22933 0.652612 -0.231195 0
M  V30 27 C -6.7955 1.38934 0.799215 0
M  V30 28 C -5.98967 1.92559 1.79155 0
M  V30 29 C -4.63147 1.70158 1.7142 0
M  V30 30 C -4.04294 0.972425 0.699986 0
M  V30 31 C -2.59288 0.772526 0.678335 0
M  V30 32 O -1.89362 1.27367 1.59498 0
M  V30 33 H -3.30008 -1.30188 -4.27018 0
M  V30 34 H -3.25184 -2.85478 -3.33669 0
M  V30 35 H -0.34162 -2.00746 -3.18698 0
M  V30 36 H 3.53369 0.520271 1.50581 0
M  V30 37 H 7.69515 0.456154 2.23418 0
M  V30 38 H 8.02855 -0.884237 0.220917 0
M  V30 39 H 6.07333 -1.53051 -1.17071 0
M  V30 40 H 0.266253 -0.0909976 1.56779 0
M  V30 41 H 0.562372 1.34863 0.583546 0
M  V30 42 H -6.83974 0.223013 -1.01916 0
M  V30 43 H -7.85859 1.54941 0.836063 0
M  V30 44 H -6.45319 2.4956 2.58371 0
M  V30 45 H -3.97514 2.10771 2.47489 0
M  V30 END ATOM
M  V30 BEGIN BOND
M  V30 1 1 1 2
M  V30 2 2 2 3
M  V30 3 1 3 4
M  V30 4 1 4 5
M  V30 5 2 5 6
M  V30 6 1 6 7
M  V30 7 2 7 8
M  V30 8 1 8 9
M  V30 9 1 8 10
M  V30 10 2 10 11
M  V30 11 1 11 12
M  V30 12 2 12 13
M  V30 13 1 13 14
M  V30 14 2 14 15
M  V30 15 1 12 16
M  V30 16 1 16 17
M  V30 17 2 16 18
M  V30 18 2 4 19
M  V30 19 1 19 20
M  V30 20 1 19 21
M  V30 21 2 21 22
M  V30 22 1 22 23
M  V30 23 2 23 24
M  V30 24 1 23 25
M  V30 25 2 25 26
M  V30 26 1 26 27
M  V30 27 2 27 28
M  V30 28 1 28 29
M  V30 29 2 29 30
M  V30 30 1 30 31
M  V30 31 2 31 32
M  V30 32 1 22 2
M  V30 33 1 30 25
M  V30 34 1 9 5
M  V30 35 1 15 10
M  V30 36 1 31 21
M  V30 37 1 1 33
M  V30 38 1 1 34
M  V30 39 1 3 35
M  V30 40 1 11 36
M  V30 41 1 13 37
M  V30 42 1 14 38
M  V30 43 1 15 39
M  V30 44 1 20 40
M  V30 45 1 20 41
M  V30 46 1 26 42
M  V30 47 1 27 43
M  V30 48 1 28 44
M  V30 49 1 29 45
M  V30 END BOND
M  V30 END CTAB
M  END
