
     RDKit          3D

  0  0  0  0  0  0  0  0  0  0999 V3000
M  V30 BEGIN CTAB
M  V30 COUNTS 57 60 0 0 0
M  V30 BEGIN ATOM
M  V30 1 O -5.56336 -1.93463 1.52434 0
M  V30 2 C -5.73465 -1.18789 0.508537 0
M  V30 3 C -6.84604 -1.46097 -0.399382 0
M  V30 4 C -7.02283 -0.845191 -1.60715 0
M  V30 5 C -8.11565 -1.15929 -2.42891 0
M  V30 6 C -9.04535 -2.09299 -2.05368 0
M  V30 7 C -8.88687 -2.7227 -0.845498 0
M  V30 8 C -7.81421 -2.41163 -0.0429346 0
M  V30 9 N -10.1526 -2.39576 -2.9142 0
M  V30 10 N -4.86654 -0.12584 0.274928 0
M  V30 11 C -3.7354 0.270419 1.04509 0
M  V30 12 C -3.21652 1.56743 0.870893 0
M  V30 13 C -2.11125 1.99294 1.57208 0
M  V30 14 C -1.46012 1.18679 2.46975 0
M  V30 15 C -1.95276 -0.0762172 2.64952 0
M  V30 16 C -3.08373 -0.528685 1.93951 0
M  V30 17 S -0.061779 1.8131 3.30827 0
M  V30 18 O -0.225853 3.30605 3.54561 0
M  V30 19 O 0.0594725 1.20089 4.696 0
M  V30 20 C 1.38647 1.48508 2.42507 0
M  V30 21 C 2.08894 0.332242 2.6639 0
M  V30 22 C 3.23406 0.0704162 1.96062 0
M  V30 23 C 3.73789 0.936885 0.987709 0
M  V30 24 C 3.03064 2.08093 0.758889 0
M  V30 25 C 1.87377 2.34123 1.47224 0
M  V30 26 N 4.93913 0.576996 0.326163 0
M  V30 27 C 5.49099 1.13193 -0.830713 0
M  V30 28 O 4.9325 2.06453 -1.43964 0
M  V30 29 C 6.74851 0.633947 -1.36939 0
M  V30 30 C 7.61022 -0.1414 -0.632455 0
M  V30 31 C 8.80564 -0.615882 -1.16808 0
M  V30 32 C 9.1586 -0.319504 -2.45689 0
M  V30 33 C 8.29908 0.460813 -3.20928 0
M  V30 34 C 7.13933 0.91381 -2.67056 0
M  V30 35 N 10.3774 -0.805151 -2.98916 0
M  V30 36 H -6.33305 -0.108131 -1.96543 0
M  V30 37 H -8.25444 -0.67226 -3.38353 0
M  V30 38 H -9.61436 -3.45596 -0.548252 0
M  V30 39 H -7.66784 -2.89472 0.912611 0
M  V30 40 H -9.99985 -2.45088 -3.92639 0
M  V30 41 H -11.1026 -2.5604 -2.53797 0
M  V30 42 H -5.0847 0.468104 -0.60543 0
M  V30 43 H -3.73971 2.19564 0.160876 0
M  V30 44 H -1.73245 3.01381 1.41125 0
M  V30 45 H -1.47361 -0.736309 3.3414 0
M  V30 46 H -3.412 -1.54339 2.12033 0
M  V30 47 H 1.75887 -0.404364 3.41633 0
M  V30 48 H 3.76088 -0.838155 2.16791 0
M  V30 49 H 3.3387 2.81112 0.0416524 0
M  V30 50 H 1.33651 3.27053 1.25703 0
M  V30 51 H 5.49669 -0.228933 0.778065 0
M  V30 52 H 7.4244 -0.425883 0.390593 0
M  V30 53 H 9.46595 -1.22839 -0.554662 0
M  V30 54 H 8.62504 0.668274 -4.22984 0
M  V30 55 H 6.47572 1.52195 -3.26566 0
M  V30 56 H 10.4417 -1.60024 -3.65894 0
M  V30 57 H 11.273 -0.344134 -2.69872 0
M  V30 END ATOM
M  V30 BEGIN BOND
M  V30 1 2 1 2
M  V30 2 1 2 3
M  V30 3 2 3 4
M  V30 4 1 4 5
M  V30 5 2 5 6
M  V30 6 1 6 7
M  V30 7 2 7 8
M  V30 8 1 6 9
M  V30 9 1 2 10
M  V30 10 1 10 11
M  V30 11 2 11 12
M  V30 12 1 12 13
M  V30 13 2 13 14
M  V30 14 1 14 15
M  V30 15 2 15 16
M  V30 16 1 14 17
M  V30 17 2 17 18
M  V30 18 2 17 19
M  V30 19 1 17 20
M  V30 20 2 20 21
M  V30 21 1 21 22
M  V30 22 2 22 23
M  V30 23 1 23 24
M  V30 24 2 24 25
M  V30 25 1 23 26
M  V30 26 1 26 27
M  V30 27 2 27 28
M  V30 28 1 27 29
M  V30 29 2 29 30
M  V30 30 1 30 31
M  V30 31 2 31 32
M  V30 32 1 32 33
M  V30 33 2 33 34
M  V30 34 1 32 35
M  V30 35 1 8 3
M  V30 36 1 16 11
M  V30 37 1 25 20
M  V30 38 1 34 29
M  V30 39 1 4 36
M  V30 40 1 5 37
M  V30 41 1 7 38
M  V30 42 1 8 39
M  V30 43 1 9 40
M  V30 44 1 9 41
M  V30 45 1 10 42
M  V30 46 1 12 43
M  V30 47 1 13 44
M  V30 48 1 15 45
M  V30 49 1 16 46
M  V30 50 1 21 47
M  V30 51 1 22 48
M  V30 52 1 24 49
M  V30 53 1 25 50
M  V30 54 1 26 51
M  V30 55 1 30 52
M  V30 56 1 31 53
M  V30 57 1 33 54
M  V30 58 1 34 55
M  V30 59 1 35 56
M  V30 60 1 35 57
M  V30 END BOND
M  V30 END CTAB
M  END
