
     RDKit          3D

  0  0  0  0  0  0  0  0  0  0999 V3000
M  V30 BEGIN CTAB
M  V30 COUNTS 26 26 0 0 0
M  V30 BEGIN ATOM
M  V30 1 N 3.4891 -0.498669 -0.094839 0
M  V30 2 C 2.5938 0.481225 -0.554517 0
M  V30 3 N 2.9301 1.43497 -1.35587 0
M  V30 4 N 1.24583 0.422325 -0.116068 0
M  V30 5 C 0.852295 0.186207 1.24012 0
M  V30 6 C -0.313168 -0.738131 1.39356 0
M  V30 7 N -1.27657 -0.517306 0.304932 0
M  V30 8 C -0.708318 -0.578071 -1.0375 0
M  V30 9 C 0.221868 0.619917 -1.14255 0
M  V30 10 C -2.64134 -0.266931 0.546494 0
M  V30 11 N -3.32615 0.784812 -0.111553 0
M  V30 12 N -3.25715 -1.02182 1.38572 0
M  V30 13 H 3.54073 -0.684279 0.927483 0
M  V30 14 H 4.07728 -1.01522 -0.774151 0
M  V30 15 H 2.26529 2.14284 -1.68263 0
M  V30 16 H 0.632052 1.18013 1.71041 0
M  V30 17 H 1.71504 -0.269461 1.76885 0
M  V30 18 H -0.808758 -0.563759 2.37314 0
M  V30 19 H -0.00459088 -1.79976 1.2936 0
M  V30 20 H -0.0799833 -1.51308 -1.05156 0
M  V30 21 H -1.48154 -0.587546 -1.81715 0
M  V30 22 H 0.62825 0.678361 -2.14845 0
M  V30 23 H -0.340581 1.5377 -0.837359 0
M  V30 24 H -4.0523 0.612685 -0.857637 0
M  V30 25 H -3.10397 1.77311 0.151842 0
M  V30 26 H -2.79721 -1.80025 1.88829 0
M  V30 END ATOM
M  V30 BEGIN BOND
M  V30 1 1 1 2
M  V30 2 2 2 3 CFG=2
M  V30 3 1 2 4
M  V30 4 1 4 5
M  V30 5 1 5 6
M  V30 6 1 6 7
M  V30 7 1 7 8
M  V30 8 1 8 9
M  V30 9 1 7 10
M  V30 10 1 10 11
M  V30 11 2 10 12 CFG=2
M  V30 12 1 9 4
M  V30 13 1 1 13
M  V30 14 1 1 14
M  V30 15 1 3 15
M  V30 16 1 5 16
M  V30 17 1 5 17
M  V30 18 1 6 18
M  V30 19 1 6 19
M  V30 20 1 8 20
M  V30 21 1 8 21
M  V30 22 1 9 22
M  V30 23 1 9 23
M  V30 24 1 11 24
M  V30 25 1 11 25
M  V30 26 1 12 26
M  V30 END BOND
M  V30 END CTAB
M  END
