
     RDKit          3D

  0  0  0  0  0  0  0  0  0  0999 V3000
M  V30 BEGIN CTAB
M  V30 COUNTS 52 55 0 0 0
M  V30 BEGIN ATOM
M  V30 1 N 8.05625 2.38831 0.989672 0
M  V30 2 C 7.94092 0.965594 0.757111 0
M  V30 3 C 6.50484 0.614941 0.597886 0
M  V30 4 C 6.10951 -0.681947 0.364548 0
M  V30 5 C 4.783 -1.00197 0.218408 0
M  V30 6 C 3.75098 -0.0447467 0.295221 0
M  V30 7 N 2.40748 -0.457907 0.119946 0
M  V30 8 C 1.27326 0.313161 0.356349 0
M  V30 9 O 1.24836 1.51584 0.769134 0
M  V30 10 C -0.0663623 -0.299752 0.110742 0
M  V30 11 C -1.15532 0.535416 -0.152473 0
M  V30 12 C -2.42163 0.0686634 -0.380492 0
M  V30 13 N -3.53057 0.892267 -0.651887 0
M  V30 14 C -3.57744 2.29891 -0.717768 0
M  V30 15 N -2.57505 3.13652 -0.534035 0
M  V30 16 C -2.62653 4.44707 -0.596934 0
M  V30 17 C -3.84036 5.04233 -0.882999 0
M  V30 18 C -4.92154 4.22928 -1.08475 0
M  V30 19 N -4.78566 2.90545 -1.00307 0
M  V30 20 C -2.58585 -1.33914 -0.336928 0
M  V30 21 C -3.81079 -1.90658 -0.550304 0
M  V30 22 C -3.97292 -3.30617 -0.505977 0
M  V30 23 C -2.89116 -4.09468 -0.246828 0
M  V30 24 C -1.64975 -3.55414 -0.0285893 0
M  V30 25 C -1.51823 -2.16963 -0.0781829 0
M  V30 26 C -0.261901 -1.64137 0.144645 0
M  V30 27 C -5.31004 -3.83119 -0.744146 0
M  V30 28 N -6.40957 -2.93518 -1.0128 0
M  V30 29 N -5.57907 -5.08168 -0.729298 0
M  V30 30 C 4.15028 1.24255 0.52694 0
M  V30 31 C 5.51346 1.56083 0.67564 0
M  V30 32 H 7.5776 2.64466 1.88191 0
M  V30 33 H 7.68825 2.87288 0.157225 0
M  V30 34 H 8.56391 0.660678 -0.0871638 0
M  V30 35 H 8.36911 0.466847 1.66657 0
M  V30 36 H 6.87557 -1.44755 0.298812 0
M  V30 37 H 4.45516 -2.02431 0.0339026 0
M  V30 38 H 2.2296 -1.45049 -0.235005 0
M  V30 39 H -0.932683 1.5712 -0.165946 0
M  V30 40 H -4.46228 0.398329 -0.835521 0
M  V30 41 H -1.73736 5.05549 -0.428628 0
M  V30 42 H -3.88996 6.12352 -0.936417 0
M  V30 43 H -5.89514 4.6833 -1.31327 0
M  V30 44 H -4.69584 -1.31229 -0.758397 0
M  V30 45 H -2.99179 -5.17913 -0.207532 0
M  V30 46 H -0.772371 -4.17311 0.180497 0
M  V30 47 H 0.556624 -2.31336 0.351123 0
M  V30 48 H -6.81992 -2.89548 -1.95073 0
M  V30 49 H -6.75435 -2.35372 -0.242942 0
M  V30 50 H -4.84321 -5.77953 -0.544126 0
M  V30 51 H 3.43937 2.05422 0.595549 0
M  V30 52 H 5.79108 2.58681 0.857694 0
M  V30 END ATOM
M  V30 BEGIN BOND
M  V30 1 1 1 2
M  V30 2 1 2 3
M  V30 3 2 3 4
M  V30 4 1 4 5
M  V30 5 2 5 6
M  V30 6 1 6 7
M  V30 7 1 7 8
M  V30 8 2 8 9
M  V30 9 1 8 10
M  V30 10 2 10 11
M  V30 11 1 11 12
M  V30 12 1 12 13
M  V30 13 1 13 14
M  V30 14 2 14 15
M  V30 15 1 15 16
M  V30 16 2 16 17
M  V30 17 1 17 18
M  V30 18 2 18 19
M  V30 19 2 12 20
M  V30 20 1 20 21
M  V30 21 2 21 22
M  V30 22 1 22 23
M  V30 23 2 23 24
M  V30 24 1 24 25
M  V30 25 2 25 26
M  V30 26 1 22 27
M  V30 27 1 27 28
M  V30 28 2 27 29 CFG=2
M  V30 29 1 6 30
M  V30 30 2 30 31
M  V30 31 1 31 3
M  V30 32 1 26 10
M  V30 33 1 19 14
M  V30 34 1 25 20
M  V30 35 1 1 32
M  V30 36 1 1 33
M  V30 37 1 2 34
M  V30 38 1 2 35
M  V30 39 1 4 36
M  V30 40 1 5 37
M  V30 41 1 7 38
M  V30 42 1 11 39
M  V30 43 1 13 40
M  V30 44 1 16 41
M  V30 45 1 17 42
M  V30 46 1 18 43
M  V30 47 1 21 44
M  V30 48 1 23 45
M  V30 49 1 24 46
M  V30 50 1 26 47
M  V30 51 1 28 48
M  V30 52 1 28 49
M  V30 53 1 29 50
M  V30 54 1 30 51
M  V30 55 1 31 52
M  V30 END BOND
M  V30 END CTAB
M  END
