
     RDKit          3D

  0  0  0  0  0  0  0  0  0  0999 V3000
M  V30 BEGIN CTAB
M  V30 COUNTS 21 22 0 0 0
M  V30 BEGIN ATOM
M  V30 1 N -3.72725 -1.27989 -0.273701 0
M  V30 2 C -2.42827 -0.693237 -0.162681 0
M  V30 3 N -1.34815 -1.48427 -0.209591 0
M  V30 4 C -0.0999609 -1.00951 -0.112602 0
M  V30 5 C 0.997385 -1.82672 -0.161735 0
M  V30 6 C 2.30039 -1.38167 -0.0659901 0
M  V30 7 C 2.47125 -0.0246073 0.0879442 0
M  V30 8 C 3.81471 0.468955 0.190443 0
M  V30 9 N 4.90917 0.881393 0.256319 0
M  V30 10 C 1.39232 0.867107 0.145853 0
M  V30 11 Cl 1.66446 2.5842 0.342634 0
M  V30 12 C 0.118321 0.353506 0.0437014 0
M  V30 13 C -1.00962 1.14249 0.0886551 0
M  V30 14 N -0.841976 2.5491 0.247887 0
M  V30 15 N -2.26115 0.619078 -0.0137525 0
M  V30 16 H -3.82758 -2.18801 -0.729007 0
M  V30 17 H -4.53718 -0.750123 0.120747 0
M  V30 18 H 0.832489 -2.89183 -0.283669 0
M  V30 19 H 3.15024 -2.05391 -0.108331 0
M  V30 20 H -0.752794 3.14347 -0.589231 0
M  V30 21 H -0.816808 2.97448 1.18611 0
M  V30 END ATOM
M  V30 BEGIN BOND
M  V30 1 1 1 2
M  V30 2 2 2 3
M  V30 3 1 3 4
M  V30 4 2 4 5
M  V30 5 1 5 6
M  V30 6 2 6 7
M  V30 7 1 7 8
M  V30 8 3 8 9
M  V30 9 1 7 10
M  V30 10 1 10 11
M  V30 11 2 10 12
M  V30 12 1 12 13
M  V30 13 1 13 14
M  V30 14 2 13 15
M  V30 15 1 15 2
M  V30 16 1 12 4
M  V30 17 1 1 16
M  V30 18 1 1 17
M  V30 19 1 5 18
M  V30 20 1 6 19
M  V30 21 1 14 20
M  V30 22 1 14 21
M  V30 END BOND
M  V30 END CTAB
M  END
