
     RDKit          3D

  0  0  0  0  0  0  0  0  0  0999 V3000
M  V30 BEGIN CTAB
M  V30 COUNTS 22 22 0 0 0
M  V30 BEGIN ATOM
M  V30 1 N 4.1365 -0.717099 0.107517 0
M  V30 2 C 2.82427 -0.385283 -0.415574 0
M  V30 3 C 1.96 0.0122009 0.741607 0
M  V30 4 N 0.615199 0.370744 0.3598 0
M  V30 5 N 0.267963 1.61523 0.0431069 0
M  V30 6 C -1.02941 1.61137 -0.258915 0
M  V30 7 C -1.53266 0.324748 -0.132705 0
M  V30 8 C -0.456373 -0.439613 0.263193 0
M  V30 9 S -3.18099 -0.15385 -0.426691 0
M  V30 10 O -3.281 -1.55745 -0.926835 0
M  V30 11 O -3.83031 0.751113 -1.46104 0
M  V30 12 N -4.14807 -0.0401654 0.998252 0
M  V30 13 H 4.28534 -0.215185 1.01315 0
M  V30 14 H 4.90472 -0.377482 -0.529845 0
M  V30 15 H 2.4496 -1.31753 -0.912563 0
M  V30 16 H 2.94036 0.383879 -1.17614 0
M  V30 17 H 2.45201 0.871017 1.24505 0
M  V30 18 H 1.95789 -0.820734 1.47832 0
M  V30 19 H -1.63433 2.47094 -0.562878 0
M  V30 20 H -0.498166 -1.49724 0.453728 0
M  V30 21 H -5.15344 0.0405105 0.731295 0
M  V30 22 H -4.0491 -0.930117 1.55802 0
M  V30 END ATOM
M  V30 BEGIN BOND
M  V30 1 1 1 2
M  V30 2 1 2 3
M  V30 3 1 3 4
M  V30 4 1 4 5
M  V30 5 2 5 6
M  V30 6 1 6 7
M  V30 7 2 7 8
M  V30 8 1 7 9
M  V30 9 2 9 10
M  V30 10 2 9 11
M  V30 11 1 9 12
M  V30 12 1 8 4
M  V30 13 1 1 13
M  V30 14 1 1 14
M  V30 15 1 2 15
M  V30 16 1 2 16
M  V30 17 1 3 17
M  V30 18 1 3 18
M  V30 19 1 6 19
M  V30 20 1 8 20
M  V30 21 1 12 21
M  V30 22 1 12 22
M  V30 END BOND
M  V30 END CTAB
M  END
