
     RDKit          3D

  0  0  0  0  0  0  0  0  0  0999 V3000
M  V30 BEGIN CTAB
M  V30 COUNTS 30 30 0 0 0
M  V30 BEGIN ATOM
M  V30 1 C 2.69772 -1.77599 -0.467447 0
M  V30 2 C 1.80001 -0.904115 -1.32306 0
M  V30 3 N 1.17749 0.145757 -0.565365 0
M  V30 4 C -0.233815 0.081579 -0.417689 0
M  V30 5 C -1.0331 -0.321397 -1.48371 0
M  V30 6 C -2.38738 -0.368074 -1.37429 0
M  V30 7 C -2.97146 -0.00781687 -0.183498 0
M  V30 8 C -2.19429 0.390392 0.871341 0
M  V30 9 C -0.818311 0.448103 0.792659 0
M  V30 10 F -0.0764971 0.838981 1.86188 0
M  V30 11 N -2.78141 0.762138 2.10999 0
M  V30 12 N -4.39089 -0.0494319 -0.0408709 0
M  V30 13 C 1.9481 1.21747 -0.0328984 0
M  V30 14 C 2.90455 0.880458 1.05698 0
M  V30 15 H 2.7967 -2.73457 -1.02646 0
M  V30 16 H 2.22146 -2.03028 0.489255 0
M  V30 17 H 3.68015 -1.3197 -0.423851 0
M  V30 18 H 2.46801 -0.426439 -2.10097 0
M  V30 19 H 1.05376 -1.52505 -1.86822 0
M  V30 20 H -0.568614 -0.588874 -2.41339 0
M  V30 21 H -3.05915 -0.675017 -2.16908 0
M  V30 22 H -3.08944 1.72275 2.29004 0
M  V30 23 H -2.89362 0.0350844 2.83739 0
M  V30 24 H -4.84322 0.35946 0.798438 0
M  V30 25 H -4.97066 -0.487072 -0.776102 0
M  V30 26 H 2.58753 1.70802 -0.84742 0
M  V30 27 H 1.31935 2.09241 0.309902 0
M  V30 28 H 2.69787 -0.000469582 1.65088 0
M  V30 29 H 2.99451 1.75492 1.77054 0
M  V30 30 H 3.96464 0.77677 0.675017 0
M  V30 END ATOM
M  V30 BEGIN BOND
M  V30 1 1 1 2
M  V30 2 1 2 3
M  V30 3 1 3 4
M  V30 4 2 4 5
M  V30 5 1 5 6
M  V30 6 2 6 7
M  V30 7 1 7 8
M  V30 8 2 8 9
M  V30 9 1 9 10
M  V30 10 1 8 11
M  V30 11 1 7 12
M  V30 12 1 3 13
M  V30 13 1 13 14
M  V30 14 1 9 4
M  V30 15 1 1 15
M  V30 16 1 1 16
M  V30 17 1 1 17
M  V30 18 1 2 18
M  V30 19 1 2 19
M  V30 20 1 5 20
M  V30 21 1 6 21
M  V30 22 1 11 22
M  V30 23 1 11 23
M  V30 24 1 12 24
M  V30 25 1 12 25
M  V30 26 1 13 26
M  V30 27 1 13 27
M  V30 28 1 14 28
M  V30 29 1 14 29
M  V30 30 1 14 30
M  V30 END BOND
M  V30 END CTAB
M  END
