
     RDKit          3D

  0  0  0  0  0  0  0  0  0  0999 V3000
M  V30 BEGIN CTAB
M  V30 COUNTS 145 147 0 0 0
M  V30 BEGIN ATOM
M  V30 1 C -3.43991 3.06552 -1.89713 0
M  V30 2 C -3.39219 1.77388 -1.0391 0
M  V30 3 C -2.18402 1.01733 -1.43678 0 CFG=2
M  V30 4 C -2.22759 0.646449 -2.91567 0
M  V30 5 C -1.81993 -0.134961 -0.599638 0 CFG=2
M  V30 6 N -0.569078 -0.761 -0.987044 0
M  V30 7 C 0.6507 -0.698163 -0.26136 0
M  V30 8 O 0.579869 -0.04844 0.829595 0
M  V30 9 C 1.88217 -1.311 -0.723131 0 CFG=2
M  V30 10 C 1.87735 -2.73031 -1.12454 0
M  V30 11 C 1.5264 -3.74444 -0.145625 0
M  V30 12 C 0.262334 -4.20392 0.114104 0
M  V30 13 C 0.0229308 -5.20132 1.05033 0
M  V30 14 C 1.05718 -5.7711 1.75783 0
M  V30 15 O 0.833919 -6.78896 2.71094 0
M  V30 16 C 2.33887 -5.31273 1.50243 0
M  V30 17 C 2.56511 -4.32543 0.575481 0
M  V30 18 N 2.95032 -0.992532 0.246171 0
M  V30 19 C 4.15016 -0.366409 -0.125529 0
M  V30 20 O 4.2149 -0.118297 -1.40351 0
M  V30 21 C 5.28937 0.0325474 0.68794 0 CFG=1
M  V30 22 N 6.31666 0.567024 -0.167956 0
M  V30 23 C 7.64565 0.71711 0.262636 0
M  V30 24 O 7.98545 0.405787 1.41193 0
M  V30 25 C 8.68847 1.27289 -0.679342 0 CFG=2
M  V30 26 C 9.39131 0.160972 -1.30954 0
M  V30 27 C 10.4806 0.419383 -2.26356 0
M  V30 28 C 11.7658 0.978754 -1.79802 0
M  V30 29 N 12.6025 0.124635 -1.00889 0
M  V30 30 C 12.4321 -0.399578 0.27989 0
M  V30 31 N 12.4659 0.318804 1.48355 0
M  V30 32 N 12.2524 -1.7038 0.42178 0
M  V30 33 N 9.45439 2.25594 0.0403001 0
M  V30 34 C 8.97498 3.64209 -0.112727 0
M  V30 35 O 7.95209 3.7409 -0.862471 0
M  V30 36 C 9.49861 4.84727 0.461915 0 CFG=1
M  V30 37 N 8.41823 5.87806 0.560713 0
M  V30 38 C 10.2487 4.86354 1.7324 0
M  V30 39 C 11.5063 4.11681 1.66238 0
M  V30 40 O 12.2307 4.09141 0.481922 0
M  V30 41 O 11.8907 3.51545 2.70275 0
M  V30 42 C 4.93901 1.13308 1.70469 0
M  V30 43 C 3.86958 0.706068 2.66751 0
M  V30 44 C 4.59357 2.42737 1.06461 0
M  V30 45 C -2.85005 -1.09453 -0.236301 0
M  V30 46 O -2.54111 -1.97438 0.671393 0
M  V30 47 N -4.1573 -1.23852 -0.72215 0
M  V30 48 C -5.11636 -2.25022 -0.21087 0 CFG=2
M  V30 49 C -4.88932 -3.56368 -0.874447 0
M  V30 50 C -5.0619 -3.64263 -2.32314 0
M  V30 51 C -5.44929 -2.79422 -3.30226 0
M  V30 52 N -5.4199 -3.4145 -4.50402 0
M  V30 53 C -5.01341 -4.65148 -4.26667 0
M  V30 54 N -4.79165 -4.816 -2.97178 0
M  V30 55 C -6.47286 -1.71283 -0.268358 0
M  V30 56 O -6.66342 -0.561336 -0.795386 0
M  V30 57 N -7.5932 -2.3925 0.225821 0
M  V30 58 C -7.60356 -3.68158 0.922362 0
M  V30 59 C -8.92091 -3.64968 1.69474 0
M  V30 60 C -9.80571 -3.03685 0.621421 0
M  V30 61 C -8.9536 -1.92474 0.0857421 0 CFG=1
M  V30 62 C -9.1808 -0.644271 0.757429 0
M  V30 63 O -8.28109 -0.0669744 1.45513 0
M  V30 64 N -10.4455 -0.00265404 0.636367 0
M  V30 65 C -10.7206 1.29498 1.28659 0 CFG=1
M  V30 66 C -11.2122 2.19254 0.176214 0
M  V30 67 C -11.5631 3.58291 0.579914 0
M  V30 68 C -12.0311 4.32449 -0.657386 0
M  V30 69 C -10.401 4.33488 1.1766 0
M  V30 70 C -11.7637 1.04498 2.30947 0
M  V30 71 O -12.2346 2.03637 3.15459 0
M  V30 72 O -12.2681 -0.0987748 2.45074 0
M  V30 73 H -3.97017 3.87801 -1.35522 0
M  V30 74 H -3.9469 2.87475 -2.83935 0
M  V30 75 H -2.39376 3.38862 -2.0293 0
M  V30 76 H -3.22376 2.22004 0.0101808 0
M  V30 77 H -4.35118 1.32688 -0.998754 0
M  V30 78 H -1.31086 1.75997 -1.35631 0
M  V30 79 H -2.75064 -0.305807 -3.00916 0
M  V30 80 H -1.16556 0.462381 -3.22711 0
M  V30 81 H -2.60183 1.47053 -3.54135 0
M  V30 82 H -1.5345 0.344999 0.431389 0
M  V30 83 H -0.572091 -1.29916 -1.88113 0
M  V30 84 H 2.20998 -0.696739 -1.64105 0
M  V30 85 H 1.14627 -2.81334 -1.99899 0
M  V30 86 H 2.85991 -2.93814 -1.63444 0
M  V30 87 H -0.597454 -3.79148 -0.420645 0
M  V30 88 H -0.97368 -5.54789 1.24574 0
M  V30 89 H 0.877647 -7.7283 2.28671 0
M  V30 90 H 3.14801 -5.74443 2.03726 0
M  V30 91 H 3.59642 -3.99911 0.412415 0
M  V30 92 H 2.7666 -1.26157 1.21823 0
M  V30 93 H 5.72641 -0.759886 1.31176 0
M  V30 94 H 6.06873 0.853265 -1.13729 0
M  V30 95 H 8.10096 1.80472 -1.5148 0
M  V30 96 H 9.69565 -0.613065 -0.52963 0
M  V30 97 H 8.62779 -0.472195 -1.91059 0
M  V30 98 H 10.7275 -0.58626 -2.74722 0
M  V30 99 H 10.0456 0.992509 -3.12394 0
M  V30 100 H 12.3492 1.25053 -2.74002 0
M  V30 101 H 11.6508 1.97388 -1.29689 0
M  V30 102 H 13.5575 -0.207022 -1.45097 0
M  V30 103 H 11.7849 0.103069 2.233 0
M  V30 104 H 13.1706 1.06249 1.62515 0
M  V30 105 H 12.2486 -2.26877 -0.439119 0
M  V30 106 H 10.2427 2.07584 0.611014 0
M  V30 107 H 10.1962 5.38274 -0.302177 0
M  V30 108 H 7.97825 6.03129 -0.358842 0
M  V30 109 H 8.77458 6.73009 1.03182 0
M  V30 110 H 9.63418 4.51182 2.60974 0
M  V30 111 H 10.4612 5.95141 2.01138 0
M  V30 112 H 12.8583 3.36153 0.232729 0
M  V30 113 H 5.87189 1.2616 2.31877 0
M  V30 114 H 3.96466 -0.325579 3.04116 0
M  V30 115 H 2.87261 0.915836 2.21903 0
M  V30 116 H 3.88675 1.34745 3.59364 0
M  V30 117 H 3.52346 2.65513 1.25214 0
M  V30 118 H 5.16336 3.24344 1.58675 0
M  V30 119 H 4.87843 2.50059 -0.00706511 0
M  V30 120 H -4.5221 -0.681224 -1.49171 0
M  V30 121 H -4.81542 -2.40912 0.852884 0
M  V30 122 H -5.40441 -4.35683 -0.317132 0
M  V30 123 H -3.78548 -3.79037 -0.703707 0
M  V30 124 H -5.74419 -1.78436 -3.16775 0
M  V30 125 H -4.87308 -5.44341 -5.02035 0
M  V30 126 H -4.46278 -5.70655 -2.52817 0
M  V30 127 H -6.73113 -3.76616 1.57768 0
M  V30 128 H -7.6977 -4.52934 0.230078 0
M  V30 129 H -8.84307 -2.91812 2.49981 0
M  V30 130 H -9.25345 -4.63025 2.03296 0
M  V30 131 H -10.7609 -2.71258 1.02687 0
M  V30 132 H -9.96046 -3.76453 -0.215609 0
M  V30 133 H -9.20267 -1.76399 -1.00515 0
M  V30 134 H -11.2007 -0.43378 0.0893435 0
M  V30 135 H -9.76764 1.62272 1.73617 0
M  V30 136 H -12.1711 1.71594 -0.186944 0
M  V30 137 H -10.447 2.21097 -0.61905 0
M  V30 138 H -12.4016 3.60951 1.30638 0
M  V30 139 H -13.0337 4.75106 -0.496574 0
M  V30 140 H -11.3312 5.18595 -0.839333 0
M  V30 141 H -12.0478 3.66726 -1.56625 0
M  V30 142 H -10.4161 5.36611 0.805899 0
M  V30 143 H -10.476 4.38368 2.2839 0
M  V30 144 H -9.44379 3.8637 0.822628 0
M  V30 145 H -13.2472 2.23159 3.18398 0
M  V30 END ATOM
M  V30 BEGIN BOND
M  V30 1 1 1 2
M  V30 2 1 2 3
M  V30 3 1 3 4
M  V30 4 1 3 5
M  V30 5 1 5 6
M  V30 6 1 6 7
M  V30 7 2 7 8
M  V30 8 1 7 9
M  V30 9 1 9 10
M  V30 10 1 10 11
M  V30 11 2 11 12
M  V30 12 1 12 13
M  V30 13 2 13 14
M  V30 14 1 14 15
M  V30 15 1 14 16
M  V30 16 2 16 17
M  V30 17 1 9 18
M  V30 18 1 18 19
M  V30 19 2 19 20
M  V30 20 1 19 21
M  V30 21 1 21 22
M  V30 22 1 22 23
M  V30 23 2 23 24
M  V30 24 1 23 25
M  V30 25 1 25 26
M  V30 26 1 26 27
M  V30 27 1 27 28
M  V30 28 1 28 29
M  V30 29 1 29 30
M  V30 30 1 30 31
M  V30 31 2 30 32 CFG=2
M  V30 32 1 25 33
M  V30 33 1 33 34
M  V30 34 2 34 35
M  V30 35 1 34 36
M  V30 36 1 36 37
M  V30 37 1 36 38
M  V30 38 1 38 39
M  V30 39 1 39 40
M  V30 40 2 39 41
M  V30 41 1 21 42
M  V30 42 1 42 43
M  V30 43 1 42 44
M  V30 44 1 5 45
M  V30 45 2 45 46
M  V30 46 1 45 47
M  V30 47 1 47 48
M  V30 48 1 48 49
M  V30 49 1 49 50
M  V30 50 2 50 51
M  V30 51 1 51 52
M  V30 52 2 52 53
M  V30 53 1 53 54
M  V30 54 1 48 55
M  V30 55 2 55 56
M  V30 56 1 55 57
M  V30 57 1 57 58
M  V30 58 1 58 59
M  V30 59 1 59 60
M  V30 60 1 60 61
M  V30 61 1 61 62
M  V30 62 2 62 63
M  V30 63 1 62 64
M  V30 64 1 64 65
M  V30 65 1 65 66
M  V30 66 1 66 67
M  V30 67 1 67 68
M  V30 68 1 67 69
M  V30 69 1 65 70
M  V30 70 1 70 71
M  V30 71 2 70 72
M  V30 72 1 17 11
M  V30 73 1 54 50
M  V30 74 1 61 57
M  V30 75 1 1 73
M  V30 76 1 1 74
M  V30 77 1 1 75
M  V30 78 1 2 76
M  V30 79 1 2 77
M  V30 80 1 3 78 CFG=3
M  V30 81 1 4 79
M  V30 82 1 4 80
M  V30 83 1 4 81
M  V30 84 1 5 82 CFG=1
M  V30 85 1 6 83
M  V30 86 1 9 84 CFG=3
M  V30 87 1 10 85
M  V30 88 1 10 86
M  V30 89 1 12 87
M  V30 90 1 13 88
M  V30 91 1 15 89
M  V30 92 1 16 90
M  V30 93 1 17 91
M  V30 94 1 18 92
M  V30 95 1 21 93 CFG=1
M  V30 96 1 22 94
M  V30 97 1 25 95 CFG=3
M  V30 98 1 26 96
M  V30 99 1 26 97
M  V30 100 1 27 98
M  V30 101 1 27 99
M  V30 102 1 28 100
M  V30 103 1 28 101
M  V30 104 1 29 102
M  V30 105 1 31 103
M  V30 106 1 31 104
M  V30 107 1 32 105
M  V30 108 1 33 106
M  V30 109 1 36 107 CFG=3
M  V30 110 1 37 108
M  V30 111 1 37 109
M  V30 112 1 38 110
M  V30 113 1 38 111
M  V30 114 1 40 112
M  V30 115 1 42 113
M  V30 116 1 43 114
M  V30 117 1 43 115
M  V30 118 1 43 116
M  V30 119 1 44 117
M  V30 120 1 44 118
M  V30 121 1 44 119
M  V30 122 1 47 120
M  V30 123 1 48 121 CFG=1
M  V30 124 1 49 122
M  V30 125 1 49 123
M  V30 126 1 51 124
M  V30 127 1 53 125
M  V30 128 1 54 126
M  V30 129 1 58 127
M  V30 130 1 58 128
M  V30 131 1 59 129
M  V30 132 1 59 130
M  V30 133 1 60 131
M  V30 134 1 60 132
M  V30 135 1 61 133 CFG=3
M  V30 136 1 64 134
M  V30 137 1 65 135 CFG=1
M  V30 138 1 66 136
M  V30 139 1 66 137
M  V30 140 1 67 138
M  V30 141 1 68 139
M  V30 142 1 68 140
M  V30 143 1 68 141
M  V30 144 1 69 142
M  V30 145 1 69 143
M  V30 146 1 69 144
M  V30 147 1 71 145
M  V30 END BOND
M  V30 END CTAB
M  END
