
     RDKit          3D

  0  0  0  0  0  0  0  0  0  0999 V3000
M  V30 BEGIN CTAB
M  V30 COUNTS 22 22 0 0 0
M  V30 BEGIN ATOM
M  V30 1 N -1.08543 -1.62133 -1.20595 0
M  V30 2 C -1.04383 -0.156783 -0.792495 0
M  V30 3 C 0.28432 0.0679138 -0.278944 0
M  V30 4 C 0.933389 -0.88246 0.467407 0
M  V30 5 C 2.28369 -0.758483 0.795864 0
M  V30 6 Br 3.15074 -2.1553 1.76409 0
M  V30 7 C 2.95986 0.348694 0.354786 0
M  V30 8 C 2.35105 1.33719 -0.405575 0
M  V30 9 C 1.02031 1.15998 -0.697556 0
M  V30 10 F 0.371806 2.1685 -1.42465 0
M  V30 11 C -2.13971 -0.0855045 0.245796 0
M  V30 12 N -2.30608 1.25335 0.769365 0
M  V30 13 H -2.10531 -1.72873 -1.47584 0
M  V30 14 H -1.06922 -2.07377 -0.209388 0
M  V30 15 H -1.2349 0.377915 -1.73337 0
M  V30 16 H 0.495228 -1.79031 0.835611 0
M  V30 17 H 3.99658 0.481496 0.613349 0
M  V30 18 H 2.88063 2.22869 -0.735652 0
M  V30 19 H -3.10732 -0.383223 -0.294616 0
M  V30 20 H -2.01646 -0.799171 1.05266 0
M  V30 21 H -1.45421 1.6435 1.13917 0
M  V30 22 H -3.16514 1.36784 1.21594 0
M  V30 END ATOM
M  V30 BEGIN BOND
M  V30 1 1 1 2
M  V30 2 1 2 3
M  V30 3 2 3 4
M  V30 4 1 4 5
M  V30 5 1 5 6
M  V30 6 2 5 7
M  V30 7 1 7 8
M  V30 8 2 8 9
M  V30 9 1 9 10
M  V30 10 1 2 11
M  V30 11 1 11 12
M  V30 12 1 9 3
M  V30 13 1 1 13
M  V30 14 1 1 14
M  V30 15 1 2 15
M  V30 16 1 4 16
M  V30 17 1 7 17
M  V30 18 1 8 18
M  V30 19 1 11 19
M  V30 20 1 11 20
M  V30 21 1 12 21
M  V30 22 1 12 22
M  V30 END BOND
M  V30 END CTAB
M  END
