
     RDKit          3D

  0  0  0  0  0  0  0  0  0  0999 V3000
M  V30 BEGIN CTAB
M  V30 COUNTS 34 35 0 0 0
M  V30 BEGIN ATOM
M  V30 1 N 2.87321 1.94915 -0.427087 0
M  V30 2 C 1.65538 1.26999 -0.720038 0
M  V30 3 C 1.86664 -0.17223 -0.311591 0
M  V30 4 N 0.765054 -1.03789 -0.522242 0
M  V30 5 C 1.23961 -2.38316 -0.11686 0
M  V30 6 C 1.33132 -2.183 1.38235 0
M  V30 7 C 0.286436 -1.11067 1.71661 0
M  V30 8 C -0.337672 -0.953035 0.371748 0 CFG=1
M  V30 9 C -1.30354 0.0964654 0.200919 0
M  V30 10 C -1.76628 0.877521 1.24104 0
M  V30 11 C -2.69948 1.87851 1.07631 0
M  V30 12 C -3.17119 2.08049 -0.204851 0
M  V30 13 C -2.73762 1.32684 -1.26417 0
M  V30 14 C -1.78963 0.316064 -1.07291 0
M  V30 15 N -1.38087 -0.432111 -2.2143 0
M  V30 16 H 3.58228 1.38432 -0.0772332 0
M  V30 17 H 2.76126 2.82722 0.0173678 0
M  V30 18 H 1.51451 1.36175 -1.82078 0
M  V30 19 H 0.871683 1.77481 -0.146464 0
M  V30 20 H 2.76917 -0.513961 -0.889753 0
M  V30 21 H 2.22102 -0.118256 0.738218 0
M  V30 22 H 0.407783 -3.06578 -0.375554 0
M  V30 23 H 2.18842 -2.63513 -0.58523 0
M  V30 24 H 1.05169 -3.14541 1.89023 0
M  V30 25 H 2.33865 -1.90339 1.69243 0
M  V30 26 H 0.723808 -0.214787 2.14108 0
M  V30 27 H -0.420775 -1.53252 2.46905 0
M  V30 28 H -0.910953 -1.92713 0.214604 0
M  V30 29 H -1.40314 0.732987 2.26938 0
M  V30 30 H -3.05151 2.48435 1.91255 0
M  V30 31 H -3.91025 2.86703 -0.361952 0
M  V30 32 H -3.11852 1.49627 -2.27602 0
M  V30 33 H -1.15336 0.0764411 -3.08739 0
M  V30 34 H -1.29312 -1.47175 -2.23062 0
M  V30 END ATOM
M  V30 BEGIN BOND
M  V30 1 1 1 2
M  V30 2 1 2 3
M  V30 3 1 3 4
M  V30 4 1 4 5
M  V30 5 1 5 6
M  V30 6 1 6 7
M  V30 7 1 7 8
M  V30 8 1 8 9
M  V30 9 2 9 10
M  V30 10 1 10 11
M  V30 11 2 11 12
M  V30 12 1 12 13
M  V30 13 2 13 14
M  V30 14 1 14 15
M  V30 15 1 8 4
M  V30 16 1 14 9
M  V30 17 1 1 16
M  V30 18 1 1 17
M  V30 19 1 2 18
M  V30 20 1 2 19
M  V30 21 1 3 20
M  V30 22 1 3 21
M  V30 23 1 5 22
M  V30 24 1 5 23
M  V30 25 1 6 24
M  V30 26 1 6 25
M  V30 27 1 7 26
M  V30 28 1 7 27
M  V30 29 1 8 28 CFG=3
M  V30 30 1 10 29
M  V30 31 1 11 30
M  V30 32 1 12 31
M  V30 33 1 13 32
M  V30 34 1 15 33
M  V30 35 1 15 34
M  V30 END BOND
M  V30 END CTAB
M  END
