
     RDKit          3D

  0  0  0  0  0  0  0  0  0  0999 V3000
M  V30 BEGIN CTAB
M  V30 COUNTS 21 21 0 0 0
M  V30 BEGIN ATOM
M  V30 1 N -4.14477 -0.47272 -0.21583 0
M  V30 2 N -2.76283 -0.467018 0.065011 0
M  V30 3 C -1.83021 0.199845 -0.731322 0
M  V30 4 O -2.35776 0.806611 -1.74423 0
M  V30 5 C -0.389292 0.2911 -0.565207 0
M  V30 6 S 0.624711 1.17587 -1.67027 0
M  V30 7 C 2.13008 0.892902 -0.933587 0
M  V30 8 C 1.81234 0.128738 0.137774 0
M  V30 9 C 0.51228 -0.181788 0.32787 0
M  V30 10 C 0.0417391 -1.02918 1.49191 0
M  V30 11 C 2.90141 -0.307618 1.01518 0
M  V30 12 N 3.77083 -0.657966 1.73522 0
M  V30 13 N 3.41569 1.37884 -1.38796 0
M  V30 14 H -4.28475 -0.372942 -1.23088 0
M  V30 15 H -4.66286 0.22227 0.34913 0
M  V30 16 H -2.48069 -0.991091 0.902981 0
M  V30 17 H -0.595801 -0.436079 2.18057 0
M  V30 18 H -0.372469 -1.98155 1.16737 0
M  V30 19 H 0.920068 -1.3141 2.14565 0
M  V30 20 H 3.70365 1.34403 -2.36818 0
M  V30 21 H 4.04863 1.77185 -0.671194 0
M  V30 END ATOM
M  V30 BEGIN BOND
M  V30 1 1 1 2
M  V30 2 1 2 3
M  V30 3 2 3 4
M  V30 4 1 3 5
M  V30 5 1 5 6
M  V30 6 1 6 7
M  V30 7 2 7 8
M  V30 8 1 8 9
M  V30 9 1 9 10
M  V30 10 1 8 11
M  V30 11 3 11 12
M  V30 12 1 7 13
M  V30 13 2 9 5
M  V30 14 1 1 14
M  V30 15 1 1 15
M  V30 16 1 2 16
M  V30 17 1 10 17
M  V30 18 1 10 18
M  V30 19 1 10 19
M  V30 20 1 13 20
M  V30 21 1 13 21
M  V30 END BOND
M  V30 END CTAB
M  END
