
     RDKit          3D

  0  0  0  0  0  0  0  0  0  0999 V3000
M  V30 BEGIN CTAB
M  V30 COUNTS 36 38 0 0 0
M  V30 BEGIN ATOM
M  V30 1 N -1.49851 -1.3446 1.5672 0
M  V30 2 C -0.726776 -0.601251 0.658325 0
M  V30 3 C 0.658532 -0.590048 0.786763 0
M  V30 4 N 1.29632 -1.32103 1.82675 0
M  V30 5 C 1.40009 0.145063 -0.109144 0
M  V30 6 C 0.756231 0.856454 -1.11655 0
M  V30 7 C -0.616498 0.827745 -1.22049 0
M  V30 8 C -1.38667 0.0921748 -0.327295 0
M  V30 9 C -2.84069 0.0980552 -0.490942 0
M  V30 10 C -3.63615 -1.00358 -0.455834 0
M  V30 11 C -5.01435 -0.904641 -0.618567 0
M  V30 12 C -5.62153 0.321606 -0.822057 0
M  V30 13 C -4.8379 1.44396 -0.860877 0
M  V30 14 C -3.472 1.32665 -0.697402 0
M  V30 15 Br -7.51135 0.353055 -1.03359 0
M  V30 16 C 2.86966 0.216746 -0.0598619 0
M  V30 17 C 3.51803 1.44397 -0.162099 0
M  V30 18 C 4.89319 1.47509 -0.11681 0
M  V30 19 C 5.63314 0.326037 0.0263835 0
M  V30 20 C 5.02282 -0.890095 0.128766 0
M  V30 21 C 3.63059 -0.915257 0.0822018 0
M  V30 22 Br 7.54571 0.363343 0.0901084 0
M  V30 23 H -1.57227 -2.37078 1.46005 0
M  V30 24 H -1.99991 -0.882339 2.34969 0
M  V30 25 H 1.38276 -2.3563 1.83933 0
M  V30 26 H 1.70565 -0.777634 2.63303 0
M  V30 27 H 1.35154 1.42343 -1.80487 0
M  V30 28 H -1.14846 1.37763 -2.00272 0
M  V30 29 H -3.16135 -1.97827 -0.29716 0
M  V30 30 H -5.59233 -1.82443 -0.579688 0
M  V30 31 H -5.3045 2.41514 -1.02051 0
M  V30 32 H -2.8408 2.20376 -0.725671 0
M  V30 33 H 2.93478 2.35315 -0.275311 0
M  V30 34 H 5.45291 2.41615 -0.192994 0
M  V30 35 H 5.55974 -1.81834 0.242296 0
M  V30 36 H 3.17034 -1.90062 0.163246 0
M  V30 END ATOM
M  V30 BEGIN BOND
M  V30 1 1 1 2
M  V30 2 2 2 3
M  V30 3 1 3 4
M  V30 4 1 3 5
M  V30 5 2 5 6
M  V30 6 1 6 7
M  V30 7 2 7 8
M  V30 8 1 8 9
M  V30 9 2 9 10
M  V30 10 1 10 11
M  V30 11 2 11 12
M  V30 12 1 12 13
M  V30 13 2 13 14
M  V30 14 1 12 15
M  V30 15 1 5 16
M  V30 16 2 16 17
M  V30 17 1 17 18
M  V30 18 2 18 19
M  V30 19 1 19 20
M  V30 20 2 20 21
M  V30 21 1 19 22
M  V30 22 1 8 2
M  V30 23 1 14 9
M  V30 24 1 21 16
M  V30 25 1 1 23
M  V30 26 1 1 24
M  V30 27 1 4 25
M  V30 28 1 4 26
M  V30 29 1 6 27
M  V30 30 1 7 28
M  V30 31 1 10 29
M  V30 32 1 11 30
M  V30 33 1 13 31
M  V30 34 1 14 32
M  V30 35 1 17 33
M  V30 36 1 18 34
M  V30 37 1 20 35
M  V30 38 1 21 36
M  V30 END BOND
M  V30 END CTAB
M  END
