
     RDKit          3D

  0  0  0  0  0  0  0  0  0  0999 V3000
M  V30 BEGIN CTAB
M  V30 COUNTS 36 37 0 0 0
M  V30 BEGIN ATOM
M  V30 1 N 4.67846 0.416898 1.65274 0
M  V30 2 C 3.63118 0.12177 0.720943 0
M  V30 3 C 2.30267 0.23058 1.05474 0
M  V30 4 C 1.32174 -0.0586223 0.141958 0
M  V30 5 C 1.6825 -0.459902 -1.11479 0
M  V30 6 C 3.01304 -0.56463 -1.43576 0
M  V30 7 C 4.02612 -0.279179 -0.53457 0
M  V30 8 N 5.39191 -0.396019 -0.893351 0
M  V30 9 F 3.39742 -0.965081 -2.68979 0
M  V30 10 B -0.199177 0.0491176 0.47129 0
M  V30 11 O -1.10739 -1.10318 0.280129 0
M  V30 12 C -2.37465 -0.516535 0.461518 0
M  V30 13 C -2.23201 0.773949 -0.272956 0
M  V30 14 O -0.988546 1.23495 0.132389 0
M  V30 15 C -3.32145 1.76661 0.0254075 0
M  V30 16 C -2.23722 0.484809 -1.75623 0
M  V30 17 C -3.37342 -1.46132 -0.158913 0
M  V30 18 C -2.56496 -0.353448 1.94656 0
M  V30 19 H 4.77003 1.40148 1.97681 0
M  V30 20 H 5.33524 -0.302601 2.00821 0
M  V30 21 H 2.03994 0.550861 2.05797 0
M  V30 22 H 0.946463 -0.698309 -1.86688 0
M  V30 23 H 5.64583 -1.07789 -1.63311 0
M  V30 24 H 6.11507 0.165994 -0.44724 0
M  V30 25 H -4.24653 1.46857 -0.492867 0
M  V30 26 H -3.52655 1.90687 1.09034 0
M  V30 27 H -3.01552 2.74218 -0.411156 0
M  V30 28 H -1.58489 -0.395029 -1.93517 0
M  V30 29 H -3.2523 0.206234 -2.05624 0
M  V30 30 H -1.8651 1.37161 -2.32602 0
M  V30 31 H -3.55554 -2.27469 0.571213 0
M  V30 32 H -2.92825 -1.95998 -1.05729 0
M  V30 33 H -4.31319 -0.996924 -0.449326 0
M  V30 34 H -1.63081 0.142138 2.3287 0
M  V30 35 H -3.45094 0.213506 2.22549 0
M  V30 36 H -2.52918 -1.38478 2.38527 0
M  V30 END ATOM
M  V30 BEGIN BOND
M  V30 1 1 1 2
M  V30 2 2 2 3
M  V30 3 1 3 4
M  V30 4 2 4 5
M  V30 5 1 5 6
M  V30 6 2 6 7
M  V30 7 1 7 8
M  V30 8 1 6 9
M  V30 9 1 4 10
M  V30 10 1 10 11
M  V30 11 1 11 12
M  V30 12 1 12 13
M  V30 13 1 13 14
M  V30 14 1 13 15
M  V30 15 1 13 16
M  V30 16 1 12 17
M  V30 17 1 12 18
M  V30 18 1 7 2
M  V30 19 1 14 10
M  V30 20 1 1 19
M  V30 21 1 1 20
M  V30 22 1 3 21
M  V30 23 1 5 22
M  V30 24 1 8 23
M  V30 25 1 8 24
M  V30 26 1 15 25
M  V30 27 1 15 26
M  V30 28 1 15 27
M  V30 29 1 16 28
M  V30 30 1 16 29
M  V30 31 1 16 30
M  V30 32 1 17 31
M  V30 33 1 17 32
M  V30 34 1 17 33
M  V30 35 1 18 34
M  V30 36 1 18 35
M  V30 37 1 18 36
M  V30 END BOND
M  V30 END CTAB
M  END
