
     RDKit          3D

  0  0  0  0  0  0  0  0  0  0999 V3000
M  V30 BEGIN CTAB
M  V30 COUNTS 28 30 0 0 0
M  V30 BEGIN ATOM
M  V30 1 N 4.81701 -0.131019 0.411855 0
M  V30 2 C 3.41349 -0.292889 0.330795 0
M  V30 3 C 2.86346 -1.52868 0.539995 0
M  V30 4 C 1.47816 -1.7073 0.463862 0
M  V30 5 C 0.647323 -0.620628 0.172828 0
M  V30 6 C 1.23681 0.605931 -0.031262 0
M  V30 7 C 2.60261 0.780357 0.0441454 0
M  V30 8 C 0.167921 1.58885 -0.32036 0
M  V30 9 O 0.270386 2.06336 -1.64773 0
M  V30 10 C -1.09599 0.812472 -0.263765 0
M  V30 11 C -0.80312 -0.516473 0.0332556 0
M  V30 12 C -1.79302 -1.47601 0.149828 0
M  V30 13 C -3.09935 -1.06868 -0.0403366 0
M  V30 14 C -3.44035 0.225189 -0.334068 0
M  V30 15 N -4.79674 0.584238 -0.518394 0
M  V30 16 C -2.42447 1.14872 -0.441123 0
M  V30 17 H 5.3815 0.458487 -0.231968 0
M  V30 18 H 5.32926 -0.632627 1.16466 0
M  V30 19 H 3.46603 -2.41245 0.770721 0
M  V30 20 H 1.05164 -2.68825 0.630732 0
M  V30 21 H 3.02501 1.77869 -0.126642 0
M  V30 22 H 0.178203 2.42765 0.401256 0
M  V30 23 H 0.255778 1.25833 -2.2243 0
M  V30 24 H -1.56397 -2.50335 0.379655 0
M  V30 25 H -3.88203 -1.80523 0.0472869 0
M  V30 26 H -5.2043 1.39891 -0.00984145 0
M  V30 27 H -5.4527 0.0664344 -1.15922 0
M  V30 28 H -2.62857 2.18595 -0.670951 0
M  V30 END ATOM
M  V30 BEGIN BOND
M  V30 1 1 1 2
M  V30 2 2 2 3
M  V30 3 1 3 4
M  V30 4 2 4 5
M  V30 5 1 5 6
M  V30 6 2 6 7
M  V30 7 1 6 8
M  V30 8 1 8 9
M  V30 9 1 8 10
M  V30 10 2 10 11
M  V30 11 1 11 12
M  V30 12 2 12 13
M  V30 13 1 13 14
M  V30 14 1 14 15
M  V30 15 2 14 16
M  V30 16 1 7 2
M  V30 17 1 16 10
M  V30 18 1 11 5
M  V30 19 1 1 17
M  V30 20 1 1 18
M  V30 21 1 3 19
M  V30 22 1 4 20
M  V30 23 1 7 21
M  V30 24 1 8 22
M  V30 25 1 9 23
M  V30 26 1 12 24
M  V30 27 1 13 25
M  V30 28 1 15 26
M  V30 29 1 15 27
M  V30 30 1 16 28
M  V30 END BOND
M  V30 END CTAB
M  END
