
     RDKit          3D

  0  0  0  0  0  0  0  0  0  0999 V3000
M  V30 BEGIN CTAB
M  V30 COUNTS 17 17 0 0 0
M  V30 BEGIN ATOM
M  V30 1 N -2.29334 -2.91377 -0.335186 0
M  V30 2 C -1.58334 -2.01045 -0.233595 0
M  V30 3 C -0.676824 -0.892144 -0.105468 0
M  V30 4 C 0.691512 -1.04534 -0.193351 0
M  V30 5 C 1.5438 0.0307394 -0.0690997 0
M  V30 6 N 2.96723 -0.127053 -0.16028 0
M  V30 7 C 0.966096 1.2644 0.146608 0
M  V30 8 C -0.401766 1.4241 0.235467 0
M  V30 9 C -1.25537 0.34175 0.110321 0
M  V30 10 N -2.65978 0.496758 0.200185 0
M  V30 11 F 1.78693 2.33611 0.271659 0
M  V30 12 H 1.12536 -2.02169 -0.362985 0
M  V30 13 H 3.55792 -0.260087 0.700479 0
M  V30 14 H 3.48235 -0.118831 -1.06203 0
M  V30 15 H -0.842488 2.41184 0.407122 0
M  V30 16 H -3.11829 1.27831 0.712359 0
M  V30 17 H -3.29001 -0.194641 -0.262205 0
M  V30 END ATOM
M  V30 BEGIN BOND
M  V30 1 3 1 2
M  V30 2 1 2 3
M  V30 3 2 3 4
M  V30 4 1 4 5
M  V30 5 1 5 6
M  V30 6 2 5 7
M  V30 7 1 7 8
M  V30 8 2 8 9
M  V30 9 1 9 10
M  V30 10 1 7 11
M  V30 11 1 9 3
M  V30 12 1 4 12
M  V30 13 1 6 13
M  V30 14 1 6 14
M  V30 15 1 8 15
M  V30 16 1 10 16
M  V30 17 1 10 17
M  V30 END BOND
M  V30 END CTAB
M  END
