
     RDKit          3D

  0  0  0  0  0  0  0  0  0  0999 V3000
M  V30 BEGIN CTAB
M  V30 COUNTS 40 42 0 0 0
M  V30 BEGIN ATOM
M  V30 1 N -5.5021 -1.86377 0.205104 0
M  V30 2 C -4.8408 -0.711881 -0.257906 0
M  V30 3 C -5.34841 0.555128 -0.135525 0
M  V30 4 C -4.66546 1.65087 -0.616423 0
M  V30 5 N -5.22374 2.9684 -0.451089 0
M  V30 6 N -3.47962 1.50218 -1.22027 0
M  V30 7 C -2.98125 0.233947 -1.33716 0
M  V30 8 N -3.62567 -0.833635 -0.879074 0
M  V30 9 S -1.38567 0.0808067 -2.14434 0
M  V30 10 C -0.0758138 0.261213 -0.894373 0
M  V30 11 C 0.921924 -0.807939 -0.961766 0
M  V30 12 O 0.802189 -1.67771 -1.89042 0
M  V30 13 C 2.0417 -0.898209 0.00140347 0
M  V30 14 C 2.03822 -1.58884 1.2055 0
M  V30 15 C 0.872134 -2.37871 1.7058 0
M  V30 16 N 3.20648 -1.44817 1.83602 0
M  V30 17 C 4.00184 -0.669067 1.0718 0
M  V30 18 C 3.29066 -0.314139 -0.0848562 0
M  V30 19 C 3.87267 0.483932 -1.02807 0
M  V30 20 C 5.15068 0.938945 -0.840614 0
M  V30 21 C 5.85315 0.587155 0.306311 0
M  V30 22 C 5.28731 -0.218956 1.27201 0
M  V30 23 C 0.457917 1.67069 -1.02317 0
M  V30 24 H -5.33867 -2.18545 1.17585 0
M  V30 25 H -6.14415 -2.37455 -0.424688 0
M  V30 26 H -6.30589 0.715215 0.356986 0
M  V30 27 H -5.64655 3.19965 0.449681 0
M  V30 28 H -5.1662 3.62244 -1.25474 0
M  V30 29 H -0.579492 0.218761 0.134628 0
M  V30 30 H 1.14321 -3.45997 1.76642 0
M  V30 31 H -0.000754542 -2.27019 1.06279 0
M  V30 32 H 0.626574 -2.04194 2.72001 0
M  V30 33 H 3.49361 -1.85608 2.75688 0
M  V30 34 H 3.29427 0.7337 -1.92604 0
M  V30 35 H 5.57345 1.56977 -1.60102 0
M  V30 36 H 6.84569 0.93212 0.478715 0
M  V30 37 H 5.87816 -0.473236 2.16438 0
M  V30 38 H 0.930215 2.04748 -0.0906422 0
M  V30 39 H -0.399107 2.39116 -1.21045 0
M  V30 40 H 1.12731 1.70889 -1.90587 0
M  V30 END ATOM
M  V30 BEGIN BOND
M  V30 1 1 1 2
M  V30 2 2 2 3
M  V30 3 1 3 4
M  V30 4 1 4 5
M  V30 5 2 4 6
M  V30 6 1 6 7
M  V30 7 2 7 8
M  V30 8 1 7 9
M  V30 9 1 9 10
M  V30 10 1 10 11
M  V30 11 2 11 12
M  V30 12 1 11 13
M  V30 13 2 13 14
M  V30 14 1 14 15
M  V30 15 1 14 16
M  V30 16 1 16 17
M  V30 17 2 17 18
M  V30 18 1 18 19
M  V30 19 2 19 20
M  V30 20 1 20 21
M  V30 21 2 21 22
M  V30 22 1 10 23
M  V30 23 1 8 2
M  V30 24 1 18 13
M  V30 25 1 22 17
M  V30 26 1 1 24
M  V30 27 1 1 25
M  V30 28 1 3 26
M  V30 29 1 5 27
M  V30 30 1 5 28
M  V30 31 1 10 29
M  V30 32 1 15 30
M  V30 33 1 15 31
M  V30 34 1 15 32
M  V30 35 1 16 33
M  V30 36 1 19 34
M  V30 37 1 20 35
M  V30 38 1 21 36
M  V30 39 1 22 37
M  V30 40 1 23 38
M  V30 41 1 23 39
M  V30 42 1 23 40
M  V30 END BOND
M  V30 END CTAB
M  END
