
     RDKit          3D

  0  0  0  0  0  0  0  0  0  0999 V3000
M  V30 BEGIN CTAB
M  V30 COUNTS 33 32 0 0 0
M  V30 BEGIN ATOM
M  V30 1 C 1.8767 0.334456 1.46496 0
M  V30 2 C 1.58903 -0.236518 0.0912993 0
M  V30 3 C 2.74968 0.22762 -0.80328 0
M  V30 4 C 1.62379 -1.72859 0.174793 0
M  V30 5 Si 0.0533649 0.446184 -0.657451 0 VAL=4
M  V30 6 N 0.182604 2.22847 -0.698479 0
M  V30 7 N -0.032166 -0.112761 -2.36471 0
M  V30 8 C -1.49718 -0.0205166 0.196043 0
M  V30 9 C -2.55245 1.04679 -0.125958 0
M  V30 10 C -1.37742 -0.0603556 1.70574 0
M  V30 11 C -2.07918 -1.3358 -0.262017 0
M  V30 12 H 1.35235 -0.267918 2.21685 0
M  V30 13 H 2.97929 0.156956 1.63566 0
M  V30 14 H 1.65613 1.41034 1.50572 0
M  V30 15 H 3.71497 -0.106805 -0.394758 0
M  V30 16 H 2.59012 -0.0719891 -1.84836 0
M  V30 17 H 2.69521 1.34857 -0.790454 0
M  V30 18 H 0.653891 -2.2028 0.308773 0
M  V30 19 H 2.26509 -2.0603 1.03255 0
M  V30 20 H 2.11785 -2.10804 -0.761765 0
M  V30 21 H -0.543452 2.60589 -1.35585 0
M  V30 22 H 0.095885 2.66114 0.228296 0
M  V30 23 H -0.0838761 -1.15618 -2.32614 0
M  V30 24 H -0.840277 0.336294 -2.82353 0
M  V30 25 H -2.39754 1.38171 -1.19146 0
M  V30 26 H -2.29051 1.92812 0.496316 0
M  V30 27 H -3.56185 0.661813 0.0379224 0
M  V30 28 H -0.917349 0.841334 2.12369 0
M  V30 29 H -0.925204 -1.00468 2.03603 0
M  V30 30 H -2.43684 -0.0804253 2.09212 0
M  V30 31 H -1.73883 -2.11003 0.47117 0
M  V30 32 H -3.17888 -1.29718 -0.165808 0
M  V30 33 H -1.74294 -1.65482 -1.24791 0
M  V30 END ATOM
M  V30 BEGIN BOND
M  V30 1 1 1 2
M  V30 2 1 2 3
M  V30 3 1 2 4
M  V30 4 1 2 5
M  V30 5 1 5 6
M  V30 6 1 5 7
M  V30 7 1 5 8
M  V30 8 1 8 9
M  V30 9 1 8 10
M  V30 10 1 8 11
M  V30 11 1 1 12
M  V30 12 1 1 13
M  V30 13 1 1 14
M  V30 14 1 3 15
M  V30 15 1 3 16
M  V30 16 1 3 17
M  V30 17 1 4 18
M  V30 18 1 4 19
M  V30 19 1 4 20
M  V30 20 1 6 21
M  V30 21 1 6 22
M  V30 22 1 7 23
M  V30 23 1 7 24
M  V30 24 1 9 25
M  V30 25 1 9 26
M  V30 26 1 9 27
M  V30 27 1 10 28
M  V30 28 1 10 29
M  V30 29 1 10 30
M  V30 30 1 11 31
M  V30 31 1 11 32
M  V30 32 1 11 33
M  V30 END BOND
M  V30 END CTAB
M  END
