
     RDKit          3D

  0  0  0  0  0  0  0  0  0  0999 V3000
M  V30 BEGIN CTAB
M  V30 COUNTS 19 19 0 0 0
M  V30 BEGIN ATOM
M  V30 1 N -1.50285 2.40727 0.0139482 0
M  V30 2 C -0.87319 1.13563 0.0325531 0
M  V30 3 C 0.501434 1.08428 -0.0123259 0
M  V30 4 I 1.5826 2.8859 -0.105379 0
M  V30 5 C 1.16507 -0.138022 0.00357669 0
M  V30 6 C 2.60783 -0.168427 -0.0442495 0
M  V30 7 O 3.32042 1.00492 -0.105163 0
M  V30 8 O 3.21027 -1.25848 -0.030415 0
M  V30 9 C 0.384071 -1.27385 0.0656248 0
M  V30 10 I 1.35497 -3.13179 0.0910969 0
M  V30 11 C -0.992945 -1.2669 0.111975 0
M  V30 12 N -1.76167 -2.44117 0.174799 0
M  V30 13 C -1.618 -0.0460839 0.0948143 0
M  V30 14 I -3.71009 0.0760328 0.161738 0
M  V30 15 H -1.31376 3.08123 -0.751019 0
M  V30 16 H -2.15595 2.64484 0.783847 0
M  V30 17 H 3.95364 1.2599 -0.851503 0
M  V30 18 H -1.94417 -3.04235 -0.683109 0
M  V30 19 H -2.20765 -2.81291 1.04919 0
M  V30 END ATOM
M  V30 BEGIN BOND
M  V30 1 1 1 2
M  V30 2 2 2 3
M  V30 3 1 3 4
M  V30 4 1 3 5
M  V30 5 1 5 6
M  V30 6 1 6 7
M  V30 7 2 6 8
M  V30 8 2 5 9
M  V30 9 1 9 10
M  V30 10 1 9 11
M  V30 11 1 11 12
M  V30 12 2 11 13
M  V30 13 1 13 14
M  V30 14 1 13 2
M  V30 15 1 1 15
M  V30 16 1 1 16
M  V30 17 1 7 17
M  V30 18 1 12 18
M  V30 19 1 12 19
M  V30 END BOND
M  V30 END CTAB
M  END
