
     RDKit          3D

  0  0  0  0  0  0  0  0  0  0999 V3000
M  V30 BEGIN CTAB
M  V30 COUNTS 36 35 0 0 0
M  V30 BEGIN ATOM
M  V30 1 N -5.55017 0.977444 -0.3374 0
M  V30 2 C -5.36085 -0.422696 -0.304507 0
M  V30 3 N -5.95582 -1.12166 -1.19883 0
M  V30 4 N -4.53879 -0.999328 0.6911 0
M  V30 5 C -3.0958 -0.999774 0.622299 0
M  V30 6 C -2.57233 0.39552 0.81198 0
M  V30 7 C -1.04911 0.400686 0.773877 0
M  V30 8 N -0.492877 -0.0165909 -0.460327 0
M  V30 9 C 0.871429 -0.355671 -0.447474 0
M  V30 10 C 1.8759 0.739873 -0.17907 0
M  V30 11 C 3.22158 0.0361576 -0.200354 0
M  V30 12 N 4.34957 0.854252 0.0675934 0
M  V30 13 C 5.61852 0.176483 0.10493 0
M  V30 14 N 6.75799 0.739794 -0.521696 0
M  V30 15 N 5.79134 -0.951763 0.694539 0
M  V30 16 H -6.08587 1.40644 0.443663 0
M  V30 17 H -5.14965 1.5235 -1.13672 0
M  V30 18 H -5.8102 -2.16191 -1.16675 0
M  V30 19 H -5.0355 -1.44758 1.51479 0
M  V30 20 H -2.85521 -1.40799 -0.406182 0
M  V30 21 H -2.69115 -1.67585 1.43131 0
M  V30 22 H -2.99788 1.04621 0.0507513 0
M  V30 23 H -2.87402 0.748526 1.81341 0
M  V30 24 H -0.768605 1.47467 0.939688 0
M  V30 25 H -0.669213 -0.169493 1.63816 0
M  V30 26 H -1.03957 -0.756854 -0.94836 0
M  V30 27 H 1.1994 -0.803874 -1.44053 0
M  V30 28 H 1.12325 -1.17292 0.292277 0
M  V30 29 H 1.75517 1.18389 0.847025 0
M  V30 30 H 1.85168 1.57037 -0.894053 0
M  V30 31 H 3.29617 -0.401295 -1.24723 0
M  V30 32 H 3.12066 -0.815844 0.498566 0
M  V30 33 H 4.35569 1.87683 0.238978 0
M  V30 34 H 6.86853 0.892234 -1.5501 0
M  V30 35 H 7.56203 1.0327 0.0801347 0
M  V30 36 H 4.97369 -1.39448 1.16649 0
M  V30 END ATOM
M  V30 BEGIN BOND
M  V30 1 1 1 2
M  V30 2 2 2 3 CFG=2
M  V30 3 1 2 4
M  V30 4 1 4 5
M  V30 5 1 5 6
M  V30 6 1 6 7
M  V30 7 1 7 8
M  V30 8 1 8 9
M  V30 9 1 9 10
M  V30 10 1 10 11
M  V30 11 1 11 12
M  V30 12 1 12 13
M  V30 13 1 13 14
M  V30 14 2 13 15 CFG=2
M  V30 15 1 1 16
M  V30 16 1 1 17
M  V30 17 1 3 18
M  V30 18 1 4 19
M  V30 19 1 5 20
M  V30 20 1 5 21
M  V30 21 1 6 22
M  V30 22 1 6 23
M  V30 23 1 7 24
M  V30 24 1 7 25
M  V30 25 1 8 26
M  V30 26 1 9 27
M  V30 27 1 9 28
M  V30 28 1 10 29
M  V30 29 1 10 30
M  V30 30 1 11 31
M  V30 31 1 11 32
M  V30 32 1 12 33
M  V30 33 1 14 34
M  V30 34 1 14 35
M  V30 35 1 15 36
M  V30 END BOND
M  V30 END CTAB
M  END
