
     RDKit          3D

  0  0  0  0  0  0  0  0  0  0999 V3000
M  V30 BEGIN CTAB
M  V30 COUNTS 60 63 0 0 0
M  V30 BEGIN ATOM
M  V30 1 C -4.80042 2.45694 0.212429 0
M  V30 2 C -3.73985 1.78581 1.07685 0
M  V30 3 C -2.846 2.57964 1.75853 0
M  V30 4 S -1.84929 1.46109 2.55494 0
M  V30 5 C -2.57172 0.0166734 2.01927 0
M  V30 6 C -3.59136 0.447142 1.21749 0
M  V30 7 C -4.51888 -0.55645 0.639021 0
M  V30 8 C -4.11835 -1.53968 -0.228989 0
M  V30 9 C -5.06194 -2.47945 -0.595358 0
M  V30 10 C -6.37151 -2.40825 -0.0897582 0
M  V30 11 C -6.77286 -1.42183 0.777036 0
M  V30 12 C -5.82116 -0.498454 1.13106 0
M  V30 13 C -2.77027 -1.56214 -0.787468 0
M  V30 14 O -2.52112 -0.396757 -1.55331 0
M  V30 15 C -1.39229 0.337075 -1.6313 0
M  V30 16 C -0.233549 0.0635877 -0.944702 0
M  V30 17 C 0.848109 0.885085 -1.11107 0
M  V30 18 N 0.741419 1.93733 -1.94311 0
M  V30 19 C -0.366535 2.23432 -2.62547 0
M  V30 20 N -0.418867 3.3733 -3.50147 0
M  V30 21 N -1.41804 1.43086 -2.46084 0
M  V30 22 C 2.12306 0.652992 -0.411852 0
M  V30 23 C 2.33854 -0.390382 0.445904 0
M  V30 24 C 3.57968 -0.555427 1.07844 0
M  V30 25 C 4.62962 0.308837 0.87321 0
M  V30 26 C 5.94103 0.0919487 1.56003 0
M  V30 27 C 6.87653 -0.758115 0.72418 0 CFG=2
M  V30 28 N 6.2348 -2.02393 0.502671 0
M  V30 29 C 8.07892 -0.977792 1.56157 0
M  V30 30 O 8.91383 0.0493529 1.97288 0
M  V30 31 O 8.36285 -2.14167 1.92043 0
M  V30 32 C 4.4109 1.36217 0.00781019 0
M  V30 33 C 3.19004 1.52566 -0.615224 0
M  V30 34 C -2.48792 -2.77841 -1.66566 0
M  V30 35 F -3.27149 -2.88784 -2.76099 0
M  V30 36 F -1.15493 -2.74963 -2.10232 0
M  V30 37 F -2.57659 -3.90983 -0.889335 0
M  V30 38 H -4.28448 2.69919 -0.763829 0
M  V30 39 H -5.61431 1.79122 -0.0210515 0
M  V30 40 H -5.08039 3.41782 0.635399 0
M  V30 41 H -2.81647 3.68885 1.76202 0
M  V30 42 H -2.2871 -1.02758 2.26756 0
M  V30 43 H -4.86206 -3.29259 -1.25108 0
M  V30 44 H -7.08122 -3.16373 -0.40112 0
M  V30 45 H -7.78587 -1.38836 1.1516 0
M  V30 46 H -6.10396 0.303845 1.81993 0
M  V30 47 H -2.01484 -1.61481 0.00319572 0
M  V30 48 H -0.180625 -0.802623 -0.256905 0
M  V30 49 H -1.19353 4.05854 -3.5052 0
M  V30 50 H 0.364132 3.50615 -4.16119 0
M  V30 51 H 1.54616 -1.09986 0.64288 0
M  V30 52 H 3.72485 -1.38257 1.74924 0
M  V30 53 H 5.7614 -0.464837 2.50568 0
M  V30 54 H 6.45159 1.02167 1.81113 0
M  V30 55 H 7.19891 -0.232423 -0.196298 0
M  V30 56 H 5.50598 -1.98611 -0.21449 0
M  V30 57 H 5.89282 -2.34312 1.44218 0
M  V30 58 H 9.00422 0.923809 1.47882 0
M  V30 59 H 5.23671 2.0592 -0.16524 0
M  V30 60 H 3.0237 2.36456 -1.30029 0
M  V30 END ATOM
M  V30 BEGIN BOND
M  V30 1 1 1 2
M  V30 2 2 2 3
M  V30 3 1 3 4
M  V30 4 1 4 5
M  V30 5 2 5 6
M  V30 6 1 6 7
M  V30 7 1 7 8
M  V30 8 2 8 9
M  V30 9 1 9 10
M  V30 10 2 10 11
M  V30 11 1 11 12
M  V30 12 1 8 13
M  V30 13 1 13 14
M  V30 14 1 14 15
M  V30 15 2 15 16
M  V30 16 1 16 17
M  V30 17 2 17 18
M  V30 18 1 18 19
M  V30 19 1 19 20
M  V30 20 2 19 21
M  V30 21 1 17 22
M  V30 22 2 22 23
M  V30 23 1 23 24
M  V30 24 2 24 25
M  V30 25 1 25 26
M  V30 26 1 26 27
M  V30 27 1 27 28
M  V30 28 1 27 29
M  V30 29 1 29 30
M  V30 30 2 29 31
M  V30 31 1 25 32
M  V30 32 2 32 33
M  V30 33 1 13 34
M  V30 34 1 34 35
M  V30 35 1 34 36
M  V30 36 1 34 37
M  V30 37 1 6 2
M  V30 38 2 12 7
M  V30 39 1 21 15
M  V30 40 1 33 22
M  V30 41 1 1 38
M  V30 42 1 1 39
M  V30 43 1 1 40
M  V30 44 1 3 41
M  V30 45 1 5 42
M  V30 46 1 9 43
M  V30 47 1 10 44
M  V30 48 1 11 45
M  V30 49 1 12 46
M  V30 50 1 13 47
M  V30 51 1 16 48
M  V30 52 1 20 49
M  V30 53 1 20 50
M  V30 54 1 23 51
M  V30 55 1 24 52
M  V30 56 1 26 53
M  V30 57 1 26 54
M  V30 58 1 27 55 CFG=3
M  V30 59 1 28 56
M  V30 60 1 28 57
M  V30 61 1 30 58
M  V30 62 1 32 59
M  V30 63 1 33 60
M  V30 END BOND
M  V30 END CTAB
M  END
