
     RDKit          3D

  0  0  0  0  0  0  0  0  0  0999 V3000
M  V30 BEGIN CTAB
M  V30 COUNTS 52 55 0 0 0
M  V30 BEGIN ATOM
M  V30 1 N -1.87948 1.45683 -2.91823 0
M  V30 2 C -1.98615 1.27536 -1.50788 0
M  V30 3 N -1.01134 1.66685 -0.655474 0
M  V30 4 C -1.12234 1.49182 0.668011 0
M  V30 5 C -0.0105787 1.94211 1.59472 0
M  V30 6 S 1.14067 0.52601 1.76932 0
M  V30 7 C 1.89452 0.259351 0.158642 0
M  V30 8 N 1.45385 -0.518194 -0.825295 0
M  V30 9 N 2.29176 -0.436821 -1.83752 0
M  V30 10 C 3.29185 0.394623 -1.53017 0
M  V30 11 N 3.03763 0.830477 -0.273002 0
M  V30 12 N 3.77796 1.71503 0.497595 0
M  V30 13 C 4.45844 0.803635 -2.35067 0
M  V30 14 O 5.57564 0.953916 -1.54312 0
M  V30 15 C 6.19935 0.021901 -0.766004 0
M  V30 16 C 5.82606 -1.28954 -0.633434 0
M  V30 17 C 6.52334 -2.14789 0.176981 0
M  V30 18 C 7.61793 -1.7015 0.8753 0
M  V30 19 C 8.00207 -0.388444 0.750407 0
M  V30 20 C 7.31741 0.468728 -0.0498021 0
M  V30 21 Cl 8.50402 -2.81087 1.91091 0
M  V30 22 N -2.22104 0.917499 1.15678 0
M  V30 23 C -3.25948 0.491454 0.347299 0
M  V30 24 N -3.05341 0.708856 -0.939362 0
M  V30 25 N -4.38625 -0.104507 0.954887 0
M  V30 26 C -5.52039 -0.595395 0.322753 0
M  V30 27 C -5.70743 -0.582993 -1.03039 0
M  V30 28 C -6.87734 -1.10187 -1.5712 0
M  V30 29 C -7.85463 -1.62928 -0.774672 0
M  V30 30 C -7.6413 -1.63018 0.593097 0
M  V30 31 C -6.51922 -1.13668 1.1672 0
M  V30 32 C -6.37217 -1.17546 2.62714 0
M  V30 33 H -1.32222 0.776634 -3.48962 0
M  V30 34 H -2.33116 2.2362 -3.40727 0
M  V30 35 H 0.495728 2.83302 1.20345 0
M  V30 36 H -0.436268 2.11596 2.58835 0
M  V30 37 H 4.26912 1.36402 1.33461 0
M  V30 38 H 3.82417 2.70997 0.219262 0
M  V30 39 H 4.21968 1.78006 -2.83821 0
M  V30 40 H 4.6587 0.0846136 -3.17184 0
M  V30 41 H 4.97591 -1.6633 -1.16991 0
M  V30 42 H 6.23031 -3.20155 0.288824 0
M  V30 43 H 8.85812 -0.0328779 1.29429 0
M  V30 44 H 7.64143 1.48321 -0.125218 0
M  V30 45 H -4.32266 -0.16832 2.02916 0
M  V30 46 H -5.00821 -0.196305 -1.73604 0
M  V30 47 H -7.03797 -1.09842 -2.64034 0
M  V30 48 H -8.76489 -2.03383 -1.18537 0
M  V30 49 H -8.43208 -2.05336 1.19459 0
M  V30 50 H -7.31426 -1.45894 3.10161 0
M  V30 51 H -5.6092 -1.95827 2.89296 0
M  V30 52 H -6.08421 -0.193349 3.05733 0
M  V30 END ATOM
M  V30 BEGIN BOND
M  V30 1 1 1 2
M  V30 2 2 2 3
M  V30 3 1 3 4
M  V30 4 1 4 5
M  V30 5 1 5 6
M  V30 6 1 6 7
M  V30 7 2 7 8
M  V30 8 1 8 9
M  V30 9 2 9 10
M  V30 10 1 10 11
M  V30 11 1 11 12
M  V30 12 1 10 13
M  V30 13 1 13 14
M  V30 14 1 14 15
M  V30 15 2 15 16
M  V30 16 1 16 17
M  V30 17 2 17 18
M  V30 18 1 18 19
M  V30 19 2 19 20
M  V30 20 1 18 21
M  V30 21 2 4 22
M  V30 22 1 22 23
M  V30 23 2 23 24
M  V30 24 1 23 25
M  V30 25 1 25 26
M  V30 26 2 26 27
M  V30 27 1 27 28
M  V30 28 2 28 29
M  V30 29 1 29 30
M  V30 30 2 30 31
M  V30 31 1 31 32
M  V30 32 1 24 2
M  V30 33 1 31 26
M  V30 34 1 11 7
M  V30 35 1 20 15
M  V30 36 1 1 33
M  V30 37 1 1 34
M  V30 38 1 5 35
M  V30 39 1 5 36
M  V30 40 1 12 37
M  V30 41 1 12 38
M  V30 42 1 13 39
M  V30 43 1 13 40
M  V30 44 1 16 41
M  V30 45 1 17 42
M  V30 46 1 19 43
M  V30 47 1 20 44
M  V30 48 1 25 45
M  V30 49 1 27 46
M  V30 50 1 28 47
M  V30 51 1 29 48
M  V30 52 1 30 49
M  V30 53 1 32 50
M  V30 54 1 32 51
M  V30 55 1 32 52
M  V30 END BOND
M  V30 END CTAB
M  END
