
     RDKit          3D

  0  0  0  0  0  0  0  0  0  0999 V3000
M  V30 BEGIN CTAB
M  V30 COUNTS 29 28 0 0 0
M  V30 BEGIN ATOM
M  V30 1 C 5.15255 0.0418843 0.416334 0
M  V30 2 N 3.79031 0.482851 0.572692 0
M  V30 3 C 2.94275 0.286607 -0.391902 0
M  V30 4 N 3.39696 -0.356186 -1.56265 0
M  V30 5 N 1.58608 0.699641 -0.295237 0
M  V30 6 C 0.579769 -0.322143 -0.0874159 0
M  V30 7 C -0.763623 0.361199 -0.0198597 0
M  V30 8 C -1.89496 -0.61125 0.195708 0
M  V30 9 C -3.17816 0.231882 0.240681 0 CFG=2
M  V30 10 N -3.13304 1.18702 1.30624 0
M  V30 11 C -4.35774 -0.663882 0.421744 0
M  V30 12 O -4.64314 -1.68452 -0.470885 0
M  V30 13 O -5.12528 -0.512613 1.39471 0
M  V30 14 H 5.21638 -1.03511 0.635201 0
M  V30 15 H 5.83182 0.566926 1.12272 0
M  V30 16 H 5.49612 0.223843 -0.636038 0
M  V30 17 H 4.13547 0.041229 -2.18893 0
M  V30 18 H 2.9714 -1.27745 -1.81467 0
M  V30 19 H 1.38906 1.71846 -0.379461 0
M  V30 20 H 0.596593 -0.97024 -1.00951 0
M  V30 21 H 0.794475 -0.938895 0.787644 0
M  V30 22 H -0.743473 1.03559 0.864172 0
M  V30 23 H -0.950345 0.89468 -0.959598 0
M  V30 24 H -1.77074 -1.11206 1.17236 0
M  V30 25 H -1.96992 -1.38369 -0.584487 0
M  V30 26 H -3.31592 0.786001 -0.706094 0
M  V30 27 H -3.34696 0.77808 2.2213 0
M  V30 28 H -3.71191 2.02036 1.14781 0
M  V30 29 H -4.97453 -1.43667 -1.39259 0
M  V30 END ATOM
M  V30 BEGIN BOND
M  V30 1 1 1 2
M  V30 2 2 2 3
M  V30 3 1 3 4
M  V30 4 1 3 5
M  V30 5 1 5 6
M  V30 6 1 6 7
M  V30 7 1 7 8
M  V30 8 1 8 9
M  V30 9 1 9 10
M  V30 10 1 9 11
M  V30 11 1 11 12
M  V30 12 2 11 13
M  V30 13 1 1 14
M  V30 14 1 1 15
M  V30 15 1 1 16
M  V30 16 1 4 17
M  V30 17 1 4 18
M  V30 18 1 5 19
M  V30 19 1 6 20
M  V30 20 1 6 21
M  V30 21 1 7 22
M  V30 22 1 7 23
M  V30 23 1 8 24
M  V30 24 1 8 25
M  V30 25 1 9 26 CFG=3
M  V30 26 1 10 27
M  V30 27 1 10 28
M  V30 28 1 12 29
M  V30 END BOND
M  V30 END CTAB
M  END
