
     RDKit          3D

  0  0  0  0  0  0  0  0  0  0999 V3000
M  V30 BEGIN CTAB
M  V30 COUNTS 29 30 0 0 0
M  V30 BEGIN ATOM
M  V30 1 C 3.04457 -1.33336 -0.46136 0
M  V30 2 C 2.7917 -0.285083 0.604842 0
M  V30 3 C 2.80825 1.10908 0.0564198 0
M  V30 4 C 1.4602 1.23181 -0.589097 0
M  V30 5 N 0.612374 0.32534 0.157862 0
M  V30 6 C 1.37334 -0.443648 1.08963 0
M  V30 7 C -0.797201 0.235989 -0.0355631 0
M  V30 8 C -1.53202 -0.655114 0.718535 0
M  V30 9 C -2.89334 -0.751093 0.541541 0
M  V30 10 N -3.70422 -1.64513 1.2832 0
M  V30 11 N -3.43952 0.0724109 -0.402101 0
M  V30 12 C -2.73467 0.927551 -1.12583 0
M  V30 13 N -1.40928 1.02324 -0.955774 0
M  V30 14 N -3.3809 1.76696 -2.10576 0
M  V30 15 H 4.06346 -1.24189 -0.897948 0
M  V30 16 H 2.23623 -1.3099 -1.19151 0
M  V30 17 H 2.99964 -2.32354 0.0770706 0
M  V30 18 H 3.5153 -0.360721 1.4379 0
M  V30 19 H 2.87603 1.81938 0.892414 0
M  V30 20 H 3.59539 1.27126 -0.71476 0
M  V30 21 H 1.11186 2.28141 -0.459391 0
M  V30 22 H 1.44258 0.991436 -1.65647 0
M  V30 23 H 1.03035 -1.50125 1.01308 0
M  V30 24 H 1.24044 -0.14027 2.14091 0
M  V30 25 H -1.07176 -1.28763 1.45153 0
M  V30 26 H -3.58691 -1.73627 2.2983 0
M  V30 27 H -4.41468 -2.20314 0.785948 0
M  V30 28 H -2.91647 2.63485 -2.45033 0
M  V30 29 H -4.32073 1.52733 -2.48974 0
M  V30 END ATOM
M  V30 BEGIN BOND
M  V30 1 1 1 2
M  V30 2 1 2 3
M  V30 3 1 3 4
M  V30 4 1 4 5
M  V30 5 1 5 6
M  V30 6 1 5 7
M  V30 7 2 7 8
M  V30 8 1 8 9
M  V30 9 1 9 10
M  V30 10 2 9 11
M  V30 11 1 11 12
M  V30 12 2 12 13
M  V30 13 1 12 14
M  V30 14 1 6 2
M  V30 15 1 13 7
M  V30 16 1 1 15
M  V30 17 1 1 16
M  V30 18 1 1 17
M  V30 19 1 2 18
M  V30 20 1 3 19
M  V30 21 1 3 20
M  V30 22 1 4 21
M  V30 23 1 4 22
M  V30 24 1 6 23
M  V30 25 1 6 24
M  V30 26 1 8 25
M  V30 27 1 10 26
M  V30 28 1 10 27
M  V30 29 1 14 28
M  V30 30 1 14 29
M  V30 END BOND
M  V30 END CTAB
M  END
