
     RDKit          3D

  0  0  0  0  0  0  0  0  0  0999 V3000
M  V30 BEGIN CTAB
M  V30 COUNTS 29 28 0 0 0
M  V30 BEGIN ATOM
M  V30 1 N -3.09216 -1.00149 -0.29977 0
M  V30 2 C -2.53976 0.294795 -0.37441 0 CFG=2
M  V30 3 C -1.54008 0.492581 0.721296 0
M  V30 4 C -0.424448 -0.507752 0.6252 0
M  V30 5 C 0.270653 -0.332003 -0.700832 0
M  V30 6 C 1.42974 -1.30203 -0.847469 0
M  V30 7 N 2.40809 -1.11208 0.189515 0
M  V30 8 C 3.22596 0.0411 0.295212 0
M  V30 9 N 4.64354 -0.0962709 0.261412 0
M  V30 10 N 2.75679 1.22531 0.425918 0
M  V30 11 C -3.59789 1.34352 -0.179866 0
M  V30 12 O -3.22226 2.66314 -0.194638 0
M  V30 13 O -4.79108 1.03664 -0.00758608 0
M  V30 14 H -2.68418 -1.75063 -0.793166 0
M  V30 15 H -3.96959 -1.04867 0.147508 0
M  V30 16 H -2.06718 0.513763 -1.35932 0
M  V30 17 H -1.13457 1.53842 0.656871 0
M  V30 18 H -2.01828 0.40823 1.7183 0
M  V30 19 H 0.314661 -0.341757 1.4358 0
M  V30 20 H -0.788836 -1.55562 0.661334 0
M  V30 21 H -0.42723 -0.57811 -1.54944 0
M  V30 22 H 0.550451 0.722239 -0.811035 0
M  V30 23 H 1.859 -1.21534 -1.86635 0
M  V30 24 H 0.997231 -2.31924 -0.777809 0
M  V30 25 H 2.53371 -1.87257 0.924691 0
M  V30 26 H 5.13062 0.0866977 1.1897 0
M  V30 27 H 5.15063 -0.351584 -0.59403 0
M  V30 28 H 3.31276 2.07905 0.504747 0
M  V30 29 H -2.2863 2.93969 -0.407439 0
M  V30 END ATOM
M  V30 BEGIN BOND
M  V30 1 1 1 2
M  V30 2 1 2 3
M  V30 3 1 3 4
M  V30 4 1 4 5
M  V30 5 1 5 6
M  V30 6 1 6 7
M  V30 7 1 7 8
M  V30 8 1 8 9
M  V30 9 2 8 10 CFG=2
M  V30 10 1 2 11
M  V30 11 1 11 12
M  V30 12 2 11 13
M  V30 13 1 1 14
M  V30 14 1 1 15
M  V30 15 1 2 16 CFG=3
M  V30 16 1 3 17
M  V30 17 1 3 18
M  V30 18 1 4 19
M  V30 19 1 4 20
M  V30 20 1 5 21
M  V30 21 1 5 22
M  V30 22 1 6 23
M  V30 23 1 6 24
M  V30 24 1 7 25
M  V30 25 1 9 26
M  V30 26 1 9 27
M  V30 27 1 10 28
M  V30 28 1 12 29
M  V30 END BOND
M  V30 END CTAB
M  END
