
     RDKit          3D

  0  0  0  0  0  0  0  0  0  0999 V3000
M  V30 BEGIN CTAB
M  V30 COUNTS 56 59 0 0 0
M  V30 BEGIN ATOM
M  V30 1 N 5.374 -5.08904 -0.118265 0
M  V30 2 C 4.24075 -4.25362 -0.217566 0
M  V30 3 C 4.38147 -2.86889 -0.0493987 0
M  V30 4 C 3.3019 -2.0118 -0.137776 0
M  V30 5 C 3.58588 -0.565365 -0.0594414 0
M  V30 6 O 2.68292 0.231286 -0.309247 0
M  V30 7 N 4.84723 -0.0681319 0.291144 0
M  V30 8 C 5.26868 1.27235 0.407619 0
M  V30 9 C 4.45106 2.34193 0.177163 0
M  V30 10 C 4.92656 3.64729 0.30993 0
M  V30 11 C 6.22702 3.85312 0.675219 0
M  V30 12 Cl 6.88209 5.45083 0.858255 0
M  V30 13 C 7.02537 2.7554 0.900265 0
M  V30 14 N 6.57265 1.51763 0.773862 0
M  V30 15 C 2.02672 -2.4877 -0.394618 0
M  V30 16 N 0.893816 -1.65003 -0.364075 0
M  V30 17 C -0.351625 -1.91236 -0.958979 0
M  V30 18 O -0.605571 -2.94138 -1.61416 0
M  V30 19 C -1.47859 -0.952987 -0.843345 0
M  V30 20 C -1.52634 0.0184663 0.12679 0
M  V30 21 C -2.59948 0.918531 0.206344 0
M  V30 22 C -3.62739 0.839227 -0.692435 0
M  V30 23 C -3.56266 -0.141419 -1.65913 0
M  V30 24 C -2.51373 -1.03071 -1.74779 0
M  V30 25 C -4.76538 1.73769 -0.618153 0
M  V30 26 C -5.68584 1.678 0.407144 0
M  V30 27 C -6.73527 2.60626 0.40979 0
M  V30 28 C -6.8584 3.54217 -0.559835 0
M  V30 29 C -5.95459 3.62826 -1.60071 0
M  V30 30 C -4.92387 2.72018 -1.60659 0
M  V30 31 S -5.61715 0.486569 1.67127 0
M  V30 32 N -5.63782 -1.1193 1.0325 0
M  V30 33 O -4.53214 0.657519 2.65303 0
M  V30 34 O -6.91659 0.587202 2.48179 0
M  V30 35 C 1.88207 -3.86695 -0.564053 0
M  V30 36 C 2.97749 -4.69337 -0.471789 0
M  V30 37 H 5.32496 -5.96503 0.421458 0
M  V30 38 H 6.25161 -4.82093 -0.587141 0
M  V30 39 H 5.3694 -2.51727 0.146528 0
M  V30 40 H 5.61278 -0.784325 0.504715 0
M  V30 41 H 3.41693 2.26215 -0.113625 0
M  V30 42 H 4.26096 4.4587 0.122375 0
M  V30 43 H 8.05415 2.92918 1.18923 0
M  V30 44 H 0.928805 -0.749647 0.189964 0
M  V30 45 H -0.728965 0.0981274 0.85153 0
M  V30 46 H -2.54284 1.67521 0.998222 0
M  V30 47 H -4.35319 -0.243257 -2.39394 0
M  V30 48 H -2.48102 -1.80601 -2.52736 0
M  V30 49 H -7.47782 2.5802 1.21255 0
M  V30 50 H -7.70118 4.2428 -0.505099 0
M  V30 51 H -6.1123 4.39425 -2.33587 0
M  V30 52 H -4.20416 2.75991 -2.40161 0
M  V30 53 H -4.67769 -1.51675 0.944767 0
M  V30 54 H -6.31288 -1.74195 1.48247 0
M  V30 55 H 0.891851 -4.31248 -0.755051 0
M  V30 56 H 2.82535 -5.77973 -0.612084 0
M  V30 END ATOM
M  V30 BEGIN BOND
M  V30 1 1 1 2
M  V30 2 2 2 3
M  V30 3 1 3 4
M  V30 4 1 4 5
M  V30 5 2 5 6
M  V30 6 1 5 7
M  V30 7 1 7 8
M  V30 8 2 8 9
M  V30 9 1 9 10
M  V30 10 2 10 11
M  V30 11 1 11 12
M  V30 12 1 11 13
M  V30 13 2 13 14
M  V30 14 2 4 15
M  V30 15 1 15 16
M  V30 16 1 16 17
M  V30 17 2 17 18
M  V30 18 1 17 19
M  V30 19 2 19 20
M  V30 20 1 20 21
M  V30 21 2 21 22
M  V30 22 1 22 23
M  V30 23 2 23 24
M  V30 24 1 22 25
M  V30 25 2 25 26
M  V30 26 1 26 27
M  V30 27 2 27 28
M  V30 28 1 28 29
M  V30 29 2 29 30
M  V30 30 1 26 31
M  V30 31 1 31 32
M  V30 32 2 31 33
M  V30 33 2 31 34
M  V30 34 1 15 35
M  V30 35 2 35 36
M  V30 36 1 36 2
M  V30 37 1 14 8
M  V30 38 1 24 19
M  V30 39 1 30 25
M  V30 40 1 1 37
M  V30 41 1 1 38
M  V30 42 1 3 39
M  V30 43 1 7 40
M  V30 44 1 9 41
M  V30 45 1 10 42
M  V30 46 1 13 43
M  V30 47 1 16 44
M  V30 48 1 20 45
M  V30 49 1 21 46
M  V30 50 1 23 47
M  V30 51 1 24 48
M  V30 52 1 27 49
M  V30 53 1 28 50
M  V30 54 1 29 51
M  V30 55 1 30 52
M  V30 56 1 32 53
M  V30 57 1 32 54
M  V30 58 1 35 55
M  V30 59 1 36 56
M  V30 END BOND
M  V30 END CTAB
M  END
