
     RDKit          3D

  0  0  0  0  0  0  0  0  0  0999 V3000
M  V30 BEGIN CTAB
M  V30 COUNTS 16 15 0 0 0
M  V30 BEGIN ATOM
M  V30 1 N 2.52805 1.38763 -0.264815 0
M  V30 2 C 1.94311 0.085585 -0.370948 0
M  V30 3 S 2.90954 -1.19898 -0.405296 0
M  V30 4 C 0.467948 0.0605541 -0.311734 0
M  V30 5 N -0.105518 -1.24829 -0.38933 0
M  V30 6 S -1.77278 -1.06061 0.0732761 0
M  V30 7 O -2.63298 -2.17875 -0.364153 0
M  V30 8 O -1.74983 -1.01116 1.5977 0
M  V30 9 N -2.34459 0.402489 -0.589226 0
M  V30 10 H 3.32404 1.68043 -0.849222 0
M  V30 11 H 2.08383 2.14547 0.314744 0
M  V30 12 H 0.122436 0.538172 0.595588 0
M  V30 13 H 0.064525 0.643864 -1.20037 0
M  V30 14 H 0.344288 -1.95903 0.189947 0
M  V30 15 H -3.36587 0.466542 -0.451644 0
M  V30 16 H -1.8162 1.24609 -0.249301 0
M  V30 END ATOM
M  V30 BEGIN BOND
M  V30 1 1 1 2
M  V30 2 2 2 3
M  V30 3 1 2 4
M  V30 4 1 4 5
M  V30 5 1 5 6
M  V30 6 2 6 7
M  V30 7 2 6 8
M  V30 8 1 6 9
M  V30 9 1 1 10
M  V30 10 1 1 11
M  V30 11 1 4 12
M  V30 12 1 4 13
M  V30 13 1 5 14
M  V30 14 1 9 15
M  V30 15 1 9 16
M  V30 END BOND
M  V30 END CTAB
M  END
