
     RDKit          3D

  0  0  0  0  0  0  0  0  0  0999 V3000
M  V30 BEGIN CTAB
M  V30 COUNTS 55 58 0 0 0
M  V30 BEGIN ATOM
M  V30 1 N 3.3426 2.04558 0.670628 0
M  V30 2 C 3.80839 1.58611 -0.62514 0
M  V30 3 C 4.04169 0.122689 -0.719799 0
M  V30 4 C 5.10931 -0.271723 0.282667 0
M  V30 5 C 4.63109 -0.504305 1.66719 0
M  V30 6 C 3.3551 -1.31392 1.74014 0
M  V30 7 C 3.12678 -1.87321 0.330402 0
M  V30 8 N 2.8805 -0.717734 -0.496559 0
M  V30 9 C 1.60299 -0.456656 -1.05074 0
M  V30 10 O 1.51624 0.554222 -1.80116 0
M  V30 11 N 0.477541 -1.23601 -0.813265 0
M  V30 12 C -0.866351 -1.11252 -1.26414 0
M  V30 13 C -1.66185 0.0525496 -0.791471 0
M  V30 14 N -1.12555 1.31746 -1.15806 0
M  V30 15 C -1.84874 0.044121 0.715093 0
M  V30 16 C -2.48866 1.34633 1.12478 0
M  V30 17 C -3.82354 1.50421 0.426935 0
M  V30 18 C -3.71133 1.33953 -1.0566 0
M  V30 19 C -3.06718 0.0208097 -1.40461 0
M  V30 20 C -3.91115 -1.09301 -0.89485 0
M  V30 21 C -4.05559 -0.951374 0.624949 0
M  V30 22 C -2.68346 -1.12091 1.20038 0
M  V30 23 C -4.69819 0.364748 0.951877 0
M  V30 24 H 2.37588 1.76538 0.881812 0
M  V30 25 H 3.5055 3.07787 0.698849 0
M  V30 26 H 3.29841 2.05916 -1.48104 0
M  V30 27 H 4.86072 2.04846 -0.69148 0
M  V30 28 H 4.42794 -0.115388 -1.71131 0
M  V30 29 H 5.7984 0.62707 0.335014 0
M  V30 30 H 5.75457 -1.1005 -0.057857 0
M  V30 31 H 5.40823 -1.15956 2.16531 0
M  V30 32 H 4.59644 0.437225 2.22943 0
M  V30 33 H 2.52586 -0.602457 1.92417 0
M  V30 34 H 3.39504 -2.12787 2.47409 0
M  V30 35 H 2.40925 -2.67586 0.293663 0
M  V30 36 H 4.12738 -2.29049 -0.0155676 0
M  V30 37 H 0.666392 -2.08722 -0.158288 0
M  V30 38 H -0.81287 -1.08 -2.40006 0
M  V30 39 H -1.42966 -2.06305 -1.00854 0
M  V30 40 H -1.16532 1.59747 -2.13177 0
M  V30 41 H -0.604922 1.85472 -0.482954 0
M  V30 42 H -0.828535 -0.0128632 1.15374 0
M  V30 43 H -1.80757 2.18853 1.00803 0
M  V30 44 H -2.73702 1.23057 2.21387 0
M  V30 45 H -4.2434 2.48082 0.671001 0
M  V30 46 H -3.15121 2.19561 -1.51383 0
M  V30 47 H -4.75477 1.29499 -1.46102 0
M  V30 48 H -3.015 -0.0534892 -2.50922 0
M  V30 49 H -3.49612 -2.09493 -1.06349 0
M  V30 50 H -4.91728 -0.977852 -1.30504 0
M  V30 51 H -4.73587 -1.76451 0.979488 0
M  V30 52 H -2.24036 -2.0493 0.81122 0
M  V30 53 H -2.6709 -1.07043 2.30905 0
M  V30 54 H -5.66817 0.402868 0.428286 0
M  V30 55 H -4.82166 0.418033 2.05182 0
M  V30 END ATOM
M  V30 BEGIN BOND
M  V30 1 1 1 2
M  V30 2 1 2 3
M  V30 3 1 3 4
M  V30 4 1 4 5
M  V30 5 1 5 6
M  V30 6 1 6 7
M  V30 7 1 7 8
M  V30 8 1 8 9
M  V30 9 2 9 10
M  V30 10 1 9 11
M  V30 11 1 11 12
M  V30 12 1 12 13
M  V30 13 1 13 14
M  V30 14 1 13 15
M  V30 15 1 15 16
M  V30 16 1 16 17
M  V30 17 1 17 18
M  V30 18 1 18 19
M  V30 19 1 19 20
M  V30 20 1 20 21
M  V30 21 1 21 22
M  V30 22 1 21 23
M  V30 23 1 8 3
M  V30 24 1 19 13
M  V30 25 1 22 15
M  V30 26 1 23 17
M  V30 27 1 1 24
M  V30 28 1 1 25
M  V30 29 1 2 26
M  V30 30 1 2 27
M  V30 31 1 3 28
M  V30 32 1 4 29
M  V30 33 1 4 30
M  V30 34 1 5 31
M  V30 35 1 5 32
M  V30 36 1 6 33
M  V30 37 1 6 34
M  V30 38 1 7 35
M  V30 39 1 7 36
M  V30 40 1 11 37
M  V30 41 1 12 38
M  V30 42 1 12 39
M  V30 43 1 14 40
M  V30 44 1 14 41
M  V30 45 1 15 42
M  V30 46 1 16 43
M  V30 47 1 16 44
M  V30 48 1 17 45
M  V30 49 1 18 46
M  V30 50 1 18 47
M  V30 51 1 19 48
M  V30 52 1 20 49
M  V30 53 1 20 50
M  V30 54 1 21 51
M  V30 55 1 22 52
M  V30 56 1 22 53
M  V30 57 1 23 54
M  V30 58 1 23 55
M  V30 END BOND
M  V30 END CTAB
M  END
