
     RDKit          3D

  0  0  0  0  0  0  0  0  0  0999 V3000
M  V30 BEGIN CTAB
M  V30 COUNTS 21 21 0 0 0
M  V30 BEGIN ATOM
M  V30 1 F -3.99551 -1.19801 -1.042 0
M  V30 2 C -2.77731 -0.844411 -0.570977 0
M  V30 3 C -2.48215 0.437058 -0.156209 0
M  V30 4 C -1.22194 0.742056 0.315761 0
M  V30 5 N -0.903906 2.06342 0.747726 0
M  V30 6 C -0.209493 -0.192999 0.398247 0
M  V30 7 C -0.505258 -1.47503 -0.0168262 0
M  V30 8 C -1.77474 -1.78822 -0.493776 0
M  V30 9 Br 0.850853 -2.79961 0.076441 0
M  V30 10 N 1.08291 0.180601 0.896902 0
M  V30 11 S 2.34912 0.758823 -0.0823351 0
M  V30 12 O 3.22031 1.66971 0.744265 0
M  V30 13 O 1.81664 1.47747 -1.29488 0
M  V30 14 N 3.37471 -0.503108 -0.674347 0
M  V30 15 H -3.25782 1.18983 -0.210262 0
M  V30 16 H -0.600811 2.26329 1.70349 0
M  V30 17 H -1.00059 2.81376 0.0247541 0
M  V30 18 H -1.97088 -2.80621 -0.811236 0
M  V30 19 H 1.25941 0.0913135 1.9305 0
M  V30 20 H 3.04268 -0.936201 -1.53786 0
M  V30 21 H 3.70376 -1.14351 0.0526238 0
M  V30 END ATOM
M  V30 BEGIN BOND
M  V30 1 1 1 2
M  V30 2 2 2 3
M  V30 3 1 3 4
M  V30 4 1 4 5
M  V30 5 2 4 6
M  V30 6 1 6 7
M  V30 7 2 7 8
M  V30 8 1 7 9
M  V30 9 1 6 10
M  V30 10 1 10 11
M  V30 11 2 11 12
M  V30 12 2 11 13
M  V30 13 1 11 14
M  V30 14 1 8 2
M  V30 15 1 3 15
M  V30 16 1 5 16
M  V30 17 1 5 17
M  V30 18 1 8 18
M  V30 19 1 10 19
M  V30 20 1 14 20
M  V30 21 1 14 21
M  V30 END BOND
M  V30 END CTAB
M  END
