
     RDKit          3D

  0  0  0  0  0  0  0  0  0  0999 V3000
M  V30 BEGIN CTAB
M  V30 COUNTS 20 20 0 0 0
M  V30 BEGIN ATOM
M  V30 1 N 2.87501 -1.65534 -0.446924 0
M  V30 2 N 1.54158 -1.95032 -0.294725 0
M  V30 3 C 0.591915 -0.90604 -0.132088 0
M  V30 4 C -0.759745 -1.1966 0.0225862 0
M  V30 5 C -1.68495 -0.185459 0.180804 0
M  V30 6 N -3.05083 -0.541879 0.334419 0
M  V30 7 C -1.31857 1.14239 0.192912 0
M  V30 8 C 0.012508 1.45731 0.0418383 0
M  V30 9 C 0.935858 0.425633 -0.11704 0
M  V30 10 N 0.414695 2.81095 0.0506702 0 CHG=1
M  V30 11 O 1.60106 3.15389 -0.0812254 0
M  V30 12 O -0.535035 3.77949 0.21007 0 CHG=-1
M  V30 13 H 3.08201 -0.827032 -1.01655 0
M  V30 14 H 3.37859 -1.6139 0.469774 0
M  V30 15 H 1.2379 -2.94556 -0.300174 0
M  V30 16 H -1.04281 -2.25617 0.011774 0
M  V30 17 H -3.80467 0.176154 0.239822 0
M  V30 18 H -3.35563 -1.51585 0.544103 0
M  V30 19 H -2.07172 1.93008 0.320173 0
M  V30 20 H 1.95283 0.71825 -0.230225 0
M  V30 END ATOM
M  V30 BEGIN BOND
M  V30 1 1 1 2
M  V30 2 1 2 3
M  V30 3 2 3 4
M  V30 4 1 4 5
M  V30 5 1 5 6
M  V30 6 2 5 7
M  V30 7 1 7 8
M  V30 8 2 8 9
M  V30 9 1 8 10
M  V30 10 2 10 11
M  V30 11 1 10 12
M  V30 12 1 9 3
M  V30 13 1 1 13
M  V30 14 1 1 14
M  V30 15 1 2 15
M  V30 16 1 4 16
M  V30 17 1 6 17
M  V30 18 1 6 18
M  V30 19 1 7 19
M  V30 20 1 9 20
M  V30 END BOND
M  V30 END CTAB
M  END
