
     RDKit          3D

  0  0  0  0  0  0  0  0  0  0999 V3000
M  V30 BEGIN CTAB
M  V30 COUNTS 45 47 0 0 0
M  V30 BEGIN ATOM
M  V30 1 N 6.76721 1.77054 0.433716 0
M  V30 2 C 6.47972 0.37618 0.164862 0
M  V30 3 C 5.45287 0.279081 -0.958347 0
M  V30 4 C 4.38733 0.465633 0.100624 0
M  V30 5 C 5.39379 -0.113953 1.10317 0
M  V30 6 C 3.18113 -0.3808 -0.0727064 0
M  V30 7 C 1.93675 0.202004 0.0431403 0
M  V30 8 C 0.782252 -0.528044 -0.106531 0
M  V30 9 N -0.513782 0.0527342 0.00881246 0
M  V30 10 C -1.6786 -0.760896 -0.157731 0
M  V30 11 C -2.95004 -0.027815 -0.0364741 0
M  V30 12 C -3.01193 1.31353 -0.328532 0
M  V30 13 C -4.24513 1.96691 -0.192906 0
M  V30 14 C -5.37851 1.31481 0.217664 0
M  V30 15 C -5.30218 -0.0373594 0.508692 0
M  V30 16 C -4.08248 -0.694613 0.377154 0
M  V30 17 C -6.53014 -0.720849 0.948189 0
M  V30 18 C -6.67669 2.034 0.353284 0
M  V30 19 N 0.914416 -1.83733 -0.371257 0
M  V30 20 C 2.13375 -2.41313 -0.485728 0
M  V30 21 N 3.25647 -1.68179 -0.335847 0
M  V30 22 N 2.25831 -3.79306 -0.76478 0
M  V30 23 H 7.71857 2.05954 0.137947 0
M  V30 24 H 6.05619 2.39959 0.0148502 0
M  V30 25 H 7.34525 -0.285204 0.059469 0
M  V30 26 H 5.57771 1.11497 -1.65918 0
M  V30 27 H 5.42155 -0.734098 -1.44933 0
M  V30 28 H 4.16108 1.50786 0.311166 0
M  V30 29 H 5.30665 -1.19631 1.21567 0
M  V30 30 H 5.39009 0.464947 2.05106 0
M  V30 31 H 1.85434 1.259 0.256899 0
M  V30 32 H -0.590663 1.06541 0.216902 0
M  V30 33 H -1.69302 -1.54273 0.654259 0
M  V30 34 H -1.65646 -1.31078 -1.13019 0
M  V30 35 H -2.18782 1.90342 -0.657017 0
M  V30 36 H -4.30584 3.00763 -0.41645 0
M  V30 37 H -4.04471 -1.73531 0.605976 0
M  V30 38 H -7.27698 -0.70823 0.117698 0
M  V30 39 H -6.91948 -0.233695 1.85452 0
M  V30 40 H -6.34559 -1.79057 1.17566 0
M  V30 41 H -6.6974 2.64551 1.28769 0
M  V30 42 H -7.48867 1.29864 0.449923 0
M  V30 43 H -6.80847 2.63771 -0.559327 0
M  V30 44 H 2.23783 -4.48792 0.00229487 0
M  V30 45 H 2.37132 -4.12517 -1.73778 0
M  V30 END ATOM
M  V30 BEGIN BOND
M  V30 1 1 1 2
M  V30 2 1 2 3
M  V30 3 1 3 4
M  V30 4 1 4 5
M  V30 5 1 4 6
M  V30 6 2 6 7
M  V30 7 1 7 8
M  V30 8 1 8 9
M  V30 9 1 9 10
M  V30 10 1 10 11
M  V30 11 2 11 12
M  V30 12 1 12 13
M  V30 13 2 13 14
M  V30 14 1 14 15
M  V30 15 2 15 16
M  V30 16 1 15 17
M  V30 17 1 14 18
M  V30 18 2 8 19
M  V30 19 1 19 20
M  V30 20 2 20 21
M  V30 21 1 20 22
M  V30 22 1 5 2
M  V30 23 1 21 6
M  V30 24 1 16 11
M  V30 25 1 1 23
M  V30 26 1 1 24
M  V30 27 1 2 25
M  V30 28 1 3 26
M  V30 29 1 3 27
M  V30 30 1 4 28
M  V30 31 1 5 29
M  V30 32 1 5 30
M  V30 33 1 7 31
M  V30 34 1 9 32
M  V30 35 1 10 33
M  V30 36 1 10 34
M  V30 37 1 12 35
M  V30 38 1 13 36
M  V30 39 1 16 37
M  V30 40 1 17 38
M  V30 41 1 17 39
M  V30 42 1 17 40
M  V30 43 1 18 41
M  V30 44 1 18 42
M  V30 45 1 18 43
M  V30 46 1 22 44
M  V30 47 1 22 45
M  V30 END BOND
M  V30 END CTAB
M  END
