
     RDKit          3D

  0  0  0  0  0  0  0  0  0  0999 V3000
M  V30 BEGIN CTAB
M  V30 COUNTS 73 77 0 0 0
M  V30 BEGIN ATOM
M  V30 1 N -7.29796 0.796313 3.65884 0
M  V30 2 C -7.67569 0.315986 2.38005 0
M  V30 3 N -8.72197 -0.545525 2.24713 0
M  V30 4 C -9.08816 -1.00602 1.03703 0
M  V30 5 N -10.1811 -1.89944 0.951132 0
M  V30 6 C -8.35122 -0.559367 -0.0414219 0
M  V30 7 C -7.28929 0.311108 0.0659284 0
M  V30 8 N -6.9721 0.737607 1.31556 0
M  V30 9 N -6.7779 0.559366 -1.15273 0
M  V30 10 C -7.51732 -0.153198 -2.02031 0
M  V30 11 N -8.47605 -0.835733 -1.3489 0
M  V30 12 C -5.65387 1.42074 -1.44586 0
M  V30 13 C -4.33732 0.703475 -1.44667 0 CFG=2
M  V30 14 O -4.36739 -0.312675 -2.4322 0
M  V30 15 C -3.98777 0.0212114 -0.165018 0
M  V30 16 C -2.66006 -0.683104 -0.351705 0
M  V30 17 C -1.60551 0.187978 -0.989297 0 CFG=1
M  V30 18 C -2.08516 1.62144 -0.906876 0
M  V30 19 C -3.28153 1.71736 -1.83821 0 CFG=1
M  V30 20 O -2.85029 1.5592 -3.1377 0
M  V30 21 N -0.316386 0.0719948 -0.280422 0
M  V30 22 C 0.794832 -0.305405 -1.00908 0
M  V30 23 O 0.518639 -0.50822 -2.28645 0
M  V30 24 C 2.17978 -0.512739 -0.624156 0
M  V30 25 C 2.71537 -0.385339 0.620722 0
M  V30 26 C 4.07626 -0.606763 0.889867 0
M  V30 27 C 4.94964 -0.967664 -0.0990565 0
M  V30 28 C 4.43152 -1.10194 -1.36178 0
M  V30 29 C 3.10213 -0.885243 -1.62224 0
M  V30 30 O 6.29393 -1.18419 0.179354 0
M  V30 31 C 6.81061 -1.04199 1.48878 0
M  V30 32 C 8.29318 -1.34265 1.46288 0
M  V30 33 N 8.88753 -0.366632 0.542622 0
M  V30 34 C 9.07177 -0.520064 -0.876039 0
M  V30 35 C 10.3253 0.295471 -1.1319 0
M  V30 36 C 10.3378 1.36874 -0.0735674 0
M  V30 37 C 9.37099 0.892682 0.942155 0
M  V30 38 O 9.03573 1.51125 1.99074 0
M  V30 39 C -0.361844 0.374129 1.10869 0
M  V30 40 H -7.59564 0.292361 4.51356 0
M  V30 41 H -6.72188 1.65331 3.76713 0
M  V30 42 H -10.0964 -2.82697 1.4073 0
M  V30 43 H -11.0646 -1.67773 0.456297 0
M  V30 44 H -7.37825 -0.185285 -3.09569 0
M  V30 45 H -5.62864 2.31408 -0.78772 0
M  V30 46 H -5.7714 1.84308 -2.4876 0
M  V30 47 H -4.52463 -1.1945 -2.02764 0
M  V30 48 H -3.9827 0.68049 0.718701 0
M  V30 49 H -4.73214 -0.811815 -0.0226673 0
M  V30 50 H -2.26605 -1.02987 0.623579 0
M  V30 51 H -2.77797 -1.61485 -0.959237 0
M  V30 52 H -1.41924 -0.0649354 -2.03681 0
M  V30 53 H -1.3159 2.33763 -1.26089 0
M  V30 54 H -2.41482 1.83069 0.126234 0
M  V30 55 H -3.66476 2.76592 -1.71713 0
M  V30 56 H -3.49956 1.16189 -3.74391 0
M  V30 57 H 2.11253 -0.112326 1.44106 0
M  V30 58 H 4.45167 -0.492062 1.89668 0
M  V30 59 H 5.11419 -1.38738 -2.15346 0
M  V30 60 H 2.7036 -0.996374 -2.63438 0
M  V30 61 H 6.69413 0.0190859 1.79452 0
M  V30 62 H 6.27391 -1.65964 2.23737 0
M  V30 63 H 8.71314 -1.23914 2.48351 0
M  V30 64 H 8.47273 -2.37626 1.13314 0
M  V30 65 H 8.25034 -0.0483754 -1.47106 0
M  V30 66 H 9.19482 -1.58592 -1.18793 0
M  V30 67 H 10.26 0.807004 -2.1126 0
M  V30 68 H 11.2405 -0.341854 -1.11422 0
M  V30 69 H 11.3535 1.4429 0.361622 0
M  V30 70 H 9.95968 2.34145 -0.454341 0
M  V30 71 H -0.118169 -0.462076 1.79264 0
M  V30 72 H -1.43398 0.63103 1.4307 0
M  V30 73 H 0.273021 1.2443 1.41297 0
M  V30 END ATOM
M  V30 BEGIN BOND
M  V30 1 1 1 2
M  V30 2 2 2 3
M  V30 3 1 3 4
M  V30 4 1 4 5
M  V30 5 2 4 6
M  V30 6 1 6 7
M  V30 7 2 7 8
M  V30 8 1 7 9
M  V30 9 1 9 10
M  V30 10 2 10 11
M  V30 11 1 9 12
M  V30 12 1 12 13
M  V30 13 1 13 14 CFG=3
M  V30 14 1 13 15
M  V30 15 1 15 16
M  V30 16 1 16 17
M  V30 17 1 17 18
M  V30 18 1 18 19
M  V30 19 1 19 20
M  V30 20 1 17 21
M  V30 21 1 21 22
M  V30 22 2 22 23
M  V30 23 1 22 24
M  V30 24 2 24 25
M  V30 25 1 25 26
M  V30 26 2 26 27
M  V30 27 1 27 28
M  V30 28 2 28 29
M  V30 29 1 27 30
M  V30 30 1 30 31
M  V30 31 1 31 32
M  V30 32 1 32 33
M  V30 33 1 33 34
M  V30 34 1 34 35
M  V30 35 1 35 36
M  V30 36 1 36 37
M  V30 37 2 37 38
M  V30 38 1 21 39
M  V30 39 1 8 2
M  V30 40 1 19 13
M  V30 41 1 29 24
M  V30 42 1 37 33
M  V30 43 1 11 6
M  V30 44 1 1 40
M  V30 45 1 1 41
M  V30 46 1 5 42
M  V30 47 1 5 43
M  V30 48 1 10 44
M  V30 49 1 12 45
M  V30 50 1 12 46
M  V30 51 1 14 47
M  V30 52 1 15 48
M  V30 53 1 15 49
M  V30 54 1 16 50
M  V30 55 1 16 51
M  V30 56 1 17 52 CFG=3
M  V30 57 1 18 53
M  V30 58 1 18 54
M  V30 59 1 19 55 CFG=3
M  V30 60 1 20 56
M  V30 61 1 25 57
M  V30 62 1 26 58
M  V30 63 1 28 59
M  V30 64 1 29 60
M  V30 65 1 31 61
M  V30 66 1 31 62
M  V30 67 1 32 63
M  V30 68 1 32 64
M  V30 69 1 34 65
M  V30 70 1 34 66
M  V30 71 1 35 67
M  V30 72 1 35 68
M  V30 73 1 36 69
M  V30 74 1 36 70
M  V30 75 1 39 71
M  V30 76 1 39 72
M  V30 77 1 39 73
M  V30 END BOND
M  V30 END CTAB
M  END
