
     RDKit          3D

  0  0  0  0  0  0  0  0  0  0999 V3000
M  V30 BEGIN CTAB
M  V30 COUNTS 17 17 0 0 0
M  V30 BEGIN ATOM
M  V30 1 N 3.34929 0.777037 0.172422 0
M  V30 2 C 2.01113 0.293929 -0.00667105 0
M  V30 3 N 1.74764 -0.883155 -0.598812 0
M  V30 4 C 0.505405 -1.37028 -0.784988 0
M  V30 5 C -0.582086 -0.641463 -0.353379 0
M  V30 6 C -0.316411 0.565014 0.253774 0
M  V30 7 N 0.957171 1.01239 0.417865 0
M  V30 8 N -1.3841 1.35415 0.715405 0
M  V30 9 C -1.95768 -1.08385 -0.50964 0
M  V30 10 O -2.27262 -2.16286 -1.04863 0
M  V30 11 O -2.98445 -0.279447 -0.0423245 0
M  V30 12 H 3.93274 0.396874 0.974226 0
M  V30 13 H 3.79703 1.47797 -0.428256 0
M  V30 14 H 0.314468 -2.32675 -1.26736 0
M  V30 15 H -1.70209 2.15958 0.124146 0
M  V30 16 H -1.88304 1.20044 1.59866 0
M  V30 17 H -3.53239 -0.489582 0.783561 0
M  V30 END ATOM
M  V30 BEGIN BOND
M  V30 1 1 1 2
M  V30 2 2 2 3
M  V30 3 1 3 4
M  V30 4 2 4 5
M  V30 5 1 5 6
M  V30 6 2 6 7
M  V30 7 1 6 8
M  V30 8 1 5 9
M  V30 9 2 9 10
M  V30 10 1 9 11
M  V30 11 1 7 2
M  V30 12 1 1 12
M  V30 13 1 1 13
M  V30 14 1 4 14
M  V30 15 1 8 15
M  V30 16 1 8 16
M  V30 17 1 11 17
M  V30 END BOND
M  V30 END CTAB
M  END
