
     RDKit          3D

  0  0  0  0  0  0  0  0  0  0999 V3000
M  V30 BEGIN CTAB
M  V30 COUNTS 26 26 0 0 0
M  V30 BEGIN ATOM
M  V30 1 N 3.5724 -0.408247 0.139749 0
M  V30 2 C 2.38301 0.0358992 0.741437 0
M  V30 3 C 1.2146 -0.720698 0.133914 0 CFG=2
M  V30 4 N 1.11333 -0.516914 -1.25937 0
M  V30 5 C 0.237352 0.510951 -1.70655 0
M  V30 6 C -0.967515 0.733781 -0.829619 0
M  V30 7 N -1.11708 -0.452456 -0.00192093 0
M  V30 8 C -0.00511087 -0.387105 0.930518 0
M  V30 9 S -2.59264 -0.464864 0.864828 0
M  V30 10 O -2.62846 -1.69821 1.70798 0
M  V30 11 O -2.69304 0.749897 1.73458 0
M  V30 12 N -3.88617 -0.465457 -0.284713 0
M  V30 13 H 4.21591 -0.928036 0.675876 0
M  V30 14 H 3.88162 0.163194 -0.59361 0
M  V30 15 H 2.18866 1.11001 0.588154 0
M  V30 16 H 2.41214 -0.242511 1.8154 0
M  V30 17 H 1.41559 -1.82058 0.304416 0
M  V30 18 H 2.08482 -0.332047 -1.63985 0
M  V30 19 H 0.810318 1.44876 -1.84794 0
M  V30 20 H -0.17035 0.180445 -2.70742 0
M  V30 21 H -0.740087 1.59714 -0.152816 0
M  V30 22 H -1.86723 0.977536 -1.40224 0
M  V30 23 H -0.198388 -1.09064 1.76129 0
M  V30 24 H 0.101586 0.620282 1.35263 0
M  V30 25 H -4.02472 0.549345 -0.560528 0
M  V30 26 H -4.74054 -0.775274 0.235796 0
M  V30 END ATOM
M  V30 BEGIN BOND
M  V30 1 1 1 2
M  V30 2 1 2 3
M  V30 3 1 3 4
M  V30 4 1 4 5
M  V30 5 1 5 6
M  V30 6 1 6 7
M  V30 7 1 7 8
M  V30 8 1 7 9
M  V30 9 2 9 10
M  V30 10 2 9 11
M  V30 11 1 9 12
M  V30 12 1 8 3
M  V30 13 1 1 13
M  V30 14 1 1 14
M  V30 15 1 2 15
M  V30 16 1 2 16
M  V30 17 1 3 17 CFG=3
M  V30 18 1 4 18
M  V30 19 1 5 19
M  V30 20 1 5 20
M  V30 21 1 6 21
M  V30 22 1 6 22
M  V30 23 1 8 23
M  V30 24 1 8 24
M  V30 25 1 12 25
M  V30 26 1 12 26
M  V30 END BOND
M  V30 END CTAB
M  END
