
     RDKit          3D

  0  0  0  0  0  0  0  0  0  0999 V3000
M  V30 BEGIN CTAB
M  V30 COUNTS 37 38 0 0 0
M  V30 BEGIN ATOM
M  V30 1 N -5.90499 2.04175 0.723011 0
M  V30 2 S -5.40803 0.452268 1.14114 0
M  V30 3 O -6.49766 -0.488444 0.644364 0
M  V30 4 O -5.35749 0.310314 2.61386 0
M  V30 5 C -3.87545 0.0304748 0.383558 0
M  V30 6 C -3.8564 -0.560732 -0.846887 0
M  V30 7 C -2.64958 -0.90453 -1.46559 0
M  V30 8 C -1.43713 -0.658359 -0.854505 0
M  V30 9 S 0.0305391 -1.13301 -1.72301 0
M  V30 10 C 1.52244 -0.738266 -0.848378 0
M  V30 11 C 2.15756 0.454618 -1.09417 0
M  V30 12 C 3.34417 0.795874 -0.42014 0
M  V30 13 C 3.887 -0.0600843 0.495104 0
M  V30 14 C 3.25603 -1.25858 0.74649 0
M  V30 15 C 2.08816 -1.58665 0.0788474 0
M  V30 16 S 5.35713 0.382861 1.31797 0
M  V30 17 N 6.75821 -0.130107 0.499128 0
M  V30 18 O 5.43324 1.88232 1.47659 0
M  V30 19 O 5.39217 -0.19615 2.7084 0
M  V30 20 N 1.6307 1.35107 -2.03964 0 CHG=1
M  V30 21 O 0.304217 1.4495 -2.3761 0 CHG=-1
M  V30 22 O 2.38672 2.15917 -2.66633 0
M  V30 23 C -1.47421 -0.0623976 0.384308 0
M  V30 24 C -2.66448 0.277022 0.995303 0
M  V30 25 N -2.70092 -1.51165 -2.73498 0 CHG=1
M  V30 26 O -3.76962 -2.31491 -3.03827 0 CHG=-1
M  V30 27 O -1.82263 -1.34946 -3.58457 0
M  V30 28 H -5.82781 2.6415 1.55196 0
M  V30 29 H -5.3407 2.37968 -0.0931691 0
M  V30 30 H -4.81095 -0.754643 -1.32826 0
M  V30 31 H 3.84625 1.73659 -0.612529 0
M  V30 32 H 3.7011 -1.91393 1.4687 0
M  V30 33 H 1.58374 -2.51529 0.262305 0
M  V30 34 H 7.20831 -0.965839 0.88113 0
M  V30 35 H 6.68124 -0.108035 -0.535179 0
M  V30 36 H -0.507788 0.125363 0.853801 0
M  V30 37 H -2.6631 0.740685 1.96179 0
M  V30 END ATOM
M  V30 BEGIN BOND
M  V30 1 1 1 2
M  V30 2 2 2 3
M  V30 3 2 2 4
M  V30 4 1 2 5
M  V30 5 2 5 6
M  V30 6 1 6 7
M  V30 7 2 7 8
M  V30 8 1 8 9
M  V30 9 1 9 10
M  V30 10 2 10 11
M  V30 11 1 11 12
M  V30 12 2 12 13
M  V30 13 1 13 14
M  V30 14 2 14 15
M  V30 15 1 13 16
M  V30 16 1 16 17
M  V30 17 2 16 18
M  V30 18 2 16 19
M  V30 19 1 11 20
M  V30 20 1 20 21
M  V30 21 2 20 22
M  V30 22 1 8 23
M  V30 23 2 23 24
M  V30 24 1 7 25
M  V30 25 1 25 26
M  V30 26 2 25 27
M  V30 27 1 24 5
M  V30 28 1 15 10
M  V30 29 1 1 28
M  V30 30 1 1 29
M  V30 31 1 6 30
M  V30 32 1 12 31
M  V30 33 1 14 32
M  V30 34 1 15 33
M  V30 35 1 17 34
M  V30 36 1 17 35
M  V30 37 1 23 36
M  V30 38 1 24 37
M  V30 END BOND
M  V30 END CTAB
M  END
