
     RDKit          3D

  0  0  0  0  0  0  0  0  0  0999 V3000
M  V30 BEGIN CTAB
M  V30 COUNTS 42 43 0 0 0
M  V30 BEGIN ATOM
M  V30 1 C -4.34872 -2.14432 0.667018 0
M  V30 2 C -4.86483 -0.777249 0.383803 0
M  V30 3 N -3.90423 0.231449 0.0685303 0
M  V30 4 C -2.53161 -0.0601355 -0.0897694 0
M  V30 5 C -2.0797 -1.09056 -0.89216 0
M  V30 6 C -0.715961 -1.3067 -0.988076 0
M  V30 7 C 0.231103 -0.552201 -0.326127 0
M  V30 8 C -0.226325 0.471604 0.470931 0
M  V30 9 C -1.56913 0.71971 0.592097 0
M  V30 10 O 0.692847 1.26416 1.16351 0
M  V30 11 C 1.67182 -0.829586 -0.462232 0
M  V30 12 N 2.54083 -0.136516 0.152765 0
M  V30 13 N 3.92515 -0.355793 0.0588277 0
M  V30 14 C 4.73284 0.638416 0.238288 0
M  V30 15 C 6.18662 0.465952 0.150461 0
M  V30 16 N 7.12533 1.4069 0.313534 0
M  V30 17 O 8.31119 0.888069 0.166953 0
M  V30 18 N 8.1651 -0.37084 -0.0890766 0
M  V30 19 C 6.85031 -0.70005 -0.113802 0
M  V30 20 N 6.31985 -2.00235 -0.364843 0
M  V30 21 N 4.16863 1.90583 0.52457 0
M  V30 22 C -4.34672 1.59171 -0.115664 0
M  V30 23 C -5.18721 1.82649 -1.33013 0
M  V30 24 H -3.3435 -2.18133 1.14818 0
M  V30 25 H -5.02477 -2.62407 1.45028 0
M  V30 26 H -4.43715 -2.87072 -0.188271 0
M  V30 27 H -5.50688 -0.464373 1.2568 0
M  V30 28 H -5.61949 -0.902843 -0.454277 0
M  V30 29 H -2.77659 -1.73079 -1.45745 0
M  V30 30 H -0.372825 -2.12453 -1.62882 0
M  V30 31 H -1.94332 1.53605 1.22474 0
M  V30 32 H 0.408072 2.0159 1.75744 0
M  V30 33 H 2.01806 -1.63793 -1.09499 0
M  V30 34 H 6.56326 -2.47437 -1.25706 0
M  V30 35 H 5.70472 -2.44545 0.345341 0
M  V30 36 H 4.6288 2.5679 1.18487 0
M  V30 37 H 3.27986 2.20635 0.0782567 0
M  V30 38 H -4.96669 1.87423 0.78616 0
M  V30 39 H -3.49896 2.31424 -0.117607 0
M  V30 40 H -5.22963 2.9439 -1.47994 0
M  V30 41 H -6.24258 1.53888 -1.12918 0
M  V30 42 H -4.78757 1.37498 -2.25626 0
M  V30 END ATOM
M  V30 BEGIN BOND
M  V30 1 1 1 2
M  V30 2 1 2 3
M  V30 3 1 3 4
M  V30 4 2 4 5
M  V30 5 1 5 6
M  V30 6 2 6 7
M  V30 7 1 7 8
M  V30 8 2 8 9
M  V30 9 1 8 10
M  V30 10 1 7 11
M  V30 11 2 11 12
M  V30 12 1 12 13
M  V30 13 2 13 14
M  V30 14 1 14 15
M  V30 15 2 15 16
M  V30 16 1 16 17
M  V30 17 1 17 18
M  V30 18 2 18 19
M  V30 19 1 19 20
M  V30 20 1 14 21
M  V30 21 1 3 22
M  V30 22 1 22 23
M  V30 23 1 9 4
M  V30 24 1 19 15
M  V30 25 1 1 24
M  V30 26 1 1 25
M  V30 27 1 1 26
M  V30 28 1 2 27
M  V30 29 1 2 28
M  V30 30 1 5 29
M  V30 31 1 6 30
M  V30 32 1 9 31
M  V30 33 1 10 32
M  V30 34 1 11 33
M  V30 35 1 20 34
M  V30 36 1 20 35
M  V30 37 1 21 36
M  V30 38 1 21 37
M  V30 39 1 22 38
M  V30 40 1 22 39
M  V30 41 1 23 40
M  V30 42 1 23 41
M  V30 43 1 23 42
M  V30 END BOND
M  V30 END CTAB
M  END
