
     RDKit          3D

  0  0  0  0  0  0  0  0  0  0999 V3000
M  V30 BEGIN CTAB
M  V30 COUNTS 24 25 0 0 0
M  V30 BEGIN ATOM
M  V30 1 N 3.33563 -1.68025 -0.116634 0
M  V30 2 C 2.22938 -0.790294 0.031948 0
M  V30 3 N 0.960707 -1.18741 -0.0529636 0
M  V30 4 C -0.0914635 -0.373018 0.082581 0
M  V30 5 N -1.43233 -0.824407 -0.0145557 0
M  V30 6 C -2.54546 0.0560241 0.13789 0
M  V30 7 C -3.91994 -0.609604 -0.0186251 0
M  V30 8 C -3.42847 0.45289 -0.968549 0
M  V30 9 C 0.139442 0.962007 0.325379 0
M  V30 10 C 1.41865 1.4418 0.425314 0
M  V30 11 C 2.46785 0.560144 0.277657 0
M  V30 12 N 3.79219 1.02528 0.375473 0
M  V30 13 H 3.33454 -2.34007 -0.946472 0
M  V30 14 H 4.13708 -1.72532 0.529033 0
M  V30 15 H -1.5745 -1.85525 -0.207378 0
M  V30 16 H -2.43863 0.780704 0.978948 0
M  V30 17 H -4.66011 -0.37694 0.749498 0
M  V30 18 H -3.94234 -1.65487 -0.405474 0
M  V30 19 H -3.97561 1.41991 -0.873466 0
M  V30 20 H -3.23063 0.151299 -2.02199 0
M  V30 21 H -0.699169 1.66914 0.44275 0
M  V30 22 H 1.55004 2.49524 0.616401 0
M  V30 23 H 4.36296 0.845246 1.22019 0
M  V30 24 H 4.2102 1.55777 -0.407157 0
M  V30 END ATOM
M  V30 BEGIN BOND
M  V30 1 1 1 2
M  V30 2 2 2 3
M  V30 3 1 3 4
M  V30 4 1 4 5
M  V30 5 1 5 6
M  V30 6 1 6 7
M  V30 7 1 7 8
M  V30 8 2 4 9
M  V30 9 1 9 10
M  V30 10 2 10 11
M  V30 11 1 11 12
M  V30 12 1 11 2
M  V30 13 1 8 6
M  V30 14 1 1 13
M  V30 15 1 1 14
M  V30 16 1 5 15
M  V30 17 1 6 16
M  V30 18 1 7 17
M  V30 19 1 7 18
M  V30 20 1 8 19
M  V30 21 1 8 20
M  V30 22 1 9 21
M  V30 23 1 10 22
M  V30 24 1 12 23
M  V30 25 1 12 24
M  V30 END BOND
M  V30 END CTAB
M  END
