
     RDKit          3D

  0  0  0  0  0  0  0  0  0  0999 V3000
M  V30 BEGIN CTAB
M  V30 COUNTS 61 64 0 0 0
M  V30 BEGIN ATOM
M  V30 1 C -3.53137 -4.04967 -2.56532 0
M  V30 2 O -3.05009 -2.88324 -1.96618 0
M  V30 3 C -1.71956 -2.69142 -1.6603 0
M  V30 4 O -0.933008 -3.65122 -1.95735 0
M  V30 5 C -1.16269 -1.50497 -1.04054 0
M  V30 6 C 0.141339 -1.45859 -0.809251 0
M  V30 7 N 0.94727 -2.58314 -1.18018 0
M  V30 8 N 0.731659 -0.322739 -0.217179 0
M  V30 9 C -0.0777072 0.783999 0.137018 0
M  V30 10 C -1.39139 0.775963 -0.0747221 0
M  V30 11 C -2.0873 -0.388818 -0.689903 0
M  V30 12 C -3.18101 -0.876871 0.194598 0
M  V30 13 C -4.47386 -0.830974 -0.231507 0
M  V30 14 C -5.47082 -1.28903 0.605956 0
M  V30 15 C -5.1389 -1.78957 1.8703 0
M  V30 16 C -3.82871 -1.83532 2.30031 0
M  V30 17 C -2.84263 -1.37418 1.4529 0
M  V30 18 Cl -6.44099 -2.36424 2.90837 0
M  V30 19 C -2.17944 1.94382 0.30438 0
M  V30 20 O -3.35873 1.85657 0.687346 0
M  V30 21 C -1.55317 3.28169 0.231135 0
M  V30 22 C -0.0785351 3.17878 0.0332184 0
M  V30 23 C 0.546483 2.00236 0.766999 0
M  V30 24 C 0.266854 3.02293 -1.43136 0
M  V30 25 C 0.553688 4.48922 0.513147 0
M  V30 26 C 2.1324 -0.318122 0.0101682 0
M  V30 27 C 3.01396 0.150712 -0.940923 0
M  V30 28 C 4.36772 0.14039 -0.686602 0
M  V30 29 C 4.8316 -0.33688 0.512975 0
M  V30 30 C 3.94591 -0.804156 1.45972 0
M  V30 31 C 2.58474 -0.802677 1.22489 0
M  V30 32 S 6.53955 -0.379599 0.906987 0
M  V30 33 O 7.36097 -0.544346 -0.347778 0
M  V30 34 O 6.76189 -1.54325 1.82778 0
M  V30 35 N 6.9302 1.12294 1.6811 0
M  V30 36 H -4.21392 -4.6156 -1.89652 0
M  V30 37 H -4.11732 -3.79658 -3.47859 0
M  V30 38 H -2.7252 -4.74434 -2.90284 0
M  V30 39 H 1.15691 -3.35658 -0.513988 0
M  V30 40 H 1.3559 -2.67187 -2.13175 0
M  V30 41 H -2.55753 -0.0797481 -1.64632 0
M  V30 42 H -4.76498 -0.442672 -1.22062 0
M  V30 43 H -6.50765 -1.26126 0.285589 0
M  V30 44 H -3.57559 -2.22441 3.28193 0
M  V30 45 H -1.82641 -1.41696 1.80368 0
M  V30 46 H -1.97072 3.8764 -0.607243 0
M  V30 47 H -1.74179 3.78103 1.20437 0
M  V30 48 H 0.388568 2.03547 1.84597 0
M  V30 49 H 1.6257 2.00161 0.498063 0
M  V30 50 H -0.532931 3.43689 -2.07213 0
M  V30 51 H 1.22631 3.54797 -1.6057 0
M  V30 52 H 0.384562 1.93447 -1.70446 0
M  V30 53 H 0.0869383 5.29421 -0.0895753 0
M  V30 54 H 0.369522 4.60115 1.60255 0
M  V30 55 H 1.64312 4.46864 0.376274 0
M  V30 56 H 2.64574 0.530969 -1.89644 0
M  V30 57 H 5.10616 0.498619 -1.40231 0
M  V30 58 H 4.28306 -1.18837 2.41925 0
M  V30 59 H 1.90951 -1.17501 1.98447 0
M  V30 60 H 6.91366 0.997151 2.71055 0
M  V30 61 H 6.28208 1.84246 1.32557 0
M  V30 END ATOM
M  V30 BEGIN BOND
M  V30 1 1 1 2
M  V30 2 1 2 3
M  V30 3 2 3 4
M  V30 4 1 3 5
M  V30 5 2 5 6
M  V30 6 1 6 7
M  V30 7 1 6 8
M  V30 8 1 8 9
M  V30 9 2 9 10
M  V30 10 1 10 11
M  V30 11 1 11 12
M  V30 12 2 12 13
M  V30 13 1 13 14
M  V30 14 2 14 15
M  V30 15 1 15 16
M  V30 16 2 16 17
M  V30 17 1 15 18
M  V30 18 1 10 19
M  V30 19 2 19 20
M  V30 20 1 19 21
M  V30 21 1 21 22
M  V30 22 1 22 23
M  V30 23 1 22 24
M  V30 24 1 22 25
M  V30 25 1 8 26
M  V30 26 2 26 27
M  V30 27 1 27 28
M  V30 28 2 28 29
M  V30 29 1 29 30
M  V30 30 2 30 31
M  V30 31 1 29 32
M  V30 32 2 32 33
M  V30 33 2 32 34
M  V30 34 1 32 35
M  V30 35 1 11 5
M  V30 36 1 17 12
M  V30 37 1 31 26
M  V30 38 1 23 9
M  V30 39 1 1 36
M  V30 40 1 1 37
M  V30 41 1 1 38
M  V30 42 1 7 39
M  V30 43 1 7 40
M  V30 44 1 11 41
M  V30 45 1 13 42
M  V30 46 1 14 43
M  V30 47 1 16 44
M  V30 48 1 17 45
M  V30 49 1 21 46
M  V30 50 1 21 47
M  V30 51 1 23 48
M  V30 52 1 23 49
M  V30 53 1 24 50
M  V30 54 1 24 51
M  V30 55 1 24 52
M  V30 56 1 25 53
M  V30 57 1 25 54
M  V30 58 1 25 55
M  V30 59 1 27 56
M  V30 60 1 28 57
M  V30 61 1 30 58
M  V30 62 1 31 59
M  V30 63 1 35 60
M  V30 64 1 35 61
M  V30 END BOND
M  V30 END CTAB
M  END
