
     RDKit          3D

  0  0  0  0  0  0  0  0  0  0999 V3000
M  V30 BEGIN CTAB
M  V30 COUNTS 47 49 0 0 0
M  V30 BEGIN ATOM
M  V30 1 N 6.91243 1.16315 2.35693 0
M  V30 2 C 5.836 0.617248 1.59851 0
M  V30 3 C 6.06488 -0.149772 0.474821 0
M  V30 4 C 5.04197 -0.684137 -0.2685 0
M  V30 5 C 3.69595 -0.477918 0.0765568 0
M  V30 6 C 3.48366 0.288233 1.19936 0
M  V30 7 C 4.5185 0.826963 1.94815 0
M  V30 8 O 2.69265 -1.02271 -0.678673 0
M  V30 9 C 1.33277 -0.963434 -0.577179 0
M  V30 10 C 0.666936 0.360494 -0.71304 0
M  V30 11 N -0.784884 0.258833 -0.579196 0
M  V30 12 C -1.41824 0.380155 0.685493 0
M  V30 13 O -0.774029 0.289142 1.75778 0
M  V30 14 C -2.89114 0.623452 0.791284 0
M  V30 15 O -3.57429 0.0618702 -0.304617 0
M  V30 16 C -2.96264 -0.0559204 -1.53996 0
M  V30 17 C -1.60642 0.0312007 -1.73436 0
M  V30 18 N -1.0156 -0.0872369 -2.96083 0
M  V30 19 C -1.7811 -0.299272 -4.04039 0
M  V30 20 N -1.19761 -0.425949 -5.32246 0
M  V30 21 C -3.14844 -0.392222 -3.882 0
M  V30 22 C -3.77058 -0.278335 -2.66946 0
M  V30 23 C -3.47447 0.0454972 2.05341 0
M  V30 24 C -2.87645 0.612063 3.308 0
M  V30 25 C -4.96978 0.306982 2.01881 0
M  V30 26 H 7.84318 0.711886 2.46919 0
M  V30 27 H 6.75937 2.07134 2.8294 0
M  V30 28 H 7.11737 -0.312173 0.203331 0
M  V30 29 H 5.25395 -1.27156 -1.13032 0
M  V30 30 H 2.49248 0.502539 1.56865 0
M  V30 31 H 4.32472 1.43442 2.83846 0
M  V30 32 H 0.812952 -1.68133 -1.25319 0
M  V30 33 H 1.06157 -1.33779 0.462853 0
M  V30 34 H 0.818665 0.764879 -1.7534 0
M  V30 35 H 0.973181 1.1516 -0.0319892 0
M  V30 36 H -3.08727 1.72985 0.749137 0
M  V30 37 H -1.58324 0.0859311 -6.12908 0
M  V30 38 H -0.377294 -1.03825 -5.44756 0
M  V30 39 H -3.79669 -0.565259 -4.7487 0
M  V30 40 H -4.84284 -0.347693 -2.51947 0
M  V30 41 H -3.35176 -1.05931 1.98404 0
M  V30 42 H -2.41241 1.58178 3.06619 0
M  V30 43 H -3.69357 0.785907 4.06079 0
M  V30 44 H -2.17971 -0.130416 3.73642 0
M  V30 45 H -5.35235 0.623363 3.02724 0
M  V30 46 H -5.234 1.13815 1.32948 0
M  V30 47 H -5.54638 -0.580806 1.69009 0
M  V30 END ATOM
M  V30 BEGIN BOND
M  V30 1 1 1 2
M  V30 2 2 2 3
M  V30 3 1 3 4
M  V30 4 2 4 5
M  V30 5 1 5 6
M  V30 6 2 6 7
M  V30 7 1 5 8
M  V30 8 1 8 9
M  V30 9 1 9 10
M  V30 10 1 10 11
M  V30 11 1 11 12
M  V30 12 2 12 13
M  V30 13 1 12 14
M  V30 14 1 14 15
M  V30 15 1 15 16
M  V30 16 2 16 17
M  V30 17 1 17 18
M  V30 18 2 18 19
M  V30 19 1 19 20
M  V30 20 1 19 21
M  V30 21 2 21 22
M  V30 22 1 14 23
M  V30 23 1 23 24
M  V30 24 1 23 25
M  V30 25 1 7 2
M  V30 26 1 17 11
M  V30 27 1 22 16
M  V30 28 1 1 26
M  V30 29 1 1 27
M  V30 30 1 3 28
M  V30 31 1 4 29
M  V30 32 1 6 30
M  V30 33 1 7 31
M  V30 34 1 9 32
M  V30 35 1 9 33
M  V30 36 1 10 34
M  V30 37 1 10 35
M  V30 38 1 14 36
M  V30 39 1 20 37
M  V30 40 1 20 38
M  V30 41 1 21 39
M  V30 42 1 22 40
M  V30 43 1 23 41
M  V30 44 1 24 42
M  V30 45 1 24 43
M  V30 46 1 24 44
M  V30 47 1 25 45
M  V30 48 1 25 46
M  V30 49 1 25 47
M  V30 END BOND
M  V30 END CTAB
M  END
