
     RDKit          3D

  0  0  0  0  0  0  0  0  0  0999 V3000
M  V30 BEGIN CTAB
M  V30 COUNTS 55 59 0 0 0
M  V30 BEGIN ATOM
M  V30 1 C -9.70582 -1.49444 1.34882 0
M  V30 2 O -8.30144 -1.61432 1.2812 0
M  V30 3 C -7.56413 -0.561592 0.737083 0
M  V30 4 C -6.17527 -0.637918 0.650963 0
M  V30 5 C -5.44815 0.39866 0.115094 0
M  V30 6 C -6.11841 1.5046 -0.330739 0
M  V30 7 C -7.50221 1.61149 -0.258991 0
M  V30 8 C -8.20751 0.563468 0.280193 0
M  V30 9 C -3.97714 0.303288 0.0305223 0
M  V30 10 N -3.34741 -0.798145 0.477866 0
M  V30 11 C -2.01337 -0.92343 0.418851 0
M  V30 12 C -1.21428 0.0699416 -0.103605 0
M  V30 13 C 0.169567 -0.0700359 -0.160028 0
M  V30 14 C 0.80263 -1.18313 0.293204 0
M  V30 15 N 2.18961 -1.35958 0.278092 0
M  V30 16 C 3.21476 -0.424351 0.1245 0
M  V30 17 C 4.55873 -0.831272 0.106704 0
M  V30 18 C 5.58054 0.0662305 -0.0256286 0
M  V30 19 N 5.24078 1.36061 -0.138422 0
M  V30 20 C 3.96269 1.77871 -0.124567 0
M  V30 21 N 3.68752 3.18411 -0.251062 0
M  V30 22 N 3.00015 0.873089 0.00601592 0
M  V30 23 C 7.00283 -0.288508 -0.0519618 0
M  V30 24 C 7.39993 -1.58956 0.0589916 0
M  V30 25 C 8.73392 -1.90173 0.0322695 0
M  V30 26 C 9.68944 -0.905837 -0.106897 0
M  V30 27 Cl 11.3756 -1.32321 -0.138433 0
M  V30 28 C 9.29979 0.414647 -0.220083 0
M  V30 29 C 7.96636 0.696794 -0.190431 0
M  V30 30 C -0.0215557 -2.19249 0.824713 0
M  V30 31 C -1.38377 -2.07646 0.889863 0
M  V30 32 C -1.8094 1.22285 -0.57743 0
M  V30 33 N -1.01314 2.26238 -1.12064 0
M  V30 34 C -3.18832 1.30116 -0.493094 0
M  V30 35 H -10.1456 -2.473 1.65464 0
M  V30 36 H -10.1455 -1.27137 0.346184 0
M  V30 37 H -9.95869 -0.687536 2.06538 0
M  V30 38 H -5.65676 -1.49693 0.997437 0
M  V30 39 H -5.60686 2.33982 -0.756045 0
M  V30 40 H -7.98971 2.4988 -0.621064 0
M  V30 41 H -9.30448 0.605623 0.356481 0
M  V30 42 H 0.679135 0.778136 -0.606049 0
M  V30 43 H 2.52348 -2.38154 0.400344 0
M  V30 44 H 4.7839 -1.87769 0.199922 0
M  V30 45 H 3.56833 3.6531 -1.17392 0
M  V30 46 H 3.60313 3.75931 0.605368 0
M  V30 47 H 6.69432 -2.38568 0.167733 0
M  V30 48 H 9.03084 -2.94605 0.122269 0
M  V30 49 H 10.0241 1.2257 -0.331103 0
M  V30 50 H 7.63112 1.7109 -0.275806 0
M  V30 51 H 0.469117 -3.10089 1.19702 0
M  V30 52 H -1.98284 -2.8677 1.30244 0
M  V30 53 H -0.986231 2.32547 -2.1745 0
M  V30 54 H -0.471939 2.94262 -0.515422 0
M  V30 55 H -3.64246 2.21293 -0.869255 0
M  V30 END ATOM
M  V30 BEGIN BOND
M  V30 1 1 1 2
M  V30 2 1 2 3
M  V30 3 2 3 4
M  V30 4 1 4 5
M  V30 5 2 5 6
M  V30 6 1 6 7
M  V30 7 2 7 8
M  V30 8 1 5 9
M  V30 9 2 9 10
M  V30 10 1 10 11
M  V30 11 2 11 12
M  V30 12 1 12 13
M  V30 13 2 13 14
M  V30 14 1 14 15
M  V30 15 1 15 16
M  V30 16 2 16 17
M  V30 17 1 17 18
M  V30 18 2 18 19
M  V30 19 1 19 20
M  V30 20 1 20 21
M  V30 21 2 20 22
M  V30 22 1 18 23
M  V30 23 2 23 24
M  V30 24 1 24 25
M  V30 25 2 25 26
M  V30 26 1 26 27
M  V30 27 1 26 28
M  V30 28 2 28 29
M  V30 29 1 14 30
M  V30 30 2 30 31
M  V30 31 1 12 32
M  V30 32 1 32 33
M  V30 33 2 32 34
M  V30 34 1 8 3
M  V30 35 1 34 9
M  V30 36 1 31 11
M  V30 37 1 22 16
M  V30 38 1 29 23
M  V30 39 1 1 35
M  V30 40 1 1 36
M  V30 41 1 1 37
M  V30 42 1 4 38
M  V30 43 1 6 39
M  V30 44 1 7 40
M  V30 45 1 8 41
M  V30 46 1 13 42
M  V30 47 1 15 43
M  V30 48 1 17 44
M  V30 49 1 21 45
M  V30 50 1 21 46
M  V30 51 1 24 47
M  V30 52 1 25 48
M  V30 53 1 28 49
M  V30 54 1 29 50
M  V30 55 1 30 51
M  V30 56 1 31 52
M  V30 57 1 33 53
M  V30 58 1 33 54
M  V30 59 1 34 55
M  V30 END BOND
M  V30 END CTAB
M  END
