
     RDKit          3D

  0  0  0  0  0  0  0  0  0  0999 V3000
M  V30 BEGIN CTAB
M  V30 COUNTS 24 24 0 0 0
M  V30 BEGIN ATOM
M  V30 1 C -2.68629 -0.00683475 0.944259 0
M  V30 2 C -2.36712 -0.724922 -0.347486 0
M  V30 3 C -0.936108 -1.19655 -0.392713 0
M  V30 4 C 0.0272487 -0.0368017 -0.274631 0
M  V30 5 N -0.352529 1.19417 -0.15264 0
M  V30 6 C 0.52083 2.16164 -0.0540569 0
M  V30 7 S 2.01635 1.2993 -0.136671 0
M  V30 8 C 1.37753 -0.281862 -0.295969 0
M  V30 9 C 2.11246 -1.58196 -0.424039 0
M  V30 10 N 3.54588 -1.34711 -0.39733 0
M  V30 11 N 0.332818 3.58591 0.0875687 0
M  V30 12 H -3.64851 -0.367482 1.39901 0
M  V30 13 H -1.91175 -0.217967 1.72724 0
M  V30 14 H -2.77864 1.07278 0.749764 0
M  V30 15 H -3.04171 -1.60506 -0.38498 0
M  V30 16 H -2.64195 -0.0784306 -1.17725 0
M  V30 17 H -0.755488 -1.65056 -1.38508 0
M  V30 18 H -0.701983 -1.92438 0.385875 0
M  V30 19 H 1.83503 -2.23309 0.441475 0
M  V30 20 H 1.79234 -2.07491 -1.34083 0
M  V30 21 H 3.93963 -1.76067 -1.27103 0
M  V30 22 H 3.8021 -0.356124 -0.298735 0
M  V30 23 H -0.554069 3.89986 0.485936 0
M  V30 24 H 1.07395 4.23106 -0.207126 0
M  V30 END ATOM
M  V30 BEGIN BOND
M  V30 1 1 1 2
M  V30 2 1 2 3
M  V30 3 1 3 4
M  V30 4 1 4 5
M  V30 5 2 5 6
M  V30 6 1 6 7
M  V30 7 1 7 8
M  V30 8 1 8 9
M  V30 9 1 9 10
M  V30 10 1 6 11
M  V30 11 2 8 4
M  V30 12 1 1 12
M  V30 13 1 1 13
M  V30 14 1 1 14
M  V30 15 1 2 15
M  V30 16 1 2 16
M  V30 17 1 3 17
M  V30 18 1 3 18
M  V30 19 1 9 19
M  V30 20 1 9 20
M  V30 21 1 10 21
M  V30 22 1 10 22
M  V30 23 1 11 23
M  V30 24 1 11 24
M  V30 END BOND
M  V30 END CTAB
M  END
