
     RDKit          3D

  0  0  0  0  0  0  0  0  0  0999 V3000
M  V30 BEGIN CTAB
M  V30 COUNTS 73 78 0 0 0
M  V30 BEGIN ATOM
M  V30 1 N -5.89913 -2.11412 2.62642 0
M  V30 2 C -5.06452 -2.48532 1.53482 0
M  V30 3 N -5.50975 -3.4012 0.626548 0
M  V30 4 C -4.77402 -3.79795 -0.426964 0
M  V30 5 N -5.26883 -4.75395 -1.35318 0
M  V30 6 C -3.51909 -3.22587 -0.554587 0
M  V30 7 C -3.04663 -2.29668 0.351856 0
M  V30 8 N -3.84309 -1.96541 1.3613 0
M  V30 9 N -1.80018 -1.8992 -0.00529028 0
M  V30 10 C -1.50036 -2.57042 -1.11753 0
M  V30 11 N -2.53493 -3.37528 -1.45692 0
M  V30 12 C -1.01025 -0.935079 0.731558 0
M  V30 13 O 0.0578318 -1.52707 1.34038 0
M  V30 14 C 1.19154 -0.811549 1.12178 0
M  V30 15 C 0.779473 0.545381 0.630198 0
M  V30 16 C -0.527034 0.224943 -0.0770476 0
M  V30 17 O -1.43052 1.24925 0.00779325 0
M  V30 18 C -1.85796 1.85844 -1.11298 0
M  V30 19 C -2.54486 1.04238 -2.12634 0
M  V30 20 C -3.86612 0.654476 -2.02843 0
M  V30 21 C -4.42812 -0.100841 -3.03168 0
M  V30 22 C -3.70804 -0.480359 -4.13088 0
M  V30 23 C -2.38717 -0.094721 -4.2328 0
M  V30 24 C -1.83135 0.651885 -3.24086 0
M  V30 25 O 0.532132 1.33407 1.7359 0
M  V30 26 C 1.27731 2.51154 1.71337 0
M  V30 27 C 0.982844 3.31216 2.90666 0
M  V30 28 C 1.78015 3.09339 4.03546 0
M  V30 29 C 1.58633 3.79541 5.20489 0
M  V30 30 C 0.584052 4.74731 5.29205 0
M  V30 31 C -0.190229 4.95242 4.1793 0
M  V30 32 C 0.000387128 4.25154 3.00607 0
M  V30 33 C 2.06152 -1.54589 0.1209 0
M  V30 34 O 3.24309 -0.834574 -0.121974 0
M  V30 35 C 3.98779 -1.56827 -1.03872 0
M  V30 36 C 5.2579 -0.850108 -1.32856 0
M  V30 37 C 5.30964 0.0405794 -2.37193 0
M  V30 38 C 6.47769 0.730774 -2.66637 0
M  V30 39 C 7.57667 0.49058 -1.87905 0
M  V30 40 C 7.52901 -0.405705 -0.827593 0
M  V30 41 C 6.36328 -1.08835 -0.540657 0
M  V30 42 H -5.74068 -1.22937 3.1225 0
M  V30 43 H -6.66421 -2.74376 2.91373 0
M  V30 44 H -5.10074 -5.78926 -1.22115 0
M  V30 45 H -5.81886 -4.51888 -2.20921 0
M  V30 46 H -0.560355 -2.47574 -1.663 0
M  V30 47 H -1.63446 -0.499901 1.56987 0
M  V30 48 H 1.79313 -0.752132 2.06017 0
M  V30 49 H 1.51885 0.993627 -0.0652371 0
M  V30 50 H -0.319088 0.0267762 -1.13641 0
M  V30 51 H -2.63675 2.62206 -0.784753 0
M  V30 52 H -1.09333 2.46849 -1.64296 0
M  V30 53 H -4.43088 0.955073 -1.16182 0
M  V30 54 H -5.47041 -0.414784 -2.96776 0
M  V30 55 H -4.11473 -1.07167 -4.93486 0
M  V30 56 H -1.7637 -0.369087 -5.09159 0
M  V30 57 H -0.774674 0.945226 -3.34829 0
M  V30 58 H 1.08602 3.10276 0.778368 0
M  V30 59 H 2.37684 2.28805 1.69063 0
M  V30 60 H 2.57376 2.35534 4.00461 0
M  V30 61 H 2.21007 3.60676 6.04536 0
M  V30 62 H 0.472905 5.26734 6.22251 0
M  V30 63 H -0.970915 5.67913 4.21247 0
M  V30 64 H -0.623105 4.42307 2.12297 0
M  V30 65 H 1.57072 -1.78342 -0.819363 0
M  V30 66 H 2.36226 -2.49609 0.610961 0
M  V30 67 H 4.26504 -2.56285 -0.676424 0
M  V30 68 H 3.38265 -1.66717 -1.9617 0
M  V30 69 H 4.4055 0.194887 -2.96818 0
M  V30 70 H 6.4959 1.42648 -3.49111 0
M  V30 71 H 8.48676 1.02216 -2.09826 0
M  V30 72 H 8.41211 -0.568789 -0.229394 0
M  V30 73 H 6.26794 -1.79299 0.260429 0
M  V30 END ATOM
M  V30 BEGIN BOND
M  V30 1 1 1 2
M  V30 2 2 2 3
M  V30 3 1 3 4
M  V30 4 1 4 5
M  V30 5 2 4 6
M  V30 6 1 6 7
M  V30 7 2 7 8
M  V30 8 1 7 9
M  V30 9 1 9 10
M  V30 10 2 10 11
M  V30 11 1 9 12
M  V30 12 1 12 13
M  V30 13 1 13 14
M  V30 14 1 14 15
M  V30 15 1 15 16
M  V30 16 1 16 17
M  V30 17 1 17 18
M  V30 18 1 18 19
M  V30 19 2 19 20
M  V30 20 1 20 21
M  V30 21 2 21 22
M  V30 22 1 22 23
M  V30 23 2 23 24
M  V30 24 1 15 25
M  V30 25 1 25 26
M  V30 26 1 26 27
M  V30 27 2 27 28
M  V30 28 1 28 29
M  V30 29 2 29 30
M  V30 30 1 30 31
M  V30 31 2 31 32
M  V30 32 1 14 33
M  V30 33 1 33 34
M  V30 34 1 34 35
M  V30 35 1 35 36
M  V30 36 2 36 37
M  V30 37 1 37 38
M  V30 38 2 38 39
M  V30 39 1 39 40
M  V30 40 2 40 41
M  V30 41 1 8 2
M  V30 42 1 16 12
M  V30 43 1 24 19
M  V30 44 1 32 27
M  V30 45 1 41 36
M  V30 46 1 11 6
M  V30 47 1 1 42
M  V30 48 1 1 43
M  V30 49 1 5 44
M  V30 50 1 5 45
M  V30 51 1 10 46
M  V30 52 1 12 47
M  V30 53 1 14 48
M  V30 54 1 15 49
M  V30 55 1 16 50
M  V30 56 1 18 51
M  V30 57 1 18 52
M  V30 58 1 20 53
M  V30 59 1 21 54
M  V30 60 1 22 55
M  V30 61 1 23 56
M  V30 62 1 24 57
M  V30 63 1 26 58
M  V30 64 1 26 59
M  V30 65 1 28 60
M  V30 66 1 29 61
M  V30 67 1 30 62
M  V30 68 1 31 63
M  V30 69 1 32 64
M  V30 70 1 33 65
M  V30 71 1 33 66
M  V30 72 1 35 67
M  V30 73 1 35 68
M  V30 74 1 37 69
M  V30 75 1 38 70
M  V30 76 1 39 71
M  V30 77 1 40 72
M  V30 78 1 41 73
M  V30 END BOND
M  V30 END CTAB
M  END
