
     RDKit          3D

  0  0  0  0  0  0  0  0  0  0999 V3000
M  V30 BEGIN CTAB
M  V30 COUNTS 63 65 0 0 0
M  V30 BEGIN ATOM
M  V30 1 N 7.69738 -0.0304015 -1.17856 0
M  V30 2 C 7.1711 -1.28686 -0.908435 0
M  V30 3 C 6.39755 -1.42427 0.346898 0
M  V30 4 C 5.18512 -0.608935 0.52541 0
M  V30 5 C 5.30803 0.863008 0.502572 0
M  V30 6 C 3.95872 1.55653 0.725917 0 CFG=1
M  V30 7 C 3.00667 1.16177 -0.337082 0
M  V30 8 O 3.45006 1.36311 -1.55516 0
M  V30 9 N 1.73301 0.617854 -0.201858 0
M  V30 10 C 0.96976 0.311351 -1.40685 0
M  V30 11 C -0.355044 1.05225 -1.1808 0
M  V30 12 C -1.14367 0.26342 -0.123714 0
M  V30 13 C -0.215929 -0.391911 0.877285 0
M  V30 14 C 1.11143 0.334116 1.03747 0
M  V30 15 O -1.8736 1.19662 0.541415 0
M  V30 16 C -3.11876 0.865123 0.977311 0
M  V30 17 C -3.89761 0.327997 -0.189077 0 CFG=1
M  V30 18 C -3.30064 -1.027 -0.487364 0 CFG=1
M  V30 19 C -1.86755 -0.810818 -0.844653 0
M  V30 20 C -3.45824 -2.01121 0.621653 0
M  V30 21 O -4.016 -1.53535 -1.59642 0
M  V30 22 N -5.30383 0.366207 -0.0951844 0
M  V30 23 C -6.0135 0.401393 -1.26428 0
M  V30 24 C -7.37235 0.440722 -1.31883 0
M  V30 25 Cl -8.24396 0.485746 -2.83391 0
M  V30 26 C -8.09283 0.44617 -0.155922 0
M  V30 27 O -9.34907 0.481612 -0.138358 0
M  V30 28 N -7.39991 0.411548 1.00301 0
M  V30 29 C -6.05246 0.373078 1.01552 0
M  V30 30 O -5.44543 0.341668 2.10965 0
M  V30 31 N 3.47138 1.36989 2.04478 0
M  V30 32 H 7.98926 0.558033 -0.454249 0
M  V30 33 H 7.52547 0.379017 -2.04389 0
M  V30 34 H 8.06098 -1.98306 -0.813273 0
M  V30 35 H 6.6343 -1.7145 -1.80457 0
M  V30 36 H 6.1358 -2.51784 0.496205 0
M  V30 37 H 7.13551 -1.25069 1.19157 0
M  V30 38 H 4.42901 -0.890006 -0.270725 0
M  V30 39 H 4.67262 -0.970424 1.46812 0
M  V30 40 H 6.01418 1.31866 1.18878 0
M  V30 41 H 5.59397 1.2022 -0.536992 0
M  V30 42 H 4.10439 2.67136 0.571301 0
M  V30 43 H 0.73953 -0.763138 -1.37833 0
M  V30 44 H 1.45997 0.646418 -2.32433 0
M  V30 45 H -0.153749 2.08166 -0.819686 0
M  V30 46 H -0.973013 1.0824 -2.08302 0
M  V30 47 H 0.02802 -1.43653 0.591406 0
M  V30 48 H -0.662958 -0.437115 1.88911 0
M  V30 49 H 1.73546 -0.386468 1.60593 0
M  V30 50 H 0.97116 1.22779 1.71134 0
M  V30 51 H -3.61422 1.79247 1.33403 0
M  V30 52 H -3.01185 0.144751 1.81346 0
M  V30 53 H -3.59903 0.975503 -1.07022 0
M  V30 54 H -1.35567 -1.81256 -0.712882 0
M  V30 55 H -1.84699 -0.667373 -1.96768 0
M  V30 56 H -3.16782 -3.01761 0.197599 0
M  V30 57 H -4.52984 -2.12427 0.890873 0
M  V30 58 H -2.79431 -1.85544 1.48118 0
M  V30 59 H -4.37805 -2.43316 -1.4238 0
M  V30 60 H -5.47804 0.398145 -2.21398 0
M  V30 61 H -7.9299 0.415042 1.89636 0
M  V30 62 H 4.29764 1.20958 2.69817 0
M  V30 63 H 3.02833 2.25273 2.37974 0
M  V30 END ATOM
M  V30 BEGIN BOND
M  V30 1 1 1 2
M  V30 2 1 2 3
M  V30 3 1 3 4
M  V30 4 1 4 5
M  V30 5 1 5 6
M  V30 6 1 6 7
M  V30 7 2 7 8
M  V30 8 1 7 9
M  V30 9 1 9 10
M  V30 10 1 10 11
M  V30 11 1 11 12
M  V30 12 1 12 13
M  V30 13 1 13 14
M  V30 14 1 12 15
M  V30 15 1 15 16
M  V30 16 1 16 17
M  V30 17 1 17 18
M  V30 18 1 18 19
M  V30 19 1 18 20
M  V30 20 1 18 21 CFG=3
M  V30 21 1 17 22
M  V30 22 1 22 23
M  V30 23 2 23 24
M  V30 24 1 24 25
M  V30 25 1 24 26
M  V30 26 2 26 27
M  V30 27 1 26 28
M  V30 28 1 28 29
M  V30 29 2 29 30
M  V30 30 1 6 31
M  V30 31 1 14 9
M  V30 32 1 29 22
M  V30 33 1 19 12
M  V30 34 1 1 32
M  V30 35 1 1 33
M  V30 36 1 2 34
M  V30 37 1 2 35
M  V30 38 1 3 36
M  V30 39 1 3 37
M  V30 40 1 4 38
M  V30 41 1 4 39
M  V30 42 1 5 40
M  V30 43 1 5 41
M  V30 44 1 6 42 CFG=3
M  V30 45 1 10 43
M  V30 46 1 10 44
M  V30 47 1 11 45
M  V30 48 1 11 46
M  V30 49 1 13 47
M  V30 50 1 13 48
M  V30 51 1 14 49
M  V30 52 1 14 50
M  V30 53 1 16 51
M  V30 54 1 16 52
M  V30 55 1 17 53 CFG=3
M  V30 56 1 19 54
M  V30 57 1 19 55
M  V30 58 1 20 56
M  V30 59 1 20 57
M  V30 60 1 20 58
M  V30 61 1 21 59
M  V30 62 1 23 60
M  V30 63 1 28 61
M  V30 64 1 31 62
M  V30 65 1 31 63
M  V30 END BOND
M  V30 END CTAB
M  END
