
     RDKit          3D

  0  0  0  0  0  0  0  0  0  0999 V3000
M  V30 BEGIN CTAB
M  V30 COUNTS 27 27 0 0 0
M  V30 BEGIN ATOM
M  V30 1 C -2.73895 0.236586 -1.39151 0
M  V30 2 N -1.92812 0.578881 -0.263372 0
M  V30 3 C -0.689726 -0.0192441 0.06892 0
M  V30 4 C 0.493064 0.673114 0.160742 0
M  V30 5 C 1.68186 0.0526165 0.48798 0
M  V30 6 C 1.71833 -1.32317 0.740174 0
M  V30 7 C 0.545643 -2.01757 0.650558 0
M  V30 8 C -0.640781 -1.37678 0.320128 0
M  V30 9 N -1.8081 -2.17178 0.249467 0
M  V30 10 S 3.19935 0.921595 0.609295 0
M  V30 11 O 2.98737 2.31173 1.11045 0
M  V30 12 O 4.0907 0.202326 1.61262 0
M  V30 13 N 4.01806 0.948122 -0.915712 0
M  V30 14 C -2.42066 1.62882 0.611871 0
M  V30 15 H -3.71415 -0.147423 -0.988573 0
M  V30 16 H -3.00754 1.13942 -1.9875 0
M  V30 17 H -2.27183 -0.474392 -2.09364 0
M  V30 18 H 0.50999 1.73655 -0.0259599 0
M  V30 19 H 2.63411 -1.83583 0.998437 0
M  V30 20 H 0.579572 -3.07985 0.846337 0
M  V30 21 H -1.81724 -2.90904 -0.516084 0
M  V30 22 H -2.62046 -2.07458 0.880962 0
M  V30 23 H 5.05253 0.971452 -0.807512 0
M  V30 24 H 3.71671 0.161596 -1.52162 0
M  V30 25 H -2.03949 2.59153 0.159486 0
M  V30 26 H -2.00205 1.57893 1.6238 0
M  V30 27 H -3.52819 1.6964 0.596462 0
M  V30 END ATOM
M  V30 BEGIN BOND
M  V30 1 1 1 2
M  V30 2 1 2 3
M  V30 3 2 3 4
M  V30 4 1 4 5
M  V30 5 2 5 6
M  V30 6 1 6 7
M  V30 7 2 7 8
M  V30 8 1 8 9
M  V30 9 1 5 10
M  V30 10 2 10 11
M  V30 11 2 10 12
M  V30 12 1 10 13
M  V30 13 1 2 14
M  V30 14 1 8 3
M  V30 15 1 1 15
M  V30 16 1 1 16
M  V30 17 1 1 17
M  V30 18 1 4 18
M  V30 19 1 6 19
M  V30 20 1 7 20
M  V30 21 1 9 21
M  V30 22 1 9 22
M  V30 23 1 13 23
M  V30 24 1 13 24
M  V30 25 1 14 25
M  V30 26 1 14 26
M  V30 27 1 14 27
M  V30 END BOND
M  V30 END CTAB
M  END
