
     RDKit          3D

  0  0  0  0  0  0  0  0  0  0999 V3000
M  V30 BEGIN CTAB
M  V30 COUNTS 21 21 0 0 0
M  V30 BEGIN ATOM
M  V30 1 N -3.78124 1.34049 0.161281 0
M  V30 2 C -2.56319 0.61692 0.172749 0
M  V30 3 N -1.46707 1.2162 -0.0601592 0
M  V30 4 C -0.169071 0.652634 -0.0890805 0
M  V30 5 C 0.343416 -0.140518 0.914492 0
M  V30 6 C 1.61035 -0.701779 0.884988 0
M  V30 7 C 2.41191 -0.459418 -0.206015 0
M  V30 8 C 1.95197 0.333968 -1.25239 0
M  V30 9 C 0.687115 0.868939 -1.17677 0
M  V30 10 C 3.74104 -1.03281 -0.285258 0
M  V30 11 O 4.52078 -0.845924 -1.24861 0
M  V30 12 Cl 4.30564 -2.04608 1.02553 0
M  V30 13 N -2.55794 -0.772095 0.437508 0
M  V30 14 H -4.71213 0.845263 0.296071 0
M  V30 15 H -3.84614 2.36924 0.0237395 0
M  V30 16 H -0.261544 -0.33505 1.7669 0
M  V30 17 H 1.99104 -1.32704 1.69649 0
M  V30 18 H 2.60858 0.512472 -2.11132 0
M  V30 19 H 0.297518 1.48514 -1.96774 0
M  V30 20 H -2.62313 -1.50048 -0.314364 0
M  V30 21 H -2.4879 -1.08008 1.43214 0
M  V30 END ATOM
M  V30 BEGIN BOND
M  V30 1 1 1 2
M  V30 2 2 2 3 CFG=2
M  V30 3 1 3 4
M  V30 4 2 4 5
M  V30 5 1 5 6
M  V30 6 2 6 7
M  V30 7 1 7 8
M  V30 8 2 8 9
M  V30 9 1 7 10
M  V30 10 2 10 11
M  V30 11 1 10 12
M  V30 12 1 2 13
M  V30 13 1 9 4
M  V30 14 1 1 14
M  V30 15 1 1 15
M  V30 16 1 5 16
M  V30 17 1 6 17
M  V30 18 1 8 18
M  V30 19 1 9 19
M  V30 20 1 13 20
M  V30 21 1 13 21
M  V30 END BOND
M  V30 END CTAB
M  END
