
     RDKit          3D

  0  0  0  0  0  0  0  0  0  0999 V3000
M  V30 BEGIN CTAB
M  V30 COUNTS 110 113 0 0 0
M  V30 BEGIN ATOM
M  V30 1 C 10.4372 3.96557 2.96174 0
M  V30 2 C 10.3827 2.49403 2.50963 0
M  V30 3 S 9.17785 2.28492 1.2279 0
M  V30 4 C 9.11686 0.663306 0.528889 0
M  V30 5 S 10.704 0.382998 -0.348904 0
M  V30 6 C 10.7412 1.452 -1.83191 0
M  V30 7 C 9.68748 0.901075 -2.77978 0
M  V30 8 C 8.82304 -0.466568 1.46962 0 CFG=2
M  V30 9 C 9.90168 -0.657692 2.52613 0
M  V30 10 C 10.171 -2.17104 2.49447 0
M  V30 11 F 11.4637 -2.46215 2.84836 0
M  V30 12 F 9.23224 -2.79702 3.30252 0
M  V30 13 C 9.91331 -2.48126 1.06312 0
M  V30 14 N 8.65548 -1.71402 0.806964 0
M  V30 15 C 7.63894 -2.32075 0.0359028 0
M  V30 16 O 7.95047 -3.52091 -0.449073 0
M  V30 17 C 6.32669 -1.9071 -0.341945 0
M  V30 18 C 5.57322 -2.65327 -1.26111 0
M  V30 19 N 6.18468 -3.80529 -1.82865 0
M  V30 20 C 4.30166 -2.29296 -1.59349 0
M  V30 21 C 3.66371 -1.18506 -1.06246 0
M  V30 22 O 2.46811 -0.77076 -1.33961 0
M  V30 23 C 1.29384 -0.365544 -1.61333 0
M  V30 24 C 0.0985482 -1.2758 -1.61026 0
M  V30 25 C -0.0878816 -2.01755 -0.325173 0
M  V30 26 C -1.43364 -2.80673 -0.545281 0
M  V30 27 O -2.37662 -1.85871 -0.649727 0
M  V30 28 C -3.60309 -1.53313 -0.890806 0
M  V30 29 C -4.58593 -2.40553 -1.29194 0
M  V30 30 C -5.8711 -2.01641 -1.52697 0
M  V30 31 N -6.86448 -2.96195 -1.94779 0
M  V30 32 C -6.28005 -0.673073 -1.3693 0
M  V30 33 C -5.30759 0.204351 -0.971122 0
M  V30 34 C -4.01128 -0.206828 -0.73875 0
M  V30 35 O -3.04227 0.695306 -0.338402 0
M  V30 36 C -3.23999 2.07236 -0.129261 0
M  V30 37 C -7.60524 -0.290653 -1.78623 0
M  V30 38 O -8.21155 -1.1388 -2.59442 0
M  V30 39 N -8.33869 0.825731 -1.47313 0
M  V30 40 C -9.5981 1.14022 -2.22838 0
M  V30 41 C -9.47347 2.65664 -2.3647 0
M  V30 42 F -10.6051 3.28361 -2.74323 0
M  V30 43 F -8.5305 2.93537 -3.38378 0
M  V30 44 C -8.86941 3.03809 -1.05688 0
M  V30 45 C -8.27938 1.79135 -0.418025 0 CFG=1
M  V30 46 C -9.00084 1.36741 0.844827 0
M  V30 47 S -10.7131 1.02762 0.815414 0
M  V30 48 C -11.878 2.34269 0.655057 0
M  V30 49 C -13.2935 1.70522 0.647687 0
M  V30 50 S -8.05557 -0.0652784 1.52739 0
M  V30 51 C -8.85424 -0.698204 3.02924 0
M  V30 52 C -10.209 -1.30157 2.70772 0
M  V30 53 C 4.44385 -0.461451 -0.141286 0
M  V30 54 O 3.85212 0.673268 0.438801 0
M  V30 55 C 4.50927 1.53323 1.30699 0
M  V30 56 C 5.71227 -0.816919 0.191287 0
M  V30 57 H 11.2553 4.44709 2.39346 0
M  V30 58 H 10.6845 3.97261 4.02753 0
M  V30 59 H 9.48306 4.47762 2.8036 0
M  V30 60 H 11.382 2.21692 2.18437 0
M  V30 61 H 10.1483 1.87366 3.41234 0
M  V30 62 H 8.30206 0.67174 -0.254276 0
M  V30 63 H 10.4446 2.48141 -1.5386 0
M  V30 64 H 11.7561 1.39012 -2.27216 0
M  V30 65 H 9.59533 1.55245 -3.66134 0
M  V30 66 H 8.69361 0.834121 -2.29411 0
M  V30 67 H 9.96882 -0.155291 -3.04745 0
M  V30 68 H 7.92013 -0.153381 2.0944 0
M  V30 69 H 10.8073 -0.104675 2.27871 0
M  V30 70 H 9.57433 -0.388223 3.54046 0
M  V30 71 H 10.6991 -2.15222 0.387779 0
M  V30 72 H 9.70555 -3.5744 0.890966 0
M  V30 73 H 6.76439 -3.70756 -2.66183 0
M  V30 74 H 6.02973 -4.7233 -1.38845 0
M  V30 75 H 3.72806 -2.89268 -2.31829 0
M  V30 76 H 1.23672 0.200287 -2.64691 0
M  V30 77 H 0.995942 0.534411 -0.915943 0
M  V30 78 H 0.235347 -2.01929 -2.44123 0
M  V30 79 H -0.781458 -0.632007 -1.8653 0
M  V30 80 H 0.711762 -2.76951 -0.222655 0
M  V30 81 H -0.130892 -1.40784 0.561426 0
M  V30 82 H -1.5126 -3.58011 0.225702 0
M  V30 83 H -1.25747 -3.33085 -1.51044 0
M  V30 84 H -4.37813 -3.46921 -1.44255 0
M  V30 85 H -6.92253 -3.214 -2.95292 0
M  V30 86 H -7.52187 -3.40084 -1.28931 0
M  V30 87 H -5.53144 1.26976 -0.862473 0
M  V30 88 H -3.89528 2.45197 -0.929112 0
M  V30 89 H -2.25107 2.57912 -0.201772 0
M  V30 90 H -3.67599 2.25661 0.881408 0
M  V30 91 H -10.4932 0.864723 -1.72143 0
M  V30 92 H -9.49536 0.751068 -3.26233 0
M  V30 93 H -9.57466 3.57889 -0.44074 0
M  V30 94 H -7.96558 3.70261 -1.28281 0
M  V30 95 H -7.25488 2.01173 -0.0837092 0
M  V30 96 H -8.82348 2.17279 1.64737 0
M  V30 97 H -11.7817 2.9846 -0.227451 0
M  V30 98 H -11.9133 3.03826 1.53145 0
M  V30 99 H -13.4072 1.19516 -0.35285 0
M  V30 100 H -13.248 0.889929 1.39722 0
M  V30 101 H -14.0665 2.45996 0.842689 0
M  V30 102 H -8.9464 0.139677 3.72643 0
M  V30 103 H -8.18216 -1.45174 3.46597 0
M  V30 104 H -10.334 -1.51566 1.64095 0
M  V30 105 H -10.263 -2.28988 3.22197 0
M  V30 106 H -10.9807 -0.668898 3.16844 0
M  V30 107 H 4.0191 2.55407 1.23141 0
M  V30 108 H 4.46796 1.17932 2.35188 0
M  V30 109 H 5.54429 1.70823 0.934753 0
M  V30 110 H 6.22982 -0.175717 0.934966 0
M  V30 END ATOM
M  V30 BEGIN BOND
M  V30 1 1 1 2
M  V30 2 1 2 3
M  V30 3 1 3 4
M  V30 4 1 4 5
M  V30 5 1 5 6
M  V30 6 1 6 7
M  V30 7 1 4 8
M  V30 8 1 8 9
M  V30 9 1 9 10
M  V30 10 1 10 11
M  V30 11 1 10 12
M  V30 12 1 10 13
M  V30 13 1 13 14
M  V30 14 1 14 15
M  V30 15 2 15 16
M  V30 16 1 15 17
M  V30 17 2 17 18
M  V30 18 1 18 19
M  V30 19 1 18 20
M  V30 20 2 20 21
M  V30 21 1 21 22
M  V30 22 1 22 23
M  V30 23 1 23 24
M  V30 24 1 24 25
M  V30 25 1 25 26
M  V30 26 1 26 27
M  V30 27 1 27 28
M  V30 28 2 28 29
M  V30 29 1 29 30
M  V30 30 1 30 31
M  V30 31 2 30 32
M  V30 32 1 32 33
M  V30 33 2 33 34
M  V30 34 1 34 35
M  V30 35 1 35 36
M  V30 36 1 32 37
M  V30 37 2 37 38
M  V30 38 1 37 39
M  V30 39 1 39 40
M  V30 40 1 40 41
M  V30 41 1 41 42
M  V30 42 1 41 43
M  V30 43 1 41 44
M  V30 44 1 44 45
M  V30 45 1 45 46
M  V30 46 1 46 47
M  V30 47 1 47 48
M  V30 48 1 48 49
M  V30 49 1 46 50
M  V30 50 1 50 51
M  V30 51 1 51 52
M  V30 52 1 21 53
M  V30 53 1 53 54
M  V30 54 1 54 55
M  V30 55 2 53 56
M  V30 56 1 14 8
M  V30 57 1 56 17
M  V30 58 1 34 28
M  V30 59 1 45 39
M  V30 60 1 1 57
M  V30 61 1 1 58
M  V30 62 1 1 59
M  V30 63 1 2 60
M  V30 64 1 2 61
M  V30 65 1 4 62
M  V30 66 1 6 63
M  V30 67 1 6 64
M  V30 68 1 7 65
M  V30 69 1 7 66
M  V30 70 1 7 67
M  V30 71 1 8 68 CFG=1
M  V30 72 1 9 69
M  V30 73 1 9 70
M  V30 74 1 13 71
M  V30 75 1 13 72
M  V30 76 1 19 73
M  V30 77 1 19 74
M  V30 78 1 20 75
M  V30 79 1 23 76
M  V30 80 1 23 77
M  V30 81 1 24 78
M  V30 82 1 24 79
M  V30 83 1 25 80
M  V30 84 1 25 81
M  V30 85 1 26 82
M  V30 86 1 26 83
M  V30 87 1 29 84
M  V30 88 1 31 85
M  V30 89 1 31 86
M  V30 90 1 33 87
M  V30 91 1 36 88
M  V30 92 1 36 89
M  V30 93 1 36 90
M  V30 94 1 40 91
M  V30 95 1 40 92
M  V30 96 1 44 93
M  V30 97 1 44 94
M  V30 98 1 45 95 CFG=1
M  V30 99 1 46 96
M  V30 100 1 48 97
M  V30 101 1 48 98
M  V30 102 1 49 99
M  V30 103 1 49 100
M  V30 104 1 49 101
M  V30 105 1 51 102
M  V30 106 1 51 103
M  V30 107 1 52 104
M  V30 108 1 52 105
M  V30 109 1 52 106
M  V30 110 1 55 107
M  V30 111 1 55 108
M  V30 112 1 55 109
M  V30 113 1 56 110
M  V30 END BOND
M  V30 END CTAB
M  END
