
     RDKit          3D

  0  0  0  0  0  0  0  0  0  0999 V3000
M  V30 BEGIN CTAB
M  V30 COUNTS 25 26 0 0 0
M  V30 BEGIN ATOM
M  V30 1 C 0.990171 2.48164 -0.52433 0
M  V30 2 C 1.49796 1.11485 -0.294208 0
M  V30 3 C 2.88718 0.973599 -0.310511 0
M  V30 4 C 3.49191 -0.238166 -0.110985 0
M  V30 5 C 2.69301 -1.3265 0.108474 0
M  V30 6 C 1.31192 -1.16404 0.120709 0
M  V30 7 C 0.670301 0.0301029 -0.074545 0
M  V30 8 C -0.772947 0.192204 -0.0605262 0
M  V30 9 N -1.4127 1.36904 -0.253333 0
M  V30 10 N -2.71967 1.22319 -0.187911 0
M  V30 11 C -2.99261 -0.0684935 0.0529216 0
M  V30 12 N -1.77328 -0.672705 0.125223 0
M  V30 13 N -1.65486 -2.0324 0.366594 0
M  V30 14 N -4.25995 -0.686861 0.202212 0
M  V30 15 H 0.399121 2.5899 -1.44892 0
M  V30 16 H 1.85975 3.20375 -0.664881 0
M  V30 17 H 0.46827 2.8824 0.361787 0
M  V30 18 H 3.53112 1.82091 -0.482067 0
M  V30 19 H 4.56842 -0.374159 -0.118856 0
M  V30 20 H 3.13632 -2.31982 0.273601 0
M  V30 21 H 0.759553 -2.04341 0.295219 0
M  V30 22 H -1.63602 -2.71669 -0.419832 0
M  V30 23 H -1.58154 -2.40162 1.34856 0
M  V30 24 H -5.11763 -0.238624 -0.163707 0
M  V30 25 H -4.34381 -1.5981 0.680949 0
M  V30 END ATOM
M  V30 BEGIN BOND
M  V30 1 1 1 2
M  V30 2 2 2 3
M  V30 3 1 3 4
M  V30 4 2 4 5
M  V30 5 1 5 6
M  V30 6 2 6 7
M  V30 7 1 7 8
M  V30 8 2 8 9
M  V30 9 1 9 10
M  V30 10 2 10 11
M  V30 11 1 11 12
M  V30 12 1 12 13
M  V30 13 1 11 14
M  V30 14 1 7 2
M  V30 15 1 12 8
M  V30 16 1 1 15
M  V30 17 1 1 16
M  V30 18 1 1 17
M  V30 19 1 3 18
M  V30 20 1 4 19
M  V30 21 1 5 20
M  V30 22 1 6 21
M  V30 23 1 13 22
M  V30 24 1 13 23
M  V30 25 1 14 24
M  V30 26 1 14 25
M  V30 END BOND
M  V30 END CTAB
M  END
