
     RDKit          3D

  0  0  0  0  0  0  0  0  0  0999 V3000
M  V30 BEGIN CTAB
M  V30 COUNTS 36 37 0 0 0
M  V30 BEGIN ATOM
M  V30 1 N 2.54013 -0.935937 1.85537 0
M  V30 2 C 3.21243 -1.28483 0.667922 0
M  V30 3 N 4.06132 -2.23089 0.676435 0
M  V30 4 C 2.93107 -0.563461 -0.551121 0
M  V30 5 C 3.5521 -0.848424 -1.75868 0
M  V30 6 C 3.24351 -0.122026 -2.90273 0
M  V30 7 C 2.31331 0.894748 -2.85344 0
M  V30 8 C 1.6677 1.21005 -1.65491 0
M  V30 9 C 0.684731 2.32333 -1.66912 0
M  V30 10 O -0.200485 2.32935 -0.602918 0
M  V30 11 C -1.12061 1.39123 -0.236775 0
M  V30 12 C -1.86751 1.69345 0.910296 0
M  V30 13 I -1.55578 3.48826 1.96823 0
M  V30 14 C -2.82192 0.832002 1.378 0
M  V30 15 C -3.09058 -0.37804 0.735651 0
M  V30 16 C -2.35232 -0.656147 -0.381934 0
M  V30 17 C -1.38667 0.215632 -0.855241 0
M  V30 18 C -4.0984 -1.28325 1.23332 0
M  V30 19 N -4.82332 -0.924445 2.3993 0
M  V30 20 N -4.35314 -2.38871 0.657712 0
M  V30 21 C 1.99932 0.472314 -0.553355 0
M  V30 22 H 2.12335 -1.61018 2.5281 0
M  V30 23 H 2.45771 0.0927842 2.07112 0
M  V30 24 H 4.62906 -2.60742 -0.0820391 0
M  V30 25 H 4.28424 -1.63999 -1.82346 0
M  V30 26 H 3.75661 -0.388549 -3.80767 0
M  V30 27 H 2.07889 1.45481 -3.74714 0
M  V30 28 H 0.188396 2.33305 -2.66648 0
M  V30 29 H 1.24467 3.30493 -1.63336 0
M  V30 30 H -3.42622 1.03167 2.2702 0
M  V30 31 H -2.4782 -1.56547 -0.956798 0
M  V30 32 H -0.829177 -0.0350377 -1.74297 0
M  V30 33 H -4.62895 -1.42804 3.27976 0
M  V30 34 H -5.53185 -0.165227 2.34247 0
M  V30 35 H -3.89059 -2.74031 -0.184399 0
M  V30 36 H 1.48718 0.728787 0.378407 0
M  V30 END ATOM
M  V30 BEGIN BOND
M  V30 1 1 1 2
M  V30 2 2 2 3 CFG=2
M  V30 3 1 2 4
M  V30 4 2 4 5
M  V30 5 1 5 6
M  V30 6 2 6 7
M  V30 7 1 7 8
M  V30 8 1 8 9
M  V30 9 1 9 10
M  V30 10 1 10 11
M  V30 11 2 11 12
M  V30 12 1 12 13
M  V30 13 1 12 14
M  V30 14 2 14 15
M  V30 15 1 15 16
M  V30 16 2 16 17
M  V30 17 1 15 18
M  V30 18 1 18 19
M  V30 19 2 18 20 CFG=2
M  V30 20 2 8 21
M  V30 21 1 21 4
M  V30 22 1 17 11
M  V30 23 1 1 22
M  V30 24 1 1 23
M  V30 25 1 3 24
M  V30 26 1 5 25
M  V30 27 1 6 26
M  V30 28 1 7 27
M  V30 29 1 9 28
M  V30 30 1 9 29
M  V30 31 1 14 30
M  V30 32 1 16 31
M  V30 33 1 17 32
M  V30 34 1 19 33
M  V30 35 1 19 34
M  V30 36 1 20 35
M  V30 37 1 21 36
M  V30 END BOND
M  V30 END CTAB
M  END
