
     RDKit          3D

  0  0  0  0  0  0  0  0  0  0999 V3000
M  V30 BEGIN CTAB
M  V30 COUNTS 48 50 0 0 0
M  V30 BEGIN ATOM
M  V30 1 C 4.20557 1.65391 -5.06277 0
M  V30 2 C 4.5548 0.655425 -3.96236 0
M  V30 3 O 5.53514 -0.0410548 -4.10445 0
M  V30 4 N 3.70629 0.577884 -2.81659 0
M  V30 5 C 3.32933 0.0347049 -1.61183 0
M  V30 6 C 3.92801 -1.07405 -1.13507 0
M  V30 7 C 3.50089 -1.73799 -0.0203424 0
M  V30 8 C 2.39395 -1.29461 0.701813 0
M  V30 9 C 1.76516 -0.170839 0.224037 0
M  V30 10 C 2.20219 0.533114 -0.931435 0
M  V30 11 C 1.56565 1.632 -1.41828 0
M  V30 12 O 2.03162 2.28623 -2.53825 0
M  V30 13 C 0.411179 2.11785 -0.769296 0
M  V30 14 C -0.0107587 1.43825 0.331954 0
M  V30 15 C 0.622905 0.343436 0.815823 0
M  V30 16 N 0.0242531 -0.376273 1.9355 0
M  V30 17 N -1.11411 -0.469386 2.01609 0
M  V30 18 C -2.45614 -0.567029 2.08949 0
M  V30 19 C -3.29123 -0.0357037 1.12423 0
M  V30 20 C -4.66198 -0.0505773 1.17928 0
M  V30 21 C -5.25167 -0.638048 2.26486 0
M  V30 22 C -4.50355 -1.19448 3.28112 0
M  V30 23 C -3.11259 -1.15198 3.17653 0
M  V30 24 Cl -2.14223 -1.86479 4.48031 0
M  V30 25 S -5.65776 0.639121 -0.0745922 0
M  V30 26 N -6.8906 -0.481342 -0.600312 0
M  V30 27 O -6.34169 1.88334 0.447532 0
M  V30 28 O -4.75723 0.994481 -1.28098 0
M  V30 29 S 1.94793 -2.02916 2.18256 0
M  V30 30 N 2.06818 -1.10158 3.61781 0
M  V30 31 O 3.22625 -2.89469 2.50586 0
M  V30 32 O 1.02558 -3.16845 2.17855 0
M  V30 33 H 3.09902 1.62913 -5.21854 0
M  V30 34 H 4.80066 1.38324 -5.93168 0
M  V30 35 H 4.4392 2.65675 -4.67629 0
M  V30 36 H 4.98892 0.740298 -2.15424 0
M  V30 37 H 4.80127 -1.48442 -1.6799 0
M  V30 38 H 4.00252 -2.63983 0.335854 0
M  V30 39 H 1.51266 3.09838 -2.90026 0
M  V30 40 H -0.060157 2.99189 -1.20697 0
M  V30 41 H -0.892976 1.82298 0.85012 0
M  V30 42 H -2.89284 0.448596 0.211927 0
M  V30 43 H -6.34352 -0.713908 2.3693 0
M  V30 44 H -4.99049 -1.64272 4.11307 0
M  V30 45 H -6.97061 -0.376992 -1.65851 0
M  V30 46 H -7.772 -0.219061 -0.0931805 0
M  V30 47 H 2.9809 -0.741012 3.83455 0
M  V30 48 H 1.44411 -1.40102 4.35453 0
M  V30 END ATOM
M  V30 BEGIN BOND
M  V30 1 1 1 2
M  V30 2 2 2 3
M  V30 3 1 2 4
M  V30 4 1 4 5
M  V30 5 2 5 6
M  V30 6 1 6 7
M  V30 7 2 7 8
M  V30 8 1 8 9
M  V30 9 2 9 10
M  V30 10 1 10 11
M  V30 11 1 11 12
M  V30 12 2 11 13
M  V30 13 1 13 14
M  V30 14 2 14 15
M  V30 15 1 15 16
M  V30 16 2 16 17 CFG=2
M  V30 17 1 17 18
M  V30 18 2 18 19
M  V30 19 1 19 20
M  V30 20 2 20 21
M  V30 21 1 21 22
M  V30 22 2 22 23
M  V30 23 1 23 24
M  V30 24 1 20 25
M  V30 25 1 25 26
M  V30 26 2 25 27
M  V30 27 2 25 28
M  V30 28 1 8 29
M  V30 29 1 29 30
M  V30 30 2 29 31
M  V30 31 2 29 32
M  V30 32 1 10 5
M  V30 33 1 23 18
M  V30 34 1 15 9
M  V30 35 1 1 33
M  V30 36 1 1 34
M  V30 37 1 1 35
M  V30 38 1 4 36
M  V30 39 1 6 37
M  V30 40 1 7 38
M  V30 41 1 12 39
M  V30 42 1 13 40
M  V30 43 1 14 41
M  V30 44 1 19 42
M  V30 45 1 21 43
M  V30 46 1 22 44
M  V30 47 1 26 45
M  V30 48 1 26 46
M  V30 49 1 30 47
M  V30 50 1 30 48
M  V30 END BOND
M  V30 END CTAB
M  END
