
     RDKit          3D

  0  0  0  0  0  0  0  0  0  0999 V3000
M  V30 BEGIN CTAB
M  V30 COUNTS 38 40 0 0 0
M  V30 BEGIN ATOM
M  V30 1 N 4.95811 -0.18049 2.37571 0
M  V30 2 C 4.17191 -0.234623 1.19189 0
M  V30 3 N 3.03332 -0.950405 1.13514 0
M  V30 4 C 2.27213 -1.01206 0.0129829 0
M  V30 5 C 1.02044 -1.81481 -0.00895508 0
M  V30 6 N -0.0563056 -0.977192 0.407038 0
M  V30 7 C -1.33684 -1.59681 0.443833 0
M  V30 8 C -2.29566 -0.846145 -0.410123 0 CFG=2
M  V30 9 C -1.59349 0.488151 -0.608725 0 CFG=2
M  V30 10 C -0.128078 0.146776 -0.506114 0
M  V30 11 C -1.92139 1.41941 0.547333 0
M  V30 12 C -3.32449 1.9304 0.267909 0
M  V30 13 C -4.10161 0.782834 -0.333791 0
M  V30 14 C -3.61667 -0.563617 0.221336 0
M  V30 15 N 2.72389 -0.313117 -1.04371 0
M  V30 16 C 3.85477 0.412826 -1.02638 0
M  V30 17 N 4.55924 0.434777 0.103484 0
M  V30 18 N 4.30155 1.14502 -2.17794 0
M  V30 19 H 4.55524 0.261371 3.2315 0
M  V30 20 H 5.92241 -0.576399 2.38799 0
M  V30 21 H 1.12415 -2.74557 0.58342 0
M  V30 22 H 0.807939 -2.12327 -1.0718 0
M  V30 23 H -1.27739 -2.67447 0.128539 0
M  V30 24 H -1.69643 -1.62077 1.51205 0
M  V30 25 H -2.42535 -1.37811 -1.37396 0
M  V30 26 H -1.89276 0.909186 -1.56594 0
M  V30 27 H 0.188231 -0.13592 -1.54619 0
M  V30 28 H 0.491724 0.981777 -0.129586 0
M  V30 29 H -1.91906 0.872784 1.50822 0
M  V30 30 H -1.17451 2.22808 0.586859 0
M  V30 31 H -3.80291 2.32875 1.18377 0
M  V30 32 H -3.22721 2.74713 -0.468609 0
M  V30 33 H -3.95338 0.743008 -1.43296 0
M  V30 34 H -5.18298 0.93023 -0.10436 0
M  V30 35 H -3.61855 -0.528526 1.30851 0
M  V30 36 H -4.36233 -1.30814 -0.147901 0
M  V30 37 H 4.77727 0.639884 -2.93722 0
M  V30 38 H 4.14508 2.17807 -2.24324 0
M  V30 END ATOM
M  V30 BEGIN BOND
M  V30 1 1 1 2
M  V30 2 2 2 3
M  V30 3 1 3 4
M  V30 4 1 4 5
M  V30 5 1 5 6
M  V30 6 1 6 7
M  V30 7 1 7 8
M  V30 8 1 8 9
M  V30 9 1 9 10
M  V30 10 1 9 11
M  V30 11 1 11 12
M  V30 12 1 12 13
M  V30 13 1 13 14
M  V30 14 2 4 15
M  V30 15 1 15 16
M  V30 16 2 16 17
M  V30 17 1 16 18
M  V30 18 1 17 2
M  V30 19 1 10 6
M  V30 20 1 14 8
M  V30 21 1 1 19
M  V30 22 1 1 20
M  V30 23 1 5 21
M  V30 24 1 5 22
M  V30 25 1 7 23
M  V30 26 1 7 24
M  V30 27 1 8 25 CFG=3
M  V30 28 1 9 26 CFG=3
M  V30 29 1 10 27
M  V30 30 1 10 28
M  V30 31 1 11 29
M  V30 32 1 11 30
M  V30 33 1 12 31
M  V30 34 1 12 32
M  V30 35 1 13 33
M  V30 36 1 13 34
M  V30 37 1 14 35
M  V30 38 1 14 36
M  V30 39 1 18 37
M  V30 40 1 18 38
M  V30 END BOND
M  V30 END CTAB
M  END
