
     RDKit          3D

  0  0  0  0  0  0  0  0  0  0999 V3000
M  V30 BEGIN CTAB
M  V30 COUNTS 17 17 0 0 0
M  V30 BEGIN ATOM
M  V30 1 N -3.13259 0.880989 -0.399174 0
M  V30 2 N -1.74535 0.950702 -0.504564 0
M  V30 3 C -1.04443 0.0274935 0.0317874 0
M  V30 4 N -1.69076 -1.02919 0.710938 0
M  V30 5 C 0.420376 0.0362342 -0.0395577 0
M  V30 6 N 1.10282 1.00838 -0.668276 0
M  V30 7 C 2.4445 1.02557 -0.739292 0
M  V30 8 C 3.1933 0.0247176 -0.157409 0
M  V30 9 N 2.52641 -0.955345 0.475469 0
M  V30 10 C 1.18345 -0.957049 0.537031 0
M  V30 11 H -3.70888 0.747695 -1.26594 0
M  V30 12 H -3.62606 0.957419 0.521744 0
M  V30 13 H -2.48504 -1.50682 0.252917 0
M  V30 14 H -1.35382 -1.30016 1.65094 0
M  V30 15 H 2.9814 1.81541 -1.24932 0
M  V30 16 H 4.28842 0.0323922 -0.211458 0
M  V30 17 H 0.646248 -1.75844 1.05417 0
M  V30 END ATOM
M  V30 BEGIN BOND
M  V30 1 1 1 2
M  V30 2 2 2 3 CFG=2
M  V30 3 1 3 4
M  V30 4 1 3 5
M  V30 5 2 5 6
M  V30 6 1 6 7
M  V30 7 2 7 8
M  V30 8 1 8 9
M  V30 9 2 9 10
M  V30 10 1 10 5
M  V30 11 1 1 11
M  V30 12 1 1 12
M  V30 13 1 4 13
M  V30 14 1 4 14
M  V30 15 1 7 15
M  V30 16 1 8 16
M  V30 17 1 10 17
M  V30 END BOND
M  V30 END CTAB
M  END
