
     RDKit          3D

  0  0  0  0  0  0  0  0  0  0999 V3000
M  V30 BEGIN CTAB
M  V30 COUNTS 29 30 0 0 0
M  V30 BEGIN ATOM
M  V30 1 N -3.85118 1.44267 -0.417761 0
M  V30 2 C -2.99922 0.366396 -0.0520925 0
M  V30 3 C -3.49832 -0.838375 0.390494 0
M  V30 4 C -2.6478 -1.86515 0.738215 0
M  V30 5 N -1.34407 -1.63317 0.6245 0
M  V30 6 C -0.790551 -0.463245 0.192548 0
M  V30 7 C -1.62227 0.56378 -0.154512 0
M  V30 8 N -1.20782 1.83013 -0.584772 0
M  V30 9 C 0.689345 -0.339726 0.145196 0
M  V30 10 C 1.36401 -1.34593 0.674713 0
M  V30 11 C 2.84679 -1.45825 0.752398 0
M  V30 12 C 3.4857 -0.109806 0.457636 0
M  V30 13 C 2.81976 0.521664 -0.730472 0
M  V30 14 C 1.36809 0.805581 -0.482102 0
M  V30 15 H -3.61223 2.45085 -0.317404 0
M  V30 16 H -4.78541 1.21273 -0.816363 0
M  V30 17 H -4.56398 -0.999627 0.472806 0
M  V30 18 H -3.06571 -2.80287 1.08383 0
M  V30 19 H -0.915734 2.58473 0.0651156 0
M  V30 20 H -1.19794 2.04091 -1.603 0
M  V30 21 H 0.765128 -2.17668 1.09906 0
M  V30 22 H 3.15702 -1.81597 1.75804 0
M  V30 23 H 3.18105 -2.2279 0.0302053 0
M  V30 24 H 4.55109 -0.276239 0.197388 0
M  V30 25 H 3.44293 0.543977 1.33381 0
M  V30 26 H 3.39808 1.45014 -0.961426 0
M  V30 27 H 2.88329 -0.18634 -1.59319 0
M  V30 28 H 1.2726 1.7599 0.074422 0
M  V30 29 H 0.877369 0.965835 -1.47989 0
M  V30 END ATOM
M  V30 BEGIN BOND
M  V30 1 1 1 2
M  V30 2 2 2 3
M  V30 3 1 3 4
M  V30 4 2 4 5
M  V30 5 1 5 6
M  V30 6 2 6 7
M  V30 7 1 7 8
M  V30 8 1 6 9
M  V30 9 2 9 10
M  V30 10 1 10 11
M  V30 11 1 11 12
M  V30 12 1 12 13
M  V30 13 1 13 14
M  V30 14 1 7 2
M  V30 15 1 14 9
M  V30 16 1 1 15
M  V30 17 1 1 16
M  V30 18 1 3 17
M  V30 19 1 4 18
M  V30 20 1 8 19
M  V30 21 1 8 20
M  V30 22 1 10 21
M  V30 23 1 11 22
M  V30 24 1 11 23
M  V30 25 1 12 24
M  V30 26 1 12 25
M  V30 27 1 13 26
M  V30 28 1 13 27
M  V30 29 1 14 28
M  V30 30 1 14 29
M  V30 END BOND
M  V30 END CTAB
M  END
