
     RDKit          3D

  0  0  0  0  0  0  0  0  0  0999 V3000
M  V30 BEGIN CTAB
M  V30 COUNTS 26 28 0 0 0
M  V30 BEGIN ATOM
M  V30 1 N -4.36501 1.18363 0.0871396 0
M  V30 2 C -3.23478 0.323166 0.163958 0
M  V30 3 C -3.38733 -1.04323 0.287463 0
M  V30 4 C -2.29197 -1.87778 0.361965 0
M  V30 5 C -1.00884 -1.33248 0.311719 0
M  V30 6 C 0.328456 -1.91931 0.363666 0
M  V30 7 O 0.528913 -3.14991 0.474637 0
M  V30 8 C 1.32306 -0.848955 0.266231 0
M  V30 9 C 0.608499 0.338944 0.15952 0
M  V30 10 C 1.27141 1.54347 0.0502232 0
M  V30 11 C 2.63655 1.56184 0.0474884 0
M  V30 12 C 3.34754 0.362684 0.15522 0
M  V30 13 N 4.76897 0.379619 0.152569 0
M  V30 14 C 2.70165 -0.845267 0.264813 0
M  V30 15 C -0.82382 0.0293202 0.188599 0
M  V30 16 C -1.94948 0.846739 0.115671 0
M  V30 17 H -4.30389 2.13404 -0.340522 0
M  V30 18 H -5.29693 0.893568 0.456738 0
M  V30 19 H -4.38475 -1.45881 0.325767 0
M  V30 20 H -2.43706 -2.94484 0.458425 0
M  V30 21 H 0.716705 2.46784 -0.0328225 0
M  V30 22 H 3.23694 2.46486 -0.0345264 0
M  V30 23 H 5.32202 -0.465234 -0.0906608 0
M  V30 24 H 5.30056 1.24233 0.395182 0
M  V30 25 H 3.19774 -1.8001 0.350648 0
M  V30 26 H -1.80515 1.91386 0.0192002 0
M  V30 END ATOM
M  V30 BEGIN BOND
M  V30 1 1 1 2
M  V30 2 2 2 3
M  V30 3 1 3 4
M  V30 4 2 4 5
M  V30 5 1 5 6
M  V30 6 2 6 7
M  V30 7 1 6 8
M  V30 8 2 8 9
M  V30 9 1 9 10
M  V30 10 2 10 11
M  V30 11 1 11 12
M  V30 12 1 12 13
M  V30 13 2 12 14
M  V30 14 1 9 15
M  V30 15 2 15 16
M  V30 16 1 16 2
M  V30 17 1 15 5
M  V30 18 1 14 8
M  V30 19 1 1 17
M  V30 20 1 1 18
M  V30 21 1 3 19
M  V30 22 1 4 20
M  V30 23 1 10 21
M  V30 24 1 11 22
M  V30 25 1 13 23
M  V30 26 1 13 24
M  V30 27 1 14 25
M  V30 28 1 16 26
M  V30 END BOND
M  V30 END CTAB
M  END
