
     RDKit          3D

  0  0  0  0  0  0  0  0  0  0999 V3000
M  V30 BEGIN CTAB
M  V30 COUNTS 22 23 0 0 0
M  V30 BEGIN ATOM
M  V30 1 C 4.02846 0.534634 0.581718 0
M  V30 2 C 2.56506 0.36278 0.385934 0
M  V30 3 N 1.65692 1.31251 0.564464 0
M  V30 4 C 0.432942 0.783127 0.291185 0
M  V30 5 C -0.848988 1.28919 0.306166 0
M  V30 6 C -1.96976 0.527689 -0.0226739 0
M  V30 7 N -3.26862 1.10085 0.00966273 0
M  V30 8 C -1.76199 -0.798826 -0.378555 0
M  V30 9 N -2.91538 -1.5558 -0.709371 0
M  V30 10 C -0.486906 -1.32343 -0.39949 0
M  V30 11 C 0.6079 -0.534678 -0.0655224 0
M  V30 12 N 1.93776 -0.754836 0.00551043 0
M  V30 13 H 4.61786 -0.102427 -0.139839 0
M  V30 14 H 4.29018 0.288638 1.63272 0
M  V30 15 H 4.28963 1.61698 0.450729 0
M  V30 16 H -1.00788 2.32273 0.583743 0
M  V30 17 H -3.45946 2.1028 -0.183033 0
M  V30 18 H -4.07962 0.494135 0.237374 0
M  V30 19 H -3.24685 -1.49624 -1.6964 0
M  V30 20 H -3.44035 -2.15168 -0.0509579 0
M  V30 21 H -0.32879 -2.3502 -0.675226 0
M  V30 22 H 2.38787 -1.66795 -0.208623 0
M  V30 END ATOM
M  V30 BEGIN BOND
M  V30 1 1 1 2
M  V30 2 2 2 3
M  V30 3 1 3 4
M  V30 4 2 4 5
M  V30 5 1 5 6
M  V30 6 1 6 7
M  V30 7 2 6 8
M  V30 8 1 8 9
M  V30 9 1 8 10
M  V30 10 2 10 11
M  V30 11 1 11 12
M  V30 12 1 12 2
M  V30 13 1 11 4
M  V30 14 1 1 13
M  V30 15 1 1 14
M  V30 16 1 1 15
M  V30 17 1 5 16
M  V30 18 1 7 17
M  V30 19 1 7 18
M  V30 20 1 9 19
M  V30 21 1 9 20
M  V30 22 1 10 21
M  V30 23 1 12 22
M  V30 END BOND
M  V30 END CTAB
M  END
