
     RDKit          3D

  0  0  0  0  0  0  0  0  0  0999 V3000
M  V30 BEGIN CTAB
M  V30 COUNTS 26 26 0 0 0
M  V30 BEGIN ATOM
M  V30 1 C -4.15859 0.986717 0.601763 0
M  V30 2 C -3.23041 0.0532545 -0.138991 0
M  V30 3 C -1.77328 0.372671 0.183677 0
M  V30 4 S -0.730254 -0.77909 -0.73429 0
M  V30 5 C 0.97863 -0.446423 -0.390797 0
M  V30 6 C 1.36289 0.56137 0.462979 0
M  V30 7 C 2.70511 0.784325 0.700846 0
M  V30 8 C 3.70643 0.0433807 0.123159 0
M  V30 9 C 3.31585 -0.977624 -0.741861 0
M  V30 10 C 1.9759 -1.20776 -0.985613 0
M  V30 11 F 4.30872 -1.7068 -1.31009 0
M  V30 12 N 5.08524 0.280012 0.373845 0
M  V30 13 N -3.45394 -1.32086 0.172658 0
M  V30 14 H -4.31502 1.94652 0.0481616 0
M  V30 15 H -5.16086 0.54405 0.749868 0
M  V30 16 H -3.75172 1.23105 1.61066 0
M  V30 17 H -3.4076 0.238847 -1.22905 0
M  V30 18 H -1.52165 1.39884 -0.119755 0
M  V30 19 H -1.62238 0.187908 1.26654 0
M  V30 20 H 0.571353 1.15056 0.92253 0
M  V30 21 H 2.97408 1.58563 1.37827 0
M  V30 22 H 1.68554 -1.99752 -1.65425 0
M  V30 23 H 5.36817 0.788355 1.22415 0
M  V30 24 H 5.81141 -0.0543206 -0.291555 0
M  V30 25 H -2.57183 -1.87034 0.273259 0
M  V30 26 H -4.15178 -1.79276 -0.440134 0
M  V30 END ATOM
M  V30 BEGIN BOND
M  V30 1 1 1 2
M  V30 2 1 2 3
M  V30 3 1 3 4
M  V30 4 1 4 5
M  V30 5 2 5 6
M  V30 6 1 6 7
M  V30 7 2 7 8
M  V30 8 1 8 9
M  V30 9 2 9 10
M  V30 10 1 9 11
M  V30 11 1 8 12
M  V30 12 1 2 13
M  V30 13 1 10 5
M  V30 14 1 1 14
M  V30 15 1 1 15
M  V30 16 1 1 16
M  V30 17 1 2 17
M  V30 18 1 3 18
M  V30 19 1 3 19
M  V30 20 1 6 20
M  V30 21 1 7 21
M  V30 22 1 10 22
M  V30 23 1 12 23
M  V30 24 1 12 24
M  V30 25 1 13 25
M  V30 26 1 13 26
M  V30 END BOND
M  V30 END CTAB
M  END
