
     RDKit          3D

  0  0  0  0  0  0  0  0  0  0999 V3000
M  V30 BEGIN CTAB
M  V30 COUNTS 46 49 0 0 0
M  V30 BEGIN ATOM
M  V30 1 N -2.54638 -1.48096 4.84535 0
M  V30 2 C -2.59881 -0.996928 3.51444 0
M  V30 3 N -1.65959 -0.205362 3.15351 0
M  V30 4 C -1.51133 0.399646 1.86372 0
M  V30 5 N -2.5893 0.0384307 0.990345 0
M  V30 6 C -3.60265 -0.841079 1.42962 0
M  V30 7 N -4.61716 -1.14644 0.454697 0
M  V30 8 N -3.65239 -1.35777 2.6155 0
M  V30 9 C -2.62853 0.596261 -0.328036 0
M  V30 10 C -2.06862 -0.0192603 -1.42298 0
M  V30 11 C -2.10409 0.52351 -2.69868 0
M  V30 12 C -2.72342 1.73595 -2.90758 0
M  V30 13 C -3.28986 2.36579 -1.81969 0
M  V30 14 Cl -4.0817 3.92283 -2.10554 0
M  V30 15 C -3.25504 1.82734 -0.552026 0
M  V30 16 C -0.242622 -0.113368 1.26082 0
M  V30 17 C 0.62725 0.729283 0.602592 0
M  V30 18 C 1.79576 0.250022 0.0570272 0
M  V30 19 C 2.09919 -1.0866 0.170137 0
M  V30 20 O 3.26583 -1.6003 -0.36716 0
M  V30 21 C 4.12191 -0.732725 -1.02294 0
M  V30 22 C 5.12615 -0.0715052 -0.344916 0
M  V30 23 C 5.9809 0.798556 -1.01522 0
M  V30 24 C 5.84136 1.01461 -2.35951 0
M  V30 25 C 4.84377 0.358497 -3.03604 0
M  V30 26 C 3.99837 -0.501713 -2.37441 0
M  V30 27 C 1.25169 -1.97859 0.826369 0
M  V30 28 C 0.0967842 -1.4431 1.35259 0
M  V30 29 H -2.05147 -2.35451 5.06303 0
M  V30 30 H -3.01 -0.947327 5.59238 0
M  V30 31 H -1.42737 1.51158 1.98394 0
M  V30 32 H -5.42603 -0.529661 0.274573 0
M  V30 33 H -4.47302 -2.04657 -0.0617786 0
M  V30 34 H -1.57833 -0.989276 -1.24702 0
M  V30 35 H -1.64241 -0.0201997 -3.50438 0
M  V30 36 H -2.77594 2.20082 -3.89197 0
M  V30 37 H -3.70524 2.33246 0.300516 0
M  V30 38 H 0.406345 1.78552 0.502771 0
M  V30 39 H 2.45615 0.956987 -0.456808 0
M  V30 40 H 5.23407 -0.24382 0.715948 0
M  V30 41 H 6.77436 1.3194 -0.47305 0
M  V30 42 H 6.53055 1.69916 -2.83105 0
M  V30 43 H 4.70324 0.501571 -4.08735 0
M  V30 44 H 3.21406 -1.01909 -2.89999 0
M  V30 45 H 1.47456 -3.02247 0.922519 0
M  V30 46 H -0.581024 -2.1196 1.86967 0
M  V30 END ATOM
M  V30 BEGIN BOND
M  V30 1 1 1 2
M  V30 2 2 2 3
M  V30 3 1 3 4
M  V30 4 1 4 5
M  V30 5 1 5 6
M  V30 6 1 6 7
M  V30 7 2 6 8
M  V30 8 1 5 9
M  V30 9 2 9 10
M  V30 10 1 10 11
M  V30 11 2 11 12
M  V30 12 1 12 13
M  V30 13 1 13 14
M  V30 14 2 13 15
M  V30 15 1 4 16
M  V30 16 2 16 17
M  V30 17 1 17 18
M  V30 18 2 18 19
M  V30 19 1 19 20
M  V30 20 1 20 21
M  V30 21 2 21 22
M  V30 22 1 22 23
M  V30 23 2 23 24
M  V30 24 1 24 25
M  V30 25 2 25 26
M  V30 26 1 19 27
M  V30 27 2 27 28
M  V30 28 1 8 2
M  V30 29 1 15 9
M  V30 30 1 28 16
M  V30 31 1 26 21
M  V30 32 1 1 29
M  V30 33 1 1 30
M  V30 34 1 4 31
M  V30 35 1 7 32
M  V30 36 1 7 33
M  V30 37 1 10 34
M  V30 38 1 11 35
M  V30 39 1 12 36
M  V30 40 1 15 37
M  V30 41 1 17 38
M  V30 42 1 18 39
M  V30 43 1 22 40
M  V30 44 1 23 41
M  V30 45 1 24 42
M  V30 46 1 25 43
M  V30 47 1 26 44
M  V30 48 1 27 45
M  V30 49 1 28 46
M  V30 END BOND
M  V30 END CTAB
M  END
