
     RDKit          3D

  0  0  0  0  0  0  0  0  0  0999 V3000
M  V30 BEGIN CTAB
M  V30 COUNTS 45 46 0 0 0
M  V30 BEGIN ATOM
M  V30 1 C -5.13938 -0.0419534 -1.17174 0
M  V30 2 C -4.52196 0.248825 0.161449 0
M  V30 3 C -4.93894 1.67048 0.563481 0
M  V30 4 C -5.17698 -0.665365 1.17378 0
M  V30 5 O -3.1342 0.211753 0.201536 0
M  V30 6 C -2.34836 -0.874092 -0.0927531 0
M  V30 7 O -2.94275 -1.93854 -0.430399 0
M  V30 8 N -0.929542 -0.847992 -0.0338966 0
M  V30 9 C -0.270512 0.385166 0.356181 0
M  V30 10 C 0.84941 0.593404 -0.646036 0
M  V30 11 N 1.77671 -0.493663 -0.464085 0
M  V30 12 C 1.32583 -1.80478 -0.169821 0
M  V30 13 C -0.152003 -2.01893 -0.353587 0
M  V30 14 C 3.16402 -0.237044 -0.586397 0
M  V30 15 C 3.92298 -0.855641 -1.56591 0
M  V30 16 C 5.26888 -0.594533 -1.6752 0
M  V30 17 C 5.83555 0.293911 -0.788137 0
M  V30 18 C 5.13129 0.925075 0.189367 0
M  V30 19 N 5.70639 1.84286 1.10893 0
M  V30 20 C 3.76069 0.648257 0.287672 0
M  V30 21 N 3.02854 1.30728 1.31288 0
M  V30 22 H -4.56554 -0.716559 -1.80884 0
M  V30 23 H -5.29662 0.936446 -1.70614 0
M  V30 24 H -6.18304 -0.445707 -1.01378 0
M  V30 25 H -5.98316 1.82408 0.208125 0
M  V30 26 H -4.84608 1.75592 1.65163 0
M  V30 27 H -4.2761 2.35741 0.00336874 0
M  V30 28 H -4.65991 -0.685324 2.13746 0
M  V30 29 H -6.20055 -0.255203 1.35332 0
M  V30 30 H -5.34157 -1.69394 0.75414 0
M  V30 31 H -0.98564 1.23121 0.35584 0
M  V30 32 H 0.192784 0.21306 1.33515 0
M  V30 33 H 1.30288 1.60023 -0.577638 0
M  V30 34 H 0.381185 0.497887 -1.64947 0
M  V30 35 H 1.56697 -2.03487 0.896258 0
M  V30 36 H 1.92211 -2.52025 -0.783333 0
M  V30 37 H -0.315877 -2.2789 -1.42049 0
M  V30 38 H -0.505916 -2.88652 0.241127 0
M  V30 39 H 3.42486 -1.5547 -2.2475 0
M  V30 40 H 5.85898 -1.08539 -2.44862 0
M  V30 41 H 6.90642 0.497978 -0.879575 0
M  V30 42 H 5.24151 2.07996 2.00387 0
M  V30 43 H 6.61376 2.28851 0.882387 0
M  V30 44 H 2.51028 0.782595 2.03416 0
M  V30 45 H 3.0226 2.33762 1.32577 0
M  V30 END ATOM
M  V30 BEGIN BOND
M  V30 1 1 1 2
M  V30 2 1 2 3
M  V30 3 1 2 4
M  V30 4 1 2 5
M  V30 5 1 5 6
M  V30 6 2 6 7
M  V30 7 1 6 8
M  V30 8 1 8 9
M  V30 9 1 9 10
M  V30 10 1 10 11
M  V30 11 1 11 12
M  V30 12 1 12 13
M  V30 13 1 11 14
M  V30 14 2 14 15
M  V30 15 1 15 16
M  V30 16 2 16 17
M  V30 17 1 17 18
M  V30 18 1 18 19
M  V30 19 2 18 20
M  V30 20 1 20 21
M  V30 21 1 13 8
M  V30 22 1 20 14
M  V30 23 1 1 22
M  V30 24 1 1 23
M  V30 25 1 1 24
M  V30 26 1 3 25
M  V30 27 1 3 26
M  V30 28 1 3 27
M  V30 29 1 4 28
M  V30 30 1 4 29
M  V30 31 1 4 30
M  V30 32 1 9 31
M  V30 33 1 9 32
M  V30 34 1 10 33
M  V30 35 1 10 34
M  V30 36 1 12 35
M  V30 37 1 12 36
M  V30 38 1 13 37
M  V30 39 1 13 38
M  V30 40 1 15 39
M  V30 41 1 16 40
M  V30 42 1 17 41
M  V30 43 1 19 42
M  V30 44 1 19 43
M  V30 45 1 21 44
M  V30 46 1 21 45
M  V30 END BOND
M  V30 END CTAB
M  END
