
     RDKit          3D

  0  0  0  0  0  0  0  0  0  0999 V3000
M  V30 BEGIN CTAB
M  V30 COUNTS 27 28 0 0 0
M  V30 BEGIN ATOM
M  V30 1 C -2.003 -1.2313 1.23178 0
M  V30 2 C -0.807813 -0.732152 0.411367 0
M  V30 3 C -1.0678 0.664846 -0.005607 0
M  V30 4 C -1.28901 1.77126 0.944667 0
M  V30 5 C -2.46114 1.2461 0.105337 0
M  V30 6 C 0.408724 -0.91739 1.27153 0
M  V30 7 C 1.65194 -0.472924 0.600836 0
M  V30 8 O 2.83064 -0.543901 1.16902 0
M  V30 9 N 3.74167 -0.088921 0.36139 0
M  V30 10 C 3.15044 0.302214 -0.793037 0
M  V30 11 N 1.8458 0.0475395 -0.607018 0
M  V30 12 N 3.76484 0.855622 -1.9407 0
M  V30 13 N -0.663229 -1.57574 -0.760107 0
M  V30 14 H -2.28861 -0.482299 1.99784 0
M  V30 15 H -2.89575 -1.34267 0.573413 0
M  V30 16 H -1.71928 -2.19024 1.72305 0
M  V30 17 H -0.553225 0.962721 -0.96552 0
M  V30 18 H -0.94824 2.79774 0.668205 0
M  V30 19 H -1.43147 1.62501 2.01597 0
M  V30 20 H -3.24875 0.669818 0.608675 0
M  V30 21 H -2.84045 1.90882 -0.701544 0
M  V30 22 H 0.297362 -0.429041 2.25684 0
M  V30 23 H 0.51596 -2.00821 1.46573 0
M  V30 24 H 4.30921 1.73286 -1.89318 0
M  V30 25 H 3.67469 0.381258 -2.85389 0
M  V30 26 H -0.354869 -1.01731 -1.59087 0
M  V30 27 H -1.61862 -1.93372 -1.00021 0
M  V30 END ATOM
M  V30 BEGIN BOND
M  V30 1 1 1 2
M  V30 2 1 2 3
M  V30 3 1 3 4
M  V30 4 1 4 5
M  V30 5 1 2 6
M  V30 6 1 6 7
M  V30 7 1 7 8
M  V30 8 1 8 9
M  V30 9 2 9 10
M  V30 10 1 10 11
M  V30 11 1 10 12
M  V30 12 1 2 13
M  V30 13 1 5 3
M  V30 14 2 11 7
M  V30 15 1 1 14
M  V30 16 1 1 15
M  V30 17 1 1 16
M  V30 18 1 3 17
M  V30 19 1 4 18
M  V30 20 1 4 19
M  V30 21 1 5 20
M  V30 22 1 5 21
M  V30 23 1 6 22
M  V30 24 1 6 23
M  V30 25 1 12 24
M  V30 26 1 12 25
M  V30 27 1 13 26
M  V30 28 1 13 27
M  V30 END BOND
M  V30 END CTAB
M  END
