
     RDKit          3D

  0  0  0  0  0  0  0  0  0  0999 V3000
M  V30 BEGIN CTAB
M  V30 COUNTS 25 24 0 0 0
M  V30 BEGIN ATOM
M  V30 1 C 0.539675 -0.113727 1.70992 0
M  V30 2 C 0.488259 0.547648 0.382877 0
M  V30 3 C -0.790855 0.820013 -0.21604 0
M  V30 4 N -1.85443 0.489355 0.402046 0
M  V30 5 N -3.1134 0.73221 -0.136914 0
M  V30 6 C -4.22131 -0.0803241 0.186407 0
M  V30 7 N -4.09221 -1.48818 0.435516 0
M  V30 8 N -5.38231 0.45664 0.260224 0
M  V30 9 N 1.57795 0.883752 -0.245012 0
M  V30 10 N 2.84494 0.641104 0.293843 0
M  V30 11 C 3.90967 0.105251 -0.48672 0
M  V30 12 N 4.33305 -1.24244 -0.327952 0
M  V30 13 N 4.51809 0.825555 -1.35721 0
M  V30 14 H 0.278303 0.609059 2.52091 0
M  V30 15 H 1.54978 -0.473195 1.89802 0
M  V30 16 H -0.221507 -0.910296 1.73402 0
M  V30 17 H -0.8495 1.29513 -1.17029 0
M  V30 18 H -3.18765 1.55607 -0.797876 0
M  V30 19 H -3.21137 -1.83963 0.876684 0
M  V30 20 H -4.84612 -2.17055 0.191609 0
M  V30 21 H -5.48498 1.47383 0.0816748 0
M  V30 22 H 2.95963 0.8805 1.31379 0
M  V30 23 H 5.2862 -1.41645 0.0224954 0
M  V30 24 H 3.68707 -2.0031 -0.563318 0
M  V30 25 H 5.28303 0.421776 -1.91022 0
M  V30 END ATOM
M  V30 BEGIN BOND
M  V30 1 1 1 2
M  V30 2 1 2 3
M  V30 3 2 3 4 CFG=2
M  V30 4 1 4 5
M  V30 5 1 5 6
M  V30 6 1 6 7
M  V30 7 2 6 8 CFG=2
M  V30 8 2 2 9 CFG=2
M  V30 9 1 9 10
M  V30 10 1 10 11
M  V30 11 1 11 12
M  V30 12 2 11 13 CFG=2
M  V30 13 1 1 14
M  V30 14 1 1 15
M  V30 15 1 1 16
M  V30 16 1 3 17
M  V30 17 1 5 18
M  V30 18 1 7 19
M  V30 19 1 7 20
M  V30 20 1 8 21
M  V30 21 1 10 22
M  V30 22 1 12 23
M  V30 23 1 12 24
M  V30 24 1 13 25
M  V30 END BOND
M  V30 END CTAB
M  END
