
     RDKit          3D

  0  0  0  0  0  0  0  0  0  0999 V3000
M  V30 BEGIN CTAB
M  V30 COUNTS 29 30 0 0 0
M  V30 BEGIN ATOM
M  V30 1 N 4.3226 0.610307 0.142754 0
M  V30 2 C 3.24007 -0.305198 -0.17517 0
M  V30 3 C 1.97655 0.121985 0.537534 0
M  V30 4 C 1.54811 1.51396 0.130388 0
M  V30 5 C 0.0483755 1.42653 0.25525 0
M  V30 6 C -0.23521 0.0603006 -0.371111 0
M  V30 7 C 0.831768 -0.814956 0.157389 0
M  V30 8 O -0.135784 0.147237 -1.73459 0
M  V30 9 C -1.61748 -0.363876 -0.0339023 0
M  V30 10 C -2.13597 -1.29398 0.818045 0
M  V30 11 N -3.42736 -1.41206 0.88006 0
M  V30 12 C -4.20225 -0.654119 0.141013 0
M  V30 13 S -3.06357 0.297557 -0.708594 0
M  V30 14 N -5.62422 -0.643561 0.0870549 0
M  V30 15 H 4.00473 1.60971 0.127205 0
M  V30 16 H 4.62342 0.432035 1.12317 0
M  V30 17 H 3.03116 -0.360142 -1.2521 0
M  V30 18 H 3.52487 -1.29308 0.241073 0
M  V30 19 H 2.14075 0.0961193 1.62525 0
M  V30 20 H 1.98859 2.3023 0.753985 0
M  V30 21 H 1.76381 1.7104 -0.94527 0
M  V30 22 H -0.4795 2.23682 -0.303777 0
M  V30 23 H -0.268695 1.39839 1.33424 0
M  V30 24 H 1.17616 -1.53325 -0.646614 0
M  V30 25 H 0.511745 -1.42226 1.01895 0
M  V30 26 H 0.281903 -0.666037 -2.14598 0
M  V30 27 H -1.45611 -1.92158 1.42897 0
M  V30 28 H -6.1358 -0.893518 -0.783678 0
M  V30 29 H -6.23264 -0.386047 0.903945 0
M  V30 END ATOM
M  V30 BEGIN BOND
M  V30 1 1 1 2
M  V30 2 1 2 3
M  V30 3 1 3 4
M  V30 4 1 4 5
M  V30 5 1 5 6
M  V30 6 1 6 7
M  V30 7 1 6 8
M  V30 8 1 6 9
M  V30 9 2 9 10
M  V30 10 1 10 11
M  V30 11 2 11 12
M  V30 12 1 12 13
M  V30 13 1 12 14
M  V30 14 1 7 3
M  V30 15 1 13 9
M  V30 16 1 1 15
M  V30 17 1 1 16
M  V30 18 1 2 17
M  V30 19 1 2 18
M  V30 20 1 3 19
M  V30 21 1 4 20
M  V30 22 1 4 21
M  V30 23 1 5 22
M  V30 24 1 5 23
M  V30 25 1 7 24
M  V30 26 1 7 25
M  V30 27 1 8 26
M  V30 28 1 10 27
M  V30 29 1 14 28
M  V30 30 1 14 29
M  V30 END BOND
M  V30 END CTAB
M  END
