
     RDKit          3D

  0  0  0  0  0  0  0  0  0  0999 V3000
M  V30 BEGIN CTAB
M  V30 COUNTS 30 32 0 0 0
M  V30 BEGIN ATOM
M  V30 1 N 5.31419 1.31921 -1.25544 0
M  V30 2 C 4.42147 0.755286 -0.286731 0
M  V30 3 C 4.28636 1.02592 1.0342 0
M  V30 4 N 3.31633 0.239631 1.517 0
M  V30 5 N 2.83164 -0.52798 0.522333 0
M  V30 6 N 3.53684 -0.183506 -0.577707 0
M  V30 7 C 1.86686 -1.54847 0.554191 0
M  V30 8 C 0.465472 -1.3768 0.379113 0
M  V30 9 O -0.115804 -2.58618 0.503416 0
M  V30 10 N -0.452598 -0.354196 0.124983 0
M  V30 11 C -0.251614 0.957899 -0.076772 0
M  V30 12 O 0.815305 1.59707 -0.0961323 0
M  V30 13 O -1.43618 1.52607 -0.26845 0
M  V30 14 C -2.38564 0.646031 -0.200114 0
M  V30 15 C -1.8261 -0.582727 0.0501063 0
M  V30 16 C -2.64075 -1.68568 0.16692 0
M  V30 17 C -4.03637 -1.59755 0.037797 0
M  V30 18 C -4.55999 -0.353438 -0.212182 0
M  V30 19 C -3.76446 0.750105 -0.330527 0
M  V30 20 N -4.29767 2.04538 -0.589589 0
M  V30 21 H 5.0572 1.36168 -2.24613 0
M  V30 22 H 6.23155 1.67317 -0.851896 0
M  V30 23 H 4.89328 1.76893 1.55988 0
M  V30 24 H 2.00209 -2.08691 1.59262 0
M  V30 25 H 2.25153 -2.44566 -0.0933258 0
M  V30 26 H -2.23527 -2.65647 0.362517 0
M  V30 27 H -4.63514 -2.49247 0.137883 0
M  V30 28 H -5.65102 -0.262297 -0.316799 0
M  V30 29 H -5.13069 2.18619 -1.21276 0
M  V30 30 H -3.87083 2.88776 -0.164069 0
M  V30 END ATOM
M  V30 BEGIN BOND
M  V30 1 1 1 2
M  V30 2 1 2 3
M  V30 3 2 3 4
M  V30 4 1 4 5
M  V30 5 1 5 6
M  V30 6 1 5 7
M  V30 7 1 7 8
M  V30 8 2 8 9
M  V30 9 1 8 10
M  V30 10 1 10 11
M  V30 11 2 11 12
M  V30 12 1 11 13
M  V30 13 1 13 14
M  V30 14 2 14 15
M  V30 15 1 15 16
M  V30 16 2 16 17
M  V30 17 1 17 18
M  V30 18 2 18 19
M  V30 19 1 19 20
M  V30 20 2 6 2
M  V30 21 1 15 10
M  V30 22 1 19 14
M  V30 23 1 1 21
M  V30 24 1 1 22
M  V30 25 1 3 23
M  V30 26 1 7 24
M  V30 27 1 7 25
M  V30 28 1 16 26
M  V30 29 1 17 27
M  V30 30 1 18 28
M  V30 31 1 20 29
M  V30 32 1 20 30
M  V30 END BOND
M  V30 END CTAB
M  END
