
     RDKit          3D

  0  0  0  0  0  0  0  0  0  0999 V3000
M  V30 BEGIN CTAB
M  V30 COUNTS 85 86 0 0 0
M  V30 BEGIN ATOM
M  V30 1 C 5.18875 -1.12705 2.26149 0 CFG=2
M  V30 2 C 5.44691 -2.33627 3.10635 0
M  V30 3 N 4.48212 -1.53545 1.07778 0
M  V30 4 C 3.42768 -0.740597 0.593428 0
M  V30 5 O 3.17081 0.330086 1.21863 0
M  V30 6 C 2.63303 -1.10542 -0.569222 0 CFG=2
M  V30 7 C 3.24684 -1.16352 -1.90252 0
M  V30 8 C 4.34185 -2.08261 -2.17558 0
M  V30 9 C 5.66713 -1.72559 -2.17846 0
M  V30 10 C 6.70509 -2.61755 -2.43761 0
M  V30 11 C 6.42313 -3.9398 -2.71051 0
M  V30 12 C 5.10354 -4.33266 -2.71609 0
M  V30 13 C 4.09027 -3.43337 -2.45688 0
M  V30 14 N 1.60787 -0.0306159 -0.681823 0
M  V30 15 C 0.285998 -0.268893 -0.334847 0
M  V30 16 O -0.144635 -1.35114 0.0871006 0
M  V30 17 C -0.686531 0.907562 -0.491233 0 CFG=1
M  V30 18 C -0.638005 1.39289 -1.86557 0
M  V30 19 C -1.43317 2.55381 -2.30261 0
M  V30 20 C -2.90542 2.49038 -2.23051 0
M  V30 21 N -3.52377 3.7272 -2.70684 0
M  V30 22 C -3.34491 4.90684 -1.94525 0
M  V30 23 N -4.02197 5.00658 -0.703081 0
M  V30 24 N -2.58833 5.85808 -2.37163 0
M  V30 25 N -1.91616 0.400258 0.065731 0
M  V30 26 C -2.39612 0.79021 1.34068 0
M  V30 27 O -1.63542 1.67511 1.9076 0
M  V30 28 C -3.55079 0.362013 2.07866 0 CFG=2
M  V30 29 C -4.89417 0.329587 1.55416 0
M  V30 30 C -5.29796 -0.460776 0.42544 0
M  V30 31 C -5.54125 -1.83377 0.489082 0
M  V30 32 C -5.98176 -2.53239 -0.597452 0
M  V30 33 C -6.21525 -1.94073 -1.81895 0
M  V30 34 O -6.66464 -2.6897 -2.90123 0
M  V30 35 C -5.98109 -0.585087 -1.90279 0
M  V30 36 C -5.53536 0.117499 -0.800609 0
M  V30 37 N -3.60391 1.15438 3.34472 0
M  V30 38 C -4.62401 0.982648 4.29095 0
M  V30 39 N -4.56746 -0.0939329 5.24671 0
M  V30 40 N -5.66473 1.75826 4.37315 0
M  V30 41 C 6.43185 -0.428333 1.95557 0
M  V30 42 O 6.7877 -0.21431 0.792569 0
M  V30 43 O 7.26805 0.0261306 2.98744 0
M  V30 44 C 8.47875 0.708653 2.72857 0
M  V30 45 H 4.53143 -0.406091 2.79718 0
M  V30 46 H 4.47321 -2.8211 3.32491 0
M  V30 47 H 5.97938 -2.06992 4.03394 0
M  V30 48 H 6.10143 -3.03434 2.50591 0
M  V30 49 H 4.80981 -2.43483 0.659659 0
M  V30 50 H 2.00703 -2.03092 -0.346133 0
M  V30 51 H 3.48416 -0.110604 -2.23413 0
M  V30 52 H 2.40299 -1.45619 -2.61972 0
M  V30 53 H 5.91126 -0.696553 -1.96786 0
M  V30 54 H 7.74754 -2.32483 -2.43713 0
M  V30 55 H 7.21175 -4.6521 -2.91371 0
M  V30 56 H 4.85469 -5.37827 -2.92947 0
M  V30 57 H 3.04808 -3.72862 -2.45856 0
M  V30 58 H 1.95114 0.880585 -1.02524 0
M  V30 59 H -0.271963 1.65875 0.206178 0
M  V30 60 H -0.782156 0.582726 -2.64132 0
M  V30 61 H 0.451977 1.68461 -2.06517 0
M  V30 62 H -1.02496 3.48822 -1.78748 0
M  V30 63 H -1.16795 2.74796 -3.3977 0
M  V30 64 H -3.34434 1.69447 -2.87385 0
M  V30 65 H -3.23803 2.25691 -1.20775 0
M  V30 66 H -4.08814 3.78178 -3.57545 0
M  V30 67 H -4.25913 4.16024 -0.16828 0
M  V30 68 H -4.27826 5.94533 -0.334757 0
M  V30 69 H -2.10506 5.76513 -3.27736 0
M  V30 70 H -2.46584 -0.278055 -0.486955 0
M  V30 71 H -3.23883 -0.657926 2.53156 0
M  V30 72 H -5.64306 0.0964513 2.39148 0
M  V30 73 H -5.19128 1.40942 1.3269 0
M  V30 74 H -5.3489 -2.2721 1.46075 0
M  V30 75 H -6.15914 -3.59594 -0.506876 0
M  V30 76 H -6.84819 -2.30834 -3.80149 0
M  V30 77 H -6.1688 -0.121201 -2.87505 0
M  V30 78 H -5.39052 1.19845 -0.961514 0
M  V30 79 H -2.86633 1.85995 3.54187 0
M  V30 80 H -3.70498 -0.696256 5.31587 0
M  V30 81 H -5.33377 -0.324997 5.88762 0
M  V30 82 H -5.85123 2.56461 3.7686 0
M  V30 83 H 8.36945 1.38186 1.83672 0
M  V30 84 H 8.72259 1.35628 3.59858 0
M  V30 85 H 9.28241 -0.0231599 2.58074 0
M  V30 END ATOM
M  V30 BEGIN BOND
M  V30 1 1 1 2
M  V30 2 1 1 3
M  V30 3 1 3 4
M  V30 4 2 4 5
M  V30 5 1 4 6
M  V30 6 1 6 7
M  V30 7 1 7 8
M  V30 8 2 8 9
M  V30 9 1 9 10
M  V30 10 2 10 11
M  V30 11 1 11 12
M  V30 12 2 12 13
M  V30 13 1 6 14
M  V30 14 1 14 15
M  V30 15 2 15 16
M  V30 16 1 15 17
M  V30 17 1 17 18
M  V30 18 1 18 19
M  V30 19 1 19 20
M  V30 20 1 20 21
M  V30 21 1 21 22
M  V30 22 1 22 23
M  V30 23 2 22 24 CFG=2
M  V30 24 1 17 25
M  V30 25 1 25 26
M  V30 26 2 26 27
M  V30 27 1 26 28
M  V30 28 1 28 29
M  V30 29 1 29 30
M  V30 30 2 30 31
M  V30 31 1 31 32
M  V30 32 2 32 33
M  V30 33 1 33 34
M  V30 34 1 33 35
M  V30 35 2 35 36
M  V30 36 1 28 37
M  V30 37 1 37 38
M  V30 38 1 38 39
M  V30 39 2 38 40 CFG=2
M  V30 40 1 1 41
M  V30 41 2 41 42
M  V30 42 1 41 43
M  V30 43 1 43 44
M  V30 44 1 13 8
M  V30 45 1 36 30
M  V30 46 1 1 45 CFG=1
M  V30 47 1 2 46
M  V30 48 1 2 47
M  V30 49 1 2 48
M  V30 50 1 3 49
M  V30 51 1 6 50 CFG=1
M  V30 52 1 7 51
M  V30 53 1 7 52
M  V30 54 1 9 53
M  V30 55 1 10 54
M  V30 56 1 11 55
M  V30 57 1 12 56
M  V30 58 1 13 57
M  V30 59 1 14 58
M  V30 60 1 17 59 CFG=1
M  V30 61 1 18 60
M  V30 62 1 18 61
M  V30 63 1 19 62
M  V30 64 1 19 63
M  V30 65 1 20 64
M  V30 66 1 20 65
M  V30 67 1 21 66
M  V30 68 1 23 67
M  V30 69 1 23 68
M  V30 70 1 24 69
M  V30 71 1 25 70
M  V30 72 1 28 71 CFG=1
M  V30 73 1 29 72
M  V30 74 1 29 73
M  V30 75 1 31 74
M  V30 76 1 32 75
M  V30 77 1 34 76
M  V30 78 1 35 77
M  V30 79 1 36 78
M  V30 80 1 37 79
M  V30 81 1 39 80
M  V30 82 1 39 81
M  V30 83 1 40 82
M  V30 84 1 44 83
M  V30 85 1 44 84
M  V30 86 1 44 85
M  V30 END BOND
M  V30 END CTAB
M  END
