
     RDKit          3D

  0  0  0  0  0  0  0  0  0  0999 V3000
M  V30 BEGIN CTAB
M  V30 COUNTS 32 32 0 0 0
M  V30 BEGIN ATOM
M  V30 1 C -2.14471 0.368167 1.83275 0
M  V30 2 C -2.70432 0.512724 0.463133 0
M  V30 3 C -1.73012 0.637425 -0.651652 0
M  V30 4 N -0.785091 -0.397037 -0.858856 0
M  V30 5 C 0.597496 -0.0960953 -0.640922 0
M  V30 6 C 1.25921 0.75588 -1.51832 0
M  V30 7 C 2.583 1.09417 -1.38493 0
M  V30 8 C 3.27503 0.548979 -0.31714 0
M  V30 9 C 2.63318 -0.299062 0.560423 0
M  V30 10 N 1.33477 -0.584514 0.366068 0
M  V30 11 N 3.37946 -0.841678 1.63814 0
M  V30 12 N 4.64931 0.893759 -0.153044 0
M  V30 13 C -1.11604 -1.71379 -1.28972 0
M  V30 14 C -3.82282 -0.445077 0.123806 0
M  V30 15 H -2.68271 -0.519895 2.29854 0
M  V30 16 H -2.40785 1.20548 2.53786 0
M  V30 17 H -1.06396 0.26568 1.91734 0
M  V30 18 H -3.26071 1.53537 0.513462 0
M  V30 19 H -2.29891 0.779403 -1.62727 0
M  V30 20 H -1.22637 1.65589 -0.554133 0
M  V30 21 H 0.695117 1.17036 -2.35006 0
M  V30 22 H 3.09605 1.76426 -2.07502 0
M  V30 23 H 4.29304 -0.41502 1.89695 0
M  V30 24 H 3.05186 -1.66347 2.19766 0
M  V30 25 H 4.87471 1.9094 -0.088219 0
M  V30 26 H 5.40438 0.182874 -0.0934869 0
M  V30 27 H -1.13216 -1.72278 -2.4015 0
M  V30 28 H -2.04055 -2.12671 -0.843946 0
M  V30 29 H -0.272864 -2.399 -0.953327 0
M  V30 30 H -4.83357 -0.0274237 0.336905 0
M  V30 31 H -3.8424 -0.610318 -0.996797 0
M  V30 32 H -3.76149 -1.41794 0.640914 0
M  V30 END ATOM
M  V30 BEGIN BOND
M  V30 1 1 1 2
M  V30 2 1 2 3
M  V30 3 1 3 4
M  V30 4 1 4 5
M  V30 5 2 5 6
M  V30 6 1 6 7
M  V30 7 2 7 8
M  V30 8 1 8 9
M  V30 9 2 9 10
M  V30 10 1 9 11
M  V30 11 1 8 12
M  V30 12 1 4 13
M  V30 13 1 2 14
M  V30 14 1 10 5
M  V30 15 1 1 15
M  V30 16 1 1 16
M  V30 17 1 1 17
M  V30 18 1 2 18
M  V30 19 1 3 19
M  V30 20 1 3 20
M  V30 21 1 6 21
M  V30 22 1 7 22
M  V30 23 1 11 23
M  V30 24 1 11 24
M  V30 25 1 12 25
M  V30 26 1 12 26
M  V30 27 1 13 27
M  V30 28 1 13 28
M  V30 29 1 13 29
M  V30 30 1 14 30
M  V30 31 1 14 31
M  V30 32 1 14 32
M  V30 END BOND
M  V30 END CTAB
M  END
