
     RDKit          3D

  0  0  0  0  0  0  0  0  0  0999 V3000
M  V30 BEGIN CTAB
M  V30 COUNTS 39 41 0 0 0
M  V30 BEGIN ATOM
M  V30 1 N -6.14747 2.29298 0.201885 0
M  V30 2 C -5.44712 1.13431 -0.203318 0
M  V30 3 N -6.14542 0.108307 -0.70718 0
M  V30 4 C -5.53389 -1.03061 -1.11392 0
M  V30 5 N -6.33863 -2.07184 -1.63585 0
M  V30 6 N -4.21874 -1.08469 -0.991724 0
M  V30 7 C -3.43087 -0.0966518 -0.49381 0
M  V30 8 C -4.05833 1.04433 -0.0879659 0
M  V30 9 C -1.98843 -0.257633 -0.402092 0
M  V30 10 C -1.38421 -1.4486 -0.831128 0
M  V30 11 C -0.0252736 -1.65258 -0.766513 0
M  V30 12 C 0.815631 -0.679612 -0.269221 0
M  V30 13 C 0.231841 0.488849 0.152695 0
M  V30 14 C -1.15375 0.706997 0.0910446 0
M  V30 15 C 2.27378 -0.905384 -0.202719 0
M  V30 16 O 2.74964 -1.99815 -0.605182 0
M  V30 17 N 3.17636 0.0622705 0.299387 0
M  V30 18 C 4.58247 -0.219375 0.336939 0
M  V30 19 C 5.1615 -0.167981 1.72509 0
M  V30 20 C 6.05644 1.04534 1.72932 0
M  V30 21 O 5.83251 1.73652 0.566986 0
M  V30 22 C 5.3491 0.852474 -0.382713 0
M  V30 23 H -5.65668 2.91635 0.89979 0
M  V30 24 H -7.09083 2.50392 -0.175643 0
M  V30 25 H -6.42882 -2.94528 -1.08972 0
M  V30 26 H -6.82695 -1.97501 -2.53474 0
M  V30 27 H -3.50174 1.88357 0.322568 0
M  V30 28 H -2.06125 -2.19827 -1.2175 0
M  V30 29 H 0.411617 -2.59919 -1.11229 0
M  V30 30 H 0.861286 1.28413 0.552781 0
M  V30 31 H -1.54895 1.66072 0.444352 0
M  V30 32 H 2.85428 0.992499 0.651113 0
M  V30 33 H 4.79419 -1.24633 -0.0673635 0
M  V30 34 H 5.80183 -1.04885 1.93959 0
M  V30 35 H 4.39222 -0.143145 2.51893 0
M  V30 36 H 7.12134 0.783807 1.88012 0
M  V30 37 H 5.7544 1.67133 2.59995 0
M  V30 38 H 4.63623 1.43009 -1.03518 0
M  V30 39 H 6.13069 0.37027 -0.986764 0
M  V30 END ATOM
M  V30 BEGIN BOND
M  V30 1 1 1 2
M  V30 2 2 2 3
M  V30 3 1 3 4
M  V30 4 1 4 5
M  V30 5 2 4 6
M  V30 6 1 6 7
M  V30 7 2 7 8
M  V30 8 1 7 9
M  V30 9 2 9 10
M  V30 10 1 10 11
M  V30 11 2 11 12
M  V30 12 1 12 13
M  V30 13 2 13 14
M  V30 14 1 12 15
M  V30 15 2 15 16
M  V30 16 1 15 17
M  V30 17 1 17 18
M  V30 18 1 18 19
M  V30 19 1 19 20
M  V30 20 1 20 21
M  V30 21 1 21 22
M  V30 22 1 8 2
M  V30 23 1 14 9
M  V30 24 1 22 18
M  V30 25 1 1 23
M  V30 26 1 1 24
M  V30 27 1 5 25
M  V30 28 1 5 26
M  V30 29 1 8 27
M  V30 30 1 10 28
M  V30 31 1 11 29
M  V30 32 1 13 30
M  V30 33 1 14 31
M  V30 34 1 17 32
M  V30 35 1 18 33
M  V30 36 1 19 34
M  V30 37 1 19 35
M  V30 38 1 20 36
M  V30 39 1 20 37
M  V30 40 1 22 38
M  V30 41 1 22 39
M  V30 END BOND
M  V30 END CTAB
M  END
