
     RDKit          3D

  0  0  0  0  0  0  0  0  0  0999 V3000
M  V30 BEGIN CTAB
M  V30 COUNTS 95 96 0 0 0
M  V30 BEGIN ATOM
M  V30 1 N -3.36973 -5.80634 -1.55823 0
M  V30 2 C -4.53162 -5.19979 -0.981172 0
M  V30 3 C -4.15051 -3.91821 -0.220649 0
M  V30 4 C -3.50815 -3.02613 -1.22059 0
M  V30 5 C -3.10486 -1.68527 -0.826232 0
M  V30 6 C -2.07209 -1.44866 0.241153 0 CFG=1
M  V30 7 C -0.73875 -2.00438 -0.0708924 0
M  V30 8 O -0.152671 -1.42536 -1.06185 0
M  V30 9 N -0.0493484 -3.04482 0.560625 0
M  V30 10 C -0.658322 -3.79678 1.69555 0
M  V30 11 C -0.630179 -5.26968 1.38893 0
M  V30 12 C 0.616194 -5.80441 0.797924 0
M  V30 13 C 1.07091 -4.90255 -0.357662 0 CFG=2
M  V30 14 C 1.26466 -3.54344 0.251265 0 CFG=1
M  V30 15 C 2.23599 -2.63886 -0.390549 0
M  V30 16 C 2.51827 -1.4822 0.545013 0
M  V30 17 C 3.44884 -0.508139 -0.0788698 0
M  V30 18 O 3.75327 -0.674483 -1.28686 0
M  V30 19 N 3.98791 0.572366 0.622875 0
M  V30 20 C 4.89525 1.5045 -0.0924173 0 CFG=2
M  V30 21 C 6.29827 1.13946 0.295542 0
M  V30 22 O 6.44961 0.270134 1.20465 0
M  V30 23 O 7.39293 1.71227 -0.305893 0
M  V30 24 C 4.59897 2.89211 0.351451 0
M  V30 25 C 5.42058 3.92424 -0.31799 0
M  V30 26 C 5.07791 5.33623 0.159708 0
M  V30 27 C 3.6473 5.7114 -0.0811648 0
M  V30 28 N 3.24153 5.67621 -1.45969 0
M  V30 29 O 0.0369144 -4.95389 -1.2847 0
M  V30 30 C 0.420455 -5.48563 -2.49269 0
M  V30 31 N -1.94773 0.0510611 0.212196 0
M  V30 32 C -2.44729 0.748472 1.33295 0
M  V30 33 O -2.96766 0.157023 2.3066 0
M  V30 34 C -2.34923 2.24206 1.3488 0 CFG=1
M  V30 35 C -2.86062 2.80274 0.0810817 0
M  V30 36 C -2.80894 4.27291 -0.0478753 0
M  V30 37 C -1.60894 4.84092 -0.497957 0
M  V30 38 C -1.55267 6.2025 -0.64376 0
M  V30 39 C -2.66197 6.98618 -0.349875 0
M  V30 40 C -3.82691 6.40344 0.0898369 0
M  V30 41 C -3.90139 5.01766 0.243737 0
M  V30 42 N -2.90702 2.81264 2.51846 0
M  V30 43 C -4.29433 2.573 2.74853 0
M  V30 44 H -3.41163 -5.94793 -2.57157 0
M  V30 45 H -3.11087 -6.68915 -1.09867 0
M  V30 46 H -5.24401 -4.93591 -1.80854 0
M  V30 47 H -4.96887 -5.87794 -0.251798 0
M  V30 48 H -5.11365 -3.52546 0.175342 0
M  V30 49 H -3.51829 -4.2733 0.605824 0
M  V30 50 H -2.66287 -3.62089 -1.67327 0
M  V30 51 H -4.2595 -2.93788 -2.07323 0
M  V30 52 H -4.01006 -1.01443 -0.64528 0
M  V30 53 H -2.66016 -1.18357 -1.75556 0
M  V30 54 H -2.39062 -1.70836 1.22739 0
M  V30 55 H -1.67585 -3.47521 1.84721 0
M  V30 56 H -0.0817413 -3.61098 2.6174 0
M  V30 57 H -1.47059 -5.54065 0.729479 0
M  V30 58 H -0.797927 -5.77957 2.38436 0
M  V30 59 H 0.374714 -6.79308 0.332362 0
M  V30 60 H 1.47612 -5.88919 1.51068 0
M  V30 61 H 2.00565 -5.30538 -0.806824 0
M  V30 62 H 1.69997 -3.79155 1.31216 0
M  V30 63 H 3.24165 -3.18426 -0.446888 0
M  V30 64 H 2.00423 -2.24243 -1.37809 0
M  V30 65 H 1.6435 -1.01117 0.993328 0
M  V30 66 H 3.12579 -1.92694 1.40893 0
M  V30 67 H 3.81351 0.793686 1.61696 0
M  V30 68 H 4.74133 1.34964 -1.15543 0
M  V30 69 H 7.60474 1.49026 -1.28741 0
M  V30 70 H 4.82687 2.9867 1.46771 0
M  V30 71 H 3.50125 3.12268 0.318692 0
M  V30 72 H 6.49604 3.77147 -0.100593 0
M  V30 73 H 5.26052 3.88496 -1.41553 0
M  V30 74 H 5.36892 5.51698 1.19325 0
M  V30 75 H 5.6839 6.01926 -0.507676 0
M  V30 76 H 3.46779 6.78399 0.248172 0
M  V30 77 H 3.00179 5.03608 0.512549 0
M  V30 78 H 2.26648 5.30355 -1.59494 0
M  V30 79 H 3.94007 5.29707 -2.10858 0
M  V30 80 H 0.813632 -6.52167 -2.40915 0
M  V30 81 H -0.527797 -5.61308 -3.09512 0
M  V30 82 H 1.05469 -4.80888 -3.09585 0
M  V30 83 H -1.5149 0.530777 -0.592795 0
M  V30 84 H -1.22781 2.42911 1.38731 0
M  V30 85 H -3.91807 2.50493 -0.144961 0
M  V30 86 H -2.28908 2.40334 -0.806641 0
M  V30 87 H -0.767716 4.18711 -0.7156 0
M  V30 88 H -0.62327 6.65799 -0.993251 0
M  V30 89 H -2.54839 8.06213 -0.487562 0
M  V30 90 H -4.66014 7.04197 0.306768 0
M  V30 91 H -4.86545 4.64612 0.584424 0
M  V30 92 H -2.31628 2.771 3.36421 0
M  V30 93 H -4.79033 2.07033 1.87367 0
M  V30 94 H -4.87358 3.47281 3.08151 0
M  V30 95 H -4.38852 1.8444 3.59752 0
M  V30 END ATOM
M  V30 BEGIN BOND
M  V30 1 1 1 2
M  V30 2 1 2 3
M  V30 3 1 3 4
M  V30 4 1 4 5
M  V30 5 1 5 6
M  V30 6 1 6 7
M  V30 7 2 7 8
M  V30 8 1 7 9
M  V30 9 1 9 10
M  V30 10 1 10 11
M  V30 11 1 11 12
M  V30 12 1 12 13
M  V30 13 1 13 14
M  V30 14 1 14 15
M  V30 15 1 15 16
M  V30 16 1 16 17
M  V30 17 2 17 18
M  V30 18 1 17 19
M  V30 19 1 19 20
M  V30 20 1 20 21
M  V30 21 2 21 22
M  V30 22 1 21 23
M  V30 23 1 20 24
M  V30 24 1 24 25
M  V30 25 1 25 26
M  V30 26 1 26 27
M  V30 27 1 27 28
M  V30 28 1 13 29
M  V30 29 1 29 30
M  V30 30 1 6 31
M  V30 31 1 31 32
M  V30 32 2 32 33
M  V30 33 1 32 34
M  V30 34 1 34 35
M  V30 35 1 35 36
M  V30 36 2 36 37
M  V30 37 1 37 38
M  V30 38 2 38 39
M  V30 39 1 39 40
M  V30 40 2 40 41
M  V30 41 1 34 42
M  V30 42 1 42 43
M  V30 43 1 14 9
M  V30 44 1 41 36
M  V30 45 1 1 44
M  V30 46 1 1 45
M  V30 47 1 2 46
M  V30 48 1 2 47
M  V30 49 1 3 48
M  V30 50 1 3 49
M  V30 51 1 4 50
M  V30 52 1 4 51
M  V30 53 1 5 52
M  V30 54 1 5 53
M  V30 55 1 6 54 CFG=1
M  V30 56 1 10 55
M  V30 57 1 10 56
M  V30 58 1 11 57
M  V30 59 1 11 58
M  V30 60 1 12 59
M  V30 61 1 12 60
M  V30 62 1 13 61 CFG=3
M  V30 63 1 14 62 CFG=1
M  V30 64 1 15 63
M  V30 65 1 15 64
M  V30 66 1 16 65
M  V30 67 1 16 66
M  V30 68 1 19 67
M  V30 69 1 20 68 CFG=3
M  V30 70 1 23 69
M  V30 71 1 24 70
M  V30 72 1 24 71
M  V30 73 1 25 72
M  V30 74 1 25 73
M  V30 75 1 26 74
M  V30 76 1 26 75
M  V30 77 1 27 76
M  V30 78 1 27 77
M  V30 79 1 28 78
M  V30 80 1 28 79
M  V30 81 1 30 80
M  V30 82 1 30 81
M  V30 83 1 30 82
M  V30 84 1 31 83
M  V30 85 1 34 84 CFG=1
M  V30 86 1 35 85
M  V30 87 1 35 86
M  V30 88 1 37 87
M  V30 89 1 38 88
M  V30 90 1 39 89
M  V30 91 1 40 90
M  V30 92 1 41 91
M  V30 93 1 42 92
M  V30 94 1 43 93
M  V30 95 1 43 94
M  V30 96 1 43 95
M  V30 END BOND
M  V30 END CTAB
M  END
