
     RDKit          3D

  0  0  0  0  0  0  0  0  0  0999 V3000
M  V30 BEGIN CTAB
M  V30 COUNTS 36 37 0 0 0
M  V30 BEGIN ATOM
M  V30 1 N 7.15378 0.48193 -0.295423 0
M  V30 2 S 6.34012 -1.06148 -0.204601 0
M  V30 3 O 6.83844 -1.91852 -1.32356 0
M  V30 4 O 6.60451 -1.71148 1.1358 0
M  V30 5 C 4.61044 -0.819147 -0.317156 0
M  V30 6 C 3.87835 -0.622401 0.827431 0
M  V30 7 C 2.48198 -0.421504 0.801504 0
M  V30 8 C 1.81329 -0.417383 -0.383268 0
M  V30 9 N 0.432955 -0.209388 -0.517413 0
M  V30 10 C -0.4622 0.263973 0.471282 0
M  V30 11 O -0.122388 0.575966 1.63542 0
M  V30 12 C -1.89859 0.429332 0.194021 0
M  V30 13 C -2.47991 -0.205664 -0.869646 0
M  V30 14 C -3.84081 -0.0448128 -1.14145 0
M  V30 15 C -4.60053 0.76158 -0.327858 0
M  V30 16 C -4.04251 1.41098 0.747252 0
M  V30 17 C -2.70445 1.22623 0.978477 0
M  V30 18 S -6.31268 1.00426 -0.615385 0
M  V30 19 N -7.20783 -0.183097 0.232122 0
M  V30 20 O -6.59365 0.916944 -2.09565 0
M  V30 21 O -6.70118 2.35878 -0.102544 0
M  V30 22 C 2.56073 -0.617391 -1.53781 0
M  V30 23 C 3.92067 -0.812742 -1.50579 0
M  V30 24 H 8.07614 0.441191 0.218178 0
M  V30 25 H 6.57392 1.17541 0.261474 0
M  V30 26 H 4.37897 -0.619727 1.78299 0
M  V30 27 H 1.97983 -0.283627 1.74979 0
M  V30 28 H 0.00212514 -0.434262 -1.48187 0
M  V30 29 H -1.92356 -0.849252 -1.52828 0
M  V30 30 H -4.28991 -0.559232 -1.99563 0
M  V30 31 H -4.6526 2.04024 1.37609 0
M  V30 32 H -2.21961 1.72223 1.82067 0
M  V30 33 H -7.37117 -1.05623 -0.317234 0
M  V30 34 H -6.78112 -0.373429 1.16841 0
M  V30 35 H 2.0668 -0.619503 -2.4832 0
M  V30 36 H 4.49164 -0.968758 -2.42837 0
M  V30 END ATOM
M  V30 BEGIN BOND
M  V30 1 1 1 2
M  V30 2 2 2 3
M  V30 3 2 2 4
M  V30 4 1 2 5
M  V30 5 2 5 6
M  V30 6 1 6 7
M  V30 7 2 7 8
M  V30 8 1 8 9
M  V30 9 1 9 10
M  V30 10 2 10 11
M  V30 11 1 10 12
M  V30 12 2 12 13
M  V30 13 1 13 14
M  V30 14 2 14 15
M  V30 15 1 15 16
M  V30 16 2 16 17
M  V30 17 1 15 18
M  V30 18 1 18 19
M  V30 19 2 18 20
M  V30 20 2 18 21
M  V30 21 1 8 22
M  V30 22 2 22 23
M  V30 23 1 23 5
M  V30 24 1 17 12
M  V30 25 1 1 24
M  V30 26 1 1 25
M  V30 27 1 6 26
M  V30 28 1 7 27
M  V30 29 1 9 28
M  V30 30 1 13 29
M  V30 31 1 14 30
M  V30 32 1 16 31
M  V30 33 1 17 32
M  V30 34 1 19 33
M  V30 35 1 19 34
M  V30 36 1 22 35
M  V30 37 1 23 36
M  V30 END BOND
M  V30 END CTAB
M  END
