
     RDKit          3D

  0  0  0  0  0  0  0  0  0  0999 V3000
M  V30 BEGIN CTAB
M  V30 COUNTS 43 44 0 0 0
M  V30 BEGIN ATOM
M  V30 1 C -4.06501 -1.63077 1.75846 0
M  V30 2 C -4.71233 -1.19858 0.47034 0
M  V30 3 C -6.22577 -1.24413 0.65238 0
M  V30 4 C -4.35067 0.21772 0.177768 0 CFG=2
M  V30 5 N -4.95746 0.694859 -1.06035 0
M  V30 6 C -2.89972 0.477822 0.0436342 0
M  V30 7 O -2.16357 0.173748 1.0113 0
M  V30 8 O -2.3089 1.02649 -1.06265 0
M  V30 9 C -0.958534 1.29983 -1.26676 0
M  V30 10 C -0.0712579 0.102471 -1.2134 0
M  V30 11 O 1.26515 0.361178 -1.41747 0
M  V30 12 C 1.85739 1.21449 -0.519067 0
M  V30 13 N 3.2824 1.38346 -0.849868 0
M  V30 14 C 3.82527 2.30617 -1.65951 0
M  V30 15 N 5.15837 2.13965 -1.71044 0
M  V30 16 C 5.46544 1.10021 -0.924847 0
M  V30 17 C 4.29367 0.619978 -0.381022 0
M  V30 18 N 4.27708 -0.44156 0.466744 0
M  V30 19 C 5.42797 -1.04835 0.791572 0
M  V30 20 N 5.43372 -2.179 1.69132 0
M  V30 21 N 6.56481 -0.579831 0.261883 0
M  V30 22 C 6.64059 0.463543 -0.579563 0
M  V30 23 O 7.70226 0.899226 -1.07275 0
M  V30 24 H -3.04848 -2.03206 1.58917 0
M  V30 25 H -3.96123 -0.724768 2.40691 0
M  V30 26 H -4.66396 -2.41629 2.27503 0
M  V30 27 H -4.44405 -1.89642 -0.364353 0
M  V30 28 H -6.6833 -1.53953 -0.322356 0
M  V30 29 H -6.63672 -0.221539 0.861751 0
M  V30 30 H -6.5327 -1.87746 1.49216 0
M  V30 31 H -4.74075 0.846869 1.00291 0
M  V30 32 H -5.98444 0.684687 -1.02319 0
M  V30 33 H -4.53261 0.258541 -1.89226 0
M  V30 34 H -0.861758 1.7524 -2.28314 0
M  V30 35 H -0.558691 2.06801 -0.567424 0
M  V30 36 H -0.237112 -0.538196 -0.300703 0
M  V30 37 H -0.366521 -0.596556 -2.05554 0
M  V30 38 H 1.72662 0.918643 0.542247 0
M  V30 39 H 1.43654 2.23801 -0.60521 0
M  V30 40 H 3.22935 3.06507 -2.1819 0
M  V30 41 H 5.88175 -1.99505 2.61766 0
M  V30 42 H 5.03266 -3.09192 1.44842 0
M  V30 43 H 7.46446 -1.06103 0.521277 0
M  V30 END ATOM
M  V30 BEGIN BOND
M  V30 1 1 1 2
M  V30 2 1 2 3
M  V30 3 1 2 4
M  V30 4 1 4 5
M  V30 5 1 4 6
M  V30 6 2 6 7
M  V30 7 1 6 8
M  V30 8 1 8 9
M  V30 9 1 9 10
M  V30 10 1 10 11
M  V30 11 1 11 12
M  V30 12 1 12 13
M  V30 13 1 13 14
M  V30 14 2 14 15
M  V30 15 1 15 16
M  V30 16 2 16 17
M  V30 17 1 17 18
M  V30 18 2 18 19
M  V30 19 1 19 20
M  V30 20 1 19 21
M  V30 21 1 21 22
M  V30 22 2 22 23
M  V30 23 1 17 13
M  V30 24 1 22 16
M  V30 25 1 1 24
M  V30 26 1 1 25
M  V30 27 1 1 26
M  V30 28 1 2 27
M  V30 29 1 3 28
M  V30 30 1 3 29
M  V30 31 1 3 30
M  V30 32 1 4 31 CFG=1
M  V30 33 1 5 32
M  V30 34 1 5 33
M  V30 35 1 9 34
M  V30 36 1 9 35
M  V30 37 1 10 36
M  V30 38 1 10 37
M  V30 39 1 12 38
M  V30 40 1 12 39
M  V30 41 1 14 40
M  V30 42 1 20 41
M  V30 43 1 20 42
M  V30 44 1 21 43
M  V30 END BOND
M  V30 END CTAB
M  END
