
     RDKit          3D

  0  0  0  0  0  0  0  0  0  0999 V3000
M  V30 BEGIN CTAB
M  V30 COUNTS 28 29 0 0 0
M  V30 BEGIN ATOM
M  V30 1 C -2.20248 -1.50172 -0.734793 0
M  V30 2 C -1.68051 -0.713751 0.445032 0
M  V30 3 C -0.687999 0.30296 0.185785 0
M  V30 4 C 0.658772 0.060961 0.095751 0
M  V30 5 C 1.20051 -1.16353 0.381187 0
M  V30 6 N 0.407206 -2.23728 0.833754 0
M  V30 7 N 2.5485 -1.38351 0.301256 0
M  V30 8 C 3.36126 -0.394493 -0.0574804 0
M  V30 9 N 4.77972 -0.606435 -0.150152 0
M  V30 10 N 2.87 0.818988 -0.340931 0
M  V30 11 C 1.55213 1.07535 -0.274402 0
M  V30 12 N 1.11585 2.29126 -0.542792 0
M  V30 13 C -0.176752 2.61034 -0.474923 0
M  V30 14 C -1.07546 1.63326 -0.115073 0
M  V30 15 C -2.49632 2.01852 -0.0277527 0
M  V30 16 Br -3.08985 2.33445 1.79626 0
M  V30 17 H -3.30054 -1.33147 -0.95065 0
M  V30 18 H -1.70602 -1.19033 -1.67656 0
M  V30 19 H -2.17642 -2.60391 -0.588815 0
M  V30 20 H -1.74154 -1.21555 1.42309 0
M  V30 21 H -2.62087 -0.0707239 0.6599 0
M  V30 22 H 0.0770859 -2.33989 1.81515 0
M  V30 23 H 0.162752 -2.9969 0.169457 0
M  V30 24 H 5.43842 -0.236802 0.566076 0
M  V30 25 H 5.14498 -1.14691 -0.965316 0
M  V30 26 H -0.545866 3.61342 -0.691152 0
M  V30 27 H -2.60778 3.00525 -0.527875 0
M  V30 28 H -3.20876 1.36847 -0.554037 0
M  V30 END ATOM
M  V30 BEGIN BOND
M  V30 1 1 1 2
M  V30 2 1 2 3
M  V30 3 2 3 4
M  V30 4 1 4 5
M  V30 5 1 5 6
M  V30 6 2 5 7
M  V30 7 1 7 8
M  V30 8 1 8 9
M  V30 9 2 8 10
M  V30 10 1 10 11
M  V30 11 2 11 12
M  V30 12 1 12 13
M  V30 13 2 13 14
M  V30 14 1 14 15
M  V30 15 1 15 16
M  V30 16 1 14 3
M  V30 17 1 11 4
M  V30 18 1 1 17
M  V30 19 1 1 18
M  V30 20 1 1 19
M  V30 21 1 2 20
M  V30 22 1 2 21
M  V30 23 1 6 22
M  V30 24 1 6 23
M  V30 25 1 9 24
M  V30 26 1 9 25
M  V30 27 1 13 26
M  V30 28 1 15 27
M  V30 29 1 15 28
M  V30 END BOND
M  V30 END CTAB
M  END
