
     RDKit          3D

  0  0  0  0  0  0  0  0  0  0999 V3000
M  V30 BEGIN CTAB
M  V30 COUNTS 36 35 0 0 0
M  V30 BEGIN ATOM
M  V30 1 O -5.32783 -0.02471 -1.86307 0
M  V30 2 C -4.67721 0.402583 -0.677962 0
M  V30 3 O -4.20932 1.55936 -0.638065 0
M  V30 4 C -4.60919 -0.566963 0.415613 0
M  V30 5 C -3.59335 -0.363078 1.47747 0
M  V30 6 C -2.17394 -0.541309 1.10702 0
M  V30 7 C -1.53985 0.256113 0.0661713 0
M  V30 8 C -0.0683357 -0.156015 -0.103254 0
M  V30 9 C 0.663842 0.0691843 1.16975 0
M  V30 10 C 2.14366 -0.271183 1.10091 0
M  V30 11 C 2.78052 0.601587 0.0539915 0
M  V30 12 N 4.21512 0.314272 -0.0330483 0
M  V30 13 C 4.84681 0.640202 -1.09506 0
M  V30 14 N 6.23677 0.389592 -1.24219 0
M  V30 15 N 4.13999 1.26603 -2.15027 0
M  V30 16 H -6.34378 -0.136608 -1.78346 0
M  V30 17 H -4.41053 -1.60971 -0.0160227 0
M  V30 18 H -5.64303 -0.650032 0.894844 0
M  V30 19 H -3.76343 0.623378 2.01364 0
M  V30 20 H -3.87787 -1.1045 2.3023 0
M  V30 21 H -1.98894 -1.62592 0.876161 0
M  V30 22 H -1.59912 -0.416009 2.09646 0
M  V30 23 H -1.52997 1.35883 0.225511 0
M  V30 24 H -1.94261 0.0777554 -0.971024 0
M  V30 25 H 0.396804 0.426964 -0.919657 0
M  V30 26 H -0.101264 -1.24603 -0.379671 0
M  V30 27 H 0.504936 1.08738 1.52856 0
M  V30 28 H 0.26454 -0.661983 1.93023 0
M  V30 29 H 2.30562 -1.32766 0.876657 0
M  V30 30 H 2.57287 0.0314127 2.07689 0
M  V30 31 H 2.37952 0.429268 -0.977113 0
M  V30 32 H 2.60908 1.65308 0.354371 0
M  V30 33 H 6.61895 -0.173875 -2.03273 0
M  V30 34 H 6.89943 0.774131 -0.548748 0
M  V30 35 H 3.40384 1.97371 -2.00501 0
M  V30 36 H 4.41728 0.957252 -3.13017 0
M  V30 END ATOM
M  V30 BEGIN BOND
M  V30 1 1 1 2
M  V30 2 2 2 3
M  V30 3 1 2 4
M  V30 4 1 4 5
M  V30 5 1 5 6
M  V30 6 1 6 7
M  V30 7 1 7 8
M  V30 8 1 8 9
M  V30 9 1 9 10
M  V30 10 1 10 11
M  V30 11 1 11 12
M  V30 12 2 12 13 CFG=2
M  V30 13 1 13 14
M  V30 14 1 13 15
M  V30 15 1 1 16
M  V30 16 1 4 17
M  V30 17 1 4 18
M  V30 18 1 5 19
M  V30 19 1 5 20
M  V30 20 1 6 21
M  V30 21 1 6 22
M  V30 22 1 7 23
M  V30 23 1 7 24
M  V30 24 1 8 25
M  V30 25 1 8 26
M  V30 26 1 9 27
M  V30 27 1 9 28
M  V30 28 1 10 29
M  V30 29 1 10 30
M  V30 30 1 11 31
M  V30 31 1 11 32
M  V30 32 1 14 33
M  V30 33 1 14 34
M  V30 34 1 15 35
M  V30 35 1 15 36
M  V30 END BOND
M  V30 END CTAB
M  END
