
     RDKit          3D

  0  0  0  0  0  0  0  0  0  0999 V3000
M  V30 BEGIN CTAB
M  V30 COUNTS 30 30 0 0 0
M  V30 BEGIN ATOM
M  V30 1 N 4.7298 0.83275 1.02893 0
M  V30 2 N 4.50097 -0.407804 0.456466 0
M  V30 3 C 3.36768 -0.78219 -0.0146183 0
M  V30 4 S 1.9773 0.309001 0.0427382 0
M  V30 5 C 0.502136 -0.483215 -0.6953 0
M  V30 6 C -0.661758 0.493861 -0.621207 0
M  V30 7 O -0.299915 1.63317 -1.3382 0
M  V30 8 C -1.86227 -0.206256 -1.22301 0
M  V30 9 C -2.49665 -0.992613 -0.0667599 0
M  V30 10 C -3.29585 0.029249 0.714065 0
M  V30 11 C -2.3996 1.17664 1.04899 0
M  V30 12 C -0.938983 0.898368 0.791671 0
M  V30 13 N 3.2438 -2.07327 -0.578363 0
M  V30 14 H 4.7683 0.929899 2.05771 0
M  V30 15 H 4.86357 1.66972 0.429435 0
M  V30 16 H 0.266184 -1.44437 -0.198402 0
M  V30 17 H 0.773363 -0.713341 -1.73882 0
M  V30 18 H -0.330043 2.44687 -0.807361 0
M  V30 19 H -2.60045 0.510748 -1.64715 0
M  V30 20 H -1.58934 -0.923167 -2.01163 0
M  V30 21 H -3.10683 -1.8326 -0.432995 0
M  V30 22 H -1.68293 -1.40313 0.567925 0
M  V30 23 H -4.10387 0.384727 0.00959099 0
M  V30 24 H -3.79311 -0.42015 1.59726 0
M  V30 25 H -2.4921 1.38524 2.14667 0
M  V30 26 H -2.7206 2.10224 0.514012 0
M  V30 27 H -0.600314 0.15422 1.54585 0
M  V30 28 H -0.387382 1.83459 1.01638 0
M  V30 29 H 2.78944 -2.81967 0.0277476 0
M  V30 30 H 3.57943 -2.28952 -1.54062 0
M  V30 END ATOM
M  V30 BEGIN BOND
M  V30 1 1 1 2
M  V30 2 2 2 3 CFG=2
M  V30 3 1 3 4
M  V30 4 1 4 5
M  V30 5 1 5 6
M  V30 6 1 6 7
M  V30 7 1 6 8
M  V30 8 1 8 9
M  V30 9 1 9 10
M  V30 10 1 10 11
M  V30 11 1 11 12
M  V30 12 1 3 13
M  V30 13 1 12 6
M  V30 14 1 1 14
M  V30 15 1 1 15
M  V30 16 1 5 16
M  V30 17 1 5 17
M  V30 18 1 7 18
M  V30 19 1 8 19
M  V30 20 1 8 20
M  V30 21 1 9 21
M  V30 22 1 9 22
M  V30 23 1 10 23
M  V30 24 1 10 24
M  V30 25 1 11 25
M  V30 26 1 11 26
M  V30 27 1 12 27
M  V30 28 1 12 28
M  V30 29 1 13 29
M  V30 30 1 13 30
M  V30 END BOND
M  V30 END CTAB
M  END
