
     RDKit          3D

  0  0  0  0  0  0  0  0  0  0999 V3000
M  V30 BEGIN CTAB
M  V30 COUNTS 23 23 0 0 0
M  V30 BEGIN ATOM
M  V30 1 C 4.31194 -0.051425 -0.0153681 0
M  V30 2 S 3.11181 -1.32021 0.435383 0
M  V30 3 C 1.45787 -0.587767 0.708053 0
M  V30 4 C 0.907308 -0.0430546 -0.58975 0
M  V30 5 C -0.441027 0.530335 -0.274381 0
M  V30 6 N -0.776961 1.83502 -0.154896 0
M  V30 7 C -2.08476 1.91916 0.128752 0
M  V30 8 N -2.62745 0.68916 0.199482 0
M  V30 9 C -1.60981 -0.162377 -0.0494785 0
M  V30 10 N -1.70089 -1.57483 -0.0818356 0
M  V30 11 N -3.95165 0.319025 0.466306 0
M  V30 12 H 4.9175 -0.43917 -0.865382 0
M  V30 13 H 4.95895 0.192054 0.866729 0
M  V30 14 H 3.83212 0.904463 -0.305983 0
M  V30 15 H 1.5931 0.22974 1.44377 0
M  V30 16 H 0.780248 -1.3826 1.08811 0
M  V30 17 H 1.5302 0.736467 -1.02685 0
M  V30 18 H 0.793536 -0.873116 -1.32804 0
M  V30 19 H -2.60798 2.85456 0.273764 0
M  V30 20 H -1.4916 -2.03817 -0.989673 0
M  V30 21 H -1.96709 -2.08977 0.778687 0
M  V30 22 H -4.57953 -0.127046 -0.242751 0
M  V30 23 H -4.35583 0.479555 1.40316 0
M  V30 END ATOM
M  V30 BEGIN BOND
M  V30 1 1 1 2
M  V30 2 1 2 3
M  V30 3 1 3 4
M  V30 4 1 4 5
M  V30 5 1 5 6
M  V30 6 2 6 7
M  V30 7 1 7 8
M  V30 8 1 8 9
M  V30 9 1 9 10
M  V30 10 1 8 11
M  V30 11 2 9 5
M  V30 12 1 1 12
M  V30 13 1 1 13
M  V30 14 1 1 14
M  V30 15 1 3 15
M  V30 16 1 3 16
M  V30 17 1 4 17
M  V30 18 1 4 18
M  V30 19 1 7 19
M  V30 20 1 10 20
M  V30 21 1 10 21
M  V30 22 1 11 22
M  V30 23 1 11 23
M  V30 END BOND
M  V30 END CTAB
M  END
