
     RDKit          3D

  0  0  0  0  0  0  0  0  0  0999 V3000
M  V30 BEGIN CTAB
M  V30 COUNTS 176 182 0 0 0
M  V30 BEGIN ATOM
M  V30 1 C 8.25823 -3.61057 0.277743 0
M  V30 2 O 7.26046 -2.66654 0.212014 0
M  V30 3 C 5.9998 -3.20044 -0.0159402 0
M  V30 4 C 5.01374 -2.05433 -0.0638602 0 CFG=1
M  V30 5 O 3.74048 -2.4945 -0.282323 0
M  V30 6 C 3.09546 -3.07963 0.770852 0 CFG=2
M  V30 7 O 1.72382 -2.86647 0.701191 0
M  V30 8 C 1.12422 -3.50654 -0.360528 0 CFG=2
M  V30 9 C -0.156029 -2.78791 -0.730374 0 CFG=1
M  V30 10 C 0.0977058 -1.48954 -1.46873 0
M  V30 11 N 0.801862 -0.547145 -0.628273 0
M  V30 12 O -0.85093 -3.69222 -1.57181 0
M  V30 13 C -1.63389 -4.46698 -0.68428 0 CFG=2
M  V30 14 O -2.5598 -3.6249 -0.133479 0
M  V30 15 C -3.80455 -3.64875 -0.798364 0 CFG=2
M  V30 16 C -3.86732 -2.82611 -2.01773 0 CFG=1
M  V30 17 C -3.88868 -3.6764 -3.29702 0
M  V30 18 O -5.10744 -4.3439 -3.41434 0
M  V30 19 C -5.10412 -5.10546 -4.57565 0
M  V30 20 O -4.88946 -1.93606 -2.12373 0
M  V30 21 C -5.29446 -1.31999 -0.946418 0 CFG=2
M  V30 22 O -4.23343 -0.879448 -0.262366 0
M  V30 23 C -3.77215 0.380684 -0.351429 0 CFG=2
M  V30 24 C -3.69987 1.00807 1.05458 0 CFG=1
M  V30 25 C -3.44018 -0.0797671 2.07502 0
M  V30 26 O -3.43955 0.400633 3.35308 0
M  V30 27 C -4.61195 0.98549 3.75308 0
M  V30 28 O -2.77895 2.01698 1.10967 0
M  V30 29 C -2.68915 2.71485 -0.0659631 0 CFG=2
M  V30 30 O -2.14599 3.9978 0.117429 0
M  V30 31 C -0.766035 4.02399 -0.0762756 0 CFG=2
M  V30 32 C -0.122528 4.76614 1.04494 0 CFG=1
M  V30 33 C -0.521326 4.26573 2.41275 0
M  V30 34 N -0.00294565 5.1683 3.44001 0
M  V30 35 O 1.24377 4.80374 0.997126 0
M  V30 36 C 1.73355 4.50437 -0.263891 0 CFG=2
M  V30 37 O 3.11314 4.6333 -0.334252 0
M  V30 38 C 3.73557 3.40257 -0.152018 0 CFG=2
M  V30 39 C 4.96148 3.46698 0.729728 0 CFG=1
M  V30 40 C 4.71715 4.41067 1.91421 0
M  V30 41 O 4.48082 5.67818 1.4376 0
M  V30 42 C 4.25625 6.53717 2.51259 0
M  V30 43 O 5.20344 2.21794 1.25015 0
M  V30 44 C 4.87799 1.15436 0.415031 0 CFG=2
M  V30 45 O 5.68736 0.105815 0.687154 0
M  V30 46 C 5.16883 -1.0809 1.08427 0 CFG=1
M  V30 47 C 3.93315 -1.08977 1.89536 0 CFG=2
M  V30 48 O 4.17136 -0.613632 3.17941 0
M  V30 49 C 3.21382 0.237254 3.66538 0
M  V30 50 C 3.57002 -2.57978 2.11782 0 CFG=1
M  V30 51 O 2.55855 -2.67243 3.07524 0
M  V30 52 C 2.99363 -3.43203 4.18181 0
M  V30 53 C 5.14061 1.61332 -1.0144 0 CFG=2
M  V30 54 O 6.44531 1.98543 -1.20623 0
M  V30 55 C 7.00852 1.16426 -2.17926 0
M  V30 56 C 4.15893 2.72742 -1.41827 0 CFG=1
M  V30 57 O 3.08322 2.21176 -2.11314 0
M  V30 58 C 2.95696 2.6776 -3.39706 0
M  V30 59 C 1.00158 5.39236 -1.24335 0 CFG=2
M  V30 60 O 0.943982 6.70107 -0.778224 0
M  V30 61 C 1.58647 7.51891 -1.70039 0
M  V30 62 C -0.404824 4.78201 -1.36055 0 CFG=1
M  V30 63 O -0.343469 3.92093 -2.45476 0
M  V30 64 C -1.21027 4.37825 -3.44847 0
M  V30 65 C -4.00726 2.76838 -0.764355 0 CFG=2
M  V30 66 O -5.01306 3.40377 -0.0690454 0
M  V30 67 C -5.4851 4.54032 -0.718311 0
M  V30 68 C -4.41068 1.36343 -1.24423 0 CFG=1
M  V30 69 O -3.97194 1.31604 -2.56977 0
M  V30 70 C -5.02671 1.39299 -3.43918 0
M  V30 71 C -5.95505 -2.46643 -0.168162 0 CFG=2
M  V30 72 O -6.67929 -2.0334 0.90916 0
M  V30 73 C -8.00132 -2.44044 0.785547 0
M  V30 74 C -4.85706 -3.39465 0.23178 0 CFG=1
M  V30 75 O -5.48975 -4.60592 0.601329 0
M  V30 76 C -5.32408 -4.80514 1.96656 0
M  V30 77 C -0.713662 -5.07338 0.345457 0 CFG=2
M  V30 78 O -0.904392 -4.57441 1.62659 0
M  V30 79 C -1.22092 -5.58788 2.53641 0
M  V30 80 C 0.742693 -4.93468 -0.0424449 0 CFG=1
M  V30 81 O 1.0267 -5.80946 -1.08744 0
M  V30 82 C 1.94874 -6.78369 -0.70045 0
M  V30 83 H 8.32551 -4.18207 -0.671209 0
M  V30 84 H 8.11587 -4.29229 1.15822 0
M  V30 85 H 9.21529 -3.05864 0.440498 0
M  V30 86 H 5.93924 -3.69182 -1.01707 0
M  V30 87 H 5.79415 -3.95693 0.737447 0
M  V30 88 H 5.30227 -1.47605 -0.990752 0
M  V30 89 H 3.2949 -4.17443 0.7456 0
M  V30 90 H 1.74639 -3.53632 -1.27114 0
M  V30 91 H -0.775261 -2.54679 0.164115 0
M  V30 92 H -0.874388 -1.03811 -1.71957 0
M  V30 93 H 0.727512 -1.70966 -2.35834 0
M  V30 94 H 0.609539 0.452932 -0.923365 0
M  V30 95 H 0.375578 -0.62264 0.342555 0
M  V30 96 H -2.05811 -5.29121 -1.29087 0
M  V30 97 H -3.90983 -4.72791 -1.11959 0
M  V30 98 H -2.91906 -2.23635 -2.09855 0
M  V30 99 H -3.79102 -3.03153 -4.19399 0
M  V30 100 H -3.04561 -4.38944 -3.32526 0
M  V30 101 H -4.2529 -5.83984 -4.48511 0
M  V30 102 H -6.04355 -5.63399 -4.74818 0
M  V30 103 H -4.80751 -4.43562 -5.4321 0
M  V30 104 H -6.05296 -0.55807 -1.22072 0
M  V30 105 H -2.69992 0.268295 -0.737254 0
M  V30 106 H -4.7015 1.41643 1.24741 0
M  V30 107 H -2.54874 -0.670374 1.87133 0
M  V30 108 H -4.32425 -0.781443 2.00061 0
M  V30 109 H -4.51598 1.33941 4.82635 0
M  V30 110 H -4.81248 1.93341 3.1823 0
M  V30 111 H -5.49703 0.349345 3.72434 0
M  V30 112 H -1.95805 2.18305 -0.712457 0
M  V30 113 H -0.444366 2.96383 -0.146863 0
M  V30 114 H -0.510148 5.82286 0.996446 0
M  V30 115 H -1.59641 4.21149 2.57344 0
M  V30 116 H -0.0882736 3.26507 2.61134 0
M  V30 117 H -0.563034 6.04277 3.42614 0
M  V30 118 H 1.01923 5.34363 3.31863 0
M  V30 119 H 1.49558 3.45641 -0.539055 0
M  V30 120 H 2.99066 2.7801 0.427108 0
M  V30 121 H 5.8334 3.89614 0.205328 0
M  V30 122 H 3.82981 3.98026 2.44735 0
M  V30 123 H 5.54842 4.364 2.62825 0
M  V30 124 H 5.15368 6.53126 3.15064 0
M  V30 125 H 3.35922 6.12749 3.04107 0
M  V30 126 H 4.0012 7.53626 2.13762 0
M  V30 127 H 3.80287 0.899723 0.450836 0
M  V30 128 H 5.96715 -1.55479 1.74302 0
M  V30 129 H 3.02175 -0.694212 1.44295 0
M  V30 130 H 3.45278 0.584518 4.69242 0
M  V30 131 H 2.18493 -0.184442 3.60182 0
M  V30 132 H 3.19639 1.15232 3.04395 0
M  V30 133 H 4.4387 -3.1377 2.50635 0
M  V30 134 H 2.19959 -3.50775 4.9396 0
M  V30 135 H 3.86313 -2.927 4.65135 0
M  V30 136 H 3.32819 -4.44139 3.83711 0
M  V30 137 H 4.87792 0.755625 -1.68567 0
M  V30 138 H 6.45373 1.25499 -3.15661 0
M  V30 139 H 8.05835 1.50392 -2.33213 0
M  V30 140 H 6.97714 0.089059 -1.89016 0
M  V30 141 H 4.71064 3.4358 -2.04603 0
M  V30 142 H 3.8344 2.45223 -4.03851 0
M  V30 143 H 2.01362 2.28815 -3.8149 0
M  V30 144 H 2.87983 3.78145 -3.37517 0
M  V30 145 H 1.52813 5.36309 -2.19575 0
M  V30 146 H 2.63444 7.15671 -1.76745 0
M  V30 147 H 1.60232 8.57475 -1.42745 0
M  V30 148 H 1.12917 7.4162 -2.72134 0
M  V30 149 H -1.11726 5.59587 -1.5606 0
M  V30 150 H -1.14676 3.6884 -4.29822 0
M  V30 151 H -0.803457 5.37791 -3.7676 0
M  V30 152 H -2.24511 4.47536 -3.10917 0
M  V30 153 H -3.84054 3.36852 -1.69826 0
M  V30 154 H -5.87376 4.18441 -1.7089 0
M  V30 155 H -4.66151 5.25294 -0.970732 0
M  V30 156 H -6.33104 5.00616 -0.211963 0
M  V30 157 H -5.53239 1.39636 -1.1872 0
M  V30 158 H -4.61069 1.35126 -4.48657 0
M  V30 159 H -5.77081 0.600274 -3.38613 0
M  V30 160 H -5.48557 2.41715 -3.36057 0
M  V30 161 H -6.61837 -3.03158 -0.860541 0
M  V30 162 H -8.59924 -2.09202 1.6587 0
M  V30 163 H -8.10224 -3.53389 0.630488 0
M  V30 164 H -8.4745 -1.95552 -0.116966 0
M  V30 165 H -4.4211 -2.98958 1.16778 0
M  V30 166 H -4.26931 -4.86909 2.25818 0
M  V30 167 H -5.72031 -3.88275 2.48535 0
M  V30 168 H -5.92607 -5.63349 2.35427 0
M  V30 169 H -0.879135 -6.18955 0.410047 0
M  V30 170 H -0.412335 -6.35386 2.60162 0
M  V30 171 H -1.51574 -5.19909 3.51168 0
M  V30 172 H -2.11388 -6.16132 2.15049 0
M  V30 173 H 1.33721 -5.25417 0.830653 0
M  V30 174 H 1.55311 -7.37402 0.137064 0
M  V30 175 H 2.27089 -7.40312 -1.55722 0
M  V30 176 H 2.88791 -6.29336 -0.32196 0
M  V30 END ATOM
M  V30 BEGIN BOND
M  V30 1 1 1 2
M  V30 2 1 2 3
M  V30 3 1 3 4
M  V30 4 1 4 5
M  V30 5 1 5 6
M  V30 6 1 6 7
M  V30 7 1 7 8
M  V30 8 1 8 9
M  V30 9 1 9 10
M  V30 10 1 10 11
M  V30 11 1 9 12
M  V30 12 1 12 13
M  V30 13 1 13 14
M  V30 14 1 14 15
M  V30 15 1 15 16
M  V30 16 1 16 17
M  V30 17 1 17 18
M  V30 18 1 18 19
M  V30 19 1 16 20
M  V30 20 1 20 21
M  V30 21 1 21 22
M  V30 22 1 22 23
M  V30 23 1 23 24
M  V30 24 1 24 25
M  V30 25 1 25 26
M  V30 26 1 26 27
M  V30 27 1 24 28
M  V30 28 1 28 29
M  V30 29 1 29 30
M  V30 30 1 30 31
M  V30 31 1 31 32
M  V30 32 1 32 33
M  V30 33 1 33 34
M  V30 34 1 32 35
M  V30 35 1 35 36
M  V30 36 1 36 37
M  V30 37 1 37 38
M  V30 38 1 38 39
M  V30 39 1 39 40
M  V30 40 1 40 41
M  V30 41 1 41 42
M  V30 42 1 39 43
M  V30 43 1 43 44
M  V30 44 1 44 45
M  V30 45 1 45 46
M  V30 46 1 46 47
M  V30 47 1 47 48
M  V30 48 1 48 49
M  V30 49 1 47 50
M  V30 50 1 50 51
M  V30 51 1 51 52
M  V30 52 1 44 53
M  V30 53 1 53 54
M  V30 54 1 54 55
M  V30 55 1 53 56
M  V30 56 1 56 57
M  V30 57 1 57 58
M  V30 58 1 36 59
M  V30 59 1 59 60
M  V30 60 1 60 61
M  V30 61 1 59 62
M  V30 62 1 62 63
M  V30 63 1 63 64
M  V30 64 1 29 65
M  V30 65 1 65 66
M  V30 66 1 66 67
M  V30 67 1 65 68
M  V30 68 1 68 69
M  V30 69 1 69 70
M  V30 70 1 21 71
M  V30 71 1 71 72
M  V30 72 1 72 73
M  V30 73 1 71 74
M  V30 74 1 74 75
M  V30 75 1 75 76
M  V30 76 1 13 77
M  V30 77 1 77 78
M  V30 78 1 78 79
M  V30 79 1 77 80
M  V30 80 1 80 81
M  V30 81 1 81 82
M  V30 82 1 46 4
M  V30 83 1 50 6
M  V30 84 1 80 8
M  V30 85 1 74 15
M  V30 86 1 68 23
M  V30 87 1 62 31
M  V30 88 1 56 38
M  V30 89 1 1 83
M  V30 90 1 1 84
M  V30 91 1 1 85
M  V30 92 1 3 86
M  V30 93 1 3 87
M  V30 94 1 4 88 CFG=3
M  V30 95 1 6 89 CFG=1
M  V30 96 1 8 90 CFG=3
M  V30 97 1 9 91 CFG=1
M  V30 98 1 10 92
M  V30 99 1 10 93
M  V30 100 1 11 94
M  V30 101 1 11 95
M  V30 102 1 13 96 CFG=3
M  V30 103 1 15 97 CFG=3
M  V30 104 1 16 98 CFG=3
M  V30 105 1 17 99
M  V30 106 1 17 100
M  V30 107 1 19 101
M  V30 108 1 19 102
M  V30 109 1 19 103
M  V30 110 1 21 104 CFG=3
M  V30 111 1 23 105 CFG=3
M  V30 112 1 24 106 CFG=1
M  V30 113 1 25 107
M  V30 114 1 25 108
M  V30 115 1 27 109
M  V30 116 1 27 110
M  V30 117 1 27 111
M  V30 118 1 29 112 CFG=3
M  V30 119 1 31 113 CFG=3
M  V30 120 1 32 114 CFG=1
M  V30 121 1 33 115
M  V30 122 1 33 116
M  V30 123 1 34 117
M  V30 124 1 34 118
M  V30 125 1 36 119 CFG=3
M  V30 126 1 38 120 CFG=1
M  V30 127 1 39 121 CFG=3
M  V30 128 1 40 122
M  V30 129 1 40 123
M  V30 130 1 42 124
M  V30 131 1 42 125
M  V30 132 1 42 126
M  V30 133 1 44 127 CFG=3
M  V30 134 1 46 128 CFG=1
M  V30 135 1 47 129 CFG=3
M  V30 136 1 49 130
M  V30 137 1 49 131
M  V30 138 1 49 132
M  V30 139 1 50 133 CFG=1
M  V30 140 1 52 134
M  V30 141 1 52 135
M  V30 142 1 52 136
M  V30 143 1 53 137 CFG=3
M  V30 144 1 55 138
M  V30 145 1 55 139
M  V30 146 1 55 140
M  V30 147 1 56 141 CFG=3
M  V30 148 1 58 142
M  V30 149 1 58 143
M  V30 150 1 58 144
M  V30 151 1 59 145 CFG=3
M  V30 152 1 61 146
M  V30 153 1 61 147
M  V30 154 1 61 148
M  V30 155 1 62 149 CFG=3
M  V30 156 1 64 150
M  V30 157 1 64 151
M  V30 158 1 64 152
M  V30 159 1 65 153 CFG=3
M  V30 160 1 67 154
M  V30 161 1 67 155
M  V30 162 1 67 156
M  V30 163 1 68 157 CFG=3
M  V30 164 1 70 158
M  V30 165 1 70 159
M  V30 166 1 70 160
M  V30 167 1 71 161 CFG=3
M  V30 168 1 73 162
M  V30 169 1 73 163
M  V30 170 1 73 164
M  V30 171 1 74 165 CFG=1
M  V30 172 1 76 166
M  V30 173 1 76 167
M  V30 174 1 76 168
M  V30 175 1 77 169 CFG=1
M  V30 176 1 79 170
M  V30 177 1 79 171
M  V30 178 1 79 172
M  V30 179 1 80 173 CFG=1
M  V30 180 1 82 174
M  V30 181 1 82 175
M  V30 182 1 82 176
M  V30 END BOND
M  V30 END CTAB
M  END
