
     RDKit          3D

  0  0  0  0  0  0  0  0  0  0999 V3000
M  V30 BEGIN CTAB
M  V30 COUNTS 26 27 0 0 0
M  V30 BEGIN ATOM
M  V30 1 Br 4.4853 2.61689 -1.17102 0
M  V30 2 C 3.45506 1.16565 -0.484631 0
M  V30 3 C 4.14577 0.0576934 -0.0308631 0
M  V30 4 C 3.42025 -0.995146 0.466043 0
M  V30 5 C 2.06073 -0.95294 0.512157 0
M  V30 6 C 1.32774 0.144485 0.065025 0
M  V30 7 C 2.07643 1.19434 -0.431674 0
M  V30 8 C -0.116139 0.202255 0.108316 0
M  V30 9 N -0.890844 1.2282 0.519026 0
M  V30 10 N -2.17251 0.915957 0.415878 0
M  V30 11 C -2.28962 -0.322881 -0.0649015 0
M  V30 12 C -0.991857 -0.787831 -0.264664 0
M  V30 13 N -0.583752 -2.04833 -0.761449 0
M  V30 14 N -3.46566 -1.05311 -0.332361 0
M  V30 15 C -3.27763 1.80326 0.777355 0
M  V30 16 H 5.23392 0.0373848 -0.0736871 0
M  V30 17 H 3.951 -1.86032 0.82078 0
M  V30 18 H 1.47942 -1.77453 0.900646 0
M  V30 19 H 1.55439 2.08997 -0.800195 0
M  V30 20 H -0.49701 -2.82448 -0.0687118 0
M  V30 21 H -0.365426 -2.26685 -1.74317 0
M  V30 22 H -3.94723 -0.863266 -1.24786 0
M  V30 23 H -3.88965 -1.75777 0.298955 0
M  V30 24 H -3.72254 2.17691 -0.173012 0
M  V30 25 H -4.05169 1.23906 1.34153 0
M  V30 26 H -2.92844 2.63539 1.42249 0
M  V30 END ATOM
M  V30 BEGIN BOND
M  V30 1 1 1 2
M  V30 2 2 2 3
M  V30 3 1 3 4
M  V30 4 2 4 5
M  V30 5 1 5 6
M  V30 6 2 6 7
M  V30 7 1 6 8
M  V30 8 2 8 9
M  V30 9 1 9 10
M  V30 10 1 10 11
M  V30 11 2 11 12
M  V30 12 1 12 13
M  V30 13 1 11 14
M  V30 14 1 10 15
M  V30 15 1 7 2
M  V30 16 1 12 8
M  V30 17 1 3 16
M  V30 18 1 4 17
M  V30 19 1 5 18
M  V30 20 1 7 19
M  V30 21 1 13 20
M  V30 22 1 13 21
M  V30 23 1 14 22
M  V30 24 1 14 23
M  V30 25 1 15 24
M  V30 26 1 15 25
M  V30 27 1 15 26
M  V30 END BOND
M  V30 END CTAB
M  END
