
     RDKit          3D

  0  0  0  0  0  0  0  0  0  0999 V3000
M  V30 BEGIN CTAB
M  V30 COUNTS 64 67 0 0 0
M  V30 BEGIN ATOM
M  V30 1 N -4.4598 4.90875 -1.23418 0
M  V30 2 C -3.61817 3.76489 -1.1564 0
M  V30 3 N -2.4532 3.77545 -1.72016 0
M  V30 4 C -4.05832 2.57437 -0.443409 0
M  V30 5 C -5.28719 2.5063 0.173505 0
M  V30 6 C -5.68046 1.37891 0.839556 0
M  V30 7 C -4.84125 0.277192 0.90525 0
M  V30 8 C -3.61769 0.325488 0.29936 0
M  V30 9 C -3.24058 1.45903 -0.361814 0
M  V30 10 N -2.75837 -0.778575 0.360611 0
M  V30 11 C -1.81933 -0.833294 1.45553 0
M  V30 12 C -0.43255 -0.677892 0.86711 0
M  V30 13 O -0.368897 -0.55103 -0.350893 0
M  V30 14 N 0.690492 -0.684421 1.71092 0
M  V30 15 C 2.01043 -0.553203 1.23733 0
M  V30 16 C 2.9901 -0.149967 2.17239 0
M  V30 17 C 4.30683 -0.0109857 1.82326 0
M  V30 18 C 4.7364 -0.259709 0.536987 0
M  V30 19 C 3.80181 -0.650917 -0.374115 0
M  V30 20 C 2.45341 -0.796446 -0.0300185 0
M  V30 21 C 6.12728 -0.144846 0.200027 0
M  V30 22 C 7.00825 -1.13867 0.669923 0
M  V30 23 C 8.35215 -1.12419 0.368084 0
M  V30 24 C 8.85012 -0.103198 -0.419854 0
M  V30 25 C 7.98534 0.857905 -0.8707 0
M  V30 26 C 6.61502 0.852148 -0.568065 0
M  V30 27 S 5.64449 2.14014 -1.16447 0
M  V30 28 N 4.90525 2.95653 0.168224 0
M  V30 29 O 6.54977 3.14377 -1.88066 0
M  V30 30 O 4.61465 1.7361 -2.15082 0
M  V30 31 C -2.75581 -1.86414 -0.591109 0
M  V30 32 C -4.01844 -2.59823 -0.677575 0
M  V30 33 C -5.04033 -2.22011 -1.53117 0
M  V30 34 C -6.20624 -2.95534 -1.56695 0
M  V30 35 C -6.40262 -4.07465 -0.77244 0
M  V30 36 C -5.38736 -4.44732 0.073257 0
M  V30 37 C -4.20727 -3.7109 0.11569 0
M  V30 38 H -5.20301 5.01238 -1.95921 0
M  V30 39 H -4.37702 5.7159 -0.561106 0
M  V30 40 H -2.13487 4.63684 -2.23572 0
M  V30 41 H -5.91725 3.3945 0.0977682 0
M  V30 42 H -6.66057 1.33992 1.32553 0
M  V30 43 H -5.18496 -0.617012 1.44786 0
M  V30 44 H -2.27471 1.55279 -0.864357 0
M  V30 45 H -2.00002 -0.0730906 2.22673 0
M  V30 46 H -1.90496 -1.8741 1.88422 0
M  V30 47 H 0.528697 -0.797946 2.76569 0
M  V30 48 H 2.67616 0.049887 3.18343 0
M  V30 49 H 5.04378 0.303447 2.56969 0
M  V30 50 H 4.09773 -0.87898 -1.38114 0
M  V30 51 H 1.78763 -1.11996 -0.802416 0
M  V30 52 H 6.59654 -1.92852 1.28484 0
M  V30 53 H 9.03292 -1.88485 0.727484 0
M  V30 54 H 9.90735 -0.108658 -0.647622 0
M  V30 55 H 8.41899 1.65192 -1.49344 0
M  V30 56 H 3.9112 2.65518 0.215563 0
M  V30 57 H 5.46689 2.79357 1.0124 0
M  V30 58 H -1.95448 -2.57312 -0.32604 0
M  V30 59 H -2.5342 -1.48171 -1.62981 0
M  V30 60 H -4.94748 -1.35616 -2.17536 0
M  V30 61 H -7.04012 -2.69807 -2.2222 0
M  V30 62 H -7.31682 -4.65671 -0.797205 0
M  V30 63 H -5.55313 -5.32286 0.689647 0
M  V30 64 H -3.45218 -4.06352 0.804349 0
M  V30 END ATOM
M  V30 BEGIN BOND
M  V30 1 1 1 2
M  V30 2 2 2 3 CFG=2
M  V30 3 1 2 4
M  V30 4 2 4 5
M  V30 5 1 5 6
M  V30 6 2 6 7
M  V30 7 1 7 8
M  V30 8 2 8 9
M  V30 9 1 8 10
M  V30 10 1 10 11
M  V30 11 1 11 12
M  V30 12 2 12 13
M  V30 13 1 12 14
M  V30 14 1 14 15
M  V30 15 2 15 16
M  V30 16 1 16 17
M  V30 17 2 17 18
M  V30 18 1 18 19
M  V30 19 2 19 20
M  V30 20 1 18 21
M  V30 21 2 21 22
M  V30 22 1 22 23
M  V30 23 2 23 24
M  V30 24 1 24 25
M  V30 25 2 25 26
M  V30 26 1 26 27
M  V30 27 1 27 28
M  V30 28 2 27 29
M  V30 29 2 27 30
M  V30 30 1 10 31
M  V30 31 1 31 32
M  V30 32 2 32 33
M  V30 33 1 33 34
M  V30 34 2 34 35
M  V30 35 1 35 36
M  V30 36 2 36 37
M  V30 37 1 9 4
M  V30 38 1 20 15
M  V30 39 1 26 21
M  V30 40 1 37 32
M  V30 41 1 1 38
M  V30 42 1 1 39
M  V30 43 1 3 40
M  V30 44 1 5 41
M  V30 45 1 6 42
M  V30 46 1 7 43
M  V30 47 1 9 44
M  V30 48 1 11 45
M  V30 49 1 11 46
M  V30 50 1 14 47
M  V30 51 1 16 48
M  V30 52 1 17 49
M  V30 53 1 19 50
M  V30 54 1 20 51
M  V30 55 1 22 52
M  V30 56 1 23 53
M  V30 57 1 24 54
M  V30 58 1 25 55
M  V30 59 1 28 56
M  V30 60 1 28 57
M  V30 61 1 31 58
M  V30 62 1 31 59
M  V30 63 1 33 60
M  V30 64 1 34 61
M  V30 65 1 35 62
M  V30 66 1 36 63
M  V30 67 1 37 64
M  V30 END BOND
M  V30 END CTAB
M  END
