
     RDKit          3D

  0  0  0  0  0  0  0  0  0  0999 V3000
M  V30 BEGIN CTAB
M  V30 COUNTS 25 26 0 0 0
M  V30 BEGIN ATOM
M  V30 1 N -2.60515 2.24082 -1.13799 0
M  V30 2 C -2.23923 1.04233 -0.482305 0
M  V30 3 N -1.20415 0.907868 0.333607 0
M  V30 4 C -0.850255 -0.229647 0.96093 0
M  V30 5 S 0.554783 -0.359112 2.05068 0
M  V30 6 C 2.06687 -0.816699 1.16761 0
M  V30 7 C 2.45 0.289461 0.248318 0
M  V30 8 C 3.65366 0.211155 -0.616432 0
M  V30 9 C 3.69098 1.06391 0.634627 0
M  V30 10 N -1.62612 -1.31203 0.726764 0
M  V30 11 C -2.69087 -1.28566 -0.0767763 0
M  V30 12 C -3.02069 -0.0945703 -0.703204 0
M  V30 13 N -3.52003 -2.41075 -0.339992 0
M  V30 14 H -3.28815 2.86683 -0.676476 0
M  V30 15 H -2.21177 2.49797 -2.05129 0
M  V30 16 H 2.85202 -0.953094 1.93525 0
M  V30 17 H 1.96479 -1.80146 0.659291 0
M  V30 18 H 1.59665 0.911756 -0.11799 0
M  V30 19 H 3.61297 0.767251 -1.57611 0
M  V30 20 H 4.28498 -0.698547 -0.669897 0
M  V30 21 H 3.7216 2.15893 0.502429 0
M  V30 22 H 4.34762 0.656158 1.43335 0
M  V30 23 H -3.87148 -0.00618926 -1.36565 0
M  V30 24 H -4.20957 -2.68422 0.381348 0
M  V30 25 H -3.45944 -2.96247 -1.2201 0
M  V30 END ATOM
M  V30 BEGIN BOND
M  V30 1 1 1 2
M  V30 2 2 2 3
M  V30 3 1 3 4
M  V30 4 1 4 5
M  V30 5 1 5 6
M  V30 6 1 6 7
M  V30 7 1 7 8
M  V30 8 1 8 9
M  V30 9 2 4 10
M  V30 10 1 10 11
M  V30 11 2 11 12
M  V30 12 1 11 13
M  V30 13 1 12 2
M  V30 14 1 9 7
M  V30 15 1 1 14
M  V30 16 1 1 15
M  V30 17 1 6 16
M  V30 18 1 6 17
M  V30 19 1 7 18
M  V30 20 1 8 19
M  V30 21 1 8 20
M  V30 22 1 9 21
M  V30 23 1 9 22
M  V30 24 1 12 23
M  V30 25 1 13 24
M  V30 26 1 13 25
M  V30 END BOND
M  V30 END CTAB
M  END
