
     RDKit          3D

  0  0  0  0  0  0  0  0  0  0999 V3000
M  V30 BEGIN CTAB
M  V30 COUNTS 32 34 0 0 0
M  V30 BEGIN ATOM
M  V30 1 N 2.69103 0.940419 3.29021 0
M  V30 2 C 2.55964 0.587214 1.92243 0
M  V30 3 N 3.64482 0.576293 1.1026 0
M  V30 4 C 3.58812 0.252253 -0.197831 0
M  V30 5 N 4.73216 0.24548 -1.04253 0
M  V30 6 C 2.35378 -0.0844702 -0.710109 0
M  V30 7 C 1.21221 -0.0892968 0.0847967 0
M  V30 8 N 1.37893 0.251202 1.3748 0
M  V30 9 N 0.15283 -0.45417 -0.668913 0
M  V30 10 C 0.608418 -0.675415 -1.90967 0
M  V30 11 N 1.94086 -0.450163 -1.92866 0
M  V30 12 C -1.21899 -0.584272 -0.228092 0
M  V30 13 C -1.58287 0.526312 0.693797 0
M  V30 14 C -3.03057 0.929372 0.635243 0
M  V30 15 N -3.79374 -0.260669 0.278482 0
M  V30 16 C -3.56308 -0.466141 -1.13756 0
M  V30 17 C -2.12763 -0.779466 -1.39167 0
M  V30 18 H 1.96271 1.50578 3.75438 0
M  V30 19 H 3.51768 0.632298 3.82704 0
M  V30 20 H 4.88371 0.898463 -1.82528 0
M  V30 21 H 5.49067 -0.473567 -0.86946 0
M  V30 22 H 0.0279936 -0.987767 -2.78786 0
M  V30 23 H -1.25109 -1.53836 0.377164 0
M  V30 24 H -0.978119 1.44101 0.479448 0
M  V30 25 H -1.36401 0.281082 1.76185 0
M  V30 26 H -3.39746 1.31616 1.60809 0
M  V30 27 H -3.13576 1.70441 -0.168771 0
M  V30 28 H -3.36468 -1.07224 0.792736 0
M  V30 29 H -3.85507 0.430084 -1.6773 0
M  V30 30 H -4.25445 -1.28808 -1.44718 0
M  V30 31 H -2.0769 -1.83565 -1.75679 0
M  V30 32 H -1.75113 -0.157454 -2.2354 0
M  V30 END ATOM
M  V30 BEGIN BOND
M  V30 1 1 1 2
M  V30 2 2 2 3
M  V30 3 1 3 4
M  V30 4 1 4 5
M  V30 5 2 4 6
M  V30 6 1 6 7
M  V30 7 2 7 8
M  V30 8 1 7 9
M  V30 9 1 9 10
M  V30 10 2 10 11
M  V30 11 1 9 12
M  V30 12 1 12 13
M  V30 13 1 13 14
M  V30 14 1 14 15
M  V30 15 1 15 16
M  V30 16 1 16 17
M  V30 17 1 8 2
M  V30 18 1 17 12
M  V30 19 1 11 6
M  V30 20 1 1 18
M  V30 21 1 1 19
M  V30 22 1 5 20
M  V30 23 1 5 21
M  V30 24 1 10 22
M  V30 25 1 12 23
M  V30 26 1 13 24
M  V30 27 1 13 25
M  V30 28 1 14 26
M  V30 29 1 14 27
M  V30 30 1 15 28
M  V30 31 1 16 29
M  V30 32 1 16 30
M  V30 33 1 17 31
M  V30 34 1 17 32
M  V30 END BOND
M  V30 END CTAB
M  END
