
     RDKit          3D

  0  0  0  0  0  0  0  0  0  0999 V3000
M  V30 BEGIN CTAB
M  V30 COUNTS 63 66 0 0 0
M  V30 BEGIN ATOM
M  V30 1 C -1.76868 -2.91056 0.737198 0 CFG=1
M  V30 2 S -1.68962 -2.55377 -1.01887 0
M  V30 3 C -0.150131 -1.65198 -1.29214 0
M  V30 4 C 0.975389 -2.19529 -0.428244 0
M  V30 5 C 2.26472 -2.38304 -1.11503 0
M  V30 6 S 2.92095 -0.749396 -1.64616 0
M  V30 7 C 3.32054 0.206661 -0.174021 0
M  V30 8 N 2.50416 1.02668 0.48679 0
M  V30 9 N 3.17205 1.53235 1.50121 0
M  V30 10 N 4.3878 1.03676 1.47633 0
M  V30 11 N 4.5131 0.206059 0.443403 0
M  V30 12 C 5.69772 -0.524432 0.097345 0
M  V30 13 C 6.61162 0.194389 -0.84294 0
M  V30 14 C 7.0795 1.49873 -0.246367 0
M  V30 15 C 7.99824 2.16668 -1.24858 0
M  V30 16 N 7.32918 2.43485 -2.50619 0
M  V30 17 C 0.74799 -2.51269 0.834178 0
M  V30 18 N -0.591281 -2.34529 1.37823 0
M  V30 19 C -1.41229 -1.80845 2.40304 0
M  V30 20 O -1.19496 -1.37834 3.55425 0
M  V30 21 C -2.60371 -1.96443 1.56718 0
M  V30 22 N -2.99999 -0.742464 0.820359 0
M  V30 23 C -4.34493 -0.355463 0.747848 0
M  V30 24 O -5.15043 -1.15171 1.37698 0
M  V30 25 C -4.90299 0.771899 0.0854739 0
M  V30 26 N -6.21149 0.926651 0.159448 0
M  V30 27 O -7.01787 0.0473064 0.842182 0
M  V30 28 C -8.23366 0.552499 1.35903 0
M  V30 29 C -8.95375 -0.552838 2.0584 0
M  V30 30 O -10.178 -0.36737 2.66966 0
M  V30 31 O -8.45174 -1.69942 2.10728 0
M  V30 32 C -4.0949 1.76849 -0.674493 0
M  V30 33 N -2.76667 1.70597 -0.815276 0
M  V30 34 S -2.3987 3.05128 -1.7424 0
M  V30 35 C -3.98012 3.66293 -1.9248 0
M  V30 36 N -4.42208 4.84445 -2.63316 0
M  V30 37 N -4.69391 2.78692 -1.25637 0
M  V30 38 C 1.80389 -2.95371 1.72292 0
M  V30 39 O 1.48689 -3.28137 3.05648 0
M  V30 40 O 3.00108 -3.08068 1.44132 0
M  V30 41 H -1.9212 -3.93672 0.993432 0
M  V30 42 H 0.104257 -1.74128 -2.34759 0
M  V30 43 H -0.310303 -0.569067 -1.07413 0
M  V30 44 H 3.00479 -3.02167 -0.703277 0
M  V30 45 H 2.00385 -2.89807 -2.12944 0
M  V30 46 H 5.40797 -1.49274 -0.402216 0
M  V30 47 H 6.23427 -0.848307 1.03134 0
M  V30 48 H 7.46062 -0.471045 -1.07286 0
M  V30 49 H 6.0608 0.34835 -1.79321 0
M  V30 50 H 6.23719 2.14809 0.0446463 0
M  V30 51 H 7.6848 1.27538 0.652113 0
M  V30 52 H 8.35834 3.15633 -0.873666 0
M  V30 53 H 8.83652 1.46941 -1.45394 0
M  V30 54 H 7.85114 3.14212 -3.04781 0
M  V30 55 H 6.31626 2.66322 -2.39021 0
M  V30 56 H -3.49719 -2.43682 2.00952 0
M  V30 57 H -2.17655 -0.271009 0.401089 0
M  V30 58 H -8.09708 1.35426 2.10003 0
M  V30 59 H -8.90944 0.911214 0.566622 0
M  V30 60 H -10.9219 0.211819 2.34126 0
M  V30 61 H -4.0103 5.77563 -2.49295 0
M  V30 62 H -5.19513 4.71899 -3.31094 0
M  V30 63 H 1.87534 -2.74695 3.82254 0
M  V30 END ATOM
M  V30 BEGIN BOND
M  V30 1 1 1 2
M  V30 2 1 2 3
M  V30 3 1 3 4
M  V30 4 1 4 5
M  V30 5 1 5 6
M  V30 6 1 6 7
M  V30 7 2 7 8
M  V30 8 1 8 9
M  V30 9 2 9 10
M  V30 10 1 10 11
M  V30 11 1 11 12
M  V30 12 1 12 13
M  V30 13 1 13 14
M  V30 14 1 14 15
M  V30 15 1 15 16
M  V30 16 2 4 17
M  V30 17 1 17 18
M  V30 18 1 18 19
M  V30 19 2 19 20
M  V30 20 1 19 21
M  V30 21 1 21 22
M  V30 22 1 22 23
M  V30 23 2 23 24
M  V30 24 1 23 25
M  V30 25 2 25 26
M  V30 26 1 26 27
M  V30 27 1 27 28
M  V30 28 1 28 29
M  V30 29 1 29 30
M  V30 30 2 29 31
M  V30 31 1 25 32
M  V30 32 2 32 33
M  V30 33 1 33 34
M  V30 34 1 34 35
M  V30 35 1 35 36
M  V30 36 2 35 37
M  V30 37 1 17 38
M  V30 38 1 38 39
M  V30 39 2 38 40
M  V30 40 1 18 1
M  V30 41 1 37 32
M  V30 42 1 21 1
M  V30 43 1 11 7
M  V30 44 1 1 41 CFG=3
M  V30 45 1 3 42
M  V30 46 1 3 43
M  V30 47 1 5 44
M  V30 48 1 5 45
M  V30 49 1 12 46
M  V30 50 1 12 47
M  V30 51 1 13 48
M  V30 52 1 13 49
M  V30 53 1 14 50
M  V30 54 1 14 51
M  V30 55 1 15 52
M  V30 56 1 15 53
M  V30 57 1 16 54
M  V30 58 1 16 55
M  V30 59 1 21 56
M  V30 60 1 22 57
M  V30 61 1 28 58
M  V30 62 1 28 59
M  V30 63 1 30 60
M  V30 64 1 36 61
M  V30 65 1 36 62
M  V30 66 1 39 63
M  V30 END BOND
M  V30 END CTAB
M  END
