
     RDKit          3D

  0  0  0  0  0  0  0  0  0  0999 V3000
M  V30 BEGIN CTAB
M  V30 COUNTS 22 22 0 0 0
M  V30 BEGIN ATOM
M  V30 1 N -2.06334 -1.56175 0.792553 0
M  V30 2 C -2.00636 -0.140338 0.900998 0
M  V30 3 C -1.16317 0.518994 -0.125549 0
M  V30 4 C 0.267293 0.154679 -0.138517 0
M  V30 5 C 0.845759 -0.693633 0.748001 0
M  V30 6 C 2.20737 -1.03226 0.699921 0
M  V30 7 C 2.96055 -0.462454 -0.300519 0
M  V30 8 C 2.40084 0.403077 -1.21499 0
M  V30 9 C 1.06473 0.718468 -1.14649 0
M  V30 10 Br 3.48327 1.18042 -2.59869 0
M  V30 11 Cl 4.67284 -0.855926 -0.402608 0
M  V30 12 N -1.35314 1.96343 -0.0972812 0
M  V30 13 H -2.90908 -1.99539 1.20025 0
M  V30 14 H -2.0377 -1.86031 -0.21854 0
M  V30 15 H -3.05453 0.267369 0.843642 0
M  V30 16 H -1.58951 0.104551 1.91853 0
M  V30 17 H -1.60815 0.238871 -1.15474 0
M  V30 18 H 0.267947 -1.13207 1.53672 0
M  V30 19 H 2.6083 -1.71665 1.43779 0
M  V30 20 H 0.597299 1.39321 -1.84831 0
M  V30 21 H -2.34861 2.13012 0.216394 0
M  V30 22 H -1.2426 2.3776 -1.04856 0
M  V30 END ATOM
M  V30 BEGIN BOND
M  V30 1 1 1 2
M  V30 2 1 2 3
M  V30 3 1 3 4
M  V30 4 2 4 5
M  V30 5 1 5 6
M  V30 6 2 6 7
M  V30 7 1 7 8
M  V30 8 2 8 9
M  V30 9 1 8 10
M  V30 10 1 7 11
M  V30 11 1 3 12
M  V30 12 1 9 4
M  V30 13 1 1 13
M  V30 14 1 1 14
M  V30 15 1 2 15
M  V30 16 1 2 16
M  V30 17 1 3 17
M  V30 18 1 5 18
M  V30 19 1 6 19
M  V30 20 1 9 20
M  V30 21 1 12 21
M  V30 22 1 12 22
M  V30 END BOND
M  V30 END CTAB
M  END
