
     RDKit          3D

  0  0  0  0  0  0  0  0  0  0999 V3000
M  V30 BEGIN CTAB
M  V30 COUNTS 24 23 0 0 0
M  V30 BEGIN ATOM
M  V30 1 C -2.81834 1.66267 0.00794209 0
M  V30 2 C -2.60756 0.182817 -0.00503083 0
M  V30 3 C -3.52441 -0.540905 -0.628312 0
M  V30 4 C -1.45212 -0.461154 0.632803 0
M  V30 5 C -0.130721 0.00309636 0.0599885 0
M  V30 6 N 0.909048 -0.707764 0.776524 0
M  V30 7 C 2.27347 -0.481046 0.459162 0
M  V30 8 N 2.60555 -0.338622 -0.77416 0
M  V30 9 N 3.93958 -0.114985 -1.11047 0
M  V30 10 N 3.25662 -0.411152 1.46936 0
M  V30 11 H -3.59799 1.95164 0.723594 0
M  V30 12 H -3.09553 1.9539 -1.03771 0
M  V30 13 H -1.87782 2.2114 0.243566 0
M  V30 14 H -4.39764 -0.120642 -1.11662 0
M  V30 15 H -3.39766 -1.61471 -0.653587 0
M  V30 16 H -1.39706 -0.273546 1.72966 0
M  V30 17 H -1.47649 -1.56227 0.508994 0
M  V30 18 H -0.147312 -0.256622 -1.02014 0
M  V30 19 H 0.00977987 1.09718 0.164207 0
M  V30 20 H 0.705443 -1.39505 1.53263 0
M  V30 21 H 4.72057 -0.768565 -0.886974 0
M  V30 22 H 4.20369 0.772443 -1.62885 0
M  V30 23 H 3.06348 -0.09638 2.44756 0
M  V30 24 H 4.23343 -0.691724 1.21935 0
M  V30 END ATOM
M  V30 BEGIN BOND
M  V30 1 1 1 2
M  V30 2 2 2 3 CFG=2
M  V30 3 1 2 4
M  V30 4 1 4 5
M  V30 5 1 5 6
M  V30 6 1 6 7
M  V30 7 2 7 8 CFG=2
M  V30 8 1 8 9
M  V30 9 1 7 10
M  V30 10 1 1 11
M  V30 11 1 1 12
M  V30 12 1 1 13
M  V30 13 1 3 14
M  V30 14 1 3 15
M  V30 15 1 4 16
M  V30 16 1 4 17
M  V30 17 1 5 18
M  V30 18 1 5 19
M  V30 19 1 6 20
M  V30 20 1 9 21
M  V30 21 1 9 22
M  V30 22 1 10 23
M  V30 23 1 10 24
M  V30 END BOND
M  V30 END CTAB
M  END
