
     RDKit          3D

  0  0  0  0  0  0  0  0  0  0999 V3000
M  V30 BEGIN CTAB
M  V30 COUNTS 39 39 0 0 0
M  V30 BEGIN ATOM
M  V30 1 C -1.1022 -2.39943 0.393886 0
M  V30 2 C -0.473044 -1.46124 -0.593127 0
M  V30 3 C -0.672149 -1.89051 -2.02563 0
M  V30 4 N -0.850847 -0.0981598 -0.441268 0
M  V30 5 C -2.09819 0.549412 -0.778061 0
M  V30 6 C -3.08222 0.529139 0.363885 0
M  V30 7 C -4.34611 1.22899 -0.0931635 0
M  V30 8 N -5.32255 1.22136 1.00689 0
M  V30 9 C 0.245676 0.601002 0.130771 0
M  V30 10 O 0.273191 1.8121 0.539774 0
M  V30 11 N 1.36319 -0.243795 0.198822 0
M  V30 12 C 2.68234 0.0713231 0.71308 0
M  V30 13 C 3.57735 0.614437 -0.37852 0
M  V30 14 C 4.95445 0.947908 0.138906 0
M  V30 15 N 4.92286 1.94316 1.18312 0
M  V30 16 C 0.989542 -1.48554 -0.327912 0
M  V30 17 O 1.70238 -2.49837 -0.5668 0
M  V30 18 H -0.427724 -3.30282 0.460066 0
M  V30 19 H -2.08639 -2.7688 0.0989158 0
M  V30 20 H -1.06941 -1.92412 1.38271 0
M  V30 21 H 0.0169609 -1.23789 -2.63853 0
M  V30 22 H -0.324487 -2.92408 -2.21321 0
M  V30 23 H -1.68442 -1.68247 -2.39697 0
M  V30 24 H -1.91356 1.63278 -1.02601 0
M  V30 25 H -2.59394 0.105357 -1.6563 0
M  V30 26 H -2.7118 1.06137 1.25885 0
M  V30 27 H -3.35532 -0.52353 0.567481 0
M  V30 28 H -4.1644 2.27945 -0.39968 0
M  V30 29 H -4.81322 0.632933 -0.904214 0
M  V30 30 H -5.85684 2.12417 0.973294 0
M  V30 31 H -5.99786 0.449061 0.923343 0
M  V30 32 H 3.15009 -0.842294 1.13452 0
M  V30 33 H 2.54777 0.772905 1.54063 0
M  V30 34 H 3.68834 -0.15923 -1.1651 0
M  V30 35 H 3.13324 1.50752 -0.861608 0
M  V30 36 H 5.59729 1.34375 -0.668016 0
M  V30 37 H 5.47398 0.0623131 0.548268 0
M  V30 38 H 5.82251 2.46113 1.17957 0
M  V30 39 H 4.80551 1.49072 2.11855 0
M  V30 END ATOM
M  V30 BEGIN BOND
M  V30 1 1 1 2
M  V30 2 1 2 3
M  V30 3 1 2 4
M  V30 4 1 4 5
M  V30 5 1 5 6
M  V30 6 1 6 7
M  V30 7 1 7 8
M  V30 8 1 4 9
M  V30 9 2 9 10
M  V30 10 1 9 11
M  V30 11 1 11 12
M  V30 12 1 12 13
M  V30 13 1 13 14
M  V30 14 1 14 15
M  V30 15 1 11 16
M  V30 16 2 16 17
M  V30 17 1 16 2
M  V30 18 1 1 18
M  V30 19 1 1 19
M  V30 20 1 1 20
M  V30 21 1 3 21
M  V30 22 1 3 22
M  V30 23 1 3 23
M  V30 24 1 5 24
M  V30 25 1 5 25
M  V30 26 1 6 26
M  V30 27 1 6 27
M  V30 28 1 7 28
M  V30 29 1 7 29
M  V30 30 1 8 30
M  V30 31 1 8 31
M  V30 32 1 12 32
M  V30 33 1 12 33
M  V30 34 1 13 34
M  V30 35 1 13 35
M  V30 36 1 14 36
M  V30 37 1 14 37
M  V30 38 1 15 38
M  V30 39 1 15 39
M  V30 END BOND
M  V30 END CTAB
M  END
