
     RDKit          3D

  0  0  0  0  0  0  0  0  0  0999 V3000
M  V30 BEGIN CTAB
M  V30 COUNTS 29 30 0 0 0
M  V30 BEGIN ATOM
M  V30 1 N 3.45999 2.43113 -0.412568 0
M  V30 2 N 3.63715 1.34754 0.44281 0
M  V30 3 C 2.70404 0.251432 0.474528 0
M  V30 4 N 1.62074 0.238608 -0.328793 0
M  V30 5 N 0.72719 -0.749576 -0.339426 0
M  V30 6 C -0.402969 -0.713191 -1.19675 0
M  V30 7 C -1.59901 -0.0514238 -0.704986 0
M  V30 8 C -1.74877 1.33948 -0.730752 0
M  V30 9 C -2.88945 1.93302 -0.272557 0
M  V30 10 C -3.9225 1.17327 0.227301 0
M  V30 11 C -3.80587 -0.2033 0.266379 0
M  V30 12 C -2.64055 -0.790626 -0.203141 0
M  V30 13 C 0.939125 -1.76312 0.494856 0
M  V30 14 N 0.0855964 -2.88937 0.590471 0
M  V30 15 N 2.02124 -1.80221 1.33216 0
M  V30 16 C 2.92057 -0.800639 1.33845 0
M  V30 17 O 3.92275 -0.814142 2.09877 0
M  V30 18 H 4.02152 3.22313 -0.067082 0
M  V30 19 H 3.70157 2.11624 -1.37044 0
M  V30 20 H 4.4574 1.31197 1.08121 0
M  V30 21 H -0.671822 -1.77589 -1.47275 0
M  V30 22 H -0.0867496 -0.259648 -2.1804 0
M  V30 23 H -0.933644 1.89924 -1.12257 0
M  V30 24 H -3.03507 3.00339 -0.279163 0
M  V30 25 H -4.84338 1.62887 0.598902 0
M  V30 26 H -4.5967 -0.83473 0.652275 0
M  V30 27 H -2.62284 -1.87651 -0.148601 0
M  V30 28 H 0.118564 -3.58886 -0.182198 0
M  V30 29 H -0.538119 -2.98411 1.41407 0
M  V30 END ATOM
M  V30 BEGIN BOND
M  V30 1 1 1 2
M  V30 2 1 2 3
M  V30 3 2 3 4
M  V30 4 1 4 5
M  V30 5 1 5 6
M  V30 6 1 6 7
M  V30 7 2 7 8
M  V30 8 1 8 9
M  V30 9 2 9 10
M  V30 10 1 10 11
M  V30 11 2 11 12
M  V30 12 1 5 13
M  V30 13 1 13 14
M  V30 14 2 13 15
M  V30 15 1 15 16
M  V30 16 2 16 17
M  V30 17 1 16 3
M  V30 18 1 12 7
M  V30 19 1 1 18
M  V30 20 1 1 19
M  V30 21 1 2 20
M  V30 22 1 6 21
M  V30 23 1 6 22
M  V30 24 1 8 23
M  V30 25 1 9 24
M  V30 26 1 10 25
M  V30 27 1 11 26
M  V30 28 1 12 27
M  V30 29 1 14 28
M  V30 30 1 14 29
M  V30 END BOND
M  V30 END CTAB
M  END
