
     RDKit          3D

  0  0  0  0  0  0  0  0  0  0999 V3000
M  V30 BEGIN CTAB
M  V30 COUNTS 44 48 0 0 0
M  V30 BEGIN ATOM
M  V30 1 N -4.80082 -3.952 0.727584 0
M  V30 2 C -3.74358 -3.50583 0.689162 0
M  V30 3 C -2.42562 -2.93005 0.641168 0
M  V30 4 C -1.42141 -3.54703 1.35595 0
M  V30 5 N -1.6742 -4.7127 2.11668 0
M  V30 6 N -0.210452 -2.972 1.27861 0
M  V30 7 C 0.0630795 -1.86431 0.565085 0
M  V30 8 C -0.915557 -1.20426 -0.172167 0
M  V30 9 C -2.16974 -1.77546 -0.110329 0
M  V30 10 N -3.28724 -1.25064 -0.802342 0
M  V30 11 C -0.662345 0.0161764 -0.957411 0
M  V30 12 C -1.43762 1.1857 -0.481536 0
M  V30 13 C -1.15582 1.72315 0.781759 0
M  V30 14 C -1.86333 2.82098 1.21063 0
M  V30 15 C -2.83394 3.38353 0.410753 0
M  V30 16 C -3.09562 2.84019 -0.827554 0
M  V30 17 C -2.40516 1.74353 -1.28339 0
M  V30 18 Cl -3.73121 4.78245 0.964549 0
M  V30 19 C 0.773886 0.441071 -0.888635 0
M  V30 20 C 1.71922 -0.235214 -0.148733 0
M  V30 21 O 1.36669 -1.36067 0.559929 0
M  V30 22 C 3.04234 0.167018 -0.0787596 0
M  V30 23 C 3.97165 -0.542372 0.680996 0
M  V30 24 C 5.28718 -0.13395 0.744459 0
M  V30 25 C 5.63288 0.992661 0.0308889 0
M  V30 26 C 4.72049 1.69388 -0.718428 0
M  V30 27 C 3.40395 1.29319 -0.787707 0
M  V30 28 C 2.46094 1.98082 -1.5356 0
M  V30 29 C 1.15042 1.55549 -1.58537 0
M  V30 30 H -1.26348 -5.60758 1.8146 0
M  V30 31 H -2.2596 -4.67531 2.96184 0
M  V30 32 H -3.31645 -1.32394 -1.83374 0
M  V30 33 H -4.06384 -0.80074 -0.291219 0
M  V30 34 H -0.92499 -0.156759 -2.03283 0
M  V30 35 H -0.383691 1.25784 1.39186 0
M  V30 36 H -1.63926 3.24139 2.20496 0
M  V30 37 H -3.86703 3.30552 -1.43646 0
M  V30 38 H -2.62474 1.337 -2.25386 0
M  V30 39 H 3.65604 -1.43313 1.23374 0
M  V30 40 H 6.01718 -0.689783 1.34025 0
M  V30 41 H 6.6522 1.32214 0.0707291 0
M  V30 42 H 4.98827 2.58622 -1.28524 0
M  V30 43 H 2.80842 2.86482 -2.07507 0
M  V30 44 H 0.461888 2.13897 -2.18979 0
M  V30 END ATOM
M  V30 BEGIN BOND
M  V30 1 3 1 2
M  V30 2 1 2 3
M  V30 3 2 3 4
M  V30 4 1 4 5
M  V30 5 1 4 6
M  V30 6 2 6 7
M  V30 7 1 7 8
M  V30 8 2 8 9
M  V30 9 1 9 10
M  V30 10 1 8 11
M  V30 11 1 11 12
M  V30 12 2 12 13
M  V30 13 1 13 14
M  V30 14 2 14 15
M  V30 15 1 15 16
M  V30 16 2 16 17
M  V30 17 1 15 18
M  V30 18 1 11 19
M  V30 19 2 19 20
M  V30 20 1 20 21
M  V30 21 1 20 22
M  V30 22 2 22 23
M  V30 23 1 23 24
M  V30 24 2 24 25
M  V30 25 1 25 26
M  V30 26 2 26 27
M  V30 27 1 27 28
M  V30 28 2 28 29
M  V30 29 1 9 3
M  V30 30 1 17 12
M  V30 31 1 29 19
M  V30 32 1 21 7
M  V30 33 1 27 22
M  V30 34 1 5 30
M  V30 35 1 5 31
M  V30 36 1 10 32
M  V30 37 1 10 33
M  V30 38 1 11 34
M  V30 39 1 13 35
M  V30 40 1 14 36
M  V30 41 1 16 37
M  V30 42 1 17 38
M  V30 43 1 23 39
M  V30 44 1 24 40
M  V30 45 1 25 41
M  V30 46 1 26 42
M  V30 47 1 28 43
M  V30 48 1 29 44
M  V30 END BOND
M  V30 END CTAB
M  END
