
     RDKit          3D

  0  0  0  0  0  0  0  0  0  0999 V3000
M  V30 BEGIN CTAB
M  V30 COUNTS 49 49 0 0 0
M  V30 BEGIN ATOM
M  V30 1 N -2.20451 -4.06895 -0.653371 0
M  V30 2 C -2.38735 -3.32964 -1.86992 0
M  V30 3 C -1.43364 -2.19519 -2.07735 0
M  V30 4 N -1.46921 -1.18237 -1.0562 0
M  V30 5 C -2.42453 -0.117177 -1.24697 0
M  V30 6 O -3.18873 -0.0620645 -2.24148 0
M  V30 7 O -2.52487 0.894791 -0.316164 0
M  V30 8 C -3.45682 1.9396 -0.496481 0
M  V30 9 C -3.23484 2.71347 -1.75212 0
M  V30 10 C -4.87878 1.49513 -0.402727 0
M  V30 11 C -3.21818 2.90229 0.675675 0
M  V30 12 C -0.621403 -1.16125 0.0718924 0
M  V30 13 O -0.75888 -0.227941 0.927244 0
M  V30 14 N 0.392973 -2.10211 0.347434 0
M  V30 15 C 1.24241 -2.0624 1.50184 0
M  V30 16 C 2.32011 -1.05086 1.43438 0
M  V30 17 C 3.44151 -1.34841 0.658613 0
M  V30 18 C 4.48066 -0.448344 0.559637 0
M  V30 19 C 4.46227 0.770698 1.21242 0
M  V30 20 C 3.34461 1.03941 1.97103 0
M  V30 21 C 2.28508 0.157399 2.09083 0
M  V30 22 S 5.79388 1.8954 1.07041 0
M  V30 23 O 5.27263 3.31036 1.16442 0
M  V30 24 O 6.40147 1.68832 -0.307235 0
M  V30 25 N 6.9802 1.65167 2.27008 0
M  V30 26 H -1.25448 -4.47325 -0.625322 0
M  V30 27 H -2.32826 -3.46761 0.190837 0
M  V30 28 H -2.18437 -4.06379 -2.70549 0
M  V30 29 H -3.44832 -3.03336 -2.02621 0
M  V30 30 H -1.68113 -1.73449 -3.07784 0
M  V30 31 H -0.389034 -2.5643 -2.2031 0
M  V30 32 H -2.37588 2.32203 -2.35344 0
M  V30 33 H -3.1085 3.80189 -1.56503 0
M  V30 34 H -4.12372 2.6027 -2.40084 0
M  V30 35 H -5.47804 2.37806 -0.0564944 0
M  V30 36 H -5.28242 1.2592 -1.41496 0
M  V30 37 H -4.97814 0.655367 0.30464 0
M  V30 38 H -3.04032 2.29555 1.57653 0
M  V30 39 H -2.25543 3.4434 0.476591 0
M  V30 40 H -4.00408 3.65042 0.755322 0
M  V30 41 H 0.526375 -2.87727 -0.36248 0
M  V30 42 H 0.683856 -1.86914 2.44184 0
M  V30 43 H 1.72126 -3.05257 1.62347 0
M  V30 44 H 3.52415 -2.28943 0.116716 0
M  V30 45 H 5.36682 -0.652236 -0.0369303 0
M  V30 46 H 3.29074 1.98 2.49636 0
M  V30 47 H 1.41442 0.40858 2.70772 0
M  V30 48 H 6.86889 2.37934 3.01103 0
M  V30 49 H 7.91954 1.79907 1.83814 0
M  V30 END ATOM
M  V30 BEGIN BOND
M  V30 1 1 1 2
M  V30 2 1 2 3
M  V30 3 1 3 4
M  V30 4 1 4 5
M  V30 5 2 5 6
M  V30 6 1 5 7
M  V30 7 1 7 8
M  V30 8 1 8 9
M  V30 9 1 8 10
M  V30 10 1 8 11
M  V30 11 1 4 12
M  V30 12 2 12 13
M  V30 13 1 12 14
M  V30 14 1 14 15
M  V30 15 1 15 16
M  V30 16 2 16 17
M  V30 17 1 17 18
M  V30 18 2 18 19
M  V30 19 1 19 20
M  V30 20 2 20 21
M  V30 21 1 19 22
M  V30 22 2 22 23
M  V30 23 2 22 24
M  V30 24 1 22 25
M  V30 25 1 21 16
M  V30 26 1 1 26
M  V30 27 1 1 27
M  V30 28 1 2 28
M  V30 29 1 2 29
M  V30 30 1 3 30
M  V30 31 1 3 31
M  V30 32 1 9 32
M  V30 33 1 9 33
M  V30 34 1 9 34
M  V30 35 1 10 35
M  V30 36 1 10 36
M  V30 37 1 10 37
M  V30 38 1 11 38
M  V30 39 1 11 39
M  V30 40 1 11 40
M  V30 41 1 14 41
M  V30 42 1 15 42
M  V30 43 1 15 43
M  V30 44 1 17 44
M  V30 45 1 18 45
M  V30 46 1 20 46
M  V30 47 1 21 47
M  V30 48 1 25 48
M  V30 49 1 25 49
M  V30 END BOND
M  V30 END CTAB
M  END
