
     RDKit          3D

  0  0  0  0  0  0  0  0  0  0999 V3000
M  V30 BEGIN CTAB
M  V30 COUNTS 31 32 0 0 0
M  V30 BEGIN ATOM
M  V30 1 C -0.0993969 -2.66234 -0.87079 0
M  V30 2 N -0.0784474 -1.30712 -0.425644 0
M  V30 3 C 1.18666 -0.67235 -0.217842 0
M  V30 4 C 1.94475 -0.978825 0.898168 0
M  V30 5 C 3.14263 -0.299658 1.03791 0
M  V30 6 C 3.56565 0.638981 0.114555 0
M  V30 7 N 4.8081 1.33472 0.29671 0
M  V30 8 C 2.77242 0.909062 -0.982443 0
M  V30 9 C 1.56285 0.252724 -1.16513 0
M  V30 10 C -1.22445 -0.519838 -0.160773 0
M  V30 11 C -1.47366 -0.0396673 1.11921 0
M  V30 12 C -2.57784 0.73151 1.40588 0
M  V30 13 C -3.49334 1.06283 0.422303 0
M  V30 14 N -4.64361 1.8719 0.727729 0
M  V30 15 C -3.25046 0.590249 -0.844317 0
M  V30 16 C -2.13422 -0.19037 -1.13805 0
M  V30 17 H -0.371637 -3.31317 0.00461617 0
M  V30 18 H -0.813262 -2.84896 -1.6922 0
M  V30 19 H 0.878914 -3.02404 -1.23528 0
M  V30 20 H 1.58868 -1.71823 1.59874 0
M  V30 21 H 3.76388 -0.515336 1.90132 0
M  V30 22 H 5.15865 1.4321 1.27315 0
M  V30 23 H 5.3014 1.70618 -0.531851 0
M  V30 24 H 3.10805 1.63556 -1.692 0
M  V30 25 H 0.966565 0.490255 -2.04082 0
M  V30 26 H -0.756187 -0.291703 1.91006 0
M  V30 27 H -2.77904 1.1208 2.40752 0
M  V30 28 H -4.72781 2.4098 1.61129 0
M  V30 29 H -5.40513 1.91425 0.0417686 0
M  V30 30 H -3.9568 0.837136 -1.63505 0
M  V30 31 H -1.96391 -0.556454 -2.13875 0
M  V30 END ATOM
M  V30 BEGIN BOND
M  V30 1 1 1 2
M  V30 2 1 2 3
M  V30 3 2 3 4
M  V30 4 1 4 5
M  V30 5 2 5 6
M  V30 6 1 6 7
M  V30 7 1 6 8
M  V30 8 2 8 9
M  V30 9 1 2 10
M  V30 10 2 10 11
M  V30 11 1 11 12
M  V30 12 2 12 13
M  V30 13 1 13 14
M  V30 14 1 13 15
M  V30 15 2 15 16
M  V30 16 1 9 3
M  V30 17 1 16 10
M  V30 18 1 1 17
M  V30 19 1 1 18
M  V30 20 1 1 19
M  V30 21 1 4 20
M  V30 22 1 5 21
M  V30 23 1 7 22
M  V30 24 1 7 23
M  V30 25 1 8 24
M  V30 26 1 9 25
M  V30 27 1 11 26
M  V30 28 1 12 27
M  V30 29 1 14 28
M  V30 30 1 14 29
M  V30 31 1 15 30
M  V30 32 1 16 31
M  V30 END BOND
M  V30 END CTAB
M  END
