
     RDKit          3D

  0  0  0  0  0  0  0  0  0  0999 V3000
M  V30 BEGIN CTAB
M  V30 COUNTS 19 19 0 0 0
M  V30 BEGIN ATOM
M  V30 1 N -2.57232 -0.26818 0.0906997 0
M  V30 2 C -1.45217 -1.0173 -0.396532 0
M  V30 3 C -0.16274 -0.356917 -0.20038 0
M  V30 4 C 1.04261 -0.908381 -0.598023 0
M  V30 5 C 2.06924 -0.0463327 -0.274708 0
M  V30 6 N 1.48044 1.00874 0.310088 0
M  V30 7 N 0.150302 0.832243 0.358657 0
M  V30 8 C -0.825185 1.72792 0.903829 0
M  V30 9 N 3.4709 -0.185531 -0.487494 0
M  V30 10 H -3.42596 -0.623525 -0.429742 0
M  V30 11 H -2.74853 -0.560306 1.09128 0
M  V30 12 H -1.49086 -2.02472 0.0980846 0
M  V30 13 H -1.60324 -1.24681 -1.49001 0
M  V30 14 H 1.23078 -1.8602 -1.09043 0
M  V30 15 H -0.293667 2.61561 1.30545 0
M  V30 16 H -1.55342 2.11287 0.167645 0
M  V30 17 H -1.32239 1.24058 1.78612 0
M  V30 18 H 3.98031 -1.09342 -0.380665 0
M  V30 19 H 4.02591 0.653656 -0.763864 0
M  V30 END ATOM
M  V30 BEGIN BOND
M  V30 1 1 1 2
M  V30 2 1 2 3
M  V30 3 2 3 4
M  V30 4 1 4 5
M  V30 5 2 5 6
M  V30 6 1 6 7
M  V30 7 1 7 8
M  V30 8 1 5 9
M  V30 9 1 7 3
M  V30 10 1 1 10
M  V30 11 1 1 11
M  V30 12 1 2 12
M  V30 13 1 2 13
M  V30 14 1 4 14
M  V30 15 1 8 15
M  V30 16 1 8 16
M  V30 17 1 8 17
M  V30 18 1 9 18
M  V30 19 1 9 19
M  V30 END BOND
M  V30 END CTAB
M  END
