
     RDKit          3D

  0  0  0  0  0  0  0  0  0  0999 V3000
M  V30 BEGIN CTAB
M  V30 COUNTS 24 24 0 0 0
M  V30 BEGIN ATOM
M  V30 1 N -2.55074 1.39899 -0.237367 0
M  V30 2 C -1.14199 1.12642 -0.431443 0
M  V30 3 C -0.629439 0.192287 0.645963 0
M  V30 4 C -1.43342 -1.08591 0.534289 0
M  V30 5 C -0.552247 -1.8814 -0.440935 0
M  V30 6 C 0.78004 -1.6722 0.247845 0
M  V30 7 N 0.736186 -0.208871 0.414272 0
M  V30 8 C 1.91407 0.567676 0.337429 0
M  V30 9 N 2.50283 1.0182 1.39617 0
M  V30 10 N 2.46022 0.857651 -0.931219 0
M  V30 11 H -2.87604 1.95777 -1.05299 0
M  V30 12 H -2.75684 1.8235 0.682634 0
M  V30 13 H -1.02253 0.689676 -1.44373 0
M  V30 14 H -0.598058 2.09393 -0.441109 0
M  V30 15 H -0.687232 0.645126 1.63135 0
M  V30 16 H -1.42926 -1.6197 1.49105 0
M  V30 17 H -2.44091 -0.923829 0.117656 0
M  V30 18 H -0.857288 -2.93887 -0.478399 0
M  V30 19 H -0.514257 -1.3752 -1.40809 0
M  V30 20 H 1.63235 -1.98045 -0.373776 0
M  V30 21 H 0.721927 -2.18604 1.22388 0
M  V30 22 H 3.35663 1.58098 1.33862 0
M  V30 23 H 1.91435 1.28177 -1.72296 0
M  V30 24 H 3.47165 0.638499 -1.09913 0
M  V30 END ATOM
M  V30 BEGIN BOND
M  V30 1 1 1 2
M  V30 2 1 2 3
M  V30 3 1 3 4
M  V30 4 1 4 5
M  V30 5 1 5 6
M  V30 6 1 6 7
M  V30 7 1 7 8
M  V30 8 2 8 9 CFG=2
M  V30 9 1 8 10
M  V30 10 1 7 3
M  V30 11 1 1 11
M  V30 12 1 1 12
M  V30 13 1 2 13
M  V30 14 1 2 14
M  V30 15 1 3 15
M  V30 16 1 4 16
M  V30 17 1 4 17
M  V30 18 1 5 18
M  V30 19 1 5 19
M  V30 20 1 6 20
M  V30 21 1 6 21
M  V30 22 1 9 22
M  V30 23 1 10 23
M  V30 24 1 10 24
M  V30 END BOND
M  V30 END CTAB
M  END
