
     RDKit          3D

  0  0  0  0  0  0  0  0  0  0999 V3000
M  V30 BEGIN CTAB
M  V30 COUNTS 38 39 0 0 0
M  V30 BEGIN ATOM
M  V30 1 N 4.82433 -0.282503 -1.65441 0
M  V30 2 C 4.47806 0.340556 -0.431878 0
M  V30 3 C 3.10113 0.370614 -0.116038 0
M  V30 4 O 2.22122 -0.182445 -0.982086 0
M  V30 5 C 0.887895 -0.380552 -1.06456 0
M  V30 6 C 0.384238 -1.2931 0.0251448 0
M  V30 7 O 1.05724 -2.52903 -0.12129 0
M  V30 8 C -1.1106 -1.55059 -0.117447 0
M  V30 9 O -1.76711 -0.323633 0.0287253 0
M  V30 10 C -3.16165 -0.22243 -0.0510793 0
M  V30 11 C -3.75676 1.01066 0.100255 0
M  V30 12 N -2.95899 2.15938 0.333913 0
M  V30 13 C -5.14453 1.137 0.0248299 0
M  V30 14 C -5.95479 0.0409307 -0.201471 0
M  V30 15 C -5.36276 -1.18659 -0.352148 0
M  V30 16 C -3.9727 -1.31123 -0.276301 0
M  V30 17 C 2.78362 0.980729 1.07526 0
M  V30 18 C 3.74156 1.53917 1.93238 0
M  V30 19 C 5.07103 1.48311 1.57812 0
M  V30 20 C 5.43407 0.880293 0.39001 0
M  V30 21 H 4.67881 0.238694 -2.53714 0
M  V30 22 H 5.21495 -1.24042 -1.66037 0
M  V30 23 H 0.6668 -0.878034 -2.05535 0
M  V30 24 H 0.278836 0.57157 -1.0155 0
M  V30 25 H 0.593883 -0.850764 1.00096 0
M  V30 26 H 0.45755 -3.28138 0.10887 0
M  V30 27 H -1.30421 -2.02251 -1.10526 0
M  V30 28 H -1.37109 -2.24781 0.718832 0
M  V30 29 H -3.09987 3.02264 -0.258134 0
M  V30 30 H -2.23459 2.18741 1.07049 0
M  V30 31 H -5.60368 2.1105 0.145038 0
M  V30 32 H -7.03239 0.191914 -0.251804 0
M  V30 33 H -6.0015 -2.0449 -0.529653 0
M  V30 34 H -3.53125 -2.27097 -0.395577 0
M  V30 35 H 1.744 1.05664 1.37119 0
M  V30 36 H 3.43754 2.01498 2.87342 0
M  V30 37 H 5.81285 1.9046 2.22152 0
M  V30 38 H 6.49889 0.857497 0.14661 0
M  V30 END ATOM
M  V30 BEGIN BOND
M  V30 1 1 1 2
M  V30 2 2 2 3
M  V30 3 1 3 4
M  V30 4 1 4 5
M  V30 5 1 5 6
M  V30 6 1 6 7
M  V30 7 1 6 8
M  V30 8 1 8 9
M  V30 9 1 9 10
M  V30 10 2 10 11
M  V30 11 1 11 12
M  V30 12 1 11 13
M  V30 13 2 13 14
M  V30 14 1 14 15
M  V30 15 2 15 16
M  V30 16 1 3 17
M  V30 17 2 17 18
M  V30 18 1 18 19
M  V30 19 2 19 20
M  V30 20 1 20 2
M  V30 21 1 16 10
M  V30 22 1 1 21
M  V30 23 1 1 22
M  V30 24 1 5 23
M  V30 25 1 5 24
M  V30 26 1 6 25
M  V30 27 1 7 26
M  V30 28 1 8 27
M  V30 29 1 8 28
M  V30 30 1 12 29
M  V30 31 1 12 30
M  V30 32 1 13 31
M  V30 33 1 14 32
M  V30 34 1 15 33
M  V30 35 1 16 34
M  V30 36 1 17 35
M  V30 37 1 18 36
M  V30 38 1 19 37
M  V30 39 1 20 38
M  V30 END BOND
M  V30 END CTAB
M  END
