
     RDKit          3D

  0  0  0  0  0  0  0  0  0  0999 V3000
M  V30 BEGIN CTAB
M  V30 COUNTS 20 20 0 0 0
M  V30 BEGIN ATOM
M  V30 1 C 3.17758 0.806394 0.0842749 0
M  V30 2 S 2.07922 0.0876542 -1.18133 0
M  V30 3 C 0.414519 -0.0915958 -0.547503 0
M  V30 4 C 0.0207151 -1.23963 0.0865706 0
M  V30 5 N 0.930667 -2.31795 0.255133 0
M  V30 6 C -1.25075 -1.3808 0.572562 0
M  V30 7 C -2.17258 -0.37092 0.437893 0
M  V30 8 C -1.76591 0.767747 -0.196369 0
M  V30 9 N -2.72329 1.83421 -0.343924 0
M  V30 10 C -0.492035 0.92684 -0.691019 0
M  V30 11 H 3.20947 0.174727 1.00191 0
M  V30 12 H 4.20208 0.786361 -0.353395 0
M  V30 13 H 2.93063 1.86173 0.294714 0
M  V30 14 H 1.11642 -3.04887 -0.464606 0
M  V30 15 H 1.45711 -2.4005 1.1518 0
M  V30 16 H -1.58436 -2.29137 1.08258 0
M  V30 17 H -3.19764 -0.443404 0.811582 0
M  V30 18 H -3.72852 1.68551 -0.159719 0
M  V30 19 H -2.42658 2.79481 -0.643418 0
M  V30 20 H -0.196763 1.85905 -1.19773 0
M  V30 END ATOM
M  V30 BEGIN BOND
M  V30 1 1 1 2
M  V30 2 1 2 3
M  V30 3 2 3 4
M  V30 4 1 4 5
M  V30 5 1 4 6
M  V30 6 2 6 7
M  V30 7 1 7 8
M  V30 8 1 8 9
M  V30 9 2 8 10
M  V30 10 1 10 3
M  V30 11 1 1 11
M  V30 12 1 1 12
M  V30 13 1 1 13
M  V30 14 1 5 14
M  V30 15 1 5 15
M  V30 16 1 6 16
M  V30 17 1 7 17
M  V30 18 1 9 18
M  V30 19 1 9 19
M  V30 20 1 10 20
M  V30 END BOND
M  V30 END CTAB
M  END
