
     RDKit          3D

  0  0  0  0  0  0  0  0  0  0999 V3000
M  V30 BEGIN CTAB
M  V30 COUNTS 33 34 0 0 0
M  V30 BEGIN ATOM
M  V30 1 N 5.17986 0.754438 -0.856136 0
M  V30 2 C 4.1631 0.0427766 -0.131887 0
M  V30 3 C 2.80227 0.227226 -0.802449 0
M  V30 4 N 1.84635 -0.515709 -0.0430697 0
M  V30 5 C 1.57294 -0.0504206 1.26762 0
M  V30 6 C 0.120303 0.271406 1.37284 0
M  V30 7 C -0.347522 0.18573 -0.0874231 0 CFG=1
M  V30 8 C 0.595402 -0.756105 -0.706739 0
M  V30 9 C -1.78174 -0.190678 -0.130158 0
M  V30 10 C -2.27667 -1.44272 -0.301966 0
M  V30 11 C -3.64528 -1.7131 -0.290726 0
M  V30 12 C -4.51435 -0.661478 -0.0961523 0
M  V30 13 C -3.9877 0.613712 0.0784548 0
M  V30 14 N -2.66435 0.818199 0.0570598 0
M  V30 15 N -4.91889 1.6942 0.294741 0
M  V30 16 H 6.11 0.612297 -0.522972 0
M  V30 17 H 4.94122 1.74674 -0.960988 0
M  V30 18 H 4.14656 0.504044 0.89211 0
M  V30 19 H 4.42484 -1.00656 -0.00513869 0
M  V30 20 H 2.57503 1.28205 -0.971021 0
M  V30 21 H 2.90007 -0.285746 -1.79549 0
M  V30 22 H 2.23904 0.750823 1.651 0
M  V30 23 H 1.72701 -0.949626 1.94792 0
M  V30 24 H -0.477074 -0.41234 1.97955 0
M  V30 25 H 0.00981301 1.32279 1.74431 0
M  V30 26 H -0.178061 1.21624 -0.476963 0
M  V30 27 H 0.695112 -0.634099 -1.80995 0
M  V30 28 H 0.365299 -1.83358 -0.499716 0
M  V30 29 H -1.61255 -2.2546 -0.451141 0
M  V30 30 H -3.96948 -2.72381 -0.432494 0
M  V30 31 H -5.58816 -0.82019 -0.0748282 0
M  V30 32 H -4.55615 2.53507 0.782313 0
M  V30 33 H -5.89623 1.67302 -0.00312667 0
M  V30 END ATOM
M  V30 BEGIN BOND
M  V30 1 1 1 2
M  V30 2 1 2 3
M  V30 3 1 3 4
M  V30 4 1 4 5
M  V30 5 1 5 6
M  V30 6 1 6 7
M  V30 7 1 7 8
M  V30 8 1 7 9
M  V30 9 2 9 10
M  V30 10 1 10 11
M  V30 11 2 11 12
M  V30 12 1 12 13
M  V30 13 2 13 14
M  V30 14 1 13 15
M  V30 15 1 8 4
M  V30 16 1 14 9
M  V30 17 1 1 16
M  V30 18 1 1 17
M  V30 19 1 2 18
M  V30 20 1 2 19
M  V30 21 1 3 20
M  V30 22 1 3 21
M  V30 23 1 5 22
M  V30 24 1 5 23
M  V30 25 1 6 24
M  V30 26 1 6 25
M  V30 27 1 7 26 CFG=3
M  V30 28 1 8 27
M  V30 29 1 8 28
M  V30 30 1 10 29
M  V30 31 1 11 30
M  V30 32 1 12 31
M  V30 33 1 15 32
M  V30 34 1 15 33
M  V30 END BOND
M  V30 END CTAB
M  END
