
     RDKit          3D

  0  0  0  0  0  0  0  0  0  0999 V3000
M  V30 BEGIN CTAB
M  V30 COUNTS 60 64 0 0 0
M  V30 BEGIN ATOM
M  V30 1 O 2.85895 1.45923 -1.69798 0
M  V30 2 C 2.83123 0.3489 -1.07527 0
M  V30 3 C 1.62419 -0.111788 -0.446858 0
M  V30 4 C 0.413577 0.595233 -0.46402 0
M  V30 5 N 0.235602 1.8622 -1.11072 0
M  V30 6 N -0.523128 -0.0938654 0.207485 0
M  V30 7 C 0.0266272 -1.23016 0.666911 0
M  V30 8 C 1.37125 -1.25597 0.26525 0
M  V30 9 N 2.11313 -2.31768 0.624081 0
M  V30 10 C 1.64979 -3.35377 1.3416 0
M  V30 11 C 2.41881 -4.43856 1.70494 0
M  V30 12 C 1.91869 -5.49086 2.4429 0
M  V30 13 C 0.588439 -5.47305 2.84452 0
M  V30 14 C -0.17057 -4.38355 2.4755 0
M  V30 15 C 0.324613 -3.32843 1.73751 0
M  V30 16 N -0.428499 -2.2718 1.38493 0
M  V30 17 C -1.88737 0.357484 0.379267 0
M  V30 18 C -2.73661 -0.162485 -0.780899 0
M  V30 19 C -4.12148 0.306084 -0.590364 0
M  V30 20 C -5.01395 -0.45862 0.119469 0
M  V30 21 C -6.33234 -0.0219643 0.306157 0
M  V30 22 C -6.66902 1.18965 -0.251531 0
M  V30 23 C -5.80025 1.98269 -0.969322 0
M  V30 24 C -4.50453 1.50844 -1.12796 0
M  V30 25 S -8.31833 1.79812 -0.0522671 0
M  V30 26 O -8.70852 2.63022 -1.22512 0
M  V30 27 O -9.20793 0.592331 0.0948549 0
M  V30 28 N -8.34285 2.73883 1.39233 0
M  V30 29 N 4.029 -0.389976 -1.03737 0
M  V30 30 C 5.24975 0.052152 -1.64921 0
M  V30 31 C 5.8186 1.23126 -0.984716 0
M  V30 32 C 5.32376 1.81427 0.140347 0
M  V30 33 C 5.9306 2.91541 0.739814 0
M  V30 34 C 7.06717 3.43819 0.1862 0
M  V30 35 C 7.59969 2.87365 -0.95451 0
M  V30 36 C 6.98046 1.79143 -1.5218 0
M  V30 37 Cl 7.65868 1.07012 -2.97718 0
M  V30 38 H 0.0387893 1.97724 -2.11282 0
M  V30 39 H 0.314186 2.71713 -0.509517 0
M  V30 40 H 3.45672 -4.48075 1.40721 0
M  V30 41 H 2.51832 -6.335 2.72527 0
M  V30 42 H 0.193205 -6.2987 3.42443 0
M  V30 43 H -1.19826 -4.35775 2.77911 0
M  V30 44 H -1.9194 1.44977 0.442971 0
M  V30 45 H -2.31715 -0.131502 1.29736 0
M  V30 46 H -2.30854 0.182473 -1.74973 0
M  V30 47 H -2.74424 -1.25574 -0.808908 0
M  V30 48 H -4.72945 -1.40893 0.55041 0
M  V30 49 H -7.06319 -0.571426 0.845246 0
M  V30 50 H -6.10684 2.9173 -1.3843 0
M  V30 51 H -3.81966 2.12917 -1.69134 0
M  V30 52 H -9.23387 2.63981 1.89787 0
M  V30 53 H -7.50104 2.56235 1.97123 0
M  V30 54 H 4.04994 -1.30675 -0.543791 0
M  V30 55 H 5.08682 0.24777 -2.75422 0
M  V30 56 H 5.98181 -0.802497 -1.66317 0
M  V30 57 H 4.44695 1.44845 0.642103 0
M  V30 58 H 5.52374 3.35976 1.62567 0
M  V30 59 H 7.56801 4.2962 0.625588 0
M  V30 60 H 8.49591 3.24825 -1.43146 0
M  V30 END ATOM
M  V30 BEGIN BOND
M  V30 1 2 1 2
M  V30 2 1 2 3
M  V30 3 2 3 4
M  V30 4 1 4 5
M  V30 5 1 4 6
M  V30 6 1 6 7
M  V30 7 2 7 8
M  V30 8 1 8 9
M  V30 9 2 9 10
M  V30 10 1 10 11
M  V30 11 2 11 12
M  V30 12 1 12 13
M  V30 13 2 13 14
M  V30 14 1 14 15
M  V30 15 2 15 16
M  V30 16 1 6 17
M  V30 17 1 17 18
M  V30 18 1 18 19
M  V30 19 2 19 20
M  V30 20 1 20 21
M  V30 21 2 21 22
M  V30 22 1 22 23
M  V30 23 2 23 24
M  V30 24 1 22 25
M  V30 25 2 25 26
M  V30 26 2 25 27
M  V30 27 1 25 28
M  V30 28 1 2 29
M  V30 29 1 29 30
M  V30 30 1 30 31
M  V30 31 2 31 32
M  V30 32 1 32 33
M  V30 33 2 33 34
M  V30 34 1 34 35
M  V30 35 2 35 36
M  V30 36 1 36 37
M  V30 37 1 8 3
M  V30 38 1 15 10
M  V30 39 1 24 19
M  V30 40 1 36 31
M  V30 41 1 16 7
M  V30 42 1 5 38
M  V30 43 1 5 39
M  V30 44 1 11 40
M  V30 45 1 12 41
M  V30 46 1 13 42
M  V30 47 1 14 43
M  V30 48 1 17 44
M  V30 49 1 17 45
M  V30 50 1 18 46
M  V30 51 1 18 47
M  V30 52 1 20 48
M  V30 53 1 21 49
M  V30 54 1 23 50
M  V30 55 1 24 51
M  V30 56 1 28 52
M  V30 57 1 28 53
M  V30 58 1 29 54
M  V30 59 1 30 55
M  V30 60 1 30 56
M  V30 61 1 32 57
M  V30 62 1 33 58
M  V30 63 1 34 59
M  V30 64 1 35 60
M  V30 END BOND
M  V30 END CTAB
M  END
