
     RDKit          3D

  0  0  0  0  0  0  0  0  0  0999 V3000
M  V30 BEGIN CTAB
M  V30 COUNTS 32 33 0 0 0
M  V30 BEGIN ATOM
M  V30 1 C 2.95039 2.24109 -0.6304 0
M  V30 2 C 2.62438 0.813114 -0.329481 0
M  V30 3 C 1.29935 0.409831 -0.105411 0
M  V30 4 C 0.943608 -0.890927 0.174251 0
M  V30 5 N -0.382247 -1.29676 0.437179 0
M  V30 6 C -1.54752 -0.557634 0.226102 0
M  V30 7 C -1.78687 0.306561 -0.802339 0
M  V30 8 C -2.98706 1.02442 -0.906203 0
M  V30 9 C -3.98414 0.884552 0.0346573 0
M  V30 10 N -5.19969 1.62292 -0.0862482 0
M  V30 11 C -3.74958 0.014818 1.07256 0
M  V30 12 C -2.56945 -0.69022 1.17439 0
M  V30 13 C 1.9484 -1.86196 0.241115 0
M  V30 14 N 1.63629 -3.22736 0.527537 0
M  V30 15 C 3.24354 -1.4579 0.0207993 0
M  V30 16 C 3.60344 -0.155331 -0.260764 0
M  V30 17 O 4.94947 0.1843 -0.475429 0
M  V30 18 H 2.11421 2.89154 -0.240586 0
M  V30 19 H 3.82586 2.49524 0.00709546 0
M  V30 20 H 3.16615 2.40919 -1.68595 0
M  V30 21 H 0.57367 1.20085 -0.143985 0
M  V30 22 H -0.476416 -2.29247 0.851741 0
M  V30 23 H -1.02496 0.421741 -1.57396 0
M  V30 24 H -3.12125 1.69513 -1.74161 0
M  V30 25 H -5.68616 2.05273 0.731913 0
M  V30 26 H -5.63349 1.74871 -1.01773 0
M  V30 27 H -4.54804 -0.0847844 1.80795 0
M  V30 28 H -2.41577 -1.36979 2.00735 0
M  V30 29 H 1.51307 -3.93882 -0.239118 0
M  V30 30 H 1.53506 -3.49333 1.52291 0
M  V30 31 H 4.00797 -2.22744 0.0773859 0
M  V30 32 H 5.17777 1.128 -0.675723 0
M  V30 END ATOM
M  V30 BEGIN BOND
M  V30 1 1 1 2
M  V30 2 2 2 3
M  V30 3 1 3 4
M  V30 4 1 4 5
M  V30 5 1 5 6
M  V30 6 2 6 7
M  V30 7 1 7 8
M  V30 8 2 8 9
M  V30 9 1 9 10
M  V30 10 1 9 11
M  V30 11 2 11 12
M  V30 12 2 4 13
M  V30 13 1 13 14
M  V30 14 1 13 15
M  V30 15 2 15 16
M  V30 16 1 16 17
M  V30 17 1 16 2
M  V30 18 1 12 6
M  V30 19 1 1 18
M  V30 20 1 1 19
M  V30 21 1 1 20
M  V30 22 1 3 21
M  V30 23 1 5 22
M  V30 24 1 7 23
M  V30 25 1 8 24
M  V30 26 1 10 25
M  V30 27 1 10 26
M  V30 28 1 11 27
M  V30 29 1 12 28
M  V30 30 1 14 29
M  V30 31 1 14 30
M  V30 32 1 15 31
M  V30 33 1 17 32
M  V30 END BOND
M  V30 END CTAB
M  END
