
     RDKit          3D

  0  0  0  0  0  0  0  0  0  0999 V3000
M  V30 BEGIN CTAB
M  V30 COUNTS 37 39 0 0 0
M  V30 BEGIN ATOM
M  V30 1 N -1.79801 3.32877 0.732775 0
M  V30 2 C -1.82324 1.84867 0.676172 0
M  V30 3 C -0.688799 1.34623 -0.14112 0
M  V30 4 N -0.325342 0.00152213 -0.257522 0
M  V30 5 C -1.19542 -1.10534 -0.29627 0
M  V30 6 C -2.55292 -0.974477 -0.427988 0
M  V30 7 C -3.36785 -2.0994 -0.439514 0
M  V30 8 C -2.87033 -3.37557 -0.32196 0
M  V30 9 C -1.51076 -3.55501 -0.188564 0
M  V30 10 C -0.721729 -2.43514 -0.17909 0
M  V30 11 N 0.686403 -2.61 -0.0153671 0
M  V30 12 C 1.31483 -1.48121 0.677637 0
M  V30 13 C 1.13541 -0.331196 -0.37046 0 CFG=2
M  V30 14 C 2.03174 0.70284 0.10547 0
M  V30 15 C 1.97161 1.38618 1.3035 0
M  V30 16 N 2.89614 2.40966 1.29386 0
M  V30 17 N 3.513 2.3505 0.106266 0
M  V30 18 C 3.00872 1.33612 -0.612393 0
M  V30 19 N 3.55106 0.928146 -1.88353 0
M  V30 20 H -0.995486 3.72548 1.13908 0
M  V30 21 H -2.27529 3.76057 -0.0347205 0
M  V30 22 H -1.94413 1.41031 1.67905 0
M  V30 23 H -2.82096 1.72072 0.155849 0
M  V30 24 H 0.134846 2.07799 -0.0519038 0
M  V30 25 H -1.04199 1.66251 -1.26969 0
M  V30 26 H -2.99117 -0.00194048 -0.570167 0
M  V30 27 H -4.43386 -1.91168 -0.530496 0
M  V30 28 H -3.50334 -4.24958 -0.321239 0
M  V30 29 H -1.08763 -4.55323 -0.102674 0
M  V30 30 H 1.17479 -3.42767 -0.36859 0
M  V30 31 H 2.41521 -1.63649 0.691978 0
M  V30 32 H 0.820495 -1.28893 1.60895 0
M  V30 33 H 1.30922 -0.724415 -1.3254 0
M  V30 34 H 1.3012 1.19898 2.13303 0
M  V30 35 H 3.08452 3.09992 2.04228 0
M  V30 36 H 4.39968 0.274102 -1.84501 0
M  V30 37 H 3.1994 1.19205 -2.79224 0
M  V30 END ATOM
M  V30 BEGIN BOND
M  V30 1 1 1 2
M  V30 2 1 2 3
M  V30 3 1 3 4
M  V30 4 1 4 5
M  V30 5 2 5 6
M  V30 6 1 6 7
M  V30 7 2 7 8
M  V30 8 1 8 9
M  V30 9 2 9 10
M  V30 10 1 10 11
M  V30 11 1 11 12
M  V30 12 1 12 13
M  V30 13 1 13 14
M  V30 14 2 14 15
M  V30 15 1 15 16
M  V30 16 1 16 17
M  V30 17 2 17 18
M  V30 18 1 18 19
M  V30 19 1 13 4
M  V30 20 1 18 14
M  V30 21 1 10 5
M  V30 22 1 1 20
M  V30 23 1 1 21
M  V30 24 1 2 22
M  V30 25 1 2 23
M  V30 26 1 3 24
M  V30 27 1 3 25
M  V30 28 1 6 26
M  V30 29 1 7 27
M  V30 30 1 8 28
M  V30 31 1 9 29
M  V30 32 1 11 30
M  V30 33 1 12 31
M  V30 34 1 12 32
M  V30 35 1 13 33 CFG=3
M  V30 36 1 15 34
M  V30 37 1 16 35
M  V30 38 1 19 36
M  V30 39 1 19 37
M  V30 END BOND
M  V30 END CTAB
M  END
