
     RDKit          3D

  0  0  0  0  0  0  0  0  0  0999 V3000
M  V30 BEGIN CTAB
M  V30 COUNTS 50 52 0 0 0
M  V30 BEGIN ATOM
M  V30 1 C -4.35554 -2.15989 0.636037 0
M  V30 2 C -4.14763 -0.884061 -0.207473 0
M  V30 3 C -3.41637 -1.23889 -1.4847 0
M  V30 4 N -5.49277 -0.52653 -0.617501 0
M  V30 5 C -6.14651 0.465864 -0.18987 0
M  V30 6 N -7.46413 0.684289 -0.683205 0
M  V30 7 N -5.5363 1.36091 0.71876 0
M  V30 8 C -4.32286 1.19628 1.11637 0
M  V30 9 N -3.71105 2.0972 2.04 0
M  V30 10 N -3.52177 0.117041 0.580052 0
M  V30 11 C -2.1234 0.169632 0.880442 0
M  V30 12 C -1.27926 0.848159 0.0440393 0
M  V30 13 C 0.113382 0.945893 0.321191 0
M  V30 14 C 0.938462 1.69209 -0.644682 0
M  V30 15 N 1.99471 0.89679 -1.16956 0
M  V30 16 C 3.32877 0.794826 -0.661374 0
M  V30 17 O 3.60093 1.49633 0.324805 0
M  V30 18 N 4.27222 -0.0723388 -1.27556 0
M  V30 19 C 5.61101 -0.279643 -0.927231 0
M  V30 20 C 6.27296 0.394835 0.0449634 0
M  V30 21 C 7.62389 0.128706 0.349448 0
M  V30 22 C 8.30088 -0.841776 -0.35424 0
M  V30 23 C 7.64444 -1.53356 -1.34182 0
M  V30 24 C 6.33021 -1.25669 -1.6203 0
M  V30 25 C 0.61178 0.353523 1.43841 0
M  V30 26 C -0.240326 -0.343886 2.30374 0
M  V30 27 C -1.58178 -0.417629 2.00196 0
M  V30 28 H -3.46849 -2.81984 0.579956 0
M  V30 29 H -5.21882 -2.73872 0.247629 0
M  V30 30 H -4.63107 -1.87565 1.67283 0
M  V30 31 H -2.5904 -1.97022 -1.2767 0
M  V30 32 H -2.92984 -0.359521 -1.93958 0
M  V30 33 H -4.10336 -1.64245 -2.25845 0
M  V30 34 H -8.15708 1.07869 0.00188121 0
M  V30 35 H -7.75832 0.47852 -1.6619 0
M  V30 36 H -3.29668 1.7574 2.92062 0
M  V30 37 H -3.69292 3.10042 1.8086 0
M  V30 38 H -1.65791 1.32954 -0.852796 0
M  V30 39 H 1.41378 2.56952 -0.107666 0
M  V30 40 H 0.284014 2.10019 -1.47357 0
M  V30 41 H 1.79203 0.308241 -2.0281 0
M  V30 42 H 3.89452 -0.639222 -2.11707 0
M  V30 43 H 5.81233 1.16492 0.632865 0
M  V30 44 H 8.14141 0.656487 1.11401 0
M  V30 45 H 9.34516 -1.05477 -0.124907 0
M  V30 46 H 8.14972 -2.31644 -1.92736 0
M  V30 47 H 5.84846 -1.82828 -2.41068 0
M  V30 48 H 1.62998 0.370114 1.73584 0
M  V30 49 H 0.176173 -0.802891 3.18203 0
M  V30 50 H -2.28663 -0.953527 2.64647 0
M  V30 END ATOM
M  V30 BEGIN BOND
M  V30 1 1 1 2
M  V30 2 1 2 3
M  V30 3 1 2 4
M  V30 4 2 4 5
M  V30 5 1 5 6
M  V30 6 1 5 7
M  V30 7 2 7 8
M  V30 8 1 8 9
M  V30 9 1 8 10
M  V30 10 1 10 11
M  V30 11 2 11 12
M  V30 12 1 12 13
M  V30 13 1 13 14
M  V30 14 1 14 15
M  V30 15 1 15 16
M  V30 16 2 16 17
M  V30 17 1 16 18
M  V30 18 1 18 19
M  V30 19 2 19 20
M  V30 20 1 20 21
M  V30 21 2 21 22
M  V30 22 1 22 23
M  V30 23 2 23 24
M  V30 24 2 13 25
M  V30 25 1 25 26
M  V30 26 2 26 27
M  V30 27 1 10 2
M  V30 28 1 27 11
M  V30 29 1 24 19
M  V30 30 1 1 28
M  V30 31 1 1 29
M  V30 32 1 1 30
M  V30 33 1 3 31
M  V30 34 1 3 32
M  V30 35 1 3 33
M  V30 36 1 6 34
M  V30 37 1 6 35
M  V30 38 1 9 36
M  V30 39 1 9 37
M  V30 40 1 12 38
M  V30 41 1 14 39
M  V30 42 1 14 40
M  V30 43 1 15 41
M  V30 44 1 18 42
M  V30 45 1 20 43
M  V30 46 1 21 44
M  V30 47 1 22 45
M  V30 48 1 23 46
M  V30 49 1 24 47
M  V30 50 1 25 48
M  V30 51 1 26 49
M  V30 52 1 27 50
M  V30 END BOND
M  V30 END CTAB
M  END
