
     RDKit          3D

  0  0  0  0  0  0  0  0  0  0999 V3000
M  V30 BEGIN CTAB
M  V30 COUNTS 38 40 0 0 0
M  V30 BEGIN ATOM
M  V30 1 C -6.30124 -0.545381 0.343428 0
M  V30 2 C -5.68143 0.7978 0.679904 0
M  V30 3 N -4.22666 0.662309 0.624949 0
M  V30 4 C -3.57619 0.270858 -0.570746 0
M  V30 5 O -4.26747 0.0399692 -1.58977 0
M  V30 6 C -2.13651 0.139481 -0.615549 0
M  V30 7 N -1.35596 0.37717 0.453469 0
M  V30 8 C -0.00869117 0.251107 0.400448 0
M  V30 9 C 0.563428 -0.13499 -0.799101 0
M  V30 10 N -0.213897 -0.376942 -1.88227 0
M  V30 11 C -1.54901 -0.243609 -1.79997 0
M  V30 12 N -2.31921 -0.50764 -2.95923 0
M  V30 13 N 1.89966 -0.257906 -0.844219 0
M  V30 14 C 2.70586 -0.0282199 0.203954 0
M  V30 15 N 2.13359 0.343161 1.35138 0
M  V30 16 C 0.799654 0.49215 1.48944 0
M  V30 17 N 0.236804 0.888902 2.72946 0
M  V30 18 C 4.15079 -0.179402 0.0906435 0
M  V30 19 C 5.00162 0.0495245 1.14886 0
M  V30 20 C 6.37372 -0.102486 1.01146 0
M  V30 21 C 6.95045 -0.490035 -0.191362 0
M  V30 22 C 6.09231 -0.716513 -1.24305 0
M  V30 23 C 4.73035 -0.56586 -1.1075 0
M  V30 24 H -5.54356 -1.32899 0.451395 0
M  V30 25 H -7.21512 -0.720713 0.941833 0
M  V30 26 H -6.59036 -0.480297 -0.73916 0
M  V30 27 H -5.95381 1.02114 1.72043 0
M  V30 28 H -6.04781 1.58634 0.0160135 0
M  V30 29 H -3.63962 0.85057 1.46233 0
M  V30 30 H -2.4509 -1.49012 -3.25382 0
M  V30 31 H -2.75991 0.246598 -3.52946 0
M  V30 32 H -0.211838 1.82773 2.86516 0
M  V30 33 H 0.252801 0.24414 3.56185 0
M  V30 34 H 4.55925 0.351002 2.08638 0
M  V30 35 H 7.00033 0.088534 1.87012 0
M  V30 36 H 8.01843 -0.596365 -0.255877 0
M  V30 37 H 6.51771 -1.0177 -2.1845 0
M  V30 38 H 4.06242 -0.745317 -1.93731 0
M  V30 END ATOM
M  V30 BEGIN BOND
M  V30 1 1 1 2
M  V30 2 1 2 3
M  V30 3 1 3 4
M  V30 4 2 4 5
M  V30 5 1 4 6
M  V30 6 2 6 7
M  V30 7 1 7 8
M  V30 8 2 8 9
M  V30 9 1 9 10
M  V30 10 2 10 11
M  V30 11 1 11 12
M  V30 12 1 9 13
M  V30 13 2 13 14
M  V30 14 1 14 15
M  V30 15 2 15 16
M  V30 16 1 16 17
M  V30 17 1 14 18
M  V30 18 2 18 19
M  V30 19 1 19 20
M  V30 20 2 20 21
M  V30 21 1 21 22
M  V30 22 2 22 23
M  V30 23 1 11 6
M  V30 24 1 23 18
M  V30 25 1 16 8
M  V30 26 1 1 24
M  V30 27 1 1 25
M  V30 28 1 1 26
M  V30 29 1 2 27
M  V30 30 1 2 28
M  V30 31 1 3 29
M  V30 32 1 12 30
M  V30 33 1 12 31
M  V30 34 1 17 32
M  V30 35 1 17 33
M  V30 36 1 19 34
M  V30 37 1 20 35
M  V30 38 1 21 36
M  V30 39 1 22 37
M  V30 40 1 23 38
M  V30 END BOND
M  V30 END CTAB
M  END
