
     RDKit          3D

  0  0  0  0  0  0  0  0  0  0999 V3000
M  V30 BEGIN CTAB
M  V30 COUNTS 32 31 0 0 0
M  V30 BEGIN ATOM
M  V30 1 N -1.64383 3.21448 1.27967 0
M  V30 2 C -1.1713 1.82918 1.2359 0
M  V30 3 C -0.780467 1.53662 -0.177044 0
M  V30 4 N -0.286094 0.194209 -0.389227 0
M  V30 5 C -1.13712 -0.893736 -0.717595 0
M  V30 6 O -0.643118 -2.03264 -0.888611 0
M  V30 7 O -2.50997 -0.763917 -0.862418 0
M  V30 8 C -3.34169 -1.86943 -1.19149 0
M  V30 9 C -3.27383 -2.96591 -0.182586 0
M  V30 10 C 1.10823 -0.0229206 -0.269761 0
M  V30 11 O 1.55649 -1.18561 -0.445936 0
M  V30 12 C 2.07161 1.06867 0.0557804 0
M  V30 13 N 3.42127 0.592923 0.125017 0
M  V30 14 C 3.90677 -0.264498 1.13396 0
M  V30 15 S 2.91145 -0.76924 2.33262 0
M  V30 16 N 5.24801 -0.712027 1.15979 0
M  V30 17 H -2.51082 3.3466 0.73391 0
M  V30 18 H -0.880623 3.87571 1.05685 0
M  V30 19 H -0.381743 1.72333 1.97677 0
M  V30 20 H -2.06157 1.17733 1.45992 0
M  V30 21 H -1.65873 1.76348 -0.828784 0
M  V30 22 H 0.00648343 2.24476 -0.506042 0
M  V30 23 H -3.07193 -2.29533 -2.18425 0
M  V30 24 H -4.38996 -1.52456 -1.27873 0
M  V30 25 H -4.29853 -3.26042 0.105638 0
M  V30 26 H -2.75217 -2.67246 0.753869 0
M  V30 27 H -2.80926 -3.89131 -0.614482 0
M  V30 28 H 1.9919 1.87162 -0.7218 0
M  V30 29 H 1.79135 1.52236 1.03714 0
M  V30 30 H 4.10548 0.897476 -0.622854 0
M  V30 31 H 5.47772 -1.71616 1.06266 0
M  V30 32 H 6.00599 -0.0185861 1.27797 0
M  V30 END ATOM
M  V30 BEGIN BOND
M  V30 1 1 1 2
M  V30 2 1 2 3
M  V30 3 1 3 4
M  V30 4 1 4 5
M  V30 5 2 5 6
M  V30 6 1 5 7
M  V30 7 1 7 8
M  V30 8 1 8 9
M  V30 9 1 4 10
M  V30 10 2 10 11
M  V30 11 1 10 12
M  V30 12 1 12 13
M  V30 13 1 13 14
M  V30 14 2 14 15
M  V30 15 1 14 16
M  V30 16 1 1 17
M  V30 17 1 1 18
M  V30 18 1 2 19
M  V30 19 1 2 20
M  V30 20 1 3 21
M  V30 21 1 3 22
M  V30 22 1 8 23
M  V30 23 1 8 24
M  V30 24 1 9 25
M  V30 25 1 9 26
M  V30 26 1 9 27
M  V30 27 1 12 28
M  V30 28 1 12 29
M  V30 29 1 13 30
M  V30 30 1 16 31
M  V30 31 1 16 32
M  V30 END BOND
M  V30 END CTAB
M  END
