
     RDKit          3D

  0  0  0  0  0  0  0  0  0  0999 V3000
M  V30 BEGIN CTAB
M  V30 COUNTS 46 48 0 0 0
M  V30 BEGIN ATOM
M  V30 1 C 6.46346 0.929886 -0.246068 0
M  V30 2 C 5.32436 0.98851 -1.23488 0
M  V30 3 O 4.18125 0.47022 -0.603584 0
M  V30 4 C 3.08504 0.498972 -1.47766 0
M  V30 5 C 2.59902 -0.923762 -1.66838 0
M  V30 6 C 1.86762 -1.29065 -0.374502 0
M  V30 7 N 0.627388 -0.540452 -0.334974 0
M  V30 8 C 0.652919 0.789145 -0.906468 0
M  V30 9 C 2.0456 1.38002 -0.863691 0
M  V30 10 C -0.537902 -1.10743 0.241957 0
M  V30 11 C -1.74026 -0.46572 0.307852 0
M  V30 12 C -2.8427 -1.0658 0.881727 0
M  V30 13 N -2.7008 -2.30137 1.37503 0
M  V30 14 C -1.53213 -2.95239 1.32276 0
M  V30 15 N -0.472709 -2.35237 0.761182 0
M  V30 16 N -1.46389 -4.25989 1.86827 0
M  V30 17 C -4.13374 -0.329393 0.932102 0
M  V30 18 C -4.56773 0.268958 -0.396741 0
M  V30 19 C -5.07361 1.45958 0.391858 0
M  V30 20 C -4.02897 1.09338 1.44121 0
M  V30 21 N -4.85282 2.74195 -0.233327 0
M  V30 22 H 7.34305 1.39071 -0.701895 0
M  V30 23 H 6.64721 -0.164124 -0.05043 0
M  V30 24 H 6.21156 1.43949 0.704208 0
M  V30 25 H 5.55044 0.329628 -2.08772 0
M  V30 26 H 5.19952 2.05387 -1.51556 0
M  V30 27 H 3.40434 0.921312 -2.43457 0
M  V30 28 H 1.84425 -0.96964 -2.48044 0
M  V30 29 H 3.43327 -1.62281 -1.80378 0
M  V30 30 H 1.59005 -2.36132 -0.484169 0
M  V30 31 H 2.4993 -1.11011 0.513319 0
M  V30 32 H 0.0343571 1.43908 -0.22126 0
M  V30 33 H 0.195703 0.841542 -1.89467 0
M  V30 34 H 2.28639 1.67631 0.178618 0
M  V30 35 H 1.97458 2.35372 -1.42769 0
M  V30 36 H -1.79387 0.545293 -0.113947 0
M  V30 37 H -0.585464 -4.63304 2.26535 0
M  V30 38 H -2.30752 -4.8854 1.88308 0
M  V30 39 H -4.96331 -0.874308 1.40308 0
M  V30 40 H -3.69873 0.557784 -0.995306 0
M  V30 41 H -5.35536 -0.308243 -0.919013 0
M  V30 42 H -6.09218 1.32043 0.761993 0
M  V30 43 H -4.35415 1.24302 2.48141 0
M  V30 44 H -3.0424 1.52294 1.16787 0
M  V30 45 H -3.95131 2.7786 -0.730324 0
M  V30 46 H -4.96912 3.48388 0.490455 0
M  V30 END ATOM
M  V30 BEGIN BOND
M  V30 1 1 1 2
M  V30 2 1 2 3
M  V30 3 1 3 4
M  V30 4 1 4 5
M  V30 5 1 5 6
M  V30 6 1 6 7
M  V30 7 1 7 8
M  V30 8 1 8 9
M  V30 9 1 7 10
M  V30 10 2 10 11
M  V30 11 1 11 12
M  V30 12 2 12 13
M  V30 13 1 13 14
M  V30 14 2 14 15
M  V30 15 1 14 16
M  V30 16 1 12 17
M  V30 17 1 17 18
M  V30 18 1 18 19
M  V30 19 1 19 20
M  V30 20 1 19 21
M  V30 21 1 9 4
M  V30 22 1 15 10
M  V30 23 1 20 17
M  V30 24 1 1 22
M  V30 25 1 1 23
M  V30 26 1 1 24
M  V30 27 1 2 25
M  V30 28 1 2 26
M  V30 29 1 4 27
M  V30 30 1 5 28
M  V30 31 1 5 29
M  V30 32 1 6 30
M  V30 33 1 6 31
M  V30 34 1 8 32
M  V30 35 1 8 33
M  V30 36 1 9 34
M  V30 37 1 9 35
M  V30 38 1 11 36
M  V30 39 1 16 37
M  V30 40 1 16 38
M  V30 41 1 17 39
M  V30 42 1 18 40
M  V30 43 1 18 41
M  V30 44 1 19 42
M  V30 45 1 20 43
M  V30 46 1 20 44
M  V30 47 1 21 45
M  V30 48 1 21 46
M  V30 END BOND
M  V30 END CTAB
M  END
