
     RDKit          3D

  0  0  0  0  0  0  0  0  0  0999 V3000
M  V30 BEGIN CTAB
M  V30 COUNTS 31 32 0 0 0
M  V30 BEGIN ATOM
M  V30 1 N 4.9658 0.823175 0.122887 0
M  V30 2 C 3.58741 0.517562 0.178501 0
M  V30 3 N 2.61391 1.43043 0.494071 0
M  V30 4 C 1.307 1.16487 0.500933 0
M  V30 5 O 0.386065 2.12183 0.82794 0
M  V30 6 C 0.871298 -0.107852 0.170362 0
M  V30 7 C -0.51495 -0.542192 0.222775 0
M  V30 8 C -1.2027 -0.820798 -1.04935 0
M  V30 9 C -2.50718 -0.168723 -1.30836 0
M  V30 10 C -2.90898 0.951539 -0.408752 0
M  V30 11 C -2.57375 0.731114 1.01931 0
M  V30 12 C -1.34263 -0.0675685 1.32308 0
M  V30 13 C 1.82825 -1.04298 -0.143477 0
M  V30 14 N 1.58059 -2.43863 -0.414978 0
M  V30 15 N 3.14694 -0.719617 -0.134961 0
M  V30 16 H 5.37596 1.54596 0.699862 0
M  V30 17 H 5.50377 0.227598 -0.566369 0
M  V30 18 H -0.18531 2.46175 0.0638943 0
M  V30 19 H -0.328398 -1.68601 0.593042 0
M  V30 20 H -1.25626 -1.88232 -1.25201 0
M  V30 21 H -0.492919 -0.516886 -1.92732 0
M  V30 22 H -2.47986 0.261761 -2.37547 0
M  V30 23 H -3.36786 -0.907417 -1.34462 0
M  V30 24 H -2.58247 1.97703 -0.79988 0
M  V30 25 H -4.04249 1.04358 -0.473175 0
M  V30 26 H -2.52099 1.75175 1.51605 0
M  V30 27 H -3.44112 0.240682 1.49922 0
M  V30 28 H -0.758482 0.517386 2.10164 0
M  V30 29 H -1.70785 -0.989317 1.95928 0
M  V30 30 H 1.91628 -2.81877 -1.35271 0
M  V30 31 H 1.13093 -3.05893 0.25858 0
M  V30 END ATOM
M  V30 BEGIN BOND
M  V30 1 1 1 2
M  V30 2 2 2 3
M  V30 3 1 3 4
M  V30 4 1 4 5
M  V30 5 2 4 6
M  V30 6 1 6 7
M  V30 7 1 7 8
M  V30 8 1 8 9
M  V30 9 1 9 10
M  V30 10 1 10 11
M  V30 11 1 11 12
M  V30 12 1 6 13
M  V30 13 1 13 14
M  V30 14 2 13 15
M  V30 15 1 15 2
M  V30 16 1 12 7
M  V30 17 1 1 16
M  V30 18 1 1 17
M  V30 19 1 5 18
M  V30 20 1 7 19
M  V30 21 1 8 20
M  V30 22 1 8 21
M  V30 23 1 9 22
M  V30 24 1 9 23
M  V30 25 1 10 24
M  V30 26 1 10 25
M  V30 27 1 11 26
M  V30 28 1 11 27
M  V30 29 1 12 28
M  V30 30 1 12 29
M  V30 31 1 14 30
M  V30 32 1 14 31
M  V30 END BOND
M  V30 END CTAB
M  END
