
     RDKit          3D

  0  0  0  0  0  0  0  0  0  0999 V3000
M  V30 BEGIN CTAB
M  V30 COUNTS 25 24 0 0 0
M  V30 BEGIN ATOM
M  V30 1 C -0.620046 -1.52575 0.192617 0
M  V30 2 C -0.686197 -0.0744716 0.529437 0
M  V30 3 C 0.278688 0.711813 -0.285623 0
M  V30 4 C 1.66024 0.251364 -0.0187677 0
M  V30 5 O 2.35595 1.02361 0.738854 0
M  V30 6 N 2.27569 -0.90492 -0.494101 0
M  V30 7 N 3.59154 -1.21124 -0.154555 0
M  V30 8 N 0.199927 2.1423 0.0392966 0
M  V30 9 C -2.09147 0.474851 0.496966 0
M  V30 10 C -2.73463 0.333352 -0.856967 0
M  V30 11 H -1.53744 -2.07983 0.548909 0
M  V30 12 H 0.272988 -1.98073 0.664139 0
M  V30 13 H -0.544354 -1.62498 -0.910157 0
M  V30 14 H -0.378405 0.0135583 1.61734 0
M  V30 15 H 0.0813205 0.546062 -1.36418 0
M  V30 16 H 1.78046 -1.56171 -1.11721 0
M  V30 17 H 4.2572 -1.01453 -0.933662 0
M  V30 18 H 3.89036 -0.742046 0.725802 0
M  V30 19 H 0.849774 2.60563 -0.654769 0
M  V30 20 H 0.707254 2.2339 0.962888 0
M  V30 21 H -2.69461 -0.127971 1.20778 0
M  V30 22 H -2.08343 1.52412 0.794699 0
M  V30 23 H -2.8815 -0.716857 -1.15308 0
M  V30 24 H -2.20129 0.921224 -1.6393 0
M  V30 25 H -3.74803 0.783248 -0.781065 0
M  V30 END ATOM
M  V30 BEGIN BOND
M  V30 1 1 1 2
M  V30 2 1 2 3
M  V30 3 1 3 4
M  V30 4 2 4 5
M  V30 5 1 4 6
M  V30 6 1 6 7
M  V30 7 1 3 8
M  V30 8 1 2 9
M  V30 9 1 9 10
M  V30 10 1 1 11
M  V30 11 1 1 12
M  V30 12 1 1 13
M  V30 13 1 2 14
M  V30 14 1 3 15
M  V30 15 1 6 16
M  V30 16 1 7 17
M  V30 17 1 7 18
M  V30 18 1 8 19
M  V30 19 1 8 20
M  V30 20 1 9 21
M  V30 21 1 9 22
M  V30 22 1 10 23
M  V30 23 1 10 24
M  V30 24 1 10 25
M  V30 END BOND
M  V30 END CTAB
M  END
