
     RDKit          3D

  0  0  0  0  0  0  0  0  0  0999 V3000
M  V30 BEGIN CTAB
M  V30 COUNTS 31 32 0 0 0
M  V30 BEGIN ATOM
M  V30 1 N 6.10089 -0.174993 -0.41795 0
M  V30 2 C 4.70301 -0.0453145 -0.277664 0
M  V30 3 C 4.1441 0.96884 0.48121 0
M  V30 4 C 2.78081 1.08557 0.610917 0
M  V30 5 C 1.89967 0.18758 -0.0161615 0
M  V30 6 C 0.476342 0.386115 0.175195 0
M  V30 7 C -0.380213 -0.427033 -0.390619 0
M  V30 8 C -1.8426 -0.299889 -0.250111 0
M  V30 9 C -2.41898 0.695822 0.495682 0
M  V30 10 C -3.81744 0.751061 0.581578 0
M  V30 11 N -4.35663 1.80078 1.36565 0
M  V30 12 C -4.622 -0.164938 -0.0610176 0
M  V30 13 C -4.04138 -1.16744 -0.811902 0
M  V30 14 O -4.84134 -2.08881 -1.45858 0
M  V30 15 C -2.66801 -1.22764 -0.900602 0
M  V30 16 C 2.48758 -0.797953 -0.755075 0
M  V30 17 C 3.87169 -0.939767 -0.90378 0
M  V30 18 H 6.62527 0.449476 -1.04749 0
M  V30 19 H 6.59819 -0.903736 0.117187 0
M  V30 20 H 4.82412 1.66537 0.967716 0
M  V30 21 H 2.37729 1.89716 1.2168 0
M  V30 22 H 0.129436 1.20528 0.784606 0
M  V30 23 H -0.0583571 -1.2728 -1.01865 0
M  V30 24 H -1.81355 1.41843 1.00356 0
M  V30 25 H -4.5302 1.64495 2.37868 0
M  V30 26 H -4.58621 2.7292 0.957742 0
M  V30 27 H -5.70959 -0.0963649 0.024482 0
M  V30 28 H -5.18492 -1.95442 -2.40871 0
M  V30 29 H -2.24801 -2.03816 -1.50608 0
M  V30 30 H 1.85627 -1.51601 -1.25886 0
M  V30 31 H 4.24474 -1.77037 -1.52256 0
M  V30 END ATOM
M  V30 BEGIN BOND
M  V30 1 1 1 2
M  V30 2 2 2 3
M  V30 3 1 3 4
M  V30 4 2 4 5
M  V30 5 1 5 6
M  V30 6 2 6 7
M  V30 7 1 7 8
M  V30 8 2 8 9
M  V30 9 1 9 10
M  V30 10 1 10 11
M  V30 11 2 10 12
M  V30 12 1 12 13
M  V30 13 1 13 14
M  V30 14 2 13 15
M  V30 15 1 5 16
M  V30 16 2 16 17
M  V30 17 1 17 2
M  V30 18 1 15 8
M  V30 19 1 1 18
M  V30 20 1 1 19
M  V30 21 1 3 20
M  V30 22 1 4 21
M  V30 23 1 6 22
M  V30 24 1 7 23
M  V30 25 1 9 24
M  V30 26 1 11 25
M  V30 27 1 11 26
M  V30 28 1 12 27
M  V30 29 1 14 28
M  V30 30 1 15 29
M  V30 31 1 16 30
M  V30 32 1 17 31
M  V30 END BOND
M  V30 END CTAB
M  END
