
     RDKit          3D

  0  0  0  0  0  0  0  0  0  0999 V3000
M  V30 BEGIN CTAB
M  V30 COUNTS 48 51 0 0 0
M  V30 BEGIN ATOM
M  V30 1 N 4.31512 -3.48895 1.81778 0
M  V30 2 C 4.59476 -2.6904 1.0354 0
M  V30 3 C 4.97328 -1.69446 0.0548704 0
M  V30 4 C 6.2033 -1.81235 -0.595552 0
M  V30 5 C 6.59847 -0.885114 -1.52956 0
M  V30 6 C 5.75644 0.16152 -1.80995 0
M  V30 7 N 4.58599 0.243385 -1.16834 0
M  V30 8 C 4.14539 -0.633483 -0.24497 0
M  V30 9 N 2.88013 -0.477075 0.392166 0
M  V30 10 C 1.79219 -1.40398 0.318056 0
M  V30 11 C 0.452227 -0.75235 0.192096 0
M  V30 12 N 0.434142 0.667854 0.293084 0
M  V30 13 C 1.59955 1.51106 0.442311 0
M  V30 14 C 2.65445 0.719465 1.18226 0
M  V30 15 C -0.845592 1.3331 0.241332 0
M  V30 16 C -2.02851 0.615274 0.0921645 0
M  V30 17 C -3.23729 1.25936 0.0432622 0
M  V30 18 N -3.22232 2.61137 0.145679 0
M  V30 19 C -2.10789 3.32679 0.288848 0
M  V30 20 N -0.940966 2.66309 0.333266 0
M  V30 21 N -2.08589 4.73522 0.394468 0
M  V30 22 C -4.52917 0.551007 -0.11445 0 CFG=2
M  V30 23 C -4.76287 -0.620266 0.782694 0
M  V30 24 C -5.35698 -1.35324 -0.418993 0 CFG=1
M  V30 25 C -4.57082 -0.403047 -1.29794 0
M  V30 26 N -4.97337 -2.73947 -0.505776 0
M  V30 27 H 6.8411 -2.67063 -0.33375 0
M  V30 28 H 7.56709 -0.976258 -2.04336 0
M  V30 29 H 6.06171 0.90873 -2.55448 0
M  V30 30 H 2.00017 -2.16661 -0.46261 0
M  V30 31 H 1.76009 -1.95783 1.3034 0
M  V30 32 H -0.306212 -1.15964 0.919753 0
M  V30 33 H 0.0454162 -1.03009 -0.824605 0
M  V30 34 H 1.36411 2.47176 0.941618 0
M  V30 35 H 2.00283 1.66619 -0.590458 0
M  V30 36 H 3.58403 1.32026 1.29274 0
M  V30 37 H 2.33644 0.474936 2.22664 0
M  V30 38 H -1.98597 -0.459108 0.0148961 0
M  V30 39 H -2.12054 5.21274 1.31031 0
M  V30 40 H -2.03416 5.30254 -0.469864 0
M  V30 41 H -5.3813 1.23318 -0.133957 0
M  V30 42 H -5.51855 -0.414586 1.58295 0
M  V30 43 H -3.8761 -1.17135 1.13551 0
M  V30 44 H -6.44747 -1.22963 -0.528341 0
M  V30 45 H -5.15094 0.0195546 -2.14142 0
M  V30 46 H -3.55397 -0.750873 -1.57215 0
M  V30 47 H -5.5471 -3.16813 -1.26543 0
M  V30 48 H -3.96444 -2.89946 -0.627573 0
M  V30 END ATOM
M  V30 BEGIN BOND
M  V30 1 3 1 2
M  V30 2 1 2 3
M  V30 3 2 3 4
M  V30 4 1 4 5
M  V30 5 2 5 6
M  V30 6 1 6 7
M  V30 7 2 7 8
M  V30 8 1 8 9
M  V30 9 1 9 10
M  V30 10 1 10 11
M  V30 11 1 11 12
M  V30 12 1 12 13
M  V30 13 1 13 14
M  V30 14 1 12 15
M  V30 15 2 15 16
M  V30 16 1 16 17
M  V30 17 2 17 18
M  V30 18 1 18 19
M  V30 19 2 19 20
M  V30 20 1 19 21
M  V30 21 1 17 22
M  V30 22 1 22 23
M  V30 23 1 23 24
M  V30 24 1 24 25
M  V30 25 1 24 26
M  V30 26 1 8 3
M  V30 27 1 14 9
M  V30 28 1 20 15
M  V30 29 1 25 22
M  V30 30 1 4 27
M  V30 31 1 5 28
M  V30 32 1 6 29
M  V30 33 1 10 30
M  V30 34 1 10 31
M  V30 35 1 11 32
M  V30 36 1 11 33
M  V30 37 1 13 34
M  V30 38 1 13 35
M  V30 39 1 14 36
M  V30 40 1 14 37
M  V30 41 1 16 38
M  V30 42 1 21 39
M  V30 43 1 21 40
M  V30 44 1 22 41 CFG=3
M  V30 45 1 23 42
M  V30 46 1 23 43
M  V30 47 1 24 44 CFG=3
M  V30 48 1 25 45
M  V30 49 1 25 46
M  V30 50 1 26 47
M  V30 51 1 26 48
M  V30 END BOND
M  V30 END CTAB
M  END
