
     RDKit          3D

  0  0  0  0  0  0  0  0  0  0999 V3000
M  V30 BEGIN CTAB
M  V30 COUNTS 31 31 0 0 0
M  V30 BEGIN ATOM
M  V30 1 C 2.83294 1.02604 1.40439 0
M  V30 2 C 2.00624 0.195308 0.464281 0
M  V30 3 C 1.30303 1.04213 -0.581333 0
M  V30 4 C 0.480604 0.19094 -1.5163 0
M  V30 5 C -0.739647 -0.365284 -0.920597 0
M  V30 6 C -1.20487 0.064084 0.302801 0
M  V30 7 C -2.35459 -0.460315 0.841447 0
M  V30 8 C -2.87617 0.00905853 2.16966 0
M  V30 9 C -3.06806 -1.42057 0.182012 0
M  V30 10 N -2.61144 -1.84514 -1.02528 0
M  V30 11 C -1.48965 -1.33297 -1.55011 0
M  V30 12 N -0.976389 -1.76073 -2.83212 0
M  V30 13 O 1.34442 -0.800789 -2.02953 0
M  V30 14 N 2.39242 1.63478 -1.37384 0
M  V30 15 H 3.90409 0.846693 1.18461 0
M  V30 16 H 2.65029 2.10942 1.23093 0
M  V30 17 H 2.68207 0.751956 2.46906 0
M  V30 18 H 1.31287 -0.418533 1.07285 0
M  V30 19 H 2.68456 -0.548316 -0.0150955 0
M  V30 20 H 0.753429 1.84879 -0.107364 0
M  V30 21 H 0.226881 0.815623 -2.43639 0
M  V30 22 H -0.692944 0.822952 0.873199 0
M  V30 23 H -2.06182 0.198848 2.88054 0
M  V30 24 H -3.60673 -0.709006 2.57779 0
M  V30 25 H -3.45252 0.968717 2.01123 0
M  V30 26 H -3.99083 -1.85606 0.594818 0
M  V30 27 H -0.361847 -2.62481 -2.77273 0
M  V30 28 H -1.19136 -1.26918 -3.71179 0
M  V30 29 H 1.46149 -0.752139 -2.99062 0
M  V30 30 H 2.10325 2.58402 -1.70599 0
M  V30 31 H 2.54026 1.05449 -2.22776 0
M  V30 END ATOM
M  V30 BEGIN BOND
M  V30 1 1 1 2
M  V30 2 1 2 3
M  V30 3 1 3 4
M  V30 4 1 4 5
M  V30 5 2 5 6
M  V30 6 1 6 7
M  V30 7 1 7 8
M  V30 8 2 7 9
M  V30 9 1 9 10
M  V30 10 2 10 11
M  V30 11 1 11 12
M  V30 12 1 4 13
M  V30 13 1 3 14
M  V30 14 1 11 5
M  V30 15 1 1 15
M  V30 16 1 1 16
M  V30 17 1 1 17
M  V30 18 1 2 18
M  V30 19 1 2 19
M  V30 20 1 3 20
M  V30 21 1 4 21
M  V30 22 1 6 22
M  V30 23 1 8 23
M  V30 24 1 8 24
M  V30 25 1 8 25
M  V30 26 1 9 26
M  V30 27 1 12 27
M  V30 28 1 12 28
M  V30 29 1 13 29
M  V30 30 1 14 30
M  V30 31 1 14 31
M  V30 END BOND
M  V30 END CTAB
M  END
