
     RDKit          3D

  0  0  0  0  0  0  0  0  0  0999 V3000
M  V30 BEGIN CTAB
M  V30 COUNTS 45 48 0 0 0
M  V30 BEGIN ATOM
M  V30 1 C 6.24471 -1.71344 2.34507 0
M  V30 2 C 4.98442 -1.1173 1.84421 0
M  V30 3 C 4.93377 -0.164977 0.86168 0
M  V30 4 C 3.77348 0.410307 0.372785 0
M  V30 5 C 3.92245 1.44129 -0.678234 0
M  V30 6 C 2.52556 0.00651321 0.906221 0
M  V30 7 C 2.62934 -0.950591 1.88984 0
M  V30 8 N 3.80556 -1.49098 2.34116 0
M  V30 9 S 1.0173 -1.23948 2.35634 0
M  V30 10 C 0.225452 -0.161316 1.31778 0
M  V30 11 C 1.27061 0.418547 0.605275 0
M  V30 12 N 0.917788 1.39749 -0.418604 0
M  V30 13 C 0.896008 2.72543 -0.342096 0
M  V30 14 C 0.469051 3.2774 -1.5279 0
M  V30 15 C 0.207409 2.21523 -2.40152 0
M  V30 16 C 0.498584 1.08917 -1.6708 0
M  V30 17 C -1.2218 0.105682 1.20549 0
M  V30 18 O -1.97176 -0.554157 1.9603 0
M  V30 19 O -1.75094 0.997283 0.357737 0
M  V30 20 C -3.08827 1.33175 0.166058 0
M  V30 21 C -3.97413 0.256071 -0.259211 0
M  V30 22 N -4.67257 -0.440078 0.650737 0
M  V30 23 C -5.48817 -1.42424 0.309726 0
M  V30 24 N -6.21003 -2.13839 1.29387 0
M  V30 25 N -5.63466 -1.75069 -0.978417 0
M  V30 26 C -4.95631 -1.08266 -1.92858 0
M  V30 27 N -4.11786 -0.0681932 -1.55565 0
M  V30 28 N -5.08722 -1.4021 -3.30715 0
M  V30 29 H 7.08109 -0.982034 2.22048 0
M  V30 30 H 6.11526 -2.0491 3.38302 0
M  V30 31 H 6.46968 -2.60428 1.70233 0
M  V30 32 H 5.88809 0.144019 0.455068 0
M  V30 33 H 5.02905 1.40122 -1.01919 0
M  V30 34 H 3.88597 2.48106 -0.264067 0
M  V30 35 H 3.38808 1.27755 -1.60129 0
M  V30 36 H 1.16986 3.31249 0.517759 0
M  V30 37 H 0.337478 4.30826 -1.80299 0
M  V30 38 H -0.146649 2.28872 -3.42563 0
M  V30 39 H 0.405991 0.084878 -2.0445 0
M  V30 40 H -3.1055 2.1708 -0.589074 0
M  V30 41 H -3.44312 1.82064 1.11495 0
M  V30 42 H -6.46942 -3.115 1.11868 0
M  V30 43 H -6.46453 -1.66405 2.1742 0
M  V30 44 H -5.86922 -1.00312 -3.86817 0
M  V30 45 H -4.41989 -2.03099 -3.78771 0
M  V30 END ATOM
M  V30 BEGIN BOND
M  V30 1 1 1 2
M  V30 2 2 2 3
M  V30 3 1 3 4
M  V30 4 1 4 5
M  V30 5 2 4 6
M  V30 6 1 6 7
M  V30 7 2 7 8
M  V30 8 1 7 9
M  V30 9 1 9 10
M  V30 10 2 10 11
M  V30 11 1 11 12
M  V30 12 1 12 13
M  V30 13 2 13 14
M  V30 14 1 14 15
M  V30 15 2 15 16
M  V30 16 1 10 17
M  V30 17 2 17 18
M  V30 18 1 17 19
M  V30 19 1 19 20
M  V30 20 1 20 21
M  V30 21 2 21 22
M  V30 22 1 22 23
M  V30 23 1 23 24
M  V30 24 2 23 25
M  V30 25 1 25 26
M  V30 26 2 26 27
M  V30 27 1 26 28
M  V30 28 1 8 2
M  V30 29 1 16 12
M  V30 30 1 27 21
M  V30 31 1 11 6
M  V30 32 1 1 29
M  V30 33 1 1 30
M  V30 34 1 1 31
M  V30 35 1 3 32
M  V30 36 1 5 33
M  V30 37 1 5 34
M  V30 38 1 5 35
M  V30 39 1 13 36
M  V30 40 1 14 37
M  V30 41 1 15 38
M  V30 42 1 16 39
M  V30 43 1 20 40
M  V30 44 1 20 41
M  V30 45 1 24 42
M  V30 46 1 24 43
M  V30 47 1 28 44
M  V30 48 1 28 45
M  V30 END BOND
M  V30 END CTAB
M  END
