
     RDKit          3D

  0  0  0  0  0  0  0  0  0  0999 V3000
M  V30 BEGIN CTAB
M  V30 COUNTS 75 74 0 0 0
M  V30 BEGIN ATOM
M  V30 1 C -6.06178 6.01757 -4.31543 0
M  V30 2 O -6.22583 4.8011 -3.61691 0
M  V30 3 C -5.19112 4.11735 -3.01437 0
M  V30 4 O -4.02928 4.59577 -3.08417 0
M  V30 5 C -5.40126 2.83689 -2.2878 0
M  V30 6 N -4.1448 2.33763 -1.76639 0
M  V30 7 C -4.12457 1.13026 -1.04826 0
M  V30 8 O -5.17417 0.478231 -0.849084 0
M  V30 9 C -2.84904 0.566958 -0.489408 0 CFG=2
M  V30 10 C -1.86129 0.296391 -1.5878 0
M  V30 11 S -0.35075 -0.384296 -0.862706 0
M  V30 12 S 0.63896 1.07921 0.335611 0
M  V30 13 C 1.79478 1.97367 -0.764895 0
M  V30 14 C 2.8473 1.00818 -1.20131 0 CFG=2
M  V30 15 N 3.62395 0.433259 -0.155615 0
M  V30 16 C 3.67842 -0.94784 0.161071 0
M  V30 17 O 3.01883 -1.80813 -0.476006 0
M  V30 18 C 4.52715 -1.45171 1.27476 0
M  V30 19 C 4.36171 -2.90984 1.5459 0
M  V30 20 C 5.31982 -3.23946 2.70145 0 CFG=2
M  V30 21 N 6.68186 -2.9477 2.32578 0
M  V30 22 C 5.14568 -4.61191 3.18819 0
M  V30 23 O 3.84684 -4.97006 3.59218 0
M  V30 24 O 6.05171 -5.45991 3.26539 0
M  V30 25 C 3.69782 1.68208 -2.23214 0
M  V30 26 O 4.93274 1.64501 -2.0508 0
M  V30 27 N 3.16858 2.32946 -3.35314 0
M  V30 28 C 4.03779 2.96483 -4.30743 0
M  V30 29 C 4.85584 4.05837 -3.78266 0
M  V30 30 O 5.73643 4.6724 -4.67124 0
M  V30 31 O 4.75907 4.41814 -2.58571 0
M  V30 32 N -3.11059 -0.684212 0.173374 0
M  V30 33 C -2.9212 -0.891997 1.55578 0
M  V30 34 O -2.50463 0.0611223 2.26058 0
M  V30 35 C -3.19745 -2.18526 2.18922 0
M  V30 36 C -2.99372 -2.11848 3.67285 0
M  V30 37 C -3.27795 -3.46268 4.33266 0 CFG=2
M  V30 38 N -2.40273 -4.48828 3.82171 0
M  V30 39 C -4.67218 -3.90784 4.00627 0
M  V30 40 O -5.75845 -3.14218 4.40113 0
M  V30 41 O -4.93161 -4.96174 3.37898 0
M  V30 42 H -7.08188 6.47225 -4.42288 0
M  V30 43 H -5.66346 5.84933 -5.34204 0
M  V30 44 H -5.44818 6.74146 -3.74606 0
M  V30 45 H -6.08832 3.00807 -1.41245 0
M  V30 46 H -5.85915 2.12378 -3.00702 0
M  V30 47 H -3.27635 2.89024 -1.94003 0
M  V30 48 H -2.39702 1.32036 0.20385 0
M  V30 49 H -2.25568 -0.398656 -2.34106 0
M  V30 50 H -1.56361 1.26041 -2.09233 0
M  V30 51 H 1.18938 2.25197 -1.65575 0
M  V30 52 H 2.16292 2.89627 -0.323158 0
M  V30 53 H 2.29822 0.189555 -1.75693 0
M  V30 54 H 4.21668 1.07712 0.449612 0
M  V30 55 H 4.31214 -0.844854 2.17817 0
M  V30 56 H 5.61092 -1.28273 1.06049 0
M  V30 57 H 3.32204 -3.18354 1.82527 0
M  V30 58 H 4.6856 -3.53228 0.689915 0
M  V30 59 H 5.0799 -2.54525 3.55864 0
M  V30 60 H 7.35749 -3.68634 2.55644 0
M  V30 61 H 7.0026 -2.02593 2.69477 0
M  V30 62 H 3.57614 -4.8002 4.57295 0
M  V30 63 H 2.12676 2.32533 -3.45736 0
M  V30 64 H 3.36839 3.36693 -5.12901 0
M  V30 65 H 4.66441 2.20374 -4.8546 0
M  V30 66 H 6.30337 4.07231 -5.25225 0
M  V30 67 H -3.45748 -1.47329 -0.410021 0
M  V30 68 H -4.22724 -2.51427 1.95964 0
M  V30 69 H -2.46715 -2.9221 1.78969 0
M  V30 70 H -3.70649 -1.39528 4.15455 0
M  V30 71 H -1.97922 -1.75933 3.91442 0
M  V30 72 H -3.21938 -3.31431 5.42543 0
M  V30 73 H -2.6761 -4.67786 2.83527 0
M  V30 74 H -1.39872 -4.22297 3.83333 0
M  V30 75 H -6.05241 -2.40027 3.76093 0
M  V30 END ATOM
M  V30 BEGIN BOND
M  V30 1 1 1 2
M  V30 2 1 2 3
M  V30 3 2 3 4
M  V30 4 1 3 5
M  V30 5 1 5 6
M  V30 6 1 6 7
M  V30 7 2 7 8
M  V30 8 1 7 9
M  V30 9 1 9 10
M  V30 10 1 10 11
M  V30 11 1 11 12
M  V30 12 1 12 13
M  V30 13 1 13 14
M  V30 14 1 14 15
M  V30 15 1 15 16
M  V30 16 2 16 17
M  V30 17 1 16 18
M  V30 18 1 18 19
M  V30 19 1 19 20
M  V30 20 1 20 21
M  V30 21 1 20 22
M  V30 22 1 22 23
M  V30 23 2 22 24
M  V30 24 1 14 25
M  V30 25 2 25 26
M  V30 26 1 25 27
M  V30 27 1 27 28
M  V30 28 1 28 29
M  V30 29 1 29 30
M  V30 30 2 29 31
M  V30 31 1 9 32
M  V30 32 1 32 33
M  V30 33 2 33 34
M  V30 34 1 33 35
M  V30 35 1 35 36
M  V30 36 1 36 37
M  V30 37 1 37 38
M  V30 38 1 37 39
M  V30 39 1 39 40
M  V30 40 2 39 41
M  V30 41 1 1 42
M  V30 42 1 1 43
M  V30 43 1 1 44
M  V30 44 1 5 45
M  V30 45 1 5 46
M  V30 46 1 6 47
M  V30 47 1 9 48 CFG=1
M  V30 48 1 10 49
M  V30 49 1 10 50
M  V30 50 1 13 51
M  V30 51 1 13 52
M  V30 52 1 14 53 CFG=3
M  V30 53 1 15 54
M  V30 54 1 18 55
M  V30 55 1 18 56
M  V30 56 1 19 57
M  V30 57 1 19 58
M  V30 58 1 20 59 CFG=1
M  V30 59 1 21 60
M  V30 60 1 21 61
M  V30 61 1 23 62
M  V30 62 1 27 63
M  V30 63 1 28 64
M  V30 64 1 28 65
M  V30 65 1 30 66
M  V30 66 1 32 67
M  V30 67 1 35 68
M  V30 68 1 35 69
M  V30 69 1 36 70
M  V30 70 1 36 71
M  V30 71 1 37 72 CFG=1
M  V30 72 1 38 73
M  V30 73 1 38 74
M  V30 74 1 40 75
M  V30 END BOND
M  V30 END CTAB
M  END
