
     RDKit          3D

  0  0  0  0  0  0  0  0  0  0999 V3000
M  V30 BEGIN CTAB
M  V30 COUNTS 40 41 0 0 0
M  V30 BEGIN ATOM
M  V30 1 N -3.39835 2.33966 -0.207018 0
M  V30 2 C -4.20143 1.25505 0.253662 0
M  V30 3 C -3.56267 -0.114797 -0.0397288 0
M  V30 4 C -3.35762 -0.318735 -1.49214 0
M  V30 5 C -1.96446 -0.425266 -1.96643 0
M  V30 6 C -0.918163 0.0345198 -1.01497 0
M  V30 7 N -1.12562 -0.340174 0.311384 0
M  V30 8 C -2.41377 -0.371515 0.849938 0
M  V30 9 S 0.00142928 -1.42479 0.984956 0
M  V30 10 O -0.447549 -1.87422 2.34607 0
M  V30 11 O 0.0278137 -2.66214 0.115132 0
M  V30 12 C 1.62694 -0.77984 1.02059 0
M  V30 13 C 2.04712 -0.0624415 2.13919 0
M  V30 14 C 3.3152 0.470727 2.22757 0
M  V30 15 C 4.17518 0.277115 1.16906 0
M  V30 16 C 3.79537 -0.430706 0.0383699 0
M  V30 17 C 2.51684 -0.960437 -0.0349522 0
M  V30 18 S 4.9223 -0.651306 -1.28208 0
M  V30 19 O 6.34908 -0.663544 -0.765081 0
M  V30 20 O 4.61754 -1.89161 -2.06108 0
M  V30 21 N 4.71975 0.691262 -2.38129 0
M  V30 22 H -3.42343 2.50667 -1.21856 0
M  V30 23 H -3.69104 3.19864 0.329748 0
M  V30 24 H -4.25572 1.31295 1.36965 0
M  V30 25 H -5.24406 1.27126 -0.105777 0
M  V30 26 H -4.39047 -0.826238 0.268857 0
M  V30 27 H -3.83563 0.554037 -2.03022 0
M  V30 28 H -3.9251 -1.20808 -1.90128 0
M  V30 29 H -1.7978 0.136393 -2.93352 0
M  V30 30 H -1.71496 -1.49266 -2.2421 0
M  V30 31 H 0.0600416 -0.412513 -1.36694 0
M  V30 32 H -0.736631 1.13918 -1.07989 0
M  V30 33 H -2.45294 0.39573 1.68362 0
M  V30 34 H -2.52899 -1.34671 1.41556 0
M  V30 35 H 1.32653 0.0601933 2.94634 0
M  V30 36 H 3.64152 1.02795 3.09644 0
M  V30 37 H 5.17646 0.672211 1.18671 0
M  V30 38 H 2.18425 -1.52064 -0.904965 0
M  V30 39 H 5.18961 1.51165 -1.89916 0
M  V30 40 H 3.69344 0.923164 -2.36028 0
M  V30 END ATOM
M  V30 BEGIN BOND
M  V30 1 1 1 2
M  V30 2 1 2 3
M  V30 3 1 3 4
M  V30 4 1 4 5
M  V30 5 1 5 6
M  V30 6 1 6 7
M  V30 7 1 7 8
M  V30 8 1 7 9
M  V30 9 2 9 10
M  V30 10 2 9 11
M  V30 11 1 9 12
M  V30 12 2 12 13
M  V30 13 1 13 14
M  V30 14 2 14 15
M  V30 15 1 15 16
M  V30 16 2 16 17
M  V30 17 1 16 18
M  V30 18 2 18 19
M  V30 19 2 18 20
M  V30 20 1 18 21
M  V30 21 1 8 3
M  V30 22 1 17 12
M  V30 23 1 1 22
M  V30 24 1 1 23
M  V30 25 1 2 24
M  V30 26 1 2 25
M  V30 27 1 3 26
M  V30 28 1 4 27
M  V30 29 1 4 28
M  V30 30 1 5 29
M  V30 31 1 5 30
M  V30 32 1 6 31
M  V30 33 1 6 32
M  V30 34 1 8 33
M  V30 35 1 8 34
M  V30 36 1 13 35
M  V30 37 1 14 36
M  V30 38 1 15 37
M  V30 39 1 17 38
M  V30 40 1 21 39
M  V30 41 1 21 40
M  V30 END BOND
M  V30 END CTAB
M  END
