
     RDKit          3D

  0  0  0  0  0  0  0  0  0  0999 V3000
M  V30 BEGIN CTAB
M  V30 COUNTS 20 20 0 0 0
M  V30 BEGIN ATOM
M  V30 1 N -3.84514 -1.47389 -0.196454 0
M  V30 2 C -2.70872 -1.27089 -0.145602 0
M  V30 3 C -1.28796 -0.994127 -0.0876731 0
M  V30 4 C -0.362464 -2.02114 -0.0966058 0
M  V30 5 C 1.00571 -1.79121 -0.04224 0
M  V30 6 C 1.41789 -0.484637 0.0219628 0
M  V30 7 C 0.54636 0.592787 0.0346386 0
M  V30 8 C -0.809236 0.289599 -0.0221409 0
M  V30 9 C -1.78263 1.39592 -0.0117426 0
M  V30 10 N 1.00983 1.92354 0.101468 0
M  V30 11 N 2.81378 -0.179477 0.0801592 0
M  V30 12 H -0.703239 -3.05435 -0.147865 0
M  V30 13 H 1.71012 -2.61902 -0.0508255 0
M  V30 14 H -1.32829 2.25481 0.562545 0
M  V30 15 H -2.06357 1.69158 -1.02519 0
M  V30 16 H -2.67608 1.06479 0.570663 0
M  V30 17 H 0.67089 2.53997 0.855444 0
M  V30 18 H 1.68042 2.25434 -0.607218 0
M  V30 19 H 3.16619 0.752232 0.39803 0
M  V30 20 H 3.54616 -0.870818 -0.191352 0
M  V30 END ATOM
M  V30 BEGIN BOND
M  V30 1 3 1 2
M  V30 2 1 2 3
M  V30 3 2 3 4
M  V30 4 1 4 5
M  V30 5 2 5 6
M  V30 6 1 6 7
M  V30 7 2 7 8
M  V30 8 1 8 9
M  V30 9 1 7 10
M  V30 10 1 6 11
M  V30 11 1 8 3
M  V30 12 1 4 12
M  V30 13 1 5 13
M  V30 14 1 9 14
M  V30 15 1 9 15
M  V30 16 1 9 16
M  V30 17 1 10 17
M  V30 18 1 10 18
M  V30 19 1 11 19
M  V30 20 1 11 20
M  V30 END BOND
M  V30 END CTAB
M  END
