
     RDKit          3D

  0  0  0  0  0  0  0  0  0  0999 V3000
M  V30 BEGIN CTAB
M  V30 COUNTS 28 28 0 0 0
M  V30 BEGIN ATOM
M  V30 1 C 3.12254 -1.02982 -0.542266 0
M  V30 2 C 2.19648 -0.792681 0.634367 0
M  V30 3 C 1.26867 0.328562 0.51354 0
M  V30 4 C 0.192464 0.4984 -0.428592 0
M  V30 5 C -1.08656 -0.211303 -0.188913 0
M  V30 6 C -1.2462 -1.56124 -0.0497911 0
M  V30 7 N -2.50386 -2.10653 0.0815258 0
M  V30 8 C -3.60425 -1.3886 0.0895845 0
M  V30 9 C -3.5139 -0.00657571 -0.0317844 0
M  V30 10 C -2.29104 0.549167 -0.174735 0
M  V30 11 N -2.07079 1.99097 -0.277021 0
M  V30 12 O 0.629252 0.372646 -1.79399 0
M  V30 13 N 2.22278 1.54391 0.241356 0
M  V30 14 H 2.69099 -1.69314 -1.27464 0
M  V30 15 H 3.42644 -0.00549723 -0.953133 0
M  V30 16 H 4.11943 -1.44439 -0.154941 0
M  V30 17 H 1.74325 -1.71519 0.975645 0
M  V30 18 H 2.93138 -0.497408 1.47951 0
M  V30 19 H 0.934141 0.595818 1.53878 0
M  V30 20 H -0.0472285 1.61583 -0.443196 0
M  V30 21 H -0.400301 -2.21475 -0.0612459 0
M  V30 22 H -4.63768 -1.77503 0.17558 0
M  V30 23 H -4.39383 0.644958 0.0276706 0
M  V30 24 H -2.12949 2.45001 -1.16574 0
M  V30 25 H -1.84453 2.42845 0.66232 0
M  V30 26 H 0.581002 -0.586651 -2.08089 0
M  V30 27 H 2.10807 1.6605 -0.823126 0
M  V30 28 H 1.60275 2.34958 0.584601 0
M  V30 END ATOM
M  V30 BEGIN BOND
M  V30 1 1 1 2
M  V30 2 1 2 3
M  V30 3 1 3 4
M  V30 4 1 4 5
M  V30 5 2 5 6
M  V30 6 1 6 7
M  V30 7 2 7 8
M  V30 8 1 8 9
M  V30 9 2 9 10
M  V30 10 1 10 11
M  V30 11 1 4 12
M  V30 12 1 3 13
M  V30 13 1 10 5
M  V30 14 1 1 14
M  V30 15 1 1 15
M  V30 16 1 1 16
M  V30 17 1 2 17
M  V30 18 1 2 18
M  V30 19 1 3 19
M  V30 20 1 4 20
M  V30 21 1 6 21
M  V30 22 1 8 22
M  V30 23 1 9 23
M  V30 24 1 11 24
M  V30 25 1 11 25
M  V30 26 1 12 26
M  V30 27 1 13 27
M  V30 28 1 13 28
M  V30 END BOND
M  V30 END CTAB
M  END
