
     RDKit          3D

  0  0  0  0  0  0  0  0  0  0999 V3000
M  V30 BEGIN CTAB
M  V30 COUNTS 20 19 0 0 0
M  V30 BEGIN ATOM
M  V30 1 O 3.48281 0.448925 -0.480897 0
M  V30 2 C 3.10216 -0.373419 0.557181 0
M  V30 3 C 1.68698 -0.769013 0.361728 0
M  V30 4 C 0.995359 -0.349501 -0.667389 0
M  V30 5 C -0.419727 -0.710445 -0.915566 0
M  V30 6 N -1.28369 0.442595 -0.9593 0
M  V30 7 C -2.22606 0.582285 -0.0926771 0
M  V30 8 N -3.03696 1.73573 -0.191974 0
M  V30 9 N -2.4504 -0.381958 0.929403 0
M  V30 10 H 3.53452 1.4072 -0.230296 0
M  V30 11 H 3.25543 0.158404 1.53288 0
M  V30 12 H 3.69687 -1.30876 0.615768 0
M  V30 13 H 1.19305 -1.42963 1.08955 0
M  V30 14 H 1.47132 0.308842 -1.4019 0
M  V30 15 H -0.486449 -1.29464 -1.86511 0
M  V30 16 H -0.742458 -1.34757 -0.0684824 0
M  V30 17 H -2.67531 2.67449 -0.425142 0
M  V30 18 H -4.06167 1.62665 -0.0183375 0
M  V30 19 H -2.84073 -1.32313 0.769209 0
M  V30 20 H -2.19504 -0.0970586 1.90491 0
M  V30 END ATOM
M  V30 BEGIN BOND
M  V30 1 1 1 2
M  V30 2 1 2 3
M  V30 3 2 3 4 CFG=2
M  V30 4 1 4 5
M  V30 5 1 5 6
M  V30 6 2 6 7 CFG=2
M  V30 7 1 7 8
M  V30 8 1 7 9
M  V30 9 1 1 10
M  V30 10 1 2 11
M  V30 11 1 2 12
M  V30 12 1 3 13
M  V30 13 1 4 14
M  V30 14 1 5 15
M  V30 15 1 5 16
M  V30 16 1 8 17
M  V30 17 1 8 18
M  V30 18 1 9 19
M  V30 19 1 9 20
M  V30 END BOND
M  V30 END CTAB
M  END
