
     RDKit          3D

  0  0  0  0  0  0  0  0  0  0999 V3000
M  V30 BEGIN CTAB
M  V30 COUNTS 25 26 0 0 0
M  V30 BEGIN ATOM
M  V30 1 N 2.22112 -0.191995 1.48921 0
M  V30 2 N 1.93064 0.0342832 0.14249 0
M  V30 3 C 2.87038 0.230836 -0.828855 0
M  V30 4 N 4.26636 0.233736 -0.612833 0
M  V30 5 N 2.17646 0.408669 -1.96506 0
M  V30 6 N 0.87247 0.322939 -1.69041 0
M  V30 7 C 0.710582 0.0892716 -0.376414 0
M  V30 8 C -0.571379 -0.0689404 0.317953 0
M  V30 9 C -1.41459 -1.18826 -0.27311 0
M  V30 10 C -2.80052 -0.927714 0.326423 0
M  V30 11 C -3.20123 0.44737 -0.222707 0
M  V30 12 S -1.65003 1.33193 -0.00117155 0
M  V30 13 O -1.74233 2.19149 1.20241 0
M  V30 14 O -1.25522 2.06806 -1.222 0
M  V30 15 H 2.0889 -1.14367 1.89256 0
M  V30 16 H 2.56972 0.551218 2.12745 0
M  V30 17 H 4.8087 -0.633341 -0.74852 0
M  V30 18 H 4.72974 1.1052 -0.320928 0
M  V30 19 H -0.455089 -0.251945 1.38698 0
M  V30 20 H -1.09318 -2.16277 0.139526 0
M  V30 21 H -1.42741 -1.18508 -1.36447 0
M  V30 22 H -3.50961 -1.70749 0.0533429 0
M  V30 23 H -2.66883 -0.783314 1.41891 0
M  V30 24 H -3.99267 0.866797 0.413752 0
M  V30 25 H -3.46296 0.362723 -1.28454 0
M  V30 END ATOM
M  V30 BEGIN BOND
M  V30 1 1 1 2
M  V30 2 1 2 3
M  V30 3 1 3 4
M  V30 4 2 3 5
M  V30 5 1 5 6
M  V30 6 2 6 7
M  V30 7 1 7 8
M  V30 8 1 8 9
M  V30 9 1 9 10
M  V30 10 1 10 11
M  V30 11 1 11 12
M  V30 12 2 12 13
M  V30 13 2 12 14
M  V30 14 1 7 2
M  V30 15 1 12 8
M  V30 16 1 1 15
M  V30 17 1 1 16
M  V30 18 1 4 17
M  V30 19 1 4 18
M  V30 20 1 8 19
M  V30 21 1 9 20
M  V30 22 1 9 21
M  V30 23 1 10 22
M  V30 24 1 10 23
M  V30 25 1 11 24
M  V30 26 1 11 25
M  V30 END BOND
M  V30 END CTAB
M  END
