
     RDKit          3D

  0  0  0  0  0  0  0  0  0  0999 V3000
M  V30 BEGIN CTAB
M  V30 COUNTS 80 85 0 0 0
M  V30 BEGIN ATOM
M  V30 1 C 3.68897 -2.44767 1.21629 0
M  V30 2 C 3.1294 -1.06464 1.04751 0
M  V30 3 C 3.93582 0.0518924 1.11317 0
M  V30 4 C 3.38772 1.31147 0.953519 0
M  V30 5 C 2.0374 1.48271 0.727176 0
M  V30 6 C 1.20622 0.371831 0.657204 0
M  V30 7 C 1.77154 -0.875939 0.819022 0
M  V30 8 C -0.233807 0.517887 0.417634 0
M  V30 9 C -0.98756 -0.412125 -0.249596 0
M  V30 10 C -2.35875 -0.216927 -0.448103 0
M  V30 11 C -3.12088 -1.2754 -1.18656 0
M  V30 12 C -2.98966 0.915822 0.0216975 0
M  V30 13 C -2.22284 1.86648 0.702969 0
M  V30 14 C -0.862292 1.65142 0.888412 0
M  V30 15 N -4.36407 1.06864 -0.201059 0
M  V30 16 N -5.30354 0.430682 0.314622 0
M  V30 17 C -6.68114 0.670358 0.0135997 0
M  V30 18 C -7.18432 1.94851 -0.108839 0
M  V30 19 N -6.27125 3.02028 0.0780134 0
M  V30 20 C -8.49926 2.21613 -0.396772 0
M  V30 21 C -9.3522 1.13863 -0.570443 0
M  V30 22 C -8.90176 -0.165122 -0.459161 0
M  V30 23 C -9.78946 -1.2053 -0.640911 0
M  V30 24 C -9.31616 -2.49403 -0.524956 0
M  V30 25 C -7.97188 -2.71456 -0.23114 0
M  V30 26 C -7.09842 -1.66158 -0.0526192 0
M  V30 27 C -7.55296 -0.382958 -0.164423 0
M  V30 28 S -10.4101 -3.84018 -0.748564 0
M  V30 29 O -11.1074 -4.26689 0.731374 0
M  V30 30 O -11.5197 -3.45322 -1.71026 0
M  V30 31 O -9.62034 -4.99892 -1.29616 0
M  V30 32 S -9.06041 3.87923 -0.53616 0
M  V30 33 O -8.7692 4.61666 0.939474 0
M  V30 34 O -8.15489 4.54983 -1.54827 0
M  V30 35 O -10.4844 3.9193 -0.942479 0
M  V30 36 N 5.31778 -0.0597634 1.34064 0
M  V30 37 N 6.14837 -0.608615 0.565954 0
M  V30 38 C 7.5215 -0.620648 0.979185 0
M  V30 39 C 7.83593 -1.14301 2.19406 0
M  V30 40 N 6.90379 -1.68731 3.10477 0
M  V30 41 C 9.17996 -1.14513 2.5777 0
M  V30 42 C 10.1239 -0.622755 1.71775 0
M  V30 43 C 9.79605 -0.0944281 0.486297 0
M  V30 44 C 10.7515 0.432258 -0.379832 0
M  V30 45 C 10.4212 0.959773 -1.61057 0
M  V30 46 C 9.09399 0.956092 -1.97695 0
M  V30 47 C 8.12745 0.429328 -1.11376 0
M  V30 48 C 8.46653 -0.0968977 0.116607 0
M  V30 49 S 11.6826 1.60875 -2.65399 0
M  V30 50 O 12.2499 0.348327 -3.63927 0
M  V30 51 O 11.1764 2.7493 -3.48467 0
M  V30 52 O 12.827 2.01163 -1.76798 0
M  V30 53 H 3.90455 -2.58335 2.28542 0
M  V30 54 H 4.53895 -2.64075 0.555332 0
M  V30 55 H 2.89086 -3.16307 0.947881 0
M  V30 56 H 4.06057 2.17732 1.01246 0
M  V30 57 H 1.59953 2.45348 0.601631 0
M  V30 58 H 1.15865 -1.76406 0.77154 0
M  V30 59 H -0.478548 -1.30054 -0.615096 0
M  V30 60 H -2.46061 -1.79558 -1.89068 0
M  V30 61 H -3.51855 -1.98032 -0.409362 0
M  V30 62 H -3.94682 -0.742168 -1.71467 0
M  V30 63 H -2.72696 2.74987 1.06672 0
M  V30 64 H -0.279935 2.40477 1.42257 0
M  V30 65 H -6.22018 3.47636 1.02427 0
M  V30 66 H -5.66679 3.35343 -0.687908 0
M  V30 67 H -10.4079 1.32811 -0.801373 0
M  V30 68 H -10.8438 -1.00663 -0.871546 0
M  V30 69 H -7.61907 -3.7269 -0.144151 0
M  V30 70 H -6.04528 -1.81112 0.177365 0
M  V30 71 H -10.3886 -4.67286 1.28372 0
M  V30 72 H -8.48495 5.57165 0.809658 0
M  V30 73 H 6.45525 -1.06862 3.80081 0
M  V30 74 H 6.66555 -2.69255 3.08398 0
M  V30 75 H 9.47859 -1.55801 3.5518 0
M  V30 76 H 11.1883 -0.601099 1.97192 0
M  V30 77 H 11.803 0.431735 -0.0826292 0
M  V30 78 H 8.82381 1.36989 -2.94507 0
M  V30 79 H 7.08642 0.421099 -1.39018 0
M  V30 80 H 12.8414 -0.199291 -3.05156 0
M  V30 END ATOM
M  V30 BEGIN BOND
M  V30 1 1 1 2
M  V30 2 2 2 3
M  V30 3 1 3 4
M  V30 4 2 4 5
M  V30 5 1 5 6
M  V30 6 2 6 7
M  V30 7 1 6 8
M  V30 8 2 8 9
M  V30 9 1 9 10
M  V30 10 1 10 11
M  V30 11 2 10 12
M  V30 12 1 12 13
M  V30 13 2 13 14
M  V30 14 1 12 15
M  V30 15 2 15 16
M  V30 16 1 16 17
M  V30 17 2 17 18
M  V30 18 1 18 19
M  V30 19 1 18 20
M  V30 20 2 20 21
M  V30 21 1 21 22
M  V30 22 2 22 23
M  V30 23 1 23 24
M  V30 24 2 24 25
M  V30 25 1 25 26
M  V30 26 2 26 27
M  V30 27 1 24 28
M  V30 28 1 28 29
M  V30 29 2 28 30
M  V30 30 2 28 31
M  V30 31 1 20 32
M  V30 32 1 32 33
M  V30 33 2 32 34
M  V30 34 2 32 35
M  V30 35 1 3 36
M  V30 36 2 36 37
M  V30 37 1 37 38
M  V30 38 2 38 39
M  V30 39 1 39 40
M  V30 40 1 39 41
M  V30 41 2 41 42
M  V30 42 1 42 43
M  V30 43 2 43 44
M  V30 44 1 44 45
M  V30 45 2 45 46
M  V30 46 1 46 47
M  V30 47 2 47 48
M  V30 48 1 45 49
M  V30 49 1 49 50
M  V30 50 2 49 51
M  V30 51 2 49 52
M  V30 52 1 7 2
M  V30 53 1 14 8
M  V30 54 1 27 17
M  V30 55 1 48 38
M  V30 56 1 27 22
M  V30 57 1 48 43
M  V30 58 1 1 53
M  V30 59 1 1 54
M  V30 60 1 1 55
M  V30 61 1 4 56
M  V30 62 1 5 57
M  V30 63 1 7 58
M  V30 64 1 9 59
M  V30 65 1 11 60
M  V30 66 1 11 61
M  V30 67 1 11 62
M  V30 68 1 13 63
M  V30 69 1 14 64
M  V30 70 1 19 65
M  V30 71 1 19 66
M  V30 72 1 21 67
M  V30 73 1 23 68
M  V30 74 1 25 69
M  V30 75 1 26 70
M  V30 76 1 29 71
M  V30 77 1 33 72
M  V30 78 1 40 73
M  V30 79 1 40 74
M  V30 80 1 41 75
M  V30 81 1 42 76
M  V30 82 1 44 77
M  V30 83 1 46 78
M  V30 84 1 47 79
M  V30 85 1 50 80
M  V30 END BOND
M  V30 END CTAB
M  END
