
     RDKit          3D

  0  0  0  0  0  0  0  0  0  0999 V3000
M  V30 BEGIN CTAB
M  V30 COUNTS 43 42 0 0 0
M  V30 BEGIN ATOM
M  V30 1 C -5.74522 -0.19166 1.69253 0
M  V30 2 C -4.86578 -0.0726666 0.482221 0
M  V30 3 C -3.40753 0.100051 0.899727 0
M  V30 4 C -2.55316 0.21654 -0.361661 0
M  V30 5 C -1.13256 0.385731 -0.042207 0
M  V30 6 O -0.762289 0.418567 1.15646 0
M  V30 7 N -0.180485 0.511568 -1.06086 0
M  V30 8 C 1.25657 0.682734 -0.736271 0
M  V30 9 C 1.85615 -0.671089 -0.653964 0
M  V30 10 C 3.29821 -0.795907 -0.377322 0
M  V30 11 C 3.83544 -0.234779 0.89211 0
M  V30 12 C 5.35133 -0.57084 0.863857 0
M  V30 13 C 3.83597 1.29657 0.938678 0
M  V30 14 N 3.58636 -2.24731 -0.326418 0
M  V30 15 C -0.533366 0.482524 -2.46227 0
M  V30 16 N -5.29027 1.0426 -0.359566 0
M  V30 17 H -6.25013 -1.17809 1.70929 0
M  V30 18 H -6.56822 0.572819 1.66105 0
M  V30 19 H -5.18016 -0.102147 2.64579 0
M  V30 20 H -4.97069 -0.986571 -0.137314 0
M  V30 21 H -3.26937 0.976035 1.53118 0
M  V30 22 H -3.11024 -0.829156 1.42442 0
M  V30 23 H -2.91951 1.05246 -1.00099 0
M  V30 24 H -2.65351 -0.733443 -0.950845 0
M  V30 25 H 1.33147 1.17538 0.260298 0
M  V30 26 H 1.66735 1.33616 -1.49661 0
M  V30 27 H 1.31438 -1.32721 0.0923738 0
M  V30 28 H 1.67254 -1.22981 -1.62858 0
M  V30 29 H 3.89731 -0.429509 -1.25143 0
M  V30 30 H 3.41976 -0.693173 1.78665 0
M  V30 31 H 5.65881 -0.288437 -0.179886 0
M  V30 32 H 5.51823 -1.63741 1.00786 0
M  V30 33 H 5.84991 0.0943686 1.56846 0
M  V30 34 H 4.82003 1.71238 1.24167 0
M  V30 35 H 3.62457 1.7362 -0.0506347 0
M  V30 36 H 3.13101 1.63389 1.73834 0
M  V30 37 H 2.97064 -2.75881 -1.00714 0
M  V30 38 H 3.2893 -2.54149 0.630812 0
M  V30 39 H 0.341148 0.500927 -3.11242 0
M  V30 40 H -1.24585 1.32148 -2.69444 0
M  V30 41 H -1.03229 -0.510732 -2.63388 0
M  V30 42 H -4.90823 1.95022 -0.00035986 0
M  V30 43 H -4.94762 0.831049 -1.32416 0
M  V30 END ATOM
M  V30 BEGIN BOND
M  V30 1 1 1 2
M  V30 2 1 2 3
M  V30 3 1 3 4
M  V30 4 1 4 5
M  V30 5 2 5 6
M  V30 6 1 5 7
M  V30 7 1 7 8
M  V30 8 1 8 9
M  V30 9 1 9 10
M  V30 10 1 10 11
M  V30 11 1 11 12
M  V30 12 1 11 13
M  V30 13 1 10 14
M  V30 14 1 7 15
M  V30 15 1 2 16
M  V30 16 1 1 17
M  V30 17 1 1 18
M  V30 18 1 1 19
M  V30 19 1 2 20
M  V30 20 1 3 21
M  V30 21 1 3 22
M  V30 22 1 4 23
M  V30 23 1 4 24
M  V30 24 1 8 25
M  V30 25 1 8 26
M  V30 26 1 9 27
M  V30 27 1 9 28
M  V30 28 1 10 29
M  V30 29 1 11 30
M  V30 30 1 12 31
M  V30 31 1 12 32
M  V30 32 1 12 33
M  V30 33 1 13 34
M  V30 34 1 13 35
M  V30 35 1 13 36
M  V30 36 1 14 37
M  V30 37 1 14 38
M  V30 38 1 15 39
M  V30 39 1 15 40
M  V30 40 1 15 41
M  V30 41 1 16 42
M  V30 42 1 16 43
M  V30 END BOND
M  V30 END CTAB
M  END
