
     RDKit          3D

  0  0  0  0  0  0  0  0  0  0999 V3000
M  V30 BEGIN CTAB
M  V30 COUNTS 34 35 0 0 0
M  V30 BEGIN ATOM
M  V30 1 C 4.7718 0.915005 0.910243 0
M  V30 2 C 3.98962 1.29477 -0.343247 0
M  V30 3 N 2.7909 0.48172 -0.472243 0
M  V30 4 N 2.65064 -0.678098 -1.09132 0
M  V30 5 C 1.37412 -1.11922 -0.987727 0
M  V30 6 C 0.680883 -0.175451 -0.260169 0
M  V30 7 C 1.60949 0.802292 0.0370948 0
M  V30 8 C -0.719286 -0.15032 0.142254 0
M  V30 9 C -1.68536 0.428464 -0.658188 0
M  V30 10 C -1.25746 1.00909 -1.91089 0
M  V30 11 N -0.930094 1.48511 -2.92142 0
M  V30 12 C -3.02045 0.463135 -0.29499 0
M  V30 13 N -4.00028 1.06418 -1.13376 0
M  V30 14 N -3.4405 -0.0703773 0.864713 0
M  V30 15 C -2.50826 -0.635731 1.65025 0
M  V30 16 O -2.90986 -1.13351 2.7354 0
M  V30 17 C -1.16773 -0.693274 1.32923 0
M  V30 18 C -0.193773 -1.30718 2.19457 0
M  V30 19 N 0.605205 -1.78679 2.89403 0
M  V30 20 N -4.79923 -0.0408291 1.24536 0
M  V30 21 C 0.810896 -2.35686 -1.53372 0
M  V30 22 H 4.31913 0.000546855 1.38467 0
M  V30 23 H 4.76422 1.78245 1.61572 0
M  V30 24 H 5.80553 0.660793 0.660073 0
M  V30 25 H 4.64237 1.12537 -1.23771 0
M  V30 26 H 3.74738 2.36665 -0.317734 0
M  V30 27 H 1.40438 1.71843 0.613669 0
M  V30 28 H -4.67996 1.75774 -0.709584 0
M  V30 29 H -4.10197 0.87414 -2.13881 0
M  V30 30 H -5.11168 0.406645 2.14909 0
M  V30 31 H -5.55579 -0.454926 0.659879 0
M  V30 32 H -0.277675 -2.36106 -1.47034 0
M  V30 33 H 1.13655 -2.45394 -2.60983 0
M  V30 34 H 1.25624 -3.21898 -0.994566 0
M  V30 END ATOM
M  V30 BEGIN BOND
M  V30 1 1 1 2
M  V30 2 1 2 3
M  V30 3 1 3 4
M  V30 4 2 4 5
M  V30 5 1 5 6
M  V30 6 2 6 7
M  V30 7 1 6 8
M  V30 8 1 8 9
M  V30 9 1 9 10
M  V30 10 3 10 11
M  V30 11 2 9 12
M  V30 12 1 12 13
M  V30 13 1 12 14
M  V30 14 1 14 15
M  V30 15 2 15 16
M  V30 16 1 15 17
M  V30 17 1 17 18
M  V30 18 3 18 19
M  V30 19 1 14 20
M  V30 20 1 5 21
M  V30 21 1 7 3
M  V30 22 2 17 8
M  V30 23 1 1 22
M  V30 24 1 1 23
M  V30 25 1 1 24
M  V30 26 1 2 25
M  V30 27 1 2 26
M  V30 28 1 7 27
M  V30 29 1 13 28
M  V30 30 1 13 29
M  V30 31 1 20 30
M  V30 32 1 20 31
M  V30 33 1 21 32
M  V30 34 1 21 33
M  V30 35 1 21 34
M  V30 END BOND
M  V30 END CTAB
M  END
