
     RDKit          3D

  0  0  0  0  0  0  0  0  0  0999 V3000
M  V30 BEGIN CTAB
M  V30 COUNTS 63 65 0 0 0
M  V30 BEGIN ATOM
M  V30 1 N 7.18669 -0.2657 -2.31882 0
M  V30 2 C 6.10012 0.303744 -1.60656 0
M  V30 3 C 6.53553 0.800517 -0.26943 0
M  V30 4 C 5.39799 1.42183 0.488885 0
M  V30 5 C 4.3184 0.417975 0.706037 0
M  V30 6 C 3.14663 1.0001 1.48616 0 CFG=1
M  V30 7 C 2.12805 -0.0699545 1.65046 0
M  V30 8 O 2.06146 -0.596063 2.80869 0
M  V30 9 N 1.26901 -0.503713 0.614298 0
M  V30 10 C 0.335675 -1.57777 0.926687 0
M  V30 11 C -0.436974 -1.85172 -0.341203 0
M  V30 12 C -1.10369 -0.588254 -0.873352 0
M  V30 13 C -0.0199136 0.395518 -1.27594 0
M  V30 14 C 1.32071 0.10298 -0.663476 0
M  V30 15 O -1.72426 -0.983045 -2.06136 0
M  V30 16 C -2.33782 0.167205 -2.56387 0
M  V30 17 C -3.68569 0.176108 -1.82637 0 CFG=2
M  V30 18 C -3.41242 0.362907 -0.382672 0 CFG=2
M  V30 19 C -2.06178 -0.00349917 0.124254 0
M  V30 20 N -4.52165 -0.029424 0.479975 0
M  V30 21 C -5.45109 0.861717 0.921928 0
M  V30 22 C -6.50622 0.553776 1.72627 0
M  V30 23 C -6.6563 -0.751439 2.12998 0
M  V30 24 O -7.62192 -1.05603 2.87134 0
M  V30 25 N -5.75239 -1.64712 1.70681 0
M  V30 26 C -4.72871 -1.28584 0.912075 0
M  V30 27 O -3.94514 -2.19779 0.576174 0
M  V30 28 C -4.40221 -1.04673 -2.25225 0
M  V30 29 O -4.38478 1.26417 -2.40734 0
M  V30 30 N 3.69632 1.37997 2.78525 0
M  V30 31 H 6.94019 -0.889289 -3.02528 0
M  V30 32 H 8.04898 -0.289457 -1.88968 0
M  V30 33 H 5.68506 1.13068 -2.19161 0
M  V30 34 H 5.38241 -0.555914 -1.47765 0
M  V30 35 H 7.40425 1.51551 -0.34595 0
M  V30 36 H 6.8626 -0.0948999 0.321148 0
M  V30 37 H 5.04701 2.29117 -0.115162 0
M  V30 38 H 5.81251 1.82446 1.45077 0
M  V30 39 H 3.94918 0.0469186 -0.242378 0
M  V30 40 H 4.73071 -0.399633 1.33366 0
M  V30 41 H 2.7465 1.90348 1.01858 0
M  V30 42 H -0.277161 -1.28178 1.77536 0
M  V30 43 H 0.858949 -2.51003 1.19508 0
M  V30 44 H -1.17659 -2.6477 -0.183315 0
M  V30 45 H 0.287096 -2.19124 -1.10539 0
M  V30 46 H 0.125428 0.45317 -2.36949 0
M  V30 47 H -0.365533 1.39858 -0.940505 0
M  V30 48 H 1.94088 -0.511141 -1.38147 0
M  V30 49 H 1.83811 1.07931 -0.585835 0
M  V30 50 H -2.56773 0.0175032 -3.65307 0
M  V30 51 H -1.81015 1.09352 -2.35066 0
M  V30 52 H -3.42908 1.50552 -0.291866 0
M  V30 53 H -1.49215 0.873503 0.576542 0
M  V30 54 H -2.07685 -0.702132 1.01481 0
M  V30 55 H -5.33892 1.90801 0.603936 0
M  V30 56 H -7.19992 1.34036 2.02834 0
M  V30 57 H -5.87863 -2.63346 2.02078 0
M  V30 58 H -3.76254 -1.968 -2.30119 0
M  V30 59 H -5.3732 -1.22816 -1.74683 0
M  V30 60 H -4.6891 -0.883006 -3.33666 0
M  V30 61 H -4.14184 2.11404 -1.97629 0
M  V30 62 H 3.04201 1.21794 3.56024 0
M  V30 63 H 4.1339 2.31777 2.75792 0
M  V30 END ATOM
M  V30 BEGIN BOND
M  V30 1 1 1 2
M  V30 2 1 2 3
M  V30 3 1 3 4
M  V30 4 1 4 5
M  V30 5 1 5 6
M  V30 6 1 6 7
M  V30 7 2 7 8
M  V30 8 1 7 9
M  V30 9 1 9 10
M  V30 10 1 10 11
M  V30 11 1 11 12
M  V30 12 1 12 13
M  V30 13 1 13 14
M  V30 14 1 12 15
M  V30 15 1 15 16
M  V30 16 1 16 17
M  V30 17 1 17 18
M  V30 18 1 18 19
M  V30 19 1 18 20
M  V30 20 1 20 21
M  V30 21 2 21 22
M  V30 22 1 22 23
M  V30 23 2 23 24
M  V30 24 1 23 25
M  V30 25 1 25 26
M  V30 26 2 26 27
M  V30 27 1 17 28
M  V30 28 1 17 29 CFG=3
M  V30 29 1 6 30
M  V30 30 1 14 9
M  V30 31 1 26 20
M  V30 32 1 19 12
M  V30 33 1 1 31
M  V30 34 1 1 32
M  V30 35 1 2 33
M  V30 36 1 2 34
M  V30 37 1 3 35
M  V30 38 1 3 36
M  V30 39 1 4 37
M  V30 40 1 4 38
M  V30 41 1 5 39
M  V30 42 1 5 40
M  V30 43 1 6 41 CFG=3
M  V30 44 1 10 42
M  V30 45 1 10 43
M  V30 46 1 11 44
M  V30 47 1 11 45
M  V30 48 1 13 46
M  V30 49 1 13 47
M  V30 50 1 14 48
M  V30 51 1 14 49
M  V30 52 1 16 50
M  V30 53 1 16 51
M  V30 54 1 18 52 CFG=3
M  V30 55 1 19 53
M  V30 56 1 19 54
M  V30 57 1 21 55
M  V30 58 1 22 56
M  V30 59 1 25 57
M  V30 60 1 28 58
M  V30 61 1 28 59
M  V30 62 1 28 60
M  V30 63 1 29 61
M  V30 64 1 30 62
M  V30 65 1 30 63
M  V30 END BOND
M  V30 END CTAB
M  END
