
     RDKit          3D

  0  0  0  0  0  0  0  0  0  0999 V3000
M  V30 BEGIN CTAB
M  V30 COUNTS 35 37 0 0 0
M  V30 BEGIN ATOM
M  V30 1 N 2.85617 -2.39626 -0.795531 0
M  V30 2 C 3.37834 -1.17119 -0.281904 0
M  V30 3 C 4.39944 -1.2691 0.672862 0
M  V30 4 C 4.97822 -0.126596 1.18292 0
M  V30 5 C 4.56432 1.11976 0.765023 0
M  V30 6 C 3.56886 1.21596 -0.162142 0
M  V30 7 C 2.96693 0.066161 -0.692643 0
M  V30 8 S 1.70556 0.259251 -1.93231 0
M  V30 9 C 0.131111 0.78474 -1.21387 0
M  V30 10 C -0.853932 -0.136054 -0.915903 0
M  V30 11 C -0.694596 -1.49305 -1.38805 0
M  V30 12 N -0.564659 -2.5892 -1.82537 0
M  V30 13 C -2.03689 0.204454 -0.310354 0
M  V30 14 C -3.02408 -0.737781 0.104016 0
M  V30 15 C -3.0949 -2.0525 0.361383 0
M  V30 16 C -4.38769 -2.35806 0.741879 0
M  V30 17 C -5.09802 -1.18323 0.709554 0
M  V30 18 O -4.27453 -0.277077 0.337368 0
M  V30 19 C -2.14856 1.57618 -0.0288435 0
M  V30 20 C -3.34892 2.05557 0.63325 0
M  V30 21 N -4.31818 2.48373 1.16584 0
M  V30 22 C -1.14857 2.48573 -0.340437 0
M  V30 23 N -1.40066 3.86379 0.00334333 0
M  V30 24 N -0.0238258 2.09822 -0.923508 0
M  V30 25 H 2.82623 -3.27408 -0.243484 0
M  V30 26 H 2.49291 -2.40212 -1.76319 0
M  V30 27 H 4.69733 -2.26291 0.977285 0
M  V30 28 H 5.77456 -0.234269 1.92367 0
M  V30 29 H 5.05842 1.98891 1.18916 0
M  V30 30 H 3.2262 2.17488 -0.505176 0
M  V30 31 H -2.30972 -2.73939 0.322732 0
M  V30 32 H -4.75937 -3.3439 1.019 0
M  V30 33 H -6.15278 -1.01656 0.947264 0
M  V30 34 H -1.67284 4.07494 0.98032 0
M  V30 35 H -1.31189 4.61109 -0.71414 0
M  V30 END ATOM
M  V30 BEGIN BOND
M  V30 1 1 1 2
M  V30 2 2 2 3
M  V30 3 1 3 4
M  V30 4 2 4 5
M  V30 5 1 5 6
M  V30 6 2 6 7
M  V30 7 1 7 8
M  V30 8 1 8 9
M  V30 9 2 9 10
M  V30 10 1 10 11
M  V30 11 3 11 12
M  V30 12 1 10 13
M  V30 13 1 13 14
M  V30 14 2 14 15
M  V30 15 1 15 16
M  V30 16 2 16 17
M  V30 17 1 17 18
M  V30 18 2 13 19
M  V30 19 1 19 20
M  V30 20 3 20 21
M  V30 21 1 19 22
M  V30 22 1 22 23
M  V30 23 2 22 24
M  V30 24 1 7 2
M  V30 25 1 24 9
M  V30 26 1 18 14
M  V30 27 1 1 25
M  V30 28 1 1 26
M  V30 29 1 3 27
M  V30 30 1 4 28
M  V30 31 1 5 29
M  V30 32 1 6 30
M  V30 33 1 15 31
M  V30 34 1 16 32
M  V30 35 1 17 33
M  V30 36 1 23 34
M  V30 37 1 23 35
M  V30 END BOND
M  V30 END CTAB
M  END
