
     RDKit          3D

  0  0  0  0  0  0  0  0  0  0999 V3000
M  V30 BEGIN CTAB
M  V30 COUNTS 37 38 0 0 0
M  V30 BEGIN ATOM
M  V30 1 O -0.928105 1.65058 0.782268 0
M  V30 2 C -0.700457 0.512805 0.354721 0
M  V30 3 N -1.71243 -0.380607 -0.000713143 0
M  V30 4 C -3.10781 -0.211273 0.040484 0
M  V30 5 C -3.77052 0.909491 0.461673 0
M  V30 6 C -5.15162 1.05359 0.495712 0
M  V30 7 C -5.90386 -0.0152656 0.0725631 0
M  V30 8 C -5.27364 -1.16184 -0.359094 0
M  V30 9 C -3.91605 -1.26841 -0.379107 0
M  V30 10 C -3.30441 -2.5344 -0.85745 0
M  V30 11 N -5.75152 2.2682 0.953988 0 CHG=1
M  V30 12 O -6.97855 2.4265 0.995855 0
M  V30 13 O -4.93652 3.28469 1.35799 0 CHG=-1
M  V30 14 C 0.748332 0.152704 0.242193 0
M  V30 15 S 1.8308 1.47244 0.760274 0
M  V30 16 C 3.52184 0.910132 0.575016 0
M  V30 17 N 3.81351 -0.336002 0.107478 0
M  V30 18 C 5.07619 -0.759123 -0.0320826 0
M  V30 19 N 5.38556 -2.04734 -0.515286 0
M  V30 20 C 6.11082 0.0812639 0.303533 0
M  V30 21 C 5.83801 1.36469 0.785523 0
M  V30 22 N 4.554 1.70724 0.894186 0
M  V30 23 N 6.92185 2.193 1.11737 0
M  V30 24 H -1.36614 -1.33493 -0.355786 0
M  V30 25 H -3.21677 1.76822 0.801038 0
M  V30 26 H -6.97684 0.0683956 0.0881526 0
M  V30 27 H -5.87029 -2.02664 -0.700963 0
M  V30 28 H -2.90202 -3.15234 -0.0145783 0
M  V30 29 H -4.09698 -3.13874 -1.33399 0
M  V30 30 H -2.54912 -2.3608 -1.64963 0
M  V30 31 H 0.962251 -0.818494 0.734079 0
M  V30 32 H 0.916142 -0.0198537 -0.861482 0
M  V30 33 H 6.0886 -2.66161 -0.0581372 0
M  V30 34 H 4.86617 -2.3765 -1.37941 0
M  V30 35 H 7.13904 -0.219189 0.206607 0
M  V30 36 H 7.59804 2.51264 0.390647 0
M  V30 37 H 7.04251 2.48678 2.10905 0
M  V30 END ATOM
M  V30 BEGIN BOND
M  V30 1 2 1 2
M  V30 2 1 2 3
M  V30 3 1 3 4
M  V30 4 2 4 5
M  V30 5 1 5 6
M  V30 6 2 6 7
M  V30 7 1 7 8
M  V30 8 2 8 9
M  V30 9 1 9 10
M  V30 10 1 6 11
M  V30 11 2 11 12
M  V30 12 1 11 13
M  V30 13 1 2 14
M  V30 14 1 14 15
M  V30 15 1 15 16
M  V30 16 2 16 17
M  V30 17 1 17 18
M  V30 18 1 18 19
M  V30 19 2 18 20
M  V30 20 1 20 21
M  V30 21 2 21 22
M  V30 22 1 21 23
M  V30 23 1 9 4
M  V30 24 1 22 16
M  V30 25 1 3 24
M  V30 26 1 5 25
M  V30 27 1 7 26
M  V30 28 1 8 27
M  V30 29 1 10 28
M  V30 30 1 10 29
M  V30 31 1 10 30
M  V30 32 1 14 31
M  V30 33 1 14 32
M  V30 34 1 19 33
M  V30 35 1 19 34
M  V30 36 1 20 35
M  V30 37 1 23 36
M  V30 38 1 23 37
M  V30 END BOND
M  V30 END CTAB
M  END
