
     RDKit          3D

  0  0  0  0  0  0  0  0  0  0999 V3000
M  V30 BEGIN CTAB
M  V30 COUNTS 29 30 0 0 0
M  V30 BEGIN ATOM
M  V30 1 O 5.62729 1.48964 -1.01697 0
M  V30 2 C 4.94522 0.325629 -1.27725 0
M  V30 3 O 5.48744 -0.501354 -2.05538 0
M  V30 4 C 3.63579 0.0267134 -0.688744 0
M  V30 5 C 3.02901 0.915855 0.161717 0
M  V30 6 C 1.77971 0.62407 0.719503 0
M  V30 7 N 1.22016 1.58952 1.58553 0
M  V30 8 C 1.13497 -0.56393 0.424128 0
M  V30 9 C 1.77893 -1.42737 -0.433356 0
M  V30 10 C 3.0097 -1.15438 -0.991002 0
M  V30 11 Cl 1.02175 -2.94644 -0.849974 0
M  V30 12 S -0.459041 -0.925869 1.14172 0
M  V30 13 C -1.78913 -0.321209 0.11479 0
M  V30 14 N -1.74971 0.327026 -1.04913 0
M  V30 15 N -3.00258 0.567385 -1.42627 0
M  V30 16 C -3.85459 0.0757115 -0.508156 0
M  V30 17 N -3.08429 -0.474414 0.445086 0
M  V30 18 N -3.6138 -1.09965 1.5888 0
M  V30 19 C -5.3597 0.133739 -0.547598 0
M  V30 20 H 5.95724 1.76744 -0.101721 0
M  V30 21 H 3.54534 1.84979 0.3884 0
M  V30 22 H 1.15742 2.5805 1.29788 0
M  V30 23 H 0.873589 1.29075 2.51283 0
M  V30 24 H 3.50832 -1.85018 -1.6703 0
M  V30 25 H -3.80179 -2.12653 1.54655 0
M  V30 26 H -3.81749 -0.544942 2.47167 0
M  V30 27 H -5.73277 -0.725571 0.0726416 0
M  V30 28 H -5.75017 0.025574 -1.56344 0
M  V30 29 H -5.69681 1.0725 -0.0374313 0
M  V30 END ATOM
M  V30 BEGIN BOND
M  V30 1 1 1 2
M  V30 2 2 2 3
M  V30 3 1 2 4
M  V30 4 2 4 5
M  V30 5 1 5 6
M  V30 6 1 6 7
M  V30 7 2 6 8
M  V30 8 1 8 9
M  V30 9 2 9 10
M  V30 10 1 9 11
M  V30 11 1 8 12
M  V30 12 1 12 13
M  V30 13 2 13 14
M  V30 14 1 14 15
M  V30 15 2 15 16
M  V30 16 1 16 17
M  V30 17 1 17 18
M  V30 18 1 16 19
M  V30 19 1 10 4
M  V30 20 1 17 13
M  V30 21 1 1 20
M  V30 22 1 5 21
M  V30 23 1 7 22
M  V30 24 1 7 23
M  V30 25 1 10 24
M  V30 26 1 18 25
M  V30 27 1 18 26
M  V30 28 1 19 27
M  V30 29 1 19 28
M  V30 30 1 19 29
M  V30 END BOND
M  V30 END CTAB
M  END
