
     RDKit          3D

  0  0  0  0  0  0  0  0  0  0999 V3000
M  V30 BEGIN CTAB
M  V30 COUNTS 42 44 0 0 0
M  V30 BEGIN ATOM
M  V30 1 O 0.130163 -0.563658 0.54975 0
M  V30 2 C 0.7244 -0.0802228 -0.420938 0
M  V30 3 O 2.12471 -0.0167053 -0.299846 0
M  V30 4 C 2.81251 -0.468518 0.853562 0
M  V30 5 C 4.27549 -0.246526 0.576317 0
M  V30 6 N 5.11084 -1.29288 0.464104 0
M  V30 7 C 6.43503 -1.08768 0.198732 0
M  V30 8 N 7.22973 -2.25277 0.102215 0
M  V30 9 N 6.8742 0.17151 0.0548091 0
M  V30 10 C 6.06107 1.2352 0.16218 0
M  V30 11 N 4.74688 0.9981 0.427488 0
M  V30 12 N 6.54134 2.57451 0.00195944 0
M  V30 13 C 0.0296202 0.397724 -1.6233 0
M  V30 14 C -1.45329 0.299264 -1.49652 0
M  V30 15 C -2.03208 1.14765 -0.421758 0
M  V30 16 C -3.51183 1.00209 -0.330409 0
M  V30 17 C -4.4507 1.89706 -0.762016 0
M  V30 18 N -5.66724 1.41046 -0.503517 0
M  V30 19 C -5.5584 0.215861 0.0885254 0
M  V30 20 C -4.22717 -0.0594085 0.206891 0
M  V30 21 C -3.80455 -1.22184 0.777027 0
M  V30 22 C -4.7157 -2.1331 1.24044 0
M  V30 23 C -6.05815 -1.84657 1.11603 0
M  V30 24 C -6.50758 -0.673082 0.541034 0
M  V30 25 H 2.50315 0.0619715 1.77718 0
M  V30 26 H 2.59151 -1.54703 0.94475 0
M  V30 27 H 7.01568 -2.98975 -0.584953 0
M  V30 28 H 8.04155 -2.36003 0.738048 0
M  V30 29 H 7.54671 2.78477 0.156202 0
M  V30 30 H 5.89725 3.31854 -0.262961 0
M  V30 31 H 0.368111 1.43639 -1.87071 0
M  V30 32 H 0.315505 -0.244703 -2.50531 0
M  V30 33 H -1.96482 0.524926 -2.46819 0
M  V30 34 H -1.66962 -0.800563 -1.3082 0
M  V30 35 H -1.61081 0.955262 0.570182 0
M  V30 36 H -1.82682 2.23098 -0.690082 0
M  V30 37 H -4.21707 2.83406 -1.2297 0
M  V30 38 H -6.5938 1.87306 -0.720157 0
M  V30 39 H -2.73506 -1.39721 0.849038 0
M  V30 40 H -4.38659 -3.04861 1.69014 0
M  V30 41 H -6.80796 -2.55304 1.47609 0
M  V30 42 H -7.57622 -0.485501 0.465051 0
M  V30 END ATOM
M  V30 BEGIN BOND
M  V30 1 2 1 2
M  V30 2 1 2 3
M  V30 3 1 3 4
M  V30 4 1 4 5
M  V30 5 2 5 6
M  V30 6 1 6 7
M  V30 7 1 7 8
M  V30 8 2 7 9
M  V30 9 1 9 10
M  V30 10 2 10 11
M  V30 11 1 10 12
M  V30 12 1 2 13
M  V30 13 1 13 14
M  V30 14 1 14 15
M  V30 15 1 15 16
M  V30 16 2 16 17
M  V30 17 1 17 18
M  V30 18 1 18 19
M  V30 19 2 19 20
M  V30 20 1 20 21
M  V30 21 2 21 22
M  V30 22 1 22 23
M  V30 23 2 23 24
M  V30 24 1 11 5
M  V30 25 1 20 16
M  V30 26 1 24 19
M  V30 27 1 4 25
M  V30 28 1 4 26
M  V30 29 1 8 27
M  V30 30 1 8 28
M  V30 31 1 12 29
M  V30 32 1 12 30
M  V30 33 1 13 31
M  V30 34 1 13 32
M  V30 35 1 14 33
M  V30 36 1 14 34
M  V30 37 1 15 35
M  V30 38 1 15 36
M  V30 39 1 17 37
M  V30 40 1 18 38
M  V30 41 1 21 39
M  V30 42 1 22 40
M  V30 43 1 23 41
M  V30 44 1 24 42
M  V30 END BOND
M  V30 END CTAB
M  END
