
     RDKit          3D

  0  0  0  0  0  0  0  0  0  0999 V3000
M  V30 BEGIN CTAB
M  V30 COUNTS 27 27 0 0 0
M  V30 BEGIN ATOM
M  V30 1 N -4.67029 0.00845827 -0.186961 0
M  V30 2 C -3.27423 -0.145165 -0.54278 0
M  V30 3 C -2.44975 0.284198 0.643875 0
M  V30 4 C -0.996278 0.182967 0.373318 0
M  V30 5 C -0.29592 -0.872702 0.91528 0
M  V30 6 C 1.06203 -1.03961 0.710785 0
M  V30 7 C 1.77391 -0.130318 -0.0620145 0
M  V30 8 C 1.07308 0.942861 -0.615545 0
M  V30 9 C -0.280784 1.07769 -0.390586 0
M  V30 10 C 3.19516 -0.304271 -0.276619 0
M  V30 11 N 3.83967 0.537302 -0.988513 0
M  V30 12 O 5.17736 0.389003 -1.20081 0
M  V30 13 N 3.85858 -1.39808 0.299326 0
M  V30 14 O -2.71104 1.61389 0.967755 0
M  V30 15 H -4.83691 1.02625 -0.0494299 0
M  V30 16 H -4.88851 -0.498713 0.700668 0
M  V30 17 H -3.02234 0.5094 -1.3805 0
M  V30 18 H -3.0141 -1.18224 -0.814271 0
M  V30 19 H -2.69233 -0.316956 1.5387 0
M  V30 20 H -0.780212 -1.62199 1.52828 0
M  V30 21 H 1.61449 -1.87626 1.14092 0
M  V30 22 H 1.62591 1.65622 -1.22046 0
M  V30 23 H -0.824523 1.91263 -0.821575 0
M  V30 24 H 5.79286 1.11844 -1.52605 0
M  V30 25 H 4.19894 -1.32323 1.27641 0
M  V30 26 H 4.02702 -2.28636 -0.208734 0
M  V30 27 H -2.50178 1.73659 1.92578 0
M  V30 END ATOM
M  V30 BEGIN BOND
M  V30 1 1 1 2
M  V30 2 1 2 3
M  V30 3 1 3 4
M  V30 4 2 4 5
M  V30 5 1 5 6
M  V30 6 2 6 7
M  V30 7 1 7 8
M  V30 8 2 8 9
M  V30 9 1 7 10
M  V30 10 2 10 11 CFG=2
M  V30 11 1 11 12
M  V30 12 1 10 13
M  V30 13 1 3 14
M  V30 14 1 9 4
M  V30 15 1 1 15
M  V30 16 1 1 16
M  V30 17 1 2 17
M  V30 18 1 2 18
M  V30 19 1 3 19
M  V30 20 1 5 20
M  V30 21 1 6 21
M  V30 22 1 8 22
M  V30 23 1 9 23
M  V30 24 1 12 24
M  V30 25 1 13 25
M  V30 26 1 13 26
M  V30 27 1 14 27
M  V30 END BOND
M  V30 END CTAB
M  END
