
     RDKit          3D

  0  0  0  0  0  0  0  0  0  0999 V3000
M  V30 BEGIN CTAB
M  V30 COUNTS 30 31 0 0 0
M  V30 BEGIN ATOM
M  V30 1 N 4.5727 1.99769 -0.0395617 0
M  V30 2 C 3.49827 1.06876 0.00668101 0
M  V30 3 C 3.56175 -0.0985058 0.738087 0
M  V30 4 C 2.51055 -0.967965 0.761017 0
M  V30 5 C 1.31189 -0.757337 0.0656462 0
M  V30 6 C 1.26378 0.406628 -0.659502 0
M  V30 7 C 2.32216 1.27664 -0.678372 0
M  V30 8 C 0.39448 -1.84179 0.0844397 0
M  V30 9 C -0.876633 -1.80575 0.158374 0
M  V30 10 C -1.73171 -0.669421 0.272567 0
M  V30 11 C -1.51663 0.523006 0.902037 0
M  V30 12 C -2.38456 1.5883 0.872991 0
M  V30 13 C -3.56218 1.48151 0.173464 0
M  V30 14 C -3.7948 0.278551 -0.467199 0
M  V30 15 C -2.94887 -0.795199 -0.455233 0
M  V30 16 N -3.25631 -2.00271 -1.13902 0
M  V30 17 H 5.56947 1.72516 0.0908799 0
M  V30 18 H 4.37725 3.0056 -0.211 0
M  V30 19 H 4.46002 -0.31325 1.29468 0
M  V30 20 H 2.65034 -1.87479 1.37187 0
M  V30 21 H 0.388738 0.620508 -1.26359 0
M  V30 22 H 2.26478 2.20685 -1.26479 0
M  V30 23 H 0.895197 -2.87738 0.0129086 0
M  V30 24 H -1.41232 -2.82686 0.139181 0
M  V30 25 H -0.603189 0.595971 1.51044 0
M  V30 26 H -2.15136 2.50127 1.39079 0
M  V30 27 H -4.28691 2.28681 0.113288 0
M  V30 28 H -4.73699 0.170781 -1.03508 0
M  V30 29 H -2.73833 -2.33241 -1.96983 0
M  V30 30 H -4.04059 -2.57068 -0.776154 0
M  V30 END ATOM
M  V30 BEGIN BOND
M  V30 1 1 1 2
M  V30 2 2 2 3
M  V30 3 1 3 4
M  V30 4 2 4 5
M  V30 5 1 5 6
M  V30 6 2 6 7
M  V30 7 1 5 8
M  V30 8 2 8 9
M  V30 9 1 9 10
M  V30 10 2 10 11
M  V30 11 1 11 12
M  V30 12 2 12 13
M  V30 13 1 13 14
M  V30 14 2 14 15
M  V30 15 1 15 16
M  V30 16 1 7 2
M  V30 17 1 15 10
M  V30 18 1 1 17
M  V30 19 1 1 18
M  V30 20 1 3 19
M  V30 21 1 4 20
M  V30 22 1 6 21
M  V30 23 1 7 22
M  V30 24 1 8 23
M  V30 25 1 9 24
M  V30 26 1 11 25
M  V30 27 1 12 26
M  V30 28 1 13 27
M  V30 29 1 14 28
M  V30 30 1 16 29
M  V30 31 1 16 30
M  V30 END BOND
M  V30 END CTAB
M  END
