
     RDKit          3D

  0  0  0  0  0  0  0  0  0  0999 V3000
M  V30 BEGIN CTAB
M  V30 COUNTS 29 29 0 0 0
M  V30 BEGIN ATOM
M  V30 1 N 4.25616 0.653646 -0.598264 0
M  V30 2 C 2.88675 0.441601 -0.224659 0
M  V30 3 C 2.17357 1.40516 0.435592 0
M  V30 4 C 0.853296 1.14575 0.771974 0
M  V30 5 C 0.234154 -0.0437388 0.466713 0
M  V30 6 C 0.970038 -0.998692 -0.197528 0
M  V30 7 C 2.29781 -0.768794 -0.549252 0
M  V30 8 N 3.07981 -1.74064 -1.23655 0
M  V30 9 O -1.05722 -0.303804 0.792979 0
M  V30 10 C -2.19821 -0.056373 0.0490889 0
M  V30 11 C -3.40599 -0.53454 0.862312 0
M  V30 12 C -2.2528 -0.788381 -1.26454 0
M  V30 13 C -2.38102 1.40059 -0.211072 0
M  V30 14 H 4.83505 1.31898 -0.0656788 0
M  V30 15 H 4.6754 0.138877 -1.40795 0
M  V30 16 H 2.67403 2.33247 0.667529 0
M  V30 17 H 0.326318 1.92928 1.29088 0
M  V30 18 H 0.576479 -1.96607 -0.483181 0
M  V30 19 H 4.09895 -1.83167 -1.05026 0
M  V30 20 H 2.67675 -2.38962 -1.94071 0
M  V30 21 H -4.32357 -0.541178 0.255377 0
M  V30 22 H -3.14321 -1.53792 1.25922 0
M  V30 23 H -3.49525 0.173667 1.71169 0
M  V30 24 H -1.65301 -0.328397 -2.05977 0
M  V30 25 H -3.3257 -0.71959 -1.61133 0
M  V30 26 H -1.9826 -1.86754 -1.13913 0
M  V30 27 H -2.97865 1.9218 0.593176 0
M  V30 28 H -2.97381 1.58562 -1.14686 0
M  V30 29 H -1.44352 1.9695 -0.330889 0
M  V30 END ATOM
M  V30 BEGIN BOND
M  V30 1 1 1 2
M  V30 2 2 2 3
M  V30 3 1 3 4
M  V30 4 2 4 5
M  V30 5 1 5 6
M  V30 6 2 6 7
M  V30 7 1 7 8
M  V30 8 1 5 9
M  V30 9 1 9 10
M  V30 10 1 10 11
M  V30 11 1 10 12
M  V30 12 1 10 13
M  V30 13 1 7 2
M  V30 14 1 1 14
M  V30 15 1 1 15
M  V30 16 1 3 16
M  V30 17 1 4 17
M  V30 18 1 6 18
M  V30 19 1 8 19
M  V30 20 1 8 20
M  V30 21 1 11 21
M  V30 22 1 11 22
M  V30 23 1 11 23
M  V30 24 1 12 24
M  V30 25 1 12 25
M  V30 26 1 12 26
M  V30 27 1 13 27
M  V30 28 1 13 28
M  V30 29 1 13 29
M  V30 END BOND
M  V30 END CTAB
M  END
