
     RDKit          3D

  0  0  0  0  0  0  0  0  0  0999 V3000
M  V30 BEGIN CTAB
M  V30 COUNTS 34 36 0 0 0
M  V30 BEGIN ATOM
M  V30 1 N 0.618478 -3.36798 1.20558 0
M  V30 2 C 0.024637 -2.14123 0.762332 0
M  V30 3 N -1.30934 -1.9803 0.69172 0
M  V30 4 C -1.85066 -0.805277 0.267414 0
M  V30 5 N -3.25549 -0.663357 0.202903 0
M  V30 6 C -3.83385 0.576419 -0.244853 0
M  V30 7 C -5.34661 0.504674 -0.234197 0
M  V30 8 N -5.82454 1.80276 -0.701782 0
M  V30 9 N -0.991433 0.171711 -0.0723906 0
M  V30 10 C 0.343512 0.0526 -0.0166783 0
M  V30 11 C 0.905777 -1.13227 0.411346 0
M  V30 12 C 2.27198 -1.29352 0.482403 0
M  V30 13 C 3.10564 -0.253922 0.120031 0
M  V30 14 O 4.48252 -0.415463 0.191294 0
M  V30 15 C 5.27767 0.499403 -0.547574 0
M  V30 16 C 4.79012 1.88686 -0.186501 0
M  V30 17 O 3.44544 1.97394 -0.670902 0
M  V30 18 C 2.57896 0.946703 -0.313261 0
M  V30 19 C 1.2062 1.074 -0.372274 0
M  V30 20 H 0.809263 -4.09395 0.482917 0
M  V30 21 H 0.862711 -3.56718 2.18382 0
M  V30 22 H -3.88122 -1.43804 0.472914 0
M  V30 23 H -3.52952 1.44031 0.382214 0
M  V30 24 H -3.53572 0.771478 -1.31025 0
M  V30 25 H -5.7221 -0.257622 -0.947689 0
M  V30 26 H -5.69283 0.304067 0.799294 0
M  V30 27 H -5.8065 1.76297 -1.74486 0
M  V30 28 H -5.12866 2.53734 -0.412481 0
M  V30 29 H 2.64578 -2.25349 0.828374 0
M  V30 30 H 5.04552 0.337782 -1.62012 0
M  V30 31 H 6.35544 0.388411 -0.325393 0
M  V30 32 H 4.80825 1.96136 0.922046 0
M  V30 33 H 5.37222 2.67572 -0.689962 0
M  V30 34 H 0.758368 1.9951 -0.705118 0
M  V30 END ATOM
M  V30 BEGIN BOND
M  V30 1 1 1 2
M  V30 2 2 2 3
M  V30 3 1 3 4
M  V30 4 1 4 5
M  V30 5 1 5 6
M  V30 6 1 6 7
M  V30 7 1 7 8
M  V30 8 2 4 9
M  V30 9 1 9 10
M  V30 10 2 10 11
M  V30 11 1 11 12
M  V30 12 2 12 13
M  V30 13 1 13 14
M  V30 14 1 14 15
M  V30 15 1 15 16
M  V30 16 1 16 17
M  V30 17 1 17 18
M  V30 18 2 18 19
M  V30 19 1 11 2
M  V30 20 1 18 13
M  V30 21 1 19 10
M  V30 22 1 1 20
M  V30 23 1 1 21
M  V30 24 1 5 22
M  V30 25 1 6 23
M  V30 26 1 6 24
M  V30 27 1 7 25
M  V30 28 1 7 26
M  V30 29 1 8 27
M  V30 30 1 8 28
M  V30 31 1 12 29
M  V30 32 1 15 30
M  V30 33 1 15 31
M  V30 34 1 16 32
M  V30 35 1 16 33
M  V30 36 1 19 34
M  V30 END BOND
M  V30 END CTAB
M  END
