
     RDKit          3D

  0  0  0  0  0  0  0  0  0  0999 V3000
M  V30 BEGIN CTAB
M  V30 COUNTS 51 54 0 0 0
M  V30 BEGIN ATOM
M  V30 1 C 5.35605 -1.38816 -1.42553 0
M  V30 2 N 5.28242 -0.423217 -0.362796 0
M  V30 3 C 6.4648 -0.0786145 0.375933 0
M  V30 4 C 4.04291 0.184634 -0.0495593 0
M  V30 5 C 3.94366 1.10491 0.997425 0
M  V30 6 C 2.74268 1.68472 1.28465 0
M  V30 7 C 1.58436 1.40981 0.584115 0
M  V30 8 C 0.275878 2.03916 0.907129 0
M  V30 9 C -0.499507 1.23905 1.90455 0
M  V30 10 C -0.816164 -0.143511 1.46222 0
M  V30 11 C -1.78997 -0.635054 0.632742 0
M  V30 12 C -1.8057 -1.97003 0.421305 0
M  V30 13 C -2.6895 -2.72638 -0.370141 0
M  V30 14 N -3.76297 -2.17758 -1.10498 0
M  V30 15 N -2.53681 -4.04599 -0.445661 0
M  V30 16 C -1.60764 -4.76112 0.165524 0
M  V30 17 N -0.733974 -4.06828 0.94114 0
M  V30 18 C -0.847744 -2.71458 1.05151 0
M  V30 19 S 0.0421783 -1.54934 1.9164 0
M  V30 20 C -2.7445 0.333689 0.0369687 0
M  V30 21 C -3.73935 0.799246 0.852677 0
M  V30 22 C -4.65752 1.69456 0.363611 0
M  V30 23 C -4.56365 2.11483 -0.95351 0
M  V30 24 N -5.51324 3.0501 -1.48975 0
M  V30 25 C -3.56648 1.65356 -1.78612 0
M  V30 26 C -2.65655 0.752418 -1.26225 0
M  V30 27 C 1.67973 0.502413 -0.448915 0
M  V30 28 C 2.88665 -0.0880253 -0.746627 0
M  V30 29 H 4.97231 -2.36002 -1.00476 0
M  V30 30 H 6.41956 -1.60041 -1.68121 0
M  V30 31 H 4.79186 -1.12844 -2.33227 0
M  V30 32 H 7.28873 -0.75364 0.104676 0
M  V30 33 H 6.74132 1.00267 0.243787 0
M  V30 34 H 6.23568 -0.295725 1.45922 0
M  V30 35 H 4.87316 1.29975 1.53224 0
M  V30 36 H 2.70055 2.39718 2.10834 0
M  V30 37 H 0.521423 3.03997 1.36973 0
M  V30 38 H -0.289834 2.26703 -0.00547654 0
M  V30 39 H 0.0013315 1.1821 2.88334 0
M  V30 40 H -1.47739 1.74397 2.09314 0
M  V30 41 H -4.60627 -1.84427 -0.589937 0
M  V30 42 H -3.76232 -2.08709 -2.1415 0
M  V30 43 H -1.54741 -5.83113 0.0546667 0
M  V30 44 H -3.82481 0.483203 1.87548 0
M  V30 45 H -5.4714 2.09726 0.973234 0
M  V30 46 H -5.69631 3.10632 -2.51265 0
M  V30 47 H -6.03588 3.688 -0.865949 0
M  V30 48 H -3.49794 1.99246 -2.82849 0
M  V30 49 H -1.84114 0.352079 -1.8852 0
M  V30 50 H 0.795054 0.263733 -1.01456 0
M  V30 51 H 2.93969 -0.808216 -1.57225 0
M  V30 END ATOM
M  V30 BEGIN BOND
M  V30 1 1 1 2
M  V30 2 1 2 3
M  V30 3 1 2 4
M  V30 4 2 4 5
M  V30 5 1 5 6
M  V30 6 2 6 7
M  V30 7 1 7 8
M  V30 8 1 8 9
M  V30 9 1 9 10
M  V30 10 2 10 11
M  V30 11 1 11 12
M  V30 12 2 12 13
M  V30 13 1 13 14
M  V30 14 1 13 15
M  V30 15 2 15 16
M  V30 16 1 16 17
M  V30 17 2 17 18
M  V30 18 1 18 19
M  V30 19 1 11 20
M  V30 20 2 20 21
M  V30 21 1 21 22
M  V30 22 2 22 23
M  V30 23 1 23 24
M  V30 24 1 23 25
M  V30 25 2 25 26
M  V30 26 1 7 27
M  V30 27 2 27 28
M  V30 28 1 28 4
M  V30 29 1 19 10
M  V30 30 1 26 20
M  V30 31 1 18 12
M  V30 32 1 1 29
M  V30 33 1 1 30
M  V30 34 1 1 31
M  V30 35 1 3 32
M  V30 36 1 3 33
M  V30 37 1 3 34
M  V30 38 1 5 35
M  V30 39 1 6 36
M  V30 40 1 8 37
M  V30 41 1 8 38
M  V30 42 1 9 39
M  V30 43 1 9 40
M  V30 44 1 14 41
M  V30 45 1 14 42
M  V30 46 1 16 43
M  V30 47 1 21 44
M  V30 48 1 22 45
M  V30 49 1 24 46
M  V30 50 1 24 47
M  V30 51 1 25 48
M  V30 52 1 26 49
M  V30 53 1 27 50
M  V30 54 1 28 51
M  V30 END BOND
M  V30 END CTAB
M  END
