
     RDKit          3D

  0  0  0  0  0  0  0  0  0  0999 V3000
M  V30 BEGIN CTAB
M  V30 COUNTS 51 52 0 0 0
M  V30 BEGIN ATOM
M  V30 1 N -5.06361 2.40296 0.471405 0
M  V30 2 C -4.40725 1.69762 1.51607 0
M  V30 3 C -5.11222 0.388066 1.71019 0
M  V30 4 C -5.09703 -0.457396 0.473578 0
M  V30 5 C -3.6814 -0.748127 0.0871605 0
M  V30 6 C -3.70109 -1.6073 -1.16509 0 CFG=1
M  V30 7 C -2.27059 -1.87313 -1.51443 0
M  V30 8 O -1.81758 -3.04906 -1.55241 0
M  V30 9 N -1.46236 -0.747568 -1.79675 0
M  V30 10 C -0.0821162 -0.965033 -2.13631 0 CFG=2
M  V30 11 C 0.752569 -0.275437 -1.09147 0
M  V30 12 O 0.167622 0.323015 -0.176736 0
M  V30 13 N 2.14878 -0.350957 -1.21496 0
M  V30 14 C 3.04982 0.249693 -0.319609 0
M  V30 15 C 2.79079 1.24466 0.57805 0
M  V30 16 C 3.773 1.7509 1.44317 0
M  V30 17 C 5.0262 1.22101 1.37287 0
M  V30 18 C 5.33491 0.207072 0.473425 0
M  V30 19 C 4.34868 -0.255286 -0.348837 0
M  V30 20 C 6.62758 -0.308214 0.4319 0
M  V30 21 C 7.60886 0.163382 1.26184 0
M  V30 22 C 7.31867 1.17388 2.16464 0
M  V30 23 C 6.03222 1.67396 2.19324 0
M  V30 24 C 0.158106 -0.396417 -3.50541 0
M  V30 25 N -4.34849 -2.88052 -0.922463 0
M  V30 26 H -4.48102 2.85085 -0.165994 0
M  V30 27 H -6.0007 2.15451 0.294818 0
M  V30 28 H -4.51103 2.29567 2.45261 0
M  V30 29 H -3.35094 1.55811 1.26447 0
M  V30 30 H -4.6128 -0.176935 2.53353 0
M  V30 31 H -6.15584 0.562294 2.03809 0
M  V30 32 H -5.54563 0.142349 -0.349635 0
M  V30 33 H -5.60966 -1.42182 0.62188 0
M  V30 34 H -3.14683 0.194251 -0.226075 0
M  V30 35 H -3.08917 -1.25569 0.847597 0
M  V30 36 H -4.1332 -1.04041 -1.9966 0
M  V30 37 H -1.81824 0.222895 -1.7704 0
M  V30 38 H 0.185583 -2.03563 -2.13366 0
M  V30 39 H 2.53305 -0.901957 -2.05323 0
M  V30 40 H 1.79771 1.67049 0.616895 0
M  V30 41 H 3.52796 2.53077 2.1322 0
M  V30 42 H 4.63833 -1.05362 -1.03983 0
M  V30 43 H 6.82572 -1.10534 -0.291524 0
M  V30 44 H 8.60634 -0.241061 1.22298 0
M  V30 45 H 8.10938 1.52506 2.80462 0
M  V30 46 H 5.77696 2.4756 2.90028 0
M  V30 47 H 0.222059 0.699313 -3.50304 0
M  V30 48 H 1.01046 -0.892817 -4.01495 0
M  V30 49 H -0.751657 -0.650021 -4.11975 0
M  V30 50 H -4.25276 -3.1027 0.0907259 0
M  V30 51 H -3.86812 -3.58594 -1.52328 0
M  V30 END ATOM
M  V30 BEGIN BOND
M  V30 1 1 1 2
M  V30 2 1 2 3
M  V30 3 1 3 4
M  V30 4 1 4 5
M  V30 5 1 5 6
M  V30 6 1 6 7
M  V30 7 2 7 8
M  V30 8 1 7 9
M  V30 9 1 9 10
M  V30 10 1 10 11
M  V30 11 2 11 12
M  V30 12 1 11 13
M  V30 13 1 13 14
M  V30 14 2 14 15
M  V30 15 1 15 16
M  V30 16 2 16 17
M  V30 17 1 17 18
M  V30 18 2 18 19
M  V30 19 1 18 20
M  V30 20 2 20 21
M  V30 21 1 21 22
M  V30 22 2 22 23
M  V30 23 1 10 24
M  V30 24 1 6 25
M  V30 25 1 19 14
M  V30 26 1 23 17
M  V30 27 1 1 26
M  V30 28 1 1 27
M  V30 29 1 2 28
M  V30 30 1 2 29
M  V30 31 1 3 30
M  V30 32 1 3 31
M  V30 33 1 4 32
M  V30 34 1 4 33
M  V30 35 1 5 34
M  V30 36 1 5 35
M  V30 37 1 6 36 CFG=3
M  V30 38 1 9 37
M  V30 39 1 10 38 CFG=3
M  V30 40 1 13 39
M  V30 41 1 15 40
M  V30 42 1 16 41
M  V30 43 1 19 42
M  V30 44 1 20 43
M  V30 45 1 21 44
M  V30 46 1 22 45
M  V30 47 1 23 46
M  V30 48 1 24 47
M  V30 49 1 24 48
M  V30 50 1 24 49
M  V30 51 1 25 50
M  V30 52 1 25 51
M  V30 END BOND
M  V30 END CTAB
M  END
