
     RDKit          3D

  0  0  0  0  0  0  0  0  0  0999 V3000
M  V30 BEGIN CTAB
M  V30 COUNTS 55 57 0 0 0
M  V30 BEGIN ATOM
M  V30 1 C 0.922096 2.14923 -3.10903 0
M  V30 2 O 0.131356 1.33183 -2.25929 0
M  V30 3 C 0.780242 0.391034 -1.47051 0
M  V30 4 C 2.15858 0.229985 -1.48931 0
M  V30 5 C 2.80075 -0.702909 -0.706993 0
M  V30 6 C 2.03798 -1.50159 0.122094 0
M  V30 7 C 0.660703 -1.33973 0.140026 0
M  V30 8 C 0.0174969 -0.405067 -0.643797 0
M  V30 9 O -1.35342 -0.235172 -0.634054 0
M  V30 10 C -2.22722 -0.978551 0.157518 0
M  V30 11 C -3.65652 -0.557411 -0.0573495 0
M  V30 12 O -3.82895 0.352713 -0.87573 0
M  V30 13 N -4.71015 -1.16503 0.6309 0
M  V30 14 C -6.06913 -0.844305 0.507819 0
M  V30 15 C -6.58494 0.285814 -0.0755292 0
M  V30 16 C -7.93898 0.485111 -0.155943 0
M  V30 17 C -8.83315 -0.426899 0.338698 0
M  V30 18 C -8.33951 -1.58237 0.936309 0
M  V30 19 C -6.98886 -1.78078 1.01601 0
M  V30 20 O -10.2126 -0.254599 0.272923 0
M  V30 21 C -10.6918 0.931822 -0.341196 0
M  V30 22 C 4.24333 -0.824458 -0.770023 0
M  V30 23 O 4.87284 -1.65731 -0.0784217 0
M  V30 24 O 4.95962 -0.00417208 -1.61341 0
M  V30 25 C 6.33449 0.0196484 -1.80098 0
M  V30 26 C 7.14782 0.321213 -0.62038 0
M  V30 27 N 7.37338 1.5754 -0.197823 0
M  V30 28 C 8.13262 1.79044 0.889479 0
M  V30 29 N 8.3694 3.14076 1.33588 0
M  V30 30 N 8.67964 0.775055 1.57499 0
M  V30 31 C 8.45774 -0.485697 1.15703 0
M  V30 32 N 7.69983 -0.681273 0.0732397 0
M  V30 33 N 9.03849 -1.54721 1.88619 0
M  V30 34 H 1.40196 1.53942 -3.92048 0
M  V30 35 H 0.294393 2.94571 -3.54855 0
M  V30 36 H 1.77143 2.61896 -2.56192 0
M  V30 37 H 2.74484 0.86052 -2.14191 0
M  V30 38 H 2.504 -2.25173 0.757265 0
M  V30 39 H 0.0783199 -1.97288 0.794574 0
M  V30 40 H -2.14442 -2.06685 -0.110223 0
M  V30 41 H -1.95089 -0.915658 1.22295 0
M  V30 42 H -4.43078 -1.94123 1.31565 0
M  V30 43 H -5.95742 1.05054 -0.475219 0
M  V30 44 H -8.33364 1.38405 -0.620704 0
M  V30 45 H -9.02888 -2.33598 1.34439 0
M  V30 46 H -6.59008 -2.68947 1.48448 0
M  V30 47 H -10.3784 1.76753 0.346727 0
M  V30 48 H -10.2181 1.0493 -1.33956 0
M  V30 49 H -11.7914 0.870323 -0.400109 0
M  V30 50 H 6.56105 0.819978 -2.56282 0
M  V30 51 H 6.62525 -0.937672 -2.29631 0
M  V30 52 H 8.12274 3.95733 0.759675 0
M  V30 53 H 8.80255 3.30863 2.26764 0
M  V30 54 H 8.47554 -2.34424 2.2366 0
M  V30 55 H 10.0588 -1.52212 2.07293 0
M  V30 END ATOM
M  V30 BEGIN BOND
M  V30 1 1 1 2
M  V30 2 1 2 3
M  V30 3 2 3 4
M  V30 4 1 4 5
M  V30 5 2 5 6
M  V30 6 1 6 7
M  V30 7 2 7 8
M  V30 8 1 8 9
M  V30 9 1 9 10
M  V30 10 1 10 11
M  V30 11 2 11 12
M  V30 12 1 11 13
M  V30 13 1 13 14
M  V30 14 2 14 15
M  V30 15 1 15 16
M  V30 16 2 16 17
M  V30 17 1 17 18
M  V30 18 2 18 19
M  V30 19 1 17 20
M  V30 20 1 20 21
M  V30 21 1 5 22
M  V30 22 2 22 23
M  V30 23 1 22 24
M  V30 24 1 24 25
M  V30 25 1 25 26
M  V30 26 2 26 27
M  V30 27 1 27 28
M  V30 28 1 28 29
M  V30 29 2 28 30
M  V30 30 1 30 31
M  V30 31 2 31 32
M  V30 32 1 31 33
M  V30 33 1 8 3
M  V30 34 1 19 14
M  V30 35 1 32 26
M  V30 36 1 1 34
M  V30 37 1 1 35
M  V30 38 1 1 36
M  V30 39 1 4 37
M  V30 40 1 6 38
M  V30 41 1 7 39
M  V30 42 1 10 40
M  V30 43 1 10 41
M  V30 44 1 13 42
M  V30 45 1 15 43
M  V30 46 1 16 44
M  V30 47 1 18 45
M  V30 48 1 19 46
M  V30 49 1 21 47
M  V30 50 1 21 48
M  V30 51 1 21 49
M  V30 52 1 25 50
M  V30 53 1 25 51
M  V30 54 1 29 52
M  V30 55 1 29 53
M  V30 56 1 33 54
M  V30 57 1 33 55
M  V30 END BOND
M  V30 END CTAB
M  END
