
     RDKit          3D

  0  0  0  0  0  0  0  0  0  0999 V3000
M  V30 BEGIN CTAB
M  V30 COUNTS 26 26 0 0 0
M  V30 BEGIN ATOM
M  V30 1 N 4.14885 0.546721 -0.685635 0
M  V30 2 C 3.05916 -0.370069 -0.820839 0
M  V30 3 C 1.72702 0.241333 -0.369964 0
M  V30 4 S 0.426244 -0.977808 -0.576115 0
M  V30 5 C -1.15916 -0.302758 -0.114412 0
M  V30 6 C -1.34023 0.993619 0.31807 0
M  V30 7 C -2.58983 1.49075 0.674313 0
M  V30 8 C -3.67253 0.640779 0.584455 0
M  V30 9 C -3.48206 -0.652122 0.151427 0
M  V30 10 C -2.2567 -1.16796 -0.206651 0
M  V30 11 N -2.08831 -2.50216 -0.648939 0
M  V30 12 F -4.8936 1.12654 0.93259 0
M  V30 13 C 1.83571 0.623819 1.10508 0
M  V30 14 H 3.97572 1.33685 -0.0327674 0
M  V30 15 H 4.58233 0.828878 -1.58922 0
M  V30 16 H 3.27152 -1.24215 -0.166297 0
M  V30 17 H 2.89866 -0.73414 -1.84812 0
M  V30 18 H 1.55523 1.14719 -0.951686 0
M  V30 19 H -0.504576 1.65432 0.386037 0
M  V30 20 H -2.72679 2.50884 1.01321 0
M  V30 21 H -4.34011 -1.3305 0.0786878 0
M  V30 22 H -1.48706 -2.74997 -1.45658 0
M  V30 23 H -2.58126 -3.26799 -0.152356 0
M  V30 24 H 0.957123 0.213735 1.62334 0
M  V30 25 H 1.89486 1.731 1.2136 0
M  V30 26 H 2.7898 0.213255 1.53877 0
M  V30 END ATOM
M  V30 BEGIN BOND
M  V30 1 1 1 2
M  V30 2 1 2 3
M  V30 3 1 3 4
M  V30 4 1 4 5
M  V30 5 2 5 6
M  V30 6 1 6 7
M  V30 7 2 7 8
M  V30 8 1 8 9
M  V30 9 2 9 10
M  V30 10 1 10 11
M  V30 11 1 8 12
M  V30 12 1 3 13
M  V30 13 1 10 5
M  V30 14 1 1 14
M  V30 15 1 1 15
M  V30 16 1 2 16
M  V30 17 1 2 17
M  V30 18 1 3 18
M  V30 19 1 6 19
M  V30 20 1 7 20
M  V30 21 1 9 21
M  V30 22 1 11 22
M  V30 23 1 11 23
M  V30 24 1 13 24
M  V30 25 1 13 25
M  V30 26 1 13 26
M  V30 END BOND
M  V30 END CTAB
M  END
