
     RDKit          3D

  0  0  0  0  0  0  0  0  0  0999 V3000
M  V30 BEGIN CTAB
M  V30 COUNTS 46 48 0 0 0
M  V30 BEGIN ATOM
M  V30 1 N -5.70143 2.26528 -0.944915 0
M  V30 2 C -5.37804 1.27738 0.0486693 0
M  V30 3 C -3.90232 1.23328 0.474882 0
M  V30 4 C -4.09357 -0.257155 0.601176 0
M  V30 5 C -5.10264 -0.113529 -0.551857 0
M  V30 6 C -2.89464 -1.02091 0.290493 0
M  V30 7 C -1.67016 -0.37746 0.288784 0
M  V30 8 C -0.499076 -1.02925 0.0123045 0
M  V30 9 N -0.5534 -2.34647 -0.266594 0
M  V30 10 C -1.73924 -2.9986 -0.271569 0
M  V30 11 N -2.88169 -2.34682 0.00102062 0
M  V30 12 N -1.68106 -4.39944 -0.584573 0
M  V30 13 N 0.746981 -0.324468 0.0265965 0
M  V30 14 C 1.42371 -0.167587 1.27619 0
M  V30 15 C 2.63101 -1.02865 1.37813 0
M  V30 16 O 3.58219 -0.802266 0.451609 0
M  V30 17 C 4.41673 0.190035 0.092827 0
M  V30 18 C 5.26642 -0.0263143 -1.00124 0
M  V30 19 C 6.14371 0.936269 -1.42439 0
M  V30 20 C 6.19613 2.13879 -0.766387 0
M  V30 21 C 5.36941 2.39195 0.322267 0
M  V30 22 C 4.48504 1.39693 0.733802 0
M  V30 23 C 1.28577 0.168887 -1.20975 0
M  V30 24 H -5.54532 3.23921 -0.597637 0
M  V30 25 H -6.75364 2.18447 -1.08974 0
M  V30 26 H -6.02201 1.22219 0.922126 0
M  V30 27 H -3.21483 1.46122 -0.381355 0
M  V30 28 H -3.68839 1.78776 1.39813 0
M  V30 29 H -4.64277 -0.617732 1.50034 0
M  V30 30 H -4.68519 -0.0509036 -1.55391 0
M  V30 31 H -6.02182 -0.705133 -0.435019 0
M  V30 32 H -1.58808 0.696908 0.519522 0
M  V30 33 H -2.40484 -4.87707 -1.17142 0
M  V30 34 H -0.905316 -5.0248 -0.240054 0
M  V30 35 H 0.732598 -0.482687 2.12078 0
M  V30 36 H 1.63804 0.906835 1.50997 0
M  V30 37 H 2.28407 -2.1028 1.33893 0
M  V30 38 H 3.06592 -0.930911 2.43184 0
M  V30 39 H 5.19862 -1.00018 -1.50455 0
M  V30 40 H 6.78536 0.70942 -2.28692 0
M  V30 41 H 6.89843 2.86436 -1.1271 0
M  V30 42 H 5.42282 3.33778 0.834712 0
M  V30 43 H 3.85775 1.60206 1.58187 0
M  V30 44 H 1.95134 -0.570438 -1.6765 0
M  V30 45 H 0.441388 0.431744 -1.9348 0
M  V30 46 H 1.74604 1.15882 -1.018 0
M  V30 END ATOM
M  V30 BEGIN BOND
M  V30 1 1 1 2
M  V30 2 1 2 3
M  V30 3 1 3 4
M  V30 4 1 4 5
M  V30 5 1 4 6
M  V30 6 2 6 7
M  V30 7 1 7 8
M  V30 8 2 8 9
M  V30 9 1 9 10
M  V30 10 2 10 11
M  V30 11 1 10 12
M  V30 12 1 8 13
M  V30 13 1 13 14
M  V30 14 1 14 15
M  V30 15 1 15 16
M  V30 16 1 16 17
M  V30 17 2 17 18
M  V30 18 1 18 19
M  V30 19 2 19 20
M  V30 20 1 20 21
M  V30 21 2 21 22
M  V30 22 1 13 23
M  V30 23 1 5 2
M  V30 24 1 11 6
M  V30 25 1 22 17
M  V30 26 1 1 24
M  V30 27 1 1 25
M  V30 28 1 2 26
M  V30 29 1 3 27
M  V30 30 1 3 28
M  V30 31 1 4 29
M  V30 32 1 5 30
M  V30 33 1 5 31
M  V30 34 1 7 32
M  V30 35 1 12 33
M  V30 36 1 12 34
M  V30 37 1 14 35
M  V30 38 1 14 36
M  V30 39 1 15 37
M  V30 40 1 15 38
M  V30 41 1 18 39
M  V30 42 1 19 40
M  V30 43 1 20 41
M  V30 44 1 21 42
M  V30 45 1 22 43
M  V30 46 1 23 44
M  V30 47 1 23 45
M  V30 48 1 23 46
M  V30 END BOND
M  V30 END CTAB
M  END
