
     RDKit          3D

  0  0  0  0  0  0  0  0  0  0999 V3000
M  V30 BEGIN CTAB
M  V30 COUNTS 26 27 0 0 0
M  V30 BEGIN ATOM
M  V30 1 N 4.10741 -0.895669 0.0844985 0
M  V30 2 C 2.73363 -0.529367 0.0506211 0
M  V30 3 C 2.15597 0.0611596 1.1457 0
M  V30 4 C 0.808586 0.421433 1.11417 0
M  V30 5 C 0.0648238 0.184988 -0.00803424 0
M  V30 6 C 0.655395 -0.408986 -1.10155 0
M  V30 7 C 1.99507 -0.772381 -1.08408 0
M  V30 8 C -1.35527 0.534992 -0.127585 0
M  V30 9 C -1.8358 1.80795 -0.448913 0
M  V30 10 N -1.02821 2.94473 -0.707946 0
M  V30 11 N -3.16958 1.69127 -0.449576 0
M  V30 12 N -3.53772 0.456022 -0.156034 0
M  V30 13 C -2.44102 -0.300235 0.0523473 0
M  V30 14 C -2.39586 -1.71513 0.39987 0
M  V30 15 O -3.49886 -2.33367 0.52875 0
M  V30 16 O -1.23849 -2.41486 0.597268 0
M  V30 17 H 4.72552 -0.79246 -0.756683 0
M  V30 18 H 4.55324 -1.28032 0.944526 0
M  V30 19 H 2.69039 0.271258 2.05457 0
M  V30 20 H 0.343494 0.886892 1.96995 0
M  V30 21 H 0.0975669 -0.612652 -2.01061 0
M  V30 22 H 2.4973 -1.2374 -1.91457 0
M  V30 23 H -1.14403 3.49417 -1.58157 0
M  V30 24 H -0.302169 3.25722 -0.0340367 0
M  V30 25 H -4.51128 0.0734135 -0.0805097 0
M  V30 26 H -0.970117 -2.79236 1.51942 0
M  V30 END ATOM
M  V30 BEGIN BOND
M  V30 1 1 1 2
M  V30 2 2 2 3
M  V30 3 1 3 4
M  V30 4 2 4 5
M  V30 5 1 5 6
M  V30 6 2 6 7
M  V30 7 1 5 8
M  V30 8 1 8 9
M  V30 9 1 9 10
M  V30 10 2 9 11
M  V30 11 1 11 12
M  V30 12 1 12 13
M  V30 13 1 13 14
M  V30 14 2 14 15
M  V30 15 1 14 16
M  V30 16 1 7 2
M  V30 17 2 13 8
M  V30 18 1 1 17
M  V30 19 1 1 18
M  V30 20 1 3 19
M  V30 21 1 4 20
M  V30 22 1 6 21
M  V30 23 1 7 22
M  V30 24 1 10 23
M  V30 25 1 10 24
M  V30 26 1 12 25
M  V30 27 1 16 26
M  V30 END BOND
M  V30 END CTAB
M  END
