
     RDKit          3D

  0  0  0  0  0  0  0  0  0  0999 V3000
M  V30 BEGIN CTAB
M  V30 COUNTS 30 32 0 0 0
M  V30 BEGIN ATOM
M  V30 1 N -3.82834 -0.418924 0.839991 0
M  V30 2 C -3.2209 -0.17585 -0.488457 0
M  V30 3 C -1.79604 0.121299 -0.32415 0
M  V30 4 C -1.46443 1.48332 -0.428272 0
M  V30 5 N -2.5778 2.38628 -0.506394 0
M  V30 6 N -0.247416 1.95712 -0.429648 0
M  V30 7 C 0.783745 1.07614 -0.323 0
M  V30 8 C 0.527314 -0.294185 -0.220487 0
M  V30 9 C -0.751916 -0.768738 -0.223629 0
M  V30 10 C -1.06312 -2.19239 -0.21315 0
M  V30 11 C 1.60721 -1.1528 -0.105884 0
M  V30 12 C 2.89412 -0.633582 -0.122612 0
M  V30 13 C 3.1392 0.726387 -0.231889 0
M  V30 14 C 2.0662 1.57202 -0.322173 0
M  V30 15 O 4.51924 0.970579 -0.244118 0
M  V30 16 C 5.1011 -0.219408 0.280016 0
M  V30 17 O 4.16395 -1.22036 -0.0524735 0
M  V30 18 H -4.77957 0.0788644 0.827178 0
M  V30 19 H -3.2157 -0.00924745 1.60171 0
M  V30 20 H -3.3169 -1.24949 -0.972391 0
M  V30 21 H -3.7595 0.466959 -1.11845 0
M  V30 22 H -3.09208 2.66516 0.392691 0
M  V30 23 H -2.88684 2.6831 -1.43759 0
M  V30 24 H -1.92785 -2.37166 0.469703 0
M  V30 25 H -1.48057 -2.43322 -1.23825 0
M  V30 26 H -0.30277 -2.89939 0.0881097 0
M  V30 27 H 1.46821 -2.25225 0.015184 0
M  V30 28 H 2.21911 2.67001 -0.349909 0
M  V30 29 H 5.12996 -0.16919 1.41115 0
M  V30 30 H 6.09239 -0.396557 -0.170663 0
M  V30 END ATOM
M  V30 BEGIN BOND
M  V30 1 1 1 2
M  V30 2 1 2 3
M  V30 3 2 3 4
M  V30 4 1 4 5
M  V30 5 1 4 6
M  V30 6 2 6 7
M  V30 7 1 7 8
M  V30 8 2 8 9
M  V30 9 1 9 10
M  V30 10 1 8 11
M  V30 11 2 11 12
M  V30 12 1 12 13
M  V30 13 2 13 14
M  V30 14 1 13 15
M  V30 15 1 15 16
M  V30 16 1 16 17
M  V30 17 1 9 3
M  V30 18 1 17 12
M  V30 19 1 14 7
M  V30 20 1 1 18
M  V30 21 1 1 19
M  V30 22 1 2 20
M  V30 23 1 2 21
M  V30 24 1 5 22
M  V30 25 1 5 23
M  V30 26 1 10 24
M  V30 27 1 10 25
M  V30 28 1 10 26
M  V30 29 1 11 27
M  V30 30 1 14 28
M  V30 31 1 16 29
M  V30 32 1 16 30
M  V30 END BOND
M  V30 END CTAB
M  END
