
     RDKit          3D

  0  0  0  0  0  0  0  0  0  0999 V3000
M  V30 BEGIN CTAB
M  V30 COUNTS 37 38 0 0 0
M  V30 BEGIN ATOM
M  V30 1 N 5.45179 1.5476 -0.961724 0
M  V30 2 C 4.79527 1.18682 0.262898 0
M  V30 3 C 3.43468 0.633361 0.0538828 0
M  V30 4 C 2.73157 0.25989 1.18038 0
M  V30 5 C 1.44181 -0.272746 1.09474 0
M  V30 6 C 0.852536 -0.432119 -0.129907 0
M  V30 7 C 1.55536 -0.0589605 -1.25367 0
M  V30 8 C 2.84468 0.473464 -1.16763 0
M  V30 9 C -0.516507 -0.997613 -0.219125 0
M  V30 10 C -1.07358 -1.19853 1.14905 0
M  V30 11 C -2.5099 -1.69173 0.990754 0
M  V30 12 C -3.29174 -0.571877 0.385496 0
M  V30 13 C -2.55233 0.253741 -0.599003 0
M  V30 14 N -1.36117 -0.281042 -1.11645 0
M  V30 15 C -3.49983 0.506214 -1.78222 0
M  V30 16 N -3.75582 0.274348 1.49535 0
M  V30 17 H 5.27207 2.52643 -1.2644 0
M  V30 18 H 5.38071 0.84033 -1.69802 0
M  V30 19 H 5.3989 0.382664 0.744965 0
M  V30 20 H 4.7968 2.0371 0.961032 0
M  V30 21 H 3.17439 0.3752 2.16391 0
M  V30 22 H 0.959088 -0.541411 2.0411 0
M  V30 23 H 1.08491 -0.18746 -2.21402 0
M  V30 24 H 3.3725 0.756163 -2.04601 0
M  V30 25 H -0.381748 -2.02851 -0.665762 0
M  V30 26 H -1.03932 -0.262923 1.74106 0
M  V30 27 H -0.527428 -2.0167 1.6628 0
M  V30 28 H -2.93134 -1.92118 1.97991 0
M  V30 29 H -2.47079 -2.55724 0.307965 0
M  V30 30 H -4.23612 -1.02234 -0.0320257 0
M  V30 31 H -2.36828 1.28189 -0.170401 0
M  V30 32 H -1.35558 -0.593221 -2.09039 0
M  V30 33 H -2.96839 0.980991 -2.62404 0
M  V30 34 H -3.89185 -0.514971 -2.05721 0
M  V30 35 H -4.39187 1.08372 -1.45171 0
M  V30 36 H -4.46359 0.956628 1.19516 0
M  V30 37 H -2.9599 0.79401 1.91506 0
M  V30 END ATOM
M  V30 BEGIN BOND
M  V30 1 1 1 2
M  V30 2 1 2 3
M  V30 3 2 3 4
M  V30 4 1 4 5
M  V30 5 2 5 6
M  V30 6 1 6 7
M  V30 7 2 7 8
M  V30 8 1 6 9
M  V30 9 1 9 10
M  V30 10 1 10 11
M  V30 11 1 11 12
M  V30 12 1 12 13
M  V30 13 1 13 14
M  V30 14 1 13 15
M  V30 15 1 12 16
M  V30 16 1 8 3
M  V30 17 1 14 9
M  V30 18 1 1 17
M  V30 19 1 1 18
M  V30 20 1 2 19
M  V30 21 1 2 20
M  V30 22 1 4 21
M  V30 23 1 5 22
M  V30 24 1 7 23
M  V30 25 1 8 24
M  V30 26 1 9 25
M  V30 27 1 10 26
M  V30 28 1 10 27
M  V30 29 1 11 28
M  V30 30 1 11 29
M  V30 31 1 12 30
M  V30 32 1 13 31
M  V30 33 1 14 32
M  V30 34 1 15 33
M  V30 35 1 15 34
M  V30 36 1 15 35
M  V30 37 1 16 36
M  V30 38 1 16 37
M  V30 END BOND
M  V30 END CTAB
M  END
