
     RDKit          3D

  0  0  0  0  0  0  0  0  0  0999 V3000
M  V30 BEGIN CTAB
M  V30 COUNTS 34 36 0 0 0
M  V30 BEGIN ATOM
M  V30 1 N -6.40062 -0.1754 -1.00974 0
M  V30 2 C -5.03601 0.104232 -0.763749 0
M  V30 3 N -4.4914 1.25225 -1.1836 0
M  V30 4 C -3.19998 1.58692 -0.980523 0
M  V30 5 N -2.64989 2.81396 -1.44392 0
M  V30 6 C -2.42585 0.67285 -0.299936 0
M  V30 7 C -1.09724 0.942514 -0.057517 0
M  V30 8 C -0.261353 0.0766268 0.614192 0
M  V30 9 N 1.05695 0.30525 0.869096 0
M  V30 10 C 2.34962 0.529508 1.11909 0
M  V30 11 O 2.82946 1.49985 1.7863 0
M  V30 12 C 3.42527 -0.398864 0.608592 0
M  V30 13 C 4.62451 -0.448858 1.2731 0
M  V30 14 C 5.61442 -1.28458 0.819474 0
M  V30 15 C 5.43675 -2.07938 -0.291769 0
M  V30 16 Cl 6.73928 -3.12616 -0.811261 0
M  V30 17 C 4.22501 -2.01802 -0.950132 0
M  V30 18 C 3.21568 -1.17663 -0.500805 0
M  V30 19 C -0.840759 -1.13498 1.05807 0
M  V30 20 C -2.1579 -1.43859 0.835664 0
M  V30 21 C -2.94048 -0.525281 0.153262 0
M  V30 22 N -4.23592 -0.759353 -0.100609 0
M  V30 23 H -6.80948 0.0399306 -1.93092 0
M  V30 24 H -6.97713 -0.596735 -0.26277 0
M  V30 25 H -3.18896 3.69079 -1.2841 0
M  V30 26 H -1.73869 2.90753 -1.94084 0
M  V30 27 H -0.697637 1.86841 -0.413895 0
M  V30 28 H 0.67665 1.35321 1.6868 0
M  V30 29 H 4.82604 0.149567 2.15745 0
M  V30 30 H 6.55769 -1.32464 1.3444 0
M  V30 31 H 4.06933 -2.62737 -1.81122 0
M  V30 32 H 2.29456 -1.17343 -1.05693 0
M  V30 33 H -0.192501 -1.83826 1.5972 0
M  V30 34 H -2.59941 -2.36426 1.17153 0
M  V30 END ATOM
M  V30 BEGIN BOND
M  V30 1 1 1 2
M  V30 2 2 2 3
M  V30 3 1 3 4
M  V30 4 1 4 5
M  V30 5 2 4 6
M  V30 6 1 6 7
M  V30 7 2 7 8
M  V30 8 1 8 9
M  V30 9 1 9 10
M  V30 10 2 10 11
M  V30 11 1 10 12
M  V30 12 2 12 13
M  V30 13 1 13 14
M  V30 14 2 14 15
M  V30 15 1 15 16
M  V30 16 1 15 17
M  V30 17 2 17 18
M  V30 18 1 8 19
M  V30 19 2 19 20
M  V30 20 1 20 21
M  V30 21 2 21 22
M  V30 22 1 22 2
M  V30 23 1 21 6
M  V30 24 1 18 12
M  V30 25 1 1 23
M  V30 26 1 1 24
M  V30 27 1 5 25
M  V30 28 1 5 26
M  V30 29 1 7 27
M  V30 30 1 9 28
M  V30 31 1 13 29
M  V30 32 1 14 30
M  V30 33 1 17 31
M  V30 34 1 18 32
M  V30 35 1 19 33
M  V30 36 1 20 34
M  V30 END BOND
M  V30 END CTAB
M  END
