
     RDKit          3D

  0  0  0  0  0  0  0  0  0  0999 V3000
M  V30 BEGIN CTAB
M  V30 COUNTS 32 34 0 0 0
M  V30 BEGIN ATOM
M  V30 1 N -2.65133 -2.46119 1.14617 0
M  V30 2 C -2.24447 -1.22335 0.562234 0
M  V30 3 C -0.96087 -0.72928 0.431925 0
M  V30 4 N -0.953187 0.474588 -0.171481 0
M  V30 5 C -2.22909 0.767026 -0.435226 0
M  V30 6 C -3.0575 -0.258627 0.00356243 0
M  V30 7 C -4.4237 -0.207136 -0.147161 0
M  V30 8 C -5.02862 0.865736 -0.740729 0
M  V30 9 C -4.24104 1.902 -1.189 0
M  V30 10 C -2.85911 1.84711 -1.03506 0
M  V30 11 C 0.174804 1.29007 -0.476952 0
M  V30 12 O 0.0439848 2.40078 -1.04574 0
M  V30 13 C 1.54077 0.849816 -0.130541 0
M  V30 14 C 2.20776 1.1985 1.03247 0
M  V30 15 C 3.44174 0.59796 0.98602 0
M  V30 16 C 3.47352 -0.0934618 -0.207563 0
M  V30 17 O 2.34507 0.0937622 -0.803548 0
M  V30 18 S 4.82368 -1.04664 -0.781714 0
M  V30 19 O 4.39239 -2.48106 -0.987703 0
M  V30 20 O 5.29871 -0.55212 -2.13815 0
M  V30 21 N 6.1136 -1.01125 0.358316 0
M  V30 22 H -3.51968 -2.94185 0.855642 0
M  V30 23 H -2.06326 -2.88971 1.87884 0
M  V30 24 H -0.0732911 -1.23576 0.767394 0
M  V30 25 H -5.02872 -1.02777 0.208795 0
M  V30 26 H -6.09522 0.898344 -0.854646 0
M  V30 27 H -4.72236 2.73505 -1.65086 0
M  V30 28 H -2.32014 2.694 -1.41079 0
M  V30 29 H 1.85013 1.82519 1.84434 0
M  V30 30 H 4.24608 0.628977 1.70191 0
M  V30 31 H 6.79803 -1.74892 0.0638166 0
M  V30 32 H 5.72133 -1.16078 1.30417 0
M  V30 END ATOM
M  V30 BEGIN BOND
M  V30 1 1 1 2
M  V30 2 2 2 3
M  V30 3 1 3 4
M  V30 4 1 4 5
M  V30 5 2 5 6
M  V30 6 1 6 7
M  V30 7 2 7 8
M  V30 8 1 8 9
M  V30 9 2 9 10
M  V30 10 1 4 11
M  V30 11 2 11 12
M  V30 12 1 11 13
M  V30 13 2 13 14
M  V30 14 1 14 15
M  V30 15 2 15 16
M  V30 16 1 16 17
M  V30 17 1 16 18
M  V30 18 2 18 19
M  V30 19 2 18 20
M  V30 20 1 18 21
M  V30 21 1 6 2
M  V30 22 1 17 13
M  V30 23 1 10 5
M  V30 24 1 1 22
M  V30 25 1 1 23
M  V30 26 1 3 24
M  V30 27 1 7 25
M  V30 28 1 8 26
M  V30 29 1 9 27
M  V30 30 1 10 28
M  V30 31 1 14 29
M  V30 32 1 15 30
M  V30 33 1 21 31
M  V30 34 1 21 32
M  V30 END BOND
M  V30 END CTAB
M  END
