
     RDKit          3D

  0  0  0  0  0  0  0  0  0  0999 V3000
M  V30 BEGIN CTAB
M  V30 COUNTS 22 23 0 0 0
M  V30 BEGIN ATOM
M  V30 1 Br -3.97805 0.148374 -2.10288 0
M  V30 2 C -3.3476 -0.546532 -0.392185 0
M  V30 3 C -1.99044 -0.0160031 -0.175699 0
M  V30 4 N -0.925932 -0.826805 -0.370781 0
M  V30 5 C 0.31291 -0.353046 -0.179096 0
M  V30 6 C 1.41354 -1.13846 -0.365974 0
M  V30 7 N 1.21288 -2.48284 -0.773204 0
M  V30 8 N 2.67763 -0.656688 -0.171094 0
M  V30 9 C 2.87471 0.614663 0.213056 0
M  V30 10 N 1.79138 1.37853 0.394089 0
M  V30 11 C 0.518343 0.952211 0.215234 0
M  V30 12 N -0.560657 1.7439 0.404283 0
M  V30 13 C -1.81603 1.29038 0.217531 0
M  V30 14 O -2.91454 2.13013 0.419169 0
M  V30 15 N 4.20319 1.11764 0.416841 0
M  V30 16 H -4.03594 -0.163986 0.388008 0
M  V30 17 H -3.39599 -1.6421 -0.354489 0
M  V30 18 H 1.47275 -2.8083 -1.73173 0
M  V30 19 H 0.796508 -3.12177 -0.0753119 0
M  V30 20 H -3.71223 1.7811 0.892446 0
M  V30 21 H 4.39221 1.98671 0.956817 0
M  V30 22 H 5.01136 0.612904 0.0233678 0
M  V30 END ATOM
M  V30 BEGIN BOND
M  V30 1 1 1 2
M  V30 2 1 2 3
M  V30 3 2 3 4
M  V30 4 1 4 5
M  V30 5 2 5 6
M  V30 6 1 6 7
M  V30 7 1 6 8
M  V30 8 2 8 9
M  V30 9 1 9 10
M  V30 10 2 10 11
M  V30 11 1 11 12
M  V30 12 2 12 13
M  V30 13 1 13 14
M  V30 14 1 9 15
M  V30 15 1 13 3
M  V30 16 1 11 5
M  V30 17 1 2 16
M  V30 18 1 2 17
M  V30 19 1 7 18
M  V30 20 1 7 19
M  V30 21 1 14 20
M  V30 22 1 15 21
M  V30 23 1 15 22
M  V30 END BOND
M  V30 END CTAB
M  END
