
     RDKit          3D

  0  0  0  0  0  0  0  0  0  0999 V3000
M  V30 BEGIN CTAB
M  V30 COUNTS 22 22 0 0 0
M  V30 BEGIN ATOM
M  V30 1 Br -1.81332 -4.0388 -0.4505 0
M  V30 2 C -1.20453 -2.23332 -0.293454 0
M  V30 3 C -2.1061 -1.23025 -0.0119415 0
M  V30 4 C -1.64309 0.0848876 0.099377 0
M  V30 5 N -2.52941 1.15254 0.387544 0
M  V30 6 C -0.308931 0.393464 -0.0665401 0
M  V30 7 C 0.582186 -0.61717 -0.347481 0
M  V30 8 C 0.136672 -1.90372 -0.457535 0
M  V30 9 S 2.2587 -0.241679 -0.558058 0
M  V30 10 O 3.0612 -1.51571 -0.774929 0
M  V30 11 O 2.54122 0.667986 -1.68943 0
M  V30 12 N 2.88619 0.480518 0.880062 0
M  V30 13 C 0.156979 1.7831 0.0549911 0
M  V30 14 H -3.17104 -1.41494 0.129108 0
M  V30 15 H -2.32896 1.7424 1.21614 0
M  V30 16 H -3.34956 1.34035 -0.206013 0
M  V30 17 H 0.794262 -2.74848 -0.678681 0
M  V30 18 H 2.31499 0.233579 1.72009 0
M  V30 19 H 3.00907 1.48826 0.742481 0
M  V30 20 H 0.762512 2.12544 -0.807484 0
M  V30 21 H -0.723223 2.49242 0.0817738 0
M  V30 22 H 0.674176 1.95912 1.03049 0
M  V30 END ATOM
M  V30 BEGIN BOND
M  V30 1 1 1 2
M  V30 2 2 2 3
M  V30 3 1 3 4
M  V30 4 1 4 5
M  V30 5 2 4 6
M  V30 6 1 6 7
M  V30 7 2 7 8
M  V30 8 1 7 9
M  V30 9 2 9 10
M  V30 10 2 9 11
M  V30 11 1 9 12
M  V30 12 1 6 13
M  V30 13 1 8 2
M  V30 14 1 3 14
M  V30 15 1 5 15
M  V30 16 1 5 16
M  V30 17 1 8 17
M  V30 18 1 12 18
M  V30 19 1 12 19
M  V30 20 1 13 20
M  V30 21 1 13 21
M  V30 22 1 13 22
M  V30 END BOND
M  V30 END CTAB
M  END
