
     RDKit          3D

  0  0  0  0  0  0  0  0  0  0999 V3000
M  V30 BEGIN CTAB
M  V30 COUNTS 34 34 0 0 0
M  V30 BEGIN ATOM
M  V30 1 N -1.83698 2.23572 -0.0599885 0
M  V30 2 C -2.23703 1.14202 0.75062 0
M  V30 3 C -1.54189 -0.1624 0.423472 0
M  V30 4 N -2.10927 -1.13285 1.37691 0
M  V30 5 C -1.9162 -0.677202 -0.950437 0
M  V30 6 C -0.729847 -1.46151 -1.52711 0
M  V30 7 C 0.4561 -0.543155 -1.72053 0
M  V30 8 C 0.741249 0.307236 -0.526409 0
M  V30 9 C -0.0708585 -0.132591 0.669772 0
M  V30 10 C 2.20443 0.314763 -0.151212 0
M  V30 11 C 2.4149 1.20028 1.06917 0
M  V30 12 C 2.75865 -1.03357 0.143077 0
M  V30 13 H -1.74634 3.13254 0.459544 0
M  V30 14 H -2.31703 2.32135 -0.973371 0
M  V30 15 H -1.98207 1.37165 1.81106 0
M  V30 16 H -3.3344 0.948723 0.620496 0
M  V30 17 H -2.04373 -0.794079 2.34136 0
M  V30 18 H -1.7565 -2.08926 1.20704 0
M  V30 19 H -2.20627 0.117032 -1.63834 0
M  V30 20 H -2.74963 -1.41004 -0.918862 0
M  V30 21 H -0.505199 -2.30866 -0.867035 0
M  V30 22 H -1.03889 -1.84655 -2.52 0
M  V30 23 H 1.33124 -1.17975 -1.96354 0
M  V30 24 H 0.196855 0.0947552 -2.61683 0
M  V30 25 H 0.495097 1.36663 -0.780241 0
M  V30 26 H 0.141642 0.506965 1.53659 0
M  V30 27 H 0.245131 -1.16277 0.951232 0
M  V30 28 H 2.77247 0.780334 -0.981191 0
M  V30 29 H 2.14446 0.677535 2.00954 0
M  V30 30 H 1.84734 2.15044 0.984893 0
M  V30 31 H 3.50825 1.42577 1.13729 0
M  V30 32 H 2.16887 -1.88019 -0.243238 0
M  V30 33 H 2.92463 -1.16474 1.25008 0
M  V30 34 H 3.77082 -1.11441 -0.303813 0
M  V30 END ATOM
M  V30 BEGIN BOND
M  V30 1 1 1 2
M  V30 2 1 2 3
M  V30 3 1 3 4
M  V30 4 1 3 5
M  V30 5 1 5 6
M  V30 6 1 6 7
M  V30 7 1 7 8
M  V30 8 1 8 9
M  V30 9 1 8 10
M  V30 10 1 10 11
M  V30 11 1 10 12
M  V30 12 1 9 3
M  V30 13 1 1 13
M  V30 14 1 1 14
M  V30 15 1 2 15
M  V30 16 1 2 16
M  V30 17 1 4 17
M  V30 18 1 4 18
M  V30 19 1 5 19
M  V30 20 1 5 20
M  V30 21 1 6 21
M  V30 22 1 6 22
M  V30 23 1 7 23
M  V30 24 1 7 24
M  V30 25 1 8 25
M  V30 26 1 9 26
M  V30 27 1 9 27
M  V30 28 1 10 28
M  V30 29 1 11 29
M  V30 30 1 11 30
M  V30 31 1 11 31
M  V30 32 1 12 32
M  V30 33 1 12 33
M  V30 34 1 12 34
M  V30 END BOND
M  V30 END CTAB
M  END
