
     RDKit          3D

  0  0  0  0  0  0  0  0  0  0999 V3000
M  V30 BEGIN CTAB
M  V30 COUNTS 21 21 0 0 0
M  V30 BEGIN ATOM
M  V30 1 N -3.51599 -0.175323 0.937106 0
M  V30 2 C -2.63104 0.00615329 -0.157016 0
M  V30 3 N -2.84223 0.962984 -0.984664 0
M  V30 4 N -1.54587 -0.903388 -0.266298 0
M  V30 5 C -0.201334 -0.505716 -0.0559088 0
M  V30 6 C 0.133168 0.804244 0.27118 0
M  V30 7 C 1.44418 1.14514 0.465687 0
M  V30 8 C 2.48532 0.246712 0.354905 0
M  V30 9 N 3.81485 0.661666 0.567861 0
M  V30 10 C 2.14748 -1.05911 0.0284588 0
M  V30 11 C 0.824505 -1.4174 -0.171065 0
M  V30 12 H -3.22753 -0.169709 1.93571 0
M  V30 13 H -4.5448 -0.328564 0.747697 0
M  V30 14 H -3.66109 1.58367 -0.830743 0
M  V30 15 H -1.73257 -1.89644 -0.508219 0
M  V30 16 H -0.689176 1.50333 0.356289 0
M  V30 17 H 1.66018 2.17748 0.719199 0
M  V30 18 H 4.2871 1.23857 -0.140647 0
M  V30 19 H 4.30349 0.384517 1.43053 0
M  V30 20 H 2.9093 -1.80031 -0.0716172 0
M  V30 21 H 0.58205 -2.45852 -0.42894 0
M  V30 END ATOM
M  V30 BEGIN BOND
M  V30 1 1 1 2
M  V30 2 2 2 3 CFG=2
M  V30 3 1 2 4
M  V30 4 1 4 5
M  V30 5 2 5 6
M  V30 6 1 6 7
M  V30 7 2 7 8
M  V30 8 1 8 9
M  V30 9 1 8 10
M  V30 10 2 10 11
M  V30 11 1 11 5
M  V30 12 1 1 12
M  V30 13 1 1 13
M  V30 14 1 3 14
M  V30 15 1 4 15
M  V30 16 1 6 16
M  V30 17 1 7 17
M  V30 18 1 9 18
M  V30 19 1 9 19
M  V30 20 1 10 20
M  V30 21 1 11 21
M  V30 END BOND
M  V30 END CTAB
M  END
