
     RDKit          3D

  0  0  0  0  0  0  0  0  0  0999 V3000
M  V30 BEGIN CTAB
M  V30 COUNTS 24 26 0 0 0
M  V30 BEGIN ATOM
M  V30 1 N 4.3257 -0.829457 -0.764559 0
M  V30 2 C 2.99484 -0.47306 -0.448228 0
M  V30 3 N 2.6892 0.518053 0.362701 0
M  V30 4 C 1.38898 0.846163 0.655471 0
M  V30 5 N 1.29713 1.92335 1.53195 0
M  V30 6 C 0.400581 0.118675 0.0848268 0
M  V30 7 C 0.732729 -0.947374 -0.787484 0
M  V30 8 N 2.01814 -1.18217 -1.00419 0
M  V30 9 N -0.404486 -1.50803 -1.21965 0
M  V30 10 C -1.43221 -0.848732 -0.663506 0
M  V30 11 C -0.973086 0.179721 0.162239 0
M  V30 12 C -1.83404 0.990844 0.838281 0
M  V30 13 Cl -1.42538 2.29807 1.89142 0
M  V30 14 C -3.20502 0.737337 0.660236 0
M  V30 15 C -3.67425 -0.262756 -0.142277 0
M  V30 16 C -2.78628 -1.05707 -0.805216 0
M  V30 17 H 4.65872 -0.601788 -1.73373 0
M  V30 18 H 4.89725 -1.29021 -0.0361329 0
M  V30 19 H 1.30437 1.72996 2.57869 0
M  V30 20 H 1.27411 2.93121 1.26182 0
M  V30 21 H -0.453393 -2.31346 -1.87262 0
M  V30 22 H -3.90546 1.36142 1.18115 0
M  V30 23 H -4.72572 -0.465598 -0.285643 0
M  V30 24 H -3.16243 -1.85509 -1.44555 0
M  V30 END ATOM
M  V30 BEGIN BOND
M  V30 1 1 1 2
M  V30 2 2 2 3
M  V30 3 1 3 4
M  V30 4 1 4 5
M  V30 5 2 4 6
M  V30 6 1 6 7
M  V30 7 2 7 8
M  V30 8 1 7 9
M  V30 9 1 9 10
M  V30 10 2 10 11
M  V30 11 1 11 12
M  V30 12 1 12 13
M  V30 13 2 12 14
M  V30 14 1 14 15
M  V30 15 2 15 16
M  V30 16 1 8 2
M  V30 17 1 16 10
M  V30 18 1 11 6
M  V30 19 1 1 17
M  V30 20 1 1 18
M  V30 21 1 5 19
M  V30 22 1 5 20
M  V30 23 1 9 21
M  V30 24 1 14 22
M  V30 25 1 15 23
M  V30 26 1 16 24
M  V30 END BOND
M  V30 END CTAB
M  END
