
     RDKit          3D

  0  0  0  0  0  0  0  0  0  0999 V3000
M  V30 BEGIN CTAB
M  V30 COUNTS 38 39 0 0 0
M  V30 BEGIN ATOM
M  V30 1 C -5.17036 -0.632981 1.83704 0
M  V30 2 C -5.06362 -0.241162 0.386459 0
M  V30 3 O -3.71084 0.1539 0.148134 0
M  V30 4 C -2.9409 -0.434895 -0.827624 0
M  V30 5 O -3.49955 -1.34842 -1.50745 0
M  V30 6 C -1.55864 -0.0615979 -1.0996 0
M  V30 7 C -0.896718 0.914582 -0.38665 0
M  V30 8 C 0.412451 1.29245 -0.618998 0
M  V30 9 N 0.949552 2.33224 0.198506 0
M  V30 10 C 1.10511 0.660979 -1.62067 0
M  V30 11 C 0.443884 -0.336332 -2.3569 0
M  V30 12 C -0.856111 -0.702241 -2.11657 0
M  V30 13 Cl 1.32932 -1.14514 -3.64167 0
M  V30 14 S 2.7892 1.08377 -1.95993 0
M  V30 15 C 3.97165 0.0862823 -1.0776 0
M  V30 16 N 4.48105 -1.11912 -1.4879 0
M  V30 17 N 5.33152 -1.54445 -0.59658 0
M  V30 18 C 5.40404 -0.652278 0.401083 0
M  V30 19 N 4.55662 0.361345 0.0977914 0
M  V30 20 N 4.39848 1.4752 0.928394 0
M  V30 21 C 6.27534 -0.800908 1.60149 0
M  V30 22 C -5.97254 0.972544 0.166591 0
M  V30 23 H -6.22809 -0.951507 2.01823 0
M  V30 24 H -4.99121 0.30123 2.42007 0
M  V30 25 H -4.46416 -1.41142 2.15144 0
M  V30 26 H -5.32683 -1.04158 -0.308304 0
M  V30 27 H -1.44799 1.40405 0.40011 0
M  V30 28 H 1.37842 2.10647 1.11746 0
M  V30 29 H 0.930985 3.33311 -0.0901536 0
M  V30 30 H -1.36741 -1.46917 -2.6809 0
M  V30 31 H 4.09749 2.37692 0.518513 0
M  V30 32 H 4.57397 1.42299 1.95081 0
M  V30 33 H 6.47167 0.196962 2.07648 0
M  V30 34 H 7.29369 -1.16033 1.29283 0
M  V30 35 H 5.8934 -1.55377 2.30688 0
M  V30 36 H -5.34623 1.86722 0.143403 0
M  V30 37 H -6.53045 0.84719 -0.783152 0
M  V30 38 H -6.71623 1.04742 0.998932 0
M  V30 END ATOM
M  V30 BEGIN BOND
M  V30 1 1 1 2
M  V30 2 1 2 3
M  V30 3 1 3 4
M  V30 4 2 4 5
M  V30 5 1 4 6
M  V30 6 2 6 7
M  V30 7 1 7 8
M  V30 8 1 8 9
M  V30 9 2 8 10
M  V30 10 1 10 11
M  V30 11 2 11 12
M  V30 12 1 11 13
M  V30 13 1 10 14
M  V30 14 1 14 15
M  V30 15 2 15 16
M  V30 16 1 16 17
M  V30 17 2 17 18
M  V30 18 1 18 19
M  V30 19 1 19 20
M  V30 20 1 18 21
M  V30 21 1 2 22
M  V30 22 1 12 6
M  V30 23 1 19 15
M  V30 24 1 1 23
M  V30 25 1 1 24
M  V30 26 1 1 25
M  V30 27 1 2 26
M  V30 28 1 7 27
M  V30 29 1 9 28
M  V30 30 1 9 29
M  V30 31 1 12 30
M  V30 32 1 20 31
M  V30 33 1 20 32
M  V30 34 1 21 33
M  V30 35 1 21 34
M  V30 36 1 21 35
M  V30 37 1 22 36
M  V30 38 1 22 37
M  V30 39 1 22 38
M  V30 END BOND
M  V30 END CTAB
M  END
