
     RDKit          3D

  0  0  0  0  0  0  0  0  0  0999 V3000
M  V30 BEGIN CTAB
M  V30 COUNTS 26 26 0 0 0
M  V30 BEGIN ATOM
M  V30 1 N 3.66895 1.24931 -0.209343 0
M  V30 2 C 2.80011 0.671726 0.741886 0
M  V30 3 S 3.26798 0.693433 2.30377 0
M  V30 4 N 1.56645 0.0928709 0.363413 0
M  V30 5 C 1.20948 0.106009 -1.0407 0
M  V30 6 C -0.284282 0.461843 -1.07837 0
M  V30 7 C -0.965757 -0.72571 -0.438874 0
M  V30 8 C -0.678872 -0.691071 1.0202 0
M  V30 9 C 0.735807 -0.475068 1.38636 0
M  V30 10 S -2.69806 -0.773285 -0.785991 0
M  V30 11 O -3.25762 -1.99426 -0.0949991 0
M  V30 12 O -2.97774 -0.930628 -2.24508 0
M  V30 13 N -3.50074 0.642645 -0.210993 0
M  V30 14 H 3.35804 1.91244 -0.931865 0
M  V30 15 H 4.69524 0.991188 -0.183817 0
M  V30 16 H 1.32828 -0.950767 -1.42071 0
M  V30 17 H 1.79888 0.801314 -1.63607 0
M  V30 18 H -0.39808 1.32326 -0.391407 0
M  V30 19 H -0.629161 0.671144 -2.09808 0
M  V30 20 H -0.535579 -1.67968 -0.847412 0
M  V30 21 H -1.12076 -1.60697 1.47419 0
M  V30 22 H -1.28252 0.157375 1.45918 0
M  V30 23 H 0.818594 0.200462 2.284 0
M  V30 24 H 1.17926 -1.46594 1.66811 0
M  V30 25 H -3.67637 0.591346 0.813623 0
M  V30 26 H -4.42154 0.72701 -0.707213 0
M  V30 END ATOM
M  V30 BEGIN BOND
M  V30 1 1 1 2
M  V30 2 2 2 3
M  V30 3 1 2 4
M  V30 4 1 4 5
M  V30 5 1 5 6
M  V30 6 1 6 7
M  V30 7 1 7 8
M  V30 8 1 8 9
M  V30 9 1 7 10
M  V30 10 2 10 11
M  V30 11 2 10 12
M  V30 12 1 10 13
M  V30 13 1 9 4
M  V30 14 1 1 14
M  V30 15 1 1 15
M  V30 16 1 5 16
M  V30 17 1 5 17
M  V30 18 1 6 18
M  V30 19 1 6 19
M  V30 20 1 7 20
M  V30 21 1 8 21
M  V30 22 1 8 22
M  V30 23 1 9 23
M  V30 24 1 9 24
M  V30 25 1 13 25
M  V30 26 1 13 26
M  V30 END BOND
M  V30 END CTAB
M  END
