
     RDKit          3D

  0  0  0  0  0  0  0  0  0  0999 V3000
M  V30 BEGIN CTAB
M  V30 COUNTS 43 44 0 0 0
M  V30 BEGIN ATOM
M  V30 1 N -3.97349 -1.58038 1.56627 0
M  V30 2 C -3.02073 -2.4242 0.948933 0
M  V30 3 C -2.57 -2.07988 -0.41941 0
M  V30 4 N -1.94072 -0.724859 -0.492883 0
M  V30 5 C -0.581665 -0.66185 -0.212254 0
M  V30 6 O -0.0852923 -1.9118 -0.00594946 0
M  V30 7 N 0.425141 0.268118 -0.0750958 0
M  V30 8 C 1.77433 -0.347776 0.126005 0
M  V30 9 C 2.22694 -1.24254 -0.810564 0
M  V30 10 C 3.46498 -1.86288 -0.677418 0
M  V30 11 C 4.23026 -1.54997 0.431212 0
M  V30 12 C 3.78404 -0.648757 1.3814 0
M  V30 13 C 2.53358 -0.051891 1.20364 0
M  V30 14 N 5.49615 -2.15636 0.617899 0
M  V30 15 C 0.487432 1.67157 -0.0262008 0
M  V30 16 C 0.945946 2.45962 -1.08779 0
M  V30 17 C 1.05574 3.82409 -1.02588 0
M  V30 18 C 0.696537 4.47889 0.148401 0
M  V30 19 C 0.238054 3.75562 1.22801 0
M  V30 20 C 0.142149 2.39118 1.12766 0
M  V30 21 C -2.7715 0.301678 -0.909043 0
M  V30 22 O -2.38546 1.48264 -1.0006 0
M  V30 23 C -4.21622 0.119262 -1.29877 0
M  V30 24 H -4.90336 -1.69505 1.12644 0
M  V30 25 H -3.69683 -0.613931 1.70232 0
M  V30 26 H -2.12084 -2.61448 1.62079 0
M  V30 27 H -3.50739 -3.44593 0.870672 0
M  V30 28 H -3.32638 -2.23003 -1.15055 0
M  V30 29 H -1.7497 -2.83318 -0.668771 0
M  V30 30 H 1.66222 -1.50752 -1.68211 0
M  V30 31 H 3.81713 -2.5696 -1.42239 0
M  V30 32 H 4.37554 -0.390764 2.25994 0
M  V30 33 H 2.18708 0.653407 1.94489 0
M  V30 34 H 5.58687 -3.1899 0.530389 0
M  V30 35 H 6.32564 -1.59626 0.838404 0
M  V30 36 H 1.23539 1.98451 -2.01341 0
M  V30 37 H 1.41338 4.43822 -1.85088 0
M  V30 38 H 0.779212 5.54948 0.211924 0
M  V30 39 H -0.0488648 4.2658 2.16169 0
M  V30 40 H -0.213149 1.83476 1.96865 0
M  V30 41 H -4.46541 -0.859169 -1.68084 0
M  V30 42 H -4.90603 0.396909 -0.47192 0
M  V30 43 H -4.40071 0.91319 -2.09713 0
M  V30 END ATOM
M  V30 BEGIN BOND
M  V30 1 1 1 2
M  V30 2 1 2 3
M  V30 3 1 3 4
M  V30 4 1 4 5
M  V30 5 2 5 6
M  V30 6 1 5 7
M  V30 7 1 7 8
M  V30 8 2 8 9
M  V30 9 1 9 10
M  V30 10 2 10 11
M  V30 11 1 11 12
M  V30 12 2 12 13
M  V30 13 1 11 14
M  V30 14 1 7 15
M  V30 15 2 15 16
M  V30 16 1 16 17
M  V30 17 2 17 18
M  V30 18 1 18 19
M  V30 19 2 19 20
M  V30 20 1 4 21
M  V30 21 2 21 22
M  V30 22 1 21 23
M  V30 23 1 13 8
M  V30 24 1 20 15
M  V30 25 1 1 24
M  V30 26 1 1 25
M  V30 27 1 2 26
M  V30 28 1 2 27
M  V30 29 1 3 28
M  V30 30 1 3 29
M  V30 31 1 9 30
M  V30 32 1 10 31
M  V30 33 1 12 32
M  V30 34 1 13 33
M  V30 35 1 14 34
M  V30 36 1 14 35
M  V30 37 1 16 36
M  V30 38 1 17 37
M  V30 39 1 18 38
M  V30 40 1 19 39
M  V30 41 1 20 40
M  V30 42 1 23 41
M  V30 43 1 23 42
M  V30 44 1 23 43
M  V30 END BOND
M  V30 END CTAB
M  END
