
     RDKit          3D

  0  0  0  0  0  0  0  0  0  0999 V3000
M  V30 BEGIN CTAB
M  V30 COUNTS 29 29 0 0 0
M  V30 BEGIN ATOM
M  V30 1 C -2.55915 1.09296 -1.24392 0
M  V30 2 O -1.62783 0.989673 -0.244979 0
M  V30 3 C -1.59283 -0.24894 0.368982 0
M  V30 4 C -0.530653 -0.236102 1.44734 0
M  V30 5 C 0.808025 0.0472098 0.924317 0
M  V30 6 N 1.57836 -0.983894 0.529849 0
M  V30 7 C 2.82487 -0.800129 0.0365413 0
M  V30 8 N 3.64402 -1.8936 -0.382673 0
M  V30 9 N 3.31642 0.463167 -0.0647661 0
M  V30 10 C 2.55669 1.51273 0.326826 0
M  V30 11 N 1.33805 1.27651 0.804673 0
M  V30 12 N 3.11377 2.81212 0.201647 0
M  V30 13 C -1.30606 -1.33289 -0.658259 0
M  V30 14 C -2.89704 -0.608517 1.03657 0
M  V30 15 H -2.38863 0.363796 -2.06412 0
M  V30 16 H -2.47385 2.10579 -1.68673 0
M  V30 17 H -3.60982 0.992802 -0.904751 0
M  V30 18 H -0.859788 0.547561 2.18607 0
M  V30 19 H -0.591112 -1.19905 2.00128 0
M  V30 20 H 3.24545 -2.65016 -0.959653 0
M  V30 21 H 4.6597 -1.94422 -0.111449 0
M  V30 22 H 3.89926 3.01913 -0.431256 0
M  V30 23 H 2.70902 3.59606 0.777901 0
M  V30 24 H -0.985235 -2.26101 -0.122373 0
M  V30 25 H -0.532203 -1.00101 -1.3848 0
M  V30 26 H -2.23882 -1.49765 -1.22963 0
M  V30 27 H -3.04813 0.119119 1.86246 0
M  V30 28 H -2.71343 -1.59357 1.55522 0
M  V30 29 H -3.73906 -0.68788 0.34554 0
M  V30 END ATOM
M  V30 BEGIN BOND
M  V30 1 1 1 2
M  V30 2 1 2 3
M  V30 3 1 3 4
M  V30 4 1 4 5
M  V30 5 2 5 6
M  V30 6 1 6 7
M  V30 7 1 7 8
M  V30 8 2 7 9
M  V30 9 1 9 10
M  V30 10 2 10 11
M  V30 11 1 10 12
M  V30 12 1 3 13
M  V30 13 1 3 14
M  V30 14 1 11 5
M  V30 15 1 1 15
M  V30 16 1 1 16
M  V30 17 1 1 17
M  V30 18 1 4 18
M  V30 19 1 4 19
M  V30 20 1 8 20
M  V30 21 1 8 21
M  V30 22 1 12 22
M  V30 23 1 12 23
M  V30 24 1 13 24
M  V30 25 1 13 25
M  V30 26 1 13 26
M  V30 27 1 14 27
M  V30 28 1 14 28
M  V30 29 1 14 29
M  V30 END BOND
M  V30 END CTAB
M  END
