
     RDKit          3D

  0  0  0  0  0  0  0  0  0  0999 V3000
M  V30 BEGIN CTAB
M  V30 COUNTS 28 28 0 0 0
M  V30 BEGIN ATOM
M  V30 1 C 3.71065 0.466411 -0.0744928 0
M  V30 2 C 2.37265 -0.307404 -0.187842 0
M  V30 3 C 2.27913 -1.06372 1.11571 0
M  V30 4 C 1.32841 0.673809 -0.329377 0
M  V30 5 N -0.0344483 0.387028 -0.462286 0
M  V30 6 C -0.68643 0.125675 -1.61334 0
M  V30 7 O 0.00059018 0.122245 -2.65267 0
M  V30 8 N -1.99503 -0.1255 -1.71532 0
M  V30 9 C -2.77312 -0.13125 -0.616058 0
M  V30 10 N -4.147 -0.403454 -0.788911 0
M  V30 11 C -2.16508 0.127116 0.572842 0
M  V30 12 N -2.9691 0.126423 1.75116 0
M  V30 13 C -0.80032 0.385184 0.645249 0
M  V30 14 O -0.374007 0.610181 1.81094 0
M  V30 15 H 3.70858 1.05467 0.874346 0
M  V30 16 H 3.79132 1.20582 -0.900161 0
M  V30 17 H 4.56472 -0.223527 -0.137054 0
M  V30 18 H 2.57889 -0.980223 -1.04781 0
M  V30 19 H 1.31805 -1.61477 1.23992 0
M  V30 20 H 2.31575 -0.337082 1.9544 0
M  V30 21 H 3.14864 -1.77275 1.21737 0
M  V30 22 H 1.58764 1.33417 -1.22191 0
M  V30 23 H 1.44652 1.42507 0.515983 0
M  V30 24 H -2.42082 -0.320187 -2.66099 0
M  V30 25 H -4.59873 -1.12127 -0.201978 0
M  V30 26 H -4.68695 0.11386 -1.49649 0
M  V30 27 H -3.98316 0.288315 1.72893 0
M  V30 28 H -2.51736 -0.0448471 2.67984 0
M  V30 END ATOM
M  V30 BEGIN BOND
M  V30 1 1 1 2
M  V30 2 1 2 3
M  V30 3 1 2 4
M  V30 4 1 4 5
M  V30 5 1 5 6
M  V30 6 2 6 7
M  V30 7 1 6 8
M  V30 8 1 8 9
M  V30 9 1 9 10
M  V30 10 2 9 11
M  V30 11 1 11 12
M  V30 12 1 11 13
M  V30 13 2 13 14
M  V30 14 1 13 5
M  V30 15 1 1 15
M  V30 16 1 1 16
M  V30 17 1 1 17
M  V30 18 1 2 18
M  V30 19 1 3 19
M  V30 20 1 3 20
M  V30 21 1 3 21
M  V30 22 1 4 22
M  V30 23 1 4 23
M  V30 24 1 8 24
M  V30 25 1 10 25
M  V30 26 1 10 26
M  V30 27 1 12 27
M  V30 28 1 12 28
M  V30 END BOND
M  V30 END CTAB
M  END
