
     RDKit          3D

  0  0  0  0  0  0  0  0  0  0999 V3000
M  V30 BEGIN CTAB
M  V30 COUNTS 36 38 0 0 0
M  V30 BEGIN ATOM
M  V30 1 C -5.93596 1.32477 0.182023 0
M  V30 2 C -4.63272 0.606252 0.141131 0
M  V30 3 C -3.50383 1.38878 0.269273 0
M  V30 4 C -2.26966 0.795499 0.305521 0
M  V30 5 C -2.24223 -0.580314 0.204912 0
M  V30 6 C -3.3431 -1.37853 0.0800693 0
M  V30 7 C -4.58008 -0.779017 0.0435161 0
M  V30 8 O -3.27626 -2.71039 0.0135091 0
M  V30 9 C -2.08926 -3.27815 0.089923 0
M  V30 10 O -2.07394 -4.54306 0.0253491 0
M  V30 11 C -0.936064 -2.52047 0.229001 0
M  V30 12 C -0.982562 -1.14971 0.287388 0
M  V30 13 C 0.183857 -0.304154 0.191966 0
M  V30 14 S 1.23123 -0.19259 1.66759 0
M  V30 15 C 2.8365 0.336069 0.96092 0
M  V30 16 N 3.87799 0.494767 1.77751 0
M  V30 17 C 5.11159 0.78643 1.24939 0
M  V30 18 N 6.20591 0.809157 2.13985 0
M  V30 19 C 5.23015 0.918092 -0.100703 0
M  V30 20 C 4.16763 0.755565 -0.922796 0
M  V30 21 N 2.96475 0.451343 -0.363199 0
M  V30 22 N 4.2523 0.83988 -2.31627 0
M  V30 23 H -6.19602 1.86995 -0.717332 0
M  V30 24 H -6.74299 0.582201 0.429666 0
M  V30 25 H -5.93429 2.0463 1.05513 0
M  V30 26 H -3.59453 2.45563 0.345151 0
M  V30 27 H -1.37054 1.39742 0.46005 0
M  V30 28 H -5.51072 -1.29624 -0.063473 0
M  V30 29 H 0.00269381 -3.04876 0.274647 0
M  V30 30 H 0.933878 -0.967226 -0.521474 0
M  V30 31 H 0.178455 0.598352 -0.400014 0
M  V30 32 H 6.52629 1.60095 2.67312 0
M  V30 33 H 6.71487 -0.14389 2.25388 0
M  V30 34 H 6.22305 1.19271 -0.489103 0
M  V30 35 H 4.33551 1.71001 -2.88462 0
M  V30 36 H 4.23809 -0.0676038 -2.88707 0
M  V30 END ATOM
M  V30 BEGIN BOND
M  V30 1 1 1 2
M  V30 2 2 2 3
M  V30 3 1 3 4
M  V30 4 2 4 5
M  V30 5 1 5 6
M  V30 6 2 6 7
M  V30 7 1 6 8
M  V30 8 1 8 9
M  V30 9 2 9 10
M  V30 10 1 9 11
M  V30 11 2 11 12
M  V30 12 1 12 13
M  V30 13 1 13 14
M  V30 14 1 14 15
M  V30 15 2 15 16
M  V30 16 1 16 17
M  V30 17 1 17 18
M  V30 18 2 17 19
M  V30 19 1 19 20
M  V30 20 2 20 21
M  V30 21 1 20 22
M  V30 22 1 7 2
M  V30 23 1 21 15
M  V30 24 1 12 5
M  V30 25 1 1 23
M  V30 26 1 1 24
M  V30 27 1 1 25
M  V30 28 1 3 26
M  V30 29 1 4 27
M  V30 30 1 7 28
M  V30 31 1 11 29
M  V30 32 1 13 30
M  V30 33 1 13 31
M  V30 34 1 18 32
M  V30 35 1 18 33
M  V30 36 1 19 34
M  V30 37 1 22 35
M  V30 38 1 22 36
M  V30 END BOND
M  V30 END CTAB
M  END
