
     RDKit          3D

  0  0  0  0  0  0  0  0  0  0999 V3000
M  V30 BEGIN CTAB
M  V30 COUNTS 36 37 0 0 0
M  V30 BEGIN ATOM
M  V30 1 N 7.89223 0.45748 -0.121706 0
M  V30 2 C 6.51376 0.327087 -0.382076 0
M  V30 3 N 5.7319 1.25033 0.0946843 0
M  V30 4 N 4.36904 1.20731 -0.108945 0
M  V30 5 C 3.56448 0.438511 0.535283 0
M  V30 6 C 2.13717 0.443055 0.271017 0
M  V30 7 C 1.29257 -0.398862 0.98313 0
M  V30 8 C -0.0655008 -0.442085 0.780571 0
M  V30 9 C -0.62797 0.381342 -0.168442 0
M  V30 10 C 0.217532 1.21407 -0.870946 0
M  V30 11 C 1.57943 1.27423 -0.6851 0
M  V30 12 O -2.00038 0.383285 -0.420051 0
M  V30 13 C -2.82648 -0.490964 0.328667 0
M  V30 14 C -4.23369 -0.36358 -0.0582597 0
M  V30 15 C -4.7121 0.497483 -1.03067 0
M  V30 16 C -6.04818 0.573027 -1.35135 0
M  V30 17 C -6.96062 -0.223835 -0.697916 0
M  V30 18 C -6.51952 -1.10794 0.291404 0
M  V30 19 C -5.1679 -1.15506 0.585684 0
M  V30 20 Cl -4.62574 -2.27708 1.838 0
M  V30 21 N 5.9481 -0.737634 -1.12214 0
M  V30 22 H 8.56565 0.386582 -0.911385 0
M  V30 23 H 8.26308 0.621027 0.823462 0
M  V30 24 H 3.95892 -0.224468 1.28877 0
M  V30 25 H 1.75562 -1.03927 1.72587 0
M  V30 26 H -0.653264 -1.11923 1.36996 0
M  V30 27 H -0.196879 1.8733 -1.62419 0
M  V30 28 H 2.19205 1.94655 -1.26502 0
M  V30 29 H -2.50164 -1.52967 0.0494552 0
M  V30 30 H -2.68016 -0.323432 1.43483 0
M  V30 31 H -3.97851 1.11463 -1.53184 0
M  V30 32 H -6.42644 1.2406 -2.10659 0
M  V30 33 H -8.02503 -0.207601 -0.908196 0
M  V30 34 H -7.23036 -1.73567 0.80758 0
M  V30 35 H 5.14985 -1.29041 -0.757669 0
M  V30 36 H 6.349 -0.963106 -2.05147 0
M  V30 END ATOM
M  V30 BEGIN BOND
M  V30 1 1 1 2
M  V30 2 2 2 3
M  V30 3 1 3 4
M  V30 4 2 4 5
M  V30 5 1 5 6
M  V30 6 2 6 7
M  V30 7 1 7 8
M  V30 8 2 8 9
M  V30 9 1 9 10
M  V30 10 2 10 11
M  V30 11 1 9 12
M  V30 12 1 12 13
M  V30 13 1 13 14
M  V30 14 2 14 15
M  V30 15 1 15 16
M  V30 16 2 16 17
M  V30 17 1 17 18
M  V30 18 2 18 19
M  V30 19 1 19 20
M  V30 20 1 2 21
M  V30 21 1 11 6
M  V30 22 1 19 14
M  V30 23 1 1 22
M  V30 24 1 1 23
M  V30 25 1 5 24
M  V30 26 1 7 25
M  V30 27 1 8 26
M  V30 28 1 10 27
M  V30 29 1 11 28
M  V30 30 1 13 29
M  V30 31 1 13 30
M  V30 32 1 15 31
M  V30 33 1 16 32
M  V30 34 1 17 33
M  V30 35 1 18 34
M  V30 36 1 21 35
M  V30 37 1 21 36
M  V30 END BOND
M  V30 END CTAB
M  END
