
     RDKit          3D

  0  0  0  0  0  0  0  0  0  0999 V3000
M  V30 BEGIN CTAB
M  V30 COUNTS 21 20 0 0 0
M  V30 BEGIN ATOM
M  V30 1 C -2.03833 -1.93958 0.357126 0
M  V30 2 O -0.693729 -1.68679 0.512156 0
M  V30 3 P -0.240664 -0.202057 -0.208778 0
M  V30 4 O -0.231498 -0.471912 -1.71613 0
M  V30 5 O -1.37353 0.932561 0.215834 0
M  V30 6 C -1.50623 1.98365 -0.655004 0
M  V30 7 C 1.41904 0.164316 0.370005 0
M  V30 8 N 1.63712 -0.477271 1.67446 0
M  V30 9 N 2.42784 -0.412703 -0.517276 0
M  V30 10 S 1.76165 1.90412 0.54547 0
M  V30 11 H -2.13244 -3.03988 0.133303 0
M  V30 12 H -2.53126 -1.81663 1.35794 0
M  V30 13 H -2.51229 -1.33974 -0.423248 0
M  V30 14 H -2.16812 1.76233 -1.52731 0
M  V30 15 H -0.564307 2.36842 -1.07069 0
M  V30 16 H -1.9686 2.83884 -0.0946086 0
M  V30 17 H 1.74629 -1.4869 1.48921 0
M  V30 18 H 2.4079 -0.0336041 2.18018 0
M  V30 19 H 2.32402 -0.101907 -1.49579 0
M  V30 20 H 2.42412 -1.46101 -0.424181 0
M  V30 21 H 1.81303 2.51574 -0.702661 0
M  V30 END ATOM
M  V30 BEGIN BOND
M  V30 1 1 1 2
M  V30 2 1 2 3
M  V30 3 2 3 4
M  V30 4 1 3 5
M  V30 5 1 5 6
M  V30 6 1 3 7
M  V30 7 1 7 8
M  V30 8 1 7 9
M  V30 9 1 7 10
M  V30 10 1 1 11
M  V30 11 1 1 12
M  V30 12 1 1 13
M  V30 13 1 6 14
M  V30 14 1 6 15
M  V30 15 1 6 16
M  V30 16 1 8 17
M  V30 17 1 8 18
M  V30 18 1 9 19
M  V30 19 1 9 20
M  V30 20 1 10 21
M  V30 END BOND
M  V30 END CTAB
M  END
