
     RDKit          3D

  0  0  0  0  0  0  0  0  0  0999 V3000
M  V30 BEGIN CTAB
M  V30 COUNTS 22 22 0 0 0
M  V30 BEGIN ATOM
M  V30 1 Br -1.73533 2.44983 -0.965789 0
M  V30 2 C -0.698615 0.952099 -0.375859 0
M  V30 3 C 0.617226 0.809296 -0.784385 0
M  V30 4 C 1.35203 -0.274796 -0.351417 0
M  V30 5 C 0.734175 -1.18403 0.483036 0
M  V30 6 C -0.575844 -1.03867 0.887661 0
M  V30 7 C -1.32522 0.0483418 0.458336 0
M  V30 8 S -2.98606 0.241028 0.965769 0
M  V30 9 O -3.09024 1.61483 1.60858 0
M  V30 10 O -3.32898 -0.84079 1.9242 0
M  V30 11 N -3.97833 0.249489 -0.429698 0
M  V30 12 S 3.02867 -0.494854 -0.846913 0
M  V30 13 O 3.29714 -1.95525 -0.855181 0
M  V30 14 O 3.20002 0.0849745 -2.21053 0
M  V30 15 N 4.00951 0.307754 0.326178 0
M  V30 16 H 1.08382 1.54703 -1.44818 0
M  V30 17 H 1.34857 -2.03078 0.805749 0
M  V30 18 H -1.03263 -1.78107 1.55079 0
M  V30 19 H -4.98729 0.286285 -0.222296 0
M  V30 20 H -3.69417 -0.412639 -1.15826 0
M  V30 21 H 5.02419 0.137301 0.182601 0
M  V30 22 H 3.73738 1.28462 0.45561 0
M  V30 END ATOM
M  V30 BEGIN BOND
M  V30 1 1 1 2
M  V30 2 2 2 3
M  V30 3 1 3 4
M  V30 4 2 4 5
M  V30 5 1 5 6
M  V30 6 2 6 7
M  V30 7 1 7 8
M  V30 8 2 8 9
M  V30 9 2 8 10
M  V30 10 1 8 11
M  V30 11 1 4 12
M  V30 12 2 12 13
M  V30 13 2 12 14
M  V30 14 1 12 15
M  V30 15 1 7 2
M  V30 16 1 3 16
M  V30 17 1 5 17
M  V30 18 1 6 18
M  V30 19 1 11 19
M  V30 20 1 11 20
M  V30 21 1 15 21
M  V30 22 1 15 22
M  V30 END BOND
M  V30 END CTAB
M  END
