
     RDKit          3D

  0  0  0  0  0  0  0  0  0  0999 V3000
M  V30 BEGIN CTAB
M  V30 COUNTS 27 27 0 0 0
M  V30 BEGIN ATOM
M  V30 1 C -0.27439 -2.47945 -0.752903 0
M  V30 2 C -0.372652 -0.968168 -0.746805 0
M  V30 3 C 0.749596 -0.477924 0.124361 0
M  V30 4 N 0.890627 -0.842558 1.41642 0
M  V30 5 N 1.97075 -0.237555 1.88544 0
M  V30 6 C 2.53461 0.513308 0.923339 0
M  V30 7 N 1.7499 0.343105 -0.164675 0
M  V30 8 N 1.94577 0.937764 -1.42511 0
M  V30 9 N 3.69168 1.32908 0.960616 0
M  V30 10 C -1.66275 -0.609158 -0.0472578 0
M  V30 11 C -1.85592 0.903103 0.0109729 0
M  V30 12 C -3.17062 1.13284 0.728289 0
M  V30 13 H 0.793728 -2.81536 -0.68086 0
M  V30 14 H -0.730529 -2.91432 -1.66548 0
M  V30 15 H -0.794158 -2.93508 0.125196 0
M  V30 16 H -0.292886 -0.550144 -1.74864 0
M  V30 17 H 2.75929 0.678124 -2.02836 0
M  V30 18 H 1.25698 1.64788 -1.74637 0
M  V30 19 H 3.7091 2.31207 1.31495 0
M  V30 20 H 4.58853 0.932684 0.614612 0
M  V30 21 H -2.54576 -1.05436 -0.532089 0
M  V30 22 H -1.63557 -0.948029 1.00856 0
M  V30 23 H -1.83579 1.36822 -0.984345 0
M  V30 24 H -1.04436 1.2896 0.660796 0
M  V30 25 H -3.85026 0.307251 0.432521 0
M  V30 26 H -2.97967 1.00665 1.82009 0
M  V30 27 H -3.59523 2.13043 0.496723 0
M  V30 END ATOM
M  V30 BEGIN BOND
M  V30 1 1 1 2
M  V30 2 1 2 3
M  V30 3 2 3 4
M  V30 4 1 4 5
M  V30 5 2 5 6
M  V30 6 1 6 7
M  V30 7 1 7 8
M  V30 8 1 6 9
M  V30 9 1 2 10
M  V30 10 1 10 11
M  V30 11 1 11 12
M  V30 12 1 7 3
M  V30 13 1 1 13
M  V30 14 1 1 14
M  V30 15 1 1 15
M  V30 16 1 2 16
M  V30 17 1 8 17
M  V30 18 1 8 18
M  V30 19 1 9 19
M  V30 20 1 9 20
M  V30 21 1 10 21
M  V30 22 1 10 22
M  V30 23 1 11 23
M  V30 24 1 11 24
M  V30 25 1 12 25
M  V30 26 1 12 26
M  V30 27 1 12 27
M  V30 END BOND
M  V30 END CTAB
M  END
