
     RDKit          3D

  0  0  0  0  0  0  0  0  0  0999 V3000
M  V30 BEGIN CTAB
M  V30 COUNTS 34 35 0 0 0
M  V30 BEGIN ATOM
M  V30 1 N -1.71795 3.53687 -0.318458 0
M  V30 2 C -1.42977 2.28684 0.354018 0
M  V30 3 C -0.632366 1.45435 -0.587449 0
M  V30 4 N -0.18666 0.177538 -0.160037 0
M  V30 5 C 1.26019 0.0942315 0.05801 0
M  V30 6 C 2.00349 1.18777 0.410637 0
M  V30 7 C 3.38547 1.07548 0.60917 0
M  V30 8 C 4.00248 -0.136312 0.449938 0
M  V30 9 C 3.27207 -1.23734 0.0970502 0
M  V30 10 C 1.92031 -1.11611 -0.0948089 0
M  V30 11 C 1.15683 -2.3285 -0.488622 0
M  V30 12 C -0.234381 -2.03699 -0.950258 0
M  V30 13 C -0.836575 -1.0396 0.0942921 0 CFG=2
M  V30 14 S -2.53383 -1.24301 0.0286065 0
M  V30 15 O -3.13961 -0.783754 -1.29616 0
M  V30 16 O -2.77893 -2.76137 -0.00113386 0
M  V30 17 N -3.45005 -0.676781 1.35171 0
M  V30 18 H -2.35452 3.37529 -1.07087 0
M  V30 19 H -0.960132 4.1142 -0.535583 0
M  V30 20 H -2.44309 1.92471 0.59018 0
M  V30 21 H -0.929444 2.49612 1.31413 0
M  V30 22 H 0.18856 2.13252 -0.970212 0
M  V30 23 H -1.28149 1.37651 -1.52229 0
M  V30 24 H 1.51486 2.13605 0.536866 0
M  V30 25 H 3.97818 1.92834 0.886493 0
M  V30 26 H 5.07263 -0.234687 0.603529 0
M  V30 27 H 3.76409 -2.2023 -0.0302434 0
M  V30 28 H 1.09627 -3.00374 0.407393 0
M  V30 29 H 1.69579 -2.92431 -1.25521 0
M  V30 30 H -0.277143 -1.58297 -1.94784 0
M  V30 31 H -0.864034 -2.94624 -0.861796 0
M  V30 32 H -0.470633 -1.50144 1.05432 0
M  V30 33 H -3.44368 -1.25957 2.19141 0
M  V30 34 H -4.34694 -0.28182 1.05321 0
M  V30 END ATOM
M  V30 BEGIN BOND
M  V30 1 1 1 2
M  V30 2 1 2 3
M  V30 3 1 3 4
M  V30 4 1 4 5
M  V30 5 2 5 6
M  V30 6 1 6 7
M  V30 7 2 7 8
M  V30 8 1 8 9
M  V30 9 2 9 10
M  V30 10 1 10 11
M  V30 11 1 11 12
M  V30 12 1 12 13
M  V30 13 1 13 14
M  V30 14 2 14 15
M  V30 15 2 14 16
M  V30 16 1 14 17
M  V30 17 1 13 4
M  V30 18 1 10 5
M  V30 19 1 1 18
M  V30 20 1 1 19
M  V30 21 1 2 20
M  V30 22 1 2 21
M  V30 23 1 3 22
M  V30 24 1 3 23
M  V30 25 1 6 24
M  V30 26 1 7 25
M  V30 27 1 8 26
M  V30 28 1 9 27
M  V30 29 1 11 28
M  V30 30 1 11 29
M  V30 31 1 12 30
M  V30 32 1 12 31
M  V30 33 1 13 32 CFG=1
M  V30 34 1 17 33
M  V30 35 1 17 34
M  V30 END BOND
M  V30 END CTAB
M  END
