
     RDKit          3D

  0  0  0  0  0  0  0  0  0  0999 V3000
M  V30 BEGIN CTAB
M  V30 COUNTS 21 22 0 0 0
M  V30 BEGIN ATOM
M  V30 1 N 4.30232 0.331753 -0.854148 0
M  V30 2 C 2.8793 0.205276 -0.753765 0
M  V30 3 N 2.05824 0.429013 0.236261 0
M  V30 4 C 0.782819 0.248194 0.114153 0
M  V30 5 C 0.320118 -0.190954 -1.1036 0
M  V30 6 S 1.78105 -0.310399 -1.9897 0
M  V30 7 C -1.1054 -0.432673 -1.3672 0
M  V30 8 O -1.47417 -0.505677 -2.58141 0
M  V30 9 C -2.1128 -0.591893 -0.272931 0
M  V30 10 C -1.30562 -0.653987 1.00966 0
M  V30 11 C -0.324873 0.452391 1.13933 0
M  V30 12 N -3.04941 0.506552 -0.236786 0
M  V30 13 H 4.86929 -0.129694 -0.126823 0
M  V30 14 H 4.77776 0.854949 -1.60868 0
M  V30 15 H -2.59955 -1.57159 -0.427458 0
M  V30 16 H -0.78092 -1.62529 1.04283 0
M  V30 17 H -2.04298 -0.563882 1.8381 0
M  V30 18 H -0.755911 1.44932 0.96438 0
M  V30 19 H 0.0869215 0.441937 2.16222 0
M  V30 20 H -3.76025 0.283929 0.477151 0
M  V30 21 H -2.54592 1.37273 -0.0276829 0
M  V30 END ATOM
M  V30 BEGIN BOND
M  V30 1 1 1 2
M  V30 2 2 2 3
M  V30 3 1 3 4
M  V30 4 2 4 5
M  V30 5 1 5 6
M  V30 6 1 5 7
M  V30 7 2 7 8
M  V30 8 1 7 9
M  V30 9 1 9 10
M  V30 10 1 10 11
M  V30 11 1 9 12
M  V30 12 1 6 2
M  V30 13 1 11 4
M  V30 14 1 1 13
M  V30 15 1 1 14
M  V30 16 1 9 15
M  V30 17 1 10 16
M  V30 18 1 10 17
M  V30 19 1 11 18
M  V30 20 1 11 19
M  V30 21 1 12 20
M  V30 22 1 12 21
M  V30 END BOND
M  V30 END CTAB
M  END
