
     RDKit          3D

  0  0  0  0  0  0  0  0  0  0999 V3000
M  V30 BEGIN CTAB
M  V30 COUNTS 19 19 0 0 0
M  V30 BEGIN ATOM
M  V30 1 F -0.688059 -2.86638 0.0185913 0
M  V30 2 C 0.0351942 -1.71456 -0.0617689 0
M  V30 3 C 1.39304 -1.71464 -0.290754 0
M  V30 4 C 2.14014 -0.557187 -0.374931 0
M  V30 5 Br 4.01996 -0.587633 -0.693036 0
M  V30 6 C 1.45723 0.638142 -0.216585 0
M  V30 7 C 0.0995757 0.650797 0.0128217 0
M  V30 8 C -0.627429 -0.515573 0.093287 0
M  V30 9 S -2.35994 -0.503017 0.385895 0
M  V30 10 O -2.69705 -1.26558 1.6524 0
M  V30 11 O -3.07003 -1.17643 -0.746342 0
M  V30 12 N -2.9348 1.09611 0.540584 0
M  V30 13 N 2.21498 1.83315 -0.301201 0
M  V30 14 H 1.90071 -2.68391 -0.411374 0
M  V30 15 H -0.392764 1.58478 0.129582 0
M  V30 16 H -2.45821 1.64767 1.26526 0
M  V30 17 H -3.06797 1.58914 -0.365068 0
M  V30 18 H 1.91137 2.68116 -0.837366 0
M  V30 19 H 3.12405 1.86396 0.200014 0
M  V30 END ATOM
M  V30 BEGIN BOND
M  V30 1 1 1 2
M  V30 2 2 2 3
M  V30 3 1 3 4
M  V30 4 1 4 5
M  V30 5 2 4 6
M  V30 6 1 6 7
M  V30 7 2 7 8
M  V30 8 1 8 9
M  V30 9 2 9 10
M  V30 10 2 9 11
M  V30 11 1 9 12
M  V30 12 1 6 13
M  V30 13 1 8 2
M  V30 14 1 3 14
M  V30 15 1 7 15
M  V30 16 1 12 16
M  V30 17 1 12 17
M  V30 18 1 13 18
M  V30 19 1 13 19
M  V30 END BOND
M  V30 END CTAB
M  END
