
     RDKit          3D

  0  0  0  0  0  0  0  0  0  0999 V3000
M  V30 BEGIN CTAB
M  V30 COUNTS 88 90 0 0 0
M  V30 BEGIN ATOM
M  V30 1 N 0.122379 7.7585 -1.11041 0
M  V30 2 C 0.012939 6.5472 -1.79357 0
M  V30 3 C -0.252248 5.39432 -0.860947 0
M  V30 4 C -1.53526 4.97006 -0.603522 0
M  V30 5 C -1.77224 3.89588 0.265251 0
M  V30 6 C -0.738826 3.23952 0.881109 0
M  V30 7 C -0.960382 2.12812 1.79086 0
M  V30 8 N -0.964395 0.805608 1.22058 0
M  V30 9 C 0.340718 0.147342 1.06003 0
M  V30 10 C 0.755472 0.100691 -0.340428 0
M  V30 11 O -0.0575484 0.639719 -1.19115 0
M  V30 12 N 1.90583 -0.442058 -0.933557 0
M  V30 13 C 3.24358 -0.537927 -0.42928 0 CFG=1
M  V30 14 C 3.79407 0.667218 0.255943 0
M  V30 15 C 3.88475 1.9094 -0.562016 0
M  V30 16 C 4.77901 1.79817 -1.77781 0
M  V30 17 N 4.75154 3.1006 -2.4182 0
M  V30 18 C 5.33251 4.25157 -1.81519 0
M  V30 19 N 6.68316 4.19535 -1.37052 0
M  V30 20 N 4.64759 5.31447 -1.67561 0
M  V30 21 C 3.47884 -1.7281 0.437121 0
M  V30 22 O 4.69847 -1.8523 0.821176 0
M  V30 23 N 2.54587 -2.67274 0.849726 0
M  V30 24 C 1.62757 -3.43879 0.0375268 0
M  V30 25 C 0.510392 -3.9713 0.895833 0
M  V30 26 O 0.883085 -4.40314 2.04127 0
M  V30 27 N -0.841969 -4.00269 0.49338 0
M  V30 28 C -1.26218 -3.83002 -0.870998 0 CFG=1
M  V30 29 C -2.18531 -5.02173 -1.16116 0
M  V30 30 C -2.72 -5.01959 -2.52365 0
M  V30 31 O -2.07858 -5.65642 -3.58354 0
M  V30 32 O -3.79648 -4.42325 -2.75351 0
M  V30 33 C -2.04227 -2.60545 -1.14241 0
M  V30 34 O -2.0088 -2.20589 -2.36099 0
M  V30 35 N -2.79915 -1.84217 -0.255711 0
M  V30 36 C -2.44231 -1.30586 1.03019 0 CFG=2
M  V30 37 C -3.67522 -1.29098 1.95641 0
M  V30 38 C -4.24668 -2.59902 2.20316 0
M  V30 39 C -3.81166 -3.37311 3.25447 0
M  V30 40 C -4.35464 -4.63631 3.51418 0
M  V30 41 C -5.34212 -5.1069 2.69896 0
M  V30 42 C -5.8027 -4.35922 1.63689 0
M  V30 43 C -5.24138 -3.11188 1.40914 0
M  V30 44 C -2.15967 0.163851 0.818059 0
M  V30 45 O -3.08977 0.806666 0.240412 0
M  V30 46 C 0.534293 3.68412 0.607285 0
M  V30 47 C 0.781778 4.7347 -0.2416 0
M  V30 48 H 0.268806 8.56326 -1.61291 0
M  V30 49 H 0.0657623 7.7644 -0.157409 0
M  V30 50 H 0.93086 6.3718 -2.37624 0
M  V30 51 H -0.899239 6.60985 -2.43278 0
M  V30 52 H -2.35248 5.46193 -1.06746 0
M  V30 53 H -2.81372 3.63017 0.418273 0
M  V30 54 H -1.94977 2.2439 2.33787 0
M  V30 55 H -0.233329 2.1709 2.6704 0
M  V30 56 H 0.168762 -0.86724 1.50104 0
M  V30 57 H 1.01492 0.642816 1.76424 0
M  V30 58 H 1.79143 -0.863687 -1.92311 0
M  V30 59 H 3.97603 -0.714003 -1.29283 0
M  V30 60 H 4.85524 0.444431 0.606506 0
M  V30 61 H 3.24687 0.885175 1.16602 0
M  V30 62 H 2.88746 2.26131 -0.907131 0
M  V30 63 H 4.29834 2.71599 0.0753085 0
M  V30 64 H 4.43756 1.05328 -2.49733 0
M  V30 65 H 5.81781 1.52453 -1.49901 0
M  V30 66 H 4.29336 3.18326 -3.33962 0
M  V30 67 H 7.07782 3.27193 -1.11953 0
M  V30 68 H 7.26641 5.07186 -1.29847 0
M  V30 69 H 3.66481 5.35263 -1.99865 0
M  V30 70 H 2.49174 -2.87098 1.89806 0
M  V30 71 H 2.21054 -4.35371 -0.292573 0
M  V30 72 H 1.25504 -2.94226 -0.853664 0
M  V30 73 H -1.56222 -4.16139 1.2168 0
M  V30 74 H -0.401089 -3.90371 -1.5805 0
M  V30 75 H -1.60087 -5.95767 -0.99774 0
M  V30 76 H -3.02321 -4.96811 -0.436765 0
M  V30 77 H -1.27719 -6.27955 -3.44754 0
M  V30 78 H -3.79653 -1.59886 -0.555242 0
M  V30 79 H -1.63177 -1.79709 1.55525 0
M  V30 80 H -4.38024 -0.562924 1.44881 0
M  V30 81 H -3.3341 -0.75926 2.87855 0
M  V30 82 H -3.03108 -3.04091 3.92708 0
M  V30 83 H -4.01313 -5.2447 4.34026 0
M  V30 84 H -5.77448 -6.07203 2.87781 0
M  V30 85 H -6.58348 -4.77501 1.02505 0
M  V30 86 H -5.64769 -2.57846 0.565743 0
M  V30 87 H 1.35786 3.18262 1.07923 0
M  V30 88 H 1.79613 5.08929 -0.459982 0
M  V30 END ATOM
M  V30 BEGIN BOND
M  V30 1 1 1 2
M  V30 2 1 2 3
M  V30 3 2 3 4
M  V30 4 1 4 5
M  V30 5 2 5 6
M  V30 6 1 6 7
M  V30 7 1 7 8
M  V30 8 1 8 9
M  V30 9 1 9 10
M  V30 10 2 10 11
M  V30 11 1 10 12
M  V30 12 1 12 13
M  V30 13 1 13 14
M  V30 14 1 14 15
M  V30 15 1 15 16
M  V30 16 1 16 17
M  V30 17 1 17 18
M  V30 18 1 18 19
M  V30 19 2 18 20 CFG=2
M  V30 20 1 13 21
M  V30 21 2 21 22
M  V30 22 1 21 23
M  V30 23 1 23 24
M  V30 24 1 24 25
M  V30 25 2 25 26
M  V30 26 1 25 27
M  V30 27 1 27 28
M  V30 28 1 28 29
M  V30 29 1 29 30
M  V30 30 1 30 31
M  V30 31 2 30 32
M  V30 32 1 28 33
M  V30 33 2 33 34
M  V30 34 1 33 35
M  V30 35 1 35 36
M  V30 36 1 36 37
M  V30 37 1 37 38
M  V30 38 2 38 39
M  V30 39 1 39 40
M  V30 40 2 40 41
M  V30 41 1 41 42
M  V30 42 2 42 43
M  V30 43 1 36 44
M  V30 44 2 44 45
M  V30 45 1 6 46
M  V30 46 2 46 47
M  V30 47 1 47 3
M  V30 48 1 44 8
M  V30 49 1 43 38
M  V30 50 1 1 48
M  V30 51 1 1 49
M  V30 52 1 2 50
M  V30 53 1 2 51
M  V30 54 1 4 52
M  V30 55 1 5 53
M  V30 56 1 7 54
M  V30 57 1 7 55
M  V30 58 1 9 56
M  V30 59 1 9 57
M  V30 60 1 12 58
M  V30 61 1 13 59 CFG=3
M  V30 62 1 14 60
M  V30 63 1 14 61
M  V30 64 1 15 62
M  V30 65 1 15 63
M  V30 66 1 16 64
M  V30 67 1 16 65
M  V30 68 1 17 66
M  V30 69 1 19 67
M  V30 70 1 19 68
M  V30 71 1 20 69
M  V30 72 1 23 70
M  V30 73 1 24 71
M  V30 74 1 24 72
M  V30 75 1 27 73
M  V30 76 1 28 74 CFG=3
M  V30 77 1 29 75
M  V30 78 1 29 76
M  V30 79 1 31 77
M  V30 80 1 35 78
M  V30 81 1 36 79 CFG=1
M  V30 82 1 37 80
M  V30 83 1 37 81
M  V30 84 1 39 82
M  V30 85 1 40 83
M  V30 86 1 41 84
M  V30 87 1 42 85
M  V30 88 1 43 86
M  V30 89 1 46 87
M  V30 90 1 47 88
M  V30 END BOND
M  V30 END CTAB
M  END
