
     RDKit          3D

  0  0  0  0  0  0  0  0  0  0999 V3000
M  V30 BEGIN CTAB
M  V30 COUNTS 29 29 0 0 0
M  V30 BEGIN ATOM
M  V30 1 O -2.1399 -0.281342 1.77624 0
M  V30 2 C -1.99517 -0.249114 0.558539 0
M  V30 3 C -3.28311 -0.16633 -0.241625 0 CFG=1
M  V30 4 N -4.41995 -0.143221 0.622976 0
M  V30 5 C -3.18207 1.10653 -1.05321 0
M  V30 6 N -0.804666 -0.278913 -0.173018 0
M  V30 7 C 0.491158 -0.354219 0.380233 0
M  V30 8 C 0.766426 -0.409118 1.72201 0
M  V30 9 C 2.07238 -0.483679 2.23704 0
M  V30 10 Br 2.34584 -0.555912 4.12676 0
M  V30 11 C 3.10076 -0.50071 1.33069 0
M  V30 12 C 2.85608 -0.446603 -0.0289503 0
M  V30 13 C 1.58082 -0.374033 -0.524378 0
M  V30 14 N 1.38457 -0.320802 -1.92401 0
M  V30 15 C 4.02439 -0.469044 -0.96111 0
M  V30 16 H -3.30775 -1.07575 -0.882693 0
M  V30 17 H -4.33472 -0.795015 1.4325 0
M  V30 18 H -4.58339 0.823638 0.982071 0
M  V30 19 H -2.934 0.861459 -2.11983 0
M  V30 20 H -4.13158 1.67941 -1.02999 0
M  V30 21 H -2.36794 1.77114 -0.694991 0
M  V30 22 H -0.84638 -0.242729 -1.25353 0
M  V30 23 H -0.020769 -0.396748 2.43679 0
M  V30 24 H 4.10316 -0.557797 1.72143 0
M  V30 25 H 1.49736 0.600817 -2.41415 0
M  V30 26 H 1.13132 -1.1602 -2.49557 0
M  V30 27 H 3.69586 -0.467439 -2.00683 0
M  V30 28 H 4.68509 -1.32534 -0.765118 0
M  V30 29 H 4.6162 0.460718 -0.758279 0
M  V30 END ATOM
M  V30 BEGIN BOND
M  V30 1 2 1 2
M  V30 2 1 2 3
M  V30 3 1 3 4
M  V30 4 1 3 5
M  V30 5 1 2 6
M  V30 6 1 6 7
M  V30 7 2 7 8
M  V30 8 1 8 9
M  V30 9 1 9 10
M  V30 10 2 9 11
M  V30 11 1 11 12
M  V30 12 2 12 13
M  V30 13 1 13 14
M  V30 14 1 12 15
M  V30 15 1 13 7
M  V30 16 1 3 16 CFG=3
M  V30 17 1 4 17
M  V30 18 1 4 18
M  V30 19 1 5 19
M  V30 20 1 5 20
M  V30 21 1 5 21
M  V30 22 1 6 22
M  V30 23 1 8 23
M  V30 24 1 11 24
M  V30 25 1 14 25
M  V30 26 1 14 26
M  V30 27 1 15 27
M  V30 28 1 15 28
M  V30 29 1 15 29
M  V30 END BOND
M  V30 END CTAB
M  END
