
     RDKit          3D

  0  0  0  0  0  0  0  0  0  0999 V3000
M  V30 BEGIN CTAB
M  V30 COUNTS 52 55 0 0 0
M  V30 BEGIN ATOM
M  V30 1 C 6.65467 -0.567406 0.789933 0
M  V30 2 C 5.88759 -0.800473 2.04548 0
M  V30 3 C 5.06964 0.339541 2.52381 0
M  V30 4 C 3.84995 0.692132 1.81018 0
M  V30 5 C 3.43712 -0.368809 0.788462 0
M  V30 6 C 3.97337 -1.6201 0.892644 0
M  V30 7 C 4.95597 -1.99793 1.97336 0
M  V30 8 S 3.28136 -2.4702 -0.396736 0
M  V30 9 C 2.31582 -1.22612 -1.05604 0
M  V30 10 C 2.56068 -0.158654 -0.240795 0
M  V30 11 C 1.85055 1.00198 -0.607009 0
M  V30 12 O 1.97007 2.06689 0.0471122 0
M  V30 13 N 1.01345 1.04645 -1.65993 0
M  V30 14 C 0.792483 -0.00481837 -2.43358 0
M  V30 15 N 1.47168 -1.14749 -2.10043 0
M  V30 16 S -0.315872 -0.0945528 -3.78386 0
M  V30 17 C -1.37799 1.27489 -4.10111 0
M  V30 18 C -2.47993 1.3726 -3.06538 0
M  V30 19 O -3.20755 2.38132 -3.14038 0
M  V30 20 N -2.63782 0.375979 -2.11027 0
M  V30 21 C -3.59067 0.289202 -1.07184 0
M  V30 22 C -4.34929 1.34187 -0.63294 0
M  V30 23 C -5.26608 1.143 0.369475 0
M  V30 24 C -5.44165 -0.104448 0.95021 0
M  V30 25 C -4.68542 -1.14409 0.510595 0
M  V30 26 C -3.77713 -0.942452 -0.483827 0
M  V30 27 S -6.60623 -0.334911 2.22912 0
M  V30 28 O -6.55645 0.827042 3.15412 0
M  V30 29 O -6.23817 -1.57007 3.01734 0
M  V30 30 N -8.17077 -0.551539 1.49724 0
M  V30 31 N 0.408994 2.31642 -1.92394 0
M  V30 32 H 6.78001 0.498776 0.533794 0
M  V30 33 H 6.19614 -1.16054 -0.0388671 0
M  V30 34 H 7.69726 -0.974056 0.886251 0
M  V30 35 H 6.61984 -1.05081 2.86136 0
M  V30 36 H 5.77023 1.23202 2.5728 0
M  V30 37 H 4.8495 0.147771 3.60678 0
M  V30 38 H 4.00418 1.65844 1.28575 0
M  V30 39 H 3.00546 0.838549 2.51635 0
M  V30 40 H 5.49923 -2.87955 1.62852 0
M  V30 41 H 4.44048 -2.07615 2.9293 0
M  V30 42 H -1.87785 1.1406 -5.10407 0
M  V30 43 H -0.918925 2.27566 -4.17067 0
M  V30 44 H -1.92857 -0.429683 -2.17561 0
M  V30 45 H -4.24251 2.33734 -1.05156 0
M  V30 46 H -5.89848 1.9374 0.76152 0
M  V30 47 H -4.82066 -2.13391 0.966935 0
M  V30 48 H -3.18923 -1.80147 -0.806962 0
M  V30 49 H -8.28725 0.248542 0.822703 0
M  V30 50 H -8.8876 -0.416343 2.22152 0
M  V30 51 H 0.746313 2.89053 -2.71163 0
M  V30 52 H -0.349957 2.67612 -1.32524 0
M  V30 END ATOM
M  V30 BEGIN BOND
M  V30 1 1 1 2
M  V30 2 1 2 3
M  V30 3 1 3 4
M  V30 4 1 4 5
M  V30 5 2 5 6
M  V30 6 1 6 7
M  V30 7 1 6 8
M  V30 8 1 8 9
M  V30 9 2 9 10
M  V30 10 1 10 11
M  V30 11 2 11 12
M  V30 12 1 11 13
M  V30 13 1 13 14
M  V30 14 2 14 15
M  V30 15 1 14 16
M  V30 16 1 16 17
M  V30 17 1 17 18
M  V30 18 2 18 19
M  V30 19 1 18 20
M  V30 20 1 20 21
M  V30 21 2 21 22
M  V30 22 1 22 23
M  V30 23 2 23 24
M  V30 24 1 24 25
M  V30 25 2 25 26
M  V30 26 1 24 27
M  V30 27 2 27 28
M  V30 28 2 27 29
M  V30 29 1 27 30
M  V30 30 1 13 31
M  V30 31 1 7 2
M  V30 32 1 15 9
M  V30 33 1 26 21
M  V30 34 1 10 5
M  V30 35 1 1 32
M  V30 36 1 1 33
M  V30 37 1 1 34
M  V30 38 1 2 35
M  V30 39 1 3 36
M  V30 40 1 3 37
M  V30 41 1 4 38
M  V30 42 1 4 39
M  V30 43 1 7 40
M  V30 44 1 7 41
M  V30 45 1 17 42
M  V30 46 1 17 43
M  V30 47 1 20 44
M  V30 48 1 22 45
M  V30 49 1 23 46
M  V30 50 1 25 47
M  V30 51 1 26 48
M  V30 52 1 30 49
M  V30 53 1 30 50
M  V30 54 1 31 51
M  V30 55 1 31 52
M  V30 END BOND
M  V30 END CTAB
M  END
