
     RDKit          3D

  0  0  0  0  0  0  0  0  0  0999 V3000
M  V30 BEGIN CTAB
M  V30 COUNTS 25 24 0 0 0
M  V30 BEGIN ATOM
M  V30 1 N -2.93426 1.32575 0.868857 0
M  V30 2 C -2.00626 0.64094 -0.0270608 0 CFG=1
M  V30 3 C -0.782261 0.377578 0.771597 0
M  V30 4 C 0.339096 -0.325379 0.0524921 0
M  V30 5 C 1.4593 -0.457958 1.06394 0
M  V30 6 N 2.61651 -1.11796 0.516253 0
M  V30 7 C 3.45677 -0.603148 -0.465338 0
M  V30 8 N 3.22422 0.672438 -1.02704 0
M  V30 9 S 4.72663 -1.46207 -0.986841 0
M  V30 10 C -2.69039 -0.612374 -0.423259 0
M  V30 11 O -3.90713 -1.03241 0.094724 0
M  V30 12 O -2.15989 -1.35873 -1.27771 0
M  V30 13 H -3.27472 2.20135 0.499837 0
M  V30 14 H -2.64693 1.26993 1.84003 0
M  V30 15 H -1.85736 1.27671 -0.905189 0
M  V30 16 H -0.349264 1.29019 1.22783 0
M  V30 17 H -1.04122 -0.288772 1.64511 0
M  V30 18 H 0.635899 0.173005 -0.870676 0
M  V30 19 H 0.0151025 -1.365 -0.250545 0
M  V30 20 H 1.76819 0.569898 1.34622 0
M  V30 21 H 1.06303 -0.993173 1.93726 0
M  V30 22 H 2.82693 -2.0792 0.909893 0
M  V30 23 H 3.43481 0.877468 -2.03878 0
M  V30 24 H 2.83363 1.47671 -0.474124 0
M  V30 25 H -4.75042 -0.45579 -0.0117651 0
M  V30 END ATOM
M  V30 BEGIN BOND
M  V30 1 1 1 2
M  V30 2 1 2 3
M  V30 3 1 3 4
M  V30 4 1 4 5
M  V30 5 1 5 6
M  V30 6 1 6 7
M  V30 7 1 7 8
M  V30 8 2 7 9
M  V30 9 1 2 10
M  V30 10 1 10 11
M  V30 11 2 10 12
M  V30 12 1 1 13
M  V30 13 1 1 14
M  V30 14 1 2 15 CFG=3
M  V30 15 1 3 16
M  V30 16 1 3 17
M  V30 17 1 4 18
M  V30 18 1 4 19
M  V30 19 1 5 20
M  V30 20 1 5 21
M  V30 21 1 6 22
M  V30 22 1 8 23
M  V30 23 1 8 24
M  V30 24 1 11 25
M  V30 END BOND
M  V30 END CTAB
M  END
