
     RDKit          3D

  0  0  0  0  0  0  0  0  0  0999 V3000
M  V30 BEGIN CTAB
M  V30 COUNTS 27 28 0 0 0
M  V30 BEGIN ATOM
M  V30 1 N 2.39726 -0.193848 1.73771 0
M  V30 2 C 2.7699 0.0379811 0.334779 0
M  V30 3 C 1.55738 0.69011 -0.348061 0
M  V30 4 C 0.38632 -0.214808 -0.273507 0
M  V30 5 C 0.428397 -1.51436 -0.621044 0
M  V30 6 C -0.738382 -2.30319 -0.630327 0
M  V30 7 C -1.95984 -1.77816 -0.288585 0
M  V30 8 C -2.00098 -0.447087 0.0674721 0
M  V30 9 C -0.848443 0.347599 0.0790592 0
M  V30 10 O -1.17623 1.63497 0.45971 0
M  V30 11 C -2.5594 1.82611 0.211416 0
M  V30 12 C -3.07126 0.461002 0.600117 0
M  V30 13 N 2.00145 0.800768 -1.74118 0
M  V30 14 H 2.2599 -1.1875 1.86855 0
M  V30 15 H 3.13899 0.177051 2.33514 0
M  V30 16 H 3.54622 0.860127 0.314409 0
M  V30 17 H 3.09293 -0.868995 -0.128165 0
M  V30 18 H 1.37147 1.65716 0.0423307 0
M  V30 19 H 1.36204 -1.98586 -0.899079 0
M  V30 20 H -0.720066 -3.3355 -0.920367 0
M  V30 21 H -2.88284 -2.36574 -0.312977 0
M  V30 22 H -2.82451 2.01845 -0.818137 0
M  V30 23 H -2.93152 2.59316 0.941308 0
M  V30 24 H -3.03544 0.359291 1.75469 0
M  V30 25 H -4.07037 0.206964 0.249053 0
M  V30 26 H 3.01348 1.00725 -1.75609 0
M  V30 27 H 1.49354 1.51707 -2.25821 0
M  V30 END ATOM
M  V30 BEGIN BOND
M  V30 1 1 1 2
M  V30 2 1 2 3
M  V30 3 1 3 4
M  V30 4 2 4 5
M  V30 5 1 5 6
M  V30 6 2 6 7
M  V30 7 1 7 8
M  V30 8 2 8 9
M  V30 9 1 9 10
M  V30 10 1 10 11
M  V30 11 1 11 12
M  V30 12 1 3 13
M  V30 13 1 9 4
M  V30 14 1 12 8
M  V30 15 1 1 14
M  V30 16 1 1 15
M  V30 17 1 2 16
M  V30 18 1 2 17
M  V30 19 1 3 18
M  V30 20 1 5 19
M  V30 21 1 6 20
M  V30 22 1 7 21
M  V30 23 1 11 22
M  V30 24 1 11 23
M  V30 25 1 12 24
M  V30 26 1 12 25
M  V30 27 1 13 26
M  V30 28 1 13 27
M  V30 END BOND
M  V30 END CTAB
M  END
