
     RDKit          3D

  0  0  0  0  0  0  0  0  0  0999 V3000
M  V30 BEGIN CTAB
M  V30 COUNTS 39 41 0 0 0
M  V30 BEGIN ATOM
M  V30 1 N 0.602583 -1.95681 -1.26839 0
M  V30 2 C 1.58121 -1.56093 -0.354414 0
M  V30 3 N 2.77535 -2.15741 -0.328555 0
M  V30 4 C 3.75831 -1.8546 0.540861 0
M  V30 5 S 5.19453 -2.62628 0.51425 0
M  V30 6 N 3.51304 -0.885697 1.44004 0
M  V30 7 C 2.30923 -0.254494 1.44499 0
M  V30 8 O 2.17993 0.639972 2.3284 0
M  V30 9 C 1.29972 -0.561972 0.554845 0
M  V30 10 C 0.0453337 0.2131 0.600291 0
M  V30 11 C -1.19632 -0.533194 0.618617 0
M  V30 12 C -2.20397 -0.440897 -0.29529 0
M  V30 13 N -2.1821 0.406897 -1.41998 0
M  V30 14 N -3.34132 -1.19385 -0.177888 0
M  V30 15 C -3.49363 -2.03361 0.828225 0
M  V30 16 S -4.85601 -2.95674 0.996686 0
M  V30 17 N -2.54383 -2.16475 1.74868 0
M  V30 18 C -1.41692 -1.44348 1.66562 0
M  V30 19 O -0.536114 -1.58982 2.55238 0
M  V30 20 C 0.125967 1.48107 -0.118992 0
M  V30 21 C 0.740364 1.68719 -1.32864 0
M  V30 22 C 0.793889 2.9156 -1.97762 0
M  V30 23 C 0.202762 4.01234 -1.39468 0
M  V30 24 C -0.425362 3.86229 -0.184519 0
M  V30 25 C -0.460452 2.64187 0.427057 0
M  V30 26 H 0.537636 -1.52008 -2.20764 0
M  V30 27 H -0.0727883 -2.69642 -1.01416 0
M  V30 28 H 2.95815 -2.91358 -1.03507 0
M  V30 29 H 4.2688 -0.648286 2.11448 0
M  V30 30 H 0.0974117 0.604657 1.7348 0
M  V30 31 H -2.62828 1.34406 -1.35882 0
M  V30 32 H -1.74696 0.126667 -2.30594 0
M  V30 33 H -4.12245 -1.12787 -0.878613 0
M  V30 34 H -2.69305 -2.84605 2.54468 0
M  V30 35 H 1.22509 0.865171 -1.82677 0
M  V30 36 H 1.29649 2.98225 -2.92212 0
M  V30 37 H 0.262132 4.94819 -1.92269 0
M  V30 38 H -0.884771 4.71658 0.268132 0
M  V30 39 H -0.963598 2.51891 1.39774 0
M  V30 END ATOM
M  V30 BEGIN BOND
M  V30 1 1 1 2
M  V30 2 1 2 3
M  V30 3 1 3 4
M  V30 4 2 4 5
M  V30 5 1 4 6
M  V30 6 1 6 7
M  V30 7 2 7 8
M  V30 8 1 7 9
M  V30 9 1 9 10
M  V30 10 1 10 11
M  V30 11 2 11 12
M  V30 12 1 12 13
M  V30 13 1 12 14
M  V30 14 1 14 15
M  V30 15 2 15 16
M  V30 16 1 15 17
M  V30 17 1 17 18
M  V30 18 2 18 19
M  V30 19 1 10 20
M  V30 20 2 20 21
M  V30 21 1 21 22
M  V30 22 2 22 23
M  V30 23 1 23 24
M  V30 24 2 24 25
M  V30 25 2 9 2
M  V30 26 1 18 11
M  V30 27 1 25 20
M  V30 28 1 1 26
M  V30 29 1 1 27
M  V30 30 1 3 28
M  V30 31 1 6 29
M  V30 32 1 10 30
M  V30 33 1 13 31
M  V30 34 1 13 32
M  V30 35 1 14 33
M  V30 36 1 17 34
M  V30 37 1 21 35
M  V30 38 1 22 36
M  V30 39 1 23 37
M  V30 40 1 24 38
M  V30 41 1 25 39
M  V30 END BOND
M  V30 END CTAB
M  END
