
     RDKit          3D

  0  0  0  0  0  0  0  0  0  0999 V3000
M  V30 BEGIN CTAB
M  V30 COUNTS 25 25 0 0 0
M  V30 BEGIN ATOM
M  V30 1 N 3.72719 0.907092 -0.0418906 0
M  V30 2 C 2.84088 -0.153783 -0.356857 0
M  V30 3 C 1.43343 0.321627 -0.108462 0
M  V30 4 C 0.413439 -0.770268 -0.42619 0 CFG=1
M  V30 5 N 0.639547 -1.9289 0.393448 0
M  V30 6 C -0.93605 -0.211591 -0.322621 0
M  V30 7 C -1.61099 0.152111 -1.46059 0
M  V30 8 C -2.89775 0.688522 -1.414 0
M  V30 9 C -3.51331 0.860799 -0.201188 0
M  V30 10 C -2.85644 0.503883 0.947917 0
M  V30 11 C -1.56493 -0.033289 0.883994 0
M  V30 12 H 3.51949 1.80129 -0.428594 0
M  V30 13 H 4.15659 0.927392 0.850511 0
M  V30 14 H 2.9447 -0.391387 -1.4277 0
M  V30 15 H 3.09379 -1.0244 0.290344 0
M  V30 16 H 1.23561 1.13861 -0.849983 0
M  V30 17 H 1.27107 0.749583 0.882766 0
M  V30 18 H 0.613039 -1.09307 -1.48896 0
M  V30 19 H -0.202789 -2.29002 0.864675 0
M  V30 20 H 1.07806 -2.72083 -0.123937 0
M  V30 21 H -1.14449 0.0254089 -2.43406 0
M  V30 22 H -3.37286 0.954151 -2.35101 0
M  V30 23 H -4.50226 1.27192 -0.149024 0
M  V30 24 H -3.31419 0.6269 1.92162 0
M  V30 25 H -1.05077 -0.31175 1.77071 0
M  V30 END ATOM
M  V30 BEGIN BOND
M  V30 1 1 1 2
M  V30 2 1 2 3
M  V30 3 1 3 4
M  V30 4 1 4 5
M  V30 5 1 4 6
M  V30 6 2 6 7
M  V30 7 1 7 8
M  V30 8 2 8 9
M  V30 9 1 9 10
M  V30 10 2 10 11
M  V30 11 1 11 6
M  V30 12 1 1 12
M  V30 13 1 1 13
M  V30 14 1 2 14
M  V30 15 1 2 15
M  V30 16 1 3 16
M  V30 17 1 3 17
M  V30 18 1 4 18 CFG=3
M  V30 19 1 5 19
M  V30 20 1 5 20
M  V30 21 1 7 21
M  V30 22 1 8 22
M  V30 23 1 9 23
M  V30 24 1 10 24
M  V30 25 1 11 25
M  V30 END BOND
M  V30 END CTAB
M  END
