
     RDKit          3D

  0  0  0  0  0  0  0  0  0  0999 V3000
M  V30 BEGIN CTAB
M  V30 COUNTS 38 39 0 0 0
M  V30 BEGIN ATOM
M  V30 1 N -5.70845 0.660342 -0.300031 0
M  V30 2 C -4.77798 0.0548263 0.599625 0
M  V30 3 C -4.536 -1.40423 0.23896 0
M  V30 4 C -3.11728 -1.58475 0.824292 0
M  V30 5 N -2.46999 -0.363401 0.577293 0
M  V30 6 C -3.38964 0.659976 0.290319 0
M  V30 7 C -1.20221 -0.385905 -0.00151071 0
M  V30 8 C -0.752034 0.972561 -0.495694 0
M  V30 9 O 0.470679 0.972522 -1.03376 0
M  V30 10 C 1.74541 0.765681 -0.580625 0
M  V30 11 C 2.7919 0.835885 -1.52958 0
M  V30 12 C 4.08987 0.648532 -1.13475 0
M  V30 13 C 4.44289 0.391165 0.163037 0
M  V30 14 C 3.44593 0.31899 1.09209 0
M  V30 15 C 2.1147 0.505664 0.716628 0
M  V30 16 S 6.09077 0.177929 0.651795 0
M  V30 17 O 6.34019 0.816027 1.98666 0
M  V30 18 O 7.03433 0.831418 -0.335993 0
M  V30 19 N 6.45145 -1.50593 0.672109 0
M  V30 20 H -5.65184 1.70476 -0.306339 0
M  V30 21 H -6.68368 0.365341 -0.228028 0
M  V30 22 H -4.98864 0.154426 1.66571 0
M  V30 23 H -4.4545 -1.45451 -0.852412 0
M  V30 24 H -5.27049 -2.04232 0.704047 0
M  V30 25 H -3.29426 -1.70959 1.9128 0
M  V30 26 H -2.64902 -2.4905 0.418392 0
M  V30 27 H -3.39561 0.912625 -0.769445 0
M  V30 28 H -3.2037 1.51604 0.971814 0
M  V30 29 H -0.461343 -0.710321 0.782937 0
M  V30 30 H -1.09296 -1.11651 -0.854721 0
M  V30 31 H -0.901697 1.69794 0.367749 0
M  V30 32 H -1.50774 1.37434 -1.24837 0
M  V30 33 H 2.51001 1.03582 -2.5662 0
M  V30 34 H 4.90567 0.696584 -1.85824 0
M  V30 35 H 3.66308 0.115141 2.14228 0
M  V30 36 H 1.32991 0.466645 1.46793 0
M  V30 37 H 6.17108 -1.90259 -0.255189 0
M  V30 38 H 5.91119 -1.98061 1.40832 0
M  V30 END ATOM
M  V30 BEGIN BOND
M  V30 1 1 1 2
M  V30 2 1 2 3
M  V30 3 1 3 4
M  V30 4 1 4 5
M  V30 5 1 5 6
M  V30 6 1 5 7
M  V30 7 1 7 8
M  V30 8 1 8 9
M  V30 9 1 9 10
M  V30 10 2 10 11
M  V30 11 1 11 12
M  V30 12 2 12 13
M  V30 13 1 13 14
M  V30 14 2 14 15
M  V30 15 1 13 16
M  V30 16 2 16 17
M  V30 17 2 16 18
M  V30 18 1 16 19
M  V30 19 1 6 2
M  V30 20 1 15 10
M  V30 21 1 1 20
M  V30 22 1 1 21
M  V30 23 1 2 22
M  V30 24 1 3 23
M  V30 25 1 3 24
M  V30 26 1 4 25
M  V30 27 1 4 26
M  V30 28 1 6 27
M  V30 29 1 6 28
M  V30 30 1 7 29
M  V30 31 1 7 30
M  V30 32 1 8 31
M  V30 33 1 8 32
M  V30 34 1 11 33
M  V30 35 1 12 34
M  V30 36 1 14 35
M  V30 37 1 15 36
M  V30 38 1 19 37
M  V30 39 1 19 38
M  V30 END BOND
M  V30 END CTAB
M  END
