
     RDKit          3D

  0  0  0  0  0  0  0  0  0  0999 V3000
M  V30 BEGIN CTAB
M  V30 COUNTS 30 31 0 0 0
M  V30 BEGIN ATOM
M  V30 1 N 4.5061 0.860197 0.450649 0
M  V30 2 C 3.65672 -0.0112406 -0.334936 0
M  V30 3 C 2.23595 0.206915 -0.0423111 0
M  V30 4 C 1.85089 1.14049 0.875306 0
M  V30 5 N 0.526455 1.32729 1.13219 0
M  V30 6 C -0.40612 0.608955 0.49831 0
M  V30 7 N -0.0225811 -0.302106 -0.397635 0
M  V30 8 C 1.28343 -0.53293 -0.695637 0
M  V30 9 N 1.59575 -1.52482 -1.66488 0
M  V30 10 C -1.82783 0.841861 0.804389 0
M  V30 11 C -2.48936 -0.395339 1.33918 0
M  V30 12 C -2.5713 -1.64751 0.578042 0
M  V30 13 C -3.80978 -0.737687 0.668999 0
M  V30 14 C -2.49588 1.37024 -0.441954 0
M  V30 15 H 4.47154 0.616379 1.46088 0
M  V30 16 H 5.47343 0.887707 0.0822572 0
M  V30 17 H 3.87697 0.210204 -1.40033 0
M  V30 18 H 3.98069 -1.05492 -0.101946 0
M  V30 19 H 2.57458 1.73169 1.39957 0
M  V30 20 H 1.69712 -1.19475 -2.66376 0
M  V30 21 H 1.72325 -2.53193 -1.42855 0
M  V30 22 H -1.93981 1.64308 1.56909 0
M  V30 23 H -2.45035 -0.478433 2.44535 0
M  V30 24 H -2.13739 -1.7936 -0.422767 0
M  V30 25 H -2.63236 -2.59052 1.15881 0
M  V30 26 H -4.64428 -1.09396 1.3096 0
M  V30 27 H -4.0822 -0.22729 -0.273621 0
M  V30 28 H -3.51144 1.73924 -0.190456 0
M  V30 29 H -1.9111 2.27618 -0.747652 0
M  V30 30 H -2.52109 0.656623 -1.26864 0
M  V30 END ATOM
M  V30 BEGIN BOND
M  V30 1 1 1 2
M  V30 2 1 2 3
M  V30 3 2 3 4
M  V30 4 1 4 5
M  V30 5 2 5 6
M  V30 6 1 6 7
M  V30 7 2 7 8
M  V30 8 1 8 9
M  V30 9 1 6 10
M  V30 10 1 10 11
M  V30 11 1 11 12
M  V30 12 1 12 13
M  V30 13 1 10 14
M  V30 14 1 8 3
M  V30 15 1 13 11
M  V30 16 1 1 15
M  V30 17 1 1 16
M  V30 18 1 2 17
M  V30 19 1 2 18
M  V30 20 1 4 19
M  V30 21 1 9 20
M  V30 22 1 9 21
M  V30 23 1 10 22
M  V30 24 1 11 23
M  V30 25 1 12 24
M  V30 26 1 12 25
M  V30 27 1 13 26
M  V30 28 1 13 27
M  V30 29 1 14 28
M  V30 30 1 14 29
M  V30 31 1 14 30
M  V30 END BOND
M  V30 END CTAB
M  END
