
     RDKit          3D

  0  0  0  0  0  0  0  0  0  0999 V3000
M  V30 BEGIN CTAB
M  V30 COUNTS 23 24 0 0 0
M  V30 BEGIN ATOM
M  V30 1 N -3.61231 0.264487 -0.165883 0
M  V30 2 C -2.47579 -0.425077 -0.688644 0
M  V30 3 C -2.05552 -1.48732 0.255007 0
M  V30 4 C -0.988979 -1.07131 0.905163 0
M  V30 5 C -0.57628 0.284141 0.487185 0
M  V30 6 C -1.25972 0.464288 -0.859928 0
M  V30 7 C 0.889297 0.419859 0.375108 0
M  V30 8 N 1.65986 1.33694 0.950586 0
M  V30 9 N 2.94471 1.14944 0.622467 0
M  V30 10 C 2.98678 0.078443 -0.187028 0
M  V30 11 N 1.72405 -0.361463 -0.332764 0
M  V30 12 N 4.18752 -0.431634 -0.744859 0
M  V30 13 H -4.10255 0.86175 -0.867164 0
M  V30 14 H -3.4419 0.822443 0.6762 0
M  V30 15 H -2.76622 -0.922484 -1.63137 0
M  V30 16 H -2.5661 -2.47273 0.383801 0
M  V30 17 H -0.485207 -1.70096 1.67538 0
M  V30 18 H -1.01376 1.07668 1.1462 0
M  V30 19 H -1.52824 1.52113 -1.05061 0
M  V30 20 H -0.593667 0.031086 -1.63134 0
M  V30 21 H 3.75713 1.73598 0.943892 0
M  V30 22 H 4.89395 0.257789 -1.09026 0
M  V30 23 H 4.42292 -1.43147 -0.838555 0
M  V30 END ATOM
M  V30 BEGIN BOND
M  V30 1 1 1 2
M  V30 2 1 2 3
M  V30 3 2 3 4
M  V30 4 1 4 5
M  V30 5 1 5 6
M  V30 6 1 5 7
M  V30 7 2 7 8
M  V30 8 1 8 9
M  V30 9 1 9 10
M  V30 10 2 10 11
M  V30 11 1 10 12
M  V30 12 1 6 2
M  V30 13 1 11 7
M  V30 14 1 1 13
M  V30 15 1 1 14
M  V30 16 1 2 15
M  V30 17 1 3 16
M  V30 18 1 4 17
M  V30 19 1 5 18
M  V30 20 1 6 19
M  V30 21 1 6 20
M  V30 22 1 9 21
M  V30 23 1 12 22
M  V30 24 1 12 23
M  V30 END BOND
M  V30 END CTAB
M  END
