
     RDKit          3D

  0  0  0  0  0  0  0  0  0  0999 V3000
M  V30 BEGIN CTAB
M  V30 COUNTS 45 47 0 0 0
M  V30 BEGIN ATOM
M  V30 1 F -7.15789 0.800724 1.13507 0
M  V30 2 C -5.8273 0.931376 0.802491 0
M  V30 3 C -5.43904 0.734046 -0.51077 0
M  V30 4 C -4.11867 0.858306 -0.865721 0
M  V30 5 C -3.13513 1.18352 0.073121 0
M  V30 6 C -3.52868 1.37676 1.36651 0
M  V30 7 C -4.87716 1.24808 1.72044 0
M  V30 8 F -2.66446 1.71533 2.35508 0
M  V30 9 C -1.75267 1.26869 -0.406117 0
M  V30 10 C -0.895261 0.0630245 -0.175407 0
M  V30 11 C -1.46793 -1.17006 -0.833915 0
M  V30 12 C -0.538972 -2.31931 -0.803483 0
M  V30 13 C 0.906544 -2.05552 -0.990144 0
M  V30 14 N 1.32441 -0.705827 -0.805014 0
M  V30 15 C 0.380576 0.358741 -1.02979 0
M  V30 16 C 2.65285 -0.328684 -0.400009 0
M  V30 17 C 3.60916 -1.21945 -0.00742185 0
M  V30 18 C 4.85916 -0.785535 0.359178 0
M  V30 19 N 5.8922 -1.67565 0.780608 0
M  V30 20 N 5.18066 0.524689 0.343571 0
M  V30 21 C 4.24623 1.40299 -0.0406216 0
M  V30 22 N 3.02036 0.984729 -0.400604 0
M  V30 23 N 4.56146 2.77958 -0.0667281 0
M  V30 24 C -0.509446 -0.230247 1.19072 0
M  V30 25 O -1.00332 -1.21186 1.79746 0
M  V30 26 O 0.417851 0.523896 1.94225 0
M  V30 27 H -6.22678 0.482121 -1.21443 0
M  V30 28 H -3.84086 0.701826 -1.88521 0
M  V30 29 H -5.18217 1.40668 2.76622 0
M  V30 30 H -1.29041 2.19707 0.0455532 0
M  V30 31 H -1.70012 1.48441 -1.51024 0
M  V30 32 H -1.76784 -0.930257 -1.88287 0
M  V30 33 H -2.41322 -1.47815 -0.334982 0
M  V30 34 H -0.748684 -2.93716 0.103279 0
M  V30 35 H -0.85124 -3.00199 -1.6605 0
M  V30 36 H 1.47408 -2.69435 -0.271551 0
M  V30 37 H 1.22945 -2.33669 -2.03746 0
M  V30 38 H 0.755442 1.3546 -0.79879 0
M  V30 39 H 0.0369901 0.304931 -2.08215 0
M  V30 40 H 3.39349 -2.26353 0.0156491 0
M  V30 41 H 6.74165 -1.74118 0.182452 0
M  V30 42 H 5.82152 -2.2555 1.65974 0
M  V30 43 H 4.17435 3.38903 -0.81952 0
M  V30 44 H 5.17469 3.23608 0.637988 0
M  V30 45 H 1.08416 0.029743 2.55607 0
M  V30 END ATOM
M  V30 BEGIN BOND
M  V30 1 1 1 2
M  V30 2 2 2 3
M  V30 3 1 3 4
M  V30 4 2 4 5
M  V30 5 1 5 6
M  V30 6 2 6 7
M  V30 7 1 6 8
M  V30 8 1 5 9
M  V30 9 1 9 10
M  V30 10 1 10 11
M  V30 11 1 11 12
M  V30 12 1 12 13
M  V30 13 1 13 14
M  V30 14 1 14 15
M  V30 15 1 14 16
M  V30 16 2 16 17
M  V30 17 1 17 18
M  V30 18 1 18 19
M  V30 19 2 18 20
M  V30 20 1 20 21
M  V30 21 2 21 22
M  V30 22 1 21 23
M  V30 23 1 10 24
M  V30 24 2 24 25
M  V30 25 1 24 26
M  V30 26 1 7 2
M  V30 27 1 15 10
M  V30 28 1 22 16
M  V30 29 1 3 27
M  V30 30 1 4 28
M  V30 31 1 7 29
M  V30 32 1 9 30
M  V30 33 1 9 31
M  V30 34 1 11 32
M  V30 35 1 11 33
M  V30 36 1 12 34
M  V30 37 1 12 35
M  V30 38 1 13 36
M  V30 39 1 13 37
M  V30 40 1 15 38
M  V30 41 1 15 39
M  V30 42 1 17 40
M  V30 43 1 19 41
M  V30 44 1 19 42
M  V30 45 1 23 43
M  V30 46 1 23 44
M  V30 47 1 26 45
M  V30 END BOND
M  V30 END CTAB
M  END
