
     RDKit          3D

  0  0  0  0  0  0  0  0  0  0999 V3000
M  V30 BEGIN CTAB
M  V30 COUNTS 35 37 0 0 0
M  V30 BEGIN ATOM
M  V30 1 N 4.62627 -0.568676 2.61378 0
M  V30 2 N 3.99908 -0.498824 1.41543 0
M  V30 3 C 2.59555 -0.542632 1.35807 0
M  V30 4 O 1.90096 -0.646014 2.40119 0
M  V30 5 C 1.92557 -0.4665 0.0579664 0 CFG=1
M  V30 6 O 0.536323 -0.521589 0.154799 0
M  V30 7 C 0.159002 -0.332112 -1.17146 0 CFG=2
M  V30 8 C 1.04616 0.77989 -1.70542 0 CFG=2
M  V30 9 O 1.56575 0.394398 -2.92507 0
M  V30 10 C 2.13495 0.841501 -0.653263 0 CFG=2
M  V30 11 O 3.39922 0.938866 -1.22728 0
M  V30 12 N -1.23102 0.071924 -1.29518 0
M  V30 13 C -1.68736 0.737219 -2.37206 0
M  V30 14 N -2.98576 0.964178 -2.19498 0
M  V30 15 C -3.36249 0.451189 -1.01749 0
M  V30 16 C -2.24231 -0.114736 -0.450211 0
M  V30 17 N -2.2886 -0.722137 0.753527 0
M  V30 18 C -3.49181 -0.746926 1.37502 0
M  V30 19 N -3.67308 -1.35287 2.64023 0
M  V30 20 N -4.60381 -0.190533 0.822379 0
M  V30 21 C -4.56356 0.417216 -0.379149 0
M  V30 22 O -5.58224 0.938183 -0.907329 0
M  V30 23 H 5.60286 -0.819242 2.55092 0
M  V30 24 H 4.45803 0.190193 3.23545 0
M  V30 25 H 4.55153 -0.413967 0.551311 0
M  V30 26 H 2.24706 -1.27076 -0.633779 0
M  V30 27 H 0.294322 -1.27937 -1.70189 0
M  V30 28 H 0.479205 1.7312 -1.75947 0
M  V30 29 H 2.5311 0.18034 -2.905 0
M  V30 30 H 1.92031 1.72368 -0.0231802 0
M  V30 31 H 3.88264 1.71112 -0.853245 0
M  V30 32 H -1.13179 1.05564 -3.25623 0
M  V30 33 H -4.09401 -2.29731 2.68634 0
M  V30 34 H -3.39429 -0.87 3.50125 0
M  V30 35 H -5.52375 -0.217934 1.314 0
M  V30 END ATOM
M  V30 BEGIN BOND
M  V30 1 1 1 2
M  V30 2 1 2 3
M  V30 3 2 3 4
M  V30 4 1 3 5
M  V30 5 1 5 6
M  V30 6 1 6 7
M  V30 7 1 7 8
M  V30 8 1 8 9
M  V30 9 1 8 10
M  V30 10 1 10 11
M  V30 11 1 7 12
M  V30 12 1 12 13
M  V30 13 2 13 14
M  V30 14 1 14 15
M  V30 15 2 15 16
M  V30 16 1 16 17
M  V30 17 2 17 18
M  V30 18 1 18 19
M  V30 19 1 18 20
M  V30 20 1 20 21
M  V30 21 2 21 22
M  V30 22 1 10 5
M  V30 23 1 16 12
M  V30 24 1 21 15
M  V30 25 1 1 23
M  V30 26 1 1 24
M  V30 27 1 2 25
M  V30 28 1 5 26 CFG=3
M  V30 29 1 7 27 CFG=3
M  V30 30 1 8 28 CFG=3
M  V30 31 1 9 29
M  V30 32 1 10 30 CFG=1
M  V30 33 1 11 31
M  V30 34 1 13 32
M  V30 35 1 19 33
M  V30 36 1 19 34
M  V30 37 1 20 35
M  V30 END BOND
M  V30 END CTAB
M  END
