
     RDKit          3D

  0  0  0  0  0  0  0  0  0  0999 V3000
M  V30 BEGIN CTAB
M  V30 COUNTS 35 36 0 0 0
M  V30 BEGIN ATOM
M  V30 1 N 4.76805 0.313747 -2.58215 0
M  V30 2 S 3.22311 1.06377 -2.42075 0
M  V30 3 O 3.34012 2.48817 -2.93953 0
M  V30 4 O 2.20888 0.332632 -3.26299 0
M  V30 5 C 2.69242 1.13512 -0.764395 0
M  V30 6 C 1.95332 0.11298 -0.21149 0
M  V30 7 C 1.52632 0.156525 1.09924 0
M  V30 8 C 1.84843 1.2558 1.88044 0
M  V30 9 C 2.58372 2.25875 1.30864 0
M  V30 10 C 3.01507 2.22341 -0.00189442 0
M  V30 11 S 0.592822 -1.18653 1.71616 0
M  V30 12 O 0.893551 -1.39239 3.19483 0
M  V30 13 O 1.10093 -2.42594 1.0233 0
M  V30 14 C -1.1112 -0.960952 1.48091 0
M  V30 15 C -1.88442 -0.337694 2.42865 0
M  V30 16 C -3.25573 -0.152554 2.24657 0
M  V30 17 C -3.83952 -0.600959 1.10172 0
M  V30 18 C -3.07266 -1.22343 0.153 0
M  V30 19 C -1.70735 -1.41025 0.329255 0
M  V30 20 S -3.78081 -1.82011 -1.34262 0
M  V30 21 N -3.73254 -0.592928 -2.5507 0
M  V30 22 O -2.95246 -2.9747 -1.85835 0
M  V30 23 O -5.17775 -2.33431 -1.11937 0
M  V30 24 H 5.49404 1.04273 -2.46608 0
M  V30 25 H 4.83962 -0.389503 -1.80168 0
M  V30 26 H 1.72547 -0.732108 -0.869637 0
M  V30 27 H 1.49437 1.24772 2.89816 0
M  V30 28 H 2.82436 3.11014 1.93938 0
M  V30 29 H 3.60048 3.05569 -0.404349 0
M  V30 30 H -1.46153 0.0306398 3.34605 0
M  V30 31 H -3.83006 0.338625 3.00768 0
M  V30 32 H -4.90675 -0.477801 0.917642 0
M  V30 33 H -1.1353 -1.90969 -0.44952 0
M  V30 34 H -4.6987 -0.369847 -2.83589 0
M  V30 35 H -3.17829 0.193703 -2.19025 0
M  V30 END ATOM
M  V30 BEGIN BOND
M  V30 1 1 1 2
M  V30 2 2 2 3
M  V30 3 2 2 4
M  V30 4 1 2 5
M  V30 5 2 5 6
M  V30 6 1 6 7
M  V30 7 2 7 8
M  V30 8 1 8 9
M  V30 9 2 9 10
M  V30 10 1 7 11
M  V30 11 2 11 12
M  V30 12 2 11 13
M  V30 13 1 11 14
M  V30 14 2 14 15
M  V30 15 1 15 16
M  V30 16 2 16 17
M  V30 17 1 17 18
M  V30 18 2 18 19
M  V30 19 1 18 20
M  V30 20 1 20 21
M  V30 21 2 20 22
M  V30 22 2 20 23
M  V30 23 1 10 5
M  V30 24 1 19 14
M  V30 25 1 1 24
M  V30 26 1 1 25
M  V30 27 1 6 26
M  V30 28 1 8 27
M  V30 29 1 9 28
M  V30 30 1 10 29
M  V30 31 1 15 30
M  V30 32 1 16 31
M  V30 33 1 17 32
M  V30 34 1 19 33
M  V30 35 1 21 34
M  V30 36 1 21 35
M  V30 END BOND
M  V30 END CTAB
M  END
