
     RDKit          3D

  0  0  0  0  0  0  0  0  0  0999 V3000
M  V30 BEGIN CTAB
M  V30 COUNTS 54 56 0 0 0
M  V30 BEGIN ATOM
M  V30 1 C -5.89991 -0.540093 0.103173 0 CFG=2
M  V30 2 C -6.14245 -1.5448 -0.973397 0
M  V30 3 C -7.5652 -1.72502 -1.30335 0
M  V30 4 C -8.19198 -0.497055 -1.82479 0
M  V30 5 O -9.58865 -0.523031 -2.06728 0
M  V30 6 O -7.53769 0.541365 -2.05287 0
M  V30 7 N -4.40773 -0.530466 0.254389 0
M  V30 8 C -3.68883 0.668124 0.0823759 0
M  V30 9 O -4.31053 1.72153 -0.197341 0
M  V30 10 C -2.25591 0.711986 0.219666 0
M  V30 11 C -1.57402 -0.383269 0.667698 0
M  V30 12 C -0.196231 -0.328833 0.79 0
M  V30 13 C 0.520694 0.800446 0.473506 0
M  V30 14 C 1.98608 0.819805 0.613288 0
M  V30 15 N 2.58281 0.313537 -0.602429 0
M  V30 16 C 3.97614 0.195133 -0.796296 0
M  V30 17 C 4.51085 -0.288001 -1.96722 0
M  V30 18 C 5.8946 -0.397998 -2.13878 0
M  V30 19 C 6.75657 -0.0228581 -1.13304 0
M  V30 20 N 8.09949 -0.135959 -1.31453 0
M  V30 21 C 8.90165 0.239346 -0.312105 0
M  V30 22 N 10.326 0.140312 -0.452654 0
M  V30 23 N 8.39894 0.711157 0.833285 0
M  V30 24 C 7.06984 0.840389 1.05613 0
M  V30 25 N 6.53355 1.33759 2.26336 0
M  V30 26 C 6.22714 0.459857 0.0373517 0
M  V30 27 C 4.85357 0.563879 0.194659 0
M  V30 28 C -0.156569 1.9051 0.0231293 0
M  V30 29 C -1.5488 1.87061 -0.107713 0
M  V30 30 C -6.47554 -0.884722 1.41337 0
M  V30 31 O -7.81969 -0.945021 1.69538 0
M  V30 32 O -5.70091 -1.15455 2.3951 0
M  V30 33 H -6.19608 0.488033 -0.152697 0
M  V30 34 H -5.59998 -1.24412 -1.93032 0
M  V30 35 H -5.62517 -2.49661 -0.686286 0
M  V30 36 H -7.66602 -2.56102 -2.07038 0
M  V30 37 H -8.13935 -2.03065 -0.383939 0
M  V30 38 H -10.1693 -0.89124 -1.2988 0
M  V30 39 H -4.0322 -1.46295 0.482702 0
M  V30 40 H -2.09211 -1.27766 0.924802 0
M  V30 41 H 0.362908 -1.18956 1.14491 0
M  V30 42 H 2.26144 0.166848 1.48724 0
M  V30 43 H 2.36563 1.82979 0.871877 0
M  V30 44 H 1.96005 0.00712568 -1.40967 0
M  V30 45 H 3.82681 -0.584945 -2.76411 0
M  V30 46 H 6.3153 -0.776212 -3.05608 0
M  V30 47 H 10.7444 0.37255 -1.38277 0
M  V30 48 H 10.9355 -0.148944 0.326563 0
M  V30 49 H 6.00799 0.729659 2.91619 0
M  V30 50 H 6.64216 2.33834 2.55322 0
M  V30 51 H 4.42063 0.94721 1.12394 0
M  V30 52 H 0.326283 2.83343 -0.24786 0
M  V30 53 H -2.06019 2.74075 -0.460586 0
M  V30 54 H -8.16608 -1.72831 2.25248 0
M  V30 END ATOM
M  V30 BEGIN BOND
M  V30 1 1 1 2
M  V30 2 1 2 3
M  V30 3 1 3 4
M  V30 4 1 4 5
M  V30 5 2 4 6
M  V30 6 1 1 7
M  V30 7 1 7 8
M  V30 8 2 8 9
M  V30 9 1 8 10
M  V30 10 2 10 11
M  V30 11 1 11 12
M  V30 12 2 12 13
M  V30 13 1 13 14
M  V30 14 1 14 15
M  V30 15 1 15 16
M  V30 16 2 16 17
M  V30 17 1 17 18
M  V30 18 2 18 19
M  V30 19 1 19 20
M  V30 20 2 20 21
M  V30 21 1 21 22
M  V30 22 1 21 23
M  V30 23 2 23 24
M  V30 24 1 24 25
M  V30 25 1 24 26
M  V30 26 2 26 27
M  V30 27 1 13 28
M  V30 28 2 28 29
M  V30 29 1 1 30
M  V30 30 1 30 31
M  V30 31 2 30 32
M  V30 32 1 29 10
M  V30 33 1 27 16
M  V30 34 1 26 19
M  V30 35 1 1 33 CFG=3
M  V30 36 1 2 34
M  V30 37 1 2 35
M  V30 38 1 3 36
M  V30 39 1 3 37
M  V30 40 1 5 38
M  V30 41 1 7 39
M  V30 42 1 11 40
M  V30 43 1 12 41
M  V30 44 1 14 42
M  V30 45 1 14 43
M  V30 46 1 15 44
M  V30 47 1 17 45
M  V30 48 1 18 46
M  V30 49 1 22 47
M  V30 50 1 22 48
M  V30 51 1 25 49
M  V30 52 1 25 50
M  V30 53 1 27 51
M  V30 54 1 28 52
M  V30 55 1 29 53
M  V30 56 1 31 54
M  V30 END BOND
M  V30 END CTAB
M  END
