
     RDKit          3D

  0  0  0  0  0  0  0  0  0  0999 V3000
M  V30 BEGIN CTAB
M  V30 COUNTS 24 24 0 0 0
M  V30 BEGIN ATOM
M  V30 1 C -2.27604 -0.377283 1.16018 0
M  V30 2 C -1.51814 -0.399081 -0.136309 0
M  V30 3 C -0.0840915 -0.261767 -0.00439795 0
M  V30 4 C 0.48736 1.02239 -0.026821 0
M  V30 5 N -0.310546 2.17151 -0.0233887 0
M  V30 6 N 1.81971 1.10809 0.0277616 0
M  V30 7 C 2.63416 0.0623682 0.105476 0
M  V30 8 N 2.11893 -1.20019 0.130749 0
M  V30 9 C 0.782456 -1.36212 0.0797156 0
M  V30 10 O 0.291817 -2.53518 0.101035 0
M  V30 11 N 4.04297 0.186106 0.208048 0
M  V30 12 C -2.20172 0.102669 -1.36805 0
M  V30 13 H -2.29567 -1.29837 1.73101 0
M  V30 14 H -1.87272 0.411522 1.85248 0
M  V30 15 H -3.33719 -0.0492995 1.00053 0
M  V30 16 H -1.59779 -1.58733 -0.361826 0
M  V30 17 H -0.857451 2.49206 0.820426 0
M  V30 18 H -0.393018 2.75188 -0.878258 0
M  V30 19 H 2.75746 -2.0711 0.174822 0
M  V30 20 H 4.56576 -0.374735 0.928856 0
M  V30 21 H 4.5463 0.816645 -0.398446 0
M  V30 22 H -2.51243 1.13127 -1.38952 0
M  V30 23 H -3.17787 -0.498939 -1.48288 0
M  V30 24 H -1.61225 -0.241121 -2.2512 0
M  V30 END ATOM
M  V30 BEGIN BOND
M  V30 1 1 1 2
M  V30 2 1 2 3
M  V30 3 2 3 4
M  V30 4 1 4 5
M  V30 5 1 4 6
M  V30 6 2 6 7
M  V30 7 1 7 8
M  V30 8 1 8 9
M  V30 9 2 9 10
M  V30 10 1 7 11
M  V30 11 1 2 12
M  V30 12 1 9 3
M  V30 13 1 1 13
M  V30 14 1 1 14
M  V30 15 1 1 15
M  V30 16 1 2 16
M  V30 17 1 5 17
M  V30 18 1 5 18
M  V30 19 1 8 19
M  V30 20 1 11 20
M  V30 21 1 11 21
M  V30 22 1 12 22
M  V30 23 1 12 23
M  V30 24 1 12 24
M  V30 END BOND
M  V30 END CTAB
M  END
