
     RDKit          3D

  0  0  0  0  0  0  0  0  0  0999 V3000
M  V30 BEGIN CTAB
M  V30 COUNTS 51 52 0 0 0
M  V30 BEGIN ATOM
M  V30 1 N 7.11251 -2.76286 -1.84419 0
M  V30 2 C 6.56356 -1.54185 -1.30331 0
M  V30 3 C 6.98592 -1.34239 0.148464 0
M  V30 4 C 6.34403 -0.031535 0.586289 0
M  V30 5 N 4.90163 -0.219831 0.437805 0
M  V30 6 C 4.20263 0.991798 0.828262 0
M  V30 7 C 2.75397 0.723919 0.657848 0
M  V30 8 C 2.16188 0.979514 -0.553362 0
M  V30 9 C 0.813469 0.734902 -0.729393 0
M  V30 10 C 0.0365332 0.232642 0.297828 0
M  V30 11 C -1.44262 -0.0419406 0.12256 0
M  V30 12 N -2.22563 1.01389 0.633328 0
M  V30 13 C -3.62705 0.93571 0.592996 0
M  V30 14 C -4.31351 1.01658 -0.719072 0
M  V30 15 N -3.92651 -0.0383978 -1.61327 0
M  V30 16 C -5.79658 1.12578 -0.659288 0
M  V30 17 C -6.50826 0.0164324 -0.0196212 0
M  V30 18 C -7.90352 0.0353654 0.106404 0
M  V30 19 N -8.22907 -1.10701 0.715308 0
M  V30 20 C -7.14062 -1.84857 0.983637 0
M  V30 21 N -6.09442 -1.14215 0.524899 0
M  V30 22 C 0.664137 -0.0120937 1.50046 0
M  V30 23 C 2.01913 0.222985 1.70988 0
M  V30 24 H 7.2081 -2.63396 -2.87759 0
M  V30 25 H 8.08992 -2.87453 -1.46138 0
M  V30 26 H 5.44683 -1.51572 -1.36438 0
M  V30 27 H 6.93796 -0.702071 -1.92554 0
M  V30 28 H 6.46936 -2.14698 0.72859 0
M  V30 29 H 8.07194 -1.35033 0.263225 0
M  V30 30 H 6.61936 0.205981 1.63413 0
M  V30 31 H 6.70519 0.795806 -0.0608426 0
M  V30 32 H 4.65011 -1.03977 1.03174 0
M  V30 33 H 4.4602 1.22622 1.87895 0
M  V30 34 H 4.47749 1.7837 0.12285 0
M  V30 35 H 2.77438 1.36961 -1.34774 0
M  V30 36 H 0.364336 0.93972 -1.68367 0
M  V30 37 H -1.60127 -1.00869 0.688077 0
M  V30 38 H -1.54342 -0.302812 -0.92995 0
M  V30 39 H -1.80536 1.93323 0.459776 0
M  V30 40 H -4.02327 1.78704 1.22273 0
M  V30 41 H -3.93433 0.010995 1.13407 0
M  V30 42 H -3.93584 1.96963 -1.21399 0
M  V30 43 H -3.54455 0.262424 -2.51494 0
M  V30 44 H -4.58076 -0.824145 -1.61957 0
M  V30 45 H -6.03789 2.05947 -0.0712037 0
M  V30 46 H -6.18831 1.34209 -1.68984 0
M  V30 47 H -8.59219 0.823089 -0.221607 0
M  V30 48 H -9.18662 -1.43537 0.971887 0
M  V30 49 H -7.10654 -2.81394 1.46855 0
M  V30 50 H 0.0364933 -0.410356 2.30253 0
M  V30 51 H 2.41704 0.00554906 2.67067 0
M  V30 END ATOM
M  V30 BEGIN BOND
M  V30 1 1 1 2
M  V30 2 1 2 3
M  V30 3 1 3 4
M  V30 4 1 4 5
M  V30 5 1 5 6
M  V30 6 1 6 7
M  V30 7 2 7 8
M  V30 8 1 8 9
M  V30 9 2 9 10
M  V30 10 1 10 11
M  V30 11 1 11 12
M  V30 12 1 12 13
M  V30 13 1 13 14
M  V30 14 1 14 15
M  V30 15 1 14 16
M  V30 16 1 16 17
M  V30 17 2 17 18
M  V30 18 1 18 19
M  V30 19 1 19 20
M  V30 20 2 20 21
M  V30 21 1 10 22
M  V30 22 2 22 23
M  V30 23 1 23 7
M  V30 24 1 21 17
M  V30 25 1 1 24
M  V30 26 1 1 25
M  V30 27 1 2 26
M  V30 28 1 2 27
M  V30 29 1 3 28
M  V30 30 1 3 29
M  V30 31 1 4 30
M  V30 32 1 4 31
M  V30 33 1 5 32
M  V30 34 1 6 33
M  V30 35 1 6 34
M  V30 36 1 8 35
M  V30 37 1 9 36
M  V30 38 1 11 37
M  V30 39 1 11 38
M  V30 40 1 12 39
M  V30 41 1 13 40
M  V30 42 1 13 41
M  V30 43 1 14 42
M  V30 44 1 15 43
M  V30 45 1 15 44
M  V30 46 1 16 45
M  V30 47 1 16 46
M  V30 48 1 18 47
M  V30 49 1 19 48
M  V30 50 1 20 49
M  V30 51 1 22 50
M  V30 52 1 23 51
M  V30 END BOND
M  V30 END CTAB
M  END
