
     RDKit          3D

  0  0  0  0  0  0  0  0  0  0999 V3000
M  V30 BEGIN CTAB
M  V30 COUNTS 58 59 0 0 0
M  V30 BEGIN ATOM
M  V30 1 N -8.97939 -1.26748 1.77578 0
M  V30 2 C -9.61058 -1.37598 0.520034 0
M  V30 3 S -11.0425 -2.1289 0.411302 0
M  V30 4 N -9.00653 -0.838299 -0.624004 0
M  V30 5 N -7.77432 -0.195167 -0.505145 0
M  V30 6 C -7.00436 0.0679743 -1.48146 0
M  V30 7 C -5.71742 0.747982 -1.29413 0
M  V30 8 C -4.90769 1.01696 -2.37493 0
M  V30 9 C -3.69582 1.65426 -2.21837 0
M  V30 10 C -3.24582 2.0495 -0.961712 0
M  V30 11 C -4.0636 1.77597 0.115549 0
M  V30 12 C -5.27329 1.13815 -0.0533297 0
M  V30 13 O -6.06275 0.882292 1.04852 0
M  V30 14 S -1.70904 2.85412 -0.785196 0
M  V30 15 O -1.38595 3.57072 -2.06446 0
M  V30 16 O -1.75892 3.81904 0.377045 0
M  V30 17 N -0.498742 1.65114 -0.535886 0
M  V30 18 C -0.460636 0.797907 -1.69555 0
M  V30 19 C 0.583096 -0.289755 -1.55228 0
M  V30 20 N 0.298629 -1.11777 -0.403066 0
M  V30 21 S 1.50604 -2.34539 -0.269941 0
M  V30 22 O 1.52456 -3.24857 -1.45616 0
M  V30 23 O 1.12191 -3.18946 0.93476 0
M  V30 24 C 3.0855 -1.64561 -0.0347882 0
M  V30 25 C 3.85943 -1.34148 -1.15029 0
M  V30 26 C 5.11112 -0.786673 -0.943456 0
M  V30 27 C 5.59634 -0.534689 0.315814 0
M  V30 28 C 4.81427 -0.843192 1.4048 0
M  V30 29 C 3.54295 -1.40542 1.23539 0
M  V30 30 O 5.23568 -0.617954 2.70285 0
M  V30 31 C 6.90945 0.0454485 0.473444 0
M  V30 32 N 7.43408 0.311317 1.62844 0
M  V30 33 N 8.72162 0.879285 1.75558 0
M  V30 34 C 9.65633 0.403309 2.70852 0
M  V30 35 S 9.33548 -0.823028 3.72805 0
M  V30 36 N 10.9299 1.02348 2.77767 0
M  V30 37 H -7.96704 -1.51387 1.84096 0
M  V30 38 H -9.46963 -0.953472 2.64703 0
M  V30 39 H -9.47946 -0.923123 -1.54547 0
M  V30 40 H -7.30621 -0.215674 -2.46539 0
M  V30 41 H -5.27882 0.698782 -3.35267 0
M  V30 42 H -3.08776 1.8487 -3.08676 0
M  V30 43 H -3.71159 2.08678 1.11113 0
M  V30 44 H -5.76526 1.15533 1.96703 0
M  V30 45 H -0.798413 1.0813 0.285667 0
M  V30 46 H -1.43766 0.264473 -1.85385 0
M  V30 47 H -0.268936 1.37195 -2.62529 0
M  V30 48 H 1.60037 0.118041 -1.43302 0
M  V30 49 H 0.539894 -0.936937 -2.45004 0
M  V30 50 H -0.656404 -1.49556 -0.370431 0
M  V30 51 H 3.48793 -1.5355 -2.14689 0
M  V30 52 H 5.68853 -0.562088 -1.84859 0
M  V30 53 H 2.91832 -1.65264 2.07668 0
M  V30 54 H 4.66187 -0.844831 3.48724 0
M  V30 55 H 7.49286 0.274324 -0.383259 0
M  V30 56 H 8.92209 1.66406 1.10073 0
M  V30 57 H 11.6226 0.77196 2.03814 0
M  V30 58 H 11.2236 1.69989 3.49765 0
M  V30 END ATOM
M  V30 BEGIN BOND
M  V30 1 1 1 2
M  V30 2 2 2 3
M  V30 3 1 2 4
M  V30 4 1 4 5
M  V30 5 2 5 6
M  V30 6 1 6 7
M  V30 7 2 7 8
M  V30 8 1 8 9
M  V30 9 2 9 10
M  V30 10 1 10 11
M  V30 11 2 11 12
M  V30 12 1 12 13
M  V30 13 1 10 14
M  V30 14 2 14 15
M  V30 15 2 14 16
M  V30 16 1 14 17
M  V30 17 1 17 18
M  V30 18 1 18 19
M  V30 19 1 19 20
M  V30 20 1 20 21
M  V30 21 2 21 22
M  V30 22 2 21 23
M  V30 23 1 21 24
M  V30 24 2 24 25
M  V30 25 1 25 26
M  V30 26 2 26 27
M  V30 27 1 27 28
M  V30 28 2 28 29
M  V30 29 1 28 30
M  V30 30 1 27 31
M  V30 31 2 31 32
M  V30 32 1 32 33
M  V30 33 1 33 34
M  V30 34 2 34 35
M  V30 35 1 34 36
M  V30 36 1 12 7
M  V30 37 1 29 24
M  V30 38 1 1 37
M  V30 39 1 1 38
M  V30 40 1 4 39
M  V30 41 1 6 40
M  V30 42 1 8 41
M  V30 43 1 9 42
M  V30 44 1 11 43
M  V30 45 1 13 44
M  V30 46 1 17 45
M  V30 47 1 18 46
M  V30 48 1 18 47
M  V30 49 1 19 48
M  V30 50 1 19 49
M  V30 51 1 20 50
M  V30 52 1 25 51
M  V30 53 1 26 52
M  V30 54 1 29 53
M  V30 55 1 30 54
M  V30 56 1 31 55
M  V30 57 1 33 56
M  V30 58 1 36 57
M  V30 59 1 36 58
M  V30 END BOND
M  V30 END CTAB
M  END
