
     RDKit          3D

  0  0  0  0  0  0  0  0  0  0999 V3000
M  V30 BEGIN CTAB
M  V30 COUNTS 42 44 0 0 0
M  V30 BEGIN ATOM
M  V30 1 N -5.05804 3.48971 2.01809 0
M  V30 2 C -4.0491 2.63633 1.52843 0
M  V30 3 C -3.64293 1.48704 2.21698 0
M  V30 4 C -2.6558 0.656768 1.7309 0
M  V30 5 C -2.03496 0.940124 0.53898 0
M  V30 6 C -2.41451 2.06035 -0.155359 0
M  V30 7 C -3.39941 2.8892 0.329172 0
M  V30 8 N -1.02776 0.114718 0.0194371 0
M  V30 9 C 0.359587 0.442797 0.240201 0
M  V30 10 O 0.604864 1.45197 0.922401 0
M  V30 11 N 1.31842 -0.401682 -0.327397 0
M  V30 12 C 2.7143 -0.273801 -0.217915 0
M  V30 13 C 3.31133 0.659152 0.618904 0
M  V30 14 C 4.706 0.736766 0.730675 0
M  V30 15 C 5.47748 -0.118363 0.00479429 0
M  V30 16 C 4.89821 -1.06677 -0.845865 0
M  V30 17 C 3.53123 -1.11999 -0.936367 0
M  V30 18 Cl 2.804 -2.32564 -2.0243 0
M  V30 19 N 6.88868 -0.0482815 0.118493 0
M  V30 20 C -1.34684 -1.04584 -0.704189 0
M  V30 21 C -1.7133 -1.03834 -2.02811 0
M  V30 22 C -2.00987 -2.22088 -2.65366 0
M  V30 23 C -1.93087 -3.40313 -1.92588 0
M  V30 24 C -1.56738 -3.42636 -0.605931 0
M  V30 25 C -1.27267 -2.24708 0.0149575 0
M  V30 26 H -4.95049 4.51365 1.94059 0
M  V30 27 H -5.91099 3.10518 2.45861 0
M  V30 28 H -4.14786 1.28548 3.1558 0
M  V30 29 H -2.33913 -0.233816 2.25879 0
M  V30 30 H -1.92909 2.28548 -1.09285 0
M  V30 31 H -3.7146 3.79422 -0.221783 0
M  V30 32 H 0.994207 -1.24645 -0.915587 0
M  V30 33 H 2.7811 1.34753 1.2173 0
M  V30 34 H 5.1602 1.48526 1.40388 0
M  V30 35 H 5.51843 -1.74195 -1.42284 0
M  V30 36 H 7.31743 0.740962 0.634468 0
M  V30 37 H 7.47104 -0.810593 -0.32689 0
M  V30 38 H -1.77135 -0.120655 -2.58141 0
M  V30 39 H -2.30538 -2.28987 -3.69533 0
M  V30 40 H -2.16782 -4.33434 -2.42823 0
M  V30 41 H -1.50707 -4.35256 -0.0405332 0
M  V30 42 H -0.989282 -2.2563 1.04861 0
M  V30 END ATOM
M  V30 BEGIN BOND
M  V30 1 1 1 2
M  V30 2 2 2 3
M  V30 3 1 3 4
M  V30 4 2 4 5
M  V30 5 1 5 6
M  V30 6 2 6 7
M  V30 7 1 5 8
M  V30 8 1 8 9
M  V30 9 2 9 10
M  V30 10 1 9 11
M  V30 11 1 11 12
M  V30 12 2 12 13
M  V30 13 1 13 14
M  V30 14 2 14 15
M  V30 15 1 15 16
M  V30 16 2 16 17
M  V30 17 1 17 18
M  V30 18 1 15 19
M  V30 19 1 8 20
M  V30 20 2 20 21
M  V30 21 1 21 22
M  V30 22 2 22 23
M  V30 23 1 23 24
M  V30 24 2 24 25
M  V30 25 1 7 2
M  V30 26 1 17 12
M  V30 27 1 25 20
M  V30 28 1 1 26
M  V30 29 1 1 27
M  V30 30 1 3 28
M  V30 31 1 4 29
M  V30 32 1 6 30
M  V30 33 1 7 31
M  V30 34 1 11 32
M  V30 35 1 13 33
M  V30 36 1 14 34
M  V30 37 1 16 35
M  V30 38 1 19 36
M  V30 39 1 19 37
M  V30 40 1 21 38
M  V30 41 1 22 39
M  V30 42 1 23 40
M  V30 43 1 24 41
M  V30 44 1 25 42
M  V30 END BOND
M  V30 END CTAB
M  END
