
     RDKit          3D

  0  0  0  0  0  0  0  0  0  0999 V3000
M  V30 BEGIN CTAB
M  V30 COUNTS 30 31 0 0 0
M  V30 BEGIN ATOM
M  V30 1 N 2.7056 -1.47757 -1.03995 0
M  V30 2 C 2.49176 -0.184448 -0.411798 0
M  V30 3 N 3.41904 0.665655 -0.196987 0
M  V30 4 C 2.92827 1.83369 0.425628 0
M  V30 5 O 3.61675 2.86509 0.767245 0
M  V30 6 N 1.54517 1.63997 0.5941 0
M  V30 7 C 1.21586 0.353698 0.0698468 0
M  V30 8 C 0.541636 -0.516026 1.08332 0
M  V30 9 C -0.723179 -1.15803 0.661331 0
M  V30 10 C -1.65951 -0.325595 -0.139618 0
M  V30 11 C -1.03349 1.00716 -0.476306 0
M  V30 12 C 0.295672 0.653265 -1.11829 0
M  V30 13 C -2.97081 -0.0659698 0.570374 0
M  V30 14 N -2.00072 -0.953948 -1.42354 0
M  V30 15 H 3.63111 -1.93653 -1.05818 0
M  V30 16 H 1.91265 -1.96836 -1.48899 0
M  V30 17 H 0.906225 2.34948 1.03555 0
M  V30 18 H 1.26873 -1.29995 1.38364 0
M  V30 19 H 0.371648 0.105146 1.98777 0
M  V30 20 H -1.27797 -1.52751 1.55083 0
M  V30 21 H -0.50617 -2.08732 0.0583111 0
M  V30 22 H -0.887594 1.55444 0.477652 0
M  V30 23 H -1.67607 1.60921 -1.1416 0
M  V30 24 H 0.235997 -0.270535 -1.70185 0
M  V30 25 H 0.699763 1.51638 -1.65139 0
M  V30 26 H -2.82121 0.391274 1.55212 0
M  V30 27 H -3.58177 0.561673 -0.113693 0
M  V30 28 H -3.50887 -1.04196 0.650172 0
M  V30 29 H -2.37812 -1.90776 -1.24657 0
M  V30 30 H -2.76038 -0.384614 -1.86362 0
M  V30 END ATOM
M  V30 BEGIN BOND
M  V30 1 1 1 2
M  V30 2 2 2 3
M  V30 3 1 3 4
M  V30 4 2 4 5
M  V30 5 1 4 6
M  V30 6 1 6 7
M  V30 7 1 7 8
M  V30 8 1 8 9
M  V30 9 1 9 10
M  V30 10 1 10 11
M  V30 11 1 11 12
M  V30 12 1 10 13
M  V30 13 1 10 14
M  V30 14 1 7 2
M  V30 15 1 12 7
M  V30 16 1 1 15
M  V30 17 1 1 16
M  V30 18 1 6 17
M  V30 19 1 8 18
M  V30 20 1 8 19
M  V30 21 1 9 20
M  V30 22 1 9 21
M  V30 23 1 11 22
M  V30 24 1 11 23
M  V30 25 1 12 24
M  V30 26 1 12 25
M  V30 27 1 13 26
M  V30 28 1 13 27
M  V30 29 1 13 28
M  V30 30 1 14 29
M  V30 31 1 14 30
M  V30 END BOND
M  V30 END CTAB
M  END
