
     RDKit          3D

  0  0  0  0  0  0  0  0  0  0999 V3000
M  V30 BEGIN CTAB
M  V30 COUNTS 18 18 0 0 0
M  V30 BEGIN ATOM
M  V30 1 N 2.91354 -0.832177 -0.109761 0
M  V30 2 C 1.65285 -0.200344 -0.0916945 0
M  V30 3 C 1.63434 1.18001 -0.221025 0
M  V30 4 N 0.430319 1.77554 -0.202992 0
M  V30 5 C -0.698483 1.05899 -0.0655786 0
M  V30 6 C -0.707074 -0.3145 0.0647714 0
M  V30 7 C 0.503954 -0.94925 0.0500112 0
M  V30 8 C -1.94608 -1.08332 0.213913 0
M  V30 9 F -1.63685 -2.42283 0.321441 0
M  V30 10 F -2.51403 -0.717645 1.43422 0
M  V30 11 F -2.83207 -0.871722 -0.824186 0
M  V30 12 N -1.92075 1.76019 -0.0563528 0
M  V30 13 H 3.11414 -1.5427 -0.832617 0
M  V30 14 H 3.62054 -0.57567 0.601091 0
M  V30 15 H 2.56789 1.74595 -0.332128 0
M  V30 16 H 0.547144 -2.04018 0.150449 0
M  V30 17 H -2.35912 2.00415 0.843308 0
M  V30 18 H -2.37026 2.02551 -0.942872 0
M  V30 END ATOM
M  V30 BEGIN BOND
M  V30 1 1 1 2
M  V30 2 2 2 3
M  V30 3 1 3 4
M  V30 4 2 4 5
M  V30 5 1 5 6
M  V30 6 2 6 7
M  V30 7 1 6 8
M  V30 8 1 8 9
M  V30 9 1 8 10
M  V30 10 1 8 11
M  V30 11 1 5 12
M  V30 12 1 7 2
M  V30 13 1 1 13
M  V30 14 1 1 14
M  V30 15 1 3 15
M  V30 16 1 7 16
M  V30 17 1 12 17
M  V30 18 1 12 18
M  V30 END BOND
M  V30 END CTAB
M  END
