
     RDKit          3D

  0  0  0  0  0  0  0  0  0  0999 V3000
M  V30 BEGIN CTAB
M  V30 COUNTS 38 37 0 0 0
M  V30 BEGIN ATOM
M  V30 1 N 6.30614 1.08552 0.760441 0
M  V30 2 C 5.18103 0.467042 0.0936229 0
M  V30 3 C 3.95952 1.29814 0.4657 0
M  V30 4 C 2.69872 0.739208 -0.194777 0
M  V30 5 N 2.48008 -0.57145 0.278576 0
M  V30 6 C 1.39399 -1.31774 -0.228624 0
M  V30 7 C 0.118667 -0.650007 0.198675 0
M  V30 8 O 0.0106434 -0.530702 1.57146 0
M  V30 9 C -1.12985 -1.28226 -0.39718 0
M  V30 10 N -2.23717 -0.357771 -0.142832 0
M  V30 11 C -3.46297 -1.00563 -0.493858 0
M  V30 12 C -4.63582 -0.0484089 -0.430304 0
M  V30 13 C -4.81633 0.601346 0.910643 0
M  V30 14 N -5.98847 1.48607 0.810857 0
M  V30 15 H 6.81381 0.448995 1.38575 0
M  V30 16 H 6.90585 1.62366 0.109746 0
M  V30 17 H 5.0256 -0.592252 0.319446 0
M  V30 18 H 5.32357 0.560919 -1.01581 0
M  V30 19 H 4.09814 2.34734 0.220232 0
M  V30 20 H 3.76739 1.22791 1.56339 0
M  V30 21 H 2.78041 0.86053 -1.30223 0
M  V30 22 H 1.87879 1.40313 0.184483 0
M  V30 23 H 3.12743 -0.99558 0.925561 0
M  V30 24 H 1.38042 -1.42933 -1.33675 0
M  V30 25 H 1.46748 -2.36681 0.184867 0
M  V30 26 H 0.169212 0.425783 -0.175228 0
M  V30 27 H 0.409052 -1.2349 2.09689 0
M  V30 28 H -1.30199 -2.25541 0.0547897 0
M  V30 29 H -0.975468 -1.37213 -1.45757 0
M  V30 30 H -2.06125 0.454701 -0.781852 0
M  V30 31 H -3.39708 -1.37471 -1.53189 0
M  V30 32 H -3.69501 -1.85321 0.197073 0
M  V30 33 H -5.5512 -0.697836 -0.581191 0
M  V30 34 H -4.61307 0.658031 -1.27382 0
M  V30 35 H -4.93813 -0.159922 1.68509 0
M  V30 36 H -3.97247 1.28721 1.1652 0
M  V30 37 H -5.75003 2.198 0.0738384 0
M  V30 38 H -6.76965 0.922524 0.439721 0
M  V30 END ATOM
M  V30 BEGIN BOND
M  V30 1 1 1 2
M  V30 2 1 2 3
M  V30 3 1 3 4
M  V30 4 1 4 5
M  V30 5 1 5 6
M  V30 6 1 6 7
M  V30 7 1 7 8
M  V30 8 1 7 9
M  V30 9 1 9 10
M  V30 10 1 10 11
M  V30 11 1 11 12
M  V30 12 1 12 13
M  V30 13 1 13 14
M  V30 14 1 1 15
M  V30 15 1 1 16
M  V30 16 1 2 17
M  V30 17 1 2 18
M  V30 18 1 3 19
M  V30 19 1 3 20
M  V30 20 1 4 21
M  V30 21 1 4 22
M  V30 22 1 5 23
M  V30 23 1 6 24
M  V30 24 1 6 25
M  V30 25 1 7 26
M  V30 26 1 8 27
M  V30 27 1 9 28
M  V30 28 1 9 29
M  V30 29 1 10 30
M  V30 30 1 11 31
M  V30 31 1 11 32
M  V30 32 1 12 33
M  V30 33 1 12 34
M  V30 34 1 13 35
M  V30 35 1 13 36
M  V30 36 1 14 37
M  V30 37 1 14 38
M  V30 END BOND
M  V30 END CTAB
M  END
