
     RDKit          3D

  0  0  0  0  0  0  0  0  0  0999 V3000
M  V30 BEGIN CTAB
M  V30 COUNTS 46 48 0 0 0
M  V30 BEGIN ATOM
M  V30 1 N 6.16922 1.24748 -0.958263 0
M  V30 2 C 5.83369 0.0509633 -0.172169 0
M  V30 3 C 5.21838 0.542359 1.11437 0
M  V30 4 C 3.7394 0.649103 0.938212 0
M  V30 5 N 3.17097 -0.66527 0.759231 0
M  V30 6 C 1.75155 -0.670182 0.684624 0
M  V30 7 C 1.20073 -0.0175623 -0.55093 0
M  V30 8 C -0.295156 -0.0550812 -0.540415 0
M  V30 9 C -1.00716 -1.085 -1.10204 0
M  V30 10 C -2.38631 -1.08904 -1.07444 0
M  V30 11 C -3.12005 -0.0928033 -0.499972 0
M  V30 12 C -2.39591 0.95426 0.0712318 0
M  V30 13 C -1.02207 0.974638 0.0525882 0
M  V30 14 C -4.58325 -0.082452 -0.461363 0
M  V30 15 C -5.34688 -1.07997 -0.996452 0
M  V30 16 C -6.74565 -1.06277 -0.955562 0
M  V30 17 C -7.35371 0.00598693 -0.350304 0
M  V30 18 C -6.58916 1.01679 0.192163 0
M  V30 19 N -7.22931 2.14445 0.829963 0
M  V30 20 N -5.24829 0.949423 0.124673 0
M  V30 21 C 3.88826 -1.54137 -0.0812909 0
M  V30 22 C 4.89954 -0.825928 -0.970157 0
M  V30 23 H 6.15893 1.04224 -1.97945 0
M  V30 24 H 5.40552 1.92645 -0.777433 0
M  V30 25 H 6.78405 -0.440611 0.0452943 0
M  V30 26 H 5.53786 -0.0886793 1.95167 0
M  V30 27 H 5.58622 1.58669 1.3317 0
M  V30 28 H 3.29144 1.12778 1.83481 0
M  V30 29 H 3.55591 1.26127 0.0249383 0
M  V30 30 H 1.36132 -0.0911099 1.56321 0
M  V30 31 H 1.35694 -1.682 0.763056 0
M  V30 32 H 1.61211 0.982471 -0.673678 0
M  V30 33 H 1.5244 -0.64159 -1.43055 0
M  V30 34 H -0.494807 -1.91081 -1.57691 0
M  V30 35 H -2.9139 -1.92104 -1.52994 0
M  V30 36 H -2.985 1.74358 0.527287 0
M  V30 37 H -0.468796 1.79028 0.498317 0
M  V30 38 H -4.89447 -1.92962 -1.47731 0
M  V30 39 H -7.32975 -1.87219 -1.39003 0
M  V30 40 H -8.42097 0.0365663 -0.308811 0
M  V30 41 H -7.72063 2.84703 0.239915 0
M  V30 42 H -7.223 2.2923 1.85897 0
M  V30 43 H 3.31279 -2.21515 -0.706508 0
M  V30 44 H 4.52365 -2.20262 0.581815 0
M  V30 45 H 5.51732 -1.6193 -1.43666 0
M  V30 46 H 4.37405 -0.289986 -1.76587 0
M  V30 END ATOM
M  V30 BEGIN BOND
M  V30 1 1 1 2
M  V30 2 1 2 3
M  V30 3 1 3 4
M  V30 4 1 4 5
M  V30 5 1 5 6
M  V30 6 1 6 7
M  V30 7 1 7 8
M  V30 8 2 8 9
M  V30 9 1 9 10
M  V30 10 2 10 11
M  V30 11 1 11 12
M  V30 12 2 12 13
M  V30 13 1 11 14
M  V30 14 2 14 15
M  V30 15 1 15 16
M  V30 16 2 16 17
M  V30 17 1 17 18
M  V30 18 1 18 19
M  V30 19 2 18 20
M  V30 20 1 5 21
M  V30 21 1 21 22
M  V30 22 1 22 2
M  V30 23 1 13 8
M  V30 24 1 20 14
M  V30 25 1 1 23
M  V30 26 1 1 24
M  V30 27 1 2 25
M  V30 28 1 3 26
M  V30 29 1 3 27
M  V30 30 1 4 28
M  V30 31 1 4 29
M  V30 32 1 6 30
M  V30 33 1 6 31
M  V30 34 1 7 32
M  V30 35 1 7 33
M  V30 36 1 9 34
M  V30 37 1 10 35
M  V30 38 1 12 36
M  V30 39 1 13 37
M  V30 40 1 15 38
M  V30 41 1 16 39
M  V30 42 1 17 40
M  V30 43 1 19 41
M  V30 44 1 19 42
M  V30 45 1 21 43
M  V30 46 1 21 44
M  V30 47 1 22 45
M  V30 48 1 22 46
M  V30 END BOND
M  V30 END CTAB
M  END
