
     RDKit          3D

  0  0  0  0  0  0  0  0  0  0999 V3000
M  V30 BEGIN CTAB
M  V30 COUNTS 42 45 0 0 0
M  V30 BEGIN ATOM
M  V30 1 N -0.623696 1.3365 2.68098 0
M  V30 2 C -1.4066 1.72574 1.53292 0
M  V30 3 N -2.17702 2.83554 1.62656 0
M  V30 4 C -2.92112 3.23046 0.577845 0
M  V30 5 S -3.83151 4.57571 0.744815 0
M  V30 6 N -2.89755 2.5188 -0.565047 0
M  V30 7 C -2.14368 1.41554 -0.685485 0
M  V30 8 O -2.11002 0.741528 -1.73926 0
M  V30 9 C -1.37316 0.990488 0.3725 0
M  V30 10 C -0.509366 -0.234859 0.312002 0
M  V30 11 C -1.09716 -1.35567 -0.380845 0
M  V30 12 C -0.634299 -1.97118 -1.49372 0
M  V30 13 N 0.531601 -1.57366 -2.15783 0
M  V30 14 N -1.28098 -3.03517 -2.05857 0
M  V30 15 C -2.39766 -3.51312 -1.53657 0
M  V30 16 S -3.18863 -4.80104 -2.21286 0
M  V30 17 N -2.89869 -2.94311 -0.438305 0
M  V30 18 C -2.2926 -1.90424 0.137088 0
M  V30 19 O -2.79058 -1.38799 1.17324 0
M  V30 20 C 0.896453 0.0940665 0.135259 0
M  V30 21 C 1.33075 1.07882 -0.71622 0
M  V30 22 C 2.64788 1.42226 -0.89994 0
M  V30 23 C 3.59628 0.708462 -0.159907 0
M  V30 24 C 3.24114 -0.285151 0.707415 0
M  V30 25 C 1.8971 -0.581184 0.845448 0
M  V30 26 O 4.38121 -0.829023 1.31195 0
M  V30 27 C 5.45313 0.016474 0.95101 0
M  V30 28 O 4.97992 0.810084 -0.117591 0
M  V30 29 H -1.05401 0.899869 3.52274 0
M  V30 30 H 0.408967 1.48242 2.70232 0
M  V30 31 H -2.19585 3.38778 2.51235 0
M  V30 32 H -3.47989 2.83848 -1.36774 0
M  V30 33 H -0.5616 -0.57753 1.43753 0
M  V30 34 H 0.470588 -0.887577 -2.97012 0
M  V30 35 H 1.48921 -1.89538 -1.93767 0
M  V30 36 H -0.900432 -3.50451 -2.93298 0
M  V30 37 H -3.77525 -3.32249 -0.0332845 0
M  V30 38 H 0.591279 1.62248 -1.27972 0
M  V30 39 H 2.98275 2.20231 -1.57548 0
M  V30 40 H 1.64441 -1.37387 1.54034 0
M  V30 41 H 5.68913 0.655959 1.80367 0
M  V30 42 H 6.30956 -0.612998 0.631164 0
M  V30 END ATOM
M  V30 BEGIN BOND
M  V30 1 1 1 2
M  V30 2 1 2 3
M  V30 3 1 3 4
M  V30 4 2 4 5
M  V30 5 1 4 6
M  V30 6 1 6 7
M  V30 7 2 7 8
M  V30 8 1 7 9
M  V30 9 1 9 10
M  V30 10 1 10 11
M  V30 11 2 11 12
M  V30 12 1 12 13
M  V30 13 1 12 14
M  V30 14 1 14 15
M  V30 15 2 15 16
M  V30 16 1 15 17
M  V30 17 1 17 18
M  V30 18 2 18 19
M  V30 19 1 10 20
M  V30 20 2 20 21
M  V30 21 1 21 22
M  V30 22 2 22 23
M  V30 23 1 23 24
M  V30 24 2 24 25
M  V30 25 1 24 26
M  V30 26 1 26 27
M  V30 27 1 27 28
M  V30 28 2 9 2
M  V30 29 1 18 11
M  V30 30 1 25 20
M  V30 31 1 28 23
M  V30 32 1 1 29
M  V30 33 1 1 30
M  V30 34 1 3 31
M  V30 35 1 6 32
M  V30 36 1 10 33
M  V30 37 1 13 34
M  V30 38 1 13 35
M  V30 39 1 14 36
M  V30 40 1 17 37
M  V30 41 1 21 38
M  V30 42 1 22 39
M  V30 43 1 25 40
M  V30 44 1 27 41
M  V30 45 1 27 42
M  V30 END BOND
M  V30 END CTAB
M  END
