
     RDKit          3D

  0  0  0  0  0  0  0  0  0  0999 V3000
M  V30 BEGIN CTAB
M  V30 COUNTS 25 25 0 0 0
M  V30 BEGIN ATOM
M  V30 1 O -3.80757 -0.974989 -0.0898514 0
M  V30 2 C -2.52005 -0.546957 -0.374252 0
M  V30 3 O -2.1886 -0.539021 -1.58707 0
M  V30 4 C -1.61906 -0.130097 0.726703 0
M  V30 5 C -0.290146 0.293813 0.227646 0
M  V30 6 C -0.194925 1.55994 -0.33072 0
M  V30 7 N -1.34805 2.41928 -0.40378 0
M  V30 8 C 1.0275 1.96588 -0.804494 0
M  V30 9 C 2.10362 1.10969 -0.70816 0
M  V30 10 C 1.9954 -0.146899 -0.150234 0
M  V30 11 C 0.761597 -0.57893 0.336764 0
M  V30 12 C 0.722769 -1.92644 0.908174 0
M  V30 13 N 3.13723 -0.987384 -0.075652 0
M  V30 14 H -4.14526 -1.85888 -0.499164 0
M  V30 15 H -2.12993 0.78642 1.16659 0
M  V30 16 H -1.58804 -0.833293 1.57541 0
M  V30 17 H -1.31487 3.23705 0.276257 0
M  V30 18 H -2.1429 2.29597 -1.03169 0
M  V30 19 H 1.08294 2.95921 -1.23695 0
M  V30 20 H 3.0412 1.48017 -1.09548 0
M  V30 21 H 0.988408 -2.71977 0.15087 0
M  V30 22 H -0.199271 -2.24869 1.37462 0
M  V30 23 H 1.52238 -2.03258 1.70172 0
M  V30 24 H 3.58641 -1.38054 -0.932727 0
M  V30 25 H 3.5192 -1.20295 0.875481 0
M  V30 END ATOM
M  V30 BEGIN BOND
M  V30 1 1 1 2
M  V30 2 2 2 3
M  V30 3 1 2 4
M  V30 4 1 4 5
M  V30 5 2 5 6
M  V30 6 1 6 7
M  V30 7 1 6 8
M  V30 8 2 8 9
M  V30 9 1 9 10
M  V30 10 2 10 11
M  V30 11 1 11 12
M  V30 12 1 10 13
M  V30 13 1 11 5
M  V30 14 1 1 14
M  V30 15 1 4 15
M  V30 16 1 4 16
M  V30 17 1 7 17
M  V30 18 1 7 18
M  V30 19 1 8 19
M  V30 20 1 9 20
M  V30 21 1 12 21
M  V30 22 1 12 22
M  V30 23 1 12 23
M  V30 24 1 13 24
M  V30 25 1 13 25
M  V30 END BOND
M  V30 END CTAB
M  END
