
     RDKit          3D

  0  0  0  0  0  0  0  0  0  0999 V3000
M  V30 BEGIN CTAB
M  V30 COUNTS 35 37 0 0 0
M  V30 BEGIN ATOM
M  V30 1 O -0.449311 1.42841 0.153163 0
M  V30 2 C -0.214925 1.14284 1.33912 0
M  V30 3 N 0.945827 0.515034 1.81472 0
M  V30 4 C 2.0487 0.104266 1.04078 0
M  V30 5 C 2.99212 -0.771599 1.59956 0
M  V30 6 C 4.10626 -1.22538 0.954126 0
M  V30 7 C 4.3404 -0.805929 -0.338797 0
M  V30 8 C 3.44156 0.0511267 -0.921354 0
M  V30 9 C 2.29863 0.509589 -0.242738 0
M  V30 10 N 3.88183 0.3125 -2.16559 0
M  V30 11 C 5.04176 -0.361152 -2.38556 0
M  V30 12 O 5.66983 -0.293311 -3.47617 0
M  V30 13 N 5.29426 -1.02737 -1.26644 0
M  V30 14 C -1.30269 1.52248 2.32786 0
M  V30 15 S -2.64617 2.2858 1.42991 0
M  V30 16 C -3.43247 1.09102 0.35566 0
M  V30 17 N -4.47089 1.42957 -0.433185 0
M  V30 18 C -5.08757 0.558068 -1.24868 0
M  V30 19 N -6.184 1.02208 -2.05337 0
M  V30 20 N -4.65427 -0.709881 -1.28384 0
M  V30 21 C -3.60659 -1.1055 -0.505473 0
M  V30 22 N -3.03123 -0.188603 0.288673 0
M  V30 23 N -3.18135 -2.45964 -0.574638 0
M  V30 24 H 1.01224 0.327746 2.86765 0
M  V30 25 H 2.8042 -1.10473 2.62692 0
M  V30 26 H 4.82991 -1.89882 1.38797 0
M  V30 27 H 1.63213 1.18808 -0.742355 0
M  V30 28 H 3.38611 0.936605 -2.82634 0
M  V30 29 H 6.12951 -1.64991 -1.11765 0
M  V30 30 H -1.59232 0.555194 2.80517 0
M  V30 31 H -0.883093 2.21652 3.08614 0
M  V30 32 H -7.11569 1.04288 -1.58809 0
M  V30 33 H -6.00131 1.30631 -3.03045 0
M  V30 34 H -2.64117 -2.86065 0.245367 0
M  V30 35 H -3.36023 -3.08366 -1.36714 0
M  V30 END ATOM
M  V30 BEGIN BOND
M  V30 1 2 1 2
M  V30 2 1 2 3
M  V30 3 1 3 4
M  V30 4 2 4 5
M  V30 5 1 5 6
M  V30 6 2 6 7
M  V30 7 1 7 8
M  V30 8 2 8 9
M  V30 9 1 8 10
M  V30 10 1 10 11
M  V30 11 2 11 12
M  V30 12 1 11 13
M  V30 13 1 2 14
M  V30 14 1 14 15
M  V30 15 1 15 16
M  V30 16 2 16 17
M  V30 17 1 17 18
M  V30 18 1 18 19
M  V30 19 2 18 20
M  V30 20 1 20 21
M  V30 21 2 21 22
M  V30 22 1 21 23
M  V30 23 1 9 4
M  V30 24 1 22 16
M  V30 25 1 13 7
M  V30 26 1 3 24
M  V30 27 1 5 25
M  V30 28 1 6 26
M  V30 29 1 9 27
M  V30 30 1 10 28
M  V30 31 1 13 29
M  V30 32 1 14 30
M  V30 33 1 14 31
M  V30 34 1 19 32
M  V30 35 1 19 33
M  V30 36 1 23 34
M  V30 37 1 23 35
M  V30 END BOND
M  V30 END CTAB
M  END
