
     RDKit          3D

  0  0  0  0  0  0  0  0  0  0999 V3000
M  V30 BEGIN CTAB
M  V30 COUNTS 20 20 0 0 0
M  V30 BEGIN ATOM
M  V30 1 C -2.57866 1.26656 -0.0847175 0
M  V30 2 O -1.65254 0.651891 -0.972995 0
M  V30 3 C -0.464507 0.133605 -0.488452 0
M  V30 4 C -0.46408 -1.19056 -0.0845237 0
M  V30 5 N -1.61031 -2.01407 -0.14836 0
M  V30 6 C 0.725722 -1.69911 0.397523 0
M  V30 7 C 1.86613 -0.926292 0.475243 0
M  V30 8 C 1.8736 0.404222 0.0715527 0
M  V30 9 C 0.679563 0.903256 -0.408758 0
M  V30 10 I 0.653906 2.93027 -1.03393 0
M  V30 11 N 3.05127 1.18576 0.156882 0
M  V30 12 H -3.4404 1.65606 -0.6534 0
M  V30 13 H -2.98219 0.456912 0.5892 0
M  V30 14 H -2.11417 2.00858 0.574945 0
M  V30 15 H -2.03363 -2.27976 -1.05241 0
M  V30 16 H -2.03099 -2.35575 0.731278 0
M  V30 17 H 0.722387 -2.74536 0.715665 0
M  V30 18 H 2.79905 -1.333 0.855639 0
M  V30 19 H 3.84886 0.986086 -0.476836 0
M  V30 20 H 3.15099 1.96069 0.836455 0
M  V30 END ATOM
M  V30 BEGIN BOND
M  V30 1 1 1 2
M  V30 2 1 2 3
M  V30 3 2 3 4
M  V30 4 1 4 5
M  V30 5 1 4 6
M  V30 6 2 6 7
M  V30 7 1 7 8
M  V30 8 2 8 9
M  V30 9 1 9 10
M  V30 10 1 8 11
M  V30 11 1 9 3
M  V30 12 1 1 12
M  V30 13 1 1 13
M  V30 14 1 1 14
M  V30 15 1 5 15
M  V30 16 1 5 16
M  V30 17 1 6 17
M  V30 18 1 7 18
M  V30 19 1 11 19
M  V30 20 1 11 20
M  V30 END BOND
M  V30 END CTAB
M  END
