
     RDKit          3D

  0  0  0  0  0  0  0  0  0  0999 V3000
M  V30 BEGIN CTAB
M  V30 COUNTS 57 60 0 0 0
M  V30 BEGIN ATOM
M  V30 1 N 8.56675 -0.451543 0.413607 0
M  V30 2 C 7.1262 -0.282779 0.730657 0 CFG=1
M  V30 3 C 6.50899 0.141485 -0.552299 0
M  V30 4 C 5.07854 0.425835 -0.571712 0
M  V30 5 C 4.54812 1.68878 -0.395115 0
M  V30 6 C 3.19509 1.91291 -0.434516 0
M  V30 7 C 2.2893 0.880788 -0.650627 0
M  V30 8 C 2.80302 -0.367205 -0.823153 0
M  V30 9 C 4.18644 -0.615668 -0.789045 0
M  V30 10 C 0.855928 1.21148 -0.72539 0
M  V30 11 N 0.471621 2.50638 -0.77369 0
M  V30 12 C -0.823252 2.83219 -0.821576 0
M  V30 13 N -1.10302 4.23757 -0.880962 0
M  V30 14 N -1.75088 1.90035 -0.824482 0
M  V30 15 C -1.48068 0.592155 -0.77952 0
M  V30 16 O -2.37441 -0.344806 -0.784106 0
M  V30 17 C -3.36834 -1.20709 -0.799363 0
M  V30 18 C -4.12355 -1.467 0.479279 0
M  V30 19 C -3.97361 -2.62651 1.19639 0
M  V30 20 C -4.59078 -2.88125 2.42683 0
M  V30 21 C -5.40038 -1.90941 2.95684 0
M  V30 22 F -6.03446 -2.082 4.14688 0
M  V30 23 C -5.58569 -0.733579 2.27925 0
M  V30 24 C -4.94341 -0.515211 1.03505 0
M  V30 25 C -5.29117 0.750917 0.345605 0
M  V30 26 C -4.97715 1.95218 0.923538 0
M  V30 27 S -5.63338 3.09061 -0.158857 0
M  V30 28 C -6.28984 2.0348 -1.31966 0
M  V30 29 C -5.97449 0.793982 -0.82054 0
M  V30 30 C -2.97993 -2.54756 -1.42495 0
M  V30 31 F -1.94689 -3.18089 -0.835883 0
M  V30 32 F -4.0951 -3.34152 -1.42726 0
M  V30 33 F -2.70941 -2.32096 -2.79088 0
M  V30 34 C -0.109108 0.249606 -0.727918 0
M  V30 35 C 6.69228 -1.65346 1.15061 0
M  V30 36 O 5.43262 -1.89325 1.72056 0
M  V30 37 O 7.48397 -2.60659 0.984592 0
M  V30 38 H 8.72419 -0.919156 -0.471469 0
M  V30 39 H 8.95788 0.510202 0.399607 0
M  V30 40 H 7.07536 0.421224 1.55756 0
M  V30 41 H 6.69603 -0.667948 -1.30258 0
M  V30 42 H 7.0862 1.01276 -0.957341 0
M  V30 43 H 5.26661 2.49006 -0.229235 0
M  V30 44 H 2.80725 2.91655 -0.290678 0
M  V30 45 H 2.10972 -1.18791 -0.99176 0
M  V30 46 H 4.54005 -1.60141 -0.944625 0
M  V30 47 H -1.36624 4.73479 -1.75085 0
M  V30 48 H -1.03869 4.78152 0.00103634 0
M  V30 49 H -4.15928 -0.818089 -1.53709 0
M  V30 50 H -3.36852 -3.4166 0.854616 0
M  V30 51 H -4.42111 -3.84317 2.93904 0
M  V30 52 H -6.21072 0.0561433 2.64919 0
M  V30 53 H -4.42317 2.10056 1.87265 0
M  V30 54 H -6.84376 2.24999 -2.25756 0
M  V30 55 H -6.31394 -0.117168 -1.38193 0
M  V30 56 H 0.155633 -0.815663 -0.688346 0
M  V30 57 H 5.04657 -2.79995 1.85158 0
M  V30 END ATOM
M  V30 BEGIN BOND
M  V30 1 1 1 2
M  V30 2 1 2 3
M  V30 3 1 3 4
M  V30 4 2 4 5
M  V30 5 1 5 6
M  V30 6 2 6 7
M  V30 7 1 7 8
M  V30 8 2 8 9
M  V30 9 1 7 10
M  V30 10 2 10 11
M  V30 11 1 11 12
M  V30 12 1 12 13
M  V30 13 2 12 14
M  V30 14 1 14 15
M  V30 15 1 15 16
M  V30 16 1 16 17
M  V30 17 1 17 18
M  V30 18 2 18 19
M  V30 19 1 19 20
M  V30 20 2 20 21
M  V30 21 1 21 22
M  V30 22 1 21 23
M  V30 23 2 23 24
M  V30 24 1 24 25
M  V30 25 2 25 26
M  V30 26 1 26 27
M  V30 27 1 27 28
M  V30 28 2 28 29
M  V30 29 1 17 30
M  V30 30 1 30 31
M  V30 31 1 30 32
M  V30 32 1 30 33
M  V30 33 2 15 34
M  V30 34 1 2 35
M  V30 35 1 35 36
M  V30 36 2 35 37
M  V30 37 1 9 4
M  V30 38 1 34 10
M  V30 39 1 24 18
M  V30 40 1 29 25
M  V30 41 1 1 38
M  V30 42 1 1 39
M  V30 43 1 2 40 CFG=1
M  V30 44 1 3 41
M  V30 45 1 3 42
M  V30 46 1 5 43
M  V30 47 1 6 44
M  V30 48 1 8 45
M  V30 49 1 9 46
M  V30 50 1 13 47
M  V30 51 1 13 48
M  V30 52 1 17 49
M  V30 53 1 19 50
M  V30 54 1 20 51
M  V30 55 1 23 52
M  V30 56 1 26 53
M  V30 57 1 28 54
M  V30 58 1 29 55
M  V30 59 1 34 56
M  V30 60 1 36 57
M  V30 END BOND
M  V30 END CTAB
M  END
