
     RDKit          3D

  0  0  0  0  0  0  0  0  0  0999 V3000
M  V30 BEGIN CTAB
M  V30 COUNTS 35 36 0 0 0
M  V30 BEGIN ATOM
M  V30 1 C 3.10848 0.345172 -2.17894 0
M  V30 2 C 2.68081 -0.0709527 -0.83576 0
M  V30 3 C 1.39059 -0.0495906 -0.382403 0
M  V30 4 C 1.06618 -0.457904 0.897695 0
M  V30 5 C -0.315009 -0.453354 1.42585 0
M  V30 6 C -1.31635 0.0674757 0.495768 0
M  V30 7 C -1.39699 1.43104 0.313001 0
M  V30 8 N -0.57255 2.38171 0.971792 0
M  V30 9 C -2.34258 1.94399 -0.569209 0
M  V30 10 C -3.21076 1.13246 -1.27432 0
M  V30 11 C -3.11784 -0.225732 -1.08109 0
M  V30 12 C -4.04207 -1.09987 -1.83089 0
M  V30 13 C -2.18528 -0.747334 -0.210062 0
M  V30 14 C 2.04747 -0.911287 1.78505 0
M  V30 15 N 1.71301 -1.33146 3.10384 0
M  V30 16 C 3.34776 -0.932339 1.32684 0
M  V30 17 C 3.65469 -0.519722 0.0415575 0
M  V30 18 H 3.48812 -0.574102 -2.70707 0
M  V30 19 H 2.29742 0.76062 -2.79213 0
M  V30 20 H 3.99924 1.01975 -2.11908 0
M  V30 21 H 0.611988 0.297862 -1.05292 0
M  V30 22 H -0.595662 -1.5294 1.62932 0
M  V30 23 H -0.348575 0.0267217 2.43092 0
M  V30 24 H -0.818081 2.7381 1.94355 0
M  V30 25 H 0.28934 2.75388 0.521563 0
M  V30 26 H -2.41576 3.01978 -0.7225 0
M  V30 27 H -3.94619 1.54294 -1.9619 0
M  V30 28 H -3.71327 -1.19923 -2.86384 0
M  V30 29 H -5.0528 -0.629407 -1.82017 0
M  V30 30 H -4.14477 -2.06261 -1.29203 0
M  V30 31 H -2.15386 -1.82866 -0.0935553 0
M  V30 32 H 1.57438 -0.650001 3.89577 0
M  V30 33 H 1.60451 -2.3545 3.28014 0
M  V30 34 H 4.12334 -1.28317 2.00979 0
M  V30 35 H 4.69105 -0.550871 -0.284571 0
M  V30 END ATOM
M  V30 BEGIN BOND
M  V30 1 1 1 2
M  V30 2 2 2 3
M  V30 3 1 3 4
M  V30 4 1 4 5
M  V30 5 1 5 6
M  V30 6 2 6 7
M  V30 7 1 7 8
M  V30 8 1 7 9
M  V30 9 2 9 10
M  V30 10 1 10 11
M  V30 11 1 11 12
M  V30 12 2 11 13
M  V30 13 2 4 14
M  V30 14 1 14 15
M  V30 15 1 14 16
M  V30 16 2 16 17
M  V30 17 1 17 2
M  V30 18 1 13 6
M  V30 19 1 1 18
M  V30 20 1 1 19
M  V30 21 1 1 20
M  V30 22 1 3 21
M  V30 23 1 5 22
M  V30 24 1 5 23
M  V30 25 1 8 24
M  V30 26 1 8 25
M  V30 27 1 9 26
M  V30 28 1 10 27
M  V30 29 1 12 28
M  V30 30 1 12 29
M  V30 31 1 12 30
M  V30 32 1 13 31
M  V30 33 1 15 32
M  V30 34 1 15 33
M  V30 35 1 16 34
M  V30 36 1 17 35
M  V30 END BOND
M  V30 END CTAB
M  END
