
     RDKit          3D

  0  0  0  0  0  0  0  0  0  0999 V3000
M  V30 BEGIN CTAB
M  V30 COUNTS 38 38 0 0 0
M  V30 BEGIN ATOM
M  V30 1 N -2.52612 1.98423 1.13851 0
M  V30 2 C -2.06535 1.62678 -0.183413 0
M  V30 3 C -1.97747 0.172202 -0.42021 0
M  V30 4 C -1.10121 -0.671647 0.393178 0
M  V30 5 C 0.353655 -0.450311 0.407505 0
M  V30 6 C 0.870878 0.862684 0.877623 0
M  V30 7 C 2.30515 0.689213 1.38823 0
M  V30 8 C 3.0567 -0.174981 0.41033 0
M  V30 9 C 2.41557 -0.184605 -0.966478 0
M  V30 10 C 1.02755 -0.837999 -0.90978 0
M  V30 11 N 4.4011 0.32694 0.248751 0
M  V30 12 O -1.5122 -0.764822 1.74334 0
M  V30 13 C -1.29664 -2.12274 -0.111228 0
M  V30 14 C -3.42765 -0.352264 -0.388802 0
M  V30 15 H -3.26663 2.71538 1.06896 0
M  V30 16 H -1.73246 2.46172 1.62949 0
M  V30 17 H -2.88581 1.99438 -0.889922 0
M  V30 18 H -1.21272 2.24645 -0.461887 0
M  V30 19 H -1.66607 0.0356399 -1.50172 0
M  V30 20 H 0.782197 -1.21671 1.13372 0
M  V30 21 H 0.303689 1.21256 1.74081 0
M  V30 22 H 0.971427 1.57915 0.0384058 0
M  V30 23 H 2.77568 1.69376 1.38016 0
M  V30 24 H 2.34519 0.310403 2.40894 0
M  V30 25 H 3.11013 -1.20478 0.795665 0
M  V30 26 H 3.095 -0.761655 -1.62455 0
M  V30 27 H 2.35607 0.842908 -1.36269 0
M  V30 28 H 1.22265 -1.9311 -0.95928 0
M  V30 29 H 0.401292 -0.486411 -1.72927 0
M  V30 30 H 5.05999 -0.387238 -0.133595 0
M  V30 31 H 4.34603 1.1827 -0.360992 0
M  V30 32 H -1.15343 -1.60852 2.15038 0
M  V30 33 H -0.437269 -2.75672 0.219421 0
M  V30 34 H -2.19769 -2.56036 0.364074 0
M  V30 35 H -1.33268 -2.08138 -1.19846 0
M  V30 36 H -4.14479 0.464971 -0.609622 0
M  V30 37 H -3.57874 -1.12131 -1.18215 0
M  V30 38 H -3.68504 -0.726538 0.623617 0
M  V30 END ATOM
M  V30 BEGIN BOND
M  V30 1 1 1 2
M  V30 2 1 2 3
M  V30 3 1 3 4
M  V30 4 1 4 5
M  V30 5 1 5 6
M  V30 6 1 6 7
M  V30 7 1 7 8
M  V30 8 1 8 9
M  V30 9 1 9 10
M  V30 10 1 8 11
M  V30 11 1 4 12
M  V30 12 1 4 13
M  V30 13 1 3 14
M  V30 14 1 10 5
M  V30 15 1 1 15
M  V30 16 1 1 16
M  V30 17 1 2 17
M  V30 18 1 2 18
M  V30 19 1 3 19
M  V30 20 1 5 20
M  V30 21 1 6 21
M  V30 22 1 6 22
M  V30 23 1 7 23
M  V30 24 1 7 24
M  V30 25 1 8 25
M  V30 26 1 9 26
M  V30 27 1 9 27
M  V30 28 1 10 28
M  V30 29 1 10 29
M  V30 30 1 11 30
M  V30 31 1 11 31
M  V30 32 1 12 32
M  V30 33 1 13 33
M  V30 34 1 13 34
M  V30 35 1 13 35
M  V30 36 1 14 36
M  V30 37 1 14 37
M  V30 38 1 14 38
M  V30 END BOND
M  V30 END CTAB
M  END
