
     RDKit          3D

  0  0  0  0  0  0  0  0  0  0999 V3000
M  V30 BEGIN CTAB
M  V30 COUNTS 45 46 0 0 0
M  V30 BEGIN ATOM
M  V30 1 N 5.86987 1.16476 1.26261 0
M  V30 2 C 5.87115 1.50426 -0.130634 0
M  V30 3 C 4.50387 1.74306 -0.641954 0
M  V30 4 N 3.6112 0.626015 -0.572832 0
M  V30 5 C 2.39736 1.05833 -1.28514 0
M  V30 6 C 1.46392 -0.0883927 -1.47874 0
M  V30 7 N 1.09517 -0.56358 -0.137551 0
M  V30 8 C 1.95844 -0.430419 0.966149 0
M  V30 9 C 3.31627 0.175403 0.727694 0
M  V30 10 C -0.180403 -1.1571 -0.0504746 0
M  V30 11 O -0.866818 -1.19934 -1.17197 0
M  V30 12 C -0.803217 -1.71356 1.11708 0
M  V30 13 C -2.04566 -2.23729 0.973063 0
M  V30 14 N -2.73225 -2.25797 -0.243174 0
M  V30 15 C -3.817 -1.34366 -0.449787 0
M  V30 16 C -4.51647 -1.312 -1.64429 0
M  V30 17 C -5.55919 -0.434116 -1.84102 0
M  V30 18 C -5.95357 0.449499 -0.863716 0
M  V30 19 C -5.26699 0.43107 0.332179 0
M  V30 20 C -4.20686 -0.45885 0.537149 0
M  V30 21 Cl -5.71318 1.52971 1.63339 0
M  V30 22 N -7.02745 1.37065 -1.03093 0
M  V30 23 C -0.228615 -1.77508 2.45144 0
M  V30 24 N 0.202763 -1.843 3.54178 0
M  V30 25 H 6.42497 1.86253 1.81216 0
M  V30 26 H 6.32828 0.232042 1.45735 0
M  V30 27 H 6.28121 0.621607 -0.714622 0
M  V30 28 H 6.54792 2.38442 -0.313226 0
M  V30 29 H 4.03547 2.60049 -0.0472387 0
M  V30 30 H 4.5388 2.17414 -1.67983 0
M  V30 31 H 1.99727 1.90931 -0.73425 0
M  V30 32 H 2.7455 1.41665 -2.27548 0
M  V30 33 H 0.567754 0.288021 -2.02277 0
M  V30 34 H 1.94273 -0.866776 -2.07813 0
M  V30 35 H 1.45441 0.135954 1.77964 0
M  V30 36 H 2.14387 -1.46382 1.36382 0
M  V30 37 H 4.09406 -0.577798 1.01418 0
M  V30 38 H 3.40314 1.00748 1.46142 0
M  V30 39 H -2.5145 -2.65955 1.86838 0
M  V30 40 H -2.51537 -2.91238 -1.0188 0
M  V30 41 H -4.23088 -1.98954 -2.4267 0
M  V30 42 H -6.12382 -0.39735 -2.78294 0
M  V30 43 H -3.66124 -0.479527 1.47609 0
M  V30 44 H -7.84565 1.1862 -1.62054 0
M  V30 45 H -6.98626 2.2895 -0.527104 0
M  V30 END ATOM
M  V30 BEGIN BOND
M  V30 1 1 1 2
M  V30 2 1 2 3
M  V30 3 1 3 4
M  V30 4 1 4 5
M  V30 5 1 5 6
M  V30 6 1 6 7
M  V30 7 1 7 8
M  V30 8 1 8 9
M  V30 9 1 7 10
M  V30 10 2 10 11
M  V30 11 1 10 12
M  V30 12 2 12 13
M  V30 13 1 13 14
M  V30 14 1 14 15
M  V30 15 2 15 16
M  V30 16 1 16 17
M  V30 17 2 17 18
M  V30 18 1 18 19
M  V30 19 2 19 20
M  V30 20 1 19 21
M  V30 21 1 18 22
M  V30 22 1 12 23
M  V30 23 3 23 24
M  V30 24 1 9 4
M  V30 25 1 20 15
M  V30 26 1 1 25
M  V30 27 1 1 26
M  V30 28 1 2 27
M  V30 29 1 2 28
M  V30 30 1 3 29
M  V30 31 1 3 30
M  V30 32 1 5 31
M  V30 33 1 5 32
M  V30 34 1 6 33
M  V30 35 1 6 34
M  V30 36 1 8 35
M  V30 37 1 8 36
M  V30 38 1 9 37
M  V30 39 1 9 38
M  V30 40 1 13 39
M  V30 41 1 14 40
M  V30 42 1 16 41
M  V30 43 1 17 42
M  V30 44 1 20 43
M  V30 45 1 22 44
M  V30 46 1 22 45
M  V30 END BOND
M  V30 END CTAB
M  END
