
     RDKit          3D

  0  0  0  0  0  0  0  0  0  0999 V3000
M  V30 BEGIN CTAB
M  V30 COUNTS 18 18 0 0 0
M  V30 BEGIN ATOM
M  V30 1 N -2.03942 -0.553949 1.86473 0
M  V30 2 C -1.01295 -0.286494 0.892452 0
M  V30 3 C -1.07821 -0.850904 -0.364931 0
M  V30 4 O -2.12011 -1.68673 -0.738128 0
M  V30 5 C -0.0433862 -0.536178 -1.23644 0
M  V30 6 Cl -0.121778 -1.25454 -2.84407 0
M  V30 7 C 1.00643 0.291929 -0.894337 0
M  V30 8 N 2.03977 0.570152 -1.85177 0
M  V30 9 C 1.05203 0.844766 0.366157 0
M  V30 10 O 2.10507 1.672 0.701131 0
M  V30 11 C 0.0302856 0.545391 1.25404 0
M  V30 12 Cl 0.114105 1.26616 2.85916 0
M  V30 13 H -3.02949 -0.621544 1.57108 0
M  V30 14 H -1.75301 -0.677714 2.8768 0
M  V30 15 H -2.83895 -1.87177 -0.0518581 0
M  V30 16 H 2.66029 -0.209471 -2.15828 0
M  V30 17 H 2.20859 1.50413 -2.26012 0
M  V30 18 H 2.82073 1.85477 0.0143772 0
M  V30 END ATOM
M  V30 BEGIN BOND
M  V30 1 1 1 2
M  V30 2 2 2 3
M  V30 3 1 3 4
M  V30 4 1 3 5
M  V30 5 1 5 6
M  V30 6 2 5 7
M  V30 7 1 7 8
M  V30 8 1 7 9
M  V30 9 1 9 10
M  V30 10 2 9 11
M  V30 11 1 11 12
M  V30 12 1 11 2
M  V30 13 1 1 13
M  V30 14 1 1 14
M  V30 15 1 4 15
M  V30 16 1 8 16
M  V30 17 1 8 17
M  V30 18 1 10 18
M  V30 END BOND
M  V30 END CTAB
M  END
