
     RDKit          3D

  0  0  0  0  0  0  0  0  0  0999 V3000
M  V30 BEGIN CTAB
M  V30 COUNTS 26 27 0 0 0
M  V30 BEGIN ATOM
M  V30 1 C -3.52567 -1.26855 0.00685036 0
M  V30 2 C -2.73433 -0.0476993 0.330682 0
M  V30 3 C -1.52937 -0.278083 1.24027 0
M  V30 4 C -0.826595 0.808845 0.415935 0
M  V30 5 C -1.71897 0.35348 -0.746955 0
M  V30 6 C 0.597998 0.59405 0.213798 0
M  V30 7 N 1.47098 1.59105 0.403343 0
M  V30 8 C 2.81073 1.40686 0.218177 0
M  V30 9 N 3.71848 2.47623 0.424349 0
M  V30 10 N 3.22113 0.180482 -0.163443 0
M  V30 11 C 2.36931 -0.839658 -0.361533 0
M  V30 12 N 1.06038 -0.604971 -0.165429 0
M  V30 13 N 2.83896 -2.13286 -0.767659 0
M  V30 14 H -4.54785 -0.959089 -0.272596 0
M  V30 15 H -3.63272 -1.90022 0.92741 0
M  V30 16 H -3.05421 -1.9132 -0.763951 0
M  V30 17 H -3.36951 0.793784 0.649297 0
M  V30 18 H -1.69485 0.00628531 2.28471 0
M  V30 19 H -1.09508 -1.27029 1.05963 0
M  V30 20 H -1.14751 1.81153 0.726518 0
M  V30 21 H -2.05044 1.15779 -1.40521 0
M  V30 22 H -1.29998 -0.544655 -1.26178 0
M  V30 23 H 3.47425 3.24171 1.08128 0
M  V30 24 H 4.63083 2.52167 -0.0647122 0
M  V30 25 H 3.84654 -2.33797 -0.712006 0
M  V30 26 H 2.18753 -2.84652 -1.10895 0
M  V30 END ATOM
M  V30 BEGIN BOND
M  V30 1 1 1 2
M  V30 2 1 2 3
M  V30 3 1 3 4
M  V30 4 1 4 5
M  V30 5 1 4 6
M  V30 6 2 6 7
M  V30 7 1 7 8
M  V30 8 1 8 9
M  V30 9 2 8 10
M  V30 10 1 10 11
M  V30 11 2 11 12
M  V30 12 1 11 13
M  V30 13 1 5 2
M  V30 14 1 12 6
M  V30 15 1 1 14
M  V30 16 1 1 15
M  V30 17 1 1 16
M  V30 18 1 2 17
M  V30 19 1 3 18
M  V30 20 1 3 19
M  V30 21 1 4 20
M  V30 22 1 5 21
M  V30 23 1 5 22
M  V30 24 1 9 23
M  V30 25 1 9 24
M  V30 26 1 13 25
M  V30 27 1 13 26
M  V30 END BOND
M  V30 END CTAB
M  END
