
     RDKit          3D

  0  0  0  0  0  0  0  0  0  0999 V3000
M  V30 BEGIN CTAB
M  V30 COUNTS 21 22 0 0 0
M  V30 BEGIN ATOM
M  V30 1 N 4.38442 0.64131 -0.686353 0
M  V30 2 C 3.05506 0.304018 -0.363103 0
M  V30 3 N 2.81724 -0.853007 0.426414 0
M  V30 4 N 2.0308 0.98835 -0.744 0
M  V30 5 C 0.703562 0.630656 -0.407295 0
M  V30 6 N -0.380775 1.33465 -0.796864 0
M  V30 7 C -1.48677 0.739046 -0.317779 0
M  V30 8 C -2.83431 1.04216 -0.420441 0
M  V30 9 C -3.73632 0.208253 0.202558 0
M  V30 10 C -3.33885 -0.904885 0.915842 0
M  V30 11 C -1.98949 -1.18126 1.00053 0
M  V30 12 C -1.04735 -0.362257 0.384509 0
M  V30 13 O 0.258166 -0.375783 0.297076 0
M  V30 14 H 4.77306 1.59501 -0.460725 0
M  V30 15 H 5.05283 -0.0272815 -1.16269 0
M  V30 16 H 2.44774 -0.700438 1.39436 0
M  V30 17 H 3.01365 -1.80303 0.0272346 0
M  V30 18 H -3.15295 1.91244 -0.977535 0
M  V30 19 H -4.82063 0.398534 0.155714 0
M  V30 20 H -4.09588 -1.53854 1.39453 0
M  V30 21 H -1.65321 -2.04795 1.55391 0
M  V30 END ATOM
M  V30 BEGIN BOND
M  V30 1 1 1 2
M  V30 2 1 2 3
M  V30 3 2 2 4 CFG=2
M  V30 4 1 4 5
M  V30 5 2 5 6
M  V30 6 1 6 7
M  V30 7 2 7 8
M  V30 8 1 8 9
M  V30 9 2 9 10
M  V30 10 1 10 11
M  V30 11 2 11 12
M  V30 12 1 12 13
M  V30 13 1 13 5
M  V30 14 1 12 7
M  V30 15 1 1 14
M  V30 16 1 1 15
M  V30 17 1 3 16
M  V30 18 1 3 17
M  V30 19 1 8 18
M  V30 20 1 9 19
M  V30 21 1 10 20
M  V30 22 1 11 21
M  V30 END BOND
M  V30 END CTAB
M  END
