
     RDKit          3D

  0  0  0  0  0  0  0  0  0  0999 V3000
M  V30 BEGIN CTAB
M  V30 COUNTS 38 38 0 0 0
M  V30 BEGIN ATOM
M  V30 1 C 2.51929 -2.41952 -0.0662218 0
M  V30 2 O 2.17459 -1.14565 -0.472572 0
M  V30 3 C 1.17937 -0.573877 0.319155 0 CFG=2
M  V30 4 C 1.59151 -0.525037 1.77642 0
M  V30 5 O 0.0701382 -1.3878 0.230401 0
M  V30 6 C -1.0389 -0.807438 -0.31423 0 CFG=1
M  V30 7 C -2.22985 -1.72073 0.000932634 0
M  V30 8 N -2.02063 -3.03659 -0.571977 0
M  V30 9 C -1.26594 0.52262 0.348366 0 CFG=2
M  V30 10 C -2.5684 1.17101 -0.140405 0
M  V30 11 N -2.64386 2.45347 0.570545 0
M  V30 12 O -0.244995 1.36237 0.0210124 0
M  V30 13 C 0.976207 0.818896 -0.166908 0 CFG=2
M  V30 14 C 1.36323 0.915492 -1.64594 0
M  V30 15 O 1.91985 1.63231 0.506191 0
M  V30 16 C 1.88528 2.93693 -0.0169946 0
M  V30 17 H 1.65179 -3.13324 -0.0967884 0
M  V30 18 H 3.0554 -2.45108 0.900465 0
M  V30 19 H 3.23517 -2.81453 -0.824322 0
M  V30 20 H 0.778795 -0.0744758 2.36849 0
M  V30 21 H 1.79178 -1.51982 2.20304 0
M  V30 22 H 2.51534 0.0828091 1.92985 0
M  V30 23 H -1.02597 -0.658913 -1.39438 0
M  V30 24 H -2.36171 -1.80372 1.09321 0
M  V30 25 H -3.16664 -1.32921 -0.450931 0
M  V30 26 H -2.14624 -3.05366 -1.59452 0
M  V30 27 H -2.49668 -3.78724 -0.0544079 0
M  V30 28 H -1.37515 0.451537 1.45102 0
M  V30 29 H -2.58407 1.29226 -1.22526 0
M  V30 30 H -3.40964 0.566002 0.26314 0
M  V30 31 H -3.16672 3.14522 -0.0191812 0
M  V30 32 H -3.07908 2.32004 1.50771 0
M  V30 33 H 2.47714 1.04346 -1.71446 0
M  V30 34 H 0.863655 1.75981 -2.13358 0
M  V30 35 H 1.15662 -0.0424139 -2.17814 0
M  V30 36 H 0.843874 3.327 0.1429 0
M  V30 37 H 2.6157 3.52398 0.538517 0
M  V30 38 H 2.15975 2.95973 -1.09015 0
M  V30 END ATOM
M  V30 BEGIN BOND
M  V30 1 1 1 2
M  V30 2 1 3 2 CFG=3
M  V30 3 1 3 4
M  V30 4 1 3 5
M  V30 5 1 5 6
M  V30 6 1 6 7
M  V30 7 1 7 8
M  V30 8 1 6 9
M  V30 9 1 9 10
M  V30 10 1 10 11
M  V30 11 1 9 12
M  V30 12 1 12 13
M  V30 13 1 13 14
M  V30 14 1 13 15 CFG=1
M  V30 15 1 15 16
M  V30 16 1 13 3
M  V30 17 1 1 17
M  V30 18 1 1 18
M  V30 19 1 1 19
M  V30 20 1 4 20
M  V30 21 1 4 21
M  V30 22 1 4 22
M  V30 23 1 6 23 CFG=3
M  V30 24 1 7 24
M  V30 25 1 7 25
M  V30 26 1 8 26
M  V30 27 1 8 27
M  V30 28 1 9 28 CFG=1
M  V30 29 1 10 29
M  V30 30 1 10 30
M  V30 31 1 11 31
M  V30 32 1 11 32
M  V30 33 1 14 33
M  V30 34 1 14 34
M  V30 35 1 14 35
M  V30 36 1 16 36
M  V30 37 1 16 37
M  V30 38 1 16 38
M  V30 END BOND
M  V30 END CTAB
M  END
