
     RDKit          3D

  0  0  0  0  0  0  0  0  0  0999 V3000
M  V30 BEGIN CTAB
M  V30 COUNTS 37 39 0 0 0
M  V30 BEGIN ATOM
M  V30 1 N 5.16613 -4.31256 0.256114 0
M  V30 2 C 4.08856 -3.39525 0.112465 0
M  V30 3 N 4.09237 -2.07109 0.136133 0
M  V30 4 C 2.99042 -1.40817 -0.0155703 0
M  V30 5 C 1.83592 -2.1324 -0.199261 0
M  V30 6 S 2.41792 -3.73405 -0.140974 0
M  V30 7 N 0.495003 -1.62906 -0.389149 0
M  V30 8 N -0.103879 -0.984527 0.51854 0
M  V30 9 C -1.44057 -0.479915 0.336023 0
M  V30 10 C -2.46957 -1.06508 1.04519 0
M  V30 11 C -3.78354 -0.631304 0.920127 0
M  V30 12 C -4.04471 0.41322 0.0589756 0
M  V30 13 C -3.00689 0.996094 -0.649901 0
M  V30 14 C -1.71175 0.55974 -0.518953 0
M  V30 15 S -5.69188 0.968127 -0.107476 0
M  V30 16 N -6.06079 2.21226 1.02605 0
M  V30 17 O -6.59455 -0.235251 0.120256 0
M  V30 18 O -5.97058 1.42961 -1.52328 0
M  V30 19 C 2.98248 0.0829881 0.0092902 0
M  V30 20 C 2.26493 0.774042 -0.941725 0
M  V30 21 C 2.24194 2.17536 -0.939255 0
M  V30 22 C 2.93765 2.8756 0.015553 0
M  V30 23 Cl 2.87838 4.63467 -0.0223162 0
M  V30 24 C 3.6578 2.19363 0.970289 0
M  V30 25 C 3.67118 0.801308 0.955078 0
M  V30 26 H 5.31044 -5.07208 -0.422265 0
M  V30 27 H 5.80094 -4.19919 1.05707 0
M  V30 28 H -2.31141 -1.89467 1.73866 0
M  V30 29 H -4.57327 -1.1181 1.49729 0
M  V30 30 H -3.2323 1.81893 -1.32449 0
M  V30 31 H -0.87586 0.986914 -1.053 0
M  V30 32 H -7.12107 2.29301 1.04974 0
M  V30 33 H -5.66157 3.11223 0.664848 0
M  V30 34 H 1.70877 0.250724 -1.70415 0
M  V30 35 H 1.68648 2.73486 -1.67486 0
M  V30 36 H 4.19414 2.77005 1.70725 0
M  V30 37 H 4.23274 0.279332 1.69981 0
M  V30 END ATOM
M  V30 BEGIN BOND
M  V30 1 1 1 2
M  V30 2 2 2 3
M  V30 3 1 3 4
M  V30 4 2 4 5
M  V30 5 1 5 6
M  V30 6 1 5 7
M  V30 7 2 7 8
M  V30 8 1 8 9
M  V30 9 2 9 10
M  V30 10 1 10 11
M  V30 11 2 11 12
M  V30 12 1 12 13
M  V30 13 2 13 14
M  V30 14 1 12 15
M  V30 15 1 15 16
M  V30 16 2 15 17
M  V30 17 2 15 18
M  V30 18 1 4 19
M  V30 19 2 19 20
M  V30 20 1 20 21
M  V30 21 2 21 22
M  V30 22 1 22 23
M  V30 23 1 22 24
M  V30 24 2 24 25
M  V30 25 1 6 2
M  V30 26 1 14 9
M  V30 27 1 25 19
M  V30 28 1 1 26
M  V30 29 1 1 27
M  V30 30 1 10 28
M  V30 31 1 11 29
M  V30 32 1 13 30
M  V30 33 1 14 31
M  V30 34 1 16 32
M  V30 35 1 16 33
M  V30 36 1 20 34
M  V30 37 1 21 35
M  V30 38 1 24 36
M  V30 39 1 25 37
M  V30 END BOND
M  V30 END CTAB
M  END
