
     RDKit          3D

  0  0  0  0  0  0  0  0  0  0999 V3000
M  V30 BEGIN CTAB
M  V30 COUNTS 19 20 0 0 0
M  V30 BEGIN ATOM
M  V30 1 N 3.17673 0.742026 -0.0339023 0
M  V30 2 C 2.08894 -0.19967 -0.0964788 0
M  V30 3 C 0.736352 0.0606442 -0.0191737 0
M  V30 4 C 0.0239876 1.22784 0.133173 0
M  V30 5 C -1.34966 1.27652 0.188294 0
M  V30 6 C -2.06385 0.0839578 0.084962 0
M  V30 7 N -3.48574 0.0755097 0.13564 0
M  V30 8 C -1.32377 -1.06644 -0.0665715 0
M  V30 9 N 0.0211073 -1.06962 -0.115717 0
M  V30 10 N 0.920401 -2.05867 -0.255553 0
M  V30 11 C 2.16705 -1.56803 -0.247626 0
M  V30 12 H 3.5313 1.13422 -0.909464 0
M  V30 13 H 3.5662 0.993072 0.893875 0
M  V30 14 H 0.637648 2.14005 0.209753 0
M  V30 15 H -1.88038 2.20452 0.308145 0
M  V30 16 H -4.0131 0.548286 0.884544 0
M  V30 17 H -4.00093 -0.422952 -0.606051 0
M  V30 18 H -1.86101 -2.00642 -0.148923 0
M  V30 19 H 3.10872 -2.09483 -0.338923 0
M  V30 END ATOM
M  V30 BEGIN BOND
M  V30 1 1 1 2
M  V30 2 2 2 3
M  V30 3 1 3 4
M  V30 4 2 4 5
M  V30 5 1 5 6
M  V30 6 1 6 7
M  V30 7 2 6 8
M  V30 8 1 8 9
M  V30 9 1 9 10
M  V30 10 2 10 11
M  V30 11 1 11 2
M  V30 12 1 9 3
M  V30 13 1 1 12
M  V30 14 1 1 13
M  V30 15 1 4 14
M  V30 16 1 5 15
M  V30 17 1 7 16
M  V30 18 1 7 17
M  V30 19 1 8 18
M  V30 20 1 11 19
M  V30 END BOND
M  V30 END CTAB
M  END
