
     RDKit          3D

  0  0  0  0  0  0  0  0  0  0999 V3000
M  V30 BEGIN CTAB
M  V30 COUNTS 26 27 0 0 0
M  V30 BEGIN ATOM
M  V30 1 N -4.0901 2.02483 0.699786 0
M  V30 2 C -3.11188 1.03856 0.391202 0
M  V30 3 N -3.46573 -0.226384 0.117026 0
M  V30 4 C -2.48618 -1.12533 -0.170865 0
M  V30 5 N -2.77895 -2.47303 -0.469361 0
M  V30 6 C -1.14477 -0.765303 -0.186607 0
M  V30 7 C -0.814791 0.540359 0.0990608 0
M  V30 8 N -1.81198 1.38691 0.37582 0
M  V30 9 N 0.475523 0.878556 0.0819819 0
M  V30 10 C 1.474 0.00655666 -0.200945 0
M  V30 11 N 1.11917 -1.26122 -0.475724 0
M  V30 12 C -0.154549 -1.69426 -0.482454 0
M  V30 13 N 2.84007 0.410465 -0.20813 0
M  V30 14 C 3.84889 -0.580291 -0.520176 0
M  V30 15 C 3.18085 1.76732 0.0889767 0
M  V30 16 H -3.84705 3.02101 0.692041 0
M  V30 17 H -5.0709 1.75799 0.939429 0
M  V30 18 H -3.07372 -2.72403 -1.42831 0
M  V30 19 H -2.70387 -3.20986 0.251652 0
M  V30 20 H -0.418679 -2.71044 -0.704232 0
M  V30 21 H 3.46774 -1.56925 -0.200385 0
M  V30 22 H 4.82531 -0.359835 -0.047449 0
M  V30 23 H 3.91548 -0.607353 -1.63971 0
M  V30 24 H 2.39416 2.46737 -0.303749 0
M  V30 25 H 3.28663 1.98237 1.16955 0
M  V30 26 H 4.14532 2.0243 -0.391049 0
M  V30 END ATOM
M  V30 BEGIN BOND
M  V30 1 1 1 2
M  V30 2 2 2 3
M  V30 3 1 3 4
M  V30 4 1 4 5
M  V30 5 2 4 6
M  V30 6 1 6 7
M  V30 7 2 7 8
M  V30 8 1 7 9
M  V30 9 2 9 10
M  V30 10 1 10 11
M  V30 11 2 11 12
M  V30 12 1 10 13
M  V30 13 1 13 14
M  V30 14 1 13 15
M  V30 15 1 8 2
M  V30 16 1 12 6
M  V30 17 1 1 16
M  V30 18 1 1 17
M  V30 19 1 5 18
M  V30 20 1 5 19
M  V30 21 1 12 20
M  V30 22 1 14 21
M  V30 23 1 14 22
M  V30 24 1 14 23
M  V30 25 1 15 24
M  V30 26 1 15 25
M  V30 27 1 15 26
M  V30 END BOND
M  V30 END CTAB
M  END
