
     RDKit          3D

  0  0  0  0  0  0  0  0  0  0999 V3000
M  V30 BEGIN CTAB
M  V30 COUNTS 18 19 0 0 0
M  V30 BEGIN ATOM
M  V30 1 Cl -3.6419 -2.11714 -0.128739 0
M  V30 2 C -2.17802 -1.17331 -0.0708028 0
M  V30 3 C -2.2456 0.204008 0.0451804 0
M  V30 4 C -1.06359 0.904789 0.0868165 0
M  V30 5 N -1.13286 2.32227 0.206186 0
M  V30 6 C 0.179477 0.302011 0.0187193 0
M  V30 7 C 0.224967 -1.07252 -0.0967155 0
M  V30 8 C -0.949005 -1.79542 -0.140312 0
M  V30 9 N 1.54667 -1.38702 -0.141871 0
M  V30 10 C 2.26266 -0.255184 -0.057583 0
M  V30 11 O 1.42028 0.736633 0.0372816 0
M  V30 12 N 3.68117 -0.0780032 -0.0630529 0
M  V30 13 H -3.22339 0.662529 0.0974246 0
M  V30 14 H -1.18848 2.96701 -0.618205 0
M  V30 15 H -1.12511 2.69676 1.18696 0
M  V30 16 H -0.87423 -2.87948 -0.2319 0
M  V30 17 H 4.11952 0.169503 0.838867 0
M  V30 18 H 4.18743 -0.20744 -0.968251 0
M  V30 END ATOM
M  V30 BEGIN BOND
M  V30 1 1 1 2
M  V30 2 2 2 3
M  V30 3 1 3 4
M  V30 4 1 4 5
M  V30 5 2 4 6
M  V30 6 1 6 7
M  V30 7 2 7 8
M  V30 8 1 7 9
M  V30 9 2 9 10
M  V30 10 1 10 11
M  V30 11 1 10 12
M  V30 12 1 8 2
M  V30 13 1 11 6
M  V30 14 1 3 13
M  V30 15 1 5 14
M  V30 16 1 5 15
M  V30 17 1 8 16
M  V30 18 1 12 17
M  V30 19 1 12 18
M  V30 END BOND
M  V30 END CTAB
M  END
