
     RDKit          3D

  0  0  0  0  0  0  0  0  0  0999 V3000
M  V30 BEGIN CTAB
M  V30 COUNTS 25 26 0 0 0
M  V30 BEGIN ATOM
M  V30 1 N -3.60544 -1.30624 -1.04063 0
M  V30 2 C -2.64782 -0.517273 -0.345492 0
M  V30 3 C -1.28822 -0.687588 -0.574393 0
M  V30 4 C -0.33692 0.0581701 0.080344 0
M  V30 5 C -0.793938 0.995454 0.986425 0
M  V30 6 N 0.169501 1.78605 1.68285 0
M  V30 7 C -2.14521 1.16623 1.21534 0
M  V30 8 C -3.09968 0.418672 0.559065 0
M  V30 9 C 1.10059 -0.0849961 -0.12689 0
M  V30 10 N 1.98827 0.676307 0.545626 0
M  V30 11 C 3.31802 0.577269 0.385403 0
M  V30 12 C 3.87062 -0.328366 -0.495571 0
M  V30 13 C 3.01099 -1.13088 -1.20832 0
M  V30 14 C 1.63163 -0.997015 -1.01279 0
M  V30 15 H -4.1179 -2.10732 -0.618007 0
M  V30 16 H -3.79724 -1.05699 -2.03404 0
M  V30 17 H -0.981908 -1.42004 -1.27991 0
M  V30 18 H 0.421326 2.70045 1.20896 0
M  V30 19 H 0.598466 1.49929 2.58488 0
M  V30 20 H -2.50249 1.90011 1.92477 0
M  V30 21 H -4.1664 0.548431 0.735051 0
M  V30 22 H 4.01648 1.19684 0.933909 0
M  V30 23 H 4.95903 -0.386295 -0.604916 0
M  V30 24 H 3.39098 -1.85801 -1.91244 0
M  V30 25 H 1.00726 -1.64225 -1.58921 0
M  V30 END ATOM
M  V30 BEGIN BOND
M  V30 1 1 1 2
M  V30 2 2 2 3
M  V30 3 1 3 4
M  V30 4 2 4 5
M  V30 5 1 5 6
M  V30 6 1 5 7
M  V30 7 2 7 8
M  V30 8 1 4 9
M  V30 9 2 9 10
M  V30 10 1 10 11
M  V30 11 2 11 12
M  V30 12 1 12 13
M  V30 13 2 13 14
M  V30 14 1 8 2
M  V30 15 1 14 9
M  V30 16 1 1 15
M  V30 17 1 1 16
M  V30 18 1 3 17
M  V30 19 1 6 18
M  V30 20 1 6 19
M  V30 21 1 7 20
M  V30 22 1 8 21
M  V30 23 1 11 22
M  V30 24 1 12 23
M  V30 25 1 13 24
M  V30 26 1 14 25
M  V30 END BOND
M  V30 END CTAB
M  END
