
     RDKit          3D

  0  0  0  0  0  0  0  0  0  0999 V3000
M  V30 BEGIN CTAB
M  V30 COUNTS 31 32 0 0 0
M  V30 BEGIN ATOM
M  V30 1 C -0.357283 2.63534 0.529855 0
M  V30 2 C -1.27535 1.60241 1.08283 0
M  V30 3 C -1.56481 0.422189 0.233888 0
M  V30 4 N -2.53871 -0.450128 0.901734 0
M  V30 5 C -2.65259 -1.66739 0.576989 0
M  V30 6 N -3.65344 -2.43603 1.28266 0
M  V30 7 N -1.7848 -2.3595 -0.302505 0
M  V30 8 C -0.806235 -1.69227 -0.776096 0
M  V30 9 N 0.144306 -2.26253 -1.69574 0
M  V30 10 N -0.512151 -0.361199 -0.266716 0
M  V30 11 C 0.894617 -0.0242887 -0.317555 0
M  V30 12 C 1.74924 -0.298574 0.727647 0
M  V30 13 C 3.09416 -0.0179645 0.681713 0
M  V30 14 C 3.61937 0.5706 -0.473237 0
M  V30 15 Cl 5.32941 0.922402 -0.519794 0
M  V30 16 C 2.76204 0.839515 -1.50694 0
M  V30 17 C 1.39488 0.552199 -1.45535 0
M  V30 18 H -0.661721 3.67772 0.933314 0
M  V30 19 H 0.6714 2.52075 0.867951 0
M  V30 20 H -0.48426 2.77558 -0.568993 0
M  V30 21 H -2.27064 2.13143 1.23554 0
M  V30 22 H -1.00093 1.30755 2.13114 0
M  V30 23 H -2.12854 0.826245 -0.681389 0
M  V30 24 H -3.42379 -2.7482 2.24722 0
M  V30 25 H -4.5466 -2.6345 0.788386 0
M  V30 26 H -0.0394397 -2.18361 -2.71606 0
M  V30 27 H 0.997516 -2.74399 -1.35782 0
M  V30 28 H 1.33561 -0.750812 1.61045 0
M  V30 29 H 3.74162 -0.251839 1.53546 0
M  V30 30 H 3.15633 1.29269 -2.40088 0
M  V30 31 H 0.810805 0.806212 -2.3277 0
M  V30 END ATOM
M  V30 BEGIN BOND
M  V30 1 1 1 2
M  V30 2 1 2 3
M  V30 3 1 3 4
M  V30 4 2 4 5
M  V30 5 1 5 6
M  V30 6 1 5 7
M  V30 7 2 7 8
M  V30 8 1 8 9
M  V30 9 1 8 10
M  V30 10 1 10 11
M  V30 11 2 11 12
M  V30 12 1 12 13
M  V30 13 2 13 14
M  V30 14 1 14 15
M  V30 15 1 14 16
M  V30 16 2 16 17
M  V30 17 1 10 3
M  V30 18 1 17 11
M  V30 19 1 1 18
M  V30 20 1 1 19
M  V30 21 1 1 20
M  V30 22 1 2 21
M  V30 23 1 2 22
M  V30 24 1 3 23
M  V30 25 1 6 24
M  V30 26 1 6 25
M  V30 27 1 9 26
M  V30 28 1 9 27
M  V30 29 1 12 28
M  V30 30 1 13 29
M  V30 31 1 16 30
M  V30 32 1 17 31
M  V30 END BOND
M  V30 END CTAB
M  END
