
     RDKit          3D

  0  0  0  0  0  0  0  0  0  0999 V3000
M  V30 BEGIN CTAB
M  V30 COUNTS 41 43 0 0 0
M  V30 BEGIN ATOM
M  V30 1 N -5.01864 1.88794 0.228147 0
M  V30 2 C -3.88942 1.06097 -0.117792 0
M  V30 3 C -4.27025 -0.223127 -0.843832 0
M  V30 4 C -3.32742 -0.954938 0.100809 0
M  V30 5 C -3.42831 0.195945 1.06052 0
M  V30 6 C -1.9745 -1.25314 -0.434005 0
M  V30 7 C -0.862657 -0.470625 -0.30274 0
M  V30 8 C 0.376686 -0.801844 -0.798868 0
M  V30 9 N 1.60254 -0.27642 -0.527955 0
M  V30 10 C 2.03813 0.260653 0.749217 0
M  V30 11 C 3.37474 0.910752 0.689497 0
M  V30 12 C 4.41373 0.595958 1.51479 0
M  V30 13 C 4.49338 -0.703449 2.27335 0
M  V30 14 N 5.30239 1.56414 1.35225 0
M  V30 15 O 4.86794 2.45562 0.481299 0
M  V30 16 C 3.65793 2.08085 0.0342344 0
M  V30 17 C 2.84942 2.83544 -0.977652 0
M  V30 18 N 0.386326 -2.00275 -1.47506 0
M  V30 19 C -0.673734 -2.8121 -1.64616 0
M  V30 20 N -1.88482 -2.44473 -1.11325 0
M  V30 21 N -0.514028 -4.06592 -2.25527 0
M  V30 22 H -5.33886 1.77976 1.24191 0
M  V30 23 H -4.7506 2.91567 0.097327 0
M  V30 24 H -3.1221 1.62577 -0.653441 0
M  V30 25 H -3.93464 -0.241586 -1.89427 0
M  V30 26 H -5.3483 -0.462012 -0.690531 0
M  V30 27 H -3.85312 -1.88845 0.44529 0
M  V30 28 H -4.17174 0.0249595 1.8235 0
M  V30 29 H -2.46424 0.524156 1.512 0
M  V30 30 H -0.984385 0.49139 0.239632 0
M  V30 31 H 2.29492 -0.181917 -1.31424 0
M  V30 32 H 1.31702 1.13237 1.02075 0
M  V30 33 H 1.96001 -0.449081 1.60903 0
M  V30 34 H 4.02948 -0.737851 3.23271 0
M  V30 35 H 4.11191 -1.5248 1.56713 0
M  V30 36 H 5.59024 -0.973185 2.32974 0
M  V30 37 H 1.92292 3.29791 -0.512044 0
M  V30 38 H 2.58801 2.23124 -1.84936 0
M  V30 39 H 3.51081 3.66042 -1.38685 0
M  V30 40 H -0.272019 -4.85176 -1.58324 0
M  V30 41 H -0.604761 -4.2122 -3.22657 0
M  V30 END ATOM
M  V30 BEGIN BOND
M  V30 1 1 1 2
M  V30 2 1 2 3
M  V30 3 1 3 4
M  V30 4 1 4 5
M  V30 5 1 4 6
M  V30 6 2 6 7
M  V30 7 1 7 8
M  V30 8 1 8 9
M  V30 9 1 9 10
M  V30 10 1 10 11
M  V30 11 1 11 12
M  V30 12 1 12 13
M  V30 13 2 12 14
M  V30 14 1 14 15
M  V30 15 1 15 16
M  V30 16 1 16 17
M  V30 17 2 8 18
M  V30 18 1 18 19
M  V30 19 2 19 20
M  V30 20 1 19 21
M  V30 21 1 5 2
M  V30 22 1 20 6
M  V30 23 2 16 11
M  V30 24 1 1 22
M  V30 25 1 1 23
M  V30 26 1 2 24
M  V30 27 1 3 25
M  V30 28 1 3 26
M  V30 29 1 4 27
M  V30 30 1 5 28
M  V30 31 1 5 29
M  V30 32 1 7 30
M  V30 33 1 9 31
M  V30 34 1 10 32
M  V30 35 1 10 33
M  V30 36 1 13 34
M  V30 37 1 13 35
M  V30 38 1 13 36
M  V30 39 1 17 37
M  V30 40 1 17 38
M  V30 41 1 17 39
M  V30 42 1 21 40
M  V30 43 1 21 41
M  V30 END BOND
M  V30 END CTAB
M  END
