
     RDKit          3D

  0  0  0  0  0  0  0  0  0  0999 V3000
M  V30 BEGIN CTAB
M  V30 COUNTS 66 72 0 0 0
M  V30 BEGIN ATOM
M  V30 1 C -0.508231 -2.41922 2.57274 0
M  V30 2 N 0.52581 -2.52267 1.5587 0
M  V30 3 N 1.2872 -3.66469 1.82633 0
M  V30 4 P -0.155019 -2.57077 -0.0493201 0
M  V30 5 N 0.923294 -1.98588 -1.02847 0
M  V30 6 P 1.38999 -0.341804 -0.774653 0
M  V30 7 O 2.45324 0.156571 -2.03632 0
M  V30 8 C 3.4775 1.08641 -1.96161 0
M  V30 9 C 4.43263 1.24475 -0.941499 0
M  V30 10 C 5.38744 2.22169 -0.997269 0
M  V30 11 C 5.41946 3.07177 -2.0835 0
M  V30 12 C 4.49242 2.915 -3.07595 0
M  V30 13 C 3.51552 1.93223 -3.03493 0
M  V30 14 C 4.56953 0.417822 0.251374 0
M  V30 15 C 3.55614 -0.216075 0.990318 0
M  V30 16 O 2.21599 -0.222413 0.73003 0
M  V30 17 C 3.90558 -0.926461 2.1071 0
M  V30 18 C 5.22599 -1.02529 2.5062 0
M  V30 19 C 6.22975 -0.395881 1.76683 0
M  V30 20 C 5.88253 0.328762 0.629626 0
M  V30 21 N 0.101143 0.530348 -0.725605 0
M  V30 22 P -1.49656 -0.0139091 -0.367755 0
M  V30 23 O -2.09589 0.653827 1.11005 0
M  V30 24 C -2.78524 1.82627 1.27198 0
M  V30 25 C -3.8358 2.32006 0.472706 0
M  V30 26 C -4.4296 3.52264 0.751507 0
M  V30 27 C -3.96788 4.2348 1.84627 0
M  V30 28 C -2.94805 3.78786 2.653 0
M  V30 29 C -2.3652 2.57526 2.34872 0
M  V30 30 C -4.45304 1.6781 -0.680285 0
M  V30 31 C -3.814 0.865269 -1.62986 0
M  V30 32 O -2.50206 0.468547 -1.67376 0
M  V30 33 C -4.53788 0.357283 -2.68488 0
M  V30 34 C -5.90046 0.6571 -2.79416 0
M  V30 35 C -6.50564 1.46855 -1.82759 0
M  V30 36 C -5.78384 1.97764 -0.771925 0
M  V30 37 N -1.55037 -1.57455 -0.166339 0
M  V30 38 N -0.513425 -4.24369 -0.404564 0
M  V30 39 C -1.77905 -4.59354 0.223839 0
M  V30 40 N -0.637695 -4.47011 -1.77781 0
M  V30 41 H -0.0344108 -1.92057 3.45268 0
M  V30 42 H -1.42038 -1.9337 2.22916 0
M  V30 43 H -0.753126 -3.46521 2.87641 0
M  V30 44 H 0.774162 -4.54417 1.60762 0
M  V30 45 H 2.19739 -3.59827 1.31287 0
M  V30 46 H 6.07794 2.35545 -0.198694 0
M  V30 47 H 6.1865 3.83065 -2.09697 0
M  V30 48 H 4.51671 3.57707 -3.92469 0
M  V30 49 H 2.81898 1.86775 -3.85231 0
M  V30 50 H 3.1686 -1.4405 2.72587 0
M  V30 51 H 5.53721 -1.57565 3.38033 0
M  V30 52 H 7.26332 -0.438491 2.02642 0
M  V30 53 H 6.65233 0.772843 0.0487445 0
M  V30 54 H -5.19694 3.88907 0.103275 0
M  V30 55 H -4.46184 5.18514 2.04096 0
M  V30 56 H -2.60117 4.37809 3.52082 0
M  V30 57 H -1.56581 2.24843 2.99984 0
M  V30 58 H -4.12305 -0.272987 -3.45778 0
M  V30 59 H -6.458 0.255614 -3.62325 0
M  V30 60 H -7.55608 1.69759 -1.91353 0
M  V30 61 H -6.25929 2.56079 -0.0247916 0
M  V30 62 H -1.59254 -5.29558 1.0632 0
M  V30 63 H -2.2839 -3.68173 0.575433 0
M  V30 64 H -2.47559 -5.06373 -0.520236 0
M  V30 65 H -1.0553 -3.65377 -2.27694 0
M  V30 66 H 0.218083 -4.84575 -2.20375 0
M  V30 END ATOM
M  V30 BEGIN BOND
M  V30 1 1 1 2
M  V30 2 1 2 3
M  V30 3 1 2 4
M  V30 4 2 4 5
M  V30 5 1 5 6
M  V30 6 1 6 7
M  V30 7 1 7 8
M  V30 8 2 8 9
M  V30 9 1 9 10
M  V30 10 2 10 11
M  V30 11 1 11 12
M  V30 12 2 12 13
M  V30 13 1 9 14
M  V30 14 2 14 15
M  V30 15 1 15 16
M  V30 16 1 15 17
M  V30 17 2 17 18
M  V30 18 1 18 19
M  V30 19 2 19 20
M  V30 20 2 6 21
M  V30 21 1 21 22
M  V30 22 1 22 23
M  V30 23 1 23 24
M  V30 24 2 24 25
M  V30 25 1 25 26
M  V30 26 2 26 27
M  V30 27 1 27 28
M  V30 28 2 28 29
M  V30 29 1 25 30
M  V30 30 2 30 31
M  V30 31 1 31 32
M  V30 32 1 31 33
M  V30 33 2 33 34
M  V30 34 1 34 35
M  V30 35 2 35 36
M  V30 36 2 22 37
M  V30 37 1 4 38
M  V30 38 1 38 39
M  V30 39 1 38 40
M  V30 40 1 37 4
M  V30 41 1 16 6
M  V30 42 1 32 22
M  V30 43 1 13 8
M  V30 44 1 20 14
M  V30 45 1 29 24
M  V30 46 1 36 30
M  V30 47 1 1 41
M  V30 48 1 1 42
M  V30 49 1 1 43
M  V30 50 1 3 44
M  V30 51 1 3 45
M  V30 52 1 10 46
M  V30 53 1 11 47
M  V30 54 1 12 48
M  V30 55 1 13 49
M  V30 56 1 17 50
M  V30 57 1 18 51
M  V30 58 1 19 52
M  V30 59 1 20 53
M  V30 60 1 26 54
M  V30 61 1 27 55
M  V30 62 1 28 56
M  V30 63 1 29 57
M  V30 64 1 33 58
M  V30 65 1 34 59
M  V30 66 1 35 60
M  V30 67 1 36 61
M  V30 68 1 39 62
M  V30 69 1 39 63
M  V30 70 1 39 64
M  V30 71 1 40 65
M  V30 72 1 40 66
M  V30 END BOND
M  V30 END CTAB
M  END
