
     RDKit          3D

  0  0  0  0  0  0  0  0  0  0999 V3000
M  V30 BEGIN CTAB
M  V30 COUNTS 60 61 0 0 0
M  V30 BEGIN ATOM
M  V30 1 N 5.29795 -3.6392 0.204373 0
M  V30 2 C 4.86499 -2.66606 -0.799294 0
M  V30 3 C 3.44255 -2.30614 -0.460296 0
M  V30 4 N 2.90528 -1.31452 -1.41238 0
M  V30 5 C 3.60228 -0.10465 -1.19497 0
M  V30 6 C 2.86938 1.14497 -1.52841 0
M  V30 7 N 1.49412 1.05774 -0.880398 0
M  V30 8 C 0.788561 -0.0106657 -1.51629 0
M  V30 9 C 1.49834 -1.31055 -1.27458 0
M  V30 10 C 1.2258 1.96424 0.111183 0
M  V30 11 O 2.34476 2.74241 0.265698 0
M  V30 12 C 0.287665 2.42973 1.03172 0
M  V30 13 C -0.894019 2.15703 1.38287 0
M  V30 14 N -1.74742 1.16505 0.889499 0
M  V30 15 C -2.72197 1.42704 -0.133165 0
M  V30 16 C -2.18778 2.28699 -1.25554 0
M  V30 17 C -3.84452 2.32842 0.514359 0
M  V30 18 C -3.44899 0.267781 -0.685251 0
M  V30 19 C -3.06969 -1.09805 -0.299323 0
M  V30 20 C -2.0555 -1.30215 0.75857 0
M  V30 21 C -1.70718 -0.110808 1.57674 0
M  V30 22 C -0.375498 -0.347498 2.24602 0
M  V30 23 C -2.7086 -0.0703795 2.75734 0
M  V30 24 N -2.67127 -1.91478 -1.46058 0
M  V30 25 C 0.82205 3.60252 1.86885 0
M  V30 26 N 1.25997 4.49208 2.48569 0
M  V30 27 H 4.69722 -3.60841 1.06666 0
M  V30 28 H 6.27316 -3.41278 0.518842 0
M  V30 29 H 4.85502 -3.21318 -1.768 0
M  V30 30 H 5.55471 -1.82855 -0.757482 0
M  V30 31 H 2.82581 -3.24086 -0.547781 0
M  V30 32 H 3.32101 -1.95903 0.586045 0
M  V30 33 H 4.51112 -0.114456 -1.87573 0
M  V30 34 H 4.08075 -0.0771398 -0.173601 0
M  V30 35 H 2.72015 1.22195 -2.62325 0
M  V30 36 H 3.42764 1.99433 -1.12129 0
M  V30 37 H 0.873173 0.159114 -2.64212 0
M  V30 38 H -0.251643 -0.1338 -1.29205 0
M  V30 39 H 1.09582 -2.00662 -2.07809 0
M  V30 40 H 1.21144 -1.81315 -0.332498 0
M  V30 41 H -1.39854 2.7866 2.229 0
M  V30 42 H -1.52062 3.10108 -0.854276 0
M  V30 43 H -3.03092 2.88223 -1.73133 0
M  V30 44 H -1.71915 1.7386 -2.06371 0
M  V30 45 H -3.75246 3.36354 0.14539 0
M  V30 46 H -4.82971 1.95622 0.264029 0
M  V30 47 H -3.6886 2.36365 1.59936 0
M  V30 48 H -3.36104 0.316424 -1.82174 0
M  V30 49 H -4.57854 0.438947 -0.565665 0
M  V30 50 H -4.02542 -1.6157 0.0527927 0
M  V30 51 H -1.12026 -1.76683 0.355612 0
M  V30 52 H -2.42055 -2.0901 1.5001 0
M  V30 53 H -0.547805 -1.2032 2.96797 0
M  V30 54 H 0.427293 -0.687661 1.58524 0
M  V30 55 H -0.0842881 0.499309 2.90807 0
M  V30 56 H -2.68353 -1.11664 3.16101 0
M  V30 57 H -3.7271 0.124642 2.43381 0
M  V30 58 H -2.38855 0.591862 3.55291 0
M  V30 59 H -3.20982 -1.60848 -2.29501 0
M  V30 60 H -2.80702 -2.91247 -1.20689 0
M  V30 END ATOM
M  V30 BEGIN BOND
M  V30 1 1 1 2
M  V30 2 1 2 3
M  V30 3 1 3 4
M  V30 4 1 4 5
M  V30 5 1 5 6
M  V30 6 1 6 7
M  V30 7 1 7 8
M  V30 8 1 8 9
M  V30 9 1 7 10
M  V30 10 2 10 11
M  V30 11 1 10 12
M  V30 12 2 12 13
M  V30 13 1 13 14
M  V30 14 1 14 15
M  V30 15 1 15 16
M  V30 16 1 15 17
M  V30 17 1 15 18
M  V30 18 1 18 19
M  V30 19 1 19 20
M  V30 20 1 20 21
M  V30 21 1 21 22
M  V30 22 1 21 23
M  V30 23 1 19 24
M  V30 24 1 12 25
M  V30 25 3 25 26
M  V30 26 1 9 4
M  V30 27 1 21 14
M  V30 28 1 1 27
M  V30 29 1 1 28
M  V30 30 1 2 29
M  V30 31 1 2 30
M  V30 32 1 3 31
M  V30 33 1 3 32
M  V30 34 1 5 33
M  V30 35 1 5 34
M  V30 36 1 6 35
M  V30 37 1 6 36
M  V30 38 1 8 37
M  V30 39 1 8 38
M  V30 40 1 9 39
M  V30 41 1 9 40
M  V30 42 1 13 41
M  V30 43 1 16 42
M  V30 44 1 16 43
M  V30 45 1 16 44
M  V30 46 1 17 45
M  V30 47 1 17 46
M  V30 48 1 17 47
M  V30 49 1 18 48
M  V30 50 1 18 49
M  V30 51 1 19 50
M  V30 52 1 20 51
M  V30 53 1 20 52
M  V30 54 1 22 53
M  V30 55 1 22 54
M  V30 56 1 22 55
M  V30 57 1 23 56
M  V30 58 1 23 57
M  V30 59 1 23 58
M  V30 60 1 24 59
M  V30 61 1 24 60
M  V30 END BOND
M  V30 END CTAB
M  END
