
     RDKit          3D

  0  0  0  0  0  0  0  0  0  0999 V3000
M  V30 BEGIN CTAB
M  V30 COUNTS 55 57 0 0 0
M  V30 BEGIN ATOM
M  V30 1 N 7.60429 -0.785321 0.258258 0
M  V30 2 C 6.31045 -0.311556 0.644005 0
M  V30 3 C 5.23774 -0.482768 -0.186211 0
M  V30 4 N 5.45534 -1.14622 -1.43394 0
M  V30 5 C 3.95476 -0.0179369 0.180379 0
M  V30 6 O 2.9722 -0.217686 -0.675741 0
M  V30 7 C 1.66911 -0.0791241 -0.952697 0
M  V30 8 C 0.653695 -0.802533 -0.103131 0 CFG=1
M  V30 9 O 0.693548 -0.413029 1.18541 0
M  V30 10 C -0.652614 -1.07992 -0.738405 0
M  V30 11 N -1.68569 -0.135542 -0.751016 0
M  V30 12 C -2.33836 0.0536669 0.542608 0
M  V30 13 C -3.02308 -1.18511 0.988757 0
M  V30 14 C -2.47248 -2.03363 1.90932 0
M  V30 15 C -3.12936 -3.19935 2.31697 0
M  V30 16 C -4.35941 -3.49132 1.77375 0
M  V30 17 C -4.93666 -2.66051 0.849615 0
M  V30 18 C -4.25756 -1.51594 0.469461 0
M  V30 19 C -1.30146 1.16625 -1.23513 0
M  V30 20 C -2.45886 2.0955 -1.41736 0
M  V30 21 C -2.57023 3.23171 -0.650258 0
M  V30 22 C -3.64167 4.09729 -0.816957 0
M  V30 23 C -4.62975 3.84606 -1.75746 0
M  V30 24 C -4.52229 2.7179 -2.52149 0
M  V30 25 C -3.44333 1.86674 -2.33834 0
M  V30 26 C 3.87016 0.601307 1.39878 0
M  V30 27 C 4.96967 0.768015 2.23309 0
M  V30 28 C 6.19406 0.313666 1.86187 0
M  V30 29 H 7.69706 -1.68076 -0.252925 0
M  V30 30 H 8.43084 -0.239037 0.487075 0
M  V30 31 H 5.39422 -2.18072 -1.42163 0
M  V30 32 H 5.66049 -0.587621 -2.28113 0
M  V30 33 H 1.47478 -0.337731 -2.05708 0
M  V30 34 H 1.45237 1.04362 -0.977393 0
M  V30 35 H 1.1419 -1.90402 -0.114081 0
M  V30 36 H 0.720168 -1.18561 1.79972 0
M  V30 37 H -1.07099 -2.09416 -0.412691 0
M  V30 38 H -0.41401 -1.30617 -1.83073 0
M  V30 39 H -1.65342 0.358915 1.33538 0
M  V30 40 H -3.06148 0.882234 0.395772 0
M  V30 41 H -1.50135 -1.84113 2.36963 0
M  V30 42 H -2.68697 -3.85543 3.03827 0
M  V30 43 H -4.91414 -4.39978 2.06509 0
M  V30 44 H -5.90968 -2.93513 0.449642 0
M  V30 45 H -4.73193 -0.866809 -0.266146 0
M  V30 46 H -0.626106 1.65421 -0.459244 0
M  V30 47 H -0.770263 1.096 -2.18619 0
M  V30 48 H -1.80091 3.44897 0.100279 0
M  V30 49 H -3.7201 4.97658 -0.218711 0
M  V30 50 H -5.47562 4.53865 -1.88131 0
M  V30 51 H -5.28499 2.51485 -3.25689 0
M  V30 52 H -3.36375 0.973122 -2.94728 0
M  V30 53 H 2.94708 1.00901 1.7684 0
M  V30 54 H 4.86671 1.26554 3.19833 0
M  V30 55 H 7.03787 0.451787 2.5217 0
M  V30 END ATOM
M  V30 BEGIN BOND
M  V30 1 1 1 2
M  V30 2 2 2 3
M  V30 3 1 3 4
M  V30 4 1 3 5
M  V30 5 1 5 6
M  V30 6 1 6 7
M  V30 7 1 7 8
M  V30 8 1 8 9
M  V30 9 1 8 10
M  V30 10 1 10 11
M  V30 11 1 11 12
M  V30 12 1 12 13
M  V30 13 2 13 14
M  V30 14 1 14 15
M  V30 15 2 15 16
M  V30 16 1 16 17
M  V30 17 2 17 18
M  V30 18 1 11 19
M  V30 19 1 19 20
M  V30 20 2 20 21
M  V30 21 1 21 22
M  V30 22 2 22 23
M  V30 23 1 23 24
M  V30 24 2 24 25
M  V30 25 2 5 26
M  V30 26 1 26 27
M  V30 27 2 27 28
M  V30 28 1 28 2
M  V30 29 1 18 13
M  V30 30 1 25 20
M  V30 31 1 1 29
M  V30 32 1 1 30
M  V30 33 1 4 31
M  V30 34 1 4 32
M  V30 35 1 7 33
M  V30 36 1 7 34
M  V30 37 1 8 35 CFG=1
M  V30 38 1 9 36
M  V30 39 1 10 37
M  V30 40 1 10 38
M  V30 41 1 12 39
M  V30 42 1 12 40
M  V30 43 1 14 41
M  V30 44 1 15 42
M  V30 45 1 16 43
M  V30 46 1 17 44
M  V30 47 1 18 45
M  V30 48 1 19 46
M  V30 49 1 19 47
M  V30 50 1 21 48
M  V30 51 1 22 49
M  V30 52 1 23 50
M  V30 53 1 24 51
M  V30 54 1 25 52
M  V30 55 1 26 53
M  V30 56 1 27 54
M  V30 57 1 28 55
M  V30 END BOND
M  V30 END CTAB
M  END
