
     RDKit          3D

  0  0  0  0  0  0  0  0  0  0999 V3000
M  V30 BEGIN CTAB
M  V30 COUNTS 143 146 0 0 0
M  V30 BEGIN ATOM
M  V30 1 N 7.27742 -0.33228 -4.29779 0
M  V30 2 C 8.19527 -0.918737 -3.36377 0
M  V30 3 C 7.53732 -1.57904 -2.20146 0
M  V30 4 C 6.73297 -0.727538 -1.29581 0
M  V30 5 C 5.57792 -0.0321522 -1.92091 0
M  V30 6 C 4.79913 0.755235 -0.878498 0
M  V30 7 C 4.22282 -0.0455747 0.195164 0
M  V30 8 O 4.54081 0.227623 1.40342 0
M  V30 9 N 3.3094 -1.13383 0.0218325 0
M  V30 10 C 2.81615 -1.80288 1.20495 0
M  V30 11 C 1.29804 -1.80768 1.12328 0
M  V30 12 O 0.873287 -2.02846 -0.0457768 0
M  V30 13 N 0.510135 -1.58593 2.26462 0
M  V30 14 C 1.08775 -1.29307 3.56417 0
M  V30 15 C 0.0307757 -0.688648 4.41882 0
M  V30 16 C -1.23099 -0.837409 3.64495 0
M  V30 17 C -0.907869 -1.64295 2.38968 0
M  V30 18 C -1.70954 -1.12162 1.27734 0
M  V30 19 O -1.22383 -0.347575 0.435369 0
M  V30 20 N -3.05468 -1.49969 1.14273 0
M  V30 21 C -3.91377 -1.04618 0.0606135 0
M  V30 22 C -5.16953 -0.40284 0.592869 0
M  V30 23 O -5.32428 -0.323732 1.83513 0
M  V30 24 N -6.16115 0.102509 -0.25866 0
M  V30 25 C -7.38917 0.727141 0.142022 0
M  V30 26 C -7.44239 2.15887 -0.182085 0
M  V30 27 O -6.32877 2.77674 -0.246401 0
M  V30 28 N -8.59246 2.95511 -0.439819 0
M  V30 29 C -8.53267 4.35261 -0.733438 0
M  V30 30 C -8.74316 4.58401 -2.21644 0
M  V30 31 O -8.92865 3.65839 -3.03244 0
M  V30 32 O -8.72581 5.88223 -2.65885 0
M  V30 33 C -9.34882 5.28789 0.0592332 0
M  V30 34 C -10.8205 5.1767 0.051273 0
M  V30 35 C -11.4274 3.90424 0.55685 0
M  V30 36 C -11.4665 6.29651 0.892639 0
M  V30 37 C -8.62526 0.0223679 -0.283847 0
M  V30 38 C -8.79624 -0.137526 -1.7729 0
M  V30 39 C -10.074 -0.865335 -2.11763 0
M  V30 40 C -8.72547 -1.35399 0.408539 0
M  V30 41 C -4.31441 -2.35846 -0.651657 0
M  V30 42 C -3.1284 -3.08475 -1.16255 0
M  V30 43 C -2.51984 -4.20527 -0.573703 0
M  V30 44 N -1.47462 -4.57057 -1.32231 0
M  V30 45 C -1.32873 -3.77501 -2.38194 0
M  V30 46 C -2.36718 -2.84087 -2.28325 0
M  V30 47 C -2.42689 -1.90027 -3.2793 0
M  V30 48 C -1.51603 -1.88099 -4.31405 0
M  V30 49 C -0.51115 -2.80967 -4.38176 0
M  V30 50 C -0.412744 -3.76497 -3.41011 0
M  V30 51 C 3.16713 -3.29505 1.11763 0
M  V30 52 C 4.64786 -3.51619 1.01087 0
M  V30 53 C 4.94208 -5.01162 0.953825 0
M  V30 54 N 6.34281 -5.29767 0.845992 0
M  V30 55 C 7.21599 -5.02515 1.94089 0
M  V30 56 N 8.39589 -4.57275 1.77395 0
M  V30 57 N 6.76679 -5.26495 3.273 0
M  V30 58 N 5.69661 1.75312 -0.27994 0
M  V30 59 C 5.52413 3.13174 -0.550108 0
M  V30 60 O 4.57569 3.5037 -1.32584 0
M  V30 61 C 6.36397 4.18986 0.00641372 0
M  V30 62 N 7.44446 3.76683 0.830901 0
M  V30 63 C 8.52177 3.00543 0.315503 0
M  V30 64 O 8.61813 2.66107 -0.886388 0
M  V30 65 C 9.59845 2.59284 1.25846 0
M  V30 66 C 10.2061 3.80233 1.88682 0
M  V30 67 C 11.6794 3.57473 1.88126 0
M  V30 68 C 11.8587 2.50192 0.858195 0
M  V30 69 O 12.9897 2.26566 0.348265 0
M  V30 70 N 10.639 1.86197 0.596957 0
M  V30 71 H 7.03101 -0.94963 -5.08764 0
M  V30 72 H 7.65477 0.57497 -4.61709 0
M  V30 73 H 8.90321 -0.133488 -2.99715 0
M  V30 74 H 8.84028 -1.69149 -3.87135 0
M  V30 75 H 8.36403 -2.0487 -1.58217 0
M  V30 76 H 6.92813 -2.42522 -2.62992 0
M  V30 77 H 6.3895 -1.27612 -0.377347 0
M  V30 78 H 7.44492 0.0412115 -0.858793 0
M  V30 79 H 5.94321 0.777607 -2.63243 0
M  V30 80 H 4.91132 -0.736441 -2.42218 0
M  V30 81 H 3.99397 1.29891 -1.42521 0
M  V30 82 H 3.03976 -1.40083 -0.941745 0
M  V30 83 H 3.19482 -1.41871 2.14357 0
M  V30 84 H 1.5348 -2.20065 4.02678 0
M  V30 85 H 1.92452 -0.570285 3.40746 0
M  V30 86 H 0.285454 0.390858 4.61314 0
M  V30 87 H -0.0500993 -1.17087 5.42857 0
M  V30 88 H -1.58195 0.182531 3.37378 0
M  V30 89 H -2.02392 -1.32422 4.21298 0
M  V30 90 H -1.20857 -2.72139 2.58477 0
M  V30 91 H -3.48752 -2.13918 1.84584 0
M  V30 92 H -3.33245 -0.393708 -0.581198 0
M  V30 93 H -5.99914 0.0242621 -1.30218 0
M  V30 94 H -7.38147 0.595466 1.28897 0
M  V30 95 H -9.4871 2.43517 -0.419047 0
M  V30 96 H -7.45239 4.69475 -0.614197 0
M  V30 97 H -8.21127 6.63887 -2.1982 0
M  V30 98 H -9.11759 6.36912 -0.219052 0
M  V30 99 H -9.04641 5.29641 1.15978 0
M  V30 100 H -11.2679 5.33561 -0.968339 0
M  V30 101 H -12.4289 4.08198 1.03545 0
M  V30 102 H -10.8178 3.3549 1.29459 0
M  V30 103 H -11.6742 3.19873 -0.285193 0
M  V30 104 H -11.565 5.90962 1.93542 0
M  V30 105 H -10.847 7.19439 0.914448 0
M  V30 106 H -12.4855 6.48034 0.521082 0
M  V30 107 H -9.50583 0.567217 0.103842 0
M  V30 108 H -8.84612 0.856188 -2.27961 0
M  V30 109 H -7.93154 -0.646647 -2.24465 0
M  V30 110 H -9.88074 -1.85242 -2.58139 0
M  V30 111 H -10.6541 -0.947356 -1.1698 0
M  V30 112 H -10.6926 -0.275374 -2.82312 0
M  V30 113 H -8.26792 -2.14553 -0.175645 0
M  V30 114 H -9.79239 -1.61137 0.536812 0
M  V30 115 H -8.28658 -1.19077 1.41392 0
M  V30 116 H -5.06524 -2.18478 -1.43108 0
M  V30 117 H -4.81112 -3.02848 0.11254 0
M  V30 118 H -2.84277 -4.68413 0.326262 0
M  V30 119 H -0.835398 -5.39155 -1.10304 0
M  V30 120 H -3.22655 -1.16903 -3.21456 0
M  V30 121 H -1.57871 -1.11873 -5.10856 0
M  V30 122 H 0.209625 -2.78883 -5.20412 0
M  V30 123 H 0.391872 -4.48208 -3.49453 0
M  V30 124 H 2.7776 -3.8065 2.03169 0
M  V30 125 H 2.67111 -3.77967 0.250954 0
M  V30 126 H 4.96573 -3.05519 0.0359332 0
M  V30 127 H 5.24235 -3.07408 1.80743 0
M  V30 128 H 4.51179 -5.44567 1.90376 0
M  V30 129 H 4.37075 -5.434 0.106512 0
M  V30 130 H 6.72246 -5.7113 -0.0544004 0
M  V30 131 H 9.02665 -4.37464 2.55393 0
M  V30 132 H 5.9772 -5.90847 3.4163 0
M  V30 133 H 7.20637 -4.81497 4.09941 0
M  V30 134 H 6.42478 1.38291 0.342999 0
M  V30 135 H 6.808 4.82191 -0.822932 0
M  V30 136 H 5.67913 4.89149 0.557594 0
M  V30 137 H 7.41625 4.04413 1.84567 0
M  V30 138 H 9.13501 1.91944 2.01887 0
M  V30 139 H 9.83636 3.95846 2.92449 0
M  V30 140 H 9.95964 4.68587 1.23509 0
M  V30 141 H 12.1761 4.52131 1.58741 0
M  V30 142 H 11.9929 3.24801 2.87303 0
M  V30 143 H 10.4575 0.999366 0.0280782 0
M  V30 END ATOM
M  V30 BEGIN BOND
M  V30 1 1 1 2
M  V30 2 1 2 3
M  V30 3 1 3 4
M  V30 4 1 4 5
M  V30 5 1 5 6
M  V30 6 1 6 7
M  V30 7 2 7 8
M  V30 8 1 7 9
M  V30 9 1 9 10
M  V30 10 1 10 11
M  V30 11 2 11 12
M  V30 12 1 11 13
M  V30 13 1 13 14
M  V30 14 1 14 15
M  V30 15 1 15 16
M  V30 16 1 16 17
M  V30 17 1 17 18
M  V30 18 2 18 19
M  V30 19 1 18 20
M  V30 20 1 20 21
M  V30 21 1 21 22
M  V30 22 2 22 23
M  V30 23 1 22 24
M  V30 24 1 24 25
M  V30 25 1 25 26
M  V30 26 2 26 27
M  V30 27 1 26 28
M  V30 28 1 28 29
M  V30 29 1 29 30
M  V30 30 2 30 31
M  V30 31 1 30 32
M  V30 32 1 29 33
M  V30 33 1 33 34
M  V30 34 1 34 35
M  V30 35 1 34 36
M  V30 36 1 25 37
M  V30 37 1 37 38
M  V30 38 1 38 39
M  V30 39 1 37 40
M  V30 40 1 21 41
M  V30 41 1 41 42
M  V30 42 2 42 43
M  V30 43 1 43 44
M  V30 44 1 44 45
M  V30 45 2 45 46
M  V30 46 1 46 47
M  V30 47 2 47 48
M  V30 48 1 48 49
M  V30 49 2 49 50
M  V30 50 1 10 51
M  V30 51 1 51 52
M  V30 52 1 52 53
M  V30 53 1 53 54
M  V30 54 1 54 55
M  V30 55 2 55 56 CFG=2
M  V30 56 1 55 57
M  V30 57 1 6 58
M  V30 58 1 58 59
M  V30 59 2 59 60
M  V30 60 1 59 61
M  V30 61 1 61 62
M  V30 62 1 62 63
M  V30 63 2 63 64
M  V30 64 1 63 65
M  V30 65 1 65 66
M  V30 66 1 66 67
M  V30 67 1 67 68
M  V30 68 2 68 69
M  V30 69 1 68 70
M  V30 70 1 17 13
M  V30 71 1 46 42
M  V30 72 1 70 65
M  V30 73 1 50 45
M  V30 74 1 1 71
M  V30 75 1 1 72
M  V30 76 1 2 73
M  V30 77 1 2 74
M  V30 78 1 3 75
M  V30 79 1 3 76
M  V30 80 1 4 77
M  V30 81 1 4 78
M  V30 82 1 5 79
M  V30 83 1 5 80
M  V30 84 1 6 81
M  V30 85 1 9 82
M  V30 86 1 10 83
M  V30 87 1 14 84
M  V30 88 1 14 85
M  V30 89 1 15 86
M  V30 90 1 15 87
M  V30 91 1 16 88
M  V30 92 1 16 89
M  V30 93 1 17 90
M  V30 94 1 20 91
M  V30 95 1 21 92
M  V30 96 1 24 93
M  V30 97 1 25 94
M  V30 98 1 28 95
M  V30 99 1 29 96
M  V30 100 1 32 97
M  V30 101 1 33 98
M  V30 102 1 33 99
M  V30 103 1 34 100
M  V30 104 1 35 101
M  V30 105 1 35 102
M  V30 106 1 35 103
M  V30 107 1 36 104
M  V30 108 1 36 105
M  V30 109 1 36 106
M  V30 110 1 37 107
M  V30 111 1 38 108
M  V30 112 1 38 109
M  V30 113 1 39 110
M  V30 114 1 39 111
M  V30 115 1 39 112
M  V30 116 1 40 113
M  V30 117 1 40 114
M  V30 118 1 40 115
M  V30 119 1 41 116
M  V30 120 1 41 117
M  V30 121 1 43 118
M  V30 122 1 44 119
M  V30 123 1 47 120
M  V30 124 1 48 121
M  V30 125 1 49 122
M  V30 126 1 50 123
M  V30 127 1 51 124
M  V30 128 1 51 125
M  V30 129 1 52 126
M  V30 130 1 52 127
M  V30 131 1 53 128
M  V30 132 1 53 129
M  V30 133 1 54 130
M  V30 134 1 56 131
M  V30 135 1 57 132
M  V30 136 1 57 133
M  V30 137 1 58 134
M  V30 138 1 61 135
M  V30 139 1 61 136
M  V30 140 1 62 137
M  V30 141 1 65 138
M  V30 142 1 66 139
M  V30 143 1 66 140
M  V30 144 1 67 141
M  V30 145 1 67 142
M  V30 146 1 70 143
M  V30 END BOND
M  V30 END CTAB
M  END
