
     RDKit          3D

  0  0  0  0  0  0  0  0  0  0999 V3000
M  V30 BEGIN CTAB
M  V30 COUNTS 22 22 0 0 0
M  V30 BEGIN ATOM
M  V30 1 C -2.54121 -0.0737364 -0.800649 0
M  V30 2 C -1.79139 0.109583 0.484397 0
M  V30 3 N -1.8708 -1.1165 1.2528 0
M  V30 4 C -0.333498 0.371569 0.262002 0
M  V30 5 C 0.536851 -0.626383 -0.124604 0
M  V30 6 C 1.88945 -0.359766 -0.325764 0
M  V30 7 N 2.69617 -1.44371 -0.719055 0
M  V30 8 C 2.40698 0.90616 -0.146797 0
M  V30 9 C 1.53079 1.8982 0.239634 0
M  V30 10 C 0.190613 1.63645 0.439477 0
M  V30 11 H -3.04048 0.896056 -1.08128 0
M  V30 12 H -1.88033 -0.429673 -1.6412 0
M  V30 13 H -3.34604 -0.831901 -0.668455 0
M  V30 14 H -2.2584 0.926982 1.0501 0
M  V30 15 H -1.50637 -1.04452 2.20533 0
M  V30 16 H -1.63426 -1.96111 0.725978 0
M  V30 17 H 0.116895 -1.614 -0.261107 0
M  V30 18 H 3.1769 -2.00547 -0.00667116 0
M  V30 19 H 2.80279 -1.67085 -1.7148 0
M  V30 20 H 3.4668 1.09899 -0.307952 0
M  V30 21 H 1.89594 2.91582 0.393274 0
M  V30 22 H -0.507382 2.41782 0.745347 0
M  V30 END ATOM
M  V30 BEGIN BOND
M  V30 1 1 1 2
M  V30 2 1 2 3
M  V30 3 1 2 4
M  V30 4 2 4 5
M  V30 5 1 5 6
M  V30 6 1 6 7
M  V30 7 2 6 8
M  V30 8 1 8 9
M  V30 9 2 9 10
M  V30 10 1 10 4
M  V30 11 1 1 11
M  V30 12 1 1 12
M  V30 13 1 1 13
M  V30 14 1 2 14
M  V30 15 1 3 15
M  V30 16 1 3 16
M  V30 17 1 5 17
M  V30 18 1 7 18
M  V30 19 1 7 19
M  V30 20 1 8 20
M  V30 21 1 9 21
M  V30 22 1 10 22
M  V30 END BOND
M  V30 END CTAB
M  END
