
     RDKit          3D

  0  0  0  0  0  0  0  0  0  0999 V3000
M  V30 BEGIN CTAB
M  V30 COUNTS 25 25 0 0 0
M  V30 BEGIN ATOM
M  V30 1 N -2.70608 -0.521118 0.370087 0
M  V30 2 C -1.35488 -0.301204 0.461097 0 CFG=1
M  V30 3 C -0.491926 -1.12163 -0.489376 0
M  V30 4 C 0.911099 -1.07519 0.107409 0 CFG=1
M  V30 5 N 1.84244 -1.84128 -0.671046 0
M  V30 6 C 1.40285 0.323584 0.260858 0 CFG=1
M  V30 7 O 1.84764 0.837207 -0.96235 0
M  V30 8 C 0.432088 1.26273 0.895422 0 CFG=1
M  V30 9 O 0.927362 2.55106 0.820233 0
M  V30 10 C -0.926734 1.15033 0.199535 0 CFG=1
M  V30 11 O -0.684608 1.36618 -1.15332 0
M  V30 12 H -3.22393 -0.525907 -0.429732 0
M  V30 13 H -3.16426 -0.725487 1.23014 0
M  V30 14 H -1.01132 -0.59493 1.49626 0
M  V30 15 H -0.827758 -2.15237 -0.588305 0
M  V30 16 H -0.438097 -0.650536 -1.4931 0
M  V30 17 H 0.791728 -1.49595 1.14911 0
M  V30 18 H 2.00943 -2.75897 -0.180475 0
M  V30 19 H 1.56618 -1.96663 -1.66084 0
M  V30 20 H 2.3039 0.279684 0.941819 0
M  V30 21 H 2.81991 0.680825 -1.05145 0
M  V30 22 H 0.268824 1.00709 1.95519 0
M  V30 23 H 0.849137 2.93742 -0.0911763 0
M  V30 24 H -1.65457 1.86591 0.578225 0
M  V30 25 H -1.48843 1.46918 -1.69421 0
M  V30 END ATOM
M  V30 BEGIN BOND
M  V30 1 1 1 2
M  V30 2 1 2 3
M  V30 3 1 3 4
M  V30 4 1 4 5
M  V30 5 1 4 6
M  V30 6 1 6 7
M  V30 7 1 6 8
M  V30 8 1 8 9
M  V30 9 1 8 10
M  V30 10 1 10 11
M  V30 11 1 10 2
M  V30 12 1 1 12
M  V30 13 1 1 13
M  V30 14 1 2 14 CFG=1
M  V30 15 1 3 15
M  V30 16 1 3 16
M  V30 17 1 4 17 CFG=1
M  V30 18 1 5 18
M  V30 19 1 5 19
M  V30 20 1 6 20 CFG=1
M  V30 21 1 7 21
M  V30 22 1 8 22 CFG=1
M  V30 23 1 9 23
M  V30 24 1 10 24 CFG=1
M  V30 25 1 11 25
M  V30 END BOND
M  V30 END CTAB
M  END
