
     RDKit          3D

  0  0  0  0  0  0  0  0  0  0999 V3000
M  V30 BEGIN CTAB
M  V30 COUNTS 37 39 0 0 0
M  V30 BEGIN ATOM
M  V30 1 N 3.90308 -1.5489 0.883125 0
M  V30 2 C 3.09749 -0.785399 -0.01564 0
M  V30 3 C 3.60991 -0.401904 -1.23779 0
M  V30 4 C 2.85956 0.340567 -2.13954 0
M  V30 5 C 1.58808 0.677981 -1.76734 0
M  V30 6 C 1.06109 0.302555 -0.549598 0
M  V30 7 N 1.84365 -0.416992 0.277777 0
M  V30 8 C -0.340269 0.67498 -0.140607 0 CFG=1
M  V30 9 C -1.29519 -0.387634 -0.481296 0
M  V30 10 C -1.79681 -0.562766 -1.77213 0
M  V30 11 C -2.69323 -1.5689 -2.06663 0
M  V30 12 C -3.12846 -2.44113 -1.0956 0
M  V30 13 C -2.62754 -2.26375 0.186191 0
M  V30 14 C -1.7331 -1.25924 0.478292 0
M  V30 15 C -1.20967 -1.08581 1.85232 0
M  V30 16 C -0.842492 0.301366 2.20207 0
M  V30 17 N -0.408649 1.15139 1.19002 0
M  V30 18 S -0.960769 2.77824 1.31004 0
M  V30 19 O -2.35356 2.93569 0.777071 0
M  V30 20 O -0.953142 3.18205 2.76594 0
M  V30 21 N 0.163008 3.77801 0.470637 0
M  V30 22 H 4.6625 -1.04986 1.39288 0
M  V30 23 H 3.76119 -2.56514 1.0435 0
M  V30 24 H 4.63721 -0.708055 -1.46929 0
M  V30 25 H 3.28335 0.63645 -3.10635 0
M  V30 26 H 0.985251 1.25587 -2.45339 0
M  V30 27 H -0.608329 1.54728 -0.807777 0
M  V30 28 H -1.46208 0.110954 -2.52736 0
M  V30 29 H -3.07614 -1.69671 -3.06901 0
M  V30 30 H -3.82817 -3.22871 -1.31893 0
M  V30 31 H -2.97288 -2.95558 0.9559 0
M  V30 32 H -1.98864 -1.50507 2.54036 0
M  V30 33 H -0.32506 -1.77086 1.95131 0
M  V30 34 H -0.0556395 0.254957 3.01143 0
M  V30 35 H -1.72749 0.768715 2.72703 0
M  V30 36 H -0.186025 4.09871 -0.456532 0
M  V30 37 H 1.11798 3.40665 0.458922 0
M  V30 END ATOM
M  V30 BEGIN BOND
M  V30 1 1 1 2
M  V30 2 2 2 3
M  V30 3 1 3 4
M  V30 4 2 4 5
M  V30 5 1 5 6
M  V30 6 2 6 7
M  V30 7 1 6 8
M  V30 8 1 8 9
M  V30 9 2 9 10
M  V30 10 1 10 11
M  V30 11 2 11 12
M  V30 12 1 12 13
M  V30 13 2 13 14
M  V30 14 1 14 15
M  V30 15 1 15 16
M  V30 16 1 16 17
M  V30 17 1 17 18
M  V30 18 2 18 19
M  V30 19 2 18 20
M  V30 20 1 18 21
M  V30 21 1 7 2
M  V30 22 1 17 8
M  V30 23 1 14 9
M  V30 24 1 1 22
M  V30 25 1 1 23
M  V30 26 1 3 24
M  V30 27 1 4 25
M  V30 28 1 5 26
M  V30 29 1 8 27 CFG=3
M  V30 30 1 10 28
M  V30 31 1 11 29
M  V30 32 1 12 30
M  V30 33 1 13 31
M  V30 34 1 15 32
M  V30 35 1 15 33
M  V30 36 1 16 34
M  V30 37 1 16 35
M  V30 38 1 21 36
M  V30 39 1 21 37
M  V30 END BOND
M  V30 END CTAB
M  END
