
     RDKit          3D

  0  0  0  0  0  0  0  0  0  0999 V3000
M  V30 BEGIN CTAB
M  V30 COUNTS 41 42 0 0 0
M  V30 BEGIN ATOM
M  V30 1 C 7.6645 -0.0670243 1.29305 0
M  V30 2 S 7.18472 -0.0543712 -0.460381 0
M  V30 3 C 5.38755 0.128381 -0.494688 0
M  V30 4 N 4.57241 -0.936324 -0.477306 0
M  V30 5 C 3.22207 -0.827953 -0.502243 0
M  V30 6 C 2.70073 0.448031 -0.5473 0
M  V30 7 C 1.30288 0.547284 -0.572619 0
M  V30 8 C 0.48662 -0.560086 -0.553927 0
M  V30 9 C -0.958862 -0.459574 -0.579722 0
M  V30 10 O -1.62728 -1.51826 -0.559673 0
M  V30 11 N -1.62165 0.774053 -0.625863 0
M  V30 12 C -3.05454 0.918602 -0.644869 0
M  V30 13 C -3.65057 0.365927 0.593807 0
M  V30 14 N -5.0967 0.49099 0.638286 0
M  V30 15 C -5.65967 -0.0452515 1.83666 0
M  V30 16 C -5.74358 0.0790985 -0.566111 0
M  V30 17 C 1.06698 -1.81713 -0.508494 0
M  V30 18 N 0.240261 -2.99126 -0.488175 0
M  V30 19 N 2.40535 -1.89614 -0.484701 0
M  V30 20 C 3.50738 1.57006 -0.56648 0
M  V30 21 N 2.92491 2.86707 -0.61325 0
M  V30 22 N 4.83367 1.35712 -0.538929 0
M  V30 23 H 6.88081 -0.55666 1.90338 0
M  V30 24 H 8.6144 -0.600389 1.46541 0
M  V30 25 H 7.84365 0.986439 1.65347 0
M  V30 26 H 0.932565 1.55219 -0.607391 0
M  V30 27 H -1.03972 1.65474 -0.648294 0
M  V30 28 H -3.3541 1.98326 -0.767019 0
M  V30 29 H -3.39248 0.378442 -1.57295 0
M  V30 30 H -3.41067 -0.68107 0.7425 0
M  V30 31 H -3.27779 1.00922 1.44496 0
M  V30 32 H -4.81878 -0.476995 2.43619 0
M  V30 33 H -6.16566 0.696662 2.46973 0
M  V30 34 H -6.30561 -0.900534 1.56348 0
M  V30 35 H -6.08565 0.924565 -1.19681 0
M  V30 36 H -5.11028 -0.638482 -1.11728 0
M  V30 37 H -6.67057 -0.477861 -0.284367 0
M  V30 38 H 0.0774183 -3.43941 0.439315 0
M  V30 39 H -0.196418 -3.4145 -1.31598 0
M  V30 40 H 2.93952 3.48587 -1.44593 0
M  V30 41 H 2.45217 3.20762 0.260524 0
M  V30 END ATOM
M  V30 BEGIN BOND
M  V30 1 1 1 2
M  V30 2 1 2 3
M  V30 3 2 3 4
M  V30 4 1 4 5
M  V30 5 2 5 6
M  V30 6 1 6 7
M  V30 7 2 7 8
M  V30 8 1 8 9
M  V30 9 2 9 10
M  V30 10 1 9 11
M  V30 11 1 11 12
M  V30 12 1 12 13
M  V30 13 1 13 14
M  V30 14 1 14 15
M  V30 15 1 14 16
M  V30 16 1 8 17
M  V30 17 1 17 18
M  V30 18 2 17 19
M  V30 19 1 6 20
M  V30 20 1 20 21
M  V30 21 2 20 22
M  V30 22 1 22 3
M  V30 23 1 19 5
M  V30 24 1 1 23
M  V30 25 1 1 24
M  V30 26 1 1 25
M  V30 27 1 7 26
M  V30 28 1 11 27
M  V30 29 1 12 28
M  V30 30 1 12 29
M  V30 31 1 13 30
M  V30 32 1 13 31
M  V30 33 1 15 32
M  V30 34 1 15 33
M  V30 35 1 15 34
M  V30 36 1 16 35
M  V30 37 1 16 36
M  V30 38 1 16 37
M  V30 39 1 18 38
M  V30 40 1 18 39
M  V30 41 1 21 40
M  V30 42 1 21 41
M  V30 END BOND
M  V30 END CTAB
M  END
