
     RDKit          3D

  0  0  0  0  0  0  0  0  0  0999 V3000
M  V30 BEGIN CTAB
M  V30 COUNTS 101 100 0 0 0
M  V30 BEGIN ATOM
M  V30 1 C -3.52993 -4.656 -2.23331 0
M  V30 2 C -3.90664 -4.40706 -0.820883 0
M  V30 3 C -4.50547 -3.04592 -0.539779 0 CFG=2
M  V30 4 C -5.76262 -2.81377 -1.31556 0
M  V30 5 C -3.49058 -1.95249 -0.610464 0 CFG=2
M  V30 6 N -2.41196 -2.18443 0.374273 0
M  V30 7 C -1.08567 -2.02737 0.038641 0
M  V30 8 O -0.832121 -1.67792 -1.17353 0
M  V30 9 C 0.10885 -2.18984 0.861491 0 CFG=1
M  V30 10 N 1.111 -1.2422 0.419028 0
M  V30 11 C 2.49226 -1.49375 0.259424 0
M  V30 12 O 2.92334 -2.6309 0.52498 0
M  V30 13 C 3.43785 -0.451493 -0.201201 0 CFG=2
M  V30 14 C 3.35805 -0.0905815 -1.63999 0
M  V30 15 C 3.63652 -1.13298 -2.65068 0
M  V30 16 C 2.77226 -2.34174 -2.68163 0
M  V30 17 C 3.56624 -0.476844 -4.04769 0
M  V30 18 N 4.79781 -0.88537 0.152578 0
M  V30 19 C 5.52757 -0.183531 1.16617 0
M  V30 20 O 4.91807 0.804523 1.71844 0
M  V30 21 C 6.87371 -0.478289 1.62603 0 CFG=1
M  V30 22 N 7.43331 -1.66269 0.966729 0
M  V30 23 C 7.86958 0.632379 1.4323 0
M  V30 24 C 7.50285 1.89779 2.13899 0
M  V30 25 C 8.58289 2.96092 1.99816 0
M  V30 26 N 8.86945 3.30403 0.638821 0
M  V30 27 C 7.98625 3.98793 -0.213942 0
M  V30 28 N 8.32899 4.23331 -1.59367 0
M  V30 29 N 6.85059 4.42811 0.190514 0
M  V30 30 C -0.0436929 -2.08869 2.34224 0
M  V30 31 C -0.589223 -0.791715 2.83338 0
M  V30 32 C -0.796609 -3.23573 2.92662 0
M  V30 33 C -4.01286 -0.589581 -0.330053 0
M  V30 34 O -3.50255 0.0187575 0.691919 0
M  V30 35 N -4.97913 0.128005 -1.02267 0
M  V30 36 C -5.35823 1.46236 -0.61526 0 CFG=1
M  V30 37 C -4.9394 2.48934 -1.65851 0
M  V30 38 C -6.74144 1.62369 -0.167563 0
M  V30 39 O -7.52634 0.660775 -0.153306 0
M  V30 40 N -7.18884 2.89383 0.256278 0
M  V30 41 C -8.53663 3.17636 0.722294 0 CFG=1
M  V30 42 C -8.55185 3.60229 2.18486 0
M  V30 43 O -7.76885 4.75667 2.27527 0
M  V30 44 C -9.17327 4.23429 -0.104546 0
M  V30 45 O -10.4454 4.64458 0.204977 0
M  V30 46 O -8.54177 4.72677 -1.0545 0
M  V30 47 H -2.77316 -5.49638 -2.22147 0
M  V30 48 H -4.33008 -5.00899 -2.90098 0
M  V30 49 H -2.95498 -3.78918 -2.65852 0
M  V30 50 H -2.95726 -4.46883 -0.215486 0
M  V30 51 H -4.55768 -5.23084 -0.447794 0
M  V30 52 H -4.83507 -3.09336 0.545166 0
M  V30 53 H -6.30792 -3.8053 -1.30502 0
M  V30 54 H -5.63708 -2.57953 -2.37237 0
M  V30 55 H -6.42762 -2.13661 -0.758004 0
M  V30 56 H -3.07083 -1.90264 -1.63389 0
M  V30 57 H -2.72377 -2.4609 1.31255 0
M  V30 58 H 0.528923 -3.19874 0.67571 0
M  V30 59 H 0.797571 -0.255098 0.185096 0
M  V30 60 H 3.23365 0.483356 0.391917 0
M  V30 61 H 4.03191 0.785382 -1.88937 0
M  V30 62 H 2.33057 0.329302 -1.89089 0
M  V30 63 H 4.6987 -1.50315 -2.5981 0
M  V30 64 H 2.5864 -2.60703 -3.77608 0
M  V30 65 H 3.26539 -3.2471 -2.25659 0
M  V30 66 H 1.78161 -2.12913 -2.29015 0
M  V30 67 H 2.5685 -0.73821 -4.45378 0
M  V30 68 H 4.30657 -0.928569 -4.72436 0
M  V30 69 H 3.6454 0.626457 -3.97107 0
M  V30 70 H 5.22944 -1.68613 -0.309157 0
M  V30 71 H 6.91656 -0.723296 2.72052 0
M  V30 72 H 7.02193 -2.537 1.32759 0
M  V30 73 H 8.47161 -1.72502 1.12242 0
M  V30 74 H 8.87366 0.274063 1.80318 0
M  V30 75 H 8.04547 0.816897 0.345566 0
M  V30 76 H 6.61651 2.3306 1.61634 0
M  V30 77 H 7.27951 1.72368 3.20417 0
M  V30 78 H 8.19628 3.89869 2.49058 0
M  V30 79 H 9.4925 2.65988 2.54309 0
M  V30 80 H 9.81584 3.03091 0.219818 0
M  V30 81 H 9.01786 3.61883 -2.06487 0
M  V30 82 H 7.89522 5.02173 -2.12378 0
M  V30 83 H 6.21446 4.92731 -0.446979 0
M  V30 84 H 1.01071 -2.13665 2.75117 0
M  V30 85 H -1.69258 -0.827942 2.91564 0
M  V30 86 H -0.21275 -0.613471 3.85912 0
M  V30 87 H -0.234726 0.0755741 2.22801 0
M  V30 88 H -1.69927 -2.92837 3.49739 0
M  V30 89 H -1.04361 -3.94943 2.0838 0
M  V30 90 H -0.0969857 -3.83879 3.57453 0
M  V30 91 H -5.44696 -0.264701 -1.85273 0
M  V30 92 H -4.72783 1.75362 0.295057 0
M  V30 93 H -5.4123 2.3478 -2.63 0
M  V30 94 H -3.82709 2.467 -1.65411 0
M  V30 95 H -5.20977 3.49071 -1.27443 0
M  V30 96 H -6.53672 3.71477 0.253808 0
M  V30 97 H -9.09868 2.21378 0.67007 0
M  V30 98 H -8.21321 2.78212 2.83151 0
M  V30 99 H -9.61816 3.88315 2.39281 0
M  V30 100 H -8.06694 5.24684 3.0874 0
M  V30 101 H -10.8861 5.37211 -0.339712 0
M  V30 END ATOM
M  V30 BEGIN BOND
M  V30 1 1 1 2
M  V30 2 1 2 3
M  V30 3 1 3 4
M  V30 4 1 3 5
M  V30 5 1 5 6
M  V30 6 1 6 7
M  V30 7 2 7 8
M  V30 8 1 7 9
M  V30 9 1 9 10
M  V30 10 1 10 11
M  V30 11 2 11 12
M  V30 12 1 11 13
M  V30 13 1 13 14
M  V30 14 1 14 15
M  V30 15 1 15 16
M  V30 16 1 15 17
M  V30 17 1 13 18
M  V30 18 1 18 19
M  V30 19 2 19 20
M  V30 20 1 19 21
M  V30 21 1 21 22
M  V30 22 1 21 23
M  V30 23 1 23 24
M  V30 24 1 24 25
M  V30 25 1 25 26
M  V30 26 1 26 27
M  V30 27 1 27 28
M  V30 28 2 27 29 CFG=2
M  V30 29 1 9 30
M  V30 30 1 30 31
M  V30 31 1 30 32
M  V30 32 1 5 33
M  V30 33 2 33 34
M  V30 34 1 33 35
M  V30 35 1 35 36
M  V30 36 1 36 37
M  V30 37 1 36 38
M  V30 38 2 38 39
M  V30 39 1 38 40
M  V30 40 1 40 41
M  V30 41 1 41 42
M  V30 42 1 42 43
M  V30 43 1 41 44
M  V30 44 1 44 45
M  V30 45 2 44 46
M  V30 46 1 1 47
M  V30 47 1 1 48
M  V30 48 1 1 49
M  V30 49 1 2 50
M  V30 50 1 2 51
M  V30 51 1 3 52 CFG=1
M  V30 52 1 4 53
M  V30 53 1 4 54
M  V30 54 1 4 55
M  V30 55 1 5 56 CFG=3
M  V30 56 1 6 57
M  V30 57 1 9 58 CFG=1
M  V30 58 1 10 59
M  V30 59 1 13 60 CFG=1
M  V30 60 1 14 61
M  V30 61 1 14 62
M  V30 62 1 15 63
M  V30 63 1 16 64
M  V30 64 1 16 65
M  V30 65 1 16 66
M  V30 66 1 17 67
M  V30 67 1 17 68
M  V30 68 1 17 69
M  V30 69 1 18 70
M  V30 70 1 21 71 CFG=1
M  V30 71 1 22 72
M  V30 72 1 22 73
M  V30 73 1 23 74
M  V30 74 1 23 75
M  V30 75 1 24 76
M  V30 76 1 24 77
M  V30 77 1 25 78
M  V30 78 1 25 79
M  V30 79 1 26 80
M  V30 80 1 28 81
M  V30 81 1 28 82
M  V30 82 1 29 83
M  V30 83 1 30 84
M  V30 84 1 31 85
M  V30 85 1 31 86
M  V30 86 1 31 87
M  V30 87 1 32 88
M  V30 88 1 32 89
M  V30 89 1 32 90
M  V30 90 1 35 91
M  V30 91 1 36 92 CFG=1
M  V30 92 1 37 93
M  V30 93 1 37 94
M  V30 94 1 37 95
M  V30 95 1 40 96
M  V30 96 1 41 97 CFG=1
M  V30 97 1 42 98
M  V30 98 1 42 99
M  V30 99 1 43 100
M  V30 100 1 45 101
M  V30 END BOND
M  V30 END CTAB
M  END
