
     RDKit          3D

  0  0  0  0  0  0  0  0  0  0999 V3000
M  V30 BEGIN CTAB
M  V30 COUNTS 35 37 0 0 0
M  V30 BEGIN ATOM
M  V30 1 C -3.43709 2.80155 1.40327 0
M  V30 2 S -3.24104 1.07355 1.87351 0
M  V30 3 C -2.76516 0.0557957 0.460841 0
M  V30 4 C -3.75631 -0.510105 -0.309349 0
M  V30 5 C -5.1332 -0.258366 0.0551972 0
M  V30 6 N -6.23536 -0.0558139 0.350468 0
M  V30 7 C -3.5273 -1.30418 -1.40974 0
M  V30 8 N -4.62879 -1.82982 -2.12276 0
M  V30 9 N -2.23559 -1.50666 -1.70535 0
M  V30 10 C -1.23447 -0.961628 -0.964211 0
M  V30 11 C -1.41704 -0.168566 0.134293 0
M  V30 12 C -0.326895 0.29093 0.755885 0
M  V30 13 N -0.355372 1.14456 1.93751 0
M  V30 14 C 0.902051 -0.0605092 0.254717 0
M  V30 15 S 0.458132 -1.04188 -1.09623 0
M  V30 16 C 2.22655 0.320672 0.722475 0
M  V30 17 O 2.31056 1.09529 1.70297 0
M  V30 18 C 3.45959 -0.139927 0.119549 0
M  V30 19 C 4.58366 0.694321 0.130068 0
M  V30 20 C 5.74645 0.260791 -0.410146 0
M  V30 21 C 5.84034 -1.00803 -0.978154 0
M  V30 22 C 4.75458 -1.83723 -0.997848 0
M  V30 23 C 3.56658 -1.38643 -0.442148 0
M  V30 24 F 4.86936 -3.06313 -1.55413 0
M  V30 25 F 7.02252 -1.40296 -1.50829 0
M  V30 26 H -2.50374 3.37444 1.41821 0
M  V30 27 H -4.10395 3.27107 2.18392 0
M  V30 28 H -3.87594 2.90221 0.387549 0
M  V30 29 H -5.0716 -2.74539 -1.83799 0
M  V30 30 H -5.02259 -1.32103 -2.94303 0
M  V30 31 H -0.62549 0.71091 2.83303 0
M  V30 32 H -0.112419 2.14606 1.87167 0
M  V30 33 H 4.46653 1.65957 0.576128 0
M  V30 34 H 6.65961 0.876613 -0.427825 0
M  V30 35 H 2.74283 -2.07667 -0.464042 0
M  V30 END ATOM
M  V30 BEGIN BOND
M  V30 1 1 1 2
M  V30 2 1 2 3
M  V30 3 2 3 4
M  V30 4 1 4 5
M  V30 5 3 5 6
M  V30 6 1 4 7
M  V30 7 1 7 8
M  V30 8 2 7 9
M  V30 9 1 9 10
M  V30 10 2 10 11
M  V30 11 1 11 12
M  V30 12 1 12 13
M  V30 13 2 12 14
M  V30 14 1 14 15
M  V30 15 1 14 16
M  V30 16 2 16 17
M  V30 17 1 16 18
M  V30 18 2 18 19
M  V30 19 1 19 20
M  V30 20 2 20 21
M  V30 21 1 21 22
M  V30 22 2 22 23
M  V30 23 1 22 24
M  V30 24 1 21 25
M  V30 25 1 11 3
M  V30 26 1 23 18
M  V30 27 1 15 10
M  V30 28 1 1 26
M  V30 29 1 1 27
M  V30 30 1 1 28
M  V30 31 1 8 29
M  V30 32 1 8 30
M  V30 33 1 13 31
M  V30 34 1 13 32
M  V30 35 1 19 33
M  V30 36 1 20 34
M  V30 37 1 23 35
M  V30 END BOND
M  V30 END CTAB
M  END
