
     RDKit          3D

  0  0  0  0  0  0  0  0  0  0999 V3000
M  V30 BEGIN CTAB
M  V30 COUNTS 32 33 0 0 0
M  V30 BEGIN ATOM
M  V30 1 N 0.283361 -0.877068 1.76719 0
M  V30 2 C 0.474793 -0.706188 0.388002 0 CFG=1
M  V30 3 C -0.373218 0.406888 -0.172722 0 CFG=1
M  V30 4 N -0.0730179 0.471934 -1.61175 0
M  V30 5 C -1.81189 0.214465 0.0350744 0
M  V30 6 C -2.55387 -0.694582 -0.687442 0
M  V30 7 C -3.91363 -0.86506 -0.479338 0
M  V30 8 C -4.57973 -0.125812 0.465578 0
M  V30 9 F -5.91857 -0.270805 0.69391 0
M  V30 10 C -3.85252 0.788573 1.19773 0
M  V30 11 C -2.49418 0.950426 0.981186 0
M  V30 12 C 1.9001 -0.30375 0.183763 0
M  V30 13 C 2.6893 -0.855306 -0.790899 0
M  V30 14 C 3.9999 -0.450074 -0.939588 0
M  V30 15 C 4.53935 0.523384 -0.103332 0
M  V30 16 F 5.82668 0.920558 -0.250339 0
M  V30 17 C 3.75598 1.08675 0.881804 0
M  V30 18 C 2.44698 0.65954 1.00531 0
M  V30 19 H -0.0939128 -1.71678 2.09104 0
M  V30 20 H 0.269682 -0.0552661 2.29083 0
M  V30 21 H 0.267371 -1.6809 -0.10095 0
M  V30 22 H 0.00453348 1.35945 0.249786 0
M  V30 23 H -0.0183257 -0.507112 -1.98037 0
M  V30 24 H -0.782555 1.05902 -2.07979 0
M  V30 25 H -2.08807 -1.3063 -1.44532 0
M  V30 26 H -4.49295 -1.58217 -1.05101 0
M  V30 27 H -4.38721 1.3655 1.93938 0
M  V30 28 H -1.98792 1.67805 1.58418 0
M  V30 29 H 2.27006 -1.60575 -1.43403 0
M  V30 30 H 4.646 -0.858012 -1.68899 0
M  V30 31 H 4.18398 1.85163 1.53699 0
M  V30 32 H 1.86347 1.12477 1.78983 0
M  V30 END ATOM
M  V30 BEGIN BOND
M  V30 1 1 1 2
M  V30 2 1 2 3
M  V30 3 1 3 4
M  V30 4 1 3 5
M  V30 5 2 5 6
M  V30 6 1 6 7
M  V30 7 2 7 8
M  V30 8 1 8 9
M  V30 9 1 8 10
M  V30 10 2 10 11
M  V30 11 1 2 12
M  V30 12 2 12 13
M  V30 13 1 13 14
M  V30 14 2 14 15
M  V30 15 1 15 16
M  V30 16 1 15 17
M  V30 17 2 17 18
M  V30 18 1 11 5
M  V30 19 1 18 12
M  V30 20 1 1 19
M  V30 21 1 1 20
M  V30 22 1 2 21 CFG=3
M  V30 23 1 3 22 CFG=1
M  V30 24 1 4 23
M  V30 25 1 4 24
M  V30 26 1 6 25
M  V30 27 1 7 26
M  V30 28 1 10 27
M  V30 29 1 11 28
M  V30 30 1 13 29
M  V30 31 1 14 30
M  V30 32 1 17 31
M  V30 33 1 18 32
M  V30 END BOND
M  V30 END CTAB
M  END
