
     RDKit          3D

  0  0  0  0  0  0  0  0  0  0999 V3000
M  V30 BEGIN CTAB
M  V30 COUNTS 42 44 0 0 0
M  V30 BEGIN ATOM
M  V30 1 N -4.25961 -2.05993 0.846707 0
M  V30 2 C -3.47758 -0.953134 0.427207 0
M  V30 3 C -2.01952 -1.28522 0.615457 0
M  V30 4 C -1.10766 -0.150664 0.189441 0
M  V30 5 C -1.34433 1.1107 0.954632 0
M  V30 6 C -0.357395 2.14245 0.500171 0
M  V30 7 C -0.442443 2.401 -0.98853 0
M  V30 8 C -0.138647 1.09267 -1.68344 0
M  V30 9 C -1.20171 0.10456 -1.2969 0
M  V30 10 C 1.2482 0.603375 -1.37101 0
M  V30 11 C 1.34416 0.363691 0.143265 0
M  V30 12 C 2.69101 -0.122774 0.502102 0
M  V30 13 C 3.11654 -1.40232 -0.132414 0
M  V30 14 N 4.45292 -1.773 0.298038 0
M  V30 15 C 1.06502 1.70338 0.790129 0
M  V30 16 C 0.294859 -0.654658 0.467637 0
M  V30 17 H -3.79152 -2.94586 0.99133 0
M  V30 18 H -5.24833 -2.04226 0.658858 0
M  V30 19 H -3.70401 -0.013775 0.963164 0
M  V30 20 H -3.6391 -0.799294 -0.661816 0
M  V30 21 H -1.81 -1.46604 1.69901 0
M  V30 22 H -1.70023 -2.17791 0.0792041 0
M  V30 23 H -1.19836 0.949569 2.03103 0
M  V30 24 H -2.36555 1.50825 0.73386 0
M  V30 25 H -0.526377 3.07662 1.09791 0
M  V30 26 H 0.329817 3.15648 -1.24108 0
M  V30 27 H -1.4418 2.72917 -1.31491 0
M  V30 28 H -0.196358 1.28982 -2.77146 0
M  V30 29 H -2.1802 0.545082 -1.55447 0
M  V30 30 H -1.03248 -0.841581 -1.82359 0
M  V30 31 H 1.96047 1.35367 -1.71626 0
M  V30 32 H 1.37014 -0.389639 -1.84396 0
M  V30 33 H 2.75823 -0.233475 1.60333 0
M  V30 34 H 3.44377 0.663903 0.22955 0
M  V30 35 H 3.11078 -1.41304 -1.21822 0
M  V30 36 H 2.43313 -2.23613 0.197986 0
M  V30 37 H 5.09395 -0.981616 0.400979 0
M  V30 38 H 4.77296 -2.52213 -0.355051 0
M  V30 39 H 1.72931 2.46802 0.347092 0
M  V30 40 H 1.22545 1.68266 1.88064 0
M  V30 41 H 0.439882 -1.52394 -0.212749 0
M  V30 42 H 0.302597 -0.956692 1.53714 0
M  V30 END ATOM
M  V30 BEGIN BOND
M  V30 1 1 1 2
M  V30 2 1 2 3
M  V30 3 1 3 4
M  V30 4 1 4 5
M  V30 5 1 5 6
M  V30 6 1 6 7
M  V30 7 1 7 8
M  V30 8 1 8 9
M  V30 9 1 8 10
M  V30 10 1 10 11
M  V30 11 1 11 12
M  V30 12 1 12 13
M  V30 13 1 13 14
M  V30 14 1 11 15
M  V30 15 1 11 16
M  V30 16 1 9 4
M  V30 17 1 16 4
M  V30 18 1 15 6
M  V30 19 1 1 17
M  V30 20 1 1 18
M  V30 21 1 2 19
M  V30 22 1 2 20
M  V30 23 1 3 21
M  V30 24 1 3 22
M  V30 25 1 5 23
M  V30 26 1 5 24
M  V30 27 1 6 25
M  V30 28 1 7 26
M  V30 29 1 7 27
M  V30 30 1 8 28
M  V30 31 1 9 29
M  V30 32 1 9 30
M  V30 33 1 10 31
M  V30 34 1 10 32
M  V30 35 1 12 33
M  V30 36 1 12 34
M  V30 37 1 13 35
M  V30 38 1 13 36
M  V30 39 1 14 37
M  V30 40 1 14 38
M  V30 41 1 15 39
M  V30 42 1 15 40
M  V30 43 1 16 41
M  V30 44 1 16 42
M  V30 END BOND
M  V30 END CTAB
M  END
