
     RDKit          3D

  0  0  0  0  0  0  0  0  0  0999 V3000
M  V30 BEGIN CTAB
M  V30 COUNTS 29 30 0 0 0
M  V30 BEGIN ATOM
M  V30 1 N 4.9035 0.576586 -0.0238224 0
M  V30 2 C 3.50961 0.49291 0.339291 0
M  V30 3 N 3.22465 0.615063 1.57705 0
M  V30 4 C 1.88393 0.546802 2.02706 0
M  V30 5 O 1.59995 0.66978 3.26727 0
M  V30 6 C 0.813599 0.329863 1.03256 0
M  V30 7 C -0.427372 0.224151 1.4285 0
M  V30 8 C -1.60997 0.0236305 0.648267 0
M  V30 9 C -2.29628 -1.16749 0.715789 0
M  V30 10 O -1.7441 -2.19645 1.4583 0
M  V30 11 C -3.51613 -1.34108 0.0564632 0
M  V30 12 C -4.06554 -0.321848 -0.68048 0
M  V30 13 C -3.38343 0.871228 -0.751201 0
M  V30 14 C -2.17311 1.02538 -0.0897589 0
M  V30 15 C 1.18153 0.197443 -0.336656 0
M  V30 16 N 0.269771 -0.0540785 -1.37572 0
M  V30 17 C 2.49316 0.278311 -0.668419 0
M  V30 18 C 2.85667 0.144905 -2.05764 0
M  V30 19 N 3.13352 0.0227875 -3.15921 0
M  V30 20 H 5.13293 0.789201 -1.0063 0
M  V30 21 H 5.64267 0.430794 0.66557 0
M  V30 22 H -0.536981 0.307993 2.55157 0
M  V30 23 H -2.2344 -3.08633 1.52171 0
M  V30 24 H -4.04276 -2.28625 0.1207 0
M  V30 25 H -5.0302 -0.45121 -1.20483 0
M  V30 26 H -3.83242 1.66201 -1.33644 0
M  V30 27 H -1.64903 1.96789 -0.152768 0
M  V30 28 H -0.190469 -0.961764 -1.46139 0
M  V30 29 H 0.0867161 0.689761 -2.06949 0
M  V30 END ATOM
M  V30 BEGIN BOND
M  V30 1 1 1 2
M  V30 2 2 2 3
M  V30 3 1 3 4
M  V30 4 2 4 5
M  V30 5 1 4 6
M  V30 6 2 6 7
M  V30 7 1 7 8
M  V30 8 2 8 9
M  V30 9 1 9 10
M  V30 10 1 9 11
M  V30 11 2 11 12
M  V30 12 1 12 13
M  V30 13 2 13 14
M  V30 14 1 6 15
M  V30 15 1 15 16
M  V30 16 2 15 17
M  V30 17 1 17 18
M  V30 18 3 18 19
M  V30 19 1 17 2
M  V30 20 1 14 8
M  V30 21 1 1 20
M  V30 22 1 1 21
M  V30 23 1 7 22
M  V30 24 1 10 23
M  V30 25 1 11 24
M  V30 26 1 12 25
M  V30 27 1 13 26
M  V30 28 1 14 27
M  V30 29 1 16 28
M  V30 30 1 16 29
M  V30 END BOND
M  V30 END CTAB
M  END
