
     RDKit          3D

  0  0  0  0  0  0  0  0  0  0999 V3000
M  V30 BEGIN CTAB
M  V30 COUNTS 56 60 0 0 0
M  V30 BEGIN ATOM
M  V30 1 C -5.92772 2.56771 -0.537317 0
M  V30 2 C -6.15729 1.08857 -0.183929 0
M  V30 3 C -7.59994 1.03005 0.298214 0
M  V30 4 N -6.0964 0.365702 -1.40932 0
M  V30 5 C -5.20817 0.703991 0.861581 0
M  V30 6 O -5.28761 1.42932 1.93077 0
M  V30 7 N -4.2539 -0.316387 0.854725 0
M  V30 8 C -4.10526 -1.17813 -0.288306 0
M  V30 9 C -3.09097 -2.27307 0.0797746 0
M  V30 10 N -1.88929 -1.61857 0.456001 0
M  V30 11 C -1.96329 -0.70421 1.59023 0
M  V30 12 C -3.39948 -0.501651 2.01671 0
M  V30 13 C -0.666262 -1.8147 -0.202311 0
M  V30 14 C -0.57024 -2.72306 -1.22375 0
M  V30 15 N 0.643398 -2.8641 -1.82092 0
M  V30 16 C 1.7068 -2.14005 -1.42378 0
M  V30 17 C 2.9422 -2.30458 -2.05407 0
M  V30 18 C 4.02006 -1.55263 -1.63178 0
M  V30 19 C 3.9124 -0.640014 -0.601643 0
M  V30 20 N 2.70315 -0.526668 -0.0363552 0
M  V30 21 C 1.623 -1.22407 -0.398539 0
M  V30 22 N 0.426531 -1.08689 0.18816 0
M  V30 23 C 5.03231 0.162602 -0.14232 0
M  V30 24 C 6.29424 0.105087 -0.66245 0
M  V30 25 C 7.34222 0.88944 -0.198717 0
M  V30 26 C 7.12047 1.76735 0.826827 0
M  V30 27 O 8.25848 2.37705 1.06968 0
M  V30 28 C 9.2051 1.9557 0.272211 0
M  V30 29 N 10.5781 2.39162 0.242591 0
M  V30 30 N 8.64478 1.02574 -0.525132 0
M  V30 31 C 5.85232 1.84569 1.37168 0
M  V30 32 C 4.82114 1.05648 0.896622 0
M  V30 33 H -6.34127 3.20175 0.281642 0
M  V30 34 H -6.50763 2.78545 -1.45486 0
M  V30 35 H -4.8756 2.76978 -0.764259 0
M  V30 36 H -7.73341 1.58758 1.24189 0
M  V30 37 H -8.22243 1.4405 -0.52166 0
M  V30 38 H -7.93672 -0.0111953 0.453948 0
M  V30 39 H -5.73116 0.917604 -2.19175 0
M  V30 40 H -6.94343 -0.194446 -1.62278 0
M  V30 41 H -5.02587 -1.7537 -0.540828 0
M  V30 42 H -3.73799 -0.57332 -1.1258 0
M  V30 43 H -3.50522 -2.73588 1.03336 0
M  V30 44 H -3.05109 -2.98981 -0.729333 0
M  V30 45 H -1.42687 -1.18959 2.42933 0
M  V30 46 H -1.43783 0.232843 1.35362 0
M  V30 47 H -3.75967 -1.32524 2.65779 0
M  V30 48 H -3.43393 0.425681 2.62052 0
M  V30 49 H -1.3685 -3.34333 -1.60378 0
M  V30 50 H 2.99266 -3.02648 -2.85633 0
M  V30 51 H 4.96407 -1.70529 -2.14258 0
M  V30 52 H 6.49856 -0.570614 -1.46364 0
M  V30 53 H 11.0774 2.49065 1.13152 0
M  V30 54 H 11.0597 2.60299 -0.65536 0
M  V30 55 H 5.70086 2.53729 2.17064 0
M  V30 56 H 3.8345 1.13345 1.33784 0
M  V30 END ATOM
M  V30 BEGIN BOND
M  V30 1 1 1 2
M  V30 2 1 2 3
M  V30 3 1 2 4
M  V30 4 1 2 5
M  V30 5 2 5 6
M  V30 6 1 5 7
M  V30 7 1 7 8
M  V30 8 1 8 9
M  V30 9 1 9 10
M  V30 10 1 10 11
M  V30 11 1 11 12
M  V30 12 1 10 13
M  V30 13 2 13 14
M  V30 14 1 14 15
M  V30 15 2 15 16
M  V30 16 1 16 17
M  V30 17 2 17 18
M  V30 18 1 18 19
M  V30 19 2 19 20
M  V30 20 1 20 21
M  V30 21 2 21 22
M  V30 22 1 19 23
M  V30 23 2 23 24
M  V30 24 1 24 25
M  V30 25 2 25 26
M  V30 26 1 26 27
M  V30 27 1 27 28
M  V30 28 1 28 29
M  V30 29 2 28 30
M  V30 30 1 26 31
M  V30 31 2 31 32
M  V30 32 1 12 7
M  V30 33 1 22 13
M  V30 34 1 32 23
M  V30 35 1 21 16
M  V30 36 1 30 25
M  V30 37 1 1 33
M  V30 38 1 1 34
M  V30 39 1 1 35
M  V30 40 1 3 36
M  V30 41 1 3 37
M  V30 42 1 3 38
M  V30 43 1 4 39
M  V30 44 1 4 40
M  V30 45 1 8 41
M  V30 46 1 8 42
M  V30 47 1 9 43
M  V30 48 1 9 44
M  V30 49 1 11 45
M  V30 50 1 11 46
M  V30 51 1 12 47
M  V30 52 1 12 48
M  V30 53 1 14 49
M  V30 54 1 17 50
M  V30 55 1 18 51
M  V30 56 1 24 52
M  V30 57 1 29 53
M  V30 58 1 29 54
M  V30 59 1 31 55
M  V30 60 1 32 56
M  V30 END BOND
M  V30 END CTAB
M  END
