
     RDKit          3D

  0  0  0  0  0  0  0  0  0  0999 V3000
M  V30 BEGIN CTAB
M  V30 COUNTS 27 28 0 0 0
M  V30 BEGIN ATOM
M  V30 1 N -4.61022 0.63898 -0.41396 0
M  V30 2 C -3.19273 0.472891 -0.25818 0
M  V30 3 N -2.6004 -0.703076 -0.533298 0
M  V30 4 C -1.28301 -0.924863 -0.405998 0
M  V30 5 C -0.624796 -2.21635 -0.701239 0
M  V30 6 F -0.362649 -2.82272 0.53527 0
M  V30 7 C -0.517108 0.123147 0.0307072 0
M  V30 8 C -1.08536 1.33819 0.320789 0
M  V30 9 N -0.28957 2.41752 0.767836 0
M  V30 10 N -2.42804 1.50207 0.172434 0
M  V30 11 C 0.914573 -0.0423906 0.184921 0
M  V30 12 C 1.7631 0.24263 -0.883589 0
M  V30 13 Cl 1.0695 0.812533 -2.39807 0
M  V30 14 C 3.12827 0.105501 -0.819799 0
M  V30 15 Cl 4.18955 0.467529 -2.1735 0
M  V30 16 C 3.69737 -0.339567 0.368105 0
M  V30 17 C 2.87454 -0.625827 1.43374 0
M  V30 18 C 1.51142 -0.481754 1.34876 0
M  V30 19 H -4.96365 1.26786 -1.18633 0
M  V30 20 H -5.30991 0.179896 0.18432 0
M  V30 21 H 0.377586 -2.02772 -1.13863 0
M  V30 22 H -1.24163 -2.90272 -1.31265 0
M  V30 23 H -0.615111 2.98647 1.57762 0
M  V30 24 H 0.605197 2.6683 0.324757 0
M  V30 25 H 4.7772 -0.450593 0.427423 0
M  V30 26 H 3.3326 -0.971034 2.34808 0
M  V30 27 H 0.883286 -0.714916 2.20048 0
M  V30 END ATOM
M  V30 BEGIN BOND
M  V30 1 1 1 2
M  V30 2 2 2 3
M  V30 3 1 3 4
M  V30 4 1 4 5
M  V30 5 1 5 6
M  V30 6 2 4 7
M  V30 7 1 7 8
M  V30 8 1 8 9
M  V30 9 2 8 10
M  V30 10 1 7 11
M  V30 11 2 11 12
M  V30 12 1 12 13
M  V30 13 1 12 14
M  V30 14 1 14 15
M  V30 15 2 14 16
M  V30 16 1 16 17
M  V30 17 2 17 18
M  V30 18 1 10 2
M  V30 19 1 18 11
M  V30 20 1 1 19
M  V30 21 1 1 20
M  V30 22 1 5 21
M  V30 23 1 5 22
M  V30 24 1 9 23
M  V30 25 1 9 24
M  V30 26 1 16 25
M  V30 27 1 17 26
M  V30 28 1 18 27
M  V30 END BOND
M  V30 END CTAB
M  END
