
     RDKit          3D

  0  0  0  0  0  0  0  0  0  0999 V3000
M  V30 BEGIN CTAB
M  V30 COUNTS 48 52 0 0 0
M  V30 BEGIN ATOM
M  V30 1 N -6.83336 -0.743821 -0.749183 0
M  V30 2 C -5.67809 -0.875184 -0.900662 0
M  V30 3 C -4.25089 -1.06056 -1.09201 0
M  V30 4 C -3.85647 -2.02411 -1.97901 0
M  V30 5 N -4.83553 -2.78851 -2.66211 0
M  V30 6 N -2.52743 -2.17908 -2.13699 0
M  V30 7 C -1.64735 -1.39911 -1.43366 0
M  V30 8 C -2.0007 -0.430699 -0.542658 0
M  V30 9 C -3.38528 -0.256319 -0.366462 0
M  V30 10 C -3.98547 0.707944 0.527442 0
M  V30 11 C -4.45849 0.360651 1.77356 0
M  V30 12 C -5.0442 1.30838 2.58634 0
M  V30 13 C -5.17724 2.62578 2.18678 0
M  V30 14 C -4.69713 2.95685 0.933733 0
M  V30 15 C -4.11323 2.01694 0.1207 0
M  V30 16 Cl -5.91262 3.84652 3.1833 0
M  V30 17 C -0.987239 0.241727 0.0637667 0
M  V30 18 N -1.1748 1.29922 1.04958 0
M  V30 19 C 0.283836 -0.1126 -0.274219 0
M  V30 20 S 0.0557963 -1.3571 -1.41164 0
M  V30 21 C 1.56072 0.479492 0.216953 0
M  V30 22 O 1.50654 1.4367 1.01387 0
M  V30 23 N 2.7349 -0.128386 -0.292368 0
M  V30 24 C 4.07751 0.237751 -0.0086172 0
M  V30 25 C 4.38125 1.46847 0.521469 0
M  V30 26 C 5.68846 1.87285 0.75053 0
M  V30 27 C 6.70137 1.00759 0.433874 0
M  V30 28 C 6.41424 -0.222915 -0.0948954 0
M  V30 29 C 5.13137 -0.620929 -0.320135 0
M  V30 30 C 4.89111 -1.89766 -0.846903 0
M  V30 31 C 5.97577 -2.71108 -1.12078 0
M  V30 32 C 7.25656 -2.28083 -0.883602 0
M  V30 33 N 7.46194 -1.03683 -0.371203 0
M  V30 34 H -5.71904 -2.39643 -3.02298 0
M  V30 35 H -4.65385 -3.8053 -2.80873 0
M  V30 36 H -4.35458 -0.677897 2.08813 0
M  V30 37 H -5.42271 1.05729 3.56806 0
M  V30 38 H -4.80982 4.00107 0.633354 0
M  V30 39 H -3.74226 2.28888 -0.851836 0
M  V30 40 H -1.07027 2.29603 0.80135 0
M  V30 41 H -1.41361 0.962067 2.00506 0
M  V30 42 H 2.63774 -0.940581 -0.984252 0
M  V30 43 H 3.58184 2.19767 0.774506 0
M  V30 44 H 5.88171 2.85699 1.17167 0
M  V30 45 H 7.75397 1.25782 0.586823 0
M  V30 46 H 3.89426 -2.23384 -1.02133 0
M  V30 47 H 5.76612 -3.70951 -1.53389 0
M  V30 48 H 8.11463 -2.89539 -1.08904 0
M  V30 END ATOM
M  V30 BEGIN BOND
M  V30 1 3 1 2
M  V30 2 1 2 3
M  V30 3 2 3 4
M  V30 4 1 4 5
M  V30 5 1 4 6
M  V30 6 2 6 7
M  V30 7 1 7 8
M  V30 8 2 8 9
M  V30 9 1 9 10
M  V30 10 2 10 11
M  V30 11 1 11 12
M  V30 12 2 12 13
M  V30 13 1 13 14
M  V30 14 2 14 15
M  V30 15 1 13 16
M  V30 16 1 8 17
M  V30 17 1 17 18
M  V30 18 2 17 19
M  V30 19 1 19 20
M  V30 20 1 19 21
M  V30 21 2 21 22
M  V30 22 1 21 23
M  V30 23 1 23 24
M  V30 24 2 24 25
M  V30 25 1 25 26
M  V30 26 2 26 27
M  V30 27 1 27 28
M  V30 28 2 28 29
M  V30 29 1 29 30
M  V30 30 2 30 31
M  V30 31 1 31 32
M  V30 32 2 32 33
M  V30 33 1 9 3
M  V30 34 1 15 10
M  V30 35 1 29 24
M  V30 36 1 20 7
M  V30 37 1 33 28
M  V30 38 1 5 34
M  V30 39 1 5 35
M  V30 40 1 11 36
M  V30 41 1 12 37
M  V30 42 1 14 38
M  V30 43 1 15 39
M  V30 44 1 18 40
M  V30 45 1 18 41
M  V30 46 1 23 42
M  V30 47 1 25 43
M  V30 48 1 26 44
M  V30 49 1 27 45
M  V30 50 1 30 46
M  V30 51 1 31 47
M  V30 52 1 32 48
M  V30 END BOND
M  V30 END CTAB
M  END
