
     RDKit          3D

  0  0  0  0  0  0  0  0  0  0999 V3000
M  V30 BEGIN CTAB
M  V30 COUNTS 34 36 0 0 0
M  V30 BEGIN ATOM
M  V30 1 C -4.9094 -1.78173 -1.57101 0
M  V30 2 S -3.2186 -1.31311 -1.19569 0
M  V30 3 C -3.21449 -0.0512096 0.0784958 0
M  V30 4 N -4.36694 0.374879 0.575531 0
M  V30 5 C -4.5265 1.30336 1.52252 0
M  V30 6 N -5.83398 1.63848 1.93665 0
M  V30 7 N -3.39212 1.84666 2.0056 0
M  V30 8 C -2.17131 1.45227 1.53664 0
M  V30 9 C -2.02106 0.502723 0.568902 0
M  V30 10 C -0.759107 0.20312 0.193302 0
M  V30 11 N -0.395935 -0.777211 -0.817884 0
M  V30 12 C 0.262233 0.876398 0.814232 0
M  V30 13 S -0.567725 1.90089 1.89698 0
M  V30 14 C 1.71181 0.760048 0.612877 0
M  V30 15 O 2.46225 1.48762 1.30431 0
M  V30 16 O 2.20634 -0.121475 -0.30605 0
M  V30 17 C 3.58931 -0.195265 -0.460578 0
M  V30 18 C 4.26774 -1.10075 0.332598 0
M  V30 19 C 5.65522 -1.23529 0.238052 0
M  V30 20 C 6.33433 -0.458616 -0.650449 0
M  V30 21 C 5.67001 0.439752 -1.43884 0
M  V30 22 C 4.30193 0.566412 -1.33962 0
M  V30 23 Cl 8.08731 -0.648896 -0.749611 0
M  V30 24 H -4.99649 -2.83737 -1.91159 0
M  V30 25 H -5.41705 -1.07856 -2.26363 0
M  V30 26 H -5.49766 -1.7244 -0.609104 0
M  V30 27 H -6.64845 1.7051 1.29806 0
M  V30 28 H -5.98627 1.82973 2.94502 0
M  V30 29 H -0.0702711 -0.457456 -1.73999 0
M  V30 30 H -0.46824 -1.7698 -0.601346 0
M  V30 31 H 3.72076 -1.70967 1.03161 0
M  V30 32 H 6.1839 -1.95025 0.865488 0
M  V30 33 H 6.24737 1.04739 -2.14155 0
M  V30 34 H 3.76108 1.27623 -1.95991 0
M  V30 END ATOM
M  V30 BEGIN BOND
M  V30 1 1 1 2
M  V30 2 1 2 3
M  V30 3 2 3 4
M  V30 4 1 4 5
M  V30 5 1 5 6
M  V30 6 2 5 7
M  V30 7 1 7 8
M  V30 8 2 8 9
M  V30 9 1 9 10
M  V30 10 1 10 11
M  V30 11 2 10 12
M  V30 12 1 12 13
M  V30 13 1 12 14
M  V30 14 2 14 15
M  V30 15 1 14 16
M  V30 16 1 16 17
M  V30 17 2 17 18
M  V30 18 1 18 19
M  V30 19 2 19 20
M  V30 20 1 20 21
M  V30 21 2 21 22
M  V30 22 1 20 23
M  V30 23 1 9 3
M  V30 24 1 22 17
M  V30 25 1 13 8
M  V30 26 1 1 24
M  V30 27 1 1 25
M  V30 28 1 1 26
M  V30 29 1 6 27
M  V30 30 1 6 28
M  V30 31 1 11 29
M  V30 32 1 11 30
M  V30 33 1 18 31
M  V30 34 1 19 32
M  V30 35 1 21 33
M  V30 36 1 22 34
M  V30 END BOND
M  V30 END CTAB
M  END
