
     RDKit          3D

  0  0  0  0  0  0  0  0  0  0999 V3000
M  V30 BEGIN CTAB
M  V30 COUNTS 46 48 0 0 0
M  V30 BEGIN ATOM
M  V30 1 N -7.92039 -0.0723026 -0.846447 0
M  V30 2 C -6.60361 -0.208669 -1.37192 0
M  V30 3 N -6.43267 -0.961363 -2.38006 0
M  V30 4 C -5.51565 0.51205 -0.740208 0
M  V30 5 C -4.21025 0.441716 -1.17785 0
M  V30 6 C -3.21414 1.14786 -0.540254 0
M  V30 7 O -1.92291 1.0588 -0.998086 0
M  V30 8 C -1.10313 0.0499909 -0.460137 0
M  V30 9 C -1.56438 -0.829819 0.495965 0
M  V30 10 C -0.741631 -1.80912 1.00661 0
M  V30 11 C 0.567718 -1.88938 0.534003 0
M  V30 12 C 1.44289 -2.91899 1.04298 0
M  V30 13 O 0.962249 -3.80731 2.02945 0
M  V30 14 O 2.61913 -3.03009 0.618811 0
M  V30 15 C 0.989557 -1.0015 -0.411973 0
M  V30 16 O 2.28359 -1.06014 -0.892822 0
M  V30 17 C 3.28539 -0.229674 -0.353624 0
M  V30 18 C 2.94856 0.640335 0.6567 0
M  V30 19 C 3.95981 1.45691 1.17858 0
M  V30 20 C 5.24108 1.38857 0.696088 0
M  V30 21 C 5.59082 0.518482 -0.318407 0
M  V30 22 C 4.58742 -0.277474 -0.821471 0
M  V30 23 C 6.95496 0.44926 -0.829393 0
M  V30 24 N 7.99488 1.26287 -0.32328 0
M  V30 25 N 7.245 -0.36449 -1.76452 0
M  V30 26 N 0.161021 -0.032898 -0.911371 0
M  V30 27 C -3.48792 1.94101 0.546918 0
M  V30 28 C -4.78866 2.0368 1.01587 0
M  V30 29 C -5.75927 1.32914 0.369525 0
M  V30 30 H -8.34658 0.855355 -0.623013 0
M  V30 31 H -8.50307 -0.905454 -0.66788 0
M  V30 32 H -5.52044 -1.11843 -2.82412 0
M  V30 33 H -3.95777 -0.181954 -2.04266 0
M  V30 34 H -2.59437 -0.731093 0.836824 0
M  V30 35 H -1.07344 -2.51324 1.75633 0
M  V30 36 H 1.20986 -3.64554 3.01459 0
M  V30 37 H 1.93668 0.693645 1.03704 0
M  V30 38 H 3.65254 2.12491 1.96997 0
M  V30 39 H 5.99535 2.02945 1.11827 0
M  V30 40 H 4.74453 -1.00026 -1.62149 0
M  V30 41 H 8.06445 1.42045 0.69114 0
M  V30 42 H 8.67396 1.69179 -0.966458 0
M  V30 43 H 6.61134 -1.02041 -2.23896 0
M  V30 44 H -2.71382 2.50521 1.06216 0
M  V30 45 H -4.968 2.66964 1.87298 0
M  V30 46 H -6.78069 1.38535 0.71355 0
M  V30 END ATOM
M  V30 BEGIN BOND
M  V30 1 1 1 2
M  V30 2 2 2 3 CFG=2
M  V30 3 1 2 4
M  V30 4 2 4 5
M  V30 5 1 5 6
M  V30 6 1 6 7
M  V30 7 1 7 8
M  V30 8 2 8 9
M  V30 9 1 9 10
M  V30 10 2 10 11
M  V30 11 1 11 12
M  V30 12 1 12 13
M  V30 13 2 12 14
M  V30 14 1 11 15
M  V30 15 1 15 16
M  V30 16 1 16 17
M  V30 17 2 17 18
M  V30 18 1 18 19
M  V30 19 2 19 20
M  V30 20 1 20 21
M  V30 21 2 21 22
M  V30 22 1 21 23
M  V30 23 1 23 24
M  V30 24 2 23 25 CFG=2
M  V30 25 2 15 26
M  V30 26 2 6 27
M  V30 27 1 27 28
M  V30 28 2 28 29
M  V30 29 1 29 4
M  V30 30 1 26 8
M  V30 31 1 22 17
M  V30 32 1 1 30
M  V30 33 1 1 31
M  V30 34 1 3 32
M  V30 35 1 5 33
M  V30 36 1 9 34
M  V30 37 1 10 35
M  V30 38 1 13 36
M  V30 39 1 18 37
M  V30 40 1 19 38
M  V30 41 1 20 39
M  V30 42 1 22 40
M  V30 43 1 24 41
M  V30 44 1 24 42
M  V30 45 1 25 43
M  V30 46 1 27 44
M  V30 47 1 28 45
M  V30 48 1 29 46
M  V30 END BOND
M  V30 END CTAB
M  END
