
     RDKit          3D

  0  0  0  0  0  0  0  0  0  0999 V3000
M  V30 BEGIN CTAB
M  V30 COUNTS 33 35 0 0 0
M  V30 BEGIN ATOM
M  V30 1 Cl 1.05071 2.37499 -1.14586 0
M  V30 2 C 2.04828 1.0675 -0.567855 0
M  V30 3 C 3.26137 1.35028 0.0699319 0
M  V30 4 C 4.05067 0.315553 0.52508 0
M  V30 5 N 5.30614 0.563768 1.1866 0
M  V30 6 C 3.64237 -0.991639 0.350363 0
M  V30 7 C 2.42781 -1.22831 -0.28969 0
M  V30 8 C 1.61259 -0.218321 -0.757805 0
M  V30 9 O 0.440307 -0.496579 -1.37406 0
M  V30 10 C -0.833782 -0.160133 -1.06402 0
M  V30 11 C -1.59375 0.562533 -1.93812 0
M  V30 12 C -2.88134 0.897574 -1.61475 0
M  V30 13 C -3.42805 0.513776 -0.410153 0
M  V30 14 C -2.67699 -0.216199 0.485716 0
M  V30 15 C -1.3836 -0.540697 0.136422 0
M  V30 16 Cl -0.476415 -1.47256 1.31974 0
M  V30 17 C -3.23321 -0.601112 1.7 0
M  V30 18 C -4.53042 -0.264877 2.02846 0
M  V30 19 C -5.25948 0.464254 1.11716 0
M  V30 20 C -4.73038 0.859132 -0.0962096 0
M  V30 21 N 4.42835 -2.08768 0.80572 0
M  V30 22 H 3.57655 2.38831 0.203857 0
M  V30 23 H 5.35605 0.574591 2.22723 0
M  V30 24 H 6.17751 0.73508 0.620702 0
M  V30 25 H 2.13783 -2.26251 -0.410291 0
M  V30 26 H -1.1832 0.872267 -2.88636 0
M  V30 27 H -3.52537 1.47138 -2.27719 0
M  V30 28 H -2.62404 -1.1736 2.38689 0
M  V30 29 H -4.97027 -0.562699 2.97538 0
M  V30 30 H -6.28996 0.766666 1.30644 0
M  V30 31 H -5.29369 1.4293 -0.814135 0
M  V30 32 H 4.7411 -2.08879 1.79873 0
M  V30 33 H 4.65632 -2.84125 0.124786 0
M  V30 END ATOM
M  V30 BEGIN BOND
M  V30 1 1 1 2
M  V30 2 2 2 3
M  V30 3 1 3 4
M  V30 4 1 4 5
M  V30 5 2 4 6
M  V30 6 1 6 7
M  V30 7 2 7 8
M  V30 8 1 8 9
M  V30 9 1 9 10
M  V30 10 2 10 11
M  V30 11 1 11 12
M  V30 12 2 12 13
M  V30 13 1 13 14
M  V30 14 2 14 15
M  V30 15 1 15 16
M  V30 16 1 14 17
M  V30 17 2 17 18
M  V30 18 1 18 19
M  V30 19 2 19 20
M  V30 20 1 6 21
M  V30 21 1 8 2
M  V30 22 1 15 10
M  V30 23 1 20 13
M  V30 24 1 3 22
M  V30 25 1 5 23
M  V30 26 1 5 24
M  V30 27 1 7 25
M  V30 28 1 11 26
M  V30 29 1 12 27
M  V30 30 1 17 28
M  V30 31 1 18 29
M  V30 32 1 19 30
M  V30 33 1 20 31
M  V30 34 1 21 32
M  V30 35 1 21 33
M  V30 END BOND
M  V30 END CTAB
M  END
