
     RDKit          3D

  0  0  0  0  0  0  0  0  0  0999 V3000
M  V30 BEGIN CTAB
M  V30 COUNTS 24 24 0 0 0
M  V30 BEGIN ATOM
M  V30 1 C -2.63385 -0.168658 -1.05524 0
M  V30 2 C -2.05862 -0.370555 0.325708 0
M  V30 3 C -0.570331 -0.333491 0.179694 0
M  V30 4 C 0.169644 -1.42264 0.562489 0
M  V30 5 C 1.54328 -1.47023 0.461358 0
M  V30 6 C 2.1901 -0.359177 -0.0522925 0
M  V30 7 C 1.41723 0.73134 -0.432756 0
M  V30 8 N 0.0765451 0.727138 -0.313228 0
M  V30 9 N 2.12378 1.84755 -0.953743 0
M  V30 10 N 3.58708 -0.338327 -0.183635 0
M  V30 11 C -2.44471 0.714392 1.2792 0
M  V30 12 H -2.5514 -1.15899 -1.58475 0
M  V30 13 H -2.02633 0.53629 -1.66506 0
M  V30 14 H -3.68688 0.157419 -1.03075 0
M  V30 15 H -2.36656 -1.33578 0.749488 0
M  V30 16 H -0.346295 -2.28828 0.963755 0
M  V30 17 H 2.13725 -2.32189 0.759343 0
M  V30 18 H 1.9287 2.77167 -0.516754 0
M  V30 19 H 2.81476 1.81695 -1.7302 0
M  V30 20 H 4.18813 -0.190412 0.641919 0
M  V30 21 H 4.02126 -0.471514 -1.11106 0
M  V30 22 H -1.61554 0.80645 2.03324 0
M  V30 23 H -3.34836 0.425778 1.87974 0
M  V30 24 H -2.54887 1.69497 0.79353 0
M  V30 END ATOM
M  V30 BEGIN BOND
M  V30 1 1 1 2
M  V30 2 1 2 3
M  V30 3 2 3 4
M  V30 4 1 4 5
M  V30 5 2 5 6
M  V30 6 1 6 7
M  V30 7 2 7 8
M  V30 8 1 7 9
M  V30 9 1 6 10
M  V30 10 1 2 11
M  V30 11 1 8 3
M  V30 12 1 1 12
M  V30 13 1 1 13
M  V30 14 1 1 14
M  V30 15 1 2 15
M  V30 16 1 4 16
M  V30 17 1 5 17
M  V30 18 1 9 18
M  V30 19 1 9 19
M  V30 20 1 10 20
M  V30 21 1 10 21
M  V30 22 1 11 22
M  V30 23 1 11 23
M  V30 24 1 11 24
M  V30 END BOND
M  V30 END CTAB
M  END
