
     RDKit          3D

  0  0  0  0  0  0  0  0  0  0999 V3000
M  V30 BEGIN CTAB
M  V30 COUNTS 24 25 0 0 0
M  V30 BEGIN ATOM
M  V30 1 N 4.59785 -0.561051 0.278981 0
M  V30 2 C 3.1881 -0.505724 0.268863 0
M  V30 3 N 2.40625 -1.50198 0.696771 0
M  V30 4 C 1.0632 -1.40674 0.678451 0
M  V30 5 C 0.493893 -0.232486 0.196748 0
M  V30 6 C 1.28268 0.797559 -0.247117 0
M  V30 7 N 2.6314 0.644749 -0.20308 0
M  V30 8 N 0.679253 1.96584 -0.764575 0
M  V30 9 C -0.956875 -0.121443 0.230971 0
M  V30 10 C -1.55762 0.929834 0.885827 0
M  V30 11 C -2.94163 1.05283 0.96605 0
M  V30 12 C -3.70837 0.079059 0.363451 0
M  V30 13 C -3.11407 -0.988711 -0.30086 0
M  V30 14 C -1.73734 -1.09656 -0.371909 0
M  V30 15 Cl -1.01066 -2.45725 -1.22073 0
M  V30 16 H 5.12448 0.0485698 0.926458 0
M  V30 17 H 5.08857 -1.20786 -0.359397 0
M  V30 18 H 0.432876 -2.22693 1.02983 0
M  V30 19 H 0.422808 2.75087 -0.144076 0
M  V30 20 H 0.491864 2.03295 -1.8141 0
M  V30 21 H -0.994999 1.70119 1.37879 0
M  V30 22 H -3.37604 1.89428 1.48937 0
M  V30 23 H -4.79033 0.159408 0.416411 0
M  V30 24 H -3.7153 -1.75041 -0.76637 0
M  V30 END ATOM
M  V30 BEGIN BOND
M  V30 1 1 1 2
M  V30 2 2 2 3
M  V30 3 1 3 4
M  V30 4 2 4 5
M  V30 5 1 5 6
M  V30 6 2 6 7
M  V30 7 1 6 8
M  V30 8 1 5 9
M  V30 9 2 9 10
M  V30 10 1 10 11
M  V30 11 2 11 12
M  V30 12 1 12 13
M  V30 13 2 13 14
M  V30 14 1 14 15
M  V30 15 1 7 2
M  V30 16 1 14 9
M  V30 17 1 1 16
M  V30 18 1 1 17
M  V30 19 1 4 18
M  V30 20 1 8 19
M  V30 21 1 8 20
M  V30 22 1 10 21
M  V30 23 1 11 22
M  V30 24 1 12 23
M  V30 25 1 13 24
M  V30 END BOND
M  V30 END CTAB
M  END
