
     RDKit          3D

  0  0  0  0  0  0  0  0  0  0999 V3000
M  V30 BEGIN CTAB
M  V30 COUNTS 59 59 0 0 0
M  V30 BEGIN ATOM
M  V30 1 C -3.50757 -0.27139 0.348145 0 CFG=1
M  V30 2 N -4.61768 0.658293 0.553002 0
M  V30 3 C -2.72202 0.0994749 -0.881453 0
M  V30 4 C -3.58248 0.0610375 -2.10615 0
M  V30 5 C -4.17041 -1.32278 -2.32034 0
M  V30 6 C -4.62073 1.13882 -2.11613 0
M  V30 7 C -2.63334 -0.19611 1.52999 0
M  V30 8 O -2.79864 0.782879 2.33304 0
M  V30 9 N -1.65332 -1.1678 1.77372 0
M  V30 10 C -1.36618 -2.30931 0.923002 0
M  V30 11 C -1.0634 -3.366 1.99233 0
M  V30 12 C -0.201852 -2.59501 2.95265 0
M  V30 13 C -0.79519 -1.20902 2.93668 0 CFG=1
M  V30 14 C 0.300655 -0.234506 2.77085 0
M  V30 15 O 1.12477 -0.0965237 3.726 0
M  V30 16 N 0.466427 0.534819 1.61527 0
M  V30 17 C 1.57288 1.51282 1.46071 0 CFG=1
M  V30 18 C 2.44718 1.08656 0.314357 0
M  V30 19 C 3.5882 2.00528 0.0857952 0
M  V30 20 C 4.48321 1.53861 -1.05565 0
M  V30 21 N 5.04401 0.235742 -0.804494 0
M  V30 22 C 5.89359 -0.316855 -1.78097 0
M  V30 23 N 5.66251 -1.62633 -2.2408 0
M  V30 24 N 6.86591 0.362497 -2.2467 0
M  V30 25 C 0.975109 2.85233 1.32579 0
M  V30 26 O 1.70954 4.00607 1.22986 0
M  V30 27 O -0.293499 2.9747 1.2964 0
M  V30 28 H -3.95795 -1.26644 0.205038 0
M  V30 29 H -4.19966 1.56787 0.809007 0
M  V30 30 H -5.13815 0.289993 1.3872 0
M  V30 31 H -1.89852 -0.624159 -0.997881 0
M  V30 32 H -2.30442 1.13104 -0.783831 0
M  V30 33 H -2.87076 0.217384 -2.97801 0
M  V30 34 H -3.36432 -2.063 -2.19523 0
M  V30 35 H -4.55795 -1.34521 -3.35958 0
M  V30 36 H -5.02051 -1.52495 -1.64021 0
M  V30 37 H -5.62184 0.763271 -1.80337 0
M  V30 38 H -4.74528 1.46322 -3.18569 0
M  V30 39 H -4.34447 2.0511 -1.57544 0
M  V30 40 H -2.2133 -2.60861 0.304035 0
M  V30 41 H -0.481049 -2.1692 0.286165 0
M  V30 42 H -2.03201 -3.65123 2.43199 0
M  V30 43 H -0.525393 -4.2113 1.52504 0
M  V30 44 H 0.824922 -2.56682 2.55907 0
M  V30 45 H -0.199435 -3.03835 3.97083 0
M  V30 46 H -1.38269 -1.00389 3.86268 0
M  V30 47 H -0.154519 0.485942 0.787394 0
M  V30 48 H 2.13857 1.44569 2.42948 0
M  V30 49 H 1.80936 1.02236 -0.596102 0
M  V30 50 H 2.86537 0.0632583 0.51162 0
M  V30 51 H 3.17588 2.98326 -0.31506 0
M  V30 52 H 4.14289 2.2485 0.989423 0
M  V30 53 H 3.89945 1.53432 -1.99041 0
M  V30 54 H 5.31351 2.26021 -1.12536 0
M  V30 55 H 4.85401 -0.315813 0.0586049 0
M  V30 56 H 5.34714 -1.86422 -3.21316 0
M  V30 57 H 5.80598 -2.44344 -1.59185 0
M  V30 58 H 7.12611 1.32715 -1.98232 0
M  V30 59 H 1.60139 4.70375 0.506069 0
M  V30 END ATOM
M  V30 BEGIN BOND
M  V30 1 1 1 2
M  V30 2 1 1 3
M  V30 3 1 3 4
M  V30 4 1 4 5
M  V30 5 1 4 6
M  V30 6 1 1 7
M  V30 7 2 7 8
M  V30 8 1 7 9
M  V30 9 1 9 10
M  V30 10 1 10 11
M  V30 11 1 11 12
M  V30 12 1 12 13
M  V30 13 1 13 14
M  V30 14 2 14 15
M  V30 15 1 14 16
M  V30 16 1 16 17
M  V30 17 1 17 18
M  V30 18 1 18 19
M  V30 19 1 19 20
M  V30 20 1 20 21
M  V30 21 1 21 22
M  V30 22 1 22 23
M  V30 23 2 22 24 CFG=2
M  V30 24 1 17 25
M  V30 25 1 25 26
M  V30 26 2 25 27
M  V30 27 1 13 9
M  V30 28 1 1 28 CFG=3
M  V30 29 1 2 29
M  V30 30 1 2 30
M  V30 31 1 3 31
M  V30 32 1 3 32
M  V30 33 1 4 33
M  V30 34 1 5 34
M  V30 35 1 5 35
M  V30 36 1 5 36
M  V30 37 1 6 37
M  V30 38 1 6 38
M  V30 39 1 6 39
M  V30 40 1 10 40
M  V30 41 1 10 41
M  V30 42 1 11 42
M  V30 43 1 11 43
M  V30 44 1 12 44
M  V30 45 1 12 45
M  V30 46 1 13 46 CFG=1
M  V30 47 1 16 47
M  V30 48 1 17 48 CFG=1
M  V30 49 1 18 49
M  V30 50 1 18 50
M  V30 51 1 19 51
M  V30 52 1 19 52
M  V30 53 1 20 53
M  V30 54 1 20 54
M  V30 55 1 21 55
M  V30 56 1 23 56
M  V30 57 1 23 57
M  V30 58 1 24 58
M  V30 59 1 26 59
M  V30 END BOND
M  V30 END CTAB
M  END
