
     RDKit          3D

  0  0  0  0  0  0  0  0  0  0999 V3000
M  V30 BEGIN CTAB
M  V30 COUNTS 58 60 0 0 0
M  V30 BEGIN ATOM
M  V30 1 N 9.38714 3.69969 -0.503523 0
M  V30 2 C 9.78123 2.3458 -0.33595 0
M  V30 3 N 10.7271 1.86102 -1.08541 0
M  V30 4 N 9.14417 1.54791 0.636703 0
M  V30 5 C 8.32518 0.423397 0.232766 0
M  V30 6 N 7.64194 -0.405615 1.00235 0
M  V30 7 C 6.94882 -1.36642 0.466026 0
M  V30 8 C 6.16828 -2.34098 1.34156 0
M  V30 9 S 4.64958 -1.71585 1.93174 0
M  V30 10 C 3.26459 -1.46452 0.904404 0
M  V30 11 C 3.39649 -0.516495 -0.255361 0
M  V30 12 N 2.02386 -0.359085 -0.793094 0
M  V30 13 C 1.09225 0.422887 0.0254066 0
M  V30 14 N 1.55825 1.54638 0.47991 0
M  V30 15 S 0.263281 2.25057 1.40032 0
M  V30 16 O -0.206568 3.56316 0.801087 0
M  V30 17 N -0.873531 0.962138 1.1168 0
M  V30 18 C -0.249485 0.108125 0.380131 0
M  V30 19 N -0.957589 -1.09408 -0.0253598 0
M  V30 20 C -2.38656 -1.09456 0.0136356 0
M  V30 21 C -3.06824 -2.35929 -0.342711 0
M  V30 22 S -4.86018 -2.07616 -0.173977 0
M  V30 23 C -5.40232 -0.934492 -1.44686 0
M  V30 24 C -6.53904 -0.0623482 -0.919185 0
M  V30 25 C -6.3116 1.19947 -0.420559 0
M  V30 26 S -7.8853 1.66905 0.0434412 0
M  V30 27 C -8.72518 0.258081 -0.413826 0
M  V30 28 N -10.1279 -0.0356324 -0.290376 0
M  V30 29 C -11.0065 0.90788 0.284377 0
M  V30 30 N -12.244 1.29207 -0.30537 0
M  V30 31 N -10.7067 1.46905 1.40432 0
M  V30 32 N -7.75876 -0.50275 -0.900906 0
M  V30 33 C 6.968 -1.46748 -0.899742 0
M  V30 34 S 7.9875 -0.166552 -1.33295 0
M  V30 35 H 8.79544 4.15893 0.237369 0
M  V30 36 H 9.66691 4.27624 -1.35281 0
M  V30 37 H 11.0151 0.857537 -0.957224 0
M  V30 38 H 9.22812 1.72591 1.65635 0
M  V30 39 H 6.85259 -2.58668 2.21116 0
M  V30 40 H 6.0734 -3.30268 0.787892 0
M  V30 41 H 2.41586 -1.05766 1.53861 0
M  V30 42 H 2.92618 -2.44306 0.450886 0
M  V30 43 H 4.01734 -0.902676 -1.08481 0
M  V30 44 H 3.71951 0.464454 0.136235 0
M  V30 45 H 1.78739 -0.78782 -1.67711 0
M  V30 46 H -0.415758 -1.91083 -0.325255 0
M  V30 47 H -2.73431 -0.262164 -0.642618 0
M  V30 48 H -2.69805 -0.838943 1.07143 0
M  V30 49 H -2.75135 -3.23568 0.244432 0
M  V30 50 H -2.90411 -2.58678 -1.4176 0
M  V30 51 H -4.57174 -0.286604 -1.74816 0
M  V30 52 H -5.78413 -1.50058 -2.33469 0
M  V30 53 H -5.33914 1.72548 -0.360927 0
M  V30 54 H -10.4647 -0.935872 -0.626557 0
M  V30 55 H -13.1332 1.09214 0.205196 0
M  V30 56 H -12.3464 1.76273 -1.2151 0
M  V30 57 H -9.82155 1.22331 1.87642 0
M  V30 58 H 6.44847 -2.21306 -1.53342 0
M  V30 END ATOM
M  V30 BEGIN BOND
M  V30 1 1 1 2
M  V30 2 2 2 3 CFG=2
M  V30 3 1 2 4
M  V30 4 1 4 5
M  V30 5 2 5 6
M  V30 6 1 6 7
M  V30 7 1 7 8
M  V30 8 1 8 9
M  V30 9 1 9 10
M  V30 10 1 10 11
M  V30 11 1 11 12
M  V30 12 1 12 13
M  V30 13 2 13 14
M  V30 14 1 14 15
M  V30 15 2 15 16
M  V30 16 1 15 17
M  V30 17 2 17 18
M  V30 18 1 18 19
M  V30 19 1 19 20
M  V30 20 1 20 21
M  V30 21 1 21 22
M  V30 22 1 22 23
M  V30 23 1 23 24
M  V30 24 2 24 25
M  V30 25 1 25 26
M  V30 26 1 26 27
M  V30 27 1 27 28
M  V30 28 1 28 29
M  V30 29 1 29 30
M  V30 30 2 29 31 CFG=2
M  V30 31 2 27 32
M  V30 32 2 7 33
M  V30 33 1 33 34
M  V30 34 1 34 5
M  V30 35 1 18 13
M  V30 36 1 32 24
M  V30 37 1 1 35
M  V30 38 1 1 36
M  V30 39 1 3 37
M  V30 40 1 4 38
M  V30 41 1 8 39
M  V30 42 1 8 40
M  V30 43 1 10 41
M  V30 44 1 10 42
M  V30 45 1 11 43
M  V30 46 1 11 44
M  V30 47 1 12 45
M  V30 48 1 19 46
M  V30 49 1 20 47
M  V30 50 1 20 48
M  V30 51 1 21 49
M  V30 52 1 21 50
M  V30 53 1 23 51
M  V30 54 1 23 52
M  V30 55 1 25 53
M  V30 56 1 28 54
M  V30 57 1 30 55
M  V30 58 1 30 56
M  V30 59 1 31 57
M  V30 60 1 33 58
M  V30 END BOND
M  V30 END CTAB
M  END
