
     RDKit          3D

  0  0  0  0  0  0  0  0  0  0999 V3000
M  V30 BEGIN CTAB
M  V30 COUNTS 31 31 0 0 0
M  V30 BEGIN ATOM
M  V30 1 O -2.18074 -0.701757 1.90945 0
M  V30 2 C -1.88682 -0.156483 0.810375 0
M  V30 3 N -0.649735 -0.437025 0.223317 0
M  V30 4 C -0.262603 0.151068 -1.0198 0
M  V30 5 C 1.21668 0.0528199 -1.19064 0
M  V30 6 N 1.88312 0.323381 0.0506413 0
M  V30 7 C 1.6237 -0.656217 1.07002 0
M  V30 8 C 0.291264 -1.34751 0.873221 0
M  V30 9 S 3.52091 0.746041 -0.110828 0
M  V30 10 O 4.07441 1.06726 1.24883 0
M  V30 11 O 3.61537 1.98286 -0.963714 0
M  V30 12 N 4.48918 -0.475556 -0.816678 0
M  V30 13 C -2.88472 0.776369 0.176556 0
M  V30 14 N -4.06416 0.889761 1.02411 0
M  V30 15 C -3.33656 0.213301 -1.13826 0
M  V30 16 H -0.511513 1.24952 -0.953988 0
M  V30 17 H -0.808424 -0.2735 -1.89046 0
M  V30 18 H 1.52679 0.849373 -1.90861 0
M  V30 19 H 1.5065 -0.907391 -1.65735 0
M  V30 20 H 2.39419 -1.43639 1.16553 0
M  V30 21 H 1.57196 -0.123494 2.04025 0
M  V30 22 H -0.0556071 -1.66412 1.87697 0
M  V30 23 H 0.401095 -2.21404 0.207653 0
M  V30 24 H 5.47655 -0.303895 -0.520793 0
M  V30 25 H 4.16927 -1.44068 -0.58354 0
M  V30 26 H -2.44333 1.77802 0.00415737 0
M  V30 27 H -4.05479 1.79611 1.5433 0
M  V30 28 H -4.20216 0.069005 1.63508 0
M  V30 29 H -2.94329 0.807486 -1.99573 0
M  V30 30 H -3.0311 -0.849691 -1.20446 0
M  V30 31 H -4.44544 0.235378 -1.23484 0
M  V30 END ATOM
M  V30 BEGIN BOND
M  V30 1 2 1 2
M  V30 2 1 2 3
M  V30 3 1 3 4
M  V30 4 1 4 5
M  V30 5 1 5 6
M  V30 6 1 6 7
M  V30 7 1 7 8
M  V30 8 1 6 9
M  V30 9 2 9 10
M  V30 10 2 9 11
M  V30 11 1 9 12
M  V30 12 1 2 13
M  V30 13 1 13 14
M  V30 14 1 13 15
M  V30 15 1 8 3
M  V30 16 1 4 16
M  V30 17 1 4 17
M  V30 18 1 5 18
M  V30 19 1 5 19
M  V30 20 1 7 20
M  V30 21 1 7 21
M  V30 22 1 8 22
M  V30 23 1 8 23
M  V30 24 1 12 24
M  V30 25 1 12 25
M  V30 26 1 13 26
M  V30 27 1 14 27
M  V30 28 1 14 28
M  V30 29 1 15 29
M  V30 30 1 15 30
M  V30 31 1 15 31
M  V30 END BOND
M  V30 END CTAB
M  END
