
     RDKit          3D

  0  0  0  0  0  0  0  0  0  0999 V3000
M  V30 BEGIN CTAB
M  V30 COUNTS 21 21 0 0 0
M  V30 BEGIN ATOM
M  V30 1 N -2.52337 -1.37897 0.407706 0
M  V30 2 C -1.74371 -0.75699 -0.708466 0
M  V30 3 C -0.476266 -0.248248 -0.184204 0
M  V30 4 C 0.562782 -1.02057 0.191534 0
M  V30 5 C 1.74648 -0.442435 0.474123 0
M  V30 6 C 1.96067 0.973286 0.400839 0
M  V30 7 C 0.865514 1.746 0.0262364 0
M  V30 8 C -0.369302 1.14229 -0.27584 0
M  V30 9 N -1.43066 1.9396 -0.689891 0
M  V30 10 N 2.93702 -1.22295 0.622266 0 CHG=1
M  V30 11 O 2.90056 -2.54642 0.699424 0 CHG=-1
M  V30 12 O 4.08154 -0.638092 0.625385 0
M  V30 13 H -1.97706 -1.6252 1.2247 0
M  V30 14 H -3.31005 -0.668667 0.663958 0
M  V30 15 H -2.32779 -0.249142 -1.43944 0
M  V30 16 H -1.39547 -1.74959 -1.28487 0
M  V30 17 H 0.388091 -2.07946 0.267878 0
M  V30 18 H 2.9017 1.36439 0.645922 0
M  V30 19 H 0.936512 2.82963 -0.00267295 0
M  V30 20 H -1.35474 3.00221 -0.650783 0
M  V30 21 H -2.37247 1.62933 -1.01381 0
M  V30 END ATOM
M  V30 BEGIN BOND
M  V30 1 1 1 2
M  V30 2 1 2 3
M  V30 3 2 3 4
M  V30 4 1 4 5
M  V30 5 2 5 6
M  V30 6 1 6 7
M  V30 7 2 7 8
M  V30 8 1 8 9
M  V30 9 1 5 10
M  V30 10 1 10 11
M  V30 11 2 10 12
M  V30 12 1 8 3
M  V30 13 1 1 13
M  V30 14 1 1 14
M  V30 15 1 2 15
M  V30 16 1 2 16
M  V30 17 1 4 17
M  V30 18 1 6 18
M  V30 19 1 7 19
M  V30 20 1 9 20
M  V30 21 1 9 21
M  V30 END BOND
M  V30 END CTAB
M  END
