
     RDKit          3D

  0  0  0  0  0  0  0  0  0  0999 V3000
M  V30 BEGIN CTAB
M  V30 COUNTS 51 54 0 0 0
M  V30 BEGIN ATOM
M  V30 1 C -1.38184 5.50471 0.564886 0
M  V30 2 C 0.0730503 5.07457 0.464993 0
M  V30 3 C 0.191673 3.60853 0.125595 0
M  V30 4 C -0.467388 2.74236 1.17865 0
M  V30 5 N -0.354502 1.33505 0.854173 0
M  V30 6 C 0.694607 0.585532 1.27134 0
M  V30 7 O 1.5921 1.16206 1.96737 0
M  V30 8 N 0.81825 -0.711341 0.983922 0
M  V30 9 C 1.96196 -1.46643 1.45603 0
M  V30 10 C 3.0879 -1.4466 0.506599 0
M  V30 11 N 4.01021 -0.470938 0.607386 0
M  V30 12 C 5.06704 -0.384602 -0.22177 0
M  V30 13 N 6.04835 0.640698 -0.126223 0
M  V30 14 N 5.22245 -1.30148 -1.19491 0
M  V30 15 C 4.30674 -2.30164 -1.32381 0
M  V30 16 N 3.26947 -2.3482 -0.47504 0
M  V30 17 N 4.49928 -3.25492 -2.36221 0
M  V30 18 C -0.162629 -1.27206 0.242581 0
M  V30 19 O -0.0945227 -2.4894 -0.056354 0
M  V30 20 C -1.25576 -0.566028 -0.212794 0
M  V30 21 C -1.33981 0.793579 0.115581 0
M  V30 22 N -2.49015 1.26944 -0.439762 0
M  V30 23 C -3.08766 0.25405 -1.07971 0
M  V30 24 N -2.34689 -0.850098 -0.944072 0
M  V30 25 C -2.69475 -2.11421 -1.49744 0
M  V30 26 C -3.5401 -2.95405 -0.594924 0
M  V30 27 C -4.91539 -2.90256 -0.577384 0
M  V30 28 C -5.33931 -3.80685 0.369328 0
M  V30 29 C -4.19766 -4.37386 0.891097 0
M  V30 30 O -3.1754 -3.84203 0.294851 0
M  V30 31 H -1.59774 6.37192 -0.10178 0
M  V30 32 H -2.07196 4.67104 0.264817 0
M  V30 33 H -1.61983 5.77775 1.6069 0
M  V30 34 H 0.545875 5.70421 -0.307796 0
M  V30 35 H 0.602753 5.2254 1.44104 0
M  V30 36 H -0.373732 3.43682 -0.818176 0
M  V30 37 H 1.24221 3.37156 -0.0262173 0
M  V30 38 H -1.51684 3.03772 1.35363 0
M  V30 39 H 0.0987643 2.92211 2.12848 0
M  V30 40 H 2.33411 -1.062 2.42369 0
M  V30 41 H 1.69975 -2.52954 1.65107 0
M  V30 42 H 6.92303 0.499362 0.431023 0
M  V30 43 H 5.8747 1.54026 -0.626734 0
M  V30 44 H 4.13556 -4.23024 -2.28973 0
M  V30 45 H 5.01258 -3.01152 -3.23552 0
M  V30 46 H -4.01509 0.341203 -1.61004 0
M  V30 47 H -1.8347 -2.74531 -1.77848 0
M  V30 48 H -3.27714 -1.98417 -2.43946 0
M  V30 49 H -5.57855 -2.2785 -1.18194 0
M  V30 50 H -6.38321 -4.02835 0.649222 0
M  V30 51 H -4.19984 -5.14302 1.67805 0
M  V30 END ATOM
M  V30 BEGIN BOND
M  V30 1 1 1 2
M  V30 2 1 2 3
M  V30 3 1 3 4
M  V30 4 1 4 5
M  V30 5 1 5 6
M  V30 6 2 6 7
M  V30 7 1 6 8
M  V30 8 1 8 9
M  V30 9 1 9 10
M  V30 10 2 10 11
M  V30 11 1 11 12
M  V30 12 1 12 13
M  V30 13 2 12 14
M  V30 14 1 14 15
M  V30 15 2 15 16
M  V30 16 1 15 17
M  V30 17 1 8 18
M  V30 18 2 18 19
M  V30 19 1 18 20
M  V30 20 2 20 21
M  V30 21 1 21 22
M  V30 22 2 22 23
M  V30 23 1 23 24
M  V30 24 1 24 25
M  V30 25 1 25 26
M  V30 26 2 26 27
M  V30 27 1 27 28
M  V30 28 2 28 29
M  V30 29 1 29 30
M  V30 30 1 21 5
M  V30 31 1 30 26
M  V30 32 1 16 10
M  V30 33 1 24 20
M  V30 34 1 1 31
M  V30 35 1 1 32
M  V30 36 1 1 33
M  V30 37 1 2 34
M  V30 38 1 2 35
M  V30 39 1 3 36
M  V30 40 1 3 37
M  V30 41 1 4 38
M  V30 42 1 4 39
M  V30 43 1 9 40
M  V30 44 1 9 41
M  V30 45 1 13 42
M  V30 46 1 13 43
M  V30 47 1 17 44
M  V30 48 1 17 45
M  V30 49 1 23 46
M  V30 50 1 25 47
M  V30 51 1 25 48
M  V30 52 1 27 49
M  V30 53 1 28 50
M  V30 54 1 29 51
M  V30 END BOND
M  V30 END CTAB
M  END
