
     RDKit          3D

  0  0  0  0  0  0  0  0  0  0999 V3000
M  V30 BEGIN CTAB
M  V30 COUNTS 20 20 0 0 0
M  V30 BEGIN ATOM
M  V30 1 N -3.30735 -0.163463 -1.32476 0
M  V30 2 N -2.5289 0.0545037 -0.21575 0
M  V30 3 C -1.11799 0.309609 -0.254647 0
M  V30 4 O -0.606374 0.326096 -1.38159 0
M  V30 5 C -0.352031 0.53108 0.944854 0
M  V30 6 C 0.981506 0.541216 1.16045 0
M  V30 7 N 1.14146 0.926945 2.48869 0
M  V30 8 N -0.033826 1.1322 3.03776 0
M  V30 9 N -0.958253 0.899892 2.12886 0
M  V30 10 C 2.06791 0.148013 0.301216 0
M  V30 11 O 3.1644 0.810356 0.477267 0
M  V30 12 N 2.09856 -0.848243 -0.682572 0
M  V30 13 N 3.28462 -1.053 -1.42341 0
M  V30 14 H -2.78238 -0.402493 -2.19315 0
M  V30 15 H -4.07155 -0.873063 -1.16871 0
M  V30 16 H -2.98645 0.0347865 0.719336 0
M  V30 17 H -1.98565 0.982306 2.28223 0
M  V30 18 H 1.26641 -1.47173 -0.855032 0
M  V30 19 H 3.59701 -0.137024 -1.86649 0
M  V30 20 H 3.12889 -1.74798 -2.17456 0
M  V30 END ATOM
M  V30 BEGIN BOND
M  V30 1 1 1 2
M  V30 2 1 2 3
M  V30 3 2 3 4
M  V30 4 1 3 5
M  V30 5 2 5 6
M  V30 6 1 6 7
M  V30 7 2 7 8
M  V30 8 1 8 9
M  V30 9 1 6 10
M  V30 10 2 10 11
M  V30 11 1 10 12
M  V30 12 1 12 13
M  V30 13 1 9 5
M  V30 14 1 1 14
M  V30 15 1 1 15
M  V30 16 1 2 16
M  V30 17 1 9 17
M  V30 18 1 12 18
M  V30 19 1 13 19
M  V30 20 1 13 20
M  V30 END BOND
M  V30 END CTAB
M  END
