
     RDKit          3D

  0  0  0  0  0  0  0  0  0  0999 V3000
M  V30 BEGIN CTAB
M  V30 COUNTS 35 37 0 0 0
M  V30 BEGIN ATOM
M  V30 1 C 5.83137 -0.162699 -1.57786 0
M  V30 2 S 4.6323 -1.5112 -1.6886 0
M  V30 3 C 3.08241 -1.03544 -0.965193 0
M  V30 4 N 2.05965 -1.89257 -0.945217 0
M  V30 5 C 0.85579 -1.60368 -0.415015 0
M  V30 6 N -0.194728 -2.55974 -0.417659 0
M  V30 7 C 0.664978 -0.323721 0.15063 0
M  V30 8 C 1.70008 0.557555 0.136307 0
M  V30 9 N 2.89666 0.17224 -0.429088 0
M  V30 10 O 1.62913 1.86093 0.671615 0
M  V30 11 C 0.40017 2.18444 1.22494 0
M  V30 12 C -0.633035 1.40103 1.27503 0
M  V30 13 C -0.608876 0.0484086 0.733113 0
M  V30 14 C -1.79405 -0.272072 -0.0794855 0
M  V30 15 C -1.91666 0.21015 -1.35315 0
M  V30 16 C -3.05516 -0.081952 -2.08491 0
M  V30 17 C -4.08052 -0.851934 -1.56482 0
M  V30 18 C -3.94058 -1.33214 -0.274357 0
M  V30 19 C -2.78947 -1.0318 0.453873 0
M  V30 20 F -5.17618 -1.11205 -2.31784 0
M  V30 21 C -1.87817 1.89207 1.90152 0
M  V30 22 N -2.86269 2.2568 2.38754 0
M  V30 23 N 0.219244 3.51117 1.80946 0
M  V30 24 H 5.36345 0.788718 -1.24909 0
M  V30 25 H 6.29338 0.0513983 -2.56587 0
M  V30 26 H 6.60042 -0.46149 -0.821723 0
M  V30 27 H -0.763941 -2.72962 -1.26027 0
M  V30 28 H -0.383216 -3.08935 0.44696 0
M  V30 29 H -0.698587 -0.636805 1.66083 0
M  V30 30 H -1.16834 0.822805 -1.8506 0
M  V30 31 H -3.15026 0.307315 -3.10825 0
M  V30 32 H -4.74133 -1.92925 0.122038 0
M  V30 33 H -2.74345 -1.43664 1.45262 0
M  V30 34 H 1.04979 4.03628 2.17358 0
M  V30 35 H -0.699592 3.95283 1.87768 0
M  V30 END ATOM
M  V30 BEGIN BOND
M  V30 1 1 1 2
M  V30 2 1 2 3
M  V30 3 2 3 4
M  V30 4 1 4 5
M  V30 5 1 5 6
M  V30 6 2 5 7
M  V30 7 1 7 8
M  V30 8 2 8 9
M  V30 9 1 8 10
M  V30 10 1 10 11
M  V30 11 2 11 12
M  V30 12 1 12 13
M  V30 13 1 13 14
M  V30 14 2 14 15
M  V30 15 1 15 16
M  V30 16 2 16 17
M  V30 17 1 17 18
M  V30 18 2 18 19
M  V30 19 1 17 20
M  V30 20 1 12 21
M  V30 21 3 21 22
M  V30 22 1 11 23
M  V30 23 1 9 3
M  V30 24 1 19 14
M  V30 25 1 13 7
M  V30 26 1 1 24
M  V30 27 1 1 25
M  V30 28 1 1 26
M  V30 29 1 6 27
M  V30 30 1 6 28
M  V30 31 1 13 29
M  V30 32 1 15 30
M  V30 33 1 16 31
M  V30 34 1 18 32
M  V30 35 1 19 33
M  V30 36 1 23 34
M  V30 37 1 23 35
M  V30 END BOND
M  V30 END CTAB
M  END
