
     RDKit          3D

  0  0  0  0  0  0  0  0  0  0999 V3000
M  V30 BEGIN CTAB
M  V30 COUNTS 52 55 0 0 0
M  V30 BEGIN ATOM
M  V30 1 N 8.97555 -0.169361 1.85448 0
M  V30 2 C 7.95174 0.30152 0.984886 0
M  V30 3 C 7.28053 1.48843 1.19567 0
M  V30 4 C 6.28558 1.91955 0.327002 0
M  V30 5 C 5.95612 1.16453 -0.758953 0
M  V30 6 C 6.63062 -0.0258763 -0.968698 0
M  V30 7 C 7.61967 -0.46271 -0.112564 0
M  V30 8 S 4.71037 1.70373 -1.84671 0
M  V30 9 O 4.73447 3.22001 -1.83375 0
M  V30 10 O 5.05176 1.28158 -3.24663 0
M  V30 11 C 3.17424 1.09213 -1.32384 0
M  V30 12 C 2.35685 1.77876 -0.448813 0
M  V30 13 C 1.12862 1.2446 -0.0571519 0
M  V30 14 C 0.689694 0.0276723 -0.522081 0
M  V30 15 C 1.49911 -0.661466 -1.39399 0
M  V30 16 C 2.7194 -0.135088 -1.78567 0
M  V30 17 C -0.595531 -0.528263 -0.11044 0
M  V30 18 C -1.33551 -1.33801 -0.949932 0
M  V30 19 C -2.55197 -1.86975 -0.57191 0
M  V30 20 C -3.07753 -1.60048 0.688886 0
M  V30 21 C -2.3392 -0.792919 1.52561 0
M  V30 22 C -1.11347 -0.264286 1.12894 0
M  V30 23 S -4.61808 -2.26878 1.17944 0
M  V30 24 O -4.76393 -3.62441 0.540631 0
M  V30 25 O -4.56015 -2.49548 2.68066 0
M  V30 26 C -5.94929 -1.24583 0.785871 0
M  V30 27 C -6.37575 -0.301334 1.68822 0
M  V30 28 C -7.44301 0.546873 1.41959 0
M  V30 29 C -8.08803 0.440057 0.224518 0
M  V30 30 C -7.6937 -0.48472 -0.695515 0
M  V30 31 C -6.6169 -1.33437 -0.414296 0
M  V30 32 N -9.1877 1.33669 -0.0140877 0
M  V30 33 H 8.99504 -1.16869 2.18003 0
M  V30 34 H 9.69886 0.528725 2.14723 0
M  V30 35 H 7.55677 2.07556 2.06539 0
M  V30 36 H 5.77914 2.84491 0.512437 0
M  V30 37 H 6.35742 -0.603187 -1.82592 0
M  V30 38 H 8.13775 -1.40985 -0.302935 0
M  V30 39 H 2.69724 2.74699 -0.0737578 0
M  V30 40 H 0.526984 1.80445 0.619041 0
M  V30 41 H 1.17303 -1.61743 -1.76992 0
M  V30 42 H 3.36757 -0.673097 -2.47564 0
M  V30 43 H -0.936313 -1.55126 -1.92692 0
M  V30 44 H -3.11337 -2.50371 -1.25194 0
M  V30 45 H -2.74165 -0.58021 2.5055 0
M  V30 46 H -0.608313 0.358289 1.85523 0
M  V30 47 H -5.8709 -0.212215 2.63283 0
M  V30 48 H -7.72913 1.26894 2.17246 0
M  V30 49 H -8.21817 -0.546189 -1.62504 0
M  V30 50 H -6.31251 -2.06051 -1.14513 0
M  V30 51 H -9.6802 1.81435 0.756402 0
M  V30 52 H -9.5338 1.54113 -0.986221 0
M  V30 END ATOM
M  V30 BEGIN BOND
M  V30 1 1 1 2
M  V30 2 2 2 3
M  V30 3 1 3 4
M  V30 4 2 4 5
M  V30 5 1 5 6
M  V30 6 2 6 7
M  V30 7 1 5 8
M  V30 8 2 8 9
M  V30 9 2 8 10
M  V30 10 1 8 11
M  V30 11 2 11 12
M  V30 12 1 12 13
M  V30 13 2 13 14
M  V30 14 1 14 15
M  V30 15 2 15 16
M  V30 16 1 14 17
M  V30 17 2 17 18
M  V30 18 1 18 19
M  V30 19 2 19 20
M  V30 20 1 20 21
M  V30 21 2 21 22
M  V30 22 1 20 23
M  V30 23 2 23 24
M  V30 24 2 23 25
M  V30 25 1 23 26
M  V30 26 2 26 27
M  V30 27 1 27 28
M  V30 28 2 28 29
M  V30 29 1 29 30
M  V30 30 2 30 31
M  V30 31 1 29 32
M  V30 32 1 7 2
M  V30 33 1 16 11
M  V30 34 1 22 17
M  V30 35 1 31 26
M  V30 36 1 1 33
M  V30 37 1 1 34
M  V30 38 1 3 35
M  V30 39 1 4 36
M  V30 40 1 6 37
M  V30 41 1 7 38
M  V30 42 1 12 39
M  V30 43 1 13 40
M  V30 44 1 15 41
M  V30 45 1 16 42
M  V30 46 1 18 43
M  V30 47 1 19 44
M  V30 48 1 21 45
M  V30 49 1 22 46
M  V30 50 1 27 47
M  V30 51 1 28 48
M  V30 52 1 30 49
M  V30 53 1 31 50
M  V30 54 1 32 51
M  V30 55 1 32 52
M  V30 END BOND
M  V30 END CTAB
M  END
