
     RDKit          3D

  0  0  0  0  0  0  0  0  0  0999 V3000
M  V30 BEGIN CTAB
M  V30 COUNTS 26 26 0 0 0
M  V30 BEGIN ATOM
M  V30 1 N 3.95126 -0.106334 -0.729175 0
M  V30 2 C 2.57553 0.275814 -0.78896 0
M  V30 3 C 1.85515 -0.283751 0.380099 0
M  V30 4 O 2.47835 -0.973432 1.22341 0
M  V30 5 N 0.465868 -0.0311666 0.530436 0
M  V30 6 C -0.233347 -0.592834 1.69453 0
M  V30 7 C -1.42234 -1.34473 1.10205 0
M  V30 8 C -2.34071 -0.255178 0.540664 0
M  V30 9 C -1.65394 0.322781 -0.668664 0
M  V30 10 C -0.250682 0.752721 -0.424799 0
M  V30 11 N -2.49243 1.44187 -1.12307 0
M  V30 12 H 4.34775 -0.136856 0.227457 0
M  V30 13 H 4.55595 0.314632 -1.43813 0
M  V30 14 H 2.42776 1.37539 -0.861527 0
M  V30 15 H 2.12921 -0.215754 -1.69978 0
M  V30 16 H 0.400269 -1.29729 2.23645 0
M  V30 17 H -0.646219 0.218393 2.30732 0
M  V30 18 H -1.1163 -1.95284 0.219534 0
M  V30 19 H -1.89391 -1.92536 1.89253 0
M  V30 20 H -3.30894 -0.684327 0.199055 0
M  V30 21 H -2.46215 0.480234 1.3524 0
M  V30 22 H -1.6715 -0.485167 -1.45707 0
M  V30 23 H 0.304164 0.658772 -1.40369 0
M  V30 24 H -0.142451 1.82588 -0.14355 0
M  V30 25 H -3.49636 1.14649 -0.992016 0
M  V30 26 H -2.35999 1.47205 -2.1755 0
M  V30 END ATOM
M  V30 BEGIN BOND
M  V30 1 1 1 2
M  V30 2 1 2 3
M  V30 3 2 3 4
M  V30 4 1 3 5
M  V30 5 1 5 6
M  V30 6 1 6 7
M  V30 7 1 7 8
M  V30 8 1 8 9
M  V30 9 1 9 10
M  V30 10 1 9 11
M  V30 11 1 10 5
M  V30 12 1 1 12
M  V30 13 1 1 13
M  V30 14 1 2 14
M  V30 15 1 2 15
M  V30 16 1 6 16
M  V30 17 1 6 17
M  V30 18 1 7 18
M  V30 19 1 7 19
M  V30 20 1 8 20
M  V30 21 1 8 21
M  V30 22 1 9 22
M  V30 23 1 10 23
M  V30 24 1 10 24
M  V30 25 1 11 25
M  V30 26 1 11 26
M  V30 END BOND
M  V30 END CTAB
M  END
