
     RDKit          3D

  0  0  0  0  0  0  0  0  0  0999 V3000
M  V30 BEGIN CTAB
M  V30 COUNTS 22 22 0 0 0
M  V30 BEGIN ATOM
M  V30 1 F -3.0505 -1.29357 -1.09595 0
M  V30 2 C -2.45535 -1.27868 0.173157 0
M  V30 3 C -1.16427 -0.551121 0.0669791 0
M  V30 4 C 0.0345602 -1.16565 0.361356 0
M  V30 5 C 1.24103 -0.504203 0.267739 0
M  V30 6 C 2.53386 -1.18245 0.589929 0
M  V30 7 C 1.19651 0.813591 -0.137658 0
M  V30 8 C -0.00744477 1.41902 -0.429721 0
M  V30 9 C -1.21756 0.766715 -0.339213 0
M  V30 10 N -2.4578 1.41027 -0.64611 0
M  V30 11 N 2.42325 1.51884 -0.242836 0
M  V30 12 F -3.35527 -0.636238 0.995642 0
M  V30 13 H -2.22362 -2.30784 0.507366 0
M  V30 14 H 0.0779759 -2.21555 0.685047 0
M  V30 15 H 3.00464 -1.61721 -0.329338 0
M  V30 16 H 3.23664 -0.506873 1.12178 0
M  V30 17 H 2.33516 -2.04025 1.25586 0
M  V30 18 H -0.0535082 2.46834 -0.753475 0
M  V30 19 H -2.90912 1.37495 -1.5787 0
M  V30 20 H -2.95985 1.95381 0.0917448 0
M  V30 21 H 2.48608 2.52572 0.00193142 0
M  V30 22 H 3.28458 1.04836 -0.565522 0
M  V30 END ATOM
M  V30 BEGIN BOND
M  V30 1 1 1 2
M  V30 2 1 2 3
M  V30 3 2 3 4
M  V30 4 1 4 5
M  V30 5 1 5 6
M  V30 6 2 5 7
M  V30 7 1 7 8
M  V30 8 2 8 9
M  V30 9 1 9 10
M  V30 10 1 7 11
M  V30 11 1 2 12
M  V30 12 1 9 3
M  V30 13 1 2 13
M  V30 14 1 4 14
M  V30 15 1 6 15
M  V30 16 1 6 16
M  V30 17 1 6 17
M  V30 18 1 8 18
M  V30 19 1 10 19
M  V30 20 1 10 20
M  V30 21 1 11 21
M  V30 22 1 11 22
M  V30 END BOND
M  V30 END CTAB
M  END
