
     RDKit          3D

  0  0  0  0  0  0  0  0  0  0999 V3000
M  V30 BEGIN CTAB
M  V30 COUNTS 39 42 0 0 0
M  V30 BEGIN ATOM
M  V30 1 N 4.23945 -2.37045 -0.633317 0
M  V30 2 N 4.51376 -1.00827 -0.447742 0
M  V30 3 C 3.41241 -0.139844 -0.0633243 0
M  V30 4 N 3.70715 1.15452 0.137668 0
M  V30 5 C 2.69503 2.0324 0.390042 0
M  V30 6 N 2.92037 3.40726 0.637762 0
M  V30 7 N 1.46398 1.50544 0.408565 0
M  V30 8 C 1.15815 0.229525 0.218475 0
M  V30 9 N 2.15379 -0.642546 -0.0273647 0
M  V30 10 C -0.281872 -0.0811619 0.183759 0
M  V30 11 C -0.982783 0.622902 1.30036 0
M  V30 12 C -2.48067 0.529055 1.0978 0
M  V30 13 C -2.85186 -0.946176 1.11638 0
M  V30 14 C -2.11233 -1.67581 0.022617 0
M  V30 15 C -0.580231 -1.54213 0.214979 0
M  V30 16 C -2.47119 -1.10113 -1.32616 0
M  V30 17 C -2.1929 0.365905 -1.33218 0
M  V30 18 C -0.744677 0.5561 -1.14033 0
M  V30 19 C -2.91532 1.07706 -0.226299 0
M  V30 20 H 3.94512 -2.80425 0.252159 0
M  V30 21 H 4.96185 -2.86299 -1.15999 0
M  V30 22 H 5.44652 -0.638638 -0.626185 0
M  V30 23 H 2.15457 3.9655 1.08834 0
M  V30 24 H 3.76438 3.91934 0.375462 0
M  V30 25 H -0.777489 0.0465455 2.24858 0
M  V30 26 H -0.63648 1.6551 1.45655 0
M  V30 27 H -2.96923 1.01941 1.94344 0
M  V30 28 H -3.92626 -1.03913 0.900518 0
M  V30 29 H -2.53747 -1.3833 2.07584 0
M  V30 30 H -2.44805 -2.72719 0.0206997 0
M  V30 31 H -0.380283 -1.91158 1.22338 0
M  V30 32 H -0.125332 -2.12732 -0.583058 0
M  V30 33 H -3.52355 -1.27264 -1.60407 0
M  V30 34 H -1.78333 -1.59121 -2.06941 0
M  V30 35 H -2.50615 0.822573 -2.31593 0
M  V30 36 H -0.50019 1.65338 -0.997297 0
M  V30 37 H -0.0747846 0.229691 -1.96339 0
M  V30 38 H -3.99911 0.903381 -0.350509 0
M  V30 39 H -2.73499 2.17067 -0.331549 0
M  V30 END ATOM
M  V30 BEGIN BOND
M  V30 1 1 1 2
M  V30 2 1 2 3
M  V30 3 2 3 4
M  V30 4 1 4 5
M  V30 5 1 5 6
M  V30 6 2 5 7
M  V30 7 1 7 8
M  V30 8 2 8 9
M  V30 9 1 8 10
M  V30 10 1 10 11
M  V30 11 1 11 12
M  V30 12 1 12 13
M  V30 13 1 13 14
M  V30 14 1 14 15
M  V30 15 1 14 16
M  V30 16 1 16 17
M  V30 17 1 17 18
M  V30 18 1 17 19
M  V30 19 1 9 3
M  V30 20 1 18 10
M  V30 21 1 15 10
M  V30 22 1 19 12
M  V30 23 1 1 20
M  V30 24 1 1 21
M  V30 25 1 2 22
M  V30 26 1 6 23
M  V30 27 1 6 24
M  V30 28 1 11 25
M  V30 29 1 11 26
M  V30 30 1 12 27
M  V30 31 1 13 28
M  V30 32 1 13 29
M  V30 33 1 14 30
M  V30 34 1 15 31
M  V30 35 1 15 32
M  V30 36 1 16 33
M  V30 37 1 16 34
M  V30 38 1 17 35
M  V30 39 1 18 36
M  V30 40 1 18 37
M  V30 41 1 19 38
M  V30 42 1 19 39
M  V30 END BOND
M  V30 END CTAB
M  END
