
     RDKit          3D

  0  0  0  0  0  0  0  0  0  0999 V3000
M  V30 BEGIN CTAB
M  V30 COUNTS 79 84 0 0 0
M  V30 BEGIN ATOM
M  V30 1 C 2.22201 -3.58736 1.54638 0
M  V30 2 C 3.02951 -3.197 0.350489 0
M  V30 3 O 3.45001 -1.85949 0.350162 0
M  V30 4 C 2.65284 -0.745202 0.361041 0
M  V30 5 C 3.31407 0.479997 0.362956 0
M  V30 6 C 2.54017 1.61457 0.373224 0
M  V30 7 C 1.1586 1.54985 0.381415 0
M  V30 8 C 0.495889 0.346367 0.379545 0
M  V30 9 C 1.25716 -0.805465 0.369152 0
M  V30 10 C -0.956515 0.227121 0.388248 0
M  V30 11 C -1.56828 -0.843641 -0.229119 0
M  V30 12 C -2.95427 -0.984072 -0.236647 0
M  V30 13 C -3.76642 -0.0527926 0.375872 0
M  V30 14 C -3.14492 1.01865 0.993069 0
M  V30 15 C -1.77255 1.15985 1.00184 0
M  V30 16 N -5.17363 -0.145471 0.399136 0
M  V30 17 N -5.88735 -0.484675 -0.57027 0
M  V30 18 C -7.31079 -0.544779 -0.433829 0
M  V30 19 C -8.10903 0.580751 -0.447919 0
M  V30 20 O -7.49593 1.8197 -0.602046 0
M  V30 21 C -9.48987 0.47389 -0.311198 0
M  V30 22 C -10.2742 1.6076 -0.32712 0
M  V30 23 C -11.6432 1.51073 -0.19219 0
M  V30 24 N -12.4036 2.70933 -0.215399 0
M  V30 25 C -12.2472 0.257676 -0.0377788 0
M  V30 26 C -11.4803 -0.876604 -0.020175 0
M  V30 27 C -10.1022 -0.754127 -0.157968 0
M  V30 28 C -9.29963 -1.86878 -0.145178 0
M  V30 29 C -7.91554 -1.77259 -0.281363 0
M  V30 30 S -6.91615 -3.2021 -0.262457 0
M  V30 31 O -5.8039 -3.18229 0.972252 0
M  V30 32 O -7.78986 -4.41786 -0.106271 0
M  V30 33 O -6.21243 -3.28577 -1.59382 0
M  V30 34 N 4.73546 0.51638 0.354632 0
M  V30 35 N 5.42921 1.32525 -0.301819 0
M  V30 36 C 6.85165 1.351 -0.30139 0
M  V30 37 C 7.5649 0.358638 -0.92283 0
M  V30 38 O 6.94902 -0.713303 -1.57938 0
M  V30 39 C 8.93447 0.41553 -0.90224 0
M  V30 40 C 9.68399 -0.575038 -1.52283 0
M  V30 41 C 11.0567 -0.497392 -1.48934 0
M  V30 42 N 11.7843 -1.53363 -2.13804 0
M  V30 43 C 11.7407 0.529497 -0.861445 0
M  V30 44 C 10.9757 1.49863 -0.253933 0
M  V30 45 C 9.58361 1.4533 -0.267242 0
M  V30 46 C 8.83481 2.44568 0.354563 0
M  V30 47 C 7.4558 2.40696 0.345329 0
M  V30 48 S 6.51819 3.66831 1.13529 0
M  V30 49 O 5.52528 4.45256 0.0367411 0
M  V30 50 O 7.45357 4.66851 1.71346 0
M  V30 51 O 5.69016 3.09146 2.269 0
M  V30 52 H 2.7255 -4.38304 2.1312 0
M  V30 53 H 2.08324 -2.73128 2.23463 0
M  V30 54 H 1.19717 -3.93997 1.24053 0
M  V30 55 H 3.91138 -3.88272 0.26079 0
M  V30 56 H 2.4378 -3.33397 -0.600212 0
M  V30 57 H 3.03967 2.59121 0.37484 0
M  V30 58 H 0.587263 2.47792 0.38956 0
M  V30 59 H 0.745634 -1.74965 0.36377 0
M  V30 60 H -0.982701 -1.6043 -0.725016 0
M  V30 61 H -3.43931 -1.82384 -0.720506 0
M  V30 62 H -3.77103 1.76761 1.48417 0
M  V30 63 H -1.27092 2.00201 1.48642 0
M  V30 64 H -6.50671 1.90796 -0.700833 0
M  V30 65 H -9.81659 2.57739 -0.445847 0
M  V30 66 H -12.0408 3.57322 0.195172 0
M  V30 67 H -13.34 2.67896 -0.663131 0
M  V30 68 H -13.3068 0.184491 0.0665031 0
M  V30 69 H -11.9331 -1.87141 0.100095 0
M  V30 70 H -9.78433 -2.82977 -0.0248263 0
M  V30 71 H -6.15811 -3.57536 1.80618 0
M  V30 72 H 5.93743 -0.725004 -1.57627 0
M  V30 73 H 9.15325 -1.38725 -2.01962 0
M  V30 74 H 11.6569 -2.5142 -1.82321 0
M  V30 75 H 12.4266 -1.26883 -2.91475 0
M  V30 76 H 12.8325 0.558687 -0.854894 0
M  V30 77 H 11.4517 2.33205 0.256498 0
M  V30 78 H 9.35404 3.25736 0.851064 0
M  V30 79 H 5.6401 4.10335 -0.889956 0
M  V30 END ATOM
M  V30 BEGIN BOND
M  V30 1 1 1 2
M  V30 2 1 2 3
M  V30 3 1 3 4
M  V30 4 2 4 5
M  V30 5 1 5 6
M  V30 6 2 6 7
M  V30 7 1 7 8
M  V30 8 2 8 9
M  V30 9 1 8 10
M  V30 10 2 10 11
M  V30 11 1 11 12
M  V30 12 2 12 13
M  V30 13 1 13 14
M  V30 14 2 14 15
M  V30 15 1 13 16
M  V30 16 2 16 17
M  V30 17 1 17 18
M  V30 18 2 18 19
M  V30 19 1 19 20
M  V30 20 1 19 21
M  V30 21 2 21 22
M  V30 22 1 22 23
M  V30 23 1 23 24
M  V30 24 2 23 25
M  V30 25 1 25 26
M  V30 26 2 26 27
M  V30 27 1 27 28
M  V30 28 2 28 29
M  V30 29 1 29 30
M  V30 30 1 30 31
M  V30 31 2 30 32
M  V30 32 2 30 33
M  V30 33 1 5 34
M  V30 34 2 34 35
M  V30 35 1 35 36
M  V30 36 2 36 37
M  V30 37 1 37 38
M  V30 38 1 37 39
M  V30 39 2 39 40
M  V30 40 1 40 41
M  V30 41 1 41 42
M  V30 42 2 41 43
M  V30 43 1 43 44
M  V30 44 2 44 45
M  V30 45 1 45 46
M  V30 46 2 46 47
M  V30 47 1 47 48
M  V30 48 1 48 49
M  V30 49 2 48 50
M  V30 50 2 48 51
M  V30 51 1 9 4
M  V30 52 1 15 10
M  V30 53 1 29 18
M  V30 54 1 47 36
M  V30 55 1 27 21
M  V30 56 1 45 39
M  V30 57 1 1 52
M  V30 58 1 1 53
M  V30 59 1 1 54
M  V30 60 1 2 55
M  V30 61 1 2 56
M  V30 62 1 6 57
M  V30 63 1 7 58
M  V30 64 1 9 59
M  V30 65 1 11 60
M  V30 66 1 12 61
M  V30 67 1 14 62
M  V30 68 1 15 63
M  V30 69 1 20 64
M  V30 70 1 22 65
M  V30 71 1 24 66
M  V30 72 1 24 67
M  V30 73 1 25 68
M  V30 74 1 26 69
M  V30 75 1 28 70
M  V30 76 1 31 71
M  V30 77 1 38 72
M  V30 78 1 40 73
M  V30 79 1 42 74
M  V30 80 1 42 75
M  V30 81 1 43 76
M  V30 82 1 44 77
M  V30 83 1 46 78
M  V30 84 1 49 79
M  V30 END BOND
M  V30 END CTAB
M  END
