
     RDKit          3D

  0  0  0  0  0  0  0  0  0  0999 V3000
M  V30 BEGIN CTAB
M  V30 COUNTS 54 56 0 0 0
M  V30 BEGIN ATOM
M  V30 1 N -10.4107 0.163412 -0.813914 0
M  V30 2 C -9.02417 -0.043019 -0.547791 0
M  V30 3 N -8.10765 -0.0518255 -1.53315 0
M  V30 4 C -6.78936 -0.244092 -1.31533 0
M  V30 5 C -6.32764 -0.444136 -0.0308364 0
M  V30 6 C -4.97965 -0.641136 0.201205 0
M  V30 7 C -4.04937 -0.647338 -0.817099 0
M  V30 8 C -2.5837 -0.863278 -0.557925 0
M  V30 9 N -1.96586 0.403623 -0.224535 0
M  V30 10 C -0.55984 0.404995 0.0484531 0
M  V30 11 C 0.174596 -0.758846 -0.0291933 0
M  V30 12 C 1.51659 -0.77 0.229276 0
M  V30 13 C 2.1249 0.419114 0.57239 0
M  V30 14 C 1.39995 1.58659 0.65267 0
M  V30 15 C 0.0548406 1.59751 0.393549 0
M  V30 16 C 3.54804 0.406258 0.84215 0
M  V30 17 O 3.97935 0.272168 2.01984 0
M  V30 18 N 4.45215 0.546305 -0.232073 0
M  V30 19 C 5.92366 0.539952 -0.013529 0
M  V30 20 C 6.52611 -0.608106 -0.752163 0
M  V30 21 C 7.99694 -0.771933 -0.64688 0
M  V30 22 C 8.53001 -1.00111 0.704302 0
M  V30 23 O 9.90416 -1.09355 0.855212 0
M  V30 24 O 7.80368 -1.1136 1.70282 0
M  V30 25 C 6.39549 1.85875 -0.461894 0
M  V30 26 O 7.72342 2.19644 -0.348428 0
M  V30 27 O 5.59678 2.68388 -0.947348 0
M  V30 28 C -4.51292 -0.447147 -2.1002 0
M  V30 29 C -5.86459 -0.249416 -2.33532 0
M  V30 30 C -7.26862 -0.435185 0.982013 0
M  V30 31 N -6.79304 -0.640125 2.30182 0
M  V30 32 N -8.57959 -0.237827 0.709199 0
M  V30 33 H -11.1281 -0.540642 -0.535417 0
M  V30 34 H -10.7578 1.02175 -1.29471 0
M  V30 35 H -4.61975 -0.79729 1.20405 0
M  V30 36 H -2.09888 -1.3439 -1.43551 0
M  V30 37 H -2.44128 -1.53331 0.314849 0
M  V30 38 H -2.50424 1.29054 -0.179602 0
M  V30 39 H -0.34656 -1.69057 -0.3066 0
M  V30 40 H 2.10155 -1.69367 0.168083 0
M  V30 41 H 1.87599 2.51665 0.921103 0
M  V30 42 H -0.531922 2.51058 0.452412 0
M  V30 43 H 4.07885 0.656201 -1.19493 0
M  V30 44 H 6.07699 0.392732 1.08533 0
M  V30 45 H 6.27305 -0.573984 -1.85501 0
M  V30 46 H 6.0496 -1.55315 -0.380081 0
M  V30 47 H 8.29267 -1.63133 -1.33305 0
M  V30 48 H 8.59113 0.0903006 -1.074 0
M  V30 49 H 10.5014 -0.354406 1.14472 0
M  V30 50 H 8.01952 3.17254 -0.400764 0
M  V30 51 H -3.79269 -0.448688 -2.91951 0
M  V30 52 H -6.24353 -0.0908916 -3.34032 0
M  V30 53 H -7.29096 -1.30427 2.95218 0
M  V30 54 H -5.93897 -0.112517 2.6008 0
M  V30 END ATOM
M  V30 BEGIN BOND
M  V30 1 1 1 2
M  V30 2 2 2 3
M  V30 3 1 3 4
M  V30 4 2 4 5
M  V30 5 1 5 6
M  V30 6 2 6 7
M  V30 7 1 7 8
M  V30 8 1 8 9
M  V30 9 1 9 10
M  V30 10 2 10 11
M  V30 11 1 11 12
M  V30 12 2 12 13
M  V30 13 1 13 14
M  V30 14 2 14 15
M  V30 15 1 13 16
M  V30 16 2 16 17
M  V30 17 1 16 18
M  V30 18 1 18 19
M  V30 19 1 19 20
M  V30 20 1 20 21
M  V30 21 1 21 22
M  V30 22 1 22 23
M  V30 23 2 22 24
M  V30 24 1 19 25
M  V30 25 1 25 26
M  V30 26 2 25 27
M  V30 27 1 7 28
M  V30 28 2 28 29
M  V30 29 1 5 30
M  V30 30 1 30 31
M  V30 31 2 30 32
M  V30 32 1 32 2
M  V30 33 1 29 4
M  V30 34 1 15 10
M  V30 35 1 1 33
M  V30 36 1 1 34
M  V30 37 1 6 35
M  V30 38 1 8 36
M  V30 39 1 8 37
M  V30 40 1 9 38
M  V30 41 1 11 39
M  V30 42 1 12 40
M  V30 43 1 14 41
M  V30 44 1 15 42
M  V30 45 1 18 43
M  V30 46 1 19 44
M  V30 47 1 20 45
M  V30 48 1 20 46
M  V30 49 1 21 47
M  V30 50 1 21 48
M  V30 51 1 23 49
M  V30 52 1 26 50
M  V30 53 1 28 51
M  V30 54 1 29 52
M  V30 55 1 31 53
M  V30 56 1 31 54
M  V30 END BOND
M  V30 END CTAB
M  END
