
     RDKit          3D

  0  0  0  0  0  0  0  0  0  0999 V3000
M  V30 BEGIN CTAB
M  V30 COUNTS 73 74 0 0 0
M  V30 BEGIN ATOM
M  V30 1 C 0.31816 -4.24975 -1.90301 0
M  V30 2 O 0.0254466 -3.54959 -0.727282 0
M  V30 3 C -1.24271 -3.01818 -0.544864 0
M  V30 4 C -1.52003 -2.33257 0.61619 0
M  V30 5 O -0.537196 -2.18648 1.57171 0
M  V30 6 C 0.663958 -1.53113 1.41484 0
M  V30 7 C 1.5662 -1.59853 2.4627 0
M  V30 8 C 2.78282 -0.98067 2.40195 0
M  V30 9 C 3.16658 -0.252187 1.27328 0
M  V30 10 C 4.50077 0.406049 1.24563 0
M  V30 11 C 5.51986 -0.572216 0.661148 0 CFG=2
M  V30 12 N 5.5702 -1.75952 1.49225 0
M  V30 13 C 6.86335 0.0878431 0.614102 0
M  V30 14 O 7.80922 -0.431012 1.25711 0
M  V30 15 O 7.08289 1.23669 -0.109217 0
M  V30 16 C 8.38495 1.82446 -0.11919 0
M  V30 17 C 9.3431 0.797938 -0.689394 0
M  V30 18 C 8.79461 2.26195 1.2671 0
M  V30 19 C 8.33188 3.03693 -1.02235 0
M  V30 20 C 2.2806 -0.180662 0.233638 0
M  V30 21 C 1.04475 -0.815535 0.310795 0
M  V30 22 C -2.80189 -1.80398 0.789085 0
M  V30 23 C -3.757 -1.97552 -0.195333 0
M  V30 24 C -5.11013 -1.42702 -0.031502 0
M  V30 25 C -5.21047 -0.00504138 -0.584649 0 CFG=2
M  V30 26 N -4.28389 0.866687 0.111578 0
M  V30 27 C -6.59923 0.494414 -0.522393 0
M  V30 28 O -7.49077 -0.184313 -1.09416 0
M  V30 29 O -6.9824 1.64613 0.115409 0
M  V30 30 C -8.27884 2.15178 0.19761 0
M  V30 31 C -8.19842 3.45209 1.00763 0
M  V30 32 C -9.26824 1.2121 0.826519 0
M  V30 33 C -8.79157 2.56684 -1.17967 0
M  V30 34 C -3.47658 -2.666 -1.36499 0
M  V30 35 C -2.21328 -3.18826 -1.53742 0
M  V30 36 H -0.359513 -5.13408 -1.94869 0
M  V30 37 H 0.112579 -3.63542 -2.7944 0
M  V30 38 H 1.38109 -4.57176 -1.83962 0
M  V30 39 H 1.31376 -2.15123 3.35794 0
M  V30 40 H 3.49549 -1.02261 3.20617 0
M  V30 41 H 4.50466 1.29165 0.584025 0
M  V30 42 H 4.77443 0.673496 2.27792 0
M  V30 43 H 5.1978 -0.869093 -0.339318 0
M  V30 44 H 5.70043 -2.62044 0.947872 0
M  V30 45 H 6.16712 -1.64877 2.31972 0
M  V30 46 H 9.99237 1.2173 -1.48534 0
M  V30 47 H 10.0301 0.393418 0.0965377 0
M  V30 48 H 8.80273 -0.0834749 -1.11961 0
M  V30 49 H 9.211 3.29517 1.23405 0
M  V30 50 H 9.50446 1.54488 1.7258 0
M  V30 51 H 7.87738 2.31864 1.87686 0
M  V30 52 H 7.7411 2.86046 -1.93964 0
M  V30 53 H 9.37869 3.23168 -1.34623 0
M  V30 54 H 7.95097 3.93463 -0.489755 0
M  V30 55 H 2.56943 0.380565 -0.642676 0
M  V30 56 H 0.3838 -0.72133 -0.532031 0
M  V30 57 H -3.01672 -1.26927 1.69649 0
M  V30 58 H -5.36492 -1.46105 1.03848 0
M  V30 59 H -5.83324 -2.08062 -0.559273 0
M  V30 60 H -4.84028 -0.0757003 -1.63869 0
M  V30 61 H -4.68072 1.05604 1.0444 0
M  V30 62 H -4.2621 1.77193 -0.408931 0
M  V30 63 H -9.10442 4.05159 0.919103 0
M  V30 64 H -7.36496 4.02786 0.553624 0
M  V30 65 H -7.89367 3.21309 2.04042 0
M  V30 66 H -8.79258 0.488701 1.52282 0
M  V30 67 H -9.94887 1.83274 1.46655 0
M  V30 68 H -9.90428 0.741515 0.0649453 0
M  V30 69 H -9.19709 1.72233 -1.74833 0
M  V30 70 H -9.58683 3.34405 -0.986616 0
M  V30 71 H -7.98967 3.12148 -1.72373 0
M  V30 72 H -4.25026 -2.77977 -2.11326 0
M  V30 73 H -1.986 -3.72232 -2.43509 0
M  V30 END ATOM
M  V30 BEGIN BOND
M  V30 1 1 1 2
M  V30 2 1 2 3
M  V30 3 2 3 4
M  V30 4 1 4 5
M  V30 5 1 5 6
M  V30 6 2 6 7
M  V30 7 1 7 8
M  V30 8 2 8 9
M  V30 9 1 9 10
M  V30 10 1 10 11
M  V30 11 1 11 12
M  V30 12 1 11 13
M  V30 13 2 13 14
M  V30 14 1 13 15
M  V30 15 1 15 16
M  V30 16 1 16 17
M  V30 17 1 16 18
M  V30 18 1 16 19
M  V30 19 1 9 20
M  V30 20 2 20 21
M  V30 21 1 4 22
M  V30 22 2 22 23
M  V30 23 1 23 24
M  V30 24 1 24 25
M  V30 25 1 25 26
M  V30 26 1 25 27
M  V30 27 2 27 28
M  V30 28 1 27 29
M  V30 29 1 29 30
M  V30 30 1 30 31
M  V30 31 1 30 32
M  V30 32 1 30 33
M  V30 33 1 23 34
M  V30 34 2 34 35
M  V30 35 1 35 3
M  V30 36 1 21 6
M  V30 37 1 1 36
M  V30 38 1 1 37
M  V30 39 1 1 38
M  V30 40 1 7 39
M  V30 41 1 8 40
M  V30 42 1 10 41
M  V30 43 1 10 42
M  V30 44 1 11 43 CFG=3
M  V30 45 1 12 44
M  V30 46 1 12 45
M  V30 47 1 17 46
M  V30 48 1 17 47
M  V30 49 1 17 48
M  V30 50 1 18 49
M  V30 51 1 18 50
M  V30 52 1 18 51
M  V30 53 1 19 52
M  V30 54 1 19 53
M  V30 55 1 19 54
M  V30 56 1 20 55
M  V30 57 1 21 56
M  V30 58 1 22 57
M  V30 59 1 24 58
M  V30 60 1 24 59
M  V30 61 1 25 60 CFG=3
M  V30 62 1 26 61
M  V30 63 1 26 62
M  V30 64 1 31 63
M  V30 65 1 31 64
M  V30 66 1 31 65
M  V30 67 1 32 66
M  V30 68 1 32 67
M  V30 69 1 32 68
M  V30 70 1 33 69
M  V30 71 1 33 70
M  V30 72 1 33 71
M  V30 73 1 34 72
M  V30 74 1 35 73
M  V30 END BOND
M  V30 END CTAB
M  END
