
     RDKit          3D

  0  0  0  0  0  0  0  0  0  0999 V3000
M  V30 BEGIN CTAB
M  V30 COUNTS 50 52 0 0 0
M  V30 BEGIN ATOM
M  V30 1 O 0.861674 -2.33861 -0.25082 0
M  V30 2 C 1.63587 -1.63448 -0.967152 0
M  V30 3 N 1.54519 -0.282743 -1.24099 0
M  V30 4 C 0.553168 0.607072 -0.78845 0
M  V30 5 C -0.56501 0.220154 -0.0913451 0
M  V30 6 C -1.5559 1.11307 0.320901 0
M  V30 7 C -1.39747 2.43849 0.0127298 0
M  V30 8 C -0.291948 2.87645 -0.684113 0
M  V30 9 C 0.670765 1.98525 -1.08229 0
M  V30 10 Cl 2.06346 2.5115 -1.97823 0
M  V30 11 S -2.96356 0.539183 1.17354 0
M  V30 12 O -3.38078 1.6329 2.13221 0
M  V30 13 O -2.59197 -0.642872 2.04415 0
M  V30 14 N -4.2199 0.0811203 0.135095 0
M  V30 15 C -4.49837 -1.29582 0.170426 0
M  V30 16 C -5.82605 -1.71624 0.702569 0
M  V30 17 C -6.8398 -0.603488 0.819086 0
M  V30 18 C -6.58845 0.323209 -0.366911 0
M  V30 19 C -5.26968 1.00212 -0.065192 0
M  V30 20 C 2.76232 -2.4436 -1.56477 0
M  V30 21 S 3.96395 -1.38524 -2.34001 0
M  V30 22 C 5.06206 -0.660779 -1.16563 0
M  V30 23 N 4.85299 0.47197 -0.521657 0
M  V30 24 C 5.75299 0.993097 0.338059 0
M  V30 25 N 5.51104 2.20844 1.0162 0
M  V30 26 C 6.94975 0.340974 0.576635 0
M  V30 27 C 7.18108 -0.843456 -0.0887907 0
M  V30 28 N 6.24452 -1.29207 -0.919552 0
M  V30 29 N 8.38122 -1.57063 0.0853829 0
M  V30 30 H 2.28312 0.148848 -1.87628 0
M  V30 31 H -0.699073 -0.834519 0.15452 0
M  V30 32 H -2.13569 3.18631 0.303055 0
M  V30 33 H -0.130199 3.91152 -0.945913 0
M  V30 34 H -3.72921 -1.78153 0.847345 0
M  V30 35 H -4.29359 -1.7479 -0.835519 0
M  V30 36 H -6.26255 -2.45796 -0.0304474 0
M  V30 37 H -5.76603 -2.27992 1.65886 0
M  V30 38 H -7.87321 -1.00837 0.795296 0
M  V30 39 H -6.67811 0.00084242 1.73303 0
M  V30 40 H -7.39901 1.08678 -0.3876 0
M  V30 41 H -6.55499 -0.287067 -1.29313 0
M  V30 42 H -5.06479 1.68523 -0.916593 0
M  V30 43 H -5.45178 1.58734 0.883873 0
M  V30 44 H 3.20536 -3.09375 -0.761279 0
M  V30 45 H 2.34627 -3.13377 -2.34879 0
M  V30 46 H 6.13689 3.01354 0.803977 0
M  V30 47 H 4.75178 2.33209 1.7024 0
M  V30 48 H 7.69575 0.710622 1.24146 0
M  V30 49 H 8.39335 -2.58008 -0.145376 0
M  V30 50 H 9.22257 -1.09321 0.435268 0
M  V30 END ATOM
M  V30 BEGIN BOND
M  V30 1 2 1 2
M  V30 2 1 2 3
M  V30 3 1 3 4
M  V30 4 2 4 5
M  V30 5 1 5 6
M  V30 6 2 6 7
M  V30 7 1 7 8
M  V30 8 2 8 9
M  V30 9 1 9 10
M  V30 10 1 6 11
M  V30 11 2 11 12
M  V30 12 2 11 13
M  V30 13 1 11 14
M  V30 14 1 14 15
M  V30 15 1 15 16
M  V30 16 1 16 17
M  V30 17 1 17 18
M  V30 18 1 18 19
M  V30 19 1 2 20
M  V30 20 1 20 21
M  V30 21 1 21 22
M  V30 22 2 22 23
M  V30 23 1 23 24
M  V30 24 1 24 25
M  V30 25 2 24 26
M  V30 26 1 26 27
M  V30 27 2 27 28
M  V30 28 1 27 29
M  V30 29 1 9 4
M  V30 30 1 19 14
M  V30 31 1 28 22
M  V30 32 1 3 30
M  V30 33 1 5 31
M  V30 34 1 7 32
M  V30 35 1 8 33
M  V30 36 1 15 34
M  V30 37 1 15 35
M  V30 38 1 16 36
M  V30 39 1 16 37
M  V30 40 1 17 38
M  V30 41 1 17 39
M  V30 42 1 18 40
M  V30 43 1 18 41
M  V30 44 1 19 42
M  V30 45 1 19 43
M  V30 46 1 20 44
M  V30 47 1 20 45
M  V30 48 1 25 46
M  V30 49 1 25 47
M  V30 50 1 26 48
M  V30 51 1 29 49
M  V30 52 1 29 50
M  V30 END BOND
M  V30 END CTAB
M  END
