
     RDKit          3D

  0  0  0  0  0  0  0  0  0  0999 V3000
M  V30 BEGIN CTAB
M  V30 COUNTS 23 23 0 0 0
M  V30 BEGIN ATOM
M  V30 1 C 3.01087 0.93404 0.606675 0
M  V30 2 C 2.91014 -0.0754245 -0.491504 0
M  V30 3 O 1.98929 -1.0891 -0.320868 0
M  V30 4 C 0.645726 -0.882397 -0.202257 0
M  V30 5 C 0.043403 0.351781 -0.251654 0
M  V30 6 C -1.33771 0.528933 -0.12447 0
M  V30 7 N -1.87962 1.83801 -0.186434 0
M  V30 8 C -2.17252 -0.547697 0.0592469 0
M  V30 9 N -3.58411 -0.378238 0.190306 0
M  V30 10 C -1.57333 -1.78717 0.108991 0
M  V30 11 C -0.223552 -1.97652 -0.0136397 0
M  V30 12 H 2.34567 0.624487 1.43219 0
M  V30 13 H 4.05446 0.930967 1.03547 0
M  V30 14 H 2.84563 1.97342 0.265834 0
M  V30 15 H 2.74886 0.503191 -1.4494 0
M  V30 16 H 3.90964 -0.574253 -0.644208 0
M  V30 17 H 0.659312 1.24714 -0.406688 0
M  V30 18 H -2.30706 2.14991 -1.08111 0
M  V30 19 H -1.82996 2.4301 0.654939 0
M  V30 20 H -3.98215 -0.215966 1.14017 0
M  V30 21 H -4.25563 -0.405004 -0.60352 0
M  V30 22 H -2.23996 -2.63341 0.254296 0
M  V30 23 H 0.222605 -2.94681 0.027629 0
M  V30 END ATOM
M  V30 BEGIN BOND
M  V30 1 1 1 2
M  V30 2 1 2 3
M  V30 3 1 3 4
M  V30 4 2 4 5
M  V30 5 1 5 6
M  V30 6 1 6 7
M  V30 7 2 6 8
M  V30 8 1 8 9
M  V30 9 1 8 10
M  V30 10 2 10 11
M  V30 11 1 11 4
M  V30 12 1 1 12
M  V30 13 1 1 13
M  V30 14 1 1 14
M  V30 15 1 2 15
M  V30 16 1 2 16
M  V30 17 1 5 17
M  V30 18 1 7 18
M  V30 19 1 7 19
M  V30 20 1 9 20
M  V30 21 1 9 21
M  V30 22 1 10 22
M  V30 23 1 11 23
M  V30 END BOND
M  V30 END CTAB
M  END
