
     RDKit          3D

  0  0  0  0  0  0  0  0  0  0999 V3000
M  V30 BEGIN CTAB
M  V30 COUNTS 22 22 0 0 0
M  V30 BEGIN ATOM
M  V30 1 N 2.63581 -2.58198 0.925531 0
M  V30 2 C 1.99365 -1.3718 0.511991 0
M  V30 3 N 2.7102 -0.280767 0.182067 0
M  V30 4 C 2.13341 0.876033 -0.212002 0
M  V30 5 Cl 3.06322 2.29121 -0.639918 0
M  V30 6 C 0.759868 0.972838 -0.288867 0
M  V30 7 C 0.0226337 -0.138381 0.0469112 0
M  V30 8 N 0.653509 -1.27956 0.437711 0
M  V30 9 N -1.38429 -0.0418211 -0.0309791 0
M  V30 10 C -2.05964 0.941298 0.777581 0
M  V30 11 C -2.14819 -0.901902 -0.897297 0
M  V30 12 N 0.130592 2.16763 -0.696961 0
M  V30 13 H 3.61499 -2.57855 1.25401 0
M  V30 14 H 2.05284 -3.46409 0.873764 0
M  V30 15 H -2.58419 1.70895 0.136784 0
M  V30 16 H -1.41231 1.46243 1.47959 0
M  V30 17 H -2.87586 0.437134 1.35759 0
M  V30 18 H -1.57748 -1.8188 -1.18282 0
M  V30 19 H -3.0779 -1.2793 -0.405168 0
M  V30 20 H -2.41279 -0.390697 -1.8645 0
M  V30 21 H -0.084345 2.33181 -1.72217 0
M  V30 22 H -0.153718 2.93831 -0.0428501 0
M  V30 END ATOM
M  V30 BEGIN BOND
M  V30 1 1 1 2
M  V30 2 2 2 3
M  V30 3 1 3 4
M  V30 4 1 4 5
M  V30 5 2 4 6
M  V30 6 1 6 7
M  V30 7 2 7 8
M  V30 8 1 7 9
M  V30 9 1 9 10
M  V30 10 1 9 11
M  V30 11 1 6 12
M  V30 12 1 8 2
M  V30 13 1 1 13
M  V30 14 1 1 14
M  V30 15 1 10 15
M  V30 16 1 10 16
M  V30 17 1 10 17
M  V30 18 1 11 18
M  V30 19 1 11 19
M  V30 20 1 11 20
M  V30 21 1 12 21
M  V30 22 1 12 22
M  V30 END BOND
M  V30 END CTAB
M  END
