
     RDKit          3D

  0  0  0  0  0  0  0  0  0  0999 V3000
M  V30 BEGIN CTAB
M  V30 COUNTS 42 43 0 0 0
M  V30 BEGIN ATOM
M  V30 1 C 7.01547 0.6934 1.99991 0
M  V30 2 C 7.20601 0.598126 0.520272 0
M  V30 3 O 6.10519 0.0806864 -0.168742 0
M  V30 4 C 4.84075 0.629338 -0.181334 0
M  V30 5 O 4.66161 1.67833 0.478695 0
M  V30 6 C 3.72891 0.0338328 -0.926904 0
M  V30 7 C 2.48522 0.625492 -0.903853 0
M  V30 8 N 1.42578 0.100939 -1.58506 0
M  V30 9 C 1.59629 -1.01608 -2.29409 0
M  V30 10 N 2.78844 -1.61037 -2.33468 0
M  V30 11 C 3.8704 -1.11755 -1.6682 0
M  V30 12 N 5.14256 -1.74809 -1.70906 0
M  V30 13 S 0.218735 -1.69939 -3.18073 0
M  V30 14 S -0.836097 -3.04822 -1.95709 0
M  V30 15 C -2.1329 -2.23397 -1.0306 0
M  V30 16 N -2.92574 -2.91305 -0.189131 0
M  V30 17 C -3.88084 -2.2507 0.478641 0
M  V30 18 C -4.09386 -0.900781 0.346663 0
M  V30 19 C -3.27292 -0.213509 -0.520929 0
M  V30 20 N -2.32916 -0.914479 -1.1699 0
M  V30 21 N -3.46165 1.18617 -0.685451 0
M  V30 22 C -5.15727 -0.21007 1.10117 0
M  V30 23 O -5.8882 -0.837772 1.87731 0
M  V30 24 O -5.31109 1.13886 0.918547 0
M  V30 25 C -6.30343 1.90489 1.59427 0
M  V30 26 C -7.69651 1.40488 1.27218 0
M  V30 27 H 6.00773 0.457558 2.35321 0
M  V30 28 H 7.73326 0.0304173 2.56413 0
M  V30 29 H 7.24227 1.7401 2.34705 0
M  V30 30 H 7.5638 1.57868 0.110246 0
M  V30 31 H 8.06214 -0.11536 0.337894 0
M  V30 32 H 2.35998 1.5319 -0.324513 0
M  V30 33 H 5.44443 -2.38184 -0.937198 0
M  V30 34 H 5.82102 -1.61351 -2.49096 0
M  V30 35 H -4.54387 -2.7883 1.17526 0
M  V30 36 H -3.95793 1.5884 -1.51023 0
M  V30 37 H -3.09769 1.83695 0.0325452 0
M  V30 38 H -6.10781 1.90149 2.6805 0
M  V30 39 H -6.17104 2.95158 1.23006 0
M  V30 40 H -8.16552 0.867198 2.10889 0
M  V30 41 H -7.65912 0.767481 0.342531 0
M  V30 42 H -8.32731 2.28633 1.03757 0
M  V30 END ATOM
M  V30 BEGIN BOND
M  V30 1 1 1 2
M  V30 2 1 2 3
M  V30 3 1 3 4
M  V30 4 2 4 5
M  V30 5 1 4 6
M  V30 6 2 6 7
M  V30 7 1 7 8
M  V30 8 2 8 9
M  V30 9 1 9 10
M  V30 10 2 10 11
M  V30 11 1 11 12
M  V30 12 1 9 13
M  V30 13 1 13 14
M  V30 14 1 14 15
M  V30 15 2 15 16
M  V30 16 1 16 17
M  V30 17 2 17 18
M  V30 18 1 18 19
M  V30 19 2 19 20
M  V30 20 1 19 21
M  V30 21 1 18 22
M  V30 22 2 22 23
M  V30 23 1 22 24
M  V30 24 1 24 25
M  V30 25 1 25 26
M  V30 26 1 11 6
M  V30 27 1 20 15
M  V30 28 1 1 27
M  V30 29 1 1 28
M  V30 30 1 1 29
M  V30 31 1 2 30
M  V30 32 1 2 31
M  V30 33 1 7 32
M  V30 34 1 12 33
M  V30 35 1 12 34
M  V30 36 1 17 35
M  V30 37 1 21 36
M  V30 38 1 21 37
M  V30 39 1 25 38
M  V30 40 1 25 39
M  V30 41 1 26 40
M  V30 42 1 26 41
M  V30 43 1 26 42
M  V30 END BOND
M  V30 END CTAB
M  END
