
     RDKit          3D

  0  0  0  0  0  0  0  0  0  0999 V3000
M  V30 BEGIN CTAB
M  V30 COUNTS 28 28 0 0 0
M  V30 BEGIN ATOM
M  V30 1 C 4.19657 -0.0382109 -0.979152 0
M  V30 2 C 4.09706 0.774417 0.293851 0
M  V30 3 O 3.02105 0.276248 1.10009 0
M  V30 4 C 1.71659 0.259173 0.63871 0
M  V30 5 O 1.49589 0.69648 -0.518541 0
M  V30 6 C 0.577716 -0.241057 1.42572 0
M  V30 7 C -0.704207 -0.158146 0.7279 0
M  V30 8 C -1.10133 -1.2463 -0.0438417 0
M  V30 9 C -2.27644 -1.27558 -0.735972 0
M  V30 10 N -2.68645 -2.38195 -1.52421 0
M  V30 11 C -3.10492 -0.16214 -0.658254 0
M  V30 12 C -2.76513 0.953908 0.0943466 0
M  V30 13 C -1.55954 0.922633 0.773842 0
M  V30 14 N -3.64466 2.04742 0.13269 0
M  V30 15 I -4.92574 -0.173031 -1.71352 0
M  V30 16 H 5.1568 -0.628612 -1.00249 0
M  V30 17 H 3.39349 -0.778909 -1.08827 0
M  V30 18 H 4.15076 0.646485 -1.8715 0
M  V30 19 H 5.0391 0.677265 0.831613 0
M  V30 20 H 3.93208 1.83944 0.0373436 0
M  V30 21 H 0.471043 0.301246 2.40289 0
M  V30 22 H 0.813579 -1.30694 1.70509 0
M  V30 23 H -0.457471 -2.12367 -0.110258 0
M  V30 24 H -3.5396 -2.34997 -2.08778 0
M  V30 25 H -2.09728 -3.23283 -1.51732 0
M  V30 26 H -1.25379 1.77048 1.37304 0
M  V30 27 H -4.31179 2.25459 -0.634405 0
M  V30 28 H -3.63338 2.67756 0.956432 0
M  V30 END ATOM
M  V30 BEGIN BOND
M  V30 1 1 1 2
M  V30 2 1 2 3
M  V30 3 1 3 4
M  V30 4 2 4 5
M  V30 5 1 4 6
M  V30 6 1 6 7
M  V30 7 2 7 8
M  V30 8 1 8 9
M  V30 9 1 9 10
M  V30 10 2 9 11
M  V30 11 1 11 12
M  V30 12 2 12 13
M  V30 13 1 12 14
M  V30 14 1 11 15
M  V30 15 1 13 7
M  V30 16 1 1 16
M  V30 17 1 1 17
M  V30 18 1 1 18
M  V30 19 1 2 19
M  V30 20 1 2 20
M  V30 21 1 6 21
M  V30 22 1 6 22
M  V30 23 1 8 23
M  V30 24 1 10 24
M  V30 25 1 10 25
M  V30 26 1 13 26
M  V30 27 1 14 27
M  V30 28 1 14 28
M  V30 END BOND
M  V30 END CTAB
M  END
