
     RDKit          3D

  0  0  0  0  0  0  0  0  0  0999 V3000
M  V30 BEGIN CTAB
M  V30 COUNTS 21 20 0 0 0
M  V30 BEGIN ATOM
M  V30 1 C 2.63508 0.929196 0.109306 0
M  V30 2 C 1.1719 0.8267 -0.347896 0
M  V30 3 C 0.669129 -0.543397 -0.0596375 0
M  V30 4 C -0.727981 -0.865536 -0.471335 0 CFG=2
M  V30 5 C -1.80883 -0.0277744 0.142831 0
M  V30 6 N -1.75283 1.3626 -0.134812 0
M  V30 7 N -0.987242 -2.22479 -0.124032 0
M  V30 8 H 2.86597 1.93126 0.506501 0
M  V30 9 H 3.30805 0.759483 -0.761777 0
M  V30 10 H 2.85862 0.182664 0.890121 0
M  V30 11 H 1.11386 1.11116 -1.40642 0
M  V30 12 H 0.647661 1.57417 0.320181 0
M  V30 13 H 0.775401 -0.769764 1.04114 0
M  V30 14 H 1.37557 -1.24352 -0.612129 0
M  V30 15 H -0.758202 -0.791674 -1.59002 0
M  V30 16 H -2.83324 -0.425497 -0.124125 0
M  V30 17 H -1.75689 -0.152053 1.25113 0
M  V30 18 H -1.84988 1.98444 0.682408 0
M  V30 19 H -2.35975 1.6638 -0.951941 0
M  V30 20 H -1.54178 -2.38743 0.710255 0
M  V30 21 H -1.04462 -2.89403 -0.885516 0
M  V30 END ATOM
M  V30 BEGIN BOND
M  V30 1 1 1 2
M  V30 2 1 2 3
M  V30 3 1 3 4
M  V30 4 1 4 5
M  V30 5 1 5 6
M  V30 6 1 4 7
M  V30 7 1 1 8
M  V30 8 1 1 9
M  V30 9 1 1 10
M  V30 10 1 2 11
M  V30 11 1 2 12
M  V30 12 1 3 13
M  V30 13 1 3 14
M  V30 14 1 4 15 CFG=3
M  V30 15 1 5 16
M  V30 16 1 5 17
M  V30 17 1 6 18
M  V30 18 1 6 19
M  V30 19 1 7 20
M  V30 20 1 7 21
M  V30 END BOND
M  V30 END CTAB
M  END
