
     RDKit          3D

  0  0  0  0  0  0  0  0  0  0999 V3000
M  V30 BEGIN CTAB
M  V30 COUNTS 23 23 0 0 0
M  V30 BEGIN ATOM
M  V30 1 N 4.83502 0.587514 -0.160458 0
M  V30 2 S 3.46589 -0.414722 0.166822 0
M  V30 3 O 3.93036 -1.45082 1.18267 0
M  V30 4 O 2.95503 -1.0901 -1.075 0
M  V30 5 O 2.29894 0.533288 0.908086 0
M  V30 6 C 0.93925 0.398843 0.75931 0
M  V30 7 C 0.277021 1.08451 -0.238451 0
M  V30 8 C -1.08643 0.984132 -0.430049 0
M  V30 9 C -1.85401 0.178434 0.384992 0
M  V30 10 C -1.194 -0.5083 1.38354 0
M  V30 11 C 0.170128 -0.407154 1.57435 0
M  V30 12 S -3.57966 0.0552974 0.137769 0
M  V30 13 N -3.87155 -1.23484 -0.954305 0
M  V30 14 O -4.09523 1.36181 -0.35831 0
M  V30 15 O -4.2071 -0.212589 1.48983 0
M  V30 16 H 4.92757 1.25687 0.631217 0
M  V30 17 H 5.69427 0.0298371 -0.34576 0
M  V30 18 H 0.837379 1.72766 -0.901139 0
M  V30 19 H -1.5925 1.53597 -1.22685 0
M  V30 20 H -1.82098 -1.13966 2.01633 0
M  V30 21 H 0.669423 -0.946865 2.35463 0
M  V30 22 H -3.03206 -1.3687 -1.5616 0
M  V30 23 H -4.66677 -0.960414 -1.57596 0
M  V30 END ATOM
M  V30 BEGIN BOND
M  V30 1 1 1 2
M  V30 2 2 2 3
M  V30 3 2 2 4
M  V30 4 1 2 5
M  V30 5 1 5 6
M  V30 6 2 6 7
M  V30 7 1 7 8
M  V30 8 2 8 9
M  V30 9 1 9 10
M  V30 10 2 10 11
M  V30 11 1 9 12
M  V30 12 1 12 13
M  V30 13 2 12 14
M  V30 14 2 12 15
M  V30 15 1 11 6
M  V30 16 1 1 16
M  V30 17 1 1 17
M  V30 18 1 7 18
M  V30 19 1 8 19
M  V30 20 1 10 20
M  V30 21 1 11 21
M  V30 22 1 13 22
M  V30 23 1 13 23
M  V30 END BOND
M  V30 END CTAB
M  END
