
     RDKit          3D

  0  0  0  0  0  0  0  0  0  0999 V3000
M  V30 BEGIN CTAB
M  V30 COUNTS 23 23 0 0 0
M  V30 BEGIN ATOM
M  V30 1 N -3.72631 -0.0231187 0.818314 0
M  V30 2 C -3.1548 -0.830954 -0.191875 0
M  V30 3 N -3.71732 -1.90209 -0.602563 0
M  V30 4 C -1.86558 -0.415906 -0.786389 0
M  V30 5 O -0.909224 -0.362322 0.235995 0
M  V30 6 C 0.406756 -0.00200884 -0.00583158 0
M  V30 7 C 0.799861 0.316023 -1.28863 0
M  V30 8 C 2.12317 0.68329 -1.56031 0
M  V30 9 C 3.06093 0.73443 -0.549596 0
M  V30 10 C 2.66839 0.414844 0.742964 0
M  V30 11 C 1.34251 0.0494082 1.00051 0
M  V30 12 N 3.61823 0.461034 1.79885 0
M  V30 13 H -4.67509 0.444107 0.712926 0
M  V30 14 H -3.25263 0.167566 1.73564 0
M  V30 15 H -4.62724 -2.24843 -0.223208 0
M  V30 16 H -1.55967 -1.08175 -1.6277 0
M  V30 17 H -2.01984 0.601958 -1.20631 0
M  V30 18 H 0.0545522 0.272223 -2.07374 0
M  V30 19 H 2.37797 0.925782 -2.60092 0
M  V30 20 H 4.08275 1.01963 -0.768623 0
M  V30 21 H 1.03716 -0.199844 2.00976 0
M  V30 22 H 4.58731 0.0931117 1.71761 0
M  V30 23 H 3.34812 0.883022 2.71312 0
M  V30 END ATOM
M  V30 BEGIN BOND
M  V30 1 1 1 2
M  V30 2 2 2 3 CFG=2
M  V30 3 1 2 4
M  V30 4 1 4 5
M  V30 5 1 5 6
M  V30 6 2 6 7
M  V30 7 1 7 8
M  V30 8 2 8 9
M  V30 9 1 9 10
M  V30 10 2 10 11
M  V30 11 1 10 12
M  V30 12 1 11 6
M  V30 13 1 1 13
M  V30 14 1 1 14
M  V30 15 1 3 15
M  V30 16 1 4 16
M  V30 17 1 4 17
M  V30 18 1 7 18
M  V30 19 1 8 19
M  V30 20 1 9 20
M  V30 21 1 11 21
M  V30 22 1 12 22
M  V30 23 1 12 23
M  V30 END BOND
M  V30 END CTAB
M  END
