
     RDKit          3D

  0  0  0  0  0  0  0  0  0  0999 V3000
M  V30 BEGIN CTAB
M  V30 COUNTS 100 103 0 0 0
M  V30 BEGIN ATOM
M  V30 1 N 1.92477 7.36236 -2.79033 0
M  V30 2 C 1.01637 6.28678 -2.92703 0
M  V30 3 N -0.0848252 6.50208 -3.54908 0
M  V30 4 N 1.27235 4.99173 -2.40859 0
M  V30 5 C 0.783476 4.54543 -1.10842 0
M  V30 6 C 1.25511 3.12093 -0.909306 0
M  V30 7 C 0.788859 2.57499 0.425439 0
M  V30 8 C 1.25998 1.14762 0.625564 0 CFG=2
M  V30 9 N 0.827297 0.617838 1.89045 0
M  V30 10 C -0.469984 0.546613 2.39001 0
M  V30 11 O -0.627584 0.736648 3.6455 0
M  V30 12 C -1.71999 0.272202 1.63414 0 CFG=2
M  V30 13 C -2.67602 1.38599 2.01344 0
M  V30 14 C -4.01095 1.31141 1.36531 0
M  V30 15 C -4.8203 2.51314 1.8598 0
M  V30 16 N -6.13344 2.53196 1.28727 0
M  V30 17 C -7.03166 3.5721 1.62459 0
M  V30 18 N -8.20293 3.35455 2.38687 0
M  V30 19 N -6.77334 4.76481 1.22171 0
M  V30 20 N -2.24523 -0.986644 2.11723 0
M  V30 21 C -2.14275 -2.23593 1.5076 0
M  V30 22 O -1.79729 -3.24473 2.17474 0
M  V30 23 C -2.42739 -2.47844 0.047237 0 CFG=2
M  V30 24 C -3.92286 -2.5613 -0.0914721 0
M  V30 25 C -4.41686 -2.78798 -1.45471 0
M  V30 26 C -4.68345 -4.0448 -1.94618 0
M  V30 27 C -5.14884 -4.26462 -3.24099 0
M  V30 28 C -5.34777 -3.17571 -4.05558 0
M  V30 29 O -5.81512 -3.31707 -5.37298 0
M  V30 30 C -5.08809 -1.90696 -3.58601 0
M  V30 31 C -4.63071 -1.72972 -2.30529 0
M  V30 32 N -1.74382 -3.65926 -0.393042 0
M  V30 33 C -0.38732 -3.95392 -0.101598 0
M  V30 34 O -0.0807786 -5.15346 0.114528 0
M  V30 35 C 0.689566 -2.93961 -0.03605 0
M  V30 36 N 0.856513 -2.26302 -1.32836 0
M  V30 37 C 2.0072 -1.48465 -1.61244 0
M  V30 38 O 2.11554 -0.985287 -2.75627 0
M  V30 39 C 3.09678 -1.22194 -0.637929 0 CFG=1
M  V30 40 C 4.29638 -2.02621 -1.11673 0
M  V30 41 C 5.48022 -1.89462 -0.26935 0
M  V30 42 C 5.67889 -2.74136 0.805169 0
M  V30 43 C 6.77256 -2.66012 1.62214 0
M  V30 44 C 7.00095 -3.48506 2.6969 0
M  V30 45 C 8.11465 -3.37232 3.49569 0
M  V30 46 C 9.05048 -2.3914 3.21503 0
M  V30 47 C 8.83971 -1.55338 2.14079 0
M  V30 48 C 7.7195 -1.67738 1.34866 0
M  V30 49 C 7.53307 -0.839138 0.293374 0
M  V30 50 C 6.42312 -0.934734 -0.521808 0
M  V30 51 N 3.3712 0.168187 -0.473811 0
M  V30 52 C 2.73456 1.04369 0.431044 0
M  V30 53 O 3.42162 1.83405 1.16884 0
M  V30 54 H 1.61538 8.35617 -2.73559 0
M  V30 55 H 2.95827 7.17527 -2.73992 0
M  V30 56 H -0.769719 5.73521 -3.66542 0
M  V30 57 H 1.84981 4.35945 -3.03424 0
M  V30 58 H -0.312982 4.63871 -1.0338 0
M  V30 59 H 1.31763 5.17948 -0.355426 0
M  V30 60 H 0.854822 2.5273 -1.7487 0
M  V30 61 H 2.37542 3.16101 -0.925267 0
M  V30 62 H 1.202 3.18461 1.23909 0
M  V30 63 H -0.297756 2.63755 0.418836 0
M  V30 64 H 0.712274 0.54904 -0.160575 0
M  V30 65 H 1.61845 0.238264 2.50419 0
M  V30 66 H -1.57721 0.291601 0.547928 0
M  V30 67 H -2.24042 2.38066 1.80023 0
M  V30 68 H -2.80683 1.35987 3.12618 0
M  V30 69 H -3.95339 1.3987 0.262401 0
M  V30 70 H -4.56522 0.375218 1.58368 0
M  V30 71 H -4.29212 3.43628 1.52984 0
M  V30 72 H -4.90087 2.52232 2.96268 0
M  V30 73 H -6.44174 1.79973 0.630107 0
M  V30 74 H -9.10223 3.08464 1.93444 0
M  V30 75 H -8.2409 3.44887 3.43237 0
M  V30 76 H -5.9404 5.02171 0.658491 0
M  V30 77 H -2.76475 -0.935634 3.0457 0
M  V30 78 H -2.04987 -1.62995 -0.562575 0
M  V30 79 H -4.34043 -3.37378 0.574258 0
M  V30 80 H -4.38482 -1.6227 0.306228 0
M  V30 81 H -4.5485 -4.93457 -1.34822 0
M  V30 82 H -5.35738 -5.2523 -3.62491 0
M  V30 83 H -6.83089 -3.29992 -5.52737 0
M  V30 84 H -5.25189 -1.04084 -4.24976 0
M  V30 85 H -4.43507 -0.732352 -1.96062 0
M  V30 86 H -2.27393 -4.35123 -0.965623 0
M  V30 87 H 1.63824 -3.40567 0.266987 0
M  V30 88 H 0.425957 -2.13584 0.684735 0
M  V30 89 H 0.0780131 -2.39501 -2.01131 0
M  V30 90 H 2.77951 -1.72153 0.308274 0
M  V30 91 H 4.55579 -1.588 -2.12547 0
M  V30 92 H 4.03403 -3.07194 -1.32236 0
M  V30 93 H 4.94476 -3.51799 1.03288 0
M  V30 94 H 6.27892 -4.25545 2.92806 0
M  V30 95 H 8.29356 -4.02492 4.34443 0
M  V30 96 H 9.94629 -2.28077 3.83603 0
M  V30 97 H 9.58232 -0.786969 1.93115 0
M  V30 98 H 8.27184 -0.0766761 0.085208 0
M  V30 99 H 6.32342 -0.244404 -1.35291 0
M  V30 100 H 4.12118 0.602443 -1.08 0
M  V30 END ATOM
M  V30 BEGIN BOND
M  V30 1 1 1 2
M  V30 2 2 2 3 CFG=2
M  V30 3 1 2 4
M  V30 4 1 4 5
M  V30 5 1 5 6
M  V30 6 1 6 7
M  V30 7 1 7 8
M  V30 8 1 8 9
M  V30 9 1 9 10
M  V30 10 2 10 11
M  V30 11 1 10 12
M  V30 12 1 12 13
M  V30 13 1 13 14
M  V30 14 1 14 15
M  V30 15 1 15 16
M  V30 16 1 16 17
M  V30 17 1 17 18
M  V30 18 2 17 19 CFG=2
M  V30 19 1 12 20
M  V30 20 1 20 21
M  V30 21 2 21 22
M  V30 22 1 21 23
M  V30 23 1 23 24
M  V30 24 1 24 25
M  V30 25 2 25 26
M  V30 26 1 26 27
M  V30 27 2 27 28
M  V30 28 1 28 29
M  V30 29 1 28 30
M  V30 30 2 30 31
M  V30 31 1 23 32
M  V30 32 1 32 33
M  V30 33 2 33 34
M  V30 34 1 33 35
M  V30 35 1 35 36
M  V30 36 1 36 37
M  V30 37 2 37 38
M  V30 38 1 37 39
M  V30 39 1 39 40
M  V30 40 1 40 41
M  V30 41 2 41 42
M  V30 42 1 42 43
M  V30 43 2 43 44
M  V30 44 1 44 45
M  V30 45 2 45 46
M  V30 46 1 46 47
M  V30 47 2 47 48
M  V30 48 1 48 49
M  V30 49 2 49 50
M  V30 50 1 39 51
M  V30 51 1 51 52
M  V30 52 2 52 53
M  V30 53 1 52 8
M  V30 54 1 31 25
M  V30 55 1 50 41
M  V30 56 1 48 43
M  V30 57 1 1 54
M  V30 58 1 1 55
M  V30 59 1 3 56
M  V30 60 1 4 57
M  V30 61 1 5 58
M  V30 62 1 5 59
M  V30 63 1 6 60
M  V30 64 1 6 61
M  V30 65 1 7 62
M  V30 66 1 7 63
M  V30 67 1 8 64 CFG=3
M  V30 68 1 9 65
M  V30 69 1 12 66 CFG=3
M  V30 70 1 13 67
M  V30 71 1 13 68
M  V30 72 1 14 69
M  V30 73 1 14 70
M  V30 74 1 15 71
M  V30 75 1 15 72
M  V30 76 1 16 73
M  V30 77 1 18 74
M  V30 78 1 18 75
M  V30 79 1 19 76
M  V30 80 1 20 77
M  V30 81 1 23 78 CFG=3
M  V30 82 1 24 79
M  V30 83 1 24 80
M  V30 84 1 26 81
M  V30 85 1 27 82
M  V30 86 1 29 83
M  V30 87 1 30 84
M  V30 88 1 31 85
M  V30 89 1 32 86
M  V30 90 1 35 87
M  V30 91 1 35 88
M  V30 92 1 36 89
M  V30 93 1 39 90 CFG=1
M  V30 94 1 40 91
M  V30 95 1 40 92
M  V30 96 1 42 93
M  V30 97 1 44 94
M  V30 98 1 45 95
M  V30 99 1 46 96
M  V30 100 1 47 97
M  V30 101 1 49 98
M  V30 102 1 50 99
M  V30 103 1 51 100
M  V30 END BOND
M  V30 END CTAB
M  END
