
     RDKit          3D

  0  0  0  0  0  0  0  0  0  0999 V3000
M  V30 BEGIN CTAB
M  V30 COUNTS 48 50 0 0 0
M  V30 BEGIN ATOM
M  V30 1 N -4.55465 2.49682 -0.778212 0
M  V30 2 C -4.93197 1.08701 -0.862182 0
M  V30 3 C -4.2272 0.284478 0.209341 0
M  V30 4 C -4.57199 0.782485 1.59545 0
M  V30 5 C -4.59107 -1.16401 0.0206441 0
M  V30 6 C -3.57519 -1.71416 -0.936982 0
M  V30 7 N -2.48383 -0.8149 -0.856878 0
M  V30 8 C -2.75409 0.312055 -0.055652 0
M  V30 9 C -1.21636 -1.43017 -0.650621 0
M  V30 10 C -0.0501125 -0.542823 -0.748289 0
M  V30 11 O -0.157054 0.692107 -1.0347 0
M  V30 12 N 1.26638 -1.00529 -0.525565 0
M  V30 13 C 1.5935 -2.3832 -0.124184 0
M  V30 14 C 2.77935 -2.11604 0.805833 0
M  V30 15 C 3.44481 -0.941055 0.188633 0
M  V30 16 C 2.51301 -0.296756 -0.60382 0
M  V30 17 C 2.849 0.826924 -1.30384 0
M  V30 18 C 4.11859 1.34359 -1.23839 0
M  V30 19 C 5.05027 0.710087 -0.452909 0
M  V30 20 C 4.73374 -0.412605 0.253918 0
M  V30 21 S 6.66648 1.35659 -0.373117 0
M  V30 22 O 7.66573 0.253272 -0.0473915 0
M  V30 23 O 7.02455 1.8816 -1.72573 0
M  V30 24 N 6.78814 2.59286 0.855522 0
M  V30 25 H -3.65509 2.69685 -1.24441 0
M  V30 26 H -4.56628 2.72801 0.242461 0
M  V30 27 H -4.50179 0.734195 -1.85022 0
M  V30 28 H -6.00841 0.942174 -0.905136 0
M  V30 29 H -3.80808 1.55078 1.85893 0
M  V30 30 H -4.56415 -0.076653 2.28656 0
M  V30 31 H -5.5438 1.30983 1.5226 0
M  V30 32 H -5.63841 -1.28994 -0.35601 0
M  V30 33 H -4.54514 -1.68003 1.02206 0
M  V30 34 H -3.337 -2.74743 -0.60788 0
M  V30 35 H -4.00874 -1.68704 -1.95511 0
M  V30 36 H -2.23154 0.196529 0.945029 0
M  V30 37 H -2.42165 1.23539 -0.555642 0
M  V30 38 H -1.09286 -2.25705 -1.36567 0
M  V30 39 H -1.23209 -1.90456 0.373884 0
M  V30 40 H 1.85873 -2.98755 -0.99095 0
M  V30 41 H 0.740379 -2.74896 0.474898 0
M  V30 42 H 2.41426 -1.88461 1.82145 0
M  V30 43 H 3.422 -3.00551 0.770749 0
M  V30 44 H 2.11622 1.3309 -1.92838 0
M  V30 45 H 4.35965 2.24837 -1.81293 0
M  V30 46 H 5.47458 -0.891174 0.860915 0
M  V30 47 H 5.89167 3.08173 1.00583 0
M  V30 48 H 7.49754 3.30689 0.509857 0
M  V30 END ATOM
M  V30 BEGIN BOND
M  V30 1 1 1 2
M  V30 2 1 2 3
M  V30 3 1 3 4
M  V30 4 1 3 5
M  V30 5 1 5 6
M  V30 6 1 6 7
M  V30 7 1 7 8
M  V30 8 1 7 9
M  V30 9 1 9 10
M  V30 10 2 10 11
M  V30 11 1 10 12
M  V30 12 1 12 13
M  V30 13 1 13 14
M  V30 14 1 14 15
M  V30 15 2 15 16
M  V30 16 1 16 17
M  V30 17 2 17 18
M  V30 18 1 18 19
M  V30 19 2 19 20
M  V30 20 1 19 21
M  V30 21 2 21 22
M  V30 22 2 21 23
M  V30 23 1 21 24
M  V30 24 1 8 3
M  V30 25 1 16 12
M  V30 26 1 20 15
M  V30 27 1 1 25
M  V30 28 1 1 26
M  V30 29 1 2 27
M  V30 30 1 2 28
M  V30 31 1 4 29
M  V30 32 1 4 30
M  V30 33 1 4 31
M  V30 34 1 5 32
M  V30 35 1 5 33
M  V30 36 1 6 34
M  V30 37 1 6 35
M  V30 38 1 8 36
M  V30 39 1 8 37
M  V30 40 1 9 38
M  V30 41 1 9 39
M  V30 42 1 13 40
M  V30 43 1 13 41
M  V30 44 1 14 42
M  V30 45 1 14 43
M  V30 46 1 17 44
M  V30 47 1 18 45
M  V30 48 1 20 46
M  V30 49 1 24 47
M  V30 50 1 24 48
M  V30 END BOND
M  V30 END CTAB
M  END
