
     RDKit          3D

  0  0  0  0  0  0  0  0  0  0999 V3000
M  V30 BEGIN CTAB
M  V30 COUNTS 31 33 0 0 0
M  V30 BEGIN ATOM
M  V30 1 N -3.14114 3.16278 -1.25449 0
M  V30 2 C -2.65159 1.92125 -0.725815 0
M  V30 3 C -3.57078 1.00154 -0.27176 0
M  V30 4 C -3.09275 -0.184312 0.232694 0
M  V30 5 N -4.02647 -1.14114 0.704003 0
M  V30 6 C -1.71446 -0.446491 0.282246 0
M  V30 7 C -0.800927 0.474437 -0.172078 0
M  V30 8 C -1.29789 1.6621 -0.676415 0
M  V30 9 C 0.635829 0.203126 -0.121248 0
M  V30 10 N 1.64175 1.00401 -0.526703 0
M  V30 11 C 2.80663 0.375764 -0.303762 0
M  V30 12 C 2.48991 -0.844069 0.25463 0
M  V30 13 O 1.19679 -0.884842 0.335724 0
M  V30 14 C 3.4917 -1.75474 0.611224 0
M  V30 15 C 4.80125 -1.45243 0.412912 0
M  V30 16 C 5.14211 -0.241664 -0.142617 0
M  V30 17 C 4.14518 0.647182 -0.489731 0
M  V30 18 C -1.26261 -1.73073 0.831733 0
M  V30 19 H -3.2105 4.02008 -0.67252 0
M  V30 20 H -3.42042 3.13778 -2.263 0
M  V30 21 H -4.64822 1.19177 -0.303936 0
M  V30 22 H -3.98596 -1.43492 1.69331 0
M  V30 23 H -4.72881 -1.53621 0.080804 0
M  V30 24 H -0.562702 2.37354 -1.02883 0
M  V30 25 H 3.16799 -2.70332 1.04923 0
M  V30 26 H 5.5583 -2.17429 0.697386 0
M  V30 27 H 6.20711 -0.00959424 -0.297765 0
M  V30 28 H 4.41655 1.59545 -0.925037 0
M  V30 29 H -2.17346 -2.3297 1.13435 0
M  V30 30 H -0.738497 -2.35336 0.0968185 0
M  V30 31 H -0.673952 -1.549 1.75863 0
M  V30 END ATOM
M  V30 BEGIN BOND
M  V30 1 1 1 2
M  V30 2 2 2 3
M  V30 3 1 3 4
M  V30 4 1 4 5
M  V30 5 2 4 6
M  V30 6 1 6 7
M  V30 7 2 7 8
M  V30 8 1 7 9
M  V30 9 2 9 10
M  V30 10 1 10 11
M  V30 11 2 11 12
M  V30 12 1 12 13
M  V30 13 1 12 14
M  V30 14 2 14 15
M  V30 15 1 15 16
M  V30 16 2 16 17
M  V30 17 1 6 18
M  V30 18 1 8 2
M  V30 19 1 13 9
M  V30 20 1 17 11
M  V30 21 1 1 19
M  V30 22 1 1 20
M  V30 23 1 3 21
M  V30 24 1 5 22
M  V30 25 1 5 23
M  V30 26 1 8 24
M  V30 27 1 14 25
M  V30 28 1 15 26
M  V30 29 1 16 27
M  V30 30 1 17 28
M  V30 31 1 18 29
M  V30 32 1 18 30
M  V30 33 1 18 31
M  V30 END BOND
M  V30 END CTAB
M  END
