
     RDKit          3D

  0  0  0  0  0  0  0  0  0  0999 V3000
M  V30 BEGIN CTAB
M  V30 COUNTS 28 29 0 0 0
M  V30 BEGIN ATOM
M  V30 1 N 3.35389 -2.68227 -0.413349 0
M  V30 2 C 2.56728 -1.50531 -0.302654 0
M  V30 3 N 1.22533 -1.55245 -0.259739 0
M  V30 4 C 0.47912 -0.411751 -0.152982 0
M  V30 5 N -0.937493 -0.467341 -0.117905 0
M  V30 6 C -1.68911 0.0975134 -1.20371 0
M  V30 7 C -2.97802 0.742734 -0.716378 0
M  V30 8 O -3.61091 -0.0571975 0.232082 0
M  V30 9 C -2.78377 -0.137674 1.34027 0
M  V30 10 C -1.64604 -1.08041 1.00029 0
M  V30 11 C 1.08573 0.819299 -0.086108 0
M  V30 12 N 0.336505 2.01907 0.0348386 0
M  V30 13 O 0.4128 2.63725 1.1325 0
M  V30 14 C 2.45885 0.862256 -0.130587 0
M  V30 15 N 3.07269 2.14821 -0.0604437 0
M  V30 16 N 3.15134 -0.272801 -0.235248 0
M  V30 17 H 3.38289 -3.38584 0.343906 0
M  V30 18 H 3.91196 -2.84341 -1.26896 0
M  V30 19 H -1.97748 -0.714002 -1.93601 0
M  V30 20 H -1.11517 0.879796 -1.72441 0
M  V30 21 H -2.74175 1.73365 -0.254592 0
M  V30 22 H -3.65355 0.870281 -1.58686 0
M  V30 23 H -2.43718 0.83933 1.71204 0
M  V30 24 H -3.41243 -0.569396 2.17165 0
M  V30 25 H -2.08015 -2.01779 0.643067 0
M  V30 26 H -0.999964 -1.18118 1.88956 0
M  V30 27 H 3.9792 2.25718 0.443357 0
M  V30 28 H 2.64541 2.97227 -0.493626 0
M  V30 END ATOM
M  V30 BEGIN BOND
M  V30 1 1 1 2
M  V30 2 2 2 3
M  V30 3 1 3 4
M  V30 4 1 4 5
M  V30 5 1 5 6
M  V30 6 1 6 7
M  V30 7 1 7 8
M  V30 8 1 8 9
M  V30 9 1 9 10
M  V30 10 2 4 11
M  V30 11 1 11 12
M  V30 12 2 12 13
M  V30 13 1 11 14
M  V30 14 1 14 15
M  V30 15 2 14 16
M  V30 16 1 16 2
M  V30 17 1 10 5
M  V30 18 1 1 17
M  V30 19 1 1 18
M  V30 20 1 6 19
M  V30 21 1 6 20
M  V30 22 1 7 21
M  V30 23 1 7 22
M  V30 24 1 9 23
M  V30 25 1 9 24
M  V30 26 1 10 25
M  V30 27 1 10 26
M  V30 28 1 15 27
M  V30 29 1 15 28
M  V30 END BOND
M  V30 END CTAB
M  END
