
     RDKit          3D

  0  0  0  0  0  0  0  0  0  0999 V3000
M  V30 BEGIN CTAB
M  V30 COUNTS 41 44 0 0 0
M  V30 BEGIN ATOM
M  V30 1 N -0.224553 -1.81209 4.10723 0
M  V30 2 C 0.200503 -1.14679 2.92389 0
M  V30 3 N -0.45768 -1.08447 1.75358 0
M  V30 4 N 0.287223 -0.370355 0.921545 0
M  V30 5 C 1.41733 0.0347132 1.52358 0
M  V30 6 N 1.3473 -0.462183 2.78297 0
M  V30 7 N 2.43963 0.814424 0.932285 0
M  V30 8 N 2.63709 2.10821 1.09142 0
M  V30 9 C 3.69834 2.53074 0.385089 0
M  V30 10 N 4.18493 1.44989 -0.243537 0
M  V30 11 C 3.41334 0.402292 0.0929729 0
M  V30 12 N 3.62564 -0.935415 -0.388399 0
M  V30 13 C -0.153203 -0.112453 -0.455811 0
M  V30 14 C -0.946741 -1.21555 -0.966883 0
M  V30 15 C -0.257539 -2.3396 -1.41784 0
M  V30 16 C -0.884713 -3.44275 -1.92566 0
M  V30 17 C -2.26603 -3.47453 -2.00852 0
M  V30 18 C -2.94111 -2.35713 -1.55981 0
M  V30 19 C -2.312 -1.24592 -1.04848 0
M  V30 20 C -0.736065 1.22031 -0.445395 0
M  V30 21 C -1.74768 1.61053 0.422862 0
M  V30 22 C -2.28008 2.87981 0.399247 0
M  V30 23 C -1.81841 3.8167 -0.500368 0
M  V30 24 C -0.81453 3.4374 -1.36532 0
M  V30 25 C -0.277286 2.16721 -1.34642 0
M  V30 26 H -1.20705 -1.72025 4.423 0
M  V30 27 H 0.420128 -2.39706 4.67904 0
M  V30 28 H 4.0709 3.56068 0.347926 0
M  V30 29 H 3.35292 -1.12097 -1.37407 0
M  V30 30 H 4.02429 -1.70476 0.17573 0
M  V30 31 H 0.774231 -0.0679111 -1.11921 0
M  V30 32 H 0.846 -2.36175 -1.37218 0
M  V30 33 H -0.329154 -4.31512 -2.27462 0
M  V30 34 H -2.77986 -4.34672 -2.41086 0
M  V30 35 H -4.03841 -2.41493 -1.63969 0
M  V30 36 H -2.91938 -0.414583 -0.723045 0
M  V30 37 H -2.0782 0.844839 1.11508 0
M  V30 38 H -3.07766 3.11947 1.11429 0
M  V30 39 H -2.2683 4.79673 -0.478515 0
M  V30 40 H -0.449168 4.1718 -2.07399 0
M  V30 41 H 0.525014 1.89758 -2.0531 0
M  V30 END ATOM
M  V30 BEGIN BOND
M  V30 1 1 1 2
M  V30 2 2 2 3
M  V30 3 1 3 4
M  V30 4 1 4 5
M  V30 5 2 5 6
M  V30 6 1 5 7
M  V30 7 1 7 8
M  V30 8 2 8 9
M  V30 9 1 9 10
M  V30 10 2 10 11
M  V30 11 1 11 12
M  V30 12 1 4 13
M  V30 13 1 13 14
M  V30 14 2 14 15
M  V30 15 1 15 16
M  V30 16 2 16 17
M  V30 17 1 17 18
M  V30 18 2 18 19
M  V30 19 1 13 20
M  V30 20 2 20 21
M  V30 21 1 21 22
M  V30 22 2 22 23
M  V30 23 1 23 24
M  V30 24 2 24 25
M  V30 25 1 6 2
M  V30 26 1 11 7
M  V30 27 1 19 14
M  V30 28 1 25 20
M  V30 29 1 1 26
M  V30 30 1 1 27
M  V30 31 1 9 28
M  V30 32 1 12 29
M  V30 33 1 12 30
M  V30 34 1 13 31
M  V30 35 1 15 32
M  V30 36 1 16 33
M  V30 37 1 17 34
M  V30 38 1 18 35
M  V30 39 1 19 36
M  V30 40 1 21 37
M  V30 41 1 22 38
M  V30 42 1 23 39
M  V30 43 1 24 40
M  V30 44 1 25 41
M  V30 END BOND
M  V30 END CTAB
M  END
