
     RDKit          3D

  0  0  0  0  0  0  0  0  0  0999 V3000
M  V30 BEGIN CTAB
M  V30 COUNTS 25 25 0 0 0
M  V30 BEGIN ATOM
M  V30 1 C -2.88632 0.505911 -0.663184 0
M  V30 2 C -1.66338 -0.328511 -0.267729 0
M  V30 3 C -0.599769 0.638371 0.255999 0
M  V30 4 C 0.789555 0.0911693 0.108427 0
M  V30 5 C 1.00198 -1.22621 0.347722 0
M  V30 6 C 2.34541 -1.66902 0.2479 0
M  V30 7 C 3.34208 -0.776485 -0.0761017 0
M  V30 8 N 3.10177 0.530324 -0.299141 0
M  V30 9 C 1.78796 0.963863 -0.207358 0
M  V30 10 N 1.49572 2.31564 -0.499316 0
M  V30 11 O -0.923514 0.939642 1.59643 0
M  V30 12 N -1.90856 -1.53194 0.370307 0
M  V30 13 H -3.7499 0.00721225 -0.197188 0
M  V30 14 H -2.79308 1.54922 -0.362854 0
M  V30 15 H -2.95006 0.472659 -1.77219 0
M  V30 16 H -1.16035 -0.64382 -1.29806 0
M  V30 17 H -0.767849 1.57037 -0.292234 0
M  V30 18 H 0.321485 -1.97656 0.641739 0
M  V30 19 H 2.56148 -2.71157 0.433612 0
M  V30 20 H 4.38884 -1.12184 -0.17809 0
M  V30 21 H 0.608719 2.75417 -0.742764 0
M  V30 22 H 2.32162 3.00252 -0.467448 0
M  V30 23 H -0.306282 0.522529 2.23062 0
M  V30 24 H -2.04601 -1.64022 1.35505 0
M  V30 25 H -2.31152 -2.23744 -0.26415 0
M  V30 END ATOM
M  V30 BEGIN BOND
M  V30 1 1 1 2
M  V30 2 1 2 3
M  V30 3 1 3 4
M  V30 4 2 4 5
M  V30 5 1 5 6
M  V30 6 2 6 7
M  V30 7 1 7 8
M  V30 8 2 8 9
M  V30 9 1 9 10
M  V30 10 1 3 11
M  V30 11 1 2 12
M  V30 12 1 9 4
M  V30 13 1 1 13
M  V30 14 1 1 14
M  V30 15 1 1 15
M  V30 16 1 2 16
M  V30 17 1 3 17
M  V30 18 1 5 18
M  V30 19 1 6 19
M  V30 20 1 7 20
M  V30 21 1 10 21
M  V30 22 1 10 22
M  V30 23 1 11 23
M  V30 24 1 12 24
M  V30 25 1 12 25
M  V30 END BOND
M  V30 END CTAB
M  END
