
     RDKit          3D

  0  0  0  0  0  0  0  0  0  0999 V3000
M  V30 BEGIN CTAB
M  V30 COUNTS 29 31 0 0 0
M  V30 BEGIN ATOM
M  V30 1 N -3.85143 2.36027 -0.406727 0
M  V30 2 C -2.78668 1.41773 -0.307645 0
M  V30 3 N -1.5252 1.86114 -0.213766 0
M  V30 4 C -0.461883 1.02217 -0.116355 0
M  V30 5 C -0.65296 -0.340856 -0.111039 0
M  V30 6 C 0.432433 -1.32956 -0.00962236 0
M  V30 7 C 1.77031 -0.700611 0.0875637 0
M  V30 8 C 2.90636 -1.48877 0.190012 0
M  V30 9 C 4.16846 -0.947319 0.282458 0
M  V30 10 C 4.35203 0.417646 0.276508 0
M  V30 11 C 3.2386 1.21448 0.175736 0
M  V30 12 O 3.36615 2.57645 0.165367 0
M  V30 13 C 1.95893 0.662758 0.0820431 0
M  V30 14 O 0.836104 1.48843 -0.0199123 0
M  V30 15 C -1.94217 -0.815576 -0.206655 0
M  V30 16 N -2.25023 -2.21396 -0.210129 0
M  V30 17 C -2.98723 0.0537199 -0.303072 0
M  V30 18 C -4.3468 -0.413804 -0.404417 0
M  V30 19 N -5.45445 -0.783867 -0.469414 0
M  V30 20 H -4.57497 2.43443 0.336746 0
M  V30 21 H -3.88064 2.97852 -1.25753 0
M  V30 22 H 0.374571 -2.03259 -0.870083 0
M  V30 23 H 0.217923 -1.965 0.896589 0
M  V30 24 H 2.77337 -2.57306 0.195764 0
M  V30 25 H 5.06948 -1.5664 0.363596 0
M  V30 26 H 5.36583 0.832636 0.351069 0
M  V30 27 H 2.61553 3.23124 0.0956509 0
M  V30 28 H -2.80009 -2.55124 -1.03061 0
M  V30 29 H -1.93135 -2.82902 0.571482 0
M  V30 END ATOM
M  V30 BEGIN BOND
M  V30 1 1 1 2
M  V30 2 2 2 3
M  V30 3 1 3 4
M  V30 4 2 4 5
M  V30 5 1 5 6
M  V30 6 1 6 7
M  V30 7 2 7 8
M  V30 8 1 8 9
M  V30 9 2 9 10
M  V30 10 1 10 11
M  V30 11 1 11 12
M  V30 12 2 11 13
M  V30 13 1 13 14
M  V30 14 1 5 15
M  V30 15 1 15 16
M  V30 16 2 15 17
M  V30 17 1 17 18
M  V30 18 3 18 19
M  V30 19 1 17 2
M  V30 20 1 14 4
M  V30 21 1 13 7
M  V30 22 1 1 20
M  V30 23 1 1 21
M  V30 24 1 6 22
M  V30 25 1 6 23
M  V30 26 1 8 24
M  V30 27 1 9 25
M  V30 28 1 10 26
M  V30 29 1 12 27
M  V30 30 1 16 28
M  V30 31 1 16 29
M  V30 END BOND
M  V30 END CTAB
M  END
