
     RDKit          3D

  0  0  0  0  0  0  0  0  0  0999 V3000
M  V30 BEGIN CTAB
M  V30 COUNTS 40 41 0 0 0
M  V30 BEGIN ATOM
M  V30 1 N -4.30501 3.11342 1.04894 0
M  V30 2 C -4.01956 1.73532 1.10967 0
M  V30 3 C -4.71597 0.954496 2.03656 0
M  V30 4 C -4.43935 -0.3888 2.09058 0
M  V30 5 C -3.4975 -0.941211 1.24779 0
M  V30 6 C -2.80613 -0.174751 0.328828 0
M  V30 7 C -3.08224 1.17197 0.274248 0
M  V30 8 N -1.82284 -0.771619 -0.579077 0
M  V30 9 C -0.467264 -0.521563 -0.329552 0
M  V30 10 O -0.213419 0.179503 0.714837 0
M  V30 11 N 0.611334 -0.941152 -1.07454 0
M  V30 12 C 1.97052 -0.639634 -0.703717 0
M  V30 13 C 2.89813 -0.368599 -1.71973 0
M  V30 14 C 4.19719 -0.123794 -1.42408 0
M  V30 15 C 4.61966 -0.13796 -0.130119 0
M  V30 16 C 3.72827 -0.401484 0.888353 0
M  V30 17 C 2.38517 -0.656845 0.600975 0
M  V30 18 S 6.29804 0.168701 0.235747 0
M  V30 19 O 7.176 -0.369889 -0.825432 0
M  V30 20 O 6.65578 -0.518524 1.52868 0
M  V30 21 N 6.50359 1.88827 0.388259 0
M  V30 22 C -2.30881 -1.57388 -1.63322 0
M  V30 23 O -1.55756 -2.11346 -2.4489 0
M  V30 24 C -3.7994 -1.7647 -1.74573 0
M  V30 25 H -5.29101 3.49215 1.15647 0
M  V30 26 H -3.54115 3.79009 0.891621 0
M  V30 27 H -5.45542 1.36154 2.705 0
M  V30 28 H -4.97676 -1.02254 2.81559 0
M  V30 29 H -3.25291 -2.00129 1.25761 0
M  V30 30 H -2.54448 1.76465 -0.443499 0
M  V30 31 H 0.564536 -1.50812 -1.9703 0
M  V30 32 H 2.48923 -0.374749 -2.72825 0
M  V30 33 H 4.86403 0.0790181 -2.26366 0
M  V30 34 H 4.10939 -0.402397 1.89512 0
M  V30 35 H 1.73822 -0.876884 1.44094 0
M  V30 36 H 7.35232 2.20086 -0.121385 0
M  V30 37 H 6.45354 2.19 1.37172 0
M  V30 38 H -4.11059 -2.06212 -2.74347 0
M  V30 39 H -4.06429 -2.57021 -1.03036 0
M  V30 40 H -4.34327 -0.863824 -1.43758 0
M  V30 END ATOM
M  V30 BEGIN BOND
M  V30 1 1 1 2
M  V30 2 2 2 3
M  V30 3 1 3 4
M  V30 4 2 4 5
M  V30 5 1 5 6
M  V30 6 2 6 7
M  V30 7 1 6 8
M  V30 8 1 8 9
M  V30 9 2 9 10
M  V30 10 1 9 11
M  V30 11 1 11 12
M  V30 12 2 12 13
M  V30 13 1 13 14
M  V30 14 2 14 15
M  V30 15 1 15 16
M  V30 16 2 16 17
M  V30 17 1 15 18
M  V30 18 2 18 19
M  V30 19 2 18 20
M  V30 20 1 18 21
M  V30 21 1 8 22
M  V30 22 2 22 23
M  V30 23 1 22 24
M  V30 24 1 7 2
M  V30 25 1 17 12
M  V30 26 1 1 25
M  V30 27 1 1 26
M  V30 28 1 3 27
M  V30 29 1 4 28
M  V30 30 1 5 29
M  V30 31 1 7 30
M  V30 32 1 11 31
M  V30 33 1 13 32
M  V30 34 1 14 33
M  V30 35 1 16 34
M  V30 36 1 17 35
M  V30 37 1 21 36
M  V30 38 1 21 37
M  V30 39 1 24 38
M  V30 40 1 24 39
M  V30 41 1 24 40
M  V30 END BOND
M  V30 END CTAB
M  END
