
     RDKit          3D

  0  0  0  0  0  0  0  0  0  0999 V3000
M  V30 BEGIN CTAB
M  V30 COUNTS 42 44 0 0 0
M  V30 BEGIN ATOM
M  V30 1 N 6.92138 -0.474539 1.92741 0
M  V30 2 C 6.05665 -0.301744 0.82679 0
M  V30 3 N 5.3697 -1.37355 0.369925 0
M  V30 4 C 4.53184 -1.28633 -0.67011 0
M  V30 5 C 3.81706 -2.49984 -1.11528 0
M  V30 6 S 2.2567 -2.63852 -0.243413 0
M  V30 7 C 1.12 -1.34408 -0.689833 0
M  V30 8 N 1.27167 -0.323545 -1.5708 0
M  V30 9 N 0.15873 0.394931 -1.58073 0
M  V30 10 C -0.71828 -0.142818 -0.717539 0
M  V30 11 N -0.114692 -1.21237 -0.175971 0
M  V30 12 C -2.11468 0.336797 -0.39682 0
M  V30 13 C -2.72479 -0.543774 0.608732 0
M  V30 14 C -4.0884 -0.285197 1.07763 0
M  V30 15 C -5.17843 -0.304084 0.0867302 0
M  V30 16 C -5.42686 1.1051 -0.335533 0
M  V30 17 C -4.7555 1.96008 0.691371 0
M  V30 18 C -4.23506 1.04899 1.76257 0
M  V30 19 N 4.37952 -0.110423 -1.26084 0
M  V30 20 C 5.05972 0.976495 -0.817355 0
M  V30 21 N 5.89735 0.887918 0.222887 0
M  V30 22 N 4.86627 2.23445 -1.48652 0
M  V30 23 H 7.45903 -1.35909 2.01129 0
M  V30 24 H 7.02616 0.266998 2.64988 0
M  V30 25 H 3.69356 -2.45512 -2.21976 0
M  V30 26 H 4.47424 -3.36782 -0.898763 0
M  V30 27 H -0.526482 -1.85316 0.5349 0
M  V30 28 H -2.64578 0.481676 -1.33137 0
M  V30 29 H -1.92591 1.365 0.0360689 0
M  V30 30 H -2.66867 -1.60385 0.233814 0
M  V30 31 H -2.04732 -0.549723 1.51269 0
M  V30 32 H -4.33132 -1.04538 1.89481 0
M  V30 33 H -5.0566 -1.01027 -0.75193 0
M  V30 34 H -6.11964 -0.64239 0.614138 0
M  V30 35 H -6.522 1.37023 -0.327172 0
M  V30 36 H -5.09172 1.31971 -1.37104 0
M  V30 37 H -3.94478 2.58481 0.248427 0
M  V30 38 H -5.48975 2.64752 1.20824 0
M  V30 39 H -3.23955 1.41319 2.10424 0
M  V30 40 H -4.95406 0.995401 2.61703 0
M  V30 41 H 5.48592 2.49765 -2.26476 0
M  V30 42 H 4.07476 2.84065 -1.13435 0
M  V30 END ATOM
M  V30 BEGIN BOND
M  V30 1 1 1 2
M  V30 2 2 2 3
M  V30 3 1 3 4
M  V30 4 1 4 5
M  V30 5 1 5 6
M  V30 6 1 6 7
M  V30 7 2 7 8
M  V30 8 1 8 9
M  V30 9 2 9 10
M  V30 10 1 10 11
M  V30 11 1 10 12
M  V30 12 1 12 13
M  V30 13 1 13 14
M  V30 14 1 14 15
M  V30 15 1 15 16
M  V30 16 1 16 17
M  V30 17 1 17 18
M  V30 18 2 4 19
M  V30 19 1 19 20
M  V30 20 2 20 21
M  V30 21 1 20 22
M  V30 22 1 21 2
M  V30 23 1 11 7
M  V30 24 1 18 14
M  V30 25 1 1 23
M  V30 26 1 1 24
M  V30 27 1 5 25
M  V30 28 1 5 26
M  V30 29 1 11 27
M  V30 30 1 12 28
M  V30 31 1 12 29
M  V30 32 1 13 30
M  V30 33 1 13 31
M  V30 34 1 14 32
M  V30 35 1 15 33
M  V30 36 1 15 34
M  V30 37 1 16 35
M  V30 38 1 16 36
M  V30 39 1 17 37
M  V30 40 1 17 38
M  V30 41 1 18 39
M  V30 42 1 18 40
M  V30 43 1 22 41
M  V30 44 1 22 42
M  V30 END BOND
M  V30 END CTAB
M  END
