
     RDKit          3D

  0  0  0  0  0  0  0  0  0  0999 V3000
M  V30 BEGIN CTAB
M  V30 COUNTS 19 19 0 0 0
M  V30 BEGIN ATOM
M  V30 1 C 3.44582 -0.115001 0.514685 0
M  V30 2 N 2.34495 0.804119 0.394163 0
M  V30 3 C 0.990992 0.349889 0.328821 0
M  V30 4 N -0.018449 1.19494 0.21819 0
M  V30 5 C -1.26972 0.741056 0.159601 0
M  V30 6 N -2.32837 1.67931 0.0408563 0
M  V30 7 C -1.54491 -0.607543 0.212051 0
M  V30 8 N -2.85702 -1.13324 0.153227 0
M  V30 9 C -0.478713 -1.5066 0.329245 0
M  V30 10 N 0.749512 -0.970634 0.382019 0
M  V30 11 H 3.96202 0.0257059 1.48676 0
M  V30 12 H 3.05664 -1.13786 0.38107 0
M  V30 13 H 4.17626 0.0834753 -0.28958 0
M  V30 14 H 2.53145 1.82231 0.35317 0
M  V30 15 H -2.60342 2.32619 0.784245 0
M  V30 16 H -2.84435 1.69453 -0.86613 0
M  V30 17 H -3.61985 -0.727757 0.711698 0
M  V30 18 H -3.04293 -1.93945 -0.464937 0
M  V30 19 H -0.649918 -2.58344 0.374352 0
M  V30 END ATOM
M  V30 BEGIN BOND
M  V30 1 1 1 2
M  V30 2 1 2 3
M  V30 3 2 3 4
M  V30 4 1 4 5
M  V30 5 1 5 6
M  V30 6 2 5 7
M  V30 7 1 7 8
M  V30 8 1 7 9
M  V30 9 2 9 10
M  V30 10 1 10 3
M  V30 11 1 1 11
M  V30 12 1 1 12
M  V30 13 1 1 13
M  V30 14 1 2 14
M  V30 15 1 6 15
M  V30 16 1 6 16
M  V30 17 1 8 17
M  V30 18 1 8 18
M  V30 19 1 9 19
M  V30 END BOND
M  V30 END CTAB
M  END
