
     RDKit          3D

  0  0  0  0  0  0  0  0  0  0999 V3000
M  V30 BEGIN CTAB
M  V30 COUNTS 29 30 0 0 0
M  V30 BEGIN ATOM
M  V30 1 C 2.46977 2.88902 0.233177 0
M  V30 2 C 1.39348 1.87634 -0.0297011 0
M  V30 3 C 1.75024 0.499652 0.483102 0
M  V30 4 N 0.677067 -0.400548 0.193772 0
M  V30 5 C 0.736009 -1.78007 0.565199 0
M  V30 6 N -0.1197 -2.41777 1.38383 0
M  V30 7 O 0.209348 -3.6682 1.51857 0
M  V30 8 N 1.2787 -3.88417 0.799982 0
M  V30 9 C 1.65437 -2.73548 0.17949 0
M  V30 10 N 2.74227 -2.55427 -0.672036 0
M  V30 11 N -0.491206 0.0470041 -0.476386 0
M  V30 12 N -1.62143 -0.44316 -0.235162 0
M  V30 13 C -2.83086 -0.0591614 -0.852489 0
M  V30 14 N -3.10601 -0.0956823 -2.16452 0
M  V30 15 O -4.3203 0.335775 -2.35019 0
M  V30 16 N -4.87504 0.661038 -1.22307 0
M  V30 17 C -3.96427 0.426322 -0.243154 0
M  V30 18 N -4.14892 0.642057 1.14794 0
M  V30 19 H 1.98198 3.8537 0.492248 0
M  V30 20 H 3.14479 2.61836 1.05809 0
M  V30 21 H 3.10283 3.06929 -0.657715 0
M  V30 22 H 1.32207 1.7718 -1.15146 0
M  V30 23 H 0.420582 2.15754 0.371633 0
M  V30 24 H 2.67077 0.18528 -0.0573058 0
M  V30 25 H 2.01639 0.523201 1.56277 0
M  V30 26 H 2.60139 -2.2315 -1.64669 0
M  V30 27 H 3.71029 -2.7375 -0.350319 0
M  V30 28 H -5.07291 0.558612 1.58821 0
M  V30 29 H -3.3317 0.892511 1.74894 0
M  V30 END ATOM
M  V30 BEGIN BOND
M  V30 1 1 1 2
M  V30 2 1 2 3
M  V30 3 1 3 4
M  V30 4 1 4 5
M  V30 5 2 5 6
M  V30 6 1 6 7
M  V30 7 1 7 8
M  V30 8 2 8 9
M  V30 9 1 9 10
M  V30 10 1 4 11
M  V30 11 2 11 12
M  V30 12 1 12 13
M  V30 13 2 13 14
M  V30 14 1 14 15
M  V30 15 1 15 16
M  V30 16 2 16 17
M  V30 17 1 17 18
M  V30 18 1 9 5
M  V30 19 1 17 13
M  V30 20 1 1 19
M  V30 21 1 1 20
M  V30 22 1 1 21
M  V30 23 1 2 22
M  V30 24 1 2 23
M  V30 25 1 3 24
M  V30 26 1 3 25
M  V30 27 1 10 26
M  V30 28 1 10 27
M  V30 29 1 18 28
M  V30 30 1 18 29
M  V30 END BOND
M  V30 END CTAB
M  END
