
     RDKit          3D

  0  0  0  0  0  0  0  0  0  0999 V3000
M  V30 BEGIN CTAB
M  V30 COUNTS 25 26 0 0 0
M  V30 BEGIN ATOM
M  V30 1 N 3.87726 1.18157 -0.0581144 0
M  V30 2 C 2.86367 0.200412 0.0720481 0
M  V30 3 C 3.1509 -1.10306 0.436347 0
M  V30 4 N 2.17139 -2.0103 0.551676 0
M  V30 5 C 0.86786 -1.70591 0.321696 0
M  V30 6 C 0.514443 -0.442739 -0.0399381 0
M  V30 7 C 1.53939 0.505896 -0.160545 0
M  V30 8 C -0.839367 0.0128245 -0.308381 0
M  V30 9 C -1.1851 0.755631 -1.42744 0
M  V30 10 C -2.4795 1.17167 -1.66231 0
M  V30 11 C -3.46178 0.83789 -0.754414 0
M  V30 12 C -3.15842 0.101964 0.368433 0
M  V30 13 C -1.83535 -0.307565 0.582402 0
M  V30 14 N -1.56594 -1.0633 1.76267 0
M  V30 15 H 3.98735 1.77937 -0.898792 0
M  V30 16 H 4.54627 1.31317 0.724189 0
M  V30 17 H 4.19387 -1.3695 0.626172 0
M  V30 18 H 0.111019 -2.46471 0.421285 0
M  V30 19 H 1.28549 1.52078 -0.447744 0
M  V30 20 H -0.418642 1.01733 -2.13796 0
M  V30 21 H -2.79256 1.75068 -2.51912 0
M  V30 22 H -4.4957 1.14349 -0.897484 0
M  V30 23 H -3.93361 -0.157359 1.07809 0
M  V30 24 H -2.23064 -1.82346 2.04276 0
M  V30 25 H -0.712325 -0.844789 2.32448 0
M  V30 END ATOM
M  V30 BEGIN BOND
M  V30 1 1 1 2
M  V30 2 2 2 3
M  V30 3 1 3 4
M  V30 4 2 4 5
M  V30 5 1 5 6
M  V30 6 2 6 7
M  V30 7 1 6 8
M  V30 8 2 8 9
M  V30 9 1 9 10
M  V30 10 2 10 11
M  V30 11 1 11 12
M  V30 12 2 12 13
M  V30 13 1 13 14
M  V30 14 1 7 2
M  V30 15 1 13 8
M  V30 16 1 1 15
M  V30 17 1 1 16
M  V30 18 1 3 17
M  V30 19 1 5 18
M  V30 20 1 7 19
M  V30 21 1 9 20
M  V30 22 1 10 21
M  V30 23 1 11 22
M  V30 24 1 12 23
M  V30 25 1 14 24
M  V30 26 1 14 25
M  V30 END BOND
M  V30 END CTAB
M  END
