
     RDKit          3D

  0  0  0  0  0  0  0  0  0  0999 V3000
M  V30 BEGIN CTAB
M  V30 COUNTS 25 25 0 0 0
M  V30 BEGIN ATOM
M  V30 1 C 3.51329 -1.38971 -0.71241 0
M  V30 2 C 2.25703 -0.510848 -0.650351 0
M  V30 3 S 0.891086 -1.58272 -0.206979 0
M  V30 4 C -0.655809 -0.707927 -0.0958733 0
M  V30 5 N -1.76457 -1.39495 0.230201 0
M  V30 6 C -2.98209 -0.858628 0.345941 0
M  V30 7 N -4.13883 -1.59715 0.690212 0
M  V30 8 C -3.12541 0.512109 0.114075 0
M  V30 9 C -1.98605 1.20551 -0.218638 0
M  V30 10 N -0.782092 0.611703 -0.321171 0
M  V30 11 N -2.1482 2.61246 -0.453977 0
M  V30 12 C 2.4912 0.458387 0.488267 0
M  V30 13 C 3.68414 1.24825 0.201359 0
M  V30 14 N 4.64079 1.88465 -0.00880921 0
M  V30 15 H 3.24947 -2.35766 -1.21283 0
M  V30 16 H 3.77953 -1.63002 0.327232 0
M  V30 17 H 4.31107 -0.929406 -1.29655 0
M  V30 18 H 2.16153 -0.0302077 -1.62441 0
M  V30 19 H -5.08571 -1.23878 0.464946 0
M  V30 20 H -4.03686 -2.49683 1.16793 0
M  V30 21 H -4.10198 0.977723 0.200262 0
M  V30 22 H -1.65978 3.34348 0.0799788 0
M  V30 23 H -2.80156 2.93633 -1.21405 0
M  V30 24 H 1.58912 1.07116 0.616376 0
M  V30 25 H 2.7007 -0.136942 1.38577 0
M  V30 END ATOM
M  V30 BEGIN BOND
M  V30 1 1 1 2
M  V30 2 1 2 3
M  V30 3 1 3 4
M  V30 4 2 4 5
M  V30 5 1 5 6
M  V30 6 1 6 7
M  V30 7 2 6 8
M  V30 8 1 8 9
M  V30 9 2 9 10
M  V30 10 1 9 11
M  V30 11 1 2 12
M  V30 12 1 12 13
M  V30 13 3 13 14
M  V30 14 1 10 4
M  V30 15 1 1 15
M  V30 16 1 1 16
M  V30 17 1 1 17
M  V30 18 1 2 18
M  V30 19 1 7 19
M  V30 20 1 7 20
M  V30 21 1 8 21
M  V30 22 1 11 22
M  V30 23 1 11 23
M  V30 24 1 12 24
M  V30 25 1 12 25
M  V30 END BOND
M  V30 END CTAB
M  END
