
     RDKit          3D

  0  0  0  0  0  0  0  0  0  0999 V3000
M  V30 BEGIN CTAB
M  V30 COUNTS 26 26 0 0 0
M  V30 BEGIN ATOM
M  V30 1 N 3.48441 1.15707 0.405604 0
M  V30 2 C 3.42257 -0.22197 0.849759 0
M  V30 3 C 2.88437 -1.1058 -0.249979 0
M  V30 4 N 1.53818 -0.712537 -0.673113 0
M  V30 5 C 0.438227 -0.717544 0.171425 0
M  V30 6 O 0.660785 -1.08261 1.38621 0
M  V30 7 C -0.921441 -0.36323 -0.124439 0
M  V30 8 C -1.71652 0.203457 0.902382 0
M  V30 9 C -3.00412 0.623715 0.718292 0
M  V30 10 N -3.78636 1.1861 1.7655 0
M  V30 11 C -3.53132 0.472828 -0.556848 0
M  V30 12 C -2.77406 -0.0751399 -1.56047 0
M  V30 13 C -1.45093 -0.509873 -1.37523 0
M  V30 14 Br -0.565108 -1.31796 -2.86128 0
M  V30 15 H 2.73712 1.70572 0.892588 0
M  V30 16 H 4.40806 1.54118 0.644698 0
M  V30 17 H 2.90939 -0.335551 1.81395 0
M  V30 18 H 4.49965 -0.558886 0.977518 0
M  V30 19 H 2.84579 -2.14158 0.167442 0
M  V30 20 H 3.616 -1.07343 -1.08022 0
M  V30 21 H 1.47657 -0.399036 -1.65854 0
M  V30 22 H -1.28444 0.314017 1.88507 0
M  V30 23 H -4.22937 0.589789 2.48528 0
M  V30 24 H -3.91603 2.20805 1.81032 0
M  V30 25 H -4.55536 0.807133 -0.710515 0
M  V30 26 H -3.18608 -0.193913 -2.56026 0
M  V30 END ATOM
M  V30 BEGIN BOND
M  V30 1 1 1 2
M  V30 2 1 2 3
M  V30 3 1 3 4
M  V30 4 1 4 5
M  V30 5 2 5 6
M  V30 6 1 5 7
M  V30 7 2 7 8
M  V30 8 1 8 9
M  V30 9 1 9 10
M  V30 10 2 9 11
M  V30 11 1 11 12
M  V30 12 2 12 13
M  V30 13 1 13 14
M  V30 14 1 13 7
M  V30 15 1 1 15
M  V30 16 1 1 16
M  V30 17 1 2 17
M  V30 18 1 2 18
M  V30 19 1 3 19
M  V30 20 1 3 20
M  V30 21 1 4 21
M  V30 22 1 8 22
M  V30 23 1 10 23
M  V30 24 1 10 24
M  V30 25 1 11 25
M  V30 26 1 12 26
M  V30 END BOND
M  V30 END CTAB
M  END
