
     RDKit          3D

  0  0  0  0  0  0  0  0  0  0999 V3000
M  V30 BEGIN CTAB
M  V30 COUNTS 21 22 0 0 0
M  V30 BEGIN ATOM
M  V30 1 N -3.28657 -0.094627 -0.467941 0
M  V30 2 C -1.91231 0.270719 -0.48979 0
M  V30 3 C -1.46232 1.38708 -1.16435 0
M  V30 4 N -0.155907 1.72856 -1.18122 0
M  V30 5 C 0.794543 1.01135 -0.546908 0
M  V30 6 C 0.390447 -0.120544 0.145486 0
M  V30 7 C -0.946795 -0.477403 0.167659 0
M  V30 8 N -1.35956 -1.63582 0.876397 0
M  V30 9 C 1.35332 -0.863912 0.799334 0
M  V30 10 F 0.994367 -1.96828 1.48062 0
M  V30 11 C 2.68215 -0.468904 0.750264 0
M  V30 12 C 3.09964 0.652173 0.0672829 0
M  V30 13 C 2.12486 1.38761 -0.583185 0
M  V30 14 Cl 3.92967 -1.40138 1.57689 0
M  V30 15 H -4.0165 0.637648 -0.600131 0
M  V30 16 H -3.59108 -1.08177 -0.322432 0
M  V30 17 H -2.18812 2.0102 -1.69925 0
M  V30 18 H -1.54673 -2.53974 0.367836 0
M  V30 19 H -1.48854 -1.63369 1.89606 0
M  V30 20 H 4.14607 0.929849 0.0510015 0
M  V30 21 H 2.43937 2.27087 -1.12363 0
M  V30 END ATOM
M  V30 BEGIN BOND
M  V30 1 1 1 2
M  V30 2 2 2 3
M  V30 3 1 3 4
M  V30 4 2 4 5
M  V30 5 1 5 6
M  V30 6 2 6 7
M  V30 7 1 7 8
M  V30 8 1 6 9
M  V30 9 1 9 10
M  V30 10 2 9 11
M  V30 11 1 11 12
M  V30 12 2 12 13
M  V30 13 1 11 14
M  V30 14 1 7 2
M  V30 15 1 13 5
M  V30 16 1 1 15
M  V30 17 1 1 16
M  V30 18 1 3 17
M  V30 19 1 8 18
M  V30 20 1 8 19
M  V30 21 1 12 20
M  V30 22 1 13 21
M  V30 END BOND
M  V30 END CTAB
M  END
