
     RDKit          3D

  0  0  0  0  0  0  0  0  0  0999 V3000
M  V30 BEGIN CTAB
M  V30 COUNTS 25 25 0 0 0
M  V30 BEGIN ATOM
M  V30 1 N 3.05917 0.406904 -0.957413 0
M  V30 2 C 2.68739 -0.305292 0.220372 0
M  V30 3 C 1.42555 0.120813 0.859939 0
M  V30 4 C 0.192108 0.00104433 0.0715321 0
M  V30 5 C 0.1301 -0.405596 -1.22592 0
M  V30 6 C -1.12574 -0.456122 -1.84643 0
M  V30 7 C -2.29297 -0.114539 -1.20396 0
M  V30 8 C -2.20564 0.294245 0.110896 0
M  V30 9 C -0.980018 0.350481 0.737545 0
M  V30 10 C -3.46915 0.660775 0.796998 0
M  V30 11 Br -3.99439 -0.194769 -2.08167 0
M  V30 12 N 1.19812 -0.63296 2.10585 0
M  V30 13 H 3.91157 -0.034802 -1.35954 0
M  V30 14 H 3.19036 1.44181 -0.786578 0
M  V30 15 H 2.64026 -1.38072 -0.0460363 0
M  V30 16 H 3.52929 -0.218408 0.93882 0
M  V30 17 H 1.49109 1.21193 1.17758 0
M  V30 18 H 1.00573 -0.702268 -1.80524 0
M  V30 19 H -1.16872 -0.777982 -2.87214 0
M  V30 20 H -0.969565 0.681126 1.77896 0
M  V30 21 H -3.21208 1.37186 1.59766 0
M  V30 22 H -3.92533 -0.28388 1.20517 0
M  V30 23 H -4.18754 1.11983 0.0835898 0
M  V30 24 H 1.98958 -0.510487 2.76471 0
M  V30 25 H 1.08083 -1.64299 1.86604 0
M  V30 END ATOM
M  V30 BEGIN BOND
M  V30 1 1 1 2
M  V30 2 1 2 3
M  V30 3 1 3 4
M  V30 4 2 4 5
M  V30 5 1 5 6
M  V30 6 2 6 7
M  V30 7 1 7 8
M  V30 8 2 8 9
M  V30 9 1 8 10
M  V30 10 1 7 11
M  V30 11 1 3 12
M  V30 12 1 9 4
M  V30 13 1 1 13
M  V30 14 1 1 14
M  V30 15 1 2 15
M  V30 16 1 2 16
M  V30 17 1 3 17
M  V30 18 1 5 18
M  V30 19 1 6 19
M  V30 20 1 9 20
M  V30 21 1 10 21
M  V30 22 1 10 22
M  V30 23 1 10 23
M  V30 24 1 12 24
M  V30 25 1 12 25
M  V30 END BOND
M  V30 END CTAB
M  END
