
     RDKit          3D

  0  0  0  0  0  0  0  0  0  0999 V3000
M  V30 BEGIN CTAB
M  V30 COUNTS 31 33 0 0 0
M  V30 BEGIN ATOM
M  V30 1 C 5.86745 0.187871 0.273632 0
M  V30 2 O 4.89072 -0.760142 -0.0212428 0
M  V30 3 C 3.52756 -0.52669 0.165073 0
M  V30 4 C 2.60948 -1.50579 -0.145897 0
M  V30 5 C 1.23994 -1.32662 0.0200198 0
M  V30 6 C 0.749401 -0.135758 0.512093 0
M  V30 7 C 1.69353 0.848529 0.82327 0
M  V30 8 C 3.04874 0.667024 0.657523 0
M  V30 9 C -0.679202 0.123966 0.709948 0
M  V30 10 C -1.08157 0.690053 1.90093 0
M  V30 11 N -2.38609 0.932248 2.10082 0
M  V30 12 C -3.34131 0.645133 1.17973 0
M  V30 13 N -2.9672 0.0927056 0.0122612 0
M  V30 14 C -1.64755 -0.165944 -0.221438 0
M  V30 15 N -1.28574 -0.741107 -1.45284 0
M  V30 16 N -4.06743 -0.0881685 -0.704304 0
M  V30 17 C -5.15062 0.334589 -0.0287653 0
M  V30 18 N -4.68032 0.78979 1.1461 0
M  V30 19 N -6.52169 0.306467 -0.468306 0
M  V30 20 H 5.74062 1.04225 -0.431199 0
M  V30 21 H 6.86497 -0.280404 0.121903 0
M  V30 22 H 5.76147 0.582791 1.32494 0
M  V30 23 H 2.95737 -2.44766 -0.532331 0
M  V30 24 H 0.527807 -2.09683 -0.222992 0
M  V30 25 H 1.29353 1.778 1.20864 0
M  V30 26 H 3.74289 1.45604 0.911409 0
M  V30 27 H -0.320725 0.924285 2.64731 0
M  V30 28 H -0.851742 -0.161229 -2.21968 0
M  V30 29 H -1.44549 -1.76705 -1.62501 0
M  V30 30 H -6.83293 0.844324 -1.31534 0
M  V30 31 H -7.25583 -0.242669 0.0296458 0
M  V30 END ATOM
M  V30 BEGIN BOND
M  V30 1 1 1 2
M  V30 2 1 2 3
M  V30 3 2 3 4
M  V30 4 1 4 5
M  V30 5 2 5 6
M  V30 6 1 6 7
M  V30 7 2 7 8
M  V30 8 1 6 9
M  V30 9 1 9 10
M  V30 10 2 10 11
M  V30 11 1 11 12
M  V30 12 1 12 13
M  V30 13 1 13 14
M  V30 14 1 14 15
M  V30 15 1 13 16
M  V30 16 2 16 17
M  V30 17 1 17 18
M  V30 18 1 17 19
M  V30 19 1 8 3
M  V30 20 2 14 9
M  V30 21 2 18 12
M  V30 22 1 1 20
M  V30 23 1 1 21
M  V30 24 1 1 22
M  V30 25 1 4 23
M  V30 26 1 5 24
M  V30 27 1 7 25
M  V30 28 1 8 26
M  V30 29 1 10 27
M  V30 30 1 15 28
M  V30 31 1 15 29
M  V30 32 1 19 30
M  V30 33 1 19 31
M  V30 END BOND
M  V30 END CTAB
M  END
