
     RDKit          3D

  0  0  0  0  0  0  0  0  0  0999 V3000
M  V30 BEGIN CTAB
M  V30 COUNTS 47 48 0 0 0
M  V30 BEGIN ATOM
M  V30 1 N -5.11234 0.387791 0.439416 0
M  V30 2 C -3.72124 0.00457611 0.288561 0
M  V30 3 C -3.3449 0.135285 -1.1707 0
M  V30 4 C -1.93989 -0.314475 -1.37113 0
M  V30 5 C -1.92289 -1.82629 -1.5261 0
M  V30 6 C -1.47013 0.239728 -2.72415 0
M  V30 7 N -1.00661 0.0985707 -0.324778 0
M  V30 8 C -1.4076 0.763045 0.871341 0
M  V30 9 C -2.88354 1.01829 1.01277 0
M  V30 10 C -0.767148 2.15785 0.957412 0
M  V30 11 C -1.02952 -0.0641396 2.11337 0
M  V30 12 C 0.369589 -0.235118 -0.602977 0
M  V30 13 O 0.577937 -0.850008 -1.69981 0
M  V30 14 N 1.43994 0.0764023 0.246686 0
M  V30 15 C 2.79859 -0.217344 0.0389997 0
M  V30 16 C 3.34509 -0.867758 -1.03742 0
M  V30 17 C 4.72407 -1.11657 -1.15637 0
M  V30 18 C 5.58594 -0.705618 -0.174124 0
M  V30 19 C 5.07863 -0.0574288 0.907966 0
M  V30 20 C 3.72963 0.180914 1.0149 0
M  V30 21 Cl 3.20005 1.02646 2.45915 0
M  V30 22 N 6.96786 -0.98361 -0.346853 0
M  V30 23 H -5.26838 1.40246 0.346887 0
M  V30 24 H -5.74701 -0.135297 -0.194509 0
M  V30 25 H -3.58039 -1.00244 0.681294 0
M  V30 26 H -4.00911 -0.457605 -1.81336 0
M  V30 27 H -3.39539 1.21962 -1.412 0
M  V30 28 H -1.44956 -2.32644 -0.655922 0
M  V30 29 H -2.9741 -2.16761 -1.56646 0
M  V30 30 H -1.37656 -2.14949 -2.42889 0
M  V30 31 H -2.34065 0.744019 -3.18224 0
M  V30 32 H -1.14954 -0.554851 -3.41172 0
M  V30 33 H -0.714643 1.0442 -2.57864 0
M  V30 34 H -3.14997 1.00151 2.08326 0
M  V30 35 H -3.16476 2.04445 0.651801 0
M  V30 36 H -1.5143 2.97041 0.865528 0
M  V30 37 H -0.060748 2.3082 0.115533 0
M  V30 38 H -0.299043 2.25618 1.94818 0
M  V30 39 H -0.470933 0.538793 2.82898 0
M  V30 40 H -1.92216 -0.454109 2.63988 0
M  V30 41 H -0.442946 -0.96243 1.82896 0
M  V30 42 H 1.24673 0.593519 1.15912 0
M  V30 43 H 2.72928 -1.21496 -1.83942 0
M  V30 44 H 5.10863 -1.63112 -2.01978 0
M  V30 45 H 5.77955 0.259764 1.67497 0
M  V30 46 H 7.25683 -1.91395 -0.723665 0
M  V30 47 H 7.6976 -0.26337 -0.0993963 0
M  V30 END ATOM
M  V30 BEGIN BOND
M  V30 1 1 1 2
M  V30 2 1 2 3
M  V30 3 1 3 4
M  V30 4 1 4 5
M  V30 5 1 4 6
M  V30 6 1 4 7
M  V30 7 1 7 8
M  V30 8 1 8 9
M  V30 9 1 8 10
M  V30 10 1 8 11
M  V30 11 1 7 12
M  V30 12 2 12 13
M  V30 13 1 12 14
M  V30 14 1 14 15
M  V30 15 2 15 16
M  V30 16 1 16 17
M  V30 17 2 17 18
M  V30 18 1 18 19
M  V30 19 2 19 20
M  V30 20 1 20 21
M  V30 21 1 18 22
M  V30 22 1 9 2
M  V30 23 1 20 15
M  V30 24 1 1 23
M  V30 25 1 1 24
M  V30 26 1 2 25
M  V30 27 1 3 26
M  V30 28 1 3 27
M  V30 29 1 5 28
M  V30 30 1 5 29
M  V30 31 1 5 30
M  V30 32 1 6 31
M  V30 33 1 6 32
M  V30 34 1 6 33
M  V30 35 1 9 34
M  V30 36 1 9 35
M  V30 37 1 10 36
M  V30 38 1 10 37
M  V30 39 1 10 38
M  V30 40 1 11 39
M  V30 41 1 11 40
M  V30 42 1 11 41
M  V30 43 1 14 42
M  V30 44 1 16 43
M  V30 45 1 17 44
M  V30 46 1 19 45
M  V30 47 1 22 46
M  V30 48 1 22 47
M  V30 END BOND
M  V30 END CTAB
M  END
