
     RDKit          3D

  0  0  0  0  0  0  0  0  0  0999 V3000
M  V30 BEGIN CTAB
M  V30 COUNTS 59 61 0 0 0
M  V30 BEGIN ATOM
M  V30 1 C 0.307554 7.36072 0.281209 0
M  V30 2 O -0.0509893 6.19265 0.95846 0
M  V30 3 C -0.118742 4.92694 0.426925 0
M  V30 4 C -0.497896 3.90859 1.28404 0
M  V30 5 C -0.580581 2.61104 0.792862 0
M  V30 6 C -0.300722 2.30099 -0.508711 0
M  V30 7 C 0.073024 3.3431 -1.3303 0
M  V30 8 C 0.163578 4.64344 -0.868577 0
M  V30 9 C -0.397969 0.883184 -0.962465 0
M  V30 10 C -1.60269 0.182392 -0.495434 0
M  V30 11 C -1.71531 -1.0225 0.10131 0
M  V30 12 N -0.57299 -1.80647 0.335213 0
M  V30 13 N -2.94828 -1.49284 0.472872 0
M  V30 14 C -4.08641 -0.821522 0.279971 0
M  V30 15 N -3.98961 0.373219 -0.311098 0
M  V30 16 C -2.81897 0.880437 -0.693323 0
M  V30 17 O -2.75643 2.02648 -1.25841 0
M  V30 18 S -5.67759 -1.48947 0.795924 0
M  V30 19 C -5.48189 -3.10249 1.56436 0
M  V30 20 C -5.01644 -4.07123 0.553756 0
M  V30 21 O -4.83503 -3.69925 -0.588583 0
M  V30 22 C -4.77735 -5.48174 0.945023 0
M  V30 23 C 0.839898 0.185017 -1.1817 0
M  V30 24 C 1.91436 0.0647364 -0.315431 0
M  V30 25 N 1.8861 0.714642 0.923648 0
M  V30 26 N 3.02554 -0.633595 -0.605468 0
M  V30 27 C 3.17021 -1.26364 -1.75937 0
M  V30 28 N 2.16332 -1.18268 -2.63913 0
M  V30 29 C 1.03562 -0.499013 -2.39561 0
M  V30 30 O 0.130233 -0.481953 -3.30143 0
M  V30 31 S 4.66824 -2.18869 -2.11841 0
M  V30 32 C 5.83543 -2.10214 -0.757686 0
M  V30 33 C 5.35929 -2.77339 0.462487 0
M  V30 34 O 4.27738 -3.31421 0.468867 0
M  V30 35 C 6.18877 -2.7935 1.68017 0
M  V30 36 H -0.572787 7.71559 -0.287499 0
M  V30 37 H 1.21675 7.24991 -0.328422 0
M  V30 38 H 0.544684 8.12883 1.06809 0
M  V30 39 H -0.725237 4.12149 2.31819 0
M  V30 40 H -0.880173 1.84425 1.48492 0
M  V30 41 H 0.297323 3.10864 -2.36209 0
M  V30 42 H 0.459545 5.40371 -1.56178 0
M  V30 43 H -0.750716 1.09941 -2.09546 0
M  V30 44 H -0.234899 -2.471 -0.380824 0
M  V30 45 H -0.0754704 -1.72105 1.23716 0
M  V30 46 H -4.8595 0.91526 -0.473925 0
M  V30 47 H -4.73509 -2.96757 2.38762 0
M  V30 48 H -6.41882 -3.46868 2.03156 0
M  V30 49 H -4.90344 -6.13023 0.0445431 0
M  V30 50 H -3.75872 -5.57989 1.31872 0
M  V30 51 H -5.55708 -5.77158 1.68962 0
M  V30 52 H 2.38209 1.60449 1.13329 0
M  V30 53 H 1.33375 0.288523 1.70148 0
M  V30 54 H 2.30437 -1.69817 -3.5602 0
M  V30 55 H 6.76553 -2.62221 -1.08813 0
M  V30 56 H 6.13798 -1.04389 -0.57427 0
M  V30 57 H 6.91576 -3.64592 1.68325 0
M  V30 58 H 5.5418 -2.8885 2.57244 0
M  V30 59 H 6.75971 -1.84867 1.8058 0
M  V30 END ATOM
M  V30 BEGIN BOND
M  V30 1 1 1 2
M  V30 2 1 2 3
M  V30 3 2 3 4
M  V30 4 1 4 5
M  V30 5 2 5 6
M  V30 6 1 6 7
M  V30 7 2 7 8
M  V30 8 1 6 9
M  V30 9 1 9 10
M  V30 10 2 10 11
M  V30 11 1 11 12
M  V30 12 1 11 13
M  V30 13 2 13 14
M  V30 14 1 14 15
M  V30 15 1 15 16
M  V30 16 2 16 17
M  V30 17 1 14 18
M  V30 18 1 18 19
M  V30 19 1 19 20
M  V30 20 2 20 21
M  V30 21 1 20 22
M  V30 22 1 9 23
M  V30 23 2 23 24
M  V30 24 1 24 25
M  V30 25 1 24 26
M  V30 26 2 26 27
M  V30 27 1 27 28
M  V30 28 1 28 29
M  V30 29 2 29 30
M  V30 30 1 27 31
M  V30 31 1 31 32
M  V30 32 1 32 33
M  V30 33 2 33 34
M  V30 34 1 33 35
M  V30 35 1 8 3
M  V30 36 1 16 10
M  V30 37 1 29 23
M  V30 38 1 1 36
M  V30 39 1 1 37
M  V30 40 1 1 38
M  V30 41 1 4 39
M  V30 42 1 5 40
M  V30 43 1 7 41
M  V30 44 1 8 42
M  V30 45 1 9 43
M  V30 46 1 12 44
M  V30 47 1 12 45
M  V30 48 1 15 46
M  V30 49 1 19 47
M  V30 50 1 19 48
M  V30 51 1 22 49
M  V30 52 1 22 50
M  V30 53 1 22 51
M  V30 54 1 25 52
M  V30 55 1 25 53
M  V30 56 1 28 54
M  V30 57 1 32 55
M  V30 58 1 32 56
M  V30 59 1 35 57
M  V30 60 1 35 58
M  V30 61 1 35 59
M  V30 END BOND
M  V30 END CTAB
M  END
