
     RDKit          3D

  0  0  0  0  0  0  0  0  0  0999 V3000
M  V30 BEGIN CTAB
M  V30 COUNTS 62 65 0 0 0
M  V30 BEGIN ATOM
M  V30 1 C -5.93895 1.74895 -1.125 0
M  V30 2 O -5.33663 0.991009 -0.18327 0
M  V30 3 C -4.76788 -0.186511 -0.551024 0
M  V30 4 C -3.68688 0.0526726 -1.62141 0
M  V30 5 C -3.15892 -1.23735 -2.1553 0
M  V30 6 C -3.93581 -2.38903 -1.55986 0
M  V30 7 C -3.73152 -2.36062 -0.0495163 0
M  V30 8 C -4.27589 -1.07184 0.534068 0
M  V30 9 C -3.39918 -0.504715 1.58469 0
M  V30 10 O -2.21397 0.0746857 1.13836 0
M  V30 11 C -0.960599 -0.368863 1.487 0
M  V30 12 C 0.192205 0.258833 0.988727 0
M  V30 13 C 1.44187 -0.182803 1.33698 0
M  V30 14 N 1.50384 -1.23629 2.17099 0
M  V30 15 C 0.432261 -1.8673 2.67181 0
M  V30 16 N 0.530224 -2.97839 3.55126 0
M  V30 17 N -0.782109 -1.40392 2.3063 0
M  V30 18 C 2.64694 0.45596 0.830231 0
M  V30 19 C 3.90813 -0.0261314 1.21015 0
M  V30 20 C 5.06526 0.557549 0.747703 0
M  V30 21 C 5.05928 1.6399 -0.107855 0
M  V30 22 C 6.31489 2.2657 -0.603113 0
M  V30 23 C 6.77897 1.61758 -1.89961 0 CFG=2
M  V30 24 N 7.03232 0.211317 -1.714 0
M  V30 25 C 8.02717 2.28101 -2.33122 0
M  V30 26 O 9.17347 1.52239 -2.48667 0
M  V30 27 O 8.1218 3.51006 -2.57162 0
M  V30 28 C 3.82585 2.12204 -0.487863 0
M  V30 29 C 2.64304 1.53067 -0.0192939 0
M  V30 30 C -4.08215 0.243162 2.7039 0
M  V30 31 F -4.98717 -0.60617 3.35808 0
M  V30 32 F -3.12208 0.492951 3.72948 0
M  V30 33 F -4.58553 1.45838 2.41165 0
M  V30 34 C -5.3858 -2.12312 -1.80288 0
M  V30 35 C -5.83056 -0.982714 -1.28329 0
M  V30 36 H -6.34756 2.67346 -0.623034 0
M  V30 37 H -6.80388 1.30653 -1.63117 0
M  V30 38 H -5.28612 2.15428 -1.9252 0
M  V30 39 H -4.24281 0.531179 -2.48187 0
M  V30 40 H -2.93944 0.772955 -1.29847 0
M  V30 41 H -2.06901 -1.30855 -1.90975 0
M  V30 42 H -3.2622 -1.33894 -3.26707 0
M  V30 43 H -3.62451 -3.35256 -1.98059 0
M  V30 44 H -2.65441 -2.4845 0.201406 0
M  V30 45 H -4.25976 -3.25663 0.335082 0
M  V30 46 H -5.21896 -1.40537 1.08789 0
M  V30 47 H -3.01952 -1.4576 2.14485 0
M  V30 48 H 0.0335765 1.08741 0.332739 0
M  V30 49 H -0.139578 -3.77348 3.55041 0
M  V30 50 H 1.3119 -3.00723 4.23772 0
M  V30 51 H 3.92311 -0.876608 1.88236 0
M  V30 52 H 6.05303 0.179444 1.04576 0
M  V30 53 H 7.14782 2.16044 0.121209 0
M  V30 54 H 6.19084 3.35333 -0.781695 0
M  V30 55 H 6.03051 1.79607 -2.71657 0
M  V30 56 H 6.18742 -0.359235 -1.91168 0
M  V30 57 H 7.85232 -0.045911 -2.33424 0
M  V30 58 H 10.0377 1.69086 -1.97771 0
M  V30 59 H 3.77914 2.96755 -1.15609 0
M  V30 60 H 1.68629 1.94319 -0.344424 0
M  V30 61 H -6.03067 -2.79734 -2.35561 0
M  V30 62 H -6.85114 -0.661791 -1.37163 0
M  V30 END ATOM
M  V30 BEGIN BOND
M  V30 1 1 1 2
M  V30 2 1 2 3
M  V30 3 1 3 4
M  V30 4 1 4 5
M  V30 5 1 5 6
M  V30 6 1 6 7
M  V30 7 1 7 8
M  V30 8 1 8 9
M  V30 9 1 9 10
M  V30 10 1 10 11
M  V30 11 2 11 12
M  V30 12 1 12 13
M  V30 13 2 13 14
M  V30 14 1 14 15
M  V30 15 1 15 16
M  V30 16 2 15 17
M  V30 17 1 13 18
M  V30 18 2 18 19
M  V30 19 1 19 20
M  V30 20 2 20 21
M  V30 21 1 21 22
M  V30 22 1 22 23
M  V30 23 1 23 24
M  V30 24 1 23 25
M  V30 25 1 25 26
M  V30 26 2 25 27
M  V30 27 1 21 28
M  V30 28 2 28 29
M  V30 29 1 9 30
M  V30 30 1 30 31
M  V30 31 1 30 32
M  V30 32 1 30 33
M  V30 33 1 6 34
M  V30 34 2 34 35
M  V30 35 1 8 3
M  V30 36 1 17 11
M  V30 37 1 29 18
M  V30 38 1 35 3
M  V30 39 1 1 36
M  V30 40 1 1 37
M  V30 41 1 1 38
M  V30 42 1 4 39
M  V30 43 1 4 40
M  V30 44 1 5 41
M  V30 45 1 5 42
M  V30 46 1 6 43
M  V30 47 1 7 44
M  V30 48 1 7 45
M  V30 49 1 8 46
M  V30 50 1 9 47
M  V30 51 1 12 48
M  V30 52 1 16 49
M  V30 53 1 16 50
M  V30 54 1 19 51
M  V30 55 1 20 52
M  V30 56 1 22 53
M  V30 57 1 22 54
M  V30 58 1 23 55 CFG=3
M  V30 59 1 24 56
M  V30 60 1 24 57
M  V30 61 1 26 58
M  V30 62 1 28 59
M  V30 63 1 29 60
M  V30 64 1 34 61
M  V30 65 1 35 62
M  V30 END BOND
M  V30 END CTAB
M  END
