
     RDKit          3D

  0  0  0  0  0  0  0  0  0  0999 V3000
M  V30 BEGIN CTAB
M  V30 COUNTS 43 46 0 0 0
M  V30 BEGIN ATOM
M  V30 1 N -3.77451 0.480012 -1.82838 0
M  V30 2 C -3.12508 1.20542 -0.75881 0
M  V30 3 C -4.14482 1.40157 0.359339 0
M  V30 4 C -3.65713 0.812355 1.66427 0
M  V30 5 C -3.2843 -0.637934 1.54761 0
M  V30 6 C -2.4919 -0.902481 0.313946 0
M  V30 7 C -1.9865 0.45504 -0.195315 0
M  V30 8 C -0.963814 -0.00384677 -1.19717 0
M  V30 9 N -0.241743 -0.996017 -0.38501 0
M  V30 10 C -1.16813 -1.58085 0.573842 0
M  V30 11 C 1.12216 -1.36462 -0.472341 0
M  V30 12 N 1.4479 -2.63393 -0.744801 0
M  V30 13 C 2.75131 -3.03147 -0.837893 0
M  V30 14 N 3.72369 -2.12592 -0.651294 0
M  V30 15 C 3.45514 -0.848868 -0.377556 0
M  V30 16 C 2.13333 -0.447527 -0.283537 0
M  V30 17 N 1.82781 0.897747 0.00495666 0
M  V30 18 N 4.526 0.0619547 -0.190463 0
M  V30 19 C 5.1255 0.354361 0.971854 0
M  V30 20 C 6.12015 1.28247 0.746397 0
M  V30 21 C 6.09769 1.54055 -0.60536 0
M  V30 22 N 5.12015 0.779405 -1.11795 0
M  V30 23 H -4.30708 1.20527 -2.39076 0
M  V30 24 H -4.52849 -0.157658 -1.45462 0
M  V30 25 H -2.80468 2.18461 -1.16505 0
M  V30 26 H -5.13815 1.0481 0.0881477 0
M  V30 27 H -4.23485 2.51232 0.546955 0
M  V30 28 H -4.49123 0.88798 2.38147 0
M  V30 29 H -2.82017 1.39658 2.0791 0
M  V30 30 H -2.62963 -0.885611 2.42919 0
M  V30 31 H -4.17433 -1.28423 1.60147 0
M  V30 32 H -3.05225 -1.40407 -0.496276 0
M  V30 33 H -1.4757 0.991435 0.59854 0
M  V30 34 H -1.46115 -0.606993 -1.99913 0
M  V30 35 H -0.30738 0.777236 -1.57194 0
M  V30 36 H -1.20089 -2.66866 0.360456 0
M  V30 37 H -0.879258 -1.35943 1.61789 0
M  V30 38 H 3.05019 -4.04465 -1.05563 0
M  V30 39 H 1.93275 1.63493 -0.721003 0
M  V30 40 H 1.49181 1.17925 0.948452 0
M  V30 41 H 4.90014 -0.0503821 1.96847 0
M  V30 42 H 6.79167 1.73089 1.46054 0
M  V30 43 H 6.72579 2.21564 -1.1805 0
M  V30 END ATOM
M  V30 BEGIN BOND
M  V30 1 1 1 2
M  V30 2 1 2 3
M  V30 3 1 3 4
M  V30 4 1 4 5
M  V30 5 1 5 6
M  V30 6 1 6 7
M  V30 7 1 7 8
M  V30 8 1 8 9
M  V30 9 1 9 10
M  V30 10 1 9 11
M  V30 11 2 11 12
M  V30 12 1 12 13
M  V30 13 2 13 14
M  V30 14 1 14 15
M  V30 15 2 15 16
M  V30 16 1 16 17
M  V30 17 1 15 18
M  V30 18 1 18 19
M  V30 19 2 19 20
M  V30 20 1 20 21
M  V30 21 2 21 22
M  V30 22 1 7 2
M  V30 23 1 16 11
M  V30 24 1 22 18
M  V30 25 1 10 6
M  V30 26 1 1 23
M  V30 27 1 1 24
M  V30 28 1 2 25
M  V30 29 1 3 26
M  V30 30 1 3 27
M  V30 31 1 4 28
M  V30 32 1 4 29
M  V30 33 1 5 30
M  V30 34 1 5 31
M  V30 35 1 6 32
M  V30 36 1 7 33
M  V30 37 1 8 34
M  V30 38 1 8 35
M  V30 39 1 10 36
M  V30 40 1 10 37
M  V30 41 1 13 38
M  V30 42 1 17 39
M  V30 43 1 17 40
M  V30 44 1 19 41
M  V30 45 1 20 42
M  V30 46 1 21 43
M  V30 END BOND
M  V30 END CTAB
M  END
