
     RDKit          3D

  0  0  0  0  0  0  0  0  0  0999 V3000
M  V30 BEGIN CTAB
M  V30 COUNTS 40 41 0 0 0
M  V30 BEGIN ATOM
M  V30 1 N -3.53543 2.2538 2.87399 0
M  V30 2 C -3.07348 1.53654 2.09475 0
M  V30 3 C -2.4705 0.642742 1.09071 0
M  V30 4 C -1.17209 0.666848 0.897148 0
M  V30 5 N -0.421662 1.58856 1.7027 0
M  V30 6 N -0.476996 -0.138915 -0.03755 0
M  V30 7 C -1.24614 -1.03802 -0.820873 0
M  V30 8 C -2.53836 -1.0687 -0.634031 0
M  V30 9 C -3.32731 -0.267906 0.312942 0
M  V30 10 C -4.41372 0.487334 -0.43725 0
M  V30 11 F -5.22537 1.17831 0.402404 0
M  V30 12 F -5.15376 -0.447356 -1.12196 0
M  V30 13 F -3.78512 1.34496 -1.30971 0
M  V30 14 C -4.06618 -1.16479 1.30831 0
M  V30 15 F -4.89568 -2.05341 0.672467 0
M  V30 16 F -3.16913 -1.90034 2.05931 0
M  V30 17 F -4.79791 -0.404119 2.16099 0
M  V30 18 C -0.527098 -1.88717 -1.8045 0
M  V30 19 C 0.909754 -0.0625628 -0.193156 0
M  V30 20 C 1.47619 0.818514 -1.10217 0
M  V30 21 C 2.83969 0.91477 -1.27627 0
M  V30 22 C 3.68425 0.117805 -0.532019 0
M  V30 23 C 3.15075 -0.768877 0.380678 0
M  V30 24 C 1.78068 -0.86081 0.55086 0
M  V30 25 S 5.42592 0.191058 -0.705017 0
M  V30 26 O 5.77313 0.555258 -2.11114 0
M  V30 27 O 6.01591 -1.12676 -0.34451 0
M  V30 28 N 6.05167 1.37371 0.404393 0
M  V30 29 H 0.522142 1.27552 2.00151 0
M  V30 30 H -0.826112 2.50951 1.95639 0
M  V30 31 H -3.08654 -1.78441 -1.26891 0
M  V30 32 H -0.168406 -2.83688 -1.3621 0
M  V30 33 H 0.242442 -1.34396 -2.36596 0
M  V30 34 H -1.30104 -2.1942 -2.56386 0
M  V30 35 H 0.803564 1.43852 -1.68028 0
M  V30 36 H 3.2313 1.61743 -1.99775 0
M  V30 37 H 3.80671 -1.40527 0.976047 0
M  V30 38 H 1.38913 -1.56777 1.27663 0
M  V30 39 H 7.0528 1.54486 0.195195 0
M  V30 40 H 5.522 2.26619 0.351609 0
M  V30 END ATOM
M  V30 BEGIN BOND
M  V30 1 3 1 2
M  V30 2 1 2 3
M  V30 3 2 3 4
M  V30 4 1 4 5
M  V30 5 1 4 6
M  V30 6 1 6 7
M  V30 7 2 7 8
M  V30 8 1 8 9
M  V30 9 1 9 10
M  V30 10 1 10 11
M  V30 11 1 10 12
M  V30 12 1 10 13
M  V30 13 1 9 14
M  V30 14 1 14 15
M  V30 15 1 14 16
M  V30 16 1 14 17
M  V30 17 1 7 18
M  V30 18 1 6 19
M  V30 19 2 19 20
M  V30 20 1 20 21
M  V30 21 2 21 22
M  V30 22 1 22 23
M  V30 23 2 23 24
M  V30 24 1 22 25
M  V30 25 2 25 26
M  V30 26 2 25 27
M  V30 27 1 25 28
M  V30 28 1 9 3
M  V30 29 1 24 19
M  V30 30 1 5 29
M  V30 31 1 5 30
M  V30 32 1 8 31
M  V30 33 1 18 32
M  V30 34 1 18 33
M  V30 35 1 18 34
M  V30 36 1 20 35
M  V30 37 1 21 36
M  V30 38 1 23 37
M  V30 39 1 24 38
M  V30 40 1 28 39
M  V30 41 1 28 40
M  V30 END BOND
M  V30 END CTAB
M  END
