
     RDKit          3D

  0  0  0  0  0  0  0  0  0  0999 V3000
M  V30 BEGIN CTAB
M  V30 COUNTS 35 36 0 0 0
M  V30 BEGIN ATOM
M  V30 1 N -5.84755 2.80937 0.626637 0
M  V30 2 C -5.94999 1.39992 0.541245 0
M  V30 3 N -6.89268 0.832817 1.23586 0
M  V30 4 N -5.07738 0.647569 -0.255021 0
M  V30 5 C -3.86976 0.0889608 0.318224 0
M  V30 6 N -2.93556 -0.626924 -0.278379 0
M  V30 7 C -1.91012 -1.04301 0.429687 0
M  V30 8 C -0.820508 -1.85924 -0.270598 0
M  V30 9 S 0.390085 -0.648556 -0.852471 0
M  V30 10 C 1.19813 0.0811007 0.623667 0
M  V30 11 C 2.03067 -1.03979 1.23381 0
M  V30 12 N 3.01123 -1.44098 0.248432 0
M  V30 13 C 4.05644 -0.480873 -0.0423765 0
M  V30 14 N 4.73906 -0.0130702 0.938628 0
M  V30 15 S 5.86918 1.07897 0.223733 0
M  V30 16 O 7.28101 0.597097 0.381172 0
M  V30 17 O 5.63923 2.44437 0.742093 0
M  V30 18 N 5.3531 0.846351 -1.40403 0
M  V30 19 C 4.39184 -0.00960282 -1.33926 0
M  V30 20 N 3.77138 -0.397036 -2.56562 0
M  V30 21 N -1.88091 -0.71086 1.71943 0
M  V30 22 S -3.29277 0.180172 1.91675 0
M  V30 23 H -5.75197 3.35769 -0.249481 0
M  V30 24 H -5.87296 3.2376 1.56934 0
M  V30 25 H -7.00686 -0.206454 1.20416 0
M  V30 26 H -5.2306 0.446537 -1.26068 0
M  V30 27 H -1.22458 -2.47125 -1.07396 0
M  V30 28 H -0.326353 -2.49591 0.483725 0
M  V30 29 H 0.415177 0.428099 1.35575 0
M  V30 30 H 1.84191 0.933676 0.371263 0
M  V30 31 H 1.3587 -1.88835 1.43273 0
M  V30 32 H 2.51 -0.687225 2.17321 0
M  V30 33 H 2.94683 -2.35335 -0.200722 0
M  V30 34 H 4.03679 -1.28869 -3.0338 0
M  V30 35 H 3.04979 0.25088 -2.96049 0
M  V30 END ATOM
M  V30 BEGIN BOND
M  V30 1 1 1 2
M  V30 2 2 2 3 CFG=2
M  V30 3 1 2 4
M  V30 4 1 4 5
M  V30 5 2 5 6
M  V30 6 1 6 7
M  V30 7 1 7 8
M  V30 8 1 8 9
M  V30 9 1 9 10
M  V30 10 1 10 11
M  V30 11 1 11 12
M  V30 12 1 12 13
M  V30 13 2 13 14
M  V30 14 1 14 15
M  V30 15 2 15 16
M  V30 16 2 15 17
M  V30 17 1 15 18
M  V30 18 2 18 19
M  V30 19 1 19 20
M  V30 20 2 7 21
M  V30 21 1 21 22
M  V30 22 1 22 5
M  V30 23 1 19 13
M  V30 24 1 1 23
M  V30 25 1 1 24
M  V30 26 1 3 25
M  V30 27 1 4 26
M  V30 28 1 8 27
M  V30 29 1 8 28
M  V30 30 1 10 29
M  V30 31 1 10 30
M  V30 32 1 11 31
M  V30 33 1 11 32
M  V30 34 1 12 33
M  V30 35 1 20 34
M  V30 36 1 20 35
M  V30 END BOND
M  V30 END CTAB
M  END
