
     RDKit          3D

  0  0  0  0  0  0  0  0  0  0999 V3000
M  V30 BEGIN CTAB
M  V30 COUNTS 37 38 0 0 0
M  V30 BEGIN ATOM
M  V30 1 C -4.77241 -0.0266748 -1.48813 0
M  V30 2 C -3.84438 0.917857 -0.754323 0
M  V30 3 C -3.72776 0.465876 0.680587 0
M  V30 4 C -2.83009 1.33392 1.49676 0
M  V30 5 O -1.51225 1.42794 1.06648 0
M  V30 6 C -0.638144 0.359226 0.954386 0
M  V30 7 N -0.984742 -0.902383 1.25817 0
M  V30 8 C -0.109887 -1.91664 1.13771 0
M  V30 9 N -0.573172 -3.2364 1.48741 0
M  V30 10 N 1.15087 -1.7337 0.710898 0
M  V30 11 C 1.56538 -0.477378 0.386389 0
M  V30 12 C 0.672573 0.536167 0.512769 0
M  V30 13 N 1.06873 1.86598 0.187213 0
M  V30 14 C 2.93818 -0.318983 -0.0684637 0
M  V30 15 C 3.22015 0.444927 -1.17734 0
M  V30 16 C 4.53543 0.610271 -1.62698 0
M  V30 17 C 5.57573 0.0024647 -0.956253 0
M  V30 18 C 5.30494 -0.756519 0.143714 0
M  V30 19 C 4.00545 -0.908002 0.571543 0
M  V30 20 Cl 7.22789 0.202953 -1.51103 0
M  V30 21 H -4.33393 -0.384809 -2.44061 0
M  V30 22 H -5.1129 -0.821745 -0.827689 0
M  V30 23 H -5.69468 0.548407 -1.79236 0
M  V30 24 H -2.82682 0.769509 -1.21844 0
M  V30 25 H -4.12825 1.96246 -0.858345 0
M  V30 26 H -3.49539 -0.605045 0.756171 0
M  V30 27 H -4.76285 0.590769 1.11757 0
M  V30 28 H -3.28108 2.34366 1.63005 0
M  V30 29 H -2.82455 0.896408 2.53795 0
M  V30 30 H -0.492189 -3.54778 2.46358 0
M  V30 31 H -0.969276 -3.80322 0.711815 0
M  V30 32 H 0.673281 2.34565 -0.646449 0
M  V30 33 H 1.75994 2.41395 0.755495 0
M  V30 34 H 2.47929 0.95226 -1.76277 0
M  V30 35 H 4.75266 1.21081 -2.49782 0
M  V30 36 H 6.13556 -1.23829 0.674272 0
M  V30 37 H 3.8487 -1.5239 1.45361 0
M  V30 END ATOM
M  V30 BEGIN BOND
M  V30 1 1 1 2
M  V30 2 1 2 3
M  V30 3 1 3 4
M  V30 4 1 4 5
M  V30 5 1 5 6
M  V30 6 2 6 7
M  V30 7 1 7 8
M  V30 8 1 8 9
M  V30 9 2 8 10
M  V30 10 1 10 11
M  V30 11 2 11 12
M  V30 12 1 12 13
M  V30 13 1 11 14
M  V30 14 2 14 15
M  V30 15 1 15 16
M  V30 16 2 16 17
M  V30 17 1 17 18
M  V30 18 2 18 19
M  V30 19 1 17 20
M  V30 20 1 12 6
M  V30 21 1 19 14
M  V30 22 1 1 21
M  V30 23 1 1 22
M  V30 24 1 1 23
M  V30 25 1 2 24
M  V30 26 1 2 25
M  V30 27 1 3 26
M  V30 28 1 3 27
M  V30 29 1 4 28
M  V30 30 1 4 29
M  V30 31 1 9 30
M  V30 32 1 9 31
M  V30 33 1 13 32
M  V30 34 1 13 33
M  V30 35 1 15 34
M  V30 36 1 16 35
M  V30 37 1 18 36
M  V30 38 1 19 37
M  V30 END BOND
M  V30 END CTAB
M  END
