
     RDKit          3D

  0  0  0  0  0  0  0  0  0  0999 V3000
M  V30 BEGIN CTAB
M  V30 COUNTS 16 16 0 0 0
M  V30 BEGIN ATOM
M  V30 1 F -2.53636 1.49824 -0.125855 0
M  V30 2 C -1.277 0.996239 -0.0636076 0
M  V30 3 C -0.178387 1.81623 -0.00823199 0
M  V30 4 C 1.08541 1.28447 0.0541941 0
M  V30 5 C 1.24105 -0.106926 0.060736 0
M  V30 6 C 0.125035 -0.91905 0.00450391 0
M  V30 7 C -1.15102 -0.398013 -0.0585442 0
M  V30 8 N -2.32253 -1.20299 -0.117529 0
M  V30 9 F 0.278246 -2.27431 0.010957 0
M  V30 10 N 2.53823 -0.674152 0.124796 0
M  V30 11 H -0.299452 2.88364 -0.0133435 0
M  V30 12 H 1.9906 1.87221 0.0997341 0
M  V30 13 H -2.30647 -2.14332 -0.553532 0
M  V30 14 H -3.2308 -0.870026 0.276173 0
M  V30 15 H 2.8669 -1.35084 -0.590749 0
M  V30 16 H 3.17654 -0.41141 0.900297 0
M  V30 END ATOM
M  V30 BEGIN BOND
M  V30 1 1 1 2
M  V30 2 2 2 3
M  V30 3 1 3 4
M  V30 4 2 4 5
M  V30 5 1 5 6
M  V30 6 2 6 7
M  V30 7 1 7 8
M  V30 8 1 6 9
M  V30 9 1 5 10
M  V30 10 1 7 2
M  V30 11 1 3 11
M  V30 12 1 4 12
M  V30 13 1 8 13
M  V30 14 1 8 14
M  V30 15 1 10 15
M  V30 16 1 10 16
M  V30 END BOND
M  V30 END CTAB
M  END
