
     RDKit          3D

  0  0  0  0  0  0  0  0  0  0999 V3000
M  V30 BEGIN CTAB
M  V30 COUNTS 27 27 0 0 0
M  V30 BEGIN ATOM
M  V30 1 N 4.53822 -0.748757 -0.459733 0
M  V30 2 C 3.14945 -0.469315 -0.267765 0
M  V30 3 C 2.33583 -1.40908 0.296603 0
M  V30 4 C 0.993279 -1.18303 0.500231 0
M  V30 5 N 0.231926 -2.24673 1.10385 0
M  V30 6 C 0.43463 0.00424189 0.13726 0
M  V30 7 O -0.920801 0.218806 0.348432 0
M  V30 8 C -1.48419 1.44476 -0.029369 0
M  V30 9 C -2.96415 1.47858 0.283343 0
M  V30 10 C -3.6439 0.349528 -0.489846 0
M  V30 11 O -3.11293 -0.888178 -0.113011 0
M  V30 12 C 1.23159 0.977064 -0.436968 0
M  V30 13 C 2.57641 0.735409 -0.634701 0
M  V30 14 H 5.06753 -0.28221 -1.21862 0
M  V30 15 H 5.01509 -1.43317 0.178517 0
M  V30 16 H 2.8013 -2.36113 0.5838 0
M  V30 17 H -0.02788 -3.03722 0.493958 0
M  V30 18 H -0.0455821 -2.22506 2.10513 0
M  V30 19 H -1.35533 1.68299 -1.09803 0
M  V30 20 H -1.02163 2.26704 0.591345 0
M  V30 21 H -3.37632 2.43151 -0.102302 0
M  V30 22 H -3.17377 1.40571 1.35705 0
M  V30 23 H -3.44524 0.457402 -1.57526 0
M  V30 24 H -4.72954 0.3512 -0.328089 0
M  V30 25 H -3.13464 -0.940958 0.875749 0
M  V30 26 H 0.821962 1.94292 -0.742132 0
M  V30 27 H 3.2387 1.47767 -1.08479 0
M  V30 END ATOM
M  V30 BEGIN BOND
M  V30 1 1 1 2
M  V30 2 2 2 3
M  V30 3 1 3 4
M  V30 4 1 4 5
M  V30 5 2 4 6
M  V30 6 1 6 7
M  V30 7 1 7 8
M  V30 8 1 8 9
M  V30 9 1 9 10
M  V30 10 1 10 11
M  V30 11 1 6 12
M  V30 12 2 12 13
M  V30 13 1 13 2
M  V30 14 1 1 14
M  V30 15 1 1 15
M  V30 16 1 3 16
M  V30 17 1 5 17
M  V30 18 1 5 18
M  V30 19 1 8 19
M  V30 20 1 8 20
M  V30 21 1 9 21
M  V30 22 1 9 22
M  V30 23 1 10 23
M  V30 24 1 10 24
M  V30 25 1 11 25
M  V30 26 1 12 26
M  V30 27 1 13 27
M  V30 END BOND
M  V30 END CTAB
M  END
