
     RDKit          3D

  0  0  0  0  0  0  0  0  0  0999 V3000
M  V30 BEGIN CTAB
M  V30 COUNTS 28 29 0 0 0
M  V30 BEGIN ATOM
M  V30 1 N -1.37465 2.27421 0.300675 0
M  V30 2 C -1.32889 1.16658 -0.60684 0
M  V30 3 C -0.630148 -0.0284257 -0.120041 0
M  V30 4 C -1.2219 -0.633758 1.14291 0
M  V30 5 C -0.150912 -1.69441 1.46175 0
M  V30 6 C 0.947685 -1.43528 0.421297 0
M  V30 7 N 0.708341 -0.0494619 0.170999 0
M  V30 8 S 1.88053 0.932591 -0.321416 0
M  V30 9 O 3.21905 0.462608 0.250269 0
M  V30 10 O 2.07946 0.87237 -1.83225 0
M  V30 11 N 1.74025 2.57255 0.117909 0
M  V30 12 C 0.451567 -2.06906 -0.863461 0
M  V30 13 C -0.746568 -1.15656 -1.1638 0
M  V30 14 H -1.41847 2.00052 1.30048 0
M  V30 15 H -2.18534 2.90894 0.121802 0
M  V30 16 H -0.976944 1.51026 -1.59882 0
M  V30 17 H -2.4074 0.873531 -0.794048 0
M  V30 18 H -1.24084 0.065116 1.98018 0
M  V30 19 H -2.19622 -1.12093 0.9396 0
M  V30 20 H -0.583773 -2.69259 1.27819 0
M  V30 21 H 0.22826 -1.59258 2.48225 0
M  V30 22 H 1.92493 -1.72453 0.733867 0
M  V30 23 H 2.3458 2.86631 0.906278 0
M  V30 24 H 1.99716 3.21809 -0.684236 0
M  V30 25 H 0.149425 -3.11144 -0.749791 0
M  V30 26 H 1.17253 -1.89007 -1.69195 0
M  V30 27 H -1.65113 -1.75304 -1.0054 0
M  V30 28 H -0.731816 -0.77154 -2.17639 0
M  V30 END ATOM
M  V30 BEGIN BOND
M  V30 1 1 1 2
M  V30 2 1 2 3
M  V30 3 1 3 4
M  V30 4 1 4 5
M  V30 5 1 5 6
M  V30 6 1 6 7
M  V30 7 1 7 8
M  V30 8 2 8 9
M  V30 9 2 8 10
M  V30 10 1 8 11
M  V30 11 1 6 12
M  V30 12 1 12 13
M  V30 13 1 13 3
M  V30 14 1 7 3
M  V30 15 1 1 14
M  V30 16 1 1 15
M  V30 17 1 2 16
M  V30 18 1 2 17
M  V30 19 1 4 18
M  V30 20 1 4 19
M  V30 21 1 5 20
M  V30 22 1 5 21
M  V30 23 1 6 22
M  V30 24 1 11 23
M  V30 25 1 11 24
M  V30 26 1 12 25
M  V30 27 1 12 26
M  V30 28 1 13 27
M  V30 29 1 13 28
M  V30 END BOND
M  V30 END CTAB
M  END
