
     RDKit          3D

  0  0  0  0  0  0  0  0  0  0999 V3000
M  V30 BEGIN CTAB
M  V30 COUNTS 24 24 0 0 0
M  V30 BEGIN ATOM
M  V30 1 N 2.87531 -0.71134 -1.1227 0
M  V30 2 C 2.73629 -0.0953877 0.214131 0
M  V30 3 C 1.73506 -0.903482 1.00784 0
M  V30 4 N 0.431005 -0.967445 0.464697 0
M  V30 5 C -0.578294 -0.00503415 0.351856 0
M  V30 6 C -1.63205 -0.253708 -0.548808 0
M  V30 7 N -1.63833 -1.45044 -1.34238 0
M  V30 8 C -2.67019 0.621669 -0.699259 0
M  V30 9 C -2.74403 1.79245 0.0191235 0
M  V30 10 C -1.7179 2.03191 0.89548 0
M  V30 11 C -0.643759 1.16154 1.0754 0
M  V30 12 Cl 0.587372 1.57883 2.28317 0
M  V30 13 H 1.89559 -1.01832 -1.38693 0
M  V30 14 H 3.13656 0.00649583 -1.83606 0
M  V30 15 H 3.71013 -0.190485 0.732324 0
M  V30 16 H 2.48644 0.935587 0.0152984 0
M  V30 17 H 1.73049 -0.680142 2.08635 0
M  V30 18 H 2.19738 -1.95828 0.998787 0
M  V30 19 H 0.163865 -1.94349 0.0724026 0
M  V30 20 H -1.63914 -1.42224 -2.37732 0
M  V30 21 H -1.64233 -2.39631 -0.900662 0
M  V30 22 H -3.49112 0.424846 -1.40297 0
M  V30 23 H -3.56081 2.4962 -0.0901701 0
M  V30 24 H -1.72754 2.94656 1.49041 0
M  V30 END ATOM
M  V30 BEGIN BOND
M  V30 1 1 1 2
M  V30 2 1 2 3
M  V30 3 1 3 4
M  V30 4 1 4 5
M  V30 5 2 5 6
M  V30 6 1 6 7
M  V30 7 1 6 8
M  V30 8 2 8 9
M  V30 9 1 9 10
M  V30 10 2 10 11
M  V30 11 1 11 12
M  V30 12 1 11 5
M  V30 13 1 1 13
M  V30 14 1 1 14
M  V30 15 1 2 15
M  V30 16 1 2 16
M  V30 17 1 3 17
M  V30 18 1 3 18
M  V30 19 1 4 19
M  V30 20 1 7 20
M  V30 21 1 7 21
M  V30 22 1 8 22
M  V30 23 1 9 23
M  V30 24 1 10 24
M  V30 END BOND
M  V30 END CTAB
M  END
