
     RDKit          3D

  0  0  0  0  0  0  0  0  0  0999 V3000
M  V30 BEGIN CTAB
M  V30 COUNTS 28 29 0 0 0
M  V30 BEGIN ATOM
M  V30 1 N -5.05352 0.0262111 1.51816 0
M  V30 2 C -3.99935 -0.226079 0.602904 0
M  V30 3 C -3.03445 0.739111 0.394528 0
M  V30 4 C -1.99352 0.515232 -0.495948 0
M  V30 5 C -1.87683 -0.66412 -1.20311 0
M  V30 6 S -0.53173 -0.94948 -2.35177 0
M  V30 7 S 0.716694 0.755154 -2.38171 0
M  V30 8 C 1.97557 0.549508 -1.13974 0
M  V30 9 C 2.90836 1.54413 -0.977731 0
M  V30 10 C 3.89998 1.39838 -0.0101792 0
M  V30 11 C 3.95183 0.269832 0.781429 0
M  V30 12 N 4.95256 0.106734 1.76845 0
M  V30 13 C 3.01919 -0.727773 0.621536 0
M  V30 14 C 2.04416 -0.568783 -0.340204 0
M  V30 15 C -2.85163 -1.61547 -0.980108 0
M  V30 16 C -3.9008 -1.41333 -0.0949517 0
M  V30 17 H -4.9567 0.772511 2.23231 0
M  V30 18 H -5.95058 -0.506563 1.52164 0
M  V30 19 H -3.12475 1.66353 0.947967 0
M  V30 20 H -1.24096 1.2736 -0.655526 0
M  V30 21 H 2.90536 2.44151 -1.5736 0
M  V30 22 H 4.61069 2.18202 0.0961905 0
M  V30 23 H 5.93506 -0.0377729 1.44964 0
M  V30 24 H 4.67287 0.136851 2.76758 0
M  V30 25 H 3.05446 -1.60614 1.23318 0
M  V30 26 H 1.30246 -1.32834 -0.489718 0
M  V30 27 H -2.78131 -2.55803 -1.52826 0
M  V30 28 H -4.6531 -2.17243 0.0640493 0
M  V30 END ATOM
M  V30 BEGIN BOND
M  V30 1 1 1 2
M  V30 2 2 2 3
M  V30 3 1 3 4
M  V30 4 2 4 5
M  V30 5 1 5 6
M  V30 6 1 6 7
M  V30 7 1 7 8
M  V30 8 2 8 9
M  V30 9 1 9 10
M  V30 10 2 10 11
M  V30 11 1 11 12
M  V30 12 1 11 13
M  V30 13 2 13 14
M  V30 14 1 5 15
M  V30 15 2 15 16
M  V30 16 1 16 2
M  V30 17 1 14 8
M  V30 18 1 1 17
M  V30 19 1 1 18
M  V30 20 1 3 19
M  V30 21 1 4 20
M  V30 22 1 9 21
M  V30 23 1 10 22
M  V30 24 1 12 23
M  V30 25 1 12 24
M  V30 26 1 13 25
M  V30 27 1 14 26
M  V30 28 1 15 27
M  V30 29 1 16 28
M  V30 END BOND
M  V30 END CTAB
M  END
