
     RDKit          3D

  0  0  0  0  0  0  0  0  0  0999 V3000
M  V30 BEGIN CTAB
M  V30 COUNTS 30 30 0 0 0
M  V30 BEGIN ATOM
M  V30 1 C -3.15339 1.62553 -0.266114 0
M  V30 2 O -2.92193 0.433803 -0.851006 0
M  V30 3 C -2.07519 -0.463554 -0.32104 0
M  V30 4 C -0.652537 -0.0601694 -0.194977 0
M  V30 5 N -0.124602 1.1054 -0.52492 0
M  V30 6 C 1.18645 1.37401 -0.395243 0
M  V30 7 C 2.05385 0.430834 0.0945978 0
M  V30 8 C 1.50571 -0.786114 0.440841 0
M  V30 9 N 0.184967 -1.01542 0.295604 0
M  V30 10 N 2.35097 -1.81503 0.960523 0
M  V30 11 C 3.49358 0.619061 0.259014 0
M  V30 12 N 4.00161 1.91278 -0.115448 0
M  V30 13 C -2.51438 -1.04441 1.00528 0
M  V30 14 C -2.0614 -1.67632 -1.27867 0
M  V30 15 H -2.32104 2.31454 -0.107828 0
M  V30 16 H -3.73403 1.58514 0.68074 0
M  V30 17 H -3.8446 2.19081 -0.972831 0
M  V30 18 H 1.6137 2.33852 -0.669324 0
M  V30 19 H 2.88188 -2.47257 0.37176 0
M  V30 20 H 2.39908 -1.86235 2.00706 0
M  V30 21 H 4.02979 -0.1499 -0.360112 0
M  V30 22 H 3.76394 0.446149 1.32253 0
M  V30 23 H 4.34249 1.98471 -1.07542 0
M  V30 24 H 3.50486 2.72112 0.273231 0
M  V30 25 H -3.40528 -1.71829 0.838102 0
M  V30 26 H -1.6922 -1.72186 1.33252 0
M  V30 27 H -2.67805 -0.323422 1.79527 0
M  V30 28 H -2.29578 -1.36211 -2.29698 0
M  V30 29 H -2.77347 -2.45442 -0.960917 0
M  V30 30 H -1.06499 -2.15645 -1.28624 0
M  V30 END ATOM
M  V30 BEGIN BOND
M  V30 1 1 1 2
M  V30 2 1 2 3
M  V30 3 1 3 4
M  V30 4 2 4 5
M  V30 5 1 5 6
M  V30 6 2 6 7
M  V30 7 1 7 8
M  V30 8 2 8 9
M  V30 9 1 8 10
M  V30 10 1 7 11
M  V30 11 1 11 12
M  V30 12 1 3 13
M  V30 13 1 3 14
M  V30 14 1 9 4
M  V30 15 1 1 15
M  V30 16 1 1 16
M  V30 17 1 1 17
M  V30 18 1 6 18
M  V30 19 1 10 19
M  V30 20 1 10 20
M  V30 21 1 11 21
M  V30 22 1 11 22
M  V30 23 1 12 23
M  V30 24 1 12 24
M  V30 25 1 13 25
M  V30 26 1 13 26
M  V30 27 1 13 27
M  V30 28 1 14 28
M  V30 29 1 14 29
M  V30 30 1 14 30
M  V30 END BOND
M  V30 END CTAB
M  END
