
     RDKit          3D

  0  0  0  0  0  0  0  0  0  0999 V3000
M  V30 BEGIN CTAB
M  V30 COUNTS 34 35 0 0 0
M  V30 BEGIN ATOM
M  V30 1 N -0.411466 -3.79419 0.382808 0
M  V30 2 N -1.22565 -2.96619 -0.223982 0
M  V30 3 C -2.07609 -2.1016 -0.857819 0
M  V30 4 O -2.99344 -2.46223 -1.6403 0
M  V30 5 C -1.99625 -0.627441 -0.684045 0
M  V30 6 C -2.80923 0.161041 -1.46486 0
M  V30 7 C -2.76322 1.53343 -1.44505 0
M  V30 8 N -3.58943 2.3408 -2.26045 0
M  V30 9 C -1.85178 2.11321 -0.594698 0
M  V30 10 C -1.02004 1.31814 0.205679 0
M  V30 11 C -1.08253 -0.0542333 0.170896 0
M  V30 12 O -0.289098 -0.812216 0.94302 0
M  V30 13 C 0.699297 -0.528885 1.85998 0
M  V30 14 C 1.89724 0.162344 1.39794 0
M  V30 15 C 2.38869 1.2901 2.00035 0
M  V30 16 C 3.54801 1.90158 1.5132 0
M  V30 17 C 4.22882 1.39709 0.422081 0
M  V30 18 C 3.73452 0.266775 -0.178913 0
M  V30 19 C 2.57569 -0.340859 0.310177 0
M  V30 20 H -0.644935 -4.18747 1.28914 0
M  V30 21 H 0.299263 -4.32366 -0.171584 0
M  V30 22 H -1.83123 -4.02788 -0.804433 0
M  V30 23 H -3.53665 -0.283533 -2.13357 0
M  V30 24 H -4.30263 1.90876 -2.8722 0
M  V30 25 H -3.47966 3.36353 -2.24288 0
M  V30 26 H -1.74965 3.19609 -0.517277 0
M  V30 27 H -0.343021 1.86894 0.844254 0
M  V30 28 H 0.931254 -1.47601 2.43292 0
M  V30 29 H 0.210725 0.11736 2.66008 0
M  V30 30 H 1.88335 1.7409 2.87353 0
M  V30 31 H 3.92868 2.79072 2.00127 0
M  V30 32 H 5.1299 1.88569 0.0605171 0
M  V30 33 H 4.2804 -0.135175 -1.04658 0
M  V30 34 H 2.26014 -1.23493 -0.235913 0
M  V30 END ATOM
M  V30 BEGIN BOND
M  V30 1 1 1 2
M  V30 2 1 2 3
M  V30 3 2 3 4
M  V30 4 1 3 5
M  V30 5 2 5 6
M  V30 6 1 6 7
M  V30 7 1 7 8
M  V30 8 2 7 9
M  V30 9 1 9 10
M  V30 10 2 10 11
M  V30 11 1 11 12
M  V30 12 1 12 13
M  V30 13 1 13 14
M  V30 14 2 14 15
M  V30 15 1 15 16
M  V30 16 2 16 17
M  V30 17 1 17 18
M  V30 18 2 18 19
M  V30 19 1 11 5
M  V30 20 1 19 14
M  V30 21 1 1 20
M  V30 22 1 1 21
M  V30 23 1 2 22
M  V30 24 1 6 23
M  V30 25 1 8 24
M  V30 26 1 8 25
M  V30 27 1 9 26
M  V30 28 1 10 27
M  V30 29 1 13 28
M  V30 30 1 13 29
M  V30 31 1 15 30
M  V30 32 1 16 31
M  V30 33 1 17 32
M  V30 34 1 18 33
M  V30 35 1 19 34
M  V30 END BOND
M  V30 END CTAB
M  END
