
     RDKit          3D

  0  0  0  0  0  0  0  0  0  0999 V3000
M  V30 BEGIN CTAB
M  V30 COUNTS 52 54 0 0 0
M  V30 BEGIN ATOM
M  V30 1 N -5.83324 3.20815 0.140547 0
M  V30 2 C -5.08987 1.98025 0.0287899 0
M  V30 3 C -4.14182 1.76534 1.18099 0
M  V30 4 C -3.0734 1.37801 0.184656 0
M  V30 5 C -3.85375 2.12908 -0.863842 0
M  V30 6 C -2.93047 -0.0816479 -0.049319 0
M  V30 7 C -1.6752 -0.664056 0.0602273 0
M  V30 8 C -1.49256 -2.01393 -0.150003 0
M  V30 9 N -2.62789 -2.71124 -0.468083 0
M  V30 10 C -3.84243 -2.17985 -0.579911 0
M  V30 11 N -3.97244 -0.860858 -0.366013 0
M  V30 12 N -4.94181 -2.99658 -0.910823 0
M  V30 13 N -0.25638 -2.6923 -0.0542259 0
M  V30 14 C 0.953369 -2.04011 0.348391 0
M  V30 15 C 1.88378 -1.92614 -0.827845 0
M  V30 16 O 3.0533 -1.32014 -0.520064 0
M  V30 17 C 3.46475 -0.114056 -0.0860762 0
M  V30 18 C 2.65656 0.972926 0.171899 0
M  V30 19 C 3.20649 2.17846 0.61859 0
M  V30 20 C 4.55874 2.33097 0.817041 0
M  V30 21 C 5.34979 1.24993 0.558626 0
M  V30 22 C 4.84882 0.0545479 0.120951 0
M  V30 23 C 5.7536 -1.08446 -0.142984 0
M  V30 24 C 5.14398 3.60455 1.28937 0
M  V30 25 C -0.205419 -4.09405 -0.394267 0
M  V30 26 H -5.49637 3.73135 0.953422 0
M  V30 27 H -5.79034 3.79133 -0.702228 0
M  V30 28 H -5.67973 1.08919 -0.264093 0
M  V30 29 H -4.4302 1.02086 1.92045 0
M  V30 30 H -3.87572 2.72926 1.69689 0
M  V30 31 H -2.10719 1.87919 0.417251 0
M  V30 32 H -3.94325 1.64122 -1.83925 0
M  V30 33 H -3.54286 3.20015 -0.98095 0
M  V30 34 H -0.803975 -0.0456447 0.314918 0
M  V30 35 H -5.0663 -3.35329 -1.86842 0
M  V30 36 H -5.62773 -3.23758 -0.180907 0
M  V30 37 H 1.48335 -2.71418 1.11683 0
M  V30 38 H 0.769497 -1.07395 0.777877 0
M  V30 39 H 1.34597 -1.32199 -1.61355 0
M  V30 40 H 2.05737 -2.95195 -1.26227 0
M  V30 41 H 1.57255 0.921966 0.0196144 0
M  V30 42 H 2.55056 3.01922 0.814961 0
M  V30 43 H 6.43189 1.3328 0.704362 0
M  V30 44 H 6.76772 -0.847931 0.215264 0
M  V30 45 H 5.39883 -1.949 0.468959 0
M  V30 46 H 5.8092 -1.34416 -1.21538 0
M  V30 47 H 4.47109 4.08806 2.00472 0
M  V30 48 H 5.27307 4.27509 0.406995 0
M  V30 49 H 6.16368 3.42491 1.68683 0
M  V30 50 H 0.701529 -4.5905 0.00379249 0
M  V30 51 H -1.13141 -4.62459 -0.0254 0
M  V30 52 H -0.237711 -4.16264 -1.5069 0
M  V30 END ATOM
M  V30 BEGIN BOND
M  V30 1 1 1 2
M  V30 2 1 2 3
M  V30 3 1 3 4
M  V30 4 1 4 5
M  V30 5 1 4 6
M  V30 6 2 6 7
M  V30 7 1 7 8
M  V30 8 2 8 9
M  V30 9 1 9 10
M  V30 10 2 10 11
M  V30 11 1 10 12
M  V30 12 1 8 13
M  V30 13 1 13 14
M  V30 14 1 14 15
M  V30 15 1 15 16
M  V30 16 1 16 17
M  V30 17 2 17 18
M  V30 18 1 18 19
M  V30 19 2 19 20
M  V30 20 1 20 21
M  V30 21 2 21 22
M  V30 22 1 22 23
M  V30 23 1 20 24
M  V30 24 1 13 25
M  V30 25 1 5 2
M  V30 26 1 11 6
M  V30 27 1 22 17
M  V30 28 1 1 26
M  V30 29 1 1 27
M  V30 30 1 2 28
M  V30 31 1 3 29
M  V30 32 1 3 30
M  V30 33 1 4 31
M  V30 34 1 5 32
M  V30 35 1 5 33
M  V30 36 1 7 34
M  V30 37 1 12 35
M  V30 38 1 12 36
M  V30 39 1 14 37
M  V30 40 1 14 38
M  V30 41 1 15 39
M  V30 42 1 15 40
M  V30 43 1 18 41
M  V30 44 1 19 42
M  V30 45 1 21 43
M  V30 46 1 23 44
M  V30 47 1 23 45
M  V30 48 1 23 46
M  V30 49 1 24 47
M  V30 50 1 24 48
M  V30 51 1 24 49
M  V30 52 1 25 50
M  V30 53 1 25 51
M  V30 54 1 25 52
M  V30 END BOND
M  V30 END CTAB
M  END
