
     RDKit          3D

  0  0  0  0  0  0  0  0  0  0999 V3000
M  V30 BEGIN CTAB
M  V30 COUNTS 50 52 0 0 0
M  V30 BEGIN ATOM
M  V30 1 C 4.94041 1.6472 -0.145135 0
M  V30 2 C 5.31756 0.316916 -0.72381 0
M  V30 3 C 4.14722 -0.484554 -1.18646 0
M  V30 4 N 3.17135 -0.818157 -0.20636 0
M  V30 5 C 2.07078 -0.111673 -0.00208396 0
M  V30 6 N 1.7659 1.00491 -0.812475 0
M  V30 7 C 1.15031 -0.440559 0.983624 0
M  V30 8 C -0.0830237 0.371425 1.1964 0
M  V30 9 C -0.0827957 1.43701 2.06824 0
M  V30 10 S -1.69343 1.99111 1.93195 0
M  V30 11 C -2.2596 0.851755 0.792586 0
M  V30 12 N -1.19254 0.1122 0.578168 0
M  V30 13 C -3.61371 0.736642 0.202718 0
M  V30 14 C -3.84063 -0.256971 -0.693254 0
M  V30 15 C -5.13085 -0.336424 -1.23057 0
M  V30 16 C -6.12035 0.551884 -0.866046 0
M  V30 17 C -5.83846 1.55167 0.0551017 0
M  V30 18 C -4.56527 1.62668 0.582548 0
M  V30 19 S -7.73653 0.465299 -1.52856 0
M  V30 20 O -8.312 1.84237 -1.66247 0
M  V30 21 O -7.67982 -0.165617 -2.89616 0
M  V30 22 N -8.75316 -0.553516 -0.556614 0
M  V30 23 C 1.43073 -1.54761 1.751 0
M  V30 24 O 0.634301 -1.87918 2.64542 0
M  V30 25 N 2.54677 -2.26966 1.54709 0
M  V30 26 C 3.39466 -1.89993 0.580916 0
M  V30 27 O 4.44061 -2.61019 0.419486 0
M  V30 28 C 2.83778 -3.43268 2.35509 0
M  V30 29 C 6.19018 0.611562 -1.9399 0
M  V30 30 H 5.90883 2.13589 0.197476 0
M  V30 31 H 4.25946 1.57535 0.728029 0
M  V30 32 H 4.47609 2.25854 -0.940591 0
M  V30 33 H 5.9195 -0.209287 0.051005 0
M  V30 34 H 4.49115 -1.45596 -1.66415 0
M  V30 35 H 3.65714 0.052467 -2.05751 0
M  V30 36 H 1.84668 1.01641 -1.85126 0
M  V30 37 H 1.43767 1.87286 -0.322177 0
M  V30 38 H 0.771771 1.79292 2.67224 0
M  V30 39 H -3.09875 -0.983926 -1.01641 0
M  V30 40 H -5.38209 -1.10233 -1.94915 0
M  V30 41 H -6.61479 2.25016 0.342368 0
M  V30 42 H -4.32827 2.39479 1.29771 0
M  V30 43 H -9.05426 -0.0377112 0.307075 0
M  V30 44 H -9.59893 -0.769936 -1.15373 0
M  V30 45 H 2.83993 -4.30787 1.6725 0
M  V30 46 H 3.9024 -3.31672 2.69182 0
M  V30 47 H 2.16469 -3.5393 3.20488 0
M  V30 48 H 6.89884 -0.214599 -2.14586 0
M  V30 49 H 5.57256 0.750611 -2.84998 0
M  V30 50 H 6.79397 1.52572 -1.80855 0
M  V30 END ATOM
M  V30 BEGIN BOND
M  V30 1 1 1 2
M  V30 2 1 2 3
M  V30 3 1 3 4
M  V30 4 1 4 5
M  V30 5 1 5 6
M  V30 6 2 5 7
M  V30 7 1 7 8
M  V30 8 2 8 9
M  V30 9 1 9 10
M  V30 10 1 10 11
M  V30 11 2 11 12
M  V30 12 1 11 13
M  V30 13 2 13 14
M  V30 14 1 14 15
M  V30 15 2 15 16
M  V30 16 1 16 17
M  V30 17 2 17 18
M  V30 18 1 16 19
M  V30 19 2 19 20
M  V30 20 2 19 21
M  V30 21 1 19 22
M  V30 22 1 7 23
M  V30 23 2 23 24
M  V30 24 1 23 25
M  V30 25 1 25 26
M  V30 26 2 26 27
M  V30 27 1 25 28
M  V30 28 1 2 29
M  V30 29 1 26 4
M  V30 30 1 12 8
M  V30 31 1 18 13
M  V30 32 1 1 30
M  V30 33 1 1 31
M  V30 34 1 1 32
M  V30 35 1 2 33
M  V30 36 1 3 34
M  V30 37 1 3 35
M  V30 38 1 6 36
M  V30 39 1 6 37
M  V30 40 1 9 38
M  V30 41 1 14 39
M  V30 42 1 15 40
M  V30 43 1 17 41
M  V30 44 1 18 42
M  V30 45 1 22 43
M  V30 46 1 22 44
M  V30 47 1 28 45
M  V30 48 1 28 46
M  V30 49 1 28 47
M  V30 50 1 29 48
M  V30 51 1 29 49
M  V30 52 1 29 50
M  V30 END BOND
M  V30 END CTAB
M  END
