
     RDKit          3D

  0  0  0  0  0  0  0  0  0  0999 V3000
M  V30 BEGIN CTAB
M  V30 COUNTS 41 43 0 0 0
M  V30 BEGIN ATOM
M  V30 1 N -5.33924 0.996275 -0.248339 0
M  V30 2 C -3.92572 1.041 -0.0164911 0
M  V30 3 C -3.21041 -0.101817 -0.70429 0
M  V30 4 N -1.79987 0.0488301 -0.400327 0
M  V30 5 C -1.10969 1.1735 -0.968742 0
M  V30 6 C 0.225809 0.805664 -1.4617 0
M  V30 7 C 0.93014 -0.354935 -0.863865 0 CFG=2
M  V30 8 C 0.240881 -1.04525 0.218219 0
M  V30 9 C -1.10271 -0.847536 0.429025 0
M  V30 10 C -1.79194 -1.50151 1.43476 0
M  V30 11 C -1.07881 -2.37004 2.23196 0
M  V30 12 C 0.26761 -2.58309 2.03972 0
M  V30 13 C 0.907538 -1.91096 1.02786 0
M  V30 14 C 2.32288 0.0165019 -0.556987 0
M  V30 15 C 3.33281 -0.61221 -1.25164 0
M  V30 16 C 4.68069 -0.34385 -1.04964 0
M  V30 17 C 4.94814 0.610847 -0.0904747 0
M  V30 18 C 3.9599 1.25085 0.614636 0
M  V30 19 C 2.63959 0.972865 0.401359 0
M  V30 20 N 1.5868 1.60633 1.10652 0
M  V30 21 H -5.7364 0.0809309 -0.145649 0
M  V30 22 H -5.57206 1.44575 -1.11641 0
M  V30 23 H -3.55424 1.97644 -0.522905 0
M  V30 24 H -3.66023 1.12345 1.05558 0
M  V30 25 H -3.32667 0.051372 -1.79605 0
M  V30 26 H -3.6155 -1.0793 -0.452907 0
M  V30 27 H -1.70071 1.5971 -1.84991 0
M  V30 28 H -1.11268 1.96529 -0.179738 0
M  V30 29 H 0.15834 0.689289 -2.5931 0
M  V30 30 H 0.877213 1.74039 -1.38187 0
M  V30 31 H 0.991787 -1.13312 -1.69961 0
M  V30 32 H -2.84568 -1.32981 1.57098 0
M  V30 33 H -1.54197 -2.92452 3.04412 0
M  V30 34 H 0.838124 -3.27444 2.67431 0
M  V30 35 H 1.95793 -2.07828 0.878982 0
M  V30 36 H 3.14358 -1.37735 -2.02183 0
M  V30 37 H 5.46958 -0.840281 -1.598 0
M  V30 38 H 5.9909 0.8545 0.102286 0
M  V30 39 H 4.1734 2.00641 1.37371 0
M  V30 40 H 1.14291 1.1 1.89361 0
M  V30 41 H 1.23796 2.55471 0.872826 0
M  V30 END ATOM
M  V30 BEGIN BOND
M  V30 1 1 1 2
M  V30 2 1 2 3
M  V30 3 1 3 4
M  V30 4 1 4 5
M  V30 5 1 5 6
M  V30 6 1 6 7
M  V30 7 1 7 8
M  V30 8 2 8 9
M  V30 9 1 9 10
M  V30 10 2 10 11
M  V30 11 1 11 12
M  V30 12 2 12 13
M  V30 13 1 7 14
M  V30 14 2 14 15
M  V30 15 1 15 16
M  V30 16 2 16 17
M  V30 17 1 17 18
M  V30 18 2 18 19
M  V30 19 1 19 20
M  V30 20 1 9 4
M  V30 21 1 19 14
M  V30 22 1 13 8
M  V30 23 1 1 21
M  V30 24 1 1 22
M  V30 25 1 2 23
M  V30 26 1 2 24
M  V30 27 1 3 25
M  V30 28 1 3 26
M  V30 29 1 5 27
M  V30 30 1 5 28
M  V30 31 1 6 29
M  V30 32 1 6 30
M  V30 33 1 7 31 CFG=3
M  V30 34 1 10 32
M  V30 35 1 11 33
M  V30 36 1 12 34
M  V30 37 1 13 35
M  V30 38 1 15 36
M  V30 39 1 16 37
M  V30 40 1 17 38
M  V30 41 1 18 39
M  V30 42 1 20 40
M  V30 43 1 20 41
M  V30 END BOND
M  V30 END CTAB
M  END
