
     RDKit          3D

  0  0  0  0  0  0  0  0  0  0999 V3000
M  V30 BEGIN CTAB
M  V30 COUNTS 39 40 0 0 0
M  V30 BEGIN ATOM
M  V30 1 C 3.852 -3.05039 1.33493 0
M  V30 2 O 2.47927 -2.72718 1.39712 0
M  V30 3 C 2.00455 -1.5594 0.863423 0
M  V30 4 C 0.666542 -1.2241 0.913402 0
M  V30 5 C 0.182895 -0.0490009 0.377361 0
M  V30 6 C 1.09261 0.790397 -0.217811 0
M  V30 7 C 2.43428 0.508526 -0.29649 0
M  V30 8 O 3.35441 1.35985 -0.899646 0
M  V30 9 C 2.98038 2.58613 -1.48075 0
M  V30 10 C 2.8696 -0.680488 0.255035 0
M  V30 11 N -1.22176 0.282236 0.44074 0
M  V30 12 C -1.75346 1.00393 1.52709 0
M  V30 13 N -0.801476 1.37629 2.5476 0
M  V30 14 N -2.99732 1.33124 1.64367 0
M  V30 15 C -3.8385 0.908319 0.574642 0
M  V30 16 N -5.24254 1.21117 0.587571 0
M  V30 17 N -3.41733 0.253686 -0.43368 0
M  V30 18 C -2.07047 -0.141085 -0.631781 0
M  V30 19 C -2.05891 -1.67013 -0.764843 0
M  V30 20 C -1.52388 0.369784 -1.96107 0
M  V30 21 H 4.30539 -2.89188 0.353559 0
M  V30 22 H 4.43159 -2.55861 2.1437 0
M  V30 23 H 3.91684 -4.15295 1.56687 0
M  V30 24 H -0.0453819 -1.88755 1.38262 0
M  V30 25 H 0.737775 1.71299 -0.643097 0
M  V30 26 H 2.60097 2.45272 -2.49592 0
M  V30 27 H 2.18996 3.11948 -0.893315 0
M  V30 28 H 3.8489 3.30024 -1.52834 0
M  V30 29 H 3.93302 -0.893109 0.186993 0
M  V30 30 H -0.500983 0.64944 3.22649 0
M  V30 31 H -0.48153 2.35893 2.52825 0
M  V30 32 H -5.92799 0.57265 1.02125 0
M  V30 33 H -5.57485 2.08716 0.153506 0
M  V30 34 H -2.82686 -1.91273 -1.52792 0
M  V30 35 H -2.32788 -2.16063 0.168982 0
M  V30 36 H -1.05368 -2.02032 -1.08226 0
M  V30 37 H -1.27713 1.44171 -1.92436 0
M  V30 38 H -0.625622 -0.268958 -2.18005 0
M  V30 39 H -2.31345 0.171651 -2.72143 0
M  V30 END ATOM
M  V30 BEGIN BOND
M  V30 1 1 1 2
M  V30 2 1 2 3
M  V30 3 2 3 4
M  V30 4 1 4 5
M  V30 5 2 5 6
M  V30 6 1 6 7
M  V30 7 1 7 8
M  V30 8 1 8 9
M  V30 9 2 7 10
M  V30 10 1 5 11
M  V30 11 1 11 12
M  V30 12 1 12 13
M  V30 13 2 12 14
M  V30 14 1 14 15
M  V30 15 1 15 16
M  V30 16 2 15 17
M  V30 17 1 17 18
M  V30 18 1 18 19
M  V30 19 1 18 20
M  V30 20 1 10 3
M  V30 21 1 18 11
M  V30 22 1 1 21
M  V30 23 1 1 22
M  V30 24 1 1 23
M  V30 25 1 4 24
M  V30 26 1 6 25
M  V30 27 1 9 26
M  V30 28 1 9 27
M  V30 29 1 9 28
M  V30 30 1 10 29
M  V30 31 1 13 30
M  V30 32 1 13 31
M  V30 33 1 16 32
M  V30 34 1 16 33
M  V30 35 1 19 34
M  V30 36 1 19 35
M  V30 37 1 19 36
M  V30 38 1 20 37
M  V30 39 1 20 38
M  V30 40 1 20 39
M  V30 END BOND
M  V30 END CTAB
M  END
