
     RDKit          3D

  0  0  0  0  0  0  0  0  0  0999 V3000
M  V30 BEGIN CTAB
M  V30 COUNTS 78 84 0 0 0
M  V30 BEGIN ATOM
M  V30 1 F -8.70698 -6.94334 -0.810257 0
M  V30 2 C -7.82897 -5.92566 -0.870076 0
M  V30 3 C -6.9046 -5.90599 -1.89946 0
M  V30 4 C -6.00483 -4.88105 -1.97778 0
M  V30 5 C -5.95875 -3.818 -1.05374 0
M  V30 6 C -6.88557 -3.87869 -0.0579301 0
M  V30 7 C -7.82822 -4.91182 0.0608085 0
M  V30 8 N -4.95984 -2.84179 -1.24169 0
M  V30 9 C -4.99191 -1.53775 -0.729259 0
M  V30 10 N -5.99352 -1.04846 -0.00198078 0
M  V30 11 C -6.07177 0.186475 0.509746 0
M  V30 12 N -7.18514 0.624169 1.27772 0
M  V30 13 N -5.0166 0.99593 0.247234 0
M  V30 14 C -3.96698 0.575916 -0.479646 0
M  V30 15 N -3.95183 -0.672762 -0.962544 0
M  V30 16 C -2.80851 1.48028 -0.761978 0
M  V30 17 N -1.79523 1.35127 0.237635 0
M  V30 18 C -0.663514 0.455652 0.253819 0
M  V30 19 O -0.331447 -0.379299 -0.595847 0
M  V30 20 N 0.0628521 0.694908 1.48147 0
M  V30 21 C -0.195551 2.09312 1.74002 0
M  V30 22 C -1.69359 2.09081 1.46233 0
M  V30 23 O -2.57433 2.61181 2.15064 0
M  V30 24 C 0.0883787 2.53512 3.13303 0
M  V30 25 C 0.34832 3.03617 0.737044 0
M  V30 26 C -0.351403 4.24648 0.639999 0
M  V30 27 C 0.0438274 5.20703 -0.25252 0
M  V30 28 C 1.1173 5.02709 -1.06987 0
M  V30 29 C 1.79211 3.83279 -0.96096 0
M  V30 30 C 1.41733 2.84277 -0.069116 0
M  V30 31 O 2.89368 3.62582 -1.78686 0
M  V30 32 C 3.28861 4.57679 -2.73912 0
M  V30 33 C 2.92322 5.98713 -2.3227 0
M  V30 34 O 1.5476 5.98717 -1.99195 0
M  V30 35 C 0.811872 -0.20691 2.28088 0
M  V30 36 C 2.2407 -0.36118 1.96729 0
M  V30 37 N 3.19434 0.364574 2.58055 0
M  V30 38 C 4.51143 0.188336 2.25502 0
M  V30 39 N 5.54981 0.933613 2.87782 0
M  V30 40 N 4.82432 -0.716384 1.31929 0
M  V30 41 C 3.91865 -1.45521 0.687476 0
M  V30 42 N 2.6208 -1.24381 1.04585 0
M  V30 43 N 4.22236 -2.4203 -0.308818 0
M  V30 44 C 5.50923 -2.72136 -0.777438 0
M  V30 45 C 6.6241 -1.93645 -0.725809 0
M  V30 46 C 7.86629 -2.37509 -1.20789 0
M  V30 47 C 8.02117 -3.62058 -1.75822 0
M  V30 48 C 6.90932 -4.42431 -1.81925 0
M  V30 49 C 5.70057 -3.99457 -1.34856 0
M  V30 50 F 9.22103 -4.04393 -2.22368 0
M  V30 51 H -6.93072 -6.72448 -2.62165 0
M  V30 52 H -5.27122 -4.857 -2.78788 0
M  V30 53 H -6.91566 -3.12346 0.702129 0
M  V30 54 H -8.54655 -4.93233 0.856299 0
M  V30 55 H -4.08536 -3.09545 -1.82152 0
M  V30 56 H -8.11688 0.245752 1.04573 0
M  V30 57 H -7.11879 1.30509 2.0624 0
M  V30 58 H -2.39847 1.26817 -1.77566 0
M  V30 59 H -3.21851 2.49604 -0.798413 0
M  V30 60 H -0.466555 3.4986 3.29223 0
M  V30 61 H -0.269219 1.84972 3.90099 0
M  V30 62 H 1.1593 2.79629 3.2449 0
M  V30 63 H -1.20701 4.45322 1.25534 0
M  V30 64 H -0.502836 6.15815 -0.331332 0
M  V30 65 H 1.95963 1.92911 -0.014417 0
M  V30 66 H 2.82968 4.40359 -3.73811 0
M  V30 67 H 4.38676 4.49202 -2.8706 0
M  V30 68 H 3.14698 6.65201 -3.18077 0
M  V30 69 H 3.47612 6.29382 -1.40575 0
M  V30 70 H 0.348025 -1.23228 2.33942 0
M  V30 71 H 0.720433 0.152686 3.35378 0
M  V30 72 H 5.93129 0.577717 3.78365 0
M  V30 73 H 5.95891 1.80527 2.50188 0
M  V30 74 H 3.41063 -2.96937 -0.755491 0
M  V30 75 H 6.55334 -0.945189 -0.320036 0
M  V30 76 H 8.72101 -1.70603 -1.13973 0
M  V30 77 H 7.01178 -5.42511 -2.25644 0
M  V30 78 H 4.83377 -4.65305 -1.40775 0
M  V30 END ATOM
M  V30 BEGIN BOND
M  V30 1 1 1 2
M  V30 2 2 2 3
M  V30 3 1 3 4
M  V30 4 2 4 5
M  V30 5 1 5 6
M  V30 6 2 6 7
M  V30 7 1 5 8
M  V30 8 1 8 9
M  V30 9 2 9 10
M  V30 10 1 10 11
M  V30 11 1 11 12
M  V30 12 2 11 13
M  V30 13 1 13 14
M  V30 14 2 14 15
M  V30 15 1 14 16
M  V30 16 1 16 17
M  V30 17 1 17 18
M  V30 18 2 18 19
M  V30 19 1 18 20
M  V30 20 1 20 21
M  V30 21 1 21 22
M  V30 22 2 22 23
M  V30 23 1 21 24
M  V30 24 1 21 25
M  V30 25 2 25 26
M  V30 26 1 26 27
M  V30 27 2 27 28
M  V30 28 1 28 29
M  V30 29 2 29 30
M  V30 30 1 29 31
M  V30 31 1 31 32
M  V30 32 1 32 33
M  V30 33 1 33 34
M  V30 34 1 20 35
M  V30 35 1 35 36
M  V30 36 2 36 37
M  V30 37 1 37 38
M  V30 38 1 38 39
M  V30 39 2 38 40
M  V30 40 1 40 41
M  V30 41 2 41 42
M  V30 42 1 41 43
M  V30 43 1 43 44
M  V30 44 2 44 45
M  V30 45 1 45 46
M  V30 46 2 46 47
M  V30 47 1 47 48
M  V30 48 2 48 49
M  V30 49 1 47 50
M  V30 50 1 7 2
M  V30 51 1 15 9
M  V30 52 1 22 17
M  V30 53 1 30 25
M  V30 54 1 42 36
M  V30 55 1 49 44
M  V30 56 1 34 28
M  V30 57 1 3 51
M  V30 58 1 4 52
M  V30 59 1 6 53
M  V30 60 1 7 54
M  V30 61 1 8 55
M  V30 62 1 12 56
M  V30 63 1 12 57
M  V30 64 1 16 58
M  V30 65 1 16 59
M  V30 66 1 24 60
M  V30 67 1 24 61
M  V30 68 1 24 62
M  V30 69 1 26 63
M  V30 70 1 27 64
M  V30 71 1 30 65
M  V30 72 1 32 66
M  V30 73 1 32 67
M  V30 74 1 33 68
M  V30 75 1 33 69
M  V30 76 1 35 70
M  V30 77 1 35 71
M  V30 78 1 39 72
M  V30 79 1 39 73
M  V30 80 1 43 74
M  V30 81 1 45 75
M  V30 82 1 46 76
M  V30 83 1 48 77
M  V30 84 1 49 78
M  V30 END BOND
M  V30 END CTAB
M  END
