
     RDKit          3D

  0  0  0  0  0  0  0  0  0  0999 V3000
M  V30 BEGIN CTAB
M  V30 COUNTS 26 27 0 0 0
M  V30 BEGIN ATOM
M  V30 1 N 4.50088 0.735523 -0.771602 0
M  V30 2 C 3.54001 1.61005 -0.155379 0
M  V30 3 C 2.21777 0.866762 -0.134701 0
M  V30 4 C 1.96752 -0.386126 -0.603095 0
M  V30 5 C 0.696188 -0.856322 -0.479401 0
M  V30 6 C -0.222346 -0.0472334 0.0978732 0
M  V30 7 S 0.713001 1.37413 0.463507 0
M  V30 8 C -1.64655 -0.218066 0.385469 0
M  V30 9 C -2.46885 0.742563 0.989087 0
M  V30 10 N -1.99134 2.01326 1.39255 0
M  V30 11 C -3.74296 0.236974 1.10209 0
M  V30 12 N -3.67062 -0.99244 0.576923 0
M  V30 13 N -2.42512 -1.25957 0.152564 0
M  V30 14 C -2.10579 -2.5351 -0.452209 0
M  V30 15 H 4.08449 0.449129 -1.70474 0
M  V30 16 H 4.54983 -0.138263 -0.191831 0
M  V30 17 H 3.79086 1.85334 0.896991 0
M  V30 18 H 3.39779 2.48742 -0.789642 0
M  V30 19 H 2.77192 -1.01139 -1.07319 0
M  V30 20 H 0.396802 -1.87929 -0.838955 0
M  V30 21 H -1.68573 2.69247 0.651265 0
M  V30 22 H -1.93626 2.29067 2.4149 0
M  V30 23 H -4.61702 0.713822 1.51924 0
M  V30 24 H -1.33466 -3.09055 0.12053 0
M  V30 25 H -3.02159 -3.19397 -0.396903 0
M  V30 26 H -1.75822 -2.45779 -1.5017 0
M  V30 END ATOM
M  V30 BEGIN BOND
M  V30 1 1 1 2
M  V30 2 1 2 3
M  V30 3 2 3 4
M  V30 4 1 4 5
M  V30 5 2 5 6
M  V30 6 1 6 7
M  V30 7 1 6 8
M  V30 8 2 8 9
M  V30 9 1 9 10
M  V30 10 1 9 11
M  V30 11 2 11 12
M  V30 12 1 12 13
M  V30 13 1 13 14
M  V30 14 1 7 3
M  V30 15 1 13 8
M  V30 16 1 1 15
M  V30 17 1 1 16
M  V30 18 1 2 17
M  V30 19 1 2 18
M  V30 20 1 4 19
M  V30 21 1 5 20
M  V30 22 1 10 21
M  V30 23 1 10 22
M  V30 24 1 11 23
M  V30 25 1 14 24
M  V30 26 1 14 25
M  V30 27 1 14 26
M  V30 END BOND
M  V30 END CTAB
M  END
