
     RDKit          3D

  0  0  0  0  0  0  0  0  0  0999 V3000
M  V30 BEGIN CTAB
M  V30 COUNTS 46 48 0 0 0
M  V30 BEGIN ATOM
M  V30 1 O 3.13539 -3.40896 1.4246 0
M  V30 2 C 2.25156 -3.13442 0.585596 0
M  V30 3 N 2.17159 -1.94839 -0.140493 0
M  V30 4 C 3.03406 -0.867049 -0.0607129 0
M  V30 5 C 3.0285 0.0830271 -1.08142 0
M  V30 6 C 3.85566 1.18194 -1.03098 0
M  V30 7 C 4.70932 1.36219 0.037585 0
M  V30 8 C 4.73837 0.448284 1.05505 0
M  V30 9 C 3.88734 -0.660965 0.981039 0
M  V30 10 S 5.76556 2.75137 0.10757 0
M  V30 11 O 5.18038 3.92031 -0.642118 0
M  V30 12 O 5.94252 3.19636 1.53275 0
M  V30 13 N 7.29551 2.39101 -0.629454 0
M  V30 14 C 1.2304 -4.24476 0.413823 0
M  V30 15 S -0.0688474 -3.67472 -0.695004 0
M  V30 16 C -1.0064 -2.3971 0.113295 0
M  V30 17 N -0.796604 -1.91822 1.35251 0
M  V30 18 N -1.71664 -0.992151 1.53881 0
M  V30 19 C -2.51173 -0.870528 0.439107 0
M  V30 20 N -2.06768 -1.75199 -0.457758 0
M  V30 21 N -2.52589 -2.02909 -1.7406 0
M  V30 22 C -3.61668 0.0828535 0.360124 0
M  V30 23 C -4.42566 0.200285 -0.741487 0
M  V30 24 C -5.45822 1.13543 -0.740977 0
M  V30 25 C -5.69577 1.9484 0.329754 0
M  V30 26 C -4.89036 1.83032 1.4245 0
M  V30 27 C -3.87999 0.919495 1.43177 0
M  V30 28 C -6.78717 2.9399 0.336376 0
M  V30 29 H 1.36519 -1.85147 -0.840595 0
M  V30 30 H 2.36887 -0.0464618 -1.91992 0
M  V30 31 H 3.85916 1.924 -1.81602 0
M  V30 32 H 5.40064 0.567286 1.90668 0
M  V30 33 H 3.97821 -1.3178 1.8412 0
M  V30 34 H 7.32052 1.39382 -0.943474 0
M  V30 35 H 7.54476 3.03633 -1.39088 0
M  V30 36 H 0.823742 -4.55632 1.39276 0
M  V30 37 H 1.77213 -5.07313 -0.079032 0
M  V30 38 H -3.30285 -2.67094 -1.98459 0
M  V30 39 H -2.0485 -1.54911 -2.55507 0
M  V30 40 H -4.30613 -0.397033 -1.61567 0
M  V30 41 H -6.086 1.20891 -1.62785 0
M  V30 42 H -5.06089 2.46868 2.29063 0
M  V30 43 H -3.25197 0.835292 2.29759 0
M  V30 44 H -6.62012 3.63316 -0.510104 0
M  V30 45 H -6.78744 3.52258 1.27928 0
M  V30 46 H -7.74786 2.37936 0.238883 0
M  V30 END ATOM
M  V30 BEGIN BOND
M  V30 1 2 1 2
M  V30 2 1 2 3
M  V30 3 1 3 4
M  V30 4 2 4 5
M  V30 5 1 5 6
M  V30 6 2 6 7
M  V30 7 1 7 8
M  V30 8 2 8 9
M  V30 9 1 7 10
M  V30 10 2 10 11
M  V30 11 2 10 12
M  V30 12 1 10 13
M  V30 13 1 2 14
M  V30 14 1 14 15
M  V30 15 1 15 16
M  V30 16 2 16 17
M  V30 17 1 17 18
M  V30 18 2 18 19
M  V30 19 1 19 20
M  V30 20 1 20 21
M  V30 21 1 19 22
M  V30 22 2 22 23
M  V30 23 1 23 24
M  V30 24 2 24 25
M  V30 25 1 25 26
M  V30 26 2 26 27
M  V30 27 1 25 28
M  V30 28 1 9 4
M  V30 29 1 20 16
M  V30 30 1 27 22
M  V30 31 1 3 29
M  V30 32 1 5 30
M  V30 33 1 6 31
M  V30 34 1 8 32
M  V30 35 1 9 33
M  V30 36 1 13 34
M  V30 37 1 13 35
M  V30 38 1 14 36
M  V30 39 1 14 37
M  V30 40 1 21 38
M  V30 41 1 21 39
M  V30 42 1 23 40
M  V30 43 1 24 41
M  V30 44 1 26 42
M  V30 45 1 27 43
M  V30 46 1 28 44
M  V30 47 1 28 45
M  V30 48 1 28 46
M  V30 END BOND
M  V30 END CTAB
M  END
