
     RDKit          3D

  0  0  0  0  0  0  0  0  0  0999 V3000
M  V30 BEGIN CTAB
M  V30 COUNTS 35 36 0 0 0
M  V30 BEGIN ATOM
M  V30 1 C -3.18475 2.22321 0.859946 0
M  V30 2 C -2.43044 1.10999 0.242108 0
M  V30 3 O -3.04817 -0.127122 0.326732 0
M  V30 4 C -2.42727 -0.92064 -0.605346 0
M  V30 5 C -3.18824 -2.25385 -0.599617 0
M  V30 6 C -0.983854 -1.18345 -0.350868 0
M  V30 7 N -0.265329 -0.0391877 0.192663 0
M  V30 8 C -1.07556 0.920331 0.941744 0
M  V30 9 C 1.12601 0.131676 0.00730845 0
M  V30 10 C 1.61773 1.26552 -0.650969 0
M  V30 11 C 2.97078 1.4569 -0.845047 0
M  V30 12 C 3.90107 0.540881 -0.399962 0
M  V30 13 C 3.43916 -0.584672 0.251783 0
M  V30 14 C 2.0841 -0.757639 0.435823 0
M  V30 15 N 1.67911 -1.92566 1.10725 0
M  V30 16 N 5.29157 0.728087 -0.594136 0
M  V30 17 H -4.24494 1.89626 1.00202 0
M  V30 18 H -2.82245 2.52373 1.86326 0
M  V30 19 H -3.2564 3.11851 0.176157 0
M  V30 20 H -2.18915 1.32214 -0.832947 0
M  V30 21 H -2.62863 -0.482161 -1.6122 0
M  V30 22 H -4.27867 -2.09874 -0.569074 0
M  V30 23 H -2.9217 -2.81832 0.332268 0
M  V30 24 H -2.83706 -2.8404 -1.45058 0
M  V30 25 H -0.563701 -1.49818 -1.34313 0
M  V30 26 H -0.970196 -2.04453 0.376052 0
M  V30 27 H -1.26217 0.556934 1.95357 0
M  V30 28 H -0.650756 1.92114 0.958567 0
M  V30 29 H 0.966961 2.03624 -1.0341 0
M  V30 30 H 3.33218 2.34638 -1.35986 0
M  V30 31 H 4.17173 -1.28611 0.591273 0
M  V30 32 H 1.59346 -2.03122 2.13632 0
M  V30 33 H 1.43054 -2.7969 0.551869 0
M  V30 34 H 5.96742 0.0343006 -0.226071 0
M  V30 35 H 5.65761 1.55655 -1.10438 0
M  V30 END ATOM
M  V30 BEGIN BOND
M  V30 1 1 1 2
M  V30 2 1 2 3
M  V30 3 1 3 4
M  V30 4 1 4 5
M  V30 5 1 4 6
M  V30 6 1 6 7
M  V30 7 1 7 8
M  V30 8 1 7 9
M  V30 9 2 9 10
M  V30 10 1 10 11
M  V30 11 2 11 12
M  V30 12 1 12 13
M  V30 13 2 13 14
M  V30 14 1 14 15
M  V30 15 1 12 16
M  V30 16 1 8 2
M  V30 17 1 14 9
M  V30 18 1 1 17
M  V30 19 1 1 18
M  V30 20 1 1 19
M  V30 21 1 2 20
M  V30 22 1 4 21
M  V30 23 1 5 22
M  V30 24 1 5 23
M  V30 25 1 5 24
M  V30 26 1 6 25
M  V30 27 1 6 26
M  V30 28 1 8 27
M  V30 29 1 8 28
M  V30 30 1 10 29
M  V30 31 1 11 30
M  V30 32 1 13 31
M  V30 33 1 15 32
M  V30 34 1 15 33
M  V30 35 1 16 34
M  V30 36 1 16 35
M  V30 END BOND
M  V30 END CTAB
M  END
