
     RDKit          3D

  0  0  0  0  0  0  0  0  0  0999 V3000
M  V30 BEGIN CTAB
M  V30 COUNTS 19 19 0 0 0
M  V30 BEGIN ATOM
M  V30 1 N 2.74542 -1.37 0.306042 0
M  V30 2 N 2.38548 -0.173452 -0.169883 0
M  V30 3 C 1.39561 0.524141 -0.365745 0
M  V30 4 N 1.61634 1.82284 -0.946263 0
M  V30 5 C 0.0106492 0.185118 -0.0753401 0
M  V30 6 C -1.01249 1.1011 -0.361504 0
M  V30 7 C -2.32663 0.815467 -0.101401 0
M  V30 8 C -2.73401 -0.374986 0.452241 0
M  V30 9 C -1.72618 -1.26868 0.730436 0
M  V30 10 C -0.389083 -1.01216 0.480432 0
M  V30 11 H 2.71711 -1.70937 1.29665 0
M  V30 12 H 3.11337 -2.09778 -0.382469 0
M  V30 13 H 1.97068 1.91115 -1.90512 0
M  V30 14 H 1.4098 2.65118 -0.375485 0
M  V30 15 H -0.709966 2.05846 -0.804149 0
M  V30 16 H -3.08559 1.55158 -0.337972 0
M  V30 17 H -3.77603 -0.601475 0.658481 0
M  V30 18 H -1.9729 -2.24354 1.17473 0
M  V30 19 H 0.368409 -1.7696 0.726312 0
M  V30 END ATOM
M  V30 BEGIN BOND
M  V30 1 1 1 2
M  V30 2 2 2 3 CFG=2
M  V30 3 1 3 4
M  V30 4 1 3 5
M  V30 5 2 5 6
M  V30 6 1 6 7
M  V30 7 2 7 8
M  V30 8 1 8 9
M  V30 9 2 9 10
M  V30 10 1 10 5
M  V30 11 1 1 11
M  V30 12 1 1 12
M  V30 13 1 4 13
M  V30 14 1 4 14
M  V30 15 1 6 15
M  V30 16 1 7 16
M  V30 17 1 8 17
M  V30 18 1 9 18
M  V30 19 1 10 19
M  V30 END BOND
M  V30 END CTAB
M  END
