
     RDKit          3D

  0  0  0  0  0  0  0  0  0  0999 V3000
M  V30 BEGIN CTAB
M  V30 COUNTS 51 54 0 0 0
M  V30 BEGIN ATOM
M  V30 1 C -6.18535 1.34694 -1.65804 0
M  V30 2 C -5.70276 -0.0614382 -1.9783 0
M  V30 3 C -5.57089 -0.902925 -0.763318 0
M  V30 4 C -6.5299 -1.86371 -0.464151 0
M  V30 5 C -6.44297 -2.65367 0.652454 0
M  V30 6 C -5.36951 -2.46585 1.47497 0
M  V30 7 C -4.39156 -1.50426 1.1933 0
M  V30 8 C -4.4649 -0.710259 0.0850469 0
M  V30 9 N -3.52196 0.268018 -0.273055 0
M  V30 10 C -2.38764 0.622739 0.479026 0
M  V30 11 N -1.56921 1.61277 -0.0437315 0
M  V30 12 C -0.469287 2.04654 0.568144 0
M  V30 13 C 0.336144 3.11514 -0.0867462 0
M  V30 14 S 1.61597 2.44737 -1.17438 0
M  V30 15 C 2.85204 1.56848 -0.240129 0
M  V30 16 N 2.95508 1.34893 1.07764 0
M  V30 17 N 4.03952 0.646576 1.3188 0
M  V30 18 C 4.69411 0.378667 0.140556 0
M  V30 19 N 3.93684 0.959189 -0.790252 0
M  V30 20 N 4.20655 0.954519 -2.15876 0
M  V30 21 C 5.93506 -0.382676 0.0659151 0
M  V30 22 C 6.60165 -0.673458 -1.08728 0
M  V30 23 C 7.79945 -1.41498 -1.08242 0
M  V30 24 C 8.34724 -1.877 0.0848242 0
M  V30 25 C 7.68177 -1.5883 1.25095 0
M  V30 26 C 6.50908 -0.862776 1.25052 0
M  V30 27 F 5.87014 -0.589083 2.41099 0
M  V30 28 N -0.110285 1.52059 1.74618 0
M  V30 29 C -0.877306 0.542304 2.30983 0
M  V30 30 N -1.96715 0.155343 1.64083 0
M  V30 31 N -0.52986 -0.0372977 3.55273 0
M  V30 32 H -7.2884 1.42189 -1.72973 0
M  V30 33 H -5.76674 2.06958 -2.38992 0
M  V30 34 H -5.90516 1.66349 -0.63199 0
M  V30 35 H -6.531 -0.537529 -2.59824 0
M  V30 36 H -4.78825 -0.0365821 -2.58925 0
M  V30 37 H -7.37442 -1.96945 -1.16584 0
M  V30 38 H -7.213 -3.40714 0.869356 0
M  V30 39 H -5.27585 -3.08195 2.37167 0
M  V30 40 H -3.57042 -1.41578 1.88747 0
M  V30 41 H -3.67267 0.801433 -1.21596 0
M  V30 42 H 0.741293 3.81068 0.675143 0
M  V30 43 H -0.355934 3.7117 -0.711893 0
M  V30 44 H 4.69011 1.76765 -2.59981 0
M  V30 45 H 3.92777 0.138631 -2.754 0
M  V30 46 H 6.21822 -0.336771 -2.04032 0
M  V30 47 H 8.28887 -1.61881 -2.02284 0
M  V30 48 H 9.26583 -2.44379 0.0715627 0
M  V30 49 H 8.11834 -1.95491 2.16857 0
M  V30 50 H -0.308825 0.545078 4.38812 0
M  V30 51 H -0.489879 -1.07386 3.65026 0
M  V30 END ATOM
M  V30 BEGIN BOND
M  V30 1 1 1 2
M  V30 2 1 2 3
M  V30 3 2 3 4
M  V30 4 1 4 5
M  V30 5 2 5 6
M  V30 6 1 6 7
M  V30 7 2 7 8
M  V30 8 1 8 9
M  V30 9 1 9 10
M  V30 10 2 10 11
M  V30 11 1 11 12
M  V30 12 1 12 13
M  V30 13 1 13 14
M  V30 14 1 14 15
M  V30 15 2 15 16
M  V30 16 1 16 17
M  V30 17 2 17 18
M  V30 18 1 18 19
M  V30 19 1 19 20
M  V30 20 1 18 21
M  V30 21 2 21 22
M  V30 22 1 22 23
M  V30 23 2 23 24
M  V30 24 1 24 25
M  V30 25 2 25 26
M  V30 26 1 26 27
M  V30 27 2 12 28
M  V30 28 1 28 29
M  V30 29 2 29 30
M  V30 30 1 29 31
M  V30 31 1 8 3
M  V30 32 1 30 10
M  V30 33 1 19 15
M  V30 34 1 26 21
M  V30 35 1 1 32
M  V30 36 1 1 33
M  V30 37 1 1 34
M  V30 38 1 2 35
M  V30 39 1 2 36
M  V30 40 1 4 37
M  V30 41 1 5 38
M  V30 42 1 6 39
M  V30 43 1 7 40
M  V30 44 1 9 41
M  V30 45 1 13 42
M  V30 46 1 13 43
M  V30 47 1 20 44
M  V30 48 1 20 45
M  V30 49 1 22 46
M  V30 50 1 23 47
M  V30 51 1 24 48
M  V30 52 1 25 49
M  V30 53 1 31 50
M  V30 54 1 31 51
M  V30 END BOND
M  V30 END CTAB
M  END
