
     RDKit          3D

  0  0  0  0  0  0  0  0  0  0999 V3000
M  V30 BEGIN CTAB
M  V30 COUNTS 32 33 0 0 0
M  V30 BEGIN ATOM
M  V30 1 C -2.59958 0.956498 1.48691 0
M  V30 2 C -2.44114 0.754077 0.0123234 0
M  V30 3 C -3.00359 -0.508858 -0.492142 0
M  V30 4 C -2.05373 -1.65132 -0.621481 0
M  V30 5 C -0.717717 -1.16601 -1.21405 0
M  V30 6 C -0.160578 -0.277095 -0.11458 0
M  V30 7 C -1.03723 1.0138 -0.375601 0
M  V30 8 C 1.19694 0.243052 -0.365873 0
M  V30 9 N 1.59064 1.32451 -1.0895 0
M  V30 10 C 2.89806 1.54922 -0.845546 0
M  V30 11 N 3.37559 0.624168 0.0339269 0
M  V30 12 C 2.32014 -0.15842 0.307696 0
M  V30 13 N 2.41402 -1.34843 1.14442 0
M  V30 14 N 4.71202 0.534907 0.437032 0
M  V30 15 H -2.0477 1.92785 1.73111 0
M  V30 16 H -3.65165 1.05937 1.84923 0
M  V30 17 H -2.16551 0.133914 2.06854 0
M  V30 18 H -3.05726 1.58786 -0.446537 0
M  V30 19 H -3.8687 -0.874986 0.10176 0
M  V30 20 H -3.44816 -0.298208 -1.518 0
M  V30 21 H -1.86483 -2.1144 0.386889 0
M  V30 22 H -2.43696 -2.44291 -1.27937 0
M  V30 23 H -0.819972 -0.719982 -2.18037 0
M  V30 24 H -0.11968 -2.08856 -1.27816 0
M  V30 25 H -0.381282 -0.688131 0.851387 0
M  V30 26 H -0.976505 1.16545 -1.47132 0
M  V30 27 H -0.580642 1.80506 0.185682 0
M  V30 28 H 3.51286 2.3353 -1.26256 0
M  V30 29 H 1.99269 -1.51779 2.05309 0
M  V30 30 H 2.98387 -2.17697 0.752912 0
M  V30 31 H 4.99046 0.335745 1.41376 0
M  V30 32 H 5.44512 0.681285 -0.261583 0
M  V30 END ATOM
M  V30 BEGIN BOND
M  V30 1 1 1 2
M  V30 2 1 2 3
M  V30 3 1 3 4
M  V30 4 1 4 5
M  V30 5 1 5 6
M  V30 6 1 6 7
M  V30 7 1 6 8
M  V30 8 1 8 9
M  V30 9 2 9 10
M  V30 10 1 10 11
M  V30 11 1 11 12
M  V30 12 1 12 13
M  V30 13 1 11 14
M  V30 14 1 7 2
M  V30 15 2 12 8
M  V30 16 1 1 15
M  V30 17 1 1 16
M  V30 18 1 1 17
M  V30 19 1 2 18
M  V30 20 1 3 19
M  V30 21 1 3 20
M  V30 22 1 4 21
M  V30 23 1 4 22
M  V30 24 1 5 23
M  V30 25 1 5 24
M  V30 26 1 6 25
M  V30 27 1 7 26
M  V30 28 1 7 27
M  V30 29 1 10 28
M  V30 30 1 13 29
M  V30 31 1 13 30
M  V30 32 1 14 31
M  V30 33 1 14 32
M  V30 END BOND
M  V30 END CTAB
M  END
