
     RDKit          3D

  0  0  0  0  0  0  0  0  0  0999 V3000
M  V30 BEGIN CTAB
M  V30 COUNTS 37 38 0 0 0
M  V30 BEGIN ATOM
M  V30 1 O 0.688391 -1.69404 0.589807 0
M  V30 2 C 0.344149 -0.958459 1.53485 0
M  V30 3 N -0.904386 -0.345086 1.59833 0
M  V30 4 C -1.98204 -0.386559 0.718633 0
M  V30 5 C -2.00088 -1.08712 -0.444908 0
M  V30 6 C -3.09293 -1.11405 -1.31113 0
M  V30 7 C -4.21099 -0.392825 -0.969556 0
M  V30 8 C -4.25328 0.338637 0.198607 0
M  V30 9 C -3.15169 0.329766 1.01333 0
M  V30 10 C -5.45438 1.10794 0.555789 0
M  V30 11 O -5.46552 1.76508 1.62634 0
M  V30 12 C -6.61811 1.07725 -0.372411 0
M  V30 13 C 1.35862 -0.759802 2.6251 0
M  V30 14 S 2.4294 0.646872 2.34005 0
M  V30 15 C 3.49667 0.433385 0.929611 0
M  V30 16 N 4.34871 1.41324 0.602479 0
M  V30 17 C 5.19323 1.35193 -0.437766 0
M  V30 18 N 6.09289 2.37786 -0.78988 0
M  V30 19 C 5.17589 0.196779 -1.21824 0
M  V30 20 C 4.30542 -0.824042 -0.897606 0
M  V30 21 N 3.48976 -0.675197 0.169107 0
M  V30 22 N 4.31371 -1.98814 -1.71468 0
M  V30 23 H -1.05238 0.25917 2.47626 0
M  V30 24 H -1.16701 -1.66984 -0.773268 0
M  V30 25 H -3.07031 -1.68355 -2.22849 0
M  V30 26 H -5.07968 -0.389156 -1.61755 0
M  V30 27 H -3.20822 0.910125 1.92279 0
M  V30 28 H -7.41656 1.76886 -0.0551985 0
M  V30 29 H -6.96629 0.0276936 -0.432935 0
M  V30 30 H -6.29799 1.37039 -1.38577 0
M  V30 31 H 0.774173 -0.560399 3.54465 0
M  V30 32 H 1.98773 -1.67051 2.76259 0
M  V30 33 H 7.09397 2.27978 -0.569321 0
M  V30 34 H 5.74649 3.22228 -1.26665 0
M  V30 35 H 5.8551 0.13509 -2.06353 0
M  V30 36 H 5.23841 -2.45386 -1.85946 0
M  V30 37 H 3.4599 -2.3595 -2.14457 0
M  V30 END ATOM
M  V30 BEGIN BOND
M  V30 1 2 1 2
M  V30 2 1 2 3
M  V30 3 1 3 4
M  V30 4 2 4 5
M  V30 5 1 5 6
M  V30 6 2 6 7
M  V30 7 1 7 8
M  V30 8 2 8 9
M  V30 9 1 8 10
M  V30 10 2 10 11
M  V30 11 1 10 12
M  V30 12 1 2 13
M  V30 13 1 13 14
M  V30 14 1 14 15
M  V30 15 2 15 16
M  V30 16 1 16 17
M  V30 17 1 17 18
M  V30 18 2 17 19
M  V30 19 1 19 20
M  V30 20 2 20 21
M  V30 21 1 20 22
M  V30 22 1 9 4
M  V30 23 1 21 15
M  V30 24 1 3 23
M  V30 25 1 5 24
M  V30 26 1 6 25
M  V30 27 1 7 26
M  V30 28 1 9 27
M  V30 29 1 12 28
M  V30 30 1 12 29
M  V30 31 1 12 30
M  V30 32 1 13 31
M  V30 33 1 13 32
M  V30 34 1 18 33
M  V30 35 1 18 34
M  V30 36 1 19 35
M  V30 37 1 22 36
M  V30 38 1 22 37
M  V30 END BOND
M  V30 END CTAB
M  END
