
     RDKit          3D

  0  0  0  0  0  0  0  0  0  0999 V3000
M  V30 BEGIN CTAB
M  V30 COUNTS 29 30 0 0 0
M  V30 BEGIN ATOM
M  V30 1 N -0.497912 -2.51607 0.30125 0
M  V30 2 C -0.535733 -1.14783 0.781468 0
M  V30 3 C -1.6356 -0.373589 0.146751 0
M  V30 4 C -2.42715 0.435185 0.934076 0
M  V30 5 C -3.45361 1.15808 0.352277 0
M  V30 6 C -3.6948 1.07993 -1.00422 0
M  V30 7 C -2.91249 0.275531 -1.80724 0
M  V30 8 C -1.88858 -0.441607 -1.20738 0
M  V30 9 C 0.791923 -0.509254 0.47863 0
M  V30 10 C 0.820475 0.763565 -0.0522501 0
M  V30 11 C 2.04928 1.31645 -0.317635 0
M  V30 12 C 3.21943 0.654047 -0.0752176 0
M  V30 13 N 4.46862 1.28263 -0.372708 0
M  V30 14 C 3.21438 -0.628275 0.458965 0
M  V30 15 C 1.97388 -1.17114 0.7205 0
M  V30 16 H -0.0431899 -2.57562 -0.632467 0
M  V30 17 H -1.47446 -2.89282 0.249899 0
M  V30 18 H -0.64044 -1.17803 1.8843 0
M  V30 19 H -2.28276 0.535591 2.00987 0
M  V30 20 H -4.06073 1.78499 0.988503 0
M  V30 21 H -4.50846 1.6535 -1.46274 0
M  V30 22 H -3.08567 0.197606 -2.8885 0
M  V30 23 H -1.28484 -1.06759 -1.85269 0
M  V30 24 H -0.108075 1.31118 -0.253368 0
M  V30 25 H 2.04423 2.33306 -0.74087 0
M  V30 26 H 4.66863 2.25255 -0.0383141 0
M  V30 27 H 5.20084 0.793293 -0.924063 0
M  V30 28 H 4.13647 -1.16034 0.65419 0
M  V30 29 H 1.94635 -2.16503 1.13521 0
M  V30 END ATOM
M  V30 BEGIN BOND
M  V30 1 1 1 2
M  V30 2 1 2 3
M  V30 3 2 3 4
M  V30 4 1 4 5
M  V30 5 2 5 6
M  V30 6 1 6 7
M  V30 7 2 7 8
M  V30 8 1 2 9
M  V30 9 2 9 10
M  V30 10 1 10 11
M  V30 11 2 11 12
M  V30 12 1 12 13
M  V30 13 1 12 14
M  V30 14 2 14 15
M  V30 15 1 8 3
M  V30 16 1 15 9
M  V30 17 1 1 16
M  V30 18 1 1 17
M  V30 19 1 2 18
M  V30 20 1 4 19
M  V30 21 1 5 20
M  V30 22 1 6 21
M  V30 23 1 7 22
M  V30 24 1 8 23
M  V30 25 1 10 24
M  V30 26 1 11 25
M  V30 27 1 13 26
M  V30 28 1 13 27
M  V30 29 1 14 28
M  V30 30 1 15 29
M  V30 END BOND
M  V30 END CTAB
M  END
