
     RDKit          3D

  0  0  0  0  0  0  0  0  0  0999 V3000
M  V30 BEGIN CTAB
M  V30 COUNTS 16 16 0 0 0
M  V30 BEGIN ATOM
M  V30 1 N -1.31554 -1.80164 -0.0908285 0
M  V30 2 C -0.306084 -0.796393 -0.0433513 0
M  V30 3 C -0.62607 0.54434 0.018195 0
M  V30 4 N -2.00891 0.873535 0.0318942 0
M  V30 5 C 0.348309 1.52067 0.0643099 0
M  V30 6 F -0.00264868 2.82499 0.124141 0
M  V30 7 C 1.69217 1.21066 0.0514424 0
M  V30 8 C 2.01297 -0.128968 -0.0100515 0
M  V30 9 Br 3.871 -0.58167 -0.0289783 0
M  V30 10 C 1.03904 -1.10485 -0.0561451 0
M  V30 11 H -1.80203 -2.09148 -0.966973 0
M  V30 12 H -1.61004 -2.29678 0.780347 0
M  V30 13 H -2.57764 0.955881 -0.813197 0
M  V30 14 H -2.4631 1.03896 0.955436 0
M  V30 15 H 2.44814 1.98461 0.0879747 0
M  V30 16 H 1.30044 -2.15186 -0.104215 0
M  V30 END ATOM
M  V30 BEGIN BOND
M  V30 1 1 1 2
M  V30 2 2 2 3
M  V30 3 1 3 4
M  V30 4 1 3 5
M  V30 5 1 5 6
M  V30 6 2 5 7
M  V30 7 1 7 8
M  V30 8 1 8 9
M  V30 9 2 8 10
M  V30 10 1 10 2
M  V30 11 1 1 11
M  V30 12 1 1 12
M  V30 13 1 4 13
M  V30 14 1 4 14
M  V30 15 1 7 15
M  V30 16 1 10 16
M  V30 END BOND
M  V30 END CTAB
M  END
