
     RDKit          3D

  0  0  0  0  0  0  0  0  0  0999 V3000
M  V30 BEGIN CTAB
M  V30 COUNTS 23 22 0 0 0
M  V30 BEGIN ATOM
M  V30 1 C -1.06152 -1.172 -0.566107 0
M  V30 2 C -0.524492 -0.0271644 0.304085 0
M  V30 3 C -1.68106 0.863429 0.533852 0
M  V30 4 S -2.20121 1.16099 2.03619 0
M  V30 5 N -2.33894 1.46028 -0.557757 0
M  V30 6 C 0.52945 0.742749 -0.438353 0
M  V30 7 C 1.72542 -0.00905201 -0.871581 0
M  V30 8 C 2.4427 -0.592508 0.302057 0
M  V30 9 N -0.0957974 -0.561887 1.56547 0
M  V30 10 H -1.75478 -0.792224 -1.34312 0
M  V30 11 H -0.208312 -1.69469 -1.06353 0
M  V30 12 H -1.64386 -1.87117 0.0764955 0
M  V30 13 H -2.08485 2.43675 -0.805422 0
M  V30 14 H -3.04851 0.893216 -1.0637 0
M  V30 15 H 0.846407 1.60194 0.186064 0
M  V30 16 H 0.0120598 1.20324 -1.32392 0
M  V30 17 H 2.42428 0.735074 -1.34054 0
M  V30 18 H 1.54481 -0.767004 -1.65478 0
M  V30 19 H 3.54625 -0.697618 0.121009 0
M  V30 20 H 2.03425 -1.59709 0.539318 0
M  V30 21 H 2.37802 0.0692776 1.19049 0
M  V30 22 H -0.570868 -1.4624 1.8007 0
M  V30 23 H -0.26945 0.077866 2.37309 0
M  V30 END ATOM
M  V30 BEGIN BOND
M  V30 1 1 1 2
M  V30 2 1 2 3
M  V30 3 2 3 4
M  V30 4 1 3 5
M  V30 5 1 2 6
M  V30 6 1 6 7
M  V30 7 1 7 8
M  V30 8 1 2 9
M  V30 9 1 1 10
M  V30 10 1 1 11
M  V30 11 1 1 12
M  V30 12 1 5 13
M  V30 13 1 5 14
M  V30 14 1 6 15
M  V30 15 1 6 16
M  V30 16 1 7 17
M  V30 17 1 7 18
M  V30 18 1 8 19
M  V30 19 1 8 20
M  V30 20 1 8 21
M  V30 21 1 9 22
M  V30 22 1 9 23
M  V30 END BOND
M  V30 END CTAB
M  END
