
     RDKit          3D

  0  0  0  0  0  0  0  0  0  0999 V3000
M  V30 BEGIN CTAB
M  V30 COUNTS 33 34 0 0 0
M  V30 BEGIN ATOM
M  V30 1 Cl 4.74898 3.62357 0.240978 0
M  V30 2 C 4.29052 1.94123 0.336955 0
M  V30 3 C 5.10731 0.962325 0.863862 0
M  V30 4 C 4.70283 -0.357202 0.919308 0
M  V30 5 C 3.45699 -0.693464 0.436401 0
M  V30 6 C 2.60767 0.253309 -0.0987203 0
M  V30 7 C 3.06647 1.57155 -0.130304 0
M  V30 8 C 1.28719 -0.0884896 -0.611171 0
M  V30 9 O 0.604625 0.857107 -1.11596 0
M  V30 10 C 0.770472 -1.47097 -0.542226 0
M  V30 11 S -0.695876 -1.59303 -1.56972 0
M  V30 12 C -2.08519 -0.687359 -1.00371 0
M  V30 13 N -2.95204 -1.32631 -0.161095 0
M  V30 14 C -4.0425 -0.717362 0.324322 0
M  V30 15 N -4.91225 -1.41537 1.19028 0
M  V30 16 C -4.31175 0.586455 -0.0244257 0
M  V30 17 C -3.43837 1.24592 -0.879622 0
M  V30 18 N -2.36117 0.586606 -1.33603 0
M  V30 19 N -3.62039 2.58208 -1.2975 0
M  V30 20 C 0.594312 -2.00184 0.848493 0
M  V30 21 H 6.07851 1.25659 1.23459 0
M  V30 22 H 5.38988 -1.09331 1.34802 0
M  V30 23 H 3.17103 -1.74319 0.489112 0
M  V30 24 H 2.36447 2.304 -0.563538 0
M  V30 25 H 1.55536 -2.12411 -1.01884 0
M  V30 26 H -4.56806 -2.12262 1.8753 0
M  V30 27 H -5.93957 -1.24365 1.17125 0
M  V30 28 H -5.19142 1.12626 0.348361 0
M  V30 29 H -4.0724 2.82455 -2.19966 0
M  V30 30 H -3.30496 3.39934 -0.713015 0
M  V30 31 H 1.09365 -2.97971 0.991103 0
M  V30 32 H -0.461565 -2.13114 1.13998 0
M  V30 33 H 1.06723 -1.33177 1.6225 0
M  V30 END ATOM
M  V30 BEGIN BOND
M  V30 1 1 1 2
M  V30 2 2 2 3
M  V30 3 1 3 4
M  V30 4 2 4 5
M  V30 5 1 5 6
M  V30 6 2 6 7
M  V30 7 1 6 8
M  V30 8 2 8 9
M  V30 9 1 8 10
M  V30 10 1 10 11
M  V30 11 1 11 12
M  V30 12 2 12 13
M  V30 13 1 13 14
M  V30 14 1 14 15
M  V30 15 2 14 16
M  V30 16 1 16 17
M  V30 17 2 17 18
M  V30 18 1 17 19
M  V30 19 1 10 20
M  V30 20 1 7 2
M  V30 21 1 18 12
M  V30 22 1 3 21
M  V30 23 1 4 22
M  V30 24 1 5 23
M  V30 25 1 7 24
M  V30 26 1 10 25
M  V30 27 1 15 26
M  V30 28 1 15 27
M  V30 29 1 16 28
M  V30 30 1 19 29
M  V30 31 1 19 30
M  V30 32 1 20 31
M  V30 33 1 20 32
M  V30 34 1 20 33
M  V30 END BOND
M  V30 END CTAB
M  END
