
     RDKit          3D

  0  0  0  0  0  0  0  0  0  0999 V3000
M  V30 BEGIN CTAB
M  V30 COUNTS 46 47 0 0 0
M  V30 BEGIN ATOM
M  V30 1 N -2.38281 2.12448 2.0624 0
M  V30 2 C -2.34881 0.776307 1.5711 0
M  V30 3 C -1.72811 0.70246 0.156479 0
M  V30 4 C -2.55423 1.54006 -0.782877 0
M  V30 5 C -4.01864 1.20991 -0.587654 0
M  V30 6 C -4.31001 -0.245921 -0.731038 0
M  V30 7 C -3.12323 -1.10566 -0.949662 0
M  V30 8 C -1.85345 -0.723404 -0.288694 0
M  V30 9 C -1.46079 -1.68187 0.829171 0
M  V30 10 N -0.398893 1.06757 0.28537 0
M  V30 11 S 0.699369 1.18544 -0.942554 0
M  V30 12 O 0.126991 0.878633 -2.30055 0
M  V30 13 O 1.30018 2.58776 -1.0916 0
M  V30 14 C 1.99887 0.0352421 -0.697587 0
M  V30 15 C 1.93888 -1.17162 -1.35243 0
M  V30 16 C 2.92596 -2.11839 -1.2037 0
M  V30 17 C 3.98955 -1.82888 -0.374534 0
M  V30 18 C 4.0493 -0.618642 0.281872 0
M  V30 19 C 3.06634 0.329105 0.136282 0
M  V30 20 S 5.44685 -0.319578 1.32993 0
M  V30 21 O 5.98018 -1.63269 1.79541 0
M  V30 22 O 5.03751 0.578035 2.43378 0
M  V30 23 N 6.64988 0.415792 0.33686 0
M  V30 24 H -2.36929 2.10459 3.10792 0
M  V30 25 H -1.57145 2.70276 1.75594 0
M  V30 26 H -1.68509 0.202416 2.28214 0
M  V30 27 H -3.33769 0.35169 1.6327 0
M  V30 28 H -2.30722 1.18626 -1.82024 0
M  V30 29 H -2.41368 2.61858 -0.665822 0
M  V30 30 H -4.58138 1.75033 -1.39183 0
M  V30 31 H -4.41225 1.6433 0.363046 0
M  V30 32 H -4.91771 -0.644236 0.139563 0
M  V30 33 H -5.01533 -0.435631 -1.59861 0
M  V30 34 H -3.38567 -2.13891 -0.561653 0
M  V30 35 H -2.99371 -1.2841 -2.06195 0
M  V30 36 H -1.04576 -0.864112 -1.06169 0
M  V30 37 H -1.14847 -2.67357 0.430845 0
M  V30 38 H -2.32596 -1.82281 1.50749 0
M  V30 39 H -0.577232 -1.25785 1.34976 0
M  V30 40 H -0.0644873 1.34451 1.22817 0
M  V30 41 H 1.1107 -1.42488 -2.01229 0
M  V30 42 H 2.9142 -3.08035 -1.70258 0
M  V30 43 H 4.7687 -2.58289 -0.260555 0
M  V30 44 H 3.07814 1.26975 0.624304 0
M  V30 45 H 6.97531 -0.220202 -0.396988 0
M  V30 46 H 6.27444 1.27121 -0.132536 0
M  V30 END ATOM
M  V30 BEGIN BOND
M  V30 1 1 1 2
M  V30 2 1 2 3
M  V30 3 1 3 4
M  V30 4 1 4 5
M  V30 5 1 5 6
M  V30 6 1 6 7
M  V30 7 1 7 8
M  V30 8 1 8 9
M  V30 9 1 3 10
M  V30 10 1 10 11
M  V30 11 2 11 12
M  V30 12 2 11 13
M  V30 13 1 11 14
M  V30 14 2 14 15
M  V30 15 1 15 16
M  V30 16 2 16 17
M  V30 17 1 17 18
M  V30 18 2 18 19
M  V30 19 1 18 20
M  V30 20 2 20 21
M  V30 21 2 20 22
M  V30 22 1 20 23
M  V30 23 1 8 3
M  V30 24 1 19 14
M  V30 25 1 1 24
M  V30 26 1 1 25
M  V30 27 1 2 26
M  V30 28 1 2 27
M  V30 29 1 4 28
M  V30 30 1 4 29
M  V30 31 1 5 30
M  V30 32 1 5 31
M  V30 33 1 6 32
M  V30 34 1 6 33
M  V30 35 1 7 34
M  V30 36 1 7 35
M  V30 37 1 8 36
M  V30 38 1 9 37
M  V30 39 1 9 38
M  V30 40 1 9 39
M  V30 41 1 10 40
M  V30 42 1 15 41
M  V30 43 1 16 42
M  V30 44 1 17 43
M  V30 45 1 19 44
M  V30 46 1 23 45
M  V30 47 1 23 46
M  V30 END BOND
M  V30 END CTAB
M  END
