
     RDKit          3D

  0  0  0  0  0  0  0  0  0  0999 V3000
M  V30 BEGIN CTAB
M  V30 COUNTS 51 54 0 0 0
M  V30 BEGIN ATOM
M  V30 1 O -0.355677 -0.344701 2.40678 0
M  V30 2 C 0.394204 -0.139871 1.42077 0
M  V30 3 N 0.0538952 -0.603457 0.146182 0
M  V30 4 C -1.12988 -1.3158 -0.208157 0
M  V30 5 C -0.998301 -1.78711 -1.66061 0
M  V30 6 C -1.34409 -3.23489 -1.69195 0
M  V30 7 C -1.66536 -3.67524 -0.2945 0
M  V30 8 C -1.39298 -2.52011 0.629703 0
M  V30 9 C -2.32289 -0.414482 -0.136685 0
M  V30 10 C -3.57506 -0.948897 -0.493997 0
M  V30 11 C -4.73601 -0.224427 -0.467062 0
M  V30 12 C -4.71963 1.09047 -0.0781132 0
M  V30 13 C -3.51613 1.64022 0.273545 0
M  V30 14 C -2.34078 0.894905 0.242412 0
M  V30 15 O -3.4879 2.95942 0.663036 0
M  V30 16 C -4.62133 3.80415 0.692573 0
M  V30 17 C -5.78995 3.26947 -0.0895772 0
M  V30 18 O -5.87962 1.84547 -0.0390549 0
M  V30 19 C 1.63141 0.60838 1.69089 0
M  V30 20 S 3.05239 -0.35144 2.17949 0
M  V30 21 C 4.45072 0.0259845 1.17765 0
M  V30 22 N 4.70473 -0.62078 0.0530824 0
M  V30 23 C 5.77573 -0.380921 -0.730954 0
M  V30 24 N 6.01522 -1.10551 -1.92844 0
M  V30 25 C 6.67068 0.591486 -0.352329 0
M  V30 26 C 6.4324 1.28369 0.81987 0
M  V30 27 N 5.34657 0.994332 1.55093 0
M  V30 28 N 7.39534 2.28014 1.18659 0
M  V30 29 H 0.7406 -0.420646 -0.659585 0
M  V30 30 H 0.0488717 -1.62406 -2.025 0
M  V30 31 H -1.73618 -1.24116 -2.26206 0
M  V30 32 H -0.468354 -3.81073 -2.11586 0
M  V30 33 H -2.16921 -3.47323 -2.4305 0
M  V30 34 H -1.00557 -4.55336 -0.0608325 0
M  V30 35 H -2.7023 -4.05594 -0.246656 0
M  V30 36 H -0.561996 -2.78688 1.31822 0
M  V30 37 H -2.35035 -2.36103 1.21592 0
M  V30 38 H -3.63404 -1.96017 -0.806168 0
M  V30 39 H -5.65502 -0.705073 -0.751539 0
M  V30 40 H -1.44464 1.41319 0.510038 0
M  V30 41 H -4.95111 3.90804 1.74308 0
M  V30 42 H -4.29852 4.76066 0.245296 0
M  V30 43 H -5.74308 3.553 -1.16289 0
M  V30 44 H -6.73362 3.66473 0.346166 0
M  V30 45 H 1.43651 1.43801 2.43432 0
M  V30 46 H 1.90167 1.22228 0.750381 0
M  V30 47 H 6.36781 -2.07191 -1.85466 0
M  V30 48 H 5.83706 -0.658794 -2.85088 0
M  V30 49 H 7.53479 0.810566 -0.943932 0
M  V30 50 H 7.93242 2.2566 2.08379 0
M  V30 51 H 7.60656 3.07542 0.561281 0
M  V30 END ATOM
M  V30 BEGIN BOND
M  V30 1 2 1 2
M  V30 2 1 2 3
M  V30 3 1 3 4
M  V30 4 1 4 5
M  V30 5 1 5 6
M  V30 6 1 6 7
M  V30 7 1 7 8
M  V30 8 1 4 9
M  V30 9 2 9 10
M  V30 10 1 10 11
M  V30 11 2 11 12
M  V30 12 1 12 13
M  V30 13 2 13 14
M  V30 14 1 13 15
M  V30 15 1 15 16
M  V30 16 1 16 17
M  V30 17 1 17 18
M  V30 18 1 2 19
M  V30 19 1 19 20
M  V30 20 1 20 21
M  V30 21 2 21 22
M  V30 22 1 22 23
M  V30 23 1 23 24
M  V30 24 2 23 25
M  V30 25 1 25 26
M  V30 26 2 26 27
M  V30 27 1 26 28
M  V30 28 1 8 4
M  V30 29 1 14 9
M  V30 30 1 27 21
M  V30 31 1 18 12
M  V30 32 1 3 29
M  V30 33 1 5 30
M  V30 34 1 5 31
M  V30 35 1 6 32
M  V30 36 1 6 33
M  V30 37 1 7 34
M  V30 38 1 7 35
M  V30 39 1 8 36
M  V30 40 1 8 37
M  V30 41 1 10 38
M  V30 42 1 11 39
M  V30 43 1 14 40
M  V30 44 1 16 41
M  V30 45 1 16 42
M  V30 46 1 17 43
M  V30 47 1 17 44
M  V30 48 1 19 45
M  V30 49 1 19 46
M  V30 50 1 24 47
M  V30 51 1 24 48
M  V30 52 1 25 49
M  V30 53 1 28 50
M  V30 54 1 28 51
M  V30 END BOND
M  V30 END CTAB
M  END
