
     RDKit          3D

  0  0  0  0  0  0  0  0  0  0999 V3000
M  V30 BEGIN CTAB
M  V30 COUNTS 49 52 0 0 0
M  V30 BEGIN ATOM
M  V30 1 N -3.88532 3.13526 1.76156 0
M  V30 2 C -2.75948 2.93368 1.59288 0
M  V30 3 C -1.35452 2.65533 1.38164 0
M  V30 4 C -0.496555 3.68696 1.69009 0
M  V30 5 N -0.933853 4.93428 2.17733 0
M  V30 6 N 0.807625 3.42531 1.49348 0
M  V30 7 C 1.2419 2.21818 1.02084 0
M  V30 8 C 0.413904 1.17229 0.704888 0
M  V30 9 C -0.95202 1.42695 0.903584 0
M  V30 10 C -1.99636 0.457078 0.632848 0
M  V30 11 C -2.42877 -0.274986 1.74613 0
M  V30 12 C -3.41528 -1.20125 1.63803 0
M  V30 13 C -4.00897 -1.434 0.416373 0
M  V30 14 C -3.57167 -0.703873 -0.674154 0
M  V30 15 C -2.57439 0.23678 -0.579391 0
M  V30 16 O -4.18809 -0.962475 -1.88453 0
M  V30 17 C -3.76697 -0.23459 -3.02031 0
M  V30 18 O -5.01591 -2.38088 0.310534 0
M  V30 19 C -5.47191 -3.12849 1.40123 0
M  V30 20 C 0.992812 0.0485947 0.252609 0
M  V30 21 N 0.266187 -1.15987 -0.127548 0
M  V30 22 C 2.36394 0.0417171 0.144406 0
M  V30 23 S 2.78654 1.60609 0.67951 0
M  V30 24 C 3.22647 -1.03716 -0.34438 0
M  V30 25 O 2.64431 -2.08654 -0.745982 0
M  V30 26 C 4.67491 -0.93548 -0.381735 0
M  V30 27 C 5.43663 -0.155732 0.43283 0
M  V30 28 C 6.82879 -0.105179 0.299366 0
M  V30 29 C 7.48212 -0.842522 -0.660143 0
M  V30 30 C 6.67482 -1.62317 -1.46795 0
M  V30 31 C 5.31965 -1.69543 -1.36586 0
M  V30 32 Cl 9.21447 -0.814571 -0.867533 0
M  V30 33 H -0.449289 5.31673 3.02194 0
M  V30 34 H -1.71917 5.45015 1.69958 0
M  V30 35 H -1.98922 -0.124346 2.73012 0
M  V30 36 H -3.73671 -1.75651 2.50282 0
M  V30 37 H -2.23107 0.808343 -1.42832 0
M  V30 38 H -4.43508 -0.479383 -3.87039 0
M  V30 39 H -3.80793 0.866743 -2.84115 0
M  V30 40 H -2.70934 -0.491783 -3.20818 0
M  V30 41 H -5.61309 -2.52448 2.30679 0
M  V30 42 H -4.7346 -3.94178 1.63157 0
M  V30 43 H -6.44634 -3.60133 1.15289 0
M  V30 44 H 0.0774855 -1.28886 -1.13983 0
M  V30 45 H -0.0462919 -1.86222 0.543288 0
M  V30 46 H 4.97791 0.442966 1.23478 0
M  V30 47 H 7.39694 0.521998 0.960135 0
M  V30 48 H 7.17317 -2.2127 -2.23037 0
M  V30 49 H 4.73761 -2.32586 -2.02753 0
M  V30 END ATOM
M  V30 BEGIN BOND
M  V30 1 3 1 2
M  V30 2 1 2 3
M  V30 3 2 3 4
M  V30 4 1 4 5
M  V30 5 1 4 6
M  V30 6 2 6 7
M  V30 7 1 7 8
M  V30 8 2 8 9
M  V30 9 1 9 10
M  V30 10 2 10 11
M  V30 11 1 11 12
M  V30 12 2 12 13
M  V30 13 1 13 14
M  V30 14 2 14 15
M  V30 15 1 14 16
M  V30 16 1 16 17
M  V30 17 1 13 18
M  V30 18 1 18 19
M  V30 19 1 8 20
M  V30 20 1 20 21
M  V30 21 2 20 22
M  V30 22 1 22 23
M  V30 23 1 22 24
M  V30 24 2 24 25
M  V30 25 1 24 26
M  V30 26 2 26 27
M  V30 27 1 27 28
M  V30 28 2 28 29
M  V30 29 1 29 30
M  V30 30 2 30 31
M  V30 31 1 29 32
M  V30 32 1 9 3
M  V30 33 1 15 10
M  V30 34 1 31 26
M  V30 35 1 23 7
M  V30 36 1 5 33
M  V30 37 1 5 34
M  V30 38 1 11 35
M  V30 39 1 12 36
M  V30 40 1 15 37
M  V30 41 1 17 38
M  V30 42 1 17 39
M  V30 43 1 17 40
M  V30 44 1 19 41
M  V30 45 1 19 42
M  V30 46 1 19 43
M  V30 47 1 21 44
M  V30 48 1 21 45
M  V30 49 1 27 46
M  V30 50 1 28 47
M  V30 51 1 30 48
M  V30 52 1 31 49
M  V30 END BOND
M  V30 END CTAB
M  END
