
     RDKit          3D

  0  0  0  0  0  0  0  0  0  0999 V3000
M  V30 BEGIN CTAB
M  V30 COUNTS 23 23 0 0 0
M  V30 BEGIN ATOM
M  V30 1 C -1.77774 -1.68457 0.621379 0
M  V30 2 C -1.8268 -0.219922 0.331662 0
M  V30 3 C -0.717275 0.234247 -0.587512 0
M  V30 4 C 0.621509 -0.0327657 -0.0148382 0
M  V30 5 O 1.15346 0.363132 1.10367 0
M  V30 6 N 2.37224 -0.0997593 1.23487 0
M  V30 7 C 2.65835 -0.838787 0.14687 0
M  V30 8 N 1.55581 -0.787373 -0.623776 0
M  V30 9 N 3.84907 -1.52541 -0.140933 0
M  V30 10 C -0.916836 1.73567 -0.822243 0
M  V30 11 N -0.858229 2.46047 0.409068 0
M  V30 12 H -2.79586 -2.01633 0.951838 0
M  V30 13 H -1.04878 -1.89414 1.44581 0
M  V30 14 H -1.48833 -2.29859 -0.265688 0
M  V30 15 H -2.79261 0.0215494 -0.136486 0
M  V30 16 H -1.73535 0.315604 1.30671 0
M  V30 17 H -0.859739 -0.256837 -1.57032 0
M  V30 18 H 3.93797 -2.1057 -0.990198 0
M  V30 19 H 4.67191 -1.46568 0.496048 0
M  V30 20 H -1.88738 1.92414 -1.32321 0
M  V30 21 H -0.128173 2.06879 -1.55425 0
M  V30 22 H -0.1913 3.25463 0.397722 0
M  V30 23 H -1.79592 2.84763 0.682544 0
M  V30 END ATOM
M  V30 BEGIN BOND
M  V30 1 1 1 2
M  V30 2 1 2 3
M  V30 3 1 3 4
M  V30 4 1 4 5
M  V30 5 1 5 6
M  V30 6 2 6 7
M  V30 7 1 7 8
M  V30 8 1 7 9
M  V30 9 1 3 10
M  V30 10 1 10 11
M  V30 11 2 8 4
M  V30 12 1 1 12
M  V30 13 1 1 13
M  V30 14 1 1 14
M  V30 15 1 2 15
M  V30 16 1 2 16
M  V30 17 1 3 17
M  V30 18 1 9 18
M  V30 19 1 9 19
M  V30 20 1 10 20
M  V30 21 1 10 21
M  V30 22 1 11 22
M  V30 23 1 11 23
M  V30 END BOND
M  V30 END CTAB
M  END
