
     RDKit          3D

  0  0  0  0  0  0  0  0  0  0999 V3000
M  V30 BEGIN CTAB
M  V30 COUNTS 40 39 0 0 0
M  V30 BEGIN ATOM
M  V30 1 C -5.14383 1.22909 0.683567 0
M  V30 2 C -4.7027 1.29069 -0.765026 0
M  V30 3 C -3.82302 0.131139 -1.09771 0
M  V30 4 C -2.56135 0.160194 -0.218141 0
M  V30 5 N -1.72999 -0.929585 -0.46811 0
M  V30 6 N -2.04106 -1.85843 -1.40516 0
M  V30 7 C -0.594423 -1.13066 0.273151 0
M  V30 8 C 0.578036 -0.152155 0.0709301 0
M  V30 9 N 1.58426 -0.591199 0.945131 0
M  V30 10 N 1.39563 -1.76412 1.59664 0
M  V30 11 C 2.84308 0.00803695 0.985834 0
M  V30 12 C 3.57553 -0.314286 -0.296216 0
M  V30 13 C 4.95702 0.238342 -0.383861 0
M  V30 14 C 5.0309 1.73184 -0.300509 0
M  V30 15 H -5.97537 1.98918 0.792687 0
M  V30 16 H -5.61268 0.256392 0.956588 0
M  V30 17 H -4.34471 1.53261 1.34729 0
M  V30 18 H -4.11792 2.21262 -0.891143 0
M  V30 19 H -5.57501 1.35427 -1.4488 0
M  V30 20 H -3.498 0.245562 -2.14499 0
M  V30 21 H -4.3759 -0.836946 -0.9419 0
M  V30 22 H -1.98253 1.08876 -0.529331 0
M  V30 23 H -2.85826 0.263381 0.829382 0
M  V30 24 H -1.88489 -2.83958 -1.05742 0
M  V30 25 H -1.45433 -1.7121 -2.25881 0
M  V30 26 H -0.733757 -1.11017 1.39788 0
M  V30 27 H -0.108183 -2.14872 0.120146 0
M  V30 28 H 0.863574 -0.165435 -1.0194 0
M  V30 29 H 0.22529 0.866687 0.264036 0
M  V30 30 H 1.7341 -2.62194 1.13798 0
M  V30 31 H 1.36532 -1.75152 2.62547 0
M  V30 32 H 2.78746 1.10296 1.1179 0
M  V30 33 H 3.43856 -0.436754 1.83788 0
M  V30 34 H 2.93202 -0.00676824 -1.15708 0
M  V30 35 H 3.61893 -1.42889 -0.377757 0
M  V30 36 H 5.34217 -0.0462274 -1.41118 0
M  V30 37 H 5.59973 -0.257368 0.383094 0
M  V30 38 H 4.95602 2.17031 -1.32324 0
M  V30 39 H 4.26869 2.21911 0.298282 0
M  V30 40 H 6.02158 2.01167 0.156461 0
M  V30 END ATOM
M  V30 BEGIN BOND
M  V30 1 1 1 2
M  V30 2 1 2 3
M  V30 3 1 3 4
M  V30 4 1 4 5
M  V30 5 1 5 6
M  V30 6 1 5 7
M  V30 7 1 7 8
M  V30 8 1 8 9
M  V30 9 1 9 10
M  V30 10 1 9 11
M  V30 11 1 11 12
M  V30 12 1 12 13
M  V30 13 1 13 14
M  V30 14 1 1 15
M  V30 15 1 1 16
M  V30 16 1 1 17
M  V30 17 1 2 18
M  V30 18 1 2 19
M  V30 19 1 3 20
M  V30 20 1 3 21
M  V30 21 1 4 22
M  V30 22 1 4 23
M  V30 23 1 6 24
M  V30 24 1 6 25
M  V30 25 1 7 26
M  V30 26 1 7 27
M  V30 27 1 8 28
M  V30 28 1 8 29
M  V30 29 1 10 30
M  V30 30 1 10 31
M  V30 31 1 11 32
M  V30 32 1 11 33
M  V30 33 1 12 34
M  V30 34 1 12 35
M  V30 35 1 13 36
M  V30 36 1 13 37
M  V30 37 1 14 38
M  V30 38 1 14 39
M  V30 39 1 14 40
M  V30 END BOND
M  V30 END CTAB
M  END
