
     RDKit          3D

  0  0  0  0  0  0  0  0  0  0999 V3000
M  V30 BEGIN CTAB
M  V30 COUNTS 35 37 0 0 0
M  V30 BEGIN ATOM
M  V30 1 C 4.10791 -1.38717 1.11154 0
M  V30 2 C 2.90648 -0.576648 0.723974 0
M  V30 3 C 3.08264 0.730809 0.556025 0
M  V30 4 N 4.36374 1.32382 0.739631 0
M  V30 5 C 1.91366 1.5212 0.17867 0
M  V30 6 O 2.07753 2.77213 0.0169643 0
M  V30 7 C 0.608675 0.900389 -0.00569689 0
M  V30 8 C 0.4625 -0.457844 0.17674 0
M  V30 9 N -0.818782 -0.799713 -0.0464481 0
M  V30 10 C -1.74512 -1.94298 -0.0665947 0
M  V30 11 C -3.08036 -1.28208 0.165168 0 CFG=2
M  V30 12 N -4.18499 -2.08342 -0.313359 0
M  V30 13 C -2.92552 -0.0012063 -0.627851 0 CFG=2
M  V30 14 O -3.1162 -0.233206 -1.98633 0
M  V30 15 C -1.4834 0.316562 -0.366081 0
M  V30 16 C -0.633537 1.38979 -0.351436 0
M  V30 17 C -0.947962 2.83082 -0.646487 0
M  V30 18 O -2.28966 2.98557 -0.960999 0
M  V30 19 C 1.63746 -1.26258 0.557646 0
M  V30 20 O 1.51449 -2.50822 0.727361 0
M  V30 21 H 4.57707 -0.959962 2.01707 0
M  V30 22 H 3.84846 -2.45102 1.21581 0
M  V30 23 H 4.85407 -1.31783 0.292117 0
M  V30 24 H 4.58703 2.20981 0.248816 0
M  V30 25 H 5.08717 0.901603 1.34907 0
M  V30 26 H -1.65682 -2.45178 -1.02529 0
M  V30 27 H -1.55237 -2.60811 0.805617 0
M  V30 28 H -3.18495 -1.02094 1.22055 0
M  V30 29 H -3.90113 -3.04672 -0.591823 0
M  V30 30 H -4.92475 -2.07343 0.427649 0
M  V30 31 H -3.58526 0.804027 -0.246429 0
M  V30 32 H -2.22697 -0.418903 -2.38 0
M  V30 33 H -0.775425 3.4347 0.292213 0
M  V30 34 H -0.262453 3.24479 -1.39507 0
M  V30 35 H -2.33321 3.51775 -1.81274 0
M  V30 END ATOM
M  V30 BEGIN BOND
M  V30 1 1 1 2
M  V30 2 2 2 3
M  V30 3 1 3 4
M  V30 4 1 3 5
M  V30 5 2 5 6
M  V30 6 1 5 7
M  V30 7 2 7 8
M  V30 8 1 8 9
M  V30 9 1 9 10
M  V30 10 1 10 11
M  V30 11 1 11 12
M  V30 12 1 11 13
M  V30 13 1 13 14
M  V30 14 1 13 15
M  V30 15 2 15 16
M  V30 16 1 16 17
M  V30 17 1 17 18
M  V30 18 1 8 19
M  V30 19 2 19 20
M  V30 20 1 19 2
M  V30 21 1 16 7
M  V30 22 1 15 9
M  V30 23 1 1 21
M  V30 24 1 1 22
M  V30 25 1 1 23
M  V30 26 1 4 24
M  V30 27 1 4 25
M  V30 28 1 10 26
M  V30 29 1 10 27
M  V30 30 1 11 28 CFG=1
M  V30 31 1 12 29
M  V30 32 1 12 30
M  V30 33 1 13 31 CFG=1
M  V30 34 1 14 32
M  V30 35 1 17 33
M  V30 36 1 17 34
M  V30 37 1 18 35
M  V30 END BOND
M  V30 END CTAB
M  END
