
     RDKit          3D

  0  0  0  0  0  0  0  0  0  0999 V3000
M  V30 BEGIN CTAB
M  V30 COUNTS 74 79 0 0 0
M  V30 BEGIN ATOM
M  V30 1 N -2.07776 -1.35578 2.58391 0
M  V30 2 C -2.50215 -0.846943 1.31016 0
M  V30 3 N -1.79472 0.141741 0.717649 0
M  V30 4 C -2.21194 0.60358 -0.478363 0
M  V30 5 C -1.43967 1.68196 -1.1299 0
M  V30 6 N -0.0275741 1.47494 -1.10252 0
M  V30 7 C 0.429993 0.305769 -1.74775 0
M  V30 8 C 1.91382 0.192262 -1.63016 0
M  V30 9 N 2.73716 0.913857 -2.41293 0
M  V30 10 C 4.06476 0.766215 -2.26185 0
M  V30 11 N 4.97185 1.52298 -3.08083 0
M  V30 12 N 4.55847 -0.0795667 -1.35352 0
M  V30 13 C 3.77961 -0.805397 -0.566005 0
M  V30 14 N 2.43155 -0.636688 -0.739784 0
M  V30 15 N 4.22652 -1.71445 0.407817 0
M  V30 16 C 5.5356 -2.04626 0.755705 0
M  V30 17 C 6.67219 -1.50577 0.206006 0
M  V30 18 C 7.95139 -1.90115 0.623177 0
M  V30 19 C 8.08147 -2.84699 1.6008 0
M  V30 20 C 6.95706 -3.39452 2.15803 0
M  V30 21 C 5.71894 -3.01097 1.75304 0
M  V30 22 C 4.53264 -3.63521 2.38401 0
M  V30 23 C 0.681224 1.96791 0.0102215 0
M  V30 24 C 0.570287 3.44873 0.172415 0
M  V30 25 C 0.457283 4.26193 -0.920299 0
M  V30 26 C 0.351347 5.61931 -0.747254 0
M  V30 27 C 0.362092 6.12784 0.530265 0
M  V30 28 C 0.475596 5.32035 1.65184 0
M  V30 29 C 0.579568 3.96531 1.43505 0
M  V30 30 O 0.454066 6.12774 2.75551 0
M  V30 31 C -0.0804221 7.38126 2.33734 0
M  V30 32 O 0.267968 7.47047 0.952314 0
M  V30 33 N -3.29872 0.0659122 -1.01955 0
M  V30 34 C -4.04161 -0.938934 -0.446999 0
M  V30 35 N -3.58124 -1.35611 0.735679 0
M  V30 36 N -5.18968 -1.43848 -1.11934 0
M  V30 37 C -6.07634 -2.4259 -0.758377 0
M  V30 38 C -6.00566 -3.15171 0.389163 0
M  V30 39 C -6.92707 -4.14603 0.713766 0
M  V30 40 C -7.9578 -4.42309 -0.144717 0
M  V30 41 C -8.05106 -3.70496 -1.30835 0
M  V30 42 C -7.13197 -2.72809 -1.60978 0
M  V30 43 C -7.28895 -1.98983 -2.88005 0
M  V30 44 H -1.87461 -0.706818 3.3691 0
M  V30 45 H -1.97588 -2.37017 2.71396 0
M  V30 46 H -1.72761 2.62513 -0.64328 0
M  V30 47 H -1.73457 1.79357 -2.20713 0
M  V30 48 H 0.118081 0.230882 -2.81661 0
M  V30 49 H -0.00360623 -0.579404 -1.24171 0
M  V30 50 H 4.84937 1.61789 -4.11654 0
M  V30 51 H 5.80484 2.01846 -2.67542 0
M  V30 52 H 3.45729 -2.22641 0.965974 0
M  V30 53 H 6.60618 -0.765622 -0.556636 0
M  V30 54 H 8.81334 -1.42549 0.138162 0
M  V30 55 H 9.08784 -3.1246 1.89313 0
M  V30 56 H 7.05898 -4.15594 2.94356 0
M  V30 57 H 3.93235 -2.80876 2.85755 0
M  V30 58 H 4.86336 -4.3657 3.13422 0
M  V30 59 H 3.85819 -4.10227 1.6344 0
M  V30 60 H 0.439327 1.45159 0.985439 0
M  V30 61 H 1.76531 1.78628 -0.142188 0
M  V30 62 H 0.449783 3.8366 -1.94913 0
M  V30 63 H 0.260656 6.27528 -1.62088 0
M  V30 64 H 0.668959 3.33304 2.33474 0
M  V30 65 H -1.16983 7.38401 2.45264 0
M  V30 66 H 0.441832 8.16999 2.90874 0
M  V30 67 H -5.36028 -0.934246 -2.06413 0
M  V30 68 H -5.23949 -3.01668 1.12821 0
M  V30 69 H -6.85765 -4.70848 1.62067 0
M  V30 70 H -8.69776 -5.20617 0.0906757 0
M  V30 71 H -8.87513 -3.92929 -1.98944 0
M  V30 72 H -7.40505 -0.883411 -2.70113 0
M  V30 73 H -6.43644 -2.19024 -3.59218 0
M  V30 74 H -8.19589 -2.30028 -3.42288 0
M  V30 END ATOM
M  V30 BEGIN BOND
M  V30 1 1 1 2
M  V30 2 2 2 3
M  V30 3 1 3 4
M  V30 4 1 4 5
M  V30 5 1 5 6
M  V30 6 1 6 7
M  V30 7 1 7 8
M  V30 8 2 8 9
M  V30 9 1 9 10
M  V30 10 1 10 11
M  V30 11 2 10 12
M  V30 12 1 12 13
M  V30 13 2 13 14
M  V30 14 1 13 15
M  V30 15 1 15 16
M  V30 16 2 16 17
M  V30 17 1 17 18
M  V30 18 2 18 19
M  V30 19 1 19 20
M  V30 20 2 20 21
M  V30 21 1 21 22
M  V30 22 1 6 23
M  V30 23 1 23 24
M  V30 24 2 24 25
M  V30 25 1 25 26
M  V30 26 2 26 27
M  V30 27 1 27 28
M  V30 28 2 28 29
M  V30 29 1 28 30
M  V30 30 1 30 31
M  V30 31 1 31 32
M  V30 32 2 4 33
M  V30 33 1 33 34
M  V30 34 2 34 35
M  V30 35 1 34 36
M  V30 36 1 36 37
M  V30 37 2 37 38
M  V30 38 1 38 39
M  V30 39 2 39 40
M  V30 40 1 40 41
M  V30 41 2 41 42
M  V30 42 1 42 43
M  V30 43 1 35 2
M  V30 44 1 42 37
M  V30 45 1 14 8
M  V30 46 1 21 16
M  V30 47 1 29 24
M  V30 48 1 32 27
M  V30 49 1 1 44
M  V30 50 1 1 45
M  V30 51 1 5 46
M  V30 52 1 5 47
M  V30 53 1 7 48
M  V30 54 1 7 49
M  V30 55 1 11 50
M  V30 56 1 11 51
M  V30 57 1 15 52
M  V30 58 1 17 53
M  V30 59 1 18 54
M  V30 60 1 19 55
M  V30 61 1 20 56
M  V30 62 1 22 57
M  V30 63 1 22 58
M  V30 64 1 22 59
M  V30 65 1 23 60
M  V30 66 1 23 61
M  V30 67 1 25 62
M  V30 68 1 26 63
M  V30 69 1 29 64
M  V30 70 1 31 65
M  V30 71 1 31 66
M  V30 72 1 36 67
M  V30 73 1 38 68
M  V30 74 1 39 69
M  V30 75 1 40 70
M  V30 76 1 41 71
M  V30 77 1 43 72
M  V30 78 1 43 73
M  V30 79 1 43 74
M  V30 END BOND
M  V30 END CTAB
M  END
