
     RDKit          3D

  0  0  0  0  0  0  0  0  0  0999 V3000
M  V30 BEGIN CTAB
M  V30 COUNTS 23 23 0 0 0
M  V30 BEGIN ATOM
M  V30 1 N -3.17433 1.54264 -0.388891 0
M  V30 2 C -3.26499 0.210406 0.0754259 0
M  V30 3 N -2.19229 -0.503567 0.0912242 0
M  V30 4 C -0.94622 0.00176756 -0.336728 0
M  V30 5 O -0.933414 0.893937 -1.24871 0
M  V30 6 C 0.309093 -0.443288 0.208458 0
M  V30 7 C 0.318698 -1.40614 1.19435 0
M  V30 8 N 1.50251 -1.83742 1.72031 0
M  V30 9 C 2.67345 -1.31906 1.27369 0
M  V30 10 C 2.72345 -0.354246 0.290056 0
M  V30 11 C 1.51455 0.0647262 -0.225112 0
M  V30 12 C 3.98849 0.211482 -0.198329 0
M  V30 13 O 5.09727 -0.14836 0.249137 0
M  V30 14 O 3.93837 1.17549 -1.18825 0
M  V30 15 N -4.50624 -0.315466 0.509246 0
M  V30 16 H -3.58142 1.78592 -1.32817 0
M  V30 17 H -2.70497 2.2724 0.203332 0
M  V30 18 H -0.631732 -1.79601 1.52528 0
M  V30 19 H 3.60617 -1.66205 1.69136 0
M  V30 20 H 1.51652 0.823104 -1.00095 0
M  V30 21 H 4.68509 1.83209 -1.35262 0
M  V30 22 H -4.74052 -1.30811 0.323666 0
M  V30 23 H -5.19756 0.279757 1.01673 0
M  V30 END ATOM
M  V30 BEGIN BOND
M  V30 1 1 1 2
M  V30 2 2 2 3 CFG=2
M  V30 3 1 3 4
M  V30 4 2 4 5
M  V30 5 1 4 6
M  V30 6 2 6 7
M  V30 7 1 7 8
M  V30 8 2 8 9
M  V30 9 1 9 10
M  V30 10 2 10 11
M  V30 11 1 10 12
M  V30 12 2 12 13
M  V30 13 1 12 14
M  V30 14 1 2 15
M  V30 15 1 11 6
M  V30 16 1 1 16
M  V30 17 1 1 17
M  V30 18 1 7 18
M  V30 19 1 9 19
M  V30 20 1 11 20
M  V30 21 1 14 21
M  V30 22 1 15 22
M  V30 23 1 15 23
M  V30 END BOND
M  V30 END CTAB
M  END
