
     RDKit          3D

  0  0  0  0  0  0  0  0  0  0999 V3000
M  V30 BEGIN CTAB
M  V30 COUNTS 28 29 0 0 0
M  V30 BEGIN ATOM
M  V30 1 N 4.82076 -0.544683 1.3848 0
M  V30 2 C 3.77358 -0.674934 0.433725 0
M  V30 3 S 3.78009 -1.18406 -1.19685 0
M  V30 4 C 2.10519 -1.02219 -1.53 0
M  V30 5 C 1.63515 -0.571587 -0.323165 0
M  V30 6 N 2.49159 -0.409479 0.633039 0
M  V30 7 C 0.188615 -0.288035 -0.149457 0
M  V30 8 C -0.329389 0.959285 -0.412292 0
M  V30 9 N 0.51478 2.02544 -0.863023 0
M  V30 10 N -1.65153 1.21023 -0.251216 0
M  V30 11 C -2.22179 2.51965 -0.522495 0
M  V30 12 C -2.4651 0.231537 0.169341 0
M  V30 13 O -3.706 0.487388 0.314757 0
M  V30 14 N -2.01032 -1.00191 0.439348 0
M  V30 15 C -0.679862 -1.26409 0.279997 0
M  V30 16 O -0.274188 -2.40401 0.532097 0
M  V30 17 C -2.88109 -2.06261 0.893187 0
M  V30 18 H 4.60965 -0.665925 2.38708 0
M  V30 19 H 5.78265 -0.331124 1.07781 0
M  V30 20 H 1.52642 -1.21704 -2.44993 0
M  V30 21 H 0.720853 2.79968 -0.203798 0
M  V30 22 H 0.898935 1.99336 -1.84232 0
M  V30 23 H -1.46155 3.27174 -0.746472 0
M  V30 24 H -2.97767 2.38272 -1.32371 0
M  V30 25 H -2.81758 2.81916 0.386391 0
M  V30 26 H -2.36142 -2.79448 1.54591 0
M  V30 27 H -3.78153 -1.67356 1.37919 0
M  V30 28 H -3.22925 -2.59047 -0.0419421 0
M  V30 END ATOM
M  V30 BEGIN BOND
M  V30 1 1 1 2
M  V30 2 1 2 3
M  V30 3 1 3 4
M  V30 4 2 4 5
M  V30 5 1 5 6
M  V30 6 1 5 7
M  V30 7 2 7 8
M  V30 8 1 8 9
M  V30 9 1 8 10
M  V30 10 1 10 11
M  V30 11 1 10 12
M  V30 12 2 12 13
M  V30 13 1 12 14
M  V30 14 1 14 15
M  V30 15 2 15 16
M  V30 16 1 14 17
M  V30 17 2 6 2
M  V30 18 1 15 7
M  V30 19 1 1 18
M  V30 20 1 1 19
M  V30 21 1 4 20
M  V30 22 1 9 21
M  V30 23 1 9 22
M  V30 24 1 11 23
M  V30 25 1 11 24
M  V30 26 1 11 25
M  V30 27 1 17 26
M  V30 28 1 17 27
M  V30 29 1 17 28
M  V30 END BOND
M  V30 END CTAB
M  END
