
     RDKit          3D

  0  0  0  0  0  0  0  0  0  0999 V3000
M  V30 BEGIN CTAB
M  V30 COUNTS 35 37 0 0 0
M  V30 BEGIN ATOM
M  V30 1 N -3.56156 0.966444 1.65552 0
M  V30 2 C -4.17238 0.719713 0.405509 0 CFG=2
M  V30 3 C -5.20411 -0.38777 0.510096 0
M  V30 4 C -4.08092 -1.3749 0.248032 0
M  V30 5 C -3.31432 -0.242357 -0.41459 0 CFG=2
M  V30 6 N -1.94408 -0.202088 -0.0102403 0
M  V30 7 C -0.926641 -0.0710256 -0.984295 0
M  V30 8 O -1.26642 0.00723181 -2.19569 0
M  V30 9 C 0.48059 -0.0234249 -0.648088 0
M  V30 10 C 1.41475 0.106895 -1.64449 0
M  V30 11 C 2.75126 0.160862 -1.43377 0
M  V30 12 C 3.66563 0.305392 -2.61823 0
M  V30 13 C 3.2698 0.0825498 -0.126165 0
M  V30 14 C 2.35352 -0.0479009 0.883585 0
M  V30 15 C 0.975775 -0.101025 0.635406 0
M  V30 16 S 3.36833 -0.105197 2.25736 0
M  V30 17 C 4.89834 0.0404967 1.46222 0
M  V30 18 N 4.52528 0.122531 0.204136 0
M  V30 19 N 6.21184 0.0637095 2.03757 0
M  V30 20 H -4.14022 1.20713 2.41857 0
M  V30 21 H -2.70033 1.47607 1.54834 0
M  V30 22 H -4.49616 1.61673 -0.152389 0
M  V30 23 H -5.65024 -0.480389 1.52451 0
M  V30 24 H -5.89119 -0.366171 -0.336339 0
M  V30 25 H -4.32825 -2.1768 -0.460497 0
M  V30 26 H -3.57255 -1.67351 1.17371 0
M  V30 27 H -3.44881 -0.163863 -1.49503 0
M  V30 28 H -1.63756 -0.265839 0.996942 0
M  V30 29 H 1.0527 0.171663 -2.68211 0
M  V30 30 H 3.31681 -0.343706 -3.43524 0
M  V30 31 H 3.67241 1.35412 -2.9709 0
M  V30 32 H 4.66382 -0.0429663 -2.31211 0
M  V30 33 H 0.333312 -0.202744 1.47025 0
M  V30 34 H 6.6783 0.931292 2.34705 0
M  V30 35 H 6.70328 -0.838667 2.14137 0
M  V30 END ATOM
M  V30 BEGIN BOND
M  V30 1 1 1 2
M  V30 2 1 2 3
M  V30 3 1 3 4
M  V30 4 1 4 5
M  V30 5 1 5 6
M  V30 6 1 6 7
M  V30 7 2 7 8
M  V30 8 1 7 9
M  V30 9 2 9 10
M  V30 10 1 10 11
M  V30 11 1 11 12
M  V30 12 2 11 13
M  V30 13 1 13 14
M  V30 14 2 14 15
M  V30 15 1 14 16
M  V30 16 1 16 17
M  V30 17 2 17 18
M  V30 18 1 17 19
M  V30 19 1 5 2
M  V30 20 1 15 9
M  V30 21 1 18 13
M  V30 22 1 1 20
M  V30 23 1 1 21
M  V30 24 1 2 22 CFG=3
M  V30 25 1 3 23
M  V30 26 1 3 24
M  V30 27 1 4 25
M  V30 28 1 4 26
M  V30 29 1 5 27 CFG=3
M  V30 30 1 6 28
M  V30 31 1 10 29
M  V30 32 1 12 30
M  V30 33 1 12 31
M  V30 34 1 12 32
M  V30 35 1 15 33
M  V30 36 1 19 34
M  V30 37 1 19 35
M  V30 END BOND
M  V30 END CTAB
M  END
