
     RDKit          3D

  0  0  0  0  0  0  0  0  0  0999 V3000
M  V30 BEGIN CTAB
M  V30 COUNTS 26 26 0 0 0
M  V30 BEGIN ATOM
M  V30 1 C 2.99432 0.818002 0.725954 0
M  V30 2 C 1.8558 0.991253 -0.24921 0
M  V30 3 C 1.80874 -0.230884 -1.14711 0
M  V30 4 C 0.351279 -0.665705 -0.950313 0
M  V30 5 C 0.129863 -0.160146 0.434068 0
M  V30 6 O 0.624434 1.12186 0.367887 0
M  V30 7 C -1.25804 -0.33515 0.878233 0
M  V30 8 C -2.32806 0.495909 0.315216 0
M  V30 9 N -2.58019 0.442502 -1.07959 0
M  V30 10 N -1.64981 -1.74837 0.868406 0
M  V30 11 H 2.76901 1.2963 1.7199 0
M  V30 12 H 3.2292 -0.243972 0.936093 0
M  V30 13 H 3.95089 1.26853 0.341324 0
M  V30 14 H 2.10317 1.88307 -0.882949 0
M  V30 15 H 2.02944 -0.0108649 -2.19361 0
M  V30 16 H 2.50126 -1.02991 -0.81167 0
M  V30 17 H -0.23373 -0.127583 -1.69055 0
M  V30 18 H 0.250998 -1.75575 -0.961004 0
M  V30 19 H 0.858859 -0.71229 1.12817 0
M  V30 20 H -1.24646 -0.0992793 2.00299 0
M  V30 21 H -3.29249 0.176886 0.82196 0
M  V30 22 H -2.24614 1.57841 0.645915 0
M  V30 23 H -3.30773 -0.295346 -1.30446 0
M  V30 24 H -3.03149 1.35061 -1.37273 0
M  V30 25 H -2.43123 -1.92198 1.53763 0
M  V30 26 H -1.85187 -2.08611 -0.0805494 0
M  V30 END ATOM
M  V30 BEGIN BOND
M  V30 1 1 1 2
M  V30 2 1 2 3
M  V30 3 1 3 4
M  V30 4 1 4 5
M  V30 5 1 5 6
M  V30 6 1 5 7
M  V30 7 1 7 8
M  V30 8 1 8 9
M  V30 9 1 7 10
M  V30 10 1 6 2
M  V30 11 1 1 11
M  V30 12 1 1 12
M  V30 13 1 1 13
M  V30 14 1 2 14
M  V30 15 1 3 15
M  V30 16 1 3 16
M  V30 17 1 4 17
M  V30 18 1 4 18
M  V30 19 1 5 19
M  V30 20 1 7 20
M  V30 21 1 8 21
M  V30 22 1 8 22
M  V30 23 1 9 23
M  V30 24 1 9 24
M  V30 25 1 10 25
M  V30 26 1 10 26
M  V30 END BOND
M  V30 END CTAB
M  END
