
     RDKit          3D

  0  0  0  0  0  0  0  0  0  0999 V3000
M  V30 BEGIN CTAB
M  V30 COUNTS 18 17 0 0 0
M  V30 BEGIN ATOM
M  V30 1 N -1.82419 1.07548 0.896521 0
M  V30 2 C -1.8775 -0.130403 0.165409 0
M  V30 3 C -0.763159 -1.07549 0.200087 0
M  V30 4 C 0.57557 -0.741531 -0.277922 0
M  V30 5 S 1.43703 0.587159 0.495561 0
M  V30 6 N 3.01469 0.668712 -0.282482 0
M  V30 7 O 1.63182 0.372919 1.95416 0
M  V30 8 O 0.829311 1.93677 0.232719 0
M  V30 9 H -2.12654 0.904847 1.87888 0
M  V30 10 H -2.22315 1.91147 0.45565 0
M  V30 11 H -2.18396 0.125706 -0.878515 0
M  V30 12 H -2.79571 -0.682297 0.550708 0
M  V30 13 H -1.10905 -1.99512 -0.386709 0
M  V30 14 H -0.641505 -1.53141 1.23356 0
M  V30 15 H 1.23262 -1.64352 -0.0341308 0
M  V30 16 H 0.605082 -0.587894 -1.3837 0
M  V30 17 H 3.38435 -0.294794 -0.422159 0
M  V30 18 H 2.8343 1.0994 -1.22786 0
M  V30 END ATOM
M  V30 BEGIN BOND
M  V30 1 1 1 2
M  V30 2 1 2 3
M  V30 3 1 3 4
M  V30 4 1 4 5
M  V30 5 1 5 6
M  V30 6 2 5 7
M  V30 7 2 5 8
M  V30 8 1 1 9
M  V30 9 1 1 10
M  V30 10 1 2 11
M  V30 11 1 2 12
M  V30 12 1 3 13
M  V30 13 1 3 14
M  V30 14 1 4 15
M  V30 15 1 4 16
M  V30 16 1 6 17
M  V30 17 1 6 18
M  V30 END BOND
M  V30 END CTAB
M  END
