
     RDKit          3D

  0  0  0  0  0  0  0  0  0  0999 V3000
M  V30 BEGIN CTAB
M  V30 COUNTS 25 26 0 0 0
M  V30 BEGIN ATOM
M  V30 1 N 2.49186 -0.819431 -1.19269 0
M  V30 2 N 2.03458 0.0452453 -0.213184 0
M  V30 3 C 0.950365 -0.181233 0.591421 0
M  V30 4 C 0.137513 -1.40109 0.520772 0
M  V30 5 C -0.987138 -1.4034 -0.424577 0
M  V30 6 C -2.09247 -0.487639 -0.236194 0
M  V30 7 C -2.41457 0.328094 0.80993 0
M  V30 8 C -3.59047 0.9972 0.448238 0
M  V30 9 C -3.89253 0.527627 -0.803956 0
M  V30 10 O -3.00817 -0.320218 -1.15554 0
M  V30 11 N 0.899727 0.90402 1.35956 0
M  V30 12 N 1.86685 1.75743 1.07612 0
M  V30 13 C 2.59509 1.21582 0.0732081 0
M  V30 14 N 3.73813 1.79433 -0.548542 0
M  V30 15 H 2.69025 -1.81234 -0.92158 0
M  V30 16 H 2.61944 -0.446836 -2.15766 0
M  V30 17 H 0.799225 -2.27618 0.223444 0
M  V30 18 H -0.215704 -1.71672 1.54895 0
M  V30 19 H -0.617957 -1.34584 -1.48301 0
M  V30 20 H -1.44157 -2.44772 -0.372885 0
M  V30 21 H -1.94517 0.481068 1.75149 0
M  V30 22 H -4.13044 1.72803 1.04765 0
M  V30 23 H -4.76799 0.845456 -1.39861 0
M  V30 24 H 4.67698 1.76965 -0.124015 0
M  V30 25 H 3.60417 2.26469 -1.48256 0
M  V30 END ATOM
M  V30 BEGIN BOND
M  V30 1 1 1 2
M  V30 2 1 2 3
M  V30 3 1 3 4
M  V30 4 1 4 5
M  V30 5 1 5 6
M  V30 6 2 6 7
M  V30 7 1 7 8
M  V30 8 2 8 9
M  V30 9 1 9 10
M  V30 10 2 3 11
M  V30 11 1 11 12
M  V30 12 2 12 13
M  V30 13 1 13 14
M  V30 14 1 13 2
M  V30 15 1 10 6
M  V30 16 1 1 15
M  V30 17 1 1 16
M  V30 18 1 4 17
M  V30 19 1 4 18
M  V30 20 1 5 19
M  V30 21 1 5 20
M  V30 22 1 7 21
M  V30 23 1 8 22
M  V30 24 1 9 23
M  V30 25 1 14 24
M  V30 26 1 14 25
M  V30 END BOND
M  V30 END CTAB
M  END
