
     RDKit          3D

  0  0  0  0  0  0  0  0  0  0999 V3000
M  V30 BEGIN CTAB
M  V30 COUNTS 46 49 0 0 0
M  V30 BEGIN ATOM
M  V30 1 C -6.73065 -2.38092 0.627649 0
M  V30 2 C -6.07125 -1.17691 0.0656702 0
M  V30 3 C -6.02224 -1.02977 -1.30313 0
M  V30 4 C -5.42448 0.068644 -1.90602 0
M  V30 5 C -4.86543 1.03505 -1.06803 0
M  V30 6 C -4.89465 0.92208 0.292999 0
M  V30 7 C -5.50388 -0.192923 0.826617 0
M  V30 8 C -4.28885 1.91862 1.19021 0
M  V30 9 S -2.69634 1.37653 1.75548 0
M  V30 10 C -1.48094 1.32218 0.456293 0
M  V30 11 N -1.59761 1.63252 -0.832282 0
M  V30 12 N -0.454198 1.44412 -1.42466 0
M  V30 13 C 0.500769 0.988218 -0.534377 0
M  V30 14 N -0.172809 0.926584 0.613413 0
M  V30 15 N 0.29476 0.522327 1.85282 0
M  V30 16 C 1.8619 0.685305 -0.919974 0
M  V30 17 C 2.28736 0.776017 -2.26183 0
M  V30 18 N 3.59019 0.444571 -2.30895 0
M  V30 19 N 4.0222 0.150886 -1.09778 0
M  V30 20 C 2.95594 0.299748 -0.241695 0
M  V30 21 N 3.08934 0.0652259 1.14008 0
M  V30 22 C 5.31955 -0.245253 -0.711538 0
M  V30 23 C 6.42977 0.502073 -1.01783 0
M  V30 24 C 7.67673 0.0520913 -0.607127 0
M  V30 25 C 7.80727 -1.12874 0.0991762 0
M  V30 26 C 6.71301 -1.87377 0.40578 0
M  V30 27 C 5.47095 -1.41868 -0.00710069 0
M  V30 28 H -5.98286 -3.10853 1.04847 0
M  V30 29 H -7.41015 -2.11217 1.48601 0
M  V30 30 H -7.34514 -2.91457 -0.0944595 0
M  V30 31 H -6.46142 -1.7889 -1.96775 0
M  V30 32 H -5.39397 0.169828 -2.98296 0
M  V30 33 H -4.43239 1.8745 -1.58382 0
M  V30 34 H -5.54653 -0.315996 1.90654 0
M  V30 35 H -4.28294 2.94132 0.741014 0
M  V30 36 H -4.96426 1.94758 2.09948 0
M  V30 37 H 0.659516 1.21609 2.52899 0
M  V30 38 H 0.287002 -0.476589 2.13409 0
M  V30 39 H 1.72719 1.0523 -3.13682 0
M  V30 40 H 2.98242 -0.870524 1.60091 0
M  V30 41 H 3.31685 0.85449 1.81723 0
M  V30 42 H 6.30382 1.41636 -1.56779 0
M  V30 43 H 8.52278 0.667652 -0.867056 0
M  V30 44 H 8.80907 -1.44149 0.399912 0
M  V30 45 H 6.7907 -2.79485 0.953765 0
M  V30 46 H 4.60388 -2.0023 0.232309 0
M  V30 END ATOM
M  V30 BEGIN BOND
M  V30 1 1 1 2
M  V30 2 2 2 3
M  V30 3 1 3 4
M  V30 4 2 4 5
M  V30 5 1 5 6
M  V30 6 2 6 7
M  V30 7 1 6 8
M  V30 8 1 8 9
M  V30 9 1 9 10
M  V30 10 2 10 11
M  V30 11 1 11 12
M  V30 12 2 12 13
M  V30 13 1 13 14
M  V30 14 1 14 15
M  V30 15 1 13 16
M  V30 16 1 16 17
M  V30 17 2 17 18
M  V30 18 1 18 19
M  V30 19 1 19 20
M  V30 20 1 20 21
M  V30 21 1 19 22
M  V30 22 2 22 23
M  V30 23 1 23 24
M  V30 24 2 24 25
M  V30 25 1 25 26
M  V30 26 2 26 27
M  V30 27 1 7 2
M  V30 28 1 14 10
M  V30 29 2 20 16
M  V30 30 1 27 22
M  V30 31 1 1 28
M  V30 32 1 1 29
M  V30 33 1 1 30
M  V30 34 1 3 31
M  V30 35 1 4 32
M  V30 36 1 5 33
M  V30 37 1 7 34
M  V30 38 1 8 35
M  V30 39 1 8 36
M  V30 40 1 15 37
M  V30 41 1 15 38
M  V30 42 1 17 39
M  V30 43 1 21 40
M  V30 44 1 21 41
M  V30 45 1 23 42
M  V30 46 1 24 43
M  V30 47 1 25 44
M  V30 48 1 26 45
M  V30 49 1 27 46
M  V30 END BOND
M  V30 END CTAB
M  END
