
     RDKit          3D

  0  0  0  0  0  0  0  0  0  0999 V3000
M  V30 BEGIN CTAB
M  V30 COUNTS 35 37 0 0 0
M  V30 BEGIN ATOM
M  V30 1 N 6.395 -1.09561 -2.79501 0
M  V30 2 C 5.54174 -0.640911 -1.73727 0
M  V30 3 N 4.4129 0.046908 -1.97145 0
M  V30 4 C 3.61972 0.494381 -0.927036 0
M  V30 5 S 2.20924 1.51836 -1.27196 0
M  V30 6 C 1.30652 1.99895 0.155983 0
M  V30 7 C 0.381871 0.920933 0.6294 0
M  V30 8 O 0.550595 -0.112464 1.36886 0
M  V30 9 N -0.596907 -0.762932 1.49332 0
M  V30 10 C -1.55899 -0.137208 0.813895 0
M  V30 11 N -0.93902 0.922014 0.270495 0
M  V30 12 C -2.96749 -0.460173 0.660586 0
M  V30 13 C -3.57981 -1.59236 1.13202 0
M  V30 14 C -4.95846 -1.81372 1.00039 0
M  V30 15 C -5.7579 -0.87171 0.385877 0
M  V30 16 C -5.16378 0.274456 -0.0936027 0
M  V30 17 C -3.80782 0.474265 0.0391863 0
M  V30 18 C -5.96909 1.32489 -0.750052 0
M  V30 19 F -6.42554 0.802565 -1.96737 0
M  V30 20 F -5.20701 2.48222 -0.962133 0
M  V30 21 F -7.06771 1.63198 0.0319599 0
M  V30 22 N 4.01216 0.218969 0.329784 0
M  V30 23 C 5.15559 -0.473835 0.59846 0
M  V30 24 N 5.88057 -0.881761 -0.465557 0
M  V30 25 N 5.59253 -0.749151 1.91101 0
M  V30 26 H 6.16602 -0.698823 -3.74635 0
M  V30 27 H 7.174 -1.74291 -2.72146 0
M  V30 28 H 1.92812 2.33779 1.02442 0
M  V30 29 H 0.638626 2.88929 -0.0853844 0
M  V30 30 H -2.95607 -2.33682 1.64997 0
M  V30 31 H -5.44266 -2.68902 1.36938 0
M  V30 32 H -6.82601 -1.04334 0.278957 0
M  V30 33 H -3.31522 1.37522 -0.330533 0
M  V30 34 H 5.53415 -1.6633 2.4058 0
M  V30 35 H 6.04013 0.0528545 2.45478 0
M  V30 END ATOM
M  V30 BEGIN BOND
M  V30 1 1 1 2
M  V30 2 2 2 3
M  V30 3 1 3 4
M  V30 4 1 4 5
M  V30 5 1 5 6
M  V30 6 1 6 7
M  V30 7 1 7 8
M  V30 8 1 8 9
M  V30 9 2 9 10
M  V30 10 1 10 11
M  V30 11 1 10 12
M  V30 12 2 12 13
M  V30 13 1 13 14
M  V30 14 2 14 15
M  V30 15 1 15 16
M  V30 16 2 16 17
M  V30 17 1 16 18
M  V30 18 1 18 19
M  V30 19 1 18 20
M  V30 20 1 18 21
M  V30 21 2 4 22
M  V30 22 1 22 23
M  V30 23 2 23 24
M  V30 24 1 23 25
M  V30 25 1 24 2
M  V30 26 2 11 7
M  V30 27 1 17 12
M  V30 28 1 1 26
M  V30 29 1 1 27
M  V30 30 1 6 28
M  V30 31 1 6 29
M  V30 32 1 13 30
M  V30 33 1 14 31
M  V30 34 1 15 32
M  V30 35 1 17 33
M  V30 36 1 25 34
M  V30 37 1 25 35
M  V30 END BOND
M  V30 END CTAB
M  END
