
     RDKit          3D

  0  0  0  0  0  0  0  0  0  0999 V3000
M  V30 BEGIN CTAB
M  V30 COUNTS 17 18 0 0 0
M  V30 BEGIN ATOM
M  V30 1 N 3.28272 1.01547 0.371351 0
M  V30 2 C 2.19648 0.593704 0.253162 0
M  V30 3 C 0.862059 0.0931792 0.0970845 0
M  V30 4 C 0.672932 -1.28316 0.118584 0
M  V30 5 N 1.73589 -2.21039 0.287216 0
M  V30 6 N -0.582688 -1.73093 -0.0290503 0
M  V30 7 C -1.63511 -0.902099 -0.193028 0
M  V30 8 C -1.46649 0.482274 -0.217451 0
M  V30 9 C -0.187075 0.970177 -0.0680774 0
M  V30 10 N 0.00659893 2.37644 -0.0899887 0
M  V30 11 N -2.70258 0.976656 -0.394031 0
M  V30 12 O -3.57991 0.0228049 -0.475764 0
M  V30 13 N -2.95257 -1.1127 -0.356589 0
M  V30 14 H 1.95755 -2.46534 1.29265 0
M  V30 15 H 2.27492 -2.62472 -0.507366 0
M  V30 16 H 0.373064 2.90948 -0.887407 0
M  V30 17 H -0.255788 2.88915 0.798706 0
M  V30 END ATOM
M  V30 BEGIN BOND
M  V30 1 3 1 2
M  V30 2 1 2 3
M  V30 3 1 3 4
M  V30 4 1 4 5
M  V30 5 2 4 6
M  V30 6 1 6 7
M  V30 7 1 7 8
M  V30 8 1 8 9
M  V30 9 1 9 10
M  V30 10 2 8 11
M  V30 11 1 11 12
M  V30 12 1 12 13
M  V30 13 2 9 3
M  V30 14 2 13 7
M  V30 15 1 5 14
M  V30 16 1 5 15
M  V30 17 1 10 16
M  V30 18 1 10 17
M  V30 END BOND
M  V30 END CTAB
M  END
