
     RDKit          3D

  0  0  0  0  0  0  0  0  0  0999 V3000
M  V30 BEGIN CTAB
M  V30 COUNTS 60 63 0 0 0
M  V30 BEGIN ATOM
M  V30 1 N -4.99187 3.17005 0.951089 0
M  V30 2 C -3.73319 2.53031 0.886798 0
M  V30 3 N -3.6422 1.23085 1.18819 0
M  V30 4 C -2.49188 0.54199 1.15477 0
M  V30 5 C -2.30016 -0.863468 1.5456 0
M  V30 6 O -3.38731 -1.56139 1.8405 0
M  V30 7 C -4.28542 -2.09798 1.05794 0
M  V30 8 C -5.14134 -1.41232 0.0956387 0
M  V30 9 C -6.42472 -0.958874 0.444686 0
M  V30 10 C -7.25284 -0.355299 -0.476503 0
M  V30 11 C -6.83947 -0.178239 -1.7804 0
M  V30 12 C -5.59929 -0.607244 -2.15129 0
M  V30 13 C -4.78268 -1.20576 -1.23068 0
M  V30 14 C -1.30477 1.21133 0.782965 0
M  V30 15 C -1.42482 2.54587 0.478149 0
M  V30 16 N -0.219022 3.23887 0.0971612 0
M  V30 17 N -2.60378 3.19132 0.527303 0
M  V30 18 C -0.0585376 0.470448 0.742083 0
M  V30 19 C 0.35127 -0.262837 -0.344131 0
M  V30 20 C 1.54459 -0.927715 -0.280456 0
M  V30 21 C 2.37678 -0.915082 0.808339 0
M  V30 22 N 3.61423 -1.58319 0.918181 0
M  V30 23 C 4.39862 -2.11896 -0.150136 0
M  V30 24 C 5.29218 -1.14476 -0.82275 0
M  V30 25 C 4.58571 0.00123175 -1.4467 0
M  V30 26 C 5.58269 0.871557 -2.20291 0
M  V30 27 O 6.89884 0.610079 -1.81797 0
M  V30 28 C 7.06805 0.522557 -0.455922 0
M  V30 29 C 6.31447 -0.596745 0.180915 0
M  V30 30 C 1.93435 -0.158244 1.90393 0
M  V30 31 C 0.752689 0.515175 1.87434 0
M  V30 32 H -5.16444 3.89775 1.65788 0
M  V30 33 H -5.73058 2.90097 0.28626 0
M  V30 34 H -1.50009 -0.922527 2.36739 0
M  V30 35 H -1.77537 -1.42733 0.693541 0
M  V30 36 H -3.77363 -2.9664 0.466284 0
M  V30 37 H -5.00219 -2.75482 1.70775 0
M  V30 38 H -6.80408 -1.06999 1.45108 0
M  V30 39 H -8.24716 0.0013761 -0.226466 0
M  V30 40 H -7.47717 0.293367 -2.5143 0
M  V30 41 H -5.28903 -0.456576 -3.19502 0
M  V30 42 H -3.80805 -1.53411 -1.55609 0
M  V30 43 H 0.0331618 3.3473 -0.887775 0
M  V30 44 H 0.345741 3.60335 0.910315 0
M  V30 45 H -0.304094 -0.273785 -1.20408 0
M  V30 46 H 1.86102 -1.50719 -1.13769 0
M  V30 47 H 4.0413 -1.71905 1.89699 0
M  V30 48 H 3.69015 -2.59452 -0.881491 0
M  V30 49 H 5.06745 -2.92369 0.272769 0
M  V30 50 H 5.93698 -1.66324 -1.59017 0
M  V30 51 H 4.17553 0.650081 -0.651871 0
M  V30 52 H 3.88136 -0.364342 -2.19 0
M  V30 53 H 5.52885 0.610726 -3.27599 0
M  V30 54 H 5.35272 1.93613 -2.04799 0
M  V30 55 H 6.78568 1.49857 -0.00522658 0
M  V30 56 H 8.17212 0.372038 -0.287263 0
M  V30 57 H 7.01031 -1.4265 0.415411 0
M  V30 58 H 5.7947 -0.208975 1.07888 0
M  V30 59 H 2.54633 -0.10107 2.80987 0
M  V30 60 H 0.421323 1.09892 2.73226 0
M  V30 END ATOM
M  V30 BEGIN BOND
M  V30 1 1 1 2
M  V30 2 2 2 3
M  V30 3 1 3 4
M  V30 4 1 4 5
M  V30 5 1 5 6
M  V30 6 1 6 7
M  V30 7 1 7 8
M  V30 8 2 8 9
M  V30 9 1 9 10
M  V30 10 2 10 11
M  V30 11 1 11 12
M  V30 12 2 12 13
M  V30 13 2 4 14
M  V30 14 1 14 15
M  V30 15 1 15 16
M  V30 16 2 15 17
M  V30 17 1 14 18
M  V30 18 2 18 19
M  V30 19 1 19 20
M  V30 20 2 20 21
M  V30 21 1 21 22
M  V30 22 1 22 23
M  V30 23 1 23 24
M  V30 24 1 24 25
M  V30 25 1 25 26
M  V30 26 1 26 27
M  V30 27 1 27 28
M  V30 28 1 28 29
M  V30 29 1 21 30
M  V30 30 2 30 31
M  V30 31 1 17 2
M  V30 32 1 31 18
M  V30 33 1 13 8
M  V30 34 1 29 24
M  V30 35 1 1 32
M  V30 36 1 1 33
M  V30 37 1 5 34
M  V30 38 1 5 35
M  V30 39 1 7 36
M  V30 40 1 7 37
M  V30 41 1 9 38
M  V30 42 1 10 39
M  V30 43 1 11 40
M  V30 44 1 12 41
M  V30 45 1 13 42
M  V30 46 1 16 43
M  V30 47 1 16 44
M  V30 48 1 19 45
M  V30 49 1 20 46
M  V30 50 1 22 47
M  V30 51 1 23 48
M  V30 52 1 23 49
M  V30 53 1 24 50
M  V30 54 1 25 51
M  V30 55 1 25 52
M  V30 56 1 26 53
M  V30 57 1 26 54
M  V30 58 1 28 55
M  V30 59 1 28 56
M  V30 60 1 29 57
M  V30 61 1 29 58
M  V30 62 1 30 59
M  V30 63 1 31 60
M  V30 END BOND
M  V30 END CTAB
M  END
