
     RDKit          3D

  0  0  0  0  0  0  0  0  0  0999 V3000
M  V30 BEGIN CTAB
M  V30 COUNTS 36 38 0 0 0
M  V30 BEGIN ATOM
M  V30 1 C -4.34016 0.0143717 -1.54785 0
M  V30 2 C -3.33881 -0.547539 -0.561508 0 CFG=1
M  V30 3 O -2.06201 -0.12849 -0.890879 0
M  V30 4 C -1.38857 -0.0767215 0.318624 0 CFG=2
M  V30 5 C -2.37052 0.701804 1.16612 0 CFG=2
M  V30 6 O -2.06217 0.66164 2.51716 0
M  V30 7 C -3.62813 -0.0796148 0.837666 0 CFG=2
M  V30 8 O -3.66411 -1.16803 1.70061 0
M  V30 9 N -0.0991206 0.531841 0.241902 0
M  V30 10 C 0.288948 1.77341 0.579371 0
M  V30 11 N 1.60212 1.93208 0.344289 0
M  V30 12 C 2.06605 0.758041 -0.157767 0
M  V30 13 C 0.997232 -0.101777 -0.215325 0
M  V30 14 N 1.20549 -1.3467 -0.685305 0
M  V30 15 C 2.39088 -1.79991 -1.10075 0
M  V30 16 N 2.50088 -3.15342 -1.58611 0
M  V30 17 N 3.44102 -0.975165 -1.05103 0
M  V30 18 C 3.28687 0.29524 -0.584276 0
M  V30 19 S 4.66109 1.36484 -0.522412 0
M  V30 20 N 5.48037 1.23778 0.992116 0
M  V30 21 O 5.58645 1.06235 -1.65096 0
M  V30 22 O 4.1414 2.78247 -0.696633 0
M  V30 23 H -5.21086 -0.682468 -1.60778 0
M  V30 24 H -4.63586 1.02631 -1.26695 0
M  V30 25 H -3.87948 0.0392469 -2.5582 0
M  V30 26 H -3.32081 -1.67432 -0.62679 0
M  V30 27 H -1.36398 -1.11631 0.733321 0
M  V30 28 H -2.47341 1.74606 0.783122 0
M  V30 29 H -2.0923 1.61264 2.84798 0
M  V30 30 H -4.5363 0.54696 0.904083 0
M  V30 31 H -3.50234 -2.02385 1.26309 0
M  V30 32 H -0.329223 2.54953 0.979871 0
M  V30 33 H 2.58382 -3.93003 -0.894182 0
M  V30 34 H 2.49169 -3.28921 -2.62491 0
M  V30 35 H 5.07299 0.457666 1.57829 0
M  V30 36 H 6.50087 0.999273 0.862628 0
M  V30 END ATOM
M  V30 BEGIN BOND
M  V30 1 1 1 2
M  V30 2 1 2 3
M  V30 3 1 3 4
M  V30 4 1 4 5
M  V30 5 1 5 6
M  V30 6 1 5 7
M  V30 7 1 7 8
M  V30 8 1 4 9
M  V30 9 1 9 10
M  V30 10 2 10 11
M  V30 11 1 11 12
M  V30 12 2 12 13
M  V30 13 1 13 14
M  V30 14 2 14 15
M  V30 15 1 15 16
M  V30 16 1 15 17
M  V30 17 2 17 18
M  V30 18 1 18 19
M  V30 19 1 19 20
M  V30 20 2 19 21
M  V30 21 2 19 22
M  V30 22 1 7 2
M  V30 23 1 13 9
M  V30 24 1 18 12
M  V30 25 1 1 23
M  V30 26 1 1 24
M  V30 27 1 1 25
M  V30 28 1 2 26 CFG=1
M  V30 29 1 4 27 CFG=1
M  V30 30 1 5 28 CFG=3
M  V30 31 1 6 29
M  V30 32 1 7 30 CFG=3
M  V30 33 1 8 31
M  V30 34 1 10 32
M  V30 35 1 16 33
M  V30 36 1 16 34
M  V30 37 1 20 35
M  V30 38 1 20 36
M  V30 END BOND
M  V30 END CTAB
M  END
