
     RDKit          3D

  0  0  0  0  0  0  0  0  0  0999 V3000
M  V30 BEGIN CTAB
M  V30 COUNTS 30 31 0 0 0
M  V30 BEGIN ATOM
M  V30 1 Cl -5.04058 -1.91113 2.31389 0
M  V30 2 C -4.56052 -0.811926 1.04901 0
M  V30 3 C -5.45534 0.199287 0.680611 0
M  V30 4 C -5.05066 1.05483 -0.329585 0
M  V30 5 C -3.81079 0.915223 -0.950729 0
M  V30 6 C -2.95893 -0.0878264 -0.564787 0
M  V30 7 C -3.33352 -0.969546 0.452121 0
M  V30 8 C -1.66194 -0.213795 -1.23351 0
M  V30 9 S -0.339444 0.757566 -0.408172 0
M  V30 10 C 1.16634 0.522621 -1.34846 0
M  V30 11 C 2.36521 0.224133 -0.555593 0
M  V30 12 N 2.79486 -1.0039 -0.290195 0
M  V30 13 C 3.91816 -1.25724 0.429824 0
M  V30 14 N 4.34647 -2.58453 0.672646 0
M  V30 15 N 4.61385 -0.223719 0.886989 0
M  V30 16 C 4.24138 1.06333 0.660842 0
M  V30 17 N 3.11231 1.23266 -0.0639651 0
M  V30 18 N 5.02777 2.12423 1.17477 0
M  V30 19 H -6.41687 0.304579 1.16168 0
M  V30 20 H -5.72101 1.84454 -0.624735 0
M  V30 21 H -3.56239 1.63116 -1.75077 0
M  V30 22 H -2.61674 -1.73956 0.712456 0
M  V30 23 H -1.75484 0.21875 -2.28597 0
M  V30 24 H -1.32224 -1.24787 -1.36882 0
M  V30 25 H 1.01337 -0.373583 -2.02287 0
M  V30 26 H 1.3365 1.42933 -1.96364 0
M  V30 27 H 4.22717 -3.29998 -0.0666484 0
M  V30 28 H 4.76964 -2.85077 1.57636 0
M  V30 29 H 4.96947 2.46342 2.14605 0
M  V30 30 H 5.70329 2.5897 0.524633 0
M  V30 END ATOM
M  V30 BEGIN BOND
M  V30 1 1 1 2
M  V30 2 2 2 3
M  V30 3 1 3 4
M  V30 4 2 4 5
M  V30 5 1 5 6
M  V30 6 2 6 7
M  V30 7 1 6 8
M  V30 8 1 8 9
M  V30 9 1 9 10
M  V30 10 1 10 11
M  V30 11 2 11 12
M  V30 12 1 12 13
M  V30 13 1 13 14
M  V30 14 2 13 15
M  V30 15 1 15 16
M  V30 16 2 16 17
M  V30 17 1 16 18
M  V30 18 1 7 2
M  V30 19 1 17 11
M  V30 20 1 3 19
M  V30 21 1 4 20
M  V30 22 1 5 21
M  V30 23 1 7 22
M  V30 24 1 8 23
M  V30 25 1 8 24
M  V30 26 1 10 25
M  V30 27 1 10 26
M  V30 28 1 14 27
M  V30 29 1 14 28
M  V30 30 1 18 29
M  V30 31 1 18 30
M  V30 END BOND
M  V30 END CTAB
M  END
