
     RDKit          3D

  0  0  0  0  0  0  0  0  0  0999 V3000
M  V30 BEGIN CTAB
M  V30 COUNTS 48 49 0 0 0
M  V30 BEGIN ATOM
M  V30 1 N 4.85821 -1.90814 0.803816 0
M  V30 2 C 5.05787 -0.497465 0.966909 0
M  V30 3 C 3.8615 0.314279 0.5332 0
M  V30 4 C 3.51639 0.103817 -0.923851 0
M  V30 5 C 2.55497 1.23986 -1.30321 0
M  V30 6 N 1.35086 1.00027 -0.474515 0
M  V30 7 C 1.52908 0.929943 0.942818 0
M  V30 8 C 2.6289 -0.030337 1.34271 0
M  V30 9 C 0.127202 0.87243 -1.12489 0
M  V30 10 O 0.114351 0.99829 -2.39866 0
M  V30 11 C -1.19856 0.595785 -0.485021 0
M  V30 12 C -1.21592 -0.82005 -0.0370032 0
M  V30 13 C -2.00353 -0.964174 1.24208 0
M  V30 14 C -3.43061 -1.21658 0.925984 0
M  V30 15 C -4.33228 -0.046128 1.22767 0
M  V30 16 C -3.91002 1.20376 0.482345 0
M  V30 17 C -3.66887 0.933341 -0.964277 0
M  V30 18 C -2.26879 0.986835 -1.43458 0
M  V30 19 N -2.17134 0.104046 -2.5993 0
M  V30 20 H 5.74333 -2.41744 0.607072 0
M  V30 21 H 4.07241 -2.16823 0.184276 0
M  V30 22 H 5.34107 -0.185974 1.97668 0
M  V30 23 H 5.89932 -0.204378 0.294294 0
M  V30 24 H 4.08986 1.38157 0.671318 0
M  V30 25 H 4.38776 0.0827407 -1.58428 0
M  V30 26 H 2.93589 -0.848632 -0.99937 0
M  V30 27 H 2.321 1.22827 -2.36701 0
M  V30 28 H 3.05694 2.16913 -0.962194 0
M  V30 29 H 0.612815 0.632598 1.4619 0
M  V30 30 H 1.85105 1.93806 1.29364 0
M  V30 31 H 2.84295 0.112519 2.41522 0
M  V30 32 H 2.34552 -1.07865 1.16773 0
M  V30 33 H -1.21077 1.22857 0.448482 0
M  V30 34 H -0.154248 -1.18056 0.10986 0
M  V30 35 H -1.60192 -1.52471 -0.822738 0
M  V30 36 H -1.83175 -0.121727 1.93892 0
M  V30 37 H -1.59883 -1.86911 1.78231 0
M  V30 38 H -3.82474 -2.06169 1.56506 0
M  V30 39 H -3.53177 -1.59228 -0.112163 0
M  V30 40 H -4.30856 0.165751 2.30088 0
M  V30 41 H -5.36327 -0.296128 0.933927 0
M  V30 42 H -3.08365 1.73263 0.995631 0
M  V30 43 H -4.78832 1.90853 0.612303 0
M  V30 44 H -4.19466 -0.0179918 -1.21389 0
M  V30 45 H -4.25723 1.70064 -1.55679 0
M  V30 46 H -2.06633 2.01272 -1.84963 0
M  V30 47 H -2.84194 -0.696819 -2.5221 0
M  V30 48 H -2.24137 0.604552 -3.49158 0
M  V30 END ATOM
M  V30 BEGIN BOND
M  V30 1 1 1 2
M  V30 2 1 2 3
M  V30 3 1 3 4
M  V30 4 1 4 5
M  V30 5 1 5 6
M  V30 6 1 6 7
M  V30 7 1 7 8
M  V30 8 1 6 9
M  V30 9 2 9 10
M  V30 10 1 9 11
M  V30 11 1 11 12
M  V30 12 1 12 13
M  V30 13 1 13 14
M  V30 14 1 14 15
M  V30 15 1 15 16
M  V30 16 1 16 17
M  V30 17 1 17 18
M  V30 18 1 18 19
M  V30 19 1 8 3
M  V30 20 1 18 11
M  V30 21 1 1 20
M  V30 22 1 1 21
M  V30 23 1 2 22
M  V30 24 1 2 23
M  V30 25 1 3 24
M  V30 26 1 4 25
M  V30 27 1 4 26
M  V30 28 1 5 27
M  V30 29 1 5 28
M  V30 30 1 7 29
M  V30 31 1 7 30
M  V30 32 1 8 31
M  V30 33 1 8 32
M  V30 34 1 11 33
M  V30 35 1 12 34
M  V30 36 1 12 35
M  V30 37 1 13 36
M  V30 38 1 13 37
M  V30 39 1 14 38
M  V30 40 1 14 39
M  V30 41 1 15 40
M  V30 42 1 15 41
M  V30 43 1 16 42
M  V30 44 1 16 43
M  V30 45 1 17 44
M  V30 46 1 17 45
M  V30 47 1 18 46
M  V30 48 1 19 47
M  V30 49 1 19 48
M  V30 END BOND
M  V30 END CTAB
M  END
