
     RDKit          3D

  0  0  0  0  0  0  0  0  0  0999 V3000
M  V30 BEGIN CTAB
M  V30 COUNTS 39 39 0 0 0
M  V30 BEGIN ATOM
M  V30 1 C -6.15677 0.366137 -0.410642 0
M  V30 2 C -5.2474 0.339866 0.789961 0
M  V30 3 C -3.82474 0.339575 0.361353 0
M  V30 4 C -3.39105 -0.836825 -0.472847 0
M  V30 5 C -1.90379 -0.569042 -0.746719 0
M  V30 6 O -1.5684 -0.389384 -1.92888 0
M  V30 7 N -1.10317 -0.563317 0.39916 0
M  V30 8 C 0.293437 -0.344709 0.372774 0
M  V30 9 C 0.928349 0.150401 1.52276 0
M  V30 10 C 2.28238 0.327204 1.47925 0
M  V30 11 C 3.02727 0.0357513 0.351695 0
M  V30 12 C 2.40944 -0.446931 -0.768571 0
M  V30 13 C 1.02501 -0.632926 -0.737705 0
M  V30 14 O 4.40816 0.240662 0.375889 0
M  V30 15 C 5.16529 -0.0613996 -0.786697 0
M  V30 16 C 6.62314 0.223183 -0.56747 0
M  V30 17 N 6.87206 1.60921 -0.245146 0
M  V30 18 N -4.08576 -0.943648 -1.73473 0
M  V30 19 H -6.42447 -0.6424 -0.770201 0
M  V30 20 H -7.09428 0.870745 -0.0597913 0
M  V30 21 H -5.73765 0.934594 -1.26579 0
M  V30 22 H -5.39589 1.26756 1.40835 0
M  V30 23 H -5.43998 -0.571116 1.41926 0
M  V30 24 H -3.13746 0.418334 1.23144 0
M  V30 25 H -3.58548 1.25013 -0.266635 0
M  V30 26 H -3.39401 -1.78791 0.0950214 0
M  V30 27 H -1.50118 -0.732883 1.37542 0
M  V30 28 H 0.317929 0.368374 2.38759 0
M  V30 29 H 2.77622 0.708539 2.36295 0
M  V30 30 H 2.97385 -0.687709 -1.67947 0
M  V30 31 H 0.580539 -1.03846 -1.65168 0
M  V30 32 H 5.04685 -1.14744 -0.978725 0
M  V30 33 H 4.81172 0.561244 -1.65093 0
M  V30 34 H 6.99315 -0.374803 0.300521 0
M  V30 35 H 7.18755 -0.0408821 -1.4733 0
M  V30 36 H 6.75634 2.25221 -1.04404 0
M  V30 37 H 6.32135 1.88606 0.602462 0
M  V30 38 H -3.61217 -0.404042 -2.49327 0
M  V30 39 H -4.19636 -1.93395 -2.0404 0
M  V30 END ATOM
M  V30 BEGIN BOND
M  V30 1 1 1 2
M  V30 2 1 2 3
M  V30 3 1 3 4
M  V30 4 1 4 5
M  V30 5 2 5 6
M  V30 6 1 5 7
M  V30 7 1 7 8
M  V30 8 2 8 9
M  V30 9 1 9 10
M  V30 10 2 10 11
M  V30 11 1 11 12
M  V30 12 2 12 13
M  V30 13 1 11 14
M  V30 14 1 14 15
M  V30 15 1 15 16
M  V30 16 1 16 17
M  V30 17 1 4 18
M  V30 18 1 13 8
M  V30 19 1 1 19
M  V30 20 1 1 20
M  V30 21 1 1 21
M  V30 22 1 2 22
M  V30 23 1 2 23
M  V30 24 1 3 24
M  V30 25 1 3 25
M  V30 26 1 4 26
M  V30 27 1 7 27
M  V30 28 1 9 28
M  V30 29 1 10 29
M  V30 30 1 12 30
M  V30 31 1 13 31
M  V30 32 1 15 32
M  V30 33 1 15 33
M  V30 34 1 16 34
M  V30 35 1 16 35
M  V30 36 1 17 36
M  V30 37 1 17 37
M  V30 38 1 18 38
M  V30 39 1 18 39
M  V30 END BOND
M  V30 END CTAB
M  END
