
     RDKit          3D

  0  0  0  0  0  0  0  0  0  0999 V3000
M  V30 BEGIN CTAB
M  V30 COUNTS 38 39 0 0 0
M  V30 BEGIN ATOM
M  V30 1 C -3.20652 3.16397 -0.0640499 0
M  V30 2 O -3.78656 1.89909 -0.0178544 0
M  V30 3 C -3.10191 0.709994 0.0380634 0
M  V30 4 C -1.7351 0.604838 0.0563683 0
M  V30 5 C -1.07773 -0.614188 0.113219 0
M  V30 6 C 0.390274 -0.652534 0.112133 0
M  V30 7 S 1.11471 1.01307 0.0914625 0
M  V30 8 C 2.8911 0.821412 0.0903976 0
M  V30 9 N 3.48163 -0.381458 0.103237 0
M  V30 10 C 4.79178 -0.579602 0.103138 0
M  V30 11 N 5.3663 -1.88077 0.11704 0
M  V30 12 C 5.64197 0.515653 0.0889197 0
M  V30 13 C 5.05848 1.78281 0.0753517 0
M  V30 14 N 3.7203 1.89023 0.076565 0
M  V30 15 N 5.90558 2.92501 0.0607808 0
M  V30 16 C -1.81894 -1.75768 0.15328 0
M  V30 17 C -3.2333 -1.69619 0.135962 0
M  V30 18 C -3.85214 -0.474056 0.079065 0
M  V30 19 O -5.2231 -0.353182 0.0598352 0
M  V30 20 C -6.19089 -1.33334 0.0905726 0
M  V30 21 F -6.98306 -1.1266 1.22787 0
M  V30 22 F -7.0666 -1.28339 -0.979654 0
M  V30 23 N -1.20771 -3.02881 0.233732 0 CHG=1
M  V30 24 O -1.8527 -3.95762 0.801833 0
M  V30 25 O 0.0171071 -3.363 -0.241168 0 CHG=-1
M  V30 26 H -2.41008 3.18504 -0.824096 0
M  V30 27 H -2.88159 3.55328 0.927222 0
M  V30 28 H -4.00854 3.87856 -0.402061 0
M  V30 29 H -1.12805 1.49529 0.0259617 0
M  V30 30 H 0.747628 -1.20479 0.995206 0
M  V30 31 H 0.749434 -1.18531 -0.797867 0
M  V30 32 H 4.93616 -2.68682 0.586836 0
M  V30 33 H 6.28753 -2.04255 -0.379764 0
M  V30 34 H 6.72001 0.420388 0.0879847 0
M  V30 35 H 5.54943 3.85557 -0.246237 0
M  V30 36 H 6.90346 2.86101 0.356535 0
M  V30 37 H -3.77212 -2.6418 0.169429 0
M  V30 38 H -5.73627 -2.33152 0.136238 0
M  V30 END ATOM
M  V30 BEGIN BOND
M  V30 1 1 1 2
M  V30 2 1 2 3
M  V30 3 2 3 4
M  V30 4 1 4 5
M  V30 5 1 5 6
M  V30 6 1 6 7
M  V30 7 1 7 8
M  V30 8 2 8 9
M  V30 9 1 9 10
M  V30 10 1 10 11
M  V30 11 2 10 12
M  V30 12 1 12 13
M  V30 13 2 13 14
M  V30 14 1 13 15
M  V30 15 2 5 16
M  V30 16 1 16 17
M  V30 17 2 17 18
M  V30 18 1 18 19
M  V30 19 1 19 20
M  V30 20 1 20 21
M  V30 21 1 20 22
M  V30 22 1 16 23
M  V30 23 2 23 24
M  V30 24 1 23 25
M  V30 25 1 18 3
M  V30 26 1 14 8
M  V30 27 1 1 26
M  V30 28 1 1 27
M  V30 29 1 1 28
M  V30 30 1 4 29
M  V30 31 1 6 30
M  V30 32 1 6 31
M  V30 33 1 11 32
M  V30 34 1 11 33
M  V30 35 1 12 34
M  V30 36 1 15 35
M  V30 37 1 15 36
M  V30 38 1 17 37
M  V30 39 1 20 38
M  V30 END BOND
M  V30 END CTAB
M  END
