
     RDKit          3D

  0  0  0  0  0  0  0  0  0  0999 V3000
M  V30 BEGIN CTAB
M  V30 COUNTS 19 19 0 0 0
M  V30 BEGIN ATOM
M  V30 1 N -0.723859 1.81089 -0.599903 0
M  V30 2 C 0.246788 0.859551 -0.230641 0
M  V30 3 C 1.54203 1.21783 0.10689 0
M  V30 4 I 2.00062 3.2771 0.0421485 0
M  V30 5 C 2.4996 0.291197 0.470028 0
M  V30 6 C 2.15239 -1.04724 0.498005 0
M  V30 7 I 3.58774 -2.51592 1.04993 0
M  V30 8 C 0.873499 -1.41092 0.165684 0
M  V30 9 C -0.0937128 -0.473869 -0.201217 0
M  V30 10 S -1.69696 -0.974844 -0.613532 0
M  V30 11 N -2.90003 -0.287608 0.412078 0
M  V30 12 O -2.01605 -0.510914 -2.02434 0
M  V30 13 O -1.81174 -2.46321 -0.551178 0
M  V30 14 H -1.14806 2.44687 0.115209 0
M  V30 15 H -1.05721 1.92255 -1.58272 0
M  V30 16 H 3.4943 0.592509 0.72674 0
M  V30 17 H 0.629164 -2.46808 0.196395 0
M  V30 18 H -2.97621 -0.904955 1.27145 0
M  V30 19 H -2.60231 0.639075 0.748967 0
M  V30 END ATOM
M  V30 BEGIN BOND
M  V30 1 1 1 2
M  V30 2 2 2 3
M  V30 3 1 3 4
M  V30 4 1 3 5
M  V30 5 2 5 6
M  V30 6 1 6 7
M  V30 7 1 6 8
M  V30 8 2 8 9
M  V30 9 1 9 10
M  V30 10 1 10 11
M  V30 11 2 10 12
M  V30 12 2 10 13
M  V30 13 1 9 2
M  V30 14 1 1 14
M  V30 15 1 1 15
M  V30 16 1 5 16
M  V30 17 1 8 17
M  V30 18 1 11 18
M  V30 19 1 11 19
M  V30 END BOND
M  V30 END CTAB
M  END
