
     RDKit          3D

  0  0  0  0  0  0  0  0  0  0999 V3000
M  V30 BEGIN CTAB
M  V30 COUNTS 43 45 0 0 0
M  V30 BEGIN ATOM
M  V30 1 C -6.92085 -1.83067 -0.326594 0
M  V30 2 O -5.51644 -1.85901 -0.234986 0
M  V30 3 C -4.80364 -0.66797 -0.0985963 0
M  V30 4 C -5.47243 0.543844 -0.0528533 0
M  V30 5 C -4.80798 1.73584 0.0809189 0
M  V30 6 C -3.40757 1.68119 0.170842 0
M  V30 7 C -2.72802 0.502285 0.127145 0
M  V30 8 C -3.4445 -0.698697 -0.0101897 0
M  V30 9 N -1.29315 0.402429 0.176259 0
M  V30 10 C -0.458273 1.32554 -0.408764 0
M  V30 11 O -1.05601 2.31323 -1.01334 0
M  V30 12 C 1.00146 1.38784 -0.459263 0
M  V30 13 S 1.91208 2.74525 -1.10437 0
M  V30 14 C 3.47777 2.14815 -0.836828 0
M  V30 15 N 3.24282 0.986663 -0.292363 0
M  V30 16 C 2.00921 0.56643 -0.0876798 0
M  V30 17 C 1.80078 -0.790721 0.515557 0
M  V30 18 C 2.2486 -1.10662 1.7725 0
M  V30 19 C 2.17301 -2.36374 2.31673 0
M  V30 20 C 1.60283 -3.37445 1.53196 0
M  V30 21 C 1.14373 -3.09612 0.269676 0
M  V30 22 C 1.24066 -1.8186 -0.235151 0
M  V30 23 N 4.76107 2.76842 -1.13606 0
M  V30 24 C 5.85489 2.18913 -0.87337 0
M  V30 25 N 7.07761 2.83474 -1.184 0
M  V30 26 N 5.84064 0.90887 -0.275035 0
M  V30 27 H -7.24549 -2.87251 -0.594091 0
M  V30 28 H -7.39933 -1.54938 0.64553 0
M  V30 29 H -7.27693 -1.10198 -1.08011 0
M  V30 30 H -6.55099 0.547894 -0.124941 0
M  V30 31 H -5.33631 2.66885 0.115242 0
M  V30 32 H -2.88159 2.62151 0.302054 0
M  V30 33 H -2.88847 -1.6305 -0.0425346 0
M  V30 34 H -0.976272 -0.423167 0.739595 0
M  V30 35 H 2.68805 -0.310039 2.36718 0
M  V30 36 H 2.52925 -2.60623 3.31144 0
M  V30 37 H 1.55611 -4.35589 1.98637 0
M  V30 38 H 0.710916 -3.87171 -0.321202 0
M  V30 39 H 0.892653 -1.54057 -1.2307 0
M  V30 40 H 7.23072 3.22007 -2.13878 0
M  V30 41 H 7.79785 2.89715 -0.410828 0
M  V30 42 H 5.75576 0.812671 0.747861 0
M  V30 43 H 5.91574 0.0605659 -0.865108 0
M  V30 END ATOM
M  V30 BEGIN BOND
M  V30 1 1 1 2
M  V30 2 1 2 3
M  V30 3 2 3 4
M  V30 4 1 4 5
M  V30 5 2 5 6
M  V30 6 1 6 7
M  V30 7 2 7 8
M  V30 8 1 7 9
M  V30 9 1 9 10
M  V30 10 2 10 11
M  V30 11 1 10 12
M  V30 12 1 12 13
M  V30 13 1 13 14
M  V30 14 2 14 15
M  V30 15 1 15 16
M  V30 16 1 16 17
M  V30 17 2 17 18
M  V30 18 1 18 19
M  V30 19 2 19 20
M  V30 20 1 20 21
M  V30 21 2 21 22
M  V30 22 1 14 23
M  V30 23 2 23 24 CFG=2
M  V30 24 1 24 25
M  V30 25 1 24 26
M  V30 26 1 8 3
M  V30 27 2 16 12
M  V30 28 1 22 17
M  V30 29 1 1 27
M  V30 30 1 1 28
M  V30 31 1 1 29
M  V30 32 1 4 30
M  V30 33 1 5 31
M  V30 34 1 6 32
M  V30 35 1 8 33
M  V30 36 1 9 34
M  V30 37 1 18 35
M  V30 38 1 19 36
M  V30 39 1 20 37
M  V30 40 1 21 38
M  V30 41 1 22 39
M  V30 42 1 25 40
M  V30 43 1 25 41
M  V30 44 1 26 42
M  V30 45 1 26 43
M  V30 END BOND
M  V30 END CTAB
M  END
