
     RDKit          3D

  0  0  0  0  0  0  0  0  0  0999 V3000
M  V30 BEGIN CTAB
M  V30 COUNTS 51 53 0 0 0
M  V30 BEGIN ATOM
M  V30 1 O -1.31439 0.453596 -1.15391 0
M  V30 2 C -1.5075 0.463051 -0.145556 0
M  V30 3 N -2.75036 0.148036 0.446142 0
M  V30 4 C -3.87712 -0.22454 -0.31039 0
M  V30 5 C -3.84838 -0.660746 -1.59846 0
M  V30 6 C -5.02769 -0.975417 -2.26622 0
M  V30 7 C -6.21017 -0.831955 -1.58494 0
M  V30 8 C -6.27303 -0.396963 -0.290493 0
M  V30 9 C -5.11155 -0.0954266 0.341412 0
M  V30 10 S -7.79071 -0.22156 0.558844 0
M  V30 11 O -8.8403 0.0300438 -0.502493 0
M  V30 12 O -7.68097 0.924217 1.49028 0
M  V30 13 N -8.22854 -1.64722 1.39855 0
M  V30 14 C -0.386108 0.843257 0.813657 0
M  V30 15 C 0.865189 1.19104 0.085754 0
M  V30 16 N 1.38554 0.149971 -0.727047 0
M  V30 17 C 2.52289 0.513148 -1.47598 0
M  V30 18 C 3.66577 -0.277658 -0.899802 0 CFG=2
M  V30 19 C 3.10461 -0.917477 0.355792 0 CFG=1
M  V30 20 C 1.64225 -1.09093 -0.113724 0
M  V30 21 N 3.65289 -2.22749 0.619524 0
M  V30 22 C 4.86271 0.483285 -0.579802 0
M  V30 23 C 4.87869 1.53118 0.275647 0
M  V30 24 C 6.0307 2.24491 0.562306 0
M  V30 25 C 7.19895 1.87111 -0.0472127 0
M  V30 26 C 7.22355 0.810615 -0.923529 0
M  V30 27 C 6.05602 0.112612 -1.1932 0
M  V30 28 H -2.84663 0.184421 1.49453 0
M  V30 29 H -2.92821 -0.797827 -2.16213 0
M  V30 30 H -5.00771 -1.32419 -3.29998 0
M  V30 31 H -7.14617 -1.06833 -2.0772 0
M  V30 32 H -5.15691 0.247824 1.36419 0
M  V30 33 H -9.0254 -1.37881 2.04916 0
M  V30 34 H -8.58481 -2.41088 0.805598 0
M  V30 35 H -0.73723 1.70707 1.43488 0
M  V30 36 H -0.185441 0.0291205 1.52904 0
M  V30 37 H 1.65089 1.37562 0.883653 0
M  V30 38 H 0.746775 2.15486 -0.412587 0
M  V30 39 H 2.41465 0.309526 -2.58224 0
M  V30 40 H 2.7715 1.59014 -1.34505 0
M  V30 41 H 3.85612 -1.13249 -1.59159 0
M  V30 42 H 3.18515 -0.302465 1.24687 0
M  V30 43 H 1.08073 -1.33379 0.785043 0
M  V30 44 H 1.69734 -1.93025 -0.844277 0
M  V30 45 H 4.62238 -2.27624 0.217294 0
M  V30 46 H 3.09016 -3.00614 0.254842 0
M  V30 47 H 3.98403 1.8445 0.763988 0
M  V30 48 H 5.98593 3.06775 1.24919 0
M  V30 49 H 8.08756 2.43884 0.187739 0
M  V30 50 H 8.14125 0.518785 -1.40144 0
M  V30 51 H 6.06109 -0.709736 -1.86917 0
M  V30 END ATOM
M  V30 BEGIN BOND
M  V30 1 2 1 2
M  V30 2 1 2 3
M  V30 3 1 3 4
M  V30 4 2 4 5
M  V30 5 1 5 6
M  V30 6 2 6 7
M  V30 7 1 7 8
M  V30 8 2 8 9
M  V30 9 1 8 10
M  V30 10 2 10 11
M  V30 11 2 10 12
M  V30 12 1 10 13
M  V30 13 1 2 14
M  V30 14 1 14 15
M  V30 15 1 15 16
M  V30 16 1 16 17
M  V30 17 1 17 18
M  V30 18 1 18 19
M  V30 19 1 19 20
M  V30 20 1 19 21
M  V30 21 1 18 22
M  V30 22 2 22 23
M  V30 23 1 23 24
M  V30 24 2 24 25
M  V30 25 1 25 26
M  V30 26 2 26 27
M  V30 27 1 9 4
M  V30 28 1 20 16
M  V30 29 1 27 22
M  V30 30 1 3 28
M  V30 31 1 5 29
M  V30 32 1 6 30
M  V30 33 1 7 31
M  V30 34 1 9 32
M  V30 35 1 13 33
M  V30 36 1 13 34
M  V30 37 1 14 35
M  V30 38 1 14 36
M  V30 39 1 15 37
M  V30 40 1 15 38
M  V30 41 1 17 39
M  V30 42 1 17 40
M  V30 43 1 18 41 CFG=3
M  V30 44 1 19 42 CFG=1
M  V30 45 1 20 43
M  V30 46 1 20 44
M  V30 47 1 21 45
M  V30 48 1 21 46
M  V30 49 1 23 47
M  V30 50 1 24 48
M  V30 51 1 25 49
M  V30 52 1 26 50
M  V30 53 1 27 51
M  V30 END BOND
M  V30 END CTAB
M  END
