
     RDKit          3D

  0  0  0  0  0  0  0  0  0  0999 V3000
M  V30 BEGIN CTAB
M  V30 COUNTS 133 136 0 0 0
M  V30 BEGIN ATOM
M  V30 1 C -8.14121 1.75462 1.47542 0 CFG=1
M  V30 2 N -7.97652 2.56514 0.309061 0
M  V30 3 C -9.44937 1.83773 2.17516 0
M  V30 4 C -10.659 1.45378 1.42165 0
M  V30 5 C -11.0177 2.2156 0.206709 0
M  V30 6 N -11.291 3.61624 0.429124 0
M  V30 7 C -11.6796 4.37756 -0.704118 0
M  V30 8 N -13.0201 4.34276 -1.20808 0
M  V30 9 N -10.8338 5.1072 -1.30096 0
M  V30 10 C -7.67274 0.355416 1.26423 0
M  V30 11 O -8.00675 -0.597002 1.97604 0
M  V30 12 N -6.77107 0.0496365 0.177084 0
M  V30 13 C -6.27146 -1.27762 -0.1064 0 CFG=1
M  V30 14 C -6.14459 -1.48428 -1.57285 0
M  V30 15 C -7.46534 -1.34211 -2.29855 0
M  V30 16 C -5.09573 -0.570766 -2.19232 0
M  V30 17 C -5.02047 -1.5376 0.66399 0
M  V30 18 O -4.74254 -0.673835 1.56808 0
M  V30 19 N -4.17375 -2.64673 0.438967 0
M  V30 20 C -3.0008 -2.78005 1.28674 0 CFG=1
M  V30 21 C -2.51057 -4.15395 1.47884 0
M  V30 22 C -2.11102 -4.9025 0.283064 0
M  V30 23 C -2.99728 -5.67304 -0.421933 0
M  V30 24 C -2.66055 -6.409 -1.5459 0
M  V30 25 C -1.35939 -6.36327 -1.97777 0
M  V30 26 O -0.922223 -7.0712 -3.10367 0
M  V30 27 C -0.45559 -5.59682 -1.28296 0
M  V30 28 C -0.803813 -4.86102 -0.15796 0
M  V30 29 C -2.03004 -1.74632 0.919807 0
M  V30 30 O -2.22523 -0.934681 -0.0474226 0
M  V30 31 N -0.782403 -1.53216 1.60886 0
M  V30 32 C 0.12224 -0.510461 1.28358 0 CFG=1
M  V30 33 C 0.335111 0.48172 2.41159 0
M  V30 34 C -1.0562 1.14496 2.61513 0
M  V30 35 C 0.586362 -0.213444 3.73634 0
M  V30 36 C 1.7598 -1.10311 3.80568 0
M  V30 37 C 1.37524 -0.852257 0.612155 0
M  V30 38 O 1.71313 -2.03079 0.417846 0
M  V30 39 N 2.2011 0.203078 0.17176 0
M  V30 40 C 3.46333 0.101507 -0.548798 0 CFG=1
M  V30 41 C 3.2833 0.443952 -1.97493 0
M  V30 42 C 2.71341 1.75989 -2.28602 0
M  V30 43 C 1.35972 2.02546 -2.37899 0
M  V30 44 N 1.22512 3.31496 -2.69926 0
M  V30 45 C 2.44931 3.88129 -2.8122 0
M  V30 46 N 3.31526 2.90643 -2.55377 0
M  V30 47 C 4.60278 0.559809 0.223504 0
M  V30 48 O 4.44964 0.364995 1.55345 0
M  V30 49 N 5.81942 1.15402 -0.0467242 0
M  V30 50 C 6.81454 1.45358 1.04951 0
M  V30 51 C 7.10079 2.92439 0.756373 0
M  V30 52 C 6.58293 3.17455 -0.634899 0
M  V30 53 C 6.52223 1.71972 -1.17383 0 CFG=1
M  V30 54 C 7.89678 1.17546 -1.41032 0
M  V30 55 O 7.97206 -0.0644842 -1.49128 0
M  V30 56 N 9.0199 1.9916 -1.53927 0
M  V30 57 C 10.3838 1.81787 -1.78325 0 CFG=1
M  V30 58 C 11.271 1.25389 -0.780232 0
M  V30 59 C 11.1788 -0.0871168 -0.254374 0
M  V30 60 C 10.4714 -0.488831 0.844006 0
M  V30 61 C 10.4932 -1.78915 1.25128 0
M  V30 62 C 11.2328 -2.74527 0.568234 0
M  V30 63 C 11.9694 -2.37697 -0.556475 0
M  V30 64 C 11.9317 -1.06108 -0.950364 0
M  V30 65 C 10.6084 1.21906 -3.16641 0
M  V30 66 O 11.8831 1.16527 -3.63127 0
M  V30 67 O 9.64991 0.80382 -3.83974 0
M  V30 68 H -7.38636 2.19874 2.22866 0
M  V30 69 H -6.93206 2.67135 0.150466 0
M  V30 70 H -8.28084 3.54017 0.57766 0
M  V30 71 H -9.51091 2.8297 2.67449 0
M  V30 72 H -9.37404 1.11736 3.04921 0
M  V30 73 H -11.5252 1.40412 2.13637 0
M  V30 74 H -10.5224 0.371719 1.11888 0
M  V30 75 H -11.9872 1.77538 -0.172351 0
M  V30 76 H -10.3212 2.07675 -0.644518 0
M  V30 77 H -11.2248 4.09639 1.33251 0
M  V30 78 H -13.2304 4.5225 -2.21047 0
M  V30 79 H -13.8353 4.13339 -0.585596 0
M  V30 80 H -9.81873 5.18281 -0.990696 0
M  V30 81 H -6.47229 0.825586 -0.436966 0
M  V30 82 H -7.07112 -1.98412 0.290009 0
M  V30 83 H -5.78752 -2.53583 -1.75976 0
M  V30 84 H -8.27685 -1.36161 -1.54042 0
M  V30 85 H -7.51893 -0.382525 -2.85614 0
M  V30 86 H -7.61935 -2.20503 -2.95164 0
M  V30 87 H -4.7137 0.0978777 -1.37008 0
M  V30 88 H -5.53096 0.0237088 -3.01799 0
M  V30 89 H -4.22255 -1.1421 -2.55615 0
M  V30 90 H -4.40307 -3.32278 -0.306049 0
M  V30 91 H -3.37797 -2.40819 2.31552 0
M  V30 92 H -3.3207 -4.77263 1.98271 0
M  V30 93 H -1.66467 -4.19529 2.22052 0
M  V30 94 H -4.04174 -5.73525 -0.10117 0
M  V30 95 H -3.39615 -7.01155 -2.07483 0
M  V30 96 H -1.62473 -7.64122 -3.5929 0
M  V30 97 H 0.569866 -5.57718 -1.65363 0
M  V30 98 H -0.0562339 -4.27827 0.352057 0
M  V30 99 H -0.584222 -2.19346 2.3868 0
M  V30 100 H -0.443771 0.128672 0.465446 0
M  V30 101 H 1.05589 1.23012 2.19143 0
M  V30 102 H -1.15725 1.53191 3.64997 0
M  V30 103 H -1.86171 0.405002 2.4788 0
M  V30 104 H -1.13587 1.91965 1.84644 0
M  V30 105 H 0.727445 0.612836 4.48752 0
M  V30 106 H -0.360964 -0.732915 4.01189 0
M  V30 107 H 2.67783 -0.616847 3.47771 0
M  V30 108 H 1.90793 -1.35325 4.90342 0
M  V30 109 H 1.62801 -2.08285 3.30235 0
M  V30 110 H 1.91775 1.20768 0.355745 0
M  V30 111 H 3.60284 -1.0681 -0.579471 0
M  V30 112 H 4.20606 0.237226 -2.54465 0
M  V30 113 H 2.54914 -0.33811 -2.38712 0
M  V30 114 H 0.553084 1.30745 -2.2198 0
M  V30 115 H 0.315265 3.83926 -2.84878 0
M  V30 116 H 2.64316 4.93243 -3.06617 0
M  V30 117 H 7.65348 0.790478 0.888948 0
M  V30 118 H 6.37847 1.28379 2.02767 0
M  V30 119 H 6.4574 3.49073 1.46468 0
M  V30 120 H 8.15903 3.16761 0.897918 0
M  V30 121 H 7.0795 3.86749 -1.25654 0
M  V30 122 H 5.48427 3.47127 -0.589616 0
M  V30 123 H 5.98633 1.70218 -2.11921 0
M  V30 124 H 8.74329 3.06275 -1.41947 0
M  V30 125 H 10.811 2.89092 -1.98748 0
M  V30 126 H 12.3774 1.40453 -1.0756 0
M  V30 127 H 11.2371 1.93576 0.155501 0
M  V30 128 H 9.8706 0.263742 1.41777 0
M  V30 129 H 9.90639 -2.0795 2.13554 0
M  V30 130 H 11.256 -3.76722 0.875442 0
M  V30 131 H 12.5646 -3.1224 -1.11045 0
M  V30 132 H 12.5221 -0.813298 -1.82558 0
M  V30 133 H 12.3413 1.93042 -4.13986 0
M  V30 END ATOM
M  V30 BEGIN BOND
M  V30 1 1 1 2
M  V30 2 1 1 3
M  V30 3 1 3 4
M  V30 4 1 4 5
M  V30 5 1 5 6
M  V30 6 1 6 7
M  V30 7 1 7 8
M  V30 8 2 7 9 CFG=2
M  V30 9 1 1 10
M  V30 10 2 10 11
M  V30 11 1 10 12
M  V30 12 1 12 13
M  V30 13 1 13 14
M  V30 14 1 14 15
M  V30 15 1 14 16
M  V30 16 1 13 17
M  V30 17 2 17 18
M  V30 18 1 17 19
M  V30 19 1 19 20
M  V30 20 1 20 21
M  V30 21 1 21 22
M  V30 22 2 22 23
M  V30 23 1 23 24
M  V30 24 2 24 25
M  V30 25 1 25 26
M  V30 26 1 25 27
M  V30 27 2 27 28
M  V30 28 1 20 29
M  V30 29 2 29 30
M  V30 30 1 29 31
M  V30 31 1 31 32
M  V30 32 1 32 33
M  V30 33 1 33 34
M  V30 34 1 33 35
M  V30 35 1 35 36
M  V30 36 1 32 37
M  V30 37 2 37 38
M  V30 38 1 37 39
M  V30 39 1 39 40
M  V30 40 1 40 41
M  V30 41 1 41 42
M  V30 42 2 42 43
M  V30 43 1 43 44
M  V30 44 1 44 45
M  V30 45 2 45 46
M  V30 46 1 40 47
M  V30 47 2 47 48
M  V30 48 1 47 49
M  V30 49 1 49 50
M  V30 50 1 50 51
M  V30 51 1 51 52
M  V30 52 1 52 53
M  V30 53 1 53 54
M  V30 54 2 54 55
M  V30 55 1 54 56
M  V30 56 1 56 57
M  V30 57 1 57 58
M  V30 58 1 58 59
M  V30 59 2 59 60
M  V30 60 1 60 61
M  V30 61 2 61 62
M  V30 62 1 62 63
M  V30 63 2 63 64
M  V30 64 1 57 65
M  V30 65 1 65 66
M  V30 66 2 65 67
M  V30 67 1 28 22
M  V30 68 1 46 42
M  V30 69 1 53 49
M  V30 70 1 64 59
M  V30 71 1 1 68 CFG=1
M  V30 72 1 2 69
M  V30 73 1 2 70
M  V30 74 1 3 71
M  V30 75 1 3 72
M  V30 76 1 4 73
M  V30 77 1 4 74
M  V30 78 1 5 75
M  V30 79 1 5 76
M  V30 80 1 6 77
M  V30 81 1 8 78
M  V30 82 1 8 79
M  V30 83 1 9 80
M  V30 84 1 12 81
M  V30 85 1 13 82 CFG=1
M  V30 86 1 14 83
M  V30 87 1 15 84
M  V30 88 1 15 85
M  V30 89 1 15 86
M  V30 90 1 16 87
M  V30 91 1 16 88
M  V30 92 1 16 89
M  V30 93 1 19 90
M  V30 94 1 20 91 CFG=1
M  V30 95 1 21 92
M  V30 96 1 21 93
M  V30 97 1 23 94
M  V30 98 1 24 95
M  V30 99 1 26 96
M  V30 100 1 27 97
M  V30 101 1 28 98
M  V30 102 1 31 99
M  V30 103 1 32 100 CFG=3
M  V30 104 1 33 101
M  V30 105 1 34 102
M  V30 106 1 34 103
M  V30 107 1 34 104
M  V30 108 1 35 105
M  V30 109 1 35 106
M  V30 110 1 36 107
M  V30 111 1 36 108
M  V30 112 1 36 109
M  V30 113 1 39 110
M  V30 114 1 40 111 CFG=3
M  V30 115 1 41 112
M  V30 116 1 41 113
M  V30 117 1 43 114
M  V30 118 1 44 115
M  V30 119 1 45 116
M  V30 120 1 50 117
M  V30 121 1 50 118
M  V30 122 1 51 119
M  V30 123 1 51 120
M  V30 124 1 52 121
M  V30 125 1 52 122
M  V30 126 1 53 123 CFG=3
M  V30 127 1 56 124
M  V30 128 1 57 125 CFG=3
M  V30 129 1 58 126
M  V30 130 1 58 127
M  V30 131 1 60 128
M  V30 132 1 61 129
M  V30 133 1 62 130
M  V30 134 1 63 131
M  V30 135 1 64 132
M  V30 136 1 66 133
M  V30 END BOND
M  V30 END CTAB
M  END
