
     RDKit          3D

  0  0  0  0  0  0  0  0  0  0999 V3000
M  V30 BEGIN CTAB
M  V30 COUNTS 47 47 0 0 0
M  V30 BEGIN ATOM
M  V30 1 C 1.30577 1.20593 -0.811579 0 CFG=2
M  V30 2 C 2.63008 0.592135 -1.08592 0
M  V30 3 C 2.96071 -0.615642 -0.281278 0
M  V30 4 C 2.99259 -0.363769 1.20156 0
M  V30 5 N 4.00411 0.650143 1.47724 0
M  V30 6 C 5.3821 0.361604 1.28774 0
M  V30 7 N 6.18386 1.28806 0.537638 0
M  V30 8 N 5.92997 -0.691234 1.76114 0
M  V30 9 N 0.194608 0.328197 -1.05054 0
M  V30 10 C -0.835418 0.063781 -0.0887097 0
M  V30 11 O -0.702196 0.66101 0.98998 0
M  V30 12 C -1.89255 -0.820494 -0.413063 0 CFG=2
M  V30 13 C -2.33229 -0.917687 -1.86283 0
M  V30 14 C -3.45027 -1.96844 -1.71361 0
M  V30 15 C -3.72714 -2.03779 -0.182288 0
M  V30 16 N -3.18526 -0.759642 0.211581 0
M  V30 17 C -3.79014 0.260694 0.91004 0
M  V30 18 O -3.21515 1.43747 1.00148 0
M  V30 19 C -5.07299 0.277454 1.6382 0
M  V30 20 N -5.77237 -0.948262 1.63295 0
M  V30 21 C 1.15307 2.39955 -1.68559 0
M  V30 22 O 2.07643 3.43506 -1.6824 0
M  V30 23 O 0.169694 2.49491 -2.45622 0
M  V30 24 H 1.26032 1.5631 0.220458 0
M  V30 25 H 2.7872 0.345821 -2.15564 0
M  V30 26 H 3.41244 1.36973 -0.857889 0
M  V30 27 H 2.32385 -1.48772 -0.54659 0
M  V30 28 H 4.00705 -0.920523 -0.576976 0
M  V30 29 H 3.32534 -1.31677 1.67891 0
M  V30 30 H 2.01434 -0.0878445 1.60078 0
M  V30 31 H 3.66437 1.57476 1.81255 0
M  V30 32 H 5.7523 2.12586 0.0984639 0
M  V30 33 H 7.20478 1.13565 0.422726 0
M  V30 34 H 5.34113 -1.35612 2.3032 0
M  V30 35 H 0.116889 -0.15159 -1.97178 0
M  V30 36 H -1.55851 -1.92626 -0.190163 0
M  V30 37 H -2.68942 0.018738 -2.28362 0
M  V30 38 H -1.5446 -1.34285 -2.48868 0
M  V30 39 H -4.36091 -1.53022 -2.16168 0
M  V30 40 H -3.15593 -2.94169 -2.10353 0
M  V30 41 H -3.00935 -2.79714 0.223639 0
M  V30 42 H -4.75282 -2.25621 -0.000293204 0
M  V30 43 H -4.86613 0.584741 2.69585 0
M  V30 44 H -5.6687 1.11072 1.13287 0
M  V30 45 H -6.58988 -0.997851 0.99809 0
M  V30 46 H -5.98217 -1.3411 2.58598 0
M  V30 47 H 1.96118 4.29171 -1.1331 0
M  V30 END ATOM
M  V30 BEGIN BOND
M  V30 1 1 1 2
M  V30 2 1 2 3
M  V30 3 1 3 4
M  V30 4 1 4 5
M  V30 5 1 5 6
M  V30 6 1 6 7
M  V30 7 2 6 8 CFG=2
M  V30 8 1 1 9
M  V30 9 1 9 10
M  V30 10 2 10 11
M  V30 11 1 10 12
M  V30 12 1 12 13
M  V30 13 1 13 14
M  V30 14 1 14 15
M  V30 15 1 15 16
M  V30 16 1 16 17
M  V30 17 2 17 18
M  V30 18 1 17 19
M  V30 19 1 19 20
M  V30 20 1 1 21
M  V30 21 1 21 22
M  V30 22 2 21 23
M  V30 23 1 16 12
M  V30 24 1 1 24 CFG=1
M  V30 25 1 2 25
M  V30 26 1 2 26
M  V30 27 1 3 27
M  V30 28 1 3 28
M  V30 29 1 4 29
M  V30 30 1 4 30
M  V30 31 1 5 31
M  V30 32 1 7 32
M  V30 33 1 7 33
M  V30 34 1 8 34
M  V30 35 1 9 35
M  V30 36 1 12 36 CFG=1
M  V30 37 1 13 37
M  V30 38 1 13 38
M  V30 39 1 14 39
M  V30 40 1 14 40
M  V30 41 1 15 41
M  V30 42 1 15 42
M  V30 43 1 19 43
M  V30 44 1 19 44
M  V30 45 1 20 45
M  V30 46 1 20 46
M  V30 47 1 22 47
M  V30 END BOND
M  V30 END CTAB
M  END
