
     RDKit          3D

  0  0  0  0  0  0  0  0  0  0999 V3000
M  V30 BEGIN CTAB
M  V30 COUNTS 22 22 0 0 0
M  V30 BEGIN ATOM
M  V30 1 N 4.00535 0.884503 0.519104 0
M  V30 2 N 2.63045 0.820174 0.547712 0
M  V30 3 C 1.92106 -0.0303463 -0.0911911 0
M  V30 4 C 0.472681 -0.0386138 -0.0134774 0
M  V30 5 C -0.285982 -0.956858 -0.703703 0
M  V30 6 C -1.66421 -0.94514 -0.61414 0
M  V30 7 C -2.29364 0.00591218 0.183095 0
M  V30 8 C -1.51856 0.925555 0.873489 0
M  V30 9 C -0.146279 0.906374 0.778299 0
M  V30 10 Cl -2.27991 2.12154 1.8743 0
M  V30 11 C -3.77581 -0.00380001 0.261536 0
M  V30 12 N 2.55424 -1.00104 -0.904367 0
M  V30 13 H 4.47554 1.25585 -0.332753 0
M  V30 14 H 4.60037 0.577081 1.31483 0
M  V30 15 H 0.164151 -1.71517 -1.33632 0
M  V30 16 H -2.29086 -1.65735 -1.14727 0
M  V30 17 H 0.406165 1.64584 1.33756 0
M  V30 18 H -4.25146 0.528388 -0.589473 0
M  V30 19 H -4.12915 0.410568 1.24527 0
M  V30 20 H -4.16593 -1.05754 0.236168 0
M  V30 21 H 2.9334 -1.90337 -0.571932 0
M  V30 22 H 2.63837 -0.772552 -1.92478 0
M  V30 END ATOM
M  V30 BEGIN BOND
M  V30 1 1 1 2
M  V30 2 2 2 3 CFG=2
M  V30 3 1 3 4
M  V30 4 2 4 5
M  V30 5 1 5 6
M  V30 6 2 6 7
M  V30 7 1 7 8
M  V30 8 2 8 9
M  V30 9 1 8 10
M  V30 10 1 7 11
M  V30 11 1 3 12
M  V30 12 1 9 4
M  V30 13 1 1 13
M  V30 14 1 1 14
M  V30 15 1 5 15
M  V30 16 1 6 16
M  V30 17 1 9 17
M  V30 18 1 11 18
M  V30 19 1 11 19
M  V30 20 1 11 20
M  V30 21 1 12 21
M  V30 22 1 12 22
M  V30 END BOND
M  V30 END CTAB
M  END
