
     RDKit          3D

  0  0  0  0  0  0  0  0  0  0999 V3000
M  V30 BEGIN CTAB
M  V30 COUNTS 48 48 0 0 0
M  V30 BEGIN ATOM
M  V30 1 C -5.83187 -0.979354 0.0234128 0
M  V30 2 C -4.88274 0.206864 0.178692 0
M  V30 3 C -4.73995 0.951181 -1.12599 0
M  V30 4 C -3.55089 -0.303743 0.632467 0
M  V30 5 C -2.56972 0.816162 0.796281 0 CFG=2
M  V30 6 N -1.31976 0.154535 1.2221 0
M  V30 7 C -0.185237 0.3047 0.402675 0
M  V30 8 O -0.238201 0.967657 -0.635304 0
M  V30 9 C 1.08663 -0.374074 0.844558 0 CFG=1
M  V30 10 O 0.785278 -0.996454 2.09478 0
M  V30 11 C 1.34665 -1.4988 -0.107667 0 CFG=2
M  V30 12 N 2.4162 -2.30559 0.542088 0
M  V30 13 C 1.89675 -0.992326 -1.41376 0
M  V30 14 C 3.17652 -0.324201 -1.209 0
M  V30 15 C 3.31789 1.01628 -1.05063 0
M  V30 16 C 4.56724 1.61016 -0.852912 0
M  V30 17 C 5.66053 0.799753 -0.822089 0
M  V30 18 N 6.9583 1.37223 -0.621295 0
M  V30 19 C 5.57676 -0.566033 -0.977103 0
M  V30 20 C 4.32913 -1.11138 -1.16939 0
M  V30 21 C -2.96579 1.81372 1.79861 0
M  V30 22 O -4.04721 2.64502 1.67005 0
M  V30 23 O -2.27758 1.94022 2.86704 0
M  V30 24 H -5.67942 -1.50771 -0.917009 0
M  V30 25 H -6.88881 -0.66681 0.0731792 0
M  V30 26 H -5.6574 -1.69399 0.844796 0
M  V30 27 H -5.39271 0.874051 0.895815 0
M  V30 28 H -4.88969 2.04421 -1.01959 0
M  V30 29 H -5.43663 0.556488 -1.89784 0
M  V30 30 H -3.72112 0.796493 -1.53675 0
M  V30 31 H -3.16813 -1.08271 -0.0889054 0
M  V30 32 H -3.65651 -0.890959 1.59188 0
M  V30 33 H -2.33756 1.33066 -0.152535 0
M  V30 34 H -1.29214 -0.395354 2.09143 0
M  V30 35 H 1.84189 0.371167 0.974883 0
M  V30 36 H 0.28371 -1.81392 1.8892 0
M  V30 37 H 0.484334 -2.1496 -0.252753 0
M  V30 38 H 2.99284 -1.69831 1.15301 0
M  V30 39 H 1.97217 -3.06665 1.09933 0
M  V30 40 H 2.08301 -1.90607 -2.06028 0
M  V30 41 H 1.23857 -0.313924 -1.96672 0
M  V30 42 H 2.48614 1.71106 -1.06833 0
M  V30 43 H 4.66069 2.69504 -0.726918 0
M  V30 44 H 7.54738 0.934842 0.103577 0
M  V30 45 H 7.25648 2.188 -1.19721 0
M  V30 46 H 6.43527 -1.21344 -0.954178 0
M  V30 47 H 4.25071 -2.18339 -1.29225 0
M  V30 48 H -3.92202 3.56861 1.32656 0
M  V30 END ATOM
M  V30 BEGIN BOND
M  V30 1 1 1 2
M  V30 2 1 2 3
M  V30 3 1 2 4
M  V30 4 1 4 5
M  V30 5 1 5 6
M  V30 6 1 6 7
M  V30 7 2 7 8
M  V30 8 1 7 9
M  V30 9 1 9 10
M  V30 10 1 9 11
M  V30 11 1 11 12
M  V30 12 1 11 13
M  V30 13 1 13 14
M  V30 14 2 14 15
M  V30 15 1 15 16
M  V30 16 2 16 17
M  V30 17 1 17 18
M  V30 18 1 17 19
M  V30 19 2 19 20
M  V30 20 1 5 21
M  V30 21 1 21 22
M  V30 22 2 21 23
M  V30 23 1 20 14
M  V30 24 1 1 24
M  V30 25 1 1 25
M  V30 26 1 1 26
M  V30 27 1 2 27
M  V30 28 1 3 28
M  V30 29 1 3 29
M  V30 30 1 3 30
M  V30 31 1 4 31
M  V30 32 1 4 32
M  V30 33 1 5 33 CFG=3
M  V30 34 1 6 34
M  V30 35 1 9 35 CFG=1
M  V30 36 1 10 36
M  V30 37 1 11 37 CFG=3
M  V30 38 1 12 38
M  V30 39 1 12 39
M  V30 40 1 13 40
M  V30 41 1 13 41
M  V30 42 1 15 42
M  V30 43 1 16 43
M  V30 44 1 18 44
M  V30 45 1 18 45
M  V30 46 1 19 46
M  V30 47 1 20 47
M  V30 48 1 22 48
M  V30 END BOND
M  V30 END CTAB
M  END
