
     RDKit          3D

  0  0  0  0  0  0  0  0  0  0999 V3000
M  V30 BEGIN CTAB
M  V30 COUNTS 26 26 0 0 0
M  V30 BEGIN ATOM
M  V30 1 N 3.95523 0.48998 0.669897 0
M  V30 2 C 3.52913 0.182298 -0.66448 0
M  V30 3 C 2.23226 -0.596365 -0.696268 0
M  V30 4 C 1.10084 0.158138 -0.0522732 0
M  V30 5 C -0.142118 -0.694019 -0.132356 0
M  V30 6 C -1.34188 -0.0356192 0.484173 0
M  V30 7 N -2.46107 -0.92641 0.354192 0
M  V30 8 C -3.42752 -0.392831 -0.295277 0
M  V30 9 N -4.6695 -1.05226 -0.575225 0
M  V30 10 N -3.09644 0.930647 -0.693905 0
M  V30 11 C -1.78239 1.17261 -0.209769 0
M  V30 12 O -1.19598 2.28162 -0.40647 0
M  V30 13 H 3.37152 1.2387 1.11003 0
M  V30 14 H 4.92681 0.869232 0.616125 0
M  V30 15 H 4.31325 -0.452774 -1.12588 0
M  V30 16 H 3.47613 1.1012 -1.27605 0
M  V30 17 H 2.34409 -1.55724 -0.168625 0
M  V30 18 H 1.98024 -0.736741 -1.77458 0
M  V30 19 H 1.00076 1.12562 -0.57438 0
M  V30 20 H 1.32245 0.373325 1.00482 0
M  V30 21 H -0.355966 -1.03263 -1.15679 0
M  V30 22 H 0.0668001 -1.61419 0.462838 0
M  V30 23 H -1.13552 0.18515 1.5499 0
M  V30 24 H -4.76773 -2.08996 -0.517748 0
M  V30 25 H -5.52337 -0.519215 -0.847376 0
M  V30 26 H -3.72001 1.59174 -1.24359 0
M  V30 END ATOM
M  V30 BEGIN BOND
M  V30 1 1 1 2
M  V30 2 1 2 3
M  V30 3 1 3 4
M  V30 4 1 4 5
M  V30 5 1 5 6
M  V30 6 1 6 7
M  V30 7 2 7 8
M  V30 8 1 8 9
M  V30 9 1 8 10
M  V30 10 1 10 11
M  V30 11 2 11 12
M  V30 12 1 11 6
M  V30 13 1 1 13
M  V30 14 1 1 14
M  V30 15 1 2 15
M  V30 16 1 2 16
M  V30 17 1 3 17
M  V30 18 1 3 18
M  V30 19 1 4 19
M  V30 20 1 4 20
M  V30 21 1 5 21
M  V30 22 1 5 22
M  V30 23 1 6 23
M  V30 24 1 9 24
M  V30 25 1 9 25
M  V30 26 1 10 26
M  V30 END BOND
M  V30 END CTAB
M  END
