
     RDKit          3D

  0  0  0  0  0  0  0  0  0  0999 V3000
M  V30 BEGIN CTAB
M  V30 COUNTS 26 26 0 0 0
M  V30 BEGIN ATOM
M  V30 1 N -3.48857 1.22574 0.5186 0
M  V30 2 C -2.46193 0.340489 0.0222137 0
M  V30 3 C -1.32619 0.235528 1.03881 0
M  V30 4 C -0.282105 -0.669732 0.481301 0
M  V30 5 C -0.496295 -2.02689 0.762237 0
M  V30 6 C 0.329623 -2.99666 0.246627 0
M  V30 7 C 1.38947 -2.60166 -0.56506 0
M  V30 8 C 1.57757 -1.27367 -0.822608 0
M  V30 9 C 0.758324 -0.256414 -0.316451 0
M  V30 10 C 1.07657 1.13021 -0.570669 0
M  V30 11 O 0.306687 1.89585 -1.15438 0
M  V30 12 N 2.34111 1.62332 -0.122436 0
M  V30 13 N 2.78609 2.92511 -0.283522 0
M  V30 14 H -3.32905 2.18317 0.148159 0
M  V30 15 H -4.42997 0.837766 0.209892 0
M  V30 16 H -2.07929 0.559994 -0.965793 0
M  V30 17 H -2.9503 -0.691936 0.0250727 0
M  V30 18 H -0.922632 1.23481 1.30906 0
M  V30 19 H -1.76758 -0.20106 1.95733 0
M  V30 20 H -1.31745 -2.35135 1.39039 0
M  V30 21 H 0.190772 -4.04907 0.441621 0
M  V30 22 H 2.02677 -3.37638 -0.967691 0
M  V30 23 H 2.40465 -0.953515 -1.45532 0
M  V30 24 H 3.01064 0.976894 0.366715 0
M  V30 25 H 3.09251 3.26019 0.657075 0
M  V30 26 H 3.56059 3.01927 -0.980612 0
M  V30 END ATOM
M  V30 BEGIN BOND
M  V30 1 1 1 2
M  V30 2 1 2 3
M  V30 3 1 3 4
M  V30 4 2 4 5
M  V30 5 1 5 6
M  V30 6 2 6 7
M  V30 7 1 7 8
M  V30 8 2 8 9
M  V30 9 1 9 10
M  V30 10 2 10 11
M  V30 11 1 10 12
M  V30 12 1 12 13
M  V30 13 1 9 4
M  V30 14 1 1 14
M  V30 15 1 1 15
M  V30 16 1 2 16
M  V30 17 1 2 17
M  V30 18 1 3 18
M  V30 19 1 3 19
M  V30 20 1 5 20
M  V30 21 1 6 21
M  V30 22 1 7 22
M  V30 23 1 8 23
M  V30 24 1 12 24
M  V30 25 1 13 25
M  V30 26 1 13 26
M  V30 END BOND
M  V30 END CTAB
M  END
