
     RDKit          3D

  0  0  0  0  0  0  0  0  0  0999 V3000
M  V30 BEGIN CTAB
M  V30 COUNTS 30 31 0 0 0
M  V30 BEGIN ATOM
M  V30 1 O -5.41076 -1.65457 0.19977 0
M  V30 2 N -4.09144 -1.22636 0.0792758 0
M  V30 3 C -3.81605 -0.0245924 -0.296187 0
M  V30 4 C -2.46452 0.480762 -0.44063 0
M  V30 5 C -2.10474 1.73862 -0.832833 0
M  V30 6 N -0.777757 1.79452 -0.835982 0
M  V30 7 N -0.243866 0.644007 -0.467852 0
M  V30 8 C -1.26422 -0.196328 -0.214331 0
M  V30 9 N -1.17591 -1.53611 0.208563 0
M  V30 10 C 1.15271 0.359564 -0.363035 0
M  V30 11 C 1.76138 -0.640238 -1.08969 0
M  V30 12 C 3.11188 -0.895436 -0.970832 0
M  V30 13 C 3.91169 -0.166843 -0.124656 0
M  V30 14 C 3.3228 0.838426 0.611863 0
M  V30 15 C 1.9748 1.09093 0.491259 0
M  V30 16 C 5.36654 -0.416665 0.0254923 0
M  V30 17 N -4.90237 0.841973 -0.580912 0
M  V30 18 H -6.03578 -1.03973 0.743057 0
M  V30 19 H -2.81899 2.53644 -1.09184 0
M  V30 20 H -1.30908 -1.75727 1.21592 0
M  V30 21 H -0.982692 -2.28593 -0.467231 0
M  V30 22 H 1.15742 -1.24084 -1.77314 0
M  V30 23 H 3.60915 -1.68378 -1.5394 0
M  V30 24 H 3.9085 1.44571 1.29655 0
M  V30 25 H 1.46611 1.8798 1.05735 0
M  V30 26 H 5.63963 -0.189497 1.08599 0
M  V30 27 H 5.65866 -1.44891 -0.16032 0
M  V30 28 H 5.91851 0.33156 -0.597332 0
M  V30 29 H -5.76253 0.58203 -1.07494 0
M  V30 30 H -4.79906 1.83874 -0.247485 0
M  V30 END ATOM
M  V30 BEGIN BOND
M  V30 1 1 1 2
M  V30 2 2 2 3
M  V30 3 1 3 4
M  V30 4 1 4 5
M  V30 5 2 5 6
M  V30 6 1 6 7
M  V30 7 1 7 8
M  V30 8 1 8 9
M  V30 9 1 7 10
M  V30 10 2 10 11
M  V30 11 1 11 12
M  V30 12 2 12 13
M  V30 13 1 13 14
M  V30 14 2 14 15
M  V30 15 1 13 16
M  V30 16 1 3 17
M  V30 17 2 8 4
M  V30 18 1 15 10
M  V30 19 1 1 18
M  V30 20 1 5 19
M  V30 21 1 9 20
M  V30 22 1 9 21
M  V30 23 1 11 22
M  V30 24 1 12 23
M  V30 25 1 14 24
M  V30 26 1 15 25
M  V30 27 1 16 26
M  V30 28 1 16 27
M  V30 29 1 16 28
M  V30 30 1 17 29
M  V30 31 1 17 30
M  V30 END BOND
M  V30 END CTAB
M  END
