
     RDKit          3D

  0  0  0  0  0  0  0  0  0  0999 V3000
M  V30 BEGIN CTAB
M  V30 COUNTS 42 43 0 0 0
M  V30 BEGIN ATOM
M  V30 1 C -3.98771 1.92499 -1.60162 0
M  V30 2 C -2.75864 1.33357 -0.973639 0
M  V30 3 C -2.94549 -0.162662 -0.973507 0 CFG=1
M  V30 4 C -1.82865 -0.899 -0.390922 0
M  V30 5 O -2.09154 -1.71989 0.522674 0
M  V30 6 N -0.475458 -0.755889 -0.779197 0
M  V30 7 C 0.611224 -1.50152 -0.181655 0
M  V30 8 C 1.32121 -2.34131 -1.18038 0
M  V30 9 C 2.57914 -1.7152 -1.68841 0
M  V30 10 C 3.52282 -1.66186 -0.475282 0
M  V30 11 C 2.88506 -0.689723 0.444155 0
M  V30 12 C 1.52136 -0.613991 0.580921 0
M  V30 13 C 0.929332 0.30854 1.45145 0
M  V30 14 C 1.72127 1.15651 2.1853 0
M  V30 15 C 3.0749 1.0907 2.05813 0
M  V30 16 C 3.65477 0.174903 1.19433 0
M  V30 17 N 3.91402 1.95025 2.80023 0
M  V30 18 N -4.19179 -0.540474 -0.355458 0
M  V30 19 C -2.71069 1.82735 0.461022 0
M  V30 20 H -4.13489 2.93302 -1.1986 0
M  V30 21 H -4.83875 1.28832 -1.38157 0
M  V30 22 H -3.86045 1.9879 -2.69022 0
M  V30 23 H -1.84574 1.58329 -1.54196 0
M  V30 24 H -2.99195 -0.457369 -2.06382 0
M  V30 25 H -0.249223 -0.0771559 -1.53605 0
M  V30 26 H 0.13762 -2.1657 0.604049 0
M  V30 27 H 1.61931 -3.32495 -0.711626 0
M  V30 28 H 0.605919 -2.60886 -1.98351 0
M  V30 29 H 2.45177 -0.653178 -1.9912 0
M  V30 30 H 3.01856 -2.25918 -2.51911 0
M  V30 31 H 4.4961 -1.33259 -0.858374 0
M  V30 32 H 3.57158 -2.67943 -0.047618 0
M  V30 33 H -0.14238 0.380191 1.57001 0
M  V30 34 H 1.28758 1.88682 2.87269 0
M  V30 35 H 4.73691 0.102278 1.07438 0
M  V30 36 H 3.59755 2.2703 3.73547 0
M  V30 37 H 4.83185 2.25155 2.40688 0
M  V30 38 H -4.0779 -1.40471 0.240855 0
M  V30 39 H -4.9044 -0.792798 -1.07181 0
M  V30 40 H -1.68744 2.204 0.715123 0
M  V30 41 H -2.96038 1.02339 1.17067 0
M  V30 42 H -3.40639 2.67957 0.630301 0
M  V30 END ATOM
M  V30 BEGIN BOND
M  V30 1 1 1 2
M  V30 2 1 2 3
M  V30 3 1 3 4
M  V30 4 2 4 5
M  V30 5 1 4 6
M  V30 6 1 6 7
M  V30 7 1 7 8
M  V30 8 1 8 9
M  V30 9 1 9 10
M  V30 10 1 10 11
M  V30 11 2 11 12
M  V30 12 1 12 13
M  V30 13 2 13 14
M  V30 14 1 14 15
M  V30 15 2 15 16
M  V30 16 1 15 17
M  V30 17 1 3 18
M  V30 18 1 2 19
M  V30 19 1 12 7
M  V30 20 1 16 11
M  V30 21 1 1 20
M  V30 22 1 1 21
M  V30 23 1 1 22
M  V30 24 1 2 23
M  V30 25 1 3 24 CFG=3
M  V30 26 1 6 25
M  V30 27 1 7 26
M  V30 28 1 8 27
M  V30 29 1 8 28
M  V30 30 1 9 29
M  V30 31 1 9 30
M  V30 32 1 10 31
M  V30 33 1 10 32
M  V30 34 1 13 33
M  V30 35 1 14 34
M  V30 36 1 16 35
M  V30 37 1 17 36
M  V30 38 1 17 37
M  V30 39 1 18 38
M  V30 40 1 18 39
M  V30 41 1 19 40
M  V30 42 1 19 41
M  V30 43 1 19 42
M  V30 END BOND
M  V30 END CTAB
M  END
