
     RDKit          3D

  0  0  0  0  0  0  0  0  0  0999 V3000
M  V30 BEGIN CTAB
M  V30 COUNTS 20 19 0 0 0
M  V30 BEGIN ATOM
M  V30 1 C 0.0400735 0.334787 -2.60713 0
M  V30 2 C -0.319016 0.0810492 -1.48 0
M  V30 3 C -0.783013 -0.237844 -0.107036 0
M  V30 4 N 0.26653 -0.815667 0.693967 0
M  V30 5 C 1.3943 -0.223235 0.772254 0
M  V30 6 N 2.40636 -0.826006 1.57412 0
M  V30 7 N 1.66946 0.990404 0.101282 0
M  V30 8 C -1.89909 -1.24997 -0.291984 0
M  V30 9 C -1.31027 1.00072 0.532036 0
M  V30 10 H 0.345761 0.547078 -3.60251 0
M  V30 11 H 2.65822 -1.81132 1.40004 0
M  V30 12 H 2.84372 -0.214685 2.31058 0
M  V30 13 H 1.18737 1.90211 0.298805 0
M  V30 14 H 2.40254 1.02165 -0.653104 0
M  V30 15 H -2.19766 -1.61919 0.710562 0
M  V30 16 H -1.57862 -2.09504 -0.928019 0
M  V30 17 H -2.75491 -0.724028 -0.747935 0
M  V30 18 H -1.17075 1.87826 -0.144058 0
M  V30 19 H -0.794953 1.16487 1.50841 0
M  V30 20 H -2.40605 0.896065 0.659734 0
M  V30 END ATOM
M  V30 BEGIN BOND
M  V30 1 3 1 2
M  V30 2 1 2 3
M  V30 3 1 3 4
M  V30 4 2 4 5 CFG=2
M  V30 5 1 5 6
M  V30 6 1 5 7
M  V30 7 1 3 8
M  V30 8 1 3 9
M  V30 9 1 1 10
M  V30 10 1 6 11
M  V30 11 1 6 12
M  V30 12 1 7 13
M  V30 13 1 7 14
M  V30 14 1 8 15
M  V30 15 1 8 16
M  V30 16 1 8 17
M  V30 17 1 9 18
M  V30 18 1 9 19
M  V30 19 1 9 20
M  V30 END BOND
M  V30 END CTAB
M  END
