
     RDKit          3D

  0  0  0  0  0  0  0  0  0  0999 V3000
M  V30 BEGIN CTAB
M  V30 COUNTS 34 35 0 0 0
M  V30 BEGIN ATOM
M  V30 1 C -6.07399 0.798581 0.891234 0
M  V30 2 C -4.84999 0.208862 0.226676 0
M  V30 3 O -3.69057 0.697346 0.848864 0
M  V30 4 C -2.43947 0.271412 0.37886 0
M  V30 5 C -1.26644 0.718108 0.951136 0
M  V30 6 C -0.0140709 0.311737 0.503961 0
M  V30 7 C 0.0838695 -0.559564 -0.537102 0
M  V30 8 C -1.10987 -1.00752 -1.11134 0
M  V30 9 C -2.33121 -0.606345 -0.66929 0
M  V30 10 C 1.31258 -1.08447 -1.13488 0
M  V30 11 C 2.55905 -0.701197 -0.47612 0
M  V30 12 C 3.22373 -1.58748 0.352817 0
M  V30 13 N 4.36988 -1.24345 0.96876 0
M  V30 14 C 4.9301 -0.0278912 0.81465 0
M  V30 15 N 4.30237 0.849487 0.0141393 0
M  V30 16 C 3.14466 0.538305 -0.623964 0
M  V30 17 N 2.50089 1.47709 -1.47178 0
M  V30 18 N 6.15038 0.302226 1.48761 0
M  V30 19 H -6.95791 0.524503 0.293972 0
M  V30 20 H -6.22367 0.407729 1.9169 0
M  V30 21 H -6.02941 1.90569 0.926599 0
M  V30 22 H -4.91606 0.430878 -0.853831 0
M  V30 23 H -4.93097 -0.901119 0.320936 0
M  V30 24 H -1.35546 1.41393 1.78234 0
M  V30 25 H 0.886152 0.663266 0.960642 0
M  V30 26 H -1.09541 -1.70864 -1.95098 0
M  V30 27 H -3.23615 -0.976971 -1.1408 0
M  V30 28 H 1.28847 -0.774964 -2.22195 0
M  V30 29 H 1.19155 -2.20606 -1.18507 0
M  V30 30 H 2.7701 -2.56597 0.476001 0
M  V30 31 H 2.48582 1.26786 -2.49418 0
M  V30 32 H 2.08526 2.30837 -1.04302 0
M  V30 33 H 7.00687 0.603144 0.974263 0
M  V30 34 H 6.22892 0.253115 2.52649 0
M  V30 END ATOM
M  V30 BEGIN BOND
M  V30 1 1 1 2
M  V30 2 1 2 3
M  V30 3 1 3 4
M  V30 4 2 4 5
M  V30 5 1 5 6
M  V30 6 2 6 7
M  V30 7 1 7 8
M  V30 8 2 8 9
M  V30 9 1 7 10
M  V30 10 1 10 11
M  V30 11 2 11 12
M  V30 12 1 12 13
M  V30 13 2 13 14
M  V30 14 1 14 15
M  V30 15 2 15 16
M  V30 16 1 16 17
M  V30 17 1 14 18
M  V30 18 1 9 4
M  V30 19 1 16 11
M  V30 20 1 1 19
M  V30 21 1 1 20
M  V30 22 1 1 21
M  V30 23 1 2 22
M  V30 24 1 2 23
M  V30 25 1 5 24
M  V30 26 1 6 25
M  V30 27 1 8 26
M  V30 28 1 9 27
M  V30 29 1 10 28
M  V30 30 1 10 29
M  V30 31 1 12 30
M  V30 32 1 17 31
M  V30 33 1 17 32
M  V30 34 1 18 33
M  V30 35 1 18 34
M  V30 END BOND
M  V30 END CTAB
M  END
