
     RDKit          3D

  0  0  0  0  0  0  0  0  0  0999 V3000
M  V30 BEGIN CTAB
M  V30 COUNTS 28 28 0 0 0
M  V30 BEGIN ATOM
M  V30 1 N 0.0642099 -1.37831 1.52195 0
M  V30 2 C 0.636412 -1.36416 0.191203 0
M  V30 3 C 1.74034 -0.378122 0.167075 0
M  V30 4 N 1.75227 0.85535 0.700955 0
M  V30 5 N 2.89836 1.43037 0.477214 0
M  V30 6 C 3.67854 0.600138 -0.208652 0
M  V30 7 N 2.96654 -0.52307 -0.404234 0
M  V30 8 N 4.99269 0.919745 -0.613527 0
M  V30 9 C -0.413066 -1.10247 -0.853859 0
M  V30 10 C -1.08491 0.187672 -0.666469 0
M  V30 11 C -2.38335 0.337311 -0.455657 0
M  V30 12 C -3.00298 1.67751 -0.273111 0
M  V30 13 C -3.26648 -0.851887 -0.395802 0
M  V30 14 H 0.866401 -1.32442 2.19673 0
M  V30 15 H -0.579551 -0.580305 1.67771 0
M  V30 16 H 1.02275 -2.40935 0.031687 0
M  V30 17 H 0.920003 1.26048 1.22467 0
M  V30 18 H 5.79936 0.383704 -0.246251 0
M  V30 19 H 5.17384 1.69064 -1.28059 0
M  V30 20 H -1.19059 -1.89269 -0.870072 0
M  V30 21 H 0.0316227 -1.12361 -1.88521 0
M  V30 22 H -0.476009 1.08519 -0.705123 0
M  V30 23 H -4.00625 1.72982 -0.771741 0
M  V30 24 H -2.39368 2.49413 -0.696872 0
M  V30 25 H -3.1993 1.85346 0.819219 0
M  V30 26 H -4.33595 -0.589829 -0.362579 0
M  V30 27 H -3.06698 -1.487 0.497191 0
M  V30 28 H -3.14426 -1.50029 -1.30446 0
M  V30 END ATOM
M  V30 BEGIN BOND
M  V30 1 1 1 2
M  V30 2 1 2 3
M  V30 3 1 3 4
M  V30 4 1 4 5
M  V30 5 2 5 6
M  V30 6 1 6 7
M  V30 7 1 6 8
M  V30 8 1 2 9
M  V30 9 1 9 10
M  V30 10 2 10 11 CFG=2
M  V30 11 1 11 12
M  V30 12 1 11 13
M  V30 13 2 7 3
M  V30 14 1 1 14
M  V30 15 1 1 15
M  V30 16 1 2 16
M  V30 17 1 4 17
M  V30 18 1 8 18
M  V30 19 1 8 19
M  V30 20 1 9 20
M  V30 21 1 9 21
M  V30 22 1 10 22
M  V30 23 1 12 23
M  V30 24 1 12 24
M  V30 25 1 12 25
M  V30 26 1 13 26
M  V30 27 1 13 27
M  V30 28 1 13 28
M  V30 END BOND
M  V30 END CTAB
M  END
