
     RDKit          3D

  0  0  0  0  0  0  0  0  0  0999 V3000
M  V30 BEGIN CTAB
M  V30 COUNTS 25 26 0 0 0
M  V30 BEGIN ATOM
M  V30 1 N 5.19209 0.272609 0.00568621 0
M  V30 2 C 3.85475 -0.212739 0.0097362 0
M  V30 3 N 3.47161 -1.50069 0.0437686 0
M  V30 4 N 2.13081 -1.54695 0.0352132 0
M  V30 5 C 1.64734 -0.295578 -0.00415844 0
M  V30 6 N 2.72169 0.511468 -0.0193373 0
M  V30 7 C 0.230291 0.112674 -0.0262798 0
M  V30 8 C -0.129456 1.4433 -0.0670305 0
M  V30 9 C -1.45338 1.84862 -0.0883894 0
M  V30 10 C -2.46578 0.903744 -0.0687898 0
M  V30 11 C -2.11098 -0.429269 -0.0280066 0
M  V30 12 C -0.771604 -0.815958 -0.0070688 0
M  V30 13 C -3.21444 -1.4211 -0.00774894 0
M  V30 14 N -3.81864 1.29603 -0.0899767 0
M  V30 15 H 5.38296 1.2735 0.306395 0
M  V30 16 H 5.99854 -0.290576 -0.273553 0
M  V30 17 H 4.11788 -2.34058 0.0725644 0
M  V30 18 H 0.613781 2.21347 -0.0836096 0
M  V30 19 H -1.73508 2.89358 -0.120391 0
M  V30 20 H -0.526475 -1.86409 0.0247507 0
M  V30 21 H -2.89614 -2.41007 0.337813 0
M  V30 22 H -3.62187 -1.50827 -1.0273 0
M  V30 23 H -4.00068 -1.01171 0.676911 0
M  V30 24 H -4.38952 1.23241 0.764217 0
M  V30 25 H -4.22769 1.64617 -0.968444 0
M  V30 END ATOM
M  V30 BEGIN BOND
M  V30 1 1 1 2
M  V30 2 1 2 3
M  V30 3 1 3 4
M  V30 4 2 4 5
M  V30 5 1 5 6
M  V30 6 1 5 7
M  V30 7 2 7 8
M  V30 8 1 8 9
M  V30 9 2 9 10
M  V30 10 1 10 11
M  V30 11 2 11 12
M  V30 12 1 11 13
M  V30 13 1 10 14
M  V30 14 2 6 2
M  V30 15 1 12 7
M  V30 16 1 1 15
M  V30 17 1 1 16
M  V30 18 1 3 17
M  V30 19 1 8 18
M  V30 20 1 9 19
M  V30 21 1 12 20
M  V30 22 1 13 21
M  V30 23 1 13 22
M  V30 24 1 13 23
M  V30 25 1 14 24
M  V30 26 1 14 25
M  V30 END BOND
M  V30 END CTAB
M  END
