
     RDKit          3D

  0  0  0  0  0  0  0  0  0  0999 V3000
M  V30 BEGIN CTAB
M  V30 COUNTS 23 22 0 0 0
M  V30 BEGIN ATOM
M  V30 1 C -1.83676 -0.285555 0.960571 0
M  V30 2 C -0.695653 0.423201 0.297806 0
M  V30 3 C -1.22468 1.07651 -0.96105 0
M  V30 4 C 0.466279 -0.495649 -0.0223511 0
M  V30 5 C 1.02762 -1.13995 1.22518 0
M  V30 6 N -0.0243785 -1.51456 -0.8986 0
M  V30 7 C 1.47732 0.321529 -0.725845 0
M  V30 8 N 2.08034 1.4583 -0.146182 0
M  V30 9 S 1.9198 -0.10155 -2.23339 0
M  V30 10 H -1.68873 -0.418584 2.05367 0
M  V30 11 H -2.73824 0.372263 0.856798 0
M  V30 12 H -2.0957 -1.24929 0.512004 0
M  V30 13 H -0.382314 1.25319 0.982231 0
M  V30 14 H -0.471315 1.15234 -1.746 0
M  V30 15 H -2.1391 0.54292 -1.32792 0
M  V30 16 H -1.55105 2.13407 -0.737876 0
M  V30 17 H 0.550355 -2.11206 1.4474 0
M  V30 18 H 0.966153 -0.48367 2.11398 0
M  V30 19 H 2.09697 -1.36955 1.00337 0
M  V30 20 H -0.994149 -1.40883 -1.206 0
M  V30 21 H 0.644599 -1.88308 -1.57726 0
M  V30 22 H 1.55954 2.33826 -0.0669947 0
M  V30 23 H 3.05309 1.38975 0.196455 0
M  V30 END ATOM
M  V30 BEGIN BOND
M  V30 1 1 1 2
M  V30 2 1 2 3
M  V30 3 1 2 4
M  V30 4 1 4 5
M  V30 5 1 4 6
M  V30 6 1 4 7
M  V30 7 1 7 8
M  V30 8 2 7 9
M  V30 9 1 1 10
M  V30 10 1 1 11
M  V30 11 1 1 12
M  V30 12 1 2 13
M  V30 13 1 3 14
M  V30 14 1 3 15
M  V30 15 1 3 16
M  V30 16 1 5 17
M  V30 17 1 5 18
M  V30 18 1 5 19
M  V30 19 1 6 20
M  V30 20 1 6 21
M  V30 21 1 8 22
M  V30 22 1 8 23
M  V30 END BOND
M  V30 END CTAB
M  END
