
     RDKit          3D

  0  0  0  0  0  0  0  0  0  0999 V3000
M  V30 BEGIN CTAB
M  V30 COUNTS 23 24 0 0 0
M  V30 BEGIN ATOM
M  V30 1 N 4.61832 -0.380517 -0.175978 0
M  V30 2 C 3.19909 -0.395014 0.0473395 0
M  V30 3 C 2.65238 -1.37404 0.820383 0
M  V30 4 N 1.31903 -1.39738 1.03703 0
M  V30 5 C 0.524475 -0.453725 0.490319 0
M  V30 6 C 1.09514 0.528582 -0.288637 0
M  V30 7 N 2.42417 0.554686 -0.506588 0
M  V30 8 C 0.250031 1.48819 -0.839044 0
M  V30 9 C -1.10519 1.43159 -0.595653 0
M  V30 10 C -1.66815 0.45834 0.175759 0
M  V30 11 C -0.839429 -0.496526 0.725276 0
M  V30 12 S -3.40893 0.4399 0.450101 0
M  V30 13 O -3.87028 1.87363 0.460453 0
M  V30 14 O -3.69385 -0.141022 1.80182 0
M  V30 15 N -4.23037 -0.467705 -0.727216 0
M  V30 16 H 5.02505 0.19043 -0.973269 0
M  V30 17 H 5.26245 -0.923422 0.433563 0
M  V30 18 H 3.23359 -2.15233 1.28243 0
M  V30 19 H 0.700319 2.27539 -1.46222 0
M  V30 20 H -1.7739 2.18043 -1.02378 0
M  V30 21 H -1.26698 -1.28404 1.34528 0
M  V30 22 H -4.75652 -1.27682 -0.345666 0
M  V30 23 H -3.69045 -0.678636 -1.57874 0
M  V30 END ATOM
M  V30 BEGIN BOND
M  V30 1 1 1 2
M  V30 2 2 2 3
M  V30 3 1 3 4
M  V30 4 2 4 5
M  V30 5 1 5 6
M  V30 6 2 6 7
M  V30 7 1 6 8
M  V30 8 2 8 9
M  V30 9 1 9 10
M  V30 10 2 10 11
M  V30 11 1 10 12
M  V30 12 2 12 13
M  V30 13 2 12 14
M  V30 14 1 12 15
M  V30 15 1 7 2
M  V30 16 1 11 5
M  V30 17 1 1 16
M  V30 18 1 1 17
M  V30 19 1 3 18
M  V30 20 1 8 19
M  V30 21 1 9 20
M  V30 22 1 11 21
M  V30 23 1 15 22
M  V30 24 1 15 23
M  V30 END BOND
M  V30 END CTAB
M  END
