
     RDKit          3D

  0  0  0  0  0  0  0  0  0  0999 V3000
M  V30 BEGIN CTAB
M  V30 COUNTS 38 40 0 0 0
M  V30 BEGIN ATOM
M  V30 1 C -5.34746 2.67125 -0.904093 0
M  V30 2 S -5.65697 0.927515 -0.555648 0
M  V30 3 C -4.09671 0.0917142 -0.25929 0
M  V30 4 C -4.16853 -1.27419 0.0265697 0
M  V30 5 C -5.42267 -1.96895 0.0797844 0
M  V30 6 N -6.44992 -2.52983 0.110791 0
M  V30 7 C -2.9724 -1.92554 0.256038 0
M  V30 8 N -3.05809 -3.32494 0.547982 0
M  V30 9 N -1.78807 -1.28343 0.208762 0
M  V30 10 C -1.77296 0.0244234 -0.0690144 0
M  V30 11 N -2.9184 0.72565 -0.305279 0
M  V30 12 N -2.61086 1.97734 -0.548932 0
M  V30 13 C -1.27234 2.12461 -0.478999 0
M  V30 14 C -0.730391 0.892009 -0.175103 0
M  V30 15 N 0.672018 0.698821 -0.0276966 0
M  V30 16 N 1.21895 -0.4434 0.0322574 0
M  V30 17 C 2.63567 -0.598958 0.181081 0
M  V30 18 C 3.17715 -1.53085 1.03966 0
M  V30 19 C 4.53944 -1.68197 1.18423 0
M  V30 20 C 5.4288 -0.893336 0.463289 0
M  V30 21 C 4.85471 0.0280484 -0.385776 0
M  V30 22 C 3.51282 0.184638 -0.535289 0
M  V30 23 C 6.8663 -1.04455 0.608302 0
M  V30 24 O 7.36871 -1.88607 1.38374 0
M  V30 25 O 7.7162 -0.241819 -0.125784 0
M  V30 26 N -0.625715 3.36619 -0.694816 0
M  V30 27 H -4.73419 2.77708 -1.82246 0
M  V30 28 H -4.87867 3.21012 -0.0663455 0
M  V30 29 H -6.33686 3.1618 -1.10249 0
M  V30 30 H -2.38465 -4.02303 0.178047 0
M  V30 31 H -3.82302 -3.68942 1.15862 0
M  V30 32 H 2.52117 -2.16602 1.62056 0
M  V30 33 H 4.98545 -2.4105 1.85555 0
M  V30 34 H 5.53553 0.662633 -0.966045 0
M  V30 35 H 3.10198 0.935722 -1.22718 0
M  V30 36 H 7.68889 0.753486 0.0753482 0
M  V30 37 H 0.287882 3.45107 -1.18559 0
M  V30 38 H -1.06281 4.25267 -0.356796 0
M  V30 END ATOM
M  V30 BEGIN BOND
M  V30 1 1 1 2
M  V30 2 1 2 3
M  V30 3 2 3 4
M  V30 4 1 4 5
M  V30 5 3 5 6
M  V30 6 1 4 7
M  V30 7 1 7 8
M  V30 8 2 7 9
M  V30 9 1 9 10
M  V30 10 1 10 11
M  V30 11 1 11 12
M  V30 12 2 12 13
M  V30 13 1 13 14
M  V30 14 1 14 15
M  V30 15 2 15 16
M  V30 16 1 16 17
M  V30 17 2 17 18
M  V30 18 1 18 19
M  V30 19 2 19 20
M  V30 20 1 20 21
M  V30 21 2 21 22
M  V30 22 1 20 23
M  V30 23 2 23 24
M  V30 24 1 23 25
M  V30 25 1 13 26
M  V30 26 1 11 3
M  V30 27 1 22 17
M  V30 28 2 14 10
M  V30 29 1 1 27
M  V30 30 1 1 28
M  V30 31 1 1 29
M  V30 32 1 8 30
M  V30 33 1 8 31
M  V30 34 1 18 32
M  V30 35 1 19 33
M  V30 36 1 21 34
M  V30 37 1 22 35
M  V30 38 1 25 36
M  V30 39 1 26 37
M  V30 40 1 26 38
M  V30 END BOND
M  V30 END CTAB
M  END
