
     RDKit          3D

  0  0  0  0  0  0  0  0  0  0999 V3000
M  V30 BEGIN CTAB
M  V30 COUNTS 38 39 0 0 0
M  V30 BEGIN ATOM
M  V30 1 N -5.09476 -3.21371 -2.47819 0
M  V30 2 C -4.72019 -2.31684 -1.84593 0
M  V30 3 C -4.22909 -1.20625 -1.0441 0
M  V30 4 C -4.89395 -0.745489 0.0671852 0
M  V30 5 C -4.42104 0.307375 0.821216 0
M  V30 6 C -5.16292 0.745589 1.98118 0
M  V30 7 N -5.7696 1.08085 2.90594 0
M  V30 8 C -3.23787 0.919938 0.44585 0
M  V30 9 N -2.6005 0.455101 -0.645102 0
M  V30 10 C -3.04053 -0.562737 -1.38924 0
M  V30 11 S -2.14813 -1.12728 -2.82255 0
M  V30 12 C -0.969786 -2.42231 -2.4789 0
M  V30 13 C 0.222963 -2.02165 -1.71128 0
M  V30 14 O 0.932634 -2.95433 -1.23218 0
M  V30 15 N 0.608218 -0.691729 -1.48871 0
M  V30 16 C 1.72043 -0.221978 -0.749006 0
M  V30 17 C 2.22151 1.05924 -1.01799 0
M  V30 18 C 3.27832 1.58487 -0.328849 0
M  V30 19 C 3.87624 0.85047 0.65697 0
M  V30 20 C 3.43072 -0.402644 0.962754 0
M  V30 21 C 2.35566 -0.922107 0.252896 0
M  V30 22 S 5.23948 1.50368 1.55009 0
M  V30 23 O 6.11041 0.358621 2.05458 0
M  V30 24 O 6.0702 2.30908 0.609977 0
M  V30 25 N 4.74206 2.38764 2.94402 0
M  V30 26 N -2.7604 2.0098 1.23229 0
M  V30 27 H -5.82329 -1.24078 0.347207 0
M  V30 28 H -1.42836 -3.33512 -2.04253 0
M  V30 29 H -0.582278 -2.77084 -3.48257 0
M  V30 30 H 0.0181547 0.0706154 -1.93167 0
M  V30 31 H 1.7604 1.66822 -1.80325 0
M  V30 32 H 3.6418 2.60032 -0.574845 0
M  V30 33 H 3.92067 -0.973659 1.75402 0
M  V30 34 H 2.02046 -1.91765 0.533177 0
M  V30 35 H 4.49898 1.78379 3.73694 0
M  V30 36 H 5.35902 3.18845 3.14725 0
M  V30 37 H -3.40019 2.66058 1.73819 0
M  V30 38 H -1.74547 2.19017 1.32518 0
M  V30 END ATOM
M  V30 BEGIN BOND
M  V30 1 3 1 2
M  V30 2 1 2 3
M  V30 3 2 3 4
M  V30 4 1 4 5
M  V30 5 1 5 6
M  V30 6 3 6 7
M  V30 7 2 5 8
M  V30 8 1 8 9
M  V30 9 2 9 10
M  V30 10 1 10 11
M  V30 11 1 11 12
M  V30 12 1 12 13
M  V30 13 2 13 14
M  V30 14 1 13 15
M  V30 15 1 15 16
M  V30 16 2 16 17
M  V30 17 1 17 18
M  V30 18 2 18 19
M  V30 19 1 19 20
M  V30 20 2 20 21
M  V30 21 1 19 22
M  V30 22 2 22 23
M  V30 23 2 22 24
M  V30 24 1 22 25
M  V30 25 1 8 26
M  V30 26 1 10 3
M  V30 27 1 21 16
M  V30 28 1 4 27
M  V30 29 1 12 28
M  V30 30 1 12 29
M  V30 31 1 15 30
M  V30 32 1 17 31
M  V30 33 1 18 32
M  V30 34 1 20 33
M  V30 35 1 21 34
M  V30 36 1 25 35
M  V30 37 1 25 36
M  V30 38 1 26 37
M  V30 39 1 26 38
M  V30 END BOND
M  V30 END CTAB
M  END
