
     RDKit          3D

  0  0  0  0  0  0  0  0  0  0999 V3000
M  V30 BEGIN CTAB
M  V30 COUNTS 29 29 0 0 0
M  V30 BEGIN ATOM
M  V30 1 N 4.33671 0.478296 -1.13621 0
M  V30 2 C 3.0296 0.203205 -0.602846 0
M  V30 3 C 1.88982 0.707865 -1.18654 0
M  V30 4 C 0.622459 0.444012 -0.671979 0
M  V30 5 C 0.458377 -0.339058 0.451095 0
M  V30 6 C 1.60585 -0.840459 1.02919 0
M  V30 7 C 2.86504 -0.579124 0.519101 0
M  V30 8 N 4.04282 -1.1112 1.13853 0
M  V30 9 F 1.49286 -1.6153 2.13606 0
M  V30 10 S -1.12848 -0.723549 1.17202 0
M  V30 11 C -2.50254 -0.00380787 0.29413 0
M  V30 12 C -2.67457 -0.586427 -1.09615 0
M  V30 13 C -2.48279 1.49202 0.201407 0
M  V30 14 C -3.77334 -0.386737 1.06403 0
M  V30 15 H 5.17253 0.630764 -0.549741 0
M  V30 16 H 4.41876 0.520386 -2.16581 0
M  V30 17 H 2.02404 1.31971 -2.06361 0
M  V30 18 H -0.265583 0.85082 -1.14532 0
M  V30 19 H 4.92778 -1.18587 0.594833 0
M  V30 20 H 4.02628 -1.42728 2.13322 0
M  V30 21 H -3.48139 -1.37075 -1.12336 0
M  V30 22 H -3.03083 0.198795 -1.80688 0
M  V30 23 H -1.73159 -1.01344 -1.47447 0
M  V30 24 H -2.44235 1.82494 -0.875698 0
M  V30 25 H -3.43638 1.96094 0.58478 0
M  V30 26 H -1.66929 1.96646 0.787893 0
M  V30 27 H -3.63764 -0.243558 2.15728 0
M  V30 28 H -4.61819 0.273665 0.778345 0
M  V30 29 H -4.03795 -1.44529 0.856704 0
M  V30 END ATOM
M  V30 BEGIN BOND
M  V30 1 1 1 2
M  V30 2 2 2 3
M  V30 3 1 3 4
M  V30 4 2 4 5
M  V30 5 1 5 6
M  V30 6 2 6 7
M  V30 7 1 7 8
M  V30 8 1 6 9
M  V30 9 1 5 10
M  V30 10 1 10 11
M  V30 11 1 11 12
M  V30 12 1 11 13
M  V30 13 1 11 14
M  V30 14 1 7 2
M  V30 15 1 1 15
M  V30 16 1 1 16
M  V30 17 1 3 17
M  V30 18 1 4 18
M  V30 19 1 8 19
M  V30 20 1 8 20
M  V30 21 1 12 21
M  V30 22 1 12 22
M  V30 23 1 12 23
M  V30 24 1 13 24
M  V30 25 1 13 25
M  V30 26 1 13 26
M  V30 27 1 14 27
M  V30 28 1 14 28
M  V30 29 1 14 29
M  V30 END BOND
M  V30 END CTAB
M  END
