
     RDKit          3D

  0  0  0  0  0  0  0  0  0  0999 V3000
M  V30 BEGIN CTAB
M  V30 COUNTS 46 47 0 0 0
M  V30 BEGIN ATOM
M  V30 1 N 6.49051 2.5282 1.29635 0
M  V30 2 C 6.71187 1.43515 0.42924 0
M  V30 3 N 7.88979 1.22006 -0.0268843 0
M  V30 4 C 5.61495 0.567157 0.0609819 0
M  V30 5 C 4.33855 0.770852 0.533471 0
M  V30 6 C 3.293 -0.0641557 0.176765 0
M  V30 7 C 3.49207 -1.12865 -0.662576 0
M  V30 8 O 2.54616 -2.0012 -1.06751 0
M  V30 9 C 1.20652 -2.15264 -0.808444 0
M  V30 10 C 0.909538 -2.46737 0.628804 0
M  V30 11 C -0.561377 -2.6362 0.825173 0
M  V30 12 C -1.29354 -1.37401 0.459529 0
M  V30 13 O -2.67632 -1.65001 0.715324 0
M  V30 14 C -3.61389 -0.643294 0.464008 0
M  V30 15 C -4.95651 -0.85038 0.69073 0
M  V30 16 C -5.87975 0.141532 0.443049 0
M  V30 17 C -5.51825 1.3941 -0.0438193 0
M  V30 18 C -4.17417 1.59301 -0.267801 0
M  V30 19 C -3.23406 0.589321 -0.0178501 0
M  V30 20 C -6.52576 2.41914 -0.293651 0
M  V30 21 N -7.88697 2.11299 -0.0295553 0
M  V30 22 N -6.28587 3.59668 -0.739944 0
M  V30 23 C 4.77901 -1.34825 -1.15006 0
M  V30 24 C 5.79672 -0.51184 -0.785788 0
M  V30 25 H 6.2518 2.31125 2.29385 0
M  V30 26 H 6.54751 3.52699 1.01588 0
M  V30 27 H 8.69809 1.83163 0.223672 0
M  V30 28 H 4.13832 1.6006 1.19985 0
M  V30 29 H 2.30907 0.170668 0.575599 0
M  V30 30 H 0.739186 -2.96668 -1.41251 0
M  V30 31 H 0.656702 -1.19618 -1.03377 0
M  V30 32 H 1.36607 -3.49691 0.858151 0
M  V30 33 H 1.36232 -1.74984 1.3318 0
M  V30 34 H -0.834464 -2.91201 1.86594 0
M  V30 35 H -0.93332 -3.4272 0.128351 0
M  V30 36 H -1.00515 -0.500951 1.04449 0
M  V30 37 H -1.25385 -1.18272 -0.645073 0
M  V30 38 H -5.25892 -1.81484 1.06834 0
M  V30 39 H -6.95172 -0.0108784 0.61947 0
M  V30 40 H -3.81534 2.54285 -0.646662 0
M  V30 41 H -2.17076 0.753546 -0.197491 0
M  V30 42 H -8.2611 2.0276 0.934532 0
M  V30 43 H -8.52817 1.97008 -0.833622 0
M  V30 44 H -5.30407 3.86084 -0.945852 0
M  V30 45 H 4.99141 -2.16545 -1.81023 0
M  V30 46 H 6.79418 -0.712619 -1.18632 0
M  V30 END ATOM
M  V30 BEGIN BOND
M  V30 1 1 1 2
M  V30 2 2 2 3 CFG=2
M  V30 3 1 2 4
M  V30 4 2 4 5
M  V30 5 1 5 6
M  V30 6 2 6 7
M  V30 7 1 7 8
M  V30 8 1 8 9
M  V30 9 1 9 10
M  V30 10 1 10 11
M  V30 11 1 11 12
M  V30 12 1 12 13
M  V30 13 1 13 14
M  V30 14 2 14 15
M  V30 15 1 15 16
M  V30 16 2 16 17
M  V30 17 1 17 18
M  V30 18 2 18 19
M  V30 19 1 17 20
M  V30 20 1 20 21
M  V30 21 2 20 22 CFG=2
M  V30 22 1 7 23
M  V30 23 2 23 24
M  V30 24 1 24 4
M  V30 25 1 19 14
M  V30 26 1 1 25
M  V30 27 1 1 26
M  V30 28 1 3 27
M  V30 29 1 5 28
M  V30 30 1 6 29
M  V30 31 1 9 30
M  V30 32 1 9 31
M  V30 33 1 10 32
M  V30 34 1 10 33
M  V30 35 1 11 34
M  V30 36 1 11 35
M  V30 37 1 12 36
M  V30 38 1 12 37
M  V30 39 1 15 38
M  V30 40 1 16 39
M  V30 41 1 18 40
M  V30 42 1 19 41
M  V30 43 1 21 42
M  V30 44 1 21 43
M  V30 45 1 22 44
M  V30 46 1 23 45
M  V30 47 1 24 46
M  V30 END BOND
M  V30 END CTAB
M  END
