
     RDKit          3D

  0  0  0  0  0  0  0  0  0  0999 V3000
M  V30 BEGIN CTAB
M  V30 COUNTS 41 41 0 0 0
M  V30 BEGIN ATOM
M  V30 1 C -5.9974 -0.343262 0.666559 0
M  V30 2 C -5.00679 -1.15941 -0.0933443 0
M  V30 3 C -3.58174 -1.09242 0.283512 0
M  V30 4 C -2.95489 0.236223 0.104873 0
M  V30 5 C -1.48374 0.163207 0.484007 0
M  V30 6 O -1.23724 -0.166564 1.64622 0
M  V30 7 N -0.52075 0.462734 -0.469537 0
M  V30 8 C 0.895471 0.458515 -0.316207 0
M  V30 9 C 1.72268 0.525587 -1.44884 0
M  V30 10 C 3.094 0.536518 -1.34208 0
M  V30 11 C 3.74176 0.482826 -0.127523 0
M  V30 12 C 2.95111 0.417008 0.993251 0
M  V30 13 C 1.55136 0.405878 0.888113 0
M  V30 14 C 5.23157 0.495525 -0.0400332 0
M  V30 15 S 5.90511 -1.1427 -0.0842582 0
M  V30 16 O 5.34767 -1.91551 1.06483 0
M  V30 17 O 5.52443 -1.80343 -1.39149 0
M  V30 18 N 7.62458 -0.997382 0.0233821 0
M  V30 19 N -3.03608 0.630422 -1.2672 0
M  V30 20 C -3.49665 1.35339 0.957736 0
M  V30 21 H -5.78884 -0.456495 1.76277 0
M  V30 22 H -7.0486 -0.738106 0.507834 0
M  V30 23 H -5.9909 0.730409 0.434513 0
M  V30 24 H -5.15199 -0.939055 -1.21068 0
M  V30 25 H -5.38877 -2.24077 -0.0519274 0
M  V30 26 H -3.02739 -1.80627 -0.392328 0
M  V30 27 H -3.39885 -1.51498 1.3087 0
M  V30 28 H -0.836651 0.745749 -1.46996 0
M  V30 29 H 1.2254 0.56696 -2.41618 0
M  V30 30 H 3.72072 0.588957 -2.23152 0
M  V30 31 H 3.41419 0.373486 1.9638 0
M  V30 32 H 0.97256 0.361921 1.80838 0
M  V30 33 H 5.69273 1.05763 -0.885834 0
M  V30 34 H 5.59593 0.974125 0.887767 0
M  V30 35 H 7.85313 -0.136897 0.554521 0
M  V30 36 H 7.98992 -1.80824 0.570607 0
M  V30 37 H -2.65695 1.57756 -1.41602 0
M  V30 38 H -2.62152 -0.0224434 -1.94572 0
M  V30 39 H -4.06176 1.06147 1.83321 0
M  V30 40 H -2.65047 1.99237 1.3677 0
M  V30 41 H -4.11638 2.08547 0.369647 0
M  V30 END ATOM
M  V30 BEGIN BOND
M  V30 1 1 1 2
M  V30 2 1 2 3
M  V30 3 1 3 4
M  V30 4 1 4 5
M  V30 5 2 5 6
M  V30 6 1 5 7
M  V30 7 1 7 8
M  V30 8 2 8 9
M  V30 9 1 9 10
M  V30 10 2 10 11
M  V30 11 1 11 12
M  V30 12 2 12 13
M  V30 13 1 11 14
M  V30 14 1 14 15
M  V30 15 2 15 16
M  V30 16 2 15 17
M  V30 17 1 15 18
M  V30 18 1 4 19
M  V30 19 1 4 20
M  V30 20 1 13 8
M  V30 21 1 1 21
M  V30 22 1 1 22
M  V30 23 1 1 23
M  V30 24 1 2 24
M  V30 25 1 2 25
M  V30 26 1 3 26
M  V30 27 1 3 27
M  V30 28 1 7 28
M  V30 29 1 9 29
M  V30 30 1 10 30
M  V30 31 1 12 31
M  V30 32 1 13 32
M  V30 33 1 14 33
M  V30 34 1 14 34
M  V30 35 1 18 35
M  V30 36 1 18 36
M  V30 37 1 19 37
M  V30 38 1 19 38
M  V30 39 1 20 39
M  V30 40 1 20 40
M  V30 41 1 20 41
M  V30 END BOND
M  V30 END CTAB
M  END
