
     RDKit          3D

  0  0  0  0  0  0  0  0  0  0999 V3000
M  V30 BEGIN CTAB
M  V30 COUNTS 39 39 0 0 0
M  V30 BEGIN ATOM
M  V30 1 C 2.30813 -2.16895 -0.939756 0
M  V30 2 C 2.50498 -1.69478 0.47084 0
M  V30 3 C 1.29101 -1.06491 1.06769 0
M  V30 4 C 0.786685 0.14747 0.328435 0
M  V30 5 C 1.87492 1.16264 0.322419 0
M  V30 6 C 1.57654 2.45122 -0.359684 0
M  V30 7 C 0.424774 3.21727 0.228503 0
M  V30 8 O 0.338512 -0.149617 -0.943794 0
M  V30 9 C -1.02781 -0.00323742 -0.985845 0 CFG=1
M  V30 10 C -1.75315 -0.965112 -1.86836 0
M  V30 11 N -1.60253 -2.34332 -1.54338 0
M  V30 12 C -1.39117 -0.140832 0.471227 0 CFG=2
M  V30 13 C -2.73437 0.474435 0.782196 0
M  V30 14 N -2.98609 0.521805 2.20822 0
M  V30 15 O -0.346097 0.580996 1.04977 0
M  V30 16 H 3.16361 -2.84006 -1.17343 0
M  V30 17 H 1.36623 -2.70577 -0.995399 0
M  V30 18 H 2.40065 -1.3034 -1.6248 0
M  V30 19 H 3.40937 -1.0658 0.48835 0
M  V30 20 H 2.7984 -2.61597 1.05786 0
M  V30 21 H 0.520297 -1.82705 1.24962 0
M  V30 22 H 1.596 -0.692862 2.09027 0
M  V30 23 H 2.73178 0.697715 -0.249038 0
M  V30 24 H 2.19618 1.40476 1.36588 0
M  V30 25 H 1.37538 2.34892 -1.44478 0
M  V30 26 H 2.48747 3.09983 -0.293271 0
M  V30 27 H -0.527818 3.00969 -0.254455 0
M  V30 28 H 0.624548 4.32204 0.165339 0
M  V30 29 H 0.346786 2.92319 1.31235 0
M  V30 30 H -1.3305 1.01676 -1.30766 0
M  V30 31 H -2.83462 -0.714689 -1.80852 0
M  V30 32 H -1.45289 -0.749048 -2.91575 0
M  V30 33 H -2.45495 -2.89566 -1.67557 0
M  V30 34 H -1.02886 -2.56052 -0.725371 0
M  V30 35 H -1.36117 -1.20796 0.764302 0
M  V30 36 H -2.77425 1.46302 0.308731 0
M  V30 37 H -3.54143 -0.133898 0.335861 0
M  V30 38 H -3.3859 -0.358437 2.57567 0
M  V30 39 H -3.58866 1.36011 2.46534 0
M  V30 END ATOM
M  V30 BEGIN BOND
M  V30 1 1 1 2
M  V30 2 1 2 3
M  V30 3 1 3 4
M  V30 4 1 4 5
M  V30 5 1 5 6
M  V30 6 1 6 7
M  V30 7 1 4 8
M  V30 8 1 8 9
M  V30 9 1 9 10
M  V30 10 1 10 11
M  V30 11 1 9 12
M  V30 12 1 12 13
M  V30 13 1 13 14
M  V30 14 1 12 15
M  V30 15 1 15 4
M  V30 16 1 1 16
M  V30 17 1 1 17
M  V30 18 1 1 18
M  V30 19 1 2 19
M  V30 20 1 2 20
M  V30 21 1 3 21
M  V30 22 1 3 22
M  V30 23 1 5 23
M  V30 24 1 5 24
M  V30 25 1 6 25
M  V30 26 1 6 26
M  V30 27 1 7 27
M  V30 28 1 7 28
M  V30 29 1 7 29
M  V30 30 1 9 30 CFG=3
M  V30 31 1 10 31
M  V30 32 1 10 32
M  V30 33 1 11 33
M  V30 34 1 11 34
M  V30 35 1 12 35 CFG=1
M  V30 36 1 13 36
M  V30 37 1 13 37
M  V30 38 1 14 38
M  V30 39 1 14 39
M  V30 END BOND
M  V30 END CTAB
M  END
