
     RDKit          3D

  0  0  0  0  0  0  0  0  0  0999 V3000
M  V30 BEGIN CTAB
M  V30 COUNTS 27 28 0 0 0
M  V30 BEGIN ATOM
M  V30 1 N 4.49965 0.784559 -1.00876 0
M  V30 2 C 3.30546 0.256124 -0.455601 0
M  V30 3 N 2.45018 -0.520129 -1.15795 0
M  V30 4 C 1.32362 -1.00704 -0.603306 0
M  V30 5 C 0.359302 -1.87033 -1.31874 0
M  V30 6 S -0.918395 -1.01213 -2.21616 0
M  V30 7 C -1.97318 -0.148634 -1.06821 0
M  V30 8 C -3.04685 -0.804323 -0.454692 0
M  V30 9 C -3.8944 -0.170215 0.427339 0
M  V30 10 C -3.7138 1.16018 0.74545 0
M  V30 11 C -2.65471 1.82082 0.144415 0
M  V30 12 C -1.80708 1.17953 -0.740386 0
M  V30 13 Br -0.399874 2.17383 -1.53144 0
M  V30 14 N 1.06979 -0.697381 0.680419 0
M  V30 15 C 1.88628 0.0703319 1.42456 0
M  V30 16 N 3.00073 0.526119 0.804416 0
M  V30 17 N 1.60279 0.385823 2.775 0
M  V30 18 H 5.18239 0.173874 -1.52338 0
M  V30 19 H 4.76672 1.79193 -0.939155 0
M  V30 20 H -0.155485 -2.52738 -0.5561 0
M  V30 21 H 0.979121 -2.52122 -2.00053 0
M  V30 22 H -3.18119 -1.8521 -0.711453 0
M  V30 23 H -4.73075 -0.692447 0.900971 0
M  V30 24 H -4.37097 1.66583 1.43379 0
M  V30 25 H -2.52944 2.87727 0.411046 0
M  V30 26 H 2.31293 0.754729 3.41747 0
M  V30 27 H 0.637161 0.235471 3.12098 0
M  V30 END ATOM
M  V30 BEGIN BOND
M  V30 1 1 1 2
M  V30 2 2 2 3
M  V30 3 1 3 4
M  V30 4 1 4 5
M  V30 5 1 5 6
M  V30 6 1 6 7
M  V30 7 2 7 8
M  V30 8 1 8 9
M  V30 9 2 9 10
M  V30 10 1 10 11
M  V30 11 2 11 12
M  V30 12 1 12 13
M  V30 13 2 4 14
M  V30 14 1 14 15
M  V30 15 2 15 16
M  V30 16 1 15 17
M  V30 17 1 16 2
M  V30 18 1 12 7
M  V30 19 1 1 18
M  V30 20 1 1 19
M  V30 21 1 5 20
M  V30 22 1 5 21
M  V30 23 1 8 22
M  V30 24 1 9 23
M  V30 25 1 10 24
M  V30 26 1 11 25
M  V30 27 1 17 26
M  V30 28 1 17 27
M  V30 END BOND
M  V30 END CTAB
M  END
