
     RDKit          3D

  0  0  0  0  0  0  0  0  0  0999 V3000
M  V30 BEGIN CTAB
M  V30 COUNTS 35 35 0 0 0
M  V30 BEGIN ATOM
M  V30 1 N -4.65843 2.34358 0.261069 0
M  V30 2 C -3.72731 1.30616 0.601879 0
M  V30 3 C -3.27554 0.478925 -0.597581 0
M  V30 4 C -2.33501 -0.55738 -0.0990953 0
M  V30 5 O -2.83993 -1.65327 0.256921 0
M  V30 6 N -0.93015 -0.393502 0.0051639 0
M  V30 7 C -0.155841 -1.46212 0.519474 0
M  V30 8 C 1.31057 -1.35473 0.351599 0
M  V30 9 C 2.08325 -2.48423 0.651086 0
M  V30 10 C 3.45214 -2.49925 0.535488 0
M  V30 11 C 4.13015 -1.38877 0.115419 0
M  V30 12 C 3.39687 -0.27274 -0.182521 0
M  V30 13 C 1.99999 -0.245619 -0.0687439 0
M  V30 14 S 4.23907 1.14914 -0.722649 0
M  V30 15 O 3.39559 1.96667 -1.67627 0
M  V30 16 O 5.52624 0.801689 -1.44322 0
M  V30 17 N 4.70119 2.12635 0.621713 0
M  V30 18 C -4.47492 -0.0794525 -1.29918 0
M  V30 19 H -4.74007 2.59282 -0.714231 0
M  V30 20 H -4.59103 3.18006 0.863319 0
M  V30 21 H -2.85207 1.80505 1.08271 0
M  V30 22 H -4.15872 0.638439 1.38715 0
M  V30 23 H -2.78022 1.18382 -1.31236 0
M  V30 24 H -0.514898 0.497127 -0.301169 0
M  V30 25 H -0.457354 -2.43648 0.0939354 0
M  V30 26 H -0.324898 -1.58175 1.63164 0
M  V30 27 H 1.55717 -3.36347 0.980486 0
M  V30 28 H 4.04809 -3.38113 0.769929 0
M  V30 29 H 5.2196 -1.41775 0.0261876 0
M  V30 30 H 1.44527 0.636341 -0.309263 0
M  V30 31 H 5.33629 2.88705 0.253587 0
M  V30 32 H 5.34647 1.51644 1.20536 0
M  V30 33 H -5.0176 0.778105 -1.78468 0
M  V30 34 H -5.2027 -0.587621 -0.651848 0
M  V30 35 H -4.15126 -0.7285 -2.16693 0
M  V30 END ATOM
M  V30 BEGIN BOND
M  V30 1 1 1 2
M  V30 2 1 2 3
M  V30 3 1 3 4
M  V30 4 2 4 5
M  V30 5 1 4 6
M  V30 6 1 6 7
M  V30 7 1 7 8
M  V30 8 2 8 9
M  V30 9 1 9 10
M  V30 10 2 10 11
M  V30 11 1 11 12
M  V30 12 2 12 13
M  V30 13 1 12 14
M  V30 14 2 14 15
M  V30 15 2 14 16
M  V30 16 1 14 17
M  V30 17 1 3 18
M  V30 18 1 13 8
M  V30 19 1 1 19
M  V30 20 1 1 20
M  V30 21 1 2 21
M  V30 22 1 2 22
M  V30 23 1 3 23
M  V30 24 1 6 24
M  V30 25 1 7 25
M  V30 26 1 7 26
M  V30 27 1 9 27
M  V30 28 1 10 28
M  V30 29 1 11 29
M  V30 30 1 13 30
M  V30 31 1 17 31
M  V30 32 1 17 32
M  V30 33 1 18 33
M  V30 34 1 18 34
M  V30 35 1 18 35
M  V30 END BOND
M  V30 END CTAB
M  END
