
     RDKit          3D

  0  0  0  0  0  0  0  0  0  0999 V3000
M  V30 BEGIN CTAB
M  V30 COUNTS 29 29 0 0 0
M  V30 BEGIN ATOM
M  V30 1 C 3.99956 -0.233503 1.24191 0
M  V30 2 O 2.88874 -0.0140951 0.370264 0
M  V30 3 C 2.71399 -0.722702 -0.805836 0
M  V30 4 O 3.5774 -1.5876 -1.10395 0
M  V30 5 C 1.57817 -0.527916 -1.73556 0
M  V30 6 C 0.456067 0.19695 -1.11567 0
M  V30 7 C 0.177483 1.52103 -1.36621 0
M  V30 8 C -0.8663 2.2194 -0.796785 0
M  V30 9 C -1.66474 1.49226 0.0849219 0
M  V30 10 C -1.43807 0.162317 0.37753 0
M  V30 11 C -0.381612 -0.480074 -0.221536 0
M  V30 12 N -0.181247 -1.84402 0.107821 0
M  V30 13 O -2.26913 -0.451088 1.24376 0
M  V30 14 C -3.46775 -1.12574 0.969712 0
M  V30 15 F -3.52458 -2.36845 1.57185 0
M  V30 16 F -4.46796 -0.365623 1.59024 0
M  V30 17 N -2.75046 2.17416 0.688625 0
M  V30 18 H 4.15207 -1.30531 1.45501 0
M  V30 19 H 4.95251 0.137823 0.793242 0
M  V30 20 H 3.80779 0.379647 2.15533 0
M  V30 21 H 1.2033 -1.55698 -1.98157 0
M  V30 22 H 1.96669 -0.0310314 -2.64564 0
M  V30 23 H 0.833371 2.05657 -2.07138 0
M  V30 24 H -1.06512 3.25726 -1.00737 0
M  V30 25 H -0.764294 -2.59478 -0.307704 0
M  V30 26 H 0.565952 -2.10766 0.778188 0
M  V30 27 H -3.72956 -1.13636 -0.0957232 0
M  V30 28 H -3.69554 2.18185 0.238309 0
M  V30 29 H -2.60672 2.67365 1.58821 0
M  V30 END ATOM
M  V30 BEGIN BOND
M  V30 1 1 1 2
M  V30 2 1 2 3
M  V30 3 2 3 4
M  V30 4 1 3 5
M  V30 5 1 5 6
M  V30 6 2 6 7
M  V30 7 1 7 8
M  V30 8 2 8 9
M  V30 9 1 9 10
M  V30 10 2 10 11
M  V30 11 1 11 12
M  V30 12 1 10 13
M  V30 13 1 13 14
M  V30 14 1 14 15
M  V30 15 1 14 16
M  V30 16 1 9 17
M  V30 17 1 11 6
M  V30 18 1 1 18
M  V30 19 1 1 19
M  V30 20 1 1 20
M  V30 21 1 5 21
M  V30 22 1 5 22
M  V30 23 1 7 23
M  V30 24 1 8 24
M  V30 25 1 12 25
M  V30 26 1 12 26
M  V30 27 1 14 27
M  V30 28 1 17 28
M  V30 29 1 17 29
M  V30 END BOND
M  V30 END CTAB
M  END
