
     RDKit          3D

  0  0  0  0  0  0  0  0  0  0999 V3000
M  V30 BEGIN CTAB
M  V30 COUNTS 28 29 0 0 0
M  V30 BEGIN ATOM
M  V30 1 O -4.98846 1.2245 -1.53767 0
M  V30 2 C -4.17797 0.338043 -0.844514 0
M  V30 3 C -4.68034 -0.902284 -0.514233 0
M  V30 4 C -3.88811 -1.79658 0.175117 0
M  V30 5 C -2.60002 -1.45729 0.534504 0
M  V30 6 C -2.07677 -0.22297 0.214933 0
M  V30 7 C -2.87247 0.658129 -0.470172 0
M  V30 8 C -0.710777 0.0743387 0.62265 0
M  V30 9 N -0.140561 1.20956 0.363481 0
M  V30 10 N 1.17137 1.50704 0.749993 0
M  V30 11 C 2.18644 0.791276 0.380094 0
M  V30 12 C 3.55081 1.11688 0.793522 0
M  V30 13 N 3.9649 2.12148 1.55952 0
M  V30 14 O 5.24867 2.08019 1.70269 0
M  V30 15 N 5.69026 1.06181 1.04183 0
M  V30 16 C 4.66824 0.416065 0.447972 0
M  V30 17 N 4.74654 -0.754142 -0.369017 0
M  V30 18 N 1.90233 -0.323102 -0.446095 0
M  V30 19 H -5.56086 1.84824 -0.956761 0
M  V30 20 H -5.7112 -1.15086 -0.8116 0
M  V30 21 H -4.29487 -2.76548 0.427531 0
M  V30 22 H -1.99985 -2.18124 1.07646 0
M  V30 23 H -2.47371 1.61681 -0.72137 0
M  V30 24 H -0.106115 -0.640063 1.1624 0
M  V30 25 H 5.19491 -0.750684 -1.30706 0
M  V30 26 H 4.35039 -1.67396 -0.0516329 0
M  V30 27 H 1.63073 -0.171664 -1.43511 0
M  V30 28 H 1.9765 -1.27405 -0.0271055 0
M  V30 END ATOM
M  V30 BEGIN BOND
M  V30 1 1 1 2
M  V30 2 2 2 3
M  V30 3 1 3 4
M  V30 4 2 4 5
M  V30 5 1 5 6
M  V30 6 2 6 7
M  V30 7 1 6 8
M  V30 8 2 8 9
M  V30 9 1 9 10
M  V30 10 2 10 11
M  V30 11 1 11 12
M  V30 12 2 12 13
M  V30 13 1 13 14
M  V30 14 1 14 15
M  V30 15 2 15 16
M  V30 16 1 16 17
M  V30 17 1 11 18
M  V30 18 1 7 2
M  V30 19 1 16 12
M  V30 20 1 1 19
M  V30 21 1 3 20
M  V30 22 1 4 21
M  V30 23 1 5 22
M  V30 24 1 7 23
M  V30 25 1 8 24
M  V30 26 1 17 25
M  V30 27 1 17 26
M  V30 28 1 18 27
M  V30 29 1 18 28
M  V30 END BOND
M  V30 END CTAB
M  END
