
     RDKit          3D

  0  0  0  0  0  0  0  0  0  0999 V3000
M  V30 BEGIN CTAB
M  V30 COUNTS 45 47 0 0 0
M  V30 BEGIN ATOM
M  V30 1 C -3.52969 -0.909118 1.36416 0
M  V30 2 C -3.8075 0.340356 0.539079 0
M  V30 3 C -3.54659 1.56895 1.41432 0
M  V30 4 N -5.17923 0.406209 0.142057 0
M  V30 5 C -5.60161 0.476625 -1.06501 0
M  V30 6 N -6.99002 0.539705 -1.38963 0
M  V30 7 N -4.68426 0.495697 -2.16449 0
M  V30 8 C -3.42978 0.441312 -1.92728 0
M  V30 9 N -2.48855 0.459454 -3.02457 0
M  V30 10 N -2.93288 0.362854 -0.601712 0
M  V30 11 C -1.4991 0.306102 -0.44634 0
M  V30 12 C -0.733299 1.4449 -0.313657 0
M  V30 13 C 0.632027 1.33235 -0.1682 0
M  V30 14 C 1.27259 0.112463 -0.149574 0
M  V30 15 O 2.66601 0.0447806 0.000882548 0
M  V30 16 C 3.35511 -1.18074 0.0246105 0
M  V30 17 C 4.80086 -0.875111 0.196707 0
M  V30 18 C 5.34263 -0.783226 1.46089 0
M  V30 19 C 6.68406 -0.500474 1.66409 0
M  V30 20 Cl 7.34176 -0.390636 3.28931 0
M  V30 21 C 7.53609 -0.298383 0.601167 0
M  V30 22 Cl 9.24296 0.0618005 0.838093 0
M  V30 23 C 7.00675 -0.387498 -0.669142 0
M  V30 24 C 5.65917 -0.671678 -0.866216 0
M  V30 25 C 0.506227 -1.02467 -0.282247 0
M  V30 26 C -0.859551 -0.913687 -0.42782 0
M  V30 27 H -3.45063 -1.79818 0.719214 0
M  V30 28 H -4.30686 -1.02335 2.13611 0
M  V30 29 H -2.50935 -0.737471 1.81634 0
M  V30 30 H -4.13658 1.46187 2.34384 0
M  V30 31 H -3.83559 2.46957 0.824929 0
M  V30 32 H -2.49808 1.66874 1.69245 0
M  V30 33 H -7.55991 1.31128 -0.982562 0
M  V30 34 H -7.48206 -0.135677 -2.01025 0
M  V30 35 H -2.36128 1.37582 -3.49911 0
M  V30 36 H -2.00797 -0.412296 -3.2704 0
M  V30 37 H -1.24284 2.41972 -0.328288 0
M  V30 38 H 1.22962 2.22577 -0.0644591 0
M  V30 39 H 3.15972 -1.80196 -0.879126 0
M  V30 40 H 3.027 -1.72318 0.94848 0
M  V30 41 H 4.67924 -0.940875 2.30461 0
M  V30 42 H 7.68408 -0.227166 -1.4968 0
M  V30 43 H 5.24047 -0.742326 -1.86258 0
M  V30 44 H 1.00775 -1.9896 -0.26808 0
M  V30 45 H -1.40091 -1.85902 -0.527597 0
M  V30 END ATOM
M  V30 BEGIN BOND
M  V30 1 1 1 2
M  V30 2 1 2 3
M  V30 3 1 2 4
M  V30 4 2 4 5
M  V30 5 1 5 6
M  V30 6 1 5 7
M  V30 7 2 7 8
M  V30 8 1 8 9
M  V30 9 1 8 10
M  V30 10 1 10 11
M  V30 11 2 11 12
M  V30 12 1 12 13
M  V30 13 2 13 14
M  V30 14 1 14 15
M  V30 15 1 15 16
M  V30 16 1 16 17
M  V30 17 2 17 18
M  V30 18 1 18 19
M  V30 19 1 19 20
M  V30 20 2 19 21
M  V30 21 1 21 22
M  V30 22 1 21 23
M  V30 23 2 23 24
M  V30 24 1 14 25
M  V30 25 2 25 26
M  V30 26 1 10 2
M  V30 27 1 26 11
M  V30 28 1 24 17
M  V30 29 1 1 27
M  V30 30 1 1 28
M  V30 31 1 1 29
M  V30 32 1 3 30
M  V30 33 1 3 31
M  V30 34 1 3 32
M  V30 35 1 6 33
M  V30 36 1 6 34
M  V30 37 1 9 35
M  V30 38 1 9 36
M  V30 39 1 12 37
M  V30 40 1 13 38
M  V30 41 1 16 39
M  V30 42 1 16 40
M  V30 43 1 18 41
M  V30 44 1 23 42
M  V30 45 1 24 43
M  V30 46 1 25 44
M  V30 47 1 26 45
M  V30 END BOND
M  V30 END CTAB
M  END
