
     RDKit          3D

  0  0  0  0  0  0  0  0  0  0999 V3000
M  V30 BEGIN CTAB
M  V30 COUNTS 19 19 0 0 0
M  V30 BEGIN ATOM
M  V30 1 C 2.03081 -1.20622 0.49258 0
M  V30 2 N 1.37547 -0.00296774 -0.0275039 0
M  V30 3 C 1.94123 1.02499 -0.685626 0
M  V30 4 N 1.00214 1.93802 -0.996328 0
M  V30 5 C -0.212104 1.51046 -0.536631 0
M  V30 6 N -1.4588 2.17182 -0.654038 0
M  V30 7 C 0.0667925 0.291632 0.0632868 0
M  V30 8 S -1.14042 -0.71429 0.829725 0
M  V30 9 N -1.84356 -1.81849 -0.29124 0
M  V30 10 O -0.575046 -1.41907 2.0274 0
M  V30 11 O -2.23979 0.179725 1.32589 0
M  V30 12 H 1.73953 -2.10517 -0.0839054 0
M  V30 13 H 3.13503 -1.06531 0.333015 0
M  V30 14 H 1.84724 -1.32458 1.58087 0
M  V30 15 H 3.01652 1.06371 -0.91064 0
M  V30 16 H -1.76236 2.86555 0.0436265 0
M  V30 17 H -2.07216 1.95171 -1.45552 0
M  V30 18 H -2.07313 -1.25 -1.15477 0
M  V30 19 H -2.77738 -2.09151 0.0998001 0
M  V30 END ATOM
M  V30 BEGIN BOND
M  V30 1 1 1 2
M  V30 2 1 2 3
M  V30 3 2 3 4
M  V30 4 1 4 5
M  V30 5 1 5 6
M  V30 6 2 5 7
M  V30 7 1 7 8
M  V30 8 1 8 9
M  V30 9 2 8 10
M  V30 10 2 8 11
M  V30 11 1 7 2
M  V30 12 1 1 12
M  V30 13 1 1 13
M  V30 14 1 1 14
M  V30 15 1 3 15
M  V30 16 1 6 16
M  V30 17 1 6 17
M  V30 18 1 9 18
M  V30 19 1 9 19
M  V30 END BOND
M  V30 END CTAB
M  END
