
     RDKit          3D

  0  0  0  0  0  0  0  0  0  0999 V3000
M  V30 BEGIN CTAB
M  V30 COUNTS 52 55 0 0 0
M  V30 BEGIN ATOM
M  V30 1 N -2.87175 0.173593 -1.03412 0
M  V30 2 C -2.68753 -0.426941 0.202368 0 CFG=2
M  V30 3 C -1.65707 -1.56622 0.226568 0
M  V30 4 O -0.415251 -1.28886 -0.100412 0
M  V30 5 C 0.561485 -0.900374 -0.874086 0
M  V30 6 C 0.380045 -0.51159 -2.18292 0
M  V30 7 N 1.45212 -0.126823 -2.89162 0
M  V30 8 C 2.70007 -0.0987802 -2.39628 0
M  V30 9 C 2.94826 -0.480894 -1.0793 0
M  V30 10 C 4.32747 -0.428933 -0.591475 0
M  V30 11 C 4.71796 -0.759819 0.60543 0
M  V30 12 C 6.07439 -0.721597 1.12619 0
M  V30 13 C 7.15373 -0.306763 0.381199 0
M  V30 14 C 8.44157 -0.273156 0.88158 0
M  V30 15 N 9.52977 0.171296 0.0540721 0
M  V30 16 N 8.65865 -0.659703 2.1466 0
M  V30 17 C 7.63888 -1.07909 2.93336 0
M  V30 18 C 6.33668 -1.11155 2.42272 0
M  V30 19 C 1.87613 -0.87525 -0.339829 0
M  V30 20 C -3.94098 -0.887431 0.905865 0
M  V30 21 C -4.85524 0.239879 1.15196 0
M  V30 22 C -4.90757 0.96151 2.34157 0
M  V30 23 N -5.80759 1.94549 2.23978 0
M  V30 24 C -6.34341 1.88165 1.01309 0
M  V30 25 C -5.77116 0.827497 0.30899 0
M  V30 26 C -6.15925 0.535281 -0.985886 0
M  V30 27 C -7.13141 1.30342 -1.59605 0
M  V30 28 C -7.69982 2.34376 -0.913158 0
M  V30 29 C -7.31394 2.62762 0.365972 0
M  V30 30 H -2.79434 1.17962 -1.11822 0
M  V30 31 H -2.829 -0.383993 -1.87452 0
M  V30 32 H -2.25075 0.373212 0.889555 0
M  V30 33 H -1.69622 -1.95853 1.30521 0
M  V30 34 H -2.13036 -2.46114 -0.31966 0
M  V30 35 H -0.553239 -0.494839 -2.7064 0
M  V30 36 H 3.54012 0.221449 -3.01078 0
M  V30 37 H 5.10139 -0.0890853 -1.27124 0
M  V30 38 H 3.93526 -1.10421 1.28643 0
M  V30 39 H 6.99485 0.00749466 -0.63846 0
M  V30 40 H 10.4724 -0.252218 0.101668 0
M  V30 41 H 9.36636 0.948824 -0.620017 0
M  V30 42 H 7.86183 -1.37882 3.94329 0
M  V30 43 H 5.57685 -1.45502 3.10048 0
M  V30 44 H 2.03647 -1.1767 0.682747 0
M  V30 45 H -4.47471 -1.67107 0.315664 0
M  V30 46 H -3.63504 -1.35818 1.88396 0
M  V30 47 H -4.29871 0.744698 3.21717 0
M  V30 48 H -6.07143 2.65689 2.96862 0
M  V30 49 H -5.73434 -0.290619 -1.53648 0
M  V30 50 H -7.40943 1.04424 -2.61228 0
M  V30 51 H -8.46595 2.93327 -1.42309 0
M  V30 52 H -7.7773 3.45748 0.891399 0
M  V30 END ATOM
M  V30 BEGIN BOND
M  V30 1 1 1 2
M  V30 2 1 2 3
M  V30 3 1 3 4
M  V30 4 1 4 5
M  V30 5 2 5 6
M  V30 6 1 6 7
M  V30 7 2 7 8
M  V30 8 1 8 9
M  V30 9 1 9 10
M  V30 10 2 10 11
M  V30 11 1 11 12
M  V30 12 2 12 13
M  V30 13 1 13 14
M  V30 14 1 14 15
M  V30 15 2 14 16
M  V30 16 1 16 17
M  V30 17 2 17 18
M  V30 18 2 9 19
M  V30 19 1 2 20
M  V30 20 1 20 21
M  V30 21 2 21 22
M  V30 22 1 22 23
M  V30 23 1 23 24
M  V30 24 2 24 25
M  V30 25 1 25 26
M  V30 26 2 26 27
M  V30 27 1 27 28
M  V30 28 2 28 29
M  V30 29 1 19 5
M  V30 30 1 25 21
M  V30 31 1 18 12
M  V30 32 1 29 24
M  V30 33 1 1 30
M  V30 34 1 1 31
M  V30 35 1 2 32 CFG=1
M  V30 36 1 3 33
M  V30 37 1 3 34
M  V30 38 1 6 35
M  V30 39 1 8 36
M  V30 40 1 10 37
M  V30 41 1 11 38
M  V30 42 1 13 39
M  V30 43 1 15 40
M  V30 44 1 15 41
M  V30 45 1 17 42
M  V30 46 1 18 43
M  V30 47 1 19 44
M  V30 48 1 20 45
M  V30 49 1 20 46
M  V30 50 1 22 47
M  V30 51 1 23 48
M  V30 52 1 26 49
M  V30 53 1 27 50
M  V30 54 1 28 51
M  V30 55 1 29 52
M  V30 END BOND
M  V30 END CTAB
M  END
