
     RDKit          3D

  0  0  0  0  0  0  0  0  0  0999 V3000
M  V30 BEGIN CTAB
M  V30 COUNTS 42 43 0 0 0
M  V30 BEGIN ATOM
M  V30 1 C -2.91097 1.8259 0.426476 0
M  V30 2 C -3.5873 0.638187 -0.268475 0
M  V30 3 C -3.83428 1.06527 -1.70688 0
M  V30 4 N -4.78873 0.34608 0.427257 0
M  V30 5 C -5.04585 -0.735347 1.03725 0
M  V30 6 N -6.31544 -0.849452 1.68436 0
M  V30 7 N -4.14601 -1.83155 1.11173 0
M  V30 8 C -3.00671 -1.64056 0.491685 0
M  V30 9 N -2.0169 -2.68481 0.499863 0
M  V30 10 N -2.66502 -0.461394 -0.20059 0
M  V30 11 O -1.4747 -0.36249 -0.80635 0
M  V30 12 C -0.388809 -0.158637 -0.00931827 0
M  V30 13 C 0.820831 -0.0873923 -0.958655 0
M  V30 14 C 2.07252 0.138134 -0.151733 0
M  V30 15 O 3.15676 0.198274 -1.0462 0
M  V30 16 C 4.44546 0.399051 -0.585834 0
M  V30 17 C 4.68676 0.543478 0.75913 0
M  V30 18 C 5.96073 0.745756 1.25896 0
M  V30 19 C 7.01642 0.801518 0.355216 0
M  V30 20 Br 8.80459 1.07397 0.92168 0
M  V30 21 C 6.7622 0.65533 -0.991352 0
M  V30 22 C 5.48056 0.452491 -1.48649 0
M  V30 23 H -2.12166 2.25972 -0.183885 0
M  V30 24 H -3.74542 2.56058 0.59293 0
M  V30 25 H -2.52819 1.49892 1.40929 0
M  V30 26 H -3.94251 2.17149 -1.76081 0
M  V30 27 H -4.79492 0.618866 -2.01603 0
M  V30 28 H -2.98983 0.750168 -2.36688 0
M  V30 29 H -6.41401 -0.579874 2.6852 0
M  V30 30 H -7.16223 -1.19481 1.19671 0
M  V30 31 H -1.77543 -3.2427 -0.324783 0
M  V30 32 H -1.50948 -2.89474 1.39141 0
M  V30 33 H -0.401233 0.792423 0.583838 0
M  V30 34 H -0.137163 -0.941433 0.706282 0
M  V30 35 H 0.654231 0.806954 -1.58173 0
M  V30 36 H 0.856166 -1.00347 -1.57317 0
M  V30 37 H 2.15083 -0.67903 0.587281 0
M  V30 38 H 1.93991 1.09983 0.390536 0
M  V30 39 H 3.8751 0.504 1.49394 0
M  V30 40 H 6.16849 0.860829 2.3075 0
M  V30 41 H 7.55854 0.69128 -1.74494 0
M  V30 42 H 5.29269 0.338276 -2.55443 0
M  V30 END ATOM
M  V30 BEGIN BOND
M  V30 1 1 1 2
M  V30 2 1 2 3
M  V30 3 1 2 4
M  V30 4 2 4 5
M  V30 5 1 5 6
M  V30 6 1 5 7
M  V30 7 2 7 8
M  V30 8 1 8 9
M  V30 9 1 8 10
M  V30 10 1 10 11
M  V30 11 1 11 12
M  V30 12 1 12 13
M  V30 13 1 13 14
M  V30 14 1 14 15
M  V30 15 1 15 16
M  V30 16 2 16 17
M  V30 17 1 17 18
M  V30 18 2 18 19
M  V30 19 1 19 20
M  V30 20 1 19 21
M  V30 21 2 21 22
M  V30 22 1 10 2
M  V30 23 1 22 16
M  V30 24 1 1 23
M  V30 25 1 1 24
M  V30 26 1 1 25
M  V30 27 1 3 26
M  V30 28 1 3 27
M  V30 29 1 3 28
M  V30 30 1 6 29
M  V30 31 1 6 30
M  V30 32 1 9 31
M  V30 33 1 9 32
M  V30 34 1 12 33
M  V30 35 1 12 34
M  V30 36 1 13 35
M  V30 37 1 13 36
M  V30 38 1 14 37
M  V30 39 1 14 38
M  V30 40 1 17 39
M  V30 41 1 18 40
M  V30 42 1 21 41
M  V30 43 1 22 42
M  V30 END BOND
M  V30 END CTAB
M  END
