
     RDKit          3D

  0  0  0  0  0  0  0  0  0  0999 V3000
M  V30 BEGIN CTAB
M  V30 COUNTS 23 24 0 0 0
M  V30 BEGIN ATOM
M  V30 1 N 4.59178 0.933166 -0.141845 0
M  V30 2 C 3.186 0.751613 -0.0243137 0
M  V30 3 N 2.63521 -0.32719 -0.614257 0
M  V30 4 C 1.29531 -0.559191 -0.532089 0
M  V30 5 N 0.720776 -1.68312 -1.179 0
M  V30 6 C 0.526594 0.323155 0.161179 0
M  V30 7 N 1.11174 1.40746 0.748197 0
M  V30 8 N 2.40723 1.61113 0.654215 0
M  V30 9 C -0.903889 0.124324 0.26096 0
M  V30 10 C -1.78178 1.02523 -0.284132 0
M  V30 11 Cl -1.26211 2.42941 -1.17546 0
M  V30 12 C -3.17076 0.838937 -0.14429 0
M  V30 13 Cl -4.31205 1.96427 -0.84806 0
M  V30 14 C -3.61162 -0.263967 0.553224 0
M  V30 15 C -2.74355 -1.18222 1.11107 0
M  V30 16 C -1.38423 -0.973324 0.954186 0
M  V30 17 H 5.21183 0.168426 0.180729 0
M  V30 18 H 4.96064 1.80638 -0.538399 0
M  V30 19 H 1.36331 -2.31274 -1.71617 0
M  V30 20 H -0.262142 -1.90826 -1.15803 0
M  V30 21 H -4.69592 -0.420313 0.672778 0
M  V30 22 H -3.15019 -2.0443 1.65745 0
M  V30 23 H -0.732161 -1.70887 1.40206 0
M  V30 END ATOM
M  V30 BEGIN BOND
M  V30 1 1 1 2
M  V30 2 2 2 3
M  V30 3 1 3 4
M  V30 4 1 4 5
M  V30 5 2 4 6
M  V30 6 1 6 7
M  V30 7 2 7 8
M  V30 8 1 6 9
M  V30 9 2 9 10
M  V30 10 1 10 11
M  V30 11 1 10 12
M  V30 12 1 12 13
M  V30 13 2 12 14
M  V30 14 1 14 15
M  V30 15 2 15 16
M  V30 16 1 8 2
M  V30 17 1 16 9
M  V30 18 1 1 17
M  V30 19 1 1 18
M  V30 20 1 5 19
M  V30 21 1 5 20
M  V30 22 1 14 21
M  V30 23 1 15 22
M  V30 24 1 16 23
M  V30 END BOND
M  V30 END CTAB
M  END
