
     RDKit          3D

  0  0  0  0  0  0  0  0  0  0999 V3000
M  V30 BEGIN CTAB
M  V30 COUNTS 39 40 0 0 0
M  V30 BEGIN ATOM
M  V30 1 O -1.06751 1.94845 -0.756981 0
M  V30 2 C -0.933335 0.704343 -0.524723 0
M  V30 3 C 0.340773 0.15937 -0.0770784 0
M  V30 4 O 0.372261 -1.07097 0.123824 0
M  V30 5 N 1.42309 1.01614 0.0973005 0
M  V30 6 C 2.74073 0.704921 0.520856 0
M  V30 7 C 3.19895 -0.542698 0.845453 0
M  V30 8 C 4.52517 -0.753538 1.25587 0
M  V30 9 C 5.42817 0.276987 1.35262 0
M  V30 10 C 4.97697 1.53612 1.02824 0
M  V30 11 C 3.67752 1.74499 0.625751 0
M  V30 12 S 7.07834 0.00148893 1.86532 0
M  V30 13 O 7.9355 1.10483 1.2976 0
M  V30 14 O 7.55968 -1.34386 1.41305 0
M  V30 15 N 7.14598 0.159069 3.58798 0
M  V30 16 N -2.04316 -0.156392 -0.706333 0
M  V30 17 C -3.28411 0.353148 -1.139 0
M  V30 18 O -3.36283 1.61093 -1.35761 0
M  V30 19 C -4.43312 -0.507496 -1.33175 0
M  V30 20 C -4.40601 -1.8542 -1.114 0
M  V30 21 C -5.53618 -2.64595 -1.31212 0
M  V30 22 C -6.7296 -2.08737 -1.73886 0
M  V30 23 C -6.735 -0.73131 -1.95189 0
M  V30 24 C -5.63667 0.0642551 -1.76342 0
M  V30 25 N -5.68824 1.46703 -1.99687 0
M  V30 26 H 1.21559 2.05307 -0.123526 0
M  V30 27 H 2.54288 -1.39798 0.791723 0
M  V30 28 H 4.86977 -1.73802 1.50717 0
M  V30 29 H 5.69363 2.35777 1.10443 0
M  V30 30 H 3.35196 2.74669 0.377197 0
M  V30 31 H 6.27886 -0.233218 3.99202 0
M  V30 32 H 7.12413 1.20023 3.78452 0
M  V30 33 H -1.88801 -1.17879 -0.502685 0
M  V30 34 H -3.49717 -2.31886 -0.782904 0
M  V30 35 H -5.51488 -3.71244 -1.13973 0
M  V30 36 H -7.63092 -2.66092 -1.90589 0
M  V30 37 H -7.6695 -0.278372 -2.28846 0
M  V30 38 H -5.99358 2.12093 -1.24067 0
M  V30 39 H -5.43012 1.8816 -2.90649 0
M  V30 END ATOM
M  V30 BEGIN BOND
M  V30 1 2 1 2
M  V30 2 1 2 3
M  V30 3 2 3 4
M  V30 4 1 3 5
M  V30 5 1 5 6
M  V30 6 2 6 7
M  V30 7 1 7 8
M  V30 8 2 8 9
M  V30 9 1 9 10
M  V30 10 2 10 11
M  V30 11 1 9 12
M  V30 12 2 12 13
M  V30 13 2 12 14
M  V30 14 1 12 15
M  V30 15 1 2 16
M  V30 16 1 16 17
M  V30 17 2 17 18
M  V30 18 1 17 19
M  V30 19 2 19 20
M  V30 20 1 20 21
M  V30 21 2 21 22
M  V30 22 1 22 23
M  V30 23 2 23 24
M  V30 24 1 24 25
M  V30 25 1 11 6
M  V30 26 1 24 19
M  V30 27 1 5 26
M  V30 28 1 7 27
M  V30 29 1 8 28
M  V30 30 1 10 29
M  V30 31 1 11 30
M  V30 32 1 15 31
M  V30 33 1 15 32
M  V30 34 1 16 33
M  V30 35 1 20 34
M  V30 36 1 21 35
M  V30 37 1 22 36
M  V30 38 1 23 37
M  V30 39 1 25 38
M  V30 40 1 25 39
M  V30 END BOND
M  V30 END CTAB
M  END
