
     RDKit          3D

  0  0  0  0  0  0  0  0  0  0999 V3000
M  V30 BEGIN CTAB
M  V30 COUNTS 22 22 0 0 0
M  V30 BEGIN ATOM
M  V30 1 N -3.21485 0.53926 -0.724518 0
M  V30 2 C -2.6129 -0.540236 -0.0316412 0
M  V30 3 N -1.33956 -0.663584 -0.073479 0
M  V30 4 C -0.559189 0.280311 -0.810591 0
M  V30 5 C 0.835237 0.280531 -0.250338 0
M  V30 6 C 1.21032 1.11561 0.771558 0
M  V30 7 C 2.50278 1.12419 1.2996 0
M  V30 8 C 3.41939 0.251331 0.757057 0
M  V30 9 C 3.07766 -0.599249 -0.267622 0
M  V30 10 C 1.78881 -0.573062 -0.757935 0
M  V30 11 I 4.53834 -1.90096 -1.03906 0
M  V30 12 F 4.6791 0.228862 1.23954 0
M  V30 13 N -3.35505 -1.48791 0.70427 0
M  V30 14 H -3.74953 1.25526 -0.181252 0
M  V30 15 H -3.15162 0.657692 -1.75793 0
M  V30 16 H -0.987068 1.29464 -0.629444 0
M  V30 17 H -0.556603 0.0759844 -1.89567 0
M  V30 18 H 0.458301 1.79312 1.1764 0
M  V30 19 H 2.76891 1.79657 2.10799 0
M  V30 20 H 1.50504 -1.24938 -1.57752 0
M  V30 21 H -3.5132 -1.36338 1.71312 0
M  V30 22 H -3.74433 -2.31561 0.227466 0
M  V30 END ATOM
M  V30 BEGIN BOND
M  V30 1 1 1 2
M  V30 2 2 2 3 CFG=2
M  V30 3 1 3 4
M  V30 4 1 4 5
M  V30 5 2 5 6
M  V30 6 1 6 7
M  V30 7 2 7 8
M  V30 8 1 8 9
M  V30 9 2 9 10
M  V30 10 1 9 11
M  V30 11 1 8 12
M  V30 12 1 2 13
M  V30 13 1 10 5
M  V30 14 1 1 14
M  V30 15 1 1 15
M  V30 16 1 4 16
M  V30 17 1 4 17
M  V30 18 1 6 18
M  V30 19 1 7 19
M  V30 20 1 10 20
M  V30 21 1 13 21
M  V30 22 1 13 22
M  V30 END BOND
M  V30 END CTAB
M  END
