
     RDKit          3D

  0  0  0  0  0  0  0  0  0  0999 V3000
M  V30 BEGIN CTAB
M  V30 COUNTS 51 53 0 0 0
M  V30 BEGIN ATOM
M  V30 1 C -2.93572 -2.95561 2.39378 0
M  V30 2 C -2.71017 -1.9427 1.31468 0
M  V30 3 C -1.55993 -1.22923 1.20614 0
M  V30 4 C -1.26347 -0.272844 0.24328 0
M  V30 5 C -0.00872276 0.384757 0.209784 0
M  V30 6 C -0.0916481 1.85934 0.0878474 0
M  V30 7 C 0.546735 2.57951 -0.901179 0
M  V30 8 C 0.478357 3.92935 -1.01059 0
M  V30 9 C -0.253589 4.63675 -0.108092 0
M  V30 10 C -0.922211 3.99923 0.910433 0
M  V30 11 C -0.838892 2.61875 1.00412 0
M  V30 12 C 1.2766 -0.204432 -0.104171 0
M  V30 13 C 1.56371 -1.07422 -1.12982 0
M  V30 14 C 0.483567 -1.6311 -1.98893 0
M  V30 15 C 2.88308 -1.44912 -1.32048 0
M  V30 16 C 3.93311 -1.01106 -0.549983 0
M  V30 17 N 5.26698 -1.42041 -0.779909 0
M  V30 18 C 3.66733 -0.144353 0.478879 0
M  V30 19 C 4.76817 0.379416 1.36869 0
M  V30 20 C 2.36953 0.226111 0.667137 0
M  V30 21 C -2.27598 -0.0690959 -0.666648 0
M  V30 22 C -2.25736 0.891465 -1.77397 0
M  V30 23 C -3.48392 -0.794713 -0.581802 0
M  V30 24 C -3.69222 -1.71767 0.397853 0
M  V30 25 N -4.89968 -2.47106 0.516105 0
M  V30 26 H -3.617 -2.48459 3.14714 0
M  V30 27 H -2.01524 -3.32333 2.84398 0
M  V30 28 H -3.53713 -3.78857 1.93205 0
M  V30 29 H -0.793446 -1.44165 1.9634 0
M  V30 30 H 0.180645 0.434622 1.45466 0
M  V30 31 H 1.12007 2.00527 -1.60468 0
M  V30 32 H 1.02888 4.39433 -1.8392 0
M  V30 33 H -0.290204 5.72336 -0.22216 0
M  V30 34 H -1.50287 4.57932 1.62335 0
M  V30 35 H -1.37232 2.15252 1.80974 0
M  V30 36 H 0.0971308 -0.940874 -2.72992 0
M  V30 37 H 0.996846 -2.4061 -2.62717 0
M  V30 38 H -0.242246 -2.25757 -1.44556 0
M  V30 39 H 3.05803 -2.14833 -2.16036 0
M  V30 40 H 5.67539 -1.38496 -1.72653 0
M  V30 41 H 5.85214 -1.76318 0.00630448 0
M  V30 42 H 5.67143 0.532577 0.770887 0
M  V30 43 H 4.42083 1.2607 1.91438 0
M  V30 44 H 4.99133 -0.439506 2.09759 0
M  V30 45 H 2.22992 0.931604 1.51131 0
M  V30 46 H -1.37446 0.857826 -2.43397 0
M  V30 47 H -3.09068 0.668059 -2.5255 0
M  V30 48 H -2.54443 1.89391 -1.41224 0
M  V30 49 H -4.29577 -0.64436 -1.29587 0
M  V30 50 H -5.16402 -3.08255 -0.280316 0
M  V30 51 H -5.52649 -2.4456 1.34553 0
M  V30 END ATOM
M  V30 BEGIN BOND
M  V30 1 1 1 2
M  V30 2 2 2 3
M  V30 3 1 3 4
M  V30 4 1 4 5
M  V30 5 1 5 6
M  V30 6 2 6 7
M  V30 7 1 7 8
M  V30 8 2 8 9
M  V30 9 1 9 10
M  V30 10 2 10 11
M  V30 11 1 5 12
M  V30 12 2 12 13
M  V30 13 1 13 14
M  V30 14 1 13 15
M  V30 15 2 15 16
M  V30 16 1 16 17
M  V30 17 1 16 18
M  V30 18 1 18 19
M  V30 19 2 18 20
M  V30 20 2 4 21
M  V30 21 1 21 22
M  V30 22 1 21 23
M  V30 23 2 23 24
M  V30 24 1 24 25
M  V30 25 1 24 2
M  V30 26 1 11 6
M  V30 27 1 20 12
M  V30 28 1 1 26
M  V30 29 1 1 27
M  V30 30 1 1 28
M  V30 31 1 3 29
M  V30 32 1 5 30
M  V30 33 1 7 31
M  V30 34 1 8 32
M  V30 35 1 9 33
M  V30 36 1 10 34
M  V30 37 1 11 35
M  V30 38 1 14 36
M  V30 39 1 14 37
M  V30 40 1 14 38
M  V30 41 1 15 39
M  V30 42 1 17 40
M  V30 43 1 17 41
M  V30 44 1 19 42
M  V30 45 1 19 43
M  V30 46 1 19 44
M  V30 47 1 20 45
M  V30 48 1 22 46
M  V30 49 1 22 47
M  V30 50 1 22 48
M  V30 51 1 23 49
M  V30 52 1 25 50
M  V30 53 1 25 51
M  V30 END BOND
M  V30 END CTAB
M  END
