
     RDKit          3D

  0  0  0  0  0  0  0  0  0  0999 V3000
M  V30 BEGIN CTAB
M  V30 COUNTS 27 27 0 0 0
M  V30 BEGIN ATOM
M  V30 1 C 3.0954 0.151534 -0.0559277 0
M  V30 2 N 1.82815 -0.0364253 0.575113 0
M  V30 3 C 1.12269 -1.09719 -0.122703 0
M  V30 4 C 0.206462 -0.469028 -1.14219 0
M  V30 5 C -0.971979 0.112835 -0.38295 0
M  V30 6 N -1.54188 1.17736 -1.13277 0
M  V30 7 C -1.94379 -1.01732 -0.150422 0
M  V30 8 N -3.12367 -0.615235 0.565692 0
M  V30 9 C -0.422802 0.666769 0.906844 0
M  V30 10 C 1.02022 1.13447 0.676634 0
M  V30 11 H 3.30454 -0.635925 -0.831417 0
M  V30 12 H 3.88281 -0.0121653 0.723369 0
M  V30 13 H 3.19286 1.13381 -0.545354 0
M  V30 14 H 0.54595 -1.64838 0.619455 0
M  V30 15 H 1.84365 -1.76504 -0.667616 0
M  V30 16 H 0.706332 0.308532 -1.74772 0
M  V30 17 H -0.181602 -1.24402 -1.84215 0
M  V30 18 H -2.45376 1.48207 -0.721209 0
M  V30 19 H -0.928611 1.99566 -1.16149 0
M  V30 20 H -1.46762 -1.86794 0.378696 0
M  V30 21 H -2.20525 -1.41541 -1.16938 0
M  V30 22 H -2.90365 0.0777346 1.30326 0
M  V30 23 H -3.50459 -1.47187 1.03676 0
M  V30 24 H -0.982596 1.59663 1.18019 0
M  V30 25 H -0.44241 -0.0940346 1.70385 0
M  V30 26 H 0.996289 1.75848 -0.229924 0
M  V30 27 H 1.32884 1.7941 1.51503 0
M  V30 END ATOM
M  V30 BEGIN BOND
M  V30 1 1 1 2
M  V30 2 1 2 3
M  V30 3 1 3 4
M  V30 4 1 4 5
M  V30 5 1 5 6
M  V30 6 1 5 7
M  V30 7 1 7 8
M  V30 8 1 5 9
M  V30 9 1 9 10
M  V30 10 1 10 2
M  V30 11 1 1 11
M  V30 12 1 1 12
M  V30 13 1 1 13
M  V30 14 1 3 14
M  V30 15 1 3 15
M  V30 16 1 4 16
M  V30 17 1 4 17
M  V30 18 1 6 18
M  V30 19 1 6 19
M  V30 20 1 7 20
M  V30 21 1 7 21
M  V30 22 1 8 22
M  V30 23 1 8 23
M  V30 24 1 9 24
M  V30 25 1 9 25
M  V30 26 1 10 26
M  V30 27 1 10 27
M  V30 END BOND
M  V30 END CTAB
M  END
