
     RDKit          3D

  0  0  0  0  0  0  0  0  0  0999 V3000
M  V30 BEGIN CTAB
M  V30 COUNTS 46 47 0 0 0
M  V30 BEGIN ATOM
M  V30 1 C -4.19107 1.48503 -2.69293 0
M  V30 2 C -2.88514 1.27757 -1.95527 0
M  V30 3 C -3.01564 0.157064 -0.934023 0
M  V30 4 C -1.7383 -0.0794624 -0.20792 0
M  V30 5 C -1.91161 -1.18002 0.805676 0
M  V30 6 C -0.784851 -1.63635 1.46283 0
M  V30 7 C -0.872413 -2.62965 2.40357 0
M  V30 8 C -2.10332 -3.16601 2.6832 0
M  V30 9 C -3.24357 -2.71307 2.0262 0
M  V30 10 C -3.15751 -1.71588 1.08158 0
M  V30 11 N -0.634213 -0.430102 -1.05758 0
M  V30 12 C 0.607048 0.182404 -1.17779 0
M  V30 13 O 0.887387 1.18649 -0.480378 0
M  V30 14 C 1.64433 -0.301286 -2.11301 0
M  V30 15 S 2.85092 -1.40431 -1.38632 0
M  V30 16 C 3.85088 -0.509508 -0.205109 0
M  V30 17 N 5.00055 0.116005 -0.588628 0
M  V30 18 C 5.77063 0.797083 0.267327 0
M  V30 19 N 6.96243 1.45333 -0.0807058 0
M  V30 20 N 5.38975 0.864414 1.55774 0
M  V30 21 C 4.26018 0.264421 1.99674 0
M  V30 22 N 3.52662 -0.405172 1.09381 0
M  V30 23 N 3.91087 0.368278 3.36543 0
M  V30 24 C -2.65353 2.58251 -1.17098 0
M  V30 25 H -5.04292 1.36356 -1.98665 0
M  V30 26 H -4.20527 2.54003 -3.03024 0
M  V30 27 H -4.30156 0.837584 -3.56505 0
M  V30 28 H -2.05416 1.17661 -2.64276 0
M  V30 29 H -3.46247 -0.75598 -1.37017 0
M  V30 30 H -3.7629 0.544622 -0.196076 0
M  V30 31 H -1.46593 0.82541 0.358259 0
M  V30 32 H 0.196074 -1.22451 1.25365 0
M  V30 33 H 0.000246775 -2.9977 2.92732 0
M  V30 34 H -2.23409 -3.94353 3.41104 0
M  V30 35 H -4.2126 -3.16399 2.27286 0
M  V30 36 H -4 -1.32482 0.539963 0
M  V30 37 H -0.841313 -1.28752 -1.66322 0
M  V30 38 H 1.19477 -0.707471 -3.04977 0
M  V30 39 H 2.21184 0.612834 -2.4626 0
M  V30 40 H 7.87771 1.03372 0.198571 0
M  V30 41 H 6.99438 2.34875 -0.610174 0
M  V30 42 H 3.0076 0.810449 3.61263 0
M  V30 43 H 4.52684 0.0184975 4.11511 0
M  V30 44 H -3.46645 3.32534 -1.36663 0
M  V30 45 H -2.7537 2.37527 -0.0649791 0
M  V30 46 H -1.6765 3.02909 -1.37454 0
M  V30 END ATOM
M  V30 BEGIN BOND
M  V30 1 1 1 2
M  V30 2 1 2 3
M  V30 3 1 3 4
M  V30 4 1 4 5
M  V30 5 2 5 6
M  V30 6 1 6 7
M  V30 7 2 7 8
M  V30 8 1 8 9
M  V30 9 2 9 10
M  V30 10 1 4 11
M  V30 11 1 11 12
M  V30 12 2 12 13
M  V30 13 1 12 14
M  V30 14 1 14 15
M  V30 15 1 15 16
M  V30 16 2 16 17
M  V30 17 1 17 18
M  V30 18 1 18 19
M  V30 19 2 18 20
M  V30 20 1 20 21
M  V30 21 2 21 22
M  V30 22 1 21 23
M  V30 23 1 2 24
M  V30 24 1 10 5
M  V30 25 1 22 16
M  V30 26 1 1 25
M  V30 27 1 1 26
M  V30 28 1 1 27
M  V30 29 1 2 28
M  V30 30 1 3 29
M  V30 31 1 3 30
M  V30 32 1 4 31
M  V30 33 1 6 32
M  V30 34 1 7 33
M  V30 35 1 8 34
M  V30 36 1 9 35
M  V30 37 1 10 36
M  V30 38 1 11 37
M  V30 39 1 14 38
M  V30 40 1 14 39
M  V30 41 1 19 40
M  V30 42 1 19 41
M  V30 43 1 23 42
M  V30 44 1 23 43
M  V30 45 1 24 44
M  V30 46 1 24 45
M  V30 47 1 24 46
M  V30 END BOND
M  V30 END CTAB
M  END
