
     RDKit          3D

  0  0  0  0  0  0  0  0  0  0999 V3000
M  V30 BEGIN CTAB
M  V30 COUNTS 39 38 0 0 0
M  V30 BEGIN ATOM
M  V30 1 N -1.96436 0.312236 -1.79813 0
M  V30 2 C -1.28457 0.121982 -0.463602 0
M  V30 3 C -1.72477 -1.22575 -0.0195819 0
M  V30 4 C -3.13976 -1.52882 0.112712 0
M  V30 5 O -4.05239 -1.16399 -0.845391 0
M  V30 6 O -3.57157 -2.14288 1.11659 0
M  V30 7 C -1.65394 1.21134 0.381699 0
M  V30 8 C -3.08762 1.43143 0.623892 0
M  V30 9 O -3.81555 1.04967 1.72656 0
M  V30 10 O -3.73806 2.05014 -0.287595 0
M  V30 11 C 0.150505 0.036882 -0.922549 0
M  V30 12 C 1.28204 -0.144298 0.0173227 0
M  V30 13 N 1.31986 -1.2682 0.858753 0
M  V30 14 C 1.69969 1.17352 0.568895 0
M  V30 15 C 2.73491 1.19833 1.59912 0
M  V30 16 O 3.43057 2.36664 1.84654 0
M  V30 17 O 3.01908 0.194352 2.27045 0
M  V30 18 C 2.43014 -0.485843 -1.0313 0
M  V30 19 C 3.71845 -0.746635 -0.537274 0
M  V30 20 O 4.09269 -1.97295 0.00689265 0
M  V30 21 O 4.6337 0.135135 -0.562746 0
M  V30 22 H -1.58175 1.2286 -2.12158 0
M  V30 23 H -1.59713 -0.4246 -2.41017 0
M  V30 24 H -1.18122 -2.01972 -0.640285 0
M  V30 25 H -1.20198 -1.38027 0.993518 0
M  V30 26 H -5.03733 -1.43103 -0.825952 0
M  V30 27 H -1.23063 1.04031 1.41871 0
M  V30 28 H -1.27994 2.22921 0.117509 0
M  V30 29 H -4.77231 0.750997 1.63705 0
M  V30 30 H 0.400797 0.897467 -1.58193 0
M  V30 31 H 0.149716 -0.844038 -1.64189 0
M  V30 32 H 0.981644 -1.06256 1.79707 0
M  V30 33 H 0.981957 -2.10088 0.383168 0
M  V30 34 H 2.04955 1.76472 -0.356944 0
M  V30 35 H 0.882171 1.82893 0.941263 0
M  V30 36 H 3.96523 2.8709 1.17066 0
M  V30 37 H 2.34827 0.280755 -1.83072 0
M  V30 38 H 1.99218 -1.41246 -1.51484 0
M  V30 39 H 3.65176 -2.81863 -0.378459 0
M  V30 END ATOM
M  V30 BEGIN BOND
M  V30 1 1 1 2
M  V30 2 1 2 3
M  V30 3 1 3 4
M  V30 4 1 4 5
M  V30 5 2 4 6
M  V30 6 1 2 7
M  V30 7 1 7 8
M  V30 8 1 8 9
M  V30 9 2 8 10
M  V30 10 1 2 11
M  V30 11 1 11 12
M  V30 12 1 12 13
M  V30 13 1 12 14
M  V30 14 1 14 15
M  V30 15 1 15 16
M  V30 16 2 15 17
M  V30 17 1 12 18
M  V30 18 1 18 19
M  V30 19 1 19 20
M  V30 20 2 19 21
M  V30 21 1 1 22
M  V30 22 1 1 23
M  V30 23 1 3 24
M  V30 24 1 3 25
M  V30 25 1 5 26
M  V30 26 1 7 27
M  V30 27 1 7 28
M  V30 28 1 9 29
M  V30 29 1 11 30
M  V30 30 1 11 31
M  V30 31 1 13 32
M  V30 32 1 13 33
M  V30 33 1 14 34
M  V30 34 1 14 35
M  V30 35 1 16 36
M  V30 36 1 18 37
M  V30 37 1 18 38
M  V30 38 1 20 39
M  V30 END BOND
M  V30 END CTAB
M  END
