
     RDKit          3D

  0  0  0  0  0  0  0  0  0  0999 V3000
M  V30 BEGIN CTAB
M  V30 COUNTS 34 35 0 0 0
M  V30 BEGIN ATOM
M  V30 1 Br 5.76954 1.18033 -2.95933 0
M  V30 2 C 5.42611 0.27959 -1.31353 0
M  V30 3 C 6.49241 -0.0934286 -0.536744 0
M  V30 4 C 6.22584 -0.741785 0.646471 0
M  V30 5 C 4.93813 -1.00929 1.04281 0
M  V30 6 C 3.83109 -0.633057 0.257684 0
M  V30 7 C 4.10511 0.0125162 -0.921403 0
M  V30 8 O 2.60037 -0.928716 0.706268 0
M  V30 9 C 1.32393 -0.730447 0.277648 0
M  V30 10 C 0.982189 0.732744 0.204382 0
M  V30 11 S -0.750714 0.81273 -0.380274 0
M  V30 12 C -1.83173 0.0936886 0.912222 0
M  V30 13 C -3.22315 0.182115 0.395177 0
M  V30 14 N -3.76241 -0.81384 -0.330552 0
M  V30 15 C -5.01768 -0.779538 -0.820081 0
M  V30 16 N -5.48812 -1.87466 -1.56868 0
M  V30 17 N -5.78809 0.318584 -0.571199 0
M  V30 18 C -5.27265 1.32965 0.152691 0
M  V30 19 N -4.00941 1.25595 0.625371 0
M  V30 20 N -6.06251 2.47776 0.4195 0
M  V30 21 H 7.5082 0.117181 -0.847985 0
M  V30 22 H 7.0732 -1.035 1.25724 0
M  V30 23 H 4.74838 -1.52537 1.98658 0
M  V30 24 H 3.32061 0.320922 -1.58876 0
M  V30 25 H 0.599235 -1.23097 0.989526 0
M  V30 26 H 1.0912 -1.15662 -0.728622 0
M  V30 27 H 0.966317 1.20155 1.22649 0
M  V30 28 H 1.59312 1.3095 -0.472855 0
M  V30 29 H -1.55013 -0.961005 0.994807 0
M  V30 30 H -1.74991 0.656372 1.86193 0
M  V30 31 H -6.13596 -2.55295 -1.14074 0
M  V30 32 H -5.18637 -2.00139 -2.54615 0
M  V30 33 H -7.02254 2.33141 0.789945 0
M  V30 34 H -5.74359 3.45546 0.268565 0
M  V30 END ATOM
M  V30 BEGIN BOND
M  V30 1 1 1 2
M  V30 2 2 2 3
M  V30 3 1 3 4
M  V30 4 2 4 5
M  V30 5 1 5 6
M  V30 6 2 6 7
M  V30 7 1 6 8
M  V30 8 1 8 9
M  V30 9 1 9 10
M  V30 10 1 10 11
M  V30 11 1 11 12
M  V30 12 1 12 13
M  V30 13 2 13 14
M  V30 14 1 14 15
M  V30 15 1 15 16
M  V30 16 2 15 17
M  V30 17 1 17 18
M  V30 18 2 18 19
M  V30 19 1 18 20
M  V30 20 1 7 2
M  V30 21 1 19 13
M  V30 22 1 3 21
M  V30 23 1 4 22
M  V30 24 1 5 23
M  V30 25 1 7 24
M  V30 26 1 9 25
M  V30 27 1 9 26
M  V30 28 1 10 27
M  V30 29 1 10 28
M  V30 30 1 12 29
M  V30 31 1 12 30
M  V30 32 1 16 31
M  V30 33 1 16 32
M  V30 34 1 20 33
M  V30 35 1 20 34
M  V30 END BOND
M  V30 END CTAB
M  END
