
     RDKit          3D

  0  0  0  0  0  0  0  0  0  0999 V3000
M  V30 BEGIN CTAB
M  V30 COUNTS 55 57 0 0 0
M  V30 BEGIN ATOM
M  V30 1 N 0.0176823 1.49289 0.413739 0
M  V30 2 C -0.787346 0.369181 0.0853214 0
M  V30 3 N -0.201192 -0.680455 -0.374378 0
M  V30 4 O 1.15177 -0.736663 -0.550036 0
M  V30 5 C 1.79684 -0.23411 -1.71482 0
M  V30 6 C 3.27291 -0.464139 -1.56168 0
M  V30 7 O 3.70691 0.226658 -0.406904 0
M  V30 8 C 5.06321 0.130534 -0.0978224 0
M  V30 9 C 5.49617 -0.881128 0.710111 0
M  V30 10 C 4.51507 -1.84815 1.2353 0
M  V30 11 C 6.81938 -1.01499 1.04069 0
M  V30 12 C 7.71522 -0.0974065 0.535505 0
M  V30 13 C 7.28489 0.92618 -0.280619 0
M  V30 14 C 5.93189 1.04972 -0.608967 0
M  V30 15 C 5.45832 2.15643 -1.49261 0
M  V30 16 C -2.2408 0.419304 0.269899 0
M  V30 17 C -3.04577 -0.57982 -0.0123065 0
M  V30 18 N -2.62273 -1.86501 -0.541676 0
M  V30 19 C -4.42137 -0.170198 0.298353 0
M  V30 20 N -4.33667 1.1578 0.785162 0
M  V30 21 C -2.9801 1.55782 0.78024 0
M  V30 22 O -2.53676 2.68719 1.15234 0
M  V30 23 C -5.46404 2.00918 1.23195 0
M  V30 24 C -5.34795 -0.316703 -0.891128 0
M  V30 25 C -6.56359 -1.07292 -0.399822 0
M  V30 26 C -6.4611 -1.16659 1.0988 0
M  V30 27 C -4.9758 -1.14128 1.32998 0
M  V30 28 H 0.108031 2.23661 -0.323999 0
M  V30 29 H 0.475236 1.53621 1.347 0
M  V30 30 H 1.57032 0.846879 -1.85938 0
M  V30 31 H 1.39749 -0.757114 -2.59154 0
M  V30 32 H 3.80017 -0.10515 -2.47955 0
M  V30 33 H 3.43904 -1.55094 -1.42653 0
M  V30 34 H 4.34989 -2.71159 0.549864 0
M  V30 35 H 3.52446 -1.36802 1.36916 0
M  V30 36 H 4.91325 -2.26053 2.1866 0
M  V30 37 H 7.19779 -1.78567 1.66503 0
M  V30 38 H 8.77012 -0.160652 0.76765 0
M  V30 39 H 7.98725 1.63101 -0.666429 0
M  V30 40 H 5.3244 1.78212 -2.52992 0
M  V30 41 H 4.48957 2.54634 -1.08067 0
M  V30 42 H 6.20995 2.98816 -1.50686 0
M  V30 43 H -2.50392 -2.00908 -1.56735 0
M  V30 44 H -2.45179 -2.61261 0.168022 0
M  V30 45 H -6.24397 2.01344 0.414423 0
M  V30 46 H -5.10611 3.04563 1.32679 0
M  V30 47 H -5.85833 1.68211 2.19575 0
M  V30 48 H -5.62342 0.665876 -1.33102 0
M  V30 49 H -4.82304 -0.981138 -1.61464 0
M  V30 50 H -7.51181 -0.564659 -0.715429 0
M  V30 51 H -6.58802 -2.12005 -0.796422 0
M  V30 52 H -7.0002 -0.34114 1.59273 0
M  V30 53 H -6.82987 -2.16127 1.4446 0
M  V30 54 H -4.69122 -0.749204 2.32231 0
M  V30 55 H -4.5703 -2.13996 1.1052 0
M  V30 END ATOM
M  V30 BEGIN BOND
M  V30 1 1 1 2
M  V30 2 2 2 3 CFG=2
M  V30 3 1 3 4
M  V30 4 1 4 5
M  V30 5 1 5 6
M  V30 6 1 6 7
M  V30 7 1 7 8
M  V30 8 2 8 9
M  V30 9 1 9 10
M  V30 10 1 9 11
M  V30 11 2 11 12
M  V30 12 1 12 13
M  V30 13 2 13 14
M  V30 14 1 14 15
M  V30 15 1 2 16
M  V30 16 2 16 17
M  V30 17 1 17 18
M  V30 18 1 17 19
M  V30 19 1 19 20
M  V30 20 1 20 21
M  V30 21 2 21 22
M  V30 22 1 20 23
M  V30 23 1 19 24
M  V30 24 1 24 25
M  V30 25 1 25 26
M  V30 26 1 26 27
M  V30 27 1 14 8
M  V30 28 1 21 16
M  V30 29 1 27 19
M  V30 30 1 1 28
M  V30 31 1 1 29
M  V30 32 1 5 30
M  V30 33 1 5 31
M  V30 34 1 6 32
M  V30 35 1 6 33
M  V30 36 1 10 34
M  V30 37 1 10 35
M  V30 38 1 10 36
M  V30 39 1 11 37
M  V30 40 1 12 38
M  V30 41 1 13 39
M  V30 42 1 15 40
M  V30 43 1 15 41
M  V30 44 1 15 42
M  V30 45 1 18 43
M  V30 46 1 18 44
M  V30 47 1 23 45
M  V30 48 1 23 46
M  V30 49 1 23 47
M  V30 50 1 24 48
M  V30 51 1 24 49
M  V30 52 1 25 50
M  V30 53 1 25 51
M  V30 54 1 26 52
M  V30 55 1 26 53
M  V30 56 1 27 54
M  V30 57 1 27 55
M  V30 END BOND
M  V30 END CTAB
M  END
