
     RDKit          3D

  0  0  0  0  0  0  0  0  0  0999 V3000
M  V30 BEGIN CTAB
M  V30 COUNTS 74 78 0 0 0
M  V30 BEGIN ATOM
M  V30 1 C -9.64263 -3.12694 -2.8586 0
M  V30 2 O -8.49914 -2.35395 -2.51364 0
M  V30 3 C -7.66325 -2.69789 -1.45746 0
M  V30 4 C -6.56232 -1.91388 -1.16538 0
M  V30 5 C -5.71013 -2.2032 -0.13505 0
M  V30 6 C -6.01265 -3.35423 0.625106 0
M  V30 7 C -7.09802 -4.13018 0.341557 0
M  V30 8 C -7.96671 -3.82033 -0.724025 0
M  V30 9 C -4.54768 -1.42054 0.247568 0
M  V30 10 C -3.42023 -1.98087 0.794177 0
M  V30 11 C -2.35598 -1.19676 1.22874 0
M  V30 12 C -2.42885 0.176335 1.11173 0
M  V30 13 C -1.3612 1.10375 1.54549 0
M  V30 14 O -0.27598 0.756529 0.635992 0
M  V30 15 C 1.0468 1.02162 0.866018 0
M  V30 16 C 2.08922 0.588092 0.0912447 0
M  V30 17 C 3.40627 0.847188 0.373337 0
M  V30 18 N 3.65401 1.59779 1.49881 0
M  V30 19 C 2.6389 2.03657 2.26492 0
M  V30 20 N 2.92555 2.78026 3.44213 0
M  V30 21 N 1.36835 1.74916 1.94916 0
M  V30 22 C 4.56785 0.223296 -0.228318 0
M  V30 23 C 5.64928 -0.111538 0.626129 0
M  V30 24 C 6.78134 -0.683415 0.146446 0
M  V30 25 C 6.95453 -0.974603 -1.21576 0
M  V30 26 C 8.1596 -1.66744 -1.65699 0
M  V30 27 C 9.36688 -0.758484 -1.84431 0 CFG=2
M  V30 28 N 10.4747 -1.69756 -2.30121 0
M  V30 29 C 9.82794 -0.147195 -0.591511 0
M  V30 30 O 9.30921 1.0339 -0.0972088 0
M  V30 31 O 10.7656 -0.707019 0.0952388 0
M  V30 32 C 5.90727 -0.645701 -2.03837 0
M  V30 33 C 4.72768 -0.0545467 -1.54253 0
M  V30 34 C -0.885531 0.545798 2.92271 0
M  V30 35 F -0.276046 -0.632711 2.86724 0
M  V30 36 F -2.21605 0.1724 3.47566 0
M  V30 37 F -0.532751 1.48334 3.82201 0
M  V30 38 C -3.56354 0.768841 0.550759 0
M  V30 39 C -4.60289 -0.0318988 0.128916 0
M  V30 40 N -3.66943 2.19314 0.484367 0
M  V30 41 C -4.56675 2.83848 1.27057 0
M  V30 42 C -4.51012 4.21605 1.0334 0
M  V30 43 C -3.53364 4.33185 0.0650551 0
M  V30 44 C -3.11555 5.65789 -0.506583 0
M  V30 45 N -3.06448 3.10122 -0.225865 0
M  V30 46 H -9.31232 -4.04641 -3.424 0
M  V30 47 H -10.2503 -2.51454 -3.55754 0
M  V30 48 H -10.2555 -3.38872 -1.98684 0
M  V30 49 H -6.32408 -1.04188 -1.75028 0
M  V30 50 H -5.34413 -3.60599 1.45572 0
M  V30 51 H -7.36168 -5.01459 0.914633 0
M  V30 52 H -8.81354 -4.4732 -0.888163 0
M  V30 53 H -3.36562 -3.04939 0.874502 0
M  V30 54 H -1.49816 -1.71068 1.61427 0
M  V30 55 H -1.47559 2.1172 1.68469 0
M  V30 56 H 1.87559 0.00198232 -0.796424 0
M  V30 57 H 3.44484 3.66803 3.39247 0
M  V30 58 H 2.60457 2.41056 4.39184 0
M  V30 59 H 5.51357 0.117675 1.6706 0
M  V30 60 H 7.60847 -0.964584 0.802299 0
M  V30 61 H 7.94348 -2.10983 -2.67462 0
M  V30 62 H 8.40504 -2.51442 -0.963253 0
M  V30 63 H 9.24405 -0.0575287 -2.668 0
M  V30 64 H 10.3814 -1.73136 -3.32598 0
M  V30 65 H 11.3372 -1.20488 -2.02132 0
M  V30 66 H 9.23844 1.11931 0.932943 0
M  V30 67 H 5.97837 -0.852805 -3.10864 0
M  V30 68 H 3.9505 0.169787 -2.27485 0
M  V30 69 H -5.48094 0.426574 -0.30011 0
M  V30 70 H -5.26103 2.40632 1.99092 0
M  V30 71 H -5.09358 4.98287 1.50123 0
M  V30 72 H -2.39978 5.49861 -1.31142 0
M  V30 73 H -2.77458 6.28035 0.335232 0
M  V30 74 H -4.05419 6.16896 -0.874677 0
M  V30 END ATOM
M  V30 BEGIN BOND
M  V30 1 1 1 2
M  V30 2 1 2 3
M  V30 3 2 3 4
M  V30 4 1 4 5
M  V30 5 2 5 6
M  V30 6 1 6 7
M  V30 7 2 7 8
M  V30 8 1 5 9
M  V30 9 2 9 10
M  V30 10 1 10 11
M  V30 11 2 11 12
M  V30 12 1 12 13
M  V30 13 1 13 14
M  V30 14 1 14 15
M  V30 15 2 15 16
M  V30 16 1 16 17
M  V30 17 2 17 18
M  V30 18 1 18 19
M  V30 19 1 19 20
M  V30 20 2 19 21
M  V30 21 1 17 22
M  V30 22 2 22 23
M  V30 23 1 23 24
M  V30 24 2 24 25
M  V30 25 1 25 26
M  V30 26 1 26 27
M  V30 27 1 27 28
M  V30 28 1 27 29
M  V30 29 1 29 30
M  V30 30 2 29 31
M  V30 31 1 25 32
M  V30 32 2 32 33
M  V30 33 1 13 34
M  V30 34 1 34 35
M  V30 35 1 34 36
M  V30 36 1 34 37
M  V30 37 1 12 38
M  V30 38 2 38 39
M  V30 39 1 38 40
M  V30 40 1 40 41
M  V30 41 2 41 42
M  V30 42 1 42 43
M  V30 43 1 43 44
M  V30 44 2 43 45
M  V30 45 1 8 3
M  V30 46 1 39 9
M  V30 47 1 45 40
M  V30 48 1 21 15
M  V30 49 1 33 22
M  V30 50 1 1 46
M  V30 51 1 1 47
M  V30 52 1 1 48
M  V30 53 1 4 49
M  V30 54 1 6 50
M  V30 55 1 7 51
M  V30 56 1 8 52
M  V30 57 1 10 53
M  V30 58 1 11 54
M  V30 59 1 13 55
M  V30 60 1 16 56
M  V30 61 1 20 57
M  V30 62 1 20 58
M  V30 63 1 23 59
M  V30 64 1 24 60
M  V30 65 1 26 61
M  V30 66 1 26 62
M  V30 67 1 27 63 CFG=3
M  V30 68 1 28 64
M  V30 69 1 28 65
M  V30 70 1 30 66
M  V30 71 1 32 67
M  V30 72 1 33 68
M  V30 73 1 39 69
M  V30 74 1 41 70
M  V30 75 1 42 71
M  V30 76 1 44 72
M  V30 77 1 44 73
M  V30 78 1 44 74
M  V30 END BOND
M  V30 END CTAB
M  END
