
     RDKit          3D

  0  0  0  0  0  0  0  0  0  0999 V3000
M  V30 BEGIN CTAB
M  V30 COUNTS 40 40 0 0 0
M  V30 BEGIN ATOM
M  V30 1 C -0.174455 -0.69654 1.21579 0 CFG=1
M  V30 2 N -0.269756 0.596656 1.79448 0
M  V30 3 C -1.41277 -1.08561 0.431076 0
M  V30 4 C -1.71307 -0.167073 -0.708718 0
M  V30 5 C -2.95529 -0.637558 -1.43235 0
M  V30 6 N -4.11397 -0.679288 -0.611537 0
M  V30 7 C -4.78706 0.431684 -0.0691266 0
M  V30 8 N -5.2479 0.383084 1.25907 0
M  V30 9 N -4.98011 1.47253 -0.768174 0
M  V30 10 C 1.03644 -0.950526 0.428673 0
M  V30 11 O 1.14174 -2.10893 -0.101023 0
M  V30 12 N 2.07306 -0.0230485 0.219338 0
M  V30 13 C 2.13217 1.31608 0.732711 0
M  V30 14 C 3.4332 1.93988 0.262275 0
M  V30 15 C 4.03999 0.963397 -0.694153 0
M  V30 16 C 3.26588 -0.306256 -0.57485 0 CFG=1
M  V30 17 C 4.0871 -1.35479 0.086769 0
M  V30 18 O 5.2587 -1.7688 -0.505797 0
M  V30 19 O 3.73726 -1.86791 1.1678 0
M  V30 20 H -0.143467 -1.42621 2.06846 0
M  V30 21 H -0.990101 1.20486 1.36328 0
M  V30 22 H -0.37913 0.586684 2.84263 0
M  V30 23 H -2.25553 -1.09665 1.15639 0
M  V30 24 H -1.20712 -2.09561 0.0137686 0
M  V30 25 H -0.843756 -0.224592 -1.41258 0
M  V30 26 H -1.84486 0.880048 -0.430836 0
M  V30 27 H -3.13323 0.0648544 -2.27657 0
M  V30 28 H -2.77578 -1.64159 -1.86233 0
M  V30 29 H -4.53171 -1.62426 -0.368367 0
M  V30 30 H -5.67183 -0.492998 1.6338 0
M  V30 31 H -5.18498 1.19039 1.89352 0
M  V30 32 H -4.63662 1.5018 -1.74978 0
M  V30 33 H 1.30679 1.94869 0.330204 0
M  V30 34 H 2.1734 1.29867 1.84595 0
M  V30 35 H 3.25943 2.91011 -0.241414 0
M  V30 36 H 4.12024 2.12767 1.09519 0
M  V30 37 H 4.06918 1.37968 -1.72302 0
M  V30 38 H 5.12217 0.784531 -0.425203 0
M  V30 39 H 2.95985 -0.661309 -1.57926 0
M  V30 40 H 6.03593 -2.07176 0.0915424 0
M  V30 END ATOM
M  V30 BEGIN BOND
M  V30 1 1 1 2
M  V30 2 1 1 3
M  V30 3 1 3 4
M  V30 4 1 4 5
M  V30 5 1 5 6
M  V30 6 1 6 7
M  V30 7 1 7 8
M  V30 8 2 7 9 CFG=2
M  V30 9 1 1 10
M  V30 10 2 10 11
M  V30 11 1 10 12
M  V30 12 1 12 13
M  V30 13 1 13 14
M  V30 14 1 14 15
M  V30 15 1 15 16
M  V30 16 1 16 17
M  V30 17 1 17 18
M  V30 18 2 17 19
M  V30 19 1 16 12
M  V30 20 1 1 20 CFG=1
M  V30 21 1 2 21
M  V30 22 1 2 22
M  V30 23 1 3 23
M  V30 24 1 3 24
M  V30 25 1 4 25
M  V30 26 1 4 26
M  V30 27 1 5 27
M  V30 28 1 5 28
M  V30 29 1 6 29
M  V30 30 1 8 30
M  V30 31 1 8 31
M  V30 32 1 9 32
M  V30 33 1 13 33
M  V30 34 1 13 34
M  V30 35 1 14 35
M  V30 36 1 14 36
M  V30 37 1 15 37
M  V30 38 1 15 38
M  V30 39 1 16 39 CFG=3
M  V30 40 1 18 40
M  V30 END BOND
M  V30 END CTAB
M  END
