
     RDKit          3D

  0  0  0  0  0  0  0  0  0  0999 V3000
M  V30 BEGIN CTAB
M  V30 COUNTS 31 33 0 0 0
M  V30 BEGIN ATOM
M  V30 1 N -4.88374 1.55282 -1.8333 0
M  V30 2 C -4.0155 0.79849 -1.00901 0
M  V30 3 C -4.44891 -0.104664 -0.0857644 0
M  V30 4 C -3.54065 -0.804469 0.683325 0
M  V30 5 N -3.98297 -1.76318 1.66411 0
M  V30 6 C -2.18096 -0.591173 0.519571 0
M  V30 7 C -1.72252 0.31945 -0.410385 0
M  V30 8 C -2.64925 1.00634 -1.1668 0
M  V30 9 C -0.292955 0.567184 -0.606994 0
M  V30 10 N 0.239107 1.43225 -1.48642 0
M  V30 11 N 1.55587 1.34518 -1.33863 0
M  V30 12 C 1.84598 0.456178 -0.398665 0
M  V30 13 O 0.699099 -0.00695419 0.0348649 0
M  V30 14 C 3.17548 0.0729799 0.0586003 0
M  V30 15 C 3.35771 -0.877842 1.05832 0
M  V30 16 C 4.61347 -1.24081 1.49134 0
M  V30 17 C 5.74513 -0.674587 0.949733 0
M  V30 18 C 5.59041 0.269326 -0.0415881 0
M  V30 19 C 4.32594 0.623494 -0.465812 0
M  V30 20 H -5.29763 1.20557 -2.72095 0
M  V30 21 H -5.12851 2.52138 -1.53661 0
M  V30 22 H -5.50021 -0.282939 0.0547823 0
M  V30 23 H -3.35478 -2.06964 2.4205 0
M  V30 24 H -4.94027 -2.14632 1.60689 0
M  V30 25 H -1.46346 -1.14963 1.13299 0
M  V30 26 H -2.25841 1.71889 -1.89307 0
M  V30 27 H 2.44534 -1.3139 1.47365 0
M  V30 28 H 4.7149 -1.98195 2.26883 0
M  V30 29 H 6.71425 -0.992356 1.32321 0
M  V30 30 H 6.45891 0.736127 -0.490896 0
M  V30 31 H 4.17913 1.37475 -1.25582 0
M  V30 END ATOM
M  V30 BEGIN BOND
M  V30 1 1 1 2
M  V30 2 2 2 3
M  V30 3 1 3 4
M  V30 4 1 4 5
M  V30 5 2 4 6
M  V30 6 1 6 7
M  V30 7 2 7 8
M  V30 8 1 7 9
M  V30 9 2 9 10
M  V30 10 1 10 11
M  V30 11 2 11 12
M  V30 12 1 12 13
M  V30 13 1 12 14
M  V30 14 2 14 15
M  V30 15 1 15 16
M  V30 16 2 16 17
M  V30 17 1 17 18
M  V30 18 2 18 19
M  V30 19 1 8 2
M  V30 20 1 13 9
M  V30 21 1 19 14
M  V30 22 1 1 20
M  V30 23 1 1 21
M  V30 24 1 3 22
M  V30 25 1 5 23
M  V30 26 1 5 24
M  V30 27 1 6 25
M  V30 28 1 8 26
M  V30 29 1 15 27
M  V30 30 1 16 28
M  V30 31 1 17 29
M  V30 32 1 18 30
M  V30 33 1 19 31
M  V30 END BOND
M  V30 END CTAB
M  END
