
     RDKit          3D

  0  0  0  0  0  0  0  0  0  0999 V3000
M  V30 BEGIN CTAB
M  V30 COUNTS 38 40 0 0 0
M  V30 BEGIN ATOM
M  V30 1 C 7.26075 2.0393 0.273525 0
M  V30 2 O 6.45787 1.19414 1.06949 0
M  V30 3 C 5.24194 0.767874 0.599787 0
M  V30 4 C 4.80438 1.16038 -0.640249 0
M  V30 5 C 3.62381 0.796415 -1.19387 0
M  V30 6 C 2.74663 -0.0460029 -0.482905 0
M  V30 7 C 3.1584 -0.45242 0.75673 0
M  V30 8 C 4.38704 -0.0584857 1.30326 0
M  V30 9 S 1.84409 -1.42398 1.25208 0
M  V30 10 C 0.854139 -1.25207 -0.148478 0
M  V30 11 N 1.58606 -0.468061 -0.901044 0
M  V30 12 N -0.442533 -1.83005 -0.405103 0
M  V30 13 C -0.982993 -2.64062 0.61258 0
M  V30 14 O -0.319241 -2.83487 1.7008 0
M  V30 15 C -2.28299 -3.32684 0.568444 0
M  V30 16 S -3.36351 -2.87118 -0.769984 0
M  V30 17 C -4.06091 -1.24659 -0.614288 0
M  V30 18 N -3.4556 -0.176732 -1.12427 0
M  V30 19 C -3.96706 1.06055 -1.01848 0
M  V30 20 N -3.29569 2.18896 -1.57609 0
M  V30 21 C -5.15851 1.2827 -0.368092 0
M  V30 22 C -5.79629 0.18239 0.165111 0
M  V30 23 N -5.23025 -1.02831 0.0239141 0
M  V30 24 N -7.02327 0.39215 0.837395 0
M  V30 25 H 7.46974 1.5688 -0.730023 0
M  V30 26 H 6.65601 2.94566 0.0519832 0
M  V30 27 H 8.20428 2.31642 0.788125 0
M  V30 28 H 5.47619 1.81915 -1.21119 0
M  V30 29 H 3.3828 1.16966 -2.18472 0
M  V30 30 H 4.63994 -0.419782 2.28358 0
M  V30 31 H -0.913162 -1.63494 -1.29737 0
M  V30 32 H -2.76617 -3.12838 1.57641 0
M  V30 33 H -2.05385 -4.42643 0.489136 0
M  V30 34 H -3.74442 3.12181 -1.6416 0
M  V30 35 H -2.33043 2.05024 -1.9205 0
M  V30 36 H -5.60494 2.26295 -0.260556 0
M  V30 37 H -7.89508 0.621913 0.329364 0
M  V30 38 H -7.10718 0.324258 1.89088 0
M  V30 END ATOM
M  V30 BEGIN BOND
M  V30 1 1 1 2
M  V30 2 1 2 3
M  V30 3 2 3 4
M  V30 4 1 4 5
M  V30 5 2 5 6
M  V30 6 1 6 7
M  V30 7 2 7 8
M  V30 8 1 7 9
M  V30 9 1 9 10
M  V30 10 2 10 11
M  V30 11 1 10 12
M  V30 12 1 12 13
M  V30 13 2 13 14
M  V30 14 1 13 15
M  V30 15 1 15 16
M  V30 16 1 16 17
M  V30 17 2 17 18
M  V30 18 1 18 19
M  V30 19 1 19 20
M  V30 20 2 19 21
M  V30 21 1 21 22
M  V30 22 2 22 23
M  V30 23 1 22 24
M  V30 24 1 8 3
M  V30 25 1 23 17
M  V30 26 1 11 6
M  V30 27 1 1 25
M  V30 28 1 1 26
M  V30 29 1 1 27
M  V30 30 1 4 28
M  V30 31 1 5 29
M  V30 32 1 8 30
M  V30 33 1 12 31
M  V30 34 1 15 32
M  V30 35 1 15 33
M  V30 36 1 20 34
M  V30 37 1 20 35
M  V30 38 1 21 36
M  V30 39 1 24 37
M  V30 40 1 24 38
M  V30 END BOND
M  V30 END CTAB
M  END
