
     RDKit          3D

  0  0  0  0  0  0  0  0  0  0999 V3000
M  V30 BEGIN CTAB
M  V30 COUNTS 21 22 0 0 0
M  V30 BEGIN ATOM
M  V30 1 N 2.76204 0.538982 -0.605528 0
M  V30 2 C 1.63398 -0.297789 -0.241892 0
M  V30 3 C 0.469074 0.269354 -0.134205 0
M  V30 4 C 0.368025 1.62949 -0.370185 0
M  V30 5 C -0.832822 2.28932 -0.273253 0
M  V30 6 C -1.99429 1.64281 0.060915 0
M  V30 7 C -1.92036 0.288274 0.300826 0
M  V30 8 C -0.701211 -0.387032 0.20343 0
M  V30 9 C -0.973681 -1.6387 0.487674 0
M  V30 10 C -2.41323 -1.82183 0.786166 0
M  V30 11 N -2.9248 -0.649583 0.66069 0
M  V30 12 N 1.92781 -1.66347 -0.0402605 0
M  V30 13 H 3.24737 0.254581 -1.48386 0
M  V30 14 H 3.03786 1.33922 -0.0271638 0
M  V30 15 H 1.27172 2.20199 -0.643185 0
M  V30 16 H -0.920025 3.36829 -0.459161 0
M  V30 17 H -2.94001 2.1611 0.137497 0
M  V30 18 H -0.274164 -2.44152 0.509523 0
M  V30 19 H -2.89503 -2.75755 1.04971 0
M  V30 20 H 2.07992 -2.03026 0.944038 0
M  V30 21 H 1.99184 -2.29567 -0.861777 0
M  V30 END ATOM
M  V30 BEGIN BOND
M  V30 1 1 1 2
M  V30 2 2 2 3 CFG=2
M  V30 3 1 3 4
M  V30 4 2 4 5
M  V30 5 1 5 6
M  V30 6 2 6 7
M  V30 7 1 7 8
M  V30 8 2 8 9
M  V30 9 1 9 10
M  V30 10 2 10 11
M  V30 11 1 2 12
M  V30 12 1 8 3
M  V30 13 1 11 7
M  V30 14 1 1 13
M  V30 15 1 1 14
M  V30 16 1 4 15
M  V30 17 1 5 16
M  V30 18 1 6 17
M  V30 19 1 9 18
M  V30 20 1 10 19
M  V30 21 1 12 20
M  V30 22 1 12 21
M  V30 END BOND
M  V30 END CTAB
M  END
