
     RDKit          3D

  0  0  0  0  0  0  0  0  0  0999 V3000
M  V30 BEGIN CTAB
M  V30 COUNTS 15 15 0 0 0
M  V30 BEGIN ATOM
M  V30 1 N 2.68704 -0.572597 -0.102654 0
M  V30 2 C 1.32315 -0.140271 -0.0343516 0
M  V30 3 C 0.994713 1.18947 0.146495 0
M  V30 4 C -0.32285 1.59766 0.211192 0
M  V30 5 C -1.36172 0.684421 0.096542 0
M  V30 6 C -0.994242 -0.634865 -0.0831934 0
M  V30 7 N 0.298652 -1.00497 -0.142603 0
M  V30 8 N -2.04837 -1.58108 -0.202154 0
M  V30 9 I -3.38311 1.28668 0.192581 0
M  V30 10 H 3.12154 -1.04005 0.723217 0
M  V30 11 H 3.28393 -0.44582 -0.944912 0
M  V30 12 H 1.82299 1.87998 0.232869 0
M  V30 13 H -0.558708 2.65491 0.35476 0
M  V30 14 H -2.62378 -1.66818 -1.05251 0
M  V30 15 H -2.23923 -2.20529 0.604726 0
M  V30 END ATOM
M  V30 BEGIN BOND
M  V30 1 1 1 2
M  V30 2 2 2 3
M  V30 3 1 3 4
M  V30 4 2 4 5
M  V30 5 1 5 6
M  V30 6 2 6 7
M  V30 7 1 6 8
M  V30 8 1 5 9
M  V30 9 1 7 2
M  V30 10 1 1 10
M  V30 11 1 1 11
M  V30 12 1 3 12
M  V30 13 1 4 13
M  V30 14 1 8 14
M  V30 15 1 8 15
M  V30 END BOND
M  V30 END CTAB
M  END
