
     RDKit          3D

  0  0  0  0  0  0  0  0  0  0999 V3000
M  V30 BEGIN CTAB
M  V30 COUNTS 21 21 0 0 0
M  V30 BEGIN ATOM
M  V30 1 N 2.62058 -1.78415 -0.579121 0
M  V30 2 C 1.71973 -0.731209 -0.242767 0
M  V30 3 C 2.18983 0.494198 0.166853 0
M  V30 4 C 1.34504 1.53419 0.499577 0
M  V30 5 I 2.09152 3.40156 1.12412 0
M  V30 6 C -0.021583 1.30242 0.40677 0
M  V30 7 C -0.547447 0.103251 0.00512222 0
M  V30 8 C 0.346558 -0.902116 -0.315588 0
M  V30 9 C -1.97658 -0.111223 -0.0827832 0
M  V30 10 O -2.75056 0.843862 0.222748 0
M  V30 11 C -2.59422 -1.37408 -0.50654 0
M  V30 12 N -0.874117 2.37743 0.750998 0
M  V30 13 H 3.40089 -1.54072 -1.22621 0
M  V30 14 H 2.55069 -2.74847 -0.230954 0
M  V30 15 H 3.25652 0.657998 0.233635 0
M  V30 16 H 0.00895263 -1.87725 -0.641109 0
M  V30 17 H -3.60054 -1.17611 -0.964561 0
M  V30 18 H -2.8265 -2.02791 0.383277 0
M  V30 19 H -1.95609 -1.9753 -1.18109 0
M  V30 20 H -1.29045 2.38912 1.69968 0
M  V30 21 H -1.09222 3.14452 0.0908462 0
M  V30 END ATOM
M  V30 BEGIN BOND
M  V30 1 1 1 2
M  V30 2 2 2 3
M  V30 3 1 3 4
M  V30 4 1 4 5
M  V30 5 2 4 6
M  V30 6 1 6 7
M  V30 7 2 7 8
M  V30 8 1 7 9
M  V30 9 2 9 10
M  V30 10 1 9 11
M  V30 11 1 6 12
M  V30 12 1 8 2
M  V30 13 1 1 13
M  V30 14 1 1 14
M  V30 15 1 3 15
M  V30 16 1 8 16
M  V30 17 1 11 17
M  V30 18 1 11 18
M  V30 19 1 11 19
M  V30 20 1 12 20
M  V30 21 1 12 21
M  V30 END BOND
M  V30 END CTAB
M  END
