
     RDKit          3D

  0  0  0  0  0  0  0  0  0  0999 V3000
M  V30 BEGIN CTAB
M  V30 COUNTS 25 26 0 0 0
M  V30 BEGIN ATOM
M  V30 1 N -2.59733 -2.59034 0.720891 0
M  V30 2 C -1.95387 -1.55623 0.0415258 0
M  V30 3 C -0.696514 -1.24406 0.312039 0
M  V30 4 C 0.0408207 -1.98198 1.33629 0
M  V30 5 N 0.623883 -2.57558 2.14085 0
M  V30 6 C -0.0489908 -0.160697 -0.453332 0
M  V30 7 C 1.36256 0.048673 -0.0146364 0
M  V30 8 C 2.49969 -0.132753 -0.747661 0
M  V30 9 C 3.67323 0.117098 -0.147797 0
M  V30 10 C 3.63013 0.535502 1.15703 0
M  V30 11 S 1.95892 0.564468 1.49679 0
M  V30 12 C -0.790376 1.11688 -0.510677 0
M  V30 13 C -0.152429 2.38402 -0.179743 0
M  V30 14 N 0.354744 3.38812 0.0848527 0
M  V30 15 C -2.06129 1.09861 -0.871735 0
M  V30 16 N -2.83565 2.27865 -0.952872 0
M  V30 17 S -2.78201 -0.541266 -1.23218 0
M  V30 18 H -3.51139 -2.45437 1.16688 0
M  V30 19 H -2.14579 -3.52442 0.780963 0
M  V30 20 H 0.0166953 -0.504862 -1.53011 0
M  V30 21 H 2.46767 -0.477065 -1.8113 0
M  V30 22 H 4.67131 0.00893182 -0.632706 0
M  V30 23 H 4.48242 0.78819 1.81369 0
M  V30 24 H -2.32394 3.17288 -1.10933 0
M  V30 25 H -3.88249 2.2416 -0.857727 0
M  V30 END ATOM
M  V30 BEGIN BOND
M  V30 1 1 1 2
M  V30 2 2 2 3
M  V30 3 1 3 4
M  V30 4 3 4 5
M  V30 5 1 3 6
M  V30 6 1 6 7
M  V30 7 2 7 8
M  V30 8 1 8 9
M  V30 9 2 9 10
M  V30 10 1 10 11
M  V30 11 1 6 12
M  V30 12 1 12 13
M  V30 13 3 13 14
M  V30 14 2 12 15
M  V30 15 1 15 16
M  V30 16 1 15 17
M  V30 17 1 17 2
M  V30 18 1 11 7
M  V30 19 1 1 18
M  V30 20 1 1 19
M  V30 21 1 6 20
M  V30 22 1 8 21
M  V30 23 1 9 22
M  V30 24 1 10 23
M  V30 25 1 16 24
M  V30 26 1 16 25
M  V30 END BOND
M  V30 END CTAB
M  END
