
     RDKit          3D

  0  0  0  0  0  0  0  0  0  0999 V3000
M  V30 BEGIN CTAB
M  V30 COUNTS 25 25 0 0 0
M  V30 BEGIN ATOM
M  V30 1 C 4.33621 -0.149944 0.12025 0
M  V30 2 O 2.94907 0.191975 0.270117 0
M  V30 3 C 1.96442 -0.589734 -0.279418 0
M  V30 4 O 2.32446 -1.6151 -0.91803 0
M  V30 5 C 0.553789 -0.245981 -0.129524 0
M  V30 6 C -0.442158 -1.01228 -0.669743 0
M  V30 7 C -1.78104 -0.652869 -0.506259 0
M  V30 8 C -2.12337 0.482567 0.203707 0
M  V30 9 C -1.12575 1.25187 0.745939 0
M  V30 10 C 0.213071 0.888034 0.579611 0
M  V30 11 N 1.26097 1.6732 1.13449 0
M  V30 12 N -3.47912 0.889385 0.396691 0
M  V30 13 C -2.85583 -1.47872 -1.08856 0
M  V30 14 F -2.30795 -2.53985 -1.74069 0
M  V30 15 F -3.58333 -0.750701 -2.03055 0
M  V30 16 F -3.77106 -1.85416 -0.116416 0
M  V30 17 H 4.67173 0.0563424 -0.92933 0
M  V30 18 H 4.44288 -1.20746 0.367539 0
M  V30 19 H 4.95794 0.47959 0.767599 0
M  V30 20 H -0.151549 -1.90172 -1.22479 0
M  V30 21 H -1.37637 2.13957 1.30185 0
M  V30 22 H 1.79537 2.39076 0.636661 0
M  V30 23 H 1.48876 1.48012 2.15072 0
M  V30 24 H -3.88586 0.826728 1.33644 0
M  V30 25 H -4.07528 1.24837 -0.378305 0
M  V30 END ATOM
M  V30 BEGIN BOND
M  V30 1 1 1 2
M  V30 2 1 2 3
M  V30 3 2 3 4
M  V30 4 1 3 5
M  V30 5 2 5 6
M  V30 6 1 6 7
M  V30 7 2 7 8
M  V30 8 1 8 9
M  V30 9 2 9 10
M  V30 10 1 10 11
M  V30 11 1 8 12
M  V30 12 1 7 13
M  V30 13 1 13 14
M  V30 14 1 13 15
M  V30 15 1 13 16
M  V30 16 1 10 5
M  V30 17 1 1 17
M  V30 18 1 1 18
M  V30 19 1 1 19
M  V30 20 1 6 20
M  V30 21 1 9 21
M  V30 22 1 11 22
M  V30 23 1 11 23
M  V30 24 1 12 24
M  V30 25 1 12 25
M  V30 END BOND
M  V30 END CTAB
M  END
