
     RDKit          3D

  0  0  0  0  0  0  0  0  0  0999 V3000
M  V30 BEGIN CTAB
M  V30 COUNTS 54 58 0 0 0
M  V30 BEGIN ATOM
M  V30 1 N 7.9171 -1.49878 2.26833 0
M  V30 2 C 7.10668 -1.17075 1.10051 0
M  V30 3 N 5.73854 -1.00066 1.38704 0
M  V30 4 C 4.95308 -0.750493 0.38653 0
M  V30 5 N 3.66695 -0.514804 0.130952 0
M  V30 6 C 3.22042 -0.31245 -0.999252 0
M  V30 7 N 4.33296 -0.400059 -1.73975 0
M  V30 8 C 5.44208 -0.637791 -1.03348 0
M  V30 9 C 6.78009 -0.823692 -1.21152 0
M  V30 10 O 7.27241 -0.784362 -2.30647 0
M  V30 11 N 7.55446 -1.09247 -0.0624317 0
M  V30 12 C 1.87731 -0.127068 -1.56993 0
M  V30 13 O 1.21683 -0.0675656 -2.40009 0
M  V30 14 O 1.02039 0.157348 -0.196907 0
M  V30 15 C -0.362023 0.319218 -0.697902 0 CFG=2
M  V30 16 C -0.831214 1.70577 -0.537798 0 CFG=1
M  V30 17 C -0.639185 2.59672 -1.78094 0
M  V30 18 O -1.80873 3.36909 -1.7339 0
M  V30 19 P -1.75058 4.95874 -1.47252 0
M  V30 20 O -3.19745 5.34981 -0.961081 0
M  V30 21 O -0.747983 5.27249 -0.0598203 0
M  V30 22 O -1.35321 6.07535 -2.60767 0
M  V30 23 O -2.25259 1.42468 -0.59151 0
M  V30 24 C -2.50191 0.456679 0.284656 0 CFG=2
M  V30 25 C -1.21704 -0.355776 0.407786 0 CFG=2
M  V30 26 O -0.585879 -0.0043103 1.63914 0
M  V30 27 N -3.45198 -0.537256 -0.239769 0
M  V30 28 C -3.69492 -0.83067 -1.49228 0
M  V30 29 N -4.43314 -1.95024 -1.52932 0
M  V30 30 C -4.67484 -2.3727 -0.285771 0
M  V30 31 C -4.03267 -1.42298 0.565407 0
M  V30 32 N -4.18367 -1.62191 1.88135 0
M  V30 33 C -4.85651 -2.62858 2.44691 0
M  V30 34 N -5.06602 -2.70229 3.83539 0
M  V30 35 N -5.4409 -3.54398 1.6528 0
M  V30 36 C -5.36601 -3.42405 0.328775 0
M  V30 37 O -5.93293 -4.25118 -0.410052 0
M  V30 38 H 8.9122 -1.23959 2.33166 0
M  V30 39 H 7.40821 -2.01568 3.05295 0
M  V30 40 H 4.38346 -0.282855 -2.81968 0
M  V30 41 H 8.59718 -1.28635 -0.288293 0
M  V30 42 H -0.527205 -0.0656386 -1.69435 0
M  V30 43 H -0.524051 2.17504 0.354378 0
M  V30 44 H -0.7279 1.97176 -2.67201 0
M  V30 45 H 0.239664 3.16948 -1.70403 0
M  V30 46 H -1.24186 4.73419 0.643812 0
M  V30 47 H -1.36424 6.98629 -2.16604 0
M  V30 48 H -2.78734 0.709119 1.32774 0
M  V30 49 H -1.31911 -1.41184 0.314271 0
M  V30 50 H -1.13869 -0.211881 2.41963 0
M  V30 51 H -3.36305 -0.235975 -2.3477 0
M  V30 52 H -6.05507 -2.90212 4.20618 0
M  V30 53 H -4.31871 -2.60861 4.52656 0
M  V30 54 H -5.8914 -4.34433 2.11952 0
M  V30 END ATOM
M  V30 BEGIN BOND
M  V30 1 1 1 2
M  V30 2 2 2 3
M  V30 3 1 3 4
M  V30 4 1 4 5
M  V30 5 2 5 6
M  V30 6 1 6 7
M  V30 7 1 7 8
M  V30 8 1 8 9
M  V30 9 2 9 10
M  V30 10 1 9 11
M  V30 11 1 6 12
M  V30 12 2 12 13
M  V30 13 1 12 14
M  V30 14 1 14 15
M  V30 15 1 15 16
M  V30 16 1 16 17
M  V30 17 1 17 18
M  V30 18 1 18 19
M  V30 19 2 19 20
M  V30 20 1 19 21
M  V30 21 1 19 22
M  V30 22 1 16 23
M  V30 23 1 23 24
M  V30 24 1 24 25
M  V30 25 1 25 26
M  V30 26 1 24 27
M  V30 27 1 27 28
M  V30 28 2 28 29
M  V30 29 1 29 30
M  V30 30 2 30 31
M  V30 31 1 31 32
M  V30 32 2 32 33
M  V30 33 1 33 34
M  V30 34 1 33 35
M  V30 35 1 35 36
M  V30 36 2 36 37
M  V30 37 1 11 2
M  V30 38 1 25 15
M  V30 39 1 31 27
M  V30 40 2 8 4
M  V30 41 1 36 30
M  V30 42 1 1 38
M  V30 43 1 1 39
M  V30 44 1 7 40
M  V30 45 1 11 41
M  V30 46 1 15 42 CFG=3
M  V30 47 1 16 43 CFG=1
M  V30 48 1 17 44
M  V30 49 1 17 45
M  V30 50 1 21 46
M  V30 51 1 22 47
M  V30 52 1 24 48 CFG=1
M  V30 53 1 25 49 CFG=3
M  V30 54 1 26 50
M  V30 55 1 28 51
M  V30 56 1 34 52
M  V30 57 1 34 53
M  V30 58 1 35 54
M  V30 END BOND
M  V30 END CTAB
M  END
