
     RDKit          3D

  0  0  0  0  0  0  0  0  0  0999 V3000
M  V30 BEGIN CTAB
M  V30 COUNTS 69 73 0 0 0
M  V30 BEGIN ATOM
M  V30 1 N -10.5503 1.46884 -0.502129 0
M  V30 2 C -9.23038 0.918089 -0.601081 0
M  V30 3 N -8.33205 1.5116 -1.45429 0
M  V30 4 C -7.0859 1.00418 -1.54561 0
M  V30 5 O -6.34987 1.67393 -2.37179 0
M  V30 6 N -6.66476 -0.0352201 -0.862829 0
M  V30 7 C -7.54226 -0.645461 -0.00529135 0
M  V30 8 C -8.81082 -0.159896 0.117421 0
M  V30 9 C -5.33009 -0.556745 -0.873124 0 CFG=2
M  V30 10 O -5.03244 -1.16465 0.399289 0
M  V30 11 C -4.1443 -0.406653 1.0805 0 CFG=2
M  V30 12 C -4.71076 0.633126 1.97444 0
M  V30 13 O -5.4815 0.017049 2.95339 0
M  V30 14 C -3.3067 0.280591 0.0406099 0 CFG=1
M  V30 15 O -2.24288 -0.544095 -0.238968 0
M  V30 16 P -0.88812 0.30328 0.18466 0
M  V30 17 O -1.27819 1.54659 1.28815 0
M  V30 18 O -0.607703 1.16575 -1.15966 0
M  V30 19 O 0.496169 -0.352451 0.584154 0
M  V30 20 C 0.947622 -1.55704 -0.0232033 0
M  V30 21 C 2.33521 -1.08601 -0.45538 0 CFG=1
M  V30 22 O 2.93387 -0.242794 0.604001 0
M  V30 23 C 3.95883 0.117439 -0.217736 0 CFG=2
M  V30 24 C 4.62845 -1.27044 -0.197366 0 CFG=2
M  V30 25 O 5.68828 -1.28479 -1.02558 0
M  V30 26 C 3.36366 -2.00938 -0.81537 0 CFG=2
M  V30 27 O 3.7661 -2.04274 -2.18121 0
M  V30 28 P 4.79288 -3.39002 -2.33482 0
M  V30 29 O 5.03012 -4.06082 -0.816359 0
M  V30 30 O 6.27188 -2.96478 -3.07857 0
M  V30 31 O 4.15728 -4.40455 -3.22924 0
M  V30 32 N 4.85471 1.15595 0.0605759 0
M  V30 33 C 4.89426 2.33129 -0.580808 0
M  V30 34 N 6.03487 3.03439 -0.138412 0
M  V30 35 C 6.65042 2.23056 0.746699 0
M  V30 36 C 5.91985 1.07998 0.865599 0
M  V30 37 N 6.27786 0.105521 1.67839 0
M  V30 38 C 7.43112 0.315932 2.40033 0
M  V30 39 N 8.1621 1.44621 2.28894 0
M  V30 40 C 7.80421 2.43036 1.48017 0
M  V30 41 N 8.72335 3.52986 1.24831 0
M  V30 42 C -4.30369 0.542565 -1.06695 0 CFG=1
M  V30 43 O -3.71932 0.589744 -2.30049 0
M  V30 44 H -10.6651 2.21631 0.172586 0
M  V30 45 H -11.3272 1.12801 -1.08211 0
M  V30 46 H -7.25534 -1.50197 0.575742 0
M  V30 47 H -9.52286 -0.67281 0.832991 0
M  V30 48 H -5.22814 -1.25905 -1.70277 0
M  V30 49 H -3.46945 -1.06176 1.69212 0
M  V30 50 H -5.31399 1.38315 1.39604 0
M  V30 51 H -3.90844 1.25363 2.43689 0
M  V30 52 H -4.84163 -0.356153 3.63425 0
M  V30 53 H -2.95904 1.26657 0.407634 0
M  V30 54 H -0.918434 2.42289 0.973051 0
M  V30 55 H 1.05027 -2.33533 0.708718 0
M  V30 56 H 0.329606 -1.88121 -0.869322 0
M  V30 57 H 2.1123 -0.347975 -1.29403 0
M  V30 58 H 3.51186 0.138024 -1.2679 0
M  V30 59 H 4.70704 -1.69093 0.775928 0
M  V30 60 H 5.92465 -0.392771 -1.38356 0
M  V30 61 H 3.37745 -3.03398 -0.382634 0
M  V30 62 H 5.9673 -4.08231 -0.507367 0
M  V30 63 H 6.93961 -3.60047 -2.72165 0
M  V30 64 H 4.18538 2.71873 -1.27947 0
M  V30 65 H 7.71507 -0.502398 3.08347 0
M  V30 66 H 8.63872 4.52015 1.36295 0
M  V30 67 H 9.64848 3.19953 0.754877 0
M  V30 68 H -4.77488 1.57081 -0.849896 0
M  V30 69 H -3.43428 -0.352965 -2.52723 0
M  V30 END ATOM
M  V30 BEGIN BOND
M  V30 1 1 1 2
M  V30 2 2 2 3
M  V30 3 1 3 4
M  V30 4 2 4 5
M  V30 5 1 4 6
M  V30 6 1 6 7
M  V30 7 2 7 8
M  V30 8 1 6 9
M  V30 9 1 9 10
M  V30 10 1 10 11
M  V30 11 1 11 12
M  V30 12 1 12 13
M  V30 13 1 11 14
M  V30 14 1 14 15
M  V30 15 1 15 16
M  V30 16 1 16 17
M  V30 17 2 16 18
M  V30 18 1 16 19
M  V30 19 1 19 20
M  V30 20 1 20 21
M  V30 21 1 21 22
M  V30 22 1 22 23
M  V30 23 1 23 24
M  V30 24 1 24 25
M  V30 25 1 24 26
M  V30 26 1 26 27
M  V30 27 1 27 28
M  V30 28 1 28 29
M  V30 29 1 28 30
M  V30 30 2 28 31
M  V30 31 1 23 32
M  V30 32 1 32 33
M  V30 33 2 33 34
M  V30 34 1 34 35
M  V30 35 2 35 36
M  V30 36 1 36 37
M  V30 37 2 37 38
M  V30 38 1 38 39
M  V30 39 2 39 40
M  V30 40 1 40 41
M  V30 41 1 14 42
M  V30 42 1 42 43
M  V30 43 1 8 2
M  V30 44 1 42 9
M  V30 45 1 26 21
M  V30 46 1 36 32
M  V30 47 1 40 35
M  V30 48 1 1 44
M  V30 49 1 1 45
M  V30 50 1 7 46
M  V30 51 1 8 47
M  V30 52 1 9 48 CFG=3
M  V30 53 1 11 49 CFG=1
M  V30 54 1 12 50
M  V30 55 1 12 51
M  V30 56 1 13 52
M  V30 57 1 14 53 CFG=1
M  V30 58 1 17 54
M  V30 59 1 20 55
M  V30 60 1 20 56
M  V30 61 1 21 57 CFG=3
M  V30 62 1 23 58 CFG=3
M  V30 63 1 24 59 CFG=1
M  V30 64 1 25 60
M  V30 65 1 26 61 CFG=1
M  V30 66 1 29 62
M  V30 67 1 30 63
M  V30 68 1 33 64
M  V30 69 1 38 65
M  V30 70 1 41 66
M  V30 71 1 41 67
M  V30 72 1 42 68 CFG=1
M  V30 73 1 43 69
M  V30 END BOND
M  V30 END CTAB
M  END
