
     RDKit          3D

  0  0  0  0  0  0  0  0  0  0999 V3000
M  V30 BEGIN CTAB
M  V30 COUNTS 41 41 0 0 0
M  V30 BEGIN ATOM
M  V30 1 N -0.76029 2.78887 -0.310154 0
M  V30 2 C 0.202277 2.33091 0.631339 0
M  V30 3 C 0.0558728 0.935928 1.15619 0
M  V30 4 N 0.0719899 -0.103722 0.177287 0
M  V30 5 C -0.990698 -0.711652 -0.444714 0
M  V30 6 O -0.575825 -1.61814 -1.34417 0
M  V30 7 C -2.42777 -0.599193 -0.346761 0
M  V30 8 C -3.21765 -1.42305 -1.18637 0
M  V30 9 C -4.59069 -1.38377 -1.13151 0
M  V30 10 C -5.27577 -0.562124 -0.278773 0
M  V30 11 C -4.54641 0.243335 0.541856 0
M  V30 12 C -3.14092 0.202585 0.484714 0
M  V30 13 N -6.69545 -0.53141 -0.231182 0
M  V30 14 C 1.41617 -0.532859 -0.177173 0
M  V30 15 O 1.57322 -1.42426 -1.0098 0
M  V30 16 O 2.54192 0.0292274 0.392706 0
M  V30 17 C 3.81041 -0.438674 -0.000886398 0
M  V30 18 C 3.97002 -1.91523 0.292555 0
M  V30 19 C 4.08791 -0.238383 -1.46645 0
M  V30 20 C 4.84153 0.316079 0.824627 0
M  V30 21 H -1.60339 3.13915 0.175689 0
M  V30 22 H -0.351357 3.5815 -0.852594 0
M  V30 23 H 1.21444 2.51524 0.194959 0
M  V30 24 H 0.148701 3.00931 1.52018 0
M  V30 25 H -0.688551 0.904251 1.93995 0
M  V30 26 H 1.02782 0.743919 1.80214 0
M  V30 27 H -2.69814 -2.08653 -1.87565 0
M  V30 28 H -5.16504 -2.03175 -1.79229 0
M  V30 29 H -5.01171 0.922869 1.24589 0
M  V30 30 H -2.59458 0.862977 1.13576 0
M  V30 31 H -7.28743 -0.904388 -1.03239 0
M  V30 32 H -7.22098 -0.15099 0.571854 0
M  V30 33 H 5.02891 -2.08336 0.572184 0
M  V30 34 H 3.79944 -2.54035 -0.62008 0
M  V30 35 H 3.26523 -2.19451 1.1099 0
M  V30 36 H 3.77434 -1.09103 -2.08907 0
M  V30 37 H 3.58785 0.665744 -1.87138 0
M  V30 38 H 5.17907 -0.102575 -1.63828 0
M  V30 39 H 4.71059 1.40915 0.65076 0
M  V30 40 H 4.68253 0.0461563 1.87982 0
M  V30 41 H 5.8524 0.0207522 0.496764 0
M  V30 END ATOM
M  V30 BEGIN BOND
M  V30 1 1 1 2
M  V30 2 1 2 3
M  V30 3 1 3 4
M  V30 4 1 4 5
M  V30 5 2 5 6
M  V30 6 1 5 7
M  V30 7 2 7 8
M  V30 8 1 8 9
M  V30 9 2 9 10
M  V30 10 1 10 11
M  V30 11 2 11 12
M  V30 12 1 10 13
M  V30 13 1 4 14
M  V30 14 2 14 15
M  V30 15 1 14 16
M  V30 16 1 16 17
M  V30 17 1 17 18
M  V30 18 1 17 19
M  V30 19 1 17 20
M  V30 20 1 12 7
M  V30 21 1 1 21
M  V30 22 1 1 22
M  V30 23 1 2 23
M  V30 24 1 2 24
M  V30 25 1 3 25
M  V30 26 1 3 26
M  V30 27 1 8 27
M  V30 28 1 9 28
M  V30 29 1 11 29
M  V30 30 1 12 30
M  V30 31 1 13 31
M  V30 32 1 13 32
M  V30 33 1 18 33
M  V30 34 1 18 34
M  V30 35 1 18 35
M  V30 36 1 19 36
M  V30 37 1 19 37
M  V30 38 1 19 38
M  V30 39 1 20 39
M  V30 40 1 20 40
M  V30 41 1 20 41
M  V30 END BOND
M  V30 END CTAB
M  END
