
     RDKit          3D

  0  0  0  0  0  0  0  0  0  0999 V3000
M  V30 BEGIN CTAB
M  V30 COUNTS 25 25 0 0 0
M  V30 BEGIN ATOM
M  V30 1 N 2.67036 1.04273 0.984367 0
M  V30 2 C 2.26024 -0.150289 0.333235 0 CFG=2
M  V30 3 C 1.71775 0.247935 -1.02426 0
M  V30 4 C 0.241396 0.481478 -0.664906 0
M  V30 5 C -0.0549982 -0.790988 0.0646137 0 CFG=1
M  V30 6 C 1.10642 -0.795172 1.07122 0
M  V30 7 C -1.31169 -0.779205 0.870725 0
M  V30 8 S -2.78105 -0.486667 -0.0355145 0
M  V30 9 O -3.934 -0.511503 0.937131 0
M  V30 10 O -3.0049 -1.63058 -0.987754 0
M  V30 11 N -2.81736 1.00907 -0.851674 0
M  V30 12 H 1.97048 1.62693 1.3753 0
M  V30 13 H 3.51478 1.39531 0.621476 0
M  V30 14 H 3.08608 -0.883246 0.252949 0
M  V30 15 H 2.18419 1.16598 -1.40869 0
M  V30 16 H 1.76971 -0.60374 -1.73226 0
M  V30 17 H 0.23394 1.32508 0.0335865 0
M  V30 18 H -0.36429 0.627947 -1.57413 0
M  V30 19 H 0.0348592 -1.67231 -0.580976 0
M  V30 20 H 0.772958 -0.0943879 1.89049 0
M  V30 21 H 1.3228 -1.79206 1.44897 0
M  V30 22 H -1.2374 -0.0667195 1.72838 0
M  V30 23 H -1.40412 -1.78544 1.34241 0
M  V30 24 H -2.17558 1.72319 -0.443949 0
M  V30 25 H -3.80058 1.39665 -0.941785 0
M  V30 END ATOM
M  V30 BEGIN BOND
M  V30 1 1 1 2
M  V30 2 1 2 3
M  V30 3 1 3 4
M  V30 4 1 4 5
M  V30 5 1 5 6
M  V30 6 1 5 7
M  V30 7 1 7 8
M  V30 8 2 8 9
M  V30 9 2 8 10
M  V30 10 1 8 11
M  V30 11 1 6 2
M  V30 12 1 1 12
M  V30 13 1 1 13
M  V30 14 1 2 14 CFG=3
M  V30 15 1 3 15
M  V30 16 1 3 16
M  V30 17 1 4 17
M  V30 18 1 4 18
M  V30 19 1 5 19 CFG=3
M  V30 20 1 6 20
M  V30 21 1 6 21
M  V30 22 1 7 22
M  V30 23 1 7 23
M  V30 24 1 11 24
M  V30 25 1 11 25
M  V30 END BOND
M  V30 END CTAB
M  END
