
     RDKit          3D

  0  0  0  0  0  0  0  0  0  0999 V3000
M  V30 BEGIN CTAB
M  V30 COUNTS 21 21 0 0 0
M  V30 BEGIN ATOM
M  V30 1 N -1.42802 1.95586 -0.411065 0
M  V30 2 C -1.69656 0.923219 0.526123 0
M  V30 3 C -1.36496 -0.460815 0.00857352 0
M  V30 4 C 0.0925893 -0.454127 -0.301686 0
M  V30 5 C 0.819732 -0.962986 -1.33793 0
M  V30 6 N 2.09043 -0.714389 -1.34788 0
M  V30 7 C 2.66104 -0.00300867 -0.397433 0
M  V30 8 S 1.34224 0.373014 0.616643 0
M  V30 9 N 4.03249 0.303907 -0.272931 0
M  V30 10 F -2.1342 -0.799017 -1.0761 0
M  V30 11 C -1.51401 -1.45685 1.16683 0
M  V30 12 H -2.11993 1.96336 -1.19702 0
M  V30 13 H -1.50579 2.87381 0.105717 0
M  V30 14 H -2.75918 1.0347 0.860843 0
M  V30 15 H -1.11311 1.11862 1.46512 0
M  V30 16 H 0.298534 -1.55676 -2.11584 0
M  V30 17 H 4.68039 -0.350455 0.190188 0
M  V30 18 H 4.33975 1.25518 -0.653879 0
M  V30 19 H -2.58605 -1.52319 1.43506 0
M  V30 20 H -0.893713 -1.10622 2.00595 0
M  V30 21 H -1.24168 -2.41384 0.730717 0
M  V30 END ATOM
M  V30 BEGIN BOND
M  V30 1 1 1 2
M  V30 2 1 2 3
M  V30 3 1 3 4
M  V30 4 2 4 5
M  V30 5 1 5 6
M  V30 6 2 6 7
M  V30 7 1 7 8
M  V30 8 1 7 9
M  V30 9 1 3 10
M  V30 10 1 3 11
M  V30 11 1 8 4
M  V30 12 1 1 12
M  V30 13 1 1 13
M  V30 14 1 2 14
M  V30 15 1 2 15
M  V30 16 1 5 16
M  V30 17 1 9 17
M  V30 18 1 9 18
M  V30 19 1 11 19
M  V30 20 1 11 20
M  V30 21 1 11 21
M  V30 END BOND
M  V30 END CTAB
M  END
