
     RDKit          3D

  0  0  0  0  0  0  0  0  0  0999 V3000
M  V30 BEGIN CTAB
M  V30 COUNTS 21 21 0 0 0
M  V30 BEGIN ATOM
M  V30 1 N -3.19083 -1.34777 0.145906 0
M  V30 2 C -2.16858 -0.353364 0.124215 0
M  V30 3 C -2.41659 0.904411 0.634252 0
M  V30 4 C -1.43058 1.84347 0.606201 0
M  V30 5 C -0.18929 1.50799 0.0599533 0
M  V30 6 C 0.111325 0.273289 -0.459989 0
M  V30 7 C -0.942227 -0.662121 -0.407503 0
M  V30 8 Cl -0.630003 -2.27704 -1.06023 0
M  V30 9 N 1.34499 -0.0986763 -1.03767 0
M  V30 10 S 2.83834 0.252842 -0.30075 0
M  V30 11 O 3.8841 0.41969 -1.37428 0
M  V30 12 O 2.73506 1.4882 0.518148 0
M  V30 13 N 3.37985 -1.03731 0.721156 0
M  V30 14 H -3.70632 -1.58292 -0.713165 0
M  V30 15 H -3.39347 -1.81546 1.03427 0
M  V30 16 H -3.38472 1.13941 1.05133 0
M  V30 17 H -1.55558 2.84767 0.987926 0
M  V30 18 H 0.574023 2.29263 0.0417 0
M  V30 19 H 1.31212 -0.605049 -1.94709 0
M  V30 20 H 2.60208 -1.69507 0.951804 0
M  V30 21 H 4.22629 -1.49483 0.374459 0
M  V30 END ATOM
M  V30 BEGIN BOND
M  V30 1 1 1 2
M  V30 2 2 2 3
M  V30 3 1 3 4
M  V30 4 2 4 5
M  V30 5 1 5 6
M  V30 6 2 6 7
M  V30 7 1 7 8
M  V30 8 1 6 9
M  V30 9 1 9 10
M  V30 10 2 10 11
M  V30 11 2 10 12
M  V30 12 1 10 13
M  V30 13 1 7 2
M  V30 14 1 1 14
M  V30 15 1 1 15
M  V30 16 1 3 16
M  V30 17 1 4 17
M  V30 18 1 5 18
M  V30 19 1 9 19
M  V30 20 1 13 20
M  V30 21 1 13 21
M  V30 END BOND
M  V30 END CTAB
M  END
