
     RDKit          3D

  0  0  0  0  0  0  0  0  0  0999 V3000
M  V30 BEGIN CTAB
M  V30 COUNTS 24 25 0 0 0
M  V30 BEGIN ATOM
M  V30 1 N -2.61775 2.85595 -0.271628 0
M  V30 2 C -2.19775 1.51882 -0.139172 0
M  V30 3 N -3.09747 0.495777 -0.199904 0
M  V30 4 C -2.74947 -0.787881 -0.0800704 0
M  V30 5 N -3.75291 -1.81435 -0.154373 0
M  V30 6 N -1.4607 -1.1044 0.109148 0
M  V30 7 C -0.475519 -0.166731 0.18612 0
M  V30 8 C -0.883104 1.14704 0.0566523 0
M  V30 9 N 0.870782 -0.547355 0.386664 0
M  V30 10 C 1.28343 -1.5514 1.16809 0
M  V30 11 N 2.63115 -1.61872 1.11433 0
M  V30 12 C 3.04621 -0.648816 0.294046 0
M  V30 13 C 1.9387 0.0325931 -0.169738 0
M  V30 14 C 4.44192 -0.283701 -0.114415 0
M  V30 15 H -2.36979 3.38823 -1.11418 0
M  V30 16 H -3.17013 3.29803 0.471328 0
M  V30 17 H -4.59372 -1.60508 -0.725651 0
M  V30 18 H -3.62189 -2.72877 0.354389 0
M  V30 19 H -0.132314 1.92551 0.111649 0
M  V30 20 H 0.698155 -2.23938 1.77332 0
M  V30 21 H 1.95692 0.885981 -0.863576 0
M  V30 22 H 4.518 -0.408594 -1.2222 0
M  V30 23 H 5.17457 -0.863948 0.448 0
M  V30 24 H 4.56267 0.821208 0.0586754 0
M  V30 END ATOM
M  V30 BEGIN BOND
M  V30 1 1 1 2
M  V30 2 2 2 3
M  V30 3 1 3 4
M  V30 4 1 4 5
M  V30 5 2 4 6
M  V30 6 1 6 7
M  V30 7 2 7 8
M  V30 8 1 7 9
M  V30 9 1 9 10
M  V30 10 2 10 11
M  V30 11 1 11 12
M  V30 12 2 12 13
M  V30 13 1 12 14
M  V30 14 1 8 2
M  V30 15 1 13 9
M  V30 16 1 1 15
M  V30 17 1 1 16
M  V30 18 1 5 17
M  V30 19 1 5 18
M  V30 20 1 8 19
M  V30 21 1 10 20
M  V30 22 1 13 21
M  V30 23 1 14 22
M  V30 24 1 14 23
M  V30 25 1 14 24
M  V30 END BOND
M  V30 END CTAB
M  END
