
     RDKit          3D

  0  0  0  0  0  0  0  0  0  0999 V3000
M  V30 BEGIN CTAB
M  V30 COUNTS 43 45 0 0 0
M  V30 BEGIN ATOM
M  V30 1 N 5.90443 2.27856 -0.469881 0
M  V30 2 S 5.68317 1.49029 -1.95544 0
M  V30 3 O 4.92352 2.38102 -2.9065 0
M  V30 4 O 7.04762 1.26081 -2.58057 0
M  V30 5 O 4.88513 0.0241862 -1.8543 0
M  V30 6 C 3.73428 -0.234441 -1.16276 0
M  V30 7 C 2.52276 -0.087969 -1.75638 0
M  V30 8 C 1.37169 -0.360831 -1.01996 0
M  V30 9 C 1.4282 -0.774313 0.29121 0
M  V30 10 C 2.66018 -0.92131 0.888704 0
M  V30 11 C 3.81818 -0.647438 0.149833 0
M  V30 12 C 0.190077 -1.05015 1.02784 0
M  V30 13 N -0.246128 -2.42486 0.904778 0
M  V30 14 C -1.05253 -3.03748 1.76943 0
M  V30 15 N -1.23352 -4.29267 1.33075 0
M  V30 16 C -0.532639 -4.42619 0.202216 0
M  V30 17 N 0.0691301 -3.2615 -0.0424754 0
M  V30 18 C -0.967344 -0.216431 0.612112 0
M  V30 19 C -1.90631 -0.602881 -0.316332 0
M  V30 20 C -2.95843 0.232051 -0.65302 0
M  V30 21 C -3.10208 1.47395 -0.0730631 0
M  V30 22 O -4.14556 2.33127 -0.39076 0
M  V30 23 S -5.58482 2.21353 0.528085 0
M  V30 24 N -6.57382 0.982922 -0.163332 0
M  V30 25 O -5.26113 1.85747 1.93987 0
M  V30 26 O -6.26573 3.54799 0.521494 0
M  V30 27 C -2.16279 1.87752 0.865136 0
M  V30 28 C -1.12951 1.0289 1.1799 0
M  V30 29 H 6.55885 1.79946 0.153926 0
M  V30 30 H 5.96727 3.299 -0.515043 0
M  V30 31 H 2.4319 0.231514 -2.77456 0
M  V30 32 H 0.429377 -0.228865 -1.53897 0
M  V30 33 H 2.70546 -1.24037 1.90065 0
M  V30 34 H 4.78179 -0.764431 0.623442 0
M  V30 35 H 0.37331 -0.786998 2.11471 0
M  V30 36 H -1.50932 -2.62782 2.68761 0
M  V30 37 H -0.510062 -5.35481 -0.357412 0
M  V30 38 H -1.77923 -1.58215 -0.763148 0
M  V30 39 H -3.68432 -0.106223 -1.39271 0
M  V30 40 H -6.85391 0.256251 0.521274 0
M  V30 41 H -7.33306 1.3504 -0.749353 0
M  V30 42 H -2.29191 2.85667 1.31035 0
M  V30 43 H -0.402167 1.35269 1.91264 0
M  V30 END ATOM
M  V30 BEGIN BOND
M  V30 1 1 1 2
M  V30 2 2 2 3
M  V30 3 2 2 4
M  V30 4 1 2 5
M  V30 5 1 5 6
M  V30 6 2 6 7
M  V30 7 1 7 8
M  V30 8 2 8 9
M  V30 9 1 9 10
M  V30 10 2 10 11
M  V30 11 1 9 12
M  V30 12 1 12 13
M  V30 13 1 13 14
M  V30 14 2 14 15
M  V30 15 1 15 16
M  V30 16 2 16 17
M  V30 17 1 12 18
M  V30 18 2 18 19
M  V30 19 1 19 20
M  V30 20 2 20 21
M  V30 21 1 21 22
M  V30 22 1 22 23
M  V30 23 1 23 24
M  V30 24 2 23 25
M  V30 25 2 23 26
M  V30 26 1 21 27
M  V30 27 2 27 28
M  V30 28 1 11 6
M  V30 29 1 17 13
M  V30 30 1 28 18
M  V30 31 1 1 29
M  V30 32 1 1 30
M  V30 33 1 7 31
M  V30 34 1 8 32
M  V30 35 1 10 33
M  V30 36 1 11 34
M  V30 37 1 12 35
M  V30 38 1 14 36
M  V30 39 1 16 37
M  V30 40 1 19 38
M  V30 41 1 20 39
M  V30 42 1 24 40
M  V30 43 1 24 41
M  V30 44 1 27 42
M  V30 45 1 28 43
M  V30 END BOND
M  V30 END CTAB
M  END
