
     RDKit          3D

  0  0  0  0  0  0  0  0  0  0999 V3000
M  V30 BEGIN CTAB
M  V30 COUNTS 43 45 0 0 0
M  V30 BEGIN ATOM
M  V30 1 C -5.43834 1.22496 -0.96372 0
M  V30 2 O -4.90269 1.50513 0.263775 0
M  V30 3 C -3.5622 1.29826 0.304594 0
M  V30 4 C -3.17181 -0.13248 0.352724 0
M  V30 5 C -4.09506 -1.13831 0.506219 0
M  V30 6 C -3.79463 -2.49248 0.610273 0
M  V30 7 C -4.86545 -3.49248 0.772098 0
M  V30 8 N -2.49523 -2.79178 0.552975 0
M  V30 9 C -1.54311 -1.82575 0.403111 0
M  V30 10 C -1.7978 -0.489925 0.297262 0
M  V30 11 C -0.735317 0.328013 0.156665 0
M  V30 12 N -0.77381 1.78417 0.0340881 0
M  V30 13 C 0.508533 -0.256175 0.131799 0
M  V30 14 S 0.154102 -1.91477 0.304562 0
M  V30 15 C 1.83386 0.379268 -0.00712818 0
M  V30 16 N 1.92948 1.68568 -0.121704 0
M  V30 17 C 3.12749 2.32722 -0.2535 0
M  V30 18 N 3.22268 3.74008 -0.376263 0
M  V30 19 N 4.20544 1.52441 -0.257897 0
M  V30 20 C 4.1297 0.188528 -0.142187 0
M  V30 21 N 2.9227 -0.383884 -0.0154272 0
M  V30 22 N 5.32661 -0.599617 -0.155377 0
M  V30 23 C 6.61313 0.0548574 -0.2873 0
M  V30 24 C 5.25457 -2.02635 -0.0396196 0
M  V30 25 H -4.99206 1.92966 -1.7476 0
M  V30 26 H -6.53866 1.33027 -0.98482 0
M  V30 27 H -5.20076 0.238395 -1.37734 0
M  V30 28 H -3.07632 1.8477 1.14213 0
M  V30 29 H -3.16552 1.75892 -0.659903 0
M  V30 30 H -5.16289 -0.857995 0.586863 0
M  V30 31 H -5.72605 -3.16078 0.14903 0
M  V30 32 H -4.46958 -4.47781 0.479275 0
M  V30 33 H -5.20971 -3.54917 1.81347 0
M  V30 34 H -0.746308 2.34577 0.917306 0
M  V30 35 H -0.825462 2.19141 -0.919938 0
M  V30 36 H 3.69879 4.21332 -1.17135 0
M  V30 37 H 2.78887 4.32062 0.375121 0
M  V30 38 H 7.19341 -0.0416412 0.674015 0
M  V30 39 H 6.47657 1.12505 -0.561778 0
M  V30 40 H 7.25412 -0.4031 -1.06931 0
M  V30 41 H 5.93622 -2.43948 0.732805 0
M  V30 42 H 5.50881 -2.55156 -1.0016 0
M  V30 43 H 4.20367 -2.31618 0.205196 0
M  V30 END ATOM
M  V30 BEGIN BOND
M  V30 1 1 1 2
M  V30 2 1 2 3
M  V30 3 1 3 4
M  V30 4 2 4 5
M  V30 5 1 5 6
M  V30 6 1 6 7
M  V30 7 2 6 8
M  V30 8 1 8 9
M  V30 9 2 9 10
M  V30 10 1 10 11
M  V30 11 1 11 12
M  V30 12 2 11 13
M  V30 13 1 13 14
M  V30 14 1 13 15
M  V30 15 2 15 16
M  V30 16 1 16 17
M  V30 17 1 17 18
M  V30 18 2 17 19
M  V30 19 1 19 20
M  V30 20 2 20 21
M  V30 21 1 20 22
M  V30 22 1 22 23
M  V30 23 1 22 24
M  V30 24 1 10 4
M  V30 25 1 21 15
M  V30 26 1 14 9
M  V30 27 1 1 25
M  V30 28 1 1 26
M  V30 29 1 1 27
M  V30 30 1 3 28
M  V30 31 1 3 29
M  V30 32 1 5 30
M  V30 33 1 7 31
M  V30 34 1 7 32
M  V30 35 1 7 33
M  V30 36 1 12 34
M  V30 37 1 12 35
M  V30 38 1 18 36
M  V30 39 1 18 37
M  V30 40 1 23 38
M  V30 41 1 23 39
M  V30 42 1 23 40
M  V30 43 1 24 41
M  V30 44 1 24 42
M  V30 45 1 24 43
M  V30 END BOND
M  V30 END CTAB
M  END
