
     RDKit          3D

  0  0  0  0  0  0  0  0  0  0999 V3000
M  V30 BEGIN CTAB
M  V30 COUNTS 56 58 0 0 0
M  V30 BEGIN ATOM
M  V30 1 C -0.544089 3.92254 -2.51152 0
M  V30 2 C 0.263871 4.10254 -1.25417 0
M  V30 3 O 0.985828 2.95799 -0.946965 0
M  V30 4 C 0.465489 1.71 -0.664419 0
M  V30 5 C -0.874629 1.39383 -0.626341 0
M  V30 6 C -1.31064 0.133897 -0.340462 0
M  V30 7 C -0.416155 -0.864139 -0.0792949 0
M  V30 8 C 0.933193 -0.595815 -0.104986 0
M  V30 9 C 1.383 0.65989 -0.390509 0
M  V30 10 O 2.70582 0.971382 -0.431239 0
M  V30 11 C 3.85764 0.241057 -0.262668 0
M  V30 12 C 4.05824 -0.833436 -1.3079 0
M  V30 13 C 5.35728 -1.59614 -1.027 0
M  V30 14 C 5.30129 -2.2441 0.333265 0
M  V30 15 C 6.54623 -0.690311 -1.09999 0
M  V30 16 C -2.75909 -0.164043 -0.310423 0
M  V30 17 C -3.07599 -1.40806 -1.01776 0
M  V30 18 C -3.82486 -2.33349 -0.478248 0
M  V30 19 N -4.04488 -3.50251 -1.30266 0
M  V30 20 O -4.40084 -2.27045 0.783904 0
M  V30 21 C -4.12815 -1.0969 1.50023 0
M  V30 22 C -3.35714 -0.0860023 1.00637 0
M  V30 23 C -3.12797 1.06399 1.78451 0
M  V30 24 C -3.68737 1.14209 3.02726 0
M  V30 25 C -4.47512 0.147665 3.5743 0
M  V30 26 C -4.67916 -0.961479 2.78817 0
M  V30 27 N -5.03391 0.278396 4.87335 0
M  V30 28 C -2.53142 -1.61613 -2.37737 0
M  V30 29 N -2.09545 -1.75889 -3.43965 0
M  V30 30 H -0.121608 4.53466 -3.35863 0
M  V30 31 H -1.58762 4.27179 -2.39453 0
M  V30 32 H -0.509234 2.86994 -2.89161 0
M  V30 33 H 0.986891 4.95495 -1.40514 0
M  V30 34 H -0.433278 4.35591 -0.410831 0
M  V30 35 H -1.55608 2.21784 -0.831642 0
M  V30 36 H -0.742445 -1.8971 0.15589 0
M  V30 37 H 1.58356 -1.43606 0.131692 0
M  V30 38 H 3.94618 -0.237259 0.749044 0
M  V30 39 H 4.71696 0.966937 -0.302895 0
M  V30 40 H 4.20668 -0.338184 -2.32235 0
M  V30 41 H 3.20566 -1.49593 -1.4546 0
M  V30 42 H 5.46984 -2.41082 -1.76804 0
M  V30 43 H 5.44611 -1.55696 1.16565 0
M  V30 44 H 6.13353 -2.98586 0.366604 0
M  V30 45 H 4.34591 -2.79407 0.480244 0
M  V30 46 H 6.83841 -0.291152 -0.100423 0
M  V30 47 H 7.4146 -1.28415 -1.46141 0
M  V30 48 H 6.42868 0.160571 -1.7915 0
M  V30 49 H -3.23594 0.68895 -0.912254 0
M  V30 50 H -4.46978 -3.3451 -2.22697 0
M  V30 51 H -3.79887 -4.45567 -1.00588 0
M  V30 52 H -2.50864 1.88548 1.3926 0
M  V30 53 H -3.50324 2.03496 3.61871 0
M  V30 54 H -5.29088 -1.76029 3.18394 0
M  V30 55 H -4.45185 0.042626 5.69884 0
M  V30 56 H -6.00458 0.600635 5.04873 0
M  V30 END ATOM
M  V30 BEGIN BOND
M  V30 1 1 1 2
M  V30 2 1 2 3
M  V30 3 1 3 4
M  V30 4 2 4 5
M  V30 5 1 5 6
M  V30 6 2 6 7
M  V30 7 1 7 8
M  V30 8 2 8 9
M  V30 9 1 9 10
M  V30 10 1 10 11
M  V30 11 1 11 12
M  V30 12 1 12 13
M  V30 13 1 13 14
M  V30 14 1 13 15
M  V30 15 1 6 16
M  V30 16 1 16 17
M  V30 17 2 17 18
M  V30 18 1 18 19
M  V30 19 1 18 20
M  V30 20 1 20 21
M  V30 21 2 21 22
M  V30 22 1 22 23
M  V30 23 2 23 24
M  V30 24 1 24 25
M  V30 25 2 25 26
M  V30 26 1 25 27
M  V30 27 1 17 28
M  V30 28 3 28 29
M  V30 29 1 9 4
M  V30 30 1 22 16
M  V30 31 1 26 21
M  V30 32 1 1 30
M  V30 33 1 1 31
M  V30 34 1 1 32
M  V30 35 1 2 33
M  V30 36 1 2 34
M  V30 37 1 5 35
M  V30 38 1 7 36
M  V30 39 1 8 37
M  V30 40 1 11 38
M  V30 41 1 11 39
M  V30 42 1 12 40
M  V30 43 1 12 41
M  V30 44 1 13 42
M  V30 45 1 14 43
M  V30 46 1 14 44
M  V30 47 1 14 45
M  V30 48 1 15 46
M  V30 49 1 15 47
M  V30 50 1 15 48
M  V30 51 1 16 49
M  V30 52 1 19 50
M  V30 53 1 19 51
M  V30 54 1 23 52
M  V30 55 1 24 53
M  V30 56 1 26 54
M  V30 57 1 27 55
M  V30 58 1 27 56
M  V30 END BOND
M  V30 END CTAB
M  END
