
     RDKit          3D

  0  0  0  0  0  0  0  0  0  0999 V3000
M  V30 BEGIN CTAB
M  V30 COUNTS 48 50 0 0 0
M  V30 BEGIN ATOM
M  V30 1 C -5.62501 -2.78153 -0.679242 0
M  V30 2 C -4.20878 -2.784 -1.223 0
M  V30 3 O -3.49364 -1.67799 -0.736987 0
M  V30 4 C -2.18809 -1.35721 -1.03347 0
M  V30 5 O -1.61969 -2.14289 -1.81225 0
M  V30 6 C -1.5079 -0.140024 -0.445659 0
M  V30 7 C -0.210284 0.0797835 -0.697242 0
M  V30 8 N 0.937846 -0.712381 -1.02553 0
M  V30 9 C 1.23465 -2.00481 -0.664884 0
M  V30 10 O 0.466672 -2.67328 0.103386 0
M  V30 11 C 2.43144 -2.74824 -1.11143 0
M  V30 12 S 3.63777 -1.73205 -1.91266 0
M  V30 13 C 4.54839 -0.63706 -0.848138 0
M  V30 14 N 5.66697 -1.06343 -0.216816 0
M  V30 15 C 6.38307 -0.233108 0.537778 0
M  V30 16 N 7.56932 -0.731357 1.19236 0
M  V30 17 C 6.04301 1.1023 0.728627 0
M  V30 18 C 4.90394 1.52774 0.0832971 0
M  V30 19 N 4.22625 0.650082 -0.658863 0
M  V30 20 N 4.54762 2.89233 0.253434 0
M  V30 21 S 0.0244455 1.7217 -0.125636 0
M  V30 22 C -1.55716 2.027 0.418126 0
M  V30 23 C -2.23376 0.888506 0.151843 0
M  V30 24 C -3.71902 0.761313 0.48764 0
M  V30 25 C -4.258 2.05405 0.900235 0
M  V30 26 C -3.40048 2.88418 1.82663 0
M  V30 27 C -2.13308 3.26127 1.08525 0
M  V30 28 H -6.14823 -3.71381 -0.944203 0
M  V30 29 H -5.57997 -2.65223 0.403434 0
M  V30 30 H -6.16546 -1.94476 -1.19249 0
M  V30 31 H -3.74217 -3.7119 -0.769771 0
M  V30 32 H -4.16081 -2.88384 -2.3108 0
M  V30 33 H 1.65546 -0.224833 -1.6685 0
M  V30 34 H 2.04811 -3.51351 -1.84511 0
M  V30 35 H 2.85837 -3.34211 -0.259609 0
M  V30 36 H 8.48517 -0.435241 0.791376 0
M  V30 37 H 7.49296 -1.35556 2.02346 0
M  V30 38 H 6.65198 1.75074 1.34968 0
M  V30 39 H 5.30085 3.59063 0.0863179 0
M  V30 40 H 3.58452 3.16932 0.528044 0
M  V30 41 H -3.88068 -0.0217583 1.2528 0
M  V30 42 H -4.27599 0.46861 -0.442547 0
M  V30 43 H -5.20676 1.85843 1.47496 0
M  V30 44 H -4.55315 2.70789 0.0364388 0
M  V30 45 H -3.9536 3.82228 2.02935 0
M  V30 46 H -3.21477 2.39781 2.7933 0
M  V30 47 H -2.29548 3.99996 0.283536 0
M  V30 48 H -1.36684 3.60298 1.80354 0
M  V30 END ATOM
M  V30 BEGIN BOND
M  V30 1 1 1 2
M  V30 2 1 2 3
M  V30 3 1 3 4
M  V30 4 2 4 5
M  V30 5 1 4 6
M  V30 6 2 6 7
M  V30 7 1 7 8
M  V30 8 1 8 9
M  V30 9 2 9 10
M  V30 10 1 9 11
M  V30 11 1 11 12
M  V30 12 1 12 13
M  V30 13 2 13 14
M  V30 14 1 14 15
M  V30 15 1 15 16
M  V30 16 2 15 17
M  V30 17 1 17 18
M  V30 18 2 18 19
M  V30 19 1 18 20
M  V30 20 1 7 21
M  V30 21 1 21 22
M  V30 22 2 22 23
M  V30 23 1 23 24
M  V30 24 1 24 25
M  V30 25 1 25 26
M  V30 26 1 26 27
M  V30 27 1 23 6
M  V30 28 1 19 13
M  V30 29 1 27 22
M  V30 30 1 1 28
M  V30 31 1 1 29
M  V30 32 1 1 30
M  V30 33 1 2 31
M  V30 34 1 2 32
M  V30 35 1 8 33
M  V30 36 1 11 34
M  V30 37 1 11 35
M  V30 38 1 16 36
M  V30 39 1 16 37
M  V30 40 1 17 38
M  V30 41 1 20 39
M  V30 42 1 20 40
M  V30 43 1 24 41
M  V30 44 1 24 42
M  V30 45 1 25 43
M  V30 46 1 25 44
M  V30 47 1 26 45
M  V30 48 1 26 46
M  V30 49 1 27 47
M  V30 50 1 27 48
M  V30 END BOND
M  V30 END CTAB
M  END
