
     RDKit          3D

  0  0  0  0  0  0  0  0  0  0999 V3000
M  V30 BEGIN CTAB
M  V30 COUNTS 39 40 0 0 0
M  V30 BEGIN ATOM
M  V30 1 C -2.94402 -1.80681 -1.03944 0
M  V30 2 C -2.12983 -0.748865 -0.308342 0
M  V30 3 N -1.29116 -0.00804033 -1.20937 0
M  V30 4 C -0.291684 -0.643169 -1.99223 0
M  V30 5 N -0.611656 -1.25813 -3.10051 0
M  V30 6 N 1.08012 -0.64201 -1.61723 0
M  V30 7 C 1.52808 -0.00171679 -0.4327 0
M  V30 8 O 0.730599 0.595731 0.34182 0
M  V30 9 C 2.93417 -0.0326072 -0.101367 0
M  V30 10 N 3.80537 -0.668761 -0.919905 0
M  V30 11 C 5.11577 -0.70961 -0.631055 0
M  V30 12 Cl 6.27802 -1.52144 -1.66183 0
M  V30 13 C 5.56075 -0.0897995 0.518568 0
M  V30 14 N 6.94518 -0.137605 0.815987 0
M  V30 15 N 4.67781 0.549562 1.33923 0
M  V30 16 C 3.37025 0.589019 1.04884 0
M  V30 17 N 2.42443 1.25849 1.90227 0
M  V30 18 C -3.04213 0.124969 0.461545 0
M  V30 19 C -3.1748 -0.103224 1.81118 0
M  V30 20 C -4.00798 0.675344 2.584 0
M  V30 21 C -4.7283 1.70111 2.02385 0
M  V30 22 C -4.60124 1.93859 0.66527 0
M  V30 23 C -3.75992 1.14528 -0.0902332 0
M  V30 24 H -3.63765 -2.3256 -0.366478 0
M  V30 25 H -3.47199 -1.33395 -1.90133 0
M  V30 26 H -2.22244 -2.53858 -1.45639 0
M  V30 27 H -1.45131 -1.31287 0.373231 0
M  V30 28 H -1.41685 1.01775 -1.2922 0
M  V30 29 H -1.59942 -1.27652 -3.39978 0
M  V30 30 H 1.77866 -1.11753 -2.21646 0
M  V30 31 H 7.24519 -0.1387 1.80851 0
M  V30 32 H 7.67402 -0.171675 0.0808435 0
M  V30 33 H 2.23919 2.25293 1.745 0
M  V30 34 H 1.92428 0.765437 2.67188 0
M  V30 35 H -2.61313 -0.909169 2.2692 0
M  V30 36 H -4.09859 0.481628 3.63766 0
M  V30 37 H -5.39238 2.32975 2.61164 0
M  V30 38 H -5.16822 2.74543 0.226343 0
M  V30 39 H -3.65721 1.32537 -1.14711 0
M  V30 END ATOM
M  V30 BEGIN BOND
M  V30 1 1 1 2
M  V30 2 1 2 3
M  V30 3 1 3 4
M  V30 4 2 4 5 CFG=2
M  V30 5 1 4 6
M  V30 6 1 6 7
M  V30 7 2 7 8
M  V30 8 1 7 9
M  V30 9 2 9 10
M  V30 10 1 10 11
M  V30 11 1 11 12
M  V30 12 2 11 13
M  V30 13 1 13 14
M  V30 14 1 13 15
M  V30 15 2 15 16
M  V30 16 1 16 17
M  V30 17 1 2 18
M  V30 18 2 18 19
M  V30 19 1 19 20
M  V30 20 2 20 21
M  V30 21 1 21 22
M  V30 22 2 22 23
M  V30 23 1 16 9
M  V30 24 1 23 18
M  V30 25 1 1 24
M  V30 26 1 1 25
M  V30 27 1 1 26
M  V30 28 1 2 27
M  V30 29 1 3 28
M  V30 30 1 5 29
M  V30 31 1 6 30
M  V30 32 1 14 31
M  V30 33 1 14 32
M  V30 34 1 17 33
M  V30 35 1 17 34
M  V30 36 1 19 35
M  V30 37 1 20 36
M  V30 38 1 21 37
M  V30 39 1 22 38
M  V30 40 1 23 39
M  V30 END BOND
M  V30 END CTAB
M  END
