
     RDKit          3D

  0  0  0  0  0  0  0  0  0  0999 V3000
M  V30 BEGIN CTAB
M  V30 COUNTS 13 13 0 0 0
M  V30 BEGIN ATOM
M  V30 1 N -2.24418 -0.77942 -0.208697 0
M  V30 2 C -1.01407 -0.0767995 -0.0383111 0
M  V30 3 C -1.06648 1.26946 0.258768 0
M  V30 4 N 0.117982 1.89626 0.411835 0
M  V30 5 N 1.28074 1.28429 0.290686 0
M  V30 6 C 1.35637 -0.0385167 -0.00092372 0
M  V30 7 N 0.182582 -0.678338 -0.156739 0
M  V30 8 N 2.61169 -0.69396 -0.130555 0
M  V30 9 H -3.08403 -0.367214 -0.659309 0
M  V30 10 H -2.32345 -1.77635 0.136997 0
M  V30 11 H -1.98984 1.82312 0.369947 0
M  V30 12 H 2.98338 -1.09508 -1.00925 0
M  V30 13 H 3.18932 -0.76746 0.735556 0
M  V30 END ATOM
M  V30 BEGIN BOND
M  V30 1 1 1 2
M  V30 2 2 2 3
M  V30 3 1 3 4
M  V30 4 2 4 5
M  V30 5 1 5 6
M  V30 6 2 6 7
M  V30 7 1 6 8
M  V30 8 1 7 2
M  V30 9 1 1 9
M  V30 10 1 1 10
M  V30 11 1 3 11
M  V30 12 1 8 12
M  V30 13 1 8 13
M  V30 END BOND
M  V30 END CTAB
M  END
