
     RDKit          3D

  0  0  0  0  0  0  0  0  0  0999 V3000
M  V30 BEGIN CTAB
M  V30 COUNTS 42 44 0 0 0
M  V30 BEGIN ATOM
M  V30 1 F 1.52443 0.182862 -3.05852 0
M  V30 2 C 0.818966 0.903817 -2.15385 0
M  V30 3 C -0.554654 0.98302 -2.2412 0
M  V30 4 F -1.25963 0.352519 -3.22289 0
M  V30 5 C -1.28188 1.71186 -1.32849 0
M  V30 6 O -2.6664 1.81085 -1.3896 0
M  V30 7 C -3.49783 0.901688 -0.729968 0
M  V30 8 C -2.97031 -0.131777 0.0143839 0
M  V30 9 C -3.79642 -1.03751 0.671449 0
M  V30 10 C -5.16699 -0.901342 0.578186 0
M  V30 11 C -5.72001 0.127952 -0.163016 0
M  V30 12 C -4.8686 1.0156 -0.807166 0
M  V30 13 N -7.14032 0.262441 -0.25487 0 CHG=1
M  V30 14 O -7.63022 0.800852 -1.25144 0
M  V30 15 O -7.97838 -0.187769 0.730067 0 CHG=-1
M  V30 16 N -6.04179 -1.81933 1.24435 0
M  V30 17 C -0.567794 2.36025 -0.320456 0
M  V30 18 C 0.806449 2.27369 -0.243169 0
M  V30 19 C 1.53868 1.53987 -1.16221 0
M  V30 20 O 2.89886 1.45891 -1.07944 0
M  V30 21 C 3.61873 0.515631 -0.394278 0
M  V30 22 C 2.93603 -0.466572 0.291884 0
M  V30 23 C 3.59955 -1.45733 1.00975 0
M  V30 24 C 4.97208 -1.4871 1.05706 0
M  V30 25 C 5.66203 -0.506916 0.372475 0
M  V30 26 C 4.99453 0.482472 -0.344517 0
M  V30 27 N 7.08199 -0.501577 0.395731 0 CHG=1
M  V30 28 O 7.69454 0.572659 0.252553 0
M  V30 29 O 7.81276 -1.63832 0.570405 0 CHG=-1
M  V30 30 N 5.72234 -2.45693 1.76187 0
M  V30 31 F 1.51821 2.90054 0.734749 0
M  V30 32 F -1.25218 3.08397 0.591354 0
M  V30 33 H -1.90282 -0.279797 0.117477 0
M  V30 34 H -3.35339 -1.82852 1.24076 0
M  V30 35 H -5.32055 1.81388 -1.38175 0
M  V30 36 H -6.54125 -2.57507 0.766987 0
M  V30 37 H -6.18359 -1.71867 2.27476 0
M  V30 38 H 1.85823 -0.466088 0.271067 0
M  V30 39 H 3.07774 -2.23548 1.5535 0
M  V30 40 H 5.52035 1.25287 -0.88261 0
M  V30 41 H 5.82399 -3.45336 1.47859 0
M  V30 42 H 6.21453 -2.15874 2.63341 0
M  V30 END ATOM
M  V30 BEGIN BOND
M  V30 1 1 1 2
M  V30 2 2 2 3
M  V30 3 1 3 4
M  V30 4 1 3 5
M  V30 5 1 5 6
M  V30 6 1 6 7
M  V30 7 2 7 8
M  V30 8 1 8 9
M  V30 9 2 9 10
M  V30 10 1 10 11
M  V30 11 2 11 12
M  V30 12 1 11 13
M  V30 13 2 13 14
M  V30 14 1 13 15
M  V30 15 1 10 16
M  V30 16 2 5 17
M  V30 17 1 17 18
M  V30 18 2 18 19
M  V30 19 1 19 20
M  V30 20 1 20 21
M  V30 21 2 21 22
M  V30 22 1 22 23
M  V30 23 2 23 24
M  V30 24 1 24 25
M  V30 25 2 25 26
M  V30 26 1 25 27
M  V30 27 2 27 28
M  V30 28 1 27 29
M  V30 29 1 24 30
M  V30 30 1 18 31
M  V30 31 1 17 32
M  V30 32 1 19 2
M  V30 33 1 26 21
M  V30 34 1 12 7
M  V30 35 1 8 33
M  V30 36 1 9 34
M  V30 37 1 12 35
M  V30 38 1 16 36
M  V30 39 1 16 37
M  V30 40 1 22 38
M  V30 41 1 23 39
M  V30 42 1 26 40
M  V30 43 1 30 41
M  V30 44 1 30 42
M  V30 END BOND
M  V30 END CTAB
M  END
