
     RDKit          3D

  0  0  0  0  0  0  0  0  0  0999 V3000
M  V30 BEGIN CTAB
M  V30 COUNTS 28 29 0 0 0
M  V30 BEGIN ATOM
M  V30 1 C -2.42171 0.651261 1.6306 0
M  V30 2 C -2.51217 0.481188 0.14584 0
M  V30 3 C -3.32931 -0.760717 -0.220961 0
M  V30 4 C -2.32752 -0.837914 -1.35576 0
M  V30 5 N -1.39303 -0.130899 -0.506611 0
M  V30 6 C 0.029119 -0.135579 -0.450981 0
M  V30 7 C 0.767532 -0.919329 -1.31603 0
M  V30 8 C 2.13984 -0.964007 -1.30833 0
M  V30 9 C 2.84176 -0.197591 -0.40138 0
M  V30 10 C 2.10078 0.597778 0.476842 0
M  V30 11 C 0.727485 0.633324 0.45865 0
M  V30 12 N 2.84194 1.38004 1.40359 0
M  V30 13 N 4.2511 -0.191078 -0.333546 0
M  V30 14 H -3.47754 0.593801 2.02835 0
M  V30 15 H -1.85595 -0.195828 2.0901 0
M  V30 16 H -2.0465 1.63615 1.92845 0
M  V30 17 H -2.95357 1.36768 -0.347612 0
M  V30 18 H -3.2136 -1.58129 0.500572 0
M  V30 19 H -4.3507 -0.547409 -0.574172 0
M  V30 20 H -2.65171 -0.16971 -2.18389 0
M  V30 21 H -2.02287 -1.84847 -1.64918 0
M  V30 22 H 0.233679 -1.53764 -2.04631 0
M  V30 23 H 2.70904 -1.58823 -1.99814 0
M  V30 24 H 0.197548 1.26393 1.15741 0
M  V30 25 H 2.43368 2.28793 1.69675 0
M  V30 26 H 3.75794 1.08757 1.79307 0
M  V30 27 H 4.7478 0.685296 -0.116982 0
M  V30 28 H 4.77693 -1.06025 -0.500341 0
M  V30 END ATOM
M  V30 BEGIN BOND
M  V30 1 1 1 2
M  V30 2 1 2 3
M  V30 3 1 3 4
M  V30 4 1 4 5
M  V30 5 1 5 6
M  V30 6 2 6 7
M  V30 7 1 7 8
M  V30 8 2 8 9
M  V30 9 1 9 10
M  V30 10 2 10 11
M  V30 11 1 10 12
M  V30 12 1 9 13
M  V30 13 1 5 2
M  V30 14 1 11 6
M  V30 15 1 1 14
M  V30 16 1 1 15
M  V30 17 1 1 16
M  V30 18 1 2 17
M  V30 19 1 3 18
M  V30 20 1 3 19
M  V30 21 1 4 20
M  V30 22 1 4 21
M  V30 23 1 7 22
M  V30 24 1 8 23
M  V30 25 1 11 24
M  V30 26 1 12 25
M  V30 27 1 12 26
M  V30 28 1 13 27
M  V30 29 1 13 28
M  V30 END BOND
M  V30 END CTAB
M  END
