
     RDKit          3D

  0  0  0  0  0  0  0  0  0  0999 V3000
M  V30 BEGIN CTAB
M  V30 COUNTS 37 37 0 0 0
M  V30 BEGIN ATOM
M  V30 1 C 4.20391 0.456321 -1.64891 0
M  V30 2 C 3.66919 -0.396474 -0.540144 0
M  V30 3 C 2.19705 -0.722762 -0.746159 0
M  V30 4 C 1.63531 -1.55421 0.323317 0
M  V30 5 C 1.56872 -1.12195 1.71404 0
M  V30 6 N 0.765883 -0.0377788 2.10058 0
M  V30 7 C 0.850139 1.30523 1.8097 0
M  V30 8 O 1.70105 1.9214 1.12353 0
M  V30 9 C -0.224241 2.24521 2.37896 0
M  V30 10 S -1.26077 2.74904 1.02598 0
M  V30 11 C -2.23867 1.46683 0.301675 0
M  V30 12 N -3.04789 1.7758 -0.740559 0
M  V30 13 C -3.83058 0.882901 -1.35539 0
M  V30 14 N -4.67557 1.20982 -2.44608 0
M  V30 15 C -3.82491 -0.444461 -0.910797 0
M  V30 16 C -3.00118 -0.770394 0.153897 0
M  V30 17 N -2.24435 0.194464 0.714647 0
M  V30 18 N -2.99698 -2.12331 0.607034 0
M  V30 19 H 5.06208 -0.023014 -2.17299 0
M  V30 20 H 4.55421 1.42209 -1.24557 0
M  V30 21 H 3.41949 0.639436 -2.41623 0
M  V30 22 H 4.26123 -1.35588 -0.521052 0
M  V30 23 H 3.80166 0.0622987 0.44869 0
M  V30 24 H 1.63785 0.187666 -0.962401 0
M  V30 25 H 2.1764 -1.36717 -1.69845 0
M  V30 26 H 2.16036 -2.58205 0.255015 0
M  V30 27 H 0.578582 -1.87028 0.00395334 0
M  V30 28 H 1.34375 -1.99106 2.41419 0
M  V30 29 H 2.66101 -0.879753 2.02407 0
M  V30 30 H -0.098281 -0.268604 2.76628 0
M  V30 31 H -0.758439 1.71658 3.19728 0
M  V30 32 H 0.34007 3.11398 2.75871 0
M  V30 33 H -4.902 2.20035 -2.6404 0
M  V30 34 H -5.07619 0.479237 -3.05912 0
M  V30 35 H -4.42886 -1.21927 -1.35645 0
M  V30 36 H -2.3696 -2.8324 0.170301 0
M  V30 37 H -3.60941 -2.46784 1.38425 0
M  V30 END ATOM
M  V30 BEGIN BOND
M  V30 1 1 1 2
M  V30 2 1 2 3
M  V30 3 1 3 4
M  V30 4 1 4 5
M  V30 5 1 5 6
M  V30 6 1 6 7
M  V30 7 2 7 8
M  V30 8 1 7 9
M  V30 9 1 9 10
M  V30 10 1 10 11
M  V30 11 2 11 12
M  V30 12 1 12 13
M  V30 13 1 13 14
M  V30 14 2 13 15
M  V30 15 1 15 16
M  V30 16 2 16 17
M  V30 17 1 16 18
M  V30 18 1 17 11
M  V30 19 1 1 19
M  V30 20 1 1 20
M  V30 21 1 1 21
M  V30 22 1 2 22
M  V30 23 1 2 23
M  V30 24 1 3 24
M  V30 25 1 3 25
M  V30 26 1 4 26
M  V30 27 1 4 27
M  V30 28 1 5 28
M  V30 29 1 5 29
M  V30 30 1 6 30
M  V30 31 1 9 31
M  V30 32 1 9 32
M  V30 33 1 14 33
M  V30 34 1 14 34
M  V30 35 1 15 35
M  V30 36 1 18 36
M  V30 37 1 18 37
M  V30 END BOND
M  V30 END CTAB
M  END
