
     RDKit          3D

  0  0  0  0  0  0  0  0  0  0999 V3000
M  V30 BEGIN CTAB
M  V30 COUNTS 28 29 0 0 0
M  V30 BEGIN ATOM
M  V30 1 N -2.23909 0.0733186 2.21775 0
M  V30 2 C -3.04478 -0.305375 1.08183 0
M  V30 3 N -4.1149 -0.990833 1.07401 0
M  V30 4 N -4.61252 -1.15301 -0.217512 0
M  V30 5 C -3.84726 -0.55583 -1.09202 0
M  V30 6 N -4.0178 -0.494574 -2.49566 0
M  V30 7 C -2.77269 0.0377169 -0.304656 0
M  V30 8 N -1.78191 0.72852 -0.759467 0
M  V30 9 N -0.801846 1.24966 0.124791 0
M  V30 10 C 0.549411 0.841499 0.0411722 0
M  V30 11 C 0.972886 -0.0717573 -0.893159 0
M  V30 12 C 2.29168 -0.464873 -0.968695 0
M  V30 13 C 3.22351 0.0511258 -0.104191 0
M  V30 14 C 2.80622 0.967956 0.836051 0
M  V30 15 C 1.47203 1.36497 0.911671 0
M  V30 16 C 4.62321 -0.346178 -0.161299 0
M  V30 17 O 5.54215 0.181759 0.713294 0
M  V30 18 O 4.97086 -1.19731 -1.04557 0
M  V30 19 H -1.52657 -0.565479 2.6041 0
M  V30 20 H -2.4382 1.02385 2.59997 0
M  V30 21 H -3.71649 -1.29537 -3.07165 0
M  V30 22 H -4.43985 0.350135 -2.91099 0
M  V30 23 H -1.07672 1.945 0.849826 0
M  V30 24 H 0.277854 -0.512786 -1.60291 0
M  V30 25 H 2.64297 -1.18564 -1.70118 0
M  V30 26 H 3.55755 1.35927 1.50449 0
M  V30 27 H 1.19268 2.08699 1.66628 0
M  V30 28 H 6.3076 -0.346068 1.10373 0
M  V30 END ATOM
M  V30 BEGIN BOND
M  V30 1 1 1 2
M  V30 2 2 2 3
M  V30 3 1 3 4
M  V30 4 2 4 5
M  V30 5 1 5 6
M  V30 6 1 5 7
M  V30 7 2 7 8
M  V30 8 1 8 9
M  V30 9 1 9 10
M  V30 10 2 10 11
M  V30 11 1 11 12
M  V30 12 2 12 13
M  V30 13 1 13 14
M  V30 14 2 14 15
M  V30 15 1 13 16
M  V30 16 1 16 17
M  V30 17 2 16 18
M  V30 18 1 7 2
M  V30 19 1 15 10
M  V30 20 1 1 19
M  V30 21 1 1 20
M  V30 22 1 6 21
M  V30 23 1 6 22
M  V30 24 1 9 23
M  V30 25 1 11 24
M  V30 26 1 12 25
M  V30 27 1 14 26
M  V30 28 1 15 27
M  V30 29 1 17 28
M  V30 END BOND
M  V30 END CTAB
M  END
