
     RDKit          3D

  0  0  0  0  0  0  0  0  0  0999 V3000
M  V30 BEGIN CTAB
M  V30 COUNTS 36 38 0 0 0
M  V30 BEGIN ATOM
M  V30 1 O 5.44591 -2.18106 1.1916 0 CHG=-1
M  V30 2 N 5.53002 -1.06627 0.356736 0 CHG=1
M  V30 3 O 6.60584 -0.875082 -0.223754 0
M  V30 4 C 4.41591 -0.200301 0.153499 0
M  V30 5 C 3.0925 -0.664532 0.175449 0
M  V30 6 C 2.03224 0.151898 -0.0078882 0
M  V30 7 C 2.27047 1.51263 -0.221494 0
M  V30 8 C 3.54102 2.02921 -0.262347 0
M  V30 9 C 4.57838 1.14309 -0.0749853 0
M  V30 10 N 5.90104 1.64289 -0.188379 0
M  V30 11 C 0.66169 -0.398596 -0.151345 0
M  V30 12 O 0.397524 -1.69455 -0.214866 0
M  V30 13 N -0.912818 -1.86518 -0.32542 0
M  V30 14 C -1.5042 -0.641509 -0.33782 0
M  V30 15 N -0.496762 0.19845 -0.230064 0
M  V30 16 C -2.97951 -0.472259 -0.465888 0
M  V30 17 N -3.36184 -0.666607 -1.85899 0
M  V30 18 C -3.39567 0.918711 -0.0178432 0
M  V30 19 C -4.37826 0.710216 1.1359 0
M  V30 20 C -4.95848 -0.667982 0.755835 0
M  V30 21 C -3.67194 -1.43337 0.466955 0
M  V30 22 H 2.9367 -1.70597 0.338988 0
M  V30 23 H 1.4524 2.17045 -0.402527 0
M  V30 24 H 3.75945 3.10625 -0.432279 0
M  V30 25 H 6.43291 1.8607 0.660265 0
M  V30 26 H 6.32471 1.7712 -1.13255 0
M  V30 27 H -3.70217 -1.66986 -1.99519 0
M  V30 28 H -2.51583 -0.530294 -2.48298 0
M  V30 29 H -3.94314 1.42842 -0.833193 0
M  V30 30 H -2.54364 1.55729 0.271047 0
M  V30 31 H -3.85044 0.583473 2.08781 0
M  V30 32 H -5.12232 1.49382 1.14129 0
M  V30 33 H -5.50366 -0.564484 -0.19295 0
M  V30 34 H -5.54974 -1.07978 1.56746 0
M  V30 35 H -3.87028 -2.43396 0.0280763 0
M  V30 36 H -3.11801 -1.46705 1.40112 0
M  V30 END ATOM
M  V30 BEGIN BOND
M  V30 1 1 1 2
M  V30 2 2 2 3
M  V30 3 1 2 4
M  V30 4 2 4 5
M  V30 5 1 5 6
M  V30 6 2 6 7
M  V30 7 1 7 8
M  V30 8 2 8 9
M  V30 9 1 9 10
M  V30 10 1 6 11
M  V30 11 1 11 12
M  V30 12 1 12 13
M  V30 13 2 13 14
M  V30 14 1 14 15
M  V30 15 1 14 16
M  V30 16 1 16 17
M  V30 17 1 16 18
M  V30 18 1 18 19
M  V30 19 1 19 20
M  V30 20 1 20 21
M  V30 21 1 9 4
M  V30 22 2 15 11
M  V30 23 1 21 16
M  V30 24 1 5 22
M  V30 25 1 7 23
M  V30 26 1 8 24
M  V30 27 1 10 25
M  V30 28 1 10 26
M  V30 29 1 17 27
M  V30 30 1 17 28
M  V30 31 1 18 29
M  V30 32 1 18 30
M  V30 33 1 19 31
M  V30 34 1 19 32
M  V30 35 1 20 33
M  V30 36 1 20 34
M  V30 37 1 21 35
M  V30 38 1 21 36
M  V30 END BOND
M  V30 END CTAB
M  END
