
     RDKit          3D

  0  0  0  0  0  0  0  0  0  0999 V3000
M  V30 BEGIN CTAB
M  V30 COUNTS 36 36 0 0 0
M  V30 BEGIN ATOM
M  V30 1 C 5.03268 -1.16525 0.0488302 0
M  V30 2 C 4.22195 -0.0898699 -0.670493 0
M  V30 3 C 2.87223 0.068295 0.0185038 0
M  V30 4 C 2.10185 1.13075 -0.711997 0
M  V30 5 C 0.726225 1.38202 -0.0800273 0
M  V30 6 C -0.110893 0.163095 -0.0954094 0
M  V30 7 C -1.46202 0.189378 0.467641 0
M  V30 8 C -1.99047 -1.2375 0.336458 0
M  V30 9 C -3.10215 -1.57984 0.951445 0
M  V30 10 N -3.66917 -2.84582 0.906116 0
M  V30 11 S -3.87385 -0.174702 1.83352 0
M  V30 12 C -3.65573 1.13431 0.596309 0
M  V30 13 C -2.43122 1.17542 0.0214705 0
M  V30 14 C -2.31276 2.18092 -0.977969 0
M  V30 15 N -2.25058 3.00133 -1.80409 0
M  V30 16 N -4.69705 1.9858 0.312548 0
M  V30 17 C -1.28898 -2.21968 -0.454483 0
M  V30 18 N -0.724948 -3.01118 -1.08194 0
M  V30 19 H 6.12913 -0.939033 0.00275156 0
M  V30 20 H 4.81504 -2.17426 -0.398426 0
M  V30 21 H 4.76446 -1.13405 1.126 0
M  V30 22 H 4.09664 -0.423529 -1.70198 0
M  V30 23 H 4.77745 0.860512 -0.652938 0
M  V30 24 H 2.35332 -0.912535 9.6074e-05 0
M  V30 25 H 3.02965 0.387973 1.04875 0
M  V30 26 H 2.70825 2.06792 -0.64648 0
M  V30 27 H 1.99308 0.892541 -1.79127 0
M  V30 28 H 0.900401 1.78494 0.94944 0
M  V30 29 H 0.282672 2.16532 -0.709333 0
M  V30 30 H -0.15529 -0.30686 -1.11183 0
M  V30 31 H 0.471816 -0.620164 0.501852 0
M  V30 32 H -1.40801 0.284188 1.61684 0
M  V30 33 H -3.12516 -3.72855 0.929425 0
M  V30 34 H -4.71635 -2.95104 0.843875 0
M  V30 35 H -5.64951 1.61594 0.0353509 0
M  V30 36 H -4.6527 3.0432 0.341433 0
M  V30 END ATOM
M  V30 BEGIN BOND
M  V30 1 1 1 2
M  V30 2 1 2 3
M  V30 3 1 3 4
M  V30 4 1 4 5
M  V30 5 1 5 6
M  V30 6 1 6 7
M  V30 7 1 7 8
M  V30 8 2 8 9
M  V30 9 1 9 10
M  V30 10 1 9 11
M  V30 11 1 11 12
M  V30 12 2 12 13
M  V30 13 1 13 14
M  V30 14 3 14 15
M  V30 15 1 12 16
M  V30 16 1 8 17
M  V30 17 3 17 18
M  V30 18 1 13 7
M  V30 19 1 1 19
M  V30 20 1 1 20
M  V30 21 1 1 21
M  V30 22 1 2 22
M  V30 23 1 2 23
M  V30 24 1 3 24
M  V30 25 1 3 25
M  V30 26 1 4 26
M  V30 27 1 4 27
M  V30 28 1 5 28
M  V30 29 1 5 29
M  V30 30 1 6 30
M  V30 31 1 6 31
M  V30 32 1 7 32
M  V30 33 1 10 33
M  V30 34 1 10 34
M  V30 35 1 16 35
M  V30 36 1 16 36
M  V30 END BOND
M  V30 END CTAB
M  END
