
     RDKit          3D

  0  0  0  0  0  0  0  0  0  0999 V3000
M  V30 BEGIN CTAB
M  V30 COUNTS 29 29 0 0 0
M  V30 BEGIN ATOM
M  V30 1 C 2.70041 2.25228 0.937955 0
M  V30 2 C 2.75715 1.39636 0.0861997 0
M  V30 3 C 2.79599 0.358125 -0.957938 0
M  V30 4 C 2.43942 -0.9836 -0.460384 0
M  V30 5 N 1.18538 -1.23957 0.0904132 0
M  V30 6 C 0.00609082 -0.499004 -0.0177198 0
M  V30 7 C -0.458573 0.189477 -1.0863 0
M  V30 8 C -1.63548 0.895154 -1.08741 0
M  V30 9 C -2.43844 0.95139 0.0126901 0
M  V30 10 C -1.98035 0.244231 1.13129 0
M  V30 11 C -0.802025 -0.458617 1.12949 0
M  V30 12 N -2.83083 0.286298 2.29432 0
M  V30 13 N -3.66716 1.65421 0.0984257 0
M  V30 14 C 1.05235 -2.53027 0.833256 0
M  V30 15 H 2.65682 3.01399 1.69897 0
M  V30 16 H 3.90057 0.290705 -1.25496 0
M  V30 17 H 2.28593 0.742021 -1.84155 0
M  V30 18 H 2.56232 -1.73004 -1.32736 0
M  V30 19 H 3.27061 -1.32016 0.236147 0
M  V30 20 H 0.118138 0.16319 -2.00127 0
M  V30 21 H -1.98614 1.44532 -1.96892 0
M  V30 22 H -0.488981 -0.995404 2.02328 0
M  V30 23 H -3.16067 -0.607934 2.70375 0
M  V30 24 H -3.11397 1.18507 2.7172 0
M  V30 25 H -3.74915 2.55689 0.604927 0
M  V30 26 H -4.49825 1.2392 -0.366385 0
M  V30 27 H 1.68221 -3.29772 0.339475 0
M  V30 28 H 1.37944 -2.33762 1.87728 0
M  V30 29 H 0.0171959 -2.86396 0.855407 0
M  V30 END ATOM
M  V30 BEGIN BOND
M  V30 1 3 1 2
M  V30 2 1 2 3
M  V30 3 1 3 4
M  V30 4 1 4 5
M  V30 5 1 5 6
M  V30 6 2 6 7
M  V30 7 1 7 8
M  V30 8 2 8 9
M  V30 9 1 9 10
M  V30 10 2 10 11
M  V30 11 1 10 12
M  V30 12 1 9 13
M  V30 13 1 5 14
M  V30 14 1 11 6
M  V30 15 1 1 15
M  V30 16 1 3 16
M  V30 17 1 3 17
M  V30 18 1 4 18
M  V30 19 1 4 19
M  V30 20 1 7 20
M  V30 21 1 8 21
M  V30 22 1 11 22
M  V30 23 1 12 23
M  V30 24 1 12 24
M  V30 25 1 13 25
M  V30 26 1 13 26
M  V30 27 1 14 27
M  V30 28 1 14 28
M  V30 29 1 14 29
M  V30 END BOND
M  V30 END CTAB
M  END
