
     RDKit          3D

  0  0  0  0  0  0  0  0  0  0999 V3000
M  V30 BEGIN CTAB
M  V30 COUNTS 17 17 0 0 0
M  V30 BEGIN ATOM
M  V30 1 N -1.96425 -1.60147 -1.23904 0
M  V30 2 N -1.96694 -0.739913 -0.208775 0
M  V30 3 C -1.17063 -0.00877867 0.396477 0
M  V30 4 C 0.248963 0.154238 0.112985 0
M  V30 5 C 0.99875 1.03635 0.914285 0
M  V30 6 N 2.30457 1.21662 0.689735 0
M  V30 7 C 2.97535 0.587298 -0.288133 0
M  V30 8 N 2.29032 -0.258895 -1.06834 0
M  V30 9 C 0.951408 -0.476223 -0.876912 0
M  V30 10 N -1.75417 0.748148 1.49742 0
M  V30 11 H -2.34028 -1.27829 -2.17073 0
M  V30 12 H -1.62206 -2.59627 -1.23672 0
M  V30 13 H 0.49426 1.57029 1.72217 0
M  V30 14 H 4.04338 0.754474 -0.448211 0
M  V30 15 H 0.432682 -1.16484 -1.52487 0
M  V30 16 H -1.81781 0.367314 2.45137 0
M  V30 17 H -2.10354 1.68994 1.27728 0
M  V30 END ATOM
M  V30 BEGIN BOND
M  V30 1 1 1 2
M  V30 2 2 2 3 CFG=2
M  V30 3 1 3 4
M  V30 4 2 4 5
M  V30 5 1 5 6
M  V30 6 2 6 7
M  V30 7 1 7 8
M  V30 8 2 8 9
M  V30 9 1 3 10
M  V30 10 1 9 4
M  V30 11 1 1 11
M  V30 12 1 1 12
M  V30 13 1 5 13
M  V30 14 1 7 14
M  V30 15 1 9 15
M  V30 16 1 10 16
M  V30 17 1 10 17
M  V30 END BOND
M  V30 END CTAB
M  END
