
     RDKit          3D

  0  0  0  0  0  0  0  0  0  0999 V3000
M  V30 BEGIN CTAB
M  V30 COUNTS 34 35 0 0 0
M  V30 BEGIN ATOM
M  V30 1 C -5.97284 0.209036 -0.791517 0
M  V30 2 C -4.52081 0.0119082 -0.523398 0
M  V30 3 C -3.98381 0.381855 0.687965 0
M  V30 4 C -2.61859 0.193282 0.931909 0
M  V30 5 N -2.03838 0.561911 2.16268 0
M  V30 6 C -1.79238 -0.364327 -0.0342743 0
M  V30 7 C -2.38406 -0.71662 -1.23004 0
M  V30 8 C -3.72299 -0.543003 -1.49773 0
M  V30 9 N -0.391776 -0.559168 0.212528 0
M  V30 10 N 0.410956 0.136885 -0.453871 0
M  V30 11 C 1.8019 0.107878 -0.373289 0
M  V30 12 C 2.40914 -0.17994 0.825993 0
M  V30 13 N 1.70756 -0.456436 2.01704 0
M  V30 14 C 3.80127 -0.201616 0.875489 0
M  V30 15 C 4.58497 0.0535865 -0.227983 0
M  V30 16 C 6.07598 0.0213348 -0.136805 0
M  V30 17 C 3.96934 0.339527 -1.41907 0
M  V30 18 C 2.57617 0.362453 -1.47382 0
M  V30 19 H -6.28261 1.21509 -0.438867 0
M  V30 20 H -6.17259 0.208462 -1.89333 0
M  V30 21 H -6.56642 -0.548072 -0.252632 0
M  V30 22 H -4.57573 0.824837 1.4894 0
M  V30 23 H -1.65533 -0.14853 2.80974 0
M  V30 24 H -1.9877 1.55804 2.43743 0
M  V30 25 H -1.73353 -1.1569 -1.99389 0
M  V30 26 H -4.16731 -0.833845 -2.46168 0
M  V30 27 H 1.53134 -1.43686 2.30956 0
M  V30 28 H 1.35691 0.30778 2.61892 0
M  V30 29 H 4.29239 -0.425747 1.80884 0
M  V30 30 H 6.33995 0.0314786 0.941668 0
M  V30 31 H 6.54728 0.870504 -0.661412 0
M  V30 32 H 6.45588 -0.95883 -0.532066 0
M  V30 33 H 4.57942 0.542336 -2.29562 0
M  V30 34 H 2.12642 0.591715 -2.43016 0
M  V30 END ATOM
M  V30 BEGIN BOND
M  V30 1 1 1 2
M  V30 2 2 2 3
M  V30 3 1 3 4
M  V30 4 1 4 5
M  V30 5 2 4 6
M  V30 6 1 6 7
M  V30 7 2 7 8
M  V30 8 1 6 9
M  V30 9 2 9 10 CFG=2
M  V30 10 1 10 11
M  V30 11 2 11 12
M  V30 12 1 12 13
M  V30 13 1 12 14
M  V30 14 2 14 15
M  V30 15 1 15 16
M  V30 16 1 15 17
M  V30 17 2 17 18
M  V30 18 1 8 2
M  V30 19 1 18 11
M  V30 20 1 1 19
M  V30 21 1 1 20
M  V30 22 1 1 21
M  V30 23 1 3 22
M  V30 24 1 5 23
M  V30 25 1 5 24
M  V30 26 1 7 25
M  V30 27 1 8 26
M  V30 28 1 13 27
M  V30 29 1 13 28
M  V30 30 1 14 29
M  V30 31 1 16 30
M  V30 32 1 16 31
M  V30 33 1 16 32
M  V30 34 1 17 33
M  V30 35 1 18 34
M  V30 END BOND
M  V30 END CTAB
M  END
