
     RDKit          3D

  0  0  0  0  0  0  0  0  0  0999 V3000
M  V30 BEGIN CTAB
M  V30 COUNTS 37 36 0 0 0
M  V30 BEGIN ATOM
M  V30 1 N -2.70241 -2.86079 -0.671484 0
M  V30 2 C -2.40085 -2.6696 0.709506 0
M  V30 3 C -1.7776 -1.295 0.984593 0
M  V30 4 C -0.492949 -1.12254 0.234618 0
M  V30 5 N 0.217721 0.0757074 0.388062 0
M  V30 6 C 1.50193 -0.0978753 -0.356243 0
M  V30 7 C 2.42666 -1.06418 0.260749 0
M  V30 8 C 3.68692 -1.11004 -0.625644 0
M  V30 9 N 4.31894 0.17557 -0.708715 0
M  V30 10 C -0.281966 1.29839 -0.0975178 0
M  V30 11 C -1.45862 1.96259 0.457796 0
M  V30 12 O -1.40089 2.27017 1.82456 0
M  V30 13 C -1.41136 3.40746 -0.173136 0
M  V30 14 O -2.51052 4.10354 0.294869 0
M  V30 15 H -3.6908 -2.63151 -0.923091 0
M  V30 16 H -2.58465 -3.88761 -0.881237 0
M  V30 17 H -1.71844 -3.45603 1.06521 0
M  V30 18 H -3.33386 -2.6857 1.30543 0
M  V30 19 H -2.5338 -0.590818 0.60306 0
M  V30 20 H -1.65086 -1.27722 2.07437 0
M  V30 21 H 0.153931 -1.97362 0.614225 0
M  V30 22 H -0.626852 -1.41984 -0.854197 0
M  V30 23 H 1.29477 -0.383407 -1.414 0
M  V30 24 H 2.01592 0.892955 -0.421152 0
M  V30 25 H 2.03958 -2.08181 0.382144 0
M  V30 26 H 2.71501 -0.712724 1.2885 0
M  V30 27 H 4.34967 -1.92643 -0.278849 0
M  V30 28 H 3.38703 -1.39238 -1.6693 0
M  V30 29 H 4.37734 0.677195 0.219173 0
M  V30 30 H 5.30553 0.0761287 -1.09164 0
M  V30 31 H -0.474159 1.16065 -1.21443 0
M  V30 32 H 0.584617 2.03945 -0.120096 0
M  V30 33 H -2.42641 1.55776 0.138458 0
M  V30 34 H -0.829661 3.03185 1.97627 0
M  V30 35 H -1.33843 3.33103 -1.256 0
M  V30 36 H -0.467872 3.83636 0.221168 0
M  V30 37 H -2.26261 4.74235 1.00562 0
M  V30 END ATOM
M  V30 BEGIN BOND
M  V30 1 1 1 2
M  V30 2 1 2 3
M  V30 3 1 3 4
M  V30 4 1 4 5
M  V30 5 1 5 6
M  V30 6 1 6 7
M  V30 7 1 7 8
M  V30 8 1 8 9
M  V30 9 1 5 10
M  V30 10 1 10 11
M  V30 11 1 11 12
M  V30 12 1 11 13
M  V30 13 1 13 14
M  V30 14 1 1 15
M  V30 15 1 1 16
M  V30 16 1 2 17
M  V30 17 1 2 18
M  V30 18 1 3 19
M  V30 19 1 3 20
M  V30 20 1 4 21
M  V30 21 1 4 22
M  V30 22 1 6 23
M  V30 23 1 6 24
M  V30 24 1 7 25
M  V30 25 1 7 26
M  V30 26 1 8 27
M  V30 27 1 8 28
M  V30 28 1 9 29
M  V30 29 1 9 30
M  V30 30 1 10 31
M  V30 31 1 10 32
M  V30 32 1 11 33
M  V30 33 1 12 34
M  V30 34 1 13 35
M  V30 35 1 13 36
M  V30 36 1 14 37
M  V30 END BOND
M  V30 END CTAB
M  END
