
     RDKit          3D

  0  0  0  0  0  0  0  0  0  0999 V3000
M  V30 BEGIN CTAB
M  V30 COUNTS 29 30 0 0 0
M  V30 BEGIN ATOM
M  V30 1 N 1.76813 -0.155758 -1.61424 0
M  V30 2 C 1.96202 0.204911 -0.262115 0
M  V30 3 C 0.99062 0.205602 0.708873 0
M  V30 4 N 1.59161 0.555714 1.88196 0
M  V30 5 N 2.88124 0.763606 1.66557 0
M  V30 6 C 3.15536 0.554909 0.359576 0
M  V30 7 N 4.41364 0.666211 -0.251603 0
M  V30 8 C -0.447352 0.0836297 0.531915 0
M  V30 9 C -1.04597 -1.14934 1.13911 0
M  V30 10 C -2.511 -1.22309 1.02566 0
M  V30 11 C -3.20004 -0.456617 -0.0479588 0
M  V30 12 C -2.55172 0.881713 -0.385214 0
M  V30 13 C -1.07031 0.506492 -0.752079 0
M  V30 14 H 1.56657 -1.1954 -1.90598 0
M  V30 15 H 1.79595 0.495522 -2.40696 0
M  V30 16 H 3.53954 1.06047 2.41747 0
M  V30 17 H 4.55535 0.556654 -1.24907 0
M  V30 18 H 5.24541 0.890038 0.379267 0
M  V30 19 H -0.85981 0.926956 1.29397 0
M  V30 20 H -0.765511 -1.24632 2.22779 0
M  V30 21 H -0.600323 -2.04905 0.555887 0
M  V30 22 H -2.99634 -1.01398 2.02194 0
M  V30 23 H -2.77037 -2.34716 0.835342 0
M  V30 24 H -4.22332 -0.250471 0.30471 0
M  V30 25 H -3.18499 -1.07591 -0.988891 0
M  V30 26 H -2.45332 1.46781 0.5441 0
M  V30 27 H -3.02317 1.3601 -1.2429 0
M  V30 28 H -0.568047 1.34761 -1.23822 0
M  V30 29 H -1.19383 -0.364852 -1.47123 0
M  V30 END ATOM
M  V30 BEGIN BOND
M  V30 1 1 1 2
M  V30 2 1 2 3
M  V30 3 2 3 4
M  V30 4 1 4 5
M  V30 5 1 5 6
M  V30 6 1 6 7
M  V30 7 1 3 8
M  V30 8 1 8 9
M  V30 9 1 9 10
M  V30 10 1 10 11
M  V30 11 1 11 12
M  V30 12 1 12 13
M  V30 13 2 6 2
M  V30 14 1 13 8
M  V30 15 1 1 14
M  V30 16 1 1 15
M  V30 17 1 5 16
M  V30 18 1 7 17
M  V30 19 1 7 18
M  V30 20 1 8 19
M  V30 21 1 9 20
M  V30 22 1 9 21
M  V30 23 1 10 22
M  V30 24 1 10 23
M  V30 25 1 11 24
M  V30 26 1 11 25
M  V30 27 1 12 26
M  V30 28 1 12 27
M  V30 29 1 13 28
M  V30 30 1 13 29
M  V30 END BOND
M  V30 END CTAB
M  END
