
     RDKit          3D

  0  0  0  0  0  0  0  0  0  0999 V3000
M  V30 BEGIN CTAB
M  V30 COUNTS 25 25 0 0 0
M  V30 BEGIN ATOM
M  V30 1 C -3.30417 0.858348 -0.40924 0
M  V30 2 C -2.47693 -0.36675 -0.226775 0
M  V30 3 C -1.03052 -0.147194 -0.235437 0
M  V30 4 C -0.408293 0.989567 -0.699825 0
M  V30 5 C 0.970997 1.12524 -0.675532 0
M  V30 6 C 1.77032 0.115752 -0.180561 0
M  V30 7 C 1.16706 -1.02226 0.285536 0
M  V30 8 C -0.206551 -1.14425 0.25555 0
M  V30 9 C 3.21713 0.280328 -0.164924 0
M  V30 10 N 3.81357 1.32647 -0.590841 0
M  V30 11 N 4.00655 -0.775598 0.349965 0
M  V30 12 N -2.81881 -0.927545 1.08966 0
M  V30 13 H -4.2594 0.797502 0.191841 0
M  V30 14 H -3.58626 0.923459 -1.49869 0
M  V30 15 H -2.83109 1.79643 -0.127173 0
M  V30 16 H -2.7293 -1.14624 -0.982224 0
M  V30 17 H -1.02889 1.77131 -1.08324 0
M  V30 18 H 1.35371 2.06042 -1.06546 0
M  V30 19 H 1.82659 -1.80046 0.669746 0
M  V30 20 H -0.616075 -2.07526 0.641983 0
M  V30 21 H 3.38628 2.17163 -0.990462 0
M  V30 22 H 4.77023 -0.586681 1.03213 0
M  V30 23 H 3.85467 -1.76762 0.0691639 0
M  V30 24 H -2.18274 -0.503732 1.82356 0
M  V30 25 H -2.65807 -1.95288 1.03184 0
M  V30 END ATOM
M  V30 BEGIN BOND
M  V30 1 1 1 2
M  V30 2 1 2 3
M  V30 3 2 3 4
M  V30 4 1 4 5
M  V30 5 2 5 6
M  V30 6 1 6 7
M  V30 7 2 7 8
M  V30 8 1 6 9
M  V30 9 2 9 10 CFG=2
M  V30 10 1 9 11
M  V30 11 1 2 12
M  V30 12 1 8 3
M  V30 13 1 1 13
M  V30 14 1 1 14
M  V30 15 1 1 15
M  V30 16 1 2 16
M  V30 17 1 4 17
M  V30 18 1 5 18
M  V30 19 1 7 19
M  V30 20 1 8 20
M  V30 21 1 10 21
M  V30 22 1 11 22
M  V30 23 1 11 23
M  V30 24 1 12 24
M  V30 25 1 12 25
M  V30 END BOND
M  V30 END CTAB
M  END
