
     RDKit          3D

  0  0  0  0  0  0  0  0  0  0999 V3000
M  V30 BEGIN CTAB
M  V30 COUNTS 63 66 0 0 0
M  V30 BEGIN ATOM
M  V30 1 C 4.64698 -4.81373 -2.97538 0
M  V30 2 O 3.43308 -4.1429 -2.73942 0
M  V30 3 C 3.33421 -2.88687 -2.16601 0
M  V30 4 O 4.38368 -2.29228 -1.82815 0
M  V30 5 C 2.01787 -2.25114 -1.95262 0
M  V30 6 C 2.12412 -0.899945 -1.30309 0
M  V30 7 C 2.76607 -0.907602 0.0448983 0
M  V30 8 C 3.72879 0.223152 -0.012938 0
M  V30 9 N 3.7814 0.678219 -1.22598 0
M  V30 10 O 2.94634 -0.0211629 -2.04092 0
M  V30 11 C 4.50873 0.768989 1.08914 0
M  V30 12 C 4.37989 0.213339 2.33028 0
M  V30 13 C 5.10276 0.700088 3.41865 0
M  V30 14 C 5.95217 1.76658 3.18347 0
M  V30 15 C 6.10489 2.3499 1.94251 0
M  V30 16 C 5.36708 1.825 0.917578 0
M  V30 17 C 7.0045 3.4635 1.74682 0
M  V30 18 N 7.11936 4.02364 0.435647 0
M  V30 19 N 7.71077 3.98968 2.66621 0
M  V30 20 C 0.713651 -0.364589 -1.16905 0
M  V30 21 O 0.525771 0.726141 -1.74283 0
M  V30 22 N -0.197967 -1.1262 -0.439154 0
M  V30 23 C -1.55446 -0.857784 -0.163769 0
M  V30 24 C -2.35873 -1.85317 0.425914 0
M  V30 25 C -3.66939 -1.60932 0.709949 0
M  V30 26 C -4.2199 -0.401657 0.428329 0
M  V30 27 C -3.44349 0.56447 -0.142669 0
M  V30 28 C -2.10233 0.363906 -0.450916 0
M  V30 29 C -5.6402 -0.0963659 0.721328 0
M  V30 30 C -6.35292 0.778685 -0.0635765 0
M  V30 31 C -7.66857 1.10411 0.153599 0
M  V30 32 C -8.30511 0.513852 1.22443 0
M  V30 33 C -7.63051 -0.374407 2.04495 0
M  V30 34 C -6.29616 -0.674944 1.78655 0
M  V30 35 S -8.55739 2.22188 -0.85689 0
M  V30 36 N -9.28886 1.29948 -2.12818 0
M  V30 37 O -9.55262 3.01971 -0.0993544 0
M  V30 38 O -7.52377 3.10992 -1.52432 0
M  V30 39 H 5.44504 -4.47421 -2.25733 0
M  V30 40 H 4.96932 -4.58284 -4.00439 0
M  V30 41 H 4.53061 -5.91387 -2.85471 0
M  V30 42 H 1.34919 -2.92773 -1.38634 0
M  V30 43 H 1.495 -2.0929 -2.93936 0
M  V30 44 H 3.28833 -1.82476 0.312326 0
M  V30 45 H 2.01444 -0.698107 0.86188 0
M  V30 46 H 3.72171 -0.61883 2.52942 0
M  V30 47 H 5.01289 0.274945 4.3996 0
M  V30 48 H 6.50728 2.13332 4.04152 0
M  V30 49 H 5.45516 2.25039 -0.071205 0
M  V30 50 H 6.35091 4.67844 0.155732 0
M  V30 51 H 7.92554 3.7591 -0.140218 0
M  V30 52 H 7.7457 3.70747 3.66171 0
M  V30 53 H 0.158149 -2.04688 -0.0126222 0
M  V30 54 H -1.922 -2.82824 0.655476 0
M  V30 55 H -4.32414 -2.36229 1.16876 0
M  V30 56 H -3.85451 1.53292 -0.377205 0
M  V30 57 H -1.54113 1.1994 -0.906254 0
M  V30 58 H -5.85513 1.2396 -0.900136 0
M  V30 59 H -9.34476 0.708921 1.47597 0
M  V30 60 H -8.10141 -0.856855 2.89691 0
M  V30 61 H -5.74606 -1.36747 2.41499 0
M  V30 62 H -10.0005 1.89951 -2.634 0
M  V30 63 H -8.56934 1.08079 -2.87213 0
M  V30 END ATOM
M  V30 BEGIN BOND
M  V30 1 1 1 2
M  V30 2 1 2 3
M  V30 3 2 3 4
M  V30 4 1 3 5
M  V30 5 1 5 6
M  V30 6 1 6 7
M  V30 7 1 7 8
M  V30 8 2 8 9
M  V30 9 1 9 10
M  V30 10 1 8 11
M  V30 11 2 11 12
M  V30 12 1 12 13
M  V30 13 2 13 14
M  V30 14 1 14 15
M  V30 15 2 15 16
M  V30 16 1 15 17
M  V30 17 1 17 18
M  V30 18 2 17 19 CFG=2
M  V30 19 1 6 20
M  V30 20 2 20 21
M  V30 21 1 20 22
M  V30 22 1 22 23
M  V30 23 2 23 24
M  V30 24 1 24 25
M  V30 25 2 25 26
M  V30 26 1 26 27
M  V30 27 2 27 28
M  V30 28 1 26 29
M  V30 29 2 29 30
M  V30 30 1 30 31
M  V30 31 2 31 32
M  V30 32 1 32 33
M  V30 33 2 33 34
M  V30 34 1 31 35
M  V30 35 1 35 36
M  V30 36 2 35 37
M  V30 37 2 35 38
M  V30 38 1 10 6
M  V30 39 1 16 11
M  V30 40 1 28 23
M  V30 41 1 34 29
M  V30 42 1 1 39
M  V30 43 1 1 40
M  V30 44 1 1 41
M  V30 45 1 5 42
M  V30 46 1 5 43
M  V30 47 1 7 44
M  V30 48 1 7 45
M  V30 49 1 12 46
M  V30 50 1 13 47
M  V30 51 1 14 48
M  V30 52 1 16 49
M  V30 53 1 18 50
M  V30 54 1 18 51
M  V30 55 1 19 52
M  V30 56 1 22 53
M  V30 57 1 24 54
M  V30 58 1 25 55
M  V30 59 1 27 56
M  V30 60 1 28 57
M  V30 61 1 30 58
M  V30 62 1 32 59
M  V30 63 1 33 60
M  V30 64 1 34 61
M  V30 65 1 36 62
M  V30 66 1 36 63
M  V30 END BOND
M  V30 END CTAB
M  END
