
     RDKit          3D

  0  0  0  0  0  0  0  0  0  0999 V3000
M  V30 BEGIN CTAB
M  V30 COUNTS 36 36 0 0 0
M  V30 BEGIN ATOM
M  V30 1 N -6.43496 0.241327 -0.265505 0
M  V30 2 C -6.03545 -1.11955 -0.0787276 0
M  V30 3 C -4.70704 -1.16914 0.638547 0
M  V30 4 C -3.61693 -0.459369 -0.146421 0
M  V30 5 O -2.43374 -0.563809 0.602699 0
M  V30 6 C -1.21539 -0.047949 0.233089 0
M  V30 7 C -0.148312 -0.23503 1.07867 0
M  V30 8 C 1.13451 0.25579 0.785239 0
M  V30 9 C 1.37458 0.948184 -0.370645 0
M  V30 10 O 2.56694 1.46211 -0.757232 0
M  V30 11 C 3.8304 1.48903 -0.267999 0
M  V30 12 C 4.44395 0.118779 -0.183104 0
M  V30 13 C 5.86116 0.205111 0.373197 0
M  V30 14 N 6.39505 -1.13691 0.430825 0
M  V30 15 C 0.270507 1.12555 -1.2149 0
M  V30 16 C -0.982941 0.644122 -0.923939 0
M  V30 17 H -5.95341 0.898811 0.376061 0
M  V30 18 H -6.47223 0.533497 -1.2497 0
M  V30 19 H -5.8876 -1.66275 -1.04542 0
M  V30 20 H -6.74879 -1.71043 0.523054 0
M  V30 21 H -4.42001 -2.25263 0.755171 0
M  V30 22 H -4.7572 -0.738238 1.65867 0
M  V30 23 H -3.90127 0.628703 -0.146504 0
M  V30 24 H -3.54561 -0.865792 -1.16454 0
M  V30 25 H -0.295924 -0.780339 2.00714 0
M  V30 26 H 1.93281 0.091775 1.50228 0
M  V30 27 H 3.87519 1.97682 0.747368 0
M  V30 28 H 4.45453 2.17587 -0.901444 0
M  V30 29 H 4.47911 -0.291865 -1.23806 0
M  V30 30 H 3.82677 -0.530167 0.440872 0
M  V30 31 H 6.43624 0.852782 -0.332298 0
M  V30 32 H 5.83248 0.705501 1.36135 0
M  V30 33 H 5.7925 -1.81541 -0.0834709 0
M  V30 34 H 6.45479 -1.43669 1.4318 0
M  V30 35 H 0.431314 1.67388 -2.1426 0
M  V30 36 H -1.836 0.788432 -1.58956 0
M  V30 END ATOM
M  V30 BEGIN BOND
M  V30 1 1 1 2
M  V30 2 1 2 3
M  V30 3 1 3 4
M  V30 4 1 4 5
M  V30 5 1 5 6
M  V30 6 2 6 7
M  V30 7 1 7 8
M  V30 8 2 8 9
M  V30 9 1 9 10
M  V30 10 1 10 11
M  V30 11 1 11 12
M  V30 12 1 12 13
M  V30 13 1 13 14
M  V30 14 1 9 15
M  V30 15 2 15 16
M  V30 16 1 16 6
M  V30 17 1 1 17
M  V30 18 1 1 18
M  V30 19 1 2 19
M  V30 20 1 2 20
M  V30 21 1 3 21
M  V30 22 1 3 22
M  V30 23 1 4 23
M  V30 24 1 4 24
M  V30 25 1 7 25
M  V30 26 1 8 26
M  V30 27 1 11 27
M  V30 28 1 11 28
M  V30 29 1 12 29
M  V30 30 1 12 30
M  V30 31 1 13 31
M  V30 32 1 13 32
M  V30 33 1 14 33
M  V30 34 1 14 34
M  V30 35 1 15 35
M  V30 36 1 16 36
M  V30 END BOND
M  V30 END CTAB
M  END
