
     RDKit          3D

  0  0  0  0  0  0  0  0  0  0999 V3000
M  V30 BEGIN CTAB
M  V30 COUNTS 43 45 0 0 0
M  V30 BEGIN ATOM
M  V30 1 N -4.65896 2.31337 -2.62556 0
M  V30 2 C -3.86796 1.37167 -1.91331 0
M  V30 3 C -2.72488 0.797867 -2.45142 0
M  V30 4 C -1.9761 -0.111453 -1.74164 0
M  V30 5 C -2.34729 -0.491943 -0.438196 0
M  V30 6 C -3.46832 0.0733297 0.0846481 0
M  V30 7 C -4.234 1.00405 -0.642985 0
M  V30 8 C -3.9579 -0.247224 1.44886 0
M  V30 9 C -3.4682 -1.63725 1.78392 0
M  V30 10 C -1.94201 -1.62234 1.6783 0
M  V30 11 C -1.49418 -1.47495 0.259367 0
M  V30 12 N -0.147428 -0.906396 0.295227 0
M  V30 13 C 0.962878 -1.53709 -0.28763 0
M  V30 14 O 0.775065 -2.64524 -0.865736 0
M  V30 15 C 2.29913 -0.96062 -0.245191 0
M  V30 16 O 3.36647 -1.48305 -0.758869 0
M  V30 17 C 4.41584 -0.751633 -0.570274 0
M  V30 18 C 4.05315 0.388302 0.14044 0
M  V30 19 C 2.69484 0.234425 0.338034 0
M  V30 20 S 5.05393 1.718 0.672477 0
M  V30 21 O 5.66284 2.4162 -0.520568 0
M  V30 22 O 6.16637 1.16971 1.51804 0
M  V30 23 N 4.0748 2.84314 1.50352 0
M  V30 24 C 5.81453 -1.01941 -1.0112 0
M  V30 25 H -4.55744 3.33287 -2.43017 0
M  V30 26 H -5.33338 1.96414 -3.33789 0
M  V30 27 H -2.43847 1.08976 -3.45377 0
M  V30 28 H -1.07754 -0.566535 -2.15662 0
M  V30 29 H -5.12111 1.43922 -0.20519 0
M  V30 30 H -3.58588 0.470795 2.20723 0
M  V30 31 H -5.08076 -0.247201 1.47985 0
M  V30 32 H -3.8323 -2.36138 1.04299 0
M  V30 33 H -3.72534 -1.94034 2.80584 0
M  V30 34 H -1.59142 -0.796099 2.32598 0
M  V30 35 H -1.55112 -2.56945 2.13999 0
M  V30 36 H -1.4848 -2.44902 -0.285071 0
M  V30 37 H -0.0435448 0.00642039 0.782037 0
M  V30 38 H 2.02185 0.892819 0.845202 0
M  V30 39 H 4.56291 3.26975 2.31893 0
M  V30 40 H 3.24807 2.33649 1.89761 0
M  V30 41 H 6.28413 -1.69641 -0.267514 0
M  V30 42 H 6.41888 -0.0855515 -1.0206 0
M  V30 43 H 5.83464 -1.53173 -2.00241 0
M  V30 END ATOM
M  V30 BEGIN BOND
M  V30 1 1 1 2
M  V30 2 2 2 3
M  V30 3 1 3 4
M  V30 4 2 4 5
M  V30 5 1 5 6
M  V30 6 2 6 7
M  V30 7 1 6 8
M  V30 8 1 8 9
M  V30 9 1 9 10
M  V30 10 1 10 11
M  V30 11 1 11 12
M  V30 12 1 12 13
M  V30 13 2 13 14
M  V30 14 1 13 15
M  V30 15 1 15 16
M  V30 16 1 16 17
M  V30 17 2 17 18
M  V30 18 1 18 19
M  V30 19 1 18 20
M  V30 20 2 20 21
M  V30 21 2 20 22
M  V30 22 1 20 23
M  V30 23 1 17 24
M  V30 24 1 7 2
M  V30 25 2 19 15
M  V30 26 1 11 5
M  V30 27 1 1 25
M  V30 28 1 1 26
M  V30 29 1 3 27
M  V30 30 1 4 28
M  V30 31 1 7 29
M  V30 32 1 8 30
M  V30 33 1 8 31
M  V30 34 1 9 32
M  V30 35 1 9 33
M  V30 36 1 10 34
M  V30 37 1 10 35
M  V30 38 1 11 36
M  V30 39 1 12 37
M  V30 40 1 19 38
M  V30 41 1 23 39
M  V30 42 1 23 40
M  V30 43 1 24 41
M  V30 44 1 24 42
M  V30 45 1 24 43
M  V30 END BOND
M  V30 END CTAB
M  END
