
     RDKit          3D

  0  0  0  0  0  0  0  0  0  0999 V3000
M  V30 BEGIN CTAB
M  V30 COUNTS 51 54 0 0 0
M  V30 BEGIN ATOM
M  V30 1 O 8.68689 -0.385335 -0.853641 0
M  V30 2 C 8.20214 0.261229 0.114017 0
M  V30 3 O 8.9246 1.04232 0.805816 0
M  V30 4 C 6.75427 0.111689 0.45917 0 CFG=2
M  V30 5 C 5.89676 0.432488 -0.770771 0
M  V30 6 C 4.48274 0.253062 -0.31837 0
M  V30 7 C 3.93238 -0.995812 -0.466178 0
M  V30 8 C 2.63903 -1.25297 -0.0751252 0
M  V30 9 Cl 2.02906 -2.925 -0.195561 0
M  V30 10 C 1.8596 -0.249286 0.476581 0
M  V30 11 C 2.47817 1.02038 0.607363 0
M  V30 12 C 3.75522 1.29199 0.227797 0
M  V30 13 Cl 1.49546 2.29564 1.30957 0
M  V30 14 O 0.598895 -0.425614 0.863519 0
M  V30 15 C -0.693423 -0.255739 0.64919 0
M  V30 16 C -1.45109 -0.624154 -0.543129 0
M  V30 17 C -0.964426 -1.10842 -1.72241 0
M  V30 18 C -1.74394 -1.39351 -2.83597 0
M  V30 19 N -1.14171 -1.89241 -4.00942 0
M  V30 20 C -3.09219 -1.1593 -2.70633 0
M  V30 21 C -3.62084 -0.667998 -1.52647 0
M  V30 22 C -2.84238 -0.393903 -0.442941 0
M  V30 23 O -3.61518 0.0511353 0.510921 0
M  V30 24 C -4.88037 0.0939004 0.132521 0
M  V30 25 N -4.89189 -0.352905 -1.13656 0
M  V30 26 C -6.02926 0.532779 0.922021 0
M  V30 27 C -7.28369 0.507636 0.35829 0
M  V30 28 C -8.40449 0.909271 1.05944 0
M  V30 29 C -8.30266 1.35242 2.35789 0
M  V30 30 C -7.0562 1.38397 2.93661 0
M  V30 31 C -5.92301 0.97585 2.22215 0
M  V30 32 N 6.38788 0.935851 1.58288 0
M  V30 33 H 8.87017 -0.682096 -1.58709 0
M  V30 34 H 6.60368 -0.952764 0.75628 0
M  V30 35 H 6.10077 1.43175 -1.15008 0
M  V30 36 H 6.14279 -0.32866 -1.54294 0
M  V30 37 H 4.50849 -1.82881 -0.901515 0
M  V30 38 H 4.20344 2.27209 0.339162 0
M  V30 39 H -0.892214 0.899372 0.7323 0
M  V30 40 H -1.30575 -0.589934 1.58477 0
M  V30 41 H 0.117584 -1.27903 -1.84829 0
M  V30 42 H -1.71955 -2.04283 -4.85285 0
M  V30 43 H -0.134777 -2.10459 -4.02462 0
M  V30 44 H -3.75079 -1.35983 -3.53399 0
M  V30 45 H -7.40833 0.166506 -0.662039 0
M  V30 46 H -9.38768 0.886571 0.608822 0
M  V30 47 H -9.1812 1.67737 2.93609 0
M  V30 48 H -6.9546 1.73165 3.96358 0
M  V30 49 H -4.9617 1.00946 2.69474 0
M  V30 50 H 7.24948 1.2629 2.0489 0
M  V30 51 H 5.71383 0.461613 2.21437 0
M  V30 END ATOM
M  V30 BEGIN BOND
M  V30 1 1 1 2
M  V30 2 2 2 3
M  V30 3 1 2 4
M  V30 4 1 4 5
M  V30 5 1 5 6
M  V30 6 2 6 7
M  V30 7 1 7 8
M  V30 8 1 8 9
M  V30 9 2 8 10
M  V30 10 1 10 11
M  V30 11 2 11 12
M  V30 12 1 11 13
M  V30 13 1 10 14
M  V30 14 1 14 15
M  V30 15 1 15 16
M  V30 16 2 16 17
M  V30 17 1 17 18
M  V30 18 1 18 19
M  V30 19 2 18 20
M  V30 20 1 20 21
M  V30 21 2 21 22
M  V30 22 1 22 23
M  V30 23 1 23 24
M  V30 24 2 24 25
M  V30 25 1 24 26
M  V30 26 2 26 27
M  V30 27 1 27 28
M  V30 28 2 28 29
M  V30 29 1 29 30
M  V30 30 2 30 31
M  V30 31 1 4 32
M  V30 32 1 12 6
M  V30 33 1 22 16
M  V30 34 1 31 26
M  V30 35 1 25 21
M  V30 36 1 1 33
M  V30 37 1 4 34 CFG=1
M  V30 38 1 5 35
M  V30 39 1 5 36
M  V30 40 1 7 37
M  V30 41 1 12 38
M  V30 42 1 15 39
M  V30 43 1 15 40
M  V30 44 1 17 41
M  V30 45 1 19 42
M  V30 46 1 19 43
M  V30 47 1 20 44
M  V30 48 1 27 45
M  V30 49 1 28 46
M  V30 50 1 29 47
M  V30 51 1 30 48
M  V30 52 1 31 49
M  V30 53 1 32 50
M  V30 54 1 32 51
M  V30 END BOND
M  V30 END CTAB
M  END
