
     RDKit          3D

  0  0  0  0  0  0  0  0  0  0999 V3000
M  V30 BEGIN CTAB
M  V30 COUNTS 18 18 0 0 0
M  V30 BEGIN ATOM
M  V30 1 N -1.9626 -1.68028 0.0722199 0
M  V30 2 C -0.881905 -0.780006 -0.0395245 0
M  V30 3 C 0.388323 -1.3194 -0.177421 0
M  V30 4 C 1.48935 -0.505281 -0.291699 0
M  V30 5 C 2.81675 -1.04611 -0.435708 0
M  V30 6 N 3.87263 -1.49103 -0.536072 0
M  V30 7 C 1.36384 0.864254 -0.272675 0
M  V30 8 C 0.0859336 1.37335 -0.134078 0
M  V30 9 C -1.03609 0.586725 -0.0174505 0
M  V30 10 N -2.32585 1.14369 0.122618 0
M  V30 11 C 2.52447 1.71191 -0.393189 0
M  V30 12 N 3.44929 2.4015 -0.506342 0
M  V30 13 H -2.28112 -1.99141 0.996773 0
M  V30 14 H -2.42322 -2.01775 -0.781052 0
M  V30 15 H 0.52537 -2.39825 -0.196466 0
M  V30 16 H -0.0166365 2.45327 -0.118686 0
M  V30 17 H -2.52438 1.76328 0.917872 0
M  V30 18 H -3.06415 0.931547 -0.566732 0
M  V30 END ATOM
M  V30 BEGIN BOND
M  V30 1 1 1 2
M  V30 2 2 2 3
M  V30 3 1 3 4
M  V30 4 1 4 5
M  V30 5 3 5 6
M  V30 6 2 4 7
M  V30 7 1 7 8
M  V30 8 2 8 9
M  V30 9 1 9 10
M  V30 10 1 7 11
M  V30 11 3 11 12
M  V30 12 1 9 2
M  V30 13 1 1 13
M  V30 14 1 1 14
M  V30 15 1 3 15
M  V30 16 1 8 16
M  V30 17 1 10 17
M  V30 18 1 10 18
M  V30 END BOND
M  V30 END CTAB
M  END
