
     RDKit          3D

  0  0  0  0  0  0  0  0  0  0999 V3000
M  V30 BEGIN CTAB
M  V30 COUNTS 29 30 0 0 0
M  V30 BEGIN ATOM
M  V30 1 C -5.13736 -0.455101 0.621753 0
M  V30 2 C -3.77861 0.0979663 0.340769 0
M  V30 3 C -3.48266 1.37425 -0.110292 0
M  V30 4 N -2.15575 1.43292 -0.222293 0
M  V30 5 N -1.58283 0.294423 0.121912 0
M  V30 6 C -2.5736 -0.544053 0.473585 0
M  V30 7 C -0.176072 0.0378868 0.110711 0
M  V30 8 C 0.466819 -0.556545 1.17531 0
M  V30 9 C 1.82578 -0.7953 1.14425 0
M  V30 10 C 2.60149 -0.45483 0.0578238 0
M  V30 11 C 1.97497 0.139347 -1.01304 0
M  V30 12 C 0.614165 0.375985 -0.976458 0
M  V30 13 N 0.00762357 0.989252 -2.09845 0
M  V30 14 S 4.32335 -0.731332 -0.0396938 0
M  V30 15 O 4.65484 -1.00555 -1.48271 0
M  V30 16 O 4.61244 -1.9763 0.770884 0
M  V30 17 N 5.20714 0.613093 0.569104 0
M  V30 18 H -5.87859 0.358092 0.690035 0
M  V30 19 H -5.10477 -1.04004 1.57205 0
M  V30 20 H -5.36436 -1.16079 -0.208772 0
M  V30 21 H -4.2454 2.11461 -0.307007 0
M  V30 22 H -2.46979 -1.57411 0.813813 0
M  V30 23 H -0.107981 -0.83587 2.04095 0
M  V30 24 H 2.3174 -1.25812 1.97687 0
M  V30 25 H 2.52689 0.439218 -1.91521 0
M  V30 26 H -0.121273 0.430309 -2.95867 0
M  V30 27 H -0.291155 1.96194 -2.04621 0
M  V30 28 H 5.15784 1.37642 -0.134644 0
M  V30 29 H 6.17945 0.352247 0.79827 0
M  V30 END ATOM
M  V30 BEGIN BOND
M  V30 1 1 1 2
M  V30 2 1 2 3
M  V30 3 2 3 4
M  V30 4 1 4 5
M  V30 5 1 5 6
M  V30 6 1 5 7
M  V30 7 2 7 8
M  V30 8 1 8 9
M  V30 9 2 9 10
M  V30 10 1 10 11
M  V30 11 2 11 12
M  V30 12 1 12 13
M  V30 13 1 10 14
M  V30 14 2 14 15
M  V30 15 2 14 16
M  V30 16 1 14 17
M  V30 17 2 6 2
M  V30 18 1 12 7
M  V30 19 1 1 18
M  V30 20 1 1 19
M  V30 21 1 1 20
M  V30 22 1 3 21
M  V30 23 1 6 22
M  V30 24 1 8 23
M  V30 25 1 9 24
M  V30 26 1 11 25
M  V30 27 1 13 26
M  V30 28 1 13 27
M  V30 29 1 17 28
M  V30 30 1 17 29
M  V30 END BOND
M  V30 END CTAB
M  END
