
     RDKit          3D

  0  0  0  0  0  0  0  0  0  0999 V3000
M  V30 BEGIN CTAB
M  V30 COUNTS 22 22 0 0 0
M  V30 BEGIN ATOM
M  V30 1 C 3.03498 -0.492959 -0.00163016 0
M  V30 2 C 2.0532 -0.00809717 1.03321 0
M  V30 3 C 0.65755 0.0394041 0.507471 0
M  V30 4 C 0.155952 1.17041 -0.102344 0
M  V30 5 C -1.1339 1.25053 -0.601921 0
M  V30 6 N -1.5798 2.45151 -1.2179 0
M  V30 7 C -1.95694 0.138864 -0.481379 0
M  V30 8 C -1.48086 -1.00619 0.124456 0
M  V30 9 C -0.188977 -1.04717 0.609985 0
M  V30 10 N -2.36073 -2.10695 0.220179 0
M  V30 11 Br -3.72576 0.274226 -1.17609 0
M  V30 12 H 3.88009 0.239061 -0.150663 0
M  V30 13 H 3.51198 -1.43249 0.347344 0
M  V30 14 H 2.51842 -0.623881 -0.974377 0
M  V30 15 H 2.08906 -0.657927 1.95416 0
M  V30 16 H 2.3998 0.991275 1.3763 0
M  V30 17 H 0.841107 2.01593 -0.172491 0
M  V30 18 H -2.25039 3.12631 -0.792714 0
M  V30 19 H -1.20053 2.66198 -2.16571 0
M  V30 20 H 0.141429 -1.96539 1.07713 0
M  V30 21 H -2.90782 -2.19701 1.11373 0
M  V30 22 H -2.49787 -2.82144 -0.526754 0
M  V30 END ATOM
M  V30 BEGIN BOND
M  V30 1 1 1 2
M  V30 2 1 2 3
M  V30 3 2 3 4
M  V30 4 1 4 5
M  V30 5 1 5 6
M  V30 6 2 5 7
M  V30 7 1 7 8
M  V30 8 2 8 9
M  V30 9 1 8 10
M  V30 10 1 7 11
M  V30 11 1 9 3
M  V30 12 1 1 12
M  V30 13 1 1 13
M  V30 14 1 1 14
M  V30 15 1 2 15
M  V30 16 1 2 16
M  V30 17 1 4 17
M  V30 18 1 6 18
M  V30 19 1 6 19
M  V30 20 1 9 20
M  V30 21 1 10 21
M  V30 22 1 10 22
M  V30 END BOND
M  V30 END CTAB
M  END
