
     RDKit          3D

  0  0  0  0  0  0  0  0  0  0999 V3000
M  V30 BEGIN CTAB
M  V30 COUNTS 19 19 0 0 0
M  V30 BEGIN ATOM
M  V30 1 N 3.20103 -0.941932 0.247516 0
M  V30 2 C 1.83023 -0.583148 0.141877 0
M  V30 3 C 0.851006 -1.55499 0.0772702 0
M  V30 4 N -0.441567 -1.17791 -0.0226801 0
M  V30 5 C -0.832724 0.106596 -0.06327 0
M  V30 6 C 0.112881 1.10856 -0.00144324 0
M  V30 7 C 1.44618 0.742055 0.101458 0
M  V30 8 N -0.251248 2.48976 -0.0408648 0
M  V30 9 O -2.18311 0.406206 -0.166855 0
M  V30 10 C -3.19264 -0.558759 -0.233785 0
M  V30 11 F -3.17871 -1.35675 0.908611 0
M  V30 12 F -3.01417 -1.4382 -1.30034 0
M  V30 13 F -4.40968 0.0692645 -0.377489 0
M  V30 14 H 3.95576 -0.252257 0.0482967 0
M  V30 15 H 3.49157 -1.89882 0.525439 0
M  V30 16 H 1.13949 -2.6059 0.108121 0
M  V30 17 H 2.23854 1.47712 0.154195 0
M  V30 18 H -0.274118 3.05304 0.855415 0
M  V30 19 H -0.488726 2.91608 -0.961465 0
M  V30 END ATOM
M  V30 BEGIN BOND
M  V30 1 1 1 2
M  V30 2 2 2 3
M  V30 3 1 3 4
M  V30 4 2 4 5
M  V30 5 1 5 6
M  V30 6 2 6 7
M  V30 7 1 6 8
M  V30 8 1 5 9
M  V30 9 1 9 10
M  V30 10 1 10 11
M  V30 11 1 10 12
M  V30 12 1 10 13
M  V30 13 1 7 2
M  V30 14 1 1 14
M  V30 15 1 1 15
M  V30 16 1 3 16
M  V30 17 1 7 17
M  V30 18 1 8 18
M  V30 19 1 8 19
M  V30 END BOND
M  V30 END CTAB
M  END
