
     RDKit          3D

  0  0  0  0  0  0  0  0  0  0999 V3000
M  V30 BEGIN CTAB
M  V30 COUNTS 39 41 0 0 0
M  V30 BEGIN ATOM
M  V30 1 C 4.96778 -2.07264 -1.39237 0
M  V30 2 O 4.92402 -1.54398 -0.101283 0
M  V30 3 C 4.00888 -0.610033 0.334869 0
M  V30 4 C 4.03444 -0.138804 1.62788 0
M  V30 5 C 3.09615 0.807198 2.04485 0
M  V30 6 C 2.14347 1.27616 1.17817 0
M  V30 7 C 1.15783 2.2828 1.61908 0
M  V30 8 N 0.0175863 2.29432 0.744334 0
M  V30 9 C -0.87052 1.20369 0.587349 0
M  V30 10 C -1.88771 1.28985 -0.335923 0
M  V30 11 C -2.76484 0.269794 -0.513987 0
M  V30 12 C -2.635 -0.874287 0.243815 0
M  V30 13 C -1.6316 -1.01258 1.18475 0
M  V30 14 C -0.760988 0.0479849 1.33441 0
M  V30 15 N -3.53421 -1.86771 0.0316548 0
M  V30 16 C -4.51198 -1.71766 -0.893863 0
M  V30 17 N -5.4433 -2.78409 -1.0924 0
M  V30 18 N -4.6184 -0.592309 -1.62095 0
M  V30 19 C -3.76931 0.425795 -1.46582 0
M  V30 20 N -3.8717 1.61851 -2.22749 0
M  V30 21 C 2.10722 0.814749 -0.112888 0
M  V30 22 C 3.04957 -0.134597 -0.52957 0
M  V30 23 H 3.99387 -2.35851 -1.79987 0
M  V30 24 H 5.42425 -1.35498 -2.13471 0
M  V30 25 H 5.69443 -2.935 -1.37241 0
M  V30 26 H 4.78073 -0.499173 2.32517 0
M  V30 27 H 3.14635 1.15806 3.07619 0
M  V30 28 H 0.835609 2.04597 2.6668 0
M  V30 29 H 1.64269 3.28439 1.61299 0
M  V30 30 H -0.174102 3.15951 0.18584 0
M  V30 31 H -1.99395 2.19837 -0.940392 0
M  V30 32 H -1.57003 -1.92744 1.75439 0
M  V30 33 H 0.00915507 -0.0560955 2.05887 0
M  V30 34 H -6.44608 -2.59627 -1.31067 0
M  V30 35 H -5.16174 -3.78773 -1.02791 0
M  V30 36 H -4.26068 2.46184 -1.76029 0
M  V30 37 H -3.55271 1.59114 -3.21592 0
M  V30 38 H 1.37552 1.15287 -0.843219 0
M  V30 39 H 3.04927 -0.51909 -1.53929 0
M  V30 END ATOM
M  V30 BEGIN BOND
M  V30 1 1 1 2
M  V30 2 1 2 3
M  V30 3 2 3 4
M  V30 4 1 4 5
M  V30 5 2 5 6
M  V30 6 1 6 7
M  V30 7 1 7 8
M  V30 8 1 8 9
M  V30 9 2 9 10
M  V30 10 1 10 11
M  V30 11 2 11 12
M  V30 12 1 12 13
M  V30 13 2 13 14
M  V30 14 1 12 15
M  V30 15 2 15 16
M  V30 16 1 16 17
M  V30 17 1 16 18
M  V30 18 2 18 19
M  V30 19 1 19 20
M  V30 20 1 6 21
M  V30 21 2 21 22
M  V30 22 1 22 3
M  V30 23 1 14 9
M  V30 24 1 19 11
M  V30 25 1 1 23
M  V30 26 1 1 24
M  V30 27 1 1 25
M  V30 28 1 4 26
M  V30 29 1 5 27
M  V30 30 1 7 28
M  V30 31 1 7 29
M  V30 32 1 8 30
M  V30 33 1 10 31
M  V30 34 1 13 32
M  V30 35 1 14 33
M  V30 36 1 17 34
M  V30 37 1 17 35
M  V30 38 1 20 36
M  V30 39 1 20 37
M  V30 40 1 21 38
M  V30 41 1 22 39
M  V30 END BOND
M  V30 END CTAB
M  END
