
     RDKit          3D

  0  0  0  0  0  0  0  0  0  0999 V3000
M  V30 BEGIN CTAB
M  V30 COUNTS 23 23 0 0 0
M  V30 BEGIN ATOM
M  V30 1 N 3.93699 -0.58094 -0.583723 0
M  V30 2 C 2.48734 -0.51906 -0.691434 0
M  V30 3 C 1.98088 0.654921 0.112992 0
M  V30 4 N 0.56127 0.724558 0.00133615 0
M  V30 5 C -0.386003 -0.240172 0.404035 0
M  V30 6 O -0.014154 -1.33604 0.947244 0
M  V30 7 C -1.81063 0.0358706 0.188344 0
M  V30 8 N -2.11143 1.30587 -0.433446 0
M  V30 9 C -2.5755 -1.19617 -0.304933 0
M  V30 10 C -2.86907 -0.577506 1.01263 0
M  V30 11 H 4.17504 -1.319 0.101414 0
M  V30 12 H 4.32733 0.328351 -0.247204 0
M  V30 13 H 2.03657 -1.43442 -0.273423 0
M  V30 14 H 2.15466 -0.423462 -1.73713 0
M  V30 15 H 2.33936 0.621926 1.16403 0
M  V30 16 H 2.45597 1.55221 -0.334567 0
M  V30 17 H 0.180032 1.60834 -0.43654 0
M  V30 18 H -3.14262 1.28208 -0.66613 0
M  V30 19 H -1.94774 2.04112 0.287197 0
M  V30 20 H -3.20887 -0.989941 -1.1883 0
M  V30 21 H -2.08412 -2.16721 -0.327876 0
M  V30 22 H -2.6518 -1.14791 1.93699 0
M  V30 23 H -3.83352 -0.0327788 1.06849 0
M  V30 END ATOM
M  V30 BEGIN BOND
M  V30 1 1 1 2
M  V30 2 1 2 3
M  V30 3 1 3 4
M  V30 4 1 4 5
M  V30 5 2 5 6
M  V30 6 1 5 7
M  V30 7 1 7 8
M  V30 8 1 7 9
M  V30 9 1 9 10
M  V30 10 1 10 7
M  V30 11 1 1 11
M  V30 12 1 1 12
M  V30 13 1 2 13
M  V30 14 1 2 14
M  V30 15 1 3 15
M  V30 16 1 3 16
M  V30 17 1 4 17
M  V30 18 1 8 18
M  V30 19 1 8 19
M  V30 20 1 9 20
M  V30 21 1 9 21
M  V30 22 1 10 22
M  V30 23 1 10 23
M  V30 END BOND
M  V30 END CTAB
M  END
