
     RDKit          3D

  0  0  0  0  0  0  0  0  0  0999 V3000
M  V30 BEGIN CTAB
M  V30 COUNTS 28 28 0 0 0
M  V30 BEGIN ATOM
M  V30 1 C 2.81065 2.00983 0.256211 0
M  V30 2 C 2.38603 0.908943 -0.00519667 0
M  V30 3 C 1.90515 -0.422061 -0.337856 0
M  V30 4 N 0.604216 -0.748244 0.231074 0
M  V30 5 C 0.45256 -1.8417 1.12939 0
M  V30 6 O 1.36746 -2.62307 1.57114 0
M  V30 7 N -0.912072 -1.91604 1.45543 0
M  V30 8 C -1.59231 -1.00923 0.875189 0
M  V30 9 C -0.670589 -0.192651 0.0603316 0
M  V30 10 C -1.1538 -0.365859 -1.39005 0
M  V30 11 C -0.841651 1.26555 0.403404 0
M  V30 12 N -0.544755 1.53097 1.80247 0
M  V30 13 N -3.02736 -0.825374 1.00466 0
M  V30 14 C 1.93128 -0.591451 -1.84332 0
M  V30 15 H 3.17275 2.98202 0.500089 0
M  V30 16 H 2.67944 -1.12617 0.0309906 0
M  V30 17 H -0.595345 0.24245 -2.09949 0
M  V30 18 H -1.09972 -1.42161 -1.70851 0
M  V30 19 H -2.21056 0.0191335 -1.4182 0
M  V30 20 H -1.92027 1.49807 0.267778 0
M  V30 21 H -0.286365 1.89527 -0.284268 0
M  V30 22 H -1.39297 1.76749 2.35742 0
M  V30 23 H 0.0664374 2.38813 1.80746 0
M  V30 24 H -3.64301 -1.55499 0.608838 0
M  V30 25 H -3.4592 -0.00970153 1.46811 0
M  V30 26 H 2.9538 -0.92039 -2.19414 0
M  V30 27 H 1.78425 0.397367 -2.32489 0
M  V30 28 H 1.23596 -1.33668 -2.22407 0
M  V30 END ATOM
M  V30 BEGIN BOND
M  V30 1 3 1 2
M  V30 2 1 2 3
M  V30 3 1 3 4
M  V30 4 1 4 5
M  V30 5 2 5 6
M  V30 6 1 5 7
M  V30 7 2 7 8
M  V30 8 1 8 9
M  V30 9 1 9 10
M  V30 10 1 9 11
M  V30 11 1 11 12
M  V30 12 1 8 13
M  V30 13 1 3 14
M  V30 14 1 9 4
M  V30 15 1 1 15
M  V30 16 1 3 16
M  V30 17 1 10 17
M  V30 18 1 10 18
M  V30 19 1 10 19
M  V30 20 1 11 20
M  V30 21 1 11 21
M  V30 22 1 12 22
M  V30 23 1 12 23
M  V30 24 1 13 24
M  V30 25 1 13 25
M  V30 26 1 14 26
M  V30 27 1 14 27
M  V30 28 1 14 28
M  V30 END BOND
M  V30 END CTAB
M  END
