
     RDKit          3D

  0  0  0  0  0  0  0  0  0  0999 V3000
M  V30 BEGIN CTAB
M  V30 COUNTS 22 22 0 0 0
M  V30 BEGIN ATOM
M  V30 1 N -1.59311 -1.7356 0.566119 0
M  V30 2 C -1.81163 -0.364906 0.893667 0 CFG=2
M  V30 3 O -2.38634 0.298847 -0.154559 0
M  V30 4 C -1.54455 0.911176 -1.03273 0
M  V30 5 C -0.159345 0.407849 -1.11566 0
M  V30 6 N 0.380751 -0.170028 0.0667866 0
M  V30 7 C -0.436728 0.239604 1.19483 0
M  V30 8 S 2.00217 0.313466 0.385767 0
M  V30 9 O 2.46397 -0.321026 1.66422 0
M  V30 10 O 2.10785 1.79126 0.500594 0
M  V30 11 N 2.99483 -0.210622 -0.924652 0
M  V30 12 H -1.3351 -2.34175 1.32064 0
M  V30 13 H -1.26673 -1.94505 -0.347182 0
M  V30 14 H -2.45683 -0.31965 1.77148 0
M  V30 15 H -2.00937 0.800996 -2.0579 0
M  V30 16 H -1.58359 2.01019 -0.833665 0
M  V30 17 H 0.508677 1.24865 -1.4228 0
M  V30 18 H -0.0397618 -0.35421 -1.94155 0
M  V30 19 H -0.0226799 -0.160957 2.13467 0
M  V30 20 H -0.515216 1.3561 1.21111 0
M  V30 21 H 2.69772 -1.15979 -1.25486 0
M  V30 22 H 4.005 -0.294549 -0.624319 0
M  V30 END ATOM
M  V30 BEGIN BOND
M  V30 1 1 1 2
M  V30 2 1 2 3
M  V30 3 1 3 4
M  V30 4 1 4 5
M  V30 5 1 5 6
M  V30 6 1 6 7
M  V30 7 1 6 8
M  V30 8 2 8 9
M  V30 9 2 8 10
M  V30 10 1 8 11
M  V30 11 1 7 2
M  V30 12 1 1 12
M  V30 13 1 1 13
M  V30 14 1 2 14 CFG=1
M  V30 15 1 4 15
M  V30 16 1 4 16
M  V30 17 1 5 17
M  V30 18 1 5 18
M  V30 19 1 7 19
M  V30 20 1 7 20
M  V30 21 1 11 21
M  V30 22 1 11 22
M  V30 END BOND
M  V30 END CTAB
M  END
