
     RDKit          3D

  0  0  0  0  0  0  0  0  0  0999 V3000
M  V30 BEGIN CTAB
M  V30 COUNTS 30 32 0 0 0
M  V30 BEGIN ATOM
M  V30 1 N -5.49655 0.353234 -0.595436 0
M  V30 2 C -4.15795 0.00640521 -0.356677 0
M  V30 3 C -3.15519 0.787148 -0.881294 0
M  V30 4 C -1.82413 0.456575 -0.653404 0
M  V30 5 C -1.51198 -0.649008 0.0951396 0
M  V30 6 C -2.56354 -1.41802 0.611717 0
M  V30 7 C -3.89101 -1.11241 0.400728 0
M  V30 8 C -1.94396 -2.4405 1.30583 0
M  V30 9 N -0.648706 -2.26908 1.19445 0
M  V30 10 N -0.344935 -1.18373 0.461073 0
M  V30 11 C 0.984874 -0.766979 0.181236 0
M  V30 12 O 1.96049 -1.46907 0.665368 0
M  V30 13 C 1.37629 0.389141 -0.608267 0
M  V30 14 N 2.84944 0.463555 -0.640128 0
M  V30 15 N 3.65067 -0.0950709 -1.52808 0
M  V30 16 N 4.90915 0.185071 -1.24055 0
M  V30 17 C 4.96462 0.949316 -0.135213 0
M  V30 18 C 3.64413 1.11257 0.22749 0
M  V30 19 N 6.15414 1.44166 0.467227 0
M  V30 20 H -5.95436 0.0869058 -1.48262 0
M  V30 21 H -6.03447 0.878653 0.116304 0
M  V30 22 H -3.40709 1.66959 -1.47883 0
M  V30 23 H -1.06021 1.07836 -1.07031 0
M  V30 24 H -4.67745 -1.74514 0.826063 0
M  V30 25 H -2.49857 -3.22258 1.83304 0
M  V30 26 H 1.06767 0.328783 -1.67397 0
M  V30 27 H 1.06227 1.3288 -0.105034 0
M  V30 28 H 3.321 1.68277 1.08683 0
M  V30 29 H 6.57128 2.36597 0.289661 0
M  V30 30 H 6.65409 0.807089 1.15569 0
M  V30 END ATOM
M  V30 BEGIN BOND
M  V30 1 1 1 2
M  V30 2 2 2 3
M  V30 3 1 3 4
M  V30 4 2 4 5
M  V30 5 1 5 6
M  V30 6 2 6 7
M  V30 7 1 6 8
M  V30 8 2 8 9
M  V30 9 1 9 10
M  V30 10 1 10 11
M  V30 11 2 11 12
M  V30 12 1 11 13
M  V30 13 1 13 14
M  V30 14 1 14 15
M  V30 15 2 15 16
M  V30 16 1 16 17
M  V30 17 2 17 18
M  V30 18 1 17 19
M  V30 19 1 7 2
M  V30 20 1 18 14
M  V30 21 1 10 5
M  V30 22 1 1 20
M  V30 23 1 1 21
M  V30 24 1 3 22
M  V30 25 1 4 23
M  V30 26 1 7 24
M  V30 27 1 8 25
M  V30 28 1 13 26
M  V30 29 1 13 27
M  V30 30 1 18 28
M  V30 31 1 19 29
M  V30 32 1 19 30
M  V30 END BOND
M  V30 END CTAB
M  END
