
     RDKit          3D

  0  0  0  0  0  0  0  0  0  0999 V3000
M  V30 BEGIN CTAB
M  V30 COUNTS 34 34 0 0 0
M  V30 BEGIN ATOM
M  V30 1 O 0.0843535 -1.91961 1.72124 0
M  V30 2 C 0.864553 -1.50734 0.664658 0
M  V30 3 C 0.161174 -0.459163 -0.217414 0
M  V30 4 C -0.0856257 0.811967 0.503055 0
M  V30 5 C -1.47654 1.04986 0.987842 0
M  V30 6 C -2.52332 0.576272 -0.00482861 0
M  V30 7 C -2.28876 -0.93527 -0.110475 0
M  V30 8 C -1.00396 -1.10041 -0.8772 0
M  V30 9 C -3.87858 0.887338 0.533525 0
M  V30 10 N 1.16629 -0.17158 -1.25737 0
M  V30 11 C 2.461 0.287219 -0.952992 0
M  V30 12 N 2.70093 1.08949 0.0195607 0
M  V30 13 N 3.96394 1.55485 0.339196 0
M  V30 14 N 3.53499 -0.167577 -1.76746 0
M  V30 15 H 0.42898 -2.79986 2.0176 0
M  V30 16 H 1.14059 -2.3573 -0.0134886 0
M  V30 17 H 1.80566 -1.09365 1.09177 0
M  V30 18 H 0.203679 1.69927 -0.129624 0
M  V30 19 H 0.563315 0.811139 1.42846 0
M  V30 20 H -1.61628 2.14362 1.12542 0
M  V30 21 H -1.68424 0.562014 1.97862 0
M  V30 22 H -2.28713 1.0144 -0.972934 0
M  V30 23 H -2.13752 -1.29463 0.919708 0
M  V30 24 H -3.14129 -1.42591 -0.619163 0
M  V30 25 H -0.752801 -2.17142 -1.05044 0
M  V30 26 H -1.16197 -0.575435 -1.86055 0
M  V30 27 H -4.18465 1.88667 0.166471 0
M  V30 28 H -4.65985 0.176037 0.196464 0
M  V30 29 H -3.813 0.880652 1.64783 0
M  V30 30 H 0.848255 -0.331715 -2.24685 0
M  V30 31 H 4.81471 0.942434 0.352318 0
M  V30 32 H 4.10634 2.56294 0.58392 0
M  V30 33 H 3.62383 0.264399 -2.71724 0
M  V30 34 H 4.22294 -0.889712 -1.47962 0
M  V30 END ATOM
M  V30 BEGIN BOND
M  V30 1 1 1 2
M  V30 2 1 2 3
M  V30 3 1 3 4
M  V30 4 1 4 5
M  V30 5 1 5 6
M  V30 6 1 6 7
M  V30 7 1 7 8
M  V30 8 1 6 9
M  V30 9 1 3 10
M  V30 10 1 10 11
M  V30 11 2 11 12 CFG=2
M  V30 12 1 12 13
M  V30 13 1 11 14
M  V30 14 1 8 3
M  V30 15 1 1 15
M  V30 16 1 2 16
M  V30 17 1 2 17
M  V30 18 1 4 18
M  V30 19 1 4 19
M  V30 20 1 5 20
M  V30 21 1 5 21
M  V30 22 1 6 22
M  V30 23 1 7 23
M  V30 24 1 7 24
M  V30 25 1 8 25
M  V30 26 1 8 26
M  V30 27 1 9 27
M  V30 28 1 9 28
M  V30 29 1 9 29
M  V30 30 1 10 30
M  V30 31 1 13 31
M  V30 32 1 13 32
M  V30 33 1 14 33
M  V30 34 1 14 34
M  V30 END BOND
M  V30 END CTAB
M  END
