
     RDKit          3D

  0  0  0  0  0  0  0  0  0  0999 V3000
M  V30 BEGIN CTAB
M  V30 COUNTS 51 52 0 0 0
M  V30 BEGIN ATOM
M  V30 1 C -2.80179 -3.56627 -0.182032 0
M  V30 2 C -2.97904 -2.0962 0.147983 0
M  V30 3 C -4.37774 -1.74034 -0.324523 0
M  V30 4 N -1.95875 -1.25356 -0.318383 0
M  V30 5 C -0.689682 -1.51296 0.218767 0
M  V30 6 C 0.43793 -0.62043 -0.24629 0
M  V30 7 O 0.690746 -0.677216 -1.59782 0
M  V30 8 C 1.69011 -1.11852 0.482253 0
M  V30 9 O 2.78195 -0.422612 0.300262 0
M  V30 10 C 3.78622 0.134909 -0.297758 0
M  V30 11 C 4.09293 0.0618883 -1.66254 0
M  V30 12 C 5.17721 0.681003 -2.21794 0
M  V30 13 C 6.03368 1.42032 -1.43664 0
M  V30 14 C 5.77311 1.52139 -0.083909 0
M  V30 15 N 6.65169 2.2811 0.730675 0
M  V30 16 C 4.68622 0.902714 0.480761 0
M  V30 17 N 4.42741 1.01521 1.87337 0
M  V30 18 C -2.24844 -0.0596803 -0.97647 0
M  V30 19 C -3.01122 0.881247 -0.116908 0
M  V30 20 C -3.99035 1.66786 -0.696009 0
M  V30 21 C -4.70218 2.55913 0.06249 0
M  V30 22 C -4.49795 2.72784 1.41293 0
M  V30 23 C -3.52133 1.93987 1.9793 0
M  V30 24 C -2.79445 1.03744 1.23183 0
M  V30 25 H -3.3487 -3.81219 -1.14182 0
M  V30 26 H -1.77795 -3.91659 -0.207669 0
M  V30 27 H -3.35996 -4.14231 0.591391 0
M  V30 28 H -3.02834 -2.04071 1.27873 0
M  V30 29 H -4.98673 -2.69661 -0.376072 0
M  V30 30 H -4.39217 -1.36259 -1.36258 0
M  V30 31 H -4.88295 -1.11776 0.417941 0
M  V30 32 H -0.723831 -1.4227 1.33332 0
M  V30 33 H -0.3441 -2.57765 0.0688619 0
M  V30 34 H 0.258285 0.4237 0.110481 0
M  V30 35 H 0.907141 0.172912 -2.0235 0
M  V30 36 H 1.72196 -2.21703 0.177058 0
M  V30 37 H 1.35209 -1.21604 1.57083 0
M  V30 38 H 3.40121 -0.539309 -2.2524 0
M  V30 39 H 5.36186 0.585066 -3.29037 0
M  V30 40 H 6.87348 1.89902 -1.87413 0
M  V30 41 H 6.30867 3.18679 1.12197 0
M  V30 42 H 7.62556 1.90649 0.917043 0
M  V30 43 H 3.75786 1.71078 2.25386 0
M  V30 44 H 4.92886 0.378086 2.51699 0
M  V30 45 H -2.84602 -0.179137 -1.91926 0
M  V30 46 H -1.35729 0.525628 -1.3112 0
M  V30 47 H -4.19057 1.57255 -1.75771 0
M  V30 48 H -5.47739 3.18244 -0.39389 0
M  V30 49 H -5.07698 3.44644 2.00083 0
M  V30 50 H -3.31643 2.03192 3.05377 0
M  V30 51 H -2.04383 0.454661 1.73416 0
M  V30 END ATOM
M  V30 BEGIN BOND
M  V30 1 1 1 2
M  V30 2 1 2 3
M  V30 3 1 2 4
M  V30 4 1 4 5
M  V30 5 1 5 6
M  V30 6 1 6 7
M  V30 7 1 6 8
M  V30 8 1 8 9
M  V30 9 1 9 10
M  V30 10 2 10 11
M  V30 11 1 11 12
M  V30 12 2 12 13
M  V30 13 1 13 14
M  V30 14 1 14 15
M  V30 15 2 14 16
M  V30 16 1 16 17
M  V30 17 1 4 18
M  V30 18 1 18 19
M  V30 19 2 19 20
M  V30 20 1 20 21
M  V30 21 2 21 22
M  V30 22 1 22 23
M  V30 23 2 23 24
M  V30 24 1 16 10
M  V30 25 1 24 19
M  V30 26 1 1 25
M  V30 27 1 1 26
M  V30 28 1 1 27
M  V30 29 1 2 28
M  V30 30 1 3 29
M  V30 31 1 3 30
M  V30 32 1 3 31
M  V30 33 1 5 32
M  V30 34 1 5 33
M  V30 35 1 6 34
M  V30 36 1 7 35
M  V30 37 1 8 36
M  V30 38 1 8 37
M  V30 39 1 11 38
M  V30 40 1 12 39
M  V30 41 1 13 40
M  V30 42 1 15 41
M  V30 43 1 15 42
M  V30 44 1 17 43
M  V30 45 1 17 44
M  V30 46 1 18 45
M  V30 47 1 18 46
M  V30 48 1 20 47
M  V30 49 1 21 48
M  V30 50 1 22 49
M  V30 51 1 23 50
M  V30 52 1 24 51
M  V30 END BOND
M  V30 END CTAB
M  END
