
     RDKit          3D

  0  0  0  0  0  0  0  0  0  0999 V3000
M  V30 BEGIN CTAB
M  V30 COUNTS 50 53 0 0 0
M  V30 BEGIN ATOM
M  V30 1 F 6.24498 -2.45516 1.60266 0
M  V30 2 C 6.01322 -1.20685 1.11297 0
M  V30 3 C 4.76365 -0.650133 1.27002 0
M  V30 4 C 4.49526 0.610553 0.786703 0
M  V30 5 C 5.50147 1.29515 0.146913 0
M  V30 6 C 6.75924 0.747561 -0.0169662 0
M  V30 7 C 7.02941 -0.514847 0.466557 0
M  V30 8 F 7.72433 1.46576 -0.65848 0
M  V30 9 C 3.13926 1.21569 0.956845 0
M  V30 10 N 2.31324 0.857231 -0.16851 0
M  V30 11 C 1.46227 -0.316429 -0.276478 0
M  V30 12 C 0.283767 0.22347 -1.05017 0
M  V30 13 C 0.975359 1.02756 -2.1409 0
M  V30 14 C 2.14788 1.5513 -1.3952 0
M  V30 15 O 2.89023 2.47604 -1.78931 0
M  V30 16 C -0.539523 -0.899493 -1.61736 0
M  V30 17 C -1.55683 -1.28434 -0.535796 0
M  V30 18 N -2.47241 -0.187815 -0.424796 0
M  V30 19 C -1.97088 1.13101 -0.807503 0
M  V30 20 C -0.543587 1.1954 -0.248896 0
M  V30 21 C -3.80085 -0.352873 0.031 0
M  V30 22 C -4.26043 -1.58683 0.389348 0
M  V30 23 C -5.55365 -1.77408 0.837335 0
M  V30 24 N -5.99801 -3.06602 1.20065 0
M  V30 25 N -6.36911 -0.683847 0.913712 0
M  V30 26 C -5.89702 0.533793 0.55411 0
M  V30 27 N -4.63286 0.697276 0.119525 0
M  V30 28 N -6.76497 1.64463 0.643688 0
M  V30 29 H 3.99908 -1.24507 1.79006 0
M  V30 30 H 5.34719 2.30562 -0.260282 0
M  V30 31 H 8.01323 -0.934678 0.334485 0
M  V30 32 H 2.69662 0.829188 1.90389 0
M  V30 33 H 3.25255 2.32534 0.978834 0
M  V30 34 H 1.91194 -1.11604 -0.8709 0
M  V30 35 H 1.17187 -0.707536 0.71948 0
M  V30 36 H 0.273295 1.82816 -2.44692 0
M  V30 37 H 1.24313 0.339361 -2.94936 0
M  V30 38 H 0.0878795 -1.79139 -1.79766 0
M  V30 39 H -1.0494 -0.618461 -2.56074 0
M  V30 40 H -0.981519 -1.34898 0.40921 0
M  V30 41 H -1.99745 -2.22872 -0.857586 0
M  V30 42 H -2.59272 1.93982 -0.418997 0
M  V30 43 H -1.90492 1.11902 -1.9201 0
M  V30 44 H -0.607345 0.914395 0.817915 0
M  V30 45 H -0.115448 2.19374 -0.322685 0
M  V30 46 H -3.63065 -2.47612 0.338484 0
M  V30 47 H -6.09563 -3.38063 2.18372 0
M  V30 48 H -6.23991 -3.73694 0.447841 0
M  V30 49 H -7.45402 1.80429 -0.105378 0
M  V30 50 H -6.71122 2.29193 1.45134 0
M  V30 END ATOM
M  V30 BEGIN BOND
M  V30 1 1 1 2
M  V30 2 2 2 3
M  V30 3 1 3 4
M  V30 4 2 4 5
M  V30 5 1 5 6
M  V30 6 2 6 7
M  V30 7 1 6 8
M  V30 8 1 4 9
M  V30 9 1 9 10
M  V30 10 1 10 11
M  V30 11 1 11 12
M  V30 12 1 12 13
M  V30 13 1 13 14
M  V30 14 2 14 15
M  V30 15 1 12 16
M  V30 16 1 16 17
M  V30 17 1 17 18
M  V30 18 1 18 19
M  V30 19 1 19 20
M  V30 20 1 18 21
M  V30 21 2 21 22
M  V30 22 1 22 23
M  V30 23 1 23 24
M  V30 24 2 23 25
M  V30 25 1 25 26
M  V30 26 2 26 27
M  V30 27 1 26 28
M  V30 28 1 7 2
M  V30 29 1 14 10
M  V30 30 1 27 21
M  V30 31 1 20 12
M  V30 32 1 3 29
M  V30 33 1 5 30
M  V30 34 1 7 31
M  V30 35 1 9 32
M  V30 36 1 9 33
M  V30 37 1 11 34
M  V30 38 1 11 35
M  V30 39 1 13 36
M  V30 40 1 13 37
M  V30 41 1 16 38
M  V30 42 1 16 39
M  V30 43 1 17 40
M  V30 44 1 17 41
M  V30 45 1 19 42
M  V30 46 1 19 43
M  V30 47 1 20 44
M  V30 48 1 20 45
M  V30 49 1 22 46
M  V30 50 1 24 47
M  V30 51 1 24 48
M  V30 52 1 28 49
M  V30 53 1 28 50
M  V30 END BOND
M  V30 END CTAB
M  END
