
     RDKit          3D

  0  0  0  0  0  0  0  0  0  0999 V3000
M  V30 BEGIN CTAB
M  V30 COUNTS 28 29 0 0 0
M  V30 BEGIN ATOM
M  V30 1 N 4.03055 1.39037 -0.593614 0
M  V30 2 C 2.59708 1.14787 -0.674525 0
M  V30 3 C 2.27341 0.0379954 0.268668 0
M  V30 4 C 0.837389 -0.310011 0.279093 0
M  V30 5 C 0.439945 -1.46927 0.906611 0
M  V30 6 C -0.896059 -1.77316 0.903156 0
M  V30 7 C -1.81247 -0.922043 0.277716 0
M  V30 8 C -1.40951 0.237661 -0.349307 0
M  V30 9 C -0.0540962 0.534853 -0.339304 0
M  V30 10 O -2.36645 1.03 -0.94564 0
M  V30 11 C -3.71381 1.05186 -0.451017 0
M  V30 12 C -4.1897 -0.309315 -0.0775987 0
M  V30 13 O -3.16095 -1.21623 0.26682 0
M  V30 14 N 3.10399 -1.11248 -0.0753711 0
M  V30 15 H 4.2659 2.24219 -0.0699806 0
M  V30 16 H 4.52923 0.55656 -0.191672 0
M  V30 17 H 2.06951 2.06415 -0.294741 0
M  V30 18 H 2.26432 0.90131 -1.69835 0
M  V30 19 H 2.56367 0.345445 1.30295 0
M  V30 20 H 1.14822 -2.13 1.39173 0
M  V30 21 H -1.22974 -2.67314 1.3869 0
M  V30 22 H 0.216944 1.45625 -0.845132 0
M  V30 23 H -3.67288 1.67103 0.479434 0
M  V30 24 H -4.34115 1.55709 -1.18248 0
M  V30 25 H -4.84268 -0.236256 0.84123 0
M  V30 26 H -4.8713 -0.742347 -0.856543 0
M  V30 27 H 3.64155 -1.46852 0.719401 0
M  V30 28 H 2.57907 -1.86186 -0.539216 0
M  V30 END ATOM
M  V30 BEGIN BOND
M  V30 1 1 1 2
M  V30 2 1 2 3
M  V30 3 1 3 4
M  V30 4 2 4 5
M  V30 5 1 5 6
M  V30 6 2 6 7
M  V30 7 1 7 8
M  V30 8 2 8 9
M  V30 9 1 8 10
M  V30 10 1 10 11
M  V30 11 1 11 12
M  V30 12 1 12 13
M  V30 13 1 3 14
M  V30 14 1 9 4
M  V30 15 1 13 7
M  V30 16 1 1 15
M  V30 17 1 1 16
M  V30 18 1 2 17
M  V30 19 1 2 18
M  V30 20 1 3 19
M  V30 21 1 5 20
M  V30 22 1 6 21
M  V30 23 1 9 22
M  V30 24 1 11 23
M  V30 25 1 11 24
M  V30 26 1 12 25
M  V30 27 1 12 26
M  V30 28 1 14 27
M  V30 29 1 14 28
M  V30 END BOND
M  V30 END CTAB
M  END
