
     RDKit          3D

  0  0  0  0  0  0  0  0  0  0999 V3000
M  V30 BEGIN CTAB
M  V30 COUNTS 27 28 0 0 0
M  V30 BEGIN ATOM
M  V30 1 N -4.69919 1.69384 0.87114 0
M  V30 2 C -3.6267 0.989841 0.274712 0
M  V30 3 C -3.71806 -0.399711 0.18135 0
M  V30 4 C -2.71015 -1.16241 -0.390721 0
M  V30 5 N -2.80157 -2.5743 -0.493087 0
M  V30 6 N -1.63707 -0.474037 -0.849808 0
M  V30 7 C -1.51671 0.860805 -0.776332 0
M  V30 8 N -2.5277 1.57997 -0.207262 0
M  V30 9 S -0.051982 1.66597 -1.40934 0
M  V30 10 C 1.17707 1.76866 -0.0551664 0
M  V30 11 C 1.61411 0.399979 0.281026 0
M  V30 12 O 0.868009 -0.397391 0.817352 0
M  V30 13 C 2.9917 0.019767 -0.0517924 0
M  V30 14 C 3.65918 -1.15886 0.122383 0
M  V30 15 C 4.94478 -1.21139 -0.263821 0
M  V30 16 C 5.48889 -0.0815613 -0.80263 0
M  V30 17 S 4.19853 1.02795 -0.760157 0
M  V30 18 Br 7.2903 0.180186 -1.44555 0
M  V30 19 H -4.4972 2.42618 1.58023 0
M  V30 20 H -5.6887 1.50934 0.631397 0
M  V30 21 H -4.58159 -0.933862 0.552932 0
M  V30 22 H -2.7041 -3.15862 0.359437 0
M  V30 23 H -2.96343 -3.06514 -1.39547 0
M  V30 24 H 0.772617 2.27214 0.834632 0
M  V30 25 H 2.01211 2.38227 -0.466475 0
M  V30 26 H 3.12945 -2.03768 0.571198 0
M  V30 27 H 5.5774 -2.12193 -0.163576 0
M  V30 END ATOM
M  V30 BEGIN BOND
M  V30 1 1 1 2
M  V30 2 2 2 3
M  V30 3 1 3 4
M  V30 4 1 4 5
M  V30 5 2 4 6
M  V30 6 1 6 7
M  V30 7 2 7 8
M  V30 8 1 7 9
M  V30 9 1 9 10
M  V30 10 1 10 11
M  V30 11 2 11 12
M  V30 12 1 11 13
M  V30 13 2 13 14
M  V30 14 1 14 15
M  V30 15 2 15 16
M  V30 16 1 16 17
M  V30 17 1 16 18
M  V30 18 1 8 2
M  V30 19 1 17 13
M  V30 20 1 1 19
M  V30 21 1 1 20
M  V30 22 1 3 21
M  V30 23 1 5 22
M  V30 24 1 5 23
M  V30 25 1 10 24
M  V30 26 1 10 25
M  V30 27 1 14 26
M  V30 28 1 15 27
M  V30 END BOND
M  V30 END CTAB
M  END
