
     RDKit          3D

  0  0  0  0  0  0  0  0  0  0999 V3000
M  V30 BEGIN CTAB
M  V30 COUNTS 51 53 0 0 0
M  V30 BEGIN ATOM
M  V30 1 N -5.16813 -0.554088 2.14776 0
M  V30 2 C -3.74369 -0.502732 1.77263 0
M  V30 3 C -3.44716 0.917095 1.45181 0
M  V30 4 C -2.43764 1.13356 0.380887 0
M  V30 5 C -3.07204 1.60285 -0.875085 0
M  V30 6 C -3.11259 0.639958 -2.00464 0
M  V30 7 C -3.22979 -0.782315 -1.60221 0
M  V30 8 C -2.49809 -1.1623 -0.339662 0
M  V30 9 C -3.53406 -1.51993 0.723644 0
M  V30 10 C -1.61715 -0.135983 0.244337 0
M  V30 11 N -0.33754 0.105827 -0.324584 0
M  V30 12 C 0.813484 -0.268212 0.40733 0
M  V30 13 O 0.658649 -0.855776 1.56028 0
M  V30 14 C 2.19807 -0.089259 0.0496306 0
M  V30 15 C 3.05035 -1.17964 -0.119719 0
M  V30 16 C 4.37729 -1.01209 -0.479762 0
M  V30 17 C 4.85866 0.254266 -0.67371 0
M  V30 18 C 4.03578 1.36974 -0.513873 0
M  V30 19 C 2.71336 1.15612 -0.152257 0
M  V30 20 C 1.88079 2.36887 0.0361529 0
M  V30 21 N 4.61323 2.63505 -0.714583 0 CHG=1
M  V30 22 O 5.86211 2.73998 -0.493048 0
M  V30 23 O 4.00583 3.77558 -1.12031 0 CHG=-1
M  V30 24 S 5.42442 -2.38847 -0.720637 0
M  V30 25 O 6.66956 -1.91501 -1.43926 0
M  V30 26 O 4.77986 -3.4757 -1.51838 0
M  V30 27 N 5.91215 -2.93715 0.853988 0
M  V30 28 H -5.40788 0.370379 2.60387 0
M  V30 29 H -5.39307 -1.35497 2.74829 0
M  V30 30 H -3.21216 -0.802003 2.72437 0
M  V30 31 H -4.36085 1.51319 1.25675 0
M  V30 32 H -3.02177 1.40803 2.38826 0
M  V30 33 H -1.67304 1.91211 0.679877 0
M  V30 34 H -4.12717 1.94378 -0.656036 0
M  V30 35 H -2.58903 2.54919 -1.26725 0
M  V30 36 H -2.2696 0.83939 -2.70582 0
M  V30 37 H -4.03179 0.886699 -2.62454 0
M  V30 38 H -4.33183 -1.00053 -1.45587 0
M  V30 39 H -2.97288 -1.44541 -2.47176 0
M  V30 40 H -1.89839 -2.06572 -0.581912 0
M  V30 41 H -4.46484 -1.79928 0.184372 0
M  V30 42 H -3.17568 -2.44977 1.20826 0
M  V30 43 H -1.47288 -0.465169 1.33912 0
M  V30 44 H -0.212117 0.535491 -1.26 0
M  V30 45 H 2.63872 -2.14133 0.0428803 0
M  V30 46 H 5.91688 0.406836 -0.95757 0
M  V30 47 H 0.83724 2.17198 0.332007 0
M  V30 48 H 2.3673 3.10674 0.723477 0
M  V30 49 H 1.78451 2.86236 -0.984573 0
M  V30 50 H 6.39261 -3.86548 0.776628 0
M  V30 51 H 5.02201 -3.03678 1.42046 0
M  V30 END ATOM
M  V30 BEGIN BOND
M  V30 1 1 1 2
M  V30 2 1 2 3
M  V30 3 1 3 4
M  V30 4 1 4 5
M  V30 5 1 5 6
M  V30 6 1 6 7
M  V30 7 1 7 8
M  V30 8 1 8 9
M  V30 9 1 8 10
M  V30 10 1 10 11
M  V30 11 1 11 12
M  V30 12 2 12 13
M  V30 13 1 12 14
M  V30 14 2 14 15
M  V30 15 1 15 16
M  V30 16 2 16 17
M  V30 17 1 17 18
M  V30 18 2 18 19
M  V30 19 1 19 20
M  V30 20 1 18 21
M  V30 21 2 21 22
M  V30 22 1 21 23
M  V30 23 1 16 24
M  V30 24 2 24 25
M  V30 25 2 24 26
M  V30 26 1 24 27
M  V30 27 1 9 2
M  V30 28 1 19 14
M  V30 29 1 10 4
M  V30 30 1 1 28
M  V30 31 1 1 29
M  V30 32 1 2 30
M  V30 33 1 3 31
M  V30 34 1 3 32
M  V30 35 1 4 33
M  V30 36 1 5 34
M  V30 37 1 5 35
M  V30 38 1 6 36
M  V30 39 1 6 37
M  V30 40 1 7 38
M  V30 41 1 7 39
M  V30 42 1 8 40
M  V30 43 1 9 41
M  V30 44 1 9 42
M  V30 45 1 10 43
M  V30 46 1 11 44
M  V30 47 1 15 45
M  V30 48 1 17 46
M  V30 49 1 20 47
M  V30 50 1 20 48
M  V30 51 1 20 49
M  V30 52 1 27 50
M  V30 53 1 27 51
M  V30 END BOND
M  V30 END CTAB
M  END
