
     RDKit          3D

  0  0  0  0  0  0  0  0  0  0999 V3000
M  V30 BEGIN CTAB
M  V30 COUNTS 39 41 0 0 0
M  V30 BEGIN ATOM
M  V30 1 C 7.50188 -0.212567 -0.0663743 0
M  V30 2 N 6.07808 0.149025 -0.0981272 0
M  V30 3 C 5.13573 -0.872906 0.00184086 0
M  V30 4 O 5.54955 -2.0807 0.116833 0
M  V30 5 C 3.68163 -0.668202 -0.0147836 0
M  V30 6 C 3.21846 0.549175 -0.130552 0
M  V30 7 C 1.80965 0.871388 -0.15829 0
M  V30 8 C 0.769751 -0.0215459 -0.0575889 0
M  V30 9 S 0.704296 -1.70771 0.149896 0
M  V30 10 C -0.972783 -1.93556 0.185268 0
M  V30 11 C -1.46226 -0.653704 0.0291988 0
M  V30 12 C -0.557799 0.331455 -0.0940425 0
M  V30 13 C -0.783004 1.71088 -0.243858 0
M  V30 14 N -2.07116 2.30501 -0.274883 0
M  V30 15 N 0.232962 2.56698 -0.340565 0
M  V30 16 C 1.52199 2.25021 -0.309256 0
M  V30 17 C -2.93608 -0.540035 -0.0403139 0
M  V30 18 C -3.72653 -0.826665 1.03608 0
M  V30 19 C -5.12477 -0.781909 0.972012 0
M  V30 20 N -5.90897 -1.08567 2.10909 0
M  V30 21 C -5.67905 -0.431652 -0.239416 0
M  V30 22 C -4.88115 -0.143615 -1.32156 0
M  V30 23 C -3.51244 -0.197867 -1.22182 0
M  V30 24 H 7.83715 -0.640888 -1.02184 0
M  V30 25 H 8.14243 0.643041 0.17307 0
M  V30 26 H 7.581 -1.02134 0.715137 0
M  V30 27 H 5.88633 1.17019 -0.195701 0
M  V30 28 H 3.07319 -1.53816 0.0681847 0
M  V30 29 H 3.96495 1.37462 -0.210519 0
M  V30 30 H -1.52078 -2.886 0.305196 0
M  V30 31 H -2.3838 2.77568 -1.14965 0
M  V30 32 H -2.72245 2.29481 0.534469 0
M  V30 33 H 2.31863 2.97549 -0.391334 0
M  V30 34 H -3.31192 -1.10712 2.00778 0
M  V30 35 H -5.69547 -0.634864 3.01044 0
M  V30 36 H -6.68699 -1.7561 2.02314 0
M  V30 37 H -6.77195 -0.389164 -0.316086 0
M  V30 38 H -5.38165 0.130458 -2.26493 0
M  V30 39 H -2.91666 0.0355504 -2.105 0
M  V30 END ATOM
M  V30 BEGIN BOND
M  V30 1 1 1 2
M  V30 2 1 2 3
M  V30 3 2 3 4
M  V30 4 1 3 5
M  V30 5 2 5 6
M  V30 6 1 6 7
M  V30 7 2 7 8
M  V30 8 1 8 9
M  V30 9 1 9 10
M  V30 10 2 10 11
M  V30 11 1 11 12
M  V30 12 2 12 13
M  V30 13 1 13 14
M  V30 14 1 13 15
M  V30 15 2 15 16
M  V30 16 1 11 17
M  V30 17 2 17 18
M  V30 18 1 18 19
M  V30 19 1 19 20
M  V30 20 2 19 21
M  V30 21 1 21 22
M  V30 22 2 22 23
M  V30 23 1 16 7
M  V30 24 1 23 17
M  V30 25 1 12 8
M  V30 26 1 1 24
M  V30 27 1 1 25
M  V30 28 1 1 26
M  V30 29 1 2 27
M  V30 30 1 5 28
M  V30 31 1 6 29
M  V30 32 1 10 30
M  V30 33 1 14 31
M  V30 34 1 14 32
M  V30 35 1 16 33
M  V30 36 1 18 34
M  V30 37 1 20 35
M  V30 38 1 20 36
M  V30 39 1 21 37
M  V30 40 1 22 38
M  V30 41 1 23 39
M  V30 END BOND
M  V30 END CTAB
M  END
