
     RDKit          3D

  0  0  0  0  0  0  0  0  0  0999 V3000
M  V30 BEGIN CTAB
M  V30 COUNTS 43 42 0 0 0
M  V30 BEGIN ATOM
M  V30 1 N -1.11378 0.117793 -2.34086 0
M  V30 2 C -1.37149 1.07858 -1.28664 0
M  V30 3 C -1.35481 0.438937 0.0790033 0
M  V30 4 N -0.0348164 -0.139682 0.25579 0
M  V30 5 C 1.18461 0.583849 0.241993 0
M  V30 6 O 1.25949 1.82189 0.0743077 0
M  V30 7 C 2.4599 -0.14929 0.4358 0
M  V30 8 C 3.59187 0.833778 0.379405 0
M  V30 9 C 4.94018 0.185061 0.566639 0
M  V30 10 N 5.07876 -0.486266 1.81666 0
M  V30 11 C 5.22598 -0.784336 -0.553072 0
M  V30 12 C -2.35224 -0.666381 0.213427 0
M  V30 13 C -3.76937 -0.400362 0.0205219 0
M  V30 14 C -4.46094 0.580428 0.895782 0
M  V30 15 C -4.50124 -1.74263 0.221841 0
M  V30 16 C -1.53905 1.42752 1.19095 0
M  V30 17 H -0.485257 -0.628164 -1.93196 0
M  V30 18 H -1.99789 -0.320574 -2.62998 0
M  V30 19 H -2.36532 1.59628 -1.45457 0
M  V30 20 H -0.630137 1.88054 -1.42355 0
M  V30 21 H 0.0430062 -1.18252 0.40792 0
M  V30 22 H 2.52618 -0.870229 -0.431195 0
M  V30 23 H 2.45886 -0.75183 1.36634 0
M  V30 24 H 3.39039 1.62661 1.10918 0
M  V30 25 H 3.56534 1.29471 -0.641072 0
M  V30 26 H 5.69872 1.0023 0.478817 0
M  V30 27 H 5.32943 -1.47945 1.76031 0
M  V30 28 H 4.39965 -0.227272 2.53704 0
M  V30 29 H 6.21695 -1.25732 -0.325209 0
M  V30 30 H 4.46431 -1.58999 -0.597682 0
M  V30 31 H 5.32995 -0.250487 -1.52087 0
M  V30 32 H -2.04138 -1.46827 -0.51124 0
M  V30 33 H -2.18916 -1.1304 1.21751 0
M  V30 34 H -4.05539 -0.121946 -1.03941 0
M  V30 35 H -5.56927 0.459656 0.684619 0
M  V30 36 H -4.2582 1.63297 0.698966 0
M  V30 37 H -4.3971 0.308058 1.98928 0
M  V30 38 H -3.86142 -2.57706 -0.0861266 0
M  V30 39 H -5.44969 -1.77092 -0.314604 0
M  V30 40 H -4.72105 -1.88418 1.31188 0
M  V30 41 H -2.08355 0.914038 2.0394 0
M  V30 42 H -1.99522 2.37456 0.896099 0
M  V30 43 H -0.565813 1.722 1.68853 0
M  V30 END ATOM
M  V30 BEGIN BOND
M  V30 1 1 1 2
M  V30 2 1 2 3
M  V30 3 1 3 4
M  V30 4 1 4 5
M  V30 5 2 5 6
M  V30 6 1 5 7
M  V30 7 1 7 8
M  V30 8 1 8 9
M  V30 9 1 9 10
M  V30 10 1 9 11
M  V30 11 1 3 12
M  V30 12 1 12 13
M  V30 13 1 13 14
M  V30 14 1 13 15
M  V30 15 1 3 16
M  V30 16 1 1 17
M  V30 17 1 1 18
M  V30 18 1 2 19
M  V30 19 1 2 20
M  V30 20 1 4 21
M  V30 21 1 7 22
M  V30 22 1 7 23
M  V30 23 1 8 24
M  V30 24 1 8 25
M  V30 25 1 9 26
M  V30 26 1 10 27
M  V30 27 1 10 28
M  V30 28 1 11 29
M  V30 29 1 11 30
M  V30 30 1 11 31
M  V30 31 1 12 32
M  V30 32 1 12 33
M  V30 33 1 13 34
M  V30 34 1 14 35
M  V30 35 1 14 36
M  V30 36 1 14 37
M  V30 37 1 15 38
M  V30 38 1 15 39
M  V30 39 1 15 40
M  V30 40 1 16 41
M  V30 41 1 16 42
M  V30 42 1 16 43
M  V30 END BOND
M  V30 END CTAB
M  END
