
     RDKit          3D

  0  0  0  0  0  0  0  0  0  0999 V3000
M  V30 BEGIN CTAB
M  V30 COUNTS 54 58 0 0 0
M  V30 BEGIN ATOM
M  V30 1 N 2.22142 2.62165 1.50511 0
M  V30 2 C 1.79114 1.3966 0.862375 0 CFG=2
M  V30 3 C 1.89131 0.191441 1.71836 0
M  V30 4 O 1.45581 -0.941067 1.11381 0
M  V30 5 C 0.368927 -1.49928 0.582203 0
M  V30 6 C 0.554692 -2.79968 0.0486455 0
M  V30 7 N -0.475514 -3.41715 -0.49262 0
M  V30 8 C -1.67732 -2.83068 -0.539614 0
M  V30 9 C -1.91586 -1.5724 -0.0386205 0
M  V30 10 C -0.873484 -0.898621 0.531337 0
M  V30 11 C -3.28534 -1.01322 -0.130132 0
M  V30 12 C -4.38498 -1.86932 -0.052575 0
M  V30 13 C -5.68611 -1.43012 -0.138762 0
M  V30 14 C -5.92715 -0.0903403 -0.309682 0
M  V30 15 C -7.24558 0.340377 -0.398032 0
M  V30 16 N -8.29337 -0.60448 -0.304656 0
M  V30 17 N -7.43966 1.66511 -0.568005 0
M  V30 18 C -6.4397 2.56055 -0.6536 0
M  V30 19 C -5.1369 2.11576 -0.563892 0
M  V30 20 C -4.8482 0.770049 -0.388656 0
M  V30 21 C -3.53329 0.325721 -0.300774 0
M  V30 22 C 2.43751 1.23208 -0.472545 0
M  V30 23 C 3.90417 1.20638 -0.514814 0
M  V30 24 C 4.70157 2.37828 -0.62237 0
M  V30 25 N 5.9966 2.0517 -0.575361 0
M  V30 26 C 6.11984 0.73858 -0.444986 0
M  V30 27 C 7.20598 -0.105855 -0.36897 0
M  V30 28 C 7.08435 -1.46245 -0.258679 0
M  V30 29 C 5.81119 -2.00204 -0.222508 0
M  V30 30 C 4.73138 -1.16544 -0.29676 0
M  V30 31 C 4.83836 0.204012 -0.407082 0
M  V30 32 H 2.45127 3.29536 0.786612 0
M  V30 33 H 1.4459 2.9378 2.09625 0
M  V30 34 H 0.678391 1.52783 0.637672 0
M  V30 35 H 1.37911 0.375534 2.72572 0
M  V30 36 H 3.00148 0.0358101 1.95903 0
M  V30 37 H 1.53147 -3.2718 0.0899999 0
M  V30 38 H -2.49222 -3.36947 -0.989997 0
M  V30 39 H -1.05153 0.0924114 0.94328 0
M  V30 40 H -4.16572 -2.91813 0.0814878 0
M  V30 41 H -6.53754 -2.10831 -0.0769098 0
M  V30 42 H -8.5531 -1.09486 -1.20251 0
M  V30 43 H -8.81088 -0.852735 0.541406 0
M  V30 44 H -6.66085 3.63261 -0.794131 0
M  V30 45 H -4.2987 2.8074 -0.628464 0
M  V30 46 H -2.74225 1.04187 -0.369021 0
M  V30 47 H 2.11375 0.197512 -0.827353 0
M  V30 48 H 2.00407 1.91183 -1.24574 0
M  V30 49 H 4.32229 3.38043 -0.725995 0
M  V30 50 H 6.81197 2.72641 -0.631089 0
M  V30 51 H 8.2056 0.325659 -0.39881 0
M  V30 52 H 7.96281 -2.10384 -0.200954 0
M  V30 53 H 5.7065 -3.07543 -0.135595 0
M  V30 54 H 3.74636 -1.59005 -0.286161 0
M  V30 END ATOM
M  V30 BEGIN BOND
M  V30 1 1 1 2
M  V30 2 1 2 3
M  V30 3 1 3 4
M  V30 4 1 4 5
M  V30 5 2 5 6
M  V30 6 1 6 7
M  V30 7 2 7 8
M  V30 8 1 8 9
M  V30 9 2 9 10
M  V30 10 1 9 11
M  V30 11 2 11 12
M  V30 12 1 12 13
M  V30 13 2 13 14
M  V30 14 1 14 15
M  V30 15 1 15 16
M  V30 16 2 15 17
M  V30 17 1 17 18
M  V30 18 2 18 19
M  V30 19 1 19 20
M  V30 20 2 20 21
M  V30 21 1 2 22
M  V30 22 1 22 23
M  V30 23 2 23 24
M  V30 24 1 24 25
M  V30 25 1 25 26
M  V30 26 2 26 27
M  V30 27 1 27 28
M  V30 28 2 28 29
M  V30 29 1 29 30
M  V30 30 2 30 31
M  V30 31 1 10 5
M  V30 32 1 21 11
M  V30 33 1 31 23
M  V30 34 1 20 14
M  V30 35 1 31 26
M  V30 36 1 1 32
M  V30 37 1 1 33
M  V30 38 1 2 34 CFG=3
M  V30 39 1 3 35
M  V30 40 1 3 36
M  V30 41 1 6 37
M  V30 42 1 8 38
M  V30 43 1 10 39
M  V30 44 1 12 40
M  V30 45 1 13 41
M  V30 46 1 16 42
M  V30 47 1 16 43
M  V30 48 1 18 44
M  V30 49 1 19 45
M  V30 50 1 21 46
M  V30 51 1 22 47
M  V30 52 1 22 48
M  V30 53 1 24 49
M  V30 54 1 25 50
M  V30 55 1 27 51
M  V30 56 1 28 52
M  V30 57 1 29 53
M  V30 58 1 30 54
M  V30 END BOND
M  V30 END CTAB
M  END
