
     RDKit          3D

  0  0  0  0  0  0  0  0  0  0999 V3000
M  V30 BEGIN CTAB
M  V30 COUNTS 50 53 0 0 0
M  V30 BEGIN ATOM
M  V30 1 C 4.42429 -2.87507 -0.688783 0
M  V30 2 C 4.89409 -1.50074 -1.07681 0
M  V30 3 O 4.30047 -0.541395 -0.28285 0
M  V30 4 C 2.95981 -0.277774 -0.186068 0
M  V30 5 C 1.97466 -0.92962 -0.887883 0
M  V30 6 C 0.652077 -0.603113 -0.729342 0
M  V30 7 C 0.245549 0.380323 0.127853 0
M  V30 8 C 1.22948 1.03464 0.831306 0
M  V30 9 C 2.55938 0.734869 0.698244 0
M  V30 10 O 3.54262 1.40047 1.41194 0
M  V30 11 C 3.20449 2.42528 2.31402 0
M  V30 12 C -1.1682 0.773165 0.345762 0
M  V30 13 C -1.62884 1.75423 -0.662789 0
M  V30 14 C -0.873011 2.91528 -0.891552 0
M  V30 15 C -1.2384 3.86197 -1.81079 0
M  V30 16 C -2.38008 3.69493 -2.54873 0
M  V30 17 C -3.11559 2.56637 -2.32669 0
M  V30 18 C -2.75629 1.58725 -1.38974 0
M  V30 19 O -3.58615 0.465443 -1.24127 0
M  V30 20 C -3.20106 -0.480111 -0.30647 0
M  V30 21 C -2.069 -0.354921 0.452518 0
M  V30 22 C -1.78334 -1.3794 1.36821 0
M  V30 23 N -0.624573 -1.31937 2.19203 0
M  V30 24 C -2.63305 -2.45765 1.47326 0
M  V30 25 C -3.7702 -2.55634 0.692108 0
M  V30 26 N -4.02682 -1.56489 -0.179156 0
M  V30 27 N -4.63272 -3.68227 0.820187 0
M  V30 28 C -2.29787 -3.48646 2.42889 0
M  V30 29 N -2.0233 -4.31373 3.20533 0
M  V30 30 O -2.72352 4.67173 -3.47232 0
M  V30 31 H 3.64176 -2.77178 0.106043 0
M  V30 32 H 4.00664 -3.39241 -1.56505 0
M  V30 33 H 5.26946 -3.46982 -0.259631 0
M  V30 34 H 4.65527 -1.34412 -2.16175 0
M  V30 35 H 6.01457 -1.41509 -0.991351 0
M  V30 36 H 2.27302 -1.72499 -1.59517 0
M  V30 37 H -0.104207 -1.13142 -1.29329 0
M  V30 38 H 0.952146 1.83333 1.53288 0
M  V30 39 H 4.15463 2.82616 2.76402 0
M  V30 40 H 2.71517 3.2931 1.83927 0
M  V30 41 H 2.61211 2.03222 3.17008 0
M  V30 42 H -1.19974 1.32914 1.33676 0
M  V30 43 H 0.0214344 3.08076 -0.334317 0
M  V30 44 H -0.623714 4.76811 -1.97091 0
M  V30 45 H -4.02271 2.39532 -2.88679 0
M  V30 46 H 0.103471 -2.05311 2.03906 0
M  V30 47 H -0.473028 -0.607245 2.91195 0
M  V30 48 H -5.42635 -3.69703 1.49676 0
M  V30 49 H -4.47648 -4.51146 0.23174 0
M  V30 50 H -3.54835 4.61726 -4.0507 0
M  V30 END ATOM
M  V30 BEGIN BOND
M  V30 1 1 1 2
M  V30 2 1 2 3
M  V30 3 1 3 4
M  V30 4 2 4 5
M  V30 5 1 5 6
M  V30 6 2 6 7
M  V30 7 1 7 8
M  V30 8 2 8 9
M  V30 9 1 9 10
M  V30 10 1 10 11
M  V30 11 1 7 12
M  V30 12 1 12 13
M  V30 13 2 13 14
M  V30 14 1 14 15
M  V30 15 2 15 16
M  V30 16 1 16 17
M  V30 17 2 17 18
M  V30 18 1 18 19
M  V30 19 1 19 20
M  V30 20 2 20 21
M  V30 21 1 21 22
M  V30 22 1 22 23
M  V30 23 2 22 24
M  V30 24 1 24 25
M  V30 25 2 25 26
M  V30 26 1 25 27
M  V30 27 1 24 28
M  V30 28 3 28 29
M  V30 29 1 16 30
M  V30 30 1 9 4
M  V30 31 1 21 12
M  V30 32 1 18 13
M  V30 33 1 26 20
M  V30 34 1 1 31
M  V30 35 1 1 32
M  V30 36 1 1 33
M  V30 37 1 2 34
M  V30 38 1 2 35
M  V30 39 1 5 36
M  V30 40 1 6 37
M  V30 41 1 8 38
M  V30 42 1 11 39
M  V30 43 1 11 40
M  V30 44 1 11 41
M  V30 45 1 12 42
M  V30 46 1 14 43
M  V30 47 1 15 44
M  V30 48 1 17 45
M  V30 49 1 23 46
M  V30 50 1 23 47
M  V30 51 1 27 48
M  V30 52 1 27 49
M  V30 53 1 30 50
M  V30 END BOND
M  V30 END CTAB
M  END
