
     RDKit          3D

  0  0  0  0  0  0  0  0  0  0999 V3000
M  V30 BEGIN CTAB
M  V30 COUNTS 34 34 0 0 0
M  V30 BEGIN ATOM
M  V30 1 N -2.25116 0.690888 1.15866 0
M  V30 2 C -2.33804 0.0359308 -0.131446 0
M  V30 3 C -0.986693 0.0103862 -0.857618 0
M  V30 4 C -0.588746 1.44205 -1.03377 0
M  V30 5 C 0.30853 1.98455 0.0135503 0
M  V30 6 C 1.5209 1.09471 0.0515349 0
M  V30 7 C 1.20243 -0.33646 0.37454 0
M  V30 8 C -0.000531291 -0.895875 -0.286315 0
M  V30 9 C 0.524718 -1.83745 -1.39753 0
M  V30 10 C -0.635945 -1.90783 0.682688 0
M  V30 11 C 1.18102 -0.437243 1.89699 0
M  V30 12 N 2.19381 1.21588 -1.22449 0
M  V30 13 H -2.61167 1.66846 1.14486 0
M  V30 14 H -2.71963 0.14556 1.91484 0
M  V30 15 H -2.79203 -0.942417 -0.040227 0
M  V30 16 H -3.06727 0.660222 -0.728546 0
M  V30 17 H -1.27731 -0.329762 -1.90143 0
M  V30 18 H -0.0765535 1.57519 -2.02706 0
M  V30 19 H -1.49944 2.09226 -1.09374 0
M  V30 20 H 0.678218 2.98551 -0.358532 0
M  V30 21 H -0.1338 2.17281 0.987506 0
M  V30 22 H 2.20692 1.52029 0.813243 0
M  V30 23 H 2.15608 -0.889549 0.103586 0
M  V30 24 H 1.39317 -2.39089 -1.03933 0
M  V30 25 H 0.765996 -1.14843 -2.24353 0
M  V30 26 H -0.300477 -2.50577 -1.6382 0
M  V30 27 H -0.910932 -1.47076 1.63421 0
M  V30 28 H 0.120837 -2.716 0.912413 0
M  V30 29 H -1.4559 -2.46251 0.163681 0
M  V30 30 H 2.2274 -0.173621 2.23676 0
M  V30 31 H 1.03346 -1.47676 2.24641 0
M  V30 32 H 0.514786 0.292125 2.36571 0
M  V30 33 H 2.72091 0.347152 -1.4657 0
M  V30 34 H 2.89691 1.98735 -1.23373 0
M  V30 END ATOM
M  V30 BEGIN BOND
M  V30 1 1 1 2
M  V30 2 1 2 3
M  V30 3 1 3 4
M  V30 4 1 4 5
M  V30 5 1 5 6
M  V30 6 1 6 7
M  V30 7 1 7 8
M  V30 8 1 8 9
M  V30 9 1 8 10
M  V30 10 1 7 11
M  V30 11 1 6 12
M  V30 12 1 8 3
M  V30 13 1 1 13
M  V30 14 1 1 14
M  V30 15 1 2 15
M  V30 16 1 2 16
M  V30 17 1 3 17
M  V30 18 1 4 18
M  V30 19 1 4 19
M  V30 20 1 5 20
M  V30 21 1 5 21
M  V30 22 1 6 22
M  V30 23 1 7 23
M  V30 24 1 9 24
M  V30 25 1 9 25
M  V30 26 1 9 26
M  V30 27 1 10 27
M  V30 28 1 10 28
M  V30 29 1 10 29
M  V30 30 1 11 30
M  V30 31 1 11 31
M  V30 32 1 11 32
M  V30 33 1 12 33
M  V30 34 1 12 34
M  V30 END BOND
M  V30 END CTAB
M  END
