
     RDKit          3D

  0  0  0  0  0  0  0  0  0  0999 V3000
M  V30 BEGIN CTAB
M  V30 COUNTS 26 26 0 0 0
M  V30 BEGIN ATOM
M  V30 1 C 3.63573 1.23173 0.233984 0
M  V30 2 C 3.19265 0.19965 0.937419 0
M  V30 3 C 1.88131 -0.39713 0.57142 0
M  V30 4 N 0.877534 0.622754 0.545483 0
M  V30 5 C -0.509733 0.367938 0.278265 0
M  V30 6 C -0.967048 -0.907064 0.0408778 0
M  V30 7 C -2.31526 -1.09897 -0.215796 0
M  V30 8 N -2.87931 -2.36189 -0.470253 0
M  V30 9 N -3.12069 -0.0248645 -0.221301 0
M  V30 10 C -2.69975 1.22905 0.0073191 0
M  V30 11 N -1.38337 1.38763 0.254279 0
M  V30 12 N -3.61143 2.31889 -0.0145083 0
M  V30 13 C 2.01212 -0.916171 -0.86673 0
M  V30 14 H 3.07855 1.64674 -0.587407 0
M  V30 15 H 4.59025 1.65527 0.51119 0
M  V30 16 H 3.75486 -0.20572 1.75287 0
M  V30 17 H 1.61378 -1.18282 1.27518 0
M  V30 18 H 1.18746 1.61713 0.735272 0
M  V30 19 H -0.321507 -1.77517 0.0473894 0
M  V30 20 H -2.29722 -3.11869 -0.841789 0
M  V30 21 H -3.88302 -2.55141 -0.28963 0
M  V30 22 H -3.31466 3.29233 -0.237345 0
M  V30 23 H -4.62171 2.17476 0.19534 0
M  V30 24 H 1.9266 -2.01079 -0.822496 0
M  V30 25 H 2.98716 -0.639688 -1.30983 0
M  V30 26 H 1.18671 -0.553499 -1.5092 0
M  V30 END ATOM
M  V30 BEGIN BOND
M  V30 1 2 1 2 CFG=2
M  V30 2 1 2 3
M  V30 3 1 3 4
M  V30 4 1 4 5
M  V30 5 2 5 6
M  V30 6 1 6 7
M  V30 7 1 7 8
M  V30 8 2 7 9
M  V30 9 1 9 10
M  V30 10 2 10 11
M  V30 11 1 10 12
M  V30 12 1 3 13
M  V30 13 1 11 5
M  V30 14 1 1 14
M  V30 15 1 1 15
M  V30 16 1 2 16
M  V30 17 1 3 17
M  V30 18 1 4 18
M  V30 19 1 6 19
M  V30 20 1 8 20
M  V30 21 1 8 21
M  V30 22 1 12 22
M  V30 23 1 12 23
M  V30 24 1 13 24
M  V30 25 1 13 25
M  V30 26 1 13 26
M  V30 END BOND
M  V30 END CTAB
M  END
