
     RDKit          3D

  0  0  0  0  0  0  0  0  0  0999 V3000
M  V30 BEGIN CTAB
M  V30 COUNTS 49 52 0 0 0
M  V30 BEGIN ATOM
M  V30 1 N 7.71294 2.29415 -0.646197 0
M  V30 2 C 7.63456 0.958821 -0.154545 0
M  V30 3 C 8.78461 0.273379 0.191368 0
M  V30 4 C 8.70466 -1.02347 0.668568 0
M  V30 5 C 7.47502 -1.65736 0.80827 0
M  V30 6 C 6.31843 -0.975518 0.463182 0
M  V30 7 C 6.42753 0.306453 -0.00618152 0
M  V30 8 O 5.12678 -1.62941 0.613325 0
M  V30 9 C 3.88256 -1.12278 0.326484 0
M  V30 10 C 3.17151 -0.454241 1.29426 0
M  V30 11 F 3.69404 -0.29028 2.53674 0
M  V30 12 C 1.90018 0.0852054 1.06904 0
M  V30 13 F 1.25294 0.724175 2.07633 0
M  V30 14 C 1.28247 -0.0244983 -0.150074 0
M  V30 15 C 2.02199 -0.709431 -1.13081 0
M  V30 16 C 3.26976 -1.23628 -0.898735 0
M  V30 17 F 3.93025 -1.88759 -1.8877 0
M  V30 18 F 1.50811 -0.830451 -2.40122 0
M  V30 19 O 0.0584626 0.457077 -0.499841 0
M  V30 20 C -1.19808 0.171126 -0.121759 0
M  V30 21 C -1.90944 1.10772 0.595116 0
M  V30 22 F -1.36229 2.3519 0.888307 0
M  V30 23 C -3.19409 0.842599 1.0025 0
M  V30 24 F -3.8211 1.80881 1.73383 0
M  V30 25 C -3.86258 -0.343248 0.736494 0
M  V30 26 C -3.13785 -1.27205 0.0174243 0
M  V30 27 C -1.81903 -1.00808 -0.403231 0
M  V30 28 F -1.25267 -2.02922 -1.08731 0
M  V30 29 F -3.71278 -2.45399 -0.268012 0
M  V30 30 O -5.16328 -0.543196 1.17616 0
M  V30 31 C -6.29125 -0.307519 0.417551 0
M  V30 32 C -6.90649 -1.37038 -0.255244 0
M  V30 33 C -8.02858 -1.17105 -1.02045 0
M  V30 34 C -8.58771 0.0737805 -1.15333 0
M  V30 35 C -7.99097 1.1215 -0.495963 0
M  V30 36 C -6.85532 0.952317 0.285289 0
M  V30 37 N -8.53375 2.44409 -0.599675 0
M  V30 38 H 8.48806 2.58305 -1.29336 0
M  V30 39 H 6.98426 2.97676 -0.34919 0
M  V30 40 H 9.763 0.748127 0.0912562 0
M  V30 41 H 9.60862 -1.56654 0.942058 0
M  V30 42 H 7.45095 -2.68405 1.18914 0
M  V30 43 H 5.5315 0.831833 -0.272456 0
M  V30 44 H -6.5074 -2.37517 -0.164812 0
M  V30 45 H -8.46933 -2.03615 -1.52559 0
M  V30 46 H -9.47413 0.240907 -1.75589 0
M  V30 47 H -6.44833 1.8116 0.773842 0
M  V30 48 H -8.89357 2.91182 0.250735 0
M  V30 49 H -8.56314 2.92474 -1.52454 0
M  V30 END ATOM
M  V30 BEGIN BOND
M  V30 1 1 1 2
M  V30 2 2 2 3
M  V30 3 1 3 4
M  V30 4 2 4 5
M  V30 5 1 5 6
M  V30 6 2 6 7
M  V30 7 1 6 8
M  V30 8 1 8 9
M  V30 9 2 9 10
M  V30 10 1 10 11
M  V30 11 1 10 12
M  V30 12 1 12 13
M  V30 13 2 12 14
M  V30 14 1 14 15
M  V30 15 2 15 16
M  V30 16 1 16 17
M  V30 17 1 15 18
M  V30 18 1 14 19
M  V30 19 1 19 20
M  V30 20 2 20 21
M  V30 21 1 21 22
M  V30 22 1 21 23
M  V30 23 1 23 24
M  V30 24 2 23 25
M  V30 25 1 25 26
M  V30 26 2 26 27
M  V30 27 1 27 28
M  V30 28 1 26 29
M  V30 29 1 25 30
M  V30 30 1 30 31
M  V30 31 2 31 32
M  V30 32 1 32 33
M  V30 33 2 33 34
M  V30 34 1 34 35
M  V30 35 2 35 36
M  V30 36 1 35 37
M  V30 37 1 7 2
M  V30 38 1 16 9
M  V30 39 1 27 20
M  V30 40 1 36 31
M  V30 41 1 1 38
M  V30 42 1 1 39
M  V30 43 1 3 40
M  V30 44 1 4 41
M  V30 45 1 5 42
M  V30 46 1 7 43
M  V30 47 1 32 44
M  V30 48 1 33 45
M  V30 49 1 34 46
M  V30 50 1 36 47
M  V30 51 1 37 48
M  V30 52 1 37 49
M  V30 END BOND
M  V30 END CTAB
M  END
