
     RDKit          3D

  0  0  0  0  0  0  0  0  0  0999 V3000
M  V30 BEGIN CTAB
M  V30 COUNTS 47 48 0 0 0
M  V30 BEGIN ATOM
M  V30 1 C 1.41184 2.89802 -1.03367 0
M  V30 2 C 1.621 1.63413 -0.269649 0
M  V30 3 C 1.06118 0.416679 -0.94229 0
M  V30 4 C -0.404439 0.495883 -1.16663 0
M  V30 5 O -0.903067 0.465097 -2.32731 0
M  V30 6 N -1.29154 0.609193 -0.0788338 0
M  V30 7 C -2.71816 0.688472 -0.286088 0
M  V30 8 C -3.38921 -0.53802 0.207385 0
M  V30 9 C -2.87382 -1.78215 -0.177879 0
M  V30 10 C -3.43669 -2.95302 0.244546 0
M  V30 11 C -4.54025 -2.97379 1.07127 0
M  V30 12 C -5.06494 -1.76194 1.46364 0
M  V30 13 C -4.48579 -0.565612 1.02912 0
M  V30 14 C -3.29408 1.94807 0.18451 0
M  V30 15 O -2.57373 2.83714 0.767907 0
M  V30 16 O -4.62007 2.28522 0.0462476 0
M  V30 17 C -5.15536 3.51516 0.508732 0
M  V30 18 S 1.38064 -0.993287 0.186307 0
M  V30 19 C 3.14565 -1.24875 0.283204 0
M  V30 20 N 3.93871 -0.642862 1.18294 0
M  V30 21 C 5.25926 -0.840562 1.24901 0
M  V30 22 N 6.06556 -0.186949 2.20583 0
M  V30 23 C 5.84987 -1.70156 0.361556 0
M  V30 24 C 5.05814 -2.34616 -0.583881 0
M  V30 25 N 3.73455 -2.0892 -0.580336 0
M  V30 26 N 5.66728 -3.22985 -1.49412 0
M  V30 27 H 1.34975 2.70078 -2.12176 0
M  V30 28 H 0.535563 3.49471 -0.670532 0
M  V30 29 H 2.2909 3.5567 -0.879243 0
M  V30 30 H 1.13652 1.74038 0.744656 0
M  V30 31 H 2.71247 1.46882 -0.155273 0
M  V30 32 H 1.62849 0.203797 -1.86788 0
M  V30 33 H -0.908962 0.635784 0.884228 0
M  V30 34 H -2.87819 0.674467 -1.40643 0
M  V30 35 H -2.01456 -1.80572 -0.821122 0
M  V30 36 H -3.03781 -3.92364 -0.0537476 0
M  V30 37 H -5.00907 -3.86842 1.423 0
M  V30 38 H -5.94098 -1.71983 2.11996 0
M  V30 39 H -4.93912 0.322813 1.37512 0
M  V30 40 H -5.81632 3.24849 1.38407 0
M  V30 41 H -5.69708 4.07769 -0.266142 0
M  V30 42 H -4.30225 4.09956 0.916375 0
M  V30 43 H 6.45959 0.756405 1.94663 0
M  V30 44 H 6.30453 -0.553038 3.14194 0
M  V30 45 H 6.93042 -1.91223 0.357605 0
M  V30 46 H 5.14044 -4.07538 -1.79649 0
M  V30 47 H 6.61314 -3.0615 -1.86487 0
M  V30 END ATOM
M  V30 BEGIN BOND
M  V30 1 1 1 2
M  V30 2 1 2 3
M  V30 3 1 3 4
M  V30 4 2 4 5
M  V30 5 1 4 6
M  V30 6 1 6 7
M  V30 7 1 7 8
M  V30 8 2 8 9
M  V30 9 1 9 10
M  V30 10 2 10 11
M  V30 11 1 11 12
M  V30 12 2 12 13
M  V30 13 1 7 14
M  V30 14 2 14 15
M  V30 15 1 14 16
M  V30 16 1 16 17
M  V30 17 1 3 18
M  V30 18 1 18 19
M  V30 19 2 19 20
M  V30 20 1 20 21
M  V30 21 1 21 22
M  V30 22 2 21 23
M  V30 23 1 23 24
M  V30 24 2 24 25
M  V30 25 1 24 26
M  V30 26 1 13 8
M  V30 27 1 25 19
M  V30 28 1 1 27
M  V30 29 1 1 28
M  V30 30 1 1 29
M  V30 31 1 2 30
M  V30 32 1 2 31
M  V30 33 1 3 32
M  V30 34 1 6 33
M  V30 35 1 7 34
M  V30 36 1 9 35
M  V30 37 1 10 36
M  V30 38 1 11 37
M  V30 39 1 12 38
M  V30 40 1 13 39
M  V30 41 1 17 40
M  V30 42 1 17 41
M  V30 43 1 17 42
M  V30 44 1 22 43
M  V30 45 1 22 44
M  V30 46 1 23 45
M  V30 47 1 26 46
M  V30 48 1 26 47
M  V30 END BOND
M  V30 END CTAB
M  END
