
     RDKit          3D

  0  0  0  0  0  0  0  0  0  0999 V3000
M  V30 BEGIN CTAB
M  V30 COUNTS 27 27 0 0 0
M  V30 BEGIN ATOM
M  V30 1 C -0.915088 -1.33097 1.33024 0
M  V30 2 C -0.530144 -0.0049824 0.708792 0
M  V30 3 N 0.850825 0.0480566 0.322717 0
M  V30 4 N 1.71218 1.02176 0.349789 0
M  V30 5 C 2.9202 0.656442 -0.105171 0
M  V30 6 N 2.78662 -0.637728 -0.434919 0
M  V30 7 C 1.51489 -1.01336 -0.172464 0
M  V30 8 N 1.04932 -2.32596 -0.411014 0
M  V30 9 N 4.08859 1.47138 -0.212495 0
M  V30 10 C -1.48148 0.265935 -0.41438 0
M  V30 11 C -1.25006 1.54053 -1.14578 0
M  V30 12 C -2.88023 0.351522 0.188245 0
M  V30 13 H -1.328 -2.03416 0.578731 0
M  V30 14 H -0.0636589 -1.77813 1.89466 0
M  V30 15 H -1.71841 -1.17228 2.07921 0
M  V30 16 H -0.737954 0.769951 1.50457 0
M  V30 17 H 0.560089 -2.53499 -1.29912 0
M  V30 18 H 1.18611 -3.08315 0.281608 0
M  V30 19 H 4.97418 1.21746 0.268351 0
M  V30 20 H 4.04535 2.32972 -0.781624 0
M  V30 21 H -1.458 -0.575213 -1.11619 0
M  V30 22 H -2.19805 1.79085 -1.68755 0
M  V30 23 H -0.48711 1.45984 -1.9581 0
M  V30 24 H -1.0608 2.40644 -0.480535 0
M  V30 25 H -2.75234 0.866961 1.16801 0
M  V30 26 H -3.29669 -0.661364 0.392944 0
M  V30 27 H -3.53035 0.955441 -0.470673 0
M  V30 END ATOM
M  V30 BEGIN BOND
M  V30 1 1 1 2
M  V30 2 1 2 3
M  V30 3 1 3 4
M  V30 4 2 4 5
M  V30 5 1 5 6
M  V30 6 2 6 7
M  V30 7 1 7 8
M  V30 8 1 5 9
M  V30 9 1 2 10
M  V30 10 1 10 11
M  V30 11 1 10 12
M  V30 12 1 7 3
M  V30 13 1 1 13
M  V30 14 1 1 14
M  V30 15 1 1 15
M  V30 16 1 2 16
M  V30 17 1 8 17
M  V30 18 1 8 18
M  V30 19 1 9 19
M  V30 20 1 9 20
M  V30 21 1 10 21
M  V30 22 1 11 22
M  V30 23 1 11 23
M  V30 24 1 11 24
M  V30 25 1 12 25
M  V30 26 1 12 26
M  V30 27 1 12 27
M  V30 END BOND
M  V30 END CTAB
M  END
