
     RDKit          3D

  0  0  0  0  0  0  0  0  0  0999 V3000
M  V30 BEGIN CTAB
M  V30 COUNTS 33 33 0 0 0
M  V30 BEGIN ATOM
M  V30 1 C 4.39351 0.114284 -1.16227 0
M  V30 2 C 3.16887 0.460132 -0.328528 0
M  V30 3 C 2.8042 -0.655926 0.611011 0
M  V30 4 C 1.60043 -0.287996 1.41601 0
M  V30 5 C 0.37418 -0.00444436 0.573543 0
M  V30 6 C 0.0267395 -1.21941 -0.223517 0
M  V30 7 C -1.16792 -1.07143 -1.10587 0
M  V30 8 C -2.424 -0.745975 -0.395568 0
M  V30 9 N -3.30087 -1.62712 0.116351 0
M  V30 10 N -4.31517 -0.991202 0.675333 0
M  V30 11 C -4.10842 0.349158 0.531838 0
M  V30 12 N -4.94434 1.39026 0.982175 0
M  V30 13 N -2.93007 0.467337 -0.134877 0
M  V30 14 N -2.34931 1.67603 -0.492632 0
M  V30 15 H 4.42566 0.72586 -2.08872 0
M  V30 16 H 5.33882 0.307545 -0.614841 0
M  V30 17 H 4.37912 -0.964514 -1.43253 0
M  V30 18 H 3.44837 1.34589 0.278051 0
M  V30 19 H 2.33565 0.774134 -0.989443 0
M  V30 20 H 3.65032 -0.774083 1.31922 0
M  V30 21 H 2.70343 -1.63349 0.0932069 0
M  V30 22 H 1.33555 -1.08965 2.13535 0
M  V30 23 H 1.86243 0.625274 2.00477 0
M  V30 24 H -0.466728 0.135481 1.31722 0
M  V30 25 H 0.554204 0.903317 -0.0118584 0
M  V30 26 H -0.201236 -2.03602 0.509943 0
M  V30 27 H 0.874807 -1.60089 -0.823138 0
M  V30 28 H -1.31961 -2.0516 -1.63796 0
M  V30 29 H -0.989956 -0.340124 -1.94098 0
M  V30 30 H -4.70141 1.9086 1.84026 0
M  V30 31 H -5.79785 1.63412 0.455127 0
M  V30 32 H -2.14282 2.36776 0.252232 0
M  V30 33 H -2.11657 1.90869 -1.47399 0
M  V30 END ATOM
M  V30 BEGIN BOND
M  V30 1 1 1 2
M  V30 2 1 2 3
M  V30 3 1 3 4
M  V30 4 1 4 5
M  V30 5 1 5 6
M  V30 6 1 6 7
M  V30 7 1 7 8
M  V30 8 2 8 9
M  V30 9 1 9 10
M  V30 10 2 10 11
M  V30 11 1 11 12
M  V30 12 1 11 13
M  V30 13 1 13 14
M  V30 14 1 13 8
M  V30 15 1 1 15
M  V30 16 1 1 16
M  V30 17 1 1 17
M  V30 18 1 2 18
M  V30 19 1 2 19
M  V30 20 1 3 20
M  V30 21 1 3 21
M  V30 22 1 4 22
M  V30 23 1 4 23
M  V30 24 1 5 24
M  V30 25 1 5 25
M  V30 26 1 6 26
M  V30 27 1 6 27
M  V30 28 1 7 28
M  V30 29 1 7 29
M  V30 30 1 12 30
M  V30 31 1 12 31
M  V30 32 1 14 32
M  V30 33 1 14 33
M  V30 END BOND
M  V30 END CTAB
M  END
