
     RDKit          3D

  0  0  0  0  0  0  0  0  0  0999 V3000
M  V30 BEGIN CTAB
M  V30 COUNTS 25 26 0 0 0
M  V30 BEGIN ATOM
M  V30 1 N 3.11683 2.42185 0.546862 0
M  V30 2 C 2.44917 1.24265 0.142635 0
M  V30 3 N 1.10639 1.22894 0.013673 0
M  V30 4 C 0.42618 0.133904 -0.36731 0
M  V30 5 N 1.10464 -0.971831 -0.624932 0
M  V30 6 C 2.46547 -1.02837 -0.51467 0
M  V30 7 N 3.09604 0.0958105 -0.129855 0
M  V30 8 N 3.15704 -2.23125 -0.799263 0
M  V30 9 C -1.04305 0.272036 -0.464001 0 CFG=1
M  V30 10 C -1.77682 -1.01624 -0.522091 0
M  V30 11 C -3.09561 -0.696391 0.161023 0
M  V30 12 C -3.02452 0.789721 0.44837 0
M  V30 13 N -1.60209 0.96853 0.680259 0
M  V30 14 H 3.71752 2.40984 1.37899 0
M  V30 15 H 2.99563 3.28451 0.00339904 0
M  V30 16 H 2.68486 -3.13611 -0.653796 0
M  V30 17 H 4.12476 -2.21023 -1.14928 0
M  V30 18 H -1.25796 0.867172 -1.37414 0
M  V30 19 H -2.03706 -1.2513 -1.59033 0
M  V30 20 H -1.25119 -1.86221 -0.040096 0
M  V30 21 H -3.96927 -0.943461 -0.470054 0
M  V30 22 H -3.10778 -1.23241 1.1241 0
M  V30 23 H -3.62505 1.07237 1.33379 0
M  V30 24 H -3.29327 1.38928 -0.449284 0
M  V30 25 H -1.36085 0.40318 1.52251 0
M  V30 END ATOM
M  V30 BEGIN BOND
M  V30 1 1 1 2
M  V30 2 2 2 3
M  V30 3 1 3 4
M  V30 4 2 4 5
M  V30 5 1 5 6
M  V30 6 2 6 7
M  V30 7 1 6 8
M  V30 8 1 4 9
M  V30 9 1 9 10
M  V30 10 1 10 11
M  V30 11 1 11 12
M  V30 12 1 12 13
M  V30 13 1 7 2
M  V30 14 1 13 9
M  V30 15 1 1 14
M  V30 16 1 1 15
M  V30 17 1 8 16
M  V30 18 1 8 17
M  V30 19 1 9 18 CFG=3
M  V30 20 1 10 19
M  V30 21 1 10 20
M  V30 22 1 11 21
M  V30 23 1 11 22
M  V30 24 1 12 23
M  V30 25 1 12 24
M  V30 26 1 13 25
M  V30 END BOND
M  V30 END CTAB
M  END
