
     RDKit          3D

  0  0  0  0  0  0  0  0  0  0999 V3000
M  V30 BEGIN CTAB
M  V30 COUNTS 41 44 0 0 0
M  V30 BEGIN ATOM
M  V30 1 N -7.90788 1.08377 0.674485 0
M  V30 2 C -6.67302 0.668628 0.127457 0
M  V30 3 C -6.21151 -0.633257 0.27362 0
M  V30 4 C -5.00233 -0.971377 -0.283591 0
M  V30 5 C -4.23691 -0.065581 -0.978982 0
M  V30 6 C -4.69328 1.22279 -1.1239 0
M  V30 7 C -5.90185 1.59747 -0.578171 0
M  V30 8 O -3.01928 -0.402606 -1.5411 0
M  V30 9 C -1.83592 -0.270737 -0.829413 0
M  V30 10 C -1.88944 0.208786 0.465692 0
M  V30 11 C -0.695458 0.328449 1.14664 0
M  V30 12 C 0.51138 -0.0135272 0.569107 0
M  V30 13 C 0.566463 -0.491747 -0.721865 0
M  V30 14 C -0.62594 -0.6117 -1.40304 0
M  V30 15 C 1.95439 -0.780215 -1.09952 0
M  V30 16 O 2.38622 -1.23152 -2.20505 0
M  V30 17 N 2.77406 -0.460016 0.0182671 0
M  V30 18 C 1.90536 0.003077 1.02698 0
M  V30 19 O 2.26031 0.383586 2.17199 0
M  V30 20 C 4.20156 -0.580197 0.111547 0
M  V30 21 C 4.79443 -1.82718 0.0102214 0
M  V30 22 C 6.15816 -1.93389 0.10044 0
M  V30 23 C 6.94379 -0.816642 0.290436 0
M  V30 24 C 6.38197 0.458177 0.397395 0
M  V30 25 C 5.01019 0.527148 0.302124 0
M  V30 26 N 7.20974 1.59061 0.592514 0
M  V30 27 H -8.53957 1.67891 0.112352 0
M  V30 28 H -8.18143 0.796253 1.62994 0
M  V30 29 H -6.82577 -1.34184 0.825686 0
M  V30 30 H -4.63419 -1.98465 -0.174836 0
M  V30 31 H -4.12633 1.98405 -1.66658 0
M  V30 32 H -6.29379 2.5942 -0.669676 0
M  V30 33 H -2.84617 0.479821 0.92325 0
M  V30 34 H -0.703233 0.698954 2.15549 0
M  V30 35 H -0.575509 -0.987783 -2.41723 0
M  V30 36 H 4.14414 -2.69171 -0.139932 0
M  V30 37 H 6.6193 -2.90153 0.022011 0
M  V30 38 H 8.02104 -0.866051 0.365424 0
M  V30 39 H 4.56054 1.51222 0.383915 0
M  V30 40 H 7.09706 2.39522 -0.0564023 0
M  V30 41 H 7.91872 1.65165 1.34966 0
M  V30 END ATOM
M  V30 BEGIN BOND
M  V30 1 1 1 2
M  V30 2 2 2 3
M  V30 3 1 3 4
M  V30 4 2 4 5
M  V30 5 1 5 6
M  V30 6 2 6 7
M  V30 7 1 5 8
M  V30 8 1 8 9
M  V30 9 2 9 10
M  V30 10 1 10 11
M  V30 11 2 11 12
M  V30 12 1 12 13
M  V30 13 2 13 14
M  V30 14 1 13 15
M  V30 15 2 15 16
M  V30 16 1 15 17
M  V30 17 1 17 18
M  V30 18 2 18 19
M  V30 19 1 17 20
M  V30 20 2 20 21
M  V30 21 1 21 22
M  V30 22 2 22 23
M  V30 23 1 23 24
M  V30 24 2 24 25
M  V30 25 1 24 26
M  V30 26 1 7 2
M  V30 27 1 14 9
M  V30 28 1 25 20
M  V30 29 1 18 12
M  V30 30 1 1 27
M  V30 31 1 1 28
M  V30 32 1 3 29
M  V30 33 1 4 30
M  V30 34 1 6 31
M  V30 35 1 7 32
M  V30 36 1 10 33
M  V30 37 1 11 34
M  V30 38 1 14 35
M  V30 39 1 21 36
M  V30 40 1 22 37
M  V30 41 1 23 38
M  V30 42 1 25 39
M  V30 43 1 26 40
M  V30 44 1 26 41
M  V30 END BOND
M  V30 END CTAB
M  END
