
     RDKit          3D

  0  0  0  0  0  0  0  0  0  0999 V3000
M  V30 BEGIN CTAB
M  V30 COUNTS 51 54 0 0 0
M  V30 BEGIN ATOM
M  V30 1 N 4.10533 -3.29195 -1.64158 0
M  V30 2 C 4.39789 -1.98697 -1.15223 0
M  V30 3 N 5.65606 -1.58828 -0.896796 0
M  V30 4 C 5.9124 -0.336478 -0.429582 0
M  V30 5 N 7.24014 0.0648196 -0.167004 0
M  V30 6 N 4.91112 0.531072 -0.212609 0
M  V30 7 C 3.64414 0.192259 -0.447564 0
M  V30 8 C 3.38969 -1.06854 -0.917869 0
M  V30 9 N 2.54934 1.0728 -0.237494 0
M  V30 10 C 2.83433 2.4193 0.188314 0
M  V30 11 C 2.18676 2.64093 1.52317 0
M  V30 12 C 0.852789 1.9446 1.586 0
M  V30 13 C 0.299218 1.69565 0.173452 0
M  V30 14 C 1.16844 0.656449 -0.438139 0
M  V30 15 C -1.12346 1.40036 0.27436 0
M  V30 16 N -2.08552 2.33245 -0.0326082 0
M  V30 17 N -3.26202 1.81832 0.133389 0
M  V30 18 C -3.15281 0.550962 0.5483 0
M  V30 19 N -1.83111 0.321104 0.625895 0
M  V30 20 C -1.28825 -0.939858 1.03069 0
M  V30 21 C -4.26435 -0.349773 0.841644 0
M  V30 22 N -4.72748 -1.11949 -0.268214 0
M  V30 23 C -4.26018 -2.33479 -0.604033 0
M  V30 24 C -4.931 -2.77938 -1.72018 0
M  V30 25 N -5.79909 -1.82822 -2.0501 0
M  V30 26 C -5.67137 -0.821544 -1.16445 0
M  V30 27 C -6.49164 0.420801 -1.22542 0
M  V30 28 H 4.79742 -3.87901 -2.1186 0
M  V30 29 H 3.1383 -3.66306 -1.50514 0
M  V30 30 H 7.94002 0.0459016 -0.927459 0
M  V30 31 H 7.52143 0.376493 0.772609 0
M  V30 32 H 2.38267 -1.38092 -1.1219 0
M  V30 33 H 2.37804 3.15143 -0.538537 0
M  V30 34 H 3.94434 2.60318 0.235875 0
M  V30 35 H 2.1192 3.71457 1.79354 0
M  V30 36 H 2.84322 2.18062 2.29289 0
M  V30 37 H 0.138114 2.54879 2.179 0
M  V30 38 H 0.985829 0.943191 2.03806 0
M  V30 39 H 0.439726 2.65527 -0.406677 0
M  V30 40 H 1.0215 0.628518 -1.55346 0
M  V30 41 H 1.08916 -0.332304 0.0184795 0
M  V30 42 H -0.462242 -0.873841 1.75427 0
M  V30 43 H -0.984712 -1.49057 0.0935117 0
M  V30 44 H -2.04322 -1.60017 1.51377 0
M  V30 45 H -5.16232 0.198308 1.24303 0
M  V30 46 H -3.99612 -1.05192 1.6806 0
M  V30 47 H -3.47754 -2.89973 -0.0923221 0
M  V30 48 H -4.73741 -3.73702 -2.19089 0
M  V30 49 H -5.93204 1.2029 -1.78823 0
M  V30 50 H -7.44028 0.265263 -1.77404 0
M  V30 51 H -6.76245 0.777504 -0.209074 0
M  V30 END ATOM
M  V30 BEGIN BOND
M  V30 1 1 1 2
M  V30 2 2 2 3
M  V30 3 1 3 4
M  V30 4 1 4 5
M  V30 5 2 4 6
M  V30 6 1 6 7
M  V30 7 2 7 8
M  V30 8 1 7 9
M  V30 9 1 9 10
M  V30 10 1 10 11
M  V30 11 1 11 12
M  V30 12 1 12 13
M  V30 13 1 13 14
M  V30 14 1 13 15
M  V30 15 2 15 16
M  V30 16 1 16 17
M  V30 17 2 17 18
M  V30 18 1 18 19
M  V30 19 1 19 20
M  V30 20 1 18 21
M  V30 21 1 21 22
M  V30 22 1 22 23
M  V30 23 2 23 24
M  V30 24 1 24 25
M  V30 25 2 25 26
M  V30 26 1 26 27
M  V30 27 1 8 2
M  V30 28 1 14 9
M  V30 29 1 19 15
M  V30 30 1 26 22
M  V30 31 1 1 28
M  V30 32 1 1 29
M  V30 33 1 5 30
M  V30 34 1 5 31
M  V30 35 1 8 32
M  V30 36 1 10 33
M  V30 37 1 10 34
M  V30 38 1 11 35
M  V30 39 1 11 36
M  V30 40 1 12 37
M  V30 41 1 12 38
M  V30 42 1 13 39
M  V30 43 1 14 40
M  V30 44 1 14 41
M  V30 45 1 20 42
M  V30 46 1 20 43
M  V30 47 1 20 44
M  V30 48 1 21 45
M  V30 49 1 21 46
M  V30 50 1 23 47
M  V30 51 1 24 48
M  V30 52 1 27 49
M  V30 53 1 27 50
M  V30 54 1 27 51
M  V30 END BOND
M  V30 END CTAB
M  END
