
     RDKit          3D

  0  0  0  0  0  0  0  0  0  0999 V3000
M  V30 BEGIN CTAB
M  V30 COUNTS 21 21 0 0 0
M  V30 BEGIN ATOM
M  V30 1 N -1.25815 1.72399 0.19075 0
M  V30 2 N -2.17368 0.760788 -0.119084 0
M  V30 3 C -1.92901 -0.440645 -0.322333 0
M  V30 4 C -0.669373 -1.1077 -0.286258 0
M  V30 5 C 0.559046 -0.443514 0.0677516 0
M  V30 6 C 1.36347 0.177612 -0.859157 0
M  V30 7 C 2.55825 0.786963 -0.471249 0
M  V30 8 C 2.94527 0.773173 0.844218 0
M  V30 9 N 2.14416 0.160017 1.73681 0
M  V30 10 C 0.983484 -0.435492 1.38001 0
M  V30 11 N -3.07923 -1.27113 -0.645177 0
M  V30 12 H -0.850539 2.30418 -0.603258 0
M  V30 13 H -0.922547 1.96039 1.14566 0
M  V30 14 H -0.530387 -1.62171 -1.30825 0
M  V30 15 H -0.81763 -2.04233 0.371863 0
M  V30 16 H 1.11397 0.220805 -1.90049 0
M  V30 17 H 3.19884 1.27816 -1.18997 0
M  V30 18 H 3.86378 1.23108 1.2018 0
M  V30 19 H 0.4261 -0.895623 2.18986 0
M  V30 20 H -3.46175 -1.80167 0.169734 0
M  V30 21 H -3.46408 -1.31734 -1.59323 0
M  V30 END ATOM
M  V30 BEGIN BOND
M  V30 1 1 1 2
M  V30 2 2 2 3
M  V30 3 1 3 4
M  V30 4 1 4 5
M  V30 5 2 5 6
M  V30 6 1 6 7
M  V30 7 2 7 8
M  V30 8 1 8 9
M  V30 9 2 9 10
M  V30 10 1 3 11
M  V30 11 1 10 5
M  V30 12 1 1 12
M  V30 13 1 1 13
M  V30 14 1 4 14
M  V30 15 1 4 15
M  V30 16 1 6 16
M  V30 17 1 7 17
M  V30 18 1 8 18
M  V30 19 1 10 19
M  V30 20 1 11 20
M  V30 21 1 11 21
M  V30 END BOND
M  V30 END CTAB
M  END
