
     RDKit          3D

  0  0  0  0  0  0  0  0  0  0999 V3000
M  V30 BEGIN CTAB
M  V30 COUNTS 42 43 0 0 0
M  V30 BEGIN ATOM
M  V30 1 N -6.58756 -0.519197 1.64466 0
M  V30 2 C -5.72402 -1.64341 2.02654 0
M  V30 3 C -4.28405 -1.22775 1.90541 0
M  V30 4 O -3.95502 -0.842978 0.584914 0
M  V30 5 C -2.68518 -0.419848 0.225817 0
M  V30 6 C -1.6386 -0.336187 1.11254 0
M  V30 7 C -0.373048 0.0946905 0.713747 0
M  V30 8 C -0.116399 0.456304 -0.590654 0
M  V30 9 C -1.17448 0.370455 -1.48144 0
M  V30 10 C -2.42507 -0.0575038 -1.07767 0
M  V30 11 O -3.46365 -0.135216 -1.9813 0
M  V30 12 C -3.38798 0.18905 -3.33692 0
M  V30 13 C 1.1953 0.909995 -1.03583 0
M  V30 14 O 1.29938 1.21496 -2.27311 0
M  V30 15 N 2.31693 1.0199 -0.173938 0
M  V30 16 C 3.56509 1.47798 -0.715446 0
M  V30 17 C 4.67581 0.508741 -0.441717 0
M  V30 18 N 5.6198 0.0675931 -1.27079 0
M  V30 19 N 6.48122 -0.757182 -0.858804 0
M  V30 20 C 6.44338 -1.18239 0.400243 0
M  V30 21 S 5.08399 -0.329213 0.991054 0
M  V30 22 N 7.33907 -2.11685 1.04134 0
M  V30 23 C 3.94106 2.76688 -0.00555692 0
M  V30 24 H -6.11047 0.0121746 0.877516 0
M  V30 25 H -6.77431 0.101144 2.45912 0
M  V30 26 H -5.94104 -2.50297 1.39144 0
M  V30 27 H -5.92602 -1.82021 3.11121 0
M  V30 28 H -4.1617 -0.302639 2.54133 0
M  V30 29 H -3.62219 -1.98964 2.31927 0
M  V30 30 H -1.84399 -0.621508 2.13824 0
M  V30 31 H 0.395576 0.13459 1.46105 0
M  V30 32 H -0.991076 0.65393 -2.52537 0
M  V30 33 H -4.14182 -0.439643 -3.86981 0
M  V30 34 H -2.41523 -0.0431625 -3.80881 0
M  V30 35 H -3.66522 1.24444 -3.54747 0
M  V30 36 H 2.1956 0.760283 0.839987 0
M  V30 37 H 3.45761 1.6864 -1.77671 0
M  V30 38 H 6.96589 -2.92295 1.54816 0
M  V30 39 H 8.37121 -1.97662 0.992188 0
M  V30 40 H 4.2427 2.47754 1.02336 0
M  V30 41 H 4.75882 3.22314 -0.571345 0
M  V30 42 H 3.05969 3.45767 -0.00643427 0
M  V30 END ATOM
M  V30 BEGIN BOND
M  V30 1 1 1 2
M  V30 2 1 2 3
M  V30 3 1 3 4
M  V30 4 1 4 5
M  V30 5 2 5 6
M  V30 6 1 6 7
M  V30 7 2 7 8
M  V30 8 1 8 9
M  V30 9 2 9 10
M  V30 10 1 10 11
M  V30 11 1 11 12
M  V30 12 1 8 13
M  V30 13 2 13 14
M  V30 14 1 13 15
M  V30 15 1 15 16
M  V30 16 1 16 17
M  V30 17 2 17 18
M  V30 18 1 18 19
M  V30 19 2 19 20
M  V30 20 1 20 21
M  V30 21 1 20 22
M  V30 22 1 16 23
M  V30 23 1 10 5
M  V30 24 1 21 17
M  V30 25 1 1 24
M  V30 26 1 1 25
M  V30 27 1 2 26
M  V30 28 1 2 27
M  V30 29 1 3 28
M  V30 30 1 3 29
M  V30 31 1 6 30
M  V30 32 1 7 31
M  V30 33 1 9 32
M  V30 34 1 12 33
M  V30 35 1 12 34
M  V30 36 1 12 35
M  V30 37 1 15 36
M  V30 38 1 16 37
M  V30 39 1 22 38
M  V30 40 1 22 39
M  V30 41 1 23 40
M  V30 42 1 23 41
M  V30 43 1 23 42
M  V30 END BOND
M  V30 END CTAB
M  END
