
     RDKit          3D

  0  0  0  0  0  0  0  0  0  0999 V3000
M  V30 BEGIN CTAB
M  V30 COUNTS 40 42 0 0 0
M  V30 BEGIN ATOM
M  V30 1 N 6.23446 2.29382 -1.74607 0
M  V30 2 C 5.14586 1.55045 -1.20925 0
M  V30 3 C 3.84941 1.96873 -1.42613 0
M  V30 4 C 2.78017 1.26365 -0.9153 0
M  V30 5 C 2.94463 0.104401 -0.161219 0
M  V30 6 C 4.23758 -0.30921 0.0527503 0
M  V30 7 C 5.32123 0.406119 -0.465451 0
M  V30 8 F 6.58851 -0.0131863 -0.246581 0
M  V30 9 C 1.79438 -0.618261 0.364886 0
M  V30 10 C 1.85366 -1.76216 1.11333 0
M  V30 11 C 0.744771 -2.42371 1.59746 0
M  V30 12 O 0.815175 -3.4694 2.28092 0
M  V30 13 C -0.494226 -1.87172 1.29059 0
M  V30 14 C -1.64136 -2.47689 1.73943 0
M  V30 15 N -1.53214 -3.66422 2.51414 0
M  V30 16 C -2.84573 -1.89227 1.4096 0
M  V30 17 F -3.99362 -2.47491 1.84369 0
M  V30 18 C -2.90642 -0.743055 0.657723 0
M  V30 19 C -4.18695 -0.118175 0.304896 0
M  V30 20 O -3.98734 1.04748 -0.469445 0
M  V30 21 C -5.09159 1.77239 -0.89584 0
M  V30 22 O -6.24843 1.37819 -0.585056 0
M  V30 23 C -4.8752 2.99096 -1.70568 0
M  V30 24 Cl -4.86346 2.48028 -3.41999 0
M  V30 25 C -1.73481 -0.164983 0.225582 0
M  V30 26 F -1.73593 0.977401 -0.524484 0
M  V30 27 C -0.508482 -0.726421 0.539208 0
M  V30 28 O 0.5849 -0.145092 0.108449 0
M  V30 29 H 6.42921 2.23268 -2.75135 0
M  V30 30 H 6.84584 2.90505 -1.14016 0
M  V30 31 H 3.72419 2.87423 -2.0153 0
M  V30 32 H 1.76838 1.59643 -1.08874 0
M  V30 33 H 4.40036 -1.20518 0.633979 0
M  V30 34 H 2.81185 -2.18839 1.35022 0
M  V30 35 H -1.52705 -4.57208 1.9992 0
M  V30 36 H -1.46277 -3.57421 3.55184 0
M  V30 37 H -4.86283 -0.788623 -0.268146 0
M  V30 38 H -4.72135 0.109313 1.25348 0
M  V30 39 H -3.94234 3.52859 -1.44985 0
M  V30 40 H -5.71256 3.72198 -1.53335 0
M  V30 END ATOM
M  V30 BEGIN BOND
M  V30 1 1 1 2
M  V30 2 2 2 3
M  V30 3 1 3 4
M  V30 4 2 4 5
M  V30 5 1 5 6
M  V30 6 2 6 7
M  V30 7 1 7 8
M  V30 8 1 5 9
M  V30 9 2 9 10
M  V30 10 1 10 11
M  V30 11 2 11 12
M  V30 12 1 11 13
M  V30 13 2 13 14
M  V30 14 1 14 15
M  V30 15 1 14 16
M  V30 16 1 16 17
M  V30 17 2 16 18
M  V30 18 1 18 19
M  V30 19 1 19 20
M  V30 20 1 20 21
M  V30 21 2 21 22
M  V30 22 1 21 23
M  V30 23 1 23 24
M  V30 24 1 18 25
M  V30 25 1 25 26
M  V30 26 2 25 27
M  V30 27 1 27 28
M  V30 28 1 7 2
M  V30 29 1 28 9
M  V30 30 1 27 13
M  V30 31 1 1 29
M  V30 32 1 1 30
M  V30 33 1 3 31
M  V30 34 1 4 32
M  V30 35 1 6 33
M  V30 36 1 10 34
M  V30 37 1 15 35
M  V30 38 1 15 36
M  V30 39 1 19 37
M  V30 40 1 19 38
M  V30 41 1 23 39
M  V30 42 1 23 40
M  V30 END BOND
M  V30 END CTAB
M  END
