
     RDKit          3D

  0  0  0  0  0  0  0  0  0  0999 V3000
M  V30 BEGIN CTAB
M  V30 COUNTS 29 30 0 0 0
M  V30 BEGIN ATOM
M  V30 1 N 4.84458 1.11439 0.314018 0
M  V30 2 C 3.48291 0.706829 0.132051 0
M  V30 3 C 2.4277 1.50161 0.528023 0
M  V30 4 C 1.13211 1.05794 0.327859 0
M  V30 5 C 0.8413 -0.152714 -0.254276 0
M  V30 6 C 1.88672 -0.943114 -0.648024 0
M  V30 7 C 3.19226 -0.509377 -0.452771 0
M  V30 8 N 4.3101 -1.3128 -0.853623 0
M  V30 9 N -0.531292 -0.558728 -0.435399 0
M  V30 10 N -0.975283 -1.46865 -1.25403 0
M  V30 11 C -2.31088 -1.5928 -1.16583 0
M  V30 12 C -2.70447 -0.679323 -0.212404 0
M  V30 13 C -1.58545 -0.0509893 0.225517 0
M  V30 14 S -4.32763 -0.346032 0.365911 0
M  V30 15 O -5.15863 -1.5979 0.35831 0
M  V30 16 O -4.21838 0.148006 1.77807 0
M  V30 17 C -5.04492 0.928153 -0.623415 0
M  V30 18 H 5.15493 2.07949 0.0196257 0
M  V30 19 H 5.5484 0.496694 0.727069 0
M  V30 20 H 2.66819 2.45105 0.984438 0
M  V30 21 H 0.303646 1.68547 0.64046 0
M  V30 22 H 1.70741 -1.89842 -1.10795 0
M  V30 23 H 4.37535 -2.29576 -0.508572 0
M  V30 24 H 5.05929 -0.954016 -1.47547 0
M  V30 25 H -2.97166 -2.25666 -1.71027 0
M  V30 26 H -1.47212 0.739142 0.979047 0
M  V30 27 H -5.71863 0.528635 -1.40604 0
M  V30 28 H -4.26544 1.52993 -1.1502 0
M  V30 29 H -5.65013 1.64995 -0.0245708 0
M  V30 END ATOM
M  V30 BEGIN BOND
M  V30 1 1 1 2
M  V30 2 2 2 3
M  V30 3 1 3 4
M  V30 4 2 4 5
M  V30 5 1 5 6
M  V30 6 2 6 7
M  V30 7 1 7 8
M  V30 8 1 5 9
M  V30 9 1 9 10
M  V30 10 2 10 11
M  V30 11 1 11 12
M  V30 12 2 12 13
M  V30 13 1 12 14
M  V30 14 2 14 15
M  V30 15 2 14 16
M  V30 16 1 14 17
M  V30 17 1 7 2
M  V30 18 1 13 9
M  V30 19 1 1 18
M  V30 20 1 1 19
M  V30 21 1 3 20
M  V30 22 1 4 21
M  V30 23 1 6 22
M  V30 24 1 8 23
M  V30 25 1 8 24
M  V30 26 1 11 25
M  V30 27 1 13 26
M  V30 28 1 17 27
M  V30 29 1 17 28
M  V30 30 1 17 29
M  V30 END BOND
M  V30 END CTAB
M  END
