
     RDKit          3D

  0  0  0  0  0  0  0  0  0  0999 V3000
M  V30 BEGIN CTAB
M  V30 COUNTS 33 33 0 0 0
M  V30 BEGIN ATOM
M  V30 1 N -3.72068 -1.57439 -0.220128 0
M  V30 2 C -2.57483 -0.857701 0.281646 0
M  V30 3 C -1.35007 -1.77255 0.327328 0
M  V30 4 C -0.241213 -0.988154 0.942417 0
M  V30 5 N 0.0517906 0.248863 0.26926 0
M  V30 6 C -1.09873 1.09017 0.102728 0
M  V30 7 C -2.19527 0.297578 -0.601154 0
M  V30 8 C -0.853387 2.29815 -0.732346 0
M  V30 9 C 1.1794 0.90563 0.849117 0
M  V30 10 C 2.48799 0.22202 0.657447 0
M  V30 11 S 2.90664 0.0388452 -1.06923 0
M  V30 12 O 3.01536 1.40976 -1.67241 0
M  V30 13 O 1.88734 -0.767536 -1.80937 0
M  V30 14 N 4.42589 -0.754668 -1.24352 0
M  V30 15 H -4.11513 -2.13947 0.559217 0
M  V30 16 H -3.37162 -2.18586 -0.994328 0
M  V30 17 H -2.80091 -0.455186 1.2844 0
M  V30 18 H -1.59422 -2.62358 0.97627 0
M  V30 19 H -1.15285 -2.10786 -0.697775 0
M  V30 20 H -0.536045 -0.79824 2.01438 0
M  V30 21 H 0.676885 -1.62069 0.886227 0
M  V30 22 H -1.50329 1.43136 1.08232 0
M  V30 23 H -3.07278 0.938874 -0.802856 0
M  V30 24 H -1.74385 -0.0432839 -1.56422 0
M  V30 25 H -0.253235 3.08958 -0.279534 0
M  V30 26 H -0.499892 1.99462 -1.75501 0
M  V30 27 H -1.86745 2.76367 -0.915147 0
M  V30 28 H 1.26413 1.91124 0.366837 0
M  V30 29 H 0.973417 1.09227 1.92075 0
M  V30 30 H 2.57675 -0.763543 1.13939 0
M  V30 31 H 3.27854 0.861823 1.098 0
M  V30 32 H 4.6423 -0.793419 -2.26147 0
M  V30 33 H 5.17905 -0.348317 -0.670266 0
M  V30 END ATOM
M  V30 BEGIN BOND
M  V30 1 1 1 2
M  V30 2 1 2 3
M  V30 3 1 3 4
M  V30 4 1 4 5
M  V30 5 1 5 6
M  V30 6 1 6 7
M  V30 7 1 6 8
M  V30 8 1 5 9
M  V30 9 1 9 10
M  V30 10 1 10 11
M  V30 11 2 11 12
M  V30 12 2 11 13
M  V30 13 1 11 14
M  V30 14 1 7 2
M  V30 15 1 1 15
M  V30 16 1 1 16
M  V30 17 1 2 17
M  V30 18 1 3 18
M  V30 19 1 3 19
M  V30 20 1 4 20
M  V30 21 1 4 21
M  V30 22 1 6 22
M  V30 23 1 7 23
M  V30 24 1 7 24
M  V30 25 1 8 25
M  V30 26 1 8 26
M  V30 27 1 8 27
M  V30 28 1 9 28
M  V30 29 1 9 29
M  V30 30 1 10 30
M  V30 31 1 10 31
M  V30 32 1 14 32
M  V30 33 1 14 33
M  V30 END BOND
M  V30 END CTAB
M  END
