
     RDKit          3D

  0  0  0  0  0  0  0  0  0  0999 V3000
M  V30 BEGIN CTAB
M  V30 COUNTS 51 54 0 0 0
M  V30 BEGIN ATOM
M  V30 1 O 2.54795 1.47223 -0.907889 0
M  V30 2 C 2.26875 0.389203 -0.347913 0
M  V30 3 C 0.808738 0.11836 -0.264748 0
M  V30 4 S 0.0925312 -1.2552 0.43069 0
M  V30 5 C -1.55803 -0.863814 0.156722 0
M  V30 6 C -1.47493 0.344003 -0.47715 0
M  V30 7 C -0.246477 0.850913 -0.694393 0
M  V30 8 N -0.00482717 2.13187 -1.36037 0
M  V30 9 C -2.7184 0.919938 -0.831834 0
M  V30 10 C -3.88685 0.261991 -0.532438 0
M  V30 11 C -3.93677 -0.957439 0.108894 0
M  V30 12 N -2.73953 -1.49978 0.443978 0
M  V30 13 C -4.9448 -1.90994 0.569644 0
M  V30 14 C -6.00153 -1.32493 1.47163 0
M  V30 15 C -6.59743 -0.0538302 0.936269 0
M  V30 16 C -6.97753 -0.274402 -0.497595 0
M  V30 17 C -6.18642 0.448246 -1.50773 0
M  V30 18 C -4.95207 1.14453 -1.04103 0
M  V30 19 N 3.17212 -0.543008 0.18089 0
M  V30 20 C 4.54506 -0.428311 0.181663 0
M  V30 21 C 5.3205 -1.54329 0.531019 0
M  V30 22 C 6.68916 -1.50499 0.567633 0
M  V30 23 C 7.37323 -0.350626 0.257737 0
M  V30 24 C 6.62133 0.742921 -0.084363 0
M  V30 25 C 5.22843 0.711262 -0.12353 0
M  V30 26 S 9.10068 -0.270614 0.294424 0
M  V30 27 O 9.54638 0.7292 -0.729468 0
M  V30 28 O 9.71953 -1.62366 0.00276102 0
M  V30 29 N 9.69579 0.205522 1.8517 0
M  V30 30 H -0.0629024 2.19632 -2.38783 0
M  V30 31 H 0.221776 2.94384 -0.743361 0
M  V30 32 H -2.79317 1.86761 -1.3349 0
M  V30 33 H -5.39665 -2.50505 -0.277743 0
M  V30 34 H -4.43992 -2.71114 1.18977 0
M  V30 35 H -5.66829 -1.25168 2.52378 0
M  V30 36 H -6.84205 -2.08006 1.48524 0
M  V30 37 H -5.91528 0.768509 1.12983 0
M  V30 38 H -7.50066 0.148194 1.58718 0
M  V30 39 H -8.06131 0.0348334 -0.585492 0
M  V30 40 H -7.01601 -1.36996 -0.75322 0
M  V30 41 H -5.98016 -0.23846 -2.37803 0
M  V30 42 H -6.82678 1.25285 -1.97634 0
M  V30 43 H -5.22961 1.97074 -0.357193 0
M  V30 44 H -4.53357 1.67161 -1.95083 0
M  V30 45 H 2.75607 -1.42186 0.626911 0
M  V30 46 H 4.83058 -2.46591 0.78032 0
M  V30 47 H 7.27837 -2.38756 0.843308 0
M  V30 48 H 7.12379 1.66239 -0.332662 0
M  V30 49 H 4.74661 1.64208 -0.399834 0
M  V30 50 H 9.61685 -0.583648 2.52089 0
M  V30 51 H 9.18773 1.05763 2.20501 0
M  V30 END ATOM
M  V30 BEGIN BOND
M  V30 1 2 1 2
M  V30 2 1 2 3
M  V30 3 1 3 4
M  V30 4 1 4 5
M  V30 5 2 5 6
M  V30 6 1 6 7
M  V30 7 1 7 8
M  V30 8 1 6 9
M  V30 9 2 9 10
M  V30 10 1 10 11
M  V30 11 2 11 12
M  V30 12 1 11 13
M  V30 13 1 13 14
M  V30 14 1 14 15
M  V30 15 1 15 16
M  V30 16 1 16 17
M  V30 17 1 17 18
M  V30 18 1 2 19
M  V30 19 1 19 20
M  V30 20 2 20 21
M  V30 21 1 21 22
M  V30 22 2 22 23
M  V30 23 1 23 24
M  V30 24 2 24 25
M  V30 25 1 23 26
M  V30 26 2 26 27
M  V30 27 2 26 28
M  V30 28 1 26 29
M  V30 29 2 7 3
M  V30 30 1 18 10
M  V30 31 1 25 20
M  V30 32 1 12 5
M  V30 33 1 8 30
M  V30 34 1 8 31
M  V30 35 1 9 32
M  V30 36 1 13 33
M  V30 37 1 13 34
M  V30 38 1 14 35
M  V30 39 1 14 36
M  V30 40 1 15 37
M  V30 41 1 15 38
M  V30 42 1 16 39
M  V30 43 1 16 40
M  V30 44 1 17 41
M  V30 45 1 17 42
M  V30 46 1 18 43
M  V30 47 1 18 44
M  V30 48 1 19 45
M  V30 49 1 21 46
M  V30 50 1 22 47
M  V30 51 1 24 48
M  V30 52 1 25 49
M  V30 53 1 29 50
M  V30 54 1 29 51
M  V30 END BOND
M  V30 END CTAB
M  END
