
     RDKit          3D

  0  0  0  0  0  0  0  0  0  0999 V3000
M  V30 BEGIN CTAB
M  V30 COUNTS 52 54 0 0 0
M  V30 BEGIN ATOM
M  V30 1 N 5.04506 0.814152 0.540971 0
M  V30 2 C 3.65469 0.809924 0.874398 0
M  V30 3 C 2.90699 1.70605 -0.0436142 0
M  V30 4 C 2.95563 1.31482 -1.4806 0
M  V30 5 C 2.90477 -0.147548 -1.74761 0
M  V30 6 C 3.36067 -1.03138 -0.657572 0
M  V30 7 C 3.06129 -0.555702 0.745981 0
M  V30 8 C 1.59733 -0.656969 0.974958 0
M  V30 9 C 0.828935 0.592543 0.922498 0
M  V30 10 C 1.5059 1.84185 0.482789 0
M  V30 11 C -0.442348 0.46499 0.130024 0
M  V30 12 O -0.435649 1.03844 -0.989551 0
M  V30 13 N -1.5931 -0.230431 0.551558 0
M  V30 14 C -1.52584 -0.915183 1.85212 0
M  V30 15 C -2.79788 -1.75183 2.00964 0
M  V30 16 C -3.01964 -2.6326 0.827457 0
M  V30 17 C -2.98073 -1.84542 -0.472612 0
M  V30 18 C -2.8351 -0.364073 -0.112511 0
M  V30 19 C -3.13703 0.452688 -1.30238 0
M  V30 20 N -4.49006 0.0278539 -1.74615 0
M  V30 21 C -3.2855 1.93094 -1.0111 0
M  V30 22 H 5.29865 1.80566 0.249534 0
M  V30 23 H 5.60735 0.664923 1.4254 0
M  V30 24 H 3.51106 1.16474 1.91424 0
M  V30 25 H 3.36799 2.73466 0.0757486 0
M  V30 26 H 3.89558 1.7477 -1.92114 0
M  V30 27 H 2.12717 1.81237 -2.01051 0
M  V30 28 H 3.50669 -0.377456 -2.65764 0
M  V30 29 H 1.85376 -0.457007 -2.02703 0
M  V30 30 H 4.44886 -1.2614 -0.685133 0
M  V30 31 H 2.86735 -2.04697 -0.73141 0
M  V30 32 H 3.64528 -1.22929 1.43993 0
M  V30 33 H 1.49684 -1.10429 2.02037 0
M  V30 34 H 1.1248 -1.47784 0.341784 0
M  V30 35 H 0.414219 0.749974 1.991 0
M  V30 36 H 1.47202 2.56578 1.34539 0
M  V30 37 H 0.928418 2.36087 -0.349721 0
M  V30 38 H -1.44256 -0.242969 2.69631 0
M  V30 39 H -0.710724 -1.66411 1.86589 0
M  V30 40 H -2.5637 -2.45221 2.87168 0
M  V30 41 H -3.6651 -1.18453 2.33751 0
M  V30 42 H -4.02326 -3.08281 0.893719 0
M  V30 43 H -2.28046 -3.46234 0.820647 0
M  V30 44 H -2.07119 -2.10924 -1.05204 0
M  V30 45 H -3.85255 -2.02935 -1.10103 0
M  V30 46 H -3.63085 -0.155508 0.666106 0
M  V30 47 H -2.45333 0.326085 -2.13386 0
M  V30 48 H -5.06657 -0.230066 -0.907224 0
M  V30 49 H -4.98491 0.821146 -2.20383 0
M  V30 50 H -2.86083 2.56346 -1.81954 0
M  V30 51 H -2.87687 2.21304 -0.0108664 0
M  V30 52 H -4.36155 2.17387 -0.953441 0
M  V30 END ATOM
M  V30 BEGIN BOND
M  V30 1 1 1 2
M  V30 2 1 2 3
M  V30 3 1 3 4
M  V30 4 1 4 5
M  V30 5 1 5 6
M  V30 6 1 6 7
M  V30 7 1 7 8
M  V30 8 1 8 9
M  V30 9 1 9 10
M  V30 10 1 9 11
M  V30 11 2 11 12
M  V30 12 1 11 13
M  V30 13 1 13 14
M  V30 14 1 14 15
M  V30 15 1 15 16
M  V30 16 1 16 17
M  V30 17 1 17 18
M  V30 18 1 18 19
M  V30 19 1 19 20
M  V30 20 1 19 21
M  V30 21 1 7 2
M  V30 22 1 18 13
M  V30 23 1 10 3
M  V30 24 1 1 22
M  V30 25 1 1 23
M  V30 26 1 2 24
M  V30 27 1 3 25
M  V30 28 1 4 26
M  V30 29 1 4 27
M  V30 30 1 5 28
M  V30 31 1 5 29
M  V30 32 1 6 30
M  V30 33 1 6 31
M  V30 34 1 7 32
M  V30 35 1 8 33
M  V30 36 1 8 34
M  V30 37 1 9 35
M  V30 38 1 10 36
M  V30 39 1 10 37
M  V30 40 1 14 38
M  V30 41 1 14 39
M  V30 42 1 15 40
M  V30 43 1 15 41
M  V30 44 1 16 42
M  V30 45 1 16 43
M  V30 46 1 17 44
M  V30 47 1 17 45
M  V30 48 1 18 46
M  V30 49 1 19 47
M  V30 50 1 20 48
M  V30 51 1 20 49
M  V30 52 1 21 50
M  V30 53 1 21 51
M  V30 54 1 21 52
M  V30 END BOND
M  V30 END CTAB
M  END
