
     RDKit          3D

  0  0  0  0  0  0  0  0  0  0999 V3000
M  V30 BEGIN CTAB
M  V30 COUNTS 23 22 0 0 0
M  V30 BEGIN ATOM
M  V30 1 N -0.885333 0.799526 -0.894708 0
M  V30 2 C -1.13423 0.136565 0.37051 0
M  V30 3 C -2.53524 0.460602 0.77068 0
M  V30 4 O -3.05068 0.0629289 1.84098 0
M  V30 5 O -3.28784 1.23187 -0.080779 0
M  V30 6 C -0.922008 -1.33586 0.252649 0
M  V30 7 C 0.427602 -1.77802 -0.158717 0
M  V30 8 N 1.52405 -1.4285 0.691382 0
M  V30 9 C 1.99879 -0.112312 0.854817 0
M  V30 10 N 2.69212 0.503178 -0.0535141 0
M  V30 11 N 3.15688 1.80821 0.118557 0
M  V30 12 H -1.21023 0.182347 -1.65275 0
M  V30 13 H -1.3505 1.72966 -0.895361 0
M  V30 14 H -0.499315 0.626832 1.13118 0
M  V30 15 H -3.66732 2.13206 0.164198 0
M  V30 16 H -1.09302 -1.7509 1.29472 0
M  V30 17 H -1.72238 -1.83975 -0.342065 0
M  V30 18 H 0.367631 -2.89392 -0.317214 0
M  V30 19 H 0.71176 -1.36046 -1.18019 0
M  V30 20 H 2.00642 -2.20273 1.22781 0
M  V30 21 H 1.8004 0.439684 1.75981 0
M  V30 22 H 2.509 2.56015 0.39606 0
M  V30 23 H 4.16344 2.02884 -0.0329375 0
M  V30 END ATOM
M  V30 BEGIN BOND
M  V30 1 1 1 2
M  V30 2 1 2 3
M  V30 3 2 3 4
M  V30 4 1 3 5
M  V30 5 1 2 6
M  V30 6 1 6 7
M  V30 7 1 7 8
M  V30 8 1 8 9
M  V30 9 2 9 10
M  V30 10 1 10 11
M  V30 11 1 1 12
M  V30 12 1 1 13
M  V30 13 1 2 14
M  V30 14 1 5 15
M  V30 15 1 6 16
M  V30 16 1 6 17
M  V30 17 1 7 18
M  V30 18 1 7 19
M  V30 19 1 8 20
M  V30 20 1 9 21
M  V30 21 1 11 22
M  V30 22 1 11 23
M  V30 END BOND
M  V30 END CTAB
M  END
