
     RDKit          3D

  0  0  0  0  0  0  0  0  0  0999 V3000
M  V30 BEGIN CTAB
M  V30 COUNTS 32 31 0 0 0
M  V30 BEGIN ATOM
M  V30 1 N 4.63728 1.9897 0.00873066 0
M  V30 2 C 3.59816 1.08356 -0.359452 0
M  V30 3 C 3.26991 0.116172 0.791567 0
M  V30 4 C 2.22097 -0.815429 0.382633 0
M  V30 5 C 0.861811 -0.209419 0.017614 0
M  V30 6 C 0.0285529 -1.39612 -0.363073 0
M  V30 7 N -1.33082 -1.16225 -0.700377 0
M  V30 8 C -2.11845 -0.765158 0.452207 0
M  V30 9 C -3.56632 -0.665507 0.0811768 0
M  V30 10 C -3.89844 0.314729 -0.980535 0
M  V30 11 N -3.52468 1.68958 -0.639991 0
M  V30 12 H 5.0443 1.71945 0.909011 0
M  V30 13 H 4.32944 2.96026 -0.0968048 0
M  V30 14 H 2.72408 1.66505 -0.693488 0
M  V30 15 H 3.91741 0.421761 -1.22073 0
M  V30 16 H 2.96147 0.706411 1.70922 0
M  V30 17 H 4.17332 -0.468101 1.06498 0
M  V30 18 H 2.01565 -1.6258 1.11987 0
M  V30 19 H 2.54076 -1.36231 -0.544781 0
M  V30 20 H 0.958209 0.531001 -0.808279 0
M  V30 21 H 0.491879 0.316861 0.921402 0
M  V30 22 H 0.54528 -1.87182 -1.22899 0
M  V30 23 H 0.106766 -2.11585 0.50365 0
M  V30 24 H -1.71937 -2.0614 -1.0509 0
M  V30 25 H -1.71685 0.177154 0.868084 0
M  V30 26 H -2.0305 -1.60931 1.18577 0
M  V30 27 H -4.21653 -0.463223 0.962052 0
M  V30 28 H -3.85892 -1.68533 -0.304643 0
M  V30 29 H -3.49452 0.00919627 -1.94371 0
M  V30 30 H -5.02464 0.318243 -1.07053 0
M  V30 31 H -3.83428 2.27123 -1.46694 0
M  V30 32 H -4.09093 1.98665 0.211685 0
M  V30 END ATOM
M  V30 BEGIN BOND
M  V30 1 1 1 2
M  V30 2 1 2 3
M  V30 3 1 3 4
M  V30 4 1 4 5
M  V30 5 1 5 6
M  V30 6 1 6 7
M  V30 7 1 7 8
M  V30 8 1 8 9
M  V30 9 1 9 10
M  V30 10 1 10 11
M  V30 11 1 1 12
M  V30 12 1 1 13
M  V30 13 1 2 14
M  V30 14 1 2 15
M  V30 15 1 3 16
M  V30 16 1 3 17
M  V30 17 1 4 18
M  V30 18 1 4 19
M  V30 19 1 5 20
M  V30 20 1 5 21
M  V30 21 1 6 22
M  V30 22 1 6 23
M  V30 23 1 7 24
M  V30 24 1 8 25
M  V30 25 1 8 26
M  V30 26 1 9 27
M  V30 27 1 9 28
M  V30 28 1 10 29
M  V30 29 1 10 30
M  V30 30 1 11 31
M  V30 31 1 11 32
M  V30 END BOND
M  V30 END CTAB
M  END
