
     RDKit          3D

  0  0  0  0  0  0  0  0  0  0999 V3000
M  V30 BEGIN CTAB
M  V30 COUNTS 35 35 0 0 0
M  V30 BEGIN ATOM
M  V30 1 N 4.49684 0.814307 0.190592 0
M  V30 2 C 3.76943 0.137326 1.18652 0
M  V30 3 N 2.46576 0.00443979 1.13889 0
M  V30 4 C 1.68373 0.54221 0.0629596 0
M  V30 5 C 0.534953 -0.360097 -0.325263 0
M  V30 6 O 1.04112 -1.59508 -0.731884 0
M  V30 7 C -0.250882 0.200393 -1.48436 0
M  V30 8 C -1.64795 -0.361656 -1.52378 0
M  V30 9 C -2.47501 0.00251253 -0.335755 0
M  V30 10 C -1.55661 0.407491 0.784351 0
M  V30 11 C -0.400571 -0.590455 0.834022 0
M  V30 12 C -3.40028 1.17943 -0.614472 0
M  V30 13 C -3.37091 -1.1557 0.108379 0
M  V30 14 N 4.50884 -0.410888 2.27119 0
M  V30 15 H 4.8717 0.292675 -0.609443 0
M  V30 16 H 4.64557 1.82611 0.274743 0
M  V30 17 H 1.32055 1.57155 0.262758 0
M  V30 18 H 2.3547 0.628591 -0.825406 0
M  V30 19 H 1.13507 -1.59922 -1.71618 0
M  V30 20 H 0.260144 -0.129706 -2.41553 0
M  V30 21 H -0.246707 1.30813 -1.50867 0
M  V30 22 H -2.12837 0.0375062 -2.45979 0
M  V30 23 H -1.55717 -1.46699 -1.68305 0
M  V30 24 H -1.08931 1.38361 0.489325 0
M  V30 25 H -2.0428 0.464159 1.76272 0
M  V30 26 H -0.796845 -1.63521 0.842071 0
M  V30 27 H 0.0903311 -0.442193 1.81955 0
M  V30 28 H -3.57046 1.68976 0.37115 0
M  V30 29 H -2.91732 1.89453 -1.28072 0
M  V30 30 H -4.40282 0.841488 -0.966538 0
M  V30 31 H -4.29637 -0.765714 0.614434 0
M  V30 32 H -2.8569 -1.77205 0.869782 0
M  V30 33 H -3.72971 -1.73796 -0.759571 0
M  V30 34 H 5.11676 0.149419 2.89527 0
M  V30 35 H 4.44149 -1.45369 2.46171 0
M  V30 END ATOM
M  V30 BEGIN BOND
M  V30 1 1 1 2
M  V30 2 2 2 3 CFG=2
M  V30 3 1 3 4
M  V30 4 1 4 5
M  V30 5 1 5 6
M  V30 6 1 5 7
M  V30 7 1 7 8
M  V30 8 1 8 9
M  V30 9 1 9 10
M  V30 10 1 10 11
M  V30 11 1 9 12
M  V30 12 1 9 13
M  V30 13 1 2 14
M  V30 14 1 11 5
M  V30 15 1 1 15
M  V30 16 1 1 16
M  V30 17 1 4 17
M  V30 18 1 4 18
M  V30 19 1 6 19
M  V30 20 1 7 20
M  V30 21 1 7 21
M  V30 22 1 8 22
M  V30 23 1 8 23
M  V30 24 1 10 24
M  V30 25 1 10 25
M  V30 26 1 11 26
M  V30 27 1 11 27
M  V30 28 1 12 28
M  V30 29 1 12 29
M  V30 30 1 12 30
M  V30 31 1 13 31
M  V30 32 1 13 32
M  V30 33 1 13 33
M  V30 34 1 14 34
M  V30 35 1 14 35
M  V30 END BOND
M  V30 END CTAB
M  END
