
     RDKit          3D

  0  0  0  0  0  0  0  0  0  0999 V3000
M  V30 BEGIN CTAB
M  V30 COUNTS 28 29 0 0 0
M  V30 BEGIN ATOM
M  V30 1 N -1.60031 0.673348 -2.09096 0
M  V30 2 C -1.97076 -0.377625 -1.16616 0
M  V30 3 C -1.22416 -0.226268 0.131121 0
M  V30 4 C -1.54612 -1.28029 1.17169 0
M  V30 5 C -2.74026 -0.420319 1.54992 0
M  V30 6 C -1.92291 0.774064 1.0328 0
M  V30 7 C 0.218965 -0.0814309 -0.0183264 0
M  V30 8 N 1.13188 0.0770931 0.947265 0
M  V30 9 N 2.32651 0.167073 0.393753 0
M  V30 10 C 2.20171 0.0686216 -0.933367 0
M  V30 11 N 0.890393 -0.0856491 -1.17819 0
M  V30 12 N 3.18262 0.107698 -1.95149 0
M  V30 13 C 3.58219 0.345017 1.09691 0
M  V30 14 H -2.45037 1.06535 -2.56338 0
M  V30 15 H -1.126 1.47482 -1.59347 0
M  V30 16 H -3.06325 -0.42175 -1.04935 0
M  V30 17 H -1.61536 -1.33601 -1.63942 0
M  V30 18 H -1.76004 -2.27619 0.790612 0
M  V30 19 H -0.768782 -1.21886 1.99069 0
M  V30 20 H -2.9203 -0.396133 2.63308 0
M  V30 21 H -3.62221 -0.647913 0.920355 0
M  V30 22 H -2.5882 1.46217 0.478006 0
M  V30 23 H -1.31042 1.20743 1.83486 0
M  V30 24 H 4.05398 -0.433438 -1.81856 0
M  V30 25 H 3.0122 0.670418 -2.79789 0
M  V30 26 H 4.43144 0.0244079 0.456703 0
M  V30 27 H 3.5387 -0.325635 1.98768 0
M  V30 28 H 3.65886 1.40999 1.38511 0
M  V30 END ATOM
M  V30 BEGIN BOND
M  V30 1 1 1 2
M  V30 2 1 2 3
M  V30 3 1 3 4
M  V30 4 1 4 5
M  V30 5 1 5 6
M  V30 6 1 3 7
M  V30 7 2 7 8
M  V30 8 1 8 9
M  V30 9 1 9 10
M  V30 10 2 10 11
M  V30 11 1 10 12
M  V30 12 1 9 13
M  V30 13 1 6 3
M  V30 14 1 11 7
M  V30 15 1 1 14
M  V30 16 1 1 15
M  V30 17 1 2 16
M  V30 18 1 2 17
M  V30 19 1 4 18
M  V30 20 1 4 19
M  V30 21 1 5 20
M  V30 22 1 5 21
M  V30 23 1 6 22
M  V30 24 1 6 23
M  V30 25 1 12 24
M  V30 26 1 12 25
M  V30 27 1 13 26
M  V30 28 1 13 27
M  V30 29 1 13 28
M  V30 END BOND
M  V30 END CTAB
M  END
