
     RDKit          3D

  0  0  0  0  0  0  0  0  0  0999 V3000
M  V30 BEGIN CTAB
M  V30 COUNTS 30 30 0 0 0
M  V30 BEGIN ATOM
M  V30 1 C -3.4108 0.645704 1.02973 0
M  V30 2 C -2.59377 0.188014 -0.159818 0
M  V30 3 C -1.12872 0.221238 0.26138 0
M  V30 4 O -0.305746 -0.205999 -0.835625 0
M  V30 5 C 1.06621 -0.255825 -0.683025 0
M  V30 6 C 1.79328 -0.682262 -1.79879 0
M  V30 7 N 3.13583 -0.752617 -1.71407 0
M  V30 8 C 3.76391 -0.412852 -0.559614 0
M  V30 9 C 3.03866 0.00680139 0.536256 0
M  V30 10 N 1.69029 0.0812927 0.462624 0
M  V30 11 N 3.72933 0.35395 1.72664 0
M  V30 12 N 5.1798 -0.47844 -0.444459 0
M  V30 13 C -2.8618 1.14489 -1.28676 0
M  V30 14 C -2.9946 -1.20282 -0.554278 0
M  V30 15 H -3.22847 1.69277 1.28502 0
M  V30 16 H -3.11747 -0.0102164 1.88943 0
M  V30 17 H -4.48372 0.435865 0.830135 0
M  V30 18 H -0.846207 1.25231 0.493532 0
M  V30 19 H -0.998452 -0.457709 1.12876 0
M  V30 20 H 1.28078 -0.950544 -2.71404 0
M  V30 21 H 3.36983 0.13621 2.68917 0
M  V30 22 H 4.65425 0.856939 1.69337 0
M  V30 23 H 5.78863 0.340756 -0.519809 0
M  V30 24 H 5.59639 -1.42536 -0.273906 0
M  V30 25 H -2.25464 2.05508 -1.09358 0
M  V30 26 H -2.59959 0.65086 -2.23535 0
M  V30 27 H -3.92747 1.46576 -1.30212 0
M  V30 28 H -2.13873 -1.90973 -0.565363 0
M  V30 29 H -3.46312 -1.18978 -1.56496 0
M  V30 30 H -3.7339 -1.59427 0.155323 0
M  V30 END ATOM
M  V30 BEGIN BOND
M  V30 1 1 1 2
M  V30 2 1 2 3
M  V30 3 1 3 4
M  V30 4 1 4 5
M  V30 5 2 5 6
M  V30 6 1 6 7
M  V30 7 2 7 8
M  V30 8 1 8 9
M  V30 9 2 9 10
M  V30 10 1 9 11
M  V30 11 1 8 12
M  V30 12 1 2 13
M  V30 13 1 2 14
M  V30 14 1 10 5
M  V30 15 1 1 15
M  V30 16 1 1 16
M  V30 17 1 1 17
M  V30 18 1 3 18
M  V30 19 1 3 19
M  V30 20 1 6 20
M  V30 21 1 11 21
M  V30 22 1 11 22
M  V30 23 1 12 23
M  V30 24 1 12 24
M  V30 25 1 13 25
M  V30 26 1 13 26
M  V30 27 1 13 27
M  V30 28 1 14 28
M  V30 29 1 14 29
M  V30 30 1 14 30
M  V30 END BOND
M  V30 END CTAB
M  END
