
     RDKit          3D

  0  0  0  0  0  0  0  0  0  0999 V3000
M  V30 BEGIN CTAB
M  V30 COUNTS 48 50 0 0 0
M  V30 BEGIN ATOM
M  V30 1 C 4.53238 3.86463 -0.162533 0
M  V30 2 C 3.83443 2.79394 -0.982302 0
M  V30 3 O 3.60061 1.66569 -0.193616 0
M  V30 4 C 2.84218 1.62013 0.954906 0
M  V30 5 O 2.27446 2.62093 1.39427 0
M  V30 6 C 2.71898 0.304808 1.68191 0
M  V30 7 C 2.4384 -0.667822 0.536315 0
M  V30 8 C 2.37466 -2.10584 0.915115 0
M  V30 9 C 1.23883 -2.72435 1.37842 0
M  V30 10 C 1.20092 -4.12987 1.50268 0
M  V30 11 C 2.32512 -4.82423 1.14814 0
M  V30 12 C 3.49437 -4.19354 0.681478 0
M  V30 13 C 3.51681 -2.83647 0.566485 0
M  V30 14 Cl 4.98966 -1.97584 0.0621618 0
M  V30 15 N 0.990771 -0.384885 0.330518 0
M  V30 16 C 0.247277 -0.259902 -0.8165 0
M  V30 17 O 0.639775 -0.353925 -1.98041 0
M  V30 18 C -1.20695 0.0103546 -0.60059 0
M  V30 19 S -1.96508 0.14432 0.918852 0
M  V30 20 C -3.55798 0.441628 0.432152 0
M  V30 21 C -3.46062 0.430155 -0.920486 0
M  V30 22 C -2.22782 0.204907 -1.46868 0
M  V30 23 N -1.95128 0.157058 -2.89357 0
M  V30 24 C -4.66712 0.648065 -1.61217 0
M  V30 25 C -5.8293 0.850262 -0.903866 0
M  V30 26 C -5.87871 0.849103 0.4918 0
M  V30 27 N -4.71432 0.641642 1.13249 0
M  V30 28 N -7.10307 1.0414 1.17698 0
M  V30 29 C -7.07758 1.1098 -1.57774 0
M  V30 30 N -8.07643 1.34877 -2.10381 0
M  V30 31 H 5.09696 3.46109 0.715628 0
M  V30 32 H 3.85343 4.6829 0.143042 0
M  V30 33 H 5.3148 4.34389 -0.844214 0
M  V30 34 H 2.95465 3.2334 -1.47279 0
M  V30 35 H 4.55655 2.47701 -1.78886 0
M  V30 36 H 3.62314 0.0558026 2.2261 0
M  V30 37 H 1.87435 0.400425 2.36483 0
M  V30 38 H 3.03814 -0.485335 -0.311926 0
M  V30 39 H 0.324656 -2.22265 1.67691 0
M  V30 40 H 0.297935 -4.60298 1.83327 0
M  V30 41 H 2.33386 -5.9228 1.20652 0
M  V30 42 H 4.36755 -4.75592 0.414704 0
M  V30 43 H 0.510429 -0.272993 1.30281 0
M  V30 44 H -1.61996 -0.664152 -3.38433 0
M  V30 45 H -2.11043 1.03364 -3.41672 0
M  V30 46 H -4.74121 0.665992 -2.67738 0
M  V30 47 H -7.8108 1.80729 0.936995 0
M  V30 48 H -7.4074 0.474449 1.98702 0
M  V30 END ATOM
M  V30 BEGIN BOND
M  V30 1 1 1 2
M  V30 2 1 2 3
M  V30 3 1 3 4
M  V30 4 2 4 5
M  V30 5 1 4 6
M  V30 6 1 6 7
M  V30 7 1 7 8
M  V30 8 2 8 9
M  V30 9 1 9 10
M  V30 10 2 10 11
M  V30 11 1 11 12
M  V30 12 2 12 13
M  V30 13 1 13 14
M  V30 14 1 7 15
M  V30 15 1 15 16
M  V30 16 2 16 17
M  V30 17 1 16 18
M  V30 18 1 18 19
M  V30 19 1 19 20
M  V30 20 2 20 21
M  V30 21 1 21 22
M  V30 22 1 22 23
M  V30 23 1 21 24
M  V30 24 2 24 25
M  V30 25 1 25 26
M  V30 26 2 26 27
M  V30 27 1 26 28
M  V30 28 1 25 29
M  V30 29 3 29 30
M  V30 30 1 13 8
M  V30 31 2 22 18
M  V30 32 1 27 20
M  V30 33 1 1 31
M  V30 34 1 1 32
M  V30 35 1 1 33
M  V30 36 1 2 34
M  V30 37 1 2 35
M  V30 38 1 6 36
M  V30 39 1 6 37
M  V30 40 1 7 38
M  V30 41 1 9 39
M  V30 42 1 10 40
M  V30 43 1 11 41
M  V30 44 1 12 42
M  V30 45 1 15 43
M  V30 46 1 23 44
M  V30 47 1 23 45
M  V30 48 1 24 46
M  V30 49 1 28 47
M  V30 50 1 28 48
M  V30 END BOND
M  V30 END CTAB
M  END
