
     RDKit          3D

  0  0  0  0  0  0  0  0  0  0999 V3000
M  V30 BEGIN CTAB
M  V30 COUNTS 18 18 0 0 0
M  V30 BEGIN ATOM
M  V30 1 N -2.6529 -1.08262 -0.334522 0
M  V30 2 C -1.32669 -0.571477 -0.173816 0
M  V30 3 C -0.269719 -1.3679 -0.254482 0
M  V30 4 C 1.0821 -0.845251 -0.0903915 0
M  V30 5 N 2.08899 -1.64528 -0.174406 0
M  V30 6 C 1.33247 0.568893 0.168435 0
M  V30 7 N 2.65656 1.08786 0.330358 0
M  V30 8 C 0.26933 1.35548 0.247063 0
M  V30 9 C -1.08801 0.843762 0.0845639 0
M  V30 10 N -2.10347 1.62875 0.165495 0
M  V30 11 H -2.84189 -2.09503 -0.270756 0
M  V30 12 H -3.41178 -0.386109 -0.51769 0
M  V30 13 H -0.469033 -2.42744 -0.44907 0
M  V30 14 H 1.94329 -2.66322 -0.35884 0
M  V30 15 H 3.16415 0.890574 1.22007 0
M  V30 16 H 3.1488 1.65031 -0.381253 0
M  V30 17 H 0.461011 2.40719 0.43986 0
M  V30 18 H -1.98319 2.65153 0.349382 0
M  V30 END ATOM
M  V30 BEGIN BOND
M  V30 1 1 1 2
M  V30 2 2 2 3
M  V30 3 1 3 4
M  V30 4 2 4 5 CFG=2
M  V30 5 1 4 6
M  V30 6 1 6 7
M  V30 7 2 6 8
M  V30 8 1 8 9
M  V30 9 2 9 10 CFG=2
M  V30 10 1 9 2
M  V30 11 1 1 11
M  V30 12 1 1 12
M  V30 13 1 3 13
M  V30 14 1 5 14
M  V30 15 1 7 15
M  V30 16 1 7 16
M  V30 17 1 8 17
M  V30 18 1 10 18
M  V30 END BOND
M  V30 END CTAB
M  END
