
     RDKit          3D

  0  0  0  0  0  0  0  0  0  0999 V3000
M  V30 BEGIN CTAB
M  V30 COUNTS 48 51 0 0 0
M  V30 BEGIN ATOM
M  V30 1 C -5.69968 -1.39877 1.291 0
M  V30 2 C -4.69353 -0.381754 1.78987 0
M  V30 3 N -3.75553 0.00490656 0.781393 0
M  V30 4 C -2.56489 -0.556263 0.525255 0
M  V30 5 C -1.86997 -1.60515 1.08801 0
M  V30 6 C -0.616732 -1.97855 0.610777 0
M  V30 7 C 0.00418721 -1.34203 -0.434494 0
M  V30 8 C -0.740796 -0.274378 -0.981855 0
M  V30 9 C -1.96946 0.102963 -0.524429 0
M  V30 10 C -2.83034 1.12018 -0.938675 0
M  V30 11 C -3.91361 1.01299 -0.100434 0
M  V30 12 C -4.95258 1.92817 -0.296301 0
M  V30 13 C -4.92482 2.89908 -1.2689 0
M  V30 14 C -3.814 2.95745 -2.07729 0
M  V30 15 C -2.74965 2.0742 -1.93039 0
M  V30 16 N 1.25994 -1.65954 -0.983988 0
M  V30 17 C 1.98208 -2.83223 -0.822701 0
M  V30 18 O 1.51534 -3.78163 -0.135043 0
M  V30 19 C 3.30264 -3.04136 -1.42798 0
M  V30 20 S 4.09784 -1.64501 -2.17012 0
M  V30 21 C 4.67901 -0.409613 -1.03937 0
M  V30 22 N 5.92357 -0.49776 -0.49729 0
M  V30 23 C 6.40552 0.4179 0.33184 0
M  V30 24 N 7.72388 0.297419 0.885253 0
M  V30 25 C 5.63642 1.52223 0.682635 0
M  V30 26 C 4.3818 1.5942 0.125952 0
M  V30 27 N 3.96409 0.651833 -0.689248 0
M  V30 28 N 3.56535 2.73783 0.469771 0
M  V30 29 H -5.31634 -2.43244 1.35306 0
M  V30 30 H -6.01518 -1.17279 0.251357 0
M  V30 31 H -6.56206 -1.3378 1.98586 0
M  V30 32 H -5.16303 0.500874 2.25866 0
M  V30 33 H -4.14033 -0.889708 2.62612 0
M  V30 34 H -2.32342 -2.14581 1.9255 0
M  V30 35 H -0.120748 -2.80809 1.10874 0
M  V30 36 H -0.296277 0.260495 -1.80984 0
M  V30 37 H -5.80878 1.85004 0.361491 0
M  V30 38 H -5.73289 3.60791 -1.41606 0
M  V30 39 H -3.71476 3.69035 -2.86246 0
M  V30 40 H -1.87382 2.1478 -2.59523 0
M  V30 41 H 1.6964 -0.91907 -1.6102 0
M  V30 42 H 3.15393 -3.81131 -2.24803 0
M  V30 43 H 3.92989 -3.55456 -0.644068 0
M  V30 44 H 7.93372 0.740374 1.79173 0
M  V30 45 H 8.43924 -0.22905 0.373051 0
M  V30 46 H 6.0312 2.27792 1.36525 0
M  V30 47 H 3.70714 3.23814 1.36445 0
M  V30 48 H 2.83004 3.06939 -0.176245 0
M  V30 END ATOM
M  V30 BEGIN BOND
M  V30 1 1 1 2
M  V30 2 1 2 3
M  V30 3 1 3 4
M  V30 4 2 4 5
M  V30 5 1 5 6
M  V30 6 2 6 7
M  V30 7 1 7 8
M  V30 8 2 8 9
M  V30 9 1 9 10
M  V30 10 2 10 11
M  V30 11 1 11 12
M  V30 12 2 12 13
M  V30 13 1 13 14
M  V30 14 2 14 15
M  V30 15 1 7 16
M  V30 16 1 16 17
M  V30 17 2 17 18
M  V30 18 1 17 19
M  V30 19 1 19 20
M  V30 20 1 20 21
M  V30 21 2 21 22
M  V30 22 1 22 23
M  V30 23 1 23 24
M  V30 24 2 23 25
M  V30 25 1 25 26
M  V30 26 2 26 27
M  V30 27 1 26 28
M  V30 28 1 11 3
M  V30 29 1 27 21
M  V30 30 1 9 4
M  V30 31 1 15 10
M  V30 32 1 1 29
M  V30 33 1 1 30
M  V30 34 1 1 31
M  V30 35 1 2 32
M  V30 36 1 2 33
M  V30 37 1 5 34
M  V30 38 1 6 35
M  V30 39 1 8 36
M  V30 40 1 12 37
M  V30 41 1 13 38
M  V30 42 1 14 39
M  V30 43 1 15 40
M  V30 44 1 16 41
M  V30 45 1 19 42
M  V30 46 1 19 43
M  V30 47 1 24 44
M  V30 48 1 24 45
M  V30 49 1 25 46
M  V30 50 1 28 47
M  V30 51 1 28 48
M  V30 END BOND
M  V30 END CTAB
M  END
