
     RDKit          3D

  0  0  0  0  0  0  0  0  0  0999 V3000
M  V30 BEGIN CTAB
M  V30 COUNTS 48 49 0 0 0
M  V30 BEGIN ATOM
M  V30 1 N 2.73522 -3.11525 -1.24008 0
M  V30 2 C 2.62098 -2.68114 0.126709 0
M  V30 3 C 1.60885 -1.60547 0.33572 0 CFG=2
M  V30 4 C 0.203623 -2.03351 -0.0726126 0
M  V30 5 N -0.483163 -0.727902 0.0713427 0
M  V30 6 C 0.45747 0.314025 -0.2655 0
M  V30 7 C 1.75822 -0.425777 -0.564108 0 CFG=1
M  V30 8 C 2.94689 0.376059 -0.359987 0
M  V30 9 C 3.80369 0.648709 -1.4077 0
M  V30 10 C 4.9421 1.40964 -1.23973 0
M  V30 11 C 5.25435 1.92588 0.0097495 0
M  V30 12 C 4.40646 1.66155 1.06802 0
M  V30 13 C 3.26123 0.890189 0.876091 0
M  V30 14 C -1.82599 -0.621816 0.473634 0
M  V30 15 O -2.47666 -1.70803 0.724851 0
M  V30 16 C -2.54342 0.632486 0.629313 0 CFG=2
M  V30 17 C -3.85374 0.674224 -0.131066 0
M  V30 18 C -4.49769 2.02209 0.111794 0
M  V30 19 C -3.64508 0.500328 -1.61387 0
M  V30 20 C -4.82043 -0.378957 0.33631 0
M  V30 21 N -1.74031 1.76297 0.329484 0
M  V30 22 H 2.05987 -3.86817 -1.49 0
M  V30 23 H 3.69068 -3.5597 -1.33246 0
M  V30 24 H 3.60264 -2.28675 0.44175 0
M  V30 25 H 2.31542 -3.55622 0.74622 0
M  V30 26 H 1.5988 -1.31172 1.38458 0
M  V30 27 H -0.225175 -2.78637 0.581363 0
M  V30 28 H 0.17761 -2.26308 -1.1436 0
M  V30 29 H 0.155797 0.939413 -1.12906 0
M  V30 30 H 0.625505 0.914483 0.657216 0
M  V30 31 H 1.67159 -0.753426 -1.62892 0
M  V30 32 H 3.61311 0.270446 -2.41761 0
M  V30 33 H 5.62337 1.63304 -2.04691 0
M  V30 34 H 6.14448 2.51644 0.123752 0
M  V30 35 H 4.62421 2.04575 2.03409 0
M  V30 36 H 2.58195 0.669273 1.68822 0
M  V30 37 H -2.82492 0.700608 1.72617 0
M  V30 38 H -5.17625 2.31304 -0.713563 0
M  V30 39 H -3.74638 2.83814 0.195542 0
M  V30 40 H -5.095 2.03263 1.05188 0
M  V30 41 H -3.55506 -0.584174 -1.89149 0
M  V30 42 H -2.69362 0.965007 -1.97156 0
M  V30 43 H -4.44896 0.962615 -2.213 0
M  V30 44 H -4.63704 -0.712407 1.3737 0
M  V30 45 H -4.80783 -1.28293 -0.305682 0
M  V30 46 H -5.87783 0.00129585 0.30039 0
M  V30 47 H -1.57865 2.40862 1.1251 0
M  V30 48 H -1.9309 2.23387 -0.56812 0
M  V30 END ATOM
M  V30 BEGIN BOND
M  V30 1 1 1 2
M  V30 2 1 2 3
M  V30 3 1 3 4
M  V30 4 1 4 5
M  V30 5 1 5 6
M  V30 6 1 6 7
M  V30 7 1 7 8
M  V30 8 2 8 9
M  V30 9 1 9 10
M  V30 10 2 10 11
M  V30 11 1 11 12
M  V30 12 2 12 13
M  V30 13 1 5 14
M  V30 14 2 14 15
M  V30 15 1 14 16
M  V30 16 1 16 17
M  V30 17 1 17 18
M  V30 18 1 17 19
M  V30 19 1 17 20
M  V30 20 1 16 21
M  V30 21 1 7 3
M  V30 22 1 13 8
M  V30 23 1 1 22
M  V30 24 1 1 23
M  V30 25 1 2 24
M  V30 26 1 2 25
M  V30 27 1 3 26 CFG=1
M  V30 28 1 4 27
M  V30 29 1 4 28
M  V30 30 1 6 29
M  V30 31 1 6 30
M  V30 32 1 7 31 CFG=3
M  V30 33 1 9 32
M  V30 34 1 10 33
M  V30 35 1 11 34
M  V30 36 1 12 35
M  V30 37 1 13 36
M  V30 38 1 16 37 CFG=1
M  V30 39 1 18 38
M  V30 40 1 18 39
M  V30 41 1 18 40
M  V30 42 1 19 41
M  V30 43 1 19 42
M  V30 44 1 19 43
M  V30 45 1 20 44
M  V30 46 1 20 45
M  V30 47 1 20 46
M  V30 48 1 21 47
M  V30 49 1 21 48
M  V30 END BOND
M  V30 END CTAB
M  END
