
     RDKit          3D

  0  0  0  0  0  0  0  0  0  0999 V3000
M  V30 BEGIN CTAB
M  V30 COUNTS 22 23 0 0 0
M  V30 BEGIN ATOM
M  V30 1 N -2.83494 -1.48948 -0.154234 0
M  V30 2 C -1.62267 -0.736079 -0.0598765 0
M  V30 3 C -0.425991 -1.38198 -0.295129 0
M  V30 4 C 0.782248 -0.678047 -0.212179 0
M  V30 5 C 0.781008 0.658622 0.1038 0
M  V30 6 N 1.934 1.34558 0.186564 0
M  V30 7 C 3.13701 0.752234 -0.0366918 0
M  V30 8 C 3.14093 -0.577782 -0.351279 0
M  V30 9 C 1.98061 -1.31659 -0.445797 0
M  V30 10 O 1.95221 -2.53805 -0.732505 0
M  V30 11 C -0.434674 1.2798 0.334523 0
M  V30 12 Cl -0.385251 2.9835 0.733738 0
M  V30 13 C -1.63455 0.606467 0.258224 0
M  V30 14 N -2.84619 1.30606 0.50722 0
M  V30 15 H -3.4129 -1.72597 0.68596 0
M  V30 16 H -3.18582 -1.83427 -1.09585 0
M  V30 17 H -0.358493 -2.42663 -0.546666 0
M  V30 18 H 1.89598 2.35974 0.42886 0
M  V30 19 H 4.05831 1.30187 0.0296099 0
M  V30 20 H 4.096 -1.08368 -0.536748 0
M  V30 21 H -2.88524 2.35075 0.390525 0
M  V30 22 H -3.73159 0.843931 0.807934 0
M  V30 END ATOM
M  V30 BEGIN BOND
M  V30 1 1 1 2
M  V30 2 2 2 3
M  V30 3 1 3 4
M  V30 4 2 4 5
M  V30 5 1 5 6
M  V30 6 1 6 7
M  V30 7 2 7 8
M  V30 8 1 8 9
M  V30 9 2 9 10
M  V30 10 1 5 11
M  V30 11 1 11 12
M  V30 12 2 11 13
M  V30 13 1 13 14
M  V30 14 1 13 2
M  V30 15 1 9 4
M  V30 16 1 1 15
M  V30 17 1 1 16
M  V30 18 1 3 17
M  V30 19 1 6 18
M  V30 20 1 7 19
M  V30 21 1 8 20
M  V30 22 1 14 21
M  V30 23 1 14 22
M  V30 END BOND
M  V30 END CTAB
M  END
