
     RDKit          3D

  0  0  0  0  0  0  0  0  0  0999 V3000
M  V30 BEGIN CTAB
M  V30 COUNTS 23 22 0 0 0
M  V30 BEGIN ATOM
M  V30 1 N 4.28608 -0.770461 0.725366 0
M  V30 2 C 3.44803 0.38901 0.490561 0
M  V30 3 C 2.09251 -0.119231 0.00728318 0
M  V30 4 O 1.29094 1.01011 -0.216394 0
M  V30 5 C -0.00426152 0.83741 -0.664532 0
M  V30 6 C -0.825011 -0.0323291 -0.125604 0
M  V30 7 C -2.19299 -0.126515 -0.694368 0
M  V30 8 N -2.78589 -1.42744 -0.498598 0
M  V30 9 C -3.01953 0.893687 0.0293843 0
M  V30 10 O -4.15996 0.496415 0.740682 0
M  V30 11 O -2.66674 2.10418 -0.0175073 0
M  V30 12 H 4.10427 -1.50212 0.00450449 0
M  V30 13 H 4.16364 -1.10019 1.69628 0
M  V30 14 H 3.85424 1.06587 -0.274502 0
M  V30 15 H 3.30693 0.88436 1.47445 0
M  V30 16 H 1.60459 -0.741046 0.783762 0
M  V30 17 H 2.26098 -0.733611 -0.892196 0
M  V30 18 H -0.352159 1.43608 -1.48306 0
M  V30 19 H -0.465832 -0.631941 0.699446 0
M  V30 20 H -2.14739 0.11486 -1.77855 0
M  V30 21 H -3.68575 -1.43378 -1.02634 0
M  V30 22 H -3.03868 -1.50209 0.507404 0
M  V30 23 H -5.06801 0.888772 0.466631 0
M  V30 END ATOM
M  V30 BEGIN BOND
M  V30 1 1 1 2
M  V30 2 1 2 3
M  V30 3 1 3 4
M  V30 4 1 4 5
M  V30 5 2 5 6
M  V30 6 1 6 7
M  V30 7 1 7 8
M  V30 8 1 7 9
M  V30 9 1 9 10
M  V30 10 2 9 11
M  V30 11 1 1 12
M  V30 12 1 1 13
M  V30 13 1 2 14
M  V30 14 1 2 15
M  V30 15 1 3 16
M  V30 16 1 3 17
M  V30 17 1 5 18
M  V30 18 1 6 19
M  V30 19 1 7 20
M  V30 20 1 8 21
M  V30 21 1 8 22
M  V30 22 1 10 23
M  V30 END BOND
M  V30 END CTAB
M  END
