
     RDKit          3D

  0  0  0  0  0  0  0  0  0  0999 V3000
M  V30 BEGIN CTAB
M  V30 COUNTS 43 44 0 0 0
M  V30 BEGIN ATOM
M  V30 1 N 5.20916 -1.45757 -0.765629 0
M  V30 2 C 4.28603 -0.400777 -0.510163 0
M  V30 3 N 4.68545 0.739717 0.0587769 0
M  V30 4 C 3.79777 1.73844 0.297024 0
M  V30 5 N 4.20911 2.96458 0.904897 0
M  V30 6 N 2.51734 1.53642 -0.057893 0
M  V30 7 C 2.06198 0.411594 -0.631926 0
M  V30 8 C 2.9802 -0.596483 -0.867737 0
M  V30 9 N 0.720938 0.263757 -0.976501 0
M  V30 10 C 0.0655169 -0.866462 -1.5956 0
M  V30 11 C -1.40522 -0.757996 -1.14655 0 CFG=2
M  V30 12 C -1.3978 0.345871 -0.133967 0 CFG=1
M  V30 13 C -0.322382 1.2474 -0.776455 0
M  V30 14 N -2.64482 1.01825 -0.0447267 0
M  V30 15 S -3.21989 1.36836 1.50926 0
M  V30 16 O -4.51941 2.14729 1.33989 0
M  V30 17 O -3.55628 0.177661 2.33602 0
M  V30 18 C -2.12845 2.45163 2.41118 0
M  V30 19 C -1.85995 -2.09338 -0.644884 0
M  V30 20 C -1.12026 -2.62911 0.524523 0
M  V30 21 C -3.34492 -2.10721 -0.439355 0
M  V30 22 H 4.94296 -2.42805 -0.50186 0
M  V30 23 H 6.11787 -1.27831 -1.19889 0
M  V30 24 H 3.67477 3.36379 1.71172 0
M  V30 25 H 5.03922 3.4543 0.54097 0
M  V30 26 H 2.60084 -1.49298 -1.3287 0
M  V30 27 H 0.0941509 -0.744392 -2.71076 0
M  V30 28 H 0.516754 -1.82058 -1.32772 0
M  V30 29 H -2.01823 -0.42872 -2.00582 0
M  V30 30 H -0.996635 0.0850104 0.851109 0
M  V30 31 H -0.661013 1.5751 -1.75926 0
M  V30 32 H 0.0128716 2.02498 -0.0981588 0
M  V30 33 H -2.78818 1.80409 -0.685726 0
M  V30 34 H -2.32353 3.4906 2.08168 0
M  V30 35 H -1.08081 2.16192 2.33488 0
M  V30 36 H -2.4277 2.39067 3.47774 0
M  V30 37 H -1.67118 -2.83365 -1.49454 0
M  V30 38 H -1.61389 -2.37978 1.4949 0
M  V30 39 H -0.0520257 -2.39932 0.521364 0
M  V30 40 H -1.18894 -3.75651 0.483457 0
M  V30 41 H -3.76321 -1.17052 -0.849224 0
M  V30 42 H -3.58776 -2.17908 0.661146 0
M  V30 43 H -3.84044 -2.94056 -0.988514 0
M  V30 END ATOM
M  V30 BEGIN BOND
M  V30 1 1 1 2
M  V30 2 2 2 3
M  V30 3 1 3 4
M  V30 4 1 4 5
M  V30 5 2 4 6
M  V30 6 1 6 7
M  V30 7 2 7 8
M  V30 8 1 7 9
M  V30 9 1 9 10
M  V30 10 1 10 11
M  V30 11 1 11 12
M  V30 12 1 12 13
M  V30 13 1 12 14
M  V30 14 1 14 15
M  V30 15 2 15 16
M  V30 16 2 15 17
M  V30 17 1 15 18
M  V30 18 1 11 19
M  V30 19 1 19 20
M  V30 20 1 19 21
M  V30 21 1 8 2
M  V30 22 1 13 9
M  V30 23 1 1 22
M  V30 24 1 1 23
M  V30 25 1 5 24
M  V30 26 1 5 25
M  V30 27 1 8 26
M  V30 28 1 10 27
M  V30 29 1 10 28
M  V30 30 1 11 29 CFG=3
M  V30 31 1 12 30 CFG=1
M  V30 32 1 13 31
M  V30 33 1 13 32
M  V30 34 1 14 33
M  V30 35 1 18 34
M  V30 36 1 18 35
M  V30 37 1 18 36
M  V30 38 1 19 37
M  V30 39 1 20 38
M  V30 40 1 20 39
M  V30 41 1 20 40
M  V30 42 1 21 41
M  V30 43 1 21 42
M  V30 44 1 21 43
M  V30 END BOND
M  V30 END CTAB
M  END
