
     RDKit          3D

  0  0  0  0  0  0  0  0  0  0999 V3000
M  V30 BEGIN CTAB
M  V30 COUNTS 26 27 0 0 0
M  V30 BEGIN ATOM
M  V30 1 N 4.22884 -0.0914791 1.1024 0
M  V30 2 N 2.95713 0.367329 0.809697 0
M  V30 3 C 2.46367 1.57185 1.17809 0
M  V30 4 N 1.19352 1.65454 0.715744 0
M  V30 5 C 0.850115 0.526675 0.0526091 0
M  V30 6 C 1.97169 -0.278552 0.11961 0
M  V30 7 N 2.11003 -1.58266 -0.424673 0
M  V30 8 C -0.412718 0.211764 -0.584765 0
M  V30 9 C -0.621736 -0.0761731 -1.93915 0
M  V30 10 N -1.93381 -0.279582 -2.11392 0
M  V30 11 N -2.56839 -0.137024 -0.943078 0
M  V30 12 C -1.65548 0.160614 -0.00732826 0
M  V30 13 C -1.96845 0.377063 1.4198 0
M  V30 14 C -3.99803 -0.294774 -0.796235 0
M  V30 15 H 4.47437 -0.329619 2.0793 0
M  V30 16 H 4.92638 -0.203084 0.358804 0
M  V30 17 H 3.03369 2.30595 1.74826 0
M  V30 18 H 2.6922 -1.6967 -1.27785 0
M  V30 19 H 1.64872 -2.41363 -0.0091815 0
M  V30 20 H 0.159799 -0.111358 -2.66905 0
M  V30 21 H -1.13368 0.735092 2.02562 0
M  V30 22 H -2.34498 -0.611544 1.80691 0
M  V30 23 H -2.84051 1.0755 1.46356 0
M  V30 24 H -4.37135 -1.30333 -1.03448 0
M  V30 25 H -4.3396 0.015262 0.206383 0
M  V30 26 H -4.52142 0.407863 -1.50815 0
M  V30 END ATOM
M  V30 BEGIN BOND
M  V30 1 1 1 2
M  V30 2 1 2 3
M  V30 3 2 3 4
M  V30 4 1 4 5
M  V30 5 2 5 6
M  V30 6 1 6 7
M  V30 7 1 5 8
M  V30 8 1 8 9
M  V30 9 2 9 10
M  V30 10 1 10 11
M  V30 11 1 11 12
M  V30 12 1 12 13
M  V30 13 1 11 14
M  V30 14 1 6 2
M  V30 15 2 12 8
M  V30 16 1 1 15
M  V30 17 1 1 16
M  V30 18 1 3 17
M  V30 19 1 7 18
M  V30 20 1 7 19
M  V30 21 1 9 20
M  V30 22 1 13 21
M  V30 23 1 13 22
M  V30 24 1 13 23
M  V30 25 1 14 24
M  V30 26 1 14 25
M  V30 27 1 14 26
M  V30 END BOND
M  V30 END CTAB
M  END
