
     RDKit          3D

  0  0  0  0  0  0  0  0  0  0999 V3000
M  V30 BEGIN CTAB
M  V30 COUNTS 24 24 0 0 0
M  V30 BEGIN ATOM
M  V30 1 C -0.629015 -1.95668 -1.10948 0
M  V30 2 C -0.381903 -1.08001 0.0627751 0
M  V30 3 C 0.649935 -0.0252994 -0.213744 0
M  V30 4 N 1.68796 0.31774 0.610522 0
M  V30 5 C 2.41068 1.29536 0.0558355 0
M  V30 6 N 1.81049 1.55953 -1.1356 0
M  V30 7 O 0.777423 0.750914 -1.24225 0
M  V30 8 N 3.57934 1.92468 0.618804 0
M  V30 9 C -1.61072 -0.536335 0.736443 0
M  V30 10 O -2.5253 0.131445 0.0556324 0
M  V30 11 C -2.46267 1.28288 -0.569201 0
M  V30 12 N 0.2944 -1.90437 1.13098 0
M  V30 13 H -0.100928 -1.60778 -2.02845 0
M  V30 14 H -0.260317 -2.99549 -0.913891 0
M  V30 15 H -1.71719 -2.00882 -1.3507 0
M  V30 16 H 4.167 1.40113 1.28908 0
M  V30 17 H 3.8281 2.8857 0.351969 0
M  V30 18 H -1.18652 0.201405 1.55382 0
M  V30 19 H -2.07419 -1.34789 1.38652 0
M  V30 20 H -3.51275 1.44083 -1.03606 0
M  V30 21 H -2.4022 2.1599 0.179968 0
M  V30 22 H -1.76416 1.48018 -1.38374 0
M  V30 23 H 1.31864 -1.93789 0.909687 0
M  V30 24 H 0.103911 -1.43114 2.04109 0
M  V30 END ATOM
M  V30 BEGIN BOND
M  V30 1 1 1 2
M  V30 2 1 2 3
M  V30 3 2 3 4
M  V30 4 1 4 5
M  V30 5 2 5 6
M  V30 6 1 6 7
M  V30 7 1 5 8
M  V30 8 1 2 9
M  V30 9 1 9 10
M  V30 10 1 10 11
M  V30 11 1 2 12
M  V30 12 1 7 3
M  V30 13 1 1 13
M  V30 14 1 1 14
M  V30 15 1 1 15
M  V30 16 1 8 16
M  V30 17 1 8 17
M  V30 18 1 9 18
M  V30 19 1 9 19
M  V30 20 1 11 20
M  V30 21 1 11 21
M  V30 22 1 11 22
M  V30 23 1 12 23
M  V30 24 1 12 24
M  V30 END BOND
M  V30 END CTAB
M  END
