
     RDKit          3D

  0  0  0  0  0  0  0  0  0  0999 V3000
M  V30 BEGIN CTAB
M  V30 COUNTS 22 23 0 0 0
M  V30 BEGIN ATOM
M  V30 1 N -3.24167 -0.868949 -0.538948 0
M  V30 2 C -2.7785 -0.191063 0.600448 0
M  V30 3 S -3.16923 -0.76087 2.07361 0
M  V30 4 C -1.9425 1.03059 0.531555 0
M  V30 5 N -0.717436 0.726322 -0.170042 0
M  V30 6 C -0.452389 0.806961 -1.48446 0
M  V30 7 N 0.824049 0.426785 -1.7143 0
M  V30 8 C 1.39902 0.0952191 -0.545296 0
M  V30 9 C 0.420477 0.287657 0.416818 0
M  V30 10 N 0.716279 0.0319923 1.6937 0
M  V30 11 C 1.93877 -0.407508 2.07215 0
M  V30 12 N 2.87339 -0.587537 1.12326 0
M  V30 13 C 2.65321 -0.352534 -0.182005 0
M  V30 14 N 3.63857 -0.542726 -1.17934 0
M  V30 15 H -3.08842 -1.8837 -0.73955 0
M  V30 16 H -3.79311 -0.349133 -1.27693 0
M  V30 17 H -1.73338 1.44598 1.52494 0
M  V30 18 H -2.53057 1.82801 -0.0102548 0
M  V30 19 H -1.18405 1.136 -2.23475 0
M  V30 20 H 2.16956 -0.6125 3.11218 0
M  V30 21 H 3.91872 0.223102 -1.83028 0
M  V30 22 H 4.07919 -1.4821 -1.2425 0
M  V30 END ATOM
M  V30 BEGIN BOND
M  V30 1 1 1 2
M  V30 2 2 2 3
M  V30 3 1 2 4
M  V30 4 1 4 5
M  V30 5 1 5 6
M  V30 6 2 6 7
M  V30 7 1 7 8
M  V30 8 2 8 9
M  V30 9 1 9 10
M  V30 10 2 10 11
M  V30 11 1 11 12
M  V30 12 2 12 13
M  V30 13 1 13 14
M  V30 14 1 9 5
M  V30 15 1 13 8
M  V30 16 1 1 15
M  V30 17 1 1 16
M  V30 18 1 4 17
M  V30 19 1 4 18
M  V30 20 1 6 19
M  V30 21 1 11 20
M  V30 22 1 14 21
M  V30 23 1 14 22
M  V30 END BOND
M  V30 END CTAB
M  END
