
     RDKit          3D

  0  0  0  0  0  0  0  0  0  0999 V3000
M  V30 BEGIN CTAB
M  V30 COUNTS 31 32 0 0 0
M  V30 BEGIN ATOM
M  V30 1 N -3.43804 1.30892 0.364588 0
M  V30 2 C -4.11779 0.0597272 0.179993 0
M  V30 3 C -3.45615 -0.880649 -0.778919 0
M  V30 4 C -2.08456 -1.24393 -0.305625 0
M  V30 5 O -1.46759 -2.16057 -1.23513 0
M  V30 6 C -0.113095 -2.11054 -0.933344 0
M  V30 7 O 0.746678 -3.03669 -1.06935 0
M  V30 8 N 0.177043 -0.814975 -0.428516 0
M  V30 9 C -1.08822 -0.122011 -0.29842 0
M  V30 10 C 1.43369 -0.250447 -0.0918193 0
M  V30 11 C 1.97085 0.712013 -0.914204 0
M  V30 12 C 3.19421 1.29552 -0.637782 0
M  V30 13 C 3.93335 0.928334 0.489872 0
M  V30 14 C 3.36543 -0.0389542 1.29216 0
M  V30 15 C 2.14701 -0.62596 1.02509 0
M  V30 16 N 5.20264 1.51845 0.790307 0
M  V30 17 H -3.59409 1.72393 1.31323 0
M  V30 18 H -3.73216 1.9935 -0.366644 0
M  V30 19 H -4.23464 -0.401263 1.20137 0
M  V30 20 H -5.17132 0.236069 -0.164618 0
M  V30 21 H -4.07275 -1.77023 -1.00488 0
M  V30 22 H -3.3323 -0.341221 -1.76625 0
M  V30 23 H -2.06377 -1.75106 0.664129 0
M  V30 24 H -1.19256 0.53966 -1.19895 0
M  V30 25 H -1.10018 0.46083 0.650984 0
M  V30 26 H 1.44025 1.04212 -1.80909 0
M  V30 27 H 3.61626 2.05851 -1.29201 0
M  V30 28 H 3.93404 -0.330126 2.17117 0
M  V30 29 H 1.70617 -1.38598 1.65929 0
M  V30 30 H 5.34552 2.41805 1.26671 0
M  V30 31 H 6.04604 0.968988 0.490625 0
M  V30 END ATOM
M  V30 BEGIN BOND
M  V30 1 1 1 2
M  V30 2 1 2 3
M  V30 3 1 3 4
M  V30 4 1 4 5
M  V30 5 1 5 6
M  V30 6 2 6 7
M  V30 7 1 6 8
M  V30 8 1 8 9
M  V30 9 1 8 10
M  V30 10 2 10 11
M  V30 11 1 11 12
M  V30 12 2 12 13
M  V30 13 1 13 14
M  V30 14 2 14 15
M  V30 15 1 13 16
M  V30 16 1 9 4
M  V30 17 1 15 10
M  V30 18 1 1 17
M  V30 19 1 1 18
M  V30 20 1 2 19
M  V30 21 1 2 20
M  V30 22 1 3 21
M  V30 23 1 3 22
M  V30 24 1 4 23
M  V30 25 1 9 24
M  V30 26 1 9 25
M  V30 27 1 11 26
M  V30 28 1 12 27
M  V30 29 1 14 28
M  V30 30 1 15 29
M  V30 31 1 16 30
M  V30 32 1 16 31
M  V30 END BOND
M  V30 END CTAB
M  END
