
     RDKit          3D

  0  0  0  0  0  0  0  0  0  0999 V3000
M  V30 BEGIN CTAB
M  V30 COUNTS 45 44 0 0 0
M  V30 BEGIN ATOM
M  V30 1 N -7.00895 -0.410467 -1.00456 0
M  V30 2 C -6.19644 -0.740892 0.0912387 0
M  V30 3 N -6.55672 -1.62381 0.936564 0
M  V30 4 C -4.88253 -0.0290638 0.254436 0
M  V30 5 C -4.18987 -0.5661 1.47713 0
M  V30 6 C -2.88566 0.140862 1.67786 0
M  V30 7 C -1.9865 -0.0667752 0.510511 0
M  V30 8 C -0.634127 0.646102 0.72054 0
M  V30 9 C 0.170309 0.358053 -0.519965 0
M  V30 10 C 1.55041 1.0094 -0.451521 0
M  V30 11 C 2.23596 0.637699 -1.75088 0
M  V30 12 C 3.60975 1.17898 -1.90348 0
M  V30 13 C 4.49994 0.692672 -0.802251 0
M  V30 14 C 4.56493 -0.81602 -0.835161 0
M  V30 15 C 5.4738 -1.21526 0.268415 0
M  V30 16 N 5.13399 -0.85171 1.58969 0
M  V30 17 N 6.53142 -1.87352 -0.0144386 0
M  V30 18 H -7.839 0.200093 -0.873487 0
M  V30 19 H -6.79056 -0.768285 -1.94226 0
M  V30 20 H -6.02544 -1.92318 1.76094 0
M  V30 21 H -4.30115 -0.176223 -0.684382 0
M  V30 22 H -5.07305 1.05566 0.444364 0
M  V30 23 H -4.88042 -0.342945 2.33634 0
M  V30 24 H -4.0505 -1.6674 1.39214 0
M  V30 25 H -2.42209 -0.291868 2.59168 0
M  V30 26 H -3.09151 1.23552 1.81628 0
M  V30 27 H -2.40039 0.276989 -0.441603 0
M  V30 28 H -1.80625 -1.16004 0.40716 0
M  V30 29 H -0.816176 1.7281 0.799517 0
M  V30 30 H -0.161268 0.275941 1.64163 0
M  V30 31 H 0.324285 -0.704305 -0.705732 0
M  V30 32 H -0.347411 0.825909 -1.38255 0
M  V30 33 H 1.50461 2.09615 -0.389467 0
M  V30 34 H 2.11095 0.636333 0.430563 0
M  V30 35 H 2.24927 -0.473154 -1.8394 0
M  V30 36 H 1.53623 1.00656 -2.55089 0
M  V30 37 H 3.98778 0.801764 -2.8989 0
M  V30 38 H 3.53989 2.28821 -1.93999 0
M  V30 39 H 4.07817 0.99412 0.189052 0
M  V30 40 H 5.52004 1.14148 -0.848908 0
M  V30 41 H 4.90071 -1.18405 -1.81674 0
M  V30 42 H 3.56845 -1.23271 -0.559172 0
M  V30 43 H 4.50263 -1.45746 2.16797 0
M  V30 44 H 5.50845 0.0334092 2.01696 0
M  V30 45 H 7.24403 -2.21327 0.634745 0
M  V30 END ATOM
M  V30 BEGIN BOND
M  V30 1 1 1 2
M  V30 2 2 2 3 CFG=2
M  V30 3 1 2 4
M  V30 4 1 4 5
M  V30 5 1 5 6
M  V30 6 1 6 7
M  V30 7 1 7 8
M  V30 8 1 8 9
M  V30 9 1 9 10
M  V30 10 1 10 11
M  V30 11 1 11 12
M  V30 12 1 12 13
M  V30 13 1 13 14
M  V30 14 1 14 15
M  V30 15 1 15 16
M  V30 16 2 15 17 CFG=2
M  V30 17 1 1 18
M  V30 18 1 1 19
M  V30 19 1 3 20
M  V30 20 1 4 21
M  V30 21 1 4 22
M  V30 22 1 5 23
M  V30 23 1 5 24
M  V30 24 1 6 25
M  V30 25 1 6 26
M  V30 26 1 7 27
M  V30 27 1 7 28
M  V30 28 1 8 29
M  V30 29 1 8 30
M  V30 30 1 9 31
M  V30 31 1 9 32
M  V30 32 1 10 33
M  V30 33 1 10 34
M  V30 34 1 11 35
M  V30 35 1 11 36
M  V30 36 1 12 37
M  V30 37 1 12 38
M  V30 38 1 13 39
M  V30 39 1 13 40
M  V30 40 1 14 41
M  V30 41 1 14 42
M  V30 42 1 16 43
M  V30 43 1 16 44
M  V30 44 1 17 45
M  V30 END BOND
M  V30 END CTAB
M  END
