
     RDKit          3D

  0  0  0  0  0  0  0  0  0  0999 V3000
M  V30 BEGIN CTAB
M  V30 COUNTS 42 44 0 0 0
M  V30 BEGIN ATOM
M  V30 1 N -7.07588 1.17597 2.81028 0
M  V30 2 C -6.78471 0.404259 1.66488 0
M  V30 3 C -7.75709 -0.228302 0.94082 0
M  V30 4 C -7.40754 -0.966658 -0.167688 0
M  V30 5 C -6.07271 -1.06471 -0.543455 0
M  V30 6 C -5.09462 -0.430403 0.182066 0
M  V30 7 C -5.44676 0.301873 1.28242 0
M  V30 8 C -3.71157 -0.539353 -0.217832 0
M  V30 9 O -3.32563 -1.19699 -1.21859 0
M  V30 10 O -2.74373 0.104397 0.52298 0
M  V30 11 C -1.38644 0.0646879 0.225733 0
M  V30 12 C -0.775925 0.987806 -0.600085 0
M  V30 13 C 0.58153 0.930448 -0.884389 0
M  V30 14 C 1.37345 -0.0607427 -0.345811 0
M  V30 15 C 0.764362 -0.982377 0.478571 0
M  V30 16 C -0.586591 -0.924238 0.760736 0
M  V30 17 O 2.72808 -0.108268 -0.636664 0
M  V30 18 C 3.6684 0.551942 0.141469 0
M  V30 19 O 3.27689 1.19794 1.11943 0
M  V30 20 C 5.0715 0.441499 -0.246346 0
M  V30 21 C 6.08015 1.06782 0.472728 0
M  V30 22 C 7.40668 0.976265 0.124257 0
M  V30 23 C 7.73727 0.22259 -0.99602 0
M  V30 24 C 6.77208 -0.421002 -1.74671 0
M  V30 25 C 5.46563 -0.288013 -1.34296 0
M  V30 26 N 7.15041 -1.18123 -2.88418 0
M  V30 27 H -6.9236 0.767612 3.74771 0
M  V30 28 H -7.43674 2.13713 2.70849 0
M  V30 29 H -8.80456 -0.148926 1.23914 0
M  V30 30 H -8.17755 -1.4567 -0.725645 0
M  V30 31 H -5.83463 -1.64372 -1.40633 0
M  V30 32 H -4.69551 0.803295 1.85988 0
M  V30 33 H -1.41052 1.76153 -1.01654 0
M  V30 34 H 1.0339 1.67328 -1.53958 0
M  V30 35 H 1.38227 -1.75897 0.901162 0
M  V30 36 H -1.07487 -1.64643 1.40937 0
M  V30 37 H 5.78248 1.6387 1.32909 0
M  V30 38 H 8.18512 1.46279 0.683659 0
M  V30 39 H 8.76277 0.112378 -1.32118 0
M  V30 40 H 4.7166 -0.796797 -1.93872 0
M  V30 41 H 8.11753 -1.54799 -2.99166 0
M  V30 42 H 6.47008 -1.3924 -3.64188 0
M  V30 END ATOM
M  V30 BEGIN BOND
M  V30 1 1 1 2
M  V30 2 2 2 3
M  V30 3 1 3 4
M  V30 4 2 4 5
M  V30 5 1 5 6
M  V30 6 2 6 7
M  V30 7 1 6 8
M  V30 8 2 8 9
M  V30 9 1 8 10
M  V30 10 1 10 11
M  V30 11 2 11 12
M  V30 12 1 12 13
M  V30 13 2 13 14
M  V30 14 1 14 15
M  V30 15 2 15 16
M  V30 16 1 14 17
M  V30 17 1 17 18
M  V30 18 2 18 19
M  V30 19 1 18 20
M  V30 20 2 20 21
M  V30 21 1 21 22
M  V30 22 2 22 23
M  V30 23 1 23 24
M  V30 24 2 24 25
M  V30 25 1 24 26
M  V30 26 1 7 2
M  V30 27 1 16 11
M  V30 28 1 25 20
M  V30 29 1 1 27
M  V30 30 1 1 28
M  V30 31 1 3 29
M  V30 32 1 4 30
M  V30 33 1 5 31
M  V30 34 1 7 32
M  V30 35 1 12 33
M  V30 36 1 13 34
M  V30 37 1 15 35
M  V30 38 1 16 36
M  V30 39 1 21 37
M  V30 40 1 22 38
M  V30 41 1 23 39
M  V30 42 1 25 40
M  V30 43 1 26 41
M  V30 44 1 26 42
M  V30 END BOND
M  V30 END CTAB
M  END
