
     RDKit          3D

  0  0  0  0  0  0  0  0  0  0999 V3000
M  V30 BEGIN CTAB
M  V30 COUNTS 21 22 0 0 0
M  V30 BEGIN ATOM
M  V30 1 N 3.98505 0.754483 -0.45731 0
M  V30 2 C 2.71907 0.0730507 -0.396682 0
M  V30 3 N 2.49325 -1.22571 -0.611576 0
M  V30 4 O 1.22617 -1.41784 -0.456978 0
M  V30 5 C 0.608046 -0.322986 -0.15367 0
M  V30 6 N 1.53422 0.643475 -0.108301 0
M  V30 7 C -0.837813 -0.204924 0.0874251 0
M  V30 8 C -1.77582 -1.21377 0.0357347 0
M  V30 9 N -1.4625 -2.55424 -0.268607 0
M  V30 10 C -3.01803 -0.693072 0.323254 0
M  V30 11 N -2.80827 0.61733 0.542796 0
M  V30 12 N -1.52578 0.908857 0.40491 0
M  V30 13 C -0.956297 2.22017 0.570255 0
M  V30 14 H 4.04052 1.78068 -0.627506 0
M  V30 15 H 4.88609 0.243532 -0.332991 0
M  V30 16 H -1.1521 -3.18372 0.483123 0
M  V30 17 H -1.55163 -2.87982 -1.24792 0
M  V30 18 H -3.97657 -1.23467 0.364247 0
M  V30 19 H -0.0935096 2.13804 1.24812 0
M  V30 20 H -1.68951 2.92004 1.01345 0
M  V30 21 H -0.644579 2.6311 -0.411764 0
M  V30 END ATOM
M  V30 BEGIN BOND
M  V30 1 1 1 2
M  V30 2 2 2 3
M  V30 3 1 3 4
M  V30 4 1 4 5
M  V30 5 2 5 6
M  V30 6 1 5 7
M  V30 7 2 7 8
M  V30 8 1 8 9
M  V30 9 1 8 10
M  V30 10 2 10 11
M  V30 11 1 11 12
M  V30 12 1 12 13
M  V30 13 1 6 2
M  V30 14 1 12 7
M  V30 15 1 1 14
M  V30 16 1 1 15
M  V30 17 1 9 16
M  V30 18 1 9 17
M  V30 19 1 10 18
M  V30 20 1 13 19
M  V30 21 1 13 20
M  V30 22 1 13 21
M  V30 END BOND
M  V30 END CTAB
M  END
