
     RDKit          3D

  0  0  0  0  0  0  0  0  0  0999 V3000
M  V30 BEGIN CTAB
M  V30 COUNTS 24 24 0 0 0
M  V30 BEGIN ATOM
M  V30 1 C 3.13024 0.851311 -0.60983 0
M  V30 2 N 2.98991 -0.181742 0.366637 0
M  V30 3 S 1.69984 -1.26433 0.102195 0
M  V30 4 O 1.71098 -2.33399 1.1864 0
M  V30 5 O 1.93626 -1.93062 -1.23632 0
M  V30 6 C 0.182609 -0.428045 0.142536 0
M  V30 7 C 0.0734303 0.914823 0.42247 0
M  V30 8 C -1.13063 1.60382 0.471538 0
M  V30 9 C -2.28338 0.906379 0.226888 0
M  V30 10 C -2.20449 -0.445419 -0.0571116 0
M  V30 11 C -1.01285 -1.12229 -0.104755 0
M  V30 12 N -0.938927 -2.50801 -0.396442 0
M  V30 13 N -3.55415 1.54206 0.258983 0
M  V30 14 H 3.235 1.82427 -0.0906502 0
M  V30 15 H 4.05793 0.738324 -1.2293 0
M  V30 16 H 2.29589 0.883624 -1.34427 0
M  V30 17 H 3.02023 0.222488 1.32305 0
M  V30 18 H 0.94674 1.52776 0.634205 0
M  V30 19 H -1.16846 2.66884 0.697295 0
M  V30 20 H -3.10609 -1.03012 -0.25677 0
M  V30 21 H -0.769119 -2.80871 -1.39698 0
M  V30 22 H -1.04858 -3.21546 0.353038 0
M  V30 23 H -4.43201 1.03251 0.475519 0
M  V30 24 H -3.63036 2.55254 0.0616926 0
M  V30 END ATOM
M  V30 BEGIN BOND
M  V30 1 1 1 2
M  V30 2 1 2 3
M  V30 3 2 3 4
M  V30 4 2 3 5
M  V30 5 1 3 6
M  V30 6 2 6 7
M  V30 7 1 7 8
M  V30 8 2 8 9
M  V30 9 1 9 10
M  V30 10 2 10 11
M  V30 11 1 11 12
M  V30 12 1 9 13
M  V30 13 1 11 6
M  V30 14 1 1 14
M  V30 15 1 1 15
M  V30 16 1 1 16
M  V30 17 1 2 17
M  V30 18 1 7 18
M  V30 19 1 8 19
M  V30 20 1 10 20
M  V30 21 1 12 21
M  V30 22 1 12 22
M  V30 23 1 13 23
M  V30 24 1 13 24
M  V30 END BOND
M  V30 END CTAB
M  END
