
     RDKit          3D

  0  0  0  0  0  0  0  0  0  0999 V3000
M  V30 BEGIN CTAB
M  V30 COUNTS 39 40 0 0 0
M  V30 BEGIN ATOM
M  V30 1 C -4.14062 0.418901 0.885596 0
M  V30 2 C -3.59416 -0.0994365 -0.425071 0
M  V30 3 C -4.71088 -0.754485 -1.2484 0
M  V30 4 C -3.05495 1.0615 -1.19571 0
M  V30 5 C -1.57032 0.88431 -1.37058 0
M  V30 6 C -0.868601 0.581537 -0.0653921 0
M  V30 7 C -1.3753 -0.657575 0.59339 0
M  V30 8 C -2.57611 -1.17373 -0.161031 0
M  V30 9 C 0.608817 0.463199 -0.37443 0
M  V30 10 S 1.54567 0.103684 1.10725 0
M  V30 11 C 3.26514 -0.0222215 0.675725 0
M  V30 12 N 3.82264 -1.17863 0.308364 0
M  V30 13 C 5.12178 -1.30271 -0.0235705 0
M  V30 14 N 5.64333 -2.56584 -0.404277 0
M  V30 15 N 5.87153 -0.187008 0.0268713 0
M  V30 16 C 5.34189 1.00618 0.395136 0
M  V30 17 N 4.02428 1.07733 0.720752 0
M  V30 18 N 6.08384 2.20209 0.463803 0
M  V30 19 H -5.23797 0.517435 0.763005 0
M  V30 20 H -3.89406 -0.27606 1.71368 0
M  V30 21 H -3.67842 1.39179 1.15637 0
M  V30 22 H -4.17584 -1.40406 -1.98506 0
M  V30 23 H -5.37061 -1.35596 -0.621294 0
M  V30 24 H -5.22068 0.0372137 -1.83325 0
M  V30 25 H -3.48945 1.1415 -2.21939 0
M  V30 26 H -3.22275 2.0489 -0.674586 0
M  V30 27 H -1.40014 0.0585645 -2.09501 0
M  V30 28 H -1.15743 1.81669 -1.77274 0
M  V30 29 H -1.03061 1.48325 0.585789 0
M  V30 30 H -0.606558 -1.4708 0.579604 0
M  V30 31 H -1.61872 -0.49862 1.67937 0
M  V30 32 H -2.21836 -1.57928 -1.1288 0
M  V30 33 H -3.10483 -1.97673 0.416101 0
M  V30 34 H 0.905278 1.41406 -0.864722 0
M  V30 35 H 0.727686 -0.393171 -1.08715 0
M  V30 36 H 4.98629 -3.29785 -0.724431 0
M  V30 37 H 6.65249 -2.80427 -0.381477 0
M  V30 38 H 6.39697 2.67488 -0.397296 0
M  V30 39 H 6.31974 2.61542 1.37889 0
M  V30 END ATOM
M  V30 BEGIN BOND
M  V30 1 1 1 2
M  V30 2 1 2 3
M  V30 3 1 2 4
M  V30 4 1 4 5
M  V30 5 1 5 6
M  V30 6 1 6 7
M  V30 7 1 7 8
M  V30 8 1 6 9
M  V30 9 1 9 10
M  V30 10 1 10 11
M  V30 11 2 11 12
M  V30 12 1 12 13
M  V30 13 1 13 14
M  V30 14 2 13 15
M  V30 15 1 15 16
M  V30 16 2 16 17
M  V30 17 1 16 18
M  V30 18 1 8 2
M  V30 19 1 17 11
M  V30 20 1 1 19
M  V30 21 1 1 20
M  V30 22 1 1 21
M  V30 23 1 3 22
M  V30 24 1 3 23
M  V30 25 1 3 24
M  V30 26 1 4 25
M  V30 27 1 4 26
M  V30 28 1 5 27
M  V30 29 1 5 28
M  V30 30 1 6 29
M  V30 31 1 7 30
M  V30 32 1 7 31
M  V30 33 1 8 32
M  V30 34 1 8 33
M  V30 35 1 9 34
M  V30 36 1 9 35
M  V30 37 1 14 36
M  V30 38 1 14 37
M  V30 39 1 18 38
M  V30 40 1 18 39
M  V30 END BOND
M  V30 END CTAB
M  END
