
     RDKit          3D

  0  0  0  0  0  0  0  0  0  0999 V3000
M  V30 BEGIN CTAB
M  V30 COUNTS 31 32 0 0 0
M  V30 BEGIN ATOM
M  V30 1 N -4.70726 -0.0933559 0.51484 0
M  V30 2 C -3.32727 -0.144159 0.856807 0 CFG=1
M  V30 3 C -2.63228 -1.3853 0.301615 0
M  V30 4 C -1.18616 -0.972783 0.103613 0
M  V30 5 C -1.10445 0.482454 0.468356 0 CFG=2
M  V30 6 C -2.51399 0.954304 0.173553 0
M  V30 7 C -0.17958 1.25242 -0.445929 0
M  V30 8 C 1.21007 0.728247 -0.409033 0
M  V30 9 N 2.22736 1.09942 0.407611 0
M  V30 10 N 3.30835 0.390029 0.120779 0
M  V30 11 C 3.02499 -0.45027 -0.877531 0
M  V30 12 N 1.73633 -0.233708 -1.19366 0
M  V30 13 N 3.9218 -1.39108 -1.48397 0
M  V30 14 C 4.61974 0.48991 0.777464 0
M  V30 15 H -5.14734 0.708167 0.950195 0
M  V30 16 H -4.8931 -0.113689 -0.481532 0
M  V30 17 H -3.17725 -0.0215073 1.93264 0
M  V30 18 H -2.74975 -2.20287 1.03127 0
M  V30 19 H -3.11797 -1.61591 -0.686037 0
M  V30 20 H -0.897684 -1.05917 -0.965967 0
M  V30 21 H -0.561878 -1.61491 0.758744 0
M  V30 22 H -0.904289 0.661919 1.53036 0
M  V30 23 H -2.65649 0.890666 -0.924616 0
M  V30 24 H -2.7361 1.94449 0.594834 0
M  V30 25 H -0.607395 1.17779 -1.46667 0
M  V30 26 H -0.246287 2.31644 -0.147048 0
M  V30 27 H 3.62734 -2.39003 -1.5022 0
M  V30 28 H 4.82119 -1.03052 -1.87541 0
M  V30 29 H 4.58169 1.36267 1.47964 0
M  V30 30 H 5.40908 0.711697 0.026145 0
M  V30 31 H 4.85856 -0.451366 1.31014 0
M  V30 END ATOM
M  V30 BEGIN BOND
M  V30 1 1 1 2
M  V30 2 1 2 3
M  V30 3 1 3 4
M  V30 4 1 4 5
M  V30 5 1 5 6
M  V30 6 1 5 7
M  V30 7 1 7 8
M  V30 8 2 8 9
M  V30 9 1 9 10
M  V30 10 1 10 11
M  V30 11 2 11 12
M  V30 12 1 11 13
M  V30 13 1 10 14
M  V30 14 1 6 2
M  V30 15 1 12 8
M  V30 16 1 1 15
M  V30 17 1 1 16
M  V30 18 1 2 17 CFG=1
M  V30 19 1 3 18
M  V30 20 1 3 19
M  V30 21 1 4 20
M  V30 22 1 4 21
M  V30 23 1 5 22 CFG=1
M  V30 24 1 6 23
M  V30 25 1 6 24
M  V30 26 1 7 25
M  V30 27 1 7 26
M  V30 28 1 13 27
M  V30 29 1 13 28
M  V30 30 1 14 29
M  V30 31 1 14 30
M  V30 32 1 14 31
M  V30 END BOND
M  V30 END CTAB
M  END
