
     RDKit          3D

  0  0  0  0  0  0  0  0  0  0999 V3000
M  V30 BEGIN CTAB
M  V30 COUNTS 36 38 0 0 0
M  V30 BEGIN ATOM
M  V30 1 N 6.03785 -0.43181 -0.205384 0
M  V30 2 C 4.63509 -0.244088 -0.250188 0
M  V30 3 C 3.96826 0.449652 0.762534 0
M  V30 4 C 2.62202 0.634759 0.728188 0
M  V30 5 C 1.86142 0.143372 -0.310536 0
M  V30 6 C 2.53627 -0.538149 -1.30059 0
M  V30 7 N 3.86981 -0.713036 -1.25194 0
M  V30 8 C 0.405501 0.319325 -0.400555 0 CFG=1
M  V30 9 N -0.24081 -0.932283 -0.718053 0
M  V30 10 C -1.45334 -1.35235 -0.100284 0
M  V30 11 C -1.87073 -2.65481 -0.219295 0
M  V30 12 C -3.06895 -2.98515 0.414342 0
M  V30 13 C -3.79855 -2.03239 1.13067 0
M  V30 14 C -3.37066 -0.741286 1.24022 0
M  V30 15 C -2.16802 -0.409008 0.603501 0
M  V30 16 N -1.6524 0.906928 0.664399 0
M  V30 17 C -0.196478 1.05887 0.746378 0
M  V30 18 S -2.70796 2.2608 0.616863 0
M  V30 19 O -2.49142 3.18822 1.76037 0
M  V30 20 O -4.12667 1.87723 0.420506 0
M  V30 21 N -2.27485 3.10493 -0.873457 0
M  V30 22 H 6.65932 0.37277 -0.0574748 0
M  V30 23 H 6.42769 -1.37604 -0.321612 0
M  V30 24 H 4.57034 0.832622 1.57453 0
M  V30 25 H 2.08563 1.1683 1.50054 0
M  V30 26 H 2.00088 -0.960451 -2.17002 0
M  V30 27 H 0.235357 0.970835 -1.31197 0
M  V30 28 H 0.222813 -1.54604 -1.44131 0
M  V30 29 H -1.32633 -3.40944 -0.766218 0
M  V30 30 H -3.40415 -4.01066 0.324313 0
M  V30 31 H -4.71165 -2.32776 1.60121 0
M  V30 32 H -3.86928 0.0481181 1.78128 0
M  V30 33 H 0.00696136 2.16324 0.655084 0
M  V30 34 H 0.105297 0.753027 1.73955 0
M  V30 35 H -2.92192 3.9355 -0.890667 0
M  V30 36 H -2.59635 2.47624 -1.64999 0
M  V30 END ATOM
M  V30 BEGIN BOND
M  V30 1 1 1 2
M  V30 2 2 2 3
M  V30 3 1 3 4
M  V30 4 2 4 5
M  V30 5 1 5 6
M  V30 6 2 6 7
M  V30 7 1 5 8
M  V30 8 1 8 9
M  V30 9 1 9 10
M  V30 10 2 10 11
M  V30 11 1 11 12
M  V30 12 2 12 13
M  V30 13 1 13 14
M  V30 14 2 14 15
M  V30 15 1 15 16
M  V30 16 1 16 17
M  V30 17 1 16 18
M  V30 18 2 18 19
M  V30 19 2 18 20
M  V30 20 1 18 21
M  V30 21 1 7 2
M  V30 22 1 17 8
M  V30 23 1 15 10
M  V30 24 1 1 22
M  V30 25 1 1 23
M  V30 26 1 3 24
M  V30 27 1 4 25
M  V30 28 1 6 26
M  V30 29 1 8 27 CFG=3
M  V30 30 1 9 28
M  V30 31 1 11 29
M  V30 32 1 12 30
M  V30 33 1 13 31
M  V30 34 1 14 32
M  V30 35 1 17 33
M  V30 36 1 17 34
M  V30 37 1 21 35
M  V30 38 1 21 36
M  V30 END BOND
M  V30 END CTAB
M  END
