
     RDKit          3D

  0  0  0  0  0  0  0  0  0  0999 V3000
M  V30 BEGIN CTAB
M  V30 COUNTS 48 49 0 0 0
M  V30 BEGIN ATOM
M  V30 1 N -3.20154 4.38599 0.559906 0
M  V30 2 C -3.4435 3.78618 -0.742807 0
M  V30 3 C -2.34635 2.8209 -1.12007 0
M  V30 4 C -2.28873 1.72487 -0.0794078 0
M  V30 5 N -1.27295 0.751017 -0.347272 0
M  V30 6 C 0.0485126 0.951571 0.188927 0
M  V30 7 O 0.301115 1.96469 0.879953 0
M  V30 8 C 1.13515 -0.020806 -0.0569089 0
M  V30 9 C 2.38442 0.457932 0.622893 0
M  V30 10 C 3.52771 -0.469728 0.421496 0
M  V30 11 C 3.38338 -1.72138 -0.134568 0
M  V30 12 C 4.45091 -2.57826 -0.318678 0
M  V30 13 C 5.69923 -2.13262 0.0810344 0
M  V30 14 C 5.89397 -0.892984 0.640491 0
M  V30 15 C 4.79024 -0.0679315 0.804981 0
M  V30 16 N 2.72537 1.81062 0.196028 0
M  V30 17 C -1.59076 -0.39472 -1.13711 0
M  V30 18 C -2.07925 -1.54013 -0.335991 0
M  V30 19 C -2.40593 -2.71218 -0.976665 0
M  V30 20 C -2.86855 -3.81993 -0.289294 0
M  V30 21 C -3.01191 -3.76436 1.07567 0
M  V30 22 C -2.6907 -2.60485 1.72605 0
M  V30 23 C -2.22588 -1.49282 1.03261 0
M  V30 24 H -3.87455 5.16685 0.696002 0
M  V30 25 H -2.207 4.69651 0.584034 0
M  V30 26 H -3.57129 4.58374 -1.49669 0
M  V30 27 H -4.41882 3.24841 -0.675731 0
M  V30 28 H -2.66031 2.3569 -2.09085 0
M  V30 29 H -1.4173 3.38301 -1.19848 0
M  V30 30 H -2.14805 2.23469 0.905528 0
M  V30 31 H -3.27745 1.23026 -0.0229902 0
M  V30 32 H 1.28636 -0.225938 -1.13086 0
M  V30 33 H 0.8233 -0.981461 0.439874 0
M  V30 34 H 2.2259 0.515413 1.7219 0
M  V30 35 H 2.41443 -2.06379 -0.443338 0
M  V30 36 H 4.30991 -3.55622 -0.757922 0
M  V30 37 H 6.51803 -2.84321 -0.082858 0
M  V30 38 H 6.8902 -0.604921 0.930773 0
M  V30 39 H 4.99997 0.901338 1.25219 0
M  V30 40 H 2.1922 1.97275 -0.700574 0
M  V30 41 H 3.73504 1.80085 -0.070645 0
M  V30 42 H -2.40699 -0.161959 -1.88147 0
M  V30 43 H -0.73122 -0.741063 -1.77225 0
M  V30 44 H -2.30968 -2.80254 -2.04642 0
M  V30 45 H -3.11258 -4.71746 -0.83134 0
M  V30 46 H -3.38028 -4.65047 1.61115 0
M  V30 47 H -2.81012 -2.5799 2.80144 0
M  V30 48 H -1.98368 -0.602883 1.56827 0
M  V30 END ATOM
M  V30 BEGIN BOND
M  V30 1 1 1 2
M  V30 2 1 2 3
M  V30 3 1 3 4
M  V30 4 1 4 5
M  V30 5 1 5 6
M  V30 6 2 6 7
M  V30 7 1 6 8
M  V30 8 1 8 9
M  V30 9 1 9 10
M  V30 10 2 10 11
M  V30 11 1 11 12
M  V30 12 2 12 13
M  V30 13 1 13 14
M  V30 14 2 14 15
M  V30 15 1 9 16
M  V30 16 1 5 17
M  V30 17 1 17 18
M  V30 18 2 18 19
M  V30 19 1 19 20
M  V30 20 2 20 21
M  V30 21 1 21 22
M  V30 22 2 22 23
M  V30 23 1 15 10
M  V30 24 1 23 18
M  V30 25 1 1 24
M  V30 26 1 1 25
M  V30 27 1 2 26
M  V30 28 1 2 27
M  V30 29 1 3 28
M  V30 30 1 3 29
M  V30 31 1 4 30
M  V30 32 1 4 31
M  V30 33 1 8 32
M  V30 34 1 8 33
M  V30 35 1 9 34
M  V30 36 1 11 35
M  V30 37 1 12 36
M  V30 38 1 13 37
M  V30 39 1 14 38
M  V30 40 1 15 39
M  V30 41 1 16 40
M  V30 42 1 16 41
M  V30 43 1 17 42
M  V30 44 1 17 43
M  V30 45 1 19 44
M  V30 46 1 20 45
M  V30 47 1 21 46
M  V30 48 1 22 47
M  V30 49 1 23 48
M  V30 END BOND
M  V30 END CTAB
M  END
