
     RDKit          3D

  0  0  0  0  0  0  0  0  0  0999 V3000
M  V30 BEGIN CTAB
M  V30 COUNTS 27 27 0 0 0
M  V30 BEGIN ATOM
M  V30 1 N -0.976898 -1.11202 -1.63302 0
M  V30 2 C -0.917131 -0.643064 -0.24287 0
M  V30 3 C 0.495873 -0.527019 0.152072 0
M  V30 4 N 1.40397 0.0421665 -0.654725 0
M  V30 5 C 2.70856 0.184055 -0.364629 0
M  V30 6 N 3.63136 0.790872 -1.24538 0
M  V30 7 C 3.15696 -0.289642 0.855387 0
M  V30 8 C 2.2413 -0.875419 1.69431 0
M  V30 9 O 2.66332 -1.30104 2.79921 0
M  V30 10 N 0.934866 -0.983528 1.33096 0
M  V30 11 C -1.67684 0.649172 -0.16055 0
M  V30 12 C -3.10364 0.376612 -0.580518 0
M  V30 13 C -1.69507 1.14038 1.26337 0
M  V30 14 H -1.63944 -0.546202 -2.19325 0
M  V30 15 H -1.31677 -2.10035 -1.68794 0
M  V30 16 H -1.4723 -1.3917 0.35831 0
M  V30 17 H 4.11896 0.218039 -1.94604 0
M  V30 18 H 3.80715 1.80254 -1.17722 0
M  V30 19 H 4.2126 -0.188283 1.119 0
M  V30 20 H 0.269887 -1.43536 1.99688 0
M  V30 21 H -1.17916 1.39234 -0.808563 0
M  V30 22 H -3.28183 -0.709438 -0.787298 0
M  V30 23 H -3.42047 0.970763 -1.45406 0
M  V30 24 H -3.8318 0.62756 0.237926 0
M  V30 25 H -0.765438 1.73103 1.47222 0
M  V30 26 H -2.54113 1.86216 1.40843 0
M  V30 27 H -1.82686 0.31537 1.98248 0
M  V30 END ATOM
M  V30 BEGIN BOND
M  V30 1 1 1 2
M  V30 2 1 2 3
M  V30 3 2 3 4
M  V30 4 1 4 5
M  V30 5 1 5 6
M  V30 6 2 5 7
M  V30 7 1 7 8
M  V30 8 2 8 9
M  V30 9 1 8 10
M  V30 10 1 2 11
M  V30 11 1 11 12
M  V30 12 1 11 13
M  V30 13 1 10 3
M  V30 14 1 1 14
M  V30 15 1 1 15
M  V30 16 1 2 16
M  V30 17 1 6 17
M  V30 18 1 6 18
M  V30 19 1 7 19
M  V30 20 1 10 20
M  V30 21 1 11 21
M  V30 22 1 12 22
M  V30 23 1 12 23
M  V30 24 1 12 24
M  V30 25 1 13 25
M  V30 26 1 13 26
M  V30 27 1 13 27
M  V30 END BOND
M  V30 END CTAB
M  END
