
     RDKit          3D

  0  0  0  0  0  0  0  0  0  0999 V3000
M  V30 BEGIN CTAB
M  V30 COUNTS 26 25 0 0 0
M  V30 BEGIN ATOM
M  V30 1 N 1.51689 0.122868 0.770668 0
M  V30 2 C 1.49677 0.573916 -0.554425 0
M  V30 3 N 2.57189 0.393032 -1.26087 0
M  V30 4 C 3.73518 -0.226271 -0.758556 0
M  V30 5 N 4.75287 0.511769 -0.425401 0
M  V30 6 N 3.88274 -1.62471 -0.58625 0
M  V30 7 S 0.0604652 1.35624 -1.22049 0
M  V30 8 C -1.32256 1.35775 -0.11197 0
M  V30 9 C -1.99135 0.0379495 0.131168 0
M  V30 10 O -1.19006 -0.947357 0.674194 0
M  V30 11 C -3.06541 0.318707 1.19751 0
M  V30 12 C -2.7196 -0.456726 -1.10815 0
M  V30 13 H 1.33715 0.783907 1.54024 0
M  V30 14 H 1.70957 -0.865497 0.986403 0
M  V30 15 H 4.71934 1.52931 -0.523149 0
M  V30 16 H 4.82208 -2.07184 -0.636163 0
M  V30 17 H 3.07567 -2.25823 -0.405681 0
M  V30 18 H -0.989301 1.71634 0.891242 0
M  V30 19 H -2.13322 2.06653 -0.407443 0
M  V30 20 H -1.6939 -1.77625 0.67283 0
M  V30 21 H -3.72444 1.11619 0.805982 0
M  V30 22 H -2.51254 0.737351 2.05987 0
M  V30 23 H -3.60518 -0.609481 1.45727 0
M  V30 24 H -3.60157 0.176595 -1.33653 0
M  V30 25 H -2.03376 -0.482301 -1.98004 0
M  V30 26 H -3.09772 -1.4798 -0.905583 0
M  V30 END ATOM
M  V30 BEGIN BOND
M  V30 1 1 1 2
M  V30 2 2 2 3 CFG=2
M  V30 3 1 3 4
M  V30 4 2 4 5 CFG=2
M  V30 5 1 4 6
M  V30 6 1 2 7
M  V30 7 1 7 8
M  V30 8 1 8 9
M  V30 9 1 9 10
M  V30 10 1 9 11
M  V30 11 1 9 12
M  V30 12 1 1 13
M  V30 13 1 1 14
M  V30 14 1 5 15
M  V30 15 1 6 16
M  V30 16 1 6 17
M  V30 17 1 8 18
M  V30 18 1 8 19
M  V30 19 1 10 20
M  V30 20 1 11 21
M  V30 21 1 11 22
M  V30 22 1 11 23
M  V30 23 1 12 24
M  V30 24 1 12 25
M  V30 25 1 12 26
M  V30 END BOND
M  V30 END CTAB
M  END
