
     RDKit          3D

  0  0  0  0  0  0  0  0  0  0999 V3000
M  V30 BEGIN CTAB
M  V30 COUNTS 17 18 0 0 0
M  V30 BEGIN ATOM
M  V30 1 N 0.164348 2.08709 0.313449 0
M  V30 2 C -0.708766 0.989527 0.121515 0
M  V30 3 N -2.04865 1.11463 0.0901261 0
M  V30 4 C -2.87263 0.0625147 -0.0933915 0
M  V30 5 N -2.3439 -1.16208 -0.251938 0
M  V30 6 C -1.00046 -1.33057 -0.226729 0
M  V30 7 C -0.144867 -0.252674 -0.0382936 0
M  V30 8 C 1.16963 -0.702672 -0.0551003 0
M  V30 9 N 2.32705 0.114112 0.106541 0
M  V30 10 N 1.085 -2.02494 -0.250551 0
M  V30 11 N -0.190196 -2.39915 -0.352163 0
M  V30 12 H 0.465303 2.4563 1.23323 0
M  V30 13 H 0.535516 2.56365 -0.53794 0
M  V30 14 H -3.93117 0.271467 -0.102178 0
M  V30 15 H 3.01391 0.295982 -0.663178 0
M  V30 16 H 2.55931 0.586235 1.01996 0
M  V30 17 H 1.92059 -2.66943 -0.313364 0
M  V30 END ATOM
M  V30 BEGIN BOND
M  V30 1 1 1 2
M  V30 2 2 2 3
M  V30 3 1 3 4
M  V30 4 2 4 5
M  V30 5 1 5 6
M  V30 6 1 6 7
M  V30 7 2 7 8
M  V30 8 1 8 9
M  V30 9 1 8 10
M  V30 10 1 10 11
M  V30 11 1 7 2
M  V30 12 2 11 6
M  V30 13 1 1 12
M  V30 14 1 1 13
M  V30 15 1 4 14
M  V30 16 1 9 15
M  V30 17 1 9 16
M  V30 18 1 10 17
M  V30 END BOND
M  V30 END CTAB
M  END
