
     RDKit          3D

  0  0  0  0  0  0  0  0  0  0999 V3000
M  V30 BEGIN CTAB
M  V30 COUNTS 15 14 0 0 0
M  V30 BEGIN ATOM
M  V30 1 N -3.50336 0.49124 0.0951128 0
M  V30 2 C -2.56035 -0.587116 0.27237 0
M  V30 3 C -1.18285 -0.182173 -0.0155869 0
M  V30 4 C -0.0443422 0.134775 -0.264951 0
M  V30 5 C 1.31418 0.490386 -0.561665 0
M  V30 6 O 1.61715 1.36197 -1.41564 0
M  V30 7 N 2.35551 -0.160411 0.129072 0
M  V30 8 N 3.684 0.16121 -0.135103 0
M  V30 9 H -3.11889 1.38843 0.457767 0
M  V30 10 H -3.60926 0.623674 -0.945058 0
M  V30 11 H -2.85312 -1.44465 -0.384924 0
M  V30 12 H -2.58259 -0.934427 1.32306 0
M  V30 13 H 2.1232 -0.882835 0.837699 0
M  V30 14 H 4.24043 0.0305787 0.75924 0
M  V30 15 H 4.12029 -0.490642 -0.838914 0
M  V30 END ATOM
M  V30 BEGIN BOND
M  V30 1 1 1 2
M  V30 2 1 2 3
M  V30 3 3 3 4
M  V30 4 1 4 5
M  V30 5 2 5 6
M  V30 6 1 5 7
M  V30 7 1 7 8
M  V30 8 1 1 9
M  V30 9 1 1 10
M  V30 10 1 2 11
M  V30 11 1 2 12
M  V30 12 1 7 13
M  V30 13 1 8 14
M  V30 14 1 8 15
M  V30 END BOND
M  V30 END CTAB
M  END
