
     RDKit          3D

  0  0  0  0  0  0  0  0  0  0999 V3000
M  V30 BEGIN CTAB
M  V30 COUNTS 40 42 0 0 0
M  V30 BEGIN ATOM
M  V30 1 N 7.75692 -0.420041 0.379079 0
M  V30 2 C 6.34142 -0.278349 0.363008 0
M  V30 3 N 5.62954 -0.261171 1.5242 0
M  V30 4 C 4.29177 -0.127895 1.52281 0
M  V30 5 N 3.50849 -0.104655 2.70659 0
M  V30 6 C 3.6777 -0.00923362 0.279338 0
M  V30 7 C 2.28994 0.131297 0.228747 0
M  V30 8 C 1.6755 0.247857 -0.985035 0
M  V30 9 N 0.288441 0.370134 -1.17649 0
M  V30 10 C -0.672945 -0.0106775 -0.239581 0
M  V30 11 O -0.371127 -0.506411 0.859985 0
M  V30 12 C -2.15492 0.164216 -0.52114 0
M  V30 13 C -2.9709 -0.322588 0.644778 0
M  V30 14 C -4.41868 -0.17595 0.424568 0
M  V30 15 C -5.21268 -1.13145 -0.146511 0
M  V30 16 C -6.55695 -0.894787 -0.307285 0
M  V30 17 C -7.11815 0.315347 0.108685 0
M  V30 18 Cl -8.82249 0.631068 -0.0883419 0
M  V30 19 C -6.33621 1.29125 0.686269 0
M  V30 20 C -4.99663 1.02143 0.83171 0
M  V30 21 C 2.43979 0.227275 -2.1774 0
M  V30 22 C 3.79955 0.0899827 -2.1282 0
M  V30 23 C 4.40161 -0.0271213 -0.892383 0
M  V30 24 N 5.73742 -0.162863 -0.833458 0
M  V30 25 H 8.15285 -1.39887 0.363335 0
M  V30 26 H 8.39855 0.385377 0.405103 0
M  V30 27 H 3.05433 0.741572 3.10979 0
M  V30 28 H 3.37652 -1.00439 3.21331 0
M  V30 29 H 1.7687 0.156232 1.1698 0
M  V30 30 H -0.0901813 0.786247 -2.09587 0
M  V30 31 H -2.38024 1.23156 -0.680923 0
M  V30 32 H -2.37036 -0.439423 -1.43867 0
M  V30 33 H -2.62964 0.192733 1.55983 0
M  V30 34 H -2.76957 -1.42574 0.736033 0
M  V30 35 H -4.74354 -2.06628 -0.460871 0
M  V30 36 H -7.2083 -1.62479 -0.752352 0
M  V30 37 H -6.73017 2.23147 1.01771 0
M  V30 38 H -4.38905 1.78445 1.28254 0
M  V30 39 H 1.96197 0.319497 -3.14276 0
M  V30 40 H 4.39174 0.0736883 -3.0446 0
M  V30 END ATOM
M  V30 BEGIN BOND
M  V30 1 1 1 2
M  V30 2 2 2 3
M  V30 3 1 3 4
M  V30 4 1 4 5
M  V30 5 2 4 6
M  V30 6 1 6 7
M  V30 7 2 7 8
M  V30 8 1 8 9
M  V30 9 1 9 10
M  V30 10 2 10 11
M  V30 11 1 10 12
M  V30 12 1 12 13
M  V30 13 1 13 14
M  V30 14 2 14 15
M  V30 15 1 15 16
M  V30 16 2 16 17
M  V30 17 1 17 18
M  V30 18 1 17 19
M  V30 19 2 19 20
M  V30 20 1 8 21
M  V30 21 2 21 22
M  V30 22 1 22 23
M  V30 23 2 23 24
M  V30 24 1 24 2
M  V30 25 1 23 6
M  V30 26 1 20 14
M  V30 27 1 1 25
M  V30 28 1 1 26
M  V30 29 1 5 27
M  V30 30 1 5 28
M  V30 31 1 7 29
M  V30 32 1 9 30
M  V30 33 1 12 31
M  V30 34 1 12 32
M  V30 35 1 13 33
M  V30 36 1 13 34
M  V30 37 1 15 35
M  V30 38 1 16 36
M  V30 39 1 19 37
M  V30 40 1 20 38
M  V30 41 1 21 39
M  V30 42 1 22 40
M  V30 END BOND
M  V30 END CTAB
M  END
