
     RDKit          3D

  0  0  0  0  0  0  0  0  0  0999 V3000
M  V30 BEGIN CTAB
M  V30 COUNTS 46 47 0 0 0
M  V30 BEGIN ATOM
M  V30 1 N 5.91381 0.606989 -0.0891302 0
M  V30 2 N 4.72753 0.593532 -0.831518 0
M  V30 3 C 3.50957 1.11932 -0.331576 0
M  V30 4 O 3.4972 1.61104 0.810957 0
M  V30 5 C 2.30501 1.07764 -1.15079 0
M  V30 6 C 0.975533 1.09319 -0.493729 0
M  V30 7 C 0.553261 -0.105435 0.228686 0
M  V30 8 C 1.38538 -0.555833 1.31968 0
M  V30 9 O 1.21122 -0.103715 2.47802 0
M  V30 10 N 2.42501 -1.52049 1.14168 0
M  V30 11 N 3.2275 -1.95681 2.20192 0
M  V30 12 P -1.21081 -0.0095039 0.743392 0
M  V30 13 O -1.16645 0.201814 2.24488 0
M  V30 14 C -2.05554 -1.53733 0.461048 0
M  V30 15 C -2.95902 -2.10119 1.37167 0
M  V30 16 C -3.59348 -3.28765 1.11548 0
M  V30 17 C -3.35687 -3.96119 -0.0534456 0
M  V30 18 C -2.46026 -3.41964 -0.977545 0
M  V30 19 C -1.83395 -2.23197 -0.70602 0
M  V30 20 C -2.02027 1.39595 0.0471345 0
M  V30 21 C -2.17644 2.60273 0.716126 0
M  V30 22 C -2.80941 3.6843 0.156727 0
M  V30 23 C -3.31774 3.59439 -1.11551 0
M  V30 24 C -3.17978 2.41205 -1.80634 0
M  V30 25 C -2.53864 1.3319 -1.22652 0
M  V30 26 H 6.56419 -0.154763 -0.36912 0
M  V30 27 H 6.37992 1.54556 -0.266528 0
M  V30 28 H 4.77883 0.166797 -1.7989 0
M  V30 29 H 2.36504 0.266583 -1.94038 0
M  V30 30 H 2.38088 2.01446 -1.8153 0
M  V30 31 H 0.256296 1.39179 -1.31551 0
M  V30 32 H 0.938094 2.02207 0.161213 0
M  V30 33 H 0.566684 -0.970212 -0.538166 0
M  V30 34 H 2.63416 -1.94554 0.208622 0
M  V30 35 H 3.0895 -1.37464 3.06588 0
M  V30 36 H 4.23114 -2.03862 1.9325 0
M  V30 37 H -3.14792 -1.56227 2.30626 0
M  V30 38 H -4.28178 -3.70933 1.81816 0
M  V30 39 H -3.83679 -4.90388 -0.298477 0
M  V30 40 H -2.28338 -3.97156 -1.90623 0
M  V30 41 H -1.13916 -1.80349 -1.41212 0
M  V30 42 H -1.78487 2.69976 1.71999 0
M  V30 43 H -2.91345 4.59527 0.694291 0
M  V30 44 H -3.82256 4.42905 -1.58563 0
M  V30 45 H -3.56903 2.32505 -2.79612 0
M  V30 46 H -2.45821 0.443811 -1.79993 0
M  V30 END ATOM
M  V30 BEGIN BOND
M  V30 1 1 1 2
M  V30 2 1 2 3
M  V30 3 2 3 4
M  V30 4 1 3 5
M  V30 5 1 5 6
M  V30 6 1 6 7
M  V30 7 1 7 8
M  V30 8 2 8 9
M  V30 9 1 8 10
M  V30 10 1 10 11
M  V30 11 1 7 12
M  V30 12 2 12 13
M  V30 13 1 12 14
M  V30 14 2 14 15
M  V30 15 1 15 16
M  V30 16 2 16 17
M  V30 17 1 17 18
M  V30 18 2 18 19
M  V30 19 1 12 20
M  V30 20 2 20 21
M  V30 21 1 21 22
M  V30 22 2 22 23
M  V30 23 1 23 24
M  V30 24 2 24 25
M  V30 25 1 19 14
M  V30 26 1 25 20
M  V30 27 1 1 26
M  V30 28 1 1 27
M  V30 29 1 2 28
M  V30 30 1 5 29
M  V30 31 1 5 30
M  V30 32 1 6 31
M  V30 33 1 6 32
M  V30 34 1 7 33
M  V30 35 1 10 34
M  V30 36 1 11 35
M  V30 37 1 11 36
M  V30 38 1 15 37
M  V30 39 1 16 38
M  V30 40 1 17 39
M  V30 41 1 18 40
M  V30 42 1 19 41
M  V30 43 1 21 42
M  V30 44 1 22 43
M  V30 45 1 23 44
M  V30 46 1 24 45
M  V30 47 1 25 46
M  V30 END BOND
M  V30 END CTAB
M  END
