
     RDKit          3D

  0  0  0  0  0  0  0  0  0  0999 V3000
M  V30 BEGIN CTAB
M  V30 COUNTS 54 56 0 0 0
M  V30 BEGIN ATOM
M  V30 1 C -4.5849 -1.20683 3.22133 0
M  V30 2 O -5.11534 -0.562806 2.08951 0
M  V30 3 C -4.43117 -0.532924 0.892446 0
M  V30 4 C -3.20345 -1.14901 0.814726 0
M  V30 5 C -2.52719 -1.11531 -0.380575 0
M  V30 6 C -1.20244 -1.76305 -0.521739 0
M  V30 7 C -0.0817873 -0.77492 -0.186794 0
M  V30 8 C 1.25211 -1.42067 -0.331062 0
M  V30 9 N 2.29092 -0.459085 -0.0100971 0
M  V30 10 C 2.39358 0.593406 -0.954741 0
M  V30 11 C 3.7055 0.61322 -1.71025 0
M  V30 12 C 4.75212 0.763749 -0.633896 0
M  V30 13 C 4.59732 -0.089446 0.435973 0
M  V30 14 C 3.48821 -1.05886 0.453266 0
M  V30 15 C 5.52279 0.00200583 1.46619 0
M  V30 16 N 5.35381 -0.877569 2.55847 0
M  V30 17 N 6.49185 0.904112 1.34718 0
M  V30 18 C 6.65447 1.7419 0.309368 0
M  V30 19 N 7.71261 2.6874 0.238387 0
M  V30 20 N 5.74828 1.66038 -0.710005 0
M  V30 21 C -3.04643 -0.478938 -1.50875 0
M  V30 22 C -4.27911 0.130875 -1.40334 0
M  V30 23 O -4.85859 0.783419 -2.48266 0
M  V30 24 C -4.15569 0.814481 -3.71102 0
M  V30 25 C -4.97686 0.11045 -0.214822 0
M  V30 26 O -6.19239 0.714497 -0.120485 0
M  V30 27 C -6.46735 2.03476 0.243587 0
M  V30 28 H -3.67472 -0.669361 3.57462 0
M  V30 29 H -4.33057 -2.27118 3.02539 0
M  V30 30 H -5.36442 -1.16822 4.02141 0
M  V30 31 H -2.80658 -1.63845 1.68431 0
M  V30 32 H -1.10087 -2.12794 -1.55914 0
M  V30 33 H -1.09767 -2.5864 0.201717 0
M  V30 34 H -0.28889 -0.414131 0.841538 0
M  V30 35 H -0.239839 0.0878879 -0.86326 0
M  V30 36 H 1.33009 -2.24121 0.406776 0
M  V30 37 H 1.3503 -1.83051 -1.34632 0
M  V30 38 H 2.38957 1.55678 -0.361562 0
M  V30 39 H 1.58526 0.676596 -1.68154 0
M  V30 40 H 3.75699 1.52502 -2.32564 0
M  V30 41 H 3.86879 -0.299962 -2.30759 0
M  V30 42 H 3.3011 -1.39293 1.51061 0
M  V30 43 H 3.76397 -2.00035 -0.0898792 0
M  V30 44 H 6.09995 -1.60398 2.7144 0
M  V30 45 H 4.55181 -0.858345 3.21383 0
M  V30 46 H 7.54057 3.56141 -0.300175 0
M  V30 47 H 8.62363 2.51498 0.7056 0
M  V30 48 H -2.48333 -0.472778 -2.43561 0
M  V30 49 H -4.668 1.4474 -4.46024 0
M  V30 50 H -4.11749 -0.243034 -4.06881 0
M  V30 51 H -3.11629 1.14057 -3.51114 0
M  V30 52 H -6.73229 2.61098 -0.681879 0
M  V30 53 H -5.61034 2.55166 0.694972 0
M  V30 54 H -7.37158 2.08025 0.886897 0
M  V30 END ATOM
M  V30 BEGIN BOND
M  V30 1 1 1 2
M  V30 2 1 2 3
M  V30 3 2 3 4
M  V30 4 1 4 5
M  V30 5 1 5 6
M  V30 6 1 6 7
M  V30 7 1 7 8
M  V30 8 1 8 9
M  V30 9 1 9 10
M  V30 10 1 10 11
M  V30 11 1 11 12
M  V30 12 2 12 13
M  V30 13 1 13 14
M  V30 14 1 13 15
M  V30 15 1 15 16
M  V30 16 2 15 17
M  V30 17 1 17 18
M  V30 18 1 18 19
M  V30 19 2 18 20
M  V30 20 2 5 21
M  V30 21 1 21 22
M  V30 22 1 22 23
M  V30 23 1 23 24
M  V30 24 2 22 25
M  V30 25 1 25 26
M  V30 26 1 26 27
M  V30 27 1 25 3
M  V30 28 1 14 9
M  V30 29 1 20 12
M  V30 30 1 1 28
M  V30 31 1 1 29
M  V30 32 1 1 30
M  V30 33 1 4 31
M  V30 34 1 6 32
M  V30 35 1 6 33
M  V30 36 1 7 34
M  V30 37 1 7 35
M  V30 38 1 8 36
M  V30 39 1 8 37
M  V30 40 1 10 38
M  V30 41 1 10 39
M  V30 42 1 11 40
M  V30 43 1 11 41
M  V30 44 1 14 42
M  V30 45 1 14 43
M  V30 46 1 16 44
M  V30 47 1 16 45
M  V30 48 1 19 46
M  V30 49 1 19 47
M  V30 50 1 21 48
M  V30 51 1 24 49
M  V30 52 1 24 50
M  V30 53 1 24 51
M  V30 54 1 27 52
M  V30 55 1 27 53
M  V30 56 1 27 54
M  V30 END BOND
M  V30 END CTAB
M  END
