
     RDKit          3D

  0  0  0  0  0  0  0  0  0  0999 V3000
M  V30 BEGIN CTAB
M  V30 COUNTS 19 20 0 0 0
M  V30 BEGIN ATOM
M  V30 1 N -2.46183 -2.25248 0.174117 0
M  V30 2 C -1.68848 -1.05132 0.177085 0
M  V30 3 N -2.28173 0.128526 0.246573 0
M  V30 4 C -1.57579 1.27706 0.25107 0
M  V30 5 N -2.2557 2.52223 0.32705 0
M  V30 6 N -0.217533 1.23821 0.182911 0
M  V30 7 C 0.397665 0.0517748 0.112115 0
M  V30 8 C -0.319425 -1.11812 0.107439 0
M  V30 9 C 1.87429 -0.0406566 0.0362955 0
M  V30 10 N 2.78858 0.917636 0.0240383 0
M  V30 11 C 4.03967 0.593511 -0.0486088 0
M  V30 12 N 4.35201 -0.702684 -0.108269 0
M  V30 13 S 2.83348 -1.44274 -0.0588145 0
M  V30 14 H -2.01716 -3.16754 0.391673 0
M  V30 15 H -3.46203 -2.22039 -0.0428582 0
M  V30 16 H -1.7929 3.40752 0.605526 0
M  V30 17 H -3.2772 2.56282 0.0924618 0
M  V30 18 H 0.217412 -2.05599 0.0489894 0
M  V30 19 H 4.84669 1.35265 -0.0623874 0
M  V30 END ATOM
M  V30 BEGIN BOND
M  V30 1 1 1 2
M  V30 2 2 2 3
M  V30 3 1 3 4
M  V30 4 1 4 5
M  V30 5 2 4 6
M  V30 6 1 6 7
M  V30 7 2 7 8
M  V30 8 1 7 9
M  V30 9 2 9 10
M  V30 10 1 10 11
M  V30 11 2 11 12
M  V30 12 1 12 13
M  V30 13 1 8 2
M  V30 14 1 13 9
M  V30 15 1 1 14
M  V30 16 1 1 15
M  V30 17 1 5 16
M  V30 18 1 5 17
M  V30 19 1 8 18
M  V30 20 1 11 19
M  V30 END BOND
M  V30 END CTAB
M  END
