
     RDKit          3D

  0  0  0  0  0  0  0  0  0  0999 V3000
M  V30 BEGIN CTAB
M  V30 COUNTS 33 34 0 0 0
M  V30 BEGIN ATOM
M  V30 1 N 5.94726 0.941673 -1.2939 0
M  V30 2 C 4.79313 0.559261 -0.533158 0
M  V30 3 N 4.49193 0.835672 0.72513 0
M  V30 4 C 3.39298 0.399689 1.2471 0
M  V30 5 C 2.56337 -0.352008 0.450801 0
M  V30 6 S 3.43603 -0.37918 -1.01549 0
M  V30 7 C 1.24406 -0.983679 0.772999 0
M  V30 8 N 0.16693 -0.0677961 0.475424 0
M  V30 9 C 0.0838702 0.343515 -0.858617 0
M  V30 10 C -1.22098 0.714627 -1.42066 0
M  V30 11 C -2.37394 0.720285 -0.466584 0
M  V30 12 C -2.23168 -0.546167 0.382029 0
M  V30 13 C -0.999023 -0.314534 1.20826 0
M  V30 14 S -3.65148 -0.777957 1.41803 0
M  V30 15 O -3.77623 0.355828 2.38374 0
M  V30 16 O -3.42178 -2.0324 2.21213 0
M  V30 17 N -5.05925 -0.891302 0.429596 0
M  V30 18 H 6.41983 1.82164 -1.04544 0
M  V30 19 H 6.24379 0.312489 -2.05246 0
M  V30 20 H 3.12221 0.622829 2.30684 0
M  V30 21 H 1.10194 -1.92849 0.241929 0
M  V30 22 H 1.25918 -1.17942 1.87122 0
M  V30 23 H 0.786046 1.22021 -1.00191 0
M  V30 24 H 0.551879 -0.45801 -1.50612 0
M  V30 25 H -1.21073 1.73087 -1.91384 0
M  V30 26 H -1.51293 0.0215729 -2.26489 0
M  V30 27 H -3.30928 0.740496 -1.03274 0
M  V30 28 H -2.24704 1.6033 0.215138 0
M  V30 29 H -2.11069 -1.38276 -0.310641 0
M  V30 30 H -0.900859 -1.17999 1.89879 0
M  V30 31 H -1.22652 0.564503 1.8761 0
M  V30 32 H -5.56911 0.0306206 0.446106 0
M  V30 33 H -4.78293 -1.06538 -0.561606 0
M  V30 END ATOM
M  V30 BEGIN BOND
M  V30 1 1 1 2
M  V30 2 2 2 3
M  V30 3 1 3 4
M  V30 4 2 4 5
M  V30 5 1 5 6
M  V30 6 1 5 7
M  V30 7 1 7 8
M  V30 8 1 8 9
M  V30 9 1 9 10
M  V30 10 1 10 11
M  V30 11 1 11 12
M  V30 12 1 12 13
M  V30 13 1 12 14
M  V30 14 2 14 15
M  V30 15 2 14 16
M  V30 16 1 14 17
M  V30 17 1 6 2
M  V30 18 1 13 8
M  V30 19 1 1 18
M  V30 20 1 1 19
M  V30 21 1 4 20
M  V30 22 1 7 21
M  V30 23 1 7 22
M  V30 24 1 9 23
M  V30 25 1 9 24
M  V30 26 1 10 25
M  V30 27 1 10 26
M  V30 28 1 11 27
M  V30 29 1 11 28
M  V30 30 1 12 29
M  V30 31 1 13 30
M  V30 32 1 13 31
M  V30 33 1 17 32
M  V30 34 1 17 33
M  V30 END BOND
M  V30 END CTAB
M  END
