
     RDKit          3D

  0  0  0  0  0  0  0  0  0  0999 V3000
M  V30 BEGIN CTAB
M  V30 COUNTS 27 28 0 0 0
M  V30 BEGIN ATOM
M  V30 1 C -1.32676 2.05565 0.595993 0
M  V30 2 N -1.79932 0.744693 0.33017 0
M  V30 3 C -0.886867 -0.305826 0.196176 0
M  V30 4 C -1.45969 -1.5646 0.905436 0
M  V30 5 C -2.27748 -1.77781 -0.350785 0
M  V30 6 C -1.18365 -1.07611 -1.0987 0
M  V30 7 C 0.544084 -0.161343 0.507875 0
M  V30 8 N 1.0912 -0.470049 1.70663 0
M  V30 9 N 2.40965 -0.240382 1.63105 0
M  V30 10 C 2.70998 0.203113 0.430067 0
M  V30 11 N 1.55446 0.250403 -0.270603 0
M  V30 12 N 1.46772 0.688929 -1.58494 0
M  V30 13 N 4.0118 0.556926 -0.00577653 0
M  V30 14 H -0.259354 2.2014 0.462968 0
M  V30 15 H -1.85305 2.76487 -0.120084 0
M  V30 16 H -1.66936 2.39162 1.60748 0
M  V30 17 H -2.68702 0.498632 0.842617 0
M  V30 18 H -0.621871 -2.26695 1.04386 0
M  V30 19 H -2.03257 -1.25103 1.79232 0
M  V30 20 H -3.20781 -1.1717 -0.252434 0
M  V30 21 H -2.43851 -2.83414 -0.608364 0
M  V30 22 H -1.59924 -0.451331 -1.90021 0
M  V30 23 H -0.402213 -1.81714 -1.37782 0
M  V30 24 H 1.99431 0.252297 -2.34858 0
M  V30 25 H 0.855162 1.52314 -1.79029 0
M  V30 26 H 4.7197 -0.238851 -0.162197 0
M  V30 27 H 4.3467 1.49558 -0.181865 0
M  V30 END ATOM
M  V30 BEGIN BOND
M  V30 1 1 1 2
M  V30 2 1 2 3
M  V30 3 1 3 4
M  V30 4 1 4 5
M  V30 5 1 5 6
M  V30 6 1 3 7
M  V30 7 2 7 8
M  V30 8 1 8 9
M  V30 9 2 9 10
M  V30 10 1 10 11
M  V30 11 1 11 12
M  V30 12 1 10 13
M  V30 13 1 6 3
M  V30 14 1 11 7
M  V30 15 1 1 14
M  V30 16 1 1 15
M  V30 17 1 1 16
M  V30 18 1 2 17
M  V30 19 1 4 18
M  V30 20 1 4 19
M  V30 21 1 5 20
M  V30 22 1 5 21
M  V30 23 1 6 22
M  V30 24 1 6 23
M  V30 25 1 12 24
M  V30 26 1 12 25
M  V30 27 1 13 26
M  V30 28 1 13 27
M  V30 END BOND
M  V30 END CTAB
M  END
