
     RDKit          3D

  0  0  0  0  0  0  0  0  0  0999 V3000
M  V30 BEGIN CTAB
M  V30 COUNTS 47 48 0 0 0
M  V30 BEGIN ATOM
M  V30 1 C -4.31208 2.36059 -0.866257 0
M  V30 2 C -3.04033 2.05431 -0.0776781 0
M  V30 3 C -2.55059 0.712099 -0.567349 0
M  V30 4 C -3.6691 -0.293899 -0.280055 0
M  V30 5 C -3.13529 -1.70598 -0.38384 0
M  V30 6 C -2.17966 -1.96126 0.740429 0
M  V30 7 C -1.55934 -0.652555 1.23729 0
M  V30 8 N -1.37238 0.250566 0.127032 0
M  V30 9 C -0.0751117 0.657858 -0.242932 0
M  V30 10 O 0.0106746 1.46608 -1.22024 0
M  V30 11 C 1.15961 0.208663 0.424069 0
M  V30 12 C 2.34849 0.940295 -0.18696 0
M  V30 13 C 3.65073 0.537835 0.42489 0
M  V30 14 N 3.79589 -0.898518 0.436445 0
M  V30 15 C 2.82645 -1.45113 -0.462943 0
M  V30 16 C 1.43403 -1.27253 0.144629 0
M  V30 17 S 5.40198 -1.34004 0.0605875 0
M  V30 18 O 5.51629 -2.83514 0.168433 0
M  V30 19 O 6.31073 -0.690429 1.07642 0
M  V30 20 N 5.88987 -0.827387 -1.51247 0
M  V30 21 N -3.30602 2.0457 1.3446 0
M  V30 22 H -4.45812 3.45288 -0.9934 0
M  V30 23 H -4.25104 1.93737 -1.88868 0
M  V30 24 H -5.18495 1.99067 -0.289906 0
M  V30 25 H -2.3334 2.87023 -0.284949 0
M  V30 26 H -2.43587 0.729286 -1.66099 0
M  V30 27 H -4.11088 -0.138243 0.707886 0
M  V30 28 H -4.43555 -0.16824 -1.05313 0
M  V30 29 H -2.63657 -1.8627 -1.35602 0
M  V30 30 H -3.97137 -2.42534 -0.334133 0
M  V30 31 H -2.76245 -2.427 1.56871 0
M  V30 32 H -1.36906 -2.67335 0.460053 0
M  V30 33 H -2.30069 -0.258588 1.97222 0
M  V30 34 H -0.643971 -0.92118 1.77342 0
M  V30 35 H 1.07942 0.367805 1.49609 0
M  V30 36 H 2.30781 0.911163 -1.27365 0
M  V30 37 H 2.1875 2.02323 0.0944245 0
M  V30 38 H 4.45971 0.930411 -0.240034 0
M  V30 39 H 3.80908 1.00643 1.4115 0
M  V30 40 H 2.98621 -2.55268 -0.508066 0
M  V30 41 H 2.84135 -1.04288 -1.47648 0
M  V30 42 H 1.44814 -1.85912 1.08775 0
M  V30 43 H 0.67761 -1.68718 -0.543966 0
M  V30 44 H 5.39271 0.0453323 -1.82265 0
M  V30 45 H 6.9138 -0.546552 -1.49129 0
M  V30 46 H -3.9653 2.77385 1.64115 0
M  V30 47 H -2.38894 2.21925 1.83147 0
M  V30 END ATOM
M  V30 BEGIN BOND
M  V30 1 1 1 2
M  V30 2 1 2 3
M  V30 3 1 3 4
M  V30 4 1 4 5
M  V30 5 1 5 6
M  V30 6 1 6 7
M  V30 7 1 7 8
M  V30 8 1 8 9
M  V30 9 2 9 10
M  V30 10 1 9 11
M  V30 11 1 11 12
M  V30 12 1 12 13
M  V30 13 1 13 14
M  V30 14 1 14 15
M  V30 15 1 15 16
M  V30 16 1 14 17
M  V30 17 2 17 18
M  V30 18 2 17 19
M  V30 19 1 17 20
M  V30 20 1 2 21
M  V30 21 1 8 3
M  V30 22 1 16 11
M  V30 23 1 1 22
M  V30 24 1 1 23
M  V30 25 1 1 24
M  V30 26 1 2 25
M  V30 27 1 3 26
M  V30 28 1 4 27
M  V30 29 1 4 28
M  V30 30 1 5 29
M  V30 31 1 5 30
M  V30 32 1 6 31
M  V30 33 1 6 32
M  V30 34 1 7 33
M  V30 35 1 7 34
M  V30 36 1 11 35
M  V30 37 1 12 36
M  V30 38 1 12 37
M  V30 39 1 13 38
M  V30 40 1 13 39
M  V30 41 1 15 40
M  V30 42 1 15 41
M  V30 43 1 16 42
M  V30 44 1 16 43
M  V30 45 1 20 44
M  V30 46 1 20 45
M  V30 47 1 21 46
M  V30 48 1 21 47
M  V30 END BOND
M  V30 END CTAB
M  END
