
     RDKit          3D

  0  0  0  0  0  0  0  0  0  0999 V3000
M  V30 BEGIN CTAB
M  V30 COUNTS 19 19 0 0 0
M  V30 BEGIN ATOM
M  V30 1 O 3.19391 -1.538 0.662471 0
M  V30 2 C 2.52228 -0.925064 -0.383803 0
M  V30 3 O 3.0942 -0.853662 -1.49038 0
M  V30 4 C 1.18643 -0.366336 -0.241896 0
M  V30 5 C 0.925095 0.982998 -0.125092 0
M  V30 6 C -0.355593 1.47999 0.0193341 0
M  V30 7 N -0.619959 2.87445 0.138561 0
M  V30 8 C -1.44373 0.626075 0.0525738 0
M  V30 9 C -1.21118 -0.727741 -0.0623065 0
M  V30 10 C 0.0858544 -1.19678 -0.206671 0
M  V30 11 Cl 0.373251 -2.92657 -0.346918 0
M  V30 12 N -2.32213 -1.6107 -0.026528 0
M  V30 13 Cl -3.08469 1.2542 0.235285 0
M  V30 14 H 2.79237 -1.57835 1.60187 0
M  V30 15 H 1.76302 1.66276 -0.148011 0
M  V30 16 H -1.21161 3.20942 0.920283 0
M  V30 17 H -0.223764 3.54929 -0.553337 0
M  V30 18 H -2.23417 -2.54822 -0.464309 0
M  V30 19 H -3.22959 -1.36777 0.418878 0
M  V30 END ATOM
M  V30 BEGIN BOND
M  V30 1 1 1 2
M  V30 2 2 2 3
M  V30 3 1 2 4
M  V30 4 2 4 5
M  V30 5 1 5 6
M  V30 6 1 6 7
M  V30 7 2 6 8
M  V30 8 1 8 9
M  V30 9 2 9 10
M  V30 10 1 10 11
M  V30 11 1 9 12
M  V30 12 1 8 13
M  V30 13 1 10 4
M  V30 14 1 1 14
M  V30 15 1 5 15
M  V30 16 1 7 16
M  V30 17 1 7 17
M  V30 18 1 12 18
M  V30 19 1 12 19
M  V30 END BOND
M  V30 END CTAB
M  END
