
     RDKit          3D

  0  0  0  0  0  0  0  0  0  0999 V3000
M  V30 BEGIN CTAB
M  V30 COUNTS 25 25 0 0 0
M  V30 BEGIN ATOM
M  V30 1 Br 4.45928 -1.75806 1.76303 0
M  V30 2 C 3.16315 -0.730444 0.764086 0
M  V30 3 C 2.90172 0.482201 1.2183 0
M  V30 4 C 2.57315 -1.38493 -0.402951 0
M  V30 5 N 1.5841 -0.655074 -1.12011 0
M  V30 6 C 0.291672 -0.335127 -0.639525 0
M  V30 7 C -0.169359 -0.851287 0.549691 0
M  V30 8 C -1.4275 -0.535164 1.01451 0
M  V30 9 C -2.25598 0.304898 0.301737 0
M  V30 10 C -1.81874 0.83344 -0.889151 0
M  V30 11 C -0.55705 0.503495 -1.33436 0
M  V30 12 N -2.64301 1.71151 -1.66651 0
M  V30 13 N -3.55948 0.66362 0.732974 0
M  V30 14 H 3.38508 0.874225 2.09805 0
M  V30 15 H 2.20648 1.12222 0.723815 0
M  V30 16 H 3.43048 -1.70318 -1.06627 0
M  V30 17 H 2.13141 -2.37558 -0.0821006 0
M  V30 18 H 1.82812 -0.325539 -2.08349 0
M  V30 19 H 0.473541 -1.50846 1.10854 0
M  V30 20 H -1.81848 -0.925029 1.94596 0
M  V30 21 H -0.252388 0.952551 -2.29441 0
M  V30 22 H -2.8026 2.71235 -1.41851 0
M  V30 23 H -3.11628 1.35715 -2.52463 0
M  V30 24 H -3.6984 0.865497 1.74365 0
M  V30 25 H -4.30892 0.704719 0.00737193 0
M  V30 END ATOM
M  V30 BEGIN BOND
M  V30 1 1 1 2
M  V30 2 2 2 3 CFG=2
M  V30 3 1 2 4
M  V30 4 1 4 5
M  V30 5 1 5 6
M  V30 6 2 6 7
M  V30 7 1 7 8
M  V30 8 2 8 9
M  V30 9 1 9 10
M  V30 10 2 10 11
M  V30 11 1 10 12
M  V30 12 1 9 13
M  V30 13 1 11 6
M  V30 14 1 3 14
M  V30 15 1 3 15
M  V30 16 1 4 16
M  V30 17 1 4 17
M  V30 18 1 5 18
M  V30 19 1 7 19
M  V30 20 1 8 20
M  V30 21 1 11 21
M  V30 22 1 12 22
M  V30 23 1 12 23
M  V30 24 1 13 24
M  V30 25 1 13 25
M  V30 END BOND
M  V30 END CTAB
M  END
