
     RDKit          3D

  0  0  0  0  0  0  0  0  0  0999 V3000
M  V30 BEGIN CTAB
M  V30 COUNTS 23 23 0 0 0
M  V30 BEGIN ATOM
M  V30 1 C 4.28482 0.538356 -0.356057 0
M  V30 2 S 3.38364 -1.00306 -0.125405 0
M  V30 3 C 1.61514 -0.703721 -0.101269 0
M  V30 4 C 0.745202 -1.76044 0.0657746 0
M  V30 5 C -0.638749 -1.54546 0.0871594 0
M  V30 6 C -1.15125 -0.279095 -0.0578677 0
M  V30 7 C -0.29491 0.779485 -0.224669 0
M  V30 8 C 1.07794 0.559141 -0.244968 0
M  V30 9 N -0.811306 2.10636 -0.377364 0
M  V30 10 S -2.86432 0.0546133 -0.0401037 0
M  V30 11 O -3.31376 0.710364 -1.31821 0
M  V30 12 O -3.18777 0.988801 1.08007 0
M  V30 13 N -3.77859 -1.37757 0.176905 0
M  V30 14 H 3.70986 1.36516 0.12933 0
M  V30 15 H 4.33977 0.810496 -1.44052 0
M  V30 16 H 5.28047 0.537759 0.125562 0
M  V30 17 H 1.16023 -2.74728 0.178236 0
M  V30 18 H -1.30662 -2.3858 0.21915 0
M  V30 19 H 1.73389 1.41096 -0.378019 0
M  V30 20 H -1.15535 2.57447 0.487457 0
M  V30 21 H -0.847199 2.59173 -1.30165 0
M  V30 22 H -3.24753 -2.05374 0.767241 0
M  V30 23 H -4.73361 -1.17152 0.556337 0
M  V30 END ATOM
M  V30 BEGIN BOND
M  V30 1 1 1 2
M  V30 2 1 2 3
M  V30 3 2 3 4
M  V30 4 1 4 5
M  V30 5 2 5 6
M  V30 6 1 6 7
M  V30 7 2 7 8
M  V30 8 1 7 9
M  V30 9 1 6 10
M  V30 10 2 10 11
M  V30 11 2 10 12
M  V30 12 1 10 13
M  V30 13 1 8 3
M  V30 14 1 1 14
M  V30 15 1 1 15
M  V30 16 1 1 16
M  V30 17 1 4 17
M  V30 18 1 5 18
M  V30 19 1 8 19
M  V30 20 1 9 20
M  V30 21 1 9 21
M  V30 22 1 13 22
M  V30 23 1 13 23
M  V30 END BOND
M  V30 END CTAB
M  END
