
     RDKit          3D

  0  0  0  0  0  0  0  0  0  0999 V3000
M  V30 BEGIN CTAB
M  V30 COUNTS 17 16 0 0 0
M  V30 BEGIN ATOM
M  V30 1 N 1.72334 0.588561 1.06002 0
M  V30 2 C 1.19334 -0.604841 0.465531 0
M  V30 3 C 0.312316 -0.277175 -0.719763 0
M  V30 4 P -1.08685 0.751858 -0.281059 0
M  V30 5 O -1.41984 1.62291 -1.48857 0
M  V30 6 O -0.721731 1.8243 0.991186 0
M  V30 7 O -2.46724 -0.139029 0.0760802 0
M  V30 8 N -0.157096 -1.48908 -1.3603 0
M  V30 9 H 2.6453 0.452125 1.52367 0
M  V30 10 H 1.68924 1.42686 0.44136 0
M  V30 11 H 0.679305 -1.26282 1.19497 0
M  V30 12 H 2.05271 -1.19336 0.0744046 0
M  V30 13 H 0.948595 0.289405 -1.44644 0
M  V30 14 H -1.60266 2.23701 1.24234 0
M  V30 15 H -2.36969 -0.727186 0.849482 0
M  V30 16 H -0.472955 -2.17557 -0.630899 0
M  V30 17 H -0.946096 -1.32397 -1.992 0
M  V30 END ATOM
M  V30 BEGIN BOND
M  V30 1 1 1 2
M  V30 2 1 2 3
M  V30 3 1 3 4
M  V30 4 2 4 5
M  V30 5 1 4 6
M  V30 6 1 4 7
M  V30 7 1 3 8
M  V30 8 1 1 9
M  V30 9 1 1 10
M  V30 10 1 2 11
M  V30 11 1 2 12
M  V30 12 1 3 13
M  V30 13 1 6 14
M  V30 14 1 7 15
M  V30 15 1 8 16
M  V30 16 1 8 17
M  V30 END BOND
M  V30 END CTAB
M  END
