
     RDKit          3D

  0  0  0  0  0  0  0  0  0  0999 V3000
M  V30 BEGIN CTAB
M  V30 COUNTS 43 44 0 0 0
M  V30 BEGIN ATOM
M  V30 1 C -5.82305 -1.216 0.724882 0
M  V30 2 O -5.79899 -0.0470518 0.0243085 0
M  V30 3 C -4.58633 0.305063 -0.528558 0
M  V30 4 C -3.55659 0.472347 0.518518 0
M  V30 5 N -2.2574 0.859672 0.0217226 0
M  V30 6 C -1.81782 2.12439 -0.120906 0
M  V30 7 C -2.58824 3.32905 0.210724 0
M  V30 8 C -0.548756 2.02851 -0.62372 0
M  V30 9 C -0.205309 0.673395 -0.79263 0
M  V30 10 C -1.31756 -0.0217054 -0.370417 0
M  V30 11 C -1.42905 -1.5163 -0.361292 0
M  V30 12 C 1.05586 0.228313 -1.31357 0
M  V30 13 O 1.96758 1.08156 -1.55634 0
M  V30 14 C 1.37417 -1.16419 -1.5935 0
M  V30 15 S 3.11826 -1.34854 -2.157 0
M  V30 16 C 4.23745 -0.993293 -0.834147 0
M  V30 17 N 4.68915 0.241307 -0.605068 0
M  V30 18 C 5.55143 0.490831 0.398098 0
M  V30 19 N 6.01931 1.82656 0.617069 0
M  V30 20 N 5.9503 -0.524205 1.16603 0
M  V30 21 C 5.52822 -1.80015 0.985653 0
M  V30 22 N 4.65905 -1.99887 -0.0396087 0
M  V30 23 N 5.96302 -2.85361 1.80869 0
M  V30 24 H -6.90102 -1.33867 1.07097 0
M  V30 25 H -5.21444 -1.08105 1.66019 0
M  V30 26 H -5.54722 -2.09535 0.139727 0
M  V30 27 H -4.78187 1.23492 -1.11576 0
M  V30 28 H -4.294 -0.541266 -1.18939 0
M  V30 29 H -3.91996 1.20522 1.3039 0
M  V30 30 H -3.43313 -0.470098 1.07556 0
M  V30 31 H -3.0259 3.30213 1.25128 0
M  V30 32 H -1.94997 4.24302 0.206062 0
M  V30 33 H -3.39355 3.54839 -0.547765 0
M  V30 34 H 0.110932 2.83998 -0.863429 0
M  V30 35 H -1.20527 -1.95226 -1.34056 0
M  V30 36 H -0.806317 -1.97242 0.435718 0
M  V30 37 H -2.4874 -1.78853 -0.0449973 0
M  V30 38 H 1.23397 -1.85919 -0.7436 0
M  V30 39 H 0.780151 -1.56294 -2.45268 0
M  V30 40 H 5.31316 2.52958 0.913568 0
M  V30 41 H 7.0395 2.05511 0.475904 0
M  V30 42 H 6.85458 -2.7477 2.33339 0
M  V30 43 H 5.44304 -3.72598 1.91783 0
M  V30 END ATOM
M  V30 BEGIN BOND
M  V30 1 1 1 2
M  V30 2 1 2 3
M  V30 3 1 3 4
M  V30 4 1 4 5
M  V30 5 1 5 6
M  V30 6 1 6 7
M  V30 7 2 6 8
M  V30 8 1 8 9
M  V30 9 2 9 10
M  V30 10 1 10 11
M  V30 11 1 9 12
M  V30 12 2 12 13
M  V30 13 1 12 14
M  V30 14 1 14 15
M  V30 15 1 15 16
M  V30 16 2 16 17
M  V30 17 1 17 18
M  V30 18 1 18 19
M  V30 19 2 18 20
M  V30 20 1 20 21
M  V30 21 2 21 22
M  V30 22 1 21 23
M  V30 23 1 10 5
M  V30 24 1 22 16
M  V30 25 1 1 24
M  V30 26 1 1 25
M  V30 27 1 1 26
M  V30 28 1 3 27
M  V30 29 1 3 28
M  V30 30 1 4 29
M  V30 31 1 4 30
M  V30 32 1 7 31
M  V30 33 1 7 32
M  V30 34 1 7 33
M  V30 35 1 8 34
M  V30 36 1 11 35
M  V30 37 1 11 36
M  V30 38 1 11 37
M  V30 39 1 14 38
M  V30 40 1 14 39
M  V30 41 1 19 40
M  V30 42 1 19 41
M  V30 43 1 23 42
M  V30 44 1 23 43
M  V30 END BOND
M  V30 END CTAB
M  END
