
     RDKit          3D

  0  0  0  0  0  0  0  0  0  0999 V3000
M  V30 BEGIN CTAB
M  V30 COUNTS 35 36 0 0 0
M  V30 BEGIN ATOM
M  V30 1 S -0.475181 -3.30242 -0.301744 0
M  V30 2 C 0.576896 -2.00927 -0.196758 0
M  V30 3 N 1.95809 -2.24744 -0.180603 0
M  V30 4 C 2.93058 -1.24055 -0.100713 0
M  V30 5 C 2.99388 -0.213076 0.812297 0
M  V30 6 C 3.97759 0.747063 0.810581 0
M  V30 7 C 4.9765 0.722128 -0.135652 0
M  V30 8 C 4.92679 -0.309921 -1.06455 0
M  V30 9 C 3.95207 -1.26667 -1.06838 0
M  V30 10 N 6.00731 1.68741 -0.176052 0
M  V30 11 N 0.0273101 -0.721951 -0.169933 0
M  V30 12 C -1.34504 -0.400752 -0.143158 0
M  V30 13 C -2.28689 -1.09512 0.525821 0
M  V30 14 C -3.64351 -0.741253 0.481132 0
M  V30 15 C -4.05249 0.337591 -0.254753 0
M  V30 16 C -3.09183 1.05164 -0.93989 0
M  V30 17 C -1.7538 0.701716 -0.895848 0
M  V30 18 S -5.72915 0.764911 -0.302541 0
M  V30 19 O -6.13307 1.40745 -1.58028 0
M  V30 20 O -6.61996 -0.454602 -0.115562 0
M  V30 21 N -6.04339 1.86763 0.986765 0
M  V30 22 H 2.28009 -3.2793 -0.23376 0
M  V30 23 H 2.20201 -0.19682 1.58119 0
M  V30 24 H 3.9855 1.53338 1.546 0
M  V30 25 H 5.70117 -0.365145 -1.8316 0
M  V30 26 H 3.94291 -2.07134 -1.81992 0
M  V30 27 H 6.22658 2.22158 0.681292 0
M  V30 28 H 6.5472 1.87404 -1.03704 0
M  V30 29 H 0.720301 0.100729 -0.196356 0
M  V30 30 H -2.03932 -1.93347 1.14317 0
M  V30 31 H -4.35995 -1.316 1.0235 0
M  V30 32 H -3.35946 1.91944 -1.54111 0
M  V30 33 H -1.01212 1.27271 -1.43942 0
M  V30 34 H -5.18779 2.43416 1.2005 0
M  V30 35 H -6.79983 2.52154 0.687719 0
M  V30 END ATOM
M  V30 BEGIN BOND
M  V30 1 2 1 2
M  V30 2 1 2 3
M  V30 3 1 3 4
M  V30 4 2 4 5
M  V30 5 1 5 6
M  V30 6 2 6 7
M  V30 7 1 7 8
M  V30 8 2 8 9
M  V30 9 1 7 10
M  V30 10 1 2 11
M  V30 11 1 11 12
M  V30 12 2 12 13
M  V30 13 1 13 14
M  V30 14 2 14 15
M  V30 15 1 15 16
M  V30 16 2 16 17
M  V30 17 1 15 18
M  V30 18 2 18 19
M  V30 19 2 18 20
M  V30 20 1 18 21
M  V30 21 1 9 4
M  V30 22 1 17 12
M  V30 23 1 3 22
M  V30 24 1 5 23
M  V30 25 1 6 24
M  V30 26 1 8 25
M  V30 27 1 9 26
M  V30 28 1 10 27
M  V30 29 1 10 28
M  V30 30 1 11 29
M  V30 31 1 13 30
M  V30 32 1 14 31
M  V30 33 1 16 32
M  V30 34 1 17 33
M  V30 35 1 21 34
M  V30 36 1 21 35
M  V30 END BOND
M  V30 END CTAB
M  END
