
     RDKit          3D

  0  0  0  0  0  0  0  0  0  0999 V3000
M  V30 BEGIN CTAB
M  V30 COUNTS 34 35 0 0 0
M  V30 BEGIN ATOM
M  V30 1 F 5.04386 0.0512359 -0.60361 0
M  V30 2 C 3.74191 -0.0866704 -1.02988 0
M  V30 3 C 2.9281 -0.799706 -0.00190509 0
M  V30 4 C 2.855 -0.127294 1.3276 0
M  V30 5 C 1.76022 0.914227 1.43378 0
M  V30 6 N 0.45542 0.349935 1.15343 0
M  V30 7 C 0.519534 -0.978186 0.64095 0
M  V30 8 C 1.5309 -1.12187 -0.486054 0
M  V30 9 C -0.219008 1.23519 0.259575 0
M  V30 10 C -1.57589 0.796383 -0.122395 0
M  V30 11 N -1.78097 0.23006 -1.32244 0
M  V30 12 C -3.01292 -0.193061 -1.72584 0
M  V30 13 N -3.18845 -0.787086 -3.00269 0
M  V30 14 N -4.02325 -0.0147982 -0.856671 0
M  V30 15 C -3.86738 0.546741 0.354938 0
M  V30 16 N -2.62582 0.947074 0.7019 0
M  V30 17 N -4.99071 0.691321 1.19872 0
M  V30 18 F 3.79751 -0.927068 -2.15082 0
M  V30 19 F 3.21467 1.09393 -1.45753 0
M  V30 20 H 3.43279 -1.79594 0.167874 0
M  V30 21 H 3.80144 0.291947 1.67901 0
M  V30 22 H 2.57901 -0.924651 2.07886 0
M  V30 23 H 1.96672 1.79155 0.799141 0
M  V30 24 H 1.78743 1.28248 2.48685 0
M  V30 25 H -0.455315 -1.30847 0.241079 0
M  V30 26 H 0.826139 -1.73167 1.40388 0
M  V30 27 H 1.23306 -0.410173 -1.28829 0
M  V30 28 H 1.45344 -2.17 -0.840773 0
M  V30 29 H -0.312589 2.27267 0.686913 0
M  V30 30 H 0.413773 1.38644 -0.661265 0
M  V30 31 H -2.53609 -0.547807 -3.77625 0
M  V30 32 H -3.9492 -1.44828 -3.17208 0
M  V30 33 H -5.50265 1.58643 1.22126 0
M  V30 34 H -5.3007 -0.0948892 1.7922 0
M  V30 END ATOM
M  V30 BEGIN BOND
M  V30 1 1 1 2
M  V30 2 1 2 3
M  V30 3 1 3 4
M  V30 4 1 4 5
M  V30 5 1 5 6
M  V30 6 1 6 7
M  V30 7 1 7 8
M  V30 8 1 6 9
M  V30 9 1 9 10
M  V30 10 2 10 11
M  V30 11 1 11 12
M  V30 12 1 12 13
M  V30 13 2 12 14
M  V30 14 1 14 15
M  V30 15 2 15 16
M  V30 16 1 15 17
M  V30 17 1 2 18
M  V30 18 1 2 19
M  V30 19 1 8 3
M  V30 20 1 16 10
M  V30 21 1 3 20
M  V30 22 1 4 21
M  V30 23 1 4 22
M  V30 24 1 5 23
M  V30 25 1 5 24
M  V30 26 1 7 25
M  V30 27 1 7 26
M  V30 28 1 8 27
M  V30 29 1 8 28
M  V30 30 1 9 29
M  V30 31 1 9 30
M  V30 32 1 13 31
M  V30 33 1 13 32
M  V30 34 1 17 33
M  V30 35 1 17 34
M  V30 END BOND
M  V30 END CTAB
M  END
