
     RDKit          3D

  0  0  0  0  0  0  0  0  0  0999 V3000
M  V30 BEGIN CTAB
M  V30 COUNTS 28 30 0 0 0
M  V30 BEGIN ATOM
M  V30 1 N -1.31415 2.65411 0.728239 0
M  V30 2 C -0.638225 1.45157 0.394084 0
M  V30 3 C 0.735135 1.47063 0.317055 0
M  V30 4 N 1.42584 2.69774 0.575932 0
M  V30 5 C 1.39153 0.310638 -0.00556103 0
M  V30 6 C 0.673222 -0.860791 -0.249208 0
M  V30 7 C 1.35404 -2.00637 -0.569757 0
M  V30 8 C 2.75058 -1.94665 -0.638231 0
M  V30 9 C 3.42929 -0.799016 -0.398051 0
M  V30 10 C 2.77065 0.359869 -0.0755624 0
M  V30 11 C -0.70643 -0.879329 -0.171677 0
M  V30 12 C -1.36036 0.303241 0.156316 0
M  V30 13 C -2.74393 0.302307 0.238391 0
M  V30 14 C -3.48775 -0.835587 0.00446592 0
M  V30 15 C -2.81411 -2.00078 -0.320451 0
M  V30 16 C -1.4403 -2.01988 -0.406841 0
M  V30 17 H -1.06999 3.49983 0.167027 0
M  V30 18 H -2.0274 2.71161 1.49771 0
M  V30 19 H 1.339 3.18665 1.49277 0
M  V30 20 H 2.0326 3.13667 -0.139946 0
M  V30 21 H 0.853081 -2.94184 -0.76865 0
M  V30 22 H 3.25709 -2.85694 -0.890894 0
M  V30 23 H 4.50398 -0.810056 -0.464701 0
M  V30 24 H 3.28744 1.30129 0.123852 0
M  V30 25 H -3.20954 1.24328 0.496145 0
M  V30 26 H -4.57674 -0.831213 0.0703039 0
M  V30 27 H -3.41339 -2.87683 -0.498973 0
M  V30 28 H -1.00117 -2.96415 -0.663787 0
M  V30 END ATOM
M  V30 BEGIN BOND
M  V30 1 1 1 2
M  V30 2 2 2 3
M  V30 3 1 3 4
M  V30 4 1 3 5
M  V30 5 2 5 6
M  V30 6 1 6 7
M  V30 7 2 7 8
M  V30 8 1 8 9
M  V30 9 2 9 10
M  V30 10 1 6 11
M  V30 11 2 11 12
M  V30 12 1 12 13
M  V30 13 2 13 14
M  V30 14 1 14 15
M  V30 15 2 15 16
M  V30 16 1 12 2
M  V30 17 1 10 5
M  V30 18 1 16 11
M  V30 19 1 1 17
M  V30 20 1 1 18
M  V30 21 1 4 19
M  V30 22 1 4 20
M  V30 23 1 7 21
M  V30 24 1 8 22
M  V30 25 1 9 23
M  V30 26 1 10 24
M  V30 27 1 13 25
M  V30 28 1 14 26
M  V30 29 1 15 27
M  V30 30 1 16 28
M  V30 END BOND
M  V30 END CTAB
M  END
