
     RDKit          3D

  0  0  0  0  0  0  0  0  0  0999 V3000
M  V30 BEGIN CTAB
M  V30 COUNTS 49 51 0 0 0
M  V30 BEGIN ATOM
M  V30 1 C 4.94736 1.39987 -2.35878 0
M  V30 2 C 3.80271 2.02214 -1.59584 0
M  V30 3 O 3.47414 1.30416 -0.458998 0
M  V30 4 C 3.08912 -0.00288987 -0.756627 0
M  V30 5 C 2.74972 -0.711529 0.533126 0
M  V30 6 C 2.31668 -2.12813 0.34444 0
M  V30 7 C 3.78275 -2.5116 0.223403 0
M  V30 8 C 4.06713 -1.31204 1.09816 0
M  V30 9 C 2.11736 0.1248 1.5827 0
M  V30 10 N 0.896325 0.770396 1.27523 0
M  V30 11 C -0.356422 0.226205 0.978167 0
M  V30 12 C -1.46461 1.03508 0.678442 0
M  V30 13 C -2.68325 0.481142 0.399152 0
M  V30 14 N -2.83119 -0.852857 0.409389 0
M  V30 15 C -1.79256 -1.63554 0.691154 0
M  V30 16 N -0.616884 -1.08436 0.960019 0
M  V30 17 N -1.92001 -3.06768 0.709851 0
M  V30 18 C -3.83684 1.36105 0.0858279 0 CFG=2
M  V30 19 C -5.10724 1.01516 0.871376 0
M  V30 20 C -5.87953 1.36549 -0.406955 0 CFG=1
M  V30 21 C -4.6028 0.981368 -1.16675 0
M  V30 22 N -7.00855 0.530106 -0.674583 0
M  V30 23 H 4.62637 0.641357 -3.09039 0
M  V30 24 H 5.43365 2.22287 -2.93586 0
M  V30 25 H 5.709 0.983842 -1.67351 0
M  V30 26 H 4.1295 3.03011 -1.26663 0
M  V30 27 H 2.93529 2.1733 -2.27007 0
M  V30 28 H 3.9557 -0.456188 -1.26862 0
M  V30 29 H 2.16958 0.0142646 -1.3767 0
M  V30 30 H 1.71907 -2.32551 -0.56793 0
M  V30 31 H 1.93374 -2.63865 1.26532 0
M  V30 32 H 4.02702 -3.49074 0.696251 0
M  V30 33 H 4.13826 -2.39487 -0.805067 0
M  V30 34 H 4.94802 -0.724318 0.822869 0
M  V30 35 H 3.94478 -1.51879 2.18105 0
M  V30 36 H 1.91831 -0.567813 2.45809 0
M  V30 37 H 2.90592 0.821047 1.95995 0
M  V30 38 H 0.933761 1.84346 1.26767 0
M  V30 39 H -1.33389 2.11352 0.672908 0
M  V30 40 H -1.72026 -3.5393 1.6179 0
M  V30 41 H -2.19936 -3.57583 -0.157053 0
M  V30 42 H -3.60365 2.42769 0.105996 0
M  V30 43 H -5.31371 1.68112 1.71853 0
M  V30 44 H -5.13857 -0.0630011 1.05441 0
M  V30 45 H -6.14182 2.43284 -0.481389 0
M  V30 46 H -4.39658 1.58656 -2.0486 0
M  V30 47 H -4.5846 -0.11086 -1.34941 0
M  V30 48 H -6.93316 -0.432352 -0.286637 0
M  V30 49 H -7.20575 0.555908 -1.68946 0
M  V30 END ATOM
M  V30 BEGIN BOND
M  V30 1 1 1 2
M  V30 2 1 2 3
M  V30 3 1 3 4
M  V30 4 1 4 5
M  V30 5 1 5 6
M  V30 6 1 6 7
M  V30 7 1 7 8
M  V30 8 1 5 9
M  V30 9 1 9 10
M  V30 10 1 10 11
M  V30 11 2 11 12
M  V30 12 1 12 13
M  V30 13 2 13 14
M  V30 14 1 14 15
M  V30 15 2 15 16
M  V30 16 1 15 17
M  V30 17 1 13 18
M  V30 18 1 18 19
M  V30 19 1 19 20
M  V30 20 1 20 21
M  V30 21 1 20 22
M  V30 22 1 8 5
M  V30 23 1 16 11
M  V30 24 1 21 18
M  V30 25 1 1 23
M  V30 26 1 1 24
M  V30 27 1 1 25
M  V30 28 1 2 26
M  V30 29 1 2 27
M  V30 30 1 4 28
M  V30 31 1 4 29
M  V30 32 1 6 30
M  V30 33 1 6 31
M  V30 34 1 7 32
M  V30 35 1 7 33
M  V30 36 1 8 34
M  V30 37 1 8 35
M  V30 38 1 9 36
M  V30 39 1 9 37
M  V30 40 1 10 38
M  V30 41 1 12 39
M  V30 42 1 17 40
M  V30 43 1 17 41
M  V30 44 1 18 42 CFG=3
M  V30 45 1 19 43
M  V30 46 1 19 44
M  V30 47 1 20 45 CFG=1
M  V30 48 1 21 46
M  V30 49 1 21 47
M  V30 50 1 22 48
M  V30 51 1 22 49
M  V30 END BOND
M  V30 END CTAB
M  END
