
     RDKit          3D

  0  0  0  0  0  0  0  0  0  0999 V3000
M  V30 BEGIN CTAB
M  V30 COUNTS 38 39 0 0 0
M  V30 BEGIN ATOM
M  V30 1 N -3.07147 -1.64363 0.270585 0
M  V30 2 C -2.55136 -1.53969 -1.06018 0
M  V30 3 C -1.12362 -1.0632 -1.0934 0
M  V30 4 N -0.921806 0.203117 -0.520268 0
M  V30 5 C -1.45574 1.27968 -1.2152 0
M  V30 6 C -2.12029 2.35874 -0.411479 0
M  V30 7 O -1.2535 3.31183 0.0874024 0
M  V30 8 C -0.0059951 2.77558 0.411548 0
M  V30 9 C -0.161894 1.62646 1.34828 0
M  V30 10 C -0.3561 0.291243 0.741181 0 CFG=2
M  V30 11 C 0.962162 -0.414204 0.766457 0
M  V30 12 C 1.32635 -1.3026 1.75359 0
M  V30 13 C 2.53256 -1.9542 1.80574 0
M  V30 14 C 3.45293 -1.71082 0.807735 0
M  V30 15 C 3.12645 -0.824767 -0.203541 0
M  V30 16 C 1.9012 -0.187679 -0.223805 0
M  V30 17 N 4.12216 -0.616222 -1.19676 0
M  V30 18 H -4.07555 -1.41362 0.281228 0
M  V30 19 H -2.99029 -2.62103 0.605163 0
M  V30 20 H -3.15818 -0.878609 -1.68662 0
M  V30 21 H -2.63071 -2.54983 -1.52817 0
M  V30 22 H -0.516806 -1.88578 -0.677623 0
M  V30 23 H -0.824809 -0.99879 -2.18106 0
M  V30 24 H -2.27231 0.886517 -1.89621 0
M  V30 25 H -0.745305 1.71783 -1.98907 0
M  V30 26 H -2.78871 1.88949 0.315043 0
M  V30 27 H -2.79106 2.92705 -1.12755 0
M  V30 28 H 0.625017 2.57027 -0.467788 0
M  V30 29 H 0.516992 3.5852 0.968809 0
M  V30 30 H 0.74669 1.61653 2.0053 0
M  V30 31 H -0.997375 1.89845 2.04507 0
M  V30 32 H -0.99931 -0.291868 1.44759 0
M  V30 33 H 0.614943 -1.50294 2.53845 0
M  V30 34 H 2.79443 -2.65291 2.59744 0
M  V30 35 H 4.3983 -2.22516 0.855349 0
M  V30 36 H 1.70418 0.480371 -1.02876 0
M  V30 37 H 4.51156 0.315064 -1.44505 0
M  V30 38 H 4.47629 -1.45587 -1.69943 0
M  V30 END ATOM
M  V30 BEGIN BOND
M  V30 1 1 1 2
M  V30 2 1 2 3
M  V30 3 1 3 4
M  V30 4 1 4 5
M  V30 5 1 5 6
M  V30 6 1 6 7
M  V30 7 1 7 8
M  V30 8 1 8 9
M  V30 9 1 9 10
M  V30 10 1 10 11
M  V30 11 2 11 12
M  V30 12 1 12 13
M  V30 13 2 13 14
M  V30 14 1 14 15
M  V30 15 2 15 16
M  V30 16 1 15 17
M  V30 17 1 10 4
M  V30 18 1 16 11
M  V30 19 1 1 18
M  V30 20 1 1 19
M  V30 21 1 2 20
M  V30 22 1 2 21
M  V30 23 1 3 22
M  V30 24 1 3 23
M  V30 25 1 5 24
M  V30 26 1 5 25
M  V30 27 1 6 26
M  V30 28 1 6 27
M  V30 29 1 8 28
M  V30 30 1 8 29
M  V30 31 1 9 30
M  V30 32 1 9 31
M  V30 33 1 10 32 CFG=1
M  V30 34 1 12 33
M  V30 35 1 13 34
M  V30 36 1 14 35
M  V30 37 1 16 36
M  V30 38 1 17 37
M  V30 39 1 17 38
M  V30 END BOND
M  V30 END CTAB
M  END
