
     RDKit          3D

  0  0  0  0  0  0  0  0  0  0999 V3000
M  V30 BEGIN CTAB
M  V30 COUNTS 38 39 0 0 0
M  V30 BEGIN ATOM
M  V30 1 F -8.05551 2.22998 -1.79154 0
M  V30 2 C -7.43731 1.30314 -0.971156 0
M  V30 3 O -6.39897 0.634743 -1.58532 0
M  V30 4 C -5.10227 0.462819 -1.15836 0
M  V30 5 C -4.65575 0.982173 0.0308618 0
M  V30 6 C -3.33986 0.811547 0.471071 0
M  V30 7 C -2.439 0.105564 -0.290012 0
M  V30 8 C -2.87505 -0.437257 -1.51501 0
M  V30 9 C -4.17906 -0.239942 -1.89983 0
M  V30 10 N -1.07912 -0.11538 0.0321341 0
M  V30 11 C -0.334509 0.594603 0.981636 0
M  V30 12 O -0.766305 1.52002 1.668 0
M  V30 13 C 1.10444 0.215992 1.19701 0
M  V30 14 S 1.9578 0.440922 -0.383302 0
M  V30 15 C 3.68458 0.0132922 -0.226424 0
M  V30 16 N 4.51959 0.10114 -1.27017 0
M  V30 17 C 5.80902 -0.225227 -1.12626 0
M  V30 18 N 6.66813 -0.124887 -2.23792 0
M  V30 19 N 6.25352 -0.645653 0.0934239 0
M  V30 20 C 5.42377 -0.73493 1.13813 0
M  V30 21 N 4.1382 -0.399883 0.957958 0
M  V30 22 N 5.88238 -1.17189 2.40872 0
M  V30 23 C 1.16709 -1.22503 1.66418 0
M  V30 24 F -8.40581 0.342945 -0.645659 0
M  V30 25 H -7.15925 1.7541 -0.000625412 0
M  V30 26 H -5.2947 1.55297 0.696092 0
M  V30 27 H -3.02218 1.22047 1.41262 0
M  V30 28 H -2.18551 -1.00599 -2.15084 0
M  V30 29 H -4.52749 -0.653839 -2.8429 0
M  V30 30 H -0.593601 -0.919073 -0.513925 0
M  V30 31 H 1.59457 0.824946 1.96226 0
M  V30 32 H 7.50696 -0.723289 -2.2993 0
M  V30 33 H 6.46679 0.545028 -2.9971 0
M  V30 34 H 5.32253 -1.00093 3.27261 0
M  V30 35 H 6.78747 -1.67643 2.53216 0
M  V30 36 H 1.38761 -1.90052 0.814624 0
M  V30 37 H 0.212295 -1.51975 2.141 0
M  V30 38 H 1.96451 -1.36464 2.43117 0
M  V30 END ATOM
M  V30 BEGIN BOND
M  V30 1 1 1 2
M  V30 2 1 2 3
M  V30 3 1 3 4
M  V30 4 2 4 5
M  V30 5 1 5 6
M  V30 6 2 6 7
M  V30 7 1 7 8
M  V30 8 2 8 9
M  V30 9 1 7 10
M  V30 10 1 10 11
M  V30 11 2 11 12
M  V30 12 1 11 13
M  V30 13 1 13 14
M  V30 14 1 14 15
M  V30 15 2 15 16
M  V30 16 1 16 17
M  V30 17 1 17 18
M  V30 18 2 17 19
M  V30 19 1 19 20
M  V30 20 2 20 21
M  V30 21 1 20 22
M  V30 22 1 13 23
M  V30 23 1 2 24
M  V30 24 1 9 4
M  V30 25 1 21 15
M  V30 26 1 2 25
M  V30 27 1 5 26
M  V30 28 1 6 27
M  V30 29 1 8 28
M  V30 30 1 9 29
M  V30 31 1 10 30
M  V30 32 1 13 31
M  V30 33 1 18 32
M  V30 34 1 18 33
M  V30 35 1 22 34
M  V30 36 1 22 35
M  V30 37 1 23 36
M  V30 38 1 23 37
M  V30 39 1 23 38
M  V30 END BOND
M  V30 END CTAB
M  END
