
     RDKit          3D

  0  0  0  0  0  0  0  0  0  0999 V3000
M  V30 BEGIN CTAB
M  V30 COUNTS 19 19 0 0 0
M  V30 BEGIN ATOM
M  V30 1 N 2.97843 0.596015 1.03397 0
M  V30 2 C 2.28874 -0.166398 0.0469472 0
M  V30 3 N 2.98074 -0.883056 -0.735471 0
M  V30 4 C 0.839461 -0.106035 -0.0380529 0
M  V30 5 C 0.11634 -0.817882 -0.968223 0
M  V30 6 C -1.26273 -0.746909 -1.03293 0
M  V30 7 C -2.00031 0.0396839 -0.171812 0
M  V30 8 C -1.2782 0.755767 0.763322 0
M  V30 9 C 0.0985071 0.6846 0.827543 0
M  V30 10 F -1.97438 1.53524 1.6204 0
M  V30 11 N -3.42198 0.112482 -0.238983 0
M  V30 12 H 3.76712 1.23558 0.828628 0
M  V30 13 H 2.6559 0.491315 2.01876 0
M  V30 14 H 2.66571 -1.48746 -1.4928 0
M  V30 15 H 0.652497 -1.45235 -1.66919 0
M  V30 16 H -1.83298 -1.31428 -1.77367 0
M  V30 17 H 0.657631 1.2479 1.5622 0
M  V30 18 H -3.88564 0.0506863 -1.1705 0
M  V30 19 H -4.04486 0.225105 0.589851 0
M  V30 END ATOM
M  V30 BEGIN BOND
M  V30 1 1 1 2
M  V30 2 2 2 3 CFG=2
M  V30 3 1 2 4
M  V30 4 2 4 5
M  V30 5 1 5 6
M  V30 6 2 6 7
M  V30 7 1 7 8
M  V30 8 2 8 9
M  V30 9 1 8 10
M  V30 10 1 7 11
M  V30 11 1 9 4
M  V30 12 1 1 12
M  V30 13 1 1 13
M  V30 14 1 3 14
M  V30 15 1 5 15
M  V30 16 1 6 16
M  V30 17 1 9 17
M  V30 18 1 11 18
M  V30 19 1 11 19
M  V30 END BOND
M  V30 END CTAB
M  END
