
     RDKit          3D

  0  0  0  0  0  0  0  0  0  0999 V3000
M  V30 BEGIN CTAB
M  V30 COUNTS 25 25 0 0 0
M  V30 BEGIN ATOM
M  V30 1 C 1.77281 0.13741 0.917767 0
M  V30 2 C 1.05402 -0.165458 -0.369511 0
M  V30 3 N 2.01827 -0.829719 -1.24732 0
M  V30 4 C 0.577384 1.12103 -0.989336 0
M  V30 5 C -0.561433 1.65724 -0.14794 0
M  V30 6 C -1.72492 0.673317 -0.103776 0
M  V30 7 C -1.22934 -0.563144 0.600304 0
M  V30 8 N -2.23178 -1.56851 0.766336 0
M  V30 9 C -0.0893434 -1.13486 -0.179764 0
M  V30 10 H 1.11893 0.456595 1.73359 0
M  V30 11 H 2.49401 0.950687 0.706141 0
M  V30 12 H 2.39543 -0.749915 1.21361 0
M  V30 13 H 2.22014 -1.75435 -0.776273 0
M  V30 14 H 2.89035 -0.29549 -1.35309 0
M  V30 15 H 0.216278 1.01502 -2.01932 0
M  V30 16 H 1.38769 1.87069 -0.942929 0
M  V30 17 H -0.867826 2.61509 -0.572643 0
M  V30 18 H -0.234635 1.79422 0.908194 0
M  V30 19 H -2.09472 0.433364 -1.11674 0
M  V30 20 H -2.50818 1.17829 0.527031 0
M  V30 21 H -0.843795 -0.242788 1.59936 0
M  V30 22 H -2.97274 -1.57138 0.0422072 0
M  V30 23 H -2.66662 -1.55452 1.7138 0
M  V30 24 H 0.309329 -2.05545 0.299708 0
M  V30 25 H -0.429303 -1.41739 -1.20942 0
M  V30 END ATOM
M  V30 BEGIN BOND
M  V30 1 1 1 2
M  V30 2 1 2 3
M  V30 3 1 2 4
M  V30 4 1 4 5
M  V30 5 1 5 6
M  V30 6 1 6 7
M  V30 7 1 7 8
M  V30 8 1 7 9
M  V30 9 1 9 2
M  V30 10 1 1 10
M  V30 11 1 1 11
M  V30 12 1 1 12
M  V30 13 1 3 13
M  V30 14 1 3 14
M  V30 15 1 4 15
M  V30 16 1 4 16
M  V30 17 1 5 17
M  V30 18 1 5 18
M  V30 19 1 6 19
M  V30 20 1 6 20
M  V30 21 1 7 21
M  V30 22 1 8 22
M  V30 23 1 8 23
M  V30 24 1 9 24
M  V30 25 1 9 25
M  V30 END BOND
M  V30 END CTAB
M  END
