
     RDKit          3D

  0  0  0  0  0  0  0  0  0  0999 V3000
M  V30 BEGIN CTAB
M  V30 COUNTS 16 15 0 0 0
M  V30 BEGIN ATOM
M  V30 1 N 2.91515 0.259042 -0.295645 0
M  V30 2 C 1.68664 -0.525892 -0.462816 0
M  V30 3 C 0.561109 0.337062 0.0681664 0
M  V30 4 C -0.746453 -0.325912 -0.035113 0
M  V30 5 O -0.815601 -1.47984 -0.52448 0
M  V30 6 N -1.92682 0.323894 0.411527 0
M  V30 7 N -3.17832 -0.295246 0.319338 0
M  V30 8 H 2.71561 1.26236 -0.508808 0
M  V30 9 H 3.12386 0.232897 0.736345 0
M  V30 10 H 1.52975 -0.765161 -1.55102 0
M  V30 11 H 1.74709 -1.47721 0.109803 0
M  V30 12 H 0.825147 0.602994 1.11171 0
M  V30 13 H 0.533509 1.28083 -0.50353 0
M  V30 14 H -1.90302 1.28232 0.822716 0
M  V30 15 H -3.94908 0.359967 0.125754 0
M  V30 16 H -3.11857 -1.0721 -0.379865 0
M  V30 END ATOM
M  V30 BEGIN BOND
M  V30 1 1 1 2
M  V30 2 1 2 3
M  V30 3 1 3 4
M  V30 4 2 4 5
M  V30 5 1 4 6
M  V30 6 1 6 7
M  V30 7 1 1 8
M  V30 8 1 1 9
M  V30 9 1 2 10
M  V30 10 1 2 11
M  V30 11 1 3 12
M  V30 12 1 3 13
M  V30 13 1 6 14
M  V30 14 1 7 15
M  V30 15 1 7 16
M  V30 END BOND
M  V30 END CTAB
M  END
