
     RDKit          3D

  0  0  0  0  0  0  0  0  0  0999 V3000
M  V30 BEGIN CTAB
M  V30 COUNTS 34 35 0 0 0
M  V30 BEGIN ATOM
M  V30 1 C -2.4409 -2.84331 -0.940952 0
M  V30 2 O -2.96047 -1.52041 -0.929718 0
M  V30 3 C -2.29989 -0.501589 -0.234321 0
M  V30 4 C -2.79882 0.784895 -0.207637 0
M  V30 5 O -3.96364 1.03504 -0.887695 0
M  V30 6 C -4.61025 2.28647 -0.963776 0
M  V30 7 N -2.14014 1.75443 0.477346 0
M  V30 8 C -0.980962 1.50012 1.15283 0
M  V30 9 C -0.445654 0.255722 1.15927 0
M  V30 10 C 0.792927 -0.190129 1.81658 0
M  V30 11 C 1.97098 -0.291922 0.978328 0
M  V30 12 C 2.36689 -1.52921 0.46599 0
M  V30 13 N 3.44599 -1.6117 -0.33176 0
M  V30 14 C 4.17576 -0.545042 -0.667392 0
M  V30 15 N 5.31843 -0.705949 -1.53093 0
M  V30 16 N 3.82537 0.652971 -0.194289 0
M  V30 17 C 2.73423 0.779709 0.620915 0
M  V30 18 N 2.42002 2.08405 1.11035 0
M  V30 19 C -1.12969 -0.742467 0.451073 0
M  V30 20 H -2.24 -3.20562 0.111188 0
M  V30 21 H -1.47497 -2.85196 -1.48178 0
M  V30 22 H -3.16048 -3.53623 -1.46087 0
M  V30 23 H -5.24403 2.26707 -1.88567 0
M  V30 24 H -3.87676 3.1205 -1.1172 0
M  V30 25 H -5.3006 2.49898 -0.139347 0
M  V30 26 H -0.484647 2.28726 1.69796 0
M  V30 27 H 0.939476 0.509758 2.6915 0
M  V30 28 H 0.560683 -1.17612 2.31182 0
M  V30 29 H 1.76636 -2.39362 0.743156 0
M  V30 30 H 6.22713 -0.304843 -1.28247 0
M  V30 31 H 5.14782 -1.24906 -2.4049 0
M  V30 32 H 2.31368 2.90386 0.484002 0
M  V30 33 H 2.28649 2.24434 2.1433 0
M  V30 34 H -0.74032 -1.76598 0.42397 0
M  V30 END ATOM
M  V30 BEGIN BOND
M  V30 1 1 1 2
M  V30 2 1 2 3
M  V30 3 2 3 4
M  V30 4 1 4 5
M  V30 5 1 5 6
M  V30 6 1 4 7
M  V30 7 2 7 8
M  V30 8 1 8 9
M  V30 9 1 9 10
M  V30 10 1 10 11
M  V30 11 2 11 12
M  V30 12 1 12 13
M  V30 13 2 13 14
M  V30 14 1 14 15
M  V30 15 1 14 16
M  V30 16 2 16 17
M  V30 17 1 17 18
M  V30 18 2 9 19
M  V30 19 1 19 3
M  V30 20 1 17 11
M  V30 21 1 1 20
M  V30 22 1 1 21
M  V30 23 1 1 22
M  V30 24 1 6 23
M  V30 25 1 6 24
M  V30 26 1 6 25
M  V30 27 1 8 26
M  V30 28 1 10 27
M  V30 29 1 10 28
M  V30 30 1 12 29
M  V30 31 1 15 30
M  V30 32 1 15 31
M  V30 33 1 18 32
M  V30 34 1 18 33
M  V30 35 1 19 34
M  V30 END BOND
M  V30 END CTAB
M  END
