
     RDKit          3D

  0  0  0  0  0  0  0  0  0  0999 V3000
M  V30 BEGIN CTAB
M  V30 COUNTS 52 55 0 0 0
M  V30 BEGIN ATOM
M  V30 1 N 7.73656 1.40843 -0.0654061 0
M  V30 2 C 6.43091 0.787407 -0.278287 0
M  V30 3 C 5.38597 1.76511 -0.7582 0
M  V30 4 C 4.46126 1.23508 0.323732 0
M  V30 5 C 5.68393 0.692348 1.0289 0
M  V30 6 C 3.53385 0.174164 -0.146491 0
M  V30 7 C 2.18438 0.325857 0.0704471 0
M  V30 8 C 1.28961 -0.63731 -0.35108 0
M  V30 9 N 1.8153 -1.69964 -0.968797 0
M  V30 10 C 3.13088 -1.86479 -1.18946 0
M  V30 11 N 3.99833 -0.925524 -0.777882 0
M  V30 12 N 3.64714 -3.01087 -1.85072 0
M  V30 13 N -0.100757 -0.540423 -0.159129 0
M  V30 14 C -0.791096 0.550501 0.490319 0
M  V30 15 C -2.10145 0.711204 -0.26108 0
M  V30 16 N -2.93459 -0.441923 0.196405 0
M  V30 17 C -2.22641 -1.68662 0.227968 0
M  V30 18 C -0.96549 -1.61897 -0.644871 0
M  V30 19 C -4.24833 -0.141241 0.488824 0
M  V30 20 N -4.74033 1.06539 0.077752 0
M  V30 21 C -5.99818 1.48082 0.263447 0
M  V30 22 C -6.4334 2.82111 -0.226716 0
M  V30 23 C -6.87154 0.642555 0.914418 0
M  V30 24 N -6.43826 -0.546384 1.33552 0
M  V30 25 C -5.12969 -0.946352 1.12786 0
M  V30 26 C -4.70231 -2.27147 1.63863 0
M  V30 27 H 7.55914 2.24902 0.535882 0
M  V30 28 H 8.37067 0.742869 0.406303 0
M  V30 29 H 6.4719 -0.152988 -0.856245 0
M  V30 30 H 5.67024 2.82373 -0.632911 0
M  V30 31 H 5.01749 1.5909 -1.7991 0
M  V30 32 H 3.95761 2.06485 0.816114 0
M  V30 33 H 6.02825 1.37726 1.82082 0
M  V30 34 H 5.55822 -0.369681 1.32437 0
M  V30 35 H 1.84612 1.20644 0.572628 0
M  V30 36 H 3.68858 -3.94251 -1.38866 0
M  V30 37 H 4.00201 -2.94711 -2.82772 0
M  V30 38 H -0.960056 0.254266 1.54166 0
M  V30 39 H -0.268617 1.50184 0.452081 0
M  V30 40 H -1.94162 0.535436 -1.34354 0
M  V30 41 H -2.58339 1.66592 -0.0564303 0
M  V30 42 H -2.84767 -2.4599 -0.254951 0
M  V30 43 H -1.84605 -2.00245 1.2038 0
M  V30 44 H -0.403291 -2.55625 -0.57841 0
M  V30 45 H -1.28151 -1.36694 -1.65111 0
M  V30 46 H -5.65647 3.57615 -0.0421993 0
M  V30 47 H -7.3711 3.06666 0.279673 0
M  V30 48 H -6.61437 2.75051 -1.32209 0
M  V30 49 H -7.89079 0.984413 1.06206 0
M  V30 50 H -3.82975 -2.26233 2.28756 0
M  V30 51 H -4.75111 -3.07018 0.877914 0
M  V30 52 H -5.54073 -2.58835 2.36475 0
M  V30 END ATOM
M  V30 BEGIN BOND
M  V30 1 1 1 2
M  V30 2 1 2 3
M  V30 3 1 3 4
M  V30 4 1 4 5
M  V30 5 1 4 6
M  V30 6 2 6 7
M  V30 7 1 7 8
M  V30 8 2 8 9
M  V30 9 1 9 10
M  V30 10 2 10 11
M  V30 11 1 10 12
M  V30 12 1 8 13
M  V30 13 1 13 14
M  V30 14 1 14 15
M  V30 15 1 15 16
M  V30 16 1 16 17
M  V30 17 1 17 18
M  V30 18 1 16 19
M  V30 19 2 19 20
M  V30 20 1 20 21
M  V30 21 1 21 22
M  V30 22 2 21 23
M  V30 23 1 23 24
M  V30 24 2 24 25
M  V30 25 1 25 26
M  V30 26 1 5 2
M  V30 27 1 11 6
M  V30 28 1 18 13
M  V30 29 1 25 19
M  V30 30 1 1 27
M  V30 31 1 1 28
M  V30 32 1 2 29
M  V30 33 1 3 30
M  V30 34 1 3 31
M  V30 35 1 4 32
M  V30 36 1 5 33
M  V30 37 1 5 34
M  V30 38 1 7 35
M  V30 39 1 12 36
M  V30 40 1 12 37
M  V30 41 1 14 38
M  V30 42 1 14 39
M  V30 43 1 15 40
M  V30 44 1 15 41
M  V30 45 1 17 42
M  V30 46 1 17 43
M  V30 47 1 18 44
M  V30 48 1 18 45
M  V30 49 1 22 46
M  V30 50 1 22 47
M  V30 51 1 22 48
M  V30 52 1 23 49
M  V30 53 1 26 50
M  V30 54 1 26 51
M  V30 55 1 26 52
M  V30 END BOND
M  V30 END CTAB
M  END
