
     RDKit          3D

  0  0  0  0  0  0  0  0  0  0999 V3000
M  V30 BEGIN CTAB
M  V30 COUNTS 18 18 0 0 0
M  V30 BEGIN ATOM
M  V30 1 N -1.82254 1.56486 -0.756035 0
M  V30 2 C -1.32581 0.873371 0.33712 0
M  V30 3 C -0.00328996 0.179346 0.132299 0
M  V30 4 C 1.13539 0.83891 0.0714504 0
M  V30 5 C 2.31401 0.105654 0.0247792 0
M  V30 6 Cl 3.92985 1.00863 -0.0747581 0
M  V30 7 C 2.29418 -1.24665 0.0332424 0
M  V30 8 N 1.14928 -1.89977 0.0695042 0
M  V30 9 C -0.021566 -1.2329 0.128767 0
M  V30 10 N -1.33331 -1.81576 0.117701 0
M  V30 11 H -2.41172 0.969276 -1.42755 0
M  V30 12 H -1.73283 2.54041 -0.912114 0
M  V30 13 H -1.97234 0.310247 1.00168 0
M  V30 14 H -0.992307 1.77428 1.0678 0
M  V30 15 H 1.19723 1.94685 0.0610876 0
M  V30 16 H 3.2252 -1.75973 -0.0642652 0
M  V30 17 H -1.96638 -1.86087 0.924079 0
M  V30 18 H -1.66304 -2.29616 -0.79501 0
M  V30 END ATOM
M  V30 BEGIN BOND
M  V30 1 1 1 2
M  V30 2 1 2 3
M  V30 3 2 3 4
M  V30 4 1 4 5
M  V30 5 1 5 6
M  V30 6 2 5 7
M  V30 7 1 7 8
M  V30 8 2 8 9
M  V30 9 1 9 10
M  V30 10 1 9 3
M  V30 11 1 1 11
M  V30 12 1 1 12
M  V30 13 1 2 13
M  V30 14 1 2 14
M  V30 15 1 4 15
M  V30 16 1 7 16
M  V30 17 1 10 17
M  V30 18 1 10 18
M  V30 END BOND
M  V30 END CTAB
M  END
