
     RDKit          3D

  0  0  0  0  0  0  0  0  0  0999 V3000
M  V30 BEGIN CTAB
M  V30 COUNTS 48 48 0 0 0
M  V30 BEGIN ATOM
M  V30 1 N 8.04859 0.231488 -0.304206 0
M  V30 2 C 6.7467 -0.114694 0.197744 0
M  V30 3 C 5.70393 0.578986 -0.657151 0
M  V30 4 C 4.32941 0.277682 -0.210293 0
M  V30 5 C 3.71921 1.09571 0.738496 0
M  V30 6 C 2.43946 0.841945 1.17532 0
M  V30 7 C 1.74755 -0.261565 0.649452 0
M  V30 8 N 0.442141 -0.537071 1.11129 0
M  V30 9 C -0.459262 -1.43477 0.43819 0
M  V30 10 C -0.901403 -0.802227 -0.845796 0 CFG=1
M  V30 11 N -1.80173 -1.56522 -1.64156 0
M  V30 12 C -1.34905 0.580707 -0.55315 0
M  V30 13 C -2.45358 0.773711 0.414149 0
M  V30 14 C -3.70692 0.0820223 -0.0424072 0
M  V30 15 N -4.7639 0.366362 0.950081 0
M  V30 16 C -6.02398 -0.211279 0.677997 0
M  V30 17 N -6.36435 -1.29756 1.25742 0
M  V30 18 N -6.8937 0.423081 -0.234858 0
M  V30 19 N -7.20944 1.79414 -0.080269 0 CHG=1
M  V30 20 O -6.82246 2.4515 1.08209 0 CHG=-1
M  V30 21 O -7.81639 2.43105 -0.938814 0
M  V30 22 C 2.36991 -1.0552 -0.285476 0
M  V30 23 C 3.66733 -0.810223 -0.738355 0
M  V30 24 H 8.17873 1.24452 -0.22746 0
M  V30 25 H 8.75065 -0.269629 0.272634 0
M  V30 26 H 6.69328 0.253231 1.25608 0
M  V30 27 H 6.60367 -1.2136 0.196251 0
M  V30 28 H 5.88253 1.66492 -0.606176 0
M  V30 29 H 5.82077 0.178846 -1.68245 0
M  V30 30 H 4.29026 1.93484 1.11603 0
M  V30 31 H 1.95538 1.47257 1.91356 0
M  V30 32 H 0.120459 -0.0622798 1.98733 0
M  V30 33 H -1.35085 -1.65021 1.08892 0
M  V30 34 H 0.0177964 -2.42776 0.284928 0
M  V30 35 H 0.0271977 -0.684748 -1.48422 0
M  V30 36 H -1.76457 -2.59256 -1.46729 0
M  V30 37 H -1.76492 -1.30217 -2.62898 0
M  V30 38 H -0.445658 1.10942 -0.106194 0
M  V30 39 H -1.5207 1.11119 -1.52344 0
M  V30 40 H -2.17448 0.476718 1.45826 0
M  V30 41 H -2.72198 1.8675 0.534018 0
M  V30 42 H -3.96571 0.395586 -1.04631 0
M  V30 43 H -3.53016 -1.03252 0.0213293 0
M  V30 44 H -4.56599 0.955253 1.78374 0
M  V30 45 H -5.7901 -1.82093 1.93351 0
M  V30 46 H -7.3385 -0.070597 -1.05023 0
M  V30 47 H 1.84987 -1.90132 -0.678103 0
M  V30 48 H 4.09497 -1.47485 -1.47529 0
M  V30 END ATOM
M  V30 BEGIN BOND
M  V30 1 1 1 2
M  V30 2 1 2 3
M  V30 3 1 3 4
M  V30 4 2 4 5
M  V30 5 1 5 6
M  V30 6 2 6 7
M  V30 7 1 7 8
M  V30 8 1 8 9
M  V30 9 1 9 10
M  V30 10 1 10 11
M  V30 11 1 10 12
M  V30 12 1 12 13
M  V30 13 1 13 14
M  V30 14 1 14 15
M  V30 15 1 15 16
M  V30 16 2 16 17 CFG=2
M  V30 17 1 16 18
M  V30 18 1 18 19
M  V30 19 1 19 20
M  V30 20 2 19 21
M  V30 21 1 7 22
M  V30 22 2 22 23
M  V30 23 1 23 4
M  V30 24 1 1 24
M  V30 25 1 1 25
M  V30 26 1 2 26
M  V30 27 1 2 27
M  V30 28 1 3 28
M  V30 29 1 3 29
M  V30 30 1 5 30
M  V30 31 1 6 31
M  V30 32 1 8 32
M  V30 33 1 9 33
M  V30 34 1 9 34
M  V30 35 1 10 35 CFG=3
M  V30 36 1 11 36
M  V30 37 1 11 37
M  V30 38 1 12 38
M  V30 39 1 12 39
M  V30 40 1 13 40
M  V30 41 1 13 41
M  V30 42 1 14 42
M  V30 43 1 14 43
M  V30 44 1 15 44
M  V30 45 1 17 45
M  V30 46 1 18 46
M  V30 47 1 22 47
M  V30 48 1 23 48
M  V30 END BOND
M  V30 END CTAB
M  END
