
     RDKit          3D

  0  0  0  0  0  0  0  0  0  0999 V3000
M  V30 BEGIN CTAB
M  V30 COUNTS 31 32 0 0 0
M  V30 BEGIN ATOM
M  V30 1 N 4.51343 2.19918 -0.558361 0
M  V30 2 C 3.58001 1.16283 -0.263329 0
M  V30 3 C 3.79971 0.10743 0.579806 0
M  V30 4 C 2.65863 -0.67651 0.601306 0
M  V30 5 N 1.7901 -0.0691815 -0.227976 0
M  V30 6 N 2.32899 1.00879 -0.735223 0
M  V30 7 C 0.428711 -0.524958 -0.53914 0 CFG=1
M  V30 8 C 0.160161 -1.80448 0.224878 0
M  V30 9 C -1.23584 -2.22922 -0.182986 0
M  V30 10 C -2.25006 -1.17911 0.0334082 0
M  V30 11 N -1.8277 0.134525 0.211314 0
M  V30 12 C -0.514167 0.512178 -0.0696416 0
M  V30 13 S -2.96264 1.24126 -0.450514 0
M  V30 14 O -3.16867 0.859456 -1.89617 0
M  V30 15 O -2.3959 2.61199 -0.386409 0
M  V30 16 N -4.50138 1.11841 0.322803 0
M  V30 17 H 4.18251 3.17423 -0.439518 0
M  V30 18 H 5.45949 1.95528 -0.871105 0
M  V30 19 H 4.68099 -0.135626 1.15915 0
M  V30 20 H 2.51522 -1.58945 1.176 0
M  V30 21 H 0.35088 -0.716664 -1.61835 0
M  V30 22 H 0.853519 -2.60599 -0.0774587 0
M  V30 23 H 0.185383 -1.61636 1.30901 0
M  V30 24 H -1.45322 -3.18807 0.326838 0
M  V30 25 H -1.16469 -2.48001 -1.28208 0
M  V30 26 H -2.97864 -1.22029 -0.828808 0
M  V30 27 H -2.88065 -1.48771 0.919521 0
M  V30 28 H -0.0640269 0.995181 0.847269 0
M  V30 29 H -0.514172 1.34581 -0.831822 0
M  V30 30 H -5.13418 1.79639 -0.167634 0
M  V30 31 H -4.4418 1.30068 1.34576 0
M  V30 END ATOM
M  V30 BEGIN BOND
M  V30 1 1 1 2
M  V30 2 1 2 3
M  V30 3 2 3 4
M  V30 4 1 4 5
M  V30 5 1 5 6
M  V30 6 1 5 7
M  V30 7 1 7 8
M  V30 8 1 8 9
M  V30 9 1 9 10
M  V30 10 1 10 11
M  V30 11 1 11 12
M  V30 12 1 11 13
M  V30 13 2 13 14
M  V30 14 2 13 15
M  V30 15 1 13 16
M  V30 16 2 6 2
M  V30 17 1 12 7
M  V30 18 1 1 17
M  V30 19 1 1 18
M  V30 20 1 3 19
M  V30 21 1 4 20
M  V30 22 1 7 21 CFG=3
M  V30 23 1 8 22
M  V30 24 1 8 23
M  V30 25 1 9 24
M  V30 26 1 9 25
M  V30 27 1 10 26
M  V30 28 1 10 27
M  V30 29 1 12 28
M  V30 30 1 12 29
M  V30 31 1 16 30
M  V30 32 1 16 31
M  V30 END BOND
M  V30 END CTAB
M  END
