
     RDKit          3D

  0  0  0  0  0  0  0  0  0  0999 V3000
M  V30 BEGIN CTAB
M  V30 COUNTS 18 18 0 0 0
M  V30 BEGIN ATOM
M  V30 1 N -1.13413 -0.941588 1.03756 0
M  V30 2 N -0.899615 -0.0325557 0.00400241 0
M  V30 3 C 0.275853 0.0978534 -0.635255 0
M  V30 4 C 1.52062 -0.687558 -0.364626 0
M  V30 5 C 2.36376 -0.00797935 0.664803 0
M  V30 6 O 2.0031 1.08485 1.19069 0
M  V30 7 O 3.54757 -0.630774 1.00885 0
M  V30 8 N 0.190898 1.05965 -1.58558 0
M  V30 9 N -1.04392 1.52179 -1.52879 0
M  V30 10 C -1.72618 0.864496 -0.561004 0
M  V30 11 N -3.08077 1.07863 -0.198299 0
M  V30 12 H -1.94083 -1.6179 0.985769 0
M  V30 13 H -0.525409 -0.968446 1.86732 0
M  V30 14 H 2.10413 -0.829684 -1.29148 0
M  V30 15 H 1.2362 -1.67907 0.0701589 0
M  V30 16 H 4.311 -0.652365 0.341759 0
M  V30 17 H -3.41581 2.02825 0.069395 0
M  V30 18 H -3.78646 0.312401 -0.183592 0
M  V30 END ATOM
M  V30 BEGIN BOND
M  V30 1 1 1 2
M  V30 2 1 2 3
M  V30 3 1 3 4
M  V30 4 1 4 5
M  V30 5 2 5 6
M  V30 6 1 5 7
M  V30 7 2 3 8
M  V30 8 1 8 9
M  V30 9 2 9 10
M  V30 10 1 10 11
M  V30 11 1 10 2
M  V30 12 1 1 12
M  V30 13 1 1 13
M  V30 14 1 4 14
M  V30 15 1 4 15
M  V30 16 1 7 16
M  V30 17 1 11 17
M  V30 18 1 11 18
M  V30 END BOND
M  V30 END CTAB
M  END
