
     RDKit          3D

  0  0  0  0  0  0  0  0  0  0999 V3000
M  V30 BEGIN CTAB
M  V30 COUNTS 28 29 0 0 0
M  V30 BEGIN ATOM
M  V30 1 N 4.49939 -0.424434 -0.0369587 0
M  V30 2 S 3.22481 0.711072 0.295864 0
M  V30 3 O 3.41458 1.90473 -0.609423 0
M  V30 4 O 3.38935 1.15807 1.69892 0
M  V30 5 C 1.70843 -0.0909707 -0.0137313 0
M  V30 6 C 1.67649 -1.39985 -0.447845 0
M  V30 7 C 0.481935 -2.03716 -0.694779 0
M  V30 8 C -0.704896 -1.36323 -0.507483 0
M  V30 9 C -0.658294 -0.0551202 -0.0728714 0
M  V30 10 C 0.533431 0.6184 0.185726 0
M  V30 11 C 0.565594 1.92835 0.616781 0
M  V30 12 C -0.624747 2.58799 0.795887 0
M  V30 13 C -1.81322 1.92171 0.540051 0
M  V30 14 C -1.85487 0.612243 0.109123 0
M  V30 15 S -3.36511 -0.17252 -0.178254 0
M  V30 16 N -3.65665 -1.53327 0.830189 0
M  V30 17 O -4.47641 0.814553 0.10451 0
M  V30 18 O -3.53621 -0.57776 -1.61508 0
M  V30 19 H 4.32318 -0.88254 -0.971252 0
M  V30 20 H 4.41182 -1.20238 0.6689 0
M  V30 21 H 2.61265 -1.95459 -0.603174 0
M  V30 22 H 0.43428 -3.06894 -1.03772 0
M  V30 23 H -1.65047 -1.88272 -0.712775 0
M  V30 24 H 1.49193 2.44406 0.815589 0
M  V30 25 H -0.642471 3.60367 1.12852 0
M  V30 26 H -2.7609 2.43264 0.677993 0
M  V30 27 H -4.17605 -2.23469 0.288881 0
M  V30 28 H -2.84758 -1.85732 1.36432 0
M  V30 END ATOM
M  V30 BEGIN BOND
M  V30 1 1 1 2
M  V30 2 2 2 3
M  V30 3 2 2 4
M  V30 4 1 2 5
M  V30 5 2 5 6
M  V30 6 1 6 7
M  V30 7 2 7 8
M  V30 8 1 8 9
M  V30 9 2 9 10
M  V30 10 1 10 11
M  V30 11 2 11 12
M  V30 12 1 12 13
M  V30 13 2 13 14
M  V30 14 1 14 15
M  V30 15 1 15 16
M  V30 16 2 15 17
M  V30 17 2 15 18
M  V30 18 1 10 5
M  V30 19 1 14 9
M  V30 20 1 1 19
M  V30 21 1 1 20
M  V30 22 1 6 21
M  V30 23 1 7 22
M  V30 24 1 8 23
M  V30 25 1 11 24
M  V30 26 1 12 25
M  V30 27 1 13 26
M  V30 28 1 16 27
M  V30 29 1 16 28
M  V30 END BOND
M  V30 END CTAB
M  END
