
     RDKit          3D

  0  0  0  0  0  0  0  0  0  0999 V3000
M  V30 BEGIN CTAB
M  V30 COUNTS 25 25 0 0 0
M  V30 BEGIN ATOM
M  V30 1 N -3.72844 0.494678 -1.34219 0
M  V30 2 C -2.41395 0.294393 -0.880799 0
M  V30 3 C -1.36543 0.316383 -1.75339 0
M  V30 4 C -0.0835756 0.114944 -1.26165 0
M  V30 5 C 0.151147 -0.104532 0.0747691 0
M  V30 6 N 1.4504 -0.312005 0.595736 0
M  V30 7 C 2.63528 -0.309979 -0.235169 0
M  V30 8 C 3.85226 -0.557446 0.617678 0
M  V30 9 O 4.00572 0.425026 1.5998 0
M  V30 10 C -0.934582 -0.118381 0.91745 0
M  V30 11 C -2.22668 0.0771798 0.472845 0
M  V30 12 N -3.32974 0.0567183 1.37223 0
M  V30 13 H -4.21329 1.38671 -1.16491 0
M  V30 14 H -4.2107 -0.253223 -1.86031 0
M  V30 15 H -1.53334 0.486727 -2.80049 0
M  V30 16 H 0.758504 0.1267 -1.92208 0
M  V30 17 H 1.5721 -0.476186 1.63295 0
M  V30 18 H 2.75047 0.655253 -0.793147 0
M  V30 19 H 2.57476 -1.1598 -0.956034 0
M  V30 20 H 4.7562 -0.735474 0.0321791 0
M  V30 21 H 3.64415 -1.50982 1.18695 0
M  V30 22 H 4.09429 1.2866 1.12643 0
M  V30 23 H -0.788933 -0.287857 1.97396 0
M  V30 24 H -4.10802 -0.586179 1.16124 0
M  V30 25 H -3.3086 0.689575 2.20595 0
M  V30 END ATOM
M  V30 BEGIN BOND
M  V30 1 1 1 2
M  V30 2 2 2 3
M  V30 3 1 3 4
M  V30 4 2 4 5
M  V30 5 1 5 6
M  V30 6 1 6 7
M  V30 7 1 7 8
M  V30 8 1 8 9
M  V30 9 1 5 10
M  V30 10 2 10 11
M  V30 11 1 11 12
M  V30 12 1 11 2
M  V30 13 1 1 13
M  V30 14 1 1 14
M  V30 15 1 3 15
M  V30 16 1 4 16
M  V30 17 1 6 17
M  V30 18 1 7 18
M  V30 19 1 7 19
M  V30 20 1 8 20
M  V30 21 1 8 21
M  V30 22 1 9 22
M  V30 23 1 10 23
M  V30 24 1 12 24
M  V30 25 1 12 25
M  V30 END BOND
M  V30 END CTAB
M  END
