
     RDKit          3D

  0  0  0  0  0  0  0  0  0  0999 V3000
M  V30 BEGIN CTAB
M  V30 COUNTS 26 27 0 0 0
M  V30 BEGIN ATOM
M  V30 1 N 2.31876 -1.84243 -0.168717 0
M  V30 2 N 2.22927 -0.463259 0.0122529 0
M  V30 3 C 1.04631 0.164574 0.14157 0
M  V30 4 C -0.317532 -0.458095 0.117634 0
M  V30 5 C -0.990736 -0.284325 -1.19852 0
M  V30 6 C -2.11797 0.645979 -0.90373 0
M  V30 7 C -2.19234 0.670996 0.589247 0
M  V30 8 O -1.12525 0.015431 1.11152 0
M  V30 9 C -3.50274 0.13094 0.999742 0
M  V30 10 O -3.58259 -0.850445 1.7665 0
M  V30 11 O -4.6654 0.707881 0.538037 0
M  V30 12 N 1.33433 1.46751 0.297207 0
M  V30 13 N 2.64733 1.60678 0.261147 0
M  V30 14 C 3.2525 0.434272 0.0855635 0
M  V30 15 N 4.62108 0.101739 -0.0134047 0
M  V30 16 H 2.44156 -2.2153 -1.12901 0
M  V30 17 H 2.26054 -2.45334 0.655684 0
M  V30 18 H -0.167768 -1.54623 0.285282 0
M  V30 19 H -1.44128 -1.25285 -1.56613 0
M  V30 20 H -0.338002 0.146763 -1.9885 0
M  V30 21 H -3.08086 0.305759 -1.36342 0
M  V30 22 H -1.94559 1.67253 -1.32762 0
M  V30 23 H -2.15983 1.74864 0.91759 0
M  V30 24 H -4.7613 1.60789 0.136255 0
M  V30 25 H 5.33618 0.691655 0.423506 0
M  V30 26 H 4.90132 -0.753067 -0.537044 0
M  V30 END ATOM
M  V30 BEGIN BOND
M  V30 1 1 1 2
M  V30 2 1 2 3
M  V30 3 1 3 4
M  V30 4 1 4 5
M  V30 5 1 5 6
M  V30 6 1 6 7
M  V30 7 1 7 8
M  V30 8 1 7 9
M  V30 9 2 9 10
M  V30 10 1 9 11
M  V30 11 2 3 12
M  V30 12 1 12 13
M  V30 13 2 13 14
M  V30 14 1 14 15
M  V30 15 1 14 2
M  V30 16 1 8 4
M  V30 17 1 1 16
M  V30 18 1 1 17
M  V30 19 1 4 18
M  V30 20 1 5 19
M  V30 21 1 5 20
M  V30 22 1 6 21
M  V30 23 1 6 22
M  V30 24 1 7 23
M  V30 25 1 11 24
M  V30 26 1 15 25
M  V30 27 1 15 26
M  V30 END BOND
M  V30 END CTAB
M  END
