
     RDKit          3D

  0  0  0  0  0  0  0  0  0  0999 V3000
M  V30 BEGIN CTAB
M  V30 COUNTS 37 37 0 0 0
M  V30 BEGIN ATOM
M  V30 1 C 3.79017 -1.36542 0.459943 0
M  V30 2 C 2.54847 -2.20344 0.474139 0
M  V30 3 C 1.5512 -1.76857 -0.532087 0
M  V30 4 N 0.992078 -0.464255 -0.408108 0
M  V30 5 C 1.7408 0.736298 -0.608635 0
M  V30 6 C 0.848348 1.97441 -0.55481 0
M  V30 7 C 1.7387 3.18791 -0.768089 0
M  V30 8 C -0.391315 -0.346134 -0.0531173 0
M  V30 9 N -1.30605 -0.470622 -1.02693 0
M  V30 10 C -2.64475 -0.370136 -0.786175 0
M  V30 11 N -3.54008 -0.51345 -1.86746 0
M  V30 12 N -4.00226 -1.77948 -2.20691 0
M  V30 13 N -3.02164 -0.138289 0.471239 0
M  V30 14 C -2.14825 -0.00469963 1.48249 0
M  V30 15 N -2.57047 0.250512 2.82716 0
M  V30 16 N -2.73795 1.53743 3.31422 0
M  V30 17 N -0.831849 -0.116221 1.17828 0
M  V30 18 H 4.704 -2.04019 0.508648 0
M  V30 19 H 3.92932 -0.858579 -0.535756 0
M  V30 20 H 3.88219 -0.67874 1.30929 0
M  V30 21 H 2.84509 -3.25932 0.201084 0
M  V30 22 H 2.12378 -2.31214 1.50175 0
M  V30 23 H 0.72683 -2.56074 -0.508062 0
M  V30 24 H 2.00204 -1.93997 -1.55106 0
M  V30 25 H 2.55043 0.911792 0.142542 0
M  V30 26 H 2.23141 0.713431 -1.59902 0
M  V30 27 H 0.407786 2.02171 0.434879 0
M  V30 28 H 0.148701 1.92377 -1.39595 0
M  V30 29 H 2.62682 2.94237 -1.38324 0
M  V30 30 H 1.17836 4.02191 -1.21393 0
M  V30 31 H 2.13559 3.54611 0.223731 0
M  V30 32 H -3.8357 0.327132 -2.39042 0
M  V30 33 H -4.98162 -1.78067 -2.55484 0
M  V30 34 H -3.37852 -2.13662 -2.99039 0
M  V30 35 H -2.7497 -0.558087 3.44342 0
M  V30 36 H -3.17481 1.47919 4.25498 0
M  V30 37 H -3.38718 2.09178 2.70719 0
M  V30 END ATOM
M  V30 BEGIN BOND
M  V30 1 1 1 2
M  V30 2 1 2 3
M  V30 3 1 3 4
M  V30 4 1 4 5
M  V30 5 1 5 6
M  V30 6 1 6 7
M  V30 7 1 4 8
M  V30 8 2 8 9
M  V30 9 1 9 10
M  V30 10 1 10 11
M  V30 11 1 11 12
M  V30 12 2 10 13
M  V30 13 1 13 14
M  V30 14 1 14 15
M  V30 15 1 15 16
M  V30 16 2 14 17
M  V30 17 1 17 8
M  V30 18 1 1 18
M  V30 19 1 1 19
M  V30 20 1 1 20
M  V30 21 1 2 21
M  V30 22 1 2 22
M  V30 23 1 3 23
M  V30 24 1 3 24
M  V30 25 1 5 25
M  V30 26 1 5 26
M  V30 27 1 6 27
M  V30 28 1 6 28
M  V30 29 1 7 29
M  V30 30 1 7 30
M  V30 31 1 7 31
M  V30 32 1 11 32
M  V30 33 1 12 33
M  V30 34 1 12 34
M  V30 35 1 15 35
M  V30 36 1 16 36
M  V30 37 1 16 37
M  V30 END BOND
M  V30 END CTAB
M  END
