
     RDKit          3D

  0  0  0  0  0  0  0  0  0  0999 V3000
M  V30 BEGIN CTAB
M  V30 COUNTS 43 45 0 0 0
M  V30 BEGIN ATOM
M  V30 1 O -0.95818 0.140734 1.23787 0
M  V30 2 C -1.30422 1.28697 1.55799 0
M  V30 3 N -2.49219 1.85876 1.08979 0
M  V30 4 C -3.46525 1.29918 0.233995 0
M  V30 5 C -3.53082 -0.0358863 -0.112961 0
M  V30 6 C -4.51095 -0.528723 -0.981384 0
M  V30 7 C -5.43558 0.349448 -1.50221 0
M  V30 8 C -5.39251 1.69428 -1.17 0
M  V30 9 C -4.42587 2.1499 -0.32057 0
M  V30 10 S -6.65791 -0.272901 -2.58868 0
M  V30 11 O -6.97989 0.795345 -3.59958 0
M  V30 12 O -6.07224 -1.45544 -3.3181 0
M  V30 13 N -8.07479 -0.773745 -1.77373 0
M  V30 14 C -0.426673 2.05983 2.46124 0
M  V30 15 S 1.05083 1.16052 2.94515 0
M  V30 16 C 2.13888 0.882535 1.55239 0
M  V30 17 N 2.00025 1.23561 0.287157 0
M  V30 18 N 3.04686 0.826713 -0.392196 0
M  V30 19 C 3.92511 0.172293 0.455156 0
M  V30 20 N 3.33384 0.225154 1.63616 0
M  V30 21 N 3.78528 -0.344182 2.82326 0
M  V30 22 C 5.14367 -0.441209 -0.0598991 0
M  V30 23 C 5.0637 -0.952938 -1.37732 0
M  V30 24 C 6.10789 -1.52068 -2.04548 0
M  V30 25 C 7.31278 -1.60186 -1.40216 0
M  V30 26 C 7.44293 -1.12022 -0.127795 0
M  V30 27 C 6.34815 -0.539539 0.533456 0
M  V30 28 Cl 6.63677 0.134193 2.12225 0
M  V30 29 H -2.70185 2.85226 1.42535 0
M  V30 30 H -2.84674 -0.750779 0.268065 0
M  V30 31 H -4.57208 -1.56944 -1.25944 0
M  V30 32 H -6.13375 2.3906 -1.58896 0
M  V30 33 H -4.40369 3.21597 -0.0683085 0
M  V30 34 H -8.39394 -0.0896607 -1.06622 0
M  V30 35 H -7.86321 -1.68575 -1.31245 0
M  V30 36 H -0.23939 3.04322 2.02427 0
M  V30 37 H -1.01914 2.2182 3.40941 0
M  V30 38 H 3.98153 -1.35539 2.85498 0
M  V30 39 H 3.91792 0.231453 3.66833 0
M  V30 40 H 4.12373 -0.892993 -1.88487 0
M  V30 41 H 6.00681 -1.90467 -3.06295 0
M  V30 42 H 8.1372 -2.06026 -1.95152 0
M  V30 43 H 8.39671 -1.18496 0.380499 0
M  V30 END ATOM
M  V30 BEGIN BOND
M  V30 1 2 1 2
M  V30 2 1 2 3
M  V30 3 1 3 4
M  V30 4 2 4 5
M  V30 5 1 5 6
M  V30 6 2 6 7
M  V30 7 1 7 8
M  V30 8 2 8 9
M  V30 9 1 7 10
M  V30 10 2 10 11
M  V30 11 2 10 12
M  V30 12 1 10 13
M  V30 13 1 2 14
M  V30 14 1 14 15
M  V30 15 1 15 16
M  V30 16 2 16 17
M  V30 17 1 17 18
M  V30 18 2 18 19
M  V30 19 1 19 20
M  V30 20 1 20 21
M  V30 21 1 19 22
M  V30 22 2 22 23
M  V30 23 1 23 24
M  V30 24 2 24 25
M  V30 25 1 25 26
M  V30 26 2 26 27
M  V30 27 1 27 28
M  V30 28 1 9 4
M  V30 29 1 20 16
M  V30 30 1 27 22
M  V30 31 1 3 29
M  V30 32 1 5 30
M  V30 33 1 6 31
M  V30 34 1 8 32
M  V30 35 1 9 33
M  V30 36 1 13 34
M  V30 37 1 13 35
M  V30 38 1 14 36
M  V30 39 1 14 37
M  V30 40 1 21 38
M  V30 41 1 21 39
M  V30 42 1 23 40
M  V30 43 1 24 41
M  V30 44 1 25 42
M  V30 45 1 26 43
M  V30 END BOND
M  V30 END CTAB
M  END
