
     RDKit          3D

  0  0  0  0  0  0  0  0  0  0999 V3000
M  V30 BEGIN CTAB
M  V30 COUNTS 20 21 0 0 0
M  V30 BEGIN ATOM
M  V30 1 N 3.22184 -1.36438 0.398225 0
M  V30 2 C 2.14219 -0.444986 0.342816 0
M  V30 3 N 0.859295 -0.825741 0.279052 0
M  V30 4 C -0.145722 0.0759454 0.227419 0
M  V30 5 N 0.208449 1.37195 0.243356 0
M  V30 6 C 1.46532 1.8072 0.305739 0
M  V30 7 N 1.84091 3.16813 0.322667 0
M  V30 8 N 2.44659 0.8625 0.356242 0
M  V30 9 C -1.54273 -0.352617 0.158005 0
M  V30 10 C -1.95313 -1.65967 0.139207 0
M  V30 11 C -3.33026 -1.66125 0.0702084 0
M  V30 12 C -3.7029 -0.343386 0.0497594 0
M  V30 13 O -2.60674 0.376116 0.103709 0
M  V30 14 H 3.96572 -1.22232 1.11146 0
M  V30 15 H 3.24358 -2.158 -0.275339 0
M  V30 16 H 1.25479 3.86805 -0.162429 0
M  V30 17 H 2.69568 3.49758 0.810789 0
M  V30 18 H -1.34975 -2.55428 0.170646 0
M  V30 19 H -3.99246 -2.51672 0.0381803 0
M  V30 20 H -4.72068 0.0758835 -0.00180206 0
M  V30 END ATOM
M  V30 BEGIN BOND
M  V30 1 1 1 2
M  V30 2 2 2 3
M  V30 3 1 3 4
M  V30 4 2 4 5
M  V30 5 1 5 6
M  V30 6 1 6 7
M  V30 7 2 6 8
M  V30 8 1 4 9
M  V30 9 2 9 10
M  V30 10 1 10 11
M  V30 11 2 11 12
M  V30 12 1 12 13
M  V30 13 1 8 2
M  V30 14 1 13 9
M  V30 15 1 1 14
M  V30 16 1 1 15
M  V30 17 1 7 16
M  V30 18 1 7 17
M  V30 19 1 10 18
M  V30 20 1 11 19
M  V30 21 1 12 20
M  V30 END BOND
M  V30 END CTAB
M  END
