
     RDKit          3D

  0  0  0  0  0  0  0  0  0  0999 V3000
M  V30 BEGIN CTAB
M  V30 COUNTS 52 53 0 0 0
M  V30 BEGIN ATOM
M  V30 1 N 0.806436 -4.50998 -0.0953059 0
M  V30 2 S -0.423096 -3.2675 -0.052046 0
M  V30 3 O -1.29678 -3.52279 -1.241 0
M  V30 4 O -1.27062 -3.45534 1.17935 0
M  V30 5 C 0.350382 -1.70802 -0.0965134 0
M  V30 6 C 1.72925 -1.56722 -0.152131 0
M  V30 7 C 2.30638 -0.315649 -0.181509 0
M  V30 8 C 1.56772 0.840402 -0.158604 0
M  V30 9 C 0.193551 0.72851 -0.103085 0
M  V30 10 C -0.397057 -0.535734 -0.0730696 0
M  V30 11 C -1.76301 -0.601716 -0.013062 0
M  V30 12 C -2.53328 0.549908 0.0184815 0
M  V30 13 C -1.91434 1.78203 -0.0126535 0
M  V30 14 C -0.536723 1.90282 -0.0743849 0
M  V30 15 S 0.214634 3.47824 -0.0966454 0
M  V30 16 O -0.875226 4.53388 -0.042908 0
M  V30 17 O 0.952668 3.72145 -1.37851 0
M  V30 18 N 1.23079 3.73934 1.24789 0
M  V30 19 C -4.00036 0.358978 0.100606 0
M  V30 20 C -4.75209 1.65886 0.216633 0
M  V30 21 C -4.27433 -0.475392 1.34945 0
M  V30 22 C -4.46125 -0.427257 -1.08544 0
M  V30 23 C 3.78821 -0.255908 -0.231162 0
M  V30 24 C 4.28592 1.1613 -0.347386 0
M  V30 25 C 4.26894 -0.854668 1.10453 0
M  V30 26 C 4.29385 -1.13886 -1.33713 0
M  V30 27 H 1.57797 -4.27539 -0.732788 0
M  V30 28 H 0.37224 -5.44072 -0.297969 0
M  V30 29 H 2.31891 -2.47005 -0.171081 0
M  V30 30 H 2.09573 1.77825 -0.185085 0
M  V30 31 H -2.23816 -1.58534 0.00430367 0
M  V30 32 H -2.52099 2.68269 0.012927 0
M  V30 33 H 0.871892 4.46747 1.9044 0
M  V30 34 H 2.19445 3.91164 0.909041 0
M  V30 35 H -4.29389 2.33842 0.952707 0
M  V30 36 H -5.75376 1.38768 0.656059 0
M  V30 37 H -4.95313 2.1158 -0.758254 0
M  V30 38 H -5.29324 -0.286976 1.7329 0
M  V30 39 H -4.2091 -1.5592 1.13314 0
M  V30 40 H -3.52879 -0.229829 2.14807 0
M  V30 41 H -5.57051 -0.364204 -1.23204 0
M  V30 42 H -3.91652 -0.163873 -2.03039 0
M  V30 43 H -4.25142 -1.49765 -0.871249 0
M  V30 44 H 3.83997 1.58898 -1.26249 0
M  V30 45 H 5.39704 1.13269 -0.413006 0
M  V30 46 H 3.97627 1.7036 0.571708 0
M  V30 47 H 4.57998 -1.90183 0.958411 0
M  V30 48 H 5.07236 -0.218034 1.55042 0
M  V30 49 H 3.44609 -0.872035 1.85066 0
M  V30 50 H 3.48934 -1.49178 -1.99803 0
M  V30 51 H 4.79743 -2.04218 -0.941004 0
M  V30 52 H 5.00925 -0.527829 -1.93575 0
M  V30 END ATOM
M  V30 BEGIN BOND
M  V30 1 1 1 2
M  V30 2 2 2 3
M  V30 3 2 2 4
M  V30 4 1 2 5
M  V30 5 2 5 6
M  V30 6 1 6 7
M  V30 7 2 7 8
M  V30 8 1 8 9
M  V30 9 2 9 10
M  V30 10 1 10 11
M  V30 11 2 11 12
M  V30 12 1 12 13
M  V30 13 2 13 14
M  V30 14 1 14 15
M  V30 15 2 15 16
M  V30 16 2 15 17
M  V30 17 1 15 18
M  V30 18 1 12 19
M  V30 19 1 19 20
M  V30 20 1 19 21
M  V30 21 1 19 22
M  V30 22 1 7 23
M  V30 23 1 23 24
M  V30 24 1 23 25
M  V30 25 1 23 26
M  V30 26 1 10 5
M  V30 27 1 14 9
M  V30 28 1 1 27
M  V30 29 1 1 28
M  V30 30 1 6 29
M  V30 31 1 8 30
M  V30 32 1 11 31
M  V30 33 1 13 32
M  V30 34 1 18 33
M  V30 35 1 18 34
M  V30 36 1 20 35
M  V30 37 1 20 36
M  V30 38 1 20 37
M  V30 39 1 21 38
M  V30 40 1 21 39
M  V30 41 1 21 40
M  V30 42 1 22 41
M  V30 43 1 22 42
M  V30 44 1 22 43
M  V30 45 1 24 44
M  V30 46 1 24 45
M  V30 47 1 24 46
M  V30 48 1 25 47
M  V30 49 1 25 48
M  V30 50 1 25 49
M  V30 51 1 26 50
M  V30 52 1 26 51
M  V30 53 1 26 52
M  V30 END BOND
M  V30 END CTAB
M  END
