
     RDKit          3D

  0  0  0  0  0  0  0  0  0  0999 V3000
M  V30 BEGIN CTAB
M  V30 COUNTS 26 26 0 0 0
M  V30 BEGIN ATOM
M  V30 1 N 5.08959 0.541943 -0.264583 0
M  V30 2 C 3.70687 0.729724 -0.669579 0
M  V30 3 C 2.85416 -0.0387849 0.31406 0
M  V30 4 N 1.45666 0.142216 -0.0828645 0
M  V30 5 C 0.454038 -0.474699 0.673593 0
M  V30 6 O 0.802366 -1.17196 1.68099 0
M  V30 7 C -0.943617 -0.322001 0.316691 0
M  V30 8 C -1.30216 0.475015 -0.720339 0
M  V30 9 C -2.66786 0.581978 -1.01853 0
M  V30 10 C -3.61202 -0.0984914 -0.283972 0
M  V30 11 C -3.22792 -0.901884 0.764161 0
M  V30 12 C -1.88545 -1.01208 1.06354 0
M  V30 13 Cl -4.45587 -1.76632 1.69399 0
M  V30 14 N -4.99423 0.0158449 -0.593328 0
M  V30 15 H 5.35528 -0.449626 -0.284699 0
M  V30 16 H 5.31933 1.03612 0.61794 0
M  V30 17 H 3.58548 0.310238 -1.68054 0
M  V30 18 H 3.40822 1.77465 -0.700765 0
M  V30 19 H 3.1122 -1.11877 0.306199 0
M  V30 20 H 2.95401 0.332415 1.33697 0
M  V30 21 H 1.25019 0.715655 -0.905033 0
M  V30 22 H -0.638741 1.04576 -1.35049 0
M  V30 23 H -2.98293 1.21798 -1.8496 0
M  V30 24 H -1.58391 -1.65117 1.89683 0
M  V30 25 H -5.39869 0.819283 -1.11052 0
M  V30 26 H -5.65499 -0.733049 -0.29593 0
M  V30 END ATOM
M  V30 BEGIN BOND
M  V30 1 1 1 2
M  V30 2 1 2 3
M  V30 3 1 3 4
M  V30 4 1 4 5
M  V30 5 2 5 6
M  V30 6 1 5 7
M  V30 7 2 7 8
M  V30 8 1 8 9
M  V30 9 2 9 10
M  V30 10 1 10 11
M  V30 11 2 11 12
M  V30 12 1 11 13
M  V30 13 1 10 14
M  V30 14 1 12 7
M  V30 15 1 1 15
M  V30 16 1 1 16
M  V30 17 1 2 17
M  V30 18 1 2 18
M  V30 19 1 3 19
M  V30 20 1 3 20
M  V30 21 1 4 21
M  V30 22 1 8 22
M  V30 23 1 9 23
M  V30 24 1 12 24
M  V30 25 1 14 25
M  V30 26 1 14 26
M  V30 END BOND
M  V30 END CTAB
M  END
