
     RDKit          3D

  0  0  0  0  0  0  0  0  0  0999 V3000
M  V30 BEGIN CTAB
M  V30 COUNTS 20 19 0 0 0
M  V30 BEGIN ATOM
M  V30 1 C -4.46478 0.504104 -0.280088 0
M  V30 2 C -3.34723 0.234241 0.107712 0
M  V30 3 C -1.99915 -0.0737575 0.585769 0
M  V30 4 C -1.15949 -0.505773 -0.617198 0
M  V30 5 C 0.24768 -0.837353 -0.183524 0
M  V30 6 N 0.921074 0.26386 0.425002 0
M  V30 7 C 2.18425 0.418574 0.414007 0
M  V30 8 N 3.09551 -0.48262 -0.204735 0
M  V30 9 N 2.71153 1.57447 1.06756 0
M  V30 10 H -5.44973 0.737647 -0.603166 0
M  V30 11 H -2.11141 -0.960964 1.26079 0
M  V30 12 H -1.53737 0.771296 1.11492 0
M  V30 13 H -1.16134 0.292252 -1.38569 0
M  V30 14 H -1.58388 -1.43077 -1.05733 0
M  V30 15 H 0.152788 -1.66467 0.574852 0
M  V30 16 H 0.79318 -1.19714 -1.07718 0
M  V30 17 H 4.04928 -0.168168 -0.472437 0
M  V30 18 H 2.84938 -1.47342 -0.410432 0
M  V30 19 H 3.16753 1.49592 1.98854 0
M  V30 20 H 2.64217 2.50228 0.625271 0
M  V30 END ATOM
M  V30 BEGIN BOND
M  V30 1 3 1 2
M  V30 2 1 2 3
M  V30 3 1 3 4
M  V30 4 1 4 5
M  V30 5 1 5 6
M  V30 6 2 6 7 CFG=2
M  V30 7 1 7 8
M  V30 8 1 7 9
M  V30 9 1 1 10
M  V30 10 1 3 11
M  V30 11 1 3 12
M  V30 12 1 4 13
M  V30 13 1 4 14
M  V30 14 1 5 15
M  V30 15 1 5 16
M  V30 16 1 8 17
M  V30 17 1 8 18
M  V30 18 1 9 19
M  V30 19 1 9 20
M  V30 END BOND
M  V30 END CTAB
M  END
