
     RDKit          3D

  0  0  0  0  0  0  0  0  0  0999 V3000
M  V30 BEGIN CTAB
M  V30 COUNTS 59 64 0 0 0
M  V30 BEGIN ATOM
M  V30 1 N -3.96259 -2.94329 0.161424 0
M  V30 2 C -3.76276 -1.78977 0.159368 0
M  V30 3 C -3.58404 -0.379114 0.159108 0
M  V30 4 C -4.72042 0.425778 0.32617 0
M  V30 5 N -4.57641 1.75635 0.31354 0
M  V30 6 C -3.4227 2.38273 0.153006 0
M  V30 7 C -2.27823 1.61173 -0.0142714 0
M  V30 8 C -2.37133 0.207326 -0.00965244 0
M  V30 9 C -1.22449 -0.583966 -0.175858 0
M  V30 10 C -0.976291 -2.03236 -0.220399 0
M  V30 11 C 0.520143 -2.10313 -0.426429 0
M  V30 12 O 1.1131 -3.21373 -0.511875 0
M  V30 13 N 1.06959 -0.834858 -0.497493 0
M  V30 14 C -0.0331667 0.0868059 -0.339359 0
M  V30 15 N 0.0318296 1.43513 -0.340428 0
M  V30 16 C -1.0506 2.20356 -0.183518 0
M  V30 17 N -0.957656 3.63544 -0.187732 0
M  V30 18 C 2.44218 -0.512452 -0.685724 0
M  V30 19 C 2.87011 0.193717 -1.78631 0
M  V30 20 C 4.19825 0.522417 -1.9937 0
M  V30 21 C 5.14939 0.134595 -1.06859 0
M  V30 22 C 4.74006 -0.569815 0.034091 0
M  V30 23 C 3.39783 -0.893696 0.22904 0
M  V30 24 O 6.46963 0.47666 -1.3009 0
M  V30 25 C 7.45771 0.117773 -0.402118 0
M  V30 26 C 7.75406 0.995436 0.619019 0
M  V30 27 C 8.73564 0.695754 1.5554 0
M  V30 28 C 9.40925 -0.496684 1.44545 0
M  V30 29 C 9.14096 -1.40741 0.432421 0
M  V30 30 C 8.1513 -1.06863 -0.483949 0
M  V30 31 N -3.30391 3.80175 0.144199 0
M  V30 32 N -5.99333 -0.1695 0.5207 0
M  V30 33 C -6.40424 -0.93736 1.66198 0
M  V30 34 C -7.46886 -1.84274 1.05276 0
M  V30 35 C -8.22835 -0.845922 0.180445 0
M  V30 36 C -7.0728 -0.077038 -0.432545 0
M  V30 37 H -1.11633 -2.56787 0.728232 0
M  V30 38 H -1.36821 -2.54116 -1.12596 0
M  V30 39 H -1.0498 4.12141 -1.10678 0
M  V30 40 H -0.800303 4.20038 0.664406 0
M  V30 41 H 2.15553 0.51244 -2.52823 0
M  V30 42 H 4.49966 1.08288 -2.87717 0
M  V30 43 H 5.48078 -0.880009 0.768159 0
M  V30 44 H 3.07336 -1.44382 1.08872 0
M  V30 45 H 7.22541 1.94353 0.714972 0
M  V30 46 H 8.95397 1.39773 2.34932 0
M  V30 47 H 10.1634 -0.702635 2.18403 0
M  V30 48 H 9.67574 -2.33994 0.355938 0
M  V30 49 H 7.92423 -1.76093 -1.28267 0
M  V30 50 H -3.14196 4.29587 1.03027 0
M  V30 51 H -3.38625 4.32449 -0.745645 0
M  V30 52 H -5.61862 -1.46769 2.19389 0
M  V30 53 H -6.96259 -0.247959 2.37139 0
M  V30 54 H -8.11691 -2.27134 1.82848 0
M  V30 55 H -6.9918 -2.58654 0.412376 0
M  V30 56 H -8.826 -0.208316 0.865987 0
M  V30 57 H -8.81186 -1.3316 -0.601164 0
M  V30 58 H -7.42307 0.963931 -0.588168 0
M  V30 59 H -6.79719 -0.474336 -1.4302 0
M  V30 END ATOM
M  V30 BEGIN BOND
M  V30 1 3 1 2
M  V30 2 1 2 3
M  V30 3 2 3 4
M  V30 4 1 4 5
M  V30 5 2 5 6
M  V30 6 1 6 7
M  V30 7 2 7 8
M  V30 8 1 8 9
M  V30 9 1 9 10
M  V30 10 1 10 11
M  V30 11 2 11 12
M  V30 12 1 11 13
M  V30 13 1 13 14
M  V30 14 1 14 15
M  V30 15 2 15 16
M  V30 16 1 16 17
M  V30 17 1 13 18
M  V30 18 2 18 19
M  V30 19 1 19 20
M  V30 20 2 20 21
M  V30 21 1 21 22
M  V30 22 2 22 23
M  V30 23 1 21 24
M  V30 24 1 24 25
M  V30 25 2 25 26
M  V30 26 1 26 27
M  V30 27 2 27 28
M  V30 28 1 28 29
M  V30 29 2 29 30
M  V30 30 1 6 31
M  V30 31 1 4 32
M  V30 32 1 32 33
M  V30 33 1 33 34
M  V30 34 1 34 35
M  V30 35 1 35 36
M  V30 36 1 8 3
M  V30 37 2 14 9
M  V30 38 1 23 18
M  V30 39 1 30 25
M  V30 40 1 36 32
M  V30 41 1 16 7
M  V30 42 1 10 37
M  V30 43 1 10 38
M  V30 44 1 17 39
M  V30 45 1 17 40
M  V30 46 1 19 41
M  V30 47 1 20 42
M  V30 48 1 22 43
M  V30 49 1 23 44
M  V30 50 1 26 45
M  V30 51 1 27 46
M  V30 52 1 28 47
M  V30 53 1 29 48
M  V30 54 1 30 49
M  V30 55 1 31 50
M  V30 56 1 31 51
M  V30 57 1 33 52
M  V30 58 1 33 53
M  V30 59 1 34 54
M  V30 60 1 34 55
M  V30 61 1 35 56
M  V30 62 1 35 57
M  V30 63 1 36 58
M  V30 64 1 36 59
M  V30 END BOND
M  V30 END CTAB
M  END
