
     RDKit          3D

  0  0  0  0  0  0  0  0  0  0999 V3000
M  V30 BEGIN CTAB
M  V30 COUNTS 49 51 0 0 0
M  V30 BEGIN ATOM
M  V30 1 N -2.53251 -1.41641 0.741961 0
M  V30 2 C -2.92829 -0.135736 0.190335 0
M  V30 3 C -4.40481 0.0239108 0.132107 0
M  V30 4 C -5.07439 1.15171 0.525832 0
M  V30 5 C -6.4428 1.27567 0.461535 0
M  V30 6 C -7.16995 0.20139 -0.0269036 0
M  V30 7 C -6.51877 -0.936645 -0.426244 0
M  V30 8 C -5.15554 -1.03469 -0.352067 0
M  V30 9 C -2.41972 -0.0279054 -1.22431 0
M  V30 10 N -1.00072 -0.119574 -1.34511 0
M  V30 11 C -0.0800959 0.762319 -0.738473 0
M  V30 12 O -0.500124 1.70363 -0.0376993 0
M  V30 13 C 1.37385 0.598467 -0.912893 0
M  V30 14 C 2.12688 1.65963 -0.169467 0
M  V30 15 C 3.57933 1.26742 0.00917233 0
M  V30 16 C 3.79687 0.633508 1.33083 0
M  V30 17 C 4.34789 -0.727986 1.33996 0
M  V30 18 C 4.00756 -1.6198 0.217822 0
M  V30 19 C 3.27143 -0.952472 -0.918696 0
M  V30 20 C 1.84571 -0.781757 -0.514304 0
M  V30 21 C 3.94432 0.382154 -1.15996 0
M  V30 22 N 5.37113 0.253648 -1.26291 0
M  V30 23 H -1.77037 -1.79635 0.15974 0
M  V30 24 H -3.33057 -2.06587 0.876071 0
M  V30 25 H -2.53111 0.638928 0.858569 0
M  V30 26 H -4.50751 1.98607 0.90536 0
M  V30 27 H -6.98268 2.16167 0.769699 0
M  V30 28 H -8.24956 0.3054 -0.0751439 0
M  V30 29 H -7.08352 -1.76419 -0.802894 0
M  V30 30 H -4.64443 -1.95406 -0.676394 0
M  V30 31 H -2.89189 -0.827236 -1.82356 0
M  V30 32 H -2.7534 0.932021 -1.70222 0
M  V30 33 H -0.610839 -0.896567 -1.92518 0
M  V30 34 H 1.55748 0.663271 -2.0265 0
M  V30 35 H 1.61325 1.80291 0.816189 0
M  V30 36 H 2.00623 2.61553 -0.715392 0
M  V30 37 H 4.17205 2.21181 -0.123436 0
M  V30 38 H 2.84054 0.674086 1.92214 0
M  V30 39 H 4.49734 1.30198 1.91412 0
M  V30 40 H 4.0207 -1.23424 2.29709 0
M  V30 41 H 5.47363 -0.702 1.43483 0
M  V30 42 H 3.36859 -2.49505 0.527177 0
M  V30 43 H 4.91684 -2.10094 -0.244715 0
M  V30 44 H 3.39574 -1.55707 -1.84603 0
M  V30 45 H 1.67497 -0.930398 0.570571 0
M  V30 46 H 1.20015 -1.52463 -1.02979 0
M  V30 47 H 3.584 0.883315 -2.08215 0
M  V30 48 H 5.75146 0.772994 -2.11111 0
M  V30 49 H 5.84569 0.738129 -0.448469 0
M  V30 END ATOM
M  V30 BEGIN BOND
M  V30 1 1 1 2
M  V30 2 1 2 3
M  V30 3 2 3 4
M  V30 4 1 4 5
M  V30 5 2 5 6
M  V30 6 1 6 7
M  V30 7 2 7 8
M  V30 8 1 2 9
M  V30 9 1 9 10
M  V30 10 1 10 11
M  V30 11 2 11 12
M  V30 12 1 11 13
M  V30 13 1 13 14
M  V30 14 1 14 15
M  V30 15 1 15 16
M  V30 16 1 16 17
M  V30 17 1 17 18
M  V30 18 1 18 19
M  V30 19 1 19 20
M  V30 20 1 19 21
M  V30 21 1 21 22
M  V30 22 1 8 3
M  V30 23 1 20 13
M  V30 24 1 21 15
M  V30 25 1 1 23
M  V30 26 1 1 24
M  V30 27 1 2 25
M  V30 28 1 4 26
M  V30 29 1 5 27
M  V30 30 1 6 28
M  V30 31 1 7 29
M  V30 32 1 8 30
M  V30 33 1 9 31
M  V30 34 1 9 32
M  V30 35 1 10 33
M  V30 36 1 13 34
M  V30 37 1 14 35
M  V30 38 1 14 36
M  V30 39 1 15 37
M  V30 40 1 16 38
M  V30 41 1 16 39
M  V30 42 1 17 40
M  V30 43 1 17 41
M  V30 44 1 18 42
M  V30 45 1 18 43
M  V30 46 1 19 44
M  V30 47 1 20 45
M  V30 48 1 20 46
M  V30 49 1 21 47
M  V30 50 1 22 48
M  V30 51 1 22 49
M  V30 END BOND
M  V30 END CTAB
M  END
