
     RDKit          3D

  0  0  0  0  0  0  0  0  0  0999 V3000
M  V30 BEGIN CTAB
M  V30 COUNTS 23 25 0 0 0
M  V30 BEGIN ATOM
M  V30 1 N 4.91164 -0.302255 0.105519 0
M  V30 2 C 3.51387 -0.152126 -0.107626 0
M  V30 3 N 2.52627 -0.513772 0.677208 0
M  V30 4 C 1.28542 -0.305653 0.338288 0
M  V30 5 C 1.09227 0.315952 -0.892887 0
M  V30 6 S 2.68008 0.543945 -1.44781 0
M  V30 7 C -0.180172 0.585618 -1.35296 0
M  V30 8 C -1.28246 0.236286 -0.585638 0
M  V30 9 S -2.97175 0.359271 -0.726418 0
M  V30 10 C -3.39659 -0.368487 0.755532 0
M  V30 11 N -4.64441 -0.645074 1.38638 0
M  V30 12 N -2.23836 -0.668221 1.28288 0
M  V30 13 C -1.12137 -0.37809 0.633071 0
M  V30 14 C 0.168213 -0.658841 1.11425 0
M  V30 15 Cl 0.388628 -1.45363 2.69012 0
M  V30 16 C -0.328243 1.23894 -2.6503 0
M  V30 17 F -1.64332 1.45195 -2.99455 0
M  V30 18 F 0.27572 0.502581 -3.67966 0
M  V30 19 F 0.367898 2.45648 -2.63998 0
M  V30 20 H 5.47521 0.517611 0.350851 0
M  V30 21 H 5.33248 -1.23164 0.00962036 0
M  V30 22 H -5.15408 -1.50519 1.09094 0
M  V30 23 H -5.05693 -0.0256476 2.12118 0
M  V30 END ATOM
M  V30 BEGIN BOND
M  V30 1 1 1 2
M  V30 2 2 2 3
M  V30 3 1 3 4
M  V30 4 2 4 5
M  V30 5 1 5 6
M  V30 6 1 5 7
M  V30 7 2 7 8
M  V30 8 1 8 9
M  V30 9 1 9 10
M  V30 10 1 10 11
M  V30 11 2 10 12
M  V30 12 1 12 13
M  V30 13 2 13 14
M  V30 14 1 14 15
M  V30 15 1 7 16
M  V30 16 1 16 17
M  V30 17 1 16 18
M  V30 18 1 16 19
M  V30 19 1 6 2
M  V30 20 1 13 8
M  V30 21 1 14 4
M  V30 22 1 1 20
M  V30 23 1 1 21
M  V30 24 1 11 22
M  V30 25 1 11 23
M  V30 END BOND
M  V30 END CTAB
M  END
