
     RDKit          3D

  0  0  0  0  0  0  0  0  0  0999 V3000
M  V30 BEGIN CTAB
M  V30 COUNTS 35 36 0 0 0
M  V30 BEGIN ATOM
M  V30 1 C 4.86131 0.38934 -1.34629 0
M  V30 2 C 4.20843 1.23309 -0.285658 0
M  V30 3 O 2.80707 1.0839 -0.229442 0
M  V30 4 C 2.19266 -0.150825 0.0229606 0
M  V30 5 O 2.98566 -1.09584 0.191196 0
M  V30 6 C 0.748947 -0.292375 0.0794261 0
M  V30 7 N 0.0491375 -1.412 0.307992 0
M  V30 8 C 0.432076 -2.6825 0.530583 0
M  V30 9 C -0.497459 -3.66171 0.721417 0
M  V30 10 C -1.82316 -3.36942 0.689167 0
M  V30 11 C -2.24896 -2.07869 0.46424 0
M  V30 12 C -1.29333 -1.09915 0.274583 0
M  V30 13 C -1.45795 0.239466 0.022568 0
M  V30 14 C -0.155687 0.734662 -0.0994949 0
M  V30 15 N 0.232419 2.07465 -0.364214 0
M  V30 16 C -2.60226 1.11716 -0.0684111 0
M  V30 17 C -3.5319 1.32438 0.831419 0
M  V30 18 C -3.55811 0.682443 2.11396 0
M  V30 19 N -3.58878 0.185201 3.15803 0
M  V30 20 C -4.59832 2.26975 0.496851 0
M  V30 21 N -5.44546 3.01654 0.251535 0
M  V30 22 N -2.70744 1.84221 -1.32553 0
M  V30 23 H 4.11333 0.155871 -2.10969 0
M  V30 24 H 5.74169 0.867975 -1.78508 0
M  V30 25 H 5.25118 -0.556952 -0.865877 0
M  V30 26 H 4.40237 2.29531 -0.55163 0
M  V30 27 H 4.70226 1.06248 0.682314 0
M  V30 28 H 1.50536 -2.91516 0.555759 0
M  V30 29 H -0.127082 -4.67237 0.897725 0
M  V30 30 H -2.56943 -4.14047 0.838925 0
M  V30 31 H -3.30417 -1.82015 0.418039 0
M  V30 32 H 0.128333 2.41774 -1.36558 0
M  V30 33 H 0.605581 2.73676 0.334488 0
M  V30 34 H -2.24115 2.77251 -1.35781 0
M  V30 35 H -3.21717 1.44615 -2.12846 0
M  V30 END ATOM
M  V30 BEGIN BOND
M  V30 1 1 1 2
M  V30 2 1 2 3
M  V30 3 1 3 4
M  V30 4 2 4 5
M  V30 5 1 4 6
M  V30 6 1 6 7
M  V30 7 1 7 8
M  V30 8 2 8 9
M  V30 9 1 9 10
M  V30 10 2 10 11
M  V30 11 1 11 12
M  V30 12 2 12 13
M  V30 13 1 13 14
M  V30 14 1 14 15
M  V30 15 1 13 16
M  V30 16 2 16 17 CFG=2
M  V30 17 1 17 18
M  V30 18 3 18 19
M  V30 19 1 17 20
M  V30 20 3 20 21
M  V30 21 1 16 22
M  V30 22 2 14 6
M  V30 23 1 12 7
M  V30 24 1 1 23
M  V30 25 1 1 24
M  V30 26 1 1 25
M  V30 27 1 2 26
M  V30 28 1 2 27
M  V30 29 1 8 28
M  V30 30 1 9 29
M  V30 31 1 10 30
M  V30 32 1 11 31
M  V30 33 1 15 32
M  V30 34 1 15 33
M  V30 35 1 22 34
M  V30 36 1 22 35
M  V30 END BOND
M  V30 END CTAB
M  END
