
     RDKit          3D

  0  0  0  0  0  0  0  0  0  0999 V3000
M  V30 BEGIN CTAB
M  V30 COUNTS 32 31 0 0 0
M  V30 BEGIN ATOM
M  V30 1 N 1.96663 0.801882 -1.51952 0
M  V30 2 C 1.74914 0.530763 -0.155709 0
M  V30 3 S 3.0566 0.838387 0.982594 0
M  V30 4 C 4.57479 1.45969 0.341908 0
M  V30 5 C 5.42947 0.54102 -0.45683 0
M  V30 6 O 4.87755 0.0248125 -1.6047 0
M  V30 7 C 0.606108 0.0849345 0.345782 0
M  V30 8 C 0.565394 -0.148969 1.80196 0
M  V30 9 N 0.569528 -0.32955 2.97122 0
M  V30 10 C -0.548075 -0.121632 -0.475526 0
M  V30 11 C -0.526061 0.206622 -1.88923 0
M  V30 12 N -0.559705 0.474679 -3.04667 0
M  V30 13 C -1.70387 -0.584552 0.0189232 0
M  V30 14 N -1.89705 -0.904076 1.3603 0
M  V30 15 S -3.05596 -0.8177 -1.14014 0
M  V30 16 C -4.53108 -1.42915 -0.324847 0
M  V30 17 C -5.17767 -0.431418 0.594125 0
M  V30 18 O -6.32678 -0.97416 1.19317 0
M  V30 19 H 2.18202 0.0526067 -2.22953 0
M  V30 20 H 1.92829 1.77748 -1.90081 0
M  V30 21 H 4.41826 2.386 -0.300234 0
M  V30 22 H 5.15559 1.90024 1.21633 0
M  V30 23 H 6.31248 1.16631 -0.802208 0
M  V30 24 H 5.92001 -0.245983 0.172782 0
M  V30 25 H 5.52573 -0.16279 -2.31498 0
M  V30 26 H -2.23095 -0.17273 2.01973 0
M  V30 27 H -1.71486 -1.86324 1.71009 0
M  V30 28 H -5.25113 -1.7282 -1.13269 0
M  V30 29 H -4.32418 -2.38189 0.229675 0
M  V30 30 H -5.44513 0.507319 0.0553404 0
M  V30 31 H -4.47673 -0.146198 1.38852 0
M  V30 32 H -7.06836 -0.310525 1.18783 0
M  V30 END ATOM
M  V30 BEGIN BOND
M  V30 1 1 1 2
M  V30 2 1 2 3
M  V30 3 1 3 4
M  V30 4 1 4 5
M  V30 5 1 5 6
M  V30 6 2 2 7
M  V30 7 1 7 8
M  V30 8 3 8 9
M  V30 9 1 7 10
M  V30 10 1 10 11
M  V30 11 3 11 12
M  V30 12 2 10 13
M  V30 13 1 13 14
M  V30 14 1 13 15
M  V30 15 1 15 16
M  V30 16 1 16 17
M  V30 17 1 17 18
M  V30 18 1 1 19
M  V30 19 1 1 20
M  V30 20 1 4 21
M  V30 21 1 4 22
M  V30 22 1 5 23
M  V30 23 1 5 24
M  V30 24 1 6 25
M  V30 25 1 14 26
M  V30 26 1 14 27
M  V30 27 1 16 28
M  V30 28 1 16 29
M  V30 29 1 17 30
M  V30 30 1 17 31
M  V30 31 1 18 32
M  V30 END BOND
M  V30 END CTAB
M  END
