
     RDKit          3D

  0  0  0  0  0  0  0  0  0  0999 V3000
M  V30 BEGIN CTAB
M  V30 COUNTS 27 27 0 0 0
M  V30 BEGIN ATOM
M  V30 1 N -0.154961 0.614525 -2.24823 0
M  V30 2 C -0.141663 -0.621921 -1.53542 0 CFG=1
M  V30 3 C 1.15457 -0.726161 -0.778608 0
M  V30 4 N 1.97528 -1.78424 -0.682352 0
M  V30 5 N 3.01798 -1.49351 0.0709651 0
M  V30 6 C 2.89881 -0.209536 0.49322 0
M  V30 7 N 1.74458 0.229608 -0.0469702 0
M  V30 8 N 3.80936 0.502799 1.32794 0
M  V30 9 C -1.30347 -0.803904 -0.613558 0
M  V30 10 C -1.41664 0.240149 0.45962 0
M  V30 11 C -1.5764 1.64009 -0.0887434 0
M  V30 12 C -2.64282 -0.0394384 1.32249 0
M  V30 13 H -0.0805749 0.430241 -3.26128 0
M  V30 14 H 0.687389 1.19924 -2.0032 0
M  V30 15 H -0.143673 -1.45259 -2.26988 0
M  V30 16 H 1.82995 -2.72922 -1.13643 0
M  V30 17 H 3.44361 1.25303 1.94009 0
M  V30 18 H 4.82448 0.301762 1.34873 0
M  V30 19 H -2.23086 -0.693467 -1.25033 0
M  V30 20 H -1.35223 -1.8074 -0.192399 0
M  V30 21 H -0.55243 0.23322 1.15688 0
M  V30 22 H -2.15862 2.22001 0.674567 0
M  V30 23 H -2.18797 1.64309 -1.01903 0
M  V30 24 H -0.607115 2.16179 -0.22883 0
M  V30 25 H -2.40115 -0.778029 2.11422 0
M  V30 26 H -3.01255 0.902139 1.76754 0
M  V30 27 H -3.42287 -0.432281 0.644156 0
M  V30 END ATOM
M  V30 BEGIN BOND
M  V30 1 1 1 2
M  V30 2 1 2 3
M  V30 3 1 3 4
M  V30 4 1 4 5
M  V30 5 2 5 6
M  V30 6 1 6 7
M  V30 7 1 6 8
M  V30 8 1 2 9
M  V30 9 1 9 10
M  V30 10 1 10 11
M  V30 11 1 10 12
M  V30 12 2 7 3
M  V30 13 1 1 13
M  V30 14 1 1 14
M  V30 15 1 2 15 CFG=3
M  V30 16 1 4 16
M  V30 17 1 8 17
M  V30 18 1 8 18
M  V30 19 1 9 19
M  V30 20 1 9 20
M  V30 21 1 10 21
M  V30 22 1 11 22
M  V30 23 1 11 23
M  V30 24 1 11 24
M  V30 25 1 12 25
M  V30 26 1 12 26
M  V30 27 1 12 27
M  V30 END BOND
M  V30 END CTAB
M  END
