
     RDKit          3D

  0  0  0  0  0  0  0  0  0  0999 V3000
M  V30 BEGIN CTAB
M  V30 COUNTS 28 29 0 0 0
M  V30 BEGIN ATOM
M  V30 1 N 3.12457 -2.32707 0.0135037 0
M  V30 2 C 2.37556 -1.13223 -0.0640184 0
M  V30 3 C 0.991231 -1.17109 0.00223994 0
M  V30 4 C 0.24062 -0.0175103 -0.071359 0
M  V30 5 C 0.945848 1.16662 -0.213674 0
M  V30 6 C 2.31683 1.16002 -0.275089 0
M  V30 7 N 3.00609 2.40204 -0.422079 0
M  V30 8 N 3.03593 0.0399898 -0.203193 0 CHG=1
M  V30 9 O 4.42357 0.038358 -0.265821 0 CHG=-1
M  V30 10 N -1.17815 -0.0152895 -0.00737138 0
M  V30 11 C -1.9718 -1.21253 0.14009 0
M  V30 12 C -3.38925 -0.764485 0.327197 0
M  V30 13 C -3.37669 0.74659 0.42525 0
M  V30 14 C -2.01175 1.14616 -0.0777699 0
M  V30 15 H 4.05529 -2.38232 0.45975 0
M  V30 16 H 2.72862 -3.19856 -0.395428 0
M  V30 17 H 0.473938 -2.13344 0.115377 0
M  V30 18 H 0.43215 2.12429 -0.279722 0
M  V30 19 H 2.59304 3.22616 0.0504714 0
M  V30 20 H 3.88178 2.47514 -0.977717 0
M  V30 21 H -1.64236 -1.85212 0.968294 0
M  V30 22 H -1.83104 -1.80627 -0.798944 0
M  V30 23 H -3.9809 -1.10486 -0.54623 0
M  V30 24 H -3.85769 -1.16758 1.25125 0
M  V30 25 H -4.18299 1.18433 -0.185144 0
M  V30 26 H -3.54415 1.05905 1.47648 0
M  V30 27 H -2.05075 1.6087 -1.076 0
M  V30 28 H -1.60756 1.90792 0.629655 0
M  V30 END ATOM
M  V30 BEGIN BOND
M  V30 1 1 1 2
M  V30 2 2 2 3
M  V30 3 1 3 4
M  V30 4 2 4 5
M  V30 5 1 5 6
M  V30 6 1 6 7
M  V30 7 2 6 8
M  V30 8 1 8 9
M  V30 9 1 4 10
M  V30 10 1 10 11
M  V30 11 1 11 12
M  V30 12 1 12 13
M  V30 13 1 13 14
M  V30 14 1 8 2
M  V30 15 1 14 10
M  V30 16 1 1 15
M  V30 17 1 1 16
M  V30 18 1 3 17
M  V30 19 1 5 18
M  V30 20 1 7 19
M  V30 21 1 7 20
M  V30 22 1 11 21
M  V30 23 1 11 22
M  V30 24 1 12 23
M  V30 25 1 12 24
M  V30 26 1 13 25
M  V30 27 1 13 26
M  V30 28 1 14 27
M  V30 29 1 14 28
M  V30 END BOND
M  V30 END CTAB
M  END
