
     RDKit          3D

  0  0  0  0  0  0  0  0  0  0999 V3000
M  V30 BEGIN CTAB
M  V30 COUNTS 82 83 0 0 0
M  V30 BEGIN ATOM
M  V30 1 C -6.17932 -3.8112 -0.499597 0
M  V30 2 C -6.04616 -2.70158 -1.54357 0
M  V30 3 N -6.52395 -1.47587 -1.00296 0
M  V30 4 C -6.47331 -0.358513 -1.86255 0
M  V30 5 C -5.11247 0.151522 -2.2092 0
M  V30 6 N -4.38247 0.578375 -0.978113 0
M  V30 7 C -3.09641 1.08906 -1.10092 0
M  V30 8 O -2.59863 1.1639 -2.29027 0
M  V30 9 C -2.2427 1.55231 -0.0331097 0
M  V30 10 C -0.959063 2.04728 -0.354992 0
M  V30 11 C -0.0671088 2.51656 0.572241 0
M  V30 12 C -0.470871 2.49396 1.88541 0
M  V30 13 C -1.69854 2.02792 2.26736 0
M  V30 14 C -2.57356 1.56079 1.30155 0
M  V30 15 O -3.83358 1.08445 1.71397 0
M  V30 16 C -4.18837 1.08533 3.0742 0
M  V30 17 N 0.419261 3.0041 2.8814 0
M  V30 18 C 1.2553 2.98435 0.150248 0
M  V30 19 C 1.4136 4.35976 -0.0399187 0
M  V30 20 N 0.323742 5.20406 0.245407 0
M  V30 21 C 2.61813 4.80621 -0.491868 0
M  V30 22 Cl 2.834 6.54281 -0.7342 0
M  V30 23 C 3.64921 3.97325 -0.760409 0
M  V30 24 C 3.5067 2.57084 -0.576329 0
M  V30 25 C 2.29207 2.10765 -0.114757 0
M  V30 26 O 2.04383 0.769291 0.10704 0
M  V30 27 C 2.25203 0.157274 1.38404 0
M  V30 28 C 4.59919 1.76823 -1.01206 0
M  V30 29 O 5.67986 2.43833 -1.34871 0
M  V30 30 N 4.71668 0.363477 -1.14412 0
M  V30 31 C 6.00888 -0.164377 -1.63986 0
M  V30 32 C 6.11257 -1.61003 -1.76039 0
M  V30 33 N 6.09346 -2.46817 -0.650111 0
M  V30 34 C 4.87861 -2.55259 0.072818 0
M  V30 35 C 4.9754 -3.68829 1.10689 0
M  V30 36 C 7.20012 -2.28447 0.265673 0
M  V30 37 C 8.52276 -2.70045 -0.337652 0
M  V30 38 C -7.65545 -1.59499 -0.146911 0
M  V30 39 C -8.15449 -0.317061 0.424095 0
M  V30 40 H -5.6276 -4.73113 -0.819702 0
M  V30 41 H -7.25186 -4.06148 -0.320922 0
M  V30 42 H -5.75276 -3.5085 0.477427 0
M  V30 43 H -6.7071 -2.98892 -2.38366 0
M  V30 44 H -4.97269 -2.67644 -1.81372 0
M  V30 45 H -7.08361 0.504837 -1.5491 0
M  V30 46 H -6.93478 -0.674168 -2.84672 0
M  V30 47 H -5.13705 1.06184 -2.84095 0
M  V30 48 H -4.45498 -0.579787 -2.68351 0
M  V30 49 H -4.89088 0.463777 -0.0963005 0
M  V30 50 H -0.638959 2.06651 -1.39359 0
M  V30 51 H -1.97344 2.02662 3.29803 0
M  V30 52 H -5.22357 0.710578 3.17417 0
M  V30 53 H -3.5352 0.384692 3.63776 0
M  V30 54 H -4.08133 2.08514 3.54259 0
M  V30 55 H 0.914292 2.3009 3.47075 0
M  V30 56 H 0.591489 4.01558 3.04118 0
M  V30 57 H -0.532268 5.16592 -0.36712 0
M  V30 58 H 0.289365 5.88135 1.02976 0
M  V30 59 H 4.58337 4.37156 -1.1144 0
M  V30 60 H 1.32101 0.106198 1.95881 0
M  V30 61 H 3.03509 0.666613 1.96764 0
M  V30 62 H 2.52842 -0.90939 1.18627 0
M  V30 63 H 3.94375 -0.267927 -0.948911 0
M  V30 64 H 6.0772 0.295874 -2.67409 0
M  V30 65 H 6.75547 0.317035 -0.9654 0
M  V30 66 H 6.94191 -1.90867 -2.50634 0
M  V30 67 H 5.19825 -1.93688 -2.39688 0
M  V30 68 H 4.70918 -1.64136 0.719272 0
M  V30 69 H 4.01525 -2.76241 -0.583163 0
M  V30 70 H 5.70069 -4.43601 0.731487 0
M  V30 71 H 5.27578 -3.26285 2.0566 0
M  V30 72 H 3.95366 -4.12787 1.19371 0
M  V30 73 H 7.03891 -2.96052 1.127 0
M  V30 74 H 7.23781 -1.25248 0.667277 0
M  V30 75 H 8.57128 -2.2785 -1.3607 0
M  V30 76 H 8.65075 -3.77797 -0.400147 0
M  V30 77 H 9.38227 -2.24636 0.206803 0
M  V30 78 H -8.50116 -2.03806 -0.749025 0
M  V30 79 H -7.4642 -2.29812 0.684669 0
M  V30 80 H -8.96771 -0.581827 1.16255 0
M  V30 81 H -8.70497 0.313488 -0.334863 0
M  V30 82 H -7.41802 0.256718 0.995705 0
M  V30 END ATOM
M  V30 BEGIN BOND
M  V30 1 1 1 2
M  V30 2 1 2 3
M  V30 3 1 3 4
M  V30 4 1 4 5
M  V30 5 1 5 6
M  V30 6 1 6 7
M  V30 7 2 7 8
M  V30 8 1 7 9
M  V30 9 2 9 10
M  V30 10 1 10 11
M  V30 11 2 11 12
M  V30 12 1 12 13
M  V30 13 2 13 14
M  V30 14 1 14 15
M  V30 15 1 15 16
M  V30 16 1 12 17
M  V30 17 1 11 18
M  V30 18 2 18 19
M  V30 19 1 19 20
M  V30 20 1 19 21
M  V30 21 1 21 22
M  V30 22 2 21 23
M  V30 23 1 23 24
M  V30 24 2 24 25
M  V30 25 1 25 26
M  V30 26 1 26 27
M  V30 27 1 24 28
M  V30 28 2 28 29
M  V30 29 1 28 30
M  V30 30 1 30 31
M  V30 31 1 31 32
M  V30 32 1 32 33
M  V30 33 1 33 34
M  V30 34 1 34 35
M  V30 35 1 33 36
M  V30 36 1 36 37
M  V30 37 1 3 38
M  V30 38 1 38 39
M  V30 39 1 14 9
M  V30 40 1 25 18
M  V30 41 1 1 40
M  V30 42 1 1 41
M  V30 43 1 1 42
M  V30 44 1 2 43
M  V30 45 1 2 44
M  V30 46 1 4 45
M  V30 47 1 4 46
M  V30 48 1 5 47
M  V30 49 1 5 48
M  V30 50 1 6 49
M  V30 51 1 10 50
M  V30 52 1 13 51
M  V30 53 1 16 52
M  V30 54 1 16 53
M  V30 55 1 16 54
M  V30 56 1 17 55
M  V30 57 1 17 56
M  V30 58 1 20 57
M  V30 59 1 20 58
M  V30 60 1 23 59
M  V30 61 1 27 60
M  V30 62 1 27 61
M  V30 63 1 27 62
M  V30 64 1 30 63
M  V30 65 1 31 64
M  V30 66 1 31 65
M  V30 67 1 32 66
M  V30 68 1 32 67
M  V30 69 1 34 68
M  V30 70 1 34 69
M  V30 71 1 35 70
M  V30 72 1 35 71
M  V30 73 1 35 72
M  V30 74 1 36 73
M  V30 75 1 36 74
M  V30 76 1 37 75
M  V30 77 1 37 76
M  V30 78 1 37 77
M  V30 79 1 38 78
M  V30 80 1 38 79
M  V30 81 1 39 80
M  V30 82 1 39 81
M  V30 83 1 39 82
M  V30 END BOND
M  V30 END CTAB
M  END
