
     RDKit          3D

  0  0  0  0  0  0  0  0  0  0999 V3000
M  V30 BEGIN CTAB
M  V30 COUNTS 23 23 0 0 0
M  V30 BEGIN ATOM
M  V30 1 C -2.95502 -1.09744 0.880842 0
M  V30 2 N -2.17391 0.0558666 0.486377 0
M  V30 3 C -0.951957 -0.0263198 -0.20683 0
M  V30 4 C -0.9224 -0.529515 -1.493 0
M  V30 5 C 0.253004 -0.610054 -2.21821 0
M  V30 6 C 1.409 -0.165322 -1.60455 0
M  V30 7 C 1.3936 0.340586 -0.316724 0
M  V30 8 N 0.23531 0.391726 0.328797 0
M  V30 9 S 2.89634 0.906868 0.40672 0
M  V30 10 O 2.78268 2.3615 0.790535 0
M  V30 11 O 4.02151 0.793867 -0.565348 0
M  V30 12 N 3.20935 -0.0119865 1.82646 0
M  V30 13 N -2.64986 1.34358 0.809036 0
M  V30 14 H -3.07092 -1.81666 0.0429104 0
M  V30 15 H -4.00473 -0.791888 1.12412 0
M  V30 16 H -2.44309 -1.57679 1.73775 0
M  V30 17 H -1.85775 -0.867544 -1.92709 0
M  V30 18 H 0.239607 -1.00935 -3.24298 0
M  V30 19 H 2.35683 -0.203599 -2.12457 0
M  V30 20 H 4.22751 -0.326883 1.80687 0
M  V30 21 H 2.61267 -0.863781 1.83099 0
M  V30 22 H -2.52356 2.00536 0.0099991 0
M  V30 23 H -2.0842 1.69778 1.6179 0
M  V30 END ATOM
M  V30 BEGIN BOND
M  V30 1 1 1 2
M  V30 2 1 2 3
M  V30 3 2 3 4
M  V30 4 1 4 5
M  V30 5 2 5 6
M  V30 6 1 6 7
M  V30 7 2 7 8
M  V30 8 1 7 9
M  V30 9 2 9 10
M  V30 10 2 9 11
M  V30 11 1 9 12
M  V30 12 1 2 13
M  V30 13 1 8 3
M  V30 14 1 1 14
M  V30 15 1 1 15
M  V30 16 1 1 16
M  V30 17 1 4 17
M  V30 18 1 5 18
M  V30 19 1 6 19
M  V30 20 1 12 20
M  V30 21 1 12 21
M  V30 22 1 13 22
M  V30 23 1 13 23
M  V30 END BOND
M  V30 END CTAB
M  END
