
     RDKit          3D

  0  0  0  0  0  0  0  0  0  0999 V3000
M  V30 BEGIN CTAB
M  V30 COUNTS 37 39 0 0 0
M  V30 BEGIN ATOM
M  V30 1 C 5.21395 1.60525 -0.82726 0
M  V30 2 O 3.98116 1.02653 -1.18299 0
M  V30 3 C 3.05773 0.566 -0.261551 0
M  V30 4 C 3.3024 0.651728 1.08817 0
M  V30 5 C 2.34433 0.175185 1.98888 0
M  V30 6 C 1.16824 -0.373371 1.4948 0
M  V30 7 C 0.907053 -0.466911 0.14303 0
M  V30 8 C 1.88344 0.0175124 -0.721395 0
M  V30 9 C -0.365224 -1.06228 -0.357368 0
M  V30 10 C -0.764949 -2.24401 0.428635 0
M  V30 11 C -1.94533 -2.44196 0.982931 0
M  V30 12 N -2.21644 -3.64173 1.72984 0
M  V30 13 O -2.91757 -1.46638 0.828248 0
M  V30 14 C -2.64406 -0.321241 0.109652 0
M  V30 15 C -1.43284 -0.0602179 -0.490261 0
M  V30 16 C -1.18277 1.09096 -1.20328 0
M  V30 17 C -2.19805 2.02641 -1.32014 0
M  V30 18 C -3.42366 1.79657 -0.731485 0
M  V30 19 C -3.64708 0.63295 -0.0219138 0
M  V30 20 N -4.46952 2.73247 -0.836966 0
M  V30 21 C 0.24454 -3.27332 0.59791 0
M  V30 22 N 1.04501 -4.10198 0.724756 0
M  V30 23 H 5.61802 2.23255 -1.63251 0
M  V30 24 H 5.93998 0.831988 -0.496261 0
M  V30 25 H 5.0535 2.26855 0.0464772 0
M  V30 26 H 4.21683 1.07814 1.47608 0
M  V30 27 H 2.47378 0.212798 3.04296 0
M  V30 28 H 0.437145 -0.737075 2.18427 0
M  V30 29 H 1.73379 -0.0296834 -1.79075 0
M  V30 30 H -0.127466 -1.40278 -1.40588 0
M  V30 31 H -1.94817 -4.5524 1.33563 0
M  V30 32 H -2.67378 -3.58437 2.64769 0
M  V30 33 H -0.243972 1.32303 -1.6844 0
M  V30 34 H -2.01102 2.93711 -1.8801 0
M  V30 35 H -4.60755 0.428643 0.452371 0
M  V30 36 H -5.41619 2.37369 -1.10073 0
M  V30 37 H -4.38528 3.75165 -0.675715 0
M  V30 END ATOM
M  V30 BEGIN BOND
M  V30 1 1 1 2
M  V30 2 1 2 3
M  V30 3 2 3 4
M  V30 4 1 4 5
M  V30 5 2 5 6
M  V30 6 1 6 7
M  V30 7 2 7 8
M  V30 8 1 7 9
M  V30 9 1 9 10
M  V30 10 2 10 11
M  V30 11 1 11 12
M  V30 12 1 11 13
M  V30 13 1 13 14
M  V30 14 2 14 15
M  V30 15 1 15 16
M  V30 16 2 16 17
M  V30 17 1 17 18
M  V30 18 2 18 19
M  V30 19 1 18 20
M  V30 20 1 10 21
M  V30 21 3 21 22
M  V30 22 1 8 3
M  V30 23 1 15 9
M  V30 24 1 19 14
M  V30 25 1 1 23
M  V30 26 1 1 24
M  V30 27 1 1 25
M  V30 28 1 4 26
M  V30 29 1 5 27
M  V30 30 1 6 28
M  V30 31 1 8 29
M  V30 32 1 9 30
M  V30 33 1 12 31
M  V30 34 1 12 32
M  V30 35 1 16 33
M  V30 36 1 17 34
M  V30 37 1 19 35
M  V30 38 1 20 36
M  V30 39 1 20 37
M  V30 END BOND
M  V30 END CTAB
M  END
