
     RDKit          3D

  0  0  0  0  0  0  0  0  0  0999 V3000
M  V30 BEGIN CTAB
M  V30 COUNTS 21 22 0 0 0
M  V30 BEGIN ATOM
M  V30 1 Cl 4.13066 -1.53658 0.229878 0
M  V30 2 C 2.76641 -0.427843 0.104253 0
M  V30 3 C 2.96677 0.933605 -0.0050897 0
M  V30 4 C 1.89675 1.79563 -0.102993 0
M  V30 5 F 2.06743 3.1329 -0.21102 0
M  V30 6 C 0.628909 1.23028 -0.0859653 0
M  V30 7 C 0.408458 -0.126508 0.022507 0
M  V30 8 C 1.51225 -0.977729 0.120316 0
M  V30 9 C -0.860178 -0.680222 0.0385402 0
M  V30 10 N -1.06145 -2.07632 0.150794 0
M  V30 11 C -1.94261 0.161697 -0.0579792 0
M  V30 12 C -1.69761 1.52517 -0.166424 0
M  V30 13 N -0.450817 2.02637 -0.178575 0
M  V30 14 N -3.28798 -0.306882 -0.050949 0
M  V30 15 H 3.9813 1.32312 -0.013464 0
M  V30 16 H 1.30957 -2.03741 0.204308 0
M  V30 17 H -0.986817 -2.57446 1.0519 0
M  V30 18 H -1.29183 -2.61594 -0.703104 0
M  V30 19 H -2.56806 2.17484 -0.241757 0
M  V30 20 H -3.79487 -0.400146 0.852838 0
M  V30 21 H -3.72628 -0.543583 -0.958019 0
M  V30 END ATOM
M  V30 BEGIN BOND
M  V30 1 1 1 2
M  V30 2 2 2 3
M  V30 3 1 3 4
M  V30 4 1 4 5
M  V30 5 2 4 6
M  V30 6 1 6 7
M  V30 7 2 7 8
M  V30 8 1 7 9
M  V30 9 1 9 10
M  V30 10 2 9 11
M  V30 11 1 11 12
M  V30 12 2 12 13
M  V30 13 1 11 14
M  V30 14 1 8 2
M  V30 15 1 13 6
M  V30 16 1 3 15
M  V30 17 1 8 16
M  V30 18 1 10 17
M  V30 19 1 10 18
M  V30 20 1 12 19
M  V30 21 1 14 20
M  V30 22 1 14 21
M  V30 END BOND
M  V30 END CTAB
M  END
