
     RDKit          3D

  0  0  0  0  0  0  0  0  0  0999 V3000
M  V30 BEGIN CTAB
M  V30 COUNTS 31 32 0 0 0
M  V30 BEGIN ATOM
M  V30 1 N -3.18547 -0.303457 1.176 0
M  V30 2 C -2.92147 -0.171122 -0.224438 0
M  V30 3 C -1.46063 -0.217096 -0.567969 0 CFG=2
M  V30 4 C -0.862318 -1.55792 -0.116909 0
M  V30 5 C 0.463012 -1.67427 -0.822049 0
M  V30 6 N 1.29316 -0.495983 -0.681509 0
M  V30 7 C 0.743542 0.596209 0.0101249 0
M  V30 8 C -0.639507 0.796439 0.0897354 0
M  V30 9 C -1.15252 1.8739 0.760724 0
M  V30 10 C -0.319887 2.80118 1.38357 0
M  V30 11 C 1.03604 2.58108 1.29132 0
M  V30 12 C 1.57531 1.50364 0.621171 0
M  V30 13 S 2.8702 -0.509929 -1.35195 0
M  V30 14 O 2.72005 -1.00404 -2.80747 0
M  V30 15 O 3.53722 0.78895 -1.4884 0
M  V30 16 N 3.81617 -1.74082 -0.594907 0
M  V30 17 H -3.37269 -1.23804 1.50785 0
M  V30 18 H -3.75143 0.389543 1.61045 0
M  V30 19 H -3.41704 0.685371 -0.677739 0
M  V30 20 H -3.37949 -1.08445 -0.709198 0
M  V30 21 H -1.35704 -0.189243 -1.67044 0
M  V30 22 H -0.708759 -1.45712 0.972988 0
M  V30 23 H -1.49015 -2.39781 -0.405123 0
M  V30 24 H 0.296086 -1.81123 -1.91183 0
M  V30 25 H 0.974347 -2.59341 -0.468428 0
M  V30 26 H -2.21366 2.07156 0.848655 0
M  V30 27 H -0.748281 3.64954 1.91083 0
M  V30 28 H 1.67742 3.31929 1.78673 0
M  V30 29 H 2.65147 1.372 0.586176 0
M  V30 30 H 4.17892 -1.44643 0.337357 0
M  V30 31 H 3.1474 -2.53635 -0.395318 0
M  V30 END ATOM
M  V30 BEGIN BOND
M  V30 1 1 1 2
M  V30 2 1 2 3
M  V30 3 1 3 4
M  V30 4 1 4 5
M  V30 5 1 5 6
M  V30 6 1 6 7
M  V30 7 2 7 8
M  V30 8 1 8 9
M  V30 9 2 9 10
M  V30 10 1 10 11
M  V30 11 2 11 12
M  V30 12 1 6 13
M  V30 13 2 13 14
M  V30 14 2 13 15
M  V30 15 1 13 16
M  V30 16 1 8 3
M  V30 17 1 12 7
M  V30 18 1 1 17
M  V30 19 1 1 18
M  V30 20 1 2 19
M  V30 21 1 2 20
M  V30 22 1 3 21 CFG=3
M  V30 23 1 4 22
M  V30 24 1 4 23
M  V30 25 1 5 24
M  V30 26 1 5 25
M  V30 27 1 9 26
M  V30 28 1 10 27
M  V30 29 1 11 28
M  V30 30 1 12 29
M  V30 31 1 16 30
M  V30 32 1 16 31
M  V30 END BOND
M  V30 END CTAB
M  END
