
     RDKit          3D

  0  0  0  0  0  0  0  0  0  0999 V3000
M  V30 BEGIN CTAB
M  V30 COUNTS 60 63 0 0 0
M  V30 BEGIN ATOM
M  V30 1 C 10.1089 -1.18697 1.30539 0
M  V30 2 O 9.52549 -0.909401 0.0562152 0
M  V30 3 C 8.16458 -0.891481 -0.0909704 0
M  V30 4 C 7.29655 -1.14247 0.967014 0
M  V30 5 C 5.91847 -1.1207 0.800665 0
M  V30 6 C 5.3752 -0.847039 -0.429056 0
M  V30 7 C 3.92475 -0.819047 -0.617121 0
M  V30 8 N 3.35321 0.478764 -0.318698 0
M  V30 9 C 1.95656 0.651942 -0.510738 0
M  V30 10 C 1.15496 -0.352477 -1.01191 0
M  V30 11 C -0.215455 -0.189263 -1.2077 0
M  V30 12 C -0.826359 1.00794 -0.899899 0
M  V30 13 C -0.0128199 2.01752 -0.394409 0
M  V30 14 C 1.34552 1.84822 -0.202756 0
M  V30 15 C -2.25045 1.19247 -1.10868 0
M  V30 16 C -2.75375 1.52225 -2.34585 0
M  V30 17 N -1.80311 1.6708 -3.41407 0
M  V30 18 N -4.06682 1.70695 -2.59996 0
M  V30 19 C -4.94411 1.5572 -1.56641 0
M  V30 20 N -6.30982 1.75247 -1.84412 0
M  V30 21 N -4.45515 1.23748 -0.368669 0
M  V30 22 C -3.18347 1.04327 -0.0556641 0
M  V30 23 C -2.62641 0.737715 1.2621 0
M  V30 24 O -3.31317 0.517136 2.34138 0
M  V30 25 C -4.08247 -0.427949 2.78435 0
M  V30 26 C -5.31975 -0.802221 2.08624 0
M  V30 27 C -6.53106 -0.13935 2.28565 0
M  V30 28 C -7.71075 -0.491079 1.68897 0
M  V30 29 C -7.71802 -1.57144 0.830512 0
M  V30 30 C -6.55345 -2.25374 0.603343 0
M  V30 31 C -5.37505 -1.89042 1.20855 0
M  V30 32 C 6.21796 -0.594922 -1.49364 0
M  V30 33 C 7.58589 -0.615898 -1.3314 0
M  V30 34 H 9.79437 -0.429442 2.06627 0
M  V30 35 H 11.2354 -1.18881 1.22075 0
M  V30 36 H 9.77571 -2.18362 1.71717 0
M  V30 37 H 7.77237 -1.35372 1.92147 0
M  V30 38 H 5.28428 -1.32091 1.64668 0
M  V30 39 H 3.69361 -1.02031 -1.7055 0
M  V30 40 H 3.37707 -1.54955 0.0372558 0
M  V30 41 H 3.98625 1.22704 0.0213156 0
M  V30 42 H 1.63253 -1.30384 -1.25841 0
M  V30 43 H -0.807852 -1.00531 -1.60491 0
M  V30 44 H -0.497945 2.94564 -0.15645 0
M  V30 45 H 1.97562 2.6476 0.194823 0
M  V30 46 H -1.70506 0.921421 -4.14865 0
M  V30 47 H -1.23694 2.54402 -3.40993 0
M  V30 48 H -6.63629 2.7436 -2.01946 0
M  V30 49 H -7.01288 0.982632 -1.88644 0
M  V30 50 H -1.79562 -0.0607369 1.08673 0
M  V30 51 H -1.9167 1.64039 1.50112 0
M  V30 52 H -3.5047 -1.4001 3.04191 0
M  V30 53 H -4.46374 -0.153445 3.85269 0
M  V30 54 H -6.51728 0.700508 2.95479 0
M  V30 55 H -8.64516 0.0563087 1.8712 0
M  V30 56 H -8.65889 -1.8589 0.34918 0
M  V30 57 H -6.61635 -3.10368 -0.0875462 0
M  V30 58 H -4.46504 -2.44642 1.01249 0
M  V30 59 H 5.81666 -0.375578 -2.48119 0
M  V30 60 H 8.26002 -0.422036 -2.14602 0
M  V30 END ATOM
M  V30 BEGIN BOND
M  V30 1 1 1 2
M  V30 2 1 2 3
M  V30 3 2 3 4
M  V30 4 1 4 5
M  V30 5 2 5 6
M  V30 6 1 6 7
M  V30 7 1 7 8
M  V30 8 1 8 9
M  V30 9 2 9 10
M  V30 10 1 10 11
M  V30 11 2 11 12
M  V30 12 1 12 13
M  V30 13 2 13 14
M  V30 14 1 12 15
M  V30 15 2 15 16
M  V30 16 1 16 17
M  V30 17 1 16 18
M  V30 18 2 18 19
M  V30 19 1 19 20
M  V30 20 1 19 21
M  V30 21 2 21 22
M  V30 22 1 22 23
M  V30 23 1 23 24
M  V30 24 1 24 25
M  V30 25 1 25 26
M  V30 26 2 26 27
M  V30 27 1 27 28
M  V30 28 2 28 29
M  V30 29 1 29 30
M  V30 30 2 30 31
M  V30 31 1 6 32
M  V30 32 2 32 33
M  V30 33 1 33 3
M  V30 34 1 14 9
M  V30 35 1 22 15
M  V30 36 1 31 26
M  V30 37 1 1 34
M  V30 38 1 1 35
M  V30 39 1 1 36
M  V30 40 1 4 37
M  V30 41 1 5 38
M  V30 42 1 7 39
M  V30 43 1 7 40
M  V30 44 1 8 41
M  V30 45 1 10 42
M  V30 46 1 11 43
M  V30 47 1 13 44
M  V30 48 1 14 45
M  V30 49 1 17 46
M  V30 50 1 17 47
M  V30 51 1 20 48
M  V30 52 1 20 49
M  V30 53 1 23 50
M  V30 54 1 23 51
M  V30 55 1 25 52
M  V30 56 1 25 53
M  V30 57 1 27 54
M  V30 58 1 28 55
M  V30 59 1 29 56
M  V30 60 1 30 57
M  V30 61 1 31 58
M  V30 62 1 32 59
M  V30 63 1 33 60
M  V30 END BOND
M  V30 END CTAB
M  END
