
     RDKit          3D

  0  0  0  0  0  0  0  0  0  0999 V3000
M  V30 BEGIN CTAB
M  V30 COUNTS 60 64 0 0 0
M  V30 BEGIN ATOM
M  V30 1 C 3.29987 0.416271 -1.18373 0
M  V30 2 C 2.59874 -0.880386 -0.876607 0
M  V30 3 C 1.11737 -0.825334 -1.00659 0
M  V30 4 N 0.420095 -0.382568 0.174972 0
M  V30 5 C 0.992447 -0.696718 1.46532 0
M  V30 6 C 2.50503 -0.655047 1.49066 0
M  V30 7 C 2.91493 -1.25452 2.80456 0
M  V30 8 N 2.95636 -1.4367 0.393076 0
M  V30 9 S 4.48006 -2.14347 0.50003 0
M  V30 10 O 4.66337 -2.94657 1.74589 0
M  V30 11 O 4.57083 -3.16002 -0.640975 0
M  V30 12 C 5.82145 -1.04613 0.209134 0
M  V30 13 N 6.48317 -0.281918 1.073 0
M  V30 14 N 7.4341 0.445208 0.679115 0
M  V30 15 C 7.77776 0.448924 -0.604901 0
M  V30 16 N 8.83377 1.21511 -1.22424 0
M  V30 17 S 6.65191 -0.663804 -1.2484 0
M  V30 18 C -0.805244 0.335134 0.110552 0
M  V30 19 C -2.01016 -0.332073 0.0883821 0
M  V30 20 F -1.94218 -1.67197 0.143925 0
M  V30 21 C -3.23359 0.291196 0.0328971 0
M  V30 22 C -3.24432 1.69204 -0.00148842 0
M  V30 23 C -4.46016 2.35617 -0.0472464 0
M  V30 24 O -4.44877 3.61198 -0.0776621 0
M  V30 25 C -5.64047 1.65939 -0.058879 0
M  V30 26 C -5.60732 0.286231 -0.0252053 0
M  V30 27 N -4.42221 -0.380322 0.0186736 0
M  V30 28 C -4.40213 -1.82916 0.0320566 0
M  V30 29 C -4.37788 -2.62544 -1.21833 0
M  V30 30 C -5.65976 -2.55017 -0.479167 0
M  V30 31 C -6.93308 2.31764 -0.105637 0
M  V30 32 O -6.97528 3.69584 -0.139699 0
M  V30 33 O -7.9943 1.66322 -0.115371 0
M  V30 34 C -2.05917 2.3757 0.0198979 0
M  V30 35 N -2.04719 3.79404 -0.0145813 0
M  V30 36 C -0.836592 1.69898 0.0759305 0
M  V30 37 F 0.291898 2.4094 0.101277 0
M  V30 38 H 3.79546 0.380451 -2.17484 0
M  V30 39 H 2.49634 1.19284 -1.31396 0
M  V30 40 H 3.93838 0.784146 -0.370746 0
M  V30 41 H 2.97872 -1.61101 -1.65182 0
M  V30 42 H 0.780766 -1.89169 -1.20402 0
M  V30 43 H 0.776775 -0.28508 -1.92029 0
M  V30 44 H 0.713998 -1.76782 1.6776 0
M  V30 45 H 0.542011 -0.11097 2.28572 0
M  V30 46 H 2.88114 0.389634 1.4868 0
M  V30 47 H 2.61538 -2.31134 2.92495 0
M  V30 48 H 3.95838 -1.03195 3.09695 0
M  V30 49 H 2.29791 -0.713896 3.5877 0
M  V30 50 H 9.58712 0.704929 -1.73278 0
M  V30 51 H 8.85537 2.24586 -1.17282 0
M  V30 52 H -6.4973 -0.317378 -0.0187194 0
M  V30 53 H -4.12818 -2.27788 1.03508 0
M  V30 54 H -3.79327 -3.55282 -1.25386 0
M  V30 55 H -4.30712 -2.02725 -2.14496 0
M  V30 56 H -6.51775 -2.01684 -0.865187 0
M  V30 57 H -5.95044 -3.52654 -0.0249973 0
M  V30 58 H -7.65699 4.13277 -0.746643 0
M  V30 59 H -1.86704 4.32471 0.860741 0
M  V30 60 H -2.21298 4.33698 -0.889273 0
M  V30 END ATOM
M  V30 BEGIN BOND
M  V30 1 1 1 2
M  V30 2 1 2 3
M  V30 3 1 3 4
M  V30 4 1 4 5
M  V30 5 1 5 6
M  V30 6 1 6 7
M  V30 7 1 6 8
M  V30 8 1 8 9
M  V30 9 2 9 10
M  V30 10 2 9 11
M  V30 11 1 9 12
M  V30 12 2 12 13
M  V30 13 1 13 14
M  V30 14 2 14 15
M  V30 15 1 15 16
M  V30 16 1 15 17
M  V30 17 1 4 18
M  V30 18 2 18 19
M  V30 19 1 19 20
M  V30 20 1 19 21
M  V30 21 2 21 22
M  V30 22 1 22 23
M  V30 23 2 23 24
M  V30 24 1 23 25
M  V30 25 2 25 26
M  V30 26 1 26 27
M  V30 27 1 27 28
M  V30 28 1 28 29
M  V30 29 1 29 30
M  V30 30 1 25 31
M  V30 31 1 31 32
M  V30 32 2 31 33
M  V30 33 1 22 34
M  V30 34 1 34 35
M  V30 35 2 34 36
M  V30 36 1 36 37
M  V30 37 1 8 2
M  V30 38 1 17 12
M  V30 39 1 36 18
M  V30 40 1 27 21
M  V30 41 1 30 28
M  V30 42 1 1 38
M  V30 43 1 1 39
M  V30 44 1 1 40
M  V30 45 1 2 41
M  V30 46 1 3 42
M  V30 47 1 3 43
M  V30 48 1 5 44
M  V30 49 1 5 45
M  V30 50 1 6 46
M  V30 51 1 7 47
M  V30 52 1 7 48
M  V30 53 1 7 49
M  V30 54 1 16 50
M  V30 55 1 16 51
M  V30 56 1 26 52
M  V30 57 1 28 53
M  V30 58 1 29 54
M  V30 59 1 29 55
M  V30 60 1 30 56
M  V30 61 1 30 57
M  V30 62 1 32 58
M  V30 63 1 35 59
M  V30 64 1 35 60
M  V30 END BOND
M  V30 END CTAB
M  END
