
     RDKit          3D

  0  0  0  0  0  0  0  0  0  0999 V3000
M  V30 BEGIN CTAB
M  V30 COUNTS 40 41 0 0 0
M  V30 BEGIN ATOM
M  V30 1 N -5.92853 -0.401989 -1.19428 0
M  V30 2 C -4.81111 -0.459695 -0.331283 0
M  V30 3 C -4.24628 -1.69806 -0.00250417 0
M  V30 4 C -3.15458 -1.76922 0.83928 0
M  V30 5 C -2.58388 -0.637306 1.38319 0
M  V30 6 C -3.12823 0.609612 1.07109 0
M  V30 7 C -4.21862 0.64251 0.226926 0
M  V30 8 S -2.4261 2.06074 1.74542 0
M  V30 9 O -1.84009 1.79701 3.11932 0
M  V30 10 O -3.48267 3.12182 1.94808 0
M  V30 11 N -1.22617 2.64099 0.651893 0
M  V30 12 C -0.204665 1.65208 0.513436 0
M  V30 13 C 0.898404 2.07742 -0.432865 0
M  V30 14 C 1.89475 0.961731 -0.487212 0
M  V30 15 C 1.81328 -0.0641338 -1.39808 0
M  V30 16 C 2.72635 -1.09363 -1.45382 0
M  V30 17 C 3.76784 -1.09081 -0.552894 0
M  V30 18 C 3.90419 -0.089164 0.38549 0
M  V30 19 C 2.96192 0.918709 0.39832 0
M  V30 20 S 4.9697 -2.38871 -0.579507 0
M  V30 21 N 6.24187 -1.93496 -1.63121 0
M  V30 22 O 5.46867 -2.5493 0.827351 0
M  V30 23 O 4.29955 -3.6587 -1.01025 0
M  V30 24 H -6.64964 -1.13789 -1.14381 0
M  V30 25 H -6.03199 0.367607 -1.8746 0
M  V30 26 H -4.70414 -2.57938 -0.436503 0
M  V30 27 H -2.75219 -2.76703 1.06324 0
M  V30 28 H -1.72516 -0.698209 2.04488 0
M  V30 29 H -4.61868 1.62784 0.00366166 0
M  V30 30 H -0.828962 3.54076 1.008 0
M  V30 31 H -0.6681 0.724289 0.121282 0
M  V30 32 H 0.255222 1.47577 1.50548 0
M  V30 33 H 0.453257 2.15593 -1.44454 0
M  V30 34 H 1.3453 3.0325 -0.141391 0
M  V30 35 H 0.979007 -0.0481909 -2.10485 0
M  V30 36 H 2.6797 -1.90759 -2.16102 0
M  V30 37 H 4.74191 -0.0980716 1.10102 0
M  V30 38 H 3.06615 1.70481 1.13236 0
M  V30 39 H 6.84968 -2.7124 -1.91834 0
M  V30 40 H 5.91303 -1.32771 -2.40583 0
M  V30 END ATOM
M  V30 BEGIN BOND
M  V30 1 1 1 2
M  V30 2 2 2 3
M  V30 3 1 3 4
M  V30 4 2 4 5
M  V30 5 1 5 6
M  V30 6 2 6 7
M  V30 7 1 6 8
M  V30 8 2 8 9
M  V30 9 2 8 10
M  V30 10 1 8 11
M  V30 11 1 11 12
M  V30 12 1 12 13
M  V30 13 1 13 14
M  V30 14 2 14 15
M  V30 15 1 15 16
M  V30 16 2 16 17
M  V30 17 1 17 18
M  V30 18 2 18 19
M  V30 19 1 17 20
M  V30 20 1 20 21
M  V30 21 2 20 22
M  V30 22 2 20 23
M  V30 23 1 7 2
M  V30 24 1 19 14
M  V30 25 1 1 24
M  V30 26 1 1 25
M  V30 27 1 3 26
M  V30 28 1 4 27
M  V30 29 1 5 28
M  V30 30 1 7 29
M  V30 31 1 11 30
M  V30 32 1 12 31
M  V30 33 1 12 32
M  V30 34 1 13 33
M  V30 35 1 13 34
M  V30 36 1 15 35
M  V30 37 1 16 36
M  V30 38 1 18 37
M  V30 39 1 19 38
M  V30 40 1 21 39
M  V30 41 1 21 40
M  V30 END BOND
M  V30 END CTAB
M  END
