
     RDKit          3D

  0  0  0  0  0  0  0  0  0  0999 V3000
M  V30 BEGIN CTAB
M  V30 COUNTS 46 47 0 0 0
M  V30 BEGIN ATOM
M  V30 1 C -0.862788 3.73847 0.785399 0
M  V30 2 C -1.85201 2.59661 0.885829 0
M  V30 3 C -3.19394 3.02787 0.339323 0
M  V30 4 C -1.3467 1.37171 0.222348 0
M  V30 5 C -0.135945 1.29298 -0.424417 0
M  V30 6 C 0.328691 0.126076 -1.04972 0
M  V30 7 C 1.63883 0.117567 -1.74766 0
M  V30 8 C 2.81495 0.0612037 -0.860439 0
M  V30 9 C 3.20311 -1.10583 -0.271752 0
M  V30 10 N 2.52373 -2.35618 -0.471411 0
M  V30 11 N 4.28703 -1.1044 0.540128 0
M  V30 12 C 4.97266 0.0267725 0.764909 0
M  V30 13 N 6.09889 -0.069053 1.63279 0
M  V30 14 N 4.59657 1.18535 0.187088 0
M  V30 15 C 3.53483 1.21016 -0.614713 0
M  V30 16 C -0.523319 -0.953966 -0.971409 0
M  V30 17 C -1.74973 -0.942318 -0.338255 0
M  V30 18 C -2.5959 -2.15486 -0.284372 0
M  V30 19 C -2.07693 -3.24232 -1.20625 0
M  V30 20 C -2.61278 -2.70691 1.15272 0
M  V30 21 C -2.14297 0.232508 0.252494 0
M  V30 22 O -3.35117 0.322713 0.89947 0
M  V30 23 H 0.100697 3.44403 1.22027 0
M  V30 24 H -1.27546 4.54738 1.45776 0
M  V30 25 H -0.810893 4.16732 -0.220794 0
M  V30 26 H -1.98771 2.39277 1.96891 0
M  V30 27 H -3.34961 2.68999 -0.714416 0
M  V30 28 H -3.21473 4.15414 0.40595 0
M  V30 29 H -4.02402 2.68871 0.982797 0
M  V30 30 H 0.480016 2.16073 -0.453192 0
M  V30 31 H 1.69831 0.98207 -2.47377 0
M  V30 32 H 1.61876 -0.794461 -2.41301 0
M  V30 33 H 1.87186 -2.7701 0.209119 0
M  V30 34 H 2.72738 -2.84535 -1.36954 0
M  V30 35 H 6.03031 -0.512065 2.58303 0
M  V30 36 H 7.01159 0.312186 1.30911 0
M  V30 37 H 3.2497 2.17105 -1.07436 0
M  V30 38 H -0.250534 -1.88934 -1.43567 0
M  V30 39 H -3.64166 -1.96191 -0.55326 0
M  V30 40 H -2.85796 -4.03009 -1.34999 0
M  V30 41 H -1.18263 -3.73529 -0.775975 0
M  V30 42 H -1.89667 -2.80597 -2.20048 0
M  V30 43 H -2.14507 -3.72502 1.18123 0
M  V30 44 H -2.09621 -2.00821 1.84184 0
M  V30 45 H -3.6517 -2.83416 1.51933 0
M  V30 46 H -3.95888 -0.472564 0.93298 0
M  V30 END ATOM
M  V30 BEGIN BOND
M  V30 1 1 1 2
M  V30 2 1 2 3
M  V30 3 1 2 4
M  V30 4 2 4 5
M  V30 5 1 5 6
M  V30 6 1 6 7
M  V30 7 1 7 8
M  V30 8 2 8 9
M  V30 9 1 9 10
M  V30 10 1 9 11
M  V30 11 2 11 12
M  V30 12 1 12 13
M  V30 13 1 12 14
M  V30 14 2 14 15
M  V30 15 2 6 16
M  V30 16 1 16 17
M  V30 17 1 17 18
M  V30 18 1 18 19
M  V30 19 1 18 20
M  V30 20 2 17 21
M  V30 21 1 21 22
M  V30 22 1 21 4
M  V30 23 1 15 8
M  V30 24 1 1 23
M  V30 25 1 1 24
M  V30 26 1 1 25
M  V30 27 1 2 26
M  V30 28 1 3 27
M  V30 29 1 3 28
M  V30 30 1 3 29
M  V30 31 1 5 30
M  V30 32 1 7 31
M  V30 33 1 7 32
M  V30 34 1 10 33
M  V30 35 1 10 34
M  V30 36 1 13 35
M  V30 37 1 13 36
M  V30 38 1 15 37
M  V30 39 1 16 38
M  V30 40 1 18 39
M  V30 41 1 19 40
M  V30 42 1 19 41
M  V30 43 1 19 42
M  V30 44 1 20 43
M  V30 45 1 20 44
M  V30 46 1 20 45
M  V30 47 1 22 46
M  V30 END BOND
M  V30 END CTAB
M  END
