
     RDKit          3D

  0  0  0  0  0  0  0  0  0  0999 V3000
M  V30 BEGIN CTAB
M  V30 COUNTS 55 55 0 0 0
M  V30 BEGIN ATOM
M  V30 1 C -5.16853 -1.96694 1.05313 0
M  V30 2 Si -4.26778 -0.383769 0.54329 0 VAL=4
M  V30 3 C -5.25876 0.385166 -0.818075 0
M  V30 4 N -4.23704 0.645589 2.02037 0
M  V30 5 N -2.65997 -0.856131 0.0160546 0
M  V30 6 Si -1.50903 0.503901 -0.16286 0 VAL=4
M  V30 7 C -1.42757 0.872517 -2.01239 0
M  V30 8 C -2.17081 2.07176 0.628427 0
M  V30 9 N 0.0110437 -0.0043979 0.501175 0
M  V30 10 Si 1.04538 -1.10794 -0.353491 0 VAL=4
M  V30 11 C 0.540197 -1.6696 -2.03186 0
M  V30 12 C 1.48414 -2.56683 0.726869 0
M  V30 13 N 2.26867 0.16235 -0.456553 0
M  V30 14 Si 3.91957 -0.2021 -0.150189 0 VAL=4
M  V30 15 C 4.98532 0.60331 -1.48871 0
M  V30 16 C 4.35818 -2.00663 -0.140654 0
M  V30 17 N 4.48362 0.493721 1.40648 0
M  V30 18 Si 1.33152 1.12562 0.690745 0 VAL=4
M  V30 19 C 1.96888 1.09411 2.46507 0
M  V30 20 C 1.10131 2.85975 0.129739 0
M  V30 21 H -5.02695 -2.75702 0.31214 0
M  V30 22 H -6.24452 -1.69356 1.12026 0
M  V30 23 H -4.86044 -2.27867 2.06534 0
M  V30 24 H -6.32061 0.055534 -0.749428 0
M  V30 25 H -5.14835 1.46647 -0.902379 0
M  V30 26 H -4.88402 -0.0478201 -1.78239 0
M  V30 27 H -4.13758 0.0205967 2.85048 0
M  V30 28 H -5.11848 1.17241 2.13199 0
M  V30 29 H -2.30345 -1.59738 0.64274 0
M  V30 30 H -1.55103 -0.0610305 -2.59855 0
M  V30 31 H -0.540597 1.4462 -2.28078 0
M  V30 32 H -2.31759 1.49189 -2.24938 0
M  V30 33 H -1.5856 2.9281 0.179233 0
M  V30 34 H -2.08363 2.05533 1.72265 0
M  V30 35 H -3.21086 2.2498 0.268953 0
M  V30 36 H 1.22128 -2.52536 -2.3168 0
M  V30 37 H 0.67554 -0.921432 -2.82734 0
M  V30 38 H -0.47801 -2.12564 -2.01739 0
M  V30 39 H 2.02286 -3.35325 0.199583 0
M  V30 40 H 1.95218 -2.24992 1.68659 0
M  V30 41 H 0.49741 -3.02303 1.03639 0
M  V30 42 H 5.0363 -0.0557418 -2.37563 0
M  V30 43 H 6.00162 0.677016 -1.06449 0
M  V30 44 H 4.62615 1.61522 -1.72165 0
M  V30 45 H 5.47654 -2.06077 -0.295399 0
M  V30 46 H 3.93247 -2.55106 -1.01086 0
M  V30 47 H 4.17739 -2.50104 0.825379 0
M  V30 48 H 5.35853 -0.000744719 1.72754 0
M  V30 49 H 4.66041 1.50412 1.2567 0
M  V30 50 H 2.28078 0.0756142 2.70154 0
M  V30 51 H 1.06442 1.34986 3.09249 0
M  V30 52 H 2.69383 1.88341 2.659 0
M  V30 53 H 2.12809 3.32491 0.0485658 0
M  V30 54 H 0.618922 3.45053 0.960813 0
M  V30 55 H 0.588653 2.98303 -0.827176 0
M  V30 END ATOM
M  V30 BEGIN BOND
M  V30 1 1 1 2
M  V30 2 1 2 3
M  V30 3 1 2 4
M  V30 4 1 2 5
M  V30 5 1 5 6
M  V30 6 1 6 7
M  V30 7 1 6 8
M  V30 8 1 6 9
M  V30 9 1 9 10
M  V30 10 1 10 11
M  V30 11 1 10 12
M  V30 12 1 10 13
M  V30 13 1 13 14
M  V30 14 1 14 15
M  V30 15 1 14 16
M  V30 16 1 14 17
M  V30 17 1 13 18
M  V30 18 1 18 19
M  V30 19 1 18 20
M  V30 20 1 18 9
M  V30 21 1 1 21
M  V30 22 1 1 22
M  V30 23 1 1 23
M  V30 24 1 3 24
M  V30 25 1 3 25
M  V30 26 1 3 26
M  V30 27 1 4 27
M  V30 28 1 4 28
M  V30 29 1 5 29
M  V30 30 1 7 30
M  V30 31 1 7 31
M  V30 32 1 7 32
M  V30 33 1 8 33
M  V30 34 1 8 34
M  V30 35 1 8 35
M  V30 36 1 11 36
M  V30 37 1 11 37
M  V30 38 1 11 38
M  V30 39 1 12 39
M  V30 40 1 12 40
M  V30 41 1 12 41
M  V30 42 1 15 42
M  V30 43 1 15 43
M  V30 44 1 15 44
M  V30 45 1 16 45
M  V30 46 1 16 46
M  V30 47 1 16 47
M  V30 48 1 17 48
M  V30 49 1 17 49
M  V30 50 1 19 50
M  V30 51 1 19 51
M  V30 52 1 19 52
M  V30 53 1 20 53
M  V30 54 1 20 54
M  V30 55 1 20 55
M  V30 END BOND
M  V30 END CTAB
M  END
