
     RDKit          3D

  0  0  0  0  0  0  0  0  0  0999 V3000
M  V30 BEGIN CTAB
M  V30 COUNTS 41 42 0 0 0
M  V30 BEGIN ATOM
M  V30 1 O -2.29707 1.00941 0.096274 0
M  V30 2 C -2.15409 -0.0602841 -0.497269 0
M  V30 3 N -3.11686 -1.08387 -0.483871 0
M  V30 4 C -4.33955 -1.01027 0.200642 0
M  V30 5 C -4.79029 0.0117264 0.986558 0
M  V30 6 C -6.02051 0.00178111 1.6377 0
M  V30 7 C -6.81867 -1.10186 1.47482 0
M  V30 8 C -6.44029 -2.15831 0.709527 0
M  V30 9 C -5.21503 -2.11375 0.0793427 0
M  V30 10 Cl -4.69466 -3.45 -0.917347 0
M  V30 11 C -0.866567 -0.237796 -1.26372 0
M  V30 12 N -0.0199455 0.940884 -1.14372 0
M  V30 13 C 0.925291 1.06638 -0.103584 0
M  V30 14 O 1.63242 2.09463 -0.0401752 0
M  V30 15 C 1.07474 0.0089858 0.884575 0
M  V30 16 S 2.32667 0.323865 2.1359 0
M  V30 17 C 3.92819 0.325722 1.34527 0
M  V30 18 N 4.43554 1.46146 0.846549 0
M  V30 19 C 5.65155 1.48095 0.24392 0
M  V30 20 N 6.08835 2.74206 -0.249921 0
M  V30 21 N 6.358 0.355668 0.143203 0
M  V30 22 C 5.88025 -0.796815 0.631143 0
M  V30 23 N 4.65937 -0.795324 1.23134 0
M  V30 24 N 6.60867 -2.01207 0.540062 0
M  V30 25 C -0.17639 2.00856 -2.13999 0
M  V30 26 H -2.90019 -1.98637 -1.03473 0
M  V30 27 H -4.19411 0.882608 1.13551 0
M  V30 28 H -6.34227 0.832932 2.25369 0
M  V30 29 H -7.78464 -1.13398 1.97183 0
M  V30 30 H -7.05076 -3.0535 0.558689 0
M  V30 31 H -0.332028 -1.06278 -0.74879 0
M  V30 32 H -1.03629 -0.554655 -2.29439 0
M  V30 33 H 1.39542 -0.924882 0.335716 0
M  V30 34 H 0.0754845 -0.217431 1.34969 0
M  V30 35 H 5.50363 3.22545 -0.970449 0
M  V30 36 H 6.95066 3.18514 0.0779161 0
M  V30 37 H 6.61555 -2.70845 1.3308 0
M  V30 38 H 7.16819 -2.28176 -0.29527 0
M  V30 39 H 0.788445 2.51863 -2.3277 0
M  V30 40 H -0.949 2.73313 -1.81725 0
M  V30 41 H -0.527222 1.53416 -3.07456 0
M  V30 END ATOM
M  V30 BEGIN BOND
M  V30 1 2 1 2
M  V30 2 1 2 3
M  V30 3 1 3 4
M  V30 4 2 4 5
M  V30 5 1 5 6
M  V30 6 2 6 7
M  V30 7 1 7 8
M  V30 8 2 8 9
M  V30 9 1 9 10
M  V30 10 1 2 11
M  V30 11 1 11 12
M  V30 12 1 12 13
M  V30 13 2 13 14
M  V30 14 1 13 15
M  V30 15 1 15 16
M  V30 16 1 16 17
M  V30 17 2 17 18
M  V30 18 1 18 19
M  V30 19 1 19 20
M  V30 20 2 19 21
M  V30 21 1 21 22
M  V30 22 2 22 23
M  V30 23 1 22 24
M  V30 24 1 12 25
M  V30 25 1 9 4
M  V30 26 1 23 17
M  V30 27 1 3 26
M  V30 28 1 5 27
M  V30 29 1 6 28
M  V30 30 1 7 29
M  V30 31 1 8 30
M  V30 32 1 11 31
M  V30 33 1 11 32
M  V30 34 1 15 33
M  V30 35 1 15 34
M  V30 36 1 20 35
M  V30 37 1 20 36
M  V30 38 1 24 37
M  V30 39 1 24 38
M  V30 40 1 25 39
M  V30 41 1 25 40
M  V30 42 1 25 41
M  V30 END BOND
M  V30 END CTAB
M  END
