
     RDKit          3D

  0  0  0  0  0  0  0  0  0  0999 V3000
M  V30 BEGIN CTAB
M  V30 COUNTS 42 41 0 0 0
M  V30 BEGIN ATOM
M  V30 1 N 5.50929 1.96723 0.593556 0
M  V30 2 C 4.87591 0.766962 0.149161 0
M  V30 3 N 5.5118 -0.319771 0.319406 0
M  V30 4 N 3.59732 0.776281 -0.461677 0
M  V30 5 C 2.7776 -0.428557 -0.34558 0
M  V30 6 C 2.37153 -0.573045 1.0797 0
M  V30 7 C 1.54276 -1.73849 1.43472 0
M  V30 8 C 0.212862 -1.88756 0.789611 0
M  V30 9 C -0.701895 -0.759169 1.05145 0
M  V30 10 O -0.791545 -0.263954 2.23275 0
M  V30 11 N -1.50474 -0.173992 0.0658628 0
M  V30 12 C -2.37692 0.928743 0.411003 0
M  V30 13 C -1.84325 2.15469 -0.260686 0
M  V30 14 O -0.816061 2.0877 -0.967349 0
M  V30 15 O -2.51433 3.35717 -0.0788343 0
M  V30 16 C -3.80536 0.676436 -0.00263263 0
M  V30 17 C -4.36798 -0.556525 0.656758 0
M  V30 18 C -3.95679 0.537975 -1.49379 0
M  V30 19 N 0.180624 -2.2966 -0.553486 0
M  V30 20 H 5.33752 2.88885 0.140622 0
M  V30 21 H 6.16236 1.9009 1.39836 0
M  V30 22 H 5.25462 -1.27367 0.0819701 0
M  V30 23 H 3.24209 1.62032 -0.983233 0
M  V30 24 H 3.40827 -1.26655 -0.710753 0
M  V30 25 H 1.92391 -0.385721 -1.05554 0
M  V30 26 H 1.97168 0.403161 1.43443 0
M  V30 27 H 3.33758 -0.679594 1.66223 0
M  V30 28 H 1.38455 -1.75256 2.54165 0
M  V30 29 H 2.1397 -2.65891 1.22907 0
M  V30 30 H -0.277663 -2.76112 1.37482 0
M  V30 31 H -1.52945 -0.477185 -0.918482 0
M  V30 32 H -2.37758 1.1233 1.51282 0
M  V30 33 H -3.46168 3.35441 0.2157 0
M  V30 34 H -4.40673 1.54241 0.381951 0
M  V30 35 H -3.90639 -0.696846 1.65415 0
M  V30 36 H -5.47463 -0.453004 0.773476 0
M  V30 37 H -4.19035 -1.46874 0.01445 0
M  V30 38 H -2.98984 0.613234 -2.03098 0
M  V30 39 H -4.43081 -0.428471 -1.79322 0
M  V30 40 H -4.57578 1.37532 -1.87971 0
M  V30 41 H -0.0222172 -1.62336 -1.27751 0
M  V30 42 H -0.419991 -3.1517 -0.751422 0
M  V30 END ATOM
M  V30 BEGIN BOND
M  V30 1 1 1 2
M  V30 2 2 2 3 CFG=2
M  V30 3 1 2 4
M  V30 4 1 4 5
M  V30 5 1 5 6
M  V30 6 1 6 7
M  V30 7 1 7 8
M  V30 8 1 8 9
M  V30 9 2 9 10
M  V30 10 1 9 11
M  V30 11 1 11 12
M  V30 12 1 12 13
M  V30 13 2 13 14
M  V30 14 1 13 15
M  V30 15 1 12 16
M  V30 16 1 16 17
M  V30 17 1 16 18
M  V30 18 1 8 19
M  V30 19 1 1 20
M  V30 20 1 1 21
M  V30 21 1 3 22
M  V30 22 1 4 23
M  V30 23 1 5 24
M  V30 24 1 5 25
M  V30 25 1 6 26
M  V30 26 1 6 27
M  V30 27 1 7 28
M  V30 28 1 7 29
M  V30 29 1 8 30
M  V30 30 1 11 31
M  V30 31 1 12 32
M  V30 32 1 15 33
M  V30 33 1 16 34
M  V30 34 1 17 35
M  V30 35 1 17 36
M  V30 36 1 17 37
M  V30 37 1 18 38
M  V30 38 1 18 39
M  V30 39 1 18 40
M  V30 40 1 19 41
M  V30 41 1 19 42
M  V30 END BOND
M  V30 END CTAB
M  END
