
     RDKit          3D

  0  0  0  0  0  0  0  0  0  0999 V3000
M  V30 BEGIN CTAB
M  V30 COUNTS 24 25 0 0 0
M  V30 BEGIN ATOM
M  V30 1 N 2.4051 -1.6259 0.675007 0
M  V30 2 C 1.08225 -1.20484 0.413266 0
M  V30 3 C 0.823987 0.0726076 0.0326908 0
M  V30 4 C -0.506536 0.400141 -0.204056 0
M  V30 5 C -1.52721 -0.499598 -0.0683797 0
M  V30 6 C -1.28231 -1.79674 0.316154 0
M  V30 7 Cl -2.5823 -2.95688 0.49286 0
M  V30 8 C 0.0308904 -2.12206 0.550383 0
M  V30 9 S -3.18366 -0.0469097 -0.375453 0
M  V30 10 N -3.22444 1.61613 -0.83842 0
M  V30 11 O -3.99197 -0.208831 0.891955 0
M  V30 12 O -3.80734 -0.905114 -1.4527 0
M  V30 13 C 1.82432 1.10731 -0.142414 0
M  V30 14 N 1.49894 2.3759 -0.527891 0
M  V30 15 N 2.57281 3.118 -0.614221 0
M  V30 16 N 3.60047 2.36949 -0.294786 0
M  V30 17 N 3.15289 1.13506 -0.00381085 0
M  V30 18 H 2.75881 -1.59669 1.64405 0
M  V30 19 H 2.99666 -1.95528 -0.102484 0
M  V30 20 H -0.796768 1.39812 -0.511101 0
M  V30 21 H 0.286887 -3.11992 0.853637 0
M  V30 22 H -3.37016 2.26156 -0.060394 0
M  V30 23 H -2.50712 1.85781 -1.52351 0
M  V30 24 H 3.74579 0.326629 0.284266 0
M  V30 END ATOM
M  V30 BEGIN BOND
M  V30 1 1 1 2
M  V30 2 2 2 3
M  V30 3 1 3 4
M  V30 4 2 4 5
M  V30 5 1 5 6
M  V30 6 1 6 7
M  V30 7 2 6 8
M  V30 8 1 5 9
M  V30 9 1 9 10
M  V30 10 2 9 11
M  V30 11 2 9 12
M  V30 12 1 3 13
M  V30 13 2 13 14
M  V30 14 1 14 15
M  V30 15 2 15 16
M  V30 16 1 16 17
M  V30 17 1 8 2
M  V30 18 1 17 13
M  V30 19 1 1 18
M  V30 20 1 1 19
M  V30 21 1 4 20
M  V30 22 1 8 21
M  V30 23 1 10 22
M  V30 24 1 10 23
M  V30 25 1 17 24
M  V30 END BOND
M  V30 END CTAB
M  END
