
     RDKit          3D

  0  0  0  0  0  0  0  0  0  0999 V3000
M  V30 BEGIN CTAB
M  V30 COUNTS 26 26 0 0 0
M  V30 BEGIN ATOM
M  V30 1 C -3.28744 -1.35652 -0.65785 0
M  V30 2 O -1.88384 -1.50076 -0.633719 0
M  V30 3 C -1.09661 -0.501171 -0.12942 0
M  V30 4 C -1.64022 0.647784 0.357733 0
M  V30 5 C -0.816687 1.63151 0.857148 0
M  V30 6 N -1.42223 2.81323 1.35522 0
M  V30 7 C 0.557909 1.44592 0.860639 0
M  V30 8 C 1.09963 0.292333 0.37126 0
M  V30 9 C 0.293456 -0.690346 -0.126572 0
M  V30 10 C 0.857433 -1.9509 -0.663136 0
M  V30 11 S 2.81818 0.087886 0.388181 0
M  V30 12 O 3.22338 -1.14326 1.17971 0
M  V30 13 O 3.50341 1.25307 1.05497 0
M  V30 14 N 3.42441 -0.135873 -1.20881 0
M  V30 15 H -3.77964 -2.24731 -1.09629 0
M  V30 16 H -3.50217 -0.452165 -1.28184 0
M  V30 17 H -3.67256 -1.16672 0.369244 0
M  V30 18 H -2.7196 0.741285 0.331266 0
M  V30 19 H -1.86419 2.85848 2.28199 0
M  V30 20 H -1.41117 3.65705 0.749648 0
M  V30 21 H 1.14214 2.27212 1.27321 0
M  V30 22 H 0.0322887 -2.64605 -0.93201 0
M  V30 23 H 1.45927 -2.50094 0.109095 0
M  V30 24 H 1.44892 -1.77833 -1.57362 0
M  V30 25 H 4.42522 0.0671518 -1.30753 0
M  V30 26 H 2.8107 0.302522 -1.92852 0
M  V30 END ATOM
M  V30 BEGIN BOND
M  V30 1 1 1 2
M  V30 2 1 2 3
M  V30 3 2 3 4
M  V30 4 1 4 5
M  V30 5 1 5 6
M  V30 6 2 5 7
M  V30 7 1 7 8
M  V30 8 2 8 9
M  V30 9 1 9 10
M  V30 10 1 8 11
M  V30 11 2 11 12
M  V30 12 2 11 13
M  V30 13 1 11 14
M  V30 14 1 9 3
M  V30 15 1 1 15
M  V30 16 1 1 16
M  V30 17 1 1 17
M  V30 18 1 4 18
M  V30 19 1 6 19
M  V30 20 1 6 20
M  V30 21 1 7 21
M  V30 22 1 10 22
M  V30 23 1 10 23
M  V30 24 1 10 24
M  V30 25 1 14 25
M  V30 26 1 14 26
M  V30 END BOND
M  V30 END CTAB
M  END
