
     RDKit          3D

  0  0  0  0  0  0  0  0  0  0999 V3000
M  V30 BEGIN CTAB
M  V30 COUNTS 23 23 0 0 0
M  V30 BEGIN ATOM
M  V30 1 O 4.10933 -0.16029 -0.469368 0
M  V30 2 C 2.7317 -0.0525973 -0.589123 0
M  V30 3 O 2.27624 0.307588 -1.70196 0
M  V30 4 C 1.89843 -0.362165 0.577984 0
M  V30 5 C 0.447338 -0.198712 0.301079 0
M  V30 6 C -0.412902 -1.2556 0.095325 0
M  V30 7 C -1.7641 -1.07381 -0.160491 0
M  V30 8 N -2.63814 -2.1527 -0.36851 0
M  V30 9 C -2.19811 0.256434 -0.196357 0
M  V30 10 C -1.34902 1.31807 0.0072109 0
M  V30 11 C -0.0110276 1.1065 0.25978 0
M  V30 12 N 0.880267 2.21269 0.473867 0
M  V30 13 O -3.54929 0.431157 -0.452667 0
M  V30 14 H 4.59132 -0.787869 0.138207 0
M  V30 15 H 2.20812 0.359922 1.38687 0
M  V30 16 H 2.1191 -1.39406 0.913332 0
M  V30 17 H -0.0277442 -2.2655 0.133332 0
M  V30 18 H -3.57475 -1.98334 -0.779227 0
M  V30 19 H -2.37279 -3.12242 -0.122891 0
M  V30 20 H -1.71151 2.32502 -0.0270486 0
M  V30 21 H 1.09264 2.81203 -0.346389 0
M  V30 22 H 1.26473 2.35457 1.43752 0
M  V30 23 H -4.00985 1.32507 -0.510474 0
M  V30 END ATOM
M  V30 BEGIN BOND
M  V30 1 1 1 2
M  V30 2 2 2 3
M  V30 3 1 2 4
M  V30 4 1 4 5
M  V30 5 2 5 6
M  V30 6 1 6 7
M  V30 7 1 7 8
M  V30 8 2 7 9
M  V30 9 1 9 10
M  V30 10 2 10 11
M  V30 11 1 11 12
M  V30 12 1 9 13
M  V30 13 1 11 5
M  V30 14 1 1 14
M  V30 15 1 4 15
M  V30 16 1 4 16
M  V30 17 1 6 17
M  V30 18 1 8 18
M  V30 19 1 8 19
M  V30 20 1 10 20
M  V30 21 1 12 21
M  V30 22 1 12 22
M  V30 23 1 13 23
M  V30 END BOND
M  V30 END CTAB
M  END
