
     RDKit          3D

  0  0  0  0  0  0  0  0  0  0999 V3000
M  V30 BEGIN CTAB
M  V30 COUNTS 27 27 0 0 0
M  V30 BEGIN ATOM
M  V30 1 C -3.24545 -0.376405 1.34525 0
M  V30 2 C -1.76683 -0.289401 1.16893 0
M  V30 3 C -1.32465 0.0295561 -0.241886 0
M  V30 4 C 0.174218 0.0695243 -0.222298 0
M  V30 5 N 1.07753 -0.855949 -0.535031 0
M  V30 6 N 2.3177 -0.377475 -0.35987 0
M  V30 7 C 2.19743 0.887539 0.0769497 0
M  V30 8 N 0.871089 1.14839 0.15654 0
M  V30 9 N 3.22844 1.80867 0.405261 0
M  V30 10 C 3.558 -1.10341 -0.59116 0
M  V30 11 N -1.78393 1.34356 -0.59339 0
M  V30 12 C -1.83649 -0.93413 -1.25694 0
M  V30 13 H -3.42803 -0.317974 2.45867 0
M  V30 14 H -3.58266 -1.37296 1.0151 0
M  V30 15 H -3.76344 0.464715 0.887211 0
M  V30 16 H -1.4093 0.575144 1.80099 0
M  V30 17 H -1.24145 -1.18743 1.53884 0
M  V30 18 H 3.10514 2.82529 0.187405 0
M  V30 19 H 4.12559 1.50478 0.866356 0
M  V30 20 H 4.36585 -0.707246 0.0929213 0
M  V30 21 H 3.86789 -1.09249 -1.6525 0
M  V30 22 H 3.43197 -2.18553 -0.308854 0
M  V30 23 H -1.23479 2.04308 -0.0253719 0
M  V30 24 H -1.6532 1.54546 -1.58578 0
M  V30 25 H -1.7482 -0.479635 -2.2653 0
M  V30 26 H -2.9473 -1.04265 -1.09674 0
M  V30 27 H -1.35511 -1.92302 -1.26529 0
M  V30 END ATOM
M  V30 BEGIN BOND
M  V30 1 1 1 2
M  V30 2 1 2 3
M  V30 3 1 3 4
M  V30 4 2 4 5
M  V30 5 1 5 6
M  V30 6 1 6 7
M  V30 7 2 7 8
M  V30 8 1 7 9
M  V30 9 1 6 10
M  V30 10 1 3 11
M  V30 11 1 3 12
M  V30 12 1 8 4
M  V30 13 1 1 13
M  V30 14 1 1 14
M  V30 15 1 1 15
M  V30 16 1 2 16
M  V30 17 1 2 17
M  V30 18 1 9 18
M  V30 19 1 9 19
M  V30 20 1 10 20
M  V30 21 1 10 21
M  V30 22 1 10 22
M  V30 23 1 11 23
M  V30 24 1 11 24
M  V30 25 1 12 25
M  V30 26 1 12 26
M  V30 27 1 12 27
M  V30 END BOND
M  V30 END CTAB
M  END
