
     RDKit          3D

  0  0  0  0  0  0  0  0  0  0999 V3000
M  V30 BEGIN CTAB
M  V30 COUNTS 24 25 0 0 0
M  V30 BEGIN ATOM
M  V30 1 O 4.72345 0.0275863 0.636645 0
M  V30 2 C 3.37317 0.0399044 0.419685 0
M  V30 3 C 2.73767 -0.960034 -0.279387 0
M  V30 4 C 1.36293 -0.935731 -0.493297 0
M  V30 5 C 0.611221 0.110526 0.0028621 0
M  V30 6 C 1.26483 1.10547 0.70198 0
M  V30 7 C 2.61138 1.08615 0.91416 0
M  V30 8 N -0.814373 0.182387 -0.191255 0
M  V30 9 N -1.53967 1.215 -0.529263 0
M  V30 10 C -2.84672 0.909678 -0.618081 0
M  V30 11 C -2.94192 -0.421804 -0.310077 0
M  V30 12 C -1.65157 -0.860996 -0.0445044 0
M  V30 13 N -1.30848 -2.19669 0.318881 0
M  V30 14 N -3.91927 1.8021 -0.965502 0
M  V30 15 H 5.19884 0.741454 1.13932 0
M  V30 16 H 3.32983 -1.78379 -0.669986 0
M  V30 17 H 0.888111 -1.73488 -1.0465 0
M  V30 18 H 0.687969 1.93183 1.09667 0
M  V30 19 H 3.0812 1.8884 1.46837 0
M  V30 20 H -3.85858 -0.985406 -0.288427 0
M  V30 21 H -1.08222 -2.93486 -0.38484 0
M  V30 22 H -1.26725 -2.50309 1.32739 0
M  V30 23 H -3.97811 2.20174 -1.91906 0
M  V30 24 H -4.66244 2.07505 -0.285785 0
M  V30 END ATOM
M  V30 BEGIN BOND
M  V30 1 1 1 2
M  V30 2 2 2 3
M  V30 3 1 3 4
M  V30 4 2 4 5
M  V30 5 1 5 6
M  V30 6 2 6 7
M  V30 7 1 5 8
M  V30 8 1 8 9
M  V30 9 2 9 10
M  V30 10 1 10 11
M  V30 11 2 11 12
M  V30 12 1 12 13
M  V30 13 1 10 14
M  V30 14 1 7 2
M  V30 15 1 12 8
M  V30 16 1 1 15
M  V30 17 1 3 16
M  V30 18 1 4 17
M  V30 19 1 6 18
M  V30 20 1 7 19
M  V30 21 1 11 20
M  V30 22 1 13 21
M  V30 23 1 13 22
M  V30 24 1 14 23
M  V30 25 1 14 24
M  V30 END BOND
M  V30 END CTAB
M  END
