
     RDKit          3D

  0  0  0  0  0  0  0  0  0  0999 V3000
M  V30 BEGIN CTAB
M  V30 COUNTS 51 54 0 0 0
M  V30 BEGIN ATOM
M  V30 1 F 6.28466 3.74013 0.666142 0
M  V30 2 C 5.47372 2.79069 0.127721 0
M  V30 3 C 4.14192 3.09832 -0.0453723 0
M  V30 4 C 3.33063 2.14493 -0.585375 0
M  V30 5 C 3.79172 0.907257 -0.956345 0
M  V30 6 C 5.1157 0.595183 -0.786651 0
M  V30 7 C 5.94977 1.54635 -0.242527 0
M  V30 8 C 2.85161 -0.0726364 -1.54367 0
M  V30 9 N 2.08402 -0.660059 -0.515802 0
M  V30 10 C 2.74741 -1.38156 0.503131 0
M  V30 11 C 1.85934 -1.27139 1.74762 0
M  V30 12 C 0.45443 -1.64888 1.50802 0
M  V30 13 C -0.0665166 -1.49565 0.130498 0
M  V30 14 C 0.93189 -1.39517 -0.95463 0
M  V30 15 C -1.02168 -2.64102 -0.21356 0
M  V30 16 C -2.26964 -2.19497 0.530077 0
M  V30 17 N -2.32117 -0.782152 0.188236 0
M  V30 18 C -0.969793 -0.281312 0.082413 0
M  V30 19 C -3.50191 -0.0522672 -0.0013043 0
M  V30 20 C -3.44166 1.30521 -0.328363 0
M  V30 21 C -4.60489 2.01799 -0.513572 0
M  V30 22 N -4.58828 3.40546 -0.84833 0
M  V30 23 N -5.76254 1.38505 -0.373819 0
M  V30 24 C -5.86728 0.0699826 -0.0575009 0
M  V30 25 N -4.7175 -0.60641 0.118771 0
M  V30 26 N -7.14253 -0.531732 0.0733808 0
M  V30 27 H 3.74244 4.08366 0.24291 0
M  V30 28 H 2.26736 2.37761 -0.728494 0
M  V30 29 H 5.52028 -0.352838 -1.05963 0
M  V30 30 H 6.99317 1.31459 -0.103379 0
M  V30 31 H 2.14058 0.519851 -2.18939 0
M  V30 32 H 3.3776 -0.834439 -2.16304 0
M  V30 33 H 3.74521 -1.03839 0.784572 0
M  V30 34 H 2.78071 -2.48741 0.282122 0
M  V30 35 H 1.99606 -0.226708 2.10886 0
M  V30 36 H 2.35861 -1.91493 2.52895 0
M  V30 37 H 0.319523 -2.71627 1.8141 0
M  V30 38 H -0.192317 -1.07229 2.2334 0
M  V30 39 H 0.515153 -0.881646 -1.8484 0
M  V30 40 H 1.28454 -2.39322 -1.29992 0
M  V30 41 H -1.24906 -2.60948 -1.28444 0
M  V30 42 H -0.632193 -3.60312 0.139096 0
M  V30 43 H -2.08467 -2.25187 1.61754 0
M  V30 44 H -3.15488 -2.74738 0.201976 0
M  V30 45 H -0.752091 0.445341 0.887313 0
M  V30 46 H -0.830155 0.278958 -0.88214 0
M  V30 47 H -2.48228 1.80101 -0.437238 0
M  V30 48 H -5.42111 3.97777 -0.663734 0
M  V30 49 H -3.76048 3.87605 -1.27782 0
M  V30 50 H -7.79107 -0.303596 0.842846 0
M  V30 51 H -7.43233 -1.2326 -0.639235 0
M  V30 END ATOM
M  V30 BEGIN BOND
M  V30 1 1 1 2
M  V30 2 2 2 3
M  V30 3 1 3 4
M  V30 4 2 4 5
M  V30 5 1 5 6
M  V30 6 2 6 7
M  V30 7 1 5 8
M  V30 8 1 8 9
M  V30 9 1 9 10
M  V30 10 1 10 11
M  V30 11 1 11 12
M  V30 12 1 12 13
M  V30 13 1 13 14
M  V30 14 1 13 15
M  V30 15 1 15 16
M  V30 16 1 16 17
M  V30 17 1 17 18
M  V30 18 1 17 19
M  V30 19 2 19 20
M  V30 20 1 20 21
M  V30 21 1 21 22
M  V30 22 2 21 23
M  V30 23 1 23 24
M  V30 24 2 24 25
M  V30 25 1 24 26
M  V30 26 1 7 2
M  V30 27 1 14 9
M  V30 28 1 25 19
M  V30 29 1 18 13
M  V30 30 1 3 27
M  V30 31 1 4 28
M  V30 32 1 6 29
M  V30 33 1 7 30
M  V30 34 1 8 31
M  V30 35 1 8 32
M  V30 36 1 10 33
M  V30 37 1 10 34
M  V30 38 1 11 35
M  V30 39 1 11 36
M  V30 40 1 12 37
M  V30 41 1 12 38
M  V30 42 1 14 39
M  V30 43 1 14 40
M  V30 44 1 15 41
M  V30 45 1 15 42
M  V30 46 1 16 43
M  V30 47 1 16 44
M  V30 48 1 18 45
M  V30 49 1 18 46
M  V30 50 1 20 47
M  V30 51 1 22 48
M  V30 52 1 22 49
M  V30 53 1 26 50
M  V30 54 1 26 51
M  V30 END BOND
M  V30 END CTAB
M  END
