
     RDKit          3D

  0  0  0  0  0  0  0  0  0  0999 V3000
M  V30 BEGIN CTAB
M  V30 COUNTS 26 26 0 0 0
M  V30 BEGIN ATOM
M  V30 1 C 2.65984 0.624202 -0.64409 0
M  V30 2 C 1.22036 0.414249 -0.986231 0
M  V30 3 C 0.452575 0.200696 0.295464 0
M  V30 4 C 1.06309 -1.03373 0.946775 0
M  V30 5 O 0.599451 -2.0992 0.183571 0
M  V30 6 C -0.601474 -1.739 -0.374255 0
M  V30 7 C -0.923419 -0.334564 0.0850479 0
M  V30 8 N -1.55343 -0.466598 1.38761 0
M  V30 9 C -1.78792 0.423791 -0.842696 0
M  V30 10 N -2.04549 1.77628 -0.484868 0
M  V30 11 H 3.23858 -0.302366 -0.822724 0
M  V30 12 H 3.14072 1.43565 -1.23548 0
M  V30 13 H 2.77205 0.886137 0.427593 0
M  V30 14 H 1.14112 -0.454819 -1.67216 0
M  V30 15 H 0.875353 1.29324 -1.56048 0
M  V30 16 H 0.478696 1.06918 0.946151 0
M  V30 17 H 0.683361 -1.18856 1.97759 0
M  V30 18 H 2.1723 -0.996185 0.950117 0
M  V30 19 H -0.559421 -1.70454 -1.50147 0
M  V30 20 H -1.43262 -2.43434 -0.138976 0
M  V30 21 H -1.37013 0.430695 1.89586 0
M  V30 22 H -2.57224 -0.66242 1.32507 0
M  V30 23 H -2.76276 -0.102844 -0.917478 0
M  V30 24 H -1.34985 0.403366 -1.86336 0
M  V30 25 H -2.17998 2.35068 -1.36031 0
M  V30 26 H -1.35877 2.211 0.142407 0
M  V30 END ATOM
M  V30 BEGIN BOND
M  V30 1 1 1 2
M  V30 2 1 2 3
M  V30 3 1 3 4
M  V30 4 1 4 5
M  V30 5 1 5 6
M  V30 6 1 6 7
M  V30 7 1 7 8
M  V30 8 1 7 9
M  V30 9 1 9 10
M  V30 10 1 7 3
M  V30 11 1 1 11
M  V30 12 1 1 12
M  V30 13 1 1 13
M  V30 14 1 2 14
M  V30 15 1 2 15
M  V30 16 1 3 16
M  V30 17 1 4 17
M  V30 18 1 4 18
M  V30 19 1 6 19
M  V30 20 1 6 20
M  V30 21 1 8 21
M  V30 22 1 8 22
M  V30 23 1 9 23
M  V30 24 1 9 24
M  V30 25 1 10 25
M  V30 26 1 10 26
M  V30 END BOND
M  V30 END CTAB
M  END
