
     RDKit          3D

  0  0  0  0  0  0  0  0  0  0999 V3000
M  V30 BEGIN CTAB
M  V30 COUNTS 18 17 0 0 0
M  V30 BEGIN ATOM
M  V30 1 C -2.05731 0.406915 -0.63317 0
M  V30 2 C -0.663524 0.920385 -0.566495 0
M  V30 3 C 0.324165 -0.132396 -0.0629172 0
M  V30 4 N -0.0111571 -0.588062 1.25606 0
M  V30 5 N 0.352964 -1.23999 -1.00181 0
M  V30 6 C 1.66694 0.516847 -0.107367 0
M  V30 7 O 2.48886 0.665652 0.973098 0
M  V30 8 O 2.04586 0.947908 -1.22425 0
M  V30 9 H -2.24265 -0.0847964 -1.61631 0
M  V30 10 H -2.27644 -0.273037 0.214205 0
M  V30 11 H -2.77977 1.25601 -0.577801 0
M  V30 12 H -0.609451 1.82922 0.0608803 0
M  V30 13 H -0.316098 1.21638 -1.57601 0
M  V30 14 H 0.849218 -1.07727 1.6361 0
M  V30 15 H -0.781935 -1.28945 1.17078 0
M  V30 16 H -0.555978 -1.72363 -1.05841 0
M  V30 17 H 1.07037 -1.9199 -0.634324 0
M  V30 18 H 3.49595 0.569205 0.817307 0
M  V30 END ATOM
M  V30 BEGIN BOND
M  V30 1 1 1 2
M  V30 2 1 2 3
M  V30 3 1 3 4
M  V30 4 1 3 5
M  V30 5 1 3 6
M  V30 6 1 6 7
M  V30 7 2 6 8
M  V30 8 1 1 9
M  V30 9 1 1 10
M  V30 10 1 1 11
M  V30 11 1 2 12
M  V30 12 1 2 13
M  V30 13 1 4 14
M  V30 14 1 4 15
M  V30 15 1 5 16
M  V30 16 1 5 17
M  V30 17 1 7 18
M  V30 END BOND
M  V30 END CTAB
M  END
