
     RDKit          3D

  0  0  0  0  0  0  0  0  0  0999 V3000
M  V30 BEGIN CTAB
M  V30 COUNTS 36 37 0 0 0
M  V30 BEGIN ATOM
M  V30 1 O -0.156757 0.1824 3.23887 0
M  V30 2 C -0.0395954 0.170745 2.00659 0
M  V30 3 N 1.37903 0.416311 1.60896 0
M  V30 4 C 1.72697 0.386674 0.256745 0
M  V30 5 O 0.871793 0.276128 -0.603309 0
M  V30 6 C 3.15978 0.488589 -0.059267 0
M  V30 7 C 3.62748 0.903999 -1.2795 0
M  V30 8 C 4.96856 0.938677 -1.58489 0
M  V30 9 C 5.89536 0.550997 -0.649852 0
M  V30 10 C 5.44385 0.133859 0.577403 0
M  V30 11 C 4.10991 0.0992625 0.879464 0
M  V30 12 N 7.29824 0.549424 -0.940105 0
M  V30 13 N -0.913099 -0.0135807 0.950136 0
M  V30 14 C -2.32387 -0.126832 1.90727 0
M  V30 15 O -2.15019 0.00634871 3.03047 0
M  V30 16 C -3.45324 -0.364525 1.10598 0
M  V30 17 C -4.43555 -1.28981 1.39727 0
M  V30 18 C -5.55192 -1.49613 0.594362 0
M  V30 19 C -5.71139 -0.755432 -0.554247 0
M  V30 20 C -4.73981 0.192316 -0.879661 0
M  V30 21 C -3.65878 0.362056 -0.0638502 0
M  V30 22 N -6.7995 -0.925174 -1.42936 0
M  V30 23 H 2.07948 0.563861 2.36837 0
M  V30 24 H 2.88178 1.22241 -2.02238 0
M  V30 25 H 5.28174 1.25559 -2.56113 0
M  V30 26 H 6.20864 -0.158901 1.29653 0
M  V30 27 H 3.77939 -0.251185 1.85465 0
M  V30 28 H 7.773 -0.37803 -0.941468 0
M  V30 29 H 7.79094 1.44041 -1.13115 0
M  V30 30 H -1.50631 -0.138758 0.232765 0
M  V30 31 H -4.32927 -1.89431 2.29833 0
M  V30 32 H -6.30961 -2.23889 0.887871 0
M  V30 33 H -4.88132 0.764342 -1.79675 0
M  V30 34 H -2.93061 1.10521 -0.345415 0
M  V30 35 H -7.22874 -1.86696 -1.52623 0
M  V30 36 H -7.15636 -0.111081 -1.98536 0
M  V30 END ATOM
M  V30 BEGIN BOND
M  V30 1 2 1 2
M  V30 2 1 2 3
M  V30 3 1 3 4
M  V30 4 2 4 5
M  V30 5 1 4 6
M  V30 6 2 6 7
M  V30 7 1 7 8
M  V30 8 2 8 9
M  V30 9 1 9 10
M  V30 10 2 10 11
M  V30 11 1 9 12
M  V30 12 1 2 13
M  V30 13 1 13 14
M  V30 14 2 14 15
M  V30 15 1 14 16
M  V30 16 2 16 17
M  V30 17 1 17 18
M  V30 18 2 18 19
M  V30 19 1 19 20
M  V30 20 2 20 21
M  V30 21 1 19 22
M  V30 22 1 11 6
M  V30 23 1 21 16
M  V30 24 1 3 23
M  V30 25 1 7 24
M  V30 26 1 8 25
M  V30 27 1 10 26
M  V30 28 1 11 27
M  V30 29 1 12 28
M  V30 30 1 12 29
M  V30 31 1 13 30
M  V30 32 1 17 31
M  V30 33 1 18 32
M  V30 34 1 20 33
M  V30 35 1 21 34
M  V30 36 1 22 35
M  V30 37 1 22 36
M  V30 END BOND
M  V30 END CTAB
M  END
