
     RDKit          3D

  0  0  0  0  0  0  0  0  0  0999 V3000
M  V30 BEGIN CTAB
M  V30 COUNTS 33 33 0 0 0
M  V30 BEGIN ATOM
M  V30 1 C 3.23529 -0.398215 1.12809 0
M  V30 2 C 2.72959 -0.309488 -0.2766 0
M  V30 3 C 1.25463 -0.350165 -0.43985 0
M  V30 4 C 0.468671 0.789025 0.0971504 0
M  V30 5 C -0.977364 0.516331 -0.177933 0
M  V30 6 C -1.49999 -0.725704 -0.14181 0
M  V30 7 C -2.87349 -0.91195 -0.304172 0
M  V30 8 C -3.47158 -2.26364 -0.277507 0
M  V30 9 C -3.69129 0.196465 -0.502311 0
M  V30 10 N -3.14472 1.41888 -0.534699 0
M  V30 11 C -1.79739 1.62039 -0.379243 0
M  V30 12 N -1.22605 2.8995 -0.461973 0
M  V30 13 C 0.683842 1.14347 1.53511 0
M  V30 14 N 3.31657 -1.35891 -1.10468 0
M  V30 15 H 4.22388 -0.988287 1.1488 0
M  V30 16 H 2.58586 -1.06671 1.77358 0
M  V30 17 H 3.47405 0.547744 1.60299 0
M  V30 18 H 3.05365 0.702196 -0.716289 0
M  V30 19 H 1.01483 -0.382759 -1.55178 0
M  V30 20 H 0.860519 -1.34762 -0.0876003 0
M  V30 21 H 0.835941 1.70808 -0.480148 0
M  V30 22 H -0.919379 -1.59629 0.0037893 0
M  V30 23 H -2.91497 -2.90393 0.445232 0
M  V30 24 H -4.52166 -2.2435 0.054935 0
M  V30 25 H -3.47201 -2.76871 -1.28471 0
M  V30 26 H -4.78216 0.0504336 -0.634214 0
M  V30 27 H -1.25749 3.38691 -1.41123 0
M  V30 28 H -0.758548 3.41102 0.296685 0
M  V30 29 H 1.53496 1.82881 1.7006 0
M  V30 30 H -0.212792 1.74818 1.84186 0
M  V30 31 H 0.787469 0.273699 2.20932 0
M  V30 32 H 4.34512 -1.46706 -0.945385 0
M  V30 33 H 3.116 -1.15818 -2.12601 0
M  V30 END ATOM
M  V30 BEGIN BOND
M  V30 1 1 1 2
M  V30 2 1 2 3
M  V30 3 1 3 4
M  V30 4 1 4 5
M  V30 5 2 5 6
M  V30 6 1 6 7
M  V30 7 1 7 8
M  V30 8 2 7 9
M  V30 9 1 9 10
M  V30 10 2 10 11
M  V30 11 1 11 12
M  V30 12 1 4 13
M  V30 13 1 2 14
M  V30 14 1 11 5
M  V30 15 1 1 15
M  V30 16 1 1 16
M  V30 17 1 1 17
M  V30 18 1 2 18
M  V30 19 1 3 19
M  V30 20 1 3 20
M  V30 21 1 4 21
M  V30 22 1 6 22
M  V30 23 1 8 23
M  V30 24 1 8 24
M  V30 25 1 8 25
M  V30 26 1 9 26
M  V30 27 1 12 27
M  V30 28 1 12 28
M  V30 29 1 13 29
M  V30 30 1 13 30
M  V30 31 1 13 31
M  V30 32 1 14 32
M  V30 33 1 14 33
M  V30 END BOND
M  V30 END CTAB
M  END
