
     RDKit          3D

  0  0  0  0  0  0  0  0  0  0999 V3000
M  V30 BEGIN CTAB
M  V30 COUNTS 20 20 0 0 0
M  V30 BEGIN ATOM
M  V30 1 N -1.62245 2.18869 0.230555 0
M  V30 2 N -1.15423 1.20775 -0.644375 0
M  V30 3 C -0.842773 -0.101372 -0.200553 0
M  V30 4 C -1.85673 -1.05904 -0.0820041 0
M  V30 5 Br -3.63919 -0.564753 -0.535809 0
M  V30 6 C -1.49928 -2.31114 0.358238 0
M  V30 7 N -0.212994 -2.57759 0.657408 0
M  V30 8 C 0.777659 -1.65609 0.545741 0
M  V30 9 C 0.468852 -0.385853 0.107533 0
M  V30 10 S 1.71357 0.803855 -0.0651325 0
M  V30 11 O 1.87254 1.05606 -1.56655 0
M  V30 12 O 1.42642 2.10696 0.564747 0
M  V30 13 N 3.24675 0.122939 0.430766 0
M  V30 14 H -2.28582 1.79121 0.938391 0
M  V30 15 H -2.14529 2.89208 -0.341231 0
M  V30 16 H -1.03653 1.45717 -1.64104 0
M  V30 17 H -2.28508 -3.0466 0.448441 0
M  V30 18 H 1.80523 -1.90304 0.796573 0
M  V30 19 H 3.97598 0.78232 0.0743555 0
M  V30 20 H 3.29337 -0.803589 -0.0760609 0
M  V30 END ATOM
M  V30 BEGIN BOND
M  V30 1 1 1 2
M  V30 2 1 2 3
M  V30 3 2 3 4
M  V30 4 1 4 5
M  V30 5 1 4 6
M  V30 6 2 6 7
M  V30 7 1 7 8
M  V30 8 2 8 9
M  V30 9 1 9 10
M  V30 10 2 10 11
M  V30 11 2 10 12
M  V30 12 1 10 13
M  V30 13 1 9 3
M  V30 14 1 1 14
M  V30 15 1 1 15
M  V30 16 1 2 16
M  V30 17 1 6 17
M  V30 18 1 8 18
M  V30 19 1 13 19
M  V30 20 1 13 20
M  V30 END BOND
M  V30 END CTAB
M  END
