
     RDKit          3D

  0  0  0  0  0  0  0  0  0  0999 V3000
M  V30 BEGIN CTAB
M  V30 COUNTS 35 37 0 0 0
M  V30 BEGIN ATOM
M  V30 1 C 0.335751 -1.24576 -0.614985 0
M  V30 2 N 1.14273 -0.038564 -0.274071 0
M  V30 3 C 0.245274 1.15231 -0.168974 0
M  V30 4 C -0.837357 0.580952 0.653503 0
M  V30 5 C -0.612657 -0.0592432 1.84757 0
M  V30 6 O -1.81129 -0.488736 2.28657 0
M  V30 7 C -2.76837 -0.152402 1.43753 0
M  V30 8 N -4.08548 -0.335321 1.34972 0
M  V30 9 C -4.80967 0.112518 0.291438 0
M  V30 10 N -6.20689 -0.238433 0.103072 0
M  V30 11 N -4.25566 0.788865 -0.715945 0
M  V30 12 C -2.89346 1.00348 -0.642897 0
M  V30 13 N -2.27474 1.75154 -1.64971 0
M  V30 14 C -2.16943 0.534658 0.415413 0
M  V30 15 C 2.51014 -0.14783 -0.149849 0
M  V30 16 C 3.40917 0.865071 0.0455414 0
M  V30 17 C 4.74954 0.617457 0.083862 0
M  V30 18 Cl 5.86111 1.9792 0.326081 0
M  V30 19 C 5.29375 -0.638639 -0.0678382 0
M  V30 20 Cl 7.01898 -0.981291 -0.0222605 0
M  V30 21 C 4.39462 -1.67906 -0.261328 0
M  V30 22 Cl 4.9809 -3.36169 -0.488947 0
M  V30 23 C 3.05688 -1.4431 -0.29945 0
M  V30 24 H -0.718021 -1.08066 -0.669517 0
M  V30 25 H 0.74452 -1.54679 -1.63125 0
M  V30 26 H 0.58677 -2.00659 0.125844 0
M  V30 27 H 0.781207 1.91213 0.49624 0
M  V30 28 H 0.118761 1.52033 -1.11931 0
M  V30 29 H 0.280285 -0.255349 2.44289 0
M  V30 30 H -6.9537 -0.091246 0.766727 0
M  V30 31 H -6.41754 -0.706776 -0.845998 0
M  V30 32 H -2.02655 2.76675 -1.47335 0
M  V30 33 H -2.06219 1.33632 -2.56306 0
M  V30 34 H 3.03107 1.85188 0.154328 0
M  V30 35 H 2.36154 -2.276 -0.455919 0
M  V30 END ATOM
M  V30 BEGIN BOND
M  V30 1 1 1 2
M  V30 2 1 2 3
M  V30 3 1 3 4
M  V30 4 2 4 5
M  V30 5 1 5 6
M  V30 6 1 6 7
M  V30 7 2 7 8
M  V30 8 1 8 9
M  V30 9 1 9 10
M  V30 10 2 9 11
M  V30 11 1 11 12
M  V30 12 1 12 13
M  V30 13 2 12 14
M  V30 14 1 2 15
M  V30 15 2 15 16
M  V30 16 1 16 17
M  V30 17 1 17 18
M  V30 18 2 17 19
M  V30 19 1 19 20
M  V30 20 1 19 21
M  V30 21 1 21 22
M  V30 22 2 21 23
M  V30 23 1 14 4
M  V30 24 1 23 15
M  V30 25 1 14 7
M  V30 26 1 1 24
M  V30 27 1 1 25
M  V30 28 1 1 26
M  V30 29 1 3 27
M  V30 30 1 3 28
M  V30 31 1 5 29
M  V30 32 1 10 30
M  V30 33 1 10 31
M  V30 34 1 13 32
M  V30 35 1 13 33
M  V30 36 1 16 34
M  V30 37 1 23 35
M  V30 END BOND
M  V30 END CTAB
M  END
