
     RDKit          3D

  0  0  0  0  0  0  0  0  0  0999 V3000
M  V30 BEGIN CTAB
M  V30 COUNTS 44 45 0 0 0
M  V30 BEGIN ATOM
M  V30 1 N 5.59366 0.714488 1.10321 0
M  V30 2 C 5.3784 -0.635366 0.774833 0
M  V30 3 C 4.03971 -0.791589 0.0378368 0
M  V30 4 C 4.06962 0.0206606 -1.21186 0
M  V30 5 C 2.79458 -0.0974915 -1.96542 0 CFG=2
M  V30 6 C 1.66381 0.397793 -1.14797 0
M  V30 7 O 1.5766 1.07862 -0.0587351 0
M  V30 8 N 0.332389 1.28444 0.299135 0
M  V30 9 C -0.466872 0.709343 -0.600467 0
M  V30 10 N 0.362941 0.156853 -1.50219 0
M  V30 11 N -1.88804 0.659754 -0.646398 0
M  V30 12 C -2.57009 -0.0272032 -1.72616 0
M  V30 13 C -3.63395 -0.897748 -1.09316 0
M  V30 14 C -4.67183 0.0127562 -0.493751 0
M  V30 15 C -4.12851 1.3228 -0.0278154 0
M  V30 16 C -2.68857 1.28298 0.366195 0
M  V30 17 C -2.56259 0.633551 1.69101 0
M  V30 18 O -1.84483 -0.353195 1.9349 0
M  V30 19 O -3.30373 1.1712 2.73461 0
M  V30 20 C -3.24024 0.609672 4.03279 0
M  V30 21 N 2.47608 -1.42094 -2.37794 0
M  V30 22 H 5.97106 1.29886 0.398939 0
M  V30 23 H 5.20713 1.06281 1.94672 0
M  V30 24 H 6.15095 -0.980766 0.0739736 0
M  V30 25 H 5.28709 -1.26103 1.68204 0
M  V30 26 H 3.94246 -1.86121 -0.269971 0
M  V30 27 H 3.20155 -0.521087 0.669163 0
M  V30 28 H 4.27994 1.08125 -0.901856 0
M  V30 29 H 4.9195 -0.323972 -1.84775 0
M  V30 30 H 2.88288 0.537763 -2.8865 0
M  V30 31 H -3.04134 0.670139 -2.43573 0
M  V30 32 H -1.85367 -0.699299 -2.28184 0
M  V30 33 H -4.0778 -1.57901 -1.86408 0
M  V30 34 H -3.18038 -1.5693 -0.334224 0
M  V30 35 H -5.40986 0.235649 -1.31928 0
M  V30 36 H -5.27399 -0.509632 0.28497 0
M  V30 37 H -4.71194 1.66872 0.847865 0
M  V30 38 H -4.23975 2.10242 -0.833992 0
M  V30 39 H -2.34657 2.33573 0.493434 0
M  V30 40 H -3.85302 1.29233 4.68539 0
M  V30 41 H -2.23088 0.545511 4.43905 0
M  V30 42 H -3.79797 -0.36967 4.07343 0
M  V30 43 H 1.67721 -1.86568 -1.95567 0
M  V30 44 H 3.20885 -1.9761 -2.78674 0
M  V30 END ATOM
M  V30 BEGIN BOND
M  V30 1 1 1 2
M  V30 2 1 2 3
M  V30 3 1 3 4
M  V30 4 1 4 5
M  V30 5 1 5 6
M  V30 6 1 6 7
M  V30 7 1 7 8
M  V30 8 2 8 9
M  V30 9 1 9 10
M  V30 10 1 9 11
M  V30 11 1 11 12
M  V30 12 1 12 13
M  V30 13 1 13 14
M  V30 14 1 14 15
M  V30 15 1 15 16
M  V30 16 1 16 17
M  V30 17 2 17 18
M  V30 18 1 17 19
M  V30 19 1 19 20
M  V30 20 1 5 21
M  V30 21 2 10 6
M  V30 22 1 16 11
M  V30 23 1 1 22
M  V30 24 1 1 23
M  V30 25 1 2 24
M  V30 26 1 2 25
M  V30 27 1 3 26
M  V30 28 1 3 27
M  V30 29 1 4 28
M  V30 30 1 4 29
M  V30 31 1 5 30 CFG=3
M  V30 32 1 12 31
M  V30 33 1 12 32
M  V30 34 1 13 33
M  V30 35 1 13 34
M  V30 36 1 14 35
M  V30 37 1 14 36
M  V30 38 1 15 37
M  V30 39 1 15 38
M  V30 40 1 16 39
M  V30 41 1 20 40
M  V30 42 1 20 41
M  V30 43 1 20 42
M  V30 44 1 21 43
M  V30 45 1 21 44
M  V30 END BOND
M  V30 END CTAB
M  END
