
     RDKit          3D

  0  0  0  0  0  0  0  0  0  0999 V3000
M  V30 BEGIN CTAB
M  V30 COUNTS 30 30 0 0 0
M  V30 BEGIN ATOM
M  V30 1 N -4.01409 -1.23619 1.04969 0
M  V30 2 C -2.63069 -0.969506 0.788096 0
M  V30 3 C -2.37699 -0.0893425 -0.38646 0
M  V30 4 C -0.879647 0.0686314 -0.492874 0
M  V30 5 N -0.166376 0.536778 0.544186 0
M  V30 6 C 1.165 0.712019 0.541214 0
M  V30 7 N 1.8545 1.22459 1.69836 0
M  V30 8 C 1.84318 0.386762 -0.609751 0
M  V30 9 C 1.13498 -0.0950228 -1.68658 0
M  V30 10 O 1.7689 -0.387889 -2.73292 0
M  V30 11 N -0.211359 -0.251437 -1.62735 0
M  V30 12 C 3.31894 0.578997 -0.617134 0
M  V30 13 C 4.0502 -0.496595 0.128038 0
M  V30 14 C -2.95662 1.29511 -0.217294 0
M  V30 15 H -4.67762 -0.849581 0.374382 0
M  V30 16 H -4.24168 -0.82813 1.9906 0
M  V30 17 H -2.10922 -1.93516 0.622151 0
M  V30 18 H -2.11513 -0.485477 1.66378 0
M  V30 19 H -2.78973 -0.499555 -1.3246 0
M  V30 20 H 2.5159 0.688407 2.2644 0
M  V30 21 H 1.66207 2.22327 1.97664 0
M  V30 22 H -0.763329 -0.616764 -2.43996 0
M  V30 23 H 3.65479 0.586252 -1.66305 0
M  V30 24 H 3.49315 1.58339 -0.135727 0
M  V30 25 H 4.6952 -0.0214341 0.893887 0
M  V30 26 H 4.7415 -1.04131 -0.560039 0
M  V30 27 H 3.3251 -1.18159 0.617476 0
M  V30 28 H -2.30044 1.85604 0.4715 0
M  V30 29 H -2.98649 1.75511 -1.23959 0
M  V30 30 H -4.00401 1.23573 0.108923 0
M  V30 END ATOM
M  V30 BEGIN BOND
M  V30 1 1 1 2
M  V30 2 1 2 3
M  V30 3 1 3 4
M  V30 4 2 4 5
M  V30 5 1 5 6
M  V30 6 1 6 7
M  V30 7 2 6 8
M  V30 8 1 8 9
M  V30 9 2 9 10
M  V30 10 1 9 11
M  V30 11 1 8 12
M  V30 12 1 12 13
M  V30 13 1 3 14
M  V30 14 1 11 4
M  V30 15 1 1 15
M  V30 16 1 1 16
M  V30 17 1 2 17
M  V30 18 1 2 18
M  V30 19 1 3 19
M  V30 20 1 7 20
M  V30 21 1 7 21
M  V30 22 1 11 22
M  V30 23 1 12 23
M  V30 24 1 12 24
M  V30 25 1 13 25
M  V30 26 1 13 26
M  V30 27 1 13 27
M  V30 28 1 14 28
M  V30 29 1 14 29
M  V30 30 1 14 30
M  V30 END BOND
M  V30 END CTAB
M  END
