
     RDKit          3D

  0  0  0  0  0  0  0  0  0  0999 V3000
M  V30 BEGIN CTAB
M  V30 COUNTS 29 29 0 0 0
M  V30 BEGIN ATOM
M  V30 1 N 3.19007 1.57037 0.797507 0
M  V30 2 C 3.47322 0.563509 -0.215728 0
M  V30 3 C 2.54472 -0.602231 -0.109273 0
M  V30 4 N 1.16308 -0.263147 -0.26814 0
M  V30 5 C 0.176358 -1.27427 -0.189868 0
M  V30 6 O 0.534568 -2.45432 0.0183765 0
M  V30 7 C -1.26409 -0.955565 -0.350141 0
M  V30 8 N -2.02831 -2.11955 -0.231354 0
M  V30 9 C -1.66588 0.0243187 0.739688 0
M  V30 10 C -2.75322 0.870571 0.0726734 0
M  V30 11 C -2.15501 1.09582 -1.29177 0
M  V30 12 C -1.45118 -0.182938 -1.6311 0
M  V30 13 H 3.89089 1.47228 1.57173 0
M  V30 14 H 3.23866 2.50571 0.372525 0
M  V30 15 H 3.37174 1.00852 -1.22624 0
M  V30 16 H 4.50406 0.208994 -0.0967183 0
M  V30 17 H 2.82158 -1.32911 -0.902291 0
M  V30 18 H 2.7354 -1.08169 0.891115 0
M  V30 19 H 0.933346 0.749695 -0.440891 0
M  V30 20 H -2.59778 -2.41696 -1.03098 0
M  V30 21 H -2.38327 -2.37363 0.699659 0
M  V30 22 H -2.03027 -0.478117 1.64117 0
M  V30 23 H -0.808229 0.717499 0.929343 0
M  V30 24 H -3.71518 0.336266 0.0251006 0
M  V30 25 H -2.84821 1.86214 0.599757 0
M  V30 26 H -2.93359 1.2835 -2.06292 0
M  V30 27 H -1.45041 1.95424 -1.19501 0
M  V30 28 H -2.0411 -0.774261 -2.33834 0
M  V30 29 H -0.451957 0.0823336 -2.07686 0
M  V30 END ATOM
M  V30 BEGIN BOND
M  V30 1 1 1 2
M  V30 2 1 2 3
M  V30 3 1 3 4
M  V30 4 1 4 5
M  V30 5 2 5 6
M  V30 6 1 5 7
M  V30 7 1 7 8
M  V30 8 1 7 9
M  V30 9 1 9 10
M  V30 10 1 10 11
M  V30 11 1 11 12
M  V30 12 1 12 7
M  V30 13 1 1 13
M  V30 14 1 1 14
M  V30 15 1 2 15
M  V30 16 1 2 16
M  V30 17 1 3 17
M  V30 18 1 3 18
M  V30 19 1 4 19
M  V30 20 1 8 20
M  V30 21 1 8 21
M  V30 22 1 9 22
M  V30 23 1 9 23
M  V30 24 1 10 24
M  V30 25 1 10 25
M  V30 26 1 11 26
M  V30 27 1 11 27
M  V30 28 1 12 28
M  V30 29 1 12 29
M  V30 END BOND
M  V30 END CTAB
M  END
