
     RDKit          3D

  0  0  0  0  0  0  0  0  0  0999 V3000
M  V30 BEGIN CTAB
M  V30 COUNTS 17 17 0 0 0
M  V30 BEGIN ATOM
M  V30 1 N 3.16528 -0.272991 -0.234954 0
M  V30 2 N 1.98724 -0.9217 0.0585735 0
M  V30 3 C 0.704245 -0.315449 0.00345539 0
M  V30 4 C 0.62308 1.00946 -0.367427 0
M  V30 5 C -0.654036 1.56554 -0.408783 0
M  V30 6 O -0.722123 2.77013 -0.746508 0
M  V30 7 N -1.7182 0.815498 -0.0967409 0
M  V30 8 C -1.62111 -0.474334 0.262658 0
M  V30 9 N -2.7504 -1.2715 0.594153 0
M  V30 10 N -0.396567 -1.01087 0.303265 0
M  V30 11 H 3.76841 -0.0535114 0.566612 0
M  V30 12 H 3.12073 0.422478 -0.983018 0
M  V30 13 H 2.05959 -1.93823 0.34213 0
M  V30 14 H 1.49663 1.60142 -0.616787 0
M  V30 15 H -2.6699 1.23584 -0.12927 0
M  V30 16 H -2.80315 -2.29619 0.386197 0
M  V30 17 H -3.58971 -0.865587 1.06644 0
M  V30 END ATOM
M  V30 BEGIN BOND
M  V30 1 1 1 2
M  V30 2 1 2 3
M  V30 3 2 3 4
M  V30 4 1 4 5
M  V30 5 2 5 6
M  V30 6 1 5 7
M  V30 7 1 7 8
M  V30 8 1 8 9
M  V30 9 2 8 10
M  V30 10 1 10 3
M  V30 11 1 1 11
M  V30 12 1 1 12
M  V30 13 1 2 13
M  V30 14 1 4 14
M  V30 15 1 7 15
M  V30 16 1 9 16
M  V30 17 1 9 17
M  V30 END BOND
M  V30 END CTAB
M  END
