
     RDKit          3D

  0  0  0  0  0  0  0  0  0  0999 V3000
M  V30 BEGIN CTAB
M  V30 COUNTS 53 57 0 0 0
M  V30 BEGIN ATOM
M  V30 1 N -9.43646 1.52203 0.819388 0
M  V30 2 C -8.66802 0.34917 0.541376 0
M  V30 3 C -7.87245 0.3076 -0.590091 0
M  V30 4 C -7.13881 -0.827878 -0.844179 0
M  V30 5 O -6.32892 -0.910386 -1.9671 0
M  V30 6 C -4.99934 -0.493086 -1.88496 0
M  V30 7 C -3.98404 -1.35759 -1.53128 0
M  V30 8 C -2.67346 -0.858431 -1.47192 0
M  V30 9 C -2.39891 0.450553 -1.75567 0
M  V30 10 C -3.42072 1.29219 -2.10463 0
M  V30 11 C -4.74504 0.827345 -2.17434 0
M  V30 12 C -1.04824 0.955574 -1.69221 0
M  V30 13 N -0.621168 2.22808 -1.94582 0
M  V30 14 N 0.687992 2.2932 -1.77994 0
M  V30 15 C 1.10814 1.06821 -1.42029 0
M  V30 16 O 0.0532712 0.305452 -1.37927 0
M  V30 17 C 2.50764 0.6868 -1.13204 0
M  V30 18 C 3.50762 1.63027 -1.22526 0
M  V30 19 C 4.80985 1.26527 -0.954531 0
M  V30 20 C 5.10251 -0.0334295 -0.59432 0
M  V30 21 O 6.39613 -0.443308 -0.313748 0
M  V30 22 C 6.96811 -0.403654 0.936086 0
M  V30 23 C 8.27165 -0.849069 1.05413 0
M  V30 24 C 8.95927 -0.862309 2.24624 0
M  V30 25 N 10.2975 -1.33536 2.28707 0
M  V30 26 C 8.28747 -0.400833 3.36728 0
M  V30 27 C 6.99429 0.045902 3.27494 0
M  V30 28 C 6.33032 0.0484699 2.07176 0
M  V30 29 C 4.1128 -0.997075 -0.494708 0
M  V30 30 C 2.82743 -0.59841 -0.771377 0
M  V30 31 C -7.2038 -1.90071 0.0225031 0
M  V30 32 C -7.99535 -1.86435 1.15185 0
M  V30 33 C -8.73192 -0.727028 1.40888 0
M  V30 34 H -9.7353 1.76304 1.77892 0
M  V30 35 H -9.70994 2.16429 0.028356 0
M  V30 36 H -7.84313 1.15656 -1.24364 0
M  V30 37 H -4.22963 -2.36711 -1.31714 0
M  V30 38 H -1.91674 -1.5761 -1.19027 0
M  V30 39 H -3.27565 2.3403 -2.34222 0
M  V30 40 H -5.52728 1.51511 -2.45218 0
M  V30 41 H 3.23199 2.64045 -1.51212 0
M  V30 42 H 5.61754 2.00939 -1.02541 0
M  V30 43 H 8.80026 -1.21386 0.163518 0
M  V30 44 H 11.0197 -0.737707 1.822 0
M  V30 45 H 10.5814 -2.2284 2.74846 0
M  V30 46 H 8.85233 -0.41962 4.30624 0
M  V30 47 H 6.48134 0.404254 4.16144 0
M  V30 48 H 5.30513 0.393576 1.95246 0
M  V30 49 H 4.3429 -2.02692 -0.209337 0
M  V30 50 H 2.04125 -1.32617 -0.701529 0
M  V30 51 H -6.60136 -2.77753 -0.226141 0
M  V30 52 H -8.02819 -2.71702 1.81321 0
M  V30 53 H -9.36197 -0.675482 2.29155 0
M  V30 END ATOM
M  V30 BEGIN BOND
M  V30 1 1 1 2
M  V30 2 2 2 3
M  V30 3 1 3 4
M  V30 4 1 4 5
M  V30 5 1 5 6
M  V30 6 2 6 7
M  V30 7 1 7 8
M  V30 8 2 8 9
M  V30 9 1 9 10
M  V30 10 2 10 11
M  V30 11 1 9 12
M  V30 12 2 12 13
M  V30 13 1 13 14
M  V30 14 2 14 15
M  V30 15 1 15 16
M  V30 16 1 15 17
M  V30 17 2 17 18
M  V30 18 1 18 19
M  V30 19 2 19 20
M  V30 20 1 20 21
M  V30 21 1 21 22
M  V30 22 2 22 23
M  V30 23 1 23 24
M  V30 24 1 24 25
M  V30 25 2 24 26
M  V30 26 1 26 27
M  V30 27 2 27 28
M  V30 28 1 20 29
M  V30 29 2 29 30
M  V30 30 2 4 31
M  V30 31 1 31 32
M  V30 32 2 32 33
M  V30 33 1 33 2
M  V30 34 1 11 6
M  V30 35 1 16 12
M  V30 36 1 30 17
M  V30 37 1 28 22
M  V30 38 1 1 34
M  V30 39 1 1 35
M  V30 40 1 3 36
M  V30 41 1 7 37
M  V30 42 1 8 38
M  V30 43 1 10 39
M  V30 44 1 11 40
M  V30 45 1 18 41
M  V30 46 1 19 42
M  V30 47 1 23 43
M  V30 48 1 25 44
M  V30 49 1 25 45
M  V30 50 1 26 46
M  V30 51 1 27 47
M  V30 52 1 28 48
M  V30 53 1 29 49
M  V30 54 1 30 50
M  V30 55 1 31 51
M  V30 56 1 32 52
M  V30 57 1 33 53
M  V30 END BOND
M  V30 END CTAB
M  END
