
     RDKit          3D

  0  0  0  0  0  0  0  0  0  0999 V3000
M  V30 BEGIN CTAB
M  V30 COUNTS 45 46 0 0 0
M  V30 BEGIN ATOM
M  V30 1 C 3.99853 -3.82366 -0.672871 0
M  V30 2 C 4.33171 -2.39686 -0.715609 0
M  V30 3 C 3.4783 -1.42123 -0.982876 0
M  V30 4 C 2.02873 -1.71747 -1.27816 0
M  V30 5 N 1.23921 -1.04459 -0.306438 0
M  V30 6 C 0.968856 0.358261 -0.281936 0
M  V30 7 C 1.53434 1.17 -1.24181 0
M  V30 8 C 1.37531 2.53155 -1.24926 0
M  V30 9 C 0.63476 3.10712 -0.27366 0
M  V30 10 C 0.0338003 2.34758 0.730032 0
M  V30 11 C 0.208359 0.970044 0.703354 0
M  V30 12 S -0.584551 -0.0509391 1.89407 0
M  V30 13 C -2.11493 -0.798555 1.32392 0
M  V30 14 C -3.32759 -0.199942 1.24194 0
M  V30 15 C -4.48268 -0.868579 0.828204 0
M  V30 16 C -4.43876 -2.19832 0.476631 0
M  V30 17 N -5.59532 -2.9039 0.0520125 0
M  V30 18 C -3.20818 -2.81385 0.557772 0
M  V30 19 C -2.07485 -2.1554 0.964608 0
M  V30 20 S -0.695097 3.22127 2.04124 0
M  V30 21 N -0.81705 4.89928 1.62565 0
M  V30 22 O 0.398296 3.19931 3.15087 0
M  V30 23 O -1.88 2.68313 2.66705 0
M  V30 24 C 1.99633 3.31515 -2.2911 0
M  V30 25 O 1.81693 4.69807 -2.2707 0
M  V30 26 O 2.68604 2.75791 -3.19898 0
M  V30 27 H 3.75556 -4.20984 -1.68584 0
M  V30 28 H 4.83346 -4.45535 -0.293392 0
M  V30 29 H 3.07878 -4.01943 -0.0503992 0
M  V30 30 H 5.36772 -2.12636 -0.50965 0
M  V30 31 H 3.83763 -0.409373 -0.980358 0
M  V30 32 H 1.8954 -2.81002 -1.16917 0
M  V30 33 H 1.78369 -1.41061 -2.32273 0
M  V30 34 H 0.842715 -1.59607 0.477138 0
M  V30 35 H 2.11033 0.684285 -2.02177 0
M  V30 36 H 0.500819 4.17235 -0.264764 0
M  V30 37 H -3.41585 0.828208 1.49716 0
M  V30 38 H -5.43605 -0.337575 0.779739 0
M  V30 39 H -6.55419 -2.65909 0.432136 0
M  V30 40 H -5.58556 -3.68599 -0.639233 0
M  V30 41 H -3.16067 -3.86653 0.28272 0
M  V30 42 H -1.11246 -2.6647 1.03122 0
M  V30 43 H -1.60936 5.07206 0.967011 0
M  V30 44 H -0.978357 5.4023 2.54774 0
M  V30 45 H 2.33592 5.22634 -1.57153 0
M  V30 END ATOM
M  V30 BEGIN BOND
M  V30 1 1 1 2
M  V30 2 2 2 3 CFG=2
M  V30 3 1 3 4
M  V30 4 1 4 5
M  V30 5 1 5 6
M  V30 6 2 6 7
M  V30 7 1 7 8
M  V30 8 2 8 9
M  V30 9 1 9 10
M  V30 10 2 10 11
M  V30 11 1 11 12
M  V30 12 1 12 13
M  V30 13 2 13 14
M  V30 14 1 14 15
M  V30 15 2 15 16
M  V30 16 1 16 17
M  V30 17 1 16 18
M  V30 18 2 18 19
M  V30 19 1 10 20
M  V30 20 1 20 21
M  V30 21 2 20 22
M  V30 22 2 20 23
M  V30 23 1 8 24
M  V30 24 1 24 25
M  V30 25 2 24 26
M  V30 26 1 11 6
M  V30 27 1 19 13
M  V30 28 1 1 27
M  V30 29 1 1 28
M  V30 30 1 1 29
M  V30 31 1 2 30
M  V30 32 1 3 31
M  V30 33 1 4 32
M  V30 34 1 4 33
M  V30 35 1 5 34
M  V30 36 1 7 35
M  V30 37 1 9 36
M  V30 38 1 14 37
M  V30 39 1 15 38
M  V30 40 1 17 39
M  V30 41 1 17 40
M  V30 42 1 18 41
M  V30 43 1 19 42
M  V30 44 1 21 43
M  V30 45 1 21 44
M  V30 46 1 25 45
M  V30 END BOND
M  V30 END CTAB
M  END
