
     RDKit          3D

  0  0  0  0  0  0  0  0  0  0999 V3000
M  V30 BEGIN CTAB
M  V30 COUNTS 20 20 0 0 0
M  V30 BEGIN ATOM
M  V30 1 N 4.25332 0.158713 0.504274 0
M  V30 2 C 2.82078 -0.0268048 0.569304 0
M  V30 3 N 2.12402 -0.800566 1.3929 0
M  V30 4 N 0.857767 -0.835243 1.30592 0
M  V30 5 C 0.239424 -0.0948309 0.386598 0
M  V30 6 S 1.56492 0.671164 -0.364321 0
M  V30 7 C -1.22673 0.00697871 0.124508 0
M  V30 8 N -1.907 -0.708779 1.18952 0
M  V30 9 C -1.70539 1.41104 -0.0163976 0
M  V30 10 C -1.48161 -0.738412 -1.1934 0
M  V30 11 H 4.72493 0.237928 -0.421894 0
M  V30 12 H 4.74409 0.204263 1.40463 0
M  V30 13 H -1.84384 -1.76124 1.04392 0
M  V30 14 H -2.91101 -0.411057 1.16554 0
M  V30 15 H -2.1287 1.61607 -1.04828 0
M  V30 16 H -0.8753 2.10399 0.121659 0
M  V30 17 H -2.58253 1.64726 0.654838 0
M  V30 18 H -2.5605 -0.981914 -1.27869 0
M  V30 19 H -1.22351 -0.0445239 -2.02733 0
M  V30 20 H -0.883103 -1.65403 -1.26066 0
M  V30 END ATOM
M  V30 BEGIN BOND
M  V30 1 1 1 2
M  V30 2 2 2 3
M  V30 3 1 3 4
M  V30 4 2 4 5
M  V30 5 1 5 6
M  V30 6 1 5 7
M  V30 7 1 7 8
M  V30 8 1 7 9
M  V30 9 1 7 10
M  V30 10 1 6 2
M  V30 11 1 1 11
M  V30 12 1 1 12
M  V30 13 1 8 13
M  V30 14 1 8 14
M  V30 15 1 9 15
M  V30 16 1 9 16
M  V30 17 1 9 17
M  V30 18 1 10 18
M  V30 19 1 10 19
M  V30 20 1 10 20
M  V30 END BOND
M  V30 END CTAB
M  END
