
     RDKit          3D

  0  0  0  0  0  0  0  0  0  0999 V3000
M  V30 BEGIN CTAB
M  V30 COUNTS 43 45 0 0 0
M  V30 BEGIN ATOM
M  V30 1 N -4.81672 2.99052 -1.60235 0
M  V30 2 C -4.85112 1.82928 -0.758354 0
M  V30 3 C -3.6515 1.66084 0.157628 0
M  V30 4 C -3.79435 0.156731 -0.088187 0
M  V30 5 C -4.39093 0.542052 -1.44781 0
M  V30 6 C -2.53615 -0.581009 -0.169987 0
M  V30 7 C -1.46469 -0.195446 -0.938521 0
M  V30 8 C -0.271372 -0.933599 -0.989609 0
M  V30 9 N 0.763346 -0.457668 -1.81389 0
M  V30 10 C 2.03138 -1.14002 -1.91872 0
M  V30 11 C 2.80668 -1.16812 -0.639362 0
M  V30 12 O 3.10285 0.142218 -0.168489 0
M  V30 13 C 3.80266 0.386187 0.982769 0
M  V30 14 C 4.27304 -0.661115 1.77298 0
M  V30 15 C 4.97993 -0.426212 2.93604 0
M  V30 16 C 5.20264 0.891351 3.28563 0
M  V30 17 C 4.73932 1.90761 2.50748 0
M  V30 18 C 4.03697 1.69295 1.35164 0
M  V30 19 Cl 3.43847 2.98875 0.346677 0
M  V30 20 N -0.178611 -2.05583 -0.259536 0
M  V30 21 C -1.22688 -2.42772 0.488684 0
M  V30 22 N -2.38974 -1.71143 0.540553 0
M  V30 23 N -1.10079 -3.62508 1.25488 0
M  V30 24 H -4.8635 2.73445 -2.62474 0
M  V30 25 H -5.69628 3.53285 -1.41829 0
M  V30 26 H -5.78838 1.656 -0.197537 0
M  V30 27 H -2.72816 2.04279 -0.340288 0
M  V30 28 H -3.79858 1.97452 1.19186 0
M  V30 29 H -4.57333 -0.250497 0.558794 0
M  V30 30 H -5.19607 -0.114661 -1.78598 0
M  V30 31 H -3.59539 0.787862 -2.16745 0
M  V30 32 H -1.57979 0.714973 -1.5121 0
M  V30 33 H 0.619702 0.419201 -2.374 0
M  V30 34 H 1.84936 -2.19922 -2.26031 0
M  V30 35 H 2.67312 -0.659667 -2.68575 0
M  V30 36 H 3.81793 -1.64438 -0.82011 0
M  V30 37 H 2.31994 -1.78395 0.113915 0
M  V30 38 H 4.09168 -1.70251 1.48785 0
M  V30 39 H 5.34383 -1.24495 3.54748 0
M  V30 40 H 5.75816 1.09381 4.19939 0
M  V30 41 H 4.91579 2.94902 2.78453 0
M  V30 42 H -0.297794 -3.70282 1.89604 0
M  V30 43 H -1.77666 -4.40803 1.19163 0
M  V30 END ATOM
M  V30 BEGIN BOND
M  V30 1 1 1 2
M  V30 2 1 2 3
M  V30 3 1 3 4
M  V30 4 1 4 5
M  V30 5 1 4 6
M  V30 6 2 6 7
M  V30 7 1 7 8
M  V30 8 1 8 9
M  V30 9 1 9 10
M  V30 10 1 10 11
M  V30 11 1 11 12
M  V30 12 1 12 13
M  V30 13 2 13 14
M  V30 14 1 14 15
M  V30 15 2 15 16
M  V30 16 1 16 17
M  V30 17 2 17 18
M  V30 18 1 18 19
M  V30 19 2 8 20
M  V30 20 1 20 21
M  V30 21 2 21 22
M  V30 22 1 21 23
M  V30 23 1 5 2
M  V30 24 1 22 6
M  V30 25 1 18 13
M  V30 26 1 1 24
M  V30 27 1 1 25
M  V30 28 1 2 26
M  V30 29 1 3 27
M  V30 30 1 3 28
M  V30 31 1 4 29
M  V30 32 1 5 30
M  V30 33 1 5 31
M  V30 34 1 7 32
M  V30 35 1 9 33
M  V30 36 1 10 34
M  V30 37 1 10 35
M  V30 38 1 11 36
M  V30 39 1 11 37
M  V30 40 1 14 38
M  V30 41 1 15 39
M  V30 42 1 16 40
M  V30 43 1 17 41
M  V30 44 1 23 42
M  V30 45 1 23 43
M  V30 END BOND
M  V30 END CTAB
M  END
