
     RDKit          3D

  0  0  0  0  0  0  0  0  0  0999 V3000
M  V30 BEGIN CTAB
M  V30 COUNTS 26 27 0 0 0
M  V30 BEGIN ATOM
M  V30 1 N -1.91952 -0.697544 1.49377 0
M  V30 2 C -2.37 -0.248005 0.208544 0
M  V30 3 C -2.50082 1.2362 0.0856183 0
M  V30 4 O -2.36408 1.54534 -1.23903 0
M  V30 5 C -1.71241 0.543643 -1.89065 0
M  V30 6 C -1.37771 -0.542439 -0.902369 0
M  V30 7 C 0.0329329 -0.368096 -0.433109 0
M  V30 8 N 1.03913 -1.26072 -0.420204 0
M  V30 9 N 2.13985 -0.686868 0.0844268 0
M  V30 10 C 1.8464 0.584951 0.400701 0
M  V30 11 N 0.544637 0.76624 0.0759839 0
M  V30 12 N 2.72155 1.5555 0.964652 0
M  V30 13 C 3.44433 -1.29898 0.273634 0
M  V30 14 H -2.6806 -1.29381 1.93412 0
M  V30 15 H -1.10519 -1.37492 1.39772 0
M  V30 16 H -3.33491 -0.700835 -0.0984834 0
M  V30 17 H -3.50826 1.60719 0.412646 0
M  V30 18 H -1.75019 1.77913 0.729381 0
M  V30 19 H -0.749275 0.950875 -2.28785 0
M  V30 20 H -2.26132 0.136047 -2.76923 0
M  V30 21 H -1.56584 -1.54882 -1.27675 0
M  V30 22 H 2.49374 2.00053 1.88825 0
M  V30 23 H 3.60122 1.84692 0.481873 0
M  V30 24 H 4.19778 -0.896633 -0.44654 0
M  V30 25 H 3.78754 -1.24919 1.31954 0
M  V30 26 H 3.351 -2.38571 0.0133504 0
M  V30 END ATOM
M  V30 BEGIN BOND
M  V30 1 1 1 2
M  V30 2 1 2 3
M  V30 3 1 3 4
M  V30 4 1 4 5
M  V30 5 1 5 6
M  V30 6 1 6 7
M  V30 7 2 7 8
M  V30 8 1 8 9
M  V30 9 1 9 10
M  V30 10 2 10 11
M  V30 11 1 10 12
M  V30 12 1 9 13
M  V30 13 1 6 2
M  V30 14 1 11 7
M  V30 15 1 1 14
M  V30 16 1 1 15
M  V30 17 1 2 16
M  V30 18 1 3 17
M  V30 19 1 3 18
M  V30 20 1 5 19
M  V30 21 1 5 20
M  V30 22 1 6 21
M  V30 23 1 12 22
M  V30 24 1 12 23
M  V30 25 1 13 24
M  V30 26 1 13 25
M  V30 27 1 13 26
M  V30 END BOND
M  V30 END CTAB
M  END
