
     RDKit          3D

  0  0  0  0  0  0  0  0  0  0999 V3000
M  V30 BEGIN CTAB
M  V30 COUNTS 30 30 0 0 0
M  V30 BEGIN ATOM
M  V30 1 N 3.33573 -0.864542 -0.658422 0
M  V30 2 C 2.78751 0.23858 0.111683 0
M  V30 3 C 1.43473 -0.0530021 0.635326 0
M  V30 4 N 1.40527 -1.18702 1.50356 0
M  V30 5 C 0.924011 1.2048 1.34203 0
M  V30 6 C -0.562682 0.913976 1.40253 0
M  V30 7 N -0.814952 -0.0117145 0.355904 0
M  V30 8 C 0.369619 -0.217907 -0.423466 0
M  V30 9 C -2.01024 0.270491 -0.350524 0
M  V30 10 C -3.19413 0.133376 0.605123 0
M  V30 11 C -2.27665 -0.587138 -1.54533 0
M  V30 12 H 4.03245 -0.454495 -1.31838 0
M  V30 13 H 3.86298 -1.54085 -0.0618649 0
M  V30 14 H 2.86903 1.17214 -0.445179 0
M  V30 15 H 3.46234 0.336811 1.00215 0
M  V30 16 H 2.09679 -1.91192 1.21647 0
M  V30 17 H 0.480158 -1.66807 1.55428 0
M  V30 18 H 1.15461 2.05267 0.657847 0
M  V30 19 H 1.37835 1.34901 2.32008 0
M  V30 20 H -1.10952 1.85211 1.20406 0
M  V30 21 H -0.864356 0.564095 2.40174 0
M  V30 22 H 0.350835 -1.26436 -0.795735 0
M  V30 23 H 0.419849 0.515766 -1.23289 0
M  V30 24 H -2.01863 1.33868 -0.707988 0
M  V30 25 H -3.6624 1.11722 0.815041 0
M  V30 26 H -3.94074 -0.606944 0.239581 0
M  V30 27 H -2.83558 -0.252861 1.59245 0
M  V30 28 H -1.70831 -0.245165 -2.45125 0
M  V30 29 H -1.99566 -1.65463 -1.38618 0
M  V30 30 H -3.3704 -0.539123 -1.77074 0
M  V30 END ATOM
M  V30 BEGIN BOND
M  V30 1 1 1 2
M  V30 2 1 2 3
M  V30 3 1 3 4
M  V30 4 1 3 5
M  V30 5 1 5 6
M  V30 6 1 6 7
M  V30 7 1 7 8
M  V30 8 1 7 9
M  V30 9 1 9 10
M  V30 10 1 9 11
M  V30 11 1 8 3
M  V30 12 1 1 12
M  V30 13 1 1 13
M  V30 14 1 2 14
M  V30 15 1 2 15
M  V30 16 1 4 16
M  V30 17 1 4 17
M  V30 18 1 5 18
M  V30 19 1 5 19
M  V30 20 1 6 20
M  V30 21 1 6 21
M  V30 22 1 8 22
M  V30 23 1 8 23
M  V30 24 1 9 24
M  V30 25 1 10 25
M  V30 26 1 10 26
M  V30 27 1 10 27
M  V30 28 1 11 28
M  V30 29 1 11 29
M  V30 30 1 11 30
M  V30 END BOND
M  V30 END CTAB
M  END
