
     RDKit          3D

  0  0  0  0  0  0  0  0  0  0999 V3000
M  V30 BEGIN CTAB
M  V30 COUNTS 18 18 0 0 0
M  V30 BEGIN ATOM
M  V30 1 N -2.35097 0.579023 0.0337868 0
M  V30 2 C -1.23608 -0.280223 -0.0315883 0
M  V30 3 C -1.39442 -1.66646 -0.148979 0
M  V30 4 N -0.286692 -2.42816 -0.206195 0
M  V30 5 C 0.96078 -1.91637 -0.155609 0
M  V30 6 C 1.11223 -0.550558 -0.0399751 0
M  V30 7 C 0.0271019 0.275633 0.0227981 0
M  V30 8 C 0.199517 1.73321 0.146278 0
M  V30 9 F 1.53491 2.0706 0.182677 0
M  V30 10 F -0.322545 2.32509 -0.990216 0
M  V30 11 F -0.372886 2.24151 1.29366 0
M  V30 12 N 2.40964 0.00999011 0.0150501 0
M  V30 13 H -2.97835 0.727146 -0.773552 0
M  V30 14 H -2.55007 1.07866 0.916774 0
M  V30 15 H -2.39952 -2.05368 -0.187648 0
M  V30 16 H 1.8302 -2.58855 -0.206751 0
M  V30 17 H 2.86427 0.131458 0.949163 0
M  V30 18 H 2.95287 0.311687 -0.819673 0
M  V30 END ATOM
M  V30 BEGIN BOND
M  V30 1 1 1 2
M  V30 2 2 2 3
M  V30 3 1 3 4
M  V30 4 2 4 5
M  V30 5 1 5 6
M  V30 6 2 6 7
M  V30 7 1 7 8
M  V30 8 1 8 9
M  V30 9 1 8 10
M  V30 10 1 8 11
M  V30 11 1 6 12
M  V30 12 1 7 2
M  V30 13 1 1 13
M  V30 14 1 1 14
M  V30 15 1 3 15
M  V30 16 1 5 16
M  V30 17 1 12 17
M  V30 18 1 12 18
M  V30 END BOND
M  V30 END CTAB
M  END
