
     RDKit          3D

  0  0  0  0  0  0  0  0  0  0999 V3000
M  V30 BEGIN CTAB
M  V30 COUNTS 19 19 0 0 0
M  V30 BEGIN ATOM
M  V30 1 N -3.57609 -0.362222 -0.267719 0
M  V30 2 N -2.22238 -0.712711 -0.441471 0
M  V30 3 C -1.20139 0.166059 0.0200162 0
M  V30 4 O -1.52747 1.24451 0.577123 0
M  V30 5 C 0.210411 -0.161266 -0.141386 0
M  V30 6 C 1.16555 0.729294 0.325809 0
M  V30 7 N 0.780799 1.94084 0.951512 0
M  V30 8 C 2.50556 0.438937 0.183175 0
M  V30 9 C 2.87099 -0.752874 -0.432412 0
M  V30 10 N 1.91829 -1.57867 -0.866026 0
M  V30 11 C 0.607004 -1.33548 -0.747668 0
M  V30 12 H -3.6228 0.326823 0.486078 0
M  V30 13 H -4.14241 -1.22952 -0.082048 0
M  V30 14 H -2.06254 -1.61463 -0.908056 0
M  V30 15 H 0.815925 2.87709 0.50663 0
M  V30 16 H 0.435829 1.88351 1.93611 0
M  V30 17 H 3.21192 1.15308 0.557468 0
M  V30 18 H 3.93657 -0.95234 -0.529546 0
M  V30 19 H -0.103772 -2.06042 -1.12759 0
M  V30 END ATOM
M  V30 BEGIN BOND
M  V30 1 1 1 2
M  V30 2 1 2 3
M  V30 3 2 3 4
M  V30 4 1 3 5
M  V30 5 2 5 6
M  V30 6 1 6 7
M  V30 7 1 6 8
M  V30 8 2 8 9
M  V30 9 1 9 10
M  V30 10 2 10 11
M  V30 11 1 11 5
M  V30 12 1 1 12
M  V30 13 1 1 13
M  V30 14 1 2 14
M  V30 15 1 7 15
M  V30 16 1 7 16
M  V30 17 1 8 17
M  V30 18 1 9 18
M  V30 19 1 11 19
M  V30 END BOND
M  V30 END CTAB
M  END
