
     RDKit          3D

  0  0  0  0  0  0  0  0  0  0999 V3000
M  V30 BEGIN CTAB
M  V30 COUNTS 23 22 0 0 0
M  V30 BEGIN ATOM
M  V30 1 N 3.30716 0.381109 -0.741869 0
M  V30 2 C 2.36444 0.416671 0.370307 0
M  V30 3 C 1.04029 -0.0640169 -0.194617 0
M  V30 4 C -0.0424783 -0.079312 0.857767 0
M  V30 5 C -1.30976 -0.58114 0.149375 0
M  V30 6 N -1.08746 -1.88075 -0.372028 0
M  V30 7 C -1.64074 0.314543 -0.961008 0
M  V30 8 C -1.93424 1.05328 -1.87665 0
M  V30 9 C -2.40095 -0.492042 1.13227 0
M  V30 10 O -2.68341 0.746775 1.69155 0
M  V30 11 O -3.09911 -1.45776 1.50469 0
M  V30 12 H 2.92393 1.06596 -1.45277 0
M  V30 13 H 4.18939 0.8466 -0.373085 0
M  V30 14 H 2.73204 -0.236348 1.17307 0
M  V30 15 H 2.25944 1.48192 0.703244 0
M  V30 16 H 1.22279 -1.04139 -0.646553 0
M  V30 17 H 0.724929 0.631891 -0.993769 0
M  V30 18 H 0.231538 -0.767591 1.67835 0
M  V30 19 H -0.16965 0.928397 1.26139 0
M  V30 20 H -1.1652 -1.98995 -1.38744 0
M  V30 21 H -0.446827 -2.48767 0.119797 0
M  V30 22 H -2.20073 1.68934 -2.69009 0
M  V30 23 H -2.81537 1.52149 1.04808 0
M  V30 END ATOM
M  V30 BEGIN BOND
M  V30 1 1 1 2
M  V30 2 1 2 3
M  V30 3 1 3 4
M  V30 4 1 4 5
M  V30 5 1 5 6
M  V30 6 1 5 7
M  V30 7 3 7 8
M  V30 8 1 5 9
M  V30 9 1 9 10
M  V30 10 2 9 11
M  V30 11 1 1 12
M  V30 12 1 1 13
M  V30 13 1 2 14
M  V30 14 1 2 15
M  V30 15 1 3 16
M  V30 16 1 3 17
M  V30 17 1 4 18
M  V30 18 1 4 19
M  V30 19 1 6 20
M  V30 20 1 6 21
M  V30 21 1 8 22
M  V30 22 1 10 23
M  V30 END BOND
M  V30 END CTAB
M  END
