
     RDKit          3D

  0  0  0  0  0  0  0  0  0  0999 V3000
M  V30 BEGIN CTAB
M  V30 COUNTS 26 26 0 0 0
M  V30 BEGIN ATOM
M  V30 1 N 3.57324 1.49906 0.539197 0
M  V30 2 C 3.48733 0.172335 -0.0667979 0
M  V30 3 C 2.11348 -0.365978 0.280964 0
M  V30 4 S 0.890463 0.744728 -0.394266 0
M  V30 5 C -0.77649 0.250992 -0.0710584 0
M  V30 6 C -1.792 1.04672 -0.55328 0
M  V30 7 C -3.12427 0.776333 -0.37191 0
M  V30 8 N -4.15846 1.60146 -0.872111 0
M  V30 9 C -3.44223 -0.377986 0.346313 0
M  V30 10 C -2.46635 -1.21452 0.854215 0
M  V30 11 C -1.13679 -0.873754 0.629292 0
M  V30 12 F -2.78686 -2.33997 1.55458 0
M  V30 13 C 2.0127 -1.74652 -0.318379 0
M  V30 14 H 4.46666 1.98384 0.233619 0
M  V30 15 H 2.7586 2.09292 0.212771 0
M  V30 16 H 4.30348 -0.42398 0.353483 0
M  V30 17 H 3.53855 0.25477 -1.16698 0
M  V30 18 H 2.08702 -0.41875 1.40586 0
M  V30 19 H -1.55568 1.95766 -1.11991 0
M  V30 20 H -4.45357 2.42485 -0.320799 0
M  V30 21 H -4.60721 1.37764 -1.77597 0
M  V30 22 H -4.48127 -0.619104 0.506494 0
M  V30 23 H -0.367685 -1.50426 1.01178 0
M  V30 24 H 2.96539 -2.08204 -0.774373 0
M  V30 25 H 1.20648 -1.71814 -1.08434 0
M  V30 26 H 1.74548 -2.49831 0.455486 0
M  V30 END ATOM
M  V30 BEGIN BOND
M  V30 1 1 1 2
M  V30 2 1 2 3
M  V30 3 1 3 4
M  V30 4 1 4 5
M  V30 5 2 5 6
M  V30 6 1 6 7
M  V30 7 1 7 8
M  V30 8 2 7 9
M  V30 9 1 9 10
M  V30 10 2 10 11
M  V30 11 1 10 12
M  V30 12 1 3 13
M  V30 13 1 11 5
M  V30 14 1 1 14
M  V30 15 1 1 15
M  V30 16 1 2 16
M  V30 17 1 2 17
M  V30 18 1 3 18
M  V30 19 1 6 19
M  V30 20 1 8 20
M  V30 21 1 8 21
M  V30 22 1 9 22
M  V30 23 1 11 23
M  V30 24 1 13 24
M  V30 25 1 13 25
M  V30 26 1 13 26
M  V30 END BOND
M  V30 END CTAB
M  END
