
     RDKit          3D

  0  0  0  0  0  0  0  0  0  0999 V3000
M  V30 BEGIN CTAB
M  V30 COUNTS 56 59 0 0 0
M  V30 BEGIN ATOM
M  V30 1 C -8.11268 2.06411 2.0873 0
M  V30 2 O -6.78243 2.32033 1.67648 0
M  V30 3 C -6.01481 1.24523 1.23409 0
M  V30 4 N -6.50352 -0.00773908 1.19071 0
M  V30 5 C -5.7324 -1.02338 0.756895 0
M  V30 6 N -6.24835 -2.34083 0.712887 0
M  V30 7 C -4.44332 -0.763041 0.360179 0
M  V30 8 C -3.91146 0.507211 0.391585 0
M  V30 9 C -4.72382 1.54214 0.84294 0
M  V30 10 C -2.61692 0.796254 -0.00347405 0
M  V30 11 C -2.14055 2.14705 0.0432821 0
M  V30 12 N -1.77806 3.2406 0.0688755 0
M  V30 13 C -1.83322 -0.237307 -0.445293 0
M  V30 14 N -2.35942 -1.49434 -0.47671 0
M  V30 15 C -3.60938 -1.77246 -0.0953271 0
M  V30 16 N -4.13967 -3.08977 -0.135458 0
M  V30 17 N -0.491947 -0.0448966 -0.850558 0
M  V30 18 C 0.525397 0.296635 0.100712 0
M  V30 19 C 1.8293 0.415572 -0.686569 0
M  V30 20 N 2.07052 -0.746784 -1.49443 0
M  V30 21 C 1.00952 -1.13262 -2.36055 0
M  V30 22 C -0.148567 -0.192205 -2.2421 0
M  V30 23 C 3.35182 -0.564085 -2.15524 0
M  V30 24 C 4.39547 -0.626143 -1.10599 0
M  V30 25 C 5.17584 0.399607 -0.913241 0
M  V30 26 C 6.20034 0.392738 0.0871142 0
M  V30 27 C 6.46664 -0.656043 0.923835 0
M  V30 28 C 7.46927 -0.611325 1.87974 0
M  V30 29 C 8.2385 0.510953 2.01555 0
M  V30 30 C 7.98507 1.57121 1.1851 0
M  V30 31 C 6.99284 1.53158 0.23661 0
M  V30 32 H -8.73863 2.91963 1.768 0
M  V30 33 H -8.50521 1.13943 1.63058 0
M  V30 34 H -8.13864 2.02519 3.19648 0
M  V30 35 H -6.13174 -2.93275 1.56514 0
M  V30 36 H -6.73282 -2.72763 -0.129061 0
M  V30 37 H -4.30453 2.52158 0.864493 0
M  V30 38 H -4.6195 -3.45217 -0.975033 0
M  V30 39 H -4.03829 -3.69364 0.695807 0
M  V30 40 H 0.385472 1.24077 0.613896 0
M  V30 41 H 0.709121 -0.536213 0.832039 0
M  V30 42 H 1.87206 1.37001 -1.25229 0
M  V30 43 H 2.68053 0.467911 0.050822 0
M  V30 44 H 0.641976 -2.14674 -2.03187 0
M  V30 45 H 1.35123 -1.21451 -3.41511 0
M  V30 46 H 0.0525459 0.794965 -2.72881 0
M  V30 47 H -1.00798 -0.617818 -2.83431 0
M  V30 48 H 3.52407 -1.37092 -2.89938 0
M  V30 49 H 3.39582 0.405954 -2.70882 0
M  V30 50 H 4.48907 -1.51246 -0.52556 0
M  V30 51 H 5.05647 1.307 -1.52934 0
M  V30 52 H 5.87132 -1.57217 0.845445 0
M  V30 53 H 7.64448 -1.4534 2.51475 0
M  V30 54 H 9.02641 0.543179 2.76905 0
M  V30 55 H 8.56477 2.47154 1.2587 0
M  V30 56 H 6.83199 2.41054 -0.40457 0
M  V30 END ATOM
M  V30 BEGIN BOND
M  V30 1 1 1 2
M  V30 2 1 2 3
M  V30 3 2 3 4
M  V30 4 1 4 5
M  V30 5 1 5 6
M  V30 6 2 5 7
M  V30 7 1 7 8
M  V30 8 2 8 9
M  V30 9 1 8 10
M  V30 10 1 10 11
M  V30 11 3 11 12
M  V30 12 2 10 13
M  V30 13 1 13 14
M  V30 14 2 14 15
M  V30 15 1 15 16
M  V30 16 1 13 17
M  V30 17 1 17 18
M  V30 18 1 18 19
M  V30 19 1 19 20
M  V30 20 1 20 21
M  V30 21 1 21 22
M  V30 22 1 20 23
M  V30 23 1 23 24
M  V30 24 2 24 25 CFG=2
M  V30 25 1 25 26
M  V30 26 2 26 27
M  V30 27 1 27 28
M  V30 28 2 28 29
M  V30 29 1 29 30
M  V30 30 2 30 31
M  V30 31 1 9 3
M  V30 32 1 22 17
M  V30 33 1 31 26
M  V30 34 1 15 7
M  V30 35 1 1 32
M  V30 36 1 1 33
M  V30 37 1 1 34
M  V30 38 1 6 35
M  V30 39 1 6 36
M  V30 40 1 9 37
M  V30 41 1 16 38
M  V30 42 1 16 39
M  V30 43 1 18 40
M  V30 44 1 18 41
M  V30 45 1 19 42
M  V30 46 1 19 43
M  V30 47 1 21 44
M  V30 48 1 21 45
M  V30 49 1 22 46
M  V30 50 1 22 47
M  V30 51 1 23 48
M  V30 52 1 23 49
M  V30 53 1 24 50
M  V30 54 1 25 51
M  V30 55 1 27 52
M  V30 56 1 28 53
M  V30 57 1 29 54
M  V30 58 1 30 55
M  V30 59 1 31 56
M  V30 END BOND
M  V30 END CTAB
M  END
