
     RDKit          3D

  0  0  0  0  0  0  0  0  0  0999 V3000
M  V30 BEGIN CTAB
M  V30 COUNTS 47 47 0 0 0
M  V30 BEGIN ATOM
M  V30 1 C -4.57096 -0.384376 -0.402985 0
M  V30 2 C -3.30367 -0.117152 -1.06154 0
M  V30 3 C -2.03784 0.0299568 -0.240665 0
M  V30 4 C -0.911338 0.287211 -1.24022 0
M  V30 5 O -1.33179 0.541133 -2.46477 0
M  V30 6 N 0.446515 0.305282 -1.10189 0
M  V30 7 C 1.21466 0.629726 -2.34892 0
M  V30 8 C 2.26336 -0.455222 -2.4554 0
M  V30 9 C 3.36641 -0.0363871 -1.49147 0
M  V30 10 C 2.73099 0.624395 -0.293065 0
M  V30 11 C 1.33255 0.0628195 -0.00985169 0
M  V30 12 C 3.5895 0.299101 0.906717 0
M  V30 13 N 3.64861 -1.12574 1.09352 0
M  V30 14 C 3.21371 1.05689 2.13436 0
M  V30 15 C -2.02974 1.2481 0.638932 0
M  V30 16 N -3.05541 1.35883 1.61218 0
M  V30 17 C -1.70339 -1.19285 0.5087 0
M  V30 18 C -2.67578 -1.73588 1.48462 0
M  V30 19 H -4.72149 -1.49357 -0.203447 0
M  V30 20 H -5.41712 -0.201937 -1.16145 0
M  V30 21 H -4.88823 0.197584 0.454137 0
M  V30 22 H -3.11404 -0.940755 -1.81438 0
M  V30 23 H -3.44027 0.786221 -1.72594 0
M  V30 24 H 0.575276 0.633519 -3.22917 0
M  V30 25 H 1.69521 1.6019 -2.14413 0
M  V30 26 H 1.84423 -1.40071 -2.05311 0
M  V30 27 H 2.66509 -0.557636 -3.48251 0
M  V30 28 H 4.02401 0.7088 -1.96468 0
M  V30 29 H 3.9476 -0.947179 -1.21328 0
M  V30 30 H 2.64078 1.70271 -0.359618 0
M  V30 31 H 1.433 -1.05659 0.177011 0
M  V30 32 H 1.03278 0.51241 0.920218 0
M  V30 33 H 4.63542 0.622205 0.62706 0
M  V30 34 H 3.22597 -1.4558 1.96799 0
M  V30 35 H 4.57098 -1.53397 0.872396 0
M  V30 36 H 4.01421 1.78626 2.4553 0
M  V30 37 H 2.29139 1.63711 2.06577 0
M  V30 38 H 3.17524 0.313982 2.98337 0
M  V30 39 H -1.89704 2.18889 0.0348873 0
M  V30 40 H -1.06991 1.20962 1.22789 0
M  V30 41 H -3.76251 2.08011 1.46396 0
M  V30 42 H -2.75211 1.21731 2.59715 0
M  V30 43 H -0.724048 -1.04766 1.06434 0
M  V30 44 H -1.44442 -2.04763 -0.193251 0
M  V30 45 H -3.46263 -1.11051 1.86157 0
M  V30 46 H -2.11171 -2.10847 2.40025 0
M  V30 47 H -3.15204 -2.69206 1.10341 0
M  V30 END ATOM
M  V30 BEGIN BOND
M  V30 1 1 1 2
M  V30 2 1 2 3
M  V30 3 1 3 4
M  V30 4 2 4 5
M  V30 5 1 4 6
M  V30 6 1 6 7
M  V30 7 1 7 8
M  V30 8 1 8 9
M  V30 9 1 9 10
M  V30 10 1 10 11
M  V30 11 1 10 12
M  V30 12 1 12 13
M  V30 13 1 12 14
M  V30 14 1 3 15
M  V30 15 1 15 16
M  V30 16 1 3 17
M  V30 17 1 17 18
M  V30 18 1 11 6
M  V30 19 1 1 19
M  V30 20 1 1 20
M  V30 21 1 1 21
M  V30 22 1 2 22
M  V30 23 1 2 23
M  V30 24 1 7 24
M  V30 25 1 7 25
M  V30 26 1 8 26
M  V30 27 1 8 27
M  V30 28 1 9 28
M  V30 29 1 9 29
M  V30 30 1 10 30
M  V30 31 1 11 31
M  V30 32 1 11 32
M  V30 33 1 12 33
M  V30 34 1 13 34
M  V30 35 1 13 35
M  V30 36 1 14 36
M  V30 37 1 14 37
M  V30 38 1 14 38
M  V30 39 1 15 39
M  V30 40 1 15 40
M  V30 41 1 16 41
M  V30 42 1 16 42
M  V30 43 1 17 43
M  V30 44 1 17 44
M  V30 45 1 18 45
M  V30 46 1 18 46
M  V30 47 1 18 47
M  V30 END BOND
M  V30 END CTAB
M  END
