
     RDKit          3D

  0  0  0  0  0  0  0  0  0  0999 V3000
M  V30 BEGIN CTAB
M  V30 COUNTS 23 23 0 0 0
M  V30 BEGIN ATOM
M  V30 1 C -3.2699 0.802842 0.288066 0
M  V30 2 C -1.83171 0.426371 0.625653 0
M  V30 3 C -1.45295 -0.670546 -0.290546 0
M  V30 4 C -0.0858912 -1.22318 -0.162895 0 CFG=1
M  V30 5 C 0.961115 -0.190449 -0.39955 0
M  V30 6 N 2.29229 -0.399734 -0.2048 0
M  V30 7 C 2.93706 0.716299 -0.507156 0
M  V30 8 N 1.99697 1.59727 -0.883589 0
M  V30 9 O 0.828456 1.04545 -0.814874 0
M  V30 10 N 4.33807 0.906076 -0.435774 0
M  V30 11 N 0.153308 -1.91725 1.08716 0
M  V30 12 H -3.25315 1.29697 -0.683147 0
M  V30 13 H -3.75245 1.40356 1.04162 0
M  V30 14 H -3.82508 -0.155503 0.197396 0
M  V30 15 H -1.24272 1.34713 0.459991 0
M  V30 16 H -1.79626 0.18395 1.69395 0
M  V30 17 H -2.18387 -1.51313 -0.262096 0
M  V30 18 H -1.54417 -0.269189 -1.34258 0
M  V30 19 H 0.0410942 -1.99227 -0.96757 0
M  V30 20 H 4.94069 0.240407 0.0875756 0
M  V30 21 H 4.75285 1.72224 -0.915652 0
M  V30 22 H -0.207848 -1.41365 1.9138 0
M  V30 23 H 1.20409 -1.94365 1.20459 0
M  V30 END ATOM
M  V30 BEGIN BOND
M  V30 1 1 1 2
M  V30 2 1 2 3
M  V30 3 1 3 4
M  V30 4 1 4 5
M  V30 5 2 5 6
M  V30 6 1 6 7
M  V30 7 2 7 8
M  V30 8 1 8 9
M  V30 9 1 7 10
M  V30 10 1 4 11
M  V30 11 1 9 5
M  V30 12 1 1 12
M  V30 13 1 1 13
M  V30 14 1 1 14
M  V30 15 1 2 15
M  V30 16 1 2 16
M  V30 17 1 3 17
M  V30 18 1 3 18
M  V30 19 1 4 19 CFG=3
M  V30 20 1 10 20
M  V30 21 1 10 21
M  V30 22 1 11 22
M  V30 23 1 11 23
M  V30 END BOND
M  V30 END CTAB
M  END
