
     RDKit          3D

  0  0  0  0  0  0  0  0  0  0999 V3000
M  V30 BEGIN CTAB
M  V30 COUNTS 65 68 0 0 0
M  V30 BEGIN ATOM
M  V30 1 C -9.49931 3.63254 -0.807701 0
M  V30 2 O -8.3055 2.88448 -0.597909 0
M  V30 3 C -8.29559 1.84151 0.344182 0
M  V30 4 C -7.14671 1.14151 0.555355 0
M  V30 5 O -5.9768 1.45429 -0.154169 0
M  V30 6 C -4.80707 0.709949 0.117112 0
M  V30 7 C -4.41237 -0.375359 -0.619601 0
M  V30 8 C -3.2382 -1.08485 -0.305088 0
M  V30 9 C -2.46338 -0.70029 0.751782 0
M  V30 10 C -2.86185 0.391144 1.49081 0
M  V30 11 C -4.01364 1.09436 1.18823 0
M  V30 12 C -1.22674 -1.46112 1.07571 0
M  V30 13 O -0.17595 -0.733314 1.42665 0
M  V30 14 C 0.992423 -0.202661 1.43356 0
M  V30 15 C 1.96158 -0.457874 0.449918 0
M  V30 16 C 3.16677 0.139252 0.527808 0
M  V30 17 N 3.41661 0.983825 1.57065 0
M  V30 18 C 2.52296 1.25902 2.53427 0
M  V30 19 N 2.83611 2.15176 3.60779 0
M  V30 20 N 1.33939 0.656979 2.43499 0
M  V30 21 C 4.23353 -0.0760802 -0.476469 0
M  V30 22 C 4.10129 -0.897325 -1.56126 0
M  V30 23 C 5.15032 -1.04717 -2.48688 0
M  V30 24 C 6.33893 -0.376151 -2.33198 0
M  V30 25 C 7.45789 -0.530704 -3.3093 0
M  V30 26 C 8.36533 -1.69204 -2.86908 0 CFG=2
M  V30 27 N 8.85347 -1.33171 -1.5522 0
M  V30 28 C 9.47525 -1.78952 -3.85096 0
M  V30 29 O 10.798 -1.57804 -3.51984 0
M  V30 30 O 9.20189 -2.08167 -5.05004 0
M  V30 31 C 6.45567 0.451799 -1.22614 0
M  V30 32 C 5.43306 0.599965 -0.321105 0
M  V30 33 C -1.50956 -2.51887 2.13656 0
M  V30 34 F -0.315703 -3.16467 2.38236 0
M  V30 35 F -2.37426 -3.49035 1.64489 0
M  V30 36 F -1.95837 -1.97186 3.30089 0
M  V30 37 C -7.18278 0.128581 1.48599 0
M  V30 38 C -8.33553 -0.172081 2.18315 0
M  V30 39 C -9.50016 0.564339 1.945 0
M  V30 40 C -9.47531 1.57531 1.02016 0
M  V30 41 H -9.88295 4.0667 0.151947 0
M  V30 42 H -10.3114 2.94866 -1.13662 0
M  V30 43 H -9.33115 4.38786 -1.58923 0
M  V30 44 H -5.045 -0.668479 -1.46514 0
M  V30 45 H -2.97718 -1.93454 -0.921375 0
M  V30 46 H -2.2096 0.646874 2.31463 0
M  V30 47 H -4.30933 1.94398 1.78077 0
M  V30 48 H -0.97742 -2.07124 0.157192 0
M  V30 49 H 1.71633 -1.14794 -0.373908 0
M  V30 50 H 2.76162 3.16422 3.45853 0
M  V30 51 H 3.13198 1.76672 4.5098 0
M  V30 52 H 3.19125 -1.43271 -1.7051 0
M  V30 53 H 5.0267 -1.71078 -3.35471 0
M  V30 54 H 8.12856 0.368004 -3.33783 0
M  V30 55 H 7.10467 -0.656666 -4.35015 0
M  V30 56 H 7.74732 -2.59938 -2.82571 0
M  V30 57 H 9.04341 -2.12 -0.925803 0
M  V30 58 H 9.52211 -0.557165 -1.56892 0
M  V30 59 H 11.0679 -1.58299 -2.53522 0
M  V30 60 H 7.41329 0.983038 -1.11489 0
M  V30 61 H 5.55852 1.26727 0.544772 0
M  V30 62 H -6.3053 -0.460304 1.69931 0
M  V30 63 H -8.34315 -0.968594 2.90631 0
M  V30 64 H -10.3706 0.285843 2.51649 0
M  V30 65 H -10.3763 2.1547 0.830692 0
M  V30 END ATOM
M  V30 BEGIN BOND
M  V30 1 1 1 2
M  V30 2 1 2 3
M  V30 3 2 3 4
M  V30 4 1 4 5
M  V30 5 1 5 6
M  V30 6 2 6 7
M  V30 7 1 7 8
M  V30 8 2 8 9
M  V30 9 1 9 10
M  V30 10 2 10 11
M  V30 11 1 9 12
M  V30 12 1 12 13
M  V30 13 1 13 14
M  V30 14 2 14 15
M  V30 15 1 15 16
M  V30 16 2 16 17
M  V30 17 1 17 18
M  V30 18 1 18 19
M  V30 19 2 18 20
M  V30 20 1 16 21
M  V30 21 2 21 22
M  V30 22 1 22 23
M  V30 23 2 23 24
M  V30 24 1 24 25
M  V30 25 1 25 26
M  V30 26 1 26 27
M  V30 27 1 26 28
M  V30 28 1 28 29
M  V30 29 2 28 30
M  V30 30 1 24 31
M  V30 31 2 31 32
M  V30 32 1 12 33
M  V30 33 1 33 34
M  V30 34 1 33 35
M  V30 35 1 33 36
M  V30 36 1 4 37
M  V30 37 2 37 38
M  V30 38 1 38 39
M  V30 39 2 39 40
M  V30 40 1 40 3
M  V30 41 1 11 6
M  V30 42 1 20 14
M  V30 43 1 32 21
M  V30 44 1 1 41
M  V30 45 1 1 42
M  V30 46 1 1 43
M  V30 47 1 7 44
M  V30 48 1 8 45
M  V30 49 1 10 46
M  V30 50 1 11 47
M  V30 51 1 12 48
M  V30 52 1 15 49
M  V30 53 1 19 50
M  V30 54 1 19 51
M  V30 55 1 22 52
M  V30 56 1 23 53
M  V30 57 1 25 54
M  V30 58 1 25 55
M  V30 59 1 26 56 CFG=1
M  V30 60 1 27 57
M  V30 61 1 27 58
M  V30 62 1 29 59
M  V30 63 1 31 60
M  V30 64 1 32 61
M  V30 65 1 37 62
M  V30 66 1 38 63
M  V30 67 1 39 64
M  V30 68 1 40 65
M  V30 END BOND
M  V30 END CTAB
M  END
