
     RDKit          3D

  0  0  0  0  0  0  0  0  0  0999 V3000
M  V30 BEGIN CTAB
M  V30 COUNTS 53 53 0 0 0
M  V30 BEGIN ATOM
M  V30 1 N -3.92541 1.29065 0.87337 0
M  V30 2 C -3.01332 0.785863 1.79476 0 CFG=1
M  V30 3 C -3.63538 0.517008 3.15803 0
M  V30 4 C -4.18903 1.77137 3.70897 0
M  V30 5 O -3.50274 2.48914 4.65938 0
M  V30 6 O -5.3027 2.17185 3.29046 0
M  V30 7 C -2.26105 -0.408825 1.39068 0
M  V30 8 O -1.51139 -0.896018 2.32331 0
M  V30 9 N -2.28186 -1.04309 0.122962 0
M  V30 10 C -3.13759 -0.666585 -0.965819 0
M  V30 11 C -3.02104 -1.78692 -1.99086 0
M  V30 12 C -1.63541 -2.26297 -1.75525 0
M  V30 13 C -1.45147 -2.13947 -0.255952 0 CFG=1
M  V30 14 C -0.0147184 -2.01553 0.0557957 0
M  V30 15 O 0.621262 -3.13658 -0.00771823 0
M  V30 16 N 0.746062 -0.906924 0.395018 0
M  V30 17 C 2.17682 -0.97585 0.671895 0 CFG=1
M  V30 18 C 3.01099 -0.22024 -0.338444 0
M  V30 19 C 2.64288 1.21978 -0.328669 0
M  V30 20 C 3.38982 2.10636 -1.25766 0
M  V30 21 N 3.31299 1.83877 -2.64503 0
M  V30 22 C 3.85801 0.737174 -3.34907 0
M  V30 23 N 5.09502 0.138361 -3.00432 0
M  V30 24 N 3.20981 0.261502 -4.35217 0
M  V30 25 C 2.53263 -0.587916 2.0389 0
M  V30 26 O 3.89626 -0.620857 2.37418 0
M  V30 27 O 1.74123 -0.228366 2.94298 0
M  V30 28 H -3.65116 2.03552 0.274743 0
M  V30 29 H -4.91003 1.0528 0.958509 0
M  V30 30 H -2.25383 1.60427 1.98626 0
M  V30 31 H -2.76285 0.20374 3.80332 0
M  V30 32 H -4.34192 -0.30452 3.0592 0
M  V30 33 H -3.36616 3.48591 4.68306 0
M  V30 34 H -2.91854 0.272617 -1.45588 0
M  V30 35 H -4.19498 -0.62937 -0.59112 0
M  V30 36 H -3.20931 -1.40239 -3.01233 0
M  V30 37 H -3.72096 -2.6109 -1.70157 0
M  V30 38 H -1.48363 -3.30456 -2.10506 0
M  V30 39 H -0.877193 -1.56871 -2.20561 0
M  V30 40 H -1.85044 -3.11832 0.154709 0
M  V30 41 H 0.341095 0.0521275 0.462675 0
M  V30 42 H 2.44808 -2.06678 0.551385 0
M  V30 43 H 4.05777 -0.339346 -0.0310992 0
M  V30 44 H 2.78528 -0.716665 -1.31737 0
M  V30 45 H 1.55469 1.39836 -0.427319 0
M  V30 46 H 2.89734 1.59457 0.711768 0
M  V30 47 H 2.98539 3.14897 -1.07207 0
M  V30 48 H 4.45859 2.20539 -0.895376 0
M  V30 49 H 2.78726 2.53894 -3.2616 0
M  V30 50 H 5.37216 -0.757022 -3.44262 0
M  V30 51 H 5.74127 0.571869 -2.31649 0
M  V30 52 H 2.30737 0.681365 -4.63383 0
M  V30 53 H 4.45403 -1.45957 2.27399 0
M  V30 END ATOM
M  V30 BEGIN BOND
M  V30 1 1 1 2
M  V30 2 1 2 3
M  V30 3 1 3 4
M  V30 4 1 4 5
M  V30 5 2 4 6
M  V30 6 1 2 7
M  V30 7 2 7 8
M  V30 8 1 7 9
M  V30 9 1 9 10
M  V30 10 1 10 11
M  V30 11 1 11 12
M  V30 12 1 12 13
M  V30 13 1 13 14
M  V30 14 2 14 15
M  V30 15 1 14 16
M  V30 16 1 16 17
M  V30 17 1 17 18
M  V30 18 1 18 19
M  V30 19 1 19 20
M  V30 20 1 20 21
M  V30 21 1 21 22
M  V30 22 1 22 23
M  V30 23 2 22 24 CFG=2
M  V30 24 1 17 25
M  V30 25 1 25 26
M  V30 26 2 25 27
M  V30 27 1 13 9
M  V30 28 1 1 28
M  V30 29 1 1 29
M  V30 30 1 2 30 CFG=1
M  V30 31 1 3 31
M  V30 32 1 3 32
M  V30 33 1 5 33
M  V30 34 1 10 34
M  V30 35 1 10 35
M  V30 36 1 11 36
M  V30 37 1 11 37
M  V30 38 1 12 38
M  V30 39 1 12 39
M  V30 40 1 13 40 CFG=1
M  V30 41 1 16 41
M  V30 42 1 17 42 CFG=1
M  V30 43 1 18 43
M  V30 44 1 18 44
M  V30 45 1 19 45
M  V30 46 1 19 46
M  V30 47 1 20 47
M  V30 48 1 20 48
M  V30 49 1 21 49
M  V30 50 1 23 50
M  V30 51 1 23 51
M  V30 52 1 24 52
M  V30 53 1 26 53
M  V30 END BOND
M  V30 END CTAB
M  END
