
     RDKit          3D

  0  0  0  0  0  0  0  0  0  0999 V3000
M  V30 BEGIN CTAB
M  V30 COUNTS 47 49 0 0 0
M  V30 BEGIN ATOM
M  V30 1 C 6.95429 0.993409 0.176076 0
M  V30 2 C 6.73905 -0.500808 0.298598 0
M  V30 3 O 5.37278 -0.799692 0.0981833 0
M  V30 4 C 4.34105 -0.32357 0.858139 0
M  V30 5 O 4.62957 0.449622 1.8225 0
M  V30 6 N 2.96798 -0.653887 0.617843 0
M  V30 7 C 1.91668 -0.121859 1.4531 0
M  V30 8 C 0.687105 -1.00079 1.25176 0
M  V30 9 N 0.321475 -0.918285 -0.125258 0
M  V30 10 C 1.33412 -1.30454 -1.10023 0
M  V30 11 C 2.67153 -1.52808 -0.476483 0
M  V30 12 C -0.933767 -0.495166 -0.625971 0
M  V30 13 C -1.99539 -0.0870213 0.159589 0
M  V30 14 C -3.19016 0.311581 -0.400266 0
M  V30 15 N -3.29539 0.29266 -1.7348 0
M  V30 16 C -2.29168 -0.0959189 -2.54242 0
M  V30 17 N -1.15276 -0.474049 -1.96468 0
M  V30 18 N -2.39446 -0.118939 -3.95535 0
M  V30 19 C -4.33669 0.750014 0.39283 0
M  V30 20 C -4.71427 -0.192859 1.54277 0
M  V30 21 C -5.084 1.07684 2.32038 0
M  V30 22 C -4.01487 1.78389 1.47626 0
M  V30 23 N -6.41728 1.47591 1.94811 0
M  V30 24 H 7.89842 1.20944 -0.365588 0
M  V30 25 H 7.00296 1.47433 1.17253 0
M  V30 26 H 6.10549 1.4004 -0.413031 0
M  V30 27 H 7.32173 -0.984088 -0.513659 0
M  V30 28 H 7.09559 -0.852473 1.29196 0
M  V30 29 H 1.64191 0.913775 1.18569 0
M  V30 30 H 2.14968 -0.140724 2.52661 0
M  V30 31 H 1.00862 -2.05682 1.49065 0
M  V30 32 H -0.1121 -0.75369 1.94401 0
M  V30 33 H 1.38689 -0.545487 -1.91567 0
M  V30 34 H 0.997328 -2.25523 -1.55662 0
M  V30 35 H 3.4424 -1.3661 -1.27612 0
M  V30 36 H 2.6992 -2.56751 -0.0928762 0
M  V30 37 H -1.85735 -0.0905924 1.22657 0
M  V30 38 H -2.24036 0.767513 -4.47331 0
M  V30 39 H -2.61518 -0.980797 -4.4757 0
M  V30 40 H -5.23682 1.04325 -0.142124 0
M  V30 41 H -5.58321 -0.828231 1.29997 0
M  V30 42 H -3.82974 -0.695148 1.95512 0
M  V30 43 H -4.85465 1.03677 3.38674 0
M  V30 44 H -4.27937 2.8098 1.1865 0
M  V30 45 H -3.00055 1.60754 1.85125 0
M  V30 46 H -6.83945 0.879407 1.20082 0
M  V30 47 H -6.41639 2.45619 1.55177 0
M  V30 END ATOM
M  V30 BEGIN BOND
M  V30 1 1 1 2
M  V30 2 1 2 3
M  V30 3 1 3 4
M  V30 4 2 4 5
M  V30 5 1 4 6
M  V30 6 1 6 7
M  V30 7 1 7 8
M  V30 8 1 8 9
M  V30 9 1 9 10
M  V30 10 1 10 11
M  V30 11 1 9 12
M  V30 12 2 12 13
M  V30 13 1 13 14
M  V30 14 2 14 15
M  V30 15 1 15 16
M  V30 16 2 16 17
M  V30 17 1 16 18
M  V30 18 1 14 19
M  V30 19 1 19 20
M  V30 20 1 20 21
M  V30 21 1 21 22
M  V30 22 1 21 23
M  V30 23 1 11 6
M  V30 24 1 17 12
M  V30 25 1 22 19
M  V30 26 1 1 24
M  V30 27 1 1 25
M  V30 28 1 1 26
M  V30 29 1 2 27
M  V30 30 1 2 28
M  V30 31 1 7 29
M  V30 32 1 7 30
M  V30 33 1 8 31
M  V30 34 1 8 32
M  V30 35 1 10 33
M  V30 36 1 10 34
M  V30 37 1 11 35
M  V30 38 1 11 36
M  V30 39 1 13 37
M  V30 40 1 18 38
M  V30 41 1 18 39
M  V30 42 1 19 40
M  V30 43 1 20 41
M  V30 44 1 20 42
M  V30 45 1 21 43
M  V30 46 1 22 44
M  V30 47 1 22 45
M  V30 48 1 23 46
M  V30 49 1 23 47
M  V30 END BOND
M  V30 END CTAB
M  END
