
     RDKit          3D

  0  0  0  0  0  0  0  0  0  0999 V3000
M  V30 BEGIN CTAB
M  V30 COUNTS 22 22 0 0 0
M  V30 BEGIN ATOM
M  V30 1 F 3.21911 1.06889 -0.641568 0
M  V30 2 C 2.85343 0.0497772 0.198051 0
M  V30 3 C 1.44036 -0.365105 0.028603 0
M  V30 4 C 1.07006 -1.67436 -0.209669 0
M  V30 5 C -0.267801 -2.00114 -0.359423 0
M  V30 6 C -1.23915 -1.01623 -0.270785 0
M  V30 7 C -0.860921 0.288997 -0.0325838 0
M  V30 8 C 0.46323 0.608484 0.114998 0
M  V30 9 N 0.801549 1.96697 0.358937 0
M  V30 10 C -1.88301 1.363 0.0667851 0
M  V30 11 N -2.60409 -1.35442 -0.424328 0
M  V30 12 F 3.05673 0.530205 1.49939 0
M  V30 13 H 3.53573 -0.825765 0.106138 0
M  V30 14 H 1.85183 -2.42249 -0.273826 0
M  V30 15 H -0.562115 -3.03098 -0.547045 0
M  V30 16 H 1.20995 2.5245 -0.422617 0
M  V30 17 H 0.678135 2.46648 1.25917 0
M  V30 18 H -1.44877 2.31783 0.354775 0
M  V30 19 H -2.51413 1.41824 -0.847244 0
M  V30 20 H -2.5682 1.05778 0.896979 0
M  V30 21 H -3.13107 -1.55679 0.474499 0
M  V30 22 H -3.10085 -1.41388 -1.32924 0
M  V30 END ATOM
M  V30 BEGIN BOND
M  V30 1 1 1 2
M  V30 2 1 2 3
M  V30 3 2 3 4
M  V30 4 1 4 5
M  V30 5 2 5 6
M  V30 6 1 6 7
M  V30 7 2 7 8
M  V30 8 1 8 9
M  V30 9 1 7 10
M  V30 10 1 6 11
M  V30 11 1 2 12
M  V30 12 1 8 3
M  V30 13 1 2 13
M  V30 14 1 4 14
M  V30 15 1 5 15
M  V30 16 1 9 16
M  V30 17 1 9 17
M  V30 18 1 10 18
M  V30 19 1 10 19
M  V30 20 1 10 20
M  V30 21 1 11 21
M  V30 22 1 11 22
M  V30 END BOND
M  V30 END CTAB
M  END
