
     RDKit          3D

  0  0  0  0  0  0  0  0  0  0999 V3000
M  V30 BEGIN CTAB
M  V30 COUNTS 23 23 0 0 0
M  V30 BEGIN ATOM
M  V30 1 N -3.6159 -0.688619 -0.475977 0
M  V30 2 C -2.7833 0.329846 0.151222 0
M  V30 3 C -1.34605 0.0103662 -0.0512876 0
M  V30 4 C -0.905131 -1.1013 -0.740633 0
M  V30 5 N 0.413198 -1.36307 -0.907096 0
M  V30 6 C 1.34451 -0.529188 -0.394307 0
M  V30 7 N 0.92448 0.536234 0.26635 0
M  V30 8 C -0.369939 0.839965 0.458698 0
M  V30 9 N -0.770711 2.01055 1.18436 0
M  V30 10 C 2.7558 -0.893742 -0.62469 0
M  V30 11 C 3.72802 0.0743615 -0.0288458 0
M  V30 12 F 3.62157 1.34671 -0.502998 0
M  V30 13 F 5.00404 -0.374274 -0.310117 0
M  V30 14 F 3.61514 0.113135 1.34692 0
M  V30 15 H -3.33222 -1.59854 -0.00165756 0
M  V30 16 H -4.61555 -0.530421 -0.220555 0
M  V30 17 H -3.03482 1.34849 -0.249468 0
M  V30 18 H -3.05417 0.31461 1.23516 0
M  V30 19 H -1.65252 -1.76257 -1.14729 0
M  V30 20 H -0.789289 2.91269 0.678787 0
M  V30 21 H -1.02593 1.90111 2.1901 0
M  V30 22 H 2.95746 -1.01536 -1.70764 0
M  V30 23 H 2.93128 -1.88098 -0.149039 0
M  V30 END ATOM
M  V30 BEGIN BOND
M  V30 1 1 1 2
M  V30 2 1 2 3
M  V30 3 2 3 4
M  V30 4 1 4 5
M  V30 5 2 5 6
M  V30 6 1 6 7
M  V30 7 2 7 8
M  V30 8 1 8 9
M  V30 9 1 6 10
M  V30 10 1 10 11
M  V30 11 1 11 12
M  V30 12 1 11 13
M  V30 13 1 11 14
M  V30 14 1 8 3
M  V30 15 1 1 15
M  V30 16 1 1 16
M  V30 17 1 2 17
M  V30 18 1 2 18
M  V30 19 1 4 19
M  V30 20 1 9 20
M  V30 21 1 9 21
M  V30 22 1 10 22
M  V30 23 1 10 23
M  V30 END BOND
M  V30 END CTAB
M  END
