
     RDKit          3D

  0  0  0  0  0  0  0  0  0  0999 V3000
M  V30 BEGIN CTAB
M  V30 COUNTS 86 92 0 0 0
M  V30 BEGIN ATOM
M  V30 1 C -2.07858 -4.67369 0.245168 0
M  V30 2 C -2.10117 -3.19187 -0.0755979 0
M  V30 3 C -3.14116 -2.33174 0.230844 0
M  V30 4 C -4.36009 -2.80233 0.935622 0
M  V30 5 C -2.74901 -1.08003 -0.256704 0
M  V30 6 C -3.57553 0.0572625 -0.131007 0
M  V30 7 C -3.12085 1.38681 -0.159316 0
M  V30 8 N -1.79358 1.50404 0.147264 0
M  V30 9 C -1.41189 2.79111 0.0904574 0
M  V30 10 C -0.0855699 3.15549 0.337902 0
M  V30 11 C 1.07677 2.45776 0.10054 0
M  V30 12 C 2.15013 3.13488 -0.525329 0
M  V30 13 C 2.23319 4.57676 -0.968465 0
M  V30 14 C 3.19964 2.2692 -0.679902 0
M  V30 15 C 4.48208 2.67108 -1.30468 0
M  V30 16 C 2.74098 1.06481 -0.136347 0
M  V30 17 N 1.4752 1.19377 0.325236 0
M  V30 18 C 3.57754 -0.0856399 -0.0923804 0
M  V30 19 C 3.11737 -1.37293 -0.405549 0
M  V30 20 N 1.75941 -1.43687 -0.647946 0
M  V30 21 C 1.39596 -2.68863 -0.919379 0
M  V30 22 C 0.0716183 -3.04178 -1.17086 0
M  V30 23 C -1.10998 -2.43042 -0.739873 0
M  V30 24 N -1.53105 -1.16217 -0.835186 0
M  V30 25 C 2.56061 -3.43448 -0.847607 0
M  V30 26 C 2.67346 -4.90391 -1.0773 0
M  V30 27 C 3.64193 -2.61785 -0.525322 0
M  V30 28 C 5.03765 -3.07911 -0.348301 0
M  V30 29 C 4.99082 -0.0182497 0.263936 0
M  V30 30 C 5.33341 0.010034 1.64234 0
M  V30 31 N 4.27382 0.0222497 2.59414 0
M  V30 32 C 6.63813 0.0244597 2.00791 0
M  V30 33 C 7.62716 0.0119718 1.06073 0
M  V30 34 C 7.29553 -0.0164319 -0.284869 0
M  V30 35 C 5.97645 -0.0322816 -0.679967 0
M  V30 36 C -2.55035 3.48516 -0.262279 0
M  V30 37 C -2.65091 4.94887 -0.452717 0
M  V30 38 C -3.62059 2.60306 -0.419548 0
M  V30 39 C -5.00124 2.95344 -0.811183 0
M  V30 40 C -5.01752 0.020432 0.110638 0
M  V30 41 C -5.95259 -0.18294 -0.887075 0
M  V30 42 C -7.2909 -0.232209 -0.620979 0
M  V30 43 C -7.73348 -0.0764202 0.673005 0
M  V30 44 C -6.80796 0.129457 1.68604 0
M  V30 45 C -5.45649 0.178643 1.40664 0
M  V30 46 N -4.57116 0.447099 2.48193 0
M  V30 47 H -2.74343 -5.16834 -0.501042 0
M  V30 48 H -2.44472 -4.83637 1.28582 0
M  V30 49 H -1.06726 -5.02993 0.0936132 0
M  V30 50 H -4.23293 -3.93712 1.00351 0
M  V30 51 H -5.2935 -2.7449 0.380361 0
M  V30 52 H -4.38825 -2.56064 2.01133 0
M  V30 53 H -0.0265925 4.18426 0.774967 0
M  V30 54 H 1.2379 5.05499 -0.971023 0
M  V30 55 H 2.99071 5.11952 -0.398049 0
M  V30 56 H 2.54661 4.58682 -2.05467 0
M  V30 57 H 4.74817 2.14403 -2.22823 0
M  V30 58 H 4.35876 3.72775 -1.71938 0
M  V30 59 H 5.29652 2.85082 -0.575055 0
M  V30 60 H 0.845713 0.424583 0.830803 0
M  V30 61 H 0.0480753 -3.98062 -1.7887 0
M  V30 62 H -0.954384 -0.35133 -1.33859 0
M  V30 63 H 3.56621 -5.05985 -1.75104 0
M  V30 64 H 1.77205 -5.22305 -1.63063 0
M  V30 65 H 2.77861 -5.44923 -0.135759 0
M  V30 66 H 5.66987 -3.01252 -1.24888 0
M  V30 67 H 5.51338 -2.80912 0.604517 0
M  V30 68 H 4.98728 -4.22459 -0.2338 0
M  V30 69 H 3.7136 -0.839234 2.78898 0
M  V30 70 H 4.05445 0.903114 3.10332 0
M  V30 71 H 6.89012 0.0461176 3.07011 0
M  V30 72 H 8.65067 0.0249823 1.41069 0
M  V30 73 H 8.13051 -0.0251345 -0.990256 0
M  V30 74 H 5.77697 -0.0705479 -1.7382 0
M  V30 75 H -3.30889 5.18598 -1.31241 0
M  V30 76 H -3.06508 5.36307 0.507378 0
M  V30 77 H -1.63475 5.36238 -0.56515 0
M  V30 78 H -4.98876 4.08856 -0.940063 0
M  V30 79 H -5.7719 2.83797 -0.068939 0
M  V30 80 H -5.25726 2.65481 -1.85925 0
M  V30 81 H -5.57385 -0.301784 -1.89261 0
M  V30 82 H -8.01154 -0.391689 -1.40967 0
M  V30 83 H -8.77516 -0.106079 0.946438 0
M  V30 84 H -7.17753 0.249354 2.69489 0
M  V30 85 H -4.18436 -0.325056 3.05987 0
M  V30 86 H -4.29321 1.43216 2.71014 0
M  V30 END ATOM
M  V30 BEGIN BOND
M  V30 1 1 1 2
M  V30 2 2 2 3
M  V30 3 1 3 4
M  V30 4 1 3 5
M  V30 5 2 5 6
M  V30 6 1 6 7
M  V30 7 2 7 8
M  V30 8 1 8 9
M  V30 9 2 9 10
M  V30 10 1 10 11
M  V30 11 2 11 12
M  V30 12 1 12 13
M  V30 13 1 12 14
M  V30 14 1 14 15
M  V30 15 2 14 16
M  V30 16 1 16 17
M  V30 17 1 16 18
M  V30 18 2 18 19
M  V30 19 1 19 20
M  V30 20 2 20 21
M  V30 21 1 21 22
M  V30 22 2 22 23
M  V30 23 1 23 24
M  V30 24 1 21 25
M  V30 25 1 25 26
M  V30 26 2 25 27
M  V30 27 1 27 28
M  V30 28 1 18 29
M  V30 29 2 29 30
M  V30 30 1 30 31
M  V30 31 1 30 32
M  V30 32 2 32 33
M  V30 33 1 33 34
M  V30 34 2 34 35
M  V30 35 1 9 36
M  V30 36 1 36 37
M  V30 37 2 36 38
M  V30 38 1 38 39
M  V30 39 1 6 40
M  V30 40 2 40 41
M  V30 41 1 41 42
M  V30 42 2 42 43
M  V30 43 1 43 44
M  V30 44 2 44 45
M  V30 45 1 45 46
M  V30 46 1 23 2
M  V30 47 1 35 29
M  V30 48 1 45 40
M  V30 49 1 24 5
M  V30 50 1 38 7
M  V30 51 1 17 11
M  V30 52 1 27 19
M  V30 53 1 1 47
M  V30 54 1 1 48
M  V30 55 1 1 49
M  V30 56 1 4 50
M  V30 57 1 4 51
M  V30 58 1 4 52
M  V30 59 1 10 53
M  V30 60 1 13 54
M  V30 61 1 13 55
M  V30 62 1 13 56
M  V30 63 1 15 57
M  V30 64 1 15 58
M  V30 65 1 15 59
M  V30 66 1 17 60
M  V30 67 1 22 61
M  V30 68 1 24 62
M  V30 69 1 26 63
M  V30 70 1 26 64
M  V30 71 1 26 65
M  V30 72 1 28 66
M  V30 73 1 28 67
M  V30 74 1 28 68
M  V30 75 1 31 69
M  V30 76 1 31 70
M  V30 77 1 32 71
M  V30 78 1 33 72
M  V30 79 1 34 73
M  V30 80 1 35 74
M  V30 81 1 37 75
M  V30 82 1 37 76
M  V30 83 1 37 77
M  V30 84 1 39 78
M  V30 85 1 39 79
M  V30 86 1 39 80
M  V30 87 1 41 81
M  V30 88 1 42 82
M  V30 89 1 43 83
M  V30 90 1 44 84
M  V30 91 1 46 85
M  V30 92 1 46 86
M  V30 END BOND
M  V30 END CTAB
M  END
