
     RDKit          3D

  0  0  0  0  0  0  0  0  0  0999 V3000
M  V30 BEGIN CTAB
M  V30 COUNTS 45 45 0 0 0
M  V30 BEGIN ATOM
M  V30 1 N -2.05808 -4.03598 -1.20864 0
M  V30 2 C -1.44174 -3.02242 -0.391631 0
M  V30 3 C -1.25358 -1.76738 -1.23899 0
M  V30 4 N -0.64848 -0.69464 -0.527 0
M  V30 5 C -1.44647 0.291921 0.168552 0
M  V30 6 O -0.899018 1.22247 0.785448 0
M  V30 7 O -2.81114 0.257574 0.186292 0
M  V30 8 C -3.647 1.15789 0.824538 0
M  V30 9 C -5.1192 0.781301 0.611061 0
M  V30 10 C -3.50792 2.58651 0.376136 0
M  V30 11 C -3.34671 1.11969 2.30764 0
M  V30 12 C 0.775028 -0.566148 -0.453497 0
M  V30 13 O 1.28117 0.415203 0.17189 0
M  V30 14 N 1.5809 -1.53078 -1.07468 0
M  V30 15 C 2.98473 -1.46249 -1.05117 0
M  V30 16 O 3.61742 -2.39298 -1.64818 0
M  V30 17 C 3.6819 -0.388554 -0.38215 0
M  V30 18 C 4.03114 0.794463 -1.01934 0
M  V30 19 C 4.71223 1.77669 -0.34695 0
M  V30 20 C 5.05321 1.57886 0.986416 0
M  V30 21 C 4.71467 0.4176 1.62502 0
M  V30 22 C 4.03714 -0.556204 0.951386 0
M  V30 23 N 5.75232 2.58157 1.6845 0
M  V30 24 H -2.94118 -4.40343 -0.839174 0
M  V30 25 H -1.39075 -4.77965 -1.51246 0
M  V30 26 H -2.0051 -2.78533 0.525444 0
M  V30 27 H -0.456681 -3.42441 -0.0526301 0
M  V30 28 H -2.32433 -1.5036 -1.54394 0
M  V30 29 H -0.702018 -1.9933 -2.16013 0
M  V30 30 H -5.69309 1.16597 1.4845 0
M  V30 31 H -5.47426 1.26106 -0.337713 0
M  V30 32 H -5.259 -0.293303 0.495727 0
M  V30 33 H -3.48455 2.70939 -0.717166 0
M  V30 34 H -4.44012 3.10767 0.720422 0
M  V30 35 H -2.67509 3.12341 0.895162 0
M  V30 36 H -4.21077 0.63237 2.84529 0
M  V30 37 H -3.15905 2.1337 2.72686 0
M  V30 38 H -2.48106 0.458335 2.51199 0
M  V30 39 H 1.11195 -2.34232 -1.58136 0
M  V30 40 H 3.74499 0.912667 -2.06918 0
M  V30 41 H 4.98305 2.68988 -0.835004 0
M  V30 42 H 4.99522 0.289124 2.67253 0
M  V30 43 H 3.75975 -1.48744 1.44536 0
M  V30 44 H 5.27323 3.45222 2.00709 0
M  V30 45 H 6.78634 2.51283 1.91911 0
M  V30 END ATOM
M  V30 BEGIN BOND
M  V30 1 1 1 2
M  V30 2 1 2 3
M  V30 3 1 3 4
M  V30 4 1 4 5
M  V30 5 2 5 6
M  V30 6 1 5 7
M  V30 7 1 7 8
M  V30 8 1 8 9
M  V30 9 1 8 10
M  V30 10 1 8 11
M  V30 11 1 4 12
M  V30 12 2 12 13
M  V30 13 1 12 14
M  V30 14 1 14 15
M  V30 15 2 15 16
M  V30 16 1 15 17
M  V30 17 2 17 18
M  V30 18 1 18 19
M  V30 19 2 19 20
M  V30 20 1 20 21
M  V30 21 2 21 22
M  V30 22 1 20 23
M  V30 23 1 22 17
M  V30 24 1 1 24
M  V30 25 1 1 25
M  V30 26 1 2 26
M  V30 27 1 2 27
M  V30 28 1 3 28
M  V30 29 1 3 29
M  V30 30 1 9 30
M  V30 31 1 9 31
M  V30 32 1 9 32
M  V30 33 1 10 33
M  V30 34 1 10 34
M  V30 35 1 10 35
M  V30 36 1 11 36
M  V30 37 1 11 37
M  V30 38 1 11 38
M  V30 39 1 14 39
M  V30 40 1 18 40
M  V30 41 1 19 41
M  V30 42 1 21 42
M  V30 43 1 22 43
M  V30 44 1 23 44
M  V30 45 1 23 45
M  V30 END BOND
M  V30 END CTAB
M  END
