
     RDKit          3D

  0  0  0  0  0  0  0  0  0  0999 V3000
M  V30 BEGIN CTAB
M  V30 COUNTS 33 35 0 0 0
M  V30 BEGIN ATOM
M  V30 1 N 7.16964 0.210138 1.70386 0
M  V30 2 C 6.14778 0.000433832 1.2046 0
M  V30 3 C 4.84832 -0.246934 0.590608 0
M  V30 4 C 3.71055 0.287032 1.14985 0
M  V30 5 C 2.46813 0.0286217 0.53081 0
M  V30 6 C 2.52559 -0.74649 -0.590746 0
M  V30 7 N 3.6863 -1.25761 -1.11215 0
M  V30 8 C 4.88231 -1.02747 -0.543426 0
M  V30 9 N 6.08801 -1.55031 -1.07317 0
M  V30 10 S 0.891719 -0.854648 -1.06624 0
M  V30 11 C 0.184478 0.0815 0.164409 0
M  V30 12 C 1.24981 0.462514 0.928188 0
M  V30 13 N 1.02525 1.30258 2.11227 0
M  V30 14 C -1.25634 0.396235 0.344468 0
M  V30 15 O -1.53911 1.09326 1.30812 0
M  V30 16 N -2.14065 -0.118926 -0.580112 0
M  V30 17 C -3.54217 0.0420543 -0.617048 0
M  V30 18 C -4.25051 0.770731 0.310343 0
M  V30 19 C -5.63928 0.904625 0.236383 0
M  V30 20 C -6.33764 0.305466 -0.774843 0
M  V30 21 C -5.66375 -0.431355 -1.72083 0
M  V30 22 C -4.30144 -0.553813 -1.6353 0
M  V30 23 F -3.63942 -1.28629 -2.5773 0
M  V30 24 H 3.77974 0.892033 2.04741 0
M  V30 25 H 6.20685 -2.56038 -1.28715 0
M  V30 26 H 6.89283 -0.919801 -1.26148 0
M  V30 27 H 0.671492 0.915036 2.99257 0
M  V30 28 H 1.2293 2.32358 2.0636 0
M  V30 29 H -1.76667 -0.731097 -1.40209 0
M  V30 30 H -3.74825 1.27112 1.13916 0
M  V30 31 H -6.1665 1.48539 0.982769 0
M  V30 32 H -7.41946 0.411938 -0.829271 0
M  V30 33 H -6.2469 -0.899172 -2.51771 0
M  V30 END ATOM
M  V30 BEGIN BOND
M  V30 1 3 1 2
M  V30 2 1 2 3
M  V30 3 2 3 4
M  V30 4 1 4 5
M  V30 5 2 5 6
M  V30 6 1 6 7
M  V30 7 2 7 8
M  V30 8 1 8 9
M  V30 9 1 6 10
M  V30 10 1 10 11
M  V30 11 2 11 12
M  V30 12 1 12 13
M  V30 13 1 11 14
M  V30 14 2 14 15
M  V30 15 1 14 16
M  V30 16 1 16 17
M  V30 17 2 17 18
M  V30 18 1 18 19
M  V30 19 2 19 20
M  V30 20 1 20 21
M  V30 21 2 21 22
M  V30 22 1 22 23
M  V30 23 1 8 3
M  V30 24 1 22 17
M  V30 25 1 12 5
M  V30 26 1 4 24
M  V30 27 1 9 25
M  V30 28 1 9 26
M  V30 29 1 13 27
M  V30 30 1 13 28
M  V30 31 1 16 29
M  V30 32 1 18 30
M  V30 33 1 19 31
M  V30 34 1 20 32
M  V30 35 1 21 33
M  V30 END BOND
M  V30 END CTAB
M  END
