
     RDKit          3D

  0  0  0  0  0  0  0  0  0  0999 V3000
M  V30 BEGIN CTAB
M  V30 COUNTS 22 22 0 0 0
M  V30 BEGIN ATOM
M  V30 1 N 3.24992 0.264554 -0.268125 0
M  V30 2 C 2.09768 -0.600536 -0.145686 0
M  V30 3 C 0.837886 0.176439 -0.0317367 0
M  V30 4 C 0.806799 1.55794 -0.044672 0
M  V30 5 C -0.402754 2.22541 0.0656387 0
M  V30 6 C -1.6012 1.56222 0.190247 0
M  V30 7 C -1.56506 0.169271 0.202823 0
M  V30 8 C -0.356728 -0.499968 0.0926505 0
M  V30 9 N -0.335445 -1.91988 0.10697 0
M  V30 10 C -2.81675 -0.613138 0.334007 0
M  V30 11 F -2.81269 -1.42071 1.45908 0
M  V30 12 F -3.91215 0.227941 0.326169 0
M  V30 13 F -2.95518 -1.44714 -0.770035 0
M  V30 14 H 3.2756 0.719994 -1.2076 0
M  V30 15 H 4.09436 -0.383183 -0.246503 0
M  V30 16 H 2.21314 -1.3548 0.635777 0
M  V30 17 H 2.01068 -1.1725 -1.11591 0
M  V30 18 H 1.75301 2.06933 -0.142914 0
M  V30 19 H -0.371626 3.2919 0.0502727 0
M  V30 20 H -2.554 2.0773 0.277273 0
M  V30 21 H -0.441573 -2.45244 0.995347 0
M  V30 22 H -0.213907 -2.478 -0.763074 0
M  V30 END ATOM
M  V30 BEGIN BOND
M  V30 1 1 1 2
M  V30 2 1 2 3
M  V30 3 2 3 4
M  V30 4 1 4 5
M  V30 5 2 5 6
M  V30 6 1 6 7
M  V30 7 2 7 8
M  V30 8 1 8 9
M  V30 9 1 7 10
M  V30 10 1 10 11
M  V30 11 1 10 12
M  V30 12 1 10 13
M  V30 13 1 8 3
M  V30 14 1 1 14
M  V30 15 1 1 15
M  V30 16 1 2 16
M  V30 17 1 2 17
M  V30 18 1 4 18
M  V30 19 1 5 19
M  V30 20 1 6 20
M  V30 21 1 9 21
M  V30 22 1 9 22
M  V30 END BOND
M  V30 END CTAB
M  END
