
     RDKit          3D

  0  0  0  0  0  0  0  0  0  0999 V3000
M  V30 BEGIN CTAB
M  V30 COUNTS 29 30 0 0 0
M  V30 BEGIN ATOM
M  V30 1 C -0.65263 -1.96439 -0.788431 0
M  V30 2 C -0.139741 -0.803297 0.0229144 0
M  V30 3 C 1.08361 -0.220364 -0.554825 0
M  V30 4 N 1.26768 0.365996 -1.755 0
M  V30 5 N 2.52379 0.753996 -1.87816 0
M  V30 6 C 3.18572 0.425344 -0.752858 0
M  V30 7 N 2.28268 -0.169908 0.0418499 0
M  V30 8 N 2.57981 -0.669919 1.33387 0
M  V30 9 N 4.55755 0.651746 -0.446711 0
M  V30 10 C -1.15095 0.2915 0.187747 0
M  V30 11 C -2.41136 -0.198519 0.892756 0
M  V30 12 C -3.32501 0.991103 0.632514 0
M  V30 13 C -2.6862 1.62612 -0.563212 0
M  V30 14 O -1.66105 0.775912 -0.988199 0
M  V30 15 H 0.228325 -2.62857 -0.980858 0
M  V30 16 H -1.34205 -2.55842 -0.162857 0
M  V30 17 H -1.05172 -1.68157 -1.7626 0
M  V30 18 H 0.0980885 -1.19196 1.03134 0
M  V30 19 H 2.59564 -1.69525 1.52192 0
M  V30 20 H 2.77829 0.0258148 2.07393 0
M  V30 21 H 5.00933 0.133143 0.326446 0
M  V30 22 H 5.07997 1.33721 -1.00936 0
M  V30 23 H -0.709766 1.0597 0.848596 0
M  V30 24 H -2.75931 -1.10354 0.356219 0
M  V30 25 H -2.21721 -0.346153 1.95663 0
M  V30 26 H -3.18855 1.66282 1.53043 0
M  V30 27 H -4.36931 0.715689 0.512141 0
M  V30 28 H -2.18011 2.5911 -0.272684 0
M  V30 29 H -3.4255 1.82467 -1.35357 0
M  V30 END ATOM
M  V30 BEGIN BOND
M  V30 1 1 1 2
M  V30 2 1 2 3
M  V30 3 2 3 4
M  V30 4 1 4 5
M  V30 5 2 5 6
M  V30 6 1 6 7
M  V30 7 1 7 8
M  V30 8 1 6 9
M  V30 9 1 2 10
M  V30 10 1 10 11
M  V30 11 1 11 12
M  V30 12 1 12 13
M  V30 13 1 13 14
M  V30 14 1 7 3
M  V30 15 1 14 10
M  V30 16 1 1 15
M  V30 17 1 1 16
M  V30 18 1 1 17
M  V30 19 1 2 18
M  V30 20 1 8 19
M  V30 21 1 8 20
M  V30 22 1 9 21
M  V30 23 1 9 22
M  V30 24 1 10 23
M  V30 25 1 11 24
M  V30 26 1 11 25
M  V30 27 1 12 26
M  V30 28 1 12 27
M  V30 29 1 13 28
M  V30 30 1 13 29
M  V30 END BOND
M  V30 END CTAB
M  END
