
     RDKit          3D

  0  0  0  0  0  0  0  0  0  0999 V3000
M  V30 BEGIN CTAB
M  V30 COUNTS 24 25 0 0 0
M  V30 BEGIN ATOM
M  V30 1 N 2.52326 -2.48 -0.136972 0
M  V30 2 C 2.00324 -1.16156 -0.130856 0
M  V30 3 N 2.76696 -0.0784144 -0.279739 0
M  V30 4 C 2.25463 1.17282 -0.270267 0
M  V30 5 N 3.15093 2.25946 -0.435892 0
M  V30 6 N 0.935358 1.31735 -0.10582 0
M  V30 7 C 0.0676946 0.273059 0.054161 0
M  V30 8 C 0.624934 -0.953281 0.038913 0
M  V30 9 C -1.39192 0.541431 0.290755 0
M  V30 10 C -1.77235 1.77149 0.758401 0
M  V30 11 C -3.09441 2.00519 0.931789 0
M  V30 12 S -3.82492 0.560085 0.461443 0
M  V30 13 C -2.40554 -0.336773 0.0421361 0
M  V30 14 C -2.38094 -1.73309 -0.495956 0
M  V30 15 H 3.14751 -2.80758 -0.887381 0
M  V30 16 H 2.25784 -3.11361 0.639673 0
M  V30 17 H 3.24209 2.70379 -1.37214 0
M  V30 18 H 3.72228 2.62686 0.354443 0
M  V30 19 H 0.0505278 -1.83598 0.183983 0
M  V30 20 H -1.02619 2.57772 1.00292 0
M  V30 21 H -3.55631 2.94445 1.30156 0
M  V30 22 H -3.44221 -1.94306 -0.867054 0
M  V30 23 H -1.68552 -1.81572 -1.34348 0
M  V30 24 H -2.16698 -2.49463 0.265386 0
M  V30 END ATOM
M  V30 BEGIN BOND
M  V30 1 1 1 2
M  V30 2 2 2 3
M  V30 3 1 3 4
M  V30 4 1 4 5
M  V30 5 2 4 6
M  V30 6 1 6 7
M  V30 7 2 7 8
M  V30 8 1 7 9
M  V30 9 1 9 10
M  V30 10 2 10 11
M  V30 11 1 11 12
M  V30 12 1 12 13
M  V30 13 1 13 14
M  V30 14 1 8 2
M  V30 15 2 13 9
M  V30 16 1 1 15
M  V30 17 1 1 16
M  V30 18 1 5 17
M  V30 19 1 5 18
M  V30 20 1 8 19
M  V30 21 1 10 20
M  V30 22 1 11 21
M  V30 23 1 14 22
M  V30 24 1 14 23
M  V30 25 1 14 24
M  V30 END BOND
M  V30 END CTAB
M  END
