
     RDKit          3D

  0  0  0  0  0  0  0  0  0  0999 V3000
M  V30 BEGIN CTAB
M  V30 COUNTS 30 30 0 0 0
M  V30 BEGIN ATOM
M  V30 1 N 4.18054 0.168759 0.30929 0
M  V30 2 C 2.74081 -0.131743 0.397467 0
M  V30 3 C 1.92198 1.08176 0.204322 0
M  V30 4 C 0.445507 0.97748 0.302353 0
M  V30 5 C -0.27717 0.0937685 -0.627831 0
M  V30 6 C 0.0444205 -1.36223 -0.58798 0
M  V30 7 C -1.276 -2.10361 -0.74091 0
M  V30 8 C -2.15322 -1.00095 -1.28635 0
M  V30 9 N -1.69117 0.220963 -0.647006 0
M  V30 10 S -2.51002 0.408889 0.808576 0
M  V30 11 O -2.45258 -0.790325 1.70676 0
M  V30 12 O -3.98927 0.592074 0.482636 0
M  V30 13 N -2.04173 1.8501 1.63233 0
M  V30 14 H 4.33168 1.09524 -0.149919 0
M  V30 15 H 4.56169 0.237355 1.2606 0
M  V30 16 H 2.57528 -0.633373 1.34349 0
M  V30 17 H 2.59708 -0.87832 -0.430376 0
M  V30 18 H 2.14969 1.52396 -0.819222 0
M  V30 19 H 2.26171 1.8285 0.988764 0
M  V30 20 H 0.186493 0.626333 1.35032 0
M  V30 21 H 0.0789312 2.05076 0.212661 0
M  V30 22 H 0.0520959 0.42982 -1.67747 0
M  V30 23 H 0.519037 -1.71476 0.342093 0
M  V30 24 H 0.653647 -1.71909 -1.45835 0
M  V30 25 H -1.62711 -2.54339 0.189313 0
M  V30 26 H -1.24376 -2.90672 -1.49882 0
M  V30 27 H -1.96593 -0.901489 -2.37126 0
M  V30 28 H -3.2102 -1.20795 -1.12363 0
M  V30 29 H -2.15242 2.63173 0.944546 0
M  V30 30 H -2.71002 2.07646 2.417 0
M  V30 END ATOM
M  V30 BEGIN BOND
M  V30 1 1 1 2
M  V30 2 1 2 3
M  V30 3 1 3 4
M  V30 4 1 4 5
M  V30 5 1 5 6
M  V30 6 1 6 7
M  V30 7 1 7 8
M  V30 8 1 8 9
M  V30 9 1 9 10
M  V30 10 2 10 11
M  V30 11 2 10 12
M  V30 12 1 10 13
M  V30 13 1 9 5
M  V30 14 1 1 14
M  V30 15 1 1 15
M  V30 16 1 2 16
M  V30 17 1 2 17
M  V30 18 1 3 18
M  V30 19 1 3 19
M  V30 20 1 4 20
M  V30 21 1 4 21
M  V30 22 1 5 22
M  V30 23 1 6 23
M  V30 24 1 6 24
M  V30 25 1 7 25
M  V30 26 1 7 26
M  V30 27 1 8 27
M  V30 28 1 8 28
M  V30 29 1 13 29
M  V30 30 1 13 30
M  V30 END BOND
M  V30 END CTAB
M  END
