
     RDKit          3D

  0  0  0  0  0  0  0  0  0  0999 V3000
M  V30 BEGIN CTAB
M  V30 COUNTS 55 58 0 0 0
M  V30 BEGIN ATOM
M  V30 1 N -4.12166 1.49704 3.5487 0
M  V30 2 C -2.97991 1.50404 3.32409 0
M  V30 3 C -1.55224 1.49541 3.02412 0
M  V30 4 C -0.728993 2.09797 3.94311 0
M  V30 5 N -1.28957 2.67971 5.10245 0
M  V30 6 N 0.584869 2.07829 3.64488 0
M  V30 7 C 1.04195 1.49517 2.50484 0
M  V30 8 C 0.25671 0.884421 1.56359 0
M  V30 9 C -1.11489 0.89379 1.85465 0
M  V30 10 C -2.13142 0.303772 0.99794 0
M  V30 11 C -2.62983 -0.974688 1.19734 0
M  V30 12 C -3.60324 -1.52197 0.393397 0
M  V30 13 O -4.12822 -2.77409 0.545767 0
M  V30 14 C -3.77088 -3.71291 1.53866 0
M  V30 15 C -4.11264 -0.766769 -0.664753 0
M  V30 16 C -3.63531 0.503383 -0.88352 0
M  V30 17 C -2.66697 1.01068 -0.0611404 0
M  V30 18 O -4.16914 1.23455 -1.95564 0
M  V30 19 C -3.68328 2.54368 -2.18918 0
M  V30 20 O -5.0993 -1.27694 -1.50695 0
M  V30 21 C -4.79592 -1.99841 -2.68811 0
M  V30 22 C 0.872271 0.357919 0.49639 0
M  V30 23 N 0.200883 -0.331086 -0.602343 0
M  V30 24 C 2.23132 0.473023 0.433518 0
M  V30 25 S 2.61239 1.31544 1.87084 0
M  V30 26 C 3.16993 -0.0106143 -0.620575 0
M  V30 27 O 2.70338 -0.599827 -1.58445 0
M  V30 28 N 4.53801 0.245394 -0.4339 0
M  V30 29 C 5.61613 -0.0877291 -1.24204 0
M  V30 30 C 5.52618 -0.831769 -2.37705 0
M  V30 31 C 6.65177 -1.13288 -3.16171 0
M  V30 32 C 7.88265 -0.670764 -2.7855 0
M  V30 33 C 8.01256 0.0786076 -1.65305 0
M  V30 34 C 6.89762 0.363796 -0.896476 0
M  V30 35 H -1.90589 3.52225 5.10105 0
M  V30 36 H -1.08978 2.25847 6.03825 0
M  V30 37 H -2.22574 -1.5325 2.01117 0
M  V30 38 H -4.65037 -4.29803 1.87426 0
M  V30 39 H -3.1067 -4.46104 1.01648 0
M  V30 40 H -3.18286 -3.29013 2.3501 0
M  V30 41 H -2.29907 2.00366 -0.238679 0
M  V30 42 H -2.64759 2.50753 -2.60869 0
M  V30 43 H -3.63272 3.15613 -1.26493 0
M  V30 44 H -4.33404 3.05621 -2.94552 0
M  V30 45 H -5.36168 -2.95149 -2.71662 0
M  V30 46 H -3.7057 -2.12125 -2.72797 0
M  V30 47 H -5.09086 -1.40583 -3.60222 0
M  V30 48 H -0.0309747 -1.32802 -0.479853 0
M  V30 49 H -0.0340428 0.150335 -1.48224 0
M  V30 50 H 4.79364 0.783104 0.478485 0
M  V30 51 H 4.58263 -1.22849 -2.72574 0
M  V30 52 H 6.52016 -1.72575 -4.04952 0
M  V30 53 H 8.75225 -0.889252 -3.37095 0
M  V30 54 H 8.99383 0.460939 -1.33057 0
M  V30 55 H 7.0703 0.967504 -0.0041626 0
M  V30 END ATOM
M  V30 BEGIN BOND
M  V30 1 3 1 2
M  V30 2 1 2 3
M  V30 3 2 3 4
M  V30 4 1 4 5
M  V30 5 1 4 6
M  V30 6 2 6 7
M  V30 7 1 7 8
M  V30 8 2 8 9
M  V30 9 1 9 10
M  V30 10 2 10 11
M  V30 11 1 11 12
M  V30 12 1 12 13
M  V30 13 1 13 14
M  V30 14 2 12 15
M  V30 15 1 15 16
M  V30 16 2 16 17
M  V30 17 1 16 18
M  V30 18 1 18 19
M  V30 19 1 15 20
M  V30 20 1 20 21
M  V30 21 1 8 22
M  V30 22 1 22 23
M  V30 23 2 22 24
M  V30 24 1 24 25
M  V30 25 1 24 26
M  V30 26 2 26 27
M  V30 27 1 26 28
M  V30 28 1 28 29
M  V30 29 2 29 30
M  V30 30 1 30 31
M  V30 31 2 31 32
M  V30 32 1 32 33
M  V30 33 2 33 34
M  V30 34 1 9 3
M  V30 35 1 17 10
M  V30 36 1 34 29
M  V30 37 1 25 7
M  V30 38 1 5 35
M  V30 39 1 5 36
M  V30 40 1 11 37
M  V30 41 1 14 38
M  V30 42 1 14 39
M  V30 43 1 14 40
M  V30 44 1 17 41
M  V30 45 1 19 42
M  V30 46 1 19 43
M  V30 47 1 19 44
M  V30 48 1 21 45
M  V30 49 1 21 46
M  V30 50 1 21 47
M  V30 51 1 23 48
M  V30 52 1 23 49
M  V30 53 1 28 50
M  V30 54 1 30 51
M  V30 55 1 31 52
M  V30 56 1 32 53
M  V30 57 1 33 54
M  V30 58 1 34 55
M  V30 END BOND
M  V30 END CTAB
M  END
