
     RDKit          3D

  0  0  0  0  0  0  0  0  0  0999 V3000
M  V30 BEGIN CTAB
M  V30 COUNTS 42 44 0 0 0
M  V30 BEGIN ATOM
M  V30 1 C 7.20271 2.42704 0.699889 0
M  V30 2 C 6.20809 1.30579 0.541424 0
M  V30 3 O 4.92978 1.8697 0.464963 0
M  V30 4 C 3.76748 1.13246 0.316147 0
M  V30 5 C 3.77111 -0.232596 0.229867 0
M  V30 6 C 2.56718 -0.956757 0.0781772 0
M  V30 7 C 1.34062 -0.361064 0.00704467 0
M  V30 8 C 1.36616 1.03976 0.0988592 0
M  V30 9 C 2.53696 1.74126 0.246728 0
M  V30 10 C 0.0711878 -1.04108 -0.199173 0
M  V30 11 N -1.0229 -0.278794 0.0109595 0
M  V30 12 C -2.27763 -0.688955 -0.142461 0
M  V30 13 C -3.37606 0.0978476 0.0760563 0
M  V30 14 C -4.67466 -0.336471 -0.0848668 0
M  V30 15 C -4.832 -1.64889 -0.491462 0
M  V30 16 C -3.73653 -2.48691 -0.725783 0
M  V30 17 C -2.46806 -1.99156 -0.546736 0
M  V30 18 C -1.36676 -2.77751 -0.764776 0
M  V30 19 O -1.46218 -3.98295 -1.13722 0
M  V30 20 N -0.0990599 -2.29309 -0.588886 0
M  V30 21 N 0.980008 -3.16762 -0.873514 0
M  V30 22 C -5.8278 0.518544 0.153453 0
M  V30 23 O -6.97012 0.0141078 -0.0253508 0
M  V30 24 N -5.73763 1.85695 0.566228 0
M  V30 25 N -6.88679 2.62238 0.777123 0
M  V30 26 H 7.58437 2.67169 -0.319891 0
M  V30 27 H 6.7127 3.32629 1.08118 0
M  V30 28 H 8.07184 2.09434 1.29651 0
M  V30 29 H 6.40799 0.747425 -0.412559 0
M  V30 30 H 6.27756 0.558541 1.35674 0
M  V30 31 H 4.71056 -0.772558 0.278135 0
M  V30 32 H 2.66976 -2.02421 0.0468655 0
M  V30 33 H 0.399662 1.54118 0.0442874 0
M  V30 34 H 2.51955 2.82243 0.313483 0
M  V30 35 H -3.20099 1.12142 0.394272 0
M  V30 36 H -5.83067 -2.04663 -0.634802 0
M  V30 37 H -3.85528 -3.50514 -1.04117 0
M  V30 38 H 1.24804 -3.91618 -0.213297 0
M  V30 39 H 1.52646 -3.07923 -1.75558 0
M  V30 40 H -4.79727 2.32125 0.728483 0
M  V30 41 H -6.75115 3.60425 0.436757 0
M  V30 42 H -7.69623 2.15354 0.332115 0
M  V30 END ATOM
M  V30 BEGIN BOND
M  V30 1 1 1 2
M  V30 2 1 2 3
M  V30 3 1 3 4
M  V30 4 2 4 5
M  V30 5 1 5 6
M  V30 6 2 6 7
M  V30 7 1 7 8
M  V30 8 2 8 9
M  V30 9 1 7 10
M  V30 10 2 10 11
M  V30 11 1 11 12
M  V30 12 2 12 13
M  V30 13 1 13 14
M  V30 14 2 14 15
M  V30 15 1 15 16
M  V30 16 2 16 17
M  V30 17 1 17 18
M  V30 18 2 18 19
M  V30 19 1 18 20
M  V30 20 1 20 21
M  V30 21 1 14 22
M  V30 22 2 22 23
M  V30 23 1 22 24
M  V30 24 1 24 25
M  V30 25 1 9 4
M  V30 26 1 20 10
M  V30 27 1 17 12
M  V30 28 1 1 26
M  V30 29 1 1 27
M  V30 30 1 1 28
M  V30 31 1 2 29
M  V30 32 1 2 30
M  V30 33 1 5 31
M  V30 34 1 6 32
M  V30 35 1 8 33
M  V30 36 1 9 34
M  V30 37 1 13 35
M  V30 38 1 15 36
M  V30 39 1 16 37
M  V30 40 1 21 38
M  V30 41 1 21 39
M  V30 42 1 24 40
M  V30 43 1 25 41
M  V30 44 1 25 42
M  V30 END BOND
M  V30 END CTAB
M  END
