
     RDKit          3D

  0  0  0  0  0  0  0  0  0  0999 V3000
M  V30 BEGIN CTAB
M  V30 COUNTS 46 48 0 0 0
M  V30 BEGIN ATOM
M  V30 1 N -6.30989 -0.43799 0.276688 0
M  V30 2 C -5.39326 0.379134 -0.408646 0 CFG=1
M  V30 3 C -4.30001 -0.48911 -0.996791 0
M  V30 4 C -3.61969 -1.2082 0.160336 0
M  V30 5 S -2.94405 0.0729392 1.25676 0
M  V30 6 C -1.61283 0.992172 0.416142 0
M  V30 7 C -0.471527 0.0337037 0.195052 0
M  V30 8 O 0.612513 0.596019 -0.437739 0
M  V30 9 C 1.68451 -0.123285 0.0270002 0
M  V30 10 C 1.43593 -0.0453948 1.54136 0
M  V30 11 O 2.24296 -0.896609 2.25348 0
M  V30 12 C -0.0333607 -0.49095 1.53854 0
M  V30 13 O -0.0207563 -1.88627 1.48744 0
M  V30 14 N 2.97054 0.42861 -0.331814 0
M  V30 15 C 3.30983 1.61542 -0.810228 0
M  V30 16 N 4.63929 1.68144 -0.993441 0
M  V30 17 C 5.16832 0.486974 -0.616521 0
M  V30 18 C 4.10954 -0.276993 -0.208331 0
M  V30 19 N 4.38031 -1.54032 0.224959 0
M  V30 20 C 5.63403 -2.01366 0.2494 0
M  V30 21 N 6.65132 -1.25967 -0.15038 0
M  V30 22 C 6.45146 -0.0151133 -0.585166 0
M  V30 23 N 7.515 0.815064 -1.01638 0
M  V30 24 C -6.02615 1.24869 -1.43121 0
M  V30 25 O -5.31356 2.13135 -2.20514 0
M  V30 26 O -7.2586 1.1588 -1.57764 0
M  V30 27 H -6.59734 -0.177589 1.18864 0
M  V30 28 H -6.35131 -1.39076 -0.0158085 0
M  V30 29 H -4.94215 1.08259 0.342701 0
M  V30 30 H -4.74014 -1.232 -1.68988 0
M  V30 31 H -3.55414 0.14316 -1.50304 0
M  V30 32 H -2.79196 -1.84771 -0.191112 0
M  V30 33 H -4.33675 -1.84427 0.698388 0
M  V30 34 H -1.25482 1.75686 1.16031 0
M  V30 35 H -1.99926 1.45078 -0.495541 0
M  V30 36 H -0.87597 -0.803868 -0.435994 0
M  V30 37 H 1.63957 -1.20134 -0.235073 0
M  V30 38 H 1.50644 1.01427 1.86725 0
M  V30 39 H 2.80977 -0.370832 2.89667 0
M  V30 40 H -0.593519 -0.0878011 2.38145 0
M  V30 41 H -0.373846 -2.20469 0.619842 0
M  V30 42 H 2.60694 2.41633 -1.02113 0
M  V30 43 H 5.84579 -3.01678 0.594595 0
M  V30 44 H 8.08178 0.535194 -1.82642 0
M  V30 45 H 7.7118 1.69108 -0.516798 0
M  V30 46 H -5.29274 3.13065 -2.04584 0
M  V30 END ATOM
M  V30 BEGIN BOND
M  V30 1 1 1 2
M  V30 2 1 2 3
M  V30 3 1 3 4
M  V30 4 1 4 5
M  V30 5 1 5 6
M  V30 6 1 6 7
M  V30 7 1 7 8
M  V30 8 1 8 9
M  V30 9 1 9 10
M  V30 10 1 10 11
M  V30 11 1 10 12
M  V30 12 1 12 13
M  V30 13 1 9 14
M  V30 14 1 14 15
M  V30 15 2 15 16
M  V30 16 1 16 17
M  V30 17 2 17 18
M  V30 18 1 18 19
M  V30 19 2 19 20
M  V30 20 1 20 21
M  V30 21 2 21 22
M  V30 22 1 22 23
M  V30 23 1 2 24
M  V30 24 1 24 25
M  V30 25 2 24 26
M  V30 26 1 12 7
M  V30 27 1 18 14
M  V30 28 1 22 17
M  V30 29 1 1 27
M  V30 30 1 1 28
M  V30 31 1 2 29 CFG=1
M  V30 32 1 3 30
M  V30 33 1 3 31
M  V30 34 1 4 32
M  V30 35 1 4 33
M  V30 36 1 6 34
M  V30 37 1 6 35
M  V30 38 1 7 36
M  V30 39 1 9 37
M  V30 40 1 10 38
M  V30 41 1 11 39
M  V30 42 1 12 40
M  V30 43 1 13 41
M  V30 44 1 15 42
M  V30 45 1 20 43
M  V30 46 1 23 44
M  V30 47 1 23 45
M  V30 48 1 25 46
M  V30 END BOND
M  V30 END CTAB
M  END
