
     RDKit          3D

  0  0  0  0  0  0  0  0  0  0999 V3000
M  V30 BEGIN CTAB
M  V30 COUNTS 42 43 0 0 0
M  V30 BEGIN ATOM
M  V30 1 C 4.39773 -0.422378 2.34177 0
M  V30 2 O 3.25972 -1.12186 1.79689 0
M  V30 3 N 2.3232 -0.35945 1.11046 0
M  V30 4 C 2.26375 -0.37704 -0.198326 0
M  V30 5 C 1.24807 0.458178 -0.772661 0
M  V30 6 O 1.16478 0.541942 -2.04222 0
M  V30 7 N 0.320832 1.19887 0.0303294 0
M  V30 8 C -0.644373 2.01165 -0.629169 0 CFG=1
M  V30 9 C -2.06341 1.39937 -0.716209 0 CFG=1
M  V30 10 S -2.37611 0.153613 0.531915 0
M  V30 11 C -4.05537 -0.54441 0.327329 0
M  V30 12 C -4.32523 -1.64405 1.30537 0
M  V30 13 N -3.4071 -2.76085 1.17277 0
M  V30 14 N -2.53012 2.72463 -0.498535 0
M  V30 15 C -1.3253 3.02571 0.179058 0
M  V30 16 O -0.983563 3.83269 1.09614 0
M  V30 17 S -3.92445 3.64263 -0.861489 0
M  V30 18 O -4.00996 5.0607 0.028516 0
M  V30 19 O -5.17955 2.82987 -0.717034 0
M  V30 20 O -3.80219 4.06246 -2.32068 0
M  V30 21 C 3.17233 -1.24172 -0.995319 0
M  V30 22 C 3.1441 -1.34508 -2.36562 0
M  V30 23 S 4.39469 -2.50868 -2.65679 0
M  V30 24 C 4.85473 -2.77084 -1.0413 0
M  V30 25 N 5.88657 -3.66908 -0.543305 0
M  V30 26 N 4.05915 -1.98578 -0.38292 0
M  V30 27 H 4.81833 0.266407 1.55002 0
M  V30 28 H 5.17977 -1.12599 2.6912 0
M  V30 29 H 4.10001 0.172685 3.22775 0
M  V30 30 H 0.373702 1.12704 1.04659 0
M  V30 31 H -0.343633 2.29722 -1.67422 0
M  V30 32 H -2.26367 0.973668 -1.73136 0
M  V30 33 H -4.18028 -0.937636 -0.695403 0
M  V30 34 H -4.82763 0.251029 0.518705 0
M  V30 35 H -4.30038 -1.30496 2.35625 0
M  V30 36 H -5.34056 -2.08435 1.14394 0
M  V30 37 H -3.89103 -3.673 1.3734 0
M  V30 38 H -3.10245 -2.82693 0.174089 0
M  V30 39 H -3.11489 5.4112 0.262009 0
M  V30 40 H 2.51945 -0.849828 -3.12495 0
M  V30 41 H 5.73832 -4.68262 -0.467558 0
M  V30 42 H 6.77204 -3.20504 -0.277195 0
M  V30 END ATOM
M  V30 BEGIN BOND
M  V30 1 1 1 2
M  V30 2 1 2 3
M  V30 3 2 3 4
M  V30 4 1 4 5
M  V30 5 2 5 6
M  V30 6 1 5 7
M  V30 7 1 7 8
M  V30 8 1 8 9
M  V30 9 1 9 10
M  V30 10 1 10 11
M  V30 11 1 11 12
M  V30 12 1 12 13
M  V30 13 1 9 14
M  V30 14 1 14 15
M  V30 15 2 15 16
M  V30 16 1 14 17
M  V30 17 1 17 18
M  V30 18 2 17 19
M  V30 19 2 17 20
M  V30 20 1 4 21
M  V30 21 2 21 22
M  V30 22 1 22 23
M  V30 23 1 23 24
M  V30 24 1 24 25
M  V30 25 2 24 26
M  V30 26 1 15 8
M  V30 27 1 26 21
M  V30 28 1 1 27
M  V30 29 1 1 28
M  V30 30 1 1 29
M  V30 31 1 7 30
M  V30 32 1 8 31 CFG=3
M  V30 33 1 9 32 CFG=3
M  V30 34 1 11 33
M  V30 35 1 11 34
M  V30 36 1 12 35
M  V30 37 1 12 36
M  V30 38 1 13 37
M  V30 39 1 13 38
M  V30 40 1 18 39
M  V30 41 1 22 40
M  V30 42 1 25 41
M  V30 43 1 25 42
M  V30 END BOND
M  V30 END CTAB
M  END
