
     RDKit          3D

  0  0  0  0  0  0  0  0  0  0999 V3000
M  V30 BEGIN CTAB
M  V30 COUNTS 22 21 0 0 0
M  V30 BEGIN ATOM
M  V30 1 N 2.8958 1.09773 0.35441 0
M  V30 2 C 1.62911 1.10423 -0.307386 0
M  V30 3 C 0.89849 0.00389165 -0.383868 0
M  V30 4 C -0.411005 -0.0513685 -1.05089 0
M  V30 5 C -1.53104 -0.460425 -0.127385 0
M  V30 6 N -2.75068 -0.470012 -0.921329 0
M  V30 7 C -1.72462 0.506589 1.00985 0
M  V30 8 C 1.44178 -1.22633 0.239255 0
M  V30 9 H 3.63701 0.390756 0.132925 0
M  V30 10 H 3.09849 1.80186 1.07075 0
M  V30 11 H 1.27383 2.02608 -0.747319 0
M  V30 12 H -0.704783 0.91842 -1.50133 0
M  V30 13 H -0.423835 -0.786182 -1.89967 0
M  V30 14 H -1.36074 -1.45585 0.2854 0
M  V30 15 H -2.78462 -1.39985 -1.41979 0
M  V30 16 H -2.65392 0.245812 -1.67602 0
M  V30 17 H -1.53936 1.56172 0.70673 0
M  V30 18 H -1.11488 0.282488 1.89362 0
M  V30 19 H -2.7887 0.461865 1.32115 0
M  V30 20 H 2.35345 -1.50076 -0.364933 0
M  V30 21 H 1.82006 -0.984012 1.25965 0
M  V30 22 H 0.740157 -2.06666 0.241105 0
M  V30 END ATOM
M  V30 BEGIN BOND
M  V30 1 1 1 2
M  V30 2 2 2 3
M  V30 3 1 3 4
M  V30 4 1 4 5
M  V30 5 1 5 6
M  V30 6 1 5 7
M  V30 7 1 3 8
M  V30 8 1 1 9
M  V30 9 1 1 10
M  V30 10 1 2 11
M  V30 11 1 4 12
M  V30 12 1 4 13
M  V30 13 1 5 14
M  V30 14 1 6 15
M  V30 15 1 6 16
M  V30 16 1 7 17
M  V30 17 1 7 18
M  V30 18 1 7 19
M  V30 19 1 8 20
M  V30 20 1 8 21
M  V30 21 1 8 22
M  V30 END BOND
M  V30 END CTAB
M  END
