
     RDKit          3D

  0  0  0  0  0  0  0  0  0  0999 V3000
M  V30 BEGIN CTAB
M  V30 COUNTS 58 57 0 0 0
M  V30 BEGIN ATOM
M  V30 1 N -1.17406 0.0563757 0.323292 0
M  V30 2 C -1.43653 -1.36242 0.444118 0
M  V30 3 C -2.85205 -1.60172 0.0480832 0
M  V30 4 O -3.26989 -2.78742 0.0880032 0
M  V30 5 N -3.70711 -0.549528 -0.359517 0
M  V30 6 C -5.07402 -0.798297 -0.738146 0
M  V30 7 C -6.01972 -0.0580405 0.147437 0
M  V30 8 O -5.55511 0.656814 1.06756 0
M  V30 9 O -7.38788 -0.127214 -0.0036926 0
M  V30 10 C -5.33924 -0.316349 -2.14797 0
M  V30 11 C -5.08467 1.17014 -2.27273 0
M  V30 12 C -4.49597 -1.01011 -3.17545 0
M  V30 13 C -0.488252 -2.13098 -0.404949 0
M  V30 14 S 1.24415 -1.9528 -0.0259788 0
M  V30 15 S 1.7786 -2.76327 1.83603 0
M  V30 16 C 1.71015 -1.63702 3.20561 0
M  V30 17 C 2.75612 -0.598859 3.29652 0
M  V30 18 C 2.90788 0.355622 2.21131 0
M  V30 19 O 1.92241 0.886838 1.68103 0
M  V30 20 N 4.21153 0.690019 1.75055 0
M  V30 21 C 4.40559 1.6452 0.67688 0
M  V30 22 C 3.94362 2.98645 1.06744 0
M  V30 23 O 3.45802 3.20607 2.21925 0
M  V30 24 O 4.00507 4.07935 0.227307 0
M  V30 25 C 3.83848 1.15733 -0.628438 0
M  V30 26 C 4.07921 2.19293 -1.69311 0
M  V30 27 C 4.57645 -0.142375 -0.974873 0
M  V30 28 N 4.05269 -1.18073 3.64398 0
M  V30 29 H -0.268283 0.255919 -0.182916 0
M  V30 30 H -1.17915 0.552307 1.23509 0
M  V30 31 H -1.32561 -1.59945 1.52718 0
M  V30 32 H -3.35781 0.430076 -0.392216 0
M  V30 33 H -5.34879 -1.86909 -0.66469 0
M  V30 34 H -7.8882 -0.239414 -0.853745 0
M  V30 35 H -6.41144 -0.464138 -2.41811 0
M  V30 36 H -5.49403 1.74303 -1.41934 0
M  V30 37 H -5.59029 1.51728 -3.20942 0
M  V30 38 H -4.00569 1.31031 -2.41844 0
M  V30 39 H -3.45466 -0.995188 -2.8545 0
M  V30 40 H -4.5684 -0.39729 -4.11398 0
M  V30 41 H -4.8538 -2.02274 -3.43609 0
M  V30 42 H -0.826082 -3.20201 -0.380598 0
M  V30 43 H -0.617536 -1.84954 -1.49189 0
M  V30 44 H 0.687283 -1.1857 3.25917 0
M  V30 45 H 1.79572 -2.26124 4.14903 0
M  V30 46 H 2.50022 0.0199026 4.22843 0
M  V30 47 H 5.03662 0.222128 2.21338 0
M  V30 48 H 5.53135 1.685 0.509013 0
M  V30 49 H 4.87606 4.59752 0.139348 0
M  V30 50 H 2.76429 0.93677 -0.60953 0
M  V30 51 H 3.24938 2.89427 -1.74499 0
M  V30 52 H 4.18433 1.71581 -2.70421 0
M  V30 53 H 5.02133 2.72346 -1.5045 0
M  V30 54 H 5.47149 0.0474322 -1.59009 0
M  V30 55 H 3.8863 -0.791646 -1.54586 0
M  V30 56 H 4.86773 -0.638743 -0.00683038 0
M  V30 57 H 3.95235 -2.23442 3.59443 0
M  V30 58 H 4.35982 -0.966639 4.60044 0
M  V30 END ATOM
M  V30 BEGIN BOND
M  V30 1 1 1 2
M  V30 2 1 2 3
M  V30 3 2 3 4
M  V30 4 1 3 5
M  V30 5 1 5 6
M  V30 6 1 6 7
M  V30 7 2 7 8
M  V30 8 1 7 9
M  V30 9 1 6 10
M  V30 10 1 10 11
M  V30 11 1 10 12
M  V30 12 1 2 13
M  V30 13 1 13 14
M  V30 14 1 14 15
M  V30 15 1 15 16
M  V30 16 1 16 17
M  V30 17 1 17 18
M  V30 18 2 18 19
M  V30 19 1 18 20
M  V30 20 1 20 21
M  V30 21 1 21 22
M  V30 22 2 22 23
M  V30 23 1 22 24
M  V30 24 1 21 25
M  V30 25 1 25 26
M  V30 26 1 25 27
M  V30 27 1 17 28
M  V30 28 1 1 29
M  V30 29 1 1 30
M  V30 30 1 2 31
M  V30 31 1 5 32
M  V30 32 1 6 33
M  V30 33 1 9 34
M  V30 34 1 10 35
M  V30 35 1 11 36
M  V30 36 1 11 37
M  V30 37 1 11 38
M  V30 38 1 12 39
M  V30 39 1 12 40
M  V30 40 1 12 41
M  V30 41 1 13 42
M  V30 42 1 13 43
M  V30 43 1 16 44
M  V30 44 1 16 45
M  V30 45 1 17 46
M  V30 46 1 20 47
M  V30 47 1 21 48
M  V30 48 1 24 49
M  V30 49 1 25 50
M  V30 50 1 26 51
M  V30 51 1 26 52
M  V30 52 1 26 53
M  V30 53 1 27 54
M  V30 54 1 27 55
M  V30 55 1 27 56
M  V30 56 1 28 57
M  V30 57 1 28 58
M  V30 END BOND
M  V30 END CTAB
M  END
