
     RDKit          3D

  0  0  0  0  0  0  0  0  0  0999 V3000
M  V30 BEGIN CTAB
M  V30 COUNTS 26 27 0 0 0
M  V30 BEGIN ATOM
M  V30 1 N -2.65122 -2.72113 0.557544 0
M  V30 2 N -1.94015 -1.60717 0.0904135 0
M  V30 3 C -1.95756 -0.414713 0.808204 0
M  V30 4 O -2.62934 -0.342035 1.88749 0
M  V30 5 C -1.25585 0.83681 0.424989 0
M  V30 6 N -1.93263 1.95948 0.448896 0
M  V30 7 C -1.38877 3.0915 0.0893872 0
M  V30 8 S 0.181477 2.58205 -0.315425 0
M  V30 9 C 0.0285484 0.872682 0.0233546 0
M  V30 10 C 1.1183 -0.0480517 -0.164433 0
M  V30 11 C 2.14085 0.323753 -1.05694 0
M  V30 12 C 3.2594 -0.447838 -1.25648 0
M  V30 13 C 3.44671 -1.63727 -0.590686 0
M  V30 14 C 2.47028 -2.02821 0.286919 0
M  V30 15 C 1.33053 -1.23117 0.484261 0
M  V30 16 Cl 4.85883 -2.64003 -0.825396 0
M  V30 17 N -2.00587 4.37557 0.0668255 0
M  V30 18 H -3.12649 -2.48664 1.44301 0
M  V30 19 H -3.26934 -3.1319 -0.167269 0
M  V30 20 H -1.41524 -1.6993 -0.808953 0
M  V30 21 H 2.04451 1.26779 -1.61888 0
M  V30 22 H 4.04132 -0.149694 -1.94927 0
M  V30 23 H 2.52735 -2.93932 0.851918 0
M  V30 24 H 0.595226 -1.52738 1.20672 0
M  V30 25 H -2.59623 4.74461 0.840747 0
M  V30 26 H -1.87464 4.99761 -0.756943 0
M  V30 END ATOM
M  V30 BEGIN BOND
M  V30 1 1 1 2
M  V30 2 1 2 3
M  V30 3 2 3 4
M  V30 4 1 3 5
M  V30 5 1 5 6
M  V30 6 2 6 7
M  V30 7 1 7 8
M  V30 8 1 8 9
M  V30 9 1 9 10
M  V30 10 2 10 11
M  V30 11 1 11 12
M  V30 12 2 12 13
M  V30 13 1 13 14
M  V30 14 2 14 15
M  V30 15 1 13 16
M  V30 16 1 7 17
M  V30 17 2 9 5
M  V30 18 1 15 10
M  V30 19 1 1 18
M  V30 20 1 1 19
M  V30 21 1 2 20
M  V30 22 1 11 21
M  V30 23 1 12 22
M  V30 24 1 14 23
M  V30 25 1 15 24
M  V30 26 1 17 25
M  V30 27 1 17 26
M  V30 END BOND
M  V30 END CTAB
M  END
