
     RDKit          3D

  0  0  0  0  0  0  0  0  0  0999 V3000
M  V30 BEGIN CTAB
M  V30 COUNTS 20 20 0 0 0
M  V30 BEGIN ATOM
M  V30 1 N -3.68793 -0.475991 -0.21724 0
M  V30 2 N -2.69681 0.169799 -1.00359 0
M  V30 3 C -1.3367 0.0486348 -0.614077 0
M  V30 4 C -0.887591 0.923007 0.396617 0
M  V30 5 C 0.422102 0.836746 0.806914 0
M  V30 6 C 1.27284 -0.0745693 0.249074 0
M  V30 7 N 2.60099 -0.118024 0.751936 0
M  V30 8 N 3.53445 0.819151 0.314038 0
M  V30 9 C 0.881726 -0.946399 -0.738192 0
M  V30 10 C -0.438075 -0.838135 -1.13257 0
M  V30 11 H -3.86108 0.213587 0.560225 0
M  V30 12 H -3.31265 -1.38202 0.176601 0
M  V30 13 H -2.95816 0.720882 -1.83767 0
M  V30 14 H -1.57757 1.6329 0.823277 0
M  V30 15 H 0.784515 1.51749 1.59479 0
M  V30 16 H 2.87902 -0.839354 1.44535 0
M  V30 17 H 3.16753 1.78152 0.58352 0
M  V30 18 H 4.42149 0.743322 0.897648 0
M  V30 19 H 1.58065 -1.65429 -1.15278 0
M  V30 20 H -0.788747 -1.50443 -1.90387 0
M  V30 END ATOM
M  V30 BEGIN BOND
M  V30 1 1 1 2
M  V30 2 1 2 3
M  V30 3 2 3 4
M  V30 4 1 4 5
M  V30 5 2 5 6
M  V30 6 1 6 7
M  V30 7 1 7 8
M  V30 8 1 6 9
M  V30 9 2 9 10
M  V30 10 1 10 3
M  V30 11 1 1 11
M  V30 12 1 1 12
M  V30 13 1 2 13
M  V30 14 1 4 14
M  V30 15 1 5 15
M  V30 16 1 7 16
M  V30 17 1 8 17
M  V30 18 1 8 18
M  V30 19 1 9 19
M  V30 20 1 10 20
M  V30 END BOND
M  V30 END CTAB
M  END
