
     RDKit          3D

  0  0  0  0  0  0  0  0  0  0999 V3000
M  V30 BEGIN CTAB
M  V30 COUNTS 20 20 0 0 0
M  V30 BEGIN ATOM
M  V30 1 N -1.95289 -1.79329 -2.65552 0
M  V30 2 C -1.5163 -1.21119 -1.77597 0
M  V30 3 C -0.98076 -0.45091 -0.65998 0
M  V30 4 C -1.65042 0.454368 -0.0351011 0
M  V30 5 N -2.99753 0.796461 -0.390755 0
M  V30 6 C -1.06042 1.16729 1.12034 0
M  V30 7 C 0.418278 -0.732779 -0.266837 0
M  V30 8 C 0.80207 -2.0554 -0.0695842 0
M  V30 9 S 2.45967 -1.86507 0.305649 0
M  V30 10 C 2.5658 -0.13972 0.191115 0
M  V30 11 N 1.33586 0.161967 -0.122472 0
M  V30 12 N 3.72936 0.688651 0.386254 0
M  V30 13 H -3.35246 1.76652 -0.361794 0
M  V30 14 H -3.61706 0.0150908 -0.689051 0
M  V30 15 H -1.82172 1.75211 1.69693 0
M  V30 16 H -0.330073 1.91921 0.764649 0
M  V30 17 H -0.505266 0.493264 1.80807 0
M  V30 18 H 0.167893 -2.94842 -0.144394 0
M  V30 19 H 4.32304 0.964735 -0.435003 0
M  V30 20 H 3.98294 1.0171 1.33346 0
M  V30 END ATOM
M  V30 BEGIN BOND
M  V30 1 3 1 2
M  V30 2 1 2 3
M  V30 3 2 3 4 CFG=2
M  V30 4 1 4 5
M  V30 5 1 4 6
M  V30 6 1 3 7
M  V30 7 2 7 8
M  V30 8 1 8 9
M  V30 9 1 9 10
M  V30 10 2 10 11
M  V30 11 1 10 12
M  V30 12 1 11 7
M  V30 13 1 5 13
M  V30 14 1 5 14
M  V30 15 1 6 15
M  V30 16 1 6 16
M  V30 17 1 6 17
M  V30 18 1 8 18
M  V30 19 1 12 19
M  V30 20 1 12 20
M  V30 END BOND
M  V30 END CTAB
M  END
