
     RDKit          3D

  0  0  0  0  0  0  0  0  0  0999 V3000
M  V30 BEGIN CTAB
M  V30 COUNTS 32 32 0 0 0
M  V30 BEGIN ATOM
M  V30 1 N 2.24341 1.91835 -1.6656 0
M  V30 2 C 1.947 1.12189 -0.469506 0
M  V30 3 C 3.01357 0.0929021 -0.348933 0
M  V30 4 C 2.62408 -0.84267 0.773913 0
M  V30 5 C 1.39648 -1.57404 0.278943 0
M  V30 6 N 0.303492 -0.665896 0.0365211 0
M  V30 7 C 0.542714 0.620217 -0.534646 0
M  V30 8 C -1.00521 -1.07784 0.363809 0
M  V30 9 O -1.12069 -2.2559 0.852441 0
M  V30 10 C -2.23931 -0.282241 0.194476 0
M  V30 11 N -3.36816 -1.17445 0.513774 0
M  V30 12 C -2.3438 0.879416 1.13236 0
M  V30 13 C -2.44495 0.169341 -1.22788 0
M  V30 14 H 1.95904 2.90671 -1.49265 0
M  V30 15 H 1.70793 1.4733 -2.44832 0
M  V30 16 H 2.07921 1.83598 0.391814 0
M  V30 17 H 3.95701 0.610388 -0.0785933 0
M  V30 18 H 3.17074 -0.486247 -1.27823 0
M  V30 19 H 2.43104 -0.222724 1.66547 0
M  V30 20 H 3.40696 -1.58868 0.991287 0
M  V30 21 H 1.70035 -2.12894 -0.633382 0
M  V30 22 H 1.14345 -2.32637 1.07088 0
M  V30 23 H 0.237634 0.629298 -1.62153 0
M  V30 24 H -0.0888635 1.43684 -0.0940403 0
M  V30 25 H -3.30434 -1.33257 1.53927 0
M  V30 26 H -3.23094 -2.06505 -0.00805548 0
M  V30 27 H -1.50591 0.791892 1.87101 0
M  V30 28 H -3.27497 0.825605 1.69914 0
M  V30 29 H -2.33459 1.86015 0.621386 0
M  V30 30 H -3.53364 0.168871 -1.4323 0
M  V30 31 H -1.99043 -0.52314 -1.97012 0
M  V30 32 H -2.07832 1.2056 -1.41066 0
M  V30 END ATOM
M  V30 BEGIN BOND
M  V30 1 1 1 2
M  V30 2 1 2 3
M  V30 3 1 3 4
M  V30 4 1 4 5
M  V30 5 1 5 6
M  V30 6 1 6 7
M  V30 7 1 6 8
M  V30 8 2 8 9
M  V30 9 1 8 10
M  V30 10 1 10 11
M  V30 11 1 10 12
M  V30 12 1 10 13
M  V30 13 1 7 2
M  V30 14 1 1 14
M  V30 15 1 1 15
M  V30 16 1 2 16
M  V30 17 1 3 17
M  V30 18 1 3 18
M  V30 19 1 4 19
M  V30 20 1 4 20
M  V30 21 1 5 21
M  V30 22 1 5 22
M  V30 23 1 7 23
M  V30 24 1 7 24
M  V30 25 1 11 25
M  V30 26 1 11 26
M  V30 27 1 12 27
M  V30 28 1 12 28
M  V30 29 1 12 29
M  V30 30 1 13 30
M  V30 31 1 13 31
M  V30 32 1 13 32
M  V30 END BOND
M  V30 END CTAB
M  END
