
     RDKit          3D

  0  0  0  0  0  0  0  0  0  0999 V3000
M  V30 BEGIN CTAB
M  V30 COUNTS 21 21 0 0 0
M  V30 BEGIN ATOM
M  V30 1 N 3.43284 -0.741506 -1.08007 0
M  V30 2 C 2.70567 -0.772323 0.118742 0
M  V30 3 S 3.39762 -1.3345 1.46797 0
M  V30 4 C 1.33834 -0.301254 0.145987 0
M  V30 5 C 1.10884 1.04852 0.354284 0
M  V30 6 C -0.169013 1.56193 0.391452 0
M  V30 7 C -1.27717 0.759305 0.223614 0
M  V30 8 C -1.03442 -0.597054 0.0147277 0
M  V30 9 C 0.245413 -1.1065 -0.0217308 0
M  V30 10 N -2.17977 -1.41261 -0.156505 0
M  V30 11 C -2.65932 1.28694 0.259382 0
M  V30 12 H 3.19449 -1.40418 -1.84117 0
M  V30 13 H 4.20394 -0.0545768 -1.19428 0
M  V30 14 H 1.97396 1.71171 0.49118 0
M  V30 15 H -0.353754 2.62378 0.555169 0
M  V30 16 H 0.395881 -2.16414 -0.185983 0
M  V30 17 H -2.20749 -2.36789 0.248337 0
M  V30 18 H -3.00671 -1.07328 -0.685897 0
M  V30 19 H -2.73125 2.12194 1.01791 0
M  V30 20 H -3.39248 0.529379 0.606144 0
M  V30 21 H -2.98564 1.68632 -0.72927 0
M  V30 END ATOM
M  V30 BEGIN BOND
M  V30 1 1 1 2
M  V30 2 2 2 3
M  V30 3 1 2 4
M  V30 4 2 4 5
M  V30 5 1 5 6
M  V30 6 2 6 7
M  V30 7 1 7 8
M  V30 8 2 8 9
M  V30 9 1 8 10
M  V30 10 1 7 11
M  V30 11 1 9 4
M  V30 12 1 1 12
M  V30 13 1 1 13
M  V30 14 1 5 14
M  V30 15 1 6 15
M  V30 16 1 9 16
M  V30 17 1 10 17
M  V30 18 1 10 18
M  V30 19 1 11 19
M  V30 20 1 11 20
M  V30 21 1 11 21
M  V30 END BOND
M  V30 END CTAB
M  END
