
     RDKit          3D

  0  0  0  0  0  0  0  0  0  0999 V3000
M  V30 BEGIN CTAB
M  V30 COUNTS 26 26 0 0 0
M  V30 BEGIN ATOM
M  V30 1 C 3.22905 -1.34777 -1.34354 0
M  V30 2 O 2.00209 -1.01904 -0.731397 0
M  V30 3 C 1.51402 0.246094 -0.583103 0
M  V30 4 O 2.27897 1.16778 -1.0593 0
M  V30 5 C 0.266862 0.614765 0.0398544 0
M  V30 6 C -0.0391044 1.98102 0.105213 0
M  V30 7 N 0.86913 2.89792 -0.472521 0
M  V30 8 C -1.20413 2.3931 0.722924 0
M  V30 9 C -2.08255 1.48256 1.28299 0
M  V30 10 C -1.76706 0.149016 1.20878 0
M  V30 11 C -0.589026 -0.297517 0.584573 0
M  V30 12 O -0.359272 -1.65739 0.550362 0
M  V30 13 C -0.885222 -2.44616 -0.497315 0
M  V30 14 F -0.0676533 -3.46474 -0.879429 0
M  V30 15 F -2.03202 -3.09198 0.0452465 0
M  V30 16 N -2.63928 -0.795195 1.78665 0
M  V30 17 H 3.94734 -0.519024 -1.35607 0
M  V30 18 H 2.98586 -1.71761 -2.36988 0
M  V30 19 H 3.69483 -2.19778 -0.808625 0
M  V30 20 H 0.775528 3.07828 -1.49625 0
M  V30 21 H 1.61714 3.40133 0.0438957 0
M  V30 22 H -1.41088 3.46686 0.755268 0
M  V30 23 H -2.97512 1.85643 1.75278 0
M  V30 24 H -1.248 -1.84402 -1.36489 0
M  V30 25 H -2.28663 -1.32121 2.62686 0
M  V30 26 H -3.59487 -1.01572 1.45692 0
M  V30 END ATOM
M  V30 BEGIN BOND
M  V30 1 1 1 2
M  V30 2 1 2 3
M  V30 3 2 3 4
M  V30 4 1 3 5
M  V30 5 2 5 6
M  V30 6 1 6 7
M  V30 7 1 6 8
M  V30 8 2 8 9
M  V30 9 1 9 10
M  V30 10 2 10 11
M  V30 11 1 11 12
M  V30 12 1 12 13
M  V30 13 1 13 14
M  V30 14 1 13 15
M  V30 15 1 10 16
M  V30 16 1 11 5
M  V30 17 1 1 17
M  V30 18 1 1 18
M  V30 19 1 1 19
M  V30 20 1 7 20
M  V30 21 1 7 21
M  V30 22 1 8 22
M  V30 23 1 9 23
M  V30 24 1 13 24
M  V30 25 1 16 25
M  V30 26 1 16 26
M  V30 END BOND
M  V30 END CTAB
M  END
