
     RDKit          3D

  0  0  0  0  0  0  0  0  0  0999 V3000
M  V30 BEGIN CTAB
M  V30 COUNTS 198 208 0 0 0
M  V30 BEGIN ATOM
M  V30 1 C 6.42389 -4.38026 -0.779226 0 CFG=2
M  V30 2 N 7.66252 -4.89704 -0.214112 0
M  V30 3 C 8.85577 -4.30587 0.0985576 0
M  V30 4 O 9.08656 -3.0685 -0.034481 0
M  V30 5 C 10.0592 -5.08293 0.647377 0 CFG=1
M  V30 6 C 10.4237 -6.114 -0.383272 0
M  V30 7 C 11.5924 -6.97649 -0.0562586 0
M  V30 8 C 12.8873 -6.19779 0.13872 0
M  V30 9 C 11.8947 -7.96104 -1.1971 0
M  V30 10 N 11.1268 -4.1844 0.946903 0
M  V30 11 C 10.7525 -3.25877 1.99759 0
M  V30 12 C 6.59753 -3.3823 -1.88137 0 CFG=2
M  V30 13 O 7.92948 -3.4405 -2.31937 0
M  V30 14 C 5.9142 -2.05258 -1.8637 0
M  V30 15 C 4.8606 -1.78324 -2.6941 0
M  V30 16 C 4.09487 -0.60503 -2.44908 0
M  V30 17 C 4.37674 0.256347 -1.41557 0
M  V30 18 O 3.42042 1.37958 -1.2107 0
M  V30 19 C 2.29807 0.956021 -0.35886 0
M  V30 20 C 1.62371 2.03118 0.239891 0
M  V30 21 O 2.10016 3.2985 -0.0901056 0
M  V30 22 C 1.62786 4.09024 -1.1368 0 CFG=2
M  V30 23 O 1.72189 3.30557 -2.37868 0
M  V30 24 C 0.724276 3.83097 -3.19017 0 CFG=2
M  V30 25 C 0.502201 3.02527 -4.45976 0
M  V30 26 O 0.128578 1.73432 -4.24161 0
M  V30 27 C 1.06451 5.25244 -3.526 0 CFG=1
M  V30 28 O -0.0153185 6.07279 -3.3153 0
M  V30 29 C 2.33561 5.69166 -2.88455 0 CFG=2
M  V30 30 O 3.36728 4.97885 -3.52211 0
M  V30 31 C 2.41473 5.30492 -1.39343 0 CFG=1
M  V30 32 O 2.08017 6.36275 -0.592786 0
M  V30 33 C 3.22888 6.92984 0.000435505 0 CFG=1
M  V30 34 C 3.32468 8.30733 -0.581621 0
M  V30 35 C 4.22645 9.18342 0.257419 0 CFG=2
M  V30 36 C 3.40528 10.0604 1.16423 0
M  V30 37 N 4.98789 10.0314 -0.644002 0
M  V30 38 C 5.16841 8.27344 1.01918 0 CFG=1
M  V30 39 O 5.90339 9.10642 1.85933 0
M  V30 40 C 4.44251 7.29483 1.90047 0 CFG=2
M  V30 41 C 5.30071 6.05574 2.04309 0
M  V30 42 O 3.21073 6.93005 1.36769 0
M  V30 43 C 0.585298 1.73742 1.07808 0
M  V30 44 C 0.221176 0.436617 1.34046 0
M  V30 45 C 0.88673 -0.642374 0.714147 0
M  V30 46 C 1.94284 -0.354698 -0.140665 0
M  V30 47 C 0.297925 -2.06649 0.750654 0 CFG=1
M  V30 48 N 0.881666 -2.96638 1.64721 0
M  V30 49 C 2.17447 -3.50922 1.59291 0
M  V30 50 O 2.8977 -3.64286 2.6405 0
M  V30 51 C 2.82093 -3.98146 0.3168 0 CFG=2
M  V30 52 C 1.98121 -5.22597 -0.0507624 0
M  V30 53 C 2.44543 -5.7406 -1.34093 0
M  V30 54 O 2.00219 -6.99999 -1.79734 0
M  V30 55 O 3.23042 -5.06001 -2.02759 0
M  V30 56 N 4.17597 -4.45843 0.618064 0
M  V30 57 C 5.4682 -4.10439 0.286163 0
M  V30 58 O 5.99204 -3.28169 1.22416 0
M  V30 59 C -1.21451 -1.92908 0.721586 0
M  V30 60 O -1.44838 -1.31698 -0.454116 0
M  V30 61 N -2.27449 -2.20439 1.46581 0
M  V30 62 C -3.34347 -3.07506 1.89739 0 CFG=2
M  V30 63 C -4.12567 -3.73977 0.771665 0
M  V30 64 C -5.47105 -3.93417 0.651623 0
M  V30 65 C -6.02516 -4.21855 -0.604088 0
M  V30 66 C -5.15688 -4.31072 -1.69126 0
M  V30 67 O -5.68746 -4.57379 -2.98545 0
M  V30 68 C -3.78462 -4.14588 -1.62613 0
M  V30 69 C -3.33146 -3.86481 -0.36842 0
M  V30 70 C -7.46465 -4.28091 -0.974595 0
M  V30 71 C -8.40406 -3.26454 -0.762855 0
M  V30 72 C -9.66078 -3.41118 -1.30955 0
M  V30 73 C -10.0555 -4.4971 -2.04633 0
M  V30 74 O -11.3581 -4.56049 -2.57571 0
M  V30 75 C -9.1395 -5.4964 -2.24582 0
M  V30 76 C -7.87509 -5.3825 -1.7143 0
M  V30 77 O -7.02433 -6.459 -1.93762 0
M  V30 78 C -8.21897 -2.07003 0.158588 0 CFG=2
M  V30 79 N -7.08289 -1.29066 0.0413928 0
M  V30 80 C -6.07124 -0.66529 0.752028 0
M  V30 81 O -5.08432 -0.290443 -0.00915912 0
M  V30 82 C -5.75925 -0.290152 2.10524 0 CFG=1
M  V30 83 N -4.79268 -1.04047 2.85361 0
M  V30 84 C -4.24757 -2.3129 2.84808 0
M  V30 85 O -4.55626 -3.06395 3.87152 0
M  V30 86 C -5.68475 1.26566 2.31114 0 CFG=2
M  V30 87 O -6.73223 1.7266 1.5303 0
M  V30 88 C -7.84445 2.19698 2.19924 0 CFG=1
M  V30 89 C -8.32568 3.51338 1.75236 0
M  V30 90 C -9.37672 3.52485 0.678965 0 CFG=2
M  V30 91 C -8.75786 3.45674 -0.734315 0
M  V30 92 N -10.0698 4.82017 0.73935 0
M  V30 93 C -10.3749 2.43715 0.822692 0 CFG=1
M  V30 94 O -10.4437 1.6116 -0.302487 0
M  V30 95 C -10.1184 1.59641 2.04497 0 CFG=2
M  V30 96 C -10.8062 2.13645 3.27195 0
M  V30 97 O -8.84178 1.20189 2.21851 0
M  V30 98 C -4.3154 1.83993 2.13296 0
M  V30 99 C -3.79014 2.29428 0.896779 0
M  V30 100 C -2.42098 2.67391 0.754085 0
M  V30 101 C -1.536 2.62802 1.74932 0
M  V30 102 O -0.0948005 2.93221 1.60484 0
M  V30 103 C -2.00988 2.21443 2.96844 0
M  V30 104 C -3.35184 1.83398 3.1354 0
M  V30 105 C -8.84514 -2.43544 1.43394 0
M  V30 106 O -9.94708 -3.35648 1.28797 0
M  V30 107 O -8.6494 -2.14712 2.59751 0
M  V30 108 C 5.40973 0.00322199 -0.647408 0
M  V30 109 Cl 6.17805 0.956122 0.712634 0
M  V30 110 C 6.22439 -1.17441 -0.84466 0
M  V30 111 H 6.02129 -5.35379 -1.31976 0
M  V30 112 H 7.60823 -5.95535 0.00676024 0
M  V30 113 H 9.69064 -5.56563 1.55846 0
M  V30 114 H 10.6236 -5.65469 -1.38835 0
M  V30 115 H 9.55428 -6.79765 -0.564675 0
M  V30 116 H 11.4839 -7.60197 0.830312 0
M  V30 117 H 13.0255 -5.83496 1.16939 0
M  V30 118 H 12.9213 -5.31574 -0.537778 0
M  V30 119 H 13.7717 -6.85263 -0.0859082 0
M  V30 120 H 12.2969 -7.4165 -2.08302 0
M  V30 121 H 12.69 -8.64865 -0.863737 0
M  V30 122 H 11.0288 -8.54617 -1.48869 0
M  V30 123 H 11.4053 -3.59202 0.127007 0
M  V30 124 H 11.4919 -3.21846 2.81156 0
M  V30 125 H 9.81228 -3.60762 2.4595 0
M  V30 126 H 10.6508 -2.22117 1.62182 0
M  V30 127 H 6.1905 -3.98153 -2.84824 0
M  V30 128 H 8.15143 -4.39175 -2.44441 0
M  V30 129 H 4.43733 -2.29315 -3.61449 0
M  V30 130 H 3.32447 -0.532279 -3.26236 0
M  V30 131 H 0.5381 4.19093 -1.06137 0
M  V30 132 H -0.231507 3.80239 -2.61406 0
M  V30 133 H 1.37276 3.08559 -5.15827 0
M  V30 134 H -0.336917 3.52565 -5.02124 0
M  V30 135 H -0.167525 1.35167 -5.1278 0
M  V30 136 H 1.24093 5.2693 -4.65149 0
M  V30 137 H -0.221203 6.29212 -2.39473 0
M  V30 138 H 2.54921 6.75745 -3.04078 0
M  V30 139 H 4.23047 5.06043 -3.03415 0
M  V30 140 H 3.53465 5.08735 -1.28306 0
M  V30 141 H 4.13691 6.36979 -0.311836 0
M  V30 142 H 3.75777 8.21279 -1.61812 0
M  V30 143 H 2.29812 8.75186 -0.677144 0
M  V30 144 H 2.32038 9.78067 1.01569 0
M  V30 145 H 3.54266 11.1285 0.90189 0
M  V30 146 H 3.60838 9.82173 2.22571 0
M  V30 147 H 4.97506 9.73376 -1.62689 0
M  V30 148 H 4.64306 10.9942 -0.553342 0
M  V30 149 H 5.91251 7.77083 0.371876 0
M  V30 150 H 6.76417 9.39791 1.48979 0
M  V30 151 H 4.34457 7.71461 2.92861 0
M  V30 152 H 6.33698 6.26202 1.69599 0
M  V30 153 H 4.93367 5.24805 1.37609 0
M  V30 154 H 5.3421 5.6854 3.09197 0
M  V30 155 H -0.461764 0.191476 2.25553 0
M  V30 156 H 2.5222 -1.17946 -0.663135 0
M  V30 157 H 0.338676 -2.61048 -0.25576 0
M  V30 158 H 0.295522 -3.28584 2.47828 0
M  V30 159 H 2.75197 -3.33423 -0.521253 0
M  V30 160 H 0.899465 -4.96747 -0.0881977 0
M  V30 161 H 2.1809 -5.99983 0.729035 0
M  V30 162 H 1.91847 -7.76574 -1.1748 0
M  V30 163 H 4.07901 -5.30172 1.3437 0
M  V30 164 H -2.48897 -1.27497 2.11285 0
M  V30 165 H -2.79865 -3.84387 2.4697 0
M  V30 166 H -6.14176 -3.98866 1.6022 0
M  V30 167 H -5.07587 -4.6443 -3.74845 0
M  V30 168 H -3.18373 -4.24077 -2.49178 0
M  V30 169 H -2.22163 -3.8318 -0.280004 0
M  V30 170 H -10.4302 -2.62165 -1.17261 0
M  V30 171 H -11.6589 -5.35244 -3.128 0
M  V30 172 H -9.46823 -6.34533 -2.82654 0
M  V30 173 H -6.15362 -6.71212 -1.6291 0
M  V30 174 H -9.04145 -1.32719 -0.231975 0
M  V30 175 H -6.95225 -1.11961 -1.06178 0
M  V30 176 H -6.77974 -0.394602 2.66275 0
M  V30 177 H -4.44245 -0.418191 3.6785 0
M  V30 178 H -6.15599 1.45387 3.30745 0
M  V30 179 H -7.56767 2.24876 3.29792 0
M  V30 180 H -8.61855 4.21412 2.58344 0
M  V30 181 H -7.43044 4.03896 1.29011 0
M  V30 182 H -8.53147 4.50777 -1.00886 0
M  V30 183 H -7.91557 2.7733 -0.757158 0
M  V30 184 H -9.63284 3.11612 -1.37949 0
M  V30 185 H -11.0043 4.72963 0.267588 0
M  V30 186 H -9.51205 5.48871 0.1687 0
M  V30 187 H -11.3931 2.89056 0.961111 0
M  V30 188 H -10.7836 0.719417 -0.0720739 0
M  V30 189 H -10.7092 0.630519 1.8243 0
M  V30 190 H -10.5101 1.43437 4.10724 0
M  V30 191 H -11.9088 2.0342 3.16748 0
M  V30 192 H -10.4958 3.13296 3.57612 0
M  V30 193 H -4.22882 2.43644 -0.0868955 0
M  V30 194 H -2.26778 3.03742 -0.319499 0
M  V30 195 H -1.45903 2.15112 3.94669 0
M  V30 196 H -3.4147 1.56219 4.22801 0
M  V30 197 H -10.7698 -3.24781 1.84231 0
M  V30 198 H 7.06442 -1.15138 -0.103134 0
M  V30 END ATOM
M  V30 BEGIN BOND
M  V30 1 1 1 2
M  V30 2 1 2 3
M  V30 3 2 3 4
M  V30 4 1 3 5
M  V30 5 1 5 6
M  V30 6 1 6 7
M  V30 7 1 7 8
M  V30 8 1 7 9
M  V30 9 1 5 10
M  V30 10 1 10 11
M  V30 11 1 1 12
M  V30 12 1 12 13
M  V30 13 1 12 14
M  V30 14 2 14 15
M  V30 15 1 15 16
M  V30 16 2 16 17
M  V30 17 1 17 18
M  V30 18 1 18 19
M  V30 19 1 19 20
M  V30 20 1 20 21
M  V30 21 1 21 22
M  V30 22 1 22 23
M  V30 23 1 23 24
M  V30 24 1 24 25
M  V30 25 1 25 26
M  V30 26 1 24 27
M  V30 27 1 27 28
M  V30 28 1 27 29
M  V30 29 1 29 30
M  V30 30 1 29 31
M  V30 31 1 31 32
M  V30 32 1 32 33
M  V30 33 1 33 34
M  V30 34 1 34 35
M  V30 35 1 35 36
M  V30 36 1 35 37 CFG=3
M  V30 37 1 35 38
M  V30 38 1 38 39
M  V30 39 1 38 40
M  V30 40 1 40 41
M  V30 41 1 40 42
M  V30 42 2 20 43
M  V30 43 1 43 44
M  V30 44 2 44 45
M  V30 45 1 45 46
M  V30 46 1 45 47
M  V30 47 1 47 48
M  V30 48 1 48 49
M  V30 49 2 49 50
M  V30 50 1 49 51
M  V30 51 1 51 52
M  V30 52 1 52 53
M  V30 53 1 53 54
M  V30 54 2 53 55
M  V30 55 1 51 56
M  V30 56 1 56 57
M  V30 57 2 57 58
M  V30 58 1 47 59
M  V30 59 2 59 60
M  V30 60 1 59 61
M  V30 61 1 61 62
M  V30 62 1 62 63
M  V30 63 2 63 64
M  V30 64 1 64 65
M  V30 65 2 65 66
M  V30 66 1 66 67
M  V30 67 1 66 68
M  V30 68 2 68 69
M  V30 69 1 65 70
M  V30 70 2 70 71
M  V30 71 1 71 72
M  V30 72 2 72 73
M  V30 73 1 73 74
M  V30 74 1 73 75
M  V30 75 2 75 76
M  V30 76 1 76 77
M  V30 77 1 71 78
M  V30 78 1 78 79
M  V30 79 1 79 80
M  V30 80 2 80 81
M  V30 81 1 80 82
M  V30 82 1 82 83
M  V30 83 1 83 84
M  V30 84 2 84 85
M  V30 85 1 82 86
M  V30 86 1 86 87
M  V30 87 1 87 88
M  V30 88 1 88 89
M  V30 89 1 89 90
M  V30 90 1 90 91
M  V30 91 1 90 92 CFG=3
M  V30 92 1 90 93
M  V30 93 1 93 94
M  V30 94 1 93 95
M  V30 95 1 95 96
M  V30 96 1 95 97
M  V30 97 1 86 98
M  V30 98 2 98 99
M  V30 99 1 99 100
M  V30 100 2 100 101
M  V30 101 1 101 102
M  V30 102 1 101 103
M  V30 103 2 103 104
M  V30 104 1 78 105
M  V30 105 1 105 106
M  V30 106 2 105 107
M  V30 107 1 17 108
M  V30 108 1 108 109
M  V30 109 2 108 110
M  V30 110 1 57 1
M  V30 111 1 84 62
M  V30 112 1 97 88
M  V30 113 1 104 98
M  V30 114 1 110 14
M  V30 115 2 46 19
M  V30 116 1 69 63
M  V30 117 1 76 70
M  V30 118 1 31 22
M  V30 119 1 42 33
M  V30 120 1 102 43
M  V30 121 1 1 111 CFG=3
M  V30 122 1 2 112
M  V30 123 1 5 113 CFG=1
M  V30 124 1 6 114
M  V30 125 1 6 115
M  V30 126 1 7 116
M  V30 127 1 8 117
M  V30 128 1 8 118
M  V30 129 1 8 119
M  V30 130 1 9 120
M  V30 131 1 9 121
M  V30 132 1 9 122
M  V30 133 1 10 123
M  V30 134 1 11 124
M  V30 135 1 11 125
M  V30 136 1 11 126
M  V30 137 1 12 127 CFG=3
M  V30 138 1 13 128
M  V30 139 1 15 129
M  V30 140 1 16 130
M  V30 141 1 22 131 CFG=1
M  V30 142 1 24 132 CFG=1
M  V30 143 1 25 133
M  V30 144 1 25 134
M  V30 145 1 26 135
M  V30 146 1 27 136 CFG=3
M  V30 147 1 28 137
M  V30 148 1 29 138 CFG=1
M  V30 149 1 30 139
M  V30 150 1 31 140 CFG=1
M  V30 151 1 33 141 CFG=1
M  V30 152 1 34 142
M  V30 153 1 34 143
M  V30 154 1 36 144
M  V30 155 1 36 145
M  V30 156 1 36 146
M  V30 157 1 37 147
M  V30 158 1 37 148
M  V30 159 1 38 149 CFG=3
M  V30 160 1 39 150
M  V30 161 1 40 151 CFG=1
M  V30 162 1 41 152
M  V30 163 1 41 153
M  V30 164 1 41 154
M  V30 165 1 44 155
M  V30 166 1 46 156
M  V30 167 1 47 157 CFG=3
M  V30 168 1 48 158
M  V30 169 1 51 159 CFG=3
M  V30 170 1 52 160
M  V30 171 1 52 161
M  V30 172 1 54 162
M  V30 173 1 56 163
M  V30 174 1 61 164
M  V30 175 1 62 165 CFG=1
M  V30 176 1 64 166
M  V30 177 1 67 167
M  V30 178 1 68 168
M  V30 179 1 69 169
M  V30 180 1 72 170
M  V30 181 1 74 171
M  V30 182 1 75 172
M  V30 183 1 77 173
M  V30 184 1 78 174 CFG=3
M  V30 185 1 79 175
M  V30 186 1 82 176 CFG=1
M  V30 187 1 83 177
M  V30 188 1 86 178 CFG=1
M  V30 189 1 88 179 CFG=1
M  V30 190 1 89 180
M  V30 191 1 89 181
M  V30 192 1 91 182
M  V30 193 1 91 183
M  V30 194 1 91 184
M  V30 195 1 92 185
M  V30 196 1 92 186
M  V30 197 1 93 187 CFG=1
M  V30 198 1 94 188
M  V30 199 1 95 189 CFG=3
M  V30 200 1 96 190
M  V30 201 1 96 191
M  V30 202 1 96 192
M  V30 203 1 99 193
M  V30 204 1 100 194
M  V30 205 1 103 195
M  V30 206 1 104 196
M  V30 207 1 106 197
M  V30 208 1 110 198
M  V30 END BOND
M  V30 END CTAB
M  END
