
     RDKit          3D

  0  0  0  0  0  0  0  0  0  0999 V3000
M  V30 BEGIN CTAB
M  V30 COUNTS 59 62 0 0 0
M  V30 BEGIN ATOM
M  V30 1 N 8.77102 0.937972 1.83041 0
M  V30 2 C 7.6799 0.784175 0.871381 0
M  V30 3 C 7.31376 -0.654338 0.789205 0
M  V30 4 O 6.29963 -0.972138 -0.0707629 0
M  V30 5 C 4.98125 -0.668229 -0.110465 0
M  V30 6 C 4.38803 0.0868109 0.861339 0
M  V30 7 C 3.05625 0.379542 0.791702 0
M  V30 8 C 2.21092 -0.0494105 -0.237798 0
M  V30 9 C 2.81971 -0.806232 -1.20588 0
M  V30 10 C 4.17042 -1.1141 -1.15298 0
M  V30 11 C 0.825319 0.34887 -0.208588 0
M  V30 12 O 0.544194 1.19169 0.747839 0
M  V30 13 N -0.277094 0.0249566 -0.98273 0
M  V30 14 C -0.199536 -0.895361 -2.05237 0
M  V30 15 C -1.61957 -1.27442 -2.53637 0 CFG=1
M  V30 16 O -1.36598 -2.12534 -3.64207 0
M  V30 17 C -2.33731 -2.08662 -1.52464 0
M  V30 18 C -2.32267 -1.62449 -0.128137 0 CFG=1
M  V30 19 C -2.46099 -0.187537 0.173652 0 CFG=1
M  V30 20 C -1.54343 0.717502 -0.625787 0
M  V30 21 N -3.78254 0.330317 0.221952 0
M  V30 22 C -4.9123 -0.0975246 -0.330164 0
M  V30 23 N -5.92662 0.72563 -0.00562947 0
M  V30 24 C -5.45658 1.70634 0.7694 0
M  V30 25 C -4.11172 1.45928 0.912744 0
M  V30 26 N -3.41918 2.3272 1.66262 0
M  V30 27 C -3.98849 3.39079 2.25348 0
M  V30 28 N -5.30154 3.60316 2.09394 0
M  V30 29 C -6.09043 2.77558 1.34917 0
M  V30 30 N -7.47641 3.02864 1.20036 0
M  V30 31 C -3.35236 -2.41532 0.680171 0
M  V30 32 O -1.07072 -2.01155 0.423865 0
M  V30 33 H 9.00437 1.92199 1.8935 0
M  V30 34 H 9.5492 0.340865 1.52725 0
M  V30 35 H 6.89272 1.46049 1.19283 0
M  V30 36 H 8.06428 1.10864 -0.131703 0
M  V30 37 H 7.0388 -0.97942 1.83029 0
M  V30 38 H 8.24189 -1.24756 0.546452 0
M  V30 39 H 4.95163 0.463092 1.73425 0
M  V30 40 H 2.60454 0.987566 1.58841 0
M  V30 41 H 2.29197 -1.18173 -2.05154 0
M  V30 42 H 4.65844 -1.70888 -1.90888 0
M  V30 43 H 0.304327 -0.531692 -2.9529 0
M  V30 44 H 0.190339 -1.86607 -1.67345 0
M  V30 45 H -2.12379 -0.408432 -2.94639 0
M  V30 46 H -0.905848 -1.63805 -4.35998 0
M  V30 47 H -1.83555 -3.10728 -1.54653 0
M  V30 48 H -3.34381 -2.3215 -1.95558 0
M  V30 49 H -2.06609 -0.0725157 1.23892 0
M  V30 50 H -1.23454 1.61073 -0.0571478 0
M  V30 51 H -1.96991 1.06212 -1.57057 0
M  V30 52 H -5.01195 -0.961568 -0.940842 0
M  V30 53 H -3.38791 4.0874 2.86571 0
M  V30 54 H -8.11358 2.90417 1.99809 0
M  V30 55 H -7.83617 3.33737 0.28744 0
M  V30 56 H -3.8494 -1.78692 1.44634 0
M  V30 57 H -2.8752 -3.24994 1.26426 0
M  V30 58 H -4.07516 -2.94461 0.0117557 0
M  V30 59 H -1.20852 -2.11411 1.40745 0
M  V30 END ATOM
M  V30 BEGIN BOND
M  V30 1 1 1 2
M  V30 2 1 2 3
M  V30 3 1 3 4
M  V30 4 1 4 5
M  V30 5 2 5 6
M  V30 6 1 6 7
M  V30 7 2 7 8
M  V30 8 1 8 9
M  V30 9 2 9 10
M  V30 10 1 8 11
M  V30 11 2 11 12
M  V30 12 1 11 13
M  V30 13 1 13 14
M  V30 14 1 14 15
M  V30 15 1 15 16
M  V30 16 1 15 17
M  V30 17 1 17 18
M  V30 18 1 18 19
M  V30 19 1 19 20
M  V30 20 1 19 21
M  V30 21 1 21 22
M  V30 22 2 22 23
M  V30 23 1 23 24
M  V30 24 2 24 25
M  V30 25 1 25 26
M  V30 26 2 26 27
M  V30 27 1 27 28
M  V30 28 2 28 29
M  V30 29 1 29 30
M  V30 30 1 18 31
M  V30 31 1 18 32 CFG=1
M  V30 32 1 10 5
M  V30 33 1 20 13
M  V30 34 1 25 21
M  V30 35 1 29 24
M  V30 36 1 1 33
M  V30 37 1 1 34
M  V30 38 1 2 35
M  V30 39 1 2 36
M  V30 40 1 3 37
M  V30 41 1 3 38
M  V30 42 1 6 39
M  V30 43 1 7 40
M  V30 44 1 9 41
M  V30 45 1 10 42
M  V30 46 1 14 43
M  V30 47 1 14 44
M  V30 48 1 15 45 CFG=3
M  V30 49 1 16 46
M  V30 50 1 17 47
M  V30 51 1 17 48
M  V30 52 1 19 49 CFG=1
M  V30 53 1 20 50
M  V30 54 1 20 51
M  V30 55 1 22 52
M  V30 56 1 27 53
M  V30 57 1 30 54
M  V30 58 1 30 55
M  V30 59 1 31 56
M  V30 60 1 31 57
M  V30 61 1 31 58
M  V30 62 1 32 59
M  V30 END BOND
M  V30 END CTAB
M  END
