
     RDKit          3D

  0  0  0  0  0  0  0  0  0  0999 V3000
M  V30 BEGIN CTAB
M  V30 COUNTS 23 23 0 0 0
M  V30 BEGIN ATOM
M  V30 1 N -3.15368 1.36175 0.00331277 0
M  V30 2 C -1.97675 0.553745 -0.347032 0
M  V30 3 C -2.00028 -0.77583 0.331 0
M  V30 4 C -0.812118 -1.60566 -0.0287084 0
M  V30 5 C 0.501217 -1.0299 0.309996 0
M  V30 6 N 1.1444 -1.2025 1.50836 0
M  V30 7 N 2.26685 -0.517605 1.53607 0
M  V30 8 C 2.39677 0.122521 0.365625 0
M  V30 9 C 1.29068 -0.187347 -0.429999 0
M  V30 10 C 1.10021 0.278248 -1.78697 0
M  V30 11 N 0.92443 0.649751 -2.86408 0
M  V30 12 N 3.45933 0.997487 -0.0632538 0
M  V30 13 H -3.04463 2.22104 -0.622796 0
M  V30 14 H -2.95442 1.73554 0.981152 0
M  V30 15 H -1.92432 0.440454 -1.42575 0
M  V30 16 H -1.10674 1.10923 0.0579379 0
M  V30 17 H -2.09584 -0.640134 1.43971 0
M  V30 18 H -2.91491 -1.34434 -0.00547533 0
M  V30 19 H -0.915683 -2.65443 0.326559 0
M  V30 20 H -0.839448 -1.70764 -1.1539 0
M  V30 21 H 2.97328 -0.447679 2.31501 0
M  V30 22 H 3.25408 1.81326 -0.693284 0
M  V30 23 H 4.42757 0.830037 0.246517 0
M  V30 END ATOM
M  V30 BEGIN BOND
M  V30 1 1 1 2
M  V30 2 1 2 3
M  V30 3 1 3 4
M  V30 4 1 4 5
M  V30 5 2 5 6
M  V30 6 1 6 7
M  V30 7 1 7 8
M  V30 8 2 8 9
M  V30 9 1 9 10
M  V30 10 3 10 11
M  V30 11 1 8 12
M  V30 12 1 9 5
M  V30 13 1 1 13
M  V30 14 1 1 14
M  V30 15 1 2 15
M  V30 16 1 2 16
M  V30 17 1 3 17
M  V30 18 1 3 18
M  V30 19 1 4 19
M  V30 20 1 4 20
M  V30 21 1 7 21
M  V30 22 1 12 22
M  V30 23 1 12 23
M  V30 END BOND
M  V30 END CTAB
M  END
