
     RDKit          3D

  0  0  0  0  0  0  0  0  0  0999 V3000
M  V30 BEGIN CTAB
M  V30 COUNTS 26 26 0 0 0
M  V30 BEGIN ATOM
M  V30 1 N 3.18797 -0.268988 -0.0608579 0
M  V30 2 C 2.12193 -0.121131 -0.949705 0
M  V30 3 C 0.819315 -0.147353 -0.191092 0
M  V30 4 C 0.741703 0.951986 0.815103 0
M  V30 5 C -0.618466 1.31577 1.2625 0
M  V30 6 C -1.74443 0.4698 0.865297 0
M  V30 7 C -1.55124 -0.453166 -0.283809 0
M  V30 8 C -0.369901 0.00277049 -1.11338 0
M  V30 9 N -1.26025 -1.79334 0.173385 0
M  V30 10 C -2.70913 -0.509385 -1.1807 0
M  V30 11 N -3.63164 -0.572369 -1.88685 0
M  V30 12 H 3.66906 0.549736 0.289271 0
M  V30 13 H 3.53853 -1.18664 0.161252 0
M  V30 14 H 2.10906 -0.984679 -1.67339 0
M  V30 15 H 2.1857 0.813825 -1.5292 0
M  V30 16 H 0.79968 -1.12046 0.365908 0
M  V30 17 H 1.28898 1.83659 0.371565 0
M  V30 18 H 1.41176 0.638488 1.67112 0
M  V30 19 H -0.814221 2.38998 0.965919 0
M  V30 20 H -0.593905 1.37314 2.39312 0
M  V30 21 H -2.12015 -0.155229 1.72994 0
M  V30 22 H -2.6376 1.11391 0.605396 0
M  V30 23 H -0.274933 -0.663794 -1.98191 0
M  V30 24 H -0.510326 1.05773 -1.35445 0
M  V30 25 H -1.3431 -2.51512 -0.5455 0
M  V30 26 H -1.69442 -2.02207 1.08108 0
M  V30 END ATOM
M  V30 BEGIN BOND
M  V30 1 1 1 2
M  V30 2 1 2 3
M  V30 3 1 3 4
M  V30 4 1 4 5
M  V30 5 1 5 6
M  V30 6 1 6 7
M  V30 7 1 7 8
M  V30 8 1 7 9
M  V30 9 1 7 10
M  V30 10 3 10 11
M  V30 11 1 8 3
M  V30 12 1 1 12
M  V30 13 1 1 13
M  V30 14 1 2 14
M  V30 15 1 2 15
M  V30 16 1 3 16
M  V30 17 1 4 17
M  V30 18 1 4 18
M  V30 19 1 5 19
M  V30 20 1 5 20
M  V30 21 1 6 21
M  V30 22 1 6 22
M  V30 23 1 8 23
M  V30 24 1 8 24
M  V30 25 1 9 25
M  V30 26 1 9 26
M  V30 END BOND
M  V30 END CTAB
M  END
