
     RDKit          3D

  0  0  0  0  0  0  0  0  0  0999 V3000
M  V30 BEGIN CTAB
M  V30 COUNTS 36 37 0 0 0
M  V30 BEGIN ATOM
M  V30 1 C -4.02731 1.35969 0.6135 0
M  V30 2 C -4.03 -0.118865 0.289203 0
M  V30 3 N -2.72364 -0.624562 0.0926779 0
M  V30 4 C -1.86734 -0.694356 1.18542 0
M  V30 5 C -0.674997 -1.60593 0.861482 0
M  V30 6 N -0.0376711 -0.976582 -0.266262 0
M  V30 7 C -0.831801 -0.798823 -1.45148 0
M  V30 8 C -2.29863 -0.882786 -1.20871 0
M  V30 9 C 1.31883 -0.562039 -0.187786 0
M  V30 10 C 1.56443 0.787247 0.0693406 0
M  V30 11 C 2.86712 1.22002 0.139585 0
M  V30 12 N 3.07943 2.58862 0.404035 0
M  V30 13 C 3.95506 0.362982 -0.0366897 0
M  V30 14 N 5.27452 0.86075 0.0433451 0
M  V30 15 C 3.68107 -0.975666 -0.291113 0
M  V30 16 C 2.37638 -1.42198 -0.363765 0
M  V30 17 H -3.25504 1.62587 1.35875 0
M  V30 18 H -3.86631 1.88842 -0.356281 0
M  V30 19 H -5.04902 1.66204 0.951849 0
M  V30 20 H -4.60645 -0.237991 -0.67718 0
M  V30 21 H -4.62967 -0.657401 1.04696 0
M  V30 22 H -2.34892 -1.00662 2.1183 0
M  V30 23 H -1.38219 0.30131 1.40591 0
M  V30 24 H -1.15605 -2.56194 0.514289 0
M  V30 25 H -0.0575284 -1.73038 1.74954 0
M  V30 26 H -0.511032 0.158235 -1.92307 0
M  V30 27 H -0.538268 -1.60791 -2.17963 0
M  V30 28 H -2.69675 -1.86587 -1.59368 0
M  V30 29 H -2.77773 -0.127763 -1.8983 0
M  V30 30 H 0.71398 1.4575 0.20963 0
M  V30 31 H 2.75899 3.0053 1.29475 0
M  V30 32 H 3.5568 3.18822 -0.289813 0
M  V30 33 H 5.71173 1.28648 -0.785665 0
M  V30 34 H 5.79147 0.795809 0.931467 0
M  V30 35 H 4.53803 -1.62719 -0.428114 0
M  V30 36 H 2.1785 -2.46382 -0.564673 0
M  V30 END ATOM
M  V30 BEGIN BOND
M  V30 1 1 1 2
M  V30 2 1 2 3
M  V30 3 1 3 4
M  V30 4 1 4 5
M  V30 5 1 5 6
M  V30 6 1 6 7
M  V30 7 1 7 8
M  V30 8 1 6 9
M  V30 9 2 9 10
M  V30 10 1 10 11
M  V30 11 1 11 12
M  V30 12 2 11 13
M  V30 13 1 13 14
M  V30 14 1 13 15
M  V30 15 2 15 16
M  V30 16 1 8 3
M  V30 17 1 16 9
M  V30 18 1 1 17
M  V30 19 1 1 18
M  V30 20 1 1 19
M  V30 21 1 2 20
M  V30 22 1 2 21
M  V30 23 1 4 22
M  V30 24 1 4 23
M  V30 25 1 5 24
M  V30 26 1 5 25
M  V30 27 1 7 26
M  V30 28 1 7 27
M  V30 29 1 8 28
M  V30 30 1 8 29
M  V30 31 1 10 30
M  V30 32 1 12 31
M  V30 33 1 12 32
M  V30 34 1 14 33
M  V30 35 1 14 34
M  V30 36 1 15 35
M  V30 37 1 16 36
M  V30 END BOND
M  V30 END CTAB
M  END
