
     RDKit          3D

  0  0  0  0  0  0  0  0  0  0999 V3000
M  V30 BEGIN CTAB
M  V30 COUNTS 17 17 0 0 0
M  V30 BEGIN ATOM
M  V30 1 N 3.60415 1.46275 -0.608263 0
M  V30 2 C 2.50721 1.10504 -0.452877 0
M  V30 3 C 1.15518 0.66445 -0.244584 0
M  V30 4 C 0.163542 1.60133 -0.370494 0
M  V30 5 C -1.13414 1.18597 -0.172261 0
M  V30 6 Cl -2.40017 2.38215 -0.333015 0
M  V30 7 C -1.46579 -0.115395 0.142729 0
M  V30 8 C -0.41284 -1.01804 0.25604 0
M  V30 9 C 0.896713 -0.657786 0.0690209 0
M  V30 10 N 1.98449 -1.56602 0.180709 0
M  V30 11 N -2.8147 -0.517331 0.342199 0
M  V30 12 H 0.393739 2.62297 -0.615306 0
M  V30 13 H -0.617944 -2.0479 0.50061 0
M  V30 14 H 1.86641 -2.60011 0.122797 0
M  V30 15 H 2.94742 -1.21061 0.326435 0
M  V30 16 H -3.48662 0.175359 0.729941 0
M  V30 17 H -3.18663 -1.46682 0.126318 0
M  V30 END ATOM
M  V30 BEGIN BOND
M  V30 1 3 1 2
M  V30 2 1 2 3
M  V30 3 2 3 4
M  V30 4 1 4 5
M  V30 5 1 5 6
M  V30 6 2 5 7
M  V30 7 1 7 8
M  V30 8 2 8 9
M  V30 9 1 9 10
M  V30 10 1 7 11
M  V30 11 1 9 3
M  V30 12 1 4 12
M  V30 13 1 8 13
M  V30 14 1 10 14
M  V30 15 1 10 15
M  V30 16 1 11 16
M  V30 17 1 11 17
M  V30 END BOND
M  V30 END CTAB
M  END
