
     RDKit          3D

  0  0  0  0  0  0  0  0  0  0999 V3000
M  V30 BEGIN CTAB
M  V30 COUNTS 53 56 0 0 0
M  V30 BEGIN ATOM
M  V30 1 N -0.77253 5.14422 -1.63008 0
M  V30 2 C -0.76615 4.00325 -1.4525 0
M  V30 3 C -0.747994 2.551 -1.20248 0
M  V30 4 C 0.395261 1.95565 -0.979008 0
M  V30 5 N 1.60261 2.75973 -0.987769 0
M  V30 6 N 0.461817 0.565525 -0.734449 0
M  V30 7 C -0.721574 -0.218583 -0.726552 0
M  V30 8 C -1.86617 0.386377 -0.951812 0
M  V30 9 C -2.02342 1.81358 -1.21236 0
M  V30 10 C -2.94248 2.46677 -0.216251 0
M  V30 11 C -2.8765 2.53147 1.14129 0
M  V30 12 C -3.85184 3.19211 1.78192 0
M  V30 13 C -4.84066 3.75109 1.01245 0
M  V30 14 S -4.35935 3.32567 -0.57671 0
M  V30 15 Br -6.37848 4.75941 1.59581 0
M  V30 16 C -3.07019 -0.448493 -0.937476 0
M  V30 17 O -4.13236 -0.0738529 -1.5033 0
M  V30 18 C -3.11547 -1.77525 -0.262566 0
M  V30 19 C -1.81155 -2.16247 0.35578 0
M  V30 20 C -0.63424 -1.69878 -0.464359 0
M  V30 21 C -1.73069 -3.67109 0.447453 0
M  V30 22 C -1.75209 -1.59616 1.75449 0
M  V30 23 C 1.73577 -0.0552984 -0.492716 0
M  V30 24 C 2.25914 -0.173707 0.778295 0
M  V30 25 C 3.48321 -0.768358 1.02663 0
M  V30 26 C 4.18981 -1.25399 -0.0508404 0
M  V30 27 C 3.6877 -1.14755 -1.33163 0
M  V30 28 C 2.45507 -0.546618 -1.56351 0
M  V30 29 S 5.74462 -2.01703 0.198236 0
M  V30 30 O 5.7871 -2.65412 1.54357 0
M  V30 31 O 6.02202 -3.04883 -0.841338 0
M  V30 32 N 6.95165 -0.777242 0.100848 0
M  V30 33 H 1.95924 3.10741 -1.90471 0
M  V30 34 H 2.02909 2.93249 -0.0673222 0
M  V30 35 H -2.46598 2.01094 -2.23254 0
M  V30 36 H -2.04066 2.05124 1.69289 0
M  V30 37 H -3.91761 3.31969 2.88855 0
M  V30 38 H -3.49039 -2.50806 -0.996628 0
M  V30 39 H -3.89557 -1.72964 0.545025 0
M  V30 40 H 0.285328 -1.93712 0.103773 0
M  V30 41 H -0.645775 -2.26416 -1.41865 0
M  V30 42 H -0.7764 -3.95612 0.954911 0
M  V30 43 H -2.60837 -4.07273 1.01428 0
M  V30 44 H -1.72165 -4.11898 -0.558723 0
M  V30 45 H -2.37683 -2.24033 2.40296 0
M  V30 46 H -0.700256 -1.61289 2.09854 0
M  V30 47 H -2.16223 -0.575073 1.78581 0
M  V30 48 H 1.69285 0.21119 1.60494 0
M  V30 49 H 3.88753 -0.857745 2.02643 0
M  V30 50 H 4.26993 -1.53812 -2.13733 0
M  V30 51 H 2.04434 -0.453571 -2.55993 0
M  V30 52 H 7.69294 -1.03605 0.783551 0
M  V30 53 H 6.55846 0.149232 0.355091 0
M  V30 END ATOM
M  V30 BEGIN BOND
M  V30 1 3 1 2
M  V30 2 1 2 3
M  V30 3 2 3 4
M  V30 4 1 4 5
M  V30 5 1 4 6
M  V30 6 1 6 7
M  V30 7 2 7 8
M  V30 8 1 8 9
M  V30 9 1 9 10
M  V30 10 2 10 11
M  V30 11 1 11 12
M  V30 12 2 12 13
M  V30 13 1 13 14
M  V30 14 1 13 15
M  V30 15 1 8 16
M  V30 16 2 16 17
M  V30 17 1 16 18
M  V30 18 1 18 19
M  V30 19 1 19 20
M  V30 20 1 19 21
M  V30 21 1 19 22
M  V30 22 1 6 23
M  V30 23 2 23 24
M  V30 24 1 24 25
M  V30 25 2 25 26
M  V30 26 1 26 27
M  V30 27 2 27 28
M  V30 28 1 26 29
M  V30 29 2 29 30
M  V30 30 2 29 31
M  V30 31 1 29 32
M  V30 32 1 9 3
M  V30 33 1 14 10
M  V30 34 1 28 23
M  V30 35 1 20 7
M  V30 36 1 5 33
M  V30 37 1 5 34
M  V30 38 1 9 35
M  V30 39 1 11 36
M  V30 40 1 12 37
M  V30 41 1 18 38
M  V30 42 1 18 39
M  V30 43 1 20 40
M  V30 44 1 20 41
M  V30 45 1 21 42
M  V30 46 1 21 43
M  V30 47 1 21 44
M  V30 48 1 22 45
M  V30 49 1 22 46
M  V30 50 1 22 47
M  V30 51 1 24 48
M  V30 52 1 25 49
M  V30 53 1 27 50
M  V30 54 1 28 51
M  V30 55 1 32 52
M  V30 56 1 32 53
M  V30 END BOND
M  V30 END CTAB
M  END
