
     RDKit          3D

  0  0  0  0  0  0  0  0  0  0999 V3000
M  V30 BEGIN CTAB
M  V30 COUNTS 21 21 0 0 0
M  V30 BEGIN ATOM
M  V30 1 C -2.22178 -1.61781 -0.139286 0
M  V30 2 C -1.03407 -0.728692 -0.0634976 0
M  V30 3 C 0.245256 -1.23801 -0.0132411 0
M  V30 4 C 1.36368 -0.431149 0.0576618 0
M  V30 5 C 1.25607 0.953111 0.0822688 0
M  V30 6 N 2.41029 1.78066 0.155856 0
M  V30 7 C -0.0225197 1.46326 0.0320104 0
M  V30 8 C -1.14183 0.647631 -0.0391255 0
M  V30 9 N -2.44271 1.1886 -0.0898972 0
M  V30 10 N 2.65846 -0.991648 0.107427 0 CHG=1
M  V30 11 O 2.9021 -2.17062 -0.529138 0 CHG=-1
M  V30 12 O 3.56151 -0.417847 0.722672 0
M  V30 13 H -2.19206 -2.27715 -1.0335 0
M  V30 14 H -3.14399 -1.01079 -0.106299 0
M  V30 15 H -2.27729 -2.29473 0.759866 0
M  V30 16 H 0.341422 -2.33061 -0.0320685 0
M  V30 17 H 2.57022 2.51161 0.877973 0
M  V30 18 H 3.14768 1.64576 -0.564142 0
M  V30 19 H -0.12829 2.55335 0.0504051 0
M  V30 20 H -3.08105 0.887695 -0.84796 0
M  V30 21 H -2.7711 1.87737 0.612012 0
M  V30 END ATOM
M  V30 BEGIN BOND
M  V30 1 1 1 2
M  V30 2 2 2 3
M  V30 3 1 3 4
M  V30 4 2 4 5
M  V30 5 1 5 6
M  V30 6 1 5 7
M  V30 7 2 7 8
M  V30 8 1 8 9
M  V30 9 1 4 10
M  V30 10 1 10 11
M  V30 11 2 10 12
M  V30 12 1 8 2
M  V30 13 1 1 13
M  V30 14 1 1 14
M  V30 15 1 1 15
M  V30 16 1 3 16
M  V30 17 1 6 17
M  V30 18 1 6 18
M  V30 19 1 7 19
M  V30 20 1 9 20
M  V30 21 1 9 21
M  V30 END BOND
M  V30 END CTAB
M  END
