
     RDKit          3D

  0  0  0  0  0  0  0  0  0  0999 V3000
M  V30 BEGIN CTAB
M  V30 COUNTS 48 51 0 0 0
M  V30 BEGIN ATOM
M  V30 1 N -0.158384 5.45552 0.444192 0
M  V30 2 C -0.955021 4.26893 0.548666 0
M  V30 3 C -2.31996 4.42966 0.660762 0
M  V30 4 C -3.10504 3.28515 0.762977 0
M  V30 5 C -2.51539 2.04433 0.750291 0
M  V30 6 C -1.1519 1.93119 0.636867 0
M  V30 7 N -0.388384 3.04749 0.537361 0
M  V30 8 N -0.514373 0.65422 0.621186 0
M  V30 9 C 0.940501 0.530829 0.500036 0
M  V30 10 C 1.37743 0.442108 -0.921355 0
M  V30 11 O 2.73938 0.316597 -1.0325 0
M  V30 12 C 3.62842 -0.635107 -0.64734 0
M  V30 13 C 3.33696 -1.81217 -0.0208029 0
M  V30 14 C 4.34749 -2.68838 0.317915 0
M  V30 15 C 5.67874 -2.45049 0.0579966 0
M  V30 16 C 5.96587 -1.26073 -0.575533 0
M  V30 17 C 4.98566 -0.380879 -0.918804 0
M  V30 18 N 7.35581 -1.02046 -0.843338 0
M  V30 19 C -1.36547 -0.479056 0.728724 0
M  V30 20 O -0.896644 -1.62793 0.526503 0
M  V30 21 C -2.80703 -0.381935 1.07349 0
M  V30 22 O -3.31448 0.919741 0.853099 0
M  V30 23 C -3.62402 -1.36236 0.323802 0
M  V30 24 C -3.98992 -1.11434 -0.989348 0
M  V30 25 C -4.74963 -2.0079 -1.71228 0
M  V30 26 C -5.16299 -3.18177 -1.1274 0
M  V30 27 C -4.81463 -3.46703 0.192712 0
M  V30 28 C -4.05608 -2.54421 0.870966 0
M  V30 29 H -0.00245684 5.99179 1.32518 0
M  V30 30 H 0.243353 5.76432 -0.467168 0
M  V30 31 H -2.79649 5.40707 0.671788 0
M  V30 32 H -4.17254 3.42729 0.850144 0
M  V30 33 H 1.37458 -0.217583 1.14297 0
M  V30 34 H 1.33711 1.51847 0.880703 0
M  V30 35 H 1.08289 1.37756 -1.47722 0
M  V30 36 H 0.900659 -0.40851 -1.46828 0
M  V30 37 H 2.29307 -2.0618 0.193403 0
M  V30 38 H 4.06518 -3.62476 0.822388 0
M  V30 39 H 6.45931 -3.15749 0.334957 0
M  V30 40 H 5.25955 0.550971 -1.42015 0
M  V30 41 H 7.92848 -1.65277 -1.44349 0
M  V30 42 H 7.8262 -0.194543 -0.435235 0
M  V30 43 H -2.8706 -0.548243 2.17719 0
M  V30 44 H -3.65704 -0.188168 -1.43312 0
M  V30 45 H -5.03418 -1.8173 -2.73025 0
M  V30 46 H -5.76687 -3.92637 -1.65324 0
M  V30 47 H -5.15797 -4.40119 0.620348 0
M  V30 48 H -3.77913 -2.74976 1.89025 0
M  V30 END ATOM
M  V30 BEGIN BOND
M  V30 1 1 1 2
M  V30 2 2 2 3
M  V30 3 1 3 4
M  V30 4 2 4 5
M  V30 5 1 5 6
M  V30 6 2 6 7
M  V30 7 1 6 8
M  V30 8 1 8 9
M  V30 9 1 9 10
M  V30 10 1 10 11
M  V30 11 1 11 12
M  V30 12 2 12 13
M  V30 13 1 13 14
M  V30 14 2 14 15
M  V30 15 1 15 16
M  V30 16 2 16 17
M  V30 17 1 16 18
M  V30 18 1 8 19
M  V30 19 2 19 20
M  V30 20 1 19 21
M  V30 21 1 21 22
M  V30 22 1 21 23
M  V30 23 2 23 24
M  V30 24 1 24 25
M  V30 25 2 25 26
M  V30 26 1 26 27
M  V30 27 2 27 28
M  V30 28 1 7 2
M  V30 29 1 17 12
M  V30 30 1 28 23
M  V30 31 1 22 5
M  V30 32 1 1 29
M  V30 33 1 1 30
M  V30 34 1 3 31
M  V30 35 1 4 32
M  V30 36 1 9 33
M  V30 37 1 9 34
M  V30 38 1 10 35
M  V30 39 1 10 36
M  V30 40 1 13 37
M  V30 41 1 14 38
M  V30 42 1 15 39
M  V30 43 1 17 40
M  V30 44 1 18 41
M  V30 45 1 18 42
M  V30 46 1 21 43
M  V30 47 1 24 44
M  V30 48 1 25 45
M  V30 49 1 26 46
M  V30 50 1 27 47
M  V30 51 1 28 48
M  V30 END BOND
M  V30 END CTAB
M  END
