
     RDKit          3D

  0  0  0  0  0  0  0  0  0  0999 V3000
M  V30 BEGIN CTAB
M  V30 COUNTS 21 20 0 0 0
M  V30 BEGIN ATOM
M  V30 1 C -4.05194 -0.412088 -0.491725 0
M  V30 2 C -2.67525 -0.638282 0.0376418 0
M  V30 3 C -1.75546 0.302511 0.022626 0
M  V30 4 C -0.374176 0.134788 0.533748 0
M  V30 5 N 0.615476 0.351576 -0.493397 0
M  V30 6 C 1.98106 0.23446 -0.18966 0
M  V30 7 N 2.73651 1.25988 -0.295743 0
M  V30 8 N 4.09407 1.14459 0.00591956 0
M  V30 9 N 2.52476 -0.98627 0.226455 0
M  V30 10 H -4.0748 0.468952 -1.17343 0
M  V30 11 H -4.76473 -0.164605 0.331526 0
M  V30 12 H -4.38301 -1.32755 -1.03052 0
M  V30 13 H -2.42098 -1.60247 0.446853 0
M  V30 14 H -2.01491 1.26797 -0.38874 0
M  V30 15 H -0.261916 0.872349 1.37977 0
M  V30 16 H -0.200231 -0.890094 0.938541 0
M  V30 17 H 0.327728 0.59438 -1.45931 0
M  V30 18 H 4.57381 1.99646 0.364186 0
M  V30 19 H 4.66626 0.282154 -0.0964033 0
M  V30 20 H 2.80058 -1.70486 -0.464254 0
M  V30 21 H 2.65714 -1.18386 1.23285 0
M  V30 END ATOM
M  V30 BEGIN BOND
M  V30 1 1 1 2
M  V30 2 2 2 3
M  V30 3 1 3 4
M  V30 4 1 4 5
M  V30 5 1 5 6
M  V30 6 2 6 7
M  V30 7 1 7 8
M  V30 8 1 6 9
M  V30 9 1 1 10
M  V30 10 1 1 11
M  V30 11 1 1 12
M  V30 12 1 2 13
M  V30 13 1 3 14
M  V30 14 1 4 15
M  V30 15 1 4 16
M  V30 16 1 5 17
M  V30 17 1 8 18
M  V30 18 1 8 19
M  V30 19 1 9 20
M  V30 20 1 9 21
M  V30 END BOND
M  V30 END CTAB
M  END
