
     RDKit          3D

  0  0  0  0  0  0  0  0  0  0999 V3000
M  V30 BEGIN CTAB
M  V30 COUNTS 28 31 0 0 0
M  V30 BEGIN ATOM
M  V30 1 N -5.90699 0.312888 -0.531223 0
M  V30 2 C -4.53199 0.223359 -0.202399 0
M  V30 3 C -3.56894 0.266796 -1.18554 0
M  V30 4 C -2.20726 0.177774 -0.855849 0
M  V30 5 C -1.7595 0.0464809 0.418777 0
M  V30 6 C -2.75209 0.00219206 1.42654 0
M  V30 7 C -4.0607 0.0902875 1.08068 0
M  V30 8 C -0.396236 -0.0289093 0.591907 0
M  V30 9 C 0.392888 0.0291813 -0.470766 0
M  V30 10 S -0.775212 0.194319 -1.76841 0
M  V30 11 C 1.75689 -0.0463096 -0.296864 0
M  V30 12 C 2.20224 -0.177541 0.978279 0
M  V30 13 S 0.771151 -0.19396 1.88893 0
M  V30 14 C 3.56662 -0.266449 1.30529 0
M  V30 15 C 4.52748 -0.222509 0.317496 0
M  V30 16 N 5.89868 -0.314303 0.674093 0
M  V30 17 C 4.0571 -0.089852 -0.961288 0
M  V30 18 C 2.74987 -0.00213105 -1.30356 0
M  V30 19 H -6.34551 -0.516003 -0.987904 0
M  V30 20 H -6.48331 1.18086 -0.328306 0
M  V30 21 H -3.77981 0.368208 -2.23823 0
M  V30 22 H -2.50782 -0.100332 2.47506 0
M  V30 23 H -4.83456 0.0561757 1.86178 0
M  V30 24 H 3.77666 -0.367992 2.36014 0
M  V30 25 H 6.5508 0.495802 0.52468 0
M  V30 26 H 6.31877 -1.1625 1.08976 0
M  V30 27 H 4.82675 -0.055343 -1.74497 0
M  V30 28 H 2.514 0.0998106 -2.34936 0
M  V30 END ATOM
M  V30 BEGIN BOND
M  V30 1 1 1 2
M  V30 2 2 2 3
M  V30 3 1 3 4
M  V30 4 2 4 5
M  V30 5 1 5 6
M  V30 6 2 6 7
M  V30 7 1 5 8
M  V30 8 2 8 9
M  V30 9 1 9 10
M  V30 10 1 9 11
M  V30 11 2 11 12
M  V30 12 1 12 13
M  V30 13 1 12 14
M  V30 14 2 14 15
M  V30 15 1 15 16
M  V30 16 1 15 17
M  V30 17 2 17 18
M  V30 18 1 7 2
M  V30 19 1 13 8
M  V30 20 1 10 4
M  V30 21 1 18 11
M  V30 22 1 1 19
M  V30 23 1 1 20
M  V30 24 1 3 21
M  V30 25 1 6 22
M  V30 26 1 7 23
M  V30 27 1 14 24
M  V30 28 1 16 25
M  V30 29 1 16 26
M  V30 30 1 17 27
M  V30 31 1 18 28
M  V30 END BOND
M  V30 END CTAB
M  END
