
     RDKit          3D

  0  0  0  0  0  0  0  0  0  0999 V3000
M  V30 BEGIN CTAB
M  V30 COUNTS 29 29 0 0 0
M  V30 BEGIN ATOM
M  V30 1 C 3.4226 -1.53968 0.270656 0
M  V30 2 C 2.11806 -0.935942 0.842388 0
M  V30 3 C 1.62779 0.0221156 -0.163221 0
M  V30 4 N 0.407336 0.741321 0.130386 0
M  V30 5 C 0.447587 1.95887 0.914753 0
M  V30 6 O 1.51549 2.44002 1.41499 0
M  V30 7 N -0.863651 2.45433 0.993856 0
M  V30 8 C -1.68096 1.71275 0.368442 0
M  V30 9 C -0.956654 0.580481 -0.231869 0
M  V30 10 C -1.12118 0.605554 -1.76554 0
M  V30 11 C -1.6486 -0.66558 0.263845 0
M  V30 12 N -1.10922 -1.89527 -0.196124 0
M  V30 13 N -3.11993 1.91437 0.239881 0
M  V30 14 H 3.28868 -1.82426 -0.78601 0
M  V30 15 H 3.72516 -2.39112 0.88624 0
M  V30 16 H 4.18542 -0.727602 0.292907 0
M  V30 17 H 1.48827 -1.81227 1.03257 0
M  V30 18 H 2.45086 -0.460169 1.79754 0
M  V30 19 H 2.47112 0.71936 -0.418759 0
M  V30 20 H 1.44482 -0.54359 -1.11607 0
M  V30 21 H -1.13405 -0.439084 -2.1249 0
M  V30 22 H -2.12213 1.03146 -1.95438 0
M  V30 23 H -0.358467 1.19384 -2.26486 0
M  V30 24 H -1.71152 -0.632099 1.38872 0
M  V30 25 H -2.7237 -0.54256 -0.0632389 0
M  V30 26 H -1.83369 -2.40972 -0.774467 0
M  V30 27 H -0.958097 -2.5252 0.640961 0
M  V30 28 H -3.57134 1.88913 -0.692631 0
M  V30 29 H -3.68001 2.08055 1.07393 0
M  V30 END ATOM
M  V30 BEGIN BOND
M  V30 1 1 1 2
M  V30 2 1 2 3
M  V30 3 1 3 4
M  V30 4 1 4 5
M  V30 5 2 5 6
M  V30 6 1 5 7
M  V30 7 2 7 8
M  V30 8 1 8 9
M  V30 9 1 9 10
M  V30 10 1 9 11
M  V30 11 1 11 12
M  V30 12 1 8 13
M  V30 13 1 9 4
M  V30 14 1 1 14
M  V30 15 1 1 15
M  V30 16 1 1 16
M  V30 17 1 2 17
M  V30 18 1 2 18
M  V30 19 1 3 19
M  V30 20 1 3 20
M  V30 21 1 10 21
M  V30 22 1 10 22
M  V30 23 1 10 23
M  V30 24 1 11 24
M  V30 25 1 11 25
M  V30 26 1 12 26
M  V30 27 1 12 27
M  V30 28 1 13 28
M  V30 29 1 13 29
M  V30 END BOND
M  V30 END CTAB
M  END
