
     RDKit          3D

  0  0  0  0  0  0  0  0  0  0999 V3000
M  V30 BEGIN CTAB
M  V30 COUNTS 52 55 0 0 0
M  V30 BEGIN ATOM
M  V30 1 N -4.19334 3.49026 -1.44334 0
M  V30 2 C -3.0505 3.34282 -1.29595 0
M  V30 3 C -1.61825 3.18538 -1.11489 0
M  V30 4 C -0.832347 4.3094 -1.37267 0
M  V30 5 N -1.39153 5.53479 -1.78628 0
M  V30 6 N 0.486038 4.11792 -1.19283 0
M  V30 7 C 0.98555 2.91867 -0.792624 0
M  V30 8 C 0.237898 1.8037 -0.533997 0
M  V30 9 C -1.14598 1.9764 -0.714229 0
M  V30 10 C -2.11973 0.916742 -0.490583 0
M  V30 11 C -2.60009 0.142437 -1.52825 0
M  V30 12 C -3.53604 -0.857508 -1.34053 0
M  V30 13 C -4.03769 -1.12732 -0.0849783 0
M  V30 14 C -3.5627 -0.358658 0.954707 0
M  V30 15 C -2.62904 0.640513 0.775351 0
M  V30 16 C -5.04645 -2.20163 0.114631 0
M  V30 17 C -6.38142 -1.59855 0.576435 0
M  V30 18 C -4.62131 -3.25016 1.08889 0
M  V30 19 C 0.893577 0.695562 -0.147406 0
M  V30 20 N 0.276468 -0.583538 0.169808 0
M  V30 21 C 2.25875 0.779935 -0.0455127 0
M  V30 22 S 2.57691 2.39519 -0.490982 0
M  V30 23 C 3.24385 -0.241716 0.344048 0
M  V30 24 O 2.82321 -1.35831 0.629094 0
M  V30 25 N 4.59064 0.125207 0.363621 0
M  V30 26 C 5.68619 -0.68584 0.697626 0
M  V30 27 C 6.94807 -0.111008 0.84809 0
M  V30 28 C 8.04887 -0.8549 1.16114 0
M  V30 29 C 7.97524 -2.2188 1.34638 0
M  V30 30 C 6.738 -2.79358 1.20036 0
M  V30 31 C 5.60789 -2.03544 0.879786 0
M  V30 32 Cl 9.38689 -3.17443 1.7483 0
M  V30 33 H -0.786078 6.28597 -2.14961 0
M  V30 34 H -2.40989 5.68319 -1.72665 0
M  V30 35 H -2.21803 0.33804 -2.53181 0
M  V30 36 H -3.91247 -1.46935 -2.17059 0
M  V30 37 H -3.94821 -0.562198 1.9425 0
M  V30 38 H -2.24163 1.25551 1.57411 0
M  V30 39 H -5.26271 -2.6843 -0.850891 0
M  V30 40 H -6.7696 -0.984468 -0.286055 0
M  V30 41 H -7.05827 -2.43405 0.80059 0
M  V30 42 H -6.20888 -0.907042 1.40516 0
M  V30 43 H -3.93163 -2.85211 1.86991 0
M  V30 44 H -4.18688 -4.10641 0.565639 0
M  V30 45 H -5.55728 -3.63185 1.59115 0
M  V30 46 H 0.127907 -0.774186 1.17543 0
M  V30 47 H 0.000586832 -1.27394 -0.542803 0
M  V30 48 H 4.85216 1.1366 0.0942446 0
M  V30 49 H 7.08386 0.947606 0.720042 0
M  V30 50 H 9.05101 -0.419566 1.28234 0
M  V30 51 H 6.66546 -3.86562 1.34239 0
M  V30 52 H 4.71294 -2.60539 0.789707 0
M  V30 END ATOM
M  V30 BEGIN BOND
M  V30 1 3 1 2
M  V30 2 1 2 3
M  V30 3 2 3 4
M  V30 4 1 4 5
M  V30 5 1 4 6
M  V30 6 2 6 7
M  V30 7 1 7 8
M  V30 8 2 8 9
M  V30 9 1 9 10
M  V30 10 2 10 11
M  V30 11 1 11 12
M  V30 12 2 12 13
M  V30 13 1 13 14
M  V30 14 2 14 15
M  V30 15 1 13 16
M  V30 16 1 16 17
M  V30 17 1 16 18
M  V30 18 1 8 19
M  V30 19 1 19 20
M  V30 20 2 19 21
M  V30 21 1 21 22
M  V30 22 1 21 23
M  V30 23 2 23 24
M  V30 24 1 23 25
M  V30 25 1 25 26
M  V30 26 2 26 27
M  V30 27 1 27 28
M  V30 28 2 28 29
M  V30 29 1 29 30
M  V30 30 2 30 31
M  V30 31 1 29 32
M  V30 32 1 9 3
M  V30 33 1 15 10
M  V30 34 1 31 26
M  V30 35 1 22 7
M  V30 36 1 5 33
M  V30 37 1 5 34
M  V30 38 1 11 35
M  V30 39 1 12 36
M  V30 40 1 14 37
M  V30 41 1 15 38
M  V30 42 1 16 39
M  V30 43 1 17 40
M  V30 44 1 17 41
M  V30 45 1 17 42
M  V30 46 1 18 43
M  V30 47 1 18 44
M  V30 48 1 18 45
M  V30 49 1 20 46
M  V30 50 1 20 47
M  V30 51 1 25 48
M  V30 52 1 27 49
M  V30 53 1 28 50
M  V30 54 1 30 51
M  V30 55 1 31 52
M  V30 END BOND
M  V30 END CTAB
M  END
