
     RDKit          3D

  0  0  0  0  0  0  0  0  0  0999 V3000
M  V30 BEGIN CTAB
M  V30 COUNTS 38 39 0 0 0
M  V30 BEGIN ATOM
M  V30 1 C -4.24299 2.73985 -0.416995 0
M  V30 2 C -3.34107 1.61205 -0.114093 0
M  V30 3 C -3.47341 0.846822 1.02248 0
M  V30 4 C -2.59803 -0.217246 1.27892 0
M  V30 5 C -1.5841 -0.55726 0.440207 0
M  V30 6 C -1.46616 0.234645 -0.713038 0
M  V30 7 C -2.31552 1.27975 -0.975252 0
M  V30 8 C -0.786763 -1.73736 0.57586 0
M  V30 9 N -1.33051 -2.82437 1.00018 0
M  V30 10 N -2.64683 -2.92567 1.33155 0
M  V30 11 C 0.640105 -1.87533 0.241025 0
M  V30 12 N 1.07078 -3.08685 0.271802 0
M  V30 13 N 2.26443 -3.65123 0.0443654 0
M  V30 14 C 1.5367 -0.797808 -0.0951078 0
M  V30 15 C 2.62107 -0.942458 -0.945317 0
M  V30 16 C 3.56297 0.0211627 -1.15726 0
M  V30 17 C 3.48352 1.23369 -0.515347 0
M  V30 18 C 4.47214 2.31391 -0.705726 0
M  V30 19 C 2.41969 1.40946 0.334845 0
M  V30 20 C 1.47338 0.442 0.549785 0
M  V30 21 H -3.61921 3.55843 -0.880353 0
M  V30 22 H -4.76112 3.13274 0.464118 0
M  V30 23 H -4.96461 2.44008 -1.20576 0
M  V30 24 H -4.25049 1.06912 1.71147 0
M  V30 25 H -2.7525 -0.733632 2.19947 0
M  V30 26 H -0.717641 0.0353321 -1.45255 0
M  V30 27 H -2.2084 1.88267 -1.87308 0
M  V30 28 H -3.03499 -3.12855 2.27868 0
M  V30 29 H -3.36462 -2.78701 0.560254 0
M  V30 30 H 3.06502 -3.54522 0.720279 0
M  V30 31 H 2.45874 -4.22044 -0.808789 0
M  V30 32 H 2.74643 -1.86503 -1.51364 0
M  V30 33 H 4.39483 -0.135663 -1.83055 0
M  V30 34 H 5.35173 1.90734 -1.27834 0
M  V30 35 H 4.0292 3.09108 -1.36053 0
M  V30 36 H 4.83781 2.75801 0.225378 0
M  V30 37 H 2.34961 2.37493 0.850329 0
M  V30 38 H 0.680812 0.648039 1.2671 0
M  V30 END ATOM
M  V30 BEGIN BOND
M  V30 1 1 1 2
M  V30 2 2 2 3
M  V30 3 1 3 4
M  V30 4 2 4 5
M  V30 5 1 5 6
M  V30 6 2 6 7
M  V30 7 1 5 8
M  V30 8 2 8 9 CFG=2
M  V30 9 1 9 10
M  V30 10 1 8 11
M  V30 11 2 11 12 CFG=2
M  V30 12 1 12 13
M  V30 13 1 11 14
M  V30 14 2 14 15
M  V30 15 1 15 16
M  V30 16 2 16 17
M  V30 17 1 17 18
M  V30 18 1 17 19
M  V30 19 2 19 20
M  V30 20 1 7 2
M  V30 21 1 20 14
M  V30 22 1 1 21
M  V30 23 1 1 22
M  V30 24 1 1 23
M  V30 25 1 3 24
M  V30 26 1 4 25
M  V30 27 1 6 26
M  V30 28 1 7 27
M  V30 29 1 10 28
M  V30 30 1 10 29
M  V30 31 1 13 30
M  V30 32 1 13 31
M  V30 33 1 15 32
M  V30 34 1 16 33
M  V30 35 1 18 34
M  V30 36 1 18 35
M  V30 37 1 18 36
M  V30 38 1 19 37
M  V30 39 1 20 38
M  V30 END BOND
M  V30 END CTAB
M  END
