
     RDKit          3D

  0  0  0  0  0  0  0  0  0  0999 V3000
M  V30 BEGIN CTAB
M  V30 COUNTS 36 37 0 0 0
M  V30 BEGIN ATOM
M  V30 1 C -5.43613 -1.65504 -0.0612312 0
M  V30 2 O -5.17292 -0.295861 0.150763 0
M  V30 3 C -3.86772 0.162794 0.0449684 0
M  V30 4 C -2.83523 -0.695502 -0.26312 0
M  V30 5 C -1.52601 -0.214417 -0.365795 0
M  V30 6 C -1.19974 1.10435 -0.170885 0
M  V30 7 C -2.26072 1.94755 0.138351 0
M  V30 8 C -3.55658 1.50587 0.246163 0
M  V30 9 N -4.63227 2.36043 0.561135 0
M  V30 10 C 0.152141 1.62946 -0.25548 0
M  V30 11 O 0.230561 2.88212 -0.534654 0
M  V30 12 C 1.36913 0.858859 -0.0536691 0
M  V30 13 C 1.47123 -0.28556 0.697354 0
M  V30 14 C 2.68895 -0.944798 0.787218 0
M  V30 15 N 2.75536 -2.11896 1.57141 0
M  V30 16 C 3.83526 -0.517532 0.156881 0
M  V30 17 O 5.00652 -1.24074 0.30358 0
M  V30 18 C 6.23646 -0.931675 -0.271907 0
M  V30 19 C 3.73044 0.633674 -0.59688 0
M  V30 20 C 2.52897 1.30262 -0.698347 0
M  V30 21 H -6.54768 -1.86084 -0.099152 0
M  V30 22 H -5.06615 -2.26781 0.804236 0
M  V30 23 H -4.96182 -1.98997 -1.01423 0
M  V30 24 H -3.04002 -1.75476 -0.426896 0
M  V30 25 H -0.788923 -0.939946 -0.621032 0
M  V30 26 H -2.01223 3.00897 0.296055 0
M  V30 27 H -5.39907 2.47245 -0.159251 0
M  V30 28 H -4.74477 2.89419 1.43878 0
M  V30 29 H 0.591956 -0.640676 1.2165 0
M  V30 30 H 2.92015 -2.1142 2.5985 0
M  V30 31 H 2.63452 -3.04059 1.10393 0
M  V30 32 H 6.79549 -0.274411 0.42783 0
M  V30 33 H 6.14553 -0.344182 -1.23069 0
M  V30 34 H 6.87753 -1.8284 -0.423096 0
M  V30 35 H 4.61883 0.987988 -1.10055 0
M  V30 36 H 2.45894 2.20453 -1.29272 0
M  V30 END ATOM
M  V30 BEGIN BOND
M  V30 1 1 1 2
M  V30 2 1 2 3
M  V30 3 2 3 4
M  V30 4 1 4 5
M  V30 5 2 5 6
M  V30 6 1 6 7
M  V30 7 2 7 8
M  V30 8 1 8 9
M  V30 9 1 6 10
M  V30 10 2 10 11
M  V30 11 1 10 12
M  V30 12 2 12 13
M  V30 13 1 13 14
M  V30 14 1 14 15
M  V30 15 2 14 16
M  V30 16 1 16 17
M  V30 17 1 17 18
M  V30 18 1 16 19
M  V30 19 2 19 20
M  V30 20 1 8 3
M  V30 21 1 20 12
M  V30 22 1 1 21
M  V30 23 1 1 22
M  V30 24 1 1 23
M  V30 25 1 4 24
M  V30 26 1 5 25
M  V30 27 1 7 26
M  V30 28 1 9 27
M  V30 29 1 9 28
M  V30 30 1 13 29
M  V30 31 1 15 30
M  V30 32 1 15 31
M  V30 33 1 18 32
M  V30 34 1 18 33
M  V30 35 1 18 34
M  V30 36 1 19 35
M  V30 37 1 20 36
M  V30 END BOND
M  V30 END CTAB
M  END
