
     RDKit          3D

  0  0  0  0  0  0  0  0  0  0999 V3000
M  V30 BEGIN CTAB
M  V30 COUNTS 19 19 0 0 0
M  V30 BEGIN ATOM
M  V30 1 N 3.45102 -0.44311 -0.0402294 0
M  V30 2 C 2.03946 -0.245914 -0.112587 0
M  V30 3 C 1.1505 -1.28813 -0.27078 0
M  V30 4 C -0.214109 -1.08673 -0.339701 0
M  V30 5 F -1.06594 -2.13213 -0.495811 0
M  V30 6 C -0.752341 0.179154 -0.252331 0
M  V30 7 C 0.134381 1.22451 -0.0939792 0
M  V30 8 C 1.49855 1.02072 -0.0253165 0
M  V30 9 Cl 2.61441 2.35754 0.176024 0
M  V30 10 S -2.48532 0.432851 -0.340071 0
M  V30 11 O -2.75148 1.90624 -0.110505 0
M  V30 12 O -3.04645 0.00314382 -1.65043 0
M  V30 13 N -3.27748 -0.414776 0.941565 0
M  V30 14 H 3.91422 -1.21272 -0.570186 0
M  V30 15 H 4.0835 0.157425 0.533304 0
M  V30 16 H 1.58874 -2.28065 -0.338232 0
M  V30 17 H -0.273202 2.2314 -0.0231566 0
M  V30 18 H -2.55967 -0.550776 1.69156 0
M  V30 19 H -4.04879 0.141943 1.32086 0
M  V30 END ATOM
M  V30 BEGIN BOND
M  V30 1 1 1 2
M  V30 2 2 2 3
M  V30 3 1 3 4
M  V30 4 1 4 5
M  V30 5 2 4 6
M  V30 6 1 6 7
M  V30 7 2 7 8
M  V30 8 1 8 9
M  V30 9 1 6 10
M  V30 10 2 10 11
M  V30 11 2 10 12
M  V30 12 1 10 13
M  V30 13 1 8 2
M  V30 14 1 1 14
M  V30 15 1 1 15
M  V30 16 1 3 16
M  V30 17 1 7 17
M  V30 18 1 13 18
M  V30 19 1 13 19
M  V30 END BOND
M  V30 END CTAB
M  END
