
     RDKit          3D

  0  0  0  0  0  0  0  0  0  0999 V3000
M  V30 BEGIN CTAB
M  V30 COUNTS 18 17 0 0 0
M  V30 BEGIN ATOM
M  V30 1 C -1.67953 -0.74191 -0.0249855 0
M  V30 2 C -0.791446 0.310481 0.569839 0
M  V30 3 N -1.50428 1.59119 0.423765 0
M  V30 4 C 0.512407 0.464268 -0.147166 0
M  V30 5 C 1.34811 -0.775653 -0.167204 0
M  V30 6 N 2.5759 -0.454883 -0.900262 0
M  V30 7 H -2.47182 -0.977247 0.730257 0
M  V30 8 H -2.17891 -0.312897 -0.925916 0
M  V30 9 H -1.16671 -1.65974 -0.308181 0
M  V30 10 H -0.589096 0.0872709 1.6296 0
M  V30 11 H -2.542 1.40996 0.524755 0
M  V30 12 H -1.38209 1.83676 -0.601858 0
M  V30 13 H 0.378013 0.82802 -1.18052 0
M  V30 14 H 1.09366 1.25057 0.384691 0
M  V30 15 H 1.55809 -1.15685 0.839736 0
M  V30 16 H 0.836147 -1.57192 -0.773891 0
M  V30 17 H 3.36443 -0.676552 -0.26445 0
M  V30 18 H 2.63913 0.549127 -1.14166 0
M  V30 END ATOM
M  V30 BEGIN BOND
M  V30 1 1 1 2
M  V30 2 1 2 3
M  V30 3 1 2 4
M  V30 4 1 4 5
M  V30 5 1 5 6
M  V30 6 1 1 7
M  V30 7 1 1 8
M  V30 8 1 1 9
M  V30 9 1 2 10
M  V30 10 1 3 11
M  V30 11 1 3 12
M  V30 12 1 4 13
M  V30 13 1 4 14
M  V30 14 1 5 15
M  V30 15 1 5 16
M  V30 16 1 6 17
M  V30 17 1 6 18
M  V30 END BOND
M  V30 END CTAB
M  END
