
     RDKit          3D

  0  0  0  0  0  0  0  0  0  0999 V3000
M  V30 BEGIN CTAB
M  V30 COUNTS 26 27 0 0 0
M  V30 BEGIN ATOM
M  V30 1 N 3.9103 0.404725 0.910473 0
M  V30 2 N 2.85636 -0.318477 0.348128 0
M  V30 3 C 2.67161 -1.64225 0.436653 0
M  V30 4 N 1.55279 -1.95736 -0.236698 0
M  V30 5 C 1.00298 -0.843296 -0.766368 0
M  V30 6 C 1.83863 0.186629 -0.388626 0
M  V30 7 N 1.73947 1.56209 -0.678247 0
M  V30 8 C -0.243576 -0.758006 -1.56462 0
M  V30 9 C -1.41533 -0.300851 -0.783511 0
M  V30 10 C -2.21786 -1.21692 -0.0865705 0
M  V30 11 C -3.30765 -0.795697 0.642212 0
M  V30 12 C -3.65826 0.533119 0.720385 0
M  V30 13 C -2.87857 1.44421 0.0395104 0
M  V30 14 C -1.79471 1.01659 -0.683987 0
M  V30 15 H 3.90993 0.532516 1.94385 0
M  V30 16 H 4.64115 0.778745 0.271133 0
M  V30 17 H 3.34908 -2.29409 0.97853 0
M  V30 18 H 1.57384 1.87016 -1.64604 0
M  V30 19 H 1.83254 2.25563 0.0773228 0
M  V30 20 H -0.10728 -0.0915532 -2.46715 0
M  V30 21 H -0.495205 -1.75734 -2.00673 0
M  V30 22 H -1.93624 -2.25568 -0.154489 0
M  V30 23 H -3.93537 -1.49629 1.18353 0
M  V30 24 H -4.52708 0.859992 1.3015 0
M  V30 25 H -3.12937 2.49841 0.080098 0
M  V30 26 H -1.23218 1.785 -1.19508 0
M  V30 END ATOM
M  V30 BEGIN BOND
M  V30 1 1 1 2
M  V30 2 1 2 3
M  V30 3 2 3 4
M  V30 4 1 4 5
M  V30 5 2 5 6
M  V30 6 1 6 7
M  V30 7 1 5 8
M  V30 8 1 8 9
M  V30 9 2 9 10
M  V30 10 1 10 11
M  V30 11 2 11 12
M  V30 12 1 12 13
M  V30 13 2 13 14
M  V30 14 1 6 2
M  V30 15 1 14 9
M  V30 16 1 1 15
M  V30 17 1 1 16
M  V30 18 1 3 17
M  V30 19 1 7 18
M  V30 20 1 7 19
M  V30 21 1 8 20
M  V30 22 1 8 21
M  V30 23 1 10 22
M  V30 24 1 11 23
M  V30 25 1 12 24
M  V30 26 1 13 25
M  V30 27 1 14 26
M  V30 END BOND
M  V30 END CTAB
M  END
