
     RDKit          3D

  0  0  0  0  0  0  0  0  0  0999 V3000
M  V30 BEGIN CTAB
M  V30 COUNTS 30 30 0 0 0
M  V30 BEGIN ATOM
M  V30 1 C -0.142164 -1.84903 -0.24501 0
M  V30 2 C -0.00164266 -0.574631 0.562786 0
M  V30 3 C 1.39602 -0.175942 0.742337 0
M  V30 4 N 2.05241 -0.0786859 1.92442 0
M  V30 5 N 3.30212 0.307504 1.72153 0
M  V30 6 C 3.47844 0.467574 0.40439 0
M  V30 7 N 2.31418 0.172507 -0.196473 0
M  V30 8 N 2.01422 0.195066 -1.55386 0
M  V30 9 N 4.64231 0.870182 -0.308664 0
M  V30 10 C -0.857788 0.504459 -0.0602044 0
M  V30 11 C -2.29247 0.0042676 -0.0350673 0
M  V30 12 C -2.79135 -0.274501 1.34138 0
M  V30 13 C -3.18773 1.05202 -0.669371 0
M  V30 14 H -0.331686 -1.5772 -1.30943 0
M  V30 15 H -0.93037 -2.50918 0.172527 0
M  V30 16 H 0.818533 -2.43873 -0.19881 0
M  V30 17 H -0.434118 -0.784232 1.56081 0
M  V30 18 H 1.69765 1.10441 -1.97627 0
M  V30 19 H 2.07839 -0.622682 -2.19076 0
M  V30 20 H 5.38036 1.43642 0.178212 0
M  V30 21 H 4.78247 0.617454 -1.30417 0
M  V30 22 H -0.607851 0.65145 -1.13216 0
M  V30 23 H -0.760744 1.42585 0.51373 0
M  V30 24 H -2.37983 -0.93038 -0.626597 0
M  V30 25 H -2.53187 -1.27206 1.72968 0
M  V30 26 H -3.91974 -0.235285 1.29571 0
M  V30 27 H -2.51991 0.522586 2.07597 0
M  V30 28 H -3.16151 1.01817 -1.77036 0
M  V30 29 H -4.23505 0.898175 -0.291088 0
M  V30 30 H -2.8713 2.07444 -0.355194 0
M  V30 END ATOM
M  V30 BEGIN BOND
M  V30 1 1 1 2
M  V30 2 1 2 3
M  V30 3 2 3 4
M  V30 4 1 4 5
M  V30 5 2 5 6
M  V30 6 1 6 7
M  V30 7 1 7 8
M  V30 8 1 6 9
M  V30 9 1 2 10
M  V30 10 1 10 11
M  V30 11 1 11 12
M  V30 12 1 11 13
M  V30 13 1 7 3
M  V30 14 1 1 14
M  V30 15 1 1 15
M  V30 16 1 1 16
M  V30 17 1 2 17
M  V30 18 1 8 18
M  V30 19 1 8 19
M  V30 20 1 9 20
M  V30 21 1 9 21
M  V30 22 1 10 22
M  V30 23 1 10 23
M  V30 24 1 11 24
M  V30 25 1 12 25
M  V30 26 1 12 26
M  V30 27 1 12 27
M  V30 28 1 13 28
M  V30 29 1 13 29
M  V30 30 1 13 30
M  V30 END BOND
M  V30 END CTAB
M  END
