
     RDKit          3D

  0  0  0  0  0  0  0  0  0  0999 V3000
M  V30 BEGIN CTAB
M  V30 COUNTS 19 19 0 0 0
M  V30 BEGIN ATOM
M  V30 1 N 2.77202 -1.14046 -1.0482 0
M  V30 2 C 1.75585 -0.426364 -0.348414 0
M  V30 3 C 2.00737 0.255776 0.824755 0
M  V30 4 C 1.00548 0.940304 1.48416 0
M  V30 5 F 1.23394 1.62198 2.64707 0
M  V30 6 C -0.289298 0.97728 1.00755 0
M  V30 7 C -0.546163 0.292946 -0.171265 0
M  V30 8 C 0.460832 -0.389526 -0.825343 0
M  V30 9 S -2.18025 0.318944 -0.805238 0
M  V30 10 O -2.59575 1.74698 -1.03427 0
M  V30 11 O -2.25832 -0.487711 -2.06418 0
M  V30 12 N -3.29719 -0.365229 0.328291 0
M  V30 13 F -1.2592 1.65466 1.66896 0
M  V30 14 H 3.48618 -0.681825 -1.65564 0
M  V30 15 H 2.83193 -2.1737 -0.970124 0
M  V30 16 H 3.01216 0.244339 1.22165 0
M  V30 17 H 0.27004 -0.935134 -1.7594 0
M  V30 18 H -3.37361 -1.39646 0.217442 0
M  V30 19 H -3.03602 -0.0568052 1.28221 0
M  V30 END ATOM
M  V30 BEGIN BOND
M  V30 1 1 1 2
M  V30 2 2 2 3
M  V30 3 1 3 4
M  V30 4 1 4 5
M  V30 5 2 4 6
M  V30 6 1 6 7
M  V30 7 2 7 8
M  V30 8 1 7 9
M  V30 9 2 9 10
M  V30 10 2 9 11
M  V30 11 1 9 12
M  V30 12 1 6 13
M  V30 13 1 8 2
M  V30 14 1 1 14
M  V30 15 1 1 15
M  V30 16 1 3 16
M  V30 17 1 8 17
M  V30 18 1 12 18
M  V30 19 1 12 19
M  V30 END BOND
M  V30 END CTAB
M  END
