
     RDKit          3D

  0  0  0  0  0  0  0  0  0  0999 V3000
M  V30 BEGIN CTAB
M  V30 COUNTS 29 30 0 0 0
M  V30 BEGIN ATOM
M  V30 1 N 0.91626 -2.53705 -0.141549 0
M  V30 2 C 1.10513 -1.14166 -0.0052389 0
M  V30 3 C 0.167115 -0.155738 -0.196516 0
M  V30 4 N 0.829152 1.01391 0.0529564 0
M  V30 5 C 2.10976 0.770227 0.382667 0
M  V30 6 N 2.27431 -0.559656 0.344283 0
M  V30 7 N 3.48658 -1.20016 0.616526 0
M  V30 8 C 3.11768 1.80792 0.727903 0
M  V30 9 C -1.26571 -0.291632 -0.591944 0
M  V30 10 C -1.76239 1.11728 -0.936581 0
M  V30 11 C -2.79699 1.40218 0.128552 0
M  V30 12 C -3.43684 0.0115783 0.25192 0
M  V30 13 C -2.15282 -0.792098 0.504138 0
M  V30 14 H 1.61299 -3.19503 0.308905 0
M  V30 15 H 0.114602 -2.90312 -0.670256 0
M  V30 16 H 4.09627 -1.53738 -0.191388 0
M  V30 17 H 3.85075 -1.38099 1.56259 0
M  V30 18 H 3.96466 1.75108 -0.00563516 0
M  V30 19 H 3.46307 1.74852 1.76899 0
M  V30 20 H 2.69939 2.83602 0.604954 0
M  V30 21 H -1.35645 -0.937526 -1.48782 0
M  V30 22 H -2.20451 1.12669 -1.94657 0
M  V30 23 H -0.936758 1.86994 -0.855663 0
M  V30 24 H -3.5141 2.16783 -0.179306 0
M  V30 25 H -2.23975 1.6564 1.0583 0
M  V30 26 H -4.13701 -0.0611913 1.07681 0
M  V30 27 H -3.85773 -0.222815 -0.751387 0
M  V30 28 H -2.35354 -1.87805 0.475429 0
M  V30 29 H -1.79316 -0.485459 1.48456 0
M  V30 END ATOM
M  V30 BEGIN BOND
M  V30 1 1 1 2
M  V30 2 2 2 3
M  V30 3 1 3 4
M  V30 4 2 4 5
M  V30 5 1 5 6
M  V30 6 1 6 7
M  V30 7 1 5 8
M  V30 8 1 3 9
M  V30 9 1 9 10
M  V30 10 1 10 11
M  V30 11 1 11 12
M  V30 12 1 12 13
M  V30 13 1 6 2
M  V30 14 1 13 9
M  V30 15 1 1 14
M  V30 16 1 1 15
M  V30 17 1 7 16
M  V30 18 1 7 17
M  V30 19 1 8 18
M  V30 20 1 8 19
M  V30 21 1 8 20
M  V30 22 1 9 21
M  V30 23 1 10 22
M  V30 24 1 10 23
M  V30 25 1 11 24
M  V30 26 1 11 25
M  V30 27 1 12 26
M  V30 28 1 12 27
M  V30 29 1 13 28
M  V30 30 1 13 29
M  V30 END BOND
M  V30 END CTAB
M  END
