
     RDKit          3D

  0  0  0  0  0  0  0  0  0  0999 V3000
M  V30 BEGIN CTAB
M  V30 COUNTS 48 48 0 0 0
M  V30 BEGIN ATOM
M  V30 1 N -3.61526 -3.28323 -1.5558 0
M  V30 2 C -2.49101 -2.53356 -1.03447 0
M  V30 3 C -2.72017 -2.2961 0.406781 0
M  V30 4 N -1.50138 -1.48602 0.961325 0
M  V30 5 C -1.79486 -0.136785 0.859986 0
M  V30 6 O -1.18811 0.865125 1.33557 0
M  V30 7 O -2.93284 0.34196 0.130672 0
M  V30 8 C -3.23276 1.70399 0.0211573 0
M  V30 9 C -3.44999 2.26171 1.40899 0
M  V30 10 C -4.50195 1.84206 -0.800043 0
M  V30 11 C -2.17211 2.52447 -0.643482 0
M  V30 12 C -0.505982 -2.38003 1.18839 0
M  V30 13 C 0.757 -2.31858 1.07017 0
M  V30 14 C 1.49167 -1.20783 0.60952 0
M  V30 15 O 1.06387 -0.157571 0.184828 0
M  V30 16 N 2.92291 -1.32069 0.644971 0
M  V30 17 C 3.78416 -0.299794 0.212688 0
M  V30 18 C 3.50936 0.541375 -0.821916 0
M  V30 19 C 4.35979 1.57495 -1.20712 0
M  V30 20 C 5.5361 1.77838 -0.53194 0
M  V30 21 C 5.85407 0.946244 0.524475 0
M  V30 22 C 4.99391 -0.0670244 0.883092 0
M  V30 23 N 6.38911 2.84158 -0.944332 0
M  V30 24 C 1.58993 -3.51149 1.4383 0
M  V30 25 N 2.25879 -4.42567 1.71768 0
M  V30 26 H -4.49121 -3.07215 -0.997545 0
M  V30 27 H -3.48456 -4.32729 -1.44157 0
M  V30 28 H -2.51477 -1.5404 -1.56068 0
M  V30 29 H -1.54138 -3.06257 -1.25038 0
M  V30 30 H -3.58094 -1.67763 0.584565 0
M  V30 31 H -2.72494 -3.18489 1.02923 0
M  V30 32 H -3.54009 1.42457 2.12019 0
M  V30 33 H -2.56857 2.86314 1.7322 0
M  V30 34 H -4.37197 2.89688 1.4487 0
M  V30 35 H -5.22993 2.52556 -0.323009 0
M  V30 36 H -4.29135 2.26905 -1.80604 0
M  V30 37 H -5.00024 0.864064 -0.916557 0
M  V30 38 H -2.68446 3.40543 -1.09931 0
M  V30 39 H -1.64607 2.01374 -1.46304 0
M  V30 40 H -1.45714 2.9802 0.102368 0
M  V30 41 H -0.844236 -3.43086 1.59599 0
M  V30 42 H 3.38218 -2.20673 1.01054 0
M  V30 43 H 2.60836 0.435778 -1.42107 0
M  V30 44 H 4.11683 2.23769 -2.04088 0
M  V30 45 H 6.79302 1.09944 1.07193 0
M  V30 46 H 5.2191 -0.740473 1.71411 0
M  V30 47 H 7.36675 2.6049 -1.21869 0
M  V30 48 H 6.08135 3.82511 -0.981845 0
M  V30 END ATOM
M  V30 BEGIN BOND
M  V30 1 1 1 2
M  V30 2 1 2 3
M  V30 3 1 3 4
M  V30 4 1 4 5
M  V30 5 2 5 6
M  V30 6 1 5 7
M  V30 7 1 7 8
M  V30 8 1 8 9
M  V30 9 1 8 10
M  V30 10 1 8 11
M  V30 11 1 4 12
M  V30 12 2 12 13
M  V30 13 1 13 14
M  V30 14 2 14 15
M  V30 15 1 14 16
M  V30 16 1 16 17
M  V30 17 2 17 18
M  V30 18 1 18 19
M  V30 19 2 19 20
M  V30 20 1 20 21
M  V30 21 2 21 22
M  V30 22 1 20 23
M  V30 23 1 13 24
M  V30 24 3 24 25
M  V30 25 1 22 17
M  V30 26 1 1 26
M  V30 27 1 1 27
M  V30 28 1 2 28
M  V30 29 1 2 29
M  V30 30 1 3 30
M  V30 31 1 3 31
M  V30 32 1 9 32
M  V30 33 1 9 33
M  V30 34 1 9 34
M  V30 35 1 10 35
M  V30 36 1 10 36
M  V30 37 1 10 37
M  V30 38 1 11 38
M  V30 39 1 11 39
M  V30 40 1 11 40
M  V30 41 1 12 41
M  V30 42 1 16 42
M  V30 43 1 18 43
M  V30 44 1 19 44
M  V30 45 1 21 45
M  V30 46 1 22 46
M  V30 47 1 23 47
M  V30 48 1 23 48
M  V30 END BOND
M  V30 END CTAB
M  END
