
     RDKit          3D

  0  0  0  0  0  0  0  0  0  0999 V3000
M  V30 BEGIN CTAB
M  V30 COUNTS 31 31 0 0 0
M  V30 BEGIN ATOM
M  V30 1 C 4.8469 1.20453 0.554333 0
M  V30 2 C 3.45353 1.03177 -0.012195 0
M  V30 3 C 3.2682 -0.418762 -0.407351 0
M  V30 4 C 1.9109 -0.67616 -0.981748 0
M  V30 5 C 0.768321 -0.373209 -0.0650938 0
M  V30 6 O -0.429657 -0.671703 -0.758792 0
M  V30 7 C -1.68833 -0.514429 -0.222935 0
M  V30 8 C -2.77868 -0.84006 -0.999109 0
M  V30 9 N -2.6374 -1.33426 -2.33894 0
M  V30 10 O -1.86963 -2.32378 -2.47352 0
M  V30 11 C -4.02365 -0.670353 -0.431118 0
M  V30 12 N -5.17867 -0.995077 -1.19908 0
M  V30 13 N -4.16164 -0.207979 0.823036 0
M  V30 14 C -3.09188 0.110531 1.58194 0
M  V30 15 N -3.23268 0.600199 2.90956 0
M  V30 16 N -1.88547 -0.0561819 1.02547 0
M  V30 17 H 4.82257 2.0193 1.29619 0
M  V30 18 H 5.57477 1.36438 -0.263236 0
M  V30 19 H 5.17558 0.287134 1.10437 0
M  V30 20 H 3.37797 1.68611 -0.896612 0
M  V30 21 H 2.67095 1.26707 0.744732 0
M  V30 22 H 3.50541 -1.06388 0.463007 0
M  V30 23 H 4.00127 -0.598603 -1.24044 0
M  V30 24 H 1.87424 -1.76203 -1.2532 0
M  V30 25 H 1.85241 -0.0642854 -1.92973 0
M  V30 26 H 0.892979 -1.00066 0.841001 0
M  V30 27 H 0.782797 0.676377 0.281828 0
M  V30 28 H -5.09206 -1.62868 -2.02043 0
M  V30 29 H -6.12147 -0.625113 -0.977645 0
M  V30 30 H -3.12108 1.59116 3.19802 0
M  V30 31 H -3.46654 -0.0955818 3.64768 0
M  V30 END ATOM
M  V30 BEGIN BOND
M  V30 1 1 1 2
M  V30 2 1 2 3
M  V30 3 1 3 4
M  V30 4 1 4 5
M  V30 5 1 5 6
M  V30 6 1 6 7
M  V30 7 2 7 8
M  V30 8 1 8 9
M  V30 9 2 9 10
M  V30 10 1 8 11
M  V30 11 1 11 12
M  V30 12 2 11 13
M  V30 13 1 13 14
M  V30 14 1 14 15
M  V30 15 2 14 16
M  V30 16 1 16 7
M  V30 17 1 1 17
M  V30 18 1 1 18
M  V30 19 1 1 19
M  V30 20 1 2 20
M  V30 21 1 2 21
M  V30 22 1 3 22
M  V30 23 1 3 23
M  V30 24 1 4 24
M  V30 25 1 4 25
M  V30 26 1 5 26
M  V30 27 1 5 27
M  V30 28 1 12 28
M  V30 29 1 12 29
M  V30 30 1 15 30
M  V30 31 1 15 31
M  V30 END BOND
M  V30 END CTAB
M  END
