
     RDKit          3D

  0  0  0  0  0  0  0  0  0  0999 V3000
M  V30 BEGIN CTAB
M  V30 COUNTS 53 56 0 0 0
M  V30 BEGIN ATOM
M  V30 1 N -8.25576 -0.0965545 1.09145 0
M  V30 2 C -6.90953 -0.200034 0.557648 0
M  V30 3 C -5.94663 -0.9568 1.44303 0
M  V30 4 C -4.94448 0.156044 1.24167 0
M  V30 5 C -6.07944 1.04343 0.785676 0
M  V30 6 C -3.98195 -0.175312 0.141182 0
M  V30 7 C -2.61046 -0.0241631 0.301471 0
M  V30 8 C -1.71931 -0.325055 -0.705055 0
M  V30 9 N -2.24871 -0.775655 -1.85801 0
M  V30 10 C -3.57102 -0.929474 -2.03498 0
M  V30 11 N -4.41418 -0.627188 -1.03396 0
M  V30 12 N -4.10563 -1.41257 -3.27956 0
M  V30 13 N -0.305009 -0.165097 -0.537619 0
M  V30 14 C 0.544927 -0.527914 -1.64788 0
M  V30 15 C 1.97624 -0.755568 -1.14792 0
M  V30 16 N 2.36732 0.493762 -0.524847 0
M  V30 17 C 1.53685 0.980659 0.519405 0
M  V30 18 O 1.94511 1.90927 1.23181 0
M  V30 19 C 0.181 0.348809 0.727099 0
M  V30 20 C 3.54784 1.20792 -0.952218 0
M  V30 21 C 4.77733 0.832062 -0.234705 0
M  V30 22 C 5.29643 1.54597 0.824809 0
M  V30 23 C 6.46302 1.14851 1.47254 0
M  V30 24 C 7.14384 0.0243466 1.07802 0
M  V30 25 C 6.6392 -0.701866 0.0201585 0
M  V30 26 C 5.47805 -0.306287 -0.624642 0
M  V30 27 C 8.39588 -0.42476 1.75178 0
M  V30 28 H -8.27229 -0.0667478 2.14015 0
M  V30 29 H -8.73148 0.752915 0.682717 0
M  V30 30 H -6.94119 -0.57176 -0.485813 0
M  V30 31 H -5.63981 -1.94825 1.05352 0
M  V30 32 H -6.31516 -0.954875 2.48906 0
M  V30 33 H -4.43328 0.504094 2.16733 0
M  V30 34 H -5.82028 1.60637 -0.135178 0
M  V30 35 H -6.49536 1.64805 1.6153 0
M  V30 36 H -2.27965 0.342283 1.2608 0
M  V30 37 H -4.93306 -0.972287 -3.70568 0
M  V30 38 H -3.64342 -2.2131 -3.74211 0
M  V30 39 H 0.190914 -1.42853 -2.18874 0
M  V30 40 H 0.623969 0.311345 -2.38824 0
M  V30 41 H 1.8893 -1.53907 -0.345677 0
M  V30 42 H 2.61495 -1.06019 -1.97557 0
M  V30 43 H 0.215829 -0.412131 1.50857 0
M  V30 44 H -0.47475 1.22782 0.984412 0
M  V30 45 H 3.6314 1.03703 -2.06581 0
M  V30 46 H 3.4062 2.32171 -0.868118 0
M  V30 47 H 4.78692 2.43101 1.1557 0
M  V30 48 H 6.83631 1.73641 2.29886 0
M  V30 49 H 7.1923 -1.5844 -0.273715 0
M  V30 50 H 5.101 -0.888947 -1.44926 0
M  V30 51 H 8.46514 -1.51825 1.84844 0
M  V30 52 H 9.28998 -0.119599 1.13396 0
M  V30 53 H 8.53459 0.0726263 2.72509 0
M  V30 END ATOM
M  V30 BEGIN BOND
M  V30 1 1 1 2
M  V30 2 1 2 3
M  V30 3 1 3 4
M  V30 4 1 4 5
M  V30 5 1 4 6
M  V30 6 2 6 7
M  V30 7 1 7 8
M  V30 8 2 8 9
M  V30 9 1 9 10
M  V30 10 2 10 11
M  V30 11 1 10 12
M  V30 12 1 8 13
M  V30 13 1 13 14
M  V30 14 1 14 15
M  V30 15 1 15 16
M  V30 16 1 16 17
M  V30 17 2 17 18
M  V30 18 1 17 19
M  V30 19 1 16 20
M  V30 20 1 20 21
M  V30 21 2 21 22
M  V30 22 1 22 23
M  V30 23 2 23 24
M  V30 24 1 24 25
M  V30 25 2 25 26
M  V30 26 1 24 27
M  V30 27 1 5 2
M  V30 28 1 11 6
M  V30 29 1 19 13
M  V30 30 1 26 21
M  V30 31 1 1 28
M  V30 32 1 1 29
M  V30 33 1 2 30
M  V30 34 1 3 31
M  V30 35 1 3 32
M  V30 36 1 4 33
M  V30 37 1 5 34
M  V30 38 1 5 35
M  V30 39 1 7 36
M  V30 40 1 12 37
M  V30 41 1 12 38
M  V30 42 1 14 39
M  V30 43 1 14 40
M  V30 44 1 15 41
M  V30 45 1 15 42
M  V30 46 1 19 43
M  V30 47 1 19 44
M  V30 48 1 20 45
M  V30 49 1 20 46
M  V30 50 1 22 47
M  V30 51 1 23 48
M  V30 52 1 25 49
M  V30 53 1 26 50
M  V30 54 1 27 51
M  V30 55 1 27 52
M  V30 56 1 27 53
M  V30 END BOND
M  V30 END CTAB
M  END
