
     RDKit          3D

  0  0  0  0  0  0  0  0  0  0999 V3000
M  V30 BEGIN CTAB
M  V30 COUNTS 28 28 0 0 0
M  V30 BEGIN ATOM
M  V30 1 O -0.99844 0.0707831 1.55982 0
M  V30 2 C -0.817208 -0.620993 0.388569 0
M  V30 3 C -2.02861 -0.551308 -0.506643 0
M  V30 4 C -2.4236 0.848475 -0.927378 0
M  V30 5 C -3.85877 0.462799 -0.62828 0
M  V30 6 C -3.31326 -0.576065 0.330647 0
M  V30 7 C 0.430275 -0.146472 -0.281315 0
M  V30 8 N 1.54964 -0.371268 0.588204 0
M  V30 9 C 2.86161 -0.00376866 0.181149 0
M  V30 10 N 3.40482 1.04375 0.681337 0
M  V30 11 N 4.69325 1.41408 0.288624 0
M  V30 12 N 3.55038 -0.788676 -0.762843 0
M  V30 13 H -0.631659 -0.439106 2.34858 0
M  V30 14 H -0.679508 -1.6992 0.648176 0
M  V30 15 H -2.04884 -1.26232 -1.33162 0
M  V30 16 H -1.99127 1.61744 -0.258768 0
M  V30 17 H -2.29582 1.05484 -2.00735 0
M  V30 18 H -4.47267 1.25264 -0.155559 0
M  V30 19 H -4.31504 -0.0478476 -1.50128 0
M  V30 20 H -3.85641 -1.53016 0.300753 0
M  V30 21 H -3.16633 -0.135192 1.34536 0
M  V30 22 H 0.594247 -0.632511 -1.27397 0
M  V30 23 H 0.306044 0.942009 -0.504467 0
M  V30 24 H 1.4322 -0.802208 1.52429 0
M  V30 25 H 5.516 1.13905 0.867533 0
M  V30 26 H 4.85658 1.97322 -0.591962 0
M  V30 27 H 3.14842 -1.12099 -1.66496 0
M  V30 28 H 4.55397 -1.09099 -0.591611 0
M  V30 END ATOM
M  V30 BEGIN BOND
M  V30 1 1 1 2
M  V30 2 1 2 3
M  V30 3 1 3 4
M  V30 4 1 4 5
M  V30 5 1 5 6
M  V30 6 1 2 7
M  V30 7 1 7 8
M  V30 8 1 8 9
M  V30 9 2 9 10 CFG=2
M  V30 10 1 10 11
M  V30 11 1 9 12
M  V30 12 1 6 3
M  V30 13 1 1 13
M  V30 14 1 2 14
M  V30 15 1 3 15
M  V30 16 1 4 16
M  V30 17 1 4 17
M  V30 18 1 5 18
M  V30 19 1 5 19
M  V30 20 1 6 20
M  V30 21 1 6 21
M  V30 22 1 7 22
M  V30 23 1 7 23
M  V30 24 1 8 24
M  V30 25 1 11 25
M  V30 26 1 11 26
M  V30 27 1 12 27
M  V30 28 1 12 28
M  V30 END BOND
M  V30 END CTAB
M  END
