
     RDKit          3D

  0  0  0  0  0  0  0  0  0  0999 V3000
M  V30 BEGIN CTAB
M  V30 COUNTS 34 36 0 0 0
M  V30 BEGIN ATOM
M  V30 1 N -1.81344 -1.21591 1.94234 0
M  V30 2 C -2.60067 -0.475691 1.0227 0
M  V30 3 N -3.90836 -0.22479 1.14776 0
M  V30 4 N -4.32751 0.381456 0.0419593 0
M  V30 5 C -3.31473 0.521984 -0.776995 0
M  V30 6 C -2.13345 -0.00515629 -0.232545 0
M  V30 7 C -0.780575 0.185177 -0.722451 0 CFG=2
M  V30 8 C -0.508707 -0.714085 -1.89099 0
M  V30 9 N 0.509984 -1.69101 -1.5161 0
M  V30 10 C 1.62434 -1.34695 -0.752636 0
M  V30 11 C 1.505 -0.22577 0.111864 0
M  V30 12 N 0.282829 0.493358 0.158471 0
M  V30 13 S 0.2207 1.93648 1.07585 0
M  V30 14 O 0.99106 1.99245 2.32393 0
M  V30 15 O -1.27013 2.09631 1.60995 0
M  V30 16 N 0.313495 3.36099 0.0665607 0
M  V30 17 C 2.6467 0.0961478 0.77886 0
M  V30 18 C 3.83547 -0.573137 0.66098 0
M  V30 19 C 3.93163 -1.65135 -0.183387 0
M  V30 20 C 2.80509 -2.03489 -0.893665 0
M  V30 21 H -1.07316 -0.813137 2.51371 0
M  V30 22 H -2.02266 -2.24875 2.05272 0
M  V30 23 H -5.31319 0.683179 -0.057242 0
M  V30 24 H -3.36024 1.00258 -1.75886 0
M  V30 25 H -0.867022 1.2411 -1.31235 0
M  V30 26 H -1.44748 -1.33798 -2.06866 0
M  V30 27 H -0.249997 -0.2489 -2.82719 0
M  V30 28 H 0.371647 -2.66417 -1.82224 0
M  V30 29 H -0.390865 4.07052 0.258687 0
M  V30 30 H 1.25838 3.80847 0.28377 0
M  V30 31 H 2.64822 0.932507 1.45092 0
M  V30 32 H 4.71173 -0.271591 1.21082 0
M  V30 33 H 4.87043 -2.19452 -0.340009 0
M  V30 34 H 2.85545 -2.86492 -1.55655 0
M  V30 END ATOM
M  V30 BEGIN BOND
M  V30 1 1 1 2
M  V30 2 2 2 3
M  V30 3 1 3 4
M  V30 4 1 4 5
M  V30 5 2 5 6
M  V30 6 1 6 7
M  V30 7 1 7 8
M  V30 8 1 8 9
M  V30 9 1 9 10
M  V30 10 2 10 11
M  V30 11 1 11 12
M  V30 12 1 12 13
M  V30 13 2 13 14
M  V30 14 2 13 15
M  V30 15 1 13 16
M  V30 16 1 11 17
M  V30 17 2 17 18
M  V30 18 1 18 19
M  V30 19 2 19 20
M  V30 20 1 6 2
M  V30 21 1 12 7
M  V30 22 1 20 10
M  V30 23 1 1 21
M  V30 24 1 1 22
M  V30 25 1 4 23
M  V30 26 1 5 24
M  V30 27 1 7 25 CFG=3
M  V30 28 1 8 26
M  V30 29 1 8 27
M  V30 30 1 9 28
M  V30 31 1 16 29
M  V30 32 1 16 30
M  V30 33 1 17 31
M  V30 34 1 18 32
M  V30 35 1 19 33
M  V30 36 1 20 34
M  V30 END BOND
M  V30 END CTAB
M  END
