
     RDKit          3D

  0  0  0  0  0  0  0  0  0  0999 V3000
M  V30 BEGIN CTAB
M  V30 COUNTS 19 20 0 0 0
M  V30 BEGIN ATOM
M  V30 1 N 3.75489 -0.156331 -0.00437533 0
M  V30 2 N 2.7853 -1.13945 0.169596 0
M  V30 3 C 1.41509 -0.801637 0.122746 0
M  V30 4 N 1.03246 0.460403 -0.0882212 0
M  V30 5 C -0.233136 0.873777 -0.148671 0
M  V30 6 N -0.488764 2.26563 -0.3826 0
M  V30 7 C -1.27672 -0.0539286 0.0164593 0
M  V30 8 C -0.879034 -1.33938 0.231279 0
M  V30 9 N 0.431872 -1.71765 0.285438 0
M  V30 10 S -2.35038 -2.18494 0.385733 0
M  V30 11 C -3.44095 -0.887207 0.174086 0
M  V30 12 C -2.608 0.180509 -0.013171 0
M  V30 13 H 3.66824 0.339531 -0.913483 0
M  V30 14 H 3.90227 0.43783 0.813831 0
M  V30 15 H 3.10194 -2.11373 0.332307 0
M  V30 16 H -0.124152 3.01979 0.237121 0
M  V30 17 H -1.073 2.5274 -1.22209 0
M  V30 18 H -4.54812 -0.887669 0.182562 0
M  V30 19 H -3.06981 1.17705 -0.178548 0
M  V30 END ATOM
M  V30 BEGIN BOND
M  V30 1 1 1 2
M  V30 2 1 2 3
M  V30 3 2 3 4
M  V30 4 1 4 5
M  V30 5 1 5 6
M  V30 6 2 5 7
M  V30 7 1 7 8
M  V30 8 2 8 9
M  V30 9 1 8 10
M  V30 10 1 10 11
M  V30 11 2 11 12
M  V30 12 1 9 3
M  V30 13 1 12 7
M  V30 14 1 1 13
M  V30 15 1 1 14
M  V30 16 1 2 15
M  V30 17 1 6 16
M  V30 18 1 6 17
M  V30 19 1 11 18
M  V30 20 1 12 19
M  V30 END BOND
M  V30 END CTAB
M  END
