
     RDKit          3D

  0  0  0  0  0  0  0  0  0  0999 V3000
M  V30 BEGIN CTAB
M  V30 COUNTS 24 25 0 0 0
M  V30 BEGIN ATOM
M  V30 1 N 3.34721 -0.707368 -0.302376 0
M  V30 2 C 2.17505 0.0672038 -0.0806509 0
M  V30 3 C 2.26152 1.4047 0.212429 0
M  V30 4 N 1.17316 2.15798 0.425842 0
M  V30 5 C -0.0786915 1.61105 0.35772 0
M  V30 6 C -0.227971 0.271264 0.0668067 0
M  V30 7 C 0.894774 -0.493821 -0.150687 0
M  V30 8 N 0.857102 -1.85479 -0.451043 0
M  V30 9 C -1.48401 -0.345784 -0.0167053 0
M  V30 10 C -1.67338 -1.7773 -0.326273 0
M  V30 11 C -2.55468 0.503795 0.217302 0
M  V30 12 C -2.43525 1.84045 0.508785 0
M  V30 13 C -1.1851 2.40203 0.580243 0
M  V30 14 F -1.00653 3.73299 0.867947 0
M  V30 15 H 3.85883 -1.10674 0.529961 0
M  V30 16 H 3.74353 -0.91223 -1.24171 0
M  V30 17 H 3.27335 1.83981 0.265938 0
M  V30 18 H 0.812022 -2.17715 -1.42833 0
M  V30 19 H 0.8873 -2.55566 0.303666 0
M  V30 20 H -1.5112 -2.07743 -1.36289 0
M  V30 21 H -2.81772 -1.90273 -0.305134 0
M  V30 22 H -1.43191 -2.48332 0.474283 0
M  V30 23 H -3.56715 0.0918469 0.168949 0
M  V30 24 H -3.31026 2.47121 0.685921 0
M  V30 END ATOM
M  V30 BEGIN BOND
M  V30 1 1 1 2
M  V30 2 2 2 3
M  V30 3 1 3 4
M  V30 4 2 4 5
M  V30 5 1 5 6
M  V30 6 2 6 7
M  V30 7 1 7 8
M  V30 8 1 6 9
M  V30 9 1 9 10
M  V30 10 2 9 11
M  V30 11 1 11 12
M  V30 12 2 12 13
M  V30 13 1 13 14
M  V30 14 1 7 2
M  V30 15 1 13 5
M  V30 16 1 1 15
M  V30 17 1 1 16
M  V30 18 1 3 17
M  V30 19 1 8 18
M  V30 20 1 8 19
M  V30 21 1 10 20
M  V30 22 1 10 21
M  V30 23 1 10 22
M  V30 24 1 11 23
M  V30 25 1 12 24
M  V30 END BOND
M  V30 END CTAB
M  END
