
     RDKit          3D

  0  0  0  0  0  0  0  0  0  0999 V3000
M  V30 BEGIN CTAB
M  V30 COUNTS 70 71 0 0 0
M  V30 BEGIN ATOM
M  V30 1 O 1.31204 1.42693 -4.0526 0
M  V30 2 C 1.68647 0.830656 -3.37571 0
M  V30 3 N 0.859114 -0.115022 -2.69026 0
M  V30 4 C -0.575807 -0.195235 -2.98069 0 CFG=2
M  V30 5 C -1.35346 -0.124318 -1.7172 0
M  V30 6 O -0.795763 -0.0381185 -0.586067 0
M  V30 7 N -2.75267 -0.15247 -1.75746 0
M  V30 8 C -3.55225 -0.0898068 -0.514896 0 CFG=2
M  V30 9 C -4.33749 -1.30424 -0.402482 0
M  V30 10 O -4.39535 -2.10521 -1.40539 0
M  V30 11 O -5.05695 -1.73085 0.700306 0
M  V30 12 C -4.24655 1.23231 -0.444344 0
M  V30 13 C -5.11248 1.39353 0.728704 0
M  V30 14 C -4.74352 1.82267 1.9871 0
M  V30 15 N -5.7938 1.78683 2.79984 0
M  V30 16 C -6.84761 1.34322 2.10057 0
M  V30 17 C -6.46714 1.08709 0.806096 0
M  V30 18 C -7.4099 0.636648 -0.131141 0
M  V30 19 C -8.70057 0.453113 0.2499 0
M  V30 20 C -9.07468 0.709938 1.54942 0
M  V30 21 C -8.17373 1.15416 2.49314 0
M  V30 22 C -0.905251 -1.43255 -3.75161 0
M  V30 23 C -0.594715 -2.70146 -3.10831 0
M  V30 24 O -0.0993971 -2.83976 -1.98575 0
M  V30 25 O -0.891379 -3.86836 -3.84374 0
M  V30 26 C 3.13018 0.902001 -3.05765 0
M  V30 27 N 3.59845 0.0711177 -1.99733 0
M  V30 28 C 3.17855 0.236614 -0.654031 0
M  V30 29 O 2.37337 1.12981 -0.307866 0
M  V30 30 C 3.69228 -0.667076 0.416032 0 CFG=1
M  V30 31 C 5.1868 -0.377841 0.503722 0
M  V30 32 C 5.87403 -1.21106 1.54259 0
M  V30 33 C 7.34068 -0.829429 1.53182 0
M  V30 34 N 7.49477 0.576643 1.84721 0
M  V30 35 C 7.2028 1.0854 3.15337 0
M  V30 36 N 6.22915 1.89236 3.37853 0
M  V30 37 N 8.01243 0.690177 4.24599 0
M  V30 38 N 3.1062 -0.337931 1.69899 0
M  V30 39 H 1.19924 -0.793154 -1.98492 0
M  V30 40 H -0.80246 0.656197 -3.6521 0
M  V30 41 H -3.25725 -0.217806 -2.6559 0
M  V30 42 H -2.77331 -0.106922 0.319188 0
M  V30 43 H -5.98943 -2.09821 0.53756 0
M  V30 44 H -4.86352 1.41992 -1.35796 0
M  V30 45 H -3.45037 2.03986 -0.439212 0
M  V30 46 H -3.7254 2.14306 2.25996 0
M  V30 47 H -5.78696 2.06355 3.82172 0
M  V30 48 H -7.05672 0.446835 -1.15243 0
M  V30 49 H -9.40674 0.107536 -0.486536 0
M  V30 50 H -10.1113 0.551411 1.8143 0
M  V30 51 H -8.462 1.35722 3.51457 0
M  V30 52 H -0.370088 -1.39843 -4.72706 0
M  V30 53 H -2.01234 -1.42641 -3.95305 0
M  V30 54 H -0.376576 -4.72495 -3.65093 0
M  V30 55 H 3.75714 0.791858 -3.9848 0
M  V30 56 H 3.35537 1.96897 -2.74129 0
M  V30 57 H 4.28109 -0.690385 -2.23173 0
M  V30 58 H 3.57989 -1.7285 0.158344 0
M  V30 59 H 5.63267 -0.640174 -0.478194 0
M  V30 60 H 5.29439 0.689736 0.744173 0
M  V30 61 H 5.78072 -2.28097 1.26454 0
M  V30 62 H 5.44136 -1.0589 2.55527 0
M  V30 63 H 7.9409 -1.43349 2.25399 0
M  V30 64 H 7.70112 -1.01206 0.504598 0
M  V30 65 H 7.82397 1.23379 1.11305 0
M  V30 66 H 5.63158 2.18654 2.5841 0
M  V30 67 H 8.95431 0.290732 4.05217 0
M  V30 68 H 7.66891 0.799004 5.22484 0
M  V30 69 H 2.24673 0.253262 1.52512 0
M  V30 70 H 3.75828 0.270402 2.23346 0
M  V30 END ATOM
M  V30 BEGIN BOND
M  V30 1 2 1 2
M  V30 2 1 2 3
M  V30 3 1 3 4
M  V30 4 1 4 5
M  V30 5 2 5 6
M  V30 6 1 5 7
M  V30 7 1 7 8
M  V30 8 1 8 9
M  V30 9 2 9 10
M  V30 10 1 9 11
M  V30 11 1 8 12
M  V30 12 1 12 13
M  V30 13 2 13 14
M  V30 14 1 14 15
M  V30 15 1 15 16
M  V30 16 2 16 17
M  V30 17 1 17 18
M  V30 18 2 18 19
M  V30 19 1 19 20
M  V30 20 2 20 21
M  V30 21 1 4 22
M  V30 22 1 22 23
M  V30 23 2 23 24
M  V30 24 1 23 25
M  V30 25 1 2 26
M  V30 26 1 26 27
M  V30 27 1 27 28
M  V30 28 2 28 29
M  V30 29 1 28 30
M  V30 30 1 30 31
M  V30 31 1 31 32
M  V30 32 1 32 33
M  V30 33 1 33 34
M  V30 34 1 34 35
M  V30 35 2 35 36 CFG=2
M  V30 36 1 35 37
M  V30 37 1 30 38
M  V30 38 1 17 13
M  V30 39 1 21 16
M  V30 40 1 3 39
M  V30 41 1 4 40 CFG=3
M  V30 42 1 7 41
M  V30 43 1 8 42 CFG=1
M  V30 44 1 11 43
M  V30 45 1 12 44
M  V30 46 1 12 45
M  V30 47 1 14 46
M  V30 48 1 15 47
M  V30 49 1 18 48
M  V30 50 1 19 49
M  V30 51 1 20 50
M  V30 52 1 21 51
M  V30 53 1 22 52
M  V30 54 1 22 53
M  V30 55 1 25 54
M  V30 56 1 26 55
M  V30 57 1 26 56
M  V30 58 1 27 57
M  V30 59 1 30 58 CFG=3
M  V30 60 1 31 59
M  V30 61 1 31 60
M  V30 62 1 32 61
M  V30 63 1 32 62
M  V30 64 1 33 63
M  V30 65 1 33 64
M  V30 66 1 34 65
M  V30 67 1 36 66
M  V30 68 1 37 67
M  V30 69 1 37 68
M  V30 70 1 38 69
M  V30 71 1 38 70
M  V30 END BOND
M  V30 END CTAB
M  END
