
     RDKit          3D

  0  0  0  0  0  0  0  0  0  0999 V3000
M  V30 BEGIN CTAB
M  V30 COUNTS 23 23 0 0 0
M  V30 BEGIN ATOM
M  V30 1 N 4.11624 0.371346 0.114125 0
M  V30 2 N 2.99668 0.797357 -0.577938 0
M  V30 3 C 1.70907 0.441256 -0.131465 0
M  V30 4 O 1.5958 -0.264022 0.894834 0
M  V30 5 C 0.46141 0.865606 -0.820428 0
M  V30 6 C -0.747228 0.375008 -0.166452 0
M  V30 7 C -1.48308 1.2391 0.625671 0
M  V30 8 C -2.63252 0.848738 1.28377 0
M  V30 9 C -3.07035 -0.46109 1.14733 0
M  V30 10 C -2.33802 -1.32017 0.359113 0
M  V30 11 C -1.17582 -0.928749 -0.307192 0
M  V30 12 N -0.468888 -1.86875 -1.10731 0
M  V30 13 H 4.34609 -0.637564 0.0221527 0
M  V30 14 H 3.98284 0.538336 1.13774 0
M  V30 15 H 3.09809 1.37682 -1.42523 0
M  V30 16 H 0.496334 1.96191 -0.926707 0
M  V30 17 H 0.562438 0.475855 -1.87678 0
M  V30 18 H -1.17663 2.28453 0.763711 0
M  V30 19 H -3.21972 1.51972 1.91128 0
M  V30 20 H -3.97481 -0.819501 1.65034 0
M  V30 21 H -2.67025 -2.34574 0.243319 0
M  V30 22 H -0.400745 -2.84739 -0.808412 0
M  V30 23 H -0.00695397 -1.60261 -2.00547 0
M  V30 END ATOM
M  V30 BEGIN BOND
M  V30 1 1 1 2
M  V30 2 1 2 3
M  V30 3 2 3 4
M  V30 4 1 3 5
M  V30 5 1 5 6
M  V30 6 2 6 7
M  V30 7 1 7 8
M  V30 8 2 8 9
M  V30 9 1 9 10
M  V30 10 2 10 11
M  V30 11 1 11 12
M  V30 12 1 11 6
M  V30 13 1 1 13
M  V30 14 1 1 14
M  V30 15 1 2 15
M  V30 16 1 5 16
M  V30 17 1 5 17
M  V30 18 1 7 18
M  V30 19 1 8 19
M  V30 20 1 9 20
M  V30 21 1 10 21
M  V30 22 1 12 22
M  V30 23 1 12 23
M  V30 END BOND
M  V30 END CTAB
M  END
