
     RDKit          3D

  0  0  0  0  0  0  0  0  0  0999 V3000
M  V30 BEGIN CTAB
M  V30 COUNTS 17 17 0 0 0
M  V30 BEGIN ATOM
M  V30 1 N -3.04041 0.418229 -1.01284 0
M  V30 2 N -2.16584 0.298986 0.0748584 0
M  V30 3 C -0.836506 -0.188758 -0.0344391 0
M  V30 4 N -0.498802 -1.48199 0.161117 0
M  V30 5 C 0.777319 -1.93571 0.0600264 0
M  V30 6 C 1.80713 -1.08143 -0.252117 0
M  V30 7 C 1.5191 0.244087 -0.461278 0
M  V30 8 C 0.192967 0.679309 -0.349931 0
M  V30 9 N 2.54191 1.18705 -0.791422 0
M  V30 10 H -3.7315 -0.375073 -0.912071 0
M  V30 11 H -3.5864 1.31742 -0.871894 0
M  V30 12 H -2.54996 0.599925 1.01947 0
M  V30 13 H 1.00046 -2.97961 0.228101 0
M  V30 14 H 2.81889 -1.42946 -0.335521 0
M  V30 15 H -0.0876015 1.71458 -0.501643 0
M  V30 16 H 3.53585 0.860998 -0.747186 0
M  V30 17 H 2.3034 2.15144 -1.06519 0
M  V30 END ATOM
M  V30 BEGIN BOND
M  V30 1 1 1 2
M  V30 2 1 2 3
M  V30 3 2 3 4
M  V30 4 1 4 5
M  V30 5 2 5 6
M  V30 6 1 6 7
M  V30 7 2 7 8
M  V30 8 1 7 9
M  V30 9 1 8 3
M  V30 10 1 1 10
M  V30 11 1 1 11
M  V30 12 1 2 12
M  V30 13 1 5 13
M  V30 14 1 6 14
M  V30 15 1 8 15
M  V30 16 1 9 16
M  V30 17 1 9 17
M  V30 END BOND
M  V30 END CTAB
M  END
