
     RDKit          3D

  0  0  0  0  0  0  0  0  0  0999 V3000
M  V30 BEGIN CTAB
M  V30 COUNTS 36 38 0 0 0
M  V30 BEGIN ATOM
M  V30 1 N -1.02747 -2.03089 1.84492 0
M  V30 2 C -0.95315 -0.948635 0.925464 0
M  V30 3 C -2.16159 -0.406242 0.414005 0
M  V30 4 C -2.13668 0.636394 -0.471027 0
M  V30 5 C -0.86418 1.10803 -0.822802 0
M  V30 6 N -0.776175 2.1886 -1.74626 0
M  V30 7 C 0.30632 0.572577 -0.319965 0
M  V30 8 C 0.264854 -0.475434 0.571719 0
M  V30 9 C 1.48482 -1.06565 1.12392 0
M  V30 10 O 1.42347 -2.039 1.9512 0
M  V30 11 C 2.7595 -0.514406 0.705262 0
M  V30 12 C 3.93143 -1.05289 1.21144 0
M  V30 13 C 5.16313 -0.549628 0.831961 0
M  V30 14 C 5.27371 0.501048 -0.0592708 0
M  V30 15 C 4.09841 1.02636 -0.55436 0
M  V30 16 C 2.85328 0.534992 -0.18555 0
M  V30 17 C 1.61511 1.10014 -0.717095 0
M  V30 18 O 1.67462 2.05812 -1.53136 0
M  V30 19 S -3.52225 1.41007 -1.10998 0
M  V30 20 O -4.32184 0.558778 -2.30332 0
M  V30 21 O -4.43543 2.0145 -0.0996048 0
M  V30 22 O -3.01237 2.66721 -1.8844 0
M  V30 23 S -3.63437 -1.16452 0.874202 0
M  V30 24 O -4.00592 -2.29238 -0.356025 0
M  V30 25 O -4.80945 -0.295789 1.02843 0
M  V30 26 O -3.43506 -2.04958 2.10037 0
M  V30 27 H -1.04831 -3.01587 1.47127 0
M  V30 28 H -1.05789 -1.79165 2.85334 0
M  V30 29 H -0.660934 3.14748 -1.36346 0
M  V30 30 H -0.831562 1.9516 -2.7585 0
M  V30 31 H 3.83582 -1.87822 1.91117 0
M  V30 32 H 6.05683 -0.984116 1.2383 0
M  V30 33 H 6.25369 0.872545 -0.336565 0
M  V30 34 H 4.14299 1.84494 -1.25041 0
M  V30 35 H -5.25297 0.902279 -2.32768 0
M  V30 36 H -3.19036 -2.54077 -0.859325 0
M  V30 END ATOM
M  V30 BEGIN BOND
M  V30 1 1 1 2
M  V30 2 2 2 3
M  V30 3 1 3 4
M  V30 4 2 4 5
M  V30 5 1 5 6
M  V30 6 1 5 7
M  V30 7 2 7 8
M  V30 8 1 8 9
M  V30 9 2 9 10
M  V30 10 1 9 11
M  V30 11 2 11 12
M  V30 12 1 12 13
M  V30 13 2 13 14
M  V30 14 1 14 15
M  V30 15 2 15 16
M  V30 16 1 16 17
M  V30 17 2 17 18
M  V30 18 1 4 19
M  V30 19 1 19 20
M  V30 20 2 19 21
M  V30 21 2 19 22
M  V30 22 1 3 23
M  V30 23 1 23 24
M  V30 24 2 23 25
M  V30 25 2 23 26
M  V30 26 1 8 2
M  V30 27 1 16 11
M  V30 28 1 17 7
M  V30 29 1 1 27
M  V30 30 1 1 28
M  V30 31 1 6 29
M  V30 32 1 6 30
M  V30 33 1 12 31
M  V30 34 1 13 32
M  V30 35 1 14 33
M  V30 36 1 15 34
M  V30 37 1 20 35
M  V30 38 1 24 36
M  V30 END BOND
M  V30 END CTAB
M  END
