
     RDKit          3D

  0  0  0  0  0  0  0  0  0  0999 V3000
M  V30 BEGIN CTAB
M  V30 COUNTS 51 53 0 0 0
M  V30 BEGIN ATOM
M  V30 1 C -6.5947 1.83384 -1.69894 0
M  V30 2 O -5.56542 1.37778 -1.0175 0
M  V30 3 C -4.55919 0.656607 -0.553642 0
M  V30 4 C -4.17566 -0.57708 -1.03646 0
M  V30 5 C -3.10375 -1.26471 -0.555632 0
M  V30 6 C -2.80686 -2.66705 -0.992123 0
M  V30 7 C -2.34692 -0.698586 0.470091 0
M  V30 8 C -2.747 0.515752 0.964564 0
M  V30 9 C -3.80905 1.22147 0.518692 0
M  V30 10 C -4.44285 2.43576 1.14537 0
M  V30 11 C -1.22738 -1.48514 0.88928 0
M  V30 12 N 0.106422 -0.93904 0.804794 0
M  V30 13 C 0.873097 -1.98925 0.0404434 0
M  V30 14 C 2.25024 -1.68193 -0.28708 0
M  V30 15 N 2.58164 -0.294966 -0.24327 0
M  V30 16 C 1.63507 0.770541 -0.071303 0
M  V30 17 C 0.180329 0.284259 0.00547189 0
M  V30 18 C 3.95286 0.0433336 -0.351987 0
M  V30 19 C 4.6795 0.0608806 0.794084 0
M  V30 20 C 6.00524 0.381784 0.910635 0
M  V30 21 N 6.71488 0.401731 2.16598 0
M  V30 22 N 6.60608 0.690721 -0.257919 0
M  V30 23 C 5.89182 0.680116 -1.39344 0
M  V30 24 N 4.60024 0.377571 -1.48812 0
M  V30 25 N 6.67902 1.05447 -2.58455 0
M  V30 26 H -6.60087 3.00215 -1.57301 0
M  V30 27 H -7.61495 1.44556 -1.49257 0
M  V30 28 H -6.44524 1.76406 -2.8225 0
M  V30 29 H -4.76805 -1.0441 -1.86088 0
M  V30 30 H -3.49312 -2.91348 -1.81209 0
M  V30 31 H -1.80749 -2.91218 -1.26146 0
M  V30 32 H -3.14525 -3.35494 -0.120993 0
M  V30 33 H -2.17423 0.999008 1.79418 0
M  V30 34 H -4.51308 2.24985 2.27938 0
M  V30 35 H -4.03169 3.38338 0.924046 0
M  V30 36 H -5.58222 2.47298 0.92203 0
M  V30 37 H -1.19282 -2.53943 0.670731 0
M  V30 38 H -1.3555 -1.50405 2.08684 0
M  V30 39 H 0.679606 -2.89541 0.587329 0
M  V30 40 H 0.246037 -2.10359 -0.899246 0
M  V30 41 H 2.98756 -2.25785 0.368137 0
M  V30 42 H 2.48477 -2.07318 -1.33439 0
M  V30 43 H 1.76664 1.47083 -0.890974 0
M  V30 44 H 1.89576 1.28934 0.891944 0
M  V30 45 H -0.333246 1.07741 0.567874 0
M  V30 46 H -0.199231 0.128608 -1.00248 0
M  V30 47 H 4.16468 -0.214417 1.72677 0
M  V30 48 H 7.41973 -0.27587 2.47575 0
M  V30 49 H 6.43897 1.1426 2.80946 0
M  V30 50 H 7.17823 0.409303 -3.11405 0
M  V30 51 H 6.61736 2.06456 -2.7888 0
M  V30 END ATOM
M  V30 BEGIN BOND
M  V30 1 1 1 2
M  V30 2 1 2 3
M  V30 3 2 3 4
M  V30 4 1 4 5
M  V30 5 1 5 6
M  V30 6 2 5 7
M  V30 7 1 7 8
M  V30 8 2 8 9
M  V30 9 1 9 10
M  V30 10 1 7 11
M  V30 11 1 11 12
M  V30 12 1 12 13
M  V30 13 1 13 14
M  V30 14 1 14 15
M  V30 15 1 15 16
M  V30 16 1 16 17
M  V30 17 1 15 18
M  V30 18 2 18 19
M  V30 19 1 19 20
M  V30 20 1 20 21
M  V30 21 2 20 22
M  V30 22 1 22 23
M  V30 23 2 23 24
M  V30 24 1 23 25
M  V30 25 1 9 3
M  V30 26 1 17 12
M  V30 27 1 24 18
M  V30 28 1 1 26
M  V30 29 1 1 27
M  V30 30 1 1 28
M  V30 31 1 4 29
M  V30 32 1 6 30
M  V30 33 1 6 31
M  V30 34 1 6 32
M  V30 35 1 8 33
M  V30 36 1 10 34
M  V30 37 1 10 35
M  V30 38 1 10 36
M  V30 39 1 11 37
M  V30 40 1 11 38
M  V30 41 1 13 39
M  V30 42 1 13 40
M  V30 43 1 14 41
M  V30 44 1 14 42
M  V30 45 1 16 43
M  V30 46 1 16 44
M  V30 47 1 17 45
M  V30 48 1 17 46
M  V30 49 1 19 47
M  V30 50 1 21 48
M  V30 51 1 21 49
M  V30 52 1 25 50
M  V30 53 1 25 51
M  V30 END BOND
M  V30 END CTAB
M  END
