
     RDKit          3D

  0  0  0  0  0  0  0  0  0  0999 V3000
M  V30 BEGIN CTAB
M  V30 COUNTS 89 92 0 0 0
M  V30 BEGIN ATOM
M  V30 1 N -13.6446 1.26056 2.6138 0
M  V30 2 C -12.532 2.04448 3.05609 0
M  V30 3 C -11.3627 2.01144 2.1464 0
M  V30 4 C -11.3696 1.13551 1.06849 0
M  V30 5 C -10.3227 1.06097 0.203958 0
M  V30 6 C -9.21193 1.86098 0.374167 0
M  V30 7 C -8.09298 1.75568 -0.587022 0
M  V30 8 N -7.13057 0.751514 -0.237574 0
M  V30 9 C -7.30737 -0.664377 -0.614911 0
M  V30 10 C -6.79 -1.45642 0.585209 0
M  V30 11 C -5.30094 -1.35263 0.665672 0
M  V30 12 C -4.83182 0.0556054 0.433089 0
M  V30 13 N -4.10049 0.0859709 -0.82515 0
M  V30 14 C -2.7013 -0.10527 -0.908428 0
M  V30 15 O -2.03884 -0.320195 0.130327 0
M  V30 16 C -2.02826 -0.0595215 -2.20598 0
M  V30 17 C -0.599662 -0.673363 -2.0611 0
M  V30 18 C -0.0189308 -0.598606 -3.41509 0
M  V30 19 C 1.24854 -1.18592 -3.78454 0
M  V30 20 C 2.55949 -0.906779 -3.25936 0
M  V30 21 C 2.92009 -1.17032 -1.86352 0
M  V30 22 O 2.1587 -1.39871 -0.907742 0
M  V30 23 N 4.3334 -1.17892 -1.53493 0
M  V30 24 C 4.82804 -1.42962 -0.19028 0
M  V30 25 C 5.16294 -2.93045 -0.120912 0
M  V30 26 C 6.07699 -3.21535 1.03414 0
M  V30 27 C 7.3775 -2.48053 0.937503 0
M  V30 28 N 7.31516 -1.28354 0.120028 0
M  V30 29 C 8.51528 -0.815831 -0.490897 0
M  V30 30 C 9.35117 0.0813944 0.343348 0
M  V30 31 C 9.3633 1.44765 0.225861 0
M  V30 32 C 10.2004 2.21101 1.03259 0
M  V30 33 C 11.0322 1.63176 1.96098 0
M  V30 34 C 11.9566 2.40331 2.83699 0
M  V30 35 N 13.269 2.50169 2.21981 0
M  V30 36 C 11.0006 0.239966 2.06042 0
M  V30 37 C 10.1797 -0.54229 1.27316 0
M  V30 38 C 6.06226 -0.633028 -0.0307665 0
M  V30 39 O 5.98824 0.618721 -0.0322253 0
M  V30 40 C -5.93351 1.01563 0.508734 0
M  V30 41 O -5.86585 2.05604 1.19871 0
M  V30 42 C -9.20598 2.7433 1.46203 0
M  V30 43 C -10.2618 2.81428 2.32814 0
M  V30 44 H -13.719 0.339348 3.04801 0
M  V30 45 H -13.9298 1.36086 1.6448 0
M  V30 46 H -12.2398 1.63385 4.06381 0
M  V30 47 H -12.8656 3.08756 3.23431 0
M  V30 48 H -12.2281 0.507557 0.928328 0
M  V30 49 H -10.3645 0.358279 -0.637759 0
M  V30 50 H -8.52646 1.55079 -1.6053 0
M  V30 51 H -7.6231 2.76895 -0.636809 0
M  V30 52 H -8.361 -0.917844 -0.730629 0
M  V30 53 H -6.74436 -0.86377 -1.52269 0
M  V30 54 H -7.13693 -2.51481 0.496776 0
M  V30 55 H -7.24327 -0.953385 1.47429 0
M  V30 56 H -4.83069 -2.03076 -0.106834 0
M  V30 57 H -4.93029 -1.69745 1.68052 0
M  V30 58 H -4.07497 0.276111 1.23327 0
M  V30 59 H -4.65362 0.263092 -1.71302 0
M  V30 60 H -1.87852 0.983517 -2.59097 0
M  V30 61 H -2.61077 -0.607255 -2.94565 0
M  V30 62 H -0.110324 0.0599212 -1.36751 0
M  V30 63 H -0.755362 -1.66625 -1.6295 0
M  V30 64 H -0.863646 -0.901681 -4.13161 0
M  V30 65 H 0.0124914 0.538188 -3.64505 0
M  V30 66 H 1.07663 -2.34595 -3.70626 0
M  V30 67 H 1.2976 -1.14297 -4.95962 0
M  V30 68 H 2.92427 0.151999 -3.45605 0
M  V30 69 H 3.3213 -1.52855 -3.86368 0
M  V30 70 H 4.98319 -0.997042 -2.33325 0
M  V30 71 H 4.02289 -1.20248 0.516386 0
M  V30 72 H 4.20332 -3.44712 0.0593144 0
M  V30 73 H 5.60098 -3.31353 -1.03845 0
M  V30 74 H 5.54013 -3.05214 1.97814 0
M  V30 75 H 6.31131 -4.30558 0.990207 0
M  V30 76 H 7.70102 -2.18538 1.94889 0
M  V30 77 H 8.19292 -3.12474 0.534458 0
M  V30 78 H 9.1387 -1.66918 -0.823943 0
M  V30 79 H 8.2862 -0.25721 -1.44311 0
M  V30 80 H 8.69195 1.89092 -0.520792 0
M  V30 81 H 10.1985 3.30206 0.925235 0
M  V30 82 H 12.0145 1.83492 3.80069 0
M  V30 83 H 11.5661 3.42275 3.00972 0
M  V30 84 H 13.9754 2.01824 2.81934 0
M  V30 85 H 13.2173 1.99974 1.29569 0
M  V30 86 H 11.642 -0.26436 2.78154 0
M  V30 87 H 10.1558 -1.63137 1.34867 0
M  V30 88 H -8.36234 3.39282 1.63207 0
M  V30 89 H -10.2694 3.49353 3.16846 0
M  V30 END ATOM
M  V30 BEGIN BOND
M  V30 1 1 1 2
M  V30 2 1 2 3
M  V30 3 2 3 4
M  V30 4 1 4 5
M  V30 5 2 5 6
M  V30 6 1 6 7
M  V30 7 1 7 8
M  V30 8 1 8 9
M  V30 9 1 9 10
M  V30 10 1 10 11
M  V30 11 1 11 12
M  V30 12 1 12 13
M  V30 13 1 13 14
M  V30 14 2 14 15
M  V30 15 1 14 16
M  V30 16 1 16 17
M  V30 17 1 17 18
M  V30 18 1 18 19
M  V30 19 1 19 20
M  V30 20 1 20 21
M  V30 21 2 21 22
M  V30 22 1 21 23
M  V30 23 1 23 24
M  V30 24 1 24 25
M  V30 25 1 25 26
M  V30 26 1 26 27
M  V30 27 1 27 28
M  V30 28 1 28 29
M  V30 29 1 29 30
M  V30 30 2 30 31
M  V30 31 1 31 32
M  V30 32 2 32 33
M  V30 33 1 33 34
M  V30 34 1 34 35
M  V30 35 1 33 36
M  V30 36 2 36 37
M  V30 37 1 28 38
M  V30 38 2 38 39
M  V30 39 1 12 40
M  V30 40 2 40 41
M  V30 41 1 6 42
M  V30 42 2 42 43
M  V30 43 1 43 3
M  V30 44 1 40 8
M  V30 45 1 38 24
M  V30 46 1 37 30
M  V30 47 1 1 44
M  V30 48 1 1 45
M  V30 49 1 2 46
M  V30 50 1 2 47
M  V30 51 1 4 48
M  V30 52 1 5 49
M  V30 53 1 7 50
M  V30 54 1 7 51
M  V30 55 1 9 52
M  V30 56 1 9 53
M  V30 57 1 10 54
M  V30 58 1 10 55
M  V30 59 1 11 56
M  V30 60 1 11 57
M  V30 61 1 12 58
M  V30 62 1 13 59
M  V30 63 1 16 60
M  V30 64 1 16 61
M  V30 65 1 17 62
M  V30 66 1 17 63
M  V30 67 1 18 64
M  V30 68 1 18 65
M  V30 69 1 19 66
M  V30 70 1 19 67
M  V30 71 1 20 68
M  V30 72 1 20 69
M  V30 73 1 23 70
M  V30 74 1 24 71
M  V30 75 1 25 72
M  V30 76 1 25 73
M  V30 77 1 26 74
M  V30 78 1 26 75
M  V30 79 1 27 76
M  V30 80 1 27 77
M  V30 81 1 29 78
M  V30 82 1 29 79
M  V30 83 1 31 80
M  V30 84 1 32 81
M  V30 85 1 34 82
M  V30 86 1 34 83
M  V30 87 1 35 84
M  V30 88 1 35 85
M  V30 89 1 36 86
M  V30 90 1 37 87
M  V30 91 1 42 88
M  V30 92 1 43 89
M  V30 END BOND
M  V30 END CTAB
M  END
