
     RDKit          3D

  0  0  0  0  0  0  0  0  0  0999 V3000
M  V30 BEGIN CTAB
M  V30 COUNTS 36 37 0 0 0
M  V30 BEGIN ATOM
M  V30 1 N -5.44653 -0.815917 -1.31749 0
M  V30 2 C -4.26701 -0.0852396 -0.879939 0
M  V30 3 C -3.33591 -1.05286 -0.182624 0
M  V30 4 C -2.11156 -0.422296 0.300884 0
M  V30 5 C -2.00021 0.37401 1.43301 0
M  V30 6 C -3.12295 0.720665 2.35577 0
M  V30 7 N -0.74077 0.74566 1.51874 0
M  V30 8 N -0.000243396 0.245997 0.511182 0
M  V30 9 C -0.820797 -0.467843 -0.239983 0
M  V30 10 C -0.501881 -1.216 -1.47417 0
M  V30 11 C 1.38303 0.493867 0.367868 0
M  V30 12 O 1.95811 1.24673 1.24799 0
M  V30 13 C 2.20283 -0.0510133 -0.716756 0
M  V30 14 N 3.58797 0.425807 -0.556263 0
M  V30 15 N 4.04139 1.53314 -1.08513 0
M  V30 16 C 5.32923 1.72328 -0.781327 0
M  V30 17 C 5.68524 0.645451 -0.00653696 0
M  V30 18 N 4.5859 -0.129435 0.108463 0
M  V30 19 N 6.97476 0.451371 0.533215 0
M  V30 20 H -6.14812 -0.894977 -0.539958 0
M  V30 21 H -5.16279 -1.78872 -1.56333 0
M  V30 22 H -3.75128 0.405782 -1.72072 0
M  V30 23 H -4.62353 0.645769 -0.107107 0
M  V30 24 H -3.11545 -1.87598 -0.877986 0
M  V30 25 H -3.91038 -1.53256 0.65863 0
M  V30 26 H -3.94186 -0.00388977 2.28594 0
M  V30 27 H -2.78384 0.816631 3.3996 0
M  V30 28 H -3.52619 1.71236 1.99967 0
M  V30 29 H 0.223754 -2.0269 -1.35376 0
M  V30 30 H -0.224883 -0.485601 -2.2901 0
M  V30 31 H -1.41994 -1.71031 -1.90171 0
M  V30 32 H 1.89923 0.28277 -1.70795 0
M  V30 33 H 2.24015 -1.15289 -0.57099 0
M  V30 34 H 5.92578 2.55415 -1.09434 0
M  V30 35 H 7.64418 1.2271 0.726342 0
M  V30 36 H 7.27456 -0.538132 0.752659 0
M  V30 END ATOM
M  V30 BEGIN BOND
M  V30 1 1 1 2
M  V30 2 1 2 3
M  V30 3 1 3 4
M  V30 4 1 4 5
M  V30 5 1 5 6
M  V30 6 2 5 7
M  V30 7 1 7 8
M  V30 8 1 8 9
M  V30 9 1 9 10
M  V30 10 1 8 11
M  V30 11 2 11 12
M  V30 12 1 11 13
M  V30 13 1 13 14
M  V30 14 1 14 15
M  V30 15 2 15 16
M  V30 16 1 16 17
M  V30 17 2 17 18
M  V30 18 1 17 19
M  V30 19 2 9 4
M  V30 20 1 18 14
M  V30 21 1 1 20
M  V30 22 1 1 21
M  V30 23 1 2 22
M  V30 24 1 2 23
M  V30 25 1 3 24
M  V30 26 1 3 25
M  V30 27 1 6 26
M  V30 28 1 6 27
M  V30 29 1 6 28
M  V30 30 1 10 29
M  V30 31 1 10 30
M  V30 32 1 10 31
M  V30 33 1 13 32
M  V30 34 1 13 33
M  V30 35 1 16 34
M  V30 36 1 19 35
M  V30 37 1 19 36
M  V30 END BOND
M  V30 END CTAB
M  END
