
     RDKit          3D

  0  0  0  0  0  0  0  0  0  0999 V3000
M  V30 BEGIN CTAB
M  V30 COUNTS 40 39 0 0 0
M  V30 BEGIN ATOM
M  V30 1 C 4.589 1.30865 -1.15348 0
M  V30 2 C 4.02358 0.637744 0.0486254 0
M  V30 3 C 2.52157 0.497031 0.0647876 0
M  V30 4 C 1.95594 -0.310085 -1.05915 0
M  V30 5 C 0.493077 -0.448945 -1.03694 0
M  V30 6 O -0.120826 0.00476234 -2.04366 0
M  V30 7 N -0.273643 -1.02936 -0.0196068 0
M  V30 8 C -1.71894 -1.10003 -0.0863203 0
M  V30 9 C -2.42587 0.0624114 0.526845 0
M  V30 10 C -3.94026 -0.0696983 0.425162 0
M  V30 11 N -4.43134 -1.24278 1.08711 0
M  V30 12 C -2.09095 0.199611 2.01925 0
M  V30 13 C -2.07916 1.39562 -0.0939269 0
M  V30 14 C 0.301264 -1.6221 1.19286 0
M  V30 15 N 2.42399 0.239136 -2.33678 0
M  V30 16 H 4.92846 0.613076 -1.95567 0
M  V30 17 H 5.54679 1.82949 -0.834849 0
M  V30 18 H 3.94468 2.12081 -1.49758 0
M  V30 19 H 4.53168 -0.330623 0.274309 0
M  V30 20 H 4.26856 1.27498 0.951898 0
M  V30 21 H 2.14024 1.55311 -0.0967678 0
M  V30 22 H 2.27169 0.132894 1.06809 0
M  V30 23 H 2.42012 -1.31482 -0.985329 0
M  V30 24 H -2.03387 -1.11694 -1.17017 0
M  V30 25 H -2.10655 -2.05019 0.338166 0
M  V30 26 H -4.23101 -0.145932 -0.64591 0
M  V30 27 H -4.38911 0.874946 0.800523 0
M  V30 28 H -5.22269 -1.00913 1.73357 0
M  V30 29 H -4.65682 -2.02701 0.458052 0
M  V30 30 H -2.0161 -0.800709 2.45502 0
M  V30 31 H -1.23872 0.862731 2.19105 0
M  V30 32 H -2.96545 0.690147 2.53751 0
M  V30 33 H -1.03495 1.7105 0.0988517 0
M  V30 34 H -2.70858 2.14588 0.475857 0
M  V30 35 H -2.41502 1.50242 -1.13451 0
M  V30 36 H -0.310054 -2.49157 1.50847 0
M  V30 37 H 0.33981 -0.934629 2.03208 0
M  V30 38 H 1.31244 -2.06416 0.94885 0
M  V30 39 H 2.63029 -0.508974 -3.02544 0
M  V30 40 H 1.76675 0.961756 -2.69471 0
M  V30 END ATOM
M  V30 BEGIN BOND
M  V30 1 1 1 2
M  V30 2 1 2 3
M  V30 3 1 3 4
M  V30 4 1 4 5
M  V30 5 2 5 6
M  V30 6 1 5 7
M  V30 7 1 7 8
M  V30 8 1 8 9
M  V30 9 1 9 10
M  V30 10 1 10 11
M  V30 11 1 9 12
M  V30 12 1 9 13
M  V30 13 1 7 14
M  V30 14 1 4 15
M  V30 15 1 1 16
M  V30 16 1 1 17
M  V30 17 1 1 18
M  V30 18 1 2 19
M  V30 19 1 2 20
M  V30 20 1 3 21
M  V30 21 1 3 22
M  V30 22 1 4 23
M  V30 23 1 8 24
M  V30 24 1 8 25
M  V30 25 1 10 26
M  V30 26 1 10 27
M  V30 27 1 11 28
M  V30 28 1 11 29
M  V30 29 1 12 30
M  V30 30 1 12 31
M  V30 31 1 12 32
M  V30 32 1 13 33
M  V30 33 1 13 34
M  V30 34 1 13 35
M  V30 35 1 14 36
M  V30 36 1 14 37
M  V30 37 1 14 38
M  V30 38 1 15 39
M  V30 39 1 15 40
M  V30 END BOND
M  V30 END CTAB
M  END
