
     RDKit          3D

  0  0  0  0  0  0  0  0  0  0999 V3000
M  V30 BEGIN CTAB
M  V30 COUNTS 45 47 0 0 0
M  V30 BEGIN ATOM
M  V30 1 C -2.85709 4.97652 -2.38607 0
M  V30 2 O -3.07001 4.4465 -1.08357 0
M  V30 3 C -2.20895 3.45066 -0.637032 0
M  V30 4 C -1.1712 2.96863 -1.40639 0
M  V30 5 C -0.336027 1.96359 -0.902296 0
M  V30 6 C -0.531987 1.44262 0.356858 0
M  V30 7 C 0.365338 0.380909 0.867586 0
M  V30 8 C -0.0884191 -1.00995 0.564669 0
M  V30 9 C -0.220131 -1.32811 -0.887188 0
M  V30 10 C 1.07366 -1.42573 -1.62986 0
M  V30 11 C 1.94568 -2.40774 -0.954952 0
M  V30 12 N 2.87019 -3.04931 -1.70102 0
M  V30 13 C 3.68064 -3.9468 -1.12493 0
M  V30 14 N 4.64487 -4.6177 -1.89707 0
M  V30 15 N 3.54011 -4.18126 0.207433 0
M  V30 16 C 2.63719 -3.56347 0.968304 0
M  V30 17 N 2.53904 -3.85156 2.35541 0
M  V30 18 C 1.79573 -2.63741 0.391296 0
M  V30 19 C 0.811374 -1.97538 1.26385 0
M  V30 20 C -1.57387 1.93485 1.11411 0
M  V30 21 C -2.41512 2.93648 0.626128 0
M  V30 22 O -3.46999 3.43174 1.39941 0
M  V30 23 C -3.76055 2.97785 2.685 0
M  V30 24 H -3.68653 5.6274 -2.70668 0
M  V30 25 H -2.76835 4.14883 -3.12056 0
M  V30 26 H -1.89798 5.54631 -2.45223 0
M  V30 27 H -1.02272 3.38237 -2.39457 0
M  V30 28 H 0.447593 1.65028 -1.57228 0
M  V30 29 H 0.457538 0.452637 1.98326 0
M  V30 30 H 1.40138 0.485544 0.485302 0
M  V30 31 H -1.11923 -1.11024 1.00285 0
M  V30 32 H -0.709505 -2.33705 -0.953734 0
M  V30 33 H -0.930386 -0.632301 -1.38038 0
M  V30 34 H 1.6009 -0.449819 -1.71044 0
M  V30 35 H 0.842677 -1.83837 -2.64218 0
M  V30 36 H 4.49645 -4.72713 -2.91506 0
M  V30 37 H 5.50261 -5.0065 -1.47021 0
M  V30 38 H 2.75936 -4.84097 2.6354 0
M  V30 39 H 2.2654 -3.13055 3.05965 0
M  V30 40 H 1.37647 -1.49517 2.10158 0
M  V30 41 H 0.195368 -2.77704 1.76449 0
M  V30 42 H -1.74369 1.54129 2.10039 0
M  V30 43 H -3.76573 1.87816 2.79521 0
M  V30 44 H -3.09521 3.4043 3.46398 0
M  V30 45 H -4.80688 3.31211 2.93427 0
M  V30 END ATOM
M  V30 BEGIN BOND
M  V30 1 1 1 2
M  V30 2 1 2 3
M  V30 3 2 3 4
M  V30 4 1 4 5
M  V30 5 2 5 6
M  V30 6 1 6 7
M  V30 7 1 7 8
M  V30 8 1 8 9
M  V30 9 1 9 10
M  V30 10 1 10 11
M  V30 11 2 11 12
M  V30 12 1 12 13
M  V30 13 1 13 14
M  V30 14 2 13 15
M  V30 15 1 15 16
M  V30 16 1 16 17
M  V30 17 2 16 18
M  V30 18 1 18 19
M  V30 19 1 6 20
M  V30 20 2 20 21
M  V30 21 1 21 22
M  V30 22 1 22 23
M  V30 23 1 21 3
M  V30 24 1 19 8
M  V30 25 1 18 11
M  V30 26 1 1 24
M  V30 27 1 1 25
M  V30 28 1 1 26
M  V30 29 1 4 27
M  V30 30 1 5 28
M  V30 31 1 7 29
M  V30 32 1 7 30
M  V30 33 1 8 31
M  V30 34 1 9 32
M  V30 35 1 9 33
M  V30 36 1 10 34
M  V30 37 1 10 35
M  V30 38 1 14 36
M  V30 39 1 14 37
M  V30 40 1 17 38
M  V30 41 1 17 39
M  V30 42 1 19 40
M  V30 43 1 19 41
M  V30 44 1 20 42
M  V30 45 1 23 43
M  V30 46 1 23 44
M  V30 47 1 23 45
M  V30 END BOND
M  V30 END CTAB
M  END
