
     RDKit          3D

  0  0  0  0  0  0  0  0  0  0999 V3000
M  V30 BEGIN CTAB
M  V30 COUNTS 35 36 0 0 0
M  V30 BEGIN ATOM
M  V30 1 N 4.93736 -1.99712 -0.174708 0
M  V30 2 C 5.16842 -0.623268 0.279459 0
M  V30 3 C 3.86026 0.0541202 0.309302 0
M  V30 4 C 3.37918 0.72465 -0.790405 0
M  V30 5 C 2.14441 1.35834 -0.74722 0
M  V30 6 C 1.36088 1.34032 0.387453 0
M  V30 7 C 1.87316 0.65303 1.48803 0
M  V30 8 C 3.09383 0.0251384 1.44914 0
M  V30 9 S -0.19999 2.12916 0.474173 0
M  V30 10 O -0.135523 3.32898 -0.455817 0
M  V30 11 O -0.461246 2.57572 1.88374 0
M  V30 12 C -1.481 1.05589 -0.0100814 0
M  V30 13 C -1.92703 0.935167 -1.31035 0
M  V30 14 C -2.95645 0.0572667 -1.63061 0
M  V30 15 C -3.5576 -0.71416 -0.660102 0
M  V30 16 C -4.63866 -1.6249 -1.0465 0
M  V30 17 N -5.95314 -1.02754 -0.985479 0
M  V30 18 C -3.0939 -0.57725 0.640683 0
M  V30 19 C -2.07852 0.285561 0.970499 0
M  V30 20 H 5.84845 -2.4669 -0.331001 0
M  V30 21 H 4.36085 -2.5267 0.501621 0
M  V30 22 H 5.8663 -0.134795 -0.416127 0
M  V30 23 H 5.643 -0.612475 1.28434 0
M  V30 24 H 3.94822 0.774208 -1.71059 0
M  V30 25 H 1.75154 1.88909 -1.60092 0
M  V30 26 H 1.26617 0.633486 2.38178 0
M  V30 27 H 3.4995 -0.514367 2.30816 0
M  V30 28 H -1.45025 1.54295 -2.062 0
M  V30 29 H -3.23714 0.0320569 -2.67597 0
M  V30 30 H -4.6071 -2.5053 -0.367665 0
M  V30 31 H -4.47205 -1.9416 -2.09817 0
M  V30 32 H -6.47832 -1.29361 -0.128061 0
M  V30 33 H -5.95509 -0.0108989 -1.17901 0
M  V30 34 H -3.57727 -1.1907 1.39049 0
M  V30 35 H -1.74126 0.366442 2.00023 0
M  V30 END ATOM
M  V30 BEGIN BOND
M  V30 1 1 1 2
M  V30 2 1 2 3
M  V30 3 2 3 4
M  V30 4 1 4 5
M  V30 5 2 5 6
M  V30 6 1 6 7
M  V30 7 2 7 8
M  V30 8 1 6 9
M  V30 9 2 9 10
M  V30 10 2 9 11
M  V30 11 1 9 12
M  V30 12 2 12 13
M  V30 13 1 13 14
M  V30 14 2 14 15
M  V30 15 1 15 16
M  V30 16 1 16 17
M  V30 17 1 15 18
M  V30 18 2 18 19
M  V30 19 1 8 3
M  V30 20 1 19 12
M  V30 21 1 1 20
M  V30 22 1 1 21
M  V30 23 1 2 22
M  V30 24 1 2 23
M  V30 25 1 4 24
M  V30 26 1 5 25
M  V30 27 1 7 26
M  V30 28 1 8 27
M  V30 29 1 13 28
M  V30 30 1 14 29
M  V30 31 1 16 30
M  V30 32 1 16 31
M  V30 33 1 17 32
M  V30 34 1 17 33
M  V30 35 1 18 34
M  V30 36 1 19 35
M  V30 END BOND
M  V30 END CTAB
M  END
