
     RDKit          3D

  0  0  0  0  0  0  0  0  0  0999 V3000
M  V30 BEGIN CTAB
M  V30 COUNTS 43 44 0 0 0
M  V30 BEGIN ATOM
M  V30 1 N 1.82905 -2.36775 -3.13232 0
M  V30 2 C 1.79898 -2.02496 -1.72433 0
M  V30 3 C 1.4598 -3.20129 -0.862343 0
M  V30 4 C -0.0370343 -3.14934 -0.764695 0
M  V30 5 N -0.26828 -1.72091 -0.65646 0
M  V30 6 C 0.749249 -1.01322 -1.42397 0
M  V30 7 C 1.28671 0.124033 -0.634469 0
M  V30 8 C 1.48309 1.36576 -1.19259 0
M  V30 9 C 1.98236 2.40396 -0.435206 0
M  V30 10 C 2.30526 2.23774 0.91512 0
M  V30 11 C 2.10612 0.995387 1.4639 0
M  V30 12 C 1.59953 -0.0568819 0.694269 0
M  V30 13 N 2.81636 3.29462 1.69653 0
M  V30 14 C -1.32465 -1.15012 0.0859934 0
M  V30 15 O -2.14341 -1.85884 0.709367 0
M  V30 16 O -1.48939 0.2008 0.14926 0
M  V30 17 C -2.45861 0.909049 0.822784 0
M  V30 18 C -2.20529 2.40155 0.576936 0
M  V30 19 C -2.48695 0.720753 2.31324 0
M  V30 20 C -3.82081 0.504751 0.294421 0
M  V30 21 H 2.78329 -2.26156 -3.53748 0
M  V30 22 H 1.41752 -3.30634 -3.32992 0
M  V30 23 H 2.81261 -1.64309 -1.45404 0
M  V30 24 H 1.93044 -3.11703 0.136932 0
M  V30 25 H 1.71523 -4.17287 -1.33611 0
M  V30 26 H -0.454365 -3.56712 -1.70388 0
M  V30 27 H -0.442721 -3.71256 0.0893306 0
M  V30 28 H 0.318431 -0.666124 -2.39245 0
M  V30 29 H 1.24982 1.549 -2.23299 0
M  V30 30 H 2.14596 3.39219 -0.852707 0
M  V30 31 H 2.34608 0.837401 2.50275 0
M  V30 32 H 1.46429 -1.02087 1.19344 0
M  V30 33 H 2.30062 4.1835 1.768 0
M  V30 34 H 3.70958 3.17146 2.19564 0
M  V30 35 H -1.56773 2.54364 -0.325184 0
M  V30 36 H -1.65754 2.85976 1.42919 0
M  V30 37 H -3.14573 2.93414 0.419339 0
M  V30 38 H -2.60497 -0.341247 2.61206 0
M  V30 39 H -1.67287 1.23918 2.83862 0
M  V30 40 H -3.43746 1.22314 2.66462 0
M  V30 41 H -3.68097 0.20232 -0.764304 0
M  V30 42 H -4.47523 1.40091 0.314893 0
M  V30 43 H -4.23636 -0.342898 0.868824 0
M  V30 END ATOM
M  V30 BEGIN BOND
M  V30 1 1 1 2
M  V30 2 1 2 3
M  V30 3 1 3 4
M  V30 4 1 4 5
M  V30 5 1 5 6
M  V30 6 1 6 7
M  V30 7 2 7 8
M  V30 8 1 8 9
M  V30 9 2 9 10
M  V30 10 1 10 11
M  V30 11 2 11 12
M  V30 12 1 10 13
M  V30 13 1 5 14
M  V30 14 2 14 15
M  V30 15 1 14 16
M  V30 16 1 16 17
M  V30 17 1 17 18
M  V30 18 1 17 19
M  V30 19 1 17 20
M  V30 20 1 6 2
M  V30 21 1 12 7
M  V30 22 1 1 21
M  V30 23 1 1 22
M  V30 24 1 2 23
M  V30 25 1 3 24
M  V30 26 1 3 25
M  V30 27 1 4 26
M  V30 28 1 4 27
M  V30 29 1 6 28
M  V30 30 1 8 29
M  V30 31 1 9 30
M  V30 32 1 11 31
M  V30 33 1 12 32
M  V30 34 1 13 33
M  V30 35 1 13 34
M  V30 36 1 18 35
M  V30 37 1 18 36
M  V30 38 1 18 37
M  V30 39 1 19 38
M  V30 40 1 19 39
M  V30 41 1 19 40
M  V30 42 1 20 41
M  V30 43 1 20 42
M  V30 44 1 20 43
M  V30 END BOND
M  V30 END CTAB
M  END
