
     RDKit          3D

  0  0  0  0  0  0  0  0  0  0999 V3000
M  V30 BEGIN CTAB
M  V30 COUNTS 29 30 0 0 0
M  V30 BEGIN ATOM
M  V30 1 C -2.73971 1.86335 0.613157 0
M  V30 2 C -3.16914 0.54572 0.0535986 0
M  V30 3 C -3.11847 -0.55636 1.11476 0
M  V30 4 N -2.33247 0.110327 -1.06175 0
M  V30 5 C -0.93183 -0.093943 -0.872128 0
M  V30 6 C -0.194776 -0.504922 -1.96232 0
M  V30 7 Cl -0.994116 -0.756574 -3.51433 0
M  V30 8 N 1.12582 -0.701384 -1.79871 0
M  V30 9 C 1.69485 -0.497122 -0.595373 0
M  V30 10 C 3.05091 -0.695326 -0.413473 0
M  V30 11 N 3.80902 -1.11772 -1.53353 0
M  V30 12 N 3.61488 -0.487842 0.798963 0
M  V30 13 C 2.90518 -0.0868821 1.86923 0
M  V30 14 N 3.5258 0.125573 3.14123 0
M  V30 15 N 1.58585 0.105527 1.69056 0
M  V30 16 C 0.973209 -0.0857572 0.507225 0
M  V30 17 N -0.347398 0.10886 0.33638 0
M  V30 18 H -1.92599 2.33447 -0.0134687 0
M  V30 19 H -2.31459 1.80507 1.63343 0
M  V30 20 H -3.57811 2.58707 0.575714 0
M  V30 21 H -4.22428 0.617496 -0.261878 0
M  V30 22 H -2.91706 -1.54899 0.658469 0
M  V30 23 H -4.11822 -0.633865 1.61054 0
M  V30 24 H -2.37249 -0.331158 1.89604 0
M  V30 25 H -2.78233 -0.0424495 -1.97897 0
M  V30 26 H 3.43029 -1.66149 -2.31665 0
M  V30 27 H 4.8181 -0.851854 -1.55136 0
M  V30 28 H 3.66558 -0.628875 3.84323 0
M  V30 29 H 3.86151 1.07904 3.39502 0
M  V30 END ATOM
M  V30 BEGIN BOND
M  V30 1 1 1 2
M  V30 2 1 2 3
M  V30 3 1 2 4
M  V30 4 1 4 5
M  V30 5 2 5 6
M  V30 6 1 6 7
M  V30 7 1 6 8
M  V30 8 2 8 9
M  V30 9 1 9 10
M  V30 10 1 10 11
M  V30 11 2 10 12
M  V30 12 1 12 13
M  V30 13 1 13 14
M  V30 14 2 13 15
M  V30 15 1 15 16
M  V30 16 2 16 17
M  V30 17 1 17 5
M  V30 18 1 16 9
M  V30 19 1 1 18
M  V30 20 1 1 19
M  V30 21 1 1 20
M  V30 22 1 2 21
M  V30 23 1 3 22
M  V30 24 1 3 23
M  V30 25 1 3 24
M  V30 26 1 4 25
M  V30 27 1 11 26
M  V30 28 1 11 27
M  V30 29 1 14 28
M  V30 30 1 14 29
M  V30 END BOND
M  V30 END CTAB
M  END
