
     RDKit          3D

  0  0  0  0  0  0  0  0  0  0999 V3000
M  V30 BEGIN CTAB
M  V30 COUNTS 19 19 0 0 0
M  V30 BEGIN ATOM
M  V30 1 N 2.90527 -1.13452 0.362787 0
M  V30 2 C 1.66325 -0.4392 0.241343 0
M  V30 3 C 0.470034 -1.11945 0.174548 0
M  V30 4 C -0.748315 -0.512764 0.0582024 0
M  V30 5 C -2.04105 -1.25006 -0.0141591 0
M  V30 6 C -0.734262 0.887852 0.00746456 0
M  V30 7 C 0.446152 1.59182 0.0723961 0
M  V30 8 C 1.62986 0.937068 0.187852 0
M  V30 9 I 0.372163 3.68811 -0.010864 0
M  V30 10 N -1.96009 1.58631 -0.112849 0
M  V30 11 H 3.02757 -2.12444 0.0782068 0
M  V30 12 H 3.73218 -0.641018 0.751424 0
M  V30 13 H 0.484789 -2.21057 0.216056 0
M  V30 14 H -2.36558 -1.61766 0.976107 0
M  V30 15 H -1.87495 -2.15115 -0.669605 0
M  V30 16 H -2.8091 -0.646103 -0.511088 0
M  V30 17 H 2.59319 1.48703 0.241751 0
M  V30 18 H -2.31189 1.83192 -1.04535 0
M  V30 19 H -2.47922 1.83683 0.736144 0
M  V30 END ATOM
M  V30 BEGIN BOND
M  V30 1 1 1 2
M  V30 2 2 2 3
M  V30 3 1 3 4
M  V30 4 1 4 5
M  V30 5 2 4 6
M  V30 6 1 6 7
M  V30 7 2 7 8
M  V30 8 1 7 9
M  V30 9 1 6 10
M  V30 10 1 8 2
M  V30 11 1 1 11
M  V30 12 1 1 12
M  V30 13 1 3 13
M  V30 14 1 5 14
M  V30 15 1 5 15
M  V30 16 1 5 16
M  V30 17 1 8 17
M  V30 18 1 10 18
M  V30 19 1 10 19
M  V30 END BOND
M  V30 END CTAB
M  END
