
     RDKit          3D

  0  0  0  0  0  0  0  0  0  0999 V3000
M  V30 BEGIN CTAB
M  V30 COUNTS 31 32 0 0 0
M  V30 BEGIN ATOM
M  V30 1 N 2.52598 0.196433 -1.46719 0
M  V30 2 N 2.16424 0.109052 -0.119039 0
M  V30 3 C 3.00095 0.302404 0.917037 0
M  V30 4 N 4.38782 0.626535 0.883498 0
M  V30 5 N 2.3075 0.137987 2.05491 0
M  V30 6 N 1.08039 -0.148052 1.71648 0
M  V30 7 C 0.958624 -0.173729 0.387628 0
M  V30 8 C -0.24096 -0.452499 -0.387099 0
M  V30 9 C -0.687291 -1.86461 -0.0836815 0
M  V30 10 C -2.18265 -1.84245 -0.00220569 0
M  V30 11 C -2.59571 -0.447241 -0.401226 0
M  V30 12 C -1.39947 0.444884 -0.107785 0
M  V30 13 C -1.49236 0.925243 1.29974 0
M  V30 14 C -1.48439 1.61436 -1.0579 0
M  V30 15 H 2.95016 -0.568117 -2.02747 0
M  V30 16 H 2.35661 1.10115 -1.94907 0
M  V30 17 H 5.0536 0.219325 0.207389 0
M  V30 18 H 4.74474 1.31399 1.58317 0
M  V30 19 H -0.0351937 -0.402792 -1.47734 0
M  V30 20 H -0.29265 -2.58859 -0.828235 0
M  V30 21 H -0.308574 -2.1961 0.923842 0
M  V30 22 H -2.63804 -2.56872 -0.701463 0
M  V30 23 H -2.57927 -2.04735 1.00595 0
M  V30 24 H -3.46849 -0.0847587 0.184393 0
M  V30 25 H -2.792 -0.459373 -1.49313 0
M  V30 26 H -0.758506 1.70172 1.53198 0
M  V30 27 H -2.50797 1.40366 1.41582 0
M  V30 28 H -1.48511 0.0915759 2.02548 0
M  V30 29 H -0.599565 2.28161 -0.994572 0
M  V30 30 H -1.56282 1.21088 -2.09902 0
M  V30 31 H -2.41961 2.16359 -0.875087 0
M  V30 END ATOM
M  V30 BEGIN BOND
M  V30 1 1 1 2
M  V30 2 1 2 3
M  V30 3 1 3 4
M  V30 4 2 3 5
M  V30 5 1 5 6
M  V30 6 2 6 7
M  V30 7 1 7 8
M  V30 8 1 8 9
M  V30 9 1 9 10
M  V30 10 1 10 11
M  V30 11 1 11 12
M  V30 12 1 12 13
M  V30 13 1 12 14
M  V30 14 1 7 2
M  V30 15 1 12 8
M  V30 16 1 1 15
M  V30 17 1 1 16
M  V30 18 1 4 17
M  V30 19 1 4 18
M  V30 20 1 8 19
M  V30 21 1 9 20
M  V30 22 1 9 21
M  V30 23 1 10 22
M  V30 24 1 10 23
M  V30 25 1 11 24
M  V30 26 1 11 25
M  V30 27 1 13 26
M  V30 28 1 13 27
M  V30 29 1 13 28
M  V30 30 1 14 29
M  V30 31 1 14 30
M  V30 32 1 14 31
M  V30 END BOND
M  V30 END CTAB
M  END
