
     RDKit          3D

  0  0  0  0  0  0  0  0  0  0999 V3000
M  V30 BEGIN CTAB
M  V30 COUNTS 77 78 0 0 0
M  V30 BEGIN ATOM
M  V30 1 N -3.47004 3.76614 -4.61772 0
M  V30 2 C -4.58612 2.86421 -4.51863 0
M  V30 3 N -5.72657 3.30928 -4.17811 0
M  V30 4 N -4.31446 1.51149 -4.81931 0
M  V30 5 C -3.99678 0.514291 -3.80256 0
M  V30 6 C -2.65889 0.797033 -3.18123 0
M  V30 7 C -2.18893 -0.125699 -2.1477 0
M  V30 8 C -2.90449 -0.276195 -0.851493 0 CFG=1
M  V30 9 N -4.25704 -0.680348 -0.878293 0
M  V30 10 S -5.38779 0.217513 -0.0189287 0
M  V30 11 O -6.76646 -0.183919 -0.508119 0
M  V30 12 O -5.29041 1.66935 -0.543725 0
M  V30 13 C -5.27653 0.370317 1.68522 0
M  V30 14 C -5.35297 -0.759896 2.56857 0
M  V30 15 C -4.24097 -1.37788 3.07775 0
M  V30 16 C -4.32512 -2.47109 3.93137 0
M  V30 17 C -5.5602 -2.96978 4.29316 0
M  V30 18 C -6.68775 -2.36484 3.79374 0
M  V30 19 C -6.57174 -1.28243 2.94939 0
M  V30 20 C -2.14818 -1.42814 -0.185476 0
M  V30 21 O -2.70142 -2.50218 0.116634 0
M  V30 22 N -0.760549 -1.28769 0.10868 0
M  V30 23 C 0.00385424 -2.32728 0.730138 0
M  V30 24 C 1.4141 -2.03919 0.963231 0
M  V30 25 O 2.09149 -2.97159 1.52339 0
M  V30 26 N 2.08628 -0.857779 0.636766 0
M  V30 27 C 3.55165 -0.710029 0.9419 0 CFG=1
M  V30 28 C 4.22964 -0.545613 -0.377037 0
M  V30 29 C 5.67184 -0.386756 -0.522826 0
M  V30 30 C 6.38268 0.788138 0.00816109 0
M  V30 31 N 7.81441 0.629429 -0.373707 0
M  V30 32 C 8.14779 0.726627 -1.74722 0
M  V30 33 N 8.22347 1.99967 -2.36045 0
M  V30 34 N 8.3869 -0.341031 -2.45631 0
M  V30 35 C 3.64709 0.441227 1.81965 0
M  V30 36 O 3.02667 1.51843 1.55787 0
M  V30 37 C 4.44417 0.456161 3.07103 0
M  V30 38 N 4.58901 1.44001 3.94191 0
M  V30 39 C 5.33194 1.26854 4.98584 0
M  V30 40 C 5.94547 0.0508163 5.14149 0
M  V30 41 S 5.40423 -0.783166 3.75236 0
M  V30 42 H -2.89594 3.87247 -5.46405 0
M  V30 43 H -3.24611 4.33176 -3.78186 0
M  V30 44 H -5.96327 4.28611 -3.95231 0
M  V30 45 H -4.3378 1.19594 -5.80882 0
M  V30 46 H -4.78783 0.557874 -3.06893 0
M  V30 47 H -3.90966 -0.481683 -4.29912 0
M  V30 48 H -1.92334 0.703889 -4.04884 0
M  V30 49 H -2.551 1.8813 -2.90876 0
M  V30 50 H -1.14072 0.229801 -1.86403 0
M  V30 51 H -2.0882 -1.14308 -2.62853 0
M  V30 52 H -2.72798 0.613733 -0.240267 0
M  V30 53 H -4.57213 -1.31664 -1.60337 0
M  V30 54 H -6.01086 1.16549 2.01443 0
M  V30 55 H -4.28071 0.887154 1.90061 0
M  V30 56 H -3.2339 -1.03916 2.83627 0
M  V30 57 H -3.45664 -2.9701 4.34086 0
M  V30 58 H -5.67662 -3.82905 4.96343 0
M  V30 59 H -7.64683 -2.76938 4.08864 0
M  V30 60 H -7.45051 -0.827021 2.57279 0
M  V30 61 H -0.301921 -0.391321 -0.140675 0
M  V30 62 H -0.0333368 -3.27028 0.12252 0
M  V30 63 H -0.54895 -2.57859 1.68553 0
M  V30 64 H 1.62034 -0.0625729 0.186779 0
M  V30 65 H 3.91509 -1.62029 1.44008 0
M  V30 66 H 3.83604 -1.37146 -1.09582 0
M  V30 67 H 3.76658 0.369688 -0.924172 0
M  V30 68 H 5.88515 -0.394281 -1.64777 0
M  V30 69 H 6.22805 -1.3003 -0.126246 0
M  V30 70 H 6.42869 0.934282 1.08267 0
M  V30 71 H 6.09634 1.74282 -0.53014 0
M  V30 72 H 8.55907 0.453867 0.309193 0
M  V30 73 H 9.13992 2.37234 -2.64566 0
M  V30 74 H 7.37194 2.54571 -2.51914 0
M  V30 75 H 8.63025 -0.253358 -3.4627 0
M  V30 76 H 5.47754 2.07489 5.74186 0
M  V30 77 H 6.60993 -0.266712 5.96614 0
M  V30 END ATOM
M  V30 BEGIN BOND
M  V30 1 1 1 2
M  V30 2 2 2 3 CFG=2
M  V30 3 1 2 4
M  V30 4 1 4 5
M  V30 5 1 5 6
M  V30 6 1 6 7
M  V30 7 1 7 8
M  V30 8 1 8 9
M  V30 9 1 9 10
M  V30 10 2 10 11
M  V30 11 2 10 12
M  V30 12 1 10 13
M  V30 13 1 13 14
M  V30 14 2 14 15
M  V30 15 1 15 16
M  V30 16 2 16 17
M  V30 17 1 17 18
M  V30 18 2 18 19
M  V30 19 1 8 20
M  V30 20 2 20 21
M  V30 21 1 20 22
M  V30 22 1 22 23
M  V30 23 1 23 24
M  V30 24 2 24 25
M  V30 25 1 24 26
M  V30 26 1 26 27
M  V30 27 1 27 28
M  V30 28 1 28 29
M  V30 29 1 29 30
M  V30 30 1 30 31
M  V30 31 1 31 32
M  V30 32 1 32 33
M  V30 33 2 32 34 CFG=2
M  V30 34 1 27 35
M  V30 35 2 35 36
M  V30 36 1 35 37
M  V30 37 2 37 38
M  V30 38 1 38 39
M  V30 39 2 39 40
M  V30 40 1 40 41
M  V30 41 1 19 14
M  V30 42 1 41 37
M  V30 43 1 1 42
M  V30 44 1 1 43
M  V30 45 1 3 44
M  V30 46 1 4 45
M  V30 47 1 5 46
M  V30 48 1 5 47
M  V30 49 1 6 48
M  V30 50 1 6 49
M  V30 51 1 7 50
M  V30 52 1 7 51
M  V30 53 1 8 52 CFG=1
M  V30 54 1 9 53
M  V30 55 1 13 54
M  V30 56 1 13 55
M  V30 57 1 15 56
M  V30 58 1 16 57
M  V30 59 1 17 58
M  V30 60 1 18 59
M  V30 61 1 19 60
M  V30 62 1 22 61
M  V30 63 1 23 62
M  V30 64 1 23 63
M  V30 65 1 26 64
M  V30 66 1 27 65 CFG=1
M  V30 67 1 28 66
M  V30 68 1 28 67
M  V30 69 1 29 68
M  V30 70 1 29 69
M  V30 71 1 30 70
M  V30 72 1 30 71
M  V30 73 1 31 72
M  V30 74 1 33 73
M  V30 75 1 33 74
M  V30 76 1 34 75
M  V30 77 1 39 76
M  V30 78 1 40 77
M  V30 END BOND
M  V30 END CTAB
M  END
