
     RDKit          3D

  0  0  0  0  0  0  0  0  0  0999 V3000
M  V30 BEGIN CTAB
M  V30 COUNTS 28 29 0 0 0
M  V30 BEGIN ATOM
M  V30 1 N -3.52425 -2.95602 -0.846037 0
M  V30 2 C -2.89302 -2.02329 -0.558099 0
M  V30 3 C -2.10822 -0.879393 -0.179254 0
M  V30 4 C -0.755921 -0.836606 -0.282365 0
M  V30 5 N -0.0735045 -1.97481 -0.789055 0
M  V30 6 N 0.0105776 0.220728 0.0641665 0
M  V30 7 C 1.43674 0.181425 -0.0776682 0
M  V30 8 C 2.12326 1.07318 -0.874087 0
M  V30 9 C 3.50121 0.998817 -0.98202 0
M  V30 10 C 4.22065 0.0405617 -0.30322 0
M  V30 11 C 3.54469 -0.862749 0.501156 0
M  V30 12 C 2.19075 -0.771495 0.592664 0
M  V30 13 C -0.630008 1.30253 0.54503 0
M  V30 14 S 0.262154 2.60613 0.976961 0
M  V30 15 C -2.00398 1.32591 0.676004 0
M  V30 16 C -2.77715 0.223243 0.312289 0
M  V30 17 N -4.18549 0.272312 0.456378 0
M  V30 18 C -2.68345 2.47109 1.18516 0
M  V30 19 N -3.21466 3.3936 1.6071 0
M  V30 20 H 0.0662213 -2.80422 -0.169958 0
M  V30 21 H 0.268432 -1.95628 -1.75669 0
M  V30 22 H 1.54028 1.81754 -1.39844 0
M  V30 23 H 4.04313 1.69564 -1.60499 0
M  V30 24 H 5.29864 -0.0499066 -0.361838 0
M  V30 25 H 4.09513 -1.63444 1.05132 0
M  V30 26 H 1.65449 -1.47435 1.21979 0
M  V30 27 H -4.72531 0.890367 -0.172805 0
M  V30 28 H -4.68138 -0.289493 1.1685 0
M  V30 END ATOM
M  V30 BEGIN BOND
M  V30 1 3 1 2
M  V30 2 1 2 3
M  V30 3 2 3 4
M  V30 4 1 4 5
M  V30 5 1 4 6
M  V30 6 1 6 7
M  V30 7 2 7 8
M  V30 8 1 8 9
M  V30 9 2 9 10
M  V30 10 1 10 11
M  V30 11 2 11 12
M  V30 12 1 6 13
M  V30 13 2 13 14
M  V30 14 1 13 15
M  V30 15 2 15 16
M  V30 16 1 16 17
M  V30 17 1 15 18
M  V30 18 3 18 19
M  V30 19 1 16 3
M  V30 20 1 12 7
M  V30 21 1 5 20
M  V30 22 1 5 21
M  V30 23 1 8 22
M  V30 24 1 9 23
M  V30 25 1 10 24
M  V30 26 1 11 25
M  V30 27 1 12 26
M  V30 28 1 17 27
M  V30 29 1 17 28
M  V30 END BOND
M  V30 END CTAB
M  END
