
     RDKit          3D

  0  0  0  0  0  0  0  0  0  0999 V3000
M  V30 BEGIN CTAB
M  V30 COUNTS 45 46 0 0 0
M  V30 BEGIN ATOM
M  V30 1 C -1.03687 -1.52715 1.97024 0
M  V30 2 C -1.93242 -1.3941 0.793458 0
M  V30 3 N -1.62653 -0.555775 -0.276225 0
M  V30 4 C -2.63163 -0.575919 -1.345 0
M  V30 5 C -3.97313 -0.183895 -0.859479 0
M  V30 6 N -4.93961 -1.08422 -0.610823 0
M  V30 7 C -6.174 -0.718172 -0.167566 0
M  V30 8 N -7.19798 -1.69913 0.0896903 0
M  V30 9 N -6.3657 0.596809 0.00623132 0
M  V30 10 C -5.43541 1.51986 -0.228052 0
M  V30 11 N -4.22365 1.12025 -0.666923 0
M  V30 12 N -5.72963 2.89199 -0.0144858 0
M  V30 13 C -0.366233 -0.647261 -0.883244 0
M  V30 14 C 0.791988 -0.0183424 -0.218975 0
M  V30 15 O 0.654323 0.63867 0.815136 0
M  V30 16 N 2.0517 -0.208769 -0.826381 0
M  V30 17 C 3.24596 0.322769 -0.334949 0
M  V30 18 C 3.3733 1.37325 0.536077 0
M  V30 19 C 4.64039 1.79132 0.961755 0
M  V30 20 C 5.76632 1.14752 0.504594 0
M  V30 21 C 5.6704 0.0913398 -0.36974 0
M  V30 22 C 4.43076 -0.307855 -0.777034 0
M  V30 23 O 7.00508 1.56305 0.925725 0
M  V30 24 C 8.16668 0.908814 0.459022 0
M  V30 25 H -0.0279948 -1.9181 1.72785 0
M  V30 26 H -1.47263 -2.36668 2.61239 0
M  V30 27 H -1.01943 -0.640222 2.65636 0
M  V30 28 H -2.05749 -2.47969 0.408143 0
M  V30 29 H -2.97296 -1.19126 1.21597 0
M  V30 30 H -2.63533 -1.61928 -1.76908 0
M  V30 31 H -2.25475 0.119313 -2.15268 0
M  V30 32 H -8.13862 -1.64266 -0.319419 0
M  V30 33 H -6.92468 -2.48138 0.723428 0
M  V30 34 H -6.05974 3.17395 0.956703 0
M  V30 35 H -5.63489 3.61611 -0.760789 0
M  V30 36 H -0.410841 -0.302732 -1.9781 0
M  V30 37 H -0.0827123 -1.75595 -1.03295 0
M  V30 38 H 2.06141 -0.802464 -1.72746 0
M  V30 39 H 2.51512 1.91151 0.902268 0
M  V30 40 H 4.67828 2.62785 1.65177 0
M  V30 41 H 6.55988 -0.430153 -0.740282 0
M  V30 42 H 4.35369 -1.12956 -1.45634 0
M  V30 43 H 9.0517 1.44305 0.847415 0
M  V30 44 H 8.19621 0.958324 -0.656393 0
M  V30 45 H 8.11163 -0.135042 0.826787 0
M  V30 END ATOM
M  V30 BEGIN BOND
M  V30 1 1 1 2
M  V30 2 1 2 3
M  V30 3 1 3 4
M  V30 4 1 4 5
M  V30 5 2 5 6
M  V30 6 1 6 7
M  V30 7 1 7 8
M  V30 8 2 7 9
M  V30 9 1 9 10
M  V30 10 2 10 11
M  V30 11 1 10 12
M  V30 12 1 3 13
M  V30 13 1 13 14
M  V30 14 2 14 15
M  V30 15 1 14 16
M  V30 16 1 16 17
M  V30 17 2 17 18
M  V30 18 1 18 19
M  V30 19 2 19 20
M  V30 20 1 20 21
M  V30 21 2 21 22
M  V30 22 1 20 23
M  V30 23 1 23 24
M  V30 24 1 11 5
M  V30 25 1 22 17
M  V30 26 1 1 25
M  V30 27 1 1 26
M  V30 28 1 1 27
M  V30 29 1 2 28
M  V30 30 1 2 29
M  V30 31 1 4 30
M  V30 32 1 4 31
M  V30 33 1 8 32
M  V30 34 1 8 33
M  V30 35 1 12 34
M  V30 36 1 12 35
M  V30 37 1 13 36
M  V30 38 1 13 37
M  V30 39 1 16 38
M  V30 40 1 18 39
M  V30 41 1 19 40
M  V30 42 1 21 41
M  V30 43 1 22 42
M  V30 44 1 24 43
M  V30 45 1 24 44
M  V30 46 1 24 45
M  V30 END BOND
M  V30 END CTAB
M  END
