
     RDKit          3D

  0  0  0  0  0  0  0  0  0  0999 V3000
M  V30 BEGIN CTAB
M  V30 COUNTS 25 26 0 0 0
M  V30 BEGIN ATOM
M  V30 1 N -3.51268 0.145826 0.341915 0
M  V30 2 C -2.21272 -0.408825 0.356393 0
M  V30 3 C -1.96723 -1.6925 0.821423 0
M  V30 4 C -0.686931 -2.20354 0.821843 0
M  V30 5 C 0.380457 -1.45321 0.360921 0
M  V30 6 C 0.163647 -0.192807 -0.0993443 0
M  V30 7 C -1.13438 0.321523 -0.0983864 0
M  V30 8 C -1.3955 1.60006 -0.560529 0
M  V30 9 C -0.343944 2.37116 -1.02861 0
M  V30 10 C 0.93131 1.84651 -1.02182 0
M  V30 11 C 1.22079 0.562161 -0.561745 0
M  V30 12 S 2.86428 -0.0276759 -0.580241 0
M  V30 13 N 3.45033 -0.422746 0.991979 0
M  V30 14 O 3.76035 1.04619 -1.12871 0
M  V30 15 O 3.00355 -1.21128 -1.51276 0
M  V30 16 H -4.27353 -0.360001 -0.142914 0
M  V30 17 H -3.72195 1.047 0.8053 0
M  V30 18 H -2.80366 -2.27533 1.18062 0
M  V30 19 H -0.459175 -3.20135 1.17756 0
M  V30 20 H 1.3982 -1.84314 0.352886 0
M  V30 21 H -2.41209 1.98361 -0.552199 0
M  V30 22 H -0.540371 3.37263 -1.39197 0
M  V30 23 H 1.77703 2.41951 -1.37972 0
M  V30 24 H 2.87437 0.00376649 1.74596 0
M  V30 25 H 3.63985 -1.42756 1.10215 0
M  V30 END ATOM
M  V30 BEGIN BOND
M  V30 1 1 1 2
M  V30 2 2 2 3
M  V30 3 1 3 4
M  V30 4 2 4 5
M  V30 5 1 5 6
M  V30 6 2 6 7
M  V30 7 1 7 8
M  V30 8 2 8 9
M  V30 9 1 9 10
M  V30 10 2 10 11
M  V30 11 1 11 12
M  V30 12 1 12 13
M  V30 13 2 12 14
M  V30 14 2 12 15
M  V30 15 1 7 2
M  V30 16 1 11 6
M  V30 17 1 1 16
M  V30 18 1 1 17
M  V30 19 1 3 18
M  V30 20 1 4 19
M  V30 21 1 5 20
M  V30 22 1 8 21
M  V30 23 1 9 22
M  V30 24 1 10 23
M  V30 25 1 13 24
M  V30 26 1 13 25
M  V30 END BOND
M  V30 END CTAB
M  END
