
     RDKit          3D

  0  0  0  0  0  0  0  0  0  0999 V3000
M  V30 BEGIN CTAB
M  V30 COUNTS 52 55 0 0 0
M  V30 BEGIN ATOM
M  V30 1 N -5.25207 -1.87006 2.85782 0
M  V30 2 C -5.60399 -0.617276 2.23498 0 CFG=2
M  V30 3 C -5.33131 -0.542692 0.745875 0
M  V30 4 C -4.84489 0.876582 0.968273 0 CFG=1
M  V30 5 C -4.54345 0.479459 2.40217 0
M  V30 6 C -3.69959 1.28508 0.158387 0
M  V30 7 C -2.55785 0.516203 0.162249 0
M  V30 8 C -1.48299 0.900924 -0.600754 0
M  V30 9 N -1.61198 2.04888 -1.33484 0
M  V30 10 C -2.71479 2.80696 -1.34905 0
M  V30 11 N -3.76212 2.39587 -0.580679 0
M  V30 12 N -2.79539 3.99071 -2.13116 0
M  V30 13 N -0.256724 0.20122 -0.68853 0
M  V30 14 C -0.0462725 -1.04536 -0.0100962 0
M  V30 15 C 1.07414 -0.777697 0.984089 0
M  V30 16 C 2.32851 -0.372388 0.28907 0
M  V30 17 C 2.1391 -0.0244097 -1.16459 0
M  V30 18 C 0.866364 0.693227 -1.46276 0
M  V30 19 C 3.39617 -1.39824 0.503897 0
M  V30 20 C 4.67072 -1.07967 -0.149294 0
M  V30 21 C 5.61061 -0.349639 0.548979 0
M  V30 22 C 6.8294 -0.0153121 -0.00310666 0
M  V30 23 C 7.16106 -0.398615 -1.28239 0
M  V30 24 C 6.22079 -1.12726 -1.9771 0
M  V30 25 C 5.00139 -1.46392 -1.42979 0
M  V30 26 F 8.35627 -0.0840561 -1.85739 0
M  V30 27 H -4.7116 -2.45133 2.19534 0
M  V30 28 H -6.15321 -2.39148 3.04329 0
M  V30 29 H -6.63369 -0.244521 2.47345 0
M  V30 30 H -4.56415 -1.26554 0.465438 0
M  V30 31 H -6.26341 -0.604746 0.112883 0
M  V30 32 H -5.71677 1.57626 0.896053 0
M  V30 33 H -3.55303 0.0110778 2.50578 0
M  V30 34 H -4.80721 1.24354 3.15088 0
M  V30 35 H -2.49535 -0.400529 0.769403 0
M  V30 36 H -3.41699 4.07651 -2.93833 0
M  V30 37 H -2.19412 4.79252 -1.86135 0
M  V30 38 H 0.403957 -1.73433 -0.765453 0
M  V30 39 H -0.884017 -1.47604 0.51642 0
M  V30 40 H 0.7597 -0.0436238 1.7552 0
M  V30 41 H 1.24159 -1.73124 1.52418 0
M  V30 42 H 2.69319 0.569256 0.786868 0
M  V30 43 H 2.11516 -0.989952 -1.73137 0
M  V30 44 H 3.02639 0.520124 -1.54325 0
M  V30 45 H 0.604797 0.551556 -2.53587 0
M  V30 46 H 1.02764 1.77462 -1.28946 0
M  V30 47 H 3.06129 -2.43181 0.215333 0
M  V30 48 H 3.58134 -1.46502 1.60264 0
M  V30 49 H 5.42983 -0.00982871 1.55787 0
M  V30 50 H 7.54742 0.563843 0.582236 0
M  V30 51 H 6.47307 -1.43628 -2.99216 0
M  V30 52 H 4.27707 -2.03153 -1.97967 0
M  V30 END ATOM
M  V30 BEGIN BOND
M  V30 1 1 1 2
M  V30 2 1 2 3
M  V30 3 1 3 4
M  V30 4 1 4 5
M  V30 5 1 4 6
M  V30 6 2 6 7
M  V30 7 1 7 8
M  V30 8 2 8 9
M  V30 9 1 9 10
M  V30 10 2 10 11
M  V30 11 1 10 12
M  V30 12 1 8 13
M  V30 13 1 13 14
M  V30 14 1 14 15
M  V30 15 1 15 16
M  V30 16 1 16 17
M  V30 17 1 17 18
M  V30 18 1 16 19
M  V30 19 1 19 20
M  V30 20 2 20 21
M  V30 21 1 21 22
M  V30 22 2 22 23
M  V30 23 1 23 24
M  V30 24 2 24 25
M  V30 25 1 23 26
M  V30 26 1 5 2
M  V30 27 1 11 6
M  V30 28 1 18 13
M  V30 29 1 25 20
M  V30 30 1 1 27
M  V30 31 1 1 28
M  V30 32 1 2 29 CFG=3
M  V30 33 1 3 30
M  V30 34 1 3 31
M  V30 35 1 4 32 CFG=1
M  V30 36 1 5 33
M  V30 37 1 5 34
M  V30 38 1 7 35
M  V30 39 1 12 36
M  V30 40 1 12 37
M  V30 41 1 14 38
M  V30 42 1 14 39
M  V30 43 1 15 40
M  V30 44 1 15 41
M  V30 45 1 16 42
M  V30 46 1 17 43
M  V30 47 1 17 44
M  V30 48 1 18 45
M  V30 49 1 18 46
M  V30 50 1 19 47
M  V30 51 1 19 48
M  V30 52 1 21 49
M  V30 53 1 22 50
M  V30 54 1 24 51
M  V30 55 1 25 52
M  V30 END BOND
M  V30 END CTAB
M  END
