
     RDKit          3D

  0  0  0  0  0  0  0  0  0  0999 V3000
M  V30 BEGIN CTAB
M  V30 COUNTS 38 39 0 0 0
M  V30 BEGIN ATOM
M  V30 1 C 7.0132 0.543212 0.355385 0
M  V30 2 N 6.44442 -0.770557 0.0881984 0
M  V30 3 C 5.24329 -0.917234 -0.354012 0
M  V30 4 N 4.78312 -2.23642 -0.582356 0
M  V30 5 N 4.46987 0.235275 -0.580246 0
M  V30 6 C 3.04633 0.0948177 -0.642626 0
M  V30 7 N 2.11663 1.01393 -0.8306 0
M  V30 8 C 0.867025 0.683762 -0.859027 0
M  V30 9 C -0.22419 1.71491 -1.0677 0
M  V30 10 S -0.695105 2.29228 0.595937 0
M  V30 11 C -1.46313 0.89149 1.48233 0
M  V30 12 C -2.7617 0.589951 0.737917 0
M  V30 13 N -3.46892 -0.494581 1.31647 0
M  V30 14 C -4.70404 -0.950624 0.721039 0
M  V30 15 N -5.26422 -2.0116 1.21352 0
M  V30 16 S -6.70098 -2.25132 0.260548 0
M  V30 17 O -7.91265 -1.94256 1.1406 0
M  V30 18 N -6.46112 -0.870991 -0.778333 0
M  V30 19 C -5.36959 -0.335373 -0.369895 0
M  V30 20 N -4.88675 0.861642 -1.04815 0
M  V30 21 C 0.553606 -0.642096 -0.688301 0
M  V30 22 S 2.10527 -1.3332 -0.494925 0
M  V30 23 H 8.06348 0.457082 0.641979 0
M  V30 24 H 6.96801 1.1048 -0.603499 0
M  V30 25 H 6.38083 1.06876 1.09237 0
M  V30 26 H 4.84275 -2.99559 0.124147 0
M  V30 27 H 4.36308 -2.45707 -1.50625 0
M  V30 28 H 4.88484 1.14962 -0.700564 0
M  V30 29 H 0.131442 2.54403 -1.69325 0
M  V30 30 H -1.08195 1.23875 -1.56302 0
M  V30 31 H -0.783018 0.0416229 1.51906 0
M  V30 32 H -1.68962 1.23596 2.50672 0
M  V30 33 H -2.48696 0.360158 -0.297147 0
M  V30 34 H -3.36321 1.5322 0.855283 0
M  V30 35 H -3.08544 -0.954788 2.17499 0
M  V30 36 H -5.17554 1.80899 -0.733044 0
M  V30 37 H -4.2458 0.796068 -1.86037 0
M  V30 38 H -0.45328 -1.0953 -0.68443 0
M  V30 END ATOM
M  V30 BEGIN BOND
M  V30 1 1 1 2
M  V30 2 2 2 3
M  V30 3 1 3 4
M  V30 4 1 3 5
M  V30 5 1 5 6
M  V30 6 2 6 7
M  V30 7 1 7 8
M  V30 8 1 8 9
M  V30 9 1 9 10
M  V30 10 1 10 11
M  V30 11 1 11 12
M  V30 12 1 12 13
M  V30 13 1 13 14
M  V30 14 2 14 15
M  V30 15 1 15 16
M  V30 16 2 16 17
M  V30 17 1 16 18
M  V30 18 2 18 19
M  V30 19 1 19 20
M  V30 20 2 8 21
M  V30 21 1 21 22
M  V30 22 1 22 6
M  V30 23 1 19 14
M  V30 24 1 1 23
M  V30 25 1 1 24
M  V30 26 1 1 25
M  V30 27 1 4 26
M  V30 28 1 4 27
M  V30 29 1 5 28
M  V30 30 1 9 29
M  V30 31 1 9 30
M  V30 32 1 11 31
M  V30 33 1 11 32
M  V30 34 1 12 33
M  V30 35 1 12 34
M  V30 36 1 13 35
M  V30 37 1 20 36
M  V30 38 1 20 37
M  V30 39 1 21 38
M  V30 END BOND
M  V30 END CTAB
M  END
