
     RDKit          3D

  0  0  0  0  0  0  0  0  0  0999 V3000
M  V30 BEGIN CTAB
M  V30 COUNTS 46 48 0 0 0
M  V30 BEGIN ATOM
M  V30 1 C 7.63946 1.67251 -0.114804 0
M  V30 2 O 6.44412 0.967402 -0.281701 0
M  V30 3 C 5.19926 1.54537 -0.0157353 0
M  V30 4 O 5.18996 2.72803 0.382093 0
M  V30 5 C 3.95856 0.792268 -0.19835 0
M  V30 6 C 3.98527 -0.499859 -0.633901 0
M  V30 7 C 2.79257 -1.21045 -0.81316 0
M  V30 8 C 1.58147 -0.61055 -0.550811 0
M  V30 9 C 1.58416 0.689131 -0.113683 0
M  V30 10 C 2.76711 1.39577 0.0645616 0
M  V30 11 N 0.325591 -1.29453 -0.736248 0
M  V30 12 C -0.323795 -1.03267 -1.98873 0
M  V30 13 C -0.199221 -2.18157 0.238234 0
M  V30 14 C -1.45716 -1.81053 0.954167 0
M  V30 15 C -2.67972 -1.64933 0.166326 0
M  V30 16 C -3.43134 -0.404599 0.25429 0
M  V30 17 C -3.09221 0.599428 1.1109 0
M  V30 18 N -1.95719 0.445989 1.93828 0
M  V30 19 C -1.15458 -0.70007 1.92161 0
M  V30 20 O -0.151236 -0.838071 2.71607 0
M  V30 21 N -3.85322 1.74164 1.16106 0
M  V30 22 C -4.93724 1.90275 0.381515 0
M  V30 23 N -5.77013 3.04122 0.382361 0
M  V30 24 N -5.23733 0.900901 -0.443524 0
M  V30 25 C -4.55033 -0.231225 -0.548169 0
M  V30 26 N -4.94332 -1.24787 -1.46058 0
M  V30 27 H 7.68364 2.21685 0.860892 0
M  V30 28 H 8.46482 0.920366 -0.149957 0
M  V30 29 H 7.81917 2.41634 -0.918031 0
M  V30 30 H 4.93517 -0.97514 -0.83944 0
M  V30 31 H 2.7855 -2.23604 -1.15649 0
M  V30 32 H 0.676134 1.23381 0.113855 0
M  V30 33 H 2.73054 2.42978 0.412657 0
M  V30 34 H -1.14755 -0.300701 -1.9018 0
M  V30 35 H 0.4146 -0.649618 -2.75891 0
M  V30 36 H -0.726758 -1.94813 -2.46679 0
M  V30 37 H -0.390775 -3.21317 -0.193312 0
M  V30 38 H 0.629973 -2.3797 0.98057 0
M  V30 39 H -1.61895 -2.69836 1.67566 0
M  V30 40 H -2.50226 -1.94881 -0.902675 0
M  V30 41 H -3.42453 -2.49581 0.469781 0
M  V30 42 H -1.70219 1.23531 2.60495 0
M  V30 43 H -6.38026 3.26262 1.18994 0
M  V30 44 H -5.77455 3.67151 -0.435127 0
M  V30 45 H -4.77578 -2.26504 -1.29745 0
M  V30 46 H -5.42546 -0.987122 -2.34451 0
M  V30 END ATOM
M  V30 BEGIN BOND
M  V30 1 1 1 2
M  V30 2 1 2 3
M  V30 3 2 3 4
M  V30 4 1 3 5
M  V30 5 2 5 6
M  V30 6 1 6 7
M  V30 7 2 7 8
M  V30 8 1 8 9
M  V30 9 2 9 10
M  V30 10 1 8 11
M  V30 11 1 11 12
M  V30 12 1 11 13
M  V30 13 1 13 14
M  V30 14 1 14 15
M  V30 15 1 15 16
M  V30 16 2 16 17
M  V30 17 1 17 18
M  V30 18 1 18 19
M  V30 19 2 19 20
M  V30 20 1 17 21
M  V30 21 2 21 22
M  V30 22 1 22 23
M  V30 23 1 22 24
M  V30 24 2 24 25
M  V30 25 1 25 26
M  V30 26 1 10 5
M  V30 27 1 19 14
M  V30 28 1 25 16
M  V30 29 1 1 27
M  V30 30 1 1 28
M  V30 31 1 1 29
M  V30 32 1 6 30
M  V30 33 1 7 31
M  V30 34 1 9 32
M  V30 35 1 10 33
M  V30 36 1 12 34
M  V30 37 1 12 35
M  V30 38 1 12 36
M  V30 39 1 13 37
M  V30 40 1 13 38
M  V30 41 1 14 39
M  V30 42 1 15 40
M  V30 43 1 15 41
M  V30 44 1 18 42
M  V30 45 1 23 43
M  V30 46 1 23 44
M  V30 47 1 26 45
M  V30 48 1 26 46
M  V30 END BOND
M  V30 END CTAB
M  END
