
     RDKit          3D

  0  0  0  0  0  0  0  0  0  0999 V3000
M  V30 BEGIN CTAB
M  V30 COUNTS 104 110 0 0 0
M  V30 BEGIN ATOM
M  V30 1 N -3.94281 -0.0541242 1.37344 0
M  V30 2 C -4.03273 0.107557 -0.117015 0
M  V30 3 C -4.16997 1.39552 -0.697123 0
M  V30 4 C -4.38154 1.46086 -2.11087 0
M  V30 5 C -4.45622 0.410826 -2.94351 0
M  V30 6 C -4.31115 -0.788545 -2.35597 0
M  V30 7 C -4.09455 -1.02482 -0.963628 0
M  V30 8 C -3.79266 -2.49282 -0.512974 0
M  V30 9 C -4.75548 -3.41875 -0.122581 0
M  V30 10 C -4.4399 -4.69028 0.332891 0
M  V30 11 C -3.15026 -5.14845 0.442866 0
M  V30 12 O -2.88688 -6.42228 0.903869 0
M  V30 13 C -2.56344 -7.53472 0.0809385 0
M  V30 14 C -1.08664 -7.51884 -0.280342 0
M  V30 15 C -0.43083 -8.74677 0.30745 0
M  V30 16 C 1.02734 -8.47715 0.594752 0
M  V30 17 C 1.27795 -7.14107 1.23995 0
M  V30 18 C 2.60347 -7.1032 2.0119 0
M  V30 19 O 3.58576 -6.61725 1.19783 0
M  V30 20 C 3.91185 -5.36853 0.702358 0
M  V30 21 C 4.71957 -4.5055 1.39945 0
M  V30 22 C 5.0478 -3.26231 0.894902 0
M  V30 23 C 4.616 -2.76277 -0.333184 0
M  V30 24 C 3.78859 -3.67758 -1.00471 0
M  V30 25 C 3.45568 -4.92311 -0.508054 0
M  V30 26 C 5.00409 -1.3552 -0.895843 0
M  V30 27 C 4.28166 -0.153732 -0.687295 0
M  V30 28 N 3.0156 -0.142221 0.105755 0
M  V30 29 C 4.78105 1.05791 -1.26335 0
M  V30 30 C 6.00227 0.947818 -2.02231 0
M  V30 31 C 6.70657 -0.167475 -2.23802 0
M  V30 32 C 6.21071 -1.28658 -1.68378 0
M  V30 33 C 4.14166 2.45634 -1.14532 0
M  V30 34 C 4.40642 3.37768 -0.130098 0
M  V30 35 C 3.82079 4.64983 -0.0030267 0
M  V30 36 C 2.90491 5.08013 -0.916529 0
M  V30 37 O 2.32256 6.33625 -0.812025 0
M  V30 38 C 1.13179 6.7269 -0.187989 0
M  V30 39 C 0.79124 8.11082 -0.69264 0
M  V30 40 C -0.39772 8.72756 0.0192823 0
M  V30 41 C -1.38502 7.66328 0.444082 0
M  V30 42 C -2.73866 8.19812 0.804156 0
M  V30 43 C -3.23727 7.64996 2.0961 0
M  V30 44 O -3.3002 6.31507 2.2912 0
M  V30 45 C -3.51868 5.16971 1.58259 0
M  V30 46 C -4.76651 4.66397 1.36629 0
M  V30 47 C -4.99036 3.49719 0.640991 0
M  V30 48 C -3.96929 2.74183 0.067776 0
M  V30 49 C -2.69573 3.2968 0.317713 0
M  V30 50 C -2.48688 4.4522 1.04054 0
M  V30 51 C 2.58655 4.23464 -1.93966 0
M  V30 52 C 3.19486 2.96647 -2.03343 0
M  V30 53 C -2.17429 -4.27476 0.076602 0
M  V30 54 C -2.48663 -2.9986 -0.383169 0
M  V30 55 H -4.80379 -0.152707 1.99866 0
M  V30 56 H -3.06609 -0.0882636 1.93066 0
M  V30 57 H -4.50869 2.4328 -2.63942 0
M  V30 58 H -4.62008 0.515626 -4.00677 0
M  V30 59 H -4.38476 -1.64012 -3.08654 0
M  V30 60 H -5.89919 -3.2853 -0.0570785 0
M  V30 61 H -5.37521 -5.28769 0.602806 0
M  V30 62 H -2.7313 -8.44398 0.708238 0
M  V30 63 H -3.17255 -7.59884 -0.83294 0
M  V30 64 H -0.605023 -6.65298 0.226328 0
M  V30 65 H -0.920022 -7.52907 -1.36986 0
M  V30 66 H -0.904963 -9.05803 1.25 0
M  V30 67 H -0.496779 -9.61674 -0.374181 0
M  V30 68 H 1.37139 -9.26205 1.33181 0
M  V30 69 H 1.64129 -8.63563 -0.323724 0
M  V30 70 H 0.435255 -6.92862 1.93254 0
M  V30 71 H 1.31953 -6.379 0.413444 0
M  V30 72 H 2.47825 -6.62675 3.00604 0
M  V30 73 H 2.84186 -8.19524 2.20665 0
M  V30 74 H 5.20232 -4.72334 2.42004 0
M  V30 75 H 5.67983 -2.72201 1.70622 0
M  V30 76 H 3.21889 -3.53588 -1.99731 0
M  V30 77 H 2.78746 -5.52419 -1.2229 0
M  V30 78 H 2.05276 -0.299989 -0.331937 0
M  V30 79 H 2.93479 0.0133042 1.13259 0
M  V30 80 H 6.47214 1.84084 -2.50683 0
M  V30 81 H 7.6227 -0.17332 -2.82202 0
M  V30 82 H 6.8294 -2.17288 -1.8979 0
M  V30 83 H 5.08262 3.25458 0.791734 0
M  V30 84 H 4.21667 5.21426 0.898485 0
M  V30 85 H 0.317866 5.99191 -0.342167 0
M  V30 86 H 1.34348 6.82549 0.905241 0
M  V30 87 H 1.66198 8.76071 -0.501532 0
M  V30 88 H 0.660072 8.03544 -1.78328 0
M  V30 89 H -0.903532 9.41898 -0.65541 0
M  V30 90 H -0.0252756 9.2585 0.903318 0
M  V30 91 H -1.44572 6.95813 -0.422936 0
M  V30 92 H -0.93881 7.07457 1.28325 0
M  V30 93 H -3.4557 7.85617 -2.88788e-05 0
M  V30 94 H -2.77529 9.3131 0.767062 0
M  V30 95 H -4.29005 8.06597 2.23761 0
M  V30 96 H -2.69039 8.10558 2.97881 0
M  V30 97 H -5.74912 5.11684 1.7495 0
M  V30 98 H -6.12067 3.2772 0.668174 0
M  V30 99 H -1.6581 2.90667 0.0315723 0
M  V30 100 H -1.36894 4.71406 1.15695 0
M  V30 101 H 1.86313 4.41834 -2.79219 0
M  V30 102 H 2.70154 2.45999 -2.9331 0
M  V30 103 H -1.04067 -4.44446 0.12491 0
M  V30 104 H -1.47894 -2.48975 -0.575214 0
M  V30 END ATOM
M  V30 BEGIN BOND
M  V30 1 1 1 2
M  V30 2 2 2 3
M  V30 3 1 3 4
M  V30 4 2 4 5
M  V30 5 1 5 6
M  V30 6 2 6 7
M  V30 7 1 7 8
M  V30 8 2 8 9
M  V30 9 1 9 10
M  V30 10 2 10 11
M  V30 11 1 11 12
M  V30 12 1 12 13
M  V30 13 1 13 14
M  V30 14 1 14 15
M  V30 15 1 15 16
M  V30 16 1 16 17
M  V30 17 1 17 18
M  V30 18 1 18 19
M  V30 19 1 19 20
M  V30 20 2 20 21
M  V30 21 1 21 22
M  V30 22 2 22 23
M  V30 23 1 23 24
M  V30 24 2 24 25
M  V30 25 1 23 26
M  V30 26 2 26 27
M  V30 27 1 27 28
M  V30 28 1 27 29
M  V30 29 2 29 30
M  V30 30 1 30 31
M  V30 31 2 31 32
M  V30 32 1 29 33
M  V30 33 2 33 34
M  V30 34 1 34 35
M  V30 35 2 35 36
M  V30 36 1 36 37
M  V30 37 1 37 38
M  V30 38 1 38 39
M  V30 39 1 39 40
M  V30 40 1 40 41
M  V30 41 1 41 42
M  V30 42 1 42 43
M  V30 43 1 43 44
M  V30 44 1 44 45
M  V30 45 2 45 46
M  V30 46 1 46 47
M  V30 47 2 47 48
M  V30 48 1 48 49
M  V30 49 2 49 50
M  V30 50 1 36 51
M  V30 51 2 51 52
M  V30 52 1 11 53
M  V30 53 2 53 54
M  V30 54 1 7 2
M  V30 55 1 54 8
M  V30 56 1 48 3
M  V30 57 1 25 20
M  V30 58 1 32 26
M  V30 59 1 52 33
M  V30 60 1 50 45
M  V30 61 1 1 55
M  V30 62 1 1 56
M  V30 63 1 4 57
M  V30 64 1 5 58
M  V30 65 1 6 59
M  V30 66 1 9 60
M  V30 67 1 10 61
M  V30 68 1 13 62
M  V30 69 1 13 63
M  V30 70 1 14 64
M  V30 71 1 14 65
M  V30 72 1 15 66
M  V30 73 1 15 67
M  V30 74 1 16 68
M  V30 75 1 16 69
M  V30 76 1 17 70
M  V30 77 1 17 71
M  V30 78 1 18 72
M  V30 79 1 18 73
M  V30 80 1 21 74
M  V30 81 1 22 75
M  V30 82 1 24 76
M  V30 83 1 25 77
M  V30 84 1 28 78
M  V30 85 1 28 79
M  V30 86 1 30 80
M  V30 87 1 31 81
M  V30 88 1 32 82
M  V30 89 1 34 83
M  V30 90 1 35 84
M  V30 91 1 38 85
M  V30 92 1 38 86
M  V30 93 1 39 87
M  V30 94 1 39 88
M  V30 95 1 40 89
M  V30 96 1 40 90
M  V30 97 1 41 91
M  V30 98 1 41 92
M  V30 99 1 42 93
M  V30 100 1 42 94
M  V30 101 1 43 95
M  V30 102 1 43 96
M  V30 103 1 46 97
M  V30 104 1 47 98
M  V30 105 1 49 99
M  V30 106 1 50 100
M  V30 107 1 51 101
M  V30 108 1 52 102
M  V30 109 1 53 103
M  V30 110 1 54 104
M  V30 END BOND
M  V30 END CTAB
M  END
