
     RDKit          3D

  0  0  0  0  0  0  0  0  0  0999 V3000
M  V30 BEGIN CTAB
M  V30 COUNTS 20 20 0 0 0
M  V30 BEGIN ATOM
M  V30 1 N 3.9559 -1.63263 -0.207901 0
M  V30 2 C 2.87664 -1.19466 -0.147683 0
M  V30 3 C 1.55132 -0.631536 -0.0811235 0
M  V30 4 C 0.44387 -1.43859 -0.244885 0
M  V30 5 C -0.856641 -0.933849 -0.18778 0
M  V30 6 N -1.98534 -1.78934 -0.360333 0
M  V30 7 C -1.00162 0.419877 0.0413793 0
M  V30 8 C 0.0999558 1.21015 0.202126 0
M  V30 9 C 1.39987 0.722474 0.14794 0
M  V30 10 N 2.52473 1.5909 0.322604 0
M  V30 11 C -2.37469 0.977472 0.105912 0
M  V30 12 H 0.525771 -2.49506 -0.424438 0
M  V30 13 H -2.85201 -1.72929 0.20823 0
M  V30 14 H -1.93674 -2.52011 -1.10347 0
M  V30 15 H -0.0199665 2.26235 0.380083 0
M  V30 16 H 3.05224 2.01652 -0.449931 0
M  V30 17 H 2.79463 1.77847 1.33328 0
M  V30 18 H -2.59623 1.22643 1.1654 0
M  V30 19 H -2.47898 1.91518 -0.472301 0
M  V30 20 H -3.12271 0.245252 -0.227105 0
M  V30 END ATOM
M  V30 BEGIN BOND
M  V30 1 3 1 2
M  V30 2 1 2 3
M  V30 3 2 3 4
M  V30 4 1 4 5
M  V30 5 1 5 6
M  V30 6 2 5 7
M  V30 7 1 7 8
M  V30 8 2 8 9
M  V30 9 1 9 10
M  V30 10 1 7 11
M  V30 11 1 9 3
M  V30 12 1 4 12
M  V30 13 1 6 13
M  V30 14 1 6 14
M  V30 15 1 8 15
M  V30 16 1 10 16
M  V30 17 1 10 17
M  V30 18 1 11 18
M  V30 19 1 11 19
M  V30 20 1 11 20
M  V30 END BOND
M  V30 END CTAB
M  END
