
     RDKit          3D

  0  0  0  0  0  0  0  0  0  0999 V3000
M  V30 BEGIN CTAB
M  V30 COUNTS 31 31 0 0 0
M  V30 BEGIN ATOM
M  V30 1 C 5.66592 -1.17393 0.643898 0
M  V30 2 C 4.17094 -1.00421 0.907616 0
M  V30 3 O 3.81428 -1.48374 1.99217 0
M  V30 4 N 3.37493 -0.350105 -0.0594201 0
M  V30 5 C 1.98897 -0.0851452 -0.0162139 0
M  V30 6 C 1.2748 -0.260675 1.15256 0
M  V30 7 C -0.0858908 0.0560915 1.25773 0
M  V30 8 C -0.729398 0.560288 0.153503 0
M  V30 9 C -0.0198301 0.729505 -0.994104 0
M  V30 10 C 1.34 0.422523 -1.13452 0
M  V30 11 N 1.95586 0.64875 -2.39372 0 CHG=1
M  V30 12 O 2.81166 -0.110318 -2.82441 0
M  V30 13 O 1.4892 1.74747 -3.11799 0 CHG=-1
M  V30 14 S -2.44692 0.974459 0.26664 0
M  V30 15 O -2.73826 1.40274 1.68045 0
M  V30 16 O -2.73258 2.17019 -0.634245 0
M  V30 17 N -3.44987 -0.339732 -0.126775 0
M  V30 18 C -4.71732 -0.185955 -0.223875 0
M  V30 19 N -5.26711 1.09972 0.00259684 0
M  V30 20 N -5.53928 -1.2984 -0.554472 0
M  V30 21 H 6.16955 -0.817631 1.57358 0
M  V30 22 H 5.95977 -0.493003 -0.178184 0
M  V30 23 H 5.86278 -2.22104 0.402109 0
M  V30 24 H 3.92324 0.000845792 -0.91076 0
M  V30 25 H 1.71302 -0.648453 2.0698 0
M  V30 26 H -0.619782 -0.0967659 2.1999 0
M  V30 27 H -0.517569 1.1258 -1.8705 0
M  V30 28 H -5.57158 1.32942 0.977317 0
M  V30 29 H -5.35659 1.78175 -0.792119 0
M  V30 30 H -6.47903 -1.45117 -0.118562 0
M  V30 31 H -5.2439 -2.02929 -1.25817 0
M  V30 END ATOM
M  V30 BEGIN BOND
M  V30 1 1 1 2
M  V30 2 2 2 3
M  V30 3 1 2 4
M  V30 4 1 4 5
M  V30 5 2 5 6
M  V30 6 1 6 7
M  V30 7 2 7 8
M  V30 8 1 8 9
M  V30 9 2 9 10
M  V30 10 1 10 11
M  V30 11 2 11 12
M  V30 12 1 11 13
M  V30 13 1 8 14
M  V30 14 2 14 15
M  V30 15 2 14 16
M  V30 16 1 14 17
M  V30 17 2 17 18 CFG=2
M  V30 18 1 18 19
M  V30 19 1 18 20
M  V30 20 1 10 5
M  V30 21 1 1 21
M  V30 22 1 1 22
M  V30 23 1 1 23
M  V30 24 1 4 24
M  V30 25 1 6 25
M  V30 26 1 7 26
M  V30 27 1 9 27
M  V30 28 1 19 28
M  V30 29 1 19 29
M  V30 30 1 20 30
M  V30 31 1 20 31
M  V30 END BOND
M  V30 END CTAB
M  END
