
     RDKit          3D

  0  0  0  0  0  0  0  0  0  0999 V3000
M  V30 BEGIN CTAB
M  V30 COUNTS 140 141 0 0 0
M  V30 BEGIN ATOM
M  V30 1 C -5.67818 4.30417 -0.639299 0
M  V30 2 C -4.49902 4.0118 0.166833 0
M  V30 3 C -3.43922 5.09242 -0.232766 0
M  V30 4 C -3.79586 2.74677 0.192222 0
M  V30 5 C -4.27558 1.45007 0.602126 0 CFG=2
M  V30 6 N -3.03245 0.570405 0.476293 0
M  V30 7 C -2.06496 0.445393 1.44889 0
M  V30 8 O -2.14181 1.06761 2.53197 0
M  V30 9 C -0.902812 -0.432545 1.22258 0 CFG=1
M  V30 10 N 0.349395 0.111296 1.72623 0
M  V30 11 C 1.44857 0.208961 0.850679 0
M  V30 12 O 1.21426 -0.233762 -0.355568 0
M  V30 13 C 2.79424 0.732281 1.11309 0 CFG=1
M  V30 14 N 3.78175 0.0400355 0.29343 0
M  V30 15 C 5.13283 -0.150008 0.601319 0
M  V30 16 O 5.63378 0.30412 1.63877 0
M  V30 17 C 5.94731 -0.955507 -0.423804 0 CFG=2
M  V30 18 C 5.67449 -2.39071 -0.131557 0
M  V30 19 C 6.32329 -3.39328 -1.01002 0
M  V30 20 C 5.87983 -4.82133 -0.565134 0
M  V30 21 C 7.81252 -3.36125 -0.917246 0
M  V30 22 N 7.30375 -0.514779 -0.403665 0
M  V30 23 C 7.79262 0.285084 -1.47966 0
M  V30 24 O 6.92938 0.543675 -2.39663 0
M  V30 25 C 9.13435 0.831232 -1.64681 0 CFG=2
M  V30 26 C 9.72332 0.511821 -3.01624 0
M  V30 27 C 11.0042 -0.199446 -2.72986 0
M  V30 28 C 10.8286 -0.670272 -1.28183 0
M  V30 29 N 10.1281 0.438045 -0.690406 0
M  V30 30 C 10.4037 1.04832 0.554129 0
M  V30 31 O 9.70501 2.08785 0.833082 0
M  V30 32 C 11.413 0.606433 1.54323 0 CFG=1
M  V30 33 N 11.7158 -0.79349 1.51755 0
M  V30 34 C 12.7374 1.32811 1.30149 0 CFG=1
M  V30 35 C 12.6165 2.81036 1.25054 0
M  V30 36 O 13.6061 0.967123 2.32365 0
M  V30 37 C 2.87102 2.22973 0.751387 0
M  V30 38 C 1.89124 3.04515 1.56004 0
M  V30 39 C 2.64232 2.43335 -0.71608 0
M  V30 40 C -1.13373 -1.86104 1.69527 0 CFG=1
M  V30 41 C -1.09028 -2.00508 3.18573 0
M  V30 42 O -2.33097 -2.30263 1.16875 0
M  V30 43 C -5.36754 0.671557 0.129257 0
M  V30 44 O -5.34131 -0.584125 0.596492 0
M  V30 45 N -6.45125 0.876647 -0.697027 0
M  V30 46 C -7.48878 -0.0964844 -1.04603 0 CFG=1
M  V30 47 C -6.92219 -1.21147 -1.83026 0
M  V30 48 C -6.29252 -0.86441 -3.11861 0
M  V30 49 C -7.06688 -0.76146 -4.2674 0
M  V30 50 C -6.4404 -0.460009 -5.44769 0
M  V30 51 C -5.06861 -0.262705 -5.48943 0
M  V30 52 C -4.29779 -0.360859 -4.36581 0
M  V30 53 C -4.9272 -0.669733 -3.15333 0
M  V30 54 C -8.18343 -0.601889 0.151835 0
M  V30 55 O -7.97136 -0.226693 1.32189 0
M  V30 56 N -9.18083 -1.59951 -0.0341109 0
M  V30 57 C -9.93876 -2.1818 1.08215 0 CFG=1
M  V30 58 C -11.4206 -2.04045 0.79726 0
M  V30 59 C -11.8924 -0.642755 0.641144 0
M  V30 60 C -11.7337 0.282698 1.79076 0
M  V30 61 C -12.4759 -0.089606 3.04288 0
M  V30 62 N -12.1033 -1.34186 3.60924 0
M  V30 63 C -9.6553 -3.64596 1.0881 0
M  V30 64 O -10.2089 -4.52397 2.01819 0
M  V30 65 O -8.8809 -4.11504 0.215619 0
M  V30 66 H -6.66273 3.9836 -0.228491 0
M  V30 67 H -5.77543 5.43039 -0.707565 0
M  V30 68 H -5.55922 3.9863 -1.72054 0
M  V30 69 H -4.75525 4.3525 1.24071 0
M  V30 70 H -2.4748 4.7876 0.167433 0
M  V30 71 H -3.81338 6.07225 0.105881 0
M  V30 72 H -3.43553 5.11969 -1.34163 0
M  V30 73 H -2.86278 2.9459 0.879755 0
M  V30 74 H -3.18002 2.63182 -0.80725 0
M  V30 75 H -4.31755 1.49117 1.76209 0
M  V30 76 H -2.99022 0.0757617 -0.423116 0
M  V30 77 H -0.774281 -0.539334 0.107254 0
M  V30 78 H 0.361299 0.396493 2.72644 0
M  V30 79 H 3.08041 0.677358 2.14522 0
M  V30 80 H 3.41687 -0.353227 -0.630245 0
M  V30 81 H 5.49837 -0.686643 -1.39426 0
M  V30 82 H 5.93818 -2.59041 0.954479 0
M  V30 83 H 4.55237 -2.53216 -0.208168 0
M  V30 84 H 5.99896 -3.33627 -2.06992 0
M  V30 85 H 4.93753 -5.05327 -1.08428 0
M  V30 86 H 5.76318 -4.84787 0.534664 0
M  V30 87 H 6.66137 -5.49155 -0.918463 0
M  V30 88 H 8.23591 -2.73382 -1.70637 0
M  V30 89 H 8.15207 -3.03915 0.0778849 0
M  V30 90 H 8.21316 -4.42576 -1.03977 0
M  V30 91 H 7.92765 -0.757681 0.382651 0
M  V30 92 H 9.00444 1.96015 -1.65951 0
M  V30 93 H 9.99041 1.44494 -3.57362 0
M  V30 94 H 9.01264 -0.0289883 -3.6525 0
M  V30 95 H 11.8709 0.526856 -2.69593 0
M  V30 96 H 11.283 -0.992659 -3.41823 0
M  V30 97 H 11.8752 -0.808565 -0.92389 0
M  V30 98 H 10.3467 -1.63981 -1.20512 0
M  V30 99 H 11.0565 0.869072 2.55135 0
M  V30 100 H 12.7357 -1.00866 1.5345 0
M  V30 101 H 11.1324 -1.36581 2.14646 0
M  V30 102 H 13.1847 0.945632 0.344776 0
M  V30 103 H 11.728 3.23682 1.74336 0
M  V30 104 H 13.5122 3.35006 1.6702 0
M  V30 105 H 12.5749 3.15005 0.17427 0
M  V30 106 H 14.5623 1.11339 2.05094 0
M  V30 107 H 3.89469 2.55661 0.989751 0
M  V30 108 H 1.11571 3.48644 0.871863 0
M  V30 109 H 1.406 2.47948 2.38373 0
M  V30 110 H 2.38098 3.92242 2.07487 0
M  V30 111 H 3.03388 1.5583 -1.2893 0
M  V30 112 H 1.56401 2.62196 -0.922348 0
M  V30 113 H 3.18556 3.36765 -1.0019 0
M  V30 114 H -0.286555 -2.46241 1.26322 0
M  V30 115 H -1.62008 -2.89115 3.53172 0
M  V30 116 H -1.39003 -1.07578 3.72041 0
M  V30 117 H -0.00484757 -2.16799 3.46838 0
M  V30 118 H -2.53713 -3.23677 1.45815 0
M  V30 119 H -6.58505 1.79066 -1.16643 0
M  V30 120 H -8.31734 0.439113 -1.6122 0
M  V30 121 H -7.72841 -1.9718 -2.10866 0
M  V30 122 H -6.18885 -1.83762 -1.27422 0
M  V30 123 H -8.13087 -0.929157 -4.1568 0
M  V30 124 H -7.05886 -0.389419 -6.33643 0
M  V30 125 H -4.60051 -0.0269955 -6.44976 0
M  V30 126 H -3.22569 -0.202078 -4.42004 0
M  V30 127 H -4.26519 -0.747949 -2.30225 0
M  V30 128 H -9.41612 -1.95757 -0.962685 0
M  V30 129 H -9.59319 -1.67171 1.98056 0
M  V30 130 H -12.0489 -2.6677 1.45818 0
M  V30 131 H -11.5769 -2.52562 -0.228672 0
M  V30 132 H -13.0086 -0.710597 0.451506 0
M  V30 133 H -11.5115 -0.199924 -0.321493 0
M  V30 134 H -12.1813 1.2699 1.46398 0
M  V30 135 H -10.6716 0.538955 2.02291 0
M  V30 136 H -13.571 -0.0650238 2.82204 0
M  V30 137 H -12.2961 0.725014 3.78648 0
M  V30 138 H -11.7912 -1.23388 4.61322 0
M  V30 139 H -12.8818 -2.04455 3.65093 0
M  V30 140 H -10.8432 -5.24609 1.70203 0
M  V30 END ATOM
M  V30 BEGIN BOND
M  V30 1 1 1 2
M  V30 2 1 2 3
M  V30 3 1 2 4
M  V30 4 1 4 5
M  V30 5 1 5 6
M  V30 6 1 6 7
M  V30 7 2 7 8
M  V30 8 1 7 9
M  V30 9 1 9 10
M  V30 10 1 10 11
M  V30 11 2 11 12
M  V30 12 1 11 13
M  V30 13 1 13 14
M  V30 14 1 14 15
M  V30 15 2 15 16
M  V30 16 1 15 17
M  V30 17 1 17 18
M  V30 18 1 18 19
M  V30 19 1 19 20
M  V30 20 1 19 21
M  V30 21 1 17 22
M  V30 22 1 22 23
M  V30 23 2 23 24
M  V30 24 1 23 25
M  V30 25 1 25 26
M  V30 26 1 26 27
M  V30 27 1 27 28
M  V30 28 1 28 29
M  V30 29 1 29 30
M  V30 30 2 30 31
M  V30 31 1 30 32
M  V30 32 1 32 33
M  V30 33 1 32 34
M  V30 34 1 34 35
M  V30 35 1 34 36
M  V30 36 1 13 37
M  V30 37 1 37 38
M  V30 38 1 37 39
M  V30 39 1 9 40
M  V30 40 1 40 41
M  V30 41 1 40 42
M  V30 42 1 5 43
M  V30 43 2 43 44
M  V30 44 1 43 45
M  V30 45 1 45 46
M  V30 46 1 46 47
M  V30 47 1 47 48
M  V30 48 2 48 49
M  V30 49 1 49 50
M  V30 50 2 50 51
M  V30 51 1 51 52
M  V30 52 2 52 53
M  V30 53 1 46 54
M  V30 54 2 54 55
M  V30 55 1 54 56
M  V30 56 1 56 57
M  V30 57 1 57 58
M  V30 58 1 58 59
M  V30 59 1 59 60
M  V30 60 1 60 61
M  V30 61 1 61 62
M  V30 62 1 57 63
M  V30 63 1 63 64
M  V30 64 2 63 65
M  V30 65 1 29 25
M  V30 66 1 53 48
M  V30 67 1 1 66
M  V30 68 1 1 67
M  V30 69 1 1 68
M  V30 70 1 2 69
M  V30 71 1 3 70
M  V30 72 1 3 71
M  V30 73 1 3 72
M  V30 74 1 4 73
M  V30 75 1 4 74
M  V30 76 1 5 75 CFG=1
M  V30 77 1 6 76
M  V30 78 1 9 77 CFG=3
M  V30 79 1 10 78
M  V30 80 1 13 79 CFG=1
M  V30 81 1 14 80
M  V30 82 1 17 81 CFG=3
M  V30 83 1 18 82
M  V30 84 1 18 83
M  V30 85 1 19 84
M  V30 86 1 20 85
M  V30 87 1 20 86
M  V30 88 1 20 87
M  V30 89 1 21 88
M  V30 90 1 21 89
M  V30 91 1 21 90
M  V30 92 1 22 91
M  V30 93 1 25 92 CFG=3
M  V30 94 1 26 93
M  V30 95 1 26 94
M  V30 96 1 27 95
M  V30 97 1 27 96
M  V30 98 1 28 97
M  V30 99 1 28 98
M  V30 100 1 32 99 CFG=1
M  V30 101 1 33 100
M  V30 102 1 33 101
M  V30 103 1 34 102 CFG=3
M  V30 104 1 35 103
M  V30 105 1 35 104
M  V30 106 1 35 105
M  V30 107 1 36 106
M  V30 108 1 37 107
M  V30 109 1 38 108
M  V30 110 1 38 109
M  V30 111 1 38 110
M  V30 112 1 39 111
M  V30 113 1 39 112
M  V30 114 1 39 113
M  V30 115 1 40 114 CFG=3
M  V30 116 1 41 115
M  V30 117 1 41 116
M  V30 118 1 41 117
M  V30 119 1 42 118
M  V30 120 1 45 119
M  V30 121 1 46 120 CFG=3
M  V30 122 1 47 121
M  V30 123 1 47 122
M  V30 124 1 49 123
M  V30 125 1 50 124
M  V30 126 1 51 125
M  V30 127 1 52 126
M  V30 128 1 53 127
M  V30 129 1 56 128
M  V30 130 1 57 129 CFG=1
M  V30 131 1 58 130
M  V30 132 1 58 131
M  V30 133 1 59 132
M  V30 134 1 59 133
M  V30 135 1 60 134
M  V30 136 1 60 135
M  V30 137 1 61 136
M  V30 138 1 61 137
M  V30 139 1 62 138
M  V30 140 1 62 139
M  V30 141 1 64 140
M  V30 END BOND
M  V30 END CTAB
M  END
