
     RDKit          3D

  0  0  0  0  0  0  0  0  0  0999 V3000
M  V30 BEGIN CTAB
M  V30 COUNTS 35 36 0 0 0
M  V30 BEGIN ATOM
M  V30 1 O 0.000749004 1.44985 -0.00389653 0
M  V30 2 C 0.419637 0.875019 1.00918 0
M  V30 3 N 1.65166 0.210902 1.03047 0
M  V30 4 C 2.60839 0.0504494 0.020654 0
M  V30 5 C 2.47969 0.547939 -1.24713 0
M  V30 6 C 3.4669 0.359234 -2.22697 0
M  V30 7 C 4.61491 -0.343272 -1.94142 0
M  V30 8 C 4.73251 -0.838416 -0.662813 0
M  V30 9 C 3.78609 -0.663089 0.293518 0
M  V30 10 C 4.00617 -1.24296 1.66839 0
M  V30 11 Cl 5.87499 -0.607228 -3.12694 0
M  V30 12 C -0.418848 0.896509 2.23437 0
M  V30 13 S -1.92291 1.82651 1.87918 0
M  V30 14 C -2.95473 1.02089 0.69193 0
M  V30 15 N -2.59267 -0.145575 0.16351 0
M  V30 16 C -3.35963 -0.789097 -0.748919 0
M  V30 17 N -2.96081 -2.04465 -1.31098 0
M  V30 18 C -4.54408 -0.192508 -1.12057 0
M  V30 19 C -4.93221 1.0058 -0.588175 0
M  V30 20 N -4.10421 1.5815 0.319331 0
M  V30 21 N -6.13262 1.65994 -0.932746 0
M  V30 22 H 1.89386 -0.246433 1.97924 0
M  V30 23 H 1.63235 1.10475 -1.572 0
M  V30 24 H 3.35621 0.756418 -3.22564 0
M  V30 25 H 5.63322 -1.39242 -0.430308 0
M  V30 26 H 5.04593 -1.61531 1.73355 0
M  V30 27 H 3.33377 -2.07812 1.88106 0
M  V30 28 H 3.891 -0.384031 2.36282 0
M  V30 29 H 0.13762 1.33993 3.07071 0
M  V30 30 H -0.667137 -0.177093 2.48646 0
M  V30 31 H -3.47919 -2.92752 -1.09179 0
M  V30 32 H -2.14634 -2.12106 -1.95261 0
M  V30 33 H -5.17159 -0.697572 -1.85295 0
M  V30 34 H -6.16066 2.68092 -1.12598 0
M  V30 35 H -7.01803 1.13979 -1.00231 0
M  V30 END ATOM
M  V30 BEGIN BOND
M  V30 1 2 1 2
M  V30 2 1 2 3
M  V30 3 1 3 4
M  V30 4 2 4 5
M  V30 5 1 5 6
M  V30 6 2 6 7
M  V30 7 1 7 8
M  V30 8 2 8 9
M  V30 9 1 9 10
M  V30 10 1 7 11
M  V30 11 1 2 12
M  V30 12 1 12 13
M  V30 13 1 13 14
M  V30 14 2 14 15
M  V30 15 1 15 16
M  V30 16 1 16 17
M  V30 17 2 16 18
M  V30 18 1 18 19
M  V30 19 2 19 20
M  V30 20 1 19 21
M  V30 21 1 9 4
M  V30 22 1 20 14
M  V30 23 1 3 22
M  V30 24 1 5 23
M  V30 25 1 6 24
M  V30 26 1 8 25
M  V30 27 1 10 26
M  V30 28 1 10 27
M  V30 29 1 10 28
M  V30 30 1 12 29
M  V30 31 1 12 30
M  V30 32 1 17 31
M  V30 33 1 17 32
M  V30 34 1 18 33
M  V30 35 1 21 34
M  V30 36 1 21 35
M  V30 END BOND
M  V30 END CTAB
M  END
