
     RDKit          3D

  0  0  0  0  0  0  0  0  0  0999 V3000
M  V30 BEGIN CTAB
M  V30 COUNTS 35 36 0 0 0
M  V30 BEGIN ATOM
M  V30 1 C -1.67615 -0.764134 2.1087 0
M  V30 2 C -2.16762 -0.214757 0.840502 0
M  V30 3 C -3.13909 0.792408 0.785739 0
M  V30 4 C -3.57138 1.27827 -0.430892 0
M  V30 5 C -3.07107 0.798377 -1.62424 0
M  V30 6 N -3.52427 1.30694 -2.87976 0
M  V30 7 C -2.11188 -0.196613 -1.54979 0
M  V30 8 C -1.66542 -0.696787 -0.346649 0
M  V30 9 N -0.692547 -1.73114 -0.318587 0 CHG=1
M  V30 10 O -1.23014 -3.03395 -0.469149 0 CHG=-1
M  V30 11 N 0.509355 -1.67626 -0.176822 0
M  V30 12 C 1.48571 -0.730177 0.0114028 0
M  V30 13 C 2.77064 -1.18574 0.34921 0
M  V30 14 C 2.99237 -2.6388 0.478989 0
M  V30 15 C 3.83001 -0.343201 0.564491 0
M  V30 16 C 3.66576 1.01785 0.453693 0
M  V30 17 C 2.42207 1.50892 0.124044 0
M  V30 18 N 2.26275 2.92574 0.0114638 0
M  V30 19 C 1.36372 0.638492 -0.0895626 0
M  V30 20 H -0.628597 -0.562611 2.33472 0
M  V30 21 H -2.26557 -0.262343 2.9341 0
M  V30 22 H -1.94547 -1.85501 2.2292 0
M  V30 23 H -3.53915 1.17691 1.72857 0
M  V30 24 H -4.33499 2.06858 -0.439098 0
M  V30 25 H -4.1847 0.808567 -3.48548 0
M  V30 26 H -3.17412 2.23196 -3.21072 0
M  V30 27 H -1.73161 -0.56024 -2.48744 0
M  V30 28 H 2.33007 -3.20922 -0.208533 0
M  V30 29 H 2.82594 -2.93971 1.54413 0
M  V30 30 H 4.03802 -2.87869 0.187074 0
M  V30 31 H 4.81978 -0.698784 0.825323 0
M  V30 32 H 4.51059 1.69032 0.625754 0
M  V30 33 H 2.66454 3.55448 0.742295 0
M  V30 34 H 1.73321 3.30731 -0.822732 0
M  V30 35 H 0.429248 1.07307 -0.339946 0
M  V30 END ATOM
M  V30 BEGIN BOND
M  V30 1 1 1 2
M  V30 2 2 2 3
M  V30 3 1 3 4
M  V30 4 2 4 5
M  V30 5 1 5 6
M  V30 6 1 5 7
M  V30 7 2 7 8
M  V30 8 1 8 9
M  V30 9 1 9 10
M  V30 10 2 9 11 CFG=2
M  V30 11 1 11 12
M  V30 12 2 12 13
M  V30 13 1 13 14
M  V30 14 1 13 15
M  V30 15 2 15 16
M  V30 16 1 16 17
M  V30 17 1 17 18
M  V30 18 2 17 19
M  V30 19 1 8 2
M  V30 20 1 19 12
M  V30 21 1 1 20
M  V30 22 1 1 21
M  V30 23 1 1 22
M  V30 24 1 3 23
M  V30 25 1 4 24
M  V30 26 1 6 25
M  V30 27 1 6 26
M  V30 28 1 7 27
M  V30 29 1 14 28
M  V30 30 1 14 29
M  V30 31 1 14 30
M  V30 32 1 15 31
M  V30 33 1 16 32
M  V30 34 1 18 33
M  V30 35 1 18 34
M  V30 36 1 19 35
M  V30 END BOND
M  V30 END CTAB
M  END
