
     RDKit          3D

  0  0  0  0  0  0  0  0  0  0999 V3000
M  V30 BEGIN CTAB
M  V30 COUNTS 53 53 0 0 0
M  V30 BEGIN ATOM
M  V30 1 C -7.1224 0.718213 0.5675 0
M  V30 2 C -5.77072 1.37168 0.740482 0
M  V30 3 C -4.62895 0.362158 0.596911 0
M  V30 4 C -4.7402 -0.730078 1.63356 0
M  V30 5 C -4.64168 -0.280703 -0.757091 0
M  V30 6 N -4.48776 0.741796 -1.79535 0
M  V30 7 C -3.53849 -1.30291 -0.882759 0
M  V30 8 N -2.27903 -0.621656 -0.679297 0
M  V30 9 C -1.14933 -1.51897 -0.821868 0
M  V30 10 C 0.135254 -0.822454 -0.60217 0
M  V30 11 C 0.981912 -1.28399 0.379395 0
M  V30 12 C 2.19294 -0.604673 0.561654 0
M  V30 13 C 2.52477 0.46741 -0.196117 0
M  V30 14 C 3.81305 1.17117 0.00851039 0
M  V30 15 N 4.55838 0.487152 1.03072 0
M  V30 16 C 5.8468 1.10984 1.28601 0
M  V30 17 C 6.71254 0.902839 0.0697902 0
M  V30 18 C 6.89122 -0.582165 -0.189383 0
M  V30 19 N 7.51787 -1.19262 0.951099 0
M  V30 20 C 1.68025 0.930221 -1.17696 0
M  V30 21 C 0.477611 0.253667 -1.3567 0
M  V30 22 H -7.82306 1.05232 1.34677 0
M  V30 23 H -6.9487 -0.368061 0.542001 0
M  V30 24 H -7.51324 1.05701 -0.430181 0
M  V30 25 H -5.7079 1.79144 1.77916 0
M  V30 26 H -5.57912 2.18298 0.0199236 0
M  V30 27 H -3.69548 0.922039 0.799049 0
M  V30 28 H -5.35955 -1.5395 1.24716 0
M  V30 29 H -3.72664 -1.11105 1.8252 0
M  V30 30 H -5.15765 -0.251717 2.54946 0
M  V30 31 H -5.58834 -0.804995 -0.96753 0
M  V30 32 H -4.17396 1.63657 -1.35848 0
M  V30 33 H -3.838 0.395299 -2.51676 0
M  V30 34 H -3.65337 -1.99774 -0.0211957 0
M  V30 35 H -3.56531 -1.86268 -1.81863 0
M  V30 36 H -2.18911 0.258085 -1.19535 0
M  V30 37 H -1.25361 -2.3086 -0.0548186 0
M  V30 38 H -1.17123 -2.04176 -1.80845 0
M  V30 39 H 0.72322 -2.15257 1.00117 0
M  V30 40 H 2.82713 -0.990719 1.33136 0
M  V30 41 H 4.35059 1.12771 -0.96189 0
M  V30 42 H 3.58264 2.22232 0.288484 0
M  V30 43 H 3.98647 0.562742 1.91327 0
M  V30 44 H 5.76489 2.20474 1.47001 0
M  V30 45 H 6.30923 0.57839 2.12497 0
M  V30 46 H 6.35464 1.44494 -0.826043 0
M  V30 47 H 7.71327 1.32955 0.30331 0
M  V30 48 H 5.89109 -1.07308 -0.32857 0
M  V30 49 H 7.44214 -0.747822 -1.12896 0
M  V30 50 H 8.3682 -1.72606 0.724604 0
M  V30 51 H 6.89192 -1.81593 1.49233 0
M  V30 52 H 1.93087 1.79557 -1.80018 0
M  V30 53 H -0.166088 0.654649 -2.14687 0
M  V30 END ATOM
M  V30 BEGIN BOND
M  V30 1 1 1 2
M  V30 2 1 2 3
M  V30 3 1 3 4
M  V30 4 1 3 5
M  V30 5 1 5 6
M  V30 6 1 5 7
M  V30 7 1 7 8
M  V30 8 1 8 9
M  V30 9 1 9 10
M  V30 10 2 10 11
M  V30 11 1 11 12
M  V30 12 2 12 13
M  V30 13 1 13 14
M  V30 14 1 14 15
M  V30 15 1 15 16
M  V30 16 1 16 17
M  V30 17 1 17 18
M  V30 18 1 18 19
M  V30 19 1 13 20
M  V30 20 2 20 21
M  V30 21 1 21 10
M  V30 22 1 1 22
M  V30 23 1 1 23
M  V30 24 1 1 24
M  V30 25 1 2 25
M  V30 26 1 2 26
M  V30 27 1 3 27
M  V30 28 1 4 28
M  V30 29 1 4 29
M  V30 30 1 4 30
M  V30 31 1 5 31
M  V30 32 1 6 32
M  V30 33 1 6 33
M  V30 34 1 7 34
M  V30 35 1 7 35
M  V30 36 1 8 36
M  V30 37 1 9 37
M  V30 38 1 9 38
M  V30 39 1 11 39
M  V30 40 1 12 40
M  V30 41 1 14 41
M  V30 42 1 14 42
M  V30 43 1 15 43
M  V30 44 1 16 44
M  V30 45 1 16 45
M  V30 46 1 17 46
M  V30 47 1 17 47
M  V30 48 1 18 48
M  V30 49 1 18 49
M  V30 50 1 19 50
M  V30 51 1 19 51
M  V30 52 1 20 52
M  V30 53 1 21 53
M  V30 END BOND
M  V30 END CTAB
M  END
