
     RDKit          3D

  0  0  0  0  0  0  0  0  0  0999 V3000
M  V30 BEGIN CTAB
M  V30 COUNTS 40 41 0 0 0
M  V30 BEGIN ATOM
M  V30 1 N -6.78952 0.235282 1.18878 0
M  V30 2 C -6.33286 0.961938 0.0385651 0
M  V30 3 C -4.95749 0.568107 -0.361164 0
M  V30 4 C -4.43474 1.1604 -1.50253 0
M  V30 5 C -3.16078 0.792771 -1.86458 0
M  V30 6 C -2.42997 -0.128821 -1.12314 0
M  V30 7 C -2.96017 -0.709909 0.00828658 0
M  V30 8 C -4.24787 -0.336067 0.371348 0
M  V30 9 C -2.219 -1.69862 0.840446 0
M  V30 10 N -0.84705 -1.79408 0.39754 0
M  V30 11 C 0.0932964 -0.799438 0.726839 0
M  V30 12 O -0.276892 0.180118 1.41797 0
M  V30 13 C 1.50105 -0.878752 0.280804 0
M  V30 14 O 1.87956 -1.85236 -0.412523 0
M  V30 15 N 2.38224 0.14732 0.648875 0
M  V30 16 C 3.76355 0.271488 0.323455 0
M  V30 17 C 4.54689 1.18482 1.04395 0
M  V30 18 C 5.86371 1.3341 0.737834 0
M  V30 19 C 6.50616 0.633198 -0.258325 0
M  V30 20 C 5.75301 -0.26296 -0.971158 0
M  V30 21 C 4.3952 -0.433197 -0.67389 0
M  V30 22 Cl 6.48568 -1.20362 -2.26205 0
M  V30 23 N 7.89722 0.842488 -0.527249 0
M  V30 24 H -6.85278 -0.769116 0.952961 0
M  V30 25 H -6.18504 0.400829 1.99748 0
M  V30 26 H -6.27048 2.03595 0.343263 0
M  V30 27 H -7.03191 0.894578 -0.811178 0
M  V30 28 H -5.0247 1.87355 -2.05987 0
M  V30 29 H -2.69408 1.218 -2.74453 0
M  V30 30 H -1.41498 -0.411456 -1.42978 0
M  V30 31 H -4.68406 -0.780078 1.25616 0
M  V30 32 H -2.2635 -1.28141 1.88808 0
M  V30 33 H -2.7029 -2.69018 0.872166 0
M  V30 34 H -0.575124 -2.62842 -0.176842 0
M  V30 35 H 1.99085 0.95136 1.24686 0
M  V30 36 H 4.08972 1.76395 1.84262 0
M  V30 37 H 6.50119 2.05689 1.302 0
M  V30 38 H 3.85395 -1.15136 -1.28453 0
M  V30 39 H 8.47811 0.0943576 -0.981892 0
M  V30 40 H 8.37452 1.73955 -0.281045 0
M  V30 END ATOM
M  V30 BEGIN BOND
M  V30 1 1 1 2
M  V30 2 1 2 3
M  V30 3 2 3 4
M  V30 4 1 4 5
M  V30 5 2 5 6
M  V30 6 1 6 7
M  V30 7 2 7 8
M  V30 8 1 7 9
M  V30 9 1 9 10
M  V30 10 1 10 11
M  V30 11 2 11 12
M  V30 12 1 11 13
M  V30 13 2 13 14
M  V30 14 1 13 15
M  V30 15 1 15 16
M  V30 16 2 16 17
M  V30 17 1 17 18
M  V30 18 2 18 19
M  V30 19 1 19 20
M  V30 20 2 20 21
M  V30 21 1 20 22
M  V30 22 1 19 23
M  V30 23 1 8 3
M  V30 24 1 21 16
M  V30 25 1 1 24
M  V30 26 1 1 25
M  V30 27 1 2 26
M  V30 28 1 2 27
M  V30 29 1 4 28
M  V30 30 1 5 29
M  V30 31 1 6 30
M  V30 32 1 8 31
M  V30 33 1 9 32
M  V30 34 1 9 33
M  V30 35 1 10 34
M  V30 36 1 15 35
M  V30 37 1 17 36
M  V30 38 1 18 37
M  V30 39 1 21 38
M  V30 40 1 23 39
M  V30 41 1 23 40
M  V30 END BOND
M  V30 END CTAB
M  END
