
     RDKit          3D

  0  0  0  0  0  0  0  0  0  0999 V3000
M  V30 BEGIN CTAB
M  V30 COUNTS 22 22 0 0 0
M  V30 BEGIN ATOM
M  V30 1 C -2.81862 -0.710455 0.722142 0
M  V30 2 C -2.03752 0.448992 0.136889 0
M  V30 3 C -0.583822 0.131065 0.11509 0
M  V30 4 C -0.0100155 -0.863931 0.880893 0
M  V30 5 C 1.34444 -1.14121 0.842996 0
M  V30 6 C 2.18818 -0.419023 0.024015 0
M  V30 7 N 3.5866 -0.67933 -0.0407216 0
M  V30 8 C 1.61724 0.575529 -0.741249 0
M  V30 9 C 0.250881 0.85631 -0.705046 0
M  V30 10 N -0.319569 1.87815 -1.49547 0
M  V30 11 H -2.86721 -0.546855 1.81247 0
M  V30 12 H -2.36815 -1.69615 0.44088 0
M  V30 13 H -3.82911 -0.710372 0.2473 0
M  V30 14 H -2.27058 1.35465 0.726645 0
M  V30 15 H -2.43343 0.638097 -0.880178 0
M  V30 16 H -0.678763 -1.43674 1.53434 0
M  V30 17 H 1.78363 -1.92307 1.44896 0
M  V30 18 H 4.21036 0.0950095 -0.31881 0
M  V30 19 H 4.02244 -1.60042 0.176829 0
M  V30 20 H 2.25348 1.1587 -1.39478 0
M  V30 21 H -0.84327 1.72652 -2.38571 0
M  V30 22 H -0.197207 2.86452 -1.14749 0
M  V30 END ATOM
M  V30 BEGIN BOND
M  V30 1 1 1 2
M  V30 2 1 2 3
M  V30 3 2 3 4
M  V30 4 1 4 5
M  V30 5 2 5 6
M  V30 6 1 6 7
M  V30 7 1 6 8
M  V30 8 2 8 9
M  V30 9 1 9 10
M  V30 10 1 9 3
M  V30 11 1 1 11
M  V30 12 1 1 12
M  V30 13 1 1 13
M  V30 14 1 2 14
M  V30 15 1 2 15
M  V30 16 1 4 16
M  V30 17 1 5 17
M  V30 18 1 7 18
M  V30 19 1 7 19
M  V30 20 1 8 20
M  V30 21 1 10 21
M  V30 22 1 10 22
M  V30 END BOND
M  V30 END CTAB
M  END
