
     RDKit          3D

  0  0  0  0  0  0  0  0  0  0999 V3000
M  V30 BEGIN CTAB
M  V30 COUNTS 25 26 0 0 0
M  V30 BEGIN ATOM
M  V30 1 N 4.6484 -0.337301 0.536736 0
M  V30 2 C 3.23058 -0.24295 0.333527 0
M  V30 3 N 2.47772 0.570743 1.09473 0
M  V30 4 C 1.1307 0.682053 0.933198 0
M  V30 5 N 0.33742 1.5527 1.72913 0
M  V30 6 C 0.482095 -0.050188 -0.0357632 0
M  V30 7 C -0.9766 0.0510578 -0.212671 0
M  V30 8 C -1.60765 1.16231 -0.677498 0
M  V30 9 C -2.98996 1.16206 -0.828469 0
M  V30 10 C -3.74559 0.053066 -0.516849 0
M  V30 11 C -3.11211 -1.07938 -0.0435346 0
M  V30 12 C -1.75147 -1.06021 0.0981746 0
M  V30 13 C 1.26305 -0.88202 -0.813593 0
M  V30 14 O 0.613271 -1.62601 -1.79851 0
M  V30 15 N 2.59132 -0.952186 -0.609183 0
M  V30 16 H 5.30998 0.434415 0.304649 0
M  V30 17 H 5.07312 -1.20511 0.934018 0
M  V30 18 H -0.247223 1.18079 2.47537 0
M  V30 19 H 0.381965 2.59504 1.51885 0
M  V30 20 H -1.02697 2.04395 -0.925892 0
M  V30 21 H -3.45564 2.08106 -1.21063 0
M  V30 22 H -4.82539 0.0575513 -0.636186 0
M  V30 23 H -3.72189 -1.95837 0.198962 0
M  V30 24 H -1.26226 -1.95467 0.47135 0
M  V30 25 H 1.18314 -2.27839 -2.31991 0
M  V30 END ATOM
M  V30 BEGIN BOND
M  V30 1 1 1 2
M  V30 2 2 2 3
M  V30 3 1 3 4
M  V30 4 1 4 5
M  V30 5 2 4 6
M  V30 6 1 6 7
M  V30 7 2 7 8
M  V30 8 1 8 9
M  V30 9 2 9 10
M  V30 10 1 10 11
M  V30 11 2 11 12
M  V30 12 1 6 13
M  V30 13 1 13 14
M  V30 14 2 13 15
M  V30 15 1 15 2
M  V30 16 1 12 7
M  V30 17 1 1 16
M  V30 18 1 1 17
M  V30 19 1 5 18
M  V30 20 1 5 19
M  V30 21 1 8 20
M  V30 22 1 9 21
M  V30 23 1 10 22
M  V30 24 1 11 23
M  V30 25 1 12 24
M  V30 26 1 14 25
M  V30 END BOND
M  V30 END CTAB
M  END
