
     RDKit          3D

  0  0  0  0  0  0  0  0  0  0999 V3000
M  V30 BEGIN CTAB
M  V30 COUNTS 29 29 0 0 0
M  V30 BEGIN ATOM
M  V30 1 C -0.880641 2.67789 -0.688338 0
M  V30 2 O -0.692301 1.78649 0.39462 0
M  V30 3 C 0.199277 0.740428 0.28154 0
M  V30 4 C 1.5604 1.05639 0.394643 0
M  V30 5 N 1.91986 2.39869 0.652946 0
M  V30 6 C 2.55966 0.132949 0.319045 0
M  V30 7 C 2.15321 -1.18588 0.11637 0
M  V30 8 C 0.838205 -1.51918 0.00478796 0
M  V30 9 C -0.207499 -0.544043 0.0859899 0
M  V30 10 C -1.56685 -0.993359 -0.145375 0
M  V30 11 C -2.1538 -1.68943 1.08785 0
M  V30 12 C -2.56851 -0.281572 -0.919788 0
M  V30 13 N 3.17277 -2.18036 -0.032794 0
M  V30 14 H -1.28785 3.67376 -0.367446 0
M  V30 15 H 0.122823 2.91737 -1.16044 0
M  V30 16 H -1.45108 2.25979 -1.50618 0
M  V30 17 H 1.27335 3.0989 1.1183 0
M  V30 18 H 2.8495 2.79761 0.405752 0
M  V30 19 H 3.60418 0.34936 0.401566 0
M  V30 20 H 0.536646 -2.53186 -0.141468 0
M  V30 21 H -1.41893 -1.99778 -0.837581 0
M  V30 22 H -2.56331 -2.67096 0.910123 0
M  V30 23 H -1.37876 -1.72485 1.91089 0
M  V30 24 H -3.00218 -1.01996 1.44787 0
M  V30 25 H -2.19968 0.0179129 -1.95116 0
M  V30 26 H -3.4049 -1.02989 -1.1757 0
M  V30 27 H -3.09841 0.520347 -0.404319 0
M  V30 28 H 2.9804 -3.17305 0.176829 0
M  V30 29 H 4.10442 -1.88571 -0.37853 0
M  V30 END ATOM
M  V30 BEGIN BOND
M  V30 1 1 1 2
M  V30 2 1 2 3
M  V30 3 2 3 4
M  V30 4 1 4 5
M  V30 5 1 4 6
M  V30 6 2 6 7
M  V30 7 1 7 8
M  V30 8 2 8 9
M  V30 9 1 9 10
M  V30 10 1 10 11
M  V30 11 1 10 12
M  V30 12 1 7 13
M  V30 13 1 9 3
M  V30 14 1 1 14
M  V30 15 1 1 15
M  V30 16 1 1 16
M  V30 17 1 5 17
M  V30 18 1 5 18
M  V30 19 1 6 19
M  V30 20 1 8 20
M  V30 21 1 10 21
M  V30 22 1 11 22
M  V30 23 1 11 23
M  V30 24 1 11 24
M  V30 25 1 12 25
M  V30 26 1 12 26
M  V30 27 1 12 27
M  V30 28 1 13 28
M  V30 29 1 13 29
M  V30 END BOND
M  V30 END CTAB
M  END
