
     RDKit          3D

  0  0  0  0  0  0  0  0  0  0999 V3000
M  V30 BEGIN CTAB
M  V30 COUNTS 45 48 0 0 0
M  V30 BEGIN ATOM
M  V30 1 N -1.92035 -0.792973 -3.54388 0
M  V30 2 C -1.3938 -0.523927 -2.25829 0
M  V30 3 N -0.0749008 -0.525568 -1.99549 0
M  V30 4 C 0.441044 -0.273428 -0.782538 0
M  V30 5 C -0.453266 0.00315219 0.249116 0
M  V30 6 N -1.76791 0.00355765 -0.0187485 0
M  V30 7 C -2.29103 -0.247998 -1.23078 0
M  V30 8 C -3.69908 -0.256646 -1.49561 0
M  V30 9 O -4.07008 -0.540972 -2.71063 0
M  V30 10 C -4.79406 0.00399013 -0.610386 0
M  V30 11 C -4.66187 0.757135 0.522647 0
M  V30 12 C -5.73823 0.991803 1.39001 0
M  V30 13 C -6.9672 0.451409 1.09903 0
M  V30 14 C -7.14675 -0.314239 -0.0321731 0
M  V30 15 C -6.07469 -0.518297 -0.849579 0
M  V30 16 C 0.072158 0.261733 1.49661 0
M  V30 17 N -0.781293 0.549169 2.58664 0
M  V30 18 N 1.40764 0.252674 1.73325 0
M  V30 19 C 2.27332 -0.020535 0.71154 0
M  V30 20 N 1.75336 -0.271615 -0.50129 0
M  V30 21 N 3.67699 -0.0306289 0.962987 0
M  V30 22 C 4.42947 1.1965 0.820863 0
M  V30 23 C 5.49163 1.08451 -0.26917 0
M  V30 24 C 6.13679 -0.254382 -0.133241 0
M  V30 25 C 5.87228 -0.895317 1.21439 0
M  V30 26 C 4.38633 -1.22278 1.3557 0
M  V30 27 H -2.04585 -0.103938 -4.30529 0
M  V30 28 H -2.20971 -1.77643 -3.74437 0
M  V30 29 H -3.7218 1.23709 0.827847 0
M  V30 30 H -5.59692 1.60037 2.28902 0
M  V30 31 H -7.79736 0.644563 1.79009 0
M  V30 32 H -8.13286 -0.713804 -0.210952 0
M  V30 33 H -6.17966 -1.11193 -1.74032 0
M  V30 34 H -0.469731 0.343249 3.55343 0
M  V30 35 H -1.71918 0.963053 2.43047 0
M  V30 36 H 4.93637 1.46782 1.751 0
M  V30 37 H 3.78519 2.05326 0.515194 0
M  V30 38 H 5.04229 1.27004 -1.26403 0
M  V30 39 H 6.22672 1.89255 -0.0828496 0
M  V30 40 H 5.72138 -0.933669 -0.922064 0
M  V30 41 H 7.22312 -0.172063 -0.257865 0
M  V30 42 H 6.1185 -0.211222 2.03625 0
M  V30 43 H 6.42477 -1.84018 1.29433 0
M  V30 44 H 4.09205 -2.11359 0.793265 0
M  V30 45 H 4.19617 -1.36147 2.44272 0
M  V30 END ATOM
M  V30 BEGIN BOND
M  V30 1 1 1 2
M  V30 2 2 2 3
M  V30 3 1 3 4
M  V30 4 2 4 5
M  V30 5 1 5 6
M  V30 6 2 6 7
M  V30 7 1 7 8
M  V30 8 2 8 9
M  V30 9 1 8 10
M  V30 10 2 10 11
M  V30 11 1 11 12
M  V30 12 2 12 13
M  V30 13 1 13 14
M  V30 14 2 14 15
M  V30 15 1 5 16
M  V30 16 1 16 17
M  V30 17 2 16 18
M  V30 18 1 18 19
M  V30 19 2 19 20
M  V30 20 1 19 21
M  V30 21 1 21 22
M  V30 22 1 22 23
M  V30 23 1 23 24
M  V30 24 1 24 25
M  V30 25 1 25 26
M  V30 26 1 7 2
M  V30 27 1 15 10
M  V30 28 1 26 21
M  V30 29 1 20 4
M  V30 30 1 1 27
M  V30 31 1 1 28
M  V30 32 1 11 29
M  V30 33 1 12 30
M  V30 34 1 13 31
M  V30 35 1 14 32
M  V30 36 1 15 33
M  V30 37 1 17 34
M  V30 38 1 17 35
M  V30 39 1 22 36
M  V30 40 1 22 37
M  V30 41 1 23 38
M  V30 42 1 23 39
M  V30 43 1 24 40
M  V30 44 1 24 41
M  V30 45 1 25 42
M  V30 46 1 25 43
M  V30 47 1 26 44
M  V30 48 1 26 45
M  V30 END BOND
M  V30 END CTAB
M  END
