
     RDKit          3D

  0  0  0  0  0  0  0  0  0  0999 V3000
M  V30 BEGIN CTAB
M  V30 COUNTS 61 62 0 0 0
M  V30 BEGIN ATOM
M  V30 1 N -10.2822 1.04013 1.51301 0
M  V30 2 C -9.5226 1.37661 0.351634 0
M  V30 3 N -10.0935 2.04543 -0.563236 0
M  V30 4 C -8.13661 0.927578 0.29432 0
M  V30 5 C -7.32018 1.20284 -0.786424 0
M  V30 6 C -6.00397 0.762521 -0.813858 0
M  V30 7 C -5.45585 0.0382781 0.223883 0
M  V30 8 O -4.1318 -0.400956 0.189089 0
M  V30 9 C -3.62971 -1.13573 1.2781 0
M  V30 10 C -2.18365 -1.47561 0.968815 0
M  V30 11 C -2.05733 -2.28974 -0.277623 0
M  V30 12 C -0.649408 -2.67268 -0.639991 0
M  V30 13 C 0.160572 -1.41661 -0.850369 0
M  V30 14 C 1.59159 -1.75919 -1.23013 0
M  V30 15 C 2.35543 -0.492023 -1.42913 0
M  V30 16 C 2.4042 0.38844 -0.195398 0
M  V30 17 C 3.06173 -0.384409 0.896186 0
M  V30 18 O 4.33304 -0.76386 0.585987 0
M  V30 19 C 5.48569 -0.103914 0.326366 0
M  V30 20 C 6.60021 -0.898783 0.0153002 0
M  V30 21 C 7.83073 -0.363771 -0.266814 0
M  V30 22 C 8.03697 0.991026 -0.259169 0
M  V30 23 C 6.93446 1.79841 0.0498986 0
M  V30 24 C 5.70259 1.24667 0.332014 0
M  V30 25 C 9.29849 1.65097 -0.54395 0
M  V30 26 N 9.41816 3.06832 -0.512068 0
M  V30 27 N 10.3432 0.984863 -0.832509 0
M  V30 28 C -6.26775 -0.239535 1.30654 0
M  V30 29 C -7.57361 0.20295 1.32284 0
M  V30 30 H -10.8528 0.149686 1.54574 0
M  V30 31 H -10.3064 1.65082 2.36818 0
M  V30 32 H -9.67358 2.35596 -1.44678 0
M  V30 33 H -7.73074 1.77822 -1.62754 0
M  V30 34 H -5.35477 0.977459 -1.66559 0
M  V30 35 H -3.65234 -0.497378 2.17625 0
M  V30 36 H -4.25106 -2.02924 1.41622 0
M  V30 37 H -1.68096 -0.488278 0.828055 0
M  V30 38 H -1.73792 -1.99622 1.83434 0
M  V30 39 H -2.64995 -3.22691 -0.248655 0
M  V30 40 H -2.455 -1.70965 -1.15601 0
M  V30 41 H -0.708492 -3.27081 -1.57227 0
M  V30 42 H -0.22921 -3.26479 0.200088 0
M  V30 43 H 0.164265 -0.869993 0.138905 0
M  V30 44 H -0.294337 -0.811818 -1.64395 0
M  V30 45 H 2.06253 -2.45377 -0.535965 0
M  V30 46 H 1.5322 -2.26695 -2.21483 0
M  V30 47 H 3.42204 -0.7299 -1.67483 0
M  V30 48 H 1.95207 0.0586567 -2.28647 0
M  V30 49 H 1.39014 0.756111 0.0805414 0
M  V30 50 H 2.97887 1.27716 -0.4707 0
M  V30 51 H 2.45516 -1.31367 1.10643 0
M  V30 52 H 3.00225 0.178017 1.86443 0
M  V30 53 H 6.49083 -1.9725 -0.00417247 0
M  V30 54 H 8.67647 -1.0085 -0.504665 0
M  V30 55 H 7.07341 2.86792 0.0618754 0
M  V30 56 H 4.88662 1.90614 0.582027 0
M  V30 57 H 8.79277 3.64119 -1.11158 0
M  V30 58 H 10.112 3.55413 0.0921994 0
M  V30 59 H 10.3752 -0.0283595 -0.884497 0
M  V30 60 H -5.83205 -0.812239 2.12562 0
M  V30 61 H -8.20593 -0.0176646 2.17428 0
M  V30 END ATOM
M  V30 BEGIN BOND
M  V30 1 1 1 2
M  V30 2 2 2 3 CFG=2
M  V30 3 1 2 4
M  V30 4 2 4 5
M  V30 5 1 5 6
M  V30 6 2 6 7
M  V30 7 1 7 8
M  V30 8 1 8 9
M  V30 9 1 9 10
M  V30 10 1 10 11
M  V30 11 1 11 12
M  V30 12 1 12 13
M  V30 13 1 13 14
M  V30 14 1 14 15
M  V30 15 1 15 16
M  V30 16 1 16 17
M  V30 17 1 17 18
M  V30 18 1 18 19
M  V30 19 2 19 20
M  V30 20 1 20 21
M  V30 21 2 21 22
M  V30 22 1 22 23
M  V30 23 2 23 24
M  V30 24 1 22 25
M  V30 25 1 25 26
M  V30 26 2 25 27 CFG=2
M  V30 27 1 7 28
M  V30 28 2 28 29
M  V30 29 1 29 4
M  V30 30 1 24 19
M  V30 31 1 1 30
M  V30 32 1 1 31
M  V30 33 1 3 32
M  V30 34 1 5 33
M  V30 35 1 6 34
M  V30 36 1 9 35
M  V30 37 1 9 36
M  V30 38 1 10 37
M  V30 39 1 10 38
M  V30 40 1 11 39
M  V30 41 1 11 40
M  V30 42 1 12 41
M  V30 43 1 12 42
M  V30 44 1 13 43
M  V30 45 1 13 44
M  V30 46 1 14 45
M  V30 47 1 14 46
M  V30 48 1 15 47
M  V30 49 1 15 48
M  V30 50 1 16 49
M  V30 51 1 16 50
M  V30 52 1 17 51
M  V30 53 1 17 52
M  V30 54 1 20 53
M  V30 55 1 21 54
M  V30 56 1 23 55
M  V30 57 1 24 56
M  V30 58 1 26 57
M  V30 59 1 26 58
M  V30 60 1 27 59
M  V30 61 1 28 60
M  V30 62 1 29 61
M  V30 END BOND
M  V30 END CTAB
M  END
