
     RDKit          3D

  0  0  0  0  0  0  0  0  0  0999 V3000
M  V30 BEGIN CTAB
M  V30 COUNTS 24 25 0 0 0
M  V30 BEGIN ATOM
M  V30 1 C -3.00946 -0.606803 -0.194141 0
M  V30 2 C -1.6029 -0.209695 0.00271335 0
M  V30 3 C -0.628789 -1.05764 -0.504817 0
M  V30 4 N -0.935725 -2.25298 -1.18344 0
M  V30 5 N 0.65094 -0.658566 -0.30405 0
M  V30 6 C 0.97385 0.471169 0.336625 0
M  V30 7 N 0.00140831 1.2617 0.811198 0
M  V30 8 C -1.30861 0.951912 0.662288 0
M  V30 9 N -2.33926 1.79638 1.16905 0
M  V30 10 C 2.40381 0.867051 0.532296 0
M  V30 11 C 3.29183 0.639104 -0.734266 0
M  V30 12 C 3.4249 -0.202144 0.4748 0
M  V30 13 H -3.22109 -1.59496 0.271532 0
M  V30 14 H -3.69949 0.159264 0.19577 0
M  V30 15 H -3.18359 -0.650598 -1.30461 0
M  V30 16 H -0.463305 -2.47908 -2.06764 0
M  V30 17 H -1.63381 -2.89621 -0.789276 0
M  V30 18 H -2.8651 1.61357 2.04254 0
M  V30 19 H -2.54105 2.65455 0.574006 0
M  V30 20 H 2.57982 1.80912 1.06896 0
M  V30 21 H 3.99332 1.47086 -0.95329 0
M  V30 22 H 2.76972 0.27475 -1.63383 0
M  V30 23 H 4.31216 -0.122226 1.12219 0
M  V30 24 H 3.03042 -1.23853 0.405389 0
M  V30 END ATOM
M  V30 BEGIN BOND
M  V30 1 1 1 2
M  V30 2 2 2 3
M  V30 3 1 3 4
M  V30 4 1 3 5
M  V30 5 2 5 6
M  V30 6 1 6 7
M  V30 7 2 7 8
M  V30 8 1 8 9
M  V30 9 1 6 10
M  V30 10 1 10 11
M  V30 11 1 11 12
M  V30 12 1 8 2
M  V30 13 1 12 10
M  V30 14 1 1 13
M  V30 15 1 1 14
M  V30 16 1 1 15
M  V30 17 1 4 16
M  V30 18 1 4 17
M  V30 19 1 9 18
M  V30 20 1 9 19
M  V30 21 1 10 20
M  V30 22 1 11 21
M  V30 23 1 11 22
M  V30 24 1 12 23
M  V30 25 1 12 24
M  V30 END BOND
M  V30 END CTAB
M  END
