
     RDKit          3D

  0  0  0  0  0  0  0  0  0  0999 V3000
M  V30 BEGIN CTAB
M  V30 COUNTS 28 29 0 0 0
M  V30 BEGIN ATOM
M  V30 1 N 0.536059 -1.71348 2.6854 0
M  V30 2 C -0.252825 -1.38021 1.90843 0
M  V30 3 C -1.25622 -0.942229 0.931665 0
M  V30 4 C -2.50923 -0.905206 1.32588 0
M  V30 5 N -2.89 -1.27043 2.63099 0
M  V30 6 S -3.73294 -0.336912 0.108962 0
M  V30 7 C -2.77495 0.883601 -0.838962 0
M  V30 8 C -1.48381 0.630155 -0.996564 0
M  V30 9 C -0.866982 -0.579508 -0.431874 0
M  V30 10 C 0.638197 -0.418094 -0.533373 0
M  V30 11 C 1.51293 -1.10938 -1.31772 0
M  V30 12 C 2.82104 -0.778812 -1.2301 0
M  V30 13 C 3.14996 0.221057 -0.361069 0
M  V30 14 S 1.65134 0.670737 0.30394 0
M  V30 15 C 4.53182 0.765126 -0.088992 0
M  V30 16 C -0.699518 1.56574 -1.73408 0
M  V30 17 N -0.0549829 2.32275 -2.32887 0
M  V30 18 N -3.344 2.03197 -1.38107 0
M  V30 19 H -2.69944 -0.643711 3.42257 0
M  V30 20 H -3.36145 -2.16861 2.79545 0
M  V30 21 H -1.11276 -1.41202 -1.15993 0
M  V30 22 H 1.15118 -1.91345 -2.00039 0
M  V30 23 H 3.62258 -1.27937 -1.82604 0
M  V30 24 H 5.18337 0.592582 -0.950531 0
M  V30 25 H 4.46751 1.87259 0.0835694 0
M  V30 26 H 4.93683 0.319992 0.830823 0
M  V30 27 H -4.07778 1.97358 -2.1295 0
M  V30 28 H -3.08594 3.00155 -1.08739 0
M  V30 END ATOM
M  V30 BEGIN BOND
M  V30 1 3 1 2
M  V30 2 1 2 3
M  V30 3 2 3 4
M  V30 4 1 4 5
M  V30 5 1 4 6
M  V30 6 1 6 7
M  V30 7 2 7 8
M  V30 8 1 8 9
M  V30 9 1 9 10
M  V30 10 2 10 11
M  V30 11 1 11 12
M  V30 12 2 12 13
M  V30 13 1 13 14
M  V30 14 1 13 15
M  V30 15 1 8 16
M  V30 16 3 16 17
M  V30 17 1 7 18
M  V30 18 1 9 3
M  V30 19 1 14 10
M  V30 20 1 5 19
M  V30 21 1 5 20
M  V30 22 1 9 21
M  V30 23 1 11 22
M  V30 24 1 12 23
M  V30 25 1 15 24
M  V30 26 1 15 25
M  V30 27 1 15 26
M  V30 28 1 18 27
M  V30 29 1 18 28
M  V30 END BOND
M  V30 END CTAB
M  END
