
     RDKit          3D

  0  0  0  0  0  0  0  0  0  0999 V3000
M  V30 BEGIN CTAB
M  V30 COUNTS 57 60 0 0 0
M  V30 BEGIN ATOM
M  V30 1 N -3.99842 -1.945 1.84676 0
M  V30 2 C -4.59223 -0.648508 2.09877 0
M  V30 3 N -5.48623 -0.634565 2.99287 0
M  V30 4 C -4.15228 0.520542 1.35041 0
M  V30 5 C -3.13662 0.36725 0.380882 0
M  V30 6 C -2.68793 1.40455 -0.333436 0
M  V30 7 O -1.67097 1.38426 -1.34184 0
M  V30 8 C -2.20859 0.950736 -2.59598 0
M  V30 9 C -2.68641 1.97799 -3.42686 0
M  V30 10 C -3.25148 1.70097 -4.65153 0
M  V30 11 C -3.34338 0.382896 -5.05889 0
M  V30 12 Br -4.14215 -0.0381143 -6.76267 0
M  V30 13 C -2.87379 -0.62587 -4.2582 0
M  V30 14 C -2.29152 -0.3186 -3.00385 0
M  V30 15 C -1.48015 -1.40899 -2.39539 0
M  V30 16 O -1.90285 -2.56764 -2.82589 0
M  V30 17 N -0.463686 -1.32154 -1.52916 0
M  V30 18 C 0.575079 -1.23243 -0.643953 0
M  V30 19 C 0.65298 -0.525627 0.523909 0
M  V30 20 C 1.82007 -0.418494 1.26795 0
M  V30 21 C 2.97743 -1.01866 0.878443 0
M  V30 22 C 2.94157 -1.75229 -0.306198 0
M  V30 23 C 1.80869 -1.86204 -1.03763 0
M  V30 24 C 4.2484 -0.970665 1.57086 0
M  V30 25 C 4.53657 -1.87287 2.57397 0
M  V30 26 C 5.73345 -1.90425 3.22217 0
M  V30 27 C 6.68257 -0.974943 2.83437 0
M  V30 28 C 6.41796 -0.0655519 1.83782 0
M  V30 29 C 5.18141 -0.0524659 1.18786 0
M  V30 30 S 4.87935 1.11755 -0.0331901 0
M  V30 31 N 3.56554 2.16657 0.333853 0
M  V30 32 O 4.72374 0.469179 -1.37842 0
M  V30 33 O 6.11071 2.00829 -0.167699 0
M  V30 34 C -3.26332 2.67574 -0.0895205 0
M  V30 35 C -4.25565 2.82196 0.85936 0
M  V30 36 C -4.70864 1.74633 1.58411 0
M  V30 37 H -3.09556 -2.15281 2.30082 0
M  V30 38 H -4.52027 -2.57755 1.22358 0
M  V30 39 H -6.0252 0.154412 3.32555 0
M  V30 40 H -2.73905 -0.623032 0.255021 0
M  V30 41 H -2.59727 3.00701 -3.07176 0
M  V30 42 H -3.61167 2.52025 -5.2502 0
M  V30 43 H -2.94149 -1.65662 -4.58552 0
M  V30 44 H -0.488246 -2.69538 -1.36114 0
M  V30 45 H -0.235662 -0.0244253 0.881825 0
M  V30 46 H 1.85643 0.145696 2.19143 0
M  V30 47 H 3.87286 -2.24154 -0.629287 0
M  V30 48 H 1.74334 -2.43352 -1.96644 0
M  V30 49 H 3.77496 -2.58693 2.85208 0
M  V30 50 H 6.00359 -2.59053 4.01086 0
M  V30 51 H 7.64277 -0.973907 3.32299 0
M  V30 52 H 7.19587 0.632962 1.57661 0
M  V30 53 H 3.88301 2.88518 1.03264 0
M  V30 54 H 3.13332 2.57842 -0.499254 0
M  V30 55 H -2.89805 3.50344 -0.66153 0
M  V30 56 H -4.71539 3.78005 1.06571 0
M  V30 57 H -5.49752 1.81316 2.34725 0
M  V30 END ATOM
M  V30 BEGIN BOND
M  V30 1 1 1 2
M  V30 2 2 2 3 CFG=2
M  V30 3 1 2 4
M  V30 4 2 4 5
M  V30 5 1 5 6
M  V30 6 1 6 7
M  V30 7 1 7 8
M  V30 8 2 8 9
M  V30 9 1 9 10
M  V30 10 2 10 11
M  V30 11 1 11 12
M  V30 12 1 11 13
M  V30 13 2 13 14
M  V30 14 1 14 15
M  V30 15 2 15 16
M  V30 16 1 15 17
M  V30 17 1 17 18
M  V30 18 2 18 19
M  V30 19 1 19 20
M  V30 20 2 20 21
M  V30 21 1 21 22
M  V30 22 2 22 23
M  V30 23 1 21 24
M  V30 24 2 24 25
M  V30 25 1 25 26
M  V30 26 2 26 27
M  V30 27 1 27 28
M  V30 28 2 28 29
M  V30 29 1 29 30
M  V30 30 1 30 31
M  V30 31 2 30 32
M  V30 32 2 30 33
M  V30 33 2 6 34
M  V30 34 1 34 35
M  V30 35 2 35 36
M  V30 36 1 36 4
M  V30 37 1 14 8
M  V30 38 1 23 18
M  V30 39 1 29 24
M  V30 40 1 1 37
M  V30 41 1 1 38
M  V30 42 1 3 39
M  V30 43 1 5 40
M  V30 44 1 9 41
M  V30 45 1 10 42
M  V30 46 1 13 43
M  V30 47 1 17 44
M  V30 48 1 19 45
M  V30 49 1 20 46
M  V30 50 1 22 47
M  V30 51 1 23 48
M  V30 52 1 25 49
M  V30 53 1 26 50
M  V30 54 1 27 51
M  V30 55 1 28 52
M  V30 56 1 31 53
M  V30 57 1 31 54
M  V30 58 1 34 55
M  V30 59 1 35 56
M  V30 60 1 36 57
M  V30 END BOND
M  V30 END CTAB
M  END
