
     RDKit          3D

  0  0  0  0  0  0  0  0  0  0999 V3000
M  V30 BEGIN CTAB
M  V30 COUNTS 29 29 0 0 0
M  V30 BEGIN ATOM
M  V30 1 C 4.76506 -0.470415 0.51152 0
M  V30 2 C 4.18761 -0.315589 -0.860555 0
M  V30 3 O 2.77833 -0.412746 -0.880683 0
M  V30 4 C 2.0023 0.470851 -0.15789 0
M  V30 5 O 2.5825 1.35556 0.511913 0
M  V30 6 C 0.537236 0.388916 -0.163874 0
M  V30 7 C -0.194303 1.29319 0.573385 0
M  V30 8 C -1.59056 1.21922 0.570936 0
M  V30 9 N -2.34572 2.14548 1.32635 0
M  V30 10 C -2.17088 0.219028 -0.189312 0
M  V30 11 C -1.43015 -0.683435 -0.925514 0
M  V30 12 C -0.054119 -0.604909 -0.918696 0
M  V30 13 N -2.10309 -1.69441 -1.69045 0
M  V30 14 O -3.55563 0.145437 -0.191928 0
M  V30 15 C -4.30116 -0.613575 0.722629 0
M  V30 16 F -5.06796 0.232945 1.49409 0
M  V30 17 F -5.09625 -1.55163 0.0900952 0
M  V30 18 H 5.4762 0.354729 0.748812 0
M  V30 19 H 3.95075 -0.559376 1.24381 0
M  V30 20 H 5.374 -1.41164 0.605026 0
M  V30 21 H 4.42449 0.709858 -1.26808 0
M  V30 22 H 4.60949 -1.09267 -1.55123 0
M  V30 23 H 0.259933 2.07432 1.16709 0
M  V30 24 H -3.26309 2.5102 1.00021 0
M  V30 25 H -1.99457 2.48963 2.2424 0
M  V30 26 H 0.492534 -1.32767 -1.50647 0
M  V30 27 H -1.67506 -2.63098 -1.75237 0
M  V30 28 H -3.00052 -1.51424 -2.17988 0
M  V30 29 H -3.59735 -1.12964 1.42867 0
M  V30 END ATOM
M  V30 BEGIN BOND
M  V30 1 1 1 2
M  V30 2 1 2 3
M  V30 3 1 3 4
M  V30 4 2 4 5
M  V30 5 1 4 6
M  V30 6 2 6 7
M  V30 7 1 7 8
M  V30 8 1 8 9
M  V30 9 2 8 10
M  V30 10 1 10 11
M  V30 11 2 11 12
M  V30 12 1 11 13
M  V30 13 1 10 14
M  V30 14 1 14 15
M  V30 15 1 15 16
M  V30 16 1 15 17
M  V30 17 1 12 6
M  V30 18 1 1 18
M  V30 19 1 1 19
M  V30 20 1 1 20
M  V30 21 1 2 21
M  V30 22 1 2 22
M  V30 23 1 7 23
M  V30 24 1 9 24
M  V30 25 1 9 25
M  V30 26 1 12 26
M  V30 27 1 13 27
M  V30 28 1 13 28
M  V30 29 1 15 29
M  V30 END BOND
M  V30 END CTAB
M  END
