
     RDKit          3D

  0  0  0  0  0  0  0  0  0  0999 V3000
M  V30 BEGIN CTAB
M  V30 COUNTS 54 57 0 0 0
M  V30 BEGIN ATOM
M  V30 1 C -2.70198 2.05509 3.49289 0
M  V30 2 O -3.6529 1.37797 2.70476 0
M  V30 3 C -3.27765 0.876155 1.47438 0
M  V30 4 C -1.9611 1.04253 1.02 0
M  V30 5 C -1.58361 0.547268 -0.199138 0
M  V30 6 C -2.53048 -0.118031 -0.96582 0
M  V30 7 C -3.83248 -0.304292 -0.559728 0
M  V30 8 O -4.76691 -0.97041 -1.33546 0
M  V30 9 C -4.34251 -1.46964 -2.5901 0
M  V30 10 C -4.17477 0.210169 0.676314 0
M  V30 11 O -5.45815 0.0518305 1.12695 0
M  V30 12 C -6.39917 1.07781 0.792309 0
M  V30 13 N -0.269254 0.71566 -0.669867 0
M  V30 14 C 0.0865646 -0.0422236 -1.88178 0
M  V30 15 C 1.63103 -0.0737661 -1.94227 0
M  V30 16 C 2.12869 -0.353558 -0.606431 0
M  V30 17 C 1.94089 0.802405 0.366128 0
M  V30 18 C 1.85469 0.265845 1.78783 0
M  V30 19 N 2.66539 -0.957947 1.89673 0
M  V30 20 C 3.72873 -1.17701 0.965646 0
M  V30 21 C 3.48821 -0.843516 -0.386202 0
M  V30 22 C 4.46139 -1.00506 -1.30694 0
M  V30 23 N 4.24375 -0.657099 -2.66087 0
M  V30 24 N 5.66701 -1.49725 -0.889197 0
M  V30 25 C 5.87248 -1.80979 0.406209 0
M  V30 26 N 7.14555 -2.31381 0.759522 0
M  V30 27 N 4.91184 -1.65218 1.33247 0
M  V30 28 C 0.727938 1.57263 -0.0574528 0
M  V30 29 H -1.80913 1.43524 3.71335 0
M  V30 30 H -2.29854 2.96718 2.96802 0
M  V30 31 H -3.11787 2.42389 4.44298 0
M  V30 32 H -1.30304 1.57128 1.69809 0
M  V30 33 H -2.22716 -0.507093 -1.92796 0
M  V30 34 H -3.81545 -0.719609 -3.20141 0
M  V30 35 H -5.28119 -1.82988 -3.10084 0
M  V30 36 H -3.71335 -2.39547 -2.45906 0
M  V30 37 H -7.4059 0.85774 1.20643 0
M  V30 38 H -6.51323 1.18473 -0.304832 0
M  V30 39 H -6.04261 2.07558 1.15308 0
M  V30 40 H -0.254501 -1.07765 -1.76294 0
M  V30 41 H -0.292314 0.427524 -2.78932 0
M  V30 42 H 1.80122 -0.904642 -2.6719 0
M  V30 43 H 1.90657 0.915346 -2.36657 0
M  V30 44 H 1.45478 -1.16631 -0.166668 0
M  V30 45 H 2.82844 1.45512 0.250044 0
M  V30 46 H 2.33529 1.00059 2.46596 0
M  V30 47 H 0.827789 0.113214 2.12975 0
M  V30 48 H 2.46814 -1.62656 2.62794 0
M  V30 49 H 4.1016 -1.33238 -3.42135 0
M  V30 50 H 4.22504 0.355786 -2.9122 0
M  V30 51 H 7.20231 -3.08353 1.45914 0
M  V30 52 H 8.02887 -1.92563 0.32937 0
M  V30 53 H 0.989116 2.31545 -0.880978 0
M  V30 54 H 0.30195 2.1203 0.770994 0
M  V30 END ATOM
M  V30 BEGIN BOND
M  V30 1 1 1 2
M  V30 2 1 2 3
M  V30 3 2 3 4
M  V30 4 1 4 5
M  V30 5 2 5 6
M  V30 6 1 6 7
M  V30 7 1 7 8
M  V30 8 1 8 9
M  V30 9 2 7 10
M  V30 10 1 10 11
M  V30 11 1 11 12
M  V30 12 1 5 13
M  V30 13 1 13 14
M  V30 14 1 14 15
M  V30 15 1 15 16
M  V30 16 1 16 17
M  V30 17 1 17 18
M  V30 18 1 18 19
M  V30 19 1 19 20
M  V30 20 2 20 21
M  V30 21 1 21 22
M  V30 22 1 22 23
M  V30 23 2 22 24
M  V30 24 1 24 25
M  V30 25 1 25 26
M  V30 26 2 25 27
M  V30 27 1 17 28
M  V30 28 1 10 3
M  V30 29 1 28 13
M  V30 30 1 21 16
M  V30 31 1 27 20
M  V30 32 1 1 29
M  V30 33 1 1 30
M  V30 34 1 1 31
M  V30 35 1 4 32
M  V30 36 1 6 33
M  V30 37 1 9 34
M  V30 38 1 9 35
M  V30 39 1 9 36
M  V30 40 1 12 37
M  V30 41 1 12 38
M  V30 42 1 12 39
M  V30 43 1 14 40
M  V30 44 1 14 41
M  V30 45 1 15 42
M  V30 46 1 15 43
M  V30 47 1 16 44
M  V30 48 1 17 45
M  V30 49 1 18 46
M  V30 50 1 18 47
M  V30 51 1 19 48
M  V30 52 1 23 49
M  V30 53 1 23 50
M  V30 54 1 26 51
M  V30 55 1 26 52
M  V30 56 1 28 53
M  V30 57 1 28 54
M  V30 END BOND
M  V30 END CTAB
M  END
