
     RDKit          3D

  0  0  0  0  0  0  0  0  0  0999 V3000
M  V30 BEGIN CTAB
M  V30 COUNTS 27 27 0 0 0
M  V30 BEGIN ATOM
M  V30 1 N -2.8918 -1.17803 0.0495775 0
M  V30 2 C -2.22259 -0.439986 1.05586 0
M  V30 3 N -2.71002 -0.37056 2.22929 0
M  V30 4 C -0.935509 0.242741 0.677469 0
M  V30 5 C -1.26727 1.20472 -0.426166 0
M  V30 6 C -0.293407 1.07427 -1.58368 0
M  V30 7 C 1.08607 0.940262 -0.963591 0
M  V30 8 N 1.17486 -0.397771 -0.421526 0
M  V30 9 C 0.020437 -0.830322 0.275844 0
M  V30 10 S 2.57913 -0.408202 0.59718 0
M  V30 11 O 2.31707 0.593014 1.69816 0
M  V30 12 O 2.6189 -1.7869 1.23528 0
M  V30 13 N 4.00763 -0.077625 -0.25886 0
M  V30 14 H -3.46947 -0.719978 -0.713054 0
M  V30 15 H -2.8124 -2.21886 0.059732 0
M  V30 16 H -3.60035 -0.851973 2.46241 0
M  V30 17 H -0.561843 0.740423 1.58349 0
M  V30 18 H -2.30094 1.10747 -0.803417 0
M  V30 19 H -1.14217 2.23388 -0.0237368 0
M  V30 20 H -0.312289 1.96827 -2.21034 0
M  V30 21 H -0.553144 0.143911 -2.1443 0
M  V30 22 H 1.16657 1.63572 -0.0917423 0
M  V30 23 H 1.88862 1.09015 -1.69923 0
M  V30 24 H 0.358399 -1.34065 1.21818 0
M  V30 25 H -0.522776 -1.63627 -0.299499 0
M  V30 26 H 4.59326 -0.957083 -0.271741 0
M  V30 27 H 3.78504 0.239367 -1.23158 0
M  V30 END ATOM
M  V30 BEGIN BOND
M  V30 1 1 1 2
M  V30 2 2 2 3 CFG=2
M  V30 3 1 2 4
M  V30 4 1 4 5
M  V30 5 1 5 6
M  V30 6 1 6 7
M  V30 7 1 7 8
M  V30 8 1 8 9
M  V30 9 1 8 10
M  V30 10 2 10 11
M  V30 11 2 10 12
M  V30 12 1 10 13
M  V30 13 1 9 4
M  V30 14 1 1 14
M  V30 15 1 1 15
M  V30 16 1 3 16
M  V30 17 1 4 17
M  V30 18 1 5 18
M  V30 19 1 5 19
M  V30 20 1 6 20
M  V30 21 1 6 21
M  V30 22 1 7 22
M  V30 23 1 7 23
M  V30 24 1 9 24
M  V30 25 1 9 25
M  V30 26 1 13 26
M  V30 27 1 13 27
M  V30 END BOND
M  V30 END CTAB
M  END
