
     RDKit          3D

  0  0  0  0  0  0  0  0  0  0999 V3000
M  V30 BEGIN CTAB
M  V30 COUNTS 42 43 0 0 0
M  V30 BEGIN ATOM
M  V30 1 N -2.99152 1.36036 1.53517 0
M  V30 2 C -1.714 1.23603 0.855207 0
M  V30 3 C -1.75224 0.210797 -0.257858 0
M  V30 4 C -2.81567 0.69339 -1.22077 0
M  V30 5 C -4.17933 0.208357 -0.984041 0
M  V30 6 C -4.19576 -1.29384 -0.920534 0
M  V30 7 C -3.21301 -1.87553 0.0333136 0
M  V30 8 C -1.9588 -1.1716 0.264265 0
M  V30 9 C -0.466488 0.297212 -1.02845 0
M  V30 10 C 0.730016 -0.0286583 -0.186323 0
M  V30 11 O 0.613929 -0.52176 0.956804 0
M  V30 12 N 2.00889 0.226496 -0.694212 0
M  V30 13 C 3.26499 0.0188891 -0.122619 0
M  V30 14 C 3.44832 -0.508691 1.11928 0
M  V30 15 C 4.74086 -0.696352 1.64731 0
M  V30 16 C 5.85715 -0.351611 0.922693 0
M  V30 17 C 5.69319 0.182059 -0.332063 0
M  V30 18 C 4.43105 0.353895 -0.821091 0
M  V30 19 N 4.26651 0.904452 -2.11528 0
M  V30 20 H -2.78824 1.53585 2.54219 0
M  V30 21 H -3.52892 2.17537 1.16625 0
M  V30 22 H -1.48483 2.25911 0.467948 0
M  V30 23 H -0.942049 0.983664 1.59006 0
M  V30 24 H -2.71803 1.79095 -1.28717 0
M  V30 25 H -2.50796 0.311014 -2.23848 0
M  V30 26 H -4.75184 0.595034 -0.152404 0
M  V30 27 H -4.78415 0.480777 -1.90681 0
M  V30 28 H -5.24025 -1.58547 -0.67453 0
M  V30 29 H -4.02721 -1.65734 -1.96179 0
M  V30 30 H -3.75782 -1.98487 1.02128 0
M  V30 31 H -3.0649 -2.95155 -0.275726 0
M  V30 32 H -1.7147 -1.12474 1.37091 0
M  V30 33 H -1.12933 -1.8324 -0.136343 0
M  V30 34 H -0.431436 -0.456811 -1.86762 0
M  V30 35 H -0.277758 1.31714 -1.42391 0
M  V30 36 H 2.01346 0.648972 -1.68094 0
M  V30 37 H 2.64216 -0.811609 1.76811 0
M  V30 38 H 4.86487 -1.11974 2.64235 0
M  V30 39 H 6.86061 -0.486625 1.30777 0
M  V30 40 H 6.58803 0.453411 -0.901312 0
M  V30 41 H 4.10896 1.9125 -2.21622 0
M  V30 42 H 4.30325 0.303454 -2.95787 0
M  V30 END ATOM
M  V30 BEGIN BOND
M  V30 1 1 1 2
M  V30 2 1 2 3
M  V30 3 1 3 4
M  V30 4 1 4 5
M  V30 5 1 5 6
M  V30 6 1 6 7
M  V30 7 1 7 8
M  V30 8 1 3 9
M  V30 9 1 9 10
M  V30 10 2 10 11
M  V30 11 1 10 12
M  V30 12 1 12 13
M  V30 13 2 13 14
M  V30 14 1 14 15
M  V30 15 2 15 16
M  V30 16 1 16 17
M  V30 17 2 17 18
M  V30 18 1 18 19
M  V30 19 1 8 3
M  V30 20 1 18 13
M  V30 21 1 1 20
M  V30 22 1 1 21
M  V30 23 1 2 22
M  V30 24 1 2 23
M  V30 25 1 4 24
M  V30 26 1 4 25
M  V30 27 1 5 26
M  V30 28 1 5 27
M  V30 29 1 6 28
M  V30 30 1 6 29
M  V30 31 1 7 30
M  V30 32 1 7 31
M  V30 33 1 8 32
M  V30 34 1 8 33
M  V30 35 1 9 34
M  V30 36 1 9 35
M  V30 37 1 12 36
M  V30 38 1 14 37
M  V30 39 1 15 38
M  V30 40 1 16 39
M  V30 41 1 17 40
M  V30 42 1 19 41
M  V30 43 1 19 42
M  V30 END BOND
M  V30 END CTAB
M  END
