
     RDKit          3D

  0  0  0  0  0  0  0  0  0  0999 V3000
M  V30 BEGIN CTAB
M  V30 COUNTS 31 32 0 0 0
M  V30 BEGIN ATOM
M  V30 1 N -4.08147 2.88975 0.14089 0
M  V30 2 C -3.50999 1.58548 0.186051 0
M  V30 3 N -2.27752 1.3187 -0.286815 0
M  V30 4 C -1.72699 0.0991356 -0.251594 0
M  V30 5 N -0.396959 -0.141457 -0.772499 0
M  V30 6 C 0.203176 -1.43297 -0.742594 0
M  V30 7 C 1.58548 -1.41614 -1.33064 0
M  V30 8 C 2.53218 -0.522418 -0.629841 0
M  V30 9 C 2.77881 0.779367 -0.994852 0
M  V30 10 C 3.67608 1.58667 -0.290155 0
M  V30 11 C 4.31779 1.03408 0.797733 0
M  V30 12 C 4.10373 -0.26514 1.20145 0
M  V30 13 C 3.21821 -1.01126 0.480169 0
M  V30 14 N -2.44766 -0.902038 0.284077 0
M  V30 15 C -3.69032 -0.69803 0.775409 0
M  V30 16 N -4.4565 -1.75716 1.34372 0
M  V30 17 N -4.19768 0.555853 0.713841 0
M  V30 18 H -3.64064 3.66048 0.716392 0
M  V30 19 H -4.91127 3.13606 -0.425999 0
M  V30 20 H 0.106782 0.676794 -1.17519 0
M  V30 21 H -0.420032 -2.21731 -1.24312 0
M  V30 22 H 0.321957 -1.71285 0.347289 0
M  V30 23 H 1.55255 -1.18707 -2.42937 0
M  V30 24 H 2.02626 -2.45309 -1.24434 0
M  V30 25 H 2.28594 1.21578 -1.85205 0
M  V30 26 H 3.85933 2.60348 -0.586455 0
M  V30 27 H 5.03185 1.63182 1.38165 0
M  V30 28 H 4.61348 -0.694192 2.06023 0
M  V30 29 H 3.04336 -2.0324 0.789226 0
M  V30 30 H -5.37164 -2.0768 0.928333 0
M  V30 31 H -4.12829 -2.25313 2.19942 0
M  V30 END ATOM
M  V30 BEGIN BOND
M  V30 1 1 1 2
M  V30 2 2 2 3
M  V30 3 1 3 4
M  V30 4 1 4 5
M  V30 5 1 5 6
M  V30 6 1 6 7
M  V30 7 1 7 8
M  V30 8 2 8 9
M  V30 9 1 9 10
M  V30 10 2 10 11
M  V30 11 1 11 12
M  V30 12 2 12 13
M  V30 13 2 4 14
M  V30 14 1 14 15
M  V30 15 1 15 16
M  V30 16 2 15 17
M  V30 17 1 17 2
M  V30 18 1 13 8
M  V30 19 1 1 18
M  V30 20 1 1 19
M  V30 21 1 5 20
M  V30 22 1 6 21
M  V30 23 1 6 22
M  V30 24 1 7 23
M  V30 25 1 7 24
M  V30 26 1 9 25
M  V30 27 1 10 26
M  V30 28 1 11 27
M  V30 29 1 12 28
M  V30 30 1 13 29
M  V30 31 1 16 30
M  V30 32 1 16 31
M  V30 END BOND
M  V30 END CTAB
M  END
