
     RDKit          3D

  0  0  0  0  0  0  0  0  0  0999 V3000
M  V30 BEGIN CTAB
M  V30 COUNTS 24 24 0 0 0
M  V30 BEGIN ATOM
M  V30 1 C -2.79526 0.551326 0.234089 0
M  V30 2 C -2.61237 -0.90332 -0.049669 0
M  V30 3 C -1.40638 -1.4965 0.58814 0
M  V30 4 N -0.151013 -0.906332 0.194334 0
M  V30 5 C 0.525718 -1.33289 -0.894871 0
M  V30 6 N 1.68989 -0.768613 -1.26067 0
M  V30 7 C 2.24934 0.247398 -0.571197 0
M  V30 8 C 1.58258 0.705208 0.545968 0
M  V30 9 C 0.38816 0.0990393 0.890007 0
M  V30 10 O -0.166414 0.570895 1.92834 0
M  V30 11 N 2.13677 1.77274 1.29993 0
M  V30 12 N 3.47467 0.830976 -0.968637 0
M  V30 13 H -2.96099 0.792674 1.30206 0
M  V30 14 H -3.71596 0.86538 -0.342928 0
M  V30 15 H -1.98196 1.11932 -0.229293 0
M  V30 16 H -2.61864 -1.0322 -1.15725 0
M  V30 17 H -3.49872 -1.43322 0.37409 0
M  V30 18 H -1.34965 -2.59673 0.475359 0
M  V30 19 H -1.4919 -1.32802 1.6917 0
M  V30 20 H 0.155647 -2.14154 -1.5096 0
M  V30 21 H 2.71265 1.51974 2.12907 0
M  V30 22 H 2.01442 2.78483 1.09162 0
M  V30 23 H 4.32871 0.256657 -0.975285 0
M  V30 24 H 3.49071 1.82317 -1.24517 0
M  V30 END ATOM
M  V30 BEGIN BOND
M  V30 1 1 1 2
M  V30 2 1 2 3
M  V30 3 1 3 4
M  V30 4 1 4 5
M  V30 5 2 5 6
M  V30 6 1 6 7
M  V30 7 2 7 8
M  V30 8 1 8 9
M  V30 9 2 9 10
M  V30 10 1 8 11
M  V30 11 1 7 12
M  V30 12 1 9 4
M  V30 13 1 1 13
M  V30 14 1 1 14
M  V30 15 1 1 15
M  V30 16 1 2 16
M  V30 17 1 2 17
M  V30 18 1 3 18
M  V30 19 1 3 19
M  V30 20 1 5 20
M  V30 21 1 11 21
M  V30 22 1 11 22
M  V30 23 1 12 23
M  V30 24 1 12 24
M  V30 END BOND
M  V30 END CTAB
M  END
