
     RDKit          3D

  0  0  0  0  0  0  0  0  0  0999 V3000
M  V30 BEGIN CTAB
M  V30 COUNTS 21 21 0 0 0
M  V30 BEGIN ATOM
M  V30 1 C -2.95822 -1.07761 -0.234994 0
M  V30 2 C -2.1438 0.101234 0.120367 0
M  V30 3 O -2.7249 1.14817 0.488597 0
M  V30 4 C -0.69319 0.00988369 0.0317637 0
M  V30 5 C -0.0555194 -1.14421 -0.373053 0
M  V30 6 C 1.31942 -1.1929 -0.444299 0
M  V30 7 Cl 2.15027 -2.65689 -0.958726 0
M  V30 8 C 2.11855 -0.111552 -0.12111 0
M  V30 9 C 1.47732 1.04131 0.283452 0
M  V30 10 C 0.0921811 1.10685 0.360645 0
M  V30 11 N -0.585159 2.28203 0.773974 0
M  V30 12 N 3.53807 -0.191605 -0.204468 0
M  V30 13 H -2.94619 -1.83229 0.599901 0
M  V30 14 H -3.97317 -0.752013 -0.478813 0
M  V30 15 H -2.55202 -1.62372 -1.12003 0
M  V30 16 H -0.614135 -2.03019 -0.641529 0
M  V30 17 H 2.03753 1.92178 0.550241 0
M  V30 18 H -0.986774 2.41581 1.72285 0
M  V30 19 H -0.68553 3.0542 0.0876146 0
M  V30 20 H 4.0835 -0.746017 0.500549 0
M  V30 21 H 4.10178 0.277738 -0.942932 0
M  V30 END ATOM
M  V30 BEGIN BOND
M  V30 1 1 1 2
M  V30 2 2 2 3
M  V30 3 1 2 4
M  V30 4 2 4 5
M  V30 5 1 5 6
M  V30 6 1 6 7
M  V30 7 2 6 8
M  V30 8 1 8 9
M  V30 9 2 9 10
M  V30 10 1 10 11
M  V30 11 1 8 12
M  V30 12 1 10 4
M  V30 13 1 1 13
M  V30 14 1 1 14
M  V30 15 1 1 15
M  V30 16 1 5 16
M  V30 17 1 9 17
M  V30 18 1 11 18
M  V30 19 1 11 19
M  V30 20 1 12 20
M  V30 21 1 12 21
M  V30 END BOND
M  V30 END CTAB
M  END
