
     RDKit          3D

  0  0  0  0  0  0  0  0  0  0999 V3000
M  V30 BEGIN CTAB
M  V30 COUNTS 34 36 0 0 0
M  V30 BEGIN ATOM
M  V30 1 N -0.133866 -3.17248 -2.73768 0
M  V30 2 C -0.0935844 -2.09546 -1.78377 0
M  V30 3 N 1.07804 -1.61766 -1.35237 0
M  V30 4 C 1.19085 -0.597588 -0.448555 0
M  V30 5 C 2.4862 -0.108242 -0.0358986 0
M  V30 6 C 2.79614 0.0609749 1.28709 0
M  V30 7 C 4.0424 0.547166 1.70338 0
M  V30 8 C 4.99019 0.866211 0.754236 0
M  V30 9 C 4.71453 0.708411 -0.592441 0
M  V30 10 C 3.47616 0.227719 -0.952468 0
M  V30 11 C -0.00525787 -0.0588317 0.019264 0
M  V30 12 C -1.22774 -0.542336 -0.416876 0
M  V30 13 N -1.23208 -1.56193 -1.31945 0
M  V30 14 C -2.46397 0.043778 0.0640965 0
M  V30 15 C -3.4519 0.421227 -0.854904 0
M  V30 16 C -4.64377 0.9659 -0.432755 0
M  V30 17 C -4.93387 1.16987 0.894043 0
M  V30 18 C -3.96593 0.800321 1.80386 0
M  V30 19 C -2.7538 0.246945 1.38829 0
M  V30 20 N 0.0238718 1.02364 0.933188 0
M  V30 21 H 0.0437588 -4.15078 -2.41365 0
M  V30 22 H -0.341788 -2.94202 -3.73699 0
M  V30 23 H 2.1016 -0.181598 2.07615 0
M  V30 24 H 4.24588 0.666103 2.75879 0
M  V30 25 H 5.95827 1.24287 1.05206 0
M  V30 26 H 5.48232 0.969029 -1.30181 0
M  V30 27 H 3.24175 0.0977636 -1.99193 0
M  V30 28 H -3.24296 0.269167 -1.89874 0
M  V30 29 H -5.38617 1.24672 -1.17181 0
M  V30 30 H -5.87527 1.59931 1.21086 0
M  V30 31 H -4.14631 0.940212 2.85308 0
M  V30 32 H -2.04008 -0.0322623 2.14989 0
M  V30 33 H -0.00129444 2.00606 0.542899 0
M  V30 34 H 0.0676555 0.941782 1.95092 0
M  V30 END ATOM
M  V30 BEGIN BOND
M  V30 1 1 1 2
M  V30 2 2 2 3
M  V30 3 1 3 4
M  V30 4 1 4 5
M  V30 5 2 5 6
M  V30 6 1 6 7
M  V30 7 2 7 8
M  V30 8 1 8 9
M  V30 9 2 9 10
M  V30 10 2 4 11
M  V30 11 1 11 12
M  V30 12 2 12 13
M  V30 13 1 12 14
M  V30 14 2 14 15
M  V30 15 1 15 16
M  V30 16 2 16 17
M  V30 17 1 17 18
M  V30 18 2 18 19
M  V30 19 1 11 20
M  V30 20 1 13 2
M  V30 21 1 19 14
M  V30 22 1 10 5
M  V30 23 1 1 21
M  V30 24 1 1 22
M  V30 25 1 6 23
M  V30 26 1 7 24
M  V30 27 1 8 25
M  V30 28 1 9 26
M  V30 29 1 10 27
M  V30 30 1 15 28
M  V30 31 1 16 29
M  V30 32 1 17 30
M  V30 33 1 18 31
M  V30 34 1 19 32
M  V30 35 1 20 33
M  V30 36 1 20 34
M  V30 END BOND
M  V30 END CTAB
M  END
