
     RDKit          3D

  0  0  0  0  0  0  0  0  0  0999 V3000
M  V30 BEGIN CTAB
M  V30 COUNTS 32 33 0 0 0
M  V30 BEGIN ATOM
M  V30 1 N 6.5267 -0.51259 -0.304297 0
M  V30 2 C 5.11802 -0.432205 -0.122236 0
M  V30 3 C 4.43101 0.747318 -0.323912 0
M  V30 4 C 3.04622 0.821165 -0.14361 0
M  V30 5 C 2.3267 -0.284733 0.241554 0
M  V30 6 C 3.03893 -1.47032 0.44115 0
M  V30 7 C 4.40288 -1.54505 0.264067 0
M  V30 8 C 0.891043 -0.286626 0.448489 0
M  V30 9 O 0.298676 -1.33671 0.801152 0
M  V30 10 N 0.109404 0.87268 0.265593 0
M  V30 11 N -1.27283 0.904255 0.456332 0
M  V30 12 C -2.07649 0.309501 -0.352673 0
M  V30 13 C -3.52504 0.326431 -0.177037 0
M  V30 14 C -4.12156 0.983427 0.870538 0
M  V30 15 C -5.48197 1.00979 1.05117 0
M  V30 16 C -6.28821 0.341104 0.131513 0
M  V30 17 C -5.64555 -0.30425 -0.903383 0
M  V30 18 N -4.31082 -0.316723 -1.06051 0
M  V30 19 N -1.49974 -0.379683 -1.44652 0
M  V30 20 H 6.94621 -0.0668524 -1.16087 0
M  V30 21 H 7.17611 -0.97924 0.345649 0
M  V30 22 H 5.01165 1.60824 -0.6267 0
M  V30 23 H 2.55875 1.7726 -0.315879 0
M  V30 24 H 2.50228 -2.36916 0.747269 0
M  V30 25 H 4.88473 -2.50414 0.439099 0
M  V30 26 H 0.570363 1.75425 -0.0252546 0
M  V30 27 H -3.49775 1.49731 1.57685 0
M  V30 28 H -5.96503 1.52545 1.87492 0
M  V30 29 H -7.35327 0.350477 0.256009 0
M  V30 30 H -6.30834 -0.822406 -1.61206 0
M  V30 31 H -0.757338 0.119085 -2.02021 0
M  V30 32 H -1.73574 -1.3324 -1.74223 0
M  V30 END ATOM
M  V30 BEGIN BOND
M  V30 1 1 1 2
M  V30 2 2 2 3
M  V30 3 1 3 4
M  V30 4 2 4 5
M  V30 5 1 5 6
M  V30 6 2 6 7
M  V30 7 1 5 8
M  V30 8 2 8 9
M  V30 9 1 8 10
M  V30 10 1 10 11
M  V30 11 2 11 12
M  V30 12 1 12 13
M  V30 13 2 13 14
M  V30 14 1 14 15
M  V30 15 2 15 16
M  V30 16 1 16 17
M  V30 17 2 17 18
M  V30 18 1 12 19
M  V30 19 1 7 2
M  V30 20 1 18 13
M  V30 21 1 1 20
M  V30 22 1 1 21
M  V30 23 1 3 22
M  V30 24 1 4 23
M  V30 25 1 6 24
M  V30 26 1 7 25
M  V30 27 1 10 26
M  V30 28 1 14 27
M  V30 29 1 15 28
M  V30 30 1 16 29
M  V30 31 1 17 30
M  V30 32 1 19 31
M  V30 33 1 19 32
M  V30 END BOND
M  V30 END CTAB
M  END
