
     RDKit          3D

  0  0  0  0  0  0  0  0  0  0999 V3000
M  V30 BEGIN CTAB
M  V30 COUNTS 22 22 0 0 0
M  V30 BEGIN ATOM
M  V30 1 O -4.02944 -0.173892 0.379948 0
M  V30 2 C -3.01491 -0.235466 -0.573291 0
M  V30 3 O -3.20126 -1.02058 -1.52875 0
M  V30 4 C -1.83732 0.566629 -0.448053 0
M  V30 5 C -0.53975 -0.0141147 -0.151078 0
M  V30 6 C 0.521566 0.921559 -0.196921 0
M  V30 7 N 0.247872 2.28259 -0.488041 0
M  V30 8 C 1.81928 0.562464 0.0488879 0
M  V30 9 C 2.17376 -0.734523 0.356664 0
M  V30 10 C 1.142 -1.63573 0.40054 0
M  V30 11 C -0.193527 -1.28568 0.153272 0
M  V30 12 Cl -1.4384 -2.50508 0.287345 0
M  V30 13 N 3.53215 -1.09999 0.606388 0
M  V30 14 H -3.85373 0.00103325 1.36286 0
M  V30 15 H -1.65439 1.18777 -1.41701 0
M  V30 16 H -1.95945 1.43188 0.290214 0
M  V30 17 H -0.318179 2.79097 0.220239 0
M  V30 18 H 0.556099 2.79085 -1.3253 0
M  V30 19 H 2.63166 1.30055 0.00411013 0
M  V30 20 H 1.36994 -2.67977 0.636023 0
M  V30 21 H 3.76031 -1.97106 1.09573 0
M  V30 22 H 4.28571 -0.480408 0.286219 0
M  V30 END ATOM
M  V30 BEGIN BOND
M  V30 1 1 1 2
M  V30 2 2 2 3
M  V30 3 1 2 4
M  V30 4 1 4 5
M  V30 5 2 5 6
M  V30 6 1 6 7
M  V30 7 1 6 8
M  V30 8 2 8 9
M  V30 9 1 9 10
M  V30 10 2 10 11
M  V30 11 1 11 12
M  V30 12 1 9 13
M  V30 13 1 11 5
M  V30 14 1 1 14
M  V30 15 1 4 15
M  V30 16 1 4 16
M  V30 17 1 7 17
M  V30 18 1 7 18
M  V30 19 1 8 19
M  V30 20 1 10 20
M  V30 21 1 13 21
M  V30 22 1 13 22
M  V30 END BOND
M  V30 END CTAB
M  END
