
     RDKit          3D

  0  0  0  0  0  0  0  0  0  0999 V3000
M  V30 BEGIN CTAB
M  V30 COUNTS 26 26 0 0 0
M  V30 BEGIN ATOM
M  V30 1 N -4.28422 0.098247 -0.0924237 0
M  V30 2 C -2.95799 0.0742111 -0.639111 0
M  V30 3 C -1.97434 -0.0693934 0.486015 0
M  V30 4 C -0.574993 -0.106996 0.0582597 0
M  V30 5 C 0.124561 1.05419 -0.272736 0
M  V30 6 C 1.44359 0.996878 -0.673765 0
M  V30 7 C 2.10271 -0.205967 -0.757575 0
M  V30 8 C 1.43915 -1.37193 -0.4372 0
M  V30 9 C 0.108461 -1.29925 -0.0341055 0
M  V30 10 S 3.80292 -0.285339 -1.27395 0
M  V30 11 C 4.94322 -0.155659 0.138994 0
M  V30 12 N -2.20157 0.969834 1.44242 0
M  V30 13 H -4.33306 0.109256 0.934155 0
M  V30 14 H -4.94516 -0.549847 -0.52545 0
M  V30 15 H -2.75809 0.96523 -1.27018 0
M  V30 16 H -2.89705 -0.806909 -1.32664 0
M  V30 17 H -2.21136 -1.04268 0.994357 0
M  V30 18 H -0.372421 2.00699 -0.214089 0
M  V30 19 H 1.99151 1.88695 -0.931088 0
M  V30 20 H 1.91184 -2.33991 -0.486848 0
M  V30 21 H -0.377979 -2.23032 0.208338 0
M  V30 22 H 5.90406 -0.599557 -0.194071 0
M  V30 23 H 4.57978 -0.739659 1.00883 0
M  V30 24 H 5.0678 0.921764 0.376384 0
M  V30 25 H -1.52484 0.839966 2.22474 0
M  V30 26 H -2.00653 1.8799 1.00053 0
M  V30 END ATOM
M  V30 BEGIN BOND
M  V30 1 1 1 2
M  V30 2 1 2 3
M  V30 3 1 3 4
M  V30 4 2 4 5
M  V30 5 1 5 6
M  V30 6 2 6 7
M  V30 7 1 7 8
M  V30 8 2 8 9
M  V30 9 1 7 10
M  V30 10 1 10 11
M  V30 11 1 3 12
M  V30 12 1 9 4
M  V30 13 1 1 13
M  V30 14 1 1 14
M  V30 15 1 2 15
M  V30 16 1 2 16
M  V30 17 1 3 17
M  V30 18 1 5 18
M  V30 19 1 6 19
M  V30 20 1 8 20
M  V30 21 1 9 21
M  V30 22 1 11 22
M  V30 23 1 11 23
M  V30 24 1 11 24
M  V30 25 1 12 25
M  V30 26 1 12 26
M  V30 END BOND
M  V30 END CTAB
M  END
