
     RDKit          3D

  0  0  0  0  0  0  0  0  0  0999 V3000
M  V30 BEGIN CTAB
M  V30 COUNTS 41 42 0 0 0
M  V30 BEGIN ATOM
M  V30 1 C -4.78695 2.07166 -1.06026 0
M  V30 2 C -3.65761 1.58536 -0.233838 0
M  V30 3 C -2.94017 2.47879 0.562823 0
M  V30 4 C -1.88175 2.07238 1.34851 0
M  V30 5 C -1.52631 0.728791 1.33964 0
M  V30 6 C -2.25257 -0.159058 0.536937 0
M  V30 7 C -3.29755 0.258166 -0.23516 0
M  V30 8 S -4.16737 -0.925756 -1.2238 0
M  V30 9 O -5.59038 -0.917889 -0.736231 0
M  V30 10 O -4.10323 -0.560282 -2.67618 0
M  V30 11 N -3.48884 -2.49517 -1.01579 0
M  V30 12 S -0.194008 0.137614 2.31061 0
M  V30 13 O -0.145383 1.00088 3.54968 0
M  V30 14 O -0.510548 -1.278 2.72522 0
M  V30 15 C 1.31688 0.193056 1.45065 0
M  V30 16 C 2.08306 1.34136 1.54375 0
M  V30 17 C 3.27935 1.40289 0.871177 0
M  V30 18 C 3.70492 0.341403 0.12009 0
M  V30 19 C 2.94667 -0.792766 0.0289895 0
M  V30 20 C 1.75039 -0.852492 0.702426 0
M  V30 21 S 3.47987 -2.16226 -0.931715 0
M  V30 22 O 3.5253 -1.80106 -2.36788 0
M  V30 23 O 2.48223 -3.28255 -0.77175 0
M  V30 24 N 4.98156 -2.69225 -0.297555 0
M  V30 25 C 4.99808 0.437567 -0.591043 0
M  V30 26 H -5.76619 1.83997 -0.5783 0
M  V30 27 H -4.74955 3.20041 -1.08624 0
M  V30 28 H -4.73472 1.75449 -2.11056 0
M  V30 29 H -3.23062 3.51778 0.556757 0
M  V30 30 H -1.32544 2.77357 1.96813 0
M  V30 31 H -1.93813 -1.20075 0.562292 0
M  V30 32 H -3.84503 -2.86458 -0.100099 0
M  V30 33 H -3.86391 -3.10509 -1.76215 0
M  V30 34 H 1.75115 2.18353 2.13629 0
M  V30 35 H 3.88235 2.30251 0.942535 0
M  V30 36 H 1.13669 -1.76605 0.630787 0
M  V30 37 H 4.97714 -3.71057 -0.135053 0
M  V30 38 H 5.78809 -2.46112 -0.919857 0
M  V30 39 H 4.83848 0.149225 -1.64916 0
M  V30 40 H 5.72659 -0.216477 -0.0736485 0
M  V30 41 H 5.34746 1.47277 -0.552895 0
M  V30 END ATOM
M  V30 BEGIN BOND
M  V30 1 1 1 2
M  V30 2 2 2 3
M  V30 3 1 3 4
M  V30 4 2 4 5
M  V30 5 1 5 6
M  V30 6 2 6 7
M  V30 7 1 7 8
M  V30 8 2 8 9
M  V30 9 2 8 10
M  V30 10 1 8 11
M  V30 11 1 5 12
M  V30 12 2 12 13
M  V30 13 2 12 14
M  V30 14 1 12 15
M  V30 15 2 15 16
M  V30 16 1 16 17
M  V30 17 2 17 18
M  V30 18 1 18 19
M  V30 19 2 19 20
M  V30 20 1 19 21
M  V30 21 2 21 22
M  V30 22 2 21 23
M  V30 23 1 21 24
M  V30 24 1 18 25
M  V30 25 1 7 2
M  V30 26 1 20 15
M  V30 27 1 1 26
M  V30 28 1 1 27
M  V30 29 1 1 28
M  V30 30 1 3 29
M  V30 31 1 4 30
M  V30 32 1 6 31
M  V30 33 1 11 32
M  V30 34 1 11 33
M  V30 35 1 16 34
M  V30 36 1 17 35
M  V30 37 1 20 36
M  V30 38 1 24 37
M  V30 39 1 24 38
M  V30 40 1 25 39
M  V30 41 1 25 40
M  V30 42 1 25 41
M  V30 END BOND
M  V30 END CTAB
M  END
