
     RDKit          3D

  0  0  0  0  0  0  0  0  0  0999 V3000
M  V30 BEGIN CTAB
M  V30 COUNTS 31 32 0 0 0
M  V30 BEGIN ATOM
M  V30 1 N -1.21545 1.74462 -0.403298 0
M  V30 2 C -1.2042 0.958591 0.780883 0 CFG=1
M  V30 3 C -2.60208 0.719537 1.31986 0
M  V30 4 C -3.39568 0.121849 0.159693 0
M  V30 5 C -2.81927 -1.26765 -0.0682532 0
M  V30 6 C -1.37374 -1.18428 -0.498137 0
M  V30 7 C -0.60466 -0.420059 0.548195 0 CFG=1
M  V30 8 C 0.819774 -0.262738 0.155047 0
M  V30 9 N 1.90997 -0.687214 0.810709 0
M  V30 10 N 3.00777 -0.349626 0.127812 0
M  V30 11 C 2.61545 0.301027 -0.982291 0
M  V30 12 N 1.26743 0.348735 -0.955279 0
M  V30 13 N 3.50826 0.812978 -1.95452 0
M  V30 14 C 4.36819 -0.64552 0.535568 0
M  V30 15 H -1.26924 1.24427 -1.28008 0
M  V30 16 H -1.79964 2.5778 -0.297631 0
M  V30 17 H -0.593249 1.45657 1.55393 0
M  V30 18 H -2.48869 -0.0721818 2.10943 0
M  V30 19 H -3.0734 1.62706 1.71407 0
M  V30 20 H -4.46346 0.0355559 0.390331 0
M  V30 21 H -3.25285 0.752621 -0.738725 0
M  V30 22 H -3.44949 -1.84402 -0.751234 0
M  V30 23 H -2.82187 -1.75804 0.94111 0
M  V30 24 H -0.976292 -2.23498 -0.473181 0
M  V30 25 H -1.24205 -0.809445 -1.51344 0
M  V30 26 H -0.698442 -0.962168 1.5068 0
M  V30 27 H 4.31522 1.38492 -1.6475 0
M  V30 28 H 3.37489 0.630561 -2.95975 0
M  V30 29 H 4.89086 -1.10336 -0.340012 0
M  V30 30 H 4.89858 0.282759 0.861058 0
M  V30 31 H 4.36735 -1.39818 1.34885 0
M  V30 END ATOM
M  V30 BEGIN BOND
M  V30 1 1 1 2
M  V30 2 1 2 3
M  V30 3 1 3 4
M  V30 4 1 4 5
M  V30 5 1 5 6
M  V30 6 1 6 7
M  V30 7 1 7 8
M  V30 8 2 8 9
M  V30 9 1 9 10
M  V30 10 1 10 11
M  V30 11 2 11 12
M  V30 12 1 11 13
M  V30 13 1 10 14
M  V30 14 1 7 2
M  V30 15 1 12 8
M  V30 16 1 1 15
M  V30 17 1 1 16
M  V30 18 1 2 17 CFG=1
M  V30 19 1 3 18
M  V30 20 1 3 19
M  V30 21 1 4 20
M  V30 22 1 4 21
M  V30 23 1 5 22
M  V30 24 1 5 23
M  V30 25 1 6 24
M  V30 26 1 6 25
M  V30 27 1 7 26 CFG=1
M  V30 28 1 13 27
M  V30 29 1 13 28
M  V30 30 1 14 29
M  V30 31 1 14 30
M  V30 32 1 14 31
M  V30 END BOND
M  V30 END CTAB
M  END
