
     RDKit          3D

  0  0  0  0  0  0  0  0  0  0999 V3000
M  V30 BEGIN CTAB
M  V30 COUNTS 56 58 0 0 0
M  V30 BEGIN ATOM
M  V30 1 C -3.89951 -1.71909 3.45306 0
M  V30 2 S -3.37843 -0.474485 2.22828 0
M  V30 3 O -2.76839 0.578054 3.08534 0
M  V30 4 O -2.3935 -1.28805 1.43367 0
M  V30 5 C -4.77417 -0.0135356 1.34774 0
M  V30 6 C -4.74582 1.02484 0.443403 0
M  V30 7 C -5.95273 1.27793 -0.221095 0
M  V30 8 C -7.11866 0.563783 -0.0185998 0
M  V30 9 C -7.13453 -0.464113 0.881629 0
M  V30 10 Cl -8.60096 -1.38411 1.15822 0
M  V30 11 C -5.975 -0.738898 1.54819 0
M  V30 12 C -3.56568 1.82499 0.21883 0
M  V30 13 O -2.41842 1.18902 -0.309811 0
M  V30 14 C -1.1027 1.52682 0.0432426 0
M  V30 15 C -0.040728 0.844047 -0.56399 0
M  V30 16 C 1.27421 1.10223 -0.28198 0
M  V30 17 N 1.51594 2.07825 0.640351 0
M  V30 18 C 0.510566 2.74145 1.23075 0
M  V30 19 N 0.723323 3.7622 2.19346 0
M  V30 20 N -0.76864 2.4656 0.932975 0
M  V30 21 C 2.37821 0.387864 -0.913542 0
M  V30 22 C 2.21506 -0.593278 -1.85706 0
M  V30 23 C 3.32663 -1.2367 -2.41592 0
M  V30 24 C 4.62041 -0.927401 -2.0578 0
M  V30 25 C 5.75351 -1.63973 -2.68553 0
M  V30 26 C 6.17513 -2.88149 -1.98428 0 CFG=2
M  V30 27 N 5.11871 -3.87192 -1.8985 0
M  V30 28 C 6.79311 -2.62413 -0.663624 0
M  V30 29 O 7.83589 -1.72018 -0.534566 0
M  V30 30 O 6.33675 -3.25806 0.343154 0
M  V30 31 C 4.78279 0.0614213 -1.10723 0
M  V30 32 C 3.69257 0.696837 -0.55478 0
M  V30 33 C -3.82534 3.07307 -0.671437 0
M  V30 34 F -4.24622 2.74174 -1.93111 0
M  V30 35 F -4.77004 3.90249 -0.104673 0
M  V30 36 F -2.68368 3.84876 -0.778971 0
M  V30 37 H -2.98553 -2.00957 3.97214 0
M  V30 38 H -4.26963 -2.55756 2.86637 0
M  V30 39 H -4.6865 -1.33071 4.08801 0
M  V30 40 H -6.04887 2.07269 -0.941012 0
M  V30 41 H -8.03346 0.798725 -0.560298 0
M  V30 42 H -5.97642 -1.55662 2.26772 0
M  V30 43 H -3.22648 2.29185 1.16502 0
M  V30 44 H -0.31844 0.0889845 -1.27938 0
M  V30 45 H 1.5649 4.35981 2.09668 0
M  V30 46 H 0.0795128 3.93828 2.98589 0
M  V30 47 H 1.21473 -0.870614 -2.16958 0
M  V30 48 H 3.15378 -2.009 -3.1607 0
M  V30 49 H 5.46843 -1.87255 -3.72484 0
M  V30 50 H 6.65731 -0.981214 -2.76092 0
M  V30 51 H 6.98807 -3.34014 -2.61549 0
M  V30 52 H 5.53015 -4.83269 -1.69595 0
M  V30 53 H 4.62728 -3.98191 -2.80858 0
M  V30 54 H 7.74448 -0.843621 -0.0221374 0
M  V30 55 H 5.79534 0.308371 -0.822395 0
M  V30 56 H 3.83165 1.47124 0.190831 0
M  V30 END ATOM
M  V30 BEGIN BOND
M  V30 1 1 1 2
M  V30 2 2 2 3
M  V30 3 2 2 4
M  V30 4 1 2 5
M  V30 5 2 5 6
M  V30 6 1 6 7
M  V30 7 2 7 8
M  V30 8 1 8 9
M  V30 9 1 9 10
M  V30 10 2 9 11
M  V30 11 1 6 12
M  V30 12 1 12 13
M  V30 13 1 13 14
M  V30 14 2 14 15
M  V30 15 1 15 16
M  V30 16 2 16 17
M  V30 17 1 17 18
M  V30 18 1 18 19
M  V30 19 2 18 20
M  V30 20 1 16 21
M  V30 21 2 21 22
M  V30 22 1 22 23
M  V30 23 2 23 24
M  V30 24 1 24 25
M  V30 25 1 25 26
M  V30 26 1 26 27
M  V30 27 1 26 28
M  V30 28 1 28 29
M  V30 29 2 28 30
M  V30 30 1 24 31
M  V30 31 2 31 32
M  V30 32 1 12 33
M  V30 33 1 33 34
M  V30 34 1 33 35
M  V30 35 1 33 36
M  V30 36 1 11 5
M  V30 37 1 20 14
M  V30 38 1 32 21
M  V30 39 1 1 37
M  V30 40 1 1 38
M  V30 41 1 1 39
M  V30 42 1 7 40
M  V30 43 1 8 41
M  V30 44 1 11 42
M  V30 45 1 12 43
M  V30 46 1 15 44
M  V30 47 1 19 45
M  V30 48 1 19 46
M  V30 49 1 22 47
M  V30 50 1 23 48
M  V30 51 1 25 49
M  V30 52 1 25 50
M  V30 53 1 26 51 CFG=3
M  V30 54 1 27 52
M  V30 55 1 27 53
M  V30 56 1 29 54
M  V30 57 1 31 55
M  V30 58 1 32 56
M  V30 END BOND
M  V30 END CTAB
M  END
