
     RDKit          3D

  0  0  0  0  0  0  0  0  0  0999 V3000
M  V30 BEGIN CTAB
M  V30 COUNTS 26 26 0 0 0
M  V30 BEGIN ATOM
M  V30 1 C -2.99453 0.920228 0.77821 0
M  V30 2 C -2.90581 0.168147 -0.490221 0
M  V30 3 C -1.57295 -0.0404105 -1.11094 0
M  V30 4 S -0.371782 -0.932829 -0.148445 0
M  V30 5 C 1.21749 -0.176501 -0.00766581 0
M  V30 6 C 1.56628 1.03947 -0.564236 0
M  V30 7 C 2.86289 1.53472 -0.466528 0
M  V30 8 Br 3.29507 3.23156 -1.24037 0
M  V30 9 C 3.83886 0.84009 0.180261 0
M  V30 10 C 3.51194 -0.361502 0.738039 0
M  V30 11 C 2.22505 -0.870861 0.652264 0
M  V30 12 N 1.91266 -2.11152 1.27685 0
M  V30 13 N -3.57899 -1.15823 -0.375487 0
M  V30 14 H -3.63192 0.319351 1.48798 0
M  V30 15 H -3.60397 1.86535 0.652417 0
M  V30 16 H -2.06843 1.24687 1.24302 0
M  V30 17 H -3.54563 0.689346 -1.25984 0
M  V30 18 H -1.72965 -0.58898 -2.0691 0
M  V30 19 H -1.21595 0.972722 -1.43808 0
M  V30 20 H 0.787419 1.57846 -1.06763 0
M  V30 21 H 4.84039 1.19324 0.272738 0
M  V30 22 H 4.29649 -0.931161 1.25147 0
M  V30 23 H 2.3646 -2.41347 2.14994 0
M  V30 24 H 1.20862 -2.71965 0.82386 0
M  V30 25 H -3.82857 -1.45811 -1.35513 0
M  V30 26 H -2.87958 -1.83635 0.0154227 0
M  V30 END ATOM
M  V30 BEGIN BOND
M  V30 1 1 1 2
M  V30 2 1 2 3
M  V30 3 1 3 4
M  V30 4 1 4 5
M  V30 5 2 5 6
M  V30 6 1 6 7
M  V30 7 1 7 8
M  V30 8 2 7 9
M  V30 9 1 9 10
M  V30 10 2 10 11
M  V30 11 1 11 12
M  V30 12 1 2 13
M  V30 13 1 11 5
M  V30 14 1 1 14
M  V30 15 1 1 15
M  V30 16 1 1 16
M  V30 17 1 2 17
M  V30 18 1 3 18
M  V30 19 1 3 19
M  V30 20 1 6 20
M  V30 21 1 9 21
M  V30 22 1 10 22
M  V30 23 1 12 23
M  V30 24 1 12 24
M  V30 25 1 13 25
M  V30 26 1 13 26
M  V30 END BOND
M  V30 END CTAB
M  END
