
     RDKit          3D

  0  0  0  0  0  0  0  0  0  0999 V3000
M  V30 BEGIN CTAB
M  V30 COUNTS 28 28 0 0 0
M  V30 BEGIN ATOM
M  V30 1 C 5.09871 -0.261034 0.0804167 0
M  V30 2 O 4.01807 -0.48488 -0.793183 0
M  V30 3 C 2.68943 -0.293636 -0.444941 0
M  V30 4 O 2.46703 0.106997 0.737345 0
M  V30 5 C 1.58013 -0.54779 -1.41603 0
M  V30 6 C 0.25874 -0.268617 -0.798566 0
M  V30 7 C -0.452841 -1.24624 -0.130921 0
M  V30 8 C -1.67749 -0.970823 0.436362 0
M  V30 9 N -2.36606 -2.01111 1.11038 0
M  V30 10 C -2.24937 0.281915 0.367262 0
M  V30 11 C -1.55108 1.26346 -0.294507 0
M  V30 12 C -0.324229 0.997162 -0.865663 0
M  V30 13 N -2.12061 2.58182 -0.384387 0
M  V30 14 C -3.58116 0.541535 0.996077 0
M  V30 15 H 4.85219 0.430633 0.912336 0
M  V30 16 H 6.01431 0.0674357 -0.44373 0
M  V30 17 H 5.34808 -1.23478 0.557369 0
M  V30 18 H 1.77254 0.116077 -2.28974 0
M  V30 19 H 1.56379 -1.58315 -1.77741 0
M  V30 20 H 0.00813625 -2.24254 -0.0792304 0
M  V30 21 H -2.96991 -2.64695 0.550542 0
M  V30 22 H -2.28966 -2.15742 2.12515 0
M  V30 23 H 0.236624 1.75582 -1.38835 0
M  V30 24 H -2.27125 3.11682 0.492001 0
M  V30 25 H -2.36296 2.95422 -1.33405 0
M  V30 26 H -3.77439 1.62108 0.939198 0
M  V30 27 H -3.55446 0.140212 2.01926 0
M  V30 28 H -4.36233 -0.0262124 0.413852 0
M  V30 END ATOM
M  V30 BEGIN BOND
M  V30 1 1 1 2
M  V30 2 1 2 3
M  V30 3 2 3 4
M  V30 4 1 3 5
M  V30 5 1 5 6
M  V30 6 2 6 7
M  V30 7 1 7 8
M  V30 8 1 8 9
M  V30 9 2 8 10
M  V30 10 1 10 11
M  V30 11 2 11 12
M  V30 12 1 11 13
M  V30 13 1 10 14
M  V30 14 1 12 6
M  V30 15 1 1 15
M  V30 16 1 1 16
M  V30 17 1 1 17
M  V30 18 1 5 18
M  V30 19 1 5 19
M  V30 20 1 7 20
M  V30 21 1 9 21
M  V30 22 1 9 22
M  V30 23 1 12 23
M  V30 24 1 13 24
M  V30 25 1 13 25
M  V30 26 1 14 26
M  V30 27 1 14 27
M  V30 28 1 14 28
M  V30 END BOND
M  V30 END CTAB
M  END
