
     RDKit          3D

  0  0  0  0  0  0  0  0  0  0999 V3000
M  V30 BEGIN CTAB
M  V30 COUNTS 41 43 0 0 0
M  V30 BEGIN ATOM
M  V30 1 O -0.0166175 1.74574 0.473033 0
M  V30 2 C 0.461515 0.58298 0.374938 0
M  V30 3 N -0.275925 -0.568688 0.113181 0
M  V30 4 C -1.67749 -0.642351 -0.0744029 0
M  V30 5 C -2.23887 -1.76697 -0.704305 0
M  V30 6 C -3.58449 -1.92878 -0.900796 0
M  V30 7 C -4.43091 -0.93897 -0.45883 0
M  V30 8 C -3.93103 0.178863 0.162799 0
M  V30 9 C -2.55334 0.322205 0.352084 0
M  V30 10 O -4.63407 1.28665 0.678478 0
M  V30 11 C -6.03422 1.23993 0.91563 0
M  V30 12 C -6.82438 1.04724 -0.339112 0
M  V30 13 C -6.75224 -0.230388 -1.03169 0
M  V30 14 O -5.78225 -1.16289 -0.687735 0
M  V30 15 C 1.96575 0.414358 0.556721 0
M  V30 16 S 2.78792 0.293337 -1.05708 0
M  V30 17 C 4.55003 0.145183 -0.683649 0
M  V30 18 N 5.13598 -1.04601 -0.475342 0
M  V30 19 C 6.45945 -1.18156 -0.191447 0
M  V30 20 N 7.05602 -2.45105 0.0347104 0
M  V30 21 C 7.24642 -0.0529653 -0.111505 0
M  V30 22 C 6.65478 1.17615 -0.324228 0
M  V30 23 N 5.32464 1.23865 -0.603675 0
M  V30 24 N 7.44671 2.34658 -0.247247 0
M  V30 25 H 0.262464 -1.49039 0.0460278 0
M  V30 26 H -1.53864 -2.52345 -1.03636 0
M  V30 27 H -4.00491 -2.79742 -1.38656 0
M  V30 28 H -2.22896 1.2333 0.865132 0
M  V30 29 H -6.32849 2.24819 1.32284 0
M  V30 30 H -6.31861 0.463055 1.64567 0
M  V30 31 H -6.5276 1.89791 -1.02642 0
M  V30 32 H -7.88874 1.30998 -0.0626509 0
M  V30 33 H -7.74698 -0.766338 -0.918512 0
M  V30 34 H -6.73851 -0.0275961 -2.14763 0
M  V30 35 H 2.11618 -0.505911 1.14509 0
M  V30 36 H 2.34524 1.33232 1.07507 0
M  V30 37 H 6.4665 -3.1278 0.611262 0
M  V30 38 H 8.00004 -2.73324 -0.322336 0
M  V30 39 H 8.30581 -0.103286 0.11163 0
M  V30 40 H 7.32048 3.00671 0.536559 0
M  V30 41 H 8.15134 2.53674 -0.979313 0
M  V30 END ATOM
M  V30 BEGIN BOND
M  V30 1 2 1 2
M  V30 2 1 2 3
M  V30 3 1 3 4
M  V30 4 2 4 5
M  V30 5 1 5 6
M  V30 6 2 6 7
M  V30 7 1 7 8
M  V30 8 2 8 9
M  V30 9 1 8 10
M  V30 10 1 10 11
M  V30 11 1 11 12
M  V30 12 1 12 13
M  V30 13 1 13 14
M  V30 14 1 2 15
M  V30 15 1 15 16
M  V30 16 1 16 17
M  V30 17 2 17 18
M  V30 18 1 18 19
M  V30 19 1 19 20
M  V30 20 2 19 21
M  V30 21 1 21 22
M  V30 22 2 22 23
M  V30 23 1 22 24
M  V30 24 1 9 4
M  V30 25 1 23 17
M  V30 26 1 14 7
M  V30 27 1 3 25
M  V30 28 1 5 26
M  V30 29 1 6 27
M  V30 30 1 9 28
M  V30 31 1 11 29
M  V30 32 1 11 30
M  V30 33 1 12 31
M  V30 34 1 12 32
M  V30 35 1 13 33
M  V30 36 1 13 34
M  V30 37 1 15 35
M  V30 38 1 15 36
M  V30 39 1 20 37
M  V30 40 1 20 38
M  V30 41 1 21 39
M  V30 42 1 24 40
M  V30 43 1 24 41
M  V30 END BOND
M  V30 END CTAB
M  END
