
     RDKit          3D

  0  0  0  0  0  0  0  0  0  0999 V3000
M  V30 BEGIN CTAB
M  V30 COUNTS 62 66 0 0 0
M  V30 BEGIN ATOM
M  V30 1 C 9.6791 -0.161655 1.73126 0
M  V30 2 C 9.28015 0.896407 0.725952 0
M  V30 3 C 8.26672 0.267213 -0.185502 0
M  V30 4 S 8.52296 -0.580177 -1.63924 0
M  V30 5 C 6.90403 -0.950839 -2.03747 0
M  V30 6 C 6.20045 -0.397499 -1.01454 0
M  V30 7 C 6.90359 0.238335 -0.046631 0
M  V30 8 C 4.80481 -0.54756 -1.07416 0
M  V30 9 N 3.95662 -0.0168301 -0.0691254 0
M  V30 10 C 2.51985 -0.182332 -0.149033 0
M  V30 11 C 1.81367 0.44878 1.00486 0
M  V30 12 C 0.332191 0.323509 1.00814 0
M  V30 13 C -0.371425 0.93767 -0.125905 0
M  V30 14 O 0.278839 1.63559 -0.939374 0
M  V30 15 N -1.76522 0.780734 -0.349077 0
M  V30 16 C -2.27775 1.45628 -1.50821 0
M  V30 17 C -2.67328 0.443135 -2.57374 0
M  V30 18 O -3.18047 -0.678315 -1.92199 0
M  V30 19 C -4.22836 -0.256708 -1.1195 0
M  V30 20 C -3.87855 -0.260371 0.336372 0
M  V30 21 C -2.43805 -0.0333407 0.627756 0
M  V30 22 O -4.36741 -1.47558 0.89371 0
M  V30 23 C -5.76647 -1.32197 0.979836 0
M  V30 24 C -6.06597 0.0196744 1.05887 0
M  V30 25 C -4.78085 0.759979 1.02058 0
M  V30 26 C -7.3883 0.392316 1.15078 0
M  V30 27 N -7.78018 1.76443 1.2363 0
M  V30 28 N -8.36706 -0.522068 1.16371 0
M  V30 29 C -8.07854 -1.83164 1.08679 0
M  V30 30 N -6.78688 -2.19272 0.997139 0
M  V30 31 N -9.12588 -2.8031 1.10097 0
M  V30 32 N 4.26287 -1.20719 -2.10405 0
M  V30 33 C 4.95366 -1.75343 -3.11335 0
M  V30 34 N 6.2892 -1.61737 -3.0689 0
M  V30 35 H 9.76773 0.26924 2.74971 0
M  V30 36 H 10.6291 -0.638428 1.39341 0
M  V30 37 H 8.92649 -0.992117 1.75633 0
M  V30 38 H 10.1434 1.27465 0.16341 0
M  V30 39 H 8.77592 1.76166 1.18777 0
M  V30 40 H 6.46427 0.739511 0.852741 0
M  V30 41 H 4.35539 0.499443 0.740565 0
M  V30 42 H 2.22256 0.240955 -1.12478 0
M  V30 43 H 2.34916 -1.28782 -0.172563 0
M  V30 44 H 2.18445 0.0704006 1.98599 0
M  V30 45 H 2.0501 1.54202 1.02545 0
M  V30 46 H 0.0856968 -0.775164 1.10739 0
M  V30 47 H -0.0183758 0.742591 1.99544 0
M  V30 48 H -1.49428 2.09333 -1.97038 0
M  V30 49 H -3.11717 2.13723 -1.25902 0
M  V30 50 H -3.5026 0.866143 -3.17393 0
M  V30 51 H -1.80613 0.124334 -3.16215 0
M  V30 52 H -4.60902 0.756415 -1.4296 0
M  V30 53 H -5.09363 -0.94326 -1.30335 0
M  V30 54 H -1.93046 -1.04189 0.603274 0
M  V30 55 H -2.28214 0.344204 1.65126 0
M  V30 56 H -4.87301 1.68154 0.414102 0
M  V30 57 H -4.42923 0.990353 2.04576 0
M  V30 58 H -8.0483 2.26583 0.355545 0
M  V30 59 H -7.79254 2.23569 2.15789 0
M  V30 60 H -9.46696 -3.17204 1.99765 0
M  V30 61 H -9.54175 -3.13631 0.215142 0
M  V30 62 H 4.40331 -2.26027 -3.88631 0
M  V30 END ATOM
M  V30 BEGIN BOND
M  V30 1 1 1 2
M  V30 2 1 2 3
M  V30 3 1 3 4
M  V30 4 1 4 5
M  V30 5 2 5 6
M  V30 6 1 6 7
M  V30 7 1 6 8
M  V30 8 1 8 9
M  V30 9 1 9 10
M  V30 10 1 10 11
M  V30 11 1 11 12
M  V30 12 1 12 13
M  V30 13 2 13 14
M  V30 14 1 13 15
M  V30 15 1 15 16
M  V30 16 1 16 17
M  V30 17 1 17 18
M  V30 18 1 18 19
M  V30 19 1 19 20
M  V30 20 1 20 21
M  V30 21 1 20 22
M  V30 22 1 22 23
M  V30 23 2 23 24
M  V30 24 1 24 25
M  V30 25 1 24 26
M  V30 26 1 26 27
M  V30 27 2 26 28
M  V30 28 1 28 29
M  V30 29 2 29 30
M  V30 30 1 29 31
M  V30 31 2 8 32
M  V30 32 1 32 33
M  V30 33 2 33 34
M  V30 34 2 7 3
M  V30 35 1 21 15
M  V30 36 1 30 23
M  V30 37 1 34 5
M  V30 38 1 25 20
M  V30 39 1 1 35
M  V30 40 1 1 36
M  V30 41 1 1 37
M  V30 42 1 2 38
M  V30 43 1 2 39
M  V30 44 1 7 40
M  V30 45 1 9 41
M  V30 46 1 10 42
M  V30 47 1 10 43
M  V30 48 1 11 44
M  V30 49 1 11 45
M  V30 50 1 12 46
M  V30 51 1 12 47
M  V30 52 1 16 48
M  V30 53 1 16 49
M  V30 54 1 17 50
M  V30 55 1 17 51
M  V30 56 1 19 52
M  V30 57 1 19 53
M  V30 58 1 21 54
M  V30 59 1 21 55
M  V30 60 1 25 56
M  V30 61 1 25 57
M  V30 62 1 27 58
M  V30 63 1 27 59
M  V30 64 1 31 60
M  V30 65 1 31 61
M  V30 66 1 33 62
M  V30 END BOND
M  V30 END CTAB
M  END
