
     RDKit          3D

  0  0  0  0  0  0  0  0  0  0999 V3000
M  V30 BEGIN CTAB
M  V30 COUNTS 28 28 0 0 0
M  V30 BEGIN ATOM
M  V30 1 C 4.74692 -0.0142999 -0.450782 0
M  V30 2 O 3.6568 0.187067 0.408407 0
M  V30 3 C 2.34941 -0.0772625 0.0891426 0
M  V30 4 O 2.06031 -0.531803 -1.04002 0
M  V30 5 C 1.30259 0.178747 1.08368 0
M  V30 6 C -0.065988 -0.10567 0.640631 0
M  V30 7 C -0.721455 -1.27175 0.999684 0
M  V30 8 C -2.00682 -1.55055 0.568443 0
M  V30 9 N -2.66437 -2.74338 0.94158 0
M  V30 10 C -2.65441 -0.647408 -0.238574 0
M  V30 11 C -2.03151 0.533083 -0.620272 0
M  V30 12 C -0.733336 0.79129 -0.171419 0
M  V30 13 N -0.0799508 1.99522 -0.538583 0
M  V30 14 C -2.73131 1.51434 -1.48835 0
M  V30 15 F -3.99435 0.976522 -1.7871 0
M  V30 16 F -3.03091 2.69346 -0.80986 0
M  V30 17 F -2.10355 1.73117 -2.6783 0
M  V30 18 H 5.50927 -0.677168 0.0103987 0
M  V30 19 H 4.36216 -0.40413 -1.40902 0
M  V30 20 H 5.25218 0.963458 -0.612565 0
M  V30 21 H 1.42263 1.19315 1.51704 0
M  V30 22 H 1.52083 -0.519221 1.9455 0
M  V30 23 H -0.229592 -1.99742 1.63602 0
M  V30 24 H -2.4651 -3.21021 1.85237 0
M  V30 25 H -3.35636 -3.15432 0.291308 0
M  V30 26 H -3.67678 -0.838206 -0.599459 0
M  V30 27 H -0.585015 2.90991 -0.682875 0
M  V30 28 H 0.947723 2.07539 -0.693178 0
M  V30 END ATOM
M  V30 BEGIN BOND
M  V30 1 1 1 2
M  V30 2 1 2 3
M  V30 3 2 3 4
M  V30 4 1 3 5
M  V30 5 1 5 6
M  V30 6 2 6 7
M  V30 7 1 7 8
M  V30 8 1 8 9
M  V30 9 2 8 10
M  V30 10 1 10 11
M  V30 11 2 11 12
M  V30 12 1 12 13
M  V30 13 1 11 14
M  V30 14 1 14 15
M  V30 15 1 14 16
M  V30 16 1 14 17
M  V30 17 1 12 6
M  V30 18 1 1 18
M  V30 19 1 1 19
M  V30 20 1 1 20
M  V30 21 1 5 21
M  V30 22 1 5 22
M  V30 23 1 7 23
M  V30 24 1 9 24
M  V30 25 1 9 25
M  V30 26 1 10 26
M  V30 27 1 13 27
M  V30 28 1 13 28
M  V30 END BOND
M  V30 END CTAB
M  END
