
     RDKit          3D

  0  0  0  0  0  0  0  0  0  0999 V3000
M  V30 BEGIN CTAB
M  V30 COUNTS 27 28 0 0 0
M  V30 BEGIN ATOM
M  V30 1 N -4.27533 0.456627 -0.484629 0
M  V30 2 C -2.89518 0.889038 -0.429971 0
M  V30 3 C -2.17848 0.00940162 0.558444 0
M  V30 4 C -0.709486 0.418185 0.661363 0
M  V30 5 C -0.441394 -0.51607 -0.499205 0
M  V30 6 C -1.68305 -1.2997 -0.0586341 0
M  V30 7 C 0.845647 -1.27652 -0.288304 0
M  V30 8 C 1.98709 -0.317258 -0.172562 0
M  V30 9 O 1.93906 0.990474 -0.236247 0
M  V30 10 N 3.11135 1.51304 -0.0971983 0
M  V30 11 C 4.01707 0.512114 0.0715125 0
M  V30 12 N 3.28286 -0.62135 0.0195973 0
M  V30 13 N 5.42199 0.650607 0.259434 0
M  V30 14 H -4.29978 -0.550408 -0.820626 0
M  V30 15 H -4.81338 1.06419 -1.15674 0
M  V30 16 H -2.89485 1.94102 -0.0409908 0
M  V30 17 H -2.40263 0.921114 -1.41035 0
M  V30 18 H -2.70878 -0.0872045 1.50246 0
M  V30 19 H -0.51499 1.48389 0.463023 0
M  V30 20 H -0.282954 0.0181726 1.61215 0
M  V30 21 H -0.587055 -0.0840344 -1.48649 0
M  V30 22 H -1.4235 -2.00912 0.76014 0
M  V30 23 H -2.28682 -1.68912 -0.876222 0
M  V30 24 H 1.07596 -1.9656 -1.11448 0
M  V30 25 H 0.813723 -1.87653 0.643428 0
M  V30 26 H 5.93436 1.47083 -0.163439 0
M  V30 27 H 5.96855 -0.0457983 0.811529 0
M  V30 END ATOM
M  V30 BEGIN BOND
M  V30 1 1 1 2
M  V30 2 1 2 3
M  V30 3 1 3 4
M  V30 4 1 4 5
M  V30 5 1 5 6
M  V30 6 1 5 7
M  V30 7 1 7 8
M  V30 8 1 8 9
M  V30 9 1 9 10
M  V30 10 2 10 11
M  V30 11 1 11 12
M  V30 12 1 11 13
M  V30 13 1 6 3
M  V30 14 2 12 8
M  V30 15 1 1 14
M  V30 16 1 1 15
M  V30 17 1 2 16
M  V30 18 1 2 17
M  V30 19 1 3 18
M  V30 20 1 4 19
M  V30 21 1 4 20
M  V30 22 1 5 21
M  V30 23 1 6 22
M  V30 24 1 6 23
M  V30 25 1 7 24
M  V30 26 1 7 25
M  V30 27 1 13 26
M  V30 28 1 13 27
M  V30 END BOND
M  V30 END CTAB
M  END
