
     RDKit          3D

  0  0  0  0  0  0  0  0  0  0999 V3000
M  V30 BEGIN CTAB
M  V30 COUNTS 37 40 0 0 0
M  V30 BEGIN ATOM
M  V30 1 N -5.64991 -0.441762 -1.14162 0
M  V30 2 C -4.6662 -0.128773 -0.17756 0
M  V30 3 C -4.76285 1.02337 0.563448 0
M  V30 4 C -3.80724 1.30766 1.48602 0
M  V30 5 C -2.74215 0.43875 1.67653 0
M  V30 6 C -2.61322 -0.727345 0.949981 0
M  V30 7 C -1.46072 -1.59356 1.20648 0
M  V30 8 N -0.309819 -1.3352 0.388444 0
M  V30 9 N -0.0409666 -1.8728 -0.771404 0
M  V30 10 C 1.13968 -1.39611 -1.26997 0
M  V30 11 C 1.61981 -0.508413 -0.34669 0
M  V30 12 C 2.75991 0.279301 -0.32443 0
M  V30 13 N 2.89002 1.0734 0.787515 0
M  V30 14 C 2.01568 1.11364 1.78937 0
M  V30 15 N 2.22349 1.96794 2.91612 0
M  V30 16 N 0.920546 0.332594 1.73302 0
M  V30 17 C 0.687423 -0.486234 0.690142 0
M  V30 18 C 3.80614 0.28121 -1.31782 0
M  V30 19 C 4.0765 -0.51844 -2.36303 0
M  V30 20 C 5.24151 -0.051703 -3.00345 0
M  V30 21 C 5.60508 1.04779 -2.25961 0
M  V30 22 O 4.75977 1.20635 -1.30361 0
M  V30 23 C -3.5905 -1.0013 0.0183735 0
M  V30 24 H -6.45083 0.205262 -1.28298 0
M  V30 25 H -5.62614 -1.30003 -1.73616 0
M  V30 26 H -5.59069 1.72998 0.437449 0
M  V30 27 H -3.86148 2.20463 2.07878 0
M  V30 28 H -2.01533 0.720162 2.42586 0
M  V30 29 H -1.8043 -2.6505 1.08047 0
M  V30 30 H -1.22357 -1.51078 2.30643 0
M  V30 31 H 1.57829 -1.66496 -2.20678 0
M  V30 32 H 1.92882 2.94824 2.87045 0
M  V30 33 H 2.66694 1.58046 3.75515 0
M  V30 34 H 3.57217 -1.38318 -2.71103 0
M  V30 35 H 5.72665 -0.464238 -3.87057 0
M  V30 36 H 6.49381 1.63063 -2.52335 0
M  V30 37 H -3.49633 -1.90642 -0.54997 0
M  V30 END ATOM
M  V30 BEGIN BOND
M  V30 1 1 1 2
M  V30 2 2 2 3
M  V30 3 1 3 4
M  V30 4 2 4 5
M  V30 5 1 5 6
M  V30 6 1 6 7
M  V30 7 1 7 8
M  V30 8 1 8 9
M  V30 9 2 9 10
M  V30 10 1 10 11
M  V30 11 2 11 12
M  V30 12 1 12 13
M  V30 13 2 13 14
M  V30 14 1 14 15
M  V30 15 1 14 16
M  V30 16 2 16 17
M  V30 17 1 12 18
M  V30 18 2 18 19
M  V30 19 1 19 20
M  V30 20 2 20 21
M  V30 21 1 21 22
M  V30 22 2 6 23
M  V30 23 1 23 2
M  V30 24 1 17 8
M  V30 25 1 22 18
M  V30 26 1 17 11
M  V30 27 1 1 24
M  V30 28 1 1 25
M  V30 29 1 3 26
M  V30 30 1 4 27
M  V30 31 1 5 28
M  V30 32 1 7 29
M  V30 33 1 7 30
M  V30 34 1 10 31
M  V30 35 1 15 32
M  V30 36 1 15 33
M  V30 37 1 19 34
M  V30 38 1 20 35
M  V30 39 1 21 36
M  V30 40 1 23 37
M  V30 END BOND
M  V30 END CTAB
M  END
