
     RDKit          3D

  0  0  0  0  0  0  0  0  0  0999 V3000
M  V30 BEGIN CTAB
M  V30 COUNTS 38 39 0 0 0
M  V30 BEGIN ATOM
M  V30 1 N -2.80179 -2.14605 -0.69952 0
M  V30 2 C -3.52481 -1.12995 -0.0857745 0
M  V30 3 C -3.18062 0.273301 -0.462605 0
M  V30 4 N -1.8961 0.717299 -0.182601 0
M  V30 5 C -1.71333 2.15197 -0.430312 0
M  V30 6 C -0.82544 2.75312 0.621547 0
M  V30 7 C 0.171775 1.82332 1.22216 0
M  V30 8 O -0.306598 0.615254 1.65889 0
M  V30 9 C -0.0524374 -0.405859 0.749645 0 CFG=1
M  V30 10 C -0.741289 -0.0157651 -0.544808 0
M  V30 11 C 1.39434 -0.64216 0.566157 0
M  V30 12 C 2.15811 -0.684335 1.7153 0
M  V30 13 C 3.51636 -0.896446 1.66113 0
M  V30 14 C 4.09802 -1.06657 0.426204 0
M  V30 15 C 3.35594 -1.02807 -0.733054 0
M  V30 16 C 1.99863 -0.813913 -0.64181 0
M  V30 17 N 3.98811 -1.20997 -2.00051 0
M  V30 18 H -2.45758 -2.86584 -0.116323 0
M  V30 19 H -3.03995 -2.38363 -1.62074 0
M  V30 20 H -4.62089 -1.33912 -0.288838 0
M  V30 21 H -3.48111 -1.26911 1.04754 0
M  V30 22 H -3.44701 0.355486 -1.57412 0
M  V30 23 H -3.92918 0.934134 0.0531405 0
M  V30 24 H -1.35231 2.27977 -1.46016 0
M  V30 25 H -2.71645 2.60634 -0.330166 0
M  V30 26 H -0.234352 3.56456 0.108435 0
M  V30 27 H -1.38723 3.26229 1.43775 0
M  V30 28 H 1.06326 1.74094 0.566206 0
M  V30 29 H 0.565114 2.34491 2.14625 0
M  V30 30 H -0.512445 -1.34187 1.10466 0
M  V30 31 H -0.0849468 0.715174 -1.11486 0
M  V30 32 H -0.833697 -0.862158 -1.21301 0
M  V30 33 H 1.72586 -0.553371 2.71714 0
M  V30 34 H 4.09098 -0.92522 2.57424 0
M  V30 35 H 5.17305 -1.23232 0.416937 0
M  V30 36 H 1.42093 -0.784048 -1.53709 0
M  V30 37 H 4.8874 -1.68987 -2.06056 0
M  V30 38 H 3.53168 -0.852199 -2.86017 0
M  V30 END ATOM
M  V30 BEGIN BOND
M  V30 1 1 1 2
M  V30 2 1 2 3
M  V30 3 1 3 4
M  V30 4 1 4 5
M  V30 5 1 5 6
M  V30 6 1 6 7
M  V30 7 1 7 8
M  V30 8 1 8 9
M  V30 9 1 9 10
M  V30 10 1 9 11
M  V30 11 2 11 12
M  V30 12 1 12 13
M  V30 13 2 13 14
M  V30 14 1 14 15
M  V30 15 2 15 16
M  V30 16 1 15 17
M  V30 17 1 10 4
M  V30 18 1 16 11
M  V30 19 1 1 18
M  V30 20 1 1 19
M  V30 21 1 2 20
M  V30 22 1 2 21
M  V30 23 1 3 22
M  V30 24 1 3 23
M  V30 25 1 5 24
M  V30 26 1 5 25
M  V30 27 1 6 26
M  V30 28 1 6 27
M  V30 29 1 7 28
M  V30 30 1 7 29
M  V30 31 1 9 30 CFG=1
M  V30 32 1 10 31
M  V30 33 1 10 32
M  V30 34 1 12 33
M  V30 35 1 13 34
M  V30 36 1 14 35
M  V30 37 1 16 36
M  V30 38 1 17 37
M  V30 39 1 17 38
M  V30 END BOND
M  V30 END CTAB
M  END
