
     RDKit          3D

  0  0  0  0  0  0  0  0  0  0999 V3000
M  V30 BEGIN CTAB
M  V30 COUNTS 48 49 0 0 0
M  V30 BEGIN ATOM
M  V30 1 N -7.1025 2.37098 1.04167 0
M  V30 2 C -6.4344 1.12666 1.10738 0
M  V30 3 C -6.88345 0.133246 1.9744 0
M  V30 4 C -6.2267 -1.06751 2.02672 0
M  V30 5 C -5.1199 -1.29869 1.22313 0
M  V30 6 C -4.66537 -0.33052 0.364203 0
M  V30 7 C -5.32797 0.872723 0.315459 0
M  V30 8 N -3.49923 -0.571321 -0.481171 0
M  V30 9 C -2.26748 -0.284521 0.0889535 0
M  V30 10 O -2.36068 0.16148 1.33952 0
M  V30 11 C -0.933743 -0.384948 -0.432848 0
M  V30 12 O -0.660531 -0.766931 -1.56804 0
M  V30 13 N 0.177359 -0.0231088 0.398707 0
M  V30 14 C 1.52301 -0.117848 -0.118456 0
M  V30 15 C 2.54128 0.30436 0.918205 0
M  V30 16 C 3.92411 0.229503 0.431406 0
M  V30 17 C 4.47429 1.34043 -0.169141 0
M  V30 18 C 5.78061 1.33087 -0.648796 0
M  V30 19 C 6.54754 0.189488 -0.52432 0
M  V30 20 C 5.98705 -0.912059 0.0764831 0
M  V30 21 C 4.69246 -0.906941 0.553427 0
M  V30 22 S 8.19398 0.136267 -1.11082 0
M  V30 23 O 8.38582 1.08127 -2.26445 0
M  V30 24 O 8.56501 -1.2399 -1.58187 0
M  V30 25 N 9.20473 0.637867 0.222985 0
M  V30 26 C -3.75335 -1.06283 -1.7597 0
M  V30 27 O -2.93954 -1.3426 -2.64752 0
M  V30 28 C -5.20735 -1.30874 -2.17656 0
M  V30 29 H -6.54343 3.24081 1.00577 0
M  V30 30 H -8.13632 2.40375 1.02996 0
M  V30 31 H -7.76031 0.37251 2.58344 0
M  V30 32 H -6.56969 -1.84438 2.69727 0
M  V30 33 H -4.59713 -2.26757 1.27188 0
M  V30 34 H -4.97174 1.65828 -0.371366 0
M  V30 35 H -0.0364073 0.300894 1.36444 0
M  V30 36 H 1.56466 0.510712 -1.0229 0
M  V30 37 H 1.7979 -1.14324 -0.441656 0
M  V30 38 H 2.45031 -0.259638 1.85225 0
M  V30 39 H 2.29438 1.37678 1.1558 0
M  V30 40 H 3.86691 2.23793 -0.26543 0
M  V30 41 H 6.2152 2.1923 -1.11748 0
M  V30 42 H 6.58571 -1.81649 0.177724 0
M  V30 43 H 4.30127 -1.8185 1.02343 0
M  V30 44 H 10.1396 0.943039 -0.174456 0
M  V30 45 H 9.42545 -0.256437 0.750833 0
M  V30 46 H -5.88723 -1.14679 -1.34024 0
M  V30 47 H -5.43013 -0.625453 -3.02061 0
M  V30 48 H -5.32411 -2.35518 -2.50352 0
M  V30 END ATOM
M  V30 BEGIN BOND
M  V30 1 1 1 2
M  V30 2 2 2 3
M  V30 3 1 3 4
M  V30 4 2 4 5
M  V30 5 1 5 6
M  V30 6 2 6 7
M  V30 7 1 6 8
M  V30 8 1 8 9
M  V30 9 2 9 10
M  V30 10 1 9 11
M  V30 11 2 11 12
M  V30 12 1 11 13
M  V30 13 1 13 14
M  V30 14 1 14 15
M  V30 15 1 15 16
M  V30 16 2 16 17
M  V30 17 1 17 18
M  V30 18 2 18 19
M  V30 19 1 19 20
M  V30 20 2 20 21
M  V30 21 1 19 22
M  V30 22 2 22 23
M  V30 23 2 22 24
M  V30 24 1 22 25
M  V30 25 1 8 26
M  V30 26 2 26 27
M  V30 27 1 26 28
M  V30 28 1 7 2
M  V30 29 1 21 16
M  V30 30 1 1 29
M  V30 31 1 1 30
M  V30 32 1 3 31
M  V30 33 1 4 32
M  V30 34 1 5 33
M  V30 35 1 7 34
M  V30 36 1 13 35
M  V30 37 1 14 36
M  V30 38 1 14 37
M  V30 39 1 15 38
M  V30 40 1 15 39
M  V30 41 1 17 40
M  V30 42 1 18 41
M  V30 43 1 20 42
M  V30 44 1 21 43
M  V30 45 1 25 44
M  V30 46 1 25 45
M  V30 47 1 28 46
M  V30 48 1 28 47
M  V30 49 1 28 48
M  V30 END BOND
M  V30 END CTAB
M  END
