
     RDKit          3D

  0  0  0  0  0  0  0  0  0  0999 V3000
M  V30 BEGIN CTAB
M  V30 COUNTS 25 24 0 0 0
M  V30 BEGIN ATOM
M  V30 1 O -1.44904 -1.49647 1.19447 0
M  V30 2 C -1.99589 -0.341186 0.679814 0
M  V30 3 C -1.11317 0.320083 -0.356054 0
M  V30 4 C 0.237913 0.702049 0.225052 0
M  V30 5 N 0.952303 -0.442791 0.721391 0
M  V30 6 C 2.2449 -0.477229 0.798722 0
M  V30 7 N 2.89504 -1.63807 1.29836 0
M  V30 8 N 3.02924 0.62804 0.391964 0
M  V30 9 C -0.93113 -0.566873 -1.54468 0
M  V30 10 C -1.81736 1.58214 -0.80657 0
M  V30 11 H -2.15947 -2.08154 1.5624 0
M  V30 12 H -2.94092 -0.602934 0.172743 0
M  V30 13 H -2.24324 0.38117 1.48611 0
M  V30 14 H 0.828101 1.10283 -0.645716 0
M  V30 15 H 0.158956 1.53149 0.946576 0
M  V30 16 H 3.82411 -1.98129 0.971687 0
M  V30 17 H 2.43121 -2.20163 2.04274 0
M  V30 18 H 3.80419 0.935601 1.00732 0
M  V30 19 H 2.86174 1.14018 -0.491322 0
M  V30 20 H -0.119201 -0.118698 -2.1711 0
M  V30 21 H -1.8749 -0.515016 -2.15996 0
M  V30 22 H -0.697884 -1.59521 -1.24112 0
M  V30 23 H -1.04803 2.35851 -0.996406 0
M  V30 24 H -2.34224 1.41123 -1.78765 0
M  V30 25 H -2.53524 1.96563 -0.0667441 0
M  V30 END ATOM
M  V30 BEGIN BOND
M  V30 1 1 1 2
M  V30 2 1 2 3
M  V30 3 1 3 4
M  V30 4 1 4 5
M  V30 5 2 5 6 CFG=2
M  V30 6 1 6 7
M  V30 7 1 6 8
M  V30 8 1 3 9
M  V30 9 1 3 10
M  V30 10 1 1 11
M  V30 11 1 2 12
M  V30 12 1 2 13
M  V30 13 1 4 14
M  V30 14 1 4 15
M  V30 15 1 7 16
M  V30 16 1 7 17
M  V30 17 1 8 18
M  V30 18 1 8 19
M  V30 19 1 9 20
M  V30 20 1 9 21
M  V30 21 1 9 22
M  V30 22 1 10 23
M  V30 23 1 10 24
M  V30 24 1 10 25
M  V30 END BOND
M  V30 END CTAB
M  END
