
     RDKit          3D

  0  0  0  0  0  0  0  0  0  0999 V3000
M  V30 BEGIN CTAB
M  V30 COUNTS 41 41 0 0 0
M  V30 BEGIN ATOM
M  V30 1 C -5.03073 1.63416 -0.42858 0
M  V30 2 C -3.76385 0.90097 -0.905983 0
M  V30 3 C -3.57279 -0.370153 -0.132794 0
M  V30 4 C -2.39291 -1.18325 -0.502563 0
M  V30 5 C -1.06938 -0.530572 -0.348997 0
M  V30 6 O -0.884758 0.484548 -1.05684 0
M  V30 7 N -0.070056 -1.00114 0.527227 0
M  V30 8 C 1.22192 -0.518644 0.78712 0
M  V30 9 C 2.23684 -0.494545 -0.284496 0
M  V30 10 C 3.55245 0.0456825 0.184971 0
M  V30 11 C 3.81316 0.433839 1.45981 0
M  V30 12 C 5.07158 0.925308 1.80216 0
M  V30 13 C 6.05701 1.01793 0.841552 0
M  V30 14 C 5.79786 0.625274 -0.454336 0
M  V30 15 C 4.54453 0.142603 -0.766676 0
M  V30 16 N 1.93609 0.144616 -1.5054 0
M  V30 17 N -2.41239 -2.44359 0.261816 0
M  V30 18 C -3.69057 -0.0982017 1.34873 0
M  V30 19 H -5.79446 0.884902 -0.0848511 0
M  V30 20 H -5.49311 2.17873 -1.28087 0
M  V30 21 H -4.79348 2.37827 0.344424 0
M  V30 22 H -2.93768 1.64524 -0.707756 0
M  V30 23 H -3.88315 0.686426 -1.98376 0
M  V30 24 H -4.4799 -1.00088 -0.379516 0
M  V30 25 H -2.48167 -1.48228 -1.5668 0
M  V30 26 H -0.385722 -1.87706 1.06851 0
M  V30 27 H 1.14348 0.533502 1.174 0
M  V30 28 H 1.64759 -1.06178 1.69035 0
M  V30 29 H 2.46803 -1.57621 -0.531524 0
M  V30 30 H 3.02351 0.353671 2.2045 0
M  V30 31 H 5.25629 1.23077 2.83343 0
M  V30 32 H 7.04187 1.40555 1.12202 0
M  V30 33 H 6.59972 0.70934 -1.19943 0
M  V30 34 H 4.39368 -0.15336 -1.80442 0
M  V30 35 H 2.19312 -0.405935 -2.34512 0
M  V30 36 H 2.30086 1.11451 -1.50123 0
M  V30 37 H -3.26744 -2.95659 -0.0846696 0
M  V30 38 H -2.56598 -2.26924 1.27604 0
M  V30 39 H -4.48736 0.664203 1.47522 0
M  V30 40 H -4.06109 -1.00465 1.8914 0
M  V30 41 H -2.7811 0.28804 1.80591 0
M  V30 END ATOM
M  V30 BEGIN BOND
M  V30 1 1 1 2
M  V30 2 1 2 3
M  V30 3 1 3 4
M  V30 4 1 4 5
M  V30 5 2 5 6
M  V30 6 1 5 7
M  V30 7 1 7 8
M  V30 8 1 8 9
M  V30 9 1 9 10
M  V30 10 2 10 11
M  V30 11 1 11 12
M  V30 12 2 12 13
M  V30 13 1 13 14
M  V30 14 2 14 15
M  V30 15 1 9 16
M  V30 16 1 4 17
M  V30 17 1 3 18
M  V30 18 1 15 10
M  V30 19 1 1 19
M  V30 20 1 1 20
M  V30 21 1 1 21
M  V30 22 1 2 22
M  V30 23 1 2 23
M  V30 24 1 3 24
M  V30 25 1 4 25
M  V30 26 1 7 26
M  V30 27 1 8 27
M  V30 28 1 8 28
M  V30 29 1 9 29
M  V30 30 1 11 30
M  V30 31 1 12 31
M  V30 32 1 13 32
M  V30 33 1 14 33
M  V30 34 1 15 34
M  V30 35 1 16 35
M  V30 36 1 16 36
M  V30 37 1 17 37
M  V30 38 1 17 38
M  V30 39 1 18 39
M  V30 40 1 18 40
M  V30 41 1 18 41
M  V30 END BOND
M  V30 END CTAB
M  END
