
     RDKit          3D

  0  0  0  0  0  0  0  0  0  0999 V3000
M  V30 BEGIN CTAB
M  V30 COUNTS 38 40 0 0 0
M  V30 BEGIN ATOM
M  V30 1 N 7.97133 0.140174 1.21191 0
M  V30 2 N 7.11659 0.0326597 0.123302 0
M  V30 3 C 7.55338 0.153862 -1.15593 0
M  V30 4 N 6.485 -0.00142578 -1.93791 0
M  V30 5 N 5.42762 -0.210946 -1.1651 0
M  V30 6 C 5.79154 -0.194547 0.112369 0
M  V30 7 N 5.01761 -0.369887 1.28726 0
M  V30 8 N 3.62888 -0.606549 1.23527 0
M  V30 9 C 2.83741 0.067768 0.473352 0
M  V30 10 C 1.40651 -0.163558 0.408458 0
M  V30 11 C 0.649859 0.61089 -0.437535 0
M  V30 12 C -0.733981 0.424903 -0.534416 0
M  V30 13 C -1.34732 -0.537232 0.218893 0
M  V30 14 C -0.575873 -1.30609 1.06266 0
M  V30 15 C 0.796814 -1.13559 1.17142 0
M  V30 16 C -2.78952 -0.764096 0.147818 0
M  V30 17 N -3.55823 -0.0735706 -0.624563 0
M  V30 18 N -4.93865 -0.265802 -0.715147 0
M  V30 19 C -5.8798 0.701691 -0.300104 0
M  V30 20 N -5.60247 1.90179 0.222175 0
M  V30 21 N -6.73211 2.53393 0.490715 0
M  V30 22 C -7.76093 1.73741 0.13972 0
M  V30 23 N -7.21104 0.598385 -0.351797 0
M  V30 24 N -7.92188 -0.508748 -0.835966 0
M  V30 25 H 8.36307 -0.724261 1.62887 0
M  V30 26 H 8.20922 1.07348 1.59594 0
M  V30 27 H 8.55228 0.338794 -1.5256 0
M  V30 28 H 5.4287 -0.333766 2.24266 0
M  V30 29 H 3.29151 0.834528 -0.133473 0
M  V30 30 H 1.15171 1.36123 -1.02052 0
M  V30 31 H -1.29364 1.05879 -1.21543 0
M  V30 32 H -1.05635 -2.05677 1.65004 0
M  V30 33 H 1.41198 -1.73428 1.83121 0
M  V30 34 H -3.25802 -1.52238 0.744398 0
M  V30 35 H -5.2694 -1.17257 -1.11042 0
M  V30 36 H -8.8048 1.99914 0.247934 0
M  V30 37 H -8.6607 -0.428591 -1.55473 0
M  V30 38 H -7.69631 -1.45876 -0.454443 0
M  V30 END ATOM
M  V30 BEGIN BOND
M  V30 1 1 1 2
M  V30 2 1 2 3
M  V30 3 2 3 4
M  V30 4 1 4 5
M  V30 5 2 5 6
M  V30 6 1 6 7
M  V30 7 1 7 8
M  V30 8 2 8 9
M  V30 9 1 9 10
M  V30 10 2 10 11
M  V30 11 1 11 12
M  V30 12 2 12 13
M  V30 13 1 13 14
M  V30 14 2 14 15
M  V30 15 1 13 16
M  V30 16 2 16 17
M  V30 17 1 17 18
M  V30 18 1 18 19
M  V30 19 2 19 20
M  V30 20 1 20 21
M  V30 21 2 21 22
M  V30 22 1 22 23
M  V30 23 1 23 24
M  V30 24 1 6 2
M  V30 25 1 15 10
M  V30 26 1 23 19
M  V30 27 1 1 25
M  V30 28 1 1 26
M  V30 29 1 3 27
M  V30 30 1 7 28
M  V30 31 1 9 29
M  V30 32 1 11 30
M  V30 33 1 12 31
M  V30 34 1 14 32
M  V30 35 1 15 33
M  V30 36 1 16 34
M  V30 37 1 18 35
M  V30 38 1 22 36
M  V30 39 1 24 37
M  V30 40 1 24 38
M  V30 END BOND
M  V30 END CTAB
M  END
