
     RDKit          3D

  0  0  0  0  0  0  0  0  0  0999 V3000
M  V30 BEGIN CTAB
M  V30 COUNTS 35 35 0 0 0
M  V30 BEGIN ATOM
M  V30 1 N 3.97908 0.610389 -0.465278 0
M  V30 2 C 4.04081 -0.758975 -0.808488 0
M  V30 3 C 3.21857 -1.70958 -0.0239243 0
M  V30 4 N 1.802 -1.55803 -0.0310022 0
M  V30 5 C 1.0542 -0.481766 0.475583 0
M  V30 6 O 1.62685 0.482985 1.02067 0
M  V30 7 C -0.465534 -0.471903 0.369327 0
M  V30 8 C -0.851267 -0.52057 -1.03777 0
M  V30 9 C -2.07386 0.16988 -1.47528 0
M  V30 10 C -3.268 0.102182 -0.634859 0
M  V30 11 C -3.12992 -0.536236 0.706164 0
M  V30 12 C -2.36679 0.319965 1.69122 0
M  V30 13 C -0.971255 0.629251 1.205 0
M  V30 14 N -0.954132 1.92743 0.626898 0
M  V30 15 H 4.60784 0.911474 0.296737 0
M  V30 16 H 4.11404 1.2267 -1.312 0
M  V30 17 H 5.13083 -1.08246 -0.776186 0
M  V30 18 H 3.74318 -0.890563 -1.90236 0
M  V30 19 H 3.45749 -2.74407 -0.387379 0
M  V30 20 H 3.57128 -1.73537 1.05579 0
M  V30 21 H 1.2126 -2.34582 -0.470635 0
M  V30 22 H -0.754374 -1.44176 0.873813 0
M  V30 23 H 0.00685613 -0.123241 -1.66022 0
M  V30 24 H -0.920845 -1.60053 -1.36603 0
M  V30 25 H -2.33736 -0.252593 -2.49453 0
M  V30 26 H -1.799 1.23919 -1.72307 0
M  V30 27 H -3.65891 1.14808 -0.455365 0
M  V30 28 H -4.13631 -0.409476 -1.14732 0
M  V30 29 H -4.17623 -0.606694 1.13314 0
M  V30 30 H -2.77667 -1.57227 0.653739 0
M  V30 31 H -2.94168 1.23082 1.88377 0
M  V30 32 H -2.32565 -0.248853 2.64614 0
M  V30 33 H -0.332711 0.676188 2.13721 0
M  V30 34 H -0.122957 2.15533 0.0570816 0
M  V30 35 H -1.2022 2.62655 1.33942 0
M  V30 END ATOM
M  V30 BEGIN BOND
M  V30 1 1 1 2
M  V30 2 1 2 3
M  V30 3 1 3 4
M  V30 4 1 4 5
M  V30 5 2 5 6
M  V30 6 1 5 7
M  V30 7 1 7 8
M  V30 8 1 8 9
M  V30 9 1 9 10
M  V30 10 1 10 11
M  V30 11 1 11 12
M  V30 12 1 12 13
M  V30 13 1 13 14
M  V30 14 1 13 7
M  V30 15 1 1 15
M  V30 16 1 1 16
M  V30 17 1 2 17
M  V30 18 1 2 18
M  V30 19 1 3 19
M  V30 20 1 3 20
M  V30 21 1 4 21
M  V30 22 1 7 22
M  V30 23 1 8 23
M  V30 24 1 8 24
M  V30 25 1 9 25
M  V30 26 1 9 26
M  V30 27 1 10 27
M  V30 28 1 10 28
M  V30 29 1 11 29
M  V30 30 1 11 30
M  V30 31 1 12 31
M  V30 32 1 12 32
M  V30 33 1 13 33
M  V30 34 1 14 34
M  V30 35 1 14 35
M  V30 END BOND
M  V30 END CTAB
M  END
