
     RDKit          3D

  0  0  0  0  0  0  0  0  0  0999 V3000
M  V30 BEGIN CTAB
M  V30 COUNTS 37 39 0 0 0
M  V30 BEGIN ATOM
M  V30 1 N -4.07557 3.77224 -0.0793403 0
M  V30 2 N -2.77427 3.32874 -0.189881 0
M  V30 3 C -2.41545 1.97913 -0.0243046 0
M  V30 4 O -3.32076 1.15279 0.231749 0
M  V30 5 C -1.01476 1.60257 -0.157577 0
M  V30 6 C -0.55274 0.307349 -0.0567228 0
M  V30 7 C 0.815179 0.338543 -0.231759 0
M  V30 8 C 1.75735 -0.669113 -0.223817 0
M  V30 9 C 3.09156 -0.375386 -0.423615 0
M  V30 10 C 3.4329 0.945973 -0.627744 0
M  V30 11 C 2.48963 1.94458 -0.634775 0
M  V30 12 C 1.15434 1.65837 -0.435812 0
M  V30 13 N 0.0354441 2.42243 -0.389453 0
M  V30 14 S 4.34553 -1.60405 -0.42962 0
M  V30 15 N 4.86416 -1.83141 1.19797 0
M  V30 16 O 5.52461 -1.0711 -1.2275 0
M  V30 17 O 3.8341 -2.8298 -1.07866 0
M  V30 18 C -1.32485 -0.880223 0.190719 0
M  V30 19 C -2.0684 -1.48428 -0.801886 0
M  V30 20 C -2.82039 -2.62234 -0.630385 0
M  V30 21 C -2.83333 -3.20406 0.624461 0
M  V30 22 F -3.59056 -4.33165 0.756534 0
M  V30 23 C -2.11221 -2.6454 1.64741 0
M  V30 24 C -1.36796 -1.50312 1.44341 0
M  V30 25 H -4.67702 3.36765 -0.811985 0
M  V30 26 H -4.15569 4.806 0.0168463 0
M  V30 27 H -2.03307 4.02954 -0.407982 0
M  V30 28 H 1.44906 -1.6893 -0.0603041 0
M  V30 29 H 4.50097 1.18088 -0.787783 0
M  V30 30 H 2.75667 2.96776 -0.794098 0
M  V30 31 H 0.0113154 3.44447 -0.511818 0
M  V30 32 H 5.26494 -2.75925 1.38568 0
M  V30 33 H 4.20958 -1.46887 1.90344 0
M  V30 34 H -2.06303 -1.03185 -1.7911 0
M  V30 35 H -3.38417 -3.05029 -1.44655 0
M  V30 36 H -2.15295 -3.13695 2.612 0
M  V30 37 H -0.800178 -1.06058 2.24425 0
M  V30 END ATOM
M  V30 BEGIN BOND
M  V30 1 1 1 2
M  V30 2 1 2 3
M  V30 3 2 3 4
M  V30 4 1 3 5
M  V30 5 2 5 6
M  V30 6 1 6 7
M  V30 7 2 7 8
M  V30 8 1 8 9
M  V30 9 2 9 10
M  V30 10 1 10 11
M  V30 11 2 11 12
M  V30 12 1 12 13
M  V30 13 1 9 14
M  V30 14 1 14 15
M  V30 15 2 14 16
M  V30 16 2 14 17
M  V30 17 1 6 18
M  V30 18 2 18 19
M  V30 19 1 19 20
M  V30 20 2 20 21
M  V30 21 1 21 22
M  V30 22 1 21 23
M  V30 23 2 23 24
M  V30 24 1 13 5
M  V30 25 1 24 18
M  V30 26 1 12 7
M  V30 27 1 1 25
M  V30 28 1 1 26
M  V30 29 1 2 27
M  V30 30 1 8 28
M  V30 31 1 10 29
M  V30 32 1 11 30
M  V30 33 1 13 31
M  V30 34 1 15 32
M  V30 35 1 15 33
M  V30 36 1 19 34
M  V30 37 1 20 35
M  V30 38 1 23 36
M  V30 39 1 24 37
M  V30 END BOND
M  V30 END CTAB
M  END
