
     RDKit          3D

  0  0  0  0  0  0  0  0  0  0999 V3000
M  V30 BEGIN CTAB
M  V30 COUNTS 67 69 0 0 0
M  V30 BEGIN ATOM
M  V30 1 C 9.62883 -2.12993 1.28777 0
M  V30 2 O 8.61042 -1.42278 1.92474 0
M  V30 3 C 7.42514 -1.04484 1.35243 0
M  V30 4 C 7.07666 -1.31675 0.0539236 0
M  V30 5 C 5.85706 -0.915959 -0.499947 0
M  V30 6 O 5.59702 -1.2321 -1.80267 0
M  V30 7 C 6.42568 -1.93024 -2.68211 0
M  V30 8 C 4.94326 -0.224398 0.239635 0
M  V30 9 C 3.64284 0.24888 -0.220667 0
M  V30 10 C 3.1102 0.113217 -1.40097 0
M  V30 11 S 1.50585 0.761273 -1.77511 0
M  V30 12 O 1.05734 0.236996 -3.08355 0
M  V30 13 O 1.62813 2.25701 -1.81196 0
M  V30 14 C 0.390549 0.347142 -0.457976 0
M  V30 15 C -0.97527 0.866871 -0.71774 0
M  V30 16 C -1.30483 2.12896 -0.267762 0
M  V30 17 C -2.57223 2.66317 -0.486083 0
M  V30 18 C -3.52963 1.94638 -1.15648 0
M  V30 19 O -4.77834 2.52259 -1.34908 0
M  V30 20 C -5.11928 3.80081 -0.895902 0
M  V30 21 C -3.21468 0.686084 -1.61093 0
M  V30 22 N -4.18179 -0.0145529 -2.33829 0
M  V30 23 S -5.10332 -1.37521 -1.93741 0
M  V30 24 O -4.18056 -2.53026 -1.61743 0
M  V30 25 O -5.92915 -1.86971 -3.11989 0
M  V30 26 C -6.1934 -1.199 -0.590545 0
M  V30 27 C -5.77597 -1.02133 0.696994 0
M  V30 28 N -4.37522 -1.03659 1.01203 0
M  V30 29 C -6.69515 -0.851281 1.74478 0
M  V30 30 C -8.04977 -0.856816 1.52492 0
M  V30 31 N -8.99554 -0.685159 2.58239 0
M  V30 32 C -8.44644 -1.0388 0.218225 0
M  V30 33 C -7.58425 -1.20638 -0.823819 0
M  V30 34 C -1.9369 0.153732 -1.38802 0
M  V30 35 C 5.29998 0.0538528 1.56872 0
M  V30 36 O 4.43502 0.746565 2.38127 0
M  V30 37 C 4.72694 1.0573 3.71368 0
M  V30 38 C 6.49547 -0.345219 2.09328 0
M  V30 39 H 9.27866 -2.83718 0.516152 0
M  V30 40 H 10.1511 -2.74901 2.06219 0
M  V30 41 H 10.3857 -1.47908 0.820335 0
M  V30 42 H 7.79408 -1.86827 -0.552391 0
M  V30 43 H 5.80024 -2.20048 -3.57561 0
M  V30 44 H 6.81995 -2.88081 -2.23965 0
M  V30 45 H 7.28227 -1.35027 -3.06489 0
M  V30 46 H 3.00412 0.797512 0.505689 0
M  V30 47 H 3.61877 -0.385016 -2.16805 0
M  V30 48 H 0.310445 -0.777266 -0.458703 0
M  V30 49 H 0.759779 0.642191 0.521096 0
M  V30 50 H -0.574616 2.72273 0.264753 0
M  V30 51 H -2.82686 3.6659 -0.125833 0
M  V30 52 H -6.11443 4.06059 -1.3122 0
M  V30 53 H -4.4176 4.58498 -1.25992 0
M  V30 54 H -5.14792 3.76652 0.21175 0
M  V30 55 H -4.35845 0.398187 -3.32323 0
M  V30 56 H -3.85724 -1.94041 0.843295 0
M  V30 57 H -3.86056 -0.230288 1.38561 0
M  V30 58 H -6.29509 -0.714766 2.739 0
M  V30 59 H -8.86772 0.113044 3.25064 0
M  V30 60 H -9.80647 -1.30508 2.73147 0
M  V30 61 H -9.53962 -1.03866 0.0755238 0
M  V30 62 H -7.93043 -1.34706 -1.83871 0
M  V30 63 H -1.7009 -0.829648 -1.74619 0
M  V30 64 H 3.83881 1.48533 4.22042 0
M  V30 65 H 5.02562 0.166913 4.29741 0
M  V30 66 H 5.56745 1.80639 3.73481 0
M  V30 67 H 6.74615 -0.116512 3.1248 0
M  V30 END ATOM
M  V30 BEGIN BOND
M  V30 1 1 1 2
M  V30 2 1 2 3
M  V30 3 2 3 4
M  V30 4 1 4 5
M  V30 5 1 5 6
M  V30 6 1 6 7
M  V30 7 2 5 8
M  V30 8 1 8 9
M  V30 9 2 9 10
M  V30 10 1 10 11
M  V30 11 2 11 12
M  V30 12 2 11 13
M  V30 13 1 11 14
M  V30 14 1 14 15
M  V30 15 2 15 16
M  V30 16 1 16 17
M  V30 17 2 17 18
M  V30 18 1 18 19
M  V30 19 1 19 20
M  V30 20 1 18 21
M  V30 21 1 21 22
M  V30 22 1 22 23
M  V30 23 2 23 24
M  V30 24 2 23 25
M  V30 25 1 23 26
M  V30 26 2 26 27
M  V30 27 1 27 28
M  V30 28 1 27 29
M  V30 29 2 29 30
M  V30 30 1 30 31
M  V30 31 1 30 32
M  V30 32 2 32 33
M  V30 33 2 21 34
M  V30 34 1 8 35
M  V30 35 1 35 36
M  V30 36 1 36 37
M  V30 37 2 35 38
M  V30 38 1 38 3
M  V30 39 1 34 15
M  V30 40 1 33 26
M  V30 41 1 1 39
M  V30 42 1 1 40
M  V30 43 1 1 41
M  V30 44 1 4 42
M  V30 45 1 7 43
M  V30 46 1 7 44
M  V30 47 1 7 45
M  V30 48 1 9 46
M  V30 49 1 10 47
M  V30 50 1 14 48
M  V30 51 1 14 49
M  V30 52 1 16 50
M  V30 53 1 17 51
M  V30 54 1 20 52
M  V30 55 1 20 53
M  V30 56 1 20 54
M  V30 57 1 22 55
M  V30 58 1 28 56
M  V30 59 1 28 57
M  V30 60 1 29 58
M  V30 61 1 31 59
M  V30 62 1 31 60
M  V30 63 1 32 61
M  V30 64 1 33 62
M  V30 65 1 34 63
M  V30 66 1 37 64
M  V30 67 1 37 65
M  V30 68 1 37 66
M  V30 69 1 38 67
M  V30 END BOND
M  V30 END CTAB
M  END
