
     RDKit          3D

  0  0  0  0  0  0  0  0  0  0999 V3000
M  V30 BEGIN CTAB
M  V30 COUNTS 34 35 0 0 0
M  V30 BEGIN ATOM
M  V30 1 C 5.20163 1.34074 -0.443972 0
M  V30 2 O 3.81685 1.28781 -0.511947 0
M  V30 3 C 2.95677 0.392205 0.054962 0
M  V30 4 C 1.6051 0.577886 -0.177449 0
M  V30 5 C 0.690754 -0.295458 0.369988 0
M  V30 6 C 1.14248 -1.34548 1.14459 0
M  V30 7 N 0.255987 -2.28751 1.74364 0
M  V30 8 C 2.48778 -1.52637 1.37284 0
M  V30 9 C 3.42152 -0.645302 0.821241 0
M  V30 10 C -0.731012 -0.111198 0.136457 0
M  V30 11 C -1.44755 0.937079 0.695748 0
M  V30 12 C -2.8159 1.10492 0.46611 0
M  V30 13 O -3.50673 2.15985 1.03645 0
M  V30 14 C -4.88418 2.3879 0.845358 0
M  V30 15 C -3.42536 0.178588 -0.344227 0
M  V30 16 C -2.74073 -0.886664 -0.923851 0
M  V30 17 C -1.38424 -1.02062 -0.673362 0
M  V30 18 N -0.663714 -2.10113 -1.25486 0
M  V30 19 H 5.57659 2.37203 -0.236866 0
M  V30 20 H 5.63753 0.706731 0.336899 0
M  V30 21 H 5.62124 1.10619 -1.46197 0
M  V30 22 H 1.3147 1.41885 -0.792737 0
M  V30 23 H -0.554676 -2.03635 2.32672 0
M  V30 24 H 0.462953 -3.30708 1.56444 0
M  V30 25 H 2.85819 -2.34393 1.97674 0
M  V30 26 H 4.47709 -0.802129 1.01051 0
M  V30 27 H -0.930224 1.62727 1.31572 0
M  V30 28 H -5.44059 1.8396 1.65581 0
M  V30 29 H -5.22322 2.13615 -0.168901 0
M  V30 30 H -5.14864 3.46333 1.01652 0
M  V30 31 H -4.50129 0.293095 -0.535039 0
M  V30 32 H -3.28316 -1.57944 -1.55258 0
M  V30 33 H 0.25821 -1.9999 -1.71791 0
M  V30 34 H -1.10416 -3.04166 -1.20266 0
M  V30 END ATOM
M  V30 BEGIN BOND
M  V30 1 1 1 2
M  V30 2 1 2 3
M  V30 3 2 3 4
M  V30 4 1 4 5
M  V30 5 2 5 6
M  V30 6 1 6 7
M  V30 7 1 6 8
M  V30 8 2 8 9
M  V30 9 1 5 10
M  V30 10 2 10 11
M  V30 11 1 11 12
M  V30 12 1 12 13
M  V30 13 1 13 14
M  V30 14 2 12 15
M  V30 15 1 15 16
M  V30 16 2 16 17
M  V30 17 1 17 18
M  V30 18 1 9 3
M  V30 19 1 17 10
M  V30 20 1 1 19
M  V30 21 1 1 20
M  V30 22 1 1 21
M  V30 23 1 4 22
M  V30 24 1 7 23
M  V30 25 1 7 24
M  V30 26 1 8 25
M  V30 27 1 9 26
M  V30 28 1 11 27
M  V30 29 1 14 28
M  V30 30 1 14 29
M  V30 31 1 14 30
M  V30 32 1 15 31
M  V30 33 1 16 32
M  V30 34 1 18 33
M  V30 35 1 18 34
M  V30 END BOND
M  V30 END CTAB
M  END
