
     RDKit          3D

  0  0  0  0  0  0  0  0  0  0999 V3000
M  V30 BEGIN CTAB
M  V30 COUNTS 48 51 0 0 0
M  V30 BEGIN ATOM
M  V30 1 N -5.1548 3.30052 0.405825 0
M  V30 2 C -4.17899 2.24454 0.21313 0 CFG=2
M  V30 3 C -4.23899 1.59802 -1.11761 0
M  V30 4 C -4.44826 0.273998 -0.49482 0 CFG=2
M  V30 5 C -4.55307 0.938971 0.857907 0
M  V30 6 C -3.36735 -0.703035 -0.582288 0
M  V30 7 C -2.07737 -0.408961 -0.207621 0
M  V30 8 C -1.04606 -1.30459 -0.278995 0
M  V30 9 N -1.3656 -2.54297 -0.754165 0
M  V30 10 C -2.61788 -2.85586 -1.12688 0
M  V30 11 N -3.61272 -1.93981 -1.04092 0
M  V30 12 N -2.8738 -4.15415 -1.60798 0
M  V30 13 N 0.280334 -1.00261 0.106839 0
M  V30 14 C 1.29216 -2.03277 -0.0318297 0
M  V30 15 C 2.59179 -1.50771 -0.619395 0
M  V30 16 N 2.85172 -0.146331 -0.220279 0
M  V30 17 C 1.75744 0.782761 -0.352239 0
M  V30 18 C 0.697771 0.254336 0.628555 0
M  V30 19 C 4.11038 0.282728 0.26446 0
M  V30 20 C 4.27431 1.46688 0.967752 0
M  V30 21 C 5.48965 1.91281 1.43838 0
M  V30 22 C 6.61778 1.16737 1.21562 0
M  V30 23 C 6.46729 -0.0145088 0.516259 0
M  V30 24 C 5.26372 -0.47239 0.0406864 0
M  V30 25 Cl 7.92386 -0.950101 0.244153 0
M  V30 26 F 7.84783 1.56487 1.66143 0
M  V30 27 H -4.67 4.18012 0.528099 0
M  V30 28 H -5.89854 3.29768 -0.280747 0
M  V30 29 H -3.16556 2.55331 0.569042 0
M  V30 30 H -3.36322 1.71979 -1.78238 0
M  V30 31 H -5.13896 1.96069 -1.68763 0
M  V30 32 H -5.40781 -0.17331 -0.849969 0
M  V30 33 H -5.61776 0.905668 1.21156 0
M  V30 34 H -3.83236 0.562214 1.61299 0
M  V30 35 H -1.89396 0.573082 0.153539 0
M  V30 36 H -2.69758 -4.37563 -2.60149 0
M  V30 37 H -3.23559 -4.87971 -0.97002 0
M  V30 38 H 1.55281 -2.46925 0.962665 0
M  V30 39 H 0.912683 -2.81111 -0.72243 0
M  V30 40 H 3.37477 -2.22505 -0.309122 0
M  V30 41 H 2.44706 -1.52439 -1.73791 0
M  V30 42 H 1.35195 0.586926 -1.39806 0
M  V30 43 H 1.99085 1.83007 -0.213182 0
M  V30 44 H 1.26936 0.0493223 1.57898 0
M  V30 45 H -0.0583256 0.982083 0.876434 0
M  V30 46 H 3.37867 2.07877 1.16387 0
M  V30 47 H 5.58179 2.83687 1.98056 0
M  V30 48 H 5.18859 -1.41016 -0.510464 0
M  V30 END ATOM
M  V30 BEGIN BOND
M  V30 1 1 1 2
M  V30 2 1 2 3
M  V30 3 1 3 4
M  V30 4 1 4 5
M  V30 5 1 4 6
M  V30 6 2 6 7
M  V30 7 1 7 8
M  V30 8 2 8 9
M  V30 9 1 9 10
M  V30 10 2 10 11
M  V30 11 1 10 12
M  V30 12 1 8 13
M  V30 13 1 13 14
M  V30 14 1 14 15
M  V30 15 1 15 16
M  V30 16 1 16 17
M  V30 17 1 17 18
M  V30 18 1 16 19
M  V30 19 2 19 20
M  V30 20 1 20 21
M  V30 21 2 21 22
M  V30 22 1 22 23
M  V30 23 2 23 24
M  V30 24 1 23 25
M  V30 25 1 22 26
M  V30 26 1 5 2
M  V30 27 1 11 6
M  V30 28 1 18 13
M  V30 29 1 24 19
M  V30 30 1 1 27
M  V30 31 1 1 28
M  V30 32 1 2 29 CFG=1
M  V30 33 1 3 30
M  V30 34 1 3 31
M  V30 35 1 4 32 CFG=3
M  V30 36 1 5 33
M  V30 37 1 5 34
M  V30 38 1 7 35
M  V30 39 1 12 36
M  V30 40 1 12 37
M  V30 41 1 14 38
M  V30 42 1 14 39
M  V30 43 1 15 40
M  V30 44 1 15 41
M  V30 45 1 17 42
M  V30 46 1 17 43
M  V30 47 1 18 44
M  V30 48 1 18 45
M  V30 49 1 20 46
M  V30 50 1 21 47
M  V30 51 1 24 48
M  V30 END BOND
M  V30 END CTAB
M  END
