
     RDKit          3D

  0  0  0  0  0  0  0  0  0  0999 V3000
M  V30 BEGIN CTAB
M  V30 COUNTS 19 19 0 0 0
M  V30 BEGIN ATOM
M  V30 1 C 3.29608 -0.0863882 0.588002 0
M  V30 2 O 2.52962 0.850928 -0.132402 0
M  V30 3 C 1.14973 0.627441 -0.233318 0
M  V30 4 N 0.561362 -0.441862 0.33323 0
M  V30 5 C -0.758519 -0.689623 0.257968 0
M  V30 6 N -1.32069 -1.842 0.881091 0
M  V30 7 C -1.57478 0.195316 -0.438314 0
M  V30 8 N -2.96305 -0.0520347 -0.52578 0
M  V30 9 C -0.980618 1.297 -1.02412 0
M  V30 10 C 0.3635 1.53255 -0.936979 0
M  V30 11 H 4.1162 -0.459596 -0.0592149 0
M  V30 12 H 2.68029 -0.928401 0.954341 0
M  V30 13 H 3.68472 0.439142 1.49947 0
M  V30 14 H -2.18094 -2.2734 0.473804 0
M  V30 15 H -0.923478 -2.29211 1.73248 0
M  V30 16 H -3.3597 -0.598884 -1.30805 0
M  V30 17 H -3.59802 0.318197 0.202956 0
M  V30 18 H -1.57348 2.01441 -1.57655 0
M  V30 19 H 0.85179 2.38932 -1.38798 0
M  V30 END ATOM
M  V30 BEGIN BOND
M  V30 1 1 1 2
M  V30 2 1 2 3
M  V30 3 2 3 4
M  V30 4 1 4 5
M  V30 5 1 5 6
M  V30 6 2 5 7
M  V30 7 1 7 8
M  V30 8 1 7 9
M  V30 9 2 9 10
M  V30 10 1 10 3
M  V30 11 1 1 11
M  V30 12 1 1 12
M  V30 13 1 1 13
M  V30 14 1 6 14
M  V30 15 1 6 15
M  V30 16 1 8 16
M  V30 17 1 8 17
M  V30 18 1 9 18
M  V30 19 1 10 19
M  V30 END BOND
M  V30 END CTAB
M  END
