
     RDKit          3D

  0  0  0  0  0  0  0  0  0  0999 V3000
M  V30 BEGIN CTAB
M  V30 COUNTS 28 28 0 0 0
M  V30 BEGIN ATOM
M  V30 1 C 4.34769 0.423358 -0.504767 0
M  V30 2 C 3.28732 -0.549543 -0.0838067 0
M  V30 3 C 1.87492 0.0559047 -0.198638 0
M  V30 4 C 0.941482 -1.01097 0.24591 0
M  V30 5 C -0.481892 -0.680068 0.216117 0
M  V30 6 N -1.53811 -1.54152 0.27894 0
M  V30 7 C -2.67554 -0.837134 0.218641 0
M  V30 8 N -2.39962 0.462037 0.11801 0
M  V30 9 C -1.05008 0.570473 0.115681 0
M  V30 10 N -0.416869 1.83069 0.0197574 0
M  V30 11 N -3.34174 1.47597 0.0332318 0
M  V30 12 C -4.08336 -1.38766 0.257545 0
M  V30 13 H 5.29237 0.127595 -0.0149625 0
M  V30 14 H 4.06273 1.46631 -0.280021 0
M  V30 15 H 4.47338 0.301194 -1.61935 0
M  V30 16 H 3.41826 -0.898505 0.97861 0
M  V30 17 H 3.28587 -1.48441 -0.688535 0
M  V30 18 H 1.7198 0.451065 -1.20051 0
M  V30 19 H 1.90936 0.907708 0.536016 0
M  V30 20 H 1.28452 -1.41496 1.21163 0
M  V30 21 H 1.07995 -1.86403 -0.481558 0
M  V30 22 H -0.110427 2.30952 0.876864 0
M  V30 23 H -0.268312 2.25641 -0.902307 0
M  V30 24 H -3.80644 1.66576 -0.86069 0
M  V30 25 H -3.56456 2.02756 0.86889 0
M  V30 26 H -4.36122 -1.47047 1.3384 0
M  V30 27 H -4.78695 -0.755705 -0.304702 0
M  V30 28 H -4.09252 -2.43657 -0.120337 0
M  V30 END ATOM
M  V30 BEGIN BOND
M  V30 1 1 1 2
M  V30 2 1 2 3
M  V30 3 1 3 4
M  V30 4 1 4 5
M  V30 5 1 5 6
M  V30 6 2 6 7
M  V30 7 1 7 8
M  V30 8 1 8 9
M  V30 9 1 9 10
M  V30 10 1 8 11
M  V30 11 1 7 12
M  V30 12 2 9 5
M  V30 13 1 1 13
M  V30 14 1 1 14
M  V30 15 1 1 15
M  V30 16 1 2 16
M  V30 17 1 2 17
M  V30 18 1 3 18
M  V30 19 1 3 19
M  V30 20 1 4 20
M  V30 21 1 4 21
M  V30 22 1 10 22
M  V30 23 1 10 23
M  V30 24 1 11 24
M  V30 25 1 11 25
M  V30 26 1 12 26
M  V30 27 1 12 27
M  V30 28 1 12 28
M  V30 END BOND
M  V30 END CTAB
M  END
