
     RDKit          3D

  0  0  0  0  0  0  0  0  0  0999 V3000
M  V30 BEGIN CTAB
M  V30 COUNTS 29 30 0 0 0
M  V30 BEGIN ATOM
M  V30 1 Cl 5.32596 -2.41751 0.0243949 0
M  V30 2 C 4.4212 -0.913507 -0.0296761 0
M  V30 3 C 5.00169 0.239627 -0.50856 0
M  V30 4 C 4.29496 1.42243 -0.552748 0
M  V30 5 Cl 5.07267 2.87706 -1.17243 0
M  V30 6 C 2.97175 1.46011 -0.107634 0
M  V30 7 C 2.3791 0.32062 0.372115 0
M  V30 8 C 3.11065 -0.841047 0.402656 0
M  V30 9 C 1.00347 0.339312 0.839828 0
M  V30 10 O 0.351784 1.42284 0.800822 0
M  V30 11 O 0.346023 -0.763193 1.33286 0
M  V30 12 C -0.961485 -0.83676 1.79866 0
M  V30 13 C -2.00518 -0.485182 0.814515 0
M  V30 14 N -2.56398 0.725361 0.679108 0
M  V30 15 C -3.51902 1.01462 -0.233891 0
M  V30 16 N -4.08041 2.31901 -0.33615 0
M  V30 17 N -3.91054 0.00191881 -1.04143 0
M  V30 18 C -3.39107 -1.21761 -0.951622 0
M  V30 19 N -2.44469 -1.44912 -0.0257923 0
M  V30 20 N -3.80628 -2.29842 -1.81066 0
M  V30 21 H 6.04011 0.256258 -0.869069 0
M  V30 22 H 2.45553 2.42049 -0.163283 0
M  V30 23 H 2.64187 -1.7463 0.783079 0
M  V30 24 H -1.12851 -0.207544 2.72211 0
M  V30 25 H -1.1059 -1.89126 2.17971 0
M  V30 26 H -3.96997 2.93735 -1.16398 0
M  V30 27 H -4.63357 2.65949 0.478687 0
M  V30 28 H -4.25982 -3.13623 -1.43011 0
M  V30 29 H -3.63636 -2.21282 -2.83151 0
M  V30 END ATOM
M  V30 BEGIN BOND
M  V30 1 1 1 2
M  V30 2 2 2 3
M  V30 3 1 3 4
M  V30 4 1 4 5
M  V30 5 2 4 6
M  V30 6 1 6 7
M  V30 7 2 7 8
M  V30 8 1 7 9
M  V30 9 2 9 10
M  V30 10 1 9 11
M  V30 11 1 11 12
M  V30 12 1 12 13
M  V30 13 2 13 14
M  V30 14 1 14 15
M  V30 15 1 15 16
M  V30 16 2 15 17
M  V30 17 1 17 18
M  V30 18 2 18 19
M  V30 19 1 18 20
M  V30 20 1 8 2
M  V30 21 1 19 13
M  V30 22 1 3 21
M  V30 23 1 6 22
M  V30 24 1 8 23
M  V30 25 1 12 24
M  V30 26 1 12 25
M  V30 27 1 16 26
M  V30 28 1 16 27
M  V30 29 1 20 28
M  V30 30 1 20 29
M  V30 END BOND
M  V30 END CTAB
M  END
