
     RDKit          3D

  0  0  0  0  0  0  0  0  0  0999 V3000
M  V30 BEGIN CTAB
M  V30 COUNTS 16 16 0 0 0
M  V30 BEGIN ATOM
M  V30 1 N 2.64459 -0.207163 0.0994115 0
M  V30 2 C 1.25243 0.0964418 0.0399633 0
M  V30 3 C 0.3577 -0.947216 0.0492967 0
M  V30 4 C -1.01057 -0.715581 -0.00656834 0
M  V30 5 N -1.94698 -1.7788 0.0020703 0
M  V30 6 C -1.4199 0.620806 -0.0719049 0
M  V30 7 C -0.52269 1.66603 -0.0812124 0
M  V30 8 C 0.831822 1.41768 -0.025179 0
M  V30 9 I -1.12011 3.68138 -0.179017 0
M  V30 10 Cl -3.13022 0.963024 -0.143771 0
M  V30 11 H 3.33331 0.380006 0.62599 0
M  V30 12 H 3.03152 -1.04318 -0.390866 0
M  V30 13 H 0.66975 -1.97785 0.099562 0
M  V30 14 H -1.66603 -2.71056 0.351943 0
M  V30 15 H -2.90858 -1.61801 -0.342055 0
M  V30 16 H 1.60397 2.17299 -0.0276637 0
M  V30 END ATOM
M  V30 BEGIN BOND
M  V30 1 1 1 2
M  V30 2 2 2 3
M  V30 3 1 3 4
M  V30 4 1 4 5
M  V30 5 2 4 6
M  V30 6 1 6 7
M  V30 7 2 7 8
M  V30 8 1 7 9
M  V30 9 1 6 10
M  V30 10 1 8 2
M  V30 11 1 1 11
M  V30 12 1 1 12
M  V30 13 1 3 13
M  V30 14 1 5 14
M  V30 15 1 5 15
M  V30 16 1 8 16
M  V30 END BOND
M  V30 END CTAB
M  END
