
     RDKit          3D

  0  0  0  0  0  0  0  0  0  0999 V3000
M  V30 BEGIN CTAB
M  V30 COUNTS 25 25 0 0 0
M  V30 BEGIN ATOM
M  V30 1 C 4.04412 -0.280251 -1.35826 0
M  V30 2 O 2.87287 -0.977967 -0.894668 0
M  V30 3 C 2.19337 -0.540757 0.262043 0
M  V30 4 O 2.66552 0.480749 0.854622 0
M  V30 5 C 0.989468 -1.22695 0.766935 0
M  V30 6 C -0.279077 -0.568195 0.397755 0
M  V30 7 C -1.09867 -1.12097 -0.591766 0
M  V30 8 C -2.2887 -0.611225 -0.973572 0
M  V30 9 I -3.49504 -1.50089 -2.46376 0
M  V30 10 C -2.73569 0.550257 -0.343751 0
M  V30 11 C -1.95064 1.13083 0.64037 0
M  V30 12 C -0.737166 0.574344 1.00744 0
M  V30 13 N 0.0227916 1.20827 2.05298 0
M  V30 14 N -3.96508 1.14302 -0.696144 0
M  V30 15 H 4.37137 -0.685712 -2.33527 0
M  V30 16 H 3.90459 0.804155 -1.36728 0
M  V30 17 H 4.83861 -0.479382 -0.587922 0
M  V30 18 H 0.956994 -2.29518 0.444452 0
M  V30 19 H 0.993396 -1.17732 1.91007 0
M  V30 20 H -0.721821 -2.01477 -1.05504 0
M  V30 21 H -2.25816 2.03062 1.15582 0
M  V30 22 H 0.453838 2.10672 1.83198 0
M  V30 23 H 0.0797342 0.710732 2.96498 0
M  V30 24 H -4.30348 1.15963 -1.67368 0
M  V30 25 H -4.55314 1.58023 0.0516744 0
M  V30 END ATOM
M  V30 BEGIN BOND
M  V30 1 1 1 2
M  V30 2 1 2 3
M  V30 3 2 3 4
M  V30 4 1 3 5
M  V30 5 1 5 6
M  V30 6 2 6 7
M  V30 7 1 7 8
M  V30 8 1 8 9
M  V30 9 2 8 10
M  V30 10 1 10 11
M  V30 11 2 11 12
M  V30 12 1 12 13
M  V30 13 1 10 14
M  V30 14 1 12 6
M  V30 15 1 1 15
M  V30 16 1 1 16
M  V30 17 1 1 17
M  V30 18 1 5 18
M  V30 19 1 5 19
M  V30 20 1 7 20
M  V30 21 1 11 21
M  V30 22 1 13 22
M  V30 23 1 13 23
M  V30 24 1 14 24
M  V30 25 1 14 25
M  V30 END BOND
M  V30 END CTAB
M  END
