
     RDKit          3D

  0  0  0  0  0  0  0  0  0  0999 V3000
M  V30 BEGIN CTAB
M  V30 COUNTS 42 45 0 0 0
M  V30 BEGIN ATOM
M  V30 1 N -1.99062 4.66254 1.87108 0
M  V30 2 C -1.16742 3.59266 1.43381 0
M  V30 3 N 0.26719 3.71906 1.47574 0
M  V30 4 N -1.71917 2.52874 1.00766 0
M  V30 5 C -1.03604 1.3863 0.541984 0
M  V30 6 N 0.316789 1.28954 0.494412 0
M  V30 7 C 0.954456 0.193089 0.0476062 0
M  V30 8 N 0.208679 -0.845995 -0.367344 0
M  V30 9 C -1.13534 -0.827237 -0.351324 0
M  V30 10 C -1.77923 0.309747 0.111891 0
M  V30 11 C -3.1535 0.401804 0.157755 0
M  V30 12 C -3.92859 -0.65899 -0.265717 0
M  V30 13 C -3.30274 -1.81752 -0.737522 0
M  V30 14 C -1.92381 -1.88179 -0.772198 0
M  V30 15 C -1.32595 -3.02616 -1.23812 0
M  V30 16 C -2.10702 -4.07833 -1.65808 0
M  V30 17 C -3.48238 -4.00345 -1.61914 0
M  V30 18 C -4.08673 -2.87053 -1.15781 0
M  V30 19 N 2.38012 0.114445 0.00695424 0
M  V30 20 C 3.24151 1.17872 0.431151 0
M  V30 21 C 4.52931 0.520969 0.939463 0
M  V30 22 O 5.19667 -0.162102 -0.0440881 0
M  V30 23 C 4.40818 -0.789441 -0.973295 0
M  V30 24 C 3.00972 -1.09663 -0.485741 0
M  V30 25 H -2.6943 4.49053 2.61929 0
M  V30 26 H -1.92422 5.61457 1.478 0
M  V30 27 H 0.83095 3.30953 2.23674 0
M  V30 28 H 0.693968 4.2525 0.684252 0
M  V30 29 H -3.64533 1.31267 0.528702 0
M  V30 30 H -5.00583 -0.602797 -0.2362 0
M  V30 31 H -0.246144 -3.06228 -1.25954 0
M  V30 32 H -1.58698 -4.95983 -2.01734 0
M  V30 33 H -4.05385 -4.87016 -1.96554 0
M  V30 34 H -5.18068 -2.80535 -1.12457 0
M  V30 35 H 2.85039 1.80525 1.23042 0
M  V30 36 H 3.57169 1.79824 -0.449665 0
M  V30 37 H 5.2116 1.28501 1.37058 0
M  V30 38 H 4.22576 -0.178046 1.77139 0
M  V30 39 H 4.27936 -0.184009 -1.9101 0
M  V30 40 H 4.86566 -1.76871 -1.26032 0
M  V30 41 H 2.4116 -1.46859 -1.31801 0
M  V30 42 H 3.02228 -1.80795 0.371661 0
M  V30 END ATOM
M  V30 BEGIN BOND
M  V30 1 1 1 2
M  V30 2 1 2 3
M  V30 3 2 2 4 CFG=2
M  V30 4 1 4 5
M  V30 5 2 5 6
M  V30 6 1 6 7
M  V30 7 2 7 8
M  V30 8 1 8 9
M  V30 9 2 9 10
M  V30 10 1 10 11
M  V30 11 2 11 12
M  V30 12 1 12 13
M  V30 13 2 13 14
M  V30 14 1 14 15
M  V30 15 2 15 16
M  V30 16 1 16 17
M  V30 17 2 17 18
M  V30 18 1 7 19
M  V30 19 1 19 20
M  V30 20 1 20 21
M  V30 21 1 21 22
M  V30 22 1 22 23
M  V30 23 1 23 24
M  V30 24 1 10 5
M  V30 25 1 18 13
M  V30 26 1 24 19
M  V30 27 1 14 9
M  V30 28 1 1 25
M  V30 29 1 1 26
M  V30 30 1 3 27
M  V30 31 1 3 28
M  V30 32 1 11 29
M  V30 33 1 12 30
M  V30 34 1 15 31
M  V30 35 1 16 32
M  V30 36 1 17 33
M  V30 37 1 18 34
M  V30 38 1 20 35
M  V30 39 1 20 36
M  V30 40 1 21 37
M  V30 41 1 21 38
M  V30 42 1 23 39
M  V30 43 1 23 40
M  V30 44 1 24 41
M  V30 45 1 24 42
M  V30 END BOND
M  V30 END CTAB
M  END
