
     RDKit          3D

  0  0  0  0  0  0  0  0  0  0999 V3000
M  V30 BEGIN CTAB
M  V30 COUNTS 35 36 0 0 0
M  V30 BEGIN ATOM
M  V30 1 C -5.06783 0.92304 0.532072 0
M  V30 2 N -3.84977 0.427712 -0.0325239 0
M  V30 3 C -2.81091 1.3944 0.199775 0
M  V30 4 C -1.73926 0.745282 1.03771 0
M  V30 5 N -1.22304 -0.414963 0.307837 0
M  V30 6 C -2.21246 -1.39144 -0.0429135 0
M  V30 7 C -3.55609 -0.870777 0.490019 0
M  V30 8 C 0.163545 -0.453699 0.0298564 0
M  V30 9 C 0.805479 -1.46758 -0.642372 0
M  V30 10 Cl -0.110707 -2.82974 -1.21562 0
M  V30 11 N 2.15582 -1.42911 -0.871783 0
M  V30 12 C 2.90132 -0.422503 -0.460788 0
M  V30 13 C 4.33795 -0.349512 -0.687542 0
M  V30 14 O 5.01293 0.635932 -0.275103 0
M  V30 15 N 5.0097 -1.38344 -1.37635 0
M  V30 16 N 6.3799 -1.33685 -1.60528 0
M  V30 17 C 2.29294 0.610622 0.215728 0
M  V30 18 N 3.01709 1.72955 0.691901 0
M  V30 19 N 0.973943 0.567794 0.436941 0
M  V30 20 H -5.41403 1.7752 -0.0951133 0
M  V30 21 H -5.86557 0.161802 0.634587 0
M  V30 22 H -4.87224 1.36425 1.55062 0
M  V30 23 H -2.34361 1.70548 -0.755044 0
M  V30 24 H -3.15708 2.29666 0.747022 0
M  V30 25 H -0.925266 1.47533 1.26182 0
M  V30 26 H -2.14624 0.363807 1.99067 0
M  V30 27 H -2.06018 -2.34428 0.50187 0
M  V30 28 H -2.39313 -1.50283 -1.13048 0
M  V30 29 H -3.63346 -0.96817 1.57974 0
M  V30 30 H -4.32329 -1.57481 0.0594068 0
M  V30 31 H 4.46787 -2.20481 -1.72385 0
M  V30 32 H 6.68713 -1.99664 -2.33775 0
M  V30 33 H 6.94096 -1.46891 -0.750472 0
M  V30 34 H 3.1192 2.56558 0.105744 0
M  V30 35 H 3.43838 1.69444 1.62968 0
M  V30 END ATOM
M  V30 BEGIN BOND
M  V30 1 1 1 2
M  V30 2 1 2 3
M  V30 3 1 3 4
M  V30 4 1 4 5
M  V30 5 1 5 6
M  V30 6 1 6 7
M  V30 7 1 5 8
M  V30 8 2 8 9
M  V30 9 1 9 10
M  V30 10 1 9 11
M  V30 11 2 11 12
M  V30 12 1 12 13
M  V30 13 2 13 14
M  V30 14 1 13 15
M  V30 15 1 15 16
M  V30 16 1 12 17
M  V30 17 1 17 18
M  V30 18 2 17 19
M  V30 19 1 7 2
M  V30 20 1 19 8
M  V30 21 1 1 20
M  V30 22 1 1 21
M  V30 23 1 1 22
M  V30 24 1 3 23
M  V30 25 1 3 24
M  V30 26 1 4 25
M  V30 27 1 4 26
M  V30 28 1 6 27
M  V30 29 1 6 28
M  V30 30 1 7 29
M  V30 31 1 7 30
M  V30 32 1 15 31
M  V30 33 1 16 32
M  V30 34 1 16 33
M  V30 35 1 18 34
M  V30 36 1 18 35
M  V30 END BOND
M  V30 END CTAB
M  END
