
     RDKit          3D

  0  0  0  0  0  0  0  0  0  0999 V3000
M  V30 BEGIN CTAB
M  V30 COUNTS 21 21 0 0 0
M  V30 BEGIN ATOM
M  V30 1 N -2.08715 1.73972 -0.569855 0
M  V30 2 C -1.84752 0.47151 0.0169592 0
M  V30 3 N -2.03191 0.300123 1.28753 0
M  V30 4 N -1.80534 -0.941048 1.90546 0
M  V30 5 N -1.40484 -0.659721 -0.717657 0
M  V30 6 C -0.23854 -0.501233 -1.55856 0
M  V30 7 C 0.961191 -0.0930572 -0.743322 0
M  V30 8 C 1.88858 -0.8923 -0.131804 0
M  V30 9 C 2.87667 -0.269247 0.54443 0
M  V30 10 C 2.86833 1.09226 0.561604 0
M  V30 11 S 1.49101 1.48221 -0.359939 0
M  V30 12 Cl 3.99423 2.20294 1.33887 0
M  V30 13 H -1.5126 2.58948 -0.368573 0
M  V30 14 H -2.88748 1.81228 -1.23956 0
M  V30 15 H -1.14485 -1.59762 1.45656 0
M  V30 16 H -2.32579 -1.12285 2.79043 0
M  V30 17 H -1.88129 -1.58632 -0.674675 0
M  V30 18 H 0.052577 -1.46512 -2.04107 0
M  V30 19 H -0.421364 0.252019 -2.34727 0
M  V30 20 H 1.77996 -1.99171 -0.223405 0
M  V30 21 H 3.67612 -0.822309 1.07385 0
M  V30 END ATOM
M  V30 BEGIN BOND
M  V30 1 1 1 2
M  V30 2 2 2 3
M  V30 3 1 3 4
M  V30 4 1 2 5
M  V30 5 1 5 6
M  V30 6 1 6 7
M  V30 7 2 7 8
M  V30 8 1 8 9
M  V30 9 2 9 10
M  V30 10 1 10 11
M  V30 11 1 10 12
M  V30 12 1 11 7
M  V30 13 1 1 13
M  V30 14 1 1 14
M  V30 15 1 4 15
M  V30 16 1 4 16
M  V30 17 1 5 17
M  V30 18 1 6 18
M  V30 19 1 6 19
M  V30 20 1 8 20
M  V30 21 1 9 21
M  V30 END BOND
M  V30 END CTAB
M  END
