
     RDKit          3D

  0  0  0  0  0  0  0  0  0  0999 V3000
M  V30 BEGIN CTAB
M  V30 COUNTS 34 36 0 0 0
M  V30 BEGIN ATOM
M  V30 1 N 1.53454 2.04091 3.42277 0
M  V30 2 C 0.748649 1.6811 2.65332 0
M  V30 3 C -0.235573 1.20148 1.66881 0
M  V30 4 C -1.33135 1.8792 1.47546 0
M  V30 5 N -1.47721 3.07885 2.27643 0
M  V30 6 O -2.32283 1.52164 0.57693 0
M  V30 7 C -2.06713 0.327799 -0.150093 0
M  V30 8 C -0.949904 -0.414889 0.00848962 0
M  V30 9 C 0.0871509 -0.0155784 0.969341 0
M  V30 10 C 1.44259 -0.0325941 0.378178 0
M  V30 11 C 1.83913 0.922335 -0.510196 0
M  V30 12 C 3.10414 0.916739 -1.07285 0
M  V30 13 Br 3.65983 2.25975 -2.32127 0
M  V30 14 C 3.98394 -0.0828296 -0.723217 0
M  V30 15 C 3.59152 -1.04767 0.170734 0
M  V30 16 C 2.31465 -1.02953 0.729482 0
M  V30 17 O 2.00178 -2.03639 1.61961 0
M  V30 18 C -0.772585 -1.58541 -0.751538 0
M  V30 19 C -1.73757 -1.94513 -1.63519 0
M  V30 20 C -2.88938 -1.21697 -1.82654 0
M  V30 21 C -3.03189 -0.0828126 -1.07153 0
M  V30 22 N -3.86811 -1.62624 -2.75586 0
M  V30 23 H -1.52907 3.08384 3.30053 0
M  V30 24 H -1.53039 3.97485 1.76233 0
M  V30 25 H 0.0913368 -0.847327 1.76317 0
M  V30 26 H 1.19263 1.74797 -0.834941 0
M  V30 27 H 4.99244 -0.098889 -1.16314 0
M  V30 28 H 4.2939 -1.83425 0.441368 0
M  V30 29 H 2.69262 -2.73347 1.82883 0
M  V30 30 H 0.149227 -2.162 -0.594503 0
M  V30 31 H -1.58914 -2.86227 -2.22461 0
M  V30 32 H -3.92572 0.554583 -1.16605 0
M  V30 33 H -4.59612 -2.33441 -2.54235 0
M  V30 34 H -3.86609 -1.20239 -3.7019 0
M  V30 END ATOM
M  V30 BEGIN BOND
M  V30 1 3 1 2
M  V30 2 1 2 3
M  V30 3 2 3 4
M  V30 4 1 4 5
M  V30 5 1 4 6
M  V30 6 1 6 7
M  V30 7 2 7 8
M  V30 8 1 8 9
M  V30 9 1 9 10
M  V30 10 2 10 11
M  V30 11 1 11 12
M  V30 12 1 12 13
M  V30 13 2 12 14
M  V30 14 1 14 15
M  V30 15 2 15 16
M  V30 16 1 16 17
M  V30 17 1 8 18
M  V30 18 2 18 19
M  V30 19 1 19 20
M  V30 20 2 20 21
M  V30 21 1 20 22
M  V30 22 1 9 3
M  V30 23 1 16 10
M  V30 24 1 21 7
M  V30 25 1 5 23
M  V30 26 1 5 24
M  V30 27 1 9 25
M  V30 28 1 11 26
M  V30 29 1 14 27
M  V30 30 1 15 28
M  V30 31 1 17 29
M  V30 32 1 18 30
M  V30 33 1 19 31
M  V30 34 1 21 32
M  V30 35 1 22 33
M  V30 36 1 22 34
M  V30 END BOND
M  V30 END CTAB
M  END
