
     RDKit          3D

  0  0  0  0  0  0  0  0  0  0999 V3000
M  V30 BEGIN CTAB
M  V30 COUNTS 15 15 0 0 0
M  V30 BEGIN ATOM
M  V30 1 N 2.23607 -0.112087 -0.0455484 0
M  V30 2 C 0.924313 0.460149 -0.0324407 0
M  V30 3 N 0.718812 1.7851 -0.136627 0
M  V30 4 C -0.514597 2.32166 -0.124146 0
M  V30 5 N -1.54672 1.46893 -0.0017446 0
M  V30 6 C -1.39876 0.136665 0.105801 0
M  V30 7 O -2.48272 -0.724539 0.231401 0
M  V30 8 C -0.134541 -0.417467 0.0933638 0
M  V30 9 N 0.0812437 -1.8157 0.203318 0
M  V30 10 H 2.7088 -0.256112 -0.967087 0
M  V30 11 H 2.66091 -0.360093 0.873769 0
M  V30 12 H -0.684604 3.39395 -0.208291 0
M  V30 13 H -2.91989 -1.19415 -0.549226 0
M  V30 14 H 0.47477 -2.17925 1.09914 0
M  V30 15 H -0.123081 -2.50705 -0.541679 0
M  V30 END ATOM
M  V30 BEGIN BOND
M  V30 1 1 1 2
M  V30 2 2 2 3
M  V30 3 1 3 4
M  V30 4 2 4 5
M  V30 5 1 5 6
M  V30 6 1 6 7
M  V30 7 2 6 8
M  V30 8 1 8 9
M  V30 9 1 8 2
M  V30 10 1 1 10
M  V30 11 1 1 11
M  V30 12 1 4 12
M  V30 13 1 7 13
M  V30 14 1 9 14
M  V30 15 1 9 15
M  V30 END BOND
M  V30 END CTAB
M  END
