
     RDKit          3D

  0  0  0  0  0  0  0  0  0  0999 V3000
M  V30 BEGIN CTAB
M  V30 COUNTS 33 34 0 0 0
M  V30 BEGIN ATOM
M  V30 1 N 1.05864 3.21242 0.0273272 0
M  V30 2 C -0.0295802 2.26771 -0.304234 0
M  V30 3 C 0.46426 0.907586 -0.0245473 0
M  V30 4 C 1.8146 0.761098 0.363365 0
M  V30 5 C 2.35928 -0.470442 0.656215 0
M  V30 6 O 3.67644 -0.551966 1.02834 0
M  V30 7 C 4.34361 -1.74342 1.35022 0
M  V30 8 C 1.57523 -1.58808 0.570159 0
M  V30 9 C 0.289247 -1.47865 0.203234 0
M  V30 10 C -0.29978 -0.212432 -0.104777 0
M  V30 11 C -1.67141 -0.223767 -0.558101 0
M  V30 12 C -2.3931 0.374107 -1.51977 0
M  V30 13 N -1.92586 1.11773 -2.6464 0
M  V30 14 C -3.77531 0.109294 -1.3677 0
M  V30 15 N -3.83346 -0.661987 -0.291575 0
M  V30 16 N -2.63117 -0.878834 0.208863 0
M  V30 17 C -2.41636 -1.65164 1.3983 0
M  V30 18 H 1.18238 3.32345 1.03797 0
M  V30 19 H 0.986703 4.06794 -0.526997 0
M  V30 20 H -0.100221 2.43823 -1.42549 0
M  V30 21 H -0.957589 2.51207 0.172505 0
M  V30 22 H 2.41017 1.66938 0.419594 0
M  V30 23 H 4.64251 -2.23581 0.423411 0
M  V30 24 H 5.2633 -1.52037 1.94863 0
M  V30 25 H 3.65468 -2.35652 1.97107 0
M  V30 26 H 1.99807 -2.55188 0.798442 0
M  V30 27 H -0.341811 -2.32783 0.0996528 0
M  V30 28 H -2.27226 2.085 -2.81751 0
M  V30 29 H -1.23341 0.741976 -3.33697 0
M  V30 30 H -4.56408 0.479563 -2.01461 0
M  V30 31 H -2.36387 -2.74789 1.22989 0
M  V30 32 H -1.57847 -1.31934 2.03112 0
M  V30 33 H -3.33137 -1.54671 2.07208 0
M  V30 END ATOM
M  V30 BEGIN BOND
M  V30 1 1 1 2
M  V30 2 1 2 3
M  V30 3 2 3 4
M  V30 4 1 4 5
M  V30 5 1 5 6
M  V30 6 1 6 7
M  V30 7 2 5 8
M  V30 8 1 8 9
M  V30 9 2 9 10
M  V30 10 1 10 11
M  V30 11 2 11 12
M  V30 12 1 12 13
M  V30 13 1 12 14
M  V30 14 2 14 15
M  V30 15 1 15 16
M  V30 16 1 16 17
M  V30 17 1 10 3
M  V30 18 1 16 11
M  V30 19 1 1 18
M  V30 20 1 1 19
M  V30 21 1 2 20
M  V30 22 1 2 21
M  V30 23 1 4 22
M  V30 24 1 7 23
M  V30 25 1 7 24
M  V30 26 1 7 25
M  V30 27 1 8 26
M  V30 28 1 9 27
M  V30 29 1 13 28
M  V30 30 1 13 29
M  V30 31 1 14 30
M  V30 32 1 17 31
M  V30 33 1 17 32
M  V30 34 1 17 33
M  V30 END BOND
M  V30 END CTAB
M  END
