
     RDKit          3D

  0  0  0  0  0  0  0  0  0  0999 V3000
M  V30 BEGIN CTAB
M  V30 COUNTS 25 25 0 0 0
M  V30 BEGIN ATOM
M  V30 1 C -4.03536 -0.705702 0.606975 0
M  V30 2 C -3.32152 0.498224 0.13689 0
M  V30 3 C -3.93348 1.65777 0.0275384 0
M  V30 4 C -1.87566 0.421005 -0.227007 0
M  V30 5 S -0.889516 -0.121705 1.2201 0
M  V30 6 C 0.809764 -0.181396 0.686229 0
M  V30 7 N 1.64232 0.869095 0.770238 0
M  V30 8 C 2.9242 0.811395 0.36344 0
M  V30 9 N 3.72445 1.98594 0.49702 0
M  V30 10 C 3.41509 -0.355102 -0.158623 0
M  V30 11 C 2.56379 -1.43621 -0.246736 0
M  V30 12 N 1.28769 -1.32756 0.174605 0
M  V30 13 N 3.06053 -2.66085 -0.789203 0
M  V30 14 H -5.0687 -0.789252 0.188138 0
M  V30 15 H -4.12689 -0.789161 1.68939 0
M  V30 16 H -3.48527 -1.59512 0.211676 0
M  V30 17 H -4.9932 1.73215 0.290236 0
M  V30 18 H -3.45981 2.55365 -0.307069 0
M  V30 19 H -1.47751 1.42049 -0.49654 0
M  V30 20 H -1.69453 -0.245521 -1.09085 0
M  V30 21 H 3.61834 2.7794 -0.166362 0
M  V30 22 H 4.40808 1.99974 1.28425 0
M  V30 23 H 4.44512 -0.389948 -0.481729 0
M  V30 24 H 2.70573 -2.95462 -1.70564 0
M  V30 25 H 3.75637 -3.17672 -0.210541 0
M  V30 END ATOM
M  V30 BEGIN BOND
M  V30 1 1 1 2
M  V30 2 2 2 3 CFG=2
M  V30 3 1 2 4
M  V30 4 1 4 5
M  V30 5 1 5 6
M  V30 6 2 6 7
M  V30 7 1 7 8
M  V30 8 1 8 9
M  V30 9 2 8 10
M  V30 10 1 10 11
M  V30 11 2 11 12
M  V30 12 1 11 13
M  V30 13 1 12 6
M  V30 14 1 1 14
M  V30 15 1 1 15
M  V30 16 1 1 16
M  V30 17 1 3 17
M  V30 18 1 3 18
M  V30 19 1 4 19
M  V30 20 1 4 20
M  V30 21 1 9 21
M  V30 22 1 9 22
M  V30 23 1 10 23
M  V30 24 1 13 24
M  V30 25 1 13 25
M  V30 END BOND
M  V30 END CTAB
M  END
