
     RDKit          3D

  0  0  0  0  0  0  0  0  0  0999 V3000
M  V30 BEGIN CTAB
M  V30 COUNTS 60 64 0 0 0
M  V30 BEGIN ATOM
M  V30 1 O 4.30933 -0.905887 -0.447386 0
M  V30 2 C 3.91414 -0.150594 -1.36103 0
M  V30 3 N 2.66567 0.474655 -1.27714 0
M  V30 4 C 1.77193 0.314832 -0.161458 0
M  V30 5 C 2.21591 0.109741 1.12295 0
M  V30 6 C 1.2903 -0.0724617 2.12907 0
M  V30 7 C -0.0744856 -0.0437659 1.81978 0
M  V30 8 C -0.548563 0.157875 0.55381 0
M  V30 9 C 0.423152 0.3395 -0.441992 0
M  V30 10 N -1.91278 0.166761 0.177076 0
M  V30 11 C -2.99015 -0.288164 0.911531 0
M  V30 12 O -2.86301 -0.788115 2.05049 0
M  V30 13 C -4.40847 -0.224994 0.40731 0
M  V30 14 C -4.55465 -0.997225 -0.888355 0
M  V30 15 C -5.96491 -0.816781 -1.37098 0
M  V30 16 C -6.35078 0.636864 -1.54199 0
M  V30 17 C -6.16095 1.38175 -0.249581 0
M  V30 18 C -4.72249 1.23766 0.183293 0
M  V30 19 C -7.05828 0.777511 0.795086 0
M  V30 20 C -6.76342 -0.698766 0.930418 0
M  V30 21 C -5.34722 -0.84279 1.41138 0
M  V30 22 C -6.90709 -1.44555 -0.367646 0
M  V30 23 C 4.79049 0.0724228 -2.53921 0
M  V30 24 S 6.04689 1.32757 -2.29263 0
M  V30 25 C 7.27827 0.764072 -1.11563 0
M  V30 26 N 7.23324 -0.432323 -0.538223 0
M  V30 27 C 8.11813 -0.923175 0.342018 0
M  V30 28 N 8.01168 -2.21116 0.919073 0
M  V30 29 C 9.18172 -0.100485 0.680245 0
M  V30 30 C 9.24489 1.13778 0.0947019 0
M  V30 31 N 8.3203 1.58023 -0.789447 0
M  V30 32 N 10.3183 1.97598 0.430167 0
M  V30 33 H 2.36874 1.09648 -2.07799 0
M  V30 34 H 3.27781 0.109291 1.34816 0
M  V30 35 H 1.62774 -0.233637 3.13865 0
M  V30 36 H -0.775423 -0.178694 2.64568 0
M  V30 37 H 0.0934691 0.506387 -1.47611 0
M  V30 38 H -2.14148 0.576363 -0.789731 0
M  V30 39 H -4.40496 -2.06764 -0.699862 0
M  V30 40 H -3.80957 -0.642064 -1.62909 0
M  V30 41 H -6.12355 -1.33941 -2.33702 0
M  V30 42 H -5.81746 1.09324 -2.37582 0
M  V30 43 H -7.43788 0.648999 -1.7753 0
M  V30 44 H -6.36393 2.44414 -0.420536 0
M  V30 45 H -4.0641 1.5807 -0.662486 0
M  V30 46 H -4.53283 1.79312 1.12087 0
M  V30 47 H -8.13476 0.929845 0.533188 0
M  V30 48 H -6.80225 1.24434 1.76953 0
M  V30 49 H -7.47673 -1.11123 1.67137 0
M  V30 50 H -5.11106 -1.93887 1.43656 0
M  V30 51 H -5.19168 -0.425122 2.43713 0
M  V30 52 H -7.93623 -1.40919 -0.75096 0
M  V30 53 H -6.56721 -2.4779 -0.195146 0
M  V30 54 H 5.31239 -0.849229 -2.87434 0
M  V30 55 H 4.13296 0.370039 -3.39422 0
M  V30 56 H 8.50205 -3.02731 0.509323 0
M  V30 57 H 7.43531 -2.35892 1.76854 0
M  V30 58 H 9.93283 -0.452214 1.39344 0
M  V30 59 H 10.3174 2.98882 0.211396 0
M  V30 60 H 11.1833 1.61669 0.923171 0
M  V30 END ATOM
M  V30 BEGIN BOND
M  V30 1 2 1 2
M  V30 2 1 2 3
M  V30 3 1 3 4
M  V30 4 2 4 5
M  V30 5 1 5 6
M  V30 6 2 6 7
M  V30 7 1 7 8
M  V30 8 2 8 9
M  V30 9 1 8 10
M  V30 10 1 10 11
M  V30 11 2 11 12
M  V30 12 1 11 13
M  V30 13 1 13 14
M  V30 14 1 14 15
M  V30 15 1 15 16
M  V30 16 1 16 17
M  V30 17 1 17 18
M  V30 18 1 17 19
M  V30 19 1 19 20
M  V30 20 1 20 21
M  V30 21 1 20 22
M  V30 22 1 2 23
M  V30 23 1 23 24
M  V30 24 1 24 25
M  V30 25 2 25 26
M  V30 26 1 26 27
M  V30 27 1 27 28
M  V30 28 2 27 29
M  V30 29 1 29 30
M  V30 30 2 30 31
M  V30 31 1 30 32
M  V30 32 1 9 4
M  V30 33 1 21 13
M  V30 34 1 31 25
M  V30 35 1 18 13
M  V30 36 1 22 15
M  V30 37 1 3 33
M  V30 38 1 5 34
M  V30 39 1 6 35
M  V30 40 1 7 36
M  V30 41 1 9 37
M  V30 42 1 10 38
M  V30 43 1 14 39
M  V30 44 1 14 40
M  V30 45 1 15 41
M  V30 46 1 16 42
M  V30 47 1 16 43
M  V30 48 1 17 44
M  V30 49 1 18 45
M  V30 50 1 18 46
M  V30 51 1 19 47
M  V30 52 1 19 48
M  V30 53 1 20 49
M  V30 54 1 21 50
M  V30 55 1 21 51
M  V30 56 1 22 52
M  V30 57 1 22 53
M  V30 58 1 23 54
M  V30 59 1 23 55
M  V30 60 1 28 56
M  V30 61 1 28 57
M  V30 62 1 29 58
M  V30 63 1 32 59
M  V30 64 1 32 60
M  V30 END BOND
M  V30 END CTAB
M  END
