
     RDKit          3D

  0  0  0  0  0  0  0  0  0  0999 V3000
M  V30 BEGIN CTAB
M  V30 COUNTS 45 48 0 0 0
M  V30 BEGIN ATOM
M  V30 1 N 7.10293 1.61728 0.839798 0
M  V30 2 C 6.53097 0.521297 0.142021 0
M  V30 3 C 5.171 0.253637 0.220616 0
M  V30 4 C 4.58334 -0.804726 -0.445996 0
M  V30 5 C 3.13559 -1.04109 -0.326229 0
M  V30 6 C 2.36973 -0.299064 -1.39844 0
M  V30 7 N 0.964384 -0.530221 -1.27992 0
M  V30 8 C 0.219895 -1.50093 -1.84731 0
M  V30 9 N -1.07194 -1.35826 -1.47453 0
M  V30 10 C -1.16944 -0.304173 -0.671315 0
M  V30 11 C 0.0896863 0.214516 -0.546018 0
M  V30 12 N 0.307606 1.29487 0.21157 0
M  V30 13 C -0.710618 1.87207 0.850654 0
M  V30 14 N -1.94445 1.35336 0.720117 0
M  V30 15 C -2.26277 0.286617 -0.00662619 0
M  V30 16 N -3.53989 -0.26433 -0.169486 0
M  V30 17 C -4.75937 0.119356 0.38101 0
M  V30 18 C -4.88406 0.969739 1.44261 0
M  V30 19 C -6.13652 1.35247 1.9576 0
M  V30 20 C -7.29901 0.876653 1.40272 0
M  V30 21 C -7.19853 0.0190159 0.333733 0
M  V30 22 N -8.37945 -0.49298 -0.265026 0
M  V30 23 C -5.96897 -0.344143 -0.156623 0
M  V30 24 C 5.38829 -1.63361 -1.22623 0
M  V30 25 C 6.73259 -1.35056 -1.2902 0
M  V30 26 C 7.32107 -0.303998 -0.632524 0
M  V30 27 H 6.50285 2.43855 1.11232 0
M  V30 28 H 8.09704 1.66204 1.10455 0
M  V30 29 H 4.58054 0.926026 0.840793 0
M  V30 30 H 2.96759 -2.14254 -0.42435 0
M  V30 31 H 2.80756 -0.675645 0.667006 0
M  V30 32 H 2.72508 -0.543591 -2.40217 0
M  V30 33 H 2.60256 0.789924 -1.24097 0
M  V30 34 H 0.644697 -2.25979 -2.49878 0
M  V30 35 H -0.530192 2.76092 1.47371 0
M  V30 36 H -3.60833 -1.13279 -0.82119 0
M  V30 37 H -4.02084 1.38179 1.94567 0
M  V30 38 H -6.17619 2.03696 2.80955 0
M  V30 39 H -8.25695 1.18476 1.8154 0
M  V30 40 H -8.80505 -0.0737419 -1.13229 0
M  V30 41 H -8.88745 -1.31568 0.127464 0
M  V30 42 H -5.87654 -1.02328 -1.00606 0
M  V30 43 H 4.91811 -2.459 -1.74368 0
M  V30 44 H 7.344 -2.00355 -1.90024 0
M  V30 45 H 8.37944 -0.0741828 -0.677703 0
M  V30 END ATOM
M  V30 BEGIN BOND
M  V30 1 1 1 2
M  V30 2 2 2 3
M  V30 3 1 3 4
M  V30 4 1 4 5
M  V30 5 1 5 6
M  V30 6 1 6 7
M  V30 7 1 7 8
M  V30 8 2 8 9
M  V30 9 1 9 10
M  V30 10 2 10 11
M  V30 11 1 11 12
M  V30 12 2 12 13
M  V30 13 1 13 14
M  V30 14 2 14 15
M  V30 15 1 15 16
M  V30 16 1 16 17
M  V30 17 2 17 18
M  V30 18 1 18 19
M  V30 19 2 19 20
M  V30 20 1 20 21
M  V30 21 1 21 22
M  V30 22 2 21 23
M  V30 23 2 4 24
M  V30 24 1 24 25
M  V30 25 2 25 26
M  V30 26 1 26 2
M  V30 27 1 11 7
M  V30 28 1 23 17
M  V30 29 1 15 10
M  V30 30 1 1 27
M  V30 31 1 1 28
M  V30 32 1 3 29
M  V30 33 1 5 30
M  V30 34 1 5 31
M  V30 35 1 6 32
M  V30 36 1 6 33
M  V30 37 1 8 34
M  V30 38 1 13 35
M  V30 39 1 16 36
M  V30 40 1 18 37
M  V30 41 1 19 38
M  V30 42 1 20 39
M  V30 43 1 22 40
M  V30 44 1 22 41
M  V30 45 1 23 42
M  V30 46 1 24 43
M  V30 47 1 25 44
M  V30 48 1 26 45
M  V30 END BOND
M  V30 END CTAB
M  END
