
     RDKit          3D

  0  0  0  0  0  0  0  0  0  0999 V3000
M  V30 BEGIN CTAB
M  V30 COUNTS 27 26 0 0 0
M  V30 BEGIN ATOM
M  V30 1 N 3.7123 0.524649 0.0893421 0
M  V30 2 C 2.38837 1.04203 -0.31244 0
M  V30 3 C 1.47404 -0.132937 -0.314892 0
M  V30 4 N 0.0846791 0.188769 -0.713384 0
M  V30 5 C -0.519468 0.931605 0.314753 0
M  V30 6 C -1.80519 1.59001 0.134828 0
M  V30 7 N -2.98325 0.883144 -0.189525 0
M  V30 8 C -0.525042 -1.09954 -0.961219 0
M  V30 9 C -0.727782 -1.96709 0.228792 0
M  V30 10 O -1.30599 -3.16914 -0.215659 0
M  V30 11 H 3.72423 -0.529325 0.0879698 0
M  V30 12 H 4.42035 0.867901 -0.604211 0
M  V30 13 H 2.47608 1.53423 -1.31115 0
M  V30 14 H 2.12805 1.75484 0.494028 0
M  V30 15 H 1.42448 -0.47854 0.762633 0
M  V30 16 H 1.89416 -0.906472 -0.984105 0
M  V30 17 H -0.606585 0.228762 1.21998 0
M  V30 18 H 0.18983 1.71597 0.74895 0
M  V30 19 H -2.03369 2.11024 1.13027 0
M  V30 20 H -1.70281 2.4745 -0.57183 0
M  V30 21 H -3.09103 0.616777 -1.20164 0
M  V30 22 H -3.86483 1.43154 0.0831434 0
M  V30 23 H 0.157394 -1.61873 -1.70638 0
M  V30 24 H -1.47466 -0.956232 -1.49127 0
M  V30 25 H 0.24413 -2.18084 0.695859 0
M  V30 26 H -1.43375 -1.57509 0.98715 0
M  V30 27 H -2.24402 -3.28104 0.0755738 0
M  V30 END ATOM
M  V30 BEGIN BOND
M  V30 1 1 1 2
M  V30 2 1 2 3
M  V30 3 1 3 4
M  V30 4 1 4 5
M  V30 5 1 5 6
M  V30 6 1 6 7
M  V30 7 1 4 8
M  V30 8 1 8 9
M  V30 9 1 9 10
M  V30 10 1 1 11
M  V30 11 1 1 12
M  V30 12 1 2 13
M  V30 13 1 2 14
M  V30 14 1 3 15
M  V30 15 1 3 16
M  V30 16 1 5 17
M  V30 17 1 5 18
M  V30 18 1 6 19
M  V30 19 1 6 20
M  V30 20 1 7 21
M  V30 21 1 7 22
M  V30 22 1 8 23
M  V30 23 1 8 24
M  V30 24 1 9 25
M  V30 25 1 9 26
M  V30 26 1 10 27
M  V30 END BOND
M  V30 END CTAB
M  END
