
     RDKit          3D

  0  0  0  0  0  0  0  0  0  0999 V3000
M  V30 BEGIN CTAB
M  V30 COUNTS 38 40 0 0 0
M  V30 BEGIN ATOM
M  V30 1 C -4.75231 1.15639 -1.64334 0
M  V30 2 C -4.60079 -0.011554 -0.723467 0
M  V30 3 C -3.766 -1.10333 -1.38525 0
M  V30 4 C -2.53352 -0.419901 -0.768603 0
M  V30 5 C -3.49476 0.101695 0.308753 0
M  V30 6 C -1.56998 -1.46655 -0.314602 0
M  V30 7 N -0.35878 -0.95823 0.2789 0
M  V30 8 N 0.765215 -0.657953 -0.397744 0
M  V30 9 C 1.71663 -0.208347 0.40193 0
M  V30 10 C 1.19521 -0.21018 1.68155 0
M  V30 11 C -0.117925 -0.689503 1.57024 0
M  V30 12 N -1.03622 -0.864178 2.64502 0
M  V30 13 C 3.07499 0.22933 0.109434 0
M  V30 14 C 3.54548 0.210777 -1.1862 0
M  V30 15 C 4.83103 0.618976 -1.50511 0
M  V30 16 C 5.66817 1.05719 -0.502622 0
M  V30 17 N 5.20425 1.07318 0.758731 0
M  V30 18 C 3.95043 0.675755 1.07467 0
M  V30 19 N 7.01311 1.48881 -0.804067 0
M  V30 20 H -3.8259 1.6922 -1.86234 0
M  V30 21 H -5.51439 1.84924 -1.18178 0
M  V30 22 H -5.21934 0.76192 -2.59319 0
M  V30 23 H -5.53513 -0.340623 -0.268955 0
M  V30 24 H -3.94276 -2.1172 -0.994412 0
M  V30 25 H -3.79505 -1.07241 -2.4834 0
M  V30 26 H -2.14 0.399851 -1.37206 0
M  V30 27 H -3.62061 -0.67118 1.09265 0
M  V30 28 H -3.33428 1.13211 0.617911 0
M  V30 29 H -2.10529 -2.17735 0.344235 0
M  V30 30 H -1.28574 -2.06743 -1.22541 0
M  V30 31 H 1.64627 0.0812792 2.61039 0
M  V30 32 H -1.711 -0.110725 2.90491 0
M  V30 33 H -1.01173 -1.78192 3.17064 0
M  V30 34 H 2.92329 -0.124003 -1.99507 0
M  V30 35 H 5.22453 0.614613 -2.5104 0
M  V30 36 H 3.57664 0.689988 2.10047 0
M  V30 37 H 7.31633 2.45816 -0.585975 0
M  V30 38 H 7.61993 0.76109 -1.24267 0
M  V30 END ATOM
M  V30 BEGIN BOND
M  V30 1 1 1 2
M  V30 2 1 2 3
M  V30 3 1 3 4
M  V30 4 1 4 5
M  V30 5 1 4 6
M  V30 6 1 6 7
M  V30 7 1 7 8
M  V30 8 2 8 9
M  V30 9 1 9 10
M  V30 10 2 10 11
M  V30 11 1 11 12
M  V30 12 1 9 13
M  V30 13 2 13 14
M  V30 14 1 14 15
M  V30 15 2 15 16
M  V30 16 1 16 17
M  V30 17 2 17 18
M  V30 18 1 16 19
M  V30 19 1 5 2
M  V30 20 1 11 7
M  V30 21 1 18 13
M  V30 22 1 1 20
M  V30 23 1 1 21
M  V30 24 1 1 22
M  V30 25 1 2 23
M  V30 26 1 3 24
M  V30 27 1 3 25
M  V30 28 1 4 26
M  V30 29 1 5 27
M  V30 30 1 5 28
M  V30 31 1 6 29
M  V30 32 1 6 30
M  V30 33 1 10 31
M  V30 34 1 12 32
M  V30 35 1 12 33
M  V30 36 1 14 34
M  V30 37 1 15 35
M  V30 38 1 18 36
M  V30 39 1 19 37
M  V30 40 1 19 38
M  V30 END BOND
M  V30 END CTAB
M  END
