
     RDKit          3D

  0  0  0  0  0  0  0  0  0  0999 V3000
M  V30 BEGIN CTAB
M  V30 COUNTS 32 32 0 0 0
M  V30 BEGIN ATOM
M  V30 1 N -4.3966 0.227862 -1.10456 0
M  V30 2 C -3.16657 0.233835 -0.446381 0
M  V30 3 C -2.6778 -1.11148 0.0317585 0
M  V30 4 C -1.27006 -0.721163 0.505957 0
M  V30 5 N -0.89046 0.324687 -0.373898 0
M  V30 6 C -1.99358 0.595805 -1.34075 0
M  V30 7 C 0.329865 1.04722 -0.378523 0
M  V30 8 O 0.529033 1.96264 -1.25721 0
M  V30 9 C 1.39794 0.800547 0.585839 0 CFG=2
M  V30 10 C 2.67563 0.447888 -0.178777 0
M  V30 11 C 3.80399 0.185978 0.795589 0
M  V30 12 C 2.47079 -0.760467 -1.03372 0
M  V30 13 N 1.09124 -0.167728 1.57721 0
M  V30 14 H -5.00711 -0.552939 -0.962777 0
M  V30 15 H -4.87343 1.11113 -1.06157 0
M  V30 16 H -3.1361 0.926504 0.431001 0
M  V30 17 H -2.52131 -1.82365 -0.7947 0
M  V30 18 H -3.27282 -1.52522 0.861434 0
M  V30 19 H -1.43835 -0.300651 1.52713 0
M  V30 20 H -0.617257 -1.62212 0.498577 0
M  V30 21 H -2.00217 1.63195 -1.66464 0
M  V30 22 H -1.93522 -0.168757 -2.13165 0
M  V30 23 H 1.64468 1.76514 1.12502 0
M  V30 24 H 2.94666 1.35341 -0.757776 0
M  V30 25 H 3.54462 0.593454 1.80785 0
M  V30 26 H 4.72996 0.611753 0.406024 0
M  V30 27 H 3.88166 -0.911619 0.936064 0
M  V30 28 H 2.84778 -0.570091 -2.06087 0
M  V30 29 H 3.00033 -1.62406 -0.600008 0
M  V30 30 H 1.40022 -1.01142 -1.13939 0
M  V30 31 H 1.34212 0.120646 2.55225 0
M  V30 32 H 1.56233 -1.06908 1.34789 0
M  V30 END ATOM
M  V30 BEGIN BOND
M  V30 1 1 1 2
M  V30 2 1 2 3
M  V30 3 1 3 4
M  V30 4 1 4 5
M  V30 5 1 5 6
M  V30 6 1 5 7
M  V30 7 2 7 8
M  V30 8 1 7 9
M  V30 9 1 9 10
M  V30 10 1 10 11
M  V30 11 1 10 12
M  V30 12 1 9 13
M  V30 13 1 6 2
M  V30 14 1 1 14
M  V30 15 1 1 15
M  V30 16 1 2 16
M  V30 17 1 3 17
M  V30 18 1 3 18
M  V30 19 1 4 19
M  V30 20 1 4 20
M  V30 21 1 6 21
M  V30 22 1 6 22
M  V30 23 1 9 23 CFG=1
M  V30 24 1 10 24
M  V30 25 1 11 25
M  V30 26 1 11 26
M  V30 27 1 11 27
M  V30 28 1 12 28
M  V30 29 1 12 29
M  V30 30 1 12 30
M  V30 31 1 13 31
M  V30 32 1 13 32
M  V30 END BOND
M  V30 END CTAB
M  END
