
     RDKit          3D

  0  0  0  0  0  0  0  0  0  0999 V3000
M  V30 BEGIN CTAB
M  V30 COUNTS 46 48 0 0 0
M  V30 BEGIN ATOM
M  V30 1 O 2.46006 -1.09384 -3.78128 0
M  V30 2 C 1.56956 -1.52946 -3.03989 0
M  V30 3 N 1.62453 -1.43825 -1.64597 0
M  V30 4 C 2.68176 -0.851936 -0.925374 0
M  V30 5 C 3.93423 -0.573651 -1.39453 0
M  V30 6 C 4.92315 0.0373284 -0.609755 0
M  V30 7 C 4.64793 0.381951 0.694082 0
M  V30 8 C 3.39204 0.110265 1.189 0
M  V30 9 C 2.44025 -0.483909 0.414472 0
M  V30 10 S 5.89975 1.13588 1.63371 0
M  V30 11 O 5.31872 2.14668 2.54597 0
M  V30 12 O 6.84402 1.8272 0.681227 0
M  V30 13 N 6.81231 -0.0814056 2.44325 0
M  V30 14 C 0.403895 -2.17531 -3.74968 0
M  V30 15 S -0.861136 -2.69356 -2.59046 0
M  V30 16 C -1.62886 -1.25805 -1.85461 0
M  V30 17 N -1.32824 0.0160289 -2.11369 0
M  V30 18 N -2.09815 0.761195 -1.38391 0
M  V30 19 C -2.91183 -0.00828946 -0.63864 0
M  V30 20 N -2.61831 -1.25752 -0.932752 0
M  V30 21 N -3.16343 -2.44205 -0.430989 0
M  V30 22 C -3.89547 0.540943 0.310024 0
M  V30 23 C -4.8095 -0.238902 0.944467 0
M  V30 24 C -5.7373 0.262291 1.85934 0
M  V30 25 C -5.75776 1.59648 2.15618 0
M  V30 26 C -4.83889 2.39479 1.52098 0
M  V30 27 C -3.90695 1.89491 0.603613 0
M  V30 28 C -2.94124 2.85685 -0.0228885 0
M  V30 29 H 0.820245 -1.84611 -1.05246 0
M  V30 30 H 4.23795 -0.817144 -2.38437 0
M  V30 31 H 5.90389 0.243319 -1.01395 0
M  V30 32 H 3.20989 0.399029 2.22898 0
M  V30 33 H 1.47584 -0.668011 0.865833 0
M  V30 34 H 6.81738 0.0457395 3.47701 0
M  V30 35 H 7.72947 -0.262193 2.02517 0
M  V30 36 H 0.758374 -2.97912 -4.41972 0
M  V30 37 H 0.01216 -1.37131 -4.43798 0
M  V30 38 H -2.71951 -2.87776 0.423332 0
M  V30 39 H -3.97189 -2.92464 -0.834523 0
M  V30 40 H -4.87402 -1.32238 0.761699 0
M  V30 41 H -6.4339 -0.393337 2.32914 0
M  V30 42 H -6.46848 2.01787 2.86552 0
M  V30 43 H -4.80315 3.45526 1.70987 0
M  V30 44 H -3.10688 3.86735 0.475282 0
M  V30 45 H -3.13542 2.99445 -1.08427 0
M  V30 46 H -1.90709 2.60232 0.217489 0
M  V30 END ATOM
M  V30 BEGIN BOND
M  V30 1 2 1 2
M  V30 2 1 2 3
M  V30 3 1 3 4
M  V30 4 2 4 5
M  V30 5 1 5 6
M  V30 6 2 6 7
M  V30 7 1 7 8
M  V30 8 2 8 9
M  V30 9 1 7 10
M  V30 10 2 10 11
M  V30 11 2 10 12
M  V30 12 1 10 13
M  V30 13 1 2 14
M  V30 14 1 14 15
M  V30 15 1 15 16
M  V30 16 2 16 17
M  V30 17 1 17 18
M  V30 18 2 18 19
M  V30 19 1 19 20
M  V30 20 1 20 21
M  V30 21 1 19 22
M  V30 22 2 22 23
M  V30 23 1 23 24
M  V30 24 2 24 25
M  V30 25 1 25 26
M  V30 26 2 26 27
M  V30 27 1 27 28
M  V30 28 1 9 4
M  V30 29 1 20 16
M  V30 30 1 27 22
M  V30 31 1 3 29
M  V30 32 1 5 30
M  V30 33 1 6 31
M  V30 34 1 8 32
M  V30 35 1 9 33
M  V30 36 1 13 34
M  V30 37 1 13 35
M  V30 38 1 14 36
M  V30 39 1 14 37
M  V30 40 1 21 38
M  V30 41 1 21 39
M  V30 42 1 23 40
M  V30 43 1 24 41
M  V30 44 1 25 42
M  V30 45 1 26 43
M  V30 46 1 28 44
M  V30 47 1 28 45
M  V30 48 1 28 46
M  V30 END BOND
M  V30 END CTAB
M  END
