
     RDKit          3D

  0  0  0  0  0  0  0  0  0  0999 V3000
M  V30 BEGIN CTAB
M  V30 COUNTS 24 26 0 0 0
M  V30 BEGIN ATOM
M  V30 1 N 5.03813 -0.00732751 -0.284329 0
M  V30 2 C 3.64988 -0.337205 -0.168291 0
M  V30 3 N 2.63112 0.517794 -0.153256 0
M  V30 4 N 1.47306 -0.100992 -0.0345072 0
M  V30 5 C 1.76244 -1.41101 0.0294249 0
M  V30 6 N 3.11592 -1.56539 -0.053279 0
M  V30 7 N 0.739623 -2.26993 0.154276 0
M  V30 8 C -0.544142 -1.87328 0.216655 0
M  V30 9 C -0.836605 -0.545079 0.15169 0
M  V30 10 C 0.19408 0.35505 0.0238209 0
M  V30 11 N -0.0952377 1.74317 -0.0408392 0
M  V30 12 C -2.25942 -0.0735489 0.214244 0
M  V30 13 C -3.09189 -0.584165 1.18213 0
M  V30 14 S -4.56813 0.207387 0.879665 0
M  V30 15 C -4.10489 1.16022 -0.45454 0
M  V30 16 C -2.7921 0.827091 -0.626764 0
M  V30 17 H 5.3233 0.93651 -0.613287 0
M  V30 18 H 5.79465 -0.676558 -0.0518754 0
M  V30 19 H -1.31571 -2.60401 0.316137 0
M  V30 20 H 0.279566 2.2678 -0.864328 0
M  V30 21 H -0.658962 2.18983 0.715099 0
M  V30 22 H -2.83049 -1.33173 1.95829 0
M  V30 23 H -4.69995 1.87922 -1.05222 0
M  V30 24 H -2.20426 1.29614 -1.44392 0
M  V30 END ATOM
M  V30 BEGIN BOND
M  V30 1 1 1 2
M  V30 2 2 2 3
M  V30 3 1 3 4
M  V30 4 1 4 5
M  V30 5 2 5 6
M  V30 6 1 5 7
M  V30 7 2 7 8
M  V30 8 1 8 9
M  V30 9 2 9 10
M  V30 10 1 10 11
M  V30 11 1 9 12
M  V30 12 2 12 13
M  V30 13 1 13 14
M  V30 14 1 14 15
M  V30 15 2 15 16
M  V30 16 1 6 2
M  V30 17 1 16 12
M  V30 18 1 10 4
M  V30 19 1 1 17
M  V30 20 1 1 18
M  V30 21 1 8 19
M  V30 22 1 11 20
M  V30 23 1 11 21
M  V30 24 1 13 22
M  V30 25 1 15 23
M  V30 26 1 16 24
M  V30 END BOND
M  V30 END CTAB
M  END
