
     RDKit          3D

  0  0  0  0  0  0  0  0  0  0999 V3000
M  V30 BEGIN CTAB
M  V30 COUNTS 129 130 0 0 0
M  V30 BEGIN ATOM
M  V30 1 C 7.64231 -1.93891 -0.652229 0 CFG=1
M  V30 2 N 7.9809 -2.78449 -1.80216 0
M  V30 3 C 8.32087 -0.604354 -0.924343 0
M  V30 4 C 9.79496 -0.825856 -1.0468 0
M  V30 5 C 10.5342 0.47105 -1.33101 0
M  V30 6 N 11.9461 0.154439 -1.434 0
M  V30 7 C 12.4309 -0.623543 -2.53037 0
M  V30 8 N 11.6332 -0.804566 -3.6968 0
M  V30 9 N 13.5987 -1.17025 -2.48285 0
M  V30 10 C 6.16887 -1.77268 -0.672253 0
M  V30 11 O 5.48994 -2.20475 -1.67312 0
M  V30 12 N 5.42807 -1.14822 0.369636 0
M  V30 13 C 4.00819 -1.0067 0.280255 0 CFG=1
M  V30 14 C 3.30734 -2.03815 1.16756 0
M  V30 15 C 3.67576 -1.94257 2.5791 0
M  V30 16 C 4.75525 -2.72168 3.0129 0
M  V30 17 C 5.2111 -2.74548 4.29485 0
M  V30 18 C 4.57403 -1.95092 5.24222 0
M  V30 19 O 5.0448 -1.98292 6.54203 0
M  V30 20 C 3.49848 -1.16583 4.83884 0
M  V30 21 C 3.06373 -1.16653 3.53224 0
M  V30 22 C 3.48738 0.348394 0.529076 0
M  V30 23 O 3.91848 0.995307 1.50755 0
M  V30 24 N 2.53059 0.894532 -0.323128 0
M  V30 25 C 1.9071 2.21733 -0.193945 0 CFG=1
M  V30 26 C 3.04977 3.23018 -0.473639 0
M  V30 27 C 2.64115 4.65106 -0.363824 0
M  V30 28 C 3.85494 5.55576 -0.680227 0
M  V30 29 C 2.33059 4.96736 1.09989 0
M  V30 30 C 0.840855 2.38128 -1.17111 0
M  V30 31 O 0.825644 1.53138 -2.13613 0
M  V30 32 N -0.168048 3.40096 -1.13913 0
M  V30 33 C -1.14759 3.49309 -2.17861 0
M  V30 34 C -2.01406 2.32945 -2.27235 0
M  V30 35 O -2.80425 2.30649 -3.2983 0
M  V30 36 N -2.05412 1.26225 -1.35107 0
M  V30 37 C -2.95133 0.155888 -1.62342 0 CFG=1
M  V30 38 C -2.53778 -1.16585 -1.1558 0
M  V30 39 C -2.34415 -1.37869 0.272095 0
M  V30 40 C -1.14133 -1.08679 0.865181 0
M  V30 41 C -0.918489 -1.30419 2.22583 0
M  V30 42 C -1.91056 -1.82484 3.02848 0
M  V30 43 O -1.73775 -2.06087 4.39146 0
M  V30 44 C -3.11449 -2.1198 2.44919 0
M  V30 45 C -3.3276 -1.90291 1.10642 0
M  V30 46 C -4.37979 0.516597 -1.38866 0
M  V30 47 O -4.61788 1.71651 -1.07955 0
M  V30 48 N -5.45287 -0.383234 -1.49661 0
M  V30 49 C -6.85293 -0.129878 -1.33602 0 CFG=1
M  V30 50 C -7.68418 -0.456664 -2.50452 0
M  V30 51 C -7.70689 -1.81862 -3.06255 0
M  V30 52 C -8.14193 -2.93038 -2.17604 0
M  V30 53 C -6.47975 -2.24084 -3.82151 0
M  V30 54 C -7.41337 -0.317112 0.00466505 0
M  V30 55 O -6.63516 -0.523701 0.970226 0
M  V30 56 N -8.79877 -0.280755 0.319509 0
M  V30 57 C -9.25469 -0.439959 1.68674 0 CFG=1
M  V30 58 C -10.4092 0.441086 2.01 0
M  V30 59 C -10.2153 1.9044 1.86694 0
M  V30 60 C -9.18666 2.52231 2.70384 0
M  V30 61 O -8.97343 3.89974 2.59018 0
M  V30 62 O -8.49736 1.87349 3.50966 0
M  V30 63 C -9.74997 -1.85744 1.87034 0
M  V30 64 O -10.2169 -2.20396 3.1552 0
M  V30 65 O -9.76371 -2.69541 0.97691 0
M  V30 66 H 7.98779 -2.38893 0.262218 0
M  V30 67 H 7.61104 -2.3032 -2.65249 0
M  V30 68 H 7.53404 -3.72156 -1.70001 0
M  V30 69 H 8.0396 0.13244 -0.14808 0
M  V30 70 H 7.91213 -0.194061 -1.88974 0
M  V30 71 H 9.98163 -1.55383 -1.84194 0
M  V30 72 H 10.1821 -1.21687 -0.085573 0
M  V30 73 H 10.3294 1.18447 -0.536691 0
M  V30 74 H 10.1871 0.898213 -2.30416 0
M  V30 75 H 12.5817 0.510291 -0.688891 0
M  V30 76 H 11.5121 -0.0135346 -4.35728 0
M  V30 77 H 11.1623 -1.69036 -3.92372 0
M  V30 78 H 14.2508 -1.09391 -1.6838 0
M  V30 79 H 5.93949 -0.800123 1.19526 0
M  V30 80 H 3.70084 -1.30799 -0.761278 0
M  V30 81 H 3.54693 -3.05876 0.776974 0
M  V30 82 H 2.21601 -1.91175 1.08067 0
M  V30 83 H 5.26879 -3.35005 2.28807 0
M  V30 84 H 6.05347 -3.35664 4.62373 0
M  V30 85 H 5.77059 -1.32916 6.83072 0
M  V30 86 H 3.04036 -0.569181 5.60917 0
M  V30 87 H 2.23003 -0.540733 3.25928 0
M  V30 88 H 2.20247 0.320636 -1.15309 0
M  V30 89 H 1.63019 2.39345 0.824824 0
M  V30 90 H 3.3292 3.00835 -1.53168 0
M  V30 91 H 3.9323 2.98274 0.137068 0
M  V30 92 H 1.85684 4.99316 -1.04166 0
M  V30 93 H 4.25 5.16394 -1.63836 0
M  V30 94 H 3.53373 6.61002 -0.716605 0
M  V30 95 H 4.60902 5.39262 0.119004 0
M  V30 96 H 2.43429 4.05001 1.68809 0
M  V30 97 H 1.27973 5.30781 1.20949 0
M  V30 98 H 2.97728 5.73731 1.52411 0
M  V30 99 H -0.218779 4.08388 -0.358651 0
M  V30 100 H -0.637976 3.71345 -3.1623 0
M  V30 101 H -1.76522 4.43238 -2.00668 0
M  V30 102 H -1.46196 1.3049 -0.499155 0
M  V30 103 H -2.93824 0.104128 -2.78182 0
M  V30 104 H -1.56409 -1.50749 -1.65507 0
M  V30 105 H -3.28866 -1.92949 -1.52457 0
M  V30 106 H -0.287752 -0.669879 0.327588 0
M  V30 107 H 0.0159798 -1.08325 2.7148 0
M  V30 108 H -1.39443 -2.94216 4.75712 0
M  V30 109 H -3.91928 -2.52889 3.03747 0
M  V30 110 H -4.2729 -2.14584 0.693531 0
M  V30 111 H -5.15872 -1.38521 -1.72244 0
M  V30 112 H -6.85164 1.06283 -1.37671 0
M  V30 113 H -7.41016 0.247219 -3.34602 0
M  V30 114 H -8.74794 -0.165858 -2.28001 0
M  V30 115 H -8.5364 -1.77772 -3.85985 0
M  V30 116 H -8.04985 -3.87465 -2.78917 0
M  V30 117 H -9.24309 -2.89135 -1.94328 0
M  V30 118 H -7.55774 -3.09941 -1.26671 0
M  V30 119 H -5.86682 -1.36178 -4.14591 0
M  V30 120 H -6.80471 -2.73287 -4.75847 0
M  V30 121 H -5.87663 -3.01487 -3.29828 0
M  V30 122 H -9.52046 -0.141817 -0.425145 0
M  V30 123 H -8.42134 -0.271144 2.38394 0
M  V30 124 H -11.3064 0.152976 1.40606 0
M  V30 125 H -10.752 0.270335 3.07566 0
M  V30 126 H -11.1856 2.42624 2.14767 0
M  V30 127 H -10.0991 2.21596 0.780397 0
M  V30 128 H -9.78275 4.48428 2.36897 0
M  V30 129 H -11.0605 -2.75977 3.23357 0
M  V30 END ATOM
M  V30 BEGIN BOND
M  V30 1 1 1 2
M  V30 2 1 1 3
M  V30 3 1 3 4
M  V30 4 1 4 5
M  V30 5 1 5 6
M  V30 6 1 6 7
M  V30 7 1 7 8
M  V30 8 2 7 9 CFG=2
M  V30 9 1 1 10
M  V30 10 2 10 11
M  V30 11 1 10 12
M  V30 12 1 12 13
M  V30 13 1 13 14
M  V30 14 1 14 15
M  V30 15 2 15 16
M  V30 16 1 16 17
M  V30 17 2 17 18
M  V30 18 1 18 19
M  V30 19 1 18 20
M  V30 20 2 20 21
M  V30 21 1 13 22
M  V30 22 2 22 23
M  V30 23 1 22 24
M  V30 24 1 24 25
M  V30 25 1 25 26
M  V30 26 1 26 27
M  V30 27 1 27 28
M  V30 28 1 27 29
M  V30 29 1 25 30
M  V30 30 2 30 31
M  V30 31 1 30 32
M  V30 32 1 32 33
M  V30 33 1 33 34
M  V30 34 2 34 35
M  V30 35 1 34 36
M  V30 36 1 36 37
M  V30 37 1 37 38
M  V30 38 1 38 39
M  V30 39 2 39 40
M  V30 40 1 40 41
M  V30 41 2 41 42
M  V30 42 1 42 43
M  V30 43 1 42 44
M  V30 44 2 44 45
M  V30 45 1 37 46
M  V30 46 2 46 47
M  V30 47 1 46 48
M  V30 48 1 48 49
M  V30 49 1 49 50
M  V30 50 1 50 51
M  V30 51 1 51 52
M  V30 52 1 51 53
M  V30 53 1 49 54
M  V30 54 2 54 55
M  V30 55 1 54 56
M  V30 56 1 56 57
M  V30 57 1 57 58
M  V30 58 1 58 59
M  V30 59 1 59 60
M  V30 60 1 60 61
M  V30 61 2 60 62
M  V30 62 1 57 63
M  V30 63 1 63 64
M  V30 64 2 63 65
M  V30 65 1 21 15
M  V30 66 1 45 39
M  V30 67 1 1 66 CFG=1
M  V30 68 1 2 67
M  V30 69 1 2 68
M  V30 70 1 3 69
M  V30 71 1 3 70
M  V30 72 1 4 71
M  V30 73 1 4 72
M  V30 74 1 5 73
M  V30 75 1 5 74
M  V30 76 1 6 75
M  V30 77 1 8 76
M  V30 78 1 8 77
M  V30 79 1 9 78
M  V30 80 1 12 79
M  V30 81 1 13 80 CFG=3
M  V30 82 1 14 81
M  V30 83 1 14 82
M  V30 84 1 16 83
M  V30 85 1 17 84
M  V30 86 1 19 85
M  V30 87 1 20 86
M  V30 88 1 21 87
M  V30 89 1 24 88
M  V30 90 1 25 89 CFG=1
M  V30 91 1 26 90
M  V30 92 1 26 91
M  V30 93 1 27 92
M  V30 94 1 28 93
M  V30 95 1 28 94
M  V30 96 1 28 95
M  V30 97 1 29 96
M  V30 98 1 29 97
M  V30 99 1 29 98
M  V30 100 1 32 99
M  V30 101 1 33 100
M  V30 102 1 33 101
M  V30 103 1 36 102
M  V30 104 1 37 103 CFG=3
M  V30 105 1 38 104
M  V30 106 1 38 105
M  V30 107 1 40 106
M  V30 108 1 41 107
M  V30 109 1 43 108
M  V30 110 1 44 109
M  V30 111 1 45 110
M  V30 112 1 48 111
M  V30 113 1 49 112 CFG=3
M  V30 114 1 50 113
M  V30 115 1 50 114
M  V30 116 1 51 115
M  V30 117 1 52 116
M  V30 118 1 52 117
M  V30 119 1 52 118
M  V30 120 1 53 119
M  V30 121 1 53 120
M  V30 122 1 53 121
M  V30 123 1 56 122
M  V30 124 1 57 123 CFG=1
M  V30 125 1 58 124
M  V30 126 1 58 125
M  V30 127 1 59 126
M  V30 128 1 59 127
M  V30 129 1 61 128
M  V30 130 1 64 129
M  V30 END BOND
M  V30 END CTAB
M  END
