
     RDKit          3D

  0  0  0  0  0  0  0  0  0  0999 V3000
M  V30 BEGIN CTAB
M  V30 COUNTS 28 28 0 0 0
M  V30 BEGIN ATOM
M  V30 1 C 4.59672 -1.15486 -0.170819 0
M  V30 2 C 4.07768 0.23572 -0.238003 0
M  V30 3 O 2.68962 0.341697 -0.381134 0
M  V30 4 C 1.76343 -0.158382 0.524012 0
M  V30 5 O 2.21795 -0.737021 1.52443 0
M  V30 6 C 0.315569 0.000143567 0.290618 0
M  V30 7 C -0.598652 -0.498646 1.19313 0
M  V30 8 C -1.97106 -0.360555 0.993265 0
M  V30 9 N -2.89208 -0.874633 1.92277 0
M  V30 10 C -2.43553 0.289149 -0.131404 0
M  V30 11 C -1.50985 0.798159 -1.05219 0
M  V30 12 C -0.15309 0.64799 -0.830666 0
M  V30 13 N -2.00369 1.47277 -2.2196 0
M  V30 14 C -3.88239 0.421646 -0.319176 0
M  V30 15 F -4.10914 1.1047 -1.50963 0
M  V30 16 F -4.4903 1.16384 0.674547 0
M  V30 17 F -4.44846 -0.826221 -0.462608 0
M  V30 18 H 3.99461 -1.88403 -0.745944 0
M  V30 19 H 5.61824 -1.17583 -0.606655 0
M  V30 20 H 4.73627 -1.48993 0.89782 0
M  V30 21 H 4.42675 0.795552 0.655589 0
M  V30 22 H 4.53768 0.734549 -1.12208 0
M  V30 23 H -0.202687 -1.00359 2.06611 0
M  V30 24 H -3.48731 -0.313234 2.55922 0
M  V30 25 H -2.99559 -1.92107 1.98766 0
M  V30 26 H 0.564428 1.03781 -1.53612 0
M  V30 27 H -2.1778 0.854896 -3.06206 0
M  V30 28 H -2.18134 2.49937 -2.24483 0
M  V30 END ATOM
M  V30 BEGIN BOND
M  V30 1 1 1 2
M  V30 2 1 2 3
M  V30 3 1 3 4
M  V30 4 2 4 5
M  V30 5 1 4 6
M  V30 6 2 6 7
M  V30 7 1 7 8
M  V30 8 1 8 9
M  V30 9 2 8 10
M  V30 10 1 10 11
M  V30 11 2 11 12
M  V30 12 1 11 13
M  V30 13 1 10 14
M  V30 14 1 14 15
M  V30 15 1 14 16
M  V30 16 1 14 17
M  V30 17 1 12 6
M  V30 18 1 1 18
M  V30 19 1 1 19
M  V30 20 1 1 20
M  V30 21 1 2 21
M  V30 22 1 2 22
M  V30 23 1 7 23
M  V30 24 1 9 24
M  V30 25 1 9 25
M  V30 26 1 12 26
M  V30 27 1 13 27
M  V30 28 1 13 28
M  V30 END BOND
M  V30 END CTAB
M  END
