
     RDKit          3D

  0  0  0  0  0  0  0  0  0  0999 V3000
M  V30 BEGIN CTAB
M  V30 COUNTS 24 23 0 0 0
M  V30 BEGIN ATOM
M  V30 1 C -5.00738 -0.415586 -0.478631 0
M  V30 2 C -3.52395 -0.49848 -0.3762 0
M  V30 3 O -2.9817 -1.29767 0.432112 0
M  V30 4 O -2.68773 0.288681 -1.15449 0
M  V30 5 N -1.31639 0.231868 -1.07968 0
M  V30 6 C -0.703095 0.70101 -0.0533794 0
M  V30 7 N -1.4193 1.28285 1.01606 0
M  V30 8 C 0.754932 0.636281 0.0175016 0
M  V30 9 N 1.45443 1.14474 1.13463 0
M  V30 10 N 1.46252 0.114898 -0.931802 0
M  V30 11 O 2.83292 0.0381756 -0.897075 0
M  V30 12 C 3.47942 -0.966781 -0.19028 0
M  V30 13 C 4.9531 -0.985572 -0.198326 0
M  V30 14 O 2.7532 -1.79606 0.411294 0
M  V30 15 H -5.4081 -0.556184 0.546663 0
M  V30 16 H -5.42922 -1.21128 -1.10766 0
M  V30 17 H -5.33783 0.57306 -0.865269 0
M  V30 18 H -1.51353 0.731812 1.89703 0
M  V30 19 H -1.8192 2.23719 0.870718 0
M  V30 20 H 1.20526 0.786564 2.07849 0
M  V30 21 H 2.1914 1.85755 0.969538 0
M  V30 22 H 5.36975 -1.49385 -1.09149 0
M  V30 23 H 5.30565 0.0647707 -0.233255 0
M  V30 24 H 5.38486 -1.46799 0.69043 0
M  V30 END ATOM
M  V30 BEGIN BOND
M  V30 1 1 1 2
M  V30 2 2 2 3
M  V30 3 1 2 4
M  V30 4 1 4 5
M  V30 5 2 5 6
M  V30 6 1 6 7
M  V30 7 1 6 8
M  V30 8 1 8 9
M  V30 9 2 8 10
M  V30 10 1 10 11
M  V30 11 1 11 12
M  V30 12 1 12 13
M  V30 13 2 12 14
M  V30 14 1 1 15
M  V30 15 1 1 16
M  V30 16 1 1 17
M  V30 17 1 7 18
M  V30 18 1 7 19
M  V30 19 1 9 20
M  V30 20 1 9 21
M  V30 21 1 13 22
M  V30 22 1 13 23
M  V30 23 1 13 24
M  V30 END BOND
M  V30 END CTAB
M  END
