
     RDKit          3D

  0  0  0  0  0  0  0  0  0  0999 V3000
M  V30 BEGIN CTAB
M  V30 COUNTS 29 30 0 0 0
M  V30 BEGIN ATOM
M  V30 1 C -5.86571 -0.748432 0.815733 0
M  V30 2 O -4.48885 -0.414568 0.999077 0
M  V30 3 C -3.65257 -0.150694 -0.0834952 0
M  V30 4 O -4.18289 -0.224679 -1.22135 0
M  V30 5 C -2.24944 0.191012 0.0746333 0
M  V30 6 C -1.49907 0.435754 -1.05148 0
M  V30 7 C -0.139869 0.769781 -0.957334 0
M  V30 8 N 0.631615 1.02106 -2.10856 0
M  V30 9 C 0.433836 0.849525 0.278309 0
M  V30 10 C -0.287045 0.611327 1.42019 0
M  V30 11 C -1.64529 0.27888 1.2998 0
M  V30 12 Cl 0.476794 0.721308 2.99101 0
M  V30 13 S 2.16009 1.27296 0.414901 0
M  V30 14 C 3.12514 -0.23114 0.364138 0
M  V30 15 N 2.70201 -1.50023 0.245461 0
M  V30 16 N 3.69637 -2.34386 0.24479 0
M  V30 17 C 4.81333 -1.61498 0.366541 0
M  V30 18 N 4.47647 -0.31682 0.440741 0
M  V30 19 N 5.35254 0.762142 0.573331 0
M  V30 20 H -6.04557 -1.16157 -0.192856 0
M  V30 21 H -6.42098 0.225546 0.952797 0
M  V30 22 H -6.23735 -1.44278 1.57325 0
M  V30 23 H -1.9699 0.368184 -2.02404 0
M  V30 24 H 0.73173 0.292713 -2.82937 0
M  V30 25 H 1.09445 1.93286 -2.22772 0
M  V30 26 H -2.19512 0.0951449 2.21078 0
M  V30 27 H 5.79768 -2.03236 0.396401 0
M  V30 28 H 5.60486 1.21174 1.47911 0
M  V30 29 H 5.78274 1.14219 -0.297534 0
M  V30 END ATOM
M  V30 BEGIN BOND
M  V30 1 1 1 2
M  V30 2 1 2 3
M  V30 3 2 3 4
M  V30 4 1 3 5
M  V30 5 2 5 6
M  V30 6 1 6 7
M  V30 7 1 7 8
M  V30 8 2 7 9
M  V30 9 1 9 10
M  V30 10 2 10 11
M  V30 11 1 10 12
M  V30 12 1 9 13
M  V30 13 1 13 14
M  V30 14 2 14 15
M  V30 15 1 15 16
M  V30 16 2 16 17
M  V30 17 1 17 18
M  V30 18 1 18 19
M  V30 19 1 11 5
M  V30 20 1 18 14
M  V30 21 1 1 20
M  V30 22 1 1 21
M  V30 23 1 1 22
M  V30 24 1 6 23
M  V30 25 1 8 24
M  V30 26 1 8 25
M  V30 27 1 11 26
M  V30 28 1 17 27
M  V30 29 1 19 28
M  V30 30 1 19 29
M  V30 END BOND
M  V30 END CTAB
M  END
