
     RDKit          3D

  0  0  0  0  0  0  0  0  0  0999 V3000
M  V30 BEGIN CTAB
M  V30 COUNTS 28 28 0 0 0
M  V30 BEGIN ATOM
M  V30 1 C -1.6672 -1.33373 0.837945 0
M  V30 2 C -1.84555 0.0264018 0.211223 0
M  V30 3 C -3.26497 0.261101 -0.232213 0
M  V30 4 O -3.27908 1.55964 -0.794329 0
M  V30 5 C -4.22845 0.300075 0.931706 0
M  V30 6 S -0.76373 0.071964 -1.26689 0
M  V30 7 C 0.95303 0.0297934 -0.743562 0
M  V30 8 N 1.63957 -1.12101 -0.567243 0
M  V30 9 C 2.91944 -1.14475 -0.172088 0
M  V30 10 N 3.64277 -2.34401 0.0162029 0
M  V30 11 C 3.59732 0.0297883 0.0751367 0
M  V30 12 C 2.90562 1.23687 -0.101137 0
M  V30 13 N 1.63228 1.17996 -0.496683 0
M  V30 14 N 3.58114 2.45638 0.151719 0
M  V30 15 H -1.37378 -2.07749 0.0462177 0
M  V30 16 H -0.841297 -1.25732 1.58625 0
M  V30 17 H -2.61724 -1.71015 1.26302 0
M  V30 18 H -1.46692 0.838624 0.864214 0
M  V30 19 H -3.53067 -0.499163 -0.994198 0
M  V30 20 H -2.69259 2.10631 -0.179334 0
M  V30 21 H -5.10234 0.920447 0.600732 0
M  V30 22 H -4.5809 -0.675793 1.25058 0
M  V30 23 H -3.7377 0.851643 1.75773 0
M  V30 24 H 3.32461 -3.07791 0.668831 0
M  V30 25 H 4.5191 -2.4979 -0.513694 0
M  V30 26 H 4.62696 0.0789249 0.397261 0
M  V30 27 H 3.87012 2.698 1.1085 0
M  V30 28 H 3.78044 3.09329 -0.633099 0
M  V30 END ATOM
M  V30 BEGIN BOND
M  V30 1 1 1 2
M  V30 2 1 2 3
M  V30 3 1 3 4
M  V30 4 1 3 5
M  V30 5 1 2 6
M  V30 6 1 6 7
M  V30 7 2 7 8
M  V30 8 1 8 9
M  V30 9 1 9 10
M  V30 10 2 9 11
M  V30 11 1 11 12
M  V30 12 2 12 13
M  V30 13 1 12 14
M  V30 14 1 13 7
M  V30 15 1 1 15
M  V30 16 1 1 16
M  V30 17 1 1 17
M  V30 18 1 2 18
M  V30 19 1 3 19
M  V30 20 1 4 20
M  V30 21 1 5 21
M  V30 22 1 5 22
M  V30 23 1 5 23
M  V30 24 1 10 24
M  V30 25 1 10 25
M  V30 26 1 11 26
M  V30 27 1 14 27
M  V30 28 1 14 28
M  V30 END BOND
M  V30 END CTAB
M  END
