
     RDKit          3D

  0  0  0  0  0  0  0  0  0  0999 V3000
M  V30 BEGIN CTAB
M  V30 COUNTS 58 62 0 0 0
M  V30 BEGIN ATOM
M  V30 1 O -0.370392 -3.77385 1.39421 0
M  V30 2 C -0.170125 -3.6294 0.146094 0 CFG=2
M  V30 3 C 0.731491 -2.41819 -0.122935 0
M  V30 4 N 0.320579 -1.23911 0.594418 0
M  V30 5 C -0.963535 -1.02777 1.30097 0
M  V30 6 C -2.11494 -1.61306 0.63992 0 CFG=2
M  V30 7 C -2.03099 -2.19942 -0.717471 0 CFG=2
M  V30 8 C -1.39353 -3.57145 -0.73239 0
M  V30 9 C -1.55046 -1.36443 -1.82954 0
M  V30 10 O -3.39639 -2.48918 -1.05345 0
M  V30 11 N -3.31177 -0.726542 0.718376 0
M  V30 12 C -4.51562 -1.1136 1.15327 0
M  V30 13 N -5.37763 -0.0831875 1.09636 0
M  V30 14 C -4.70349 0.958282 0.620496 0
M  V30 15 C -3.40305 0.556794 0.381554 0
M  V30 16 N -2.50823 1.40724 -0.101425 0
M  V30 17 C -2.83185 2.68352 -0.374474 0
M  V30 18 N -1.8828 3.601 -0.891204 0
M  V30 19 N -4.10764 3.09444 -0.144758 0
M  V30 20 C -5.03139 2.26666 0.339594 0
M  V30 21 N -6.37933 2.66681 0.591849 0
M  V30 22 C 1.14876 -0.133484 0.715425 0
M  V30 23 O 0.616231 0.834986 1.43499 0
M  V30 24 C 2.46872 0.149851 0.209678 0
M  V30 25 C 3.21025 -0.587352 -0.665619 0
M  V30 26 C 4.51148 -0.239223 -1.0639 0
M  V30 27 C 5.09315 0.897338 -0.563597 0
M  V30 28 C 4.38937 1.67117 0.316976 0
M  V30 29 C 3.12743 1.31124 0.688389 0
M  V30 30 N 5.20341 2.71281 0.638585 0
M  V30 31 C 6.36954 2.60248 -0.00951906 0
M  V30 32 N 6.29198 1.4836 -0.745758 0
M  V30 33 C 7.54258 3.5434 0.0669476 0
M  V30 34 H 0.157631 -3.72156 2.04106 0
M  V30 35 H 0.421169 -4.50581 -0.205214 0
M  V30 36 H 1.70426 -2.74028 0.302955 0
M  V30 37 H 0.816192 -2.32999 -1.19675 0
M  V30 38 H -0.81789 -1.53254 2.31175 0
M  V30 39 H -1.0879 0.041394 1.59861 0
M  V30 40 H -2.44158 -2.49811 1.29813 0
M  V30 41 H -1.12315 -3.81873 -1.7719 0
M  V30 42 H -2.11428 -4.30501 -0.326076 0
M  V30 43 H -1.09321 -2.03553 -2.61958 0
M  V30 44 H -0.816319 -0.596431 -1.64335 0
M  V30 45 H -2.38289 -0.854019 -2.40236 0
M  V30 46 H -3.40817 -3.21547 -1.75032 0
M  V30 47 H -4.81835 -2.10659 1.51454 0
M  V30 48 H -1.63516 3.57397 -1.89733 0
M  V30 49 H -1.44638 4.28684 -0.26582 0
M  V30 50 H -6.89538 3.22273 -0.127141 0
M  V30 51 H -6.87715 2.43078 1.46234 0
M  V30 52 H 2.8363 -1.46509 -1.11901 0
M  V30 53 H 5.06399 -0.846235 -1.75499 0
M  V30 54 H 2.59373 1.92362 1.37552 0
M  V30 55 H 4.94012 3.467 1.28954 0
M  V30 56 H 7.81454 3.78647 -1.00039 0
M  V30 57 H 7.23152 4.50522 0.510528 0
M  V30 58 H 8.39653 3.101 0.583674 0
M  V30 END ATOM
M  V30 BEGIN BOND
M  V30 1 1 1 2
M  V30 2 1 2 3
M  V30 3 1 3 4
M  V30 4 1 4 5
M  V30 5 1 5 6
M  V30 6 1 6 7
M  V30 7 1 7 8
M  V30 8 1 7 9
M  V30 9 1 7 10 CFG=3
M  V30 10 1 6 11
M  V30 11 1 11 12
M  V30 12 2 12 13
M  V30 13 1 13 14
M  V30 14 2 14 15
M  V30 15 1 15 16
M  V30 16 2 16 17
M  V30 17 1 17 18
M  V30 18 1 17 19
M  V30 19 2 19 20
M  V30 20 1 20 21
M  V30 21 1 4 22
M  V30 22 2 22 23
M  V30 23 1 22 24
M  V30 24 2 24 25
M  V30 25 1 25 26
M  V30 26 2 26 27
M  V30 27 1 27 28
M  V30 28 2 28 29
M  V30 29 1 28 30
M  V30 30 1 30 31
M  V30 31 2 31 32
M  V30 32 1 31 33
M  V30 33 1 8 2
M  V30 34 1 15 11
M  V30 35 1 29 24
M  V30 36 1 20 14
M  V30 37 1 32 27
M  V30 38 1 1 34
M  V30 39 1 2 35 CFG=3
M  V30 40 1 3 36
M  V30 41 1 3 37
M  V30 42 1 5 38
M  V30 43 1 5 39
M  V30 44 1 6 40 CFG=1
M  V30 45 1 8 41
M  V30 46 1 8 42
M  V30 47 1 9 43
M  V30 48 1 9 44
M  V30 49 1 9 45
M  V30 50 1 10 46
M  V30 51 1 12 47
M  V30 52 1 18 48
M  V30 53 1 18 49
M  V30 54 1 21 50
M  V30 55 1 21 51
M  V30 56 1 25 52
M  V30 57 1 26 53
M  V30 58 1 29 54
M  V30 59 1 30 55
M  V30 60 1 33 56
M  V30 61 1 33 57
M  V30 62 1 33 58
M  V30 END BOND
M  V30 END CTAB
M  END
