
     RDKit          3D

  0  0  0  0  0  0  0  0  0  0999 V3000
M  V30 BEGIN CTAB
M  V30 COUNTS 45 46 0 0 0
M  V30 BEGIN ATOM
M  V30 1 N -2.32716 0.0341902 -2.62926 0
M  V30 2 C -3.22551 0.151232 -1.47382 0
M  V30 3 C -2.46393 0.64441 -0.288151 0
M  V30 4 C -3.25677 0.805106 0.954464 0
M  V30 5 C -4.27675 1.91035 0.881875 0
M  V30 6 C -3.99391 -0.489992 1.20143 0
M  V30 7 C -3.14054 -1.69051 1.05485 0
M  V30 8 C -1.70577 -1.45068 0.7376 0
M  V30 9 N -1.34621 -0.273944 0.0492814 0
M  V30 10 C -0.0678045 0.156635 -0.369026 0
M  V30 11 O -0.0888333 1.30879 -0.990759 0
M  V30 12 C 1.22377 -0.41797 -0.244138 0
M  V30 13 C 1.54369 -1.6027 0.348179 0
M  V30 14 C 2.85181 -2.10644 0.433615 0
M  V30 15 C 3.88527 -1.38529 -0.101341 0
M  V30 16 C 3.61769 -0.182176 -0.711021 0
M  V30 17 C 2.3313 0.279288 -0.776767 0
M  V30 18 C 4.73358 0.605752 -1.29369 0
M  V30 19 S 5.42633 1.72348 -0.113418 0
M  V30 20 O 4.39006 2.71229 0.345699 0
M  V30 21 O 6.54319 2.4714 -0.760561 0
M  V30 22 N 6.02741 0.807049 1.22574 0
M  V30 23 H -2.70631 -0.634188 -3.32278 0
M  V30 24 H -2.1284 0.976448 -3.02821 0
M  V30 25 H -3.82441 -0.749288 -1.32977 0
M  V30 26 H -3.96185 0.946766 -1.79808 0
M  V30 27 H -2.04048 1.64364 -0.577014 0
M  V30 28 H -2.56974 0.95423 1.80121 0
M  V30 29 H -4.50254 2.21738 1.92986 0
M  V30 30 H -5.21133 1.50799 0.445722 0
M  V30 31 H -3.9209 2.80032 0.334802 0
M  V30 32 H -4.85298 -0.498994 0.480349 0
M  V30 33 H -4.45796 -0.395187 2.20634 0
M  V30 34 H -3.17877 -2.24156 2.04402 0
M  V30 35 H -3.61292 -2.40119 0.351106 0
M  V30 36 H -1.11144 -1.45406 1.69965 0
M  V30 37 H -1.35779 -2.32601 0.151851 0
M  V30 38 H 0.803286 -2.22107 0.785505 0
M  V30 39 H 3.00532 -3.05249 0.921122 0
M  V30 40 H 4.89106 -1.76246 -0.0411152 0
M  V30 41 H 2.20097 1.24347 -1.27729 0
M  V30 42 H 5.5573 -0.0857589 -1.61508 0
M  V30 43 H 4.42848 1.16651 -2.19634 0
M  V30 44 H 5.21343 0.288587 1.63962 0
M  V30 45 H 6.65705 0.066639 0.815982 0
M  V30 END ATOM
M  V30 BEGIN BOND
M  V30 1 1 1 2
M  V30 2 1 2 3
M  V30 3 1 3 4
M  V30 4 1 4 5
M  V30 5 1 4 6
M  V30 6 1 6 7
M  V30 7 1 7 8
M  V30 8 1 8 9
M  V30 9 1 9 10
M  V30 10 2 10 11
M  V30 11 1 10 12
M  V30 12 2 12 13
M  V30 13 1 13 14
M  V30 14 2 14 15
M  V30 15 1 15 16
M  V30 16 2 16 17
M  V30 17 1 16 18
M  V30 18 1 18 19
M  V30 19 2 19 20
M  V30 20 2 19 21
M  V30 21 1 19 22
M  V30 22 1 9 3
M  V30 23 1 17 12
M  V30 24 1 1 23
M  V30 25 1 1 24
M  V30 26 1 2 25
M  V30 27 1 2 26
M  V30 28 1 3 27
M  V30 29 1 4 28
M  V30 30 1 5 29
M  V30 31 1 5 30
M  V30 32 1 5 31
M  V30 33 1 6 32
M  V30 34 1 6 33
M  V30 35 1 7 34
M  V30 36 1 7 35
M  V30 37 1 8 36
M  V30 38 1 8 37
M  V30 39 1 13 38
M  V30 40 1 14 39
M  V30 41 1 15 40
M  V30 42 1 17 41
M  V30 43 1 18 42
M  V30 44 1 18 43
M  V30 45 1 22 44
M  V30 46 1 22 45
M  V30 END BOND
M  V30 END CTAB
M  END
