
     RDKit          3D

  0  0  0  0  0  0  0  0  0  0999 V3000
M  V30 BEGIN CTAB
M  V30 COUNTS 28 29 0 0 0
M  V30 BEGIN ATOM
M  V30 1 C 4.93314 0.814426 -0.951364 0
M  V30 2 C 4.06397 -0.00434762 -0.0150356 0
M  V30 3 O 2.71337 0.0893009 -0.365151 0
M  V30 4 C 1.99867 -0.685202 0.538472 0
M  V30 5 C 0.554135 -0.684238 0.29501 0
M  V30 6 N -0.316016 0.188531 0.834774 0
M  V30 7 C -1.64567 0.111454 0.54901 0
M  V30 8 C -2.12748 -0.864955 -0.301213 0
M  V30 9 N -1.27176 -1.73614 -0.842182 0
M  V30 10 C 0.028994 -1.64152 -0.547497 0
M  V30 11 N -3.42998 -0.965497 -0.600853 0
M  V30 12 C -4.3183 -0.0946112 -0.065635 0
M  V30 13 N -5.67754 -0.258991 -0.425133 0
M  V30 14 N -3.87277 0.85905 0.760534 0
M  V30 15 C -2.55587 0.989891 1.08646 0
M  V30 16 N -2.11993 2.01187 1.96476 0
M  V30 17 H 5.96806 0.471091 -0.803485 0
M  V30 18 H 4.90246 1.8841 -0.714591 0
M  V30 19 H 4.55211 0.622838 -1.98012 0
M  V30 20 H 4.40074 -1.06304 -0.127694 0
M  V30 21 H 4.21423 0.366658 1.00433 0
M  V30 22 H 2.25533 -0.379096 1.59135 0
M  V30 23 H 2.37162 -1.72659 0.447662 0
M  V30 24 H 0.689865 -2.38261 -1.01903 0
M  V30 25 H -6.02322 0.0171151 -1.35615 0
M  V30 26 H -6.34806 -0.666356 0.259211 0
M  V30 27 H -2.37414 1.93047 2.96854 0
M  V30 28 H -1.56597 2.79641 1.56618 0
M  V30 END ATOM
M  V30 BEGIN BOND
M  V30 1 1 1 2
M  V30 2 1 2 3
M  V30 3 1 3 4
M  V30 4 1 4 5
M  V30 5 2 5 6
M  V30 6 1 6 7
M  V30 7 2 7 8
M  V30 8 1 8 9
M  V30 9 2 9 10
M  V30 10 1 8 11
M  V30 11 2 11 12
M  V30 12 1 12 13
M  V30 13 1 12 14
M  V30 14 2 14 15
M  V30 15 1 15 16
M  V30 16 1 10 5
M  V30 17 1 15 7
M  V30 18 1 1 17
M  V30 19 1 1 18
M  V30 20 1 1 19
M  V30 21 1 2 20
M  V30 22 1 2 21
M  V30 23 1 4 22
M  V30 24 1 4 23
M  V30 25 1 10 24
M  V30 26 1 13 25
M  V30 27 1 13 26
M  V30 28 1 16 27
M  V30 29 1 16 28
M  V30 END BOND
M  V30 END CTAB
M  END
