
     RDKit          3D

  0  0  0  0  0  0  0  0  0  0999 V3000
M  V30 BEGIN CTAB
M  V30 COUNTS 33 34 0 0 0
M  V30 BEGIN ATOM
M  V30 1 C -4.01526 1.23305 -1.9861 0
M  V30 2 C -3.28617 0.643006 -0.833412 0
M  V30 3 C -2.19661 -0.198648 -0.995581 0
M  V30 4 C -1.5219 -0.744614 0.0701136 0
M  V30 5 S -0.134592 -1.81567 -0.162235 0
M  V30 6 C 1.41164 -0.936885 -0.225065 0
M  V30 7 C 1.87747 -0.495305 -1.44133 0
M  V30 8 N 1.08891 -0.769337 -2.58875 0
M  V30 9 C 3.0903 0.200108 -1.53187 0
M  V30 10 C 3.79183 0.421997 -0.36296 0
M  V30 11 C 3.35498 -0.00585196 0.870691 0
M  V30 12 C 4.12771 0.244875 2.11556 0
M  V30 13 C 2.14175 -0.695546 0.920975 0
M  V30 14 C -1.92197 -0.461613 1.35535 0
M  V30 15 N -1.24129 -1.01327 2.47219 0
M  V30 16 C -2.99603 0.367714 1.5321 0
M  V30 17 C -3.67501 0.917167 0.45817 0
M  V30 18 H -4.50424 2.18151 -1.70568 0
M  V30 19 H -4.82157 0.532141 -2.29547 0
M  V30 20 H -3.32232 1.33142 -2.84713 0
M  V30 21 H -1.8985 -0.408426 -2.00568 0
M  V30 22 H 0.666026 -1.70868 -2.77898 0
M  V30 23 H 0.94459 0.0331619 -3.25622 0
M  V30 24 H 3.42149 0.529795 -2.50318 0
M  V30 25 H 4.73364 0.957922 -0.405576 0
M  V30 26 H 3.46711 0.065197 2.97547 0
M  V30 27 H 4.43584 1.31481 2.1342 0
M  V30 28 H 5.01586 -0.438957 2.18012 0
M  V30 29 H 1.8054 -1.02928 1.89994 0
M  V30 30 H -0.477261 -1.70996 2.35182 0
M  V30 31 H -1.49895 -0.726375 3.43359 0
M  V30 32 H -3.33134 0.606554 2.53092 0
M  V30 33 H -4.53152 1.57799 0.624007 0
M  V30 END ATOM
M  V30 BEGIN BOND
M  V30 1 1 1 2
M  V30 2 2 2 3
M  V30 3 1 3 4
M  V30 4 1 4 5
M  V30 5 1 5 6
M  V30 6 2 6 7
M  V30 7 1 7 8
M  V30 8 1 7 9
M  V30 9 2 9 10
M  V30 10 1 10 11
M  V30 11 1 11 12
M  V30 12 2 11 13
M  V30 13 2 4 14
M  V30 14 1 14 15
M  V30 15 1 14 16
M  V30 16 2 16 17
M  V30 17 1 17 2
M  V30 18 1 13 6
M  V30 19 1 1 18
M  V30 20 1 1 19
M  V30 21 1 1 20
M  V30 22 1 3 21
M  V30 23 1 8 22
M  V30 24 1 8 23
M  V30 25 1 9 24
M  V30 26 1 10 25
M  V30 27 1 12 26
M  V30 28 1 12 27
M  V30 29 1 12 28
M  V30 30 1 13 29
M  V30 31 1 15 30
M  V30 32 1 15 31
M  V30 33 1 16 32
M  V30 34 1 17 33
M  V30 END BOND
M  V30 END CTAB
M  END
