
     RDKit          3D

  0  0  0  0  0  0  0  0  0  0999 V3000
M  V30 BEGIN CTAB
M  V30 COUNTS 30 31 0 0 0
M  V30 BEGIN ATOM
M  V30 1 C -2.81338 -3.19459 -1.00914 0
M  V30 2 O -1.83258 -2.26103 -0.678153 0
M  V30 3 C -2.06369 -0.955614 -0.357323 0
M  V30 4 C -3.31853 -0.369717 -0.331827 0
M  V30 5 C -3.55518 0.940955 -0.0239252 0
M  V30 6 N -4.83357 1.55079 0.0440165 0
M  V30 7 C -2.42265 1.7054 0.278875 0
M  V30 8 C -1.16114 1.17048 0.269128 0
M  V30 9 C -0.958866 -0.149429 -0.0469386 0
M  V30 10 S 0.646094 -0.857288 -0.0362015 0
M  V30 11 C 1.98411 0.278132 -0.0387589 0
M  V30 12 N 1.96002 1.59595 -0.240108 0
M  V30 13 N 3.13575 2.14403 -0.109244 0
M  V30 14 C 3.99609 1.17434 0.200938 0
M  V30 15 N 3.28868 0.0090155 0.246119 0
M  V30 16 N 3.77882 -1.24278 0.584268 0
M  V30 17 C 5.44011 1.28812 0.48878 0
M  V30 18 F 5.75897 2.6149 0.823839 0
M  V30 19 F 5.72759 0.506365 1.61205 0
M  V30 20 F 6.18678 0.891427 -0.570491 0
M  V30 21 H -2.67816 -3.58926 -2.0504 0
M  V30 22 H -2.63942 -4.12487 -0.369618 0
M  V30 23 H -3.83605 -2.89016 -0.817455 0
M  V30 24 H -4.16487 -1.00429 -0.559139 0
M  V30 25 H -5.65061 1.15148 0.575194 0
M  V30 26 H -5.01587 2.45873 -0.422923 0
M  V30 27 H -2.5896 2.76109 0.488372 0
M  V30 28 H -0.296005 1.79752 0.558683 0
M  V30 29 H 4.20727 -1.89079 -0.107954 0
M  V30 30 H 3.7199 -1.50888 1.59933 0
M  V30 END ATOM
M  V30 BEGIN BOND
M  V30 1 1 1 2
M  V30 2 1 2 3
M  V30 3 2 3 4
M  V30 4 1 4 5
M  V30 5 1 5 6
M  V30 6 2 5 7
M  V30 7 1 7 8
M  V30 8 2 8 9
M  V30 9 1 9 10
M  V30 10 1 10 11
M  V30 11 2 11 12
M  V30 12 1 12 13
M  V30 13 2 13 14
M  V30 14 1 14 15
M  V30 15 1 15 16
M  V30 16 1 14 17
M  V30 17 1 17 18
M  V30 18 1 17 19
M  V30 19 1 17 20
M  V30 20 1 9 3
M  V30 21 1 15 11
M  V30 22 1 1 21
M  V30 23 1 1 22
M  V30 24 1 1 23
M  V30 25 1 4 24
M  V30 26 1 6 25
M  V30 27 1 6 26
M  V30 28 1 7 27
M  V30 29 1 8 28
M  V30 30 1 16 29
M  V30 31 1 16 30
M  V30 END BOND
M  V30 END CTAB
M  END
