
     RDKit          3D

  0  0  0  0  0  0  0  0  0  0999 V3000
M  V30 BEGIN CTAB
M  V30 COUNTS 17 16 0 0 0
M  V30 BEGIN ATOM
M  V30 1 N 3.18477 -0.114962 0.628542 0
M  V30 2 C 2.34036 0.300371 -0.457892 0
M  V30 3 C 1.00754 -0.37185 -0.247173 0
M  V30 4 C -0.104596 0.32307 -0.0911425 0
M  V30 5 C -1.40349 -0.293265 0.113594 0
M  V30 6 O -1.48261 -1.53369 0.145038 0
M  V30 7 N -2.56157 0.495605 0.275022 0
M  V30 8 N -3.81531 -0.0767655 0.47228 0
M  V30 9 H 3.65045 -1.02117 0.477634 0
M  V30 10 H 3.80535 0.640575 0.986969 0
M  V30 11 H 2.69323 -0.0175942 -1.45211 0
M  V30 12 H 2.24534 1.38541 -0.445732 0
M  V30 13 H 0.921472 -1.44668 -0.217281 0
M  V30 14 H -0.00151306 1.41189 -0.123779 0
M  V30 15 H -2.5075 1.54642 0.250326 0
M  V30 16 H -4.15328 -0.604556 -0.345513 0
M  V30 17 H -3.81864 -0.622829 1.36688 0
M  V30 END ATOM
M  V30 BEGIN BOND
M  V30 1 1 1 2
M  V30 2 1 2 3
M  V30 3 2 3 4
M  V30 4 1 4 5
M  V30 5 2 5 6
M  V30 6 1 5 7
M  V30 7 1 7 8
M  V30 8 1 1 9
M  V30 9 1 1 10
M  V30 10 1 2 11
M  V30 11 1 2 12
M  V30 12 1 3 13
M  V30 13 1 4 14
M  V30 14 1 7 15
M  V30 15 1 8 16
M  V30 16 1 8 17
M  V30 END BOND
M  V30 END CTAB
M  END
