
     RDKit          3D

  0  0  0  0  0  0  0  0  0  0999 V3000
M  V30 BEGIN CTAB
M  V30 COUNTS 19 20 0 0 0
M  V30 BEGIN ATOM
M  V30 1 N 3.55523 -1.13926 -0.0803112 0
M  V30 2 C 2.19296 -0.663553 -0.0524236 0
M  V30 3 N 1.91886 0.650468 -0.136496 0
M  V30 4 C 0.647549 1.08386 -0.109703 0
M  V30 5 N 0.323304 2.47413 -0.197072 0
M  V30 6 C -0.434823 0.219992 0.0038621 0
M  V30 7 C -1.73451 0.672408 0.0305601 0
M  V30 8 C -2.73736 -0.253472 0.14501 0
M  V30 9 Br -4.53486 0.372502 0.181919 0
M  V30 10 C -2.39922 -1.58467 0.227391 0
M  V30 11 N -1.13948 -2.02329 0.201521 0
M  V30 12 C -0.120258 -1.12031 0.0880009 0
M  V30 13 N 1.16266 -1.51819 0.0580563 0
M  V30 14 H 3.70689 -2.11038 -0.377122 0
M  V30 15 H 4.33821 -0.525913 0.187324 0
M  V30 16 H -0.00555422 2.9212 -1.08763 0
M  V30 17 H 0.408892 3.08429 0.639729 0
M  V30 18 H -1.90031 1.73918 -0.0403134 0
M  V30 19 H -3.24819 -2.27899 0.317694 0
M  V30 END ATOM
M  V30 BEGIN BOND
M  V30 1 1 1 2
M  V30 2 2 2 3
M  V30 3 1 3 4
M  V30 4 1 4 5
M  V30 5 2 4 6
M  V30 6 1 6 7
M  V30 7 2 7 8
M  V30 8 1 8 9
M  V30 9 1 8 10
M  V30 10 2 10 11
M  V30 11 1 11 12
M  V30 12 2 12 13
M  V30 13 1 13 2
M  V30 14 1 12 6
M  V30 15 1 1 14
M  V30 16 1 1 15
M  V30 17 1 5 16
M  V30 18 1 5 17
M  V30 19 1 7 18
M  V30 20 1 10 19
M  V30 END BOND
M  V30 END CTAB
M  END
