
     RDKit          3D

  0  0  0  0  0  0  0  0  0  0999 V3000
M  V30 BEGIN CTAB
M  V30 COUNTS 28 28 0 0 0
M  V30 BEGIN ATOM
M  V30 1 C -3.63711 -0.481455 1.57445 0
M  V30 2 C -3.07003 0.14334 0.318677 0
M  V30 3 O -1.71043 -0.2068 0.166876 0
M  V30 4 C -0.746345 0.778156 0.12445 0
M  V30 5 O -1.06425 1.99472 0.219963 0
M  V30 6 C 0.676567 0.45526 -0.0321305 0
M  V30 7 C 1.6403 1.43926 -0.0744017 0
M  V30 8 C 2.97914 1.14106 -0.221466 0
M  V30 9 N 3.95594 2.17446 -0.262391 0
M  V30 10 C 3.41455 -0.161999 -0.333281 0
M  V30 11 C 2.45471 -1.15196 -0.291713 0
M  V30 12 C 1.10787 -0.849911 -0.143654 0
M  V30 13 N 2.89517 -2.48808 -0.405807 0
M  V30 14 Cl 5.12032 -0.554077 -0.521277 0
M  V30 15 C -3.82521 -0.325714 -0.919281 0
M  V30 16 H -3.12078 -1.45403 1.793 0
M  V30 17 H -3.491 0.2376 2.39511 0
M  V30 18 H -4.72095 -0.663075 1.4452 0
M  V30 19 H -3.1736 1.23924 0.386691 0
M  V30 20 H 1.28179 2.4678 0.0153051 0
M  V30 21 H 4.82793 2.04844 -0.826251 0
M  V30 22 H 3.77708 3.03628 0.273696 0
M  V30 23 H 0.376879 -1.63291 -0.113536 0
M  V30 24 H 3.71606 -2.71873 -0.982987 0
M  V30 25 H 2.38474 -3.22966 0.0958593 0
M  V30 26 H -3.4114 -1.2711 -1.30189 0
M  V30 27 H -3.75207 0.41436 -1.7437 0
M  V30 28 H -4.88586 -0.380479 -0.635505 0
M  V30 END ATOM
M  V30 BEGIN BOND
M  V30 1 1 1 2
M  V30 2 1 2 3
M  V30 3 1 3 4
M  V30 4 2 4 5
M  V30 5 1 4 6
M  V30 6 2 6 7
M  V30 7 1 7 8
M  V30 8 1 8 9
M  V30 9 2 8 10
M  V30 10 1 10 11
M  V30 11 2 11 12
M  V30 12 1 11 13
M  V30 13 1 10 14
M  V30 14 1 2 15
M  V30 15 1 12 6
M  V30 16 1 1 16
M  V30 17 1 1 17
M  V30 18 1 1 18
M  V30 19 1 2 19
M  V30 20 1 7 20
M  V30 21 1 9 21
M  V30 22 1 9 22
M  V30 23 1 12 23
M  V30 24 1 13 24
M  V30 25 1 13 25
M  V30 26 1 15 26
M  V30 27 1 15 27
M  V30 28 1 15 28
M  V30 END BOND
M  V30 END CTAB
M  END
