
     RDKit          3D

  0  0  0  0  0  0  0  0  0  0999 V3000
M  V30 BEGIN CTAB
M  V30 COUNTS 32 33 0 0 0
M  V30 BEGIN ATOM
M  V30 1 O 1.71634 1.27566 -0.845743 0
M  V30 2 C 1.39434 0.310508 -0.145212 0
M  V30 3 N 2.33562 -0.489984 0.513683 0
M  V30 4 C 3.74719 -0.38431 0.525712 0
M  V30 5 C 4.45028 0.601412 -0.165488 0
M  V30 6 C 5.84264 0.658086 -0.118089 0
M  V30 7 C 6.50693 -0.284943 0.629369 0
M  V30 8 C 5.82654 -1.26765 1.31981 0
M  V30 9 C 4.45903 -1.32855 1.27716 0
M  V30 10 Cl 3.61662 -2.58505 2.16172 0
M  V30 11 Br 8.41335 -0.225026 0.707414 0
M  V30 12 C -0.0697332 0.0156199 -0.0192377 0
M  V30 13 S -1.04443 1.2136 -0.978615 0
M  V30 14 C -2.78606 0.851139 -0.821763 0
M  V30 15 N -3.44503 0.0233861 -1.65259 0
M  V30 16 C -4.76388 -0.234987 -1.51287 0
M  V30 17 N -5.42257 -1.11593 -2.41247 0
M  V30 18 C -5.47098 0.34842 -0.50729 0
M  V30 19 C -4.80479 1.20173 0.353897 0
M  V30 20 N -3.47113 1.43346 0.174523 0
M  V30 21 N -5.51172 1.82584 1.41192 0
M  V30 22 H 1.94695 -1.31475 1.10497 0
M  V30 23 H 3.93997 1.34885 -0.756968 0
M  V30 24 H 6.36862 1.42721 -0.658831 0
M  V30 25 H 6.35046 -2.02298 1.91796 0
M  V30 26 H -0.320784 -1.00905 -0.331942 0
M  V30 27 H -0.353339 0.125831 1.04311 0
M  V30 28 H -5.85972 -2.02013 -2.07688 0
M  V30 29 H -5.4701 -0.857117 -3.41872 0
M  V30 30 H -6.52454 0.195695 -0.326447 0
M  V30 31 H -6.26166 2.51402 1.18631 0
M  V30 32 H -5.33441 1.64457 2.42161 0
M  V30 END ATOM
M  V30 BEGIN BOND
M  V30 1 2 1 2
M  V30 2 1 2 3
M  V30 3 1 3 4
M  V30 4 2 4 5
M  V30 5 1 5 6
M  V30 6 2 6 7
M  V30 7 1 7 8
M  V30 8 2 8 9
M  V30 9 1 9 10
M  V30 10 1 7 11
M  V30 11 1 2 12
M  V30 12 1 12 13
M  V30 13 1 13 14
M  V30 14 2 14 15
M  V30 15 1 15 16
M  V30 16 1 16 17
M  V30 17 2 16 18
M  V30 18 1 18 19
M  V30 19 2 19 20
M  V30 20 1 19 21
M  V30 21 1 9 4
M  V30 22 1 20 14
M  V30 23 1 3 22
M  V30 24 1 5 23
M  V30 25 1 6 24
M  V30 26 1 8 25
M  V30 27 1 12 26
M  V30 28 1 12 27
M  V30 29 1 17 28
M  V30 30 1 17 29
M  V30 31 1 18 30
M  V30 32 1 21 31
M  V30 33 1 21 32
M  V30 END BOND
M  V30 END CTAB
M  END
