
     RDKit          3D

  0  0  0  0  0  0  0  0  0  0999 V3000
M  V30 BEGIN CTAB
M  V30 COUNTS 69 73 0 0 0
M  V30 BEGIN ATOM
M  V30 1 C -3.44554 -3.49318 -1.93564 0
M  V30 2 C -3.38166 -2.88791 -0.528089 0
M  V30 3 C -2.27623 -3.57186 0.197588 0
M  V30 4 N -4.64571 -3.24948 0.0902585 0
M  V30 5 C -3.22762 -1.42245 -0.666751 0
M  V30 6 C -3.321 -0.572905 0.320822 0
M  V30 7 C -3.5975 -1.21704 1.62075 0
M  V30 8 N -3.81715 -1.70294 2.65883 0
M  V30 9 C -3.23237 0.846061 0.346681 0
M  V30 10 O -3.33514 1.40493 1.50558 0
M  V30 11 N -3.04672 1.77403 -0.707147 0
M  V30 12 C -2.95531 1.50074 -2.09812 0
M  V30 13 C -3.13587 2.84191 -2.79609 0
M  V30 14 C -3.63593 3.77555 -1.70353 0
M  V30 15 C -2.89958 3.21596 -0.501442 0 CFG=2
M  V30 16 C -1.50946 3.7161 -0.56651 0
M  V30 17 N -0.576098 3.18194 0.369634 0
M  V30 18 N 0.195037 2.13996 0.117131 0
M  V30 19 C 0.99043 1.88964 1.17658 0
M  V30 20 C 0.675503 2.83324 2.11657 0
M  V30 21 C 1.12477 3.09277 3.38779 0
M  V30 22 N 2.12201 2.25317 3.94765 0
M  V30 23 N 0.610756 4.12156 4.11186 0
M  V30 24 C -0.34307 4.89304 3.5882 0
M  V30 25 N -0.806082 4.66562 2.34856 0
M  V30 26 C -0.326322 3.66061 1.60022 0
M  V30 27 C 1.96135 0.804725 1.22381 0
M  V30 28 C 1.57942 -0.519911 1.1205 0
M  V30 29 F 0.25789 -0.75113 1.02761 0
M  V30 30 C 2.50644 -1.53098 1.11557 0
M  V30 31 C 3.85667 -1.30181 1.21142 0
M  V30 32 O 4.79741 -2.33148 1.20619 0
M  V30 33 C 5.3117 -2.77135 -0.0180532 0
M  V30 34 C 6.24125 -3.78255 -0.0456763 0
M  V30 35 F 6.64721 -4.33858 1.11781 0
M  V30 36 C 6.7611 -4.23196 -1.24331 0
M  V30 37 F 7.67522 -5.22257 -1.31303 0
M  V30 38 C 6.36403 -3.6791 -2.4648 0
M  V30 39 C 5.43657 -2.67199 -2.41649 0
M  V30 40 C 4.91789 -2.22371 -1.21964 0
M  V30 41 C 4.23711 0.0225745 1.31468 0
M  V30 42 C 3.32663 1.0552 1.32164 0
M  V30 43 H -3.85953 -2.71758 -2.60959 0
M  V30 44 H -2.38211 -3.62361 -2.23783 0
M  V30 45 H -4.01615 -4.42359 -1.96254 0
M  V30 46 H -1.70134 -2.95841 0.89586 0
M  V30 47 H -2.6926 -4.50458 0.646344 0
M  V30 48 H -1.53976 -3.95018 -0.569906 0
M  V30 49 H -5.43966 -2.68577 -0.287182 0
M  V30 50 H -4.81866 -4.2582 0.0844772 0
M  V30 51 H -3.00775 -1.06944 -1.65842 0
M  V30 52 H -2.04416 0.978853 -2.42562 0
M  V30 53 H -3.82948 0.873623 -2.46613 0
M  V30 54 H -2.18245 3.12581 -3.23394 0
M  V30 55 H -3.8668 2.79086 -3.63441 0
M  V30 56 H -3.26392 4.79279 -1.90135 0
M  V30 57 H -4.72571 3.71212 -1.59594 0
M  V30 58 H -3.46647 3.54443 0.393482 0
M  V30 59 H -1.53406 4.83282 -0.381552 0
M  V30 60 H -1.12422 3.62619 -1.60691 0
M  V30 61 H 3.07715 2.61015 4.06665 0
M  V30 62 H 1.87639 1.29576 4.228 0
M  V30 63 H -0.750676 5.7299 4.19074 0
M  V30 64 H 2.16172 -2.54572 1.03374 0
M  V30 65 H 6.76486 -4.02346 -3.40448 0
M  V30 66 H 5.09935 -2.21272 -3.34127 0
M  V30 67 H 4.17779 -1.42177 -1.16913 0
M  V30 68 H 5.31342 0.19425 1.39023 0
M  V30 69 H 3.69281 2.07303 1.39692 0
M  V30 END ATOM
M  V30 BEGIN BOND
M  V30 1 1 1 2
M  V30 2 1 2 3
M  V30 3 1 2 4
M  V30 4 1 2 5
M  V30 5 2 5 6 CFG=2
M  V30 6 1 6 7
M  V30 7 3 7 8
M  V30 8 1 6 9
M  V30 9 2 9 10
M  V30 10 1 9 11
M  V30 11 1 11 12
M  V30 12 1 12 13
M  V30 13 1 13 14
M  V30 14 1 14 15
M  V30 15 1 15 16
M  V30 16 1 16 17
M  V30 17 1 17 18
M  V30 18 2 18 19
M  V30 19 1 19 20
M  V30 20 2 20 21
M  V30 21 1 21 22
M  V30 22 1 21 23
M  V30 23 2 23 24
M  V30 24 1 24 25
M  V30 25 2 25 26
M  V30 26 1 19 27
M  V30 27 2 27 28
M  V30 28 1 28 29
M  V30 29 1 28 30
M  V30 30 2 30 31
M  V30 31 1 31 32
M  V30 32 1 32 33
M  V30 33 2 33 34
M  V30 34 1 34 35
M  V30 35 1 34 36
M  V30 36 1 36 37
M  V30 37 2 36 38
M  V30 38 1 38 39
M  V30 39 2 39 40
M  V30 40 1 31 41
M  V30 41 2 41 42
M  V30 42 1 15 11
M  V30 43 1 26 17
M  V30 44 1 42 27
M  V30 45 1 26 20
M  V30 46 1 40 33
M  V30 47 1 1 43
M  V30 48 1 1 44
M  V30 49 1 1 45
M  V30 50 1 3 46
M  V30 51 1 3 47
M  V30 52 1 3 48
M  V30 53 1 4 49
M  V30 54 1 4 50
M  V30 55 1 5 51
M  V30 56 1 12 52
M  V30 57 1 12 53
M  V30 58 1 13 54
M  V30 59 1 13 55
M  V30 60 1 14 56
M  V30 61 1 14 57
M  V30 62 1 15 58 CFG=1
M  V30 63 1 16 59
M  V30 64 1 16 60
M  V30 65 1 22 61
M  V30 66 1 22 62
M  V30 67 1 24 63
M  V30 68 1 30 64
M  V30 69 1 38 65
M  V30 70 1 39 66
M  V30 71 1 40 67
M  V30 72 1 41 68
M  V30 73 1 42 69
M  V30 END BOND
M  V30 END CTAB
M  END
