
     RDKit          3D

  0  0  0  0  0  0  0  0  0  0999 V3000
M  V30 BEGIN CTAB
M  V30 COUNTS 63 66 0 0 0
M  V30 BEGIN ATOM
M  V30 1 C 1.52978 -5.66504 -2.27063 0
M  V30 2 C 0.346903 -4.71763 -2.33162 0
M  V30 3 O 0.529933 -3.64945 -1.47785 0
M  V30 4 C 1.67046 -2.90657 -1.78829 0
M  V30 5 C 1.76608 -1.78471 -0.805376 0
M  V30 6 C 2.99556 -0.950383 -0.934556 0
M  V30 7 C 3.41278 -0.749903 0.482168 0
M  V30 8 N 2.74076 -1.54017 1.22471 0
M  V30 9 O 1.86453 -2.3091 0.500571 0
M  V30 10 C 4.42373 0.194052 0.949361 0
M  V30 11 C 4.73362 0.30062 2.27533 0
M  V30 12 C 5.68116 1.18185 2.73553 0
M  V30 13 C 6.32919 1.97732 1.80257 0
M  V30 14 C 6.04873 1.90345 0.456361 0
M  V30 15 C 5.09549 1.01027 0.0364951 0
M  V30 16 C 6.75807 2.76234 -0.488328 0
M  V30 17 N 7.7365 3.67233 -0.0135757 0
M  V30 18 N 6.51943 2.71903 -1.76022 0
M  V30 19 C 0.505268 -0.96456 -0.961241 0
M  V30 20 O 0.347277 -0.46585 -2.09322 0
M  V30 21 N -0.336792 -0.848157 0.146614 0
M  V30 22 C -1.5558 -0.140645 0.23594 0
M  V30 23 N -2.25453 -0.138175 1.41982 0
M  V30 24 C -3.40981 0.500131 1.59343 0
M  V30 25 C -4.03329 1.23926 0.577086 0
M  V30 26 C -3.35303 1.25212 -0.614769 0
M  V30 27 C -2.13386 0.571249 -0.779258 0
M  V30 28 C -5.27323 1.94659 0.827428 0
M  V30 29 C -6.44413 1.52483 0.269372 0
M  V30 30 C -7.63178 2.23748 0.499735 0
M  V30 31 C -7.64635 3.36273 1.28346 0
M  V30 32 C -6.46967 3.79909 1.85431 0
M  V30 33 C -5.31434 3.09778 1.62397 0
M  V30 34 S -6.50464 0.10389 -0.70009 0
M  V30 35 N -5.90583 -1.29294 0.163891 0
M  V30 36 O -7.99161 -0.231262 -0.917412 0
M  V30 37 O -5.93434 0.213706 -2.05944 0
M  V30 38 H 1.21144 -6.69416 -2.56896 0
M  V30 39 H 1.86886 -5.75312 -1.21485 0
M  V30 40 H 2.3645 -5.3258 -2.91288 0
M  V30 41 H -0.547888 -5.26588 -1.9986 0
M  V30 42 H 0.192522 -4.37441 -3.39154 0
M  V30 43 H 2.54365 -3.57322 -1.62517 0
M  V30 44 H 1.62894 -2.49398 -2.81709 0
M  V30 45 H 3.80296 -1.51617 -1.47927 0
M  V30 46 H 2.83896 0.043466 -1.3716 0
M  V30 47 H 4.21641 -0.331846 3.00434 0
M  V30 48 H 5.88284 1.22113 3.79315 0
M  V30 49 H 7.06705 2.66752 2.13518 0
M  V30 50 H 4.82818 0.90064 -0.992739 0
M  V30 51 H 8.63776 3.76261 -0.507242 0
M  V30 52 H 7.52592 4.23305 0.825956 0
M  V30 53 H 7.02431 3.32885 -2.42289 0
M  V30 54 H -0.0232709 -1.35519 1.03697 0
M  V30 55 H -3.94133 0.483438 2.54625 0
M  V30 56 H -3.74699 1.81535 -1.44584 0
M  V30 57 H -1.65258 0.621789 -1.74146 0
M  V30 58 H -8.55786 1.90846 0.060441 0
M  V30 59 H -8.55984 3.92851 1.47296 0
M  V30 60 H -6.47135 4.69678 2.4823 0
M  V30 61 H -4.38322 3.42812 2.06521 0
M  V30 62 H -6.60343 -1.48169 0.91864 0
M  V30 63 H -5.98872 -2.08982 -0.522362 0
M  V30 END ATOM
M  V30 BEGIN BOND
M  V30 1 1 1 2
M  V30 2 1 2 3
M  V30 3 1 3 4
M  V30 4 1 4 5
M  V30 5 1 5 6
M  V30 6 1 6 7
M  V30 7 2 7 8
M  V30 8 1 8 9
M  V30 9 1 7 10
M  V30 10 2 10 11
M  V30 11 1 11 12
M  V30 12 2 12 13
M  V30 13 1 13 14
M  V30 14 2 14 15
M  V30 15 1 14 16
M  V30 16 1 16 17
M  V30 17 2 16 18 CFG=2
M  V30 18 1 5 19
M  V30 19 2 19 20
M  V30 20 1 19 21
M  V30 21 1 21 22
M  V30 22 2 22 23
M  V30 23 1 23 24
M  V30 24 2 24 25
M  V30 25 1 25 26
M  V30 26 2 26 27
M  V30 27 1 25 28
M  V30 28 2 28 29
M  V30 29 1 29 30
M  V30 30 2 30 31
M  V30 31 1 31 32
M  V30 32 2 32 33
M  V30 33 1 29 34
M  V30 34 1 34 35
M  V30 35 2 34 36
M  V30 36 2 34 37
M  V30 37 1 9 5
M  V30 38 1 15 10
M  V30 39 1 27 22
M  V30 40 1 33 28
M  V30 41 1 1 38
M  V30 42 1 1 39
M  V30 43 1 1 40
M  V30 44 1 2 41
M  V30 45 1 2 42
M  V30 46 1 4 43
M  V30 47 1 4 44
M  V30 48 1 6 45
M  V30 49 1 6 46
M  V30 50 1 11 47
M  V30 51 1 12 48
M  V30 52 1 13 49
M  V30 53 1 15 50
M  V30 54 1 17 51
M  V30 55 1 17 52
M  V30 56 1 18 53
M  V30 57 1 21 54
M  V30 58 1 24 55
M  V30 59 1 26 56
M  V30 60 1 27 57
M  V30 61 1 30 58
M  V30 62 1 31 59
M  V30 63 1 32 60
M  V30 64 1 33 61
M  V30 65 1 35 62
M  V30 66 1 35 63
M  V30 END BOND
M  V30 END CTAB
M  END
