
     RDKit          3D

  0  0  0  0  0  0  0  0  0  0999 V3000
M  V30 BEGIN CTAB
M  V30 COUNTS 37 36 0 0 0
M  V30 BEGIN ATOM
M  V30 1 C -3.70369 -2.15173 -0.649938 0
M  V30 2 C -4.09365 -0.861865 -0.0188897 0
M  V30 3 C -2.86825 -0.0615329 0.461345 0
M  V30 4 C -1.99589 0.23108 -0.693819 0
M  V30 5 C -0.742008 0.988076 -0.441761 0
M  V30 6 N 0.0657139 0.241183 0.484639 0
M  V30 7 C 1.33395 -0.242996 0.0677598 0
M  V30 8 O 1.7218 0.00148929 -1.1267 0
M  V30 9 C 2.22075 -1.01289 0.948723 0
M  V30 10 C 3.56658 -1.24867 0.351622 0
M  V30 11 C 4.38524 -0.0300444 0.0868808 0
M  V30 12 N 5.67681 -0.411302 -0.498213 0
M  V30 13 C -0.878799 2.39728 0.00485981 0
M  V30 14 N -1.57042 2.62293 1.22669 0
M  V30 15 H -3.91617 -2.17523 -1.75202 0
M  V30 16 H -4.31606 -2.96404 -0.182281 0
M  V30 17 H -2.65663 -2.4423 -0.522458 0
M  V30 18 H -4.72618 -1.01778 0.901062 0
M  V30 19 H -4.63783 -0.229471 -0.756868 0
M  V30 20 H -2.35407 -0.754417 1.18976 0
M  V30 21 H -3.31649 0.811133 0.973303 0
M  V30 22 H -1.77966 -0.732333 -1.20976 0
M  V30 23 H -2.60807 0.844591 -1.42134 0
M  V30 24 H -0.141232 1.04194 -1.40927 0
M  V30 25 H -0.264806 0.0536987 1.44586 0
M  V30 26 H 1.72313 -1.98345 1.23614 0
M  V30 27 H 2.2825 -0.435325 1.9143 0
M  V30 28 H 4.12526 -1.92577 1.03821 0
M  V30 29 H 3.45347 -1.7853 -0.633887 0
M  V30 30 H 3.86176 0.699247 -0.51452 0
M  V30 31 H 4.63649 0.482854 1.06624 0
M  V30 32 H 6.4123 0.325692 -0.285933 0
M  V30 33 H 5.55485 -0.337509 -1.55088 0
M  V30 34 H -1.25583 3.03644 -0.839674 0
M  V30 35 H 0.175989 2.7762 0.158708 0
M  V30 36 H -0.972888 3.0185 1.98452 0
M  V30 37 H -2.39797 3.23162 1.04175 0
M  V30 END ATOM
M  V30 BEGIN BOND
M  V30 1 1 1 2
M  V30 2 1 2 3
M  V30 3 1 3 4
M  V30 4 1 4 5
M  V30 5 1 5 6
M  V30 6 1 6 7
M  V30 7 2 7 8
M  V30 8 1 7 9
M  V30 9 1 9 10
M  V30 10 1 10 11
M  V30 11 1 11 12
M  V30 12 1 5 13
M  V30 13 1 13 14
M  V30 14 1 1 15
M  V30 15 1 1 16
M  V30 16 1 1 17
M  V30 17 1 2 18
M  V30 18 1 2 19
M  V30 19 1 3 20
M  V30 20 1 3 21
M  V30 21 1 4 22
M  V30 22 1 4 23
M  V30 23 1 5 24
M  V30 24 1 6 25
M  V30 25 1 9 26
M  V30 26 1 9 27
M  V30 27 1 10 28
M  V30 28 1 10 29
M  V30 29 1 11 30
M  V30 30 1 11 31
M  V30 31 1 12 32
M  V30 32 1 12 33
M  V30 33 1 13 34
M  V30 34 1 13 35
M  V30 35 1 14 36
M  V30 36 1 14 37
M  V30 END BOND
M  V30 END CTAB
M  END
