
     RDKit          3D

  0  0  0  0  0  0  0  0  0  0999 V3000
M  V30 BEGIN CTAB
M  V30 COUNTS 40 41 0 0 0
M  V30 BEGIN ATOM
M  V30 1 N 4.33888 3.31144 0.0325038 0
M  V30 2 C 4.6291 1.92153 0.283884 0
M  V30 3 N 5.23605 1.42253 1.35905 0
M  V30 4 N 5.29759 0.0992255 1.17765 0
M  V30 5 C 4.73194 -0.181463 0.00549708 0
M  V30 6 C 4.5739 -1.516 -0.608625 0
M  V30 7 C 3.25111 -2.07967 -0.149487 0
M  V30 8 C 2.08663 -1.20824 -0.558446 0
M  V30 9 C 0.829389 -1.8805 -0.0411975 0
M  V30 10 C -0.407952 -1.07949 -0.401465 0
M  V30 11 C -1.59508 -1.83948 0.161393 0
M  V30 12 C -2.88654 -1.13285 -0.137706 0
M  V30 13 C -2.93047 0.257496 0.452858 0
M  V30 14 C -4.26227 0.84417 0.0819824 0
M  V30 15 N -5.25272 0.285844 -0.631154 0
M  V30 16 N -6.20914 1.19897 -0.681254 0
M  V30 17 C -5.81124 2.31385 -0.00319116 0
M  V30 18 N -6.59331 3.4795 0.140061 0
M  V30 19 O -4.6124 2.04592 0.445049 0
M  V30 20 O 4.33344 0.948499 -0.517322 0
M  V30 21 H 4.29978 4.01834 0.788711 0
M  V30 22 H 4.15974 3.62857 -0.944965 0
M  V30 23 H 5.38413 -2.15636 -0.203825 0
M  V30 24 H 4.68379 -1.51153 -1.69686 0
M  V30 25 H 3.13831 -3.10273 -0.557496 0
M  V30 26 H 3.24712 -2.14859 0.953382 0
M  V30 27 H 2.00317 -1.05911 -1.63766 0
M  V30 28 H 2.13825 -0.220295 -0.0586177 0
M  V30 29 H 0.700743 -2.8897 -0.461999 0
M  V30 30 H 0.881027 -1.88252 1.07524 0
M  V30 31 H -0.508636 -1.09953 -1.51599 0
M  V30 32 H -0.35819 -0.0478586 -0.0179605 0
M  V30 33 H -1.44631 -2.04975 1.23452 0
M  V30 34 H -1.6221 -2.81629 -0.363206 0
M  V30 35 H -3.70993 -1.73021 0.249007 0
M  V30 36 H -2.94697 -1.01502 -1.24247 0
M  V30 37 H -2.16011 0.916902 0.0276379 0
M  V30 38 H -2.87983 0.154362 1.54903 0
M  V30 39 H -6.92976 3.97564 -0.694527 0
M  V30 40 H -6.8211 3.82438 1.08494 0
M  V30 END ATOM
M  V30 BEGIN BOND
M  V30 1 1 1 2
M  V30 2 2 2 3
M  V30 3 1 3 4
M  V30 4 2 4 5
M  V30 5 1 5 6
M  V30 6 1 6 7
M  V30 7 1 7 8
M  V30 8 1 8 9
M  V30 9 1 9 10
M  V30 10 1 10 11
M  V30 11 1 11 12
M  V30 12 1 12 13
M  V30 13 1 13 14
M  V30 14 2 14 15
M  V30 15 1 15 16
M  V30 16 2 16 17
M  V30 17 1 17 18
M  V30 18 1 17 19
M  V30 19 1 5 20
M  V30 20 1 20 2
M  V30 21 1 19 14
M  V30 22 1 1 21
M  V30 23 1 1 22
M  V30 24 1 6 23
M  V30 25 1 6 24
M  V30 26 1 7 25
M  V30 27 1 7 26
M  V30 28 1 8 27
M  V30 29 1 8 28
M  V30 30 1 9 29
M  V30 31 1 9 30
M  V30 32 1 10 31
M  V30 33 1 10 32
M  V30 34 1 11 33
M  V30 35 1 11 34
M  V30 36 1 12 35
M  V30 37 1 12 36
M  V30 38 1 13 37
M  V30 39 1 13 38
M  V30 40 1 18 39
M  V30 41 1 18 40
M  V30 END BOND
M  V30 END CTAB
M  END
