
     RDKit          3D

  0  0  0  0  0  0  0  0  0  0999 V3000
M  V30 BEGIN CTAB
M  V30 COUNTS 55 56 0 0 0
M  V30 BEGIN ATOM
M  V30 1 N -7.52199 2.58467 1.37768 0
M  V30 2 N -6.53958 1.68644 1.79393 0
M  V30 3 C -6.54822 1.23183 3.14037 0
M  V30 4 C -7.36562 -0.0221719 3.22362 0
M  V30 5 C -7.93973 -0.526407 2.14016 0
M  V30 6 C -5.5558 1.26723 0.854271 0
M  V30 7 O -5.65639 1.77123 -0.293784 0
M  V30 8 N -4.53895 0.364869 1.14614 0
M  V30 9 C -3.5406 -0.0664271 0.246335 0
M  V30 10 C -3.15557 0.555749 -0.910643 0
M  V30 11 C -2.16121 0.0241103 -1.75198 0
M  V30 12 C -1.51754 -1.152 -1.45988 0
M  V30 13 C -0.479503 -1.68012 -2.36552 0
M  V30 14 C 0.870344 -1.20851 -2.0479 0
M  V30 15 C 1.66352 -1.90991 -1.18086 0
M  V30 16 C 2.95851 -1.46276 -0.872421 0
M  V30 17 C 3.47525 -0.331334 -1.4129 0
M  V30 18 N 4.77322 0.14003 -1.14821 0
M  V30 19 C 5.82697 -0.621262 -0.626466 0
M  V30 20 O 5.71414 -1.8406 -0.339106 0
M  V30 21 N 7.11034 -0.0558001 -0.383922 0
M  V30 22 N 8.11711 -0.855216 0.155632 0
M  V30 23 C 7.36463 1.31858 -0.705043 0
M  V30 24 C 7.00956 2.12355 0.514886 0
M  V30 25 C 7.93779 2.85504 1.09363 0
M  V30 26 C 2.64687 0.386912 -2.30801 0
M  V30 27 C 1.3794 -0.0603803 -2.60274 0
M  V30 28 C -1.90137 -1.77935 -0.297642 0
M  V30 29 C -2.86679 -1.27858 0.533987 0
M  V30 30 H -7.75628 3.30467 2.08209 0
M  V30 31 H -7.35545 2.95891 0.425832 0
M  V30 32 H -5.52082 1.04985 3.48431 0
M  V30 33 H -7.01872 2.00192 3.81615 0
M  V30 34 H -7.47545 -0.502529 4.18065 0
M  V30 35 H -8.52686 -1.43249 2.21588 0
M  V30 36 H -7.85005 -0.0699499 1.1659 0
M  V30 37 H -4.54226 -0.01888 2.14699 0
M  V30 38 H -3.61375 1.49883 -1.19007 0
M  V30 39 H -1.90159 0.563876 -2.6541 0
M  V30 40 H -0.678531 -1.41928 -3.43293 0
M  V30 41 H -0.462804 -2.80987 -2.35984 0
M  V30 42 H 1.34409 -2.81883 -0.701787 0
M  V30 43 H 3.48238 -2.08501 -0.167722 0
M  V30 44 H 4.96056 1.17832 -1.36205 0
M  V30 45 H 7.6599 -1.43377 0.911961 0
M  V30 46 H 8.41426 -1.54176 -0.578537 0
M  V30 47 H 8.48759 1.40888 -0.880487 0
M  V30 48 H 6.83612 1.71015 -1.57485 0
M  V30 49 H 6.00423 2.10134 0.911496 0
M  V30 50 H 8.97044 2.89651 0.711335 0
M  V30 51 H 7.67064 3.43087 1.97184 0
M  V30 52 H 3.07173 1.27806 -2.72493 0
M  V30 53 H 0.802359 0.555629 -3.30669 0
M  V30 54 H -1.39118 -2.71767 -0.0592495 0
M  V30 55 H -3.16932 -1.77851 1.45519 0
M  V30 END ATOM
M  V30 BEGIN BOND
M  V30 1 1 1 2
M  V30 2 1 2 3
M  V30 3 1 3 4
M  V30 4 2 4 5 CFG=2
M  V30 5 1 2 6
M  V30 6 2 6 7
M  V30 7 1 6 8
M  V30 8 1 8 9
M  V30 9 2 9 10
M  V30 10 1 10 11
M  V30 11 2 11 12
M  V30 12 1 12 13
M  V30 13 1 13 14
M  V30 14 2 14 15
M  V30 15 1 15 16
M  V30 16 2 16 17
M  V30 17 1 17 18
M  V30 18 1 18 19
M  V30 19 2 19 20
M  V30 20 1 19 21
M  V30 21 1 21 22
M  V30 22 1 21 23
M  V30 23 1 23 24
M  V30 24 2 24 25 CFG=2
M  V30 25 1 17 26
M  V30 26 2 26 27
M  V30 27 1 12 28
M  V30 28 2 28 29
M  V30 29 1 29 9
M  V30 30 1 27 14
M  V30 31 1 1 30
M  V30 32 1 1 31
M  V30 33 1 3 32
M  V30 34 1 3 33
M  V30 35 1 4 34
M  V30 36 1 5 35
M  V30 37 1 5 36
M  V30 38 1 8 37
M  V30 39 1 10 38
M  V30 40 1 11 39
M  V30 41 1 13 40
M  V30 42 1 13 41
M  V30 43 1 15 42
M  V30 44 1 16 43
M  V30 45 1 18 44
M  V30 46 1 22 45
M  V30 47 1 22 46
M  V30 48 1 23 47
M  V30 49 1 23 48
M  V30 50 1 24 49
M  V30 51 1 25 50
M  V30 52 1 25 51
M  V30 53 1 26 52
M  V30 54 1 27 53
M  V30 55 1 28 54
M  V30 56 1 29 55
M  V30 END BOND
M  V30 END CTAB
M  END
