
     RDKit          3D

  0  0  0  0  0  0  0  0  0  0999 V3000
M  V30 BEGIN CTAB
M  V30 COUNTS 20 20 0 0 0
M  V30 BEGIN ATOM
M  V30 1 O -3.10632 -0.92085 -1.77462 0 CHG=-1
M  V30 2 N -2.6071 -0.88866 -0.505062 0 CHG=1
M  V30 3 O -3.31371 -1.42935 0.381691 0
M  V30 4 C -1.36706 -0.292028 -0.165404 0
M  V30 5 C -1.2071 0.920687 0.491591 0
M  V30 6 N -2.29024 1.73504 0.921191 0
M  V30 7 N 0.119755 1.10722 0.604796 0
M  V30 8 N 0.79434 0.0916564 0.062383 0
M  V30 9 C -0.108605 -0.788632 -0.421645 0
M  V30 10 N 0.144965 -2.02842 -1.08704 0
M  V30 11 C 2.20081 -0.07595 -0.0133039 0
M  V30 12 O 2.69039 -1.08696 -0.556508 0
M  V30 13 C 3.10434 0.946304 0.551949 0
M  V30 14 H -3.17688 1.76714 0.364729 0
M  V30 15 H -2.27368 2.32698 1.77772 0
M  V30 16 H -0.362962 -2.26122 -1.96898 0
M  V30 17 H 0.821227 -2.74785 -0.751716 0
M  V30 18 H 3.07571 0.931482 1.67451 0
M  V30 19 H 2.72398 1.93035 0.207357 0
M  V30 20 H 4.13815 0.763066 0.206358 0
M  V30 END ATOM
M  V30 BEGIN BOND
M  V30 1 1 1 2
M  V30 2 2 2 3
M  V30 3 1 2 4
M  V30 4 1 4 5
M  V30 5 1 5 6
M  V30 6 2 5 7
M  V30 7 1 7 8
M  V30 8 1 8 9
M  V30 9 1 9 10
M  V30 10 1 8 11
M  V30 11 2 11 12
M  V30 12 1 11 13
M  V30 13 2 9 4
M  V30 14 1 6 14
M  V30 15 1 6 15
M  V30 16 1 10 16
M  V30 17 1 10 17
M  V30 18 1 13 18
M  V30 19 1 13 19
M  V30 20 1 13 20
M  V30 END BOND
M  V30 END CTAB
M  END
