
     RDKit          3D

  0  0  0  0  0  0  0  0  0  0999 V3000
M  V30 BEGIN CTAB
M  V30 COUNTS 37 38 0 0 0
M  V30 BEGIN ATOM
M  V30 1 C -5.283 -0.565112 1.5491 0
M  V30 2 C -4.14286 0.114915 0.883766 0
M  V30 3 C -3.85268 -0.0241587 -0.455707 0
M  V30 4 C -2.77787 0.626896 -1.04541 0
M  V30 5 C -1.94991 1.44533 -0.311366 0
M  V30 6 C -2.23606 1.59223 1.04589 0
M  V30 7 C -3.30652 0.93668 1.60635 0
M  V30 8 N -0.842239 2.12379 -0.898323 0
M  V30 9 S 0.270827 1.38601 -1.9592 0
M  V30 10 O 1.30737 2.37312 -2.45446 0
M  V30 11 O -0.413042 0.861689 -3.18604 0
M  V30 12 C 1.06723 0.0868614 -1.1011 0
M  V30 13 C 0.587955 -1.20543 -1.08332 0
M  V30 14 C 1.26631 -2.19499 -0.382513 0
M  V30 15 C 2.42928 -1.9105 0.308718 0
M  V30 16 C 2.91448 -0.622372 0.295892 0
M  V30 17 C 2.23049 0.341564 -0.402013 0
M  V30 18 S 4.36524 -0.218179 1.1454 0
M  V30 19 O 5.50662 -0.996502 0.509869 0
M  V30 20 O 4.29586 -0.558412 2.60286 0
M  V30 21 N 4.72221 1.46159 0.947322 0
M  V30 22 N 3.15189 -2.89355 1.03698 0
M  V30 23 H -5.0368 -1.60177 1.84035 0
M  V30 24 H -6.19402 -0.561792 0.903739 0
M  V30 25 H -5.56977 -0.0140601 2.46903 0
M  V30 26 H -4.48339 -0.656787 -1.04902 0
M  V30 27 H -2.57537 0.498564 -2.10353 0
M  V30 28 H -1.58677 2.23332 1.61859 0
M  V30 29 H -3.48723 1.08472 2.67062 0
M  V30 30 H -0.715165 3.14356 -0.653092 0
M  V30 31 H -0.322137 -1.42722 -1.62446 0
M  V30 32 H 0.908032 -3.20851 -0.356988 0
M  V30 33 H 2.62143 1.35978 -0.407259 0
M  V30 34 H 5.74826 1.60512 0.741128 0
M  V30 35 H 4.52832 1.94149 1.87565 0
M  V30 36 H 3.38268 -2.80993 2.0495 0
M  V30 37 H 3.47033 -3.74796 0.531718 0
M  V30 END ATOM
M  V30 BEGIN BOND
M  V30 1 1 1 2
M  V30 2 2 2 3
M  V30 3 1 3 4
M  V30 4 2 4 5
M  V30 5 1 5 6
M  V30 6 2 6 7
M  V30 7 1 5 8
M  V30 8 1 8 9
M  V30 9 2 9 10
M  V30 10 2 9 11
M  V30 11 1 9 12
M  V30 12 2 12 13
M  V30 13 1 13 14
M  V30 14 2 14 15
M  V30 15 1 15 16
M  V30 16 2 16 17
M  V30 17 1 16 18
M  V30 18 2 18 19
M  V30 19 2 18 20
M  V30 20 1 18 21
M  V30 21 1 15 22
M  V30 22 1 7 2
M  V30 23 1 17 12
M  V30 24 1 1 23
M  V30 25 1 1 24
M  V30 26 1 1 25
M  V30 27 1 3 26
M  V30 28 1 4 27
M  V30 29 1 6 28
M  V30 30 1 7 29
M  V30 31 1 8 30
M  V30 32 1 13 31
M  V30 33 1 14 32
M  V30 34 1 17 33
M  V30 35 1 21 34
M  V30 36 1 21 35
M  V30 37 1 22 36
M  V30 38 1 22 37
M  V30 END BOND
M  V30 END CTAB
M  END
