
     RDKit          3D

  0  0  0  0  0  0  0  0  0  0999 V3000
M  V30 BEGIN CTAB
M  V30 COUNTS 44 45 0 0 0
M  V30 BEGIN ATOM
M  V30 1 C 2.04918 -1.38943 -3.13234 0
M  V30 2 C 1.12042 -1.34754 -1.93894 0
M  V30 3 C 0.680514 0.0617076 -1.70857 0
M  V30 4 C -0.229143 0.24069 -0.575118 0
M  V30 5 O 0.116532 1.00323 0.372065 0
M  V30 6 N -1.48995 -0.385784 -0.455291 0
M  V30 7 C -2.36834 -0.195534 0.666961 0
M  V30 8 C -3.67186 0.398715 0.270048 0
M  V30 9 C -4.3777 -0.0484803 -0.825754 0
M  V30 10 C -5.58905 0.51059 -1.18698 0
M  V30 11 C -6.13958 1.54127 -0.461839 0
M  V30 12 C -5.45281 2.00816 0.640706 0
M  V30 13 C -4.24623 1.44028 0.988006 0
M  V30 14 C -2.55905 -1.48196 1.45867 0
M  V30 15 S 2.11895 1.12762 -1.65168 0
M  V30 16 C 3.17504 0.801611 -0.253221 0
M  V30 17 N 3.04327 1.39953 0.937184 0
M  V30 18 C 3.85515 1.13836 1.98843 0
M  V30 19 N 3.6731 1.80081 3.23302 0
M  V30 20 C 4.84623 0.21738 1.79638 0
M  V30 21 C 5.01964 -0.422723 0.589317 0
M  V30 22 N 4.16722 -0.106831 -0.412257 0
M  V30 23 N 6.04426 -1.37709 0.383642 0
M  V30 24 H 1.40935 -1.56128 -4.03588 0
M  V30 25 H 2.83068 -2.16972 -3.02151 0
M  V30 26 H 2.47522 -0.378377 -3.26267 0
M  V30 27 H 1.66675 -1.7684 -1.05273 0
M  V30 28 H 0.294664 -2.05158 -2.13982 0
M  V30 29 H 0.0954614 0.359709 -2.62839 0
M  V30 30 H -1.77639 -1.02493 -1.25182 0
M  V30 31 H -1.85652 0.516118 1.37282 0
M  V30 32 H -3.97688 -0.856685 -1.42014 0
M  V30 33 H -6.12438 0.140505 -2.05358 0
M  V30 34 H -7.08243 1.95374 -0.768858 0
M  V30 35 H -5.91124 2.81935 1.19058 0
M  V30 36 H -3.71192 1.8076 1.85038 0
M  V30 37 H -3.44387 -1.32549 2.10489 0
M  V30 38 H -2.67258 -2.35776 0.812616 0
M  V30 39 H -1.63506 -1.62237 2.05275 0
M  V30 40 H 2.7496 1.85506 3.67652 0
M  V30 41 H 4.50952 2.23107 3.68251 0
M  V30 42 H 5.52435 -0.0320671 2.59793 0
M  V30 43 H 6.16799 -1.80658 -0.550474 0
M  V30 44 H 6.68188 -1.6625 1.14781 0
M  V30 END ATOM
M  V30 BEGIN BOND
M  V30 1 1 1 2
M  V30 2 1 2 3
M  V30 3 1 3 4
M  V30 4 2 4 5
M  V30 5 1 4 6
M  V30 6 1 6 7
M  V30 7 1 7 8
M  V30 8 2 8 9
M  V30 9 1 9 10
M  V30 10 2 10 11
M  V30 11 1 11 12
M  V30 12 2 12 13
M  V30 13 1 7 14
M  V30 14 1 3 15
M  V30 15 1 15 16
M  V30 16 2 16 17
M  V30 17 1 17 18
M  V30 18 1 18 19
M  V30 19 2 18 20
M  V30 20 1 20 21
M  V30 21 2 21 22
M  V30 22 1 21 23
M  V30 23 1 13 8
M  V30 24 1 22 16
M  V30 25 1 1 24
M  V30 26 1 1 25
M  V30 27 1 1 26
M  V30 28 1 2 27
M  V30 29 1 2 28
M  V30 30 1 3 29
M  V30 31 1 6 30
M  V30 32 1 7 31
M  V30 33 1 9 32
M  V30 34 1 10 33
M  V30 35 1 11 34
M  V30 36 1 12 35
M  V30 37 1 13 36
M  V30 38 1 14 37
M  V30 39 1 14 38
M  V30 40 1 14 39
M  V30 41 1 19 40
M  V30 42 1 19 41
M  V30 43 1 20 42
M  V30 44 1 23 43
M  V30 45 1 23 44
M  V30 END BOND
M  V30 END CTAB
M  END
