
     RDKit          3D

  0  0  0  0  0  0  0  0  0  0999 V3000
M  V30 BEGIN CTAB
M  V30 COUNTS 24 25 0 0 0
M  V30 BEGIN ATOM
M  V30 1 N 4.03925 0.41204 0.337897 0
M  V30 2 C 2.61891 0.380533 0.224386 0
M  V30 3 C 1.87977 1.54402 0.142967 0
M  V30 4 C 0.496059 1.51554 0.0323506 0
M  V30 5 C -0.149506 0.298565 0.00354784 0
M  V30 6 C 0.613475 -0.845986 0.0865199 0
M  V30 7 C 1.99267 -0.848245 0.197355 0
M  V30 8 N 2.66874 -2.08145 0.275006 0
M  V30 9 C -1.61723 0.214904 -0.112782 0
M  V30 10 N -2.37394 1.31516 -0.194471 0
M  V30 11 C -3.71367 1.25789 -0.301009 0
M  V30 12 C -4.32407 0.0245245 -0.326615 0
M  V30 13 C -3.56973 -1.11084 -0.244448 0
M  V30 14 N -2.22533 -0.981183 -0.138909 0
M  V30 15 H 4.66809 0.506429 -0.48371 0
M  V30 16 H 4.49193 0.339055 1.27399 0
M  V30 17 H 2.42831 2.47545 0.169388 0
M  V30 18 H -0.0793328 2.44356 -0.0314549 0
M  V30 19 H 0.0717149 -1.80355 0.0611414 0
M  V30 20 H 3.10123 -2.48987 -0.56211 0
M  V30 21 H 2.73102 -2.577 1.1723 0
M  V30 22 H -4.32003 2.16238 -0.366903 0
M  V30 23 H -5.40257 -0.050019 -0.411829 0
M  V30 24 H -4.02573 -2.10192 -0.262249 0
M  V30 END ATOM
M  V30 BEGIN BOND
M  V30 1 1 1 2
M  V30 2 2 2 3
M  V30 3 1 3 4
M  V30 4 2 4 5
M  V30 5 1 5 6
M  V30 6 2 6 7
M  V30 7 1 7 8
M  V30 8 1 5 9
M  V30 9 2 9 10
M  V30 10 1 10 11
M  V30 11 2 11 12
M  V30 12 1 12 13
M  V30 13 2 13 14
M  V30 14 1 7 2
M  V30 15 1 14 9
M  V30 16 1 1 15
M  V30 17 1 1 16
M  V30 18 1 3 17
M  V30 19 1 4 18
M  V30 20 1 6 19
M  V30 21 1 8 20
M  V30 22 1 8 21
M  V30 23 1 11 22
M  V30 24 1 12 23
M  V30 25 1 13 24
M  V30 END BOND
M  V30 END CTAB
M  END
