
     RDKit          3D

  0  0  0  0  0  0  0  0  0  0999 V3000
M  V30 BEGIN CTAB
M  V30 COUNTS 36 37 0 0 0
M  V30 BEGIN ATOM
M  V30 1 N 3.68374 1.90864 -0.484248 0
M  V30 2 C 2.65107 0.997911 -0.904394 0
M  V30 3 C 2.5817 -0.256427 -0.0887665 0
M  V30 4 C 3.83684 -1.06903 -0.114189 0
M  V30 5 C 2.1233 0.00509639 1.3335 0
M  V30 6 C 0.602564 0.133857 1.21739 0
M  V30 7 N 0.208671 -0.475782 -0.00307655 0
M  V30 8 C 1.43257 -1.08376 -0.587145 0
M  V30 9 C -1.01633 -0.583996 -0.64869 0
M  V30 10 O -0.941242 -1.23076 -1.78631 0
M  V30 11 C -2.32896 -0.115171 -0.28711 0
M  V30 12 C -2.56267 0.549505 0.883841 0
M  V30 13 C -3.87178 0.969671 1.1735 0
M  V30 14 C -4.91346 0.729342 0.313729 0
M  V30 15 C -4.65628 0.0667748 -0.843635 0
M  V30 16 C -3.41032 -0.355812 -1.16264 0
M  V30 17 N -3.1226 -1.05367 -2.37667 0
M  V30 18 Br -6.65597 1.32349 0.765477 0
M  V30 19 H 4.60943 1.70462 -0.87431 0
M  V30 20 H 3.67301 2.15305 0.508896 0
M  V30 21 H 1.64811 1.45284 -0.921937 0
M  V30 22 H 2.88161 0.702224 -1.94892 0
M  V30 23 H 3.55064 -2.12444 0.130191 0
M  V30 24 H 4.60196 -0.675628 0.588467 0
M  V30 25 H 4.27991 -1.01358 -1.12542 0
M  V30 26 H 2.41327 -0.849665 1.96746 0
M  V30 27 H 2.55789 0.937792 1.7092 0
M  V30 28 H 0.395034 1.23585 1.17081 0
M  V30 29 H 0.177093 -0.322105 2.14106 0
M  V30 30 H 1.50007 -2.15067 -0.292699 0
M  V30 31 H 1.35372 -0.955542 -1.68134 0
M  V30 32 H -1.79485 0.778137 1.62625 0
M  V30 33 H -4.00164 1.49385 2.11762 0
M  V30 34 H -5.4513 -0.148368 -1.55983 0
M  V30 35 H -3.17771 -2.09804 -2.39113 0
M  V30 36 H -2.85709 -0.580182 -3.26263 0
M  V30 END ATOM
M  V30 BEGIN BOND
M  V30 1 1 1 2
M  V30 2 1 2 3
M  V30 3 1 3 4
M  V30 4 1 3 5
M  V30 5 1 5 6
M  V30 6 1 6 7
M  V30 7 1 7 8
M  V30 8 1 7 9
M  V30 9 2 9 10
M  V30 10 1 9 11
M  V30 11 2 11 12
M  V30 12 1 12 13
M  V30 13 2 13 14
M  V30 14 1 14 15
M  V30 15 2 15 16
M  V30 16 1 16 17
M  V30 17 1 14 18
M  V30 18 1 8 3
M  V30 19 1 16 11
M  V30 20 1 1 19
M  V30 21 1 1 20
M  V30 22 1 2 21
M  V30 23 1 2 22
M  V30 24 1 4 23
M  V30 25 1 4 24
M  V30 26 1 4 25
M  V30 27 1 5 26
M  V30 28 1 5 27
M  V30 29 1 6 28
M  V30 30 1 6 29
M  V30 31 1 8 30
M  V30 32 1 8 31
M  V30 33 1 12 32
M  V30 34 1 13 33
M  V30 35 1 15 34
M  V30 36 1 17 35
M  V30 37 1 17 36
M  V30 END BOND
M  V30 END CTAB
M  END
