
     RDKit          3D

  0  0  0  0  0  0  0  0  0  0999 V3000
M  V30 BEGIN CTAB
M  V30 COUNTS 24 26 0 0 0
M  V30 BEGIN ATOM
M  V30 1 N -3.59916 1.03484 -0.513692 0
M  V30 2 C -2.30091 0.53175 -0.18082 0
M  V30 3 C -1.14797 1.13849 -0.601687 0
M  V30 4 C 0.0699141 0.585295 -0.234157 0
M  V30 5 C 0.137767 -0.549179 0.536907 0
M  V30 6 C -1.04111 -1.14893 0.953208 0
M  V30 7 C -2.25931 -0.61674 0.599964 0
M  V30 8 N -3.45286 -1.25655 1.0436 0
M  V30 9 C 1.59113 -0.510968 0.500541 0
M  V30 10 C 1.5159 0.621517 -0.269114 0
M  V30 11 C 2.6947 1.21199 -0.679113 0
M  V30 12 C 3.9039 0.66366 -0.314835 0
M  V30 13 C 3.997 -0.474294 0.458413 0
M  V30 14 C 2.82153 -1.06308 0.867239 0
M  V30 15 H -3.96688 1.05707 -1.49012 0
M  V30 16 H -4.18767 1.39113 0.276015 0
M  V30 17 H -1.18765 2.02044 -1.20122 0
M  V30 18 H -0.981597 -2.02957 1.55171 0
M  V30 19 H -3.45885 -2.27223 1.2818 0
M  V30 20 H -4.34943 -0.735574 1.1434 0
M  V30 21 H 2.61292 2.10684 -1.28712 0
M  V30 22 H 4.79627 1.1443 -0.648078 0
M  V30 23 H 4.97302 -0.894571 0.737265 0
M  V30 24 H 2.81936 -1.95565 1.47428 0
M  V30 END ATOM
M  V30 BEGIN BOND
M  V30 1 1 1 2
M  V30 2 2 2 3
M  V30 3 1 3 4
M  V30 4 2 4 5
M  V30 5 1 5 6
M  V30 6 2 6 7
M  V30 7 1 7 8
M  V30 8 1 5 9
M  V30 9 2 9 10
M  V30 10 1 10 11
M  V30 11 2 11 12
M  V30 12 1 12 13
M  V30 13 2 13 14
M  V30 14 1 7 2
M  V30 15 1 14 9
M  V30 16 1 10 4
M  V30 17 1 1 15
M  V30 18 1 1 16
M  V30 19 1 3 17
M  V30 20 1 6 18
M  V30 21 1 8 19
M  V30 22 1 8 20
M  V30 23 1 11 21
M  V30 24 1 12 22
M  V30 25 1 13 23
M  V30 26 1 14 24
M  V30 END BOND
M  V30 END CTAB
M  END
