
     RDKit          3D

  0  0  0  0  0  0  0  0  0  0999 V3000
M  V30 BEGIN CTAB
M  V30 COUNTS 46 48 0 0 0
M  V30 BEGIN ATOM
M  V30 1 C -3.25969 -2.03471 2.72937 0
M  V30 2 O -4.11096 -1.19819 1.96467 0
M  V30 3 C -3.54832 -0.365802 1.00752 0
M  V30 4 C -2.17672 -0.347002 0.796508 0
M  V30 5 C -1.63156 0.485791 -0.158609 0
M  V30 6 N -0.208465 0.487187 -0.358912 0
M  V30 7 C 0.630975 -0.382339 0.431505 0
M  V30 8 C 2.03149 -0.184087 0.05145 0
M  V30 9 C 2.92513 -1.2529 -0.0407288 0
M  V30 10 C 4.23117 -0.984766 -0.401596 0
M  V30 11 C 4.66698 0.293883 -0.66907 0
M  V30 12 N 3.77286 1.31592 -0.571106 0
M  V30 13 C 2.50212 1.08465 -0.223587 0
M  V30 14 N 5.95058 0.538519 -1.02153 0
M  V30 15 C 6.85559 -0.448195 -1.1267 0
M  V30 16 N 8.21552 -0.186058 -1.50006 0
M  V30 17 N 6.4341 -1.70344 -0.865799 0
M  V30 18 C 5.17386 -2.00491 -0.512167 0
M  V30 19 N 4.74418 -3.3324 -0.240337 0
M  V30 20 C -2.44929 1.31148 -0.916164 0
M  V30 21 C -3.81168 1.30681 -0.721334 0
M  V30 22 O -4.66069 2.117 -1.45828 0
M  V30 23 C -4.15771 2.98919 -2.44932 0
M  V30 24 C -4.3346 0.468016 0.236863 0
M  V30 25 O -5.70262 0.441556 0.455465 0
M  V30 26 C -6.2137 1.35059 1.42597 0
M  V30 27 H -3.8162 -2.49725 3.57267 0
M  V30 28 H -2.47458 -1.40208 3.19611 0
M  V30 29 H -2.74755 -2.78477 2.11832 0
M  V30 30 H -1.53003 -1.00249 1.39795 0
M  V30 31 H 0.217573 1.11252 -1.0729 0
M  V30 32 H 0.301135 -1.4397 0.321685 0
M  V30 33 H 0.437673 -0.105975 1.50659 0
M  V30 34 H 2.59049 -2.25445 0.167167 0
M  V30 35 H 1.82564 1.95013 -0.160124 0
M  V30 36 H 8.73229 -0.732571 -2.21517 0
M  V30 37 H 8.71418 0.595853 -1.02911 0
M  V30 38 H 4.21884 -3.53539 0.639217 0
M  V30 39 H 4.92802 -4.13247 -0.884023 0
M  V30 40 H -2.05183 1.97455 -1.67154 0
M  V30 41 H -3.6051 2.42235 -3.24519 0
M  V30 42 H -5.01615 3.46132 -2.9826 0
M  V30 43 H -3.53005 3.80881 -2.028 0
M  V30 44 H -5.61109 2.28103 1.46862 0
M  V30 45 H -7.27051 1.61661 1.22457 0
M  V30 46 H -6.18129 0.898189 2.43729 0
M  V30 END ATOM
M  V30 BEGIN BOND
M  V30 1 1 1 2
M  V30 2 1 2 3
M  V30 3 2 3 4
M  V30 4 1 4 5
M  V30 5 1 5 6
M  V30 6 1 6 7
M  V30 7 1 7 8
M  V30 8 2 8 9
M  V30 9 1 9 10
M  V30 10 2 10 11
M  V30 11 1 11 12
M  V30 12 2 12 13
M  V30 13 1 11 14
M  V30 14 2 14 15
M  V30 15 1 15 16
M  V30 16 1 15 17
M  V30 17 2 17 18
M  V30 18 1 18 19
M  V30 19 2 5 20
M  V30 20 1 20 21
M  V30 21 1 21 22
M  V30 22 1 22 23
M  V30 23 2 21 24
M  V30 24 1 24 25
M  V30 25 1 25 26
M  V30 26 1 24 3
M  V30 27 1 13 8
M  V30 28 1 18 10
M  V30 29 1 1 27
M  V30 30 1 1 28
M  V30 31 1 1 29
M  V30 32 1 4 30
M  V30 33 1 6 31
M  V30 34 1 7 32
M  V30 35 1 7 33
M  V30 36 1 9 34
M  V30 37 1 13 35
M  V30 38 1 16 36
M  V30 39 1 16 37
M  V30 40 1 19 38
M  V30 41 1 19 39
M  V30 42 1 20 40
M  V30 43 1 23 41
M  V30 44 1 23 42
M  V30 45 1 23 43
M  V30 46 1 26 44
M  V30 47 1 26 45
M  V30 48 1 26 46
M  V30 END BOND
M  V30 END CTAB
M  END
