
     RDKit          3D

  0  0  0  0  0  0  0  0  0  0999 V3000
M  V30 BEGIN CTAB
M  V30 COUNTS 45 47 0 0 0
M  V30 BEGIN ATOM
M  V30 1 O 0.416169 -0.526707 2.03185 0
M  V30 2 C -0.106621 -0.128087 0.953663 0
M  V30 3 N -1.49683 -0.150661 0.828917 0
M  V30 4 C -2.30984 -0.671735 1.92506 0
M  V30 5 C -3.42484 -1.56065 1.34776 0
M  V30 6 O -3.32348 -1.64386 -0.0599799 0
M  V30 7 C -3.48845 -0.385006 -0.546202 0
M  V30 8 C -2.12775 0.340429 -0.377378 0
M  V30 9 C -2.50185 1.78212 -0.337764 0
M  V30 10 C -3.567 2.17627 -1.26321 0
M  V30 11 C -4.09512 1.22391 -2.25515 0
M  V30 12 C -3.83192 -0.22904 -1.98073 0
M  V30 13 C 0.757727 0.347925 -0.144591 0
M  V30 14 S 1.34006 -1.0398 -1.17395 0
M  V30 15 C 2.49855 -2.09196 -0.240636 0
M  V30 16 C 3.72098 -1.28415 -0.0131887 0
M  V30 17 N 4.74644 -1.26541 -0.890073 0
M  V30 18 C 5.84742 -0.513063 -0.649537 0
M  V30 19 N 6.93025 -0.474954 -1.56225 0
M  V30 20 N 5.87802 0.210125 0.492135 0
M  V30 21 C 4.87927 0.215382 1.38445 0
M  V30 22 N 3.80387 -0.550591 1.09825 0
M  V30 23 N 4.94079 0.986245 2.56974 0
M  V30 24 H -2.74363 0.14447 2.53381 0
M  V30 25 H -1.72345 -1.31153 2.60735 0
M  V30 26 H -4.37012 -1.02181 1.5496 0
M  V30 27 H -3.40418 -2.57403 1.79901 0
M  V30 28 H -4.257 0.134627 0.0802471 0
M  V30 29 H -1.5312 0.155496 -1.29196 0
M  V30 30 H -1.58943 2.42182 -0.488958 0
M  V30 31 H -2.77851 2.02111 0.73531 0
M  V30 32 H -4.45333 2.52697 -0.647312 0
M  V30 33 H -3.25144 3.13951 -1.77185 0
M  V30 34 H -3.66897 1.45717 -3.25178 0
M  V30 35 H -5.21258 1.32883 -2.39056 0
M  V30 36 H -3.02069 -0.655735 -2.62758 0
M  V30 37 H -4.72416 -0.848275 -2.19298 0
M  V30 38 H 0.291934 1.06057 -0.833765 0
M  V30 39 H 1.61625 0.894811 0.323925 0
M  V30 40 H 2.71734 -3.0142 -0.775314 0
M  V30 41 H 1.99435 -2.28365 0.746914 0
M  V30 42 H 6.78605 -0.0565235 -2.49826 0
M  V30 43 H 7.85854 -0.851407 -1.31992 0
M  V30 44 H 5.79096 1.58786 2.72826 0
M  V30 45 H 4.1874 0.977204 3.27451 0
M  V30 END ATOM
M  V30 BEGIN BOND
M  V30 1 2 1 2
M  V30 2 1 2 3
M  V30 3 1 3 4
M  V30 4 1 4 5
M  V30 5 1 5 6
M  V30 6 1 6 7
M  V30 7 1 7 8
M  V30 8 1 8 9
M  V30 9 1 9 10
M  V30 10 1 10 11
M  V30 11 1 11 12
M  V30 12 1 2 13
M  V30 13 1 13 14
M  V30 14 1 14 15
M  V30 15 1 15 16
M  V30 16 2 16 17
M  V30 17 1 17 18
M  V30 18 1 18 19
M  V30 19 2 18 20
M  V30 20 1 20 21
M  V30 21 2 21 22
M  V30 22 1 21 23
M  V30 23 1 8 3
M  V30 24 1 22 16
M  V30 25 1 12 7
M  V30 26 1 4 24
M  V30 27 1 4 25
M  V30 28 1 5 26
M  V30 29 1 5 27
M  V30 30 1 7 28
M  V30 31 1 8 29
M  V30 32 1 9 30
M  V30 33 1 9 31
M  V30 34 1 10 32
M  V30 35 1 10 33
M  V30 36 1 11 34
M  V30 37 1 11 35
M  V30 38 1 12 36
M  V30 39 1 12 37
M  V30 40 1 13 38
M  V30 41 1 13 39
M  V30 42 1 15 40
M  V30 43 1 15 41
M  V30 44 1 19 42
M  V30 45 1 19 43
M  V30 46 1 23 44
M  V30 47 1 23 45
M  V30 END BOND
M  V30 END CTAB
M  END
