
     RDKit          3D

  0  0  0  0  0  0  0  0  0  0999 V3000
M  V30 BEGIN CTAB
M  V30 COUNTS 24 24 0 0 0
M  V30 BEGIN ATOM
M  V30 1 C 3.98001 0.11609 0.673424 0
M  V30 2 C 2.77899 -0.379301 -0.15835 0
M  V30 3 C 2.22122 0.826961 -0.821085 0
M  V30 4 S 0.81321 0.609852 -1.87223 0
M  V30 5 C -0.651383 0.241422 -0.934321 0
M  V30 6 N -1.84135 0.00251992 -1.57336 0
M  V30 7 C -2.97545 -0.257356 -0.900715 0
M  V30 8 N -4.1921 -0.500556 -1.59014 0
M  V30 9 C -2.90254 -0.276493 0.482329 0
M  V30 10 C -1.7152 -0.0391881 1.15892 0
M  V30 11 N -0.643595 0.209715 0.389511 0
M  V30 12 N -1.63523 -0.0575633 2.57107 0
M  V30 13 F 3.35546 -1.23326 -1.10016 0
M  V30 14 F 1.96777 -1.04704 0.700718 0
M  V30 15 H 4.475 0.9205 0.0956679 0
M  V30 16 H 4.64778 -0.741073 0.808667 0
M  V30 17 H 3.628 0.561524 1.62804 0
M  V30 18 H 1.91092 1.53264 0.0126543 0
M  V30 19 H 3.05235 1.28852 -1.4084 0
M  V30 20 H -4.93113 0.215308 -1.57288 0
M  V30 21 H -4.34072 -1.3798 -2.10332 0
M  V30 22 H -3.79518 -0.481587 1.04093 0
M  V30 23 H -2.37477 0.376885 3.13909 0
M  V30 24 H -0.832064 -0.508713 3.02805 0
M  V30 END ATOM
M  V30 BEGIN BOND
M  V30 1 1 1 2
M  V30 2 1 2 3
M  V30 3 1 3 4
M  V30 4 1 4 5
M  V30 5 2 5 6
M  V30 6 1 6 7
M  V30 7 1 7 8
M  V30 8 2 7 9
M  V30 9 1 9 10
M  V30 10 2 10 11
M  V30 11 1 10 12
M  V30 12 1 2 13
M  V30 13 1 2 14
M  V30 14 1 11 5
M  V30 15 1 1 15
M  V30 16 1 1 16
M  V30 17 1 1 17
M  V30 18 1 3 18
M  V30 19 1 3 19
M  V30 20 1 8 20
M  V30 21 1 8 21
M  V30 22 1 9 22
M  V30 23 1 12 23
M  V30 24 1 12 24
M  V30 END BOND
M  V30 END CTAB
M  END
