
     RDKit          3D

  0  0  0  0  0  0  0  0  0  0999 V3000
M  V30 BEGIN CTAB
M  V30 COUNTS 31 32 0 0 0
M  V30 BEGIN ATOM
M  V30 1 N 4.65427 0.569042 2.31428 0
M  V30 2 C 3.90909 0.187393 1.17711 0
M  V30 3 C 4.52651 0.230325 -0.0551069 0
M  V30 4 C 3.84409 -0.131561 -1.19504 0
M  V30 5 N 4.4922 -0.0821781 -2.45479 0
M  V30 6 N 2.57335 -0.521709 -1.06009 0
M  V30 7 C 1.93677 -0.577003 0.122617 0
M  V30 8 N 2.62759 -0.218367 1.21527 0
M  V30 9 S 0.255354 -1.10829 0.181307 0
M  V30 10 C -0.912023 0.263981 -0.00516351 0
M  V30 11 C -2.28942 -0.265048 0.0551514 0
M  V30 12 C -2.47654 -1.61685 0.229428 0
M  V30 13 C -3.72754 -2.19472 0.297276 0
M  V30 14 C -4.82131 -1.39399 0.187195 0
M  V30 15 C -4.66591 -0.0300751 0.0111698 0
M  V30 16 C -3.41022 0.535879 -0.0551143 0
M  V30 17 C -3.27641 1.98182 -0.242321 0
M  V30 18 F -4.54058 2.5746 -0.322309 0
M  V30 19 F -2.64092 2.60891 0.81962 0
M  V30 20 F -2.66052 2.31362 -1.45646 0
M  V30 21 H 4.65705 1.57397 2.65713 0
M  V30 22 H 5.21561 -0.13227 2.83735 0
M  V30 23 H 5.56061 0.548591 -0.158869 0
M  V30 24 H 4.14196 -0.699558 -3.21075 0
M  V30 25 H 5.30186 0.54369 -2.6563 0
M  V30 26 H -0.694029 0.978328 0.816353 0
M  V30 27 H -0.741443 0.817416 -0.96466 0
M  V30 28 H -1.63191 -2.2947 0.322094 0
M  V30 29 H -3.82855 -3.25656 0.434446 0
M  V30 30 H -5.82354 -1.78683 0.232456 0
M  V30 31 H -5.55545 0.582146 -0.0732854 0
M  V30 END ATOM
M  V30 BEGIN BOND
M  V30 1 1 1 2
M  V30 2 2 2 3
M  V30 3 1 3 4
M  V30 4 1 4 5
M  V30 5 2 4 6
M  V30 6 1 6 7
M  V30 7 2 7 8
M  V30 8 1 7 9
M  V30 9 1 9 10
M  V30 10 1 10 11
M  V30 11 2 11 12
M  V30 12 1 12 13
M  V30 13 2 13 14
M  V30 14 1 14 15
M  V30 15 2 15 16
M  V30 16 1 16 17
M  V30 17 1 17 18
M  V30 18 1 17 19
M  V30 19 1 17 20
M  V30 20 1 8 2
M  V30 21 1 16 11
M  V30 22 1 1 21
M  V30 23 1 1 22
M  V30 24 1 3 23
M  V30 25 1 5 24
M  V30 26 1 5 25
M  V30 27 1 10 26
M  V30 28 1 10 27
M  V30 29 1 12 28
M  V30 30 1 13 29
M  V30 31 1 14 30
M  V30 32 1 15 31
M  V30 END BOND
M  V30 END CTAB
M  END
