
     RDKit          3D

  0  0  0  0  0  0  0  0  0  0999 V3000
M  V30 BEGIN CTAB
M  V30 COUNTS 25 24 0 0 0
M  V30 BEGIN ATOM
M  V30 1 N 3.5595 0.73775 1.14299 0
M  V30 2 C 3.15136 0.650711 -0.212734 0
M  V30 3 N 3.95113 0.949421 -1.17167 0
M  V30 4 N 1.83211 0.224732 -0.514809 0
M  V30 5 C 1.36555 -1.11127 -0.215139 0
M  V30 6 C -0.0656229 -1.26391 -0.64875 0
M  V30 7 C -0.996143 -0.292511 0.0422069 0
M  V30 8 N -2.33438 -0.538635 -0.45709 0
M  V30 9 C -3.46396 0.194103 -0.0236529 0
M  V30 10 N -3.33389 1.59646 0.104096 0
M  V30 11 N -4.59474 -0.336736 0.259171 0
M  V30 12 H 3.56663 1.62418 1.6852 0
M  V30 13 H 3.8648 -0.16142 1.59205 0
M  V30 14 H 4.92849 1.26719 -1.01023 0
M  V30 15 H 1.1886 0.909059 -0.968184 0
M  V30 16 H 1.4991 -1.28903 0.860048 0
M  V30 17 H 1.97 -1.80691 -0.822077 0
M  V30 18 H -0.462338 -2.26867 -0.523555 0
M  V30 19 H -0.106976 -0.995197 -1.74246 0
M  V30 20 H -0.682864 0.746086 -0.174519 0
M  V30 21 H -1.01332 -0.451859 1.14694 0
M  V30 22 H -2.53535 -1.29035 -1.18179 0
M  V30 23 H -2.6902 2.00801 0.821331 0
M  V30 24 H -3.87499 2.26262 -0.512002 0
M  V30 25 H -4.7225 -1.36382 0.175571 0
M  V30 END ATOM
M  V30 BEGIN BOND
M  V30 1 1 1 2
M  V30 2 2 2 3 CFG=2
M  V30 3 1 2 4
M  V30 4 1 4 5
M  V30 5 1 5 6
M  V30 6 1 6 7
M  V30 7 1 7 8
M  V30 8 1 8 9
M  V30 9 1 9 10
M  V30 10 2 9 11 CFG=2
M  V30 11 1 1 12
M  V30 12 1 1 13
M  V30 13 1 3 14
M  V30 14 1 4 15
M  V30 15 1 5 16
M  V30 16 1 5 17
M  V30 17 1 6 18
M  V30 18 1 6 19
M  V30 19 1 7 20
M  V30 20 1 7 21
M  V30 21 1 8 22
M  V30 22 1 10 23
M  V30 23 1 10 24
M  V30 24 1 11 25
M  V30 END BOND
M  V30 END CTAB
M  END
