
     RDKit          3D

  0  0  0  0  0  0  0  0  0  0999 V3000
M  V30 BEGIN CTAB
M  V30 COUNTS 42 43 0 0 0
M  V30 BEGIN ATOM
M  V30 1 N -6.20178 2.70033 -0.956132 0
M  V30 2 C -5.26665 1.73231 -0.510059 0
M  V30 3 C -4.43651 2.09487 0.526064 0
M  V30 4 C -3.51533 1.19571 1.00458 0
M  V30 5 C -3.43868 -0.0667861 0.431755 0
M  V30 6 C -4.26005 -0.392698 -0.576324 0
M  V30 7 C -5.20711 0.457153 -1.10822 0
M  V30 8 N -2.4947 -0.999289 0.98225 0
M  V30 9 C -1.12295 -0.943775 0.781092 0
M  V30 10 O -0.359172 -1.80575 1.33544 0
M  V30 11 C -0.367517 0.0450796 -0.042776 0
M  V30 12 O -1.15851 0.831387 -0.664928 0
M  V30 13 N 0.974544 0.0793044 -0.0920005 0
M  V30 14 C 2.33879 0.11816 -0.145133 0
M  V30 15 C 3.16344 1.2455 -0.118785 0
M  V30 16 C 4.53453 1.19849 -0.183146 0
M  V30 17 C 5.15926 -0.0136288 -0.280666 0
M  V30 18 C 4.41859 -1.15564 -0.311977 0
M  V30 19 C 3.05929 -1.10538 -0.246842 0
M  V30 20 S 6.89047 -0.0230005 -0.341021 0
M  V30 21 O 7.40625 0.986487 0.665102 0
M  V30 22 O 7.37883 -1.41751 0.0293034 0
M  V30 23 N 7.53703 0.330419 -1.89706 0
M  V30 24 C -3.04011 -2.05232 1.80256 0
M  V30 25 O -4.28936 -2.08644 2.00197 0
M  V30 26 C -2.25276 -3.11705 2.44658 0
M  V30 27 H -6.69366 3.29728 -0.270954 0
M  V30 28 H -6.38916 2.80256 -1.96656 0
M  V30 29 H -4.49234 3.10104 0.981741 0
M  V30 30 H -2.84081 1.47405 1.82866 0
M  V30 31 H -4.21888 -1.3934 -1.04901 0
M  V30 32 H -5.87312 0.22989 -1.90384 0
M  V30 33 H 0.905873 1.05957 -1.04383 0
M  V30 34 H 2.68233 2.20747 -0.042463 0
M  V30 35 H 5.11081 2.12417 -0.159163 0
M  V30 36 H 4.97092 -2.09206 -0.390836 0
M  V30 37 H 2.49012 -1.9993 -0.27182 0
M  V30 38 H 6.81589 0.577608 -2.58772 0
M  V30 39 H 8.24864 1.10972 -1.82754 0
M  V30 40 H -1.65897 -3.73845 1.73416 0
M  V30 41 H -2.92792 -3.85148 2.97623 0
M  V30 42 H -1.57956 -2.74459 3.21576 0
M  V30 END ATOM
M  V30 BEGIN BOND
M  V30 1 1 1 2
M  V30 2 2 2 3
M  V30 3 1 3 4
M  V30 4 2 4 5
M  V30 5 1 5 6
M  V30 6 2 6 7
M  V30 7 1 5 8
M  V30 8 1 8 9
M  V30 9 2 9 10
M  V30 10 1 9 11
M  V30 11 2 11 12
M  V30 12 1 11 13
M  V30 13 1 13 14
M  V30 14 2 14 15
M  V30 15 1 15 16
M  V30 16 2 16 17
M  V30 17 1 17 18
M  V30 18 2 18 19
M  V30 19 1 17 20
M  V30 20 2 20 21
M  V30 21 2 20 22
M  V30 22 1 20 23
M  V30 23 1 8 24
M  V30 24 2 24 25
M  V30 25 1 24 26
M  V30 26 1 7 2
M  V30 27 1 19 14
M  V30 28 1 1 27
M  V30 29 1 1 28
M  V30 30 1 3 29
M  V30 31 1 4 30
M  V30 32 1 6 31
M  V30 33 1 7 32
M  V30 34 1 13 33
M  V30 35 1 15 34
M  V30 36 1 16 35
M  V30 37 1 18 36
M  V30 38 1 19 37
M  V30 39 1 23 38
M  V30 40 1 23 39
M  V30 41 1 26 40
M  V30 42 1 26 41
M  V30 43 1 26 42
M  V30 END BOND
M  V30 END CTAB
M  END
