
     RDKit          3D

  0  0  0  0  0  0  0  0  0  0999 V3000
M  V30 BEGIN CTAB
M  V30 COUNTS 45 46 0 0 0
M  V30 BEGIN ATOM
M  V30 1 O -0.609947 0.128476 -1.16831 0
M  V30 2 C -0.644317 -0.599745 -0.167871 0
M  V30 3 N 0.468585 -1.08565 0.542729 0
M  V30 4 C 1.82386 -0.827706 0.245604 0
M  V30 5 C 2.29327 0.0958088 -0.651112 0
M  V30 6 C 3.64996 0.269047 -0.889722 0
M  V30 7 C 4.58694 -0.484937 -0.230366 0
M  V30 8 C 4.12071 -1.41972 0.677306 0
M  V30 9 C 2.78224 -1.59449 0.916083 0
M  V30 10 C 6.0411 -0.348333 -0.439818 0
M  V30 11 S 6.76412 0.840071 0.66 0
M  V30 12 O 6.58509 0.3572 2.06013 0
M  V30 13 O 8.22481 0.928033 0.364575 0
M  V30 14 N 6.02372 2.3599 0.379643 0
M  V30 15 C -2.01528 -1.01741 0.354659 0
M  V30 16 C -3.08908 -0.406465 -0.51829 0
M  V30 17 C -3.02037 1.06941 -0.519071 0
M  V30 18 C -4.3027 1.77579 -0.213042 0
M  V30 19 C -5.09009 1.20621 0.912363 0
M  V30 20 C -4.99112 -0.275609 1.07413 0
M  V30 21 C -4.41355 -0.985288 -0.105674 0
M  V30 22 N -5.34724 -1.0941 -1.19908 0
M  V30 23 H 0.277888 -1.70523 1.39244 0
M  V30 24 H 1.59685 0.717186 -1.18751 0
M  V30 25 H 3.98101 1.00504 -1.60237 0
M  V30 26 H 4.81353 -2.0575 1.24078 0
M  V30 27 H 2.45409 -2.33287 1.6294 0
M  V30 28 H 6.27399 -0.122976 -1.49032 0
M  V30 29 H 6.52561 -1.33908 -0.217834 0
M  V30 30 H 6.3898 3.1221 0.982651 0
M  V30 31 H 4.98507 2.30977 0.357851 0
M  V30 32 H -2.14206 -0.594324 1.3776 0
M  V30 33 H -2.09102 -2.1191 0.362398 0
M  V30 34 H -2.88948 -0.807852 -1.55651 0
M  V30 35 H -2.67115 1.43303 -1.51035 0
M  V30 36 H -2.21666 1.38934 0.208161 0
M  V30 37 H -4.01851 2.82831 0.0902257 0
M  V30 38 H -4.93212 1.90914 -1.11747 0
M  V30 39 H -6.1579 1.46879 0.757884 0
M  V30 40 H -4.80214 1.69961 1.87805 0
M  V30 41 H -4.38126 -0.53616 1.96422 0
M  V30 42 H -6.00533 -0.73333 1.26409 0
M  V30 43 H -4.20191 -2.04432 0.22748 0
M  V30 44 H -5.32957 -2.0459 -1.6263 0
M  V30 45 H -5.29939 -0.334137 -1.88506 0
M  V30 END ATOM
M  V30 BEGIN BOND
M  V30 1 2 1 2
M  V30 2 1 2 3
M  V30 3 1 3 4
M  V30 4 2 4 5
M  V30 5 1 5 6
M  V30 6 2 6 7
M  V30 7 1 7 8
M  V30 8 2 8 9
M  V30 9 1 7 10
M  V30 10 1 10 11
M  V30 11 2 11 12
M  V30 12 2 11 13
M  V30 13 1 11 14
M  V30 14 1 2 15
M  V30 15 1 15 16
M  V30 16 1 16 17
M  V30 17 1 17 18
M  V30 18 1 18 19
M  V30 19 1 19 20
M  V30 20 1 20 21
M  V30 21 1 21 22
M  V30 22 1 9 4
M  V30 23 1 21 16
M  V30 24 1 3 23
M  V30 25 1 5 24
M  V30 26 1 6 25
M  V30 27 1 8 26
M  V30 28 1 9 27
M  V30 29 1 10 28
M  V30 30 1 10 29
M  V30 31 1 14 30
M  V30 32 1 14 31
M  V30 33 1 15 32
M  V30 34 1 15 33
M  V30 35 1 16 34
M  V30 36 1 17 35
M  V30 37 1 17 36
M  V30 38 1 18 37
M  V30 39 1 18 38
M  V30 40 1 19 39
M  V30 41 1 19 40
M  V30 42 1 20 41
M  V30 43 1 20 42
M  V30 44 1 21 43
M  V30 45 1 22 44
M  V30 46 1 22 45
M  V30 END BOND
M  V30 END CTAB
M  END
