
     RDKit          3D

  0  0  0  0  0  0  0  0  0  0999 V3000
M  V30 BEGIN CTAB
M  V30 COUNTS 35 36 0 0 0
M  V30 BEGIN ATOM
M  V30 1 N -2.28132 -3.50348 -1.6815 0
M  V30 2 C -2.01115 -2.44443 -1.22236 0
M  V30 3 C -1.65891 -1.16688 -0.708173 0
M  V30 4 C -0.333007 -0.975834 -0.478783 0
M  V30 5 S 0.211398 0.61115 0.172688 0
M  V30 6 C 1.99513 0.51005 0.349552 0
M  V30 7 C 2.58144 0.0662859 1.51203 0
M  V30 8 C 3.9657 -0.0187299 1.66754 0
M  V30 9 C 4.79583 0.350866 0.6297 0
M  V30 10 C 4.20745 0.79455 -0.532427 0
M  V30 11 C 2.84035 0.879649 -0.689051 0
M  V30 12 N 6.21115 0.280319 0.744766 0
M  V30 13 N 0.54933 -2.02986 -0.761971 0
M  V30 14 C -2.54145 -0.0388053 -0.48453 0
M  V30 15 C -2.28926 1.15653 -1.1931 0
M  V30 16 C -3.02778 2.28297 -0.962738 0
M  V30 17 C -4.03501 2.25775 -0.0259378 0
M  V30 18 C -4.30311 1.11738 0.675022 0
M  V30 19 C -3.54194 -0.0526146 0.440747 0
M  V30 20 C -3.94629 -1.20752 1.24396 0
M  V30 21 F -4.50637 -2.23654 0.523053 0
M  V30 22 F -4.88357 -0.834886 2.18151 0
M  V30 23 F -2.8642 -1.68883 1.99848 0
M  V30 24 H 1.97316 -0.23393 2.35133 0
M  V30 25 H 4.42049 -0.368897 2.58529 0
M  V30 26 H 4.85313 1.08422 -1.34553 0
M  V30 27 H 2.35722 1.22402 -1.58953 0
M  V30 28 H 6.60221 -0.484626 1.33957 0
M  V30 29 H 6.87586 0.91997 0.290705 0
M  V30 30 H 0.750067 -2.7627 -0.0212377 0
M  V30 31 H 1.03455 -2.137 -1.68951 0
M  V30 32 H -1.48198 1.14636 -1.93174 0
M  V30 33 H -2.79892 3.18617 -1.53345 0
M  V30 34 H -4.61883 3.17089 0.147496 0
M  V30 35 H -5.10133 1.14642 1.39738 0
M  V30 END ATOM
M  V30 BEGIN BOND
M  V30 1 3 1 2
M  V30 2 1 2 3
M  V30 3 2 3 4
M  V30 4 1 4 5
M  V30 5 1 5 6
M  V30 6 2 6 7
M  V30 7 1 7 8
M  V30 8 2 8 9
M  V30 9 1 9 10
M  V30 10 2 10 11
M  V30 11 1 9 12
M  V30 12 1 4 13
M  V30 13 1 3 14
M  V30 14 2 14 15
M  V30 15 1 15 16
M  V30 16 2 16 17
M  V30 17 1 17 18
M  V30 18 2 18 19
M  V30 19 1 19 20
M  V30 20 1 20 21
M  V30 21 1 20 22
M  V30 22 1 20 23
M  V30 23 1 11 6
M  V30 24 1 19 14
M  V30 25 1 7 24
M  V30 26 1 8 25
M  V30 27 1 10 26
M  V30 28 1 11 27
M  V30 29 1 12 28
M  V30 30 1 12 29
M  V30 31 1 13 30
M  V30 32 1 13 31
M  V30 33 1 15 32
M  V30 34 1 16 33
M  V30 35 1 17 34
M  V30 36 1 18 35
M  V30 END BOND
M  V30 END CTAB
M  END
