
     RDKit          3D

  0  0  0  0  0  0  0  0  0  0999 V3000
M  V30 BEGIN CTAB
M  V30 COUNTS 44 46 0 0 0
M  V30 BEGIN ATOM
M  V30 1 N 0.965226 1.40978 -1.67429 0
M  V30 2 C 1.75481 1.10688 -0.540564 0
M  V30 3 S 3.3393 1.88234 -0.406893 0
M  V30 4 C 4.68893 0.735516 -0.269362 0
M  V30 5 C 5.9468 1.19289 0.144057 0
M  V30 6 N 6.12887 2.57507 0.427526 0
M  V30 7 C 7.0208 0.347689 0.289666 0
M  V30 8 C 6.89999 -1.01225 0.0289076 0
M  V30 9 C 5.67114 -1.48616 -0.379906 0
M  V30 10 C 4.60671 -0.617019 -0.51896 0
M  V30 11 C 1.29636 0.306801 0.393424 0
M  V30 12 C 2.05124 -0.0370986 1.57964 0
M  V30 13 N 2.63262 -0.292154 2.54481 0
M  V30 14 C -0.0360517 -0.252428 0.257292 0
M  V30 15 C -0.132055 -1.61408 0.539593 0
M  V30 16 C -1.341 -2.27056 0.474561 0
M  V30 17 C -2.4575 -1.52453 0.117651 0
M  V30 18 C -2.41931 -0.187482 -0.168218 0
M  V30 19 C -1.17101 0.429981 -0.0882256 0
M  V30 20 C -3.61692 0.556449 -0.50732 0
M  V30 21 O -3.43836 1.60535 -1.23557 0
M  V30 22 C -4.9721 0.221709 -0.100393 0
M  V30 23 C -5.30283 -0.506124 1.01286 0
M  V30 24 C -6.632 -0.812637 1.33927 0
M  V30 25 C -7.66432 -0.383863 0.538507 0
M  V30 26 C -7.35093 0.350125 -0.584621 0
M  V30 27 C -6.04274 0.64707 -0.899404 0
M  V30 28 H 0.714753 2.42412 -1.83265 0
M  V30 29 H 0.612615 0.722274 -2.36158 0
M  V30 30 H 6.36633 2.82072 1.41153 0
M  V30 31 H 6.03366 3.2997 -0.284902 0
M  V30 32 H 8.00432 0.699475 0.611388 0
M  V30 33 H 7.74345 -1.67968 0.142802 0
M  V30 34 H 5.59406 -2.54486 -0.578461 0
M  V30 35 H 3.67016 -1.02532 -0.850557 0
M  V30 36 H 0.73784 -2.20893 0.820001 0
M  V30 37 H -1.39687 -3.32499 0.696277 0
M  V30 38 H -3.38494 -2.08485 0.0625914 0
M  V30 39 H -1.13347 1.48486 -0.301393 0
M  V30 40 H -4.51039 -0.849589 1.6771 0
M  V30 41 H -6.84932 -1.39605 2.23581 0
M  V30 42 H -8.68387 -0.628844 0.804156 0
M  V30 43 H -8.14752 0.696188 -1.22525 0
M  V30 44 H -5.79648 1.22452 -1.78209 0
M  V30 END ATOM
M  V30 BEGIN BOND
M  V30 1 1 1 2
M  V30 2 1 2 3
M  V30 3 1 3 4
M  V30 4 2 4 5
M  V30 5 1 5 6
M  V30 6 1 5 7
M  V30 7 2 7 8
M  V30 8 1 8 9
M  V30 9 2 9 10
M  V30 10 2 2 11
M  V30 11 1 11 12
M  V30 12 3 12 13
M  V30 13 1 11 14
M  V30 14 2 14 15
M  V30 15 1 15 16
M  V30 16 2 16 17
M  V30 17 1 17 18
M  V30 18 2 18 19
M  V30 19 1 18 20
M  V30 20 2 20 21
M  V30 21 1 20 22
M  V30 22 2 22 23
M  V30 23 1 23 24
M  V30 24 2 24 25
M  V30 25 1 25 26
M  V30 26 2 26 27
M  V30 27 1 10 4
M  V30 28 1 19 14
M  V30 29 1 27 22
M  V30 30 1 1 28
M  V30 31 1 1 29
M  V30 32 1 6 30
M  V30 33 1 6 31
M  V30 34 1 7 32
M  V30 35 1 8 33
M  V30 36 1 9 34
M  V30 37 1 10 35
M  V30 38 1 15 36
M  V30 39 1 16 37
M  V30 40 1 17 38
M  V30 41 1 19 39
M  V30 42 1 23 40
M  V30 43 1 24 41
M  V30 44 1 25 42
M  V30 45 1 26 43
M  V30 46 1 27 44
M  V30 END BOND
M  V30 END CTAB
M  END
