
     RDKit          3D

  0  0  0  0  0  0  0  0  0  0999 V3000
M  V30 BEGIN CTAB
M  V30 COUNTS 27 27 0 0 0
M  V30 BEGIN ATOM
M  V30 1 C 5.26068 0.987627 0.0956229 0
M  V30 2 O 4.17992 0.0759402 0.308329 0
M  V30 3 C 2.84889 0.472288 0.0897857 0
M  V30 4 O 2.71014 1.6399 -0.289255 0
M  V30 5 N 1.81772 -0.423766 0.301044 0
M  V30 6 C 0.433843 -0.26334 0.153444 0
M  V30 7 C -0.124423 0.911227 -0.257098 0
M  V30 8 C -1.5164 1.03287 -0.392971 0
M  V30 9 C -2.36018 -0.0168859 -0.120007 0
M  V30 10 C -1.76668 -1.18859 0.292089 0
M  V30 11 C -0.406819 -1.34449 0.436548 0
M  V30 12 N 0.130304 -2.59647 0.870133 0
M  V30 13 S -4.10033 0.141106 -0.291697 0
M  V30 14 O -4.73298 -1.15257 -0.692353 0
M  V30 15 O -4.40305 1.18139 -1.33471 0
M  V30 16 N -4.72128 0.684228 1.22873 0
M  V30 17 H 4.97672 1.9837 0.490272 0
M  V30 18 H 5.53947 1.06718 -0.96455 0
M  V30 19 H 6.14621 0.567933 0.654042 0
M  V30 20 H 2.12841 -1.40017 0.631635 0
M  V30 21 H 0.441318 1.789 -0.495127 0
M  V30 22 H -1.93317 1.97556 -0.720284 0
M  V30 23 H -2.41368 -2.04876 0.518846 0
M  V30 24 H -0.145619 -3.47596 0.382954 0
M  V30 25 H 0.799048 -2.70459 1.66191 0
M  V30 26 H -4.0732 0.376999 1.99163 0
M  V30 27 H -4.71485 1.72863 1.20136 0
M  V30 END ATOM
M  V30 BEGIN BOND
M  V30 1 1 1 2
M  V30 2 1 2 3
M  V30 3 2 3 4
M  V30 4 1 3 5
M  V30 5 1 5 6
M  V30 6 2 6 7
M  V30 7 1 7 8
M  V30 8 2 8 9
M  V30 9 1 9 10
M  V30 10 2 10 11
M  V30 11 1 11 12
M  V30 12 1 9 13
M  V30 13 2 13 14
M  V30 14 2 13 15
M  V30 15 1 13 16
M  V30 16 1 11 6
M  V30 17 1 1 17
M  V30 18 1 1 18
M  V30 19 1 1 19
M  V30 20 1 5 20
M  V30 21 1 7 21
M  V30 22 1 8 22
M  V30 23 1 10 23
M  V30 24 1 12 24
M  V30 25 1 12 25
M  V30 26 1 16 26
M  V30 27 1 16 27
M  V30 END BOND
M  V30 END CTAB
M  END
