
     RDKit          3D

  0  0  0  0  0  0  0  0  0  0999 V3000
M  V30 BEGIN CTAB
M  V30 COUNTS 23 24 0 0 0
M  V30 BEGIN ATOM
M  V30 1 N -4.72828 0.0726897 -0.0316169 0
M  V30 2 C -3.30442 0.142601 0.0337484 0
M  V30 3 N -2.60115 -0.872912 -0.483787 0
M  V30 4 C -1.24179 -0.809888 -0.42336 0
M  V30 5 N -0.538173 -1.89685 -0.982641 0
M  V30 6 C -0.590701 0.262634 0.151501 0
M  V30 7 N -1.35425 1.25023 0.653131 0
M  V30 8 N -2.67362 1.19323 0.596595 0
M  V30 9 C 0.862246 0.34249 0.218432 0
M  V30 10 C 1.61849 -0.73691 0.623762 0
M  V30 11 C 2.98817 -0.620291 0.6699 0
M  V30 12 C 3.64109 0.550902 0.321515 0
M  V30 13 Cl 5.39581 0.669814 0.390729 0
M  V30 14 C 2.8895 1.64112 -0.0869991 0
M  V30 15 C 1.51595 1.5136 -0.129818 0
M  V30 16 H -5.31094 0.666086 0.595332 0
M  V30 17 H -5.2029 -0.553145 -0.686653 0
M  V30 18 H -0.0626219 -1.86331 -1.91934 0
M  V30 19 H -0.471193 -2.79615 -0.457121 0
M  V30 20 H 1.18922 -1.68562 0.914705 0
M  V30 21 H 3.62558 -1.4389 0.981189 0
M  V30 22 H 3.39951 2.56843 -0.363234 0
M  V30 23 H 0.95448 2.40015 -0.458931 0
M  V30 END ATOM
M  V30 BEGIN BOND
M  V30 1 1 1 2
M  V30 2 2 2 3
M  V30 3 1 3 4
M  V30 4 1 4 5
M  V30 5 2 4 6
M  V30 6 1 6 7
M  V30 7 2 7 8
M  V30 8 1 6 9
M  V30 9 2 9 10
M  V30 10 1 10 11
M  V30 11 2 11 12
M  V30 12 1 12 13
M  V30 13 1 12 14
M  V30 14 2 14 15
M  V30 15 1 8 2
M  V30 16 1 15 9
M  V30 17 1 1 16
M  V30 18 1 1 17
M  V30 19 1 5 18
M  V30 20 1 5 19
M  V30 21 1 10 20
M  V30 22 1 11 21
M  V30 23 1 14 22
M  V30 24 1 15 23
M  V30 END BOND
M  V30 END CTAB
M  END
