
     RDKit          3D

  0  0  0  0  0  0  0  0  0  0999 V3000
M  V30 BEGIN CTAB
M  V30 COUNTS 33 34 0 0 0
M  V30 BEGIN ATOM
M  V30 1 N -3.24524 2.6524 -0.195981 0
M  V30 2 C -3.52449 1.26957 -0.416052 0
M  V30 3 N -2.55991 0.399007 -0.767141 0
M  V30 4 C -2.81761 -0.901247 -0.975193 0
M  V30 5 C -1.79991 -1.91021 -1.3631 0
M  V30 6 O -0.489955 -1.47075 -1.24772 0
M  V30 7 C 0.0609415 -1.06958 -0.0409691 0
M  V30 8 O -0.672583 -1.11605 0.979453 0
M  V30 9 C 1.44517 -0.61021 0.0356084 0
M  V30 10 C 1.9971 -0.209168 1.23192 0
M  V30 11 C 3.31941 0.229574 1.30722 0
M  V30 12 C 4.10576 0.275512 0.203103 0
M  V30 13 C 3.56568 -0.125082 -1.01107 0
M  V30 14 C 2.24734 -0.561728 -1.08234 0
M  V30 15 S 5.798 0.817827 0.191145 0
M  V30 16 C 6.37486 1.31132 1.81668 0
M  V30 17 F 6.425 0.245188 2.67386 0
M  V30 18 F 7.67847 1.77575 1.67488 0
M  V30 19 F 5.64605 2.35932 2.34717 0
M  V30 20 N -4.10508 -1.30485 -0.814825 0
M  V30 21 C -5.10354 -0.477299 -0.465846 0
M  V30 22 N -4.78337 0.824261 -0.269238 0
M  V30 23 N -6.44349 -0.903509 -0.300639 0
M  V30 24 H -3.91807 3.22481 0.337914 0
M  V30 25 H -2.36246 3.09948 -0.569655 0
M  V30 26 H -2.01773 -2.82293 -0.765695 0
M  V30 27 H -2.01209 -2.18347 -2.42162 0
M  V30 28 H 1.35194 -0.253392 2.10398 0
M  V30 29 H 3.72696 0.53871 2.2585 0
M  V30 30 H 4.13939 -0.113324 -1.93294 0
M  V30 31 H 1.85934 -0.864141 -2.03319 0
M  V30 32 H -6.87293 -0.965073 0.640345 0
M  V30 33 H -7.01296 -1.1607 -1.12855 0
M  V30 END ATOM
M  V30 BEGIN BOND
M  V30 1 1 1 2
M  V30 2 2 2 3
M  V30 3 1 3 4
M  V30 4 1 4 5
M  V30 5 1 5 6
M  V30 6 1 6 7
M  V30 7 2 7 8
M  V30 8 1 7 9
M  V30 9 2 9 10
M  V30 10 1 10 11
M  V30 11 2 11 12
M  V30 12 1 12 13
M  V30 13 2 13 14
M  V30 14 1 12 15
M  V30 15 1 15 16
M  V30 16 1 16 17
M  V30 17 1 16 18
M  V30 18 1 16 19
M  V30 19 2 4 20
M  V30 20 1 20 21
M  V30 21 2 21 22
M  V30 22 1 21 23
M  V30 23 1 22 2
M  V30 24 1 14 9
M  V30 25 1 1 24
M  V30 26 1 1 25
M  V30 27 1 5 26
M  V30 28 1 5 27
M  V30 29 1 10 28
M  V30 30 1 11 29
M  V30 31 1 13 30
M  V30 32 1 14 31
M  V30 33 1 23 32
M  V30 34 1 23 33
M  V30 END BOND
M  V30 END CTAB
M  END
