
     RDKit          3D

  0  0  0  0  0  0  0  0  0  0999 V3000
M  V30 BEGIN CTAB
M  V30 COUNTS 48 52 0 0 0
M  V30 BEGIN ATOM
M  V30 1 N 3.65929 -3.71231 0.971717 0
M  V30 2 C 3.20231 -2.42878 0.607463 0
M  V30 3 N 1.8702 -2.14116 0.506962 0
M  V30 4 C 1.45117 -0.925158 0.162087 0
M  V30 5 N 2.34605 0.0316453 -0.0904759 0
M  V30 6 C 3.67201 -0.216464 -0.00106521 0
M  V30 7 N 4.07459 -1.449 0.34816 0
M  V30 8 N 4.63038 0.787531 -0.265779 0
M  V30 9 C 4.18326 2.12319 -0.644414 0
M  V30 10 C 5.15767 3.1027 -0.0598164 0
M  V30 11 O 6.42724 2.79617 -0.571291 0
M  V30 12 C 6.87705 1.68583 0.139625 0
M  V30 13 C 6.03343 0.466462 -0.154837 0
M  V30 14 C 0.0186739 -0.554506 0.0369408 0
M  V30 15 S -0.661415 0.932869 -0.387606 0
M  V30 16 C -2.31842 0.505834 -0.294212 0
M  V30 17 C -2.29814 -0.816847 0.0743156 0
M  V30 18 C -1.07751 -1.36761 0.246486 0
M  V30 19 N -0.770938 -2.73761 0.634892 0
M  V30 20 C -3.58359 -1.39109 0.213995 0
M  V30 21 C -4.70196 -0.58129 -0.0288442 0
M  V30 22 C -4.65837 0.727013 -0.392277 0
M  V30 23 N -3.44359 1.24877 -0.51855 0
M  V30 24 C -5.88087 1.50116 -0.626809 0
M  V30 25 C -7.18242 1.14787 -0.548882 0
M  V30 26 C -8.10402 2.08079 -0.822905 0
M  V30 27 C -7.65036 3.32992 -1.16338 0
M  V30 28 S -5.95372 3.14316 -1.08484 0
M  V30 29 C -3.78517 -2.8026 0.602109 0
M  V30 30 F -5.20493 -2.98278 0.627597 0
M  V30 31 F -3.42092 -3.71696 -0.364563 0
M  V30 32 F -3.4373 -3.12225 1.8778 0
M  V30 33 H 3.14131 -4.25046 1.68257 0
M  V30 34 H 4.50482 -4.09869 0.524503 0
M  V30 35 H 3.15725 2.3082 -0.252987 0
M  V30 36 H 4.17505 2.25352 -1.74532 0
M  V30 37 H 4.89216 4.15816 -0.276554 0
M  V30 38 H 5.19685 2.96229 1.04935 0
M  V30 39 H 6.88762 1.9452 1.22133 0
M  V30 40 H 7.92799 1.50429 -0.159493 0
M  V30 41 H 6.44409 -0.0387978 -1.03891 0
M  V30 42 H 6.13928 -0.205283 0.734381 0
M  V30 43 H -0.656538 -3.50944 -0.0278919 0
M  V30 44 H -0.64766 -2.89237 1.65359 0
M  V30 45 H -5.70307 -1.03252 0.0811519 0
M  V30 46 H -7.46494 0.109272 -0.264313 0
M  V30 47 H -9.2047 1.90626 -0.791578 0
M  V30 48 H -8.2592 4.2159 -1.41944 0
M  V30 END ATOM
M  V30 BEGIN BOND
M  V30 1 1 1 2
M  V30 2 2 2 3
M  V30 3 1 3 4
M  V30 4 2 4 5
M  V30 5 1 5 6
M  V30 6 2 6 7
M  V30 7 1 6 8
M  V30 8 1 8 9
M  V30 9 1 9 10
M  V30 10 1 10 11
M  V30 11 1 11 12
M  V30 12 1 12 13
M  V30 13 1 4 14
M  V30 14 1 14 15
M  V30 15 1 15 16
M  V30 16 2 16 17
M  V30 17 1 17 18
M  V30 18 1 18 19
M  V30 19 1 17 20
M  V30 20 2 20 21
M  V30 21 1 21 22
M  V30 22 2 22 23
M  V30 23 1 22 24
M  V30 24 2 24 25
M  V30 25 1 25 26
M  V30 26 2 26 27
M  V30 27 1 27 28
M  V30 28 1 20 29
M  V30 29 1 29 30
M  V30 30 1 29 31
M  V30 31 1 29 32
M  V30 32 1 7 2
M  V30 33 1 13 8
M  V30 34 2 18 14
M  V30 35 1 28 24
M  V30 36 1 23 16
M  V30 37 1 1 33
M  V30 38 1 1 34
M  V30 39 1 9 35
M  V30 40 1 9 36
M  V30 41 1 10 37
M  V30 42 1 10 38
M  V30 43 1 12 39
M  V30 44 1 12 40
M  V30 45 1 13 41
M  V30 46 1 13 42
M  V30 47 1 19 43
M  V30 48 1 19 44
M  V30 49 1 21 45
M  V30 50 1 25 46
M  V30 51 1 26 47
M  V30 52 1 27 48
M  V30 END BOND
M  V30 END CTAB
M  END
