
     RDKit          3D

  0  0  0  0  0  0  0  0  0  0999 V3000
M  V30 BEGIN CTAB
M  V30 COUNTS 20 20 0 0 0
M  V30 BEGIN ATOM
M  V30 1 N -2.47016 -1.57184 0.0251697 0
M  V30 2 C -1.12156 -1.06696 0.0255317 0
M  V30 3 C -0.0427539 -1.92182 0.0584467 0
M  V30 4 C 1.2585 -1.47901 0.0589309 0
M  V30 5 C 1.52591 -0.108363 0.0247422 0
M  V30 6 C 0.437885 0.740852 -0.00812898 0
M  V30 7 N 0.687107 2.15216 -0.0427839 0
M  V30 8 C -0.87727 0.28823 -0.00828501 0
M  V30 9 N -1.95336 1.21849 -0.0417202 0 CHG=1
M  V30 10 O -2.184 1.85825 -1.22936 0 CHG=-1
M  V30 11 O -2.68085 1.47743 0.926008 0
M  V30 12 N 2.85812 0.382817 0.0242178 0 CHG=1
M  V30 13 O 3.91181 -0.22912 0.64018 0 CHG=-1
M  V30 14 O 3.08274 1.44761 -0.580538 0
M  V30 15 H -3.10442 -1.1109 0.712101 0
M  V30 16 H -2.77602 -2.32544 -0.603263 0
M  V30 17 H -0.202521 -2.98662 0.0860465 0
M  V30 18 H 2.11869 -2.12841 0.0837856 0
M  V30 19 H 0.232759 2.73496 -0.791325 0
M  V30 20 H 1.29939 2.62769 0.640249 0
M  V30 END ATOM
M  V30 BEGIN BOND
M  V30 1 1 1 2
M  V30 2 2 2 3
M  V30 3 1 3 4
M  V30 4 2 4 5
M  V30 5 1 5 6
M  V30 6 1 6 7
M  V30 7 2 6 8
M  V30 8 1 8 9
M  V30 9 1 9 10
M  V30 10 2 9 11
M  V30 11 1 5 12
M  V30 12 1 12 13
M  V30 13 2 12 14
M  V30 14 1 8 2
M  V30 15 1 1 15
M  V30 16 1 1 16
M  V30 17 1 3 17
M  V30 18 1 4 18
M  V30 19 1 7 19
M  V30 20 1 7 20
M  V30 END BOND
M  V30 END CTAB
M  END
