
     RDKit          3D

  0  0  0  0  0  0  0  0  0  0999 V3000
M  V30 BEGIN CTAB
M  V30 COUNTS 26 26 0 0 0
M  V30 BEGIN ATOM
M  V30 1 C 4.3661 -0.236459 0.727158 0
M  V30 2 C 3.35282 -0.200308 -0.388031 0
M  V30 3 O 2.03436 -0.116883 0.124391 0
M  V30 4 C 0.954702 -0.0718586 -0.712138 0
M  V30 5 O 1.16293 -0.106534 -1.95271 0
M  V30 6 C -0.429543 0.0146281 -0.233222 0
M  V30 7 C -0.700536 0.0548886 1.11881 0
M  V30 8 C -2.01104 0.13667 1.56698 0
M  V30 9 N -2.34461 0.181044 2.9519 0
M  V30 10 C -3.06059 0.17874 0.662575 0
M  V30 11 C -2.80035 0.13905 -0.691272 0
M  V30 12 C -1.47545 0.0572306 -1.09795 0
M  V30 13 N -1.20664 0.0161401 -2.49944 0
M  V30 14 O -3.84204 0.180742 -1.59307 0
M  V30 15 H 5.35222 0.0253576 0.269313 0
M  V30 16 H 4.42096 -1.23843 1.19432 0
M  V30 17 H 4.08244 0.556243 1.45753 0
M  V30 18 H 3.46161 -1.08246 -1.05655 0
M  V30 19 H 3.53478 0.724457 -0.971519 0
M  V30 20 H 0.103509 0.0231099 1.83609 0
M  V30 21 H -2.60958 1.10786 3.34715 0
M  V30 22 H -2.3285 -0.67671 3.56147 0
M  V30 23 H -4.09159 0.243268 1.02542 0
M  V30 24 H -1.26619 -0.914982 -2.99995 0
M  V30 25 H -0.954342 0.850484 -3.06197 0
M  V30 26 H -3.70545 0.154717 -2.58532 0
M  V30 END ATOM
M  V30 BEGIN BOND
M  V30 1 1 1 2
M  V30 2 1 2 3
M  V30 3 1 3 4
M  V30 4 2 4 5
M  V30 5 1 4 6
M  V30 6 2 6 7
M  V30 7 1 7 8
M  V30 8 1 8 9
M  V30 9 2 8 10
M  V30 10 1 10 11
M  V30 11 2 11 12
M  V30 12 1 12 13
M  V30 13 1 11 14
M  V30 14 1 12 6
M  V30 15 1 1 15
M  V30 16 1 1 16
M  V30 17 1 1 17
M  V30 18 1 2 18
M  V30 19 1 2 19
M  V30 20 1 7 20
M  V30 21 1 9 21
M  V30 22 1 9 22
M  V30 23 1 10 23
M  V30 24 1 13 24
M  V30 25 1 13 25
M  V30 26 1 14 26
M  V30 END BOND
M  V30 END CTAB
M  END
