
     RDKit          3D

  0  0  0  0  0  0  0  0  0  0999 V3000
M  V30 BEGIN CTAB
M  V30 COUNTS 16 16 0 0 0
M  V30 BEGIN ATOM
M  V30 1 N 1.91288 0.583201 0.0487675 0
M  V30 2 C 0.605556 0.407279 -0.416426 0 CFG=1
M  V30 3 C 0.273671 -0.964641 -0.965901 0
M  V30 4 C -0.652844 -1.24565 0.190283 0
M  V30 5 C -0.457365 0.199109 0.63047 0 CFG=2
M  V30 6 N -1.66246 0.967066 0.433322 0
M  V30 7 H 2.46748 1.16714 -0.51006 0
M  V30 8 H 2.09605 0.510586 0.989658 0
M  V30 9 H 0.326005 1.18467 -1.17333 0
M  V30 10 H 1.13922 -1.65994 -1.03239 0
M  V30 11 H -0.261854 -0.949285 -1.94956 0
M  V30 12 H -1.7018 -1.46521 -0.115328 0
M  V30 13 H -0.308849 -1.99202 0.919469 0
M  V30 14 H -0.0992541 0.281605 1.66731 0
M  V30 15 H -1.50327 1.88067 -0.0421103 0
M  V30 16 H -2.17316 1.09541 1.32582 0
M  V30 END ATOM
M  V30 BEGIN BOND
M  V30 1 1 1 2
M  V30 2 1 2 3
M  V30 3 1 3 4
M  V30 4 1 4 5
M  V30 5 1 5 6
M  V30 6 1 5 2
M  V30 7 1 1 7
M  V30 8 1 1 8
M  V30 9 1 2 9 CFG=3
M  V30 10 1 3 10
M  V30 11 1 3 11
M  V30 12 1 4 12
M  V30 13 1 4 13
M  V30 14 1 5 14 CFG=1
M  V30 15 1 6 15
M  V30 16 1 6 16
M  V30 END BOND
M  V30 END CTAB
M  END
