
     RDKit          3D

  0  0  0  0  0  0  0  0  0  0999 V3000
M  V30 BEGIN CTAB
M  V30 COUNTS 29 28 0 0 0
M  V30 BEGIN ATOM
M  V30 1 C -0.975993 -1.34903 -1.31503 0
M  V30 2 C -0.456398 -0.903483 0.0279571 0
M  V30 3 C 1.05108 -0.770961 -0.0820362 0
M  V30 4 S 1.81595 -0.246108 1.44239 0
M  V30 5 C 3.58526 -0.162229 1.27873 0
M  V30 6 C 4.12518 0.884405 0.374242 0
M  V30 7 N 3.67613 0.696353 -0.971849 0
M  V30 8 S -1.10052 0.751391 0.367822 0
M  V30 9 C -2.87113 0.778203 0.61763 0
M  V30 10 C -3.68623 0.433104 -0.599645 0
M  V30 11 N -5.09635 0.515084 -0.20508 0
M  V30 12 H -1.71674 -2.16499 -1.24365 0
M  V30 13 H -0.126062 -1.76569 -1.93213 0
M  V30 14 H -1.33225 -0.470929 -1.89322 0
M  V30 15 H -0.752186 -1.59449 0.840738 0
M  V30 16 H 1.27189 -0.0394065 -0.89107 0
M  V30 17 H 1.47425 -1.7572 -0.368397 0
M  V30 18 H 4.03555 -0.0529418 2.30393 0
M  V30 19 H 4.02524 -1.14478 0.912416 0
M  V30 20 H 5.23941 0.751812 0.356236 0
M  V30 21 H 3.92525 1.92165 0.722478 0
M  V30 22 H 3.53603 1.56021 -1.50911 0
M  V30 23 H 4.29318 0.00372084 -1.4512 0
M  V30 24 H -3.16512 0.059644 1.41352 0
M  V30 25 H -3.16187 1.78248 0.984951 0
M  V30 26 H -3.51455 1.07748 -1.46732 0
M  V30 27 H -3.50769 -0.61914 -0.906337 0
M  V30 28 H -5.16308 0.32423 0.820714 0
M  V30 29 H -5.42821 1.50161 -0.374442 0
M  V30 END ATOM
M  V30 BEGIN BOND
M  V30 1 1 1 2
M  V30 2 1 2 3
M  V30 3 1 3 4
M  V30 4 1 4 5
M  V30 5 1 5 6
M  V30 6 1 6 7
M  V30 7 1 2 8
M  V30 8 1 8 9
M  V30 9 1 9 10
M  V30 10 1 10 11
M  V30 11 1 1 12
M  V30 12 1 1 13
M  V30 13 1 1 14
M  V30 14 1 2 15
M  V30 15 1 3 16
M  V30 16 1 3 17
M  V30 17 1 5 18
M  V30 18 1 5 19
M  V30 19 1 6 20
M  V30 20 1 6 21
M  V30 21 1 7 22
M  V30 22 1 7 23
M  V30 23 1 9 24
M  V30 24 1 9 25
M  V30 25 1 10 26
M  V30 26 1 10 27
M  V30 27 1 11 28
M  V30 28 1 11 29
M  V30 END BOND
M  V30 END CTAB
M  END
