
     RDKit          3D

  0  0  0  0  0  0  0  0  0  0999 V3000
M  V30 BEGIN CTAB
M  V30 COUNTS 29 30 0 0 0
M  V30 BEGIN ATOM
M  V30 1 N 2.78615 0.854683 -1.61208 0
M  V30 2 C 3.64985 1.6022 -0.785955 0
M  V30 3 N 4.71032 2.11809 -1.28813 0
M  V30 4 S 3.31395 1.85371 0.937461 0
M  V30 5 C 1.77991 1.02889 1.44148 0
M  V30 6 C 1.92801 -0.46993 1.35832 0
M  V30 7 N 0.759344 -1.19476 1.74472 0
M  V30 8 C -0.490463 -1.08408 1.07135 0
M  V30 9 N -0.816394 -0.334476 0.00941109 0
M  V30 10 C -2.11528 -0.530836 -0.306254 0
M  V30 11 C -2.62544 -1.44418 0.598444 0
M  V30 12 N -1.61297 -1.76173 1.42335 0
M  V30 13 N -3.91921 -1.80039 0.481845 0
M  V30 14 C -4.67987 -1.27143 -0.494951 0
M  V30 15 N -4.18085 -0.38266 -1.37424 0
M  V30 16 C -2.89323 0.0162259 -1.31275 0
M  V30 17 N -2.34461 0.941052 -2.21515 0
M  V30 18 H 1.75489 0.939829 -1.44791 0
M  V30 19 H 3.10496 0.218428 -2.38051 0
M  V30 20 H 5.39154 2.68223 -0.732558 0
M  V30 21 H 1.4672 1.33083 2.45993 0
M  V30 22 H 0.954954 1.37127 0.770687 0
M  V30 23 H 2.20238 -0.755304 0.314189 0
M  V30 24 H 2.78823 -0.786429 1.97884 0
M  V30 25 H 0.825527 -1.85137 2.57897 0
M  V30 26 H -1.724 -2.44034 2.2103 0
M  V30 27 H -5.71646 -1.55297 -0.593164 0
M  V30 28 H -1.84072 0.733268 -3.08625 0
M  V30 29 H -2.45773 1.97019 -1.98005 0
M  V30 END ATOM
M  V30 BEGIN BOND
M  V30 1 1 1 2
M  V30 2 2 2 3 CFG=2
M  V30 3 1 2 4
M  V30 4 1 4 5
M  V30 5 1 5 6
M  V30 6 1 6 7
M  V30 7 1 7 8
M  V30 8 2 8 9
M  V30 9 1 9 10
M  V30 10 2 10 11
M  V30 11 1 11 12
M  V30 12 1 11 13
M  V30 13 2 13 14
M  V30 14 1 14 15
M  V30 15 2 15 16
M  V30 16 1 16 17
M  V30 17 1 12 8
M  V30 18 1 16 10
M  V30 19 1 1 18
M  V30 20 1 1 19
M  V30 21 1 3 20
M  V30 22 1 5 21
M  V30 23 1 5 22
M  V30 24 1 6 23
M  V30 25 1 6 24
M  V30 26 1 7 25
M  V30 27 1 12 26
M  V30 28 1 14 27
M  V30 29 1 17 28
M  V30 30 1 17 29
M  V30 END BOND
M  V30 END CTAB
M  END
