
     RDKit          3D

  0  0  0  0  0  0  0  0  0  0999 V3000
M  V30 BEGIN CTAB
M  V30 COUNTS 28 30 0 0 0
M  V30 BEGIN ATOM
M  V30 1 N -4.07697 -1.37549 -0.36125 0
M  V30 2 C -2.92737 -0.553552 -0.128297 0
M  V30 3 N -1.70388 -1.04939 0.0118689 0
M  V30 4 C -0.605273 -0.286527 0.232716 0
M  V30 5 N 0.663702 -0.912191 0.376698 0
M  V30 6 C 1.86066 -0.127125 0.588441 0
M  V30 7 C 2.32725 0.808055 -0.436344 0
M  V30 8 C 3.02505 -0.350292 -0.42068 0
M  V30 9 C 4.43497 -0.350488 0.235028 0
M  V30 10 C 3.71747 -1.50882 -0.34769 0
M  V30 11 C -0.785805 1.06509 0.312763 0
M  V30 12 C -2.05097 1.60591 0.169924 0
M  V30 13 C -3.13419 0.791981 -0.0527892 0
M  V30 14 N -4.41065 1.40434 -0.19165 0
M  V30 15 H -4.59222 -1.36513 -1.2633 0
M  V30 16 H -4.38769 -1.99472 0.411999 0
M  V30 17 H 0.698651 -1.96276 0.323692 0
M  V30 18 H 2.16772 -0.0603747 1.65103 0
M  V30 19 H 1.56382 1.05396 -1.23715 0
M  V30 20 H 2.73712 1.78381 -0.0309479 0
M  V30 21 H 4.46104 -0.162721 1.32569 0
M  V30 22 H 5.15064 0.196294 -0.413152 0
M  V30 23 H 3.49393 -2.32489 0.405558 0
M  V30 24 H 4.25114 -1.97205 -1.23206 0
M  V30 25 H 0.041497 1.72321 0.490301 0
M  V30 26 H -2.19103 2.6929 0.234883 0
M  V30 27 H -5.20637 1.0338 0.365245 0
M  V30 28 H -4.52223 2.19719 -0.836168 0
M  V30 END ATOM
M  V30 BEGIN BOND
M  V30 1 1 1 2
M  V30 2 2 2 3
M  V30 3 1 3 4
M  V30 4 1 4 5
M  V30 5 1 5 6
M  V30 6 1 6 7
M  V30 7 1 7 8
M  V30 8 1 8 9
M  V30 9 1 9 10
M  V30 10 2 4 11
M  V30 11 1 11 12
M  V30 12 2 12 13
M  V30 13 1 13 14
M  V30 14 1 13 2
M  V30 15 1 8 6
M  V30 16 1 10 8
M  V30 17 1 1 15
M  V30 18 1 1 16
M  V30 19 1 5 17
M  V30 20 1 6 18
M  V30 21 1 7 19
M  V30 22 1 7 20
M  V30 23 1 9 21
M  V30 24 1 9 22
M  V30 25 1 10 23
M  V30 26 1 10 24
M  V30 27 1 11 25
M  V30 28 1 12 26
M  V30 29 1 14 27
M  V30 30 1 14 28
M  V30 END BOND
M  V30 END CTAB
M  END
