
     RDKit          3D

  0  0  0  0  0  0  0  0  0  0999 V3000
M  V30 BEGIN CTAB
M  V30 COUNTS 27 27 0 0 0
M  V30 BEGIN ATOM
M  V30 1 C 3.623 -1.11021 -0.385498 0
M  V30 2 C 2.44619 -0.118257 -0.480556 0
M  V30 3 N 1.26564 -0.822014 -0.0482199 0
M  V30 4 C -0.0558715 -0.317501 -0.117293 0
M  V30 5 C -0.31473 0.897098 -0.707296 0
M  V30 6 C -1.59818 1.42608 -0.810016 0
M  V30 7 C -2.65708 0.708876 -0.302468 0
M  V30 8 C -2.4287 -0.503647 0.290008 0
M  V30 9 C -1.14617 -1.00394 0.378348 0
M  V30 10 F -0.913551 -2.20715 0.965501 0
M  V30 11 N -3.54201 -1.2182 0.803144 0
M  V30 12 N -3.96069 1.27786 -0.423087 0
M  V30 13 C 2.83871 0.955291 0.552953 0
M  V30 14 F 4.03729 1.51938 0.202407 0
M  V30 15 H 4.54055 -0.626937 -0.760426 0
M  V30 16 H 3.7632 -1.28226 0.710322 0
M  V30 17 H 3.40705 -2.03746 -0.91201 0
M  V30 18 H 2.31751 0.282309 -1.48156 0
M  V30 19 H 1.33864 -1.80484 0.364488 0
M  V30 20 H 0.505247 1.46934 -1.11958 0
M  V30 21 H -1.70809 2.38787 -1.28934 0
M  V30 22 H -4.43412 -1.32165 0.233142 0
M  V30 23 H -3.56536 -1.67599 1.74 0
M  V30 24 H -4.66951 1.15749 0.343065 0
M  V30 25 H -4.17457 1.81084 -1.29378 0
M  V30 26 H 3.00861 0.434398 1.52272 0
M  V30 27 H 2.077 1.72323 0.600193 0
M  V30 END ATOM
M  V30 BEGIN BOND
M  V30 1 1 1 2
M  V30 2 1 2 3
M  V30 3 1 3 4
M  V30 4 2 4 5
M  V30 5 1 5 6
M  V30 6 2 6 7
M  V30 7 1 7 8
M  V30 8 2 8 9
M  V30 9 1 9 10
M  V30 10 1 8 11
M  V30 11 1 7 12
M  V30 12 1 2 13
M  V30 13 1 13 14
M  V30 14 1 9 4
M  V30 15 1 1 15
M  V30 16 1 1 16
M  V30 17 1 1 17
M  V30 18 1 2 18
M  V30 19 1 3 19
M  V30 20 1 5 20
M  V30 21 1 6 21
M  V30 22 1 11 22
M  V30 23 1 11 23
M  V30 24 1 12 24
M  V30 25 1 12 25
M  V30 26 1 13 26
M  V30 27 1 13 27
M  V30 END BOND
M  V30 END CTAB
M  END
