
     RDKit          3D

  0  0  0  0  0  0  0  0  0  0999 V3000
M  V30 BEGIN CTAB
M  V30 COUNTS 34 37 0 0 0
M  V30 BEGIN ATOM
M  V30 1 N -5.89711 1.78603 0.652568 0
M  V30 2 C -4.57865 1.27119 0.524075 0
M  V30 3 N -4.42308 -0.0530316 0.442538 0
M  V30 4 C -3.17046 -0.54716 0.320188 0
M  V30 5 C -2.06564 0.31707 0.280572 0
M  V30 6 C -0.801768 -0.220475 0.155075 0
M  V30 7 C -0.617028 -1.58549 0.0691494 0
M  V30 8 N 0.715907 -1.83759 -0.0466711 0
M  V30 9 C 1.38142 -0.672469 -0.0366777 0
M  V30 10 C 0.446863 0.357882 0.0893673 0
M  V30 11 C 2.82191 -0.468487 -0.136808 0
M  V30 12 C 3.65585 -1.57505 -0.259128 0
M  V30 13 C 5.01173 -1.43254 -0.355963 0
M  V30 14 C 5.53554 -0.16576 -0.32969 0
M  V30 15 C 4.76687 0.966324 -0.211051 0
M  V30 16 C 3.37773 0.780026 -0.113959 0
M  V30 17 C -1.70039 -2.43865 0.1077 0
M  V30 18 C -2.94326 -1.89528 0.231884 0
M  V30 19 C -2.25094 1.65305 0.365017 0
M  V30 20 N -1.19705 2.59125 0.33322 0
M  V30 21 N -3.5426 2.1138 0.488615 0
M  V30 22 H -6.29119 2.15494 1.52759 0
M  V30 23 H -6.50267 1.78875 -0.197824 0
M  V30 24 H 1.10343 -2.79828 -0.126961 0
M  V30 25 H 0.755755 1.39014 0.11982 0
M  V30 26 H 3.18191 -2.55603 -0.274217 0
M  V30 27 H 5.66585 -2.27171 -0.450393 0
M  V30 28 H 6.59787 -0.0519226 -0.405444 0
M  V30 29 H 5.15346 1.95971 -0.188595 0
M  V30 30 H 2.72582 1.63335 -0.0189544 0
M  V30 31 H -1.52783 -3.5201 0.0376101 0
M  V30 32 H -3.792 -2.5663 0.261952 0
M  V30 33 H -0.744302 2.87737 1.21991 0
M  V30 34 H -0.851947 3.01544 -0.545572 0
M  V30 END ATOM
M  V30 BEGIN BOND
M  V30 1 1 1 2
M  V30 2 2 2 3
M  V30 3 1 3 4
M  V30 4 2 4 5
M  V30 5 1 5 6
M  V30 6 2 6 7
M  V30 7 1 7 8
M  V30 8 1 8 9
M  V30 9 2 9 10
M  V30 10 1 9 11
M  V30 11 2 11 12
M  V30 12 1 12 13
M  V30 13 2 13 14
M  V30 14 1 14 15
M  V30 15 2 15 16
M  V30 16 1 7 17
M  V30 17 2 17 18
M  V30 18 1 5 19
M  V30 19 1 19 20
M  V30 20 2 19 21
M  V30 21 1 21 2
M  V30 22 1 18 4
M  V30 23 1 10 6
M  V30 24 1 16 11
M  V30 25 1 1 22
M  V30 26 1 1 23
M  V30 27 1 8 24
M  V30 28 1 10 25
M  V30 29 1 12 26
M  V30 30 1 13 27
M  V30 31 1 14 28
M  V30 32 1 15 29
M  V30 33 1 16 30
M  V30 34 1 17 31
M  V30 35 1 18 32
M  V30 36 1 20 33
M  V30 37 1 20 34
M  V30 END BOND
M  V30 END CTAB
M  END
