
     RDKit          3D

  0  0  0  0  0  0  0  0  0  0999 V3000
M  V30 BEGIN CTAB
M  V30 COUNTS 31 32 0 0 0
M  V30 BEGIN ATOM
M  V30 1 N 3.00377 -1.74375 0.656224 0
M  V30 2 C 2.89244 -0.328888 0.847699 0
M  V30 3 C 2.17777 0.333807 -0.27849 0
M  V30 4 N 0.84291 -0.0469832 -0.542219 0
M  V30 5 C 0.420127 -1.29103 -1.08761 0
M  V30 6 C -0.910885 -1.7947 -0.634971 0
M  V30 7 C -1.60151 -0.988589 0.406731 0 CFG=1
M  V30 8 C -1.40431 0.470952 0.24398 0
M  V30 9 C -0.190037 0.90114 -0.223856 0
M  V30 10 C -0.00179021 2.27268 -0.373654 0
M  V30 11 C -0.974518 3.17377 -0.0725088 0
M  V30 12 C -2.18905 2.72243 0.397117 0
M  V30 13 C -2.40398 1.38574 0.554578 0
M  V30 14 N -3.04076 -1.20535 0.367797 0
M  V30 15 H 3.41324 -1.97864 -0.283783 0
M  V30 16 H 3.65896 -2.19438 1.33805 0
M  V30 17 H 2.52443 -0.049661 1.84407 0
M  V30 18 H 3.95559 0.0583787 0.820929 0
M  V30 19 H 2.78076 0.147407 -1.23259 0
M  V30 20 H 2.258 1.43058 -0.159919 0
M  V30 21 H 1.14341 -2.09253 -0.966978 0
M  V30 22 H 0.323638 -1.16337 -2.21855 0
M  V30 23 H -0.836687 -2.84698 -0.224115 0
M  V30 24 H -1.63748 -1.91681 -1.48614 0
M  V30 25 H -1.28922 -1.31454 1.43294 0
M  V30 26 H 0.941659 2.62756 -0.742368 0
M  V30 27 H -0.771179 4.22354 -0.20771 0
M  V30 28 H -2.95359 3.447 0.633426 0
M  V30 29 H -3.33672 0.970496 0.918756 0
M  V30 30 H -3.42089 -1.26103 -0.604199 0
M  V30 31 H -3.37409 -1.94825 0.987464 0
M  V30 END ATOM
M  V30 BEGIN BOND
M  V30 1 1 1 2
M  V30 2 1 2 3
M  V30 3 1 3 4
M  V30 4 1 4 5
M  V30 5 1 5 6
M  V30 6 1 6 7
M  V30 7 1 7 8
M  V30 8 2 8 9
M  V30 9 1 9 10
M  V30 10 2 10 11
M  V30 11 1 11 12
M  V30 12 2 12 13
M  V30 13 1 7 14
M  V30 14 1 9 4
M  V30 15 1 13 8
M  V30 16 1 1 15
M  V30 17 1 1 16
M  V30 18 1 2 17
M  V30 19 1 2 18
M  V30 20 1 3 19
M  V30 21 1 3 20
M  V30 22 1 5 21
M  V30 23 1 5 22
M  V30 24 1 6 23
M  V30 25 1 6 24
M  V30 26 1 7 25 CFG=1
M  V30 27 1 10 26
M  V30 28 1 11 27
M  V30 29 1 12 28
M  V30 30 1 13 29
M  V30 31 1 14 30
M  V30 32 1 14 31
M  V30 END BOND
M  V30 END CTAB
M  END
