
     RDKit          3D

  0  0  0  0  0  0  0  0  0  0999 V3000
M  V30 BEGIN CTAB
M  V30 COUNTS 34 35 0 0 0
M  V30 BEGIN ATOM
M  V30 1 N 5.43842 1.19286 -0.901153 0
M  V30 2 C 4.06359 0.856454 -1.01155 0
M  V30 3 N 3.32558 0.803404 -2.13744 0
M  V30 4 N 2.0697 0.44958 -1.84926 0
M  V30 5 C 1.93913 0.258844 -0.531764 0
M  V30 6 C 3.17387 0.508005 0.0103642 0
M  V30 7 C 0.722002 -0.142332 0.235927 0 CFG=2
M  V30 8 C 0.379208 -1.54291 -0.18269 0
M  V30 9 C -0.734498 -2.1566 0.606477 0
M  V30 10 C -1.96819 -1.35892 0.730617 0
M  V30 11 N -2.35524 -0.56194 -0.371698 0
M  V30 12 C -1.37743 0.321174 -0.898138 0
M  V30 13 C -0.387346 0.839451 0.103189 0
M  V30 14 S -3.74047 0.356776 0.105085 0
M  V30 15 O -4.31678 1.12815 -1.04282 0
M  V30 16 O -4.83177 -0.603914 0.557273 0
M  V30 17 N -3.42082 1.40855 1.4117 0
M  V30 18 H 5.76118 1.95762 -0.241393 0
M  V30 19 H 6.19935 0.725298 -1.44428 0
M  V30 20 H 1.35208 0.353669 -2.5741 0
M  V30 21 H 3.47909 0.461355 1.04966 0
M  V30 22 H 0.983047 -0.21215 1.33193 0
M  V30 23 H 0.257556 -1.67454 -1.27624 0
M  V30 24 H 1.29976 -2.15905 0.059889 0
M  V30 25 H -0.958191 -3.14439 0.153586 0
M  V30 26 H -0.339208 -2.36675 1.62789 0
M  V30 27 H -2.81361 -2.04553 0.971752 0
M  V30 28 H -1.88994 -0.690016 1.63818 0
M  V30 29 H -0.876424 -0.0790329 -1.81618 0
M  V30 30 H -1.91611 1.23735 -1.28963 0
M  V30 31 H -0.0185487 1.84596 -0.205576 0
M  V30 32 H -0.88506 0.994158 1.07752 0
M  V30 33 H -4.16211 2.13015 1.44776 0
M  V30 34 H -3.45182 0.909275 2.34353 0
M  V30 END ATOM
M  V30 BEGIN BOND
M  V30 1 1 1 2
M  V30 2 2 2 3
M  V30 3 1 3 4
M  V30 4 1 4 5
M  V30 5 2 5 6
M  V30 6 1 5 7
M  V30 7 1 7 8
M  V30 8 1 8 9
M  V30 9 1 9 10
M  V30 10 1 10 11
M  V30 11 1 11 12
M  V30 12 1 12 13
M  V30 13 1 11 14
M  V30 14 2 14 15
M  V30 15 2 14 16
M  V30 16 1 14 17
M  V30 17 1 6 2
M  V30 18 1 13 7
M  V30 19 1 1 18
M  V30 20 1 1 19
M  V30 21 1 4 20
M  V30 22 1 6 21
M  V30 23 1 7 22 CFG=1
M  V30 24 1 8 23
M  V30 25 1 8 24
M  V30 26 1 9 25
M  V30 27 1 9 26
M  V30 28 1 10 27
M  V30 29 1 10 28
M  V30 30 1 12 29
M  V30 31 1 12 30
M  V30 32 1 13 31
M  V30 33 1 13 32
M  V30 34 1 17 33
M  V30 35 1 17 34
M  V30 END BOND
M  V30 END CTAB
M  END
