
     RDKit          3D

  0  0  0  0  0  0  0  0  0  0999 V3000
M  V30 BEGIN CTAB
M  V30 COUNTS 22 23 0 0 0
M  V30 BEGIN ATOM
M  V30 1 N 2.82007 -1.99842 0.0231607 0
M  V30 2 C 1.80977 -1.01392 0.0969387 0
M  V30 3 C 2.07778 0.335755 -0.0607512 0
M  V30 4 C 1.09836 1.30405 0.00959186 0
M  V30 5 O 1.10961 2.70643 -0.112409 0
M  V30 6 C -0.212864 3.14859 -0.379771 0
M  V30 7 O -0.96135 2.10454 0.263476 0
M  V30 8 C -0.210244 0.936729 0.245996 0
M  V30 9 C -0.491049 -0.410712 0.405494 0
M  V30 10 C 0.486701 -1.38106 0.33559 0
M  V30 11 Br -0.0198854 -3.20372 0.571158 0
M  V30 12 S -2.14491 -0.864732 0.703411 0
M  V30 13 O -2.27451 -2.07456 1.5527 0
M  V30 14 O -2.868 0.26014 1.40019 0
M  V30 15 N -2.98952 -1.16401 -0.775728 0
M  V30 16 H 2.65544 -2.84241 -0.544266 0
M  V30 17 H 3.71242 -1.87942 0.528304 0
M  V30 18 H 3.09909 0.656295 -0.248176 0
M  V30 19 H -0.429883 3.05346 -1.46714 0
M  V30 20 H -0.438511 4.13109 0.0376581 0
M  V30 21 H -3.51673 -0.316784 -1.08685 0
M  V30 22 H -2.31178 -1.48735 -1.49859 0
M  V30 END ATOM
M  V30 BEGIN BOND
M  V30 1 1 1 2
M  V30 2 2 2 3
M  V30 3 1 3 4
M  V30 4 1 4 5
M  V30 5 1 5 6
M  V30 6 1 6 7
M  V30 7 1 7 8
M  V30 8 1 8 9
M  V30 9 2 9 10
M  V30 10 1 10 11
M  V30 11 1 9 12
M  V30 12 2 12 13
M  V30 13 2 12 14
M  V30 14 1 12 15
M  V30 15 1 10 2
M  V30 16 2 8 4
M  V30 17 1 1 16
M  V30 18 1 1 17
M  V30 19 1 3 18
M  V30 20 1 6 19
M  V30 21 1 6 20
M  V30 22 1 15 21
M  V30 23 1 15 22
M  V30 END BOND
M  V30 END CTAB
M  END
