
     RDKit          3D

  0  0  0  0  0  0  0  0  0  0999 V3000
M  V30 BEGIN CTAB
M  V30 COUNTS 61 64 0 0 0
M  V30 BEGIN ATOM
M  V30 1 C 7.13978 1.03759 1.5152 0
M  V30 2 C 5.73526 1.43178 1.83744 0
M  V30 3 C 4.71624 0.56553 1.04802 0
M  V30 4 C 4.95719 -0.828148 1.4482 0
M  V30 5 C 4.15006 -1.93221 0.939346 0
M  V30 6 C 4.06937 -2.30572 -0.470037 0
M  V30 7 C 3.53884 -1.35647 -1.47611 0
M  V30 8 O 2.23636 -0.88267 -1.23884 0
M  V30 9 C 1.08873 -1.61085 -1.16044 0
M  V30 10 O 1.13709 -2.85206 -1.31134 0
M  V30 11 C -0.181094 -0.912421 -0.899163 0
M  V30 12 C -1.4167 -1.53036 -0.795426 0
M  V30 13 N -1.72078 -2.91318 -0.912662 0
M  V30 14 N -2.31459 -0.532169 -0.552191 0
M  V30 15 C -1.66868 0.661258 -0.505471 0
M  V30 16 C -0.326228 0.441731 -0.721505 0
M  V30 17 N 0.549318 1.49066 -0.724178 0
M  V30 18 C 0.149519 2.75669 -0.520621 0
M  V30 19 C 1.03033 3.8203 -0.522342 0
M  V30 20 C 0.609551 5.12279 -0.311579 0
M  V30 21 C -0.73489 5.33468 -0.0961425 0
M  V30 22 C -1.60203 4.26722 -0.0968102 0
M  V30 23 C -1.1982 2.9604 -0.305671 0
M  V30 24 N -2.06966 1.93121 -0.301293 0
M  V30 25 C -3.69997 -0.710993 -0.376266 0
M  V30 26 C -4.18174 -1.28546 0.765903 0
M  V30 27 C -5.55511 -1.47145 0.958652 0
M  V30 28 C -6.43163 -1.06857 -0.0189561 0
M  V30 29 C -5.94738 -0.485582 -1.17876 0
M  V30 30 C -4.5701 -0.308668 -1.35179 0
M  V30 31 S -8.15576 -1.30166 0.222152 0
M  V30 32 O -8.44084 -1.26251 1.69316 0
M  V30 33 O -8.89478 -0.204549 -0.480654 0
M  V30 34 N -8.55443 -2.85815 -0.413343 0
M  V30 35 H 7.25981 0.537195 0.53959 0
M  V30 36 H 7.59163 0.458545 2.35916 0
M  V30 37 H 7.74904 1.97464 1.45301 0
M  V30 38 H 5.55965 2.50047 1.62988 0
M  V30 39 H 5.55736 1.25464 2.91697 0
M  V30 40 H 3.73701 0.980987 1.31138 0
M  V30 41 H 4.90172 0.739686 -0.00975146 0
M  V30 42 H 4.92855 -0.889716 2.58351 0
M  V30 43 H 6.0593 -1.03377 1.22592 0
M  V30 44 H 4.51157 -2.86317 1.52107 0
M  V30 45 H 3.071 -1.88758 1.33334 0
M  V30 46 H 5.05896 -2.75067 -0.813319 0
M  V30 47 H 3.39614 -3.22607 -0.52795 0
M  V30 48 H 3.49051 -1.96901 -2.46745 0
M  V30 49 H 4.20582 -0.506258 -1.6552 0
M  V30 50 H -1.70979 -3.3349 -1.86074 0
M  V30 51 H -1.94688 -3.48843 -0.0853446 0
M  V30 52 H 2.07656 3.65748 -0.689764 0
M  V30 53 H 1.32591 5.93477 -0.319135 0
M  V30 54 H -1.04203 6.35754 0.0660596 0
M  V30 55 H -2.65879 4.42741 0.0717956 0
M  V30 56 H -3.50571 -1.60213 1.53245 0
M  V30 57 H -5.92153 -1.91817 1.84804 0
M  V30 58 H -6.65104 -0.1703 -1.94638 0
M  V30 59 H -4.26868 0.150378 -2.27664 0
M  V30 60 H -8.1169 -3.56302 0.235523 0
M  V30 61 H -8.10224 -2.97855 -1.36374 0
M  V30 END ATOM
M  V30 BEGIN BOND
M  V30 1 1 1 2
M  V30 2 1 2 3
M  V30 3 1 3 4
M  V30 4 1 4 5
M  V30 5 1 5 6
M  V30 6 1 6 7
M  V30 7 1 7 8
M  V30 8 1 8 9
M  V30 9 2 9 10
M  V30 10 1 9 11
M  V30 11 2 11 12
M  V30 12 1 12 13
M  V30 13 1 12 14
M  V30 14 1 14 15
M  V30 15 2 15 16
M  V30 16 1 16 17
M  V30 17 2 17 18
M  V30 18 1 18 19
M  V30 19 2 19 20
M  V30 20 1 20 21
M  V30 21 2 21 22
M  V30 22 1 22 23
M  V30 23 2 23 24
M  V30 24 1 14 25
M  V30 25 2 25 26
M  V30 26 1 26 27
M  V30 27 2 27 28
M  V30 28 1 28 29
M  V30 29 2 29 30
M  V30 30 1 28 31
M  V30 31 2 31 32
M  V30 32 2 31 33
M  V30 33 1 31 34
M  V30 34 1 16 11
M  V30 35 1 23 18
M  V30 36 1 30 25
M  V30 37 1 24 15
M  V30 38 1 1 35
M  V30 39 1 1 36
M  V30 40 1 1 37
M  V30 41 1 2 38
M  V30 42 1 2 39
M  V30 43 1 3 40
M  V30 44 1 3 41
M  V30 45 1 4 42
M  V30 46 1 4 43
M  V30 47 1 5 44
M  V30 48 1 5 45
M  V30 49 1 6 46
M  V30 50 1 6 47
M  V30 51 1 7 48
M  V30 52 1 7 49
M  V30 53 1 13 50
M  V30 54 1 13 51
M  V30 55 1 19 52
M  V30 56 1 20 53
M  V30 57 1 21 54
M  V30 58 1 22 55
M  V30 59 1 26 56
M  V30 60 1 27 57
M  V30 61 1 29 58
M  V30 62 1 30 59
M  V30 63 1 34 60
M  V30 64 1 34 61
M  V30 END BOND
M  V30 END CTAB
M  END
