
     RDKit          3D

  0  0  0  0  0  0  0  0  0  0999 V3000
M  V30 BEGIN CTAB
M  V30 COUNTS 33 34 0 0 0
M  V30 BEGIN ATOM
M  V30 1 N -4.18445 -0.108983 -0.760326 0
M  V30 2 C -3.33731 0.301782 0.30545 0 CFG=2
M  V30 3 C -2.55127 1.51665 -0.115557 0
M  V30 4 C -1.3987 1.65004 0.841294 0
M  V30 5 N -0.41901 0.562819 0.45199 0
M  V30 6 C -1.01467 -0.709297 0.254781 0
M  V30 7 C -2.45248 -0.788301 0.775315 0 CFG=1
M  V30 8 O -2.49848 -0.882478 2.15745 0
M  V30 9 C 0.892036 0.964902 0.390174 0
M  V30 10 O 0.984629 2.27421 0.757098 0
M  V30 11 C 2.1859 0.414005 0.0567663 0
M  V30 12 S 3.66346 1.36114 0.28722 0
M  V30 13 C 4.79499 0.237656 -0.294315 0
M  V30 14 N 4.02511 -0.758323 -0.621607 0
M  V30 15 C 2.72619 -0.700733 -0.460164 0
M  V30 16 C 1.89928 -1.89388 -0.910532 0
M  V30 17 N 6.24125 0.356047 -0.399282 0
M  V30 18 H -4.59266 -1.00687 -0.656417 0
M  V30 19 H -4.80013 0.596619 -1.0832 0
M  V30 20 H -4.00129 0.644175 1.13819 0
M  V30 21 H -3.21346 2.39691 -0.0641751 0
M  V30 22 H -2.16027 1.41203 -1.14856 0
M  V30 23 H -0.938554 2.62946 0.788936 0
M  V30 24 H -1.72999 1.40856 1.86089 0
M  V30 25 H -1.00788 -1.02234 -0.804344 0
M  V30 26 H -0.500955 -1.5183 0.847439 0
M  V30 27 H -2.8444 -1.74716 0.335492 0
M  V30 28 H -2.42974 -1.83048 2.41267 0
M  V30 29 H 1.46975 -2.43167 -0.079495 0
M  V30 30 H 2.56581 -2.58595 -1.51556 0
M  V30 31 H 1.15185 -1.55461 -1.63225 0
M  V30 32 H 6.73148 0.642559 0.475494 0
M  V30 33 H 6.74399 0.169809 -1.27595 0
M  V30 END ATOM
M  V30 BEGIN BOND
M  V30 1 1 1 2
M  V30 2 1 2 3
M  V30 3 1 3 4
M  V30 4 1 4 5
M  V30 5 1 5 6
M  V30 6 1 6 7
M  V30 7 1 7 8
M  V30 8 1 5 9
M  V30 9 2 9 10
M  V30 10 1 9 11
M  V30 11 1 11 12
M  V30 12 1 12 13
M  V30 13 2 13 14
M  V30 14 1 14 15
M  V30 15 1 15 16
M  V30 16 1 13 17
M  V30 17 1 7 2
M  V30 18 2 15 11
M  V30 19 1 1 18
M  V30 20 1 1 19
M  V30 21 1 2 20 CFG=1
M  V30 22 1 3 21
M  V30 23 1 3 22
M  V30 24 1 4 23
M  V30 25 1 4 24
M  V30 26 1 6 25
M  V30 27 1 6 26
M  V30 28 1 7 27 CFG=3
M  V30 29 1 8 28
M  V30 30 1 16 29
M  V30 31 1 16 30
M  V30 32 1 16 31
M  V30 33 1 17 32
M  V30 34 1 17 33
M  V30 END BOND
M  V30 END CTAB
M  END
