
     RDKit          3D

  0  0  0  0  0  0  0  0  0  0999 V3000
M  V30 BEGIN CTAB
M  V30 COUNTS 24 24 0 0 0
M  V30 BEGIN ATOM
M  V30 1 C 2.96726 -1.71311 -0.393989 0
M  V30 2 N 2.86959 -0.345631 0.0322915 0
M  V30 3 C 1.58781 0.2864 0.106382 0
M  V30 4 N 1.53552 1.56569 0.509047 0
M  V30 5 C 0.360816 2.23662 0.606157 0
M  V30 6 N 0.271554 3.58341 1.02668 0
M  V30 7 N -0.7457 1.56322 0.281455 0
M  V30 8 C -0.71831 0.280264 -0.124856 0
M  V30 9 N 0.457804 -0.364663 -0.21354 0
M  V30 10 C -2.01356 -0.345323 -0.453111 0 CFG=2
M  V30 11 N -2.95604 -0.0097771 0.571992 0
M  V30 12 C -1.91789 -1.80854 -0.749227 0
M  V30 13 H 1.97706 -2.12876 -0.685583 0
M  V30 14 H 3.64501 -1.8199 -1.23399 0
M  V30 15 H 3.34675 -2.35935 0.42726 0
M  V30 16 H 3.7477 0.155716 0.279423 0
M  V30 17 H 0.375372 3.8254 2.023 0
M  V30 18 H 0.0965061 4.29628 0.267472 0
M  V30 19 H -2.37091 0.153283 -1.399 0
M  V30 20 H -3.90885 0.172124 0.246908 0
M  V30 21 H -2.8738 -0.57368 1.43828 0
M  V30 22 H -0.874162 -2.12941 -0.952453 0
M  V30 23 H -2.498 -2.09289 -1.67347 0
M  V30 24 H -2.36154 -2.42738 0.0628811 0
M  V30 END ATOM
M  V30 BEGIN BOND
M  V30 1 1 1 2
M  V30 2 1 2 3
M  V30 3 2 3 4
M  V30 4 1 4 5
M  V30 5 1 5 6
M  V30 6 2 5 7
M  V30 7 1 7 8
M  V30 8 2 8 9
M  V30 9 1 8 10
M  V30 10 1 10 11
M  V30 11 1 10 12
M  V30 12 1 9 3
M  V30 13 1 1 13
M  V30 14 1 1 14
M  V30 15 1 1 15
M  V30 16 1 2 16
M  V30 17 1 6 17
M  V30 18 1 6 18
M  V30 19 1 10 19 CFG=3
M  V30 20 1 11 20
M  V30 21 1 11 21
M  V30 22 1 12 22
M  V30 23 1 12 23
M  V30 24 1 12 24
M  V30 END BOND
M  V30 END CTAB
M  END
