
     RDKit          3D

  0  0  0  0  0  0  0  0  0  0999 V3000
M  V30 BEGIN CTAB
M  V30 COUNTS 29 30 0 0 0
M  V30 BEGIN ATOM
M  V30 1 C 3.88188 1.88045 -0.820928 0
M  V30 2 O 2.50263 1.61329 -0.772239 0
M  V30 3 C 2.10012 0.308637 -0.477001 0
M  V30 4 C 3.02504 -0.684685 -0.241051 0
M  V30 5 C 2.55469 -1.94799 0.044109 0
M  V30 6 C 1.19962 -2.19846 0.0892156 0
M  V30 7 C 0.261101 -1.20704 -0.146427 0
M  V30 8 C 0.74263 0.0343888 -0.426478 0
M  V30 9 C -1.16209 -1.56072 -0.0782859 0
M  V30 10 C -2.04961 -0.362629 -0.081423 0
M  V30 11 N -2.72316 0.139107 -1.13306 0
M  V30 12 N -3.40648 1.20854 -0.757107 0
M  V30 13 C -3.19352 1.43186 0.558788 0
M  V30 14 N -2.35792 0.452127 0.94358 0
M  V30 15 N -3.76078 2.49183 1.31413 0
M  V30 16 N -1.46036 -2.38522 1.09186 0
M  V30 17 H 4.39841 1.5232 0.0916818 0
M  V30 18 H 4.01869 2.98005 -0.879029 0
M  V30 19 H 4.32995 1.34876 -1.68264 0
M  V30 20 H 4.09251 -0.458693 -0.283164 0
M  V30 21 H 3.29958 -2.73723 0.231665 0
M  V30 22 H 0.897756 -3.21372 0.319063 0
M  V30 23 H 0.0582115 0.833096 -0.615663 0
M  V30 24 H -1.4166 -2.17957 -0.96376 0
M  V30 25 H -4.00262 1.75874 -1.41466 0
M  V30 26 H -4.5116 2.26127 1.99693 0
M  V30 27 H -3.48478 3.49304 1.24096 0
M  V30 28 H -2.2972 -2.99021 0.897409 0
M  V30 29 H -1.53609 -1.83221 1.95353 0
M  V30 END ATOM
M  V30 BEGIN BOND
M  V30 1 1 1 2
M  V30 2 1 2 3
M  V30 3 2 3 4
M  V30 4 1 4 5
M  V30 5 2 5 6
M  V30 6 1 6 7
M  V30 7 2 7 8
M  V30 8 1 7 9
M  V30 9 1 9 10
M  V30 10 2 10 11
M  V30 11 1 11 12
M  V30 12 1 12 13
M  V30 13 2 13 14
M  V30 14 1 13 15
M  V30 15 1 9 16
M  V30 16 1 8 3
M  V30 17 1 14 10
M  V30 18 1 1 17
M  V30 19 1 1 18
M  V30 20 1 1 19
M  V30 21 1 4 20
M  V30 22 1 5 21
M  V30 23 1 6 22
M  V30 24 1 8 23
M  V30 25 1 9 24
M  V30 26 1 12 25
M  V30 27 1 15 26
M  V30 28 1 15 27
M  V30 29 1 16 28
M  V30 30 1 16 29
M  V30 END BOND
M  V30 END CTAB
M  END
