
     RDKit          3D

  0  0  0  0  0  0  0  0  0  0999 V3000
M  V30 BEGIN CTAB
M  V30 COUNTS 42 44 0 0 0
M  V30 BEGIN ATOM
M  V30 1 C 5.27613 0.150636 2.45228 0
M  V30 2 C 5.25812 -1.26304 1.92274 0
M  V30 3 O 4.02276 -1.69356 1.48835 0
M  V30 4 C 3.31329 -1.14278 0.474731 0
M  V30 5 C 2.06565 -1.68752 0.164369 0
M  V30 6 C 1.327 -1.14534 -0.86247 0
M  V30 7 C 1.78667 -0.0740774 -1.59677 0
M  V30 8 C 0.960329 0.508815 -2.71666 0
M  V30 9 N -0.40604 0.123563 -2.59021 0
M  V30 10 C -1.25559 0.499773 -1.50471 0
M  V30 11 C -2.54089 0.00562416 -1.43871 0
M  V30 12 C -3.41054 0.338685 -0.41457 0
M  V30 13 C -2.97232 1.19503 0.572437 0
M  V30 14 C -1.67841 1.72517 0.553807 0
M  V30 15 C -0.869167 1.35093 -0.493733 0
M  V30 16 N -3.80673 1.52825 1.57521 0
M  V30 17 C -5.05243 1.02661 1.60593 0
M  V30 18 N -5.86855 1.42509 2.69323 0
M  V30 19 N -5.49474 0.184933 0.642961 0
M  V30 20 C -4.70303 -0.177606 -0.376554 0
M  V30 21 N -5.09996 -1.05457 -1.41924 0
M  V30 22 C 3.00232 0.461791 -1.29974 0
M  V30 23 C 3.76474 -0.0806374 -0.257037 0
M  V30 24 H 5.49083 0.0989231 3.5377 0
M  V30 25 H 4.29074 0.641031 2.27907 0
M  V30 26 H 6.03053 0.758817 1.92675 0
M  V30 27 H 5.61016 -1.98749 2.69967 0
M  V30 28 H 6.04894 -1.30624 1.11263 0
M  V30 29 H 1.71999 -2.52798 0.750686 0
M  V30 30 H 0.359883 -1.57312 -1.10167 0
M  V30 31 H 1.09877 1.60874 -2.67607 0
M  V30 32 H 1.39708 0.161116 -3.64988 0
M  V30 33 H -0.816284 -0.485997 -3.36028 0
M  V30 34 H -2.92241 -0.668328 -2.19294 0
M  V30 35 H -1.35653 2.39634 1.34067 0
M  V30 36 H 0.141941 1.742 -0.54955 0
M  V30 37 H -6.0695 2.42981 2.86913 0
M  V30 38 H -6.27801 0.717781 3.33064 0
M  V30 39 H -5.16773 -0.771412 -2.4225 0
M  V30 40 H -5.33213 -2.03976 -1.12889 0
M  V30 41 H 3.38849 1.317 -1.87315 0
M  V30 42 H 4.74664 0.388825 -0.0676234 0
M  V30 END ATOM
M  V30 BEGIN BOND
M  V30 1 1 1 2
M  V30 2 1 2 3
M  V30 3 1 3 4
M  V30 4 2 4 5
M  V30 5 1 5 6
M  V30 6 2 6 7
M  V30 7 1 7 8
M  V30 8 1 8 9
M  V30 9 1 9 10
M  V30 10 2 10 11
M  V30 11 1 11 12
M  V30 12 2 12 13
M  V30 13 1 13 14
M  V30 14 2 14 15
M  V30 15 1 13 16
M  V30 16 2 16 17
M  V30 17 1 17 18
M  V30 18 1 17 19
M  V30 19 2 19 20
M  V30 20 1 20 21
M  V30 21 1 7 22
M  V30 22 2 22 23
M  V30 23 1 23 4
M  V30 24 1 15 10
M  V30 25 1 20 12
M  V30 26 1 1 24
M  V30 27 1 1 25
M  V30 28 1 1 26
M  V30 29 1 2 27
M  V30 30 1 2 28
M  V30 31 1 5 29
M  V30 32 1 6 30
M  V30 33 1 8 31
M  V30 34 1 8 32
M  V30 35 1 9 33
M  V30 36 1 11 34
M  V30 37 1 14 35
M  V30 38 1 15 36
M  V30 39 1 18 37
M  V30 40 1 18 38
M  V30 41 1 21 39
M  V30 42 1 21 40
M  V30 43 1 22 41
M  V30 44 1 23 42
M  V30 END BOND
M  V30 END CTAB
M  END
