
     RDKit          3D

  0  0  0  0  0  0  0  0  0  0999 V3000
M  V30 BEGIN CTAB
M  V30 COUNTS 24 25 0 0 0
M  V30 BEGIN ATOM
M  V30 1 N 4.55463 0.418786 0.0524644 0
M  V30 2 C 3.14564 0.201387 -0.010616 0
M  V30 3 C 2.6016 -0.92163 -0.597678 0
M  V30 4 C 1.21923 -1.1155 -0.649025 0
M  V30 5 C 0.336306 -0.202214 -0.120154 0
M  V30 6 C 0.896759 0.934807 0.473856 0
M  V30 7 C 2.25817 1.11495 0.518568 0
M  V30 8 C -1.11511 -0.362222 -0.15038 0
M  V30 9 C -1.75699 -1.43252 -0.704956 0
M  V30 10 C -3.15385 -1.4739 -0.67303 0
M  V30 11 N -3.84061 -0.469397 -0.102408 0
M  V30 12 C -3.21317 0.580302 0.441575 0
M  V30 13 N -1.87918 0.599565 0.400123 0
M  V30 14 N -3.95573 1.65435 1.05202 0
M  V30 15 H 5.14821 0.0857998 -0.736337 0
M  V30 16 H 5.04274 0.893478 0.84135 0
M  V30 17 H 3.27275 -1.65538 -1.02111 0
M  V30 18 H 0.814187 -2.01812 -1.12215 0
M  V30 19 H 0.222109 1.6768 0.901879 0
M  V30 20 H 2.71113 2.00395 0.982415 0
M  V30 21 H -1.17843 -2.21255 -1.14983 0
M  V30 22 H -3.65271 -2.336 -1.12043 0
M  V30 23 H -4.96884 1.74777 0.76164 0
M  V30 24 H -3.50883 2.28751 1.73221 0
M  V30 END ATOM
M  V30 BEGIN BOND
M  V30 1 1 1 2
M  V30 2 2 2 3
M  V30 3 1 3 4
M  V30 4 2 4 5
M  V30 5 1 5 6
M  V30 6 2 6 7
M  V30 7 1 5 8
M  V30 8 2 8 9
M  V30 9 1 9 10
M  V30 10 2 10 11
M  V30 11 1 11 12
M  V30 12 2 12 13
M  V30 13 1 12 14
M  V30 14 1 7 2
M  V30 15 1 13 8
M  V30 16 1 1 15
M  V30 17 1 1 16
M  V30 18 1 3 17
M  V30 19 1 4 18
M  V30 20 1 6 19
M  V30 21 1 7 20
M  V30 22 1 9 21
M  V30 23 1 10 22
M  V30 24 1 14 23
M  V30 25 1 14 24
M  V30 END BOND
M  V30 END CTAB
M  END
