
     RDKit          3D

  0  0  0  0  0  0  0  0  0  0999 V3000
M  V30 BEGIN CTAB
M  V30 COUNTS 14 14 0 0 0
M  V30 BEGIN ATOM
M  V30 1 N -1.27919 1.39014 0.384258 0
M  V30 2 C -0.140606 0.611548 0.139138 0
M  V30 3 C 1.12144 1.17246 0.171155 0
M  V30 4 N 2.21016 0.416098 -0.0657606 0
M  V30 5 C 2.09035 -0.901172 -0.338405 0
M  V30 6 N 0.867897 -1.42194 -0.364605 0
M  V30 7 C -0.265082 -0.732605 -0.138918 0
M  V30 8 N -1.53552 -1.38488 -0.189819 0
M  V30 9 H -1.44925 1.76881 1.34988 0
M  V30 10 H -1.93047 1.57245 -0.407019 0
M  V30 11 H 1.2629 2.23182 0.387291 0
M  V30 12 H 2.99743 -1.48564 -0.526036 0
M  V30 13 H -2.26417 -1.03246 -0.840434 0
M  V30 14 H -1.68588 -2.20464 0.439279 0
M  V30 END ATOM
M  V30 BEGIN BOND
M  V30 1 1 1 2
M  V30 2 2 2 3
M  V30 3 1 3 4
M  V30 4 2 4 5
M  V30 5 1 5 6
M  V30 6 2 6 7
M  V30 7 1 7 8
M  V30 8 1 7 2
M  V30 9 1 1 9
M  V30 10 1 1 10
M  V30 11 1 3 11
M  V30 12 1 5 12
M  V30 13 1 8 13
M  V30 14 1 8 14
M  V30 END BOND
M  V30 END CTAB
M  END
