
     RDKit          3D

  0  0  0  0  0  0  0  0  0  0999 V3000
M  V30 BEGIN CTAB
M  V30 COUNTS 15 15 0 0 0
M  V30 BEGIN ATOM
M  V30 1 N -2.7419 0.429243 -0.0226066 0
M  V30 2 C -1.3485 0.133159 -0.0253845 0
M  V30 3 C -0.879433 -1.15127 -0.222009 0
M  V30 4 N 0.439928 -1.44335 -0.226545 0
M  V30 5 C 1.38963 -0.503491 -0.0398394 0
M  V30 6 C 0.966709 0.794997 0.160637 0
M  V30 7 C -0.395371 1.11346 0.168118 0
M  V30 8 Cl 2.16565 2.06944 0.410863 0
M  V30 9 N 2.77615 -0.825883 -0.0471713 0
M  V30 10 H -3.33275 0.192157 0.827712 0
M  V30 11 H -3.25064 0.871276 -0.803561 0
M  V30 12 H -1.61461 -1.93522 -0.375858 0
M  V30 13 H -0.737799 2.12521 0.323884 0
M  V30 14 H 3.21375 -1.37695 0.705525 0
M  V30 15 H 3.34917 -0.492795 -0.833764 0
M  V30 END ATOM
M  V30 BEGIN BOND
M  V30 1 1 1 2
M  V30 2 2 2 3
M  V30 3 1 3 4
M  V30 4 2 4 5
M  V30 5 1 5 6
M  V30 6 2 6 7
M  V30 7 1 6 8
M  V30 8 1 5 9
M  V30 9 1 7 2
M  V30 10 1 1 10
M  V30 11 1 1 11
M  V30 12 1 3 12
M  V30 13 1 7 13
M  V30 14 1 9 14
M  V30 15 1 9 15
M  V30 END BOND
M  V30 END CTAB
M  END
