
     RDKit          3D

  0  0  0  0  0  0  0  0  0  0999 V3000
M  V30 BEGIN CTAB
M  V30 COUNTS 24 24 0 0 0
M  V30 BEGIN ATOM
M  V30 1 F 1.03904 -2.61708 0.463182 0
M  V30 2 C 0.0135997 -1.73831 0.386973 0
M  V30 3 C -1.18481 -2.02384 1.02579 0
M  V30 4 C -2.23796 -1.13227 0.953592 0
M  V30 5 C -2.11757 0.0561599 0.246269 0
M  V30 6 C -0.90154 0.290066 -0.37098 0
M  V30 7 C 0.160784 -0.564228 -0.323135 0
M  V30 8 N 1.40598 -0.287753 -0.975679 0
M  V30 9 S 2.69097 0.547075 -0.220632 0
M  V30 10 O 2.22075 1.58121 0.761608 0
M  V30 11 O 3.45508 1.29351 -1.30118 0
M  V30 12 N 3.77896 -0.494398 0.604561 0
M  V30 13 C -0.75126 1.55349 -1.13188 0
M  V30 14 N -3.19355 0.981763 0.164378 0
M  V30 15 H -1.32809 -2.93095 1.58629 0
M  V30 16 H -3.18634 -1.3347 1.44606 0
M  V30 17 H 1.48349 -0.632891 -1.95814 0
M  V30 18 H 4.66064 0.0531974 0.772594 0
M  V30 19 H 3.37124 -0.85103 1.49126 0
M  V30 20 H -0.0565998 1.36984 -1.97103 0
M  V30 21 H -1.73329 1.93212 -1.50133 0
M  V30 22 H -0.378222 2.31842 -0.418587 0
M  V30 23 H -3.03679 1.9943 0.0676069 0
M  V30 24 H -4.1745 0.636316 0.202396 0
M  V30 END ATOM
M  V30 BEGIN BOND
M  V30 1 1 1 2
M  V30 2 2 2 3
M  V30 3 1 3 4
M  V30 4 2 4 5
M  V30 5 1 5 6
M  V30 6 2 6 7
M  V30 7 1 7 8
M  V30 8 1 8 9
M  V30 9 2 9 10
M  V30 10 2 9 11
M  V30 11 1 9 12
M  V30 12 1 6 13
M  V30 13 1 5 14
M  V30 14 1 7 2
M  V30 15 1 3 15
M  V30 16 1 4 16
M  V30 17 1 8 17
M  V30 18 1 12 18
M  V30 19 1 12 19
M  V30 20 1 13 20
M  V30 21 1 13 21
M  V30 22 1 13 22
M  V30 23 1 14 23
M  V30 24 1 14 24
M  V30 END BOND
M  V30 END CTAB
M  END
