
     RDKit          3D

  0  0  0  0  0  0  0  0  0  0999 V3000
M  V30 BEGIN CTAB
M  V30 COUNTS 17 18 0 0 0
M  V30 BEGIN ATOM
M  V30 1 N -3.43069 -0.656024 -0.365332 0
M  V30 2 C -2.11477 -0.252349 -0.0462086 0
M  V30 3 C -1.79653 0.713437 0.882823 0
M  V30 4 N -0.578304 1.10477 1.19555 0
M  V30 5 C 0.534095 0.5601 0.596043 0
M  V30 6 C 0.270303 -0.405793 -0.336278 0
M  V30 7 C -1.02552 -0.82465 -0.671471 0
M  V30 8 S 1.87033 -0.822112 -0.838357 0
M  V30 9 C 2.74113 0.250819 0.163493 0
M  V30 10 N 1.77777 0.863488 0.820997 0
M  V30 11 N 4.14717 0.455136 0.281735 0
M  V30 12 H -3.95608 -0.281396 -1.20131 0
M  V30 13 H -3.94499 -1.34887 0.217564 0
M  V30 14 H -2.66984 1.16854 1.38044 0
M  V30 15 H -1.10791 -1.58033 -1.40814 0
M  V30 16 H 4.75269 0.485782 -0.580057 0
M  V30 17 H 4.53116 0.569455 1.24558 0
M  V30 END ATOM
M  V30 BEGIN BOND
M  V30 1 1 1 2
M  V30 2 2 2 3
M  V30 3 1 3 4
M  V30 4 2 4 5
M  V30 5 1 5 6
M  V30 6 2 6 7
M  V30 7 1 6 8
M  V30 8 1 8 9
M  V30 9 2 9 10
M  V30 10 1 9 11
M  V30 11 1 7 2
M  V30 12 1 10 5
M  V30 13 1 1 12
M  V30 14 1 1 13
M  V30 15 1 3 14
M  V30 16 1 7 15
M  V30 17 1 11 16
M  V30 18 1 11 17
M  V30 END BOND
M  V30 END CTAB
M  END
