
     RDKit          3D

  0  0  0  0  0  0  0  0  0  0999 V3000
M  V30 BEGIN CTAB
M  V30 COUNTS 29 30 0 0 0
M  V30 BEGIN ATOM
M  V30 1 N -2.99337 0.353759 1.1325 0
M  V30 2 C -2.37871 0.134195 -0.162003 0
M  V30 3 C -0.869958 0.0828762 -0.0679956 0
M  V30 4 C -0.43586 -1.03462 0.839284 0
M  V30 5 C 1.04087 -1.36402 0.588628 0
M  V30 6 C 1.64622 -0.136003 -0.0421177 0
M  V30 7 C 1.18345 -0.106425 -1.48665 0
M  V30 8 C -0.33246 -0.0861242 -1.47519 0
M  V30 9 C 1.19947 1.14251 0.647876 0
M  V30 10 C -0.291716 1.367 0.47714 0
M  V30 11 N 3.08145 -0.14276 -0.0474193 0
M  V30 12 H -3.57078 -0.487125 1.35904 0
M  V30 13 H -3.64391 1.17109 1.1411 0
M  V30 14 H -2.72278 -0.807366 -0.613581 0
M  V30 15 H -2.72331 0.951781 -0.826986 0
M  V30 16 H -1.05065 -1.92927 0.789862 0
M  V30 17 H -0.467536 -0.648724 1.89882 0
M  V30 18 H 1.55046 -1.69533 1.49631 0
M  V30 19 H 1.0844 -2.19321 -0.143271 0
M  V30 20 H 1.62338 0.748822 -2.00315 0
M  V30 21 H 1.48268 -1.09253 -1.93669 0
M  V30 22 H -0.636403 0.832272 -2.04129 0
M  V30 23 H -0.769291 -0.979623 -1.96529 0
M  V30 24 H 1.40548 1.08488 1.72095 0
M  V30 25 H 1.80454 1.96826 0.230787 0
M  V30 26 H -0.784995 1.56929 1.46158 0
M  V30 27 H -0.466036 2.18668 -0.255042 0
M  V30 28 H 3.51186 -0.690825 -0.798161 0
M  V30 29 H 3.52351 -0.199464 0.877073 0
M  V30 END ATOM
M  V30 BEGIN BOND
M  V30 1 1 1 2
M  V30 2 1 2 3
M  V30 3 1 3 4
M  V30 4 1 4 5
M  V30 5 1 5 6
M  V30 6 1 6 7
M  V30 7 1 7 8
M  V30 8 1 6 9
M  V30 9 1 9 10
M  V30 10 1 6 11
M  V30 11 1 8 3
M  V30 12 1 10 3
M  V30 13 1 1 12
M  V30 14 1 1 13
M  V30 15 1 2 14
M  V30 16 1 2 15
M  V30 17 1 4 16
M  V30 18 1 4 17
M  V30 19 1 5 18
M  V30 20 1 5 19
M  V30 21 1 7 20
M  V30 22 1 7 21
M  V30 23 1 8 22
M  V30 24 1 8 23
M  V30 25 1 9 24
M  V30 26 1 9 25
M  V30 27 1 10 26
M  V30 28 1 10 27
M  V30 29 1 11 28
M  V30 30 1 11 29
M  V30 END BOND
M  V30 END CTAB
M  END
