
     RDKit          3D

  0  0  0  0  0  0  0  0  0  0999 V3000
M  V30 BEGIN CTAB
M  V30 COUNTS 24 24 0 0 0
M  V30 BEGIN ATOM
M  V30 1 N -2.92912 0.577396 -0.772098 0
M  V30 2 C -2.10037 -0.556875 -0.414254 0
M  V30 3 C -1.20797 -0.100509 0.723225 0
M  V30 4 C -0.289225 -1.21284 1.18498 0
M  V30 5 C 1.02415 -0.470595 1.33589 0
M  V30 6 N 0.98267 0.387167 0.190069 0
M  V30 7 C -0.314847 0.995868 0.190035 0
M  V30 8 C 1.99747 0.606924 -0.760991 0
M  V30 9 N 1.96372 1.69539 -1.49511 0
M  V30 10 N 3.06586 -0.303516 -0.964377 0
M  V30 11 H -3.32671 0.969243 0.0865318 0
M  V30 12 H -3.59819 0.364408 -1.528 0
M  V30 13 H -1.46832 -0.867841 -1.27777 0
M  V30 14 H -2.70114 -1.44532 -0.138021 0
M  V30 15 H -1.82325 0.218587 1.57672 0
M  V30 16 H -0.626791 -1.6437 2.15574 0
M  V30 17 H -0.190166 -2.02804 0.462484 0
M  V30 18 H 0.947703 0.118266 2.29359 0
M  V30 19 H 1.89243 -1.1523 1.35327 0
M  V30 20 H -0.626313 1.35753 -0.810763 0
M  V30 21 H -0.307985 1.87965 0.86217 0
M  V30 22 H 2.69985 1.85734 -2.18678 0
M  V30 23 H 2.90899 -1.27125 -1.29881 0
M  V30 24 H 4.02753 0.0250343 -0.767736 0
M  V30 END ATOM
M  V30 BEGIN BOND
M  V30 1 1 1 2
M  V30 2 1 2 3
M  V30 3 1 3 4
M  V30 4 1 4 5
M  V30 5 1 5 6
M  V30 6 1 6 7
M  V30 7 1 6 8
M  V30 8 2 8 9 CFG=2
M  V30 9 1 8 10
M  V30 10 1 7 3
M  V30 11 1 1 11
M  V30 12 1 1 12
M  V30 13 1 2 13
M  V30 14 1 2 14
M  V30 15 1 3 15
M  V30 16 1 4 16
M  V30 17 1 4 17
M  V30 18 1 5 18
M  V30 19 1 5 19
M  V30 20 1 7 20
M  V30 21 1 7 21
M  V30 22 1 9 22
M  V30 23 1 10 23
M  V30 24 1 10 24
M  V30 END BOND
M  V30 END CTAB
M  END
