
     RDKit          3D

  0  0  0  0  0  0  0  0  0  0999 V3000
M  V30 BEGIN CTAB
M  V30 COUNTS 30 30 0 0 0
M  V30 BEGIN ATOM
M  V30 1 O 5.82802 0.45634 -0.00845268 0 CHG=-1
M  V30 2 N 5.02479 -0.612644 0.290869 0 CHG=1
M  V30 3 O 5.55688 -1.66869 0.676547 0
M  V30 4 C 3.60272 -0.581558 0.184094 0
M  V30 5 C 2.91014 -1.74502 -0.0557347 0
M  V30 6 N 1.58917 -1.70913 -0.153768 0
M  V30 7 C 0.875101 -0.593846 -0.0320833 0
M  V30 8 N 1.53462 0.559249 0.203508 0
M  V30 9 C 2.88123 0.587542 0.313769 0
M  V30 10 N 3.60651 1.77096 0.559331 0
M  V30 11 N -0.537053 -0.605746 -0.144872 0
M  V30 12 C -1.31351 0.598683 -0.0138982 0
M  V30 13 C -2.79963 0.295134 -0.178982 0
M  V30 14 N -3.53528 1.52262 -0.0411319 0
M  V30 15 C -3.07124 -0.229911 -1.59015 0
M  V30 16 C -3.2827 -0.707569 0.813877 0
M  V30 17 H 3.45983 -2.6905 -0.163301 0
M  V30 18 H 3.84724 2.4048 -0.213811 0
M  V30 19 H 3.89624 2.00032 1.52049 0
M  V30 20 H -1.02893 -1.50216 -0.326301 0
M  V30 21 H -1.20451 0.994357 1.02282 0
M  V30 22 H -1.00116 1.39884 -0.714601 0
M  V30 23 H -3.01181 2.35457 -0.384325 0
M  V30 24 H -4.00186 1.64857 0.868503 0
M  V30 25 H -3.02151 -1.34307 -1.52759 0
M  V30 26 H -4.10033 0.0714554 -1.86503 0
M  V30 27 H -2.35622 0.180059 -2.31867 0
M  V30 28 H -3.77112 -0.157668 1.65659 0
M  V30 29 H -4.06916 -1.3427 0.314721 0
M  V30 30 H -2.50646 -1.35328 1.22997 0
M  V30 END ATOM
M  V30 BEGIN BOND
M  V30 1 1 1 2
M  V30 2 2 2 3
M  V30 3 1 2 4
M  V30 4 2 4 5
M  V30 5 1 5 6
M  V30 6 2 6 7
M  V30 7 1 7 8
M  V30 8 2 8 9
M  V30 9 1 9 10
M  V30 10 1 7 11
M  V30 11 1 11 12
M  V30 12 1 12 13
M  V30 13 1 13 14
M  V30 14 1 13 15
M  V30 15 1 13 16
M  V30 16 1 9 4
M  V30 17 1 5 17
M  V30 18 1 10 18
M  V30 19 1 10 19
M  V30 20 1 11 20
M  V30 21 1 12 21
M  V30 22 1 12 22
M  V30 23 1 14 23
M  V30 24 1 14 24
M  V30 25 1 15 25
M  V30 26 1 15 26
M  V30 27 1 15 27
M  V30 28 1 16 28
M  V30 29 1 16 29
M  V30 30 1 16 30
M  V30 END BOND
M  V30 END CTAB
M  END
