
     RDKit          3D

  0  0  0  0  0  0  0  0  0  0999 V3000
M  V30 BEGIN CTAB
M  V30 COUNTS 63 62 0 0 0
M  V30 BEGIN ATOM
M  V30 1 C 4.29109 -2.47842 4.05791 0 CFG=2
M  V30 2 C 5.07889 -3.48087 3.3017 0
M  V30 3 N 3.08609 -3.0956 4.58797 0
M  V30 4 C 3.95339 -1.25311 3.30477 0
M  V30 5 O 3.24221 -0.380018 3.86305 0
M  V30 6 N 4.39163 -1.02213 1.97817 0
M  V30 7 C 4.01763 0.215206 1.31097 0 CFG=1
M  V30 8 C 5.0861 0.705949 0.393162 0
M  V30 9 C 2.74513 -0.00672831 0.508769 0
M  V30 10 O 2.30891 -1.16471 0.48097 0
M  V30 11 N 2.15801 1.08675 -0.12827 0
M  V30 12 C 0.966759 1.10877 -0.929758 0 CFG=1
M  V30 13 C 0.79505 -0.153345 -1.78445 0
M  V30 14 C -0.490921 0.0302981 -2.577 0
M  V30 15 C -0.677587 -1.18415 -3.45194 0
M  V30 16 N -0.784418 -2.3909 -2.67983 0
M  V30 17 C -0.983517 -3.59855 -3.38238 0
M  V30 18 N -1.96742 -3.57455 -4.42932 0
M  V30 19 N -0.352933 -4.65567 -3.12525 0
M  V30 20 C -0.232445 1.37155 -0.123616 0
M  V30 21 O -0.306384 0.819044 1.02905 0
M  V30 22 N -1.32587 2.19174 -0.50811 0
M  V30 23 C -2.47662 2.40145 0.328116 0 CFG=1
M  V30 24 C -2.34526 3.82117 0.869945 0
M  V30 25 C -3.72865 2.27079 -0.49262 0
M  V30 26 O -3.45403 2.17451 -1.75228 0
M  V30 27 N -4.9724 2.25456 0.0121469 0
M  V30 28 C -6.26209 2.23772 0.535352 0
M  V30 29 C -7.09989 3.36234 0.0242596 0
M  V30 30 O -8.41213 3.52762 0.435383 0
M  V30 31 O -6.5971 4.15895 -0.787264 0
M  V30 32 H 4.90912 -2.22401 4.97411 0
M  V30 33 H 5.50543 -4.27001 3.99284 0
M  V30 34 H 5.92893 -2.94171 2.79969 0
M  V30 35 H 4.47934 -3.93921 2.51128 0
M  V30 36 H 2.31511 -2.40284 4.47981 0
M  V30 37 H 2.77991 -3.90082 3.9647 0
M  V30 38 H 4.96886 -1.74978 1.51352 0
M  V30 39 H 3.70208 0.932755 2.0944 0
M  V30 40 H 6.11054 0.343242 0.671042 0
M  V30 41 H 4.94529 0.320739 -0.655872 0
M  V30 42 H 5.0563 1.80923 0.343378 0
M  V30 43 H 2.63226 2.0499 -0.0350276 0
M  V30 44 H 1.08351 1.91368 -1.70913 0
M  V30 45 H 1.67775 -0.204938 -2.42779 0
M  V30 46 H 0.69897 -1.0669 -1.20356 0
M  V30 47 H -0.499228 0.956961 -3.14191 0
M  V30 48 H -1.35605 0.0186637 -1.85166 0
M  V30 49 H -1.6209 -1.01912 -4.05288 0
M  V30 50 H 0.176649 -1.25161 -4.18642 0
M  V30 51 H -0.724595 -2.38713 -1.62055 0
M  V30 52 H -1.68669 -3.45493 -5.42135 0
M  V30 53 H -2.98666 -3.67518 -4.22262 0
M  V30 54 H 0.368645 -4.64906 -2.34266 0
M  V30 55 H -1.25397 2.65329 -1.4681 0
M  V30 56 H -2.48748 1.66632 1.14687 0
M  V30 57 H -1.54021 3.87362 1.63038 0
M  V30 58 H -2.10714 4.5458 0.096137 0
M  V30 59 H -3.30107 4.01972 1.39213 0
M  V30 60 H -5.52215 2.11124 -1.22974 0
M  V30 61 H -6.18197 2.4591 1.64852 0
M  V30 62 H -6.87388 1.3127 0.39764 0
M  V30 63 H -8.84791 2.85061 1.04326 0
M  V30 END ATOM
M  V30 BEGIN BOND
M  V30 1 1 1 2
M  V30 2 1 1 3
M  V30 3 1 1 4
M  V30 4 2 4 5
M  V30 5 1 4 6
M  V30 6 1 6 7
M  V30 7 1 7 8
M  V30 8 1 7 9
M  V30 9 2 9 10
M  V30 10 1 9 11
M  V30 11 1 11 12
M  V30 12 1 12 13
M  V30 13 1 13 14
M  V30 14 1 14 15
M  V30 15 1 15 16
M  V30 16 1 16 17
M  V30 17 1 17 18
M  V30 18 2 17 19 CFG=2
M  V30 19 1 12 20
M  V30 20 2 20 21
M  V30 21 1 20 22
M  V30 22 1 22 23
M  V30 23 1 23 24
M  V30 24 1 23 25
M  V30 25 2 25 26
M  V30 26 1 25 27
M  V30 27 1 27 28
M  V30 28 1 28 29
M  V30 29 1 29 30
M  V30 30 2 29 31
M  V30 31 1 1 32 CFG=1
M  V30 32 1 2 33
M  V30 33 1 2 34
M  V30 34 1 2 35
M  V30 35 1 3 36
M  V30 36 1 3 37
M  V30 37 1 6 38
M  V30 38 1 7 39 CFG=1
M  V30 39 1 8 40
M  V30 40 1 8 41
M  V30 41 1 8 42
M  V30 42 1 11 43
M  V30 43 1 12 44 CFG=3
M  V30 44 1 13 45
M  V30 45 1 13 46
M  V30 46 1 14 47
M  V30 47 1 14 48
M  V30 48 1 15 49
M  V30 49 1 15 50
M  V30 50 1 16 51
M  V30 51 1 18 52
M  V30 52 1 18 53
M  V30 53 1 19 54
M  V30 54 1 22 55
M  V30 55 1 23 56 CFG=1
M  V30 56 1 24 57
M  V30 57 1 24 58
M  V30 58 1 24 59
M  V30 59 1 27 60
M  V30 60 1 28 61
M  V30 61 1 28 62
M  V30 62 1 30 63
M  V30 END BOND
M  V30 END CTAB
M  END
