
     RDKit          3D

  0  0  0  0  0  0  0  0  0  0999 V3000
M  V30 BEGIN CTAB
M  V30 COUNTS 45 48 0 0 0
M  V30 BEGIN ATOM
M  V30 1 C -1.79495 -1.90947 0.268075 0
M  V30 2 C -1.38217 -0.474539 0.375959 0
M  V30 3 C -2.20893 0.487238 -0.422744 0
M  V30 4 C -1.77723 0.150431 -1.83007 0
M  V30 5 C -0.400596 -0.453044 -1.71335 0
M  V30 6 N -0.104532 -0.338538 -0.299481 0
M  V30 7 C 1.18862 -0.136618 0.235418 0
M  V30 8 C 2.28259 -0.042446 -0.589272 0
M  V30 9 C 3.56429 0.156776 -0.108835 0
M  V30 10 C 4.67168 0.253255 -0.922658 0
M  V30 11 N 4.50673 0.143378 -2.32856 0
M  V30 12 N 5.87216 0.444906 -0.394215 0
M  V30 13 C 6.08868 0.555791 0.937711 0
M  V30 14 N 7.3819 0.760838 1.47984 0
M  V30 15 N 5.00504 0.461144 1.73277 0
M  V30 16 C 3.7526 0.266311 1.26561 0
M  V30 17 C 2.66761 0.17407 2.10237 0
M  V30 18 C 1.37904 -0.02817 1.59071 0
M  V30 19 C -3.65646 0.358975 -0.31017 0
M  V30 20 C -4.42155 -0.682847 -0.771599 0
M  V30 21 C -5.77971 -0.653142 -0.578075 0
M  V30 22 C -6.42765 0.376462 0.0613118 0
M  V30 23 C -5.66474 1.42189 0.524733 0
M  V30 24 C -4.30938 1.41398 0.343283 0
M  V30 25 H -1.06953 -2.56817 0.834165 0
M  V30 26 H -2.77507 -2.12751 0.754829 0
M  V30 27 H -1.73322 -2.28875 -0.770766 0
M  V30 28 H -1.2493 -0.146557 1.42946 0
M  V30 29 H -1.84196 1.5079 -0.13304 0
M  V30 30 H -1.77236 1.07102 -2.45828 0
M  V30 31 H -2.4202 -0.613638 -2.3076 0
M  V30 32 H -0.328251 -1.50787 -1.98771 0
M  V30 33 H 0.281665 0.186584 -2.32529 0
M  V30 34 H 2.16763 -0.123357 -1.64772 0
M  V30 35 H 4.28351 -0.758984 -2.8162 0
M  V30 36 H 4.60374 0.97989 -2.95098 0
M  V30 37 H 7.65031 1.62993 1.98123 0
M  V30 38 H 8.0985 0.0163034 1.37682 0
M  V30 39 H 2.76376 0.25255 3.16381 0
M  V30 40 H 0.553625 -0.0952892 2.29311 0
M  V30 41 H -3.91257 -1.48953 -1.27594 0
M  V30 42 H -6.33626 -1.5091 -0.966409 0
M  V30 43 H -7.51916 0.353348 0.19173 0
M  V30 44 H -6.12911 2.25444 1.03413 0
M  V30 45 H -3.74882 2.27017 0.731073 0
M  V30 END ATOM
M  V30 BEGIN BOND
M  V30 1 1 1 2
M  V30 2 1 2 3
M  V30 3 1 3 4
M  V30 4 1 4 5
M  V30 5 1 5 6
M  V30 6 1 6 7
M  V30 7 2 7 8
M  V30 8 1 8 9
M  V30 9 2 9 10
M  V30 10 1 10 11
M  V30 11 1 10 12
M  V30 12 2 12 13
M  V30 13 1 13 14
M  V30 14 1 13 15
M  V30 15 2 15 16
M  V30 16 1 16 17
M  V30 17 2 17 18
M  V30 18 1 3 19
M  V30 19 2 19 20
M  V30 20 1 20 21
M  V30 21 2 21 22
M  V30 22 1 22 23
M  V30 23 2 23 24
M  V30 24 1 6 2
M  V30 25 1 18 7
M  V30 26 1 24 19
M  V30 27 1 16 9
M  V30 28 1 1 25
M  V30 29 1 1 26
M  V30 30 1 1 27
M  V30 31 1 2 28
M  V30 32 1 3 29
M  V30 33 1 4 30
M  V30 34 1 4 31
M  V30 35 1 5 32
M  V30 36 1 5 33
M  V30 37 1 8 34
M  V30 38 1 11 35
M  V30 39 1 11 36
M  V30 40 1 14 37
M  V30 41 1 14 38
M  V30 42 1 17 39
M  V30 43 1 18 40
M  V30 44 1 20 41
M  V30 45 1 21 42
M  V30 46 1 22 43
M  V30 47 1 23 44
M  V30 48 1 24 45
M  V30 END BOND
M  V30 END CTAB
M  END
