
     RDKit          3D

  0  0  0  0  0  0  0  0  0  0999 V3000
M  V30 BEGIN CTAB
M  V30 COUNTS 29 30 0 0 0
M  V30 BEGIN ATOM
M  V30 1 N 3.42982 0.932877 -0.314996 0
M  V30 2 C 2.73872 -0.0202112 0.491589 0
M  V30 3 C 1.32022 -0.274619 0.0281985 0
M  V30 4 N 1.33218 -0.773519 -1.30854 0
M  V30 5 C 0.756516 -1.33308 0.980265 0
M  V30 6 C -0.67227 -1.63853 0.692909 0
M  V30 7 C -1.49445 -0.462822 0.34321 0
M  V30 8 C -0.93612 0.759469 0.113643 0
M  V30 9 C 0.512024 0.969816 0.202897 0
M  V30 10 C -1.74736 1.8214 -0.208939 0
M  V30 11 C -3.12046 1.68423 -0.307637 0
M  V30 12 C -3.66022 0.454064 -0.0744796 0
M  V30 13 C -2.85432 -0.611532 0.248437 0
M  V30 14 H 2.83934 1.55676 -0.872318 0
M  V30 15 H 4.28955 0.590322 -0.767474 0
M  V30 16 H 3.2767 -0.973015 0.529614 0
M  V30 17 H 2.65304 0.421071 1.52725 0
M  V30 18 H 0.506746 -1.37158 -1.53953 0
M  V30 19 H 2.20924 -1.364 -1.41034 0
M  V30 20 H 1.34301 -2.26539 0.867844 0
M  V30 21 H 0.810918 -0.931459 2.02504 0
M  V30 22 H -0.822567 -2.3924 -0.103632 0
M  V30 23 H -1.10987 -2.0717 1.64024 0
M  V30 24 H 0.825985 1.76974 -0.504562 0
M  V30 25 H 0.72458 1.37827 1.21834 0
M  V30 26 H -1.32862 2.81175 -0.398168 0
M  V30 27 H -3.72294 2.54582 -0.56406 0
M  V30 28 H -4.7494 0.358091 -0.155751 0
M  V30 29 H -3.35 -1.56983 0.422947 0
M  V30 END ATOM
M  V30 BEGIN BOND
M  V30 1 1 1 2
M  V30 2 1 2 3
M  V30 3 1 3 4
M  V30 4 1 3 5
M  V30 5 1 5 6
M  V30 6 1 6 7
M  V30 7 2 7 8
M  V30 8 1 8 9
M  V30 9 1 8 10
M  V30 10 2 10 11
M  V30 11 1 11 12
M  V30 12 2 12 13
M  V30 13 1 9 3
M  V30 14 1 13 7
M  V30 15 1 1 14
M  V30 16 1 1 15
M  V30 17 1 2 16
M  V30 18 1 2 17
M  V30 19 1 4 18
M  V30 20 1 4 19
M  V30 21 1 5 20
M  V30 22 1 5 21
M  V30 23 1 6 22
M  V30 24 1 6 23
M  V30 25 1 9 24
M  V30 26 1 9 25
M  V30 27 1 10 26
M  V30 28 1 11 27
M  V30 29 1 12 28
M  V30 30 1 13 29
M  V30 END BOND
M  V30 END CTAB
M  END
