
     RDKit          3D

  0  0  0  0  0  0  0  0  0  0999 V3000
M  V30 BEGIN CTAB
M  V30 COUNTS 53 56 0 0 0
M  V30 BEGIN ATOM
M  V30 1 C -7.05678 -1.70162 0.358563 0
M  V30 2 C -6.13204 -1.99197 1.50828 0
M  V30 3 O -4.85733 -1.46336 1.21037 0
M  V30 4 C -4.67044 -0.120529 0.977355 0
M  V30 5 O -5.71543 0.609751 1.0466 0
M  V30 6 C -3.36956 0.434857 0.672009 0
M  V30 7 C -3.05349 1.77015 0.418795 0
M  V30 8 N -4.03413 2.79681 0.431229 0
M  V30 9 O -1.78549 1.82239 0.196111 0
M  V30 10 C -1.22884 0.643686 0.27796 0
M  V30 11 C -2.18483 -0.286491 0.57896 0
M  V30 12 C -1.85318 -1.61055 0.720466 0
M  V30 13 C -0.549206 -2.02592 0.561167 0
M  V30 14 O -0.00639335 -3.21627 0.646411 0
M  V30 15 C 1.26108 -3.16113 0.422418 0
M  V30 16 C 1.60604 -1.79882 0.160344 0
M  V30 17 C 0.438532 -1.07322 0.251397 0
M  V30 18 C 0.114664 0.242022 0.110323 0
M  V30 19 C 1.01703 1.3183 -0.196797 0
M  V30 20 C 1.23858 1.77951 -1.47688 0
M  V30 21 C 2.01217 2.90395 -1.72359 0
M  V30 22 C 2.58246 3.5903 -0.668045 0
M  V30 23 C 2.37248 3.14483 0.618145 0
M  V30 24 C 1.60335 2.02719 0.861045 0
M  V30 25 C 3.41979 4.80861 -0.948515 0
M  V30 26 C 2.94147 -1.37847 -0.13326 0
M  V30 27 O 3.42895 -0.303957 -0.380137 0
M  V30 28 O 3.96969 -2.39704 -0.155108 0
M  V30 29 C 5.31114 -2.02324 -0.442421 0
M  V30 30 C 5.45396 -1.39668 -1.79092 0
M  V30 31 N 2.21423 -4.22031 0.418388 0
M  V30 32 H -7.6227 -2.61539 0.04048 0
M  V30 33 H -6.49298 -1.3719 -0.561984 0
M  V30 34 H -7.8208 -0.946402 0.597944 0
M  V30 35 H -6.47185 -1.52275 2.45528 0
M  V30 36 H -6.05775 -3.09776 1.59486 0
M  V30 37 H -3.95184 3.65327 1.0471 0
M  V30 38 H -4.89333 2.7386 -0.184653 0
M  V30 39 H -2.61466 -2.36429 0.962744 0
M  V30 40 H 0.794385 1.24451 -2.30389 0
M  V30 41 H 2.17428 3.25178 -2.74036 0
M  V30 42 H 2.82883 3.69845 1.42402 0
M  V30 43 H 1.42864 1.66417 1.8664 0
M  V30 44 H 2.92319 5.45526 -1.70164 0
M  V30 45 H 4.40382 4.50131 -1.36321 0
M  V30 46 H 3.56909 5.37978 -0.021368 0
M  V30 47 H 5.73272 -1.38303 0.369703 0
M  V30 48 H 5.87374 -2.96861 -0.424945 0
M  V30 49 H 5.45104 -0.292249 -1.77782 0
M  V30 50 H 4.67333 -1.79792 -2.47036 0
M  V30 51 H 6.45057 -1.71938 -2.20571 0
M  V30 52 H 2.46667 -4.67415 1.32606 0
M  V30 53 H 2.66713 -4.55608 -0.459301 0
M  V30 END ATOM
M  V30 BEGIN BOND
M  V30 1 1 1 2
M  V30 2 1 2 3
M  V30 3 1 3 4
M  V30 4 2 4 5
M  V30 5 1 4 6
M  V30 6 2 6 7
M  V30 7 1 7 8
M  V30 8 1 7 9
M  V30 9 1 9 10
M  V30 10 2 10 11
M  V30 11 1 11 12
M  V30 12 2 12 13
M  V30 13 1 13 14
M  V30 14 1 14 15
M  V30 15 2 15 16
M  V30 16 1 16 17
M  V30 17 2 17 18
M  V30 18 1 18 19
M  V30 19 2 19 20
M  V30 20 1 20 21
M  V30 21 2 21 22
M  V30 22 1 22 23
M  V30 23 2 23 24
M  V30 24 1 22 25
M  V30 25 1 16 26
M  V30 26 2 26 27
M  V30 27 1 26 28
M  V30 28 1 28 29
M  V30 29 1 29 30
M  V30 30 1 15 31
M  V30 31 1 11 6
M  V30 32 1 17 13
M  V30 33 1 24 19
M  V30 34 1 18 10
M  V30 35 1 1 32
M  V30 36 1 1 33
M  V30 37 1 1 34
M  V30 38 1 2 35
M  V30 39 1 2 36
M  V30 40 1 8 37
M  V30 41 1 8 38
M  V30 42 1 12 39
M  V30 43 1 20 40
M  V30 44 1 21 41
M  V30 45 1 23 42
M  V30 46 1 24 43
M  V30 47 1 25 44
M  V30 48 1 25 45
M  V30 49 1 25 46
M  V30 50 1 29 47
M  V30 51 1 29 48
M  V30 52 1 30 49
M  V30 53 1 30 50
M  V30 54 1 30 51
M  V30 55 1 31 52
M  V30 56 1 31 53
M  V30 END BOND
M  V30 END CTAB
M  END
