
     RDKit          3D

  0  0  0  0  0  0  0  0  0  0999 V3000
M  V30 BEGIN CTAB
M  V30 COUNTS 42 43 0 0 0
M  V30 BEGIN ATOM
M  V30 1 N -1.85127 2.8014 0.938755 0
M  V30 2 C -1.45858 2.57843 -0.413074 0
M  V30 3 C -1.04214 1.16445 -0.723465 0
M  V30 4 C -2.13103 0.159312 -0.474541 0
M  V30 5 C -2.63263 0.0952972 0.926118 0
M  V30 6 C -3.20882 -1.3008 1.13016 0
M  V30 7 C -3.73343 -1.85606 -0.176368 0
M  V30 8 C -4.33405 -0.733058 -0.991586 0
M  V30 9 C -3.29463 0.283302 -1.42316 0
M  V30 10 N 0.139748 0.757148 -0.0345288 0
M  V30 11 C 1.31729 0.401787 -0.733874 0
M  V30 12 O 1.28101 0.459463 -1.99582 0
M  V30 13 C 2.53765 -0.0177467 -0.050768 0
M  V30 14 C 2.7425 -0.132678 1.28724 0
M  V30 15 C 4.05622 -0.564424 1.47614 0
M  V30 16 C 4.56238 -0.68157 0.19661 0
M  V30 17 O 3.6409 -0.352851 -0.647333 0
M  V30 18 S 6.18079 -1.19005 -0.21384 0
M  V30 19 O 6.90832 -0.116685 -0.984855 0
M  V30 20 O 6.13088 -2.40003 -1.13461 0
M  V30 21 N 7.11675 -1.54335 1.17895 0
M  V30 22 H -2.408 3.68704 0.977607 0
M  V30 23 H -1.08279 2.90292 1.615 0
M  V30 24 H -0.616515 3.24732 -0.661402 0
M  V30 25 H -2.34346 2.79596 -1.06915 0
M  V30 26 H -0.831877 1.13592 -1.81372 0
M  V30 27 H -1.66666 -0.84785 -0.696803 0
M  V30 28 H -1.85165 0.240325 1.67012 0
M  V30 29 H -3.46704 0.792133 1.13874 0
M  V30 30 H -4.05816 -1.26478 1.84256 0
M  V30 31 H -2.44101 -1.96747 1.54988 0
M  V30 32 H -4.55444 -2.5523 0.0661316 0
M  V30 33 H -2.96659 -2.42015 -0.711248 0
M  V30 34 H -5.0935 -0.236391 -0.374518 0
M  V30 35 H -4.86427 -1.15376 -1.88127 0
M  V30 36 H -2.99755 0.0896993 -2.47789 0
M  V30 37 H -3.72355 1.3123 -1.39685 0
M  V30 38 H 0.190062 0.702178 1.02862 0
M  V30 39 H 2.02866 0.0699553 2.06326 0
M  V30 40 H 4.55714 -0.760484 2.4123 0
M  V30 41 H 7.26418 -2.57612 1.28678 0
M  V30 42 H 7.99917 -1.00772 1.22885 0
M  V30 END ATOM
M  V30 BEGIN BOND
M  V30 1 1 1 2
M  V30 2 1 2 3
M  V30 3 1 3 4
M  V30 4 1 4 5
M  V30 5 1 5 6
M  V30 6 1 6 7
M  V30 7 1 7 8
M  V30 8 1 8 9
M  V30 9 1 3 10
M  V30 10 1 10 11
M  V30 11 2 11 12
M  V30 12 1 11 13
M  V30 13 2 13 14
M  V30 14 1 14 15
M  V30 15 2 15 16
M  V30 16 1 16 17
M  V30 17 1 16 18
M  V30 18 2 18 19
M  V30 19 2 18 20
M  V30 20 1 18 21
M  V30 21 1 9 4
M  V30 22 1 17 13
M  V30 23 1 1 22
M  V30 24 1 1 23
M  V30 25 1 2 24
M  V30 26 1 2 25
M  V30 27 1 3 26
M  V30 28 1 4 27
M  V30 29 1 5 28
M  V30 30 1 5 29
M  V30 31 1 6 30
M  V30 32 1 6 31
M  V30 33 1 7 32
M  V30 34 1 7 33
M  V30 35 1 8 34
M  V30 36 1 8 35
M  V30 37 1 9 36
M  V30 38 1 9 37
M  V30 39 1 10 38
M  V30 40 1 14 39
M  V30 41 1 15 40
M  V30 42 1 21 41
M  V30 43 1 21 42
M  V30 END BOND
M  V30 END CTAB
M  END
