
     RDKit          3D

  0  0  0  0  0  0  0  0  0  0999 V3000
M  V30 BEGIN CTAB
M  V30 COUNTS 20 20 0 0 0
M  V30 BEGIN ATOM
M  V30 1 N 2.60578 0.649081 -0.656819 0
M  V30 2 C 1.42217 -0.12972 -0.895713 0
M  V30 3 C 0.35359 0.193515 0.124961 0 CFG=1
M  V30 4 C -0.902972 -0.590766 -0.0774893 0
M  V30 5 C -1.93057 -0.224142 0.971975 0
M  V30 6 O -2.90813 -0.447851 -0.01357 0
M  V30 7 C -1.96002 0.0556615 -0.935074 0
M  V30 8 N 0.867678 -0.111474 1.44768 0
M  V30 9 H 2.409 1.65359 -0.673462 0
M  V30 10 H 3.13695 0.367417 0.178008 0
M  V30 11 H 1.08404 0.0376084 -1.92867 0
M  V30 12 H 1.68958 -1.20415 -0.753999 0
M  V30 13 H 0.180432 1.28715 0.0627641 0
M  V30 14 H -0.805936 -1.64752 -0.305252 0
M  V30 15 H -1.98158 -0.87257 1.84499 0
M  V30 16 H -1.8634 0.862369 1.17834 0
M  V30 17 H -2.14024 -0.425611 -1.92119 0
M  V30 18 H -1.9941 1.14463 -0.914944 0
M  V30 19 H 1.08256 -1.11491 1.56289 0
M  V30 20 H 1.65516 0.517688 1.70458 0
M  V30 END ATOM
M  V30 BEGIN BOND
M  V30 1 1 1 2
M  V30 2 1 2 3
M  V30 3 1 3 4
M  V30 4 1 4 5
M  V30 5 1 5 6
M  V30 6 1 6 7
M  V30 7 1 3 8
M  V30 8 1 7 4
M  V30 9 1 1 9
M  V30 10 1 1 10
M  V30 11 1 2 11
M  V30 12 1 2 12
M  V30 13 1 3 13 CFG=1
M  V30 14 1 4 14
M  V30 15 1 5 15
M  V30 16 1 5 16
M  V30 17 1 7 17
M  V30 18 1 7 18
M  V30 19 1 8 19
M  V30 20 1 8 20
M  V30 END BOND
M  V30 END CTAB
M  END
