
     RDKit          3D

  0  0  0  0  0  0  0  0  0  0999 V3000
M  V30 BEGIN CTAB
M  V30 COUNTS 54 55 0 0 0
M  V30 BEGIN ATOM
M  V30 1 O -1.96789 -1.90492 0.403638 0
M  V30 2 C -2.28533 -0.706543 0.500112 0
M  V30 3 C -3.74127 -0.384649 0.512628 0
M  V30 4 C -4.11308 0.343435 1.78452 0
M  V30 5 C -5.57091 0.733625 1.70604 0
M  V30 6 C -6.30761 0.0372454 0.599729 0
M  V30 7 C -5.70505 0.248207 -0.759023 0
M  V30 8 C -4.19762 0.362281 -0.708986 0
M  V30 9 C -3.64248 -0.303241 -1.94278 0
M  V30 10 N -3.84343 1.74592 -0.734076 0
M  V30 11 N -1.30228 0.286415 0.592024 0
M  V30 12 C 0.111648 0.176495 0.583945 0
M  V30 13 C 0.789396 -0.345117 -0.630902 0
M  V30 14 C 2.26079 -0.330023 -0.340448 0
M  V30 15 C 2.85149 -1.36592 0.345071 0
M  V30 16 C 4.2107 -1.34339 0.607705 0
M  V30 17 C 5.02401 -0.304461 0.204611 0
M  V30 18 C 4.40874 0.721592 -0.480402 0
M  V30 19 C 3.05504 0.716897 -0.751703 0
M  V30 20 C 6.49048 -0.273966 0.484489 0
M  V30 21 C 7.24126 -0.335566 -0.831331 0
M  V30 22 C 6.87166 0.938398 1.29535 0
M  V30 23 N 0.404086 -1.61829 -1.12193 0
M  V30 24 H -4.35277 -1.32789 0.53461 0
M  V30 25 H -3.53229 1.25069 1.9551 0
M  V30 26 H -3.90413 -0.352355 2.62424 0
M  V30 27 H -5.72836 1.82265 1.63244 0
M  V30 28 H -6.03554 0.413943 2.66192 0
M  V30 29 H -7.34378 0.423224 0.599769 0
M  V30 30 H -6.35887 -1.04239 0.853226 0
M  V30 31 H -6.16956 1.15621 -1.20458 0
M  V30 32 H -6.00387 -0.642564 -1.38226 0
M  V30 33 H -2.54744 -0.331941 -1.97792 0
M  V30 34 H -4.11732 -1.30419 -2.1219 0
M  V30 35 H -3.96208 0.340073 -2.81207 0
M  V30 36 H -2.99259 1.95085 -1.30327 0
M  V30 37 H -3.87518 2.23477 0.165348 0
M  V30 38 H -1.73048 1.29123 0.68421 0
M  V30 39 H 0.617351 1.15427 0.828788 0
M  V30 40 H 0.377141 -0.453287 1.49467 0
M  V30 41 H 0.677081 0.367183 -1.50893 0
M  V30 42 H 2.28376 -2.23292 0.706052 0
M  V30 43 H 4.6997 -2.16201 1.15388 0
M  V30 44 H 5.04737 1.55588 -0.806975 0
M  V30 45 H 2.60737 1.54678 -1.29563 0
M  V30 46 H 6.73411 -1.19698 1.03773 0
M  V30 47 H 8.20558 -0.86714 -0.670323 0
M  V30 48 H 7.3766 0.679792 -1.25596 0
M  V30 49 H 6.60651 -0.918547 -1.53376 0
M  V30 50 H 7.36918 0.618141 2.23632 0
M  V30 51 H 7.60552 1.56203 0.737965 0
M  V30 52 H 5.97129 1.51831 1.58828 0
M  V30 53 H 0.716191 -2.41408 -0.554907 0
M  V30 54 H 0.717155 -1.73418 -2.10061 0
M  V30 END ATOM
M  V30 BEGIN BOND
M  V30 1 2 1 2
M  V30 2 1 2 3
M  V30 3 1 3 4
M  V30 4 1 4 5
M  V30 5 1 5 6
M  V30 6 1 6 7
M  V30 7 1 7 8
M  V30 8 1 8 9
M  V30 9 1 8 10
M  V30 10 1 2 11
M  V30 11 1 11 12
M  V30 12 1 12 13
M  V30 13 1 13 14
M  V30 14 2 14 15
M  V30 15 1 15 16
M  V30 16 2 16 17
M  V30 17 1 17 18
M  V30 18 2 18 19
M  V30 19 1 17 20
M  V30 20 1 20 21
M  V30 21 1 20 22
M  V30 22 1 13 23
M  V30 23 1 8 3
M  V30 24 1 19 14
M  V30 25 1 3 24
M  V30 26 1 4 25
M  V30 27 1 4 26
M  V30 28 1 5 27
M  V30 29 1 5 28
M  V30 30 1 6 29
M  V30 31 1 6 30
M  V30 32 1 7 31
M  V30 33 1 7 32
M  V30 34 1 9 33
M  V30 35 1 9 34
M  V30 36 1 9 35
M  V30 37 1 10 36
M  V30 38 1 10 37
M  V30 39 1 11 38
M  V30 40 1 12 39
M  V30 41 1 12 40
M  V30 42 1 13 41
M  V30 43 1 15 42
M  V30 44 1 16 43
M  V30 45 1 18 44
M  V30 46 1 19 45
M  V30 47 1 20 46
M  V30 48 1 21 47
M  V30 49 1 21 48
M  V30 50 1 21 49
M  V30 51 1 22 50
M  V30 52 1 22 51
M  V30 53 1 22 52
M  V30 54 1 23 53
M  V30 55 1 23 54
M  V30 END BOND
M  V30 END CTAB
M  END
