
     RDKit          3D

  0  0  0  0  0  0  0  0  0  0999 V3000
M  V30 BEGIN CTAB
M  V30 COUNTS 81 81 0 0 0
M  V30 BEGIN ATOM
M  V30 1 C 10.352 3.55292 0.672067 0
M  V30 2 C 9.19652 2.72762 1.19693 0
M  V30 3 C 8.9633 1.61177 0.200746 0
M  V30 4 C 7.80816 0.71538 0.641944 0
M  V30 5 C 7.67073 -0.352747 -0.421609 0
M  V30 6 C 6.56927 -1.32029 -0.132177 0
M  V30 7 C 5.20512 -0.648292 -0.0334323 0
M  V30 8 C 4.80384 0.0478152 -1.25898 0
M  V30 9 C 3.55527 0.825442 -1.23784 0
M  V30 10 C 2.24728 0.247692 -0.92225 0
M  V30 11 C 2.01012 -0.249459 0.447745 0
M  V30 12 C 0.613916 -0.818308 0.646151 0
M  V30 13 C 0.305734 -1.98477 -0.181243 0
M  V30 14 O 1.25102 -2.56765 -0.794722 0
M  V30 15 N -0.980547 -2.52191 -0.350013 0
M  V30 16 C -1.19535 -3.68024 -1.17766 0
M  V30 17 C -1.7098 -4.85262 -0.350798 0
M  V30 18 C -2.21571 -4.30701 0.975321 0
M  V30 19 C -3.10522 -3.10639 0.579485 0
M  V30 20 C -2.18777 -1.95347 0.29898 0
M  V30 21 C -2.78048 -0.903884 -0.534765 0
M  V30 22 N -3.91434 -0.228669 -0.0317496 0
M  V30 23 C -5.22051 -0.568829 0.25394 0
M  V30 24 O -5.75445 -1.67604 0.0966412 0
M  V30 25 C -6.20302 0.464685 0.834101 0
M  V30 26 N -5.44858 1.67147 0.950886 0
M  V30 27 C -7.33497 0.486467 -0.128247 0
M  V30 28 C -8.47456 1.38263 0.164003 0
M  V30 29 C -8.19995 2.83879 0.270805 0
M  V30 30 C -9.53729 3.53301 0.543281 0
M  V30 31 N -10.489 3.30927 -0.499037 0
M  V30 32 H 11.3303 3.07897 0.977147 0
M  V30 33 H 10.2698 4.5817 1.05116 0
M  V30 34 H 10.3322 3.50494 -0.451724 0
M  V30 35 H 9.49127 2.25063 2.15303 0
M  V30 36 H 8.31019 3.36599 1.30824 0
M  V30 37 H 9.86296 1.00093 0.104338 0
M  V30 38 H 8.69496 2.03133 -0.790986 0
M  V30 39 H 8.13786 0.248903 1.59292 0
M  V30 40 H 6.8904 1.26932 0.834283 0
M  V30 41 H 7.61119 0.0794026 -1.44077 0
M  V30 42 H 8.62256 -0.933152 -0.39939 0
M  V30 43 H 6.76397 -1.78065 0.857542 0
M  V30 44 H 6.57321 -2.11249 -0.883344 0
M  V30 45 H 5.07511 -0.103834 0.897789 0
M  V30 46 H 4.52877 -1.57414 0.0302455 0
M  V30 47 H 5.60422 0.737474 -1.6612 0
M  V30 48 H 4.68331 -0.701935 -2.12452 0
M  V30 49 H 3.4497 1.33511 -2.27113 0
M  V30 50 H 3.72468 1.76394 -0.582204 0
M  V30 51 H 1.49167 1.11147 -1.0558 0
M  V30 52 H 1.92798 -0.489919 -1.71066 0
M  V30 53 H 2.7037 -0.940443 0.883623 0
M  V30 54 H 2.00702 0.677603 1.1165 0
M  V30 55 H -0.128998 -0.0311087 0.536263 0
M  V30 56 H 0.576394 -1.13312 1.7234 0
M  V30 57 H -1.93453 -3.48435 -1.98186 0
M  V30 58 H -0.225416 -3.98435 -1.60623 0
M  V30 59 H -0.870667 -5.50807 -0.125904 0
M  V30 60 H -2.56646 -5.33837 -0.850944 0
M  V30 61 H -1.41862 -3.91288 1.60405 0
M  V30 62 H -2.88546 -5.0488 1.43428 0
M  V30 63 H -3.6459 -3.36975 -0.342881 0
M  V30 64 H -3.73012 -2.91948 1.46876 0
M  V30 65 H -1.81463 -1.52285 1.24839 0
M  V30 66 H -2.01621 -0.163806 -0.917313 0
M  V30 67 H -3.14062 -1.39438 -1.5106 0
M  V30 68 H -3.67796 0.846342 0.187287 0
M  V30 69 H -6.45802 0.106659 1.8462 0
M  V30 70 H -5.56996 2.33518 0.171224 0
M  V30 71 H -5.53755 2.08758 1.8714 0
M  V30 72 H -7.74977 -0.568022 -0.160429 0
M  V30 73 H -6.91281 0.625929 -1.15089 0
M  V30 74 H -9.22338 1.23999 -0.675757 0
M  V30 75 H -9.03858 1.03853 1.06338 0
M  V30 76 H -7.59298 3.04642 1.18137 0
M  V30 77 H -7.7991 3.27259 -0.650534 0
M  V30 78 H -9.96919 3.24755 1.50678 0
M  V30 79 H -9.35416 4.64287 0.59147 0
M  V30 80 H -11.0815 2.48708 -0.261821 0
M  V30 81 H -10.1215 3.32709 -1.45446 0
M  V30 END ATOM
M  V30 BEGIN BOND
M  V30 1 1 1 2
M  V30 2 1 2 3
M  V30 3 1 3 4
M  V30 4 1 4 5
M  V30 5 1 5 6
M  V30 6 1 6 7
M  V30 7 1 7 8
M  V30 8 1 8 9
M  V30 9 1 9 10
M  V30 10 1 10 11
M  V30 11 1 11 12
M  V30 12 1 12 13
M  V30 13 2 13 14
M  V30 14 1 13 15
M  V30 15 1 15 16
M  V30 16 1 16 17
M  V30 17 1 17 18
M  V30 18 1 18 19
M  V30 19 1 19 20
M  V30 20 1 20 21
M  V30 21 1 21 22
M  V30 22 1 22 23
M  V30 23 2 23 24
M  V30 24 1 23 25
M  V30 25 1 25 26
M  V30 26 1 25 27
M  V30 27 1 27 28
M  V30 28 1 28 29
M  V30 29 1 29 30
M  V30 30 1 30 31
M  V30 31 1 20 15
M  V30 32 1 1 32
M  V30 33 1 1 33
M  V30 34 1 1 34
M  V30 35 1 2 35
M  V30 36 1 2 36
M  V30 37 1 3 37
M  V30 38 1 3 38
M  V30 39 1 4 39
M  V30 40 1 4 40
M  V30 41 1 5 41
M  V30 42 1 5 42
M  V30 43 1 6 43
M  V30 44 1 6 44
M  V30 45 1 7 45
M  V30 46 1 7 46
M  V30 47 1 8 47
M  V30 48 1 8 48
M  V30 49 1 9 49
M  V30 50 1 9 50
M  V30 51 1 10 51
M  V30 52 1 10 52
M  V30 53 1 11 53
M  V30 54 1 11 54
M  V30 55 1 12 55
M  V30 56 1 12 56
M  V30 57 1 16 57
M  V30 58 1 16 58
M  V30 59 1 17 59
M  V30 60 1 17 60
M  V30 61 1 18 61
M  V30 62 1 18 62
M  V30 63 1 19 63
M  V30 64 1 19 64
M  V30 65 1 20 65
M  V30 66 1 21 66
M  V30 67 1 21 67
M  V30 68 1 22 68
M  V30 69 1 25 69
M  V30 70 1 26 70
M  V30 71 1 26 71
M  V30 72 1 27 72
M  V30 73 1 27 73
M  V30 74 1 28 74
M  V30 75 1 28 75
M  V30 76 1 29 76
M  V30 77 1 29 77
M  V30 78 1 30 78
M  V30 79 1 30 79
M  V30 80 1 31 80
M  V30 81 1 31 81
M  V30 END BOND
M  V30 END CTAB
M  END
