
     RDKit          3D

  0  0  0  0  0  0  0  0  0  0999 V3000
M  V30 BEGIN CTAB
M  V30 COUNTS 64 67 0 0 0
M  V30 BEGIN ATOM
M  V30 1 O 9.16452 -0.795982 2.01552 0
M  V30 2 C 8.0111 -0.3199 1.40551 0
M  V30 3 C 7.6075 -0.777749 0.171755 0
M  V30 4 C 6.44657 -0.299442 -0.443611 0
M  V30 5 C 5.66312 0.651458 0.168016 0
M  V30 6 C 6.09079 1.10387 1.42153 0
M  V30 7 C 7.22541 0.632548 2.01638 0
M  V30 8 C 4.44041 1.16889 -0.441739 0
M  V30 9 C 3.18336 0.400106 -0.0221216 0 CFG=1
M  V30 10 C 2.06813 1.05061 -0.718353 0
M  V30 11 O 2.00493 2.32939 -0.44244 0
M  V30 12 N 1.11596 0.508719 -1.58975 0
M  V30 13 C 0.0492806 1.41321 -2.14085 0
M  V30 14 C -1.16433 0.52285 -2.30142 0
M  V30 15 C -1.27851 -0.389141 -1.09461 0
M  V30 16 C -0.215908 -1.4814 -1.33982 0
M  V30 17 C 0.976219 -0.835242 -2.07669 0
M  V30 18 O -0.844769 0.312117 -0.00540572 0
M  V30 19 C -1.141 -0.319993 1.20879 0
M  V30 20 C -2.63422 0.00734891 1.38333 0 CFG=2
M  V30 21 C -3.34397 -0.791634 0.339475 0 CFG=2
M  V30 22 C -2.6601 -0.975659 -0.960808 0
M  V30 23 N -4.77551 -0.537422 0.284989 0
M  V30 24 C -5.66852 -1.3045 0.972594 0
M  V30 25 C -7.02728 -1.10228 0.95242 0
M  V30 26 C -7.54484 -0.0647405 0.196762 0
M  V30 27 N -6.66305 0.68444 -0.475733 0
M  V30 28 C -5.34785 0.449356 -0.425554 0
M  V30 29 O -4.62347 1.21664 -1.09607 0
M  V30 30 N -8.95544 0.184504 0.145063 0
M  V30 31 C -2.75992 1.47557 1.34937 0
M  V30 32 O -3.01391 -0.41705 2.67513 0
M  V30 33 N 3.32693 -0.996939 -0.157896 0
M  V30 34 H 10.0351 -0.323247 1.83691 0
M  V30 35 H 8.22737 -1.53483 -0.31936 0
M  V30 36 H 6.16719 -0.674665 -1.40565 0
M  V30 37 H 5.45055 1.85774 1.88282 0
M  V30 38 H 7.51814 1.01362 2.99089 0
M  V30 39 H 4.23729 2.23346 -0.131528 0
M  V30 40 H 4.45027 1.17351 -1.54249 0
M  V30 41 H 3.08852 0.636556 1.08225 0
M  V30 42 H -0.153879 2.17558 -1.36166 0
M  V30 43 H 0.388265 1.86388 -3.07255 0
M  V30 44 H -1.14809 -0.0303096 -3.26022 0
M  V30 45 H -2.02805 1.21442 -2.37875 0
M  V30 46 H 0.185596 -1.8307 -0.385546 0
M  V30 47 H -0.604258 -2.3028 -1.93889 0
M  V30 48 H 1.85612 -1.45717 -2.02898 0
M  V30 49 H 0.717089 -0.813755 -3.1921 0
M  V30 50 H -0.556642 0.0871906 2.03747 0
M  V30 51 H -1.10122 -1.42414 1.13873 0
M  V30 52 H -3.29493 -1.83565 0.81765 0
M  V30 53 H -3.2339 -0.617671 -1.86182 0
M  V30 54 H -2.53105 -2.07039 -1.24745 0
M  V30 55 H -5.27862 -2.1186 1.56713 0
M  V30 56 H -7.72635 -1.72206 1.50571 0
M  V30 57 H -9.37296 0.732184 0.922253 0
M  V30 58 H -9.56522 -0.149631 -0.616261 0
M  V30 59 H -3.76357 1.87609 1.58486 0
M  V30 60 H -2.11336 1.8568 2.19937 0
M  V30 61 H -2.29497 1.95858 0.450064 0
M  V30 62 H -2.69701 0.281848 3.2937 0
M  V30 63 H 3.48464 -1.44397 0.759174 0
M  V30 64 H 3.94628 -1.31443 -0.905688 0
M  V30 END ATOM
M  V30 BEGIN BOND
M  V30 1 1 1 2
M  V30 2 2 2 3
M  V30 3 1 3 4
M  V30 4 2 4 5
M  V30 5 1 5 6
M  V30 6 2 6 7
M  V30 7 1 5 8
M  V30 8 1 8 9
M  V30 9 1 9 10
M  V30 10 2 10 11
M  V30 11 1 10 12
M  V30 12 1 12 13
M  V30 13 1 13 14
M  V30 14 1 14 15
M  V30 15 1 15 16
M  V30 16 1 16 17
M  V30 17 1 15 18
M  V30 18 1 18 19
M  V30 19 1 19 20
M  V30 20 1 20 21
M  V30 21 1 21 22
M  V30 22 1 21 23
M  V30 23 1 23 24
M  V30 24 2 24 25
M  V30 25 1 25 26
M  V30 26 2 26 27
M  V30 27 1 27 28
M  V30 28 2 28 29
M  V30 29 1 26 30
M  V30 30 1 20 31
M  V30 31 1 20 32 CFG=1
M  V30 32 1 9 33
M  V30 33 1 7 2
M  V30 34 1 17 12
M  V30 35 1 28 23
M  V30 36 1 22 15
M  V30 37 1 1 34
M  V30 38 1 3 35
M  V30 39 1 4 36
M  V30 40 1 6 37
M  V30 41 1 7 38
M  V30 42 1 8 39
M  V30 43 1 8 40
M  V30 44 1 9 41 CFG=1
M  V30 45 1 13 42
M  V30 46 1 13 43
M  V30 47 1 14 44
M  V30 48 1 14 45
M  V30 49 1 16 46
M  V30 50 1 16 47
M  V30 51 1 17 48
M  V30 52 1 17 49
M  V30 53 1 19 50
M  V30 54 1 19 51
M  V30 55 1 21 52 CFG=1
M  V30 56 1 22 53
M  V30 57 1 22 54
M  V30 58 1 24 55
M  V30 59 1 25 56
M  V30 60 1 30 57
M  V30 61 1 30 58
M  V30 62 1 31 59
M  V30 63 1 31 60
M  V30 64 1 31 61
M  V30 65 1 32 62
M  V30 66 1 33 63
M  V30 67 1 33 64
M  V30 END BOND
M  V30 END CTAB
M  END
