
     RDKit          3D

  0  0  0  0  0  0  0  0  0  0999 V3000
M  V30 BEGIN CTAB
M  V30 COUNTS 28 28 0 0 0
M  V30 BEGIN ATOM
M  V30 1 C 2.42201 1.16614 -0.714594 0
M  V30 2 C 2.27292 0.0334265 0.282661 0
M  V30 3 S 0.711915 0.230809 1.1305 0
M  V30 4 C -0.702223 0.00264712 0.089608 0
M  V30 5 N -0.602586 -0.294958 -1.20934 0
M  V30 6 C -1.69994 -0.467497 -1.99779 0
M  V30 7 C -2.95861 -0.342949 -1.49148 0
M  V30 8 C -3.10716 -0.0374862 -0.160671 0
M  V30 9 C -1.96195 0.134655 0.627757 0
M  V30 10 N -2.1491 0.450286 1.99706 0
M  V30 11 N -4.40932 0.0949495 0.383112 0
M  V30 12 C 2.34093 -1.25128 -0.522895 0
M  V30 13 C 3.45931 0.108885 1.21041 0
M  V30 14 H 1.51432 1.1682 -1.34666 0
M  V30 15 H 2.55527 2.11715 -0.147752 0
M  V30 16 H 3.32851 0.97209 -1.35656 0
M  V30 17 H -1.55183 -0.708336 -3.04289 0
M  V30 18 H -3.84601 -0.47719 -2.10831 0
M  V30 19 H -2.49946 -0.204485 2.72176 0
M  V30 20 H -1.91626 1.42047 2.29711 0
M  V30 21 H -5.14664 0.702408 0.017082 0
M  V30 22 H -4.62656 -0.478714 1.22599 0
M  V30 23 H 1.93106 -1.05753 -1.5399 0
M  V30 24 H 3.41914 -1.48354 -0.663488 0
M  V30 25 H 1.86454 -2.09552 -0.00815031 0
M  V30 26 H 4.23925 -0.604966 0.851345 0
M  V30 27 H 3.18243 -0.198286 2.23693 0
M  V30 28 H 3.93605 1.10061 1.23917 0
M  V30 END ATOM
M  V30 BEGIN BOND
M  V30 1 1 1 2
M  V30 2 1 2 3
M  V30 3 1 3 4
M  V30 4 2 4 5
M  V30 5 1 5 6
M  V30 6 2 6 7
M  V30 7 1 7 8
M  V30 8 2 8 9
M  V30 9 1 9 10
M  V30 10 1 8 11
M  V30 11 1 2 12
M  V30 12 1 2 13
M  V30 13 1 9 4
M  V30 14 1 1 14
M  V30 15 1 1 15
M  V30 16 1 1 16
M  V30 17 1 6 17
M  V30 18 1 7 18
M  V30 19 1 10 19
M  V30 20 1 10 20
M  V30 21 1 11 21
M  V30 22 1 11 22
M  V30 23 1 12 23
M  V30 24 1 12 24
M  V30 25 1 12 25
M  V30 26 1 13 26
M  V30 27 1 13 27
M  V30 28 1 13 28
M  V30 END BOND
M  V30 END CTAB
M  END
