
     RDKit          3D

  0  0  0  0  0  0  0  0  0  0999 V3000
M  V30 BEGIN CTAB
M  V30 COUNTS 26 27 0 0 0
M  V30 BEGIN ATOM
M  V30 1 N 3.91763 -0.0553596 0.553942 0
M  V30 2 C 2.55603 0.203307 0.278962 0
M  V30 3 C 2.10895 1.39907 -0.245656 0
M  V30 4 C 0.76142 1.56524 -0.4827 0
M  V30 5 C -0.171181 0.584268 -0.218243 0
M  V30 6 C 0.327077 -0.597342 0.307373 0
M  V30 7 C 1.65804 -0.797306 0.555516 0
M  V30 8 C -0.67985 -1.66075 0.59454 0
M  V30 9 C -1.62418 -1.68327 -0.584105 0
M  V30 10 C -2.41287 -0.400778 -0.668228 0
M  V30 11 C -1.58893 0.827726 -0.494466 0
M  V30 12 N -2.21528 1.65963 0.515485 0
M  V30 13 H 4.49464 -0.526794 -0.161627 0
M  V30 14 H 4.33389 0.218977 1.45073 0
M  V30 15 H 2.85932 2.15338 -0.444774 0
M  V30 16 H 0.447931 2.51503 -0.894089 0
M  V30 17 H 1.96799 -1.74323 0.964947 0
M  V30 18 H -0.188885 -2.62114 0.72824 0
M  V30 19 H -1.27603 -1.31968 1.47219 0
M  V30 20 H -2.33077 -2.52275 -0.430234 0
M  V30 21 H -1.00963 -1.87199 -1.48569 0
M  V30 22 H -2.95646 -0.413874 -1.63596 0
M  V30 23 H -3.21898 -0.481401 0.117364 0
M  V30 24 H -1.63944 1.40866 -1.46103 0
M  V30 25 H -2.27986 2.64267 0.20614 0
M  V30 26 H -1.84058 1.5177 1.46138 0
M  V30 END ATOM
M  V30 BEGIN BOND
M  V30 1 1 1 2
M  V30 2 2 2 3
M  V30 3 1 3 4
M  V30 4 2 4 5
M  V30 5 1 5 6
M  V30 6 2 6 7
M  V30 7 1 6 8
M  V30 8 1 8 9
M  V30 9 1 9 10
M  V30 10 1 10 11
M  V30 11 1 11 12
M  V30 12 1 7 2
M  V30 13 1 11 5
M  V30 14 1 1 13
M  V30 15 1 1 14
M  V30 16 1 3 15
M  V30 17 1 4 16
M  V30 18 1 7 17
M  V30 19 1 8 18
M  V30 20 1 8 19
M  V30 21 1 9 20
M  V30 22 1 9 21
M  V30 23 1 10 22
M  V30 24 1 10 23
M  V30 25 1 11 24
M  V30 26 1 12 25
M  V30 27 1 12 26
M  V30 END BOND
M  V30 END CTAB
M  END
