
     RDKit          3D

  0  0  0  0  0  0  0  0  0  0999 V3000
M  V30 BEGIN CTAB
M  V30 COUNTS 59 62 0 0 0
M  V30 BEGIN ATOM
M  V30 1 C 10.1711 2.31278 1.14689 0
M  V30 2 O 9.47218 1.52237 0.211361 0
M  V30 3 C 8.13442 1.26938 0.398938 0
M  V30 4 C 7.50649 1.8014 1.508 0
M  V30 5 C 6.16983 1.57686 1.74011 0
M  V30 6 C 5.40059 0.805872 0.86714 0
M  V30 7 C 6.05064 0.29602 -0.216933 0
M  V30 8 C 7.39446 0.510404 -0.468379 0
M  V30 9 O 8.03294 -0.0183408 -1.57731 0
M  V30 10 C 7.2724 -0.807332 -2.48334 0
M  V30 11 C 3.99711 0.614901 1.18531 0
M  V30 12 N 3.37427 1.14767 2.28798 0
M  V30 13 N 2.11591 0.789666 2.29101 0
M  V30 14 C 1.84655 0.0271431 1.22767 0
M  V30 15 N 3.03672 -0.0603597 0.563591 0
M  V30 16 N 3.15182 -0.79353 -0.625343 0
M  V30 17 S 0.309104 -0.732222 0.743706 0
M  V30 18 C -0.6294 0.432982 -0.316662 0
M  V30 19 C -1.91946 -0.212056 -0.718356 0
M  V30 20 N -1.99233 -0.944204 -1.85111 0
M  V30 21 C -3.16969 -1.51859 -2.18622 0
M  V30 22 N -3.18466 -2.27584 -3.38967 0
M  V30 23 N -4.24084 -1.3624 -1.40734 0
M  V30 24 C -4.22508 -0.653227 -0.282909 0
M  V30 25 N -3.00964 -0.0830024 0.0264639 0
M  V30 26 N -5.2785 -0.425001 0.610028 0
M  V30 27 C -6.60925 -0.881802 0.552183 0
M  V30 28 C -7.10927 -1.67347 -0.450776 0
M  V30 29 C -8.44543 -2.1075 -0.462216 0
M  V30 30 C -9.29598 -1.74065 0.551187 0
M  V30 31 C -8.82439 -0.954709 1.55945 0
M  V30 32 C -7.50509 -0.536482 1.5541 0
M  V30 33 C -7.07064 0.31349 2.67013 0
M  V30 34 C -6.95435 1.76584 2.32339 0
M  V30 35 H 10.0621 1.89312 2.18695 0
M  V30 36 H 11.2741 2.28029 0.959001 0
M  V30 37 H 9.85878 3.37196 1.15196 0
M  V30 38 H 8.08307 2.40304 2.19989 0
M  V30 39 H 5.72072 2.00944 2.61425 0
M  V30 40 H 5.52379 -0.299378 -0.921941 0
M  V30 41 H 6.76455 -1.59008 -1.90866 0
M  V30 42 H 7.95597 -1.27816 -3.23806 0
M  V30 43 H 6.51543 -0.181195 -2.99478 0
M  V30 44 H 3.19207 -1.83695 -0.621306 0
M  V30 45 H 3.1983 -0.290614 -1.5314 0
M  V30 46 H -0.0327654 0.551438 -1.24844 0
M  V30 47 H -0.819594 1.36217 0.219988 0
M  V30 48 H -3.4354 -3.28363 -3.39647 0
M  V30 49 H -2.94101 -1.81356 -4.27765 0
M  V30 50 H -5.02493 0.188434 1.46079 0
M  V30 51 H -6.5188 -2.00748 -1.27973 0
M  V30 52 H -8.84026 -2.73075 -1.25126 0
M  V30 53 H -10.3288 -2.06911 0.553805 0
M  V30 54 H -9.50099 -0.668793 2.35655 0
M  V30 55 H -7.80395 0.261585 3.51973 0
M  V30 56 H -6.1065 -0.0880017 3.06632 0
M  V30 57 H -6.6535 1.91415 1.25832 0
M  V30 58 H -7.93224 2.25421 2.53624 0
M  V30 59 H -6.18273 2.24182 2.93822 0
M  V30 END ATOM
M  V30 BEGIN BOND
M  V30 1 1 1 2
M  V30 2 1 2 3
M  V30 3 2 3 4
M  V30 4 1 4 5
M  V30 5 2 5 6
M  V30 6 1 6 7
M  V30 7 2 7 8
M  V30 8 1 8 9
M  V30 9 1 9 10
M  V30 10 1 6 11
M  V30 11 2 11 12
M  V30 12 1 12 13
M  V30 13 2 13 14
M  V30 14 1 14 15
M  V30 15 1 15 16
M  V30 16 1 14 17
M  V30 17 1 17 18
M  V30 18 1 18 19
M  V30 19 2 19 20
M  V30 20 1 20 21
M  V30 21 1 21 22
M  V30 22 2 21 23
M  V30 23 1 23 24
M  V30 24 2 24 25
M  V30 25 1 24 26
M  V30 26 1 26 27
M  V30 27 2 27 28
M  V30 28 1 28 29
M  V30 29 2 29 30
M  V30 30 1 30 31
M  V30 31 2 31 32
M  V30 32 1 32 33
M  V30 33 1 33 34
M  V30 34 1 8 3
M  V30 35 1 15 11
M  V30 36 1 25 19
M  V30 37 1 32 27
M  V30 38 1 1 35
M  V30 39 1 1 36
M  V30 40 1 1 37
M  V30 41 1 4 38
M  V30 42 1 5 39
M  V30 43 1 7 40
M  V30 44 1 10 41
M  V30 45 1 10 42
M  V30 46 1 10 43
M  V30 47 1 16 44
M  V30 48 1 16 45
M  V30 49 1 18 46
M  V30 50 1 18 47
M  V30 51 1 22 48
M  V30 52 1 22 49
M  V30 53 1 26 50
M  V30 54 1 28 51
M  V30 55 1 29 52
M  V30 56 1 30 53
M  V30 57 1 31 54
M  V30 58 1 33 55
M  V30 59 1 33 56
M  V30 60 1 34 57
M  V30 61 1 34 58
M  V30 62 1 34 59
M  V30 END BOND
M  V30 END CTAB
M  END
