
     RDKit          3D

  0  0  0  0  0  0  0  0  0  0999 V3000
M  V30 BEGIN CTAB
M  V30 COUNTS 34 34 0 0 0
M  V30 BEGIN ATOM
M  V30 1 C 2.33175 -1.68196 -1.32891 0
M  V30 2 C 1.18384 -1.02317 -0.699815 0
M  V30 3 C 0.0397644 -1.80483 -0.53786 0
M  V30 4 C -1.13269 -1.33106 0.0121278 0
M  V30 5 C -2.27226 -2.28158 0.141057 0
M  V30 6 C -1.15891 -0.0184061 0.415219 0
M  V30 7 C -2.40753 0.527633 0.984709 0
M  V30 8 C -3.41377 0.893457 -0.0659958 0
M  V30 9 N -4.63283 1.41351 0.469054 0
M  V30 10 C -0.0197045 0.767559 0.256527 0
M  V30 11 C 1.16429 0.291557 -0.296501 0
M  V30 12 C 2.35136 1.1469 -0.423824 0
M  V30 13 C 3.3463 0.934508 0.687498 0
M  V30 14 N 4.5078 1.78344 0.535399 0
M  V30 15 H 2.31556 -2.79016 -1.1007 0
M  V30 16 H 3.32064 -1.34068 -1.05959 0
M  V30 17 H 2.28654 -1.64044 -2.44939 0
M  V30 18 H 0.0592477 -2.85768 -0.862511 0
M  V30 19 H -1.86075 -3.19456 0.664513 0
M  V30 20 H -2.55703 -2.61612 -0.872156 0
M  V30 21 H -3.15252 -1.8832 0.635851 0
M  V30 22 H -2.17363 1.44626 1.58471 0
M  V30 23 H -2.83039 -0.190815 1.71887 0
M  V30 24 H -3.63632 0.00891868 -0.682773 0
M  V30 25 H -2.96467 1.67122 -0.743238 0
M  V30 26 H -4.64208 1.34687 1.5112 0
M  V30 27 H -4.89334 2.36145 0.126424 0
M  V30 28 H -0.0638193 1.80099 0.583021 0
M  V30 29 H 2.03267 2.22885 -0.358384 0
M  V30 30 H 2.8584 1.06227 -1.39374 0
M  V30 31 H 2.8457 1.27251 1.65494 0
M  V30 32 H 3.5861 -0.117772 0.904334 0
M  V30 33 H 4.26896 2.54951 -0.127331 0
M  V30 34 H 5.31332 1.26504 0.117278 0
M  V30 END ATOM
M  V30 BEGIN BOND
M  V30 1 1 1 2
M  V30 2 2 2 3
M  V30 3 1 3 4
M  V30 4 1 4 5
M  V30 5 2 4 6
M  V30 6 1 6 7
M  V30 7 1 7 8
M  V30 8 1 8 9
M  V30 9 1 6 10
M  V30 10 2 10 11
M  V30 11 1 11 12
M  V30 12 1 12 13
M  V30 13 1 13 14
M  V30 14 1 11 2
M  V30 15 1 1 15
M  V30 16 1 1 16
M  V30 17 1 1 17
M  V30 18 1 3 18
M  V30 19 1 5 19
M  V30 20 1 5 20
M  V30 21 1 5 21
M  V30 22 1 7 22
M  V30 23 1 7 23
M  V30 24 1 8 24
M  V30 25 1 8 25
M  V30 26 1 9 26
M  V30 27 1 9 27
M  V30 28 1 10 28
M  V30 29 1 12 29
M  V30 30 1 12 30
M  V30 31 1 13 31
M  V30 32 1 13 32
M  V30 33 1 14 33
M  V30 34 1 14 34
M  V30 END BOND
M  V30 END CTAB
M  END
