
     RDKit          3D

  0  0  0  0  0  0  0  0  0  0999 V3000
M  V30 BEGIN CTAB
M  V30 COUNTS 25 25 0 0 0
M  V30 BEGIN ATOM
M  V30 1 N 4.55741 0.906609 0.599102 0
M  V30 2 N 3.17767 1.12326 0.589845 0
M  V30 3 C 2.41961 0.224467 0.0650663 0
M  V30 4 N 1.01328 0.376761 0.0206396 0
M  V30 5 C 0.192177 -0.744219 0.41872 0
M  V30 6 C -1.26455 -0.399515 0.307194 0
M  V30 7 C -2.14863 -0.40396 1.30168 0
M  V30 8 C -3.48837 -0.00617304 0.797527 0
M  V30 9 C -3.09785 0.849143 -0.414832 0
M  V30 10 C -1.94093 0.0065468 -0.967699 0
M  V30 11 N 2.96623 -0.962523 -0.493525 0
M  V30 12 H 5.12028 1.03633 -0.275433 0
M  V30 13 H 5.09143 0.613725 1.44449 0
M  V30 14 H 0.604241 1.26434 -0.287809 0
M  V30 15 H 0.428011 -0.981445 1.47359 0
M  V30 16 H 0.384577 -1.62359 -0.215765 0
M  V30 17 H -1.90416 -0.663944 2.32538 0
M  V30 18 H -3.9725 -0.907048 0.383745 0
M  V30 19 H -4.08786 0.551509 1.51533 0
M  V30 20 H -3.92914 0.920434 -1.14122 0
M  V30 21 H -2.73573 1.84297 -0.102274 0
M  V30 22 H -2.40987 -0.86843 -1.46569 0
M  V30 23 H -1.28383 0.592687 -1.61609 0
M  V30 24 H 3.12493 -1.01031 -1.52491 0
M  V30 25 H 3.18357 -1.73761 0.172176 0
M  V30 END ATOM
M  V30 BEGIN BOND
M  V30 1 1 1 2
M  V30 2 2 2 3 CFG=2
M  V30 3 1 3 4
M  V30 4 1 4 5
M  V30 5 1 5 6
M  V30 6 2 6 7
M  V30 7 1 7 8
M  V30 8 1 8 9
M  V30 9 1 9 10
M  V30 10 1 3 11
M  V30 11 1 10 6
M  V30 12 1 1 12
M  V30 13 1 1 13
M  V30 14 1 4 14
M  V30 15 1 5 15
M  V30 16 1 5 16
M  V30 17 1 7 17
M  V30 18 1 8 18
M  V30 19 1 8 19
M  V30 20 1 9 20
M  V30 21 1 9 21
M  V30 22 1 10 22
M  V30 23 1 10 23
M  V30 24 1 11 24
M  V30 25 1 11 25
M  V30 END BOND
M  V30 END CTAB
M  END
