
     RDKit          3D

  0  0  0  0  0  0  0  0  0  0999 V3000
M  V30 BEGIN CTAB
M  V30 COUNTS 36 38 0 0 0
M  V30 BEGIN ATOM
M  V30 1 N 7.86093 1.49897 -0.923888 0
M  V30 2 C 6.85508 0.985946 -0.671891 0
M  V30 3 C 5.5727 0.35541 -0.367832 0
M  V30 4 C 4.39925 0.999528 -0.655597 0
M  V30 5 C 3.15795 0.404392 -0.368346 0
M  V30 6 C 3.23917 -0.83289 0.204386 0
M  V30 7 N 4.42667 -1.46153 0.484848 0
M  V30 8 C 5.61247 -0.895019 0.211377 0
M  V30 9 N 6.82769 -1.56419 0.510341 0
M  V30 10 S 1.59778 -1.26148 0.418112 0
M  V30 11 C 0.863013 0.138444 -0.224 0
M  V30 12 C 1.92993 0.905409 -0.589285 0
M  V30 13 N 1.68278 2.2131 -1.19311 0
M  V30 14 C -0.588945 0.428514 -0.345112 0
M  V30 15 O -0.879088 1.52241 -0.849409 0
M  V30 16 N -1.46215 -0.539643 0.11158 0
M  V30 17 C -2.8636 -0.428168 0.0655328 0
M  V30 18 C -3.55879 0.454736 -0.732 0
M  V30 19 C -4.94286 0.458624 -0.643231 0
M  V30 20 C -5.65316 -0.366508 0.192194 0
M  V30 21 C -4.94923 -1.24484 0.983947 0
M  V30 22 C -3.58029 -1.28151 0.927942 0
M  V30 23 C -7.13649 -0.31123 0.238501 0
M  V30 24 H 4.48656 1.97666 -1.1093 0
M  V30 25 H 7.73191 -1.37494 0.0378313 0
M  V30 26 H 6.8045 -2.29233 1.25393 0
M  V30 27 H 1.83676 2.35136 -2.21501 0
M  V30 28 H 1.35538 3.01763 -0.631862 0
M  V30 29 H -1.0526 -1.4405 0.523032 0
M  V30 30 H -3.04877 1.11249 -1.41173 0
M  V30 31 H -5.49634 1.15335 -1.26967 0
M  V30 32 H -5.50063 -1.90439 1.65029 0
M  V30 33 H -3.02844 -1.97758 1.55761 0
M  V30 34 H -7.45167 0.741282 0.23605 0
M  V30 35 H -7.46325 -0.749497 1.19984 0
M  V30 36 H -7.58421 -0.79201 -0.647645 0
M  V30 END ATOM
M  V30 BEGIN BOND
M  V30 1 3 1 2
M  V30 2 1 2 3
M  V30 3 2 3 4
M  V30 4 1 4 5
M  V30 5 2 5 6
M  V30 6 1 6 7
M  V30 7 2 7 8
M  V30 8 1 8 9
M  V30 9 1 6 10
M  V30 10 1 10 11
M  V30 11 2 11 12
M  V30 12 1 12 13
M  V30 13 1 11 14
M  V30 14 2 14 15
M  V30 15 1 14 16
M  V30 16 1 16 17
M  V30 17 2 17 18
M  V30 18 1 18 19
M  V30 19 2 19 20
M  V30 20 1 20 21
M  V30 21 2 21 22
M  V30 22 1 20 23
M  V30 23 1 8 3
M  V30 24 1 22 17
M  V30 25 1 12 5
M  V30 26 1 4 24
M  V30 27 1 9 25
M  V30 28 1 9 26
M  V30 29 1 13 27
M  V30 30 1 13 28
M  V30 31 1 16 29
M  V30 32 1 18 30
M  V30 33 1 19 31
M  V30 34 1 21 32
M  V30 35 1 22 33
M  V30 36 1 23 34
M  V30 37 1 23 35
M  V30 38 1 23 36
M  V30 END BOND
M  V30 END CTAB
M  END
