
     RDKit          3D

  0  0  0  0  0  0  0  0  0  0999 V3000
M  V30 BEGIN CTAB
M  V30 COUNTS 23 23 0 0 0
M  V30 BEGIN ATOM
M  V30 1 N 2.47581 -1.04969 -0.0105897 0
M  V30 2 C 1.23307 -0.364999 -0.249759 0 CFG=1
M  V30 3 C 0.0544797 -1.23252 0.173148 0
M  V30 4 C -1.19646 -0.494587 -0.279058 0 CFG=1
M  V30 5 N -2.37537 -1.29833 -0.21356 0
M  V30 6 C -1.2866 0.763325 0.575692 0
M  V30 7 C -0.120633 1.64915 0.118724 0 CFG=2
M  V30 8 O -0.161672 1.73047 -1.26442 0
M  V30 9 C 1.13689 0.91802 0.561905 0
M  V30 10 H 2.88112 -1.46574 -0.884041 0
M  V30 11 H 3.16975 -0.401318 0.436777 0
M  V30 12 H 1.17882 -0.0774775 -1.31428 0
M  V30 13 H 0.138018 -2.21583 -0.31082 0
M  V30 14 H 0.0930677 -1.28323 1.28558 0
M  V30 15 H -0.994024 -0.152713 -1.31296 0
M  V30 16 H -2.40123 -1.93368 0.604462 0
M  V30 17 H -2.46196 -1.84882 -1.08317 0
M  V30 18 H -2.25222 1.27205 0.482859 0
M  V30 19 H -1.03036 0.455543 1.60926 0
M  V30 20 H -0.193276 2.62852 0.603582 0
M  V30 21 H -0.958471 2.23326 -1.54121 0
M  V30 22 H 1.01795 0.68655 1.63831 0
M  V30 23 H 2.0533 1.48206 0.37357 0
M  V30 END ATOM
M  V30 BEGIN BOND
M  V30 1 1 1 2
M  V30 2 1 2 3
M  V30 3 1 3 4
M  V30 4 1 4 5
M  V30 5 1 4 6
M  V30 6 1 6 7
M  V30 7 1 7 8
M  V30 8 1 7 9
M  V30 9 1 9 2
M  V30 10 1 1 10
M  V30 11 1 1 11
M  V30 12 1 2 12 CFG=3
M  V30 13 1 3 13
M  V30 14 1 3 14
M  V30 15 1 4 15 CFG=3
M  V30 16 1 5 16
M  V30 17 1 5 17
M  V30 18 1 6 18
M  V30 19 1 6 19
M  V30 20 1 7 20 CFG=1
M  V30 21 1 8 21
M  V30 22 1 9 22
M  V30 23 1 9 23
M  V30 END BOND
M  V30 END CTAB
M  END
