
     RDKit          3D

  0  0  0  0  0  0  0  0  0  0999 V3000
M  V30 BEGIN CTAB
M  V30 COUNTS 32 32 0 0 0
M  V30 BEGIN ATOM
M  V30 1 N 4.75901 0.395765 -0.69461 0
M  V30 2 C 3.46622 0.0957537 -0.111426 0
M  V30 3 C 2.42081 0.821776 -0.889975 0
M  V30 4 N 1.07415 0.622095 -0.426269 0
M  V30 5 C 0.419111 -0.611864 -0.358083 0
M  V30 6 O 1.01284 -1.64856 -0.717941 0
M  V30 7 C -0.970355 -0.743583 0.13009 0
M  V30 8 C -1.43289 -2.18357 0.138714 0
M  V30 9 C -1.01076 -0.212387 1.53553 0
M  V30 10 C -2.45165 0.142046 1.72847 0
M  V30 11 C -2.75813 0.842752 0.403294 0
M  V30 12 C -1.96825 0.0529029 -0.634863 0
M  V30 13 N -1.43843 0.89168 -1.66089 0
M  V30 14 H 4.73997 1.30269 -1.19768 0
M  V30 15 H 5.52883 0.407551 0.0103814 0
M  V30 16 H 3.32894 -0.999614 -0.213245 0
M  V30 17 H 3.48951 0.358118 0.958712 0
M  V30 18 H 2.46269 0.411356 -1.94207 0
M  V30 19 H 2.69693 1.8895 -0.962048 0
M  V30 20 H 0.545008 1.48118 -0.112829 0
M  V30 21 H -0.844595 -2.81323 -0.573629 0
M  V30 22 H -1.36734 -2.64507 1.14658 0
M  V30 23 H -2.48986 -2.27858 -0.189918 0
M  V30 24 H -0.388233 0.704214 1.5824 0
M  V30 25 H -0.66088 -1.00918 2.22152 0
M  V30 26 H -2.59351 0.815435 2.58946 0
M  V30 27 H -3.06081 -0.782817 1.7901 0
M  V30 28 H -2.38857 1.87518 0.507689 0
M  V30 29 H -3.83609 0.795035 0.253057 0
M  V30 30 H -2.74057 -0.602795 -1.13371 0
M  V30 31 H -1.68765 1.90322 -1.44499 0
M  V30 32 H -1.85545 0.723 -2.60937 0
M  V30 END ATOM
M  V30 BEGIN BOND
M  V30 1 1 1 2
M  V30 2 1 2 3
M  V30 3 1 3 4
M  V30 4 1 4 5
M  V30 5 2 5 6
M  V30 6 1 5 7
M  V30 7 1 7 8
M  V30 8 1 7 9
M  V30 9 1 9 10
M  V30 10 1 10 11
M  V30 11 1 11 12
M  V30 12 1 12 13
M  V30 13 1 12 7
M  V30 14 1 1 14
M  V30 15 1 1 15
M  V30 16 1 2 16
M  V30 17 1 2 17
M  V30 18 1 3 18
M  V30 19 1 3 19
M  V30 20 1 4 20
M  V30 21 1 8 21
M  V30 22 1 8 22
M  V30 23 1 8 23
M  V30 24 1 9 24
M  V30 25 1 9 25
M  V30 26 1 10 26
M  V30 27 1 10 27
M  V30 28 1 11 28
M  V30 29 1 11 29
M  V30 30 1 12 30
M  V30 31 1 13 31
M  V30 32 1 13 32
M  V30 END BOND
M  V30 END CTAB
M  END
