
     RDKit          3D

  0  0  0  0  0  0  0  0  0  0999 V3000
M  V30 BEGIN CTAB
M  V30 COUNTS 25 26 0 0 0
M  V30 BEGIN ATOM
M  V30 1 N 4.64968 0.147081 0.0203054 0
M  V30 2 C 3.22967 0.0228344 -0.0240059 0
M  V30 3 C 2.4652 1.09715 -0.411502 0
M  V30 4 C 1.09158 0.999381 -0.461533 0
M  V30 5 C 0.478452 -0.167187 -0.125759 0
M  V30 6 C 1.2611 -1.261 0.268861 0
M  V30 7 N 2.58471 -1.1059 0.297528 0
M  V30 8 C -0.980832 -0.367396 -0.138752 0
M  V30 9 C -1.55024 -1.45922 -0.762404 0
M  V30 10 C -2.91848 -1.62677 -0.772828 0
M  V30 11 C -3.75746 -0.718332 -0.166522 0
M  V30 12 C -3.19572 0.371813 0.456824 0
M  V30 13 C -1.80264 0.552632 0.473827 0
M  V30 14 N -1.22729 1.67117 1.12435 0
M  V30 15 H 5.21962 0.391992 -0.816037 0
M  V30 16 H 5.14074 -0.0155029 0.93578 0
M  V30 17 H 2.91161 2.05387 -0.689956 0
M  V30 18 H 0.468954 1.83821 -0.772267 0
M  V30 19 H 0.805989 -2.21135 0.544765 0
M  V30 20 H -0.870039 -2.16219 -1.23365 0
M  V30 21 H -3.32582 -2.48519 -1.26584 0
M  V30 22 H -4.83433 -0.836522 -0.166593 0
M  V30 23 H -3.82064 1.1103 0.9459 0
M  V30 24 H -1.35218 2.62775 0.754883 0
M  V30 25 H -0.671636 1.53237 1.98462 0
M  V30 END ATOM
M  V30 BEGIN BOND
M  V30 1 1 1 2
M  V30 2 2 2 3
M  V30 3 1 3 4
M  V30 4 2 4 5
M  V30 5 1 5 6
M  V30 6 2 6 7
M  V30 7 1 5 8
M  V30 8 2 8 9
M  V30 9 1 9 10
M  V30 10 2 10 11
M  V30 11 1 11 12
M  V30 12 2 12 13
M  V30 13 1 13 14
M  V30 14 1 7 2
M  V30 15 1 13 8
M  V30 16 1 1 15
M  V30 17 1 1 16
M  V30 18 1 3 17
M  V30 19 1 4 18
M  V30 20 1 6 19
M  V30 21 1 9 20
M  V30 22 1 10 21
M  V30 23 1 11 22
M  V30 24 1 12 23
M  V30 25 1 14 24
M  V30 26 1 14 25
M  V30 END BOND
M  V30 END CTAB
M  END
