
     RDKit          3D

  0  0  0  0  0  0  0  0  0  0999 V3000
M  V30 BEGIN CTAB
M  V30 COUNTS 27 27 0 0 0
M  V30 BEGIN ATOM
M  V30 1 C -3.10617 1.28711 -0.179096 0
M  V30 2 C -2.26388 0.279435 0.538358 0
M  V30 3 C -0.796505 0.380086 0.142968 0
M  V30 4 C -0.0710017 -0.666969 0.919489 0
M  V30 5 C 1.37183 -0.736087 0.678836 0
M  V30 6 N 2.16765 -1.62862 1.30521 0
M  V30 7 N 3.40517 -1.48415 0.917479 0
M  V30 8 C 3.39835 -0.468209 0.0160774 0
M  V30 9 N 2.1458 -0.0161496 -0.123155 0
M  V30 10 N 1.77712 1.02411 -0.970534 0
M  V30 11 N 4.57044 -0.0073947 -0.639051 0
M  V30 12 C -2.8012 -1.09775 0.263853 0
M  V30 13 H -2.96498 1.17406 -1.25516 0
M  V30 14 H -4.15902 1.09244 0.0662333 0
M  V30 15 H -2.83534 2.32896 0.0891649 0
M  V30 16 H -2.37064 0.46885 1.62601 0
M  V30 17 H -0.681777 0.241594 -0.948642 0
M  V30 18 H -0.375805 1.36225 0.408895 0
M  V30 19 H -0.499993 -1.66342 0.603569 0
M  V30 20 H -0.33543 -0.542501 1.98941 0
M  V30 21 H 1.51653 0.77253 -1.94583 0
M  V30 22 H 1.74175 2.02894 -0.706723 0
M  V30 23 H 4.88322 -0.444967 -1.52516 0
M  V30 24 H 5.11447 0.762236 -0.237943 0
M  V30 25 H -3.89844 -1.10244 0.0825661 0
M  V30 26 H -2.31693 -1.56339 -0.627787 0
M  V30 27 H -2.61523 -1.78055 1.11546 0
M  V30 END ATOM
M  V30 BEGIN BOND
M  V30 1 1 1 2
M  V30 2 1 2 3
M  V30 3 1 3 4
M  V30 4 1 4 5
M  V30 5 2 5 6
M  V30 6 1 6 7
M  V30 7 2 7 8
M  V30 8 1 8 9
M  V30 9 1 9 10
M  V30 10 1 8 11
M  V30 11 1 2 12
M  V30 12 1 9 5
M  V30 13 1 1 13
M  V30 14 1 1 14
M  V30 15 1 1 15
M  V30 16 1 2 16
M  V30 17 1 3 17
M  V30 18 1 3 18
M  V30 19 1 4 19
M  V30 20 1 4 20
M  V30 21 1 10 21
M  V30 22 1 10 22
M  V30 23 1 11 23
M  V30 24 1 11 24
M  V30 25 1 12 25
M  V30 26 1 12 26
M  V30 27 1 12 27
M  V30 END BOND
M  V30 END CTAB
M  END
