
     RDKit          3D

  0  0  0  0  0  0  0  0  0  0999 V3000
M  V30 BEGIN CTAB
M  V30 COUNTS 30 33 0 0 0
M  V30 BEGIN ATOM
M  V30 1 N -6.16403 0.134118 1.14721 0
M  V30 2 C -4.91802 0.176608 0.458113 0
M  V30 3 C -4.94238 0.387114 -0.904239 0
M  V30 4 C -3.73276 0.426504 -1.56107 0
M  V30 5 C -2.5368 0.257906 -0.859325 0
M  V30 6 C -2.52714 0.0481327 0.503131 0
M  V30 7 C -3.74267 0.00907994 1.15971 0
M  V30 8 N -1.24194 -0.074673 0.87727 0
M  V30 9 C -0.467692 0.0537252 -0.214866 0
M  V30 10 O -1.27484 0.250634 -1.22966 0
M  V30 11 C 0.980044 -0.00525529 -0.309995 0
M  V30 12 C 1.67317 0.139447 -1.48273 0
M  V30 13 C 3.02712 0.0907436 -1.61301 0
M  V30 14 C 3.82626 -0.12555 -0.467038 0
M  V30 15 C 3.15423 -0.273284 0.718461 0
M  V30 16 C 1.75697 -0.217719 0.818297 0
M  V30 17 S 4.45119 -0.507355 1.81593 0
M  V30 18 C 5.75236 -0.403586 0.709121 0
M  V30 19 N 5.12334 -0.196614 -0.432497 0
M  V30 20 N 7.16989 -0.511879 0.946773 0
M  V30 21 H -7.00495 -0.266453 0.69243 0
M  V30 22 H -6.23818 0.506836 2.11633 0
M  V30 23 H -5.89416 0.514757 -1.42017 0
M  V30 24 H -3.73095 0.590512 -2.62944 0
M  V30 25 H -3.70873 -0.156794 2.22829 0
M  V30 26 H 1.04073 0.307677 -2.37044 0
M  V30 27 H 3.45183 0.218467 -2.58631 0
M  V30 28 H 1.35209 -0.345966 1.78834 0
M  V30 29 H 7.61907 0.290214 1.42714 0
M  V30 30 H 7.74697 -1.31846 0.67426 0
M  V30 END ATOM
M  V30 BEGIN BOND
M  V30 1 1 1 2
M  V30 2 2 2 3
M  V30 3 1 3 4
M  V30 4 2 4 5
M  V30 5 1 5 6
M  V30 6 2 6 7
M  V30 7 1 6 8
M  V30 8 2 8 9
M  V30 9 1 9 10
M  V30 10 1 9 11
M  V30 11 2 11 12
M  V30 12 1 12 13
M  V30 13 2 13 14
M  V30 14 1 14 15
M  V30 15 2 15 16
M  V30 16 1 15 17
M  V30 17 1 17 18
M  V30 18 2 18 19
M  V30 19 1 18 20
M  V30 20 1 7 2
M  V30 21 1 16 11
M  V30 22 1 10 5
M  V30 23 1 19 14
M  V30 24 1 1 21
M  V30 25 1 1 22
M  V30 26 1 3 23
M  V30 27 1 4 24
M  V30 28 1 7 25
M  V30 29 1 12 26
M  V30 30 1 13 27
M  V30 31 1 16 28
M  V30 32 1 20 29
M  V30 33 1 20 30
M  V30 END BOND
M  V30 END CTAB
M  END
