
     RDKit          3D

  0  0  0  0  0  0  0  0  0  0999 V3000
M  V30 BEGIN CTAB
M  V30 COUNTS 27 27 0 0 0
M  V30 BEGIN ATOM
M  V30 1 C -1.97931 1.6808 2.49974 0
M  V30 2 O -2.23668 0.786466 1.45542 0
M  V30 3 C -1.18964 0.341147 0.685788 0
M  V30 4 C 0.120709 0.772781 0.937843 0
M  V30 5 C 1.19567 0.349773 0.189694 0
M  V30 6 C 2.56151 0.754323 0.396694 0
M  V30 7 N 2.83669 1.57504 1.34676 0
M  V30 8 N 3.63704 0.28175 -0.41246 0
M  V30 9 C 0.912929 -0.533246 -0.835326 0
M  V30 10 C -0.375564 -0.976959 -1.10687 0
M  V30 11 C -1.43399 -0.539695 -0.344715 0
M  V30 12 O -2.73551 -0.964289 -0.589994 0
M  V30 13 C -3.02889 -1.86564 -1.63528 0
M  V30 14 N 2.00086 -0.991482 -1.62954 0
M  V30 15 H -1.39378 2.5669 2.16433 0
M  V30 16 H -2.94798 2.09859 2.88992 0
M  V30 17 H -1.43414 1.14758 3.29013 0
M  V30 18 H 0.292484 1.4729 1.76168 0
M  V30 19 H 2.20589 2.00989 2.0151 0
M  V30 20 H 4.15473 -0.582664 -0.154197 0
M  V30 21 H 3.94074 0.774691 -1.27771 0
M  V30 22 H -0.55341 -1.66121 -1.90992 0
M  V30 23 H -2.49978 -1.54752 -2.56465 0
M  V30 24 H -2.70854 -2.90028 -1.41546 0
M  V30 25 H -4.1132 -1.81379 -1.86537 0
M  V30 26 H 2.21648 -0.387408 -2.47479 0
M  V30 27 H 2.55467 -1.84843 -1.41685 0
M  V30 END ATOM
M  V30 BEGIN BOND
M  V30 1 1 1 2
M  V30 2 1 2 3
M  V30 3 2 3 4
M  V30 4 1 4 5
M  V30 5 1 5 6
M  V30 6 2 6 7 CFG=2
M  V30 7 1 6 8
M  V30 8 2 5 9
M  V30 9 1 9 10
M  V30 10 2 10 11
M  V30 11 1 11 12
M  V30 12 1 12 13
M  V30 13 1 9 14
M  V30 14 1 11 3
M  V30 15 1 1 15
M  V30 16 1 1 16
M  V30 17 1 1 17
M  V30 18 1 4 18
M  V30 19 1 7 19
M  V30 20 1 8 20
M  V30 21 1 8 21
M  V30 22 1 10 22
M  V30 23 1 13 23
M  V30 24 1 13 24
M  V30 25 1 13 25
M  V30 26 1 14 26
M  V30 27 1 14 27
M  V30 END BOND
M  V30 END CTAB
M  END
