
     RDKit          3D

  0  0  0  0  0  0  0  0  0  0999 V3000
M  V30 BEGIN CTAB
M  V30 COUNTS 26 27 0 0 0
M  V30 BEGIN ATOM
M  V30 1 N 3.67786 0.0226016 -0.539922 0
M  V30 2 C 3.06037 0.453354 0.671233 0
M  V30 3 C 1.61488 0.0829896 0.793489 0
M  V30 4 C 1.35866 -1.38722 0.749537 0
M  V30 5 N -0.0678332 -1.57969 1.04283 0
M  V30 6 C -1.04436 -0.677095 0.502125 0
M  V30 7 C -0.624659 0.484891 -0.115015 0
M  V30 8 N 0.774993 0.732834 -0.185003 0
M  V30 9 C -1.52019 1.39289 -0.655255 0
M  V30 10 O -1.0906 2.4178 -1.1968 0
M  V30 11 N -2.83736 1.09307 -0.553297 0
M  V30 12 C -3.24863 -0.0375203 0.0470502 0
M  V30 13 N -4.6605 -0.276987 0.111424 0
M  V30 14 N -2.36262 -0.915181 0.570195 0
M  V30 15 H 4.23325 -0.861623 -0.380957 0
M  V30 16 H 4.42148 0.744635 -0.781007 0
M  V30 17 H 3.59758 0.0256242 1.54286 0
M  V30 18 H 3.12746 1.56142 0.794404 0
M  V30 19 H 1.27105 0.447221 1.79773 0
M  V30 20 H 1.50291 -1.82143 -0.266749 0
M  V30 21 H 1.942 -1.97528 1.46472 0
M  V30 22 H -0.421317 -2.35449 1.63679 0
M  V30 23 H 1.17637 1.37456 -0.934182 0
M  V30 24 H -3.52504 1.75739 -0.950083 0
M  V30 25 H -5.21818 -0.0425243 -0.741523 0
M  V30 26 H -5.13755 -0.662246 0.945591 0
M  V30 END ATOM
M  V30 BEGIN BOND
M  V30 1 1 1 2
M  V30 2 1 2 3
M  V30 3 1 3 4
M  V30 4 1 4 5
M  V30 5 1 5 6
M  V30 6 2 6 7
M  V30 7 1 7 8
M  V30 8 1 7 9
M  V30 9 2 9 10
M  V30 10 1 9 11
M  V30 11 1 11 12
M  V30 12 1 12 13
M  V30 13 2 12 14
M  V30 14 1 8 3
M  V30 15 1 14 6
M  V30 16 1 1 15
M  V30 17 1 1 16
M  V30 18 1 2 17
M  V30 19 1 2 18
M  V30 20 1 3 19
M  V30 21 1 4 20
M  V30 22 1 4 21
M  V30 23 1 5 22
M  V30 24 1 8 23
M  V30 25 1 11 24
M  V30 26 1 13 25
M  V30 27 1 13 26
M  V30 END BOND
M  V30 END CTAB
M  END
