
     RDKit          3D

  0  0  0  0  0  0  0  0  0  0999 V3000
M  V30 BEGIN CTAB
M  V30 COUNTS 42 43 0 0 0
M  V30 BEGIN ATOM
M  V30 1 N 5.11438 0.691889 -1.30726 0
M  V30 2 C 5.26427 -0.147783 -0.13352 0
M  V30 3 C 4.08531 0.0747363 0.749197 0
M  V30 4 C 2.77181 -0.268119 0.0831689 0
M  V30 5 C 1.66475 -0.0124651 1.04258 0
M  V30 6 O 1.91261 0.421145 2.19734 0
M  V30 7 N 0.298005 -0.260285 0.654948 0
M  V30 8 C -0.849639 -0.044039 1.51361 0
M  V30 9 C -2.031 -0.305903 0.648142 0 CFG=2
M  V30 10 C -1.51537 -1.22731 -0.405965 0 CFG=1
M  V30 11 C -0.106754 -0.755789 -0.63769 0
M  V30 12 C -1.42263 -2.62282 0.200352 0
M  V30 13 N -0.92894 -3.58355 -0.758833 0
M  V30 14 C -2.70881 0.897008 0.159694 0
M  V30 15 C -4.07576 1.00364 0.275574 0
M  V30 16 C -4.75386 2.14481 -0.174016 0
M  V30 17 C -4.04899 3.16756 -0.735939 0
M  V30 18 C -2.6874 3.08612 -0.862793 0
M  V30 19 C -2.02128 1.93949 -0.40908 0
M  V30 20 H 4.5446 1.50879 -1.05632 0
M  V30 21 H 6.00807 0.851238 -1.74214 0
M  V30 22 H 6.16532 0.211005 0.404969 0
M  V30 23 H 5.31251 -1.21516 -0.399162 0
M  V30 24 H 4.12279 -0.512385 1.69305 0
M  V30 25 H 3.99845 1.14903 1.06384 0
M  V30 26 H 2.77352 -1.3169 -0.257395 0
M  V30 27 H 2.57651 0.40046 -0.79958 0
M  V30 28 H -0.787451 -0.755933 2.36562 0
M  V30 29 H -0.886457 0.993518 1.90147 0
M  V30 30 H -2.74188 -0.942074 1.27329 0
M  V30 31 H -2.12388 -1.23357 -1.32972 0
M  V30 32 H 0.476543 -1.66424 -0.932063 0
M  V30 33 H -0.0126853 -0.0163074 -1.46076 0
M  V30 34 H -2.39888 -2.98394 0.571553 0
M  V30 35 H -0.720332 -2.6347 1.0572 0
M  V30 36 H -0.362149 -4.31312 -0.271851 0
M  V30 37 H -1.75245 -4.11499 -1.17033 0
M  V30 38 H -4.68187 0.223244 0.712607 0
M  V30 39 H -5.82807 2.24153 -0.0889669 0
M  V30 40 H -4.54463 4.06858 -1.09583 0
M  V30 41 H -2.14883 3.9095 -1.31168 0
M  V30 42 H -0.949432 1.94806 -0.537195 0
M  V30 END ATOM
M  V30 BEGIN BOND
M  V30 1 1 1 2
M  V30 2 1 2 3
M  V30 3 1 3 4
M  V30 4 1 4 5
M  V30 5 2 5 6
M  V30 6 1 5 7
M  V30 7 1 7 8
M  V30 8 1 8 9
M  V30 9 1 9 10
M  V30 10 1 10 11
M  V30 11 1 10 12
M  V30 12 1 12 13
M  V30 13 1 9 14
M  V30 14 2 14 15
M  V30 15 1 15 16
M  V30 16 2 16 17
M  V30 17 1 17 18
M  V30 18 2 18 19
M  V30 19 1 11 7
M  V30 20 1 19 14
M  V30 21 1 1 20
M  V30 22 1 1 21
M  V30 23 1 2 22
M  V30 24 1 2 23
M  V30 25 1 3 24
M  V30 26 1 3 25
M  V30 27 1 4 26
M  V30 28 1 4 27
M  V30 29 1 8 28
M  V30 30 1 8 29
M  V30 31 1 9 30 CFG=1
M  V30 32 1 10 31 CFG=3
M  V30 33 1 11 32
M  V30 34 1 11 33
M  V30 35 1 12 34
M  V30 36 1 12 35
M  V30 37 1 13 36
M  V30 38 1 13 37
M  V30 39 1 15 38
M  V30 40 1 16 39
M  V30 41 1 17 40
M  V30 42 1 18 41
M  V30 43 1 19 42
M  V30 END BOND
M  V30 END CTAB
M  END
