
     RDKit          3D

  0  0  0  0  0  0  0  0  0  0999 V3000
M  V30 BEGIN CTAB
M  V30 COUNTS 22 23 0 0 0
M  V30 BEGIN ATOM
M  V30 1 I 5.52181 1.83267 -1.24672 0
M  V30 2 C 3.89537 0.686766 -0.561207 0
M  V30 3 C 3.96201 -0.504977 0.126222 0
M  V30 4 N 2.71746 -0.911803 0.379293 0
M  V30 5 N 1.84779 -0.0439881 -0.109365 0
M  V30 6 C 2.53606 0.953658 -0.695642 0
M  V30 7 C 0.425564 -0.177728 -0.0114205 0
M  V30 8 C -0.130483 -1.39928 0.299133 0
M  V30 9 C -1.48911 -1.59518 0.408555 0
M  V30 10 C -2.31061 -0.503342 0.1929 0
M  V30 11 C -1.73904 0.710775 -0.116653 0
M  V30 12 N -0.405914 0.855766 -0.213022 0
M  V30 13 N -2.58913 1.82034 -0.335099 0
M  V30 14 N -3.70306 -0.697845 0.303596 0
M  V30 15 H 4.91067 -0.992084 0.393812 0
M  V30 16 H 2.14063 1.82025 -1.19046 0
M  V30 17 H 0.542381 -2.22134 0.458949 0
M  V30 18 H -1.89693 -2.56388 0.653277 0
M  V30 19 H -2.64206 2.30922 -1.24866 0
M  V30 20 H -3.18129 2.15819 0.445384 0
M  V30 21 H -4.25871 -0.89679 -0.539558 0
M  V30 22 H -4.1534 -0.639409 1.22673 0
M  V30 END ATOM
M  V30 BEGIN BOND
M  V30 1 1 1 2
M  V30 2 1 2 3
M  V30 3 2 3 4
M  V30 4 1 4 5
M  V30 5 1 5 6
M  V30 6 1 5 7
M  V30 7 2 7 8
M  V30 8 1 8 9
M  V30 9 2 9 10
M  V30 10 1 10 11
M  V30 11 2 11 12
M  V30 12 1 11 13
M  V30 13 1 10 14
M  V30 14 2 6 2
M  V30 15 1 12 7
M  V30 16 1 3 15
M  V30 17 1 6 16
M  V30 18 1 8 17
M  V30 19 1 9 18
M  V30 20 1 13 19
M  V30 21 1 13 20
M  V30 22 1 14 21
M  V30 23 1 14 22
M  V30 END BOND
M  V30 END CTAB
M  END
