
     RDKit          3D

  0  0  0  0  0  0  0  0  0  0999 V3000
M  V30 BEGIN CTAB
M  V30 COUNTS 23 23 0 0 0
M  V30 BEGIN ATOM
M  V30 1 O -3.73332 -0.143859 -0.0292081 0
M  V30 2 C -2.46502 -0.539774 -0.495125 0
M  V30 3 C -1.46083 0.242799 0.289675 0
M  V30 4 C -0.0606606 0.0454495 -0.13386 0
M  V30 5 C 0.205482 -0.619336 -1.30952 0
M  V30 6 C 1.54269 -0.768086 -1.64589 0
M  V30 7 C 2.56974 -0.285901 -0.863076 0
M  V30 8 C 2.29826 0.381073 0.316803 0
M  V30 9 C 0.967205 0.527747 0.64914 0
M  V30 10 N 3.35024 0.88432 1.13489 0
M  V30 11 N -1.64138 -0.0738668 1.70788 0
M  V30 12 H -4.36111 -0.356978 -0.775246 0
M  V30 13 H -2.40584 -0.251658 -1.58192 0
M  V30 14 H -2.40051 -1.63206 -0.344417 0
M  V30 15 H -1.69425 1.32414 0.136269 0
M  V30 16 H -0.574424 -1.01815 -1.95903 0
M  V30 17 H 1.74528 -1.29533 -2.57793 0
M  V30 18 H 3.61008 -0.413113 -1.14478 0
M  V30 19 H 0.780043 1.06141 1.59142 0
M  V30 20 H 3.98861 0.257231 1.66968 0
M  V30 21 H 3.51911 1.909 1.22739 0
M  V30 22 H -1.11066 0.650575 2.23774 0
M  V30 23 H -2.66872 0.114357 1.89911 0
M  V30 END ATOM
M  V30 BEGIN BOND
M  V30 1 1 1 2
M  V30 2 1 2 3
M  V30 3 1 3 4
M  V30 4 2 4 5
M  V30 5 1 5 6
M  V30 6 2 6 7
M  V30 7 1 7 8
M  V30 8 2 8 9
M  V30 9 1 8 10
M  V30 10 1 3 11
M  V30 11 1 9 4
M  V30 12 1 1 12
M  V30 13 1 2 13
M  V30 14 1 2 14
M  V30 15 1 3 15
M  V30 16 1 5 16
M  V30 17 1 6 17
M  V30 18 1 7 18
M  V30 19 1 9 19
M  V30 20 1 10 20
M  V30 21 1 10 21
M  V30 22 1 11 22
M  V30 23 1 11 23
M  V30 END BOND
M  V30 END CTAB
M  END
