
     RDKit          3D

  0  0  0  0  0  0  0  0  0  0999 V3000
M  V30 BEGIN CTAB
M  V30 COUNTS 30 30 0 0 0
M  V30 BEGIN ATOM
M  V30 1 C 3.38018 1.06824 0.932969 0
M  V30 2 C 2.79586 -0.312263 0.97572 0
M  V30 3 C 3.43496 -1.21616 -0.0333964 0
M  V30 4 O 3.29696 -0.785984 -1.34233 0
M  V30 5 C 1.30871 -0.330632 0.889737 0
M  V30 6 N 0.771672 0.249202 -0.302522 0
M  V30 7 C -0.65652 0.25601 -0.440154 0
M  V30 8 C -1.26909 0.800677 -1.56959 0
M  V30 9 C -2.63322 0.826259 -1.73871 0
M  V30 10 C -3.42409 0.280231 -0.728609 0
M  V30 11 C -2.81975 -0.258371 0.388122 0
M  V30 12 N -1.47898 -0.250866 0.48986 0
M  V30 13 N -3.66385 -0.805294 1.39534 0
M  V30 14 N -4.84473 0.267853 -0.827681 0
M  V30 15 H 3.49415 1.42913 -0.108161 0
M  V30 16 H 2.75972 1.76828 1.53608 0
M  V30 17 H 4.38017 1.05374 1.39861 0
M  V30 18 H 3.05734 -0.751725 1.98408 0
M  V30 19 H 4.51672 -1.35694 0.156805 0
M  V30 20 H 2.91985 -2.21609 0.0288442 0
M  V30 21 H 4.02753 -0.202012 -1.65316 0
M  V30 22 H 0.84213 0.131791 1.78442 0
M  V30 23 H 0.992659 -1.41136 0.928189 0
M  V30 24 H 1.3251 0.660369 -1.0658 0
M  V30 25 H -0.626769 1.21077 -2.32398 0
M  V30 26 H -3.1169 1.24601 -2.61016 0
M  V30 27 H -4.47065 -1.43331 1.17154 0
M  V30 28 H -3.48843 -0.582765 2.41335 0
M  V30 29 H -5.38781 -0.597231 -0.996285 0
M  V30 30 H -5.42291 1.1505 -0.73312 0
M  V30 END ATOM
M  V30 BEGIN BOND
M  V30 1 1 1 2
M  V30 2 1 2 3
M  V30 3 1 3 4
M  V30 4 1 2 5
M  V30 5 1 5 6
M  V30 6 1 6 7
M  V30 7 2 7 8
M  V30 8 1 8 9
M  V30 9 2 9 10
M  V30 10 1 10 11
M  V30 11 2 11 12
M  V30 12 1 11 13
M  V30 13 1 10 14
M  V30 14 1 12 7
M  V30 15 1 1 15
M  V30 16 1 1 16
M  V30 17 1 1 17
M  V30 18 1 2 18
M  V30 19 1 3 19
M  V30 20 1 3 20
M  V30 21 1 4 21
M  V30 22 1 5 22
M  V30 23 1 5 23
M  V30 24 1 6 24
M  V30 25 1 8 25
M  V30 26 1 9 26
M  V30 27 1 13 27
M  V30 28 1 13 28
M  V30 29 1 14 29
M  V30 30 1 14 30
M  V30 END BOND
M  V30 END CTAB
M  END
