
     RDKit          3D

  0  0  0  0  0  0  0  0  0  0999 V3000
M  V30 BEGIN CTAB
M  V30 COUNTS 55 59 0 0 0
M  V30 BEGIN ATOM
M  V30 1 C -0.224732 -1.31042 2.26695 0
M  V30 2 C 0.341457 0.058627 2.00999 0 CFG=2
M  V30 3 C 0.643198 0.69391 3.35684 0
M  V30 4 C -0.423045 0.911453 4.3408 0
M  V30 5 C 0.623033 -0.129675 4.59649 0
M  V30 6 C -0.688568 0.883797 1.30319 0
M  V30 7 N -0.646763 2.18297 0.961476 0
M  V30 8 O -1.77208 2.50113 0.35102 0
M  V30 9 C -2.54899 1.46582 0.278419 0
M  V30 10 N -1.89473 0.447265 0.864994 0
M  V30 11 C -3.89101 1.36541 -0.316037 0
M  V30 12 C -4.68904 0.242958 -0.375947 0
M  V30 13 N -5.85978 0.554536 -1.00401 0
M  V30 14 C -6.89019 -0.443869 -1.20589 0
M  V30 15 C -6.71629 -1.16959 -2.52129 0
M  V30 16 N -6.7837 -0.219944 -3.63156 0
M  V30 17 N -5.79675 1.81524 -1.32258 0
M  V30 18 C -4.61566 2.36628 -0.927671 0
M  V30 19 C 1.57492 -0.0803461 1.19457 0
M  V30 20 C 2.3613 1.03146 0.913631 0
M  V30 21 C 3.50891 0.912803 0.156674 0
M  V30 22 C 3.92825 -0.300496 -0.353066 0
M  V30 23 C 3.15581 -1.40816 -0.08028 0
M  V30 24 C 1.99909 -1.28752 0.682922 0
M  V30 25 C 5.14841 -0.409783 -1.15344 0
M  V30 26 C 6.21495 0.427159 -0.912083 0
M  V30 27 N 7.34753 0.352421 -1.62693 0
M  V30 28 C 7.45832 -0.559684 -2.60887 0
M  V30 29 N 8.67154 -0.621151 -3.35542 0
M  V30 30 N 6.41462 -1.38388 -2.85037 0
M  V30 31 C 5.27156 -1.343 -2.16369 0
M  V30 32 H -1.09676 -1.27139 2.97626 0
M  V30 33 H 0.548761 -1.96795 2.71279 0
M  V30 34 H -0.641647 -1.69565 1.31897 0
M  V30 35 H 1.45708 1.43692 3.30386 0
M  V30 36 H -1.4478 0.502305 4.19411 0
M  V30 37 H -0.427935 1.84416 4.94707 0
M  V30 38 H 1.31454 0.11711 5.43309 0
M  V30 39 H 0.330715 -1.19466 4.58702 0
M  V30 40 H -4.39155 -0.716831 0.0264537 0
M  V30 41 H -6.85702 -1.22793 -0.406744 0
M  V30 42 H -7.85785 0.0524515 -1.13447 0
M  V30 43 H -7.56095 -1.87152 -2.67287 0
M  V30 44 H -5.79603 -1.77022 -2.54705 0
M  V30 45 H -6.87699 -0.752547 -4.50697 0
M  V30 46 H -7.51036 0.475936 -3.43925 0
M  V30 47 H -4.28478 3.38977 -1.05677 0
M  V30 48 H 2.03355 1.97628 1.31155 0
M  V30 49 H 4.12816 1.78866 -0.0645416 0
M  V30 50 H 3.48974 -2.35588 -0.48274 0
M  V30 51 H 1.41315 -2.17299 0.880297 0
M  V30 52 H 6.12555 1.15868 -0.124126 0
M  V30 53 H 9.45439 -1.23776 -3.04536 0
M  V30 54 H 8.81005 -0.0578694 -4.22318 0
M  V30 55 H 4.42243 -1.9948 -2.34147 0
M  V30 END ATOM
M  V30 BEGIN BOND
M  V30 1 1 2 1 CFG=1
M  V30 2 1 2 3
M  V30 3 1 3 4
M  V30 4 1 4 5
M  V30 5 1 2 6
M  V30 6 2 6 7
M  V30 7 1 7 8
M  V30 8 1 8 9
M  V30 9 2 9 10
M  V30 10 1 9 11
M  V30 11 2 11 12
M  V30 12 1 12 13
M  V30 13 1 13 14
M  V30 14 1 14 15
M  V30 15 1 15 16
M  V30 16 1 13 17
M  V30 17 2 17 18
M  V30 18 1 2 19
M  V30 19 2 19 20
M  V30 20 1 20 21
M  V30 21 2 21 22
M  V30 22 1 22 23
M  V30 23 2 23 24
M  V30 24 1 22 25
M  V30 25 2 25 26
M  V30 26 1 26 27
M  V30 27 2 27 28
M  V30 28 1 28 29
M  V30 29 1 28 30
M  V30 30 2 30 31
M  V30 31 1 5 3
M  V30 32 1 10 6
M  V30 33 1 18 11
M  V30 34 1 24 19
M  V30 35 1 31 25
M  V30 36 1 1 32
M  V30 37 1 1 33
M  V30 38 1 1 34
M  V30 39 1 3 35
M  V30 40 1 4 36
M  V30 41 1 4 37
M  V30 42 1 5 38
M  V30 43 1 5 39
M  V30 44 1 12 40
M  V30 45 1 14 41
M  V30 46 1 14 42
M  V30 47 1 15 43
M  V30 48 1 15 44
M  V30 49 1 16 45
M  V30 50 1 16 46
M  V30 51 1 18 47
M  V30 52 1 20 48
M  V30 53 1 21 49
M  V30 54 1 23 50
M  V30 55 1 24 51
M  V30 56 1 26 52
M  V30 57 1 29 53
M  V30 58 1 29 54
M  V30 59 1 31 55
M  V30 END BOND
M  V30 END CTAB
M  END
