
     RDKit          3D

  0  0  0  0  0  0  0  0  0  0999 V3000
M  V30 BEGIN CTAB
M  V30 COUNTS 23 23 0 0 0
M  V30 BEGIN ATOM
M  V30 1 N -4.13648 -0.735132 -0.278362 0
M  V30 2 C -2.75146 -0.38474 -0.203124 0
M  V30 3 C -1.75552 -1.27045 -0.554351 0
M  V30 4 C -0.409333 -0.937661 -0.484062 0
M  V30 5 C -0.0232563 0.313497 -0.0524538 0
M  V30 6 N -1.02874 1.15632 0.283981 0
M  V30 7 C -2.32801 0.856304 0.223811 0
M  V30 8 N 1.32453 0.741195 0.0439174 0
M  V30 9 S 2.69435 -0.204162 -0.378587 0
M  V30 10 O 3.86231 0.725794 -0.706246 0
M  V30 11 O 2.48654 -1.04689 -1.59031 0
M  V30 12 N 3.21206 -1.16152 0.958619 0
M  V30 13 C 1.54129 2.10973 0.54995 0
M  V30 14 H -4.8364 -0.190866 -0.80491 0
M  V30 15 H -4.42339 -1.59559 0.239631 0
M  V30 16 H -2.0692 -2.26176 -0.896248 0
M  V30 17 H 0.32361 -1.66024 -0.762201 0
M  V30 18 H -3.11 1.56527 0.504501 0
M  V30 19 H 2.54408 -1.93873 1.14187 0
M  V30 20 H 4.19509 -1.47987 0.865281 0
M  V30 21 H 1.4625 2.15629 1.63556 0
M  V30 22 H 2.48408 2.46184 0.121581 0
M  V30 23 H 0.74136 2.78138 0.142153 0
M  V30 END ATOM
M  V30 BEGIN BOND
M  V30 1 1 1 2
M  V30 2 2 2 3
M  V30 3 1 3 4
M  V30 4 2 4 5
M  V30 5 1 5 6
M  V30 6 2 6 7
M  V30 7 1 5 8
M  V30 8 1 8 9
M  V30 9 2 9 10
M  V30 10 2 9 11
M  V30 11 1 9 12
M  V30 12 1 8 13
M  V30 13 1 7 2
M  V30 14 1 1 14
M  V30 15 1 1 15
M  V30 16 1 3 16
M  V30 17 1 4 17
M  V30 18 1 7 18
M  V30 19 1 12 19
M  V30 20 1 12 20
M  V30 21 1 13 21
M  V30 22 1 13 22
M  V30 23 1 13 23
M  V30 END BOND
M  V30 END CTAB
M  END
