
     RDKit          3D

  0  0  0  0  0  0  0  0  0  0999 V3000
M  V30 BEGIN CTAB
M  V30 COUNTS 20 21 0 0 0
M  V30 BEGIN ATOM
M  V30 1 N 3.47367 -0.58306 -0.510499 0
M  V30 2 C 2.1113 -0.257816 -0.271966 0
M  V30 3 N 1.68862 0.995751 -0.0321242 0
M  V30 4 C 0.40208 1.32077 0.195799 0
M  V30 5 N -0.0212384 2.64074 0.44528 0
M  V30 6 C -0.566589 0.31785 0.18795 0
M  V30 7 C -2.02627 0.270937 0.391015 0
M  V30 8 N -2.41208 -0.968289 -0.238424 0
M  V30 9 C -1.2857 -1.87293 -0.0312254 0
M  V30 10 C -0.120519 -0.953884 -0.0579801 0
M  V30 11 N 1.18558 -1.23271 -0.281927 0
M  V30 12 H 4.27737 -0.122674 -0.0375838 0
M  V30 13 H 3.68567 -1.33179 -1.2044 0
M  V30 14 H 0.174902 3.1029 1.37754 0
M  V30 15 H -0.538482 3.19679 -0.281173 0
M  V30 16 H -2.54495 1.14997 -0.0371076 0
M  V30 17 H -2.24115 0.152564 1.48176 0
M  V30 18 H -2.68524 -0.88024 -1.2259 0
M  V30 19 H -1.18932 -2.61781 -0.836958 0
M  V30 20 H -1.36764 -2.32707 0.967933 0
M  V30 END ATOM
M  V30 BEGIN BOND
M  V30 1 1 1 2
M  V30 2 2 2 3
M  V30 3 1 3 4
M  V30 4 1 4 5
M  V30 5 2 4 6
M  V30 6 1 6 7
M  V30 7 1 7 8
M  V30 8 1 8 9
M  V30 9 1 9 10
M  V30 10 2 10 11
M  V30 11 1 11 2
M  V30 12 1 10 6
M  V30 13 1 1 12
M  V30 14 1 1 13
M  V30 15 1 5 14
M  V30 16 1 5 15
M  V30 17 1 7 16
M  V30 18 1 7 17
M  V30 19 1 8 18
M  V30 20 1 9 19
M  V30 21 1 9 20
M  V30 END BOND
M  V30 END CTAB
M  END
