
     RDKit          3D

  0  0  0  0  0  0  0  0  0  0999 V3000
M  V30 BEGIN CTAB
M  V30 COUNTS 28 28 0 0 0
M  V30 BEGIN ATOM
M  V30 1 C -2.21859 -1.44571 0.31328 0
M  V30 2 C -1.59641 -0.100687 0.0659899 0
M  V30 3 C -2.06979 0.429511 -1.28279 0
M  V30 4 C -2.07849 0.843474 1.13695 0
M  V30 5 C -0.13434 -0.131677 0.0914771 0
M  V30 6 C 0.638115 -1.19358 0.462691 0
M  V30 7 C 2.0247 -1.10079 0.380081 0
M  V30 8 N 2.8643 -2.17194 0.721969 0
M  V30 9 C 2.6441 0.0785053 -0.0716882 0
M  V30 10 C 1.86615 1.15727 -0.443447 0
M  V30 11 N 2.47336 2.36013 -0.903782 0
M  V30 12 C 0.490864 1.03142 -0.353183 0
M  V30 13 H -3.28167 -1.32387 0.134494 0
M  V30 14 H -2.0708 -1.74429 1.34246 0
M  V30 15 H -1.87934 -2.21527 -0.416315 0
M  V30 16 H -1.24808 0.869908 -1.87129 0
M  V30 17 H -2.83108 1.255 -1.13467 0
M  V30 18 H -2.56864 -0.393825 -1.84407 0
M  V30 19 H -3.1593 0.693728 1.3063 0
M  V30 20 H -1.92275 1.89479 0.7293 0
M  V30 21 H -1.46733 0.813635 2.04131 0
M  V30 22 H 0.158503 -2.08012 0.842124 0
M  V30 23 H 3.17852 -2.82959 -0.023969 0
M  V30 24 H 3.17825 -2.3287 1.69358 0
M  V30 25 H 3.71985 0.0977145 -0.115421 0
M  V30 26 H 2.14003 3.2925 -0.517442 0
M  V30 27 H 3.23355 2.32522 -1.61208 0
M  V30 28 H -0.0836867 1.91724 -0.671861 0
M  V30 END ATOM
M  V30 BEGIN BOND
M  V30 1 1 1 2
M  V30 2 1 2 3
M  V30 3 1 2 4
M  V30 4 1 2 5
M  V30 5 2 5 6
M  V30 6 1 6 7
M  V30 7 1 7 8
M  V30 8 2 7 9
M  V30 9 1 9 10
M  V30 10 1 10 11
M  V30 11 2 10 12
M  V30 12 1 12 5
M  V30 13 1 1 13
M  V30 14 1 1 14
M  V30 15 1 1 15
M  V30 16 1 3 16
M  V30 17 1 3 17
M  V30 18 1 3 18
M  V30 19 1 4 19
M  V30 20 1 4 20
M  V30 21 1 4 21
M  V30 22 1 6 22
M  V30 23 1 8 23
M  V30 24 1 8 24
M  V30 25 1 9 25
M  V30 26 1 11 26
M  V30 27 1 11 27
M  V30 28 1 12 28
M  V30 END BOND
M  V30 END CTAB
M  END
