
     RDKit          3D

  0  0  0  0  0  0  0  0  0  0999 V3000
M  V30 BEGIN CTAB
M  V30 COUNTS 38 39 0 0 0
M  V30 BEGIN ATOM
M  V30 1 C 2.86179 0.996183 -1.90636 0
M  V30 2 C 2.66102 0.708561 -0.471049 0
M  V30 3 C 3.56869 1.13172 0.47602 0
M  V30 4 C 3.39787 0.871682 1.81764 0
M  V30 5 C 2.26974 0.161765 2.19032 0
M  V30 6 C 1.33668 -0.279623 1.27105 0
M  V30 7 C 1.52621 -0.00781541 -0.0739977 0
M  V30 8 C 0.616067 -0.445595 -1.12435 0 CFG=1
M  V30 9 N 1.24404 -1.5615 -1.86135 0
M  V30 10 C -0.713901 -0.970613 -0.675707 0 CFG=2
M  V30 11 N -1.50169 -1.4159 -1.83987 0
M  V30 12 C -1.5295 0.0154232 0.0816718 0
M  V30 13 C -1.216 1.35225 0.0902234 0
M  V30 14 C -2.02295 2.23843 0.789395 0
M  V30 15 C -3.15227 1.79871 1.4881 0
M  V30 16 C -3.41563 0.458571 1.44492 0
M  V30 17 C -2.63226 -0.448558 0.758127 0
M  V30 18 C -3.00866 -1.88859 0.772154 0
M  V30 19 H 3.14734 0.0793158 -2.4623 0
M  V30 20 H 3.77016 1.658 -1.98213 0
M  V30 21 H 2.05883 1.56705 -2.37885 0
M  V30 22 H 4.4306 1.67865 0.156518 0
M  V30 23 H 4.10888 1.2023 2.56572 0
M  V30 24 H 2.12558 -0.051906 3.24031 0
M  V30 25 H 0.472831 -0.834685 1.59309 0
M  V30 26 H 0.499879 0.345079 -1.92694 0
M  V30 27 H 0.838786 -1.61226 -2.81904 0
M  V30 28 H 1.22647 -2.43718 -1.32814 0
M  V30 29 H -0.562381 -1.86066 -0.0559344 0
M  V30 30 H -1.41016 -2.43616 -1.98955 0
M  V30 31 H -1.32802 -0.827232 -2.67205 0
M  V30 32 H -0.368484 1.77937 -0.422388 0
M  V30 33 H -1.8273 3.29367 0.828843 0
M  V30 34 H -3.79124 2.46497 2.03625 0
M  V30 35 H -4.28323 0.0892689 1.97715 0
M  V30 36 H -3.46633 -2.21522 -0.193641 0
M  V30 37 H -3.78383 -2.06154 1.54424 0
M  V30 38 H -2.14762 -2.53593 1.06193 0
M  V30 END ATOM
M  V30 BEGIN BOND
M  V30 1 1 1 2
M  V30 2 2 2 3
M  V30 3 1 3 4
M  V30 4 2 4 5
M  V30 5 1 5 6
M  V30 6 2 6 7
M  V30 7 1 7 8
M  V30 8 1 8 9
M  V30 9 1 8 10
M  V30 10 1 10 11
M  V30 11 1 10 12
M  V30 12 2 12 13
M  V30 13 1 13 14
M  V30 14 2 14 15
M  V30 15 1 15 16
M  V30 16 2 16 17
M  V30 17 1 17 18
M  V30 18 1 7 2
M  V30 19 1 17 12
M  V30 20 1 1 19
M  V30 21 1 1 20
M  V30 22 1 1 21
M  V30 23 1 3 22
M  V30 24 1 4 23
M  V30 25 1 5 24
M  V30 26 1 6 25
M  V30 27 1 8 26 CFG=3
M  V30 28 1 9 27
M  V30 29 1 9 28
M  V30 30 1 10 29 CFG=1
M  V30 31 1 11 30
M  V30 32 1 11 31
M  V30 33 1 13 32
M  V30 34 1 14 33
M  V30 35 1 15 34
M  V30 36 1 16 35
M  V30 37 1 18 36
M  V30 38 1 18 37
M  V30 39 1 18 38
M  V30 END BOND
M  V30 END CTAB
M  END
