
     RDKit          3D

  0  0  0  0  0  0  0  0  0  0999 V3000
M  V30 BEGIN CTAB
M  V30 COUNTS 55 57 0 0 0
M  V30 BEGIN ATOM
M  V30 1 N -6.78808 1.44395 3.49467 0
M  V30 2 C -5.49702 0.823411 3.80033 0
M  V30 3 C -4.79051 0.475103 2.55713 0
M  V30 4 C -4.21444 0.168211 1.53491 0
M  V30 5 N -3.56953 -0.196188 0.345045 0
M  V30 6 C -2.13229 -0.342322 0.159135 0
M  V30 7 N -1.98541 -0.17969 -1.29478 0
M  V30 8 C -0.799743 0.22669 -1.99155 0 CFG=1
M  V30 9 C -0.314726 1.59178 -1.57836 0
M  V30 10 C 1.18387 1.44959 -1.87687 0
M  V30 11 C 1.39205 -0.00107398 -1.51563 0 CFG=1
M  V30 12 C 1.73225 -0.151274 -0.0432216 0
M  V30 13 O 2.91913 0.550697 0.221737 0
M  V30 14 P 3.3362 0.411352 1.84912 0
M  V30 15 O 4.06876 -1.0938 2.06041 0
M  V30 16 O 2.10024 0.543287 2.69515 0
M  V30 17 O 4.38093 1.67984 2.22684 0
M  V30 18 P 5.97597 1.18644 2.36723 0
M  V30 19 O 6.12229 -0.361245 3.01446 0
M  V30 20 O 6.76323 2.11969 3.28702 0
M  V30 21 O 6.72269 1.28361 0.84698 0
M  V30 22 P 8.08408 0.255075 0.827228 0
M  V30 23 O 9.353 1.00995 0.0248005 0
M  V30 24 O 7.59363 -1.16828 0.0364383 0
M  V30 25 O 8.45345 -0.0478413 2.26525 0
M  V30 26 O 0.244377 -0.6605 -1.84863 0
M  V30 27 C -3.22045 -0.492449 -1.92426 0
M  V30 28 C -4.16435 -0.497736 -0.918354 0
M  V30 29 C -5.46478 -0.780794 -1.287 0
M  V30 30 O -6.32647 -0.786034 -0.371313 0
M  V30 31 N -5.76039 -1.03433 -2.57451 0
M  V30 32 C -4.84248 -1.02986 -3.55697 0
M  V30 33 N -5.209 -1.30705 -4.91687 0
M  V30 34 N -3.57237 -0.755849 -3.21245 0
M  V30 35 H -7.19685 1.03613 2.61993 0
M  V30 36 H -6.65736 2.46341 3.31021 0
M  V30 37 H -5.73337 -0.096669 4.38958 0
M  V30 38 H -4.87243 1.52843 4.3752 0
M  V30 39 H -1.63066 0.509385 0.630289 0
M  V30 40 H -1.77545 -1.32642 0.479659 0
M  V30 41 H -1.01863 0.290124 -3.07468 0
M  V30 42 H -0.448905 1.80288 -0.515577 0
M  V30 43 H -0.710586 2.39564 -2.21692 0
M  V30 44 H 1.78925 2.14251 -1.2903 0
M  V30 45 H 1.36148 1.53698 -2.96871 0
M  V30 46 H 2.22735 -0.442332 -2.11695 0
M  V30 47 H 0.923815 0.304395 0.560975 0
M  V30 48 H 1.92223 -1.19532 0.222354 0
M  V30 49 H 4.41664 -1.4556 1.18887 0
M  V30 50 H 5.64362 -0.360531 3.87911 0
M  V30 51 H 9.41437 0.73068 -0.931574 0
M  V30 52 H 8.04569 -1.93715 0.455064 0
M  V30 53 H -6.76087 -1.24871 -2.83651 0
M  V30 54 H -4.80689 -2.09878 -5.45653 0
M  V30 55 H -5.90657 -0.702715 -5.40659 0
M  V30 END ATOM
M  V30 BEGIN BOND
M  V30 1 1 1 2
M  V30 2 1 2 3
M  V30 3 3 3 4
M  V30 4 1 4 5
M  V30 5 1 5 6
M  V30 6 1 6 7
M  V30 7 1 7 8
M  V30 8 1 8 9
M  V30 9 1 9 10
M  V30 10 1 10 11
M  V30 11 1 11 12
M  V30 12 1 12 13
M  V30 13 1 13 14
M  V30 14 1 14 15
M  V30 15 2 14 16
M  V30 16 1 14 17
M  V30 17 1 17 18
M  V30 18 1 18 19
M  V30 19 2 18 20
M  V30 20 1 18 21
M  V30 21 1 21 22
M  V30 22 1 22 23
M  V30 23 1 22 24
M  V30 24 2 22 25
M  V30 25 1 11 26
M  V30 26 1 7 27
M  V30 27 2 27 28
M  V30 28 1 28 29
M  V30 29 2 29 30
M  V30 30 1 29 31
M  V30 31 1 31 32
M  V30 32 1 32 33
M  V30 33 2 32 34
M  V30 34 1 28 5
M  V30 35 1 26 8
M  V30 36 1 34 27
M  V30 37 1 1 35
M  V30 38 1 1 36
M  V30 39 1 2 37
M  V30 40 1 2 38
M  V30 41 1 6 39
M  V30 42 1 6 40
M  V30 43 1 8 41 CFG=3
M  V30 44 1 9 42
M  V30 45 1 9 43
M  V30 46 1 10 44
M  V30 47 1 10 45
M  V30 48 1 11 46 CFG=3
M  V30 49 1 12 47
M  V30 50 1 12 48
M  V30 51 1 15 49
M  V30 52 1 19 50
M  V30 53 1 23 51
M  V30 54 1 24 52
M  V30 55 1 31 53
M  V30 56 1 33 54
M  V30 57 1 33 55
M  V30 END BOND
M  V30 END CTAB
M  END
