
     RDKit          3D

  0  0  0  0  0  0  0  0  0  0999 V3000
M  V30 BEGIN CTAB
M  V30 COUNTS 32 32 0 0 0
M  V30 BEGIN ATOM
M  V30 1 N -4.01387 0.995065 0.0439543 0
M  V30 2 C -3.06497 0.0530362 -0.496437 0
M  V30 3 C -1.66523 0.514012 -0.0518799 0
M  V30 4 C -0.654927 -0.400123 -0.623807 0
M  V30 5 C 0.76073 -0.0619719 -0.341507 0
M  V30 6 C 1.16318 1.03253 0.369674 0
M  V30 7 C 2.53917 1.21651 0.571235 0
M  V30 8 C 3.47359 0.345586 0.0793945 0
M  V30 9 C 3.06239 -0.760843 -0.643159 0
M  V30 10 C 1.72062 -0.961387 -0.850522 0
M  V30 11 N 4.87235 0.56947 0.311028 0
M  V30 12 O -0.787504 -0.425709 -2.02682 0
M  V30 13 C -0.806569 -1.83665 -0.132678 0
M  V30 14 C -1.65263 0.547823 1.46618 0
M  V30 15 H -3.60251 1.94216 0.0152999 0
M  V30 16 H -4.21312 0.7406 1.02578 0
M  V30 17 H -3.03795 0.134089 -1.61562 0
M  V30 18 H -3.30424 -0.964799 -0.177319 0
M  V30 19 H -1.5486 1.54114 -0.415924 0
M  V30 20 H 0.490099 1.77166 0.778567 0
M  V30 21 H 2.81351 2.11046 1.15166 0
M  V30 22 H 3.84372 -1.41813 -1.01243 0
M  V30 23 H 1.45737 -1.83452 -1.42153 0
M  V30 24 H 5.47259 0.872991 -0.471603 0
M  V30 25 H 5.1844 0.406997 1.30433 0
M  V30 26 H -1.19481 -1.28221 -2.32068 0
M  V30 27 H -0.148113 -1.95279 0.779197 0
M  V30 28 H -1.8174 -2.17012 0.0313345 0
M  V30 29 H -0.352334 -2.48142 -0.909431 0
M  V30 30 H -2.57723 0.0750018 1.84042 0
M  V30 31 H -0.741111 0.0849592 1.91171 0
M  V30 32 H -1.6706 1.59658 1.83158 0
M  V30 END ATOM
M  V30 BEGIN BOND
M  V30 1 1 1 2
M  V30 2 1 2 3
M  V30 3 1 3 4
M  V30 4 1 4 5
M  V30 5 2 5 6
M  V30 6 1 6 7
M  V30 7 2 7 8
M  V30 8 1 8 9
M  V30 9 2 9 10
M  V30 10 1 8 11
M  V30 11 1 4 12
M  V30 12 1 4 13
M  V30 13 1 3 14
M  V30 14 1 10 5
M  V30 15 1 1 15
M  V30 16 1 1 16
M  V30 17 1 2 17
M  V30 18 1 2 18
M  V30 19 1 3 19
M  V30 20 1 6 20
M  V30 21 1 7 21
M  V30 22 1 9 22
M  V30 23 1 10 23
M  V30 24 1 11 24
M  V30 25 1 11 25
M  V30 26 1 12 26
M  V30 27 1 13 27
M  V30 28 1 13 28
M  V30 29 1 13 29
M  V30 30 1 14 30
M  V30 31 1 14 31
M  V30 32 1 14 32
M  V30 END BOND
M  V30 END CTAB
M  END
