
     RDKit          3D

  0  0  0  0  0  0  0  0  0  0999 V3000
M  V30 BEGIN CTAB
M  V30 COUNTS 25 25 0 0 0
M  V30 BEGIN ATOM
M  V30 1 N 3.95994 0.00984984 -0.827394 0
M  V30 2 N 2.65115 -0.35291 -0.515168 0
M  V30 3 C 1.67707 0.471528 -0.394074 0
M  V30 4 C 0.304898 0.129214 -0.0705854 0
M  V30 5 C -0.595862 1.19742 0.0102226 0
M  V30 6 C -0.124619 2.59574 -0.231658 0
M  V30 7 C -1.91771 0.95511 0.313453 0
M  V30 8 C -2.37857 -0.32467 0.54111 0
M  V30 9 C -1.47652 -1.34943 0.455581 0
M  V30 10 C -0.12649 -1.14015 0.149788 0
M  V30 11 C 0.828256 -2.26364 0.063212 0
M  V30 12 N -3.74047 -0.603205 0.856495 0
M  V30 13 H 4.27667 0.97594 -1.03713 0
M  V30 14 H 4.67298 -0.745325 -0.851928 0
M  V30 15 H 1.98736 1.51581 -0.565347 0
M  V30 16 H -1.02391 3.2291 -0.361257 0
M  V30 17 H 0.408658 2.63177 -1.21036 0
M  V30 18 H 0.536493 2.95636 0.579671 0
M  V30 19 H -2.63094 1.77756 0.379826 0
M  V30 20 H -1.80881 -2.36061 0.628742 0
M  V30 21 H 1.6019 -2.2677 0.846753 0
M  V30 22 H 0.228165 -3.20199 0.272653 0
M  V30 23 H 1.21746 -2.44228 -0.965469 0
M  V30 24 H -4.5007 -0.0276509 0.423055 0
M  V30 25 H -4.0264 -1.36585 1.50981 0
M  V30 END ATOM
M  V30 BEGIN BOND
M  V30 1 1 1 2
M  V30 2 2 2 3
M  V30 3 1 3 4
M  V30 4 2 4 5
M  V30 5 1 5 6
M  V30 6 1 5 7
M  V30 7 2 7 8
M  V30 8 1 8 9
M  V30 9 2 9 10
M  V30 10 1 10 11
M  V30 11 1 8 12
M  V30 12 1 10 4
M  V30 13 1 1 13
M  V30 14 1 1 14
M  V30 15 1 3 15
M  V30 16 1 6 16
M  V30 17 1 6 17
M  V30 18 1 6 18
M  V30 19 1 7 19
M  V30 20 1 9 20
M  V30 21 1 11 21
M  V30 22 1 11 22
M  V30 23 1 11 23
M  V30 24 1 12 24
M  V30 25 1 12 25
M  V30 END BOND
M  V30 END CTAB
M  END
