
     RDKit          3D

  0  0  0  0  0  0  0  0  0  0999 V3000
M  V30 BEGIN CTAB
M  V30 COUNTS 48 49 0 0 0
M  V30 BEGIN ATOM
M  V30 1 C -2.37434 -0.232284 0.828032 0 CFG=1
M  V30 2 N -2.71928 1.12448 0.483819 0
M  V30 3 C -2.95288 -1.22487 -0.16381 0
M  V30 4 C -4.4467 -1.16953 -0.24016 0
M  V30 5 C -5.12989 -1.46432 1.07807 0
M  V30 6 C -6.63456 -1.36983 0.818619 0
M  V30 7 N -6.89658 -0.0342371 0.357934 0
M  V30 8 C -0.905846 -0.355332 0.895554 0
M  V30 9 O -0.463157 -1.51107 1.21204 0
M  V30 10 N -0.0728675 0.730381 0.627473 0
M  V30 11 C 1.38577 0.671196 0.676339 0 CFG=1
M  V30 12 C 1.88998 1.08514 -0.63405 0
M  V30 13 C 3.29333 1.13199 -0.907987 0
M  V30 14 C 4.04219 2.29224 -0.972288 0
M  V30 15 N 5.30555 1.99209 -1.24541 0
M  V30 16 C 5.4744 0.669672 -1.37553 0
M  V30 17 C 4.21634 0.120775 -1.16522 0
M  V30 18 C 4.03557 -1.2331 -1.22617 0
M  V30 19 C 5.10669 -2.04643 -1.497 0
M  V30 20 C 6.36991 -1.53792 -1.71139 0
M  V30 21 C 6.52924 -0.173644 -1.64534 0
M  V30 22 C 1.77013 1.6721 1.68631 0
M  V30 23 O 3.09789 1.87884 1.98725 0
M  V30 24 O 0.904252 2.34262 2.27972 0
M  V30 25 H -2.78767 -0.455147 1.85659 0
M  V30 26 H -2.30592 1.37234 -0.435861 0
M  V30 27 H -2.31817 1.75555 1.2033 0
M  V30 28 H -2.56463 -0.967906 -1.17041 0
M  V30 29 H -2.5987 -2.23996 0.13081 0
M  V30 30 H -4.74606 -1.93142 -1.01437 0
M  V30 31 H -4.74369 -0.181722 -0.636095 0
M  V30 32 H -4.8901 -2.48359 1.42621 0
M  V30 33 H -4.83631 -0.671503 1.79555 0
M  V30 34 H -6.87638 -2.15824 0.0899008 0
M  V30 35 H -7.16071 -1.61703 1.76521 0
M  V30 36 H -7.49507 0.468588 1.05377 0
M  V30 37 H -7.34315 -0.0927028 -0.589209 0
M  V30 38 H -0.485821 1.65665 0.372852 0
M  V30 39 H 1.59267 -0.369823 0.976165 0
M  V30 40 H 1.4113 2.06639 -0.883645 0
M  V30 41 H 1.42313 0.382927 -1.39879 0
M  V30 42 H 3.67186 3.31623 -0.823719 0
M  V30 43 H 6.07447 2.68871 -1.34732 0
M  V30 44 H 3.03693 -1.59829 -1.05313 0
M  V30 45 H 4.91803 -3.12842 -1.53723 0
M  V30 46 H 7.20428 -2.22182 -1.92593 0
M  V30 47 H 7.50538 0.249322 -1.80893 0
M  V30 48 H 3.48921 2.80191 2.18874 0
M  V30 END ATOM
M  V30 BEGIN BOND
M  V30 1 1 1 2
M  V30 2 1 1 3
M  V30 3 1 3 4
M  V30 4 1 4 5
M  V30 5 1 5 6
M  V30 6 1 6 7
M  V30 7 1 1 8
M  V30 8 2 8 9
M  V30 9 1 8 10
M  V30 10 1 10 11
M  V30 11 1 11 12
M  V30 12 1 12 13
M  V30 13 2 13 14
M  V30 14 1 14 15
M  V30 15 1 15 16
M  V30 16 2 16 17
M  V30 17 1 17 18
M  V30 18 2 18 19
M  V30 19 1 19 20
M  V30 20 2 20 21
M  V30 21 1 11 22
M  V30 22 1 22 23
M  V30 23 2 22 24
M  V30 24 1 17 13
M  V30 25 1 21 16
M  V30 26 1 1 25 CFG=1
M  V30 27 1 2 26
M  V30 28 1 2 27
M  V30 29 1 3 28
M  V30 30 1 3 29
M  V30 31 1 4 30
M  V30 32 1 4 31
M  V30 33 1 5 32
M  V30 34 1 5 33
M  V30 35 1 6 34
M  V30 36 1 6 35
M  V30 37 1 7 36
M  V30 38 1 7 37
M  V30 39 1 10 38
M  V30 40 1 11 39 CFG=1
M  V30 41 1 12 40
M  V30 42 1 12 41
M  V30 43 1 14 42
M  V30 44 1 15 43
M  V30 45 1 18 44
M  V30 46 1 19 45
M  V30 47 1 20 46
M  V30 48 1 21 47
M  V30 49 1 23 48
M  V30 END BOND
M  V30 END CTAB
M  END
