
     RDKit          3D

  0  0  0  0  0  0  0  0  0  0999 V3000
M  V30 BEGIN CTAB
M  V30 COUNTS 38 40 0 0 0
M  V30 BEGIN ATOM
M  V30 1 O 0.49684 -0.86211 1.88908 0
M  V30 2 C 0.395705 -1.66359 0.943293 0
M  V30 3 C -0.740116 -2.63253 1.01773 0
M  V30 4 S -1.88523 -2.42478 -0.354908 0
M  V30 5 C -2.74725 -0.875611 -0.297529 0
M  V30 6 N -3.62451 -0.610807 -1.28124 0
M  V30 7 C -4.34014 0.523675 -1.34754 0
M  V30 8 N -5.26907 0.822072 -2.37918 0
M  V30 9 C -4.17514 1.47973 -0.35591 0
M  V30 10 C -3.27842 1.2083 0.64892 0
M  V30 11 N -2.59395 0.0520835 0.654931 0
M  V30 12 N -3.11601 2.19426 1.66291 0
M  V30 13 C -1.4 -2.60824 2.36939 0
M  V30 14 N 1.29436 -1.66128 -0.134067 0
M  V30 15 C 2.40387 -0.81654 -0.351647 0
M  V30 16 C 3.27464 -1.12818 -1.41018 0
M  V30 17 C 4.37197 -0.354761 -1.70025 0
M  V30 18 C 4.67352 0.767534 -0.965716 0
M  V30 19 C 3.83732 1.09427 0.0747678 0
M  V30 20 C 2.72012 0.299445 0.36348 0
M  V30 21 O 4.36081 2.25746 0.646117 0
M  V30 22 C 5.10479 2.88742 -0.406072 0
M  V30 23 O 5.68833 1.725 -1.01656 0
M  V30 24 H -0.275093 -3.64342 0.898851 0
M  V30 25 H -5.00727 1.352 -3.23149 0
M  V30 26 H -6.2469 0.490871 -2.26343 0
M  V30 27 H -4.74758 2.40732 -0.392736 0
M  V30 28 H -3.32326 3.19768 1.47409 0
M  V30 29 H -2.78803 1.95197 2.61899 0
M  V30 30 H -1.77942 -1.5867 2.57253 0
M  V30 31 H -0.629671 -2.9388 3.10496 0
M  V30 32 H -2.20424 -3.36663 2.37305 0
M  V30 33 H 1.07016 -2.42121 -0.874076 0
M  V30 34 H 3.0644 -2.0021 -2.0042 0
M  V30 35 H 5.05077 -0.602804 -2.52998 0
M  V30 36 H 2.10794 0.605652 1.17568 0
M  V30 37 H 4.40185 3.29408 -1.15113 0
M  V30 38 H 5.85389 3.58928 -0.040922 0
M  V30 END ATOM
M  V30 BEGIN BOND
M  V30 1 2 1 2
M  V30 2 1 2 3
M  V30 3 1 3 4
M  V30 4 1 4 5
M  V30 5 2 5 6
M  V30 6 1 6 7
M  V30 7 1 7 8
M  V30 8 2 7 9
M  V30 9 1 9 10
M  V30 10 2 10 11
M  V30 11 1 10 12
M  V30 12 1 3 13
M  V30 13 1 2 14
M  V30 14 1 14 15
M  V30 15 2 15 16
M  V30 16 1 16 17
M  V30 17 2 17 18
M  V30 18 1 18 19
M  V30 19 2 19 20
M  V30 20 1 19 21
M  V30 21 1 21 22
M  V30 22 1 22 23
M  V30 23 1 11 5
M  V30 24 1 20 15
M  V30 25 1 23 18
M  V30 26 1 3 24
M  V30 27 1 8 25
M  V30 28 1 8 26
M  V30 29 1 9 27
M  V30 30 1 12 28
M  V30 31 1 12 29
M  V30 32 1 13 30
M  V30 33 1 13 31
M  V30 34 1 13 32
M  V30 35 1 14 33
M  V30 36 1 16 34
M  V30 37 1 17 35
M  V30 38 1 20 36
M  V30 39 1 22 37
M  V30 40 1 22 38
M  V30 END BOND
M  V30 END CTAB
M  END
