
     RDKit          3D

  0  0  0  0  0  0  0  0  0  0999 V3000
M  V30 BEGIN CTAB
M  V30 COUNTS 28 29 0 0 0
M  V30 BEGIN ATOM
M  V30 1 C -4.18962 1.94624 0.740333 0
M  V30 2 C -2.92423 1.26471 0.448879 0
M  V30 3 N -1.71177 1.80776 0.726245 0
M  V30 4 C -0.555796 1.1516 0.444355 0
M  V30 5 C -0.473736 -0.0854357 -0.129687 0
M  V30 6 C 0.760112 -0.584822 -0.337034 0
M  V30 7 N 1.03918 -1.88026 -0.934256 0
M  V30 8 C 1.82348 0.185044 0.0428544 0
M  V30 9 S 1.07803 1.58257 0.678112 0
M  V30 10 C 3.25436 -0.0820515 -0.0523956 0
M  V30 11 O 3.69506 -1.13936 -0.535512 0
M  V30 12 N 4.15499 0.893725 0.420009 0
M  V30 13 N 5.53233 0.697467 0.356639 0
M  V30 14 C -1.72395 -0.664117 -0.424397 0
M  V30 15 C -1.8191 -1.9977 -1.04691 0
M  V30 16 C -2.86821 0.0168619 -0.130722 0
M  V30 17 H -4.91492 1.17533 1.08168 0
M  V30 18 H -4.55523 2.41647 -0.201953 0
M  V30 19 H -4.11423 2.68498 1.55125 0
M  V30 20 H 1.18748 -2.67204 -0.256482 0
M  V30 21 H 1.08626 -2.00339 -1.95418 0
M  V30 22 H 3.8008 1.77922 0.824934 0
M  V30 23 H 5.991 1.3008 -0.357831 0
M  V30 24 H 5.79399 -0.311948 0.270511 0
M  V30 25 H -1.31345 -2.02106 -2.04074 0
M  V30 26 H -2.85533 -2.28289 -1.20608 0
M  V30 27 H -1.34296 -2.71982 -0.340642 0
M  V30 28 H -3.83453 -0.457873 -0.371307 0
M  V30 END ATOM
M  V30 BEGIN BOND
M  V30 1 1 1 2
M  V30 2 2 2 3
M  V30 3 1 3 4
M  V30 4 2 4 5
M  V30 5 1 5 6
M  V30 6 1 6 7
M  V30 7 2 6 8
M  V30 8 1 8 9
M  V30 9 1 8 10
M  V30 10 2 10 11
M  V30 11 1 10 12
M  V30 12 1 12 13
M  V30 13 1 5 14
M  V30 14 1 14 15
M  V30 15 2 14 16
M  V30 16 1 16 2
M  V30 17 1 9 4
M  V30 18 1 1 17
M  V30 19 1 1 18
M  V30 20 1 1 19
M  V30 21 1 7 20
M  V30 22 1 7 21
M  V30 23 1 12 22
M  V30 24 1 13 23
M  V30 25 1 13 24
M  V30 26 1 15 25
M  V30 27 1 15 26
M  V30 28 1 15 27
M  V30 29 1 16 28
M  V30 END BOND
M  V30 END CTAB
M  END
