
     RDKit          3D

  0  0  0  0  0  0  0  0  0  0999 V3000
M  V30 BEGIN CTAB
M  V30 COUNTS 94 95 0 0 0
M  V30 BEGIN ATOM
M  V30 1 C -7.2924 -2.991 0.8177 0 CFG=1
M  V30 2 C -7.88543 -2.89643 -0.554458 0
M  V30 3 O -6.19337 -3.83439 0.842918 0
M  V30 4 C -6.9071 -1.62141 1.30481 0 CFG=2
M  V30 5 N -5.87902 -1.0396 0.484047 0
M  V30 6 C -6.07491 0.178854 -0.183437 0
M  V30 7 O -7.17457 0.775312 -0.0535608 0
M  V30 8 C -5.06812 0.854622 -1.05833 0 CFG=2
M  V30 9 C -5.60555 1.24124 -2.39723 0
M  V30 10 C -5.44388 -0.0148949 -3.19733 0
M  V30 11 C -4.54445 -0.942212 -2.38286 0
M  V30 12 N -3.95961 -0.0120472 -1.38826 0
M  V30 13 C -2.6184 -0.0819973 -1.00733 0
M  V30 14 O -1.93269 -1.04477 -1.42019 0
M  V30 15 C -1.93272 0.952119 -0.1079 0 CFG=2
M  V30 16 C -1.79505 2.22972 -0.834811 0
M  V30 17 C -1.25601 3.41459 -0.12491 0
M  V30 18 C -1.2312 4.61871 -1.10742 0
M  V30 19 C 0.135422 3.29879 0.395068 0
M  V30 20 N -0.742404 0.264603 0.303358 0
M  V30 21 C 0.398028 -0.0381266 -0.436516 0
M  V30 22 O 0.39786 0.387538 -1.66192 0
M  V30 23 C 1.59331 -0.773604 -0.0443882 0 CFG=2
M  V30 24 C 2.09113 -0.885074 1.31261 0
M  V30 25 C 2.48427 0.264911 2.11954 0
M  V30 26 C 1.61438 0.763092 3.06554 0
M  V30 27 C 1.97963 1.84134 3.83215 0
M  V30 28 C 3.20582 2.4526 3.68645 0
M  V30 29 O 3.53545 3.5403 4.48172 0
M  V30 30 C 4.06741 1.93266 2.72594 0
M  V30 31 C 3.72531 0.860486 1.95138 0
M  V30 32 N 2.63522 -0.831699 -1.05539 0
M  V30 33 C 3.24016 0.221013 -1.74769 0
M  V30 34 O 2.91563 1.40793 -1.50964 0
M  V30 35 C 4.28702 0.0186827 -2.79526 0 CFG=1
M  V30 36 N 4.83078 1.3018 -3.23425 0
M  V30 37 C 5.31282 -0.99936 -2.487 0
M  V30 38 C 6.14184 -0.783643 -1.27219 0
M  V30 39 C 7.1741 -1.90539 -1.08762 0
M  V30 40 N 7.9355 -1.60841 0.118796 0
M  V30 41 C 8.98456 -2.47162 0.542623 0
M  V30 42 N 10.2804 -2.43554 -0.042357 0
M  V30 43 N 8.77158 -3.32077 1.48616 0
M  V30 44 C -6.498 -1.75335 2.71791 0
M  V30 45 O -7.35343 -2.29093 3.65765 0
M  V30 46 O -5.36181 -1.37366 3.07361 0
M  V30 47 H -8.03547 -3.40475 1.52771 0
M  V30 48 H -8.61019 -3.71977 -0.736445 0
M  V30 49 H -8.34884 -1.8996 -0.697705 0
M  V30 50 H -7.06765 -3.01053 -1.29677 0
M  V30 51 H -6.3438 -4.61399 0.248751 0
M  V30 52 H -7.83987 -0.987135 1.3133 0
M  V30 53 H -4.97878 -1.55229 0.412314 0
M  V30 54 H -4.75199 1.73464 -0.477613 0
M  V30 55 H -6.63197 1.64721 -2.38411 0
M  V30 56 H -4.92127 2.04815 -2.7902 0
M  V30 57 H -6.39296 -0.497476 -3.44901 0
M  V30 58 H -4.91754 0.242884 -4.13448 0
M  V30 59 H -3.74668 -1.37275 -3.00281 0
M  V30 60 H -5.12445 -1.73822 -1.90659 0
M  V30 61 H -2.6246 1.03238 0.747323 0
M  V30 62 H -2.829 2.54295 -1.19302 0
M  V30 63 H -1.18037 2.12686 -1.78222 0
M  V30 64 H -1.97266 3.7526 0.682455 0
M  V30 65 H -0.417287 4.48942 -1.84477 0
M  V30 66 H -0.976419 5.49438 -0.487725 0
M  V30 67 H -2.21066 4.7184 -1.60319 0
M  V30 68 H 0.1329 2.56598 1.19356 0
M  V30 69 H 0.795355 3.00887 -0.43205 0
M  V30 70 H 0.536107 4.29436 0.738326 0
M  V30 71 H -0.749115 -0.0718694 1.31492 0
M  V30 72 H 1.14031 -1.8965 -0.205192 0
M  V30 73 H 1.44175 -1.52215 1.9913 0
M  V30 74 H 3.03853 -1.54513 1.28996 0
M  V30 75 H 0.618981 0.290202 3.21172 0
M  V30 76 H 1.28252 2.21453 4.56712 0
M  V30 77 H 3.28807 4.4726 4.11993 0
M  V30 78 H 5.04025 2.4282 2.62082 0
M  V30 79 H 4.424 0.463861 1.19546 0
M  V30 80 H 3.02649 -1.79784 -1.33247 0
M  V30 81 H 3.77437 -0.361378 -3.74524 0
M  V30 82 H 3.99047 1.93101 -3.37404 0
M  V30 83 H 5.41681 1.73931 -2.50495 0
M  V30 84 H 6.03005 -1.01164 -3.36124 0
M  V30 85 H 4.83595 -2.00038 -2.52568 0
M  V30 86 H 5.45444 -0.930722 -0.389504 0
M  V30 87 H 6.57025 0.209925 -1.17895 0
M  V30 88 H 6.5833 -2.82998 -0.904943 0
M  V30 89 H 7.86012 -1.9724 -1.93547 0
M  V30 90 H 7.745 -0.766057 0.710996 0
M  V30 91 H 11.027 -1.93152 0.475101 0
M  V30 92 H 10.4635 -2.89125 -0.94044 0
M  V30 93 H 9.50573 -3.97575 1.83352 0
M  V30 94 H -8.33815 -2.01866 3.6081 0
M  V30 END ATOM
M  V30 BEGIN BOND
M  V30 1 1 1 2
M  V30 2 1 1 3
M  V30 3 1 1 4
M  V30 4 1 4 5
M  V30 5 1 5 6
M  V30 6 2 6 7
M  V30 7 1 6 8
M  V30 8 1 8 9
M  V30 9 1 9 10
M  V30 10 1 10 11
M  V30 11 1 11 12
M  V30 12 1 12 13
M  V30 13 2 13 14
M  V30 14 1 13 15
M  V30 15 1 15 16
M  V30 16 1 16 17
M  V30 17 1 17 18
M  V30 18 1 17 19
M  V30 19 1 15 20
M  V30 20 1 20 21
M  V30 21 2 21 22
M  V30 22 1 21 23
M  V30 23 1 23 24
M  V30 24 1 24 25
M  V30 25 2 25 26
M  V30 26 1 26 27
M  V30 27 2 27 28
M  V30 28 1 28 29
M  V30 29 1 28 30
M  V30 30 2 30 31
M  V30 31 1 23 32
M  V30 32 1 32 33
M  V30 33 2 33 34
M  V30 34 1 33 35
M  V30 35 1 35 36
M  V30 36 1 35 37
M  V30 37 1 37 38
M  V30 38 1 38 39
M  V30 39 1 39 40
M  V30 40 1 40 41
M  V30 41 1 41 42
M  V30 42 2 41 43 CFG=2
M  V30 43 1 4 44
M  V30 44 1 44 45
M  V30 45 2 44 46
M  V30 46 1 12 8
M  V30 47 1 31 25
M  V30 48 1 1 47 CFG=1
M  V30 49 1 2 48
M  V30 50 1 2 49
M  V30 51 1 2 50
M  V30 52 1 3 51
M  V30 53 1 4 52 CFG=1
M  V30 54 1 5 53
M  V30 55 1 8 54 CFG=1
M  V30 56 1 9 55
M  V30 57 1 9 56
M  V30 58 1 10 57
M  V30 59 1 10 58
M  V30 60 1 11 59
M  V30 61 1 11 60
M  V30 62 1 15 61 CFG=1
M  V30 63 1 16 62
M  V30 64 1 16 63
M  V30 65 1 17 64
M  V30 66 1 18 65
M  V30 67 1 18 66
M  V30 68 1 18 67
M  V30 69 1 19 68
M  V30 70 1 19 69
M  V30 71 1 19 70
M  V30 72 1 20 71
M  V30 73 1 23 72 CFG=3
M  V30 74 1 24 73
M  V30 75 1 24 74
M  V30 76 1 26 75
M  V30 77 1 27 76
M  V30 78 1 29 77
M  V30 79 1 30 78
M  V30 80 1 31 79
M  V30 81 1 32 80
M  V30 82 1 35 81 CFG=3
M  V30 83 1 36 82
M  V30 84 1 36 83
M  V30 85 1 37 84
M  V30 86 1 37 85
M  V30 87 1 38 86
M  V30 88 1 38 87
M  V30 89 1 39 88
M  V30 90 1 39 89
M  V30 91 1 40 90
M  V30 92 1 42 91
M  V30 93 1 42 92
M  V30 94 1 43 93
M  V30 95 1 45 94
M  V30 END BOND
M  V30 END CTAB
M  END
