
     RDKit          3D

  0  0  0  0  0  0  0  0  0  0999 V3000
M  V30 BEGIN CTAB
M  V30 COUNTS 20 21 0 0 0
M  V30 BEGIN ATOM
M  V30 1 N 3.35227 -0.331201 -0.326841 0
M  V30 2 C 2.02963 -0.325665 -0.827271 0
M  V30 3 N 1.60786 -0.562817 -2.09507 0
M  V30 4 N 0.29602 -0.454329 -2.11365 0
M  V30 5 C -0.164997 -0.15006 -0.88564 0
M  V30 6 N 0.916675 -0.0750335 -0.107438 0
M  V30 7 N 0.93724 0.219346 1.26424 0
M  V30 8 C -1.57774 0.0548891 -0.498795 0
M  V30 9 C -1.91208 1.32187 0.205194 0
M  V30 10 S -3.18354 0.39575 1.14384 0
M  V30 11 C -2.08645 -0.907027 0.577757 0
M  V30 12 H 3.59168 -0.809934 0.553244 0
M  V30 13 H 4.0896 0.155991 -0.858091 0
M  V30 14 H 1.05439 1.23119 1.51307 0
M  V30 15 H 0.841849 -0.531742 1.95402 0
M  V30 16 H -2.23578 -0.0681656 -1.38513 0
M  V30 17 H -2.33983 2.11822 -0.447411 0
M  V30 18 H -1.20186 1.75351 0.898725 0
M  V30 19 H -1.3308 -1.27128 1.26841 0
M  V30 20 H -2.68416 -1.76351 0.166859 0
M  V30 END ATOM
M  V30 BEGIN BOND
M  V30 1 1 1 2
M  V30 2 2 2 3
M  V30 3 1 3 4
M  V30 4 2 4 5
M  V30 5 1 5 6
M  V30 6 1 6 7
M  V30 7 1 5 8
M  V30 8 1 8 9
M  V30 9 1 9 10
M  V30 10 1 10 11
M  V30 11 1 6 2
M  V30 12 1 11 8
M  V30 13 1 1 12
M  V30 14 1 1 13
M  V30 15 1 7 14
M  V30 16 1 7 15
M  V30 17 1 8 16
M  V30 18 1 9 17
M  V30 19 1 9 18
M  V30 20 1 11 19
M  V30 21 1 11 20
M  V30 END BOND
M  V30 END CTAB
M  END
