
     RDKit          3D

  0  0  0  0  0  0  0  0  0  0999 V3000
M  V30 BEGIN CTAB
M  V30 COUNTS 27 28 0 0 0
M  V30 BEGIN ATOM
M  V30 1 H -4.50769 -1.39334 -0.618464 0 MASS=2
M  V30 2 C -3.58048 -0.883777 -0.349734 0
M  V30 3 C -2.41053 -1.49193 -0.767552 0
M  V30 4 H -2.42645 -2.42526 -1.3315 0 MASS=2
M  V30 5 C -1.22783 -0.863761 -0.437973 0
M  V30 6 O -0.0137003 -1.43619 -0.836058 0
M  V30 7 C 1.19732 -0.835001 -0.524055 0
M  V30 8 C 1.73666 0.0783598 -1.40492 0
M  V30 9 H 1.25 0.341794 -2.32807 0 MASS=2
M  V30 10 C 2.94304 0.699411 -1.12913 0
M  V30 11 H 3.37515 1.41403 -1.80776 0 MASS=2
M  V30 12 C 3.6203 0.403141 0.0444276 0
M  V30 13 N 4.85406 1.01438 0.364265 0
M  V30 14 C 3.05723 -0.522414 0.91984 0
M  V30 15 H 3.57268 -0.774125 1.85445 0 MASS=2
M  V30 16 C 1.85503 -1.13596 0.63655 0
M  V30 17 H 1.46795 -1.85344 1.36661 0 MASS=2
M  V30 18 C -1.21455 0.316142 0.27526 0
M  V30 19 H -0.279749 0.820826 0.540702 0 MASS=2
M  V30 20 C -2.40747 0.910177 0.685509 0
M  V30 21 H -2.3991 1.82757 1.24014 0 MASS=2
M  V30 22 C -3.60275 0.296052 0.36497 0
M  V30 23 N -4.8515 0.868102 0.764302 0
M  V30 24 H 4.87783 1.80081 1.03919 0
M  V30 25 H 5.73513 0.686117 -0.0675612 0
M  V30 26 H -4.89049 1.60962 1.47485 0
M  V30 27 H -5.73008 0.528682 0.329599 0
M  V30 END ATOM
M  V30 BEGIN BOND
M  V30 1 1 1 2
M  V30 2 2 2 3
M  V30 3 1 3 4
M  V30 4 1 3 5
M  V30 5 1 5 6
M  V30 6 1 6 7
M  V30 7 2 7 8
M  V30 8 1 8 9
M  V30 9 1 8 10
M  V30 10 1 10 11
M  V30 11 2 10 12
M  V30 12 1 12 13
M  V30 13 1 12 14
M  V30 14 1 14 15
M  V30 15 2 14 16
M  V30 16 1 16 17
M  V30 17 2 5 18
M  V30 18 1 18 19
M  V30 19 1 18 20
M  V30 20 1 20 21
M  V30 21 2 20 22
M  V30 22 1 22 23
M  V30 23 1 22 2
M  V30 24 1 16 7
M  V30 25 1 13 24
M  V30 26 1 13 25
M  V30 27 1 23 26
M  V30 28 1 23 27
M  V30 END BOND
M  V30 END CTAB
M  END
