
     RDKit          3D

  0  0  0  0  0  0  0  0  0  0999 V3000
M  V30 BEGIN CTAB
M  V30 COUNTS 37 39 0 0 0
M  V30 BEGIN ATOM
M  V30 1 N 5.55814 2.18253 0.532821 0
M  V30 2 C 4.65947 1.30856 -0.139523 0
M  V30 3 C 4.81132 1.06567 -1.49272 0
M  V30 4 C 3.95207 0.220884 -2.16999 0
M  V30 5 C 2.91368 -0.404112 -1.50152 0
M  V30 6 C 2.74408 -0.176754 -0.155077 0
M  V30 7 C 3.61682 0.67357 0.503805 0
M  V30 8 C 1.70048 -0.810627 0.495135 0
M  V30 9 O 1.59957 -0.563067 1.72129 0
M  V30 10 N 0.849289 -1.63493 -0.129419 0
M  V30 11 C 1.04423 -1.83446 -1.44455 0
M  V30 12 N 2.05672 -1.23082 -2.11759 0
M  V30 13 C -0.232739 -2.27505 0.58655 0
M  V30 14 C -1.48832 -1.54402 0.605326 0
M  V30 15 C -1.80183 -0.710837 1.64388 0
M  V30 16 C -2.99013 -0.012934 1.6629 0
M  V30 17 C -3.89269 -0.132635 0.642957 0
M  V30 18 C -3.58739 -0.970793 -0.410753 0
M  V30 19 C -2.38616 -1.67206 -0.423395 0
M  V30 20 S -5.39493 0.756073 0.677307 0
M  V30 21 O -6.41881 -0.0777417 -0.0694181 0
M  V30 22 O -5.81917 0.921624 2.10268 0
M  V30 23 N -5.16947 2.287 -0.0910064 0
M  V30 24 H 6.58127 2.13458 0.368588 0
M  V30 25 H 5.23441 2.9135 1.22283 0
M  V30 26 H 5.62679 1.56284 -1.99385 0
M  V30 27 H 4.08079 0.0361039 -3.23776 0
M  V30 28 H 3.48151 0.850929 1.5629 0
M  V30 29 H 0.396901 -2.48234 -1.99784 0
M  V30 30 H 0.100706 -2.52255 1.63912 0
M  V30 31 H -0.327143 -3.29768 0.112187 0
M  V30 32 H -1.16007 -0.541247 2.51069 0
M  V30 33 H -3.23335 0.645776 2.48799 0
M  V30 34 H -4.31565 -1.05052 -1.20676 0
M  V30 35 H -2.22688 -2.30584 -1.28596 0
M  V30 36 H -4.50163 2.2254 -0.892076 0
M  V30 37 H -6.0619 2.75666 -0.319739 0
M  V30 END ATOM
M  V30 BEGIN BOND
M  V30 1 1 1 2
M  V30 2 2 2 3
M  V30 3 1 3 4
M  V30 4 2 4 5
M  V30 5 1 5 6
M  V30 6 2 6 7
M  V30 7 1 6 8
M  V30 8 2 8 9
M  V30 9 1 8 10
M  V30 10 1 10 11
M  V30 11 2 11 12
M  V30 12 1 10 13
M  V30 13 1 13 14
M  V30 14 2 14 15
M  V30 15 1 15 16
M  V30 16 2 16 17
M  V30 17 1 17 18
M  V30 18 2 18 19
M  V30 19 1 17 20
M  V30 20 2 20 21
M  V30 21 2 20 22
M  V30 22 1 20 23
M  V30 23 1 7 2
M  V30 24 1 19 14
M  V30 25 1 12 5
M  V30 26 1 1 24
M  V30 27 1 1 25
M  V30 28 1 3 26
M  V30 29 1 4 27
M  V30 30 1 7 28
M  V30 31 1 11 29
M  V30 32 1 13 30
M  V30 33 1 13 31
M  V30 34 1 15 32
M  V30 35 1 16 33
M  V30 36 1 18 34
M  V30 37 1 19 35
M  V30 38 1 23 36
M  V30 39 1 23 37
M  V30 END BOND
M  V30 END CTAB
M  END
