
     RDKit          3D

  0  0  0  0  0  0  0  0  0  0999 V3000
M  V30 BEGIN CTAB
M  V30 COUNTS 37 39 0 0 0
M  V30 BEGIN ATOM
M  V30 1 C -3.87856 -3.25038 -1.07046 0
M  V30 2 O -2.74581 -2.52009 -0.727065 0
M  V30 3 C -2.377 -1.29922 -1.20569 0
M  V30 4 C -3.17285 -0.669195 -2.13348 0
M  V30 5 C -2.77028 0.552851 -2.59055 0
M  V30 6 C -1.59004 1.14079 -2.12071 0
M  V30 7 C -0.823512 0.492298 -1.19124 0
M  V30 8 C -1.18959 -0.737067 -0.723568 0
M  V30 9 O -0.394592 -1.43318 0.168751 0
M  V30 10 C 0.818388 -0.969119 0.638224 0
M  V30 11 C 1.24038 0.259589 0.201076 0
M  V30 12 C 0.285941 1.2179 -0.46193 0
M  V30 13 C -0.492933 1.91213 0.653834 0
M  V30 14 C 0.336281 2.65781 1.5483 0
M  V30 15 N 0.966001 3.28912 2.31511 0
M  V30 16 C -1.53883 2.77308 0.105869 0
M  V30 17 N -2.38778 3.49957 -0.281204 0
M  V30 18 C 2.47522 0.707062 0.602772 0
M  V30 19 N 3.11007 1.88843 0.138931 0
M  V30 20 C 3.24924 -0.0928101 1.45689 0
M  V30 21 C 4.54184 0.341801 1.90166 0
M  V30 22 N 5.57386 0.705296 2.27097 0
M  V30 23 C 2.80535 -1.32431 1.90423 0
M  V30 24 N 3.59503 -2.12385 2.77563 0
M  V30 25 N 1.58924 -1.72368 1.47142 0
M  V30 26 H -4.22096 -3.94105 -0.284172 0
M  V30 27 H -3.76168 -3.73955 -2.06567 0
M  V30 28 H -4.72467 -2.51499 -1.20993 0
M  V30 29 H -4.09292 -1.08427 -2.51863 0
M  V30 30 H -3.33706 1.10196 -3.31865 0
M  V30 31 H -1.26817 2.0799 -2.51058 0
M  V30 32 H 0.722971 1.95417 -1.0955 0
M  V30 33 H -1.02885 1.06355 1.16706 0
M  V30 34 H 3.67195 2.4564 0.81517 0
M  V30 35 H 3.01368 2.17786 -0.857432 0
M  V30 36 H 3.72617 -3.1455 2.63414 0
M  V30 37 H 4.07449 -1.7033 3.59642 0
M  V30 END ATOM
M  V30 BEGIN BOND
M  V30 1 1 1 2
M  V30 2 1 2 3
M  V30 3 2 3 4
M  V30 4 1 4 5
M  V30 5 2 5 6
M  V30 6 1 6 7
M  V30 7 2 7 8
M  V30 8 1 8 9
M  V30 9 1 9 10
M  V30 10 2 10 11
M  V30 11 1 11 12
M  V30 12 1 12 13
M  V30 13 1 13 14
M  V30 14 3 14 15
M  V30 15 1 13 16
M  V30 16 3 16 17
M  V30 17 1 11 18
M  V30 18 1 18 19
M  V30 19 2 18 20
M  V30 20 1 20 21
M  V30 21 3 21 22
M  V30 22 1 20 23
M  V30 23 1 23 24
M  V30 24 2 23 25
M  V30 25 1 8 3
M  V30 26 1 25 10
M  V30 27 1 12 7
M  V30 28 1 1 26
M  V30 29 1 1 27
M  V30 30 1 1 28
M  V30 31 1 4 29
M  V30 32 1 5 30
M  V30 33 1 6 31
M  V30 34 1 12 32
M  V30 35 1 13 33
M  V30 36 1 19 34
M  V30 37 1 19 35
M  V30 38 1 24 36
M  V30 39 1 24 37
M  V30 END BOND
M  V30 END CTAB
M  END
