
     RDKit          3D

  0  0  0  0  0  0  0  0  0  0999 V3000
M  V30 BEGIN CTAB
M  V30 COUNTS 32 33 0 0 0
M  V30 BEGIN ATOM
M  V30 1 N 4.43802 -0.616434 -0.788764 0
M  V30 2 C 3.04049 -0.46536 -0.628172 0
M  V30 3 C 2.22284 -0.339194 -1.72175 0
M  V30 4 C 0.878146 -0.194514 -1.5417 0
M  V30 5 C 0.305299 -0.171161 -0.259058 0
M  V30 6 C 1.13418 -0.29798 0.807672 0
M  V30 7 C 2.48989 -0.443696 0.625327 0
M  V30 8 C 0.628843 -0.291772 2.15477 0
M  V30 9 O 1.48487 -0.421136 3.23122 0
M  V30 10 O -0.586767 -0.170208 2.38253 0
M  V30 11 C -1.12142 -0.0242953 -0.191313 0
M  V30 12 C -1.72116 1.19627 -0.121913 0
M  V30 13 C -3.1284 1.2334 -0.0608721 0
M  V30 14 C -3.90438 0.102438 -0.0690268 0
M  V30 15 C -3.27951 -1.13154 -0.140406 0
M  V30 16 C -1.90036 -1.1775 -0.200446 0
M  V30 17 N -1.21528 -2.41588 -0.277816 0
M  V30 18 C -0.98495 2.43439 -0.118318 0
M  V30 19 O -1.65479 3.64631 -0.0419164 0
M  V30 20 O 0.250994 2.45403 -0.182434 0
M  V30 21 H 5.09428 0.134846 -0.460399 0
M  V30 22 H 4.8939 -1.44898 -1.22579 0
M  V30 23 H 2.69044 -0.360602 -2.69496 0
M  V30 24 H 0.262246 -0.0974728 -2.42895 0
M  V30 25 H 3.16418 -0.546565 1.49028 0
M  V30 26 H 2.13018 0.340116 3.47809 0
M  V30 27 H -3.62 2.20562 -0.0047118 0
M  V30 28 H -4.9865 0.163656 -0.020858 0
M  V30 29 H -3.8438 -2.05885 -0.150288 0
M  V30 30 H -0.98341 -2.9054 -1.15569 0
M  V30 31 H -0.923883 -2.86591 0.61723 0
M  V30 32 H -1.25421 4.53338 -0.30157 0
M  V30 END ATOM
M  V30 BEGIN BOND
M  V30 1 1 1 2
M  V30 2 2 2 3
M  V30 3 1 3 4
M  V30 4 2 4 5
M  V30 5 1 5 6
M  V30 6 2 6 7
M  V30 7 1 6 8
M  V30 8 1 8 9
M  V30 9 2 8 10
M  V30 10 1 5 11
M  V30 11 2 11 12
M  V30 12 1 12 13
M  V30 13 2 13 14
M  V30 14 1 14 15
M  V30 15 2 15 16
M  V30 16 1 16 17
M  V30 17 1 12 18
M  V30 18 1 18 19
M  V30 19 2 18 20
M  V30 20 1 7 2
M  V30 21 1 16 11
M  V30 22 1 1 21
M  V30 23 1 1 22
M  V30 24 1 3 23
M  V30 25 1 4 24
M  V30 26 1 7 25
M  V30 27 1 9 26
M  V30 28 1 13 27
M  V30 29 1 14 28
M  V30 30 1 15 29
M  V30 31 1 17 30
M  V30 32 1 17 31
M  V30 33 1 19 32
M  V30 END BOND
M  V30 END CTAB
M  END
