
     RDKit          3D

  0  0  0  0  0  0  0  0  0  0999 V3000
M  V30 BEGIN CTAB
M  V30 COUNTS 36 37 0 0 0
M  V30 BEGIN ATOM
M  V30 1 N 2.11348 -1.11606 -0.497957 0
M  V30 2 C 3.4028 -0.526981 -0.0576753 0
M  V30 3 N 4.46239 -1.13238 -0.199838 0
M  V30 4 C 5.65491 -0.400432 0.310713 0
M  V30 5 N 6.87316 -1.13604 0.169413 0
M  V30 6 C 5.41245 0.715263 0.804577 0
M  V30 7 Cl 6.92224 1.58046 1.51914 0
M  V30 8 N 4.23378 1.45849 1.00685 0
M  V30 9 C 3.17922 0.690679 0.490644 0
M  V30 10 C 1.88596 1.21285 0.202471 0
M  V30 11 O 1.4588 1.2744 -1.00555 0
M  V30 12 N 0.829403 1.70717 1.10736 0
M  V30 13 C -0.276789 2.21489 0.420057 0
M  V30 14 N -1.25244 2.60271 0.0639766 0
M  V30 15 N -1.31035 0.894124 1.30056 0
M  V30 16 C -2.18003 0.535285 0.325609 0
M  V30 17 C -3.44677 -0.323949 0.633562 0
M  V30 18 C -3.42751 -1.68952 0.557369 0
M  V30 19 C -4.66461 -2.34288 0.4352 0
M  V30 20 C -5.88939 -1.6437 0.373415 0
M  V30 21 C -5.84303 -0.251827 0.468074 0
M  V30 22 C -4.62727 0.345638 0.587632 0
M  V30 23 Cl -4.66904 2.08699 0.832778 0
M  V30 24 H 1.42713 -1.48704 0.18902 0
M  V30 25 H 1.98212 -1.07814 -1.5506 0
M  V30 26 H 6.96303 -1.8585 -0.594502 0
M  V30 27 H 7.66999 -1.04163 0.797785 0
M  V30 28 H 0.961673 1.60756 2.14515 0
M  V30 29 H -2.01875 2.95172 -0.412433 0
M  V30 30 H -0.971213 0.828294 2.12241 0
M  V30 31 H -1.54584 -0.32257 -0.302181 0
M  V30 32 H -2.43831 1.17471 -0.528726 0
M  V30 33 H -2.55574 -2.2506 0.627247 0
M  V30 34 H -4.7291 -3.42908 0.380649 0
M  V30 35 H -6.83611 -2.15849 0.249888 0
M  V30 36 H -6.75027 0.308589 0.430808 0
M  V30 END ATOM
M  V30 BEGIN BOND
M  V30 1 1 1 2
M  V30 2 2 2 3
M  V30 3 1 3 4
M  V30 4 1 4 5
M  V30 5 2 4 6
M  V30 6 1 6 7
M  V30 7 1 6 8
M  V30 8 2 8 9
M  V30 9 1 9 10
M  V30 10 2 10 11
M  V30 11 1 10 12
M  V30 12 1 12 13
M  V30 13 2 13 14 CFG=2
M  V30 14 1 13 15
M  V30 15 1 15 16
M  V30 16 1 16 17
M  V30 17 2 17 18
M  V30 18 1 18 19
M  V30 19 2 19 20
M  V30 20 1 20 21
M  V30 21 2 21 22
M  V30 22 1 22 23
M  V30 23 1 9 2
M  V30 24 1 22 17
M  V30 25 1 1 24
M  V30 26 1 1 25
M  V30 27 1 5 26
M  V30 28 1 5 27
M  V30 29 1 12 28
M  V30 30 1 14 29
M  V30 31 1 15 30
M  V30 32 1 16 31
M  V30 33 1 16 32
M  V30 34 1 18 33
M  V30 35 1 19 34
M  V30 36 1 20 35
M  V30 37 1 21 36
M  V30 END BOND
M  V30 END CTAB
M  END
