
     RDKit          3D

  0  0  0  0  0  0  0  0  0  0999 V3000
M  V30 BEGIN CTAB
M  V30 COUNTS 93 96 0 0 0
M  V30 BEGIN ATOM
M  V30 1 C -2.72165 -2.7547 -2.65474 0
M  V30 2 N -3.01678 -3.35848 -1.41567 0
M  V30 3 C -2.99271 -2.59056 -0.231645 0 CFG=2
M  V30 4 C -1.67964 -2.00548 0.178539 0 CFG=2
M  V30 5 O -1.03019 -1.39174 -0.822046 0
M  V30 6 C -0.481729 -0.139583 -0.575818 0 CFG=1
M  V30 7 C 0.949301 -0.221231 -0.972416 0 CFG=2
M  V30 8 O 1.84733 0.678516 -0.55678 0
M  V30 9 C 2.98739 0.227474 0.00971125 0 CFG=1
M  V30 10 C 4.0796 0.44267 -1.06574 0 CFG=2
M  V30 11 O 4.19462 -0.695984 -1.87789 0
M  V30 12 C 5.36594 0.94017 -0.544131 0 CFG=1
M  V30 13 O 5.39622 2.35558 -0.727725 0
M  V30 14 C 5.80822 0.560332 0.81912 0 CFG=2
M  V30 15 N 6.96272 -0.324741 0.803703 0
M  V30 16 C 7.01098 -1.58761 0.179551 0
M  V30 17 N 6.57968 -2.72847 0.887696 0
M  V30 18 N 7.44844 -1.71375 -1.01884 0
M  V30 19 C 4.74319 0.0867804 1.74438 0 CFG=1
M  V30 20 O 5.03776 0.46132 3.03043 0
M  V30 21 C 3.45067 0.799068 1.30475 0 CFG=2
M  V30 22 N 2.55023 0.803239 2.39674 0
M  V30 23 C 1.4183 1.65271 2.52433 0
M  V30 24 N 1.42436 2.98748 2.05518 0
M  V30 25 N 0.371637 1.2061 3.08623 0
M  V30 26 O 0.841537 -0.338176 -2.36442 0
M  V30 27 C 0.0337477 0.731606 -2.69733 0 CFG=1
M  V30 28 C -0.675838 0.36936 -3.97682 0
M  V30 29 C -0.944761 0.945118 -1.53156 0 CFG=1
M  V30 30 O -2.20338 0.807766 -2.01634 0
M  V30 31 C -0.641992 2.29502 -1.00368 0
M  V30 32 N -1.50636 3.14959 -0.632116 0
M  V30 33 N -2.88086 3.03568 -0.628672 0
M  V30 34 C -3.62911 4.18681 -1.00435 0
M  V30 35 O -3.05377 5.2816 -1.3304 0
M  V30 36 C -5.08531 4.19942 -1.04341 0
M  V30 37 C -5.79802 5.38048 -1.21233 0
M  V30 38 C -7.15471 5.45569 -1.26171 0
M  V30 39 N -7.88463 4.3213 -1.14158 0
M  V30 40 C -7.2358 3.15619 -0.97701 0
M  V30 41 C -5.85926 3.05633 -0.923589 0
M  V30 42 O -0.868546 -3.09546 0.671061 0
M  V30 43 C -1.31501 -3.42812 1.93841 0 CFG=1
M  V30 44 C -0.641259 -2.6069 3.0196 0
M  V30 45 O -1.18618 -3.04074 4.23668 0
M  V30 46 C -2.78377 -3.32477 2.15442 0 CFG=2
M  V30 47 O -3.26324 -4.26811 3.06833 0
M  V30 48 C -3.52707 -3.51773 0.87836 0 CFG=1
M  V30 49 O -4.86394 -3.22249 1.07733 0
M  V30 50 H -3.02148 -3.44608 -3.49595 0
M  V30 51 H -3.19007 -1.76192 -2.81084 0
M  V30 52 H -1.63091 -2.63016 -2.78486 0
M  V30 53 H -3.08885 -4.36874 -1.35645 0
M  V30 54 H -3.78551 -1.79215 -0.343853 0
M  V30 55 H -1.81546 -1.41326 1.10774 0
M  V30 56 H -0.665349 0.205812 0.437576 0
M  V30 57 H 1.33031 -1.24835 -0.674426 0
M  V30 58 H 3.02005 -0.8956 0.122644 0
M  V30 59 H 3.6885 1.22491 -1.78728 0
M  V30 60 H 4.04867 -1.52881 -1.36187 0
M  V30 61 H 6.14563 0.60374 -1.31545 0
M  V30 62 H 4.7468 2.62677 -1.43039 0
M  V30 63 H 6.19568 1.52893 1.29745 0
M  V30 64 H 7.84163 -0.0170433 1.29171 0
M  V30 65 H 5.58234 -3.00344 0.874382 0
M  V30 66 H 7.26172 -3.29736 1.42409 0
M  V30 67 H 7.47427 -2.65339 -1.45743 0
M  V30 68 H 4.59172 -1.01101 1.7532 0
M  V30 69 H 4.74597 1.3485 3.30526 0
M  V30 70 H 3.81083 1.84428 1.05882 0
M  V30 71 H 2.71174 0.127936 3.19548 0
M  V30 72 H 1.10542 3.73411 2.70923 0
M  V30 73 H 1.72325 3.28374 1.10488 0
M  V30 74 H -0.461383 1.81745 3.18465 0
M  V30 75 H 0.666311 1.61067 -2.88454 0
M  V30 76 H -0.218078 0.922784 -4.84863 0
M  V30 77 H -1.73974 0.660086 -3.96038 0
M  V30 78 H -0.576309 -0.69957 -4.22862 0
M  V30 79 H -2.7715 0.211414 -1.51536 0
M  V30 80 H 0.404852 2.64445 -0.903547 0
M  V30 81 H -3.41228 2.18522 -0.371063 0
M  V30 82 H -5.25131 6.31343 -1.31294 0
M  V30 83 H -7.68627 6.3883 -1.39258 0
M  V30 84 H -7.87389 2.27579 -0.886314 0
M  V30 85 H -5.39596 2.10391 -0.792237 0
M  V30 86 H -1.00482 -4.48806 2.12533 0
M  V30 87 H 0.448073 -2.81345 3.07552 0
M  V30 88 H -0.896996 -1.541 2.9458 0
M  V30 89 H -2.04308 -2.56382 4.43061 0
M  V30 90 H -3.10038 -2.32457 2.57723 0
M  V30 91 H -2.50772 -4.9102 3.20883 0
M  V30 92 H -3.48956 -4.58421 0.536998 0
M  V30 93 H -5.49324 -3.88864 0.703982 0
M  V30 END ATOM
M  V30 BEGIN BOND
M  V30 1 1 1 2
M  V30 2 1 2 3
M  V30 3 1 3 4
M  V30 4 1 4 5
M  V30 5 1 5 6
M  V30 6 1 6 7
M  V30 7 1 7 8
M  V30 8 1 8 9
M  V30 9 1 9 10
M  V30 10 1 10 11
M  V30 11 1 10 12
M  V30 12 1 12 13
M  V30 13 1 12 14
M  V30 14 1 14 15
M  V30 15 1 15 16
M  V30 16 1 16 17
M  V30 17 2 16 18 CFG=2
M  V30 18 1 14 19
M  V30 19 1 19 20
M  V30 20 1 19 21
M  V30 21 1 21 22
M  V30 22 1 22 23
M  V30 23 1 23 24
M  V30 24 2 23 25 CFG=2
M  V30 25 1 7 26
M  V30 26 1 26 27
M  V30 27 1 27 28
M  V30 28 1 27 29
M  V30 29 1 29 30 CFG=3
M  V30 30 1 29 31
M  V30 31 2 31 32 CFG=2
M  V30 32 1 32 33
M  V30 33 1 33 34
M  V30 34 2 34 35
M  V30 35 1 34 36
M  V30 36 2 36 37
M  V30 37 1 37 38
M  V30 38 2 38 39
M  V30 39 1 39 40
M  V30 40 2 40 41
M  V30 41 1 4 42
M  V30 42 1 42 43
M  V30 43 1 43 44
M  V30 44 1 44 45
M  V30 45 1 43 46
M  V30 46 1 46 47
M  V30 47 1 46 48
M  V30 48 1 48 49
M  V30 49 1 48 3
M  V30 50 1 29 6
M  V30 51 1 41 36
M  V30 52 1 21 9
M  V30 53 1 1 50
M  V30 54 1 1 51
M  V30 55 1 1 52
M  V30 56 1 2 53
M  V30 57 1 3 54 CFG=3
M  V30 58 1 4 55 CFG=1
M  V30 59 1 6 56 CFG=1
M  V30 60 1 7 57 CFG=1
M  V30 61 1 9 58 CFG=1
M  V30 62 1 10 59 CFG=3
M  V30 63 1 11 60
M  V30 64 1 12 61 CFG=3
M  V30 65 1 13 62
M  V30 66 1 14 63 CFG=1
M  V30 67 1 15 64
M  V30 68 1 17 65
M  V30 69 1 17 66
M  V30 70 1 18 67
M  V30 71 1 19 68 CFG=1
M  V30 72 1 20 69
M  V30 73 1 21 70 CFG=3
M  V30 74 1 22 71
M  V30 75 1 24 72
M  V30 76 1 24 73
M  V30 77 1 25 74
M  V30 78 1 27 75 CFG=3
M  V30 79 1 28 76
M  V30 80 1 28 77
M  V30 81 1 28 78
M  V30 82 1 30 79
M  V30 83 1 31 80
M  V30 84 1 33 81
M  V30 85 1 37 82
M  V30 86 1 38 83
M  V30 87 1 40 84
M  V30 88 1 41 85
M  V30 89 1 43 86 CFG=1
M  V30 90 1 44 87
M  V30 91 1 44 88
M  V30 92 1 45 89
M  V30 93 1 46 90 CFG=1
M  V30 94 1 47 91
M  V30 95 1 48 92 CFG=3
M  V30 96 1 49 93
M  V30 END BOND
M  V30 END CTAB
M  END
