
     RDKit          3D

  0  0  0  0  0  0  0  0  0  0999 V3000
M  V30 BEGIN CTAB
M  V30 COUNTS 48 50 0 0 0
M  V30 BEGIN ATOM
M  V30 1 C -6.23019 0.896879 1.31717 0
M  V30 2 C -5.30683 0.455746 0.203894 0
M  V30 3 C -4.22849 -0.384529 0.801727 0
M  V30 4 N -3.27487 -0.87117 -0.166526 0
M  V30 5 C -3.30266 -2.01375 -0.880633 0
M  V30 6 N -2.21659 -2.08813 -1.67538 0
M  V30 7 C -1.472 -0.979561 -1.47614 0
M  V30 8 C -2.14152 -0.228321 -0.533521 0
M  V30 9 C -1.7028 1.09038 0.00194127 0
M  V30 10 N -0.380816 1.46362 -0.359992 0
M  V30 11 C 0.759114 0.712016 0.0489497 0
M  V30 12 C 2.04463 1.09897 -0.332371 0
M  V30 13 C 3.17032 0.401389 0.0478649 0
M  V30 14 N 2.99748 -0.679876 0.808326 0
M  V30 15 C 1.76515 -1.09978 1.2076 0
M  V30 16 N 0.692452 -0.390132 0.814325 0
M  V30 17 N 1.66945 -2.26047 2.01589 0
M  V30 18 C 4.50255 0.853748 -0.382727 0 CFG=2
M  V30 19 C 5.37872 -0.249763 -0.985637 0
M  V30 20 C 6.55585 0.435677 -0.279647 0 CFG=1
M  V30 21 C 5.53086 0.919625 0.753527 0
M  V30 22 N 7.54152 -0.470204 0.235759 0
M  V30 23 C -6.10893 -0.246839 -0.846925 0
M  V30 24 H -5.70875 0.821126 2.28813 0
M  V30 25 H -6.50729 1.96432 1.17267 0
M  V30 26 H -7.11539 0.230384 1.30146 0
M  V30 27 H -4.83088 1.37043 -0.21335 0
M  V30 28 H -4.65943 -1.22699 1.40889 0
M  V30 29 H -3.67172 0.241731 1.52985 0
M  V30 30 H -4.08092 -2.75613 -0.821752 0
M  V30 31 H -0.537529 -0.723269 -1.95472 0
M  V30 32 H -1.81148 1.09399 1.11398 0
M  V30 33 H -2.42174 1.84213 -0.409025 0
M  V30 34 H -0.212425 2.30807 -0.941409 0
M  V30 35 H 2.11892 1.99636 -0.957347 0
M  V30 36 H 2.0031 -3.16408 1.6348 0
M  V30 37 H 1.27019 -2.17886 2.96407 0
M  V30 38 H 4.49826 1.75866 -1.0057 0
M  V30 39 H 5.18323 -1.24849 -0.551194 0
M  V30 40 H 5.43745 -0.23228 -2.08126 0
M  V30 41 H 6.94836 1.29092 -0.844936 0
M  V30 42 H 5.26674 0.146481 1.4949 0
M  V30 43 H 5.71968 1.92469 1.13047 0
M  V30 44 H 8.47292 0.020451 0.179272 0
M  V30 45 H 7.37048 -0.691297 1.24156 0
M  V30 46 H -7.16266 0.137911 -0.871301 0
M  V30 47 H -6.12494 -1.33238 -0.758365 0
M  V30 48 H -5.68657 0.0406044 -1.84739 0
M  V30 END ATOM
M  V30 BEGIN BOND
M  V30 1 1 1 2
M  V30 2 1 2 3
M  V30 3 1 3 4
M  V30 4 1 4 5
M  V30 5 2 5 6
M  V30 6 1 6 7
M  V30 7 2 7 8
M  V30 8 1 8 9
M  V30 9 1 9 10
M  V30 10 1 10 11
M  V30 11 2 11 12
M  V30 12 1 12 13
M  V30 13 2 13 14
M  V30 14 1 14 15
M  V30 15 2 15 16
M  V30 16 1 15 17
M  V30 17 1 13 18
M  V30 18 1 18 19
M  V30 19 1 19 20
M  V30 20 1 20 21
M  V30 21 1 20 22
M  V30 22 1 2 23
M  V30 23 1 8 4
M  V30 24 1 16 11
M  V30 25 1 21 18
M  V30 26 1 1 24
M  V30 27 1 1 25
M  V30 28 1 1 26
M  V30 29 1 2 27
M  V30 30 1 3 28
M  V30 31 1 3 29
M  V30 32 1 5 30
M  V30 33 1 7 31
M  V30 34 1 9 32
M  V30 35 1 9 33
M  V30 36 1 10 34
M  V30 37 1 12 35
M  V30 38 1 17 36
M  V30 39 1 17 37
M  V30 40 1 18 38 CFG=3
M  V30 41 1 19 39
M  V30 42 1 19 40
M  V30 43 1 20 41 CFG=3
M  V30 44 1 21 42
M  V30 45 1 21 43
M  V30 46 1 22 44
M  V30 47 1 22 45
M  V30 48 1 23 46
M  V30 49 1 23 47
M  V30 50 1 23 48
M  V30 END BOND
M  V30 END CTAB
M  END
