
     RDKit          3D

  0  0  0  0  0  0  0  0  0  0999 V3000
M  V30 BEGIN CTAB
M  V30 COUNTS 29 29 0 0 0
M  V30 BEGIN ATOM
M  V30 1 N 4.04388 0.0595002 0.845447 0
M  V30 2 C 3.30054 0.755394 -0.138099 0
M  V30 3 N 2.06591 0.526127 -0.327772 0
M  V30 4 C 1.30035 -0.436179 0.409592 0
M  V30 5 C -0.127242 -0.456795 -0.149433 0
M  V30 6 C -0.759811 0.893908 -0.0141127 0
M  V30 7 C -2.10099 0.789236 -0.75754 0
M  V30 8 C -2.89167 -0.146884 0.0884329 0
M  V30 9 C -4.09731 0.272219 0.45121 0
M  V30 10 C -2.35971 -1.44604 0.488056 0
M  V30 11 C -0.871568 -1.55253 0.530086 0
M  V30 12 N 3.95016 1.73547 -0.934232 0
M  V30 13 H 4.94058 0.446843 1.24912 0
M  V30 14 H 3.73364 -0.879398 1.21937 0
M  V30 15 H 1.74884 -1.44041 0.223916 0
M  V30 16 H 1.25751 -0.225344 1.49975 0
M  V30 17 H -0.0286219 -0.678635 -1.23225 0
M  V30 18 H -1.00652 1.13116 1.05386 0
M  V30 19 H -0.146365 1.65129 -0.491888 0
M  V30 20 H -1.87732 0.286253 -1.74078 0
M  V30 21 H -2.5651 1.76612 -0.887952 0
M  V30 22 H -4.71582 -0.382301 1.07393 0
M  V30 23 H -4.52634 1.21701 0.180778 0
M  V30 24 H -2.75282 -1.71273 1.51473 0
M  V30 25 H -2.82057 -2.22721 -0.175797 0
M  V30 26 H -0.58904 -2.51647 0.0297451 0
M  V30 27 H -0.493824 -1.64613 1.57087 0
M  V30 28 H 4.22273 2.6788 -0.52644 0
M  V30 29 H 4.16651 1.53773 -1.93003 0
M  V30 END ATOM
M  V30 BEGIN BOND
M  V30 1 1 1 2
M  V30 2 2 2 3 CFG=2
M  V30 3 1 3 4
M  V30 4 1 4 5
M  V30 5 1 5 6
M  V30 6 1 6 7
M  V30 7 1 7 8
M  V30 8 2 8 9 CFG=2
M  V30 9 1 8 10
M  V30 10 1 10 11
M  V30 11 1 2 12
M  V30 12 1 11 5
M  V30 13 1 1 13
M  V30 14 1 1 14
M  V30 15 1 4 15
M  V30 16 1 4 16
M  V30 17 1 5 17
M  V30 18 1 6 18
M  V30 19 1 6 19
M  V30 20 1 7 20
M  V30 21 1 7 21
M  V30 22 1 9 22
M  V30 23 1 9 23
M  V30 24 1 10 24
M  V30 25 1 10 25
M  V30 26 1 11 26
M  V30 27 1 11 27
M  V30 28 1 12 28
M  V30 29 1 12 29
M  V30 END BOND
M  V30 END CTAB
M  END
