
     RDKit          3D

  0  0  0  0  0  0  0  0  0  0999 V3000
M  V30 BEGIN CTAB
M  V30 COUNTS 79 83 0 0 0
M  V30 BEGIN ATOM
M  V30 1 C 0.619571 -1.8191 -0.105682 0 CFG=1
M  V30 2 S 0.733671 -0.183943 -0.884711 0
M  V30 3 C 2.43214 0.339778 -0.720335 0
M  V30 4 C 3.40316 -0.779809 -0.416648 0
M  V30 5 C 4.72163 -0.64162 -1.06422 0
M  V30 6 S 5.65321 0.780572 -0.374434 0
M  V30 7 C 7.23546 0.904539 -1.23049 0
M  V30 8 N 7.62033 0.0949819 -2.22442 0
M  V30 9 N 8.82726 0.485243 -2.57836 0
M  V30 10 N 9.2041 1.50269 -1.84156 0
M  V30 11 N 8.22699 1.77294 -1.00263 0
M  V30 12 C 8.18776 2.82116 0.0208784 0
M  V30 13 C 7.61008 4.09451 -0.554039 0
M  V30 14 C 8.47808 4.57617 -1.72769 0
M  V30 15 N 7.94533 5.80839 -2.27207 0
M  V30 16 C 3.10115 -1.84512 0.297487 0
M  V30 17 N 1.75722 -1.95904 0.806776 0
M  V30 18 C 0.847979 -2.14687 1.84708 0
M  V30 19 O 0.976694 -2.46782 3.07463 0
M  V30 20 C -0.332818 -1.84613 1.04215 0
M  V30 21 N -1.29428 -2.96254 0.930893 0
M  V30 22 C -2.67265 -2.72946 0.797735 0
M  V30 23 O -2.98789 -1.4813 0.786984 0
M  V30 24 C -3.71436 -3.71329 0.676765 0
M  V30 25 N -4.91804 -3.29422 0.539099 0
M  V30 26 O -5.40703 -2.0358 0.4835 0
M  V30 27 C -5.88062 -1.50622 -0.747571 0
M  V30 28 C -7.38156 -1.92341 -0.763154 0
M  V30 29 C -5.88185 -0.0456122 -0.700116 0
M  V30 30 O -6.18362 0.654109 -1.68931 0
M  V30 31 O -5.54831 0.612368 0.463737 0
M  V30 32 C -5.52836 2.01152 0.596094 0
M  V30 33 C -4.22721 2.6152 0.97244 0
M  V30 34 C -4.24784 4.05788 0.452301 0
M  V30 35 C -5.63465 4.62188 0.467504 0
M  V30 36 C -6.5027 4.03561 1.5412 0
M  V30 37 C -6.59661 2.54534 1.53658 0
M  V30 38 C -3.46746 -5.19145 0.714398 0
M  V30 39 N -4.51256 -6.05917 0.572109 0
M  V30 40 S -3.76328 -7.55205 0.704495 0
M  V30 41 C -2.16104 -7.02698 0.934703 0
M  V30 42 N -0.957694 -7.78505 1.13279 0
M  V30 43 N -2.31309 -5.72031 0.89289 0
M  V30 44 C 4.04248 -2.87339 0.699579 0
M  V30 45 O 3.59696 -3.97789 1.46051 0
M  V30 46 O 5.26676 -2.92319 0.457619 0
M  V30 47 H 0.449842 -2.58659 -0.836671 0
M  V30 48 H 2.5602 1.13893 0.068982 0
M  V30 49 H 2.75694 0.814226 -1.66461 0
M  V30 50 H 5.36058 -1.50313 -1.05809 0
M  V30 51 H 4.53971 -0.308262 -2.15681 0
M  V30 52 H 9.21008 2.98345 0.426815 0
M  V30 53 H 7.52642 2.48674 0.832905 0
M  V30 54 H 6.58522 3.8986 -0.911724 0
M  V30 55 H 7.59221 4.87678 0.235315 0
M  V30 56 H 8.46445 3.84667 -2.54594 0
M  V30 57 H 9.52179 4.72183 -1.38701 0
M  V30 58 H 7.78112 5.80101 -3.28955 0
M  V30 59 H 7.1479 6.18493 -1.71848 0
M  V30 60 H -0.82515 -0.903109 1.26536 0
M  V30 61 H -0.836232 -3.88728 0.964483 0
M  V30 62 H -5.38192 -1.97528 -1.58728 0
M  V30 63 H -7.83702 -1.56809 0.173248 0
M  V30 64 H -7.36527 -3.02419 -0.784394 0
M  V30 65 H -7.82757 -1.4723 -1.6611 0
M  V30 66 H -5.82332 2.41796 -0.417322 0
M  V30 67 H -4.17673 2.73302 2.09485 0
M  V30 68 H -3.3319 2.14914 0.553625 0
M  V30 69 H -3.89875 4.08534 -0.620682 0
M  V30 70 H -3.57693 4.71972 1.01406 0
M  V30 71 H -5.56063 5.71122 0.666104 0
M  V30 72 H -6.1187 4.54332 -0.548914 0
M  V30 73 H -6.26306 4.47504 2.52885 0
M  V30 74 H -7.54653 4.41917 1.31886 0
M  V30 75 H -6.37054 2.13765 2.55634 0
M  V30 76 H -7.59828 2.17662 1.22281 0
M  V30 77 H -0.822107 -8.66138 0.625542 0
M  V30 78 H -0.253133 -7.42391 1.78972 0
M  V30 79 H 3.54481 -4.85194 0.918196 0
M  V30 END ATOM
M  V30 BEGIN BOND
M  V30 1 1 1 2
M  V30 2 1 2 3
M  V30 3 1 3 4
M  V30 4 1 4 5
M  V30 5 1 5 6
M  V30 6 1 6 7
M  V30 7 2 7 8
M  V30 8 1 8 9
M  V30 9 2 9 10
M  V30 10 1 10 11
M  V30 11 1 11 12
M  V30 12 1 12 13
M  V30 13 1 13 14
M  V30 14 1 14 15
M  V30 15 2 4 16
M  V30 16 1 16 17
M  V30 17 1 17 18
M  V30 18 2 18 19
M  V30 19 1 18 20
M  V30 20 1 20 21
M  V30 21 1 21 22
M  V30 22 2 22 23
M  V30 23 1 22 24
M  V30 24 2 24 25
M  V30 25 1 25 26
M  V30 26 1 26 27
M  V30 27 1 27 28
M  V30 28 1 27 29
M  V30 29 2 29 30
M  V30 30 1 29 31
M  V30 31 1 31 32
M  V30 32 1 32 33
M  V30 33 1 33 34
M  V30 34 1 34 35
M  V30 35 1 35 36
M  V30 36 1 36 37
M  V30 37 1 24 38
M  V30 38 2 38 39
M  V30 39 1 39 40
M  V30 40 1 40 41
M  V30 41 1 41 42
M  V30 42 2 41 43
M  V30 43 1 16 44
M  V30 44 1 44 45
M  V30 45 2 44 46
M  V30 46 1 17 1
M  V30 47 1 37 32
M  V30 48 1 43 38
M  V30 49 1 20 1
M  V30 50 1 11 7
M  V30 51 1 1 47 CFG=3
M  V30 52 1 3 48
M  V30 53 1 3 49
M  V30 54 1 5 50
M  V30 55 1 5 51
M  V30 56 1 12 52
M  V30 57 1 12 53
M  V30 58 1 13 54
M  V30 59 1 13 55
M  V30 60 1 14 56
M  V30 61 1 14 57
M  V30 62 1 15 58
M  V30 63 1 15 59
M  V30 64 1 20 60
M  V30 65 1 21 61
M  V30 66 1 27 62
M  V30 67 1 28 63
M  V30 68 1 28 64
M  V30 69 1 28 65
M  V30 70 1 32 66
M  V30 71 1 33 67
M  V30 72 1 33 68
M  V30 73 1 34 69
M  V30 74 1 34 70
M  V30 75 1 35 71
M  V30 76 1 35 72
M  V30 77 1 36 73
M  V30 78 1 36 74
M  V30 79 1 37 75
M  V30 80 1 37 76
M  V30 81 1 42 77
M  V30 82 1 42 78
M  V30 83 1 45 79
M  V30 END BOND
M  V30 END CTAB
M  END
