
     RDKit          3D

  0  0  0  0  0  0  0  0  0  0999 V3000
M  V30 BEGIN CTAB
M  V30 COUNTS 31 31 0 0 0
M  V30 BEGIN ATOM
M  V30 1 N -3.59671 0.616396 -0.0783659 0
M  V30 2 C -2.65815 0.495567 0.991509 0
M  V30 3 C -1.31763 -0.0625387 0.595967 0
M  V30 4 C -1.41503 -1.45559 0.00262254 0
M  V30 5 C -0.00927909 -2.02457 0.135283 0
M  V30 6 C 1.02775 -1.17947 -0.556351 0
M  V30 7 C 0.871604 0.28768 -0.408685 0
M  V30 8 C -0.562441 0.777829 -0.368117 0
M  V30 9 N 1.43243 0.860312 -1.66222 0
M  V30 10 C 1.58105 0.896498 0.775353 0
M  V30 11 C 3.03906 0.721871 0.785341 0
M  V30 12 O 3.53995 -0.331512 1.21247 0
M  V30 13 O 3.84803 1.72886 0.320973 0
M  V30 14 H -3.76363 1.60395 -0.314266 0
M  V30 15 H -3.39235 0.0207866 -0.909187 0
M  V30 16 H -2.47783 1.45838 1.50366 0
M  V30 17 H -3.08053 -0.186632 1.75916 0
M  V30 18 H -0.742514 -0.177211 1.53517 0
M  V30 19 H -2.08759 -2.10926 0.554994 0
M  V30 20 H -1.67345 -1.40537 -1.06601 0
M  V30 21 H -0.0417235 -3.01789 -0.377741 0
M  V30 22 H 0.219177 -2.22589 1.19851 0
M  V30 23 H 2.00287 -1.51837 -0.221913 0
M  V30 24 H 0.967775 -1.44541 -1.65553 0
M  V30 25 H -0.949576 0.644953 -1.42171 0
M  V30 26 H -0.530538 1.85344 -0.0966496 0
M  V30 27 H 0.917849 0.307186 -2.41539 0
M  V30 28 H 2.40307 0.426904 -1.69699 0
M  V30 29 H 1.13702 0.494322 1.70992 0
M  V30 30 H 1.38299 2.00643 0.824963 0
M  V30 31 H 3.92834 1.93835 -0.656767 0
M  V30 END ATOM
M  V30 BEGIN BOND
M  V30 1 1 1 2
M  V30 2 1 2 3
M  V30 3 1 3 4
M  V30 4 1 4 5
M  V30 5 1 5 6
M  V30 6 1 6 7
M  V30 7 1 7 8
M  V30 8 1 7 9
M  V30 9 1 7 10
M  V30 10 1 10 11
M  V30 11 2 11 12
M  V30 12 1 11 13
M  V30 13 1 8 3
M  V30 14 1 1 14
M  V30 15 1 1 15
M  V30 16 1 2 16
M  V30 17 1 2 17
M  V30 18 1 3 18
M  V30 19 1 4 19
M  V30 20 1 4 20
M  V30 21 1 5 21
M  V30 22 1 5 22
M  V30 23 1 6 23
M  V30 24 1 6 24
M  V30 25 1 8 25
M  V30 26 1 8 26
M  V30 27 1 9 27
M  V30 28 1 9 28
M  V30 29 1 10 29
M  V30 30 1 10 30
M  V30 31 1 13 31
M  V30 END BOND
M  V30 END CTAB
M  END
