
     RDKit          3D

  0  0  0  0  0  0  0  0  0  0999 V3000
M  V30 BEGIN CTAB
M  V30 COUNTS 56 58 0 0 0
M  V30 BEGIN ATOM
M  V30 1 C 6.15342 1.63259 -0.00844726 0 CFG=2
M  V30 2 C 6.97847 0.490245 -0.572012 0
M  V30 3 C 6.55967 -0.766112 0.172036 0
M  V30 4 C 7.31917 -1.91791 -0.320837 0
M  V30 5 O 7.11077 -3.16778 0.201074 0
M  V30 6 O 8.1731 -1.76877 -1.23161 0
M  V30 7 N 4.74575 1.27975 -0.256395 0
M  V30 8 C 3.84376 1.09645 0.811226 0
M  V30 9 O 4.22825 1.2318 1.99939 0
M  V30 10 C 2.46175 0.748572 0.53048 0
M  V30 11 C 1.92024 0.658888 -0.729545 0
M  V30 12 C 0.592139 0.320649 -0.968771 0
M  V30 13 C -0.23259 0.060286 0.0972639 0
M  V30 14 C 0.289936 0.144703 1.36571 0
M  V30 15 C 1.60184 0.478932 1.59898 0
M  V30 16 N -1.58609 -0.285412 -0.146494 0
M  V30 17 C -2.14329 -0.37658 -1.47462 0
M  V30 18 C -2.41938 -0.553509 0.984404 0
M  V30 19 C -3.82121 -0.90221 0.643766 0
M  V30 20 C -4.85537 0.0126494 0.623036 0
M  V30 21 C -6.14388 -0.385169 0.29447 0
M  V30 22 C -6.43271 -1.69691 -0.0199373 0
M  V30 23 N -5.40751 -2.5706 0.0071879 0
M  V30 24 C -4.15072 -2.20827 0.322629 0
M  V30 25 N -7.68724 -2.06525 -0.336109 0
M  V30 26 C -8.7144 -1.19643 -0.36449 0
M  V30 27 N -10.031 -1.6301 -0.705512 0
M  V30 28 N -8.44221 0.0863236 -0.0590893 0
M  V30 29 C -7.19672 0.506261 0.26551 0
M  V30 30 N -6.90811 1.85488 0.58709 0
M  V30 31 C 6.46218 2.90587 -0.69426 0
M  V30 32 O 7.74917 3.41208 -0.582431 0
M  V30 33 O 5.61753 3.53633 -1.36328 0
M  V30 34 H 6.34622 1.71993 1.08186 0
M  V30 35 H 8.06307 0.66401 -0.477668 0
M  V30 36 H 6.67584 0.357509 -1.64503 0
M  V30 37 H 6.74501 -0.544794 1.25632 0
M  V30 38 H 5.47023 -0.882262 0.0257409 0
M  V30 39 H 7.67495 -3.55331 0.947572 0
M  V30 40 H 4.49453 1.18255 -1.25401 0
M  V30 41 H 2.56933 0.866295 -1.59701 0
M  V30 42 H 0.279945 0.281405 -2.00452 0
M  V30 43 H -0.336255 -0.056166 2.24944 0
M  V30 44 H 2.02599 0.548814 2.59672 0
M  V30 45 H -1.74538 0.477697 -2.07976 0
M  V30 46 H -1.85123 -1.30203 -2.00528 0
M  V30 47 H -3.24911 -0.333571 -1.47426 0
M  V30 48 H -2.46522 0.316222 1.69955 0
M  V30 49 H -1.93758 -1.3731 1.59275 0
M  V30 50 H -4.64172 1.05799 0.870314 0
M  V30 51 H -3.35377 -2.96628 0.328229 0
M  V30 52 H -10.8273 -1.26619 -0.140881 0
M  V30 53 H -10.2466 -2.28458 -1.47964 0
M  V30 54 H -7.1365 2.66116 -0.0245949 0
M  V30 55 H -6.43819 2.05247 1.49144 0
M  V30 56 H 8.24901 3.40996 0.315927 0
M  V30 END ATOM
M  V30 BEGIN BOND
M  V30 1 1 1 2
M  V30 2 1 2 3
M  V30 3 1 3 4
M  V30 4 1 4 5
M  V30 5 2 4 6
M  V30 6 1 1 7
M  V30 7 1 7 8
M  V30 8 2 8 9
M  V30 9 1 8 10
M  V30 10 2 10 11
M  V30 11 1 11 12
M  V30 12 2 12 13
M  V30 13 1 13 14
M  V30 14 2 14 15
M  V30 15 1 13 16
M  V30 16 1 16 17
M  V30 17 1 16 18
M  V30 18 1 18 19
M  V30 19 2 19 20
M  V30 20 1 20 21
M  V30 21 2 21 22
M  V30 22 1 22 23
M  V30 23 2 23 24
M  V30 24 1 22 25
M  V30 25 2 25 26
M  V30 26 1 26 27
M  V30 27 1 26 28
M  V30 28 2 28 29
M  V30 29 1 29 30
M  V30 30 1 1 31
M  V30 31 1 31 32
M  V30 32 2 31 33
M  V30 33 1 15 10
M  V30 34 1 24 19
M  V30 35 1 29 21
M  V30 36 1 1 34 CFG=1
M  V30 37 1 2 35
M  V30 38 1 2 36
M  V30 39 1 3 37
M  V30 40 1 3 38
M  V30 41 1 5 39
M  V30 42 1 7 40
M  V30 43 1 11 41
M  V30 44 1 12 42
M  V30 45 1 14 43
M  V30 46 1 15 44
M  V30 47 1 17 45
M  V30 48 1 17 46
M  V30 49 1 17 47
M  V30 50 1 18 48
M  V30 51 1 18 49
M  V30 52 1 20 50
M  V30 53 1 24 51
M  V30 54 1 27 52
M  V30 55 1 27 53
M  V30 56 1 30 54
M  V30 57 1 30 55
M  V30 58 1 32 56
M  V30 END BOND
M  V30 END CTAB
M  END
