
     RDKit          3D

  0  0  0  0  0  0  0  0  0  0999 V3000
M  V30 BEGIN CTAB
M  V30 COUNTS 40 42 0 0 0
M  V30 BEGIN ATOM
M  V30 1 O -2.00703 1.962 -0.313753 0
M  V30 2 C -1.05602 1.10552 -0.196395 0
M  V30 3 N 0.272252 1.57944 0.00764163 0
M  V30 4 C 0.653934 2.99875 0.0401721 0
M  V30 5 C 1.7698 3.00359 1.05989 0
M  V30 6 C 2.40274 1.67418 0.855681 0
M  V30 7 C 1.47863 0.870473 0.217896 0
M  V30 8 C 1.80047 -0.451698 -0.11574 0
M  V30 9 C 3.03863 -0.970277 0.186369 0
M  V30 10 C 3.94203 -0.149707 0.822481 0
M  V30 11 C 3.64687 1.15117 1.15843 0
M  V30 12 S 3.47283 -2.61954 -0.218116 0
M  V30 13 O 4.30604 -3.26191 0.821271 0
M  V30 14 O 2.19739 -3.41511 -0.365881 0
M  V30 15 N 4.2313 -2.62723 -1.78979 0
M  V30 16 C -1.44027 -0.311229 -0.2843 0
M  V30 17 C -2.95868 -0.392554 -0.298785 0
M  V30 18 N -3.58508 0.167175 0.87951 0
M  V30 19 C -3.53667 -1.74204 -0.611164 0
M  V30 20 C -4.62005 -1.00483 -1.41059 0
M  V30 21 C -3.58257 0.111596 -1.58125 0
M  V30 22 H 1.00573 3.24653 -0.977802 0
M  V30 23 H -0.185717 3.64459 0.284845 0
M  V30 24 H 2.5066 3.77186 0.754202 0
M  V30 25 H 1.40635 3.16851 2.08442 0
M  V30 26 H 1.09314 -1.09393 -0.61603 0
M  V30 27 H 4.90416 -0.561903 1.05346 0
M  V30 28 H 4.33405 1.81839 1.65732 0
M  V30 29 H 3.82115 -1.81712 -2.30304 0
M  V30 30 H 5.24655 -2.39391 -1.59643 0
M  V30 31 H -0.99626 -0.918572 0.515026 0
M  V30 32 H -1.05621 -0.749426 -1.26291 0
M  V30 33 H -3.8839 -0.623246 1.5202 0
M  V30 34 H -4.47674 0.676739 0.620201 0
M  V30 35 H -3.96433 -2.25177 0.284699 0
M  V30 36 H -2.91586 -2.42773 -1.20965 0
M  V30 37 H -4.86752 -1.46035 -2.37465 0
M  V30 38 H -5.46638 -0.741254 -0.766366 0
M  V30 39 H -2.93123 -0.0898513 -2.43985 0
M  V30 40 H -4.00011 1.12466 -1.51792 0
M  V30 END ATOM
M  V30 BEGIN BOND
M  V30 1 2 1 2
M  V30 2 1 2 3
M  V30 3 1 3 4
M  V30 4 1 4 5
M  V30 5 1 5 6
M  V30 6 2 6 7
M  V30 7 1 7 8
M  V30 8 2 8 9
M  V30 9 1 9 10
M  V30 10 2 10 11
M  V30 11 1 9 12
M  V30 12 2 12 13
M  V30 13 2 12 14
M  V30 14 1 12 15
M  V30 15 1 2 16
M  V30 16 1 16 17
M  V30 17 1 17 18
M  V30 18 1 17 19
M  V30 19 1 19 20
M  V30 20 1 20 21
M  V30 21 1 7 3
M  V30 22 1 21 17
M  V30 23 1 11 6
M  V30 24 1 4 22
M  V30 25 1 4 23
M  V30 26 1 5 24
M  V30 27 1 5 25
M  V30 28 1 8 26
M  V30 29 1 10 27
M  V30 30 1 11 28
M  V30 31 1 15 29
M  V30 32 1 15 30
M  V30 33 1 16 31
M  V30 34 1 16 32
M  V30 35 1 18 33
M  V30 36 1 18 34
M  V30 37 1 19 35
M  V30 38 1 19 36
M  V30 39 1 20 37
M  V30 40 1 20 38
M  V30 41 1 21 39
M  V30 42 1 21 40
M  V30 END BOND
M  V30 END CTAB
M  END
