
     RDKit          3D

  0  0  0  0  0  0  0  0  0  0999 V3000
M  V30 BEGIN CTAB
M  V30 COUNTS 19 19 0 0 0
M  V30 BEGIN ATOM
M  V30 1 N -2.77018 -0.0729779 -1.37331 0
M  V30 2 N -2.3947 0.383373 -0.181132 0
M  V30 3 C -1.39484 0.512728 0.544687 0
M  V30 4 C -0.0503482 0.0964129 0.189514 0
M  V30 5 C 1.00632 0.295596 1.09761 0
M  V30 6 C 2.30324 -0.0757543 0.823152 0
M  V30 7 C 2.61535 -0.668199 -0.377604 0
M  V30 8 C 1.58904 -0.864608 -1.26625 0
M  V30 9 C 0.272647 -0.491469 -0.996232 0
M  V30 10 Br 4.41767 -1.19761 -0.789138 0
M  V30 11 N -1.5803 1.13744 1.873 0
M  V30 12 H -2.56424 0.386915 -2.28983 0
M  V30 13 H -3.32713 -0.975177 -1.45365 0
M  V30 14 H 0.7323 0.76341 2.03377 0
M  V30 15 H 3.0799 0.0958451 1.54746 0
M  V30 16 H 1.81823 -1.3296 -2.21551 0
M  V30 17 H -0.48326 -0.681794 -1.75375 0
M  V30 18 H -2.14359 0.626861 2.56923 0
M  V30 19 H -1.12613 2.05861 2.01799 0
M  V30 END ATOM
M  V30 BEGIN BOND
M  V30 1 1 1 2
M  V30 2 2 2 3 CFG=2
M  V30 3 1 3 4
M  V30 4 2 4 5
M  V30 5 1 5 6
M  V30 6 2 6 7
M  V30 7 1 7 8
M  V30 8 2 8 9
M  V30 9 1 7 10
M  V30 10 1 3 11
M  V30 11 1 9 4
M  V30 12 1 1 12
M  V30 13 1 1 13
M  V30 14 1 5 14
M  V30 15 1 6 15
M  V30 16 1 8 16
M  V30 17 1 9 17
M  V30 18 1 11 18
M  V30 19 1 11 19
M  V30 END BOND
M  V30 END CTAB
M  END
