
     RDKit          3D

  0  0  0  0  0  0  0  0  0  0999 V3000
M  V30 BEGIN CTAB
M  V30 COUNTS 53 52 0 0 0
M  V30 BEGIN ATOM
M  V30 1 N -5.02785 2.62285 -1.22049 0
M  V30 2 C -4.94622 1.30975 -1.82517 0
M  V30 3 C -4.57607 0.290481 -0.762811 0
M  V30 4 C -3.23376 0.671294 -0.170575 0
M  V30 5 Si -2.68509 -0.509682 1.14439 0 VAL=4
M  V30 6 O -1.00719 -0.500868 1.39351 0
M  V30 7 Si -0.0655655 -0.778282 0.0195704 0 VAL=4
M  V30 8 O 1.26634 -1.73285 0.454766 0
M  V30 9 Si 2.63628 -0.904144 0.957585 0 VAL=4
M  V30 10 C 3.84309 -0.824041 -0.477629 0
M  V30 11 C 4.59794 0.485395 -0.480287 0
M  V30 12 C 5.53833 0.451449 -1.66719 0
M  V30 13 N 6.27934 1.69622 -1.69874 0
M  V30 14 C 3.46471 -1.98411 2.27292 0
M  V30 15 C 2.34151 0.745693 1.70153 0
M  V30 16 C 0.429315 0.870891 -0.692639 0
M  V30 17 C -0.986949 -1.71083 -1.32259 0
M  V30 18 C -3.33978 -2.23904 0.882372 0
M  V30 19 C -3.46715 0.0930511 2.761 0
M  V30 20 H -4.27949 3.26336 -1.50372 0
M  V30 21 H -5.94411 3.07595 -1.33191 0
M  V30 22 H -4.1596 1.35415 -2.61125 0
M  V30 23 H -5.89115 1.03236 -2.3151 0
M  V30 24 H -4.44532 -0.707368 -1.27578 0
M  V30 25 H -5.35776 0.260043 -0.00465975 0
M  V30 26 H -2.50307 0.828095 -0.973021 0
M  V30 27 H -3.39427 1.69275 0.286565 0
M  V30 28 H 3.30934 -0.891332 -1.45411 0
M  V30 29 H 4.58055 -1.62932 -0.44714 0
M  V30 30 H 5.15237 0.619471 0.458794 0
M  V30 31 H 3.859 1.2981 -0.66139 0
M  V30 32 H 6.2449 -0.418214 -1.557 0
M  V30 33 H 4.94834 0.285681 -2.59156 0
M  V30 34 H 5.60821 2.45457 -1.90416 0
M  V30 35 H 6.6904 1.83513 -0.749261 0
M  V30 36 H 2.79523 -1.94047 3.15708 0
M  V30 37 H 3.59885 -2.99653 1.86897 0
M  V30 38 H 4.42244 -1.50543 2.58984 0
M  V30 39 H 3.09993 0.932963 2.49312 0
M  V30 40 H 1.35693 0.789784 2.20566 0
M  V30 41 H 2.46994 1.5991 0.977057 0
M  V30 42 H 1.47893 0.837562 -1.07253 0
M  V30 43 H -0.19919 1.11026 -1.57414 0
M  V30 44 H 0.267209 1.70081 0.0298766 0
M  V30 45 H -0.581742 -1.44807 -2.33346 0
M  V30 46 H -2.05132 -1.49701 -1.34478 0
M  V30 47 H -0.857088 -2.80788 -1.22295 0
M  V30 48 H -4.05412 -2.21011 0.0369665 0
M  V30 49 H -2.47387 -2.86691 0.577547 0
M  V30 50 H -3.82544 -2.64689 1.78182 0
M  V30 51 H -2.98693 -0.441571 3.59238 0
M  V30 52 H -3.39281 1.19507 2.84334 0
M  V30 53 H -4.54654 -0.211335 2.75939 0
M  V30 END ATOM
M  V30 BEGIN BOND
M  V30 1 1 1 2
M  V30 2 1 2 3
M  V30 3 1 3 4
M  V30 4 1 4 5
M  V30 5 1 5 6
M  V30 6 1 6 7
M  V30 7 1 7 8
M  V30 8 1 8 9
M  V30 9 1 9 10
M  V30 10 1 10 11
M  V30 11 1 11 12
M  V30 12 1 12 13
M  V30 13 1 9 14
M  V30 14 1 9 15
M  V30 15 1 7 16
M  V30 16 1 7 17
M  V30 17 1 5 18
M  V30 18 1 5 19
M  V30 19 1 1 20
M  V30 20 1 1 21
M  V30 21 1 2 22
M  V30 22 1 2 23
M  V30 23 1 3 24
M  V30 24 1 3 25
M  V30 25 1 4 26
M  V30 26 1 4 27
M  V30 27 1 10 28
M  V30 28 1 10 29
M  V30 29 1 11 30
M  V30 30 1 11 31
M  V30 31 1 12 32
M  V30 32 1 12 33
M  V30 33 1 13 34
M  V30 34 1 13 35
M  V30 35 1 14 36
M  V30 36 1 14 37
M  V30 37 1 14 38
M  V30 38 1 15 39
M  V30 39 1 15 40
M  V30 40 1 15 41
M  V30 41 1 16 42
M  V30 42 1 16 43
M  V30 43 1 16 44
M  V30 44 1 17 45
M  V30 45 1 17 46
M  V30 46 1 17 47
M  V30 47 1 18 48
M  V30 48 1 18 49
M  V30 49 1 18 50
M  V30 50 1 19 51
M  V30 51 1 19 52
M  V30 52 1 19 53
M  V30 END BOND
M  V30 END CTAB
M  END
