
     RDKit          3D

  0  0  0  0  0  0  0  0  0  0999 V3000
M  V30 BEGIN CTAB
M  V30 COUNTS 35 38 0 0 0
M  V30 BEGIN ATOM
M  V30 1 N 6.79607 -1.16853 0.261045 0
M  V30 2 C 5.53607 -0.506467 0.190256 0
M  V30 3 N 4.35544 -1.10347 -0.0531502 0
M  V30 4 N 3.37238 -0.203641 -0.0526324 0
M  V30 5 C 3.93352 0.990212 0.195437 0
M  V30 6 C 5.3092 0.841939 0.356305 0
M  V30 7 N 3.2557 2.2586 0.290047 0
M  V30 8 C 1.98503 -0.434264 -0.270177 0
M  V30 9 C 1.60015 -1.32627 -1.257 0
M  V30 10 C 0.26973 -1.58412 -1.50668 0
M  V30 11 C -0.715481 -0.954718 -0.773697 0
M  V30 12 C -0.345216 -0.0645539 0.211492 0
M  V30 13 C 0.987389 0.181353 0.447746 0
M  V30 14 N -1.50711 0.387587 0.751287 0
M  V30 15 N -2.53714 -0.175633 0.151164 0
M  V30 16 N -2.05537 -0.988946 -0.772898 0
M  V30 17 C -3.9326 0.0482149 0.442335 0
M  V30 18 C -4.73582 -1.03047 0.694452 0
M  V30 19 C -6.06992 -0.863984 0.976151 0
M  V30 20 C -6.59863 0.407643 1.00341 0
M  V30 21 C -5.81743 1.51304 0.754262 0
M  V30 22 C -4.47173 1.31331 0.472338 0
M  V30 23 H 6.93584 -1.98184 0.893975 0
M  V30 24 H 7.62036 -0.866232 -0.313961 0
M  V30 25 H 6.02102 1.63235 0.565671 0
M  V30 26 H 2.93194 2.62399 1.21048 0
M  V30 27 H 3.07178 2.84099 -0.551454 0
M  V30 28 H 2.38237 -1.82212 -1.83463 0
M  V30 29 H -0.0354671 -2.27981 -2.27618 0
M  V30 30 H 1.26464 0.878483 1.21967 0
M  V30 31 H -4.3292 -2.02222 0.674449 0
M  V30 32 H -6.72341 -1.72744 1.18028 0
M  V30 33 H -7.65509 0.506577 1.22878 0
M  V30 34 H -6.25485 2.50068 0.781321 0
M  V30 35 H -3.84415 2.17975 0.273697 0
M  V30 END ATOM
M  V30 BEGIN BOND
M  V30 1 1 1 2
M  V30 2 2 2 3
M  V30 3 1 3 4
M  V30 4 1 4 5
M  V30 5 2 5 6
M  V30 6 1 5 7
M  V30 7 1 4 8
M  V30 8 1 8 9
M  V30 9 2 9 10
M  V30 10 1 10 11
M  V30 11 1 11 12
M  V30 12 1 12 13
M  V30 13 2 12 14
M  V30 14 1 14 15
M  V30 15 1 15 16
M  V30 16 1 15 17
M  V30 17 2 17 18
M  V30 18 1 18 19
M  V30 19 2 19 20
M  V30 20 1 20 21
M  V30 21 2 21 22
M  V30 22 1 6 2
M  V30 23 2 13 8
M  V30 24 1 22 17
M  V30 25 2 16 11
M  V30 26 1 1 23
M  V30 27 1 1 24
M  V30 28 1 6 25
M  V30 29 1 7 26
M  V30 30 1 7 27
M  V30 31 1 9 28
M  V30 32 1 10 29
M  V30 33 1 13 30
M  V30 34 1 18 31
M  V30 35 1 19 32
M  V30 36 1 20 33
M  V30 37 1 21 34
M  V30 38 1 22 35
M  V30 END BOND
M  V30 END CTAB
M  END
