
     RDKit          3D

  0  0  0  0  0  0  0  0  0  0999 V3000
M  V30 BEGIN CTAB
M  V30 COUNTS 30 30 0 0 0
M  V30 BEGIN ATOM
M  V30 1 F -0.582509 0.65747 -1.79614 0
M  V30 2 C -0.800261 -0.148879 -0.704325 0
M  V30 3 C -2.21608 0.00259617 -0.237723 0
M  V30 4 N -3.15221 -0.385151 -1.27246 0
M  V30 5 C -2.49642 1.48432 0.0277286 0
M  V30 6 C -2.5057 -0.731803 1.02852 0
M  V30 7 C 0.20228 0.147398 0.374139 0
M  V30 8 C 1.58901 -0.0870401 -0.0301103 0
M  V30 9 C 1.97363 -0.652726 -1.23168 0
M  V30 10 C 3.30543 -0.8333 -1.49519 0
M  V30 11 C 4.24504 -0.451388 -0.563794 0
M  V30 12 N 3.84046 0.101457 0.607935 0
M  V30 13 C 2.55528 0.296869 0.908403 0
M  V30 14 N 2.18387 0.865584 2.14534 0
M  V30 15 H -0.687508 -1.23536 -0.974069 0
M  V30 16 H -2.58894 -0.676578 -2.10222 0
M  V30 17 H -3.68265 -1.26956 -1.00454 0
M  V30 18 H -2.20789 2.02792 -0.900851 0
M  V30 19 H -3.54102 1.65125 0.29912 0
M  V30 20 H -1.82863 1.78498 0.84322 0
M  V30 21 H -2.13184 -1.77605 1.02448 0
M  V30 22 H -3.5998 -0.778669 1.16618 0
M  V30 23 H -2.09812 -0.179903 1.92338 0
M  V30 24 H 0.120509 1.26275 0.566695 0
M  V30 25 H -0.0688529 -0.355591 1.33402 0
M  V30 26 H 1.19715 -0.957279 -1.95577 0
M  V30 27 H 3.56793 -1.28038 -2.45112 0
M  V30 28 H 5.30123 -0.60015 -0.784629 0
M  V30 29 H 1.69319 1.77323 2.23913 0
M  V30 30 H 2.41341 0.343985 3.01633 0
M  V30 END ATOM
M  V30 BEGIN BOND
M  V30 1 1 1 2
M  V30 2 1 2 3
M  V30 3 1 3 4
M  V30 4 1 3 5
M  V30 5 1 3 6
M  V30 6 1 2 7
M  V30 7 1 7 8
M  V30 8 2 8 9
M  V30 9 1 9 10
M  V30 10 2 10 11
M  V30 11 1 11 12
M  V30 12 2 12 13
M  V30 13 1 13 14
M  V30 14 1 13 8
M  V30 15 1 2 15
M  V30 16 1 4 16
M  V30 17 1 4 17
M  V30 18 1 5 18
M  V30 19 1 5 19
M  V30 20 1 5 20
M  V30 21 1 6 21
M  V30 22 1 6 22
M  V30 23 1 6 23
M  V30 24 1 7 24
M  V30 25 1 7 25
M  V30 26 1 9 26
M  V30 27 1 10 27
M  V30 28 1 11 28
M  V30 29 1 14 29
M  V30 30 1 14 30
M  V30 END BOND
M  V30 END CTAB
M  END
