
     RDKit          3D

  0  0  0  0  0  0  0  0  0  0999 V3000
M  V30 BEGIN CTAB
M  V30 COUNTS 19 19 0 0 0
M  V30 BEGIN ATOM
M  V30 1 N 2.7051 -1.0366 1.28906 0
M  V30 2 N 2.41101 -0.469922 0.119249 0
M  V30 3 C 1.41678 -0.0420291 -0.500089 0
M  V30 4 C 0.01586 -0.0360718 -0.0344805 0
M  V30 5 C -0.386598 -0.515191 1.17743 0
M  V30 6 C -1.7412 -0.465835 1.52985 0
M  V30 7 N -2.67589 0.042139 0.710392 0
M  V30 8 C -2.2969 0.519427 -0.489382 0
M  V30 9 C -0.973059 0.484665 -0.86403 0
M  V30 10 O -3.25429 1.06035 -1.37497 0
M  V30 11 N 1.59543 0.527293 -1.83764 0
M  V30 12 H 2.92424 -2.07473 1.34266 0
M  V30 13 H 2.74162 -0.528995 2.20204 0
M  V30 14 H 0.332024 -0.927418 1.85611 0
M  V30 15 H -2.00348 -0.859464 2.50215 0
M  V30 16 H -0.717953 0.88134 -1.84067 0
M  V30 17 H -3.43221 2.06172 -1.21313 0
M  V30 18 H 1.22717 1.44636 -2.08156 0
M  V30 19 H 2.11235 -0.0670551 -2.49298 0
M  V30 END ATOM
M  V30 BEGIN BOND
M  V30 1 1 1 2
M  V30 2 2 2 3 CFG=2
M  V30 3 1 3 4
M  V30 4 2 4 5
M  V30 5 1 5 6
M  V30 6 2 6 7
M  V30 7 1 7 8
M  V30 8 2 8 9
M  V30 9 1 8 10
M  V30 10 1 3 11
M  V30 11 1 9 4
M  V30 12 1 1 12
M  V30 13 1 1 13
M  V30 14 1 5 14
M  V30 15 1 6 15
M  V30 16 1 9 16
M  V30 17 1 10 17
M  V30 18 1 11 18
M  V30 19 1 11 19
M  V30 END BOND
M  V30 END CTAB
M  END
