
     RDKit          3D

  0  0  0  0  0  0  0  0  0  0999 V3000
M  V30 BEGIN CTAB
M  V30 COUNTS 34 35 0 0 0
M  V30 BEGIN ATOM
M  V30 1 N -1.99595 -2.02865 -0.280773 0
M  V30 2 C -2.3436 -0.757091 0.186026 0
M  V30 3 C -3.56978 -0.370153 0.604131 0
M  V30 4 C -3.86485 0.909475 1.00756 0
M  V30 5 C -2.87434 1.83486 0.987906 0
M  V30 6 C -1.59074 1.45675 0.5626 0
M  V30 7 C -1.24958 0.198549 0.151135 0
M  V30 8 C 0.0271114 -0.264819 -0.220048 0 CFG=1
M  V30 9 C 0.508249 -0.142251 -1.66899 0
M  V30 10 C 1.3979 -1.42422 -1.81289 0
M  V30 11 C 2.01336 -1.85631 -0.530425 0
M  V30 12 C 2.24467 -0.801814 0.471928 0
M  V30 13 N 1.19187 0.180991 0.543559 0
M  V30 14 S 1.84688 1.68615 0.278055 0
M  V30 15 O 3.34429 1.58583 -0.0857972 0
M  V30 16 O 1.20195 2.60389 -0.723394 0
M  V30 17 N 1.83036 2.57147 1.79319 0
M  V30 18 H -1.70146 -2.78582 0.348289 0
M  V30 19 H -2.04074 -2.21649 -1.32423 0
M  V30 20 H -4.33605 -1.16362 0.594049 0
M  V30 21 H -4.89122 1.13317 1.31325 0
M  V30 22 H -3.06195 2.84982 1.30173 0
M  V30 23 H -0.87399 2.27621 0.677854 0
M  V30 24 H 0.050398 -1.38457 -0.0243424 0
M  V30 25 H 1.21762 0.65156 -1.82811 0
M  V30 26 H -0.27478 -0.258218 -2.38224 0
M  V30 27 H 0.741117 -2.28109 -2.166 0
M  V30 28 H 2.13408 -1.28408 -2.64209 0
M  V30 29 H 3.03686 -2.27762 -0.799847 0
M  V30 30 H 1.51887 -2.76066 -0.0633783 0
M  V30 31 H 3.27191 -0.364306 0.348412 0
M  V30 32 H 2.30958 -1.23465 1.53823 0
M  V30 33 H 2.63744 2.14896 2.30307 0
M  V30 34 H 2.14455 3.56876 1.54159 0
M  V30 END ATOM
M  V30 BEGIN BOND
M  V30 1 1 1 2
M  V30 2 2 2 3
M  V30 3 1 3 4
M  V30 4 2 4 5
M  V30 5 1 5 6
M  V30 6 2 6 7
M  V30 7 1 7 8
M  V30 8 1 8 9
M  V30 9 1 9 10
M  V30 10 1 10 11
M  V30 11 1 11 12
M  V30 12 1 12 13
M  V30 13 1 13 14
M  V30 14 2 14 15
M  V30 15 2 14 16
M  V30 16 1 14 17
M  V30 17 1 7 2
M  V30 18 1 13 8
M  V30 19 1 1 18
M  V30 20 1 1 19
M  V30 21 1 3 20
M  V30 22 1 4 21
M  V30 23 1 5 22
M  V30 24 1 6 23
M  V30 25 1 8 24 CFG=1
M  V30 26 1 9 25
M  V30 27 1 9 26
M  V30 28 1 10 27
M  V30 29 1 10 28
M  V30 30 1 11 29
M  V30 31 1 11 30
M  V30 32 1 12 31
M  V30 33 1 12 32
M  V30 34 1 17 33
M  V30 35 1 17 34
M  V30 END BOND
M  V30 END CTAB
M  END
