
     RDKit          3D

  0  0  0  0  0  0  0  0  0  0999 V3000
M  V30 BEGIN CTAB
M  V30 COUNTS 31 31 0 0 0
M  V30 BEGIN ATOM
M  V30 1 C 0.0102946 -2.17811 0.487739 0
M  V30 2 C -0.672806 -0.921825 0.224124 0
M  V30 3 C 0.0943491 0.196395 2.62162e-05 0
M  V30 4 C -0.574232 1.38669 -0.234808 0
M  V30 5 C -1.95304 1.51112 -0.256604 0
M  V30 6 N -2.57916 2.78045 -0.507184 0
M  V30 7 C -2.70104 0.381433 -0.0308389 0
M  V30 8 C -2.07427 -0.821216 0.206804 0
M  V30 9 N -2.79871 -2.02385 0.446866 0
M  V30 10 C 1.52001 0.171993 -0.0144503 0
M  V30 11 C 2.29388 -0.26518 1.15434 0
M  V30 12 C 2.00488 1.62279 -0.273334 0
M  V30 13 C 1.99911 -0.597106 -1.23446 0
M  V30 14 H 0.523251 -2.2132 1.48632 0
M  V30 15 H -0.815007 -2.94775 0.690229 0
M  V30 16 H 0.551213 -2.65484 -0.319901 0
M  V30 17 H -0.0597817 2.3346 -0.424138 0
M  V30 18 H -2.54191 3.15484 -1.45729 0
M  V30 19 H -3.06107 3.32086 0.236353 0
M  V30 20 H -3.77527 0.451092 -0.0426398 0
M  V30 21 H -2.73618 -2.82562 -0.211188 0
M  V30 22 H -3.39023 -2.10086 1.2798 0
M  V30 23 H 2.66092 -1.32108 0.966563 0
M  V30 24 H 1.85012 -0.136872 2.13455 0
M  V30 25 H 3.25724 0.291102 1.18762 0
M  V30 26 H 3.13064 1.63643 -0.21588 0
M  V30 27 H 1.72882 1.98187 -1.26089 0
M  V30 28 H 1.68721 2.27269 0.562532 0
M  V30 29 H 2.53081 -1.4973 -0.871823 0
M  V30 30 H 2.73553 -0.0259845 -1.84314 0
M  V30 31 H 1.1544 -0.963584 -1.8653 0
M  V30 END ATOM
M  V30 BEGIN BOND
M  V30 1 1 1 2
M  V30 2 2 2 3
M  V30 3 1 3 4
M  V30 4 2 4 5
M  V30 5 1 5 6
M  V30 6 1 5 7
M  V30 7 2 7 8
M  V30 8 1 8 9
M  V30 9 1 3 10
M  V30 10 1 10 11
M  V30 11 1 10 12
M  V30 12 1 10 13
M  V30 13 1 8 2
M  V30 14 1 1 14
M  V30 15 1 1 15
M  V30 16 1 1 16
M  V30 17 1 4 17
M  V30 18 1 6 18
M  V30 19 1 6 19
M  V30 20 1 7 20
M  V30 21 1 9 21
M  V30 22 1 9 22
M  V30 23 1 11 23
M  V30 24 1 11 24
M  V30 25 1 11 25
M  V30 26 1 12 26
M  V30 27 1 12 27
M  V30 28 1 12 28
M  V30 29 1 13 29
M  V30 30 1 13 30
M  V30 31 1 13 31
M  V30 END BOND
M  V30 END CTAB
M  END
