
     RDKit          3D

  0  0  0  0  0  0  0  0  0  0999 V3000
M  V30 BEGIN CTAB
M  V30 COUNTS 30 30 0 0 0
M  V30 BEGIN ATOM
M  V30 1 C -3.02676 1.16533 -0.545245 0
M  V30 2 C -2.06431 -0.000658433 -0.641118 0
M  V30 3 N -1.16271 0.0707951 0.489378 0
M  V30 4 C 0.234198 0.201349 0.330541 0
M  V30 5 C 0.861874 1.29945 0.860869 0
M  V30 6 C 2.22571 1.38963 0.684061 0
M  V30 7 C 2.96773 0.422287 -0.000568095 0
M  V30 8 C 2.30038 -0.666849 -0.519045 0
M  V30 9 C 0.91586 -0.776376 -0.349956 0
M  V30 10 F 0.320305 -1.87547 -0.886032 0
M  V30 11 N 3.02434 -1.65762 -1.21417 0
M  V30 12 N 4.36414 0.590537 -0.137635 0
M  V30 13 C -1.70253 0.00767603 1.83709 0
M  V30 14 C -2.8091 -1.30535 -0.623892 0
M  V30 15 H -3.88932 0.902345 0.110441 0
M  V30 16 H -2.45398 2.03443 -0.160077 0
M  V30 17 H -3.43182 1.44475 -1.53104 0
M  V30 18 H -1.5404 0.094368 -1.5989 0
M  V30 19 H 0.312438 2.08112 1.40564 0
M  V30 20 H 2.71663 2.25264 1.10127 0
M  V30 21 H 2.89178 -1.77447 -2.23124 0
M  V30 22 H 3.68632 -2.26452 -0.702346 0
M  V30 23 H 4.98301 0.48953 0.683224 0
M  V30 24 H 4.75524 0.814659 -1.06482 0
M  V30 25 H -1.9154 1.03181 2.2044 0
M  V30 26 H -2.63524 -0.593673 1.81816 0
M  V30 27 H -0.969321 -0.431731 2.54619 0
M  V30 28 H -3.91945 -1.11662 -0.593292 0
M  V30 29 H -2.50214 -1.93603 0.250987 0
M  V30 30 H -2.53747 -1.89336 -1.52289 0
M  V30 END ATOM
M  V30 BEGIN BOND
M  V30 1 1 1 2
M  V30 2 1 2 3
M  V30 3 1 3 4
M  V30 4 2 4 5
M  V30 5 1 5 6
M  V30 6 2 6 7
M  V30 7 1 7 8
M  V30 8 2 8 9
M  V30 9 1 9 10
M  V30 10 1 8 11
M  V30 11 1 7 12
M  V30 12 1 3 13
M  V30 13 1 2 14
M  V30 14 1 9 4
M  V30 15 1 1 15
M  V30 16 1 1 16
M  V30 17 1 1 17
M  V30 18 1 2 18
M  V30 19 1 5 19
M  V30 20 1 6 20
M  V30 21 1 11 21
M  V30 22 1 11 22
M  V30 23 1 12 23
M  V30 24 1 12 24
M  V30 25 1 13 25
M  V30 26 1 13 26
M  V30 27 1 13 27
M  V30 28 1 14 28
M  V30 29 1 14 29
M  V30 30 1 14 30
M  V30 END BOND
M  V30 END CTAB
M  END
