
     RDKit          3D

  0  0  0  0  0  0  0  0  0  0999 V3000
M  V30 BEGIN CTAB
M  V30 COUNTS 39 40 0 0 0
M  V30 BEGIN ATOM
M  V30 1 N 7.4425 0.361663 0.296343 0
M  V30 2 C 6.03469 0.533107 0.203129 0
M  V30 3 C 5.38572 0.708278 -1.00974 0
M  V30 4 C 4.01568 0.867742 -1.04809 0
M  V30 5 C 3.22066 0.863022 0.0973004 0
M  V30 6 C 3.87883 0.688388 1.29385 0
M  V30 7 C 5.25199 0.527952 1.33903 0
M  V30 8 C 1.77538 1.03639 -0.0130102 0
M  V30 9 O 1.32091 2.20683 -0.0429242 0
M  V30 10 N 0.848095 -0.04208 -0.0902531 0
M  V30 11 C -0.51933 0.197717 -0.202335 0
M  V30 12 O -0.877162 1.43348 -0.223451 0
M  V30 13 N -1.52202 -0.76421 -0.293729 0
M  V30 14 C -2.88849 -0.255017 -0.411946 0
M  V30 15 C -3.57565 -0.402829 -1.58584 0
M  V30 16 C -4.85659 0.0758303 -1.67935 0
M  V30 17 C -5.49681 0.707491 -0.63511 0
M  V30 18 C -4.79832 0.854373 0.549483 0
M  V30 19 C -3.48985 0.365752 0.644977 0
M  V30 20 N -5.41303 1.49775 1.65232 0
M  V30 21 C -1.33023 -2.15309 -0.287233 0
M  V30 22 O -0.216017 -2.67992 -0.183755 0
M  V30 23 C -2.47994 -3.11407 -0.409311 0
M  V30 24 H 8.06774 1.15048 0.539734 0
M  V30 25 H 7.90448 -0.559608 0.125168 0
M  V30 26 H 5.98488 0.715549 -1.90938 0
M  V30 27 H 3.48114 1.00855 -1.99986 0
M  V30 28 H 3.28475 0.68113 2.20207 0
M  V30 29 H 5.76697 0.390453 2.29316 0
M  V30 30 H 1.30909 -0.994405 -0.0568105 0
M  V30 31 H -3.12528 -0.888671 -2.4343 0
M  V30 32 H -5.42735 -0.0269056 -2.59934 0
M  V30 33 H -6.50612 1.08568 -0.704855 0
M  V30 34 H -2.97456 0.504987 1.60987 0
M  V30 35 H -6.40454 1.38715 1.86954 0
M  V30 36 H -4.81982 2.10419 2.25402 0
M  V30 37 H -3.39403 -2.61965 -0.048541 0
M  V30 38 H -2.54406 -3.45497 -1.46277 0
M  V30 39 H -2.31431 -3.99851 0.224067 0
M  V30 END ATOM
M  V30 BEGIN BOND
M  V30 1 1 1 2
M  V30 2 2 2 3
M  V30 3 1 3 4
M  V30 4 2 4 5
M  V30 5 1 5 6
M  V30 6 2 6 7
M  V30 7 1 5 8
M  V30 8 2 8 9
M  V30 9 1 8 10
M  V30 10 1 10 11
M  V30 11 2 11 12
M  V30 12 1 11 13
M  V30 13 1 13 14
M  V30 14 2 14 15
M  V30 15 1 15 16
M  V30 16 2 16 17
M  V30 17 1 17 18
M  V30 18 2 18 19
M  V30 19 1 18 20
M  V30 20 1 13 21
M  V30 21 2 21 22
M  V30 22 1 21 23
M  V30 23 1 7 2
M  V30 24 1 19 14
M  V30 25 1 1 24
M  V30 26 1 1 25
M  V30 27 1 3 26
M  V30 28 1 4 27
M  V30 29 1 6 28
M  V30 30 1 7 29
M  V30 31 1 10 30
M  V30 32 1 15 31
M  V30 33 1 16 32
M  V30 34 1 17 33
M  V30 35 1 19 34
M  V30 36 1 20 35
M  V30 37 1 20 36
M  V30 38 1 23 37
M  V30 39 1 23 38
M  V30 40 1 23 39
M  V30 END BOND
M  V30 END CTAB
M  END
