
     RDKit          3D

  0  0  0  0  0  0  0  0  0  0999 V3000
M  V30 BEGIN CTAB
M  V30 COUNTS 39 40 0 0 0
M  V30 BEGIN ATOM
M  V30 1 N -1.05644 -3.31688 0.553418 0
M  V30 2 C -0.0524278 -2.35144 0.798107 0
M  V30 3 C -0.115265 -1.10959 -0.0367206 0
M  V30 4 C -1.32635 -0.276503 0.0730236 0
M  V30 5 C -2.64326 -0.815555 -0.286307 0
M  V30 6 C -3.68338 -0.0754077 0.588102 0
M  V30 7 C -3.34343 1.37746 0.498125 0
M  V30 8 C -2.5109 1.7081 -0.717773 0
M  V30 9 C -1.17227 1.04656 -0.709181 0
M  V30 10 N 1.01757 -0.277629 0.403812 0
M  V30 11 C 2.0941 0.0338536 -0.435052 0
M  V30 12 O 2.08478 -0.42064 -1.61361 0
M  V30 13 C 3.24417 0.86979 -0.0104881 0
M  V30 14 N 3.26733 1.39333 1.32773 0
M  V30 15 C 3.98469 1.63975 -1.03837 0
M  V30 16 C 4.61119 0.38437 -0.568048 0
M  V30 17 H -0.745392 -4.15662 0.0235724 0
M  V30 18 H -1.66471 -3.54428 1.36757 0
M  V30 19 H 0.969372 -2.79909 0.636131 0
M  V30 20 H -0.121291 -2.01571 1.87567 0
M  V30 21 H 0.142185 -1.36585 -1.10553 0
M  V30 22 H -1.36127 0.0961924 1.1524 0
M  V30 23 H -2.85793 -1.86496 -0.197728 0
M  V30 24 H -2.91492 -0.558663 -1.3668 0
M  V30 25 H -3.46832 -0.411312 1.6275 0
M  V30 26 H -4.6996 -0.323392 0.247634 0
M  V30 27 H -4.30259 1.94317 0.39497 0
M  V30 28 H -2.83716 1.77631 1.39771 0
M  V30 29 H -2.40801 2.83043 -0.722841 0
M  V30 30 H -3.07779 1.46196 -1.63674 0
M  V30 31 H -0.420751 1.6987 -0.205013 0
M  V30 32 H -0.893057 0.793168 -1.73711 0
M  V30 33 H 0.999996 0.0803741 1.37036 0
M  V30 34 H 2.84795 0.768189 2.03576 0
M  V30 35 H 4.25429 1.57207 1.59273 0
M  V30 36 H 4.42575 2.62375 -0.730839 0
M  V30 37 H 3.66757 1.6533 -2.10057 0
M  V30 38 H 5.47322 0.454231 0.12704 0
M  V30 39 H 4.59233 -0.521546 -1.20522 0
M  V30 END ATOM
M  V30 BEGIN BOND
M  V30 1 1 1 2
M  V30 2 1 2 3
M  V30 3 1 3 4
M  V30 4 1 4 5
M  V30 5 1 5 6
M  V30 6 1 6 7
M  V30 7 1 7 8
M  V30 8 1 8 9
M  V30 9 1 3 10
M  V30 10 1 10 11
M  V30 11 2 11 12
M  V30 12 1 11 13
M  V30 13 1 13 14
M  V30 14 1 13 15
M  V30 15 1 15 16
M  V30 16 1 9 4
M  V30 17 1 16 13
M  V30 18 1 1 17
M  V30 19 1 1 18
M  V30 20 1 2 19
M  V30 21 1 2 20
M  V30 22 1 3 21
M  V30 23 1 4 22
M  V30 24 1 5 23
M  V30 25 1 5 24
M  V30 26 1 6 25
M  V30 27 1 6 26
M  V30 28 1 7 27
M  V30 29 1 7 28
M  V30 30 1 8 29
M  V30 31 1 8 30
M  V30 32 1 9 31
M  V30 33 1 9 32
M  V30 34 1 10 33
M  V30 35 1 14 34
M  V30 36 1 14 35
M  V30 37 1 15 36
M  V30 38 1 15 37
M  V30 39 1 16 38
M  V30 40 1 16 39
M  V30 END BOND
M  V30 END CTAB
M  END
