
     RDKit          3D

  0  0  0  0  0  0  0  0  0  0999 V3000
M  V30 BEGIN CTAB
M  V30 COUNTS 24 24 0 0 0
M  V30 BEGIN ATOM
M  V30 1 N -3.92459 1.39819 -0.0402727 0
M  V30 2 C -3.25947 0.124731 0.103983 0
M  V30 3 C -1.76273 0.379942 -0.0046339 0
M  V30 4 N -1.01386 -0.841445 0.128251 0
M  V30 5 C 0.393867 -0.793634 0.0528582 0
M  V30 6 C 1.0258 0.400962 -0.143788 0
M  V30 7 C 2.40122 0.424493 -0.214222 0
M  V30 8 N 3.08931 1.65715 -0.418857 0
M  V30 9 C 3.10507 -0.741053 -0.0868485 0
M  V30 10 C 2.48255 -1.94934 0.111236 0
M  V30 11 C 1.10694 -1.95539 0.179258 0
M  V30 12 F 3.2158 -3.10432 0.235683 0
M  V30 13 H -4.07381 1.62772 -1.0487 0
M  V30 14 H -3.28622 2.13153 0.341686 0
M  V30 15 H -3.51976 -0.287867 1.0947 0
M  V30 16 H -3.50569 -0.575948 -0.727207 0
M  V30 17 H -1.41961 1.11622 0.761898 0
M  V30 18 H -1.53111 0.806558 -0.997932 0
M  V30 19 H -1.52432 -1.73561 0.27723 0
M  V30 20 H 0.484778 1.34488 -0.248365 0
M  V30 21 H 2.87654 2.48281 0.177558 0
M  V30 22 H 3.80931 1.74747 -1.16289 0
M  V30 23 H 4.20263 -0.733121 -0.141549 0
M  V30 24 H 0.627363 -2.92493 0.33724 0
M  V30 END ATOM
M  V30 BEGIN BOND
M  V30 1 1 1 2
M  V30 2 1 2 3
M  V30 3 1 3 4
M  V30 4 1 4 5
M  V30 5 2 5 6
M  V30 6 1 6 7
M  V30 7 1 7 8
M  V30 8 2 7 9
M  V30 9 1 9 10
M  V30 10 2 10 11
M  V30 11 1 10 12
M  V30 12 1 11 5
M  V30 13 1 1 13
M  V30 14 1 1 14
M  V30 15 1 2 15
M  V30 16 1 2 16
M  V30 17 1 3 17
M  V30 18 1 3 18
M  V30 19 1 4 19
M  V30 20 1 6 20
M  V30 21 1 8 21
M  V30 22 1 8 22
M  V30 23 1 9 23
M  V30 24 1 11 24
M  V30 END BOND
M  V30 END CTAB
M  END
