
     RDKit          3D

  0  0  0  0  0  0  0  0  0  0999 V3000
M  V30 BEGIN CTAB
M  V30 COUNTS 35 37 0 0 0
M  V30 BEGIN ATOM
M  V30 1 N 5.87426 -1.18935 -0.697007 0
M  V30 2 C 4.80598 -0.388621 -0.210645 0
M  V30 3 C 3.9738 -0.967268 0.74087 0
M  V30 4 C 2.93741 -0.216039 1.2249 0
M  V30 5 C 2.70329 1.07613 0.799658 0
M  V30 6 C 3.54047 1.64805 -0.152722 0
M  V30 7 C 4.5963 0.901278 -0.654656 0
M  V30 8 C 1.55987 1.79243 1.38723 0
M  V30 9 C 0.306962 1.59996 0.62985 0
M  V30 10 N -0.100906 2.38551 -0.381865 0
M  V30 11 N -1.25005 1.9708 -0.861084 0
M  V30 12 C -1.62696 0.893912 -0.169326 0
M  V30 13 N -0.656983 0.671498 0.751723 0
M  V30 14 C -2.85178 0.095517 -0.358566 0
M  V30 15 C -3.7387 0.456353 -1.34286 0
M  V30 16 C -4.89735 -0.276774 -1.54186 0
M  V30 17 C -5.17306 -1.38072 -0.750515 0
M  V30 18 C -4.29237 -1.75386 0.240248 0
M  V30 19 C -3.13051 -1.00152 0.424302 0
M  V30 20 N -4.57536 -2.88191 1.04793 0
M  V30 21 H 5.82165 -2.22901 -0.739701 0
M  V30 22 H 6.7501 -0.731484 -1.02693 0
M  V30 23 H 4.13611 -1.98298 1.09278 0
M  V30 24 H 2.27542 -0.670692 1.97913 0
M  V30 25 H 3.36316 2.65921 -0.490276 0
M  V30 26 H 5.2629 1.32458 -1.3977 0
M  V30 27 H 1.8475 2.87631 1.44748 0
M  V30 28 H 1.45296 1.44899 2.45407 0
M  V30 29 H -1.77984 2.39562 -1.63785 0
M  V30 30 H -3.55546 1.30733 -1.97462 0
M  V30 31 H -5.5949 0.0105835 -2.3192 0
M  V30 32 H -6.0933 -1.90515 -0.960755 0
M  V30 33 H -2.45838 -1.31569 1.20696 0
M  V30 34 H -5.55187 -3.02385 1.40108 0
M  V30 35 H -3.88038 -3.59914 1.3276 0
M  V30 END ATOM
M  V30 BEGIN BOND
M  V30 1 1 1 2
M  V30 2 2 2 3
M  V30 3 1 3 4
M  V30 4 2 4 5
M  V30 5 1 5 6
M  V30 6 2 6 7
M  V30 7 1 5 8
M  V30 8 1 8 9
M  V30 9 2 9 10
M  V30 10 1 10 11
M  V30 11 1 11 12
M  V30 12 2 12 13
M  V30 13 1 12 14
M  V30 14 2 14 15
M  V30 15 1 15 16
M  V30 16 2 16 17
M  V30 17 1 17 18
M  V30 18 2 18 19
M  V30 19 1 18 20
M  V30 20 1 7 2
M  V30 21 1 13 9
M  V30 22 1 19 14
M  V30 23 1 1 21
M  V30 24 1 1 22
M  V30 25 1 3 23
M  V30 26 1 4 24
M  V30 27 1 6 25
M  V30 28 1 7 26
M  V30 29 1 8 27
M  V30 30 1 8 28
M  V30 31 1 11 29
M  V30 32 1 15 30
M  V30 33 1 16 31
M  V30 34 1 17 32
M  V30 35 1 19 33
M  V30 36 1 20 34
M  V30 37 1 20 35
M  V30 END BOND
M  V30 END CTAB
M  END
