
     RDKit          3D

  0  0  0  0  0  0  0  0  0  0999 V3000
M  V30 BEGIN CTAB
M  V30 COUNTS 31 31 0 0 0
M  V30 BEGIN ATOM
M  V30 1 C 5.09976 0.942896 0.0430776 0
M  V30 2 C 3.65142 1.28448 -0.0655397 0
M  V30 3 S 2.66246 -0.183543 0.0683023 0
M  V30 4 O 2.93888 -0.866162 1.37115 0
M  V30 5 O 3.0161 -1.11379 -1.08369 0
M  V30 6 C 0.926954 0.25187 -0.0650724 0
M  V30 7 C 0.0643678 -0.987105 0.0469144 0
M  V30 8 C -1.34902 -0.552041 -0.0714131 0
M  V30 9 C -1.8439 -0.205253 -1.30585 0
M  V30 10 C -3.15585 0.200044 -1.42474 0
M  V30 11 C -4.0262 0.28207 -0.357311 0
M  V30 12 C -3.49035 -0.0745998 0.863814 0
M  V30 13 C -2.18227 -0.484703 1.01919 0
M  V30 14 N -5.38603 0.70613 -0.504878 0
M  V30 15 N 0.316482 -1.91717 -1.03313 0
M  V30 16 H 5.69791 1.85957 -0.196319 0
M  V30 17 H 5.31154 0.563138 1.06799 0
M  V30 18 H 5.32167 0.123314 -0.658439 0
M  V30 19 H 3.30659 1.98283 0.724658 0
M  V30 20 H 3.44584 1.72024 -1.06837 0
M  V30 21 H 0.765765 0.742655 -1.02721 0
M  V30 22 H 0.692366 0.959856 0.754446 0
M  V30 23 H 0.203174 -1.46774 1.03483 0
M  V30 24 H -1.21396 -0.243291 -2.20934 0
M  V30 25 H -3.54596 0.475266 -2.40925 0
M  V30 26 H -4.1669 -0.0152627 1.72059 0
M  V30 27 H -1.82188 -0.755183 2.02825 0
M  V30 28 H -5.57043 1.69539 -0.801845 0
M  V30 29 H -6.1679 0.052289 -0.322905 0
M  V30 30 H -0.57248 -2.37776 -1.29332 0
M  V30 31 H 1.07185 -2.59843 -0.787977 0
M  V30 END ATOM
M  V30 BEGIN BOND
M  V30 1 1 1 2
M  V30 2 1 2 3
M  V30 3 2 3 4
M  V30 4 2 3 5
M  V30 5 1 3 6
M  V30 6 1 6 7
M  V30 7 1 7 8
M  V30 8 2 8 9
M  V30 9 1 9 10
M  V30 10 2 10 11
M  V30 11 1 11 12
M  V30 12 2 12 13
M  V30 13 1 11 14
M  V30 14 1 7 15
M  V30 15 1 13 8
M  V30 16 1 1 16
M  V30 17 1 1 17
M  V30 18 1 1 18
M  V30 19 1 2 19
M  V30 20 1 2 20
M  V30 21 1 6 21
M  V30 22 1 6 22
M  V30 23 1 7 23
M  V30 24 1 9 24
M  V30 25 1 10 25
M  V30 26 1 12 26
M  V30 27 1 13 27
M  V30 28 1 14 28
M  V30 29 1 14 29
M  V30 30 1 15 30
M  V30 31 1 15 31
M  V30 END BOND
M  V30 END CTAB
M  END
