
     RDKit          3D

  0  0  0  0  0  0  0  0  0  0999 V3000
M  V30 BEGIN CTAB
M  V30 COUNTS 26 27 0 0 0
M  V30 BEGIN ATOM
M  V30 1 N -3.47211 -2.48832 0.000466257 0
M  V30 2 N -3.07937 -1.46925 -0.884786 0
M  V30 3 C -2.15625 -0.468357 -0.468597 0
M  V30 4 C -0.795519 -0.63046 -0.631424 0
M  V30 5 C 0.0934914 0.321173 -0.236441 0
M  V30 6 N -0.397627 1.45625 0.332723 0
M  V30 7 C -1.71613 1.62728 0.497115 0
M  V30 8 N -2.57617 0.684867 0.104666 0
M  V30 9 N -2.21733 2.83331 1.10052 0
M  V30 10 N 1.50228 0.202494 -0.381722 0
M  V30 11 C 2.44064 -0.774319 -0.903981 0
M  V30 12 C 3.39224 -0.310746 0.204733 0
M  V30 13 C 2.66313 1.01404 -0.0704479 0
M  V30 14 O 3.07625 -0.762289 1.46066 0
M  V30 15 H -3.71413 -2.10429 0.945611 0
M  V30 16 H -2.70779 -3.18781 0.0371797 0
M  V30 17 H -3.49753 -1.48758 -1.85234 0
M  V30 18 H -0.441366 -1.54542 -1.08759 0
M  V30 19 H -2.8033 3.50681 0.548206 0
M  V30 20 H -1.96335 2.98692 2.10078 0
M  V30 21 H 2.84293 -0.3966 -1.86954 0
M  V30 22 H 2.14292 -1.81499 -0.860253 0
M  V30 23 H 4.44098 -0.265154 -0.076359 0
M  V30 24 H 3.13275 1.47455 -0.959068 0
M  V30 25 H 2.58606 1.63436 0.827409 0
M  V30 26 H 3.22431 -0.0364603 2.12248 0
M  V30 END ATOM
M  V30 BEGIN BOND
M  V30 1 1 1 2
M  V30 2 1 2 3
M  V30 3 2 3 4
M  V30 4 1 4 5
M  V30 5 2 5 6
M  V30 6 1 6 7
M  V30 7 2 7 8
M  V30 8 1 7 9
M  V30 9 1 5 10
M  V30 10 1 10 11
M  V30 11 1 11 12
M  V30 12 1 12 13
M  V30 13 1 12 14
M  V30 14 1 8 3
M  V30 15 1 13 10
M  V30 16 1 1 15
M  V30 17 1 1 16
M  V30 18 1 2 17
M  V30 19 1 4 18
M  V30 20 1 9 19
M  V30 21 1 9 20
M  V30 22 1 11 21
M  V30 23 1 11 22
M  V30 24 1 12 23
M  V30 25 1 13 24
M  V30 26 1 13 25
M  V30 27 1 14 26
M  V30 END BOND
M  V30 END CTAB
M  END
