
     RDKit          3D

  0  0  0  0  0  0  0  0  0  0999 V3000
M  V30 BEGIN CTAB
M  V30 COUNTS 32 31 0 0 0
M  V30 BEGIN ATOM
M  V30 1 C -1.4894 -0.368484 -1.51019 0
M  V30 2 C -1.24578 -0.212766 -0.0174974 0
M  V30 3 C -1.6253 -1.51269 0.619095 0
M  V30 4 N 0.0149061 0.300398 0.314314 0
M  V30 5 O 0.00248363 0.814088 1.55358 0 RAD=2 VAL=1
M  V30 6 C 1.21465 -0.333119 0.041152 0
M  V30 7 C 1.45019 -1.66043 0.727652 0
M  V30 8 C 1.51751 -0.571402 -1.42982 0
M  V30 9 C 2.30238 0.573475 0.516119 0
M  V30 10 N 2.35517 1.88616 -0.0556034 0
M  V30 11 N 3.16067 0.237093 1.38022 0
M  V30 12 C -2.22733 0.805639 0.420671 0
M  V30 13 N -2.1587 2.11921 -0.0867385 0
M  V30 14 N -3.13724 0.50004 1.25838 0
M  V30 15 H -1.27341 0.573971 -2.00989 0
M  V30 16 H -2.61269 -0.487339 -1.59663 0
M  V30 17 H -1.07039 -1.26948 -1.94398 0
M  V30 18 H -1.4199 -2.39183 -0.0558071 0
M  V30 19 H -2.75038 -1.54281 0.739077 0
M  V30 20 H -1.23031 -1.66981 1.63624 0
M  V30 21 H 0.96478 -2.51648 0.19804 0
M  V30 22 H 2.54558 -1.87352 0.639626 0
M  V30 23 H 1.21386 -1.61036 1.80236 0
M  V30 24 H 1.27571 -1.62474 -1.67636 0
M  V30 25 H 2.6335 -0.507582 -1.59712 0
M  V30 26 H 1.08169 0.171966 -2.09754 0
M  V30 27 H 2.78684 2.70109 0.423756 0
M  V30 28 H 1.95373 2.10311 -1.01002 0
M  V30 29 H 3.89823 0.879021 1.69003 0
M  V30 30 H -2.05899 2.39421 -1.08336 0
M  V30 31 H -2.21021 2.93848 0.594289 0
M  V30 32 H -3.86185 1.1549 1.61595 0
M  V30 END ATOM
M  V30 BEGIN BOND
M  V30 1 1 1 2
M  V30 2 1 2 3
M  V30 3 1 2 4
M  V30 4 1 4 5
M  V30 5 1 4 6
M  V30 6 1 6 7
M  V30 7 1 6 8
M  V30 8 1 6 9
M  V30 9 1 9 10
M  V30 10 2 9 11 CFG=2
M  V30 11 1 2 12
M  V30 12 1 12 13
M  V30 13 2 12 14 CFG=2
M  V30 14 1 1 15
M  V30 15 1 1 16
M  V30 16 1 1 17
M  V30 17 1 3 18
M  V30 18 1 3 19
M  V30 19 1 3 20
M  V30 20 1 7 21
M  V30 21 1 7 22
M  V30 22 1 7 23
M  V30 23 1 8 24
M  V30 24 1 8 25
M  V30 25 1 8 26
M  V30 26 1 10 27
M  V30 27 1 10 28
M  V30 28 1 11 29
M  V30 29 1 13 30
M  V30 30 1 13 31
M  V30 31 1 14 32
M  V30 END BOND
M  V30 END CTAB
M  END
