
     RDKit          3D

  0  0  0  0  0  0  0  0  0  0999 V3000
M  V30 BEGIN CTAB
M  V30 COUNTS 51 53 0 0 0
M  V30 BEGIN ATOM
M  V30 1 C -4.19806 -2.27457 -0.362326 0
M  V30 2 C -4.70322 -1.56895 0.859155 0
M  V30 3 C -5.21015 -0.207682 0.589184 0
M  V30 4 N -6.55905 0.0154538 0.534341 0
M  V30 5 C -7.03837 1.24598 0.288682 0
M  V30 6 N -8.4466 1.47137 0.233225 0
M  V30 7 N -6.16302 2.27232 0.0941735 0
M  V30 8 C -4.82744 2.07387 0.144091 0
M  V30 9 N -3.90824 3.14083 -0.0574454 0
M  V30 10 C -4.31559 0.816502 0.395223 0
M  V30 11 C -2.8853 0.574768 0.455066 0
M  V30 12 C -2.22536 0.459561 1.66084 0
M  V30 13 C -0.868867 0.238131 1.7381 0
M  V30 14 C -0.116711 0.122923 0.590342 0
M  V30 15 N 1.31324 -0.108158 0.656184 0
M  V30 16 C 2.02122 -0.221371 -0.571224 0
M  V30 17 C 3.46194 -0.456682 -0.438474 0
M  V30 18 C 4.2451 -0.305114 -1.58918 0
M  V30 19 C 5.59984 -0.511278 -1.54067 0
M  V30 20 C 6.24992 -0.871174 -0.381256 0
M  V30 21 C 5.46623 -1.01639 0.741529 0
M  V30 22 C 4.08473 -0.812976 0.721977 0
M  V30 23 S 7.98465 -1.1293 -0.339835 0
M  V30 24 C 8.73904 0.430632 0.0557122 0
M  V30 25 O 8.30672 -2.162 0.689843 0
M  V30 26 O 8.38851 -1.57661 -1.72419 0
M  V30 27 C -0.751987 0.233908 -0.623952 0
M  V30 28 C -2.11035 0.455657 -0.69024 0
M  V30 29 H -4.71459 -3.25212 -0.462102 0
M  V30 30 H -4.40012 -1.61802 -1.24511 0
M  V30 31 H -3.11219 -2.49293 -0.314682 0
M  V30 32 H -3.95253 -1.58137 1.68231 0
M  V30 33 H -5.56452 -2.16346 1.27448 0
M  V30 34 H -9.01579 1.55343 1.09957 0
M  V30 35 H -8.94305 1.55991 -0.678444 0
M  V30 36 H -3.09884 3.26655 0.568675 0
M  V30 37 H -4.02647 3.83084 -0.848284 0
M  V30 38 H -2.79158 0.546074 2.6085 0
M  V30 39 H -0.37336 0.15096 2.72241 0
M  V30 40 H 1.70737 -0.170659 1.6152 0
M  V30 41 H 1.61437 -1.04945 -1.18977 0
M  V30 42 H 1.90344 0.751716 -1.1194 0
M  V30 43 H 3.76462 -0.0209538 -2.52402 0
M  V30 44 H 6.16869 -0.384567 -2.44614 0
M  V30 45 H 5.96864 -1.30202 1.67088 0
M  V30 46 H 3.53486 -0.946043 1.63312 0
M  V30 47 H 8.00564 1.03715 0.661194 0
M  V30 48 H 9.64257 0.284771 0.667375 0
M  V30 49 H 8.89987 0.988137 -0.875803 0
M  V30 50 H -0.134134 0.138741 -1.51351 0
M  V30 51 H -2.6157 0.543656 -1.62995 0
M  V30 END ATOM
M  V30 BEGIN BOND
M  V30 1 1 1 2
M  V30 2 1 2 3
M  V30 3 2 3 4
M  V30 4 1 4 5
M  V30 5 1 5 6
M  V30 6 2 5 7
M  V30 7 1 7 8
M  V30 8 1 8 9
M  V30 9 2 8 10
M  V30 10 1 10 11
M  V30 11 2 11 12
M  V30 12 1 12 13
M  V30 13 2 13 14
M  V30 14 1 14 15
M  V30 15 1 15 16
M  V30 16 1 16 17
M  V30 17 2 17 18
M  V30 18 1 18 19
M  V30 19 2 19 20
M  V30 20 1 20 21
M  V30 21 2 21 22
M  V30 22 1 20 23
M  V30 23 1 23 24
M  V30 24 2 23 25
M  V30 25 2 23 26
M  V30 26 1 14 27
M  V30 27 2 27 28
M  V30 28 1 10 3
M  V30 29 1 28 11
M  V30 30 1 22 17
M  V30 31 1 1 29
M  V30 32 1 1 30
M  V30 33 1 1 31
M  V30 34 1 2 32
M  V30 35 1 2 33
M  V30 36 1 6 34
M  V30 37 1 6 35
M  V30 38 1 9 36
M  V30 39 1 9 37
M  V30 40 1 12 38
M  V30 41 1 13 39
M  V30 42 1 15 40
M  V30 43 1 16 41
M  V30 44 1 16 42
M  V30 45 1 18 43
M  V30 46 1 19 44
M  V30 47 1 21 45
M  V30 48 1 22 46
M  V30 49 1 24 47
M  V30 50 1 24 48
M  V30 51 1 24 49
M  V30 52 1 27 50
M  V30 53 1 28 51
M  V30 END BOND
M  V30 END CTAB
M  END
