
     RDKit          3D

  0  0  0  0  0  0  0  0  0  0999 V3000
M  V30 BEGIN CTAB
M  V30 COUNTS 31 31 0 0 0
M  V30 BEGIN ATOM
M  V30 1 N 3.7994 -0.699901 0.13763 0
M  V30 2 C 2.52448 -0.688591 0.756387 0
M  V30 3 C 1.56505 0.121487 -0.0854184 0
M  V30 4 C 0.173364 0.176572 0.519757 0
M  V30 5 C -0.43078 -1.15687 0.670053 0
M  V30 6 C -1.85501 -1.33892 0.381595 0
M  V30 7 C -2.52594 -0.310965 -0.442384 0
M  V30 8 C -1.59991 0.581747 -1.21288 0
M  V30 9 C -0.617274 1.18037 -0.259287 0
M  V30 10 C -1.40342 2.10438 0.675098 0
M  V30 11 N 1.51196 -0.295453 -1.44169 0
M  V30 12 H 3.8385 -0.659164 -0.87439 0
M  V30 13 H 4.56598 -1.13349 0.640045 0
M  V30 14 H 2.63047 -0.259187 1.77371 0
M  V30 15 H 2.18032 -1.73729 0.88426 0
M  V30 16 H 1.96014 1.17829 -0.0678778 0
M  V30 17 H 0.339543 0.654368 1.53406 0
M  V30 18 H 0.164384 -1.88948 0.046223 0
M  V30 19 H -0.231757 -1.51644 1.7246 0
M  V30 20 H -2.03797 -2.33972 -0.115464 0
M  V30 21 H -2.45084 -1.43052 1.34005 0
M  V30 22 H -3.1714 0.368472 0.188374 0
M  V30 23 H -3.24029 -0.756907 -1.17833 0
M  V30 24 H -1.16384 0.123086 -2.1042 0
M  V30 25 H -2.23697 1.43599 -1.5907 0
M  V30 26 H 0.050624 1.85077 -0.839182 0
M  V30 27 H -0.895629 3.07915 0.798526 0
M  V30 28 H -1.45249 1.62023 1.6676 0
M  V30 29 H -2.41431 2.31658 0.267408 0
M  V30 30 H 1.54477 0.481472 -2.12074 0
M  V30 31 H 0.878852 -1.06006 -1.67281 0
M  V30 END ATOM
M  V30 BEGIN BOND
M  V30 1 1 1 2
M  V30 2 1 2 3
M  V30 3 1 3 4
M  V30 4 1 4 5
M  V30 5 1 5 6
M  V30 6 1 6 7
M  V30 7 1 7 8
M  V30 8 1 8 9
M  V30 9 1 9 10
M  V30 10 1 3 11
M  V30 11 1 9 4
M  V30 12 1 1 12
M  V30 13 1 1 13
M  V30 14 1 2 14
M  V30 15 1 2 15
M  V30 16 1 3 16
M  V30 17 1 4 17
M  V30 18 1 5 18
M  V30 19 1 5 19
M  V30 20 1 6 20
M  V30 21 1 6 21
M  V30 22 1 7 22
M  V30 23 1 7 23
M  V30 24 1 8 24
M  V30 25 1 8 25
M  V30 26 1 9 26
M  V30 27 1 10 27
M  V30 28 1 10 28
M  V30 29 1 10 29
M  V30 30 1 11 30
M  V30 31 1 11 31
M  V30 END BOND
M  V30 END CTAB
M  END
