
     RDKit          3D

  0  0  0  0  0  0  0  0  0  0999 V3000
M  V30 BEGIN CTAB
M  V30 COUNTS 21 21 0 0 0
M  V30 BEGIN ATOM
M  V30 1 C -0.820863 1.96192 0.67499 0
M  V30 2 C -1.23762 0.648703 0.174256 0
M  V30 3 N -2.56362 0.347704 -0.000462239 0
M  V30 4 C -2.99761 -0.831581 -0.453075 0
M  V30 5 C -2.08285 -1.81303 -0.76761 0
M  V30 6 C -0.742924 -1.54403 -0.603918 0
M  V30 7 C -0.30337 -0.30489 -0.12913 0
M  V30 8 C 1.09918 -0.0666896 0.0264526 0
M  V30 9 N 1.93845 -1.03452 -0.28684 0
M  V30 10 N 3.3071 -0.900964 -0.171213 0
M  V30 11 N 1.72483 1.10835 0.487098 0
M  V30 12 H -1.77167 2.56621 0.840694 0
M  V30 13 H -0.278079 2.59202 -0.0691994 0
M  V30 14 H -0.362673 1.96198 1.68439 0
M  V30 15 H -4.06751 -0.992796 -0.564162 0
M  V30 16 H -2.4409 -2.76707 -1.13411 0
M  V30 17 H 0.00200076 -2.30122 -0.844672 0
M  V30 18 H 3.90051 -0.747735 -1.02096 0
M  V30 19 H 3.78403 -0.949972 0.771073 0
M  V30 20 H 1.90041 1.18416 1.51351 0
M  V30 21 H 2.01318 1.88347 -0.127106 0
M  V30 END ATOM
M  V30 BEGIN BOND
M  V30 1 1 1 2
M  V30 2 2 2 3
M  V30 3 1 3 4
M  V30 4 2 4 5
M  V30 5 1 5 6
M  V30 6 2 6 7
M  V30 7 1 7 8
M  V30 8 2 8 9
M  V30 9 1 9 10
M  V30 10 1 8 11
M  V30 11 1 7 2
M  V30 12 1 1 12
M  V30 13 1 1 13
M  V30 14 1 1 14
M  V30 15 1 4 15
M  V30 16 1 5 16
M  V30 17 1 6 17
M  V30 18 1 10 18
M  V30 19 1 10 19
M  V30 20 1 11 20
M  V30 21 1 11 21
M  V30 END BOND
M  V30 END CTAB
M  END
