
     RDKit          3D

  0  0  0  0  0  0  0  0  0  0999 V3000
M  V30 BEGIN CTAB
M  V30 COUNTS 45 47 0 0 0
M  V30 BEGIN ATOM
M  V30 1 F 9.93824 -0.316465 -0.383941 0
M  V30 2 C 8.58643 -0.145308 -0.453314 0
M  V30 3 S 7.68986 -1.59354 0.221012 0
M  V30 4 C 5.9455 -1.22542 0.06357 0
M  V30 5 C 5.25168 -0.586269 1.06495 0
M  V30 6 C 3.88492 -0.313162 0.908471 0
M  V30 7 C 3.19484 -0.6529 -0.20337 0
M  V30 8 C 3.89901 -1.3004 -1.21633 0
M  V30 9 C 5.2452 -1.57592 -1.07561 0
M  V30 10 N 1.81598 -0.370454 -0.39005 0
M  V30 11 C 1.11792 0.74167 0.101626 0
M  V30 12 C 1.81107 1.91941 0.439448 0
M  V30 13 C 1.15592 3.06288 0.842503 0
M  V30 14 C -0.210761 3.05617 0.916332 0
M  V30 15 C -0.886804 1.92025 0.590715 0
M  V30 16 C -0.247148 0.738517 0.177892 0
M  V30 17 C -1.10517 -0.419673 -0.0874428 0
M  V30 18 O -0.737838 -1.55755 -0.404029 0
M  V30 19 O -2.50606 -0.268243 0.0166579 0
M  V30 20 C -3.35015 -1.35611 -0.23144 0
M  V30 21 C -4.75941 -0.932204 -0.056195 0
M  V30 22 N -5.77852 -1.79895 -0.240854 0
M  V30 23 C -7.06026 -1.45001 -0.0912787 0
M  V30 24 N -8.16645 -2.32265 -0.273615 0
M  V30 25 N -7.31697 -0.177581 0.257747 0
M  V30 26 C -6.35636 0.736458 0.457557 0
M  V30 27 N -5.07584 0.323312 0.291003 0
M  V30 28 N -6.69357 2.05869 0.823352 0
M  V30 29 F 8.19047 0.969833 0.292768 0
M  V30 30 H 8.20596 -0.0166963 -1.48938 0
M  V30 31 H 5.78353 -0.304762 1.9632 0
M  V30 32 H 3.41737 0.177962 1.7482 0
M  V30 33 H 3.34372 -1.57187 -2.10567 0
M  V30 34 H 5.80037 -2.08646 -1.87435 0
M  V30 35 H 1.27892 -1.0705 -0.996861 0
M  V30 36 H 2.88582 1.97017 0.368215 0
M  V30 37 H 1.69374 3.95773 1.09951 0
M  V30 38 H -0.699542 3.97682 1.23789 0
M  V30 39 H -1.97743 1.95237 0.661043 0
M  V30 40 H -3.18639 -2.19606 0.500634 0
M  V30 41 H -3.24522 -1.76449 -1.25872 0
M  V30 42 H -8.68438 -2.59656 0.604362 0
M  V30 43 H -8.47035 -2.68405 -1.19404 0
M  V30 44 H -6.29167 2.45701 1.6885 0
M  V30 45 H -7.33016 2.63502 0.248651 0
M  V30 END ATOM
M  V30 BEGIN BOND
M  V30 1 1 1 2
M  V30 2 1 2 3
M  V30 3 1 3 4
M  V30 4 2 4 5
M  V30 5 1 5 6
M  V30 6 2 6 7
M  V30 7 1 7 8
M  V30 8 2 8 9
M  V30 9 1 7 10
M  V30 10 1 10 11
M  V30 11 2 11 12
M  V30 12 1 12 13
M  V30 13 2 13 14
M  V30 14 1 14 15
M  V30 15 2 15 16
M  V30 16 1 16 17
M  V30 17 2 17 18
M  V30 18 1 17 19
M  V30 19 1 19 20
M  V30 20 1 20 21
M  V30 21 2 21 22
M  V30 22 1 22 23
M  V30 23 1 23 24
M  V30 24 2 23 25
M  V30 25 1 25 26
M  V30 26 2 26 27
M  V30 27 1 26 28
M  V30 28 1 2 29
M  V30 29 1 9 4
M  V30 30 1 16 11
M  V30 31 1 27 21
M  V30 32 1 2 30
M  V30 33 1 5 31
M  V30 34 1 6 32
M  V30 35 1 8 33
M  V30 36 1 9 34
M  V30 37 1 10 35
M  V30 38 1 12 36
M  V30 39 1 13 37
M  V30 40 1 14 38
M  V30 41 1 15 39
M  V30 42 1 20 40
M  V30 43 1 20 41
M  V30 44 1 24 42
M  V30 45 1 24 43
M  V30 46 1 28 44
M  V30 47 1 28 45
M  V30 END BOND
M  V30 END CTAB
M  END
