
     RDKit          3D

  0  0  0  0  0  0  0  0  0  0999 V3000
M  V30 BEGIN CTAB
M  V30 COUNTS 36 36 0 0 0
M  V30 BEGIN ATOM
M  V30 1 N -4.0825 -0.09247 0.341557 0
M  V30 2 C -2.88094 -0.220608 1.1071 0
M  V30 3 C -1.64529 0.265785 0.326344 0
M  V30 4 N -1.91222 1.66888 0.0253694 0
M  V30 5 C -1.61178 -0.544289 -0.919361 0
M  V30 6 C -0.451047 -0.43866 -1.7936 0
M  V30 7 C 0.643709 0.485057 -1.41009 0
M  V30 8 N 1.32439 0.0373474 -0.256979 0
M  V30 9 C 0.613281 -0.756799 0.649756 0
M  V30 10 C -0.493191 0.0866176 1.24315 0
M  V30 11 C 2.73028 -0.0109305 -0.290491 0
M  V30 12 C 3.24644 1.40553 -0.496121 0
M  V30 13 C 3.2742 -0.461919 1.04619 0
M  V30 14 H -4.44448 -1.0647 0.131974 0
M  V30 15 H -4.78886 0.399803 0.936258 0
M  V30 16 H -2.64666 -1.30095 1.32863 0
M  V30 17 H -2.89082 0.301603 2.07444 0
M  V30 18 H -2.33393 1.77139 -0.933691 0
M  V30 19 H -2.59383 2.09582 0.689266 0
M  V30 20 H -1.80801 -1.61769 -0.620089 0
M  V30 21 H -2.54788 -0.273446 -1.49603 0
M  V30 22 H -0.755821 -0.160243 -2.84683 0
M  V30 23 H 0.0117418 -1.46152 -1.93632 0
M  V30 24 H 0.297099 1.53814 -1.33494 0
M  V30 25 H 1.38183 0.493591 -2.26553 0
M  V30 26 H 0.104857 -1.59236 0.0925458 0
M  V30 27 H 1.24543 -1.22417 1.39536 0
M  V30 28 H -0.0356223 1.09516 1.4329 0
M  V30 29 H -0.738144 -0.334885 2.23305 0
M  V30 30 H 3.15401 -0.650673 -1.08029 0
M  V30 31 H 3.3725 1.64256 -1.57648 0
M  V30 32 H 4.26184 1.45595 -0.0487301 0
M  V30 33 H 2.61827 2.15934 0.00510094 0
M  V30 34 H 3.24321 -1.551 1.19469 0
M  V30 35 H 2.77663 0.0135528 1.9018 0
M  V30 36 H 4.36132 -0.173335 1.15009 0
M  V30 END ATOM
M  V30 BEGIN BOND
M  V30 1 1 1 2
M  V30 2 1 2 3
M  V30 3 1 3 4
M  V30 4 1 3 5
M  V30 5 1 5 6
M  V30 6 1 6 7
M  V30 7 1 7 8
M  V30 8 1 8 9
M  V30 9 1 9 10
M  V30 10 1 8 11
M  V30 11 1 11 12
M  V30 12 1 11 13
M  V30 13 1 10 3
M  V30 14 1 1 14
M  V30 15 1 1 15
M  V30 16 1 2 16
M  V30 17 1 2 17
M  V30 18 1 4 18
M  V30 19 1 4 19
M  V30 20 1 5 20
M  V30 21 1 5 21
M  V30 22 1 6 22
M  V30 23 1 6 23
M  V30 24 1 7 24
M  V30 25 1 7 25
M  V30 26 1 9 26
M  V30 27 1 9 27
M  V30 28 1 10 28
M  V30 29 1 10 29
M  V30 30 1 11 30
M  V30 31 1 12 31
M  V30 32 1 12 32
M  V30 33 1 12 33
M  V30 34 1 13 34
M  V30 35 1 13 35
M  V30 36 1 13 36
M  V30 END BOND
M  V30 END CTAB
M  END
