
     RDKit          3D

  0  0  0  0  0  0  0  0  0  0999 V3000
M  V30 BEGIN CTAB
M  V30 COUNTS 24 25 0 0 0
M  V30 BEGIN ATOM
M  V30 1 N 4.56496 0.393968 -0.250284 0
M  V30 2 N 3.20347 0.626798 -0.0738206 0
M  V30 3 C 2.28984 -0.465162 -0.144148 0
M  V30 4 O 2.69613 -1.62315 -0.361401 0
M  V30 5 C 0.850539 -0.191943 0.0464842 0
M  V30 6 C -0.155578 -1.12152 0.0102975 0
M  V30 7 N -0.00633194 -2.51152 -0.215396 0
M  V30 8 C -1.33846 -0.471358 0.23135 0
M  V30 9 C -1.04901 0.887137 0.406763 0
M  V30 10 N 0.288187 1.01 0.286599 0
M  V30 11 C -2.08128 1.77051 0.647454 0
M  V30 12 C -3.38085 1.29254 0.710001 0
M  V30 13 C -3.64885 -0.0482131 0.535046 0
M  V30 14 C -2.63312 -0.946224 0.293861 0
M  V30 15 H 5.11767 0.500441 0.629285 0
M  V30 16 H 4.99987 1.03255 -0.962531 0
M  V30 17 H 2.87341 1.59012 0.106099 0
M  V30 18 H -0.540906 -3.14251 0.450939 0
M  V30 19 H 0.589811 -2.91495 -0.986515 0
M  V30 20 H 0.805429 1.90381 0.368081 0
M  V30 21 H -1.83342 2.8034 0.777948 0
M  V30 22 H -4.14736 2.02994 0.901045 0
M  V30 23 H -4.6569 -0.395088 0.587173 0
M  V30 24 H -2.80723 -2.00957 0.151131 0
M  V30 END ATOM
M  V30 BEGIN BOND
M  V30 1 1 1 2
M  V30 2 1 2 3
M  V30 3 2 3 4
M  V30 4 1 3 5
M  V30 5 2 5 6
M  V30 6 1 6 7
M  V30 7 1 6 8
M  V30 8 2 8 9
M  V30 9 1 9 10
M  V30 10 1 9 11
M  V30 11 2 11 12
M  V30 12 1 12 13
M  V30 13 2 13 14
M  V30 14 1 10 5
M  V30 15 1 14 8
M  V30 16 1 1 15
M  V30 17 1 1 16
M  V30 18 1 2 17
M  V30 19 1 7 18
M  V30 20 1 7 19
M  V30 21 1 10 20
M  V30 22 1 11 21
M  V30 23 1 12 22
M  V30 24 1 13 23
M  V30 25 1 14 24
M  V30 END BOND
M  V30 END CTAB
M  END
