
     RDKit          3D

  0  0  0  0  0  0  0  0  0  0999 V3000
M  V30 BEGIN CTAB
M  V30 COUNTS 32 34 0 0 0
M  V30 BEGIN ATOM
M  V30 1 N 4.92253 0.766446 -0.329875 0
M  V30 2 C 3.51619 0.59027 -0.250002 0
M  V30 3 C 2.68807 1.64649 0.0670093 0
M  V30 4 C 1.31597 1.46743 0.137873 0
M  V30 5 C 0.784701 0.238416 -0.113404 0
M  V30 6 C 1.61476 -0.836426 -0.428546 0
M  V30 7 C 2.96991 -0.641954 -0.493243 0
M  V30 8 C 1.08925 -2.10279 -0.602864 0
M  V30 9 O 1.8744 -3.0471 -0.884657 0
M  V30 10 N -0.217768 -2.30556 -0.473068 0
M  V30 11 O -0.763464 -3.57277 -0.638697 0
M  V30 12 C -1.07084 -1.31274 -0.179212 0
M  V30 13 C -0.586063 0.0106151 0.00576742 0
M  V30 14 C -1.44606 1.00985 0.277618 0
M  V30 15 C -2.8249 0.668357 0.39215 0
M  V30 16 C -3.30749 -0.580273 0.234619 0
M  V30 17 N -4.71278 -0.866124 0.368358 0
M  V30 18 C -2.40725 -1.56929 -0.056749 0
M  V30 19 C -1.22326 2.42951 0.205425 0
M  V30 20 O -1.39055 3.17014 1.39776 0
M  V30 21 O -0.899926 3.10655 -0.819883 0
M  V30 22 H 5.54229 0.459943 0.448047 0
M  V30 23 H 5.29662 1.21919 -1.21025 0
M  V30 24 H 3.09781 2.63541 0.265599 0
M  V30 25 H 0.799796 2.28081 0.477791 0
M  V30 26 H 3.59227 -1.50938 -0.746377 0
M  V30 27 H -0.783645 -4.22502 0.138852 0
M  V30 28 H -3.48628 1.49785 0.624114 0
M  V30 29 H -5.31444 -0.41595 1.07633 0
M  V30 30 H -5.12268 -1.55356 -0.279126 0
M  V30 31 H -2.77001 -2.59674 -0.195673 0
M  V30 32 H -0.777167 3.93843 1.58431 0
M  V30 END ATOM
M  V30 BEGIN BOND
M  V30 1 1 1 2
M  V30 2 2 2 3
M  V30 3 1 3 4
M  V30 4 2 4 5
M  V30 5 1 5 6
M  V30 6 2 6 7
M  V30 7 1 6 8
M  V30 8 2 8 9
M  V30 9 1 8 10
M  V30 10 1 10 11
M  V30 11 1 10 12
M  V30 12 2 12 13
M  V30 13 1 13 14
M  V30 14 2 14 15
M  V30 15 1 15 16
M  V30 16 1 16 17
M  V30 17 2 16 18
M  V30 18 1 14 19
M  V30 19 1 19 20
M  V30 20 2 19 21
M  V30 21 1 7 2
M  V30 22 1 18 12
M  V30 23 1 13 5
M  V30 24 1 1 22
M  V30 25 1 1 23
M  V30 26 1 3 24
M  V30 27 1 4 25
M  V30 28 1 7 26
M  V30 29 1 11 27
M  V30 30 1 15 28
M  V30 31 1 17 29
M  V30 32 1 17 30
M  V30 33 1 18 31
M  V30 34 1 20 32
M  V30 END BOND
M  V30 END CTAB
M  END
