
     RDKit          3D

  0  0  0  0  0  0  0  0  0  0999 V3000
M  V30 BEGIN CTAB
M  V30 COUNTS 30 31 0 0 0
M  V30 BEGIN ATOM
M  V30 1 O 0.944408 -0.110755 1.4027 0
M  V30 2 C 1.20515 1.09282 1.18138 0
M  V30 3 N 2.36423 1.39539 0.417814 0
M  V30 4 C 3.19968 0.358475 -0.0793606 0
M  V30 5 N 2.91464 -0.926324 0.159986 0
M  V30 6 C 3.61981 -1.9703 -0.253643 0
M  V30 7 C 4.75856 -1.69827 -1.00439 0
M  V30 8 C 5.09084 -0.389051 -1.27542 0
M  V30 9 N 4.30213 0.611644 -0.80564 0
M  V30 10 C 0.332016 2.19867 1.69822 0
M  V30 11 S -1.05437 1.44843 2.58007 0
M  V30 12 C -2.0936 0.586236 1.40748 0
M  V30 13 N -1.95916 -0.680067 1.05347 0
M  V30 14 C -2.80122 -1.24207 0.153759 0
M  V30 15 N -2.6683 -2.60647 -0.237352 0
M  V30 16 C -3.82291 -0.524784 -0.42441 0
M  V30 17 C -3.94043 0.805362 -0.033092 0
M  V30 18 N -3.08653 1.3108 0.855716 0
M  V30 19 N -4.98873 1.56046 -0.619138 0
M  V30 20 H 2.58075 2.39188 0.234461 0
M  V30 21 H 3.35469 -2.99769 -0.0381353 0
M  V30 22 H 5.34218 -2.52902 -1.34824 0
M  V30 23 H 5.97915 -0.193193 -1.86037 0
M  V30 24 H -0.0229656 2.7452 0.776838 0
M  V30 25 H 0.892439 2.89408 2.35286 0
M  V30 26 H -2.3063 -2.88546 -1.19112 0
M  V30 27 H -2.93413 -3.33427 0.432293 0
M  V30 28 H -4.49777 -0.963459 -1.14109 0
M  V30 29 H -5.9566 1.41113 -0.290584 0
M  V30 30 H -4.74767 2.2406 -1.36136 0
M  V30 END ATOM
M  V30 BEGIN BOND
M  V30 1 2 1 2
M  V30 2 1 2 3
M  V30 3 1 3 4
M  V30 4 2 4 5
M  V30 5 1 5 6
M  V30 6 2 6 7
M  V30 7 1 7 8
M  V30 8 2 8 9
M  V30 9 1 2 10
M  V30 10 1 10 11
M  V30 11 1 11 12
M  V30 12 2 12 13
M  V30 13 1 13 14
M  V30 14 1 14 15
M  V30 15 2 14 16
M  V30 16 1 16 17
M  V30 17 2 17 18
M  V30 18 1 17 19
M  V30 19 1 9 4
M  V30 20 1 18 12
M  V30 21 1 3 20
M  V30 22 1 6 21
M  V30 23 1 7 22
M  V30 24 1 8 23
M  V30 25 1 10 24
M  V30 26 1 10 25
M  V30 27 1 15 26
M  V30 28 1 15 27
M  V30 29 1 16 28
M  V30 30 1 19 29
M  V30 31 1 19 30
M  V30 END BOND
M  V30 END CTAB
M  END
