
     RDKit          3D

  0  0  0  0  0  0  0  0  0  0999 V3000
M  V30 BEGIN CTAB
M  V30 COUNTS 29 29 0 0 0
M  V30 BEGIN ATOM
M  V30 1 N -4.0487 0.756441 0.304929 0
M  V30 2 C -2.70103 1.16503 0.354711 0
M  V30 3 C -1.66503 0.154012 -0.0715879 0
M  V30 4 N -0.353469 0.703942 0.0250401 0
M  V30 5 C 0.860496 0.0594593 -0.317085 0
M  V30 6 N 0.943719 -1.18383 -0.794785 0
M  V30 7 C 2.1282 -1.7154 -1.09452 0
M  V30 8 C 3.31595 -1.04632 -0.939909 0
M  V30 9 C 3.273 0.236972 -0.45041 0
M  V30 10 C 2.04223 0.751863 -0.153129 0
M  V30 11 Br 2.01766 2.56128 0.534074 0
M  V30 12 C 4.51501 1.02704 -0.254467 0
M  V30 13 C -1.90073 -1.13724 0.606907 0
M  V30 14 N -3.21648 -1.63314 0.246494 0
M  V30 15 H -4.61836 1.13294 -0.471984 0
M  V30 16 H -4.53449 0.636658 1.19553 0
M  V30 17 H -2.5846 2.13453 -0.201099 0
M  V30 18 H -2.49102 1.4702 1.4258 0
M  V30 19 H -1.8556 -0.0189204 -1.17348 0
M  V30 20 H -0.299727 1.67853 0.385408 0
M  V30 21 H 2.22589 -2.74223 -1.49143 0
M  V30 22 H 4.28158 -1.49668 -1.19071 0
M  V30 23 H 4.93426 1.41194 -1.20114 0
M  V30 24 H 4.26992 1.88567 0.380743 0
M  V30 25 H 5.27314 0.385092 0.238361 0
M  V30 26 H -1.93344 -1.04745 1.73487 0
M  V30 27 H -1.20198 -1.94291 0.406683 0
M  V30 28 H -3.39795 -1.49969 -0.793606 0
M  V30 29 H -3.27844 -2.68777 0.367751 0
M  V30 END ATOM
M  V30 BEGIN BOND
M  V30 1 1 1 2
M  V30 2 1 2 3
M  V30 3 1 3 4
M  V30 4 1 4 5
M  V30 5 2 5 6
M  V30 6 1 6 7
M  V30 7 2 7 8
M  V30 8 1 8 9
M  V30 9 2 9 10
M  V30 10 1 10 11
M  V30 11 1 9 12
M  V30 12 1 3 13
M  V30 13 1 13 14
M  V30 14 1 10 5
M  V30 15 1 1 15
M  V30 16 1 1 16
M  V30 17 1 2 17
M  V30 18 1 2 18
M  V30 19 1 3 19
M  V30 20 1 4 20
M  V30 21 1 7 21
M  V30 22 1 8 22
M  V30 23 1 12 23
M  V30 24 1 12 24
M  V30 25 1 12 25
M  V30 26 1 13 26
M  V30 27 1 13 27
M  V30 28 1 14 28
M  V30 29 1 14 29
M  V30 END BOND
M  V30 END CTAB
M  END
