
     RDKit          3D

  0  0  0  0  0  0  0  0  0  0999 V3000
M  V30 BEGIN CTAB
M  V30 COUNTS 42 44 0 0 0
M  V30 BEGIN ATOM
M  V30 1 O 0.847633 1.46497 -0.960766 0
M  V30 2 C 0.839195 0.274109 -0.604209 0
M  V30 3 C -0.499535 -0.423189 -0.734608 0
M  V30 4 C -1.48836 0.536965 -1.27465 0
M  V30 5 C -2.91196 0.11942 -1.14085 0
M  V30 6 C -3.76745 1.14721 -0.438363 0
M  V30 7 C -3.80803 0.978725 1.04424 0
M  V30 8 C -2.61779 0.291161 1.62549 0
M  V30 9 C -2.29384 -1.00369 0.926498 0
M  V30 10 C -0.815977 -0.987814 0.607813 0
M  V30 11 C -3.03323 -1.17118 -0.374191 0
M  V30 12 N -4.38415 -1.60611 -0.22536 0
M  V30 13 N 1.88207 -0.490528 -0.108692 0
M  V30 14 C 3.19652 -0.0317147 0.0822614 0
M  V30 15 C 4.1117 -0.814032 0.815358 0
M  V30 16 C 5.39352 -0.38115 0.992179 0
M  V30 17 C 5.88325 0.804979 0.492173 0
M  V30 18 N 5.00754 1.54117 -0.202663 0
M  V30 19 C 3.71463 1.13912 -0.400486 0
M  V30 20 N 7.22636 1.2253 0.696208 0
M  V30 21 H -0.34493 -1.26239 -1.45805 0
M  V30 22 H -1.27935 0.65287 -2.37889 0
M  V30 23 H -1.30918 1.57543 -0.867434 0
M  V30 24 H -3.40102 -0.0696908 -2.14109 0
M  V30 25 H -3.43355 2.16594 -0.722918 0
M  V30 26 H -4.82098 1.06692 -0.809997 0
M  V30 27 H -3.85696 2.00514 1.49423 0
M  V30 28 H -4.73351 0.434498 1.36614 0
M  V30 29 H -2.85433 0.0363243 2.68219 0
M  V30 30 H -1.72956 0.977787 1.68372 0
M  V30 31 H -2.45769 -1.89803 1.594 0
M  V30 32 H -0.293259 -0.414178 1.42227 0
M  V30 33 H -0.378828 -2.02567 0.682568 0
M  V30 34 H -2.47705 -1.9458 -0.964877 0
M  V30 35 H -4.35423 -2.61736 0.102567 0
M  V30 36 H -4.8369 -1.61942 -1.14332 0
M  V30 37 H 1.68927 -1.50705 0.149704 0
M  V30 38 H 3.72896 -1.74566 1.2095 0
M  V30 39 H 6.10235 -0.992456 1.56296 0
M  V30 40 H 3.07888 1.81128 -0.993665 0
M  V30 41 H 7.86345 1.22028 -0.123615 0
M  V30 42 H 7.61632 1.53751 1.60823 0
M  V30 END ATOM
M  V30 BEGIN BOND
M  V30 1 2 1 2
M  V30 2 1 2 3
M  V30 3 1 3 4
M  V30 4 1 4 5
M  V30 5 1 5 6
M  V30 6 1 6 7
M  V30 7 1 7 8
M  V30 8 1 8 9
M  V30 9 1 9 10
M  V30 10 1 9 11
M  V30 11 1 11 12
M  V30 12 1 2 13
M  V30 13 1 13 14
M  V30 14 2 14 15
M  V30 15 1 15 16
M  V30 16 2 16 17
M  V30 17 1 17 18
M  V30 18 2 18 19
M  V30 19 1 17 20
M  V30 20 1 10 3
M  V30 21 1 19 14
M  V30 22 1 11 5
M  V30 23 1 3 21
M  V30 24 1 4 22
M  V30 25 1 4 23
M  V30 26 1 5 24
M  V30 27 1 6 25
M  V30 28 1 6 26
M  V30 29 1 7 27
M  V30 30 1 7 28
M  V30 31 1 8 29
M  V30 32 1 8 30
M  V30 33 1 9 31
M  V30 34 1 10 32
M  V30 35 1 10 33
M  V30 36 1 11 34
M  V30 37 1 12 35
M  V30 38 1 12 36
M  V30 39 1 13 37
M  V30 40 1 15 38
M  V30 41 1 16 39
M  V30 42 1 19 40
M  V30 43 1 20 41
M  V30 44 1 20 42
M  V30 END BOND
M  V30 END CTAB
M  END
