
     RDKit          3D

  0  0  0  0  0  0  0  0  0  0999 V3000
M  V30 BEGIN CTAB
M  V30 COUNTS 20 21 0 0 0
M  V30 BEGIN ATOM
M  V30 1 N 4.28581 0.0838701 0.717595 0
M  V30 2 C 3.00459 -0.0769041 0.14148 0
M  V30 3 N 2.63121 -0.517528 -1.0633 0
M  V30 4 O 1.32391 -0.490822 -1.14876 0
M  V30 5 C 0.806327 -0.0460659 -0.0392786 0
M  V30 6 N 1.83759 0.218938 0.781447 0
M  V30 7 C -0.610959 0.130585 0.256988 0
M  V30 8 C -1.04488 0.61212 1.47334 0
M  V30 9 N -2.35476 0.775661 1.74778 0
M  V30 10 C -3.3277 0.484142 0.864027 0
M  V30 11 C -2.93715 -0.0014383 -0.368139 0
M  V30 12 C -1.58415 -0.177458 -0.670302 0
M  V30 13 N -1.16632 -0.676425 -1.93441 0
M  V30 14 H 4.7509 1.01319 0.760754 0
M  V30 15 H 4.78045 -0.741972 1.10921 0
M  V30 16 H -0.269117 0.854384 2.20389 0
M  V30 17 H -4.38378 0.612377 1.07579 0
M  V30 18 H -3.68136 -0.250325 -1.11234 0
M  V30 19 H -0.620053 -0.136846 -2.62338 0
M  V30 20 H -1.44057 -1.66948 -2.17239 0
M  V30 END ATOM
M  V30 BEGIN BOND
M  V30 1 1 1 2
M  V30 2 2 2 3
M  V30 3 1 3 4
M  V30 4 1 4 5
M  V30 5 2 5 6
M  V30 6 1 5 7
M  V30 7 2 7 8
M  V30 8 1 8 9
M  V30 9 2 9 10
M  V30 10 1 10 11
M  V30 11 2 11 12
M  V30 12 1 12 13
M  V30 13 1 6 2
M  V30 14 1 12 7
M  V30 15 1 1 14
M  V30 16 1 1 15
M  V30 17 1 8 16
M  V30 18 1 10 17
M  V30 19 1 11 18
M  V30 20 1 13 19
M  V30 21 1 13 20
M  V30 END BOND
M  V30 END CTAB
M  END
