
     RDKit          3D

  0  0  0  0  0  0  0  0  0  0999 V3000
M  V30 BEGIN CTAB
M  V30 COUNTS 42 43 0 0 0
M  V30 BEGIN ATOM
M  V30 1 O 0.42795 0.452862 -1.46591 0
M  V30 2 C 0.43908 -0.727512 -1.84821 0
M  V30 3 N -0.54214 -1.68926 -1.54275 0
M  V30 4 C -1.6791 -1.46681 -0.763302 0
M  V30 5 C -2.04873 -0.276836 -0.165822 0
M  V30 6 C -3.19148 -0.0893431 0.602238 0
M  V30 7 C -4.00604 -1.21599 0.761098 0
M  V30 8 C -3.70236 -2.42231 0.19994 0
M  V30 9 C -2.55395 -2.54076 -0.550938 0
M  V30 10 C -2.21587 -3.84931 -1.16438 0
M  V30 11 N -3.55299 1.13875 1.18373 0
M  V30 12 C -3.0577 2.42022 0.99098 0
M  V30 13 O -2.13549 2.67099 0.191009 0
M  V30 14 C -3.58718 3.61529 1.72707 0
M  V30 15 C 1.60288 -1.15844 -2.71029 0
M  V30 16 S 2.71963 0.244319 -2.93616 0
M  V30 17 C 3.4635 0.657309 -1.33827 0
M  V30 18 N 3.13809 -0.0592702 -0.25083 0
M  V30 19 C 3.65073 0.184868 0.985288 0
M  V30 20 N 3.3106 -0.565534 2.127 0
M  V30 21 C 4.54633 1.22673 1.09365 0
M  V30 22 C 4.87788 1.96544 -0.0435852 0
M  V30 23 N 4.33767 1.67685 -1.2418 0
M  V30 24 N 5.81206 3.03381 0.126089 0
M  V30 25 H -0.42585 -2.68554 -1.93299 0
M  V30 26 H -1.4186 0.566115 -0.284888 0
M  V30 27 H -4.91065 -1.10388 1.35781 0
M  V30 28 H -4.33826 -3.30503 0.322762 0
M  V30 29 H -2.92232 -4.64516 -0.799902 0
M  V30 30 H -1.20742 -4.20913 -0.829058 0
M  V30 31 H -2.22641 -3.78713 -2.26012 0
M  V30 32 H -4.35011 1.07211 1.90599 0
M  V30 33 H -2.78571 4.34672 1.93308 0
M  V30 34 H -4.17091 3.31119 2.60057 0
M  V30 35 H -4.30033 4.09928 1.00941 0
M  V30 36 H 1.23311 -1.54296 -3.67134 0
M  V30 37 H 2.09055 -1.99157 -2.14651 0
M  V30 38 H 3.61821 -1.54402 2.21531 0
M  V30 39 H 2.75312 -0.131614 2.87437 0
M  V30 40 H 4.95968 1.43226 2.06604 0
M  V30 41 H 6.51418 3.28672 -0.610485 0
M  V30 42 H 5.83434 3.6056 0.988671 0
M  V30 END ATOM
M  V30 BEGIN BOND
M  V30 1 2 1 2
M  V30 2 1 2 3
M  V30 3 1 3 4
M  V30 4 2 4 5
M  V30 5 1 5 6
M  V30 6 2 6 7
M  V30 7 1 7 8
M  V30 8 2 8 9
M  V30 9 1 9 10
M  V30 10 1 6 11
M  V30 11 1 11 12
M  V30 12 2 12 13
M  V30 13 1 12 14
M  V30 14 1 2 15
M  V30 15 1 15 16
M  V30 16 1 16 17
M  V30 17 2 17 18
M  V30 18 1 18 19
M  V30 19 1 19 20
M  V30 20 2 19 21
M  V30 21 1 21 22
M  V30 22 2 22 23
M  V30 23 1 22 24
M  V30 24 1 9 4
M  V30 25 1 23 17
M  V30 26 1 3 25
M  V30 27 1 5 26
M  V30 28 1 7 27
M  V30 29 1 8 28
M  V30 30 1 10 29
M  V30 31 1 10 30
M  V30 32 1 10 31
M  V30 33 1 11 32
M  V30 34 1 14 33
M  V30 35 1 14 34
M  V30 36 1 14 35
M  V30 37 1 15 36
M  V30 38 1 15 37
M  V30 39 1 20 38
M  V30 40 1 20 39
M  V30 41 1 21 40
M  V30 42 1 24 41
M  V30 43 1 24 42
M  V30 END BOND
M  V30 END CTAB
M  END
