
     RDKit          3D

  0  0  0  0  0  0  0  0  0  0999 V3000
M  V30 BEGIN CTAB
M  V30 COUNTS 27 27 0 0 0
M  V30 BEGIN ATOM
M  V30 1 C 2.22493 -0.203456 -0.763949 0
M  V30 2 C 1.25415 -0.528233 0.293346 0
M  V30 3 C -0.180203 -0.185045 -0.0192003 0
M  V30 4 C -0.393189 1.27161 -0.281255 0
M  V30 5 C -0.0405457 2.20755 0.811835 0
M  V30 6 C -0.971756 -0.565836 1.1759 0
M  V30 7 N -0.667971 0.0241901 2.45163 0
M  V30 8 N -1.92717 -1.40516 1.16507 0
M  V30 9 C -2.30483 -2.05068 -0.0363163 0
M  V30 10 O -3.26693 -2.89805 -0.0565668 0
M  V30 11 N -1.62092 -1.76208 -1.21857 0
M  V30 12 C -0.657664 -0.91971 -1.22298 0
M  V30 13 N -0.0170032 -0.686594 -2.47103 0
M  V30 14 H 1.9623 0.624985 -1.43719 0
M  V30 15 H 3.2446 0.0606213 -0.360131 0
M  V30 16 H 2.3863 -1.09576 -1.40636 0
M  V30 17 H 1.52121 -0.00954903 1.2404 0
M  V30 18 H 1.26575 -1.6206 0.547179 0
M  V30 19 H 0.163651 1.55612 -1.21654 0
M  V30 20 H -1.46688 1.44222 -0.543528 0
M  V30 21 H 0.177201 3.2284 0.370267 0
M  V30 22 H 0.803566 1.88832 1.46254 0
M  V30 23 H -0.893293 2.40535 1.49491 0
M  V30 24 H -1.33884 0.585262 2.99499 0
M  V30 25 H 0.292176 -0.111298 2.87742 0
M  V30 26 H -0.0681427 0.232965 -2.97038 0
M  V30 27 H 0.519521 -1.48555 -2.88149 0
M  V30 END ATOM
M  V30 BEGIN BOND
M  V30 1 1 1 2
M  V30 2 1 2 3
M  V30 3 1 3 4
M  V30 4 1 4 5
M  V30 5 1 3 6
M  V30 6 1 6 7
M  V30 7 2 6 8
M  V30 8 1 8 9
M  V30 9 2 9 10
M  V30 10 1 9 11
M  V30 11 2 11 12
M  V30 12 1 12 13
M  V30 13 1 12 3
M  V30 14 1 1 14
M  V30 15 1 1 15
M  V30 16 1 1 16
M  V30 17 1 2 17
M  V30 18 1 2 18
M  V30 19 1 4 19
M  V30 20 1 4 20
M  V30 21 1 5 21
M  V30 22 1 5 22
M  V30 23 1 5 23
M  V30 24 1 7 24
M  V30 25 1 7 25
M  V30 26 1 13 26
M  V30 27 1 13 27
M  V30 END BOND
M  V30 END CTAB
M  END
