
     RDKit          3D

  0  0  0  0  0  0  0  0  0  0999 V3000
M  V30 BEGIN CTAB
M  V30 COUNTS 30 31 0 0 0
M  V30 BEGIN ATOM
M  V30 1 N 5.07571 1.59939 0.0510311 0
M  V30 2 C 3.88399 0.840836 0.164594 0
M  V30 3 C 3.22323 0.668347 1.3523 0
M  V30 4 C 2.06996 -0.0750579 1.42003 0
M  V30 5 C 1.54014 -0.671187 0.296974 0
M  V30 6 C 2.21212 -0.491497 -0.891554 0
M  V30 7 C 3.37359 0.253824 -0.975027 0
M  V30 8 S 0.100411 -1.61411 0.314038 0
M  V30 9 O 0.192855 -2.63889 -0.803555 0
M  V30 10 O 0.0309268 -2.37302 1.60917 0
M  V30 11 C -1.33653 -0.66666 0.0295967 0
M  V30 12 C -1.32153 0.680443 -0.184039 0
M  V30 13 C -2.5034 1.35205 -0.400782 0
M  V30 14 C -3.69918 0.674967 -0.403536 0
M  V30 15 N -4.93063 1.34783 -0.625083 0
M  V30 16 C -3.73744 -0.686465 -0.189768 0
M  V30 17 C -2.53793 -1.33112 0.024308 0
M  V30 18 C -2.60778 -2.76713 0.247041 0
M  V30 19 N -2.67241 -3.90933 0.420751 0
M  V30 20 H 5.21488 2.19774 -0.774233 0
M  V30 21 H 5.7942 1.55251 0.785762 0
M  V30 22 H 3.66065 1.14786 2.22205 0
M  V30 23 H 1.57604 -0.184757 2.39501 0
M  V30 24 H 1.86403 -0.926512 -1.826 0
M  V30 25 H 3.90473 0.397854 -1.90545 0
M  V30 26 H -0.367898 1.18082 -0.175536 0
M  V30 27 H -2.49631 2.43011 -0.572212 0
M  V30 28 H -5.30261 2.0783 0.0406317 0
M  V30 29 H -5.51878 1.1492 -1.45349 0
M  V30 30 H -4.68505 -1.21635 -0.193011 0
M  V30 END ATOM
M  V30 BEGIN BOND
M  V30 1 1 1 2
M  V30 2 2 2 3
M  V30 3 1 3 4
M  V30 4 2 4 5
M  V30 5 1 5 6
M  V30 6 2 6 7
M  V30 7 1 5 8
M  V30 8 2 8 9
M  V30 9 2 8 10
M  V30 10 1 8 11
M  V30 11 2 11 12
M  V30 12 1 12 13
M  V30 13 2 13 14
M  V30 14 1 14 15
M  V30 15 1 14 16
M  V30 16 2 16 17
M  V30 17 1 17 18
M  V30 18 3 18 19
M  V30 19 1 7 2
M  V30 20 1 17 11
M  V30 21 1 1 20
M  V30 22 1 1 21
M  V30 23 1 3 22
M  V30 24 1 4 23
M  V30 25 1 6 24
M  V30 26 1 7 25
M  V30 27 1 12 26
M  V30 28 1 13 27
M  V30 29 1 15 28
M  V30 30 1 15 29
M  V30 31 1 16 30
M  V30 END BOND
M  V30 END CTAB
M  END
