
     RDKit          3D

  0  0  0  0  0  0  0  0  0  0999 V3000
M  V30 BEGIN CTAB
M  V30 COUNTS 18 18 0 0 0
M  V30 BEGIN ATOM
M  V30 1 N -2.57401 0.929048 -0.175988 0
M  V30 2 N -1.23122 0.555628 -0.0810065 0
M  V30 3 C -0.887854 -0.755433 -0.108695 0
M  V30 4 N -1.92736 -1.70717 -0.235257 0
M  V30 5 N 0.40482 -1.15346 -0.0188876 0
M  V30 6 C 1.42475 -0.287303 0.102436 0
M  V30 7 C 1.08849 1.05119 0.131884 0
M  V30 8 C -0.230145 1.43993 0.039538 0
M  V30 9 O -0.519159 2.6707 0.0682985 0
M  V30 10 Br 2.51017 2.31083 0.303209 0
M  V30 11 C 2.84793 -0.705811 0.202128 0
M  V30 12 F 3.37166 -0.256595 1.39943 0
M  V30 13 F 2.93801 -2.07342 0.176407 0
M  V30 14 F 3.57805 -0.0968018 -0.801787 0
M  V30 15 H -3.35918 0.372571 0.221459 0
M  V30 16 H -2.81517 1.81231 -0.670235 0
M  V30 17 H -1.94368 -2.3614 -1.03442 0
M  V30 18 H -2.6761 -1.74482 0.481489 0
M  V30 END ATOM
M  V30 BEGIN BOND
M  V30 1 1 1 2
M  V30 2 1 2 3
M  V30 3 1 3 4
M  V30 4 2 3 5
M  V30 5 1 5 6
M  V30 6 2 6 7
M  V30 7 1 7 8
M  V30 8 2 8 9
M  V30 9 1 7 10
M  V30 10 1 6 11
M  V30 11 1 11 12
M  V30 12 1 11 13
M  V30 13 1 11 14
M  V30 14 1 8 2
M  V30 15 1 1 15
M  V30 16 1 1 16
M  V30 17 1 4 17
M  V30 18 1 4 18
M  V30 END BOND
M  V30 END CTAB
M  END
