
     RDKit          3D

  0  0  0  0  0  0  0  0  0  0999 V3000
M  V30 BEGIN CTAB
M  V30 COUNTS 45 46 0 0 0
M  V30 BEGIN ATOM
M  V30 1 N -2.8009 -0.360809 -3.18791 0
M  V30 2 C -1.57116 -0.301327 -2.48836 0
M  V30 3 C -1.53012 -0.736544 -1.07985 0
M  V30 4 C -2.37216 -0.0306431 -0.0752471 0
M  V30 5 C -3.8403 -0.0511372 -0.289582 0
M  V30 6 C -4.60929 0.699441 0.778144 0
M  V30 7 C -3.6686 1.37234 1.75687 0
M  V30 8 C -2.76381 2.24397 0.904107 0
M  V30 9 C -1.78106 1.30711 0.23706 0
M  V30 10 N -0.133889 -0.57059 -0.633001 0
M  V30 11 C 0.684249 -1.66647 -0.263281 0
M  V30 12 O 0.213825 -2.83268 -0.313585 0
M  V30 13 C 2.05584 -1.45114 0.171149 0
M  V30 14 O 2.89963 -2.3814 0.534116 0
M  V30 15 C 4.04797 -1.8863 0.869496 0
M  V30 16 C 3.99536 -0.527889 0.729757 0
M  V30 17 C 2.72293 -0.252327 0.283917 0
M  V30 18 S 5.22264 0.626849 1.03219 0
M  V30 19 O 5.74104 0.632261 2.42978 0
M  V30 20 O 6.35207 0.377927 0.0418304 0
M  V30 21 N 4.62801 2.21008 0.692506 0
M  V30 22 C 5.2043 -2.66579 1.3223 0
M  V30 23 H -2.84734 -1.11224 -3.92789 0
M  V30 24 H -3.17462 0.530606 -3.53135 0
M  V30 25 H -0.869518 -1.00391 -3.03948 0
M  V30 26 H -1.0587 0.6973 -2.65526 0
M  V30 27 H -1.69107 -1.84712 -1.03345 0
M  V30 28 H -2.21268 -0.628225 0.882278 0
M  V30 29 H -4.20068 0.363043 -1.25053 0
M  V30 30 H -4.22967 -1.09143 -0.258564 0
M  V30 31 H -5.29689 0.0555116 1.34779 0
M  V30 32 H -5.22735 1.49587 0.32455 0
M  V30 33 H -3.05709 0.613652 2.26263 0
M  V30 34 H -4.25861 1.99522 2.44411 0
M  V30 35 H -2.22586 2.995 1.50455 0
M  V30 36 H -3.36539 2.76127 0.151487 0
M  V30 37 H -1.39838 1.82843 -0.662076 0
M  V30 38 H -0.914128 1.24081 0.92709 0
M  V30 39 H 0.275139 0.381741 -0.583839 0
M  V30 40 H 2.30513 0.743224 0.0561303 0
M  V30 41 H 4.17285 2.62801 1.52237 0
M  V30 42 H 4.04863 2.24985 -0.165226 0
M  V30 43 H 4.89663 -3.48503 2.03722 0
M  V30 44 H 5.86532 -2.00645 1.92278 0
M  V30 45 H 5.76771 -3.16005 0.522291 0
M  V30 END ATOM
M  V30 BEGIN BOND
M  V30 1 1 1 2
M  V30 2 1 2 3
M  V30 3 1 3 4
M  V30 4 1 4 5
M  V30 5 1 5 6
M  V30 6 1 6 7
M  V30 7 1 7 8
M  V30 8 1 8 9
M  V30 9 1 3 10
M  V30 10 1 10 11
M  V30 11 2 11 12
M  V30 12 1 11 13
M  V30 13 1 13 14
M  V30 14 1 14 15
M  V30 15 2 15 16
M  V30 16 1 16 17
M  V30 17 1 16 18
M  V30 18 2 18 19
M  V30 19 2 18 20
M  V30 20 1 18 21
M  V30 21 1 15 22
M  V30 22 1 9 4
M  V30 23 2 17 13
M  V30 24 1 1 23
M  V30 25 1 1 24
M  V30 26 1 2 25
M  V30 27 1 2 26
M  V30 28 1 3 27
M  V30 29 1 4 28
M  V30 30 1 5 29
M  V30 31 1 5 30
M  V30 32 1 6 31
M  V30 33 1 6 32
M  V30 34 1 7 33
M  V30 35 1 7 34
M  V30 36 1 8 35
M  V30 37 1 8 36
M  V30 38 1 9 37
M  V30 39 1 9 38
M  V30 40 1 10 39
M  V30 41 1 17 40
M  V30 42 1 21 41
M  V30 43 1 21 42
M  V30 44 1 22 43
M  V30 45 1 22 44
M  V30 46 1 22 45
M  V30 END BOND
M  V30 END CTAB
M  END
