
     RDKit          3D

  0  0  0  0  0  0  0  0  0  0999 V3000
M  V30 BEGIN CTAB
M  V30 COUNTS 24 24 0 0 0
M  V30 BEGIN ATOM
M  V30 1 N 2.31597 -2.02086 1.65668 0
M  V30 2 N 1.37174 -1.08395 1.27707 0
M  V30 3 C 1.58239 -0.183065 0.259432 0
M  V30 4 O 2.72516 -0.230779 -0.363969 0
M  V30 5 C 0.64033 0.833399 -0.173409 0
M  V30 6 C 1.13079 2.15689 -0.325778 0
M  V30 7 C 0.315572 3.21854 -0.604228 0
M  V30 8 C -1.03877 3.03491 -0.749554 0
M  V30 9 C -1.53108 1.78194 -0.61247 0
M  V30 10 C -0.695021 0.675458 -0.325855 0
M  V30 11 C -1.32716 -0.615837 -0.334776 0
M  V30 12 O -2.52878 -0.668042 0.111321 0
M  V30 13 N -0.810053 -1.8606 -0.773245 0
M  V30 14 N -1.59078 -3.01223 -0.68052 0
M  V30 15 H 1.98916 -2.97409 1.43019 0
M  V30 16 H 2.66505 -1.88441 2.62306 0
M  V30 17 H 0.465741 -1.09348 1.81472 0
M  V30 18 H 2.1971 2.26648 -0.197807 0
M  V30 19 H 0.726338 4.21895 -0.709314 0
M  V30 20 H -1.69745 3.89632 -0.976158 0
M  V30 21 H -2.60933 1.57539 -0.720463 0
M  V30 22 H 0.139128 -1.87837 -1.18599 0
M  V30 23 H -2.40777 -2.85744 -0.0157984 0
M  V30 24 H -2.02829 -3.29512 -1.58058 0
M  V30 END ATOM
M  V30 BEGIN BOND
M  V30 1 1 1 2
M  V30 2 1 2 3
M  V30 3 2 3 4
M  V30 4 1 3 5
M  V30 5 2 5 6
M  V30 6 1 6 7
M  V30 7 2 7 8
M  V30 8 1 8 9
M  V30 9 2 9 10
M  V30 10 1 10 11
M  V30 11 2 11 12
M  V30 12 1 11 13
M  V30 13 1 13 14
M  V30 14 1 10 5
M  V30 15 1 1 15
M  V30 16 1 1 16
M  V30 17 1 2 17
M  V30 18 1 6 18
M  V30 19 1 7 19
M  V30 20 1 8 20
M  V30 21 1 9 21
M  V30 22 1 13 22
M  V30 23 1 14 23
M  V30 24 1 14 24
M  V30 END BOND
M  V30 END CTAB
M  END
