
     RDKit          3D

  0  0  0  0  0  0  0  0  0  0999 V3000
M  V30 BEGIN CTAB
M  V30 COUNTS 61 62 0 0 0
M  V30 BEGIN ATOM
M  V30 1 C 3.10177 0.192465 1.36194 0 CFG=1
M  V30 2 N 4.02658 -0.743702 1.83396 0
M  V30 3 C 3.70958 1.29277 0.564672 0
M  V30 4 C 4.40606 0.923088 -0.664023 0
M  V30 5 C 5.59296 0.0444201 -0.556375 0
M  V30 6 N 6.16682 -0.120842 -1.90942 0
M  V30 7 C 6.76962 1.00353 -2.5322 0
M  V30 8 N 6.08987 1.82576 -3.45764 0
M  V30 9 N 7.98909 1.26172 -2.22134 0
M  V30 10 C 1.89529 -0.292627 0.673472 0
M  V30 11 O 1.35095 0.504931 -0.157209 0
M  V30 12 N 1.26348 -1.54421 0.830081 0
M  V30 13 C 1.6851 -2.59395 1.73057 0
M  V30 14 C 0.405317 -3.43946 1.91425 0
M  V30 15 C -0.0632736 -3.41754 0.449305 0
M  V30 16 C 0.0599662 -1.97733 0.1018 0 CFG=1
M  V30 17 C -1.06472 -1.15331 0.550306 0
M  V30 18 O -0.898677 -0.270744 1.4411 0
M  V30 19 N -2.38119 -1.27026 0.0437989 0
M  V30 20 C -3.5016 -0.444318 0.490734 0 CFG=1
M  V30 21 C -3.94873 0.346149 -0.712914 0
M  V30 22 C -5.07423 1.26166 -0.489365 0
M  V30 23 C -6.39435 0.918534 -0.691094 0
M  V30 24 C -7.39296 1.84468 -0.462919 0
M  V30 25 C -7.13798 3.13609 -0.0304713 0
M  V30 26 O -8.19107 4.02433 0.181717 0
M  V30 27 C -5.81983 3.48956 0.174472 0
M  V30 28 C -4.83132 2.56176 -0.055029 0
M  V30 29 C -4.55286 -1.28469 1.09779 0
M  V30 30 O -5.71897 -0.836946 1.67 0
M  V30 31 O -4.40286 -2.56138 1.11637 0
M  V30 32 H 2.68427 0.720073 2.32315 0
M  V30 33 H 4.06234 -1.68923 1.5054 0
M  V30 34 H 4.45715 -0.552526 2.75452 0
M  V30 35 H 2.86606 2.03256 0.349291 0
M  V30 36 H 4.43758 1.81926 1.26027 0
M  V30 37 H 4.71808 1.86968 -1.22072 0
M  V30 38 H 3.71693 0.432505 -1.4247 0
M  V30 39 H 5.33315 -0.985557 -0.241023 0
M  V30 40 H 6.35917 0.405682 0.147263 0
M  V30 41 H 6.13364 -1.03344 -2.39978 0
M  V30 42 H 5.80154 2.77459 -3.17663 0
M  V30 43 H 5.88774 1.47149 -4.40416 0
M  V30 44 H 8.48469 2.07634 -2.64802 0
M  V30 45 H 2.37506 -3.30329 1.1893 0
M  V30 46 H 2.06797 -2.25353 2.6906 0
M  V30 47 H 0.63633 -4.44929 2.25975 0
M  V30 48 H -0.34774 -2.89342 2.49691 0
M  V30 49 H 0.664385 -3.99361 -0.144683 0
M  V30 50 H -1.09784 -3.80909 0.37286 0
M  V30 51 H 0.206168 -1.79308 -0.984653 0
M  V30 52 H -2.56467 -1.98305 -0.686782 0
M  V30 53 H -3.18052 0.277519 1.26838 0
M  V30 54 H -4.1317 -0.31749 -1.59081 0
M  V30 55 H -3.06454 0.969168 -1.00525 0
M  V30 56 H -6.61806 -0.103735 -1.03385 0
M  V30 57 H -8.43442 1.55023 -0.630164 0
M  V30 58 H -8.6471 4.10128 1.07508 0
M  V30 59 H -5.58964 4.49621 0.513844 0
M  V30 60 H -3.78386 2.82911 0.103447 0
M  V30 61 H -6.57003 -1.34549 1.58937 0
M  V30 END ATOM
M  V30 BEGIN BOND
M  V30 1 1 1 2
M  V30 2 1 1 3
M  V30 3 1 3 4
M  V30 4 1 4 5
M  V30 5 1 5 6
M  V30 6 1 6 7
M  V30 7 1 7 8
M  V30 8 2 7 9 CFG=2
M  V30 9 1 1 10
M  V30 10 2 10 11
M  V30 11 1 10 12
M  V30 12 1 12 13
M  V30 13 1 13 14
M  V30 14 1 14 15
M  V30 15 1 15 16
M  V30 16 1 16 17
M  V30 17 2 17 18
M  V30 18 1 17 19
M  V30 19 1 19 20
M  V30 20 1 20 21
M  V30 21 1 21 22
M  V30 22 2 22 23
M  V30 23 1 23 24
M  V30 24 2 24 25
M  V30 25 1 25 26
M  V30 26 1 25 27
M  V30 27 2 27 28
M  V30 28 1 20 29
M  V30 29 1 29 30
M  V30 30 2 29 31
M  V30 31 1 16 12
M  V30 32 1 28 22
M  V30 33 1 1 32 CFG=1
M  V30 34 1 2 33
M  V30 35 1 2 34
M  V30 36 1 3 35
M  V30 37 1 3 36
M  V30 38 1 4 37
M  V30 39 1 4 38
M  V30 40 1 5 39
M  V30 41 1 5 40
M  V30 42 1 6 41
M  V30 43 1 8 42
M  V30 44 1 8 43
M  V30 45 1 9 44
M  V30 46 1 13 45
M  V30 47 1 13 46
M  V30 48 1 14 47
M  V30 49 1 14 48
M  V30 50 1 15 49
M  V30 51 1 15 50
M  V30 52 1 16 51 CFG=3
M  V30 53 1 19 52
M  V30 54 1 20 53 CFG=1
M  V30 55 1 21 54
M  V30 56 1 21 55
M  V30 57 1 23 56
M  V30 58 1 24 57
M  V30 59 1 26 58
M  V30 60 1 27 59
M  V30 61 1 28 60
M  V30 62 1 30 61
M  V30 END BOND
M  V30 END CTAB
M  END
