
     RDKit          3D

  0  0  0  0  0  0  0  0  0  0999 V3000
M  V30 BEGIN CTAB
M  V30 COUNTS 46 49 0 0 0
M  V30 BEGIN ATOM
M  V30 1 N -1.5409 -4.08029 -0.680197 0
M  V30 2 C -1.4739 -2.67119 -0.5018 0
M  V30 3 N -2.57016 -1.88215 -0.43412 0
M  V30 4 C -2.52456 -0.554173 -0.266485 0
M  V30 5 N -1.30888 0.026603 -0.159189 0
M  V30 6 C -0.191981 -0.712148 -0.219984 0
M  V30 7 N -0.28143 -2.01318 -0.385491 0
M  V30 8 C 1.13571 -0.0745359 -0.102394 0
M  V30 9 S 1.50809 1.57102 0.114319 0
M  V30 10 C 3.21229 1.46642 0.149636 0
M  V30 11 C 3.44 0.13134 -0.0111378 0
M  V30 12 C 2.36596 -0.676573 -0.142854 0
M  V30 13 N 2.42493 -2.12389 -0.322408 0
M  V30 14 C 4.79764 -0.260052 -0.0215627 0
M  V30 15 C 5.20235 -1.68857 -0.189097 0
M  V30 16 C 5.76579 0.709306 0.127406 0
M  V30 17 C 5.51851 2.04742 0.288009 0
M  V30 18 N 4.21702 2.39789 0.294896 0
M  V30 19 C 6.61103 3.0268 0.441774 0
M  V30 20 N -3.73712 0.171768 -0.210022 0
M  V30 21 C -3.63364 1.601 -0.0279737 0
M  V30 22 C -4.85742 2.26427 0.460725 0
M  V30 23 C -6.13472 1.51856 0.204108 0
M  V30 24 C -5.99816 0.0884853 0.618881 0
M  V30 25 C -4.97444 -0.538464 -0.334258 0
M  V30 26 H -1.89843 -4.54798 -1.52934 0
M  V30 27 H -1.19076 -4.66212 0.136241 0
M  V30 28 H 2.46542 -2.79094 0.459602 0
M  V30 29 H 2.42434 -2.46127 -1.29483 0
M  V30 30 H 4.8615 -2.09964 -1.17828 0
M  V30 31 H 4.80714 -2.29607 0.662086 0
M  V30 32 H 6.29106 -1.74399 -0.196263 0
M  V30 33 H 6.82725 0.409762 0.120063 0
M  V30 34 H 6.32369 4.02913 0.114319 0
M  V30 35 H 7.48732 2.62879 -0.135948 0
M  V30 36 H 6.93866 3.0185 1.51379 0
M  V30 37 H -2.79417 1.81686 0.666502 0
M  V30 38 H -3.3079 2.01314 -1.02763 0
M  V30 39 H -4.95677 3.26576 -0.0233299 0
M  V30 40 H -4.82694 2.46854 1.56805 0
M  V30 41 H -6.496 1.59397 -0.833007 0
M  V30 42 H -6.93664 1.98673 0.837779 0
M  V30 43 H -6.98221 -0.41002 0.525917 0
M  V30 44 H -5.67193 0.0171811 1.66466 0
M  V30 45 H -5.41917 -0.387526 -1.35875 0
M  V30 46 H -4.91745 -1.59447 -0.0604045 0
M  V30 END ATOM
M  V30 BEGIN BOND
M  V30 1 1 1 2
M  V30 2 2 2 3
M  V30 3 1 3 4
M  V30 4 2 4 5
M  V30 5 1 5 6
M  V30 6 2 6 7
M  V30 7 1 6 8
M  V30 8 1 8 9
M  V30 9 1 9 10
M  V30 10 2 10 11
M  V30 11 1 11 12
M  V30 12 1 12 13
M  V30 13 1 11 14
M  V30 14 1 14 15
M  V30 15 2 14 16
M  V30 16 1 16 17
M  V30 17 2 17 18
M  V30 18 1 17 19
M  V30 19 1 4 20
M  V30 20 1 20 21
M  V30 21 1 21 22
M  V30 22 1 22 23
M  V30 23 1 23 24
M  V30 24 1 24 25
M  V30 25 1 7 2
M  V30 26 2 12 8
M  V30 27 1 25 20
M  V30 28 1 18 10
M  V30 29 1 1 26
M  V30 30 1 1 27
M  V30 31 1 13 28
M  V30 32 1 13 29
M  V30 33 1 15 30
M  V30 34 1 15 31
M  V30 35 1 15 32
M  V30 36 1 16 33
M  V30 37 1 19 34
M  V30 38 1 19 35
M  V30 39 1 19 36
M  V30 40 1 21 37
M  V30 41 1 21 38
M  V30 42 1 22 39
M  V30 43 1 22 40
M  V30 44 1 23 41
M  V30 45 1 23 42
M  V30 46 1 24 43
M  V30 47 1 24 44
M  V30 48 1 25 45
M  V30 49 1 25 46
M  V30 END BOND
M  V30 END CTAB
M  END
