
     RDKit          3D

  0  0  0  0  0  0  0  0  0  0999 V3000
M  V30 BEGIN CTAB
M  V30 COUNTS 28 28 0 0 0
M  V30 BEGIN ATOM
M  V30 1 C -0.922314 -1.45198 -1.23225 0
M  V30 2 C -0.472118 -0.915014 0.0666488 0
M  V30 3 C 0.975628 -0.611629 0.177056 0
M  V30 4 C 1.767 -1.23418 1.15674 0
M  V30 5 N 3.0582 -0.941659 1.34891 0
M  V30 6 C 3.65495 -0.0143761 0.586325 0
M  V30 7 C 2.95098 0.635106 -0.390243 0
M  V30 8 C 1.61008 0.328168 -0.588717 0
M  V30 9 N 0.912225 0.95022 -1.66069 0
M  V30 10 C -1.37664 0.0690689 0.73831 0
M  V30 11 C -1.75496 1.33511 0.127223 0
M  V30 12 N -2.7268 1.94725 1.1054 0
M  V30 13 O -0.64028 -2.04384 0.994479 0
M  V30 14 H -1.42869 -0.729148 -1.89788 0
M  V30 15 H -1.66574 -2.26179 -1.06661 0
M  V30 16 H -0.0391098 -1.83759 -1.79482 0
M  V30 17 H 1.27851 -1.97518 1.76252 0
M  V30 18 H 4.70645 0.246338 0.720408 0
M  V30 19 H 3.4049 1.39449 -1.02844 0
M  V30 20 H 0.602411 0.372476 -2.4453 0
M  V30 21 H 0.735767 1.959 -1.63687 0
M  V30 22 H -2.35622 -0.435354 1.0491 0
M  V30 23 H -0.904486 0.236886 1.76738 0
M  V30 24 H -0.978128 2.12882 0.0336086 0
M  V30 25 H -2.32138 1.26259 -0.815399 0
M  V30 26 H -3.15085 2.77944 0.674913 0
M  V30 27 H -3.39138 1.22589 1.42509 0
M  V30 28 H -1.528 -2.41913 0.823086 0
M  V30 END ATOM
M  V30 BEGIN BOND
M  V30 1 1 1 2
M  V30 2 1 2 3
M  V30 3 2 3 4
M  V30 4 1 4 5
M  V30 5 2 5 6
M  V30 6 1 6 7
M  V30 7 2 7 8
M  V30 8 1 8 9
M  V30 9 1 2 10
M  V30 10 1 10 11
M  V30 11 1 11 12
M  V30 12 1 2 13
M  V30 13 1 8 3
M  V30 14 1 1 14
M  V30 15 1 1 15
M  V30 16 1 1 16
M  V30 17 1 4 17
M  V30 18 1 6 18
M  V30 19 1 7 19
M  V30 20 1 9 20
M  V30 21 1 9 21
M  V30 22 1 10 22
M  V30 23 1 10 23
M  V30 24 1 11 24
M  V30 25 1 11 25
M  V30 26 1 12 26
M  V30 27 1 12 27
M  V30 28 1 13 28
M  V30 END BOND
M  V30 END CTAB
M  END
