
     RDKit          3D

  0  0  0  0  0  0  0  0  0  0999 V3000
M  V30 BEGIN CTAB
M  V30 COUNTS 41 43 0 0 0
M  V30 BEGIN ATOM
M  V30 1 N 4.04369 2.12245 2.00355 0
M  V30 2 C 4.42427 0.800649 1.54407 0
M  V30 3 C 4.13188 0.5602 0.0709542 0
M  V30 4 C 3.59411 -0.804246 0.452007 0
M  V30 5 C 3.40915 -0.289146 1.85063 0
M  V30 6 C 2.35224 -1.12578 -0.280232 0
M  V30 7 C 1.3051 -0.228071 -0.254243 0
M  V30 8 C 0.152858 -0.534425 -0.938921 0
M  V30 9 N -0.928631 0.39651 -0.909508 0
M  V30 10 C -2.17164 0.12083 -1.61759 0
M  V30 11 C -3.14663 1.23812 -1.40135 0
M  V30 12 C -3.44151 1.36535 0.0398076 0
M  V30 13 N -2.82951 2.11945 0.975064 0
M  V30 14 C -3.44599 1.9041 2.13581 0
M  V30 15 N -4.42641 1.03555 1.94912 0
M  V30 16 N -4.43007 0.701858 0.671872 0
M  V30 17 C -5.38451 -0.239139 0.123291 0
M  V30 18 N 0.0975459 -1.69058 -1.60081 0
M  V30 19 C 1.09206 -2.59357 -1.65323 0
M  V30 20 N 2.2312 -2.28078 -0.970906 0
M  V30 21 N 0.986973 -3.812 -2.37115 0
M  V30 22 H 3.51892 2.59243 1.22931 0
M  V30 23 H 3.43949 2.039 2.85214 0
M  V30 24 H 5.42939 0.460308 1.8334 0
M  V30 25 H 3.33203 1.21476 -0.342733 0
M  V30 26 H 5.02763 0.533974 -0.576154 0
M  V30 27 H 4.37647 -1.58456 0.378771 0
M  V30 28 H 2.42828 0.187946 2.0545 0
M  V30 29 H 3.69024 -0.986235 2.64867 0
M  V30 30 H 1.41992 0.703408 0.31095 0
M  V30 31 H -0.81626 1.28293 -0.3744 0
M  V30 32 H -2.59862 -0.861505 -1.36904 0
M  V30 33 H -1.88986 0.0576831 -2.7073 0
M  V30 34 H -2.73283 2.22334 -1.76674 0
M  V30 35 H -4.09753 1.00881 -1.93237 0
M  V30 36 H -3.20574 2.35182 3.08913 0
M  V30 37 H -5.25604 -1.18096 0.735375 0
M  V30 38 H -6.4279 0.108891 0.318816 0
M  V30 39 H -5.1603 -0.403106 -0.9315 0
M  V30 40 H 0.0667061 -4.24564 -2.52207 0
M  V30 41 H 1.83982 -4.27063 -2.74699 0
M  V30 END ATOM
M  V30 BEGIN BOND
M  V30 1 1 1 2
M  V30 2 1 2 3
M  V30 3 1 3 4
M  V30 4 1 4 5
M  V30 5 1 4 6
M  V30 6 2 6 7
M  V30 7 1 7 8
M  V30 8 1 8 9
M  V30 9 1 9 10
M  V30 10 1 10 11
M  V30 11 1 11 12
M  V30 12 2 12 13
M  V30 13 1 13 14
M  V30 14 2 14 15
M  V30 15 1 15 16
M  V30 16 1 16 17
M  V30 17 2 8 18
M  V30 18 1 18 19
M  V30 19 2 19 20
M  V30 20 1 19 21
M  V30 21 1 5 2
M  V30 22 1 20 6
M  V30 23 1 16 12
M  V30 24 1 1 22
M  V30 25 1 1 23
M  V30 26 1 2 24
M  V30 27 1 3 25
M  V30 28 1 3 26
M  V30 29 1 4 27
M  V30 30 1 5 28
M  V30 31 1 5 29
M  V30 32 1 7 30
M  V30 33 1 9 31
M  V30 34 1 10 32
M  V30 35 1 10 33
M  V30 36 1 11 34
M  V30 37 1 11 35
M  V30 38 1 14 36
M  V30 39 1 17 37
M  V30 40 1 17 38
M  V30 41 1 17 39
M  V30 42 1 21 40
M  V30 43 1 21 41
M  V30 END BOND
M  V30 END CTAB
M  END
