
     RDKit          3D

  0  0  0  0  0  0  0  0  0  0999 V3000
M  V30 BEGIN CTAB
M  V30 COUNTS 24 24 0 0 0
M  V30 BEGIN ATOM
M  V30 1 C -2.47204 0.521582 1.15347 0
M  V30 2 N -1.72508 -0.20366 0.142367 0
M  V30 3 C -2.52706 -0.90457 -0.843162 0
M  V30 4 C -0.305847 -0.244772 0.0925661 0
M  V30 5 C 0.421185 -1.41338 0.177981 0
M  V30 6 C 1.79899 -1.45957 0.130294 0
M  V30 7 C 2.50185 -0.303442 -0.00803896 0
M  V30 8 N 3.92415 -0.333647 -0.0589589 0
M  V30 9 C 1.82237 0.893056 -0.0979495 0
M  V30 10 C 0.434895 0.928524 -0.0488568 0
M  V30 11 N -0.180785 2.18791 -0.147271 0
M  V30 12 H -1.84555 1.0815 1.84806 0
M  V30 13 H -3.24437 1.13787 0.64254 0
M  V30 14 H -3.05359 -0.222314 1.76232 0
M  V30 15 H -3.23039 -1.62553 -0.334653 0
M  V30 16 H -1.91825 -1.5235 -1.52588 0
M  V30 17 H -3.13094 -0.175027 -1.4212 0
M  V30 18 H -0.128294 -2.34133 0.288481 0
M  V30 19 H 2.35016 -2.40058 0.200367 0
M  V30 20 H 4.47999 0.51358 -0.284934 0
M  V30 21 H 4.4363 -1.20395 0.128896 0
M  V30 22 H 2.39888 1.80474 -0.207875 0
M  V30 23 H -0.336478 2.60227 -1.0728 0
M  V30 24 H -0.4701 2.68424 0.702622 0
M  V30 END ATOM
M  V30 BEGIN BOND
M  V30 1 1 1 2
M  V30 2 1 2 3
M  V30 3 1 2 4
M  V30 4 2 4 5
M  V30 5 1 5 6
M  V30 6 2 6 7
M  V30 7 1 7 8
M  V30 8 1 7 9
M  V30 9 2 9 10
M  V30 10 1 10 11
M  V30 11 1 10 4
M  V30 12 1 1 12
M  V30 13 1 1 13
M  V30 14 1 1 14
M  V30 15 1 3 15
M  V30 16 1 3 16
M  V30 17 1 3 17
M  V30 18 1 5 18
M  V30 19 1 6 19
M  V30 20 1 8 20
M  V30 21 1 8 21
M  V30 22 1 9 22
M  V30 23 1 11 23
M  V30 24 1 11 24
M  V30 END BOND
M  V30 END CTAB
M  END
