
     RDKit          3D

  0  0  0  0  0  0  0  0  0  0999 V3000
M  V30 BEGIN CTAB
M  V30 COUNTS 30 31 0 0 0
M  V30 BEGIN ATOM
M  V30 1 N 4.8719 0.0544334 -1.02743 0
M  V30 2 C 3.48033 0.0339956 -0.69561 0
M  V30 3 C 3.0034 -0.00974818 0.583508 0
M  V30 4 C 1.6122 -0.0353001 0.852741 0
M  V30 5 C 0.70056 -0.0199281 -0.164471 0
M  V30 6 C 1.19631 0.0264257 -1.47205 0
M  V30 7 C 2.54529 0.0517006 -1.70383 0
M  V30 8 C -0.734154 -0.15522 0.051276 0
M  V30 9 C -1.28464 -1.34893 0.471923 0
M  V30 10 C -2.61205 -1.58065 0.608425 0
M  V30 11 C -3.48668 -0.54514 0.303758 0
M  V30 12 N -4.87841 -0.831376 0.468268 0
M  V30 13 C -2.98316 0.650378 -0.116525 0
M  V30 14 C -1.61978 0.886893 -0.256055 0
M  V30 15 N -1.13559 2.14174 -0.685402 0 CHG=1
M  V30 16 O -1.88009 2.88308 -1.54969 0 CHG=-1
M  V30 17 O -0.0480446 2.54987 -0.262957 0
M  V30 18 N 1.24982 0.00835716 2.21673 0 CHG=1
M  V30 19 O 0.166493 -0.477395 2.81998 0 CHG=-1
M  V30 20 O 2.07103 0.60616 3.00931 0
M  V30 21 H 5.31593 -0.587044 -1.71715 0
M  V30 22 H 5.46671 0.754165 -0.540526 0
M  V30 23 H 3.71578 -0.0262048 1.40815 0
M  V30 24 H 0.443158 0.0408173 -2.25395 0
M  V30 25 H 2.91058 0.0845386 -2.72864 0
M  V30 26 H -0.599249 -2.16657 0.694303 0
M  V30 27 H -2.98636 -2.55004 0.947966 0
M  V30 28 H -5.5902 -0.594169 -0.25266 0
M  V30 29 H -5.22444 -1.30157 1.34426 0
M  V30 30 H -3.68666 1.45673 -0.353649 0
M  V30 END ATOM
M  V30 BEGIN BOND
M  V30 1 1 1 2
M  V30 2 2 2 3
M  V30 3 1 3 4
M  V30 4 2 4 5
M  V30 5 1 5 6
M  V30 6 2 6 7
M  V30 7 1 5 8
M  V30 8 2 8 9
M  V30 9 1 9 10
M  V30 10 2 10 11
M  V30 11 1 11 12
M  V30 12 1 11 13
M  V30 13 2 13 14
M  V30 14 1 14 15
M  V30 15 1 15 16
M  V30 16 2 15 17
M  V30 17 1 4 18
M  V30 18 1 18 19
M  V30 19 2 18 20
M  V30 20 1 7 2
M  V30 21 1 14 8
M  V30 22 1 1 21
M  V30 23 1 1 22
M  V30 24 1 3 23
M  V30 25 1 6 24
M  V30 26 1 7 25
M  V30 27 1 9 26
M  V30 28 1 10 27
M  V30 29 1 12 28
M  V30 30 1 12 29
M  V30 31 1 13 30
M  V30 END BOND
M  V30 END CTAB
M  END
