
     RDKit          3D

  0  0  0  0  0  0  0  0  0  0999 V3000
M  V30 BEGIN CTAB
M  V30 COUNTS 20 21 0 0 0
M  V30 BEGIN ATOM
M  V30 1 N -3.38668 -1.39 0.365721 0
M  V30 2 C -2.12763 -0.749889 0.21475 0
M  V30 3 N -1.03751 -1.53769 0.250798 0
M  V30 4 C 0.183075 -1.01649 0.116804 0
M  V30 5 C 0.291562 0.364087 -0.0608899 0
M  V30 6 C -0.815398 1.17711 -0.0991156 0
M  V30 7 N -0.747804 2.57777 -0.276992 0
M  V30 8 N -2.0313 0.580924 0.0439343 0
M  V30 9 C 1.53449 0.928457 -0.201515 0
M  V30 10 Cl 1.72351 2.65733 -0.427032 0
M  V30 11 C 2.67587 0.151269 -0.169683 0
M  V30 12 Cl 4.25773 0.926058 -0.35569 0
M  V30 13 C 2.57146 -1.20424 0.00466767 0
M  V30 14 C 1.32952 -1.78357 0.147092 0
M  V30 15 H -3.84022 -1.81122 -0.4677 0
M  V30 16 H -3.82508 -1.42408 1.29764 0
M  V30 17 H -0.776052 3.00093 -1.2285 0
M  V30 18 H -0.676084 3.2358 0.528505 0
M  V30 19 H 3.48017 -1.82458 0.0301907 0
M  V30 20 H 1.21635 -2.85796 0.287015 0
M  V30 END ATOM
M  V30 BEGIN BOND
M  V30 1 1 1 2
M  V30 2 2 2 3
M  V30 3 1 3 4
M  V30 4 2 4 5
M  V30 5 1 5 6
M  V30 6 1 6 7
M  V30 7 2 6 8
M  V30 8 1 5 9
M  V30 9 1 9 10
M  V30 10 2 9 11
M  V30 11 1 11 12
M  V30 12 1 11 13
M  V30 13 2 13 14
M  V30 14 1 8 2
M  V30 15 1 14 4
M  V30 16 1 1 15
M  V30 17 1 1 16
M  V30 18 1 7 17
M  V30 19 1 7 18
M  V30 20 1 13 19
M  V30 21 1 14 20
M  V30 END BOND
M  V30 END CTAB
M  END
