
     RDKit          3D

  0  0  0  0  0  0  0  0  0  0999 V3000
M  V30 BEGIN CTAB
M  V30 COUNTS 17 17 0 0 0
M  V30 BEGIN ATOM
M  V30 1 N -3.50782 1.82046 -0.0240549 0
M  V30 2 C -2.4278 1.38472 -0.049445 0
M  V30 3 C -1.09019 0.836962 -0.0654703 0
M  V30 4 C -0.893177 -0.507593 0.198733 0
M  V30 5 N -2.05868 -1.28684 0.477653 0
M  V30 6 C 0.376579 -1.04766 0.187792 0
M  V30 7 C 1.48968 -0.284739 -0.0825528 0
M  V30 8 C 1.26721 1.05292 -0.342808 0
M  V30 9 C 0.0117363 1.62597 -0.340228 0
M  V30 10 F -0.192631 2.9421 -0.597728 0
M  V30 11 N 2.81409 -0.841785 -0.0952709 0
M  V30 12 H -2.7164 -1.49167 -0.316845 0
M  V30 13 H -2.30006 -1.66254 1.40395 0
M  V30 14 H 0.463854 -2.10322 0.401824 0
M  V30 15 H 2.13486 1.66462 -0.557166 0
M  V30 16 H 3.02918 -1.72157 -0.610457 0
M  V30 17 H 3.59959 -0.380142 0.41207 0
M  V30 END ATOM
M  V30 BEGIN BOND
M  V30 1 3 1 2
M  V30 2 1 2 3
M  V30 3 2 3 4
M  V30 4 1 4 5
M  V30 5 1 4 6
M  V30 6 2 6 7
M  V30 7 1 7 8
M  V30 8 2 8 9
M  V30 9 1 9 10
M  V30 10 1 7 11
M  V30 11 1 9 3
M  V30 12 1 5 12
M  V30 13 1 5 13
M  V30 14 1 6 14
M  V30 15 1 8 15
M  V30 16 1 11 16
M  V30 17 1 11 17
M  V30 END BOND
M  V30 END CTAB
M  END
