
     RDKit          3D

  0  0  0  0  0  0  0  0  0  0999 V3000
M  V30 BEGIN CTAB
M  V30 COUNTS 26 27 0 0 0
M  V30 BEGIN ATOM
M  V30 1 N -3.78213 -0.282388 0.809148 0
M  V30 2 C -3.50783 0.563346 -0.32646 0
M  V30 3 C -2.04523 0.437512 -0.772365 0
M  V30 4 C -1.19909 0.857687 0.401204 0
M  V30 5 N 0.199885 0.79657 0.146772 0
M  V30 6 C 0.939397 1.79292 -0.345852 0
M  V30 7 N 2.20755 1.3668 -0.44744 0
M  V30 8 C 2.28776 0.0978797 -0.0214839 0
M  V30 9 C 0.9974 -0.252728 0.354895 0
M  V30 10 N 0.823353 -1.51439 0.828439 0
M  V30 11 C 1.8471 -2.38341 0.929211 0
M  V30 12 N 3.08455 -2.01037 0.555449 0
M  V30 13 C 3.35277 -0.773143 0.0718519 0
M  V30 14 N 4.66505 -0.399931 -0.316724 0
M  V30 15 H -3.0708 -1.0301 0.944401 0
M  V30 16 H -4.73574 -0.701926 0.739814 0
M  V30 17 H -3.74475 1.60752 -0.0439861 0
M  V30 18 H -4.17652 0.300325 -1.17248 0
M  V30 19 H -1.93252 1.11122 -1.64624 0
M  V30 20 H -1.86932 -0.584277 -1.11205 0
M  V30 21 H -1.51143 1.90124 0.662479 0
M  V30 22 H -1.49906 0.229925 1.26713 0
M  V30 23 H 0.619393 2.78225 -0.627209 0
M  V30 24 H 1.7066 -3.38757 1.30648 0
M  V30 25 H 5.00569 -0.618817 -1.27901 0
M  V30 26 H 5.33792 0.0938577 0.309018 0
M  V30 END ATOM
M  V30 BEGIN BOND
M  V30 1 1 1 2
M  V30 2 1 2 3
M  V30 3 1 3 4
M  V30 4 1 4 5
M  V30 5 1 5 6
M  V30 6 2 6 7
M  V30 7 1 7 8
M  V30 8 2 8 9
M  V30 9 1 9 10
M  V30 10 2 10 11
M  V30 11 1 11 12
M  V30 12 2 12 13
M  V30 13 1 13 14
M  V30 14 1 9 5
M  V30 15 1 13 8
M  V30 16 1 1 15
M  V30 17 1 1 16
M  V30 18 1 2 17
M  V30 19 1 2 18
M  V30 20 1 3 19
M  V30 21 1 3 20
M  V30 22 1 4 21
M  V30 23 1 4 22
M  V30 24 1 6 23
M  V30 25 1 11 24
M  V30 26 1 14 25
M  V30 27 1 14 26
M  V30 END BOND
M  V30 END CTAB
M  END
