
     RDKit          3D

  0  0  0  0  0  0  0  0  0  0999 V3000
M  V30 BEGIN CTAB
M  V30 COUNTS 33 34 0 0 0
M  V30 BEGIN ATOM
M  V30 1 N 6.32991 0.585983 -0.697027 0
M  V30 2 C 5.42873 0.129624 0.764607 0
M  V30 3 N 6.50292 0.040437 1.31665 0
M  V30 4 N 4.23433 0.228794 0.150775 0
M  V30 5 C 2.97586 -0.034581 0.849893 0
M  V30 6 O 3.06485 -0.352642 2.0464 0
M  V30 7 C 1.69094 0.0685365 0.192138 0
M  V30 8 C 0.550885 -0.18247 0.924968 0
M  V30 9 N 0.703632 -0.509717 2.30023 0
M  V30 10 N -0.66161 -0.112295 0.340001 0
M  V30 11 C -0.798338 0.202446 -0.968821 0
M  V30 12 N -2.04555 0.238936 -1.62099 0
M  V30 13 C -3.32244 0.0483147 -1.06197 0
M  V30 14 C -3.61584 0.291125 0.243786 0
M  V30 15 C -4.87663 0.050261 0.774226 0
M  V30 16 C -5.85652 -0.444029 -0.030519 0
M  V30 17 C -5.62567 -0.70984 -1.35926 0
M  V30 18 C -4.37526 -0.461068 -1.8462 0
M  V30 19 C 0.351356 0.452687 -1.69082 0
M  V30 20 Cl 0.203119 0.870618 -3.3855 0
M  V30 21 N 1.5862 0.388789 -1.1251 0
M  V30 22 H 6.47162 -0.282 -1.09837 0
M  V30 23 H 6.35119 1.54348 -0.562797 0
M  V30 24 H 6.61707 -0.232295 2.33032 0
M  V30 25 H 4.06738 0.496764 -0.858069 0
M  V30 26 H 0.585442 0.207995 3.04849 0
M  V30 27 H 0.939135 -1.49278 2.53678 0
M  V30 28 H -2.0464 0.432965 -2.67322 0
M  V30 29 H -2.89391 0.701707 0.939109 0
M  V30 30 H -5.06081 0.257716 1.82851 0
M  V30 31 H -6.85285 -0.642518 0.365024 0
M  V30 32 H -6.4191 -1.10613 -1.98701 0
M  V30 33 H -4.20366 -0.674815 -2.89062 0
M  V30 END ATOM
M  V30 BEGIN BOND
M  V30 1 1 1 2
M  V30 2 2 2 3 CFG=2
M  V30 3 1 2 4
M  V30 4 1 4 5
M  V30 5 2 5 6
M  V30 6 1 5 7
M  V30 7 2 7 8
M  V30 8 1 8 9
M  V30 9 1 8 10
M  V30 10 2 10 11
M  V30 11 1 11 12
M  V30 12 1 12 13
M  V30 13 2 13 14
M  V30 14 1 14 15
M  V30 15 2 15 16
M  V30 16 1 16 17
M  V30 17 2 17 18
M  V30 18 1 11 19
M  V30 19 1 19 20
M  V30 20 2 19 21
M  V30 21 1 21 7
M  V30 22 1 18 13
M  V30 23 1 1 22
M  V30 24 1 1 23
M  V30 25 1 3 24
M  V30 26 1 4 25
M  V30 27 1 9 26
M  V30 28 1 9 27
M  V30 29 1 12 28
M  V30 30 1 14 29
M  V30 31 1 15 30
M  V30 32 1 16 31
M  V30 33 1 17 32
M  V30 34 1 18 33
M  V30 END BOND
M  V30 END CTAB
M  END
