
     RDKit          3D

  0  0  0  0  0  0  0  0  0  0999 V3000
M  V30 BEGIN CTAB
M  V30 COUNTS 30 30 0 0 0
M  V30 BEGIN ATOM
M  V30 1 N -2.63974 -0.80226 -0.201244 0
M  V30 2 C -1.22776 -0.986429 0.116344 0
M  V30 3 C -0.364178 0.122428 -0.447683 0
M  V30 4 C -0.560323 0.0917857 -1.96474 0
M  V30 5 C -0.936978 1.42611 0.0465653 0
M  V30 6 C -0.503613 1.81076 1.41907 0
M  V30 7 C 0.777841 1.20718 1.87847 0
M  V30 8 C 1.62554 0.966246 0.623171 0
M  V30 9 N 0.972298 -0.0812493 -0.0922208 0
M  V30 10 S 1.56686 -1.61838 0.0734335 0
M  V30 11 O 3.06551 -1.55718 0.349053 0
M  V30 12 O 0.927437 -2.49773 1.08338 0
M  V30 13 N 1.43634 -2.45098 -1.46242 0
M  V30 14 H -3.14204 -0.284965 0.545378 0
M  V30 15 H -2.79548 -0.482976 -1.15932 0
M  V30 16 H -1.05439 -1.0393 1.19725 0
M  V30 17 H -0.939899 -1.93473 -0.413785 0
M  V30 18 H -0.710553 -0.947728 -2.30181 0
M  V30 19 H 0.282351 0.605384 -2.47452 0
M  V30 20 H -1.47118 0.679286 -2.17822 0
M  V30 21 H -0.597238 2.25496 -0.642695 0
M  V30 22 H -2.0444 1.44534 -0.00642217 0
M  V30 23 H -0.417876 2.93044 1.53867 0
M  V30 24 H -1.30288 1.51161 2.15445 0
M  V30 25 H 0.604605 0.218988 2.38635 0
M  V30 26 H 1.30312 1.89499 2.54362 0
M  V30 27 H 2.64549 0.647312 0.871026 0
M  V30 28 H 1.63013 1.93819 0.0799564 0
M  V30 29 H 1.80755 -1.7824 -2.17648 0
M  V30 30 H 2.06345 -3.28471 -1.38462 0
M  V30 END ATOM
M  V30 BEGIN BOND
M  V30 1 1 1 2
M  V30 2 1 2 3
M  V30 3 1 3 4
M  V30 4 1 3 5
M  V30 5 1 5 6
M  V30 6 1 6 7
M  V30 7 1 7 8
M  V30 8 1 8 9
M  V30 9 1 9 10
M  V30 10 2 10 11
M  V30 11 2 10 12
M  V30 12 1 10 13
M  V30 13 1 9 3
M  V30 14 1 1 14
M  V30 15 1 1 15
M  V30 16 1 2 16
M  V30 17 1 2 17
M  V30 18 1 4 18
M  V30 19 1 4 19
M  V30 20 1 4 20
M  V30 21 1 5 21
M  V30 22 1 5 22
M  V30 23 1 6 23
M  V30 24 1 6 24
M  V30 25 1 7 25
M  V30 26 1 7 26
M  V30 27 1 8 27
M  V30 28 1 8 28
M  V30 29 1 13 29
M  V30 30 1 13 30
M  V30 END BOND
M  V30 END CTAB
M  END
