
     RDKit          3D

  0  0  0  0  0  0  0  0  0  0999 V3000
M  V30 BEGIN CTAB
M  V30 COUNTS 33 34 0 0 0
M  V30 BEGIN ATOM
M  V30 1 N -4.0073 2.36164 -1.09609 0
M  V30 2 C -3.53114 1.14541 -0.490743 0
M  V30 3 N -4.40765 0.191205 -0.15196 0
M  V30 4 C -3.9389 -0.933559 0.410947 0
M  V30 5 N -4.80882 -2.00292 0.802869 0
M  V30 6 C -2.5922 -1.09427 0.630743 0
M  V30 7 N -2.0602 -2.28557 1.23081 0
M  V30 8 O -1.8604 -3.32159 0.571913 0
M  V30 9 C -1.7331 -0.0925312 0.268434 0
M  V30 10 O -0.39624 -0.233528 0.478191 0
M  V30 11 C 0.49448 0.79693 0.106266 0
M  V30 12 C 1.88828 0.32887 0.471066 0
M  V30 13 C 2.9284 1.39171 0.100428 0
M  V30 14 C 4.24421 0.875945 0.649884 0
M  V30 15 C 4.58514 -0.335809 -0.147109 0
M  V30 16 C 3.63183 -1.15879 -0.508736 0
M  V30 17 C 2.19434 -0.978589 -0.17993 0
M  V30 18 N -2.21743 1.0164 -0.288963 0
M  V30 19 H -3.39562 3.17912 -1.2263 0
M  V30 20 H -4.99344 2.4339 -1.41647 0
M  V30 21 H -5.81131 -1.81728 1.00578 0
M  V30 22 H -4.4651 -2.96831 0.891491 0
M  V30 23 H 0.209835 1.70471 0.66949 0
M  V30 24 H 0.393264 1.03102 -0.958341 0
M  V30 25 H 1.98156 0.202033 1.56939 0
M  V30 26 H 2.99193 1.44337 -1.00611 0
M  V30 27 H 2.62983 2.3546 0.545643 0
M  V30 28 H 5.03882 1.64293 0.622209 0
M  V30 29 H 4.09079 0.551001 1.71729 0
M  V30 30 H 5.6033 -0.563712 -0.441676 0
M  V30 31 H 3.89269 -2.02996 -1.08412 0
M  V30 32 H 1.81838 -1.80151 0.463717 0
M  V30 33 H 1.60177 -1.03287 -1.13733 0
M  V30 END ATOM
M  V30 BEGIN BOND
M  V30 1 1 1 2
M  V30 2 2 2 3
M  V30 3 1 3 4
M  V30 4 1 4 5
M  V30 5 2 4 6
M  V30 6 1 6 7
M  V30 7 2 7 8
M  V30 8 1 6 9
M  V30 9 1 9 10
M  V30 10 1 10 11
M  V30 11 1 11 12
M  V30 12 1 12 13
M  V30 13 1 13 14
M  V30 14 1 14 15
M  V30 15 2 15 16
M  V30 16 1 16 17
M  V30 17 2 9 18
M  V30 18 1 18 2
M  V30 19 1 17 12
M  V30 20 1 1 19
M  V30 21 1 1 20
M  V30 22 1 5 21
M  V30 23 1 5 22
M  V30 24 1 11 23
M  V30 25 1 11 24
M  V30 26 1 12 25
M  V30 27 1 13 26
M  V30 28 1 13 27
M  V30 29 1 14 28
M  V30 30 1 14 29
M  V30 31 1 15 30
M  V30 32 1 16 31
M  V30 33 1 17 32
M  V30 34 1 17 33
M  V30 END BOND
M  V30 END CTAB
M  END
