
     RDKit          3D

  0  0  0  0  0  0  0  0  0  0999 V3000
M  V30 BEGIN CTAB
M  V30 COUNTS 77 82 0 0 0
M  V30 BEGIN ATOM
M  V30 1 N -13.7909 0.545918 -0.547178 0
M  V30 2 C -12.5067 1.088 -0.768594 0
M  V30 3 N -12.3069 1.94286 -1.79953 0
M  V30 4 C -11.0992 2.47906 -2.04184 0
M  V30 5 N -10.0507 2.17947 -1.26272 0
M  V30 6 C -10.1642 1.32855 -0.204639 0
M  V30 7 C -11.4214 0.790594 0.0214411 0
M  V30 8 N -11.2818 -0.0131138 1.11302 0
M  V30 9 C -9.98597 0.0525558 1.51215 0
M  V30 10 N -9.29253 0.876203 0.706019 0
M  V30 11 C -7.89837 1.23948 0.756957 0 CFG=1
M  V30 12 C -7.38005 1.22472 2.20031 0
M  V30 13 C -5.87764 1.21389 1.94678 0
M  V30 14 C -5.79187 0.752252 0.51554 0 CFG=1
M  V30 15 C -4.76168 -0.342583 0.327741 0
M  V30 16 O -3.52909 0.150991 0.68684 0
M  V30 17 P -2.28805 -0.956841 0.528858 0
M  V30 18 O -0.836139 -0.114876 0.398248 0
M  V30 19 O -2.2273 -1.75766 1.82993 0
M  V30 20 O -2.53418 -2.04422 -0.715519 0
M  V30 21 P -1.19882 -2.2498 -1.70585 0
M  V30 22 O -1.78335 -2.4099 -3.30548 0
M  V30 23 O -0.26202 -1.08299 -1.69881 0
M  V30 24 O -0.393916 -3.70739 -1.35834 0
M  V30 25 P 1.00752 -3.46409 -0.480622 0
M  V30 26 O 2.06765 -4.75964 -0.82025 0
M  V30 27 O 0.650575 -3.60335 0.997485 0
M  V30 28 O 1.73889 -1.99244 -0.786779 0
M  V30 29 P 3.1155 -2.13023 -1.75697 0
M  V30 30 O 2.99876 -3.46364 -2.80914 0
M  V30 31 O 3.28043 -0.900359 -2.61413 0
M  V30 32 O 4.47953 -2.25992 -0.767667 0
M  V30 33 C 5.40764 -1.27057 -1.06625 0
M  V30 34 C 6.58913 -1.45718 -0.14228 0 CFG=2
M  V30 35 C 6.22795 -1.165 1.29932 0
M  V30 36 C 7.61828 -0.904861 1.89127 0
M  V30 37 C 8.3704 -0.412706 0.711966 0 CFG=1
M  V30 38 O 7.56081 -0.487881 -0.394831 0
M  V30 39 N 8.95924 0.890194 0.886279 0
M  V30 40 C 8.86079 1.78959 1.85971 0
M  V30 41 N 9.59528 2.88736 1.60376 0
M  V30 42 C 10.1822 2.67496 0.421461 0
M  V30 43 C 9.79082 1.43452 -0.0303545 0
M  V30 44 N 10.2749 1.01967 -1.22061 0
M  V30 45 C 11.1 1.79893 -1.91542 0
M  V30 46 N 11.491 3.00425 -1.49462 0
M  V30 47 C 11.0481 3.48219 -0.317268 0
M  V30 48 N 11.4374 4.7524 0.164726 0
M  V30 49 O -7.07435 0.299961 0.162811 0
M  V30 50 H -14.0939 -0.407586 -0.843509 0
M  V30 51 H -14.5185 1.12071 -0.0493914 0
M  V30 52 H -10.9612 3.15419 -2.86345 0
M  V30 53 H -9.55166 -0.472447 2.35336 0
M  V30 54 H -7.68433 2.22404 0.342263 0
M  V30 55 H -7.65588 0.26696 2.64884 0
M  V30 56 H -7.69765 2.11579 2.74716 0
M  V30 57 H -5.55749 2.29245 2.01813 0
M  V30 58 H -5.33003 0.586309 2.65364 0
M  V30 59 H -5.58891 1.61589 -0.149252 0
M  V30 60 H -5.05183 -1.28216 0.803985 0
M  V30 61 H -4.72826 -0.543815 -0.778355 0
M  V30 62 H -0.576215 0.198772 1.29305 0
M  V30 63 H -1.2726 -1.8528 -3.93627 0
M  V30 64 H 1.59714 -5.59525 -0.642239 0
M  V30 65 H 3.71759 -4.13141 -2.59567 0
M  V30 66 H 4.99873 -0.262463 -1.04546 0
M  V30 67 H 5.78911 -1.44734 -2.09996 0
M  V30 68 H 6.97612 -2.4791 -0.213142 0
M  V30 69 H 5.65839 -0.236454 1.40911 0
M  V30 70 H 5.74233 -2.02744 1.79088 0
M  V30 71 H 7.57761 -0.245658 2.75348 0
M  V30 72 H 7.96641 -1.92247 2.23614 0
M  V30 73 H 9.22684 -1.12144 0.535368 0
M  V30 74 H 8.27589 1.6703 2.74099 0
M  V30 75 H 11.465 1.42174 -2.87084 0
M  V30 76 H 12.1458 4.80843 0.916685 0
M  V30 77 H 11.0159 5.6049 -0.23371 0
M  V30 END ATOM
M  V30 BEGIN BOND
M  V30 1 1 1 2
M  V30 2 2 2 3
M  V30 3 1 3 4
M  V30 4 2 4 5
M  V30 5 1 5 6
M  V30 6 2 6 7
M  V30 7 1 7 8
M  V30 8 2 8 9
M  V30 9 1 9 10
M  V30 10 1 10 11
M  V30 11 1 11 12
M  V30 12 1 12 13
M  V30 13 1 13 14
M  V30 14 1 14 15
M  V30 15 1 15 16
M  V30 16 1 16 17
M  V30 17 1 17 18
M  V30 18 2 17 19
M  V30 19 1 17 20
M  V30 20 1 20 21
M  V30 21 1 21 22
M  V30 22 2 21 23
M  V30 23 1 21 24
M  V30 24 1 24 25
M  V30 25 1 25 26
M  V30 26 2 25 27
M  V30 27 1 25 28
M  V30 28 1 28 29
M  V30 29 1 29 30
M  V30 30 2 29 31
M  V30 31 1 29 32
M  V30 32 1 32 33
M  V30 33 1 33 34
M  V30 34 1 34 35
M  V30 35 1 35 36
M  V30 36 1 36 37
M  V30 37 1 37 38
M  V30 38 1 37 39
M  V30 39 1 39 40
M  V30 40 2 40 41
M  V30 41 1 41 42
M  V30 42 2 42 43
M  V30 43 1 43 44
M  V30 44 2 44 45
M  V30 45 1 45 46
M  V30 46 2 46 47
M  V30 47 1 47 48
M  V30 48 1 14 49
M  V30 49 1 7 2
M  V30 50 1 49 11
M  V30 51 1 10 6
M  V30 52 1 38 34
M  V30 53 1 43 39
M  V30 54 1 47 42
M  V30 55 1 1 50
M  V30 56 1 1 51
M  V30 57 1 4 52
M  V30 58 1 9 53
M  V30 59 1 11 54 CFG=3
M  V30 60 1 12 55
M  V30 61 1 12 56
M  V30 62 1 13 57
M  V30 63 1 13 58
M  V30 64 1 14 59 CFG=3
M  V30 65 1 15 60
M  V30 66 1 15 61
M  V30 67 1 18 62
M  V30 68 1 22 63
M  V30 69 1 26 64
M  V30 70 1 30 65
M  V30 71 1 33 66
M  V30 72 1 33 67
M  V30 73 1 34 68 CFG=1
M  V30 74 1 35 69
M  V30 75 1 35 70
M  V30 76 1 36 71
M  V30 77 1 36 72
M  V30 78 1 37 73 CFG=3
M  V30 79 1 40 74
M  V30 80 1 45 75
M  V30 81 1 48 76
M  V30 82 1 48 77
M  V30 END BOND
M  V30 END CTAB
M  END
