
     RDKit          3D

  0  0  0  0  0  0  0  0  0  0999 V3000
M  V30 BEGIN CTAB
M  V30 COUNTS 19 19 0 0 0
M  V30 BEGIN ATOM
M  V30 1 N 2.618 -1.19906 0.0404445 0
M  V30 2 C 1.26593 -0.740303 0.00958408 0
M  V30 3 C 0.196442 -1.60715 -0.0801283 0
M  V30 4 C -1.10095 -1.14011 -0.108311 0
M  V30 5 Br -2.59546 -2.34765 -0.233452 0
M  V30 6 C -1.394 0.205264 -0.0488335 0
M  V30 7 C -0.32906 1.07723 0.0409619 0
M  V30 8 C 0.968001 0.605449 0.0688806 0
M  V30 9 N 2.04999 1.50736 0.160961 0
M  V30 10 C -2.80255 0.706063 -0.0797722 0
M  V30 11 F -3.5243 0.191919 1.00087 0
M  V30 12 F -3.46007 0.30243 -1.21837 0
M  V30 13 F -2.85103 2.07911 0.0146479 0
M  V30 14 H 2.86557 -2.0585 -0.478135 0
M  V30 15 H 3.37818 -0.710996 0.562115 0
M  V30 16 H 0.392031 -2.67165 -0.128674 0
M  V30 17 H -0.563412 2.13078 0.0873481 0
M  V30 18 H 2.64917 1.48696 0.995239 0
M  V30 19 H 2.2375 2.18285 -0.605369 0
M  V30 END ATOM
M  V30 BEGIN BOND
M  V30 1 1 1 2
M  V30 2 2 2 3
M  V30 3 1 3 4
M  V30 4 1 4 5
M  V30 5 2 4 6
M  V30 6 1 6 7
M  V30 7 2 7 8
M  V30 8 1 8 9
M  V30 9 1 6 10
M  V30 10 1 10 11
M  V30 11 1 10 12
M  V30 12 1 10 13
M  V30 13 1 8 2
M  V30 14 1 1 14
M  V30 15 1 1 15
M  V30 16 1 3 16
M  V30 17 1 7 17
M  V30 18 1 9 18
M  V30 19 1 9 19
M  V30 END BOND
M  V30 END CTAB
M  END
