
     RDKit          3D

  0  0  0  0  0  0  0  0  0  0999 V3000
M  V30 BEGIN CTAB
M  V30 COUNTS 32 34 0 0 0
M  V30 BEGIN ATOM
M  V30 1 N -5.10089 -2.0325 -0.118509 0
M  V30 2 C -3.90584 -1.26234 -0.160315 0
M  V30 3 N -3.71624 -0.285439 0.757545 0
M  V30 4 C -2.6061 0.46737 0.760047 0
M  V30 5 C -2.47972 1.44952 1.70688 0
M  V30 6 C -1.35999 2.23955 1.72108 0
M  V30 7 C -0.373951 2.02844 0.775425 0
M  V30 8 C -0.469919 1.05201 -0.186287 0
M  V30 9 C -1.59532 0.266594 -0.195177 0
M  V30 10 C -1.83048 -0.737171 -1.11113 0
M  V30 11 N -0.870624 -0.969477 -2.1199 0
M  V30 12 N -2.97719 -1.48836 -1.08461 0
M  V30 13 S 0.794443 0.80069 -1.37248 0
M  V30 14 O 0.931142 1.91572 -2.36832 0
M  V30 15 C 2.30363 0.25084 -0.690747 0
M  V30 16 C 3.31824 1.13725 -0.3084 0
M  V30 17 C 4.49931 0.682126 0.230388 0
M  V30 18 C 4.72315 -0.662593 0.411818 0
M  V30 19 Cl 6.22314 -1.25593 1.09699 0
M  V30 20 C 3.74562 -1.54547 0.0453045 0
M  V30 21 Cl 4.02859 -3.25786 0.275471 0
M  V30 22 C 2.55909 -1.08088 -0.496399 0
M  V30 23 H -5.75798 -1.94085 -0.920748 0
M  V30 24 H -5.26862 -2.64978 0.703122 0
M  V30 25 H -3.26452 1.62359 2.4673 0
M  V30 26 H -1.29643 3.00046 2.47849 0
M  V30 27 H 0.484474 2.65688 0.810636 0
M  V30 28 H -0.85923 -0.458587 -3.03 0
M  V30 29 H -0.142657 -1.68745 -1.96448 0
M  V30 30 H 3.15026 2.20046 -0.447959 0
M  V30 31 H 5.26767 1.40199 0.516872 0
M  V30 32 H 1.84694 -1.8588 -0.752898 0
M  V30 END ATOM
M  V30 BEGIN BOND
M  V30 1 1 1 2
M  V30 2 2 2 3
M  V30 3 1 3 4
M  V30 4 2 4 5
M  V30 5 1 5 6
M  V30 6 2 6 7
M  V30 7 1 7 8
M  V30 8 2 8 9
M  V30 9 1 9 10
M  V30 10 1 10 11
M  V30 11 2 10 12
M  V30 12 1 8 13
M  V30 13 2 13 14
M  V30 14 1 13 15
M  V30 15 2 15 16
M  V30 16 1 16 17
M  V30 17 2 17 18
M  V30 18 1 18 19
M  V30 19 1 18 20
M  V30 20 1 20 21
M  V30 21 2 20 22
M  V30 22 1 12 2
M  V30 23 1 22 15
M  V30 24 1 9 4
M  V30 25 1 1 23
M  V30 26 1 1 24
M  V30 27 1 5 25
M  V30 28 1 6 26
M  V30 29 1 7 27
M  V30 30 1 11 28
M  V30 31 1 11 29
M  V30 32 1 16 30
M  V30 33 1 17 31
M  V30 34 1 22 32
M  V30 END BOND
M  V30 END CTAB
M  END
