
     RDKit          3D

  0  0  0  0  0  0  0  0  0  0999 V3000
M  V30 BEGIN CTAB
M  V30 COUNTS 28 29 0 0 0
M  V30 BEGIN ATOM
M  V30 1 O 2.55227 -0.378678 1.21922 0
M  V30 2 C 1.76993 -0.760692 0.118549 0 CFG=2
M  V30 3 C 1.49153 0.517881 -0.631465 0 CFG=2
M  V30 4 O 2.63172 1.19959 -0.987374 0
M  V30 5 C 0.585607 1.3385 0.284621 0 CFG=1
M  V30 6 N 0.599486 2.7304 -0.046898 0
M  V30 7 C -0.723308 0.68924 0.12779 0
M  V30 8 C -0.748452 -0.666873 0.24808 0
M  V30 9 C 0.500658 -1.40884 0.545353 0 CFG=1
M  V30 10 N 0.39101 -2.78627 0.102721 0
M  V30 11 C -1.95756 -1.36029 0.100156 0
M  V30 12 Cl -1.99229 -3.10045 0.253529 0
M  V30 13 C -3.08076 -0.622454 -0.163899 0
M  V30 14 C -3.09038 0.750824 -0.291431 0
M  V30 15 C -1.856 1.39955 -0.135214 0
M  V30 16 H 3.49092 -0.587688 1.11935 0
M  V30 17 H 2.42106 -1.44925 -0.469924 0
M  V30 18 H 0.959853 0.225659 -1.57031 0
M  V30 19 H 2.35958 1.94093 -1.5848 0
M  V30 20 H 0.916242 1.22459 1.335 0
M  V30 21 H 0.0405046 2.96247 -0.89292 0
M  V30 22 H 0.356202 3.27324 0.795387 0
M  V30 23 H 0.522251 -1.47855 1.67475 0
M  V30 24 H 0.98304 -3.39548 0.738146 0
M  V30 25 H 0.794388 -2.86121 -0.868785 0
M  V30 26 H -4.0238 -1.1396 -0.281436 0
M  V30 27 H -4.01274 1.25969 -0.49922 0
M  V30 28 H -1.88096 2.48377 -0.238969 0
M  V30 END ATOM
M  V30 BEGIN BOND
M  V30 1 1 1 2
M  V30 2 1 2 3
M  V30 3 1 3 4
M  V30 4 1 3 5
M  V30 5 1 5 6
M  V30 6 1 5 7
M  V30 7 2 7 8
M  V30 8 1 8 9
M  V30 9 1 9 10
M  V30 10 1 8 11
M  V30 11 1 11 12
M  V30 12 2 11 13
M  V30 13 1 13 14
M  V30 14 2 14 15
M  V30 15 1 9 2
M  V30 16 1 15 7
M  V30 17 1 1 16
M  V30 18 1 2 17 CFG=3
M  V30 19 1 3 18 CFG=3
M  V30 20 1 4 19
M  V30 21 1 5 20 CFG=1
M  V30 22 1 6 21
M  V30 23 1 6 22
M  V30 24 1 9 23 CFG=1
M  V30 25 1 10 24
M  V30 26 1 10 25
M  V30 27 1 13 26
M  V30 28 1 14 27
M  V30 29 1 15 28
M  V30 END BOND
M  V30 END CTAB
M  END
