
     RDKit          3D

  0  0  0  0  0  0  0  0  0  0999 V3000
M  V30 BEGIN CTAB
M  V30 COUNTS 117 118 0 0 0
M  V30 BEGIN ATOM
M  V30 1 C 8.90851 4.71459 -0.692253 0
M  V30 2 C 7.47494 4.73873 -1.24704 0
M  V30 3 N 6.70415 3.69577 -0.591793 0
M  V30 4 C 7.16412 2.36323 -0.674911 0
M  V30 5 O 8.19014 2.1763 -1.36134 0
M  V30 6 C 6.42675 1.23514 0.022615 0
M  V30 7 C 7.2803 1.00433 1.27649 0
M  V30 8 C 8.44968 0.264344 0.716801 0
M  V30 9 C 7.95981 -0.345626 -0.640243 0
M  V30 10 N 6.52671 -0.0238869 -0.643863 0
M  V30 11 C 5.47107 -0.925195 -0.993421 0
M  V30 12 O 5.70385 -1.69509 -1.93939 0
M  V30 13 C 4.24947 -0.829494 -0.155066 0
M  V30 14 N 3.00708 -0.82764 -0.562167 0
M  V30 15 C 1.73099 -0.885382 -1.2693 0
M  V30 16 O 1.82698 -1.30748 -2.43122 0
M  V30 17 C 0.569857 -0.427497 -0.541467 0
M  V30 18 N -0.683058 -1.20136 -0.302981 0
M  V30 19 C -1.8742 -0.606384 -0.450884 0
M  V30 20 O -1.64367 0.653616 -1.06985 0
M  V30 21 C -3.29144 -0.621035 -0.238419 0
M  V30 22 N -4.25559 -0.156188 -1.01349 0
M  V30 23 C -5.31532 0.355796 -1.86957 0
M  V30 24 O -5.22259 0.597018 -2.99646 0
M  V30 25 C -6.59445 0.545466 -1.04717 0
M  V30 26 C -7.6449 -0.439719 -1.28331 0
M  V30 27 C -7.47189 -1.85042 -1.04006 0
M  V30 28 C -7.23174 -2.83606 -2.02518 0
M  V30 29 C -7.15665 -4.18752 -1.70092 0
M  V30 30 C -7.30438 -4.60324 -0.399715 0
M  V30 31 C -7.52422 -3.62341 0.564023 0
M  V30 32 C -7.6067 -2.29367 0.276051 0
M  V30 33 O -7.24406 -5.97577 -0.047643 0
M  V30 34 N -7.22034 1.83995 -1.31004 0
M  V30 35 C -7.36508 2.72251 -0.152096 0
M  V30 36 O -6.96308 2.35497 0.95158 0
M  V30 37 C -8.04169 4.05058 -0.335549 0
M  V30 38 C -8.98934 4.0957 -1.43633 0
M  V30 39 O -9.79011 2.88588 -1.29792 0
M  V30 40 N -7.12611 5.14693 -0.287596 0
M  V30 41 C -3.74113 -1.13553 1.15532 0
M  V30 42 C -3.16384 -0.327494 2.25053 0
M  V30 43 C -3.47678 1.14842 2.19278 0
M  V30 44 C -3.66265 -0.813774 3.58083 0
M  V30 45 C 0.714406 0.562888 0.539446 0
M  V30 46 C 1.11944 1.94479 0.576441 0
M  V30 47 C 0.29621 2.97721 -0.179434 0
M  V30 48 C 2.52538 2.33981 0.413861 0
M  V30 49 C 4.48232 -1.79961 1.05481 0
M  V30 50 C 4.67498 -3.18277 0.557307 0
M  V30 51 C 5.05423 -4.03247 1.78374 0
M  V30 52 N 5.35495 -5.37324 1.45051 0
M  V30 53 C 6.51629 -5.66133 0.679077 0
M  V30 54 N 7.42207 -4.79569 0.397667 0
M  V30 55 N 6.72114 -6.97008 0.126096 0
M  V30 56 H 9.60228 4.31719 -1.45124 0
M  V30 57 H 9.20304 5.70336 -0.251582 0
M  V30 58 H 8.89748 4.02402 0.204319 0
M  V30 59 H 7.51308 4.62895 -2.3134 0
M  V30 60 H 7.01904 5.73908 -1.03328 0
M  V30 61 H 5.83164 3.95043 -0.123127 0
M  V30 62 H 5.45124 1.63778 0.240278 0
M  V30 63 H 6.67844 0.438948 2.00733 0
M  V30 64 H 7.60732 1.95052 1.73428 0
M  V30 65 H 9.28424 0.95708 0.540849 0
M  V30 66 H 8.72846 -0.489985 1.44336 0
M  V30 67 H 8.5627 -0.0546659 -1.41805 0
M  V30 68 H 8.04051 -1.46481 -0.414821 0
M  V30 69 H 4.43717 0.18718 0.412693 0
M  V30 70 H 2.4169 -0.932964 0.571856 0
M  V30 71 H 0.0522069 0.275178 -1.44143 0
M  V30 72 H -0.468438 -2.20416 -0.0587831 0
M  V30 73 H -3.1436 0.682331 0.287694 0
M  V30 74 H -3.53533 -0.297362 -2.1654 0
M  V30 75 H -6.33875 0.50399 0.0298513 0
M  V30 76 H -8.61933 -0.171083 -0.725741 0
M  V30 77 H -7.95688 -0.295722 -2.39108 0
M  V30 78 H -7.10266 -2.5557 -3.01944 0
M  V30 79 H -6.9945 -4.932 -2.46487 0
M  V30 80 H -7.63073 -4.03997 1.57403 0
M  V30 81 H -7.77517 -1.53874 1.06468 0
M  V30 82 H -8.19716 -6.42443 -0.0373662 0
M  V30 83 H -7.52131 2.08442 -2.24653 0
M  V30 84 H -8.66366 4.16586 0.656934 0
M  V30 85 H -8.57943 4.10596 -2.4421 0
M  V30 86 H -9.73306 4.93947 -1.30539 0
M  V30 87 H -10.0847 2.8121 -0.334671 0
M  V30 88 H -7.60762 6.02681 0.0322642 0
M  V30 89 H -6.61082 5.37254 -1.14629 0
M  V30 90 H -4.8377 -0.995923 1.17627 0
M  V30 91 H -3.5117 -2.19019 1.15141 0
M  V30 92 H -2.03441 -0.484129 2.26802 0
M  V30 93 H -2.73774 1.79339 1.69544 0
M  V30 94 H -4.44868 1.31286 1.70303 0
M  V30 95 H -3.51699 1.57373 3.24943 0
M  V30 96 H -3.04592 -0.212286 4.31585 0
M  V30 97 H -4.72636 -0.54428 3.66042 0
M  V30 98 H -3.37177 -1.85171 3.824 0
M  V30 99 H 1.12262 -0.0209176 1.48658 0
M  V30 100 H -0.427452 0.62248 0.957275 0
M  V30 101 H 0.919288 2.31609 1.69176 0
M  V30 102 H 0.27449 2.78794 -1.23853 0
M  V30 103 H -0.701713 3.01058 0.283744 0
M  V30 104 H 0.750275 3.97106 0.0398849 0
M  V30 105 H 3.12825 1.88201 1.2306 0
M  V30 106 H 2.63309 3.46194 0.588484 0
M  V30 107 H 2.89182 2.13034 -0.608635 0
M  V30 108 H 5.34943 -1.46611 1.63987 0
M  V30 109 H 3.55623 -1.64163 1.64771 0
M  V30 110 H 5.34586 -3.32487 -0.25306 0
M  V30 111 H 3.63028 -3.58956 0.302925 0
M  V30 112 H 4.31752 -3.89701 2.58803 0
M  V30 113 H 6.00758 -3.54858 2.18565 0
M  V30 114 H 4.73214 -6.17003 1.71016 0
M  V30 115 H 7.40487 -3.79942 0.719141 0
M  V30 116 H 7.69003 -7.39001 0.150813 0
M  V30 117 H 5.9232 -7.49727 -0.27154 0
M  V30 END ATOM
M  V30 BEGIN BOND
M  V30 1 1 1 2
M  V30 2 1 2 3
M  V30 3 1 3 4
M  V30 4 2 4 5
M  V30 5 1 4 6
M  V30 6 1 6 7
M  V30 7 1 7 8
M  V30 8 1 8 9
M  V30 9 1 9 10
M  V30 10 1 10 11
M  V30 11 2 11 12
M  V30 12 1 11 13
M  V30 13 1 13 14
M  V30 14 1 14 15
M  V30 15 2 15 16
M  V30 16 1 15 17
M  V30 17 1 17 18
M  V30 18 1 18 19
M  V30 19 2 19 20
M  V30 20 1 19 21
M  V30 21 1 21 22
M  V30 22 1 22 23
M  V30 23 2 23 24
M  V30 24 1 23 25
M  V30 25 1 25 26
M  V30 26 1 26 27
M  V30 27 2 27 28
M  V30 28 1 28 29
M  V30 29 2 29 30
M  V30 30 1 30 31
M  V30 31 2 31 32
M  V30 32 1 30 33
M  V30 33 1 25 34
M  V30 34 1 34 35
M  V30 35 2 35 36
M  V30 36 1 35 37
M  V30 37 1 37 38
M  V30 38 1 38 39
M  V30 39 1 37 40
M  V30 40 1 21 41
M  V30 41 1 41 42
M  V30 42 1 42 43
M  V30 43 1 42 44
M  V30 44 1 17 45
M  V30 45 1 45 46
M  V30 46 1 46 47
M  V30 47 1 46 48
M  V30 48 1 13 49
M  V30 49 1 49 50
M  V30 50 1 50 51
M  V30 51 1 51 52
M  V30 52 1 52 53
M  V30 53 2 53 54 CFG=2
M  V30 54 1 53 55
M  V30 55 1 10 6
M  V30 56 1 32 27
M  V30 57 1 1 56
M  V30 58 1 1 57
M  V30 59 1 1 58
M  V30 60 1 2 59
M  V30 61 1 2 60
M  V30 62 1 3 61
M  V30 63 1 6 62
M  V30 64 1 7 63
M  V30 65 1 7 64
M  V30 66 1 8 65
M  V30 67 1 8 66
M  V30 68 1 9 67
M  V30 69 1 9 68
M  V30 70 1 13 69
M  V30 71 1 14 70
M  V30 72 1 17 71
M  V30 73 1 18 72
M  V30 74 1 21 73
M  V30 75 1 22 74
M  V30 76 1 25 75
M  V30 77 1 26 76
M  V30 78 1 26 77
M  V30 79 1 28 78
M  V30 80 1 29 79
M  V30 81 1 31 80
M  V30 82 1 32 81
M  V30 83 1 33 82
M  V30 84 1 34 83
M  V30 85 1 37 84
M  V30 86 1 38 85
M  V30 87 1 38 86
M  V30 88 1 39 87
M  V30 89 1 40 88
M  V30 90 1 40 89
M  V30 91 1 41 90
M  V30 92 1 41 91
M  V30 93 1 42 92
M  V30 94 1 43 93
M  V30 95 1 43 94
M  V30 96 1 43 95
M  V30 97 1 44 96
M  V30 98 1 44 97
M  V30 99 1 44 98
M  V30 100 1 45 99
M  V30 101 1 45 100
M  V30 102 1 46 101
M  V30 103 1 47 102
M  V30 104 1 47 103
M  V30 105 1 47 104
M  V30 106 1 48 105
M  V30 107 1 48 106
M  V30 108 1 48 107
M  V30 109 1 49 108
M  V30 110 1 49 109
M  V30 111 1 50 110
M  V30 112 1 50 111
M  V30 113 1 51 112
M  V30 114 1 51 113
M  V30 115 1 52 114
M  V30 116 1 54 115
M  V30 117 1 55 116
M  V30 118 1 55 117
M  V30 END BOND
M  V30 END CTAB
M  END
