
     RDKit          3D

  0  0  0  0  0  0  0  0  0  0999 V3000
M  V30 BEGIN CTAB
M  V30 COUNTS 36 37 0 0 0
M  V30 BEGIN ATOM
M  V30 1 N -1.91629 -3.27643 -0.212877 0
M  V30 2 N -0.572522 -2.90228 -0.270077 0
M  V30 3 C -0.186953 -1.78824 -0.766436 0
M  V30 4 N -1.19112 -0.903712 -1.2787 0
M  V30 5 C -1.98636 -0.0976587 -0.435078 0
M  V30 6 C -1.80843 -0.147801 0.917706 0
M  V30 7 C -2.57479 0.630301 1.74642 0
M  V30 8 C -3.55299 1.49222 1.24987 0
M  V30 9 C -3.72857 1.53937 -0.112623 0
M  V30 10 C -2.94601 0.74588 -0.946217 0
M  V30 11 C 1.21056 -1.43759 -0.807594 0
M  V30 12 N 1.60727 -0.175992 -1.3733 0
M  V30 13 C 2.13728 0.864242 -0.591944 0
M  V30 14 C 2.29625 0.698665 0.78029 0
M  V30 15 C 2.8189 1.73895 1.51635 0
M  V30 16 C 3.17603 2.91831 0.903125 0
M  V30 17 C 3.02863 3.11473 -0.471383 0
M  V30 18 C 2.50299 2.0548 -1.17908 0
M  V30 19 N 2.09034 -2.23662 -0.347318 0
M  V30 20 N 1.84253 -3.46799 0.217403 0
M  V30 21 H -2.34285 -3.75601 0.617594 0
M  V30 22 H -2.56802 -3.08665 -1.02092 0
M  V30 23 H -1.35824 -0.836978 -2.3163 0
M  V30 24 H -1.0707 -0.793494 1.34357 0
M  V30 25 H -2.43537 0.592202 2.82056 0
M  V30 26 H -4.12649 2.08099 1.94684 0
M  V30 27 H -4.46995 2.18833 -0.539687 0
M  V30 28 H -3.11038 0.807259 -2.01765 0
M  V30 29 H 1.48696 -0.0555565 -2.4 0
M  V30 30 H 2.02064 -0.225816 1.28764 0
M  V30 31 H 2.94173 1.60928 2.58077 0
M  V30 32 H 3.59019 3.75509 1.45679 0
M  V30 33 H 3.31948 4.05464 -0.921853 0
M  V30 34 H 2.38224 2.18998 -2.24383 0
M  V30 35 H 1.74669 -3.57272 1.24149 0
M  V30 36 H 1.7473 -4.31372 -0.373554 0
M  V30 END ATOM
M  V30 BEGIN BOND
M  V30 1 1 1 2
M  V30 2 2 2 3 CFG=2
M  V30 3 1 3 4
M  V30 4 1 4 5
M  V30 5 2 5 6
M  V30 6 1 6 7
M  V30 7 2 7 8
M  V30 8 1 8 9
M  V30 9 2 9 10
M  V30 10 1 3 11
M  V30 11 1 11 12
M  V30 12 1 12 13
M  V30 13 2 13 14
M  V30 14 1 14 15
M  V30 15 2 15 16
M  V30 16 1 16 17
M  V30 17 2 17 18
M  V30 18 2 11 19 CFG=2
M  V30 19 1 19 20
M  V30 20 1 10 5
M  V30 21 1 18 13
M  V30 22 1 1 21
M  V30 23 1 1 22
M  V30 24 1 4 23
M  V30 25 1 6 24
M  V30 26 1 7 25
M  V30 27 1 8 26
M  V30 28 1 9 27
M  V30 29 1 10 28
M  V30 30 1 12 29
M  V30 31 1 14 30
M  V30 32 1 15 31
M  V30 33 1 16 32
M  V30 34 1 17 33
M  V30 35 1 18 34
M  V30 36 1 20 35
M  V30 37 1 20 36
M  V30 END BOND
M  V30 END CTAB
M  END
