
     RDKit          3D

  0  0  0  0  0  0  0  0  0  0999 V3000
M  V30 BEGIN CTAB
M  V30 COUNTS 35 35 0 0 0
M  V30 BEGIN ATOM
M  V30 1 N -1.47901 -2.60427 -0.80106 0
M  V30 2 C -2.3449 -1.46251 -0.854031 0
M  V30 3 C -1.75678 -0.315394 -1.67764 0
M  V30 4 C -0.456287 0.153058 -1.11986 0
M  V30 5 N -0.555121 0.633854 0.272476 0
M  V30 6 C -1.36037 1.84456 0.277963 0
M  V30 7 C -1.79887 2.37045 1.58877 0
M  V30 8 N -0.83832 2.77225 2.54328 0
M  V30 9 C 0.823853 0.983121 0.643139 0
M  V30 10 C 1.78022 -0.129451 0.405585 0
M  V30 11 C 2.63947 -0.10778 -0.681113 0
M  V30 12 C 3.53087 -1.13307 -0.919361 0
M  V30 13 C 3.59403 -2.22013 -0.0748961 0
M  V30 14 C 2.72162 -2.21191 1.00345 0
M  V30 15 N 1.86763 -1.19985 1.20537 0
M  V30 16 H -1.13795 -2.89528 -1.74608 0
M  V30 17 H -1.90632 -3.37752 -0.268554 0
M  V30 18 H -3.3031 -1.7671 -1.36481 0
M  V30 19 H -2.59283 -1.12686 0.156238 0
M  V30 20 H -2.49128 0.448521 -1.92798 0
M  V30 21 H -1.51418 -0.811064 -2.67511 0
M  V30 22 H 0.176759 -0.781586 -1.03007 0
M  V30 23 H 0.0550152 0.837734 -1.78651 0
M  V30 24 H -0.706402 2.6134 -0.246346 0
M  V30 25 H -2.19969 1.70677 -0.427174 0
M  V30 26 H -2.50469 3.24148 1.35961 0
M  V30 27 H -2.48881 1.6464 2.11216 0
M  V30 28 H -1.0996 2.54098 3.51177 0
M  V30 29 H -0.35308 3.67037 2.39571 0
M  V30 30 H 1.06776 1.90748 0.0956253 0
M  V30 31 H 0.793611 1.2329 1.72242 0
M  V30 32 H 2.56525 0.768451 -1.34192 0
M  V30 33 H 4.19497 -1.10085 -1.77936 0
M  V30 34 H 4.29021 -3.05771 -0.226785 0
M  V30 35 H 2.78632 -3.06944 1.65511 0
M  V30 END ATOM
M  V30 BEGIN BOND
M  V30 1 1 1 2
M  V30 2 1 2 3
M  V30 3 1 3 4
M  V30 4 1 4 5
M  V30 5 1 5 6
M  V30 6 1 6 7
M  V30 7 1 7 8
M  V30 8 1 5 9
M  V30 9 1 9 10
M  V30 10 2 10 11
M  V30 11 1 11 12
M  V30 12 2 12 13
M  V30 13 1 13 14
M  V30 14 2 14 15
M  V30 15 1 15 10
M  V30 16 1 1 16
M  V30 17 1 1 17
M  V30 18 1 2 18
M  V30 19 1 2 19
M  V30 20 1 3 20
M  V30 21 1 3 21
M  V30 22 1 4 22
M  V30 23 1 4 23
M  V30 24 1 6 24
M  V30 25 1 6 25
M  V30 26 1 7 26
M  V30 27 1 7 27
M  V30 28 1 8 28
M  V30 29 1 8 29
M  V30 30 1 9 30
M  V30 31 1 9 31
M  V30 32 1 11 32
M  V30 33 1 12 33
M  V30 34 1 13 34
M  V30 35 1 14 35
M  V30 END BOND
M  V30 END CTAB
M  END
