
     RDKit          3D

  0  0  0  0  0  0  0  0  0  0999 V3000
M  V30 BEGIN CTAB
M  V30 COUNTS 110 118 0 0 0
M  V30 BEGIN ATOM
M  V30 1 C -13.6975 2.83405 1.82357 0
M  V30 2 O -12.6703 1.91073 1.75191 0
M  V30 3 C -11.6047 2.03637 0.843465 0
M  V30 4 C -11.5305 3.07628 -0.0763552 0
M  V30 5 C -10.4208 3.16683 -0.954641 0
M  V30 6 C -9.4817 2.19901 -0.836918 0
M  V30 7 N -8.34072 2.46454 -1.70552 0
M  V30 8 C -8.53497 3.01761 -2.89075 0
M  V30 9 C -9.78907 3.24448 -3.63459 0
M  V30 10 N -7.23782 3.23678 -3.32886 0
M  V30 11 N -6.35423 2.7935 -2.40977 0
M  V30 12 C -7.04554 2.28652 -1.36762 0
M  V30 13 C -6.50467 1.61126 -0.135096 0 CFG=2
M  V30 14 C -5.09911 1.17052 -0.399935 0
M  V30 15 C -4.04434 2.12983 -0.727167 0
M  V30 16 O -4.1316 3.33406 -0.466246 0
M  V30 17 N -2.82378 1.50883 -1.41328 0
M  V30 18 C -1.87283 1.04689 -1.94309 0
M  V30 19 C -0.452561 1.16859 -1.28666 0
M  V30 20 C 0.623789 1.05364 -2.24552 0
M  V30 21 C 1.04893 -0.0443787 -3.07829 0
M  V30 22 C 1.49053 -1.31383 -2.41914 0
M  V30 23 N 2.49498 -0.901056 -1.39615 0
M  V30 24 C 3.11696 -1.92961 -0.666135 0
M  V30 25 O 2.88958 -3.1064 -1.03077 0
M  V30 26 C 3.97372 -1.60171 0.500441 0
M  V30 27 C 3.27507 -1.38287 1.67354 0
M  V30 28 C 3.9235 -1.01367 2.81574 0
M  V30 29 C 5.33127 -0.889513 2.74049 0
M  V30 30 C 6.29452 -0.589391 3.7702 0
M  V30 31 O 5.97382 -0.314764 4.96019 0
M  V30 32 O 7.57596 -0.6514 3.2419 0
M  V30 33 C 7.47966 -0.937232 1.82051 0
M  V30 34 C 6.02898 -1.11608 1.59086 0
M  V30 35 C 5.33893 -1.47493 0.439578 0
M  V30 36 C 8.20898 -2.18975 1.4979 0
M  V30 37 C 7.62902 -3.34387 2.0239 0
M  V30 38 C 8.21521 -4.54056 1.76245 0
M  V30 39 C 9.32543 -4.58846 1.0133 0
M  V30 40 N 9.79559 -5.88717 0.684721 0
M  V30 41 C 9.9393 -3.42888 0.463378 0
M  V30 42 C 9.334 -2.19888 0.734897 0
M  V30 43 O 9.90607 -1.00811 0.216007 0
M  V30 44 C 9.246 0.186145 0.491236 0
M  V30 45 C 8.07365 0.236517 1.18983 0
M  V30 46 C 7.43175 1.43859 1.42496 0
M  V30 47 C 7.93928 2.6248 0.982626 0
M  V30 48 C 9.14512 2.59841 0.277242 0
M  V30 49 N 9.67207 3.8776 -0.063898 0
M  V30 50 C 9.80305 1.40329 0.0298527 0
M  V30 51 S 11.4034 1.57147 -0.612667 0
M  V30 52 O 12.3852 2.064 0.711313 0
M  V30 53 O 11.4626 2.7934 -1.57924 0
M  V30 54 O 11.9834 0.405784 -1.24923 0
M  V30 55 S 11.3362 -3.65746 -0.502525 0
M  V30 56 O 10.8949 -3.88104 -2.13893 0
M  V30 57 O 12.0623 -4.94947 -0.0786398 0
M  V30 58 O 12.309 -2.55444 -0.440931 0
M  V30 59 N -7.24834 0.434388 0.266839 0
M  V30 60 C -8.52809 0.141421 0.30018 0
M  V30 61 C -8.88825 -1.16761 0.759472 0
M  V30 62 C -10.0667 -1.79246 0.660975 0
M  V30 63 C -10.299 -3.06553 1.19679 0
M  V30 64 C -9.32301 -3.73328 1.85524 0
M  V30 65 Cl -9.61386 -5.36308 2.49943 0
M  V30 66 C -8.04855 -3.11895 1.99207 0
M  V30 67 C -7.86091 -1.87954 1.45345 0
M  V30 68 C -9.54167 1.14385 0.0671486 0
M  V30 69 C -10.6234 1.08135 0.909557 0
M  V30 70 H -14.4195 2.79364 1.02155 0
M  V30 71 H -13.2794 3.88896 1.89491 0
M  V30 72 H -14.2229 2.67884 2.80293 0
M  V30 73 H -12.2863 3.81264 -0.179298 0
M  V30 74 H -10.3147 3.99836 -1.5714 0
M  V30 75 H -10.5801 2.49869 -3.4008 0
M  V30 76 H -10.1132 4.26511 -3.81936 0
M  V30 77 H -9.52628 2.8856 -4.69787 0
M  V30 78 H -6.54133 2.37767 0.669761 0
M  V30 79 H -4.7677 0.778868 0.651491 0
M  V30 80 H -5.0692 0.296773 -1.0546 0
M  V30 81 H -2.26082 2.7777 -1.28933 0
M  V30 82 H -1.90364 -0.223009 -1.84554 0
M  V30 83 H -1.74473 0.962878 -3.08613 0
M  V30 84 H -0.492569 2.20609 -0.842976 0
M  V30 85 H -0.400042 0.464427 -0.404578 0
M  V30 86 H 0.359069 1.91629 -3.04687 0
M  V30 87 H 1.54323 1.58087 -1.77177 0
M  V30 88 H 0.305957 -0.300042 -3.85802 0
M  V30 89 H 2.00715 0.321858 -3.60357 0
M  V30 90 H 2.05781 -1.92677 -3.13865 0
M  V30 91 H 0.654785 -1.80249 -1.91591 0
M  V30 92 H 2.68492 0.0720069 -1.35048 0
M  V30 93 H 2.1907 -1.57714 1.68311 0
M  V30 94 H 3.39721 -0.831132 3.72149 0
M  V30 95 H 5.85696 -1.64756 -0.46083 0
M  V30 96 H 6.77034 -3.29885 2.67604 0
M  V30 97 H 7.74545 -5.4388 2.1769 0
M  V30 98 H 9.11514 -6.38772 -0.0332486 0
M  V30 99 H 10.6038 -6.39083 1.00315 0
M  V30 100 H 6.50138 1.37853 1.95539 0
M  V30 101 H 7.44529 3.55858 1.14607 0
M  V30 102 H 9.61829 4.32156 -0.982703 0
M  V30 103 H 10.1778 4.43214 0.726176 0
M  V30 104 H 11.835 2.2794 1.48526 0
M  V30 105 H 11.4204 -4.67319 -2.50743 0
M  V30 106 H -10.888 -1.35978 0.13079 0
M  V30 107 H -11.2913 -3.54102 1.07704 0
M  V30 108 H -7.33367 -3.69814 2.54353 0
M  V30 109 H -6.90298 -1.41024 1.59351 0
M  V30 110 H -10.6351 0.283216 1.65322 0
M  V30 END ATOM
M  V30 BEGIN BOND
M  V30 1 1 1 2
M  V30 2 1 2 3
M  V30 3 2 3 4
M  V30 4 1 4 5
M  V30 5 2 5 6
M  V30 6 1 6 7
M  V30 7 1 7 8
M  V30 8 1 8 9
M  V30 9 2 8 10
M  V30 10 1 10 11
M  V30 11 2 11 12
M  V30 12 1 12 13
M  V30 13 1 13 14
M  V30 14 1 14 15
M  V30 15 2 15 16
M  V30 16 1 15 17
M  V30 17 1 17 18
M  V30 18 1 18 19
M  V30 19 1 19 20
M  V30 20 1 20 21
M  V30 21 1 21 22
M  V30 22 1 22 23
M  V30 23 1 23 24
M  V30 24 2 24 25
M  V30 25 1 24 26
M  V30 26 2 26 27
M  V30 27 1 27 28
M  V30 28 2 28 29
M  V30 29 1 29 30
M  V30 30 2 30 31
M  V30 31 1 30 32
M  V30 32 1 32 33
M  V30 33 1 33 34
M  V30 34 2 34 35
M  V30 35 1 33 36
M  V30 36 2 36 37
M  V30 37 1 37 38
M  V30 38 2 38 39
M  V30 39 1 39 40
M  V30 40 1 39 41
M  V30 41 2 41 42
M  V30 42 1 42 43
M  V30 43 1 43 44
M  V30 44 2 44 45
M  V30 45 1 45 46
M  V30 46 2 46 47
M  V30 47 1 47 48
M  V30 48 1 48 49
M  V30 49 2 48 50
M  V30 50 1 50 51
M  V30 51 1 51 52
M  V30 52 2 51 53
M  V30 53 2 51 54
M  V30 54 1 41 55
M  V30 55 1 55 56
M  V30 56 2 55 57
M  V30 57 2 55 58
M  V30 58 1 13 59
M  V30 59 2 59 60
M  V30 60 1 60 61
M  V30 61 2 61 62
M  V30 62 1 62 63
M  V30 63 2 63 64
M  V30 64 1 64 65
M  V30 65 1 64 66
M  V30 66 2 66 67
M  V30 67 1 60 68
M  V30 68 2 68 69
M  V30 69 1 69 3
M  V30 70 1 68 6
M  V30 71 1 12 7
M  V30 72 1 35 26
M  V30 73 1 42 36
M  V30 74 1 50 44
M  V30 75 1 67 61
M  V30 76 1 34 29
M  V30 77 1 45 33
M  V30 78 1 1 70
M  V30 79 1 1 71
M  V30 80 1 1 72
M  V30 81 1 4 73
M  V30 82 1 5 74
M  V30 83 1 9 75
M  V30 84 1 9 76
M  V30 85 1 9 77
M  V30 86 1 13 78 CFG=1
M  V30 87 1 14 79
M  V30 88 1 14 80
M  V30 89 1 17 81
M  V30 90 1 18 82
M  V30 91 1 18 83
M  V30 92 1 19 84
M  V30 93 1 19 85
M  V30 94 1 20 86
M  V30 95 1 20 87
M  V30 96 1 21 88
M  V30 97 1 21 89
M  V30 98 1 22 90
M  V30 99 1 22 91
M  V30 100 1 23 92
M  V30 101 1 27 93
M  V30 102 1 28 94
M  V30 103 1 35 95
M  V30 104 1 37 96
M  V30 105 1 38 97
M  V30 106 1 40 98
M  V30 107 1 40 99
M  V30 108 1 46 100
M  V30 109 1 47 101
M  V30 110 1 49 102
M  V30 111 1 49 103
M  V30 112 1 52 104
M  V30 113 1 56 105
M  V30 114 1 62 106
M  V30 115 1 63 107
M  V30 116 1 66 108
M  V30 117 1 67 109
M  V30 118 1 69 110
M  V30 END BOND
M  V30 END CTAB
M  END
