
     RDKit          3D

  0  0  0  0  0  0  0  0  0  0999 V3000
M  V30 BEGIN CTAB
M  V30 COUNTS 54 56 0 0 0
M  V30 BEGIN ATOM
M  V30 1 N 4.37622 2.59301 -1.28046 0
M  V30 2 C 3.88358 3.19306 -0.0560059 0
M  V30 3 C 2.43802 3.58792 -0.151302 0
M  V30 4 N 1.54044 2.51563 -0.429813 0
M  V30 5 C 1.41635 1.41861 0.43631 0
M  V30 6 O 2.07756 1.3369 1.47546 0
M  V30 7 C 0.442129 0.29522 0.0929473 0
M  V30 8 C -0.883151 0.939538 0.0989496 0
M  V30 9 C -2.08634 0.17177 -0.174004 0
M  V30 10 C -2.32978 -0.235475 -1.49553 0
M  V30 11 C -1.49485 0.110644 -2.54427 0
M  V30 12 C -1.79871 -0.305158 -3.84474 0
M  V30 13 C -2.92753 -1.05753 -4.08807 0
M  V30 14 C -3.75304 -1.39518 -3.04453 0
M  V30 15 C -3.46102 -0.985465 -1.74007 0
M  V30 16 C -4.34088 -1.33177 -0.723305 0
M  V30 17 C -4.0806 -0.916296 0.559061 0
M  V30 18 C -5.01527 -1.26441 1.5378 0
M  V30 19 C -4.84871 -0.863348 2.83866 0
M  V30 20 C -3.71778 -0.101883 3.13542 0
M  V30 21 C -2.80263 0.234794 2.16487 0
M  V30 22 C -2.95799 -0.164581 0.845641 0
M  V30 23 C 0.769278 -0.79389 0.981794 0
M  V30 24 O 0.094506 -1.46686 1.76835 0
M  V30 25 N 2.17412 -1.19649 0.959675 0
M  V30 26 C 2.66026 -2.27073 1.79003 0
M  V30 27 C 4.12577 -2.45229 1.5543 0
M  V30 28 N 4.41985 -2.77423 0.194126 0
M  V30 29 H 5.40944 2.68721 -1.37871 0
M  V30 30 H 3.86586 3.02694 -2.07194 0
M  V30 31 H 4.05327 2.59274 0.842441 0
M  V30 32 H 4.45684 4.1508 0.123091 0
M  V30 33 H 2.18755 4.07395 0.823631 0
M  V30 34 H 2.33879 4.39535 -0.920918 0
M  V30 35 H 0.959785 2.55473 -1.31035 0
M  V30 36 H 0.826 -0.0101341 -0.92695 0
M  V30 37 H -0.920154 1.51996 1.06172 0
M  V30 38 H -0.809273 1.78707 -0.667503 0
M  V30 39 H -0.623443 0.726133 -2.37681 0
M  V30 40 H -1.12054 -0.0122551 -4.62085 0
M  V30 41 H -3.13293 -1.36302 -5.10092 0
M  V30 42 H -4.63775 -1.97945 -3.20788 0
M  V30 43 H -5.21544 -1.92102 -0.951623 0
M  V30 44 H -5.89278 -1.85737 1.29837 0
M  V30 45 H -5.56772 -1.12893 3.60121 0
M  V30 46 H -3.60987 0.202447 4.1674 0
M  V30 47 H -1.95023 0.817126 2.45466 0
M  V30 48 H 2.84234 -0.71486 0.345303 0
M  V30 49 H 2.42208 -2.12401 2.86079 0
M  V30 50 H 2.13253 -3.19396 1.45075 0
M  V30 51 H 4.51771 -3.25874 2.21967 0
M  V30 52 H 4.71945 -1.54268 1.83128 0
M  V30 53 H 5.20582 -3.41012 0.0388349 0
M  V30 54 H 3.62289 -2.83942 -0.445972 0
M  V30 END ATOM
M  V30 BEGIN BOND
M  V30 1 1 1 2
M  V30 2 1 2 3
M  V30 3 1 3 4
M  V30 4 1 4 5
M  V30 5 2 5 6
M  V30 6 1 5 7
M  V30 7 1 7 8
M  V30 8 1 8 9
M  V30 9 2 9 10
M  V30 10 1 10 11
M  V30 11 2 11 12
M  V30 12 1 12 13
M  V30 13 2 13 14
M  V30 14 1 14 15
M  V30 15 2 15 16
M  V30 16 1 16 17
M  V30 17 2 17 18
M  V30 18 1 18 19
M  V30 19 2 19 20
M  V30 20 1 20 21
M  V30 21 2 21 22
M  V30 22 1 7 23
M  V30 23 2 23 24
M  V30 24 1 23 25
M  V30 25 1 25 26
M  V30 26 1 26 27
M  V30 27 1 27 28
M  V30 28 1 22 9
M  V30 29 1 15 10
M  V30 30 1 22 17
M  V30 31 1 1 29
M  V30 32 1 1 30
M  V30 33 1 2 31
M  V30 34 1 2 32
M  V30 35 1 3 33
M  V30 36 1 3 34
M  V30 37 1 4 35
M  V30 38 1 7 36
M  V30 39 1 8 37
M  V30 40 1 8 38
M  V30 41 1 11 39
M  V30 42 1 12 40
M  V30 43 1 13 41
M  V30 44 1 14 42
M  V30 45 1 16 43
M  V30 46 1 18 44
M  V30 47 1 19 45
M  V30 48 1 20 46
M  V30 49 1 21 47
M  V30 50 1 25 48
M  V30 51 1 26 49
M  V30 52 1 26 50
M  V30 53 1 27 51
M  V30 54 1 27 52
M  V30 55 1 28 53
M  V30 56 1 28 54
M  V30 END BOND
M  V30 END CTAB
M  END
