
     RDKit          3D

  0  0  0  0  0  0  0  0  0  0999 V3000
M  V30 BEGIN CTAB
M  V30 COUNTS 34 36 0 0 0
M  V30 BEGIN ATOM
M  V30 1 N 2.7365 3.02999 -1.42593 0
M  V30 2 C 2.74696 1.70697 -0.908084 0
M  V30 3 N 1.62248 0.986475 -0.751853 0
M  V30 4 C 1.60412 -0.262898 -0.265956 0
M  V30 5 C 2.81807 -0.818725 0.0862324 0
M  V30 6 N 2.53961 -2.04502 0.534141 0
M  V30 7 C 1.21099 -2.23965 0.462263 0
M  V30 8 N 0.595183 -1.15318 -0.0305722 0
M  V30 9 C -0.788827 -0.920414 -0.275434 0 CFG=2
M  V30 10 O -1.14454 0.404513 -0.285805 0
M  V30 11 C -2.54362 0.327739 -0.394874 0 CFG=2
M  V30 12 C -3.20086 1.60308 0.0618484 0
M  V30 13 O -4.57367 1.44357 -0.0777682 0
M  V30 14 C -2.96361 -0.790355 0.543574 0 CFG=1
M  V30 15 O -3.76955 -1.67469 -0.176361 0
M  V30 16 C -1.64097 -1.44374 0.886967 0 CFG=2
M  V30 17 O -1.14683 -0.874359 2.0709 0
M  V30 18 C 4.00759 -0.126756 -0.0516171 0
M  V30 19 N 5.25053 -0.713674 0.315938 0
M  V30 20 N 3.92379 1.1159 -0.546259 0
M  V30 21 H 2.77062 3.16705 -2.44439 0
M  V30 22 H 2.6954 3.84048 -0.792907 0
M  V30 23 H 0.730272 -3.14512 0.762353 0
M  V30 24 H -1.17969 -1.42729 -1.17895 0
M  V30 25 H -2.772 0.107484 -1.45023 0
M  V30 26 H -2.99657 1.70122 1.15119 0
M  V30 27 H -2.81516 2.48973 -0.474936 0
M  V30 28 H -5.0801 2.13186 0.459077 0
M  V30 29 H -3.47876 -0.398161 1.44218 0
M  V30 30 H -3.56193 -1.66106 -1.14599 0
M  V30 31 H -1.68527 -2.52838 0.920761 0
M  V30 32 H -1.39376 0.103082 2.00405 0
M  V30 33 H 5.55362 -1.65557 -0.0738417 0
M  V30 34 H 5.92999 -0.280065 0.969701 0
M  V30 END ATOM
M  V30 BEGIN BOND
M  V30 1 1 1 2
M  V30 2 2 2 3
M  V30 3 1 3 4
M  V30 4 2 4 5
M  V30 5 1 5 6
M  V30 6 2 6 7
M  V30 7 1 7 8
M  V30 8 1 8 9
M  V30 9 1 9 10
M  V30 10 1 10 11
M  V30 11 1 11 12
M  V30 12 1 12 13
M  V30 13 1 11 14
M  V30 14 1 14 15
M  V30 15 1 14 16
M  V30 16 1 16 17
M  V30 17 1 5 18
M  V30 18 1 18 19
M  V30 19 2 18 20
M  V30 20 1 20 2
M  V30 21 1 8 4
M  V30 22 1 16 9
M  V30 23 1 1 21
M  V30 24 1 1 22
M  V30 25 1 7 23
M  V30 26 1 9 24 CFG=3
M  V30 27 1 11 25 CFG=3
M  V30 28 1 12 26
M  V30 29 1 12 27
M  V30 30 1 13 28
M  V30 31 1 14 29 CFG=1
M  V30 32 1 15 30
M  V30 33 1 16 31 CFG=1
M  V30 34 1 17 32
M  V30 35 1 19 33
M  V30 36 1 19 34
M  V30 END BOND
M  V30 END CTAB
M  END
