
     RDKit          3D

  0  0  0  0  0  0  0  0  0  0999 V3000
M  V30 BEGIN CTAB
M  V30 COUNTS 20 20 0 0 0
M  V30 BEGIN ATOM
M  V30 1 N -1.11093 1.63818 0.660169 0
M  V30 2 C -1.60732 0.276445 0.627903 0
M  V30 3 C -1.25403 -0.45102 -0.610714 0
M  V30 4 C 0.120736 -0.722359 -1.08651 0
M  V30 5 C -0.609174 -1.8129 -0.44953 0
M  V30 6 F -0.352947 -2.27123 0.823271 0
M  V30 7 F -1.09582 -2.84761 -1.27089 0
M  V30 8 C 1.30398 -0.0527882 -0.551853 0
M  V30 9 O 2.16194 0.483372 -1.33658 0
M  V30 10 N 1.54667 0.0266996 0.824081 0
M  V30 11 N 2.72599 0.700275 1.24436 0
M  V30 12 H -1.00177 2.00667 -0.297618 0
M  V30 13 H -1.77018 2.25432 1.18302 0
M  V30 14 H -2.73735 0.381158 0.675296 0
M  V30 15 H -1.37379 -0.290202 1.55875 0
M  V30 16 H -2.08992 -0.444458 -1.37449 0
M  V30 17 H 0.15747 -0.768183 -2.23322 0
M  V30 18 H 0.96768 -0.355389 1.58999 0
M  V30 19 H 3.45431 0.549401 0.527254 0
M  V30 20 H 2.56445 1.69961 1.4089 0
M  V30 END ATOM
M  V30 BEGIN BOND
M  V30 1 1 1 2
M  V30 2 1 2 3
M  V30 3 1 3 4
M  V30 4 1 4 5
M  V30 5 1 5 6
M  V30 6 1 5 7
M  V30 7 1 4 8
M  V30 8 2 8 9
M  V30 9 1 8 10
M  V30 10 1 10 11
M  V30 11 1 5 3
M  V30 12 1 1 12
M  V30 13 1 1 13
M  V30 14 1 2 14
M  V30 15 1 2 15
M  V30 16 1 3 16
M  V30 17 1 4 17
M  V30 18 1 10 18
M  V30 19 1 11 19
M  V30 20 1 11 20
M  V30 END BOND
M  V30 END CTAB
M  END
