
     RDKit          3D

  0  0  0  0  0  0  0  0  0  0999 V3000
M  V30 BEGIN CTAB
M  V30 COUNTS 63 66 0 0 0
M  V30 BEGIN ATOM
M  V30 1 C -3.66389 -0.699179 -0.329001 0 CFG=2
M  V30 2 C -4.34627 0.64251 -0.137261 0
M  V30 3 N -5.77035 0.48258 -0.0966671 0
M  V30 4 C -6.44219 -0.298632 0.854442 0
M  V30 5 O -5.82088 -0.906915 1.74278 0
M  V30 6 C -7.89366 -0.411695 0.796679 0
M  V30 7 C -8.722 0.67281 0.898696 0
M  V30 8 C -10.0966 0.485171 0.697719 0
M  V30 9 C -10.6629 -0.726832 0.406305 0
M  V30 10 C -9.8109 -1.80213 0.312037 0
M  V30 11 C -8.4665 -1.64992 0.501634 0
M  V30 12 C -8.26722 1.9903 1.27739 0
M  V30 13 O -7.00777 2.34948 1.61847 0
M  V30 14 O -9.13579 2.93453 1.30274 0
M  V30 15 N -2.22628 -0.431006 -0.395044 0
M  V30 16 C -1.35969 -0.922909 0.617464 0
M  V30 17 O -1.81434 -1.56902 1.56299 0
M  V30 18 C 0.0636219 -0.640872 0.492525 0
M  V30 19 C 0.954128 -1.68556 0.215835 0
M  V30 20 C 2.29975 -1.46816 0.0652239 0
M  V30 21 C 2.86244 -0.19539 0.179267 0
M  V30 22 N 4.24924 -0.0358372 -0.0255447 0
M  V30 23 C 5.01534 1.15498 0.169463 0
M  V30 24 C 6.38439 0.93946 -0.354181 0
M  V30 25 N 7.35937 0.368632 0.362441 0
M  V30 26 C 8.59971 0.170605 -0.160968 0
M  V30 27 C 9.60078 -0.415648 0.540871 0
M  V30 28 N 9.33 -0.825489 1.88008 0
M  V30 29 N 10.8189 -0.60122 -0.0309105 0
M  V30 30 C 11.0855 -0.222838 -1.28852 0
M  V30 31 N 12.3723 -0.434173 -1.86802 0
M  V30 32 N 10.0855 0.361279 -1.98357 0
M  V30 33 C 8.85407 0.570678 -1.46479 0
M  V30 34 N 7.86206 1.14485 -2.17308 0
M  V30 35 C 6.63131 1.33788 -1.64544 0
M  V30 36 C 1.98936 0.83375 0.454017 0
M  V30 37 C 0.615261 0.613849 0.607594 0
M  V30 38 C -4.11022 -1.33138 -1.58302 0
M  V30 39 O -5.43031 -1.70072 -1.72032 0
M  V30 40 O -3.25332 -1.51489 -2.50088 0
M  V30 41 H -3.81495 -1.36745 0.517782 0
M  V30 42 H -4.01821 1.37763 -0.895894 0
M  V30 43 H -3.98975 1.02942 0.858272 0
M  V30 44 H -6.36807 0.973616 -0.831841 0
M  V30 45 H -10.7664 1.32817 0.771746 0
M  V30 46 H -11.7387 -0.852836 0.250646 0
M  V30 47 H -10.2896 -2.76298 0.0761075 0
M  V30 48 H -7.78789 -2.5037 0.429324 0
M  V30 49 H -6.49798 2.23958 2.45644 0
M  V30 50 H -1.83628 0.138394 -1.21047 0
M  V30 51 H 0.492553 -2.68336 0.130219 0
M  V30 52 H 2.96309 -2.3104 -0.154052 0
M  V30 53 H 4.7874 -0.890944 -0.366266 0
M  V30 54 H 5.16006 1.37303 1.27504 0
M  V30 55 H 4.55828 2.07024 -0.252364 0
M  V30 56 H 9.74939 -1.69733 2.26399 0
M  V30 57 H 8.71407 -0.267105 2.50336 0
M  V30 58 H 13.234 -0.237765 -1.32648 0
M  V30 59 H 12.4906 -0.792566 -2.8617 0
M  V30 60 H 5.89426 1.80237 -2.28084 0
M  V30 61 H 2.3978 1.83209 0.549062 0
M  V30 62 H -0.0578094 1.45316 0.825205 0
M  V30 63 H -6.0078 -1.576 -2.52674 0
M  V30 END ATOM
M  V30 BEGIN BOND
M  V30 1 1 1 2
M  V30 2 1 2 3
M  V30 3 1 3 4
M  V30 4 2 4 5
M  V30 5 1 4 6
M  V30 6 2 6 7
M  V30 7 1 7 8
M  V30 8 2 8 9
M  V30 9 1 9 10
M  V30 10 2 10 11
M  V30 11 1 7 12
M  V30 12 1 12 13
M  V30 13 2 12 14
M  V30 14 1 1 15
M  V30 15 1 15 16
M  V30 16 2 16 17
M  V30 17 1 16 18
M  V30 18 2 18 19
M  V30 19 1 19 20
M  V30 20 2 20 21
M  V30 21 1 21 22
M  V30 22 1 22 23
M  V30 23 1 23 24
M  V30 24 2 24 25
M  V30 25 1 25 26
M  V30 26 2 26 27
M  V30 27 1 27 28
M  V30 28 1 27 29
M  V30 29 2 29 30
M  V30 30 1 30 31
M  V30 31 1 30 32
M  V30 32 2 32 33
M  V30 33 1 33 34
M  V30 34 2 34 35
M  V30 35 1 21 36
M  V30 36 2 36 37
M  V30 37 1 1 38
M  V30 38 1 38 39
M  V30 39 2 38 40
M  V30 40 1 11 6
M  V30 41 1 37 18
M  V30 42 1 35 24
M  V30 43 1 33 26
M  V30 44 1 1 41 CFG=1
M  V30 45 1 2 42
M  V30 46 1 2 43
M  V30 47 1 3 44
M  V30 48 1 8 45
M  V30 49 1 9 46
M  V30 50 1 10 47
M  V30 51 1 11 48
M  V30 52 1 13 49
M  V30 53 1 15 50
M  V30 54 1 19 51
M  V30 55 1 20 52
M  V30 56 1 22 53
M  V30 57 1 23 54
M  V30 58 1 23 55
M  V30 59 1 28 56
M  V30 60 1 28 57
M  V30 61 1 31 58
M  V30 62 1 31 59
M  V30 63 1 35 60
M  V30 64 1 36 61
M  V30 65 1 37 62
M  V30 66 1 39 63
M  V30 END BOND
M  V30 END CTAB
M  END
