
     RDKit          3D

  0  0  0  0  0  0  0  0  0  0999 V3000
M  V30 BEGIN CTAB
M  V30 COUNTS 43 45 0 0 0
M  V30 BEGIN ATOM
M  V30 1 N -2.50215 -2.46274 0.0232538 0
M  V30 2 C -3.67355 -1.68265 -0.110062 0
M  V30 3 C -4.81331 -2.10363 0.558836 0
M  V30 4 C -5.9841 -1.39322 0.475583 0
M  V30 5 C -6.01354 -0.259618 -0.278756 0
M  V30 6 C -4.86649 0.142498 -0.938215 0
M  V30 7 C -3.67956 -0.519579 -0.892854 0
M  V30 8 S -2.20165 -0.0605534 -1.68573 0
M  V30 9 C -0.993701 0.803259 -0.729446 0
M  V30 10 N -0.123211 0.0413545 0.0145062 0
M  V30 11 C 0.881719 0.538765 0.736455 0
M  V30 12 S 1.99071 -0.420403 1.7111 0
M  V30 13 C 3.41385 -1.05064 0.931655 0
M  V30 14 C 4.31706 -1.74481 1.75572 0
M  V30 15 C 5.47257 -2.29407 1.24837 0
M  V30 16 C 5.80118 -2.19183 -0.0848662 0
M  V30 17 C 4.93066 -1.51656 -0.91004 0
M  V30 18 C 3.76511 -0.965576 -0.387295 0
M  V30 19 N 2.86348 -0.277819 -1.25758 0
M  V30 20 C 1.03335 1.91467 0.717417 0
M  V30 21 C 0.18 2.71928 -0.0182564 0
M  V30 22 C -0.866574 2.15502 -0.7663 0
M  V30 23 C -1.77868 3.01567 -1.55082 0
M  V30 24 F -1.27023 4.33622 -1.43502 0
M  V30 25 F -1.83606 2.73418 -2.87089 0
M  V30 26 F -3.0327 3.15498 -0.938913 0
M  V30 27 C 2.09621 2.61296 1.48575 0
M  V30 28 F 1.88862 2.29163 2.81354 0
M  V30 29 F 3.36052 2.36526 1.06481 0
M  V30 30 F 1.92622 4.00182 1.42033 0
M  V30 31 H -2.09029 -2.89999 -0.822948 0
M  V30 32 H -2.09023 -2.57375 0.969321 0
M  V30 33 H -4.82427 -3.00651 1.1726 0
M  V30 34 H -6.88108 -1.6973 0.984667 0
M  V30 35 H -6.92566 0.320846 -0.362108 0
M  V30 36 H -4.91811 1.05744 -1.54709 0
M  V30 37 H 4.11468 -1.86011 2.81694 0
M  V30 38 H 6.17121 -2.8331 1.89666 0
M  V30 39 H 6.71655 -2.63187 -0.456097 0
M  V30 40 H 5.11917 -1.39329 -1.97453 0
M  V30 41 H 2.14853 -0.885386 -1.71036 0
M  V30 42 H 2.89405 0.72451 -1.4502 0
M  V30 43 H 0.279716 3.79462 -0.047962 0
M  V30 END ATOM
M  V30 BEGIN BOND
M  V30 1 1 1 2
M  V30 2 2 2 3
M  V30 3 1 3 4
M  V30 4 2 4 5
M  V30 5 1 5 6
M  V30 6 2 6 7
M  V30 7 1 7 8
M  V30 8 1 8 9
M  V30 9 2 9 10
M  V30 10 1 10 11
M  V30 11 1 11 12
M  V30 12 1 12 13
M  V30 13 2 13 14
M  V30 14 1 14 15
M  V30 15 2 15 16
M  V30 16 1 16 17
M  V30 17 2 17 18
M  V30 18 1 18 19
M  V30 19 2 11 20
M  V30 20 1 20 21
M  V30 21 2 21 22
M  V30 22 1 22 23
M  V30 23 1 23 24
M  V30 24 1 23 25
M  V30 25 1 23 26
M  V30 26 1 20 27
M  V30 27 1 27 28
M  V30 28 1 27 29
M  V30 29 1 27 30
M  V30 30 1 7 2
M  V30 31 1 22 9
M  V30 32 1 18 13
M  V30 33 1 1 31
M  V30 34 1 1 32
M  V30 35 1 3 33
M  V30 36 1 4 34
M  V30 37 1 5 35
M  V30 38 1 6 36
M  V30 39 1 14 37
M  V30 40 1 15 38
M  V30 41 1 16 39
M  V30 42 1 17 40
M  V30 43 1 19 41
M  V30 44 1 19 42
M  V30 45 1 21 43
M  V30 END BOND
M  V30 END CTAB
M  END
