
     RDKit          3D

  0  0  0  0  0  0  0  0  0  0999 V3000
M  V30 BEGIN CTAB
M  V30 COUNTS 47 48 0 0 0
M  V30 BEGIN ATOM
M  V30 1 N -4.67849 0.972708 1.34446 0
M  V30 2 C -5.23174 -0.242888 0.909192 0
M  V30 3 N -4.71346 -1.34994 1.2743 0
M  V30 4 O -3.61737 -1.33181 2.09122 0
M  V30 5 C -2.36604 -1.2083 1.51332 0
M  V30 6 O -2.30838 -1.11915 0.261493 0
M  V30 7 C -1.11219 -1.17763 2.30004 0
M  V30 8 F -0.98942 -2.34876 3.01566 0
M  V30 9 F -1.22239 -0.078436 3.16173 0
M  V30 10 C 0.0390072 -0.948104 1.38501 0
M  V30 11 F 0.0684738 -1.9958 0.466639 0
M  V30 12 F -0.162972 0.199034 0.662261 0
M  V30 13 C 1.36961 -0.906371 2.07397 0
M  V30 14 F 1.4624 0.0860778 3.01358 0
M  V30 15 F 1.67917 -2.11078 2.68178 0
M  V30 16 C 2.41647 -0.717838 1.00659 0
M  V30 17 O 2.10534 -0.625304 -0.208844 0
M  V30 18 O 3.76658 -0.640654 1.3419 0
M  V30 19 N 4.67382 -0.469996 0.340439 0
M  V30 20 C 5.37706 0.597037 0.220948 0
M  V30 21 N 5.2012 1.63522 1.16773 0
M  V30 22 C 6.33997 0.759186 -0.854983 0
M  V30 23 C 6.54443 -0.238464 -1.80785 0
M  V30 24 C 7.45504 -0.0949023 -2.83253 0
M  V30 25 C 8.20782 1.05249 -2.95764 0
M  V30 26 C 8.01864 2.04908 -2.02434 0
M  V30 27 C 7.10581 1.89753 -1.00252 0
M  V30 28 C -6.39667 -0.265866 0.0410936 0
M  V30 29 C -7.01767 0.889478 -0.400123 0
M  V30 30 C -8.11956 0.860502 -1.22109 0
M  V30 31 C -8.65448 -0.339594 -1.6414 0
M  V30 32 C -8.06013 -1.49404 -1.22002 0
M  V30 33 C -6.95882 -1.45353 -0.399256 0
M  V30 34 H -4.50027 1.11674 2.35634 0
M  V30 35 H -4.43981 1.737 0.687952 0
M  V30 36 H 5.10505 2.64278 0.91829 0
M  V30 37 H 5.16768 1.35738 2.17849 0
M  V30 38 H 5.94071 -1.13708 -1.69244 0
M  V30 39 H 7.60576 -0.873842 -3.56553 0
M  V30 40 H 8.93486 1.17492 -3.77038 0
M  V30 41 H 8.61824 2.94748 -2.13497 0
M  V30 42 H 6.965 2.68916 -0.272629 0
M  V30 43 H -6.59727 1.83657 -0.0697938 0
M  V30 44 H -8.55817 1.80593 -1.53026 0
M  V30 45 H -9.53311 -0.322818 -2.29538 0
M  V30 46 H -8.4576 -2.43855 -1.53327 0
M  V30 47 H -6.47216 -2.37585 -0.0537823 0
M  V30 END ATOM
M  V30 BEGIN BOND
M  V30 1 1 1 2
M  V30 2 2 2 3 CFG=2
M  V30 3 1 3 4
M  V30 4 1 4 5
M  V30 5 2 5 6
M  V30 6 1 5 7
M  V30 7 1 7 8
M  V30 8 1 7 9
M  V30 9 1 7 10
M  V30 10 1 10 11
M  V30 11 1 10 12
M  V30 12 1 10 13
M  V30 13 1 13 14
M  V30 14 1 13 15
M  V30 15 1 13 16
M  V30 16 2 16 17
M  V30 17 1 16 18
M  V30 18 1 18 19
M  V30 19 2 19 20 CFG=2
M  V30 20 1 20 21
M  V30 21 1 20 22
M  V30 22 2 22 23
M  V30 23 1 23 24
M  V30 24 2 24 25
M  V30 25 1 25 26
M  V30 26 2 26 27
M  V30 27 1 2 28
M  V30 28 2 28 29
M  V30 29 1 29 30
M  V30 30 2 30 31
M  V30 31 1 31 32
M  V30 32 2 32 33
M  V30 33 1 27 22
M  V30 34 1 33 28
M  V30 35 1 1 34
M  V30 36 1 1 35
M  V30 37 1 21 36
M  V30 38 1 21 37
M  V30 39 1 23 38
M  V30 40 1 24 39
M  V30 41 1 25 40
M  V30 42 1 26 41
M  V30 43 1 27 42
M  V30 44 1 29 43
M  V30 45 1 30 44
M  V30 46 1 31 45
M  V30 47 1 32 46
M  V30 48 1 33 47
M  V30 END BOND
M  V30 END CTAB
M  END
