
     RDKit          3D

  0  0  0  0  0  0  0  0  0  0999 V3000
M  V30 BEGIN CTAB
M  V30 COUNTS 21 21 0 0 0
M  V30 BEGIN ATOM
M  V30 1 N 3.42974 -0.772389 -1.6317 0
M  V30 2 C 2.69202 -0.949467 -0.757938 0
M  V30 3 C 1.76449 -1.16162 0.378489 0
M  V30 4 C 0.550926 -0.303425 0.219028 0
M  V30 5 C 0.700173 1.03854 0.507318 0
M  V30 6 N 1.96814 1.54718 0.92499 0
M  V30 7 C -0.405217 1.85631 0.374166 0
M  V30 8 C -1.61565 1.32766 -0.0365008 0
M  V30 9 C -1.77801 -0.0127366 -0.327535 0
M  V30 10 C -0.670472 -0.83265 -0.194282 0
M  V30 11 O -0.740332 -2.19509 -0.465896 0
M  V30 12 N -3.03391 -0.541647 -0.751955 0
M  V30 13 H 1.44408 -2.22666 0.308474 0
M  V30 14 H 2.25229 -1.03332 1.35146 0
M  V30 15 H 2.22285 1.53041 1.95704 0
M  V30 16 H 2.6834 1.94232 0.299442 0
M  V30 17 H -0.339449 2.922 0.588563 0
M  V30 18 H -2.47555 1.95126 -0.144644 0
M  V30 19 H -1.62473 -2.60011 -0.76769 0
M  V30 20 H -3.07368 -1.32603 -1.4199 0
M  V30 21 H -3.95109 -0.160538 -0.410937 0
M  V30 END ATOM
M  V30 BEGIN BOND
M  V30 1 3 1 2
M  V30 2 1 2 3
M  V30 3 1 3 4
M  V30 4 2 4 5
M  V30 5 1 5 6
M  V30 6 1 5 7
M  V30 7 2 7 8
M  V30 8 1 8 9
M  V30 9 2 9 10
M  V30 10 1 10 11
M  V30 11 1 9 12
M  V30 12 1 10 4
M  V30 13 1 3 13
M  V30 14 1 3 14
M  V30 15 1 6 15
M  V30 16 1 6 16
M  V30 17 1 7 17
M  V30 18 1 8 18
M  V30 19 1 11 19
M  V30 20 1 12 20
M  V30 21 1 12 21
M  V30 END BOND
M  V30 END CTAB
M  END
