
     RDKit          3D

  0  0  0  0  0  0  0  0  0  0999 V3000
M  V30 BEGIN CTAB
M  V30 COUNTS 33 35 0 0 0
M  V30 BEGIN ATOM
M  V30 1 N 4.78998 2.21866 -0.625804 0
M  V30 2 C 3.94199 1.17614 -1.12183 0
M  V30 3 C 3.13741 0.594014 -2.84959e-05 0
M  V30 4 N 3.28015 1.06785 1.24997 0
M  V30 5 C 2.56813 0.563071 2.28464 0
M  V30 6 C 1.67657 -0.453807 2.07554 0
M  V30 7 C 1.49968 -0.966407 0.818463 0
M  V30 8 C 2.24452 -0.425558 -0.213985 0
M  V30 9 C 0.589493 -2.06035 0.52617 0
M  V30 10 O 1.15923 -3.22617 0.547794 0
M  V30 11 N -0.756473 -2.03584 0.237739 0
M  V30 12 N -1.49185 -3.14392 0.0160822 0
M  V30 13 C -2.75035 -2.85855 -0.247096 0
M  V30 14 C -2.89341 -1.48712 -0.206033 0
M  V30 15 C -1.60946 -1.01571 0.102777 0
M  V30 16 C -1.48269 0.352856 0.198237 0
M  V30 17 C -2.53889 1.2163 0.00670998 0
M  V30 18 C -3.78838 0.733345 -0.294275 0
M  V30 19 C -3.95149 -0.62313 -0.397828 0
M  V30 20 N -4.88844 1.63096 -0.493399 0
M  V30 21 H 4.26582 3.11367 -0.521694 0
M  V30 22 H 5.15511 1.98435 0.334977 0
M  V30 23 H 4.53143 0.334495 -1.53578 0
M  V30 24 H 3.30952 1.58797 -1.92369 0
M  V30 25 H 2.74715 1.00744 3.26558 0
M  V30 26 H 1.12401 -0.840788 2.89705 0
M  V30 27 H 2.11143 -0.827365 -1.2228 0
M  V30 28 H -3.59842 -3.49855 -0.468554 0
M  V30 29 H -0.50522 0.774764 0.428777 0
M  V30 30 H -2.41013 2.29215 0.0883816 0
M  V30 31 H -4.91216 -1.0561 -0.632417 0
M  V30 32 H -4.87791 2.55381 -0.0591702 0
M  V30 33 H -5.67636 1.31753 -1.07986 0
M  V30 END ATOM
M  V30 BEGIN BOND
M  V30 1 1 1 2
M  V30 2 1 2 3
M  V30 3 2 3 4
M  V30 4 1 4 5
M  V30 5 2 5 6
M  V30 6 1 6 7
M  V30 7 2 7 8
M  V30 8 1 7 9
M  V30 9 2 9 10
M  V30 10 1 9 11
M  V30 11 1 11 12
M  V30 12 2 12 13
M  V30 13 1 13 14
M  V30 14 2 14 15
M  V30 15 1 15 16
M  V30 16 2 16 17
M  V30 17 1 17 18
M  V30 18 2 18 19
M  V30 19 1 18 20
M  V30 20 1 8 3
M  V30 21 1 15 11
M  V30 22 1 19 14
M  V30 23 1 1 21
M  V30 24 1 1 22
M  V30 25 1 2 23
M  V30 26 1 2 24
M  V30 27 1 5 25
M  V30 28 1 6 26
M  V30 29 1 8 27
M  V30 30 1 13 28
M  V30 31 1 16 29
M  V30 32 1 17 30
M  V30 33 1 19 31
M  V30 34 1 20 32
M  V30 35 1 20 33
M  V30 END BOND
M  V30 END CTAB
M  END
