
     RDKit          3D

  0  0  0  0  0  0  0  0  0  0999 V3000
M  V30 BEGIN CTAB
M  V30 COUNTS 28 28 0 0 0
M  V30 BEGIN ATOM
M  V30 1 C 0.134148 1.42997 1.39837 0
M  V30 2 C -0.194329 0.616594 0.199449 0
M  V30 3 C -0.674032 1.49127 -0.91387 0
M  V30 4 C -1.12115 -0.544692 0.482143 0 CFG=1
M  V30 5 N -2.40952 -0.167246 0.932597 0
M  V30 6 C -1.08748 -1.28282 -0.818953 0
M  V30 7 C 0.339506 -1.08388 -1.32488 0
M  V30 8 C 1.01314 -0.174225 -0.324345 0 CFG=2
M  V30 9 C 1.64005 -0.994659 0.763054 0
M  V30 10 N 1.98199 0.703485 -0.929279 0
M  V30 11 H -0.0546791 2.523 1.18945 0
M  V30 12 H 1.19918 1.38496 1.71147 0
M  V30 13 H -0.535865 1.17213 2.25767 0
M  V30 14 H -1.58748 1.14923 -1.40799 0
M  V30 15 H 0.109019 1.59605 -1.71956 0
M  V30 16 H -0.876489 2.5489 -0.582524 0
M  V30 17 H -0.580917 -1.19271 1.23254 0
M  V30 18 H -2.62738 -0.715528 1.81832 0
M  V30 19 H -3.19101 -0.367253 0.289855 0
M  V30 20 H -1.33912 -2.35856 -0.722297 0
M  V30 21 H -1.82166 -0.873044 -1.56042 0
M  V30 22 H 0.329796 -0.564839 -2.29853 0
M  V30 23 H 0.832582 -2.06806 -1.37668 0
M  V30 24 H 1.42839 -0.641288 1.77435 0
M  V30 25 H 2.74846 -1.03114 0.647964 0
M  V30 26 H 1.28574 -2.06385 0.727487 0
M  V30 27 H 2.76868 0.135206 -1.25598 0
M  V30 28 H 2.29044 1.373 -0.189402 0
M  V30 END ATOM
M  V30 BEGIN BOND
M  V30 1 1 1 2
M  V30 2 1 2 3
M  V30 3 1 2 4
M  V30 4 1 4 5
M  V30 5 1 4 6
M  V30 6 1 6 7
M  V30 7 1 7 8
M  V30 8 1 8 9
M  V30 9 1 8 10 CFG=3
M  V30 10 1 8 2
M  V30 11 1 1 11
M  V30 12 1 1 12
M  V30 13 1 1 13
M  V30 14 1 3 14
M  V30 15 1 3 15
M  V30 16 1 3 16
M  V30 17 1 4 17 CFG=1
M  V30 18 1 5 18
M  V30 19 1 5 19
M  V30 20 1 6 20
M  V30 21 1 6 21
M  V30 22 1 7 22
M  V30 23 1 7 23
M  V30 24 1 9 24
M  V30 25 1 9 25
M  V30 26 1 9 26
M  V30 27 1 10 27
M  V30 28 1 10 28
M  V30 END BOND
M  V30 END CTAB
M  END
