
     RDKit          3D

  0  0  0  0  0  0  0  0  0  0999 V3000
M  V30 BEGIN CTAB
M  V30 COUNTS 28 28 0 0 0
M  V30 BEGIN ATOM
M  V30 1 C -1.5802 0.178162 -1.23933 0
M  V30 2 C -1.64298 -0.151178 0.222087 0
M  V30 3 C -0.512166 -0.911173 0.788375 0
M  V30 4 C 0.825279 -0.284109 0.703366 0
M  V30 5 N 1.42432 0.415239 1.7182 0
M  V30 6 C 2.60794 0.854463 1.28567 0
M  V30 7 N 2.8208 0.473435 0.0187543 0
M  V30 8 C 1.71183 -0.232416 -0.33505 0
M  V30 9 N 1.57642 -0.831547 -1.6376 0
M  V30 10 N 3.92442 0.723686 -0.799127 0
M  V30 11 C -1.89966 1.16275 0.947641 0
M  V30 12 C -2.90853 -0.986901 0.496749 0
M  V30 13 H -1.40869 -0.708718 -1.85837 0
M  V30 14 H -2.5575 0.665483 -1.49294 0
M  V30 15 H -0.818495 0.954532 -1.43417 0
M  V30 16 H -0.648788 -1.22682 1.82932 0
M  V30 17 H -0.435014 -1.87293 0.199463 0
M  V30 18 H 3.32534 1.44359 1.85895 0
M  V30 19 H 1.26871 -0.339087 -2.47907 0
M  V30 20 H 1.81873 -1.85735 -1.70646 0
M  V30 21 H 4.17794 1.69054 -1.0263 0
M  V30 22 H 4.46821 -0.0661378 -1.16269 0
M  V30 23 H -1.21839 1.96774 0.612909 0
M  V30 24 H -1.89434 1.01444 2.04316 0
M  V30 25 H -2.93227 1.46663 0.679247 0
M  V30 26 H -3.80842 -0.342477 0.473703 0
M  V30 27 H -2.76607 -1.39145 1.52543 0
M  V30 28 H -2.91841 -1.80839 -0.231918 0
M  V30 END ATOM
M  V30 BEGIN BOND
M  V30 1 1 1 2
M  V30 2 1 2 3
M  V30 3 1 3 4
M  V30 4 1 4 5
M  V30 5 2 5 6
M  V30 6 1 6 7
M  V30 7 1 7 8
M  V30 8 1 8 9
M  V30 9 1 7 10
M  V30 10 1 2 11
M  V30 11 1 2 12
M  V30 12 2 8 4
M  V30 13 1 1 13
M  V30 14 1 1 14
M  V30 15 1 1 15
M  V30 16 1 3 16
M  V30 17 1 3 17
M  V30 18 1 6 18
M  V30 19 1 9 19
M  V30 20 1 9 20
M  V30 21 1 10 21
M  V30 22 1 10 22
M  V30 23 1 11 23
M  V30 24 1 11 24
M  V30 25 1 11 25
M  V30 26 1 12 26
M  V30 27 1 12 27
M  V30 28 1 12 28
M  V30 END BOND
M  V30 END CTAB
M  END
