
     RDKit          3D

  0  0  0  0  0  0  0  0  0  0999 V3000
M  V30 BEGIN CTAB
M  V30 COUNTS 48 49 0 0 0
M  V30 BEGIN ATOM
M  V30 1 N -2.36652 -3.0181 -0.898446 0
M  V30 2 C -1.23791 -2.16721 -0.888229 0
M  V30 3 C -1.72679 -0.732626 -0.905735 0 CFG=2
M  V30 4 C -0.476694 0.159387 -0.89404 0
M  V30 5 N -0.0779136 0.0900564 0.476455 0
M  V30 6 C -1.36719 0.273834 1.20662 0
M  V30 7 C -2.38377 -0.416921 0.379489 0 CFG=1
M  V30 8 C -3.67345 0.294125 0.269517 0
M  V30 9 C -4.83462 -0.31187 0.70835 0
M  V30 10 C -6.08178 0.272756 0.648276 0
M  V30 11 C -6.20148 1.53183 0.125098 0
M  V30 12 C -5.07926 2.17785 -0.324948 0
M  V30 13 C -3.8294 1.55708 -0.249717 0
M  V30 14 C 1.1732 -0.0826437 1.10031 0
M  V30 15 O 1.18317 -0.12557 2.39239 0
M  V30 16 C 2.46734 -0.219142 0.461631 0 CFG=2
M  V30 17 C 3.44755 0.778663 1.08239 0
M  V30 18 C 4.78662 0.615348 0.399419 0
M  V30 19 C 5.79741 1.56525 0.960297 0
M  V30 20 C 5.32567 -0.794264 0.578966 0
M  V30 21 N 2.5427 -0.0687658 -0.940621 0
M  V30 22 H -2.76822 -3.25708 -0.0267758 0
M  V30 23 H -2.49218 -3.5042 -1.72441 0
M  V30 24 H -0.682674 -2.31555 0.0617123 0
M  V30 25 H -0.574054 -2.37214 -1.77192 0
M  V30 26 H -2.34145 -0.520306 -1.80483 0
M  V30 27 H -0.842275 1.19714 -1.08275 0
M  V30 28 H 0.233079 -0.177525 -1.64555 0
M  V30 29 H -1.21639 -0.203035 2.19571 0
M  V30 30 H -1.5379 1.34027 1.38308 0
M  V30 31 H -2.60125 -1.40473 0.893557 0
M  V30 32 H -4.78709 -1.30645 1.12884 0
M  V30 33 H -6.97136 -0.253629 1.0112 0
M  V30 34 H -7.19591 1.97742 0.0860209 0
M  V30 35 H -5.18649 3.16324 -0.732322 0
M  V30 36 H -2.98886 2.09262 -0.607829 0
M  V30 37 H 2.93556 -1.23319 0.696177 0
M  V30 38 H 3.6068 0.572403 2.15837 0
M  V30 39 H 3.10447 1.80993 0.907986 0
M  V30 40 H 4.71714 0.818693 -0.699056 0
M  V30 41 H 5.25976 2.53326 1.17209 0
M  V30 42 H 6.22454 1.23595 1.91159 0
M  V30 43 H 6.56537 1.75851 0.19154 0
M  V30 44 H 5.26761 -1.05175 1.6508 0
M  V30 45 H 6.39663 -0.811647 0.306243 0
M  V30 46 H 4.81227 -1.5033 -0.086584 0
M  V30 47 H 2.96347 -0.841344 -1.47249 0
M  V30 48 H 2.71251 0.877388 -1.30017 0
M  V30 END ATOM
M  V30 BEGIN BOND
M  V30 1 1 1 2
M  V30 2 1 2 3
M  V30 3 1 3 4
M  V30 4 1 4 5
M  V30 5 1 5 6
M  V30 6 1 6 7
M  V30 7 1 7 8
M  V30 8 2 8 9
M  V30 9 1 9 10
M  V30 10 2 10 11
M  V30 11 1 11 12
M  V30 12 2 12 13
M  V30 13 1 5 14
M  V30 14 2 14 15
M  V30 15 1 14 16
M  V30 16 1 16 17
M  V30 17 1 17 18
M  V30 18 1 18 19
M  V30 19 1 18 20
M  V30 20 1 16 21
M  V30 21 1 7 3
M  V30 22 1 13 8
M  V30 23 1 1 22
M  V30 24 1 1 23
M  V30 25 1 2 24
M  V30 26 1 2 25
M  V30 27 1 3 26 CFG=3
M  V30 28 1 4 27
M  V30 29 1 4 28
M  V30 30 1 6 29
M  V30 31 1 6 30
M  V30 32 1 7 31 CFG=1
M  V30 33 1 9 32
M  V30 34 1 10 33
M  V30 35 1 11 34
M  V30 36 1 12 35
M  V30 37 1 13 36
M  V30 38 1 16 37 CFG=3
M  V30 39 1 17 38
M  V30 40 1 17 39
M  V30 41 1 18 40
M  V30 42 1 19 41
M  V30 43 1 19 42
M  V30 44 1 19 43
M  V30 45 1 20 44
M  V30 46 1 20 45
M  V30 47 1 20 46
M  V30 48 1 21 47
M  V30 49 1 21 48
M  V30 END BOND
M  V30 END CTAB
M  END
