
     RDKit          3D

  0  0  0  0  0  0  0  0  0  0999 V3000
M  V30 BEGIN CTAB
M  V30 COUNTS 19 19 0 0 0
M  V30 BEGIN ATOM
M  V30 1 F -3.43676 -0.915666 -0.71338 0
M  V30 2 C -2.11164 -0.767418 -0.474311 0
M  V30 3 C -1.29674 -1.83558 -0.132429 0
M  V30 4 C 0.0498703 -1.65857 0.106092 0
M  V30 5 Br 1.15612 -3.1578 0.578471 0
M  V30 6 C 0.592098 -0.394869 0.00171535 0
M  V30 7 C -0.232406 0.65714 -0.339363 0
M  V30 8 C -1.58353 0.509182 -0.583667 0
M  V30 9 N -2.42767 1.6061 -0.936233 0
M  V30 10 S 2.29626 -0.219904 0.311803 0
M  V30 11 O 2.52988 -0.621934 1.75526 0
M  V30 12 O 3.1235 -1.10151 -0.576096 0
M  V30 13 N 2.82103 1.40551 0.143333 0
M  V30 14 H -1.71807 -2.82222 -0.0505449 0
M  V30 15 H 0.193749 1.63853 -0.419411 0
M  V30 16 H -2.85524 1.71154 -1.88906 0
M  V30 17 H -2.60081 2.31031 -0.184373 0
M  V30 18 H 3.4304 1.55325 -0.689501 0
M  V30 19 H 2.06995 2.10392 0.244075 0
M  V30 END ATOM
M  V30 BEGIN BOND
M  V30 1 1 1 2
M  V30 2 2 2 3
M  V30 3 1 3 4
M  V30 4 1 4 5
M  V30 5 2 4 6
M  V30 6 1 6 7
M  V30 7 2 7 8
M  V30 8 1 8 9
M  V30 9 1 6 10
M  V30 10 2 10 11
M  V30 11 2 10 12
M  V30 12 1 10 13
M  V30 13 1 8 2
M  V30 14 1 3 14
M  V30 15 1 7 15
M  V30 16 1 9 16
M  V30 17 1 9 17
M  V30 18 1 13 18
M  V30 19 1 13 19
M  V30 END BOND
M  V30 END CTAB
M  END
