
     RDKit          3D

  0  0  0  0  0  0  0  0  0  0999 V3000
M  V30 BEGIN CTAB
M  V30 COUNTS 32 33 0 0 0
M  V30 BEGIN ATOM
M  V30 1 C -1.55843 -1.75969 0.504584 0
M  V30 2 C -1.52887 -0.351678 -0.0643425 0
M  V30 3 C -1.4809 -0.557846 -1.59648 0
M  V30 4 N -2.70761 0.375633 0.192031 0
M  V30 5 C -2.73531 1.5499 0.688558 0
M  V30 6 N -4.0137 2.13204 0.879015 0
M  V30 7 N -1.5318 2.25511 1.04047 0
M  V30 8 C -0.418072 1.65566 0.835407 0
M  V30 9 N 0.837905 2.29729 1.16268 0
M  V30 10 N -0.350299 0.357174 0.287998 0
M  V30 11 C 0.967238 -0.241138 0.0924248 0
M  V30 12 C 1.65129 -0.0701696 -1.08747 0
M  V30 13 C 2.90794 -0.630832 -1.29631 0
M  V30 14 O 3.57576 -0.441447 -2.49853 0
M  V30 15 C 3.48599 -1.3806 -0.290965 0
M  V30 16 C 2.8205 -1.55918 0.884346 0
M  V30 17 C 1.56025 -0.990783 1.08006 0
M  V30 18 H -1.57041 -1.7711 1.59971 0
M  V30 19 H -2.49952 -2.22137 0.145301 0
M  V30 20 H -0.708386 -2.3049 0.0825268 0
M  V30 21 H -2.43958 -1.05483 -1.9015 0
M  V30 22 H -0.640233 -1.20566 -1.88043 0
M  V30 23 H -1.44793 0.401731 -2.12361 0
M  V30 24 H -4.52151 2.54739 0.0850939 0
M  V30 25 H -4.43988 2.14084 1.81763 0
M  V30 26 H 1.26467 2.96906 0.507815 0
M  V30 27 H 1.32867 2.08997 2.06383 0
M  V30 28 H 1.18446 0.521521 -1.86844 0
M  V30 29 H 4.18955 0.36867 -2.57126 0
M  V30 30 H 4.46986 -1.82981 -0.431541 0
M  V30 31 H 3.28285 -2.14238 1.65151 0
M  V30 32 H 1.06552 -1.14858 2.00988 0
M  V30 END ATOM
M  V30 BEGIN BOND
M  V30 1 1 1 2
M  V30 2 1 2 3
M  V30 3 1 2 4
M  V30 4 2 4 5
M  V30 5 1 5 6
M  V30 6 1 5 7
M  V30 7 2 7 8
M  V30 8 1 8 9
M  V30 9 1 8 10
M  V30 10 1 10 11
M  V30 11 2 11 12
M  V30 12 1 12 13
M  V30 13 1 13 14
M  V30 14 2 13 15
M  V30 15 1 15 16
M  V30 16 2 16 17
M  V30 17 1 10 2
M  V30 18 1 17 11
M  V30 19 1 1 18
M  V30 20 1 1 19
M  V30 21 1 1 20
M  V30 22 1 3 21
M  V30 23 1 3 22
M  V30 24 1 3 23
M  V30 25 1 6 24
M  V30 26 1 6 25
M  V30 27 1 9 26
M  V30 28 1 9 27
M  V30 29 1 12 28
M  V30 30 1 14 29
M  V30 31 1 15 30
M  V30 32 1 16 31
M  V30 33 1 17 32
M  V30 END BOND
M  V30 END CTAB
M  END
