
     RDKit          3D

  0  0  0  0  0  0  0  0  0  0999 V3000
M  V30 BEGIN CTAB
M  V30 COUNTS 35 35 0 0 0
M  V30 BEGIN ATOM
M  V30 1 N -3.34434 -0.290583 2.04561 0
M  V30 2 C -3.75577 -0.942293 0.818409 0
M  V30 3 C -4.2641 0.00176748 -0.20996 0
M  V30 4 C -3.32467 1.04969 -0.675186 0
M  V30 5 C -2.0865 0.555875 -1.30499 0
M  V30 6 O -1.88098 -0.680673 -1.43949 0
M  V30 7 N -1.06786 1.41827 -1.79038 0
M  V30 8 C 0.133096 0.94831 -2.40106 0
M  V30 9 C 1.13225 0.420793 -1.47944 0
M  V30 10 C 2.30873 -0.109488 -1.95808 0
M  V30 11 C 3.23883 -0.602872 -1.06411 0
M  V30 12 C 3.05656 -0.596188 0.3021 0
M  V30 13 C 1.86984 -0.0603152 0.768321 0
M  V30 14 C 0.935011 0.435072 -0.119738 0
M  V30 15 S 4.26789 -1.23397 1.4102 0
M  V30 16 N 5.32848 0.0369757 1.85027 0
M  V30 17 O 3.58046 -1.73725 2.64758 0
M  V30 18 O 4.98954 -2.38338 0.767123 0
M  V30 19 H -2.58279 0.388002 1.90803 0
M  V30 20 H -3.24049 -0.939354 2.82884 0
M  V30 21 H -4.6369 -1.58585 1.11221 0
M  V30 22 H -2.97754 -1.63685 0.521166 0
M  V30 23 H -5.1435 0.535033 0.247695 0
M  V30 24 H -4.68861 -0.596604 -1.04229 0
M  V30 25 H -3.0578 1.70571 0.186493 0
M  V30 26 H -3.88445 1.71335 -1.37663 0
M  V30 27 H -1.22649 2.44351 -1.68396 0
M  V30 28 H 0.529994 1.76833 -3.06748 0
M  V30 29 H -0.155341 0.145363 -3.14512 0
M  V30 30 H 2.52113 -0.14792 -3.03094 0
M  V30 31 H 4.18811 -1.03254 -1.4098 0
M  V30 32 H 1.70318 -0.0431309 1.82887 0
M  V30 33 H 0.0212087 0.844634 0.306801 0
M  V30 34 H 5.21013 0.301665 2.85595 0
M  V30 35 H 6.3037 -0.0930856 1.55783 0
M  V30 END ATOM
M  V30 BEGIN BOND
M  V30 1 1 1 2
M  V30 2 1 2 3
M  V30 3 1 3 4
M  V30 4 1 4 5
M  V30 5 2 5 6
M  V30 6 1 5 7
M  V30 7 1 7 8
M  V30 8 1 8 9
M  V30 9 2 9 10
M  V30 10 1 10 11
M  V30 11 2 11 12
M  V30 12 1 12 13
M  V30 13 2 13 14
M  V30 14 1 12 15
M  V30 15 1 15 16
M  V30 16 2 15 17
M  V30 17 2 15 18
M  V30 18 1 14 9
M  V30 19 1 1 19
M  V30 20 1 1 20
M  V30 21 1 2 21
M  V30 22 1 2 22
M  V30 23 1 3 23
M  V30 24 1 3 24
M  V30 25 1 4 25
M  V30 26 1 4 26
M  V30 27 1 7 27
M  V30 28 1 8 28
M  V30 29 1 8 29
M  V30 30 1 10 30
M  V30 31 1 11 31
M  V30 32 1 13 32
M  V30 33 1 14 33
M  V30 34 1 16 34
M  V30 35 1 16 35
M  V30 END BOND
M  V30 END CTAB
M  END
