
     RDKit          3D

  0  0  0  0  0  0  0  0  0  0999 V3000
M  V30 BEGIN CTAB
M  V30 COUNTS 36 37 0 0 0
M  V30 BEGIN ATOM
M  V30 1 N 5.38236 -2.70312 0.943084 0
M  V30 2 C 4.15559 -2.0512 0.594507 0
M  V30 3 C 3.46213 -1.27891 1.50757 0
M  V30 4 C 2.281 -0.657027 1.15631 0
M  V30 5 C 1.74424 -0.777115 -0.110319 0
M  V30 6 C 2.47202 -1.55924 -0.990541 0
M  V30 7 N 3.62153 -2.15955 -0.635192 0
M  V30 8 C 0.464865 -0.106621 -0.499302 0 CFG=2
M  V30 9 C 0.580288 1.39331 -0.428672 0
M  V30 10 C -0.684766 2.07932 -0.0305511 0
M  V30 11 C -1.84796 1.81125 -0.921576 0
M  V30 12 N -2.51227 0.607568 -0.814373 0
M  V30 13 C -1.91353 -0.60337 -0.52407 0
M  V30 14 C -0.689975 -0.592086 0.321974 0
M  V30 15 S -4.09552 0.560581 -1.35455 0
M  V30 16 O -4.15874 1.06276 -2.78903 0
M  V30 17 O -4.69154 -0.81383 -1.28929 0
M  V30 18 N -5.0335 1.68569 -0.39852 0
M  V30 19 H 6.29023 -2.37774 0.553415 0
M  V30 20 H 5.40278 -3.51599 1.59182 0
M  V30 21 H 3.89081 -1.19244 2.4933 0
M  V30 22 H 1.73669 -0.0441268 1.89162 0
M  V30 23 H 2.0582 -1.66188 -1.99447 0
M  V30 24 H 0.25573 -0.359327 -1.56014 0
M  V30 25 H 1.34738 1.62362 0.339102 0
M  V30 26 H 0.936102 1.83569 -1.38065 0
M  V30 27 H -0.47338 3.18257 -0.130547 0
M  V30 28 H -0.937077 1.95743 1.04952 0
M  V30 29 H -1.51014 1.98336 -1.97177 0
M  V30 30 H -2.58036 2.65371 -0.732665 0
M  V30 31 H -2.66023 -1.27932 -0.00822666 0
M  V30 32 H -1.66397 -1.15156 -1.4675 0
M  V30 33 H -0.802803 -0.0807894 1.28595 0
M  V30 34 H -0.460717 -1.66932 0.581087 0
M  V30 35 H -4.69552 1.55799 0.592264 0
M  V30 36 H -4.66994 2.63971 -0.686498 0
M  V30 END ATOM
M  V30 BEGIN BOND
M  V30 1 1 1 2
M  V30 2 2 2 3
M  V30 3 1 3 4
M  V30 4 2 4 5
M  V30 5 1 5 6
M  V30 6 2 6 7
M  V30 7 1 5 8
M  V30 8 1 8 9
M  V30 9 1 9 10
M  V30 10 1 10 11
M  V30 11 1 11 12
M  V30 12 1 12 13
M  V30 13 1 13 14
M  V30 14 1 12 15
M  V30 15 2 15 16
M  V30 16 2 15 17
M  V30 17 1 15 18
M  V30 18 1 7 2
M  V30 19 1 14 8
M  V30 20 1 1 19
M  V30 21 1 1 20
M  V30 22 1 3 21
M  V30 23 1 4 22
M  V30 24 1 6 23
M  V30 25 1 8 24 CFG=3
M  V30 26 1 9 25
M  V30 27 1 9 26
M  V30 28 1 10 27
M  V30 29 1 10 28
M  V30 30 1 11 29
M  V30 31 1 11 30
M  V30 32 1 13 31
M  V30 33 1 13 32
M  V30 34 1 14 33
M  V30 35 1 14 34
M  V30 36 1 18 35
M  V30 37 1 18 36
M  V30 END BOND
M  V30 END CTAB
M  END
