
     RDKit          3D

  0  0  0  0  0  0  0  0  0  0999 V3000
M  V30 BEGIN CTAB
M  V30 COUNTS 33 34 0 0 0
M  V30 BEGIN ATOM
M  V30 1 N 1.93695 -2.13739 -0.677824 0
M  V30 2 C 2.18747 -0.890539 -0.0800969 0
M  V30 3 C 3.49176 -0.567424 0.338015 0
M  V30 4 C 3.73296 0.67696 0.882664 0
M  V30 5 C 2.7053 1.61851 1.02363 0
M  V30 6 C 1.43339 1.282 0.609738 0
M  V30 7 C 1.18394 0.0687286 0.07274 0
M  V30 8 C -0.206179 -0.377044 -0.333001 0 CFG=2
M  V30 9 C -0.432526 0.209414 -1.72101 0
M  V30 10 N -0.790562 1.57396 -1.78414 0
M  V30 11 C -1.93545 1.88919 -0.937509 0
M  V30 12 C -2.32847 0.608869 -0.255764 0
M  V30 13 N -1.16305 0.216068 0.600786 0
M  V30 14 S -1.7469 -0.841388 1.8134 0
M  V30 15 O -0.672294 -1.37515 2.6613 0
M  V30 16 O -2.76399 -0.032411 2.62938 0
M  V30 17 N -2.61253 -2.15027 1.03398 0
M  V30 18 H 2.49473 -2.41833 -1.52752 0
M  V30 19 H 1.24019 -2.80668 -0.357637 0
M  V30 20 H 4.31148 -1.27464 0.24767 0
M  V30 21 H 4.72576 0.99112 1.22363 0
M  V30 22 H 2.88906 2.58569 1.4569 0
M  V30 23 H 0.604379 2.0098 0.744281 0
M  V30 24 H -0.272114 -1.42548 -0.343643 0
M  V30 25 H 0.60845 0.144161 -2.2102 0
M  V30 26 H -1.03437 -0.461181 -2.34506 0
M  V30 27 H -1.05851 1.78198 -2.76544 0
M  V30 28 H -1.57051 2.5949 -0.164207 0
M  V30 29 H -2.76079 2.32396 -1.50146 0
M  V30 30 H -2.49044 -0.143175 -1.05008 0
M  V30 31 H -3.21309 0.724588 0.378286 0
M  V30 32 H -3.04428 -2.71769 1.80576 0
M  V30 33 H -3.44977 -1.6811 0.53243 0
M  V30 END ATOM
M  V30 BEGIN BOND
M  V30 1 1 1 2
M  V30 2 2 2 3
M  V30 3 1 3 4
M  V30 4 2 4 5
M  V30 5 1 5 6
M  V30 6 2 6 7
M  V30 7 1 7 8
M  V30 8 1 8 9
M  V30 9 1 9 10
M  V30 10 1 10 11
M  V30 11 1 11 12
M  V30 12 1 12 13
M  V30 13 1 13 14
M  V30 14 2 14 15
M  V30 15 2 14 16
M  V30 16 1 14 17
M  V30 17 1 7 2
M  V30 18 1 13 8
M  V30 19 1 1 18
M  V30 20 1 1 19
M  V30 21 1 3 20
M  V30 22 1 4 21
M  V30 23 1 5 22
M  V30 24 1 6 23
M  V30 25 1 8 24 CFG=3
M  V30 26 1 9 25
M  V30 27 1 9 26
M  V30 28 1 10 27
M  V30 29 1 11 28
M  V30 30 1 11 29
M  V30 31 1 12 30
M  V30 32 1 12 31
M  V30 33 1 17 32
M  V30 34 1 17 33
M  V30 END BOND
M  V30 END CTAB
M  END
