
     RDKit          3D

  0  0  0  0  0  0  0  0  0  0999 V3000
M  V30 BEGIN CTAB
M  V30 COUNTS 33 33 0 0 0
M  V30 BEGIN ATOM
M  V30 1 N -2.29092 1.94148 -1.39474 0
M  V30 2 C -1.21804 1.0966 -0.90049 0
M  V30 3 C -0.299734 1.95396 -0.0886506 0
M  V30 4 C 1.09545 1.4644 -0.28293 0
M  V30 5 N 1.22896 0.0248571 -0.149548 0
M  V30 6 C 0.407955 -0.441945 0.912702 0
M  V30 7 C -0.930699 -0.965999 0.52111 0
M  V30 8 C -1.85711 -0.00559954 -0.107764 0
M  V30 9 C -1.59313 -1.52129 1.76916 0
M  V30 10 C -0.708137 -2.15369 -0.412567 0
M  V30 11 S 2.89405 -0.251115 0.241486 0
M  V30 12 O 3.28981 0.536894 1.47501 0
M  V30 13 O 3.15407 -1.68974 0.55443 0
M  V30 14 N 3.91248 0.318139 -1.04416 0
M  V30 15 H -3.18944 1.76948 -0.880462 0
M  V30 16 H -2.46606 1.80406 -2.41289 0
M  V30 17 H -0.703726 0.648627 -1.75995 0
M  V30 18 H -0.575582 2.04435 0.966142 0
M  V30 19 H -0.339001 3.00055 -0.511245 0
M  V30 20 H 1.45662 1.70681 -1.3168 0
M  V30 21 H 1.77317 2.01 0.401848 0
M  V30 22 H 0.950982 -1.26568 1.43195 0
M  V30 23 H 0.238624 0.33151 1.71857 0
M  V30 24 H -2.55601 -0.535483 -0.788702 0
M  V30 25 H -2.51872 0.502917 0.646848 0
M  V30 26 H -2.01967 -2.52858 1.59666 0
M  V30 27 H -0.903738 -1.57923 2.6229 0
M  V30 28 H -2.44828 -0.876937 2.09185 0
M  V30 29 H -1.68958 -2.40766 -0.877651 0
M  V30 30 H -0.410668 -3.0605 0.177426 0
M  V30 31 H 0.0171593 -1.92012 -1.20426 0
M  V30 32 H 3.4535 0.187487 -1.97972 0
M  V30 33 H 4.84542 -0.138557 -1.01554 0
M  V30 END ATOM
M  V30 BEGIN BOND
M  V30 1 1 1 2
M  V30 2 1 2 3
M  V30 3 1 3 4
M  V30 4 1 4 5
M  V30 5 1 5 6
M  V30 6 1 6 7
M  V30 7 1 7 8
M  V30 8 1 7 9
M  V30 9 1 7 10
M  V30 10 1 5 11
M  V30 11 2 11 12
M  V30 12 2 11 13
M  V30 13 1 11 14
M  V30 14 1 8 2
M  V30 15 1 1 15
M  V30 16 1 1 16
M  V30 17 1 2 17
M  V30 18 1 3 18
M  V30 19 1 3 19
M  V30 20 1 4 20
M  V30 21 1 4 21
M  V30 22 1 6 22
M  V30 23 1 6 23
M  V30 24 1 8 24
M  V30 25 1 8 25
M  V30 26 1 9 26
M  V30 27 1 9 27
M  V30 28 1 9 28
M  V30 29 1 10 29
M  V30 30 1 10 30
M  V30 31 1 10 31
M  V30 32 1 14 32
M  V30 33 1 14 33
M  V30 END BOND
M  V30 END CTAB
M  END
