
     RDKit          3D

  0  0  0  0  0  0  0  0  0  0999 V3000
M  V30 BEGIN CTAB
M  V30 COUNTS 41 42 0 0 0
M  V30 BEGIN ATOM
M  V30 1 N -5.86046 -0.868845 0.914057 0
M  V30 2 C -4.95478 0.136676 0.416454 0 CFG=2
M  V30 3 C -4.91524 0.0012646 -1.06972 0
M  V30 4 C -3.52475 -0.312143 -1.54736 0
M  V30 5 C -2.62876 0.762905 -0.916255 0
M  V30 6 N -2.49088 0.426178 0.456171 0
M  V30 7 C -3.65807 -0.0383365 1.12153 0
M  V30 8 C -1.35925 -0.435661 0.661099 0
M  V30 9 C -0.025952 0.214353 0.435223 0
M  V30 10 O 0.974163 -0.7731 0.68313 0
M  V30 11 C 2.30643 -0.406009 0.540077 0
M  V30 12 C 2.66067 0.865117 0.171638 0
M  V30 13 C 3.97367 1.19628 0.0394468 0
M  V30 14 C 4.96479 0.275533 0.269237 0
M  V30 15 C 4.60493 -0.990107 0.636264 0
M  V30 16 C 3.2853 -1.34243 0.774683 0
M  V30 17 S 6.64998 0.720528 0.0940617 0
M  V30 18 O 6.76168 2.2062 0.319928 0
M  V30 19 O 7.50251 -0.0486306 1.0517 0
M  V30 20 N 7.12957 0.417539 -1.53529 0
M  V30 21 H -6.47965 -1.22197 0.198045 0
M  V30 22 H -5.48586 -1.53284 1.53519 0
M  V30 23 H -5.40376 1.11841 0.719477 0
M  V30 24 H -5.31896 0.934225 -1.51863 0
M  V30 25 H -5.57726 -0.815261 -1.45941 0
M  V30 26 H -3.26433 -1.32458 -1.17661 0
M  V30 27 H -3.44627 -0.272451 -2.64906 0
M  V30 28 H -3.18758 1.73009 -0.992984 0
M  V30 29 H -1.68691 0.867715 -1.4434 0
M  V30 30 H -3.72026 0.538529 2.09254 0
M  V30 31 H -3.52347 -1.11729 1.37571 0
M  V30 32 H -1.38948 -1.35722 0.0336663 0
M  V30 33 H -1.43436 -0.816813 1.71789 0
M  V30 34 H 0.117118 0.589443 -0.594571 0
M  V30 35 H 0.116484 1.08324 1.12991 0
M  V30 36 H 1.87545 1.59873 -0.0107502 0
M  V30 37 H 4.26619 2.21183 -0.25505 0
M  V30 38 H 5.37197 -1.73989 0.825035 0
M  V30 39 H 3.0239 -2.36708 1.06959 0
M  V30 40 H 7.48623 -0.581616 -1.5939 0
M  V30 41 H 6.26525 0.467502 -2.13721 0
M  V30 END ATOM
M  V30 BEGIN BOND
M  V30 1 1 1 2
M  V30 2 1 2 3
M  V30 3 1 3 4
M  V30 4 1 4 5
M  V30 5 1 5 6
M  V30 6 1 6 7
M  V30 7 1 6 8
M  V30 8 1 8 9
M  V30 9 1 9 10
M  V30 10 1 10 11
M  V30 11 2 11 12
M  V30 12 1 12 13
M  V30 13 2 13 14
M  V30 14 1 14 15
M  V30 15 2 15 16
M  V30 16 1 14 17
M  V30 17 2 17 18
M  V30 18 2 17 19
M  V30 19 1 17 20
M  V30 20 1 7 2
M  V30 21 1 16 11
M  V30 22 1 1 21
M  V30 23 1 1 22
M  V30 24 1 2 23 CFG=3
M  V30 25 1 3 24
M  V30 26 1 3 25
M  V30 27 1 4 26
M  V30 28 1 4 27
M  V30 29 1 5 28
M  V30 30 1 5 29
M  V30 31 1 7 30
M  V30 32 1 7 31
M  V30 33 1 8 32
M  V30 34 1 8 33
M  V30 35 1 9 34
M  V30 36 1 9 35
M  V30 37 1 12 36
M  V30 38 1 13 37
M  V30 39 1 15 38
M  V30 40 1 16 39
M  V30 41 1 20 40
M  V30 42 1 20 41
M  V30 END BOND
M  V30 END CTAB
M  END
