
     RDKit          3D

  0  0  0  0  0  0  0  0  0  0999 V3000
M  V30 BEGIN CTAB
M  V30 COUNTS 30 31 0 0 0
M  V30 BEGIN ATOM
M  V30 1 N -2.65069 -2.34125 -0.498538 0
M  V30 2 C -2.75395 -0.980912 -0.85452 0
M  V30 3 C -1.85792 -0.19838 0.0661853 0 CFG=1
M  V30 4 O -0.55655 -0.669502 -0.110306 0
M  V30 5 C 0.173677 0.263233 0.624251 0 CFG=2
M  V30 6 C -0.299901 1.57362 0.0644768 0
M  V30 7 C -1.76072 1.25249 -0.271525 0 CFG=2
M  V30 8 N -2.60256 2.00563 0.637945 0
M  V30 9 N 1.56147 0.00567954 0.408912 0
M  V30 10 C 2.53455 0.949926 0.43444 0
M  V30 11 C 3.83951 0.624943 0.218959 0
M  V30 12 C 4.2052 -0.667384 -0.0299418 0
M  V30 13 O 5.39319 -1.02453 -0.235728 0
M  V30 14 N 3.22523 -1.60645 -0.0537948 0
M  V30 15 C 1.95351 -1.25678 0.161374 0
M  V30 16 O 1.09461 -2.18437 0.124067 0
M  V30 17 H -2.87231 -2.5367 0.422003 0
M  V30 18 H -2.78442 -3.00537 -1.1797 0
M  V30 19 H -2.39744 -0.867551 -1.90109 0
M  V30 20 H -3.80765 -0.637853 -0.788591 0
M  V30 21 H -2.15481 -0.367893 1.12368 0
M  V30 22 H -0.0722607 0.189314 1.70186 0
M  V30 23 H 0.227988 1.8827 -0.843059 0
M  V30 24 H -0.24643 2.35544 0.849819 0
M  V30 25 H -1.98392 1.46653 -1.32906 0
M  V30 26 H -2.12989 2.88441 0.950439 0
M  V30 27 H -3.55417 2.14419 0.283089 0
M  V30 28 H 2.19737 1.96103 0.635629 0
M  V30 29 H 4.59283 1.39622 0.245052 0
M  V30 30 H 3.48646 -2.61042 -0.244278 0
M  V30 END ATOM
M  V30 BEGIN BOND
M  V30 1 1 1 2
M  V30 2 1 2 3
M  V30 3 1 3 4
M  V30 4 1 4 5
M  V30 5 1 5 6
M  V30 6 1 6 7
M  V30 7 1 7 8
M  V30 8 1 5 9
M  V30 9 1 9 10
M  V30 10 2 10 11
M  V30 11 1 11 12
M  V30 12 2 12 13
M  V30 13 1 12 14
M  V30 14 1 14 15
M  V30 15 2 15 16
M  V30 16 1 7 3
M  V30 17 1 15 9
M  V30 18 1 1 17
M  V30 19 1 1 18
M  V30 20 1 2 19
M  V30 21 1 2 20
M  V30 22 1 3 21 CFG=1
M  V30 23 1 5 22 CFG=1
M  V30 24 1 6 23
M  V30 25 1 6 24
M  V30 26 1 7 25 CFG=3
M  V30 27 1 8 26
M  V30 28 1 8 27
M  V30 29 1 10 28
M  V30 30 1 11 29
M  V30 31 1 14 30
M  V30 END BOND
M  V30 END CTAB
M  END
