
     RDKit          3D

  0  0  0  0  0  0  0  0  0  0999 V3000
M  V30 BEGIN CTAB
M  V30 COUNTS 29 30 0 0 0
M  V30 BEGIN ATOM
M  V30 1 N -2.30626 0.667959 -2.1906 0
M  V30 2 C -1.90308 -0.000395501 -0.994466 0
M  V30 3 C -2.96636 -0.965002 -0.489092 0
M  V30 4 C -2.75602 -1.04053 0.987361 0
M  V30 5 C -1.69338 0.00776851 1.33786 0
M  V30 6 C -1.81787 0.957417 0.195447 0
M  V30 7 S -0.402052 2.03747 -0.0270536 0
M  V30 8 C 1.15201 1.18183 0.0442072 0
M  V30 9 C 1.6873 0.679611 -1.11979 0
M  V30 10 C 2.90319 -0.00180084 -1.13411 0
M  V30 11 C 3.57474 -0.169199 0.0541161 0
M  V30 12 C 3.02567 0.337432 1.19948 0
M  V30 13 N 1.83721 0.997755 1.18081 0
M  V30 14 N 4.81005 -0.851316 0.0997776 0
M  V30 15 H -2.6479 1.62339 -2.07123 0
M  V30 16 H -1.69213 0.50369 -3.01081 0
M  V30 17 H -0.940273 -0.528774 -1.09068 0
M  V30 18 H -2.81516 -1.96048 -0.99724 0
M  V30 19 H -3.99278 -0.578506 -0.759526 0
M  V30 20 H -2.41296 -2.04924 1.27296 0
M  V30 21 H -3.71983 -0.807558 1.48641 0
M  V30 22 H -0.701925 -0.467818 1.38474 0
M  V30 23 H -2.00678 0.453382 2.30118 0
M  V30 24 H -2.74999 1.52518 0.250134 0
M  V30 25 H 1.14222 0.822383 -2.04473 0
M  V30 26 H 3.3347 -0.400947 -2.03935 0
M  V30 27 H 3.52203 0.226015 2.14816 0
M  V30 28 H 4.86549 -1.8313 0.43239 0
M  V30 29 H 5.67012 -0.368429 -0.202081 0
M  V30 END ATOM
M  V30 BEGIN BOND
M  V30 1 1 1 2
M  V30 2 1 2 3
M  V30 3 1 3 4
M  V30 4 1 4 5
M  V30 5 1 5 6
M  V30 6 1 6 7
M  V30 7 1 7 8
M  V30 8 2 8 9
M  V30 9 1 9 10
M  V30 10 2 10 11
M  V30 11 1 11 12
M  V30 12 2 12 13
M  V30 13 1 11 14
M  V30 14 1 6 2
M  V30 15 1 13 8
M  V30 16 1 1 15
M  V30 17 1 1 16
M  V30 18 1 2 17
M  V30 19 1 3 18
M  V30 20 1 3 19
M  V30 21 1 4 20
M  V30 22 1 4 21
M  V30 23 1 5 22
M  V30 24 1 5 23
M  V30 25 1 6 24
M  V30 26 1 9 25
M  V30 27 1 10 26
M  V30 28 1 12 27
M  V30 29 1 14 28
M  V30 30 1 14 29
M  V30 END BOND
M  V30 END CTAB
M  END
