
     RDKit          3D

  0  0  0  0  0  0  0  0  0  0999 V3000
M  V30 BEGIN CTAB
M  V30 COUNTS 25 26 0 0 0
M  V30 BEGIN ATOM
M  V30 1 C -3.39719 -0.0800072 -0.739433 0
M  V30 2 C -2.23331 -0.0851119 0.20522 0
M  V30 3 C -1.39411 -1.32171 0.11874 0
M  V30 4 C 0.00742028 -0.805381 -0.00862553 0
M  V30 5 C 1.23813 -1.42617 -0.0449206 0
M  V30 6 C 2.42503 -0.715496 -0.172011 0
M  V30 7 N 3.64914 -1.43303 -0.201067 0
M  V30 8 C 2.40905 0.660279 -0.267726 0
M  V30 9 C 1.17705 1.2779 -0.231124 0
M  V30 10 N 1.13244 2.67635 -0.326549 0
M  V30 11 C -0.00918092 0.570407 -0.104305 0
M  V30 12 N -1.35822 1.03706 -0.0495111 0
M  V30 13 H -3.71021 -1.09262 -1.06806 0
M  V30 14 H -3.13209 0.484307 -1.64725 0
M  V30 15 H -4.30317 0.417493 -0.292229 0
M  V30 16 H -2.66195 0.0422092 1.23991 0
M  V30 17 H -1.6718 -1.99349 -0.691968 0
M  V30 18 H -1.50341 -1.89804 1.08346 0
M  V30 19 H 1.26985 -2.50505 0.028899 0
M  V30 20 H 4.37 -1.35571 0.54305 0
M  V30 21 H 3.82842 -2.06313 -1.00486 0
M  V30 22 H 3.34038 1.20808 -0.366757 0
M  V30 23 H 1.01773 3.13863 -1.24778 0
M  V30 24 H 1.21514 3.25224 0.53388 0
M  V30 25 H -1.70512 2.00999 -0.166663 0
M  V30 END ATOM
M  V30 BEGIN BOND
M  V30 1 1 1 2
M  V30 2 1 2 3
M  V30 3 1 3 4
M  V30 4 2 4 5
M  V30 5 1 5 6
M  V30 6 1 6 7
M  V30 7 2 6 8
M  V30 8 1 8 9
M  V30 9 1 9 10
M  V30 10 2 9 11
M  V30 11 1 11 12
M  V30 12 1 12 2
M  V30 13 1 11 4
M  V30 14 1 1 13
M  V30 15 1 1 14
M  V30 16 1 1 15
M  V30 17 1 2 16
M  V30 18 1 3 17
M  V30 19 1 3 18
M  V30 20 1 5 19
M  V30 21 1 7 20
M  V30 22 1 7 21
M  V30 23 1 8 22
M  V30 24 1 10 23
M  V30 25 1 10 24
M  V30 26 1 12 25
M  V30 END BOND
M  V30 END CTAB
M  END
