
     RDKit          3D

  0  0  0  0  0  0  0  0  0  0999 V3000
M  V30 BEGIN CTAB
M  V30 COUNTS 22 22 0 0 0
M  V30 BEGIN ATOM
M  V30 1 O 3.75068 0.0323483 0.584973 0 CHG=-1
M  V30 2 N 2.86846 -0.766758 -0.100267 0 CHG=1
M  V30 3 O 3.37197 -1.7138 -0.736254 0
M  V30 4 C 1.47646 -0.521452 -0.0765119 0
M  V30 5 C 0.569279 -1.5662 -0.25693 0
M  V30 6 C -0.797695 -1.3513 -0.23439 0
M  V30 7 N -1.71218 -2.42298 -0.405117 0 CHG=1
M  V30 8 O -1.3674 -3.60041 -0.0508286 0
M  V30 9 O -2.97051 -2.31997 -0.926804 0 CHG=-1
M  V30 10 C -1.25135 -0.0720645 -0.0277605 0
M  V30 11 C -0.339464 0.968339 0.152371 0
M  V30 12 C 1.02793 0.76676 0.13173 0
M  V30 13 N 1.93273 1.84532 0.319484 0
M  V30 14 N -0.820661 2.28721 0.371594 0
M  V30 15 N -2.65903 0.196115 -0.00219557 0 CHG=1
M  V30 16 O -3.32073 -0.164195 1.0037 0
M  V30 17 O -3.21459 0.828485 -1.08882 0 CHG=-1
M  V30 18 H 0.892333 -2.56922 -0.41605 0
M  V30 19 H 2.1817 2.17269 1.29608 0
M  V30 20 H 2.40263 2.37289 -0.449648 0
M  V30 21 H -1.83951 2.51112 0.336888 0
M  V30 22 H -0.181054 3.08708 0.57475 0
M  V30 END ATOM
M  V30 BEGIN BOND
M  V30 1 1 1 2
M  V30 2 2 2 3
M  V30 3 1 2 4
M  V30 4 2 4 5
M  V30 5 1 5 6
M  V30 6 1 6 7
M  V30 7 2 7 8
M  V30 8 1 7 9
M  V30 9 2 6 10
M  V30 10 1 10 11
M  V30 11 2 11 12
M  V30 12 1 12 13
M  V30 13 1 11 14
M  V30 14 1 10 15
M  V30 15 2 15 16
M  V30 16 1 15 17
M  V30 17 1 12 4
M  V30 18 1 5 18
M  V30 19 1 13 19
M  V30 20 1 13 20
M  V30 21 1 14 21
M  V30 22 1 14 22
M  V30 END BOND
M  V30 END CTAB
M  END
