
     RDKit          3D

  0  0  0  0  0  0  0  0  0  0999 V3000
M  V30 BEGIN CTAB
M  V30 COUNTS 29 30 0 0 0
M  V30 BEGIN ATOM
M  V30 1 N 3.56002 -0.240195 1.29736 0
M  V30 2 C 2.68829 0.103854 0.230016 0
M  V30 3 C 3.16021 0.549277 -0.995612 0
M  V30 4 C 2.27643 0.868873 -1.99427 0
M  V30 5 C 0.92135 0.751592 -1.79147 0
M  V30 6 C 0.406615 0.305718 -0.568566 0
M  V30 7 N -0.995334 0.213724 -0.433275 0
M  V30 8 C -1.67355 0.996961 0.535856 0
M  V30 9 C -2.81486 0.28979 1.21266 0
M  V30 10 O -3.47524 -0.597778 0.38208 0
M  V30 11 C -2.67195 -1.45812 -0.303774 0
M  V30 12 C -1.77308 -0.674961 -1.26963 0
M  V30 13 C 1.31313 -0.00858136 0.416858 0
M  V30 14 N 0.849282 -0.465599 1.66655 0
M  V30 15 H 3.36665 -1.04423 1.93095 0
M  V30 16 H 4.42515 0.31004 1.47507 0
M  V30 17 H 4.23239 0.622422 -1.09986 0
M  V30 18 H 2.68359 1.21246 -2.93557 0
M  V30 19 H 0.269948 1.01294 -2.60117 0
M  V30 20 H -2.0136 1.94286 0.0251038 0
M  V30 21 H -0.96223 1.33507 1.31278 0
M  V30 22 H -3.56553 1.08957 1.46431 0
M  V30 23 H -2.53656 -0.160092 2.18938 0
M  V30 24 H -2.07729 -2.15114 0.312303 0
M  V30 25 H -3.31653 -2.08672 -0.951923 0
M  V30 26 H -1.16477 -1.37592 -1.84922 0
M  V30 27 H -2.47478 -0.0811468 -1.89899 0
M  V30 28 H 0.87609 0.167149 2.47846 0
M  V30 29 H 0.486134 -1.42783 1.76359 0
M  V30 END ATOM
M  V30 BEGIN BOND
M  V30 1 1 1 2
M  V30 2 2 2 3
M  V30 3 1 3 4
M  V30 4 2 4 5
M  V30 5 1 5 6
M  V30 6 1 6 7
M  V30 7 1 7 8
M  V30 8 1 8 9
M  V30 9 1 9 10
M  V30 10 1 10 11
M  V30 11 1 11 12
M  V30 12 2 6 13
M  V30 13 1 13 14
M  V30 14 1 13 2
M  V30 15 1 12 7
M  V30 16 1 1 15
M  V30 17 1 1 16
M  V30 18 1 3 17
M  V30 19 1 4 18
M  V30 20 1 5 19
M  V30 21 1 8 20
M  V30 22 1 8 21
M  V30 23 1 9 22
M  V30 24 1 9 23
M  V30 25 1 11 24
M  V30 26 1 11 25
M  V30 27 1 12 26
M  V30 28 1 12 27
M  V30 29 1 14 28
M  V30 30 1 14 29
M  V30 END BOND
M  V30 END CTAB
M  END
