
     RDKit          3D

  0  0  0  0  0  0  0  0  0  0999 V3000
M  V30 BEGIN CTAB
M  V30 COUNTS 55 57 0 0 0
M  V30 BEGIN ATOM
M  V30 1 N 6.68437 0.105803 0.754654 0
M  V30 2 C 6.04781 -1.1917 0.704326 0
M  V30 3 C 4.71686 -1.11213 -0.00659445 0
M  V30 4 N 3.78356 -0.252971 0.591802 0
M  V30 5 C 3.25692 -0.614472 1.85475 0
M  V30 6 C 1.75017 -0.35232 1.98731 0
M  V30 7 N 1.51148 0.706055 0.948942 0
M  V30 8 C 2.53663 1.70601 0.968535 0
M  V30 9 C 3.753 1.11694 0.225724 0
M  V30 10 C 0.357373 0.591349 0.1689 0
M  V30 11 O -0.425024 -0.37003 0.528814 0
M  V30 12 C -0.0516771 1.38058 -0.944132 0
M  V30 13 C -1.18387 1.21598 -1.57216 0
M  V30 14 N -2.19987 0.282112 -1.31335 0
M  V30 15 C -3.17763 0.533539 -0.318117 0
M  V30 16 C -3.60311 1.86218 -0.200691 0
M  V30 17 C -4.58969 2.23059 0.692231 0
M  V30 18 C -5.17676 1.28712 1.48941 0
M  V30 19 C -4.77882 -0.0364129 1.39802 0
M  V30 20 C -3.79437 -0.368393 0.498928 0
M  V30 21 N -6.1844 1.71721 2.38966 0
M  V30 22 C -2.40414 -0.878015 -2.09248 0
M  V30 23 C -3.68759 -1.14076 -2.56132 0
M  V30 24 C -3.96306 -2.23166 -3.35049 0
M  V30 25 C -2.96196 -3.10085 -3.69958 0
M  V30 26 C -1.67365 -2.85047 -3.23783 0
M  V30 27 C -1.42726 -1.74422 -2.44519 0
M  V30 28 C 0.815488 2.42525 -1.52237 0
M  V30 29 N 1.50169 3.25614 -2.02272 0
M  V30 30 H 7.60703 0.0834752 0.296102 0
M  V30 31 H 6.72006 0.411137 1.73985 0
M  V30 32 H 6.69029 -1.94107 0.176349 0
M  V30 33 H 5.87797 -1.58343 1.73134 0
M  V30 34 H 4.90648 -0.88604 -1.08643 0
M  V30 35 H 4.30761 -2.16768 0.0392219 0
M  V30 36 H 3.45384 -1.69029 2.03179 0
M  V30 37 H 3.79359 -0.0167917 2.63471 0
M  V30 38 H 1.1934 -1.26594 1.73962 0
M  V30 39 H 1.58003 0.0357909 2.98964 0
M  V30 40 H 2.2417 2.68558 0.635415 0
M  V30 41 H 2.95824 1.79283 2.04104 0
M  V30 42 H 4.63807 1.6434 0.580305 0
M  V30 43 H 3.67432 1.2992 -0.863595 0
M  V30 44 H -1.37669 1.92754 -2.44896 0
M  V30 45 H -3.15506 2.62051 -0.817612 0
M  V30 46 H -4.86854 3.27334 0.729703 0
M  V30 47 H -5.25015 -0.773214 2.03336 0
M  V30 48 H -3.46034 -1.40608 0.405235 0
M  V30 49 H -5.96068 1.84752 3.39695 0
M  V30 50 H -7.15391 1.90849 2.06599 0
M  V30 51 H -4.46214 -0.450423 -2.27916 0
M  V30 52 H -4.95787 -2.4228 -3.70562 0
M  V30 53 H -3.13388 -3.97111 -4.31808 0
M  V30 54 H -0.886157 -3.53993 -3.51648 0
M  V30 55 H -0.409689 -1.58646 -2.10726 0
M  V30 END ATOM
M  V30 BEGIN BOND
M  V30 1 1 1 2
M  V30 2 1 2 3
M  V30 3 1 3 4
M  V30 4 1 4 5
M  V30 5 1 5 6
M  V30 6 1 6 7
M  V30 7 1 7 8
M  V30 8 1 8 9
M  V30 9 1 7 10
M  V30 10 2 10 11
M  V30 11 1 10 12
M  V30 12 2 12 13
M  V30 13 1 13 14
M  V30 14 1 14 15
M  V30 15 2 15 16
M  V30 16 1 16 17
M  V30 17 2 17 18
M  V30 18 1 18 19
M  V30 19 2 19 20
M  V30 20 1 18 21
M  V30 21 1 14 22
M  V30 22 2 22 23
M  V30 23 1 23 24
M  V30 24 2 24 25
M  V30 25 1 25 26
M  V30 26 2 26 27
M  V30 27 1 12 28
M  V30 28 3 28 29
M  V30 29 1 9 4
M  V30 30 1 20 15
M  V30 31 1 27 22
M  V30 32 1 1 30
M  V30 33 1 1 31
M  V30 34 1 2 32
M  V30 35 1 2 33
M  V30 36 1 3 34
M  V30 37 1 3 35
M  V30 38 1 5 36
M  V30 39 1 5 37
M  V30 40 1 6 38
M  V30 41 1 6 39
M  V30 42 1 8 40
M  V30 43 1 8 41
M  V30 44 1 9 42
M  V30 45 1 9 43
M  V30 46 1 13 44
M  V30 47 1 16 45
M  V30 48 1 17 46
M  V30 49 1 19 47
M  V30 50 1 20 48
M  V30 51 1 21 49
M  V30 52 1 21 50
M  V30 53 1 23 51
M  V30 54 1 24 52
M  V30 55 1 25 53
M  V30 56 1 26 54
M  V30 57 1 27 55
M  V30 END BOND
M  V30 END CTAB
M  END
