
     RDKit          3D

  0  0  0  0  0  0  0  0  0  0999 V3000
M  V30 BEGIN CTAB
M  V30 COUNTS 31 33 0 0 0
M  V30 BEGIN ATOM
M  V30 1 N -5.96116 -0.755946 0.569465 0
M  V30 2 C -4.55371 -0.490908 0.495346 0
M  V30 3 C -3.99892 0.478558 1.28426 0
M  V30 4 C -2.66153 0.771479 1.25352 0
M  V30 5 C -1.79602 0.0801702 0.400961 0
M  V30 6 N -0.434821 0.453719 0.407916 0
M  V30 7 C 0.677876 -0.30912 0.0147532 0
M  V30 8 N 0.512519 -1.5827 -0.375466 0
M  V30 9 C 1.54842 -2.35744 -0.731448 0
M  V30 10 N 2.77506 -1.81108 -0.684697 0
M  V30 11 C 3.02069 -0.55119 -0.307412 0
M  V30 12 C 1.9542 0.25082 0.0604009 0
M  V30 13 C 2.229 1.53088 0.43854 0
M  V30 14 N 3.49384 2.02318 0.46192 0
M  V30 15 C 4.55508 1.27805 0.113086 0
M  V30 16 N 5.85123 1.8558 0.160488 0
M  V30 17 C 4.30601 -0.0191286 -0.273481 0
M  V30 18 C -2.36255 -0.887209 -0.384321 0
M  V30 19 C -3.7296 -1.18612 -0.352025 0
M  V30 20 H -6.28138 -1.71131 0.822515 0
M  V30 21 H -6.5967 0.0469205 0.359496 0
M  V30 22 H -4.6885 1.01768 1.9526 0
M  V30 23 H -2.30563 1.55374 1.91112 0
M  V30 24 H -0.265511 1.44567 0.758251 0
M  V30 25 H 1.38995 -3.39764 -1.04769 0
M  V30 26 H 1.42499 2.1806 0.72687 0
M  V30 27 H 6.19584 2.55921 -0.527817 0
M  V30 28 H 6.51827 1.58394 0.910516 0
M  V30 29 H 5.12503 -0.64345 -0.558427 0
M  V30 30 H -1.78519 -1.46661 -1.08782 0
M  V30 31 H -4.1568 -1.94057 -0.967324 0
M  V30 END ATOM
M  V30 BEGIN BOND
M  V30 1 1 1 2
M  V30 2 2 2 3
M  V30 3 1 3 4
M  V30 4 2 4 5
M  V30 5 1 5 6
M  V30 6 1 6 7
M  V30 7 2 7 8
M  V30 8 1 8 9
M  V30 9 2 9 10
M  V30 10 1 10 11
M  V30 11 2 11 12
M  V30 12 1 12 13
M  V30 13 2 13 14
M  V30 14 1 14 15
M  V30 15 1 15 16
M  V30 16 2 15 17
M  V30 17 1 5 18
M  V30 18 2 18 19
M  V30 19 1 19 2
M  V30 20 1 12 7
M  V30 21 1 17 11
M  V30 22 1 1 20
M  V30 23 1 1 21
M  V30 24 1 3 22
M  V30 25 1 4 23
M  V30 26 1 6 24
M  V30 27 1 9 25
M  V30 28 1 13 26
M  V30 29 1 16 27
M  V30 30 1 16 28
M  V30 31 1 17 29
M  V30 32 1 18 30
M  V30 33 1 19 31
M  V30 END BOND
M  V30 END CTAB
M  END
