
     RDKit          3D

  0  0  0  0  0  0  0  0  0  0999 V3000
M  V30 BEGIN CTAB
M  V30 COUNTS 30 31 0 0 0
M  V30 BEGIN ATOM
M  V30 1 N -1.49982 3.64247 -0.384145 0
M  V30 2 N -2.24093 2.46573 -0.260661 0
M  V30 3 C -1.60096 1.20908 -0.122978 0
M  V30 4 N -0.271552 1.16133 -0.113066 0
M  V30 5 C 0.390973 -0.0239602 0.0169126 0
M  V30 6 N -0.33334 -1.12697 0.132789 0
M  V30 7 C -1.67519 -1.19128 0.134938 0
M  V30 8 C -2.32905 0.0398524 0.000271936 0
M  V30 9 N -3.73423 0.114048 -0.0119399 0 CHG=1
M  V30 10 O -4.38376 0.338871 -1.04903 0
M  V30 11 O -4.45321 -0.0630065 1.14641 0 CHG=-1
M  V30 12 N -2.39958 -2.39789 0.262286 0
M  V30 13 N -1.72904 -3.60605 0.394731 0
M  V30 14 C 1.8504 -0.0161929 0.0219376 0
M  V30 15 C 2.56196 1.14546 -0.0943561 0
M  V30 16 C 3.94001 1.17034 -0.0923394 0
M  V30 17 C 4.63664 -0.0329441 0.03284 0
M  V30 18 C 3.93985 -1.2208 0.151948 0
M  V30 19 C 2.57088 -1.18657 0.144007 0
M  V30 20 H -1.41677 4.15542 0.524541 0
M  V30 21 H -0.562047 3.47123 -0.822548 0
M  V30 22 H -3.28336 2.56702 -0.276063 0
M  V30 23 H -3.4314 -2.39246 0.258028 0
M  V30 24 H -0.904799 -3.61063 -0.268504 0
M  V30 25 H -2.30027 -4.43266 0.123046 0
M  V30 26 H 2.01998 2.06978 -0.190678 0
M  V30 27 H 4.48754 2.09726 -0.18472 0
M  V30 28 H 5.71573 -0.0650847 0.0394467 0
M  V30 29 H 4.43361 -2.1773 0.251271 0
M  V30 30 H 2.00176 -2.10409 0.235623 0
M  V30 END ATOM
M  V30 BEGIN BOND
M  V30 1 1 1 2
M  V30 2 1 2 3
M  V30 3 2 3 4
M  V30 4 1 4 5
M  V30 5 2 5 6
M  V30 6 1 6 7
M  V30 7 2 7 8
M  V30 8 1 8 9
M  V30 9 2 9 10
M  V30 10 1 9 11
M  V30 11 1 7 12
M  V30 12 1 12 13
M  V30 13 1 5 14
M  V30 14 2 14 15
M  V30 15 1 15 16
M  V30 16 2 16 17
M  V30 17 1 17 18
M  V30 18 2 18 19
M  V30 19 1 8 3
M  V30 20 1 19 14
M  V30 21 1 1 20
M  V30 22 1 1 21
M  V30 23 1 2 22
M  V30 24 1 12 23
M  V30 25 1 13 24
M  V30 26 1 13 25
M  V30 27 1 15 26
M  V30 28 1 16 27
M  V30 29 1 17 28
M  V30 30 1 18 29
M  V30 31 1 19 30
M  V30 END BOND
M  V30 END CTAB
M  END
