
     RDKit          3D

  0  0  0  0  0  0  0  0  0  0999 V3000
M  V30 BEGIN CTAB
M  V30 COUNTS 163 165 0 0 0
M  V30 BEGIN ATOM
M  V30 1 C -3.14788 -1.17991 -1.40344 0 CFG=1
M  V30 2 C -2.14994 -0.115664 -0.890095 0
M  V30 3 C -2.66888 1.26785 -0.955487 0 CFG=1
M  V30 4 O -3.42088 1.58785 0.206927 0
M  V30 5 C -4.74949 1.77818 -0.0419999 0 CFG=2
M  V30 6 O -5.2042 3.05619 0.277159 0
M  V30 7 C -6.42288 3.2595 -0.311488 0 CFG=2
M  V30 8 C -7.17697 4.40521 0.367214 0
M  V30 9 C -7.31533 2.07652 -0.500812 0 CFG=1
M  V30 10 O -7.31986 1.80389 -1.90003 0
M  V30 11 C -6.98772 0.886519 0.295137 0 CFG=1
M  V30 12 C -5.58558 0.849579 0.815824 0 CFG=2
M  V30 13 O -5.48764 1.19667 2.15573 0
M  V30 14 N -7.93288 0.404675 1.25063 0
M  V30 15 C -9.09024 -0.247329 0.733209 0
M  V30 16 C -10.1292 0.50388 0.0170714 0
M  V30 17 C -11.2304 -0.524569 -0.365807 0
M  V30 18 N -11.7908 -1.15026 0.791767 0
M  V30 19 C -8.37323 1.45817 2.16122 0
M  V30 20 C -9.29214 0.846268 3.19484 0
M  V30 21 C -9.66869 2.01028 4.12601 0
M  V30 22 N -10.3237 2.99275 3.28331 0
M  V30 23 C -1.71993 2.34761 -1.2207 0
M  V30 24 C -0.419803 2.41815 -1.17221 0
M  V30 25 C 0.550046 1.39827 -0.819675 0
M  V30 26 C 0.914577 0.96821 0.362275 0
M  V30 27 C 0.466434 1.38271 1.66595 0
M  V30 28 C 0.72822 2.50403 2.31177 0
M  V30 29 C 1.52434 3.64198 1.93755 0
M  V30 30 C 2.82725 3.79468 1.78521 0
M  V30 31 C 3.92127 2.86372 1.9361 0
M  V30 32 C 4.56186 2.13416 1.01732 0
M  V30 33 C 4.35291 2.06916 -0.399375 0
M  V30 34 C 4.6911 2.94296 -1.33928 0
M  V30 35 C 5.38162 4.20921 -1.16833 0
M  V30 36 C 6.69005 4.41827 -1.15031 0
M  V30 37 C 7.77978 3.46681 -1.29951 0 CFG=2
M  V30 38 C 7.58068 2.54785 -2.5048 0
M  V30 39 C 8.17438 2.68288 -0.0825644 0 CFG=1
M  V30 40 O 8.01655 1.32205 -0.422819 0
M  V30 41 C 9.63891 2.83253 0.265236 0 CFG=1
M  V30 42 C 9.88952 3.81947 1.37428 0
M  V30 43 C 10.2926 1.51879 0.649566 0 CFG=2
M  V30 44 C 10.8746 0.859407 -0.573525 0
M  V30 45 O 9.43029 0.721616 1.39603 0
M  V30 46 C 9.52095 -0.574006 1.76182 0
M  V30 47 O 9.5039 -0.911346 2.98995 0
M  V30 48 C 9.64173 -1.66995 0.781377 0
M  V30 49 C 8.79745 -2.87305 1.18965 0 CFG=2
M  V30 50 O 9.55664 -4.01624 1.29703 0
M  V30 51 C 7.65541 -3.12328 0.247355 0
M  V30 52 C 6.89595 -4.33541 0.720136 0 CFG=2
M  V30 53 O 6.67172 -5.25941 -0.300567 0
M  V30 54 C 5.55725 -3.95894 1.29143 0
M  V30 55 C 4.4418 -4.00088 0.267136 0
M  V30 56 C 3.21129 -4.55801 0.955176 0 CFG=1
M  V30 57 O 2.96196 -3.7777 2.07701 0
M  V30 58 C 2.02829 -4.63709 0.011593 0 CFG=2
M  V30 59 O 2.20797 -3.85516 -1.11527 0
M  V30 60 C 0.789416 -4.22746 0.792087 0
M  V30 61 C -0.484078 -4.53181 0.0290498 0 CFG=2
M  V30 62 O -0.124415 -5.36138 -1.03028 0
M  V30 63 C -1.10072 -3.22935 -0.443728 0
M  V30 64 C -2.59267 -3.31997 -0.651213 0 CFG=2
M  V30 65 O -3.04419 -4.18662 0.38029 0
M  V30 66 C -2.98032 -3.97729 -1.93302 0
M  V30 67 C -3.01213 -3.05382 -3.09292 0 CFG=2
M  V30 68 O -2.17701 -3.5119 -4.14881 0
M  V30 69 C -2.68576 -1.64498 -2.73761 0 CFG=1
M  V30 70 C -3.34079 -0.787974 -3.781 0
M  V30 71 O -2.71536 -0.0601401 -4.58467 0
M  V30 72 O -4.72075 -0.811111 -3.85147 0
M  V30 73 C -5.47502 -0.0697287 -4.76961 0
M  V30 74 O -3.23151 -2.12397 -0.422585 0
M  V30 75 H -4.15002 -0.716275 -1.51727 0
M  V30 76 H -1.91203 -0.313769 0.192539 0
M  V30 77 H -1.21417 -0.302347 -1.47506 0
M  V30 78 H -3.48503 1.24284 -1.75979 0
M  V30 79 H -5.03843 1.61902 -1.09755 0
M  V30 80 H -6.18902 3.67651 -1.34514 0
M  V30 81 H -7.13362 4.26611 1.45048 0
M  V30 82 H -6.74161 5.36319 0.0681408 0
M  V30 83 H -8.21659 4.33837 0.00496635 0
M  V30 84 H -8.35617 2.43943 -0.251845 0
M  V30 85 H -7.99248 2.38745 -2.3339 0
M  V30 86 H -6.94544 -0.00053592 -0.519166 0
M  V30 87 H -5.17172 -0.189029 0.748048 0
M  V30 88 H -5.11581 2.10707 2.29122 0
M  V30 89 H -8.72558 -1.04712 -0.0021259 0
M  V30 90 H -9.55662 -0.849585 1.55168 0
M  V30 91 H -9.8181 0.867012 -1.01174 0
M  V30 92 H -10.6436 1.3011 0.550146 0
M  V30 93 H -12.0481 0.0191913 -0.897982 0
M  V30 94 H -10.8134 -1.25327 -1.07988 0
M  V30 95 H -12.8345 -1.05168 0.825613 0
M  V30 96 H -11.6063 -2.19565 0.716152 0
M  V30 97 H -9.00083 2.20884 1.62114 0
M  V30 98 H -7.58492 1.97107 2.67678 0
M  V30 99 H -10.2626 0.500436 2.77329 0
M  V30 100 H -8.80566 0.0539366 3.79326 0
M  V30 101 H -8.74395 2.47547 4.52406 0
M  V30 102 H -10.3501 1.68675 4.91586 0
M  V30 103 H -10.8581 3.62869 3.9303 0
M  V30 104 H -11.0058 2.52019 2.65367 0
M  V30 105 H -2.2516 3.30619 -1.52243 0
M  V30 106 H 0.0330213 3.41693 -1.47104 0
M  V30 107 H 1.07401 0.940605 -1.7037 0
M  V30 108 H 1.67489 0.139885 0.356771 0
M  V30 109 H -0.176867 0.63244 2.20954 0
M  V30 110 H 0.211818 2.55726 3.3322 0
M  V30 111 H 0.896505 4.56726 1.75351 0
M  V30 112 H 3.16455 4.85729 1.55318 0
M  V30 113 H 4.37067 2.73454 2.97488 0
M  V30 114 H 5.3629 1.44962 1.40663 0
M  V30 115 H 3.85328 1.14214 -0.777979 0
M  V30 116 H 4.35684 2.70106 -2.38967 0
M  V30 117 H 4.71525 5.12036 -1.08962 0
M  V30 118 H 6.99947 5.4778 -0.985537 0
M  V30 119 H 8.71401 4.04988 -1.58341 0
M  V30 120 H 8.58161 2.11291 -2.72449 0
M  V30 121 H 7.28931 3.17749 -3.34658 0
M  V30 122 H 6.91312 1.71528 -2.29026 0
M  V30 123 H 7.58087 2.96067 0.795498 0
M  V30 124 H 7.31689 0.955377 0.154507 0
M  V30 125 H 10.1783 3.19827 -0.643203 0
M  V30 126 H 9.23187 3.70441 2.24388 0
M  V30 127 H 10.9332 3.59911 1.74856 0
M  V30 128 H 9.94111 4.88267 1.00466 0
M  V30 129 H 11.1959 1.79519 1.28215 0
M  V30 130 H 11.5328 0.00428463 -0.239588 0
M  V30 131 H 10.1477 0.549486 -1.32584 0
M  V30 132 H 11.6092 1.60399 -0.994019 0
M  V30 133 H 9.28066 -1.40074 -0.239666 0
M  V30 134 H 10.7007 -2.03311 0.702798 0
M  V30 135 H 8.35305 -2.63498 2.18051 0
M  V30 136 H 9.43607 -4.4735 2.16585 0
M  V30 137 H 7.99627 -3.34205 -0.787639 0
M  V30 138 H 6.95849 -2.25402 0.305462 0
M  V30 139 H 7.46931 -4.89094 1.51733 0
M  V30 140 H 6.62315 -6.19269 0.0391976 0
M  V30 141 H 5.655 -2.93662 1.73957 0
M  V30 142 H 5.30853 -4.61683 2.15629 0
M  V30 143 H 4.25159 -2.92912 -0.0291386 0
M  V30 144 H 4.68943 -4.63292 -0.609715 0
M  V30 145 H 3.49313 -5.59329 1.30629 0
M  V30 146 H 3.13695 -2.84253 1.85794 0
M  V30 147 H 1.89773 -5.68709 -0.317563 0
M  V30 148 H 2.26008 -2.89254 -0.91615 0
M  V30 149 H 0.78626 -4.79931 1.75879 0
M  V30 150 H 0.823932 -3.14799 0.985308 0
M  V30 151 H -1.17916 -5.10298 0.675776 0
M  V30 152 H 0.101007 -4.89269 -1.8544 0
M  V30 153 H -0.927313 -2.44774 0.348046 0
M  V30 154 H -0.530293 -2.90973 -1.31583 0
M  V30 155 H -3.13993 -5.09911 0.0417589 0
M  V30 156 H -2.28475 -4.83394 -2.0885 0
M  V30 157 H -3.98645 -4.43669 -1.76325 0
M  V30 158 H -4.04428 -3.11777 -3.55569 0
M  V30 159 H -1.89892 -4.42549 -3.90818 0
M  V30 160 H -1.59629 -1.41148 -2.83715 0
M  V30 161 H -5.40786 -0.505282 -5.80881 0
M  V30 162 H -6.54141 -0.202863 -4.49396 0
M  V30 163 H -5.25076 0.99747 -4.76318 0
M  V30 END ATOM
M  V30 BEGIN BOND
M  V30 1 1 1 2
M  V30 2 1 2 3
M  V30 3 1 3 4
M  V30 4 1 4 5
M  V30 5 1 5 6
M  V30 6 1 6 7
M  V30 7 1 7 8
M  V30 8 1 7 9
M  V30 9 1 9 10
M  V30 10 1 9 11
M  V30 11 1 11 12
M  V30 12 1 12 13
M  V30 13 1 11 14
M  V30 14 1 14 15
M  V30 15 1 15 16
M  V30 16 1 16 17
M  V30 17 1 17 18
M  V30 18 1 14 19
M  V30 19 1 19 20
M  V30 20 1 20 21
M  V30 21 1 21 22
M  V30 22 1 3 23
M  V30 23 2 23 24
M  V30 24 1 24 25
M  V30 25 2 25 26
M  V30 26 1 26 27
M  V30 27 2 27 28
M  V30 28 1 28 29
M  V30 29 2 29 30
M  V30 30 1 30 31
M  V30 31 2 31 32
M  V30 32 1 32 33
M  V30 33 2 33 34
M  V30 34 1 34 35
M  V30 35 2 35 36
M  V30 36 1 36 37
M  V30 37 1 37 38
M  V30 38 1 37 39
M  V30 39 1 39 40
M  V30 40 1 39 41
M  V30 41 1 41 42
M  V30 42 1 41 43
M  V30 43 1 43 44
M  V30 44 1 43 45
M  V30 45 1 45 46
M  V30 46 2 46 47
M  V30 47 1 46 48
M  V30 48 1 48 49
M  V30 49 1 49 50
M  V30 50 1 49 51
M  V30 51 1 51 52
M  V30 52 1 52 53
M  V30 53 1 52 54
M  V30 54 1 54 55
M  V30 55 1 55 56
M  V30 56 1 56 57
M  V30 57 1 56 58
M  V30 58 1 58 59
M  V30 59 1 58 60
M  V30 60 1 60 61
M  V30 61 1 61 62
M  V30 62 1 61 63
M  V30 63 1 63 64
M  V30 64 1 64 65 CFG=1
M  V30 65 1 64 66
M  V30 66 1 66 67
M  V30 67 1 67 68
M  V30 68 1 67 69
M  V30 69 1 69 70
M  V30 70 2 70 71
M  V30 71 1 70 72
M  V30 72 1 72 73
M  V30 73 1 64 74
M  V30 74 1 69 1
M  V30 75 1 74 1
M  V30 76 1 12 5
M  V30 77 1 1 75 CFG=3
M  V30 78 1 2 76
M  V30 79 1 2 77
M  V30 80 1 3 78 CFG=3
M  V30 81 1 5 79 CFG=3
M  V30 82 1 7 80 CFG=3
M  V30 83 1 8 81
M  V30 84 1 8 82
M  V30 85 1 8 83
M  V30 86 1 9 84 CFG=1
M  V30 87 1 10 85
M  V30 88 1 11 86 CFG=3
M  V30 89 1 12 87 CFG=1
M  V30 90 1 13 88
M  V30 91 1 15 89
M  V30 92 1 15 90
M  V30 93 1 16 91
M  V30 94 1 16 92
M  V30 95 1 17 93
M  V30 96 1 17 94
M  V30 97 1 18 95
M  V30 98 1 18 96
M  V30 99 1 19 97
M  V30 100 1 19 98
M  V30 101 1 20 99
M  V30 102 1 20 100
M  V30 103 1 21 101
M  V30 104 1 21 102
M  V30 105 1 22 103
M  V30 106 1 22 104
M  V30 107 1 23 105
M  V30 108 1 24 106
M  V30 109 1 25 107
M  V30 110 1 26 108
M  V30 111 1 27 109
M  V30 112 1 28 110
M  V30 113 1 29 111
M  V30 114 1 30 112
M  V30 115 1 31 113
M  V30 116 1 32 114
M  V30 117 1 33 115
M  V30 118 1 34 116
M  V30 119 1 35 117
M  V30 120 1 36 118
M  V30 121 1 37 119 CFG=3
M  V30 122 1 38 120
M  V30 123 1 38 121
M  V30 124 1 38 122
M  V30 125 1 39 123 CFG=1
M  V30 126 1 40 124
M  V30 127 1 41 125 CFG=3
M  V30 128 1 42 126
M  V30 129 1 42 127
M  V30 130 1 42 128
M  V30 131 1 43 129 CFG=1
M  V30 132 1 44 130
M  V30 133 1 44 131
M  V30 134 1 44 132
M  V30 135 1 48 133
M  V30 136 1 48 134
M  V30 137 1 49 135 CFG=1
M  V30 138 1 50 136
M  V30 139 1 51 137
M  V30 140 1 51 138
M  V30 141 1 52 139 CFG=1
M  V30 142 1 53 140
M  V30 143 1 54 141
M  V30 144 1 54 142
M  V30 145 1 55 143
M  V30 146 1 55 144
M  V30 147 1 56 145 CFG=1
M  V30 148 1 57 146
M  V30 149 1 58 147 CFG=3
M  V30 150 1 59 148
M  V30 151 1 60 149
M  V30 152 1 60 150
M  V30 153 1 61 151 CFG=1
M  V30 154 1 62 152
M  V30 155 1 63 153
M  V30 156 1 63 154
M  V30 157 1 65 155
M  V30 158 1 66 156
M  V30 159 1 66 157
M  V30 160 1 67 158 CFG=3
M  V30 161 1 68 159
M  V30 162 1 69 160 CFG=1
M  V30 163 1 73 161
M  V30 164 1 73 162
M  V30 165 1 73 163
M  V30 END BOND
M  V30 END CTAB
M  END
