
     RDKit          3D

  0  0  0  0  0  0  0  0  0  0999 V3000
M  V30 BEGIN CTAB
M  V30 COUNTS 19 19 0 0 0
M  V30 BEGIN ATOM
M  V30 1 O -1.32003 2.05788 -0.173519 0
M  V30 2 N -1.94303 1.08261 0.34377 0
M  V30 3 C -1.75978 -0.0742092 0.657921 0
M  V30 4 C -0.645409 -0.952525 0.581237 0
M  V30 5 N -0.833506 -2.28303 1.05701 0
M  V30 6 O 0.257469 -2.90341 0.913829 0
M  V30 7 N 1.15445 -2.17057 0.406365 0
M  V30 8 C 0.61308 -0.883182 0.170526 0
M  V30 9 C 1.47879 0.103864 -0.396581 0
M  V30 10 N 2.75648 -0.300706 -0.659345 0
M  V30 11 O 3.55062 0.670857 -1.19993 0
M  V30 12 N 1.33985 1.42808 -0.755799 0
M  V30 13 N -2.96367 -0.717124 1.25921 0
M  V30 14 H -1.49548 2.34923 -1.15225 0
M  V30 15 H 3.93249 0.51606 -2.14001 0
M  V30 16 H 1.0629 1.75694 -1.70623 0
M  V30 17 H 1.52692 2.1727 -0.0492741 0
M  V30 18 H -3.6411 -1.07568 0.578356 0
M  V30 19 H -3.07104 -0.777776 2.26471 0
M  V30 END ATOM
M  V30 BEGIN BOND
M  V30 1 1 1 2
M  V30 2 2 2 3
M  V30 3 1 3 4
M  V30 4 2 4 5
M  V30 5 1 5 6
M  V30 6 1 6 7
M  V30 7 2 7 8
M  V30 8 1 8 9
M  V30 9 2 9 10
M  V30 10 1 10 11
M  V30 11 1 9 12
M  V30 12 1 3 13
M  V30 13 1 8 4
M  V30 14 1 1 14
M  V30 15 1 11 15
M  V30 16 1 12 16
M  V30 17 1 12 17
M  V30 18 1 13 18
M  V30 19 1 13 19
M  V30 END BOND
M  V30 END CTAB
M  END
