
     RDKit          3D

  0  0  0  0  0  0  0  0  0  0999 V3000
M  V30 BEGIN CTAB
M  V30 COUNTS 30 30 0 0 0
M  V30 BEGIN ATOM
M  V30 1 C -0.863415 -1.94697 -1.38286 0
M  V30 2 N -0.448046 -0.63607 -0.820549 0
M  V30 3 C 0.904762 -0.559313 -0.435188 0
M  V30 4 N 1.75877 -1.60293 -0.684562 0
M  V30 5 C 3.03856 -1.63246 -0.375328 0
M  V30 6 C 3.63383 -0.560204 0.252045 0
M  V30 7 C 2.84138 0.535119 0.54029 0
M  V30 8 C 1.48553 0.5137 0.188996 0
M  V30 9 N 0.758543 1.68728 0.532419 0
M  V30 10 N 3.36521 1.68355 1.18399 0
M  V30 11 C -1.48301 0.327309 -0.779294 0
M  V30 12 C -2.52557 -0.0862002 0.236414 0
M  V30 13 O -2.00374 -0.197354 1.5124 0
M  V30 14 C -3.67553 0.894307 0.286968 0
M  V30 15 H -1.94593 -2.01597 -1.49087 0
M  V30 16 H -0.44233 -2.06017 -2.42182 0
M  V30 17 H -0.438415 -2.69917 -0.703926 0
M  V30 18 H 3.66234 -2.48998 -0.600733 0
M  V30 19 H 4.67577 -0.565783 0.510643 0
M  V30 20 H 0.211959 1.75702 1.42081 0
M  V30 21 H 0.802677 2.47636 -0.154086 0
M  V30 22 H 3.97206 2.31416 0.621899 0
M  V30 23 H 3.18605 1.93287 2.16451 0
M  V30 24 H -1.24394 1.37838 -0.754135 0
M  V30 25 H -2.0508 0.219278 -1.78312 0
M  V30 26 H -2.94146 -1.08423 -0.0113941 0
M  V30 27 H -2.41916 -0.88013 2.0659 0
M  V30 28 H -3.36905 1.76035 0.885638 0
M  V30 29 H -4.53433 0.346947 0.753755 0
M  V30 30 H -3.9127 1.19031 -0.75882 0
M  V30 END ATOM
M  V30 BEGIN BOND
M  V30 1 1 1 2
M  V30 2 1 2 3
M  V30 3 2 3 4
M  V30 4 1 4 5
M  V30 5 2 5 6
M  V30 6 1 6 7
M  V30 7 2 7 8
M  V30 8 1 8 9
M  V30 9 1 7 10
M  V30 10 1 2 11
M  V30 11 1 11 12
M  V30 12 1 12 13
M  V30 13 1 12 14
M  V30 14 1 8 3
M  V30 15 1 1 15
M  V30 16 1 1 16
M  V30 17 1 1 17
M  V30 18 1 5 18
M  V30 19 1 6 19
M  V30 20 1 9 20
M  V30 21 1 9 21
M  V30 22 1 10 22
M  V30 23 1 10 23
M  V30 24 1 11 24
M  V30 25 1 11 25
M  V30 26 1 12 26
M  V30 27 1 13 27
M  V30 28 1 14 28
M  V30 29 1 14 29
M  V30 30 1 14 30
M  V30 END BOND
M  V30 END CTAB
M  END
