
     RDKit          3D

  0  0  0  0  0  0  0  0  0  0999 V3000
M  V30 BEGIN CTAB
M  V30 COUNTS 30 29 0 0 0
M  V30 BEGIN ATOM
M  V30 1 C 4.14066 1.7955 0.226854 0
M  V30 2 O 3.09367 1.13389 -0.473884 0
M  V30 3 C 2.60537 -0.0962712 -0.0907591 0
M  V30 4 O 3.07575 -0.681357 0.903764 0
M  V30 5 C 1.50948 -0.743417 -0.859209 0
M  V30 6 N 1.18168 -1.99435 -0.27495 0
M  V30 7 C 0.392373 0.192592 -1.15788 0
M  V30 8 C -0.306127 0.816477 -0.0199911 0
M  V30 9 C -1.03828 -0.092061 0.922069 0
M  V30 10 N -1.60632 0.769301 1.97722 0
M  V30 11 C -2.25245 -0.675689 0.250553 0
M  V30 12 O -2.20914 -1.48226 -0.70341 0
M  V30 13 O -3.55619 -0.345072 0.660937 0
M  V30 14 C -4.70149 -0.885569 0.0393593 0
M  V30 15 H 4.33088 1.21509 1.16394 0
M  V30 16 H 5.08044 1.80216 -0.367961 0
M  V30 17 H 3.77911 2.82224 0.441033 0
M  V30 18 H 1.99771 -0.975355 -1.8736 0
M  V30 19 H 1.57474 -2.07625 0.700078 0
M  V30 20 H 1.41995 -2.80451 -0.855772 0
M  V30 21 H 0.815524 0.997861 -1.84101 0
M  V30 22 H -0.369301 -0.343696 -1.79895 0
M  V30 23 H 0.410558 1.43731 0.579627 0
M  V30 24 H -1.03485 1.59518 -0.416252 0
M  V30 25 H -0.404009 -0.860987 1.33153 0
M  V30 26 H -0.962765 0.882133 2.76613 0
M  V30 27 H -1.8558 1.66776 1.52382 0
M  V30 28 H -5.25247 -1.4455 0.834044 0
M  V30 29 H -5.39659 -0.102406 -0.323748 0
M  V30 30 H -4.4621 -1.52274 -0.824505 0
M  V30 END ATOM
M  V30 BEGIN BOND
M  V30 1 1 1 2
M  V30 2 1 2 3
M  V30 3 2 3 4
M  V30 4 1 3 5
M  V30 5 1 5 6
M  V30 6 1 5 7
M  V30 7 1 7 8
M  V30 8 1 8 9
M  V30 9 1 9 10
M  V30 10 1 9 11
M  V30 11 2 11 12
M  V30 12 1 11 13
M  V30 13 1 13 14
M  V30 14 1 1 15
M  V30 15 1 1 16
M  V30 16 1 1 17
M  V30 17 1 5 18
M  V30 18 1 6 19
M  V30 19 1 6 20
M  V30 20 1 7 21
M  V30 21 1 7 22
M  V30 22 1 8 23
M  V30 23 1 8 24
M  V30 24 1 9 25
M  V30 25 1 10 26
M  V30 26 1 10 27
M  V30 27 1 14 28
M  V30 28 1 14 29
M  V30 29 1 14 30
M  V30 END BOND
M  V30 END CTAB
M  END
