
     RDKit          3D

  0  0  0  0  0  0  0  0  0  0999 V3000
M  V30 BEGIN CTAB
M  V30 COUNTS 17 17 0 0 0
M  V30 BEGIN ATOM
M  V30 1 N -3.46915 0.0213609 -0.184548 0
M  V30 2 C -2.0389 0.0671001 -0.200689 0
M  V30 3 C -1.37935 0.758633 0.780413 0
M  V30 4 C 0.00147773 0.812549 0.779228 0
M  V30 5 C 0.662863 0.152427 -0.232725 0
M  V30 6 N -0.0690045 -0.509732 -1.16629 0
M  V30 7 N -1.36797 -0.565872 -1.17318 0
M  V30 8 S 2.41085 0.174097 -0.302526 0
M  V30 9 O 2.79798 0.702129 -1.6637 0
M  V30 10 O 2.92404 1.04283 0.786448 0
M  V30 11 N 2.96023 -1.44065 -0.205019 0
M  V30 12 H -3.90265 -0.661814 0.450423 0
M  V30 13 H -3.96725 0.680156 -0.814104 0
M  V30 14 H -1.91697 1.27015 1.56604 0
M  V30 15 H 0.545454 1.36324 1.55944 0
M  V30 16 H 2.32408 -2.09261 0.251551 0
M  V30 17 H 3.48426 -1.774 -1.01331 0
M  V30 END ATOM
M  V30 BEGIN BOND
M  V30 1 1 1 2
M  V30 2 2 2 3
M  V30 3 1 3 4
M  V30 4 2 4 5
M  V30 5 1 5 6
M  V30 6 2 6 7
M  V30 7 1 5 8
M  V30 8 2 8 9
M  V30 9 2 8 10
M  V30 10 1 8 11
M  V30 11 1 7 2
M  V30 12 1 1 12
M  V30 13 1 1 13
M  V30 14 1 3 14
M  V30 15 1 4 15
M  V30 16 1 11 16
M  V30 17 1 11 17
M  V30 END BOND
M  V30 END CTAB
M  END
