
     RDKit          3D

  0  0  0  0  0  0  0  0  0  0999 V3000
M  V30 BEGIN CTAB
M  V30 COUNTS 68 71 0 0 0
M  V30 BEGIN ATOM
M  V30 1 C -2.70266 -0.837003 4.34154 0
M  V30 2 O -4.02202 -1.22345 4.14646 0
M  V30 3 C -4.75371 -1.10312 2.97605 0
M  V30 4 C -6.05552 -1.54956 2.99377 0
M  V30 5 C -6.84849 -1.46521 1.87035 0
M  V30 6 C -6.29276 -0.919457 0.732359 0
M  V30 7 C -4.99725 -0.458313 0.658907 0
M  V30 8 C -4.26289 -0.574458 1.82089 0
M  V30 9 C -4.55024 0.129949 -0.581535 0
M  V30 10 C -3.45757 -0.195664 -1.25591 0
M  V30 11 C -3.26886 0.613115 -2.51463 0
M  V30 12 C -4.48125 0.501364 -3.40167 0
M  V30 13 C -5.72492 0.800437 -2.63274 0
M  V30 14 C -5.36333 1.23063 -1.24284 0
M  V30 15 C -2.55374 -1.25469 -0.869552 0
M  V30 16 O -1.24596 -0.722819 -0.838822 0
M  V30 17 C -0.262594 -0.884928 0.0667698 0
M  V30 18 C 0.9334 -0.210079 -0.177464 0
M  V30 19 C 2.02092 -0.288016 0.661678 0
M  V30 20 N 1.932 -1.06024 1.78751 0
M  V30 21 C 0.78561 -1.70884 2.02576 0
M  V30 22 N 0.651977 -2.51459 3.18588 0
M  V30 23 N -0.285038 -1.62137 1.18336 0
M  V30 24 C 3.27701 0.395596 0.418259 0
M  V30 25 C 4.36976 0.178748 1.25604 0
M  V30 26 C 5.56771 0.803253 1.09598 0
M  V30 27 C 5.72322 1.70227 0.05275 0
M  V30 28 C 6.97789 2.42572 -0.225792 0
M  V30 29 C 7.82586 1.71941 -1.24113 0 CFG=2
M  V30 30 N 8.22381 0.391801 -0.86664 0
M  V30 31 C 9.05839 2.53096 -1.43972 0
M  V30 32 O 10.3064 1.97987 -1.38816 0
M  V30 33 O 8.93072 3.76621 -1.66231 0
M  V30 34 C 4.65917 1.95335 -0.813028 0
M  V30 35 C 3.46667 1.28383 -0.594446 0
M  V30 36 C -2.48602 -2.41898 -1.85222 0
M  V30 37 F -1.58619 -3.37022 -1.37092 0
M  V30 38 F -2.1753 -2.00956 -3.11196 0
M  V30 39 F -3.67799 -3.12221 -1.88576 0
M  V30 40 H -2.6267 0.113477 4.93832 0
M  V30 41 H -2.10158 -0.679066 3.43307 0
M  V30 42 H -2.23278 -1.61284 5.00844 0
M  V30 43 H -6.45102 -1.97135 3.91109 0
M  V30 44 H -7.87588 -1.81419 1.86705 0
M  V30 45 H -6.93962 -0.864494 -0.138313 0
M  V30 46 H -3.24062 -0.214695 1.81679 0
M  V30 47 H -2.35652 0.406958 -3.05252 0
M  V30 48 H -3.19849 1.71579 -2.25737 0
M  V30 49 H -4.42494 1.18203 -4.27371 0
M  V30 50 H -4.59058 -0.51442 -3.8408 0
M  V30 51 H -6.25086 1.6659 -3.13291 0
M  V30 52 H -6.41883 -0.06469 -2.55941 0
M  V30 53 H -4.85464 2.19542 -1.18521 0
M  V30 54 H -6.32347 1.28871 -0.674478 0
M  V30 55 H -2.72777 -1.73975 0.101954 0
M  V30 56 H 1.01833 0.40256 -1.05822 0
M  V30 57 H 0.351517 -2.06189 4.07255 0
M  V30 58 H 0.84627 -3.53334 3.16407 0
M  V30 59 H 4.25022 -0.530141 2.07916 0
M  V30 60 H 6.41517 0.637256 1.74467 0
M  V30 61 H 7.50975 2.56495 0.744656 0
M  V30 62 H 6.71284 3.42598 -0.63213 0
M  V30 63 H 7.26721 1.66033 -2.20179 0
M  V30 64 H 8.99058 0.0215343 -1.47162 0
M  V30 65 H 7.40954 -0.267512 -0.821987 0
M  V30 66 H 10.7641 1.54659 -2.18457 0
M  V30 67 H 4.77474 2.65285 -1.62575 0
M  V30 68 H 2.64782 1.49433 -1.28078 0
M  V30 END ATOM
M  V30 BEGIN BOND
M  V30 1 1 1 2
M  V30 2 1 2 3
M  V30 3 2 3 4
M  V30 4 1 4 5
M  V30 5 2 5 6
M  V30 6 1 6 7
M  V30 7 2 7 8
M  V30 8 1 7 9
M  V30 9 2 9 10
M  V30 10 1 10 11
M  V30 11 1 11 12
M  V30 12 1 12 13
M  V30 13 1 13 14
M  V30 14 1 10 15
M  V30 15 1 15 16
M  V30 16 1 16 17
M  V30 17 2 17 18
M  V30 18 1 18 19
M  V30 19 2 19 20
M  V30 20 1 20 21
M  V30 21 1 21 22
M  V30 22 2 21 23
M  V30 23 1 19 24
M  V30 24 2 24 25
M  V30 25 1 25 26
M  V30 26 2 26 27
M  V30 27 1 27 28
M  V30 28 1 28 29
M  V30 29 1 29 30
M  V30 30 1 29 31
M  V30 31 1 31 32
M  V30 32 2 31 33
M  V30 33 1 27 34
M  V30 34 2 34 35
M  V30 35 1 15 36
M  V30 36 1 36 37
M  V30 37 1 36 38
M  V30 38 1 36 39
M  V30 39 1 8 3
M  V30 40 1 14 9
M  V30 41 1 23 17
M  V30 42 1 35 24
M  V30 43 1 1 40
M  V30 44 1 1 41
M  V30 45 1 1 42
M  V30 46 1 4 43
M  V30 47 1 5 44
M  V30 48 1 6 45
M  V30 49 1 8 46
M  V30 50 1 11 47
M  V30 51 1 11 48
M  V30 52 1 12 49
M  V30 53 1 12 50
M  V30 54 1 13 51
M  V30 55 1 13 52
M  V30 56 1 14 53
M  V30 57 1 14 54
M  V30 58 1 15 55
M  V30 59 1 18 56
M  V30 60 1 22 57
M  V30 61 1 22 58
M  V30 62 1 25 59
M  V30 63 1 26 60
M  V30 64 1 28 61
M  V30 65 1 28 62
M  V30 66 1 29 63 CFG=3
M  V30 67 1 30 64
M  V30 68 1 30 65
M  V30 69 1 32 66
M  V30 70 1 34 67
M  V30 71 1 35 68
M  V30 END BOND
M  V30 END CTAB
M  END
