
     RDKit          3D

  0  0  0  0  0  0  0  0  0  0999 V3000
M  V30 BEGIN CTAB
M  V30 COUNTS 47 49 0 0 0
M  V30 BEGIN ATOM
M  V30 1 C -4.87263 1.55779 -2.45969 0
M  V30 2 C -4.63606 1.18621 -1.03797 0
M  V30 3 C -5.58369 1.53736 -0.107605 0
M  V30 4 C -5.40343 1.21446 1.20895 0
M  V30 5 C -4.25396 0.524899 1.6226 0
M  V30 6 C -3.29063 0.162301 0.714496 0
M  V30 7 C -3.5316 0.519761 -0.617397 0
M  V30 8 C -2.06674 -0.549703 1.08695 0
M  V30 9 O -1.67316 -0.494247 2.27258 0
M  V30 10 C -1.29888 -1.3168 0.118803 0
M  V30 11 C -1.99273 -2.33747 -0.565508 0
M  V30 12 C -1.31578 -3.14751 -1.43987 0
M  V30 13 C 0.032729 -2.93757 -1.625 0
M  V30 14 C 0.685853 -1.93507 -0.947319 0
M  V30 15 C 0.035671 -1.08122 -0.0441124 0
M  V30 16 C 0.773833 -0.0114511 0.572325 0
M  V30 17 O 0.381845 0.894056 1.30968 0
M  V30 18 O 2.17085 0.045436 0.317442 0
M  V30 19 C 2.99129 1.05085 0.865425 0
M  V30 20 C 4.36621 0.786309 0.383641 0
M  V30 21 N 5.25401 1.77455 0.179057 0
M  V30 22 C 6.50147 1.5398 -0.255648 0
M  V30 23 N 7.43374 2.61585 -0.470353 0
M  V30 24 N 6.86356 0.269714 -0.490297 0
M  V30 25 C 6.01386 -0.752736 -0.301067 0
M  V30 26 N 4.77622 -0.467388 0.134768 0
M  V30 27 N 6.45778 -2.06874 -0.562204 0
M  V30 28 C -4.09284 0.186272 3.0411 0
M  V30 29 H -5.61447 0.846864 -2.91203 0
M  V30 30 H -5.32814 2.58757 -2.46272 0
M  V30 31 H -3.93626 1.55079 -3.06117 0
M  V30 32 H -6.50486 2.07707 -0.366676 0
M  V30 33 H -6.12395 1.46746 1.99125 0
M  V30 34 H -2.77599 0.239214 -1.35097 0
M  V30 35 H -3.06602 -2.46496 -0.386142 0
M  V30 36 H -1.86044 -3.93279 -1.96478 0
M  V30 37 H 0.553497 -3.59379 -2.32362 0
M  V30 38 H 1.76249 -1.76633 -1.09431 0
M  V30 39 H 2.70095 2.07296 0.571795 0
M  V30 40 H 2.96685 0.948965 1.97244 0
M  V30 41 H 8.04935 2.96607 0.293564 0
M  V30 42 H 7.52479 3.0885 -1.41531 0
M  V30 43 H 6.2464 -2.50521 -1.4681 0
M  V30 44 H 6.98812 -2.58061 0.155244 0
M  V30 45 H -3.32553 0.807313 3.51172 0
M  V30 46 H -5.07138 0.34766 3.5712 0
M  V30 47 H -3.91222 -0.922465 3.14924 0
M  V30 END ATOM
M  V30 BEGIN BOND
M  V30 1 1 1 2
M  V30 2 2 2 3
M  V30 3 1 3 4
M  V30 4 2 4 5
M  V30 5 1 5 6
M  V30 6 2 6 7
M  V30 7 1 6 8
M  V30 8 2 8 9
M  V30 9 1 8 10
M  V30 10 2 10 11
M  V30 11 1 11 12
M  V30 12 2 12 13
M  V30 13 1 13 14
M  V30 14 2 14 15
M  V30 15 1 15 16
M  V30 16 2 16 17
M  V30 17 1 16 18
M  V30 18 1 18 19
M  V30 19 1 19 20
M  V30 20 2 20 21
M  V30 21 1 21 22
M  V30 22 1 22 23
M  V30 23 2 22 24
M  V30 24 1 24 25
M  V30 25 2 25 26
M  V30 26 1 25 27
M  V30 27 1 5 28
M  V30 28 1 7 2
M  V30 29 1 15 10
M  V30 30 1 26 20
M  V30 31 1 1 29
M  V30 32 1 1 30
M  V30 33 1 1 31
M  V30 34 1 3 32
M  V30 35 1 4 33
M  V30 36 1 7 34
M  V30 37 1 11 35
M  V30 38 1 12 36
M  V30 39 1 13 37
M  V30 40 1 14 38
M  V30 41 1 19 39
M  V30 42 1 19 40
M  V30 43 1 23 41
M  V30 44 1 23 42
M  V30 45 1 27 43
M  V30 46 1 27 44
M  V30 47 1 28 45
M  V30 48 1 28 46
M  V30 49 1 28 47
M  V30 END BOND
M  V30 END CTAB
M  END
