
     RDKit          3D

  0  0  0  0  0  0  0  0  0  0999 V3000
M  V30 BEGIN CTAB
M  V30 COUNTS 40 42 0 0 0
M  V30 BEGIN ATOM
M  V30 1 N -3.27965 -2.26399 0.280961 0
M  V30 2 C -2.03169 -2.82365 -0.17367 0
M  V30 3 C -1.37532 -1.99474 -1.23136 0
M  V30 4 N -1.03185 -0.670402 -0.912405 0
M  V30 5 C -2.30127 0.0693045 -0.806156 0
M  V30 6 C -1.88423 1.48076 -1.3 0
M  V30 7 C -1.13897 1.99331 -0.123264 0
M  V30 8 C -0.381791 1.06703 0.559875 0
M  V30 9 C -0.216087 -0.359125 0.181209 0 CFG=2
M  V30 10 C 1.25349 -0.594528 -0.0131365 0
M  V30 11 C 1.78571 -1.81125 -0.364356 0
M  V30 12 C 3.14732 -2.02329 -0.569468 0
M  V30 13 C 3.99141 -0.953747 -0.408162 0
M  V30 14 C 3.46507 0.255475 -0.0590851 0
M  V30 15 N 2.16018 0.402948 0.123301 0
M  V30 16 N 4.40541 1.3339 0.0974214 0
M  V30 17 C 0.289043 1.5438 1.70115 0
M  V30 18 C 0.211704 2.84629 2.12724 0
M  V30 19 C -0.552991 3.73984 1.41622 0
M  V30 20 C -1.23539 3.2985 0.275523 0
M  V30 21 H -3.08599 -1.89638 1.25617 0
M  V30 22 H -3.98019 -3.04213 0.461019 0
M  V30 23 H -2.30257 -3.79426 -0.683005 0
M  V30 24 H -1.35856 -3.10209 0.657604 0
M  V30 25 H -2.22941 -1.874 -2.00928 0
M  V30 26 H -0.643058 -2.56372 -1.85419 0
M  V30 27 H -3.09031 -0.3476 -1.43822 0
M  V30 28 H -2.60464 0.210188 0.243732 0
M  V30 29 H -2.78217 2.04884 -1.54893 0
M  V30 30 H -1.20124 1.34484 -2.17828 0
M  V30 31 H -0.473276 -0.916691 1.1215 0
M  V30 32 H 1.18056 -2.68017 -0.487044 0
M  V30 33 H 3.5187 -3.01414 -0.852925 0
M  V30 34 H 5.05799 -1.10819 -0.564099 0
M  V30 35 H 5.36095 1.13129 0.503395 0
M  V30 36 H 4.18632 2.29746 -0.168027 0
M  V30 37 H 0.885332 0.844138 2.27334 0
M  V30 38 H 0.74653 3.18859 3.02292 0
M  V30 39 H -0.619269 4.76271 1.74622 0
M  V30 40 H -1.8458 3.9749 -0.303737 0
M  V30 END ATOM
M  V30 BEGIN BOND
M  V30 1 1 1 2
M  V30 2 1 2 3
M  V30 3 1 3 4
M  V30 4 1 4 5
M  V30 5 1 5 6
M  V30 6 1 6 7
M  V30 7 2 7 8
M  V30 8 1 8 9
M  V30 9 1 9 10
M  V30 10 2 10 11
M  V30 11 1 11 12
M  V30 12 2 12 13
M  V30 13 1 13 14
M  V30 14 2 14 15
M  V30 15 1 14 16
M  V30 16 1 8 17
M  V30 17 2 17 18
M  V30 18 1 18 19
M  V30 19 2 19 20
M  V30 20 1 9 4
M  V30 21 1 15 10
M  V30 22 1 20 7
M  V30 23 1 1 21
M  V30 24 1 1 22
M  V30 25 1 2 23
M  V30 26 1 2 24
M  V30 27 1 3 25
M  V30 28 1 3 26
M  V30 29 1 5 27
M  V30 30 1 5 28
M  V30 31 1 6 29
M  V30 32 1 6 30
M  V30 33 1 9 31 CFG=1
M  V30 34 1 11 32
M  V30 35 1 12 33
M  V30 36 1 13 34
M  V30 37 1 16 35
M  V30 38 1 16 36
M  V30 39 1 17 37
M  V30 40 1 18 38
M  V30 41 1 19 39
M  V30 42 1 20 40
M  V30 END BOND
M  V30 END CTAB
M  END
