
     RDKit          3D

  0  0  0  0  0  0  0  0  0  0999 V3000
M  V30 BEGIN CTAB
M  V30 COUNTS 59 62 0 0 0
M  V30 BEGIN ATOM
M  V30 1 C -6.38271 0.85166 -1.73526 0
M  V30 2 C -6.54255 -0.186613 -0.635036 0
M  V30 3 C -6.12944 -1.51271 -1.24008 0
M  V30 4 N -7.90952 -0.168372 -0.226731 0
M  V30 5 C -8.26677 0.0567215 0.981592 0
M  V30 6 N -9.6642 0.0611738 1.32815 0
M  V30 7 N -7.37805 0.313342 2.05731 0
M  V30 8 C -6.11717 0.321472 1.80404 0
M  V30 9 N -5.16321 0.572166 2.83511 0
M  V30 10 N -5.69253 0.077896 0.48584 0
M  V30 11 C -4.2745 0.0960532 0.239881 0
M  V30 12 C -3.7368 1.33074 -0.109436 0
M  V30 13 C -2.38042 1.40539 -0.356603 0
M  V30 14 Cl -1.66029 2.93406 -0.798394 0
M  V30 15 C -1.58579 0.270889 -0.255669 0
M  V30 16 O -0.228941 0.387315 -0.511635 0
M  V30 17 C 0.575356 -0.771113 -0.40737 0
M  V30 18 C 1.9845 -0.406586 -0.724017 0
M  V30 19 C 2.31478 0.898179 -1.05171 0
M  V30 20 C 3.6165 1.25828 -1.34915 0
M  V30 21 C 4.6133 0.295783 -1.31951 0
M  V30 22 C 4.32171 -1.01008 -0.998197 0
M  V30 23 C 3.00736 -1.31904 -0.709232 0
M  V30 24 S 6.25439 0.767781 -1.69828 0
M  V30 25 O 7.01036 -0.382263 -2.32821 0
M  V30 26 O 6.17205 1.93337 -2.65532 0
M  V30 27 O 6.99495 1.23104 -0.236079 0
M  V30 28 C 8.13666 0.562576 0.18097 0
M  V30 29 C 9.37458 1.01548 -0.202517 0
M  V30 30 C 10.5521 0.385206 0.185637 0
M  V30 31 F 11.7728 0.845438 -0.202195 0
M  V30 32 C 10.482 -0.72648 0.977985 0
M  V30 33 C 9.24554 -1.20507 1.37962 0
M  V30 34 C 8.08989 -0.562094 0.981353 0
M  V30 35 C -2.15154 -0.931816 0.0917638 0
M  V30 36 C -3.51769 -1.0446 0.348552 0
M  V30 37 H -5.39451 0.67562 -2.24098 0
M  V30 38 H -7.15327 0.638142 -2.50354 0
M  V30 39 H -6.44357 1.88298 -1.36067 0
M  V30 40 H -6.90317 -1.73397 -2.03127 0
M  V30 41 H -6.05667 -2.31042 -0.492848 0
M  V30 42 H -5.17748 -1.40751 -1.79908 0
M  V30 43 H -10.2144 -0.765205 1.0121 0
M  V30 44 H -10.0607 0.863528 1.86423 0
M  V30 45 H -4.74372 -0.217487 3.39312 0
M  V30 46 H -4.87351 1.55795 3.04251 0
M  V30 47 H -4.34309 2.22595 -0.192623 0
M  V30 48 H 0.563649 -1.08717 0.667536 0
M  V30 49 H 0.207607 -1.59109 -1.05681 0
M  V30 50 H 1.5415 1.65885 -1.07758 0
M  V30 51 H 3.86731 2.28145 -1.60471 0
M  V30 52 H 5.10535 -1.77086 -0.97407 0
M  V30 53 H 2.73986 -2.34358 -0.450513 0
M  V30 54 H 9.43553 1.90073 -0.833736 0
M  V30 55 H 11.3954 -1.23613 1.29382 0
M  V30 56 H 9.18909 -2.09888 2.01665 0
M  V30 57 H 7.10966 -0.939059 1.29802 0
M  V30 58 H -1.5727 -1.83463 0.18122 0
M  V30 59 H -3.95488 -1.99438 0.621332 0
M  V30 END ATOM
M  V30 BEGIN BOND
M  V30 1 1 1 2
M  V30 2 1 2 3
M  V30 3 1 2 4
M  V30 4 2 4 5
M  V30 5 1 5 6
M  V30 6 1 5 7
M  V30 7 2 7 8
M  V30 8 1 8 9
M  V30 9 1 8 10
M  V30 10 1 10 11
M  V30 11 2 11 12
M  V30 12 1 12 13
M  V30 13 1 13 14
M  V30 14 2 13 15
M  V30 15 1 15 16
M  V30 16 1 16 17
M  V30 17 1 17 18
M  V30 18 2 18 19
M  V30 19 1 19 20
M  V30 20 2 20 21
M  V30 21 1 21 22
M  V30 22 2 22 23
M  V30 23 1 21 24
M  V30 24 2 24 25
M  V30 25 2 24 26
M  V30 26 1 24 27
M  V30 27 1 27 28
M  V30 28 2 28 29
M  V30 29 1 29 30
M  V30 30 1 30 31
M  V30 31 2 30 32
M  V30 32 1 32 33
M  V30 33 2 33 34
M  V30 34 1 15 35
M  V30 35 2 35 36
M  V30 36 1 10 2
M  V30 37 1 36 11
M  V30 38 1 23 18
M  V30 39 1 34 28
M  V30 40 1 1 37
M  V30 41 1 1 38
M  V30 42 1 1 39
M  V30 43 1 3 40
M  V30 44 1 3 41
M  V30 45 1 3 42
M  V30 46 1 6 43
M  V30 47 1 6 44
M  V30 48 1 9 45
M  V30 49 1 9 46
M  V30 50 1 12 47
M  V30 51 1 17 48
M  V30 52 1 17 49
M  V30 53 1 19 50
M  V30 54 1 20 51
M  V30 55 1 22 52
M  V30 56 1 23 53
M  V30 57 1 29 54
M  V30 58 1 32 55
M  V30 59 1 33 56
M  V30 60 1 34 57
M  V30 61 1 35 58
M  V30 62 1 36 59
M  V30 END BOND
M  V30 END CTAB
M  END
