
     RDKit          3D

  0  0  0  0  0  0  0  0  0  0999 V3000
M  V30 BEGIN CTAB
M  V30 COUNTS 45 46 0 0 0
M  V30 BEGIN ATOM
M  V30 1 C 2.69624 -1.62277 -1.62683 0 CFG=1
M  V30 2 N 2.34729 -0.390323 -2.29659 0
M  V30 3 C 4.10481 -1.58036 -1.09248 0
M  V30 4 C 4.22688 -0.459566 -0.124214 0
M  V30 5 C 4.58777 0.798663 -0.618098 0
M  V30 6 C 4.70959 1.84637 0.254272 0
M  V30 7 C 4.47917 1.66025 1.59904 0
M  V30 8 O 4.6041 2.72196 2.47208 0
M  V30 9 C 4.12285 0.42983 2.10683 0
M  V30 10 C 3.99871 -0.629701 1.23181 0
M  V30 11 C 1.66987 -1.9416 -0.630821 0
M  V30 12 O 1.76041 -2.98766 0.0410809 0
M  V30 13 O 0.606562 -1.09457 -0.43167 0
M  V30 14 C -0.406033 -1.31772 0.486333 0
M  V30 15 O -0.332701 -2.38049 1.18296 0
M  V30 16 C -1.54931 -0.387668 0.686812 0 CFG=1
M  V30 17 N -1.34274 0.721232 -0.252411 0
M  V30 18 C -2.82346 -1.08682 0.271275 0
M  V30 19 C -4.0057 -0.240211 0.436194 0
M  V30 20 C -4.44165 0.581807 -0.599216 0
M  V30 21 C -5.55598 1.36901 -0.420598 0
M  V30 22 C -6.26155 1.36497 0.772936 0
M  V30 23 O -7.39075 2.19607 0.88214 0
M  V30 24 C -5.8434 0.558667 1.80445 0
M  V30 25 C -4.70986 -0.239709 1.61759 0
M  V30 26 H 2.64926 -2.44086 -2.395 0
M  V30 27 H 2.06801 0.359641 -1.62594 0
M  V30 28 H 1.5274 -0.529333 -2.92846 0
M  V30 29 H 4.40726 -2.54579 -0.644263 0
M  V30 30 H 4.76649 -1.34553 -1.9505 0
M  V30 31 H 4.77233 0.959197 -1.67611 0
M  V30 32 H 4.98705 2.8509 -0.0634621 0
M  V30 33 H 4.44599 2.63294 3.45944 0
M  V30 34 H 3.93709 0.256264 3.15182 0
M  V30 35 H 3.7219 -1.59228 1.62995 0
M  V30 36 H -1.58646 -0.0208165 1.71735 0
M  V30 37 H -0.545333 1.27982 0.141457 0
M  V30 38 H -0.972907 0.277691 -1.13185 0
M  V30 39 H -2.69459 -1.41294 -0.785135 0
M  V30 40 H -2.97397 -2.01331 0.879496 0
M  V30 41 H -3.85948 0.551078 -1.51077 0
M  V30 42 H -5.86387 1.99789 -1.25576 0
M  V30 43 H -7.20319 3.13695 1.23438 0
M  V30 44 H -6.39697 0.558814 2.73373 0
M  V30 45 H -4.43712 -0.849988 2.47179 0
M  V30 END ATOM
M  V30 BEGIN BOND
M  V30 1 1 1 2
M  V30 2 1 1 3
M  V30 3 1 3 4
M  V30 4 2 4 5
M  V30 5 1 5 6
M  V30 6 2 6 7
M  V30 7 1 7 8
M  V30 8 1 7 9
M  V30 9 2 9 10
M  V30 10 1 1 11
M  V30 11 2 11 12
M  V30 12 1 11 13
M  V30 13 1 13 14
M  V30 14 2 14 15
M  V30 15 1 14 16
M  V30 16 1 16 17
M  V30 17 1 16 18
M  V30 18 1 18 19
M  V30 19 2 19 20
M  V30 20 1 20 21
M  V30 21 2 21 22
M  V30 22 1 22 23
M  V30 23 1 22 24
M  V30 24 2 24 25
M  V30 25 1 10 4
M  V30 26 1 25 19
M  V30 27 1 1 26 CFG=3
M  V30 28 1 2 27
M  V30 29 1 2 28
M  V30 30 1 3 29
M  V30 31 1 3 30
M  V30 32 1 5 31
M  V30 33 1 6 32
M  V30 34 1 8 33
M  V30 35 1 9 34
M  V30 36 1 10 35
M  V30 37 1 16 36 CFG=1
M  V30 38 1 17 37
M  V30 39 1 17 38
M  V30 40 1 18 39
M  V30 41 1 18 40
M  V30 42 1 20 41
M  V30 43 1 21 42
M  V30 44 1 23 43
M  V30 45 1 24 44
M  V30 46 1 25 45
M  V30 END BOND
M  V30 END CTAB
M  END
