
     RDKit          3D

  0  0  0  0  0  0  0  0  0  0999 V3000
M  V30 BEGIN CTAB
M  V30 COUNTS 27 27 0 0 0
M  V30 BEGIN ATOM
M  V30 1 C -2.28805 0.693934 1.38643 0
M  V30 2 N -2.05846 0.359123 -0.000761303 0
M  V30 3 C -0.892387 -0.382508 -0.316471 0
M  V30 4 C -1.07549 -1.62166 -0.923443 0
M  V30 5 C -0.0119413 -2.42349 -1.27187 0
M  V30 6 C 1.25005 -1.94441 -0.992534 0
M  V30 7 C 1.46983 -0.716598 -0.389681 0
M  V30 8 C 0.3924 0.0737087 -0.0473546 0
M  V30 9 N 0.577849 1.33004 0.567741 0
M  V30 10 S 3.12005 -0.192173 -0.0739148 0
M  V30 11 O 4.06642 -1.29518 -0.430153 0
M  V30 12 O 3.21681 -0.0142689 1.43028 0
M  V30 13 N 3.46619 1.27618 -0.893257 0
M  V30 14 C -3.02913 0.799841 -0.977655 0
M  V30 15 H -2.67379 1.7253 1.51108 0
M  V30 16 H -1.40257 0.479841 2.00648 0
M  V30 17 H -3.08433 -0.0186957 1.7495 0
M  V30 18 H -2.07984 -1.99822 -1.14347 0
M  V30 19 H -0.131254 -3.3882 -1.74354 0
M  V30 20 H 2.12026 -2.53791 -1.24732 0
M  V30 21 H 0.800895 1.36826 1.57422 0
M  V30 22 H 0.489018 2.19153 0.00816894 0
M  V30 23 H 3.28724 2.12171 -0.337116 0
M  V30 24 H 4.37616 1.25212 -1.38761 0
M  V30 25 H -3.29305 1.8638 -0.723034 0
M  V30 26 H -3.98405 0.236481 -0.902043 0
M  V30 27 H -2.62881 0.761442 -2.0102 0
M  V30 END ATOM
M  V30 BEGIN BOND
M  V30 1 1 1 2
M  V30 2 1 2 3
M  V30 3 2 3 4
M  V30 4 1 4 5
M  V30 5 2 5 6
M  V30 6 1 6 7
M  V30 7 2 7 8
M  V30 8 1 8 9
M  V30 9 1 7 10
M  V30 10 2 10 11
M  V30 11 2 10 12
M  V30 12 1 10 13
M  V30 13 1 2 14
M  V30 14 1 8 3
M  V30 15 1 1 15
M  V30 16 1 1 16
M  V30 17 1 1 17
M  V30 18 1 4 18
M  V30 19 1 5 19
M  V30 20 1 6 20
M  V30 21 1 9 21
M  V30 22 1 9 22
M  V30 23 1 13 23
M  V30 24 1 13 24
M  V30 25 1 14 25
M  V30 26 1 14 26
M  V30 27 1 14 27
M  V30 END BOND
M  V30 END CTAB
M  END
