
     RDKit          3D

  0  0  0  0  0  0  0  0  0  0999 V3000
M  V30 BEGIN CTAB
M  V30 COUNTS 71 74 0 0 0
M  V30 BEGIN ATOM
M  V30 1 N 7.25929 3.0467 0.952356 0
M  V30 2 C 5.81552 3.0789 0.850529 0
M  V30 3 C 5.30334 1.69335 0.430648 0
M  V30 4 O 3.91339 1.72183 0.33164 0
M  V30 5 B 3.36448 0.426408 -0.0606119 0
M  V30 6 C 4.20814 -0.349841 -1.14033 0
M  V30 7 C 4.29425 0.191814 -2.42187 0
M  V30 8 C 5.0218 -0.446617 -3.41277 0
M  V30 9 C 5.66584 -1.6277 -3.1279 0
M  V30 10 C 5.57255 -2.15041 -1.86047 0
M  V30 11 C 4.84671 -1.52279 -0.8543 0
M  V30 12 C 2.58048 -0.33551 1.06018 0
M  V30 13 C 3.03148 -0.397555 2.3577 0
M  V30 14 C 2.33822 -1.06538 3.33377 0
M  V30 15 C 1.16413 -1.67508 2.95541 0
M  V30 16 C 0.704299 -1.61172 1.63002 0
M  V30 17 C 1.38832 -0.949709 0.659213 0
M  V30 18 C 0.956765 -0.912684 -0.728233 0
M  V30 19 O -0.236113 -1.45515 -1.05318 0
M  V30 20 C -1.37568 -0.815188 -0.603615 0
M  V30 21 C -2.60606 -1.56981 -0.999992 0
M  V30 22 C -3.83394 -1.07197 -0.63109 0
M  V30 23 C -5.01768 -1.71308 -0.96059 0
M  V30 24 C -4.93507 -2.8991 -1.68964 0
M  V30 25 C -3.7085 -3.40306 -2.06218 0
M  V30 26 C -2.52398 -2.73936 -1.71899 0
M  V30 27 B -3.87217 0.251907 0.18123 0
M  V30 28 O -3.9035 0.317295 1.63609 0
M  V30 29 C -5.12726 -0.177394 2.12978 0
M  V30 30 C -5.15397 -0.107987 3.63676 0
M  V30 31 N -4.05495 -0.917152 4.17806 0
M  V30 32 C -3.93988 1.58648 -0.611679 0
M  V30 33 C -3.20101 2.7064 -0.280333 0
M  V30 34 C -3.26196 3.89005 -0.984411 0
M  V30 35 C -4.10039 3.97609 -2.08004 0
M  V30 36 C -4.84835 2.88311 -2.43704 0
M  V30 37 C -4.77452 1.71364 -1.72441 0
M  V30 38 H 7.58058 2.83682 1.93698 0
M  V30 39 H 7.68523 2.3278 0.293239 0
M  V30 40 H 5.4831 3.79179 0.0853176 0
M  V30 41 H 5.36403 3.2643 1.85657 0
M  V30 42 H 5.67914 0.99429 1.2048 0
M  V30 43 H 5.72459 1.44782 -0.565508 0
M  V30 44 H 3.80879 1.11293 -2.69471 0
M  V30 45 H 5.10409 -0.0484511 -4.41265 0
M  V30 46 H 6.22546 -2.1063 -3.91214 0
M  V30 47 H 6.09684 -3.09474 -1.66134 0
M  V30 48 H 4.78972 -1.95429 0.130718 0
M  V30 49 H 3.97622 0.102732 2.62481 0
M  V30 50 H 2.72884 -1.08852 4.34063 0
M  V30 51 H 0.613378 -2.20271 3.71921 0
M  V30 52 H -0.214341 -2.14888 1.46246 0
M  V30 53 H 1.72392 -1.30371 -1.44154 0
M  V30 54 H 0.899791 0.188634 -1.01105 0
M  V30 55 H -1.35165 -0.498908 0.423361 0
M  V30 56 H -1.47714 0.154859 -1.19848 0
M  V30 57 H -5.96185 -1.28648 -0.650576 0
M  V30 58 H -5.86632 -3.39615 -1.94423 0
M  V30 59 H -3.66175 -4.3204 -2.62511 0
M  V30 60 H -1.58228 -3.1554 -2.02281 0
M  V30 61 H -5.97718 0.443348 1.76231 0
M  V30 62 H -5.2538 -1.2355 1.83056 0
M  V30 63 H -4.99718 0.926059 3.98709 0
M  V30 64 H -6.11879 -0.533244 3.96282 0
M  V30 65 H -4.41791 -1.90958 4.22489 0
M  V30 66 H -3.29516 -0.892822 3.46543 0
M  V30 67 H -2.54403 2.61207 0.592494 0
M  V30 68 H -2.67641 4.73559 -0.699576 0
M  V30 69 H -4.18121 4.87417 -2.65766 0
M  V30 70 H -5.4976 2.95417 -3.28802 0
M  V30 71 H -5.36315 0.838974 -1.99796 0
M  V30 END ATOM
M  V30 BEGIN BOND
M  V30 1 1 1 2
M  V30 2 1 2 3
M  V30 3 1 3 4
M  V30 4 1 4 5
M  V30 5 1 5 6
M  V30 6 2 6 7
M  V30 7 1 7 8
M  V30 8 2 8 9
M  V30 9 1 9 10
M  V30 10 2 10 11
M  V30 11 1 5 12
M  V30 12 2 12 13
M  V30 13 1 13 14
M  V30 14 2 14 15
M  V30 15 1 15 16
M  V30 16 2 16 17
M  V30 17 1 17 18
M  V30 18 1 18 19
M  V30 19 1 19 20
M  V30 20 1 20 21
M  V30 21 1 21 22
M  V30 22 2 22 23
M  V30 23 1 23 24
M  V30 24 2 24 25
M  V30 25 1 25 26
M  V30 26 1 22 27
M  V30 27 1 27 28
M  V30 28 1 28 29
M  V30 29 1 29 30
M  V30 30 1 30 31
M  V30 31 1 27 32
M  V30 32 2 32 33
M  V30 33 1 33 34
M  V30 34 2 34 35
M  V30 35 1 35 36
M  V30 36 2 36 37
M  V30 37 1 11 6
M  V30 38 1 17 12
M  V30 39 2 26 21
M  V30 40 1 37 32
M  V30 41 1 1 38
M  V30 42 1 1 39
M  V30 43 1 2 40
M  V30 44 1 2 41
M  V30 45 1 3 42
M  V30 46 1 3 43
M  V30 47 1 7 44
M  V30 48 1 8 45
M  V30 49 1 9 46
M  V30 50 1 10 47
M  V30 51 1 11 48
M  V30 52 1 13 49
M  V30 53 1 14 50
M  V30 54 1 15 51
M  V30 55 1 16 52
M  V30 56 1 18 53
M  V30 57 1 18 54
M  V30 58 1 20 55
M  V30 59 1 20 56
M  V30 60 1 23 57
M  V30 61 1 24 58
M  V30 62 1 25 59
M  V30 63 1 26 60
M  V30 64 1 29 61
M  V30 65 1 29 62
M  V30 66 1 30 63
M  V30 67 1 30 64
M  V30 68 1 31 65
M  V30 69 1 31 66
M  V30 70 1 33 67
M  V30 71 1 34 68
M  V30 72 1 35 69
M  V30 73 1 36 70
M  V30 74 1 37 71
M  V30 END BOND
M  V30 END CTAB
M  END
