
     RDKit          3D

  0  0  0  0  0  0  0  0  0  0999 V3000
M  V30 BEGIN CTAB
M  V30 COUNTS 29 31 0 0 0
M  V30 BEGIN ATOM
M  V30 1 N -3.51664 2.7115 -0.688029 0
M  V30 2 C -3.0929 1.38431 -0.42433 0
M  V30 3 C -4.02312 0.390313 -0.275659 0
M  V30 4 C -3.69321 -0.929603 -0.0169983 0
M  V30 5 N -4.68923 -1.92737 0.129787 0
M  V30 6 C -2.33648 -1.22044 0.0902422 0
M  V30 7 C -1.36326 -0.258529 -0.0507753 0
M  V30 8 C -1.74007 1.04185 -0.307634 0
M  V30 9 C 0.0558586 -0.567681 0.0622907 0
M  V30 10 N 0.551771 -1.79686 0.31058 0
M  V30 11 N 1.8634 -1.70894 0.345467 0
M  V30 12 C 2.263 -0.450451 0.126719 0
M  V30 13 N 1.11259 0.255125 -0.0496405 0
M  V30 14 C 3.62209 0.080127 0.0810112 0
M  V30 15 C 4.77239 -0.674936 0.266511 0
M  V30 16 C 5.85223 0.168408 0.151663 0
M  V30 17 C 5.33194 1.41393 -0.100549 0
M  V30 18 O 4.03256 1.29963 -0.13001 0
M  V30 19 Br 6.37616 3.00954 -0.356842 0
M  V30 20 H -4.36586 3.11741 -0.246605 0
M  V30 21 H -2.99518 3.34677 -1.3397 0
M  V30 22 H -5.09949 0.597269 -0.356311 0
M  V30 23 H -4.64596 -2.76383 -0.467244 0
M  V30 24 H -5.43947 -1.82206 0.815625 0
M  V30 25 H -2.00975 -2.23144 0.291266 0
M  V30 26 H -1.02548 1.83737 -0.427786 0
M  V30 27 H 2.50336 -2.50363 0.518471 0
M  V30 28 H 4.80123 -1.74912 0.467628 0
M  V30 29 H 6.89753 -0.0486662 0.232898 0
M  V30 END ATOM
M  V30 BEGIN BOND
M  V30 1 1 1 2
M  V30 2 2 2 3
M  V30 3 1 3 4
M  V30 4 1 4 5
M  V30 5 2 4 6
M  V30 6 1 6 7
M  V30 7 2 7 8
M  V30 8 1 7 9
M  V30 9 2 9 10
M  V30 10 1 10 11
M  V30 11 1 11 12
M  V30 12 2 12 13
M  V30 13 1 12 14
M  V30 14 2 14 15
M  V30 15 1 15 16
M  V30 16 2 16 17
M  V30 17 1 17 18
M  V30 18 1 17 19
M  V30 19 1 8 2
M  V30 20 1 13 9
M  V30 21 1 18 14
M  V30 22 1 1 20
M  V30 23 1 1 21
M  V30 24 1 3 22
M  V30 25 1 5 23
M  V30 26 1 5 24
M  V30 27 1 6 25
M  V30 28 1 8 26
M  V30 29 1 11 27
M  V30 30 1 15 28
M  V30 31 1 16 29
M  V30 END BOND
M  V30 END CTAB
M  END
