
     RDKit          3D

  0  0  0  0  0  0  0  0  0  0999 V3000
M  V30 BEGIN CTAB
M  V30 COUNTS 33 34 0 0 0
M  V30 BEGIN ATOM
M  V30 1 N -5.38607 0.649947 -0.751641 0
M  V30 2 C -3.99635 0.546501 -0.420059 0
M  V30 3 C -3.30558 -0.623405 -0.668875 0
M  V30 4 C -1.95932 -0.717267 -0.345438 0
M  V30 5 C -1.26452 0.3271 0.22557 0
M  V30 6 C -1.95932 1.49489 0.472546 0
M  V30 7 C -3.30829 1.59775 0.151705 0
M  V30 8 C 0.154007 0.160862 0.541314 0 CFG=1
M  V30 9 N 0.40094 -1.11336 1.18605 0
M  V30 10 C 1.28107 -1.90294 0.367541 0
M  V30 11 C 2.61174 -1.17033 0.30369 0
M  V30 12 N 2.41226 0.0716891 -0.359607 0
M  V30 13 C 1.06354 0.42192 -0.626219 0
M  V30 14 S 3.408 1.34565 0.167106 0
M  V30 15 O 3.06389 2.58713 -0.565779 0
M  V30 16 O 3.25906 1.55977 1.65572 0
M  V30 17 N 5.06994 0.911191 -0.12972 0
M  V30 18 H -5.69998 0.850179 -1.72188 0
M  V30 19 H -6.09833 0.521958 -0.00529217 0
M  V30 20 H -3.81787 -1.46987 -1.11814 0
M  V30 21 H -1.41916 -1.633 -0.540384 0
M  V30 22 H -1.42509 2.32839 0.922929 0
M  V30 23 H -3.85768 2.5207 0.346817 0
M  V30 24 H 0.408671 0.941687 1.31594 0
M  V30 25 H -0.468531 -1.60952 1.46275 0
M  V30 26 H 1.40615 -2.92314 0.796256 0
M  V30 27 H 0.943065 -2.03511 -0.667226 0
M  V30 28 H 3.00158 -1.06938 1.33009 0
M  V30 29 H 3.31693 -1.82986 -0.249911 0
M  V30 30 H 1.02742 1.53603 -0.807705 0
M  V30 31 H 0.667134 -0.0356347 -1.54425 0
M  V30 32 H 5.29628 0.0515364 0.423258 0
M  V30 33 H 5.17445 0.657127 -1.14715 0
M  V30 END ATOM
M  V30 BEGIN BOND
M  V30 1 1 1 2
M  V30 2 2 2 3
M  V30 3 1 3 4
M  V30 4 2 4 5
M  V30 5 1 5 6
M  V30 6 2 6 7
M  V30 7 1 5 8
M  V30 8 1 8 9
M  V30 9 1 9 10
M  V30 10 1 10 11
M  V30 11 1 11 12
M  V30 12 1 12 13
M  V30 13 1 12 14
M  V30 14 2 14 15
M  V30 15 2 14 16
M  V30 16 1 14 17
M  V30 17 1 7 2
M  V30 18 1 13 8
M  V30 19 1 1 18
M  V30 20 1 1 19
M  V30 21 1 3 20
M  V30 22 1 4 21
M  V30 23 1 6 22
M  V30 24 1 7 23
M  V30 25 1 8 24 CFG=1
M  V30 26 1 9 25
M  V30 27 1 10 26
M  V30 28 1 10 27
M  V30 29 1 11 28
M  V30 30 1 11 29
M  V30 31 1 13 30
M  V30 32 1 13 31
M  V30 33 1 17 32
M  V30 34 1 17 33
M  V30 END BOND
M  V30 END CTAB
M  END
