
     RDKit          3D

  0  0  0  0  0  0  0  0  0  0999 V3000
M  V30 BEGIN CTAB
M  V30 COUNTS 28 28 0 0 0
M  V30 BEGIN ATOM
M  V30 1 C -2.40872 -1.63034 0.74614 0
M  V30 2 C -0.977976 -1.26062 0.561689 0
M  V30 3 C -0.685224 -0.0467912 -0.239435 0
M  V30 4 N 0.778484 0.0748866 -0.272431 0
M  V30 5 N 1.45934 0.613599 0.71287 0
M  V30 6 C 2.78168 0.596336 0.419371 0
M  V30 7 C 2.8737 0.00460596 -0.826579 0
M  V30 8 C 1.59375 -0.320904 -1.25269 0
M  V30 9 N 1.29373 -0.943954 -2.48733 0
M  V30 10 N 3.8015 1.09883 1.26353 0
M  V30 11 C -1.20822 1.24751 0.269907 0
M  V30 12 C -2.68071 1.37104 0.411376 0
M  V30 13 H -2.44313 -2.76841 0.714873 0
M  V30 14 H -2.7793 -1.40847 1.77172 0
M  V30 15 H -3.05368 -1.29648 -0.0671846 0
M  V30 16 H -0.559 -1.08543 1.58872 0
M  V30 17 H -0.397062 -2.10221 0.128123 0
M  V30 18 H -1.00797 -0.150677 -1.31602 0
M  V30 19 H 3.80796 -0.151096 -1.33177 0
M  V30 20 H 1.43399 -0.436475 -3.38885 0
M  V30 21 H 0.926441 -1.91887 -2.54775 0
M  V30 22 H 3.7675 2.09815 1.53357 0
M  V30 23 H 4.54711 0.475266 1.58988 0
M  V30 24 H -0.897109 2.03105 -0.487044 0
M  V30 25 H -0.674535 1.54663 1.20753 0
M  V30 26 H -3.20425 1.01765 -0.51261 0
M  V30 27 H -2.9435 2.47151 0.54808 0
M  V30 28 H -3.14479 0.873676 1.26232 0
M  V30 END ATOM
M  V30 BEGIN BOND
M  V30 1 1 1 2
M  V30 2 1 2 3
M  V30 3 1 3 4
M  V30 4 1 4 5
M  V30 5 2 5 6
M  V30 6 1 6 7
M  V30 7 2 7 8
M  V30 8 1 8 9
M  V30 9 1 6 10
M  V30 10 1 3 11
M  V30 11 1 11 12
M  V30 12 1 8 4
M  V30 13 1 1 13
M  V30 14 1 1 14
M  V30 15 1 1 15
M  V30 16 1 2 16
M  V30 17 1 2 17
M  V30 18 1 3 18
M  V30 19 1 7 19
M  V30 20 1 9 20
M  V30 21 1 9 21
M  V30 22 1 10 22
M  V30 23 1 10 23
M  V30 24 1 11 24
M  V30 25 1 11 25
M  V30 26 1 12 26
M  V30 27 1 12 27
M  V30 28 1 12 28
M  V30 END BOND
M  V30 END CTAB
M  END
