
     RDKit          3D

  0  0  0  0  0  0  0  0  0  0999 V3000
M  V30 BEGIN CTAB
M  V30 COUNTS 27 28 0 0 0
M  V30 BEGIN ATOM
M  V30 1 N 4.33714 -1.09624 -0.704401 0
M  V30 2 C 3.0748 -0.572098 -0.402365 0
M  V30 3 C 1.99061 -0.834836 -1.22895 0
M  V30 4 C 0.761146 -0.286206 -0.875443 0
M  V30 5 C 0.578794 0.495179 0.244004 0
M  V30 6 N 1.6679 0.71838 1.01228 0
M  V30 7 C 2.87231 0.214961 0.718086 0
M  V30 8 N 4.01072 0.467094 1.55094 0
M  V30 9 S -1.0172 1.1748 0.658312 0
M  V30 10 C -2.29942 0.714068 -0.495359 0
M  V30 11 C -2.57637 -0.762223 -0.423064 0
M  V30 12 O -3.7012 -0.962833 0.357447 0
M  V30 13 C -3.96981 0.197119 1.04181 0
M  V30 14 C -3.61553 1.27717 0.0336055 0
M  V30 15 H 5.16951 -0.508566 -0.916797 0
M  V30 16 H 4.47001 -2.13012 -0.722338 0
M  V30 17 H 2.14549 -1.44558 -2.09937 0
M  V30 18 H -0.0932201 -0.474196 -1.50182 0
M  V30 19 H 3.93204 0.766813 2.54915 0
M  V30 20 H 4.98088 0.357956 1.18322 0
M  V30 21 H -2.10854 1.04595 -1.53462 0
M  V30 22 H -1.72099 -1.29188 0.0478197 0
M  V30 23 H -2.78533 -1.16295 -1.45709 0
M  V30 24 H -5.02257 0.253996 1.35258 0
M  V30 25 H -3.25772 0.319358 1.90972 0
M  V30 26 H -3.48517 2.2537 0.507278 0
M  V30 27 H -4.3383 1.27117 -0.804639 0
M  V30 END ATOM
M  V30 BEGIN BOND
M  V30 1 1 1 2
M  V30 2 2 2 3
M  V30 3 1 3 4
M  V30 4 2 4 5
M  V30 5 1 5 6
M  V30 6 2 6 7
M  V30 7 1 7 8
M  V30 8 1 5 9
M  V30 9 1 9 10
M  V30 10 1 10 11
M  V30 11 1 11 12
M  V30 12 1 12 13
M  V30 13 1 13 14
M  V30 14 1 7 2
M  V30 15 1 14 10
M  V30 16 1 1 15
M  V30 17 1 1 16
M  V30 18 1 3 17
M  V30 19 1 4 18
M  V30 20 1 8 19
M  V30 21 1 8 20
M  V30 22 1 10 21
M  V30 23 1 11 22
M  V30 24 1 11 23
M  V30 25 1 13 24
M  V30 26 1 13 25
M  V30 27 1 14 26
M  V30 28 1 14 27
M  V30 END BOND
M  V30 END CTAB
M  END
