
     RDKit          3D

  0  0  0  0  0  0  0  0  0  0999 V3000
M  V30 BEGIN CTAB
M  V30 COUNTS 27 28 0 0 0
M  V30 BEGIN ATOM
M  V30 1 Br 6.7358 -0.617046 -0.20291 0
M  V30 2 C 4.84184 -0.401247 -0.0695231 0
M  V30 3 C 4.02269 -0.919355 -1.0465 0
M  V30 4 C 2.66298 -0.740596 -0.910415 0
M  V30 5 C 2.1169 -0.0732067 0.152079 0
M  V30 6 C 2.94434 0.436485 1.11583 0
M  V30 7 C 4.3275 0.276461 1.01432 0
M  V30 8 Cl 2.25395 1.28867 2.47337 0
M  V30 9 O 0.758642 0.0832791 0.250641 0
M  V30 10 C -0.100139 -0.445199 -0.74872 0
M  V30 11 C -1.52962 -0.140472 -0.408064 0
M  V30 12 N -2.2706 -0.961908 0.321908 0
M  V30 13 C -3.55814 -0.627534 0.59487 0
M  V30 14 N -4.35691 -1.49882 1.37373 0
M  V30 15 N -4.11126 0.513047 0.148811 0
M  V30 16 C -3.33876 1.33472 -0.592605 0
M  V30 17 N -2.06263 1.00558 -0.864422 0
M  V30 18 N -3.81359 2.55729 -1.11313 0
M  V30 19 H 4.45441 -1.45505 -1.90015 0
M  V30 20 H 2.04527 -1.16688 -1.70736 0
M  V30 21 H 4.98376 0.681336 1.77975 0
M  V30 22 H 0.185695 0.0241555 -1.70012 0
M  V30 23 H 0.0694546 -1.53538 -0.841594 0
M  V30 24 H -4.55506 -2.45079 1.05074 0
M  V30 25 H -4.73498 -1.16066 2.26891 0
M  V30 26 H -4.19858 2.58206 -2.0668 0
M  V30 27 H -3.77298 3.41106 -0.541451 0
M  V30 END ATOM
M  V30 BEGIN BOND
M  V30 1 1 1 2
M  V30 2 2 2 3
M  V30 3 1 3 4
M  V30 4 2 4 5
M  V30 5 1 5 6
M  V30 6 2 6 7
M  V30 7 1 6 8
M  V30 8 1 5 9
M  V30 9 1 9 10
M  V30 10 1 10 11
M  V30 11 2 11 12
M  V30 12 1 12 13
M  V30 13 1 13 14
M  V30 14 2 13 15
M  V30 15 1 15 16
M  V30 16 2 16 17
M  V30 17 1 16 18
M  V30 18 1 7 2
M  V30 19 1 17 11
M  V30 20 1 3 19
M  V30 21 1 4 20
M  V30 22 1 7 21
M  V30 23 1 10 22
M  V30 24 1 10 23
M  V30 25 1 14 24
M  V30 26 1 14 25
M  V30 27 1 18 26
M  V30 28 1 18 27
M  V30 END BOND
M  V30 END CTAB
M  END
