
     RDKit          3D

  0  0  0  0  0  0  0  0  0  0999 V3000
M  V30 BEGIN CTAB
M  V30 COUNTS 39 40 0 0 0
M  V30 BEGIN ATOM
M  V30 1 C 5.58819 -0.167642 -0.381555 0
M  V30 2 C 4.9665 -0.522839 0.950921 0
M  V30 3 O 3.58499 -0.658562 0.778384 0
M  V30 4 C 2.79321 0.377513 0.325437 0
M  V30 5 O 3.32649 1.47719 0.0591517 0
M  V30 6 N 1.40607 0.176589 0.17274 0
M  V30 7 C 0.55383 1.25023 -0.301589 0
M  V30 8 C -0.580546 0.591347 -1.05042 0
M  V30 9 C -1.50773 -0.0685676 -0.0386438 0
M  V30 10 C -0.625398 -0.637721 1.06189 0
M  V30 11 C 0.722168 -1.06858 0.461755 0
M  V30 12 C -2.36634 1.00584 0.5035 0
M  V30 13 C -3.37531 1.54512 -0.15104 0
M  V30 14 N -4.18086 2.56244 0.362394 0
M  V30 15 S -3.70794 0.830596 -1.79212 0
M  V30 16 C -3.28246 -0.913277 -1.47819 0
M  V30 17 C -2.27461 -1.16588 -0.669448 0
M  V30 18 C -1.88997 -2.53819 -0.367097 0
M  V30 19 N -1.60475 -3.63963 -0.126225 0
M  V30 20 N -4.02115 -1.90838 -2.09074 0
M  V30 21 C -2.07737 1.49377 1.8633 0
M  V30 22 N -1.86987 1.8874 2.92252 0
M  V30 23 H 4.88744 -0.412706 -1.19162 0
M  V30 24 H 6.56463 -0.684926 -0.457343 0
M  V30 25 H 5.70743 0.941807 -0.38618 0
M  V30 26 H 5.36226 -1.50715 1.28243 0
M  V30 27 H 5.1516 0.267616 1.71055 0
M  V30 28 H 0.200074 1.8218 0.5534 0
M  V30 29 H 1.09584 1.92437 -1.00062 0
M  V30 30 H -1.05988 1.37246 -1.64618 0
M  V30 31 H -0.2285 -0.215019 -1.7213 0
M  V30 32 H -0.351777 0.132809 1.8091 0
M  V30 33 H -1.07573 -1.49393 1.56782 0
M  V30 34 H 1.26338 -1.70825 1.1694 0
M  V30 35 H 0.609048 -1.59955 -0.482263 0
M  V30 36 H -5.17182 2.31189 0.642191 0
M  V30 37 H -3.86694 3.56288 0.489497 0
M  V30 38 H -5.05888 -2.04106 -1.90091 0
M  V30 39 H -3.60533 -2.58179 -2.76995 0
M  V30 END ATOM
M  V30 BEGIN BOND
M  V30 1 1 1 2
M  V30 2 1 2 3
M  V30 3 1 3 4
M  V30 4 2 4 5
M  V30 5 1 4 6
M  V30 6 1 6 7
M  V30 7 1 7 8
M  V30 8 1 8 9
M  V30 9 1 9 10
M  V30 10 1 10 11
M  V30 11 1 9 12
M  V30 12 2 12 13
M  V30 13 1 13 14
M  V30 14 1 13 15
M  V30 15 1 15 16
M  V30 16 2 16 17
M  V30 17 1 17 18
M  V30 18 3 18 19
M  V30 19 1 16 20
M  V30 20 1 12 21
M  V30 21 3 21 22
M  V30 22 1 11 6
M  V30 23 1 17 9
M  V30 24 1 1 23
M  V30 25 1 1 24
M  V30 26 1 1 25
M  V30 27 1 2 26
M  V30 28 1 2 27
M  V30 29 1 7 28
M  V30 30 1 7 29
M  V30 31 1 8 30
M  V30 32 1 8 31
M  V30 33 1 10 32
M  V30 34 1 10 33
M  V30 35 1 11 34
M  V30 36 1 11 35
M  V30 37 1 14 36
M  V30 38 1 14 37
M  V30 39 1 20 38
M  V30 40 1 20 39
M  V30 END BOND
M  V30 END CTAB
M  END
