
     RDKit          3D

  0  0  0  0  0  0  0  0  0  0999 V3000
M  V30 BEGIN CTAB
M  V30 COUNTS 46 48 0 0 0
M  V30 BEGIN ATOM
M  V30 1 C -1.86136 -2.89244 1.23394 0
M  V30 2 C -2.27334 -1.62508 2.00495 0
M  V30 3 C -2.94366 -0.682218 1.09 0
M  V30 4 N -2.22588 -0.195744 -0.0512942 0
M  V30 5 C -0.83687 -0.286702 -0.295159 0
M  V30 6 N -0.365568 -1.03042 -1.33461 0
M  V30 7 C 0.922072 -1.19896 -1.64674 0
M  V30 8 N 1.32254 -2.00644 -2.75888 0
M  V30 9 C 1.87445 -0.569321 -0.856353 0
M  V30 10 C 1.46683 0.202381 0.216574 0
M  V30 11 C 0.0940548 0.328365 0.476689 0
M  V30 12 C -0.257798 1.14669 1.59488 0
M  V30 13 N -0.563051 1.79674 2.49793 0
M  V30 14 C 2.37449 0.833557 1.01429 0
M  V30 15 C 3.70936 0.671281 0.708615 0
M  V30 16 N 4.10169 -0.0803767 -0.336088 0
M  V30 17 C 3.22516 -0.720175 -1.1475 0
M  V30 18 N 3.65614 -1.50524 -2.23591 0
M  V30 19 O 4.67773 1.28394 1.4767 0
M  V30 20 C 6.0444 1.13851 1.19184 0
M  V30 21 C -3.05458 0.43716 -1.06486 0
M  V30 22 C -3.69927 1.73175 -0.717564 0
M  V30 23 C -2.85811 2.96778 -0.390882 0
M  V30 24 C -3.64999 2.88674 -1.64423 0
M  V30 25 H -0.778177 -2.99958 1.1454 0
M  V30 26 H -2.2734 -3.81358 1.67988 0
M  V30 27 H -2.28708 -2.81986 0.199844 0
M  V30 28 H -3.09437 -2.03422 2.70179 0
M  V30 29 H -1.50941 -1.29256 2.68142 0
M  V30 30 H -3.36904 0.196477 1.65325 0
M  V30 31 H -3.8827 -1.18408 0.69268 0
M  V30 32 H 1.56284 -2.99219 -2.60633 0
M  V30 33 H 1.35993 -1.58281 -3.68848 0
M  V30 34 H 2.08387 1.44179 1.8564 0
M  V30 35 H 3.84952 -2.53455 -2.09577 0
M  V30 36 H 3.79568 -1.10344 -3.19866 0
M  V30 37 H 6.19614 1.26585 0.105853 0
M  V30 38 H 6.3344 0.106509 1.54864 0
M  V30 39 H 6.63948 1.87071 1.80517 0
M  V30 40 H -3.84872 -0.29254 -1.37807 0
M  V30 41 H -2.43816 0.608483 -2.00234 0
M  V30 42 H -4.69859 1.67959 -0.165953 0
M  V30 43 H -1.76178 2.87645 -0.486491 0
M  V30 44 H -3.19605 3.5644 0.481752 0
M  V30 45 H -3.07457 2.79893 -2.58418 0
M  V30 46 H -4.48926 3.60846 -1.72315 0
M  V30 END ATOM
M  V30 BEGIN BOND
M  V30 1 1 1 2
M  V30 2 1 2 3
M  V30 3 1 3 4
M  V30 4 1 4 5
M  V30 5 2 5 6
M  V30 6 1 6 7
M  V30 7 1 7 8
M  V30 8 2 7 9
M  V30 9 1 9 10
M  V30 10 2 10 11
M  V30 11 1 11 12
M  V30 12 3 12 13
M  V30 13 1 10 14
M  V30 14 2 14 15
M  V30 15 1 15 16
M  V30 16 2 16 17
M  V30 17 1 17 18
M  V30 18 1 15 19
M  V30 19 1 19 20
M  V30 20 1 4 21
M  V30 21 1 21 22
M  V30 22 1 22 23
M  V30 23 1 23 24
M  V30 24 1 11 5
M  V30 25 1 24 22
M  V30 26 1 17 9
M  V30 27 1 1 25
M  V30 28 1 1 26
M  V30 29 1 1 27
M  V30 30 1 2 28
M  V30 31 1 2 29
M  V30 32 1 3 30
M  V30 33 1 3 31
M  V30 34 1 8 32
M  V30 35 1 8 33
M  V30 36 1 14 34
M  V30 37 1 18 35
M  V30 38 1 18 36
M  V30 39 1 20 37
M  V30 40 1 20 38
M  V30 41 1 20 39
M  V30 42 1 21 40
M  V30 43 1 21 41
M  V30 44 1 22 42
M  V30 45 1 23 43
M  V30 46 1 23 44
M  V30 47 1 24 45
M  V30 48 1 24 46
M  V30 END BOND
M  V30 END CTAB
M  END
