
     RDKit          3D

  0  0  0  0  0  0  0  0  0  0999 V3000
M  V30 BEGIN CTAB
M  V30 COUNTS 38 37 0 0 0
M  V30 BEGIN ATOM
M  V30 1 C 4.58003 0.335644 0.896872 0 CFG=1
M  V30 2 N 5.30327 -0.815209 1.2666 0
M  V30 3 C 4.02407 0.330085 -0.488161 0
M  V30 4 C 3.07327 -0.763993 -0.808386 0
M  V30 5 S 1.62074 -0.761245 0.238858 0
M  V30 6 C 0.490058 -2.10091 -0.193406 0
M  V30 7 C -0.0879041 -1.88046 -1.57798 0
M  V30 8 S -0.972516 -0.277891 -1.51342 0
M  V30 9 C -2.40286 -0.397505 -0.409847 0
M  V30 10 C -3.0782 0.951814 -0.390537 0
M  V30 11 C -4.29572 0.958009 0.509174 0 CFG=2
M  V30 12 N -5.23128 -0.0229128 0.0169051 0
M  V30 13 C -4.89786 2.30106 0.427725 0
M  V30 14 O -6.17275 2.45575 -0.0731271 0
M  V30 15 O -4.24894 3.29528 0.813459 0
M  V30 16 C 3.50412 0.691905 1.85101 0
M  V30 17 O 2.74883 1.82992 1.58795 0
M  V30 18 O 3.23667 0.0266465 2.88061 0
M  V30 19 H 5.297 1.2017 0.937712 0
M  V30 20 H 5.65084 -1.4332 0.537176 0
M  V30 21 H 5.17924 -1.18931 2.20557 0
M  V30 22 H 4.86038 0.277502 -1.24685 0
M  V30 23 H 3.517 1.29796 -0.710322 0
M  V30 24 H 3.57099 -1.76679 -0.86312 0
M  V30 25 H 2.71432 -0.576083 -1.86327 0
M  V30 26 H -0.334105 -2.09179 0.550156 0
M  V30 27 H 0.963256 -3.0974 -0.181512 0
M  V30 28 H 0.681623 -1.81489 -2.35138 0
M  V30 29 H -0.793374 -2.68683 -1.84948 0
M  V30 30 H -2.072 -0.672463 0.599574 0
M  V30 31 H -3.11783 -1.17794 -0.776495 0
M  V30 32 H -2.34459 1.66702 0.0794664 0
M  V30 33 H -3.36944 1.26428 -1.40286 0
M  V30 34 H -4.01948 0.678269 1.54809 0
M  V30 35 H -4.94629 -1.00378 0.244573 0
M  V30 36 H -5.40174 0.103277 -1.01828 0
M  V30 37 H -6.45175 2.15314 -1.01106 0
M  V30 38 H 3.22294 2.71134 1.53801 0
M  V30 END ATOM
M  V30 BEGIN BOND
M  V30 1 1 1 2
M  V30 2 1 1 3
M  V30 3 1 3 4
M  V30 4 1 4 5
M  V30 5 1 5 6
M  V30 6 1 6 7
M  V30 7 1 7 8
M  V30 8 1 8 9
M  V30 9 1 9 10
M  V30 10 1 10 11
M  V30 11 1 11 12
M  V30 12 1 11 13
M  V30 13 1 13 14
M  V30 14 2 13 15
M  V30 15 1 1 16
M  V30 16 1 16 17
M  V30 17 2 16 18
M  V30 18 1 1 19 CFG=3
M  V30 19 1 2 20
M  V30 20 1 2 21
M  V30 21 1 3 22
M  V30 22 1 3 23
M  V30 23 1 4 24
M  V30 24 1 4 25
M  V30 25 1 6 26
M  V30 26 1 6 27
M  V30 27 1 7 28
M  V30 28 1 7 29
M  V30 29 1 9 30
M  V30 30 1 9 31
M  V30 31 1 10 32
M  V30 32 1 10 33
M  V30 33 1 11 34 CFG=1
M  V30 34 1 12 35
M  V30 35 1 12 36
M  V30 36 1 14 37
M  V30 37 1 17 38
M  V30 END BOND
M  V30 END CTAB
M  END
