
     RDKit          3D

  0  0  0  0  0  0  0  0  0  0999 V3000
M  V30 BEGIN CTAB
M  V30 COUNTS 37 39 0 0 0
M  V30 BEGIN ATOM
M  V30 1 C 3.65211 2.53786 -0.543956 0
M  V30 2 C 3.41599 1.13169 -1.05368 0
M  V30 3 O 2.21776 0.649608 -0.487826 0
M  V30 4 C 1.70772 -0.615006 -0.748813 0
M  V30 5 O 2.44098 -1.29971 -1.55919 0
M  V30 6 C 0.498777 -1.16893 -0.194476 0
M  V30 7 C 0.234316 -2.44991 -0.517018 0
M  V30 8 N 1.10871 -3.15955 -1.36326 0
M  V30 9 N -0.83563 -3.17157 0.0937228 0
M  V30 10 C -1.66632 -2.53667 1.05614 0
M  V30 11 N -2.71159 -3.25525 1.71628 0
M  V30 12 C -1.42856 -1.25013 1.32399 0
M  V30 13 C -0.40118 -0.477299 0.669855 0
M  V30 14 C -1.11603 0.757558 0.109641 0
M  V30 15 C -0.656966 1.39542 -1.00649 0
M  V30 16 C -1.07745 2.71841 -1.23073 0
M  V30 17 C -1.92261 3.36119 -0.369237 0
M  V30 18 C -2.36812 2.68601 0.727716 0
M  V30 19 C -1.97897 1.35828 0.988134 0
M  V30 20 O -2.56104 0.731926 2.11136 0
M  V30 21 C -2.28115 -0.619235 2.32124 0
M  V30 22 O -2.73625 -1.27474 3.316 0
M  V30 23 H 4.33455 3.04406 -1.24594 0
M  V30 24 H 4.0263 2.53592 0.501845 0
M  V30 25 H 2.67729 3.06808 -0.566059 0
M  V30 26 H 3.30165 1.18635 -2.1545 0
M  V30 27 H 4.28559 0.52723 -0.752883 0
M  V30 28 H 1.00726 -3.15063 -2.41426 0
M  V30 29 H 1.91548 -3.74234 -1.01755 0
M  V30 30 H -1.0533 -4.16787 -0.129055 0
M  V30 31 H -2.55153 -3.86006 2.53833 0
M  V30 32 H -3.68089 -3.16814 1.35544 0
M  V30 33 H 0.231577 -8.48539e-06 1.50277 0
M  V30 34 H -0.03472 0.921145 -1.76724 0
M  V30 35 H -0.70356 3.22029 -2.12348 0
M  V30 36 H -2.23909 4.38561 -0.543479 0
M  V30 37 H -3.05112 3.15041 1.45664 0
M  V30 END ATOM
M  V30 BEGIN BOND
M  V30 1 1 1 2
M  V30 2 1 2 3
M  V30 3 1 3 4
M  V30 4 2 4 5
M  V30 5 1 4 6
M  V30 6 2 6 7
M  V30 7 1 7 8
M  V30 8 1 7 9
M  V30 9 1 9 10
M  V30 10 1 10 11
M  V30 11 2 10 12
M  V30 12 1 12 13
M  V30 13 1 13 14
M  V30 14 2 14 15
M  V30 15 1 15 16
M  V30 16 2 16 17
M  V30 17 1 17 18
M  V30 18 2 18 19
M  V30 19 1 19 20
M  V30 20 1 20 21
M  V30 21 2 21 22
M  V30 22 1 13 6
M  V30 23 1 19 14
M  V30 24 1 21 12
M  V30 25 1 1 23
M  V30 26 1 1 24
M  V30 27 1 1 25
M  V30 28 1 2 26
M  V30 29 1 2 27
M  V30 30 1 8 28
M  V30 31 1 8 29
M  V30 32 1 9 30
M  V30 33 1 11 31
M  V30 34 1 11 32
M  V30 35 1 13 33
M  V30 36 1 15 34
M  V30 37 1 16 35
M  V30 38 1 17 36
M  V30 39 1 18 37
M  V30 END BOND
M  V30 END CTAB
M  END
