
     RDKit          3D

  0  0  0  0  0  0  0  0  0  0999 V3000
M  V30 BEGIN CTAB
M  V30 COUNTS 42 41 0 0 0
M  V30 BEGIN ATOM
M  V30 1 N 4.78365 -1.33859 -2.61714 0
M  V30 2 C 4.45859 -0.129076 -1.97899 0
M  V30 3 N 5.17476 0.917393 -2.18508 0
M  V30 4 N 3.32629 -0.0415067 -1.08948 0
M  V30 5 C 2.80116 1.25148 -0.720198 0
M  V30 6 C 1.6381 1.07162 0.229137 0
M  V30 7 C 2.16018 0.354806 1.45348 0
M  V30 8 C 1.02184 0.156961 2.43502 0
M  V30 9 C -0.0121214 -0.652178 1.75871 0
M  V30 10 O 0.285605 -1.76888 1.2812 0
M  V30 11 N -1.32495 -0.153452 1.66027 0
M  V30 12 C -2.32387 -1.00636 0.971063 0
M  V30 13 C -3.36525 -1.2675 1.97386 0
M  V30 14 O -3.3468 -0.766013 3.15002 0
M  V30 15 O -4.42858 -2.08191 1.6888 0
M  V30 16 C -2.77744 -0.160983 -0.19302 0
M  V30 17 C -3.7921 -0.820588 -1.05406 0
M  V30 18 C -4.14455 0.0893649 -2.16874 0
M  V30 19 O -4.98369 -0.264167 -3.02048 0
M  V30 20 O -3.5448 1.32246 -2.26123 0
M  V30 21 N 0.447986 1.37645 2.8914 0
M  V30 22 H 4.20788 -2.21528 -2.48155 0
M  V30 23 H 5.59542 -1.41454 -3.24054 0
M  V30 24 H 5.00891 1.85226 -1.75682 0
M  V30 25 H 2.92207 -0.944939 -0.74328 0
M  V30 26 H 3.60799 1.75051 -0.108101 0
M  V30 27 H 2.54613 1.8853 -1.59141 0
M  V30 28 H 0.826432 0.475288 -0.246885 0
M  V30 29 H 1.213 2.05503 0.530386 0
M  V30 30 H 2.51351 -0.667014 1.21219 0
M  V30 31 H 2.9476 0.920227 1.96609 0
M  V30 32 H 1.35277 -0.420147 3.32139 0
M  V30 33 H -1.64508 0.753077 2.02737 0
M  V30 34 H -1.86755 -1.94552 0.619028 0
M  V30 35 H -5.27637 -2.14426 2.23212 0
M  V30 36 H -3.15708 0.796666 0.263995 0
M  V30 37 H -1.90877 0.109955 -0.85242 0
M  V30 38 H -3.42294 -1.79496 -1.46007 0
M  V30 39 H -4.69634 -1.09427 -0.460107 0
M  V30 40 H -3.80164 2.12054 -1.68548 0
M  V30 41 H 0.019526 1.97617 2.17777 0
M  V30 42 H 0.960526 1.8566 3.63844 0
M  V30 END ATOM
M  V30 BEGIN BOND
M  V30 1 1 1 2
M  V30 2 2 2 3 CFG=2
M  V30 3 1 2 4
M  V30 4 1 4 5
M  V30 5 1 5 6
M  V30 6 1 6 7
M  V30 7 1 7 8
M  V30 8 1 8 9
M  V30 9 2 9 10
M  V30 10 1 9 11
M  V30 11 1 11 12
M  V30 12 1 12 13
M  V30 13 2 13 14
M  V30 14 1 13 15
M  V30 15 1 12 16
M  V30 16 1 16 17
M  V30 17 1 17 18
M  V30 18 2 18 19
M  V30 19 1 18 20
M  V30 20 1 8 21
M  V30 21 1 1 22
M  V30 22 1 1 23
M  V30 23 1 3 24
M  V30 24 1 4 25
M  V30 25 1 5 26
M  V30 26 1 5 27
M  V30 27 1 6 28
M  V30 28 1 6 29
M  V30 29 1 7 30
M  V30 30 1 7 31
M  V30 31 1 8 32
M  V30 32 1 11 33
M  V30 33 1 12 34
M  V30 34 1 15 35
M  V30 35 1 16 36
M  V30 36 1 16 37
M  V30 37 1 17 38
M  V30 38 1 17 39
M  V30 39 1 20 40
M  V30 40 1 21 41
M  V30 41 1 21 42
M  V30 END BOND
M  V30 END CTAB
M  END
