
     RDKit          3D

  0  0  0  0  0  0  0  0  0  0999 V3000
M  V30 BEGIN CTAB
M  V30 COUNTS 61 63 0 0 0
M  V30 BEGIN ATOM
M  V30 1 N -8.06014 -0.40348 1.36022 0
M  V30 2 C -7.04731 -0.690142 0.384224 0
M  V30 3 C -5.86619 -1.33065 1.05453 0
M  V30 4 C -4.73868 -1.66479 0.148355 0
M  V30 5 C -4.06941 -0.551439 -0.576491 0
M  V30 6 C -3.37461 0.473297 0.298938 0 CFG=1
M  V30 7 C -2.72571 1.52116 -0.511238 0
M  V30 8 O -3.37177 2.628 -0.62886 0
M  V30 9 N -1.48372 1.44978 -1.17248 0
M  V30 10 C -0.576771 0.359362 -1.10501 0
M  V30 11 C 0.495397 0.442759 -0.047298 0
M  V30 12 O -0.000185392 0.553706 1.25081 0
M  V30 13 C 1.20645 -0.932099 -0.0384211 0
M  V30 14 C 2.54405 -0.658205 0.676426 0
M  V30 15 N 3.34797 -0.0221118 -0.336877 0
M  V30 16 C 2.74566 1.10909 -1.00054 0
M  V30 17 C 1.49102 1.53031 -0.234737 0
M  V30 18 C 4.62205 -0.502788 -0.644152 0
M  V30 19 C 4.87576 -1.13291 -1.87245 0
M  V30 20 C 6.12013 -1.6371 -2.18866 0
M  V30 21 N 7.12022 -1.52268 -1.29634 0
M  V30 22 C 6.92763 -0.928815 -0.110402 0
M  V30 23 C 5.68853 -0.420326 0.21817 0
M  V30 24 C 5.51864 0.202 1.45998 0
M  V30 25 N 6.56732 0.289678 2.30707 0
M  V30 26 C 7.77829 -0.200626 2.00273 0
M  V30 27 C 7.95643 -0.813162 0.78535 0
M  V30 28 C -1.11181 2.60213 -2.02315 0
M  V30 29 N -4.39006 1.17856 1.10571 0
M  V30 30 H -8.82063 0.0977781 0.9757 0
M  V30 31 H -8.29761 -1.18217 1.91909 0
M  V30 32 H -7.45055 -1.44956 -0.360391 0
M  V30 33 H -6.86163 0.204371 -0.191878 0
M  V30 34 H -6.26179 -2.34433 1.41533 0
M  V30 35 H -5.53351 -0.857322 1.9816 0
M  V30 36 H -5.17299 -2.33364 -0.664129 0
M  V30 37 H -4.00996 -2.3351 0.67074 0
M  V30 38 H -4.90248 -0.0166561 -1.14525 0
M  V30 39 H -3.34943 -0.973698 -1.27498 0
M  V30 40 H -2.72144 -0.0279569 1.01599 0
M  V30 41 H -0.0218478 0.279619 -2.07928 0
M  V30 42 H -1.07223 -0.627923 -0.968305 0
M  V30 43 H -0.37515 -0.324576 1.54215 0
M  V30 44 H 1.39061 -1.23245 -1.08946 0
M  V30 45 H 0.611927 -1.67827 0.499946 0
M  V30 46 H 2.33434 0.0431612 1.49908 0
M  V30 47 H 2.98058 -1.59978 1.05847 0
M  V30 48 H 3.41235 2.00138 -0.986151 0
M  V30 49 H 2.42455 0.893573 -2.03041 0
M  V30 50 H 1.901 1.86724 0.769375 0
M  V30 51 H 1.12519 2.45488 -0.694021 0
M  V30 52 H 4.0405 -1.19909 -2.55316 0
M  V30 53 H 6.30644 -2.12735 -3.15112 0
M  V30 54 H 4.58094 0.623402 1.76516 0
M  V30 55 H 8.60416 -0.106891 2.72415 0
M  V30 56 H 8.92711 -1.21552 0.520748 0
M  V30 57 H -0.942491 3.46298 -1.36841 0
M  V30 58 H -0.255806 2.32351 -2.66541 0
M  V30 59 H -1.94992 2.86649 -2.69849 0
M  V30 60 H -4.9715 1.69421 0.39485 0
M  V30 61 H -3.85786 1.89115 1.67763 0
M  V30 END ATOM
M  V30 BEGIN BOND
M  V30 1 1 1 2
M  V30 2 1 2 3
M  V30 3 1 3 4
M  V30 4 1 4 5
M  V30 5 1 5 6
M  V30 6 1 6 7
M  V30 7 2 7 8
M  V30 8 1 7 9
M  V30 9 1 9 10
M  V30 10 1 10 11
M  V30 11 1 11 12
M  V30 12 1 11 13
M  V30 13 1 13 14
M  V30 14 1 14 15
M  V30 15 1 15 16
M  V30 16 1 16 17
M  V30 17 1 15 18
M  V30 18 2 18 19
M  V30 19 1 19 20
M  V30 20 2 20 21
M  V30 21 1 21 22
M  V30 22 2 22 23
M  V30 23 1 23 24
M  V30 24 2 24 25
M  V30 25 1 25 26
M  V30 26 2 26 27
M  V30 27 1 9 28
M  V30 28 1 6 29
M  V30 29 1 17 11
M  V30 30 1 23 18
M  V30 31 1 27 22
M  V30 32 1 1 30
M  V30 33 1 1 31
M  V30 34 1 2 32
M  V30 35 1 2 33
M  V30 36 1 3 34
M  V30 37 1 3 35
M  V30 38 1 4 36
M  V30 39 1 4 37
M  V30 40 1 5 38
M  V30 41 1 5 39
M  V30 42 1 6 40 CFG=1
M  V30 43 1 10 41
M  V30 44 1 10 42
M  V30 45 1 12 43
M  V30 46 1 13 44
M  V30 47 1 13 45
M  V30 48 1 14 46
M  V30 49 1 14 47
M  V30 50 1 16 48
M  V30 51 1 16 49
M  V30 52 1 17 50
M  V30 53 1 17 51
M  V30 54 1 19 52
M  V30 55 1 20 53
M  V30 56 1 24 54
M  V30 57 1 26 55
M  V30 58 1 27 56
M  V30 59 1 28 57
M  V30 60 1 28 58
M  V30 61 1 28 59
M  V30 62 1 29 60
M  V30 63 1 29 61
M  V30 END BOND
M  V30 END CTAB
M  END
