
     RDKit          3D

  0  0  0  0  0  0  0  0  0  0999 V3000
M  V30 BEGIN CTAB
M  V30 COUNTS 21 21 0 0 0
M  V30 BEGIN ATOM
M  V30 1 N -2.83765 0.282076 0.759939 0
M  V30 2 C -1.69495 -0.372504 0.299653 0 CFG=1
M  V30 3 C -1.3459 -0.00113768 -1.12594 0
M  V30 4 C 0.146618 -0.296681 -1.12163 0
M  V30 5 N 0.551665 0.374352 0.0874256 0
M  V30 6 C -0.444828 0.000896861 1.05968 0
M  V30 7 S 2.14823 -0.04691 0.565113 0
M  V30 8 O 2.18854 -1.565 0.652232 0
M  V30 9 O 2.51716 0.505911 1.8892 0
M  V30 10 N 3.22921 0.440416 -0.682535 0
M  V30 11 H -2.8459 1.23924 0.924554 0
M  V30 12 H -3.6926 -0.120993 0.467519 0
M  V30 13 H -1.82529 -1.48399 0.314925 0
M  V30 14 H -1.88736 -0.611754 -1.86697 0
M  V30 15 H -1.46173 1.08429 -1.26943 0
M  V30 16 H 0.640581 0.0968574 -2.02515 0
M  V30 17 H 0.23413 -1.40816 -1.03896 0
M  V30 18 H -0.105474 -0.816908 1.72949 0
M  V30 19 H -0.701781 0.857555 1.71677 0
M  V30 20 H 2.992 1.39237 -1.05529 0
M  V30 21 H 4.19533 0.450081 -0.286976 0
M  V30 END ATOM
M  V30 BEGIN BOND
M  V30 1 1 1 2
M  V30 2 1 2 3
M  V30 3 1 3 4
M  V30 4 1 4 5
M  V30 5 1 5 6
M  V30 6 1 5 7
M  V30 7 2 7 8
M  V30 8 2 7 9
M  V30 9 1 7 10
M  V30 10 1 6 2
M  V30 11 1 1 11
M  V30 12 1 1 12
M  V30 13 1 2 13 CFG=3
M  V30 14 1 3 14
M  V30 15 1 3 15
M  V30 16 1 4 16
M  V30 17 1 4 17
M  V30 18 1 6 18
M  V30 19 1 6 19
M  V30 20 1 10 20
M  V30 21 1 10 21
M  V30 END BOND
M  V30 END CTAB
M  END
