
     RDKit          3D

  0  0  0  0  0  0  0  0  0  0999 V3000
M  V30 BEGIN CTAB
M  V30 COUNTS 25 25 0 0 0
M  V30 BEGIN ATOM
M  V30 1 O 2.56647 -1.00535 1.40647 0
M  V30 2 C 2.16594 -1.14934 0.146661 0
M  V30 3 O 2.07504 -2.29854 -0.343218 0
M  V30 4 C 1.82923 0.00994279 -0.67893 0 CFG=1
M  V30 5 C 0.5045 -0.0892311 -1.36025 0
M  V30 6 C -0.669953 -0.225369 -0.517125 0
M  V30 7 C -1.20677 -1.5013 -0.308521 0
M  V30 8 C -2.30374 -1.72659 0.494199 0
M  V30 9 C -2.87032 -0.625213 1.10132 0
M  V30 10 C -2.3461 0.635966 0.899596 0
M  V30 11 C -1.24289 0.865239 0.0922916 0
M  V30 12 N -0.79441 2.20903 -0.0695914 0
M  V30 13 N 2.07867 1.20963 0.0496343 0
M  V30 14 H 2.68703 -0.331061 2.03163 0
M  V30 15 H 2.59126 0.0125312 -1.52732 0
M  V30 16 H 0.416409 0.797363 -2.03226 0
M  V30 17 H 0.582194 -0.973156 -2.06386 0
M  V30 18 H -0.775928 -2.37484 -0.778928 0
M  V30 19 H -2.69668 -2.73366 0.637561 0
M  V30 20 H -3.74124 -0.77353 1.74298 0
M  V30 21 H -2.79955 1.51726 1.38393 0
M  V30 22 H -0.791156 2.89962 0.735561 0
M  V30 23 H -0.44833 2.5913 -0.970332 0
M  V30 24 H 2.22514 1.98982 -0.654246 0
M  V30 25 H 2.96517 1.06947 0.582744 0
M  V30 END ATOM
M  V30 BEGIN BOND
M  V30 1 1 1 2
M  V30 2 2 2 3
M  V30 3 1 2 4
M  V30 4 1 4 5
M  V30 5 1 5 6
M  V30 6 2 6 7
M  V30 7 1 7 8
M  V30 8 2 8 9
M  V30 9 1 9 10
M  V30 10 2 10 11
M  V30 11 1 11 12
M  V30 12 1 4 13
M  V30 13 1 11 6
M  V30 14 1 1 14
M  V30 15 1 4 15 CFG=3
M  V30 16 1 5 16
M  V30 17 1 5 17
M  V30 18 1 7 18
M  V30 19 1 8 19
M  V30 20 1 9 20
M  V30 21 1 10 21
M  V30 22 1 12 22
M  V30 23 1 12 23
M  V30 24 1 13 24
M  V30 25 1 13 25
M  V30 END BOND
M  V30 END CTAB
M  END
