
     RDKit          3D

  0  0  0  0  0  0  0  0  0  0999 V3000
M  V30 BEGIN CTAB
M  V30 COUNTS 32 35 0 0 0
M  V30 BEGIN ATOM
M  V30 1 N 4.67167 0.295025 -1.63884 0
M  V30 2 C 3.77626 -0.234847 -0.673292 0
M  V30 3 N 4.19477 -1.03251 0.326186 0
M  V30 4 C 3.36717 -1.54672 1.2526 0
M  V30 5 C 2.01734 -1.26806 1.21286 0
M  V30 6 C 1.58158 -0.451003 0.190898 0
M  V30 7 N 2.44595 0.0399202 -0.712662 0
M  V30 8 C 0.161827 -0.125959 0.104774 0
M  V30 9 C -0.443671 0.961435 0.713474 0
M  V30 10 C 0.0390635 1.98512 1.51445 0
M  V30 11 C -0.801569 2.96821 2.00132 0
M  V30 12 N -2.10538 2.88914 1.66526 0
M  V30 13 C -2.56281 1.8825 0.881363 0
M  V30 14 N -3.94414 1.84762 0.558566 0
M  V30 15 N -1.74988 0.917795 0.401008 0
M  V30 16 C -2.01002 -0.155806 -0.385703 0
M  V30 17 N -3.12354 -0.65399 -0.965659 0
M  V30 18 C -3.11798 -1.76607 -1.721 0
M  V30 19 C -1.93916 -2.45336 -1.93338 0
M  V30 20 C -0.769571 -1.96487 -1.34787 0
M  V30 21 C -0.817552 -0.821544 -0.580462 0
M  V30 22 H 4.96661 1.28884 -1.55826 0
M  V30 23 H 5.04734 -0.263808 -2.42401 0
M  V30 24 H 3.74476 -2.18262 2.03806 0
M  V30 25 H 1.32405 -1.67503 1.95596 0
M  V30 26 H 1.08645 2.03999 1.77849 0
M  V30 27 H -0.412861 3.7759 2.63499 0
M  V30 28 H -4.36692 2.53741 -0.120533 0
M  V30 29 H -4.52903 1.11775 1.01433 0
M  V30 30 H -4.02982 -2.15764 -2.18475 0
M  V30 31 H -1.88621 -3.35526 -2.53545 0
M  V30 32 H 0.185264 -2.43754 -1.46272 0
M  V30 END ATOM
M  V30 BEGIN BOND
M  V30 1 1 1 2
M  V30 2 2 2 3
M  V30 3 1 3 4
M  V30 4 2 4 5
M  V30 5 1 5 6
M  V30 6 2 6 7
M  V30 7 1 6 8
M  V30 8 2 8 9
M  V30 9 1 9 10
M  V30 10 2 10 11
M  V30 11 1 11 12
M  V30 12 2 12 13
M  V30 13 1 13 14
M  V30 14 1 13 15
M  V30 15 1 15 16
M  V30 16 2 16 17
M  V30 17 1 17 18
M  V30 18 2 18 19
M  V30 19 1 19 20
M  V30 20 2 20 21
M  V30 21 1 7 2
M  V30 22 1 21 8
M  V30 23 1 15 9
M  V30 24 1 21 16
M  V30 25 1 1 22
M  V30 26 1 1 23
M  V30 27 1 4 24
M  V30 28 1 5 25
M  V30 29 1 10 26
M  V30 30 1 11 27
M  V30 31 1 14 28
M  V30 32 1 14 29
M  V30 33 1 18 30
M  V30 34 1 19 31
M  V30 35 1 20 32
M  V30 END BOND
M  V30 END CTAB
M  END
