
     RDKit          3D

  0  0  0  0  0  0  0  0  0  0999 V3000
M  V30 BEGIN CTAB
M  V30 COUNTS 23 23 0 0 0
M  V30 BEGIN ATOM
M  V30 1 N -2.34988 -2.71328 -0.544104 0
M  V30 2 C -1.61725 -1.5269 -0.300454 0
M  V30 3 C -2.21071 -0.451565 0.323549 0
M  V30 4 C -1.53348 0.712191 0.575901 0
M  V30 5 S -2.29318 2.11777 1.38637 0
M  V30 6 C -0.19265 0.786563 0.176103 0
M  V30 7 C 0.431855 -0.259559 -0.446175 0
M  V30 8 C -0.289505 -1.41297 -0.680154 0
M  V30 9 S 2.086 -0.132781 -0.928941 0
M  V30 10 O 2.33257 0.936047 -1.95576 0
M  V30 11 O 2.54823 -1.43613 -1.56996 0
M  V30 12 N 3.15292 0.176167 0.391203 0
M  V30 13 C 0.564941 2.02088 0.43479 0
M  V30 14 H -2.70046 -3.29586 0.241732 0
M  V30 15 H -2.53819 -3.00304 -1.52722 0
M  V30 16 H -3.25628 -0.517618 0.63206 0
M  V30 17 H -1.80644 2.1392 2.70497 0
M  V30 18 H 0.142404 -2.28114 -1.16883 0
M  V30 19 H 4.06473 -0.280353 0.168839 0
M  V30 20 H 3.32233 1.21545 0.498027 0
M  V30 21 H -0.162011 2.84739 0.696612 0
M  V30 22 H 1.09843 2.41863 -0.449098 0
M  V30 23 H 1.20562 1.9409 1.34054 0
M  V30 END ATOM
M  V30 BEGIN BOND
M  V30 1 1 1 2
M  V30 2 2 2 3
M  V30 3 1 3 4
M  V30 4 1 4 5
M  V30 5 2 4 6
M  V30 6 1 6 7
M  V30 7 2 7 8
M  V30 8 1 7 9
M  V30 9 2 9 10
M  V30 10 2 9 11
M  V30 11 1 9 12
M  V30 12 1 6 13
M  V30 13 1 8 2
M  V30 14 1 1 14
M  V30 15 1 1 15
M  V30 16 1 3 16
M  V30 17 1 5 17
M  V30 18 1 8 18
M  V30 19 1 12 19
M  V30 20 1 12 20
M  V30 21 1 13 21
M  V30 22 1 13 22
M  V30 23 1 13 23
M  V30 END BOND
M  V30 END CTAB
M  END
