
     RDKit          3D

  0  0  0  0  0  0  0  0  0  0999 V3000
M  V30 BEGIN CTAB
M  V30 COUNTS 45 47 0 0 0
M  V30 BEGIN ATOM
M  V30 1 N 6.7093 -1.00636 -1.05111 0
M  V30 2 C 5.36893 -0.790435 -0.541092 0
M  V30 3 C 5.03428 0.622327 -0.193234 0
M  V30 4 C 3.76864 0.495224 -1.01619 0
M  V30 5 C 4.39707 -0.701891 -1.69858 0
M  V30 6 C 2.60844 0.138255 -0.123404 0
M  V30 7 C 1.41998 0.831863 -0.177097 0
M  V30 8 C 0.386599 0.473313 0.65527 0
M  V30 9 N -0.844809 1.15845 0.630249 0
M  V30 10 C -1.94087 0.797919 1.49514 0
M  V30 11 C -3.12012 1.68399 1.26065 0
M  V30 12 C -3.63388 1.61014 -0.151827 0
M  V30 13 N -4.05864 0.283127 -0.485754 0
M  V30 14 C -3.32926 -0.678331 -1.05625 0
M  V30 15 C -4.13221 -1.81286 -1.22024 0
M  V30 16 N -5.33043 -1.47268 -0.730753 0
M  V30 17 C -5.28724 -0.211365 -0.288449 0
M  V30 18 C -6.40821 0.545793 0.327989 0
M  V30 19 N 0.539288 -0.547813 1.51413 0
M  V30 20 C 1.69178 -1.22833 1.57341 0
M  V30 21 N 2.70113 -0.873606 0.756279 0
M  V30 22 N 1.78248 -2.29067 2.5002 0
M  V30 23 H 6.66533 -1.85507 -1.66133 0
M  V30 24 H 7.37187 -1.23128 -0.276942 0
M  V30 25 H 5.13648 -1.56638 0.205745 0
M  V30 26 H 5.71474 1.3495 -0.690736 0
M  V30 27 H 4.81244 0.829488 0.861228 0
M  V30 28 H 3.56349 1.3385 -1.68608 0
M  V30 29 H 3.70957 -1.56809 -1.78343 0
M  V30 30 H 4.88192 -0.382439 -2.62768 0
M  V30 31 H 1.33868 1.65664 -0.89134 0
M  V30 32 H -0.97522 1.9498 -0.0295524 0
M  V30 33 H -2.22346 -0.272566 1.30794 0
M  V30 34 H -1.5981 0.853019 2.56837 0
M  V30 35 H -2.83146 2.72934 1.49186 0
M  V30 36 H -3.91476 1.36718 1.98073 0
M  V30 37 H -4.47425 2.3202 -0.309387 0
M  V30 38 H -2.84648 1.93577 -0.878024 0
M  V30 39 H -2.30443 -0.609584 -1.34712 0
M  V30 40 H -3.83279 -2.74107 -1.64706 0
M  V30 41 H -6.17015 0.820216 1.3671 0
M  V30 42 H -6.61316 1.47878 -0.220058 0
M  V30 43 H -7.34641 -0.0456985 0.333815 0
M  V30 44 H 1.25014 -3.15868 2.31561 0
M  V30 45 H 2.36376 -2.22363 3.35337 0
M  V30 END ATOM
M  V30 BEGIN BOND
M  V30 1 1 1 2
M  V30 2 1 2 3
M  V30 3 1 3 4
M  V30 4 1 4 5
M  V30 5 1 4 6
M  V30 6 2 6 7
M  V30 7 1 7 8
M  V30 8 1 8 9
M  V30 9 1 9 10
M  V30 10 1 10 11
M  V30 11 1 11 12
M  V30 12 1 12 13
M  V30 13 1 13 14
M  V30 14 2 14 15
M  V30 15 1 15 16
M  V30 16 2 16 17
M  V30 17 1 17 18
M  V30 18 2 8 19
M  V30 19 1 19 20
M  V30 20 2 20 21
M  V30 21 1 20 22
M  V30 22 1 5 2
M  V30 23 1 21 6
M  V30 24 1 17 13
M  V30 25 1 1 23
M  V30 26 1 1 24
M  V30 27 1 2 25
M  V30 28 1 3 26
M  V30 29 1 3 27
M  V30 30 1 4 28
M  V30 31 1 5 29
M  V30 32 1 5 30
M  V30 33 1 7 31
M  V30 34 1 9 32
M  V30 35 1 10 33
M  V30 36 1 10 34
M  V30 37 1 11 35
M  V30 38 1 11 36
M  V30 39 1 12 37
M  V30 40 1 12 38
M  V30 41 1 14 39
M  V30 42 1 15 40
M  V30 43 1 18 41
M  V30 44 1 18 42
M  V30 45 1 18 43
M  V30 46 1 22 44
M  V30 47 1 22 45
M  V30 END BOND
M  V30 END CTAB
M  END
