
     RDKit          3D

  0  0  0  0  0  0  0  0  0  0999 V3000
M  V30 BEGIN CTAB
M  V30 COUNTS 94 97 0 0 0
M  V30 BEGIN ATOM
M  V30 1 C 3.99978 -2.80419 -1.97433 0 CFG=1
M  V30 2 N 4.13382 -1.98129 -3.15973 0
M  V30 3 C 5.23094 -3.63824 -1.80584 0
M  V30 4 C 6.47814 -2.86136 -1.64973 0
M  V30 5 C 7.03971 -2.41706 -0.472662 0
M  V30 6 N 8.17513 -1.74417 -0.743949 0
M  V30 7 C 8.3422 -1.75539 -2.07668 0
M  V30 8 N 7.31562 -2.43041 -2.61919 0
M  V30 9 C 3.64823 -1.99942 -0.785149 0
M  V30 10 O 3.75696 -2.4848 0.360938 0
M  V30 11 N 3.1855 -0.682287 -0.941063 0
M  V30 12 C 2.80991 0.20987 0.154904 0 CFG=1
M  V30 13 C 3.186 1.61961 -0.0349263 0
M  V30 14 C 4.67332 1.79296 -0.21974 0
M  V30 15 C 5.48629 1.97765 0.866803 0
M  V30 16 C 6.84709 2.13745 0.666908 0
M  V30 17 C 7.37755 2.11054 -0.616244 0
M  V30 18 C 6.54578 1.92344 -1.69925 0
M  V30 19 C 5.20671 1.76746 -1.4861 0
M  V30 20 C 1.41334 -0.00993818 0.534831 0
M  V30 21 O 0.892084 -1.17036 0.538392 0
M  V30 22 N 0.545463 1.06299 0.922739 0
M  V30 23 C -0.822122 0.771503 1.30078 0 CFG=1
M  V30 24 C -1.38749 1.43272 2.47368 0
M  V30 25 C -1.53312 2.89134 2.54818 0
M  V30 26 C -0.331145 3.75937 2.4735 0
M  V30 27 N 0.655682 3.493 3.50956 0
M  V30 28 C 0.439099 3.76247 4.87967 0
M  V30 29 N 0.619407 2.74373 5.84252 0
M  V30 30 N 0.0724472 4.93053 5.2956 0
M  V30 31 C -1.71744 0.882815 0.0821747 0
M  V30 32 O -1.2048 1.32702 -0.96382 0
M  V30 33 N -3.06369 0.47882 0.174745 0
M  V30 34 C -3.98694 0.53429 -0.951854 0 CFG=1
M  V30 35 C -3.70226 -0.735824 -1.72649 0
M  V30 36 C -3.84642 -1.98804 -1.01031 0
M  V30 37 C -2.79729 -2.63234 -0.307568 0
M  V30 38 N -3.23784 -3.71924 0.28245 0
M  V30 39 C -4.55028 -3.83992 0.00658797 0
M  V30 40 C -5.4724 -4.80962 0.370197 0
M  V30 41 C -6.77738 -4.73298 -0.0547148 0
M  V30 42 C -7.18264 -3.6733 -0.858735 0
M  V30 43 C -6.26124 -2.73078 -1.20365 0
M  V30 44 C -4.94907 -2.78126 -0.792028 0
M  V30 45 C -5.32596 0.828162 -0.561052 0
M  V30 46 O -5.59229 0.970619 0.685599 0
M  V30 47 N -6.4455 0.990421 -1.41358 0
M  V30 48 C -7.78037 1.2958 -1.02152 0
M  V30 49 C -8.70487 1.38577 -2.16328 0
M  V30 50 O -10.0436 1.65574 -1.95377 0
M  V30 51 O -8.31504 1.222 -3.34735 0
M  V30 52 H 3.12208 -3.51619 -2.14455 0
M  V30 53 H 4.70879 -1.13809 -2.88532 0
M  V30 54 H 3.2081 -1.5847 -3.46647 0
M  V30 55 H 5.12099 -4.29369 -0.893927 0
M  V30 56 H 5.38163 -4.30548 -2.70525 0
M  V30 57 H 6.63883 -2.57798 0.537221 0
M  V30 58 H 8.80738 -1.29929 -0.0603433 0
M  V30 59 H 9.17748 -1.28522 -2.57219 0
M  V30 60 H 3.09491 -0.28653 -1.89939 0
M  V30 61 H 3.40141 -0.215105 1.03685 0
M  V30 62 H 2.71915 2.05754 -0.937609 0
M  V30 63 H 2.90798 2.27823 0.83874 0
M  V30 64 H 5.08254 2.00143 1.89238 0
M  V30 65 H 7.50272 2.28506 1.51532 0
M  V30 66 H 8.45495 2.23663 -0.791189 0
M  V30 67 H 6.95171 1.89957 -2.72567 0
M  V30 68 H 4.53064 1.62215 -2.31736 0
M  V30 69 H 0.972641 1.99943 0.896014 0
M  V30 70 H -0.812895 -0.354886 1.53317 0
M  V30 71 H -0.715 1.12318 3.35829 0
M  V30 72 H -2.36619 0.910081 2.77933 0
M  V30 73 H -2.01755 3.11936 3.55701 0
M  V30 74 H -2.28973 3.29732 1.81612 0
M  V30 75 H 0.0847348 3.95579 1.48672 0
M  V30 76 H -0.740622 4.81271 2.76558 0
M  V30 77 H 1.56197 3.08415 3.21644 0
M  V30 78 H 0.623889 1.75017 5.51619 0
M  V30 79 H 0.747523 2.93809 6.85485 0
M  V30 80 H -0.059357 5.67965 4.56423 0
M  V30 81 H -3.42468 0.1243 1.08199 0
M  V30 82 H -3.593 1.3496 -1.63627 0
M  V30 83 H -4.27315 -0.736963 -2.70405 0
M  V30 84 H -2.6261 -0.630119 -2.0647 0
M  V30 85 H -1.78395 -2.2482 -0.28606 0
M  V30 86 H -2.68566 -4.39591 0.872197 0
M  V30 87 H -5.1207 -5.62849 1.00152 0
M  V30 88 H -7.47035 -5.50732 0.246939 0
M  V30 89 H -8.23055 -3.63414 -1.18783 0
M  V30 90 H -6.55902 -1.91433 -1.8353 0
M  V30 91 H -6.24324 0.867927 -2.44565 0
M  V30 92 H -7.82874 2.24456 -0.417148 0
M  V30 93 H -8.20997 0.516235 -0.334827 0
M  V30 94 H -10.7966 1.06357 -2.32291 0
M  V30 END ATOM
M  V30 BEGIN BOND
M  V30 1 1 1 2
M  V30 2 1 1 3
M  V30 3 1 3 4
M  V30 4 2 4 5
M  V30 5 1 5 6
M  V30 6 1 6 7
M  V30 7 2 7 8
M  V30 8 1 1 9
M  V30 9 2 9 10
M  V30 10 1 9 11
M  V30 11 1 11 12
M  V30 12 1 12 13
M  V30 13 1 13 14
M  V30 14 2 14 15
M  V30 15 1 15 16
M  V30 16 2 16 17
M  V30 17 1 17 18
M  V30 18 2 18 19
M  V30 19 1 12 20
M  V30 20 2 20 21
M  V30 21 1 20 22
M  V30 22 1 22 23
M  V30 23 1 23 24
M  V30 24 1 24 25
M  V30 25 1 25 26
M  V30 26 1 26 27
M  V30 27 1 27 28
M  V30 28 1 28 29
M  V30 29 2 28 30 CFG=2
M  V30 30 1 23 31
M  V30 31 2 31 32
M  V30 32 1 31 33
M  V30 33 1 33 34
M  V30 34 1 34 35
M  V30 35 1 35 36
M  V30 36 2 36 37
M  V30 37 1 37 38
M  V30 38 1 38 39
M  V30 39 2 39 40
M  V30 40 1 40 41
M  V30 41 2 41 42
M  V30 42 1 42 43
M  V30 43 2 43 44
M  V30 44 1 34 45
M  V30 45 2 45 46
M  V30 46 1 45 47
M  V30 47 1 47 48
M  V30 48 1 48 49
M  V30 49 1 49 50
M  V30 50 2 49 51
M  V30 51 1 8 4
M  V30 52 1 19 14
M  V30 53 1 44 36
M  V30 54 1 44 39
M  V30 55 1 1 52 CFG=3
M  V30 56 1 2 53
M  V30 57 1 2 54
M  V30 58 1 3 55
M  V30 59 1 3 56
M  V30 60 1 5 57
M  V30 61 1 6 58
M  V30 62 1 7 59
M  V30 63 1 11 60
M  V30 64 1 12 61 CFG=1
M  V30 65 1 13 62
M  V30 66 1 13 63
M  V30 67 1 15 64
M  V30 68 1 16 65
M  V30 69 1 17 66
M  V30 70 1 18 67
M  V30 71 1 19 68
M  V30 72 1 22 69
M  V30 73 1 23 70 CFG=1
M  V30 74 1 24 71
M  V30 75 1 24 72
M  V30 76 1 25 73
M  V30 77 1 25 74
M  V30 78 1 26 75
M  V30 79 1 26 76
M  V30 80 1 27 77
M  V30 81 1 29 78
M  V30 82 1 29 79
M  V30 83 1 30 80
M  V30 84 1 33 81
M  V30 85 1 34 82 CFG=3
M  V30 86 1 35 83
M  V30 87 1 35 84
M  V30 88 1 37 85
M  V30 89 1 38 86
M  V30 90 1 40 87
M  V30 91 1 41 88
M  V30 92 1 42 89
M  V30 93 1 43 90
M  V30 94 1 47 91
M  V30 95 1 48 92
M  V30 96 1 48 93
M  V30 97 1 50 94
M  V30 END BOND
M  V30 END CTAB
M  END
