
     RDKit          3D

  0  0  0  0  0  0  0  0  0  0999 V3000
M  V30 BEGIN CTAB
M  V30 COUNTS 54 55 0 0 0
M  V30 BEGIN ATOM
M  V30 1 C 2.0849 -0.604055 -1.51013 0 CFG=1
M  V30 2 N 2.79337 0.288301 -2.43868 0
M  V30 3 C 2.18237 0.116068 -0.166258 0
M  V30 4 C 3.62792 0.307669 0.235542 0
M  V30 5 C 3.64385 1.0331 1.56702 0
M  V30 6 N 2.95832 0.257924 2.56407 0
M  V30 7 C 2.84389 0.806629 3.89586 0
M  V30 8 N 2.50399 -0.0504133 4.97481 0
M  V30 9 N 3.04492 2.05511 4.11953 0
M  V30 10 C 0.665062 -0.6877 -1.90228 0
M  V30 11 O 0.262641 0.195277 -2.74459 0
M  V30 12 N -0.259758 -1.65871 -1.41989 0
M  V30 13 C 0.139437 -2.7076 -0.473645 0
M  V30 14 C -0.990964 -3.72761 -0.536077 0
M  V30 15 C -2.20667 -2.92576 -0.941594 0
M  V30 16 C -1.62577 -1.7958 -1.78717 0 CFG=1
M  V30 17 C -2.48781 -0.658359 -1.9301 0
M  V30 18 O -3.44216 -0.890649 -2.85445 0
M  V30 19 N -2.62862 0.620785 -1.39494 0
M  V30 20 C -3.62809 1.536 -2.09949 0
M  V30 21 C -4.01985 2.57108 -1.13774 0
M  V30 22 C -3.52924 2.04971 0.176245 0
M  V30 23 C -2.15212 1.42621 -0.343239 0 CFG=1
M  V30 24 C -1.51856 0.889105 0.847548 0
M  V30 25 O -0.577595 1.68991 1.53951 0
M  V30 26 O -1.753 -0.230945 1.29649 0
M  V30 27 H 2.61269 -1.54124 -1.42968 0
M  V30 28 H 2.16585 1.07408 -2.73991 0
M  V30 29 H 3.1057 -0.265351 -3.29127 0
M  V30 30 H 1.70335 1.11091 -0.280423 0
M  V30 31 H 1.63466 -0.408654 0.609855 0
M  V30 32 H 4.21803 0.849527 -0.514375 0
M  V30 33 H 4.06941 -0.697127 0.428482 0
M  V30 34 H 3.10395 2.0087 1.39231 0
M  V30 35 H 4.64948 1.33738 1.88521 0
M  V30 36 H 2.52858 -0.682821 2.39507 0
M  V30 37 H 3.04531 -0.922581 5.12572 0
M  V30 38 H 1.72601 0.159142 5.62845 0
M  V30 39 H 3.29355 2.7932 3.46726 0
M  V30 40 H 1.05567 -3.24548 -0.811423 0
M  V30 41 H 0.23742 -2.26652 0.516249 0
M  V30 42 H -0.793967 -4.55489 -1.21831 0
M  V30 43 H -1.09504 -4.14129 0.485993 0
M  V30 44 H -2.87947 -3.59292 -1.50713 0
M  V30 45 H -2.7478 -2.56242 -0.0552544 0
M  V30 46 H -1.60066 -2.30663 -2.8478 0
M  V30 47 H -4.44652 0.943756 -2.50575 0
M  V30 48 H -2.98179 1.99611 -2.90961 0
M  V30 49 H -5.10603 2.82016 -1.14682 0
M  V30 50 H -3.46238 3.54766 -1.29776 0
M  V30 51 H -4.18086 1.22938 0.504567 0
M  V30 52 H -3.30078 2.81285 0.918231 0
M  V30 53 H -1.65248 2.37311 -0.708522 0
M  V30 54 H -0.832324 2.22664 2.3703 0
M  V30 END ATOM
M  V30 BEGIN BOND
M  V30 1 1 1 2
M  V30 2 1 1 3
M  V30 3 1 3 4
M  V30 4 1 4 5
M  V30 5 1 5 6
M  V30 6 1 6 7
M  V30 7 1 7 8
M  V30 8 2 7 9 CFG=2
M  V30 9 1 1 10
M  V30 10 2 10 11
M  V30 11 1 10 12
M  V30 12 1 12 13
M  V30 13 1 13 14
M  V30 14 1 14 15
M  V30 15 1 15 16
M  V30 16 1 16 17
M  V30 17 2 17 18
M  V30 18 1 17 19
M  V30 19 1 19 20
M  V30 20 1 20 21
M  V30 21 1 21 22
M  V30 22 1 22 23
M  V30 23 1 23 24
M  V30 24 1 24 25
M  V30 25 2 24 26
M  V30 26 1 16 12
M  V30 27 1 23 19
M  V30 28 1 1 27 CFG=1
M  V30 29 1 2 28
M  V30 30 1 2 29
M  V30 31 1 3 30
M  V30 32 1 3 31
M  V30 33 1 4 32
M  V30 34 1 4 33
M  V30 35 1 5 34
M  V30 36 1 5 35
M  V30 37 1 6 36
M  V30 38 1 8 37
M  V30 39 1 8 38
M  V30 40 1 9 39
M  V30 41 1 13 40
M  V30 42 1 13 41
M  V30 43 1 14 42
M  V30 44 1 14 43
M  V30 45 1 15 44
M  V30 46 1 15 45
M  V30 47 1 16 46 CFG=3
M  V30 48 1 20 47
M  V30 49 1 20 48
M  V30 50 1 21 49
M  V30 51 1 21 50
M  V30 52 1 22 51
M  V30 53 1 22 52
M  V30 54 1 23 53 CFG=3
M  V30 55 1 25 54
M  V30 END BOND
M  V30 END CTAB
M  END
