
     RDKit          3D

  0  0  0  0  0  0  0  0  0  0999 V3000
M  V30 BEGIN CTAB
M  V30 COUNTS 25 25 0 0 0
M  V30 BEGIN ATOM
M  V30 1 C 2.98972 -1.82097 0.0261336 0
M  V30 2 C 2.04038 -0.667428 0.100849 0
M  V30 3 C 2.405 0.462803 0.814963 0
M  V30 4 C 1.49699 1.51744 1.00147 0
M  V30 5 C 0.231663 1.39743 0.443222 0
M  V30 6 C -0.158524 0.280738 -0.279164 0
M  V30 7 C 0.775158 -0.721849 -0.423099 0
M  V30 8 F 0.424045 -1.85872 -1.12372 0
M  V30 9 C -1.44438 0.308525 -0.96539 0
M  V30 10 C -2.61502 0.0870181 0.0125203 0
M  V30 11 N -2.42359 -1.24623 0.606877 0
M  V30 12 N -1.76012 1.7 -1.41795 0
M  V30 13 H 3.95584 -1.53236 0.440575 0
M  V30 14 H 3.10464 -2.2133 -0.97702 0
M  V30 15 H 2.60796 -2.61807 0.763519 0
M  V30 16 H 3.40629 0.550194 1.22056 0
M  V30 17 H 1.84243 2.38268 1.54415 0
M  V30 18 H -0.425652 2.2362 0.610048 0
M  V30 19 H -1.57613 -0.339046 -1.82643 0
M  V30 20 H -3.51952 0.0470427 -0.616085 0
M  V30 21 H -2.69421 0.880496 0.759625 0
M  V30 22 H -2.63251 -1.21751 1.59732 0
M  V30 23 H -3.0103 -1.95204 0.104678 0
M  V30 24 H -0.931143 2.07709 -1.85211 0
M  V30 25 H -2.08902 2.25988 -0.565539 0
M  V30 END ATOM
M  V30 BEGIN BOND
M  V30 1 1 1 2
M  V30 2 2 2 3
M  V30 3 1 3 4
M  V30 4 2 4 5
M  V30 5 1 5 6
M  V30 6 2 6 7
M  V30 7 1 7 8
M  V30 8 1 6 9
M  V30 9 1 9 10
M  V30 10 1 10 11
M  V30 11 1 9 12
M  V30 12 1 7 2
M  V30 13 1 1 13
M  V30 14 1 1 14
M  V30 15 1 1 15
M  V30 16 1 3 16
M  V30 17 1 4 17
M  V30 18 1 5 18
M  V30 19 1 9 19
M  V30 20 1 10 20
M  V30 21 1 10 21
M  V30 22 1 11 22
M  V30 23 1 11 23
M  V30 24 1 12 24
M  V30 25 1 12 25
M  V30 END BOND
M  V30 END CTAB
M  END
