
     RDKit          3D

  0  0  0  0  0  0  0  0  0  0999 V3000
M  V30 BEGIN CTAB
M  V30 COUNTS 18 18 0 0 0
M  V30 BEGIN ATOM
M  V30 1 N 1.21706 -2.24879 -0.390798 0
M  V30 2 C 0.480588 -1.03554 -0.195471 0
M  V30 3 N -0.855435 -0.994262 -0.264052 0
M  V30 4 C -1.55436 0.134328 -0.0420381 0
M  V30 5 N -0.921267 1.28722 0.258837 0
M  V30 6 C 0.434335 1.32995 0.346853 0
M  V30 7 O 1.07433 2.50313 0.647093 0
M  V30 8 C 1.14134 0.147864 0.115198 0
M  V30 9 N 2.55097 0.194167 0.200571 0
M  V30 10 C -3.03899 0.0992362 -0.149927 0
M  V30 11 F -3.47505 -0.910071 0.731556 0
M  V30 12 F -3.33086 -0.255375 -1.42706 0
M  V30 13 F -3.58946 1.31746 0.175456 0
M  V30 14 H 1.65021 -2.49911 -1.33242 0
M  V30 15 H 1.32525 -2.89449 0.387389 0
M  V30 16 H 0.678787 3.43161 0.594084 0
M  V30 17 H 3.08989 1.07447 0.21495 0
M  V30 18 H 3.12265 -0.681808 0.244973 0
M  V30 END ATOM
M  V30 BEGIN BOND
M  V30 1 1 1 2
M  V30 2 2 2 3
M  V30 3 1 3 4
M  V30 4 2 4 5
M  V30 5 1 5 6
M  V30 6 1 6 7
M  V30 7 2 6 8
M  V30 8 1 8 9
M  V30 9 1 4 10
M  V30 10 1 10 11
M  V30 11 1 10 12
M  V30 12 1 10 13
M  V30 13 1 8 2
M  V30 14 1 1 14
M  V30 15 1 1 15
M  V30 16 1 7 16
M  V30 17 1 9 17
M  V30 18 1 9 18
M  V30 END BOND
M  V30 END CTAB
M  END
