
     RDKit          3D

  0  0  0  0  0  0  0  0  0  0999 V3000
M  V30 BEGIN CTAB
M  V30 COUNTS 34 34 0 0 0
M  V30 BEGIN ATOM
M  V30 1 N 1.03224 1.24135 1.60564 0
M  V30 2 C 0.954474 0.0125577 0.933274 0
M  V30 3 C -0.418014 -0.194916 0.424637 0
M  V30 4 O -0.634612 -1.26496 -0.203721 0
M  V30 5 O -1.46314 0.668278 0.576896 0
M  V30 6 C -2.76502 0.496893 0.107834 0
M  V30 7 C -2.86149 0.353373 -1.38768 0
M  V30 8 C -3.47547 -0.685831 0.724831 0
M  V30 9 C -3.57653 1.73458 0.485012 0
M  V30 10 C 2.00662 -0.0357755 -0.118867 0 CFG=2
M  V30 11 C 2.04385 -1.32906 -0.94224 0
M  V30 12 C 3.57293 -1.22796 -0.84685 0 CFG=2
M  V30 13 C 3.32645 -0.49937 0.481347 0
M  V30 14 N 4.14855 -0.34407 -1.83292 0
M  V30 15 H 1.24911 1.24495 2.51309 0
M  V30 16 H 0.87435 2.0235 1.06836 0
M  V30 17 H 1.17548 -0.777381 1.67729 0
M  V30 18 H -2.38512 1.23368 -1.89939 0
M  V30 19 H -2.47016 -0.581471 -1.78092 0
M  V30 20 H -3.94133 0.398122 -1.64684 0
M  V30 21 H -3.28387 -1.58208 0.131351 0
M  V30 22 H -3.18082 -0.84268 1.78258 0
M  V30 23 H -4.56925 -0.457848 0.751394 0
M  V30 24 H -3.85723 1.72413 1.55819 0
M  V30 25 H -3.04755 2.66593 0.261468 0
M  V30 26 H -4.54372 1.76189 -0.0747704 0
M  V30 27 H 2.10923 0.856597 -0.753755 0
M  V30 28 H 1.63927 -1.25067 -1.94832 0
M  V30 29 H 1.71497 -2.17285 -0.322663 0
M  V30 30 H 4.07883 -2.2039 -0.736575 0
M  V30 31 H 3.17856 -1.26883 1.26467 0
M  V30 32 H 4.04008 0.303237 0.701079 0
M  V30 33 H 5.1106 -0.625765 -2.1141 0
M  V30 34 H 4.21773 0.626358 -1.44638 0
M  V30 END ATOM
M  V30 BEGIN BOND
M  V30 1 1 1 2
M  V30 2 1 2 3
M  V30 3 2 3 4
M  V30 4 1 3 5
M  V30 5 1 5 6
M  V30 6 1 6 7
M  V30 7 1 6 8
M  V30 8 1 6 9
M  V30 9 1 2 10
M  V30 10 1 10 11
M  V30 11 1 11 12
M  V30 12 1 12 13
M  V30 13 1 12 14
M  V30 14 1 13 10
M  V30 15 1 1 15
M  V30 16 1 1 16
M  V30 17 1 2 17
M  V30 18 1 7 18
M  V30 19 1 7 19
M  V30 20 1 7 20
M  V30 21 1 8 21
M  V30 22 1 8 22
M  V30 23 1 8 23
M  V30 24 1 9 24
M  V30 25 1 9 25
M  V30 26 1 9 26
M  V30 27 1 10 27 CFG=3
M  V30 28 1 11 28
M  V30 29 1 11 29
M  V30 30 1 12 30 CFG=1
M  V30 31 1 13 31
M  V30 32 1 13 32
M  V30 33 1 14 33
M  V30 34 1 14 34
M  V30 END BOND
M  V30 END CTAB
M  END
