
     RDKit          3D

  0  0  0  0  0  0  0  0  0  0999 V3000
M  V30 BEGIN CTAB
M  V30 COUNTS 22 23 0 0 0
M  V30 BEGIN ATOM
M  V30 1 N -3.25068 0.594108 0.129054 0
M  V30 2 C -1.83609 0.648508 0.0705122 0
M  V30 3 C -1.23063 1.89789 0.0279621 0
M  V30 4 C 0.141789 1.92806 -0.0285157 0
M  V30 5 C 0.94227 0.805417 -0.0451868 0
M  V30 6 C 2.32799 0.87978 -0.102835 0
M  V30 7 C 3.11705 -0.252643 -0.118898 0
M  V30 8 Br 5.03453 -0.136656 -0.198867 0
M  V30 9 C 2.47041 -1.46674 -0.0751648 0
M  V30 10 C 1.09535 -1.56843 -0.0175621 0
M  V30 11 C 0.313241 -0.429083 -0.00188402 0
M  V30 12 C -1.06795 -0.508838 0.0556565 0
M  V30 13 N -1.73398 -1.75938 0.100698 0
M  V30 14 H -3.7614 0.0967777 0.909604 0
M  V30 15 H -3.78737 1.06614 -0.631961 0
M  V30 16 H -1.85748 2.78364 0.0409235 0
M  V30 17 H 0.617157 2.89573 -0.0617353 0
M  V30 18 H 2.81666 1.84231 -0.136529 0
M  V30 19 H 3.06639 -2.35576 -0.0868058 0
M  V30 20 H 0.577018 -2.50911 0.0170262 0
M  V30 21 H -2.21939 -2.06741 -0.766984 0
M  V30 22 H -1.7749 -2.38433 0.921491 0
M  V30 END ATOM
M  V30 BEGIN BOND
M  V30 1 1 1 2
M  V30 2 2 2 3
M  V30 3 1 3 4
M  V30 4 2 4 5
M  V30 5 1 5 6
M  V30 6 2 6 7
M  V30 7 1 7 8
M  V30 8 1 7 9
M  V30 9 2 9 10
M  V30 10 1 10 11
M  V30 11 2 11 12
M  V30 12 1 12 13
M  V30 13 1 12 2
M  V30 14 1 11 5
M  V30 15 1 1 14
M  V30 16 1 1 15
M  V30 17 1 3 16
M  V30 18 1 4 17
M  V30 19 1 6 18
M  V30 20 1 9 19
M  V30 21 1 10 20
M  V30 22 1 13 21
M  V30 23 1 13 22
M  V30 END BOND
M  V30 END CTAB
M  END
