
     RDKit          3D

  0  0  0  0  0  0  0  0  0  0999 V3000
M  V30 BEGIN CTAB
M  V30 COUNTS 21 21 0 0 0
M  V30 BEGIN ATOM
M  V30 1 F 5.18049 -0.934966 -0.499501 0
M  V30 2 C 4.28546 0.132299 -0.486162 0
M  V30 3 C 2.86521 -0.363578 -0.330537 0
M  V30 4 S 1.76477 1.05027 -0.320383 0
M  V30 5 C 0.051532 0.578558 -0.140226 0
M  V30 6 N -0.889191 1.53873 -0.116324 0
M  V30 7 C -2.20375 1.25294 0.0172434 0
M  V30 8 N -3.2001 2.26239 0.0430278 0
M  V30 9 C -2.63284 -0.0532711 0.135495 0
M  V30 10 C -1.65854 -1.03005 0.109651 0
M  V30 11 N -0.356427 -0.693893 -0.0259207 0
M  V30 12 N -2.08201 -2.38973 0.230709 0
M  V30 13 H 4.3245 0.711304 -1.43287 0
M  V30 14 H 4.49645 0.791103 0.388892 0
M  V30 15 H 2.59518 -1.14181 -1.04692 0
M  V30 16 H 2.81845 -0.85188 0.686875 0
M  V30 17 H -3.5056 2.82012 -0.777302 0
M  V30 18 H -3.65434 2.45202 0.957658 0
M  V30 19 H -3.67377 -0.33245 0.244514 0
M  V30 20 H -3.03297 -2.66451 -0.138167 0
M  V30 21 H -1.4925 -3.13362 0.670216 0
M  V30 END ATOM
M  V30 BEGIN BOND
M  V30 1 1 1 2
M  V30 2 1 2 3
M  V30 3 1 3 4
M  V30 4 1 4 5
M  V30 5 2 5 6
M  V30 6 1 6 7
M  V30 7 1 7 8
M  V30 8 2 7 9
M  V30 9 1 9 10
M  V30 10 2 10 11
M  V30 11 1 10 12
M  V30 12 1 11 5
M  V30 13 1 2 13
M  V30 14 1 2 14
M  V30 15 1 3 15
M  V30 16 1 3 16
M  V30 17 1 8 17
M  V30 18 1 8 18
M  V30 19 1 9 19
M  V30 20 1 12 20
M  V30 21 1 12 21
M  V30 END BOND
M  V30 END CTAB
M  END
