
     RDKit          3D

  0  0  0  0  0  0  0  0  0  0999 V3000
M  V30 BEGIN CTAB
M  V30 COUNTS 56 59 0 0 0
M  V30 BEGIN ATOM
M  V30 1 N -6.26094 0.218729 -2.69569 0
M  V30 2 C -5.43385 -0.29541 -1.58856 0
M  V30 3 C -5.03837 0.752472 -0.660576 0
M  V30 4 C -5.45506 2.07326 -0.839628 0
M  V30 5 C -5.11803 3.09371 0.017288 0
M  V30 6 C -4.33004 2.80794 1.10934 0
M  V30 7 C -3.88384 1.50028 1.33888 0
M  V30 8 C -4.24443 0.512065 0.456414 0
M  V30 9 N -3.8233 -0.825518 0.66384 0
M  V30 10 N -4.63424 -1.90203 0.668868 0
M  V30 11 C -3.99377 -3.03996 0.867992 0
M  V30 12 C -2.68008 -2.6949 1.0043 0
M  V30 13 C -2.6049 -1.28902 0.869461 0
M  V30 14 C -1.27708 -0.627982 0.991662 0
M  V30 15 O -0.999353 -0.171637 2.10599 0
M  V30 16 N -0.407016 -0.543988 -0.0864025 0
M  V30 17 C 0.892402 0.00647339 -0.171055 0
M  V30 18 C 1.6014 -0.119372 -1.36153 0
M  V30 19 F 0.991149 -0.719348 -2.41164 0
M  V30 20 C 2.9071 0.359063 -1.47082 0
M  V30 21 C 3.51913 0.961764 -0.416771 0
M  V30 22 C 2.8121 1.08082 0.733415 0
M  V30 23 C 1.50159 0.614747 0.887365 0
M  V30 24 C 4.89211 1.40092 -0.471901 0
M  V30 25 C 5.21716 2.76251 -0.566018 0
M  V30 26 C 6.53521 3.15574 -0.607426 0
M  V30 27 C 7.57293 2.2409 -0.556928 0
M  V30 28 C 7.20246 0.920167 -0.463815 0
M  V30 29 C 5.90678 0.476489 -0.42098 0
M  V30 30 S 5.61515 -1.21565 -0.313115 0
M  V30 31 N 7.14536 -2.05451 -0.0885933 0
M  V30 32 O 5.03139 -1.84202 -1.53717 0
M  V30 33 O 4.76602 -1.48762 0.887659 0
M  V30 34 C -4.57986 -4.40594 0.916102 0
M  V30 35 F -5.9078 -4.40402 1.2293 0
M  V30 36 F -3.82257 -5.22593 1.71953 0
M  V30 37 F -4.39697 -4.92584 -0.386326 0
M  V30 38 H -5.70075 0.30471 -3.57931 0
M  V30 39 H -7.10684 -0.398129 -2.85902 0
M  V30 40 H -6.18023 -0.957569 -1.03517 0
M  V30 41 H -4.65275 -0.97027 -1.92547 0
M  V30 42 H -6.07205 2.24282 -1.72939 0
M  V30 43 H -5.46372 4.1068 -0.152304 0
M  V30 44 H -4.05514 3.5937 1.79703 0
M  V30 45 H -3.28575 1.35027 2.22447 0
M  V30 46 H -1.83431 -3.33899 1.18732 0
M  V30 47 H -0.803989 -0.966635 -0.999099 0
M  V30 48 H 3.3597 0.226476 -2.44455 0
M  V30 49 H 3.28212 1.56438 1.58035 0
M  V30 50 H 1.00335 0.755215 1.83648 0
M  V30 51 H 4.40963 3.46383 -0.603608 0
M  V30 52 H 6.77031 4.21087 -0.67977 0
M  V30 53 H 8.62287 2.56378 -0.593296 0
M  V30 54 H 8.04167 0.207702 -0.423233 0
M  V30 55 H 7.57685 -2.0826 -1.05633 0
M  V30 56 H 6.87108 -3.02371 0.233903 0
M  V30 END ATOM
M  V30 BEGIN BOND
M  V30 1 1 1 2
M  V30 2 1 2 3
M  V30 3 2 3 4
M  V30 4 1 4 5
M  V30 5 2 5 6
M  V30 6 1 6 7
M  V30 7 2 7 8
M  V30 8 1 8 9
M  V30 9 1 9 10
M  V30 10 2 10 11
M  V30 11 1 11 12
M  V30 12 2 12 13
M  V30 13 1 13 14
M  V30 14 2 14 15
M  V30 15 1 14 16
M  V30 16 1 16 17
M  V30 17 2 17 18
M  V30 18 1 18 19
M  V30 19 1 18 20
M  V30 20 2 20 21
M  V30 21 1 21 22
M  V30 22 2 22 23
M  V30 23 1 21 24
M  V30 24 2 24 25
M  V30 25 1 25 26
M  V30 26 2 26 27
M  V30 27 1 27 28
M  V30 28 2 28 29
M  V30 29 1 29 30
M  V30 30 1 30 31
M  V30 31 2 30 32
M  V30 32 2 30 33
M  V30 33 1 11 34
M  V30 34 1 34 35
M  V30 35 1 34 36
M  V30 36 1 34 37
M  V30 37 1 8 3
M  V30 38 1 13 9
M  V30 39 1 23 17
M  V30 40 1 29 24
M  V30 41 1 1 38
M  V30 42 1 1 39
M  V30 43 1 2 40
M  V30 44 1 2 41
M  V30 45 1 4 42
M  V30 46 1 5 43
M  V30 47 1 6 44
M  V30 48 1 7 45
M  V30 49 1 12 46
M  V30 50 1 16 47
M  V30 51 1 20 48
M  V30 52 1 22 49
M  V30 53 1 23 50
M  V30 54 1 25 51
M  V30 55 1 26 52
M  V30 56 1 27 53
M  V30 57 1 28 54
M  V30 58 1 31 55
M  V30 59 1 31 56
M  V30 END BOND
M  V30 END CTAB
M  END
