
     RDKit          3D

  0  0  0  0  0  0  0  0  0  0999 V3000
M  V30 BEGIN CTAB
M  V30 COUNTS 28 29 0 0 0
M  V30 BEGIN ATOM
M  V30 1 N -1.12553 -2.95131 -2.47529 0
M  V30 2 C -1.11296 -2.1184 -1.64096 0
M  V30 3 C -1.1261 -1.10766 -0.630866 0
M  V30 4 C -1.87585 -1.34251 0.416203 0
M  V30 5 N -2.65272 -2.47469 0.640761 0
M  V30 6 S -1.91543 -0.0280004 1.642 0
M  V30 7 C -1.82845 1.46194 0.648321 0
M  V30 8 C -1.04263 1.3489 -0.44084 0
M  V30 9 C -0.317043 0.130679 -0.796806 0
M  V30 10 C 1.06204 0.019045 -0.2775 0
M  V30 11 C 1.81056 -1.11452 -0.603292 0
M  V30 12 C 3.11097 -1.28956 -0.162247 0
M  V30 13 C 3.72052 -0.341113 0.622546 0
M  V30 14 C 3.0215 0.772103 0.957099 0
M  V30 15 C 1.71929 0.930019 0.505811 0
M  V30 16 F 1.11163 2.05245 0.881117 0
M  V30 17 F 5.00123 -0.485616 1.0726 0
M  V30 18 C -0.990918 2.53015 -1.25759 0
M  V30 19 N -0.957183 3.48365 -1.93925 0
M  V30 20 N -2.53356 2.59813 1.02427 0
M  V30 21 H -3.63426 -2.52775 0.293424 0
M  V30 22 H -2.2555 -3.28169 1.16089 0
M  V30 23 H -0.16421 0.2031 -1.92142 0
M  V30 24 H 1.41794 -1.9041 -1.21588 0
M  V30 25 H 3.69198 -2.16484 -0.412306 0
M  V30 26 H 3.48306 1.53352 1.5755 0
M  V30 27 H -2.08573 3.35356 1.57418 0
M  V30 28 H -3.53265 2.71453 0.759515 0
M  V30 END ATOM
M  V30 BEGIN BOND
M  V30 1 3 1 2
M  V30 2 1 2 3
M  V30 3 2 3 4
M  V30 4 1 4 5
M  V30 5 1 4 6
M  V30 6 1 6 7
M  V30 7 2 7 8
M  V30 8 1 8 9
M  V30 9 1 9 10
M  V30 10 2 10 11
M  V30 11 1 11 12
M  V30 12 2 12 13
M  V30 13 1 13 14
M  V30 14 2 14 15
M  V30 15 1 15 16
M  V30 16 1 13 17
M  V30 17 1 8 18
M  V30 18 3 18 19
M  V30 19 1 7 20
M  V30 20 1 9 3
M  V30 21 1 15 10
M  V30 22 1 5 21
M  V30 23 1 5 22
M  V30 24 1 9 23
M  V30 25 1 11 24
M  V30 26 1 12 25
M  V30 27 1 14 26
M  V30 28 1 20 27
M  V30 29 1 20 28
M  V30 END BOND
M  V30 END CTAB
M  END
