
     RDKit          3D

  0  0  0  0  0  0  0  0  0  0999 V3000
M  V30 BEGIN CTAB
M  V30 COUNTS 25 25 0 0 0
M  V30 BEGIN ATOM
M  V30 1 C 3.70418 1.32356 -1.07163 0
M  V30 2 O 2.49309 0.634885 -0.837682 0
M  V30 3 C 2.40528 -0.339944 0.129117 0
M  V30 4 O 3.46899 -0.575861 0.788338 0
M  V30 5 C 1.22792 -1.13659 0.487839 0
M  V30 6 C -0.0506946 -0.443005 0.377858 0
M  V30 7 C -0.208149 0.894678 0.528769 0
M  V30 8 C -1.4756 1.47587 0.378441 0
M  V30 9 F -1.64433 2.79286 0.538709 0
M  V30 10 C -2.59144 0.709273 0.0773586 0
M  V30 11 N -3.90093 1.25836 -0.074448 0
M  V30 12 C -2.42104 -0.651438 -0.0711609 0
M  V30 13 C -1.16394 -1.18077 0.0842847 0
M  V30 14 N -1.06925 -2.611 -0.0593863 0
M  V30 15 H 3.98575 1.3209 -2.13833 0
M  V30 16 H 3.6816 2.35337 -0.67969 0
M  V30 17 H 4.52531 0.790296 -0.53195 0
M  V30 18 H 1.36922 -1.53397 1.53322 0
M  V30 19 H 1.18412 -2.03424 -0.150635 0
M  V30 20 H 0.611651 1.54681 0.747132 0
M  V30 21 H -4.3767 1.01057 -0.970355 0
M  V30 22 H -4.39218 1.85336 0.614809 0
M  V30 23 H -3.3118 -1.2605 -0.315975 0
M  V30 24 H -0.857526 -2.95448 -1.01549 0
M  V30 25 H -1.19353 -3.24298 0.769287 0
M  V30 END ATOM
M  V30 BEGIN BOND
M  V30 1 1 1 2
M  V30 2 1 2 3
M  V30 3 2 3 4
M  V30 4 1 3 5
M  V30 5 1 5 6
M  V30 6 2 6 7
M  V30 7 1 7 8
M  V30 8 1 8 9
M  V30 9 2 8 10
M  V30 10 1 10 11
M  V30 11 1 10 12
M  V30 12 2 12 13
M  V30 13 1 13 14
M  V30 14 1 13 6
M  V30 15 1 1 15
M  V30 16 1 1 16
M  V30 17 1 1 17
M  V30 18 1 5 18
M  V30 19 1 5 19
M  V30 20 1 7 20
M  V30 21 1 11 21
M  V30 22 1 11 22
M  V30 23 1 12 23
M  V30 24 1 14 24
M  V30 25 1 14 25
M  V30 END BOND
M  V30 END CTAB
M  END
