
     RDKit          3D

  0  0  0  0  0  0  0  0  0  0999 V3000
M  V30 BEGIN CTAB
M  V30 COUNTS 70 71 0 0 0
M  V30 BEGIN ATOM
M  V30 1 N 4.92481 -3.41965 1.90009 0
M  V30 2 C 5.21493 -2.64358 0.77848 0
M  V30 3 C 4.86699 -1.16011 1.0587 0
M  V30 4 C 3.41825 -1.06064 1.37331 0
M  V30 5 C 2.91469 0.295811 1.71755 0
M  V30 6 C 3.06143 1.36099 0.688899 0 CFG=2
M  V30 7 C 2.40237 1.05637 -0.57803 0
M  V30 8 O 3.13765 0.81634 -1.57808 0
M  V30 9 N 0.967414 1.00377 -0.80211 0
M  V30 10 C 0.601543 0.653336 -2.13899 0
M  V30 11 C -0.69263 0.00729804 -2.29499 0
M  V30 12 N -1.02811 -0.821287 -1.12487 0
M  V30 13 C -2.44902 -1.00586 -1.11945 0
M  V30 14 C -3.06619 -1.23789 0.187568 0
M  V30 15 C -2.77133 -0.335352 1.32109 0
M  V30 16 N -3.00125 1.07225 1.15021 0
M  V30 17 C -2.4108 1.99215 0.257388 0
M  V30 18 C -1.09467 2.14276 -0.110696 0
M  V30 19 C 0.0704903 1.31349 0.295761 0
M  V30 20 C -0.71909 3.17293 -0.984377 0
M  V30 21 C -1.6177 4.06474 -1.51151 0
M  V30 22 C -2.9382 3.93565 -1.16293 0
M  V30 23 C -3.3008 2.92736 -0.306791 0
M  V30 24 Cl -4.15788 5.05713 -1.81086 0
M  V30 25 S -4.23975 1.66553 2.2669 0
M  V30 26 O -4.28179 3.1455 2.23922 0
M  V30 27 O -3.84573 1.27754 3.67073 0
M  V30 28 C -5.7811 0.876871 1.96684 0
M  V30 29 C -0.244056 -2.03311 -1.21757 0
M  V30 30 C -0.528594 -2.88346 -2.40561 0
M  V30 31 C -0.19285 -2.84418 0.0439169 0
M  V30 32 N 4.47972 1.6556 0.470174 0
M  V30 33 H 5.45069 -4.25311 1.97914 0
M  V30 34 H 4.7718 -2.91809 2.73725 0
M  V30 35 H 4.59109 -2.92394 -0.0844387 0
M  V30 36 H 6.27842 -2.63999 0.488066 0
M  V30 37 H 5.13975 -0.674973 0.0811225 0
M  V30 38 H 5.53818 -0.826296 1.85752 0
M  V30 39 H 2.77571 -1.45011 0.530215 0
M  V30 40 H 3.13081 -1.73712 2.23149 0
M  V30 41 H 1.85503 0.166819 2.0515 0
M  V30 42 H 3.4388 0.630136 2.67059 0
M  V30 43 H 2.66275 2.34156 1.1021 0
M  V30 44 H 0.598897 1.57794 -2.81145 0
M  V30 45 H 1.44693 0.0552701 -2.62691 0
M  V30 46 H -1.57026 0.672638 -2.46724 0
M  V30 47 H -0.736552 -0.700945 -3.18263 0
M  V30 48 H -2.88476 -0.0695882 -1.59086 0
M  V30 49 H -2.7968 -1.81633 -1.80889 0
M  V30 50 H -2.75179 -2.27727 0.523737 0
M  V30 51 H -4.19688 -1.40373 0.0884496 0
M  V30 52 H -1.83447 -0.62194 1.82735 0
M  V30 53 H -3.52167 -0.698154 2.13043 0
M  V30 54 H -0.158268 0.463994 0.914588 0
M  V30 55 H 0.723576 1.93944 1.0056 0
M  V30 56 H 0.315184 3.32908 -1.28458 0
M  V30 57 H -1.31146 4.85362 -2.18497 0
M  V30 58 H -4.38304 2.90078 -0.0936413 0
M  V30 59 H -6.04357 0.0945781 2.71359 0
M  V30 60 H -6.6457 1.59002 1.98404 0
M  V30 61 H -5.81993 0.360277 0.976695 0
M  V30 62 H 0.823337 -1.64763 -1.34278 0
M  V30 63 H -0.578681 -3.9514 -2.05771 0
M  V30 64 H 0.33811 -2.84054 -3.13068 0
M  V30 65 H -1.3996 -2.60674 -3.00925 0
M  V30 66 H -0.318565 -2.26012 0.97342 0
M  V30 67 H 0.816713 -3.33825 0.139677 0
M  V30 68 H -0.906102 -3.69225 0.0639776 0
M  V30 69 H 4.63428 1.98699 -0.51139 0
M  V30 70 H 4.82929 2.3371 1.15378 0
M  V30 END ATOM
M  V30 BEGIN BOND
M  V30 1 1 1 2
M  V30 2 1 2 3
M  V30 3 1 3 4
M  V30 4 1 4 5
M  V30 5 1 5 6
M  V30 6 1 6 7
M  V30 7 2 7 8
M  V30 8 1 7 9
M  V30 9 1 9 10
M  V30 10 1 10 11
M  V30 11 1 11 12
M  V30 12 1 12 13
M  V30 13 1 13 14
M  V30 14 1 14 15
M  V30 15 1 15 16
M  V30 16 1 16 17
M  V30 17 2 17 18
M  V30 18 1 18 19
M  V30 19 1 18 20
M  V30 20 2 20 21
M  V30 21 1 21 22
M  V30 22 2 22 23
M  V30 23 1 22 24
M  V30 24 1 16 25
M  V30 25 2 25 26
M  V30 26 2 25 27
M  V30 27 1 25 28
M  V30 28 1 12 29
M  V30 29 1 29 30
M  V30 30 1 29 31
M  V30 31 1 6 32
M  V30 32 1 19 9
M  V30 33 1 23 17
M  V30 34 1 1 33
M  V30 35 1 1 34
M  V30 36 1 2 35
M  V30 37 1 2 36
M  V30 38 1 3 37
M  V30 39 1 3 38
M  V30 40 1 4 39
M  V30 41 1 4 40
M  V30 42 1 5 41
M  V30 43 1 5 42
M  V30 44 1 6 43 CFG=1
M  V30 45 1 10 44
M  V30 46 1 10 45
M  V30 47 1 11 46
M  V30 48 1 11 47
M  V30 49 1 13 48
M  V30 50 1 13 49
M  V30 51 1 14 50
M  V30 52 1 14 51
M  V30 53 1 15 52
M  V30 54 1 15 53
M  V30 55 1 19 54
M  V30 56 1 19 55
M  V30 57 1 20 56
M  V30 58 1 21 57
M  V30 59 1 23 58
M  V30 60 1 28 59
M  V30 61 1 28 60
M  V30 62 1 28 61
M  V30 63 1 29 62
M  V30 64 1 30 63
M  V30 65 1 30 64
M  V30 66 1 30 65
M  V30 67 1 31 66
M  V30 68 1 31 67
M  V30 69 1 31 68
M  V30 70 1 32 69
M  V30 71 1 32 70
M  V30 END BOND
M  V30 END CTAB
M  END
