
     RDKit          3D

  0  0  0  0  0  0  0  0  0  0999 V3000
M  V30 BEGIN CTAB
M  V30 COUNTS 20 19 0 0 0
M  V30 BEGIN ATOM
M  V30 1 N -2.99792 0.796636 0.742234 0
M  V30 2 C -3.15733 -0.46344 0.130712 0
M  V30 3 N -4.31612 -1.03889 0.297812 0
M  V30 4 S -1.86144 -1.23102 -0.812737 0
M  V30 5 C -0.398417 -0.175961 -0.731707 0
M  V30 6 C 0.148136 -0.202233 0.661253 0
M  V30 7 S 1.61603 0.80157 0.897151 0
M  V30 8 C 3.04962 0.230561 0.0464562 0
M  V30 9 N 4.22919 1.04176 0.190563 0
M  V30 10 N 3.12419 -0.836092 -0.671042 0
M  V30 11 H -2.89511 0.858466 1.76773 0
M  V30 12 H -2.99306 1.62951 0.0978797 0
M  V30 13 H -4.52224 -1.98338 -0.12472 0
M  V30 14 H 0.34112 -0.419169 -1.51308 0
M  V30 15 H -0.742826 0.865961 -0.995257 0
M  V30 16 H 0.304466 -1.26441 0.998509 0
M  V30 17 H -0.620615 0.196737 1.34864 0
M  V30 18 H 4.21217 2.05619 -0.014164 0
M  V30 19 H 5.12715 0.624491 0.504541 0
M  V30 20 H 2.353 -1.48729 -0.835248 0
M  V30 END ATOM
M  V30 BEGIN BOND
M  V30 1 1 1 2
M  V30 2 2 2 3 CFG=2
M  V30 3 1 2 4
M  V30 4 1 4 5
M  V30 5 1 5 6
M  V30 6 1 6 7
M  V30 7 1 7 8
M  V30 8 1 8 9
M  V30 9 2 8 10 CFG=2
M  V30 10 1 1 11
M  V30 11 1 1 12
M  V30 12 1 3 13
M  V30 13 1 5 14
M  V30 14 1 5 15
M  V30 15 1 6 16
M  V30 16 1 6 17
M  V30 17 1 9 18
M  V30 18 1 9 19
M  V30 19 1 10 20
M  V30 END BOND
M  V30 END CTAB
M  END
