
     RDKit          3D

  0  0  0  0  0  0  0  0  0  0999 V3000
M  V30 BEGIN CTAB
M  V30 COUNTS 19 19 0 0 0
M  V30 BEGIN ATOM
M  V30 1 N -2.51122 2.00597 0.217636 0
M  V30 2 N -2.71198 0.637666 0.211465 0
M  V30 3 C -1.81171 -0.251998 0.0771299 0
M  V30 4 N -0.437398 0.00801921 -0.0906365 0
M  V30 5 C 0.486204 -0.380752 0.947637 0
M  V30 6 C 1.8886 -0.0164243 0.573715 0
M  V30 7 C 2.82926 -0.741948 -0.103939 0
M  V30 8 N 3.98368 -0.180411 -0.296615 0
M  V30 9 N 4.21254 1.00761 0.139033 0
M  V30 10 S 2.76124 1.43598 0.880446 0
M  V30 11 N -2.24785 -1.62217 0.100681 0
M  V30 12 H -2.11317 2.45452 1.0613 0
M  V30 13 H -2.74845 2.59439 -0.599385 0
M  V30 14 H -0.0534834 0.478328 -0.949792 0
M  V30 15 H 0.212159 0.0943183 1.92179 0
M  V30 16 H 0.471529 -1.48042 1.04177 0
M  V30 17 H 2.59664 -1.76256 -0.464473 0
M  V30 18 H -3.14407 -1.91444 0.539666 0
M  V30 19 H -1.66252 -2.36568 -0.330665 0
M  V30 END ATOM
M  V30 BEGIN BOND
M  V30 1 1 1 2
M  V30 2 2 2 3 CFG=2
M  V30 3 1 3 4
M  V30 4 1 4 5
M  V30 5 1 5 6
M  V30 6 2 6 7
M  V30 7 1 7 8
M  V30 8 2 8 9
M  V30 9 1 9 10
M  V30 10 1 3 11
M  V30 11 1 10 6
M  V30 12 1 1 12
M  V30 13 1 1 13
M  V30 14 1 4 14
M  V30 15 1 5 15
M  V30 16 1 5 16
M  V30 17 1 7 17
M  V30 18 1 11 18
M  V30 19 1 11 19
M  V30 END BOND
M  V30 END CTAB
M  END
