
     RDKit          3D

  0  0  0  0  0  0  0  0  0  0999 V3000
M  V30 BEGIN CTAB
M  V30 COUNTS 29 29 0 0 0
M  V30 BEGIN ATOM
M  V30 1 N -0.339709 0.48307 -2.0891 0
M  V30 2 C 0.0349471 0.53137 -0.653498 0
M  V30 3 C -1.15468 -0.0840737 0.0220333 0
M  V30 4 C -1.03239 -1.21237 0.766402 0
M  V30 5 N -2.16244 -1.70116 1.33657 0
M  V30 6 C -3.35767 -1.11599 1.185 0
M  V30 7 C -3.4939 0.0433653 0.419962 0
M  V30 8 C -2.36654 0.569775 -0.173225 0
M  V30 9 N -2.47314 1.75546 -0.944653 0
M  V30 10 C 1.28541 -0.237002 -0.542724 0
M  V30 11 N 1.90403 -0.34439 0.743703 0
M  V30 12 C 3.02875 -1.29118 0.54867 0
M  V30 13 C 2.53544 0.893648 1.17186 0
M  V30 14 H 0.265215 1.15279 -2.62821 0
M  V30 15 H -0.237917 -0.486986 -2.46008 0
M  V30 16 H 0.057687 1.57493 -0.361635 0
M  V30 17 H -0.127016 -1.75537 0.938808 0
M  V30 18 H -4.23874 -1.52494 1.64208 0
M  V30 19 H -4.4511 0.512614 0.294184 0
M  V30 20 H -2.91924 1.69011 -1.87587 0
M  V30 21 H -2.12196 2.67192 -0.607882 0
M  V30 22 H 2.03824 0.14046 -1.29668 0
M  V30 23 H 1.08144 -1.27949 -0.882596 0
M  V30 24 H 2.83219 -1.95582 -0.311627 0
M  V30 25 H 3.97249 -0.745834 0.327847 0
M  V30 26 H 3.19474 -1.87959 1.48192 0
M  V30 27 H 2.30332 1.00579 2.26187 0
M  V30 28 H 2.28363 1.76285 0.561183 0
M  V30 29 H 3.65891 0.826022 1.1257 0
M  V30 END ATOM
M  V30 BEGIN BOND
M  V30 1 1 1 2
M  V30 2 1 2 3
M  V30 3 2 3 4
M  V30 4 1 4 5
M  V30 5 2 5 6
M  V30 6 1 6 7
M  V30 7 2 7 8
M  V30 8 1 8 9
M  V30 9 1 2 10
M  V30 10 1 10 11
M  V30 11 1 11 12
M  V30 12 1 11 13
M  V30 13 1 8 3
M  V30 14 1 1 14
M  V30 15 1 1 15
M  V30 16 1 2 16
M  V30 17 1 4 17
M  V30 18 1 6 18
M  V30 19 1 7 19
M  V30 20 1 9 20
M  V30 21 1 9 21
M  V30 22 1 10 22
M  V30 23 1 10 23
M  V30 24 1 12 24
M  V30 25 1 12 25
M  V30 26 1 12 26
M  V30 27 1 13 27
M  V30 28 1 13 28
M  V30 29 1 13 29
M  V30 END BOND
M  V30 END CTAB
M  END
