
     RDKit          3D

  0  0  0  0  0  0  0  0  0  0999 V3000
M  V30 BEGIN CTAB
M  V30 COUNTS 25 25 0 0 0
M  V30 BEGIN ATOM
M  V30 1 C -0.500117 -1.6173 -0.598247 0
M  V30 2 N -0.806571 -0.255328 -0.56286 0
M  V30 3 C -2.13686 0.157773 -0.751088 0
M  V30 4 C -2.9248 0.427407 0.482395 0
M  V30 5 S -1.95118 0.817166 1.92775 0
M  V30 6 C -0.229169 0.300618 1.6634 0
M  V30 7 C 0.0404979 0.600227 0.179995 0
M  V30 8 C 1.46187 0.46957 -0.0990991 0
M  V30 9 N 1.87489 -0.374523 -0.965166 0
M  V30 10 N 3.22288 -0.550889 -1.28093 0
M  V30 11 N 2.40277 1.26604 0.575855 0
M  V30 12 H 0.195329 -1.99124 0.177714 0
M  V30 13 H -0.0786355 -1.96527 -1.57681 0
M  V30 14 H -1.44484 -2.21168 -0.463513 0
M  V30 15 H -2.13221 1.0773 -1.40626 0
M  V30 16 H -2.67632 -0.608022 -1.34586 0
M  V30 17 H -3.60547 -0.416799 0.725957 0
M  V30 18 H -3.60675 1.30458 0.284186 0
M  V30 19 H 0.477068 0.849134 2.30908 0
M  V30 20 H -0.193758 -0.78297 1.77478 0
M  V30 21 H -0.341534 1.65538 0.0465823 0
M  V30 22 H 3.9583 0.109232 -0.954731 0
M  V30 23 H 3.48521 -1.37354 -1.86196 0
M  V30 24 H 2.99959 1.98193 0.117123 0
M  V30 25 H 2.50981 1.1312 1.6017 0
M  V30 END ATOM
M  V30 BEGIN BOND
M  V30 1 1 1 2
M  V30 2 1 2 3
M  V30 3 1 3 4
M  V30 4 1 4 5
M  V30 5 1 5 6
M  V30 6 1 6 7
M  V30 7 1 7 8
M  V30 8 2 8 9 CFG=2
M  V30 9 1 9 10
M  V30 10 1 8 11
M  V30 11 1 7 2
M  V30 12 1 1 12
M  V30 13 1 1 13
M  V30 14 1 1 14
M  V30 15 1 3 15
M  V30 16 1 3 16
M  V30 17 1 4 17
M  V30 18 1 4 18
M  V30 19 1 6 19
M  V30 20 1 6 20
M  V30 21 1 7 21
M  V30 22 1 10 22
M  V30 23 1 10 23
M  V30 24 1 11 24
M  V30 25 1 11 25
M  V30 END BOND
M  V30 END CTAB
M  END
