
     RDKit          3D

  0  0  0  0  0  0  0  0  0  0999 V3000
M  V30 BEGIN CTAB
M  V30 COUNTS 14 14 0 0 0
M  V30 BEGIN ATOM
M  V30 1 N -2.15303 0.171643 0.0292879 0
M  V30 2 N -0.883669 -0.379631 0.0627338 0
M  V30 3 C -0.565144 -1.69963 0.213588 0
M  V30 4 N 0.764041 -1.84963 0.197088 0
M  V30 5 C 1.31434 -0.613904 0.0337918 0
M  V30 6 C 2.70978 -0.292908 -0.0412072 0
M  V30 7 N 3.83709 -0.034581 -0.0948812 0
M  V30 8 C 0.274488 0.287534 -0.0478366 0
M  V30 9 N 0.402125 1.68449 -0.219595 0
M  V30 10 H -2.56446 0.516154 0.923736 0
M  V30 11 H -2.73685 0.270323 -0.831756 0
M  V30 12 H -1.27081 -2.48993 0.327202 0
M  V30 13 H -0.33819 2.303 0.182175 0
M  V30 14 H 1.2103 2.12707 -0.734326 0
M  V30 END ATOM
M  V30 BEGIN BOND
M  V30 1 1 1 2
M  V30 2 1 2 3
M  V30 3 2 3 4
M  V30 4 1 4 5
M  V30 5 1 5 6
M  V30 6 3 6 7
M  V30 7 2 5 8
M  V30 8 1 8 9
M  V30 9 1 8 2
M  V30 10 1 1 10
M  V30 11 1 1 11
M  V30 12 1 3 12
M  V30 13 1 9 13
M  V30 14 1 9 14
M  V30 END BOND
M  V30 END CTAB
M  END
