
     RDKit          3D

  0  0  0  0  0  0  0  0  0  0999 V3000
M  V30 BEGIN CTAB
M  V30 COUNTS 18 19 0 0 0
M  V30 BEGIN ATOM
M  V30 1 N -3.50288 0.0397636 -0.604896 0
M  V30 2 C -2.12956 -0.0324673 -0.26376 0
M  V30 3 C -1.69444 -0.630044 0.899483 0
M  V30 4 C -0.386638 -0.7333 1.28762 0
M  V30 5 Cl -0.00198448 -1.5336 2.81542 0
M  V30 6 C 0.620699 -0.201005 0.463242 0
M  V30 7 C 0.214147 0.39815 -0.698565 0
M  V30 8 C -1.13271 0.48728 -1.0667 0
M  V30 9 S 1.71292 0.884068 -1.36317 0
M  V30 10 C 2.76259 0.294421 -0.121166 0
M  V30 11 N 1.8962 -0.228986 0.708283 0
M  V30 12 N 4.18205 0.382055 -0.066537 0
M  V30 13 H -4.24799 0.0612791 0.128743 0
M  V30 14 H -3.83462 0.0746977 -1.596 0
M  V30 15 H -2.46596 -1.05648 1.56531 0
M  V30 16 H -1.3594 0.967293 -1.98244 0
M  V30 17 H 4.66213 0.342011 0.844991 0
M  V30 18 H 4.70545 0.484868 -0.949858 0
M  V30 END ATOM
M  V30 BEGIN BOND
M  V30 1 1 1 2
M  V30 2 2 2 3
M  V30 3 1 3 4
M  V30 4 1 4 5
M  V30 5 2 4 6
M  V30 6 1 6 7
M  V30 7 2 7 8
M  V30 8 1 7 9
M  V30 9 1 9 10
M  V30 10 2 10 11
M  V30 11 1 10 12
M  V30 12 1 8 2
M  V30 13 1 11 6
M  V30 14 1 1 13
M  V30 15 1 1 14
M  V30 16 1 3 15
M  V30 17 1 8 16
M  V30 18 1 12 17
M  V30 19 1 12 18
M  V30 END BOND
M  V30 END CTAB
M  END
