
     RDKit          3D

  0  0  0  0  0  0  0  0  0  0999 V3000
M  V30 BEGIN CTAB
M  V30 COUNTS 22 22 0 0 0
M  V30 BEGIN ATOM
M  V30 1 N 3.82556 0.615652 0.332824 0
M  V30 2 C 2.53884 -0.0707808 0.375118 0
M  V30 3 C 1.93662 -0.0253468 -1.00456 0
M  V30 4 N 0.66699 -0.674088 -1.09734 0
M  V30 5 C -0.482539 -0.19677 -0.423427 0
M  V30 6 N -0.42706 0.907278 0.336084 0
M  V30 7 C -1.48237 1.39567 0.990082 0
M  V30 8 C -2.68441 0.733407 0.878689 0
M  V30 9 C -2.76886 -0.40536 0.103318 0
M  V30 10 N -1.67756 -0.85213 -0.532037 0
M  V30 11 N -4.01176 -1.11741 -0.0309928 0
M  V30 12 H 4.43002 0.107057 1.04251 0
M  V30 13 H 4.28993 0.481474 -0.61089 0
M  V30 14 H 1.92917 0.431885 1.11847 0
M  V30 15 H 2.67255 -1.1252 0.716251 0
M  V30 16 H 1.86477 1.07446 -1.26441 0
M  V30 17 H 2.66899 -0.409618 -1.75894 0
M  V30 18 H 0.57363 -1.53159 -1.68064 0
M  V30 19 H -1.39809 2.2965 1.5983 0
M  V30 20 H -3.58593 1.06511 1.3773 0
M  V30 21 H -4.39952 -1.67372 0.745736 0
M  V30 22 H -4.47898 -1.02648 -0.959953 0
M  V30 END ATOM
M  V30 BEGIN BOND
M  V30 1 1 1 2
M  V30 2 1 2 3
M  V30 3 1 3 4
M  V30 4 1 4 5
M  V30 5 2 5 6
M  V30 6 1 6 7
M  V30 7 2 7 8
M  V30 8 1 8 9
M  V30 9 2 9 10
M  V30 10 1 9 11
M  V30 11 1 10 5
M  V30 12 1 1 12
M  V30 13 1 1 13
M  V30 14 1 2 14
M  V30 15 1 2 15
M  V30 16 1 3 16
M  V30 17 1 3 17
M  V30 18 1 4 18
M  V30 19 1 7 19
M  V30 20 1 8 20
M  V30 21 1 11 21
M  V30 22 1 11 22
M  V30 END BOND
M  V30 END CTAB
M  END
