
     RDKit          3D

  0  0  0  0  0  0  0  0  0  0999 V3000
M  V30 BEGIN CTAB
M  V30 COUNTS 30 31 0 0 0
M  V30 BEGIN ATOM
M  V30 1 C -0.776105 -2.31357 -1.19114 0
M  V30 2 C -0.869934 -2.0575 0.295984 0
M  V30 3 C -1.23134 -0.654187 0.567921 0
M  V30 4 C -0.382234 0.424477 0.529172 0
M  V30 5 C -0.794893 1.72487 0.78912 0
M  V30 6 N 0.114445 2.82344 0.73815 0
M  V30 7 N -2.09241 1.90608 1.09048 0
M  V30 8 C -2.96049 0.884215 1.14112 0
M  V30 9 N -4.33718 1.06701 1.46009 0
M  V30 10 N -2.53185 -0.362133 0.884747 0
M  V30 11 C 1.01307 0.222269 0.209799 0
M  V30 12 C 1.84522 -0.356097 1.13675 0
M  V30 13 C 3.17453 -0.523656 0.823544 0
M  V30 14 C 3.70375 -0.133163 -0.385945 0
M  V30 15 F 5.01882 -0.298481 -0.697584 0
M  V30 16 C 2.84711 0.452168 -1.31625 0
M  V30 17 C 1.51916 0.617447 -0.997656 0
M  V30 18 H -1.74981 -2.76723 -1.52075 0
M  V30 19 H 0.0149092 -3.06084 -1.42681 0
M  V30 20 H -0.695674 -1.38072 -1.75813 0
M  V30 21 H -1.65903 -2.76573 0.669913 0
M  V30 22 H 0.128413 -2.33768 0.702084 0
M  V30 23 H 0.0979309 3.53955 -0.0170779 0
M  V30 24 H 0.84787 2.94921 1.47631 0
M  V30 25 H -4.74337 0.491294 2.23455 0
M  V30 26 H -4.9597 1.72431 0.982741 0
M  V30 27 H 1.46226 -0.687064 2.12776 0
M  V30 28 H 3.84546 -0.980325 1.54538 0
M  V30 29 H 3.25752 0.762827 -2.27257 0
M  V30 30 H 0.893555 1.08922 -1.78083 0
M  V30 END ATOM
M  V30 BEGIN BOND
M  V30 1 1 1 2
M  V30 2 1 2 3
M  V30 3 2 3 4
M  V30 4 1 4 5
M  V30 5 1 5 6
M  V30 6 2 5 7
M  V30 7 1 7 8
M  V30 8 1 8 9
M  V30 9 2 8 10
M  V30 10 1 4 11
M  V30 11 2 11 12
M  V30 12 1 12 13
M  V30 13 2 13 14
M  V30 14 1 14 15
M  V30 15 1 14 16
M  V30 16 2 16 17
M  V30 17 1 10 3
M  V30 18 1 17 11
M  V30 19 1 1 18
M  V30 20 1 1 19
M  V30 21 1 1 20
M  V30 22 1 2 21
M  V30 23 1 2 22
M  V30 24 1 6 23
M  V30 25 1 6 24
M  V30 26 1 9 25
M  V30 27 1 9 26
M  V30 28 1 12 27
M  V30 29 1 13 28
M  V30 30 1 16 29
M  V30 31 1 17 30
M  V30 END BOND
M  V30 END CTAB
M  END
