
     RDKit          3D

  0  0  0  0  0  0  0  0  0  0999 V3000
M  V30 BEGIN CTAB
M  V30 COUNTS 30 31 0 0 0
M  V30 BEGIN ATOM
M  V30 1 C -3.20388 1.65998 -0.206586 0
M  V30 2 C -2.46628 0.331803 -0.305962 0
M  V30 3 N -2.6167 -0.354076 0.917133 0
M  V30 4 C -1.53814 -1.17214 1.33796 0
M  V30 5 C -0.656116 -1.6582 0.236105 0
M  V30 6 C -0.103793 -0.502718 -0.547846 0
M  V30 7 C -1.08296 0.607006 -0.76473 0
M  V30 8 C 1.11866 -0.00438742 0.1664 0
M  V30 9 N 1.16409 0.557749 1.3944 0
M  V30 10 N 2.42892 0.847436 1.63411 0
M  V30 11 C 3.2145 0.493635 0.603405 0
M  V30 12 N 2.36481 -0.034797 -0.295418 0
M  V30 13 N 2.79382 -0.536612 -1.54036 0
M  V30 14 N 4.6226 0.640086 0.481226 0
M  V30 15 H -4.28181 1.48566 -0.194325 0
M  V30 16 H -2.88997 2.11236 0.767883 0
M  V30 17 H -2.86801 2.34264 -1.00729 0
M  V30 18 H -3.01327 -0.246693 -1.10195 0
M  V30 19 H -3.55756 -0.762203 0.996484 0
M  V30 20 H -1.98494 -2.09073 1.82335 0
M  V30 21 H -0.996021 -0.658045 2.15357 0
M  V30 22 H 0.18187 -2.2319 0.636253 0
M  V30 23 H -1.27637 -2.27053 -0.450311 0
M  V30 24 H 0.231595 -0.897132 -1.52633 0
M  V30 25 H -0.692568 1.53079 -0.254342 0
M  V30 26 H -1.12218 0.878572 -1.84461 0
M  V30 27 H 2.446 -0.172973 -2.44293 0
M  V30 28 H 3.49683 -1.31352 -1.56996 0
M  V30 29 H 5.1177 1.31213 1.10316 0
M  V30 30 H 5.16917 0.106815 -0.198489 0
M  V30 END ATOM
M  V30 BEGIN BOND
M  V30 1 1 1 2
M  V30 2 1 2 3
M  V30 3 1 3 4
M  V30 4 1 4 5
M  V30 5 1 5 6
M  V30 6 1 6 7
M  V30 7 1 6 8
M  V30 8 2 8 9
M  V30 9 1 9 10
M  V30 10 2 10 11
M  V30 11 1 11 12
M  V30 12 1 12 13
M  V30 13 1 11 14
M  V30 14 1 7 2
M  V30 15 1 12 8
M  V30 16 1 1 15
M  V30 17 1 1 16
M  V30 18 1 1 17
M  V30 19 1 2 18
M  V30 20 1 3 19
M  V30 21 1 4 20
M  V30 22 1 4 21
M  V30 23 1 5 22
M  V30 24 1 5 23
M  V30 25 1 6 24
M  V30 26 1 7 25
M  V30 27 1 7 26
M  V30 28 1 13 27
M  V30 29 1 13 28
M  V30 30 1 14 29
M  V30 31 1 14 30
M  V30 END BOND
M  V30 END CTAB
M  END
