
     RDKit          3D

  0  0  0  0  0  0  0  0  0  0999 V3000
M  V30 BEGIN CTAB
M  V30 COUNTS 23 24 0 0 0
M  V30 BEGIN ATOM
M  V30 1 N -3.11905 -2.28563 0.938476 0
M  V30 2 C -2.42453 -1.1572 0.429754 0
M  V30 3 N -1.0628 -1.09809 0.488011 0
M  V30 4 C -0.383224 -0.0517109 0.0185571 0
M  V30 5 N -1.06581 0.959155 -0.520752 0
M  V30 6 C -2.41722 0.956481 -0.606022 0
M  V30 7 N -3.08622 2.07392 -1.19671 0
M  V30 8 N -3.06114 -0.109286 -0.124777 0
M  V30 9 C 1.08558 0.00959738 0.0826043 0
M  V30 10 C 1.8122 -1.01921 0.633536 0
M  V30 11 C 3.1885 -0.926482 0.67623 0
M  V30 12 C 3.85023 0.172697 0.179732 0
M  V30 13 F 5.2029 0.2195 0.243424 0
M  V30 14 C 3.13824 1.20954 -0.374203 0
M  V30 15 C 1.75313 1.09268 -0.405631 0
M  V30 16 H -3.72767 -2.19052 1.77391 0
M  V30 17 H -3.03533 -3.22035 0.492274 0
M  V30 18 H -3.75265 1.9798 -1.99342 0
M  V30 19 H -2.8883 3.01842 -0.801986 0
M  V30 20 H 1.30825 -1.88883 1.0276 0
M  V30 21 H 3.78422 -1.72209 1.10444 0
M  V30 22 H 3.67554 2.05134 -0.752479 0
M  V30 23 H 1.22516 1.92627 -0.848139 0
M  V30 END ATOM
M  V30 BEGIN BOND
M  V30 1 1 1 2
M  V30 2 2 2 3
M  V30 3 1 3 4
M  V30 4 2 4 5
M  V30 5 1 5 6
M  V30 6 1 6 7
M  V30 7 2 6 8
M  V30 8 1 4 9
M  V30 9 2 9 10
M  V30 10 1 10 11
M  V30 11 2 11 12
M  V30 12 1 12 13
M  V30 13 1 12 14
M  V30 14 2 14 15
M  V30 15 1 8 2
M  V30 16 1 15 9
M  V30 17 1 1 16
M  V30 18 1 1 17
M  V30 19 1 7 18
M  V30 20 1 7 19
M  V30 21 1 10 20
M  V30 22 1 11 21
M  V30 23 1 14 22
M  V30 24 1 15 23
M  V30 END BOND
M  V30 END CTAB
M  END
