
     RDKit          3D

  0  0  0  0  0  0  0  0  0  0999 V3000
M  V30 BEGIN CTAB
M  V30 COUNTS 27 27 0 0 0
M  V30 BEGIN ATOM
M  V30 1 N 4.64532 0.21671 0.741549 0
M  V30 2 N 3.41593 -0.349655 1.02042 0
M  V30 3 C 2.35123 0.0451788 0.43943 0
M  V30 4 N 1.10016 -0.556717 0.746948 0
M  V30 5 C 0.113999 -0.647233 -0.298127 0
M  V30 6 C -1.18362 -1.29046 0.0841824 0
M  V30 7 C -1.91196 0.00460657 -0.107554 0
M  V30 8 C -0.607882 0.686368 -0.434215 0
M  V30 9 C -2.61562 0.516324 1.12102 0
M  V30 10 C -2.82941 0.0441867 -1.30777 0
M  V30 11 N 2.36637 1.10193 -0.539284 0
M  V30 12 H 5.20459 0.761718 1.41793 0
M  V30 13 H 5.05509 0.0942831 -0.221328 0
M  V30 14 H 0.9763 -0.898627 1.72416 0
M  V30 15 H 0.481332 -1.06683 -1.26187 0
M  V30 16 H -1.56917 -2.05892 -0.622101 0
M  V30 17 H -1.22437 -1.64608 1.12814 0
M  V30 18 H -0.287598 1.46149 0.282512 0
M  V30 19 H -0.506952 1.05645 -1.46972 0
M  V30 20 H -2.95449 1.55089 0.953945 0
M  V30 21 H -2.02199 0.4073 2.04073 0
M  V30 22 H -3.53587 -0.10236 1.24338 0
M  V30 23 H -2.3295 0.489805 -2.20662 0
M  V30 24 H -3.69858 0.693826 -1.09997 0
M  V30 25 H -3.15836 -0.968857 -1.61602 0
M  V30 26 H 2.69578 2.03975 -0.270276 0
M  V30 27 H 2.02928 0.832489 -1.48951 0
M  V30 END ATOM
M  V30 BEGIN BOND
M  V30 1 1 1 2
M  V30 2 2 2 3 CFG=2
M  V30 3 1 3 4
M  V30 4 1 4 5
M  V30 5 1 5 6
M  V30 6 1 6 7
M  V30 7 1 7 8
M  V30 8 1 7 9
M  V30 9 1 7 10
M  V30 10 1 3 11
M  V30 11 1 8 5
M  V30 12 1 1 12
M  V30 13 1 1 13
M  V30 14 1 4 14
M  V30 15 1 5 15
M  V30 16 1 6 16
M  V30 17 1 6 17
M  V30 18 1 8 18
M  V30 19 1 8 19
M  V30 20 1 9 20
M  V30 21 1 9 21
M  V30 22 1 9 22
M  V30 23 1 10 23
M  V30 24 1 10 24
M  V30 25 1 10 25
M  V30 26 1 11 26
M  V30 27 1 11 27
M  V30 END BOND
M  V30 END CTAB
M  END
