
     RDKit          3D

  0  0  0  0  0  0  0  0  0  0999 V3000
M  V30 BEGIN CTAB
M  V30 COUNTS 34 34 0 0 0
M  V30 BEGIN ATOM
M  V30 1 C 5.65909 0.820665 0.0736091 0
M  V30 2 O 4.31443 0.378391 0.131059 0
M  V30 3 C 3.25493 1.25896 0.0319354 0
M  V30 4 O 3.42126 2.47614 -0.111729 0
M  V30 5 C 1.88366 0.746137 0.0977593 0
M  V30 6 C 0.797902 1.58782 0.00324669 0
M  V30 7 C -0.498899 1.1425 0.0608077 0
M  V30 8 N -1.53034 2.11386 -0.0486215 0
M  V30 9 C -0.74318 -0.225265 0.222485 0
M  V30 10 C 0.314761 -1.09501 0.320441 0
M  V30 11 N 0.152255 -2.50341 0.487101 0
M  V30 12 C 1.61171 -0.590418 0.255914 0
M  V30 13 C -2.14011 -0.61409 0.273237 0
M  V30 14 C -2.48147 -2.04497 0.442865 0
M  V30 15 C -2.90938 0.163691 1.35703 0
M  V30 16 C -2.76737 -0.157937 -1.05194 0
M  V30 17 H 5.7342 1.92149 -0.0328097 0
M  V30 18 H 6.15721 0.389599 -0.835069 0
M  V30 19 H 6.2491 0.529645 0.952355 0
M  V30 20 H 0.974342 2.65938 -0.123379 0
M  V30 21 H -1.91758 2.59169 0.810622 0
M  V30 22 H -1.95861 2.41153 -0.958814 0
M  V30 23 H 0.109145 -2.85751 1.46567 0
M  V30 24 H 0.0848788 -3.15852 -0.320217 0
M  V30 25 H 2.41627 -1.29414 0.335369 0
M  V30 26 H -3.62665 -2.13807 0.440515 0
M  V30 27 H -2.23225 -2.70268 -0.431109 0
M  V30 28 H -2.22892 -2.49554 1.42436 0
M  V30 29 H -2.17772 0.5904 2.0994 0
M  V30 30 H -3.5119 -0.552776 1.94776 0
M  V30 31 H -3.59972 0.895744 0.949752 0
M  V30 32 H -3.29288 -1.01631 -1.55468 0
M  V30 33 H -1.98809 0.159908 -1.77385 0
M  V30 34 H -3.53007 0.609096 -0.912644 0
M  V30 END ATOM
M  V30 BEGIN BOND
M  V30 1 1 1 2
M  V30 2 1 2 3
M  V30 3 2 3 4
M  V30 4 1 3 5
M  V30 5 2 5 6
M  V30 6 1 6 7
M  V30 7 1 7 8
M  V30 8 2 7 9
M  V30 9 1 9 10
M  V30 10 1 10 11
M  V30 11 2 10 12
M  V30 12 1 9 13
M  V30 13 1 13 14
M  V30 14 1 13 15
M  V30 15 1 13 16
M  V30 16 1 12 5
M  V30 17 1 1 17
M  V30 18 1 1 18
M  V30 19 1 1 19
M  V30 20 1 6 20
M  V30 21 1 8 21
M  V30 22 1 8 22
M  V30 23 1 11 23
M  V30 24 1 11 24
M  V30 25 1 12 25
M  V30 26 1 14 26
M  V30 27 1 14 27
M  V30 28 1 14 28
M  V30 29 1 15 29
M  V30 30 1 15 30
M  V30 31 1 15 31
M  V30 32 1 16 32
M  V30 33 1 16 33
M  V30 34 1 16 34
M  V30 END BOND
M  V30 END CTAB
M  END
