
     RDKit          3D

  0  0  0  0  0  0  0  0  0  0999 V3000
M  V30 BEGIN CTAB
M  V30 COUNTS 45 46 0 0 0
M  V30 BEGIN ATOM
M  V30 1 N 3.66429 2.26372 1.00685 0
M  V30 2 C 2.29549 2.44199 1.32763 0
M  V30 3 C 1.38004 1.69368 0.379378 0 CFG=2
M  V30 4 C -0.038486 1.96842 0.832269 0
M  V30 5 N -0.785109 0.796708 0.369059 0
M  V30 6 C 0.130653 -0.202012 -0.124973 0
M  V30 7 C 1.44056 0.219094 0.557015 0 CFG=1
M  V30 8 C 2.53575 -0.440499 -0.178123 0
M  V30 9 C 2.76293 -0.281666 -1.5165 0
M  V30 10 C 3.82478 -0.952453 -2.10414 0
M  V30 11 C 4.64961 -1.77226 -1.36237 0
M  V30 12 C 4.43174 -1.94003 -0.0168615 0
M  V30 13 C 3.37008 -1.26438 0.550667 0
M  V30 14 C -2.19066 0.671171 0.387042 0
M  V30 15 O -2.88904 1.64669 0.822441 0
M  V30 16 C -2.82751 -0.57669 -0.0924749 0
M  V30 17 C -4.3269 -0.313382 -0.186776 0
M  V30 18 N -4.54253 0.768927 -1.11714 0
M  V30 19 C -5.08705 -1.51444 -0.645821 0
M  V30 20 C -2.56962 -1.72999 0.868348 0
M  V30 21 H 4.12534 3.00048 0.508902 0
M  V30 22 H 4.23578 1.90253 1.76704 0
M  V30 23 H 2.08502 2.1202 2.36372 0
M  V30 24 H 2.07172 3.52751 1.28811 0
M  V30 25 H 1.46727 2.03206 -0.65173 0
M  V30 26 H -0.044104 1.95323 1.93412 0
M  V30 27 H -0.444895 2.89984 0.404988 0
M  V30 28 H -0.115539 -1.23452 0.0962213 0
M  V30 29 H 0.269573 0.00365542 -1.21001 0
M  V30 30 H 1.42222 -0.0305155 1.61931 0
M  V30 31 H 2.11603 0.359844 -2.0924 0
M  V30 32 H 3.97075 -0.798637 -3.17165 0
M  V30 33 H 5.47464 -2.29224 -1.82378 0
M  V30 34 H 5.07657 -2.5882 0.592192 0
M  V30 35 H 3.23499 -1.42883 1.62719 0
M  V30 36 H -2.43861 -0.84701 -1.08409 0
M  V30 37 H -4.72889 -0.00494237 0.792094 0
M  V30 38 H -5.55982 0.933615 -1.26871 0
M  V30 39 H -4.02484 0.55332 -1.98411 0
M  V30 40 H -5.40301 -2.1285 0.225476 0
M  V30 41 H -4.50378 -2.12577 -1.37025 0
M  V30 42 H -5.99381 -1.16236 -1.17893 0
M  V30 43 H -2.10374 -2.55412 0.300837 0
M  V30 44 H -1.89399 -1.44265 1.68512 0
M  V30 45 H -3.5239 -2.13059 1.26871 0
M  V30 END ATOM
M  V30 BEGIN BOND
M  V30 1 1 1 2
M  V30 2 1 2 3
M  V30 3 1 3 4
M  V30 4 1 4 5
M  V30 5 1 5 6
M  V30 6 1 6 7
M  V30 7 1 7 8
M  V30 8 2 8 9
M  V30 9 1 9 10
M  V30 10 2 10 11
M  V30 11 1 11 12
M  V30 12 2 12 13
M  V30 13 1 5 14
M  V30 14 2 14 15
M  V30 15 1 14 16
M  V30 16 1 16 17
M  V30 17 1 17 18
M  V30 18 1 17 19
M  V30 19 1 16 20
M  V30 20 1 7 3
M  V30 21 1 13 8
M  V30 22 1 1 21
M  V30 23 1 1 22
M  V30 24 1 2 23
M  V30 25 1 2 24
M  V30 26 1 3 25 CFG=3
M  V30 27 1 4 26
M  V30 28 1 4 27
M  V30 29 1 6 28
M  V30 30 1 6 29
M  V30 31 1 7 30 CFG=1
M  V30 32 1 9 31
M  V30 33 1 10 32
M  V30 34 1 11 33
M  V30 35 1 12 34
M  V30 36 1 13 35
M  V30 37 1 16 36
M  V30 38 1 17 37
M  V30 39 1 18 38
M  V30 40 1 18 39
M  V30 41 1 19 40
M  V30 42 1 19 41
M  V30 43 1 19 42
M  V30 44 1 20 43
M  V30 45 1 20 44
M  V30 46 1 20 45
M  V30 END BOND
M  V30 END CTAB
M  END
