
     RDKit          3D

  0  0  0  0  0  0  0  0  0  0999 V3000
M  V30 BEGIN CTAB
M  V30 COUNTS 40 42 0 0 0
M  V30 BEGIN ATOM
M  V30 1 N -6.71758 2.00443 1.42498 0
M  V30 2 C -5.75988 1.2178 0.68943 0
M  V30 3 C -5.70333 -0.142245 0.875906 0
M  V30 4 C -4.80551 -0.922372 0.182701 0
M  V30 5 C -3.91033 -0.368014 -0.739665 0
M  V30 6 C -3.97382 0.989102 -0.91837 0
M  V30 7 C -4.88845 1.78197 -0.213819 0
M  V30 8 S -2.78511 -1.41781 -1.602 0
M  V30 9 C -1.19619 -1.64023 -0.899549 0
M  V30 10 C -1.12998 -2.29485 0.454143 0
M  V30 11 C 0.334511 -2.11098 0.775476 0
M  V30 12 O 0.92663 -2.85087 1.57504 0
M  V30 13 N 0.795405 -1.00253 0.0141975 0
M  V30 14 C -0.36198 -0.452088 -0.665932 0
M  V30 15 O -0.529355 0.742548 -0.944188 0
M  V30 16 C 2.14298 -0.530498 -0.0797539 0
M  V30 17 C 3.19865 -1.19244 0.479598 0
M  V30 18 C 4.51291 -0.772584 0.40448 0
M  V30 19 C 4.80542 0.385074 -0.270774 0
M  V30 20 C 3.7749 1.08927 -0.851398 0
M  V30 21 C 2.45332 0.636025 -0.757558 0
M  V30 22 S 6.45786 0.974029 -0.412491 0
M  V30 23 O 6.61679 1.81179 -1.64844 0
M  V30 24 O 7.41797 -0.185079 -0.527834 0
M  V30 25 N 6.87525 1.97637 0.959874 0
M  V30 26 H -6.43377 2.7335 2.09839 0
M  V30 27 H -7.76144 1.84889 1.28602 0
M  V30 28 H -6.40287 -0.556973 1.59208 0
M  V30 29 H -4.74604 -1.97684 0.318812 0
M  V30 30 H -3.30077 1.45027 -1.61891 0
M  V30 31 H -4.93775 2.85801 -0.360151 0
M  V30 32 H -0.603614 -2.31096 -1.58077 0
M  V30 33 H -1.65536 -1.63466 1.20896 0
M  V30 34 H -1.45464 -3.33212 0.488931 0
M  V30 35 H 3.04633 -2.10512 1.02439 0
M  V30 36 H 5.31565 -1.33933 0.874234 0
M  V30 37 H 3.98597 1.99213 -1.38048 0
M  V30 38 H 1.71982 1.24542 -1.24681 0
M  V30 39 H 6.74187 1.33933 1.8011 0
M  V30 40 H 7.93552 2.06264 0.902458 0
M  V30 END ATOM
M  V30 BEGIN BOND
M  V30 1 1 1 2
M  V30 2 2 2 3
M  V30 3 1 3 4
M  V30 4 2 4 5
M  V30 5 1 5 6
M  V30 6 2 6 7
M  V30 7 1 5 8
M  V30 8 1 8 9
M  V30 9 1 9 10
M  V30 10 1 10 11
M  V30 11 2 11 12
M  V30 12 1 11 13
M  V30 13 1 13 14
M  V30 14 2 14 15
M  V30 15 1 13 16
M  V30 16 2 16 17
M  V30 17 1 17 18
M  V30 18 2 18 19
M  V30 19 1 19 20
M  V30 20 2 20 21
M  V30 21 1 19 22
M  V30 22 2 22 23
M  V30 23 2 22 24
M  V30 24 1 22 25
M  V30 25 1 7 2
M  V30 26 1 14 9
M  V30 27 1 21 16
M  V30 28 1 1 26
M  V30 29 1 1 27
M  V30 30 1 3 28
M  V30 31 1 4 29
M  V30 32 1 6 30
M  V30 33 1 7 31
M  V30 34 1 9 32
M  V30 35 1 10 33
M  V30 36 1 10 34
M  V30 37 1 17 35
M  V30 38 1 18 36
M  V30 39 1 20 37
M  V30 40 1 21 38
M  V30 41 1 25 39
M  V30 42 1 25 40
M  V30 END BOND
M  V30 END CTAB
M  END
