
     RDKit          3D

  0  0  0  0  0  0  0  0  0  0999 V3000
M  V30 BEGIN CTAB
M  V30 COUNTS 38 39 0 0 0
M  V30 BEGIN ATOM
M  V30 1 O -1.42384 0.939705 3.33264 0
M  V30 2 C -0.508558 1.01011 2.49149 0
M  V30 3 N -0.743219 0.688863 1.14087 0
M  V30 4 C -1.95351 0.264944 0.549079 0
M  V30 5 C -1.87026 -0.408524 -0.676387 0
M  V30 6 C -3.02338 -0.822329 -1.29867 0
M  V30 7 C -4.26542 -0.592099 -0.748025 0
M  V30 8 C -4.33214 0.0644451 0.444481 0
M  V30 9 C -3.17262 0.49653 1.09847 0
M  V30 10 S -5.73055 -1.1107 -1.52497 0
M  V30 11 O -5.51402 -2.40152 -2.26761 0
M  V30 12 O -6.7468 -1.3899 -0.448822 0
M  V30 13 N -6.33005 0.118405 -2.57989 0
M  V30 14 C 0.812417 1.43819 2.94808 0
M  V30 15 O 1.86507 1.35758 2.05796 0
M  V30 16 C 2.40288 0.212454 1.49283 0
M  V30 17 O 1.89566 -0.889933 1.81597 0
M  V30 18 C 3.52889 0.290691 0.547669 0
M  V30 19 N 4.07242 1.46791 0.200959 0
M  V30 20 C 5.10152 1.5438 -0.662424 0
M  V30 21 Cl 5.82111 3.07181 -1.12439 0
M  V30 22 C 5.63575 0.400629 -1.22428 0
M  V30 23 C 5.11864 -0.827181 -0.904774 0
M  V30 24 C 4.06052 -0.850149 -0.011758 0
M  V30 25 Cl 3.37636 -2.42079 0.416134 0
M  V30 26 N 5.65379 -2.01025 -1.47122 0
M  V30 27 Cl 6.97995 0.467706 -2.35509 0
M  V30 28 H 0.0706227 0.788268 0.435082 0
M  V30 29 H -0.890713 -0.601868 -1.12876 0
M  V30 30 H -2.94485 -1.34697 -2.25484 0
M  V30 31 H -5.26374 0.274331 0.924713 0
M  V30 32 H -3.2902 1.01684 2.02396 0
M  V30 33 H -6.46973 0.970359 -2.00265 0
M  V30 34 H -5.54301 0.347995 -3.24979 0
M  V30 35 H 1.13983 0.871445 3.87539 0
M  V30 36 H 0.795988 2.50985 3.32286 0
M  V30 37 H 5.01228 -2.80454 -1.72755 0
M  V30 38 H 6.6729 -2.1361 -1.65067 0
M  V30 END ATOM
M  V30 BEGIN BOND
M  V30 1 2 1 2
M  V30 2 1 2 3
M  V30 3 1 3 4
M  V30 4 2 4 5
M  V30 5 1 5 6
M  V30 6 2 6 7
M  V30 7 1 7 8
M  V30 8 2 8 9
M  V30 9 1 7 10
M  V30 10 2 10 11
M  V30 11 2 10 12
M  V30 12 1 10 13
M  V30 13 1 2 14
M  V30 14 1 14 15
M  V30 15 1 15 16
M  V30 16 2 16 17
M  V30 17 1 16 18
M  V30 18 2 18 19
M  V30 19 1 19 20
M  V30 20 1 20 21
M  V30 21 2 20 22
M  V30 22 1 22 23
M  V30 23 2 23 24
M  V30 24 1 24 25
M  V30 25 1 23 26
M  V30 26 1 22 27
M  V30 27 1 9 4
M  V30 28 1 24 18
M  V30 29 1 3 28
M  V30 30 1 5 29
M  V30 31 1 6 30
M  V30 32 1 8 31
M  V30 33 1 9 32
M  V30 34 1 13 33
M  V30 35 1 13 34
M  V30 36 1 14 35
M  V30 37 1 14 36
M  V30 38 1 26 37
M  V30 39 1 26 38
M  V30 END BOND
M  V30 END CTAB
M  END
