
     RDKit          3D

  0  0  0  0  0  0  0  0  0  0999 V3000
M  V30 BEGIN CTAB
M  V30 COUNTS 34 35 0 0 0
M  V30 BEGIN ATOM
M  V30 1 O 1.59016 -2.13653 1.13305 0
M  V30 2 C 1.18123 -1.0324 0.769259 0
M  V30 3 C -0.324725 -0.856022 0.809294 0
M  V30 4 S -0.845759 -0.483039 -0.885038 0
M  V30 5 C -2.62061 -0.257547 -0.934205 0
M  V30 6 N -3.43309 -1.29334 -1.15035 0
M  V30 7 C -4.76226 -1.08749 -1.18096 0
M  V30 8 N -5.57415 -2.24773 -1.41824 0
M  V30 9 N -5.32664 0.118385 -1.00385 0
M  V30 10 C -4.49312 1.15707 -0.786174 0
M  V30 11 N -3.14903 0.961893 -0.753014 0
M  V30 12 N -4.94428 2.4824 -0.583187 0
M  V30 13 C -0.631665 0.243664 1.77291 0
M  V30 14 N 1.95146 0.0288927 0.340361 0
M  V30 15 C 3.36251 0.0420308 0.239603 0
M  V30 16 C 4.19426 -1.00011 0.552695 0
M  V30 17 C 5.56708 -0.894642 0.421917 0
M  V30 18 C 6.14757 0.26777 -0.0298894 0
M  V30 19 C 5.34153 1.33707 -0.354362 0
M  V30 20 C 3.98971 1.21369 -0.218655 0
M  V30 21 Cl 2.97959 2.57188 -0.631665 0
M  V30 22 Cl 6.07214 2.84616 -0.939398 0
M  V30 23 H -0.835241 -1.78201 1.11009 0
M  V30 24 H -5.34811 -3.17754 -1.02767 0
M  V30 25 H -6.41908 -2.13631 -2.00681 0
M  V30 26 H -5.54809 2.95119 -1.28106 0
M  V30 27 H -4.66798 2.98719 0.270579 0
M  V30 28 H 0.26216 0.891337 1.88571 0
M  V30 29 H -1.4718 0.893939 1.45241 0
M  V30 30 H -0.834111 -0.173932 2.8022 0
M  V30 31 H 1.41763 0.920643 0.0604531 0
M  V30 32 H 3.79789 -1.93761 0.912199 0
M  V30 33 H 6.16727 -1.7691 0.691281 0
M  V30 34 H 7.20752 0.350163 -0.131191 0
M  V30 END ATOM
M  V30 BEGIN BOND
M  V30 1 2 1 2
M  V30 2 1 2 3
M  V30 3 1 3 4
M  V30 4 1 4 5
M  V30 5 2 5 6
M  V30 6 1 6 7
M  V30 7 1 7 8
M  V30 8 2 7 9
M  V30 9 1 9 10
M  V30 10 2 10 11
M  V30 11 1 10 12
M  V30 12 1 3 13
M  V30 13 1 2 14
M  V30 14 1 14 15
M  V30 15 2 15 16
M  V30 16 1 16 17
M  V30 17 2 17 18
M  V30 18 1 18 19
M  V30 19 2 19 20
M  V30 20 1 20 21
M  V30 21 1 19 22
M  V30 22 1 11 5
M  V30 23 1 20 15
M  V30 24 1 3 23
M  V30 25 1 8 24
M  V30 26 1 8 25
M  V30 27 1 12 26
M  V30 28 1 12 27
M  V30 29 1 13 28
M  V30 30 1 13 29
M  V30 31 1 13 30
M  V30 32 1 14 31
M  V30 33 1 16 32
M  V30 34 1 17 33
M  V30 35 1 18 34
M  V30 END BOND
M  V30 END CTAB
M  END
