
     RDKit          3D

  0  0  0  0  0  0  0  0  0  0999 V3000
M  V30 BEGIN CTAB
M  V30 COUNTS 24 25 0 0 0
M  V30 BEGIN ATOM
M  V30 1 N 3.92285 0.0582356 0.325462 0
M  V30 2 C 2.56213 -0.279667 0.177785 0
M  V30 3 C 2.1134 -1.58516 0.224227 0
M  V30 4 C 0.748385 -1.86118 0.0710753 0
M  V30 5 C -0.156944 -0.853478 -0.12538 0
M  V30 6 C 0.269657 0.45213 -0.174671 0
M  V30 7 C 1.61502 0.712717 -0.02281 0
M  V30 8 C -0.658664 1.4833 -0.375938 0
M  V30 9 N -0.230807 2.82921 -0.428289 0
M  V30 10 N -1.9693 1.16901 -0.519055 0
M  V30 11 C -2.41872 -0.0877197 -0.476584 0
M  V30 12 C -1.49763 -1.10366 -0.27746 0
M  V30 13 C -3.85103 -0.462503 -0.630489 0
M  V30 14 H 4.39644 0.605228 -0.405845 0
M  V30 15 H 4.43911 -0.242235 1.1629 0
M  V30 16 H 2.83071 -2.36903 0.378724 0
M  V30 17 H 0.39912 -2.88545 0.107874 0
M  V30 18 H 1.97521 1.74211 -0.0586191 0
M  V30 19 H -0.474341 3.50478 0.318125 0
M  V30 20 H 0.339617 3.15116 -1.22999 0
M  V30 21 H -1.85247 -2.12025 -0.241988 0
M  V30 22 H -4.14517 -0.942385 0.343461 0
M  V30 23 H -3.87186 -1.29236 -1.38472 0
M  V30 24 H -4.4847 0.377197 -0.904453 0
M  V30 END ATOM
M  V30 BEGIN BOND
M  V30 1 1 1 2
M  V30 2 2 2 3
M  V30 3 1 3 4
M  V30 4 2 4 5
M  V30 5 1 5 6
M  V30 6 2 6 7
M  V30 7 1 6 8
M  V30 8 1 8 9
M  V30 9 2 8 10
M  V30 10 1 10 11
M  V30 11 2 11 12
M  V30 12 1 11 13
M  V30 13 1 7 2
M  V30 14 1 12 5
M  V30 15 1 1 14
M  V30 16 1 1 15
M  V30 17 1 3 16
M  V30 18 1 4 17
M  V30 19 1 7 18
M  V30 20 1 9 19
M  V30 21 1 9 20
M  V30 22 1 12 21
M  V30 23 1 13 22
M  V30 24 1 13 23
M  V30 25 1 13 24
M  V30 END BOND
M  V30 END CTAB
M  END
