
     RDKit          3D

  0  0  0  0  0  0  0  0  0  0999 V3000
M  V30 BEGIN CTAB
M  V30 COUNTS 27 29 0 0 0
M  V30 BEGIN ATOM
M  V30 1 N 0.807932 2.46577 -0.242261 0
M  V30 2 C 0.946194 1.047 -0.188498 0
M  V30 3 C 0.00507837 0.122566 -0.5478 0
M  V30 4 N 0.564536 -1.07482 -0.333911 0
M  V30 5 C 1.83227 -0.904388 0.150564 0
M  V30 6 N 2.07565 0.413146 0.243209 0
M  V30 7 N 3.25623 1.01241 0.69153 0
M  V30 8 C 2.78754 -1.98734 0.517721 0
M  V30 9 C -1.35186 0.465839 -1.05115 0
M  V30 10 C -2.20083 -0.680774 -1.64242 0
M  V30 11 C -2.44835 -0.172009 -0.359425 0
M  V30 12 C -2.4786 -0.804232 0.945743 0
M  V30 13 C -3.49438 0.276862 0.468006 0
M  V30 14 H 1.03382 2.93931 -1.13204 0
M  V30 15 H 0.485045 2.95467 0.618656 0
M  V30 16 H 3.93247 0.493446 1.28714 0
M  V30 17 H 3.49956 1.99169 0.446766 0
M  V30 18 H 3.2617 -1.69748 1.50069 0
M  V30 19 H 3.59095 -2.11213 -0.238523 0
M  V30 20 H 2.25533 -2.95649 0.674035 0
M  V30 21 H -1.46373 1.42328 -1.54387 0
M  V30 22 H -2.74803 -0.426508 -2.59875 0
M  V30 23 H -1.60809 -1.63644 -1.76603 0
M  V30 24 H -1.72086 -0.505155 1.68449 0
M  V30 25 H -2.86153 -1.85804 0.985983 0
M  V30 26 H -3.39611 1.24989 1.02434 0
M  V30 27 H -4.56193 -0.0400807 0.405817 0
M  V30 END ATOM
M  V30 BEGIN BOND
M  V30 1 1 1 2
M  V30 2 2 2 3
M  V30 3 1 3 4
M  V30 4 2 4 5
M  V30 5 1 5 6
M  V30 6 1 6 7
M  V30 7 1 5 8
M  V30 8 1 3 9
M  V30 9 1 9 10
M  V30 10 1 10 11
M  V30 11 1 11 12
M  V30 12 1 12 13
M  V30 13 1 6 2
M  V30 14 1 11 9
M  V30 15 1 13 11
M  V30 16 1 1 14
M  V30 17 1 1 15
M  V30 18 1 7 16
M  V30 19 1 7 17
M  V30 20 1 8 18
M  V30 21 1 8 19
M  V30 22 1 8 20
M  V30 23 1 9 21
M  V30 24 1 10 22
M  V30 25 1 10 23
M  V30 26 1 12 24
M  V30 27 1 12 25
M  V30 28 1 13 26
M  V30 29 1 13 27
M  V30 END BOND
M  V30 END CTAB
M  END
