
     RDKit          3D

  0  0  0  0  0  0  0  0  0  0999 V3000
M  V30 BEGIN CTAB
M  V30 COUNTS 30 31 0 0 0
M  V30 BEGIN ATOM
M  V30 1 N -2.71042 0.9306 -1.7199 0
M  V30 2 N -1.34093 0.73403 -1.63819 0
M  V30 3 C -1.04156 -0.121975 -0.489049 0
M  V30 4 C 0.427515 -0.266517 -0.495556 0
M  V30 5 C 1.12554 0.331548 0.526216 0
M  V30 6 C 2.5233 0.223254 0.543162 0
M  V30 7 C 3.33405 0.846148 1.62395 0
M  V30 8 C 3.09586 -0.488725 -0.489262 0
M  V30 9 N 2.38532 -1.05887 -1.47059 0
M  V30 10 C 1.04216 -0.96025 -1.49355 0
M  V30 11 N 0.234099 -1.5318 -2.49155 0
M  V30 12 C -1.65189 0.374396 0.763036 0
M  V30 13 C -1.42139 -0.455949 2.02574 0
M  V30 14 C -2.74944 -0.514327 1.38295 0
M  V30 15 H -2.93239 1.43765 -2.61514 0
M  V30 16 H -3.07754 1.44251 -0.906177 0
M  V30 17 H -0.757893 1.56828 -1.70624 0
M  V30 18 H -1.45579 -1.11273 -0.739322 0
M  V30 19 H 0.690091 0.901494 1.33534 0
M  V30 20 H 4.11038 0.119051 2.00169 0
M  V30 21 H 3.86423 1.74165 1.32175 0
M  V30 22 H 2.7076 1.08273 2.51657 0
M  V30 23 H 4.19589 -0.561539 -0.459427 0
M  V30 24 H -0.367807 -2.35699 -2.39873 0
M  V30 25 H 0.245236 -1.06334 -3.44241 0
M  V30 26 H -1.87436 1.44988 0.887501 0
M  V30 27 H -1.22444 0.118296 2.94912 0
M  V30 28 H -0.785543 -1.35346 1.91594 0
M  V30 29 H -3.56388 -0.0281119 1.94658 0
M  V30 30 H -3.02601 -1.42695 0.815541 0
M  V30 END ATOM
M  V30 BEGIN BOND
M  V30 1 1 1 2
M  V30 2 1 2 3
M  V30 3 1 3 4
M  V30 4 2 4 5
M  V30 5 1 5 6
M  V30 6 1 6 7
M  V30 7 2 6 8
M  V30 8 1 8 9
M  V30 9 2 9 10
M  V30 10 1 10 11
M  V30 11 1 3 12
M  V30 12 1 12 13
M  V30 13 1 13 14
M  V30 14 1 10 4
M  V30 15 1 14 12
M  V30 16 1 1 15
M  V30 17 1 1 16
M  V30 18 1 2 17
M  V30 19 1 3 18
M  V30 20 1 5 19
M  V30 21 1 7 20
M  V30 22 1 7 21
M  V30 23 1 7 22
M  V30 24 1 8 23
M  V30 25 1 11 24
M  V30 26 1 11 25
M  V30 27 1 12 26
M  V30 28 1 13 27
M  V30 29 1 13 28
M  V30 30 1 14 29
M  V30 31 1 14 30
M  V30 END BOND
M  V30 END CTAB
M  END
