
     RDKit          3D

  0  0  0  0  0  0  0  0  0  0999 V3000
M  V30 BEGIN CTAB
M  V30 COUNTS 32 33 0 0 0
M  V30 BEGIN ATOM
M  V30 1 C 0.32449 -2.75855 0.974477 0
M  V30 2 P -0.0596763 -1.54579 -0.324402 0
M  V30 3 O -0.383681 -2.3204 -1.5734 0
M  V30 4 C 1.32716 -0.476471 -0.645032 0
M  V30 5 C 1.55114 -0.0738123 -1.94281 0
M  V30 6 C 2.61662 0.755517 -2.23136 0
M  V30 7 C 3.48543 1.21149 -1.27308 0
M  V30 8 C 3.26852 0.813632 0.0266257 0
M  V30 9 N 4.12722 1.24899 1.0567 0
M  V30 10 C 2.19504 -0.0226608 0.321301 0
M  V30 11 C -1.43365 -0.569197 0.248004 0
M  V30 12 C -2.22239 0.112127 -0.656064 0
M  V30 13 C -3.29337 0.875907 -0.235995 0
M  V30 14 N -4.12706 1.58968 -1.12636 0
M  V30 15 C -3.54533 0.930739 1.13791 0
M  V30 16 C -2.76618 0.255707 2.05133 0
M  V30 17 C -1.72257 -0.483972 1.59519 0
M  V30 18 H -0.633522 -3.26984 1.21376 0
M  V30 19 H 1.04787 -3.49751 0.568573 0
M  V30 20 H 0.660476 -2.27454 1.90281 0
M  V30 21 H 0.894408 -0.402198 -2.75541 0
M  V30 22 H 2.7677 1.05807 -3.27445 0
M  V30 23 H 4.3203 1.86801 -1.5354 0
M  V30 24 H 5.14611 1.11122 0.976694 0
M  V30 25 H 3.72498 1.70594 1.88948 0
M  V30 26 H 2.00401 -0.350753 1.34514 0
M  V30 27 H -2.02798 0.070464 -1.72269 0
M  V30 28 H -3.73641 2.2952 -1.77552 0
M  V30 29 H -5.14259 1.39593 -1.12076 0
M  V30 30 H -4.36489 1.51165 1.49592 0
M  V30 31 H -2.94493 0.285174 3.12238 0
M  V30 32 H -1.05723 -1.04975 2.26642 0
M  V30 END ATOM
M  V30 BEGIN BOND
M  V30 1 1 1 2
M  V30 2 2 2 3
M  V30 3 1 2 4
M  V30 4 2 4 5
M  V30 5 1 5 6
M  V30 6 2 6 7
M  V30 7 1 7 8
M  V30 8 1 8 9
M  V30 9 2 8 10
M  V30 10 1 2 11
M  V30 11 2 11 12
M  V30 12 1 12 13
M  V30 13 1 13 14
M  V30 14 2 13 15
M  V30 15 1 15 16
M  V30 16 2 16 17
M  V30 17 1 10 4
M  V30 18 1 17 11
M  V30 19 1 1 18
M  V30 20 1 1 19
M  V30 21 1 1 20
M  V30 22 1 5 21
M  V30 23 1 6 22
M  V30 24 1 7 23
M  V30 25 1 9 24
M  V30 26 1 9 25
M  V30 27 1 10 26
M  V30 28 1 12 27
M  V30 29 1 14 28
M  V30 30 1 14 29
M  V30 31 1 15 30
M  V30 32 1 16 31
M  V30 33 1 17 32
M  V30 END BOND
M  V30 END CTAB
M  END
