
     RDKit          3D

  0  0  0  0  0  0  0  0  0  0999 V3000
M  V30 BEGIN CTAB
M  V30 COUNTS 42 44 0 0 0
M  V30 BEGIN ATOM
M  V30 1 C -6.41559 -0.990532 0.930247 0
M  V30 2 C -5.58057 0.194107 0.590598 0
M  V30 3 C -4.19945 0.105635 0.631026 0
M  V30 4 F -3.67726 -1.0967 1.02164 0
M  V30 5 C -3.40483 1.17698 0.323173 0
M  V30 6 C -1.93162 1.09544 0.328862 0
M  V30 7 O -1.28711 1.92452 1.04803 0
M  V30 8 N -1.21531 0.147726 -0.425298 0
M  V30 9 N -1.86453 -0.718781 -1.22802 0
M  V30 10 C -0.982598 -1.52415 -1.841 0
M  V30 11 N -1.26454 -2.57585 -2.76989 0
M  V30 12 N 0.208972 -1.11802 -1.38531 0
M  V30 13 C 0.0998373 -0.0930142 -0.514422 0
M  V30 14 N 1.14719 0.603961 0.146387 0
M  V30 15 C 2.52278 0.308605 0.077013 0
M  V30 16 C 2.99066 -0.915955 -0.280367 0
M  V30 17 C 4.3579 -1.14226 -0.357296 0
M  V30 18 C 5.25633 -0.142816 -0.0756902 0
M  V30 19 C 4.79747 1.08186 0.282443 0
M  V30 20 C 3.44979 1.32148 0.362658 0
M  V30 21 S 6.9542 -0.54588 -0.206528 0
M  V30 22 N 7.58343 -1.13836 1.28877 0
M  V30 23 O 7.68042 0.675692 -0.682121 0
M  V30 24 O 7.13148 -1.62779 -1.2353 0
M  V30 25 C -3.99153 2.3987 -0.0416667 0
M  V30 26 F -3.20171 3.46379 -0.346628 0
M  V30 27 C -5.36624 2.46594 -0.0752664 0
M  V30 28 C -6.16498 1.38873 0.233181 0
M  V30 29 H -6.82447 -0.913429 1.96889 0
M  V30 30 H -7.25997 -1.01707 0.213259 0
M  V30 31 H -5.81089 -1.92084 0.853127 0
M  V30 32 H -1.51989 -3.5156 -2.42292 0
M  V30 33 H -1.21346 -2.3979 -3.77684 0
M  V30 34 H 0.903589 1.44462 0.770669 0
M  V30 35 H 2.34653 -1.76171 -0.501857 0
M  V30 36 H 4.67554 -2.14577 -0.650315 0
M  V30 37 H 5.52237 1.85691 0.500908 0
M  V30 38 H 3.07242 2.28797 0.644929 0
M  V30 39 H 7.00205 -0.751439 2.0662 0
M  V30 40 H 8.53583 -0.729905 1.39363 0
M  V30 41 H -5.82077 3.40136 -0.354675 0
M  V30 42 H -7.2415 1.43977 0.20693 0
M  V30 END ATOM
M  V30 BEGIN BOND
M  V30 1 1 1 2
M  V30 2 2 2 3
M  V30 3 1 3 4
M  V30 4 1 3 5
M  V30 5 1 5 6
M  V30 6 2 6 7
M  V30 7 1 6 8
M  V30 8 1 8 9
M  V30 9 2 9 10
M  V30 10 1 10 11
M  V30 11 1 10 12
M  V30 12 2 12 13
M  V30 13 1 13 14
M  V30 14 1 14 15
M  V30 15 2 15 16
M  V30 16 1 16 17
M  V30 17 2 17 18
M  V30 18 1 18 19
M  V30 19 2 19 20
M  V30 20 1 18 21
M  V30 21 1 21 22
M  V30 22 2 21 23
M  V30 23 2 21 24
M  V30 24 2 5 25
M  V30 25 1 25 26
M  V30 26 1 25 27
M  V30 27 2 27 28
M  V30 28 1 28 2
M  V30 29 1 13 8
M  V30 30 1 20 15
M  V30 31 1 1 29
M  V30 32 1 1 30
M  V30 33 1 1 31
M  V30 34 1 11 32
M  V30 35 1 11 33
M  V30 36 1 14 34
M  V30 37 1 16 35
M  V30 38 1 17 36
M  V30 39 1 19 37
M  V30 40 1 20 38
M  V30 41 1 22 39
M  V30 42 1 22 40
M  V30 43 1 27 41
M  V30 44 1 28 42
M  V30 END BOND
M  V30 END CTAB
M  END
