
     RDKit          3D

  0  0  0  0  0  0  0  0  0  0999 V3000
M  V30 BEGIN CTAB
M  V30 COUNTS 34 35 0 0 0
M  V30 BEGIN ATOM
M  V30 1 O 1.55889 -0.966783 0.76518 0
M  V30 2 C 1.55331 -1.66705 -0.270479 0
M  V30 3 C 2.66697 -2.61922 -0.478369 0
M  V30 4 S 3.84957 -2.54593 0.880616 0
M  V30 5 C 4.63808 -0.929558 0.838606 0
M  V30 6 N 5.74115 -0.593859 0.176872 0
M  V30 7 N 6.1791 0.588139 0.242624 0
M  V30 8 C 5.53558 1.49352 0.973592 0
M  V30 9 S 4.23515 0.553509 1.58331 0
M  V30 10 N 5.87148 2.88319 1.17514 0
M  V30 11 N 0.531147 -1.57921 -1.23542 0
M  V30 12 C -0.605491 -0.714013 -1.17381 0
M  V30 13 C -1.43994 -1.02797 0.0409151 0
M  V30 14 C -2.62999 -0.132231 0.115686 0
M  V30 15 N -3.77227 -0.490747 -0.466759 0
M  V30 16 C -4.85796 0.31391 -0.407466 0
M  V30 17 N -6.05894 -0.0987189 -1.03915 0
M  V30 18 C -4.75021 1.50796 0.268448 0
M  V30 19 C -3.56267 1.88758 0.877677 0
M  V30 20 N -2.53702 1.02518 0.766954 0
M  V30 21 O -3.40789 3.07131 1.56411 0
M  V30 22 H 3.16662 -2.31366 -1.42134 0
M  V30 23 H 2.26242 -3.64364 -0.561194 0
M  V30 24 H 6.86738 3.14355 1.13399 0
M  V30 25 H 5.15446 3.59299 1.35343 0
M  V30 26 H 0.602815 -2.20642 -2.08635 0
M  V30 27 H -0.287876 0.355052 -1.17995 0
M  V30 28 H -1.22754 -0.859566 -2.08618 0
M  V30 29 H -0.848287 -0.94908 0.966361 0
M  V30 30 H -1.81534 -2.07985 -0.0837986 0
M  V30 31 H -6.96206 -0.0366178 -0.545991 0
M  V30 32 H -6.08382 -0.482809 -2.02807 0
M  V30 33 H -5.60075 2.18528 0.339632 0
M  V30 34 H -3.96606 3.33576 2.36374 0
M  V30 END ATOM
M  V30 BEGIN BOND
M  V30 1 2 1 2
M  V30 2 1 2 3
M  V30 3 1 3 4
M  V30 4 1 4 5
M  V30 5 2 5 6
M  V30 6 1 6 7
M  V30 7 2 7 8
M  V30 8 1 8 9
M  V30 9 1 8 10
M  V30 10 1 2 11
M  V30 11 1 11 12
M  V30 12 1 12 13
M  V30 13 1 13 14
M  V30 14 2 14 15
M  V30 15 1 15 16
M  V30 16 1 16 17
M  V30 17 2 16 18
M  V30 18 1 18 19
M  V30 19 2 19 20
M  V30 20 1 19 21
M  V30 21 1 9 5
M  V30 22 1 20 14
M  V30 23 1 3 22
M  V30 24 1 3 23
M  V30 25 1 10 24
M  V30 26 1 10 25
M  V30 27 1 11 26
M  V30 28 1 12 27
M  V30 29 1 12 28
M  V30 30 1 13 29
M  V30 31 1 13 30
M  V30 32 1 17 31
M  V30 33 1 17 32
M  V30 34 1 18 33
M  V30 35 1 21 34
M  V30 END BOND
M  V30 END CTAB
M  END
