
     RDKit          3D

  0  0  0  0  0  0  0  0  0  0999 V3000
M  V30 BEGIN CTAB
M  V30 COUNTS 21 21 0 0 0
M  V30 BEGIN ATOM
M  V30 1 C -2.95141 -0.54431 0.0348603 0
M  V30 2 N -1.85916 -0.447238 -0.938829 0
M  V30 3 C -0.535284 -0.315906 -0.46756 0
M  V30 4 C -0.0189252 0.945499 -0.252687 0
M  V30 5 N -0.789956 2.12401 -0.494975 0
M  V30 6 C 1.28999 1.08333 0.213482 0
M  V30 7 C 2.0669 -0.0266343 0.459597 0
M  V30 8 C 1.51184 -1.28464 0.231129 0
M  V30 9 C 0.224683 -1.45255 -0.228121 0
M  V30 10 F -0.325796 -2.66919 -0.453909 0
M  V30 11 Cl 2.51345 -2.70188 0.548826 0
M  V30 12 N 3.39845 0.0783729 0.932935 0
M  V30 13 H -3.60365 -1.41658 -0.172842 0
M  V30 14 H -3.58822 0.35863 0.0153267 0
M  V30 15 H -2.53753 -0.61435 1.07337 0
M  V30 16 H -2.12758 -0.481299 -1.93319 0
M  V30 17 H -0.318817 2.87354 -1.04558 0
M  V30 18 H -1.76289 2.18399 -0.122271 0
M  V30 19 H 1.69543 2.09186 0.382662 0
M  V30 20 H 3.62293 -0.383568 1.83978 0
M  V30 21 H 4.09553 0.598909 0.378003 0
M  V30 END ATOM
M  V30 BEGIN BOND
M  V30 1 1 1 2
M  V30 2 1 2 3
M  V30 3 2 3 4
M  V30 4 1 4 5
M  V30 5 1 4 6
M  V30 6 2 6 7
M  V30 7 1 7 8
M  V30 8 2 8 9
M  V30 9 1 9 10
M  V30 10 1 8 11
M  V30 11 1 7 12
M  V30 12 1 9 3
M  V30 13 1 1 13
M  V30 14 1 1 14
M  V30 15 1 1 15
M  V30 16 1 2 16
M  V30 17 1 5 17
M  V30 18 1 5 18
M  V30 19 1 6 19
M  V30 20 1 12 20
M  V30 21 1 12 21
M  V30 END BOND
M  V30 END CTAB
M  END
