
     RDKit          3D

  0  0  0  0  0  0  0  0  0  0999 V3000
M  V30 BEGIN CTAB
M  V30 COUNTS 28 28 0 0 0
M  V30 BEGIN ATOM
M  V30 1 N 4.24723 0.355361 -0.801804 0
M  V30 2 C 2.83064 0.091844 -0.878505 0
M  V30 3 C 2.33533 -0.215418 0.507845 0
M  V30 4 N 0.899286 -0.483489 0.436296 0
M  V30 5 N 0.362141 -1.67638 0.238745 0
M  V30 6 C -0.985199 -1.58685 0.224896 0
M  V30 7 C -1.25338 -0.248905 0.428479 0
M  V30 8 C -0.052693 0.456892 0.563609 0
M  V30 9 C 0.0924272 1.92172 0.795537 0
M  V30 10 S -2.82247 0.492871 0.511974 0
M  V30 11 O -2.76835 1.68974 1.44979 0
M  V30 12 O -3.85296 -0.436334 1.09007 0
M  V30 13 N -3.28201 0.977708 -1.07186 0
M  V30 14 C -1.96299 -2.69158 0.0320126 0
M  V30 15 H 4.81682 -0.418077 -1.19542 0
M  V30 16 H 4.44223 1.28283 -1.20504 0
M  V30 17 H 2.65014 -0.75278 -1.57646 0
M  V30 18 H 2.29408 0.962034 -1.2691 0
M  V30 19 H 2.86393 -1.1108 0.924596 0
M  V30 20 H 2.48885 0.679529 1.13336 0
M  V30 21 H -0.635164 2.50873 0.160944 0
M  V30 22 H -0.0302603 2.20454 1.8412 0
M  V30 23 H 1.098 2.22586 0.38808 0
M  V30 24 H -4.29134 0.87525 -1.26403 0
M  V30 25 H -2.87518 1.89556 -1.26741 0
M  V30 26 H -2.01896 -3.37017 0.903723 0
M  V30 27 H -1.6451 -3.35019 -0.829028 0
M  V30 28 H -2.94506 -2.27951 -0.272524 0
M  V30 END ATOM
M  V30 BEGIN BOND
M  V30 1 1 1 2
M  V30 2 1 2 3
M  V30 3 1 3 4
M  V30 4 1 4 5
M  V30 5 2 5 6
M  V30 6 1 6 7
M  V30 7 2 7 8
M  V30 8 1 8 9
M  V30 9 1 7 10
M  V30 10 2 10 11
M  V30 11 2 10 12
M  V30 12 1 10 13
M  V30 13 1 6 14
M  V30 14 1 8 4
M  V30 15 1 1 15
M  V30 16 1 1 16
M  V30 17 1 2 17
M  V30 18 1 2 18
M  V30 19 1 3 19
M  V30 20 1 3 20
M  V30 21 1 9 21
M  V30 22 1 9 22
M  V30 23 1 9 23
M  V30 24 1 13 24
M  V30 25 1 13 25
M  V30 26 1 14 26
M  V30 27 1 14 27
M  V30 28 1 14 28
M  V30 END BOND
M  V30 END CTAB
M  END
