
     RDKit          3D

  0  0  0  0  0  0  0  0  0  0999 V3000
M  V30 BEGIN CTAB
M  V30 COUNTS 29 30 0 0 0
M  V30 BEGIN ATOM
M  V30 1 C -2.5045 1.20887 0.667571 0
M  V30 2 C -2.21397 -0.0573997 -0.097624 0
M  V30 3 C -3.47983 -0.68135 -0.594647 0
M  V30 4 C -1.19679 0.0503327 -1.18698 0
M  V30 5 C -0.350269 -1.00138 -0.545572 0
M  V30 6 C -1.28255 -0.952186 0.664312 0
M  V30 7 C 1.03065 -0.534698 -0.25617 0
M  V30 8 N 1.20403 0.677817 0.296209 0
M  V30 9 C 2.40556 1.18992 0.595427 0
M  V30 10 N 2.47719 2.48279 1.1778 0
M  V30 11 N 3.4803 0.439448 0.322595 0
M  V30 12 C 3.37055 -0.794775 -0.235779 0
M  V30 13 N 2.13156 -1.2608 -0.516576 0
M  V30 14 N 4.53988 -1.53711 -0.499444 0
M  V30 15 H -1.58459 1.70397 1.04306 0
M  V30 16 H -3.1665 1.90211 0.115091 0
M  V30 17 H -3.06811 0.899746 1.59545 0
M  V30 18 H -3.32973 -1.16795 -1.59641 0
M  V30 19 H -4.22654 0.132061 -0.751331 0
M  V30 20 H -3.93773 -1.39398 0.119557 0
M  V30 21 H -1.52 -0.268368 -2.19608 0
M  V30 22 H -0.754729 1.07374 -1.22189 0
M  V30 23 H -0.387566 -2.01166 -0.999524 0
M  V30 24 H -0.824931 -0.521182 1.57623 0
M  V30 25 H -1.75991 -1.92255 0.907613 0
M  V30 26 H 1.65696 2.90066 1.63492 0
M  V30 27 H 3.36086 3.06325 1.16779 0
M  V30 28 H 4.78979 -2.32872 0.11161 0
M  V30 29 H 5.1409 -1.29061 -1.29721 0
M  V30 END ATOM
M  V30 BEGIN BOND
M  V30 1 1 1 2
M  V30 2 1 2 3
M  V30 3 1 2 4
M  V30 4 1 4 5
M  V30 5 1 5 6
M  V30 6 1 5 7
M  V30 7 2 7 8
M  V30 8 1 8 9
M  V30 9 1 9 10
M  V30 10 2 9 11
M  V30 11 1 11 12
M  V30 12 2 12 13
M  V30 13 1 12 14
M  V30 14 1 6 2
M  V30 15 1 13 7
M  V30 16 1 1 15
M  V30 17 1 1 16
M  V30 18 1 1 17
M  V30 19 1 3 18
M  V30 20 1 3 19
M  V30 21 1 3 20
M  V30 22 1 4 21
M  V30 23 1 4 22
M  V30 24 1 5 23
M  V30 25 1 6 24
M  V30 26 1 6 25
M  V30 27 1 10 26
M  V30 28 1 10 27
M  V30 29 1 14 28
M  V30 30 1 14 29
M  V30 END BOND
M  V30 END CTAB
M  END
