
     RDKit          3D

  0  0  0  0  0  0  0  0  0  0999 V3000
M  V30 BEGIN CTAB
M  V30 COUNTS 24 25 0 0 0
M  V30 BEGIN ATOM
M  V30 1 N 1.77845 -0.721395 1.29088 0
M  V30 2 N 1.60333 -0.0630815 0.0942513 0
M  V30 3 C 2.5407 -0.0264847 -0.886012 0
M  V30 4 N 3.82285 -0.62151 -0.888684 0
M  V30 5 N 1.9944 0.705604 -1.87765 0
M  V30 6 N 0.781781 1.09682 -1.51931 0
M  V30 7 C 0.512023 0.630853 -0.292419 0
M  V30 8 C -0.711109 0.806089 0.524131 0
M  V30 9 N -1.67063 -0.257762 0.27287 0
M  V30 10 C -2.6934 -0.301067 -0.59433 0
M  V30 11 N -3.33935 -1.47417 -0.512401 0
M  V30 12 C -2.70634 -2.18412 0.429198 0
M  V30 13 N -1.69254 -1.4375 0.902093 0
M  V30 14 C -1.3734 2.11034 0.0621912 0
M  V30 15 H 2.09498 -0.221607 2.13665 0
M  V30 16 H 1.59503 -1.74016 1.36916 0
M  V30 17 H 4.27134 -0.843473 0.0233474 0
M  V30 18 H 4.3249 -0.841394 -1.75548 0
M  V30 19 H -0.491636 0.908028 1.59956 0
M  V30 20 H -2.94289 0.531079 -1.26901 0
M  V30 21 H -2.9644 -3.18397 0.753823 0
M  V30 22 H -0.783391 2.98989 0.323169 0
M  V30 23 H -2.39274 2.10921 0.523042 0
M  V30 24 H -1.55796 2.02979 -1.04867 0
M  V30 END ATOM
M  V30 BEGIN BOND
M  V30 1 1 1 2
M  V30 2 1 2 3
M  V30 3 1 3 4
M  V30 4 2 3 5
M  V30 5 1 5 6
M  V30 6 2 6 7
M  V30 7 1 7 8
M  V30 8 1 8 9
M  V30 9 1 9 10
M  V30 10 2 10 11
M  V30 11 1 11 12
M  V30 12 2 12 13
M  V30 13 1 8 14
M  V30 14 1 7 2
M  V30 15 1 13 9
M  V30 16 1 1 15
M  V30 17 1 1 16
M  V30 18 1 4 17
M  V30 19 1 4 18
M  V30 20 1 8 19
M  V30 21 1 10 20
M  V30 22 1 12 21
M  V30 23 1 14 22
M  V30 24 1 14 23
M  V30 25 1 14 24
M  V30 END BOND
M  V30 END CTAB
M  END
