
     RDKit          3D

  0  0  0  0  0  0  0  0  0  0999 V3000
M  V30 BEGIN CTAB
M  V30 COUNTS 40 42 0 0 0
M  V30 BEGIN ATOM
M  V30 1 N 5.35017 -2.37788 0.294777 0
M  V30 2 C 4.31372 -1.43047 0.138603 0
M  V30 3 C 3.76049 -1.15155 -1.1003 0
M  V30 4 C 2.76002 -0.245005 -1.291 0
M  V30 5 C 2.26606 0.439142 -0.178502 0
M  V30 6 C 2.78764 0.191479 1.06855 0
M  V30 7 C 3.80723 -0.740997 1.21782 0
M  V30 8 N 1.22189 1.37748 -0.337155 0
M  V30 9 C 0.865515 2.30846 0.705974 0
M  V30 10 C -0.469989 1.80849 1.27408 0
M  V30 11 N -1.22886 1.33216 0.111151 0
M  V30 12 C -0.927144 1.84644 -1.22494 0
M  V30 13 C 0.479564 1.38622 -1.59701 0
M  V30 14 C -2.25259 0.382505 0.246196 0
M  V30 15 C -2.13561 -0.835883 -0.375982 0
M  V30 16 C -3.11516 -1.81099 -0.272769 0
M  V30 17 C -4.22505 -1.52501 0.479642 0
M  V30 18 C -4.37989 -0.305161 1.12364 0
M  V30 19 C -3.36536 0.654076 0.993516 0
M  V30 20 Cl -3.61865 2.17282 1.82417 0
M  V30 21 N -5.2516 -2.48978 0.613677 0
M  V30 22 H 5.11337 -3.3647 0.465799 0
M  V30 23 H 6.33172 -2.07587 0.236651 0
M  V30 24 H 4.14503 -1.68339 -1.96157 0
M  V30 25 H 2.32127 -0.0157337 -2.2495 0
M  V30 26 H 2.44217 0.68771 1.97162 0
M  V30 27 H 4.19328 -0.9078 2.22361 0
M  V30 28 H 0.584409 3.30664 0.244604 0
M  V30 29 H 1.64176 2.42105 1.44814 0
M  V30 30 H -0.225997 0.986833 1.96142 0
M  V30 31 H -0.981647 2.61194 1.81763 0
M  V30 32 H -1.6245 1.39996 -1.95517 0
M  V30 33 H -1.01406 2.9352 -1.2111 0
M  V30 34 H 0.357214 0.346794 -1.96275 0
M  V30 35 H 0.931289 2.06804 -2.31896 0
M  V30 36 H -1.26759 -1.11492 -0.989192 0
M  V30 37 H -3.03794 -2.76455 -0.751654 0
M  V30 38 H -5.25547 -0.0812888 1.71647 0
M  V30 39 H -5.95492 -2.46776 1.38235 0
M  V30 40 H -5.34177 -3.27472 -0.0685497 0
M  V30 END ATOM
M  V30 BEGIN BOND
M  V30 1 1 1 2
M  V30 2 2 2 3
M  V30 3 1 3 4
M  V30 4 2 4 5
M  V30 5 1 5 6
M  V30 6 2 6 7
M  V30 7 1 5 8
M  V30 8 1 8 9
M  V30 9 1 9 10
M  V30 10 1 10 11
M  V30 11 1 11 12
M  V30 12 1 12 13
M  V30 13 1 11 14
M  V30 14 2 14 15
M  V30 15 1 15 16
M  V30 16 2 16 17
M  V30 17 1 17 18
M  V30 18 2 18 19
M  V30 19 1 19 20
M  V30 20 1 17 21
M  V30 21 1 7 2
M  V30 22 1 13 8
M  V30 23 1 19 14
M  V30 24 1 1 22
M  V30 25 1 1 23
M  V30 26 1 3 24
M  V30 27 1 4 25
M  V30 28 1 6 26
M  V30 29 1 7 27
M  V30 30 1 9 28
M  V30 31 1 9 29
M  V30 32 1 10 30
M  V30 33 1 10 31
M  V30 34 1 12 32
M  V30 35 1 12 33
M  V30 36 1 13 34
M  V30 37 1 13 35
M  V30 38 1 15 36
M  V30 39 1 16 37
M  V30 40 1 18 38
M  V30 41 1 21 39
M  V30 42 1 21 40
M  V30 END BOND
M  V30 END CTAB
M  END
