
     RDKit          3D

  0  0  0  0  0  0  0  0  0  0999 V3000
M  V30 BEGIN CTAB
M  V30 COUNTS 27 27 0 0 0
M  V30 BEGIN ATOM
M  V30 1 N 4.36048 0.644196 -1.22826 0
M  V30 2 N 3.43119 0.817023 -0.200572 0
M  V30 3 C 2.91046 -0.253744 0.320666 0
M  V30 4 N 1.95035 -0.105034 1.38095 0
M  V30 5 C 0.545884 -0.305935 1.21192 0
M  V30 6 C -0.105653 0.736939 0.341208 0
M  V30 7 C -1.55932 0.482525 0.19916 0
M  V30 8 C -2.49321 1.01244 1.06568 0
M  V30 9 C -3.85165 0.77956 0.936705 0
M  V30 10 C -4.30008 -0.0194328 -0.105283 0
M  V30 11 C -3.37707 -0.5489 -0.969277 0
M  V30 12 C -2.03038 -0.302796 -0.820492 0
M  V30 13 Br -6.18664 -0.353228 -0.301674 0
M  V30 14 N 3.26365 -1.54663 -0.128217 0
M  V30 15 H 4.01025 0.644373 -2.23296 0
M  V30 16 H 5.37075 0.513808 -1.10864 0
M  V30 17 H 2.32166 0.165136 2.31294 0
M  V30 18 H 0.390587 -1.31849 0.768351 0
M  V30 19 H 0.0573259 -0.304455 2.20211 0
M  V30 20 H 0.0330029 1.75347 0.699617 0
M  V30 21 H 0.330432 0.658457 -0.696953 0
M  V30 22 H -2.14404 1.63557 1.87815 0
M  V30 23 H -4.57704 1.21176 1.63768 0
M  V30 24 H -3.74006 -1.17103 -1.77727 0
M  V30 25 H -1.36296 -0.769879 -1.56122 0
M  V30 26 H 2.54359 -2.11437 -0.605827 0
M  V30 27 H 4.20849 -1.94135 0.0024278 0
M  V30 END ATOM
M  V30 BEGIN BOND
M  V30 1 1 1 2
M  V30 2 2 2 3 CFG=2
M  V30 3 1 3 4
M  V30 4 1 4 5
M  V30 5 1 5 6
M  V30 6 1 6 7
M  V30 7 2 7 8
M  V30 8 1 8 9
M  V30 9 2 9 10
M  V30 10 1 10 11
M  V30 11 2 11 12
M  V30 12 1 10 13
M  V30 13 1 3 14
M  V30 14 1 12 7
M  V30 15 1 1 15
M  V30 16 1 1 16
M  V30 17 1 4 17
M  V30 18 1 5 18
M  V30 19 1 5 19
M  V30 20 1 6 20
M  V30 21 1 6 21
M  V30 22 1 8 22
M  V30 23 1 9 23
M  V30 24 1 11 24
M  V30 25 1 12 25
M  V30 26 1 14 26
M  V30 27 1 14 27
M  V30 END BOND
M  V30 END CTAB
M  END
