
     RDKit          3D

  0  0  0  0  0  0  0  0  0  0999 V3000
M  V30 BEGIN CTAB
M  V30 COUNTS 27 27 0 0 0
M  V30 BEGIN ATOM
M  V30 1 N -1.55827 1.55659 1.30997 0
M  V30 2 C -1.54595 1.28293 -0.0876394 0
M  V30 3 C -0.913031 -0.0200328 -0.490251 0
M  V30 4 N 0.454439 -0.159092 -0.122466 0
M  V30 5 C 1.52089 -0.249589 -1.11416 0
M  V30 6 C 2.86127 -0.498295 -0.522267 0
M  V30 7 C 3.15642 0.318152 0.703241 0
M  V30 8 O 2.07932 0.382098 1.59156 0
M  V30 9 C 0.860644 -0.215163 1.24376 0
M  V30 10 O 0.121471 -0.7924 2.08537 0
M  V30 11 C -1.81306 -1.14152 -0.0655374 0
M  V30 12 N -3.09243 -0.935354 -0.756127 0
M  V30 13 H -2.46467 1.21145 1.70214 0
M  V30 14 H -1.46064 2.55876 1.52292 0
M  V30 15 H -2.58313 1.36106 -0.4725 0
M  V30 16 H -0.995782 2.13682 -0.582668 0
M  V30 17 H -0.945133 -0.0165016 -1.6257 0
M  V30 18 H 1.28118 -1.09653 -1.79654 0
M  V30 19 H 1.5371 0.659163 -1.77629 0
M  V30 20 H 3.62878 -0.234944 -1.28445 0
M  V30 21 H 3.028 -1.58683 -0.306561 0
M  V30 22 H 3.5229 1.3334 0.446158 0
M  V30 23 H 4.02756 -0.185073 1.21682 0
M  V30 24 H -2.0639 -1.13604 1.01298 0
M  V30 25 H -1.42272 -2.12835 -0.378905 0
M  V30 26 H -3.85403 -0.671033 -0.118864 0
M  V30 27 H -3.36722 -1.73367 -1.334 0
M  V30 END ATOM
M  V30 BEGIN BOND
M  V30 1 1 1 2
M  V30 2 1 2 3
M  V30 3 1 3 4
M  V30 4 1 4 5
M  V30 5 1 5 6
M  V30 6 1 6 7
M  V30 7 1 7 8
M  V30 8 1 8 9
M  V30 9 2 9 10
M  V30 10 1 3 11
M  V30 11 1 11 12
M  V30 12 1 9 4
M  V30 13 1 1 13
M  V30 14 1 1 14
M  V30 15 1 2 15
M  V30 16 1 2 16
M  V30 17 1 3 17
M  V30 18 1 5 18
M  V30 19 1 5 19
M  V30 20 1 6 20
M  V30 21 1 6 21
M  V30 22 1 7 22
M  V30 23 1 7 23
M  V30 24 1 11 24
M  V30 25 1 11 25
M  V30 26 1 12 26
M  V30 27 1 12 27
M  V30 END BOND
M  V30 END CTAB
M  END
