
     RDKit          3D

  0  0  0  0  0  0  0  0  0  0999 V3000
M  V30 BEGIN CTAB
M  V30 COUNTS 30 31 0 0 0
M  V30 BEGIN ATOM
M  V30 1 N -4.94027 -0.635497 -0.842024 0
M  V30 2 C -4.01525 -0.120276 0.116157 0
M  V30 3 C -3.06963 -1.16296 0.727523 0
M  V30 4 C -2.0035 -0.086034 0.661225 0
M  V30 5 C -2.76276 0.468113 -0.550741 0
M  V30 6 C -0.621004 -0.564278 0.362185 0
M  V30 7 S 0.495959 0.846017 0.324771 0
M  V30 8 C 2.16348 0.304543 -0.0319002 0
M  V30 9 C 2.48661 -1.01131 -0.238593 0
M  V30 10 C 3.79941 -1.37131 -0.511875 0
M  V30 11 C 4.81161 -0.439036 -0.58513 0
M  V30 12 C 4.49039 0.892719 -0.376968 0
M  V30 13 C 3.16825 1.248 -0.102571 0
M  V30 14 N 2.86044 2.60808 0.106425 0
M  V30 15 H -4.44713 -0.754987 -1.75353 0
M  V30 16 H -5.70471 0.0582695 -0.96677 0
M  V30 17 H -4.39199 0.550101 0.892432 0
M  V30 18 H -2.83475 -1.9898 0.0338163 0
M  V30 19 H -3.3606 -1.46917 1.75229 0
M  V30 20 H -2.12011 0.59463 1.51581 0
M  V30 21 H -2.56963 -0.0903808 -1.47879 0
M  V30 22 H -2.82199 1.5529 -0.604011 0
M  V30 23 H -0.330103 -1.26701 1.19543 0
M  V30 24 H -0.64634 -1.09019 -0.616709 0
M  V30 25 H 1.70157 -1.74236 -0.182686 0
M  V30 26 H 4.04284 -2.39806 -0.671611 0
M  V30 27 H 5.83666 -0.743212 -0.801136 0
M  V30 28 H 5.28949 1.5979 -0.438307 0
M  V30 29 H 2.70068 2.96425 1.07585 0
M  V30 30 H 2.79237 3.25035 -0.688001 0
M  V30 END ATOM
M  V30 BEGIN BOND
M  V30 1 1 1 2
M  V30 2 1 2 3
M  V30 3 1 3 4
M  V30 4 1 4 5
M  V30 5 1 4 6
M  V30 6 1 6 7
M  V30 7 1 7 8
M  V30 8 2 8 9
M  V30 9 1 9 10
M  V30 10 2 10 11
M  V30 11 1 11 12
M  V30 12 2 12 13
M  V30 13 1 13 14
M  V30 14 1 5 2
M  V30 15 1 13 8
M  V30 16 1 1 15
M  V30 17 1 1 16
M  V30 18 1 2 17
M  V30 19 1 3 18
M  V30 20 1 3 19
M  V30 21 1 4 20
M  V30 22 1 5 21
M  V30 23 1 5 22
M  V30 24 1 6 23
M  V30 25 1 6 24
M  V30 26 1 9 25
M  V30 27 1 10 26
M  V30 28 1 11 27
M  V30 29 1 12 28
M  V30 30 1 14 29
M  V30 31 1 14 30
M  V30 END BOND
M  V30 END CTAB
M  END
