
     RDKit          3D

  0  0  0  0  0  0  0  0  0  0999 V3000
M  V30 BEGIN CTAB
M  V30 COUNTS 28 29 0 0 0
M  V30 BEGIN ATOM
M  V30 1 N 4.29067 0.311206 0.447128 0
M  V30 2 C 2.87653 0.228013 0.370828 0
M  V30 3 C 2.11652 0.528043 1.48654 0
M  V30 4 C 0.755005 0.453575 1.43197 0
M  V30 5 C 0.132746 0.0741912 0.248299 0
M  V30 6 C 0.904412 -0.222493 -0.857849 0
M  V30 7 C 2.28227 -0.150778 -0.814876 0
M  V30 8 N 3.11249 -0.447795 -1.93058 0
M  V30 9 F 0.356331 -0.599155 -2.04308 0
M  V30 10 N -1.28373 -0.00869846 0.173367 0
M  V30 11 C -2.08088 0.777122 -0.746707 0
M  V30 12 C -3.40934 0.0198098 -0.75469 0
M  V30 13 C -3.53233 -0.334321 0.712475 0
M  V30 14 C -2.11952 -0.869807 0.985744 0
M  V30 15 H 4.85622 -0.482455 0.805553 0
M  V30 16 H 4.7387 1.19416 0.131663 0
M  V30 17 H 2.57643 0.825609 2.41894 0
M  V30 18 H 0.121488 0.672913 2.25875 0
M  V30 19 H 3.406 -1.43779 -2.05571 0
M  V30 20 H 3.43851 0.245273 -2.61513 0
M  V30 21 H -2.25205 1.75956 -0.272463 0
M  V30 22 H -1.65902 0.838126 -1.7552 0
M  V30 23 H -4.242 0.664636 -1.09789 0
M  V30 24 H -3.35651 -0.880427 -1.39912 0
M  V30 25 H -4.30235 -1.08863 0.908145 0
M  V30 26 H -3.66392 0.604225 1.27229 0
M  V30 27 H -2.11912 -1.92218 0.633626 0
M  V30 28 H -1.94357 -0.751927 2.05797 0
M  V30 END ATOM
M  V30 BEGIN BOND
M  V30 1 1 1 2
M  V30 2 2 2 3
M  V30 3 1 3 4
M  V30 4 2 4 5
M  V30 5 1 5 6
M  V30 6 2 6 7
M  V30 7 1 7 8
M  V30 8 1 6 9
M  V30 9 1 5 10
M  V30 10 1 10 11
M  V30 11 1 11 12
M  V30 12 1 12 13
M  V30 13 1 13 14
M  V30 14 1 7 2
M  V30 15 1 14 10
M  V30 16 1 1 15
M  V30 17 1 1 16
M  V30 18 1 3 17
M  V30 19 1 4 18
M  V30 20 1 8 19
M  V30 21 1 8 20
M  V30 22 1 11 21
M  V30 23 1 11 22
M  V30 24 1 12 23
M  V30 25 1 12 24
M  V30 26 1 13 25
M  V30 27 1 13 26
M  V30 28 1 14 27
M  V30 29 1 14 28
M  V30 END BOND
M  V30 END CTAB
M  END
