
     RDKit          3D

  0  0  0  0  0  0  0  0  0  0999 V3000
M  V30 BEGIN CTAB
M  V30 COUNTS 28 29 0 0 0
M  V30 BEGIN ATOM
M  V30 1 I -4.18781 3.00025 -2.22276 0
M  V30 2 C -3.84015 1.23551 -1.10039 0
M  V30 3 C -4.82201 0.287252 -0.935399 0
M  V30 4 C -4.54586 -0.84908 -0.193092 0
M  V30 5 C -3.30278 -1.05772 0.390192 0
M  V30 6 C -2.35738 -0.0825526 0.1964 0
M  V30 7 C -2.59024 1.05667 -0.53131 0
M  V30 8 C -1.0262 -0.284172 0.808763 0
M  V30 9 O -0.238895 -0.980683 -0.167526 0
M  V30 10 N 1.06725 -1.30945 0.129721 0
M  V30 11 C 2.05978 -0.551673 -0.184355 0
M  V30 12 C 3.42714 -0.922811 0.141272 0
M  V30 13 N 3.85624 -2.02861 0.773619 0
M  V30 14 O 5.16843 -1.98878 0.873919 0
M  V30 15 N 5.62146 -0.897843 0.331316 0
M  V30 16 C 4.55827 -0.189132 -0.147024 0
M  V30 17 N 4.55421 1.05252 -0.81276 0
M  V30 18 N 1.77849 0.666464 -0.863201 0
M  V30 19 H -5.78837 0.427722 -1.37663 0
M  V30 20 H -5.29213 -1.61025 -0.0449495 0
M  V30 21 H -3.13749 -1.96353 0.961357 0
M  V30 22 H -1.82479 1.82821 -0.678079 0
M  V30 23 H -1.06663 -0.842101 1.76473 0
M  V30 24 H -0.507165 0.700644 0.948625 0
M  V30 25 H 4.73934 1.92793 -0.276141 0
M  V30 26 H 4.37378 1.16198 -1.83502 0
M  V30 27 H 1.9192 1.6058 -0.464396 0
M  V30 28 H 1.40432 0.60744 -1.83043 0
M  V30 END ATOM
M  V30 BEGIN BOND
M  V30 1 1 1 2
M  V30 2 2 2 3
M  V30 3 1 3 4
M  V30 4 2 4 5
M  V30 5 1 5 6
M  V30 6 2 6 7
M  V30 7 1 6 8
M  V30 8 1 8 9
M  V30 9 1 9 10
M  V30 10 2 10 11
M  V30 11 1 11 12
M  V30 12 2 12 13
M  V30 13 1 13 14
M  V30 14 1 14 15
M  V30 15 2 15 16
M  V30 16 1 16 17
M  V30 17 1 11 18
M  V30 18 1 7 2
M  V30 19 1 16 12
M  V30 20 1 3 19
M  V30 21 1 4 20
M  V30 22 1 5 21
M  V30 23 1 7 22
M  V30 24 1 8 23
M  V30 25 1 8 24
M  V30 26 1 17 25
M  V30 27 1 17 26
M  V30 28 1 18 27
M  V30 29 1 18 28
M  V30 END BOND
M  V30 END CTAB
M  END
