
     RDKit          3D

  0  0  0  0  0  0  0  0  0  0999 V3000
M  V30 BEGIN CTAB
M  V30 COUNTS 57 61 0 0 0
M  V30 BEGIN ATOM
M  V30 1 F -10.0682 -1.1135 -0.375673 0
M  V30 2 C -8.72473 -1.00353 -0.28508 0
M  V30 3 C -7.85154 -1.41322 -1.26591 0
M  V30 4 C -6.49 -1.267 -1.09897 0
M  V30 5 C -5.9561 -0.716887 0.0312896 0
M  V30 6 C -6.82423 -0.304739 1.01687 0
M  V30 7 C -8.19992 -0.44363 0.867312 0
M  V30 8 C -4.49622 -0.530699 0.267773 0
M  V30 9 C -4.00492 0.786891 -0.208193 0
M  V30 10 N -2.59964 0.943476 0.0372729 0
M  V30 11 C -1.62353 0.117129 -0.548157 0
M  V30 12 O -1.99611 -0.796942 -1.33065 0
M  V30 13 C -0.196543 0.259704 -0.298926 0
M  V30 14 C 0.788652 -0.555284 -0.874659 0
M  V30 15 N 0.521561 -1.63601 -1.78447 0
M  V30 16 N 1.96924 -0.137424 -0.422678 0
M  V30 17 C 1.8223 0.901304 0.41424 0
M  V30 18 C 0.475507 1.1626 0.502941 0
M  V30 19 N 0.0521644 2.17536 1.29297 0
M  V30 20 C 0.932216 2.91185 1.97798 0
M  V30 21 C 0.550405 3.95711 2.79849 0
M  V30 22 C 1.49068 4.69305 3.48867 0
M  V30 23 C 2.84301 4.40032 3.37473 0
M  V30 24 C 3.24068 3.36241 2.56172 0
M  V30 25 C 2.27604 2.62779 1.87036 0
M  V30 26 N 2.75247 1.63836 1.10438 0
M  V30 27 C 3.22398 -0.706361 -0.771858 0
M  V30 28 C 3.61342 -0.747633 -2.09008 0
M  V30 29 C 4.82946 -1.29783 -2.43923 0
M  V30 30 C 5.69446 -1.82237 -1.49687 0
M  V30 31 C 5.27022 -1.76338 -0.186383 0
M  V30 32 C 4.05917 -1.2184 0.187799 0
M  V30 33 S 7.23102 -2.52522 -1.86984 0
M  V30 34 O 7.81762 -1.76354 -3.03013 0
M  V30 35 O 8.16163 -2.29856 -0.691977 0
M  V30 36 N 7.15744 -4.20442 -2.17376 0
M  V30 37 H -8.27618 -1.85354 -2.17088 0
M  V30 38 H -5.83226 -1.59792 -1.88601 0
M  V30 39 H -6.4842 0.1406 1.94195 0
M  V30 40 H -8.86404 -0.114243 1.65173 0
M  V30 41 H -4.35064 -0.546013 1.38837 0
M  V30 42 H -3.9364 -1.36256 -0.151749 0
M  V30 43 H -4.58778 1.59929 0.287763 0
M  V30 44 H -4.16397 0.907971 -1.30471 0
M  V30 45 H -2.29948 1.72852 0.697089 0
M  V30 46 H 0.306808 -1.43074 -2.77416 0
M  V30 47 H 0.539531 -2.61963 -1.46938 0
M  V30 48 H -0.50253 4.16018 2.86685 0
M  V30 49 H 1.20358 5.5128 4.1333 0
M  V30 50 H 3.54488 5.0036 3.93408 0
M  V30 51 H 4.29513 3.13251 2.47153 0
M  V30 52 H 2.9666 -0.344615 -2.89106 0
M  V30 53 H 5.17317 -1.34819 -3.47801 0
M  V30 54 H 5.89009 -2.15493 0.628882 0
M  V30 55 H 3.75892 -1.19196 1.25223 0
M  V30 56 H 6.17897 -4.53255 -2.20403 0
M  V30 57 H 7.69818 -4.75935 -1.47506 0
M  V30 END ATOM
M  V30 BEGIN BOND
M  V30 1 1 1 2
M  V30 2 2 2 3
M  V30 3 1 3 4
M  V30 4 2 4 5
M  V30 5 1 5 6
M  V30 6 2 6 7
M  V30 7 1 5 8
M  V30 8 1 8 9
M  V30 9 1 9 10
M  V30 10 1 10 11
M  V30 11 2 11 12
M  V30 12 1 11 13
M  V30 13 2 13 14
M  V30 14 1 14 15
M  V30 15 1 14 16
M  V30 16 1 16 17
M  V30 17 2 17 18
M  V30 18 1 18 19
M  V30 19 2 19 20
M  V30 20 1 20 21
M  V30 21 2 21 22
M  V30 22 1 22 23
M  V30 23 2 23 24
M  V30 24 1 24 25
M  V30 25 2 25 26
M  V30 26 1 16 27
M  V30 27 2 27 28
M  V30 28 1 28 29
M  V30 29 2 29 30
M  V30 30 1 30 31
M  V30 31 2 31 32
M  V30 32 1 30 33
M  V30 33 2 33 34
M  V30 34 2 33 35
M  V30 35 1 33 36
M  V30 36 1 7 2
M  V30 37 1 18 13
M  V30 38 1 25 20
M  V30 39 1 32 27
M  V30 40 1 26 17
M  V30 41 1 3 37
M  V30 42 1 4 38
M  V30 43 1 6 39
M  V30 44 1 7 40
M  V30 45 1 8 41
M  V30 46 1 8 42
M  V30 47 1 9 43
M  V30 48 1 9 44
M  V30 49 1 10 45
M  V30 50 1 15 46
M  V30 51 1 15 47
M  V30 52 1 21 48
M  V30 53 1 22 49
M  V30 54 1 23 50
M  V30 55 1 24 51
M  V30 56 1 28 52
M  V30 57 1 29 53
M  V30 58 1 31 54
M  V30 59 1 32 55
M  V30 60 1 36 56
M  V30 61 1 36 57
M  V30 END BOND
M  V30 END CTAB
M  END
