
     RDKit          3D

  0  0  0  0  0  0  0  0  0  0999 V3000
M  V30 BEGIN CTAB
M  V30 COUNTS 39 39 0 0 0
M  V30 BEGIN ATOM
M  V30 1 N -3.82621 -1.27376 0.439807 0
M  V30 2 C -2.41545 -1.33975 0.559593 0
M  V30 3 C -1.63889 -0.275073 -0.178261 0
M  V30 4 C -1.97206 1.1202 0.268978 0
M  V30 5 C -1.68005 1.33165 1.74357 0
M  V30 6 C -3.43425 1.43823 0.0498199 0
M  V30 7 N -0.24023 -0.599568 0.020958 0
M  V30 8 C 0.657589 0.320341 -0.579273 0
M  V30 9 C 2.058 -0.0987817 -0.319158 0
M  V30 10 C 2.36208 -1.20353 0.447827 0
M  V30 11 C 3.69139 -1.5778 0.677033 0
M  V30 12 C 4.71704 -0.839049 0.13352 0
M  V30 13 C 4.44757 0.271994 -0.638652 0
M  V30 14 C 3.12504 0.603929 -0.838372 0
M  V30 15 N 5.51803 1.02681 -1.19407 0
M  V30 16 C -1.9871 -0.379004 -1.65289 0
M  V30 17 H -4.22224 -2.04899 -0.127222 0
M  V30 18 H -4.23606 -1.36644 1.41659 0
M  V30 19 H -2.07908 -2.31881 0.114028 0
M  V30 20 H -2.04128 -1.35543 1.60065 0
M  V30 21 H -1.3926 1.88613 -0.268925 0
M  V30 22 H -1.65708 2.43535 1.90211 0
M  V30 23 H -2.46101 0.931935 2.39586 0
M  V30 24 H -0.694009 0.916962 1.96949 0
M  V30 25 H -3.85379 0.961452 -0.854681 0
M  V30 26 H -3.5278 2.53864 -0.138034 0
M  V30 27 H -4.02583 1.24503 0.968955 0
M  V30 28 H -0.071507 -1.59792 -0.23784 0
M  V30 29 H 0.551818 0.402099 -1.67858 0
M  V30 30 H 0.542526 1.30391 -0.0726697 0
M  V30 31 H 1.5969 -1.81187 0.894852 0
M  V30 32 H 3.92069 -2.45846 1.28879 0
M  V30 33 H 5.77141 -1.11175 0.29835 0
M  V30 34 H 2.91049 1.47902 -1.44632 0
M  V30 35 H 6.43206 0.614774 -1.36388 0
M  V30 36 H 5.35163 2.0258 -1.42921 0
M  V30 37 H -3.04117 -0.686512 -1.75261 0
M  V30 38 H -1.32845 -1.12796 -2.13394 0
M  V30 39 H -1.82811 0.616213 -2.1295 0
M  V30 END ATOM
M  V30 BEGIN BOND
M  V30 1 1 1 2
M  V30 2 1 2 3
M  V30 3 1 3 4
M  V30 4 1 4 5
M  V30 5 1 4 6
M  V30 6 1 3 7
M  V30 7 1 7 8
M  V30 8 1 8 9
M  V30 9 2 9 10
M  V30 10 1 10 11
M  V30 11 2 11 12
M  V30 12 1 12 13
M  V30 13 2 13 14
M  V30 14 1 13 15
M  V30 15 1 3 16
M  V30 16 1 14 9
M  V30 17 1 1 17
M  V30 18 1 1 18
M  V30 19 1 2 19
M  V30 20 1 2 20
M  V30 21 1 4 21
M  V30 22 1 5 22
M  V30 23 1 5 23
M  V30 24 1 5 24
M  V30 25 1 6 25
M  V30 26 1 6 26
M  V30 27 1 6 27
M  V30 28 1 7 28
M  V30 29 1 8 29
M  V30 30 1 8 30
M  V30 31 1 10 31
M  V30 32 1 11 32
M  V30 33 1 12 33
M  V30 34 1 14 34
M  V30 35 1 15 35
M  V30 36 1 15 36
M  V30 37 1 16 37
M  V30 38 1 16 38
M  V30 39 1 16 39
M  V30 END BOND
M  V30 END CTAB
M  END
