
     RDKit          3D

  0  0  0  0  0  0  0  0  0  0999 V3000
M  V30 BEGIN CTAB
M  V30 COUNTS 29 30 0 0 0
M  V30 BEGIN ATOM
M  V30 1 N 4.65618 0.272286 0.444666 0
M  V30 2 C 3.36678 0.887719 0.68944 0
M  V30 3 C 2.46652 0.535562 -0.470032 0
M  V30 4 C 2.15063 -0.957042 -0.424815 0
M  V30 5 C 0.898599 -1.01118 -1.2797 0
M  V30 6 C 0.330034 0.359456 -1.10697 0
M  V30 7 O 1.19652 1.09136 -0.314649 0
M  V30 8 C -1.0448 0.29218 -0.542353 0
M  V30 9 N -1.86676 -0.772599 -0.426533 0
M  V30 10 N -3.00783 -0.436461 0.126926 0
M  V30 11 C -2.93238 0.885138 0.381182 0
M  V30 12 N -1.73385 1.33166 -0.0270952 0
M  V30 13 N -3.97102 1.63981 0.982096 0
M  V30 14 C -4.14916 -1.3042 0.419928 0
M  V30 15 H 5.35483 0.460608 1.17811 0
M  V30 16 H 4.49058 -0.748275 0.312702 0
M  V30 17 H 2.9311 0.4762 1.62586 0
M  V30 18 H 3.50513 1.98385 0.733025 0
M  V30 19 H 2.94152 0.778735 -1.42128 0
M  V30 20 H 1.87051 -1.26107 0.600489 0
M  V30 21 H 2.96577 -1.56589 -0.81403 0
M  V30 22 H 0.212557 -1.81895 -0.95474 0
M  V30 23 H 1.15106 -1.22109 -2.35379 0
M  V30 24 H 0.252014 0.902193 -2.08982 0
M  V30 25 H -4.06955 1.59248 2.01501 0
M  V30 26 H -4.62032 2.22526 0.424761 0
M  V30 27 H -5.09162 -0.760615 0.223653 0
M  V30 28 H -4.11696 -1.65521 1.48263 0
M  V30 29 H -4.1361 -2.20191 -0.241729 0
M  V30 END ATOM
M  V30 BEGIN BOND
M  V30 1 1 1 2
M  V30 2 1 2 3
M  V30 3 1 3 4
M  V30 4 1 4 5
M  V30 5 1 5 6
M  V30 6 1 6 7
M  V30 7 1 6 8
M  V30 8 2 8 9
M  V30 9 1 9 10
M  V30 10 1 10 11
M  V30 11 2 11 12
M  V30 12 1 11 13
M  V30 13 1 10 14
M  V30 14 1 7 3
M  V30 15 1 12 8
M  V30 16 1 1 15
M  V30 17 1 1 16
M  V30 18 1 2 17
M  V30 19 1 2 18
M  V30 20 1 3 19
M  V30 21 1 4 20
M  V30 22 1 4 21
M  V30 23 1 5 22
M  V30 24 1 5 23
M  V30 25 1 6 24
M  V30 26 1 13 25
M  V30 27 1 13 26
M  V30 28 1 14 27
M  V30 29 1 14 28
M  V30 30 1 14 29
M  V30 END BOND
M  V30 END CTAB
M  END
