
     RDKit          3D

  0  0  0  0  0  0  0  0  0  0999 V3000
M  V30 BEGIN CTAB
M  V30 COUNTS 26 26 0 0 0
M  V30 BEGIN ATOM
M  V30 1 N -3.1265 2.05877 -0.598522 0
M  V30 2 N -2.32091 1.36791 0.27877 0
M  V30 3 C -2.12684 0.101135 0.278744 0
M  V30 4 C -1.22191 -0.4547 1.30652 0
M  V30 5 C -0.0360444 -1.16865 0.686067 0
M  V30 6 C 0.773228 -0.201238 -0.176889 0
M  V30 7 C 1.9283 -0.938714 -0.768537 0
M  V30 8 C 3.05719 0.0466653 -0.643185 0
M  V30 9 C 2.57193 1.00556 0.385609 0
M  V30 10 O 1.23478 0.837031 0.578076 0
M  V30 11 N -2.7492 -0.747129 -0.66448 0
M  V30 12 H -2.74853 2.88884 -1.10433 0
M  V30 13 H -4.10605 1.73369 -0.739219 0
M  V30 14 H -1.80345 -1.24288 1.84665 0
M  V30 15 H -0.828332 0.30602 1.98157 0
M  V30 16 H -0.331879 -2.05293 0.0927284 0
M  V30 17 H 0.623798 -1.46837 1.53447 0
M  V30 18 H 0.106973 0.112442 -1.01308 0
M  V30 19 H 1.79404 -1.12459 -1.87395 0
M  V30 20 H 2.1546 -1.89201 -0.239283 0
M  V30 21 H 3.24828 0.577798 -1.60998 0
M  V30 22 H 3.96571 -0.512498 -0.32988 0
M  V30 23 H 3.17358 0.877691 1.32985 0
M  V30 24 H 2.79518 2.05108 0.0424041 0
M  V30 25 H -2.36752 -1.6753 -0.952152 0
M  V30 26 H -3.66042 -0.485627 -1.14642 0
M  V30 END ATOM
M  V30 BEGIN BOND
M  V30 1 1 1 2
M  V30 2 2 2 3 CFG=2
M  V30 3 1 3 4
M  V30 4 1 4 5
M  V30 5 1 5 6
M  V30 6 1 6 7
M  V30 7 1 7 8
M  V30 8 1 8 9
M  V30 9 1 9 10
M  V30 10 1 3 11
M  V30 11 1 10 6
M  V30 12 1 1 12
M  V30 13 1 1 13
M  V30 14 1 4 14
M  V30 15 1 4 15
M  V30 16 1 5 16
M  V30 17 1 5 17
M  V30 18 1 6 18
M  V30 19 1 7 19
M  V30 20 1 7 20
M  V30 21 1 8 21
M  V30 22 1 8 22
M  V30 23 1 9 23
M  V30 24 1 9 24
M  V30 25 1 11 25
M  V30 26 1 11 26
M  V30 END BOND
M  V30 END CTAB
M  END
