
     RDKit          3D

  0  0  0  0  0  0  0  0  0  0999 V3000
M  V30 BEGIN CTAB
M  V30 COUNTS 36 37 0 0 0
M  V30 BEGIN ATOM
M  V30 1 C 5.23862 -1.70718 -0.314473 0
M  V30 2 O 4.8228 -0.390529 -0.346915 0
M  V30 3 C 3.59277 0.146735 -0.11933 0
M  V30 4 C 2.52713 -0.658789 0.20213 0
M  V30 5 C 1.24706 -0.134915 0.442694 0
M  V30 6 C 1.00851 1.21647 0.36513 0
M  V30 7 C 2.10734 2.02156 0.0362505 0
M  V30 8 C 3.36385 1.51435 -0.200605 0
M  V30 9 N 4.42697 2.40008 -0.530401 0 CHG=1
M  V30 10 O 4.38812 3.5771 -0.124023 0
M  V30 11 O 5.46298 1.95309 -1.27876 0 CHG=-1
M  V30 12 C -0.326756 1.84156 0.604045 0
M  V30 13 S -1.2006 1.97923 -0.941387 0
M  V30 14 C -1.6788 0.375002 -1.57536 0
M  V30 15 C -2.73104 -0.2494 -0.730712 0
M  V30 16 N -4.0052 0.0501006 -1.08599 0
M  V30 17 C -5.02505 -0.461706 -0.39186 0
M  V30 18 N -6.3743 -0.14559 -0.768376 0
M  V30 19 N -4.77842 -1.27071 0.655009 0
M  V30 20 C -3.50797 -1.57857 1.02136 0
M  V30 21 N -2.51339 -1.04589 0.300599 0
M  V30 22 N -3.26868 -2.43283 2.12682 0
M  V30 23 H 6.02102 -1.95007 -1.07842 0
M  V30 24 H 4.44212 -2.47122 -0.325415 0
M  V30 25 H 5.77661 -1.86108 0.668789 0
M  V30 26 H 2.67166 -1.72669 0.274065 0
M  V30 27 H 0.448091 -0.794084 0.692745 0
M  V30 28 H 1.9144 3.0868 -0.0236923 0
M  V30 29 H -0.938578 1.2365 1.30469 0
M  V30 30 H -0.120894 2.86142 1.01221 0
M  V30 31 H -2.05108 0.509106 -2.61053 0
M  V30 32 H -0.821016 -0.36014 -1.56554 0
M  V30 33 H -6.67935 0.848537 -0.787959 0
M  V30 34 H -7.04237 -0.892925 -1.01917 0
M  V30 35 H -2.36002 -2.90142 2.25302 0
M  V30 36 H -4.03652 -2.58391 2.82249 0
M  V30 END ATOM
M  V30 BEGIN BOND
M  V30 1 1 1 2
M  V30 2 1 2 3
M  V30 3 2 3 4
M  V30 4 1 4 5
M  V30 5 2 5 6
M  V30 6 1 6 7
M  V30 7 2 7 8
M  V30 8 1 8 9
M  V30 9 2 9 10
M  V30 10 1 9 11
M  V30 11 1 6 12
M  V30 12 1 12 13
M  V30 13 1 13 14
M  V30 14 1 14 15
M  V30 15 2 15 16
M  V30 16 1 16 17
M  V30 17 1 17 18
M  V30 18 2 17 19
M  V30 19 1 19 20
M  V30 20 2 20 21
M  V30 21 1 20 22
M  V30 22 1 8 3
M  V30 23 1 21 15
M  V30 24 1 1 23
M  V30 25 1 1 24
M  V30 26 1 1 25
M  V30 27 1 4 26
M  V30 28 1 5 27
M  V30 29 1 7 28
M  V30 30 1 12 29
M  V30 31 1 12 30
M  V30 32 1 14 31
M  V30 33 1 14 32
M  V30 34 1 18 33
M  V30 35 1 18 34
M  V30 36 1 22 35
M  V30 37 1 22 36
M  V30 END BOND
M  V30 END CTAB
M  END
