
     RDKit          3D

  0  0  0  0  0  0  0  0  0  0999 V3000
M  V30 BEGIN CTAB
M  V30 COUNTS 28 28 0 0 0
M  V30 BEGIN ATOM
M  V30 1 N 4.60809 -0.318131 0.0178535 0
M  V30 2 C 3.70835 0.0159256 1.04232 0
M  V30 3 C 2.34196 -0.0103553 0.469491 0
M  V30 4 C 1.60963 -1.17661 0.493214 0
M  V30 5 C 0.33553 -1.17564 -0.0482567 0
M  V30 6 C -0.232699 -0.0488626 -0.613074 0
M  V30 7 C 0.543364 1.09545 -0.611918 0
M  V30 8 C 1.80585 1.12979 -0.085519 0
M  V30 9 C -1.5735 -0.138029 -1.157 0
M  V30 10 C -2.72294 0.188724 -0.297522 0 CFG=2
M  V30 11 C -2.85074 -0.650782 0.905234 0
M  V30 12 O -1.98411 -0.535796 1.81872 0
M  V30 13 O -3.89013 -1.56216 1.06721 0
M  V30 14 N -3.93013 -0.0566737 -1.11693 0
M  V30 15 H 5.37856 -0.86429 0.144327 0
M  V30 16 H 4.5422 0.258163 -0.773458 0
M  V30 17 H 3.99323 1.02471 1.41586 0
M  V30 18 H 3.77564 -0.700424 1.89646 0
M  V30 19 H 2.03105 -2.06229 0.926449 0
M  V30 20 H -0.211489 -2.1288 -0.00700717 0
M  V30 21 H 0.128541 1.98597 -1.04376 0
M  V30 22 H 2.38644 2.06382 -0.107026 0
M  V30 23 H -1.72659 -1.20226 -1.51394 0
M  V30 24 H -1.57547 0.43984 -2.12356 0
M  V30 25 H -2.80522 1.24155 0.0189047 0
M  V30 26 H -4.84755 -1.238 1.08692 0
M  V30 27 H -4.73206 0.464483 -0.689974 0
M  V30 28 H -4.10579 -1.0767 -1.11403 0
M  V30 END ATOM
M  V30 BEGIN BOND
M  V30 1 1 1 2
M  V30 2 1 2 3
M  V30 3 2 3 4
M  V30 4 1 4 5
M  V30 5 2 5 6
M  V30 6 1 6 7
M  V30 7 2 7 8
M  V30 8 1 6 9
M  V30 9 1 9 10
M  V30 10 1 10 11
M  V30 11 2 11 12
M  V30 12 1 11 13
M  V30 13 1 10 14
M  V30 14 1 8 3
M  V30 15 1 1 15
M  V30 16 1 1 16
M  V30 17 1 2 17
M  V30 18 1 2 18
M  V30 19 1 4 19
M  V30 20 1 5 20
M  V30 21 1 7 21
M  V30 22 1 8 22
M  V30 23 1 9 23
M  V30 24 1 9 24
M  V30 25 1 10 25 CFG=1
M  V30 26 1 13 26
M  V30 27 1 14 27
M  V30 28 1 14 28
M  V30 END BOND
M  V30 END CTAB
M  END
