
     RDKit          3D

  0  0  0  0  0  0  0  0  0  0999 V3000
M  V30 BEGIN CTAB
M  V30 COUNTS 29 30 0 0 0
M  V30 BEGIN ATOM
M  V30 1 Cl 6.23558 0.370763 -0.520772 0
M  V30 2 C 4.54663 0.267311 -0.0974542 0
M  V30 3 C 3.91622 -0.963712 -0.0251249 0
M  V30 4 C 2.58056 -1.09266 0.303267 0
M  V30 5 C 1.82841 0.0429057 0.574137 0
M  V30 6 C 2.43903 1.26461 0.508635 0
M  V30 7 C 3.78893 1.39247 0.176407 0
M  V30 8 Cl 1.59681 2.73255 0.8918 0
M  V30 9 C 0.379325 -0.0814163 0.853594 0
M  V30 10 C -0.387345 0.0553452 -0.436638 0
M  V30 11 N -1.81335 -0.041864 -0.202811 0
M  V30 12 N -2.59098 0.794703 0.484285 0
M  V30 13 C -3.86733 0.373373 0.472649 0
M  V30 14 N -3.87512 -0.761228 -0.24657 0
M  V30 15 C -2.61065 -1.03564 -0.674667 0
M  V30 16 N -2.19474 -2.14279 -1.46303 0
M  V30 17 N -5.00627 0.982085 1.08926 0
M  V30 18 O -0.096566 1.25866 -1.05109 0
M  V30 19 H 4.50396 -1.86211 -0.239762 0
M  V30 20 H 2.14287 -2.0764 0.345812 0
M  V30 21 H 4.25574 2.35127 0.126492 0
M  V30 22 H 0.102484 -0.997855 1.38648 0
M  V30 23 H 0.0716624 0.818899 1.47142 0
M  V30 24 H -0.104824 -0.753724 -1.16054 0
M  V30 25 H -1.40823 -1.99368 -2.1243 0
M  V30 26 H -2.64166 -3.05415 -1.39435 0
M  V30 27 H -5.41892 0.626317 1.97854 0
M  V30 28 H -5.42457 1.81424 0.61727 0
M  V30 29 H -0.947649 1.71173 -1.26573 0
M  V30 END ATOM
M  V30 BEGIN BOND
M  V30 1 1 1 2
M  V30 2 2 2 3
M  V30 3 1 3 4
M  V30 4 2 4 5
M  V30 5 1 5 6
M  V30 6 2 6 7
M  V30 7 1 6 8
M  V30 8 1 5 9
M  V30 9 1 9 10
M  V30 10 1 10 11
M  V30 11 1 11 12
M  V30 12 2 12 13
M  V30 13 1 13 14
M  V30 14 2 14 15
M  V30 15 1 15 16
M  V30 16 1 13 17
M  V30 17 1 10 18
M  V30 18 1 7 2
M  V30 19 1 15 11
M  V30 20 1 3 19
M  V30 21 1 4 20
M  V30 22 1 7 21
M  V30 23 1 9 22
M  V30 24 1 9 23
M  V30 25 1 10 24
M  V30 26 1 16 25
M  V30 27 1 16 26
M  V30 28 1 17 27
M  V30 29 1 17 28
M  V30 30 1 18 29
M  V30 END BOND
M  V30 END CTAB
M  END
