
     RDKit          3D

  0  0  0  0  0  0  0  0  0  0999 V3000
M  V30 BEGIN CTAB
M  V30 COUNTS 42 45 0 0 0
M  V30 BEGIN ATOM
M  V30 1 N 6.0607 -2.21773 0.885859 0
M  V30 2 C 4.7931 -1.57516 0.819111 0
M  V30 3 N 4.56068 -0.641354 -0.119161 0
M  V30 4 C 3.38115 0.00140702 -0.232155 0
M  V30 5 C 3.16988 0.962914 -1.21291 0
M  V30 6 C 1.95624 1.6088 -1.31163 0
M  V30 7 C 0.935378 1.31399 -0.443552 0
M  V30 8 C 1.14924 0.363312 0.523594 0
M  V30 9 C 2.37286 -0.300102 0.636972 0
M  V30 10 C 2.59816 -1.25517 1.6031 0
M  V30 11 N 1.57191 -1.58174 2.51003 0
M  V30 12 N 3.79282 -1.86478 1.67057 0
M  V30 13 S -0.614039 2.13231 -0.560925 0
M  V30 14 O -0.362081 3.55215 -1.06143 0
M  V30 15 C -1.75897 1.34847 -1.61282 0
M  V30 16 C -2.62165 0.418146 -1.10802 0
M  V30 17 C -3.53281 -0.222385 -1.94861 0
M  V30 18 C -3.58484 0.0647787 -3.29421 0
M  V30 19 C -2.71432 1.00528 -3.80796 0
M  V30 20 C -1.80517 1.64443 -2.97058 0
M  V30 21 C -2.61371 0.0915974 0.305344 0
M  V30 22 C -2.56729 -1.2816 0.588439 0
M  V30 23 C -2.5631 -1.76323 1.8781 0
M  V30 24 C -2.6067 -0.843598 2.91914 0
M  V30 25 C -2.6523 0.504883 2.62623 0
M  V30 26 C -2.65655 0.985267 1.331 0
M  V30 27 H 6.94595 -1.72211 0.657313 0
M  V30 28 H 6.12884 -3.21578 1.17019 0
M  V30 29 H 4.00448 1.16024 -1.87302 0
M  V30 30 H 1.84109 2.36278 -2.10711 0
M  V30 31 H 0.389657 0.0831038 1.23935 0
M  V30 32 H 1.05204 -0.830192 2.98427 0
M  V30 33 H 1.34295 -2.56759 2.69762 0
M  V30 34 H -4.23168 -0.969764 -1.56694 0
M  V30 35 H -4.28716 -0.425697 -3.95521 0
M  V30 36 H -2.71922 1.26418 -4.86297 0
M  V30 37 H -1.10766 2.38637 -3.33557 0
M  V30 38 H -2.53253 -2.0226 -0.213493 0
M  V30 39 H -2.52713 -2.82477 2.08792 0
M  V30 40 H -2.60275 -1.23535 3.92813 0
M  V30 41 H -2.6863 1.2253 3.42495 0
M  V30 42 H -2.69917 2.0387 1.11106 0
M  V30 END ATOM
M  V30 BEGIN BOND
M  V30 1 1 1 2
M  V30 2 2 2 3
M  V30 3 1 3 4
M  V30 4 2 4 5
M  V30 5 1 5 6
M  V30 6 2 6 7
M  V30 7 1 7 8
M  V30 8 2 8 9
M  V30 9 1 9 10
M  V30 10 1 10 11
M  V30 11 2 10 12
M  V30 12 1 7 13
M  V30 13 2 13 14
M  V30 14 1 13 15
M  V30 15 1 15 16
M  V30 16 2 16 17
M  V30 17 1 17 18
M  V30 18 2 18 19
M  V30 19 1 19 20
M  V30 20 1 16 21
M  V30 21 2 21 22
M  V30 22 1 22 23
M  V30 23 2 23 24
M  V30 24 1 24 25
M  V30 25 2 25 26
M  V30 26 1 12 2
M  V30 27 2 20 15
M  V30 28 1 26 21
M  V30 29 1 9 4
M  V30 30 1 1 27
M  V30 31 1 1 28
M  V30 32 1 5 29
M  V30 33 1 6 30
M  V30 34 1 8 31
M  V30 35 1 11 32
M  V30 36 1 11 33
M  V30 37 1 17 34
M  V30 38 1 18 35
M  V30 39 1 19 36
M  V30 40 1 20 37
M  V30 41 1 22 38
M  V30 42 1 23 39
M  V30 43 1 24 40
M  V30 44 1 25 41
M  V30 45 1 26 42
M  V30 END BOND
M  V30 END CTAB
M  END
