
     RDKit          3D

  0  0  0  0  0  0  0  0  0  0999 V3000
M  V30 BEGIN CTAB
M  V30 COUNTS 144 148 0 0 0
M  V30 BEGIN ATOM
M  V30 1 C 1.9369 5.11989 -0.209025 0
M  V30 2 C 1.65264 3.71302 0.244777 0
M  V30 3 C 1.21802 2.84448 -0.910632 0 CFG=2
M  V30 4 C -0.0443724 3.35697 -1.54432 0
M  V30 5 C 1.0722 1.38791 -0.42245 0 CFG=2
M  V30 6 N 0.110145 1.37138 0.651078 0
M  V30 7 C -1.22252 1.01219 0.557302 0
M  V30 8 O -1.71544 0.681302 -0.531331 0
M  V30 9 C -2.08776 1.02212 1.79027 0 CFG=2
M  V30 10 C -1.59813 -0.135727 2.68981 0
M  V30 11 C -1.7525 -1.41413 2.01365 0
M  V30 12 C -0.779785 -1.93664 1.20233 0
M  V30 13 C -1.02178 -3.15746 0.544844 0
M  V30 14 C -2.20456 -3.82937 0.697577 0
M  V30 15 O -2.52251 -5.03008 0.0729434 0
M  V30 16 C -3.22859 -3.30778 1.53852 0
M  V30 17 C -2.91945 -2.1194 2.14224 0
M  V30 18 N -3.48198 0.929916 1.56345 0
M  V30 19 C -4.40198 1.97706 1.93319 0
M  V30 20 O -3.88888 3.01722 2.43158 0
M  V30 21 C -5.86759 1.91602 1.78358 0 CFG=2
M  V30 22 C -6.43903 2.57849 3.0302 0
M  V30 23 C -6.50888 1.47635 4.0622 0
M  V30 24 C -6.07241 0.203381 3.34482 0
M  V30 25 N -6.33256 0.54624 1.91235 0
M  V30 26 C -7.02473 -0.277349 1.05327 0
M  V30 27 O -7.10314 -1.52625 1.33462 0
M  V30 28 C -7.69902 0.164564 -0.162984 0 CFG=2
M  V30 29 C -9.16531 0.641495 0.200521 0
M  V30 30 C -9.89732 -0.494347 0.783546 0
M  V30 31 C -11.3145 -0.176155 1.14053 0
M  V30 32 N -12.1575 0.224059 0.0828053 0
M  V30 33 C -12.1365 1.46126 -0.621612 0
M  V30 34 N -12.0207 2.65876 0.13482 0
M  V30 35 N -12.2467 1.5207 -1.88414 0
M  V30 36 N -7.96775 -0.894173 -1.1392 0
M  V30 37 C -7.96124 -0.41296 -2.48751 0
M  V30 38 O -7.73305 0.845558 -2.67981 0
M  V30 39 C -8.20229 -1.21498 -3.67799 0 CFG=1
M  V30 40 N -7.68294 -2.53534 -3.55126 0
M  V30 41 C -9.73381 -1.21741 -3.90019 0
M  V30 42 C -10.0795 -1.98067 -5.06439 0
M  V30 43 O -10.2483 -1.51732 -6.33082 0
M  V30 44 O -10.2663 -3.26129 -4.88652 0
M  V30 45 C 2.43555 0.966139 0.109524 0
M  V30 46 O 2.50706 0.873385 1.33395 0
M  V30 47 N 3.48406 0.711918 -0.766039 0
M  V30 48 C 4.85018 0.323936 -0.577088 0 CFG=1
M  V30 49 C 5.2746 0.254757 0.850175 0
M  V30 50 C 5.36701 1.54372 1.56711 0
M  V30 51 C 5.57913 1.64863 2.91976 0
M  V30 52 N 5.69077 2.95913 3.22957 0
M  V30 53 C 5.5582 3.68116 2.10954 0
M  V30 54 N 5.35836 2.78663 1.09794 0
M  V30 55 C 5.28347 -0.841171 -1.33742 0
M  V30 56 O 4.36461 -1.45134 -1.97912 0
M  V30 57 N 6.57948 -1.34457 -1.42043 0
M  V30 58 C 6.88458 -2.64194 -2.07034 0
M  V30 59 C 8.1584 -3.1164 -1.37706 0
M  V30 60 C 8.27034 -2.13428 -0.190599 0
M  V30 61 C 7.83405 -0.852418 -0.963135 0 CFG=1
M  V30 62 C 8.87311 -0.70881 -2.08518 0
M  V30 63 O 8.48946 -0.921329 -3.24119 0
M  V30 64 N 10.1803 -0.338452 -1.6932 0
M  V30 65 C 11.4169 0.0112051 -1.32904 0 CFG=1
M  V30 66 C 12.4612 -0.983642 -0.984912 0
M  V30 67 C 12.2606 -1.87268 0.148147 0
M  V30 68 C 12.4177 -1.40442 1.46145 0
M  V30 69 C 12.2932 -2.30615 2.51887 0
M  V30 70 C 12.0312 -3.58155 2.27632 0
M  V30 71 C 11.8612 -4.11109 1.00108 0
M  V30 72 C 11.9848 -3.2059 -0.035397 0
M  V30 73 C 12.0767 0.994129 -2.28752 0
M  V30 74 O 13.3829 1.40172 -1.87968 0
M  V30 75 O 11.6265 1.45929 -3.32062 0
M  V30 76 H 1.42346 5.32405 -1.16044 0
M  V30 77 H 3.03274 5.29827 -0.435366 0
M  V30 78 H 1.67135 5.85923 0.60963 0
M  V30 79 H 2.43827 3.26975 0.845363 0
M  V30 80 H 0.738522 3.79653 0.920273 0
M  V30 81 H 2.01577 2.80514 -1.64605 0
M  V30 82 H -0.792862 3.66083 -0.773768 0
M  V30 83 H -0.477934 2.65334 -2.29786 0
M  V30 84 H 0.11465 4.3033 -2.13495 0
M  V30 85 H 0.798838 0.792057 -1.25937 0
M  V30 86 H 0.477713 1.66205 1.59669 0
M  V30 87 H -1.82025 1.94343 2.31731 0
M  V30 88 H -0.536697 0.063482 2.90288 0
M  V30 89 H -2.17138 -0.1432 3.60783 0
M  V30 90 H 0.16973 -1.50077 1.04555 0
M  V30 91 H -0.296278 -3.58185 -0.101858 0
M  V30 92 H -2.27713 -5.88589 0.599273 0
M  V30 93 H -4.17205 -3.81001 1.67014 0
M  V30 94 H -3.68715 -1.7055 2.79806 0
M  V30 95 H -3.91165 0.106429 1.10619 0
M  V30 96 H -6.17995 2.3702 0.858767 0
M  V30 97 H -7.41343 3.05408 2.82299 0
M  V30 98 H -5.7444 3.33014 3.41655 0
M  V30 99 H -5.81719 1.64297 4.90594 0
M  V30 100 H -7.53548 1.39308 4.45488 0
M  V30 101 H -6.61849 -0.672235 3.66526 0
M  V30 102 H -4.98719 0.112585 3.43451 0
M  V30 103 H -7.2081 0.99276 -0.656325 0
M  V30 104 H -9.57292 0.88434 -0.804765 0
M  V30 105 H -9.07447 1.53875 0.776052 0
M  V30 106 H -9.94047 -1.3546 0.0612992 0
M  V30 107 H -9.35583 -0.866326 1.71306 0
M  V30 108 H -11.7666 -1.05324 1.6846 0
M  V30 109 H -11.3224 0.6331 1.93944 0
M  V30 110 H -12.8875 -0.480503 -0.231529 0
M  V30 111 H -12.441 3.53004 -0.19743 0
M  V30 112 H -11.4934 2.61737 1.03607 0
M  V30 113 H -12.3692 0.701907 -2.52553 0
M  V30 114 H -8.1564 -1.86236 -0.868462 0
M  V30 115 H -7.80144 -0.739348 -4.60852 0
M  V30 116 H -7.10909 -2.69304 -2.66031 0
M  V30 117 H -6.99758 -2.74981 -4.34569 0
M  V30 118 H -10.1195 -0.181103 -3.92756 0
M  V30 119 H -10.1354 -1.63405 -2.93639 0
M  V30 120 H -9.86226 -0.596106 -6.59429 0
M  V30 121 H 3.24218 0.78894 -1.83104 0
M  V30 122 H 5.43775 1.22193 -1.01682 0
M  V30 123 H 4.48885 -0.331416 1.4417 0
M  V30 124 H 6.17174 -0.354522 1.05151 0
M  V30 125 H 5.65465 0.878149 3.69204 0
M  V30 126 H 5.5908 4.74125 1.93746 0
M  V30 127 H 5.21609 3.03825 0.112938 0
M  V30 128 H 6.06691 -3.32739 -1.73584 0
M  V30 129 H 6.91084 -2.61122 -3.13639 0
M  V30 130 H 8.06093 -4.13962 -1.01248 0
M  V30 131 H 9.05873 -2.97349 -1.97371 0
M  V30 132 H 9.25252 -1.99107 0.190156 0
M  V30 133 H 7.49048 -2.29575 0.566828 0
M  V30 134 H 7.82528 0.0297799 -0.379458 0
M  V30 135 H 10.5951 -0.610622 -2.9609 0
M  V30 136 H 11.2947 0.724477 -0.355474 0
M  V30 137 H 13.4908 -0.544738 -0.877081 0
M  V30 138 H 12.5831 -1.66731 -1.89969 0
M  V30 139 H 12.5903 -0.36838 1.59772 0
M  V30 140 H 12.424 -1.90503 3.5234 0
M  V30 141 H 11.9607 -4.26131 3.13312 0
M  V30 142 H 11.6642 -5.14856 0.88165 0
M  V30 143 H 11.8482 -3.57821 -1.06682 0
M  V30 144 H 14.159 1.30909 -2.52302 0
M  V30 END ATOM
M  V30 BEGIN BOND
M  V30 1 1 1 2
M  V30 2 1 2 3
M  V30 3 1 3 4
M  V30 4 1 3 5
M  V30 5 1 5 6
M  V30 6 1 6 7
M  V30 7 2 7 8
M  V30 8 1 7 9
M  V30 9 1 9 10
M  V30 10 1 10 11
M  V30 11 2 11 12
M  V30 12 1 12 13
M  V30 13 2 13 14
M  V30 14 1 14 15
M  V30 15 1 14 16
M  V30 16 2 16 17
M  V30 17 1 9 18
M  V30 18 1 18 19
M  V30 19 2 19 20
M  V30 20 1 19 21
M  V30 21 1 21 22
M  V30 22 1 22 23
M  V30 23 1 23 24
M  V30 24 1 24 25
M  V30 25 1 25 26
M  V30 26 2 26 27
M  V30 27 1 26 28
M  V30 28 1 28 29
M  V30 29 1 29 30
M  V30 30 1 30 31
M  V30 31 1 31 32
M  V30 32 1 32 33
M  V30 33 1 33 34
M  V30 34 2 33 35 CFG=2
M  V30 35 1 28 36
M  V30 36 1 36 37
M  V30 37 2 37 38
M  V30 38 1 37 39
M  V30 39 1 39 40
M  V30 40 1 39 41
M  V30 41 1 41 42
M  V30 42 1 42 43
M  V30 43 2 42 44
M  V30 44 1 5 45
M  V30 45 2 45 46
M  V30 46 1 45 47
M  V30 47 1 47 48
M  V30 48 1 48 49
M  V30 49 1 49 50
M  V30 50 2 50 51
M  V30 51 1 51 52
M  V30 52 2 52 53
M  V30 53 1 53 54
M  V30 54 1 48 55
M  V30 55 2 55 56
M  V30 56 1 55 57
M  V30 57 1 57 58
M  V30 58 1 58 59
M  V30 59 1 59 60
M  V30 60 1 60 61
M  V30 61 1 61 62
M  V30 62 2 62 63
M  V30 63 1 62 64
M  V30 64 1 64 65
M  V30 65 1 65 66
M  V30 66 1 66 67
M  V30 67 2 67 68
M  V30 68 1 68 69
M  V30 69 2 69 70
M  V30 70 1 70 71
M  V30 71 2 71 72
M  V30 72 1 65 73
M  V30 73 1 73 74
M  V30 74 2 73 75
M  V30 75 1 17 11
M  V30 76 1 25 21
M  V30 77 1 54 50
M  V30 78 1 61 57
M  V30 79 1 72 67
M  V30 80 1 1 76
M  V30 81 1 1 77
M  V30 82 1 1 78
M  V30 83 1 2 79
M  V30 84 1 2 80
M  V30 85 1 3 81 CFG=3
M  V30 86 1 4 82
M  V30 87 1 4 83
M  V30 88 1 4 84
M  V30 89 1 5 85 CFG=3
M  V30 90 1 6 86
M  V30 91 1 9 87 CFG=1
M  V30 92 1 10 88
M  V30 93 1 10 89
M  V30 94 1 12 90
M  V30 95 1 13 91
M  V30 96 1 15 92
M  V30 97 1 16 93
M  V30 98 1 17 94
M  V30 99 1 18 95
M  V30 100 1 21 96 CFG=3
M  V30 101 1 22 97
M  V30 102 1 22 98
M  V30 103 1 23 99
M  V30 104 1 23 100
M  V30 105 1 24 101
M  V30 106 1 24 102
M  V30 107 1 28 103 CFG=3
M  V30 108 1 29 104
M  V30 109 1 29 105
M  V30 110 1 30 106
M  V30 111 1 30 107
M  V30 112 1 31 108
M  V30 113 1 31 109
M  V30 114 1 32 110
M  V30 115 1 34 111
M  V30 116 1 34 112
M  V30 117 1 35 113
M  V30 118 1 36 114
M  V30 119 1 39 115 CFG=3
M  V30 120 1 40 116
M  V30 121 1 40 117
M  V30 122 1 41 118
M  V30 123 1 41 119
M  V30 124 1 43 120
M  V30 125 1 47 121
M  V30 126 1 48 122 CFG=3
M  V30 127 1 49 123
M  V30 128 1 49 124
M  V30 129 1 51 125
M  V30 130 1 53 126
M  V30 131 1 54 127
M  V30 132 1 58 128
M  V30 133 1 58 129
M  V30 134 1 59 130
M  V30 135 1 59 131
M  V30 136 1 60 132
M  V30 137 1 60 133
M  V30 138 1 61 134 CFG=1
M  V30 139 1 64 135
M  V30 140 1 65 136 CFG=1
M  V30 141 1 66 137
M  V30 142 1 66 138
M  V30 143 1 68 139
M  V30 144 1 69 140
M  V30 145 1 70 141
M  V30 146 1 71 142
M  V30 147 1 72 143
M  V30 148 1 74 144
M  V30 END BOND
M  V30 END CTAB
M  END
