
     RDKit          3D

  0  0  0  0  0  0  0  0  0  0999 V3000
M  V30 BEGIN CTAB
M  V30 COUNTS 21 21 0 0 0
M  V30 BEGIN ATOM
M  V30 1 C 3.77903 -0.190342 -0.0742336 0
M  V30 2 C 2.39159 0.449955 -0.00498621 0
M  V30 3 O 1.45646 -0.609525 -0.0779644 0
M  V30 4 C 0.117984 -0.29419 -0.0353687 0
M  V30 5 C -0.816235 -1.31189 -0.105003 0
M  V30 6 C -2.15928 -1.04007 -0.0658377 0
M  V30 7 N -3.12695 -2.08551 -0.137259 0
M  V30 8 N -2.52994 0.247928 0.0423434 0
M  V30 9 C -1.62351 1.25671 0.11162 0
M  V30 10 N -2.02214 2.60543 0.225041 0
M  V30 11 N -0.31318 0.959239 0.0708182 0
M  V30 12 H 3.72253 -0.945092 -0.891512 0
M  V30 13 H 4.55944 0.553198 -0.243211 0
M  V30 14 H 3.89386 -0.739957 0.889634 0
M  V30 15 H 2.26916 1.16701 -0.843769 0
M  V30 16 H 2.27997 1.02483 0.926287 0
M  V30 17 H -0.508115 -2.35968 -0.193081 0
M  V30 18 H -4.10223 -1.8495 -0.444227 0
M  V30 19 H -2.91812 -3.06425 0.0976019 0
M  V30 20 H -2.90445 2.84545 0.700859 0
M  V30 21 H -1.44589 3.38026 -0.161995 0
M  V30 END ATOM
M  V30 BEGIN BOND
M  V30 1 1 1 2
M  V30 2 1 2 3
M  V30 3 1 3 4
M  V30 4 2 4 5
M  V30 5 1 5 6
M  V30 6 1 6 7
M  V30 7 2 6 8
M  V30 8 1 8 9
M  V30 9 1 9 10
M  V30 10 2 9 11
M  V30 11 1 11 4
M  V30 12 1 1 12
M  V30 13 1 1 13
M  V30 14 1 1 14
M  V30 15 1 2 15
M  V30 16 1 2 16
M  V30 17 1 5 17
M  V30 18 1 7 18
M  V30 19 1 7 19
M  V30 20 1 10 20
M  V30 21 1 10 21
M  V30 END BOND
M  V30 END CTAB
M  END
