
     RDKit          3D

  0  0  0  0  0  0  0  0  0  0999 V3000
M  V30 BEGIN CTAB
M  V30 COUNTS 34 34 0 0 0
M  V30 BEGIN ATOM
M  V30 1 C 4.01379 -0.192387 0.256695 0
M  V30 2 C 2.94257 0.409377 -0.619759 0
M  V30 3 C 1.58015 0.299089 -0.0253494 0
M  V30 4 C 1.18027 -1.13942 0.210342 0
M  V30 5 C -0.0567526 -1.21242 1.03494 0
M  V30 6 C -1.32487 -1.24024 0.24333 0
M  V30 7 C -1.63856 0.00370158 -0.492606 0
M  V30 8 C -0.687454 1.13101 -0.290916 0
M  V30 9 C 0.590537 0.856818 -1.04934 0
M  V30 10 N -1.70722 -0.321458 -1.92607 0
M  V30 11 C -3.03487 0.534812 -0.142766 0
M  V30 12 N -3.08591 0.807702 1.2612 0
M  V30 13 H 4.9679 0.355639 0.0677923 0
M  V30 14 H 3.80223 -0.080074 1.33267 0
M  V30 15 H 4.09379 -1.26508 -0.0274014 0
M  V30 16 H 2.925 -0.0864645 -1.61314 0
M  V30 17 H 3.14725 1.4845 -0.821116 0
M  V30 18 H 1.47042 0.828342 0.937012 0
M  V30 19 H 2.01707 -1.60053 0.80884 0
M  V30 20 H 1.11942 -1.72306 -0.716634 0
M  V30 21 H -0.0610657 -0.408177 1.78285 0
M  V30 22 H -0.0177804 -2.17348 1.61926 0
M  V30 23 H -1.31675 -2.14328 -0.424209 0
M  V30 24 H -2.15814 -1.44123 0.970626 0
M  V30 25 H -1.15199 2.04603 -0.753154 0
M  V30 26 H -0.538908 1.30723 0.777329 0
M  V30 27 H 0.43185 0.0334353 -1.80609 0
M  V30 28 H 1.00538 1.73591 -1.54293 0
M  V30 29 H -1.7265 0.561829 -2.4857 0
M  V30 30 H -2.62015 -0.801233 -2.10529 0
M  V30 31 H -3.17943 1.44763 -0.765288 0
M  V30 32 H -3.76728 -0.207494 -0.495095 0
M  V30 33 H -3.95109 0.34545 1.64738 0
M  V30 34 H -3.26288 1.84752 1.36789 0
M  V30 END ATOM
M  V30 BEGIN BOND
M  V30 1 1 1 2
M  V30 2 1 2 3
M  V30 3 1 3 4
M  V30 4 1 4 5
M  V30 5 1 5 6
M  V30 6 1 6 7
M  V30 7 1 7 8
M  V30 8 1 8 9
M  V30 9 1 7 10
M  V30 10 1 7 11
M  V30 11 1 11 12
M  V30 12 1 9 3
M  V30 13 1 1 13
M  V30 14 1 1 14
M  V30 15 1 1 15
M  V30 16 1 2 16
M  V30 17 1 2 17
M  V30 18 1 3 18
M  V30 19 1 4 19
M  V30 20 1 4 20
M  V30 21 1 5 21
M  V30 22 1 5 22
M  V30 23 1 6 23
M  V30 24 1 6 24
M  V30 25 1 8 25
M  V30 26 1 8 26
M  V30 27 1 9 27
M  V30 28 1 9 28
M  V30 29 1 10 29
M  V30 30 1 10 30
M  V30 31 1 11 31
M  V30 32 1 11 32
M  V30 33 1 12 33
M  V30 34 1 12 34
M  V30 END BOND
M  V30 END CTAB
M  END
