
     RDKit          3D

  0  0  0  0  0  0  0  0  0  0999 V3000
M  V30 BEGIN CTAB
M  V30 COUNTS 30 32 0 0 0
M  V30 BEGIN ATOM
M  V30 1 N -4.79232 0.376382 1.2587 0
M  V30 2 C -3.5267 -0.238096 1.33903 0
M  V30 3 N -3.15562 -0.933157 2.46316 0
M  V30 4 C -1.94617 -1.53386 2.54089 0
M  V30 5 N -1.13856 -1.42849 1.50107 0
M  V30 6 C -1.41942 -0.767503 0.362527 0
M  V30 7 C -2.66162 -0.150939 0.284167 0
M  V30 8 N -2.67736 0.408822 -0.933011 0
M  V30 9 C -1.54195 0.173452 -1.58777 0
M  V30 10 N -0.721496 -0.588676 -0.750961 0
M  V30 11 C 0.589759 -1.0146 -1.1613 0
M  V30 12 C 1.6696 -0.0290094 -0.925076 0
M  V30 13 C 2.37602 0.00767148 0.243129 0
M  V30 14 N 2.22961 -0.939216 1.28214 0
M  V30 15 C 3.35606 1.00628 0.420842 0
M  V30 16 C 3.59858 1.92551 -0.561594 0
M  V30 17 C 2.87329 1.87933 -1.75256 0
M  V30 18 C 1.9232 0.923895 -1.94256 0
M  V30 19 H -5.07566 1.28152 1.6824 0
M  V30 20 H -5.53477 -0.135982 0.709225 0
M  V30 21 H -1.61699 -2.09257 3.41068 0
M  V30 22 H -1.2503 0.486443 -2.58341 0
M  V30 23 H 0.877326 -1.9463 -0.625163 0
M  V30 24 H 0.581104 -1.3361 -2.25002 0
M  V30 25 H 2.11082 -0.549253 2.26664 0
M  V30 26 H 2.222 -1.95763 1.20661 0
M  V30 27 H 3.88817 0.999279 1.35739 0
M  V30 28 H 4.35413 2.70541 -0.447764 0
M  V30 29 H 3.08298 2.61579 -2.50977 0
M  V30 30 H 1.3263 0.851597 -2.86603 0
M  V30 END ATOM
M  V30 BEGIN BOND
M  V30 1 1 1 2
M  V30 2 2 2 3
M  V30 3 1 3 4
M  V30 4 2 4 5
M  V30 5 1 5 6
M  V30 6 2 6 7
M  V30 7 1 7 8
M  V30 8 2 8 9
M  V30 9 1 9 10
M  V30 10 1 10 11
M  V30 11 1 11 12
M  V30 12 2 12 13
M  V30 13 1 13 14
M  V30 14 1 13 15
M  V30 15 2 15 16
M  V30 16 1 16 17
M  V30 17 2 17 18
M  V30 18 1 7 2
M  V30 19 1 18 12
M  V30 20 1 10 6
M  V30 21 1 1 19
M  V30 22 1 1 20
M  V30 23 1 4 21
M  V30 24 1 9 22
M  V30 25 1 11 23
M  V30 26 1 11 24
M  V30 27 1 14 25
M  V30 28 1 14 26
M  V30 29 1 15 27
M  V30 30 1 16 28
M  V30 31 1 17 29
M  V30 32 1 18 30
M  V30 END BOND
M  V30 END CTAB
M  END
