
     RDKit          3D

  0  0  0  0  0  0  0  0  0  0999 V3000
M  V30 BEGIN CTAB
M  V30 COUNTS 29 30 0 0 0
M  V30 BEGIN ATOM
M  V30 1 N -1.59692 0.563147 -1.87336 0
M  V30 2 C -1.96472 -0.209341 -0.759064 0
M  V30 3 N -3.25167 -0.192429 -0.293504 0
M  V30 4 N -4.31788 0.54464 -0.793452 0
M  V30 5 C -3.25448 -1.04418 0.752899 0
M  V30 6 N -2.04486 -1.55174 0.918386 0
M  V30 7 C -1.18055 -1.04996 -0.0230519 0
M  V30 8 C 0.242462 -1.38602 -0.118523 0
M  V30 9 C 1.19745 -0.416758 0.482609 0
M  V30 10 C 1.20208 0.963339 -0.0758558 0
M  V30 11 C 2.54264 1.56354 0.36743 0
M  V30 12 C 3.47018 0.38646 0.573893 0
M  V30 13 C 2.64445 -0.878084 0.42721 0
M  V30 14 H -1.32789 0.0529026 -2.76322 0
M  V30 15 H -1.57766 1.60631 -1.85985 0
M  V30 16 H -4.98166 0.985171 -0.142555 0
M  V30 17 H -4.43951 0.645064 -1.8096 0
M  V30 18 H -4.16077 -1.22415 1.31666 0
M  V30 19 H 0.521413 -1.5502 -1.19643 0
M  V30 20 H 0.397396 -2.39617 0.372937 0
M  V30 21 H 0.894584 -0.315062 1.5703 0
M  V30 22 H 0.425006 1.64374 0.287873 0
M  V30 23 H 1.24686 0.864354 -1.1971 0
M  V30 24 H 2.45347 2.21354 1.24086 0
M  V30 25 H 2.92073 2.17605 -0.483801 0
M  V30 26 H 4.3007 0.41372 -0.150273 0
M  V30 27 H 3.87453 0.48615 1.59565 0
M  V30 28 H 2.91318 -1.55211 1.25743 0
M  V30 29 H 2.85144 -1.34193 -0.539496 0
M  V30 END ATOM
M  V30 BEGIN BOND
M  V30 1 1 1 2
M  V30 2 1 2 3
M  V30 3 1 3 4
M  V30 4 1 3 5
M  V30 5 2 5 6
M  V30 6 1 6 7
M  V30 7 1 7 8
M  V30 8 1 8 9
M  V30 9 1 9 10
M  V30 10 1 10 11
M  V30 11 1 11 12
M  V30 12 1 12 13
M  V30 13 2 7 2
M  V30 14 1 13 9
M  V30 15 1 1 14
M  V30 16 1 1 15
M  V30 17 1 4 16
M  V30 18 1 4 17
M  V30 19 1 5 18
M  V30 20 1 8 19
M  V30 21 1 8 20
M  V30 22 1 9 21
M  V30 23 1 10 22
M  V30 24 1 10 23
M  V30 25 1 11 24
M  V30 26 1 11 25
M  V30 27 1 12 26
M  V30 28 1 12 27
M  V30 29 1 13 28
M  V30 30 1 13 29
M  V30 END BOND
M  V30 END CTAB
M  END
