
     RDKit          3D

  0  0  0  0  0  0  0  0  0  0999 V3000
M  V30 BEGIN CTAB
M  V30 COUNTS 22 22 0 0 0
M  V30 BEGIN ATOM
M  V30 1 N 2.97253 1.65772 -0.218258 0
M  V30 2 N 2.96353 0.308197 0.119891 0
M  V30 3 C 1.87247 -0.319976 0.455253 0
M  V30 4 N 0.68001 0.431077 0.463135 0
M  V30 5 C -0.494089 0.102459 -0.29341 0
M  V30 6 C -1.58558 1.11077 -0.056729 0
M  V30 7 C -2.8208 0.326663 -0.205268 0
M  V30 8 C -2.58769 -0.95708 -0.0493567 0
M  V30 9 C -1.14711 -1.17423 0.223993 0
M  V30 10 N 1.8996 -1.70199 0.795593 0
M  V30 11 H 3.01508 1.99043 -1.20466 0
M  V30 12 H 2.93582 2.38135 0.530634 0
M  V30 13 H 0.668197 1.2871 1.07043 0
M  V30 14 H -0.320639 -0.00252365 -1.36682 0
M  V30 15 H -1.50224 1.90762 -0.828215 0
M  V30 16 H -1.45162 1.52183 0.968721 0
M  V30 17 H -3.83176 0.726207 -0.419852 0
M  V30 18 H -3.32773 -1.7591 -0.108071 0
M  V30 19 H -0.916352 -1.35232 1.27892 0
M  V30 20 H -0.821106 -2.0114 -0.447097 0
M  V30 21 H 1.47614 -2.39525 0.143361 0
M  V30 22 H 2.32334 -2.07755 1.67205 0
M  V30 END ATOM
M  V30 BEGIN BOND
M  V30 1 1 1 2
M  V30 2 2 2 3
M  V30 3 1 3 4
M  V30 4 1 4 5
M  V30 5 1 5 6
M  V30 6 1 6 7
M  V30 7 2 7 8
M  V30 8 1 8 9
M  V30 9 1 3 10
M  V30 10 1 9 5
M  V30 11 1 1 11
M  V30 12 1 1 12
M  V30 13 1 4 13
M  V30 14 1 5 14
M  V30 15 1 6 15
M  V30 16 1 6 16
M  V30 17 1 7 17
M  V30 18 1 8 18
M  V30 19 1 9 19
M  V30 20 1 9 20
M  V30 21 1 10 21
M  V30 22 1 10 22
M  V30 END BOND
M  V30 END CTAB
M  END
