
     RDKit          3D

  0  0  0  0  0  0  0  0  0  0999 V3000
M  V30 BEGIN CTAB
M  V30 COUNTS 62 63 0 0 0
M  V30 BEGIN ATOM
M  V30 1 N 10.5376 -0.144007 0.774192 0
M  V30 2 C 10.9285 1.00659 0.0540175 0
M  V30 3 C 10.253 1.2073 -1.28846 0
M  V30 4 O 8.95357 1.32772 -1.23616 0
M  V30 5 C 7.72253 0.952991 -1.00284 0
M  V30 6 C 6.69186 1.88949 -1.24753 0
M  V30 7 C 5.3655 1.61025 -1.04217 0
M  V30 8 C 4.97237 0.377834 -0.578375 0
M  V30 9 O 3.64789 0.097612 -0.372377 0
M  V30 10 C 3.17128 -1.14648 0.102307 0
M  V30 11 C 1.63295 -0.973666 0.166939 0
M  V30 12 O 1.22494 -0.691989 -1.09851 0
M  V30 13 C -0.0755632 -0.443605 -1.35524 0
M  V30 14 C -1.07546 -1.52027 -1.04915 0
M  V30 15 O -1.05171 -1.82289 0.286668 0
M  V30 16 C -1.94205 -2.80549 0.656644 0
M  V30 17 C -3.36932 -2.46519 0.372011 0
M  V30 18 O -3.78861 -1.29263 1.05159 0
M  V30 19 C -5.09974 -0.891465 0.85304 0
M  V30 20 C -5.99362 -1.56338 0.0449175 0
M  V30 21 C -7.28307 -1.15352 -0.139823 0
M  V30 22 C -7.76919 -0.00794611 0.495478 0
M  V30 23 O -9.04889 0.344632 0.276033 0
M  V30 24 C -9.82955 1.38278 0.703949 0
M  V30 25 C -9.39708 2.74732 0.288598 0
M  V30 26 N -10.3057 3.77622 0.805254 0
M  V30 27 C -6.89972 0.669984 1.29964 0
M  V30 28 C -5.58079 0.23748 1.4788 0
M  V30 29 C 5.95193 -0.548324 -0.333625 0
M  V30 30 C 7.29093 -0.285335 -0.534735 0
M  V30 31 H 11.3395 -0.60891 1.24416 0
M  V30 32 H 9.76145 -0.0222488 1.45166 0
M  V30 33 H 10.7075 1.89869 0.717695 0
M  V30 34 H 12.0334 0.981227 -0.0840783 0
M  V30 35 H 10.7217 2.13484 -1.77884 0
M  V30 36 H 10.5953 0.376773 -1.98642 0
M  V30 37 H 6.99953 2.85406 -1.61052 0
M  V30 38 H 4.58527 2.35618 -1.24035 0
M  V30 39 H 3.56041 -1.29442 1.12147 0
M  V30 40 H 3.45285 -2.00025 -0.511377 0
M  V30 41 H 1.47554 -0.145224 0.894381 0
M  V30 42 H 1.28767 -1.95586 0.566477 0
M  V30 43 H -0.386868 0.438846 -0.713079 0
M  V30 44 H -0.16662 -0.128411 -2.43251 0
M  V30 45 H -0.832044 -2.38764 -1.69994 0
M  V30 46 H -2.08296 -1.09804 -1.32451 0
M  V30 47 H -1.73192 -3.79573 0.203517 0
M  V30 48 H -1.84688 -2.94258 1.76083 0
M  V30 49 H -3.99559 -3.2944 0.787683 0
M  V30 50 H -3.58482 -2.33102 -0.700385 0
M  V30 51 H -5.6132 -2.45358 -0.447776 0
M  V30 52 H -7.96142 -1.69008 -0.772065 0
M  V30 53 H -10.0014 1.37358 1.81399 0
M  V30 54 H -10.8635 1.23999 0.266651 0
M  V30 55 H -8.3679 3.01297 0.529812 0
M  V30 56 H -9.53119 2.80875 -0.827986 0
M  V30 57 H -11.1418 3.27261 1.20219 0
M  V30 58 H -9.81919 4.37356 1.49455 0
M  V30 59 H -7.17777 1.54828 1.83937 0
M  V30 60 H -4.9148 0.794198 2.12084 0
M  V30 61 H 5.63934 -1.51825 0.0316192 0
M  V30 62 H 8.0256 -1.04041 -0.348156 0
M  V30 END ATOM
M  V30 BEGIN BOND
M  V30 1 1 1 2
M  V30 2 1 2 3
M  V30 3 1 3 4
M  V30 4 1 4 5
M  V30 5 2 5 6
M  V30 6 1 6 7
M  V30 7 2 7 8
M  V30 8 1 8 9
M  V30 9 1 9 10
M  V30 10 1 10 11
M  V30 11 1 11 12
M  V30 12 1 12 13
M  V30 13 1 13 14
M  V30 14 1 14 15
M  V30 15 1 15 16
M  V30 16 1 16 17
M  V30 17 1 17 18
M  V30 18 1 18 19
M  V30 19 2 19 20
M  V30 20 1 20 21
M  V30 21 2 21 22
M  V30 22 1 22 23
M  V30 23 1 23 24
M  V30 24 1 24 25
M  V30 25 1 25 26
M  V30 26 1 22 27
M  V30 27 2 27 28
M  V30 28 1 8 29
M  V30 29 2 29 30
M  V30 30 1 30 5
M  V30 31 1 28 19
M  V30 32 1 1 31
M  V30 33 1 1 32
M  V30 34 1 2 33
M  V30 35 1 2 34
M  V30 36 1 3 35
M  V30 37 1 3 36
M  V30 38 1 6 37
M  V30 39 1 7 38
M  V30 40 1 10 39
M  V30 41 1 10 40
M  V30 42 1 11 41
M  V30 43 1 11 42
M  V30 44 1 13 43
M  V30 45 1 13 44
M  V30 46 1 14 45
M  V30 47 1 14 46
M  V30 48 1 16 47
M  V30 49 1 16 48
M  V30 50 1 17 49
M  V30 51 1 17 50
M  V30 52 1 20 51
M  V30 53 1 21 52
M  V30 54 1 24 53
M  V30 55 1 24 54
M  V30 56 1 25 55
M  V30 57 1 25 56
M  V30 58 1 26 57
M  V30 59 1 26 58
M  V30 60 1 27 59
M  V30 61 1 28 60
M  V30 62 1 29 61
M  V30 63 1 30 62
M  V30 END BOND
M  V30 END CTAB
M  END
