
     RDKit          3D

  0  0  0  0  0  0  0  0  0  0999 V3000
M  V30 BEGIN CTAB
M  V30 COUNTS 16 16 0 0 0
M  V30 BEGIN ATOM
M  V30 1 H -1.22796 2.11677 0.198491 0 MASS=2
M  V30 2 C -0.686794 1.18386 0.110411 0
M  V30 3 C 0.694979 1.15907 0.125657 0
M  V30 4 H 1.28724 2.08243 0.227344 0 MASS=2
M  V30 5 C 1.4151 -0.0140239 0.0154069 0
M  V30 6 N 2.84043 -0.00395036 0.0347793 0
M  V30 7 C 0.682211 -1.17543 -0.112338 0
M  V30 8 H 1.24381 -2.09825 -0.199125 0 MASS=2
M  V30 9 C -0.697124 -1.14795 -0.12728 0
M  V30 10 H -1.26502 -2.07907 -0.229447 0 MASS=2
M  V30 11 C -1.41873 0.0213262 -0.0174378 0
M  V30 12 N -2.84215 0.0067147 -0.0372394 0
M  V30 13 H 3.36028 -0.689661 -0.548933 0
M  V30 14 H 3.416 0.655178 0.603967 0
M  V30 15 H -3.38616 -0.347611 0.797002 0
M  V30 16 H -3.4161 0.330597 -0.841257 0
M  V30 END ATOM
M  V30 BEGIN BOND
M  V30 1 1 1 2
M  V30 2 2 2 3
M  V30 3 1 3 4
M  V30 4 1 3 5
M  V30 5 1 5 6
M  V30 6 2 5 7
M  V30 7 1 7 8
M  V30 8 1 7 9
M  V30 9 1 9 10
M  V30 10 2 9 11
M  V30 11 1 11 12
M  V30 12 1 11 2
M  V30 13 1 6 13
M  V30 14 1 6 14
M  V30 15 1 12 15
M  V30 16 1 12 16
M  V30 END BOND
M  V30 END CTAB
M  END
