
     RDKit          3D

  0  0  0  0  0  0  0  0  0  0999 V3000
M  V30 BEGIN CTAB
M  V30 COUNTS 51 53 0 0 0
M  V30 BEGIN ATOM
M  V30 1 C 8.47118 -1.4599 -0.377971 0
M  V30 2 O 7.77407 -0.615855 0.49652 0
M  V30 3 C 6.39548 -0.5347 0.57317 0
M  V30 4 C 5.85762 0.351217 1.49212 0
M  V30 5 C 4.49118 0.491635 1.63051 0
M  V30 6 C 3.62138 -0.242389 0.861657 0
M  V30 7 C 4.1665 -1.12306 -0.0517906 0
M  V30 8 C 5.54029 -1.26902 -0.195909 0
M  V30 9 C 2.17805 -0.0732564 1.02942 0
M  V30 10 C 1.60081 0.997538 0.133739 0
M  V30 11 C 0.0871087 1.12483 0.358038 0
M  V30 12 C -0.503369 2.17561 -0.515359 0
M  V30 13 C -1.47468 1.58575 -1.4781 0
M  V30 14 N -2.55198 1.00654 -0.69387 0
M  V30 15 C -2.08209 -0.117315 0.08956 0
M  V30 16 C -0.572235 -0.189843 0.112467 0
M  V30 17 C -3.71972 0.744321 -1.4727 0
M  V30 18 C -4.80439 0.168351 -0.651324 0
M  V30 19 N -4.99048 -1.13903 -0.538113 0
M  V30 20 C -5.9935 -1.66606 0.221572 0
M  V30 21 N -6.09163 -3.07737 0.26471 0
M  V30 22 N -6.8114 -0.827543 0.87013 0
M  V30 23 C -6.63409 0.49716 0.764083 0
M  V30 24 N -5.63154 0.990221 0.00398272 0
M  V30 25 N -7.50506 1.3592 1.454 0
M  V30 26 H 9.50889 -1.57375 -0.00275644 0
M  V30 27 H 8.57178 -0.894068 -1.34914 0
M  V30 28 H 7.97218 -2.40869 -0.59763 0
M  V30 29 H 6.50613 0.944372 2.11313 0
M  V30 30 H 4.11018 1.17942 2.34416 0
M  V30 31 H 3.52506 -1.72345 -0.680226 0
M  V30 32 H 5.97346 -1.95836 -0.910854 0
M  V30 33 H 1.69806 -1.05201 0.747575 0
M  V30 34 H 1.8673 0.115599 2.07926 0
M  V30 35 H 2.11571 1.95086 0.249308 0
M  V30 36 H 1.70947 0.653276 -0.919175 0
M  V30 37 H 0.000309105 1.44394 1.43705 0
M  V30 38 H -0.97519 2.95727 0.114562 0
M  V30 39 H 0.329693 2.63541 -1.10969 0
M  V30 40 H -0.974521 0.844971 -2.11066 0
M  V30 41 H -1.86556 2.39115 -2.13044 0
M  V30 42 H -2.48284 -0.0229278 1.10889 0
M  V30 43 H -2.41648 -1.03845 -0.437646 0
M  V30 44 H -0.31679 -0.852124 0.991246 0
M  V30 45 H -0.185534 -0.657571 -0.799892 0
M  V30 46 H -3.45451 0.055936 -2.31334 0
M  V30 47 H -4.10123 1.69877 -1.88383 0
M  V30 48 H -5.91263 -3.71179 -0.533517 0
M  V30 49 H -6.36501 -3.519 1.16748 0
M  V30 50 H -7.115 2.11165 2.04902 0
M  V30 51 H -8.54045 1.27254 1.39165 0
M  V30 END ATOM
M  V30 BEGIN BOND
M  V30 1 1 1 2
M  V30 2 1 2 3
M  V30 3 2 3 4
M  V30 4 1 4 5
M  V30 5 2 5 6
M  V30 6 1 6 7
M  V30 7 2 7 8
M  V30 8 1 6 9
M  V30 9 1 9 10
M  V30 10 1 10 11
M  V30 11 1 11 12
M  V30 12 1 12 13
M  V30 13 1 13 14
M  V30 14 1 14 15
M  V30 15 1 15 16
M  V30 16 1 14 17
M  V30 17 1 17 18
M  V30 18 2 18 19
M  V30 19 1 19 20
M  V30 20 1 20 21
M  V30 21 2 20 22
M  V30 22 1 22 23
M  V30 23 2 23 24
M  V30 24 1 23 25
M  V30 25 1 8 3
M  V30 26 1 16 11
M  V30 27 1 24 18
M  V30 28 1 1 26
M  V30 29 1 1 27
M  V30 30 1 1 28
M  V30 31 1 4 29
M  V30 32 1 5 30
M  V30 33 1 7 31
M  V30 34 1 8 32
M  V30 35 1 9 33
M  V30 36 1 9 34
M  V30 37 1 10 35
M  V30 38 1 10 36
M  V30 39 1 11 37
M  V30 40 1 12 38
M  V30 41 1 12 39
M  V30 42 1 13 40
M  V30 43 1 13 41
M  V30 44 1 15 42
M  V30 45 1 15 43
M  V30 46 1 16 44
M  V30 47 1 16 45
M  V30 48 1 17 46
M  V30 49 1 17 47
M  V30 50 1 21 48
M  V30 51 1 21 49
M  V30 52 1 25 50
M  V30 53 1 25 51
M  V30 END BOND
M  V30 END CTAB
M  END
