
     RDKit          3D

  0  0  0  0  0  0  0  0  0  0999 V3000
M  V30 BEGIN CTAB
M  V30 COUNTS 53 58 0 0 0
M  V30 BEGIN ATOM
M  V30 1 N -9.36962 1.53721 2.415 0
M  V30 2 C -8.80506 0.818242 1.32989 0
M  V30 3 C -9.64232 0.100224 0.503398 0
M  V30 4 C -9.09241 -0.593381 -0.544424 0
M  V30 5 C -7.71147 -0.570838 -0.767164 0
M  V30 6 C -6.87182 0.14503 0.055957 0
M  V30 7 C -7.43469 0.838954 1.10659 0
M  V30 8 C -5.41954 0.171936 -0.173882 0
M  V30 9 N -4.4876 0.822454 0.543084 0
M  V30 10 C -3.29116 0.572303 -0.0179823 0
M  V30 11 C -3.49291 -0.246202 -1.09828 0
M  V30 12 N -4.81012 -0.481254 -1.17739 0
M  V30 13 C -2.43061 -0.687242 -1.89529 0
M  V30 14 C -1.14424 -0.295448 -1.59652 0
M  V30 15 C -0.934022 0.527266 -0.512026 0
M  V30 16 C -1.98345 0.960158 0.271492 0
M  V30 17 O -0.0962434 -0.73549 -2.38953 0
M  V30 18 C 1.21269 -0.331663 -2.07841 0
M  V30 19 C 1.75294 0.818513 -2.61167 0
M  V30 20 C 3.02439 1.22586 -2.3196 0
M  V30 21 C 3.78852 0.462449 -1.46577 0
M  V30 22 C 3.27877 -0.713533 -0.901573 0
M  V30 23 C 1.98742 -1.08606 -1.22593 0
M  V30 24 N 4.24126 -1.23572 -0.1217 0
M  V30 25 C 5.33703 -0.457209 -0.157555 0
M  V30 26 N 5.03724 0.560963 -0.976038 0
M  V30 27 C 6.59398 -0.697684 0.563942 0
M  V30 28 C 6.74612 -1.80069 1.37361 0
M  V30 29 C 7.95032 -2.00802 2.04936 0
M  V30 30 C 9.01265 -1.12374 1.92768 0
M  V30 31 C 8.85139 -0.0215533 1.1145 0
M  V30 32 C 7.63933 0.174527 0.442815 0
M  V30 33 N 9.93779 0.872673 0.996874 0
M  V30 34 H -9.04373 1.47379 3.39888 0
M  V30 35 H -10.1693 2.1748 2.20799 0
M  V30 36 H -10.7234 0.0624113 0.650245 0
M  V30 37 H -9.75355 -1.15888 -1.19505 0
M  V30 38 H -7.27067 -1.1125 -1.58755 0
M  V30 39 H -6.79413 1.41076 1.76959 0
M  V30 40 H -5.24214 -1.08215 -1.91838 0
M  V30 41 H -2.63467 -1.32135 -2.72344 0
M  V30 42 H 0.0999434 0.814269 -0.309995 0
M  V30 43 H -1.81232 1.59822 1.1111 0
M  V30 44 H 1.16241 1.42701 -3.28397 0
M  V30 45 H 3.43111 2.12059 -2.74045 0
M  V30 46 H 1.59328 -1.99086 -0.79269 0
M  V30 47 H 5.67951 1.34026 -1.21434 0
M  V30 48 H 5.92198 -2.49597 1.47424 0
M  V30 49 H 8.05696 -2.88482 2.6866 0
M  V30 50 H 9.91694 -1.33604 2.47321 0
M  V30 51 H 7.53661 1.03428 -0.181214 0
M  V30 52 H 10.4932 1.14685 1.82325 0
M  V30 53 H 10.1774 1.25632 0.0677122 0
M  V30 END ATOM
M  V30 BEGIN BOND
M  V30 1 1 1 2
M  V30 2 2 2 3
M  V30 3 1 3 4
M  V30 4 2 4 5
M  V30 5 1 5 6
M  V30 6 2 6 7
M  V30 7 1 6 8
M  V30 8 2 8 9
M  V30 9 1 9 10
M  V30 10 2 10 11
M  V30 11 1 11 12
M  V30 12 1 11 13
M  V30 13 2 13 14
M  V30 14 1 14 15
M  V30 15 2 15 16
M  V30 16 1 14 17
M  V30 17 1 17 18
M  V30 18 2 18 19
M  V30 19 1 19 20
M  V30 20 2 20 21
M  V30 21 1 21 22
M  V30 22 2 22 23
M  V30 23 1 22 24
M  V30 24 2 24 25
M  V30 25 1 25 26
M  V30 26 1 25 27
M  V30 27 2 27 28
M  V30 28 1 28 29
M  V30 29 2 29 30
M  V30 30 1 30 31
M  V30 31 2 31 32
M  V30 32 1 31 33
M  V30 33 1 7 2
M  V30 34 1 12 8
M  V30 35 1 23 18
M  V30 36 1 32 27
M  V30 37 1 16 10
M  V30 38 1 26 21
M  V30 39 1 1 34
M  V30 40 1 1 35
M  V30 41 1 3 36
M  V30 42 1 4 37
M  V30 43 1 5 38
M  V30 44 1 7 39
M  V30 45 1 12 40
M  V30 46 1 13 41
M  V30 47 1 15 42
M  V30 48 1 16 43
M  V30 49 1 19 44
M  V30 50 1 20 45
M  V30 51 1 23 46
M  V30 52 1 26 47
M  V30 53 1 28 48
M  V30 54 1 29 49
M  V30 55 1 30 50
M  V30 56 1 32 51
M  V30 57 1 33 52
M  V30 58 1 33 53
M  V30 END BOND
M  V30 END CTAB
M  END
