
     RDKit          3D

  0  0  0  0  0  0  0  0  0  0999 V3000
M  V30 BEGIN CTAB
M  V30 COUNTS 31 32 0 0 0
M  V30 BEGIN ATOM
M  V30 1 N 1.4141 -1.20698 1.43805 0
M  V30 2 C 1.67473 -0.343833 0.382582 0
M  V30 3 C 3.01087 -0.297905 -0.0475736 0
M  V30 4 N 3.98531 -1.12025 0.578076 0
M  V30 5 C 3.34905 0.556486 -1.08134 0
M  V30 6 O 4.55602 0.595808 -1.46706 0
M  V30 7 N 2.37564 1.30375 -1.62534 0
M  V30 8 C 1.09248 1.22153 -1.1715 0
M  V30 9 O 0.286679 1.9577 -1.75474 0
M  V30 10 N 0.704457 0.411632 -0.171882 0
M  V30 11 N -0.583699 0.31164 0.24097 0
M  V30 12 C -1.58799 1.35616 -0.0213562 0
M  V30 13 C -2.49117 0.796085 -1.0706 0
M  V30 14 C -3.33581 -0.260111 -0.350849 0
M  V30 15 C -2.70087 -0.772875 0.876312 0
M  V30 16 C -1.20166 -0.809796 0.940358 0
M  V30 17 H 1.28599 -2.23262 1.30629 0
M  V30 18 H 1.34022 -0.868108 2.42795 0
M  V30 19 H 3.75928 -2.00893 1.017 0
M  V30 20 H 4.96971 -0.785441 0.579431 0
M  V30 21 H 2.61655 1.94851 -2.40078 0
M  V30 22 H -2.24382 1.41623 0.922918 0
M  V30 23 H -1.22123 2.35333 -0.126563 0
M  V30 24 H -3.14548 1.52377 -1.55221 0
M  V30 25 H -1.95788 0.214068 -1.87494 0
M  V30 26 H -4.31365 0.268306 -0.133238 0
M  V30 27 H -3.61492 -1.0255 -1.09973 0
M  V30 28 H -3.14903 -0.228888 1.74882 0
M  V30 29 H -3.04297 -1.8416 1.02108 0
M  V30 30 H -0.855451 -1.73267 0.457114 0
M  V30 31 H -0.975454 -0.699477 2.01275 0
M  V30 END ATOM
M  V30 BEGIN BOND
M  V30 1 1 1 2
M  V30 2 2 2 3
M  V30 3 1 3 4
M  V30 4 1 3 5
M  V30 5 2 5 6
M  V30 6 1 5 7
M  V30 7 1 7 8
M  V30 8 2 8 9
M  V30 9 1 8 10
M  V30 10 1 10 11
M  V30 11 1 11 12
M  V30 12 1 12 13
M  V30 13 1 13 14
M  V30 14 1 14 15
M  V30 15 1 15 16
M  V30 16 1 10 2
M  V30 17 1 16 11
M  V30 18 1 1 17
M  V30 19 1 1 18
M  V30 20 1 4 19
M  V30 21 1 4 20
M  V30 22 1 7 21
M  V30 23 1 12 22
M  V30 24 1 12 23
M  V30 25 1 13 24
M  V30 26 1 13 25
M  V30 27 1 14 26
M  V30 28 1 14 27
M  V30 29 1 15 28
M  V30 30 1 15 29
M  V30 31 1 16 30
M  V30 32 1 16 31
M  V30 END BOND
M  V30 END CTAB
M  END
