
     RDKit          3D

  0  0  0  0  0  0  0  0  0  0999 V3000
M  V30 BEGIN CTAB
M  V30 COUNTS 28 29 0 0 0
M  V30 BEGIN ATOM
M  V30 1 N 3.81786 0.444744 1.60331 0
M  V30 2 C 3.07956 0.00114068 0.474197 0
M  V30 3 C 3.75653 -0.676458 -0.510423 0
M  V30 4 C 3.0632 -1.11773 -1.61691 0
M  V30 5 C 1.71389 -0.881317 -1.72888 0
M  V30 6 C 0.98769 -0.194376 -0.745787 0
M  V30 7 N -0.393701 0.0314343 -0.966831 0
M  V30 8 C -1.42336 0.0676524 -0.028132 0
M  V30 9 C -2.68228 0.494477 -0.471803 0
M  V30 10 N -2.85393 0.897883 -1.82722 0
M  V30 11 C -3.78539 0.55024 0.336168 0
M  V30 12 C -3.68869 0.177729 1.64784 0
M  V30 13 C -2.47454 -0.246153 2.11984 0
M  V30 14 C -1.35646 -0.300047 1.28912 0
M  V30 15 C 1.71066 0.224365 0.32859 0
M  V30 16 H 4.22661 1.42356 1.51654 0
M  V30 17 H 3.96977 -0.106416 2.45937 0
M  V30 18 H 4.8309 -0.870121 -0.430434 0
M  V30 19 H 3.61601 -1.65238 -2.38707 0
M  V30 20 H 1.17894 -1.23298 -2.6035 0
M  V30 21 H -0.624395 0.190304 -2.00668 0
M  V30 22 H -3.54101 0.389391 -2.41542 0
M  V30 23 H -2.28002 1.70488 -2.20675 0
M  V30 24 H -4.74057 0.893622 -0.0739958 0
M  V30 25 H -4.55146 0.216876 2.29811 0
M  V30 26 H -2.36677 -0.550422 3.16459 0
M  V30 27 H -0.422733 -0.654467 1.67561 0
M  V30 28 H 1.2337 0.774569 1.10656 0
M  V30 END ATOM
M  V30 BEGIN BOND
M  V30 1 1 1 2
M  V30 2 2 2 3
M  V30 3 1 3 4
M  V30 4 2 4 5
M  V30 5 1 5 6
M  V30 6 1 6 7
M  V30 7 1 7 8
M  V30 8 2 8 9
M  V30 9 1 9 10
M  V30 10 1 9 11
M  V30 11 2 11 12
M  V30 12 1 12 13
M  V30 13 2 13 14
M  V30 14 2 6 15
M  V30 15 1 15 2
M  V30 16 1 14 8
M  V30 17 1 1 16
M  V30 18 1 1 17
M  V30 19 1 3 18
M  V30 20 1 4 19
M  V30 21 1 5 20
M  V30 22 1 7 21
M  V30 23 1 10 22
M  V30 24 1 10 23
M  V30 25 1 11 24
M  V30 26 1 12 25
M  V30 27 1 13 26
M  V30 28 1 14 27
M  V30 29 1 15 28
M  V30 END BOND
M  V30 END CTAB
M  END
