
     RDKit          3D

  0  0  0  0  0  0  0  0  0  0999 V3000
M  V30 BEGIN CTAB
M  V30 COUNTS 27 27 0 0 0
M  V30 BEGIN ATOM
M  V30 1 F -0.27366 2.14456 0.450652 0
M  V30 2 C -0.191404 0.794033 -0.0970864 0
M  V30 3 C -1.55281 0.293319 0.0625788 0
M  V30 4 N -2.17578 0.25159 1.32795 0
M  V30 5 C -1.57782 -1.19515 -0.445242 0
M  V30 6 C -2.42796 1.07238 -0.929149 0
M  V30 7 C 0.949342 0.14705 0.500905 0
M  V30 8 C 1.23624 0.00307606 1.81452 0
M  V30 9 N 2.42644 -0.499054 2.2743 0
M  V30 10 C 3.36196 -0.875714 1.38452 0
M  V30 11 C 3.10945 -0.755202 0.0503166 0
M  V30 12 C 1.95089 -0.263377 -0.396343 0
M  V30 13 N 1.62588 -0.160584 -1.8034 0
M  V30 14 H -0.0178346 1.0887 -1.19283 0
M  V30 15 H -2.38303 1.19217 1.75665 0
M  V30 16 H -3.10729 -0.262442 1.16815 0
M  V30 17 H -1.25364 -1.24159 -1.48013 0
M  V30 18 H -0.960159 -1.74904 0.268719 0
M  V30 19 H -2.62036 -1.50104 -0.34535 0
M  V30 20 H -3.31322 0.493764 -1.23852 0
M  V30 21 H -1.81371 1.33908 -1.81573 0
M  V30 22 H -2.75129 1.99451 -0.436281 0
M  V30 23 H 0.53854 0.324416 2.58755 0
M  V30 24 H 4.34459 -1.26451 1.7241 0
M  V30 25 H 3.85729 -1.11726 -0.692459 0
M  V30 26 H 1.88946 0.715119 -2.28068 0
M  V30 27 H 1.12987 -0.968811 -2.2177 0
M  V30 END ATOM
M  V30 BEGIN BOND
M  V30 1 1 1 2
M  V30 2 1 2 3
M  V30 3 1 3 4
M  V30 4 1 3 5
M  V30 5 1 3 6
M  V30 6 1 2 7
M  V30 7 2 7 8
M  V30 8 1 8 9
M  V30 9 2 9 10
M  V30 10 1 10 11
M  V30 11 2 11 12
M  V30 12 1 12 13
M  V30 13 1 12 7
M  V30 14 1 2 14
M  V30 15 1 4 15
M  V30 16 1 4 16
M  V30 17 1 5 17
M  V30 18 1 5 18
M  V30 19 1 5 19
M  V30 20 1 6 20
M  V30 21 1 6 21
M  V30 22 1 6 22
M  V30 23 1 8 23
M  V30 24 1 10 24
M  V30 25 1 11 25
M  V30 26 1 13 26
M  V30 27 1 13 27
M  V30 END BOND
M  V30 END CTAB
M  END
