
     RDKit          3D

  0  0  0  0  0  0  0  0  0  0999 V3000
M  V30 BEGIN CTAB
M  V30 COUNTS 27 28 0 0 0
M  V30 BEGIN ATOM
M  V30 1 C -0.75059 -0.196543 0.362409 0
M  V30 2 C -2.20806 -0.110615 0.246223 0
M  V30 3 C -2.9786 -0.673434 1.25734 0
M  V30 4 C -4.34384 -0.638568 1.22891 0
M  V30 5 C -4.95432 -0.0265643 0.164508 0
M  V30 6 C -4.21333 0.532831 -0.839847 0
M  V30 7 C -2.8388 0.487506 -0.793213 0
M  V30 8 C 0.0573747 0.305322 -0.542053 0
M  V30 9 C 1.5154 0.199683 -0.391136 0
M  V30 10 N 2.05855 -0.408493 0.667954 0
M  V30 11 C 3.38501 -0.536814 0.862007 0
M  V30 12 N 3.94368 -1.18925 1.9987 0
M  V30 13 N 4.18252 0.00139206 -0.10625 0
M  V30 14 C 3.66123 0.617979 -1.1807 0
M  V30 15 N 4.45898 1.18969 -2.20808 0
M  V30 16 N 2.32384 0.709998 -1.31049 0
M  V30 17 H -0.299439 -0.697537 1.23484 0
M  V30 18 H -2.4664 -1.14361 2.07402 0
M  V30 19 H -4.95264 -1.07165 2.00733 0
M  V30 20 H -6.03549 0.00168055 0.140875 0
M  V30 21 H -4.75084 1.00467 -1.65886 0
M  V30 22 H -2.27617 0.942213 -1.60866 0
M  V30 23 H -0.332101 0.79958 -1.40407 0
M  V30 24 H 4.3965 -2.12166 1.95643 0
M  V30 25 H 3.91485 -0.735144 2.94391 0
M  V30 26 H 5.21084 0.60955 -2.6207 0
M  V30 27 H 4.29186 2.14779 -2.52813 0
M  V30 END ATOM
M  V30 BEGIN BOND
M  V30 1 1 1 2
M  V30 2 2 2 3
M  V30 3 1 3 4
M  V30 4 2 4 5
M  V30 5 1 5 6
M  V30 6 2 6 7
M  V30 7 2 1 8
M  V30 8 1 8 9
M  V30 9 2 9 10
M  V30 10 1 10 11
M  V30 11 1 11 12
M  V30 12 2 11 13
M  V30 13 1 13 14
M  V30 14 1 14 15
M  V30 15 2 14 16
M  V30 16 1 7 2
M  V30 17 1 16 9
M  V30 18 1 1 17
M  V30 19 1 3 18
M  V30 20 1 4 19
M  V30 21 1 5 20
M  V30 22 1 6 21
M  V30 23 1 7 22
M  V30 24 1 8 23
M  V30 25 1 12 24
M  V30 26 1 12 25
M  V30 27 1 15 26
M  V30 28 1 15 27
M  V30 END BOND
M  V30 END CTAB
M  END
