
     RDKit          3D

  0  0  0  0  0  0  0  0  0  0999 V3000
M  V30 BEGIN CTAB
M  V30 COUNTS 69 74 0 0 0
M  V30 BEGIN ATOM
M  V30 1 N -1.25773 0.147389 -2.45001 0
M  V30 2 N -1.33506 0.314838 -1.07064 0
M  V30 3 Si -1.32921 -1.17564 -0.155604 0 VAL=4
M  V30 4 O 0.160129 -1.77496 0.297738 0
M  V30 5 Si 1.43535 -0.649513 0.315954 0 VAL=4
M  V30 6 N 0.864339 0.997617 0.670617 0
M  V30 7 P -0.308004 1.56088 -0.466128 0
M  V30 8 S 0.505671 2.29455 -1.8153 0
M  V30 9 O -1.21353 2.81776 0.291021 0
M  V30 10 C -0.963263 4.15006 0.100397 0
M  V30 11 C -0.0889129 4.87078 0.893942 0
M  V30 12 C 0.16221 6.21508 0.699906 0
M  V30 13 C -0.468601 6.87528 -0.310463 0
M  V30 14 C -1.35633 6.19496 -1.13523 0
M  V30 15 C -1.59128 4.83839 -0.917014 0
M  V30 16 N 1.91654 1.88083 0.729596 0
M  V30 17 C 2.31399 -0.756641 -1.29543 0
M  V30 18 C 3.29917 0.146997 -1.66822 0
M  V30 19 C 3.9384 0.0273556 -2.89855 0
M  V30 20 C 3.60937 -0.981833 -3.7645 0
M  V30 21 C 2.64143 -1.88208 -3.41561 0
M  V30 22 C 2.02459 -1.75112 -2.20666 0
M  V30 23 C 2.59788 -1.14934 1.66399 0
M  V30 24 C 2.34763 -2.24534 2.4806 0
M  V30 25 C 3.20331 -2.63071 3.48891 0
M  V30 26 C 4.35871 -1.92599 3.72384 0
M  V30 27 C 4.63078 -0.835129 2.92864 0
M  V30 28 C 3.76688 -0.46412 1.92726 0
M  V30 29 C -2.20791 -2.463 -1.14087 0
M  V30 30 C -3.23186 -2.10379 -1.9996 0
M  V30 31 C -3.85245 -3.10424 -2.70937 0
M  V30 32 C -3.4681 -4.42808 -2.57183 0
M  V30 33 C -2.44543 -4.79653 -1.71567 0
M  V30 34 C -1.83586 -3.78616 -1.0142 0
M  V30 35 C -2.34434 -0.915678 1.38162 0
M  V30 36 C -2.18174 -1.85989 2.37931 0
M  V30 37 C -2.90578 -1.72625 3.54707 0
M  V30 38 C -3.7607 -0.658467 3.67177 0
M  V30 39 C -3.92553 0.283223 2.6817 0
M  V30 40 C -3.19473 0.134973 1.52147 0
M  V30 41 H -0.340647 0.370292 -2.85422 0
M  V30 42 H -2.04155 0.729134 -2.8594 0
M  V30 43 H 0.427578 4.38659 1.7003 0
M  V30 44 H 0.847596 6.7829 1.32089 0
M  V30 45 H -0.326856 7.93113 -0.530206 0
M  V30 46 H -1.85877 6.71639 -1.93835 0
M  V30 47 H -2.27735 4.32331 -1.5584 0
M  V30 48 H 2.00068 2.51325 -0.0921303 0
M  V30 49 H 2.01585 2.36699 1.64693 0
M  V30 50 H 3.57768 0.941551 -1.01857 0
M  V30 51 H 4.71143 0.722679 -3.21027 0
M  V30 52 H 4.08472 -1.10555 -4.72806 0
M  V30 53 H 2.34138 -2.70173 -4.06438 0
M  V30 54 H 1.25024 -2.47676 -1.93519 0
M  V30 55 H 1.43409 -2.79228 2.28541 0
M  V30 56 H 2.92878 -3.51098 4.08859 0
M  V30 57 H 5.02583 -2.23462 4.51747 0
M  V30 58 H 5.52667 -0.270416 3.09401 0
M  V30 59 H 3.97316 0.405608 1.28514 0
M  V30 60 H -3.52616 -1.05531 -2.09929 0
M  V30 61 H -4.65871 -2.84358 -3.38899 0
M  V30 62 H -3.94215 -5.23726 -3.121 0
M  V30 63 H -2.14235 -5.82737 -1.60518 0
M  V30 64 H -1.02436 -4.06767 -0.333143 0
M  V30 65 H -1.50192 -2.69295 2.25806 0
M  V30 66 H -2.78496 -2.47142 4.34846 0
M  V30 67 H -4.32911 -0.553195 4.58802 0
M  V30 68 H -4.60421 1.11676 2.80017 0
M  V30 69 H -3.2966 0.848064 0.728892 0
M  V30 END ATOM
M  V30 BEGIN BOND
M  V30 1 1 1 2
M  V30 2 1 2 3
M  V30 3 1 3 4
M  V30 4 1 4 5
M  V30 5 1 5 6
M  V30 6 1 6 7
M  V30 7 2 7 8
M  V30 8 1 7 9
M  V30 9 1 9 10
M  V30 10 2 10 11
M  V30 11 1 11 12
M  V30 12 2 12 13
M  V30 13 1 13 14
M  V30 14 2 14 15
M  V30 15 1 6 16
M  V30 16 1 5 17
M  V30 17 2 17 18
M  V30 18 1 18 19
M  V30 19 2 19 20
M  V30 20 1 20 21
M  V30 21 2 21 22
M  V30 22 1 5 23
M  V30 23 2 23 24
M  V30 24 1 24 25
M  V30 25 2 25 26
M  V30 26 1 26 27
M  V30 27 2 27 28
M  V30 28 1 3 29
M  V30 29 2 29 30
M  V30 30 1 30 31
M  V30 31 2 31 32
M  V30 32 1 32 33
M  V30 33 2 33 34
M  V30 34 1 3 35
M  V30 35 2 35 36
M  V30 36 1 36 37
M  V30 37 2 37 38
M  V30 38 1 38 39
M  V30 39 2 39 40
M  V30 40 1 7 2
M  V30 41 1 15 10
M  V30 42 1 22 17
M  V30 43 1 28 23
M  V30 44 1 34 29
M  V30 45 1 40 35
M  V30 46 1 1 41
M  V30 47 1 1 42
M  V30 48 1 11 43
M  V30 49 1 12 44
M  V30 50 1 13 45
M  V30 51 1 14 46
M  V30 52 1 15 47
M  V30 53 1 16 48
M  V30 54 1 16 49
M  V30 55 1 18 50
M  V30 56 1 19 51
M  V30 57 1 20 52
M  V30 58 1 21 53
M  V30 59 1 22 54
M  V30 60 1 24 55
M  V30 61 1 25 56
M  V30 62 1 26 57
M  V30 63 1 27 58
M  V30 64 1 28 59
M  V30 65 1 30 60
M  V30 66 1 31 61
M  V30 67 1 32 62
M  V30 68 1 33 63
M  V30 69 1 34 64
M  V30 70 1 36 65
M  V30 71 1 37 66
M  V30 72 1 38 67
M  V30 73 1 39 68
M  V30 74 1 40 69
M  V30 END BOND
M  V30 END CTAB
M  END
