
     RDKit          3D

  0  0  0  0  0  0  0  0  0  0999 V3000
M  V30 BEGIN CTAB
M  V30 COUNTS 42 44 0 0 0
M  V30 BEGIN ATOM
M  V30 1 N 4.48659 2.05831 2.39339 0
M  V30 2 C 3.5001 1.69036 1.91273 0
M  V30 3 C 2.26695 1.21707 1.33719 0
M  V30 4 C 1.08917 1.71319 1.87854 0
M  V30 5 N 1.07857 2.65574 2.94019 0
M  V30 6 N -0.0672466 1.26964 1.36167 0
M  V30 7 C -0.160017 0.37923 0.357249 0
M  V30 8 C 1.01089 -0.0975295 -0.162797 0
M  V30 9 C 2.26867 0.303917 0.307743 0
M  V30 10 C 3.49237 -0.212139 -0.2777 0
M  V30 11 C 3.68002 -1.57125 -0.429223 0
M  V30 12 N 4.80886 -2.00663 -0.981209 0
M  V30 13 C 5.78525 -1.18753 -1.40312 0
M  V30 14 N 5.62183 0.14927 -1.26428 0
M  V30 15 C 4.49198 0.622643 -0.710265 0
M  V30 16 N 6.96309 -1.71184 -1.98209 0
M  V30 17 C -1.46478 -0.0442777 -0.138844 0
M  V30 18 C -1.632 -0.949695 -1.16126 0
M  V30 19 C -2.93143 -1.2853 -1.55827 0
M  V30 20 C -4.04767 -0.736901 -0.956734 0
M  V30 21 C -3.88234 0.17046 0.0678409 0
M  V30 22 C -2.60263 0.495914 0.453118 0
M  V30 23 O -4.98867 0.73349 0.685989 0
M  V30 24 C -4.85088 1.66454 1.73685 0
M  V30 25 O -5.3428 -1.06597 -1.34629 0
M  V30 26 C -5.64663 -1.96836 -2.36729 0
M  V30 27 H 0.349802 2.59684 3.6919 0
M  V30 28 H 1.82497 3.39072 2.92167 0
M  V30 29 H 1.03876 -0.809023 -0.963896 0
M  V30 30 H 2.90911 -2.26588 -0.0983299 0
M  V30 31 H 4.34784 1.69165 -0.602785 0
M  V30 32 H 7.47113 -2.49156 -1.53663 0
M  V30 33 H 7.31806 -1.30857 -2.86145 0
M  V30 34 H -0.769178 -1.38833 -1.64282 0
M  V30 35 H -3.04857 -1.9962 -2.36082 0
M  V30 36 H -2.45988 1.20906 1.25857 0
M  V30 37 H -5.83426 1.69962 2.26744 0
M  V30 38 H -4.62532 2.64994 1.24729 0
M  V30 39 H -4.10086 1.37109 2.47975 0
M  V30 40 H -5.77226 -3.01996 -1.99681 0
M  V30 41 H -6.6592 -1.679 -2.76406 0
M  V30 42 H -4.91739 -1.93679 -3.17666 0
M  V30 END ATOM
M  V30 BEGIN BOND
M  V30 1 3 1 2
M  V30 2 1 2 3
M  V30 3 2 3 4
M  V30 4 1 4 5
M  V30 5 1 4 6
M  V30 6 2 6 7
M  V30 7 1 7 8
M  V30 8 2 8 9
M  V30 9 1 9 10
M  V30 10 2 10 11
M  V30 11 1 11 12
M  V30 12 2 12 13
M  V30 13 1 13 14
M  V30 14 2 14 15
M  V30 15 1 13 16
M  V30 16 1 7 17
M  V30 17 2 17 18
M  V30 18 1 18 19
M  V30 19 2 19 20
M  V30 20 1 20 21
M  V30 21 2 21 22
M  V30 22 1 21 23
M  V30 23 1 23 24
M  V30 24 1 20 25
M  V30 25 1 25 26
M  V30 26 1 9 3
M  V30 27 1 15 10
M  V30 28 1 22 17
M  V30 29 1 5 27
M  V30 30 1 5 28
M  V30 31 1 8 29
M  V30 32 1 11 30
M  V30 33 1 15 31
M  V30 34 1 16 32
M  V30 35 1 16 33
M  V30 36 1 18 34
M  V30 37 1 19 35
M  V30 38 1 22 36
M  V30 39 1 24 37
M  V30 40 1 24 38
M  V30 41 1 24 39
M  V30 42 1 26 40
M  V30 43 1 26 41
M  V30 44 1 26 42
M  V30 END BOND
M  V30 END CTAB
M  END
