
     RDKit          3D

  0  0  0  0  0  0  0  0  0  0999 V3000
M  V30 BEGIN CTAB
M  V30 COUNTS 55 58 0 0 0
M  V30 BEGIN ATOM
M  V30 1 N -4.41023 -3.87178 -1.26994 0
M  V30 2 C -3.17937 -3.19304 -1.00296 0
M  V30 3 N -2.052 -3.91139 -1.06571 0
M  V30 4 C -0.897866 -3.31026 -0.82646 0
M  V30 5 N 0.349263 -4.01029 -0.868241 0
M  V30 6 C -0.810426 -1.94394 -0.508731 0
M  V30 7 C -1.99266 -1.23171 -0.453008 0
M  V30 8 C -1.96755 0.209768 -0.165272 0
M  V30 9 O -3.18201 0.829784 -0.0802889 0
M  V30 10 C -4.00315 0.465324 0.949515 0
M  V30 11 C -5.28735 1.24074 0.791075 0
M  V30 12 C -5.55021 2.0044 -0.323846 0
M  V30 13 C -6.74359 2.68061 -0.427236 0
M  V30 14 C -7.7054 2.62539 0.555041 0
M  V30 15 C -7.43043 1.85277 1.67411 0
M  V30 16 C -6.24987 1.17863 1.78734 0
M  V30 17 N -3.12973 -1.89463 -0.703786 0
M  V30 18 C 0.492691 -1.34942 -0.25342 0
M  V30 19 C 1.09969 -1.50241 0.976598 0
M  V30 20 C 2.35128 -0.957784 1.2239 0
M  V30 21 C 3.01066 -0.257234 0.253722 0
M  V30 22 N 4.30294 0.314635 0.455084 0
M  V30 23 C 4.98663 1.01493 -0.613933 0
M  V30 24 C 6.33327 1.49465 -0.142088 0
M  V30 25 C 6.44398 2.6858 0.534251 0
M  V30 26 C 7.6794 3.098 0.954351 0
M  V30 27 N 8.80048 2.37099 0.726164 0
M  V30 28 C 8.69636 1.2 0.0619767 0
M  V30 29 Cl 10.1739 0.262273 -0.229065 0
M  V30 30 C 7.47034 0.755466 -0.374096 0
M  V30 31 C 2.42111 -0.0940607 -0.978512 0
M  V30 32 C 1.16421 -0.643757 -1.22025 0
M  V30 33 H -4.58889 -4.82033 -0.889515 0
M  V30 34 H -5.10842 -3.37719 -1.85649 0
M  V30 35 H 0.977042 -4.01066 -1.6967 0
M  V30 36 H 0.676636 -4.56425 -0.0389138 0
M  V30 37 H -1.43459 0.695274 -1.04146 0
M  V30 38 H -1.32121 0.41155 0.714704 0
M  V30 39 H -4.28588 -0.574578 1.04324 0
M  V30 40 H -3.61995 0.803315 1.94658 0
M  V30 41 H -4.81016 2.0594 -1.10706 0
M  V30 42 H -6.93319 3.27496 -1.30628 0
M  V30 43 H -8.61846 3.1647 0.437948 0
M  V30 44 H -8.1762 1.80715 2.43528 0
M  V30 45 H -6.06823 0.591358 2.67084 0
M  V30 46 H 0.63723 -2.04473 1.79183 0
M  V30 47 H 2.85651 -1.06095 2.17772 0
M  V30 48 H 4.73716 0.206547 1.39601 0
M  V30 49 H 4.37113 1.89212 -0.887335 0
M  V30 50 H 5.08433 0.342596 -1.48483 0
M  V30 51 H 5.57899 3.2954 0.739202 0
M  V30 52 H 7.82216 4.04395 1.49802 0
M  V30 53 H 7.41616 -0.18112 -0.89803 0
M  V30 54 H 2.93405 0.461021 -1.74631 0
M  V30 55 H 0.689381 -0.527998 -2.17321 0
M  V30 END ATOM
M  V30 BEGIN BOND
M  V30 1 1 1 2
M  V30 2 2 2 3
M  V30 3 1 3 4
M  V30 4 1 4 5
M  V30 5 2 4 6
M  V30 6 1 6 7
M  V30 7 1 7 8
M  V30 8 1 8 9
M  V30 9 1 9 10
M  V30 10 1 10 11
M  V30 11 2 11 12
M  V30 12 1 12 13
M  V30 13 2 13 14
M  V30 14 1 14 15
M  V30 15 2 15 16
M  V30 16 2 7 17
M  V30 17 1 6 18
M  V30 18 2 18 19
M  V30 19 1 19 20
M  V30 20 2 20 21
M  V30 21 1 21 22
M  V30 22 1 22 23
M  V30 23 1 23 24
M  V30 24 2 24 25
M  V30 25 1 25 26
M  V30 26 2 26 27
M  V30 27 1 27 28
M  V30 28 1 28 29
M  V30 29 2 28 30
M  V30 30 1 21 31
M  V30 31 2 31 32
M  V30 32 1 17 2
M  V30 33 1 32 18
M  V30 34 1 16 11
M  V30 35 1 30 24
M  V30 36 1 1 33
M  V30 37 1 1 34
M  V30 38 1 5 35
M  V30 39 1 5 36
M  V30 40 1 8 37
M  V30 41 1 8 38
M  V30 42 1 10 39
M  V30 43 1 10 40
M  V30 44 1 12 41
M  V30 45 1 13 42
M  V30 46 1 14 43
M  V30 47 1 15 44
M  V30 48 1 16 45
M  V30 49 1 19 46
M  V30 50 1 20 47
M  V30 51 1 22 48
M  V30 52 1 23 49
M  V30 53 1 23 50
M  V30 54 1 25 51
M  V30 55 1 26 52
M  V30 56 1 30 53
M  V30 57 1 31 54
M  V30 58 1 32 55
M  V30 END BOND
M  V30 END CTAB
M  END
