
     RDKit          3D

  0  0  0  0  0  0  0  0  0  0999 V3000
M  V30 BEGIN CTAB
M  V30 COUNTS 22 22 0 0 0
M  V30 BEGIN ATOM
M  V30 1 C 3.15676 0.0084727 -0.790878 0
M  V30 2 C 2.31574 0.29343 0.397182 0
M  V30 3 C 0.906664 -0.0482722 0.292558 0
M  V30 4 C 0.0415051 0.927131 -0.19442 0
M  V30 5 C -1.31962 0.696682 -0.331013 0
M  V30 6 N -2.21275 1.67942 -0.825101 0
M  V30 7 C -1.83122 -0.546146 0.0300422 0
M  V30 8 N -3.22463 -0.83463 -0.0910366 0
M  V30 9 C -0.997455 -1.53739 0.517623 0
M  V30 10 C 0.343326 -1.25117 0.631057 0
M  V30 11 H 2.75846 -0.736842 -1.48899 0
M  V30 12 H 4.15783 -0.339212 -0.455408 0
M  V30 13 H 3.35536 0.930816 -1.39521 0
M  V30 14 H 2.7238 -0.230565 1.31034 0
M  V30 15 H 2.41157 1.37737 0.633408 0
M  V30 16 H 0.39254 1.91126 -0.489012 0
M  V30 17 H -2.00477 2.11594 -1.74432 0
M  V30 18 H -3.06612 1.99136 -0.322474 0
M  V30 19 H -3.80816 -0.359665 -0.812271 0
M  V30 20 H -3.68826 -1.51891 0.530773 0
M  V30 21 H -1.40216 -2.51721 0.802042 0
M  V30 22 H 0.991604 -2.01186 1.00659 0
M  V30 END ATOM
M  V30 BEGIN BOND
M  V30 1 1 1 2
M  V30 2 1 2 3
M  V30 3 2 3 4
M  V30 4 1 4 5
M  V30 5 1 5 6
M  V30 6 2 5 7
M  V30 7 1 7 8
M  V30 8 1 7 9
M  V30 9 2 9 10
M  V30 10 1 10 3
M  V30 11 1 1 11
M  V30 12 1 1 12
M  V30 13 1 1 13
M  V30 14 1 2 14
M  V30 15 1 2 15
M  V30 16 1 4 16
M  V30 17 1 6 17
M  V30 18 1 6 18
M  V30 19 1 8 19
M  V30 20 1 8 20
M  V30 21 1 9 21
M  V30 22 1 10 22
M  V30 END BOND
M  V30 END CTAB
M  END
