
     RDKit          3D

  0  0  0  0  0  0  0  0  0  0999 V3000
M  V30 BEGIN CTAB
M  V30 COUNTS 23 24 0 0 0
M  V30 BEGIN ATOM
M  V30 1 C 3.84362 -0.900178 -0.217821 0
M  V30 2 C 2.44356 -0.41214 -0.0774673 0
M  V30 3 N 1.45411 -1.24533 -0.443419 0
M  V30 4 C 0.147842 -0.892576 -0.352971 0
M  V30 5 C -0.848072 -1.77654 -0.739214 0
M  V30 6 C -2.1637 -1.34484 -0.617942 0
M  V30 7 C -2.49074 -0.100854 -0.139005 0
M  V30 8 N -3.86843 0.302786 -0.0311404 0
M  V30 9 C -1.47242 0.747823 0.234144 0
M  V30 10 C -0.139743 0.36571 0.133089 0
M  V30 11 C 0.86719 1.21813 0.50729 0
M  V30 12 N 0.581138 2.50588 1.00503 0
M  V30 13 N 2.15182 0.805195 0.392268 0
M  V30 14 H 3.97968 -1.673 0.591861 0
M  V30 15 H 3.97941 -1.33652 -1.21804 0
M  V30 16 H 4.58966 -0.116089 -0.0270458 0
M  V30 17 H -0.586168 -2.75796 -1.11692 0
M  V30 18 H -2.94557 -2.02429 -0.915439 0
M  V30 19 H -4.11625 1.30487 -0.0359005 0
M  V30 20 H -4.63134 -0.403834 0.052763 0
M  V30 21 H -1.71335 1.72966 0.612795 0
M  V30 22 H 0.777556 3.35274 0.445456 0
M  V30 23 H 0.160188 2.65135 1.95763 0
M  V30 END ATOM
M  V30 BEGIN BOND
M  V30 1 1 1 2
M  V30 2 2 2 3
M  V30 3 1 3 4
M  V30 4 2 4 5
M  V30 5 1 5 6
M  V30 6 2 6 7
M  V30 7 1 7 8
M  V30 8 1 7 9
M  V30 9 2 9 10
M  V30 10 1 10 11
M  V30 11 1 11 12
M  V30 12 2 11 13
M  V30 13 1 13 2
M  V30 14 1 10 4
M  V30 15 1 1 14
M  V30 16 1 1 15
M  V30 17 1 1 16
M  V30 18 1 5 17
M  V30 19 1 6 18
M  V30 20 1 8 19
M  V30 21 1 8 20
M  V30 22 1 9 21
M  V30 23 1 12 22
M  V30 24 1 12 23
M  V30 END BOND
M  V30 END CTAB
M  END
