
     RDKit          3D

  0  0  0  0  0  0  0  0  0  0999 V3000
M  V30 BEGIN CTAB
M  V30 COUNTS 16 16 0 0 0
M  V30 BEGIN ATOM
M  V30 1 N -2.32222 -1.28207 -0.123486 0
M  V30 2 C -1.18225 -0.4361 -0.0428474 0
M  V30 3 C 0.0992037 -0.955544 -0.0837021 0
M  V30 4 C 1.22151 -0.162865 -0.00790525 0
M  V30 5 N 2.51609 -0.744107 -0.0542479 0
M  V30 6 C 1.1021 1.2075 0.114128 0
M  V30 7 Br 2.64777 2.34086 0.222251 0
M  V30 8 C -0.17159 1.72976 0.155269 0
M  V30 9 C -1.29079 0.937524 0.0795248 0
M  V30 10 Br -3.03485 1.68055 0.138365 0
M  V30 11 H -2.37384 -2.24093 0.282691 0
M  V30 12 H -3.16585 -0.930155 -0.618551 0
M  V30 13 H 0.170533 -2.03538 -0.179956 0
M  V30 14 H 3.32436 -0.276766 0.406742 0
M  V30 15 H 2.71217 -1.64323 -0.539882 0
M  V30 16 H -0.252352 2.81096 0.251606 0
M  V30 END ATOM
M  V30 BEGIN BOND
M  V30 1 1 1 2
M  V30 2 2 2 3
M  V30 3 1 3 4
M  V30 4 1 4 5
M  V30 5 2 4 6
M  V30 6 1 6 7
M  V30 7 1 6 8
M  V30 8 2 8 9
M  V30 9 1 9 10
M  V30 10 1 9 2
M  V30 11 1 1 11
M  V30 12 1 1 12
M  V30 13 1 3 13
M  V30 14 1 5 14
M  V30 15 1 5 15
M  V30 16 1 8 16
M  V30 END BOND
M  V30 END CTAB
M  END
