
     RDKit          3D

  0  0  0  0  0  0  0  0  0  0999 V3000
M  V30 BEGIN CTAB
M  V30 COUNTS 28 29 0 0 0
M  V30 BEGIN ATOM
M  V30 1 N -5.97763 -0.134852 -0.185977 0
M  V30 2 C -4.55382 -0.216687 -0.0579382 0
M  V30 3 C -3.9229 -0.0198222 1.15383 0
M  V30 4 C -2.54004 -0.100533 1.27208 0
M  V30 5 C -1.73916 -0.38037 0.185723 0
M  V30 6 C -2.37756 -0.578581 -1.0355 0
M  V30 7 C -3.75105 -0.496487 -1.14341 0
M  V30 8 N -0.329097 -0.455317 0.342704 0
M  V30 9 N 0.353462 0.469748 -0.224121 0
M  V30 10 C 1.78094 0.398766 -0.0684696 0
M  V30 11 C 2.43901 1.2095 0.830725 0
M  V30 12 C 3.80501 1.08947 0.928559 0
M  V30 13 C 4.54326 0.19373 0.166335 0
M  V30 14 N 5.93505 0.110089 0.303946 0
M  V30 15 C 3.88533 -0.616976 -0.732816 0
M  V30 16 C 2.51776 -0.489981 -0.82406 0
M  V30 17 H -6.61548 -0.934695 -0.0820332 0
M  V30 18 H -6.42256 0.803475 -0.401992 0
M  V30 19 H -4.54657 0.200028 2.00939 0
M  V30 20 H -2.06819 0.0575534 2.23213 0
M  V30 21 H -1.73619 -0.798231 -1.88344 0
M  V30 22 H -4.2419 -0.65085 -2.09204 0
M  V30 23 H 1.8585 1.90407 1.4205 0
M  V30 24 H 4.3407 1.72057 1.6322 0
M  V30 25 H 6.53901 0.845809 -0.0974267 0
M  V30 26 H 6.35859 -0.686784 0.806554 0
M  V30 27 H 4.47362 -1.30678 -1.31668 0
M  V30 28 H 1.99191 -1.13586 -1.54067 0
M  V30 END ATOM
M  V30 BEGIN BOND
M  V30 1 1 1 2
M  V30 2 2 2 3
M  V30 3 1 3 4
M  V30 4 2 4 5
M  V30 5 1 5 6
M  V30 6 2 6 7
M  V30 7 1 5 8
M  V30 8 2 8 9
M  V30 9 1 9 10
M  V30 10 2 10 11
M  V30 11 1 11 12
M  V30 12 2 12 13
M  V30 13 1 13 14
M  V30 14 1 13 15
M  V30 15 2 15 16
M  V30 16 1 7 2
M  V30 17 1 16 10
M  V30 18 1 1 17
M  V30 19 1 1 18
M  V30 20 1 3 19
M  V30 21 1 4 20
M  V30 22 1 6 21
M  V30 23 1 7 22
M  V30 24 1 11 23
M  V30 25 1 12 24
M  V30 26 1 14 25
M  V30 27 1 14 26
M  V30 28 1 15 27
M  V30 29 1 16 28
M  V30 END BOND
M  V30 END CTAB
M  END
