
     RDKit          3D

  0  0  0  0  0  0  0  0  0  0999 V3000
M  V30 BEGIN CTAB
M  V30 COUNTS 46 48 0 0 0
M  V30 BEGIN ATOM
M  V30 1 C 1.49993 2.57486 -0.469442 0
M  V30 2 C 2.16831 1.54064 0.393154 0
M  V30 3 C 1.61818 0.164241 0.158844 0
M  V30 4 C 0.202245 -0.0120939 0.422908 0
M  V30 5 O -0.131043 -0.729143 1.43087 0
M  V30 6 N -0.857918 0.537956 -0.332185 0
M  V30 7 C -2.22356 0.317453 0.00177874 0
M  V30 8 S -2.81176 -0.606686 1.31334 0
M  V30 9 C -4.4859 -0.405177 1.05737 0
M  V30 10 C -4.52828 0.38753 -0.0585955 0
M  V30 11 C -3.36767 0.761611 -0.60479 0
M  V30 12 C -3.24772 1.60527 -1.79488 0
M  V30 13 N -3.15707 2.28599 -2.74997 0
M  V30 14 C -5.94606 0.707105 -0.485757 0
M  V30 15 C -6.77521 -0.548989 -0.538322 0
M  V30 16 C -6.74888 -1.35817 0.710298 0
M  V30 17 C -5.74122 -0.868741 1.73014 0
M  V30 18 S 2.60647 -1.01879 1.13411 0
M  V30 19 C 4.27327 -1.07958 0.499017 0
M  V30 20 N 5.2035 -0.226236 0.996383 0
M  V30 21 C 6.47911 -0.210638 0.571056 0
M  V30 22 N 7.42479 0.699585 1.11771 0
M  V30 23 C 6.87329 -1.0894 -0.407854 0
M  V30 24 C 5.93068 -1.95904 -0.916569 0
M  V30 25 N 4.67022 -1.93264 -0.456284 0
M  V30 26 N 6.35359 -2.86299 -1.92929 0
M  V30 27 H 0.509254 2.86941 -0.0593086 0
M  V30 28 H 1.43629 2.19512 -1.51456 0
M  V30 29 H 2.19617 3.46524 -0.477521 0
M  V30 30 H 2.07484 1.82527 1.47522 0
M  V30 31 H 3.27544 1.57339 0.194593 0
M  V30 32 H 1.80256 -0.128401 -0.917215 0
M  V30 33 H -0.640745 1.11621 -1.16143 0
M  V30 34 H -6.33457 1.38475 0.307664 0
M  V30 35 H -5.97714 1.21244 -1.44931 0
M  V30 36 H -7.81576 -0.220937 -0.773795 0
M  V30 37 H -6.40824 -1.13729 -1.41006 0
M  V30 38 H -7.741 -1.34645 1.20937 0
M  V30 39 H -6.50376 -2.40876 0.452266 0
M  V30 40 H -6.13001 0.00682241 2.27689 0
M  V30 41 H -5.49872 -1.73074 2.3861 0
M  V30 42 H 8.00754 0.407261 1.93302 0
M  V30 43 H 7.57828 1.66198 0.749568 0
M  V30 44 H 7.89326 -1.05647 -0.728518 0
M  V30 45 H 5.94731 -2.75305 -2.88141 0
M  V30 46 H 7.0477 -3.60974 -1.72087 0
M  V30 END ATOM
M  V30 BEGIN BOND
M  V30 1 1 1 2
M  V30 2 1 2 3
M  V30 3 1 3 4
M  V30 4 2 4 5
M  V30 5 1 4 6
M  V30 6 1 6 7
M  V30 7 1 7 8
M  V30 8 1 8 9
M  V30 9 2 9 10
M  V30 10 1 10 11
M  V30 11 1 11 12
M  V30 12 3 12 13
M  V30 13 1 10 14
M  V30 14 1 14 15
M  V30 15 1 15 16
M  V30 16 1 16 17
M  V30 17 1 3 18
M  V30 18 1 18 19
M  V30 19 2 19 20
M  V30 20 1 20 21
M  V30 21 1 21 22
M  V30 22 2 21 23
M  V30 23 1 23 24
M  V30 24 2 24 25
M  V30 25 1 24 26
M  V30 26 2 11 7
M  V30 27 1 25 19
M  V30 28 1 17 9
M  V30 29 1 1 27
M  V30 30 1 1 28
M  V30 31 1 1 29
M  V30 32 1 2 30
M  V30 33 1 2 31
M  V30 34 1 3 32
M  V30 35 1 6 33
M  V30 36 1 14 34
M  V30 37 1 14 35
M  V30 38 1 15 36
M  V30 39 1 15 37
M  V30 40 1 16 38
M  V30 41 1 16 39
M  V30 42 1 17 40
M  V30 43 1 17 41
M  V30 44 1 22 42
M  V30 45 1 22 43
M  V30 46 1 23 44
M  V30 47 1 26 45
M  V30 48 1 26 46
M  V30 END BOND
M  V30 END CTAB
M  END
