
     RDKit          3D

  0  0  0  0  0  0  0  0  0  0999 V3000
M  V30 BEGIN CTAB
M  V30 COUNTS 30 31 0 0 0
M  V30 BEGIN ATOM
M  V30 1 N -4.6802 2.32271 0.411852 0
M  V30 2 N -4.3051 1.01193 0.385484 0
M  V30 3 C -3.93964 -0.265245 0.359796 0
M  V30 4 O -4.67461 -1.32139 0.451731 0
M  V30 5 C -2.50221 -0.642561 0.201078 0
M  V30 6 C -1.6646 -0.884558 1.26097 0
M  V30 7 C -0.335244 -1.2353 1.06551 0
M  V30 8 C 0.183614 -1.35447 -0.215383 0
M  V30 9 C -0.659256 -1.11137 -1.2851 0
M  V30 10 C -1.98974 -0.759362 -1.06291 0
M  V30 11 C 1.57792 -1.74206 -0.475442 0
M  V30 12 N 2.53712 -0.682719 -0.228383 0
M  V30 13 C 3.15319 -0.449589 0.935231 0
M  V30 14 C 3.98898 0.614693 0.785307 0
M  V30 15 C 3.86196 1.03223 -0.535474 0
M  V30 16 N 2.96908 0.202978 -1.08417 0
M  V30 17 N 4.55444 2.12956 -1.15028 0
M  V30 18 Br 5.14511 1.45156 2.06243 0
M  V30 19 H -4.90588 2.73225 -0.530215 0
M  V30 20 H -4.10017 2.9351 1.00903 0
M  V30 21 H -5.64076 0.677228 0.516347 0
M  V30 22 H -2.04214 -0.800664 2.2638 0
M  V30 23 H 0.299434 -1.4083 1.88947 0
M  V30 24 H -0.37207 -1.16822 -2.32999 0
M  V30 25 H -2.65618 -0.57299 -1.91263 0
M  V30 26 H 1.89568 -2.66028 0.0902366 0
M  V30 27 H 1.64375 -2.05325 -1.54738 0
M  V30 28 H 3.01819 -1.00832 1.85276 0
M  V30 29 H 5.2836 1.89472 -1.85768 0
M  V30 30 H 4.35572 3.1157 -0.912646 0
M  V30 END ATOM
M  V30 BEGIN BOND
M  V30 1 1 1 2
M  V30 2 1 2 3
M  V30 3 2 3 4
M  V30 4 1 3 5
M  V30 5 2 5 6
M  V30 6 1 6 7
M  V30 7 2 7 8
M  V30 8 1 8 9
M  V30 9 2 9 10
M  V30 10 1 8 11
M  V30 11 1 11 12
M  V30 12 1 12 13
M  V30 13 2 13 14
M  V30 14 1 14 15
M  V30 15 2 15 16
M  V30 16 1 15 17
M  V30 17 1 14 18
M  V30 18 1 10 5
M  V30 19 1 16 12
M  V30 20 1 1 19
M  V30 21 1 1 20
M  V30 22 1 2 21
M  V30 23 1 6 22
M  V30 24 1 7 23
M  V30 25 1 9 24
M  V30 26 1 10 25
M  V30 27 1 11 26
M  V30 28 1 11 27
M  V30 29 1 13 28
M  V30 30 1 17 29
M  V30 31 1 17 30
M  V30 END BOND
M  V30 END CTAB
M  END
