
     RDKit          3D

  0  0  0  0  0  0  0  0  0  0999 V3000
M  V30 BEGIN CTAB
M  V30 COUNTS 33 34 0 0 0
M  V30 BEGIN ATOM
M  V30 1 C -5.3593 -1.4351 -0.0280642 0
M  V30 2 C -3.95956 -0.916351 -0.0685203 0
M  V30 3 C -3.58583 -0.0189698 0.889512 0
M  V30 4 C -2.29902 0.477228 0.876958 0
M  V30 5 C -1.36855 0.103573 -0.0672171 0
M  V30 6 C -1.77244 -0.80321 -1.0221 0
M  V30 7 C -3.05629 -1.30774 -1.02167 0
M  V30 8 N -0.0464672 0.641768 -0.0438735 0
M  V30 9 N 1.00279 -0.176369 0.0407671 0
M  V30 10 C 2.2646 0.302108 0.0649084 0
M  V30 11 C 3.40048 -0.638221 0.159435 0
M  V30 12 O 4.56626 -0.21346 0.182662 0
M  V30 13 N 3.16726 -2.03481 0.224416 0
M  V30 14 N 4.25929 -2.88731 0.31256 0
M  V30 15 C 2.541 1.64704 0.00435288 0
M  V30 16 N 3.87859 2.09908 0.0328998 0
M  V30 17 C 1.46816 2.50255 -0.0831974 0
M  V30 18 C 1.72839 3.9109 -0.147759 0
M  V30 19 N 1.93735 5.05488 -0.217421 0
M  V30 20 C 0.193588 1.96408 -0.104657 0
M  V30 21 O -0.800032 2.74821 -0.185308 0
M  V30 22 H -5.71467 -1.42748 1.03384 0
M  V30 23 H -5.37565 -2.48986 -0.375168 0
M  V30 24 H -6.00655 -0.764274 -0.595325 0
M  V30 25 H -4.2447 0.337939 1.67594 0
M  V30 26 H -1.99595 1.18249 1.62518 0
M  V30 27 H -1.07348 -1.12068 -1.77831 0
M  V30 28 H -3.36978 -2.02799 -1.78381 0
M  V30 29 H 2.17503 -2.36974 0.203234 0
M  V30 30 H 4.00848 -3.81302 0.71836 0
M  V30 31 H 4.66738 -3.06534 -0.629463 0
M  V30 32 H 4.3827 2.1674 0.936594 0
M  V30 33 H 4.38693 2.37069 -0.829758 0
M  V30 END ATOM
M  V30 BEGIN BOND
M  V30 1 1 1 2
M  V30 2 2 2 3
M  V30 3 1 3 4
M  V30 4 2 4 5
M  V30 5 1 5 6
M  V30 6 2 6 7
M  V30 7 1 5 8
M  V30 8 1 8 9
M  V30 9 2 9 10
M  V30 10 1 10 11
M  V30 11 2 11 12
M  V30 12 1 11 13
M  V30 13 1 13 14
M  V30 14 1 10 15
M  V30 15 1 15 16
M  V30 16 2 15 17
M  V30 17 1 17 18
M  V30 18 3 18 19
M  V30 19 1 17 20
M  V30 20 2 20 21
M  V30 21 1 7 2
M  V30 22 1 20 8
M  V30 23 1 1 22
M  V30 24 1 1 23
M  V30 25 1 1 24
M  V30 26 1 3 25
M  V30 27 1 4 26
M  V30 28 1 6 27
M  V30 29 1 7 28
M  V30 30 1 13 29
M  V30 31 1 14 30
M  V30 32 1 14 31
M  V30 33 1 16 32
M  V30 34 1 16 33
M  V30 END BOND
M  V30 END CTAB
M  END
