
     RDKit          3D

  0  0  0  0  0  0  0  0  0  0999 V3000
M  V30 BEGIN CTAB
M  V30 COUNTS 44 44 0 0 0
M  V30 BEGIN ATOM
M  V30 1 N -1.63009 -1.29552 3.03228 0
M  V30 2 C -2.27102 -0.301945 2.2295 0
M  V30 3 C -1.78573 -0.419018 0.786515 0
M  V30 4 N -0.33431 -0.207095 0.832998 0
M  V30 5 C 0.502732 -0.293277 -0.297107 0
M  V30 6 O 0.0894856 -0.567082 -1.45421 0
M  V30 7 C 1.93505 -0.0626959 -0.176505 0
M  V30 8 C 2.80083 -0.508735 -1.16544 0
M  V30 9 C 4.13373 -0.274696 -1.03368 0
M  V30 10 C 4.67443 0.387697 0.0393344 0
M  V30 11 C 3.80003 0.821046 1.00714 0
M  V30 12 C 2.427 0.601236 0.909407 0
M  V30 13 C 6.13865 0.63683 0.170116 0
M  V30 14 N 6.83069 0.0840721 -0.971492 0
M  V30 15 C -2.35194 0.690746 -0.052586 0
M  V30 16 C -3.83279 0.768725 -0.130108 0
M  V30 17 C -4.54604 -0.404826 -0.690157 0
M  V30 18 C -4.15011 1.97445 -1.02947 0
M  V30 19 C -2.02967 -1.79565 0.286288 0
M  V30 20 H -2.22845 -2.07765 3.3232 0
M  V30 21 H -0.805 -1.66119 2.5104 0
M  V30 22 H -1.92133 0.696949 2.58074 0
M  V30 23 H -3.36503 -0.29844 2.30014 0
M  V30 24 H 0.0748851 0.0146678 1.7636 0
M  V30 25 H 2.36047 -1.0268 -2.00049 0
M  V30 26 H 4.78312 -0.643841 -1.83762 0
M  V30 27 H 4.17126 1.34273 1.86407 0
M  V30 28 H 1.79947 0.972234 1.7024 0
M  V30 29 H 6.36222 1.71351 0.292593 0
M  V30 30 H 6.53253 0.127175 1.07449 0
M  V30 31 H 6.84043 -0.945195 -0.940931 0
M  V30 32 H 6.48803 0.488853 -1.87161 0
M  V30 33 H -1.90821 0.677711 -1.04335 0
M  V30 34 H -2.02344 1.64469 0.461624 0
M  V30 35 H -4.28909 1.03362 0.84791 0
M  V30 36 H -4.94839 -1.09963 0.0814839 0
M  V30 37 H -4.03696 -0.952 -1.48777 0
M  V30 38 H -5.49111 -0.0115531 -1.18172 0
M  V30 39 H -3.31033 2.69716 -1.03507 0
M  V30 40 H -5.10375 2.44409 -0.726851 0
M  V30 41 H -4.28786 1.64501 -2.08758 0
M  V30 42 H -2.95593 -2.2765 0.618804 0
M  V30 43 H -1.96425 -1.90052 -0.812188 0
M  V30 44 H -1.17417 -2.43935 0.664552 0
M  V30 END ATOM
M  V30 BEGIN BOND
M  V30 1 1 1 2
M  V30 2 1 2 3
M  V30 3 1 3 4
M  V30 4 1 4 5
M  V30 5 2 5 6
M  V30 6 1 5 7
M  V30 7 2 7 8
M  V30 8 1 8 9
M  V30 9 2 9 10
M  V30 10 1 10 11
M  V30 11 2 11 12
M  V30 12 1 10 13
M  V30 13 1 13 14
M  V30 14 1 3 15
M  V30 15 1 15 16
M  V30 16 1 16 17
M  V30 17 1 16 18
M  V30 18 1 3 19
M  V30 19 1 12 7
M  V30 20 1 1 20
M  V30 21 1 1 21
M  V30 22 1 2 22
M  V30 23 1 2 23
M  V30 24 1 4 24
M  V30 25 1 8 25
M  V30 26 1 9 26
M  V30 27 1 11 27
M  V30 28 1 12 28
M  V30 29 1 13 29
M  V30 30 1 13 30
M  V30 31 1 14 31
M  V30 32 1 14 32
M  V30 33 1 15 33
M  V30 34 1 15 34
M  V30 35 1 16 35
M  V30 36 1 17 36
M  V30 37 1 17 37
M  V30 38 1 17 38
M  V30 39 1 18 39
M  V30 40 1 18 40
M  V30 41 1 18 41
M  V30 42 1 19 42
M  V30 43 1 19 43
M  V30 44 1 19 44
M  V30 END BOND
M  V30 END CTAB
M  END
