
     RDKit          3D

  0  0  0  0  0  0  0  0  0  0999 V3000
M  V30 BEGIN CTAB
M  V30 COUNTS 28 28 0 0 0
M  V30 BEGIN ATOM
M  V30 1 N -3.80565 -0.41703 -0.980061 0
M  V30 2 C -2.64651 -1.00451 -0.36947 0
M  V30 3 C -1.6512 0.0775821 0.0145894 0
M  V30 4 O -1.29948 0.737161 -1.1516 0
M  V30 5 C 0.0808959 0.78545 -1.33516 0
M  V30 6 C 0.675536 1.29663 -0.0376505 0
M  V30 7 N 0.643193 0.233843 0.89698 0
M  V30 8 C -0.47424 -0.617666 0.658363 0
M  V30 9 S 2.06619 -0.653621 1.09261 0
M  V30 10 O 3.23667 0.189638 1.52545 0
M  V30 11 O 1.94718 -1.75389 2.11425 0
M  V30 12 N 2.47026 -1.40164 -0.415808 0
M  V30 13 C 2.05595 1.85357 -0.306543 0
M  V30 14 H -3.57948 0.507 -1.41737 0
M  V30 15 H -4.51315 -0.229798 -0.221284 0
M  V30 16 H -2.97336 -1.54307 0.565238 0
M  V30 17 H -2.19277 -1.71215 -1.0763 0
M  V30 18 H -2.13354 0.724885 0.757393 0
M  V30 19 H 0.438948 -0.247135 -1.51515 0
M  V30 20 H 0.361782 1.39509 -2.19819 0
M  V30 21 H 0.0230796 2.16875 0.251158 0
M  V30 22 H -0.161316 -1.45202 0.0125253 0
M  V30 23 H -0.853388 -1.07149 1.59551 0
M  V30 24 H 3.38471 -1.92869 -0.342903 0
M  V30 25 H 1.76171 -2.11546 -0.695381 0
M  V30 26 H 2.74164 1.14623 -0.774652 0
M  V30 27 H 1.93165 2.69518 -1.04928 0
M  V30 28 H 2.4647 2.33717 0.600085 0
M  V30 END ATOM
M  V30 BEGIN BOND
M  V30 1 1 1 2
M  V30 2 1 2 3
M  V30 3 1 3 4
M  V30 4 1 4 5
M  V30 5 1 5 6
M  V30 6 1 6 7
M  V30 7 1 7 8
M  V30 8 1 7 9
M  V30 9 2 9 10
M  V30 10 2 9 11
M  V30 11 1 9 12
M  V30 12 1 6 13
M  V30 13 1 8 3
M  V30 14 1 1 14
M  V30 15 1 1 15
M  V30 16 1 2 16
M  V30 17 1 2 17
M  V30 18 1 3 18
M  V30 19 1 5 19
M  V30 20 1 5 20
M  V30 21 1 6 21
M  V30 22 1 8 22
M  V30 23 1 8 23
M  V30 24 1 12 24
M  V30 25 1 12 25
M  V30 26 1 13 26
M  V30 27 1 13 27
M  V30 28 1 13 28
M  V30 END BOND
M  V30 END CTAB
M  END
