
     RDKit          3D

  0  0  0  0  0  0  0  0  0  0999 V3000
M  V30 BEGIN CTAB
M  V30 COUNTS 43 43 0 0 0
M  V30 BEGIN ATOM
M  V30 1 N -8.60694 0.404587 -0.759094 0
M  V30 2 C -7.33155 -0.194734 -1.04371 0
M  V30 3 C -6.2837 0.14336 -0.0146458 0
M  V30 4 C -4.99251 -0.537425 -0.414676 0
M  V30 5 N -3.96228 -0.239412 0.541991 0
M  V30 6 C -2.67292 -0.77834 0.357905 0
M  V30 7 O -2.41123 -1.5105 -0.622563 0
M  V30 8 C -1.61617 -0.468598 1.34518 0
M  V30 9 S -0.0901359 -1.28708 0.841781 0
M  V30 10 C 0.523518 -0.531698 -0.723029 0
M  V30 11 C 0.911377 0.883412 -0.381088 0
M  V30 12 O 1.89467 0.924964 0.559357 0
M  V30 13 C 3.19324 0.499062 0.459672 0
M  V30 14 C 4.03237 0.600193 1.58979 0
M  V30 15 C 5.33613 0.188315 1.52587 0
M  V30 16 C 5.90614 -0.338679 0.388465 0
M  V30 17 C 5.1014 -0.443101 -0.721446 0
M  V30 18 C 3.76502 -0.0251555 -0.671716 0
M  V30 19 S 7.57494 -0.851696 0.352239 0
M  V30 20 O 8.04308 -1.2628 1.73842 0
M  V30 21 O 7.79191 -2.02611 -0.550817 0
M  V30 22 N 8.62122 0.457093 -0.131908 0
M  V30 23 H -8.65106 0.866695 0.171608 0
M  V30 24 H -9.00093 0.965432 -1.5275 0
M  V30 25 H -7.37842 -1.30158 -1.09708 0
M  V30 26 H -6.99659 0.200128 -2.02663 0
M  V30 27 H -6.14534 1.22838 0.141132 0
M  V30 28 H -6.62954 -0.255786 0.981634 0
M  V30 29 H -4.73353 -0.188585 -1.43698 0
M  V30 30 H -5.12046 -1.64154 -0.455922 0
M  V30 31 H -4.18799 0.371158 1.35644 0
M  V30 32 H -1.92107 -0.764259 2.38085 0
M  V30 33 H -1.4969 0.655795 1.30441 0
M  V30 34 H -0.318367 -0.553408 -1.46505 0
M  V30 35 H 1.33054 -1.1833 -1.04355 0
M  V30 36 H -0.0173479 1.42875 -0.018469 0
M  V30 37 H 1.15683 1.46475 -1.32459 0
M  V30 38 H 3.62228 1.00987 2.50529 0
M  V30 39 H 6.01359 0.254867 2.38965 0
M  V30 40 H 5.51223 -0.857897 -1.65343 0
M  V30 41 H 3.18328 -0.101973 -1.58504 0
M  V30 42 H 8.94985 0.276245 -1.12362 0
M  V30 43 H 8.10136 1.35473 -0.139114 0
M  V30 END ATOM
M  V30 BEGIN BOND
M  V30 1 1 1 2
M  V30 2 1 2 3
M  V30 3 1 3 4
M  V30 4 1 4 5
M  V30 5 1 5 6
M  V30 6 2 6 7
M  V30 7 1 6 8
M  V30 8 1 8 9
M  V30 9 1 9 10
M  V30 10 1 10 11
M  V30 11 1 11 12
M  V30 12 1 12 13
M  V30 13 2 13 14
M  V30 14 1 14 15
M  V30 15 2 15 16
M  V30 16 1 16 17
M  V30 17 2 17 18
M  V30 18 1 16 19
M  V30 19 2 19 20
M  V30 20 2 19 21
M  V30 21 1 19 22
M  V30 22 1 18 13
M  V30 23 1 1 23
M  V30 24 1 1 24
M  V30 25 1 2 25
M  V30 26 1 2 26
M  V30 27 1 3 27
M  V30 28 1 3 28
M  V30 29 1 4 29
M  V30 30 1 4 30
M  V30 31 1 5 31
M  V30 32 1 8 32
M  V30 33 1 8 33
M  V30 34 1 10 34
M  V30 35 1 10 35
M  V30 36 1 11 36
M  V30 37 1 11 37
M  V30 38 1 14 38
M  V30 39 1 15 39
M  V30 40 1 17 40
M  V30 41 1 18 41
M  V30 42 1 22 42
M  V30 43 1 22 43
M  V30 END BOND
M  V30 END CTAB
M  END
