
     RDKit          3D

  0  0  0  0  0  0  0  0  0  0999 V3000
M  V30 BEGIN CTAB
M  V30 COUNTS 63 67 0 0 0
M  V30 BEGIN ATOM
M  V30 1 N 7.23822 1.18644 -0.572219 0
M  V30 2 C 6.43627 0.413465 0.259471 0 CFG=2
M  V30 3 C 7.29651 -0.659774 0.904667 0
M  V30 4 C 6.27563 -1.79888 1.02309 0
M  V30 5 O 5.66953 -1.7369 -0.221156 0
M  V30 6 C 5.40903 -0.397796 -0.489823 0 CFG=1
M  V30 7 C 4.00327 -0.113942 0.0081688 0
M  V30 8 C 3.61396 1.32191 -0.147754 0
M  V30 9 C 2.28951 1.49473 -0.850665 0
M  V30 10 N 1.31132 0.575127 -0.348682 0
M  V30 11 C 1.63271 -0.835965 -0.350483 0
M  V30 12 C 3.07261 -1.05843 -0.733409 0
M  V30 13 C 0.0192289 0.978677 0.160632 0
M  V30 14 O -0.192492 2.19577 0.135097 0
M  V30 15 N -0.871947 0.0180161 0.629212 0
M  V30 16 C -2.17677 0.140531 1.15431 0
M  V30 17 C -3.19619 0.632944 0.212585 0
M  V30 18 N -2.90453 1.94126 -0.276097 0
M  V30 19 C -3.31518 -0.346409 -0.949584 0
M  V30 20 C -4.26515 0.102521 -2.00724 0
M  V30 21 C -5.61263 0.38155 -1.37616 0
M  V30 22 C -5.49489 1.32063 -0.197665 0
M  V30 23 C -4.58237 0.72323 0.848689 0
M  V30 24 C -5.12659 -0.59249 1.2868 0
M  V30 25 C -5.20783 -1.54508 0.106115 0
M  V30 26 C -3.79675 -1.67607 -0.420422 0
M  V30 27 C -6.15038 -0.957812 -0.896492 0
M  V30 28 H 7.7916 1.8526 -0.10752 0
M  V30 29 H 7.09813 1.19408 -1.54529 0
M  V30 30 H 5.96 0.976272 1.08764 0
M  V30 31 H 8.07572 -1.03452 0.198211 0
M  V30 32 H 7.69573 -0.362111 1.88149 0
M  V30 33 H 5.6159 -1.55659 1.86164 0
M  V30 34 H 6.79315 -2.77451 1.12287 0
M  V30 35 H 5.44885 -0.189612 -1.58622 0
M  V30 36 H 3.96759 -0.402625 1.08755 0
M  V30 37 H 3.56866 1.87053 0.818462 0
M  V30 38 H 4.3909 1.84951 -0.754176 0
M  V30 39 H 2.45384 1.22335 -1.93399 0
M  V30 40 H 1.97927 2.54717 -0.797496 0
M  V30 41 H 1.4975 -1.22061 0.684626 0
M  V30 42 H 0.999906 -1.35348 -1.08925 0
M  V30 43 H 3.35848 -2.08018 -0.486639 0
M  V30 44 H 3.2185 -0.845544 -1.81425 0
M  V30 45 H -0.530756 -1.03204 0.597059 0
M  V30 46 H -2.09886 0.931902 1.98251 0
M  V30 47 H -2.506 -0.762058 1.7347 0
M  V30 48 H -3.15046 2.68683 0.400898 0
M  V30 49 H -3.21606 2.15652 -1.22603 0
M  V30 50 H -2.30169 -0.514002 -1.37339 0
M  V30 51 H -4.43472 -0.795757 -2.67286 0
M  V30 52 H -3.90899 0.89233 -2.6646 0
M  V30 53 H -6.31066 0.850377 -2.10012 0
M  V30 54 H -5.1156 2.29828 -0.49803 0
M  V30 55 H -6.50876 1.4071 0.241781 0
M  V30 56 H -4.5489 1.3952 1.73194 0
M  V30 57 H -4.56072 -1.068 2.09785 0
M  V30 58 H -6.15119 -0.43751 1.63946 0
M  V30 59 H -5.57618 -2.52416 0.410573 0
M  V30 60 H -3.15841 -2.10983 0.346585 0
M  V30 61 H -3.85816 -2.35921 -1.31505 0
M  V30 62 H -7.12995 -0.816943 -0.4449 0
M  V30 63 H -6.22173 -1.60005 -1.80422 0
M  V30 END ATOM
M  V30 BEGIN BOND
M  V30 1 1 1 2
M  V30 2 1 2 3
M  V30 3 1 3 4
M  V30 4 1 4 5
M  V30 5 1 5 6
M  V30 6 1 6 7
M  V30 7 1 7 8
M  V30 8 1 8 9
M  V30 9 1 9 10
M  V30 10 1 10 11
M  V30 11 1 11 12
M  V30 12 1 10 13
M  V30 13 2 13 14
M  V30 14 1 13 15
M  V30 15 1 15 16
M  V30 16 1 16 17
M  V30 17 1 17 18
M  V30 18 1 17 19
M  V30 19 1 19 20
M  V30 20 1 20 21
M  V30 21 1 21 22
M  V30 22 1 22 23
M  V30 23 1 23 24
M  V30 24 1 24 25
M  V30 25 1 25 26
M  V30 26 1 25 27
M  V30 27 1 6 2
M  V30 28 1 12 7
M  V30 29 1 23 17
M  V30 30 1 26 19
M  V30 31 1 27 21
M  V30 32 1 1 28
M  V30 33 1 1 29
M  V30 34 1 2 30 CFG=1
M  V30 35 1 3 31
M  V30 36 1 3 32
M  V30 37 1 4 33
M  V30 38 1 4 34
M  V30 39 1 6 35 CFG=3
M  V30 40 1 7 36
M  V30 41 1 8 37
M  V30 42 1 8 38
M  V30 43 1 9 39
M  V30 44 1 9 40
M  V30 45 1 11 41
M  V30 46 1 11 42
M  V30 47 1 12 43
M  V30 48 1 12 44
M  V30 49 1 15 45
M  V30 50 1 16 46
M  V30 51 1 16 47
M  V30 52 1 18 48
M  V30 53 1 18 49
M  V30 54 1 19 50
M  V30 55 1 20 51
M  V30 56 1 20 52
M  V30 57 1 21 53
M  V30 58 1 22 54
M  V30 59 1 22 55
M  V30 60 1 23 56
M  V30 61 1 24 57
M  V30 62 1 24 58
M  V30 63 1 25 59
M  V30 64 1 26 60
M  V30 65 1 26 61
M  V30 66 1 27 62
M  V30 67 1 27 63
M  V30 END BOND
M  V30 END CTAB
M  END
