
     RDKit          3D

  0  0  0  0  0  0  0  0  0  0999 V3000
M  V30 BEGIN CTAB
M  V30 COUNTS 32 33 0 0 0
M  V30 BEGIN ATOM
M  V30 1 C 4.27636 0.653968 -0.311772 0
M  V30 2 N 3.32479 -0.224433 0.263477 0
M  V30 3 C 2.59505 -1.03945 -0.649082 0
M  V30 4 C 1.3749 -1.58587 0.0613148 0
M  V30 5 N 0.537849 -0.458743 0.395755 0
M  V30 6 C 1.19755 0.676948 1.01191 0
M  V30 7 C 2.60372 0.272153 1.37901 0
M  V30 8 C -0.861346 -0.427353 0.149506 0
M  V30 9 N -1.50545 -1.46045 -0.417252 0
M  V30 10 C -2.83171 -1.45439 -0.661026 0
M  V30 11 C -3.60623 -0.363178 -0.332673 0
M  V30 12 C -2.95739 0.706705 0.250886 0
M  V30 13 C -1.58799 0.687896 0.497155 0
M  V30 14 N -3.62308 1.8906 0.639578 0
M  V30 15 N -5.00675 -0.288477 -0.560542 0
M  V30 16 H 4.4821 1.51021 0.385733 0
M  V30 17 H 5.27939 0.154753 -0.43145 0
M  V30 18 H 3.98342 1.09366 -1.28869 0
M  V30 19 H 3.21667 -1.89712 -1.02202 0
M  V30 20 H 2.22662 -0.465247 -1.51701 0
M  V30 21 H 1.74748 -2.03612 1.013 0
M  V30 22 H 0.833444 -2.33574 -0.54254 0
M  V30 23 H 1.20578 1.48588 0.269759 0
M  V30 24 H 0.606568 0.91985 1.92369 0
M  V30 25 H 2.5353 -0.525014 2.14068 0
M  V30 26 H 3.09651 1.18568 1.7908 0
M  V30 27 H -3.31911 -2.32552 -1.12858 0
M  V30 28 H -1.0798 1.54595 0.96285 0
M  V30 29 H -3.75301 2.11649 1.63615 0
M  V30 30 H -3.97569 2.52297 -0.0941473 0
M  V30 31 H -5.38646 0.0166313 -1.48601 0
M  V30 32 H -5.62948 -0.55324 0.241605 0
M  V30 END ATOM
M  V30 BEGIN BOND
M  V30 1 1 1 2
M  V30 2 1 2 3
M  V30 3 1 3 4
M  V30 4 1 4 5
M  V30 5 1 5 6
M  V30 6 1 6 7
M  V30 7 1 5 8
M  V30 8 2 8 9
M  V30 9 1 9 10
M  V30 10 2 10 11
M  V30 11 1 11 12
M  V30 12 2 12 13
M  V30 13 1 12 14
M  V30 14 1 11 15
M  V30 15 1 7 2
M  V30 16 1 13 8
M  V30 17 1 1 16
M  V30 18 1 1 17
M  V30 19 1 1 18
M  V30 20 1 3 19
M  V30 21 1 3 20
M  V30 22 1 4 21
M  V30 23 1 4 22
M  V30 24 1 6 23
M  V30 25 1 6 24
M  V30 26 1 7 25
M  V30 27 1 7 26
M  V30 28 1 10 27
M  V30 29 1 13 28
M  V30 30 1 14 29
M  V30 31 1 14 30
M  V30 32 1 15 31
M  V30 33 1 15 32
M  V30 END BOND
M  V30 END CTAB
M  END
