
     RDKit          3D

  0  0  0  0  0  0  0  0  0  0999 V3000
M  V30 BEGIN CTAB
M  V30 COUNTS 36 37 0 0 0
M  V30 BEGIN ATOM
M  V30 1 N 6.77018 0.743322 -0.103683 0
M  V30 2 C 6.23515 -0.525228 0.255175 0
M  V30 3 N 7.04908 -1.46531 0.520721 0
M  V30 4 N 4.83037 -0.732071 0.314122 0
M  V30 5 C 3.89914 0.297525 0.0233041 0
M  V30 6 O 4.31319 1.46154 -0.30599 0
M  V30 7 C 2.47102 0.0147766 0.103752 0
M  V30 8 C 1.57777 1.01931 -0.179976 0
M  V30 9 N 2.04275 2.29901 -0.542001 0
M  V30 10 N 0.27465 0.730059 -0.0977118 0
M  V30 11 C -0.186358 -0.477421 0.243893 0
M  V30 12 N -1.57036 -0.727173 0.315044 0
M  V30 13 C -2.46741 0.348279 0.0112622 0
M  V30 14 C -3.89025 0.0562329 0.0810834 0
M  V30 15 C -4.44547 -1.17245 0.239084 0
M  V30 16 C -5.8268 -1.31232 0.293849 0
M  V30 17 C -6.67571 -0.228375 0.19172 0
M  V30 18 Cl -8.42725 -0.448432 0.266121 0
M  V30 19 C -6.11726 1.0243 0.030746 0
M  V30 20 C -4.76215 1.1463 -0.0211715 0
M  V30 21 C 0.709105 -1.47114 0.524561 0
M  V30 22 Cl 0.226089 -3.08602 0.981364 0
M  V30 23 N 2.05196 -1.23287 0.456698 0
M  V30 24 H 6.93875 0.93354 -1.10765 0
M  V30 25 H 6.96485 1.41845 0.674068 0
M  V30 26 H 6.68598 -2.41803 0.790222 0
M  V30 27 H 4.46193 -1.6657 0.578236 0
M  V30 28 H 2.07958 3.03781 0.195672 0
M  V30 29 H 2.3577 2.5807 -1.4907 0
M  V30 30 H -1.90266 -1.6939 0.590394 0
M  V30 31 H -2.24976 0.629975 -1.06314 0
M  V30 32 H -2.19811 1.28614 0.580636 0
M  V30 33 H -3.83663 -2.04917 0.321844 0
M  V30 34 H -6.21535 -2.32016 0.421663 0
M  V30 35 H -6.81165 1.84962 -0.0457133 0
M  V30 36 H -4.35606 2.14887 -0.148878 0
M  V30 END ATOM
M  V30 BEGIN BOND
M  V30 1 1 1 2
M  V30 2 2 2 3 CFG=2
M  V30 3 1 2 4
M  V30 4 1 4 5
M  V30 5 2 5 6
M  V30 6 1 5 7
M  V30 7 2 7 8
M  V30 8 1 8 9
M  V30 9 1 8 10
M  V30 10 2 10 11
M  V30 11 1 11 12
M  V30 12 1 12 13
M  V30 13 1 13 14
M  V30 14 2 14 15
M  V30 15 1 15 16
M  V30 16 2 16 17
M  V30 17 1 17 18
M  V30 18 1 17 19
M  V30 19 2 19 20
M  V30 20 1 11 21
M  V30 21 1 21 22
M  V30 22 2 21 23
M  V30 23 1 23 7
M  V30 24 1 20 14
M  V30 25 1 1 24
M  V30 26 1 1 25
M  V30 27 1 3 26
M  V30 28 1 4 27
M  V30 29 1 9 28
M  V30 30 1 9 29
M  V30 31 1 12 30
M  V30 32 1 13 31
M  V30 33 1 13 32
M  V30 34 1 15 33
M  V30 35 1 16 34
M  V30 36 1 19 35
M  V30 37 1 20 36
M  V30 END BOND
M  V30 END CTAB
M  END
