
     RDKit          3D

  0  0  0  0  0  0  0  0  0  0999 V3000
M  V30 BEGIN CTAB
M  V30 COUNTS 46 48 0 0 0
M  V30 BEGIN ATOM
M  V30 1 C -3.7855 2.89064 -1.11319 0
M  V30 2 O -4.85019 1.99489 -0.93392 0
M  V30 3 C -4.66673 0.660616 -0.62655 0
M  V30 4 C -5.77341 -0.150834 -0.467408 0
M  V30 5 C -5.6136 -1.48212 -0.161261 0
M  V30 6 C -4.35092 -2.01012 -0.0124856 0
M  V30 7 C -3.21954 -1.22503 -0.165074 0
M  V30 8 C -3.41379 0.0946103 -0.469359 0
M  V30 9 C -1.86037 -1.83828 0.00523076 0
M  V30 10 C -1.50124 -1.69752 1.45264 0
M  V30 11 N -0.22826 -2.21671 1.82687 0
M  V30 12 C 1.02672 -1.66802 1.47948 0
M  V30 13 C 1.08448 -0.494812 0.76783 0
M  V30 14 C 2.32361 0.052144 0.403275 0
M  V30 15 N 3.4085 -0.612929 0.777147 0
M  V30 16 C 3.37135 -1.76208 1.47433 0
M  V30 17 N 2.18345 -2.2786 1.81873 0
M  V30 18 N 4.56445 -2.42273 1.84294 0
M  V30 19 C 2.33628 1.3096 -0.358935 0
M  V30 20 C 3.36882 2.32193 0.0950844 0
M  V30 21 C 4.33839 1.72932 -0.883034 0
M  V30 22 C 3.16546 1.13107 -1.6337 0
M  V30 23 N 5.02893 2.68698 -1.72463 0
M  V30 24 H -3.00024 2.39172 -1.73405 0
M  V30 25 H -3.36582 3.11036 -0.11191 0
M  V30 26 H -4.15948 3.79216 -1.63654 0
M  V30 27 H -6.77249 0.259773 -0.583498 0
M  V30 28 H -6.46724 -2.12665 -0.0342744 0
M  V30 29 H -4.17964 -3.06401 0.230892 0
M  V30 30 H -2.54657 0.72736 -0.593352 0
M  V30 31 H -1.98655 -2.94381 -0.19625 0
M  V30 32 H -1.14417 -1.41135 -0.706921 0
M  V30 33 H -1.47925 -0.591378 1.66983 0
M  V30 34 H -2.27496 -2.09405 2.12757 0
M  V30 35 H -0.225885 -3.09555 2.41881 0
M  V30 36 H 0.208434 0.0639758 0.467423 0
M  V30 37 H 5.21574 -2.70782 1.06063 0
M  V30 38 H 4.81572 -2.6316 2.82855 0
M  V30 39 H 1.36212 1.74221 -0.595125 0
M  V30 40 H 3.01389 3.34145 -0.129341 0
M  V30 41 H 3.67621 2.21381 1.14445 0
M  V30 42 H 5.04859 1.0106 -0.465548 0
M  V30 43 H 2.80716 1.74858 -2.47256 0
M  V30 44 H 3.35254 0.0832785 -1.90466 0
M  V30 45 H 5.96043 2.85887 -1.28178 0
M  V30 46 H 5.20459 2.31005 -2.67103 0
M  V30 END ATOM
M  V30 BEGIN BOND
M  V30 1 1 1 2
M  V30 2 1 2 3
M  V30 3 2 3 4
M  V30 4 1 4 5
M  V30 5 2 5 6
M  V30 6 1 6 7
M  V30 7 2 7 8
M  V30 8 1 7 9
M  V30 9 1 9 10
M  V30 10 1 10 11
M  V30 11 1 11 12
M  V30 12 2 12 13
M  V30 13 1 13 14
M  V30 14 2 14 15
M  V30 15 1 15 16
M  V30 16 2 16 17
M  V30 17 1 16 18
M  V30 18 1 14 19
M  V30 19 1 19 20
M  V30 20 1 20 21
M  V30 21 1 21 22
M  V30 22 1 21 23
M  V30 23 1 8 3
M  V30 24 1 17 12
M  V30 25 1 22 19
M  V30 26 1 1 24
M  V30 27 1 1 25
M  V30 28 1 1 26
M  V30 29 1 4 27
M  V30 30 1 5 28
M  V30 31 1 6 29
M  V30 32 1 8 30
M  V30 33 1 9 31
M  V30 34 1 9 32
M  V30 35 1 10 33
M  V30 36 1 10 34
M  V30 37 1 11 35
M  V30 38 1 13 36
M  V30 39 1 18 37
M  V30 40 1 18 38
M  V30 41 1 19 39
M  V30 42 1 20 40
M  V30 43 1 20 41
M  V30 44 1 21 42
M  V30 45 1 22 43
M  V30 46 1 22 44
M  V30 47 1 23 45
M  V30 48 1 23 46
M  V30 END BOND
M  V30 END CTAB
M  END
