
     RDKit          3D

  0  0  0  0  0  0  0  0  0  0999 V3000
M  V30 BEGIN CTAB
M  V30 COUNTS 51 53 0 0 0
M  V30 BEGIN ATOM
M  V30 1 N 5.70757 3.25752 -0.903492 0
M  V30 2 C 5.58927 1.91687 -0.410441 0
M  V30 3 N 4.69444 1.60548 0.548583 0
M  V30 4 C 4.60897 0.340381 0.988379 0
M  V30 5 C 3.64731 -0.00545018 2.03343 0
M  V30 6 O 2.35722 -0.140219 1.53089 0
M  V30 7 C 1.89488 -1.01004 0.583286 0
M  V30 8 O 2.72082 -1.81088 0.0782496 0
M  V30 9 C 0.492248 -0.980991 0.198662 0
M  V30 10 C 0.0800819 -1.87774 -0.759262 0
M  V30 11 C -1.24587 -1.85317 -1.12565 0
M  V30 12 C -2.1412 -0.945544 -0.541496 0
M  V30 13 C -1.7272 -0.0481339 0.41776 0
M  V30 14 C -0.382577 -0.0886352 0.774678 0
M  V30 15 C -2.68987 0.904174 1.02907 0
M  V30 16 C -2.1899 1.31638 2.42313 0
M  V30 17 C -2.87532 2.16287 0.253631 0
M  V30 18 C -3.95772 0.125536 1.26501 0
M  V30 19 C -4.49263 -0.617822 0.106275 0
M  V30 20 C -3.55018 -0.971132 -0.984658 0
M  V30 21 C -3.86263 -2.37376 -1.53546 0
M  V30 22 C -3.7631 -0.0383969 -2.16874 0
M  V30 23 N 5.41723 -0.58588 0.462498 0
M  V30 24 C 6.32113 -0.28898 -0.501268 0
M  V30 25 N 6.38841 0.986326 -0.926243 0
M  V30 26 N 7.14701 -1.32359 -1.0138 0
M  V30 27 H 5.75489 3.38354 -1.95499 0
M  V30 28 H 5.74592 4.0734 -0.269736 0
M  V30 29 H 3.59366 0.796295 2.83044 0
M  V30 30 H 3.9658 -0.917145 2.62293 0
M  V30 31 H 0.741253 -2.59071 -1.23051 0
M  V30 32 H -1.5803 -2.55798 -1.88163 0
M  V30 33 H -0.0673624 0.625173 1.53341 0
M  V30 34 H -3.03379 1.51291 3.10294 0
M  V30 35 H -1.64103 0.452276 2.82123 0
M  V30 36 H -1.48248 2.16935 2.3501 0
M  V30 37 H -2.22864 2.2493 -0.643673 0
M  V30 38 H -2.6567 3.09259 0.853028 0
M  V30 39 H -3.9461 2.2876 -0.0545283 0
M  V30 40 H -4.7724 0.789755 1.65662 0
M  V30 41 H -3.73956 -0.578227 2.09663 0
M  V30 42 H -5.40849 -0.109466 -0.321751 0
M  V30 43 H -4.92144 -1.59265 0.490811 0
M  V30 44 H -3.49846 -2.41305 -2.57291 0
M  V30 45 H -4.9836 -2.39994 -1.60531 0
M  V30 46 H -3.48318 -3.16002 -0.884934 0
M  V30 47 H -4.55793 0.708206 -1.97341 0
M  V30 48 H -2.82248 0.49618 -2.41576 0
M  V30 49 H -4.06361 -0.567133 -3.09413 0
M  V30 50 H 7.29671 -1.44457 -2.034 0
M  V30 51 H 7.60092 -1.96086 -0.339155 0
M  V30 END ATOM
M  V30 BEGIN BOND
M  V30 1 1 1 2
M  V30 2 2 2 3
M  V30 3 1 3 4
M  V30 4 1 4 5
M  V30 5 1 5 6
M  V30 6 1 6 7
M  V30 7 2 7 8
M  V30 8 1 7 9
M  V30 9 2 9 10
M  V30 10 1 10 11
M  V30 11 2 11 12
M  V30 12 1 12 13
M  V30 13 2 13 14
M  V30 14 1 13 15
M  V30 15 1 15 16
M  V30 16 1 15 17
M  V30 17 1 15 18
M  V30 18 1 18 19
M  V30 19 1 19 20
M  V30 20 1 20 21
M  V30 21 1 20 22
M  V30 22 2 4 23
M  V30 23 1 23 24
M  V30 24 2 24 25
M  V30 25 1 24 26
M  V30 26 1 25 2
M  V30 27 1 14 9
M  V30 28 1 20 12
M  V30 29 1 1 27
M  V30 30 1 1 28
M  V30 31 1 5 29
M  V30 32 1 5 30
M  V30 33 1 10 31
M  V30 34 1 11 32
M  V30 35 1 14 33
M  V30 36 1 16 34
M  V30 37 1 16 35
M  V30 38 1 16 36
M  V30 39 1 17 37
M  V30 40 1 17 38
M  V30 41 1 17 39
M  V30 42 1 18 40
M  V30 43 1 18 41
M  V30 44 1 19 42
M  V30 45 1 19 43
M  V30 46 1 21 44
M  V30 47 1 21 45
M  V30 48 1 21 46
M  V30 49 1 22 47
M  V30 50 1 22 48
M  V30 51 1 22 49
M  V30 52 1 26 50
M  V30 53 1 26 51
M  V30 END BOND
M  V30 END CTAB
M  END
