
     RDKit          3D

  0  0  0  0  0  0  0  0  0  0999 V3000
M  V30 BEGIN CTAB
M  V30 COUNTS 29 29 0 0 0
M  V30 BEGIN ATOM
M  V30 1 O -0.0818586 -0.997288 -1.87166 0
M  V30 2 C 0.044496 0.0062803 -0.914126 0
M  V30 3 C 1.40072 0.0183991 -0.314162 0
M  V30 4 C 2.01953 -1.1511 0.0824226 0
M  V30 5 C 3.28828 -1.14063 0.643753 0
M  V30 6 C 3.972 0.0623388 0.821069 0
M  V30 7 C 3.35688 1.21039 0.428359 0
M  V30 8 C 2.09673 1.19379 -0.128514 0
M  V30 9 C -1.03189 -0.114552 0.145596 0
M  V30 10 C -2.41075 -0.0676877 -0.440226 0
M  V30 11 N -3.34915 -0.193511 0.680487 0
M  V30 12 C -2.7159 1.26595 -1.0915 0
M  V30 13 N -0.870617 -1.42099 0.770027 0
M  V30 14 H 0.0438017 -1.85237 -1.40224 0
M  V30 15 H -0.127964 0.97242 -1.43619 0
M  V30 16 H 1.53303 -2.12481 -0.0314018 0
M  V30 17 H 3.8009 -2.02936 0.963889 0
M  V30 18 H 4.96414 0.103589 1.25657 0
M  V30 19 H 3.84601 2.17931 0.543911 0
M  V30 20 H 1.65032 2.15169 -0.426521 0
M  V30 21 H -0.938769 0.643361 0.92796 0
M  V30 22 H -2.60724 -0.878245 -1.15847 0
M  V30 23 H -2.93534 0.405815 1.44748 0
M  V30 24 H -4.26137 0.293405 0.442511 0
M  V30 25 H -2.66509 2.08573 -0.345578 0
M  V30 26 H -3.7601 1.19971 -1.4671 0
M  V30 27 H -2.07383 1.49814 -1.93904 0
M  V30 28 H -1.75381 -1.97281 0.770735 0
M  V30 29 H -0.433169 -1.34696 1.71239 0
M  V30 END ATOM
M  V30 BEGIN BOND
M  V30 1 1 1 2
M  V30 2 1 2 3
M  V30 3 2 3 4
M  V30 4 1 4 5
M  V30 5 2 5 6
M  V30 6 1 6 7
M  V30 7 2 7 8
M  V30 8 1 2 9
M  V30 9 1 9 10
M  V30 10 1 10 11
M  V30 11 1 10 12
M  V30 12 1 9 13
M  V30 13 1 8 3
M  V30 14 1 1 14
M  V30 15 1 2 15
M  V30 16 1 4 16
M  V30 17 1 5 17
M  V30 18 1 6 18
M  V30 19 1 7 19
M  V30 20 1 8 20
M  V30 21 1 9 21
M  V30 22 1 10 22
M  V30 23 1 11 23
M  V30 24 1 11 24
M  V30 25 1 12 25
M  V30 26 1 12 26
M  V30 27 1 12 27
M  V30 28 1 13 28
M  V30 29 1 13 29
M  V30 END BOND
M  V30 END CTAB
M  END
