
     RDKit          3D

  0  0  0  0  0  0  0  0  0  0999 V3000
M  V30 BEGIN CTAB
M  V30 COUNTS 27 27 0 0 0
M  V30 BEGIN ATOM
M  V30 1 N -2.53622 -1.12758 1.33391 0
M  V30 2 C -1.20725 -0.514583 1.35631 0
M  V30 3 C -0.700904 -0.388519 -0.0588919 0
M  V30 4 C 0.661836 0.234105 0.0108228 0
M  V30 5 N 1.69791 -0.434904 -0.439076 0
M  V30 6 C 2.90531 0.0799672 -0.381534 0
M  V30 7 S 2.62204 1.59792 0.34136 0
M  V30 8 C 0.918272 1.4778 0.532399 0
M  V30 9 C 0.0207784 2.50773 1.11437 0
M  V30 10 N 4.15765 -0.498716 -0.821851 0
M  V30 11 C -0.649576 -1.79514 -0.621825 0
M  V30 12 C -1.67907 0.390204 -0.847068 0
M  V30 13 H -2.89506 -1.0223 0.368289 0
M  V30 14 H -2.52398 -2.10604 1.68512 0
M  V30 15 H -0.527102 -1.20806 1.93604 0
M  V30 16 H -1.30748 0.417421 1.90047 0
M  V30 17 H -0.957408 2.58622 0.597816 0
M  V30 18 H -0.0628876 2.43887 2.21419 0
M  V30 19 H 0.519271 3.48529 0.922945 0
M  V30 20 H 4.98797 -0.46696 -0.186155 0
M  V30 21 H 4.23905 -0.942713 -1.75786 0
M  V30 22 H 0.175659 -1.78963 -1.37943 0
M  V30 23 H -0.329305 -2.52169 0.159633 0
M  V30 24 H -1.56929 -2.08037 -1.13656 0
M  V30 25 H -2.4334 0.880841 -0.178154 0
M  V30 26 H -1.23633 1.1053 -1.56478 0
M  V30 27 H -2.29047 -0.304464 -1.46217 0
M  V30 END ATOM
M  V30 BEGIN BOND
M  V30 1 1 1 2
M  V30 2 1 2 3
M  V30 3 1 3 4
M  V30 4 1 4 5
M  V30 5 2 5 6
M  V30 6 1 6 7
M  V30 7 1 7 8
M  V30 8 1 8 9
M  V30 9 1 6 10
M  V30 10 1 3 11
M  V30 11 1 3 12
M  V30 12 2 8 4
M  V30 13 1 1 13
M  V30 14 1 1 14
M  V30 15 1 2 15
M  V30 16 1 2 16
M  V30 17 1 9 17
M  V30 18 1 9 18
M  V30 19 1 9 19
M  V30 20 1 10 20
M  V30 21 1 10 21
M  V30 22 1 11 22
M  V30 23 1 11 23
M  V30 24 1 11 24
M  V30 25 1 12 25
M  V30 26 1 12 26
M  V30 27 1 12 27
M  V30 END BOND
M  V30 END CTAB
M  END
