
     RDKit          3D

  0  0  0  0  0  0  0  0  0  0999 V3000
M  V30 BEGIN CTAB
M  V30 COUNTS 18 17 0 0 0
M  V30 BEGIN ATOM
M  V30 1 N 2.09854 0.307602 -0.734231 0
M  V30 2 C 1.15245 -0.0877696 0.2522 0
M  V30 3 N 1.61503 -0.467845 1.38196 0
M  V30 4 C -0.297598 -0.0493416 -0.0462559 0
M  V30 5 N -0.562241 -0.933594 -1.19153 0
M  V30 6 C -0.659897 1.33095 -0.490178 0
M  V30 7 C -1.1333 -0.56561 1.08898 0
M  V30 8 H 2.4352 -0.382501 -1.44851 0
M  V30 9 H 2.42602 1.29082 -0.705597 0
M  V30 10 H 1.06757 -0.784119 2.19876 0
M  V30 11 H -0.581532 -1.89308 -0.833821 0
M  V30 12 H -1.39169 -0.612076 -1.69983 0
M  V30 13 H -0.628665 2.07831 0.325809 0
M  V30 14 H 0.0972832 1.65018 -1.23655 0
M  V30 15 H -1.64334 1.37402 -1.02205 0
M  V30 16 H -0.663452 -1.52801 1.4237 0
M  V30 17 H -1.16616 0.0884537 1.96583 0
M  V30 18 H -2.16422 -0.816384 0.771316 0
M  V30 END ATOM
M  V30 BEGIN BOND
M  V30 1 1 1 2
M  V30 2 2 2 3 CFG=2
M  V30 3 1 2 4
M  V30 4 1 4 5
M  V30 5 1 4 6
M  V30 6 1 4 7
M  V30 7 1 1 8
M  V30 8 1 1 9
M  V30 9 1 3 10
M  V30 10 1 5 11
M  V30 11 1 5 12
M  V30 12 1 6 13
M  V30 13 1 6 14
M  V30 14 1 6 15
M  V30 15 1 7 16
M  V30 16 1 7 17
M  V30 17 1 7 18
M  V30 END BOND
M  V30 END CTAB
M  END
