
     RDKit          3D

  0  0  0  0  0  0  0  0  0  0999 V3000
M  V30 BEGIN CTAB
M  V30 COUNTS 40 42 0 0 0
M  V30 BEGIN ATOM
M  V30 1 N -3.85165 2.07946 -1.55252 0
M  V30 2 C -3.20232 1.29193 -0.518057 0
M  V30 3 C -4.14485 0.309326 0.134164 0
M  V30 4 C -3.6002 -1.07691 0.163084 0
M  V30 5 C -2.15345 -1.17678 0.588886 0
M  V30 6 N -1.37859 -0.291618 -0.233947 0
M  V30 7 C -2.12888 0.469887 -1.21771 0
M  V30 8 C 0.00919535 -0.112158 -0.158396 0
M  V30 9 O 0.571005 0.714459 -0.96252 0
M  V30 10 C 0.945316 -0.777713 0.763597 0
M  V30 11 N 0.348249 -1.6943 1.67391 0
M  V30 12 C 1.74051 0.312123 1.45852 0
M  V30 13 C 2.92891 0.470523 0.61848 0
M  V30 14 C 3.09138 -0.574246 -0.244318 0
M  V30 15 C 1.99331 -1.53385 -0.0365225 0
M  V30 16 C 4.15714 -0.591933 -1.11056 0
M  V30 17 C 5.09983 0.441774 -1.1409 0
M  V30 18 C 4.93345 1.49191 -0.271172 0
M  V30 19 C 3.86517 1.49733 0.588473 0
M  V30 20 H -4.76792 1.69889 -1.83218 0
M  V30 21 H -3.90775 3.10007 -1.26061 0
M  V30 22 H -2.77516 1.93598 0.268471 0
M  V30 23 H -5.06541 0.298024 -0.521164 0
M  V30 24 H -4.50969 0.659681 1.11862 0
M  V30 25 H -3.68339 -1.59186 -0.824695 0
M  V30 26 H -4.25665 -1.6778 0.838578 0
M  V30 27 H -1.87119 -2.24402 0.496067 0
M  V30 28 H -2.11674 -0.931695 1.67434 0
M  V30 29 H -1.44834 1.16486 -1.75253 0
M  V30 30 H -2.60741 -0.250502 -1.89247 0
M  V30 31 H 0.501168 -2.6623 1.38081 0
M  V30 32 H 0.593314 -1.465 2.64288 0
M  V30 33 H 1.17972 1.29168 1.41918 0
M  V30 34 H 1.9433 0.0897811 2.50672 0
M  V30 35 H 1.56688 -1.90481 -1.00656 0
M  V30 36 H 2.37403 -2.37335 0.559306 0
M  V30 37 H 4.30662 -1.41678 -1.80877 0
M  V30 38 H 5.91897 0.386162 -1.83616 0
M  V30 39 H 5.64117 2.3076 -0.266119 0
M  V30 40 H 3.76096 2.33618 1.26024 0
M  V30 END ATOM
M  V30 BEGIN BOND
M  V30 1 1 1 2
M  V30 2 1 2 3
M  V30 3 1 3 4
M  V30 4 1 4 5
M  V30 5 1 5 6
M  V30 6 1 6 7
M  V30 7 1 6 8
M  V30 8 2 8 9
M  V30 9 1 8 10
M  V30 10 1 10 11
M  V30 11 1 10 12
M  V30 12 1 12 13
M  V30 13 2 13 14
M  V30 14 1 14 15
M  V30 15 1 14 16
M  V30 16 2 16 17
M  V30 17 1 17 18
M  V30 18 2 18 19
M  V30 19 1 7 2
M  V30 20 1 15 10
M  V30 21 1 19 13
M  V30 22 1 1 20
M  V30 23 1 1 21
M  V30 24 1 2 22
M  V30 25 1 3 23
M  V30 26 1 3 24
M  V30 27 1 4 25
M  V30 28 1 4 26
M  V30 29 1 5 27
M  V30 30 1 5 28
M  V30 31 1 7 29
M  V30 32 1 7 30
M  V30 33 1 11 31
M  V30 34 1 11 32
M  V30 35 1 12 33
M  V30 36 1 12 34
M  V30 37 1 15 35
M  V30 38 1 15 36
M  V30 39 1 16 37
M  V30 40 1 17 38
M  V30 41 1 18 39
M  V30 42 1 19 40
M  V30 END BOND
M  V30 END CTAB
M  END
