
     RDKit          3D

  0  0  0  0  0  0  0  0  0  0999 V3000
M  V30 BEGIN CTAB
M  V30 COUNTS 36 38 0 0 0
M  V30 BEGIN ATOM
M  V30 1 C -0.308839 -1.99031 -1.19164 0
M  V30 2 C -1.41849 -1.00876 -1.14821 0 CFG=1
M  V30 3 F -2.3618 -1.36701 -2.12132 0
M  V30 4 C -2.19044 -1.04298 0.17611 0 CFG=2
M  V30 5 O -3.23605 -1.93494 0.14402 0
M  V30 6 C -2.6628 0.399409 0.231973 0 CFG=1
M  V30 7 C -3.0839 0.804772 1.6213 0
M  V30 8 O -4.25491 0.191662 1.99522 0
M  V30 9 O -1.46012 1.06495 -0.0801994 0
M  V30 10 C -1.01771 0.416832 -1.25371 0 CFG=1
M  V30 11 N 0.365154 0.643202 -1.50658 0
M  V30 12 C 0.969459 0.955298 -2.66363 0
M  V30 13 N 2.28582 1.07788 -2.44815 0
M  V30 14 C 2.54294 0.847523 -1.15757 0
M  V30 15 C 1.33619 0.571307 -0.55071 0
M  V30 16 N 1.32069 0.301714 0.763239 0
M  V30 17 C 2.47085 0.298058 1.49533 0
M  V30 18 N 2.446 0.011039 2.88903 0
M  V30 19 N 3.63161 0.572219 0.870016 0
M  V30 20 C 3.73503 0.851829 -0.438539 0
M  V30 21 N 4.96897 1.13751 -1.07498 0
M  V30 22 H 0.530042 -1.64669 -1.81589 0
M  V30 23 H 0.0182108 -2.30211 -0.162027 0
M  V30 24 H -0.667691 -2.94468 -1.66585 0
M  V30 25 H -1.51891 -1.29867 1.02018 0
M  V30 26 H -3.00314 -2.7937 -0.25057 0
M  V30 27 H -3.43583 0.540785 -0.520175 0
M  V30 28 H -2.24929 0.606363 2.31601 0
M  V30 29 H -3.26888 1.89899 1.59433 0
M  V30 30 H -5.00133 0.847846 2.16583 0
M  V30 31 H -1.64228 0.879598 -2.07417 0
M  V30 32 H 0.480462 1.08801 -3.61877 0
M  V30 33 H 3.24922 -0.451889 3.34434 0
M  V30 34 H 1.62171 0.264526 3.45695 0
M  V30 35 H 5.21863 2.12863 -1.24033 0
M  V30 36 H 5.5914 0.381793 -1.36072 0
M  V30 END ATOM
M  V30 BEGIN BOND
M  V30 1 1 1 2
M  V30 2 1 2 3 CFG=3
M  V30 3 1 2 4
M  V30 4 1 4 5
M  V30 5 1 4 6
M  V30 6 1 6 7
M  V30 7 1 7 8
M  V30 8 1 6 9
M  V30 9 1 9 10
M  V30 10 1 10 11
M  V30 11 1 11 12
M  V30 12 2 12 13
M  V30 13 1 13 14
M  V30 14 2 14 15
M  V30 15 1 15 16
M  V30 16 2 16 17
M  V30 17 1 17 18
M  V30 18 1 17 19
M  V30 19 2 19 20
M  V30 20 1 20 21
M  V30 21 1 10 2
M  V30 22 1 15 11
M  V30 23 1 20 14
M  V30 24 1 1 22
M  V30 25 1 1 23
M  V30 26 1 1 24
M  V30 27 1 4 25 CFG=1
M  V30 28 1 5 26
M  V30 29 1 6 27 CFG=3
M  V30 30 1 7 28
M  V30 31 1 7 29
M  V30 32 1 8 30
M  V30 33 1 10 31 CFG=3
M  V30 34 1 12 32
M  V30 35 1 18 33
M  V30 36 1 18 34
M  V30 37 1 21 35
M  V30 38 1 21 36
M  V30 END BOND
M  V30 END CTAB
M  END
