
     RDKit          3D

  0  0  0  0  0  0  0  0  0  0999 V3000
M  V30 BEGIN CTAB
M  V30 COUNTS 28 28 0 0 0
M  V30 BEGIN ATOM
M  V30 1 N 3.34342 1.07755 0.425766 0
M  V30 2 N 3.18734 -0.220318 -0.0408528 0
M  V30 3 C 2.16484 -0.665278 -0.65833 0
M  V30 4 N 1.07471 0.180928 -0.916822 0
M  V30 5 C -0.200363 0.0905309 -0.216598 0
M  V30 6 C 0.0812949 0.304333 1.25667 0
M  V30 7 C -1.09893 1.14759 -0.785083 0
M  V30 8 C -2.40093 1.10306 -0.0211309 0
M  V30 9 C -2.87735 -0.309585 0.166173 0
M  V30 10 O -2.18868 -1.24665 -0.549112 0
M  V30 11 C -0.830185 -1.23808 -0.427035 0
M  V30 12 N 2.12751 -2.00591 -1.08225 0
M  V30 13 H 4.21156 1.26822 0.998076 0
M  V30 14 H 2.6401 1.82131 0.220683 0
M  V30 15 H 1.24148 0.908002 -1.67226 0
M  V30 16 H 0.906037 -0.379859 1.53672 0
M  V30 17 H -0.772837 0.0559934 1.89468 0
M  V30 18 H 0.347203 1.36656 1.47811 0
M  V30 19 H -1.29544 0.887998 -1.84055 0
M  V30 20 H -0.663142 2.15304 -0.757534 0
M  V30 21 H -2.30119 1.56164 0.982931 0
M  V30 22 H -3.11898 1.73942 -0.583819 0
M  V30 23 H -3.94188 -0.328556 -0.217698 0
M  V30 24 H -2.99379 -0.583311 1.25431 0
M  V30 25 H -0.417251 -1.65094 -1.39517 0
M  V30 26 H -0.446172 -1.93134 0.355738 0
M  V30 27 H 2.04148 -2.79474 -0.380758 0
M  V30 28 H 2.18016 -2.31161 -2.08686 0
M  V30 END ATOM
M  V30 BEGIN BOND
M  V30 1 1 1 2
M  V30 2 2 2 3 CFG=2
M  V30 3 1 3 4
M  V30 4 1 4 5
M  V30 5 1 5 6
M  V30 6 1 5 7
M  V30 7 1 7 8
M  V30 8 1 8 9
M  V30 9 1 9 10
M  V30 10 1 10 11
M  V30 11 1 3 12
M  V30 12 1 11 5
M  V30 13 1 1 13
M  V30 14 1 1 14
M  V30 15 1 4 15
M  V30 16 1 6 16
M  V30 17 1 6 17
M  V30 18 1 6 18
M  V30 19 1 7 19
M  V30 20 1 7 20
M  V30 21 1 8 21
M  V30 22 1 8 22
M  V30 23 1 9 23
M  V30 24 1 9 24
M  V30 25 1 11 25
M  V30 26 1 11 26
M  V30 27 1 12 27
M  V30 28 1 12 28
M  V30 END BOND
M  V30 END CTAB
M  END
