
     RDKit          3D

  0  0  0  0  0  0  0  0  0  0999 V3000
M  V30 BEGIN CTAB
M  V30 COUNTS 17 17 0 0 0
M  V30 BEGIN ATOM
M  V30 1 N -1.17709 2.60323 0.176797 0
M  V30 2 C -0.686151 1.25695 0.0667693 0
M  V30 3 N -1.54627 0.265503 -0.232439 0
M  V30 4 C -1.16479 -1.02807 -0.359455 0
M  V30 5 N -2.11577 -2.04488 -0.663126 0
M  V30 6 N 0.144366 -1.28727 -0.170395 0
M  V30 7 C 1.04684 -0.336978 0.133039 0
M  V30 8 C 0.650647 0.97842 0.258836 0
M  V30 9 C 2.455 -0.732889 0.337139 0
M  V30 10 F 3.21122 0.276465 0.88552 0
M  V30 11 F 2.48585 -1.83954 1.12959 0
M  V30 12 F 2.98698 -1.11834 -0.905083 0
M  V30 13 H -2.18348 2.74907 0.189335 0
M  V30 14 H -0.506615 3.37754 0.22844 0
M  V30 15 H -1.84237 -3.04997 -0.684202 0
M  V30 16 H -3.10295 -1.83944 -0.87561 0
M  V30 17 H 1.34458 1.7702 0.484846 0
M  V30 END ATOM
M  V30 BEGIN BOND
M  V30 1 1 1 2
M  V30 2 2 2 3
M  V30 3 1 3 4
M  V30 4 1 4 5
M  V30 5 2 4 6
M  V30 6 1 6 7
M  V30 7 2 7 8
M  V30 8 1 7 9
M  V30 9 1 9 10
M  V30 10 1 9 11
M  V30 11 1 9 12
M  V30 12 1 8 2
M  V30 13 1 1 13
M  V30 14 1 1 14
M  V30 15 1 5 15
M  V30 16 1 5 16
M  V30 17 1 8 17
M  V30 END BOND
M  V30 END CTAB
M  END
