
     RDKit          3D

  0  0  0  0  0  0  0  0  0  0999 V3000
M  V30 BEGIN CTAB
M  V30 COUNTS 28 29 0 0 0
M  V30 BEGIN ATOM
M  V30 1 N -4.11169 0.958109 0.712243 0
M  V30 2 C -2.80065 0.41059 0.494816 0
M  V30 3 C -2.65123 -0.873992 -0.0172588 0
M  V30 4 N -3.80829 -1.63313 -0.32068 0
M  V30 5 C -1.40697 -1.4216 -0.234778 0
M  V30 6 C -0.275519 -0.669627 0.0657813 0
M  V30 7 O 1.08116 -0.934368 -0.0388851 0
M  V30 8 C 1.76992 0.287843 -0.0690473 0
M  V30 9 C 3.06825 0.264026 0.659228 0
M  V30 10 C 4.10345 -0.696744 0.233971 0
M  V30 11 F 5.19745 -0.49384 1.11204 0
M  V30 12 F 4.5627 -0.601728 -1.03993 0
M  V30 13 F 3.69457 -2.00899 0.509278 0
M  V30 14 O 0.876784 1.0888 0.767636 0
M  V30 15 C -0.396047 0.607 0.574704 0
M  V30 16 C -1.67549 1.13941 0.786143 0
M  V30 17 C 1.76518 0.997489 -1.37865 0
M  V30 18 F 2.29665 0.330076 -2.43622 0
M  V30 19 F 2.48553 2.188 -1.18623 0
M  V30 20 F 0.457022 1.36392 -1.67295 0
M  V30 21 H -4.38018 1.79163 0.151682 0
M  V30 22 H -4.72036 0.493869 1.4158 0
M  V30 23 H -3.94282 -2.62811 -0.0282447 0
M  V30 24 H -4.56406 -1.13511 -0.878091 0
M  V30 25 H -1.27958 -2.42689 -0.635506 0
M  V30 26 H 2.90623 0.176783 1.77129 0
M  V30 27 H 3.51369 1.29961 0.53366 0
M  V30 28 H -1.7657 2.12697 1.17983 0
M  V30 END ATOM
M  V30 BEGIN BOND
M  V30 1 1 1 2
M  V30 2 2 2 3
M  V30 3 1 3 4
M  V30 4 1 3 5
M  V30 5 2 5 6
M  V30 6 1 6 7
M  V30 7 1 7 8
M  V30 8 1 8 9
M  V30 9 1 9 10
M  V30 10 1 10 11
M  V30 11 1 10 12
M  V30 12 1 10 13
M  V30 13 1 8 14
M  V30 14 1 14 15
M  V30 15 2 15 16
M  V30 16 1 8 17
M  V30 17 1 17 18
M  V30 18 1 17 19
M  V30 19 1 17 20
M  V30 20 1 16 2
M  V30 21 1 15 6
M  V30 22 1 1 21
M  V30 23 1 1 22
M  V30 24 1 4 23
M  V30 25 1 4 24
M  V30 26 1 5 25
M  V30 27 1 9 26
M  V30 28 1 9 27
M  V30 29 1 16 28
M  V30 END BOND
M  V30 END CTAB
M  END
