
     RDKit          3D

  0  0  0  0  0  0  0  0  0  0999 V3000
M  V30 BEGIN CTAB
M  V30 COUNTS 26 26 0 0 0
M  V30 BEGIN ATOM
M  V30 1 C -3.23894 1.1292 -0.183108 0
M  V30 2 O -2.21483 0.756202 0.676598 0
M  V30 3 C -1.15279 -0.0733251 0.393277 0
M  V30 4 C -1.29347 -1.42656 0.615771 0
M  V30 5 N -2.5001 -1.96153 1.1248 0
M  V30 6 C -0.206883 -2.24515 0.321883 0
M  V30 7 C 0.967364 -1.74814 -0.170197 0
M  V30 8 C 1.11808 -0.380234 -0.398148 0
M  V30 9 C 0.0409978 0.42545 -0.10621 0
M  V30 10 N 0.121426 1.82375 -0.319219 0
M  V30 11 C 2.40797 0.134526 -0.928351 0
M  V30 12 C 3.24663 0.764952 0.104501 0
M  V30 13 O 2.85693 0.820326 1.28266 0
M  V30 14 O 4.46546 1.29423 -0.237177 0
M  V30 15 H -3.41048 2.23387 -0.0293423 0
M  V30 16 H -4.21134 0.656585 0.081285 0
M  V30 17 H -3.04819 0.981965 -1.25254 0
M  V30 18 H -2.74306 -2.95829 1.01795 0
M  V30 19 H -3.16294 -1.33835 1.62014 0
M  V30 20 H -0.326287 -3.29439 0.499103 0
M  V30 21 H 1.81937 -2.3761 -0.402215 0
M  V30 22 H -0.479203 2.24403 -1.05916 0
M  V30 23 H 0.739235 2.46062 0.213575 0
M  V30 24 H 2.24727 0.803181 -1.80801 0
M  V30 25 H 2.99044 -0.7257 -1.32472 0
M  V30 26 H 4.96735 1.9989 0.266852 0
M  V30 END ATOM
M  V30 BEGIN BOND
M  V30 1 1 1 2
M  V30 2 1 2 3
M  V30 3 2 3 4
M  V30 4 1 4 5
M  V30 5 1 4 6
M  V30 6 2 6 7
M  V30 7 1 7 8
M  V30 8 2 8 9
M  V30 9 1 9 10
M  V30 10 1 8 11
M  V30 11 1 11 12
M  V30 12 2 12 13
M  V30 13 1 12 14
M  V30 14 1 9 3
M  V30 15 1 1 15
M  V30 16 1 1 16
M  V30 17 1 1 17
M  V30 18 1 5 18
M  V30 19 1 5 19
M  V30 20 1 6 20
M  V30 21 1 7 21
M  V30 22 1 10 22
M  V30 23 1 10 23
M  V30 24 1 11 24
M  V30 25 1 11 25
M  V30 26 1 14 26
M  V30 END BOND
M  V30 END CTAB
M  END
