
     RDKit          3D

  0  0  0  0  0  0  0  0  0  0999 V3000
M  V30 BEGIN CTAB
M  V30 COUNTS 44 47 0 0 0
M  V30 BEGIN ATOM
M  V30 1 N -5.12618 1.7511 -2.06358 0
M  V30 2 C -4.198 1.09685 -1.8856 0
M  V30 3 C -3.03596 0.261822 -1.65031 0
M  V30 4 C -2.80094 -0.806935 -2.36262 0
M  V30 5 N -3.76133 -1.11712 -3.39923 0
M  V30 6 O -1.71813 -1.64409 -2.19788 0
M  V30 7 C -0.81381 -1.30985 -1.19041 0
M  V30 8 C -0.995828 -0.20138 -0.401792 0
M  V30 9 C -2.13871 0.675751 -0.55231 0
M  V30 10 C -3.02303 0.717282 0.670145 0
M  V30 11 C -3.13189 1.85153 1.40541 0
M  V30 12 C -3.95917 1.85102 2.53268 0
M  V30 13 C -4.66398 0.729641 2.91285 0
M  V30 14 N -4.53181 -0.375845 2.16049 0
M  V30 15 C -3.73672 -0.402002 1.06339 0
M  V30 16 C -0.0391619 0.0380733 0.560731 0
M  V30 17 N -0.0568934 1.13966 1.4566 0
M  V30 18 N 1.02868 -0.800232 0.70631 0
M  V30 19 C 1.20083 -1.87447 -0.0597237 0
M  V30 20 N 0.27494 -2.11581 -1.00061 0
M  V30 21 S 2.59339 -2.97728 0.125197 0
M  V30 22 C 3.99305 -2.42688 -0.917444 0
M  V30 23 C 4.51852 -1.12266 -0.429238 0
M  V30 24 C 3.99839 0.0524366 -0.92425 0
M  V30 25 C 4.45014 1.26779 -0.504409 0
M  V30 26 C 5.45011 1.3409 0.436746 0
M  V30 27 C 5.98926 0.182495 0.949632 0
M  V30 28 C 5.51924 -1.03542 0.512556 0
M  V30 29 Cl 6.04295 2.89133 0.987822 0
M  V30 30 H -3.44736 -1.52958 -4.30272 0
M  V30 31 H -4.75672 -0.931743 -3.24816 0
M  V30 32 H -1.83848 1.75198 -0.729726 0
M  V30 33 H -2.59699 2.7812 1.15359 0
M  V30 34 H -4.06274 2.74523 3.13706 0
M  V30 35 H -5.31357 0.724475 3.79552 0
M  V30 36 H -3.61755 -1.28368 0.444851 0
M  V30 37 H 0.147629 2.09263 1.09028 0
M  V30 38 H -0.263841 1.03581 2.45471 0
M  V30 39 H 3.62501 -2.34772 -1.95951 0
M  V30 40 H 4.78776 -3.17155 -0.844466 0
M  V30 41 H 3.21844 -0.0161717 -1.65831 0
M  V30 42 H 4.04527 2.19867 -0.889866 0
M  V30 43 H 6.78428 0.240762 1.69825 0
M  V30 44 H 5.96094 -1.92801 0.932465 0
M  V30 END ATOM
M  V30 BEGIN BOND
M  V30 1 3 1 2
M  V30 2 1 2 3
M  V30 3 2 3 4
M  V30 4 1 4 5
M  V30 5 1 4 6
M  V30 6 1 6 7
M  V30 7 2 7 8
M  V30 8 1 8 9
M  V30 9 1 9 10
M  V30 10 2 10 11
M  V30 11 1 11 12
M  V30 12 2 12 13
M  V30 13 1 13 14
M  V30 14 2 14 15
M  V30 15 1 8 16
M  V30 16 1 16 17
M  V30 17 2 16 18
M  V30 18 1 18 19
M  V30 19 2 19 20
M  V30 20 1 19 21
M  V30 21 1 21 22
M  V30 22 1 22 23
M  V30 23 2 23 24
M  V30 24 1 24 25
M  V30 25 2 25 26
M  V30 26 1 26 27
M  V30 27 2 27 28
M  V30 28 1 26 29
M  V30 29 1 9 3
M  V30 30 1 15 10
M  V30 31 1 28 23
M  V30 32 1 20 7
M  V30 33 1 5 30
M  V30 34 1 5 31
M  V30 35 1 9 32
M  V30 36 1 11 33
M  V30 37 1 12 34
M  V30 38 1 13 35
M  V30 39 1 15 36
M  V30 40 1 17 37
M  V30 41 1 17 38
M  V30 42 1 22 39
M  V30 43 1 22 40
M  V30 44 1 24 41
M  V30 45 1 25 42
M  V30 46 1 27 43
M  V30 47 1 28 44
M  V30 END BOND
M  V30 END CTAB
M  END
