
     RDKit          3D

  0  0  0  0  0  0  0  0  0  0999 V3000
M  V30 BEGIN CTAB
M  V30 COUNTS 19 19 0 0 0
M  V30 BEGIN ATOM
M  V30 1 N -2.62868 0.227435 -0.232989 0
M  V30 2 C -1.24192 0.518623 -0.103471 0
M  V30 3 C -0.817781 1.81937 -0.0320043 0
M  V30 4 C 0.53235 2.07701 0.0934127 0
M  V30 5 Br 1.11514 3.88851 0.192258 0
M  V30 6 C 1.45168 1.04867 0.14716 0
M  V30 7 C 1.03496 -0.269851 0.0758773 0
M  V30 8 C -0.320874 -0.508826 -0.0495467 0
M  V30 9 N -0.78575 -1.84509 -0.125482 0
M  V30 10 C 1.98697 -1.40021 0.129828 0
M  V30 11 F 2.77191 1.27068 0.269007 0
M  V30 12 H -3.03227 -0.546959 -0.76396 0
M  V30 13 H -3.28834 0.867365 0.262198 0
M  V30 14 H -1.5271 2.63684 -0.0728422 0
M  V30 15 H -1.54593 -2.21987 0.478316 0
M  V30 16 H -0.375493 -2.52047 -0.804256 0
M  V30 17 H 2.7269 -1.37489 -0.697327 0
M  V30 18 H 1.44408 -2.34287 0.104622 0
M  V30 19 H 2.50014 -1.32546 1.1292 0
M  V30 END ATOM
M  V30 BEGIN BOND
M  V30 1 1 1 2
M  V30 2 2 2 3
M  V30 3 1 3 4
M  V30 4 1 4 5
M  V30 5 2 4 6
M  V30 6 1 6 7
M  V30 7 2 7 8
M  V30 8 1 8 9
M  V30 9 1 7 10
M  V30 10 1 6 11
M  V30 11 1 8 2
M  V30 12 1 1 12
M  V30 13 1 1 13
M  V30 14 1 3 14
M  V30 15 1 9 15
M  V30 16 1 9 16
M  V30 17 1 10 17
M  V30 18 1 10 18
M  V30 19 1 10 19
M  V30 END BOND
M  V30 END CTAB
M  END
