
     RDKit          3D

  0  0  0  0  0  0  0  0  0  0999 V3000
M  V30 BEGIN CTAB
M  V30 COUNTS 42 42 0 0 0
M  V30 BEGIN ATOM
M  V30 1 N -4.05188 -2.03904 -1.17279 0
M  V30 2 C -2.7822 -1.88081 -0.528697 0
M  V30 3 C -2.57108 -0.457095 -0.0254699 0
M  V30 4 C -1.23182 -0.333472 0.641521 0
M  V30 5 N -0.985353 0.96577 1.13314 0
M  V30 6 S 0.12218 1.9388 0.301798 0
M  V30 7 O 0.265997 3.22887 1.11514 0
M  V30 8 O -0.19702 2.25893 -1.10249 0
M  V30 9 C 1.73385 1.20394 0.29881 0
M  V30 10 C 2.59952 1.48616 1.32352 0
M  V30 11 C 3.84564 0.915642 1.31769 0
M  V30 12 C 4.25015 0.0697258 0.314079 0
M  V30 13 C 3.38062 -0.223925 -0.730624 0
M  V30 14 C 2.13078 0.357403 -0.710965 0
M  V30 15 S 3.87344 -1.29627 -2.01666 0
M  V30 16 O 2.70773 -2.06066 -2.57813 0
M  V30 17 O 4.89558 -2.2773 -1.50724 0
M  V30 18 N 4.61335 -0.397701 -3.28304 0
M  V30 19 C -0.965341 1.11939 2.55305 0
M  V30 20 C -3.69881 -0.132759 0.954418 0
M  V30 21 C -2.7817 0.440373 -1.21186 0
M  V30 22 H -4.819 -1.5837 -0.653824 0
M  V30 23 H -4.23433 -3.05499 -1.31254 0
M  V30 24 H -1.97503 -2.14702 -1.23398 0
M  V30 25 H -2.70435 -2.56659 0.339386 0
M  V30 26 H -1.11683 -1.13397 1.43778 0
M  V30 27 H -0.470476 -0.623906 -0.126075 0
M  V30 28 H 2.31582 2.15961 2.14893 0
M  V30 29 H 4.56329 1.11238 2.11075 0
M  V30 30 H 5.22583 -0.397212 0.278848 0
M  V30 31 H 1.43292 0.133371 -1.53175 0
M  V30 32 H 4.73413 0.59786 -3.03072 0
M  V30 33 H 5.51995 -0.785197 -3.59044 0
M  V30 34 H 0.0520264 1.23685 2.9773 0
M  V30 35 H -1.44689 0.297003 3.08491 0
M  V30 36 H -1.49248 2.08592 2.79526 0
M  V30 37 H -3.42014 0.7344 1.55907 0
M  V30 38 H -3.97735 -1.0208 1.55416 0
M  V30 39 H -4.59736 0.169289 0.363384 0
M  V30 40 H -2.93345 1.51007 -0.934531 0
M  V30 41 H -2.0411 0.302616 -2.01825 0
M  V30 42 H -3.76882 0.088065 -1.66081 0
M  V30 END ATOM
M  V30 BEGIN BOND
M  V30 1 1 1 2
M  V30 2 1 2 3
M  V30 3 1 3 4
M  V30 4 1 4 5
M  V30 5 1 5 6
M  V30 6 2 6 7
M  V30 7 2 6 8
M  V30 8 1 6 9
M  V30 9 2 9 10
M  V30 10 1 10 11
M  V30 11 2 11 12
M  V30 12 1 12 13
M  V30 13 2 13 14
M  V30 14 1 13 15
M  V30 15 2 15 16
M  V30 16 2 15 17
M  V30 17 1 15 18
M  V30 18 1 5 19
M  V30 19 1 3 20
M  V30 20 1 3 21
M  V30 21 1 14 9
M  V30 22 1 1 22
M  V30 23 1 1 23
M  V30 24 1 2 24
M  V30 25 1 2 25
M  V30 26 1 4 26
M  V30 27 1 4 27
M  V30 28 1 10 28
M  V30 29 1 11 29
M  V30 30 1 12 30
M  V30 31 1 14 31
M  V30 32 1 18 32
M  V30 33 1 18 33
M  V30 34 1 19 34
M  V30 35 1 19 35
M  V30 36 1 19 36
M  V30 37 1 20 37
M  V30 38 1 20 38
M  V30 39 1 20 39
M  V30 40 1 21 40
M  V30 41 1 21 41
M  V30 42 1 21 42
M  V30 END BOND
M  V30 END CTAB
M  END
