
     RDKit          3D

  0  0  0  0  0  0  0  0  0  0999 V3000
M  V30 BEGIN CTAB
M  V30 COUNTS 33 35 0 0 0
M  V30 BEGIN ATOM
M  V30 1 N -1.95272 2.56808 -2.97851 0
M  V30 2 C -2.04659 1.4272 -2.14106 0
M  V30 3 N -0.955666 0.672775 -1.83222 0
M  V30 4 C -1.17531 -0.389218 -1.02457 0
M  V30 5 C -2.41264 -0.715277 -0.528069 0
M  V30 6 N -2.28649 -1.83402 0.246288 0
M  V30 7 C -0.992779 -2.19904 0.232714 0
M  V30 8 N -0.322317 -1.3281 -0.533488 0
M  V30 9 C 1.06804 -1.40759 -0.779853 0
M  V30 10 C 2.02182 -0.872681 -0.034757 0
M  V30 11 C 3.46225 -0.648641 0.185012 0
M  V30 12 C 2.41718 -0.0976654 1.13267 0
M  V30 13 C 2.31299 1.41282 1.11648 0
M  V30 14 O 1.00498 1.77529 0.909964 0
M  V30 15 C 2.44627 -0.752992 2.51129 0
M  V30 16 O 1.23585 -1.24119 2.92394 0
M  V30 17 C -3.48952 0.0857875 -0.873291 0
M  V30 18 N -4.7548 -0.265682 -0.352624 0
M  V30 19 N -3.27482 1.13431 -1.67024 0
M  V30 20 H -1.37799 2.52128 -3.84494 0
M  V30 21 H -2.43978 3.46114 -2.76134 0
M  V30 22 H -0.624325 -3.05785 0.769394 0
M  V30 23 H 1.36178 -1.97046 -1.67875 0
M  V30 24 H 3.93984 0.0137554 -0.554681 0
M  V30 25 H 4.1105 -1.48578 0.512735 0
M  V30 26 H 2.73547 1.87198 2.02721 0
M  V30 27 H 2.91312 1.79389 0.270781 0
M  V30 28 H 0.945287 2.52188 0.259781 0
M  V30 29 H 3.14278 -1.6065 2.46902 0
M  V30 30 H 2.88137 -0.0243345 3.25531 0
M  V30 31 H 0.540458 -0.582957 3.07558 0
M  V30 32 H -5.035 0.0937761 0.579778 0
M  V30 33 H -5.39925 -0.873988 -0.889575 0
M  V30 END ATOM
M  V30 BEGIN BOND
M  V30 1 1 1 2
M  V30 2 2 2 3
M  V30 3 1 3 4
M  V30 4 2 4 5
M  V30 5 1 5 6
M  V30 6 2 6 7
M  V30 7 1 7 8
M  V30 8 1 8 9
M  V30 9 2 9 10
M  V30 10 1 10 11
M  V30 11 1 11 12
M  V30 12 1 12 13
M  V30 13 1 13 14
M  V30 14 1 12 15
M  V30 15 1 15 16
M  V30 16 1 5 17
M  V30 17 1 17 18
M  V30 18 2 17 19
M  V30 19 1 19 2
M  V30 20 1 8 4
M  V30 21 1 12 10
M  V30 22 1 1 20
M  V30 23 1 1 21
M  V30 24 1 7 22
M  V30 25 1 9 23
M  V30 26 1 11 24
M  V30 27 1 11 25
M  V30 28 1 13 26
M  V30 29 1 13 27
M  V30 30 1 14 28
M  V30 31 1 15 29
M  V30 32 1 15 30
M  V30 33 1 16 31
M  V30 34 1 18 32
M  V30 35 1 18 33
M  V30 END BOND
M  V30 END CTAB
M  END
