
     RDKit          3D

  0  0  0  0  0  0  0  0  0  0999 V3000
M  V30 BEGIN CTAB
M  V30 COUNTS 22 23 0 0 0
M  V30 BEGIN ATOM
M  V30 1 N -4.67231 0.61021 -0.599648 0
M  V30 2 C -3.30155 0.323894 -0.36013 0
M  V30 3 N -2.36634 1.18888 -0.842251 0
M  V30 4 C -1.07422 0.918919 -0.616447 0
M  V30 5 C -0.635295 -0.1928 0.0812413 0
M  V30 6 N -1.55568 -1.02592 0.544672 0
M  V30 7 C -2.87183 -0.786154 0.336102 0
M  V30 8 C 0.804598 -0.400727 0.276323 0
M  V30 9 C 1.28972 -1.49123 0.963303 0
M  V30 10 N 2.6075 -1.70464 1.15591 0
M  V30 11 C 3.51134 -0.833488 0.668526 0
M  V30 12 C 3.02877 0.260473 -0.0204449 0
M  V30 13 N 1.70178 0.47173 -0.212169 0
M  V30 14 N 4.00205 1.17654 -0.531881 0
M  V30 15 H -5.04302 1.59191 -0.548529 0
M  V30 16 H -5.32533 -0.153163 -0.82906 0
M  V30 17 H -0.326548 1.60472 -0.998387 0
M  V30 18 H -3.6417 -1.4558 0.707158 0
M  V30 19 H 0.568376 -2.20283 1.36224 0
M  V30 20 H 4.57795 -0.966151 0.800019 0
M  V30 21 H 3.76521 2.18842 -0.643308 0
M  V30 22 H 4.95651 0.877214 -0.804632 0
M  V30 END ATOM
M  V30 BEGIN BOND
M  V30 1 1 1 2
M  V30 2 2 2 3
M  V30 3 1 3 4
M  V30 4 2 4 5
M  V30 5 1 5 6
M  V30 6 2 6 7
M  V30 7 1 5 8
M  V30 8 2 8 9
M  V30 9 1 9 10
M  V30 10 2 10 11
M  V30 11 1 11 12
M  V30 12 2 12 13
M  V30 13 1 12 14
M  V30 14 1 7 2
M  V30 15 1 13 8
M  V30 16 1 1 15
M  V30 17 1 1 16
M  V30 18 1 4 17
M  V30 19 1 7 18
M  V30 20 1 9 19
M  V30 21 1 11 20
M  V30 22 1 14 21
M  V30 23 1 14 22
M  V30 END BOND
M  V30 END CTAB
M  END
