
     RDKit          3D

  0  0  0  0  0  0  0  0  0  0999 V3000
M  V30 BEGIN CTAB
M  V30 COUNTS 33 33 0 0 0
M  V30 BEGIN ATOM
M  V30 1 C 3.85602 -0.0505981 0.346907 0
M  V30 2 C 2.62467 0.083072 -0.515822 0
M  V30 3 C 1.70429 -1.10868 -0.381976 0
M  V30 4 C 1.21517 -1.31684 1.0075 0
M  V30 5 N 0.460757 -0.223557 1.5685 0
M  V30 6 C -0.814956 0.186233 1.09088 0
M  V30 7 C -1.39238 1.37447 1.53032 0
M  V30 8 C -2.62639 1.81952 1.11765 0
M  V30 9 C -3.35759 1.07069 0.219548 0
M  V30 10 C -2.79889 -0.11444 -0.22826 0
M  V30 11 C -1.5439 -0.544613 0.20618 0
M  V30 12 N -3.56153 -0.871825 -1.14976 0
M  V30 13 N -4.637 1.48886 -0.236492 0
M  V30 14 C 3.04989 0.181946 -1.95855 0
M  V30 15 H 3.64349 -0.180189 1.40812 0
M  V30 16 H 4.44007 0.885003 0.225591 0
M  V30 17 H 4.51108 -0.879365 -0.0310179 0
M  V30 18 H 2.08192 0.99117 -0.240629 0
M  V30 19 H 2.27531 -2.02107 -0.68089 0
M  V30 20 H 0.912872 -0.981642 -1.1173 0
M  V30 21 H 0.494004 -2.18622 0.962256 0
M  V30 22 H 2.02706 -1.64801 1.66245 0
M  V30 23 H 0.831434 0.344956 2.39068 0
M  V30 24 H -0.825653 1.98624 2.24644 0
M  V30 25 H -3.05454 2.74051 1.46925 0
M  V30 26 H -1.17897 -1.48487 -0.181864 0
M  V30 27 H -4.59416 -0.805793 -1.18366 0
M  V30 28 H -3.08416 -1.51123 -1.81121 0
M  V30 29 H -4.7445 2.26126 -0.915892 0
M  V30 30 H -5.49378 1.01721 0.111738 0
M  V30 31 H 3.84991 0.964485 -2.00909 0
M  V30 32 H 3.50531 -0.76948 -2.29561 0
M  V30 33 H 2.22514 0.516628 -2.62599 0
M  V30 END ATOM
M  V30 BEGIN BOND
M  V30 1 1 1 2
M  V30 2 1 2 3
M  V30 3 1 3 4
M  V30 4 1 4 5
M  V30 5 1 5 6
M  V30 6 2 6 7
M  V30 7 1 7 8
M  V30 8 2 8 9
M  V30 9 1 9 10
M  V30 10 2 10 11
M  V30 11 1 10 12
M  V30 12 1 9 13
M  V30 13 1 2 14
M  V30 14 1 11 6
M  V30 15 1 1 15
M  V30 16 1 1 16
M  V30 17 1 1 17
M  V30 18 1 2 18
M  V30 19 1 3 19
M  V30 20 1 3 20
M  V30 21 1 4 21
M  V30 22 1 4 22
M  V30 23 1 5 23
M  V30 24 1 7 24
M  V30 25 1 8 25
M  V30 26 1 11 26
M  V30 27 1 12 27
M  V30 28 1 12 28
M  V30 29 1 13 29
M  V30 30 1 13 30
M  V30 31 1 14 31
M  V30 32 1 14 32
M  V30 33 1 14 33
M  V30 END BOND
M  V30 END CTAB
M  END
