
     RDKit          3D

  0  0  0  0  0  0  0  0  0  0999 V3000
M  V30 BEGIN CTAB
M  V30 COUNTS 28 29 0 0 0
M  V30 BEGIN ATOM
M  V30 1 N -2.87992 1.42873 2.11839 0
M  V30 2 C -2.14549 0.622732 1.21531 0
M  V30 3 C -1.27531 1.10676 0.351931 0
M  V30 4 C -1.12878 2.5637 0.403778 0
M  V30 5 N -0.999747 3.70853 0.429596 0
M  V30 6 C -0.472019 0.363316 -0.614965 0
M  V30 7 C 0.969253 0.332597 -0.288791 0
M  V30 8 C 1.41146 -0.321033 0.831794 0
M  V30 9 C 2.77283 -0.364082 1.1616 0
M  V30 10 C 3.70689 0.24829 0.370867 0
M  V30 11 F 5.03629 0.235292 0.646905 0
M  V30 12 C 3.26822 0.906637 -0.756497 0
M  V30 13 C 1.92235 0.93904 -1.06647 0
M  V30 14 C -0.961899 -0.960878 -1.00578 0
M  V30 15 C -0.519624 -1.54001 -2.28096 0
M  V30 16 N -0.158624 -1.97925 -3.29127 0
M  V30 17 C -1.78601 -1.73791 -0.335391 0
M  V30 18 N -2.20812 -3.02237 -0.803009 0
M  V30 19 S -2.39776 -1.1429 1.22914 0
M  V30 20 H -2.80758 1.23737 3.14169 0
M  V30 21 H -3.50227 2.21696 1.83851 0
M  V30 22 H -0.5409 0.977006 -1.58518 0
M  V30 23 H 0.743615 -0.818565 1.4921 0
M  V30 24 H 3.12345 -0.880855 2.04775 0
M  V30 25 H 3.97967 1.41222 -1.42079 0
M  V30 26 H 1.57259 1.46108 -1.96079 0
M  V30 27 H -2.33913 -3.24638 -1.79868 0
M  V30 28 H -2.38342 -3.74603 -0.0707876 0
M  V30 END ATOM
M  V30 BEGIN BOND
M  V30 1 1 1 2
M  V30 2 2 2 3
M  V30 3 1 3 4
M  V30 4 3 4 5
M  V30 5 1 3 6
M  V30 6 1 6 7
M  V30 7 2 7 8
M  V30 8 1 8 9
M  V30 9 2 9 10
M  V30 10 1 10 11
M  V30 11 1 10 12
M  V30 12 2 12 13
M  V30 13 1 6 14
M  V30 14 1 14 15
M  V30 15 3 15 16
M  V30 16 2 14 17
M  V30 17 1 17 18
M  V30 18 1 17 19
M  V30 19 1 19 2
M  V30 20 1 13 7
M  V30 21 1 1 20
M  V30 22 1 1 21
M  V30 23 1 6 22
M  V30 24 1 8 23
M  V30 25 1 9 24
M  V30 26 1 12 25
M  V30 27 1 13 26
M  V30 28 1 18 27
M  V30 29 1 18 28
M  V30 END BOND
M  V30 END CTAB
M  END
