
     RDKit          3D

  0  0  0  0  0  0  0  0  0  0999 V3000
M  V30 BEGIN CTAB
M  V30 COUNTS 34 34 0 0 0
M  V30 BEGIN ATOM
M  V30 1 N 3.27337 1.04459 1.67176 0
M  V30 2 C 2.00041 0.299857 1.56375 0
M  V30 3 C 1.95202 -0.172654 0.13356 0
M  V30 4 C 0.783124 -0.95986 -0.271173 0
M  V30 5 C -0.577334 -0.488473 -0.224088 0
M  V30 6 C -0.985152 0.715366 -1.00322 0
M  V30 7 C -2.52123 0.687291 -1.06652 0
M  V30 8 C -3.17538 0.591316 0.258589 0
M  V30 9 C -2.67908 -0.59246 1.07469 0
M  V30 10 C -1.15593 -0.353134 1.16581 0
M  V30 11 C 1.1229 -1.51349 -1.67483 0
M  V30 12 N 2.33777 0.870697 -0.797978 0
M  V30 13 H 3.98195 0.521759 1.0943 0
M  V30 14 H 3.15555 2.02905 1.34452 0
M  V30 15 H 1.20269 0.959032 1.88056 0
M  V30 16 H 2.0895 -0.5936 2.21275 0
M  V30 17 H 2.83169 -0.89774 0.0726758 0
M  V30 18 H 0.83762 -1.91219 0.352782 0
M  V30 19 H -1.22481 -1.31626 -0.681833 0
M  V30 20 H -0.691407 0.673443 -2.07322 0
M  V30 21 H -0.738481 1.67376 -0.551127 0
M  V30 22 H -2.80604 1.65196 -1.53115 0
M  V30 23 H -2.8077 -0.156631 -1.70476 0
M  V30 24 H -4.25324 0.430885 0.0934831 0
M  V30 25 H -3.06547 1.50606 0.870798 0
M  V30 26 H -3.07308 -0.529348 2.10015 0
M  V30 27 H -2.90292 -1.54384 0.596761 0
M  V30 28 H -0.690459 -1.08721 1.81426 0
M  V30 29 H -1.09641 0.706285 1.52083 0
M  V30 30 H 0.669733 -2.51656 -1.81288 0
M  V30 31 H 0.654834 -0.854564 -2.43039 0
M  V30 32 H 2.20806 -1.62437 -1.78638 0
M  V30 33 H 1.99457 1.78846 -0.406311 0
M  V30 34 H 3.34833 0.96256 -0.92945 0
M  V30 END ATOM
M  V30 BEGIN BOND
M  V30 1 1 1 2
M  V30 2 1 2 3
M  V30 3 1 3 4
M  V30 4 1 4 5
M  V30 5 1 5 6
M  V30 6 1 6 7
M  V30 7 1 7 8
M  V30 8 1 8 9
M  V30 9 1 9 10
M  V30 10 1 4 11
M  V30 11 1 3 12
M  V30 12 1 10 5
M  V30 13 1 1 13
M  V30 14 1 1 14
M  V30 15 1 2 15
M  V30 16 1 2 16
M  V30 17 1 3 17
M  V30 18 1 4 18
M  V30 19 1 5 19
M  V30 20 1 6 20
M  V30 21 1 6 21
M  V30 22 1 7 22
M  V30 23 1 7 23
M  V30 24 1 8 24
M  V30 25 1 8 25
M  V30 26 1 9 26
M  V30 27 1 9 27
M  V30 28 1 10 28
M  V30 29 1 10 29
M  V30 30 1 11 30
M  V30 31 1 11 31
M  V30 32 1 11 32
M  V30 33 1 12 33
M  V30 34 1 12 34
M  V30 END BOND
M  V30 END CTAB
M  END
