
     RDKit          3D

  0  0  0  0  0  0  0  0  0  0999 V3000
M  V30 BEGIN CTAB
M  V30 COUNTS 45 44 0 0 0
M  V30 BEGIN ATOM
M  V30 1 C 0.836844 0.172854 0.101293 0 CFG=1
M  V30 2 N 0.785638 -1.24094 -0.00907815 0
M  V30 3 C 1.8353 0.883446 -0.724875 0
M  V30 4 C 3.26259 0.570037 -0.522202 0
M  V30 5 C 3.70508 -0.82962 -0.75285 0
M  V30 6 N 5.15553 -0.86006 -0.505123 0
M  V30 7 C 5.71446 -0.678658 0.773241 0
M  V30 8 N 6.52545 0.467428 0.99763 0
M  V30 9 N 5.51536 -1.50689 1.72868 0
M  V30 10 C -0.499384 0.709187 -0.243967 0
M  V30 11 O -0.682539 1.94398 -0.214801 0
M  V30 12 N -1.57176 -0.141726 -0.605606 0
M  V30 13 C -2.87468 0.344378 -0.94916 0 CFG=1
M  V30 14 C -3.60568 0.945254 0.230655 0
M  V30 15 C -3.73356 -0.170858 1.26388 0
M  V30 16 C -4.50702 -1.33417 0.701921 0
M  V30 17 C -4.36758 0.299939 2.53518 0
M  V30 18 C -2.87517 1.25812 -2.13728 0
M  V30 19 O -4.10368 1.78477 -2.5109 0
M  V30 20 O -1.85843 1.55513 -2.7812 0
M  V30 21 H 1.04684 0.405758 1.18147 0
M  V30 22 H 1.04658 -1.75508 0.836568 0
M  V30 23 H 1.07802 -1.64678 -0.903383 0
M  V30 24 H 1.68906 1.98615 -0.510552 0
M  V30 25 H 1.54607 0.789054 -1.8013 0
M  V30 26 H 3.61205 0.902386 0.483638 0
M  V30 27 H 3.84392 1.20643 -1.25737 0
M  V30 28 H 3.53255 -1.20949 -1.75944 0
M  V30 29 H 3.29129 -1.53718 0.0169922 0
M  V30 30 H 5.78225 -1.02206 -1.31509 0
M  V30 31 H 6.50743 0.88606 1.93921 0
M  V30 32 H 7.10287 0.835322 0.202205 0
M  V30 33 H 4.93169 -2.36342 1.6263 0
M  V30 34 H -1.38829 -1.19497 -0.61892 0
M  V30 35 H -3.49053 -0.538375 -1.31289 0
M  V30 36 H -4.60386 1.3142 -0.0798852 0
M  V30 37 H -2.9702 1.73004 0.667673 0
M  V30 38 H -2.69588 -0.506468 1.48805 0
M  V30 39 H -5.20713 -0.991236 -0.107098 0
M  V30 40 H -5.1574 -1.80593 1.47363 0
M  V30 41 H -3.83623 -2.06867 0.215446 0
M  V30 42 H -3.83735 1.21008 2.91518 0
M  V30 43 H -5.45571 0.472598 2.42449 0
M  V30 44 H -4.17424 -0.495934 3.30384 0
M  V30 45 H -4.85058 1.22593 -2.90343 0
M  V30 END ATOM
M  V30 BEGIN BOND
M  V30 1 1 1 2
M  V30 2 1 1 3
M  V30 3 1 3 4
M  V30 4 1 4 5
M  V30 5 1 5 6
M  V30 6 1 6 7
M  V30 7 1 7 8
M  V30 8 2 7 9 CFG=2
M  V30 9 1 1 10
M  V30 10 2 10 11
M  V30 11 1 10 12
M  V30 12 1 12 13
M  V30 13 1 13 14
M  V30 14 1 14 15
M  V30 15 1 15 16
M  V30 16 1 15 17
M  V30 17 1 13 18
M  V30 18 1 18 19
M  V30 19 2 18 20
M  V30 20 1 1 21 CFG=1
M  V30 21 1 2 22
M  V30 22 1 2 23
M  V30 23 1 3 24
M  V30 24 1 3 25
M  V30 25 1 4 26
M  V30 26 1 4 27
M  V30 27 1 5 28
M  V30 28 1 5 29
M  V30 29 1 6 30
M  V30 30 1 8 31
M  V30 31 1 8 32
M  V30 32 1 9 33
M  V30 33 1 12 34
M  V30 34 1 13 35 CFG=3
M  V30 35 1 14 36
M  V30 36 1 14 37
M  V30 37 1 15 38
M  V30 38 1 16 39
M  V30 39 1 16 40
M  V30 40 1 16 41
M  V30 41 1 17 42
M  V30 42 1 17 43
M  V30 43 1 17 44
M  V30 44 1 19 45
M  V30 END BOND
M  V30 END CTAB
M  END
