
     RDKit          3D

  0  0  0  0  0  0  0  0  0  0999 V3000
M  V30 BEGIN CTAB
M  V30 COUNTS 40 40 0 0 0
M  V30 BEGIN ATOM
M  V30 1 N -6.67189 -0.991347 0.57266 0
M  V30 2 C -5.50079 -0.280683 0.222568 0
M  V30 3 N -4.26885 -0.8592 0.296783 0
M  V30 4 C -3.15928 -0.216674 -0.0246407 0
M  V30 5 C -1.85444 -0.901727 0.0780767 0
M  V30 6 C -1.26185 -0.701131 1.44615 0
M  V30 7 C 0.06474 -1.38839 1.57566 0
M  V30 8 C 1.08396 -0.873671 0.573121 0
M  V30 9 C 2.35087 -1.65314 0.827422 0
M  V30 10 C 3.4431 -1.24007 -0.120399 0
M  V30 11 C 3.73362 0.219341 0.0687537 0
M  V30 12 C 4.85513 0.679439 -0.872783 0
M  V30 13 C 5.07615 2.11167 -0.624801 0
M  V30 14 O 6.03206 2.82574 -1.32322 0
M  V30 15 O 4.3936 2.70724 0.231114 0
M  V30 16 N -3.22386 1.05276 -0.441996 0
M  V30 17 C -4.4361 1.68086 -0.534654 0
M  V30 18 N -4.43677 3.02214 -0.982138 0
M  V30 19 N -5.55432 1.01137 -0.203402 0
M  V30 20 H -7.51576 -0.478457 0.887742 0
M  V30 21 H -6.70906 -2.02316 0.52192 0
M  V30 22 H -1.9868 -1.99303 -0.148355 0
M  V30 23 H -1.20884 -0.483356 -0.722306 0
M  V30 24 H -1.94334 -1.16376 2.18914 0
M  V30 25 H -1.21505 0.382541 1.6334 0
M  V30 26 H 0.488829 -1.26391 2.57438 0
M  V30 27 H -0.0797779 -2.45998 1.34916 0
M  V30 28 H 0.759106 -0.947818 -0.463108 0
M  V30 29 H 1.27693 0.205965 0.817886 0
M  V30 30 H 2.15499 -2.74452 0.801982 0
M  V30 31 H 2.72525 -1.39375 1.86091 0
M  V30 32 H 3.00701 -1.38065 -1.1546 0
M  V30 33 H 4.34035 -1.86908 -0.00825055 0
M  V30 34 H 2.86694 0.86488 -0.199333 0
M  V30 35 H 4.06676 0.463053 1.0938 0
M  V30 36 H 5.81372 0.152177 -0.597738 0
M  V30 37 H 4.59386 0.45167 -1.93072 0
M  V30 38 H 6.76115 2.39743 -1.88626 0
M  V30 39 H -3.58869 3.61966 -0.880193 0
M  V30 40 H -5.27266 3.45957 -1.42485 0
M  V30 END ATOM
M  V30 BEGIN BOND
M  V30 1 1 1 2
M  V30 2 2 2 3
M  V30 3 1 3 4
M  V30 4 1 4 5
M  V30 5 1 5 6
M  V30 6 1 6 7
M  V30 7 1 7 8
M  V30 8 1 8 9
M  V30 9 1 9 10
M  V30 10 1 10 11
M  V30 11 1 11 12
M  V30 12 1 12 13
M  V30 13 1 13 14
M  V30 14 2 13 15
M  V30 15 2 4 16
M  V30 16 1 16 17
M  V30 17 1 17 18
M  V30 18 2 17 19
M  V30 19 1 19 2
M  V30 20 1 1 20
M  V30 21 1 1 21
M  V30 22 1 5 22
M  V30 23 1 5 23
M  V30 24 1 6 24
M  V30 25 1 6 25
M  V30 26 1 7 26
M  V30 27 1 7 27
M  V30 28 1 8 28
M  V30 29 1 8 29
M  V30 30 1 9 30
M  V30 31 1 9 31
M  V30 32 1 10 32
M  V30 33 1 10 33
M  V30 34 1 11 34
M  V30 35 1 11 35
M  V30 36 1 12 36
M  V30 37 1 12 37
M  V30 38 1 14 38
M  V30 39 1 18 39
M  V30 40 1 18 40
M  V30 END BOND
M  V30 END CTAB
M  END
