
     RDKit          3D

  0  0  0  0  0  0  0  0  0  0999 V3000
M  V30 BEGIN CTAB
M  V30 COUNTS 53 55 0 0 0
M  V30 BEGIN ATOM
M  V30 1 N -0.868178 -1.40627 3.68522 0
M  V30 2 C -1.643 -0.982455 2.9358 0
M  V30 3 C -2.61461 -0.454805 1.9597 0
M  V30 4 C -3.629 0.237119 2.39672 0
M  V30 5 N -3.69859 0.421799 3.8365 0
M  V30 6 O -4.6114 0.786875 1.58987 0
M  V30 7 C -4.45595 0.551659 0.207255 0
M  V30 8 C -3.41919 -0.163133 -0.316869 0
M  V30 9 C -2.39443 -0.727789 0.540539 0
M  V30 10 C -1.01007 -0.424263 0.120312 0
M  V30 11 C -0.427513 0.739569 0.497446 0
M  V30 12 C 0.888056 0.982138 0.0806905 0
M  V30 13 C 1.58485 0.0948481 -0.678443 0
M  V30 14 C 0.964096 -1.10273 -1.05856 0
M  V30 15 C -0.318624 -1.3181 -0.641756 0
M  V30 16 O 1.66866 -2.03442 -1.84624 0
M  V30 17 C 0.986075 -3.22244 -2.19556 0
M  V30 18 O 2.85539 0.275924 -1.10126 0
M  V30 19 C 3.69762 1.32348 -0.821232 0
M  V30 20 C 4.10562 1.44187 0.603341 0
M  V30 21 C 4.83649 0.163656 1.0164 0
M  V30 22 C 6.05664 -0.0477027 0.172227 0
M  V30 23 C 5.2212 0.338193 2.46506 0
M  V30 24 C -3.33567 -0.35549 -1.7141 0
M  V30 25 C -4.28837 0.172832 -2.52955 0
M  V30 26 C -5.33678 0.894869 -2.01146 0
M  V30 27 C -5.42108 1.08309 -0.658023 0
M  V30 28 N -6.31292 1.43312 -2.87955 0
M  V30 29 H -2.83122 0.482388 4.39283 0
M  V30 30 H -4.62063 0.491252 4.29341 0
M  V30 31 H -2.48535 -1.8665 0.449606 0
M  V30 32 H -0.894318 1.50606 1.09862 0
M  V30 33 H 1.34939 1.94317 0.361253 0
M  V30 34 H -0.760117 -2.27853 -0.969971 0
M  V30 35 H 0.680024 -3.69827 -1.23677 0
M  V30 36 H 0.0640158 -3.0397 -2.76982 0
M  V30 37 H 1.6215 -3.92484 -2.75608 0
M  V30 38 H 4.59992 1.23823 -1.49067 0
M  V30 39 H 3.2456 2.32477 -1.09552 0
M  V30 40 H 3.31819 1.65595 1.29304 0
M  V30 41 H 4.84094 2.30705 0.640696 0
M  V30 42 H 4.11902 -0.652539 0.935816 0
M  V30 43 H 5.81681 -0.706643 -0.673679 0
M  V30 44 H 6.38755 0.941529 -0.25485 0
M  V30 45 H 6.85338 -0.499588 0.786452 0
M  V30 46 H 6.18751 0.873022 2.56699 0
M  V30 47 H 5.34 -0.656851 2.91025 0
M  V30 48 H 4.38951 0.8702 2.97297 0
M  V30 49 H -2.48584 -0.940251 -2.1035 0
M  V30 50 H -4.17484 -0.00698315 -3.60853 0
M  V30 51 H -6.24126 1.65194 -0.211888 0
M  V30 52 H -6.08396 1.77306 -3.84003 0
M  V30 53 H -7.31512 1.51062 -2.58443 0
M  V30 END ATOM
M  V30 BEGIN BOND
M  V30 1 3 1 2
M  V30 2 1 2 3
M  V30 3 2 3 4
M  V30 4 1 4 5
M  V30 5 1 4 6
M  V30 6 1 6 7
M  V30 7 2 7 8
M  V30 8 1 8 9
M  V30 9 1 9 10
M  V30 10 2 10 11
M  V30 11 1 11 12
M  V30 12 2 12 13
M  V30 13 1 13 14
M  V30 14 2 14 15
M  V30 15 1 14 16
M  V30 16 1 16 17
M  V30 17 1 13 18
M  V30 18 1 18 19
M  V30 19 1 19 20
M  V30 20 1 20 21
M  V30 21 1 21 22
M  V30 22 1 21 23
M  V30 23 1 8 24
M  V30 24 2 24 25
M  V30 25 1 25 26
M  V30 26 2 26 27
M  V30 27 1 26 28
M  V30 28 1 9 3
M  V30 29 1 15 10
M  V30 30 1 27 7
M  V30 31 1 5 29
M  V30 32 1 5 30
M  V30 33 1 9 31
M  V30 34 1 11 32
M  V30 35 1 12 33
M  V30 36 1 15 34
M  V30 37 1 17 35
M  V30 38 1 17 36
M  V30 39 1 17 37
M  V30 40 1 19 38
M  V30 41 1 19 39
M  V30 42 1 20 40
M  V30 43 1 20 41
M  V30 44 1 21 42
M  V30 45 1 22 43
M  V30 46 1 22 44
M  V30 47 1 22 45
M  V30 48 1 23 46
M  V30 49 1 23 47
M  V30 50 1 23 48
M  V30 51 1 24 49
M  V30 52 1 25 50
M  V30 53 1 27 51
M  V30 54 1 28 52
M  V30 55 1 28 53
M  V30 END BOND
M  V30 END CTAB
M  END
