
     RDKit          3D

  0  0  0  0  0  0  0  0  0  0999 V3000
M  V30 BEGIN CTAB
M  V30 COUNTS 44 47 0 0 0
M  V30 BEGIN ATOM
M  V30 1 N -2.35705 3.2594 -1.14943 0
M  V30 2 C -1.40553 2.78108 -0.732285 0
M  V30 3 C -0.217263 2.17256 -0.198083 0
M  V30 4 C 0.836706 2.93618 0.24843 0
M  V30 5 N 0.787135 4.35732 0.196859 0
M  V30 6 N 1.94778 2.37086 0.747887 0
M  V30 7 C 2.06903 1.01743 0.829492 0
M  V30 8 C 1.01958 0.251527 0.384935 0
M  V30 9 C -0.132672 0.794293 -0.13208 0
M  V30 10 C -1.24519 -0.0219378 -0.603186 0
M  V30 11 C -1.34246 -0.45706 -1.90174 0
M  V30 12 C -0.288814 -0.103213 -2.90426 0
M  V30 13 C -2.41971 -1.22791 -2.29069 0
M  V30 14 C -3.41177 -1.5766 -1.40038 0
M  V30 15 C -3.3245 -1.14237 -0.0837744 0
M  V30 16 C -2.23569 -0.371346 0.281378 0
M  V30 17 C -2.14559 0.0660133 1.60293 0
M  V30 18 C -3.14587 -0.291174 2.48134 0
M  V30 19 C -4.20264 -1.06314 2.04523 0
M  V30 20 N -4.30451 -1.49264 0.775703 0
M  V30 21 C 1.18337 -1.22316 0.485279 0
M  V30 22 C 2.60682 -1.48091 -0.0285377 0
M  V30 23 C 3.63542 -0.937776 0.901689 0
M  V30 24 C 3.30561 0.4268 1.38694 0
M  V30 25 N 2.80092 -2.8451 -0.390378 0
M  V30 26 H 0.574393 4.8915 1.07913 0
M  V30 27 H 0.945465 4.92273 -0.650706 0
M  V30 28 H 0.539469 -0.818259 -2.74662 0
M  V30 29 H -0.684229 -0.254189 -3.9113 0
M  V30 30 H 0.0707314 0.920096 -2.80118 0
M  V30 31 H -2.45856 -1.55645 -3.34423 0
M  V30 32 H -4.238 -2.18131 -1.74534 0
M  V30 33 H -1.29565 0.668132 1.88878 0
M  V30 34 H -3.06714 0.0546897 3.51063 0
M  V30 35 H -4.95976 -1.3142 2.77679 0
M  V30 36 H 1.15887 -1.53475 1.56778 0
M  V30 37 H 0.45726 -1.78897 -0.0939881 0
M  V30 38 H 2.66942 -0.875368 -0.97839 0
M  V30 39 H 3.88947 -1.64925 1.73116 0
M  V30 40 H 4.59751 -0.864548 0.313072 0
M  V30 41 H 4.1322 1.16623 1.16912 0
M  V30 42 H 3.14292 0.358983 2.49505 0
M  V30 43 H 3.08854 -3.44568 0.4024 0
M  V30 44 H 3.424 -2.89851 -1.21543 0
M  V30 END ATOM
M  V30 BEGIN BOND
M  V30 1 3 1 2
M  V30 2 1 2 3
M  V30 3 2 3 4
M  V30 4 1 4 5
M  V30 5 1 4 6
M  V30 6 2 6 7
M  V30 7 1 7 8
M  V30 8 2 8 9
M  V30 9 1 9 10
M  V30 10 2 10 11
M  V30 11 1 11 12
M  V30 12 1 11 13
M  V30 13 2 13 14
M  V30 14 1 14 15
M  V30 15 2 15 16
M  V30 16 1 16 17
M  V30 17 2 17 18
M  V30 18 1 18 19
M  V30 19 2 19 20
M  V30 20 1 8 21
M  V30 21 1 21 22
M  V30 22 1 22 23
M  V30 23 1 23 24
M  V30 24 1 22 25
M  V30 25 1 9 3
M  V30 26 1 16 10
M  V30 27 1 24 7
M  V30 28 1 20 15
M  V30 29 1 5 26
M  V30 30 1 5 27
M  V30 31 1 12 28
M  V30 32 1 12 29
M  V30 33 1 12 30
M  V30 34 1 13 31
M  V30 35 1 14 32
M  V30 36 1 17 33
M  V30 37 1 18 34
M  V30 38 1 19 35
M  V30 39 1 21 36
M  V30 40 1 21 37
M  V30 41 1 22 38
M  V30 42 1 23 39
M  V30 43 1 23 40
M  V30 44 1 24 41
M  V30 45 1 24 42
M  V30 46 1 25 43
M  V30 47 1 25 44
M  V30 END BOND
M  V30 END CTAB
M  END
