
     RDKit          3D

  0  0  0  0  0  0  0  0  0  0999 V3000
M  V30 BEGIN CTAB
M  V30 COUNTS 40 41 0 0 0
M  V30 BEGIN ATOM
M  V30 1 N -4.38564 -0.618378 0.814735 0
M  V30 2 C -4.08417 0.666008 0.248292 0
M  V30 3 C -3.48539 0.515103 -1.1204 0
M  V30 4 C -2.24504 -0.317355 -1.014 0
M  V30 5 C -1.18835 0.289774 -0.113358 0
M  V30 6 C -1.76155 0.708582 1.2101 0
M  V30 7 C -3.09423 1.3851 1.12158 0
M  V30 8 N -0.236465 -0.759015 0.160088 0
M  V30 9 C 1.12037 -0.436286 -0.196787 0
M  V30 10 C 1.94048 -1.6637 0.187615 0
M  V30 11 C 3.41211 -1.45565 0.0427636 0
M  V30 12 C 3.8077 -0.065075 -0.355474 0
M  V30 13 C 3.10629 0.889068 0.596152 0
M  V30 14 C 1.61051 0.795263 0.508479 0
M  V30 15 N 5.24007 0.0602409 -0.0947133 0
M  V30 16 H -3.60634 -1.05685 1.33251 0
M  V30 17 H -4.85348 -1.27758 0.170821 0
M  V30 18 H -5.01663 1.26716 0.257925 0
M  V30 19 H -4.21097 -0.069958 -1.72512 0
M  V30 20 H -3.34074 1.48769 -1.61626 0
M  V30 21 H -2.52964 -1.286 -0.57985 0
M  V30 22 H -1.82283 -0.501735 -2.01129 0
M  V30 23 H -0.672662 1.13594 -0.632718 0
M  V30 24 H -1.83957 -0.194016 1.86632 0
M  V30 25 H -1.0712 1.40233 1.72343 0
M  V30 26 H -3.01356 2.47347 0.87418 0
M  V30 27 H -3.52925 1.37731 2.15424 0
M  V30 28 H -0.465507 -1.6663 -0.304731 0
M  V30 29 H 1.24038 -0.28744 -1.29653 0
M  V30 30 H 1.5768 -2.51014 -0.440378 0
M  V30 31 H 1.64336 -1.89145 1.24024 0
M  V30 32 H 3.83288 -2.24407 -0.620986 0
M  V30 33 H 3.87674 -1.64167 1.0443 0
M  V30 34 H 3.56919 0.194761 -1.39566 0
M  V30 35 H 3.46889 0.616725 1.61952 0
M  V30 36 H 3.47046 1.93101 0.432914 0
M  V30 37 H 1.22256 0.748288 1.54586 0
M  V30 38 H 1.23544 1.67584 -0.0581533 0
M  V30 39 H 5.49338 1.01009 0.249019 0
M  V30 40 H 5.58561 -0.687066 0.548394 0
M  V30 END ATOM
M  V30 BEGIN BOND
M  V30 1 1 1 2
M  V30 2 1 2 3
M  V30 3 1 3 4
M  V30 4 1 4 5
M  V30 5 1 5 6
M  V30 6 1 6 7
M  V30 7 1 5 8
M  V30 8 1 8 9
M  V30 9 1 9 10
M  V30 10 1 10 11
M  V30 11 1 11 12
M  V30 12 1 12 13
M  V30 13 1 13 14
M  V30 14 1 12 15
M  V30 15 1 7 2
M  V30 16 1 14 9
M  V30 17 1 1 16
M  V30 18 1 1 17
M  V30 19 1 2 18
M  V30 20 1 3 19
M  V30 21 1 3 20
M  V30 22 1 4 21
M  V30 23 1 4 22
M  V30 24 1 5 23
M  V30 25 1 6 24
M  V30 26 1 6 25
M  V30 27 1 7 26
M  V30 28 1 7 27
M  V30 29 1 8 28
M  V30 30 1 9 29
M  V30 31 1 10 30
M  V30 32 1 10 31
M  V30 33 1 11 32
M  V30 34 1 11 33
M  V30 35 1 12 34
M  V30 36 1 13 35
M  V30 37 1 13 36
M  V30 38 1 14 37
M  V30 39 1 14 38
M  V30 40 1 15 39
M  V30 41 1 15 40
M  V30 END BOND
M  V30 END CTAB
M  END
