
     RDKit          3D

  0  0  0  0  0  0  0  0  0  0999 V3000
M  V30 BEGIN CTAB
M  V30 COUNTS 37 38 0 0 0
M  V30 BEGIN ATOM
M  V30 1 O 1.3789 -1.55697 1.3707 0
M  V30 2 C 0.835094 -0.894871 0.471234 0
M  V30 3 C -0.641849 -1.1979 0.272982 0
M  V30 4 S -1.49086 0.397218 0.572259 0
M  V30 5 C -3.25669 0.209073 0.373703 0
M  V30 6 N -3.77857 0.401407 -0.834319 0
M  V30 7 C -5.09394 0.270754 -1.02458 0
M  V30 8 N -5.63251 0.481287 -2.32609 0
M  V30 9 N -5.86873 -0.0563673 0.0236475 0
M  V30 10 C -5.36342 -0.253803 1.24544 0
M  V30 11 N -4.03549 -0.118972 1.42392 0
M  V30 12 N -6.13963 -0.599048 2.37883 0
M  V30 13 C -0.87038 -1.69314 -1.1252 0
M  V30 14 N 1.40642 0.0740254 -0.36198 0
M  V30 15 C 2.73193 0.540769 -0.392411 0
M  V30 16 C 3.1219 1.52981 -1.31486 0
M  V30 17 C 4.39906 2.01638 -1.38438 0
M  V30 18 C 5.34995 1.53026 -0.526487 0
M  V30 19 C 5.04348 0.568973 0.395808 0
M  V30 20 C 3.72867 0.0920892 0.441623 0
M  V30 21 C 6.04072 0.0147708 1.3432 0
M  V30 22 H -1.02384 -1.90161 1.01272 0
M  V30 23 H -6.64873 0.631259 -2.49518 0
M  V30 24 H -5.00739 0.48987 -3.15554 0
M  V30 25 H -6.32162 -1.59781 2.55753 0
M  V30 26 H -6.52985 0.105451 3.032 0
M  V30 27 H -1.62715 -2.52386 -1.16999 0
M  V30 28 H 0.0780506 -2.14037 -1.48167 0
M  V30 29 H -1.1269 -0.878272 -1.83818 0
M  V30 30 H 0.749059 0.523066 -1.07372 0
M  V30 31 H 2.33508 1.89947 -1.98966 0
M  V30 32 H 4.63755 2.79238 -2.13215 0
M  V30 33 H 6.35432 1.92484 -0.594214 0
M  V30 34 H 3.51289 -0.675539 1.18847 0
M  V30 35 H 6.27209 -1.03747 1.09018 0
M  V30 36 H 5.55512 -0.00723693 2.35378 0
M  V30 37 H 6.92727 0.640078 1.43935 0
M  V30 END ATOM
M  V30 BEGIN BOND
M  V30 1 2 1 2
M  V30 2 1 2 3
M  V30 3 1 3 4
M  V30 4 1 4 5
M  V30 5 2 5 6
M  V30 6 1 6 7
M  V30 7 1 7 8
M  V30 8 2 7 9
M  V30 9 1 9 10
M  V30 10 2 10 11
M  V30 11 1 10 12
M  V30 12 1 3 13
M  V30 13 1 2 14
M  V30 14 1 14 15
M  V30 15 2 15 16
M  V30 16 1 16 17
M  V30 17 2 17 18
M  V30 18 1 18 19
M  V30 19 2 19 20
M  V30 20 1 19 21
M  V30 21 1 11 5
M  V30 22 1 20 15
M  V30 23 1 3 22
M  V30 24 1 8 23
M  V30 25 1 8 24
M  V30 26 1 12 25
M  V30 27 1 12 26
M  V30 28 1 13 27
M  V30 29 1 13 28
M  V30 30 1 13 29
M  V30 31 1 14 30
M  V30 32 1 16 31
M  V30 33 1 17 32
M  V30 34 1 18 33
M  V30 35 1 20 34
M  V30 36 1 21 35
M  V30 37 1 21 36
M  V30 38 1 21 37
M  V30 END BOND
M  V30 END CTAB
M  END
