
     RDKit          3D

  0  0  0  0  0  0  0  0  0  0999 V3000
M  V30 BEGIN CTAB
M  V30 COUNTS 19 19 0 0 0
M  V30 BEGIN ATOM
M  V30 1 N -2.08319 2.04672 0.249515 0
M  V30 2 N -2.38279 0.770883 -0.0752433 0
M  V30 3 C -1.58233 -0.180176 -0.209938 0
M  V30 4 C -0.149788 -0.134816 -0.0492114 0
M  V30 5 C 0.575048 0.966632 0.281049 0
M  V30 6 C 1.97111 0.918333 0.416077 0
M  V30 7 Cl 2.83202 2.36771 0.840939 0
M  V30 8 C 2.6112 -0.259777 0.21103 0
M  V30 9 C 1.89773 -1.39011 -0.124707 0
M  V30 10 C 0.547193 -1.32324 -0.250677 0
M  V30 11 Br 2.7916 -3.06088 -0.417016 0
M  V30 12 N -2.17953 -1.45861 -0.566433 0
M  V30 13 H -1.8689 2.81914 -0.448844 0
M  V30 14 H -2.05778 2.32903 1.27442 0
M  V30 15 H 0.134453 1.94103 0.460044 0
M  V30 16 H 3.68705 -0.326356 0.308313 0
M  V30 17 H 0.0197048 -2.24795 -0.519477 0
M  V30 18 H -2.27436 -2.18005 0.156532 0
M  V30 19 H -2.48845 -1.59751 -1.53637 0
M  V30 END ATOM
M  V30 BEGIN BOND
M  V30 1 1 1 2
M  V30 2 2 2 3
M  V30 3 1 3 4
M  V30 4 2 4 5
M  V30 5 1 5 6
M  V30 6 1 6 7
M  V30 7 2 6 8
M  V30 8 1 8 9
M  V30 9 2 9 10
M  V30 10 1 9 11
M  V30 11 1 3 12
M  V30 12 1 10 4
M  V30 13 1 1 13
M  V30 14 1 1 14
M  V30 15 1 5 15
M  V30 16 1 8 16
M  V30 17 1 10 17
M  V30 18 1 12 18
M  V30 19 1 12 19
M  V30 END BOND
M  V30 END CTAB
M  END
