
     RDKit          3D

  0  0  0  0  0  0  0  0  0  0999 V3000
M  V30 BEGIN CTAB
M  V30 COUNTS 119 118 0 0 0
M  V30 BEGIN ATOM
M  V30 1 C -11.8632 -0.501172 0.764603 0
M  V30 2 C -12.7175 -0.840924 -0.415065 0
M  V30 3 C -14.1705 -0.672631 0.0397156 0
M  V30 4 C -12.3986 0.0368564 -1.57182 0
M  V30 5 C -11.0421 0.00570059 -2.1292 0 CFG=2
M  V30 6 N -10.6475 -1.34111 -2.55653 0
M  V30 7 C -9.93494 0.66737 -1.47662 0
M  V30 8 O -10.0322 1.91256 -1.21408 0
M  V30 9 N -8.74309 0.0267429 -1.1195 0
M  V30 10 C -7.56017 0.562269 -0.54301 0 CFG=1
M  V30 11 C -7.44812 0.5837 0.942121 0
M  V30 12 C -8.47966 1.42477 1.63632 0
M  V30 13 C -7.46551 -0.793249 1.56254 0
M  V30 14 C -6.35453 -0.123666 -1.081 0
M  V30 15 O -6.50572 -1.12078 -1.83671 0
M  V30 16 N -5.06492 0.309958 -0.769314 0
M  V30 17 C -3.80734 -0.293093 -1.2195 0 CFG=1
M  V30 18 C -3.41509 0.593948 -2.44214 0 CFG=1
M  V30 19 C -4.40046 0.507443 -3.5463 0
M  V30 20 O -3.24382 1.9118 -2.01212 0
M  V30 21 C -2.75175 -0.102455 -0.20814 0
M  V30 22 O -3.00821 0.655209 0.779311 0
M  V30 23 N -1.48986 -0.685019 -0.251696 0
M  V30 24 C -0.457077 -0.434555 0.738982 0 CFG=1
M  V30 25 C -0.769439 -1.36608 1.90649 0
M  V30 26 C -0.764325 -2.78539 1.6014 0
M  V30 27 O -1.93698 -3.52122 1.36812 0
M  V30 28 O 0.306494 -3.43281 1.5304 0
M  V30 29 C 0.906028 -0.57022 0.272787 0
M  V30 30 O 1.23985 -1.5473 -0.443209 0
M  V30 31 N 1.95493 0.358687 0.571568 0
M  V30 32 C 3.30891 0.166696 0.111426 0 CFG=1
M  V30 33 C 3.44867 0.583723 -1.34348 0
M  V30 34 C 3.11791 1.96522 -1.69972 0
M  V30 35 C 3.88808 3.07896 -1.09193 0
M  V30 36 C 3.34094 2.09004 -3.22715 0
M  V30 37 C 4.29962 0.845568 0.981247 0
M  V30 38 O 3.93157 1.78683 1.73592 0
M  V30 39 N 5.62972 0.445381 0.960196 0
M  V30 40 C 6.81079 0.890536 1.60234 0 CFG=1
M  V30 41 C 6.69509 1.19186 3.09118 0 CFG=1
M  V30 42 C 6.27315 2.58073 3.39749 0
M  V30 43 O 6.19474 0.184357 3.85457 0
M  V30 44 C 7.99048 0.0724924 1.29948 0
M  V30 45 O 7.86663 -0.999943 0.660774 0
M  V30 46 N 9.27394 0.487771 1.72759 0
M  V30 47 C 10.4688 -0.349974 1.44626 0 CFG=1
M  V30 48 C 11.2482 0.246621 0.326772 0
M  V30 49 C 12.4591 -0.55375 -0.0136212 0
M  V30 50 C 12.1113 -1.96384 -0.423433 0
M  V30 51 C 13.3663 -2.75036 -0.762112 0
M  V30 52 N 12.9669 -4.09036 -1.14479 0
M  V30 53 C 11.2037 -0.530888 2.71186 0
M  V30 54 O 12.3462 -1.29633 2.82862 0
M  V30 55 O 10.814 0.0217552 3.79956 0
M  V30 56 H -10.8773 -0.967568 0.777234 0
M  V30 57 H -11.6691 0.61136 0.8167 0
M  V30 58 H -12.3516 -0.79091 1.74154 0
M  V30 59 H -12.6477 -1.93294 -0.680472 0
M  V30 60 H -14.27 0.0155012 0.89404 0
M  V30 61 H -14.6334 -1.63482 0.319652 0
M  V30 62 H -14.8165 -0.27345 -0.794643 0
M  V30 63 H -12.6391 1.11294 -1.32958 0
M  V30 64 H -13.1298 -0.210128 -2.37838 0
M  V30 65 H -11.1837 0.509476 -3.19285 0
M  V30 66 H -9.80274 -1.29205 -3.18097 0
M  V30 67 H -10.5503 -1.93456 -1.72674 0
M  V30 68 H -8.70978 -1.02763 -1.30674 0
M  V30 69 H -7.57487 1.67196 -0.831639 0
M  V30 70 H -6.46062 1.03609 1.20024 0
M  V30 71 H -9.45715 0.945561 1.77329 0
M  V30 72 H -8.14483 1.66513 2.69735 0
M  V30 73 H -8.56254 2.446 1.17503 0
M  V30 74 H -8.53387 -1.09897 1.75504 0
M  V30 75 H -7.01322 -0.692672 2.57795 0
M  V30 76 H -6.89973 -1.54925 1.02892 0
M  V30 77 H -4.99683 1.17298 -0.133224 0
M  V30 78 H -3.92317 -1.29302 -1.62302 0
M  V30 79 H -2.4391 0.208189 -2.77267 0
M  V30 80 H -5.35167 1.06202 -3.30234 0
M  V30 81 H -3.96799 1.06229 -4.43585 0
M  V30 82 H -4.56915 -0.510562 -3.90452 0
M  V30 83 H -4.1345 2.23801 -1.68181 0
M  V30 84 H -1.24758 -1.33837 -1.02507 0
M  V30 85 H -0.642392 0.572237 1.1525 0
M  V30 86 H 0.0184012 -1.20006 2.70112 0
M  V30 87 H -1.71815 -1.04966 2.38416 0
M  V30 88 H -2.35426 -3.51445 0.469842 0
M  V30 89 H 1.70764 1.18858 1.13827 0
M  V30 90 H 3.51428 -0.918624 0.103991 0
M  V30 91 H 2.77683 -0.0800374 -1.97091 0
M  V30 92 H 4.46673 0.350598 -1.72827 0
M  V30 93 H 2.00043 2.12933 -1.62206 0
M  V30 94 H 4.88019 2.82993 -0.73342 0
M  V30 95 H 3.28566 3.62148 -0.324255 0
M  V30 96 H 4.08445 3.91034 -1.85984 0
M  V30 97 H 2.77947 1.29212 -3.70707 0
M  V30 98 H 2.91179 3.09218 -3.47407 0
M  V30 99 H 4.40649 2.11366 -3.4747 0
M  V30 100 H 5.81647 -0.40416 0.300646 0
M  V30 101 H 6.99442 1.94423 1.1851 0
M  V30 102 H 7.83235 1.18622 3.40213 0
M  V30 103 H 6.1792 3.25136 2.5115 0
M  V30 104 H 5.35086 2.57051 4.04051 0
M  V30 105 H 7.03927 3.04986 4.08872 0
M  V30 106 H 6.19095 0.4587 4.78454 0
M  V30 107 H 9.39331 1.37397 2.22805 0
M  V30 108 H 10.0753 -1.32093 1.10573 0
M  V30 109 H 11.5296 1.31291 0.552231 0
M  V30 110 H 10.5741 0.225331 -0.574 0
M  V30 111 H 12.9374 -0.10642 -0.969625 0
M  V30 112 H 13.2453 -0.58596 0.755097 0
M  V30 113 H 11.5365 -2.45209 0.3672 0
M  V30 114 H 11.437 -1.90769 -1.33253 0
M  V30 115 H 13.7736 -2.27535 -1.7008 0
M  V30 116 H 14.1069 -2.716 0.0404646 0
M  V30 117 H 11.9496 -4.05366 -1.42358 0
M  V30 118 H 13.0169 -4.75143 -0.342014 0
M  V30 119 H 12.4721 -1.87608 3.63886 0
M  V30 END ATOM
M  V30 BEGIN BOND
M  V30 1 1 1 2
M  V30 2 1 2 3
M  V30 3 1 2 4
M  V30 4 1 4 5
M  V30 5 1 5 6
M  V30 6 1 5 7
M  V30 7 2 7 8
M  V30 8 1 7 9
M  V30 9 1 9 10
M  V30 10 1 10 11
M  V30 11 1 11 12
M  V30 12 1 11 13
M  V30 13 1 10 14
M  V30 14 2 14 15
M  V30 15 1 14 16
M  V30 16 1 16 17
M  V30 17 1 17 18
M  V30 18 1 18 19
M  V30 19 1 18 20
M  V30 20 1 17 21
M  V30 21 2 21 22
M  V30 22 1 21 23
M  V30 23 1 23 24
M  V30 24 1 24 25
M  V30 25 1 25 26
M  V30 26 1 26 27
M  V30 27 2 26 28
M  V30 28 1 24 29
M  V30 29 2 29 30
M  V30 30 1 29 31
M  V30 31 1 31 32
M  V30 32 1 32 33
M  V30 33 1 33 34
M  V30 34 1 34 35
M  V30 35 1 34 36
M  V30 36 1 32 37
M  V30 37 2 37 38
M  V30 38 1 37 39
M  V30 39 1 39 40
M  V30 40 1 40 41
M  V30 41 1 41 42
M  V30 42 1 41 43
M  V30 43 1 40 44
M  V30 44 2 44 45
M  V30 45 1 44 46
M  V30 46 1 46 47
M  V30 47 1 47 48
M  V30 48 1 48 49
M  V30 49 1 49 50
M  V30 50 1 50 51
M  V30 51 1 51 52
M  V30 52 1 47 53
M  V30 53 1 53 54
M  V30 54 2 53 55
M  V30 55 1 1 56
M  V30 56 1 1 57
M  V30 57 1 1 58
M  V30 58 1 2 59
M  V30 59 1 3 60
M  V30 60 1 3 61
M  V30 61 1 3 62
M  V30 62 1 4 63
M  V30 63 1 4 64
M  V30 64 1 5 65 CFG=3
M  V30 65 1 6 66
M  V30 66 1 6 67
M  V30 67 1 9 68
M  V30 68 1 10 69 CFG=3
M  V30 69 1 11 70
M  V30 70 1 12 71
M  V30 71 1 12 72
M  V30 72 1 12 73
M  V30 73 1 13 74
M  V30 74 1 13 75
M  V30 75 1 13 76
M  V30 76 1 16 77
M  V30 77 1 17 78 CFG=3
M  V30 78 1 18 79 CFG=3
M  V30 79 1 19 80
M  V30 80 1 19 81
M  V30 81 1 19 82
M  V30 82 1 20 83
M  V30 83 1 23 84
M  V30 84 1 24 85 CFG=1
M  V30 85 1 25 86
M  V30 86 1 25 87
M  V30 87 1 27 88
M  V30 88 1 31 89
M  V30 89 1 32 90 CFG=3
M  V30 90 1 33 91
M  V30 91 1 33 92
M  V30 92 1 34 93
M  V30 93 1 35 94
M  V30 94 1 35 95
M  V30 95 1 35 96
M  V30 96 1 36 97
M  V30 97 1 36 98
M  V30 98 1 36 99
M  V30 99 1 39 100
M  V30 100 1 40 101 CFG=3
M  V30 101 1 41 102 CFG=1
M  V30 102 1 42 103
M  V30 103 1 42 104
M  V30 104 1 42 105
M  V30 105 1 43 106
M  V30 106 1 46 107
M  V30 107 1 47 108 CFG=3
M  V30 108 1 48 109
M  V30 109 1 48 110
M  V30 110 1 49 111
M  V30 111 1 49 112
M  V30 112 1 50 113
M  V30 113 1 50 114
M  V30 114 1 51 115
M  V30 115 1 51 116
M  V30 116 1 52 117
M  V30 117 1 52 118
M  V30 118 1 54 119
M  V30 END BOND
M  V30 END CTAB
M  END
