
     RDKit          3D

  0  0  0  0  0  0  0  0  0  0999 V3000
M  V30 BEGIN CTAB
M  V30 COUNTS 16 16 0 0 0
M  V30 BEGIN ATOM
M  V30 1 N -1.50931 -1.61271 -0.0297169 0
M  V30 2 C -0.360618 -0.757059 -0.0153189 0
M  V30 3 C -0.552759 0.607616 0.0203181 0
M  V30 4 N -1.88222 1.10254 0.0411758 0
M  V30 5 C 0.55265 1.43764 0.0343265 0
M  V30 6 Cl 0.320385 3.17487 0.079621 0
M  V30 7 C 1.83327 0.921302 0.0132617 0
M  V30 8 C 2.00578 -0.445558 -0.022306 0
M  V30 9 Cl 3.63181 -1.09763 -0.0489412 0
M  V30 10 C 0.914811 -1.2934 -0.0368509 0
M  V30 11 H -1.53665 -2.4398 0.582534 0
M  V30 12 H -2.3342 -1.43769 -0.63953 0
M  V30 13 H -2.26457 1.58634 -0.801412 0
M  V30 14 H -2.52591 1.0158 0.862291 0
M  V30 15 H 2.68322 1.62049 0.025566 0
M  V30 16 H 1.02431 -2.38275 -0.065019 0
M  V30 END ATOM
M  V30 BEGIN BOND
M  V30 1 1 1 2
M  V30 2 2 2 3
M  V30 3 1 3 4
M  V30 4 1 3 5
M  V30 5 1 5 6
M  V30 6 2 5 7
M  V30 7 1 7 8
M  V30 8 1 8 9
M  V30 9 2 8 10
M  V30 10 1 10 2
M  V30 11 1 1 11
M  V30 12 1 1 12
M  V30 13 1 4 13
M  V30 14 1 4 14
M  V30 15 1 7 15
M  V30 16 1 10 16
M  V30 END BOND
M  V30 END CTAB
M  END
