
     RDKit          3D

  0  0  0  0  0  0  0  0  0  0999 V3000
M  V30 BEGIN CTAB
M  V30 COUNTS 21 22 0 0 0
M  V30 BEGIN ATOM
M  V30 1 N -3.63784 1.5113 0.418702 0
M  V30 2 C -2.47136 0.742493 0.144731 0
M  V30 3 N -1.2109 1.22459 0.187329 0
M  V30 4 N -0.336592 0.293758 -0.109479 0
M  V30 5 C -1.0304 -0.840463 -0.357041 0
M  V30 6 C -2.38545 -0.586648 -0.203684 0
M  V30 7 N -0.500407 -2.10918 -0.718663 0
M  V30 8 C 1.09892 0.37132 -0.182591 0
M  V30 9 C 1.88552 -0.588639 0.389301 0
M  V30 10 C 3.2586 -0.453206 0.281986 0
M  V30 11 N 3.81085 0.585291 -0.361875 0
M  V30 12 C 3.02264 1.51311 -0.914108 0
M  V30 13 N 1.69867 1.38975 -0.81505 0
M  V30 14 H -4.18224 1.31892 1.28721 0
M  V30 15 H -3.99808 2.2708 -0.198225 0
M  V30 16 H -3.22373 -1.2395 -0.31771 0
M  V30 17 H -0.278426 -2.83189 -0.00406485 0
M  V30 18 H -0.32008 -2.34805 -1.71447 0
M  V30 19 H 1.45375 -1.42585 0.908118 0
M  V30 20 H 3.94863 -1.17943 0.71293 0
M  V30 21 H 3.39794 2.38153 -1.45098 0
M  V30 END ATOM
M  V30 BEGIN BOND
M  V30 1 1 1 2
M  V30 2 2 2 3
M  V30 3 1 3 4
M  V30 4 1 4 5
M  V30 5 2 5 6
M  V30 6 1 5 7
M  V30 7 1 4 8
M  V30 8 2 8 9
M  V30 9 1 9 10
M  V30 10 2 10 11
M  V30 11 1 11 12
M  V30 12 2 12 13
M  V30 13 1 6 2
M  V30 14 1 13 8
M  V30 15 1 1 14
M  V30 16 1 1 15
M  V30 17 1 6 16
M  V30 18 1 7 17
M  V30 19 1 7 18
M  V30 20 1 9 19
M  V30 21 1 10 20
M  V30 22 1 12 21
M  V30 END BOND
M  V30 END CTAB
M  END
