
     RDKit          3D

  0  0  0  0  0  0  0  0  0  0999 V3000
M  V30 BEGIN CTAB
M  V30 COUNTS 39 40 0 0 0
M  V30 BEGIN ATOM
M  V30 1 N -5.3349 -0.915027 -1.13305 0
M  V30 2 C -4.05649 -1.391 -0.746446 0
M  V30 3 N -3.77244 -2.78172 -0.766791 0
M  V30 4 N -3.16221 -0.5877 -0.382603 0
M  V30 5 C -3.23541 0.825012 -0.291855 0
M  V30 6 N -4.42 1.4385 -0.634755 0
M  V30 7 C -4.58116 2.75956 -0.601822 0
M  V30 8 C -3.49639 3.50282 -0.203682 0
M  V30 9 Cl -3.66347 5.24913 -0.145489 0
M  V30 10 C -2.30834 2.91784 0.142635 0
M  V30 11 C -2.13824 1.51916 0.108031 0
M  V30 12 C -0.853975 1.0086 0.516751 0
M  V30 13 C -0.439985 -0.225502 0.662033 0
M  V30 14 C 0.897597 -0.612441 1.08483 0
M  V30 15 O 1.1577 -1.83892 1.18704 0
M  V30 16 N 1.89001 0.309958 1.37733 0
M  V30 17 C 3.24246 -0.0855675 1.80855 0
M  V30 18 C 3.95397 -0.536839 0.591411 0
M  V30 19 C 5.18127 -1.17824 0.772555 0
M  V30 20 C 5.89582 -1.61968 -0.322608 0
M  V30 21 C 5.38889 -1.42283 -1.59906 0
M  V30 22 C 4.18217 -0.79348 -1.80323 0
M  V30 23 C 3.4926 -0.363234 -0.671812 0
M  V30 24 H -5.59628 -0.702065 -2.10011 0
M  V30 25 H -6.03739 -0.782205 -0.353954 0
M  V30 26 H -2.78309 -3.12817 -0.730888 0
M  V30 27 H -4.58089 -3.46197 -0.819747 0
M  V30 28 H -5.53306 3.21762 -0.87918 0
M  V30 29 H -1.44622 3.52055 0.459966 0
M  V30 30 H -0.0386412 1.73824 0.757595 0
M  V30 31 H -1.15571 -1.00534 0.456398 0
M  V30 32 H 1.75385 1.32869 1.31307 0
M  V30 33 H 3.78301 0.753367 2.29599 0
M  V30 34 H 3.12642 -0.940676 2.52368 0
M  V30 35 H 5.55389 -1.3189 1.79458 0
M  V30 36 H 6.84127 -2.11432 -0.185651 0
M  V30 37 H 5.93145 -1.75995 -2.45452 0
M  V30 38 H 3.80457 -0.650205 -2.80646 0
M  V30 39 H 2.55735 0.126922 -0.846349 0
M  V30 END ATOM
M  V30 BEGIN BOND
M  V30 1 1 1 2
M  V30 2 1 2 3
M  V30 3 2 2 4
M  V30 4 1 4 5
M  V30 5 2 5 6
M  V30 6 1 6 7
M  V30 7 2 7 8
M  V30 8 1 8 9
M  V30 9 1 8 10
M  V30 10 2 10 11
M  V30 11 1 11 12
M  V30 12 2 12 13
M  V30 13 1 13 14
M  V30 14 2 14 15
M  V30 15 1 14 16
M  V30 16 1 16 17
M  V30 17 1 17 18
M  V30 18 2 18 19
M  V30 19 1 19 20
M  V30 20 2 20 21
M  V30 21 1 21 22
M  V30 22 2 22 23
M  V30 23 1 11 5
M  V30 24 1 23 18
M  V30 25 1 1 24
M  V30 26 1 1 25
M  V30 27 1 3 26
M  V30 28 1 3 27
M  V30 29 1 7 28
M  V30 30 1 10 29
M  V30 31 1 12 30
M  V30 32 1 13 31
M  V30 33 1 16 32
M  V30 34 1 17 33
M  V30 35 1 17 34
M  V30 36 1 19 35
M  V30 37 1 20 36
M  V30 38 1 21 37
M  V30 39 1 22 38
M  V30 40 1 23 39
M  V30 END BOND
M  V30 END CTAB
M  END
