
     RDKit          3D

  0  0  0  0  0  0  0  0  0  0999 V3000
M  V30 BEGIN CTAB
M  V30 COUNTS 42 43 0 0 0
M  V30 BEGIN ATOM
M  V30 1 N 5.38899 1.10653 1.42692 0
M  V30 2 C 5.81037 0.693072 0.132623 0
M  V30 3 C 4.92808 -0.237444 -0.603227 0
M  V30 4 N 3.61686 0.291175 -0.877417 0
M  V30 5 C 2.87708 0.411646 0.326216 0
M  V30 6 C 1.36026 0.32599 0.157093 0
M  V30 7 N 0.970525 -0.870281 -0.511129 0
M  V30 8 C 2.14239 -1.63639 -1.0372 0
M  V30 9 C 3.00195 -0.653168 -1.81154 0
M  V30 10 C -0.305298 -1.39532 -0.743909 0
M  V30 11 S -0.311232 -2.90726 -1.55398 0
M  V30 12 N -1.59205 -0.990484 -0.452505 0
M  V30 13 C -2.17309 0.113877 0.168038 0
M  V30 14 O -1.52433 1.05499 0.621561 0
M  V30 15 C -3.64164 0.25041 0.336142 0
M  V30 16 C -4.49997 -0.821491 0.278318 0
M  V30 17 C -5.87685 -0.637444 0.433977 0
M  V30 18 C -6.43434 0.605856 0.649605 0
M  V30 19 C -5.55698 1.6772 0.705735 0
M  V30 20 C -4.20067 1.49962 0.552822 0
M  V30 21 N -7.83659 0.773624 0.806463 0
M  V30 22 H 5.64962 2.09657 1.65919 0
M  V30 23 H 5.66244 0.475979 2.20613 0
M  V30 24 H 5.96196 1.64093 -0.467267 0
M  V30 25 H 6.84531 0.286184 0.240228 0
M  V30 26 H 5.39765 -0.674738 -1.51369 0
M  V30 27 H 4.78438 -1.13927 0.0685095 0
M  V30 28 H 3.02656 1.46576 0.717232 0
M  V30 29 H 3.23161 -0.25661 1.12267 0
M  V30 30 H 1.0792 1.24613 -0.347606 0
M  V30 31 H 1.01193 0.24408 1.23172 0
M  V30 32 H 1.77155 -2.35981 -1.74449 0
M  V30 33 H 2.66977 -2.09229 -0.193504 0
M  V30 34 H 3.74376 -1.22268 -2.38841 0
M  V30 35 H 2.35193 -0.108991 -2.50289 0
M  V30 36 H -2.39885 -1.69221 -0.784552 0
M  V30 37 H -4.14757 -1.81213 0.120622 0
M  V30 38 H -6.56368 -1.4688 0.390855 0
M  V30 39 H -5.98 2.65141 0.873743 0
M  V30 40 H -3.5158 2.35576 0.599135 0
M  V30 41 H -8.2902 1.60161 0.37555 0
M  V30 42 H -8.435 0.108437 1.33221 0
M  V30 END ATOM
M  V30 BEGIN BOND
M  V30 1 1 1 2
M  V30 2 1 2 3
M  V30 3 1 3 4
M  V30 4 1 4 5
M  V30 5 1 5 6
M  V30 6 1 6 7
M  V30 7 1 7 8
M  V30 8 1 8 9
M  V30 9 1 7 10
M  V30 10 2 10 11
M  V30 11 1 10 12
M  V30 12 1 12 13
M  V30 13 2 13 14
M  V30 14 1 13 15
M  V30 15 2 15 16
M  V30 16 1 16 17
M  V30 17 2 17 18
M  V30 18 1 18 19
M  V30 19 2 19 20
M  V30 20 1 18 21
M  V30 21 1 9 4
M  V30 22 1 20 15
M  V30 23 1 1 22
M  V30 24 1 1 23
M  V30 25 1 2 24
M  V30 26 1 2 25
M  V30 27 1 3 26
M  V30 28 1 3 27
M  V30 29 1 5 28
M  V30 30 1 5 29
M  V30 31 1 6 30
M  V30 32 1 6 31
M  V30 33 1 8 32
M  V30 34 1 8 33
M  V30 35 1 9 34
M  V30 36 1 9 35
M  V30 37 1 12 36
M  V30 38 1 16 37
M  V30 39 1 17 38
M  V30 40 1 19 39
M  V30 41 1 20 40
M  V30 42 1 21 41
M  V30 43 1 21 42
M  V30 END BOND
M  V30 END CTAB
M  END
