
     RDKit          3D

  0  0  0  0  0  0  0  0  0  0999 V3000
M  V30 BEGIN CTAB
M  V30 COUNTS 15 15 0 0 0
M  V30 BEGIN ATOM
M  V30 1 N -2.4107 -1.46115 0.265873 0
M  V30 2 N -2.11844 -0.0955823 0.278873 0
M  V30 3 C -0.758235 0.349542 0.201304 0
M  V30 4 N -0.477435 1.662 0.21378 0
M  V30 5 C 0.781117 2.14337 0.143633 0
M  V30 6 N 1.77061 1.24811 0.0587516 0
M  V30 7 C 1.54111 -0.0765232 0.0426714 0
M  V30 8 N 0.256269 -0.506457 0.11572 0
M  V30 9 N 2.63347 -0.961803 -0.0486107 0
M  V30 10 H -3.44919 -1.57166 0.0753577 0
M  V30 11 H -1.94694 -1.93323 -0.547214 0
M  V30 12 H -2.88223 0.611962 0.344806 0
M  V30 13 H 0.942347 3.19639 0.157763 0
M  V30 14 H 3.15343 -1.2231 0.818884 0
M  V30 15 H 2.96481 -1.38187 -0.938529 0
M  V30 END ATOM
M  V30 BEGIN BOND
M  V30 1 1 1 2
M  V30 2 1 2 3
M  V30 3 2 3 4
M  V30 4 1 4 5
M  V30 5 2 5 6
M  V30 6 1 6 7
M  V30 7 2 7 8
M  V30 8 1 7 9
M  V30 9 1 8 3
M  V30 10 1 1 10
M  V30 11 1 1 11
M  V30 12 1 2 12
M  V30 13 1 5 13
M  V30 14 1 9 14
M  V30 15 1 9 15
M  V30 END BOND
M  V30 END CTAB
M  END
