
     RDKit          3D

  0  0  0  0  0  0  0  0  0  0999 V3000
M  V30 BEGIN CTAB
M  V30 COUNTS 126 130 0 0 0
M  V30 BEGIN ATOM
M  V30 1 C -0.88673 -5.98978 2.14447 0
M  V30 2 C -0.206438 -6.03818 0.803843 0
M  V30 3 C -0.974356 -6.92779 -0.1637 0
M  V30 4 C 1.17074 -6.64738 0.930994 0
M  V30 5 C -0.0809024 -4.66437 0.276892 0
M  V30 6 C -1.14959 -3.94305 -0.187536 0
M  V30 7 C -1.08515 -2.66816 -0.723298 0
M  V30 8 C 0.158097 -2.00855 -0.827356 0
M  V30 9 O 0.244589 -0.7278 -1.39797 0
M  V30 10 C 1.25073 -2.70969 -0.35507 0
M  V30 11 C 2.71539 -2.35546 -0.165108 0
M  V30 12 C 2.98753 -0.883834 0.00520137 0
M  V30 13 C 3.48554 -0.411104 -1.2395 0
M  V30 14 C 3.66707 0.912187 -1.51731 0
M  V30 15 C 3.33973 1.75829 -0.530705 0
M  V30 16 C 2.83767 1.39053 0.743471 0
M  V30 17 C 2.42593 2.63119 1.4485 0
M  V30 18 C 1.03343 3.11086 1.07726 0
M  V30 19 C -0.219927 2.54786 1.25824 0
M  V30 20 O -0.506294 1.42427 2.10522 0
M  V30 21 C -1.27736 3.16084 0.565447 0
M  V30 22 C -2.74542 2.83341 0.425118 0
M  V30 23 C -3.05004 1.35852 0.293034 0
M  V30 24 C -3.46575 0.947186 1.59042 0
M  V30 25 C -3.62186 -0.364184 1.94595 0
M  V30 26 C -3.34618 -1.24593 0.96997 0
M  V30 27 C -2.92738 -0.942666 -0.348503 0
M  V30 28 C -2.49324 -2.19118 -1.01182 0
M  V30 29 C -2.79181 0.427691 -0.682449 0
M  V30 30 O -2.40311 0.814208 -2.03793 0
M  V30 31 C -3.29911 1.05836 -3.08376 0
M  V30 32 C -4.15277 -0.125378 -3.42943 0
M  V30 33 C -5.10065 0.163947 -4.57155 0
M  V30 34 N -5.90792 -1.00208 -4.88772 0
M  V30 35 C -4.0745 -0.737532 3.32723 0
M  V30 36 C -3.92506 -2.20678 3.49668 0
M  V30 37 C -3.32387 0.0870123 4.35167 0
M  V30 38 C -5.56381 -0.39881 3.34769 0
M  V30 39 C -1.03768 4.28849 -0.245455 0
M  V30 40 C 0.184358 4.86223 -0.428019 0
M  V30 41 C 1.19018 4.2344 0.255724 0
M  V30 42 C 0.403139 6.05502 -1.27215 0
M  V30 43 C 0.0853426 5.71945 -2.72049 0
M  V30 44 C -0.467353 7.18923 -0.777351 0
M  V30 45 C 1.84204 6.50848 -1.16833 0
M  V30 46 C 2.66478 0.0114414 1.02211 0
M  V30 47 O 2.19522 -0.412812 2.28478 0
M  V30 48 C 2.66986 -0.688099 3.49119 0
M  V30 49 C 3.71843 -1.74351 3.61137 0
M  V30 50 C 5.04491 -1.45258 2.99757 0
M  V30 51 N 5.8826 -2.64011 3.27009 0
M  V30 52 C 4.18808 1.32573 -2.84861 0
M  V30 53 C 5.66382 1.01107 -2.87039 0
M  V30 54 C 3.84952 2.7493 -3.13039 0
M  V30 55 C 3.51843 0.43007 -3.90766 0
M  V30 56 C 1.112 -4.01696 0.18197 0
M  V30 57 H -0.572269 -5.04864 2.62706 0
M  V30 58 H -0.657042 -6.87548 2.77385 0
M  V30 59 H -1.98578 -5.95566 1.97481 0
M  V30 60 H -0.719013 -6.62513 -1.18055 0
M  V30 61 H -0.616883 -7.96004 -0.00508016 0
M  V30 62 H -2.07424 -6.87084 0.00670153 0
M  V30 63 H 1.7326 -6.18914 1.74433 0
M  V30 64 H 1.06537 -7.75175 1.03824 0
M  V30 65 H 1.68931 -6.47443 -0.0535524 0
M  V30 66 H -2.11743 -4.50728 -0.0996171 0
M  V30 67 H 0.463051 0.0482711 -1.71801 0
M  V30 68 H 3.24898 -2.97093 0.579448 0
M  V30 69 H 3.25287 -2.7945 -1.08254 0
M  V30 70 H 3.75266 -1.12234 -2.05023 0
M  V30 71 H 3.49389 2.82206 -0.802436 0
M  V30 72 H 3.19258 3.4204 1.14451 0
M  V30 73 H 2.56069 2.84133 2.50374 0
M  V30 74 H -0.189606 1.1433 2.97522 0
M  V30 75 H -3.30335 3.33241 1.28993 0
M  V30 76 H -3.27967 3.42141 -0.36366 0
M  V30 77 H -3.68931 1.69032 2.38084 0
M  V30 78 H -3.47646 -2.29896 1.29704 0
M  V30 79 H -2.69564 -2.48428 -2.0395 0
M  V30 80 H -3.23726 -2.97256 -0.612083 0
M  V30 81 H -2.71342 1.45918 -3.90936 0
M  V30 82 H -3.97973 1.88238 -2.75982 0
M  V30 83 H -3.45445 -0.929761 -3.76785 0
M  V30 84 H -4.74143 -0.445449 -2.54439 0
M  V30 85 H -4.59258 0.537587 -5.47017 0
M  V30 86 H -5.80491 0.977669 -4.24043 0
M  V30 87 H -6.81269 -0.671213 -5.25128 0
M  V30 88 H -5.95043 -1.58197 -4.019 0
M  V30 89 H -4.67091 -2.75332 2.88727 0
M  V30 90 H -2.88498 -2.53771 3.21147 0
M  V30 91 H -4.03658 -2.51204 4.57819 0
M  V30 92 H -3.55539 -0.362253 5.3566 0
M  V30 93 H -2.24899 0.00631502 4.197 0
M  V30 94 H -3.66283 1.13131 4.32704 0
M  V30 95 H -5.68744 0.680927 3.02235 0
M  V30 96 H -6.03511 -0.581587 4.31414 0
M  V30 97 H -6.06698 -1.03401 2.58897 0
M  V30 98 H -1.87904 4.78927 -0.787043 0
M  V30 99 H 2.18875 4.71242 0.0985089 0
M  V30 100 H -1.01625 5.75051 -2.84655 0
M  V30 101 H 0.417683 4.68029 -2.94176 0
M  V30 102 H 0.536896 6.4072 -3.43195 0
M  V30 103 H -0.587264 7.90123 -1.63902 0
M  V30 104 H -0.00408233 7.69586 0.0974823 0
M  V30 105 H -1.45468 6.80351 -0.497287 0
M  V30 106 H 2.10211 6.75545 -0.128833 0
M  V30 107 H 2.5152 5.75466 -1.62393 0
M  V30 108 H 1.94459 7.42622 -1.80147 0
M  V30 109 H 1.85879 -0.838572 4.26502 0
M  V30 110 H 3.19052 0.258477 3.92248 0
M  V30 111 H 3.92729 -1.98871 4.69847 0
M  V30 112 H 3.38211 -2.71879 3.17305 0
M  V30 113 H 5.59156 -0.630653 3.57264 0
M  V30 114 H 5.10107 -1.29416 1.92921 0
M  V30 115 H 5.61745 -3.05863 4.20007 0
M  V30 116 H 6.88137 -2.3995 3.33393 0
M  V30 117 H 6.18302 1.48839 -2.01286 0
M  V30 118 H 5.76973 -0.100797 -2.70442 0
M  V30 119 H 6.09438 1.27895 -3.85873 0
M  V30 120 H 3.86907 2.986 -4.2249 0
M  V30 121 H 4.48788 3.45741 -2.61152 0
M  V30 122 H 2.76646 2.88421 -2.84494 0
M  V30 123 H 3.28846 1.0482 -4.78567 0
M  V30 124 H 2.62653 -0.0352585 -3.44902 0
M  V30 125 H 4.21557 -0.387871 -4.18841 0
M  V30 126 H 2.00068 -4.57645 0.545716 0
M  V30 END ATOM
M  V30 BEGIN BOND
M  V30 1 1 1 2
M  V30 2 1 2 3
M  V30 3 1 2 4
M  V30 4 1 2 5
M  V30 5 2 5 6
M  V30 6 1 6 7
M  V30 7 2 7 8
M  V30 8 1 8 9
M  V30 9 1 8 10
M  V30 10 1 10 11
M  V30 11 1 11 12
M  V30 12 2 12 13
M  V30 13 1 13 14
M  V30 14 2 14 15
M  V30 15 1 15 16
M  V30 16 1 16 17
M  V30 17 1 17 18
M  V30 18 2 18 19
M  V30 19 1 19 20
M  V30 20 1 19 21
M  V30 21 1 21 22
M  V30 22 1 22 23
M  V30 23 2 23 24
M  V30 24 1 24 25
M  V30 25 2 25 26
M  V30 26 1 26 27
M  V30 27 1 27 28
M  V30 28 2 27 29
M  V30 29 1 29 30
M  V30 30 1 30 31
M  V30 31 1 31 32
M  V30 32 1 32 33
M  V30 33 1 33 34
M  V30 34 1 25 35
M  V30 35 1 35 36
M  V30 36 1 35 37
M  V30 37 1 35 38
M  V30 38 2 21 39
M  V30 39 1 39 40
M  V30 40 2 40 41
M  V30 41 1 40 42
M  V30 42 1 42 43
M  V30 43 1 42 44
M  V30 44 1 42 45
M  V30 45 2 16 46
M  V30 46 1 46 47
M  V30 47 1 47 48
M  V30 48 1 48 49
M  V30 49 1 49 50
M  V30 50 1 50 51
M  V30 51 1 14 52
M  V30 52 1 52 53
M  V30 53 1 52 54
M  V30 54 1 52 55
M  V30 55 2 10 56
M  V30 56 1 56 5
M  V30 57 1 28 7
M  V30 58 1 46 12
M  V30 59 1 41 18
M  V30 60 1 29 23
M  V30 61 1 1 57
M  V30 62 1 1 58
M  V30 63 1 1 59
M  V30 64 1 3 60
M  V30 65 1 3 61
M  V30 66 1 3 62
M  V30 67 1 4 63
M  V30 68 1 4 64
M  V30 69 1 4 65
M  V30 70 1 6 66
M  V30 71 1 9 67
M  V30 72 1 11 68
M  V30 73 1 11 69
M  V30 74 1 13 70
M  V30 75 1 15 71
M  V30 76 1 17 72
M  V30 77 1 17 73
M  V30 78 1 20 74
M  V30 79 1 22 75
M  V30 80 1 22 76
M  V30 81 1 24 77
M  V30 82 1 26 78
M  V30 83 1 28 79
M  V30 84 1 28 80
M  V30 85 1 31 81
M  V30 86 1 31 82
M  V30 87 1 32 83
M  V30 88 1 32 84
M  V30 89 1 33 85
M  V30 90 1 33 86
M  V30 91 1 34 87
M  V30 92 1 34 88
M  V30 93 1 36 89
M  V30 94 1 36 90
M  V30 95 1 36 91
M  V30 96 1 37 92
M  V30 97 1 37 93
M  V30 98 1 37 94
M  V30 99 1 38 95
M  V30 100 1 38 96
M  V30 101 1 38 97
M  V30 102 1 39 98
M  V30 103 1 41 99
M  V30 104 1 43 100
M  V30 105 1 43 101
M  V30 106 1 43 102
M  V30 107 1 44 103
M  V30 108 1 44 104
M  V30 109 1 44 105
M  V30 110 1 45 106
M  V30 111 1 45 107
M  V30 112 1 45 108
M  V30 113 1 48 109
M  V30 114 1 48 110
M  V30 115 1 49 111
M  V30 116 1 49 112
M  V30 117 1 50 113
M  V30 118 1 50 114
M  V30 119 1 51 115
M  V30 120 1 51 116
M  V30 121 1 53 117
M  V30 122 1 53 118
M  V30 123 1 53 119
M  V30 124 1 54 120
M  V30 125 1 54 121
M  V30 126 1 54 122
M  V30 127 1 55 123
M  V30 128 1 55 124
M  V30 129 1 55 125
M  V30 130 1 56 126
M  V30 END BOND
M  V30 END CTAB
M  END
