
     RDKit          3D

  0  0  0  0  0  0  0  0  0  0999 V3000
M  V30 BEGIN CTAB
M  V30 COUNTS 36 37 0 0 0
M  V30 BEGIN ATOM
M  V30 1 C -5.3248 2.02725 -1.5316 0
M  V30 2 C -4.13594 1.65112 -0.690329 0
M  V30 3 C -3.88816 0.179249 -0.666377 0
M  V30 4 N -2.7623 -0.258049 0.0944984 0
M  V30 5 C -1.56114 -0.353396 -0.53786 0
M  V30 6 N -1.44585 -0.0103504 -1.90945 0
M  V30 7 C -0.422696 -0.792852 0.101181 0
M  V30 8 C 0.854286 -0.901786 -0.579173 0
M  V30 9 O 0.951375 -0.535178 -1.80775 0
M  V30 10 C 2.07305 -1.41033 0.0307987 0
M  V30 11 S 3.49719 -1.35009 -1.08946 0
M  V30 12 C 4.83555 -0.51011 -0.251235 0
M  V30 13 N 5.21472 0.718893 -0.128992 0
M  V30 14 N 6.21255 1.09477 0.51455 0
M  V30 15 C 6.96247 0.13674 1.13587 0
M  V30 16 S 6.09008 -1.27245 0.695654 0
M  V30 17 N 8.13836 0.257909 1.92448 0
M  V30 18 C -0.581866 -1.13633 1.45366 0
M  V30 19 O 0.419577 -1.54225 2.06768 0
M  V30 20 N -1.78724 -1.0176 2.00924 0
M  V30 21 C -2.89147 -0.591376 1.38764 0
M  V30 22 O -3.98422 -0.517363 2.01515 0
M  V30 23 H -5.68341 3.03979 -1.28772 0
M  V30 24 H -5.10989 1.99377 -2.62147 0
M  V30 25 H -6.17783 1.33024 -1.31931 0
M  V30 26 H -3.29043 2.2615 -1.00564 0
M  V30 27 H -4.42916 1.92727 0.367735 0
M  V30 28 H -3.75085 -0.195533 -1.72722 0
M  V30 29 H -4.78823 -0.392043 -0.30035 0
M  V30 30 H -1.02224 0.835287 -2.2973 0
M  V30 31 H -1.84382 -0.691166 -2.60721 0
M  V30 32 H 2.37391 -0.848807 0.95114 0
M  V30 33 H 1.96653 -2.47889 0.330543 0
M  V30 34 H 8.95164 0.732728 1.46902 0
M  V30 35 H 8.21387 -0.100435 2.89846 0
M  V30 36 H -1.87364 -1.28016 3.03785 0
M  V30 END ATOM
M  V30 BEGIN BOND
M  V30 1 1 1 2
M  V30 2 1 2 3
M  V30 3 1 3 4
M  V30 4 1 4 5
M  V30 5 1 5 6
M  V30 6 2 5 7
M  V30 7 1 7 8
M  V30 8 2 8 9
M  V30 9 1 8 10
M  V30 10 1 10 11
M  V30 11 1 11 12
M  V30 12 2 12 13
M  V30 13 1 13 14
M  V30 14 2 14 15
M  V30 15 1 15 16
M  V30 16 1 15 17
M  V30 17 1 7 18
M  V30 18 2 18 19
M  V30 19 1 18 20
M  V30 20 1 20 21
M  V30 21 2 21 22
M  V30 22 1 21 4
M  V30 23 1 16 12
M  V30 24 1 1 23
M  V30 25 1 1 24
M  V30 26 1 1 25
M  V30 27 1 2 26
M  V30 28 1 2 27
M  V30 29 1 3 28
M  V30 30 1 3 29
M  V30 31 1 6 30
M  V30 32 1 6 31
M  V30 33 1 10 32
M  V30 34 1 10 33
M  V30 35 1 17 34
M  V30 36 1 17 35
M  V30 37 1 20 36
M  V30 END BOND
M  V30 END CTAB
M  END
