
     RDKit          3D

  0  0  0  0  0  0  0  0  0  0999 V3000
M  V30 BEGIN CTAB
M  V30 COUNTS 30 30 0 0 0
M  V30 BEGIN ATOM
M  V30 1 C -3.39043 1.14847 -0.575712 0
M  V30 2 C -2.14203 0.36657 -0.158817 0
M  V30 3 N -2.38847 -1.01952 -0.394117 0
M  V30 4 C -1.01067 0.919458 -0.992752 0
M  V30 5 C 0.294223 0.277166 -0.734085 0
M  V30 6 C 0.670816 -0.845179 -1.43542 0
M  V30 7 C 1.89881 -1.4072 -1.16441 0
M  V30 8 C 2.78837 -0.919434 -0.229049 0
M  V30 9 N 4.05168 -1.56241 -0.00327521 0
M  V30 10 C 2.39387 0.204344 0.462691 0
M  V30 11 C 1.16079 0.783283 0.202485 0
M  V30 12 N 3.24636 0.762279 1.43369 0 CHG=1
M  V30 13 O 3.25653 2.10318 1.67338 0 CHG=-1
M  V30 14 O 3.99502 0.0182041 2.07567 0
M  V30 15 C -1.97235 0.597941 1.28664 0
M  V30 16 O -2.01527 -0.484612 2.1498 0
M  V30 17 O -1.79075 1.72308 1.78035 0
M  V30 18 H -3.64318 0.792299 -1.60321 0
M  V30 19 H -4.19252 0.961389 0.154213 0
M  V30 20 H -3.09905 2.21316 -0.546839 0
M  V30 21 H -1.84861 -1.6632 0.250976 0
M  V30 22 H -3.40327 -1.20603 -0.134101 0
M  V30 23 H -0.906929 1.9935 -0.715649 0
M  V30 24 H -1.24636 0.905439 -2.07498 0
M  V30 25 H 0.00349988 -1.28435 -2.19797 0
M  V30 26 H 2.19706 -2.29351 -1.71807 0
M  V30 27 H 4.85034 -1.49116 -0.639813 0
M  V30 28 H 4.12556 -2.13008 0.873782 0
M  V30 29 H 0.903268 1.67507 0.779829 0
M  V30 30 H -2.78629 -1.13814 2.19477 0
M  V30 END ATOM
M  V30 BEGIN BOND
M  V30 1 1 1 2
M  V30 2 1 2 3
M  V30 3 1 2 4
M  V30 4 1 4 5
M  V30 5 2 5 6
M  V30 6 1 6 7
M  V30 7 2 7 8
M  V30 8 1 8 9
M  V30 9 1 8 10
M  V30 10 2 10 11
M  V30 11 1 10 12
M  V30 12 1 12 13
M  V30 13 2 12 14
M  V30 14 1 2 15
M  V30 15 1 15 16
M  V30 16 2 15 17
M  V30 17 1 11 5
M  V30 18 1 1 18
M  V30 19 1 1 19
M  V30 20 1 1 20
M  V30 21 1 3 21
M  V30 22 1 3 22
M  V30 23 1 4 23
M  V30 24 1 4 24
M  V30 25 1 6 25
M  V30 26 1 7 26
M  V30 27 1 9 27
M  V30 28 1 9 28
M  V30 29 1 11 29
M  V30 30 1 16 30
M  V30 END BOND
M  V30 END CTAB
M  END
