
     RDKit          3D

  0  0  0  0  0  0  0  0  0  0999 V3000
M  V30 BEGIN CTAB
M  V30 COUNTS 33 36 0 0 0
M  V30 BEGIN ATOM
M  V30 1 N 4.81912 -0.767671 0.699438 0
M  V30 2 C 3.72906 -0.597924 -0.195486 0
M  V30 3 N 4.03583 -0.592333 -1.52006 0
M  V30 4 C 3.03947 -0.434889 -2.40541 0
M  V30 5 C 1.73204 -0.282076 -1.97828 0
M  V30 6 C 1.42958 -0.288955 -0.631993 0
M  V30 7 N 2.45921 -0.449512 0.219666 0
M  V30 8 C 0.0490526 -0.128689 -0.149656 0
M  V30 9 C -0.863768 -1.15783 0.0813133 0
M  V30 10 C -0.734173 -2.50893 -0.0674894 0
M  V30 11 C -1.83585 -3.27856 0.247875 0
M  V30 12 N -2.96556 -2.69094 0.677944 0
M  V30 13 C -3.07553 -1.35915 0.81857 0
M  V30 14 N -4.27316 -0.754932 1.27303 0
M  V30 15 N -1.99839 -0.605862 0.510293 0
M  V30 16 C -1.83869 0.742241 0.560392 0
M  V30 17 C -0.56008 1.06087 0.149861 0
M  V30 18 C -0.106731 2.37123 0.0970844 0
M  V30 19 O 1.19354 2.59477 -0.328193 0
M  V30 20 C -0.977543 3.35133 0.469443 0
M  V30 21 C -2.23648 2.99379 0.870263 0
M  V30 22 N -2.66919 1.71953 0.918812 0
M  V30 23 H 5.05546 -0.0276415 1.37072 0
M  V30 24 H 5.37378 -1.6492 0.666303 0
M  V30 25 H 3.30616 -0.433515 -3.45388 0
M  V30 26 H 0.92921 -0.155222 -2.69131 0
M  V30 27 H 0.200765 -2.90904 -0.416733 0
M  V30 28 H -1.74737 -4.36141 0.133852 0
M  V30 29 H -4.29867 -0.00427067 1.97923 0
M  V30 30 H -5.17139 -1.08222 0.877088 0
M  V30 31 H 1.56925 3.52216 -0.384212 0
M  V30 32 H -0.63659 4.38782 0.433702 0
M  V30 33 H -2.93236 3.77703 1.16783 0
M  V30 END ATOM
M  V30 BEGIN BOND
M  V30 1 1 1 2
M  V30 2 2 2 3
M  V30 3 1 3 4
M  V30 4 2 4 5
M  V30 5 1 5 6
M  V30 6 2 6 7
M  V30 7 1 6 8
M  V30 8 2 8 9
M  V30 9 1 9 10
M  V30 10 2 10 11
M  V30 11 1 11 12
M  V30 12 2 12 13
M  V30 13 1 13 14
M  V30 14 1 13 15
M  V30 15 1 15 16
M  V30 16 2 16 17
M  V30 17 1 17 18
M  V30 18 1 18 19
M  V30 19 2 18 20
M  V30 20 1 20 21
M  V30 21 2 21 22
M  V30 22 1 7 2
M  V30 23 1 17 8
M  V30 24 1 15 9
M  V30 25 1 22 16
M  V30 26 1 1 23
M  V30 27 1 1 24
M  V30 28 1 4 25
M  V30 29 1 5 26
M  V30 30 1 10 27
M  V30 31 1 11 28
M  V30 32 1 14 29
M  V30 33 1 14 30
M  V30 34 1 19 31
M  V30 35 1 20 32
M  V30 36 1 21 33
M  V30 END BOND
M  V30 END CTAB
M  END
