
     RDKit          3D

  0  0  0  0  0  0  0  0  0  0999 V3000
M  V30 BEGIN CTAB
M  V30 COUNTS 35 37 0 0 0
M  V30 BEGIN ATOM
M  V30 1 C -3.64346 2.14365 0.00390509 0
M  V30 2 N -2.7808 0.983284 -0.136415 0
M  V30 3 C -1.56826 0.91115 0.435564 0
M  V30 4 O -1.20732 1.92835 1.11835 0
M  V30 5 N -0.733399 -0.145632 0.332423 0
M  V30 6 C -1.12774 -1.20297 -0.386909 0
M  V30 7 N -0.279006 -2.32936 -0.517455 0
M  V30 8 C -2.35276 -1.18218 -0.990479 0
M  V30 9 N -2.7979 -2.29293 -1.76161 0
M  V30 10 C -3.1543 -0.0920854 -0.854204 0
M  V30 11 O -4.29937 -0.0568384 -1.41058 0
M  V30 12 C 0.539954 -0.127006 0.979669 0
M  V30 13 C 1.65287 0.244096 0.263962 0
M  V30 14 C 1.51796 0.587606 -1.05228 0
M  V30 15 C 2.61468 0.965148 -1.80032 0
M  V30 16 C 3.86818 0.999564 -1.22122 0
M  V30 17 C 4.04099 0.659267 0.104673 0
M  V30 18 C 2.92001 0.287522 0.818155 0
M  V30 19 C 3.05278 -0.0596341 2.14638 0
M  V30 20 C 1.96728 -0.433069 2.88591 0
M  V30 21 C 0.700841 -0.468094 2.30175 0
M  V30 22 H -3.97457 2.52817 -0.965338 0
M  V30 23 H -4.57674 1.85345 0.569849 0
M  V30 24 H -3.1247 2.88901 0.63225 0
M  V30 25 H 0.124919 -2.73707 0.350076 0
M  V30 26 H -0.0263054 -2.78364 -1.41756 0
M  V30 27 H -3.32917 -2.07552 -2.63876 0
M  V30 28 H -2.64041 -3.2744 -1.52726 0
M  V30 29 H 0.543285 0.562727 -1.50935 0
M  V30 30 H 2.44205 1.22477 -2.8348 0
M  V30 31 H 4.71295 1.29783 -1.82439 0
M  V30 32 H 5.03001 0.69256 0.539386 0
M  V30 33 H 4.026 -0.0299057 2.58514 0
M  V30 34 H 2.03119 -0.708363 3.916 0
M  V30 35 H -0.169735 -0.759455 2.8655 0
M  V30 END ATOM
M  V30 BEGIN BOND
M  V30 1 1 1 2
M  V30 2 1 2 3
M  V30 3 2 3 4
M  V30 4 1 3 5
M  V30 5 1 5 6
M  V30 6 1 6 7
M  V30 7 2 6 8
M  V30 8 1 8 9
M  V30 9 1 8 10
M  V30 10 2 10 11
M  V30 11 1 5 12
M  V30 12 1 12 13
M  V30 13 2 13 14
M  V30 14 1 14 15
M  V30 15 2 15 16
M  V30 16 1 16 17
M  V30 17 2 17 18
M  V30 18 1 18 19
M  V30 19 2 19 20
M  V30 20 1 20 21
M  V30 21 1 10 2
M  V30 22 2 21 12
M  V30 23 1 18 13
M  V30 24 1 1 22
M  V30 25 1 1 23
M  V30 26 1 1 24
M  V30 27 1 7 25
M  V30 28 1 7 26
M  V30 29 1 9 27
M  V30 30 1 9 28
M  V30 31 1 14 29
M  V30 32 1 15 30
M  V30 33 1 16 31
M  V30 34 1 17 32
M  V30 35 1 19 33
M  V30 36 1 20 34
M  V30 37 1 21 35
M  V30 END BOND
M  V30 END CTAB
M  END
