
     RDKit          3D

  0  0  0  0  0  0  0  0  0  0999 V3000
M  V30 BEGIN CTAB
M  V30 COUNTS 33 34 0 0 0
M  V30 BEGIN ATOM
M  V30 1 N -1.4325 3.21868 0.154034 0
M  V30 2 C -1.82412 2.12777 -0.0146545 0
M  V30 3 C -2.31931 0.796951 -0.243145 0
M  V30 4 C -3.67511 0.570933 -2.77513e-05 0
M  V30 5 N -4.49134 1.63708 0.471873 0
M  V30 6 C -4.17121 -0.68293 -0.228119 0
M  V30 7 C -3.31134 -1.66145 -0.685876 0
M  V30 8 N -2.0136 -1.40988 -0.908806 0
M  V30 9 C -1.46654 -0.182964 -0.699216 0
M  V30 10 S 0.269636 0.113841 -0.984191 0
M  V30 11 C 1.21879 -0.279687 0.48667 0
M  V30 12 C 2.67296 -0.0468444 0.301863 0
M  V30 13 C 3.42388 0.757424 1.13811 0
M  V30 14 C 4.78738 0.933641 0.908859 0
M  V30 15 C 5.43238 0.321794 -0.145403 0
M  V30 16 C 4.67172 -0.478918 -0.973259 0
M  V30 17 C 3.3049 -0.664984 -0.756511 0
M  V30 18 Cl 2.36289 -1.68833 -1.82759 0
M  V30 19 C 0.69402 0.470318 1.67785 0
M  V30 20 N -3.87204 -2.96735 -0.914035 0
M  V30 21 H -4.06194 2.39708 1.04739 0
M  V30 22 H -5.5102 1.71583 0.280232 0
M  V30 23 H -5.21703 -0.847736 -0.0378681 0
M  V30 24 H 1.01614 -1.37263 0.699161 0
M  V30 25 H 2.9128 1.23454 1.96365 0
M  V30 26 H 5.34665 1.57322 1.5865 0
M  V30 27 H 6.49521 0.454851 -0.329731 0
M  V30 28 H 5.13289 -0.976056 -1.80726 0
M  V30 29 H 0.799361 1.5628 1.5807 0
M  V30 30 H -0.337614 0.165124 1.90336 0
M  V30 31 H 1.31159 0.116484 2.54608 0
M  V30 32 H -3.92931 -3.61928 -0.106536 0
M  V30 33 H -4.22001 -3.28931 -1.83776 0
M  V30 END ATOM
M  V30 BEGIN BOND
M  V30 1 3 1 2
M  V30 2 1 2 3
M  V30 3 2 3 4
M  V30 4 1 4 5
M  V30 5 1 4 6
M  V30 6 2 6 7
M  V30 7 1 7 8
M  V30 8 2 8 9
M  V30 9 1 9 10
M  V30 10 1 10 11
M  V30 11 1 11 12
M  V30 12 2 12 13
M  V30 13 1 13 14
M  V30 14 2 14 15
M  V30 15 1 15 16
M  V30 16 2 16 17
M  V30 17 1 17 18
M  V30 18 1 11 19
M  V30 19 1 7 20
M  V30 20 1 9 3
M  V30 21 1 17 12
M  V30 22 1 5 21
M  V30 23 1 5 22
M  V30 24 1 6 23
M  V30 25 1 11 24
M  V30 26 1 13 25
M  V30 27 1 14 26
M  V30 28 1 15 27
M  V30 29 1 16 28
M  V30 30 1 19 29
M  V30 31 1 19 30
M  V30 32 1 19 31
M  V30 33 1 20 32
M  V30 34 1 20 33
M  V30 END BOND
M  V30 END CTAB
M  END
