
     RDKit          3D

  0  0  0  0  0  0  0  0  0  0999 V3000
M  V30 BEGIN CTAB
M  V30 COUNTS 39 40 0 0 0
M  V30 BEGIN ATOM
M  V30 1 O 1.10669 -1.18134 -1.07641 0
M  V30 2 C 0.956656 -1.97437 -0.119495 0
M  V30 3 O 2.10795 -2.54588 0.381741 0
M  V30 4 C 3.40804 -2.34641 -0.0455891 0
M  V30 5 C 3.93556 -0.989005 0.033332 0
M  V30 6 N 3.24704 -0.0291967 0.661592 0
M  V30 7 C 3.72477 1.2481 0.746315 0
M  V30 8 N 2.98475 2.25982 1.41612 0
M  V30 9 N 4.91654 1.50647 0.173205 0
M  V30 10 C 5.63229 0.571806 -0.463014 0
M  V30 11 N 5.11567 -0.679211 -0.519878 0
M  V30 12 N 6.88511 0.899145 -1.05012 0
M  V30 13 C -0.387982 -2.2606 0.418529 0
M  V30 14 C -1.50333 -1.46791 -0.167969 0
M  V30 15 C -1.40847 0.0187277 0.0646019 0
M  V30 16 O -2.40116 0.793024 -0.458804 0
M  V30 17 C -3.73237 0.886953 -0.253149 0
M  V30 18 C -4.50903 0.183615 0.62145 0
M  V30 19 C -5.87217 0.355026 0.759197 0
M  V30 20 C -6.51016 1.28821 -0.023016 0
M  V30 21 C -5.74119 2.01774 -0.920666 0
M  V30 22 C -4.41267 1.8373 -1.04213 0
M  V30 23 Cl -3.53085 2.80463 -2.20153 0
M  V30 24 Cl -8.22193 1.56072 0.092692 0
M  V30 25 H 4.06673 -2.98099 0.621405 0
M  V30 26 H 3.61667 -2.73914 -1.06474 0
M  V30 27 H 1.9514 2.41922 1.22925 0
M  V30 28 H 3.4617 2.86901 2.11325 0
M  V30 29 H 7.44097 1.66247 -0.6064 0
M  V30 30 H 7.26661 0.416468 -1.89242 0
M  V30 31 H -0.533917 -3.36282 0.303792 0
M  V30 32 H -0.40926 -2.04663 1.52997 0
M  V30 33 H -2.4398 -1.83742 0.286659 0
M  V30 34 H -1.63815 -1.6827 -1.26966 0
M  V30 35 H -1.45487 0.138701 1.2014 0
M  V30 36 H -0.410392 0.418832 -0.23126 0
M  V30 37 H -4.03396 -0.549361 1.26559 0
M  V30 38 H -6.42509 -0.23618 1.47089 0
M  V30 39 H -6.24838 2.75319 -1.53572 0
M  V30 END ATOM
M  V30 BEGIN BOND
M  V30 1 2 1 2
M  V30 2 1 2 3
M  V30 3 1 3 4
M  V30 4 1 4 5
M  V30 5 2 5 6
M  V30 6 1 6 7
M  V30 7 1 7 8
M  V30 8 2 7 9
M  V30 9 1 9 10
M  V30 10 2 10 11
M  V30 11 1 10 12
M  V30 12 1 2 13
M  V30 13 1 13 14
M  V30 14 1 14 15
M  V30 15 1 15 16
M  V30 16 1 16 17
M  V30 17 2 17 18
M  V30 18 1 18 19
M  V30 19 2 19 20
M  V30 20 1 20 21
M  V30 21 2 21 22
M  V30 22 1 22 23
M  V30 23 1 20 24
M  V30 24 1 11 5
M  V30 25 1 22 17
M  V30 26 1 4 25
M  V30 27 1 4 26
M  V30 28 1 8 27
M  V30 29 1 8 28
M  V30 30 1 12 29
M  V30 31 1 12 30
M  V30 32 1 13 31
M  V30 33 1 13 32
M  V30 34 1 14 33
M  V30 35 1 14 34
M  V30 36 1 15 35
M  V30 37 1 15 36
M  V30 38 1 18 37
M  V30 39 1 19 38
M  V30 40 1 21 39
M  V30 END BOND
M  V30 END CTAB
M  END
