
     RDKit          3D

  0  0  0  0  0  0  0  0  0  0999 V3000
M  V30 BEGIN CTAB
M  V30 COUNTS 46 48 0 0 0
M  V30 BEGIN ATOM
M  V30 1 C -2.01382 -0.0275354 -3.45652 0
M  V30 2 C -1.79113 -1.18197 -2.49566 0
M  V30 3 C -2.89887 -1.24282 -1.48284 0
M  V30 4 C -3.89267 -2.19281 -1.56755 0
M  V30 5 C -4.92158 -2.2922 -0.672557 0
M  V30 6 C -4.93633 -1.37092 0.366263 0
M  V30 7 C -3.96522 -0.402399 0.493378 0
M  V30 8 C -2.95266 -0.347312 -0.43472 0
M  V30 9 N -1.94124 0.630001 -0.325183 0
M  V30 10 C -0.741352 0.403242 0.42935 0
M  V30 11 N 0.299089 1.20329 0.61702 0
M  V30 12 N 1.26892 0.821065 1.32561 0
M  V30 13 C 1.25365 -0.381853 1.88667 0
M  V30 14 S -0.257375 -0.974184 1.34468 0
M  V30 15 S 2.49988 -1.15074 2.92829 0
M  V30 16 C 3.87264 -0.0222657 3.1145 0
M  V30 17 C 4.64484 0.219969 1.89002 0
M  V30 18 N 5.70261 -0.561857 1.59091 0
M  V30 19 C 6.44184 -0.374891 0.475861 0
M  V30 20 N 7.52462 -1.25351 0.269646 0
M  V30 21 N 6.12259 0.616422 -0.366794 0
M  V30 22 C 5.07133 1.3995 -0.0768488 0
M  V30 23 N 4.35189 1.19215 1.03974 0
M  V30 24 N 4.77007 2.43477 -1.00005 0
M  V30 25 C -4.01994 0.587715 1.63532 0
M  V30 26 C -4.54118 1.88093 1.0289 0
M  V30 27 H -2.67046 0.755545 -3.04233 0
M  V30 28 H -2.47226 -0.369528 -4.40674 0
M  V30 29 H -1.03292 0.448118 -3.73642 0
M  V30 30 H -1.86474 -2.11095 -3.09714 0
M  V30 31 H -0.799005 -1.18472 -2.0294 0
M  V30 32 H -3.85691 -2.90914 -2.39957 0
M  V30 33 H -5.71876 -3.02082 -0.703583 0
M  V30 34 H -5.73461 -1.40169 1.11203 0
M  V30 35 H -2.02227 1.55414 -0.786441 0
M  V30 36 H 3.44376 0.979251 3.4149 0
M  V30 37 H 4.49287 -0.391288 3.97846 0
M  V30 38 H 7.55347 -1.8395 -0.576551 0
M  V30 39 H 8.2821 -1.30544 0.965628 0
M  V30 40 H 4.10847 2.31031 -1.80249 0
M  V30 41 H 5.21261 3.37274 -0.89983 0
M  V30 42 H -3.02477 0.702431 2.09524 0
M  V30 43 H -4.73968 0.204703 2.36095 0
M  V30 44 H -4.14299 2.78302 1.51749 0
M  V30 45 H -4.29405 1.96776 -0.0612899 0
M  V30 46 H -5.67043 1.84327 1.07054 0
M  V30 END ATOM
M  V30 BEGIN BOND
M  V30 1 1 1 2
M  V30 2 1 2 3
M  V30 3 2 3 4
M  V30 4 1 4 5
M  V30 5 2 5 6
M  V30 6 1 6 7
M  V30 7 2 7 8
M  V30 8 1 8 9
M  V30 9 1 9 10
M  V30 10 2 10 11
M  V30 11 1 11 12
M  V30 12 2 12 13
M  V30 13 1 13 14
M  V30 14 1 13 15
M  V30 15 1 15 16
M  V30 16 1 16 17
M  V30 17 2 17 18
M  V30 18 1 18 19
M  V30 19 1 19 20
M  V30 20 2 19 21
M  V30 21 1 21 22
M  V30 22 2 22 23
M  V30 23 1 22 24
M  V30 24 1 7 25
M  V30 25 1 25 26
M  V30 26 1 8 3
M  V30 27 1 14 10
M  V30 28 1 23 17
M  V30 29 1 1 27
M  V30 30 1 1 28
M  V30 31 1 1 29
M  V30 32 1 2 30
M  V30 33 1 2 31
M  V30 34 1 4 32
M  V30 35 1 5 33
M  V30 36 1 6 34
M  V30 37 1 9 35
M  V30 38 1 16 36
M  V30 39 1 16 37
M  V30 40 1 20 38
M  V30 41 1 20 39
M  V30 42 1 24 40
M  V30 43 1 24 41
M  V30 44 1 25 42
M  V30 45 1 25 43
M  V30 46 1 26 44
M  V30 47 1 26 45
M  V30 48 1 26 46
M  V30 END BOND
M  V30 END CTAB
M  END
