
     RDKit          3D

  0  0  0  0  0  0  0  0  0  0999 V3000
M  V30 BEGIN CTAB
M  V30 COUNTS 28 28 0 0 0
M  V30 BEGIN ATOM
M  V30 1 N 2.30982 1.76205 -1.33543 0
M  V30 2 N 1.19593 1.99196 -0.568234 0
M  V30 3 C 0.504806 1.14612 0.101889 0
M  V30 4 C -0.633207 1.78378 0.806142 0
M  V30 5 C -1.96457 1.41867 0.273407 0
M  V30 6 C -2.04067 0.121545 -0.467724 0
M  V30 7 C -2.05811 -1.08173 0.395151 0
M  V30 8 C -0.753321 -1.48022 0.986125 0
M  V30 9 C 0.386261 -1.53396 0.0186934 0
M  V30 10 C 1.0632 -0.189422 -0.0406147 0
M  V30 11 N 2.31106 -0.248457 -0.242574 0
M  V30 12 N 3.08068 -1.36452 -0.410126 0
M  V30 13 H 2.29049 1.32565 -2.28116 0
M  V30 14 H 3.25328 2.03685 -0.96952 0
M  V30 15 H -0.618859 1.55145 1.90974 0
M  V30 16 H -0.520719 2.88629 0.755852 0
M  V30 17 H -2.71447 1.35881 1.10952 0
M  V30 18 H -2.32361 2.21478 -0.416616 0
M  V30 19 H -1.28648 0.126348 -1.26895 0
M  V30 20 H -3.03127 0.139854 -1.01762 0
M  V30 21 H -2.42792 -1.95942 -0.211135 0
M  V30 22 H -2.80657 -0.94078 1.18621 0
M  V30 23 H -0.847136 -2.50944 1.42779 0
M  V30 24 H -0.431787 -0.83927 1.84415 0
M  V30 25 H 1.16801 -2.27879 0.345863 0
M  V30 26 H 0.111009 -1.84391 -1.00037 0
M  V30 27 H 2.84326 -2.11163 -1.08816 0
M  V30 28 H 3.94089 -1.48261 0.157693 0
M  V30 END ATOM
M  V30 BEGIN BOND
M  V30 1 1 1 2
M  V30 2 2 2 3 CFG=2
M  V30 3 1 3 4
M  V30 4 1 4 5
M  V30 5 1 5 6
M  V30 6 1 6 7
M  V30 7 1 7 8
M  V30 8 1 8 9
M  V30 9 1 9 10
M  V30 10 2 10 11 CFG=2
M  V30 11 1 11 12
M  V30 12 1 10 3
M  V30 13 1 1 13
M  V30 14 1 1 14
M  V30 15 1 4 15
M  V30 16 1 4 16
M  V30 17 1 5 17
M  V30 18 1 5 18
M  V30 19 1 6 19
M  V30 20 1 6 20
M  V30 21 1 7 21
M  V30 22 1 7 22
M  V30 23 1 8 23
M  V30 24 1 8 24
M  V30 25 1 9 25
M  V30 26 1 9 26
M  V30 27 1 12 27
M  V30 28 1 12 28
M  V30 END BOND
M  V30 END CTAB
M  END
