
     RDKit          3D

  0  0  0  0  0  0  0  0  0  0999 V3000
M  V30 BEGIN CTAB
M  V30 COUNTS 30 32 0 0 0
M  V30 BEGIN ATOM
M  V30 1 N 0.769866 3.16357 0.776962 0
M  V30 2 C 0.0279674 2.33832 0.453352 0
M  V30 3 C -0.902867 1.29949 0.0241777 0
M  V30 4 C -2.16874 1.62805 0.00321632 0
M  V30 5 N -2.60849 2.89776 0.367018 0
M  V30 6 S -3.31458 0.341429 -0.496416 0
M  V30 7 C -2.4723 -1.17484 0.0579337 0
M  V30 8 C -1.15958 -1.19089 0.0547089 0
M  V30 9 C -0.374816 -0.0390606 -0.378977 0
M  V30 10 C -0.272781 -0.10757 -1.8597 0
M  V30 11 O -1.18904 -0.0863442 -2.73241 0
M  V30 12 N 1.09009 -0.207126 -2.18157 0
M  V30 13 C 1.85185 -0.207119 -0.986582 0
M  V30 14 C 1.02778 -0.110969 0.0935638 0
M  V30 15 C 1.61799 -0.098847 1.34159 0
M  V30 16 C 2.9884 -0.179967 1.51102 0
M  V30 17 C 3.79417 -0.276364 0.394571 0
M  V30 18 C 3.23743 -0.290918 -0.860226 0
M  V30 19 C -0.520307 -2.42517 0.509061 0
M  V30 20 N -0.0335903 -3.40727 0.872554 0
M  V30 21 N -3.28343 -2.25111 0.461237 0
M  V30 22 H -1.98652 3.75063 0.319353 0
M  V30 23 H -3.58776 3.11188 0.716528 0
M  V30 24 H 1.46731 -0.271112 -3.17051 0
M  V30 25 H 1.02545 -0.0247568 2.2422 0
M  V30 26 H 3.47567 -0.172844 2.46929 0
M  V30 27 H 4.87572 -0.343403 0.452171 0
M  V30 28 H 3.85503 -0.365371 -1.72941 0
M  V30 29 H -4.04039 -2.07329 1.17175 0
M  V30 30 H -3.18951 -3.22678 0.10354 0
M  V30 END ATOM
M  V30 BEGIN BOND
M  V30 1 3 1 2
M  V30 2 1 2 3
M  V30 3 2 3 4
M  V30 4 1 4 5
M  V30 5 1 4 6
M  V30 6 1 6 7
M  V30 7 2 7 8
M  V30 8 1 8 9
M  V30 9 1 9 10
M  V30 10 2 10 11
M  V30 11 1 10 12
M  V30 12 1 12 13
M  V30 13 2 13 14
M  V30 14 1 14 15
M  V30 15 2 15 16
M  V30 16 1 16 17
M  V30 17 2 17 18
M  V30 18 1 8 19
M  V30 19 3 19 20
M  V30 20 1 7 21
M  V30 21 1 9 3
M  V30 22 1 18 13
M  V30 23 1 14 9
M  V30 24 1 5 22
M  V30 25 1 5 23
M  V30 26 1 12 24
M  V30 27 1 15 25
M  V30 28 1 16 26
M  V30 29 1 17 27
M  V30 30 1 18 28
M  V30 31 1 21 29
M  V30 32 1 21 30
M  V30 END BOND
M  V30 END CTAB
M  END
