
     RDKit          3D

  0  0  0  0  0  0  0  0  0  0999 V3000
M  V30 BEGIN CTAB
M  V30 COUNTS 44 44 0 0 0
M  V30 BEGIN ATOM
M  V30 1 C -3.46908 -1.86961 -0.615295 0
M  V30 2 C -2.4419 -0.790575 -0.691758 0
M  V30 3 C -2.50334 0.122922 0.493306 0
M  V30 4 C -1.47819 1.20924 0.442114 0
M  V30 5 N -0.112851 0.857076 0.374678 0
M  V30 6 C 0.710012 0.165355 1.2706 0
M  V30 7 O 0.268428 -0.253821 2.35519 0
M  V30 8 C 2.16367 -0.110964 0.980099 0
M  V30 9 C 2.89413 1.17771 0.787596 0
M  V30 10 C 4.16534 1.07097 0.0194831 0
M  V30 11 C 4.07466 0.145189 -1.17071 0
M  V30 12 C 3.67431 -1.20975 -0.622514 0
M  V30 13 C 2.23145 -1.04978 -0.168337 0
M  V30 14 N 3.80326 -2.18651 -1.67123 0
M  V30 15 C -3.85416 0.851468 0.515991 0
M  V30 16 C -4.11237 1.68068 -0.685953 0
M  V30 17 N -2.46996 -0.630521 1.71383 0
M  V30 18 H -4.03574 -1.93026 -1.59607 0
M  V30 19 H -4.26303 -1.73103 0.138154 0
M  V30 20 H -3.01067 -2.88642 -0.533802 0
M  V30 21 H -1.44052 -1.29088 -0.687033 0
M  V30 22 H -2.53264 -0.263444 -1.66296 0
M  V30 23 H -1.71288 1.89019 1.30835 0
M  V30 24 H -1.7428 1.85535 -0.453383 0
M  V30 25 H 0.420869 1.16752 -0.528595 0
M  V30 26 H 2.5786 -0.602195 1.87521 0
M  V30 27 H 2.20545 1.90909 0.312292 0
M  V30 28 H 3.1385 1.61213 1.79452 0
M  V30 29 H 5.03068 0.738125 0.629238 0
M  V30 30 H 4.42731 2.08487 -0.360553 0
M  V30 31 H 5.07875 0.09678 -1.63165 0
M  V30 32 H 3.32678 0.535797 -1.87769 0
M  V30 33 H 4.32789 -1.47149 0.226155 0
M  V30 34 H 1.90125 -2.05642 0.172028 0
M  V30 35 H 1.65435 -0.714332 -1.05529 0
M  V30 36 H 4.72345 -2.65858 -1.68949 0
M  V30 37 H 3.4486 -1.8777 -2.58267 0
M  V30 38 H -3.86488 1.51012 1.43345 0
M  V30 39 H -4.67552 0.131144 0.662392 0
M  V30 40 H -4.00355 2.76639 -0.390179 0
M  V30 41 H -5.19008 1.62838 -1.02514 0
M  V30 42 H -3.43792 1.53311 -1.53054 0
M  V30 43 H -2.59469 0.0919645 2.49052 0
M  V30 44 H -3.30095 -1.24727 1.83173 0
M  V30 END ATOM
M  V30 BEGIN BOND
M  V30 1 1 1 2
M  V30 2 1 2 3
M  V30 3 1 3 4
M  V30 4 1 4 5
M  V30 5 1 5 6
M  V30 6 2 6 7
M  V30 7 1 6 8
M  V30 8 1 8 9
M  V30 9 1 9 10
M  V30 10 1 10 11
M  V30 11 1 11 12
M  V30 12 1 12 13
M  V30 13 1 12 14
M  V30 14 1 3 15
M  V30 15 1 15 16
M  V30 16 1 3 17
M  V30 17 1 13 8
M  V30 18 1 1 18
M  V30 19 1 1 19
M  V30 20 1 1 20
M  V30 21 1 2 21
M  V30 22 1 2 22
M  V30 23 1 4 23
M  V30 24 1 4 24
M  V30 25 1 5 25
M  V30 26 1 8 26
M  V30 27 1 9 27
M  V30 28 1 9 28
M  V30 29 1 10 29
M  V30 30 1 10 30
M  V30 31 1 11 31
M  V30 32 1 11 32
M  V30 33 1 12 33
M  V30 34 1 13 34
M  V30 35 1 13 35
M  V30 36 1 14 36
M  V30 37 1 14 37
M  V30 38 1 15 38
M  V30 39 1 15 39
M  V30 40 1 16 40
M  V30 41 1 16 41
M  V30 42 1 16 42
M  V30 43 1 17 43
M  V30 44 1 17 44
M  V30 END BOND
M  V30 END CTAB
M  END
