
     RDKit          3D

  0  0  0  0  0  0  0  0  0  0999 V3000
M  V30 BEGIN CTAB
M  V30 COUNTS 26 26 0 0 0
M  V30 BEGIN ATOM
M  V30 1 C 4.13174 -1.36526 -0.141971 0
M  V30 2 C 2.99445 -0.50071 0.129648 0
M  V30 3 C 2.04728 0.179021 0.405759 0
M  V30 4 C 0.977801 0.954172 0.863069 0
M  V30 5 C -0.329391 0.897427 0.21701 0
M  V30 6 C -0.911994 -0.48386 0.0989072 0
M  V30 7 C -0.312375 -1.52424 -0.542554 0
M  V30 8 N -1.22528 -2.55331 -0.546629 0
M  V30 9 N -2.3214 -2.13811 0.0623496 0
M  V30 10 C -2.16838 -0.885445 0.466218 0
M  V30 11 N -3.15006 -0.091671 1.16603 0
M  V30 12 N -0.393286 1.57626 -1.06966 0
M  V30 13 N -1.42248 2.47506 -1.1779 0
M  V30 14 H 4.17181 -2.17479 0.660133 0
M  V30 15 H 5.09049 -0.801421 0.065273 0
M  V30 16 H 4.14653 -1.78526 -1.13774 0
M  V30 17 H 0.835884 0.914928 1.99211 0
M  V30 18 H 1.26781 2.09804 0.770722 0
M  V30 19 H -1.03405 1.52115 0.868792 0
M  V30 20 H 0.651076 -1.63107 -1.04241 0
M  V30 21 H -3.20012 -2.6783 0.249428 0
M  V30 22 H -3.51513 0.726507 0.613439 0
M  V30 23 H -3.40992 -0.377479 2.09657 0
M  V30 24 H 0.494165 2.04538 -1.19827 0
M  V30 25 H -1.11306 3.44176 -1.4379 0
M  V30 26 H -2.3021 2.16124 -1.58355 0
M  V30 END ATOM
M  V30 BEGIN BOND
M  V30 1 1 1 2
M  V30 2 3 2 3
M  V30 3 1 3 4
M  V30 4 1 4 5
M  V30 5 1 5 6
M  V30 6 1 6 7
M  V30 7 2 7 8
M  V30 8 1 8 9
M  V30 9 1 9 10
M  V30 10 1 10 11
M  V30 11 1 5 12
M  V30 12 1 12 13
M  V30 13 2 10 6
M  V30 14 1 1 14
M  V30 15 1 1 15
M  V30 16 1 1 16
M  V30 17 1 4 17
M  V30 18 1 4 18
M  V30 19 1 5 19
M  V30 20 1 7 20
M  V30 21 1 9 21
M  V30 22 1 11 22
M  V30 23 1 11 23
M  V30 24 1 12 24
M  V30 25 1 13 25
M  V30 26 1 13 26
M  V30 END BOND
M  V30 END CTAB
M  END
