
     RDKit          3D

  0  0  0  0  0  0  0  0  0  0999 V3000
M  V30 BEGIN CTAB
M  V30 COUNTS 58 60 0 0 0
M  V30 BEGIN ATOM
M  V30 1 C 4.96348 -0.902913 -1.28612 0
M  V30 2 C 4.96982 0.181094 -0.249167 0
M  V30 3 C 5.93264 -0.016604 0.871931 0
M  V30 4 C 5.39034 1.46879 -0.990833 0
M  V30 5 C 3.60135 0.381723 0.328172 0
M  V30 6 C 2.46962 -0.0378474 -0.3179 0
M  V30 7 C 1.17498 0.160372 0.180666 0
M  V30 8 C 1.04565 0.811239 1.3818 0
M  V30 9 O -0.23826 1.04365 1.90486 0
M  V30 10 C -1.34441 0.613777 1.19483 0
M  V30 11 C -2.64035 0.853738 1.68796 0
M  V30 12 N -2.73506 1.50667 2.94059 0
M  V30 13 C -3.77225 0.464237 1.01783 0
M  V30 14 C -3.6885 -0.188138 -0.189666 0
M  V30 15 C -2.41919 -0.425296 -0.671461 0
M  V30 16 C -1.26608 -0.0409228 -0.00645854 0
M  V30 17 C 0.0405054 -0.40877 -0.574651 0
M  V30 18 C 0.0649818 -0.189641 -2.0606 0
M  V30 19 C 0.240397 -1.95078 -0.372401 0
M  V30 20 C -4.86193 -0.623238 -0.978728 0
M  V30 21 C -6.14828 -0.334956 -0.261479 0
M  V30 22 C -4.70509 -2.10846 -1.2228 0
M  V30 23 C -4.94823 0.114306 -2.31587 0
M  V30 24 C 2.16297 1.23403 2.04651 0
M  V30 25 N 2.0055 1.91246 3.29862 0
M  V30 26 C 3.4325 1.02502 1.53224 0
M  V30 27 H 4.49078 -1.80162 -0.867466 0
M  V30 28 H 4.47565 -0.532272 -2.21332 0
M  V30 29 H 6.04212 -1.17955 -1.49279 0
M  V30 30 H 6.15535 0.987214 1.3177 0
M  V30 31 H 5.59658 -0.659833 1.69322 0
M  V30 32 H 6.93145 -0.356469 0.469111 0
M  V30 33 H 5.14178 2.37263 -0.407909 0
M  V30 34 H 6.4922 1.41191 -1.0657 0
M  V30 35 H 4.8753 1.4722 -1.9763 0
M  V30 36 H 2.64111 -0.551781 -1.28225 0
M  V30 37 H -3.04557 1.02223 3.81542 0
M  V30 38 H -2.48745 2.51342 3.04469 0
M  V30 39 H -4.77032 0.643637 1.40423 0
M  V30 40 H -2.34651 -0.945852 -1.64733 0
M  V30 41 H 1.10171 -0.168515 -2.45582 0
M  V30 42 H -0.425977 0.747667 -2.39635 0
M  V30 43 H -0.446157 -1.09597 -2.51818 0
M  V30 44 H 0.358987 -2.16369 0.695508 0
M  V30 45 H 1.17925 -2.16853 -0.902398 0
M  V30 46 H -0.577795 -2.50956 -0.866049 0
M  V30 47 H -6.19592 -1.01628 0.623297 0
M  V30 48 H -6.99546 -0.557067 -0.977714 0
M  V30 49 H -6.23898 0.734576 -0.0188512 0
M  V30 50 H -4.95999 -2.33467 -2.28319 0
M  V30 51 H -3.65598 -2.39992 -1.08039 0
M  V30 52 H -5.37377 -2.69585 -0.569557 0
M  V30 53 H -6.00822 0.326655 -2.60847 0
M  V30 54 H -4.45366 1.09762 -2.1676 0
M  V30 55 H -4.39364 -0.419796 -3.108 0
M  V30 56 H 2.37899 1.47607 4.14434 0
M  V30 57 H 1.51763 2.82087 3.32925 0
M  V30 58 H 4.26937 1.38697 2.11807 0
M  V30 END ATOM
M  V30 BEGIN BOND
M  V30 1 1 1 2
M  V30 2 1 2 3
M  V30 3 1 2 4
M  V30 4 1 2 5
M  V30 5 2 5 6
M  V30 6 1 6 7
M  V30 7 2 7 8
M  V30 8 1 8 9
M  V30 9 1 9 10
M  V30 10 2 10 11
M  V30 11 1 11 12
M  V30 12 1 11 13
M  V30 13 2 13 14
M  V30 14 1 14 15
M  V30 15 2 15 16
M  V30 16 1 16 17
M  V30 17 1 17 18
M  V30 18 1 17 19
M  V30 19 1 14 20
M  V30 20 1 20 21
M  V30 21 1 20 22
M  V30 22 1 20 23
M  V30 23 1 8 24
M  V30 24 1 24 25
M  V30 25 2 24 26
M  V30 26 1 26 5
M  V30 27 1 17 7
M  V30 28 1 16 10
M  V30 29 1 1 27
M  V30 30 1 1 28
M  V30 31 1 1 29
M  V30 32 1 3 30
M  V30 33 1 3 31
M  V30 34 1 3 32
M  V30 35 1 4 33
M  V30 36 1 4 34
M  V30 37 1 4 35
M  V30 38 1 6 36
M  V30 39 1 12 37
M  V30 40 1 12 38
M  V30 41 1 13 39
M  V30 42 1 15 40
M  V30 43 1 18 41
M  V30 44 1 18 42
M  V30 45 1 18 43
M  V30 46 1 19 44
M  V30 47 1 19 45
M  V30 48 1 19 46
M  V30 49 1 21 47
M  V30 50 1 21 48
M  V30 51 1 21 49
M  V30 52 1 22 50
M  V30 53 1 22 51
M  V30 54 1 22 52
M  V30 55 1 23 53
M  V30 56 1 23 54
M  V30 57 1 23 55
M  V30 58 1 25 56
M  V30 59 1 25 57
M  V30 60 1 26 58
M  V30 END BOND
M  V30 END CTAB
M  END
