
     RDKit          3D

  0  0  0  0  0  0  0  0  0  0999 V3000
M  V30 BEGIN CTAB
M  V30 COUNTS 27 27 0 0 0
M  V30 BEGIN ATOM
M  V30 1 C -1.81356 2.81105 0.909846 0
M  V30 2 O -0.85532 1.80053 0.769414 0
M  V30 3 C -1.20289 0.511241 0.317087 0
M  V30 4 C -0.248759 -0.471044 0.184521 0
M  V30 5 C 1.16086 -0.192489 0.514445 0
M  V30 6 N 2.07302 -1.08971 0.400384 0
M  V30 7 N 3.42028 -0.842875 0.709816 0
M  V30 8 C 4.22074 0.0667205 -0.00691491 0
M  V30 9 N 5.56804 0.269876 0.354139 0
M  V30 10 S 3.57299 0.878839 -1.25451 0
M  V30 11 C -0.635805 -1.71017 -0.259425 0
M  V30 12 C -1.92585 -1.9975 -0.571176 0
M  V30 13 C -2.88031 -1.00874 -0.4367 0
M  V30 14 N -4.21791 -1.33011 -0.767071 0
M  V30 15 C -2.52585 0.254373 0.00886486 0
M  V30 16 H -2.52474 2.62755 1.75038 0
M  V30 17 H -1.30207 3.78865 0.989344 0
M  V30 18 H -2.42217 2.87453 -0.0378493 0
M  V30 19 H 1.39519 0.79674 0.855956 0
M  V30 20 H 3.80565 -1.38526 1.52189 0
M  V30 21 H 6.18471 0.887061 -0.212042 0
M  V30 22 H 5.98579 -0.185771 1.18974 0
M  V30 23 H 0.132214 -2.46701 -0.355856 0
M  V30 24 H -2.22134 -3.00255 -0.928038 0
M  V30 25 H -4.79605 -1.94088 -0.159899 0
M  V30 26 H -4.64512 -0.95412 -1.63333 0
M  V30 27 H -3.30173 1.01105 0.103863 0
M  V30 END ATOM
M  V30 BEGIN BOND
M  V30 1 1 1 2
M  V30 2 1 2 3
M  V30 3 2 3 4
M  V30 4 1 4 5
M  V30 5 2 5 6
M  V30 6 1 6 7
M  V30 7 1 7 8
M  V30 8 1 8 9
M  V30 9 2 8 10
M  V30 10 1 4 11
M  V30 11 2 11 12
M  V30 12 1 12 13
M  V30 13 1 13 14
M  V30 14 2 13 15
M  V30 15 1 15 3
M  V30 16 1 1 16
M  V30 17 1 1 17
M  V30 18 1 1 18
M  V30 19 1 5 19
M  V30 20 1 7 20
M  V30 21 1 9 21
M  V30 22 1 9 22
M  V30 23 1 11 23
M  V30 24 1 12 24
M  V30 25 1 14 25
M  V30 26 1 14 26
M  V30 27 1 15 27
M  V30 END BOND
M  V30 END CTAB
M  END
