
     RDKit          3D

  0  0  0  0  0  0  0  0  0  0999 V3000
M  V30 BEGIN CTAB
M  V30 COUNTS 23 23 0 0 0
M  V30 BEGIN ATOM
M  V30 1 N 4.6295 0.255301 0.212868 0
M  V30 2 C 3.23381 0.095954 0.00238645 0
M  V30 3 C 2.34219 1.13543 0.152093 0
M  V30 4 C 0.973533 0.92051 -0.0689374 0
M  V30 5 C 0.539491 -0.327863 -0.432858 0
M  V30 6 C 1.47462 -1.32447 -0.566587 0
M  V30 7 N 2.78923 -1.11713 -0.354085 0
M  V30 8 C -0.874973 -0.615644 -0.676034 0
M  V30 9 N -1.78045 0.442207 -0.419231 0
M  V30 10 S -3.40982 0.125406 -0.696167 0
M  V30 11 O -4.13754 1.36264 -1.16812 0
M  V30 12 O -3.53006 -0.936308 -1.75494 0
M  V30 13 N -4.14493 -0.495355 0.73823 0
M  V30 14 H 5.00029 0.571449 1.12858 0
M  V30 15 H 5.28316 0.0502975 -0.566625 0
M  V30 16 H 2.7013 2.11203 0.439228 0
M  V30 17 H 0.324341 1.76165 0.05993 0
M  V30 18 H 1.1973 -2.33946 -0.853268 0
M  V30 19 H -1.00074 -0.941431 -1.73987 0
M  V30 20 H -1.19974 -1.50483 -0.0612523 0
M  V30 21 H -1.55017 1.06442 0.368057 0
M  V30 22 H -5.15961 -0.245103 0.68513 0
M  V30 23 H -3.70073 -0.0496846 1.56247 0
M  V30 END ATOM
M  V30 BEGIN BOND
M  V30 1 1 1 2
M  V30 2 2 2 3
M  V30 3 1 3 4
M  V30 4 2 4 5
M  V30 5 1 5 6
M  V30 6 2 6 7
M  V30 7 1 5 8
M  V30 8 1 8 9
M  V30 9 1 9 10
M  V30 10 2 10 11
M  V30 11 2 10 12
M  V30 12 1 10 13
M  V30 13 1 7 2
M  V30 14 1 1 14
M  V30 15 1 1 15
M  V30 16 1 3 16
M  V30 17 1 4 17
M  V30 18 1 6 18
M  V30 19 1 8 19
M  V30 20 1 8 20
M  V30 21 1 9 21
M  V30 22 1 13 22
M  V30 23 1 13 23
M  V30 END BOND
M  V30 END CTAB
M  END
