
     RDKit          3D

  0  0  0  0  0  0  0  0  0  0999 V3000
M  V30 BEGIN CTAB
M  V30 COUNTS 25 26 0 0 0
M  V30 BEGIN ATOM
M  V30 1 O 0.611977 -2.81541 0.0158598 0
M  V30 2 C 1.04359 -1.64225 -0.157953 0
M  V30 3 C 2.39963 -1.28972 -0.647886 0
M  V30 4 N 2.6002 0.0128716 -0.0470811 0
M  V30 5 C 1.3008 0.58266 0.122652 0
M  V30 6 C 0.367988 -0.367714 0.0619143 0
M  V30 7 C -1.06835 -0.185969 0.187279 0
M  V30 8 C -1.81919 -1.14058 0.854329 0
M  V30 9 C -3.17775 -1.0047 0.987795 0
M  V30 10 C -3.83577 0.0876057 0.460702 0
M  V30 11 C -3.08185 1.02231 -0.195698 0
M  V30 12 C -1.71518 0.916037 -0.347446 0
M  V30 13 N 1.12942 1.97184 0.324762 0
M  V30 14 N 3.82401 0.581606 0.291398 0
M  V30 15 H 2.35633 -1.15623 -1.75525 0
M  V30 16 H 3.17443 -2.01872 -0.34701 0
M  V30 17 H -1.33844 -2.02829 1.28947 0
M  V30 18 H -3.74704 -1.76504 1.51223 0
M  V30 19 H -4.91346 0.206358 0.560354 0
M  V30 20 H -3.59007 1.89744 -0.620077 0
M  V30 21 H -1.14038 1.67527 -0.874395 0
M  V30 22 H 0.998999 2.40505 1.25927 0
M  V30 23 H 1.13589 2.5911 -0.507697 0
M  V30 24 H 4.59742 -0.0182969 -0.0791508 0
M  V30 25 H 3.88681 1.48276 -0.241173 0
M  V30 END ATOM
M  V30 BEGIN BOND
M  V30 1 2 1 2
M  V30 2 1 2 3
M  V30 3 1 3 4
M  V30 4 1 4 5
M  V30 5 2 5 6
M  V30 6 1 6 7
M  V30 7 2 7 8
M  V30 8 1 8 9
M  V30 9 2 9 10
M  V30 10 1 10 11
M  V30 11 2 11 12
M  V30 12 1 5 13
M  V30 13 1 4 14
M  V30 14 1 6 2
M  V30 15 1 12 7
M  V30 16 1 3 15
M  V30 17 1 3 16
M  V30 18 1 8 17
M  V30 19 1 9 18
M  V30 20 1 10 19
M  V30 21 1 11 20
M  V30 22 1 12 21
M  V30 23 1 13 22
M  V30 24 1 13 23
M  V30 25 1 14 24
M  V30 26 1 14 25
M  V30 END BOND
M  V30 END CTAB
M  END
