
     RDKit          3D

  0  0  0  0  0  0  0  0  0  0999 V3000
M  V30 BEGIN CTAB
M  V30 COUNTS 26 26 0 0 0
M  V30 BEGIN ATOM
M  V30 1 N 4.10242 0.709778 -0.545001 0
M  V30 2 C 2.90882 0.0765887 0.000457917 0
M  V30 3 C 2.27568 -0.888932 -0.944606 0
M  V30 4 S 0.818123 -1.64897 -0.266696 0
M  V30 5 C -0.566153 -0.581702 -0.046977 0
M  V30 6 C -0.582426 0.737732 -0.424481 0
M  V30 7 C -1.70818 1.48307 -0.198976 0
M  V30 8 N -1.75229 2.85224 -0.580013 0
M  V30 9 C -2.83533 0.957727 0.396581 0
M  V30 10 C -2.83264 -0.375447 0.782929 0
M  V30 11 C -1.69759 -1.12191 0.554219 0
M  V30 12 C -1.69776 -2.56325 0.973294 0
M  V30 13 H 4.96835 0.452034 -0.0404345 0
M  V30 14 H 3.9648 1.76246 -0.483668 0
M  V30 15 H 2.20277 0.818028 0.372085 0
M  V30 16 H 3.26358 -0.51869 0.891385 0
M  V30 17 H 2.00419 -0.355769 -1.88606 0
M  V30 18 H 3.0168 -1.65319 -1.2319 0
M  V30 19 H 0.26068 1.19241 -0.895371 0
M  V30 20 H -2.06993 3.07321 -1.54666 0
M  V30 21 H -1.48092 3.58976 0.0744095 0
M  V30 22 H -3.7224 1.55283 0.57252 0
M  V30 23 H -3.68062 -0.850688 1.25404 0
M  V30 24 H -2.23947 -2.58736 1.96194 0
M  V30 25 H -0.677441 -2.94579 1.04032 0
M  V30 26 H -2.24307 -3.16617 0.216665 0
M  V30 END ATOM
M  V30 BEGIN BOND
M  V30 1 1 1 2
M  V30 2 1 2 3
M  V30 3 1 3 4
M  V30 4 1 4 5
M  V30 5 2 5 6
M  V30 6 1 6 7
M  V30 7 1 7 8
M  V30 8 2 7 9
M  V30 9 1 9 10
M  V30 10 2 10 11
M  V30 11 1 11 12
M  V30 12 1 11 5
M  V30 13 1 1 13
M  V30 14 1 1 14
M  V30 15 1 2 15
M  V30 16 1 2 16
M  V30 17 1 3 17
M  V30 18 1 3 18
M  V30 19 1 6 19
M  V30 20 1 8 20
M  V30 21 1 8 21
M  V30 22 1 9 22
M  V30 23 1 10 23
M  V30 24 1 12 24
M  V30 25 1 12 25
M  V30 26 1 12 26
M  V30 END BOND
M  V30 END CTAB
M  END
