
     RDKit          3D

  0  0  0  0  0  0  0  0  0  0999 V3000
M  V30 BEGIN CTAB
M  V30 COUNTS 41 44 0 0 0
M  V30 BEGIN ATOM
M  V30 1 N 6.82147 0.224944 1.06839 0
M  V30 2 C 5.4396 0.283923 0.726691 0
M  V30 3 C 5.08922 0.952694 -0.415683 0
M  V30 4 C 3.75718 1.01514 -0.75464 0
M  V30 5 C 2.73945 0.441321 -0.0101583 0
M  V30 6 N 1.36178 0.608737 -0.429036 0
M  V30 7 C 0.348591 -0.329044 -0.222375 0
M  V30 8 C 0.678496 -1.68535 -0.0628923 0
M  V30 9 C -0.287288 -2.66413 0.0456123 0
M  V30 10 C 0.110256 -4.05256 0.210044 0
M  V30 11 N 0.408358 -5.16389 0.346818 0
M  V30 12 C -1.62062 -2.34816 0.00079608 0
M  V30 13 N -2.58548 -3.38822 0.115255 0
M  V30 14 C -1.96684 -1.02644 -0.154373 0
M  V30 15 C -0.990551 -0.0221891 -0.264716 0
M  V30 16 C -1.42073 1.35725 -0.404919 0
M  V30 17 O -0.658264 2.34737 -0.506625 0
M  V30 18 C -2.85956 1.66405 -0.431056 0
M  V30 19 C -3.28261 2.96732 -0.564935 0
M  V30 20 C -4.61976 3.29139 -0.593743 0
M  V30 21 C -5.54261 2.27549 -0.484825 0
M  V30 22 C -5.1701 0.970055 -0.350524 0
M  V30 23 C -3.81044 0.671252 -0.32441 0
M  V30 24 C -3.38814 -0.709728 -0.181992 0
M  V30 25 O -4.24649 -1.62515 -0.0832508 0
M  V30 26 C 3.10515 -0.222549 1.1282 0
M  V30 27 C 4.45744 -0.297979 1.49117 0
M  V30 28 H 7.17047 -0.597528 1.60761 0
M  V30 29 H 7.50527 0.958684 0.809591 0
M  V30 30 H 5.86856 1.41475 -1.02234 0
M  V30 31 H 3.48609 1.53937 -1.64949 0
M  V30 32 H 1.17666 1.49227 -0.952574 0
M  V30 33 H 1.69916 -2.01245 -0.0433414 0
M  V30 34 H -3.03896 -3.84413 -0.719033 0
M  V30 35 H -2.88101 -3.74016 1.0516 0
M  V30 36 H -2.53335 3.74026 -0.647984 0
M  V30 37 H -4.94809 4.33587 -0.701077 0
M  V30 38 H -6.60264 2.52875 -0.5073 0
M  V30 39 H -5.86674 0.149822 -0.26276 0
M  V30 40 H 2.35377 -0.677316 1.7532 0
M  V30 41 H 4.74328 -0.823718 2.39107 0
M  V30 END ATOM
M  V30 BEGIN BOND
M  V30 1 1 1 2
M  V30 2 2 2 3
M  V30 3 1 3 4
M  V30 4 2 4 5
M  V30 5 1 5 6
M  V30 6 1 6 7
M  V30 7 2 7 8
M  V30 8 1 8 9
M  V30 9 1 9 10
M  V30 10 3 10 11
M  V30 11 2 9 12
M  V30 12 1 12 13
M  V30 13 1 12 14
M  V30 14 2 14 15
M  V30 15 1 15 16
M  V30 16 2 16 17
M  V30 17 1 16 18
M  V30 18 2 18 19
M  V30 19 1 19 20
M  V30 20 2 20 21
M  V30 21 1 21 22
M  V30 22 2 22 23
M  V30 23 1 23 24
M  V30 24 2 24 25
M  V30 25 1 5 26
M  V30 26 2 26 27
M  V30 27 1 27 2
M  V30 28 1 15 7
M  V30 29 1 23 18
M  V30 30 1 24 14
M  V30 31 1 1 28
M  V30 32 1 1 29
M  V30 33 1 3 30
M  V30 34 1 4 31
M  V30 35 1 6 32
M  V30 36 1 8 33
M  V30 37 1 13 34
M  V30 38 1 13 35
M  V30 39 1 19 36
M  V30 40 1 20 37
M  V30 41 1 21 38
M  V30 42 1 22 39
M  V30 43 1 26 40
M  V30 44 1 27 41
M  V30 END BOND
M  V30 END CTAB
M  END
