
     RDKit          3D

  0  0  0  0  0  0  0  0  0  0999 V3000
M  V30 BEGIN CTAB
M  V30 COUNTS 47 48 0 0 0
M  V30 BEGIN ATOM
M  V30 1 O 1.0881 1.42567 -0.678279 0
M  V30 2 C 0.454532 0.37128 -0.428942 0
M  V30 3 N 0.812481 -0.81468 -1.08787 0
M  V30 4 C 1.88941 -0.834098 -2.03331 0
M  V30 5 C 3.2241 -0.813532 -1.35521 0
M  V30 6 C 3.36499 -0.932264 0.0105862 0
M  V30 7 C 4.61824 -0.903815 0.596685 0
M  V30 8 C 5.77087 -0.757526 -0.145807 0
M  V30 9 C 5.63267 -0.638588 -1.51248 0
M  V30 10 C 4.37088 -0.666969 -2.10507 0
M  V30 11 S 7.34379 -0.727254 0.648241 0
M  V30 12 O 8.40564 -1.21901 -0.29774 0
M  V30 13 O 7.29333 -1.6513 1.81088 0
M  V30 14 N 7.77021 0.887554 1.08638 0
M  V30 15 N -0.626372 0.349405 0.513779 0
M  V30 16 C -0.949599 1.5987 1.16153 0
M  V30 17 C -2.08485 1.41376 2.10863 0
M  V30 18 C -3.34666 0.940756 1.50197 0
M  V30 19 C -3.72803 -0.378603 1.41887 0
M  V30 20 C -4.93805 -0.754977 0.8212 0
M  V30 21 C -5.7999 0.180745 0.290395 0
M  V30 22 C -5.43005 1.50641 0.367274 0
M  V30 23 C -4.23996 1.87278 0.95516 0
M  V30 24 S -7.31121 -0.319954 -0.450044 0
M  V30 25 O -7.78192 -1.58542 0.210768 0
M  V30 26 O -8.35097 0.731616 -0.18296 0
M  V30 27 N -7.11363 -0.629425 -2.12337 0
M  V30 28 H 0.297446 -1.6905 -0.893657 0
M  V30 29 H 1.84648 0.0675912 -2.68278 0
M  V30 30 H 1.76719 -1.70263 -2.70268 0
M  V30 31 H 2.46098 -1.04982 0.609113 0
M  V30 32 H 4.70757 -0.998207 1.67049 0
M  V30 33 H 6.5244 -0.52357 -2.10718 0
M  V30 34 H 4.26569 -0.57213 -3.18934 0
M  V30 35 H 8.36161 1.36513 0.396588 0
M  V30 36 H 8.15705 0.841273 2.05198 0
M  V30 37 H -1.11759 -0.535857 0.68926 0
M  V30 38 H -0.04915 1.83957 1.80184 0
M  V30 39 H -1.11987 2.41848 0.428189 0
M  V30 40 H -2.24263 2.37984 2.67487 0
M  V30 41 H -1.72425 0.713732 2.90985 0
M  V30 42 H -3.07136 -1.13815 1.83804 0
M  V30 43 H -5.22448 -1.78502 0.761214 0
M  V30 44 H -6.11926 2.22205 -0.0536676 0
M  V30 45 H -3.96124 2.91559 1.00936 0
M  V30 46 H -7.88283 -1.2561 -2.43299 0
M  V30 47 H -6.21377 -1.16253 -2.23818 0
M  V30 END ATOM
M  V30 BEGIN BOND
M  V30 1 2 1 2
M  V30 2 1 2 3
M  V30 3 1 3 4
M  V30 4 1 4 5
M  V30 5 2 5 6
M  V30 6 1 6 7
M  V30 7 2 7 8
M  V30 8 1 8 9
M  V30 9 2 9 10
M  V30 10 1 8 11
M  V30 11 2 11 12
M  V30 12 2 11 13
M  V30 13 1 11 14
M  V30 14 1 2 15
M  V30 15 1 15 16
M  V30 16 1 16 17
M  V30 17 1 17 18
M  V30 18 2 18 19
M  V30 19 1 19 20
M  V30 20 2 20 21
M  V30 21 1 21 22
M  V30 22 2 22 23
M  V30 23 1 21 24
M  V30 24 2 24 25
M  V30 25 2 24 26
M  V30 26 1 24 27
M  V30 27 1 10 5
M  V30 28 1 23 18
M  V30 29 1 3 28
M  V30 30 1 4 29
M  V30 31 1 4 30
M  V30 32 1 6 31
M  V30 33 1 7 32
M  V30 34 1 9 33
M  V30 35 1 10 34
M  V30 36 1 14 35
M  V30 37 1 14 36
M  V30 38 1 15 37
M  V30 39 1 16 38
M  V30 40 1 16 39
M  V30 41 1 17 40
M  V30 42 1 17 41
M  V30 43 1 19 42
M  V30 44 1 20 43
M  V30 45 1 22 44
M  V30 46 1 23 45
M  V30 47 1 27 46
M  V30 48 1 27 47
M  V30 END BOND
M  V30 END CTAB
M  END
