
     RDKit          3D

  0  0  0  0  0  0  0  0  0  0999 V3000
M  V30 BEGIN CTAB
M  V30 COUNTS 33 35 0 0 0
M  V30 BEGIN ATOM
M  V30 1 N 2.15485 3.26743 0.745782 0
M  V30 2 C 2.30425 1.90136 0.401366 0
M  V30 3 N 1.24654 1.16035 -0.0337381 0
M  V30 4 C 1.40744 -0.132694 -0.355485 0
M  V30 5 C 2.65251 -0.719893 -0.246064 0
M  V30 6 N 2.56877 -1.98923 -0.614597 0
M  V30 7 C 1.26811 -2.21896 -0.961569 0
M  V30 8 N 0.566375 -1.08334 -0.801192 0
M  V30 9 C -0.854108 -0.915098 -1.06443 0 CFG=1
M  V30 10 C -1.65205 -1.92051 -0.269474 0
M  V30 11 C -2.53586 -1.01879 0.58141 0 CFG=2
M  V30 12 O -3.79148 -1.54338 0.77624 0
M  V30 13 C -2.61602 0.217897 -0.308548 0 CFG=1
M  V30 14 C -3.068 1.42537 0.46715 0
M  V30 15 O -2.93434 2.53318 -0.364846 0
M  V30 16 O -1.28706 0.338408 -0.711584 0
M  V30 17 C 3.7041 0.0422563 0.193534 0
M  V30 18 N 4.99547 -0.508172 0.323163 0
M  V30 19 N 3.51484 1.32953 0.50751 0
M  V30 20 H 1.24984 3.58876 1.13434 0
M  V30 21 H 2.9667 3.89922 0.593605 0
M  V30 22 H 0.876454 -3.16245 -1.30733 0
M  V30 23 H -1.05604 -1.05111 -2.16379 0
M  V30 24 H -0.987781 -2.55099 0.373746 0
M  V30 25 H -2.30622 -2.54529 -0.925047 0
M  V30 26 H -2.00382 -0.756414 1.49535 0
M  V30 27 H -3.79199 -1.9815 1.68013 0
M  V30 28 H -3.25255 0.0515343 -1.19554 0
M  V30 29 H -4.12008 1.27913 0.757868 0
M  V30 30 H -2.43606 1.50862 1.3808 0
M  V30 31 H -3.80872 3.00258 -0.413884 0
M  V30 32 H 5.72245 -0.370524 -0.423878 0
M  V30 33 H 5.30345 -1.07728 1.15635 0
M  V30 END ATOM
M  V30 BEGIN BOND
M  V30 1 1 1 2
M  V30 2 2 2 3
M  V30 3 1 3 4
M  V30 4 2 4 5
M  V30 5 1 5 6
M  V30 6 2 6 7
M  V30 7 1 7 8
M  V30 8 1 8 9
M  V30 9 1 9 10
M  V30 10 1 10 11
M  V30 11 1 11 12
M  V30 12 1 11 13
M  V30 13 1 13 14
M  V30 14 1 14 15
M  V30 15 1 13 16
M  V30 16 1 5 17
M  V30 17 1 17 18
M  V30 18 2 17 19
M  V30 19 1 19 2
M  V30 20 1 8 4
M  V30 21 1 16 9
M  V30 22 1 1 20
M  V30 23 1 1 21
M  V30 24 1 7 22
M  V30 25 1 9 23 CFG=3
M  V30 26 1 10 24
M  V30 27 1 10 25
M  V30 28 1 11 26 CFG=1
M  V30 29 1 12 27
M  V30 30 1 13 28 CFG=3
M  V30 31 1 14 29
M  V30 32 1 14 30
M  V30 33 1 15 31
M  V30 34 1 18 32
M  V30 35 1 18 33
M  V30 END BOND
M  V30 END CTAB
M  END
