
     RDKit          3D

  0  0  0  0  0  0  0  0  0  0999 V3000
M  V30 BEGIN CTAB
M  V30 COUNTS 42 44 0 0 0
M  V30 BEGIN ATOM
M  V30 1 N -5.97266 -0.507933 0.314586 0
M  V30 2 C -5.62905 0.780699 -0.149158 0
M  V30 3 N -6.59488 1.59223 -0.420186 0
M  V30 4 S -3.91967 1.19282 -0.325923 0
M  V30 5 C -2.85697 -0.107661 0.116525 0
M  V30 6 C -1.41746 0.019478 0.0456678 0
M  V30 7 C -0.682774 -1.12986 0.445849 0
M  V30 8 C -1.4071 -2.21745 0.860285 0
M  V30 9 C -0.740404 -3.3799 1.27437 0
M  V30 10 C 0.619971 -3.3822 1.24818 0
M  V30 11 C 1.37787 -2.27579 0.826106 0
M  V30 12 C 0.670018 -1.14794 0.424907 0
M  V30 13 C 1.42439 -0.0319841 0.00614237 0
M  V30 14 C 2.85406 -0.242207 0.0297438 0
M  V30 15 S 4.04244 0.97078 -0.403999 0
M  V30 16 C 5.67531 0.302264 -0.238729 0
M  V30 17 N 5.84802 -1.02512 0.187068 0
M  V30 18 N 6.70571 1.01932 -0.504426 0
M  V30 19 C 0.72146 1.08768 -0.383369 0
M  V30 20 C -0.694786 1.1092 -0.362222 0
M  V30 21 C -1.33822 2.27144 -0.769218 0
M  V30 22 C -0.614133 3.36215 -1.17834 0
M  V30 23 C 0.733935 3.33916 -1.19762 0
M  V30 24 C 1.42875 2.19652 -0.798747 0
M  V30 25 H -6.33885 -1.2265 -0.334727 0
M  V30 26 H -5.85578 -0.731957 1.31353 0
M  V30 27 H -6.39893 2.54886 -0.763409 0
M  V30 28 H -3.14952 -1.05288 -0.515533 0
M  V30 29 H -3.17049 -0.422815 1.19143 0
M  V30 30 H -2.46867 -2.2487 0.894078 0
M  V30 31 H -1.3016 -4.22613 1.59665 0
M  V30 32 H 1.1798 -4.25358 1.55761 0
M  V30 33 H 2.44007 -2.34758 0.838298 0
M  V30 34 H 3.08447 -1.23906 -0.507016 0
M  V30 35 H 3.09479 -0.554276 1.11542 0
M  V30 36 H 5.43073 -1.33996 1.07651 0
M  V30 37 H 6.39245 -1.68503 -0.390291 0
M  V30 38 H 6.56889 2.00241 -0.81943 0
M  V30 39 H -2.39508 2.31834 -0.764599 0
M  V30 40 H -1.17265 4.25255 -1.48886 0
M  V30 41 H 1.34303 4.19666 -1.52007 0
M  V30 42 H 2.48353 2.21396 -0.827346 0
M  V30 END ATOM
M  V30 BEGIN BOND
M  V30 1 1 1 2
M  V30 2 2 2 3 CFG=2
M  V30 3 1 2 4
M  V30 4 1 4 5
M  V30 5 1 5 6
M  V30 6 2 6 7
M  V30 7 1 7 8
M  V30 8 2 8 9
M  V30 9 1 9 10
M  V30 10 2 10 11
M  V30 11 1 11 12
M  V30 12 2 12 13
M  V30 13 1 13 14
M  V30 14 1 14 15
M  V30 15 1 15 16
M  V30 16 1 16 17
M  V30 17 2 16 18 CFG=2
M  V30 18 1 13 19
M  V30 19 2 19 20
M  V30 20 1 20 21
M  V30 21 2 21 22
M  V30 22 1 22 23
M  V30 23 2 23 24
M  V30 24 1 20 6
M  V30 25 1 12 7
M  V30 26 1 24 19
M  V30 27 1 1 25
M  V30 28 1 1 26
M  V30 29 1 3 27
M  V30 30 1 5 28
M  V30 31 1 5 29
M  V30 32 1 8 30
M  V30 33 1 9 31
M  V30 34 1 10 32
M  V30 35 1 11 33
M  V30 36 1 14 34
M  V30 37 1 14 35
M  V30 38 1 17 36
M  V30 39 1 17 37
M  V30 40 1 18 38
M  V30 41 1 21 39
M  V30 42 1 22 40
M  V30 43 1 23 41
M  V30 44 1 24 42
M  V30 END BOND
M  V30 END CTAB
M  END
