
     RDKit          3D

  0  0  0  0  0  0  0  0  0  0999 V3000
M  V30 BEGIN CTAB
M  V30 COUNTS 53 55 0 0 0
M  V30 BEGIN ATOM
M  V30 1 N -7.02712 1.65444 0.897697 0
M  V30 2 C -6.41197 0.635492 0.11591 0
M  V30 3 C -5.1385 0.162291 0.772199 0
M  V30 4 C -4.10878 1.21164 0.958984 0
M  V30 5 C -3.56398 1.88611 -0.237341 0
M  V30 6 C -2.8252 1.00745 -1.21107 0 CFG=2
M  V30 7 N -3.61551 -0.040339 -1.76173 0
M  V30 8 C -1.66537 0.437789 -0.453494 0
M  V30 9 O -0.848495 1.18266 0.107744 0
M  V30 10 O -1.51314 -0.906254 -0.384691 0
M  V30 11 C -0.574568 -1.70901 0.2101 0
M  V30 12 C 0.81971 -1.5885 -0.335802 0 CFG=1
M  V30 13 O 1.39279 -0.367338 -0.199507 0
M  V30 14 C 2.7442 -0.554976 0.0738248 0 CFG=2
M  V30 15 C 2.68016 -1.67644 1.08631 0 CFG=2
M  V30 16 O 3.91464 -2.30278 1.24144 0
M  V30 17 C 1.6744 -2.59394 0.41348 0 CFG=2
M  V30 18 O 2.32957 -3.38382 -0.502378 0
M  V30 19 N 3.41846 0.615418 0.514132 0
M  V30 20 C 3.18385 1.42922 1.55434 0
M  V30 21 Br 1.78055 1.23468 2.8284 0
M  V30 22 N 4.10612 2.42746 1.5676 0
M  V30 23 C 4.94739 2.26991 0.53571 0
M  V30 24 C 6.04995 2.99191 0.0908434 0
M  V30 25 C 6.74445 2.58388 -1.0327 0
M  V30 26 Cl 8.13678 3.46626 -1.6232 0
M  V30 27 C 6.29033 1.45047 -1.66658 0
M  V30 28 Cl 7.11013 0.846282 -3.11256 0
M  V30 29 C 5.20014 0.722208 -1.24073 0
M  V30 30 C 4.51231 1.13925 -0.115357 0
M  V30 31 H -7.69103 1.33681 1.53755 0
M  V30 32 H -7.24192 2.47942 0.393363 0
M  V30 33 H -6.31194 0.929237 -0.933079 0
M  V30 34 H -7.11747 -0.235309 0.13638 0
M  V30 35 H -4.82332 -0.780423 0.32926 0
M  V30 36 H -5.4675 -0.130614 1.82888 0
M  V30 37 H -3.23082 0.704516 1.46847 0
M  V30 38 H -4.45514 1.94117 1.74309 0
M  V30 39 H -4.3253 2.44707 -0.827302 0
M  V30 40 H -2.87791 2.70435 0.141277 0
M  V30 41 H -2.45241 1.61313 -2.07801 0
M  V30 42 H -4.23806 0.238154 -2.52861 0
M  V30 43 H -2.99566 -0.825622 -2.09513 0
M  V30 44 H -0.946384 -2.77569 0.122799 0
M  V30 45 H -0.592283 -1.47025 1.31571 0
M  V30 46 H 0.827181 -1.86504 -1.43225 0
M  V30 47 H 3.24878 -1.00059 -0.831517 0
M  V30 48 H 2.22889 -1.38987 2.04482 0
M  V30 49 H 4.37283 -1.81125 1.99049 0
M  V30 50 H 1.0936 -3.17769 1.15684 0
M  V30 51 H 2.03412 -3.25303 -1.43784 0
M  V30 52 H 6.34977 3.87454 0.64065 0
M  V30 53 H 4.8687 -0.180753 -1.77741 0
M  V30 END ATOM
M  V30 BEGIN BOND
M  V30 1 1 1 2
M  V30 2 1 2 3
M  V30 3 1 3 4
M  V30 4 1 4 5
M  V30 5 1 5 6
M  V30 6 1 6 7
M  V30 7 1 6 8
M  V30 8 2 8 9
M  V30 9 1 8 10
M  V30 10 1 10 11
M  V30 11 1 11 12
M  V30 12 1 12 13
M  V30 13 1 13 14
M  V30 14 1 14 15
M  V30 15 1 15 16
M  V30 16 1 15 17
M  V30 17 1 17 18
M  V30 18 1 14 19
M  V30 19 1 19 20
M  V30 20 1 20 21
M  V30 21 2 20 22
M  V30 22 1 22 23
M  V30 23 2 23 24
M  V30 24 1 24 25
M  V30 25 1 25 26
M  V30 26 2 25 27
M  V30 27 1 27 28
M  V30 28 1 27 29
M  V30 29 2 29 30
M  V30 30 1 17 12
M  V30 31 1 30 19
M  V30 32 1 30 23
M  V30 33 1 1 31
M  V30 34 1 1 32
M  V30 35 1 2 33
M  V30 36 1 2 34
M  V30 37 1 3 35
M  V30 38 1 3 36
M  V30 39 1 4 37
M  V30 40 1 4 38
M  V30 41 1 5 39
M  V30 42 1 5 40
M  V30 43 1 6 41 CFG=3
M  V30 44 1 7 42
M  V30 45 1 7 43
M  V30 46 1 11 44
M  V30 47 1 11 45
M  V30 48 1 12 46 CFG=3
M  V30 49 1 14 47 CFG=3
M  V30 50 1 15 48 CFG=1
M  V30 51 1 16 49
M  V30 52 1 17 50 CFG=1
M  V30 53 1 18 51
M  V30 54 1 24 52
M  V30 55 1 29 53
M  V30 END BOND
M  V30 END CTAB
M  END
