
     RDKit          3D

  0  0  0  0  0  0  0  0  0  0999 V3000
M  V30 BEGIN CTAB
M  V30 COUNTS 41 40 0 0 0
M  V30 BEGIN ATOM
M  V30 1 O 2.12009 -0.452482 2.91058 0
M  V30 2 C 0.842765 -0.604288 2.54748 0
M  V30 3 O -0.0077391 -0.670799 3.49766 0
M  V30 4 C 0.4055 -0.689682 1.16272 0 CFG=2
M  V30 5 N -1.06384 -0.761816 1.17157 0
M  V30 6 C -1.85164 0.215864 0.508099 0
M  V30 7 O -1.27406 1.16714 -0.102067 0
M  V30 8 O -3.21655 0.215662 0.47239 0
M  V30 9 C -4.01886 1.16769 -0.175189 0
M  V30 10 C -3.75993 1.24597 -1.66087 0
M  V30 11 C -5.45935 0.733323 0.00415717 0
M  V30 12 C -3.87961 2.54773 0.387455 0
M  V30 13 C 0.89421 -1.93995 0.500767 0
M  V30 14 C 2.38087 -2.02384 0.467899 0
M  V30 15 C 2.95275 -0.847119 -0.29386 0
M  V30 16 N 4.40162 -0.904504 -0.341589 0
M  V30 17 C 4.98971 -0.330744 -1.34807 0
M  V30 18 N 4.27506 0.329454 -2.36919 0
M  V30 19 N 6.40646 -0.385873 -1.39585 0
M  V30 20 H 2.53347 -0.751688 3.72477 0
M  V30 21 H 0.73694 0.200725 0.586748 0
M  V30 22 H -1.56971 -1.52559 1.66106 0
M  V30 23 H -2.97638 1.96715 -1.9306 0
M  V30 24 H -3.58272 0.229384 -2.08947 0
M  V30 25 H -4.69978 1.61 -2.12683 0
M  V30 26 H -5.48123 -0.367992 0.119181 0
M  V30 27 H -5.80437 1.16497 0.968711 0
M  V30 28 H -6.0922 1.05215 -0.848638 0
M  V30 29 H -4.86499 3.05279 0.322756 0
M  V30 30 H -3.17671 3.18315 -0.198731 0
M  V30 31 H -3.60144 2.54288 1.46908 0
M  V30 32 H 0.486348 -2.03357 -0.537725 0
M  V30 33 H 0.448288 -2.79445 1.08443 0
M  V30 34 H 2.80512 -2.16381 1.46318 0
M  V30 35 H 2.62687 -2.97148 -0.134052 0
M  V30 36 H 2.70186 0.12257 0.163725 0
M  V30 37 H 2.52369 -0.910559 -1.32175 0
M  V30 38 H 3.83865 -0.188156 -3.13998 0
M  V30 39 H 4.17877 1.36024 -2.35641 0
M  V30 40 H 6.9333 0.499142 -1.29019 0
M  V30 41 H 6.89878 -1.28958 -1.53335 0
M  V30 END ATOM
M  V30 BEGIN BOND
M  V30 1 1 1 2
M  V30 2 2 2 3
M  V30 3 1 2 4
M  V30 4 1 4 5
M  V30 5 1 5 6
M  V30 6 2 6 7
M  V30 7 1 6 8
M  V30 8 1 8 9
M  V30 9 1 9 10
M  V30 10 1 9 11
M  V30 11 1 9 12
M  V30 12 1 4 13
M  V30 13 1 13 14
M  V30 14 1 14 15
M  V30 15 1 15 16
M  V30 16 2 16 17 CFG=2
M  V30 17 1 17 18
M  V30 18 1 17 19
M  V30 19 1 1 20
M  V30 20 1 4 21 CFG=3
M  V30 21 1 5 22
M  V30 22 1 10 23
M  V30 23 1 10 24
M  V30 24 1 10 25
M  V30 25 1 11 26
M  V30 26 1 11 27
M  V30 27 1 11 28
M  V30 28 1 12 29
M  V30 29 1 12 30
M  V30 30 1 12 31
M  V30 31 1 13 32
M  V30 32 1 13 33
M  V30 33 1 14 34
M  V30 34 1 14 35
M  V30 35 1 15 36
M  V30 36 1 15 37
M  V30 37 1 18 38
M  V30 38 1 18 39
M  V30 39 1 19 40
M  V30 40 1 19 41
M  V30 END BOND
M  V30 END CTAB
M  END
