
     RDKit          3D

  0  0  0  0  0  0  0  0  0  0999 V3000
M  V30 BEGIN CTAB
M  V30 COUNTS 23 23 0 0 0
M  V30 BEGIN ATOM
M  V30 1 N 2.97911 -0.903503 -0.159856 0
M  V30 2 C 2.28974 0.164503 0.474736 0
M  V30 3 N 1.10004 0.506485 0.12375 0
M  V30 4 C 0.478094 -0.233854 -0.945175 0
M  V30 5 C -1.02144 -0.277612 -0.833229 0
M  V30 6 C -1.47652 -0.929348 0.455119 0
M  V30 7 C -2.85936 -0.391062 0.578601 0
M  V30 8 C -2.94797 0.759674 -0.0737218 0
M  V30 9 C -1.63409 1.10333 -0.696909 0
M  V30 10 N 2.91796 0.898611 1.54124 0
M  V30 11 H 3.14584 -0.845006 -1.18846 0
M  V30 12 H 3.31344 -1.72899 0.382016 0
M  V30 13 H 0.714105 0.291165 -1.89894 0
M  V30 14 H 0.841023 -1.26365 -1.01097 0
M  V30 15 H -1.45892 -0.783407 -1.69271 0
M  V30 16 H -1.44903 -2.03074 0.415056 0
M  V30 17 H -0.894866 -0.516789 1.31756 0
M  V30 18 H -3.66026 -0.880036 1.12373 0
M  V30 19 H -3.83369 1.37766 -0.156181 0
M  V30 20 H -1.74611 1.61546 -1.65997 0
M  V30 21 H -1.06289 1.68035 0.0560697 0
M  V30 22 H 3.59651 0.484311 2.19489 0
M  V30 23 H 2.66927 1.90245 1.65336 0
M  V30 END ATOM
M  V30 BEGIN BOND
M  V30 1 1 1 2
M  V30 2 2 2 3 CFG=2
M  V30 3 1 3 4
M  V30 4 1 4 5
M  V30 5 1 5 6
M  V30 6 1 6 7
M  V30 7 2 7 8
M  V30 8 1 8 9
M  V30 9 1 2 10
M  V30 10 1 9 5
M  V30 11 1 1 11
M  V30 12 1 1 12
M  V30 13 1 4 13
M  V30 14 1 4 14
M  V30 15 1 5 15
M  V30 16 1 6 16
M  V30 17 1 6 17
M  V30 18 1 7 18
M  V30 19 1 8 19
M  V30 20 1 9 20
M  V30 21 1 9 21
M  V30 22 1 10 22
M  V30 23 1 10 23
M  V30 END BOND
M  V30 END CTAB
M  END
