
     RDKit          3D

  0  0  0  0  0  0  0  0  0  0999 V3000
M  V30 BEGIN CTAB
M  V30 COUNTS 71 74 0 0 0
M  V30 BEGIN ATOM
M  V30 1 C -7.68373 -4.44634 -0.514787 0
M  V30 2 N -7.44789 -3.07737 -0.118896 0
M  V30 3 C -6.26715 -2.98546 0.700839 0
M  V30 4 C -7.38589 -2.18854 -1.26395 0
M  V30 5 C -7.1698 -0.81518 -0.757504 0
M  V30 6 C -8.24665 -0.0840499 -0.265114 0
M  V30 7 C -8.02446 1.17841 0.190009 0
M  V30 8 C -6.75536 1.71303 0.159891 0
M  V30 9 C -5.66422 1.02027 -0.319989 0
M  V30 10 C -5.90633 -0.268792 -0.781646 0
M  V30 11 C -4.34342 1.63275 -0.332605 0
M  V30 12 C -3.39121 1.33482 -1.28857 0
M  V30 13 C -2.13389 1.92014 -1.30496 0
M  V30 14 C -1.77904 2.83783 -0.350944 0
M  V30 15 C -2.71957 3.14474 0.609935 0
M  V30 16 C -3.97066 2.56944 0.635024 0
M  V30 17 C -0.448654 3.48522 -0.339567 0 CFG=1
M  V30 18 O 0.58003 2.57829 -0.585814 0
M  V30 19 C 1.53635 2.22085 0.362146 0
M  V30 20 C 2.52517 1.31322 0.00313608 0
M  V30 21 C 3.49995 0.910698 0.875348 0
M  V30 22 N 3.44693 1.44831 2.11316 0
M  V30 23 C 2.48397 2.33539 2.47008 0
M  V30 24 N 2.42497 2.89973 3.76446 0
M  V30 25 N 1.54624 2.71027 1.59987 0
M  V30 26 C 4.53497 -0.0375674 0.498199 0
M  V30 27 C 4.63594 -0.601324 -0.747051 0
M  V30 28 C 5.64428 -1.50266 -1.05812 0
M  V30 29 C 6.60887 -1.88952 -0.135614 0
M  V30 30 C 7.64826 -2.87093 -0.511089 0
M  V30 31 C 8.87251 -2.33274 -1.15058 0 CFG=2
M  V30 32 N 9.73368 -3.51319 -1.41997 0
M  V30 33 C 9.58876 -1.4216 -0.244793 0
M  V30 34 O 9.05884 -0.161577 -0.00745249 0
M  V30 35 O 10.6695 -1.77419 0.307236 0
M  V30 36 C 6.50544 -1.31935 1.12174 0
M  V30 37 C 5.50761 -0.427095 1.43 0
M  V30 38 C -0.384098 4.7203 -1.20217 0
M  V30 39 F 0.925893 5.20141 -1.07922 0
M  V30 40 F -0.639686 4.49244 -2.51845 0
M  V30 41 F -1.19098 5.71842 -0.696589 0
M  V30 42 H -6.94774 -5.08487 9.73596e-05 0
M  V30 43 H -8.69934 -4.74644 -0.174704 0
M  V30 44 H -7.56057 -4.59393 -1.60527 0
M  V30 45 H -6.29431 -2.00416 1.21929 0
M  V30 46 H -6.26893 -3.82481 1.45529 0
M  V30 47 H -5.33244 -3.04697 0.104419 0
M  V30 48 H -8.2774 -2.27523 -1.90734 0
M  V30 49 H -6.49715 -2.47283 -1.85864 0
M  V30 50 H -9.22256 -0.567647 -0.270717 0
M  V30 51 H -8.89448 1.72097 0.568705 0
M  V30 52 H -6.63083 2.7196 0.532513 0
M  V30 53 H -5.046 -0.797945 -1.15426 0
M  V30 54 H -3.68289 0.597333 -2.05034 0
M  V30 55 H -1.42001 1.64814 -2.08635 0
M  V30 56 H -2.50685 3.86951 1.40457 0
M  V30 57 H -4.72949 2.79436 1.37984 0
M  V30 58 H -0.29357 3.84792 0.721168 0
M  V30 59 H 2.47833 0.935915 -1.02597 0
M  V30 60 H 1.62631 2.68649 4.37834 0
M  V30 61 H 3.17848 3.5216 4.08913 0
M  V30 62 H 3.90803 -0.342046 -1.52542 0
M  V30 63 H 5.70213 -1.93293 -2.04869 0
M  V30 64 H 7.97421 -3.36599 0.452838 0
M  V30 65 H 7.18871 -3.71822 -1.08751 0
M  V30 66 H 8.71144 -1.88091 -2.14452 0
M  V30 67 H 9.87778 -3.98648 -0.501008 0
M  V30 68 H 9.17878 -4.15459 -2.02201 0
M  V30 69 H 9.39722 0.351269 0.813213 0
M  V30 70 H 7.24505 -1.59751 1.87873 0
M  V30 71 H 5.41263 0.0318895 2.41752 0
M  V30 END ATOM
M  V30 BEGIN BOND
M  V30 1 1 1 2
M  V30 2 1 2 3
M  V30 3 1 2 4
M  V30 4 1 4 5
M  V30 5 2 5 6
M  V30 6 1 6 7
M  V30 7 2 7 8
M  V30 8 1 8 9
M  V30 9 2 9 10
M  V30 10 1 9 11
M  V30 11 2 11 12
M  V30 12 1 12 13
M  V30 13 2 13 14
M  V30 14 1 14 15
M  V30 15 2 15 16
M  V30 16 1 14 17
M  V30 17 1 17 18
M  V30 18 1 18 19
M  V30 19 2 19 20
M  V30 20 1 20 21
M  V30 21 2 21 22
M  V30 22 1 22 23
M  V30 23 1 23 24
M  V30 24 2 23 25
M  V30 25 1 21 26
M  V30 26 2 26 27
M  V30 27 1 27 28
M  V30 28 2 28 29
M  V30 29 1 29 30
M  V30 30 1 30 31
M  V30 31 1 31 32
M  V30 32 1 31 33
M  V30 33 1 33 34
M  V30 34 2 33 35
M  V30 35 1 29 36
M  V30 36 2 36 37
M  V30 37 1 17 38
M  V30 38 1 38 39
M  V30 39 1 38 40
M  V30 40 1 38 41
M  V30 41 1 10 5
M  V30 42 1 16 11
M  V30 43 1 25 19
M  V30 44 1 37 26
M  V30 45 1 1 42
M  V30 46 1 1 43
M  V30 47 1 1 44
M  V30 48 1 3 45
M  V30 49 1 3 46
M  V30 50 1 3 47
M  V30 51 1 4 48
M  V30 52 1 4 49
M  V30 53 1 6 50
M  V30 54 1 7 51
M  V30 55 1 8 52
M  V30 56 1 10 53
M  V30 57 1 12 54
M  V30 58 1 13 55
M  V30 59 1 15 56
M  V30 60 1 16 57
M  V30 61 1 17 58 CFG=1
M  V30 62 1 20 59
M  V30 63 1 24 60
M  V30 64 1 24 61
M  V30 65 1 27 62
M  V30 66 1 28 63
M  V30 67 1 30 64
M  V30 68 1 30 65
M  V30 69 1 31 66 CFG=3
M  V30 70 1 32 67
M  V30 71 1 32 68
M  V30 72 1 34 69
M  V30 73 1 36 70
M  V30 74 1 37 71
M  V30 END BOND
M  V30 END CTAB
M  END
