
     RDKit          3D

  0  0  0  0  0  0  0  0  0  0999 V3000
M  V30 BEGIN CTAB
M  V30 COUNTS 23 23 0 0 0
M  V30 BEGIN ATOM
M  V30 1 N 3.45601 -0.500293 -0.339775 0
M  V30 2 C 3.0832 0.873762 -0.188278 0
M  V30 3 C 1.7494 0.953022 0.558779 0
M  V30 4 N 0.729338 0.254985 -0.188515 0
M  V30 5 C -0.590414 0.190268 0.311047 0
M  V30 6 N -1.08523 0.713643 1.45496 0
M  V30 7 N -2.37054 0.437042 1.56914 0
M  V30 8 C -2.75214 -0.277776 0.497896 0
M  V30 9 C -1.65613 -0.454725 -0.320654 0
M  V30 10 N -1.6434 -1.15516 -1.54983 0 CHG=1
M  V30 11 O -1.57206 -0.508317 -2.60151 0
M  V30 12 O -1.70931 -2.51699 -1.58477 0 CHG=-1
M  V30 13 N -4.05377 -0.777617 0.229665 0
M  V30 14 H 4.3392 -0.717117 0.127726 0
M  V30 15 H 2.65164 -1.10439 -0.145009 0
M  V30 16 H 2.92302 1.41009 -1.13811 0
M  V30 17 H 3.80909 1.46978 0.410111 0
M  V30 18 H 1.50143 2.05367 0.579576 0
M  V30 19 H 1.84894 0.518856 1.55686 0
M  V30 20 H 0.961318 -0.200285 -1.09256 0
M  V30 21 H -0.495573 1.26642 2.14685 0
M  V30 22 H -4.23305 -1.5456 -0.453309 0
M  V30 23 H -4.89097 -0.383268 0.71986 0
M  V30 END ATOM
M  V30 BEGIN BOND
M  V30 1 1 1 2
M  V30 2 1 2 3
M  V30 3 1 3 4
M  V30 4 1 4 5
M  V30 5 1 5 6
M  V30 6 1 6 7
M  V30 7 2 7 8
M  V30 8 1 8 9
M  V30 9 1 9 10
M  V30 10 2 10 11
M  V30 11 1 10 12
M  V30 12 1 8 13
M  V30 13 2 9 5
M  V30 14 1 1 14
M  V30 15 1 1 15
M  V30 16 1 2 16
M  V30 17 1 2 17
M  V30 18 1 3 18
M  V30 19 1 3 19
M  V30 20 1 4 20
M  V30 21 1 6 21
M  V30 22 1 13 22
M  V30 23 1 13 23
M  V30 END BOND
M  V30 END CTAB
M  END
