
     RDKit          3D

  0  0  0  0  0  0  0  0  0  0999 V3000
M  V30 BEGIN CTAB
M  V30 COUNTS 27 26 0 0 0
M  V30 BEGIN ATOM
M  V30 1 C 2.91591 0.742419 0.118272 0
M  V30 2 C 1.4585 0.986273 -0.217708 0
M  V30 3 C 0.661158 -0.157912 0.283208 0
M  V30 4 C -0.803394 -0.099916 0.0459661 0
M  V30 5 C -1.52222 1.05949 0.648205 0
M  V30 6 N -2.93044 0.936164 0.306253 0
M  V30 7 N -1.034 -0.067765 -1.39216 0
M  V30 8 C -1.41968 -1.34987 0.660034 0
M  V30 9 C 1.19401 -1.41706 -0.37417 0
M  V30 10 H 3.23509 1.41521 0.963942 0
M  V30 11 H 3.07401 -0.310097 0.353435 0
M  V30 12 H 3.52042 1.0709 -0.750543 0
M  V30 13 H 1.19552 1.96718 0.171277 0
M  V30 14 H 1.32341 1.04375 -1.33722 0
M  V30 15 H 0.820653 -0.26608 1.39048 0
M  V30 16 H -1.20222 2.04171 0.312072 0
M  V30 17 H -1.41187 1.0467 1.77268 0
M  V30 18 H -3.36437 1.87419 0.407668 0
M  V30 19 H -3.02904 0.659522 -0.688409 0
M  V30 20 H -1.8294 -0.674549 -1.66836 0
M  V30 21 H -0.164029 -0.254507 -1.91886 0
M  V30 22 H -1.4164 -2.20716 -0.0261493 0
M  V30 23 H -2.44575 -1.14453 1.05567 0
M  V30 24 H -0.807732 -1.60208 1.55162 0
M  V30 25 H 0.401499 -1.9674 -0.919217 0
M  V30 26 H 1.98155 -1.1939 -1.12487 0
M  V30 27 H 1.59882 -2.13067 0.376886 0
M  V30 END ATOM
M  V30 BEGIN BOND
M  V30 1 1 1 2
M  V30 2 1 2 3
M  V30 3 1 3 4
M  V30 4 1 4 5
M  V30 5 1 5 6
M  V30 6 1 4 7
M  V30 7 1 4 8
M  V30 8 1 3 9
M  V30 9 1 1 10
M  V30 10 1 1 11
M  V30 11 1 1 12
M  V30 12 1 2 13
M  V30 13 1 2 14
M  V30 14 1 3 15
M  V30 15 1 5 16
M  V30 16 1 5 17
M  V30 17 1 6 18
M  V30 18 1 6 19
M  V30 19 1 7 20
M  V30 20 1 7 21
M  V30 21 1 8 22
M  V30 22 1 8 23
M  V30 23 1 8 24
M  V30 24 1 9 25
M  V30 25 1 9 26
M  V30 26 1 9 27
M  V30 END BOND
M  V30 END CTAB
M  END
