
     RDKit          3D

  0  0  0  0  0  0  0  0  0  0999 V3000
M  V30 BEGIN CTAB
M  V30 COUNTS 33 35 0 0 0
M  V30 BEGIN ATOM
M  V30 1 N 5.69279 1.07166 -0.216974 0
M  V30 2 C 4.34316 0.59815 -0.0353599 0
M  V30 3 N 3.70588 -0.147935 -0.946665 0
M  V30 4 C 2.44582 -0.579989 -0.755712 0
M  V30 5 N 1.7819 -1.374 -1.74337 0
M  V30 6 C 1.7691 -0.261195 0.399008 0
M  V30 7 C 0.3867 -0.689591 0.706279 0
M  V30 8 C -0.613111 0.114823 -0.0301611 0
M  V30 9 C -0.252562 1.13412 -0.882155 0
M  V30 10 C -1.26387 1.843 -1.54116 0
M  V30 11 C -2.57684 1.49704 -1.31388 0
M  V30 12 C -2.91606 0.468608 -0.452376 0
M  V30 13 C -1.94628 -0.242541 0.206142 0
M  V30 14 C -2.2922 -1.26762 1.06911 0
M  V30 15 C -3.61293 -1.61921 1.30591 0
M  V30 16 C -4.58339 -0.902727 0.643368 0
M  V30 17 C -4.23535 0.112837 -0.211449 0
M  V30 18 C 2.42139 0.518435 1.36256 0
M  V30 19 N 3.6742 0.9042 1.08904 0
M  V30 20 H 6.46552 0.671897 0.371765 0
M  V30 21 H 5.84494 1.79788 -0.931059 0
M  V30 22 H 1.43191 -0.998388 -2.63085 0
M  V30 23 H 1.65817 -2.38679 -1.53086 0
M  V30 24 H 0.212227 -1.74938 0.405843 0
M  V30 25 H 0.198847 -0.623199 1.81697 0
M  V30 26 H 0.771157 1.41873 -1.06535 0
M  V30 27 H -1.01549 2.64375 -2.21278 0
M  V30 28 H -3.3741 2.0378 -1.81827 0
M  V30 29 H -1.52789 -1.8128 1.57528 0
M  V30 30 H -3.87661 -2.43097 1.99131 0
M  V30 31 H -5.61899 -1.18341 0.834737 0
M  V30 32 H -4.9976 0.666594 -0.724556 0
M  V30 33 H 1.89956 0.770218 2.2644 0
M  V30 END ATOM
M  V30 BEGIN BOND
M  V30 1 1 1 2
M  V30 2 2 2 3
M  V30 3 1 3 4
M  V30 4 1 4 5
M  V30 5 2 4 6
M  V30 6 1 6 7
M  V30 7 1 7 8
M  V30 8 2 8 9
M  V30 9 1 9 10
M  V30 10 2 10 11
M  V30 11 1 11 12
M  V30 12 2 12 13
M  V30 13 1 13 14
M  V30 14 2 14 15
M  V30 15 1 15 16
M  V30 16 2 16 17
M  V30 17 1 6 18
M  V30 18 2 18 19
M  V30 19 1 19 2
M  V30 20 1 13 8
M  V30 21 1 17 12
M  V30 22 1 1 20
M  V30 23 1 1 21
M  V30 24 1 5 22
M  V30 25 1 5 23
M  V30 26 1 7 24
M  V30 27 1 7 25
M  V30 28 1 9 26
M  V30 29 1 10 27
M  V30 30 1 11 28
M  V30 31 1 14 29
M  V30 32 1 15 30
M  V30 33 1 16 31
M  V30 34 1 17 32
M  V30 35 1 18 33
M  V30 END BOND
M  V30 END CTAB
M  END
