
     RDKit          3D

  0  0  0  0  0  0  0  0  0  0999 V3000
M  V30 BEGIN CTAB
M  V30 COUNTS 16 16 0 0 0
M  V30 BEGIN ATOM
M  V30 1 N -2.1564 -0.473363 5.56937e-05 0
M  V30 2 C -0.740877 -0.406331 -0.0125373 0
M  V30 3 C 0.0107378 -1.56088 -0.0829532 0
M  V30 4 Cl -0.806829 -3.13074 -0.157698 0
M  V30 5 C 1.38375 -1.47371 -0.0939532 0
M  V30 6 C 2.019 -0.248585 -0.0355873 0
M  V30 7 C 1.29821 0.926692 0.0355876 0
M  V30 8 C -0.0831089 0.824844 0.0458969 0
M  V30 9 N -0.87101 2.00531 0.118069 0
M  V30 10 F 1.88083 2.15006 0.0945003 0
M  V30 11 Cl 3.7743 -0.135311 -0.0495797 0
M  V30 12 H -2.67132 -0.213355 -0.861793 0
M  V30 13 H -2.65075 -0.774438 0.85049 0
M  V30 14 H 1.9469 -2.39707 -0.149823 0
M  V30 15 H -0.735083 2.68592 0.892377 0
M  V30 16 H -1.59835 2.22096 -0.593052 0
M  V30 END ATOM
M  V30 BEGIN BOND
M  V30 1 1 1 2
M  V30 2 2 2 3
M  V30 3 1 3 4
M  V30 4 1 3 5
M  V30 5 2 5 6
M  V30 6 1 6 7
M  V30 7 2 7 8
M  V30 8 1 8 9
M  V30 9 1 7 10
M  V30 10 1 6 11
M  V30 11 1 8 2
M  V30 12 1 1 12
M  V30 13 1 1 13
M  V30 14 1 5 14
M  V30 15 1 9 15
M  V30 16 1 9 16
M  V30 END BOND
M  V30 END CTAB
M  END
