
     RDKit          3D

  0  0  0  0  0  0  0  0  0  0999 V3000
M  V30 BEGIN CTAB
M  V30 COUNTS 25 25 0 0 0
M  V30 BEGIN ATOM
M  V30 1 O 4.5511 0.7118 -0.0600618 0
M  V30 2 C 4.06564 -0.535719 0.245819 0
M  V30 3 C 2.64493 -0.75813 -0.157026 0
M  V30 4 N 1.78698 0.202769 0.513965 0
M  V30 5 C 0.367587 0.192663 0.288631 0
M  V30 6 N -0.407499 1.08567 0.91563 0
M  V30 7 C -1.74268 1.12228 0.742184 0
M  V30 8 N -2.56705 2.07051 1.40777 0
M  V30 9 C -2.29526 0.185228 -0.124436 0
M  V30 10 C -1.49096 -0.725735 -0.761959 0
M  V30 11 N -0.152741 -0.718948 -0.551826 0
M  V30 12 N -2.0049 -1.70882 -1.6611 0
M  V30 13 N -3.70078 0.181368 -0.342389 0 CHG=1
M  V30 14 O -4.43276 1.00804 0.235735 0
M  V30 15 O -4.3002 -0.713975 -1.18126 0 CHG=-1
M  V30 16 H 3.88574 1.42924 -0.0503068 0
M  V30 17 H 4.71579 -1.28922 -0.276864 0
M  V30 18 H 4.13525 -0.73997 1.34842 0
M  V30 19 H 2.36857 -1.79625 0.138769 0
M  V30 20 H 2.5234 -0.704948 -1.25737 0
M  V30 21 H 2.20074 0.906076 1.16427 0
M  V30 22 H -3.09738 1.74831 2.23898 0
M  V30 23 H -2.66113 3.05375 1.10543 0
M  V30 24 H -2.19843 -2.66674 -1.26516 0
M  V30 25 H -2.19397 -1.53925 -2.65586 0
M  V30 END ATOM
M  V30 BEGIN BOND
M  V30 1 1 1 2
M  V30 2 1 2 3
M  V30 3 1 3 4
M  V30 4 1 4 5
M  V30 5 2 5 6
M  V30 6 1 6 7
M  V30 7 1 7 8
M  V30 8 2 7 9
M  V30 9 1 9 10
M  V30 10 2 10 11
M  V30 11 1 10 12
M  V30 12 1 9 13
M  V30 13 2 13 14
M  V30 14 1 13 15
M  V30 15 1 11 5
M  V30 16 1 1 16
M  V30 17 1 2 17
M  V30 18 1 2 18
M  V30 19 1 3 19
M  V30 20 1 3 20
M  V30 21 1 4 21
M  V30 22 1 8 22
M  V30 23 1 8 23
M  V30 24 1 12 24
M  V30 25 1 12 25
M  V30 END BOND
M  V30 END CTAB
M  END
