
     RDKit          3D

  0  0  0  0  0  0  0  0  0  0999 V3000
M  V30 BEGIN CTAB
M  V30 COUNTS 20 20 0 0 0
M  V30 BEGIN ATOM
M  V30 1 N 3.56378 1.90544 -0.83364 0
M  V30 2 C 2.68151 1.23986 -0.476643 0
M  V30 3 C 1.58394 0.414952 -0.0195895 0
M  V30 4 C 1.61206 -0.913397 0.340098 0
M  V30 5 N 2.77687 -1.75628 0.327966 0
M  V30 6 N 0.361765 -1.25308 0.69562 0
M  V30 7 N -0.463284 -0.235019 0.58834 0
M  V30 8 C 0.252216 0.800833 0.153307 0
M  V30 9 N -0.236639 2.10126 -0.10212 0
M  V30 10 C -1.90405 -0.241791 0.892151 0
M  V30 11 C -2.70394 -0.605735 -0.310611 0
M  V30 12 H 3.63742 -1.42984 -0.130853 0
M  V30 13 H 2.70577 -2.67686 0.789419 0
M  V30 14 H -0.440896 2.72842 0.699299 0
M  V30 15 H -0.375268 2.38548 -1.09097 0
M  V30 16 H -2.07902 -1.03323 1.66512 0
M  V30 17 H -2.18015 0.719813 1.35383 0
M  V30 18 H -2.07655 -1.16254 -1.03493 0
M  V30 19 H -3.16433 0.309207 -0.778113 0
M  V30 20 H -3.55121 -1.2975 -0.045826 0
M  V30 END ATOM
M  V30 BEGIN BOND
M  V30 1 3 1 2
M  V30 2 1 2 3
M  V30 3 1 3 4
M  V30 4 1 4 5
M  V30 5 2 4 6
M  V30 6 1 6 7
M  V30 7 1 7 8
M  V30 8 1 8 9
M  V30 9 1 7 10
M  V30 10 1 10 11
M  V30 11 2 8 3
M  V30 12 1 5 12
M  V30 13 1 5 13
M  V30 14 1 9 14
M  V30 15 1 9 15
M  V30 16 1 10 16
M  V30 17 1 10 17
M  V30 18 1 11 18
M  V30 19 1 11 19
M  V30 20 1 11 20
M  V30 END BOND
M  V30 END CTAB
M  END
