
     RDKit          3D

  0  0  0  0  0  0  0  0  0  0999 V3000
M  V30 BEGIN CTAB
M  V30 COUNTS 30 31 0 0 0
M  V30 BEGIN ATOM
M  V30 1 N 4.72966 -1.25052 1.102 0
M  V30 2 C 3.50676 -0.783815 0.52766 0
M  V30 3 C 3.49821 -0.0470389 -0.646179 0
M  V30 4 C 2.29423 0.396958 -1.18694 0
M  V30 5 C 1.08357 0.120891 -0.578388 0
M  V30 6 C 1.09693 -0.606674 0.580093 0
M  V30 7 C 2.28029 -1.05315 1.12767 0
M  V30 8 C -0.143597 0.63201 -1.22303 0
M  V30 9 O 0.0262005 1.95775 -1.6193 0
M  V30 10 C -1.32828 0.571597 -0.357914 0
M  V30 11 C -2.30386 -0.396772 -0.472953 0
M  V30 12 C -3.4077 -0.415913 0.366558 0
M  V30 13 N -4.42184 -1.42179 0.247653 0
M  V30 14 C -3.51744 0.561507 1.33214 0
M  V30 15 C -2.5709 1.53461 1.47398 0
M  V30 16 C -1.48368 1.52799 0.624167 0
M  V30 17 H 4.9706 -1.06585 2.10274 0
M  V30 18 H 5.39888 -1.79153 0.499877 0
M  V30 19 H 4.44835 0.165748 -1.11759 0
M  V30 20 H 2.35683 0.968382 -2.10695 0
M  V30 21 H 0.163366 -0.83677 1.07681 0
M  V30 22 H 2.31648 -1.62569 2.03574 0
M  V30 23 H -0.34859 0.0539308 -2.14602 0
M  V30 24 H 0.856229 2.29094 -1.19848 0
M  V30 25 H -2.22596 -1.1542 -1.21565 0
M  V30 26 H -4.10006 -2.41079 0.20042 0
M  V30 27 H -5.42613 -1.13125 0.213469 0
M  V30 28 H -4.36824 0.564372 1.99506 0
M  V30 29 H -2.63849 2.32217 2.23585 0
M  V30 30 H -0.741799 2.3229 0.764354 0
M  V30 END ATOM
M  V30 BEGIN BOND
M  V30 1 1 1 2
M  V30 2 2 2 3
M  V30 3 1 3 4
M  V30 4 2 4 5
M  V30 5 1 5 6
M  V30 6 2 6 7
M  V30 7 1 5 8
M  V30 8 1 8 9
M  V30 9 1 8 10
M  V30 10 2 10 11
M  V30 11 1 11 12
M  V30 12 1 12 13
M  V30 13 2 12 14
M  V30 14 1 14 15
M  V30 15 2 15 16
M  V30 16 1 7 2
M  V30 17 1 16 10
M  V30 18 1 1 17
M  V30 19 1 1 18
M  V30 20 1 3 19
M  V30 21 1 4 20
M  V30 22 1 6 21
M  V30 23 1 7 22
M  V30 24 1 8 23
M  V30 25 1 9 24
M  V30 26 1 11 25
M  V30 27 1 13 26
M  V30 28 1 13 27
M  V30 29 1 14 28
M  V30 30 1 15 29
M  V30 31 1 16 30
M  V30 END BOND
M  V30 END CTAB
M  END
