
     RDKit          3D

  0  0  0  0  0  0  0  0  0  0999 V3000
M  V30 BEGIN CTAB
M  V30 COUNTS 82 83 0 0 0
M  V30 BEGIN ATOM
M  V30 1 C -0.00380087 0.55602 0.532744 0 CFG=1
M  V30 2 C 0.00343908 1.77503 -0.333751 0
M  V30 3 C 1.28284 2.50154 -0.499132 0
M  V30 4 C 0.994154 3.7138 -1.40427 0
M  V30 5 N 0.0401696 4.59518 -0.802204 0
M  V30 6 C -0.379934 5.73301 -1.53118 0
M  V30 7 N -1.73225 6.11205 -1.52228 0
M  V30 8 N 0.474182 6.41274 -2.19624 0
M  V30 9 N -1.43377 0.124303 0.504116 0
M  V30 10 C -2.18029 -0.064985 1.6722 0
M  V30 11 O -1.65649 0.11422 2.78659 0
M  V30 12 C -3.61518 -0.487143 1.4796 0 CFG=2
M  V30 13 C -4.3006 0.409788 0.504782 0
M  V30 14 C -5.72326 0.00109961 0.312446 0
M  V30 15 C -6.75028 0.522144 1.06593 0
M  V30 16 C -8.06288 0.159141 0.896298 0
M  V30 17 C -8.35561 -0.767762 -0.0734793 0
M  V30 18 O -9.67911 -1.136 -0.247361 0
M  V30 19 C -7.35497 -1.32596 -0.863681 0
M  V30 20 C -6.05946 -0.929432 -0.653728 0
M  V30 21 N -4.27133 -0.700268 2.72341 0
M  V30 22 C -4.37557 0.155717 3.82506 0
M  V30 23 N -4.74704 -0.414747 5.09959 0
M  V30 24 N -4.16855 1.40617 3.80914 0
M  V30 25 C 0.73829 -0.58535 -0.0107864 0
M  V30 26 O 0.0230061 -1.61874 -0.33981 0
M  V30 27 N 2.14967 -0.685697 -0.208797 0
M  V30 28 C 2.6779 -1.9326 -0.727653 0 CFG=1
M  V30 29 C 2.85607 -1.98604 -2.20986 0
M  V30 30 C 3.76386 -0.99519 -2.78998 0
M  V30 31 C 5.10404 -1.20777 -3.00949 0
M  V30 32 C 5.92907 -0.233893 -3.58061 0
M  V30 33 C 5.42373 0.981835 -3.94667 0
M  V30 34 C 4.06872 1.21761 -3.7337 0
M  V30 35 C 3.28165 0.247949 -3.17251 0
M  V30 36 C 3.92509 -2.33304 -0.0593777 0
M  V30 37 O 4.39186 -1.51808 0.789529 0
M  V30 38 N 4.6095 -3.53571 -0.29905 0
M  V30 39 C 5.83063 -3.88481 0.382441 0
M  V30 40 C 5.6814 -3.99707 1.85049 0
M  V30 41 O 4.58491 -3.82742 2.42784 0
M  V30 42 O 6.77495 -4.30011 2.65907 0
M  V30 43 C 6.73022 -4.42507 4.0589 0
M  V30 44 H 0.275557 0.780862 1.58778 0
M  V30 45 H -0.768422 2.49633 0.0324539 0
M  V30 46 H -0.332164 1.46748 -1.36746 0
M  V30 47 H 1.65344 2.89367 0.480905 0
M  V30 48 H 2.10333 1.99 -0.978209 0
M  V30 49 H 1.94117 4.27809 -1.55163 0
M  V30 50 H 0.692548 3.36009 -2.39953 0
M  V30 51 H -0.346229 4.42927 0.156543 0
M  V30 52 H -2.05541 6.96347 -1.05322 0
M  V30 53 H -2.45071 5.52283 -2.00355 0
M  V30 54 H 1.46266 6.14644 -2.20977 0
M  V30 55 H -1.77976 -0.0127606 -0.46823 0
M  V30 56 H -3.52645 -1.50596 0.967636 0
M  V30 57 H -4.27721 1.47771 0.749315 0
M  V30 58 H -3.76707 0.263014 -0.487928 0
M  V30 59 H -6.48892 1.25714 1.82341 0
M  V30 60 H -8.86768 0.578368 1.49909 0
M  V30 61 H -10.2658 -0.61583 -0.903441 0
M  V30 62 H -7.62543 -2.04605 -1.60908 0
M  V30 63 H -5.2455 -1.34089 -1.2499 0
M  V30 64 H -4.76389 -1.64539 2.83992 0
M  V30 65 H -4.11777 -0.264125 5.8921 0
M  V30 66 H -5.628 -0.965671 5.20983 0
M  V30 67 H -3.8959 2.00487 3.01902 0
M  V30 68 H 2.78894 0.0856692 0.0216052 0
M  V30 69 H 1.88194 -2.71608 -0.485893 0
M  V30 70 H 3.2496 -3.02224 -2.44842 0
M  V30 71 H 1.88276 -1.90785 -2.75863 0
M  V30 72 H 5.52248 -2.1603 -2.74159 0
M  V30 73 H 6.98593 -0.459931 -3.73146 0
M  V30 74 H 6.02532 1.75994 -4.38987 0
M  V30 75 H 3.66132 2.17885 -4.02088 0
M  V30 76 H 2.21382 0.446885 -3.01176 0
M  V30 77 H 4.19976 -4.20658 -1.01513 0
M  V30 78 H 6.2327 -4.8337 -0.0366623 0
M  V30 79 H 6.61171 -3.11777 0.114397 0
M  V30 80 H 6.17567 -3.59996 4.5583 0
M  V30 81 H 6.3433 -5.39809 4.40586 0
M  V30 82 H 7.80936 -4.40826 4.39952 0
M  V30 END ATOM
M  V30 BEGIN BOND
M  V30 1 1 1 2
M  V30 2 1 2 3
M  V30 3 1 3 4
M  V30 4 1 4 5
M  V30 5 1 5 6
M  V30 6 1 6 7
M  V30 7 2 6 8 CFG=2
M  V30 8 1 1 9
M  V30 9 1 9 10
M  V30 10 2 10 11
M  V30 11 1 10 12
M  V30 12 1 12 13
M  V30 13 1 13 14
M  V30 14 2 14 15
M  V30 15 1 15 16
M  V30 16 2 16 17
M  V30 17 1 17 18
M  V30 18 1 17 19
M  V30 19 2 19 20
M  V30 20 1 12 21
M  V30 21 1 21 22
M  V30 22 1 22 23
M  V30 23 2 22 24 CFG=2
M  V30 24 1 1 25
M  V30 25 2 25 26
M  V30 26 1 25 27
M  V30 27 1 27 28
M  V30 28 1 28 29
M  V30 29 1 29 30
M  V30 30 2 30 31
M  V30 31 1 31 32
M  V30 32 2 32 33
M  V30 33 1 33 34
M  V30 34 2 34 35
M  V30 35 1 28 36
M  V30 36 2 36 37
M  V30 37 1 36 38
M  V30 38 1 38 39
M  V30 39 1 39 40
M  V30 40 2 40 41
M  V30 41 1 40 42
M  V30 42 1 42 43
M  V30 43 1 20 14
M  V30 44 1 35 30
M  V30 45 1 1 44 CFG=1
M  V30 46 1 2 45
M  V30 47 1 2 46
M  V30 48 1 3 47
M  V30 49 1 3 48
M  V30 50 1 4 49
M  V30 51 1 4 50
M  V30 52 1 5 51
M  V30 53 1 7 52
M  V30 54 1 7 53
M  V30 55 1 8 54
M  V30 56 1 9 55
M  V30 57 1 12 56 CFG=3
M  V30 58 1 13 57
M  V30 59 1 13 58
M  V30 60 1 15 59
M  V30 61 1 16 60
M  V30 62 1 18 61
M  V30 63 1 19 62
M  V30 64 1 20 63
M  V30 65 1 21 64
M  V30 66 1 23 65
M  V30 67 1 23 66
M  V30 68 1 24 67
M  V30 69 1 27 68
M  V30 70 1 28 69 CFG=3
M  V30 71 1 29 70
M  V30 72 1 29 71
M  V30 73 1 31 72
M  V30 74 1 32 73
M  V30 75 1 33 74
M  V30 76 1 34 75
M  V30 77 1 35 76
M  V30 78 1 38 77
M  V30 79 1 39 78
M  V30 80 1 39 79
M  V30 81 1 43 80
M  V30 82 1 43 81
M  V30 83 1 43 82
M  V30 END BOND
M  V30 END CTAB
M  END
