
     RDKit          3D

  0  0  0  0  0  0  0  0  0  0999 V3000
M  V30 BEGIN CTAB
M  V30 COUNTS 46 47 0 0 0
M  V30 BEGIN ATOM
M  V30 1 C -6.27719 0.879624 1.29921 0
M  V30 2 C -6.25576 0.380959 -0.108672 0
M  V30 3 C -4.86484 0.29356 -0.704131 0
M  V30 4 C -3.97581 -0.624572 0.0633051 0
M  V30 5 N -2.64426 -0.748702 -0.476217 0
M  V30 6 C -1.71767 0.295864 -0.626609 0
M  V30 7 O -2.05848 1.45669 -0.258354 0
M  V30 8 C -0.362297 0.116594 -1.19185 0
M  V30 9 C 0.394148 1.43863 -1.23619 0
M  V30 10 C 1.77954 0.900264 -1.50252 0
M  V30 11 O 2.62427 1.37841 -2.28537 0
M  V30 12 N 1.87775 -0.246083 -0.668105 0
M  V30 13 C 0.535762 -0.75266 -0.341323 0
M  V30 14 C 3.11007 -0.800583 -0.231146 0
M  V30 15 C 3.12288 -2.10432 0.250438 0
M  V30 16 C 4.28546 -2.7107 0.693971 0
M  V30 17 C 5.4527 -1.98799 0.649936 0
M  V30 18 C 5.49601 -0.690319 0.181235 0
M  V30 19 C 4.30212 -0.120883 -0.254757 0
M  V30 20 S 7.00135 0.200967 0.136787 0
M  V30 21 O 6.97993 1.23687 -0.970948 0
M  V30 22 O 8.12494 -0.75631 -0.116885 0
M  V30 23 N 7.23904 1.07236 1.61919 0
M  V30 24 N -7.03325 1.30958 -0.928149 0
M  V30 25 H -7.07655 1.61002 1.42101 0
M  V30 26 H -5.32104 1.36647 1.61511 0
M  V30 27 H -6.5309 0.0317794 1.9963 0
M  V30 28 H -6.78974 -0.58002 -0.155412 0
M  V30 29 H -5.00018 -0.0542289 -1.75637 0
M  V30 30 H -4.4175 1.30348 -0.734089 0
M  V30 31 H -4.46166 -1.63365 0.0552818 0
M  V30 32 H -3.87149 -0.293786 1.11897 0
M  V30 33 H -2.29158 -1.70604 -0.80434 0
M  V30 34 H -0.439389 -0.250167 -2.21496 0
M  V30 35 H 0.0498798 2.09305 -2.03936 0
M  V30 36 H 0.453672 1.91025 -0.240242 0
M  V30 37 H 0.350554 -0.638019 0.736309 0
M  V30 38 H 0.508135 -1.78482 -0.702092 0
M  V30 39 H 2.22838 -2.7048 0.301972 0
M  V30 40 H 4.33083 -3.71955 1.07297 0
M  V30 41 H 6.38683 -2.44381 0.994975 0
M  V30 42 H 4.34701 0.877367 -0.611307 0
M  V30 43 H 6.36242 1.653 1.75721 0
M  V30 44 H 8.00013 1.78602 1.43225 0
M  V30 45 H -6.47751 1.70247 -1.71589 0
M  V30 46 H -7.4767 2.05774 -0.370404 0
M  V30 END ATOM
M  V30 BEGIN BOND
M  V30 1 1 1 2
M  V30 2 1 2 3
M  V30 3 1 3 4
M  V30 4 1 4 5
M  V30 5 1 5 6
M  V30 6 2 6 7
M  V30 7 1 6 8
M  V30 8 1 8 9
M  V30 9 1 9 10
M  V30 10 2 10 11
M  V30 11 1 10 12
M  V30 12 1 12 13
M  V30 13 1 12 14
M  V30 14 2 14 15
M  V30 15 1 15 16
M  V30 16 2 16 17
M  V30 17 1 17 18
M  V30 18 2 18 19
M  V30 19 1 18 20
M  V30 20 2 20 21
M  V30 21 2 20 22
M  V30 22 1 20 23
M  V30 23 1 2 24
M  V30 24 1 13 8
M  V30 25 1 19 14
M  V30 26 1 1 25
M  V30 27 1 1 26
M  V30 28 1 1 27
M  V30 29 1 2 28
M  V30 30 1 3 29
M  V30 31 1 3 30
M  V30 32 1 4 31
M  V30 33 1 4 32
M  V30 34 1 5 33
M  V30 35 1 8 34
M  V30 36 1 9 35
M  V30 37 1 9 36
M  V30 38 1 13 37
M  V30 39 1 13 38
M  V30 40 1 15 39
M  V30 41 1 16 40
M  V30 42 1 17 41
M  V30 43 1 19 42
M  V30 44 1 23 43
M  V30 45 1 23 44
M  V30 46 1 24 45
M  V30 47 1 24 46
M  V30 END BOND
M  V30 END CTAB
M  END
