
     RDKit          3D

  0  0  0  0  0  0  0  0  0  0999 V3000
M  V30 BEGIN CTAB
M  V30 COUNTS 35 36 0 0 0
M  V30 BEGIN ATOM
M  V30 1 C 0.806093 -2.54086 2.02563 0
M  V30 2 C -0.38632 -1.77553 1.46946 0
M  V30 3 C -0.111429 -1.21529 0.115095 0
M  V30 4 C -1.28188 -0.478452 -0.408474 0
M  V30 5 C -1.66638 -0.602421 -1.7271 0
M  V30 6 C -2.7484 0.0700675 -2.25266 0
M  V30 7 C -3.49983 0.911355 -1.45052 0
M  V30 8 N -4.62971 1.62268 -1.9707 0
M  V30 9 C -3.10809 1.02868 -0.135283 0
M  V30 10 C -2.02545 0.35605 0.391224 0
M  V30 11 C 1.10017 -0.358628 0.0735413 0
M  V30 12 C 1.9289 -0.321024 -1.00983 0
M  V30 13 C 3.05295 0.477343 -1.04247 0
M  V30 14 C 3.39497 1.28856 0.0401264 0
M  V30 15 N 4.5488 2.11749 0.0244596 0
M  V30 16 C 2.55609 1.25513 1.14575 0
M  V30 17 C 1.43512 0.448814 1.15881 0
M  V30 18 H 1.40475 -1.80665 2.62533 0
M  V30 19 H 0.484565 -3.32148 2.72762 0
M  V30 20 H 1.41188 -2.9966 1.24154 0
M  V30 21 H -0.727929 -0.996244 2.17161 0
M  V30 22 H -1.21298 -2.51848 1.41303 0
M  V30 23 H 0.0735161 -2.084 -0.568191 0
M  V30 24 H -1.10728 -1.24851 -2.38646 0
M  V30 25 H -3.06189 -0.0161354 -3.28147 0
M  V30 26 H -5.3667 1.12652 -2.53128 0
M  V30 27 H -4.72148 2.65428 -1.78856 0
M  V30 28 H -3.71847 1.70312 0.488418 0
M  V30 29 H -1.81328 0.527263 1.43136 0
M  V30 30 H 1.70304 -0.932673 -1.87085 0
M  V30 31 H 3.7098 0.512093 -1.89181 0
M  V30 32 H 4.55956 3.09208 -0.298583 0
M  V30 33 H 5.43905 1.6956 0.366866 0
M  V30 34 H 2.77246 1.86702 2.0206 0
M  V30 35 H 0.805783 0.458834 2.05589 0
M  V30 END ATOM
M  V30 BEGIN BOND
M  V30 1 1 1 2
M  V30 2 1 2 3
M  V30 3 1 3 4
M  V30 4 2 4 5
M  V30 5 1 5 6
M  V30 6 2 6 7
M  V30 7 1 7 8
M  V30 8 1 7 9
M  V30 9 2 9 10
M  V30 10 1 3 11
M  V30 11 2 11 12
M  V30 12 1 12 13
M  V30 13 2 13 14
M  V30 14 1 14 15
M  V30 15 1 14 16
M  V30 16 2 16 17
M  V30 17 1 10 4
M  V30 18 1 17 11
M  V30 19 1 1 18
M  V30 20 1 1 19
M  V30 21 1 1 20
M  V30 22 1 2 21
M  V30 23 1 2 22
M  V30 24 1 3 23
M  V30 25 1 5 24
M  V30 26 1 6 25
M  V30 27 1 8 26
M  V30 28 1 8 27
M  V30 29 1 9 28
M  V30 30 1 10 29
M  V30 31 1 12 30
M  V30 32 1 13 31
M  V30 33 1 15 32
M  V30 34 1 15 33
M  V30 35 1 16 34
M  V30 36 1 17 35
M  V30 END BOND
M  V30 END CTAB
M  END
