
     RDKit          3D

  0  0  0  0  0  0  0  0  0  0999 V3000
M  V30 BEGIN CTAB
M  V30 COUNTS 21 21 0 0 0
M  V30 BEGIN ATOM
M  V30 1 C 4.36301 1.51919 -0.18106 0
M  V30 2 C 3.34425 0.877179 -0.0479107 0
M  V30 3 C 2.1448 0.109203 0.125963 0
M  V30 4 C 2.20117 -1.27851 0.122396 0
M  V30 5 C 1.01857 -1.96927 0.293775 0
M  V30 6 C -0.170722 -1.29275 0.46134 0
M  V30 7 C -0.225976 0.0909302 0.463902 0
M  V30 8 C 0.968124 0.803846 0.291368 0
M  V30 9 N -1.40906 0.845579 0.619443 0
M  V30 10 C -2.43786 0.621099 -0.0765512 0
M  V30 11 N -2.39726 -0.436534 -1.0571 0
M  V30 12 N -3.65582 1.31787 0.0128363 0
M  V30 13 H 5.24753 2.09091 -0.287977 0
M  V30 14 H 3.14166 -1.80318 -0.0137203 0
M  V30 15 H 1.05943 -3.0539 0.292643 0
M  V30 16 H -1.10341 -1.85926 0.606178 0
M  V30 17 H 0.920355 1.88306 0.294864 0
M  V30 18 H -1.81326 -0.350448 -1.91711 0
M  V30 19 H -2.99142 -1.26738 -0.825774 0
M  V30 20 H -3.78288 2.19467 -0.513457 0
M  V30 21 H -4.42123 0.957699 0.601689 0
M  V30 END ATOM
M  V30 BEGIN BOND
M  V30 1 3 1 2
M  V30 2 1 2 3
M  V30 3 2 3 4
M  V30 4 1 4 5
M  V30 5 2 5 6
M  V30 6 1 6 7
M  V30 7 2 7 8
M  V30 8 1 7 9
M  V30 9 2 9 10 CFG=2
M  V30 10 1 10 11
M  V30 11 1 10 12
M  V30 12 1 8 3
M  V30 13 1 1 13
M  V30 14 1 4 14
M  V30 15 1 5 15
M  V30 16 1 6 16
M  V30 17 1 8 17
M  V30 18 1 11 18
M  V30 19 1 11 19
M  V30 20 1 12 20
M  V30 21 1 12 21
M  V30 END BOND
M  V30 END CTAB
M  END
