
     RDKit          3D

  0  0  0  0  0  0  0  0  0  0999 V3000
M  V30 BEGIN CTAB
M  V30 COUNTS 55 59 0 0 0
M  V30 BEGIN ATOM
M  V30 1 N -6.22353 0.624663 -1.4918 0
M  V30 2 C -5.99209 1.73111 -0.692061 0 CFG=1
M  V30 3 C -7.31776 2.18283 -0.0669008 0
M  V30 4 O -7.11202 3.30096 0.7467 0
M  V30 5 C -5.03816 1.55958 0.422733 0
M  V30 6 O -4.82322 2.59244 1.17106 0
M  V30 7 N -4.33783 0.39242 0.758202 0
M  V30 8 C -4.43648 -0.855185 0.0531921 0
M  V30 9 C -3.45232 -1.89019 0.625178 0
M  V30 10 N -2.17386 -1.24553 0.6598 0
M  V30 11 C -2.069 -0.0455307 1.51165 0
M  V30 12 C -3.42976 0.423654 1.91461 0
M  V30 13 C -1.05372 -1.70712 -0.0697291 0
M  V30 14 N 0.153701 -1.07569 0.0587429 0
M  V30 15 C 1.24882 -1.47237 -0.610386 0
M  V30 16 C 1.18664 -2.55156 -1.46543 0
M  V30 17 C 2.34255 -2.91575 -2.12621 0
M  V30 18 C 3.51782 -2.22326 -1.93666 0
M  V30 19 C 3.61207 -1.141 -1.08929 0
M  V30 20 C 2.46093 -0.778748 -0.431684 0
M  V30 21 C 4.88405 -0.430017 -0.914506 0
M  V30 22 C 5.7939 -0.329604 -1.94327 0
M  V30 23 C 6.99012 0.328807 -1.81016 0
M  V30 24 C 7.28738 0.911827 -0.593102 0
M  V30 25 O 8.34395 1.58262 -0.223805 0
M  V30 26 C 8.16405 1.9315 1.02024 0
M  V30 27 N 9.13469 2.68546 1.74817 0
M  V30 28 N 6.98329 1.49419 1.48881 0
M  V30 29 C 6.40941 0.836773 0.461155 0
M  V30 30 C 5.21744 0.166295 0.287613 0
M  V30 31 N 0.0292208 -3.19864 -1.6226 0
M  V30 32 C -1.06751 -2.77196 -0.928724 0
M  V30 33 H -7.02547 0.0533359 -1.35871 0
M  V30 34 H -5.68655 0.545416 -2.33665 0
M  V30 35 H -5.62033 2.60765 -1.29977 0
M  V30 36 H -7.68535 1.36088 0.580183 0
M  V30 37 H -8.08767 2.37649 -0.822321 0
M  V30 38 H -7.78552 4.01838 0.550939 0
M  V30 39 H -5.45792 -1.28379 0.0179899 0
M  V30 40 H -4.09891 -0.705013 -0.983744 0
M  V30 41 H -3.8096 -2.04089 1.68611 0
M  V30 42 H -3.53318 -2.7845 0.0280657 0
M  V30 43 H -1.52379 -0.372491 2.41456 0
M  V30 44 H -1.56537 0.772251 0.964363 0
M  V30 45 H -3.3359 1.45293 2.31117 0
M  V30 46 H -3.91444 -0.224259 2.68089 0
M  V30 47 H 2.27838 -3.76155 -2.79128 0
M  V30 48 H 4.43571 -2.52079 -2.46797 0
M  V30 49 H 2.47368 0.0733245 0.254982 0
M  V30 50 H 5.52596 -0.80057 -2.88647 0
M  V30 51 H 7.70109 0.393876 -2.65165 0
M  V30 52 H 8.83022 3.36397 2.47613 0
M  V30 53 H 10.1526 2.5828 1.57806 0
M  V30 54 H 4.51727 0.0946987 1.09495 0
M  V30 55 H -2.01771 -3.31515 -1.06979 0
M  V30 END ATOM
M  V30 BEGIN BOND
M  V30 1 1 1 2
M  V30 2 1 2 3
M  V30 3 1 3 4
M  V30 4 1 2 5
M  V30 5 2 5 6
M  V30 6 1 5 7
M  V30 7 1 7 8
M  V30 8 1 8 9
M  V30 9 1 9 10
M  V30 10 1 10 11
M  V30 11 1 11 12
M  V30 12 1 10 13
M  V30 13 2 13 14
M  V30 14 1 14 15
M  V30 15 2 15 16
M  V30 16 1 16 17
M  V30 17 2 17 18
M  V30 18 1 18 19
M  V30 19 2 19 20
M  V30 20 1 19 21
M  V30 21 2 21 22
M  V30 22 1 22 23
M  V30 23 2 23 24
M  V30 24 1 24 25
M  V30 25 1 25 26
M  V30 26 1 26 27
M  V30 27 2 26 28
M  V30 28 1 28 29
M  V30 29 2 29 30
M  V30 30 1 16 31
M  V30 31 2 31 32
M  V30 32 1 12 7
M  V30 33 1 32 13
M  V30 34 1 20 15
M  V30 35 1 30 21
M  V30 36 1 29 24
M  V30 37 1 1 33
M  V30 38 1 1 34
M  V30 39 1 2 35 CFG=3
M  V30 40 1 3 36
M  V30 41 1 3 37
M  V30 42 1 4 38
M  V30 43 1 8 39
M  V30 44 1 8 40
M  V30 45 1 9 41
M  V30 46 1 9 42
M  V30 47 1 11 43
M  V30 48 1 11 44
M  V30 49 1 12 45
M  V30 50 1 12 46
M  V30 51 1 17 47
M  V30 52 1 18 48
M  V30 53 1 20 49
M  V30 54 1 22 50
M  V30 55 1 23 51
M  V30 56 1 27 52
M  V30 57 1 27 53
M  V30 58 1 30 54
M  V30 59 1 32 55
M  V30 END BOND
M  V30 END CTAB
M  END
