
     RDKit          3D

  0  0  0  0  0  0  0  0  0  0999 V3000
M  V30 BEGIN CTAB
M  V30 COUNTS 39 40 0 0 0
M  V30 BEGIN ATOM
M  V30 1 N -3.77418 -1.27551 1.14772 0
M  V30 2 C -3.50236 -1.37235 -0.22091 0
M  V30 3 C -2.03879 -1.2597 -0.537678 0
M  V30 4 N -1.46242 -0.0151517 -0.110279 0
M  V30 5 C -1.93523 1.06083 -0.837218 0
M  V30 6 C -1.48451 2.42045 -0.44268 0
M  V30 7 C -0.327894 2.51443 0.492296 0
M  V30 8 C 0.969056 1.96329 -0.017173 0
M  V30 9 C 0.964153 0.530084 -0.40206 0 CFG=2
M  V30 10 C -0.173064 -0.166475 0.355857 0
M  V30 11 C 2.17697 -0.170544 0.0724103 0
M  V30 12 C 2.93218 0.194823 1.1463 0
M  V30 13 C 4.02389 -0.571084 1.57668 0
M  V30 14 C 4.29073 -1.70858 0.857448 0
M  V30 15 N 3.55035 -2.07447 -0.203335 0
M  V30 16 C 2.50661 -1.32382 -0.602857 0
M  V30 17 N 1.79597 -1.75968 -1.75144 0
M  V30 18 H -3.10535 -1.04263 1.80995 0
M  V30 19 H -4.50708 -1.87561 1.46517 0
M  V30 20 H -4.11944 -0.675719 -0.817678 0
M  V30 21 H -3.79696 -2.41154 -0.544415 0
M  V30 22 H -1.47922 -2.14372 -0.107156 0
M  V30 23 H -1.95092 -1.39018 -1.62699 0
M  V30 24 H -1.82128 0.890684 -1.93666 0
M  V30 25 H -3.07318 1.06152 -0.701048 0
M  V30 26 H -2.30748 3.03204 0.0236194 0
M  V30 27 H -1.22682 2.98295 -1.36659 0
M  V30 28 H -0.126342 3.62695 0.631653 0
M  V30 29 H -0.525842 2.17126 1.53117 0
M  V30 30 H 1.24291 2.57319 -0.938275 0
M  V30 31 H 1.74827 2.2536 0.705987 0
M  V30 32 H 0.849299 0.406427 -1.47983 0
M  V30 33 H -0.102214 0.171435 1.43396 0
M  V30 34 H 0.135253 -1.24951 0.401768 0
M  V30 35 H 2.75374 1.07224 1.74019 0
M  V30 36 H 4.64278 -0.320148 2.40984 0
M  V30 37 H 5.15311 -2.32298 1.16099 0
M  V30 38 H 1.97475 -1.25653 -2.6397 0
M  V30 39 H 1.13058 -2.54028 -1.67904 0
M  V30 END ATOM
M  V30 BEGIN BOND
M  V30 1 1 1 2
M  V30 2 1 2 3
M  V30 3 1 3 4
M  V30 4 1 4 5
M  V30 5 1 5 6
M  V30 6 1 6 7
M  V30 7 1 7 8
M  V30 8 1 8 9
M  V30 9 1 9 10
M  V30 10 1 9 11
M  V30 11 2 11 12
M  V30 12 1 12 13
M  V30 13 2 13 14
M  V30 14 1 14 15
M  V30 15 2 15 16
M  V30 16 1 16 17
M  V30 17 1 10 4
M  V30 18 1 16 11
M  V30 19 1 1 18
M  V30 20 1 1 19
M  V30 21 1 2 20
M  V30 22 1 2 21
M  V30 23 1 3 22
M  V30 24 1 3 23
M  V30 25 1 5 24
M  V30 26 1 5 25
M  V30 27 1 6 26
M  V30 28 1 6 27
M  V30 29 1 7 28
M  V30 30 1 7 29
M  V30 31 1 8 30
M  V30 32 1 8 31
M  V30 33 1 9 32 CFG=3
M  V30 34 1 10 33
M  V30 35 1 10 34
M  V30 36 1 12 35
M  V30 37 1 13 36
M  V30 38 1 14 37
M  V30 39 1 17 38
M  V30 40 1 17 39
M  V30 END BOND
M  V30 END CTAB
M  END
