
     RDKit          3D

  0  0  0  0  0  0  0  0  0  0999 V3000
M  V30 BEGIN CTAB
M  V30 COUNTS 50 53 0 0 0
M  V30 BEGIN ATOM
M  V30 1 N -6.14434 3.064 1.8742 0
M  V30 2 C -4.85519 2.48953 1.68995 0
M  V30 3 N -4.71924 1.44853 0.851908 0
M  V30 4 C -3.51012 0.855595 0.633669 0
M  V30 5 C -3.34269 -0.281152 -0.262015 0
M  V30 6 C -4.67019 -0.661327 -0.938292 0
M  V30 7 C -4.12636 -1.74107 -1.8832 0
M  V30 8 C -2.71155 -1.27772 -2.07147 0
M  V30 9 O -2.55649 -0.070153 -1.37297 0
M  V30 10 C -2.42333 1.35799 1.30197 0
M  V30 11 C -2.54912 2.44151 2.17846 0
M  V30 12 N -1.37582 2.90697 2.82934 0
M  V30 13 N -3.77101 2.98967 2.35647 0
M  V30 14 C -1.11956 0.764081 1.08658 0
M  V30 15 C -0.754794 -0.465174 1.57364 0
M  V30 16 C 0.519893 -0.968794 1.34832 0
M  V30 17 C 1.44652 -0.23591 0.625979 0
M  V30 18 N 2.73808 -0.788479 0.411307 0
M  V30 19 C 3.7302 0.0239666 -0.262328 0
M  V30 20 C 4.98485 -0.74185 -0.49158 0
M  V30 21 C 5.58115 -0.801269 -1.70854 0
M  V30 22 C 6.74293 -1.54158 -1.85408 0
M  V30 23 C 7.27858 -2.20751 -0.765541 0
M  V30 24 Cl 8.75058 -3.15415 -0.94455 0
M  V30 25 C 6.66983 -2.14464 0.46924 0
M  V30 26 C 5.513 -1.40541 0.608178 0
M  V30 27 C 1.10077 0.99826 0.129068 0
M  V30 28 C -0.181198 1.48864 0.363157 0
M  V30 29 H -6.82643 2.67918 2.5703 0
M  V30 30 H -6.48771 3.89486 1.33375 0
M  V30 31 H -3.01933 -1.21782 0.281608 0
M  V30 32 H -5.02472 0.167471 -1.59139 0
M  V30 33 H -5.40963 -1.03828 -0.234942 0
M  V30 34 H -4.69493 -1.82225 -2.80939 0
M  V30 35 H -4.09178 -2.66805 -1.28782 0
M  V30 36 H -1.97232 -2.02243 -1.65458 0
M  V30 37 H -2.45413 -1.16337 -3.14354 0
M  V30 38 H -1.08271 2.54415 3.75641 0
M  V30 39 H -0.802449 3.62039 2.36873 0
M  V30 40 H -1.48523 -1.02583 2.13248 0
M  V30 41 H 0.834477 -1.93729 1.71939 0
M  V30 42 H 2.96425 -1.77414 0.743235 0
M  V30 43 H 3.38446 0.425518 -1.2218 0
M  V30 44 H 3.9496 0.884617 0.406534 0
M  V30 45 H 5.17251 -0.283028 -2.57058 0
M  V30 46 H 7.26723 -1.62795 -2.80069 0
M  V30 47 H 7.10683 -2.6692 1.28984 0
M  V30 48 H 5.02665 -1.34458 1.56047 0
M  V30 49 H 1.82042 1.57403 -0.435485 0
M  V30 50 H -0.42046 2.46142 -0.042727 0
M  V30 END ATOM
M  V30 BEGIN BOND
M  V30 1 1 1 2
M  V30 2 2 2 3
M  V30 3 1 3 4
M  V30 4 1 4 5
M  V30 5 1 5 6
M  V30 6 1 6 7
M  V30 7 1 7 8
M  V30 8 1 8 9
M  V30 9 2 4 10
M  V30 10 1 10 11
M  V30 11 1 11 12
M  V30 12 2 11 13
M  V30 13 1 10 14
M  V30 14 2 14 15
M  V30 15 1 15 16
M  V30 16 2 16 17
M  V30 17 1 17 18
M  V30 18 1 18 19
M  V30 19 1 19 20
M  V30 20 2 20 21
M  V30 21 1 21 22
M  V30 22 2 22 23
M  V30 23 1 23 24
M  V30 24 1 23 25
M  V30 25 2 25 26
M  V30 26 1 17 27
M  V30 27 2 27 28
M  V30 28 1 13 2
M  V30 29 1 28 14
M  V30 30 1 9 5
M  V30 31 1 26 20
M  V30 32 1 1 29
M  V30 33 1 1 30
M  V30 34 1 5 31
M  V30 35 1 6 32
M  V30 36 1 6 33
M  V30 37 1 7 34
M  V30 38 1 7 35
M  V30 39 1 8 36
M  V30 40 1 8 37
M  V30 41 1 12 38
M  V30 42 1 12 39
M  V30 43 1 15 40
M  V30 44 1 16 41
M  V30 45 1 18 42
M  V30 46 1 19 43
M  V30 47 1 19 44
M  V30 48 1 21 45
M  V30 49 1 22 46
M  V30 50 1 25 47
M  V30 51 1 26 48
M  V30 52 1 27 49
M  V30 53 1 28 50
M  V30 END BOND
M  V30 END CTAB
M  END
