
     RDKit          3D

  0  0  0  0  0  0  0  0  0  0999 V3000
M  V30 BEGIN CTAB
M  V30 COUNTS 19 19 0 0 0
M  V30 BEGIN ATOM
M  V30 1 N 3.39036 0.798806 0.352678 0
M  V30 2 C 2.19415 0.347287 0.916283 0
M  V30 3 S 2.09241 0.323178 2.56435 0
M  V30 4 C 1.02856 -0.104131 0.185281 0
M  V30 5 C 1.24521 -0.819214 -0.976382 0
M  V30 6 C 0.122699 -1.24122 -1.65968 0
M  V30 7 C -1.13678 -0.945279 -1.17682 0
M  V30 8 C -1.33094 -0.223096 -0.00366508 0
M  V30 9 N -0.220182 0.17311 0.637762 0
M  V30 10 C -2.67123 0.0602975 0.458983 0
M  V30 11 N -2.93551 1.29322 1.09502 0
M  V30 12 S -3.88882 -0.996373 0.271 0
M  V30 13 H 4.00594 0.129295 -0.145266 0
M  V30 14 H 3.68857 1.78924 0.414543 0
M  V30 15 H 2.25877 -1.02107 -1.30604 0
M  V30 16 H 0.269222 -1.80345 -2.57298 0
M  V30 17 H -2.03568 -1.27024 -1.70297 0
M  V30 18 H -2.60473 1.48397 2.06486 0
M  V30 19 H -3.47203 2.02567 0.583044 0
M  V30 END ATOM
M  V30 BEGIN BOND
M  V30 1 1 1 2
M  V30 2 2 2 3
M  V30 3 1 2 4
M  V30 4 2 4 5
M  V30 5 1 5 6
M  V30 6 2 6 7
M  V30 7 1 7 8
M  V30 8 2 8 9
M  V30 9 1 8 10
M  V30 10 1 10 11
M  V30 11 2 10 12
M  V30 12 1 9 4
M  V30 13 1 1 13
M  V30 14 1 1 14
M  V30 15 1 5 15
M  V30 16 1 6 16
M  V30 17 1 7 17
M  V30 18 1 11 18
M  V30 19 1 11 19
M  V30 END BOND
M  V30 END CTAB
M  END
