
     RDKit          3D

  0  0  0  0  0  0  0  0  0  0999 V3000
M  V30 BEGIN CTAB
M  V30 COUNTS 44 47 0 0 0
M  V30 BEGIN ATOM
M  V30 1 Cl -10.5529 -0.30861 0.471494 0
M  V30 2 C -8.82576 -0.0361738 0.427299 0
M  V30 3 C -7.97431 -0.949851 1.00686 0
M  V30 4 C -6.57949 -0.789911 1.00559 0
M  V30 5 C -6.06615 0.321174 0.400234 0
M  V30 6 C -6.90561 1.27734 -0.202308 0
M  V30 7 C -8.24699 1.06348 -0.166132 0
M  V30 8 N -4.68408 0.544367 0.323493 0
M  V30 9 C -3.75274 -0.500376 0.302789 0
M  V30 10 O -4.04576 -1.67938 0.338715 0
M  V30 11 C -2.32264 -0.105167 0.232025 0
M  V30 12 S -1.72073 1.48294 0.174596 0
M  V30 13 C -0.0535204 1.06683 0.109331 0
M  V30 14 C 0.0065202 -0.294075 0.133193 0
M  V30 15 C -1.24184 -0.919833 0.20032 0
M  V30 16 N -1.49114 -2.36186 0.239359 0
M  V30 17 C 1.30381 -0.812615 0.0862833 0
M  V30 18 C 2.30485 0.0843927 0.0248333 0
M  V30 19 S 1.58608 1.61285 0.0266433 0
M  V30 20 C 3.77015 -0.161462 -0.0345358 0
M  V30 21 O 4.17568 -1.32258 -0.0296193 0
M  V30 22 N 4.5986 0.943498 -0.0923398 0
M  V30 23 C 6.00428 0.939008 -0.146865 0
M  V30 24 C 6.64294 2.11682 -0.556403 0
M  V30 25 C 8.0017 2.17104 -0.610648 0
M  V30 26 C 8.76799 1.07752 -0.266606 0
M  V30 27 C 8.18555 -0.0948408 0.139945 0
M  V30 28 C 6.79715 -0.128196 0.188329 0
M  V30 29 Cl 10.5158 1.19809 -0.354082 0
M  V30 30 N 1.67827 -2.2265 0.0973389 0
M  V30 31 H -8.34062 -1.84598 1.49727 0
M  V30 32 H -5.98269 -1.55611 1.50772 0
M  V30 33 H -6.49919 2.14552 -0.674057 0
M  V30 34 H -8.94235 1.77727 -0.620407 0
M  V30 35 H -4.37948 1.56494 0.284761 0
M  V30 36 H -1.22917 -2.97509 -0.553099 0
M  V30 37 H -1.93767 -2.79386 1.06857 0
M  V30 38 H 4.12462 1.90265 -0.0908093 0
M  V30 39 H 6.03629 2.97635 -0.827642 0
M  V30 40 H 8.52633 3.07502 -0.92589 0
M  V30 41 H 8.76794 -0.972941 0.417119 0
M  V30 42 H 6.35604 -1.07684 0.530812 0
M  V30 43 H 2.10961 -2.63501 -0.747268 0
M  V30 44 H 1.51469 -2.79386 0.925158 0
M  V30 END ATOM
M  V30 BEGIN BOND
M  V30 1 1 1 2
M  V30 2 2 2 3
M  V30 3 1 3 4
M  V30 4 2 4 5
M  V30 5 1 5 6
M  V30 6 2 6 7
M  V30 7 1 5 8
M  V30 8 1 8 9
M  V30 9 2 9 10
M  V30 10 1 9 11
M  V30 11 1 11 12
M  V30 12 1 12 13
M  V30 13 2 13 14
M  V30 14 1 14 15
M  V30 15 1 15 16
M  V30 16 1 14 17
M  V30 17 2 17 18
M  V30 18 1 18 19
M  V30 19 1 18 20
M  V30 20 2 20 21
M  V30 21 1 20 22
M  V30 22 1 22 23
M  V30 23 2 23 24
M  V30 24 1 24 25
M  V30 25 2 25 26
M  V30 26 1 26 27
M  V30 27 2 27 28
M  V30 28 1 26 29
M  V30 29 1 17 30
M  V30 30 1 7 2
M  V30 31 2 15 11
M  V30 32 1 28 23
M  V30 33 1 19 13
M  V30 34 1 3 31
M  V30 35 1 4 32
M  V30 36 1 6 33
M  V30 37 1 7 34
M  V30 38 1 8 35
M  V30 39 1 16 36
M  V30 40 1 16 37
M  V30 41 1 22 38
M  V30 42 1 24 39
M  V30 43 1 25 40
M  V30 44 1 27 41
M  V30 45 1 28 42
M  V30 46 1 30 43
M  V30 47 1 30 44
M  V30 END BOND
M  V30 END CTAB
M  END
