
     RDKit          3D

  0  0  0  0  0  0  0  0  0  0999 V3000
M  V30 BEGIN CTAB
M  V30 COUNTS 37 39 0 0 0
M  V30 BEGIN ATOM
M  V30 1 N -0.30579 -1.77398 -1.9994 0
M  V30 2 C -0.807531 -1.05566 -0.840092 0 CFG=2
M  V30 3 C -2.31152 -1.21503 -0.754694 0 CFG=1
M  V30 4 O -2.64828 -2.53685 -0.613954 0
M  V30 5 C -2.6711 -0.427721 0.513993 0 CFG=2
M  V30 6 O -3.97632 -0.604527 0.88619 0
M  V30 7 C -2.36586 1.00202 0.193885 0 CFG=1
M  V30 8 C -2.74669 1.81824 1.43879 0
M  V30 9 O -2.71644 3.16574 1.18746 0
M  V30 10 O -1.14006 1.27637 -0.254352 0
M  V30 11 C -0.340263 0.347253 -0.774659 0 CFG=1
M  V30 12 N 0.943311 0.371657 -0.0516372 0
M  V30 13 C 1.09929 0.637452 1.25786 0
M  V30 14 N 2.40852 0.568729 1.56032 0
M  V30 15 C 3.11958 0.255107 0.440368 0
M  V30 16 C 2.16971 0.137875 -0.555721 0
M  V30 17 N 2.59815 -0.174547 -1.8044 0
M  V30 18 C 3.92034 -0.355899 -2.01927 0
M  V30 19 N 4.83904 -0.238466 -1.03702 0
M  V30 20 C 4.47376 0.0660992 0.205098 0
M  V30 21 N 5.37726 0.207001 1.28929 0
M  V30 22 H -0.815381 -1.5267 -2.86903 0
M  V30 23 H -0.518099 -2.7918 -1.82665 0
M  V30 24 H -0.395797 -1.60647 0.0522391 0
M  V30 25 H -2.7816 -0.735869 -1.64221 0
M  V30 26 H -3.60618 -2.64785 -0.912382 0
M  V30 27 H -1.9361 -0.751074 1.30481 0
M  V30 28 H -3.97404 -0.773003 1.88245 0
M  V30 29 H -3.12304 1.32309 -0.582454 0
M  V30 30 H -3.72118 1.45193 1.81674 0
M  V30 31 H -1.99554 1.54921 2.21005 0
M  V30 32 H -2.06777 3.6038 1.79352 0
M  V30 33 H -0.0580498 0.653149 -1.8272 0
M  V30 34 H 0.29613 0.86814 1.9485 0
M  V30 35 H 4.32285 -0.608905 -3.00397 0
M  V30 36 H 5.04788 0.230604 2.25855 0
M  V30 37 H 6.40683 0.290878 1.12898 0
M  V30 END ATOM
M  V30 BEGIN BOND
M  V30 1 1 1 2
M  V30 2 1 2 3
M  V30 3 1 3 4
M  V30 4 1 3 5
M  V30 5 1 5 6
M  V30 6 1 5 7
M  V30 7 1 7 8
M  V30 8 1 8 9
M  V30 9 1 7 10
M  V30 10 1 10 11
M  V30 11 1 11 12
M  V30 12 1 12 13
M  V30 13 2 13 14
M  V30 14 1 14 15
M  V30 15 2 15 16
M  V30 16 1 16 17
M  V30 17 2 17 18
M  V30 18 1 18 19
M  V30 19 2 19 20
M  V30 20 1 20 21
M  V30 21 1 11 2
M  V30 22 1 16 12
M  V30 23 1 20 15
M  V30 24 1 1 22
M  V30 25 1 1 23
M  V30 26 1 2 24 CFG=1
M  V30 27 1 3 25 CFG=3
M  V30 28 1 4 26
M  V30 29 1 5 27 CFG=1
M  V30 30 1 6 28
M  V30 31 1 7 29 CFG=3
M  V30 32 1 8 30
M  V30 33 1 8 31
M  V30 34 1 9 32
M  V30 35 1 11 33 CFG=3
M  V30 36 1 13 34
M  V30 37 1 18 35
M  V30 38 1 21 36
M  V30 39 1 21 37
M  V30 END BOND
M  V30 END CTAB
M  END
