
     RDKit          3D

  0  0  0  0  0  0  0  0  0  0999 V3000
M  V30 BEGIN CTAB
M  V30 COUNTS 28 30 0 0 0
M  V30 BEGIN ATOM
M  V30 1 N 4.31539 0.618025 -0.829136 0
M  V30 2 C 2.92326 0.641715 -1.05993 0
M  V30 3 N 2.3098 1.09521 -2.1789 0
M  V30 4 N 1.00059 0.974791 -2.03384 0
M  V30 5 C 0.752823 0.445403 -0.828989 0
M  V30 6 N 1.92608 0.246978 -0.243151 0
M  V30 7 N 2.21576 -0.280888 1.03001 0
M  V30 8 C -0.543364 0.160337 -0.275997 0
M  V30 9 C -0.874291 0.771364 1.05937 0
M  V30 10 C -2.38369 0.48658 1.09817 0
M  V30 11 C -2.73671 0.0684955 -0.314227 0
M  V30 12 N -1.64696 0.716708 -1.06171 0
M  V30 13 C -2.3424 -1.37308 -0.547653 0
M  V30 14 C -0.863164 -1.32047 -0.165782 0
M  V30 15 H 4.77369 1.47519 -0.427529 0
M  V30 16 H 4.84652 -0.258501 -1.06448 0
M  V30 17 H 1.6526 -1.08115 1.41407 0
M  V30 18 H 2.96733 0.076414 1.62819 0
M  V30 19 H -0.376364 0.302331 1.90795 0
M  V30 20 H -0.777934 1.87186 1.07977 0
M  V30 21 H -2.9616 1.35745 1.43736 0
M  V30 22 H -2.5336 -0.416149 1.74171 0
M  V30 23 H -3.71997 0.323075 -0.645184 0
M  V30 24 H -1.61222 0.339368 -2.03783 0
M  V30 25 H -2.89355 -2.09414 0.0459032 0
M  V30 26 H -2.36163 -1.56766 -1.6193 0
M  V30 27 H -0.826935 -1.64253 0.89164 0
M  V30 28 H -0.229447 -1.93673 -0.818404 0
M  V30 END ATOM
M  V30 BEGIN BOND
M  V30 1 1 1 2
M  V30 2 2 2 3
M  V30 3 1 3 4
M  V30 4 2 4 5
M  V30 5 1 5 6
M  V30 6 1 6 7
M  V30 7 1 5 8
M  V30 8 1 8 9
M  V30 9 1 9 10
M  V30 10 1 10 11
M  V30 11 1 11 12
M  V30 12 1 11 13
M  V30 13 1 13 14
M  V30 14 1 6 2
M  V30 15 1 14 8
M  V30 16 1 12 8
M  V30 17 1 1 15
M  V30 18 1 1 16
M  V30 19 1 7 17
M  V30 20 1 7 18
M  V30 21 1 9 19
M  V30 22 1 9 20
M  V30 23 1 10 21
M  V30 24 1 10 22
M  V30 25 1 11 23
M  V30 26 1 12 24
M  V30 27 1 13 25
M  V30 28 1 13 26
M  V30 29 1 14 27
M  V30 30 1 14 28
M  V30 END BOND
M  V30 END CTAB
M  END
