
     RDKit          3D

  0  0  0  0  0  0  0  0  0  0999 V3000
M  V30 BEGIN CTAB
M  V30 COUNTS 31 31 0 0 0
M  V30 BEGIN ATOM
M  V30 1 N 4.4687 -0.169072 -1.0922 0
M  V30 2 N 3.29991 0.4027 -0.588865 0
M  V30 3 C 2.62354 -0.0981015 0.37811 0
M  V30 4 N 1.44404 0.610216 0.779365 0
M  V30 5 C 0.322406 0.586297 -0.138375 0
M  V30 6 C -0.78434 1.39974 0.515088 0
M  V30 7 C -2.10274 1.53581 -0.0322689 0
M  V30 8 C -3.25094 0.592054 0.314849 0
M  V30 9 C -2.90477 -0.892651 -0.0509185 0
M  V30 10 C -1.50692 -0.936275 -0.208674 0
M  V30 11 C -0.111524 -0.908332 -0.345274 0
M  V30 12 O 0.419123 -1.24713 -1.62008 0
M  V30 13 N 2.96203 -1.28945 1.06572 0
M  V30 14 H 4.41635 -0.890893 -1.82242 0
M  V30 15 H 5.37323 0.191342 -0.673089 0
M  V30 16 H 1.41741 1.106 1.68221 0
M  V30 17 H 0.583822 1.04506 -1.08836 0
M  V30 18 H -0.839328 1.19445 1.62817 0
M  V30 19 H -0.30822 2.43551 0.52377 0
M  V30 20 H -2.52722 2.52702 0.336167 0
M  V30 21 H -2.06501 1.73253 -1.14718 0
M  V30 22 H -3.43496 0.657214 1.38442 0
M  V30 23 H -4.1046 0.921188 -0.278104 0
M  V30 24 H -3.35381 -1.53373 0.74569 0
M  V30 25 H -3.53115 -1.19058 -0.94608 0
M  V30 26 H -1.58243 -0.228107 -1.07296 0
M  V30 27 H -1.39218 -0.595081 0.870326 0
M  V30 28 H 0.49064 -1.56336 0.331849 0
M  V30 29 H -0.182906 -1.96406 -1.94642 0
M  V30 30 H 3.23291 -1.23832 2.0676 0
M  V30 31 H 2.92895 -2.19201 0.540386 0
M  V30 END ATOM
M  V30 BEGIN BOND
M  V30 1 1 1 2
M  V30 2 2 2 3 CFG=2
M  V30 3 1 3 4
M  V30 4 1 4 5
M  V30 5 1 5 6
M  V30 6 1 6 7
M  V30 7 1 7 8
M  V30 8 1 8 9
M  V30 9 1 9 10
M  V30 10 1 10 11
M  V30 11 1 11 12
M  V30 12 1 3 13
M  V30 13 1 11 5
M  V30 14 1 1 14
M  V30 15 1 1 15
M  V30 16 1 4 16
M  V30 17 1 5 17
M  V30 18 1 6 18
M  V30 19 1 6 19
M  V30 20 1 7 20
M  V30 21 1 7 21
M  V30 22 1 8 22
M  V30 23 1 8 23
M  V30 24 1 9 24
M  V30 25 1 9 25
M  V30 26 1 10 26
M  V30 27 1 10 27
M  V30 28 1 11 28
M  V30 29 1 12 29
M  V30 30 1 13 30
M  V30 31 1 13 31
M  V30 END BOND
M  V30 END CTAB
M  END
