
     RDKit          3D

  0  0  0  0  0  0  0  0  0  0999 V3000
M  V30 BEGIN CTAB
M  V30 COUNTS 48 50 0 0 0
M  V30 BEGIN ATOM
M  V30 1 C 7.86163 0.43768 -0.496963 0
M  V30 2 C 6.55507 0.692131 0.217135 0
M  V30 3 O 6.65962 1.38079 1.24074 0
M  V30 4 N 5.3946 0.133166 -0.345368 0
M  V30 5 C 4.06732 0.228814 0.148083 0
M  V30 6 C 3.87676 0.408478 1.49028 0
M  V30 7 C 2.62835 0.375189 1.99681 0
M  V30 8 C 1.44702 0.165241 1.25864 0
M  V30 9 C 1.66281 -0.0106637 -0.109174 0
M  V30 10 C 2.97205 0.0207465 -0.666347 0
M  V30 11 C 3.0951 -0.116616 -2.03262 0
M  V30 12 O 4.32733 -0.0874698 -2.65071 0
M  V30 13 C 1.97528 -0.28602 -2.85976 0
M  V30 14 C 0.74548 -0.312407 -2.30313 0
M  V30 15 C 0.580128 -0.175138 -0.938326 0
M  V30 16 N -0.728016 -0.15876 -0.403656 0
M  V30 17 N -1.74949 -0.057786 -1.19052 0
M  V30 18 C -3.06374 -0.0376368 -0.703791 0
M  V30 19 C -3.78333 -1.20907 -0.499399 0
M  V30 20 Cl -2.99816 -2.72813 -0.869303 0
M  V30 21 C -5.07405 -1.20047 -0.0220009 0
M  V30 22 C -5.70715 -0.0184165 0.274013 0
M  V30 23 C -5.01464 1.15408 0.079682 0
M  V30 24 C -3.72112 1.13686 -0.399201 0
M  V30 25 S -7.3475 0.0578691 0.884139 0
M  V30 26 N -8.42725 0.163101 -0.485602 0
M  V30 27 O -7.5613 1.26613 1.74938 0
M  V30 28 O -7.70931 -1.21735 1.62897 0
M  V30 29 S -0.0708348 0.0466672 2.00872 0
M  V30 30 N -0.848814 -1.4749 2.08607 0
M  V30 31 O -0.976161 1.24451 2.00408 0
M  V30 32 O 0.27125 0.153102 3.52716 0
M  V30 33 H 8.13219 1.40518 -0.981288 0
M  V30 34 H 8.64918 0.235056 0.2575 0
M  V30 35 H 7.75933 -0.39263 -1.2178 0
M  V30 36 H 5.55655 -0.467313 -1.1804 0
M  V30 37 H 4.7577 0.560775 2.11706 0
M  V30 38 H 2.49555 0.524155 3.07096 0
M  V30 39 H 4.42609 -0.185311 -3.63167 0
M  V30 40 H 2.13796 -0.392961 -3.94658 0
M  V30 41 H -0.167935 -0.441356 -2.89005 0
M  V30 42 H -5.59402 -2.13267 0.121178 0
M  V30 43 H -5.51229 2.08904 0.312677 0
M  V30 44 H -3.21007 2.06354 -0.539382 0
M  V30 45 H -8.5826 1.19026 -0.699731 0
M  V30 46 H -7.96784 -0.329004 -1.29164 0
M  V30 47 H -0.361031 -2.2734 1.71591 0
M  V30 48 H -1.85769 -1.42708 2.09916 0
M  V30 END ATOM
M  V30 BEGIN BOND
M  V30 1 1 1 2
M  V30 2 2 2 3
M  V30 3 1 2 4
M  V30 4 1 4 5
M  V30 5 2 5 6
M  V30 6 1 6 7
M  V30 7 2 7 8
M  V30 8 1 8 9
M  V30 9 2 9 10
M  V30 10 1 10 11
M  V30 11 1 11 12
M  V30 12 2 11 13
M  V30 13 1 13 14
M  V30 14 2 14 15
M  V30 15 1 15 16
M  V30 16 2 16 17 CFG=2
M  V30 17 1 17 18
M  V30 18 2 18 19
M  V30 19 1 19 20
M  V30 20 1 19 21
M  V30 21 2 21 22
M  V30 22 1 22 23
M  V30 23 2 23 24
M  V30 24 1 22 25
M  V30 25 1 25 26
M  V30 26 2 25 27
M  V30 27 2 25 28
M  V30 28 1 8 29
M  V30 29 1 29 30
M  V30 30 2 29 31
M  V30 31 2 29 32
M  V30 32 1 10 5
M  V30 33 1 24 18
M  V30 34 1 15 9
M  V30 35 1 1 33
M  V30 36 1 1 34
M  V30 37 1 1 35
M  V30 38 1 4 36
M  V30 39 1 6 37
M  V30 40 1 7 38
M  V30 41 1 12 39
M  V30 42 1 13 40
M  V30 43 1 14 41
M  V30 44 1 21 42
M  V30 45 1 23 43
M  V30 46 1 24 44
M  V30 47 1 26 45
M  V30 48 1 26 46
M  V30 49 1 30 47
M  V30 50 1 30 48
M  V30 END BOND
M  V30 END CTAB
M  END
