
     RDKit          3D

  0  0  0  0  0  0  0  0  0  0999 V3000
M  V30 BEGIN CTAB
M  V30 COUNTS 68 72 0 0 0
M  V30 BEGIN ATOM
M  V30 1 C -5.77891 -0.956774 -1.78887 0
M  V30 2 C -4.71821 -0.26756 -1.00513 0
M  V30 3 C -3.51617 -0.928775 -0.756903 0
M  V30 4 C -2.47803 -0.356567 -0.0390278 0
M  V30 5 C -2.70748 0.926397 0.421863 0
M  V30 6 C -3.89727 1.60548 0.184199 0
M  V30 7 C -4.91199 1.01575 -0.530036 0
M  V30 8 S -6.41236 1.84179 -0.837376 0
M  V30 9 O -6.67715 2.77456 0.321834 0
M  V30 10 O -7.56266 0.846787 -0.882189 0
M  V30 11 N -6.46022 2.72566 -2.25262 0
M  V30 12 C -4.038 2.9836 0.720113 0
M  V30 13 C -1.20468 -1.08893 0.226602 0
M  V30 14 C -1.27361 -1.45874 1.71166 0
M  V30 15 C -0.0703474 -2.27715 2.06356 0
M  V30 16 C -0.0520512 -3.53945 1.25557 0
M  V30 17 C 0.0699029 -3.16041 -0.205301 0
M  V30 18 C -1.20834 -2.37832 -0.533733 0
M  V30 19 C 1.31243 -2.35718 -0.467621 0
M  V30 20 C 1.22945 -1.04951 0.297162 0
M  V30 21 C 0.0119625 -0.275382 -0.0790299 0
M  V30 22 C 1.14193 -1.40544 1.78196 0
M  V30 23 C 2.5084 -0.336872 0.114541 0
M  V30 24 C 2.80525 0.841895 0.767969 0
M  V30 25 C 4.02131 1.50207 0.587949 0
M  V30 26 C 4.25538 2.7635 1.31985 0
M  V30 27 C 4.9757 0.970561 -0.270679 0
M  V30 28 C 4.7073 -0.208784 -0.94025 0
M  V30 29 C 3.49316 -0.824229 -0.731461 0
M  V30 30 C 5.71247 -0.796254 -1.86493 0
M  V30 31 S 6.51212 1.76595 -0.510611 0
M  V30 32 O 7.63401 0.780769 -0.701665 0
M  V30 33 O 6.84368 2.53299 0.734487 0
M  V30 34 N 6.44299 2.88742 -1.82009 0
M  V30 35 H -6.54323 -1.42615 -1.11843 0
M  V30 36 H -5.31658 -1.82179 -2.33865 0
M  V30 37 H -6.21937 -0.31768 -2.57519 0
M  V30 38 H -3.36447 -1.94518 -1.13432 0
M  V30 39 H -1.92486 1.41596 0.982996 0
M  V30 40 H -6.96537 3.59227 -2.29767 0
M  V30 41 H -5.97477 2.38024 -3.07826 0
M  V30 42 H -3.04026 3.38932 1.02537 0
M  V30 43 H -4.41766 3.70731 -0.018298 0
M  V30 44 H -4.61025 2.92039 1.65359 0
M  V30 45 H -2.23777 -1.97764 1.86424 0
M  V30 46 H -1.2642 -0.490749 2.26412 0
M  V30 47 H -0.0804245 -2.44867 3.15468 0
M  V30 48 H -1.05705 -4.01869 1.36681 0
M  V30 49 H 0.766701 -4.2218 1.53814 0
M  V30 50 H 0.13556 -4.08628 -0.788168 0
M  V30 51 H -1.23988 -2.2196 -1.60963 0
M  V30 52 H -2.01592 -3.05453 -0.142043 0
M  V30 53 H 2.16739 -2.91961 -0.0744553 0
M  V30 54 H 1.35403 -2.19775 -1.56061 0
M  V30 55 H 0.0259759 -0.0789093 -1.15765 0
M  V30 56 H 0.0319142 0.674506 0.483234 0
M  V30 57 H 0.96257 -0.455627 2.32898 0
M  V30 58 H 2.03757 -1.95549 2.129 0
M  V30 59 H 2.08177 1.2861 1.44028 0
M  V30 60 H 3.2708 3.15629 1.70249 0
M  V30 61 H 4.88674 2.63447 2.22135 0
M  V30 62 H 4.62223 3.58044 0.651983 0
M  V30 63 H 3.30941 -1.74869 -1.26543 0
M  V30 64 H 6.19219 -0.054984 -2.52461 0
M  V30 65 H 6.41969 -1.47818 -1.35432 0
M  V30 66 H 5.13565 -1.46418 -2.56898 0
M  V30 67 H 5.63533 2.67481 -2.4261 0
M  V30 68 H 6.52655 3.87121 -1.52715 0
M  V30 END ATOM
M  V30 BEGIN BOND
M  V30 1 1 1 2
M  V30 2 2 2 3
M  V30 3 1 3 4
M  V30 4 2 4 5
M  V30 5 1 5 6
M  V30 6 2 6 7
M  V30 7 1 7 8
M  V30 8 2 8 9
M  V30 9 2 8 10
M  V30 10 1 8 11
M  V30 11 1 6 12
M  V30 12 1 4 13
M  V30 13 1 13 14
M  V30 14 1 14 15
M  V30 15 1 15 16
M  V30 16 1 16 17
M  V30 17 1 17 18
M  V30 18 1 17 19
M  V30 19 1 19 20
M  V30 20 1 20 21
M  V30 21 1 20 22
M  V30 22 1 20 23
M  V30 23 2 23 24
M  V30 24 1 24 25
M  V30 25 1 25 26
M  V30 26 2 25 27
M  V30 27 1 27 28
M  V30 28 2 28 29
M  V30 29 1 28 30
M  V30 30 1 27 31
M  V30 31 2 31 32
M  V30 32 2 31 33
M  V30 33 1 31 34
M  V30 34 1 7 2
M  V30 35 1 18 13
M  V30 36 1 29 23
M  V30 37 1 21 13
M  V30 38 1 22 15
M  V30 39 1 1 35
M  V30 40 1 1 36
M  V30 41 1 1 37
M  V30 42 1 3 38
M  V30 43 1 5 39
M  V30 44 1 11 40
M  V30 45 1 11 41
M  V30 46 1 12 42
M  V30 47 1 12 43
M  V30 48 1 12 44
M  V30 49 1 14 45
M  V30 50 1 14 46
M  V30 51 1 15 47
M  V30 52 1 16 48
M  V30 53 1 16 49
M  V30 54 1 17 50
M  V30 55 1 18 51
M  V30 56 1 18 52
M  V30 57 1 19 53
M  V30 58 1 19 54
M  V30 59 1 21 55
M  V30 60 1 21 56
M  V30 61 1 22 57
M  V30 62 1 22 58
M  V30 63 1 24 59
M  V30 64 1 26 60
M  V30 65 1 26 61
M  V30 66 1 26 62
M  V30 67 1 29 63
M  V30 68 1 30 64
M  V30 69 1 30 65
M  V30 70 1 30 66
M  V30 71 1 34 67
M  V30 72 1 34 68
M  V30 END BOND
M  V30 END CTAB
M  END
