
     RDKit          3D

  0  0  0  0  0  0  0  0  0  0999 V3000
M  V30 BEGIN CTAB
M  V30 COUNTS 43 45 0 0 0
M  V30 BEGIN ATOM
M  V30 1 O 2.64291 -0.386662 -1.15214 0
M  V30 2 C 1.78714 0.498168 -0.807125 0
M  V30 3 N 0.489443 0.487689 -0.670906 0
M  V30 4 C -0.884126 0.474495 -0.527301 0
M  V30 5 C -1.68393 1.22183 -1.41857 0
M  V30 6 C -3.00843 1.31713 -1.18732 0
M  V30 7 C -3.64931 0.707449 -0.0979226 0
M  V30 8 C -2.87944 -0.0225412 0.769607 0
M  V30 9 C -1.53215 -0.122781 0.535749 0
M  V30 10 O -5.00027 0.867699 0.0605898 0
M  V30 11 C -5.98432 -0.0637722 -0.18106 0
M  V30 12 C -5.81168 -1.40149 -0.197078 0
M  V30 13 C -6.79847 -2.32284 -0.436526 0
M  V30 14 C -8.0608 -1.78685 -0.678707 0
M  V30 15 C -8.2804 -0.440489 -0.673256 0
M  V30 16 C -7.26542 0.465859 -0.428237 0
M  V30 17 Cl -9.38136 -2.90598 -0.997089 0
M  V30 18 C 2.51856 1.84472 -0.503465 0
M  V30 19 S 3.36645 1.8368 1.03705 0
M  V30 20 C 4.94137 0.998823 0.982323 0
M  V30 21 N 5.49445 0.475429 -0.11756 0
M  V30 22 C 6.72448 -0.0874882 -0.165663 0
M  V30 23 N 7.34001 -0.623092 -1.31693 0
M  V30 24 C 7.40494 -0.0878831 1.05982 0
M  V30 25 C 6.90381 0.420054 2.21583 0
M  V30 26 N 5.65286 0.967542 2.15449 0
M  V30 27 N 7.58356 0.428881 3.4576 0
M  V30 28 H 0.414932 -0.832911 -1.08821 0
M  V30 29 H -1.17413 1.67471 -2.25121 0
M  V30 30 H -3.66497 1.89287 -1.855 0
M  V30 31 H -3.36675 -0.508899 1.61291 0
M  V30 32 H -0.886302 -0.700538 1.19812 0
M  V30 33 H -4.81488 -1.81656 -0.0165345 0
M  V30 34 H -6.63298 -3.34695 -0.437562 0
M  V30 35 H -9.27258 -0.0247352 -0.867588 0
M  V30 36 H -7.36815 1.52186 -0.410503 0
M  V30 37 H 3.12416 2.03712 -1.40712 0
M  V30 38 H 1.72113 2.65248 -0.49409 0
M  V30 39 H 7.49129 -1.64318 -1.51427 0
M  V30 40 H 7.725 -0.00550646 -2.08714 0
M  V30 41 H 8.40765 -0.526781 1.06397 0
M  V30 42 H 7.93378 1.31286 3.86975 0
M  V30 43 H 7.73292 -0.462996 3.96827 0
M  V30 END ATOM
M  V30 BEGIN BOND
M  V30 1 2 1 2
M  V30 2 1 2 3
M  V30 3 1 3 4
M  V30 4 2 4 5
M  V30 5 1 5 6
M  V30 6 2 6 7
M  V30 7 1 7 8
M  V30 8 2 8 9
M  V30 9 1 7 10
M  V30 10 1 10 11
M  V30 11 2 11 12
M  V30 12 1 12 13
M  V30 13 2 13 14
M  V30 14 1 14 15
M  V30 15 2 15 16
M  V30 16 1 14 17
M  V30 17 1 2 18
M  V30 18 1 18 19
M  V30 19 1 19 20
M  V30 20 2 20 21
M  V30 21 1 21 22
M  V30 22 1 22 23
M  V30 23 2 22 24
M  V30 24 1 24 25
M  V30 25 2 25 26
M  V30 26 1 25 27
M  V30 27 1 9 4
M  V30 28 1 16 11
M  V30 29 1 26 20
M  V30 30 1 3 28
M  V30 31 1 5 29
M  V30 32 1 6 30
M  V30 33 1 8 31
M  V30 34 1 9 32
M  V30 35 1 12 33
M  V30 36 1 13 34
M  V30 37 1 15 35
M  V30 38 1 16 36
M  V30 39 1 18 37
M  V30 40 1 18 38
M  V30 41 1 23 39
M  V30 42 1 23 40
M  V30 43 1 24 41
M  V30 44 1 27 42
M  V30 45 1 27 43
M  V30 END BOND
M  V30 END CTAB
M  END
