
     RDKit          3D

  0  0  0  0  0  0  0  0  0  0999 V3000
M  V30 BEGIN CTAB
M  V30 COUNTS 27 27 0 0 0
M  V30 BEGIN ATOM
M  V30 1 C 3.52602 -1.4755 -0.292795 0
M  V30 2 C 3.60715 -0.488865 0.828921 0
M  V30 3 C 3.13596 0.879145 0.370986 0
M  V30 4 C 1.70262 0.830135 -0.107189 0
M  V30 5 S 0.607567 0.272891 1.23145 0
M  V30 6 C -1.05231 0.24814 0.572686 0
M  V30 7 N -1.47681 -0.886462 -0.0085131 0
M  V30 8 C -2.69818 -1.01393 -0.533254 0
M  V30 9 N -3.16813 -2.19965 -1.15099 0
M  V30 10 C -3.53018 0.105581 -0.449443 0
M  V30 11 C -3.1254 1.28471 0.140336 0
M  V30 12 N -4.00729 2.38251 0.196648 0
M  V30 13 N -1.87406 1.30199 0.636499 0
M  V30 14 H 2.84404 -2.31478 -0.0564797 0
M  V30 15 H 3.2001 -1.00568 -1.26002 0
M  V30 16 H 4.52389 -1.91982 -0.507729 0
M  V30 17 H 4.6527 -0.381897 1.18394 0
M  V30 18 H 3.01763 -0.856835 1.6738 0
M  V30 19 H 3.20597 1.61337 1.18359 0
M  V30 20 H 3.78102 1.18968 -0.466881 0
M  V30 21 H 1.40954 1.89263 -0.327774 0
M  V30 22 H 1.58503 0.218208 -1.02645 0
M  V30 23 H -2.57426 -2.70583 -1.81132 0
M  V30 24 H -4.11569 -2.54194 -0.923947 0
M  V30 25 H -4.51679 0.00338095 -0.872976 0
M  V30 26 H -4.37521 2.79775 -0.672079 0
M  V30 27 H -4.28494 2.77106 1.11014 0
M  V30 END ATOM
M  V30 BEGIN BOND
M  V30 1 1 1 2
M  V30 2 1 2 3
M  V30 3 1 3 4
M  V30 4 1 4 5
M  V30 5 1 5 6
M  V30 6 2 6 7
M  V30 7 1 7 8
M  V30 8 1 8 9
M  V30 9 2 8 10
M  V30 10 1 10 11
M  V30 11 1 11 12
M  V30 12 2 11 13
M  V30 13 1 13 6
M  V30 14 1 1 14
M  V30 15 1 1 15
M  V30 16 1 1 16
M  V30 17 1 2 17
M  V30 18 1 2 18
M  V30 19 1 3 19
M  V30 20 1 3 20
M  V30 21 1 4 21
M  V30 22 1 4 22
M  V30 23 1 9 23
M  V30 24 1 9 24
M  V30 25 1 10 25
M  V30 26 1 12 26
M  V30 27 1 12 27
M  V30 END BOND
M  V30 END CTAB
M  END
