
     RDKit          3D

  0  0  0  0  0  0  0  0  0  0999 V3000
M  V30 BEGIN CTAB
M  V30 COUNTS 23 23 0 0 0
M  V30 BEGIN ATOM
M  V30 1 C -2.9222 1.51271 0.395717 0
M  V30 2 C -1.9132 0.447985 0.063194 0
M  V30 3 C -2.3091 -0.797699 -0.376838 0
M  V30 4 C -1.39501 -1.76952 -0.680622 0
M  V30 5 C -0.0366589 -1.55328 -0.562576 0
M  V30 6 N 0.910038 -2.56368 -0.878594 0
M  V30 7 C 0.365448 -0.296106 -0.1184 0
M  V30 8 C -0.555332 0.683069 0.187692 0
M  V30 9 C 1.80143 -0.0437274 0.0145372 0
M  V30 10 O 2.61696 -0.961836 -0.274028 0
M  V30 11 N 2.32447 1.19029 0.454695 0
M  V30 12 N 3.70568 1.34884 0.553682 0
M  V30 13 H -3.91024 1.05958 0.31154 0
M  V30 14 H -2.70588 1.82202 1.45828 0
M  V30 15 H -2.76187 2.41014 -0.21631 0
M  V30 16 H -3.39262 -0.952565 -0.464968 0
M  V30 17 H -1.74437 -2.74099 -1.02508 0
M  V30 18 H 1.1639 -2.73132 -1.86963 0
M  V30 19 H 1.36496 -3.1494 -0.15147 0
M  V30 20 H -0.268138 1.67226 0.536231 0
M  V30 21 H 1.71538 2.00863 0.715678 0
M  V30 22 H 3.94039 2.35507 0.418212 0
M  V30 23 H 4.00595 1.04953 1.50905 0
M  V30 END ATOM
M  V30 BEGIN BOND
M  V30 1 1 1 2
M  V30 2 2 2 3
M  V30 3 1 3 4
M  V30 4 2 4 5
M  V30 5 1 5 6
M  V30 6 1 5 7
M  V30 7 2 7 8
M  V30 8 1 7 9
M  V30 9 2 9 10
M  V30 10 1 9 11
M  V30 11 1 11 12
M  V30 12 1 8 2
M  V30 13 1 1 13
M  V30 14 1 1 14
M  V30 15 1 1 15
M  V30 16 1 3 16
M  V30 17 1 4 17
M  V30 18 1 6 18
M  V30 19 1 6 19
M  V30 20 1 8 20
M  V30 21 1 11 21
M  V30 22 1 12 22
M  V30 23 1 12 23
M  V30 END BOND
M  V30 END CTAB
M  END
