
     RDKit          3D

  0  0  0  0  0  0  0  0  0  0999 V3000
M  V30 BEGIN CTAB
M  V30 COUNTS 25 25 0 0 0
M  V30 BEGIN ATOM
M  V30 1 N -2.31037 -0.404567 1.26247 0
M  V30 2 C -2.48074 -0.0979182 -0.109101 0
M  V30 3 N -1.49537 0.147155 -0.901465 0
M  V30 4 C -0.125874 0.143344 -0.521018 0
M  V30 5 C 0.597452 1.32836 -0.417892 0
M  V30 6 C 1.93746 1.32092 -0.0361238 0
M  V30 7 C 2.53968 0.113847 0.239572 0
M  V30 8 C 1.81217 -1.04369 0.131678 0
M  V30 9 C 0.463362 -1.07667 -0.249804 0
M  V30 10 N -0.205734 -2.32767 -0.349133 0 CHG=1
M  V30 11 O -1.08513 -2.57716 -1.18397 0
M  V30 12 O 0.16394 -3.32877 0.514396 0 CHG=-1
M  V30 13 N 3.91228 0.0552366 0.636309 0 CHG=1
M  V30 14 O 4.6002 1.08441 0.745073 0
M  V30 15 O 4.50608 -1.15128 0.908094 0 CHG=-1
M  V30 16 N -0.0141707 2.57289 -0.711227 0 CHG=1
M  V30 17 O 0.609675 3.56904 -1.13255 0
M  V30 18 O -1.36303 2.71234 -0.530855 0 CHG=-1
M  V30 19 N -3.7992 -0.0604659 -0.629621 0
M  V30 20 H -1.99266 0.291865 1.96884 0
M  V30 21 H -2.50601 -1.36781 1.60741 0
M  V30 22 H 2.51793 2.25199 0.0500273 0
M  V30 23 H 2.26724 -2.01889 0.344235 0
M  V30 24 H -4.27703 -0.9762 -0.790631 0
M  V30 25 H -4.27216 0.83968 -0.844727 0
M  V30 END ATOM
M  V30 BEGIN BOND
M  V30 1 1 1 2
M  V30 2 2 2 3 CFG=2
M  V30 3 1 3 4
M  V30 4 2 4 5
M  V30 5 1 5 6
M  V30 6 2 6 7
M  V30 7 1 7 8
M  V30 8 2 8 9
M  V30 9 1 9 10
M  V30 10 2 10 11
M  V30 11 1 10 12
M  V30 12 1 7 13
M  V30 13 2 13 14
M  V30 14 1 13 15
M  V30 15 1 5 16
M  V30 16 2 16 17
M  V30 17 1 16 18
M  V30 18 1 2 19
M  V30 19 1 9 4
M  V30 20 1 1 20
M  V30 21 1 1 21
M  V30 22 1 6 22
M  V30 23 1 8 23
M  V30 24 1 19 24
M  V30 25 1 19 25
M  V30 END BOND
M  V30 END CTAB
M  END
