
     RDKit          3D

  0  0  0  0  0  0  0  0  0  0999 V3000
M  V30 BEGIN CTAB
M  V30 COUNTS 44 48 0 0 0
M  V30 BEGIN ATOM
M  V30 1 N 5.50935 -2.39796 -0.254693 0
M  V30 2 C 4.23466 -1.72958 -0.233711 0
M  V30 3 C 3.70715 -1.37769 0.974283 0
M  V30 4 C 2.48536 -0.737207 0.991892 0
M  V30 5 C 1.80749 -0.455321 -0.168709 0
M  V30 6 C 2.37639 -0.82815 -1.36522 0
M  V30 7 C 3.58727 -1.46525 -1.41998 0
M  V30 8 N 0.548209 0.208678 -0.0889823 0 CHG=1
M  V30 9 C 0.438821 1.54764 -0.215484 0
M  V30 10 C 1.58627 2.2811 -0.427515 0
M  V30 11 C 1.54085 3.65206 -0.564909 0
M  V30 12 C 0.336015 4.3473 -0.49487 0
M  V30 13 N 0.276506 5.75588 -0.634518 0
M  V30 14 C -0.79312 3.5717 -0.280617 0
M  V30 15 C -0.76815 2.20092 -0.140823 0
M  V30 16 N -1.87695 1.47617 0.0657342 0
M  V30 17 C -1.83582 0.134694 0.200568 0
M  V30 18 C -0.604987 -0.479051 0.118968 0
M  V30 19 C -0.495024 -1.864 0.250193 0
M  V30 20 C -1.64941 -2.60352 0.46368 0
M  V30 21 N -1.5105 -4.01298 0.594028 0 CHG=-1
M  V30 22 C -2.86861 -1.96221 0.541036 0
M  V30 23 C -3.00111 -0.59687 0.414516 0
M  V30 24 C -4.19094 0.063783 0.486386 0
M  V30 25 C -5.35204 -0.668447 0.699911 0
M  V30 26 C -5.2441 -2.03728 0.829697 0
M  V30 27 C -4.02715 -2.70445 0.755298 0
M  V30 28 H 6.33738 -1.96941 0.234178 0
M  V30 29 H 5.56635 -3.30751 -0.767999 0
M  V30 30 H 4.25068 -1.60387 1.9024 0
M  V30 31 H 2.07029 -0.458363 1.97362 0
M  V30 32 H 1.8416 -0.606408 -2.29116 0
M  V30 33 H 4.06516 -1.77369 -2.34942 0
M  V30 34 H 2.56671 1.82143 -0.495558 0
M  V30 35 H 2.42874 4.25865 -0.733045 0
M  V30 36 H 1.04671 6.36299 -0.298012 0
M  V30 37 H -0.547971 6.18953 -1.07934 0
M  V30 38 H -1.75086 4.104 -0.222822 0
M  V30 39 H 0.475592 -2.31374 0.182277 0
M  V30 40 H -1.90657 -4.61666 -0.147118 0
M  V30 41 H -4.26703 1.12568 0.384796 0
M  V30 42 H -6.28437 -0.126135 0.753664 0
M  V30 43 H -6.13788 -2.63074 0.997167 0
M  V30 44 H -3.97097 -3.77573 0.860218 0
M  V30 END ATOM
M  V30 BEGIN BOND
M  V30 1 1 1 2
M  V30 2 2 2 3
M  V30 3 1 3 4
M  V30 4 2 4 5
M  V30 5 1 5 6
M  V30 6 2 6 7
M  V30 7 1 5 8
M  V30 8 1 8 9
M  V30 9 2 9 10
M  V30 10 1 10 11
M  V30 11 2 11 12
M  V30 12 1 12 13
M  V30 13 1 12 14
M  V30 14 2 14 15
M  V30 15 1 15 16
M  V30 16 2 16 17
M  V30 17 1 17 18
M  V30 18 1 18 19
M  V30 19 2 19 20
M  V30 20 1 20 21
M  V30 21 1 20 22
M  V30 22 2 22 23
M  V30 23 1 23 24
M  V30 24 2 24 25
M  V30 25 1 25 26
M  V30 26 2 26 27
M  V30 27 1 7 2
M  V30 28 2 18 8
M  V30 29 1 27 22
M  V30 30 1 15 9
M  V30 31 1 23 17
M  V30 32 1 1 28
M  V30 33 1 1 29
M  V30 34 1 3 30
M  V30 35 1 4 31
M  V30 36 1 6 32
M  V30 37 1 7 33
M  V30 38 1 10 34
M  V30 39 1 11 35
M  V30 40 1 13 36
M  V30 41 1 13 37
M  V30 42 1 14 38
M  V30 43 1 19 39
M  V30 44 1 21 40
M  V30 45 1 24 41
M  V30 46 1 25 42
M  V30 47 1 26 43
M  V30 48 1 27 44
M  V30 END BOND
M  V30 END CTAB
M  END
