
     RDKit          3D

  0  0  0  0  0  0  0  0  0  0999 V3000
M  V30 BEGIN CTAB
M  V30 COUNTS 26 26 0 0 0
M  V30 BEGIN ATOM
M  V30 1 C 4.90682 -0.188735 0.145241 0
M  V30 2 N 3.46225 -0.205052 0.0208507 0
M  V30 3 C 2.63459 0.701055 0.721321 0
M  V30 4 O 3.22188 1.54041 1.47391 0
M  V30 5 C 1.18112 0.775721 0.672925 0
M  V30 6 N 0.52644 -0.172736 -0.176864 0
M  V30 7 C -0.891655 -0.141138 -0.258869 0
M  V30 8 C -1.54929 -1.03989 -1.06701 0
M  V30 9 C -2.92326 -0.97981 -1.12166 0
M  V30 10 N -3.61109 -1.90019 -1.95036 0
M  V30 11 N -3.58597 -0.0692539 -0.404748 0
M  V30 12 C -2.96629 0.826142 0.397664 0
M  V30 13 N -1.62432 0.755205 0.440699 0
M  V30 14 N -3.66911 1.79413 1.15991 0
M  V30 15 H 5.27909 -1.20448 0.335148 0
M  V30 16 H 5.16072 0.4549 1.01238 0
M  V30 17 H 5.34007 0.278931 -0.761656 0
M  V30 18 H 3.06115 -0.920967 -0.613385 0
M  V30 19 H 0.808865 0.70821 1.72171 0
M  V30 20 H 0.919707 1.79347 0.254508 0
M  V30 21 H 1.0544 -0.872933 -0.726772 0
M  V30 22 H -1.01278 -1.78771 -1.6564 0
M  V30 23 H -3.30114 -2.86898 -2.1367 0
M  V30 24 H -4.50731 -1.60943 -2.42729 0
M  V30 25 H -4.52671 2.21647 0.75139 0
M  V30 26 H -3.38818 2.11667 2.10678 0
M  V30 END ATOM
M  V30 BEGIN BOND
M  V30 1 1 1 2
M  V30 2 1 2 3
M  V30 3 2 3 4
M  V30 4 1 3 5
M  V30 5 1 5 6
M  V30 6 1 6 7
M  V30 7 2 7 8
M  V30 8 1 8 9
M  V30 9 1 9 10
M  V30 10 2 9 11
M  V30 11 1 11 12
M  V30 12 2 12 13
M  V30 13 1 12 14
M  V30 14 1 13 7
M  V30 15 1 1 15
M  V30 16 1 1 16
M  V30 17 1 1 17
M  V30 18 1 2 18
M  V30 19 1 5 19
M  V30 20 1 5 20
M  V30 21 1 6 21
M  V30 22 1 8 22
M  V30 23 1 10 23
M  V30 24 1 10 24
M  V30 25 1 14 25
M  V30 26 1 14 26
M  V30 END BOND
M  V30 END CTAB
M  END
