
     RDKit          3D

  0  0  0  0  0  0  0  0  0  0999 V3000
M  V30 BEGIN CTAB
M  V30 COUNTS 20 20 0 0 0
M  V30 BEGIN ATOM
M  V30 1 N 2.95224 1.12433 -0.851743 0
M  V30 2 C 1.95957 0.359617 -0.185017 0
M  V30 3 N 0.7298 0.667539 -0.368953 0
M  V30 4 C -0.374174 -0.0289644 0.248673 0
M  V30 5 C -1.05892 -0.98017 -0.673544 0
M  V30 6 C -2.48959 -0.904551 -0.241856 0
M  V30 7 C -2.73721 0.197713 0.441709 0
M  V30 8 C -1.48761 0.982625 0.540597 0
M  V30 9 N 2.37405 -0.708359 0.652686 0
M  V30 10 H 3.6243 0.686591 -1.52939 0
M  V30 11 H 2.97269 2.15448 -0.625254 0
M  V30 12 H -0.0250074 -0.505897 1.17251 0
M  V30 13 H -0.751547 -2.05285 -0.498875 0
M  V30 14 H -0.929993 -0.719715 -1.74335 0
M  V30 15 H -3.27668 -1.65169 -0.445262 0
M  V30 16 H -3.6999 0.463921 0.852385 0
M  V30 17 H -1.51405 1.76083 -0.256539 0
M  V30 18 H -1.3323 1.44175 1.53758 0
M  V30 19 H 1.81451 -1.60128 0.744055 0
M  V30 20 H 3.24982 -0.685914 1.22958 0
M  V30 END ATOM
M  V30 BEGIN BOND
M  V30 1 1 1 2
M  V30 2 2 2 3 CFG=2
M  V30 3 1 3 4
M  V30 4 1 4 5
M  V30 5 1 5 6
M  V30 6 2 6 7
M  V30 7 1 7 8
M  V30 8 1 2 9
M  V30 9 1 8 4
M  V30 10 1 1 10
M  V30 11 1 1 11
M  V30 12 1 4 12
M  V30 13 1 5 13
M  V30 14 1 5 14
M  V30 15 1 6 15
M  V30 16 1 7 16
M  V30 17 1 8 17
M  V30 18 1 8 18
M  V30 19 1 9 19
M  V30 20 1 9 20
M  V30 END BOND
M  V30 END CTAB
M  END
