
     RDKit          3D

  0  0  0  0  0  0  0  0  0  0999 V3000
M  V30 BEGIN CTAB
M  V30 COUNTS 23 23 0 0 0
M  V30 BEGIN ATOM
M  V30 1 N 3.63243 0.10506 -0.421312 0
M  V30 2 C 2.98254 -0.976515 0.335761 0
M  V30 3 C 1.58083 -0.478013 0.637905 0
M  V30 4 C 0.911548 -0.219528 -0.716043 0
M  V30 5 C -0.459906 0.268273 -0.426323 0
M  V30 6 N -0.683803 1.56807 -0.282326 0
M  V30 7 C -1.9062 2.03752 -0.0213172 0
M  V30 8 C -2.95066 1.15018 0.0995928 0
M  V30 9 C -2.69572 -0.216926 -0.0554204 0
M  V30 10 N -1.44414 -0.609052 -0.315646 0
M  V30 11 N -3.77395 -1.12559 0.0700031 0
M  V30 12 H 4.63052 0.152137 -0.0939174 0
M  V30 13 H 3.15781 1.02471 -0.240641 0
M  V30 14 H 3.48585 -1.12578 1.31382 0
M  V30 15 H 2.98357 -1.84612 -0.316403 0
M  V30 16 H 1.60623 0.502381 1.1461 0
M  V30 17 H 0.986427 -1.20473 1.22227 0
M  V30 18 H 1.50918 0.467563 -1.31001 0
M  V30 19 H 0.843016 -1.1861 -1.26583 0
M  V30 20 H -2.1119 3.11155 0.101455 0
M  V30 21 H -3.94551 1.5085 0.310142 0
M  V30 22 H -3.62383 -2.06066 0.474499 0
M  V30 23 H -4.71433 -0.846925 -0.246361 0
M  V30 END ATOM
M  V30 BEGIN BOND
M  V30 1 1 1 2
M  V30 2 1 2 3
M  V30 3 1 3 4
M  V30 4 1 4 5
M  V30 5 2 5 6
M  V30 6 1 6 7
M  V30 7 2 7 8
M  V30 8 1 8 9
M  V30 9 2 9 10
M  V30 10 1 9 11
M  V30 11 1 10 5
M  V30 12 1 1 12
M  V30 13 1 1 13
M  V30 14 1 2 14
M  V30 15 1 2 15
M  V30 16 1 3 16
M  V30 17 1 3 17
M  V30 18 1 4 18
M  V30 19 1 4 19
M  V30 20 1 7 20
M  V30 21 1 8 21
M  V30 22 1 11 22
M  V30 23 1 11 23
M  V30 END BOND
M  V30 END CTAB
M  END
