
     RDKit          3D

  0  0  0  0  0  0  0  0  0  0999 V3000
M  V30 BEGIN CTAB
M  V30 COUNTS 31 32 0 0 0
M  V30 BEGIN ATOM
M  V30 1 N -5.30471 0.703237 -0.450203 0
M  V30 2 C -4.01506 0.302591 -0.0161989 0
M  V30 3 N -3.68255 -0.158172 1.19771 0
M  V30 4 N -2.371 -0.435362 1.23734 0
M  V30 5 C -1.83079 -0.160001 0.0527415 0
M  V30 6 C -2.82942 0.304572 -0.759025 0
M  V30 7 C -0.412935 -0.311672 -0.360767 0 CFG=2
M  V30 8 C 0.0400605 -1.74937 -0.250626 0
M  V30 9 C 1.46132 -1.80868 -0.772193 0
M  V30 10 C 2.32218 -0.914062 0.0955444 0
M  V30 11 N 1.82784 0.424796 -0.0311637 0
M  V30 12 C 0.507071 0.498686 0.555394 0
M  V30 13 S 2.84754 1.54385 0.836822 0
M  V30 14 O 2.92105 1.17341 2.29069 0
M  V30 15 O 2.26134 2.92199 0.748931 0
M  V30 16 N 4.44432 1.50831 0.165118 0
M  V30 17 H -6.00438 0.0385186 -0.839097 0
M  V30 18 H -5.57543 1.70154 -0.382291 0
M  V30 19 H -1.87607 -0.813304 2.09507 0
M  V30 20 H -2.78213 0.630201 -1.79229 0
M  V30 21 H -0.267236 -0.00272311 -1.40373 0
M  V30 22 H -0.611979 -2.4305 -0.848746 0
M  V30 23 H 0.0215336 -2.0637 0.797507 0
M  V30 24 H 1.47343 -1.42211 -1.81734 0
M  V30 25 H 1.84909 -2.84778 -0.801405 0
M  V30 26 H 2.30105 -1.30999 1.12527 0
M  V30 27 H 3.37011 -0.929353 -0.289626 0
M  V30 28 H 0.154141 1.52175 0.697958 0
M  V30 29 H 0.499606 0.00753261 1.55188 0
M  V30 30 H 4.94367 2.35113 0.559595 0
M  V30 31 H 4.31835 1.72467 -0.866666 0
M  V30 END ATOM
M  V30 BEGIN BOND
M  V30 1 1 1 2
M  V30 2 2 2 3
M  V30 3 1 3 4
M  V30 4 1 4 5
M  V30 5 2 5 6
M  V30 6 1 5 7
M  V30 7 1 7 8
M  V30 8 1 8 9
M  V30 9 1 9 10
M  V30 10 1 10 11
M  V30 11 1 11 12
M  V30 12 1 11 13
M  V30 13 2 13 14
M  V30 14 2 13 15
M  V30 15 1 13 16
M  V30 16 1 6 2
M  V30 17 1 12 7
M  V30 18 1 1 17
M  V30 19 1 1 18
M  V30 20 1 4 19
M  V30 21 1 6 20
M  V30 22 1 7 21 CFG=3
M  V30 23 1 8 22
M  V30 24 1 8 23
M  V30 25 1 9 24
M  V30 26 1 9 25
M  V30 27 1 10 26
M  V30 28 1 10 27
M  V30 29 1 12 28
M  V30 30 1 12 29
M  V30 31 1 16 30
M  V30 32 1 16 31
M  V30 END BOND
M  V30 END CTAB
M  END
