
     RDKit          3D

  0  0  0  0  0  0  0  0  0  0999 V3000
M  V30 BEGIN CTAB
M  V30 COUNTS 31 32 0 0 0
M  V30 BEGIN ATOM
M  V30 1 C 5.98019 -0.7002 -0.0896338 0
M  V30 2 O 4.77299 -1.42751 0.0322702 0
M  V30 3 C 3.54144 -0.798844 -0.0255624 0
M  V30 4 C 3.5072 0.562236 -0.205759 0
M  V30 5 C 2.29559 1.25767 -0.272694 0
M  V30 6 C 1.0961 0.547928 -0.153097 0
M  V30 7 O -0.0694706 1.26477 -0.225295 0
M  V30 8 C -1.34542 0.845352 -0.00914575 0
M  V30 9 C -1.72483 0.380197 1.22874 0
M  V30 10 Cl -0.608151 0.316863 2.60598 0
M  V30 11 C -3.02756 -0.0398744 1.42429 0
M  V30 12 C -3.93219 0.00991382 0.386221 0
M  V30 13 N -5.26499 -0.421845 0.593166 0
M  V30 14 C -3.56541 0.478539 -0.873186 0
M  V30 15 N -4.52781 0.515417 -1.92097 0
M  V30 16 C -2.26784 0.893441 -1.0572 0
M  V30 17 C 1.15414 -0.801307 0.0246522 0
M  V30 18 C 2.36537 -1.5049 0.0928581 0
M  V30 19 H 6.06787 -0.0748425 0.841492 0
M  V30 20 H 6.82438 -1.42183 -0.163581 0
M  V30 21 H 5.97432 -0.0692771 -1.00662 0
M  V30 22 H 4.44731 1.08472 -0.294997 0
M  V30 23 H 2.25761 2.32873 -0.414266 0
M  V30 24 H -3.29747 -0.402626 2.41257 0
M  V30 25 H -5.43404 -1.39499 0.895118 0
M  V30 26 H -6.07059 0.209552 0.450356 0
M  V30 27 H -5.51491 0.836419 -1.78772 0
M  V30 28 H -4.24806 0.209269 -2.87655 0
M  V30 29 H -1.98743 1.25733 -2.03934 0
M  V30 30 H 0.239319 -1.35539 0.108794 0
M  V30 31 H 2.36233 -2.5849 0.236476 0
M  V30 END ATOM
M  V30 BEGIN BOND
M  V30 1 1 1 2
M  V30 2 1 2 3
M  V30 3 2 3 4
M  V30 4 1 4 5
M  V30 5 2 5 6
M  V30 6 1 6 7
M  V30 7 1 7 8
M  V30 8 2 8 9
M  V30 9 1 9 10
M  V30 10 1 9 11
M  V30 11 2 11 12
M  V30 12 1 12 13
M  V30 13 1 12 14
M  V30 14 1 14 15
M  V30 15 2 14 16
M  V30 16 1 6 17
M  V30 17 2 17 18
M  V30 18 1 18 3
M  V30 19 1 16 8
M  V30 20 1 1 19
M  V30 21 1 1 20
M  V30 22 1 1 21
M  V30 23 1 4 22
M  V30 24 1 5 23
M  V30 25 1 11 24
M  V30 26 1 13 25
M  V30 27 1 13 26
M  V30 28 1 15 27
M  V30 29 1 15 28
M  V30 30 1 16 29
M  V30 31 1 17 30
M  V30 32 1 18 31
M  V30 END BOND
M  V30 END CTAB
M  END
