
     RDKit          3D

  0  0  0  0  0  0  0  0  0  0999 V3000
M  V30 BEGIN CTAB
M  V30 COUNTS 38 39 0 0 0
M  V30 BEGIN ATOM
M  V30 1 N -7.76988 -0.285925 0.371737 0
M  V30 2 N -6.61775 0.475892 0.233539 0
M  V30 3 C -5.35321 -0.160392 0.278416 0
M  V30 4 O -5.25795 -1.4272 0.444509 0
M  V30 5 C -4.13515 0.641771 0.13274 0
M  V30 6 O -2.9756 -0.159402 0.202851 0
M  V30 7 C -1.73901 0.444604 0.0830144 0
M  V30 8 C -1.6497 1.80399 -0.101197 0
M  V30 9 C -0.417157 2.37593 -0.216629 0
M  V30 10 C 0.710576 1.58408 -0.146771 0
M  V30 11 C 0.640194 0.217447 0.0378099 0
M  V30 12 C 1.79272 -0.564675 0.105576 0
M  V30 13 O 3.01302 0.046944 -0.0147684 0
M  V30 14 C 4.18594 -0.733468 0.0521102 0
M  V30 15 C 5.41734 0.0855188 -0.0962737 0
M  V30 16 O 5.23519 1.34015 -0.257826 0
M  V30 17 N 6.70784 -0.477842 -0.0621622 0
M  V30 18 N 7.83127 0.326463 -0.205159 0
M  V30 19 C 1.72344 -1.92812 0.289687 0
M  V30 20 C 0.472141 -2.49426 0.404943 0
M  V30 21 C -0.668484 -1.71518 0.337203 0
M  V30 22 C -0.60884 -0.34863 0.152984 0
M  V30 23 H -8.12346 -0.33915 1.35051 0
M  V30 24 H -8.52432 0.0287635 -0.28907 0
M  V30 25 H -6.65579 1.50332 0.0975869 0
M  V30 26 H -4.06623 1.36163 0.990589 0
M  V30 27 H -4.08998 1.20109 -0.821359 0
M  V30 28 H -2.56512 2.39034 -0.150372 0
M  V30 29 H -0.340215 3.43631 -0.360562 0
M  V30 30 H 1.71763 1.99569 -0.233658 0
M  V30 31 H 4.13723 -1.5613 -0.673674 0
M  V30 32 H 4.22828 -1.20348 1.06992 0
M  V30 33 H 6.82592 -1.49533 0.0698003 0
M  V30 34 H 7.76317 0.825995 -1.14246 0
M  V30 35 H 7.7715 1.09506 0.502499 0
M  V30 36 H 2.61682 -2.54922 0.344205 0
M  V30 37 H 0.416295 -3.57089 0.550363 0
M  V30 38 H -1.64868 -2.16651 0.42854 0
M  V30 END ATOM
M  V30 BEGIN BOND
M  V30 1 1 1 2
M  V30 2 1 2 3
M  V30 3 2 3 4
M  V30 4 1 3 5
M  V30 5 1 5 6
M  V30 6 1 6 7
M  V30 7 2 7 8
M  V30 8 1 8 9
M  V30 9 2 9 10
M  V30 10 1 10 11
M  V30 11 2 11 12
M  V30 12 1 12 13
M  V30 13 1 13 14
M  V30 14 1 14 15
M  V30 15 2 15 16
M  V30 16 1 15 17
M  V30 17 1 17 18
M  V30 18 1 12 19
M  V30 19 2 19 20
M  V30 20 1 20 21
M  V30 21 2 21 22
M  V30 22 1 22 7
M  V30 23 1 22 11
M  V30 24 1 1 23
M  V30 25 1 1 24
M  V30 26 1 2 25
M  V30 27 1 5 26
M  V30 28 1 5 27
M  V30 29 1 8 28
M  V30 30 1 9 29
M  V30 31 1 10 30
M  V30 32 1 14 31
M  V30 33 1 14 32
M  V30 34 1 17 33
M  V30 35 1 18 34
M  V30 36 1 18 35
M  V30 37 1 19 36
M  V30 38 1 20 37
M  V30 39 1 21 38
M  V30 END BOND
M  V30 END CTAB
M  END
