
     RDKit          3D

  0  0  0  0  0  0  0  0  0  0999 V3000
M  V30 BEGIN CTAB
M  V30 COUNTS 24 25 0 0 0
M  V30 BEGIN ATOM
M  V30 1 N 4.25315 1.98719 0.436262 0
M  V30 2 C 3.30038 1.31393 0.314725 0
M  V30 3 C 2.15015 0.496099 0.145482 0
M  V30 4 C 2.25673 -0.889042 0.0811611 0
M  V30 5 N 3.5369 -1.51948 0.185122 0
M  V30 6 N 1.14674 -1.62872 -0.0794219 0
M  V30 7 C -0.0918415 -1.11851 -0.185475 0
M  V30 8 C -0.219402 0.251813 -0.124288 0
M  V30 9 C 0.888378 1.05042 0.0393089 0
M  V30 10 N 0.767057 2.47846 0.104377 0
M  V30 11 C -1.67157 0.532878 -0.267314 0
M  V30 12 C -2.2817 -0.750306 0.211437 0
M  V30 13 O -1.36391 -1.69907 -0.354701 0
M  V30 14 C -3.6779 -0.975673 -0.293711 0
M  V30 15 F -3.69864 -1.01782 -1.67695 0
M  V30 16 F -4.48607 -0.0095142 0.229999 0
M  V30 17 F -4.08776 -2.2173 0.168563 0
M  V30 18 H 4.16188 -1.67452 -0.636911 0
M  V30 19 H 3.80296 -1.81815 1.16458 0
M  V30 20 H -0.0583705 2.93296 0.553378 0
M  V30 21 H 1.5216 3.07517 -0.306741 0
M  V30 22 H -1.87373 0.631381 -1.34626 0
M  V30 23 H -1.98666 1.41354 0.320345 0
M  V30 24 H -2.28837 -0.84574 1.31704 0
M  V30 END ATOM
M  V30 BEGIN BOND
M  V30 1 3 1 2
M  V30 2 1 2 3
M  V30 3 2 3 4
M  V30 4 1 4 5
M  V30 5 1 4 6
M  V30 6 2 6 7
M  V30 7 1 7 8
M  V30 8 2 8 9
M  V30 9 1 9 10
M  V30 10 1 8 11
M  V30 11 1 11 12
M  V30 12 1 12 13
M  V30 13 1 12 14
M  V30 14 1 14 15
M  V30 15 1 14 16
M  V30 16 1 14 17
M  V30 17 1 9 3
M  V30 18 1 13 7
M  V30 19 1 5 18
M  V30 20 1 5 19
M  V30 21 1 10 20
M  V30 22 1 10 21
M  V30 23 1 11 22
M  V30 24 1 11 23
M  V30 25 1 12 24
M  V30 END BOND
M  V30 END CTAB
M  END
