
     RDKit          3D

  0  0  0  0  0  0  0  0  0  0999 V3000
M  V30 BEGIN CTAB
M  V30 COUNTS 52 54 0 0 0
M  V30 BEGIN ATOM
M  V30 1 N -7.28142 -0.270758 -0.157909 0
M  V30 2 C -6.84702 1.09174 0.0126293 0
M  V30 3 C -5.7091 1.50716 -0.899518 0
M  V30 4 C -4.75329 1.64536 0.271381 0
M  V30 5 C -5.89639 1.31897 1.19286 0
M  V30 6 C -3.69281 0.578362 0.186605 0
M  V30 7 C -2.3528 0.905424 0.182493 0
M  V30 8 C -1.41203 -0.0999806 0.104437 0
M  V30 9 N -1.8542 -1.35342 0.0364891 0
M  V30 10 C -3.157 -1.72056 0.0377515 0
M  V30 11 N -4.06492 -0.711767 0.115083 0
M  V30 12 N -3.56039 -3.0783 -0.0367093 0
M  V30 13 N -0.0132142 0.175696 0.0914079 0
M  V30 14 C 0.929542 -0.936266 0.00853198 0
M  V30 15 C 1.66219 -0.96474 -1.32551 0
M  V30 16 C 2.59285 -2.14838 -1.25897 0
M  V30 17 O 3.51367 -2.05992 -0.235544 0
M  V30 18 C 4.51441 -1.14499 -0.121961 0
M  V30 19 C 4.83851 -0.158848 -1.00343 0
M  V30 20 C 5.87091 0.756228 -0.834804 0
M  V30 21 C 6.64409 0.680973 0.305718 0
M  V30 22 C 6.34134 -0.310305 1.21977 0
M  V30 23 C 5.32417 -1.1978 1.03626 0
M  V30 24 C 7.75723 1.61688 0.553166 0
M  V30 25 C 0.558874 1.48469 0.150881 0
M  V30 26 H -7.05159 -0.655758 -1.10015 0
M  V30 27 H -7.06927 -0.895872 0.625092 0
M  V30 28 H -7.68488 1.79869 -0.0384191 0
M  V30 29 H -5.8639 2.49668 -1.37868 0
M  V30 30 H -5.42796 0.739581 -1.64054 0
M  V30 31 H -4.32522 2.64675 0.380653 0
M  V30 32 H -6.26688 2.17492 1.8151 0
M  V30 33 H -5.73587 0.394698 1.78389 0
M  V30 34 H -2.08744 1.94655 0.240576 0
M  V30 35 H -3.28968 -3.67795 -0.834175 0
M  V30 36 H -4.13791 -3.48251 0.720532 0
M  V30 37 H 0.425768 -1.90736 0.158506 0
M  V30 38 H 1.65687 -0.794057 0.809149 0
M  V30 39 H 2.10367 -0.0257797 -1.5812 0
M  V30 40 H 0.919316 -1.19955 -2.15483 0
M  V30 41 H 1.94276 -3.05836 -1.13919 0
M  V30 42 H 3.08805 -2.31245 -2.26695 0
M  V30 43 H 4.2864 -0.0699236 -1.92957 0
M  V30 44 H 6.10797 1.53047 -1.54725 0
M  V30 45 H 6.96968 -0.350796 2.1168 0
M  V30 46 H 5.09314 -1.97878 1.76706 0
M  V30 47 H 8.39768 1.7258 -0.353082 0
M  V30 48 H 8.338 1.25296 1.41463 0
M  V30 49 H 7.30142 2.61514 0.785988 0
M  V30 50 H 1.45943 1.58053 -0.524938 0
M  V30 51 H -0.116863 2.32268 -0.00309937 0
M  V30 52 H 1.01411 1.57827 1.18251 0
M  V30 END ATOM
M  V30 BEGIN BOND
M  V30 1 1 1 2
M  V30 2 1 2 3
M  V30 3 1 3 4
M  V30 4 1 4 5
M  V30 5 1 4 6
M  V30 6 2 6 7
M  V30 7 1 7 8
M  V30 8 2 8 9
M  V30 9 1 9 10
M  V30 10 2 10 11
M  V30 11 1 10 12
M  V30 12 1 8 13
M  V30 13 1 13 14
M  V30 14 1 14 15
M  V30 15 1 15 16
M  V30 16 1 16 17
M  V30 17 1 17 18
M  V30 18 2 18 19
M  V30 19 1 19 20
M  V30 20 2 20 21
M  V30 21 1 21 22
M  V30 22 2 22 23
M  V30 23 1 21 24
M  V30 24 1 13 25
M  V30 25 1 5 2
M  V30 26 1 11 6
M  V30 27 1 23 18
M  V30 28 1 1 26
M  V30 29 1 1 27
M  V30 30 1 2 28
M  V30 31 1 3 29
M  V30 32 1 3 30
M  V30 33 1 4 31
M  V30 34 1 5 32
M  V30 35 1 5 33
M  V30 36 1 7 34
M  V30 37 1 12 35
M  V30 38 1 12 36
M  V30 39 1 14 37
M  V30 40 1 14 38
M  V30 41 1 15 39
M  V30 42 1 15 40
M  V30 43 1 16 41
M  V30 44 1 16 42
M  V30 45 1 19 43
M  V30 46 1 20 44
M  V30 47 1 22 45
M  V30 48 1 23 46
M  V30 49 1 24 47
M  V30 50 1 24 48
M  V30 51 1 24 49
M  V30 52 1 25 50
M  V30 53 1 25 51
M  V30 54 1 25 52
M  V30 END BOND
M  V30 END CTAB
M  END
