
     RDKit          3D

  0  0  0  0  0  0  0  0  0  0999 V3000
M  V30 BEGIN CTAB
M  V30 COUNTS 15 15 0 0 0
M  V30 BEGIN ATOM
M  V30 1 N -2.39785 -0.954434 -0.270953 0
M  V30 2 C -1.21965 -0.140462 -0.0316155 0
M  V30 3 N -1.3701 1.07711 0.323175 0
M  V30 4 N -0.331521 1.96264 0.583148 0
M  V30 5 N 0.952535 1.44489 0.434329 0
M  V30 6 C 1.17833 0.245661 0.0850131 0
M  V30 7 N 2.56703 -0.130985 -0.0224817 0
M  V30 8 C 0.115907 -0.722163 -0.198993 0
M  V30 9 H -3.31887 -0.562516 -0.521383 0
M  V30 10 H -2.29245 -1.97336 -0.182295 0
M  V30 11 H -0.458864 2.94071 0.868142 0
M  V30 12 H 3.27551 0.158814 0.685405 0
M  V30 13 H 2.80789 -0.711045 -0.855718 0
M  V30 14 H 0.243554 -0.97674 -1.29998 0
M  V30 15 H 0.248543 -1.65812 0.404205 0
M  V30 END ATOM
M  V30 BEGIN BOND
M  V30 1 1 1 2
M  V30 2 2 2 3
M  V30 3 1 3 4
M  V30 4 1 4 5
M  V30 5 2 5 6
M  V30 6 1 6 7
M  V30 7 1 6 8
M  V30 8 1 8 2
M  V30 9 1 1 9
M  V30 10 1 1 10
M  V30 11 1 4 11
M  V30 12 1 7 12
M  V30 13 1 7 13
M  V30 14 1 8 14
M  V30 15 1 8 15
M  V30 END BOND
M  V30 END CTAB
M  END
