
     RDKit          3D

  0  0  0  0  0  0  0  0  0  0999 V3000
M  V30 BEGIN CTAB
M  V30 COUNTS 37 38 0 0 0
M  V30 BEGIN ATOM
M  V30 1 N -2.70875 -2.98068 0.543968 0
M  V30 2 C -2.24189 -1.92422 -0.186845 0
M  V30 3 C -1.38159 -0.913623 0.615485 0
M  V30 4 N -0.984307 0.112113 -0.215031 0
M  V30 5 C -2.00085 0.992787 -0.731307 0
M  V30 6 C -2.02513 2.31258 0.0365196 0
M  V30 7 C -0.6744 2.97911 -0.243301 0
M  V30 8 C 0.361849 2.09108 0.377022 0
M  V30 9 C 0.265857 0.719338 -0.243992 0 CFG=1
M  V30 10 C 1.51271 -0.00577838 -0.326284 0
M  V30 11 C 2.07493 -0.356796 -1.54811 0
M  V30 12 C 3.18167 -1.16892 -1.68471 0
M  V30 13 C 3.78117 -1.67962 -0.52425 0
M  V30 14 C 3.22236 -1.3217 0.683389 0
M  V30 15 C 2.13873 -0.522531 0.818501 0
M  V30 16 N 1.6222 -0.0860792 2.06176 0
M  V30 17 H -3.54331 -2.80915 1.04822 0
M  V30 18 H -2.71306 -3.8482 0.0632532 0
M  V30 19 H -3.12587 -1.3547 -0.594129 0
M  V30 20 H -1.60868 -2.27708 -1.03563 0
M  V30 21 H -0.501634 -1.55539 0.882382 0
M  V30 22 H -1.93009 -0.676354 1.54907 0
M  V30 23 H -1.63334 1.2908 -1.75944 0
M  V30 24 H -2.9753 0.558247 -0.850825 0
M  V30 25 H -2.06937 2.04016 1.10347 0
M  V30 26 H -2.87602 2.901 -0.310726 0
M  V30 27 H -0.678525 3.99332 0.224375 0
M  V30 28 H -0.502953 3.08202 -1.32211 0
M  V30 29 H 1.32327 2.55147 0.236991 0
M  V30 30 H 0.0417795 2.03622 1.46655 0
M  V30 31 H 0.214962 1.13124 -1.40307 0
M  V30 32 H 1.65561 0.00699808 -2.50488 0
M  V30 33 H 3.59936 -1.43445 -2.67149 0
M  V30 34 H 4.65144 -2.32418 -0.591278 0
M  V30 35 H 3.68902 -1.7103 1.61339 0
M  V30 36 H 0.999664 -0.701106 2.59576 0
M  V30 37 H 1.83847 0.852368 2.50404 0
M  V30 END ATOM
M  V30 BEGIN BOND
M  V30 1 1 1 2
M  V30 2 1 2 3
M  V30 3 1 3 4
M  V30 4 1 4 5
M  V30 5 1 5 6
M  V30 6 1 6 7
M  V30 7 1 7 8
M  V30 8 1 8 9
M  V30 9 1 9 10
M  V30 10 2 10 11
M  V30 11 1 11 12
M  V30 12 2 12 13
M  V30 13 1 13 14
M  V30 14 2 14 15
M  V30 15 1 15 16
M  V30 16 1 9 4
M  V30 17 1 15 10
M  V30 18 1 1 17
M  V30 19 1 1 18
M  V30 20 1 2 19
M  V30 21 1 2 20
M  V30 22 1 3 21
M  V30 23 1 3 22
M  V30 24 1 5 23
M  V30 25 1 5 24
M  V30 26 1 6 25
M  V30 27 1 6 26
M  V30 28 1 7 27
M  V30 29 1 7 28
M  V30 30 1 8 29
M  V30 31 1 8 30
M  V30 32 1 9 31 CFG=3
M  V30 33 1 11 32
M  V30 34 1 12 33
M  V30 35 1 13 34
M  V30 36 1 14 35
M  V30 37 1 16 36
M  V30 38 1 16 37
M  V30 END BOND
M  V30 END CTAB
M  END
