
     RDKit          3D

  0  0  0  0  0  0  0  0  0  0999 V3000
M  V30 BEGIN CTAB
M  V30 COUNTS 45 47 0 0 0
M  V30 BEGIN ATOM
M  V30 1 C 5.13813 -1.28099 0.0735686 0
M  V30 2 C 4.37052 -0.951934 1.35409 0
M  V30 3 C 2.92561 -1.27997 1.1367 0
M  V30 4 C 2.39669 -0.445086 -0.024605 0
M  V30 5 C 0.970545 -0.712135 -0.293584 0
M  V30 6 N 0.479723 -1.66958 -1.08115 0
M  V30 7 C -0.854899 -1.6286 -1.08306 0
M  V30 8 C -1.81336 -2.39526 -1.69398 0
M  V30 9 N -1.40811 -3.45778 -2.54662 0
M  V30 10 N -3.12588 -2.18689 -1.52257 0
M  V30 11 C -3.50887 -1.18116 -0.715131 0
M  V30 12 C -4.86939 -1.00075 -0.533202 0
M  V30 13 C -5.28727 0.0032407 0.30299 0
M  V30 14 C -4.39081 0.821624 0.953327 0
M  V30 15 C -3.01969 0.642698 0.771158 0
M  V30 16 C -2.6008 -0.35167 -0.0562109 0
M  V30 17 C -1.24754 -0.572012 -0.239603 0
M  V30 18 N -0.106742 -0.0239105 0.230374 0
M  V30 19 C 0.0818215 1.05625 1.13197 0
M  V30 20 C 0.405279 2.40352 0.584214 0
M  V30 21 C -0.502057 3.0611 -0.376052 0
M  V30 22 N 0.0327393 4.37467 -0.80462 0
M  V30 23 H 5.34188 -0.354187 -0.51929 0
M  V30 24 H 6.08615 -1.78926 0.381959 0
M  V30 25 H 4.58177 -1.99094 -0.540489 0
M  V30 26 H 4.80189 -1.47527 2.2087 0
M  V30 27 H 4.48729 0.124213 1.51376 0
M  V30 28 H 2.79458 -2.34647 0.809661 0
M  V30 29 H 2.31461 -1.15712 2.0344 0
M  V30 30 H 2.66977 0.584712 0.149416 0
M  V30 31 H 2.99841 -0.765008 -0.929752 0
M  V30 32 H -1.77613 -3.52781 -3.50577 0
M  V30 33 H -0.740977 -4.16499 -2.20502 0
M  V30 34 H -5.59961 -1.62429 -1.02806 0
M  V30 35 H -6.34696 0.127438 0.432788 0
M  V30 36 H -4.78146 1.60025 1.60381 0
M  V30 37 H -2.42199 1.32946 1.29572 0
M  V30 38 H -0.639363 1.14119 1.94727 0
M  V30 39 H 1.099 0.826716 1.72148 0
M  V30 40 H 1.48717 2.53276 0.305907 0
M  V30 41 H 0.365265 3.08565 1.5211 0
M  V30 42 H -1.52893 3.21181 0.0202032 0
M  V30 43 H -0.590461 2.44548 -1.29031 0
M  V30 44 H 0.772474 4.23691 -1.54019 0
M  V30 45 H 0.559992 4.72336 0.0446946 0
M  V30 END ATOM
M  V30 BEGIN BOND
M  V30 1 1 1 2
M  V30 2 1 2 3
M  V30 3 1 3 4
M  V30 4 1 4 5
M  V30 5 2 5 6
M  V30 6 1 6 7
M  V30 7 2 7 8
M  V30 8 1 8 9
M  V30 9 1 8 10
M  V30 10 2 10 11
M  V30 11 1 11 12
M  V30 12 2 12 13
M  V30 13 1 13 14
M  V30 14 2 14 15
M  V30 15 1 15 16
M  V30 16 2 16 17
M  V30 17 1 17 18
M  V30 18 1 18 19
M  V30 19 1 19 20
M  V30 20 1 20 21
M  V30 21 1 21 22
M  V30 22 1 18 5
M  V30 23 1 17 7
M  V30 24 1 16 11
M  V30 25 1 1 23
M  V30 26 1 1 24
M  V30 27 1 1 25
M  V30 28 1 2 26
M  V30 29 1 2 27
M  V30 30 1 3 28
M  V30 31 1 3 29
M  V30 32 1 4 30
M  V30 33 1 4 31
M  V30 34 1 9 32
M  V30 35 1 9 33
M  V30 36 1 12 34
M  V30 37 1 13 35
M  V30 38 1 14 36
M  V30 39 1 15 37
M  V30 40 1 19 38
M  V30 41 1 19 39
M  V30 42 1 20 40
M  V30 43 1 20 41
M  V30 44 1 21 42
M  V30 45 1 21 43
M  V30 46 1 22 44
M  V30 47 1 22 45
M  V30 END BOND
M  V30 END CTAB
M  END
