
     RDKit          3D

  0  0  0  0  0  0  0  0  0  0999 V3000
M  V30 BEGIN CTAB
M  V30 COUNTS 40 41 0 0 0
M  V30 BEGIN ATOM
M  V30 1 C 4.21544 -2.13912 1.8292 0
M  V30 2 C 4.20424 -2.00822 0.326031 0
M  V30 3 C 3.45699 -0.837239 -0.146144 0
M  V30 4 C 2.11579 -0.960688 -0.411751 0
M  V30 5 C 1.33715 0.0905503 -0.859546 0
M  V30 6 C 1.89014 1.31998 -1.05706 0
M  V30 7 C 3.26087 1.45817 -0.789345 0
M  V30 8 C 4.02762 0.405315 -0.344312 0
M  V30 9 N 1.12843 2.39974 -1.54949 0
M  V30 10 S -0.259785 2.98738 -0.794447 0
M  V30 11 O -0.76644 4.20221 -1.58131 0
M  V30 12 O 0.0526071 3.54788 0.583411 0
M  V30 13 C -1.53746 1.81396 -0.679945 0
M  V30 14 C -2.30217 1.47456 -1.77521 0
M  V30 15 C -3.34472 0.576923 -1.69034 0
M  V30 16 C -3.68152 -0.0339256 -0.498676 0
M  V30 17 C -2.92692 0.293376 0.609758 0
M  V30 18 C -1.88387 1.19085 0.52699 0
M  V30 19 S -3.35085 -0.478234 2.11968 0
M  V30 20 O -2.45407 -0.00282076 3.20969 0
M  V30 21 O -4.78432 -0.149025 2.47677 0
M  V30 22 N -3.22809 -2.1925 2.0252 0
M  V30 23 N -4.76165 -0.955901 -0.439873 0
M  V30 24 H 4.39502 -3.21148 2.05926 0
M  V30 25 H 5.10339 -1.59175 2.24731 0
M  V30 26 H 3.27472 -1.84709 2.29987 0
M  V30 27 H 3.76261 -2.91203 -0.157624 0
M  V30 28 H 5.25971 -1.96777 -0.0400065 0
M  V30 29 H 1.62505 -1.91895 -0.270129 0
M  V30 30 H 0.297238 -0.126047 -1.05872 0
M  V30 31 H 3.72665 2.43189 -0.940516 0
M  V30 32 H 5.08231 0.490134 -0.132701 0
M  V30 33 H 1.43172 2.88618 -2.45147 0
M  V30 34 H -2.06033 1.93924 -2.72543 0
M  V30 35 H -3.95488 0.305885 -2.56344 0
M  V30 36 H -1.29145 1.44888 1.39333 0
M  V30 37 H -2.60511 -2.59782 2.75357 0
M  V30 38 H -4.15551 -2.66123 1.95469 0
M  V30 39 H -5.77061 -0.701542 -0.423564 0
M  V30 40 H -4.52793 -1.96971 -0.410594 0
M  V30 END ATOM
M  V30 BEGIN BOND
M  V30 1 1 1 2
M  V30 2 1 2 3
M  V30 3 2 3 4
M  V30 4 1 4 5
M  V30 5 2 5 6
M  V30 6 1 6 7
M  V30 7 2 7 8
M  V30 8 1 6 9
M  V30 9 1 9 10
M  V30 10 2 10 11
M  V30 11 2 10 12
M  V30 12 1 10 13
M  V30 13 2 13 14
M  V30 14 1 14 15
M  V30 15 2 15 16
M  V30 16 1 16 17
M  V30 17 2 17 18
M  V30 18 1 17 19
M  V30 19 2 19 20
M  V30 20 2 19 21
M  V30 21 1 19 22
M  V30 22 1 16 23
M  V30 23 1 8 3
M  V30 24 1 18 13
M  V30 25 1 1 24
M  V30 26 1 1 25
M  V30 27 1 1 26
M  V30 28 1 2 27
M  V30 29 1 2 28
M  V30 30 1 4 29
M  V30 31 1 5 30
M  V30 32 1 7 31
M  V30 33 1 8 32
M  V30 34 1 9 33
M  V30 35 1 14 34
M  V30 36 1 15 35
M  V30 37 1 18 36
M  V30 38 1 22 37
M  V30 39 1 22 38
M  V30 40 1 23 39
M  V30 41 1 23 40
M  V30 END BOND
M  V30 END CTAB
M  END
