
     RDKit          3D

  0  0  0  0  0  0  0  0  0  0999 V3000
M  V30 BEGIN CTAB
M  V30 COUNTS 100 102 0 0 0
M  V30 BEGIN ATOM
M  V30 1 C -1.54432 -3.35482 -1.81284 0
M  V30 2 C -2.50556 -3.40397 -0.642249 0
M  V30 3 C -3.64466 -4.32246 -1.15628 0
M  V30 4 C -1.92073 -4.13319 0.516452 0
M  V30 5 C -3.06127 -2.0558 -0.358098 0
M  V30 6 C -2.34691 -0.924894 -0.0300792 0
M  V30 7 C -0.948738 -0.776569 0.241993 0
M  V30 8 C -0.446184 -0.94774 1.6664 0 CFG=2
M  V30 9 N -0.986733 0.0517161 2.52964 0
M  V30 10 C 1.02333 -0.924476 1.53643 0
M  V30 11 O 1.63895 -1.9249 2.0903 0
M  V30 12 N 1.80223 0.0277814 0.884938 0
M  V30 13 C 3.25938 -0.188648 0.839157 0 CFG=1
M  V30 14 C 3.67924 -1.11896 -0.252637 0
M  V30 15 C 5.14334 -1.42352 -0.109084 0
M  V30 16 C 5.67936 -2.34902 -1.18881 0
M  V30 17 N 7.08169 -2.54402 -0.905806 0
M  V30 18 C 7.90975 -3.32144 -1.74666 0
M  V30 19 N 7.76786 -4.73319 -1.77321 0
M  V30 20 N 8.79253 -2.73279 -2.48587 0
M  V30 21 C 3.80611 1.16048 0.691445 0
M  V30 22 O 3.47239 2.02418 1.57428 0
M  V30 23 N 4.65062 1.58797 -0.33935 0
M  V30 24 C 5.21673 2.89639 -0.468725 0
M  V30 25 C 6.52088 2.97669 0.242047 0
M  V30 26 C 6.88677 2.08882 1.20022 0
M  V30 27 C 8.15522 2.19317 1.78334 0
M  V30 28 C 9.03275 3.17011 1.40606 0
M  V30 29 C 8.65065 4.06378 0.435473 0
M  V30 30 C 7.4216 3.98136 -0.144496 0
M  V30 31 C -3.32622 0.0764795 0.0340562 0
M  V30 32 C -4.56781 -0.451515 -0.243069 0
M  V30 33 N -4.38905 -1.75722 -0.48002 0
M  V30 34 C -5.71409 0.339134 -0.250128 0
M  V30 35 C -5.55182 1.67825 0.0337696 0
M  V30 36 C -4.32324 2.23436 0.313814 0
M  V30 37 C -3.19757 1.43048 0.314944 0
M  V30 38 C -4.19058 3.68735 0.598343 0
M  V30 39 C -5.54514 4.32096 0.800235 0
M  V30 40 C -3.45643 4.32876 -0.568241 0
M  V30 41 C -3.41964 3.85918 1.87681 0
M  V30 42 C -7.04888 -0.180975 -0.564667 0
M  V30 43 C -6.99239 -0.731513 -1.97312 0
M  V30 44 C -7.57141 -1.19959 0.416615 0
M  V30 45 C -8.04619 0.970157 -0.550938 0
M  V30 46 H -1.6863 -2.45404 -2.45163 0
M  V30 47 H -1.69843 -4.24489 -2.46152 0
M  V30 48 H -0.502296 -3.46155 -1.43473 0
M  V30 49 H -4.26965 -3.82173 -1.90484 0
M  V30 50 H -3.08728 -5.16728 -1.65278 0
M  V30 51 H -4.18589 -4.76686 -0.322094 0
M  V30 52 H -0.809291 -3.93323 0.619084 0
M  V30 53 H -2.3562 -3.74 1.45892 0
M  V30 54 H -2.11219 -5.21797 0.513836 0
M  V30 55 H -0.262414 -1.34637 -0.417112 0
M  V30 56 H -0.655279 0.30651 0.00514734 0
M  V30 57 H -0.710351 -1.96518 2.08787 0
M  V30 58 H -1.04733 -0.29937 3.50509 0
M  V30 59 H -0.426342 0.927508 2.43042 0
M  V30 60 H 1.34499 0.857136 0.450778 0
M  V30 61 H 3.5187 -0.715579 1.78552 0
M  V30 62 H 3.06842 -2.06594 -0.228683 0
M  V30 63 H 3.53564 -0.656109 -1.26948 0
M  V30 64 H 5.81503 -0.598274 0.0807647 0
M  V30 65 H 5.28094 -2.0646 0.850482 0
M  V30 66 H 5.53229 -1.95874 -2.1973 0
M  V30 67 H 5.20177 -3.3546 -1.08515 0
M  V30 68 H 7.54634 -2.11394 -0.0566816 0
M  V30 69 H 8.54658 -5.34157 -2.12947 0
M  V30 70 H 6.88736 -5.19692 -1.43771 0
M  V30 71 H 8.8829 -1.67874 -2.44943 0
M  V30 72 H 4.88115 0.931751 -1.14899 0
M  V30 73 H 4.54791 3.67756 0.00553436 0
M  V30 74 H 5.32434 3.1692 -1.54526 0
M  V30 75 H 6.22258 1.27758 1.54165 0
M  V30 76 H 8.44463 1.48191 2.55131 0
M  V30 77 H 10.0415 3.28877 1.83593 0
M  V30 78 H 9.33962 4.84855 0.124457 0
M  V30 79 H 7.09121 4.66301 -0.908829 0
M  V30 80 H -5.15867 -2.44966 -0.721179 0
M  V30 81 H -6.4032 2.35837 0.0503669 0
M  V30 82 H -2.24369 1.88221 0.523979 0
M  V30 83 H -6.114 4.36826 -0.125894 0
M  V30 84 H -5.36744 5.31866 1.25661 0
M  V30 85 H -6.08042 3.72291 1.57005 0
M  V30 86 H -3.36587 5.40656 -0.399387 0
M  V30 87 H -2.47861 3.8098 -0.653344 0
M  V30 88 H -4.02461 4.06909 -1.4874 0
M  V30 89 H -3.94549 3.32368 2.67618 0
M  V30 90 H -3.37649 4.93007 2.17328 0
M  V30 91 H -2.41172 3.40199 1.81438 0
M  V30 92 H -5.93795 -0.868191 -2.32377 0
M  V30 93 H -7.6056 -1.61729 -2.13937 0
M  V30 94 H -7.39041 0.0763774 -2.6489 0
M  V30 95 H -6.90906 -1.21962 1.31152 0
M  V30 96 H -7.68241 -2.22037 -0.0512156 0
M  V30 97 H -8.5765 -0.951843 0.798775 0
M  V30 98 H -9.08557 0.603104 -0.810317 0
M  V30 99 H -7.78868 1.7574 -1.30257 0
M  V30 100 H -8.14412 1.38616 0.470568 0
M  V30 END ATOM
M  V30 BEGIN BOND
M  V30 1 1 1 2
M  V30 2 1 2 3
M  V30 3 1 2 4
M  V30 4 1 2 5
M  V30 5 2 5 6
M  V30 6 1 6 7
M  V30 7 1 7 8
M  V30 8 1 8 9
M  V30 9 1 8 10
M  V30 10 2 10 11
M  V30 11 1 10 12
M  V30 12 1 12 13
M  V30 13 1 13 14
M  V30 14 1 14 15
M  V30 15 1 15 16
M  V30 16 1 16 17
M  V30 17 1 17 18
M  V30 18 1 18 19
M  V30 19 2 18 20 CFG=2
M  V30 20 1 13 21
M  V30 21 2 21 22
M  V30 22 1 21 23
M  V30 23 1 23 24
M  V30 24 1 24 25
M  V30 25 2 25 26
M  V30 26 1 26 27
M  V30 27 2 27 28
M  V30 28 1 28 29
M  V30 29 2 29 30
M  V30 30 1 6 31
M  V30 31 2 31 32
M  V30 32 1 32 33
M  V30 33 1 32 34
M  V30 34 2 34 35
M  V30 35 1 35 36
M  V30 36 2 36 37
M  V30 37 1 36 38
M  V30 38 1 38 39
M  V30 39 1 38 40
M  V30 40 1 38 41
M  V30 41 1 34 42
M  V30 42 1 42 43
M  V30 43 1 42 44
M  V30 44 1 42 45
M  V30 45 1 33 5
M  V30 46 1 30 25
M  V30 47 1 37 31
M  V30 48 1 1 46
M  V30 49 1 1 47
M  V30 50 1 1 48
M  V30 51 1 3 49
M  V30 52 1 3 50
M  V30 53 1 3 51
M  V30 54 1 4 52
M  V30 55 1 4 53
M  V30 56 1 4 54
M  V30 57 1 7 55
M  V30 58 1 7 56
M  V30 59 1 8 57 CFG=1
M  V30 60 1 9 58
M  V30 61 1 9 59
M  V30 62 1 12 60
M  V30 63 1 13 61 CFG=1
M  V30 64 1 14 62
M  V30 65 1 14 63
M  V30 66 1 15 64
M  V30 67 1 15 65
M  V30 68 1 16 66
M  V30 69 1 16 67
M  V30 70 1 17 68
M  V30 71 1 19 69
M  V30 72 1 19 70
M  V30 73 1 20 71
M  V30 74 1 23 72
M  V30 75 1 24 73
M  V30 76 1 24 74
M  V30 77 1 26 75
M  V30 78 1 27 76
M  V30 79 1 28 77
M  V30 80 1 29 78
M  V30 81 1 30 79
M  V30 82 1 33 80
M  V30 83 1 35 81
M  V30 84 1 37 82
M  V30 85 1 39 83
M  V30 86 1 39 84
M  V30 87 1 39 85
M  V30 88 1 40 86
M  V30 89 1 40 87
M  V30 90 1 40 88
M  V30 91 1 41 89
M  V30 92 1 41 90
M  V30 93 1 41 91
M  V30 94 1 43 92
M  V30 95 1 43 93
M  V30 96 1 43 94
M  V30 97 1 44 95
M  V30 98 1 44 96
M  V30 99 1 44 97
M  V30 100 1 45 98
M  V30 101 1 45 99
M  V30 102 1 45 100
M  V30 END BOND
M  V30 END CTAB
M  END
