
     RDKit          3D

  0  0  0  0  0  0  0  0  0  0999 V3000
M  V30 BEGIN CTAB
M  V30 COUNTS 50 53 0 0 0
M  V30 BEGIN ATOM
M  V30 1 C 0.508096 0.912063 -0.237185 0 CFG=1
M  V30 2 O 0.0853797 2.14268 -0.67776 0
M  V30 3 C -1.19337 2.27604 -0.0890137 0
M  V30 4 C -1.82425 0.902483 -0.135324 0 CFG=1
M  V30 5 O -2.87603 0.896663 -1.03742 0
M  V30 6 C -4.18437 0.582708 -0.807759 0
M  V30 7 C -4.67953 0.204397 0.422326 0
M  V30 8 C -6.00338 -0.109473 0.637968 0
M  V30 9 C -6.83687 -0.0244929 -0.471188 0
M  V30 10 C -6.36691 0.350753 -1.70998 0
M  V30 11 C -5.04319 0.658369 -1.89818 0
M  V30 12 C -6.53728 -0.510122 1.93221 0
M  V30 13 N -7.91713 -0.813603 2.05272 0
M  V30 14 N -5.80246 -0.600911 2.97987 0
M  V30 15 C -0.663685 0.0312867 -0.551176 0 CFG=1
M  V30 16 O -0.54794 -0.0612645 -1.93704 0
M  V30 17 C 0.788322 -0.352731 -2.18875 0
M  V30 18 C 1.60512 0.298862 -1.07248 0 CFG=2
M  V30 19 O 2.28509 -0.64097 -0.313842 0
M  V30 20 C 3.63016 -0.603959 -0.0632105 0
M  V30 21 C 4.48943 0.352147 -0.517835 0
M  V30 22 C 5.86141 0.339819 -0.229167 0
M  V30 23 C 6.39414 -0.665726 0.542679 0
M  V30 24 C 5.55778 -1.65062 1.02096 0
M  V30 25 C 4.22369 -1.61237 0.722957 0
M  V30 26 C 7.82145 -0.651164 0.82496 0
M  V30 27 N 8.62639 0.409243 0.290533 0
M  V30 28 N 8.39885 -1.54429 1.53181 0
M  V30 29 H 0.69228 0.915747 0.81691 0
M  V30 30 H -1.79364 3.04449 -0.60726 0
M  V30 31 H -0.997857 2.5928 0.956217 0
M  V30 32 H -2.07912 0.615969 0.903388 0
M  V30 33 H -4.01534 0.143456 1.27632 0
M  V30 34 H -7.88291 -0.261841 -0.347729 0
M  V30 35 H -7.02047 0.419426 -2.58864 0
M  V30 36 H -4.65344 0.959735 -2.88221 0
M  V30 37 H -8.55343 -0.113492 2.48176 0
M  V30 38 H -8.3099 -1.71609 1.72419 0
M  V30 39 H -4.79981 -0.419114 3.06286 0
M  V30 40 H -0.64364 -0.943159 -0.0485757 0
M  V30 41 H 0.983953 -1.43919 -2.23297 0
M  V30 42 H 1.09064 0.120219 -3.12787 0
M  V30 43 H 2.23686 1.09843 -1.47038 0
M  V30 44 H 4.10198 1.16549 -1.13327 0
M  V30 45 H 6.45436 1.14683 -0.639965 0
M  V30 46 H 5.99685 -2.44743 1.63605 0
M  V30 47 H 3.5916 -2.3958 1.1102 0
M  V30 48 H 8.54441 0.636903 -0.740291 0
M  V30 49 H 9.28419 0.969978 0.842541 0
M  V30 50 H 7.9735 -2.36678 1.98704 0
M  V30 END ATOM
M  V30 BEGIN BOND
M  V30 1 1 1 2
M  V30 2 1 2 3
M  V30 3 1 3 4
M  V30 4 1 4 5
M  V30 5 1 5 6
M  V30 6 2 6 7
M  V30 7 1 7 8
M  V30 8 2 8 9
M  V30 9 1 9 10
M  V30 10 2 10 11
M  V30 11 1 8 12
M  V30 12 1 12 13
M  V30 13 2 12 14 CFG=2
M  V30 14 1 4 15
M  V30 15 1 15 16
M  V30 16 1 16 17
M  V30 17 1 17 18
M  V30 18 1 18 19
M  V30 19 1 19 20
M  V30 20 2 20 21
M  V30 21 1 21 22
M  V30 22 2 22 23
M  V30 23 1 23 24
M  V30 24 2 24 25
M  V30 25 1 23 26
M  V30 26 1 26 27
M  V30 27 2 26 28 CFG=2
M  V30 28 1 15 1
M  V30 29 1 25 20
M  V30 30 1 18 1
M  V30 31 1 11 6
M  V30 32 1 1 29 CFG=1
M  V30 33 1 3 30
M  V30 34 1 3 31
M  V30 35 1 4 32 CFG=1
M  V30 36 1 7 33
M  V30 37 1 9 34
M  V30 38 1 10 35
M  V30 39 1 11 36
M  V30 40 1 13 37
M  V30 41 1 13 38
M  V30 42 1 14 39
M  V30 43 1 15 40 CFG=1
M  V30 44 1 17 41
M  V30 45 1 17 42
M  V30 46 1 18 43 CFG=3
M  V30 47 1 21 44
M  V30 48 1 22 45
M  V30 49 1 24 46
M  V30 50 1 25 47
M  V30 51 1 27 48
M  V30 52 1 27 49
M  V30 53 1 28 50
M  V30 END BOND
M  V30 END CTAB
M  END
