
     RDKit          3D

  0  0  0  0  0  0  0  0  0  0999 V3000
M  V30 BEGIN CTAB
M  V30 COUNTS 43 45 0 0 0
M  V30 BEGIN ATOM
M  V30 1 N -1.25578 4.86009 0.398655 0
M  V30 2 C -1.49842 3.4676 0.329761 0
M  V30 3 N -0.901978 2.7767 -0.645021 0
M  V30 4 C -1.09232 1.40599 -0.766534 0
M  V30 5 C -0.333251 0.708816 -1.82222 0
M  V30 6 C 1.08353 0.413177 -1.44631 0
M  V30 7 C 1.35435 -0.419453 -0.262533 0
M  V30 8 C 2.80726 -0.578064 -0.0342851 0
M  V30 9 C 3.46054 0.358342 0.730586 0
M  V30 10 C 4.8101 0.265405 0.97999 0
M  V30 11 C 5.49143 -0.790026 0.443751 0
M  V30 12 C 4.88351 -1.74746 -0.324078 0
M  V30 13 C 3.51733 -1.62714 -0.559145 0
M  V30 14 C -1.896 0.776627 0.117602 0
M  V30 15 C -2.52197 1.52182 1.14692 0
M  V30 16 N -3.35763 0.820839 2.04462 0
M  V30 17 N -2.28973 2.82373 1.19688 0
M  V30 18 C -2.22785 -0.622287 0.0575518 0
M  V30 19 C -2.97542 -1.13495 -1.00769 0
M  V30 20 C -3.37577 -2.44683 -1.08826 0
M  V30 21 C -3.03845 -3.31539 -0.0887249 0
M  V30 22 C -2.30118 -2.8408 0.976646 0
M  V30 23 C -1.90965 -1.51301 1.03461 0
M  V30 24 H -1.82573 5.51567 -0.164594 0
M  V30 25 H -0.505516 5.20218 1.01646 0
M  V30 26 H -0.376564 1.29504 -2.78881 0
M  V30 27 H -0.787643 -0.272809 -2.11899 0
M  V30 28 H 1.58794 0.00501778 -2.38274 0
M  V30 29 H 1.66264 1.3912 -1.30881 0
M  V30 30 H 0.882693 -1.43017 -0.32589 0
M  V30 31 H 0.938726 0.0481136 0.678055 0
M  V30 32 H 2.88994 1.18077 1.13975 0
M  V30 33 H 5.31253 1.00242 1.57897 0
M  V30 34 H 6.55386 -0.865649 0.638469 0
M  V30 35 H 5.45239 -2.56016 -0.725272 0
M  V30 36 H 3.05118 -2.40073 -1.17355 0
M  V30 37 H -4.38714 0.830919 1.94117 0
M  V30 38 H -2.93659 0.286537 2.82103 0
M  V30 39 H -3.25214 -0.468682 -1.8047 0
M  V30 40 H -3.96312 -2.81096 -1.94104 0
M  V30 41 H -3.36333 -4.3568 -0.165603 0
M  V30 42 H -2.03251 -3.52534 1.76956 0
M  V30 43 H -1.33427 -1.23032 1.90377 0
M  V30 END ATOM
M  V30 BEGIN BOND
M  V30 1 1 1 2
M  V30 2 2 2 3
M  V30 3 1 3 4
M  V30 4 1 4 5
M  V30 5 1 5 6
M  V30 6 1 6 7
M  V30 7 1 7 8
M  V30 8 2 8 9
M  V30 9 1 9 10
M  V30 10 2 10 11
M  V30 11 1 11 12
M  V30 12 2 12 13
M  V30 13 2 4 14
M  V30 14 1 14 15
M  V30 15 1 15 16
M  V30 16 2 15 17
M  V30 17 1 14 18
M  V30 18 2 18 19
M  V30 19 1 19 20
M  V30 20 2 20 21
M  V30 21 1 21 22
M  V30 22 2 22 23
M  V30 23 1 17 2
M  V30 24 1 23 18
M  V30 25 1 13 8
M  V30 26 1 1 24
M  V30 27 1 1 25
M  V30 28 1 5 26
M  V30 29 1 5 27
M  V30 30 1 6 28
M  V30 31 1 6 29
M  V30 32 1 7 30
M  V30 33 1 7 31
M  V30 34 1 9 32
M  V30 35 1 10 33
M  V30 36 1 11 34
M  V30 37 1 12 35
M  V30 38 1 13 36
M  V30 39 1 16 37
M  V30 40 1 16 38
M  V30 41 1 19 39
M  V30 42 1 20 40
M  V30 43 1 21 41
M  V30 44 1 22 42
M  V30 45 1 23 43
M  V30 END BOND
M  V30 END CTAB
M  END
