
     RDKit          3D

  0  0  0  0  0  0  0  0  0  0999 V3000
M  V30 BEGIN CTAB
M  V30 COUNTS 44 46 0 0 0
M  V30 BEGIN ATOM
M  V30 1 C 1.80878 -3.46187 -2.158 0
M  V30 2 O 1.36674 -2.12973 -1.97896 0
M  V30 3 C 2.1274 -1.30839 -1.15754 0
M  V30 4 C 3.27059 -1.74792 -0.530257 0
M  V30 5 C 4.05202 -0.964159 0.291823 0
M  V30 6 C 3.67722 0.344261 0.508549 0
M  V30 7 C 2.53596 0.815327 -0.10596 0
M  V30 8 C 1.76303 0.0213805 -0.925896 0
M  V30 9 C 0.556394 0.477565 -1.59078 0
M  V30 10 O 0.686041 0.978444 -2.73679 0
M  V30 11 N -0.71852 0.374554 -0.998097 0
M  V30 12 C -1.96164 0.801669 -1.58821 0
M  V30 13 C -2.79633 1.24258 -0.416995 0
M  V30 14 C -2.00586 0.895128 0.830784 0
M  V30 15 C -1.06005 -0.165348 0.294917 0
M  V30 16 C -3.00525 0.316388 1.80051 0
M  V30 17 C -4.02341 -0.366036 0.920954 0
M  V30 18 C -4.09714 0.471969 -0.323422 0
M  V30 19 N -5.20956 1.36486 -0.210083 0
M  V30 20 S 4.65433 1.35643 1.54815 0
M  V30 21 O 4.55765 2.80115 1.1309 0
M  V30 22 O 6.08673 0.951328 1.50355 0
M  V30 23 N 4.02708 1.16748 3.16113 0
M  V30 24 H 2.84 -3.47656 -2.59594 0
M  V30 25 H 1.88575 -3.99838 -1.17249 0
M  V30 26 H 1.15563 -4.03574 -2.83455 0
M  V30 27 H 3.56845 -2.79282 -0.704328 0
M  V30 28 H 4.95617 -1.37504 0.764997 0
M  V30 29 H 2.22767 1.85953 0.060668 0
M  V30 30 H -1.82698 1.59904 -2.34475 0
M  V30 31 H -2.44161 -0.107583 -2.05271 0
M  V30 32 H -2.99182 2.32592 -0.450316 0
M  V30 33 H -1.46014 1.75881 1.21477 0
M  V30 34 H -0.175649 -0.30396 0.94688 0
M  V30 35 H -1.64117 -1.09192 0.149503 0
M  V30 36 H -3.46759 1.1515 2.36661 0
M  V30 37 H -2.55028 -0.377112 2.52466 0
M  V30 38 H -4.98379 -0.368795 1.49006 0
M  V30 39 H -3.70778 -1.41012 0.718833 0
M  V30 40 H -4.21506 -0.22086 -1.19484 0
M  V30 41 H -4.91026 2.36905 -0.190511 0
M  V30 42 H -5.96617 1.20353 -0.905874 0
M  V30 43 H 4.42905 1.90317 3.78223 0
M  V30 44 H 2.98334 1.15129 3.15682 0
M  V30 END ATOM
M  V30 BEGIN BOND
M  V30 1 1 1 2
M  V30 2 1 2 3
M  V30 3 2 3 4
M  V30 4 1 4 5
M  V30 5 2 5 6
M  V30 6 1 6 7
M  V30 7 2 7 8
M  V30 8 1 8 9
M  V30 9 2 9 10
M  V30 10 1 9 11
M  V30 11 1 11 12
M  V30 12 1 12 13
M  V30 13 1 13 14
M  V30 14 1 14 15
M  V30 15 1 14 16
M  V30 16 1 16 17
M  V30 17 1 17 18
M  V30 18 1 18 19
M  V30 19 1 6 20
M  V30 20 2 20 21
M  V30 21 2 20 22
M  V30 22 1 20 23
M  V30 23 1 8 3
M  V30 24 1 15 11
M  V30 25 1 18 13
M  V30 26 1 1 24
M  V30 27 1 1 25
M  V30 28 1 1 26
M  V30 29 1 4 27
M  V30 30 1 5 28
M  V30 31 1 7 29
M  V30 32 1 12 30
M  V30 33 1 12 31
M  V30 34 1 13 32
M  V30 35 1 14 33
M  V30 36 1 15 34
M  V30 37 1 15 35
M  V30 38 1 16 36
M  V30 39 1 16 37
M  V30 40 1 17 38
M  V30 41 1 17 39
M  V30 42 1 18 40
M  V30 43 1 19 41
M  V30 44 1 19 42
M  V30 45 1 23 43
M  V30 46 1 23 44
M  V30 END BOND
M  V30 END CTAB
M  END
