
     RDKit          3D

  0  0  0  0  0  0  0  0  0  0999 V3000
M  V30 BEGIN CTAB
M  V30 COUNTS 30 30 0 0 0
M  V30 BEGIN ATOM
M  V30 1 C -0.298243 -2.38604 -0.18653 0
M  V30 2 C -0.092383 -0.974637 -0.639792 0
M  V30 3 C -1.20473 -0.0585809 -0.560553 0
M  V30 4 C -1.5932 0.641177 -1.71239 0
M  V30 5 C -2.51313 1.67512 -1.69137 0
M  V30 6 C -3.04686 1.99412 -0.465531 0
M  V30 7 N -2.69205 1.33654 0.64079 0
M  V30 8 C -1.80761 0.339823 0.634986 0
M  V30 9 N -1.55546 -0.451964 1.78353 0
M  V30 10 C 1.25215 -0.399991 -0.646305 0
M  V30 11 C 2.10849 -0.209814 0.528089 0
M  V30 12 N 3.42528 0.280771 -0.0512018 0
M  V30 13 C 1.76897 1.05503 1.36356 0
M  V30 14 H -1.2504 -2.81394 -0.577342 0
M  V30 15 H -0.179204 -2.51897 0.90823 0
M  V30 16 H 0.497213 -3.00364 -0.656131 0
M  V30 17 H -0.189537 -1.26611 -1.85698 0
M  V30 18 H -1.17915 0.415722 -2.69798 0
M  V30 19 H -2.79835 2.19976 -2.58983 0
M  V30 20 H -3.76757 2.8089 -0.443354 0
M  V30 21 H -0.90472 -0.131617 2.49432 0
M  V30 22 H -2.03237 -1.3671 1.9353 0
M  V30 23 H 1.23094 0.645127 -1.15297 0
M  V30 24 H 1.89156 -0.933669 -1.46712 0
M  V30 25 H 2.3029 -0.99379 1.22064 0
M  V30 26 H 3.25319 0.408535 -1.04855 0
M  V30 27 H 4.1448 -0.432146 0.162224 0
M  V30 28 H 1.03836 0.896044 2.12766 0
M  V30 29 H 1.44647 1.80064 0.615189 0
M  V30 30 H 2.74464 1.44468 1.80719 0
M  V30 END ATOM
M  V30 BEGIN BOND
M  V30 1 1 1 2
M  V30 2 1 2 3
M  V30 3 2 3 4
M  V30 4 1 4 5
M  V30 5 2 5 6
M  V30 6 1 6 7
M  V30 7 2 7 8
M  V30 8 1 8 9
M  V30 9 1 2 10
M  V30 10 1 10 11
M  V30 11 1 11 12
M  V30 12 1 11 13
M  V30 13 1 8 3
M  V30 14 1 1 14
M  V30 15 1 1 15
M  V30 16 1 1 16
M  V30 17 1 2 17
M  V30 18 1 4 18
M  V30 19 1 5 19
M  V30 20 1 6 20
M  V30 21 1 9 21
M  V30 22 1 9 22
M  V30 23 1 10 23
M  V30 24 1 10 24
M  V30 25 1 11 25
M  V30 26 1 12 26
M  V30 27 1 12 27
M  V30 28 1 13 28
M  V30 29 1 13 29
M  V30 30 1 13 30
M  V30 END BOND
M  V30 END CTAB
M  END
