
     RDKit          3D

  0  0  0  0  0  0  0  0  0  0999 V3000
M  V30 BEGIN CTAB
M  V30 COUNTS 32 32 0 0 0
M  V30 BEGIN ATOM
M  V30 1 N -1.41332 2.39611 1.15461 0
M  V30 2 C -1.92845 1.66858 0.0610524 0
M  V30 3 C -1.52172 0.246025 0.054738 0
M  V30 4 C -2.11005 -0.496296 -1.13184 0
M  V30 5 C -1.59824 -1.89122 -1.11384 0
M  V30 6 C -0.96176 -2.33291 0.17814 0
M  V30 7 C 0.157318 -1.40636 0.614041 0
M  V30 8 N -0.130682 -0.0559048 0.0719939 0
M  V30 9 C 0.935747 0.750824 -0.372751 0
M  V30 10 O 0.694692 1.87446 -0.867196 0
M  V30 11 C 2.35796 0.350023 -0.293352 0 CFG=1
M  V30 12 N 3.22527 1.37027 -0.880129 0
M  V30 13 C 2.71428 0.142031 1.1696 0
M  V30 14 H -1.80011 3.28216 1.28936 0
M  V30 15 H -0.986843 1.90782 1.83436 0
M  V30 16 H -3.04036 1.69207 0.190341 0
M  V30 17 H -1.7468 2.20522 -0.903789 0
M  V30 18 H -2.01702 -0.229912 0.95453 0
M  V30 19 H -1.79072 0.0716245 -2.03838 0
M  V30 20 H -3.20391 -0.409304 -1.04733 0
M  V30 21 H -0.891769 -2.03974 -1.9737 0
M  V30 22 H -2.4419 -2.58363 -1.30945 0
M  V30 23 H -1.7223 -2.37825 0.968035 0
M  V30 24 H -0.538758 -3.34261 -0.00234505 0
M  V30 25 H 0.163691 -1.2926 1.71504 0
M  V30 26 H 1.10222 -1.79616 0.262794 0
M  V30 27 H 2.57504 -0.585865 -0.836665 0
M  V30 28 H 4.1873 1.32251 -0.47433 0
M  V30 29 H 3.30386 1.22556 -1.92446 0
M  V30 30 H 3.01008 -0.896299 1.3913 0
M  V30 31 H 3.57016 0.823667 1.45536 0
M  V30 32 H 1.84709 0.408097 1.80428 0
M  V30 END ATOM
M  V30 BEGIN BOND
M  V30 1 1 1 2
M  V30 2 1 2 3
M  V30 3 1 3 4
M  V30 4 1 4 5
M  V30 5 1 5 6
M  V30 6 1 6 7
M  V30 7 1 7 8
M  V30 8 1 8 9
M  V30 9 2 9 10
M  V30 10 1 9 11
M  V30 11 1 11 12
M  V30 12 1 11 13
M  V30 13 1 8 3
M  V30 14 1 1 14
M  V30 15 1 1 15
M  V30 16 1 2 16
M  V30 17 1 2 17
M  V30 18 1 3 18
M  V30 19 1 4 19
M  V30 20 1 4 20
M  V30 21 1 5 21
M  V30 22 1 5 22
M  V30 23 1 6 23
M  V30 24 1 6 24
M  V30 25 1 7 25
M  V30 26 1 7 26
M  V30 27 1 11 27 CFG=3
M  V30 28 1 12 28
M  V30 29 1 12 29
M  V30 30 1 13 30
M  V30 31 1 13 31
M  V30 32 1 13 32
M  V30 END BOND
M  V30 END CTAB
M  END
