
     RDKit          3D

  0  0  0  0  0  0  0  0  0  0999 V3000
M  V30 BEGIN CTAB
M  V30 COUNTS 49 51 0 0 0
M  V30 BEGIN ATOM
M  V30 1 O 0.223659 1.74651 -2.05026 0
M  V30 2 C 0.492045 0.94788 -1.11167 0
M  V30 3 C 1.82735 0.346366 -1.01369 0
M  V30 4 C 2.51983 0.700916 0.296704 0
M  V30 5 C 3.86466 0.0313644 0.274894 0
M  V30 6 C 4.84922 0.457692 -0.603584 0
M  V30 7 C 6.08009 -0.147647 -0.630666 0
M  V30 8 C 6.38592 -1.19821 0.209657 0
M  V30 9 C 5.41168 -1.62461 1.08321 0
M  V30 10 C 4.17192 -1.01949 1.1148 0
M  V30 11 N 2.74899 2.13537 0.26393 0
M  V30 12 C 1.80317 -1.16581 -1.2177 0
M  V30 13 N -0.510152 0.641111 -0.157179 0
M  V30 14 C -1.83841 1.21868 -0.226574 0
M  V30 15 C -2.00827 2.09846 0.980335 0
M  V30 16 C -3.37247 2.00403 1.60277 0
M  V30 17 C -3.70758 0.555907 1.91383 0
M  V30 18 C -3.78499 -0.154974 0.616641 0
M  V30 19 C -2.8845 0.190712 -0.361265 0
M  V30 20 C -2.97139 -0.482014 -1.56361 0
M  V30 21 C -3.90319 -1.46216 -1.81406 0
M  V30 22 C -4.78632 -1.77857 -0.809132 0
M  V30 23 C -4.75273 -1.14236 0.418523 0
M  V30 24 N -5.75789 -2.80168 -1.07252 0
M  V30 25 H 2.48873 0.746811 -1.82111 0
M  V30 26 H 1.96499 0.363839 1.17363 0
M  V30 27 H 4.61638 1.29413 -1.2778 0
M  V30 28 H 6.83076 0.207558 -1.32885 0
M  V30 29 H 7.37064 -1.66292 0.16955 0
M  V30 30 H 5.67137 -2.45915 1.74263 0
M  V30 31 H 3.40838 -1.37537 1.81984 0
M  V30 32 H 2.98034 2.38236 -0.715636 0
M  V30 33 H 3.43079 2.45705 0.967191 0
M  V30 34 H 2.77987 -1.52371 -1.61598 0
M  V30 35 H 1.02791 -1.45617 -1.92733 0
M  V30 36 H 1.56549 -1.62834 -0.233496 0
M  V30 37 H -0.329557 -0.0147837 0.635108 0
M  V30 38 H -1.85714 1.88189 -1.11585 0
M  V30 39 H -1.80845 3.16554 0.737581 0
M  V30 40 H -1.26531 1.82362 1.7774 0
M  V30 41 H -4.16844 2.45324 0.99221 0
M  V30 42 H -3.33389 2.53458 2.57669 0
M  V30 43 H -2.88102 0.123678 2.52107 0
M  V30 44 H -4.67172 0.568485 2.46044 0
M  V30 45 H -2.27598 -0.23918 -2.36775 0
M  V30 46 H -3.94589 -1.97877 -2.78219 0
M  V30 47 H -5.45579 -1.39743 1.2121 0
M  V30 48 H -6.14706 -2.91796 -2.02084 0
M  V30 49 H -6.09607 -3.44646 -0.33535 0
M  V30 END ATOM
M  V30 BEGIN BOND
M  V30 1 2 1 2
M  V30 2 1 2 3
M  V30 3 1 3 4
M  V30 4 1 4 5
M  V30 5 2 5 6
M  V30 6 1 6 7
M  V30 7 2 7 8
M  V30 8 1 8 9
M  V30 9 2 9 10
M  V30 10 1 4 11
M  V30 11 1 3 12
M  V30 12 1 2 13
M  V30 13 1 13 14
M  V30 14 1 14 15
M  V30 15 1 15 16
M  V30 16 1 16 17
M  V30 17 1 17 18
M  V30 18 2 18 19
M  V30 19 1 19 20
M  V30 20 2 20 21
M  V30 21 1 21 22
M  V30 22 2 22 23
M  V30 23 1 22 24
M  V30 24 1 10 5
M  V30 25 1 19 14
M  V30 26 1 23 18
M  V30 27 1 3 25
M  V30 28 1 4 26
M  V30 29 1 6 27
M  V30 30 1 7 28
M  V30 31 1 8 29
M  V30 32 1 9 30
M  V30 33 1 10 31
M  V30 34 1 11 32
M  V30 35 1 11 33
M  V30 36 1 12 34
M  V30 37 1 12 35
M  V30 38 1 12 36
M  V30 39 1 13 37
M  V30 40 1 14 38
M  V30 41 1 15 39
M  V30 42 1 15 40
M  V30 43 1 16 41
M  V30 44 1 16 42
M  V30 45 1 17 43
M  V30 46 1 17 44
M  V30 47 1 20 45
M  V30 48 1 21 46
M  V30 49 1 23 47
M  V30 50 1 24 48
M  V30 51 1 24 49
M  V30 END BOND
M  V30 END CTAB
M  END
