
     RDKit          3D

  0  0  0  0  0  0  0  0  0  0999 V3000
M  V30 BEGIN CTAB
M  V30 COUNTS 84 87 0 0 0
M  V30 BEGIN ATOM
M  V30 1 N 9.28301 -4.05735 -0.311959 0
M  V30 2 C 8.04173 -4.26151 0.370921 0
M  V30 3 N 7.77628 -5.39976 0.84201 0
M  V30 4 N 7.1825 -3.15345 0.475082 0
M  V30 5 C 6.45807 -2.71138 -0.730849 0
M  V30 6 C 5.85789 -1.35281 -0.532965 0
M  V30 7 C 4.76267 -1.24418 0.448022 0
M  V30 8 C 3.509 -1.99985 0.0555053 0
M  V30 9 C 2.5602 -1.06986 -0.774972 0
M  V30 10 N 2.3626 0.116883 -0.101851 0
M  V30 11 C 3.03431 0.186047 1.26995 0
M  V30 12 C 4.49218 0.158507 0.917904 0
M  V30 13 C 1.5824 1.27622 -0.35285 0
M  V30 14 O 2.27462 2.25817 -0.827633 0
M  V30 15 C 0.192716 1.46079 -0.110887 0 CFG=2
M  V30 16 C 0.0215145 2.98651 0.225485 0
M  V30 17 C 0.211272 4.11686 -0.543909 0
M  V30 18 C -0.541251 4.42503 -1.6788 0
M  V30 19 C -0.614018 5.68032 -2.22792 0
M  V30 20 C 0.0752268 6.68795 -1.64 0
M  V30 21 C 0.855819 6.48434 -0.493903 0
M  V30 22 C 0.904401 5.21839 0.0116143 0
M  V30 23 C 1.43594 7.64587 0.173329 0
M  V30 24 N 0.828267 8.90265 -0.0703293 0
M  V30 25 N 2.38815 7.55896 1.00251 0
M  V30 26 N -0.175288 1.05347 1.29853 0
M  V30 27 S -1.78615 0.88975 1.56836 0
M  V30 28 O -2.53293 2.24691 1.19048 0
M  V30 29 O -1.9951 0.853661 3.11193 0
M  V30 30 C -2.82681 -0.256976 0.835305 0
M  V30 31 C -3.43772 -1.20304 1.70377 0
M  V30 32 C -4.44191 -1.99269 1.23064 0
M  V30 33 C -4.86237 -1.87433 -0.0751259 0
M  V30 34 C -4.30259 -0.987137 -0.944436 0
M  V30 35 C -3.26686 -0.17608 -0.470784 0
M  V30 36 C -6.08426 -2.63813 -0.454362 0
M  V30 37 C -5.99565 -4.02261 0.0130907 0
M  V30 38 C -7.29112 -4.69159 0.407456 0
M  V30 39 C -8.45765 -3.89409 -0.0956468 0
M  V30 40 C -8.38604 -2.57006 0.634826 0
M  V30 41 C -7.2157 -1.8231 0.145062 0
M  V30 42 H 10.0946 -4.57078 0.0302755 0
M  V30 43 H 9.29764 -3.41968 -1.0827 0
M  V30 44 H 8.35288 -6.25047 0.806468 0
M  V30 45 H 7.05779 -2.63808 1.33639 0
M  V30 46 H 5.63631 -3.48113 -0.859189 0
M  V30 47 H 7.1248 -2.77739 -1.59156 0
M  V30 48 H 6.688 -0.632479 -0.288571 0
M  V30 49 H 5.47445 -1.06722 -1.5813 0
M  V30 50 H 5.13689 -1.79968 1.38745 0
M  V30 51 H 3.74916 -2.81029 -0.626941 0
M  V30 52 H 2.96951 -2.35801 0.930537 0
M  V30 53 H 3.15704 -0.921378 -1.72195 0
M  V30 54 H 1.68746 -1.71029 -0.969362 0
M  V30 55 H 2.73923 1.09322 1.78169 0
M  V30 56 H 2.72289 -0.665434 1.87194 0
M  V30 57 H 4.63229 0.886373 0.0685771 0
M  V30 58 H 5.09495 0.488389 1.77196 0
M  V30 59 H -0.577449 1.23891 -0.788623 0
M  V30 60 H -0.715797 3.15558 1.03353 0
M  V30 61 H 0.997387 3.0106 0.985037 0
M  V30 62 H -1.05966 3.62552 -2.14008 0
M  V30 63 H -1.2263 5.86805 -3.09671 0
M  V30 64 H 0.0302553 7.68198 -2.04281 0
M  V30 65 H 1.48195 5.0608 0.910752 0
M  V30 66 H 1.27498 9.59062 -0.676337 0
M  V30 67 H -0.117805 9.10431 0.387545 0
M  V30 68 H 2.87954 6.72684 1.32799 0
M  V30 69 H 0.362824 0.135333 1.38146 0
M  V30 70 H -3.09604 -1.24758 2.72161 0
M  V30 71 H -4.85425 -2.70095 1.95387 0
M  V30 72 H -4.65283 -0.891655 -1.93519 0
M  V30 73 H -2.79048 0.501849 -1.14694 0
M  V30 74 H -6.23716 -2.6187 -1.56731 0
M  V30 75 H -5.61724 -4.64944 -0.857004 0
M  V30 76 H -5.23992 -4.21524 0.799352 0
M  V30 77 H -7.34238 -5.75156 0.163187 0
M  V30 78 H -7.34784 -4.63521 1.53532 0
M  V30 79 H -9.43761 -4.34334 0.144093 0
M  V30 80 H -8.31786 -3.74065 -1.19465 0
M  V30 81 H -8.19389 -2.82171 1.72249 0
M  V30 82 H -9.3369 -2.00859 0.53744 0
M  V30 83 H -7.53105 -1.08377 -0.615132 0
M  V30 84 H -6.82775 -1.18495 0.995211 0
M  V30 END ATOM
M  V30 BEGIN BOND
M  V30 1 1 1 2
M  V30 2 2 2 3 CFG=2
M  V30 3 1 2 4
M  V30 4 1 4 5
M  V30 5 1 5 6
M  V30 6 1 6 7
M  V30 7 1 7 8
M  V30 8 1 8 9
M  V30 9 1 9 10
M  V30 10 1 10 11
M  V30 11 1 11 12
M  V30 12 1 10 13
M  V30 13 2 13 14
M  V30 14 1 13 15
M  V30 15 1 15 16
M  V30 16 1 16 17
M  V30 17 2 17 18
M  V30 18 1 18 19
M  V30 19 2 19 20
M  V30 20 1 20 21
M  V30 21 2 21 22
M  V30 22 1 21 23
M  V30 23 1 23 24
M  V30 24 2 23 25 CFG=2
M  V30 25 1 15 26
M  V30 26 1 26 27
M  V30 27 2 27 28
M  V30 28 2 27 29
M  V30 29 1 27 30
M  V30 30 2 30 31
M  V30 31 1 31 32
M  V30 32 2 32 33
M  V30 33 1 33 34
M  V30 34 2 34 35
M  V30 35 1 33 36
M  V30 36 1 36 37
M  V30 37 1 37 38
M  V30 38 1 38 39
M  V30 39 1 39 40
M  V30 40 1 40 41
M  V30 41 1 12 7
M  V30 42 1 22 17
M  V30 43 1 35 30
M  V30 44 1 41 36
M  V30 45 1 1 42
M  V30 46 1 1 43
M  V30 47 1 3 44
M  V30 48 1 4 45
M  V30 49 1 5 46
M  V30 50 1 5 47
M  V30 51 1 6 48
M  V30 52 1 6 49
M  V30 53 1 7 50
M  V30 54 1 8 51
M  V30 55 1 8 52
M  V30 56 1 9 53
M  V30 57 1 9 54
M  V30 58 1 11 55
M  V30 59 1 11 56
M  V30 60 1 12 57
M  V30 61 1 12 58
M  V30 62 1 15 59 CFG=3
M  V30 63 1 16 60
M  V30 64 1 16 61
M  V30 65 1 18 62
M  V30 66 1 19 63
M  V30 67 1 20 64
M  V30 68 1 22 65
M  V30 69 1 24 66
M  V30 70 1 24 67
M  V30 71 1 25 68
M  V30 72 1 26 69
M  V30 73 1 31 70
M  V30 74 1 32 71
M  V30 75 1 34 72
M  V30 76 1 35 73
M  V30 77 1 36 74
M  V30 78 1 37 75
M  V30 79 1 37 76
M  V30 80 1 38 77
M  V30 81 1 38 78
M  V30 82 1 39 79
M  V30 83 1 39 80
M  V30 84 1 40 81
M  V30 85 1 40 82
M  V30 86 1 41 83
M  V30 87 1 41 84
M  V30 END BOND
M  V30 END CTAB
M  END
