
     RDKit          3D

  0  0  0  0  0  0  0  0  0  0999 V3000
M  V30 BEGIN CTAB
M  V30 COUNTS 21 22 0 0 0
M  V30 BEGIN ATOM
M  V30 1 N -3.24752 0.503766 0.112569 0
M  V30 2 C -1.98528 -0.208845 0.00950673 0
M  V30 3 C -0.831031 0.53024 0.0785073 0
M  V30 4 N -0.967969 1.95704 0.248114 0
M  V30 5 C 0.452314 0.0428195 0.00154024 0
M  V30 6 C 0.778424 -1.28734 -0.159623 0
M  V30 7 S -0.555459 -2.35874 -0.264868 0
M  V30 8 C -2.06117 -1.57516 -0.149718 0
M  V30 9 O -3.18887 -2.17631 -0.202939 0
M  V30 10 C 2.10345 -1.70781 -0.22937 0
M  V30 11 C 3.15623 -0.828454 -0.142345 0
M  V30 12 C 2.84078 0.501043 0.0185775 0
M  V30 13 C 1.53247 0.928126 0.088842 0
M  V30 14 H -4.13393 0.00157979 0.338331 0
M  V30 15 H -3.29371 1.52051 -0.0352224 0
M  V30 16 H -0.704832 2.53869 -0.564961 0
M  V30 17 H -1.30298 2.41268 1.10793 0
M  V30 18 H 2.26018 -2.76657 -0.356075 0
M  V30 19 H 4.16421 -1.2136 -0.20307 0
M  V30 20 H 3.67025 1.19166 0.0868795 0
M  V30 21 H 1.31444 1.99467 0.217398 0
M  V30 END ATOM
M  V30 BEGIN BOND
M  V30 1 1 1 2
M  V30 2 2 2 3
M  V30 3 1 3 4
M  V30 4 1 3 5
M  V30 5 2 5 6
M  V30 6 1 6 7
M  V30 7 1 7 8
M  V30 8 2 8 9
M  V30 9 1 6 10
M  V30 10 2 10 11
M  V30 11 1 11 12
M  V30 12 2 12 13
M  V30 13 1 8 2
M  V30 14 1 13 5
M  V30 15 1 1 14
M  V30 16 1 1 15
M  V30 17 1 4 16
M  V30 18 1 4 17
M  V30 19 1 10 18
M  V30 20 1 11 19
M  V30 21 1 12 20
M  V30 22 1 13 21
M  V30 END BOND
M  V30 END CTAB
M  END
