
     RDKit          3D

  0  0  0  0  0  0  0  0  0  0999 V3000
M  V30 BEGIN CTAB
M  V30 COUNTS 69 75 0 0 0
M  V30 BEGIN ATOM
M  V30 1 N -9.64338 -2.66762 -2.42562 0
M  V30 2 C -8.27494 -2.34232 -2.17427 0
M  V30 3 C -7.90566 -1.48741 -1.15363 0
M  V30 4 C -6.58878 -1.15526 -0.887237 0
M  V30 5 N -6.25314 -0.319168 0.114517 0
M  V30 6 C -4.96803 0.0226675 0.397601 0
M  V30 7 C -4.67042 0.935384 1.49123 0
M  V30 8 C -4.07805 2.16982 1.33065 0
M  V30 9 C -3.81666 3.01076 2.41499 0
M  V30 10 C -4.14804 2.62587 3.69482 0
M  V30 11 C -4.74171 1.39372 3.87336 0
M  V30 12 C -4.9928 0.575318 2.79203 0
M  V30 13 C -3.98546 -0.524854 -0.390745 0
M  V30 14 N -4.32559 -1.37314 -1.40753 0
M  V30 15 C -5.59395 -1.7048 -1.67975 0
M  V30 16 C -5.95465 -2.56298 -2.70549 0
M  V30 17 C -7.27225 -2.87952 -2.95249 0
M  V30 18 C -2.59437 -0.19762 -0.126063 0
M  V30 19 C -2.00902 -0.60427 1.05292 0
M  V30 20 C -0.690735 -0.32117 1.35241 0
M  V30 21 C 0.107095 0.394884 0.463478 0
M  V30 22 C 1.50786 0.663024 0.867739 0
M  V30 23 N 2.28612 -0.520032 0.764825 0
M  V30 24 C 2.38515 -1.08234 -0.539752 0
M  V30 25 C 3.55982 -0.463845 -1.30845 0
M  V30 26 C 4.81925 -0.877404 -0.623027 0
M  V30 27 C 4.53466 -1.41302 0.773871 0
M  V30 28 C 3.51568 -0.524007 1.49435 0
M  V30 29 N 5.7974 0.200011 -0.560836 0
M  V30 30 C 5.58343 1.52085 -0.444364 0
M  V30 31 N 6.76531 2.18614 -0.420545 0
M  V30 32 C 7.75127 1.29982 -0.521405 0
M  V30 33 C 9.13935 1.44497 -0.546103 0
M  V30 34 N 9.76681 2.71615 -0.4552 0
M  V30 35 N 9.85735 0.313521 -0.659972 0
M  V30 36 C 9.2704 -0.910715 -0.746992 0
M  V30 37 N 7.9253 -1.01746 -0.720249 0
M  V30 38 C 7.14956 0.0639348 -0.608901 0
M  V30 39 C -0.479819 0.792924 -0.699581 0
M  V30 40 C -1.79416 0.517143 -1.01096 0
M  V30 41 H -10.0737 -3.59065 -2.20565 0
M  V30 42 H -10.2589 -1.94589 -2.85505 0
M  V30 43 H -8.66341 -1.04598 -0.521221 0
M  V30 44 H -3.8167 2.48694 0.350127 0
M  V30 45 H -3.34768 3.98546 2.27133 0
M  V30 46 H -3.93683 3.29326 4.52712 0
M  V30 47 H -4.99441 1.11286 4.90215 0
M  V30 48 H -5.45764 -0.383578 2.94911 0
M  V30 49 H -5.16503 -2.99746 -3.33273 0
M  V30 50 H -7.54037 -3.54817 -3.7527 0
M  V30 51 H -2.60798 -1.17717 1.77976 0
M  V30 52 H -0.26711 -0.657963 2.28965 0
M  V30 53 H 1.90978 1.50362 0.228976 0
M  V30 54 H 1.56408 1.05825 1.90601 0
M  V30 55 H 1.43364 -0.984877 -1.074 0
M  V30 56 H 2.61085 -2.1684 -0.455877 0
M  V30 57 H 3.41831 0.626495 -1.39185 0
M  V30 58 H 3.49314 -0.880821 -2.34381 0
M  V30 59 H 5.32942 -1.72254 -1.16688 0
M  V30 60 H 4.22355 -2.45594 0.755913 0
M  V30 61 H 5.51139 -1.33466 1.33185 0
M  V30 62 H 3.34274 -1.03724 2.47844 0
M  V30 63 H 3.95906 0.468388 1.67161 0
M  V30 64 H 4.62286 2.01269 -0.377052 0
M  V30 65 H 10.369 3.02662 -1.24588 0
M  V30 66 H 9.66972 3.36924 0.350737 0
M  V30 67 H 9.84591 -1.79965 -0.835971 0
M  V30 68 H 0.131109 1.35522 -1.40811 0
M  V30 69 H -2.24509 0.838922 -1.93565 0
M  V30 END ATOM
M  V30 BEGIN BOND
M  V30 1 1 1 2
M  V30 2 2 2 3
M  V30 3 1 3 4
M  V30 4 2 4 5
M  V30 5 1 5 6
M  V30 6 1 6 7
M  V30 7 2 7 8
M  V30 8 1 8 9
M  V30 9 2 9 10
M  V30 10 1 10 11
M  V30 11 2 11 12
M  V30 12 2 6 13
M  V30 13 1 13 14
M  V30 14 2 14 15
M  V30 15 1 15 16
M  V30 16 2 16 17
M  V30 17 1 13 18
M  V30 18 2 18 19
M  V30 19 1 19 20
M  V30 20 2 20 21
M  V30 21 1 21 22
M  V30 22 1 22 23
M  V30 23 1 23 24
M  V30 24 1 24 25
M  V30 25 1 25 26
M  V30 26 1 26 27
M  V30 27 1 27 28
M  V30 28 1 26 29
M  V30 29 1 29 30
M  V30 30 2 30 31
M  V30 31 1 31 32
M  V30 32 2 32 33
M  V30 33 1 33 34
M  V30 34 1 33 35
M  V30 35 2 35 36
M  V30 36 1 36 37
M  V30 37 2 37 38
M  V30 38 1 21 39
M  V30 39 2 39 40
M  V30 40 1 17 2
M  V30 41 1 40 18
M  V30 42 1 15 4
M  V30 43 1 28 23
M  V30 44 1 38 29
M  V30 45 1 12 7
M  V30 46 1 38 32
M  V30 47 1 1 41
M  V30 48 1 1 42
M  V30 49 1 3 43
M  V30 50 1 8 44
M  V30 51 1 9 45
M  V30 52 1 10 46
M  V30 53 1 11 47
M  V30 54 1 12 48
M  V30 55 1 16 49
M  V30 56 1 17 50
M  V30 57 1 19 51
M  V30 58 1 20 52
M  V30 59 1 22 53
M  V30 60 1 22 54
M  V30 61 1 24 55
M  V30 62 1 24 56
M  V30 63 1 25 57
M  V30 64 1 25 58
M  V30 65 1 26 59
M  V30 66 1 27 60
M  V30 67 1 27 61
M  V30 68 1 28 62
M  V30 69 1 28 63
M  V30 70 1 30 64
M  V30 71 1 34 65
M  V30 72 1 34 66
M  V30 73 1 36 67
M  V30 74 1 39 68
M  V30 75 1 40 69
M  V30 END BOND
M  V30 END CTAB
M  END
