
     RDKit          3D

  0  0  0  0  0  0  0  0  0  0999 V3000
M  V30 BEGIN CTAB
M  V30 COUNTS 27 27 0 0 0
M  V30 BEGIN ATOM
M  V30 1 C -2.62501 1.29577 0.800177 0
M  V30 2 C -2.21501 -0.0677056 0.34097 0
M  V30 3 C -0.736572 -0.124741 0.305738 0
M  V30 4 C -0.0434577 -1.23007 -0.16038 0
M  V30 5 C 1.35102 -1.2401 -0.15428 0
M  V30 6 C 2.04837 -0.15344 0.311858 0
M  V30 7 C 1.3456 0.935673 0.773378 0
M  V30 8 N 0.0185669 0.896678 0.74664 0
M  V30 9 S 3.77067 -0.11624 0.304975 0
M  V30 10 O 4.35806 -0.00909544 1.66965 0
M  V30 11 O 4.27117 -1.44106 -0.279655 0
M  V30 12 N 4.42443 1.14474 -0.691111 0
M  V30 13 N -2.6996 -1.02106 1.28962 0
M  V30 14 C -2.81696 -0.358001 -1.00724 0
M  V30 15 H -3.72868 1.36665 0.806263 0
M  V30 16 H -2.20005 1.52306 1.80441 0
M  V30 17 H -2.25128 2.05734 0.0652607 0
M  V30 18 H -0.586748 -2.1101 -0.536231 0
M  V30 19 H 1.88614 -2.13464 -0.51925 0
M  V30 20 H 1.82928 1.84675 1.15632 0
M  V30 21 H 4.60781 0.916811 -1.66703 0
M  V30 22 H 4.11669 2.08481 -0.433521 0
M  V30 23 H -2.42091 -0.876394 2.26261 0
M  V30 24 H -2.68682 -2.00331 0.974525 0
M  V30 25 H -2.70161 -1.39046 -1.34036 0
M  V30 26 H -2.4128 0.343598 -1.75994 0
M  V30 27 H -3.90228 -0.135483 -0.947662 0
M  V30 END ATOM
M  V30 BEGIN BOND
M  V30 1 1 1 2
M  V30 2 1 2 3
M  V30 3 2 3 4
M  V30 4 1 4 5
M  V30 5 2 5 6
M  V30 6 1 6 7
M  V30 7 2 7 8
M  V30 8 1 6 9
M  V30 9 2 9 10
M  V30 10 2 9 11
M  V30 11 1 9 12
M  V30 12 1 2 13
M  V30 13 1 2 14
M  V30 14 1 8 3
M  V30 15 1 1 15
M  V30 16 1 1 16
M  V30 17 1 1 17
M  V30 18 1 4 18
M  V30 19 1 5 19
M  V30 20 1 7 20
M  V30 21 1 12 21
M  V30 22 1 12 22
M  V30 23 1 13 23
M  V30 24 1 13 24
M  V30 25 1 14 25
M  V30 26 1 14 26
M  V30 27 1 14 27
M  V30 END BOND
M  V30 END CTAB
M  END
