
     RDKit          3D

  0  0  0  0  0  0  0  0  0  0999 V3000
M  V30 BEGIN CTAB
M  V30 COUNTS 21 21 0 0 0
M  V30 BEGIN ATOM
M  V30 1 N 3.1706 -0.344849 -0.0147982 0
M  V30 2 C 1.80581 0.0758878 -0.0433747 0
M  V30 3 N 1.45521 1.3685 0.0794274 0
M  V30 4 C 0.160153 1.77869 0.0568403 0
M  V30 5 N -0.189876 3.14359 0.188132 0
M  V30 6 C -0.797481 0.781081 -0.101888 0
M  V30 7 C -2.17392 1.18839 -0.131703 0
M  V30 8 N -3.30261 1.517 -0.175335 0
M  V30 9 C -0.457587 -0.549103 -0.229216 0
M  V30 10 C -1.57154 -1.53031 -0.391487 0
M  V30 11 C -2.16784 -1.68773 0.95935 0
M  V30 12 N -2.62227 -1.79347 2.01824 0
M  V30 13 C 0.865822 -0.927607 -0.201642 0
M  V30 14 C 1.2278 -2.31155 -0.333193 0
M  V30 15 N 1.50766 -3.44351 -0.4438 0
M  V30 16 H 3.66107 -0.293641 0.918972 0
M  V30 17 H 3.68164 -0.688582 -0.857027 0
M  V30 18 H -0.913967 3.52938 -0.438261 0
M  V30 19 H 0.256135 3.75318 0.885482 0
M  V30 20 H -2.34813 -1.05104 -1.01266 0
M  V30 21 H -1.24669 -2.5143 -0.732055 0
M  V30 END ATOM
M  V30 BEGIN BOND
M  V30 1 1 1 2
M  V30 2 2 2 3
M  V30 3 1 3 4
M  V30 4 1 4 5
M  V30 5 2 4 6
M  V30 6 1 6 7
M  V30 7 3 7 8
M  V30 8 1 6 9
M  V30 9 1 9 10
M  V30 10 1 10 11
M  V30 11 3 11 12
M  V30 12 2 9 13
M  V30 13 1 13 14
M  V30 14 3 14 15
M  V30 15 1 13 2
M  V30 16 1 1 16
M  V30 17 1 1 17
M  V30 18 1 5 18
M  V30 19 1 5 19
M  V30 20 1 10 20
M  V30 21 1 10 21
M  V30 END BOND
M  V30 END CTAB
M  END
