
     RDKit          3D

  0  0  0  0  0  0  0  0  0  0999 V3000
M  V30 BEGIN CTAB
M  V30 COUNTS 38 41 0 0 0
M  V30 BEGIN ATOM
M  V30 1 N -5.54349 1.8124 -1.43466 0
M  V30 2 C -4.36155 1.28073 -0.901488 0
M  V30 3 N -4.07364 1.26608 0.395919 0
M  V30 4 C -2.92566 0.740595 0.911101 0
M  V30 5 C -2.6374 0.73148 2.26732 0
M  V30 6 C -1.45501 0.183695 2.75622 0
M  V30 7 C -0.530648 -0.370806 1.88457 0
M  V30 8 C -0.796392 -0.378335 0.53136 0
M  V30 9 O 0.0486114 -0.921026 -0.421543 0
M  V30 10 C 1.32862 -1.44258 -0.237047 0
M  V30 11 C 1.90957 -2.16698 -1.48613 0
M  V30 12 C 1.56403 -2.866 -0.225254 0
M  V30 13 C 2.3352 -0.406354 0.238005 0
M  V30 14 C 3.53255 -0.751166 0.8132 0
M  V30 15 C 4.47484 0.213582 1.15406 0
M  V30 16 C 4.20517 1.55033 0.914342 0
M  V30 17 C 2.97837 1.91647 0.334611 0
M  V30 18 Cl 2.64422 3.6125 0.0351364 0
M  V30 19 C 2.071 0.921193 0.00796254 0
M  V30 20 C -2.00027 0.185763 0.0749965 0
M  V30 21 C -2.2894 0.199698 -1.27727 0
M  V30 22 N -1.32166 -0.314155 -2.15966 0
M  V30 23 N -3.44136 0.733258 -1.74044 0
M  V30 24 H -6.10643 1.32503 -2.14823 0
M  V30 25 H -5.85907 2.73405 -1.09222 0
M  V30 26 H -3.3633 1.16248 2.9417 0
M  V30 27 H -1.2785 0.21119 3.82337 0
M  V30 28 H 0.400058 -0.796474 2.27829 0
M  V30 29 H 2.96702 -1.95184 -1.72694 0
M  V30 30 H 1.25786 -2.2796 -2.36449 0
M  V30 31 H 0.654693 -3.54514 -0.251196 0
M  V30 32 H 2.35802 -3.29265 0.413422 0
M  V30 33 H 3.7293 -1.79358 0.984894 0
M  V30 34 H 5.41255 -0.0678376 1.59033 0
M  V30 35 H 4.86023 2.35996 1.11789 0
M  V30 36 H 1.14154 1.18766 -0.437786 0
M  V30 37 H -1.35221 -1.29133 -2.48962 0
M  V30 38 H -0.537448 0.307677 -2.48854 0
M  V30 END ATOM
M  V30 BEGIN BOND
M  V30 1 1 1 2
M  V30 2 2 2 3
M  V30 3 1 3 4
M  V30 4 2 4 5
M  V30 5 1 5 6
M  V30 6 2 6 7
M  V30 7 1 7 8
M  V30 8 1 8 9
M  V30 9 1 9 10
M  V30 10 1 10 11
M  V30 11 1 11 12
M  V30 12 1 10 13
M  V30 13 2 13 14
M  V30 14 1 14 15
M  V30 15 2 15 16
M  V30 16 1 16 17
M  V30 17 1 17 18
M  V30 18 2 17 19
M  V30 19 2 8 20
M  V30 20 1 20 21
M  V30 21 1 21 22
M  V30 22 2 21 23
M  V30 23 1 23 2
M  V30 24 1 20 4
M  V30 25 1 12 10
M  V30 26 1 19 13
M  V30 27 1 1 24
M  V30 28 1 1 25
M  V30 29 1 5 26
M  V30 30 1 6 27
M  V30 31 1 7 28
M  V30 32 1 11 29
M  V30 33 1 11 30
M  V30 34 1 12 31
M  V30 35 1 12 32
M  V30 36 1 14 33
M  V30 37 1 15 34
M  V30 38 1 16 35
M  V30 39 1 19 36
M  V30 40 1 22 37
M  V30 41 1 22 38
M  V30 END BOND
M  V30 END CTAB
M  END
