
     RDKit          3D

  0  0  0  0  0  0  0  0  0  0999 V3000
M  V30 BEGIN CTAB
M  V30 COUNTS 52 54 0 0 0
M  V30 BEGIN ATOM
M  V30 1 N -7.46715 -1.7594 0.747892 0
M  V30 2 C -6.24065 -1.00116 0.781622 0
M  V30 3 C -5.01464 -1.80808 1.16299 0
M  V30 4 C -4.28321 -1.30534 -0.060704 0
M  V30 5 C -5.6075 -0.791612 -0.586455 0
M  V30 6 C -3.34747 -0.163119 0.236719 0
M  V30 7 C -2.03643 -0.164748 -0.223966 0
M  V30 8 C -1.19138 0.882041 0.0529887 0
M  V30 9 N -1.69308 1.88971 0.780894 0
M  V30 10 C -2.94969 1.95191 1.25569 0
M  V30 11 N -3.7564 0.891238 0.957641 0
M  V30 12 N -3.42851 3.04186 2.02064 0
M  V30 13 N 0.148854 0.905976 -0.405111 0
M  V30 14 C 0.745076 -0.122046 -1.21147 0
M  V30 15 C 1.89936 -0.690581 -0.378533 0
M  V30 16 C 2.92085 0.360784 -0.110288 0
M  V30 17 C 2.30942 1.53777 0.565798 0
M  V30 18 C 1.02825 2.02512 -0.0627936 0
M  V30 19 C 3.74076 0.713876 -1.32705 0
M  V30 20 C 4.47203 -0.504935 -1.82755 0
M  V30 21 N 5.3631 -1.07956 -0.868452 0
M  V30 22 C 6.44859 -0.332596 -0.358105 0
M  V30 23 O 6.64169 0.832826 -0.741528 0
M  V30 24 C 7.38446 -0.914716 0.645012 0
M  V30 25 H -7.20276 -2.76593 0.85701 0
M  V30 26 H -8.06113 -1.41131 1.53653 0
M  V30 27 H -6.33968 -0.0309652 1.31617 0
M  V30 28 H -5.16218 -2.91267 1.15027 0
M  V30 29 H -4.62023 -1.48765 2.1291 0
M  V30 30 H -3.80968 -2.09713 -0.660259 0
M  V30 31 H -5.59194 0.283701 -0.893699 0
M  V30 32 H -6.10047 -1.42109 -1.34194 0
M  V30 33 H -1.74363 -1.02797 -0.79858 0
M  V30 34 H -4.01203 3.75889 1.57274 0
M  V30 35 H -3.18875 3.10713 3.01724 0
M  V30 36 H 1.13596 0.384071 -2.1208 0
M  V30 37 H 0.0953258 -0.918059 -1.55241 0
M  V30 38 H 1.435 -0.960662 0.603113 0
M  V30 39 H 2.29573 -1.61441 -0.809972 0
M  V30 40 H 3.65455 -0.0871904 0.624511 0
M  V30 41 H 2.97918 2.39564 0.679957 0
M  V30 42 H 2.03825 1.21955 1.61383 0
M  V30 43 H 0.536787 2.69636 0.671321 0
M  V30 44 H 1.24411 2.62718 -0.957649 0
M  V30 45 H 3.06819 1.02062 -2.18729 0
M  V30 46 H 4.39588 1.57945 -1.17907 0
M  V30 47 H 5.09208 -0.245951 -2.7275 0
M  V30 48 H 3.7243 -1.23293 -2.21478 0
M  V30 49 H 5.1799 -2.07355 -0.559884 0
M  V30 50 H 8.20696 -1.40061 0.0751601 0
M  V30 51 H 6.84352 -1.64617 1.26184 0
M  V30 52 H 7.82042 -0.133547 1.30783 0
M  V30 END ATOM
M  V30 BEGIN BOND
M  V30 1 1 1 2
M  V30 2 1 2 3
M  V30 3 1 3 4
M  V30 4 1 4 5
M  V30 5 1 4 6
M  V30 6 2 6 7
M  V30 7 1 7 8
M  V30 8 2 8 9
M  V30 9 1 9 10
M  V30 10 2 10 11
M  V30 11 1 10 12
M  V30 12 1 8 13
M  V30 13 1 13 14
M  V30 14 1 14 15
M  V30 15 1 15 16
M  V30 16 1 16 17
M  V30 17 1 17 18
M  V30 18 1 16 19
M  V30 19 1 19 20
M  V30 20 1 20 21
M  V30 21 1 21 22
M  V30 22 2 22 23
M  V30 23 1 22 24
M  V30 24 1 5 2
M  V30 25 1 11 6
M  V30 26 1 18 13
M  V30 27 1 1 25
M  V30 28 1 1 26
M  V30 29 1 2 27
M  V30 30 1 3 28
M  V30 31 1 3 29
M  V30 32 1 4 30
M  V30 33 1 5 31
M  V30 34 1 5 32
M  V30 35 1 7 33
M  V30 36 1 12 34
M  V30 37 1 12 35
M  V30 38 1 14 36
M  V30 39 1 14 37
M  V30 40 1 15 38
M  V30 41 1 15 39
M  V30 42 1 16 40
M  V30 43 1 17 41
M  V30 44 1 17 42
M  V30 45 1 18 43
M  V30 46 1 18 44
M  V30 47 1 19 45
M  V30 48 1 19 46
M  V30 49 1 20 47
M  V30 50 1 20 48
M  V30 51 1 21 49
M  V30 52 1 24 50
M  V30 53 1 24 51
M  V30 54 1 24 52
M  V30 END BOND
M  V30 END CTAB
M  END
