
     RDKit          3D

  0  0  0  0  0  0  0  0  0  0999 V3000
M  V30 BEGIN CTAB
M  V30 COUNTS 54 56 0 0 0
M  V30 BEGIN ATOM
M  V30 1 N -5.4218 2.03809 1.85846 0
M  V30 2 C -4.20067 1.78939 1.16063 0
M  V30 3 N -3.59509 0.672494 1.21257 0
M  V30 4 C -2.37997 0.318384 0.563703 0
M  V30 5 C -2.71685 -0.906297 -0.305046 0
M  V30 6 C -2.42238 -2.17848 0.431219 0
M  V30 7 C -2.83604 -2.16867 1.87471 0
M  V30 8 C -2.21367 -1.03799 2.61364 0
M  V30 9 C -1.42419 -0.127091 1.6701 0
M  V30 10 N -1.87778 1.36234 -0.253382 0
M  V30 11 O -0.761889 1.24173 -1.033 0
M  V30 12 C 0.378705 1.7527 -0.477923 0
M  V30 13 C 1.58212 1.66725 -1.34859 0
M  V30 14 C 1.96774 0.272637 -1.7448 0
M  V30 15 C 2.30091 -0.59482 -0.56282 0
M  V30 16 C 3.44911 -0.0960871 0.268561 0
M  V30 17 C 4.76147 -0.154799 -0.46715 0
M  V30 18 C 4.87703 -1.41062 -1.30677 0
M  V30 19 C 3.95336 -2.45256 -0.718339 0
M  V30 20 C 2.53095 -2.0308 -1.01522 0
M  V30 21 C -2.5432 2.61781 -0.314287 0
M  V30 22 N -1.98573 3.67537 -1.13372 0
M  V30 23 N -3.62988 2.82839 0.341492 0
M  V30 24 H -5.78084 2.99106 1.98687 0
M  V30 25 H -5.94926 1.22989 2.24023 0
M  V30 26 H -2.02275 -0.847734 -1.16107 0
M  V30 27 H -3.73579 -0.782619 -0.660284 0
M  V30 28 H -3.04297 -2.97996 -0.0659937 0
M  V30 29 H -1.37168 -2.45495 0.28935 0
M  V30 30 H -2.55569 -3.13235 2.36586 0
M  V30 31 H -3.94049 -2.11335 1.97864 0
M  V30 32 H -2.99227 -0.426964 3.08765 0
M  V30 33 H -1.46066 -1.40781 3.35007 0
M  V30 34 H -0.585365 -0.71689 1.32354 0
M  V30 35 H -1.06601 0.71644 2.28302 0
M  V30 36 H 0.596255 1.17767 0.460099 0
M  V30 37 H 0.220384 2.80071 -0.135221 0
M  V30 38 H 2.46181 2.11121 -0.810419 0
M  V30 39 H 1.48719 2.26935 -2.28435 0
M  V30 40 H 2.77999 0.262577 -2.50813 0
M  V30 41 H 1.0696 -0.224006 -2.22586 0
M  V30 42 H 1.41826 -0.635826 0.10109 0
M  V30 43 H 3.51092 -0.730652 1.17755 0
M  V30 44 H 3.2138 0.920447 0.619541 0
M  V30 45 H 4.87322 0.70753 -1.15094 0
M  V30 46 H 5.59189 -0.0945734 0.260114 0
M  V30 47 H 4.67011 -1.20605 -2.36948 0
M  V30 48 H 5.91784 -1.82889 -1.19582 0
M  V30 49 H 4.15093 -2.51312 0.368332 0
M  V30 50 H 4.11052 -3.4237 -1.23336 0
M  V30 51 H 2.38346 -2.10577 -2.11595 0
M  V30 52 H 1.85171 -2.74564 -0.528197 0
M  V30 53 H -1.86206 4.58923 -0.641832 0
M  V30 54 H -1.73431 3.51638 -2.13475 0
M  V30 END ATOM
M  V30 BEGIN BOND
M  V30 1 1 1 2
M  V30 2 2 2 3
M  V30 3 1 3 4
M  V30 4 1 4 5
M  V30 5 1 5 6
M  V30 6 1 6 7
M  V30 7 1 7 8
M  V30 8 1 8 9
M  V30 9 1 4 10
M  V30 10 1 10 11
M  V30 11 1 11 12
M  V30 12 1 12 13
M  V30 13 1 13 14
M  V30 14 1 14 15
M  V30 15 1 15 16
M  V30 16 1 16 17
M  V30 17 1 17 18
M  V30 18 1 18 19
M  V30 19 1 19 20
M  V30 20 1 10 21
M  V30 21 1 21 22
M  V30 22 2 21 23
M  V30 23 1 23 2
M  V30 24 1 9 4
M  V30 25 1 20 15
M  V30 26 1 1 24
M  V30 27 1 1 25
M  V30 28 1 5 26
M  V30 29 1 5 27
M  V30 30 1 6 28
M  V30 31 1 6 29
M  V30 32 1 7 30
M  V30 33 1 7 31
M  V30 34 1 8 32
M  V30 35 1 8 33
M  V30 36 1 9 34
M  V30 37 1 9 35
M  V30 38 1 12 36
M  V30 39 1 12 37
M  V30 40 1 13 38
M  V30 41 1 13 39
M  V30 42 1 14 40
M  V30 43 1 14 41
M  V30 44 1 15 42
M  V30 45 1 16 43
M  V30 46 1 16 44
M  V30 47 1 17 45
M  V30 48 1 17 46
M  V30 49 1 18 47
M  V30 50 1 18 48
M  V30 51 1 19 49
M  V30 52 1 19 50
M  V30 53 1 20 51
M  V30 54 1 20 52
M  V30 55 1 22 53
M  V30 56 1 22 54
M  V30 END BOND
M  V30 END CTAB
M  END
