
     RDKit          3D

  0  0  0  0  0  0  0  0  0  0999 V3000
M  V30 BEGIN CTAB
M  V30 COUNTS 28 29 0 0 0
M  V30 BEGIN ATOM
M  V30 1 C -2.01961 -1.63264 -0.181606 0
M  V30 2 C -0.974987 -0.554475 0.244078 0
M  V30 3 C -1.48405 0.684633 -0.470116 0
M  V30 4 C -2.9265 1.03481 -0.0354805 0
M  V30 5 C -1.81842 1.89153 0.372244 0
M  V30 6 C 0.317066 -1.07543 -0.271722 0
M  V30 7 C 1.51546 -0.301127 -0.014624 0
M  V30 8 N 1.7317 0.800788 0.680788 0
M  V30 9 N 3.01822 1.15575 0.619168 0
M  V30 10 C 3.62377 0.25391 -0.133136 0
M  V30 11 N 2.7303 -0.641156 -0.529359 0
M  V30 12 N 5.03496 0.311057 -0.425579 0
M  V30 13 N -1.0328 -0.477544 1.66183 0
M  V30 14 H -2.86392 -1.63601 0.527852 0
M  V30 15 H -2.34393 -1.4611 -1.2092 0
M  V30 16 H -1.54777 -2.63825 -0.142474 0
M  V30 17 H -1.20758 0.868223 -1.5051 0
M  V30 18 H -3.41388 0.427584 0.730699 0
M  V30 19 H -3.59511 1.38967 -0.852499 0
M  V30 20 H -1.46304 1.89317 1.4324 0
M  V30 21 H -1.73106 2.90462 -0.0940387 0
M  V30 22 H 0.410077 -2.1263 0.156481 0
M  V30 23 H 0.245135 -1.29627 -1.38576 0
M  V30 24 H 1.06253 1.36529 1.2292 0
M  V30 25 H 5.61162 -0.548525 -0.555956 0
M  V30 26 H 5.51741 1.22712 -0.514509 0
M  V30 27 H -0.410763 -1.19689 2.06735 0
M  V30 28 H -1.98481 -0.62245 2.02216 0
M  V30 END ATOM
M  V30 BEGIN BOND
M  V30 1 1 1 2
M  V30 2 1 2 3
M  V30 3 1 3 4
M  V30 4 1 4 5
M  V30 5 1 2 6
M  V30 6 1 6 7
M  V30 7 1 7 8
M  V30 8 1 8 9
M  V30 9 2 9 10
M  V30 10 1 10 11
M  V30 11 1 10 12
M  V30 12 1 2 13
M  V30 13 1 5 3
M  V30 14 2 11 7
M  V30 15 1 1 14
M  V30 16 1 1 15
M  V30 17 1 1 16
M  V30 18 1 3 17
M  V30 19 1 4 18
M  V30 20 1 4 19
M  V30 21 1 5 20
M  V30 22 1 5 21
M  V30 23 1 6 22
M  V30 24 1 6 23
M  V30 25 1 8 24
M  V30 26 1 12 25
M  V30 27 1 12 26
M  V30 28 1 13 27
M  V30 29 1 13 28
M  V30 END BOND
M  V30 END CTAB
M  END
