
     RDKit          3D

  0  0  0  0  0  0  0  0  0  0999 V3000
M  V30 BEGIN CTAB
M  V30 COUNTS 33 34 0 0 0
M  V30 BEGIN ATOM
M  V30 1 N 5.54428 -0.0984194 1.17729 0
M  V30 2 C 4.22788 -0.0493505 0.633601 0
M  V30 3 C 3.57662 1.13931 0.391603 0
M  V30 4 C 2.28724 1.15086 -0.14173 0
M  V30 5 C 1.67926 -0.0504317 -0.421029 0
M  V30 6 C 2.34756 -1.25211 -0.172629 0
M  V30 7 C 3.62534 -1.27169 0.355788 0
M  V30 8 N 1.74302 -2.5001 -0.457138 0
M  V30 9 C 0.329065 -0.16267 -0.969786 0
M  V30 10 O -0.178838 -1.30191 -1.18052 0
M  V30 11 N -0.47798 0.966012 -1.29329 0
M  V30 12 C -1.80767 0.859565 -1.82786 0
M  V30 13 C -2.84962 0.540286 -0.832292 0
M  V30 14 C -3.38122 -0.710519 -0.625012 0
M  V30 15 C -4.37152 -0.927619 0.341561 0
M  V30 16 C -4.84683 0.10317 1.11679 0
M  V30 17 C -4.32689 1.355 0.921736 0
M  V30 18 C -3.3513 1.57263 -0.0292018 0
M  V30 19 H 6.28999 -0.523213 0.589708 0
M  V30 20 H 5.77001 0.262685 2.1038 0
M  V30 21 H 4.0701 2.07728 0.617677 0
M  V30 22 H 1.78591 2.07403 -0.327198 0
M  V30 23 H 4.15302 -2.19794 0.551793 0
M  V30 24 H 1.96044 -2.96847 -1.35716 0
M  V30 25 H 1.0905 -2.96663 0.197537 0
M  V30 26 H -0.0400372 1.91137 -1.11688 0
M  V30 27 H -1.79368 0.0722404 -2.63907 0
M  V30 28 H -2.01749 1.81146 -2.36844 0
M  V30 29 H -3.03508 -1.54047 -1.21746 0
M  V30 30 H -4.73642 -1.95708 0.437282 0
M  V30 31 H -5.61666 -0.127689 1.85085 0
M  V30 32 H -4.71009 2.15658 1.53819 0
M  V30 33 H -2.93889 2.55381 -0.187779 0
M  V30 END ATOM
M  V30 BEGIN BOND
M  V30 1 1 1 2
M  V30 2 2 2 3
M  V30 3 1 3 4
M  V30 4 2 4 5
M  V30 5 1 5 6
M  V30 6 2 6 7
M  V30 7 1 6 8
M  V30 8 1 5 9
M  V30 9 2 9 10
M  V30 10 1 9 11
M  V30 11 1 11 12
M  V30 12 1 12 13
M  V30 13 2 13 14
M  V30 14 1 14 15
M  V30 15 2 15 16
M  V30 16 1 16 17
M  V30 17 2 17 18
M  V30 18 1 7 2
M  V30 19 1 18 13
M  V30 20 1 1 19
M  V30 21 1 1 20
M  V30 22 1 3 21
M  V30 23 1 4 22
M  V30 24 1 7 23
M  V30 25 1 8 24
M  V30 26 1 8 25
M  V30 27 1 11 26
M  V30 28 1 12 27
M  V30 29 1 12 28
M  V30 30 1 14 29
M  V30 31 1 15 30
M  V30 32 1 16 31
M  V30 33 1 17 32
M  V30 34 1 18 33
M  V30 END BOND
M  V30 END CTAB
M  END
