
     RDKit          3D

  0  0  0  0  0  0  0  0  0  0999 V3000
M  V30 BEGIN CTAB
M  V30 COUNTS 25 26 0 0 0
M  V30 BEGIN ATOM
M  V30 1 O -1.49293 -2.08446 1.38949 0
M  V30 2 C -1.17765 -1.26165 0.477816 0
M  V30 3 N -2.17345 -0.374399 0.019016 0
M  V30 4 C -3.47686 -0.41375 0.545951 0
M  V30 5 N -3.93798 -1.27093 1.50519 0
M  V30 6 O -5.17156 -0.978095 1.68875 0
M  V30 7 N -5.57508 -0.0193766 0.953489 0
M  V30 8 C -4.54216 0.397881 0.189788 0
M  V30 9 N -4.48772 1.42789 -0.781564 0
M  V30 10 C 0.18001 -1.216 -0.101636 0
M  V30 11 S 1.10677 0.125046 0.673747 0
M  V30 12 C 2.75454 0.19472 -0.00422691 0
M  V30 13 N 3.28825 -0.644961 -0.911493 0
M  V30 14 N 4.52092 -0.258682 -1.17925 0
M  V30 15 C 4.81757 0.854672 -0.442303 0
M  V30 16 N 3.68991 1.09364 0.269615 0
M  V30 17 N 6.05105 1.56232 -0.461856 0
M  V30 18 H -1.9399 0.311126 -0.725709 0
M  V30 19 H -5.08502 1.42551 -1.63469 0
M  V30 20 H -3.83465 2.21962 -0.649229 0
M  V30 21 H 0.640874 -2.20143 0.0647313 0
M  V30 22 H 0.080098 -1.06755 -1.20791 0
M  V30 23 H 2.76236 -1.4711 -1.31656 0
M  V30 24 H 6.63016 1.61342 -1.31553 0
M  V30 25 H 6.37243 2.03654 0.39868 0
M  V30 END ATOM
M  V30 BEGIN BOND
M  V30 1 2 1 2
M  V30 2 1 2 3
M  V30 3 1 3 4
M  V30 4 2 4 5
M  V30 5 1 5 6
M  V30 6 1 6 7
M  V30 7 2 7 8
M  V30 8 1 8 9
M  V30 9 1 2 10
M  V30 10 1 10 11
M  V30 11 1 11 12
M  V30 12 1 12 13
M  V30 13 1 13 14
M  V30 14 2 14 15
M  V30 15 1 15 16
M  V30 16 1 15 17
M  V30 17 1 8 4
M  V30 18 2 16 12
M  V30 19 1 3 18
M  V30 20 1 9 19
M  V30 21 1 9 20
M  V30 22 1 10 21
M  V30 23 1 10 22
M  V30 24 1 13 23
M  V30 25 1 17 24
M  V30 26 1 17 25
M  V30 END BOND
M  V30 END CTAB
M  END
