
     RDKit          3D

  0  0  0  0  0  0  0  0  0  0999 V3000
M  V30 BEGIN CTAB
M  V30 COUNTS 35 35 0 0 0
M  V30 BEGIN ATOM
M  V30 1 C -5.66158 -0.745283 -0.474542 0
M  V30 2 C -4.70329 -0.273851 0.561021 0
M  V30 3 C -3.24799 -0.493429 0.14571 0
M  V30 4 C -2.34858 -0.0055604 1.21415 0
M  V30 5 N -0.940575 -0.120012 1.03028 0
M  V30 6 C -0.157165 0.535438 0.0648174 0
M  V30 7 O -0.70196 1.34807 -0.755815 0
M  V30 8 C 1.30796 0.322828 -0.0480702 0
M  V30 9 C 2.00782 1.1934 -0.84682 0
M  V30 10 C 3.3561 1.04578 -0.993788 0
M  V30 11 C 4.04373 0.0501211 -0.366746 0
M  V30 12 C 3.35799 -0.815509 0.425427 0
M  V30 13 C 1.97293 -0.687473 0.594326 0
M  V30 14 S 5.77623 -0.0460495 -0.626846 0
M  V30 15 O 6.10699 0.539912 -1.97252 0
M  V30 16 O 6.27184 -1.45477 -0.496544 0
M  V30 17 N 6.5209 0.923871 0.606393 0
M  V30 18 N -3.05056 -0.0902607 -1.18543 0
M  V30 19 H -5.2494 -0.826458 -1.48489 0
M  V30 20 H -6.58038 -0.106048 -0.528985 0
M  V30 21 H -6.05774 -1.77046 -0.218595 0
M  V30 22 H -4.85641 0.825418 0.690903 0
M  V30 23 H -4.89555 -0.725105 1.55229 0
M  V30 24 H -3.14991 -1.63073 0.151412 0
M  V30 25 H -2.60833 -0.607014 2.1501 0
M  V30 26 H -2.63189 1.04102 1.54543 0
M  V30 27 H -0.365102 -0.766909 1.68036 0
M  V30 28 H 1.50988 2.00089 -1.36683 0
M  V30 29 H 3.88194 1.74935 -1.63166 0
M  V30 30 H 3.88975 -1.60933 0.928519 0
M  V30 31 H 1.457 -1.38631 1.22288 0
M  V30 32 H 6.30563 1.90803 0.379726 0
M  V30 33 H 5.99492 0.69038 1.50105 0
M  V30 34 H -3.07605 -0.823366 -1.90537 0
M  V30 35 H -3.47915 0.809408 -1.46374 0
M  V30 END ATOM
M  V30 BEGIN BOND
M  V30 1 1 1 2
M  V30 2 1 2 3
M  V30 3 1 3 4
M  V30 4 1 4 5
M  V30 5 1 5 6
M  V30 6 2 6 7
M  V30 7 1 6 8
M  V30 8 2 8 9
M  V30 9 1 9 10
M  V30 10 2 10 11
M  V30 11 1 11 12
M  V30 12 2 12 13
M  V30 13 1 11 14
M  V30 14 2 14 15
M  V30 15 2 14 16
M  V30 16 1 14 17
M  V30 17 1 3 18
M  V30 18 1 13 8
M  V30 19 1 1 19
M  V30 20 1 1 20
M  V30 21 1 1 21
M  V30 22 1 2 22
M  V30 23 1 2 23
M  V30 24 1 3 24
M  V30 25 1 4 25
M  V30 26 1 4 26
M  V30 27 1 5 27
M  V30 28 1 9 28
M  V30 29 1 10 29
M  V30 30 1 12 30
M  V30 31 1 13 31
M  V30 32 1 17 32
M  V30 33 1 17 33
M  V30 34 1 18 34
M  V30 35 1 18 35
M  V30 END BOND
M  V30 END CTAB
M  END
