
     RDKit          3D

  0  0  0  0  0  0  0  0  0  0999 V3000
M  V30 BEGIN CTAB
M  V30 COUNTS 37 39 0 0 0
M  V30 BEGIN ATOM
M  V30 1 O -0.399154 -2.70091 -0.733654 0
M  V30 2 C 0.138991 -1.59108 -0.598435 0
M  V30 3 N -0.537091 -0.402097 -0.370667 0
M  V30 4 C -1.91591 -0.155226 -0.241405 0
M  V30 5 C -2.38546 1.14866 -0.0096542 0
M  V30 6 C -3.7282 1.41435 0.120123 0
M  V30 7 C -4.67574 0.425266 0.0306306 0
M  V30 8 C -4.2403 -0.850733 -0.194571 0
M  V30 9 C -2.87592 -1.11331 -0.325301 0
M  V30 10 N -6.05205 0.748621 0.17151 0
M  V30 11 C -7.06511 -0.0639468 0.510589 0
M  V30 12 N -8.19474 0.663116 0.522781 0
M  V30 13 N -7.89051 1.89908 0.198711 0
M  V30 14 N -6.58409 1.93902 -0.0127335 0
M  V30 15 C 1.64545 -1.56087 -0.693488 0
M  V30 16 O 2.12292 -0.247598 -0.522911 0
M  V30 17 N 3.41784 0.129175 -0.550602 0
M  V30 18 C 4.29192 -0.158742 0.352677 0
M  V30 19 C 5.68951 0.287256 0.255885 0
M  V30 20 N 6.68851 0.0554411 1.1229 0
M  V30 21 O 7.75678 0.623141 0.663296 0
M  V30 22 N 7.53165 1.2268 -0.469681 0
M  V30 23 C 6.24619 1.03404 -0.750377 0
M  V30 24 N 5.54595 1.50598 -1.88428 0
M  V30 25 N 3.83199 -0.933169 1.45168 0
M  V30 26 H 0.105364 0.467933 -0.279268 0
M  V30 27 H -1.65614 1.93339 0.0628361 0
M  V30 28 H -4.06749 2.44072 0.300554 0
M  V30 29 H -4.96159 -1.63636 -0.267729 0
M  V30 30 H -2.59575 -2.13863 -0.501644 0
M  V30 31 H -6.99807 -1.12934 0.7389 0
M  V30 32 H 2.11029 -2.29838 -0.027716 0
M  V30 33 H 1.87885 -1.86341 -1.73591 0
M  V30 34 H 5.26892 2.50453 -2.01625 0
M  V30 35 H 5.2574 0.864642 -2.67755 0
M  V30 36 H 3.30775 -0.499774 2.24629 0
M  V30 37 H 3.98703 -1.96759 1.53208 0
M  V30 END ATOM
M  V30 BEGIN BOND
M  V30 1 2 1 2
M  V30 2 1 2 3
M  V30 3 1 3 4
M  V30 4 2 4 5
M  V30 5 1 5 6
M  V30 6 2 6 7
M  V30 7 1 7 8
M  V30 8 2 8 9
M  V30 9 1 7 10
M  V30 10 1 10 11
M  V30 11 2 11 12
M  V30 12 1 12 13
M  V30 13 2 13 14
M  V30 14 1 2 15
M  V30 15 1 15 16
M  V30 16 1 16 17
M  V30 17 2 17 18
M  V30 18 1 18 19
M  V30 19 2 19 20
M  V30 20 1 20 21
M  V30 21 1 21 22
M  V30 22 2 22 23
M  V30 23 1 23 24
M  V30 24 1 18 25
M  V30 25 1 9 4
M  V30 26 1 14 10
M  V30 27 1 23 19
M  V30 28 1 3 26
M  V30 29 1 5 27
M  V30 30 1 6 28
M  V30 31 1 8 29
M  V30 32 1 9 30
M  V30 33 1 11 31
M  V30 34 1 15 32
M  V30 35 1 15 33
M  V30 36 1 24 34
M  V30 37 1 24 35
M  V30 38 1 25 36
M  V30 39 1 25 37
M  V30 END BOND
M  V30 END CTAB
M  END
