
     RDKit          3D

  0  0  0  0  0  0  0  0  0  0999 V3000
M  V30 BEGIN CTAB
M  V30 COUNTS 17 17 0 0 0
M  V30 BEGIN ATOM
M  V30 1 N 3.43635 0.506526 -0.357941 0
M  V30 2 N 2.10531 0.836415 -0.462288 0
M  V30 3 C 1.09199 -0.073565 -0.106654 0
M  V30 4 O 1.43395 -1.2053 0.312477 0
M  V30 5 C -0.331192 0.263882 -0.212523 0
M  V30 6 C -1.3794 -0.565346 0.113338 0
M  V30 7 N -1.26492 -1.89449 0.6097 0
M  V30 8 N -2.52826 0.084969 -0.113712 0
M  V30 9 C -2.21598 1.31713 -0.579905 0
M  V30 10 N -0.875461 1.4222 -0.638662 0
M  V30 11 H 3.98763 1.0482 0.311295 0
M  V30 12 H 3.61042 -0.517387 -0.270473 0
M  V30 13 H 1.82232 1.76965 -0.807899 0
M  V30 14 H -1.24524 -2.69836 -0.0557018 0
M  V30 15 H -1.19723 -2.12767 1.62444 0
M  V30 16 H -3.52171 -0.248102 0.0254532 0
M  V30 17 H -2.9286 2.08125 -0.855897 0
M  V30 END ATOM
M  V30 BEGIN BOND
M  V30 1 1 1 2
M  V30 2 1 2 3
M  V30 3 2 3 4
M  V30 4 1 3 5
M  V30 5 2 5 6
M  V30 6 1 6 7
M  V30 7 1 6 8
M  V30 8 1 8 9
M  V30 9 2 9 10
M  V30 10 1 10 5
M  V30 11 1 1 11
M  V30 12 1 1 12
M  V30 13 1 2 13
M  V30 14 1 7 14
M  V30 15 1 7 15
M  V30 16 1 8 16
M  V30 17 1 9 17
M  V30 END BOND
M  V30 END CTAB
M  END
