
     RDKit          3D

  0  0  0  0  0  0  0  0  0  0999 V3000
M  V30 BEGIN CTAB
M  V30 COUNTS 24 25 0 0 0
M  V30 BEGIN ATOM
M  V30 1 N -3.11976 -2.33721 -0.714086 0
M  V30 2 C -2.45232 -1.10707 -0.454171 0
M  V30 3 N -3.09851 0.0557978 -0.283635 0
M  V30 4 C -2.39243 1.17247 -0.0417881 0
M  V30 5 N -3.13791 2.39383 0.133428 0
M  V30 6 N -1.05536 1.20947 0.0435514 0
M  V30 7 C -0.34855 0.0610443 -0.120824 0
M  V30 8 C -1.07305 -1.08234 -0.368547 0
M  V30 9 C 1.10108 0.0451199 -0.0383093 0
M  V30 10 C 1.90187 -1.05158 -0.187848 0
M  V30 11 C 3.29726 -0.995858 -0.0956625 0
M  V30 12 C 3.90771 0.21147 0.156835 0
M  V30 13 Cl 5.63756 0.308311 0.27611 0
M  V30 14 C 3.10821 1.33005 0.310372 0
M  V30 15 C 1.73571 1.26654 0.218145 0
M  V30 16 H -2.94521 -2.90071 -1.57507 0
M  V30 17 H -3.82826 -2.74194 -0.0443683 0
M  V30 18 H -3.96739 2.52987 -0.47545 0
M  V30 19 H -2.84648 3.10273 0.844724 0
M  V30 20 H -0.555004 -2.02667 -0.507436 0
M  V30 21 H 1.43502 -2.00603 -0.386566 0
M  V30 22 H 3.89516 -1.88898 -0.220619 0
M  V30 23 H 3.63352 2.27551 0.510871 0
M  V30 24 H 1.16716 2.17618 0.34782 0
M  V30 END ATOM
M  V30 BEGIN BOND
M  V30 1 1 1 2
M  V30 2 2 2 3
M  V30 3 1 3 4
M  V30 4 1 4 5
M  V30 5 2 4 6
M  V30 6 1 6 7
M  V30 7 2 7 8
M  V30 8 1 7 9
M  V30 9 2 9 10
M  V30 10 1 10 11
M  V30 11 2 11 12
M  V30 12 1 12 13
M  V30 13 1 12 14
M  V30 14 2 14 15
M  V30 15 1 8 2
M  V30 16 1 15 9
M  V30 17 1 1 16
M  V30 18 1 1 17
M  V30 19 1 5 18
M  V30 20 1 5 19
M  V30 21 1 8 20
M  V30 22 1 10 21
M  V30 23 1 11 22
M  V30 24 1 14 23
M  V30 25 1 15 24
M  V30 END BOND
M  V30 END CTAB
M  END
