
     RDKit          3D

  0  0  0  0  0  0  0  0  0  0999 V3000
M  V30 BEGIN CTAB
M  V30 COUNTS 45 47 0 0 0
M  V30 BEGIN ATOM
M  V30 1 N -6.51589 0.891448 0.148195 0
M  V30 2 C -5.06699 0.80499 0.214648 0
M  V30 3 C -4.37209 0.750118 -1.12107 0
M  V30 4 C -3.57586 -0.414458 -0.634625 0
M  V30 5 C -4.65413 -0.638388 0.431449 0
M  V30 6 C -2.23603 -0.152351 -0.0733134 0
M  V30 7 C -1.2381 -1.09893 -0.195565 0
M  V30 8 C 0.0405959 -0.865446 0.339148 0
M  V30 9 N 0.316142 0.260635 0.965873 0
M  V30 10 C -0.660449 1.20147 1.09115 0
M  V30 11 N -1.90141 0.98201 0.577696 0
M  V30 12 N -0.302079 2.39953 1.76646 0
M  V30 13 N 1.01634 -1.88059 0.1755 0
M  V30 14 C 2.10993 -1.73092 -0.731921 0
M  V30 15 C 3.12929 -0.772364 -0.185785 0
M  V30 16 C 3.6588 -1.12332 1.04435 0
M  V30 17 C 4.61809 -0.310869 1.6104 0
M  V30 18 C 5.05474 0.832147 0.9814 0
M  V30 19 C 4.5037 1.14672 -0.240988 0
M  V30 20 C 3.53148 0.3518 -0.846795 0
M  V30 21 C 4.91971 2.36687 -0.994899 0
M  V30 22 F 5.92456 2.98908 -0.24933 0
M  V30 23 F 3.82166 3.21789 -1.03161 0
M  V30 24 F 5.34633 1.99753 -2.21871 0
M  V30 25 C 0.846625 -3.08365 0.993028 0
M  V30 26 H -6.749 1.90174 -0.00604376 0
M  V30 27 H -6.8485 0.657849 1.106 0
M  V30 28 H -4.70278 1.5361 0.939748 0
M  V30 29 H -3.80671 1.66012 -1.41561 0
M  V30 30 H -5.12131 0.43788 -1.90056 0
M  V30 31 H -3.53577 -1.28425 -1.32842 0
M  V30 32 H -5.42023 -1.33547 0.00953891 0
M  V30 33 H -4.28172 -0.890292 1.419 0
M  V30 34 H -1.48442 -2.02713 -0.710968 0
M  V30 35 H -0.719608 2.61797 2.68607 0
M  V30 36 H 0.372314 3.06843 1.34802 0
M  V30 37 H 1.71634 -1.2924 -1.68637 0
M  V30 38 H 2.62969 -2.65595 -0.984956 0
M  V30 39 H 3.3509 -2.00962 1.58455 0
M  V30 40 H 5.04096 -0.570727 2.5722 0
M  V30 41 H 5.81547 1.49659 1.39294 0
M  V30 42 H 3.11025 0.614962 -1.82029 0
M  V30 43 H 0.946326 -2.71577 2.04385 0
M  V30 44 H -0.185683 -3.45649 0.898103 0
M  V30 45 H 1.55854 -3.87449 0.757404 0
M  V30 END ATOM
M  V30 BEGIN BOND
M  V30 1 1 1 2
M  V30 2 1 2 3
M  V30 3 1 3 4
M  V30 4 1 4 5
M  V30 5 1 4 6
M  V30 6 2 6 7
M  V30 7 1 7 8
M  V30 8 2 8 9
M  V30 9 1 9 10
M  V30 10 2 10 11
M  V30 11 1 10 12
M  V30 12 1 8 13
M  V30 13 1 13 14
M  V30 14 1 14 15
M  V30 15 2 15 16
M  V30 16 1 16 17
M  V30 17 2 17 18
M  V30 18 1 18 19
M  V30 19 2 19 20
M  V30 20 1 19 21
M  V30 21 1 21 22
M  V30 22 1 21 23
M  V30 23 1 21 24
M  V30 24 1 13 25
M  V30 25 1 5 2
M  V30 26 1 11 6
M  V30 27 1 20 15
M  V30 28 1 1 26
M  V30 29 1 1 27
M  V30 30 1 2 28
M  V30 31 1 3 29
M  V30 32 1 3 30
M  V30 33 1 4 31
M  V30 34 1 5 32
M  V30 35 1 5 33
M  V30 36 1 7 34
M  V30 37 1 12 35
M  V30 38 1 12 36
M  V30 39 1 14 37
M  V30 40 1 14 38
M  V30 41 1 16 39
M  V30 42 1 17 40
M  V30 43 1 18 41
M  V30 44 1 20 42
M  V30 45 1 25 43
M  V30 46 1 25 44
M  V30 47 1 25 45
M  V30 END BOND
M  V30 END CTAB
M  END
