
     RDKit          3D

  0  0  0  0  0  0  0  0  0  0999 V3000
M  V30 BEGIN CTAB
M  V30 COUNTS 28 28 0 0 0
M  V30 BEGIN ATOM
M  V30 1 C -3.39786 -2.49794 -0.182406 0
M  V30 2 C -2.74713 -1.62055 0.339637 0
M  V30 3 C -1.93866 -0.573424 0.967542 0
M  V30 4 N -1.26402 0.22714 -0.0638915 0
M  V30 5 C 0.137307 0.10612 -0.1393 0
M  V30 6 C 0.8464 0.829309 -1.06365 0
M  V30 7 C 2.23215 0.703764 -1.13555 0
M  V30 8 C 2.89698 -0.140166 -0.286135 0
M  V30 9 C 2.17427 -0.856885 0.633451 0
M  V30 10 N 0.839607 -0.711921 0.675111 0
M  V30 11 N 2.86237 -1.73064 1.51487 0
M  V30 12 N 4.31423 -0.246199 -0.384866 0
M  V30 13 C -2.09934 1.03964 -0.879693 0
M  V30 14 C -2.7421 2.19218 -0.135747 0
M  V30 15 H -3.9645 -3.26418 -0.651341 0
M  V30 16 H -1.23751 -1.06125 1.64628 0
M  V30 17 H -2.56514 0.150834 1.5309 0
M  V30 18 H 0.354695 1.50534 -1.7499 0
M  V30 19 H 2.76783 1.28624 -1.8758 0
M  V30 20 H 2.86449 -2.74972 1.32889 0
M  V30 21 H 3.36812 -1.3786 2.34722 0
M  V30 22 H 4.88691 0.500384 -0.810455 0
M  V30 23 H 4.83648 -1.08433 -0.0307299 0
M  V30 24 H -2.96188 0.391599 -1.19786 0
M  V30 25 H -1.63682 1.45772 -1.79081 0
M  V30 26 H -3.35612 2.73888 -0.910477 0
M  V30 27 H -3.45186 1.87061 0.638125 0
M  V30 28 H -2.01889 2.91604 0.264449 0
M  V30 END ATOM
M  V30 BEGIN BOND
M  V30 1 3 1 2
M  V30 2 1 2 3
M  V30 3 1 3 4
M  V30 4 1 4 5
M  V30 5 2 5 6
M  V30 6 1 6 7
M  V30 7 2 7 8
M  V30 8 1 8 9
M  V30 9 2 9 10
M  V30 10 1 9 11
M  V30 11 1 8 12
M  V30 12 1 4 13
M  V30 13 1 13 14
M  V30 14 1 10 5
M  V30 15 1 1 15
M  V30 16 1 3 16
M  V30 17 1 3 17
M  V30 18 1 6 18
M  V30 19 1 7 19
M  V30 20 1 11 20
M  V30 21 1 11 21
M  V30 22 1 12 22
M  V30 23 1 12 23
M  V30 24 1 13 24
M  V30 25 1 13 25
M  V30 26 1 14 26
M  V30 27 1 14 27
M  V30 28 1 14 28
M  V30 END BOND
M  V30 END CTAB
M  END
