
     RDKit          3D

  0  0  0  0  0  0  0  0  0  0999 V3000
M  V30 BEGIN CTAB
M  V30 COUNTS 25 25 0 0 0
M  V30 BEGIN ATOM
M  V30 1 O -3.06253 -0.595481 0.799731 0
M  V30 2 C -2.90067 -0.518759 -0.586757 0
M  V30 3 C -1.46207 -0.911303 -0.87233 0
M  V30 4 C -0.500035 0.0414014 -0.318683 0
M  V30 5 N 0.80068 -0.279422 -0.326013 0
M  V30 6 C 1.7539 0.508674 0.149319 0
M  V30 7 N 3.12469 0.133188 0.124056 0
M  V30 8 C 3.46287 -1.15151 -0.442186 0
M  V30 9 N 1.37293 1.69359 0.663994 0
M  V30 10 C 0.0866326 2.08246 0.704888 0
M  V30 11 N -0.834961 1.24288 0.208852 0
M  V30 12 N -0.293718 3.34081 1.25416 0
M  V30 13 N -1.18201 -2.25691 -0.410272 0
M  V30 14 H -3.97581 -0.892084 0.999062 0
M  V30 15 H -3.12998 0.485984 -0.942213 0
M  V30 16 H -3.60723 -1.24571 -1.03567 0
M  V30 17 H -1.36897 -0.941137 -1.98633 0
M  V30 18 H 3.86484 0.779595 0.509323 0
M  V30 19 H 4.3867 -1.52435 0.0841131 0
M  V30 20 H 2.61797 -1.84957 -0.221797 0
M  V30 21 H 3.61551 -1.11877 -1.53532 0
M  V30 22 H -0.197208 3.58185 2.26507 0
M  V30 23 H -0.694084 4.08488 0.640668 0
M  V30 24 H -0.151384 -2.27944 -0.190348 0
M  V30 25 H -1.72604 -2.41089 0.464686 0
M  V30 END ATOM
M  V30 BEGIN BOND
M  V30 1 1 1 2
M  V30 2 1 2 3
M  V30 3 1 3 4
M  V30 4 2 4 5
M  V30 5 1 5 6
M  V30 6 1 6 7
M  V30 7 1 7 8
M  V30 8 2 6 9
M  V30 9 1 9 10
M  V30 10 2 10 11
M  V30 11 1 10 12
M  V30 12 1 3 13
M  V30 13 1 11 4
M  V30 14 1 1 14
M  V30 15 1 2 15
M  V30 16 1 2 16
M  V30 17 1 3 17
M  V30 18 1 7 18
M  V30 19 1 8 19
M  V30 20 1 8 20
M  V30 21 1 8 21
M  V30 22 1 12 22
M  V30 23 1 12 23
M  V30 24 1 13 24
M  V30 25 1 13 25
M  V30 END BOND
M  V30 END CTAB
M  END
