
     RDKit          3D

  0  0  0  0  0  0  0  0  0  0999 V3000
M  V30 BEGIN CTAB
M  V30 COUNTS 31 32 0 0 0
M  V30 BEGIN ATOM
M  V30 1 O 1.99501 -0.200373 -2.05424 0
M  V30 2 C 2.79186 -0.18675 -1.08548 0
M  V30 3 C 4.25075 0.0556999 -1.17266 0
M  V30 4 C 4.77363 -0.808235 -0.0439515 0
M  V30 5 C 3.72617 -0.61304 0.993093 0
M  V30 6 O 3.83153 -0.625219 2.24088 0
M  V30 7 N 2.49563 -0.394362 0.289228 0
M  V30 8 C 1.17264 -0.387586 0.887306 0
M  V30 9 C 0.781868 1.00102 1.34846 0
M  V30 10 S -0.862403 0.979958 2.08709 0
M  V30 11 C -2.11972 0.597201 0.876776 0
M  V30 12 N -2.47541 -0.67884 0.642869 0
M  V30 13 C -3.41597 -1.01866 -0.257395 0
M  V30 14 N -3.78315 -2.37197 -0.494749 0
M  V30 15 C -4.03404 -0.00170029 -0.963493 0
M  V30 16 C -3.69288 1.33279 -0.748987 0
M  V30 17 N -2.74132 1.55946 0.172107 0
M  V30 18 N -4.32426 2.38637 -1.47167 0
M  V30 19 H 4.6606 -0.245185 -2.15762 0
M  V30 20 H 4.50346 1.11472 -0.924878 0
M  V30 21 H 4.72648 -1.86948 -0.347858 0
M  V30 22 H 5.77639 -0.492717 0.311047 0
M  V30 23 H 1.07643 -1.09217 1.73653 0
M  V30 24 H 0.426199 -0.707777 0.120315 0
M  V30 25 H 1.54607 1.41704 2.02578 0
M  V30 26 H 0.73944 1.69675 0.469285 0
M  V30 27 H -4.64238 -2.75547 -0.0406043 0
M  V30 28 H -3.23399 -3.0021 -1.10174 0
M  V30 29 H -4.78653 -0.232479 -1.68608 0
M  V30 30 H -5.35624 2.4463 -1.45235 0
M  V30 31 H -3.80586 3.09677 -2.01554 0
M  V30 END ATOM
M  V30 BEGIN BOND
M  V30 1 2 1 2
M  V30 2 1 2 3
M  V30 3 1 3 4
M  V30 4 1 4 5
M  V30 5 2 5 6
M  V30 6 1 5 7
M  V30 7 1 7 8
M  V30 8 1 8 9
M  V30 9 1 9 10
M  V30 10 1 10 11
M  V30 11 2 11 12
M  V30 12 1 12 13
M  V30 13 1 13 14
M  V30 14 2 13 15
M  V30 15 1 15 16
M  V30 16 2 16 17
M  V30 17 1 16 18
M  V30 18 1 7 2
M  V30 19 1 17 11
M  V30 20 1 3 19
M  V30 21 1 3 20
M  V30 22 1 4 21
M  V30 23 1 4 22
M  V30 24 1 8 23
M  V30 25 1 8 24
M  V30 26 1 9 25
M  V30 27 1 9 26
M  V30 28 1 14 27
M  V30 29 1 14 28
M  V30 30 1 15 29
M  V30 31 1 18 30
M  V30 32 1 18 31
M  V30 END BOND
M  V30 END CTAB
M  END
