
     RDKit          3D

  0  0  0  0  0  0  0  0  0  0999 V3000
M  V30 BEGIN CTAB
M  V30 COUNTS 50 53 0 0 0
M  V30 BEGIN ATOM
M  V30 1 C 7.17813 1.36121 1.01483 0
M  V30 2 O 5.96126 1.0865 0.391265 0
M  V30 3 C 5.26212 -0.0859683 0.323496 0
M  V30 4 C 5.69836 -1.23802 0.928871 0
M  V30 5 C 4.94479 -2.41668 0.82462 0
M  V30 6 C 3.76526 -2.39359 0.103317 0
M  V30 7 C 3.31425 -1.23247 -0.515736 0
M  V30 8 C 4.07084 -0.115657 -0.388673 0
M  V30 9 C 2.12449 -1.29907 -1.34626 0
M  V30 10 C 2.0753 -2.0614 -2.54042 0
M  V30 11 N 0.899755 -1.96477 -3.08986 0
M  V30 12 N 0.174095 -1.16433 -2.29523 0
M  V30 13 C 0.863464 -0.738929 -1.23399 0
M  V30 14 C 0.477332 0.263442 -0.188923 0
M  V30 15 C -0.361027 -0.265865 0.936467 0
M  V30 16 C -1.4118 0.730965 1.45499 0
M  V30 17 N -2.46577 0.705176 0.48295 0
M  V30 18 C -1.9471 0.475251 -0.893208 0
M  V30 19 C -0.602039 1.15561 -0.945677 0
M  V30 20 C -3.83628 0.815685 0.651067 0
M  V30 21 C -4.65123 -0.320248 0.666521 0
M  V30 22 C -6.02252 -0.194448 0.808433 0
M  V30 23 N -6.84988 -1.3266 0.841308 0
M  V30 24 N -6.57353 1.02318 0.933304 0
M  V30 25 C -5.77875 2.1197 0.915717 0
M  V30 26 N -4.43354 2.00738 0.776932 0
M  V30 27 N -6.36842 3.40908 1.03991 0
M  V30 28 H 6.99395 1.98383 1.92698 0
M  V30 29 H 7.86371 1.9504 0.344266 0
M  V30 30 H 7.69528 0.423277 1.35345 0
M  V30 31 H 6.61878 -1.28109 1.50084 0
M  V30 32 H 5.34241 -3.28346 1.32187 0
M  V30 33 H 3.21581 -3.31579 0.0404139 0
M  V30 34 H 3.75388 0.801071 -0.851572 0
M  V30 35 H 2.92213 -2.63541 -2.91119 0
M  V30 36 H -0.803421 -0.961809 -2.63641 0
M  V30 37 H 1.25691 0.978993 0.0673854 0
M  V30 38 H -0.848848 -1.17843 0.659424 0
M  V30 39 H 0.326381 -0.53037 1.81515 0
M  V30 40 H -0.957902 1.699 1.63163 0
M  V30 41 H -1.80375 0.26402 2.3946 0
M  V30 42 H -1.89457 -0.641793 -0.926464 0
M  V30 43 H -2.59117 0.893966 -1.65931 0
M  V30 44 H -0.242917 1.43982 -1.91889 0
M  V30 45 H -0.657869 2.07599 -0.315869 0
M  V30 46 H -4.22168 -1.29498 0.574197 0
M  V30 47 H -6.91685 -1.89932 1.69765 0
M  V30 48 H -7.40068 -1.57023 -0.0295672 0
M  V30 49 H -6.92641 3.79454 0.264821 0
M  V30 50 H -6.23076 3.95264 1.90125 0
M  V30 END ATOM
M  V30 BEGIN BOND
M  V30 1 1 1 2
M  V30 2 1 2 3
M  V30 3 2 3 4
M  V30 4 1 4 5
M  V30 5 2 5 6
M  V30 6 1 6 7
M  V30 7 2 7 8
M  V30 8 1 7 9
M  V30 9 1 9 10
M  V30 10 2 10 11
M  V30 11 1 11 12
M  V30 12 1 12 13
M  V30 13 1 13 14
M  V30 14 1 14 15
M  V30 15 1 15 16
M  V30 16 1 16 17
M  V30 17 1 17 18
M  V30 18 1 18 19
M  V30 19 1 17 20
M  V30 20 2 20 21
M  V30 21 1 21 22
M  V30 22 1 22 23
M  V30 23 2 22 24
M  V30 24 1 24 25
M  V30 25 2 25 26
M  V30 26 1 25 27
M  V30 27 1 8 3
M  V30 28 2 13 9
M  V30 29 1 19 14
M  V30 30 1 26 20
M  V30 31 1 1 28
M  V30 32 1 1 29
M  V30 33 1 1 30
M  V30 34 1 4 31
M  V30 35 1 5 32
M  V30 36 1 6 33
M  V30 37 1 8 34
M  V30 38 1 10 35
M  V30 39 1 12 36
M  V30 40 1 14 37
M  V30 41 1 15 38
M  V30 42 1 15 39
M  V30 43 1 16 40
M  V30 44 1 16 41
M  V30 45 1 18 42
M  V30 46 1 18 43
M  V30 47 1 19 44
M  V30 48 1 19 45
M  V30 49 1 21 46
M  V30 50 1 23 47
M  V30 51 1 23 48
M  V30 52 1 27 49
M  V30 53 1 27 50
M  V30 END BOND
M  V30 END CTAB
M  END
