
     RDKit          3D

  0  0  0  0  0  0  0  0  0  0999 V3000
M  V30 BEGIN CTAB
M  V30 COUNTS 30 30 0 0 0
M  V30 BEGIN ATOM
M  V30 1 C 3.43839 -0.228803 0.360462 0
M  V30 2 C 2.65157 -0.13211 -0.924037 0
M  V30 3 C 1.23854 -0.49705 -0.723889 0
M  V30 4 C 0.401604 0.376994 0.143199 0
M  V30 5 C -0.991981 -0.121396 0.218632 0
M  V30 6 C -2.0087 0.560342 -0.462094 0
M  V30 7 C -1.65582 1.70919 -1.32794 0
M  V30 8 C -3.28398 0.0827382 -0.316796 0
M  V30 9 C -3.59201 -1.01208 0.453574 0
M  V30 10 N -2.60144 -1.67532 1.11456 0
M  V30 11 C -1.31782 -1.20605 0.9814 0
M  V30 12 N -0.340406 -1.90814 1.77578 0
M  V30 13 N 0.59579 1.78424 0.106337 0
M  V30 14 H 4.11723 0.641758 0.534754 0
M  V30 15 H 4.10595 -1.14445 0.279134 0
M  V30 16 H 2.79926 -0.429728 1.21757 0
M  V30 17 H 2.77306 0.925638 -1.30499 0
M  V30 18 H 3.08482 -0.806551 -1.69572 0
M  V30 19 H 0.725298 -0.647972 -1.73563 0
M  V30 20 H 1.20684 -1.52994 -0.311985 0
M  V30 21 H 0.796821 0.11633 1.22048 0
M  V30 22 H -1.64942 2.6722 -0.798739 0
M  V30 23 H -2.49167 1.79244 -2.09172 0
M  V30 24 H -0.768972 1.51944 -1.98416 0
M  V30 25 H -4.11863 0.580164 -0.85259 0
M  V30 26 H -4.59902 -1.36552 0.57129 0
M  V30 27 H 0.214543 -2.66473 1.39416 0
M  V30 28 H -0.284431 -1.57344 2.78223 0
M  V30 29 H -0.0129216 2.17794 0.901331 0
M  V30 30 H 1.56748 2.00386 0.475392 0
M  V30 END ATOM
M  V30 BEGIN BOND
M  V30 1 1 1 2
M  V30 2 1 2 3
M  V30 3 1 3 4
M  V30 4 1 4 5
M  V30 5 2 5 6
M  V30 6 1 6 7
M  V30 7 1 6 8
M  V30 8 2 8 9
M  V30 9 1 9 10
M  V30 10 2 10 11
M  V30 11 1 11 12
M  V30 12 1 4 13
M  V30 13 1 11 5
M  V30 14 1 1 14
M  V30 15 1 1 15
M  V30 16 1 1 16
M  V30 17 1 2 17
M  V30 18 1 2 18
M  V30 19 1 3 19
M  V30 20 1 3 20
M  V30 21 1 4 21
M  V30 22 1 7 22
M  V30 23 1 7 23
M  V30 24 1 7 24
M  V30 25 1 8 25
M  V30 26 1 9 26
M  V30 27 1 12 27
M  V30 28 1 12 28
M  V30 29 1 13 29
M  V30 30 1 13 30
M  V30 END BOND
M  V30 END CTAB
M  END
