
     RDKit          3D

  0  0  0  0  0  0  0  0  0  0999 V3000
M  V30 BEGIN CTAB
M  V30 COUNTS 22 24 0 0 0
M  V30 BEGIN ATOM
M  V30 1 N 2.88242 3.20576 -0.264116 0
M  V30 2 C 2.36745 2.18028 -0.133487 0
M  V30 3 C 1.71888 0.916732 0.0492174 0
M  V30 4 C 2.43987 -0.237264 0.303959 0
M  V30 5 N 3.86937 -0.128186 0.380088 0
M  V30 6 N 1.83341 -1.44492 0.47948 0
M  V30 7 C 0.483775 -1.49288 0.397752 0
M  V30 8 C -0.225035 -0.34359 0.144667 0
M  V30 9 C 0.33169 0.901608 -0.0408978 0
M  V30 10 N -0.726228 1.8269 -0.277258 0
M  V30 11 C -1.86651 1.15442 -0.233225 0
M  V30 12 C -1.5898 -0.253041 0.0371406 0
M  V30 13 N -2.29911 -1.40047 0.195002 0
M  V30 14 C -1.6206 -2.54349 0.44494 0
M  V30 15 O -2.24831 -3.61991 0.595553 0
M  V30 16 N -0.26006 -2.60383 0.546775 0
M  V30 17 N -3.17614 1.67653 -0.414289 0
M  V30 18 H 4.43475 -0.837829 -0.116284 0
M  V30 19 H 4.34657 0.614841 0.89969 0
M  V30 20 H -3.33424 -1.34261 0.115384 0
M  V30 21 H -3.91869 1.16056 -0.93592 0
M  V30 22 H -3.44346 2.61041 -0.0243945 0
M  V30 END ATOM
M  V30 BEGIN BOND
M  V30 1 3 1 2
M  V30 2 1 2 3
M  V30 3 1 3 4
M  V30 4 1 4 5
M  V30 5 2 4 6
M  V30 6 1 6 7
M  V30 7 1 7 8
M  V30 8 1 8 9
M  V30 9 1 9 10
M  V30 10 2 10 11
M  V30 11 1 11 12
M  V30 12 1 12 13
M  V30 13 1 13 14
M  V30 14 2 14 15
M  V30 15 1 14 16
M  V30 16 1 11 17
M  V30 17 2 9 3
M  V30 18 2 16 7
M  V30 19 2 12 8
M  V30 20 1 5 18
M  V30 21 1 5 19
M  V30 22 1 13 20
M  V30 23 1 17 21
M  V30 24 1 17 22
M  V30 END BOND
M  V30 END CTAB
M  END
