
     RDKit          3D

  0  0  0  0  0  0  0  0  0  0999 V3000
M  V30 BEGIN CTAB
M  V30 COUNTS 34 34 0 0 0
M  V30 BEGIN ATOM
M  V30 1 N -3.32455 2.51975 -0.271362 0
M  V30 2 C -2.31427 1.67859 0.331304 0
M  V30 3 C -1.79258 0.752793 -0.721829 0
M  V30 4 N -0.793862 -0.146233 -0.327119 0
M  V30 5 C -1.09329 -1.1841 0.560019 0
M  V30 6 C -1.11615 -2.56897 -0.0958965 0
M  V30 7 C 0.247437 -2.92234 -0.644682 0
M  V30 8 O 0.572976 -1.98393 -1.61729 0
M  V30 9 C 1.38088 -1.01808 -1.00106 0
M  V30 10 C 0.543757 0.186784 -0.593466 0 CFG=2
M  V30 11 C 1.29627 0.856053 0.534705 0
M  V30 12 C 2.71474 1.13791 0.0560929 0
M  V30 13 N 3.49745 1.78063 1.09098 0
M  V30 14 H -2.94618 3.20426 -0.937222 0
M  V30 15 H -4.15128 1.98462 -0.608102 0
M  V30 16 H -1.55598 2.32907 0.790304 0
M  V30 17 H -2.81587 1.1462 1.17167 0
M  V30 18 H -2.6628 0.182508 -1.1162 0
M  V30 19 H -1.41723 1.3777 -1.55871 0
M  V30 20 H -0.474884 -1.2716 1.47028 0
M  V30 21 H -2.14811 -1.04284 0.940152 0
M  V30 22 H -1.38261 -3.30572 0.683894 0
M  V30 23 H -1.84376 -2.63507 -0.913516 0
M  V30 24 H 1.00907 -3.00166 0.145133 0
M  V30 25 H 0.148533 -3.89483 -1.15056 0
M  V30 26 H 1.88679 -1.45521 -0.113549 0
M  V30 27 H 2.16426 -0.762746 -1.74083 0
M  V30 28 H 0.583232 0.885598 -1.46183 0
M  V30 29 H 1.38167 0.221001 1.41854 0
M  V30 30 H 0.831527 1.83876 0.738966 0
M  V30 31 H 2.69457 1.87635 -0.798502 0
M  V30 32 H 3.23836 0.259743 -0.320589 0
M  V30 33 H 3.16848 1.51753 2.03487 0
M  V30 34 H 4.47339 1.45749 0.991093 0
M  V30 END ATOM
M  V30 BEGIN BOND
M  V30 1 1 1 2
M  V30 2 1 2 3
M  V30 3 1 3 4
M  V30 4 1 4 5
M  V30 5 1 5 6
M  V30 6 1 6 7
M  V30 7 1 7 8
M  V30 8 1 8 9
M  V30 9 1 9 10
M  V30 10 1 10 11
M  V30 11 1 11 12
M  V30 12 1 12 13
M  V30 13 1 10 4
M  V30 14 1 1 14
M  V30 15 1 1 15
M  V30 16 1 2 16
M  V30 17 1 2 17
M  V30 18 1 3 18
M  V30 19 1 3 19
M  V30 20 1 5 20
M  V30 21 1 5 21
M  V30 22 1 6 22
M  V30 23 1 6 23
M  V30 24 1 7 24
M  V30 25 1 7 25
M  V30 26 1 9 26
M  V30 27 1 9 27
M  V30 28 1 10 28 CFG=3
M  V30 29 1 11 29
M  V30 30 1 11 30
M  V30 31 1 12 31
M  V30 32 1 12 32
M  V30 33 1 13 33
M  V30 34 1 13 34
M  V30 END BOND
M  V30 END CTAB
M  END
