
     RDKit          3D

  0  0  0  0  0  0  0  0  0  0999 V3000
M  V30 BEGIN CTAB
M  V30 COUNTS 37 39 0 0 0
M  V30 BEGIN ATOM
M  V30 1 C 2.02315 -2.1947 -0.46282 0
M  V30 2 C 1.37623 -0.83627 -0.824985 0
M  V30 3 O 0.240381 -0.620754 -0.0365391 0
M  V30 4 C -1.00703 -0.445415 -0.586827 0
M  V30 5 C -2.03254 -0.268816 0.356569 0
M  V30 6 C -1.74538 -0.283145 1.72293 0
M  V30 7 N -0.398656 -0.481288 2.11011 0
M  V30 8 N -2.7483 -0.11433 2.57599 0
M  V30 9 C -4.00576 0.0657996 2.15909 0
M  V30 10 N -5.01914 0.239426 3.16198 0
M  V30 11 N -4.3286 0.0867438 0.861497 0
M  V30 12 C -3.33179 -0.0825969 -0.0607153 0
M  V30 13 C -3.63668 -0.068395 -1.40905 0
M  V30 14 C -2.61821 -0.243306 -2.31172 0
M  V30 15 C -1.30021 -0.432503 -1.91139 0
M  V30 16 C 2.42392 0.222745 -0.656349 0
M  V30 17 C 2.86812 0.665768 0.568173 0
M  V30 18 C 3.83946 1.65517 0.682215 0
M  V30 19 C 4.36558 2.20055 -0.469425 0
M  V30 20 C 3.9264 1.76243 -1.70391 0
M  V30 21 F 4.45042 2.30539 -2.83826 0
M  V30 22 C 2.96343 0.781525 -1.79493 0
M  V30 23 H 2.64943 -2.0027 0.45629 0
M  V30 24 H 1.26222 -2.94521 -0.2281 0
M  V30 25 H 2.72287 -2.461 -1.25631 0
M  V30 26 H 1.19989 -0.932413 -1.91003 0
M  V30 27 H 0.0172097 -1.42654 2.27308 0
M  V30 28 H 0.21467 0.358549 2.24231 0
M  V30 29 H -4.89057 -0.186104 4.10429 0
M  V30 30 H -5.88571 0.776398 2.98981 0
M  V30 31 H -4.66019 0.078513 -1.72626 0
M  V30 32 H -2.79684 -0.241705 -3.38088 0
M  V30 33 H -0.513096 -0.566401 -2.63519 0
M  V30 34 H 2.46577 0.242282 1.45754 0
M  V30 35 H 4.13901 1.95292 1.66295 0
M  V30 36 H 5.12285 2.97193 -0.385567 0
M  V30 37 H 2.6477 0.467449 -2.79556 0
M  V30 END ATOM
M  V30 BEGIN BOND
M  V30 1 1 1 2
M  V30 2 1 2 3
M  V30 3 1 3 4
M  V30 4 1 4 5
M  V30 5 2 5 6
M  V30 6 1 6 7
M  V30 7 1 6 8
M  V30 8 2 8 9
M  V30 9 1 9 10
M  V30 10 1 9 11
M  V30 11 2 11 12
M  V30 12 1 12 13
M  V30 13 2 13 14
M  V30 14 1 14 15
M  V30 15 1 2 16
M  V30 16 2 16 17
M  V30 17 1 17 18
M  V30 18 2 18 19
M  V30 19 1 19 20
M  V30 20 1 20 21
M  V30 21 2 20 22
M  V30 22 2 15 4
M  V30 23 1 22 16
M  V30 24 1 12 5
M  V30 25 1 1 23
M  V30 26 1 1 24
M  V30 27 1 1 25
M  V30 28 1 2 26
M  V30 29 1 7 27
M  V30 30 1 7 28
M  V30 31 1 10 29
M  V30 32 1 10 30
M  V30 33 1 13 31
M  V30 34 1 14 32
M  V30 35 1 15 33
M  V30 36 1 17 34
M  V30 37 1 18 35
M  V30 38 1 19 36
M  V30 39 1 22 37
M  V30 END BOND
M  V30 END CTAB
M  END
