
     RDKit          3D

  0  0  0  0  0  0  0  0  0  0999 V3000
M  V30 BEGIN CTAB
M  V30 COUNTS 23 23 0 0 0
M  V30 BEGIN ATOM
M  V30 1 C -2.69148 -1.86536 0.180962 0
M  V30 2 C -1.50838 -0.981473 -0.0314348 0
M  V30 3 N -0.230331 -1.30435 -0.23734 0
M  V30 4 N 0.537818 -0.240305 -0.384259 0
M  V30 5 C 1.98681 -0.210296 -0.625002 0
M  V30 6 C 2.73739 -0.173763 0.688414 0
M  V30 7 O 4.10966 -0.145434 0.453963 0
M  V30 8 C -0.268012 0.832207 -0.270432 0
M  V30 9 N 0.187099 2.19223 -0.370922 0
M  V30 10 C -1.56301 0.399383 -0.0478007 0
M  V30 11 N -2.68485 1.25213 0.122484 0
M  V30 12 H -2.58033 -2.84248 -0.346395 0
M  V30 13 H -3.61598 -1.39774 -0.217634 0
M  V30 14 H -2.75213 -2.09188 1.2641 0
M  V30 15 H 2.26746 0.626776 -1.28161 0
M  V30 16 H 2.25891 -1.15677 -1.13448 0
M  V30 17 H 2.45363 0.757926 1.23138 0
M  V30 18 H 2.4927 -1.07641 1.25491 0
M  V30 19 H 4.36318 -1.08623 0.19275 0
M  V30 20 H 0.34318 2.61228 -1.29966 0
M  V30 21 H 0.361608 2.76018 0.486596 0
M  V30 22 H -3.26492 1.19361 0.979596 0
M  V30 23 H -2.94002 1.94577 -0.608192 0
M  V30 END ATOM
M  V30 BEGIN BOND
M  V30 1 1 1 2
M  V30 2 2 2 3
M  V30 3 1 3 4
M  V30 4 1 4 5
M  V30 5 1 5 6
M  V30 6 1 6 7
M  V30 7 1 4 8
M  V30 8 1 8 9
M  V30 9 2 8 10
M  V30 10 1 10 11
M  V30 11 1 10 2
M  V30 12 1 1 12
M  V30 13 1 1 13
M  V30 14 1 1 14
M  V30 15 1 5 15
M  V30 16 1 5 16
M  V30 17 1 6 17
M  V30 18 1 6 18
M  V30 19 1 7 19
M  V30 20 1 9 20
M  V30 21 1 9 21
M  V30 22 1 11 22
M  V30 23 1 11 23
M  V30 END BOND
M  V30 END CTAB
M  END
