
     RDKit          3D

  0  0  0  0  0  0  0  0  0  0999 V3000
M  V30 BEGIN CTAB
M  V30 COUNTS 24 24 0 0 0
M  V30 BEGIN ATOM
M  V30 1 N 3.79693 -0.945317 -0.563132 0
M  V30 2 C 3.42037 0.371024 -0.303016 0
M  V30 3 C 2.03469 0.51222 0.313665 0
M  V30 4 N 1.02569 -0.0371039 -0.569711 0
M  V30 5 C -0.350736 -0.0317505 -0.232816 0
M  V30 6 C -0.764912 0.5064 0.964746 0
M  V30 7 C -2.12188 0.514526 1.30265 0
M  V30 8 C -3.0489 -0.0209857 0.428053 0
M  V30 9 C -2.64688 -0.561682 -0.771821 0
M  V30 10 C -1.28389 -0.560587 -1.09231 0
M  V30 11 I -0.587003 -1.36949 -2.90995 0
M  V30 12 N -4.43338 -0.0116575 0.774819 0
M  V30 13 H 4.76871 -1.21639 -0.503563 0
M  V30 14 H 3.08658 -1.67576 -0.578857 0
M  V30 15 H 3.48542 0.98473 -1.2251 0
M  V30 16 H 4.14016 0.839075 0.41464 0
M  V30 17 H 1.78208 1.59114 0.464975 0
M  V30 18 H 2.00167 0.054762 1.31799 0
M  V30 19 H 1.34695 -0.442345 -1.47375 0
M  V30 20 H -0.0460552 0.921775 1.64317 0
M  V30 21 H -2.3763 0.949929 2.25249 0
M  V30 22 H -3.32242 -0.994511 -1.4962 0
M  V30 23 H -4.78552 0.736587 1.42653 0
M  V30 24 H -5.12136 -0.709349 0.416504 0
M  V30 END ATOM
M  V30 BEGIN BOND
M  V30 1 1 1 2
M  V30 2 1 2 3
M  V30 3 1 3 4
M  V30 4 1 4 5
M  V30 5 2 5 6
M  V30 6 1 6 7
M  V30 7 2 7 8
M  V30 8 1 8 9
M  V30 9 2 9 10
M  V30 10 1 10 11
M  V30 11 1 8 12
M  V30 12 1 10 5
M  V30 13 1 1 13
M  V30 14 1 1 14
M  V30 15 1 2 15
M  V30 16 1 2 16
M  V30 17 1 3 17
M  V30 18 1 3 18
M  V30 19 1 4 19
M  V30 20 1 6 20
M  V30 21 1 7 21
M  V30 22 1 9 22
M  V30 23 1 12 23
M  V30 24 1 12 24
M  V30 END BOND
M  V30 END CTAB
M  END
