
     RDKit          3D

  0  0  0  0  0  0  0  0  0  0999 V3000
M  V30 BEGIN CTAB
M  V30 COUNTS 45 46 0 0 0
M  V30 BEGIN ATOM
M  V30 1 C -5.31741 -0.162533 -0.321879 0
M  V30 2 C -3.92081 -0.18512 -0.8981 0
M  V30 3 C -2.89643 0.348437 0.0470963 0
M  V30 4 C -2.87247 -0.472107 1.31412 0
M  V30 5 C -1.78952 0.00270297 2.25835 0
M  V30 6 C -1.01887 1.16195 1.65408 0
M  V30 7 N -0.533501 0.832742 0.314071 0
M  V30 8 C -1.52406 0.386554 -0.629117 0
M  V30 9 C 0.852272 0.97808 0.0746616 0
M  V30 10 O 1.53451 1.38686 1.09592 0
M  V30 11 C 1.54455 0.711257 -1.18982 0
M  V30 12 C 2.49293 -0.447286 -1.17634 0
M  V30 13 C 3.60309 -0.37024 -0.228848 0
M  V30 14 C 3.50536 -0.915959 1.02652 0
M  V30 15 C 4.55033 -0.837876 1.90497 0
M  V30 16 C 5.71006 -0.201543 1.5144 0
M  V30 17 C 5.8437 0.357235 0.263461 0
M  V30 18 C 4.78175 0.258672 -0.581544 0
M  V30 19 N 0.64243 0.496312 -2.30087 0
M  V30 20 N -3.64881 -1.53686 -1.3283 0
M  V30 21 H -5.43953 0.630486 0.444269 0
M  V30 22 H -6.06777 -0.00565208 -1.13199 0
M  V30 23 H -5.5382 -1.17463 0.0899105 0
M  V30 24 H -3.9696 0.431505 -1.83558 0
M  V30 25 H -3.14635 1.39998 0.283433 0
M  V30 26 H -2.69941 -1.54596 1.11548 0
M  V30 27 H -3.86579 -0.377598 1.78973 0
M  V30 28 H -2.28592 0.400376 3.16582 0
M  V30 29 H -1.13244 -0.835946 2.55856 0
M  V30 30 H -0.185369 1.37728 2.34789 0
M  V30 31 H -1.70836 2.02583 1.58683 0
M  V30 32 H -1.64019 1.1324 -1.43949 0
M  V30 33 H -1.27516 -0.58375 -1.06912 0
M  V30 34 H 2.15926 1.62599 -1.4093 0
M  V30 35 H 1.94056 -1.40878 -1.05324 0
M  V30 36 H 2.92964 -0.504418 -2.21002 0
M  V30 37 H 2.59631 -1.42732 1.36398 0
M  V30 38 H 4.5114 -1.259 2.91118 0
M  V30 39 H 6.54517 -0.129542 2.19265 0
M  V30 40 H 6.7609 0.855173 -0.0322217 0
M  V30 41 H 4.89601 0.707825 -1.57995 0
M  V30 42 H 0.61183 -0.51533 -2.54204 0
M  V30 43 H 0.993452 1.02708 -3.14082 0
M  V30 44 H -2.85247 -1.98382 -0.870318 0
M  V30 45 H -3.67706 -1.65345 -2.36408 0
M  V30 END ATOM
M  V30 BEGIN BOND
M  V30 1 1 1 2
M  V30 2 1 2 3
M  V30 3 1 3 4
M  V30 4 1 4 5
M  V30 5 1 5 6
M  V30 6 1 6 7
M  V30 7 1 7 8
M  V30 8 1 7 9
M  V30 9 2 9 10
M  V30 10 1 9 11
M  V30 11 1 11 12
M  V30 12 1 12 13
M  V30 13 2 13 14
M  V30 14 1 14 15
M  V30 15 2 15 16
M  V30 16 1 16 17
M  V30 17 2 17 18
M  V30 18 1 11 19
M  V30 19 1 2 20
M  V30 20 1 8 3
M  V30 21 1 18 13
M  V30 22 1 1 21
M  V30 23 1 1 22
M  V30 24 1 1 23
M  V30 25 1 2 24
M  V30 26 1 3 25
M  V30 27 1 4 26
M  V30 28 1 4 27
M  V30 29 1 5 28
M  V30 30 1 5 29
M  V30 31 1 6 30
M  V30 32 1 6 31
M  V30 33 1 8 32
M  V30 34 1 8 33
M  V30 35 1 11 34
M  V30 36 1 12 35
M  V30 37 1 12 36
M  V30 38 1 14 37
M  V30 39 1 15 38
M  V30 40 1 16 39
M  V30 41 1 17 40
M  V30 42 1 18 41
M  V30 43 1 19 42
M  V30 44 1 19 43
M  V30 45 1 20 44
M  V30 46 1 20 45
M  V30 END BOND
M  V30 END CTAB
M  END
