
     RDKit          3D

  0  0  0  0  0  0  0  0  0  0999 V3000
M  V30 BEGIN CTAB
M  V30 COUNTS 37 38 0 0 0
M  V30 BEGIN ATOM
M  V30 1 N 2.99899 -0.846825 -2.30591 0
M  V30 2 C 2.61129 -0.243865 -1.08297 0
M  V30 3 C 1.43426 -0.571624 -0.442791 0
M  V30 4 C 1.09753 0.0394506 0.745497 0
M  V30 5 C 1.9365 0.974206 1.28605 0
M  V30 6 C 3.12123 1.29486 0.628268 0
M  V30 7 C 3.47482 0.69436 -0.558983 0
M  V30 8 O 4.66621 1.04341 -1.18194 0
M  V30 9 C -0.16734 -0.336258 1.40879 0
M  V30 10 C -1.2244 -0.310079 0.380021 0
M  V30 11 C -1.37091 0.789708 -0.452619 0
M  V30 12 C -2.34112 0.841239 -1.40117 0
M  V30 13 N -2.50302 1.96019 -2.25928 0
M  V30 14 C -3.23643 -0.201272 -1.58881 0
M  V30 15 O -4.22916 -0.135844 -2.56747 0
M  V30 16 C -3.10742 -1.29445 -0.777242 0
M  V30 17 C -2.09939 -1.33835 0.202455 0
M  V30 18 C 0.0400785 -1.75215 1.8887 0
M  V30 19 F 0.28786 -2.66773 0.910556 0
M  V30 20 F -0.868096 -2.22653 2.76907 0
M  V30 21 F 1.26632 -1.78262 2.63769 0
M  V30 22 C -0.638738 0.563599 2.50325 0
M  V30 23 F -1.85835 0.134278 3.02066 0
M  V30 24 F -0.814813 1.83711 2.07036 0
M  V30 25 F 0.172825 0.611931 3.62287 0
M  V30 26 H 3.36288 -1.8109 -2.30772 0
M  V30 27 H 2.91595 -0.320758 -3.18616 0
M  V30 28 H 0.833353 -1.31099 -0.962408 0
M  V30 29 H 1.75043 1.50925 2.20356 0
M  V30 30 H 3.77824 2.03744 1.06756 0
M  V30 31 H 5.28738 1.73424 -0.782816 0
M  V30 32 H -0.699792 1.66103 -0.376905 0
M  V30 33 H -2.66252 2.88808 -1.83427 0
M  V30 34 H -2.45918 1.82966 -3.28213 0
M  V30 35 H -4.84483 -0.932381 -2.64613 0
M  V30 36 H -3.80169 -2.11091 -0.91767 0
M  V30 37 H -2.10893 -2.25049 0.770316 0
M  V30 END ATOM
M  V30 BEGIN BOND
M  V30 1 1 1 2
M  V30 2 2 2 3
M  V30 3 1 3 4
M  V30 4 2 4 5
M  V30 5 1 5 6
M  V30 6 2 6 7
M  V30 7 1 7 8
M  V30 8 1 4 9
M  V30 9 1 9 10
M  V30 10 2 10 11
M  V30 11 1 11 12
M  V30 12 1 12 13
M  V30 13 2 12 14
M  V30 14 1 14 15
M  V30 15 1 14 16
M  V30 16 2 16 17
M  V30 17 1 9 18
M  V30 18 1 18 19
M  V30 19 1 18 20
M  V30 20 1 18 21
M  V30 21 1 9 22
M  V30 22 1 22 23
M  V30 23 1 22 24
M  V30 24 1 22 25
M  V30 25 1 7 2
M  V30 26 1 17 10
M  V30 27 1 1 26
M  V30 28 1 1 27
M  V30 29 1 3 28
M  V30 30 1 5 29
M  V30 31 1 6 30
M  V30 32 1 8 31
M  V30 33 1 11 32
M  V30 34 1 13 33
M  V30 35 1 13 34
M  V30 36 1 15 35
M  V30 37 1 16 36
M  V30 38 1 17 37
M  V30 END BOND
M  V30 END CTAB
M  END
