
     RDKit          3D

  0  0  0  0  0  0  0  0  0  0999 V3000
M  V30 BEGIN CTAB
M  V30 COUNTS 41 44 0 0 0
M  V30 BEGIN ATOM
M  V30 1 C -1.98311 -3.67998 -0.440545 0
M  V30 2 C -2.7584 -2.38916 -0.332457 0
M  V30 3 C -3.55174 -2.42875 0.950629 0
M  V30 4 N -1.80424 -1.29466 -0.357711 0
M  V30 5 N -0.498744 -1.33898 -0.428653 0
M  V30 6 C 0.0642645 -0.102783 -0.430754 0
M  V30 7 C -0.966506 0.792631 -0.352813 0
M  V30 8 C -1.08751 2.16777 -0.297844 0
M  V30 9 N 0.06129 3.0016 -0.298922 0
M  V30 10 N -2.33251 2.71969 -0.207366 0
M  V30 11 C -3.44798 1.98703 -0.167922 0
M  V30 12 C -4.8095 2.59249 -0.0700102 0
M  V30 13 N -3.30049 0.658348 -0.22044 0
M  V30 14 C -2.13134 0.013156 -0.309318 0
M  V30 15 C 1.48486 0.197294 -0.470084 0
M  V30 16 C 2.33936 -0.31576 0.517759 0
M  V30 17 C 3.70361 -0.115154 0.497418 0
M  V30 18 C 4.2552 0.616983 -0.530719 0
M  V30 19 O 5.54406 0.657781 -0.316207 0
M  V30 20 C 5.88293 0.0105038 0.771277 0
M  V30 21 N 7.20072 -0.150028 1.3075 0
M  V30 22 N 4.73079 -0.474361 1.28216 0
M  V30 23 C 3.40337 1.11698 -1.49833 0
M  V30 24 C 2.03505 0.925768 -1.49438 0
M  V30 25 H -1.40437 -3.7091 -1.39819 0
M  V30 26 H -1.27783 -3.82435 0.404146 0
M  V30 27 H -2.65473 -4.56228 -0.473665 0
M  V30 28 H -3.46762 -2.35587 -1.17296 0
M  V30 29 H -4.52948 -2.93005 0.767481 0
M  V30 30 H -3.78176 -1.42986 1.35013 0
M  V30 31 H -2.99459 -2.98937 1.73911 0
M  V30 32 H 0.685393 2.96422 0.536509 0
M  V30 33 H 0.26772 3.62642 -1.10894 0
M  V30 34 H -4.66941 3.66809 0.19542 0
M  V30 35 H -5.43965 2.08523 0.689937 0
M  V30 36 H -5.32288 2.55885 -1.07385 0
M  V30 37 H 1.93097 -0.897934 1.34178 0
M  V30 38 H 7.9557 -0.580691 0.749593 0
M  V30 39 H 7.39169 0.172273 2.2679 0
M  V30 40 H 3.84977 1.69041 -2.30051 0
M  V30 41 H 1.42762 1.3456 -2.31843 0
M  V30 END ATOM
M  V30 BEGIN BOND
M  V30 1 1 1 2
M  V30 2 1 2 3
M  V30 3 1 2 4
M  V30 4 1 4 5
M  V30 5 2 5 6
M  V30 6 1 6 7
M  V30 7 2 7 8
M  V30 8 1 8 9
M  V30 9 1 8 10
M  V30 10 2 10 11
M  V30 11 1 11 12
M  V30 12 1 11 13
M  V30 13 2 13 14
M  V30 14 1 6 15
M  V30 15 2 15 16
M  V30 16 1 16 17
M  V30 17 2 17 18
M  V30 18 1 18 19
M  V30 19 1 19 20
M  V30 20 1 20 21
M  V30 21 2 20 22
M  V30 22 1 18 23
M  V30 23 2 23 24
M  V30 24 1 14 4
M  V30 25 1 24 15
M  V30 26 1 14 7
M  V30 27 1 22 17
M  V30 28 1 1 25
M  V30 29 1 1 26
M  V30 30 1 1 27
M  V30 31 1 2 28
M  V30 32 1 3 29
M  V30 33 1 3 30
M  V30 34 1 3 31
M  V30 35 1 9 32
M  V30 36 1 9 33
M  V30 37 1 12 34
M  V30 38 1 12 35
M  V30 39 1 12 36
M  V30 40 1 16 37
M  V30 41 1 21 38
M  V30 42 1 21 39
M  V30 43 1 23 40
M  V30 44 1 24 41
M  V30 END BOND
M  V30 END CTAB
M  END
