
     RDKit          3D

  0  0  0  0  0  0  0  0  0  0999 V3000
M  V30 BEGIN CTAB
M  V30 COUNTS 28 28 0 0 0
M  V30 BEGIN ATOM
M  V30 1 C -2.42019 1.32262 1.15619 0
M  V30 2 C -1.18134 0.706711 0.695316 0
M  V30 3 C -0.0764702 0.525505 1.54215 0
M  V30 4 C 1.08332 -0.086187 1.11736 0
M  V30 5 C 2.26586 -0.189487 1.97369 0
M  V30 6 C 1.1613 -0.554612 -0.184954 0
M  V30 7 C 2.36264 -1.3496 -0.535897 0
M  V30 8 N 3.23536 -0.432228 -1.30938 0
M  V30 9 C 0.0781343 -0.358821 -1.00409 0
M  V30 10 C -1.0633 0.254095 -0.624221 0
M  V30 11 C -2.20725 0.528848 -1.57723 0
M  V30 12 N -2.85481 -0.787369 -1.86053 0
M  V30 13 H -3.04491 0.587295 1.74158 0
M  V30 14 H -3.01668 1.88064 0.4063 0
M  V30 15 H -2.16593 2.17848 1.89978 0
M  V30 16 H -0.163766 0.856867 2.61644 0
M  V30 17 H 3.0652 0.51086 1.68789 0
M  V30 18 H 2.71673 -1.18258 2.05917 0
M  V30 19 H 1.89605 -0.0102787 3.05255 0
M  V30 20 H 2.03196 -2.07626 -1.39345 0
M  V30 21 H 2.81297 -1.8327 0.277349 0
M  V30 22 H 3.02968 0.547524 -0.876233 0
M  V30 23 H 3.07091 -0.339211 -2.28223 0
M  V30 24 H 0.177604 -0.6517 -2.09938 0
M  V30 25 H -1.67054 0.658062 -2.62166 0
M  V30 26 H -2.80201 1.38027 -1.33897 0
M  V30 27 H -2.48049 -1.44658 -1.05265 0
M  V30 28 H -3.84005 -0.640152 -1.4649 0
M  V30 END ATOM
M  V30 BEGIN BOND
M  V30 1 1 1 2
M  V30 2 2 2 3
M  V30 3 1 3 4
M  V30 4 1 4 5
M  V30 5 2 4 6
M  V30 6 1 6 7
M  V30 7 1 7 8
M  V30 8 1 6 9
M  V30 9 2 9 10
M  V30 10 1 10 11
M  V30 11 1 11 12
M  V30 12 1 10 2
M  V30 13 1 1 13
M  V30 14 1 1 14
M  V30 15 1 1 15
M  V30 16 1 3 16
M  V30 17 1 5 17
M  V30 18 1 5 18
M  V30 19 1 5 19
M  V30 20 1 7 20
M  V30 21 1 7 21
M  V30 22 1 8 22
M  V30 23 1 8 23
M  V30 24 1 9 24
M  V30 25 1 11 25
M  V30 26 1 11 26
M  V30 27 1 12 27
M  V30 28 1 12 28
M  V30 END BOND
M  V30 END CTAB
M  END
