
     RDKit          3D

  0  0  0  0  0  0  0  0  0  0999 V3000
M  V30 BEGIN CTAB
M  V30 COUNTS 42 44 0 0 0
M  V30 BEGIN ATOM
M  V30 1 Cl -1.73301 1.54851 2.43977 0
M  V30 2 C -0.499869 0.625492 1.62173 0
M  V30 3 C -0.690582 -0.637084 1.18473 0
M  V30 4 N -1.89324 -1.38131 1.3255 0
M  V30 5 C -3.11754 -0.945458 0.782157 0
M  V30 6 C -3.2693 -0.543771 -0.514066 0
M  V30 7 C -4.5215 -0.0897893 -0.921175 0
M  V30 8 C -5.58173 -0.04279 -0.0501459 0
M  V30 9 C -5.414 -0.456442 1.27136 0
M  V30 10 C -4.19154 -0.904508 1.68432 0
M  V30 11 S -7.17499 0.461689 -0.492704 0
M  V30 12 O -7.80459 1.29191 0.641466 0
M  V30 13 O -8.03673 -0.741362 -0.680123 0
M  V30 14 N -7.22335 1.4527 -1.88385 0
M  V30 15 C 0.548728 -1.07122 0.576008 0
M  V30 16 O 0.755161 -2.20418 0.0499362 0
M  V30 17 N 1.51639 -0.0355008 0.651371 0
M  V30 18 C 0.86012 1.04901 1.31553 0
M  V30 19 O 1.38319 2.1709 1.58015 0
M  V30 20 C 2.85561 -0.0280196 0.177976 0
M  V30 21 C 3.68113 -1.10396 0.427422 0
M  V30 22 C 4.97037 -1.07336 -0.0499444 0
M  V30 23 C 5.50018 -0.0261621 -0.772819 0
M  V30 24 C 4.63378 1.04886 -1.00757 0
M  V30 25 C 3.35111 1.05498 -0.55 0
M  V30 26 S 7.1116 0.0223239 -1.42599 0
M  V30 27 O 7.5218 -1.29612 -2.02038 0
M  V30 28 O 7.1322 1.02784 -2.57167 0
M  V30 29 N 8.1858 0.603082 -0.239723 0
M  V30 30 H -1.83514 -2.30297 1.86529 0
M  V30 31 H -2.43252 -0.585656 -1.2235 0
M  V30 32 H -4.64312 0.225529 -1.92705 0
M  V30 33 H -6.22655 -0.418136 1.97991 0
M  V30 34 H -4.04042 -1.23929 2.7255 0
M  V30 35 H -7.2766 0.942549 -2.77333 0
M  V30 36 H -6.4655 2.15267 -1.84585 0
M  V30 37 H 3.2844 -1.92778 0.994251 0
M  V30 38 H 5.6009 -1.90622 0.14808 0
M  V30 39 H 5.02684 1.90434 -1.57478 0
M  V30 40 H 2.65903 1.87911 -0.719976 0
M  V30 41 H 8.99721 1.12277 -0.637448 0
M  V30 42 H 8.49626 -0.134339 0.439655 0
M  V30 END ATOM
M  V30 BEGIN BOND
M  V30 1 1 1 2
M  V30 2 2 2 3
M  V30 3 1 3 4
M  V30 4 1 4 5
M  V30 5 2 5 6
M  V30 6 1 6 7
M  V30 7 2 7 8
M  V30 8 1 8 9
M  V30 9 2 9 10
M  V30 10 1 8 11
M  V30 11 2 11 12
M  V30 12 2 11 13
M  V30 13 1 11 14
M  V30 14 1 3 15
M  V30 15 2 15 16
M  V30 16 1 15 17
M  V30 17 1 17 18
M  V30 18 2 18 19
M  V30 19 1 17 20
M  V30 20 2 20 21
M  V30 21 1 21 22
M  V30 22 2 22 23
M  V30 23 1 23 24
M  V30 24 2 24 25
M  V30 25 1 23 26
M  V30 26 2 26 27
M  V30 27 2 26 28
M  V30 28 1 26 29
M  V30 29 1 18 2
M  V30 30 1 25 20
M  V30 31 1 10 5
M  V30 32 1 4 30
M  V30 33 1 6 31
M  V30 34 1 7 32
M  V30 35 1 9 33
M  V30 36 1 10 34
M  V30 37 1 14 35
M  V30 38 1 14 36
M  V30 39 1 21 37
M  V30 40 1 22 38
M  V30 41 1 24 39
M  V30 42 1 25 40
M  V30 43 1 29 41
M  V30 44 1 29 42
M  V30 END BOND
M  V30 END CTAB
M  END
