
     RDKit          3D

  0  0  0  0  0  0  0  0  0  0999 V3000
M  V30 BEGIN CTAB
M  V30 COUNTS 49 51 0 0 0
M  V30 BEGIN ATOM
M  V30 1 N -6.05903 -1.56221 1.65155 0
M  V30 2 S -5.07255 -2.15845 0.364371 0
M  V30 3 O -4.48326 -3.46972 0.727685 0
M  V30 4 O -5.98525 -2.34043 -0.828608 0
M  V30 5 C -3.8409 -0.964089 0.0150726 0
M  V30 6 C -4.04404 0.0407356 -0.913598 0
M  V30 7 C -3.06443 0.975673 -1.1791 0
M  V30 8 C -1.83558 0.955047 -0.532732 0
M  V30 9 Cl -0.606921 2.16085 -0.894225 0
M  V30 10 C -1.62091 -0.040671 0.394414 0
M  V30 11 C -2.62132 -0.98396 0.656088 0
M  V30 12 N -0.378733 -0.110188 1.08886 0
M  V30 13 C 0.137974 0.937136 1.93933 0
M  V30 14 C 1.63284 0.946046 1.71251 0
M  V30 15 N 2.16212 -0.24923 2.30627 0
M  V30 16 C 1.52107 -1.45482 1.89949 0
M  V30 17 C 0.398949 -1.29682 0.931742 0
M  V30 18 S 3.8636 -0.255405 2.11981 0
M  V30 19 O 4.40387 0.982322 2.77889 0
M  V30 20 O 4.51088 -1.42619 2.80228 0
M  V30 21 C 4.36854 -0.258754 0.464959 0
M  V30 22 C 4.5954 -1.39677 -0.270537 0
M  V30 23 C 4.99652 -1.29781 -1.58833 0
M  V30 24 C 5.17947 -0.0733483 -2.19908 0
M  V30 25 Cl 5.69055 -0.0401844 -3.87717 0
M  V30 26 C 4.95456 1.07699 -1.4701 0
M  V30 27 C 4.55494 0.957838 -0.157061 0
M  V30 28 S -3.32881 2.24202 -2.35387 0
M  V30 29 N -3.20292 3.80984 -1.65154 0
M  V30 30 O -2.31926 2.12186 -3.43978 0
M  V30 31 O -4.71138 2.10037 -2.95695 0
M  V30 32 H -6.89622 -1.08597 1.28098 0
M  V30 33 H -6.29382 -2.37144 2.26188 0
M  V30 34 H -5.01579 0.0585311 -1.42594 0
M  V30 35 H -2.43239 -1.75482 1.38551 0
M  V30 36 H -0.332222 1.92134 1.7702 0
M  V30 37 H -0.122858 0.651641 2.97947 0
M  V30 38 H 1.86101 0.921089 0.643903 0
M  V30 39 H 2.12931 1.80954 2.23722 0
M  V30 40 H 1.1778 -1.9901 2.80998 0
M  V30 41 H 2.28604 -2.11221 1.43095 0
M  V30 42 H 0.769635 -1.32277 -0.128659 0
M  V30 43 H -0.297803 -2.16692 1.01748 0
M  V30 44 H 4.44423 -2.34149 0.233594 0
M  V30 45 H 5.1728 -2.2019 -2.15971 0
M  V30 46 H 5.10525 2.02305 -1.97266 0
M  V30 47 H 4.38822 1.89767 0.382574 0
M  V30 48 H -2.36975 4.32715 -1.94808 0
M  V30 49 H -3.36942 3.80993 -0.624608 0
M  V30 END ATOM
M  V30 BEGIN BOND
M  V30 1 1 1 2
M  V30 2 2 2 3
M  V30 3 2 2 4
M  V30 4 1 2 5
M  V30 5 2 5 6
M  V30 6 1 6 7
M  V30 7 2 7 8
M  V30 8 1 8 9
M  V30 9 1 8 10
M  V30 10 2 10 11
M  V30 11 1 10 12
M  V30 12 1 12 13
M  V30 13 1 13 14
M  V30 14 1 14 15
M  V30 15 1 15 16
M  V30 16 1 16 17
M  V30 17 1 15 18
M  V30 18 2 18 19
M  V30 19 2 18 20
M  V30 20 1 18 21
M  V30 21 2 21 22
M  V30 22 1 22 23
M  V30 23 2 23 24
M  V30 24 1 24 25
M  V30 25 1 24 26
M  V30 26 2 26 27
M  V30 27 1 7 28
M  V30 28 1 28 29
M  V30 29 2 28 30
M  V30 30 2 28 31
M  V30 31 1 11 5
M  V30 32 1 17 12
M  V30 33 1 27 21
M  V30 34 1 1 32
M  V30 35 1 1 33
M  V30 36 1 6 34
M  V30 37 1 11 35
M  V30 38 1 13 36
M  V30 39 1 13 37
M  V30 40 1 14 38
M  V30 41 1 14 39
M  V30 42 1 16 40
M  V30 43 1 16 41
M  V30 44 1 17 42
M  V30 45 1 17 43
M  V30 46 1 22 44
M  V30 47 1 23 45
M  V30 48 1 26 46
M  V30 49 1 27 47
M  V30 50 1 29 48
M  V30 51 1 29 49
M  V30 END BOND
M  V30 END CTAB
M  END
