
     RDKit          3D

  0  0  0  0  0  0  0  0  0  0999 V3000
M  V30 BEGIN CTAB
M  V30 COUNTS 28 28 0 0 0
M  V30 BEGIN ATOM
M  V30 1 C 4.70199 1.60763 -0.759355 0
M  V30 2 S 3.8354 0.372015 0.208998 0
M  V30 3 O 4.59603 -0.924858 0.317013 0
M  V30 4 C 2.15299 0.126544 -0.385976 0
M  V30 5 C 1.53459 -0.927789 0.503384 0
M  V30 6 N 0.189682 -1.27224 0.187913 0
M  V30 7 C -0.913071 -0.390316 0.270267 0
M  V30 8 N -0.730044 0.865539 0.685161 0
M  V30 9 C -1.7209 1.76485 0.799746 0
M  V30 10 C -3.03097 1.42558 0.482585 0
M  V30 11 C -3.22845 0.126196 0.0519925 0
M  V30 12 C -2.19919 -0.783455 -0.059519 0
M  V30 13 N -2.43343 -2.10921 -0.504152 0
M  V30 14 N -4.54531 -0.300814 -0.293189 0
M  V30 15 H 4.66676 1.3583 -1.85339 0
M  V30 16 H 4.28199 2.58616 -0.527344 0
M  V30 17 H 5.77113 1.56814 -0.46196 0
M  V30 18 H 2.12001 -0.168537 -1.43909 0
M  V30 19 H 1.62842 1.06603 -0.240803 0
M  V30 20 H 2.15243 -1.86828 0.458523 0
M  V30 21 H 1.62944 -0.613888 1.58272 0
M  V30 22 H -0.0484406 -2.25958 -0.139619 0
M  V30 23 H -1.51541 2.76506 1.1399 0
M  V30 24 H -3.8462 2.12704 0.565069 0
M  V30 25 H -3.22973 -2.6898 -0.164195 0
M  V30 26 H -1.80444 -2.56645 -1.20454 0
M  V30 27 H -5.33354 0.0347826 0.308905 0
M  V30 28 H -4.68174 -0.918664 -1.11362 0
M  V30 END ATOM
M  V30 BEGIN BOND
M  V30 1 1 1 2
M  V30 2 2 2 3
M  V30 3 1 2 4
M  V30 4 1 4 5
M  V30 5 1 5 6
M  V30 6 1 6 7
M  V30 7 2 7 8
M  V30 8 1 8 9
M  V30 9 2 9 10
M  V30 10 1 10 11
M  V30 11 2 11 12
M  V30 12 1 12 13
M  V30 13 1 11 14
M  V30 14 1 12 7
M  V30 15 1 1 15
M  V30 16 1 1 16
M  V30 17 1 1 17
M  V30 18 1 4 18
M  V30 19 1 4 19
M  V30 20 1 5 20
M  V30 21 1 5 21
M  V30 22 1 6 22
M  V30 23 1 9 23
M  V30 24 1 10 24
M  V30 25 1 13 25
M  V30 26 1 13 26
M  V30 27 1 14 27
M  V30 28 1 14 28
M  V30 END BOND
M  V30 END CTAB
M  END
