
     RDKit          3D

  0  0  0  0  0  0  0  0  0  0999 V3000
M  V30 BEGIN CTAB
M  V30 COUNTS 85 89 0 0 0
M  V30 BEGIN ATOM
M  V30 1 C 2.44295 -2.15743 -1.27466 0
M  V30 2 N 2.23546 -2.8312 -0.0396624 0
M  V30 3 C 1.03372 -3.58893 0.0642865 0
M  V30 4 C 0.216777 -3.66864 -1.19142 0
M  V30 5 N -0.720328 -2.59274 -1.35685 0
M  V30 6 C -1.14638 -2.54519 -2.72429 0
M  V30 7 C -1.78353 -2.68473 -0.411923 0
M  V30 8 C -2.95554 -1.81396 -0.660003 0
M  V30 9 N -2.72552 -0.525275 -1.13911 0
M  V30 10 C -3.71766 0.0886805 -1.93646 0
M  V30 11 C -5.04651 0.25042 -1.24714 0
M  V30 12 C -5.99645 -0.726215 -1.38866 0
M  V30 13 C -7.20776 -0.580071 -0.759362 0
M  V30 14 C -7.43408 0.543919 -0.00370393 0
M  V30 15 C -8.64383 0.748369 0.658849 0
M  V30 16 C -8.85835 1.87184 1.40888 0
M  V30 17 C -7.85394 2.81767 1.50787 0
M  V30 18 C -6.65704 2.66667 0.882177 0
M  V30 19 N -5.62739 3.64324 0.987949 0
M  V30 20 C -6.45885 1.51763 0.124583 0
M  V30 21 N -5.30248 1.33217 -0.502821 0
M  V30 22 C -1.76549 0.288855 -0.53638 0
M  V30 23 C -1.89828 0.498668 0.94342 0
M  V30 24 O -0.775657 0.979246 1.55416 0
M  V30 25 C 0.412014 0.390705 1.2243 0
M  V30 26 C 1.30756 0.218666 2.45542 0
M  V30 27 N 2.70918 0.141556 2.07537 0
M  V30 28 C 3.19464 1.48084 1.95576 0
M  V30 29 C 4.60483 1.61686 1.58009 0
M  V30 30 C 5.61547 1.61771 2.52166 0
M  V30 31 C 6.94983 1.74948 2.15375 0
M  V30 32 C 7.28342 1.88248 0.828015 0
M  V30 33 C 8.60473 2.01729 0.409039 0
M  V30 34 C 8.9324 2.15029 -0.923843 0
M  V30 35 C 7.89992 2.14553 -1.83797 0
M  V30 36 C 6.58157 2.01129 -1.4228 0
M  V30 37 N 5.51416 2.00521 -2.35643 0
M  V30 38 C 6.25403 1.8783 -0.0898744 0
M  V30 39 N 4.96115 1.74783 0.301011 0
M  V30 40 C 2.92223 -0.672177 0.913397 0
M  V30 41 C 2.58972 -2.10993 1.13665 0
M  V30 42 H 2.65931 -2.8911 -2.10645 0
M  V30 43 H 3.41414 -1.59031 -1.17596 0
M  V30 44 H 1.66846 -1.43029 -1.55076 0
M  V30 45 H 0.469812 -3.24055 0.929862 0
M  V30 46 H 1.33838 -4.6505 0.306726 0
M  V30 47 H -0.400507 -4.61348 -1.13823 0
M  V30 48 H 0.813456 -3.75211 -2.09693 0
M  V30 49 H -1.27243 -1.51212 -3.112 0
M  V30 50 H -0.353276 -3.00744 -3.34891 0
M  V30 51 H -2.06721 -3.14437 -2.91603 0
M  V30 52 H -2.13536 -3.73205 -0.271203 0
M  V30 53 H -1.35462 -2.4 0.592075 0
M  V30 54 H -3.61993 -2.36712 -1.38761 0
M  V30 55 H -3.56671 -1.79447 0.288465 0
M  V30 56 H -3.91153 -0.531046 -2.83529 0
M  V30 57 H -3.36956 1.0743 -2.26858 0
M  V30 58 H -5.8103 -1.61817 -1.99266 0
M  V30 59 H -7.99254 -1.3225 -0.838654 0
M  V30 60 H -9.38906 -0.0276031 0.542324 0
M  V30 61 H -9.78857 2.02835 1.91767 0
M  V30 62 H -8.03131 3.70355 2.10286 0
M  V30 63 H -5.54688 4.30477 0.163637 0
M  V30 64 H -5.00175 3.71419 1.79559 0
M  V30 65 H -1.83645 1.31785 -1.00252 0
M  V30 66 H -0.736786 -0.0554347 -0.837985 0
M  V30 67 H -2.33414 -0.395797 1.46461 0
M  V30 68 H -2.69787 1.28921 1.07875 0
M  V30 69 H 0.248896 -0.639505 0.845059 0
M  V30 70 H 0.908979 1.03707 0.461052 0
M  V30 71 H 1.13701 1.11105 3.08139 0
M  V30 72 H 0.964348 -0.677448 2.99149 0
M  V30 73 H 2.50769 2.02112 1.25748 0
M  V30 74 H 3.00605 1.97385 2.95513 0
M  V30 75 H 5.33429 1.51166 3.5644 0
M  V30 76 H 7.74277 1.75052 2.88977 0
M  V30 77 H 9.35961 2.01333 1.17074 0
M  V30 78 H 9.96535 2.25307 -1.22068 0
M  V30 79 H 8.15158 2.25024 -2.89076 0
M  V30 80 H 5.68772 1.69224 -3.32866 0
M  V30 81 H 4.54779 2.3055 -2.10685 0
M  V30 82 H 2.37368 -0.311347 0.0205213 0
M  V30 83 H 4.00536 -0.622094 0.66951 0
M  V30 84 H 1.73661 -2.21978 1.86337 0
M  V30 85 H 3.48481 -2.61018 1.591 0
M  V30 END ATOM
M  V30 BEGIN BOND
M  V30 1 1 1 2
M  V30 2 1 2 3
M  V30 3 1 3 4
M  V30 4 1 4 5
M  V30 5 1 5 6
M  V30 6 1 5 7
M  V30 7 1 7 8
M  V30 8 1 8 9
M  V30 9 1 9 10
M  V30 10 1 10 11
M  V30 11 2 11 12
M  V30 12 1 12 13
M  V30 13 2 13 14
M  V30 14 1 14 15
M  V30 15 2 15 16
M  V30 16 1 16 17
M  V30 17 2 17 18
M  V30 18 1 18 19
M  V30 19 1 18 20
M  V30 20 2 20 21
M  V30 21 1 9 22
M  V30 22 1 22 23
M  V30 23 1 23 24
M  V30 24 1 24 25
M  V30 25 1 25 26
M  V30 26 1 26 27
M  V30 27 1 27 28
M  V30 28 1 28 29
M  V30 29 2 29 30
M  V30 30 1 30 31
M  V30 31 2 31 32
M  V30 32 1 32 33
M  V30 33 2 33 34
M  V30 34 1 34 35
M  V30 35 2 35 36
M  V30 36 1 36 37
M  V30 37 1 36 38
M  V30 38 2 38 39
M  V30 39 1 27 40
M  V30 40 1 40 41
M  V30 41 1 41 2
M  V30 42 1 21 11
M  V30 43 1 39 29
M  V30 44 1 20 14
M  V30 45 1 38 32
M  V30 46 1 1 42
M  V30 47 1 1 43
M  V30 48 1 1 44
M  V30 49 1 3 45
M  V30 50 1 3 46
M  V30 51 1 4 47
M  V30 52 1 4 48
M  V30 53 1 6 49
M  V30 54 1 6 50
M  V30 55 1 6 51
M  V30 56 1 7 52
M  V30 57 1 7 53
M  V30 58 1 8 54
M  V30 59 1 8 55
M  V30 60 1 10 56
M  V30 61 1 10 57
M  V30 62 1 12 58
M  V30 63 1 13 59
M  V30 64 1 15 60
M  V30 65 1 16 61
M  V30 66 1 17 62
M  V30 67 1 19 63
M  V30 68 1 19 64
M  V30 69 1 22 65
M  V30 70 1 22 66
M  V30 71 1 23 67
M  V30 72 1 23 68
M  V30 73 1 25 69
M  V30 74 1 25 70
M  V30 75 1 26 71
M  V30 76 1 26 72
M  V30 77 1 28 73
M  V30 78 1 28 74
M  V30 79 1 30 75
M  V30 80 1 31 76
M  V30 81 1 33 77
M  V30 82 1 34 78
M  V30 83 1 35 79
M  V30 84 1 37 80
M  V30 85 1 37 81
M  V30 86 1 40 82
M  V30 87 1 40 83
M  V30 88 1 41 84
M  V30 89 1 41 85
M  V30 END BOND
M  V30 END CTAB
M  END
