
     RDKit          3D

  0  0  0  0  0  0  0  0  0  0999 V3000
M  V30 BEGIN CTAB
M  V30 COUNTS 32 33 0 0 0
M  V30 BEGIN ATOM
M  V30 1 N -6.5798 0.65376 -0.220069 0
M  V30 2 C -5.18152 0.358335 -0.125564 0
M  V30 3 C -4.7737 -0.873584 0.340257 0
M  V30 4 C -3.4102 -1.12968 0.420183 0
M  V30 5 C -2.47771 -0.185401 0.0466656 0
M  V30 6 C -2.9241 1.03115 -0.412768 0
M  V30 7 C -4.26892 1.29782 -0.496989 0
M  V30 8 C -1.05865 -0.495539 0.146486 0
M  V30 9 N -0.149793 0.352138 -0.189659 0
M  V30 10 O 1.18122 0.00738341 -0.0754411 0
M  V30 11 C 2.1759 0.883487 -0.461767 0
M  V30 12 O 1.91037 2.01774 -0.927839 0
M  V30 13 C 3.56169 0.480889 -0.324684 0
M  V30 14 C 4.58337 1.34593 -0.707057 0
M  V30 15 C 5.90756 0.981624 -0.584544 0
M  V30 16 C 6.22442 -0.256353 -0.0763786 0
M  V30 17 C 5.21556 -1.11821 0.304394 0
M  V30 18 C 3.88045 -0.745357 0.178562 0
M  V30 19 Cl 7.9096 -0.738051 0.0870498 0
M  V30 20 N -0.631279 -1.76297 0.625433 0
M  V30 21 H -6.89466 1.6292 -0.0565592 0
M  V30 22 H -7.27222 -0.079887 -0.445762 0
M  V30 23 H -5.52552 -1.59601 0.626538 0
M  V30 24 H -3.12543 -2.10376 0.789014 0
M  V30 25 H -2.23494 1.80344 -0.717291 0
M  V30 26 H -4.65272 2.26084 -0.860271 0
M  V30 27 H 4.33022 2.32425 -1.10858 0
M  V30 28 H 6.71608 1.63632 -0.874717 0
M  V30 29 H 5.43914 -2.09686 0.706708 0
M  V30 30 H 3.0841 -1.43223 0.481851 0
M  V30 31 H -0.535738 -2.52542 -0.0777408 0
M  V30 32 H -0.422746 -1.92499 1.63093 0
M  V30 END ATOM
M  V30 BEGIN BOND
M  V30 1 1 1 2
M  V30 2 2 2 3
M  V30 3 1 3 4
M  V30 4 2 4 5
M  V30 5 1 5 6
M  V30 6 2 6 7
M  V30 7 1 5 8
M  V30 8 2 8 9
M  V30 9 1 9 10
M  V30 10 1 10 11
M  V30 11 2 11 12
M  V30 12 1 11 13
M  V30 13 2 13 14
M  V30 14 1 14 15
M  V30 15 2 15 16
M  V30 16 1 16 17
M  V30 17 2 17 18
M  V30 18 1 16 19
M  V30 19 1 8 20
M  V30 20 1 7 2
M  V30 21 1 18 13
M  V30 22 1 1 21
M  V30 23 1 1 22
M  V30 24 1 3 23
M  V30 25 1 4 24
M  V30 26 1 6 25
M  V30 27 1 7 26
M  V30 28 1 14 27
M  V30 29 1 15 28
M  V30 30 1 17 29
M  V30 31 1 18 30
M  V30 32 1 20 31
M  V30 33 1 20 32
M  V30 END BOND
M  V30 END CTAB
M  END
