
     RDKit          3D

  0  0  0  0  0  0  0  0  0  0999 V3000
M  V30 BEGIN CTAB
M  V30 COUNTS 38 39 0 0 0
M  V30 BEGIN ATOM
M  V30 1 C -6.57749 -1.06184 1.28312 0
M  V30 2 C -6.29056 0.0868146 0.36248 0
M  V30 3 C -4.86259 0.186505 -0.0389287 0
M  V30 4 N -4.34812 -0.435556 -1.13782 0
M  V30 5 N -3.06184 -0.137595 -1.19989 0
M  V30 6 C -2.73815 0.667819 -0.156493 0
M  V30 7 N -3.85739 0.857963 0.548273 0
M  V30 8 N -4.00379 1.61306 1.70237 0
M  V30 9 S -1.14669 1.3525 0.233555 0
M  V30 10 C 0.0654124 0.768786 -1.0144 0
M  V30 11 C 0.282153 -0.708404 -0.865659 0
M  V30 12 S 1.44916 -1.39573 -2.00078 0
M  V30 13 C 3.13896 -1.03266 -1.74668 0
M  V30 14 N 4.10979 -1.46521 -2.61762 0
M  V30 15 N 5.26628 -1.0675 -2.15043 0
M  V30 16 C 5.12917 -0.389817 -1.01048 0
M  V30 17 N 3.77825 -0.378609 -0.77134 0
M  V30 18 N 3.20804 0.209735 0.333001 0
M  V30 19 C 6.16378 0.236791 -0.144886 0
M  V30 20 C 6.65372 -0.717879 0.901658 0
M  V30 21 H -7.63951 -0.943601 1.61119 0
M  V30 22 H -5.89653 -1.14664 2.13948 0
M  V30 23 H -6.56946 -1.99261 0.645887 0
M  V30 24 H -6.62045 1.07426 0.787814 0
M  V30 25 H -6.90904 -0.070949 -0.564636 0
M  V30 26 H -4.41048 1.27039 2.60001 0
M  V30 27 H -3.68557 2.60482 1.68486 0
M  V30 28 H 0.936077 1.39926 -1.05413 0
M  V30 29 H -0.429866 0.884407 -2.03832 0
M  V30 30 H -0.723737 -1.17613 -1.09983 0
M  V30 31 H 0.451118 -1.0029 0.198964 0
M  V30 32 H 2.97197 -0.343311 1.18042 0
M  V30 33 H 2.99504 1.22809 0.357276 0
M  V30 34 H 7.03565 0.44725 -0.83403 0
M  V30 35 H 5.82898 1.17881 0.32772 0
M  V30 36 H 6.6958 -0.27127 1.91491 0
M  V30 37 H 7.65768 -1.114 0.666281 0
M  V30 38 H 5.95424 -1.59823 0.967086 0
M  V30 END ATOM
M  V30 BEGIN BOND
M  V30 1 1 1 2
M  V30 2 1 2 3
M  V30 3 2 3 4
M  V30 4 1 4 5
M  V30 5 2 5 6
M  V30 6 1 6 7
M  V30 7 1 7 8
M  V30 8 1 6 9
M  V30 9 1 9 10
M  V30 10 1 10 11
M  V30 11 1 11 12
M  V30 12 1 12 13
M  V30 13 2 13 14
M  V30 14 1 14 15
M  V30 15 2 15 16
M  V30 16 1 16 17
M  V30 17 1 17 18
M  V30 18 1 16 19
M  V30 19 1 19 20
M  V30 20 1 7 3
M  V30 21 1 17 13
M  V30 22 1 1 21
M  V30 23 1 1 22
M  V30 24 1 1 23
M  V30 25 1 2 24
M  V30 26 1 2 25
M  V30 27 1 8 26
M  V30 28 1 8 27
M  V30 29 1 10 28
M  V30 30 1 10 29
M  V30 31 1 11 30
M  V30 32 1 11 31
M  V30 33 1 18 32
M  V30 34 1 18 33
M  V30 35 1 19 34
M  V30 36 1 19 35
M  V30 37 1 20 36
M  V30 38 1 20 37
M  V30 39 1 20 38
M  V30 END BOND
M  V30 END CTAB
M  END
