
     RDKit          3D

  0  0  0  0  0  0  0  0  0  0999 V3000
M  V30 BEGIN CTAB
M  V30 COUNTS 21 21 0 0 0
M  V30 BEGIN ATOM
M  V30 1 N 0.653281 -1.7978 0.432836 0
M  V30 2 C 0.662231 -0.750713 -0.583243 0
M  V30 3 C -0.501848 0.101574 -0.429996 0
M  V30 4 N -0.764558 1.38692 -0.616471 0
M  V30 5 N -2.03882 1.66755 -0.296733 0
M  V30 6 C -2.59149 0.534966 0.0990991 0
M  V30 7 N -1.68465 -0.417221 0.0260846 0
M  V30 8 N -3.93803 0.348677 0.535737 0
M  V30 9 C 1.98152 -0.123504 -0.758673 0
M  V30 10 C 2.631 0.521146 0.400218 0
M  V30 11 F 1.9156 1.54907 0.958875 0
M  V30 12 F 3.82566 1.12128 -0.0404267 0
M  V30 13 F 3.0332 -0.352122 1.38903 0
M  V30 14 H 1.04614 -2.68503 0.0695659 0
M  V30 15 H -0.321367 -1.99715 0.755616 0
M  V30 16 H 0.476022 -1.3473 -1.54232 0
M  V30 17 H -0.0872647 2.0824 -0.972394 0
M  V30 18 H -4.3649 -0.604383 0.570564 0
M  V30 19 H -4.54419 1.13679 0.833317 0
M  V30 20 H 1.92685 0.56607 -1.629 0
M  V30 21 H 2.68561 -0.941236 -1.1051 0
M  V30 END ATOM
M  V30 BEGIN BOND
M  V30 1 1 1 2
M  V30 2 1 2 3
M  V30 3 1 3 4
M  V30 4 1 4 5
M  V30 5 2 5 6
M  V30 6 1 6 7
M  V30 7 1 6 8
M  V30 8 1 2 9
M  V30 9 1 9 10
M  V30 10 1 10 11
M  V30 11 1 10 12
M  V30 12 1 10 13
M  V30 13 2 7 3
M  V30 14 1 1 14
M  V30 15 1 1 15
M  V30 16 1 2 16
M  V30 17 1 4 17
M  V30 18 1 8 18
M  V30 19 1 8 19
M  V30 20 1 9 20
M  V30 21 1 9 21
M  V30 END BOND
M  V30 END CTAB
M  END
