
     RDKit          3D

  0  0  0  0  0  0  0  0  0  0999 V3000
M  V30 BEGIN CTAB
M  V30 COUNTS 31 31 0 0 0
M  V30 BEGIN ATOM
M  V30 1 C 4.94078 -1.55086 0.250006 0
M  V30 2 C 4.13966 -0.265667 0.349423 0
M  V30 3 O 2.80235 -0.575262 0.144501 0
M  V30 4 C 1.81181 0.433992 0.179759 0
M  V30 5 O 2.27819 1.55998 0.404947 0
M  V30 6 C 0.422666 0.0780332 -0.0383337 0
M  V30 7 C -0.56798 1.02346 -0.0161521 0
M  V30 8 C -1.88644 0.5797 -0.239094 0
M  V30 9 C -2.21548 -0.722306 -0.471437 0
M  V30 10 C -1.20355 -1.6612 -0.490112 0
M  V30 11 C 0.0964293 -1.25935 -0.275586 0
M  V30 12 S -3.88062 -1.20791 -0.74187 0
M  V30 13 N -4.66244 -1.61671 0.752136 0
M  V30 14 O -3.86312 -2.40466 -1.65477 0
M  V30 15 O -4.67936 -0.0748481 -1.34283 0
M  V30 16 S -0.279168 2.71656 0.27013 0
M  V30 17 N -1.81902 3.55195 0.204159 0
M  V30 18 O 0.535392 3.35977 -0.827395 0
M  V30 19 O 0.243779 3.01551 1.64225 0
M  V30 20 H 4.48781 -2.35717 0.877235 0
M  V30 21 H 5.96017 -1.3896 0.659665 0
M  V30 22 H 4.98784 -1.94085 -0.77749 0
M  V30 23 H 4.34225 0.166192 1.36692 0
M  V30 24 H 4.56564 0.434313 -0.396142 0
M  V30 25 H -2.65867 1.33416 -0.219005 0
M  V30 26 H -1.4849 -2.68928 -0.676137 0
M  V30 27 H 0.895385 -1.97538 -0.286577 0
M  V30 28 H -4.01394 -2.08529 1.42008 0
M  V30 29 H -5.41443 -2.3152 0.538964 0
M  V30 30 H -2.22728 3.25846 -0.732693 0
M  V30 31 H -1.65377 4.57948 0.125446 0
M  V30 END ATOM
M  V30 BEGIN BOND
M  V30 1 1 1 2
M  V30 2 1 2 3
M  V30 3 1 3 4
M  V30 4 2 4 5
M  V30 5 1 4 6
M  V30 6 2 6 7
M  V30 7 1 7 8
M  V30 8 2 8 9
M  V30 9 1 9 10
M  V30 10 2 10 11
M  V30 11 1 9 12
M  V30 12 1 12 13
M  V30 13 2 12 14
M  V30 14 2 12 15
M  V30 15 1 7 16
M  V30 16 1 16 17
M  V30 17 2 16 18
M  V30 18 2 16 19
M  V30 19 1 11 6
M  V30 20 1 1 20
M  V30 21 1 1 21
M  V30 22 1 1 22
M  V30 23 1 2 23
M  V30 24 1 2 24
M  V30 25 1 8 25
M  V30 26 1 10 26
M  V30 27 1 11 27
M  V30 28 1 13 28
M  V30 29 1 13 29
M  V30 30 1 17 30
M  V30 31 1 17 31
M  V30 END BOND
M  V30 END CTAB
M  END
