
     RDKit          3D

  0  0  0  0  0  0  0  0  0  0999 V3000
M  V30 BEGIN CTAB
M  V30 COUNTS 32 33 0 0 0
M  V30 BEGIN ATOM
M  V30 1 N 3.42201 1.01477 -0.256455 0
M  V30 2 C 2.73654 -0.193274 -0.619972 0
M  V30 3 C 1.24683 -0.114427 -0.399974 0
M  V30 4 C 0.581926 0.971218 -1.18601 0
M  V30 5 C -0.893801 0.582985 -1.33104 0
M  V30 6 C -1.25665 -0.197268 -0.0956412 0
M  V30 7 C -2.75727 -0.242738 0.11932 0
M  V30 8 N -3.19885 1.13334 0.258549 0
M  V30 9 C -0.592084 0.345288 1.14043 0
M  V30 10 C 0.900919 0.0938507 1.05949 0
M  V30 11 C -0.760739 -1.62301 -0.311557 0
M  V30 12 C 0.685997 -1.48782 -0.789857 0
M  V30 13 H 4.41764 0.911975 -0.549208 0
M  V30 14 H 3.42399 1.09229 0.784187 0
M  V30 15 H 3.09441 -1.08458 -0.0552082 0
M  V30 16 H 2.90651 -0.428617 -1.69095 0
M  V30 17 H 0.557836 1.93851 -0.604042 0
M  V30 18 H 1.04741 1.19567 -2.14592 0
M  V30 19 H -1.50167 1.50057 -1.46525 0
M  V30 20 H -1.02234 -0.0915517 -2.2268 0
M  V30 21 H -3.00107 -0.746665 1.07463 0
M  V30 22 H -3.25863 -0.774896 -0.691727 0
M  V30 23 H -3.53703 1.5304 -0.645025 0
M  V30 24 H -3.93866 1.2163 1.00786 0
M  V30 25 H -0.833005 1.41562 1.26327 0
M  V30 26 H -0.986952 -0.18089 2.01675 0
M  V30 27 H 1.39491 1.02637 1.38941 0
M  V30 28 H 1.23652 -0.731623 1.69667 0
M  V30 29 H -0.813522 -2.19267 0.622255 0
M  V30 30 H -1.33926 -2.05552 -1.14697 0
M  V30 31 H 1.28476 -2.2292 -0.2221 0
M  V30 32 H 0.753306 -1.59442 -1.87859 0
M  V30 END ATOM
M  V30 BEGIN BOND
M  V30 1 1 1 2
M  V30 2 1 2 3
M  V30 3 1 3 4
M  V30 4 1 4 5
M  V30 5 1 5 6
M  V30 6 1 6 7
M  V30 7 1 7 8
M  V30 8 1 6 9
M  V30 9 1 9 10
M  V30 10 1 6 11
M  V30 11 1 11 12
M  V30 12 1 10 3
M  V30 13 1 12 3
M  V30 14 1 1 13
M  V30 15 1 1 14
M  V30 16 1 2 15
M  V30 17 1 2 16
M  V30 18 1 4 17
M  V30 19 1 4 18
M  V30 20 1 5 19
M  V30 21 1 5 20
M  V30 22 1 7 21
M  V30 23 1 7 22
M  V30 24 1 8 23
M  V30 25 1 8 24
M  V30 26 1 9 25
M  V30 27 1 9 26
M  V30 28 1 10 27
M  V30 29 1 10 28
M  V30 30 1 11 29
M  V30 31 1 11 30
M  V30 32 1 12 31
M  V30 33 1 12 32
M  V30 END BOND
M  V30 END CTAB
M  END
