
     RDKit          3D

  0  0  0  0  0  0  0  0  0  0999 V3000
M  V30 BEGIN CTAB
M  V30 COUNTS 58 60 0 0 0
M  V30 BEGIN ATOM
M  V30 1 C 6.79354 1.89685 1.25443 0
M  V30 2 C 5.96472 1.43917 0.0838645 0
M  V30 3 C 5.69644 2.62899 -0.808814 0
M  V30 4 C 6.73099 0.417532 -0.727858 0
M  V30 5 C 4.67855 0.769274 0.535069 0
M  V30 6 N 3.9343 0.356554 -0.625713 0
M  V30 7 C 2.69223 -0.295679 -0.449746 0
M  V30 8 C 2.20034 -0.537905 0.799978 0
M  V30 9 C 0.984198 -1.17559 1.01166 0
M  V30 10 C 0.258337 -1.5728 -0.0904191 0
M  V30 11 C 0.731543 -1.34052 -1.34689 0
M  V30 12 C 1.94903 -0.701866 -1.53709 0
M  V30 13 C -1.01189 -2.23938 0.102006 0
M  V30 14 C -1.05273 -3.5878 0.373947 0
M  V30 15 N 0.156387 -4.36322 0.472888 0
M  V30 16 N -2.21978 -4.23206 0.557431 0
M  V30 17 C -3.384 -3.56177 0.477459 0
M  V30 18 N -4.62272 -4.25454 0.673836 0
M  V30 19 N -3.3388 -2.24983 0.21265 0
M  V30 20 C -2.22746 -1.544 0.0194991 0
M  V30 21 C -2.16907 -0.117207 -0.279153 0
M  V30 22 O -3.32358 0.576301 -0.353898 0
M  V30 23 C -4.12589 0.676529 0.732008 0
M  V30 24 C -5.33552 1.50346 0.367431 0
M  V30 25 C -5.47289 2.01476 -0.906525 0
M  V30 26 C -6.57895 2.77079 -1.23816 0
M  V30 27 C -7.57875 3.0439 -0.326278 0
M  V30 28 C -7.42723 2.52511 0.945432 0
M  V30 29 C -6.32207 1.76934 1.27791 0
M  V30 30 H 6.22698 2.67242 1.81684 0
M  V30 31 H 7.72844 2.33193 0.836389 0
M  V30 32 H 7.08155 1.0776 1.93049 0
M  V30 33 H 5.74924 3.59703 -0.248291 0
M  V30 34 H 6.44036 2.71577 -1.63106 0
M  V30 35 H 4.65987 2.58069 -1.22583 0
M  V30 36 H 6.57414 0.588552 -1.82573 0
M  V30 37 H 7.80085 0.386749 -0.479042 0
M  V30 38 H 6.34383 -0.620553 -0.54993 0
M  V30 39 H 4.97483 -0.139029 1.10204 0
M  V30 40 H 4.13803 1.50784 1.16118 0
M  V30 41 H 4.29098 0.528058 -1.58444 0
M  V30 42 H 2.7325 -0.245346 1.71561 0
M  V30 43 H 0.625925 -1.35044 2.03115 0
M  V30 44 H 0.141385 -1.66281 -2.19146 0
M  V30 45 H 2.32713 -0.516078 -2.52269 0
M  V30 46 H 0.265525 -5.12783 -0.207757 0
M  V30 47 H 0.812787 -4.08791 1.21807 0
M  V30 48 H -5.05508 -4.18425 1.61478 0
M  V30 49 H -5.08463 -4.80471 -0.0689663 0
M  V30 50 H -1.67335 -0.0340313 -1.29527 0
M  V30 51 H -1.43999 0.376754 0.401449 0
M  V30 52 H -3.60755 1.31278 1.51267 0
M  V30 53 H -4.43257 -0.218884 1.25459 0
M  V30 54 H -4.67906 1.80049 -1.63872 0
M  V30 55 H -6.63686 3.1448 -2.24252 0
M  V30 56 H -8.42748 3.63704 -0.619609 0
M  V30 57 H -8.21797 2.73868 1.674 0
M  V30 58 H -6.2391 1.38029 2.28347 0
M  V30 END ATOM
M  V30 BEGIN BOND
M  V30 1 1 1 2
M  V30 2 1 2 3
M  V30 3 1 2 4
M  V30 4 1 2 5
M  V30 5 1 5 6
M  V30 6 1 6 7
M  V30 7 2 7 8
M  V30 8 1 8 9
M  V30 9 2 9 10
M  V30 10 1 10 11
M  V30 11 2 11 12
M  V30 12 1 10 13
M  V30 13 2 13 14
M  V30 14 1 14 15
M  V30 15 1 14 16
M  V30 16 2 16 17
M  V30 17 1 17 18
M  V30 18 1 17 19
M  V30 19 2 19 20
M  V30 20 1 20 21
M  V30 21 1 21 22
M  V30 22 1 22 23
M  V30 23 1 23 24
M  V30 24 2 24 25
M  V30 25 1 25 26
M  V30 26 2 26 27
M  V30 27 1 27 28
M  V30 28 2 28 29
M  V30 29 1 12 7
M  V30 30 1 20 13
M  V30 31 1 29 24
M  V30 32 1 1 30
M  V30 33 1 1 31
M  V30 34 1 1 32
M  V30 35 1 3 33
M  V30 36 1 3 34
M  V30 37 1 3 35
M  V30 38 1 4 36
M  V30 39 1 4 37
M  V30 40 1 4 38
M  V30 41 1 5 39
M  V30 42 1 5 40
M  V30 43 1 6 41
M  V30 44 1 8 42
M  V30 45 1 9 43
M  V30 46 1 11 44
M  V30 47 1 12 45
M  V30 48 1 15 46
M  V30 49 1 15 47
M  V30 50 1 18 48
M  V30 51 1 18 49
M  V30 52 1 21 50
M  V30 53 1 21 51
M  V30 54 1 23 52
M  V30 55 1 23 53
M  V30 56 1 25 54
M  V30 57 1 26 55
M  V30 58 1 27 56
M  V30 59 1 28 57
M  V30 60 1 29 58
M  V30 END BOND
M  V30 END CTAB
M  END
