
     RDKit          3D

  0  0  0  0  0  0  0  0  0  0999 V3000
M  V30 BEGIN CTAB
M  V30 COUNTS 49 52 0 0 0
M  V30 BEGIN ATOM
M  V30 1 N 3.72069 2.69901 1.04113 0
M  V30 2 C 4.01529 1.39251 0.567106 0
M  V30 3 N 3.12118 0.402369 0.526179 0
M  V30 4 C 3.40181 -0.832659 0.0778992 0
M  V30 5 C 2.30971 -1.83653 0.0889692 0
M  V30 6 S 1.37496 -1.83166 -1.45524 0
M  V30 7 C 0.500213 -0.286758 -1.62097 0
M  V30 8 N 1.03812 0.841419 -2.18519 0
M  V30 9 N 0.110048 1.77399 -2.16361 0
M  V30 10 C -1.01762 1.2476 -1.58893 0
M  V30 11 N -0.766495 -0.0500956 -1.24927 0
M  V30 12 C -1.6852 -0.952087 -0.650205 0
M  V30 13 C -1.45002 -1.26298 0.806462 0
M  V30 14 C -2.77251 -1.83915 1.3359 0
M  V30 15 C -3.13282 -3.0932 0.565042 0
M  V30 16 C -3.10922 -2.91265 -0.917246 0
M  V30 17 C -1.77697 -2.29696 -1.35177 0
M  V30 18 C -2.28918 1.98536 -1.39997 0
M  V30 19 C -2.15258 2.79113 -0.131265 0
M  V30 20 C -2.51853 2.43813 1.14134 0
M  V30 21 C -2.29833 3.32988 2.11332 0
M  V30 22 C -1.7271 4.52092 1.76349 0
M  V30 23 S -1.51181 4.36335 0.0806859 0
M  V30 24 N 4.64497 -1.07374 -0.347952 0
M  V30 25 C 5.5736 -0.0966803 -0.320683 0
M  V30 26 N 5.25524 1.12992 0.135813 0
M  V30 27 N 6.87567 -0.411717 -0.785782 0
M  V30 28 H 3.94086 2.90359 2.0399 0
M  V30 29 H 3.30303 3.37722 0.368432 0
M  V30 30 H 1.63378 -1.58297 0.924666 0
M  V30 31 H 2.69031 -2.85817 0.317571 0
M  V30 32 H -2.74339 -0.55065 -0.691213 0
M  V30 33 H -0.703776 -2.08947 0.934153 0
M  V30 34 H -1.18612 -0.399851 1.41604 0
M  V30 35 H -3.54563 -1.06943 1.11923 0
M  V30 36 H -2.70961 -2.07832 2.39757 0
M  V30 37 H -2.47172 -3.92658 0.848652 0
M  V30 38 H -4.18749 -3.33834 0.866473 0
M  V30 39 H -3.96151 -2.29886 -1.29242 0
M  V30 40 H -3.19986 -3.89369 -1.39665 0
M  V30 41 H -1.00903 -3.02291 -0.956414 0
M  V30 42 H -1.68606 -2.21081 -2.43107 0
M  V30 43 H -2.44027 2.70356 -2.23661 0
M  V30 44 H -3.13615 1.30861 -1.33265 0
M  V30 45 H -2.98007 1.43679 1.32031 0
M  V30 46 H -2.55717 3.14418 3.17835 0
M  V30 47 H -1.47824 5.3628 2.43489 0
M  V30 48 H 7.28383 0.101081 -1.60878 0
M  V30 49 H 7.41115 -1.15653 -0.29568 0
M  V30 END ATOM
M  V30 BEGIN BOND
M  V30 1 1 1 2
M  V30 2 2 2 3
M  V30 3 1 3 4
M  V30 4 1 4 5
M  V30 5 1 5 6
M  V30 6 1 6 7
M  V30 7 2 7 8
M  V30 8 1 8 9
M  V30 9 2 9 10
M  V30 10 1 10 11
M  V30 11 1 11 12
M  V30 12 1 12 13
M  V30 13 1 13 14
M  V30 14 1 14 15
M  V30 15 1 15 16
M  V30 16 1 16 17
M  V30 17 1 10 18
M  V30 18 1 18 19
M  V30 19 2 19 20
M  V30 20 1 20 21
M  V30 21 2 21 22
M  V30 22 1 22 23
M  V30 23 2 4 24
M  V30 24 1 24 25
M  V30 25 2 25 26
M  V30 26 1 25 27
M  V30 27 1 26 2
M  V30 28 1 11 7
M  V30 29 1 17 12
M  V30 30 1 23 19
M  V30 31 1 1 28
M  V30 32 1 1 29
M  V30 33 1 5 30
M  V30 34 1 5 31
M  V30 35 1 12 32
M  V30 36 1 13 33
M  V30 37 1 13 34
M  V30 38 1 14 35
M  V30 39 1 14 36
M  V30 40 1 15 37
M  V30 41 1 15 38
M  V30 42 1 16 39
M  V30 43 1 16 40
M  V30 44 1 17 41
M  V30 45 1 17 42
M  V30 46 1 18 43
M  V30 47 1 18 44
M  V30 48 1 20 45
M  V30 49 1 21 46
M  V30 50 1 22 47
M  V30 51 1 27 48
M  V30 52 1 27 49
M  V30 END BOND
M  V30 END CTAB
M  END
