
     RDKit          3D

  0  0  0  0  0  0  0  0  0  0999 V3000
M  V30 BEGIN CTAB
M  V30 COUNTS 43 46 0 0 0
M  V30 BEGIN ATOM
M  V30 1 N -5.1434 -1.5242 -0.383146 0
M  V30 2 C -3.96754 -0.965121 0.175117 0 CFG=2
M  V30 3 C -4.26368 0.380904 0.800261 0
M  V30 4 C -3.34699 1.31356 0.0698443 0
M  V30 5 N -2.22482 0.447396 -0.390302 0
M  V30 6 C -2.94088 -0.657451 -0.93148 0
M  V30 7 C -0.897646 0.897846 -0.258387 0
M  V30 8 N -0.645856 2.25682 -0.301264 0
M  V30 9 C 0.53644 2.81672 -0.259109 0
M  V30 10 N 0.665022 4.24222 -0.311101 0
M  V30 11 N 1.62194 2.07692 -0.16842 0
M  V30 12 C 1.48238 0.726929 -0.118748 0
M  V30 13 C 0.241638 0.122062 -0.159818 0
M  V30 14 C -0.0700362 -1.30388 -0.0593914 0
M  V30 15 C 1.0573 -2.02372 0.701798 0
M  V30 16 C 2.20599 -2.31509 -0.275883 0
M  V30 17 C 3.18989 -1.19949 -0.133191 0
M  V30 18 C 2.80808 0.123321 -0.0550907 0
M  V30 19 C 3.80023 1.06667 0.0920492 0
M  V30 20 C 5.13685 0.721209 0.160585 0
M  V30 21 C 5.48065 -0.601794 0.0791902 0
M  V30 22 C 4.49767 -1.56861 -0.0688961 0
M  V30 23 H -5.96018 -0.98305 -0.19728 0
M  V30 24 H -5.10246 -1.86888 -1.32365 0
M  V30 25 H -3.49429 -1.61198 0.938085 0
M  V30 26 H -5.33987 0.659218 0.690996 0
M  V30 27 H -4.01796 0.369719 1.89236 0
M  V30 28 H -3.00733 2.16283 0.652651 0
M  V30 29 H -3.85349 1.59676 -0.894701 0
M  V30 30 H -2.40372 -1.52725 -1.26706 0
M  V30 31 H -3.57352 -0.226754 -1.77679 0
M  V30 32 H 0.0730533 4.80163 -0.951517 0
M  V30 33 H 1.35017 4.7469 0.287821 0
M  V30 34 H -0.0685601 -1.76709 -1.0577 0
M  V30 35 H -0.977747 -1.50758 0.554793 0
M  V30 36 H 0.66027 -3.01604 0.9997 0
M  V30 37 H 1.39761 -1.44776 1.5616 0
M  V30 38 H 1.76039 -2.26766 -1.28822 0
M  V30 39 H 2.63247 -3.3073 -0.135244 0
M  V30 40 H 3.55671 2.11031 0.15826 0
M  V30 41 H 5.88326 1.51701 0.278184 0
M  V30 42 H 6.51473 -0.860585 0.132675 0
M  V30 43 H 4.74723 -2.60566 -0.134128 0
M  V30 END ATOM
M  V30 BEGIN BOND
M  V30 1 1 1 2
M  V30 2 1 2 3
M  V30 3 1 3 4
M  V30 4 1 4 5
M  V30 5 1 5 6
M  V30 6 1 5 7
M  V30 7 2 7 8
M  V30 8 1 8 9
M  V30 9 1 9 10
M  V30 10 2 9 11
M  V30 11 1 11 12
M  V30 12 2 12 13
M  V30 13 1 13 14
M  V30 14 1 14 15
M  V30 15 1 15 16
M  V30 16 1 16 17
M  V30 17 2 17 18
M  V30 18 1 18 19
M  V30 19 2 19 20
M  V30 20 1 20 21
M  V30 21 2 21 22
M  V30 22 1 6 2
M  V30 23 1 13 7
M  V30 24 1 22 17
M  V30 25 1 18 12
M  V30 26 1 1 23
M  V30 27 1 1 24
M  V30 28 1 2 25 CFG=1
M  V30 29 1 3 26
M  V30 30 1 3 27
M  V30 31 1 4 28
M  V30 32 1 4 29
M  V30 33 1 6 30
M  V30 34 1 6 31
M  V30 35 1 10 32
M  V30 36 1 10 33
M  V30 37 1 14 34
M  V30 38 1 14 35
M  V30 39 1 15 36
M  V30 40 1 15 37
M  V30 41 1 16 38
M  V30 42 1 16 39
M  V30 43 1 19 40
M  V30 44 1 20 41
M  V30 45 1 21 42
M  V30 46 1 22 43
M  V30 END BOND
M  V30 END CTAB
M  END
