
     RDKit          3D

  0  0  0  0  0  0  0  0  0  0999 V3000
M  V30 BEGIN CTAB
M  V30 COUNTS 20 20 0 0 0
M  V30 BEGIN ATOM
M  V30 1 N 3.17081 -0.259883 0.65465 0
M  V30 2 C 1.93184 -0.600914 0.0907116 0
M  V30 3 C 0.855159 0.254759 -0.0444403 0
M  V30 4 N 0.829389 1.61426 0.364846 0
M  V30 5 N -0.1635 -0.419972 -0.6296 0
M  V30 6 C -1.47217 0.111625 -0.950545 0
M  V30 7 C -2.43169 -0.0937478 0.229889 0
M  V30 8 O -3.68844 0.414568 -0.0731603 0
M  V30 9 N 0.255833 -1.65355 -0.854335 0
M  V30 10 C 1.52772 -1.79555 -0.427015 0
M  V30 11 H 4.06889 -0.633249 0.325281 0
M  V30 12 H 3.16925 0.420168 1.46337 0
M  V30 13 H 0.0778069 2.26759 0.0648127 0
M  V30 14 H 1.5695 1.99733 0.982405 0
M  V30 15 H -1.42879 1.23233 -1.07744 0
M  V30 16 H -1.89342 -0.294352 -1.87356 0
M  V30 17 H -2.48009 -1.19111 0.425768 0
M  V30 18 H -1.96375 0.45812 1.07855 0
M  V30 19 H -4.02017 0.887313 0.753632 0
M  V30 20 H 2.08581 -2.71574 -0.50382 0
M  V30 END ATOM
M  V30 BEGIN BOND
M  V30 1 1 1 2
M  V30 2 2 2 3
M  V30 3 1 3 4
M  V30 4 1 3 5
M  V30 5 1 5 6
M  V30 6 1 6 7
M  V30 7 1 7 8
M  V30 8 1 5 9
M  V30 9 2 9 10
M  V30 10 1 10 2
M  V30 11 1 1 11
M  V30 12 1 1 12
M  V30 13 1 4 13
M  V30 14 1 4 14
M  V30 15 1 6 15
M  V30 16 1 6 16
M  V30 17 1 7 17
M  V30 18 1 7 18
M  V30 19 1 8 19
M  V30 20 1 10 20
M  V30 END BOND
M  V30 END CTAB
M  END
