
     RDKit          3D

  0  0  0  0  0  0  0  0  0  0999 V3000
M  V30 BEGIN CTAB
M  V30 COUNTS 22 22 0 0 0
M  V30 BEGIN ATOM
M  V30 1 N -2.32679 0.244824 1.16137 0
M  V30 2 C -2.12374 -0.568887 0.014753 0
M  V30 3 C -1.00389 -0.201539 -0.911613 0
M  V30 4 C 0.342776 -0.190508 -0.306874 0
M  V30 5 C 0.878542 1.02594 0.0598721 0
M  V30 6 C 2.20252 1.15852 0.535924 0
M  V30 7 C 2.96568 0.000272378 0.625715 0
M  V30 8 C 2.41226 -1.25181 0.24758 0
M  V30 9 C 1.12119 -1.31515 -0.207848 0
M  V30 10 F 0.61391 -2.55603 -0.500136 0
M  V30 11 F 3.21537 -2.33584 0.402752 0
M  V30 12 F 4.23671 0.0524982 1.0591 0
M  V30 13 N -1.34493 1.18527 -1.29034 0
M  V30 14 H -3.13373 0.867106 1.1664 0
M  V30 15 H -2.37362 -0.453389 1.98533 0
M  V30 16 H -3.08136 -0.598945 -0.542682 0
M  V30 17 H -1.95057 -1.67355 0.241236 0
M  V30 18 H -0.990747 -0.799007 -1.836 0
M  V30 19 H 0.339794 1.99798 -0.0176608 0
M  V30 20 H 2.5685 2.12963 0.776967 0
M  V30 21 H -1.5784 1.7609 -0.499053 0
M  V30 22 H -0.989477 1.52171 -2.16478 0
M  V30 END ATOM
M  V30 BEGIN BOND
M  V30 1 1 1 2
M  V30 2 1 2 3
M  V30 3 1 3 4
M  V30 4 2 4 5
M  V30 5 1 5 6
M  V30 6 2 6 7
M  V30 7 1 7 8
M  V30 8 2 8 9
M  V30 9 1 9 10
M  V30 10 1 8 11
M  V30 11 1 7 12
M  V30 12 1 3 13
M  V30 13 1 9 4
M  V30 14 1 1 14
M  V30 15 1 1 15
M  V30 16 1 2 16
M  V30 17 1 2 17
M  V30 18 1 3 18
M  V30 19 1 5 19
M  V30 20 1 6 20
M  V30 21 1 13 21
M  V30 22 1 13 22
M  V30 END BOND
M  V30 END CTAB
M  END
