
     RDKit          3D

  0  0  0  0  0  0  0  0  0  0999 V3000
M  V30 BEGIN CTAB
M  V30 COUNTS 64 67 0 0 0
M  V30 BEGIN ATOM
M  V30 1 N 8.20462 0.527366 -1.25532 0
M  V30 2 C 6.99877 0.654916 -0.41346 0 CFG=1
M  V30 3 C 5.85529 0.773706 -1.35806 0
M  V30 4 C 4.5271 0.915795 -0.765509 0
M  V30 5 C 4.01721 2.16911 -0.449838 0
M  V30 6 C 2.77147 2.35651 0.0970551 0
M  V30 7 C 1.94088 1.26355 0.366646 0
M  V30 8 C 2.43766 0.0258843 0.0575842 0
M  V30 9 C 3.70366 -0.155576 -0.497619 0
M  V30 10 C 0.618167 1.47274 0.946255 0
M  V30 11 N 0.188296 2.73871 1.20661 0
M  V30 12 C -1.0232 2.99572 1.74539 0
M  V30 13 N -1.47196 4.31066 2.01582 0
M  V30 14 N -1.85269 1.98325 2.04411 0
M  V30 15 C -1.51056 0.676752 1.81951 0
M  V30 16 O -2.41642 -0.259384 2.1582 0
M  V30 17 C -2.37416 -1.66068 2.04483 0
M  V30 18 C -3.65549 -2.17431 1.58112 0
M  V30 19 C -4.15025 -1.90735 0.338971 0
M  V30 20 C -5.40729 -2.36075 -0.0772833 0
M  V30 21 C -6.19352 -3.09769 0.754061 0
M  V30 22 C -5.73155 -3.38615 2.00372 0
M  V30 23 C -4.494 -2.93486 2.40474 0
M  V30 24 C -3.40567 -1.1893 -0.658775 0
M  V30 25 C -3.89047 0.00402686 -1.14033 0
M  V30 26 C -3.28502 0.733339 -2.12594 0
M  V30 27 C -3.82285 2.0218 -2.63696 0
M  V30 28 O -2.98845 2.51009 -3.63482 0
M  V30 29 C -2.11575 0.22442 -2.65814 0
M  V30 30 C -1.60821 -0.969004 -2.19411 0
M  V30 31 C -2.25245 -1.6932 -1.18299 0
M  V30 32 C -1.88618 -2.27753 3.35142 0
M  V30 33 F -1.85299 -3.64106 3.24756 0
M  V30 34 F -2.6105 -1.76278 4.37934 0
M  V30 35 F -0.564381 -1.90235 3.59209 0
M  V30 36 C -0.256787 0.465425 1.26503 0
M  V30 37 C 6.97106 -0.533535 0.46731 0
M  V30 38 O 7.87526 -1.57549 0.379747 0
M  V30 39 O 6.0836 -0.617591 1.34926 0
M  V30 40 H 9.01438 0.373167 -0.600007 0
M  V30 41 H 8.08535 -0.302158 -1.85883 0
M  V30 42 H 7.17269 1.57553 0.187985 0
M  V30 43 H 5.87964 -0.149044 -2.00776 0
M  V30 44 H 6.08654 1.60152 -2.07791 0
M  V30 45 H 4.67561 3.01675 -0.664903 0
M  V30 46 H 2.38816 3.32866 0.336145 0
M  V30 47 H 1.82354 -0.839029 0.251864 0
M  V30 48 H 4.08368 -1.15068 -0.73744 0
M  V30 49 H -0.926448 4.90185 2.66431 0
M  V30 50 H -2.32907 4.68645 1.57854 0
M  V30 51 H -1.5702 -1.89262 1.32471 0
M  V30 52 H -5.79396 -2.13957 -1.07393 0
M  V30 53 H -7.18064 -3.44157 0.399339 0
M  V30 54 H -6.33829 -3.96329 2.66333 0
M  V30 55 H -4.19527 -3.19146 3.38494 0
M  V30 56 H -4.81791 0.408952 -0.719299 0
M  V30 57 H -4.83638 1.86265 -3.10182 0
M  V30 58 H -3.94053 2.76862 -1.84039 0
M  V30 59 H -3.00093 3.50643 -3.68773 0
M  V30 60 H -1.63619 0.804455 -3.44062 0
M  V30 61 H -0.685082 -1.37151 -2.61342 0
M  V30 62 H -1.79378 -2.63484 -0.878089 0
M  V30 63 H 0.0301626 -0.557321 1.0779 0
M  V30 64 H 8.43269 -1.92711 1.1352 0
M  V30 END ATOM
M  V30 BEGIN BOND
M  V30 1 1 1 2
M  V30 2 1 2 3
M  V30 3 1 3 4
M  V30 4 2 4 5
M  V30 5 1 5 6
M  V30 6 2 6 7
M  V30 7 1 7 8
M  V30 8 2 8 9
M  V30 9 1 7 10
M  V30 10 2 10 11
M  V30 11 1 11 12
M  V30 12 1 12 13
M  V30 13 2 12 14
M  V30 14 1 14 15
M  V30 15 1 15 16
M  V30 16 1 16 17
M  V30 17 1 17 18
M  V30 18 1 18 19
M  V30 19 2 19 20
M  V30 20 1 20 21
M  V30 21 2 21 22
M  V30 22 1 22 23
M  V30 23 1 19 24
M  V30 24 2 24 25
M  V30 25 1 25 26
M  V30 26 1 26 27
M  V30 27 1 27 28
M  V30 28 2 26 29
M  V30 29 1 29 30
M  V30 30 2 30 31
M  V30 31 1 17 32
M  V30 32 1 32 33
M  V30 33 1 32 34
M  V30 34 1 32 35
M  V30 35 2 15 36
M  V30 36 1 2 37
M  V30 37 1 37 38
M  V30 38 2 37 39
M  V30 39 1 9 4
M  V30 40 1 36 10
M  V30 41 2 23 18
M  V30 42 1 31 24
M  V30 43 1 1 40
M  V30 44 1 1 41
M  V30 45 1 2 42 CFG=1
M  V30 46 1 3 43
M  V30 47 1 3 44
M  V30 48 1 5 45
M  V30 49 1 6 46
M  V30 50 1 8 47
M  V30 51 1 9 48
M  V30 52 1 13 49
M  V30 53 1 13 50
M  V30 54 1 17 51
M  V30 55 1 20 52
M  V30 56 1 21 53
M  V30 57 1 22 54
M  V30 58 1 23 55
M  V30 59 1 25 56
M  V30 60 1 27 57
M  V30 61 1 27 58
M  V30 62 1 28 59
M  V30 63 1 29 60
M  V30 64 1 30 61
M  V30 65 1 31 62
M  V30 66 1 36 63
M  V30 67 1 38 64
M  V30 END BOND
M  V30 END CTAB
M  END
