
     RDKit          3D

  0  0  0  0  0  0  0  0  0  0999 V3000
M  V30 BEGIN CTAB
M  V30 COUNTS 19 19 0 0 0
M  V30 BEGIN ATOM
M  V30 1 N 3.41772 0.631488 -0.392551 0
M  V30 2 N 2.07981 1.02864 -0.390552 0
M  V30 3 C 1.09358 0.251 -0.136805 0
M  V30 4 C -0.299662 0.676826 -0.137611 0
M  V30 5 N -0.76799 1.93455 -0.400491 0
M  V30 6 C -2.08797 1.9812 -0.317186 0
M  V30 7 C -2.4882 0.703485 0.0124513 0
M  V30 8 N -1.38479 -0.0750431 0.117051 0
M  V30 9 C -1.39352 -1.46467 0.445 0
M  V30 10 N 1.37742 -1.10545 0.162779 0
M  V30 11 H 3.76802 -0.33899 -0.495647 0
M  V30 12 H 4.13806 1.3748 -0.280325 0
M  V30 13 H -2.68939 2.87385 -0.484547 0
M  V30 14 H -3.52941 0.419477 0.153746 0
M  V30 15 H -0.833693 -1.70978 1.36766 0
M  V30 16 H -2.42851 -1.82596 0.549089 0
M  V30 17 H -0.953393 -2.0897 -0.386644 0
M  V30 18 H 1.54628 -1.40355 1.16846 0
M  V30 19 H 1.43564 -1.86217 -0.55388 0
M  V30 END ATOM
M  V30 BEGIN BOND
M  V30 1 1 1 2
M  V30 2 2 2 3
M  V30 3 1 3 4
M  V30 4 2 4 5
M  V30 5 1 5 6
M  V30 6 2 6 7
M  V30 7 1 7 8
M  V30 8 1 8 9
M  V30 9 1 3 10
M  V30 10 1 8 4
M  V30 11 1 1 11
M  V30 12 1 1 12
M  V30 13 1 6 13
M  V30 14 1 7 14
M  V30 15 1 9 15
M  V30 16 1 9 16
M  V30 17 1 9 17
M  V30 18 1 10 18
M  V30 19 1 10 19
M  V30 END BOND
M  V30 END CTAB
M  END
