
     RDKit          3D

  0  0  0  0  0  0  0  0  0  0999 V3000
M  V30 BEGIN CTAB
M  V30 COUNTS 25 26 0 0 0
M  V30 BEGIN ATOM
M  V30 1 Br 4.21603 1.34009 -2.24594 0
M  V30 2 C 3.17993 0.620861 -0.78354 0
M  V30 3 C 3.86135 0.011425 0.241504 0
M  V30 4 C 3.14467 -0.482835 1.29409 0
M  V30 5 C 1.75793 -0.406158 1.39617 0
M  V30 6 C 1.09627 0.211523 0.348139 0
M  V30 7 C 1.80985 0.721268 -0.735936 0
M  V30 8 C -0.34432 0.35525 0.442093 0
M  V30 9 N -0.890431 1.10907 1.44796 0
M  V30 10 C -2.21213 1.25682 1.6 0
M  V30 11 C -3.10958 0.633746 0.719293 0
M  V30 12 C -2.60324 -0.13499 -0.304081 0
M  V30 13 C -1.23007 -0.261535 -0.428995 0
M  V30 14 N -0.73752 -1.06836 -1.48378 0
M  V30 15 N -3.46413 -0.824484 -1.22141 0
M  V30 16 F 1.14892 -0.932124 2.48395 0
M  V30 17 H 4.95113 -0.0687042 0.179383 0
M  V30 18 H 3.64115 -0.970741 2.11532 0
M  V30 19 H 1.30352 1.21025 -1.56543 0
M  V30 20 H -2.66586 1.86211 2.4023 0
M  V30 21 H -4.16247 0.757803 0.856881 0
M  V30 22 H -0.573865 -2.07359 -1.31826 0
M  V30 23 H -0.547817 -0.655557 -2.40465 0
M  V30 24 H -3.93722 -1.69111 -0.855064 0
M  V30 25 H -3.63209 -0.520035 -2.18003 0
M  V30 END ATOM
M  V30 BEGIN BOND
M  V30 1 1 1 2
M  V30 2 2 2 3
M  V30 3 1 3 4
M  V30 4 2 4 5
M  V30 5 1 5 6
M  V30 6 2 6 7
M  V30 7 1 6 8
M  V30 8 2 8 9
M  V30 9 1 9 10
M  V30 10 2 10 11
M  V30 11 1 11 12
M  V30 12 2 12 13
M  V30 13 1 13 14
M  V30 14 1 12 15
M  V30 15 1 5 16
M  V30 16 1 7 2
M  V30 17 1 13 8
M  V30 18 1 3 17
M  V30 19 1 4 18
M  V30 20 1 7 19
M  V30 21 1 10 20
M  V30 22 1 11 21
M  V30 23 1 14 22
M  V30 24 1 14 23
M  V30 25 1 15 24
M  V30 26 1 15 25
M  V30 END BOND
M  V30 END CTAB
M  END
