
     RDKit          3D

  0  0  0  0  0  0  0  0  0  0999 V3000
M  V30 BEGIN CTAB
M  V30 COUNTS 55 58 0 0 0
M  V30 BEGIN ATOM
M  V30 1 O -1.29764 -1.99507 0.0292282 0
M  V30 2 C -0.936033 -0.859165 -0.361208 0
M  V30 3 N 0.116487 -0.15051 0.267836 0
M  V30 4 C 0.45415 1.15644 -0.169032 0
M  V30 5 C 1.13224 1.42144 -1.34599 0
M  V30 6 C 1.44856 2.68903 -1.7479 0
M  V30 7 C 1.08269 3.74981 -0.95676 0
M  V30 8 C 0.406767 3.55395 0.225912 0
M  V30 9 C 0.105166 2.26037 0.596884 0
M  V30 10 O 0.076862 4.66904 0.962092 0
M  V30 11 C 0.42602 5.98857 0.669233 0
M  V30 12 C 0.917176 6.20081 -0.733749 0
M  V30 13 O 1.39081 5.03539 -1.33898 0
M  V30 14 C 0.839469 -0.817426 1.34333 0
M  V30 15 C 1.99313 -1.58323 0.769306 0
M  V30 16 C 3.24524 -1.34965 1.07577 0
M  V30 17 C 4.3416 -2.10851 0.503569 0
M  V30 18 C 5.64666 -1.78177 0.862389 0
M  V30 19 C 6.70839 -2.47772 0.335427 0
M  V30 20 C 6.49642 -3.50561 -0.551038 0
M  V30 21 C 5.21967 -3.85557 -0.926817 0
M  V30 22 C 4.16802 -3.1436 -0.387352 0
M  V30 23 C -1.6554 -0.265958 -1.53007 0
M  V30 24 S -2.91276 -1.39239 -2.14614 0
M  V30 25 C -4.25502 -1.61656 -0.994552 0
M  V30 26 N -4.24396 -2.5648 -0.0413061 0
M  V30 27 C -5.259 -2.75465 0.83821 0
M  V30 28 N -5.2021 -3.76265 1.83101 0
M  V30 29 C -6.35628 -1.93438 0.748977 0
M  V30 30 C -6.3713 -0.962269 -0.224969 0
M  V30 31 N -5.3485 -0.810465 -1.07097 0
M  V30 32 N -7.48298 -0.0838625 -0.364224 0
M  V30 33 H 1.4186 0.606344 -1.95845 0
M  V30 34 H 1.98482 2.92125 -2.67497 0
M  V30 35 H -0.42915 2.11242 1.52846 0
M  V30 36 H -0.458335 6.65131 0.824398 0
M  V30 37 H 1.21824 6.39134 1.36862 0
M  V30 38 H 1.73645 6.95095 -0.743068 0
M  V30 39 H 0.106574 6.61942 -1.39147 0
M  V30 40 H 0.190413 -1.5056 1.92221 0
M  V30 41 H 1.25671 -0.0851423 2.0615 0
M  V30 42 H 1.72383 -2.3546 0.0708033 0
M  V30 43 H 3.45831 -0.555784 1.78409 0
M  V30 44 H 5.80742 -0.975985 1.55954 0
M  V30 45 H 7.73866 -2.21149 0.627305 0
M  V30 46 H 7.35612 -4.04282 -0.953155 0
M  V30 47 H 5.09221 -4.67043 -1.62577 0
M  V30 48 H 3.18229 -3.44624 -0.707568 0
M  V30 49 H -0.940945 -0.0923983 -2.37866 0
M  V30 50 H -2.07305 0.717207 -1.23349 0
M  V30 51 H -5.56027 -4.72784 1.65455 0
M  V30 52 H -4.79848 -3.59266 2.78983 0
M  V30 53 H -7.16398 -2.08195 1.44952 0
M  V30 54 H -7.77546 0.508634 0.415967 0
M  V30 55 H -7.96552 -0.0849646 -1.28823 0
M  V30 END ATOM
M  V30 BEGIN BOND
M  V30 1 2 1 2
M  V30 2 1 2 3
M  V30 3 1 3 4
M  V30 4 2 4 5
M  V30 5 1 5 6
M  V30 6 2 6 7
M  V30 7 1 7 8
M  V30 8 2 8 9
M  V30 9 1 8 10
M  V30 10 1 10 11
M  V30 11 1 11 12
M  V30 12 1 12 13
M  V30 13 1 3 14
M  V30 14 1 14 15
M  V30 15 2 15 16 CFG=2
M  V30 16 1 16 17
M  V30 17 2 17 18
M  V30 18 1 18 19
M  V30 19 2 19 20
M  V30 20 1 20 21
M  V30 21 2 21 22
M  V30 22 1 2 23
M  V30 23 1 23 24
M  V30 24 1 24 25
M  V30 25 2 25 26
M  V30 26 1 26 27
M  V30 27 1 27 28
M  V30 28 2 27 29
M  V30 29 1 29 30
M  V30 30 2 30 31
M  V30 31 1 30 32
M  V30 32 1 9 4
M  V30 33 1 22 17
M  V30 34 1 31 25
M  V30 35 1 13 7
M  V30 36 1 5 33
M  V30 37 1 6 34
M  V30 38 1 9 35
M  V30 39 1 11 36
M  V30 40 1 11 37
M  V30 41 1 12 38
M  V30 42 1 12 39
M  V30 43 1 14 40
M  V30 44 1 14 41
M  V30 45 1 15 42
M  V30 46 1 16 43
M  V30 47 1 18 44
M  V30 48 1 19 45
M  V30 49 1 20 46
M  V30 50 1 21 47
M  V30 51 1 22 48
M  V30 52 1 23 49
M  V30 53 1 23 50
M  V30 54 1 28 51
M  V30 55 1 28 52
M  V30 56 1 29 53
M  V30 57 1 32 54
M  V30 58 1 32 55
M  V30 END BOND
M  V30 END CTAB
M  END
