
     RDKit          3D

  0  0  0  0  0  0  0  0  0  0999 V3000
M  V30 BEGIN CTAB
M  V30 COUNTS 42 43 0 0 0
M  V30 BEGIN ATOM
M  V30 1 N 4.83725 2.24348 -0.662451 0
M  V30 2 C 3.578 1.56655 -0.718796 0
M  V30 3 C 3.27337 0.771641 0.511977 0
M  V30 4 C 4.29054 -0.291861 0.779818 0
M  V30 5 C 3.93864 -1.31648 -0.248584 0
M  V30 6 C 2.41063 -1.24482 -0.287203 0
M  V30 7 N 2.01533 0.0277631 0.216815 0
M  V30 8 C 0.777676 0.640417 0.459963 0
M  V30 9 O 0.807746 1.84703 0.940366 0
M  V30 10 C -0.553969 0.108021 0.247196 0
M  V30 11 C -0.848389 -1.1359 -0.253323 0
M  V30 12 C -2.17323 -1.5648 -0.423021 0
M  V30 13 C -2.44838 -2.9327 -0.973454 0
M  V30 14 C -3.24657 -0.775331 -0.10244 0
M  V30 15 C -2.96961 0.470887 0.399001 0
M  V30 16 C -1.67135 0.891472 0.565434 0
M  V30 17 S -4.31756 1.50513 0.818823 0
M  V30 18 O -5.07555 1.79722 -0.445307 0
M  V30 19 O -5.22587 0.871233 1.82514 0
M  V30 20 N -3.69182 2.99758 1.41869 0
M  V30 21 C -4.65254 -1.20595 -0.272607 0
M  V30 22 H 5.30486 2.1696 0.245392 0
M  V30 23 H 5.43158 2.15075 -1.4917 0
M  V30 24 H 3.55201 0.877192 -1.589 0
M  V30 25 H 2.78567 2.33658 -0.8262 0
M  V30 26 H 3.13765 1.40063 1.41341 0
M  V30 27 H 5.29143 0.158005 0.620999 0
M  V30 28 H 4.20438 -0.650843 1.82481 0
M  V30 29 H 4.29198 -2.32035 0.0481913 0
M  V30 30 H 4.3439 -1.01109 -1.22019 0
M  V30 31 H 2.07056 -2.08727 0.359221 0
M  V30 32 H 2.09415 -1.44372 -1.3315 0
M  V30 33 H -0.0750195 -1.80403 -0.525151 0
M  V30 34 H -2.96014 -3.51922 -0.203841 0
M  V30 35 H -1.47894 -3.40922 -1.22226 0
M  V30 36 H -3.07909 -2.87147 -1.90014 0
M  V30 37 H -1.47995 1.87986 0.963234 0
M  V30 38 H -3.00859 3.34485 0.693494 0
M  V30 39 H -4.50093 3.68618 1.38948 0
M  V30 40 H -4.61391 -2.24786 -0.70327 0
M  V30 41 H -5.16848 -0.596451 -1.02442 0
M  V30 42 H -5.19744 -1.31273 0.68341 0
M  V30 END ATOM
M  V30 BEGIN BOND
M  V30 1 1 1 2
M  V30 2 1 2 3
M  V30 3 1 3 4
M  V30 4 1 4 5
M  V30 5 1 5 6
M  V30 6 1 6 7
M  V30 7 1 7 8
M  V30 8 2 8 9
M  V30 9 1 8 10
M  V30 10 2 10 11
M  V30 11 1 11 12
M  V30 12 1 12 13
M  V30 13 2 12 14
M  V30 14 1 14 15
M  V30 15 2 15 16
M  V30 16 1 15 17
M  V30 17 2 17 18
M  V30 18 2 17 19
M  V30 19 1 17 20
M  V30 20 1 14 21
M  V30 21 1 7 3
M  V30 22 1 16 10
M  V30 23 1 1 22
M  V30 24 1 1 23
M  V30 25 1 2 24
M  V30 26 1 2 25
M  V30 27 1 3 26
M  V30 28 1 4 27
M  V30 29 1 4 28
M  V30 30 1 5 29
M  V30 31 1 5 30
M  V30 32 1 6 31
M  V30 33 1 6 32
M  V30 34 1 11 33
M  V30 35 1 13 34
M  V30 36 1 13 35
M  V30 37 1 13 36
M  V30 38 1 16 37
M  V30 39 1 20 38
M  V30 40 1 20 39
M  V30 41 1 21 40
M  V30 42 1 21 41
M  V30 43 1 21 42
M  V30 END BOND
M  V30 END CTAB
M  END
