
     RDKit          3D

  0  0  0  0  0  0  0  0  0  0999 V3000
M  V30 BEGIN CTAB
M  V30 COUNTS 23 23 0 0 0
M  V30 BEGIN ATOM
M  V30 1 O 3.03783 1.3988 -0.532603 0
M  V30 2 N 1.80041 0.824445 -0.684007 0
M  V30 3 C 1.30537 -0.0154479 0.119798 0
M  V30 4 C -0.0322433 -0.58528 -0.116173 0
M  V30 5 N 0.010826 -2.03616 -0.258979 0
M  V30 6 C -0.969382 -0.224132 1.0433 0
M  V30 7 C -2.06879 0.59209 0.441907 0
M  V30 8 C -1.32942 1.27793 -0.715365 0
M  V30 9 C -0.625763 0.0871279 -1.33202 0
M  V30 10 N 2.06027 -0.405027 1.25963 0
M  V30 11 H 3.87079 0.829741 -0.344887 0
M  V30 12 H 0.012207 -2.23212 -1.28657 0
M  V30 13 H -0.872444 -2.42746 0.187285 0
M  V30 14 H -1.31537 -1.12467 1.57224 0
M  V30 15 H -0.414988 0.404659 1.74913 0
M  V30 16 H -2.79485 -0.103487 -0.0405303 0
M  V30 17 H -2.53072 1.3164 1.11151 0
M  V30 18 H -2.02882 1.76729 -1.40362 0
M  V30 19 H -0.567694 1.94009 -0.279663 0
M  V30 20 H -1.36206 -0.614528 -1.79543 0
M  V30 21 H 0.149886 0.41834 -2.05053 0
M  V30 22 H 2.86057 -1.03738 1.16926 0
M  V30 23 H 1.80439 -0.0512279 2.18632 0
M  V30 END ATOM
M  V30 BEGIN BOND
M  V30 1 1 1 2
M  V30 2 2 2 3 CFG=2
M  V30 3 1 3 4
M  V30 4 1 4 5
M  V30 5 1 4 6
M  V30 6 1 6 7
M  V30 7 1 7 8
M  V30 8 1 8 9
M  V30 9 1 3 10
M  V30 10 1 9 4
M  V30 11 1 1 11
M  V30 12 1 5 12
M  V30 13 1 5 13
M  V30 14 1 6 14
M  V30 15 1 6 15
M  V30 16 1 7 16
M  V30 17 1 7 17
M  V30 18 1 8 18
M  V30 19 1 8 19
M  V30 20 1 9 20
M  V30 21 1 9 21
M  V30 22 1 10 22
M  V30 23 1 10 23
M  V30 END BOND
M  V30 END CTAB
M  END
