
     RDKit          3D

  0  0  0  0  0  0  0  0  0  0999 V3000
M  V30 BEGIN CTAB
M  V30 COUNTS 20 20 0 0 0
M  V30 BEGIN ATOM
M  V30 1 N 2.88941 -0.448715 -1.25847 0
M  V30 2 N 1.9757 0.0923838 -0.379686 0
M  V30 3 C 0.993947 -0.722131 0.253177 0
M  V30 4 O 0.973405 -1.94255 -0.00201765 0
M  V30 5 C -0.0027485 -0.178257 1.20145 0
M  V30 6 C -0.798289 0.913351 0.518565 0
M  V30 7 C -1.59083 0.66112 -0.680557 0
M  V30 8 C -2.28724 0.90457 0.64157 0
M  V30 9 N -0.847848 -1.25888 1.66138 0
M  V30 10 H 3.69626 -0.872634 -0.763098 0
M  V30 11 H 3.25819 0.306109 -1.86997 0
M  V30 12 H 1.98475 1.09732 -0.163011 0
M  V30 13 H 0.546034 0.197228 2.07727 0
M  V30 14 H -0.339339 1.91883 0.619784 0
M  V30 15 H -1.77781 -0.347716 -1.09335 0
M  V30 16 H -1.64057 1.46101 -1.46699 0
M  V30 17 H -2.80428 0.0515252 1.13625 0
M  V30 18 H -2.86027 1.85667 0.668138 0
M  V30 19 H -0.251763 -1.8767 2.2528 0
M  V30 20 H -1.1167 -1.81253 0.815873 0
M  V30 END ATOM
M  V30 BEGIN BOND
M  V30 1 1 1 2
M  V30 2 1 2 3
M  V30 3 2 3 4
M  V30 4 1 3 5
M  V30 5 1 5 6
M  V30 6 1 6 7
M  V30 7 1 7 8
M  V30 8 1 5 9
M  V30 9 1 8 6
M  V30 10 1 1 10
M  V30 11 1 1 11
M  V30 12 1 2 12
M  V30 13 1 5 13
M  V30 14 1 6 14
M  V30 15 1 7 15
M  V30 16 1 7 16
M  V30 17 1 8 17
M  V30 18 1 8 18
M  V30 19 1 9 19
M  V30 20 1 9 20
M  V30 END BOND
M  V30 END CTAB
M  END
