
     RDKit          3D

  0  0  0  0  0  0  0  0  0  0999 V3000
M  V30 BEGIN CTAB
M  V30 COUNTS 43 44 0 0 0
M  V30 BEGIN ATOM
M  V30 1 C -1.97804 3.18609 -1.33363 0
M  V30 2 N -2.22284 2.42661 -0.132044 0
M  V30 3 C -3.11856 2.98458 0.854782 0
M  V30 4 C -1.6152 1.17238 0.0933222 0
M  V30 5 C -2.27638 0.0315948 -0.329017 0
M  V30 6 C -1.69505 -1.21256 -0.11455 0
M  V30 7 C -0.458169 -1.25076 0.523739 0
M  V30 8 C 0.211411 -0.128265 0.948583 0
M  V30 9 C 1.51002 -0.271523 1.59381 0
M  V30 10 C 2.68888 0.0768767 0.824282 0
M  V30 11 C 3.36035 1.27006 0.997153 0
M  V30 12 N 4.44021 1.58981 0.282783 0
M  V30 13 C 4.91976 0.757234 -0.638673 0
M  V30 14 N 6.08806 1.08685 -1.42083 0
M  V30 15 N 4.29569 -0.416452 -0.839363 0
M  V30 16 C 3.18512 -0.773368 -0.122079 0
M  V30 17 N 2.65693 -2.04309 -0.454383 0
M  V30 18 C -0.395116 1.09628 0.720039 0
M  V30 19 N -2.35459 -2.38399 -0.538807 0
M  V30 20 C -3.62304 -2.28887 -1.20957 0
M  V30 21 C -1.77642 -3.68079 -0.306472 0
M  V30 22 H -1.56274 2.57125 -2.15232 0
M  V30 23 H -2.9008 3.66205 -1.7179 0
M  V30 24 H -1.26119 4.00637 -1.04241 0
M  V30 25 H -2.91425 4.05069 1.06225 0
M  V30 26 H -4.1828 2.96027 0.480221 0
M  V30 27 H -3.14382 2.37624 1.78789 0
M  V30 28 H -3.25265 0.102771 -0.830828 0
M  V30 29 H -0.0827221 -2.27469 0.66167 0
M  V30 30 H 1.4864 0.284341 2.58225 0
M  V30 31 H 1.62283 -1.34652 1.92919 0
M  V30 32 H 2.95258 1.95589 1.76564 0
M  V30 33 H 7.0102 1.2882 -0.999906 0
M  V30 34 H 5.96528 1.11472 -2.44629 0
M  V30 35 H 2.59668 -2.82334 0.242848 0
M  V30 36 H 2.30524 -2.2458 -1.41796 0
M  V30 37 H 0.12191 1.9761 1.0495 0
M  V30 38 H -4.34006 -1.61722 -0.708756 0
M  V30 39 H -3.39855 -1.87494 -2.23623 0
M  V30 40 H -4.09982 -3.29531 -1.34853 0
M  V30 41 H -0.898282 -3.78147 -0.993323 0
M  V30 42 H -1.40148 -3.81386 0.739076 0
M  V30 43 H -2.465 -4.50443 -0.594806 0
M  V30 END ATOM
M  V30 BEGIN BOND
M  V30 1 1 1 2
M  V30 2 1 2 3
M  V30 3 1 2 4
M  V30 4 2 4 5
M  V30 5 1 5 6
M  V30 6 2 6 7
M  V30 7 1 7 8
M  V30 8 1 8 9
M  V30 9 1 9 10
M  V30 10 2 10 11
M  V30 11 1 11 12
M  V30 12 2 12 13
M  V30 13 1 13 14
M  V30 14 1 13 15
M  V30 15 2 15 16
M  V30 16 1 16 17
M  V30 17 2 8 18
M  V30 18 1 6 19
M  V30 19 1 19 20
M  V30 20 1 19 21
M  V30 21 1 18 4
M  V30 22 1 16 10
M  V30 23 1 1 22
M  V30 24 1 1 23
M  V30 25 1 1 24
M  V30 26 1 3 25
M  V30 27 1 3 26
M  V30 28 1 3 27
M  V30 29 1 5 28
M  V30 30 1 7 29
M  V30 31 1 9 30
M  V30 32 1 9 31
M  V30 33 1 11 32
M  V30 34 1 14 33
M  V30 35 1 14 34
M  V30 36 1 17 35
M  V30 37 1 17 36
M  V30 38 1 18 37
M  V30 39 1 20 38
M  V30 40 1 20 39
M  V30 41 1 20 40
M  V30 42 1 21 41
M  V30 43 1 21 42
M  V30 44 1 21 43
M  V30 END BOND
M  V30 END CTAB
M  END
