
     RDKit          3D

  0  0  0  0  0  0  0  0  0  0999 V3000
M  V30 BEGIN CTAB
M  V30 COUNTS 137 140 0 0 0
M  V30 BEGIN ATOM
M  V30 1 C -9.28027 -4.36264 -0.440785 0 CFG=1
M  V30 2 N -8.02734 -5.04093 0.00616593 0
M  V30 3 C -10.0695 -3.99117 0.776209 0
M  V30 4 C -11.3187 -3.35557 0.323432 0
M  V30 5 O -12.2022 -2.72635 1.18905 0
M  V30 6 O -11.6496 -3.35284 -0.919639 0
M  V30 7 C -8.84347 -3.24458 -1.24204 0
M  V30 8 O -8.11049 -3.61505 -2.27712 0
M  V30 9 N -9.09343 -1.85475 -1.06588 0
M  V30 10 C -8.45096 -0.986854 -2.11055 0 CFG=1
M  V30 11 C -9.20208 0.316458 -2.07821 0
M  V30 12 C -10.6129 0.529057 -2.30032 0
M  V30 13 C -10.7282 2.1008 -2.04646 0
M  V30 14 N -10.2751 2.41256 -0.700137 0
M  V30 15 C -9.97681 3.76091 -0.345481 0
M  V30 16 N -9.62725 4.7114 -1.34412 0
M  V30 17 N -9.97774 4.15205 0.865563 0
M  V30 18 C -7.14759 -0.596368 -1.422 0
M  V30 19 O -7.294 0.486367 -0.709803 0
M  V30 20 N -5.8827 -1.18406 -1.41187 0
M  V30 21 C -4.9397 -0.361472 -0.526551 0 CFG=1
M  V30 22 C -5.5177 -0.66279 0.844686 0
M  V30 23 C -4.85598 0.206026 1.86004 0
M  V30 24 C -5.24038 -2.13845 1.19698 0
M  V30 25 C -3.56946 -0.811465 -0.678911 0
M  V30 26 O -3.42711 -2.00718 -1.06126 0
M  V30 27 N -2.48275 0.0194578 -0.404478 0
M  V30 28 C -1.10333 0.00738538 -0.362366 0 CFG=1
M  V30 29 C -0.419752 -0.774367 0.739902 0
M  V30 30 C -0.854951 -0.285446 2.06628 0
M  V30 31 C -0.656877 1.009 2.45943 0
M  V30 32 C -1.09393 1.43239 3.70516 0
M  V30 33 C -1.73197 0.566831 4.58927 0
M  V30 34 O -2.13926 1.03111 5.81468 0
M  V30 35 C -1.9074 -0.720911 4.16516 0
M  V30 36 C -1.48287 -1.17345 2.92761 0
M  V30 37 C -0.49887 -0.50238 -1.68939 0
M  V30 38 O -1.00062 -1.54182 -2.15394 0
M  V30 39 N 0.529467 0.241868 -2.22747 0
M  V30 40 C 1.57156 0.981332 -2.78774 0 CFG=1
M  V30 41 C 1.16165 2.43378 -2.86587 0
M  V30 42 C 2.73045 0.879471 -1.79924 0
M  V30 43 O 2.2352 0.996922 -0.58703 0
M  V30 44 N 4.02373 0.691129 -1.9174 0
M  V30 45 C 4.97367 0.436901 -0.775135 0 CFG=1
M  V30 46 C 5.32461 -0.976132 -1.0528 0
M  V30 47 C 6.2367 -1.83549 -0.334269 0
M  V30 48 C 7.06313 -2.78929 -0.965831 0
M  V30 49 N 7.70975 -3.45455 -0.0255605 0
M  V30 50 C 7.36073 -2.99883 1.1841 0
M  V30 51 N 6.47069 -2.01106 0.980236 0
M  V30 52 C 5.99071 1.38409 -0.470643 0
M  V30 53 O 6.62983 1.96722 -1.36256 0
M  V30 54 N 6.34745 1.71553 0.903376 0
M  V30 55 C 5.43313 1.32548 2.01583 0
M  V30 56 C 6.33587 0.997592 3.15151 0
M  V30 57 C 7.73609 1.26472 2.7024 0
M  V30 58 C 7.42906 2.33379 1.54487 0 CFG=1
M  V30 59 C 8.68791 2.66386 0.980459 0
M  V30 60 O 9.33948 3.5998 1.5924 0
M  V30 61 N 9.32235 2.10605 -0.139623 0
M  V30 62 C 10.6479 2.56314 -0.617046 0 CFG=1
M  V30 63 C 11.2226 1.47276 -1.45232 0
M  V30 64 C 11.5452 0.19981 -0.817478 0
M  V30 65 C 10.7277 -0.803903 -0.458769 0
M  V30 66 C 11.2307 -1.99499 0.0625046 0
M  V30 67 C 12.5594 -2.23588 0.248794 0
M  V30 68 C 13.4254 -1.18675 -0.118948 0
M  V30 69 C 12.9324 -0.0242424 -0.628614 0
M  V30 70 C 10.4677 3.77979 -1.47821 0
M  V30 71 O 11.5388 4.57897 -1.90143 0
M  V30 72 O 9.25757 4.06673 -1.8166 0
M  V30 73 H -9.80653 -5.16323 -1.01509 0
M  V30 74 H -8.3559 -5.89586 0.535091 0
M  V30 75 H -7.52325 -5.32537 -0.846721 0
M  V30 76 H -9.41774 -3.20798 1.27314 0
M  V30 77 H -10.2661 -4.83231 1.4498 0
M  V30 78 H -11.7786 -1.98886 1.76188 0
M  V30 79 H -9.63 -1.47179 -0.329371 0
M  V30 80 H -8.30194 -1.4615 -3.00247 0
M  V30 81 H -9.00593 0.664789 -0.977177 0
M  V30 82 H -8.56313 1.12586 -2.60881 0
M  V30 83 H -11.0568 0.401471 -3.27704 0
M  V30 84 H -11.2576 0.0929696 -1.50802 0
M  V30 85 H -11.7463 2.42813 -2.12282 0
M  V30 86 H -10.038 2.53532 -2.75996 0
M  V30 87 H -10.1485 1.73136 0.074892 0
M  V30 88 H -10.2016 4.8271 -2.18945 0
M  V30 89 H -8.75464 5.30633 -1.19501 0
M  V30 90 H -9.75486 5.15266 1.13509 0
M  V30 91 H -5.59692 -2.01273 -1.87356 0
M  V30 92 H -5.20067 0.659148 -0.71244 0
M  V30 93 H -6.58919 -0.544681 0.936369 0
M  V30 94 H -5.24437 1.31841 1.77711 0
M  V30 95 H -3.78791 0.348451 1.80248 0
M  V30 96 H -5.12334 -0.0318869 2.92609 0
M  V30 97 H -5.73241 -2.77743 0.481516 0
M  V30 98 H -4.14491 -2.25802 1.238 0
M  V30 99 H -5.65542 -2.23759 2.21442 0
M  V30 100 H -2.87221 1.05124 -0.154807 0
M  V30 101 H -0.671825 1.07425 -0.357574 0
M  V30 102 H 0.655131 -0.706668 0.75155 0
M  V30 103 H -0.71261 -1.82594 0.573403 0
M  V30 104 H -0.147848 1.654 1.78256 0
M  V30 105 H -0.91009 2.45731 3.98786 0
M  V30 106 H -3.06525 1.40908 5.9655 0
M  V30 107 H -2.38991 -1.43506 4.83019 0
M  V30 108 H -1.65673 -2.23103 2.65999 0
M  V30 109 H 0.653067 -0.698623 -3.18558 0
M  V30 110 H 1.92643 0.610324 -3.74672 0
M  V30 111 H 1.1574 2.90755 -1.85345 0
M  V30 112 H 1.78298 3.05272 -3.5057 0
M  V30 113 H 0.104494 2.44174 -3.21865 0
M  V30 114 H 4.53005 0.735869 -2.86759 0
M  V30 115 H 4.2428 0.411195 0.0960507 0
M  V30 116 H 4.30743 -1.56966 -0.973528 0
M  V30 117 H 5.50125 -1.0984 -2.20062 0
M  V30 118 H 7.12242 -2.91404 -2.01584 0
M  V30 119 H 8.40259 -4.23732 -0.17651 0
M  V30 120 H 7.75034 -3.33192 2.1524 0
M  V30 121 H 4.85072 2.26544 2.25388 0
M  V30 122 H 4.82062 0.479719 1.80071 0
M  V30 123 H 6.28187 -0.108297 3.40945 0
M  V30 124 H 6.05671 1.60008 4.01372 0
M  V30 125 H 8.24901 0.42915 2.25182 0
M  V30 126 H 8.32795 1.76115 3.44006 0
M  V30 127 H 7.05841 3.20524 2.19725 0
M  V30 128 H 8.89941 1.32333 -0.674127 0
M  V30 129 H 11.3237 2.89134 0.211186 0
M  V30 130 H 10.4895 1.2904 -2.31291 0
M  V30 131 H 12.1382 1.85716 -1.99677 0
M  V30 132 H 9.64843 -0.685075 -0.595631 0
M  V30 133 H 10.4402 -2.72049 0.344653 0
M  V30 134 H 12.9048 -3.16592 0.662826 0
M  V30 135 H 14.491 -1.40961 0.0418167 0
M  V30 136 H 13.6508 0.729569 -0.873014 0
M  V30 137 H 11.8359 5.29695 -1.23704 0
M  V30 END ATOM
M  V30 BEGIN BOND
M  V30 1 1 1 2
M  V30 2 1 1 3
M  V30 3 1 3 4
M  V30 4 1 4 5
M  V30 5 2 4 6
M  V30 6 1 1 7
M  V30 7 2 7 8
M  V30 8 1 7 9
M  V30 9 1 9 10
M  V30 10 1 10 11
M  V30 11 1 11 12
M  V30 12 1 12 13
M  V30 13 1 13 14
M  V30 14 1 14 15
M  V30 15 1 15 16
M  V30 16 2 15 17 CFG=2
M  V30 17 1 10 18
M  V30 18 2 18 19
M  V30 19 1 18 20
M  V30 20 1 20 21
M  V30 21 1 21 22
M  V30 22 1 22 23
M  V30 23 1 22 24
M  V30 24 1 21 25
M  V30 25 2 25 26
M  V30 26 1 25 27
M  V30 27 1 27 28
M  V30 28 1 28 29
M  V30 29 1 29 30
M  V30 30 2 30 31
M  V30 31 1 31 32
M  V30 32 2 32 33
M  V30 33 1 33 34
M  V30 34 1 33 35
M  V30 35 2 35 36
M  V30 36 1 28 37
M  V30 37 2 37 38
M  V30 38 1 37 39
M  V30 39 1 39 40
M  V30 40 1 40 41
M  V30 41 1 40 42
M  V30 42 2 42 43
M  V30 43 1 42 44
M  V30 44 1 44 45
M  V30 45 1 45 46
M  V30 46 1 46 47
M  V30 47 2 47 48
M  V30 48 1 48 49
M  V30 49 1 49 50
M  V30 50 2 50 51
M  V30 51 1 45 52
M  V30 52 2 52 53
M  V30 53 1 52 54
M  V30 54 1 54 55
M  V30 55 1 55 56
M  V30 56 1 56 57
M  V30 57 1 57 58
M  V30 58 1 58 59
M  V30 59 2 59 60
M  V30 60 1 59 61
M  V30 61 1 61 62
M  V30 62 1 62 63
M  V30 63 1 63 64
M  V30 64 2 64 65
M  V30 65 1 65 66
M  V30 66 2 66 67
M  V30 67 1 67 68
M  V30 68 2 68 69
M  V30 69 1 62 70
M  V30 70 1 70 71
M  V30 71 2 70 72
M  V30 72 1 36 30
M  V30 73 1 51 47
M  V30 74 1 58 54
M  V30 75 1 69 64
M  V30 76 1 1 73 CFG=3
M  V30 77 1 2 74
M  V30 78 1 2 75
M  V30 79 1 3 76
M  V30 80 1 3 77
M  V30 81 1 5 78
M  V30 82 1 9 79
M  V30 83 1 10 80 CFG=3
M  V30 84 1 11 81
M  V30 85 1 11 82
M  V30 86 1 12 83
M  V30 87 1 12 84
M  V30 88 1 13 85
M  V30 89 1 13 86
M  V30 90 1 14 87
M  V30 91 1 16 88
M  V30 92 1 16 89
M  V30 93 1 17 90
M  V30 94 1 20 91
M  V30 95 1 21 92 CFG=3
M  V30 96 1 22 93
M  V30 97 1 23 94
M  V30 98 1 23 95
M  V30 99 1 23 96
M  V30 100 1 24 97
M  V30 101 1 24 98
M  V30 102 1 24 99
M  V30 103 1 27 100
M  V30 104 1 28 101 CFG=1
M  V30 105 1 29 102
M  V30 106 1 29 103
M  V30 107 1 31 104
M  V30 108 1 32 105
M  V30 109 1 34 106
M  V30 110 1 35 107
M  V30 111 1 36 108
M  V30 112 1 39 109
M  V30 113 1 40 110 CFG=3
M  V30 114 1 41 111
M  V30 115 1 41 112
M  V30 116 1 41 113
M  V30 117 1 44 114
M  V30 118 1 45 115 CFG=1
M  V30 119 1 46 116
M  V30 120 1 46 117
M  V30 121 1 48 118
M  V30 122 1 49 119
M  V30 123 1 50 120
M  V30 124 1 55 121
M  V30 125 1 55 122
M  V30 126 1 56 123
M  V30 127 1 56 124
M  V30 128 1 57 125
M  V30 129 1 57 126
M  V30 130 1 58 127 CFG=1
M  V30 131 1 61 128
M  V30 132 1 62 129 CFG=1
M  V30 133 1 63 130
M  V30 134 1 63 131
M  V30 135 1 65 132
M  V30 136 1 66 133
M  V30 137 1 67 134
M  V30 138 1 68 135
M  V30 139 1 69 136
M  V30 140 1 71 137
M  V30 END BOND
M  V30 END CTAB
M  END
