
     RDKit          3D

  0  0  0  0  0  0  0  0  0  0999 V3000
M  V30 BEGIN CTAB
M  V30 COUNTS 22 23 0 0 0
M  V30 BEGIN ATOM
M  V30 1 N 3.72674 0.807597 -0.193257 0
M  V30 2 C 2.44777 0.212399 -0.118254 0
M  V30 3 C 2.33522 -1.17036 -0.074772 0
M  V30 4 F 3.46952 -1.93374 -0.105482 0
M  V30 5 C 1.07934 -1.76844 -0.000766104 0
M  V30 6 F 0.97968 -3.11083 0.0410311 0
M  V30 7 C -0.0779377 -1.01472 0.0312535 0
M  V30 8 C -1.33966 -1.57624 0.104527 0
M  V30 9 F -1.4517 -2.93028 0.147231 0
M  V30 10 C -2.48623 -0.796983 0.135357 0
M  V30 11 F -3.71232 -1.36851 0.207258 0
M  V30 12 C -2.39033 0.585033 0.0926498 0
M  V30 13 N -3.5586 1.39646 0.123567 0
M  V30 14 C -1.1295 1.1361 0.019707 0
M  V30 15 F -0.97731 2.47453 -0.0243598 0
M  V30 16 C 0.0269551 0.364714 -0.0117922 0
M  V30 17 C 1.28472 0.94304 -0.0853366 0
M  V30 18 F 1.34028 2.29122 -0.125257 0
M  V30 19 H 4.15423 1.02405 -1.10922 0
M  V30 20 H 4.2518 1.03445 0.667419 0
M  V30 21 H -3.6411 2.20102 -0.525282 0
M  V30 22 H -4.33156 1.19948 0.783353 0
M  V30 END ATOM
M  V30 BEGIN BOND
M  V30 1 1 1 2
M  V30 2 2 2 3
M  V30 3 1 3 4
M  V30 4 1 3 5
M  V30 5 1 5 6
M  V30 6 2 5 7
M  V30 7 1 7 8
M  V30 8 1 8 9
M  V30 9 2 8 10
M  V30 10 1 10 11
M  V30 11 1 10 12
M  V30 12 1 12 13
M  V30 13 2 12 14
M  V30 14 1 14 15
M  V30 15 1 14 16
M  V30 16 2 16 17
M  V30 17 1 17 18
M  V30 18 1 17 2
M  V30 19 1 16 7
M  V30 20 1 1 19
M  V30 21 1 1 20
M  V30 22 1 13 21
M  V30 23 1 13 22
M  V30 END BOND
M  V30 END CTAB
M  END
