
     RDKit          3D

  0  0  0  0  0  0  0  0  0  0999 V3000
M  V30 BEGIN CTAB
M  V30 COUNTS 34 36 0 0 0
M  V30 BEGIN ATOM
M  V30 1 N 5.06431 1.34764 -1.53434 0
M  V30 2 C 3.89632 0.724737 -1.01302 0
M  V30 3 N 2.70567 0.813944 -1.63298 0
M  V30 4 C 1.56905 0.236954 -1.17206 0
M  V30 5 O 0.25466 0.176356 -1.60405 0
M  V30 6 C -0.611359 -0.110075 -0.520129 0
M  V30 7 C 0.275903 -1.03212 0.33039 0
M  V30 8 C 1.61695 -0.487863 -0.000294108 0
M  V30 9 C 2.83279 -0.591887 0.653269 0
M  V30 10 N 3.91875 0.00901497 0.133918 0
M  V30 11 N 2.86781 -1.34056 1.85766 0
M  V30 12 C -1.78139 -0.897891 -1.00748 0
M  V30 13 C -2.69871 -1.29494 0.11415 0
M  V30 14 N -3.8477 -0.404651 0.070154 0
M  V30 15 C -3.40838 0.967007 -0.0444284 0
M  V30 16 C -2.24369 1.21681 0.861262 0
M  V30 17 C -0.927298 1.16165 0.154299 0
M  V30 18 H 5.1152 2.31877 -1.90268 0
M  V30 19 H 5.93907 0.78596 -1.54831 0
M  V30 20 H -0.00979576 -0.849078 1.38707 0
M  V30 21 H 0.154478 -2.08345 0.0521287 0
M  V30 22 H 2.74881 -2.37059 1.84021 0
M  V30 23 H 3.01167 -0.869153 2.76098 0
M  V30 24 H -2.31227 -0.405691 -1.84659 0
M  V30 25 H -1.37635 -1.85377 -1.43887 0
M  V30 26 H -2.20496 -1.32831 1.08469 0
M  V30 27 H -3.11447 -2.32955 -0.0601686 0
M  V30 28 H -4.36985 -0.633552 -0.808251 0
M  V30 29 H -3.15424 1.2767 -1.05779 0
M  V30 30 H -4.28415 1.60056 0.272688 0
M  V30 31 H -2.35495 2.27111 1.24508 0
M  V30 32 H -2.26686 0.586243 1.78641 0
M  V30 33 H -0.870976 2.0422 -0.533903 0
M  V30 34 H -0.134029 1.34748 0.936054 0
M  V30 END ATOM
M  V30 BEGIN BOND
M  V30 1 1 1 2
M  V30 2 2 2 3
M  V30 3 1 3 4
M  V30 4 1 4 5
M  V30 5 1 5 6
M  V30 6 1 6 7
M  V30 7 1 7 8
M  V30 8 1 8 9
M  V30 9 2 9 10
M  V30 10 1 9 11
M  V30 11 1 6 12
M  V30 12 1 12 13
M  V30 13 1 13 14
M  V30 14 1 14 15
M  V30 15 1 15 16
M  V30 16 1 16 17
M  V30 17 1 10 2
M  V30 18 2 8 4
M  V30 19 1 17 6
M  V30 20 1 1 18
M  V30 21 1 1 19
M  V30 22 1 7 20
M  V30 23 1 7 21
M  V30 24 1 11 22
M  V30 25 1 11 23
M  V30 26 1 12 24
M  V30 27 1 12 25
M  V30 28 1 13 26
M  V30 29 1 13 27
M  V30 30 1 14 28
M  V30 31 1 15 29
M  V30 32 1 15 30
M  V30 33 1 16 31
M  V30 34 1 16 32
M  V30 35 1 17 33
M  V30 36 1 17 34
M  V30 END BOND
M  V30 END CTAB
M  END
