
     RDKit          3D

  0  0  0  0  0  0  0  0  0  0999 V3000
M  V30 BEGIN CTAB
M  V30 COUNTS 54 57 0 0 0
M  V30 BEGIN ATOM
M  V30 1 N 5.56102 -3.14743 0.90408 0
M  V30 2 C 5.43969 -1.82655 1.44422 0
M  V30 3 C 5.35447 -0.707416 0.423722 0
M  V30 4 C 4.38048 -0.0344526 1.42666 0
M  V30 5 C 4.00955 -1.4178 1.85015 0
M  V30 6 C 3.39667 0.822551 0.788817 0
M  V30 7 N 3.614 2.14503 0.731143 0
M  V30 8 C 2.73735 2.98182 0.152932 0
M  V30 9 N 2.98635 4.39994 0.0925621 0
M  V30 10 N 1.59968 2.51827 -0.393389 0
M  V30 11 C 1.31466 1.17843 -0.368508 0
M  V30 12 C 2.23101 0.345216 0.229926 0
M  V30 13 N 0.126532 0.698835 -0.953799 0
M  V30 14 C -0.401029 1.62078 -1.97766 0
M  V30 15 C -1.89103 1.71625 -1.74627 0
M  V30 16 C -2.57419 0.422551 -2.0348 0
M  V30 17 N -2.88892 -0.337824 -0.842176 0
M  V30 18 C -1.8408 -0.298297 0.134652 0
M  V30 19 C -0.497691 -0.52391 -0.579471 0
M  V30 20 C -4.16609 0.0993149 -0.375428 0
M  V30 21 C -4.39991 -0.0486288 1.08555 0
M  V30 22 C -4.83492 -1.45995 1.31006 0
M  V30 23 C -4.94402 -2.087 -0.0747347 0
M  V30 24 C -5.19445 -0.860337 -0.945341 0
M  V30 25 H 6.25849 -3.74966 1.36775 0
M  V30 26 H 5.51663 -3.21638 -0.124262 0
M  V30 27 H 6.18564 -1.65381 2.26401 0
M  V30 28 H 4.84859 -1.06173 -0.494756 0
M  V30 29 H 6.28997 -0.1225 0.276802 0
M  V30 30 H 5.03902 0.499684 2.1569 0
M  V30 31 H 3.85054 -1.55704 2.94354 0
M  V30 32 H 3.301 -1.97003 1.2275 0
M  V30 33 H 2.24778 5.06542 0.360873 0
M  V30 34 H 3.91 4.7464 -0.219361 0
M  V30 35 H 2.0742 -0.707695 0.278859 0
M  V30 36 H -0.222599 1.12605 -2.95211 0
M  V30 37 H 0.0870648 2.6174 -1.90549 0
M  V30 38 H -2.12777 2.14931 -0.748721 0
M  V30 39 H -2.2497 2.50911 -2.47175 0
M  V30 40 H -3.52458 0.666004 -2.58895 0
M  V30 41 H -1.9962 -0.212906 -2.70351 0
M  V30 42 H -1.82805 0.575724 0.776806 0
M  V30 43 H -1.96891 -1.20253 0.773613 0
M  V30 44 H 0.151795 -1.08112 0.11978 0
M  V30 45 H -0.712921 -1.1793 -1.45431 0
M  V30 46 H -4.40833 1.15235 -0.719818 0
M  V30 47 H -5.28277 0.609362 1.34396 0
M  V30 48 H -3.5878 0.294307 1.74446 0
M  V30 49 H -5.86086 -1.52931 1.75548 0
M  V30 50 H -4.16693 -2.02668 1.98694 0
M  V30 51 H -3.95736 -2.48588 -0.330364 0
M  V30 52 H -5.76936 -2.80549 -0.136815 0
M  V30 53 H -6.23073 -0.476096 -0.834311 0
M  V30 54 H -4.98425 -1.17236 -1.97563 0
M  V30 END ATOM
M  V30 BEGIN BOND
M  V30 1 1 1 2
M  V30 2 1 2 3
M  V30 3 1 3 4
M  V30 4 1 4 5
M  V30 5 1 4 6
M  V30 6 2 6 7
M  V30 7 1 7 8
M  V30 8 1 8 9
M  V30 9 2 8 10
M  V30 10 1 10 11
M  V30 11 2 11 12
M  V30 12 1 11 13
M  V30 13 1 13 14
M  V30 14 1 14 15
M  V30 15 1 15 16
M  V30 16 1 16 17
M  V30 17 1 17 18
M  V30 18 1 18 19
M  V30 19 1 17 20
M  V30 20 1 20 21
M  V30 21 1 21 22
M  V30 22 1 22 23
M  V30 23 1 23 24
M  V30 24 1 5 2
M  V30 25 1 12 6
M  V30 26 1 19 13
M  V30 27 1 24 20
M  V30 28 1 1 25
M  V30 29 1 1 26
M  V30 30 1 2 27
M  V30 31 1 3 28
M  V30 32 1 3 29
M  V30 33 1 4 30
M  V30 34 1 5 31
M  V30 35 1 5 32
M  V30 36 1 9 33
M  V30 37 1 9 34
M  V30 38 1 12 35
M  V30 39 1 14 36
M  V30 40 1 14 37
M  V30 41 1 15 38
M  V30 42 1 15 39
M  V30 43 1 16 40
M  V30 44 1 16 41
M  V30 45 1 18 42
M  V30 46 1 18 43
M  V30 47 1 19 44
M  V30 48 1 19 45
M  V30 49 1 20 46
M  V30 50 1 21 47
M  V30 51 1 21 48
M  V30 52 1 22 49
M  V30 53 1 22 50
M  V30 54 1 23 51
M  V30 55 1 23 52
M  V30 56 1 24 53
M  V30 57 1 24 54
M  V30 END BOND
M  V30 END CTAB
M  END
