
     RDKit          3D

  0  0  0  0  0  0  0  0  0  0999 V3000
M  V30 BEGIN CTAB
M  V30 COUNTS 31 31 0 0 0
M  V30 BEGIN ATOM
M  V30 1 C 3.17845 -0.797565 0.77247 0
M  V30 2 C 2.28189 0.202538 0.0723537 0
M  V30 3 C 0.865744 -0.321591 0.195413 0
M  V30 4 C -0.150029 0.547744 -0.441442 0
M  V30 5 C -1.52004 0.0689841 -0.111048 0
M  V30 6 C -1.75237 -1.18802 0.378974 0
M  V30 7 C -3.05754 -1.56726 0.678019 0
M  V30 8 C -4.12271 -0.724914 0.497703 0
M  V30 9 N -3.85873 0.497797 0.0144406 0
M  V30 10 C -2.61616 0.907553 -0.287417 0
M  V30 11 N -2.38643 2.20831 -0.797869 0
M  V30 12 O -0.0305999 0.579429 -1.81913 0
M  V30 13 N 0.589472 -0.292864 1.64095 0
M  V30 14 C 2.74167 0.476255 -1.3101 0
M  V30 15 H 3.44477 -0.456002 1.79969 0
M  V30 16 H 2.66013 -1.79688 0.893048 0
M  V30 17 H 4.09962 -1.02216 0.215955 0
M  V30 18 H 2.34311 1.14774 0.658769 0
M  V30 19 H 0.836263 -1.33745 -0.157455 0
M  V30 20 H -0.056637 1.61494 -0.109202 0
M  V30 21 H -0.951093 -1.92871 0.542301 0
M  V30 22 H -3.20733 -2.58425 1.07118 0
M  V30 23 H -5.13868 -1.05786 0.741705 0
M  V30 24 H -2.49767 2.40204 -1.80442 0
M  V30 25 H -2.11082 2.96203 -0.148982 0
M  V30 26 H -0.339735 -0.252315 -2.26882 0
M  V30 27 H 0.559551 0.70053 1.97226 0
M  V30 28 H 1.40138 -0.745919 2.10459 0
M  V30 29 H 2.35554 1.45255 -1.67674 0
M  V30 30 H 3.86859 0.60073 -1.25994 0
M  V30 31 H 2.57038 -0.295424 -2.05725 0
M  V30 END ATOM
M  V30 BEGIN BOND
M  V30 1 1 1 2
M  V30 2 1 2 3
M  V30 3 1 3 4
M  V30 4 1 4 5
M  V30 5 2 5 6
M  V30 6 1 6 7
M  V30 7 2 7 8
M  V30 8 1 8 9
M  V30 9 2 9 10
M  V30 10 1 10 11
M  V30 11 1 4 12
M  V30 12 1 3 13
M  V30 13 1 2 14
M  V30 14 1 10 5
M  V30 15 1 1 15
M  V30 16 1 1 16
M  V30 17 1 1 17
M  V30 18 1 2 18
M  V30 19 1 3 19
M  V30 20 1 4 20
M  V30 21 1 6 21
M  V30 22 1 7 22
M  V30 23 1 8 23
M  V30 24 1 11 24
M  V30 25 1 11 25
M  V30 26 1 12 26
M  V30 27 1 13 27
M  V30 28 1 13 28
M  V30 29 1 14 29
M  V30 30 1 14 30
M  V30 31 1 14 31
M  V30 END BOND
M  V30 END CTAB
M  END
