
     RDKit          3D

  0  0  0  0  0  0  0  0  0  0999 V3000
M  V30 BEGIN CTAB
M  V30 COUNTS 43 46 0 0 0
M  V30 BEGIN ATOM
M  V30 1 N 8.53968 0.291124 0.968028 0
M  V30 2 C 7.47358 0.0700343 0.572242 0
M  V30 3 C 6.13967 -0.225475 0.0555549 0
M  V30 4 C 5.08258 0.430114 0.637284 0
M  V30 5 C 3.77362 0.18509 0.180362 0
M  V30 6 C 3.68684 -0.717987 -0.837833 0
M  V30 7 N 4.75447 -1.35829 -1.40105 0
M  V30 8 C 6.00567 -1.13565 -0.977185 0
M  V30 9 N 7.17535 -1.74123 -1.48739 0
M  V30 10 S 2.01616 -0.786316 -1.14875 0
M  V30 11 C 1.46815 0.333399 0.0215595 0
M  V30 12 C 2.62863 0.732448 0.629181 0
M  V30 13 N 2.54662 1.70244 1.6982 0
M  V30 14 C 0.0797856 0.766881 0.309302 0
M  V30 15 O -0.112787 1.6059 1.21685 0
M  V30 16 N -1.0014 0.238285 -0.431476 0
M  V30 17 C -2.32553 0.666843 -0.140189 0
M  V30 18 C -2.99947 1.33827 -1.33635 0
M  V30 19 C -4.21559 2.0409 -0.760674 0
M  V30 20 C -5.19353 1.13363 -0.106468 0
M  V30 21 C -4.59018 -0.178851 0.249878 0
M  V30 22 C -3.24139 -0.442558 0.248329 0
M  V30 23 C -2.77714 -1.69038 0.594777 0
M  V30 24 C -3.68321 -2.65996 0.939665 0
M  V30 25 C -5.04256 -2.43021 0.951988 0
M  V30 26 C -5.49634 -1.18226 0.604893 0
M  V30 27 H 5.29579 1.12639 1.44289 0
M  V30 28 H 7.35092 -1.82294 -2.51388 0
M  V30 29 H 7.93161 -2.14189 -0.874743 0
M  V30 30 H 2.63117 2.70174 1.50936 0
M  V30 31 H 2.40131 1.34569 2.64424 0
M  V30 32 H -0.815318 -0.455039 -1.17764 0
M  V30 33 H -2.34923 1.40833 0.682563 0
M  V30 34 H -3.26735 0.593844 -2.11163 0
M  V30 35 H -2.33155 2.1086 -1.74147 0
M  V30 36 H -3.82235 2.75839 -0.0128238 0
M  V30 37 H -4.75112 2.58104 -1.59191 0
M  V30 38 H -5.50585 1.59089 0.870368 0
M  V30 39 H -6.10975 0.961956 -0.718768 0
M  V30 40 H -1.70883 -1.84898 0.578513 0
M  V30 41 H -3.34247 -3.65872 1.21881 0
M  V30 42 H -5.73264 -3.24031 1.23612 0
M  V30 43 H -6.56605 -0.995179 0.61271 0
M  V30 END ATOM
M  V30 BEGIN BOND
M  V30 1 3 1 2
M  V30 2 1 2 3
M  V30 3 2 3 4
M  V30 4 1 4 5
M  V30 5 2 5 6
M  V30 6 1 6 7
M  V30 7 2 7 8
M  V30 8 1 8 9
M  V30 9 1 6 10
M  V30 10 1 10 11
M  V30 11 2 11 12
M  V30 12 1 12 13
M  V30 13 1 11 14
M  V30 14 2 14 15
M  V30 15 1 14 16
M  V30 16 1 16 17
M  V30 17 1 17 18
M  V30 18 1 18 19
M  V30 19 1 19 20
M  V30 20 1 20 21
M  V30 21 2 21 22
M  V30 22 1 22 23
M  V30 23 2 23 24
M  V30 24 1 24 25
M  V30 25 2 25 26
M  V30 26 1 8 3
M  V30 27 1 22 17
M  V30 28 1 12 5
M  V30 29 1 26 21
M  V30 30 1 4 27
M  V30 31 1 9 28
M  V30 32 1 9 29
M  V30 33 1 13 30
M  V30 34 1 13 31
M  V30 35 1 16 32
M  V30 36 1 17 33
M  V30 37 1 18 34
M  V30 38 1 18 35
M  V30 39 1 19 36
M  V30 40 1 19 37
M  V30 41 1 20 38
M  V30 42 1 20 39
M  V30 43 1 23 40
M  V30 44 1 24 41
M  V30 45 1 25 42
M  V30 46 1 26 43
M  V30 END BOND
M  V30 END CTAB
M  END
