
     RDKit          3D

  0  0  0  0  0  0  0  0  0  0999 V3000
M  V30 BEGIN CTAB
M  V30 COUNTS 35 35 0 0 0
M  V30 BEGIN ATOM
M  V30 1 N -2.20816 0.688943 1.85959 0
M  V30 2 C -2.02687 -0.549185 1.19046 0
M  V30 3 C -1.40644 -0.52042 -0.158895 0
M  V30 4 C -0.0422376 0.0264777 -0.281053 0
M  V30 5 O 0.371753 -0.0335677 -1.63132 0
M  V30 6 C 0.144367 1.4438 0.140024 0
M  V30 7 C 1.57922 1.88508 -0.178897 0
M  V30 8 C 2.57024 1.06434 0.614384 0
M  V30 9 C 2.35207 -0.386282 0.314632 0
M  V30 10 C 0.915197 -0.837927 0.525119 0
M  V30 11 N 2.81643 -0.751129 -1.00874 0
M  V30 12 C -2.37706 0.0720468 -1.17585 0
M  V30 13 C -1.30338 -2.00218 -0.582192 0
M  V30 14 H -2.3173 1.5123 1.26908 0
M  V30 15 H -2.9156 0.574224 2.60727 0
M  V30 16 H -3.05899 -1.00617 1.09183 0
M  V30 17 H -1.49683 -1.29511 1.84563 0
M  V30 18 H -0.0892436 0.651744 -2.14531 0
M  V30 19 H 0.0809716 1.55323 1.24605 0
M  V30 20 H -0.486577 2.1608 -0.419812 0
M  V30 21 H 1.67579 2.93601 0.162881 0
M  V30 22 H 1.81885 1.7444 -1.25161 0
M  V30 23 H 2.50526 1.25202 1.69901 0
M  V30 24 H 3.57446 1.34423 0.259845 0
M  V30 25 H 2.96094 -0.971327 1.04742 0
M  V30 26 H 0.882042 -1.90232 0.214023 0
M  V30 27 H 0.686331 -0.675593 1.58549 0
M  V30 28 H 3.1631 0.0904582 -1.54349 0
M  V30 29 H 3.51011 -1.53113 -0.99762 0
M  V30 30 H -1.98578 -0.0980682 -2.1928 0
M  V30 31 H -2.58893 1.1247 -0.982868 0
M  V30 32 H -3.3185 -0.518924 -1.0822 0
M  V30 33 H -2.32196 -2.3273 -0.878089 0
M  V30 34 H -0.642937 -2.08444 -1.44473 0
M  V30 35 H -1.02034 -2.63374 0.282727 0
M  V30 END ATOM
M  V30 BEGIN BOND
M  V30 1 1 1 2
M  V30 2 1 2 3
M  V30 3 1 3 4
M  V30 4 1 4 5
M  V30 5 1 4 6
M  V30 6 1 6 7
M  V30 7 1 7 8
M  V30 8 1 8 9
M  V30 9 1 9 10
M  V30 10 1 9 11
M  V30 11 1 3 12
M  V30 12 1 3 13
M  V30 13 1 10 4
M  V30 14 1 1 14
M  V30 15 1 1 15
M  V30 16 1 2 16
M  V30 17 1 2 17
M  V30 18 1 5 18
M  V30 19 1 6 19
M  V30 20 1 6 20
M  V30 21 1 7 21
M  V30 22 1 7 22
M  V30 23 1 8 23
M  V30 24 1 8 24
M  V30 25 1 9 25
M  V30 26 1 10 26
M  V30 27 1 10 27
M  V30 28 1 11 28
M  V30 29 1 11 29
M  V30 30 1 12 30
M  V30 31 1 12 31
M  V30 32 1 12 32
M  V30 33 1 13 33
M  V30 34 1 13 34
M  V30 35 1 13 35
M  V30 END BOND
M  V30 END CTAB
M  END
