
     RDKit          3D

  0  0  0  0  0  0  0  0  0  0999 V3000
M  V30 BEGIN CTAB
M  V30 COUNTS 26 26 0 0 0
M  V30 BEGIN ATOM
M  V30 1 C 3.80694 0.658325 0.204415 0
M  V30 2 C 3.26463 -0.719823 -0.107957 0
M  V30 3 C 1.82856 -0.833415 0.342378 0
M  V30 4 O 1.04334 0.119763 -0.31777 0
M  V30 5 C -0.318875 0.254071 -0.106645 0
M  V30 6 C -1.18301 -0.47621 -0.895443 0
M  V30 7 N -0.634087 -1.33028 -1.88554 0
M  V30 8 C -2.55058 -0.358061 -0.702387 0
M  V30 9 C -3.07905 0.472987 0.26089 0
M  V30 10 C -2.21488 1.19899 1.04485 0
M  V30 11 C -0.856496 1.08639 0.858466 0
M  V30 12 F -0.0276697 1.80239 1.63264 0
M  V30 13 Cl -2.90872 2.2596 2.27505 0
M  V30 14 N -4.50737 0.579137 0.442992 0
M  V30 15 H 4.40849 1.05497 -0.64059 0
M  V30 16 H 4.46405 0.647184 1.10473 0
M  V30 17 H 2.93913 1.31509 0.40898 0
M  V30 18 H 3.37456 -0.869324 -1.19838 0
M  V30 19 H 3.90511 -1.44878 0.401268 0
M  V30 20 H 1.4576 -1.86107 0.278729 0
M  V30 21 H 1.81833 -0.558733 1.43218 0
M  V30 22 H -0.841899 -1.18963 -2.89217 0
M  V30 23 H -0.0123829 -2.11234 -1.60624 0
M  V30 24 H -3.21 -0.939521 -1.33167 0
M  V30 25 H -4.97657 -0.196619 0.922198 0
M  V30 26 H -4.98916 1.44491 0.0750167 0
M  V30 END ATOM
M  V30 BEGIN BOND
M  V30 1 1 1 2
M  V30 2 1 2 3
M  V30 3 1 3 4
M  V30 4 1 4 5
M  V30 5 2 5 6
M  V30 6 1 6 7
M  V30 7 1 6 8
M  V30 8 2 8 9
M  V30 9 1 9 10
M  V30 10 2 10 11
M  V30 11 1 11 12
M  V30 12 1 10 13
M  V30 13 1 9 14
M  V30 14 1 11 5
M  V30 15 1 1 15
M  V30 16 1 1 16
M  V30 17 1 1 17
M  V30 18 1 2 18
M  V30 19 1 2 19
M  V30 20 1 3 20
M  V30 21 1 3 21
M  V30 22 1 7 22
M  V30 23 1 7 23
M  V30 24 1 8 24
M  V30 25 1 14 25
M  V30 26 1 14 26
M  V30 END BOND
M  V30 END CTAB
M  END
