
     RDKit          3D

  0  0  0  0  0  0  0  0  0  0999 V3000
M  V30 BEGIN CTAB
M  V30 COUNTS 27 27 0 0 0
M  V30 BEGIN ATOM
M  V30 1 N 2.42431 -0.0886053 1.55377 0
M  V30 2 C 1.70441 -1.31734 1.44339 0
M  V30 3 C 0.29326 -1.05676 0.973442 0
M  V30 4 N 0.20585 -0.426624 -0.289737 0
M  V30 5 S 0.164971 -1.58584 -1.58765 0
M  V30 6 O 0.872208 -1.09967 -2.79738 0
M  V30 7 O 0.861882 -2.81981 -1.08789 0
M  V30 8 N -1.46174 -2.0066 -1.92221 0
M  V30 9 C -0.717711 0.620745 -0.473552 0
M  V30 10 C -1.51278 1.19401 0.625312 0
M  V30 11 C -1.24446 2.62976 0.106148 0
M  V30 12 C -0.00473103 1.99527 -0.55956 0
M  V30 13 H 2.89934 0.0580035 2.46735 0
M  V30 14 H 3.02056 0.136379 0.731447 0
M  V30 15 H 2.26352 -1.97884 0.754477 0
M  V30 16 H 1.72567 -1.81414 2.43298 0
M  V30 17 H -0.26586 -0.546026 1.7628 0
M  V30 18 H -0.18282 -2.06407 0.870305 0
M  V30 19 H -1.85194 -1.39991 -2.67768 0
M  V30 20 H -2.07013 -1.98323 -1.0742 0
M  V30 21 H -1.345 0.554696 -1.40656 0
M  V30 22 H -2.6148 1.04547 0.561792 0
M  V30 23 H -1.1469 1.17982 1.66046 0
M  V30 24 H -1.96376 2.97563 -0.633803 0
M  V30 25 H -1.02386 3.36646 0.874952 0
M  V30 26 H 0.145981 2.35725 -1.57718 0
M  V30 27 H 0.824534 2.07397 0.1555 0
M  V30 END ATOM
M  V30 BEGIN BOND
M  V30 1 1 1 2
M  V30 2 1 2 3
M  V30 3 1 3 4
M  V30 4 1 4 5
M  V30 5 2 5 6
M  V30 6 2 5 7
M  V30 7 1 5 8
M  V30 8 1 4 9
M  V30 9 1 9 10
M  V30 10 1 10 11
M  V30 11 1 11 12
M  V30 12 1 12 9
M  V30 13 1 1 13
M  V30 14 1 1 14
M  V30 15 1 2 15
M  V30 16 1 2 16
M  V30 17 1 3 17
M  V30 18 1 3 18
M  V30 19 1 8 19
M  V30 20 1 8 20
M  V30 21 1 9 21
M  V30 22 1 10 22
M  V30 23 1 10 23
M  V30 24 1 11 24
M  V30 25 1 11 25
M  V30 26 1 12 26
M  V30 27 1 12 27
M  V30 END BOND
M  V30 END CTAB
M  END
