
     RDKit          3D

  0  0  0  0  0  0  0  0  0  0999 V3000
M  V30 BEGIN CTAB
M  V30 COUNTS 25 25 0 0 0
M  V30 BEGIN ATOM
M  V30 1 N 2.42428 1.46716 -0.751412 0
M  V30 2 C 1.96355 0.889288 0.472766 0
M  V30 3 C 1.74796 -0.605599 0.344597 0
M  V30 4 C 0.721739 -0.937578 -0.714279 0
M  V30 5 N 0.605983 -2.39214 -0.739902 0
M  V30 6 C -0.595721 -0.319179 -0.411063 0
M  V30 7 C -1.03863 0.764965 -1.14183 0
M  V30 8 C -2.2668 1.36908 -0.885413 0
M  V30 9 C -3.07157 0.880188 0.123396 0
M  V30 10 C -2.65523 -0.195105 0.863717 0
M  V30 11 C -1.43091 -0.778592 0.590303 0
M  V30 12 H 2.58352 0.813757 -1.52317 0
M  V30 13 H 3.22656 2.0949 -0.573176 0
M  V30 14 H 2.73064 1.03222 1.25316 0
M  V30 15 H 1.03385 1.35734 0.847693 0
M  V30 16 H 2.7135 -1.07955 0.0856333 0
M  V30 17 H 1.41097 -0.99292 1.31456 0
M  V30 18 H 1.0233 -0.620873 -1.71721 0
M  V30 19 H 0.721294 -2.71504 0.246184 0
M  V30 20 H -0.385669 -2.59134 -1.03603 0
M  V30 21 H -0.452177 1.19244 -1.94465 0
M  V30 22 H -2.58042 2.2284 -1.48992 0
M  V30 23 H -4.02142 1.3236 0.344358 0
M  V30 24 H -3.30701 -0.564273 1.65528 0
M  V30 25 H -1.10157 -1.62116 1.16836 0
M  V30 END ATOM
M  V30 BEGIN BOND
M  V30 1 1 1 2
M  V30 2 1 2 3
M  V30 3 1 3 4
M  V30 4 1 4 5
M  V30 5 1 4 6
M  V30 6 2 6 7
M  V30 7 1 7 8
M  V30 8 2 8 9
M  V30 9 1 9 10
M  V30 10 2 10 11
M  V30 11 1 11 6
M  V30 12 1 1 12
M  V30 13 1 1 13
M  V30 14 1 2 14
M  V30 15 1 2 15
M  V30 16 1 3 16
M  V30 17 1 3 17
M  V30 18 1 4 18
M  V30 19 1 5 19
M  V30 20 1 5 20
M  V30 21 1 7 21
M  V30 22 1 8 22
M  V30 23 1 9 23
M  V30 24 1 10 24
M  V30 25 1 11 25
M  V30 END BOND
M  V30 END CTAB
M  END
