
     RDKit          3D

  0  0  0  0  0  0  0  0  0  0999 V3000
M  V30 BEGIN CTAB
M  V30 COUNTS 26 27 0 0 0
M  V30 BEGIN ATOM
M  V30 1 C -3.37743 -1.64456 0.656752 0
M  V30 2 C -2.17523 -0.811586 0.374669 0
M  V30 3 N -0.883627 -1.1864 0.326188 0
M  V30 4 N -0.0843126 -0.170858 0.0460518 0
M  V30 5 C -0.84121 0.924522 -0.101129 0
M  V30 6 N -0.43373 2.25173 -0.406247 0
M  V30 7 C -2.15204 0.551925 0.0990555 0
M  V30 8 N -3.333 1.3441 0.05325 0
M  V30 9 C 1.3522 -0.249691 -0.0756605 0
M  V30 10 C 1.92911 -1.34538 -0.683531 0
M  V30 11 C 3.2772 -1.49996 -0.840111 0
M  V30 12 C 4.12318 -0.496822 -0.36042 0
M  V30 13 C 3.56326 0.596177 0.245088 0
M  V30 14 C 2.18011 0.72686 0.391077 0
M  V30 15 H -4.25436 -1.28433 0.0572894 0
M  V30 16 H -3.22592 -2.70023 0.33685 0
M  V30 17 H -3.66631 -1.64532 1.71327 0
M  V30 18 H -0.195858 2.51634 -1.39211 0
M  V30 19 H -0.362177 2.98498 0.332146 0
M  V30 20 H -3.40821 2.14504 -0.611336 0
M  V30 21 H -4.16053 1.16808 0.665746 0
M  V30 22 H 1.25843 -2.11268 -1.04911 0
M  V30 23 H 3.66202 -2.38221 -1.3251 0
M  V30 24 H 5.18167 -0.642586 -0.496174 0
M  V30 25 H 4.2378 1.37116 0.614504 0
M  V30 26 H 1.78896 1.59169 0.867287 0
M  V30 END ATOM
M  V30 BEGIN BOND
M  V30 1 1 1 2
M  V30 2 2 2 3
M  V30 3 1 3 4
M  V30 4 1 4 5
M  V30 5 1 5 6
M  V30 6 2 5 7
M  V30 7 1 7 8
M  V30 8 1 4 9
M  V30 9 2 9 10
M  V30 10 1 10 11
M  V30 11 2 11 12
M  V30 12 1 12 13
M  V30 13 2 13 14
M  V30 14 1 7 2
M  V30 15 1 14 9
M  V30 16 1 1 15
M  V30 17 1 1 16
M  V30 18 1 1 17
M  V30 19 1 6 18
M  V30 20 1 6 19
M  V30 21 1 8 20
M  V30 22 1 8 21
M  V30 23 1 10 22
M  V30 24 1 11 23
M  V30 25 1 12 24
M  V30 26 1 13 25
M  V30 27 1 14 26
M  V30 END BOND
M  V30 END CTAB
M  END
