
     RDKit          3D

  0  0  0  0  0  0  0  0  0  0999 V3000
M  V30 BEGIN CTAB
M  V30 COUNTS 27 28 0 0 0
M  V30 BEGIN ATOM
M  V30 1 N 3.94501 1.63589 -0.000341114 0
M  V30 2 C 2.74601 0.869551 0.00982187 0
M  V30 3 C 1.4941 1.45237 0.0131726 0
M  V30 4 C 0.32849 0.715213 0.0230082 0
M  V30 5 C 0.457555 -0.665289 0.0295905 0
M  V30 6 O -0.681964 -1.47995 0.0396979 0
M  V30 7 C -1.94783 -0.884935 0.0430184 0
M  V30 8 C -2.59776 -0.570481 1.21205 0
M  V30 9 C -3.84594 0.0159556 1.1809 0
M  V30 10 C -4.41881 0.275806 -0.0469064 0
M  V30 11 C -3.76188 -0.0419174 -1.21351 0
M  V30 12 Br -4.62156 0.349303 -2.88941 0
M  V30 13 C -2.5013 -0.634303 -1.19778 0
M  V30 14 C 1.68488 -1.28434 0.0265556 0
M  V30 15 C 2.8462 -0.520006 0.0165997 0
M  V30 16 N 4.14471 -1.10601 0.0130197 0
M  V30 17 H 4.66104 1.51585 0.752392 0
M  V30 18 H 4.11667 2.31401 -0.748401 0
M  V30 19 H 1.43856 2.52728 0.0078121 0
M  V30 20 H -0.664461 1.18694 0.0256234 0
M  V30 21 H -2.08423 -0.80477 2.1354 0
M  V30 22 H -4.36534 0.267271 2.11736 0
M  V30 23 H -5.41319 0.743148 -0.0519756 0
M  V30 24 H -2.00113 -0.876556 -2.13167 0
M  V30 25 H 1.81356 -2.35087 0.0314928 0
M  V30 26 H 4.27403 -2.08048 -0.356093 0
M  V30 27 H 4.95458 -0.568672 0.374194 0
M  V30 END ATOM
M  V30 BEGIN BOND
M  V30 1 1 1 2
M  V30 2 2 2 3
M  V30 3 1 3 4
M  V30 4 2 4 5
M  V30 5 1 5 6
M  V30 6 1 6 7
M  V30 7 2 7 8
M  V30 8 1 8 9
M  V30 9 2 9 10
M  V30 10 1 10 11
M  V30 11 1 11 12
M  V30 12 2 11 13
M  V30 13 1 5 14
M  V30 14 2 14 15
M  V30 15 1 15 16
M  V30 16 1 15 2
M  V30 17 1 13 7
M  V30 18 1 1 17
M  V30 19 1 1 18
M  V30 20 1 3 19
M  V30 21 1 4 20
M  V30 22 1 8 21
M  V30 23 1 9 22
M  V30 24 1 10 23
M  V30 25 1 13 24
M  V30 26 1 14 25
M  V30 27 1 16 26
M  V30 28 1 16 27
M  V30 END BOND
M  V30 END CTAB
M  END
