
     RDKit          3D

  0  0  0  0  0  0  0  0  0  0999 V3000
M  V30 BEGIN CTAB
M  V30 COUNTS 30 33 0 0 0
M  V30 BEGIN ATOM
M  V30 1 N 6.72238 -0.337776 0.114817 0
M  V30 2 C 5.32152 -0.146364 0.251527 0
M  V30 3 N 4.33375 -0.805045 -0.399031 0
M  V30 4 C 3.13094 -0.353291 -0.011479 0
M  V30 5 C 3.4217 0.637655 0.930116 0
M  V30 6 O 4.71164 0.71262 1.04075 0
M  V30 7 C 2.3863 1.32458 1.54422 0
M  V30 8 C 1.08906 1.01717 1.21433 0
M  V30 9 C 0.765903 0.0504737 0.294554 0
M  V30 10 C 1.80986 -0.62199 -0.305591 0
M  V30 11 C -0.627423 -0.221922 -0.00580395 0
M  V30 12 C -1.57149 0.79971 0.0535254 0
M  V30 13 C -2.92449 0.559963 -0.232132 0
M  V30 14 C -3.38231 -0.679412 -0.580741 0
M  V30 15 C -2.43117 -1.71383 -0.641559 0
M  V30 16 C -1.13283 -1.45203 -0.360574 0
M  V30 17 N -4.66473 -0.799145 -0.828301 0
M  V30 18 C -5.45287 0.253174 -0.735592 0
M  V30 19 N -6.87532 0.271019 -0.977458 0
M  V30 20 S -4.36142 1.48393 -0.279381 0
M  V30 21 H 7.18668 -0.194426 -0.783957 0
M  V30 22 H 7.27077 -0.625266 0.940143 0
M  V30 23 H 2.58498 2.10521 2.28487 0
M  V30 24 H 0.286872 1.55123 1.69131 0
M  V30 25 H 1.61085 -1.38712 -1.03189 0
M  V30 26 H -1.32811 1.81338 0.315756 0
M  V30 27 H -2.71456 -2.7353 -0.912689 0
M  V30 28 H -0.417233 -2.26312 -0.413261 0
M  V30 29 H -7.56197 0.19742 -0.208121 0
M  V30 30 H -7.18728 0.362252 -1.96834 0
M  V30 END ATOM
M  V30 BEGIN BOND
M  V30 1 1 1 2
M  V30 2 2 2 3
M  V30 3 1 3 4
M  V30 4 2 4 5
M  V30 5 1 5 6
M  V30 6 1 5 7
M  V30 7 2 7 8
M  V30 8 1 8 9
M  V30 9 2 9 10
M  V30 10 1 9 11
M  V30 11 2 11 12
M  V30 12 1 12 13
M  V30 13 2 13 14
M  V30 14 1 14 15
M  V30 15 2 15 16
M  V30 16 1 14 17
M  V30 17 2 17 18
M  V30 18 1 18 19
M  V30 19 1 18 20
M  V30 20 1 6 2
M  V30 21 1 16 11
M  V30 22 1 10 4
M  V30 23 1 20 13
M  V30 24 1 1 21
M  V30 25 1 1 22
M  V30 26 1 7 23
M  V30 27 1 8 24
M  V30 28 1 10 25
M  V30 29 1 12 26
M  V30 30 1 15 27
M  V30 31 1 16 28
M  V30 32 1 19 29
M  V30 33 1 19 30
M  V30 END BOND
M  V30 END CTAB
M  END
