
     RDKit          3D

  0  0  0  0  0  0  0  0  0  0999 V3000
M  V30 BEGIN CTAB
M  V30 COUNTS 65 68 0 0 0
M  V30 BEGIN ATOM
M  V30 1 N -10.7662 -0.471098 1.57908 0
M  V30 2 C -9.54346 0.175215 1.99772 0
M  V30 3 N -9.56381 0.870083 3.06642 0
M  V30 4 C -8.33218 0.0382453 1.22762 0
M  V30 5 C -7.1616 0.635677 1.59583 0
M  V30 6 C -6.01492 0.465896 0.805693 0
M  V30 7 C -6.04645 -0.296585 -0.341908 0
M  V30 8 O -4.90025 -0.448984 -1.10532 0
M  V30 9 C -4.92825 -1.21547 -2.26067 0
M  V30 10 C -3.61951 -1.27111 -2.95189 0
M  V30 11 C -3.07743 0.0279878 -3.42016 0
M  V30 12 C -2.75176 1.02166 -2.36806 0
M  V30 13 C -1.66162 0.443243 -1.4526 0
M  V30 14 C -1.38959 1.48689 -0.414601 0
M  V30 15 O -0.452073 1.22618 0.534741 0
M  V30 16 C 0.892299 1.00435 0.468164 0
M  V30 17 C 1.62236 1.0295 -0.693778 0
M  V30 18 C 3.00417 0.790133 -0.703897 0
M  V30 19 C 3.66919 0.523962 0.449164 0
M  V30 20 C 2.95744 0.494009 1.62987 0
M  V30 21 C 1.61241 0.725806 1.64594 0
M  V30 22 C 5.11298 0.267794 0.484968 0
M  V30 23 C 5.86909 -0.00938773 1.60119 0
M  V30 24 C 7.17751 -0.186405 1.21061 0
M  V30 25 C 8.36016 -0.479792 1.88107 0
M  V30 26 C 9.56178 -0.603473 1.22399 0
M  V30 27 C 9.53404 -0.418286 -0.159901 0
M  V30 28 C 8.36588 -0.127369 -0.83077 0
M  V30 29 C 7.1695 -0.00692 -0.155896 0
M  V30 30 O 5.94341 0.256936 -0.541697 0
M  V30 31 C 10.8263 -0.909133 1.87916 0
M  V30 32 N 12.0246 -1.01672 1.10352 0
M  V30 33 N 10.9589 -1.09667 3.14049 0
M  V30 34 C -7.22952 -0.905558 -0.721926 0
M  V30 35 C -8.34238 -0.73058 0.060461 0
M  V30 36 H -11.6742 0.0234838 1.59852 0
M  V30 37 H -10.7066 -1.46216 1.25288 0
M  V30 38 H -8.80616 1.38659 3.5027 0
M  V30 39 H -7.09136 1.24788 2.49644 0
M  V30 40 H -5.10741 0.943699 1.11346 0
M  V30 41 H -5.34386 -2.23174 -2.04702 0
M  V30 42 H -5.65881 -0.76231 -2.99954 0
M  V30 43 H -2.88357 -1.80859 -2.29272 0
M  V30 44 H -3.73958 -1.96498 -3.84242 0
M  V30 45 H -3.70085 0.466208 -4.24363 0
M  V30 46 H -2.10175 -0.207805 -3.95853 0
M  V30 47 H -3.56532 1.36998 -1.72993 0
M  V30 48 H -2.23442 1.90343 -2.85496 0
M  V30 49 H -0.82158 0.166908 -2.09345 0
M  V30 50 H -2.09724 -0.432258 -0.926558 0
M  V30 51 H -2.38656 1.64855 0.110227 0
M  V30 52 H -1.20606 2.49516 -0.891704 0
M  V30 53 H 1.11801 1.25851 -1.63722 0
M  V30 54 H 3.52266 0.8218 -1.63944 0
M  V30 55 H 3.49354 0.279712 2.55983 0
M  V30 56 H 1.04382 0.705084 2.56461 0
M  V30 57 H 5.50178 -0.0766056 2.60791 0
M  V30 58 H 8.32001 -0.611654 2.94653 0
M  V30 59 H 10.4545 -0.505237 -0.722955 0
M  V30 60 H 8.3439 0.0180026 -1.91691 0
M  V30 61 H 12.2419 -1.95122 0.718579 0
M  V30 62 H 12.5886 -0.166836 0.978813 0
M  V30 63 H 10.1226 -1.02991 3.74573 0
M  V30 64 H -7.24485 -1.50689 -1.63139 0
M  V30 65 H -9.26206 -1.20104 -0.230472 0
M  V30 END ATOM
M  V30 BEGIN BOND
M  V30 1 1 1 2
M  V30 2 2 2 3 CFG=2
M  V30 3 1 2 4
M  V30 4 2 4 5
M  V30 5 1 5 6
M  V30 6 2 6 7
M  V30 7 1 7 8
M  V30 8 1 8 9
M  V30 9 1 9 10
M  V30 10 1 10 11
M  V30 11 1 11 12
M  V30 12 1 12 13
M  V30 13 1 13 14
M  V30 14 1 14 15
M  V30 15 1 15 16
M  V30 16 2 16 17
M  V30 17 1 17 18
M  V30 18 2 18 19
M  V30 19 1 19 20
M  V30 20 2 20 21
M  V30 21 1 19 22
M  V30 22 2 22 23
M  V30 23 1 23 24
M  V30 24 2 24 25
M  V30 25 1 25 26
M  V30 26 2 26 27
M  V30 27 1 27 28
M  V30 28 2 28 29
M  V30 29 1 29 30
M  V30 30 1 26 31
M  V30 31 1 31 32
M  V30 32 2 31 33 CFG=2
M  V30 33 1 7 34
M  V30 34 2 34 35
M  V30 35 1 35 4
M  V30 36 1 21 16
M  V30 37 1 30 22
M  V30 38 1 29 24
M  V30 39 1 1 36
M  V30 40 1 1 37
M  V30 41 1 3 38
M  V30 42 1 5 39
M  V30 43 1 6 40
M  V30 44 1 9 41
M  V30 45 1 9 42
M  V30 46 1 10 43
M  V30 47 1 10 44
M  V30 48 1 11 45
M  V30 49 1 11 46
M  V30 50 1 12 47
M  V30 51 1 12 48
M  V30 52 1 13 49
M  V30 53 1 13 50
M  V30 54 1 14 51
M  V30 55 1 14 52
M  V30 56 1 17 53
M  V30 57 1 18 54
M  V30 58 1 20 55
M  V30 59 1 21 56
M  V30 60 1 23 57
M  V30 61 1 25 58
M  V30 62 1 27 59
M  V30 63 1 28 60
M  V30 64 1 32 61
M  V30 65 1 32 62
M  V30 66 1 33 63
M  V30 67 1 34 64
M  V30 68 1 35 65
M  V30 END BOND
M  V30 END CTAB
M  END
