
     RDKit          3D

  0  0  0  0  0  0  0  0  0  0999 V3000
M  V30 BEGIN CTAB
M  V30 COUNTS 26 27 0 0 0
M  V30 BEGIN ATOM
M  V30 1 N -2.60326 -2.21292 -0.302166 0
M  V30 2 C -1.74996 -1.06969 -0.107291 0
M  V30 3 C -0.411806 -1.15935 -0.319027 0
M  V30 4 C 0.447925 -0.0701823 -0.139891 0
M  V30 5 N 1.82371 -0.26952 -0.387352 0
M  V30 6 C 2.74099 -0.629518 0.524407 0
M  V30 7 C 3.99042 -0.729902 -0.0965805 0
M  V30 8 N 3.78284 -0.421082 -1.38897 0
M  V30 9 C 2.47596 -0.145398 -1.55479 0
M  V30 10 C -0.114002 1.11572 0.264616 0
M  V30 11 C -1.47323 1.20618 0.479514 0
M  V30 12 C -2.30961 0.121118 0.298232 0
M  V30 13 N -3.70996 0.219556 0.521055 0
M  V30 14 C 0.767675 2.28888 0.464217 0
M  V30 15 F 1.44909 2.66282 -0.670183 0
M  V30 16 F -0.0384007 3.38453 0.789097 0
M  V30 17 F 1.60499 2.08676 1.55095 0
M  V30 18 H -2.32419 -3.01856 -0.898034 0
M  V30 19 H -3.5228 -2.23077 0.166777 0
M  V30 20 H 0.0124908 -2.10364 -0.637861 0
M  V30 21 H 2.58889 -0.82341 1.58463 0
M  V30 22 H 4.92689 -1.00715 0.402961 0
M  V30 23 H 2.01407 0.139936 -2.51104 0
M  V30 24 H -1.94201 2.13287 0.799749 0
M  V30 25 H -4.26024 0.765342 -0.175707 0
M  V30 26 H -4.16648 -0.23261 1.34269 0
M  V30 END ATOM
M  V30 BEGIN BOND
M  V30 1 1 1 2
M  V30 2 2 2 3
M  V30 3 1 3 4
M  V30 4 1 4 5
M  V30 5 1 5 6
M  V30 6 2 6 7
M  V30 7 1 7 8
M  V30 8 2 8 9
M  V30 9 2 4 10
M  V30 10 1 10 11
M  V30 11 2 11 12
M  V30 12 1 12 13
M  V30 13 1 10 14
M  V30 14 1 14 15
M  V30 15 1 14 16
M  V30 16 1 14 17
M  V30 17 1 12 2
M  V30 18 1 9 5
M  V30 19 1 1 18
M  V30 20 1 1 19
M  V30 21 1 3 20
M  V30 22 1 6 21
M  V30 23 1 7 22
M  V30 24 1 9 23
M  V30 25 1 11 24
M  V30 26 1 13 25
M  V30 27 1 13 26
M  V30 END BOND
M  V30 END CTAB
M  END
