
     RDKit          3D

  0  0  0  0  0  0  0  0  0  0999 V3000
M  V30 BEGIN CTAB
M  V30 COUNTS 39 40 0 0 0
M  V30 BEGIN ATOM
M  V30 1 N -2.39724 -3.00144 -1.86695 0
M  V30 2 C -2.69087 -1.89662 -1.02906 0
M  V30 3 C -3.63973 -2.06213 -0.0294754 0
M  V30 4 C -3.91346 -0.989809 0.778167 0
M  V30 5 C -3.26468 0.238035 0.611726 0
M  V30 6 C -2.31896 0.402349 -0.386941 0
M  V30 7 C -2.04506 -0.668881 -1.1933 0
M  V30 8 N -1.68725 1.69478 -0.578009 0
M  V30 9 C -0.292937 1.80687 -0.363384 0
M  V30 10 S 0.497894 3.22535 -0.616233 0
M  V30 11 N 0.520395 0.707029 0.0825865 0
M  V30 12 C 1.91706 0.791678 0.294074 0
M  V30 13 O 2.49822 1.88206 0.0835296 0
M  V30 14 C 2.68348 -0.359895 0.746816 0
M  V30 15 C 2.08918 -1.58576 1.02355 0
M  V30 16 C 2.86431 -2.65818 1.46402 0
M  V30 17 C 4.22826 -2.53833 1.63787 0
M  V30 18 C 4.7797 -1.3085 1.35353 0
M  V30 19 C 4.06572 -0.225662 0.918461 0
M  V30 20 N 4.71942 1.00445 0.640187 0
M  V30 21 C -2.50936 2.76855 -0.982332 0
M  V30 22 O -3.75979 2.50835 -1.1201 0
M  V30 23 C -2.11398 4.14568 -1.26538 0
M  V30 24 H -1.79122 -2.92424 -2.71634 0
M  V30 25 H -2.78093 -3.94623 -1.66202 0
M  V30 26 H -4.14243 -3.02679 0.0902542 0
M  V30 27 H -4.65719 -1.06312 1.58421 0
M  V30 28 H -3.48001 1.08612 1.25051 0
M  V30 29 H -1.29053 -0.561032 -1.99072 0
M  V30 30 H -0.00558127 -0.181252 0.257259 0
M  V30 31 H 1.0203 -1.72181 0.899815 0
M  V30 32 H 2.41395 -3.6155 1.68082 0
M  V30 33 H 4.8302 -3.36684 1.97881 0
M  V30 34 H 5.85997 -1.15912 1.47397 0
M  V30 35 H 4.62191 1.83219 1.27111 0
M  V30 36 H 5.32453 1.1341 -0.198882 0
M  V30 37 H -3.01746 4.76708 -1.5876 0
M  V30 38 H -1.44005 4.18507 -2.14945 0
M  V30 39 H -1.69579 4.6814 -0.385105 0
M  V30 END ATOM
M  V30 BEGIN BOND
M  V30 1 1 1 2
M  V30 2 2 2 3
M  V30 3 1 3 4
M  V30 4 2 4 5
M  V30 5 1 5 6
M  V30 6 2 6 7
M  V30 7 1 6 8
M  V30 8 1 8 9
M  V30 9 2 9 10
M  V30 10 1 9 11
M  V30 11 1 11 12
M  V30 12 2 12 13
M  V30 13 1 12 14
M  V30 14 2 14 15
M  V30 15 1 15 16
M  V30 16 2 16 17
M  V30 17 1 17 18
M  V30 18 2 18 19
M  V30 19 1 19 20
M  V30 20 1 8 21
M  V30 21 2 21 22
M  V30 22 1 21 23
M  V30 23 1 7 2
M  V30 24 1 19 14
M  V30 25 1 1 24
M  V30 26 1 1 25
M  V30 27 1 3 26
M  V30 28 1 4 27
M  V30 29 1 5 28
M  V30 30 1 7 29
M  V30 31 1 11 30
M  V30 32 1 15 31
M  V30 33 1 16 32
M  V30 34 1 17 33
M  V30 35 1 18 34
M  V30 36 1 20 35
M  V30 37 1 20 36
M  V30 38 1 23 37
M  V30 39 1 23 38
M  V30 40 1 23 39
M  V30 END BOND
M  V30 END CTAB
M  END
