
     RDKit          3D

  0  0  0  0  0  0  0  0  0  0999 V3000
M  V30 BEGIN CTAB
M  V30 COUNTS 38 39 0 0 0
M  V30 BEGIN ATOM
M  V30 1 N -6.60745 1.51486 -0.0370865 0
M  V30 2 C -5.19302 1.84268 -0.192919 0
M  V30 3 C -4.46572 0.565086 -0.269725 0
M  V30 4 C -4.97149 -0.507562 -0.945429 0
M  V30 5 C -4.29544 -1.69234 -0.986381 0
M  V30 6 C -3.1157 -1.8322 -0.362366 0
M  V30 7 C -2.55409 -0.753709 0.349882 0
M  V30 8 C -3.23557 0.422735 0.381236 0
M  V30 9 C -1.32649 -0.986206 1.12305 0
M  V30 10 N -0.125896 -1.28389 0.429802 0
M  V30 11 C 1.03 -0.445151 0.539072 0
M  V30 12 O 0.997968 0.557338 1.2515 0
M  V30 13 N 2.18045 -0.832084 -0.179943 0
M  V30 14 C 3.48516 -0.274934 -0.180479 0
M  V30 15 C 4.47576 -0.966987 -0.890273 0
M  V30 16 C 5.75728 -0.526908 -0.903934 0
M  V30 17 C 6.15077 0.618663 -0.223935 0
M  V30 18 C 5.16338 1.2813 0.462871 0
M  V30 19 C 3.85779 0.852548 0.491622 0
M  V30 20 Cl 5.64398 2.75348 1.33459 0
M  V30 21 N 7.5124 1.00884 -0.265887 0
M  V30 22 H -6.64735 0.585383 0.46738 0
M  V30 23 H -7.06988 2.24269 0.548821 0
M  V30 24 H -5.02349 2.48132 -1.10877 0
M  V30 25 H -4.86524 2.44377 0.671882 0
M  V30 26 H -5.93876 -0.404315 -1.45898 0
M  V30 27 H -4.75661 -2.50792 -1.53895 0
M  V30 28 H -2.52788 -2.7409 -0.356892 0
M  V30 29 H -2.86727 1.29958 0.905374 0
M  V30 30 H -1.51158 -1.7044 1.95389 0
M  V30 31 H -1.1399 0.013709 1.65522 0
M  V30 32 H -0.0206195 -2.13038 -0.212641 0
M  V30 33 H 2.06726 -1.67698 -0.871867 0
M  V30 34 H 4.24011 -1.88547 -1.45599 0
M  V30 35 H 6.49213 -1.10393 -1.46675 0
M  V30 36 H 3.14877 1.4375 1.06077 0
M  V30 37 H 7.86757 1.77963 0.359826 0
M  V30 38 H 8.18868 0.555148 -0.891323 0
M  V30 END ATOM
M  V30 BEGIN BOND
M  V30 1 1 1 2
M  V30 2 1 2 3
M  V30 3 2 3 4
M  V30 4 1 4 5
M  V30 5 2 5 6
M  V30 6 1 6 7
M  V30 7 2 7 8
M  V30 8 1 7 9
M  V30 9 1 9 10
M  V30 10 1 10 11
M  V30 11 2 11 12
M  V30 12 1 11 13
M  V30 13 1 13 14
M  V30 14 2 14 15
M  V30 15 1 15 16
M  V30 16 2 16 17
M  V30 17 1 17 18
M  V30 18 2 18 19
M  V30 19 1 18 20
M  V30 20 1 17 21
M  V30 21 1 8 3
M  V30 22 1 19 14
M  V30 23 1 1 22
M  V30 24 1 1 23
M  V30 25 1 2 24
M  V30 26 1 2 25
M  V30 27 1 4 26
M  V30 28 1 5 27
M  V30 29 1 6 28
M  V30 30 1 8 29
M  V30 31 1 9 30
M  V30 32 1 9 31
M  V30 33 1 10 32
M  V30 34 1 13 33
M  V30 35 1 15 34
M  V30 36 1 16 35
M  V30 37 1 19 36
M  V30 38 1 21 37
M  V30 39 1 21 38
M  V30 END BOND
M  V30 END CTAB
M  END
