
     RDKit          3D

  0  0  0  0  0  0  0  0  0  0999 V3000
M  V30 BEGIN CTAB
M  V30 COUNTS 31 30 0 0 0
M  V30 BEGIN ATOM
M  V30 1 C -0.393308 0.983441 1.11062 0
M  V30 2 C -0.853359 -0.070314 0.173811 0
M  V30 3 C -0.992274 0.475285 -1.25686 0
M  V30 4 S 0.286295 -1.42294 0.0968276 0
M  V30 5 C 1.77468 -1.21515 -0.783666 0
M  V30 6 C 2.83165 -0.27593 -0.338923 0
M  V30 7 N 2.47983 1.10508 -0.288845 0
M  V30 8 C 3.51309 -0.732277 0.908779 0
M  V30 9 O 3.73883 0.150039 1.94994 0
M  V30 10 O 3.89921 -1.91438 1.0549 0
M  V30 11 C -2.26758 -0.525361 0.522967 0
M  V30 12 N -2.64614 -1.59184 -0.433603 0
M  V30 13 C -3.24678 0.546616 0.364228 0
M  V30 14 O -4.27768 0.366374 -0.580099 0
M  V30 15 O -3.30233 1.63963 0.968977 0
M  V30 16 H 0.461157 0.610769 1.75139 0
M  V30 17 H -1.16662 1.1949 1.92388 0
M  V30 18 H -0.203975 1.94294 0.649027 0
M  V30 19 H -0.364865 1.37482 -1.31382 0
M  V30 20 H -2.03697 0.768431 -1.48695 0
M  V30 21 H -0.732103 -0.303568 -2.00399 0
M  V30 22 H 1.60012 -0.922247 -1.89291 0
M  V30 23 H 2.30259 -2.23269 -0.910573 0
M  V30 24 H 3.63874 -0.332215 -1.14362 0
M  V30 25 H 2.78598 1.66975 -1.10237 0
M  V30 26 H 2.70064 1.59168 0.59492 0
M  V30 27 H 4.17228 1.04049 1.89457 0
M  V30 28 H -2.28256 -0.908986 1.54608 0
M  V30 29 H -2.58709 -1.19133 -1.39683 0
M  V30 30 H -3.66816 -1.76235 -0.264183 0
M  V30 31 H -5.1633 -0.0586806 -0.31369 0
M  V30 END ATOM
M  V30 BEGIN BOND
M  V30 1 1 1 2
M  V30 2 1 2 3
M  V30 3 1 2 4
M  V30 4 1 4 5
M  V30 5 1 5 6
M  V30 6 1 6 7
M  V30 7 1 6 8
M  V30 8 1 8 9
M  V30 9 2 8 10
M  V30 10 1 2 11
M  V30 11 1 11 12
M  V30 12 1 11 13
M  V30 13 1 13 14
M  V30 14 2 13 15
M  V30 15 1 1 16
M  V30 16 1 1 17
M  V30 17 1 1 18
M  V30 18 1 3 19
M  V30 19 1 3 20
M  V30 20 1 3 21
M  V30 21 1 5 22
M  V30 22 1 5 23
M  V30 23 1 6 24
M  V30 24 1 7 25
M  V30 25 1 7 26
M  V30 26 1 9 27
M  V30 27 1 11 28
M  V30 28 1 12 29
M  V30 29 1 12 30
M  V30 30 1 14 31
M  V30 END BOND
M  V30 END CTAB
M  END
