
     RDKit          3D

  0  0  0  0  0  0  0  0  0  0999 V3000
M  V30 BEGIN CTAB
M  V30 COUNTS 48 49 0 0 0
M  V30 BEGIN ATOM
M  V30 1 N -5.70234 1.11486 1.21354 0
M  V30 2 C -5.04833 0.569537 0.0950841 0
M  V30 3 C -3.66136 1.22235 -0.146437 0 CFG=2
M  V30 4 C -2.99204 0.636551 -1.3207 0
M  V30 5 C -1.83709 -0.308554 -1.04197 0
M  V30 6 C -1.65377 -0.536065 0.40299 0 CFG=2
M  V30 7 C -1.54648 0.849089 1.07681 0
M  V30 8 C -2.93694 1.40965 1.11911 0
M  V30 9 C -0.709907 -1.50257 0.946374 0
M  V30 10 N 0.672973 -1.45268 0.717449 0
M  V30 11 C 1.37913 -1.64111 -0.494621 0
M  V30 12 O 0.739501 -1.91039 -1.53345 0
M  V30 13 C 2.87341 -1.52355 -0.55223 0
M  V30 14 C 3.32707 -0.170733 -0.192063 0
M  V30 15 C 2.72573 0.955534 -0.684796 0
M  V30 16 C 3.21093 2.19326 -0.298983 0
M  V30 17 C 4.28467 2.32718 0.569078 0
M  V30 18 C 4.87971 1.19954 1.05672 0
M  V30 19 C 4.3917 -0.03394 0.668615 0
M  V30 20 Br 4.87388 4.09208 1.03616 0
M  V30 21 N 3.27911 -1.77001 -1.92071 0
M  V30 22 C 3.5444 -2.55022 0.310447 0
M  V30 23 H -6.47576 0.555258 1.51508 0
M  V30 24 H -5.74858 2.10622 1.32443 0
M  V30 25 H -4.95188 -0.509311 0.162882 0
M  V30 26 H -5.69024 0.766832 -0.813842 0
M  V30 27 H -3.98243 2.27636 -0.479002 0
M  V30 28 H -3.7717 0.0234801 -1.86828 0
M  V30 29 H -2.68124 1.39044 -2.06671 0
M  V30 30 H -1.98597 -1.2069 -1.65711 0
M  V30 31 H -0.942774 0.234741 -1.47741 0
M  V30 32 H -2.68661 -0.888676 0.782411 0
M  V30 33 H -1.1966 0.710224 2.11803 0
M  V30 34 H -0.917754 1.51069 0.477274 0
M  V30 35 H -3.50813 0.838237 1.91614 0
M  V30 36 H -2.91694 2.50413 1.42448 0
M  V30 37 H -0.850224 -1.45912 2.08746 0
M  V30 38 H -1.08789 -2.54054 0.646546 0
M  V30 39 H 1.33497 -1.23922 1.57119 0
M  V30 40 H 1.87015 0.900624 -1.37677 0
M  V30 41 H 2.75263 3.08743 -0.674711 0
M  V30 42 H 5.71546 1.29873 1.7324 0
M  V30 43 H 4.91745 -0.900442 1.09873 0
M  V30 44 H 4.21036 -1.33341 -2.12516 0
M  V30 45 H 3.26745 -2.79535 -2.1166 0
M  V30 46 H 3.11729 -3.55356 0.0866706 0
M  V30 47 H 4.61251 -2.6057 0.0221877 0
M  V30 48 H 3.50249 -2.34096 1.38545 0
M  V30 END ATOM
M  V30 BEGIN BOND
M  V30 1 1 1 2
M  V30 2 1 2 3
M  V30 3 1 3 4
M  V30 4 1 4 5
M  V30 5 1 5 6
M  V30 6 1 6 7
M  V30 7 1 7 8
M  V30 8 1 6 9
M  V30 9 1 9 10
M  V30 10 1 10 11
M  V30 11 2 11 12
M  V30 12 1 11 13
M  V30 13 1 13 14
M  V30 14 2 14 15
M  V30 15 1 15 16
M  V30 16 2 16 17
M  V30 17 1 17 18
M  V30 18 2 18 19
M  V30 19 1 17 20
M  V30 20 1 13 21
M  V30 21 1 13 22
M  V30 22 1 8 3
M  V30 23 1 19 14
M  V30 24 1 1 23
M  V30 25 1 1 24
M  V30 26 1 2 25
M  V30 27 1 2 26
M  V30 28 1 3 27 CFG=3
M  V30 29 1 4 28
M  V30 30 1 4 29
M  V30 31 1 5 30
M  V30 32 1 5 31
M  V30 33 1 6 32 CFG=1
M  V30 34 1 7 33
M  V30 35 1 7 34
M  V30 36 1 8 35
M  V30 37 1 8 36
M  V30 38 1 9 37
M  V30 39 1 9 38
M  V30 40 1 10 39
M  V30 41 1 15 40
M  V30 42 1 16 41
M  V30 43 1 18 42
M  V30 44 1 19 43
M  V30 45 1 21 44
M  V30 46 1 21 45
M  V30 47 1 22 46
M  V30 48 1 22 47
M  V30 49 1 22 48
M  V30 END BOND
M  V30 END CTAB
M  END
