
     RDKit          3D

  0  0  0  0  0  0  0  0  0  0999 V3000
M  V30 BEGIN CTAB
M  V30 COUNTS 39 39 0 0 0
M  V30 BEGIN ATOM
M  V30 1 C 6.05181 0.815573 -1.57522 0
M  V30 2 S 4.35155 1.4067 -1.5499 0
M  V30 3 C 3.24593 0.100471 -2.17244 0
M  V30 4 C 3.23365 -1.05943 -1.24198 0
M  V30 5 C 2.78606 -0.762929 0.165224 0 CFG=1
M  V30 6 C 1.39688 -0.227316 0.252997 0
M  V30 7 O 1.22404 0.906916 -0.229936 0
M  V30 8 N 0.341892 -0.936512 0.836003 0
M  V30 9 C -1.00348 -0.579647 0.990883 0
M  V30 10 C -1.82355 -1.34625 1.83378 0
M  V30 11 C -3.15802 -1.0644 2.02417 0
M  V30 12 C -3.7328 0.00395861 1.37479 0
M  V30 13 C -2.94822 0.768906 0.543921 0
M  V30 14 C -1.58255 0.479162 0.349726 0
M  V30 15 S -3.71025 2.11943 -0.261296 0
M  V30 16 O -4.07152 3.22859 0.654091 0
M  V30 17 O -2.67598 2.68793 -1.226 0
M  V30 18 N -5.01685 1.57836 -1.25016 0
M  V30 19 C -5.15141 0.315032 1.56537 0
M  V30 20 N 2.88862 -2.03503 0.879077 0
M  V30 21 H 6.66775 1.52557 -1.00114 0
M  V30 22 H 6.4031 0.854637 -2.62411 0
M  V30 23 H 6.14493 -0.169291 -1.13204 0
M  V30 24 H 2.25216 0.519762 -2.36202 0
M  V30 25 H 3.68305 -0.282929 -3.14486 0
M  V30 26 H 4.29824 -1.42769 -1.13369 0
M  V30 27 H 2.70397 -1.95201 -1.66532 0
M  V30 28 H 3.45337 0.0128011 0.590821 0
M  V30 29 H 0.652347 -1.90957 1.21045 0
M  V30 30 H -1.33647 -2.17591 2.32693 0
M  V30 31 H -3.73805 -1.6951 2.6884 0
M  V30 32 H -1.04179 1.13421 -0.333505 0
M  V30 33 H -4.9851 0.56008 -1.36667 0
M  V30 34 H -5.89669 1.97482 -0.908739 0
M  V30 35 H -5.45879 1.33889 1.3734 0
M  V30 36 H -5.44262 0.0993932 2.63531 0
M  V30 37 H -5.81879 -0.370493 0.964888 0
M  V30 38 H 3.16158 -1.80415 1.86427 0
M  V30 39 H 3.652 -2.63254 0.494344 0
M  V30 END ATOM
M  V30 BEGIN BOND
M  V30 1 1 1 2
M  V30 2 1 2 3
M  V30 3 1 3 4
M  V30 4 1 4 5
M  V30 5 1 5 6
M  V30 6 2 6 7
M  V30 7 1 6 8
M  V30 8 1 8 9
M  V30 9 2 9 10
M  V30 10 1 10 11
M  V30 11 2 11 12
M  V30 12 1 12 13
M  V30 13 2 13 14
M  V30 14 1 13 15
M  V30 15 2 15 16
M  V30 16 2 15 17
M  V30 17 1 15 18
M  V30 18 1 12 19
M  V30 19 1 5 20
M  V30 20 1 14 9
M  V30 21 1 1 21
M  V30 22 1 1 22
M  V30 23 1 1 23
M  V30 24 1 3 24
M  V30 25 1 3 25
M  V30 26 1 4 26
M  V30 27 1 4 27
M  V30 28 1 5 28 CFG=1
M  V30 29 1 8 29
M  V30 30 1 10 30
M  V30 31 1 11 31
M  V30 32 1 14 32
M  V30 33 1 18 33
M  V30 34 1 18 34
M  V30 35 1 19 35
M  V30 36 1 19 36
M  V30 37 1 19 37
M  V30 38 1 20 38
M  V30 39 1 20 39
M  V30 END BOND
M  V30 END CTAB
M  END
