
     RDKit          3D

  0  0  0  0  0  0  0  0  0  0999 V3000
M  V30 BEGIN CTAB
M  V30 COUNTS 19 20 0 0 0
M  V30 BEGIN ATOM
M  V30 1 N 3.42489 -1.23216 0.0455808 0
M  V30 2 C 2.06976 -0.745354 0.101384 0
M  V30 3 N 1.05045 -1.5893 0.292186 0
M  V30 4 C -0.193737 -1.07181 0.334771 0
M  V30 5 C -0.432821 0.276927 0.189326 0
M  V30 6 C -1.73524 0.720017 0.24602 0
M  V30 7 C -2.78547 -0.165001 0.444499 0
M  V30 8 C -2.51508 -1.51912 0.587933 0
M  V30 9 N -1.23899 -1.91547 0.527743 0
M  V30 10 C 0.6351 1.12701 -0.00638652 0
M  V30 11 N 0.434792 2.52027 -0.160634 0
M  V30 12 N 1.84078 0.553052 -0.0387374 0
M  V30 13 H 4.21731 -0.566249 0.083832 0
M  V30 14 H 3.5733 -2.25519 -0.0328317 0
M  V30 15 H -1.94987 1.77518 0.134582 0
M  V30 16 H -3.80835 0.176641 0.489818 0
M  V30 17 H -3.34421 -2.2102 0.743685 0
M  V30 18 H -0.332271 3.0611 0.29561 0
M  V30 19 H 1.08966 3.05966 -0.768755 0
M  V30 END ATOM
M  V30 BEGIN BOND
M  V30 1 1 1 2
M  V30 2 2 2 3
M  V30 3 1 3 4
M  V30 4 2 4 5
M  V30 5 1 5 6
M  V30 6 2 6 7
M  V30 7 1 7 8
M  V30 8 2 8 9
M  V30 9 1 5 10
M  V30 10 1 10 11
M  V30 11 2 10 12
M  V30 12 1 12 2
M  V30 13 1 9 4
M  V30 14 1 1 13
M  V30 15 1 1 14
M  V30 16 1 6 15
M  V30 17 1 7 16
M  V30 18 1 8 17
M  V30 19 1 11 18
M  V30 20 1 11 19
M  V30 END BOND
M  V30 END CTAB
M  END
