
     RDKit          3D

  0  0  0  0  0  0  0  0  0  0999 V3000
M  V30 BEGIN CTAB
M  V30 COUNTS 24 25 0 0 0
M  V30 BEGIN ATOM
M  V30 1 N 4.92207 -1.05585 0.749443 0
M  V30 2 C 3.56821 -0.696686 0.49786 0
M  V30 3 N 3.1408 -0.344051 -0.729846 0
M  V30 4 C 1.86684 -0.0026765 -0.983537 0
M  V30 5 C 0.907022 0.00649817 0.0154755 0
M  V30 6 C 1.35487 -0.35578 1.26808 0
M  V30 7 N 2.64084 -0.689931 1.47368 0
M  V30 8 C -0.475276 0.381161 -0.252363 0
M  V30 9 C -0.833053 1.50244 -0.969489 0
M  V30 10 C -2.16339 1.82353 -1.19646 0
M  V30 11 C -3.18341 1.01846 -0.70404 0
M  V30 12 C -2.82841 -0.0996179 0.0108939 0
M  V30 13 C -1.49729 -0.405712 0.228264 0
M  V30 14 F -1.18725 -1.51897 0.933237 0
M  V30 15 N -3.86798 -0.921929 0.513896 0
M  V30 16 F -4.46463 1.37013 -0.949418 0
M  V30 17 H 5.27984 -2.02057 0.612933 0
M  V30 18 H 5.59057 -0.335142 1.08327 0
M  V30 19 H 1.51937 0.284009 -1.98161 0
M  V30 20 H 0.653678 -0.366936 2.10193 0
M  V30 21 H -0.0659382 2.14891 -1.36581 0
M  V30 22 H -2.43249 2.70817 -1.762 0
M  V30 23 H -3.66013 -1.45507 1.39301 0
M  V30 24 H -4.78487 -0.974379 0.0125936 0
M  V30 END ATOM
M  V30 BEGIN BOND
M  V30 1 1 1 2
M  V30 2 2 2 3
M  V30 3 1 3 4
M  V30 4 2 4 5
M  V30 5 1 5 6
M  V30 6 2 6 7
M  V30 7 1 5 8
M  V30 8 2 8 9
M  V30 9 1 9 10
M  V30 10 2 10 11
M  V30 11 1 11 12
M  V30 12 2 12 13
M  V30 13 1 13 14
M  V30 14 1 12 15
M  V30 15 1 11 16
M  V30 16 1 7 2
M  V30 17 1 13 8
M  V30 18 1 1 17
M  V30 19 1 1 18
M  V30 20 1 4 19
M  V30 21 1 6 20
M  V30 22 1 9 21
M  V30 23 1 10 22
M  V30 24 1 15 23
M  V30 25 1 15 24
M  V30 END BOND
M  V30 END CTAB
M  END
