
     RDKit          3D

  0  0  0  0  0  0  0  0  0  0999 V3000
M  V30 BEGIN CTAB
M  V30 COUNTS 66 70 0 0 0
M  V30 BEGIN ATOM
M  V30 1 N -5.32964 -3.22367 0.1082 0
M  V30 2 C -5.25555 -2.3073 -1.02155 0
M  V30 3 C -5.67044 -0.948251 -0.58364 0
M  V30 4 N -6.92255 -0.483723 -0.607025 0
M  V30 5 C -6.94552 0.790704 -0.140665 0
M  V30 6 C -5.65546 1.14549 0.1908 0
M  V30 7 C -5.36906 2.4137 0.70297 0
M  V30 8 C -6.37126 3.31034 0.877649 0
M  V30 9 C -7.66571 2.97403 0.5523 0
M  V30 10 C -7.95436 1.71341 0.0426277 0
M  V30 11 N -4.90586 0.0573365 -0.0937862 0
M  V30 12 C -3.4953 -0.0639642 0.0821969 0
M  V30 13 C -2.63156 0.850501 -0.724199 0
M  V30 14 C -1.24778 0.169369 -0.754607 0
M  V30 15 N -0.808218 -0.191215 0.580111 0
M  V30 16 C -1.70978 -0.68582 1.59784 0
M  V30 17 C -2.99645 0.143723 1.49539 0
M  V30 18 C 0.570946 -0.0501102 0.881905 0
M  V30 19 O 0.933441 -0.353557 2.06887 0
M  V30 20 C 1.58178 0.427304 -0.120147 0
M  V30 21 C 2.85261 0.653838 0.642637 0
M  V30 22 C 3.7104 -0.618723 0.663782 0
M  V30 23 N 4.0849 -0.816178 -0.690266 0
M  V30 24 C 5.28304 -1.52022 -0.948759 0
M  V30 25 C 6.42283 -0.779268 -0.350243 0
M  V30 26 C 6.93907 0.355066 -0.991238 0
M  V30 27 C 7.98919 1.08078 -0.502183 0
M  V30 28 N 8.48269 2.22927 -1.18543 0
M  V30 29 N 8.54816 0.672616 0.6585 0
M  V30 30 C 8.07739 -0.40375 1.29055 0
M  V30 31 C 7.00933 -1.16404 0.818444 0
M  V30 32 C 2.98248 -1.19821 -1.49631 0
M  V30 33 C 1.68711 -0.561282 -1.22848 0
M  V30 34 H -6.32769 -3.46669 0.28785 0
M  V30 35 H -4.72624 -4.04628 -0.0710729 0
M  V30 36 H -4.25515 -2.30681 -1.49146 0
M  V30 37 H -5.94543 -2.72498 -1.78636 0
M  V30 38 H -4.3219 2.63146 0.94485 0
M  V30 39 H -6.10449 4.287 1.27982 0
M  V30 40 H -8.46458 3.6961 0.693889 0
M  V30 41 H -8.96917 1.47033 -0.204438 0
M  V30 42 H -3.20055 -1.12027 -0.204555 0
M  V30 43 H -2.43563 1.81304 -0.209196 0
M  V30 44 H -2.92973 1.05185 -1.73232 0
M  V30 45 H -0.592724 0.899528 -1.22393 0
M  V30 46 H -1.3955 -0.749657 -1.33505 0
M  V30 47 H -2.01672 -1.72727 1.44297 0
M  V30 48 H -1.3249 -0.538539 2.60689 0
M  V30 49 H -3.70739 -0.0654744 2.27157 0
M  V30 50 H -2.62282 1.1954 1.67784 0
M  V30 51 H 1.22226 1.42108 -0.460525 0
M  V30 52 H 2.67906 0.972081 1.68806 0
M  V30 53 H 3.46051 1.42333 0.130305 0
M  V30 54 H 4.5096 -0.496784 1.39137 0
M  V30 55 H 3.03644 -1.41184 1.06414 0
M  V30 56 H 5.27696 -2.5329 -0.444426 0
M  V30 57 H 5.46263 -1.73184 -2.0141 0
M  V30 58 H 6.47133 0.655652 -1.91648 0
M  V30 59 H 8.81055 2.16858 -2.16619 0
M  V30 60 H 8.53435 3.17917 -0.726534 0
M  V30 61 H 8.51773 -0.739563 2.22065 0
M  V30 62 H 6.63441 -2.03326 1.33499 0
M  V30 63 H 3.32089 -1.06987 -2.57039 0
M  V30 64 H 2.90683 -2.32589 -1.41137 0
M  V30 65 H 0.903474 -1.36255 -1.10356 0
M  V30 66 H 1.37272 -0.0323095 -2.176 0
M  V30 END ATOM
M  V30 BEGIN BOND
M  V30 1 1 1 2
M  V30 2 1 2 3
M  V30 3 2 3 4
M  V30 4 1 4 5
M  V30 5 2 5 6
M  V30 6 1 6 7
M  V30 7 2 7 8
M  V30 8 1 8 9
M  V30 9 2 9 10
M  V30 10 1 6 11
M  V30 11 1 11 12
M  V30 12 1 12 13
M  V30 13 1 13 14
M  V30 14 1 14 15
M  V30 15 1 15 16
M  V30 16 1 16 17
M  V30 17 1 15 18
M  V30 18 2 18 19
M  V30 19 1 18 20
M  V30 20 1 20 21
M  V30 21 1 21 22
M  V30 22 1 22 23
M  V30 23 1 23 24
M  V30 24 1 24 25
M  V30 25 2 25 26
M  V30 26 1 26 27
M  V30 27 1 27 28
M  V30 28 2 27 29
M  V30 29 1 29 30
M  V30 30 2 30 31
M  V30 31 1 23 32
M  V30 32 1 32 33
M  V30 33 1 11 3
M  V30 34 1 17 12
M  V30 35 1 33 20
M  V30 36 1 10 5
M  V30 37 1 31 25
M  V30 38 1 1 34
M  V30 39 1 1 35
M  V30 40 1 2 36
M  V30 41 1 2 37
M  V30 42 1 7 38
M  V30 43 1 8 39
M  V30 44 1 9 40
M  V30 45 1 10 41
M  V30 46 1 12 42
M  V30 47 1 13 43
M  V30 48 1 13 44
M  V30 49 1 14 45
M  V30 50 1 14 46
M  V30 51 1 16 47
M  V30 52 1 16 48
M  V30 53 1 17 49
M  V30 54 1 17 50
M  V30 55 1 20 51
M  V30 56 1 21 52
M  V30 57 1 21 53
M  V30 58 1 22 54
M  V30 59 1 22 55
M  V30 60 1 24 56
M  V30 61 1 24 57
M  V30 62 1 26 58
M  V30 63 1 28 59
M  V30 64 1 28 60
M  V30 65 1 30 61
M  V30 66 1 31 62
M  V30 67 1 32 63
M  V30 68 1 32 64
M  V30 69 1 33 65
M  V30 70 1 33 66
M  V30 END BOND
M  V30 END CTAB
M  END
