
     RDKit          3D

  0  0  0  0  0  0  0  0  0  0999 V3000
M  V30 BEGIN CTAB
M  V30 COUNTS 71 76 0 0 0
M  V30 BEGIN ATOM
M  V30 1 N 10.2661 0.814529 0.357535 0
M  V30 2 C 9.08783 -0.00105272 0.185383 0
M  V30 3 N 9.09393 -1.29703 0.377441 0
M  V30 4 C 8.02838 -2.13691 0.294641 0
M  V30 5 N 6.82878 -1.56969 -0.0552515 0
M  V30 6 C 6.7586 -0.264701 -0.275455 0
M  V30 7 C 7.86731 0.591613 -0.171375 0
M  V30 8 N 7.5124 1.80917 -0.41107 0
M  V30 9 C 6.22445 1.81806 -0.702451 0
M  V30 10 N 5.78819 0.555009 -0.61416 0
M  V30 11 C 4.39942 0.173057 -0.815753 0 CFG=2
M  V30 12 O 3.98312 -0.888564 0.0674284 0
M  V30 13 C 2.66453 -0.880235 -0.340939 0 CFG=2
M  V30 14 C 1.68386 -1.65167 0.453619 0
M  V30 15 O 0.405381 -1.21193 -0.0912192 0
M  V30 16 P -0.467077 -0.530764 1.1783 0
M  V30 17 O -1.24635 -1.49157 2.22805 0
M  V30 18 O 0.561502 0.336224 2.00094 0
M  V30 19 O -1.58086 0.612648 0.508725 0
M  V30 20 C -2.78381 0.0300099 0.645319 0 CFG=2
M  V30 21 C -2.82881 -1.08266 -0.472073 0 CFG=2
M  V30 22 O -2.07707 -0.593641 -1.50998 0
M  V30 23 C -4.30805 -1.03182 -0.794848 0 CFG=1
M  V30 24 C -4.92769 -2.37199 -0.824572 0
M  V30 25 O -4.63392 -2.842 -2.15117 0
M  V30 26 P -6.19307 -2.8566 -2.89946 0
M  V30 27 O -7.3651 -2.42811 -1.73771 0
M  V30 28 O -6.45891 -4.25428 -3.6942 0
M  V30 29 O -6.18466 -1.65914 -3.90932 0
M  V30 30 O -4.90477 -0.237999 0.270845 0
M  V30 31 C -3.98928 0.804899 0.1666 0 CFG=1
M  V30 32 N -4.21269 2.00167 0.877896 0
M  V30 33 C -4.2662 3.19035 0.310138 0
M  V30 34 N -4.35716 4.13389 1.28122 0
M  V30 35 C -4.36799 3.55748 2.43113 0
M  V30 36 C -4.28168 2.14754 2.20172 0
M  V30 37 N -4.25352 1.36627 3.2244 0
M  V30 38 C -4.30239 1.72515 4.51455 0
M  V30 39 N -4.38126 3.11927 4.73561 0
M  V30 40 C -4.41646 3.99094 3.76151 0
M  V30 41 N -4.4706 5.39463 3.98599 0
M  V30 42 C 2.76531 -1.21333 -1.80217 0 CFG=1
M  V30 43 O 1.80009 -0.558041 -2.52408 0
M  V30 44 C 4.12952 -0.559712 -2.1301 0 CFG=1
M  V30 45 O 4.03757 0.375944 -3.11215 0
M  V30 46 H 10.3472 1.41447 1.19924 0
M  V30 47 H 10.9167 0.872508 -0.421827 0
M  V30 48 H 8.14572 -3.16945 0.507793 0
M  V30 49 H 5.67033 2.69709 -0.967204 0
M  V30 50 H 3.69323 0.973877 -0.647179 0
M  V30 51 H 2.3684 0.237695 -0.309995 0
M  V30 52 H 1.7595 -2.73554 0.0357551 0
M  V30 53 H 1.68066 -1.70169 1.48711 0
M  V30 54 H -1.0449 -2.41384 2.36184 0
M  V30 55 H -2.93485 -0.577474 1.54133 0
M  V30 56 H -2.47619 -2.04213 -0.0479493 0
M  V30 57 H -2.45966 -0.625379 -2.39855 0
M  V30 58 H -4.5371 -0.425209 -1.69419 0
M  V30 59 H -4.33769 -3.10397 -0.164878 0
M  V30 60 H -5.93766 -2.48344 -0.576697 0
M  V30 61 H -7.29744 -1.42014 -1.63471 0
M  V30 62 H -6.62931 -4.12329 -4.69559 0
M  V30 63 H -3.79524 0.993033 -0.910441 0
M  V30 64 H -4.22647 3.46457 -0.748295 0
M  V30 65 H -4.2709 1.13543 5.3687 0
M  V30 66 H -4.04466 5.90723 4.75634 0
M  V30 67 H -4.93893 5.99346 3.22659 0
M  V30 68 H 2.80772 -2.3017 -1.96145 0
M  V30 69 H 1.25721 -1.16016 -3.10129 0
M  V30 70 H 4.85809 -1.35568 -2.26059 0
M  V30 71 H 4.79935 1.01484 -2.96334 0
M  V30 END ATOM
M  V30 BEGIN BOND
M  V30 1 1 1 2
M  V30 2 2 2 3
M  V30 3 1 3 4
M  V30 4 2 4 5
M  V30 5 1 5 6
M  V30 6 2 6 7
M  V30 7 1 7 8
M  V30 8 2 8 9
M  V30 9 1 9 10
M  V30 10 1 10 11
M  V30 11 1 11 12
M  V30 12 1 12 13
M  V30 13 1 13 14
M  V30 14 1 14 15
M  V30 15 1 15 16
M  V30 16 1 16 17
M  V30 17 2 16 18
M  V30 18 1 16 19
M  V30 19 1 19 20
M  V30 20 1 20 21
M  V30 21 1 21 22
M  V30 22 1 21 23
M  V30 23 1 23 24
M  V30 24 1 24 25
M  V30 25 1 25 26
M  V30 26 1 26 27
M  V30 27 1 26 28
M  V30 28 2 26 29
M  V30 29 1 23 30
M  V30 30 1 30 31
M  V30 31 1 31 32
M  V30 32 1 32 33
M  V30 33 2 33 34
M  V30 34 1 34 35
M  V30 35 2 35 36
M  V30 36 1 36 37
M  V30 37 2 37 38
M  V30 38 1 38 39
M  V30 39 2 39 40
M  V30 40 1 40 41
M  V30 41 1 13 42
M  V30 42 1 42 43
M  V30 43 1 42 44
M  V30 44 1 44 45
M  V30 45 1 7 2
M  V30 46 1 44 11
M  V30 47 1 10 6
M  V30 48 1 31 20
M  V30 49 1 36 32
M  V30 50 1 40 35
M  V30 51 1 1 46
M  V30 52 1 1 47
M  V30 53 1 4 48
M  V30 54 1 9 49
M  V30 55 1 11 50 CFG=3
M  V30 56 1 13 51 CFG=3
M  V30 57 1 14 52
M  V30 58 1 14 53
M  V30 59 1 17 54
M  V30 60 1 20 55 CFG=1
M  V30 61 1 21 56 CFG=1
M  V30 62 1 22 57
M  V30 63 1 23 58 CFG=3
M  V30 64 1 24 59
M  V30 65 1 24 60
M  V30 66 1 27 61
M  V30 67 1 28 62
M  V30 68 1 31 63 CFG=3
M  V30 69 1 33 64
M  V30 70 1 38 65
M  V30 71 1 41 66
M  V30 72 1 41 67
M  V30 73 1 42 68 CFG=1
M  V30 74 1 43 69
M  V30 75 1 44 70 CFG=3
M  V30 76 1 45 71
M  V30 END BOND
M  V30 END CTAB
M  END
