
     RDKit          3D

  0  0  0  0  0  0  0  0  0  0999 V3000
M  V30 BEGIN CTAB
M  V30 COUNTS 36 37 0 0 0
M  V30 BEGIN ATOM
M  V30 1 C -3.9447 -3.26565 -0.193835 0
M  V30 2 O -3.10155 -2.12803 -0.271577 0
M  V30 3 C -3.59614 -0.910302 -0.702763 0
M  V30 4 O -4.79767 -0.833189 -1.02153 0
M  V30 5 C -2.73004 0.283692 -0.789073 0
M  V30 6 C -1.40207 0.409528 -0.490125 0
M  V30 7 C -0.848004 1.61922 -0.658186 0
M  V30 8 C -1.6638 2.62261 -1.11527 0
M  V30 9 S -1.21116 4.34633 -1.43879 0
M  V30 10 C -1.42731 5.36939 0.0161568 0
M  V30 11 S -3.16856 1.84676 -1.29379 0
M  V30 12 S 0.872101 1.9421 -0.311344 0
M  V30 13 O 1.54357 2.37595 -1.57583 0
M  V30 14 O 0.960791 3.05582 0.674414 0
M  V30 15 C 1.67775 0.499736 0.254618 0
M  V30 16 C 2.27559 -0.351571 -0.654154 0
M  V30 17 C 2.92797 -1.5078 -0.267408 0
M  V30 18 N 3.52091 -2.33721 -1.25891 0
M  V30 19 C 2.97694 -1.81101 1.07424 0
M  V30 20 N 3.6421 -2.99414 1.49423 0
M  V30 21 C 2.38889 -0.982583 2.02228 0
M  V30 22 Br 2.46479 -1.41245 3.85808 0
M  V30 23 C 1.74229 0.170994 1.59301 0
M  V30 24 H -3.47653 -4.01012 0.50602 0
M  V30 25 H -3.9702 -3.71978 -1.21163 0
M  V30 26 H -4.95262 -3.02211 0.192337 0
M  V30 27 H -0.867082 -0.49374 -0.128352 0
M  V30 28 H -2.1635 4.86065 0.696252 0
M  V30 29 H -1.83746 6.37801 -0.254153 0
M  V30 30 H -0.51777 5.54948 0.59347 0
M  V30 31 H 2.23784 -0.111733 -1.72555 0
M  V30 32 H 3.0036 -3.22621 -1.49461 0
M  V30 33 H 4.40401 -2.11635 -1.74167 0
M  V30 34 H 3.19214 -3.91385 1.29838 0
M  V30 35 H 4.55831 -2.99414 1.98915 0
M  V30 36 H 1.28656 0.81167 2.33589 0
M  V30 END ATOM
M  V30 BEGIN BOND
M  V30 1 1 1 2
M  V30 2 1 2 3
M  V30 3 2 3 4
M  V30 4 1 3 5
M  V30 5 2 5 6
M  V30 6 1 6 7
M  V30 7 2 7 8
M  V30 8 1 8 9
M  V30 9 1 9 10
M  V30 10 1 8 11
M  V30 11 1 7 12
M  V30 12 2 12 13
M  V30 13 2 12 14
M  V30 14 1 12 15
M  V30 15 2 15 16
M  V30 16 1 16 17
M  V30 17 1 17 18
M  V30 18 2 17 19
M  V30 19 1 19 20
M  V30 20 1 19 21
M  V30 21 1 21 22
M  V30 22 2 21 23
M  V30 23 1 11 5
M  V30 24 1 23 15
M  V30 25 1 1 24
M  V30 26 1 1 25
M  V30 27 1 1 26
M  V30 28 1 6 27
M  V30 29 1 10 28
M  V30 30 1 10 29
M  V30 31 1 10 30
M  V30 32 1 16 31
M  V30 33 1 18 32
M  V30 34 1 18 33
M  V30 35 1 20 34
M  V30 36 1 20 35
M  V30 37 1 23 36
M  V30 END BOND
M  V30 END CTAB
M  END
