
     RDKit          3D

  0  0  0  0  0  0  0  0  0  0999 V3000
M  V30 BEGIN CTAB
M  V30 COUNTS 16 16 0 0 0
M  V30 BEGIN ATOM
M  V30 1 N -2.20282 -0.307935 0.134839 0
M  V30 2 C -0.784719 -0.362669 0.0393763 0
M  V30 3 C -0.181262 -1.59948 -0.0152146 0
M  V30 4 C 1.19368 -1.70242 -0.10834 0
M  V30 5 C 1.92224 -0.530929 -0.14357 0
M  V30 6 Cl 3.66589 -0.658958 -0.261639 0
M  V30 7 C 1.30339 0.708233 -0.0879207 0
M  V30 8 Cl 2.24921 2.19042 -0.134104 0
M  V30 9 C -0.0691245 0.816389 0.00510152 0
M  V30 10 N -0.710899 2.09419 0.0627327 0
M  V30 11 H -2.83664 -0.487183 -0.675 0
M  V30 12 H -2.59705 -0.0750933 1.07209 0
M  V30 13 H -0.728692 -2.52948 0.0106899 0
M  V30 14 H 1.66831 -2.67807 -0.151308 0
M  V30 15 H -0.907459 2.47884 1.01084 0
M  V30 16 H -0.984048 2.64414 -0.758569 0
M  V30 END ATOM
M  V30 BEGIN BOND
M  V30 1 1 1 2
M  V30 2 2 2 3
M  V30 3 1 3 4
M  V30 4 2 4 5
M  V30 5 1 5 6
M  V30 6 1 5 7
M  V30 7 1 7 8
M  V30 8 2 7 9
M  V30 9 1 9 10
M  V30 10 1 9 2
M  V30 11 1 1 11
M  V30 12 1 1 12
M  V30 13 1 3 13
M  V30 14 1 4 14
M  V30 15 1 10 15
M  V30 16 1 10 16
M  V30 END BOND
M  V30 END CTAB
M  END
