
     RDKit          3D

  0  0  0  0  0  0  0  0  0  0999 V3000
M  V30 BEGIN CTAB
M  V30 COUNTS 39 40 0 0 0
M  V30 BEGIN ATOM
M  V30 1 C -3.85473 2.73426 -0.248072 0
M  V30 2 C -3.28072 2.15633 1.00161 0
M  V30 3 N -2.27672 1.1143 0.696404 0
M  V30 4 C -2.66418 -0.233202 0.506716 0
M  V30 5 C -3.92858 -0.628184 0.614651 0
M  V30 6 C -4.07706 -2.07681 0.371172 0
M  V30 7 C -2.69703 -2.6168 0.479207 0
M  V30 8 C -1.82481 -1.40965 0.163404 0
M  V30 9 C -0.953045 1.58949 0.588399 0
M  V30 10 O -0.743698 2.86116 0.727923 0
M  V30 11 C 0.268871 0.820232 0.33147 0
M  V30 12 S 1.74044 1.89895 0.163988 0
M  V30 13 C 3.13975 0.83119 -0.134268 0
M  V30 14 N 3.01984 -0.514346 -0.221619 0
M  V30 15 C 4.08631 -1.32008 -0.43926 0
M  V30 16 N 3.86636 -2.71207 -0.519461 0
M  V30 17 C 5.30956 -0.719079 -0.5699 0
M  V30 18 C 5.47498 0.646973 -0.487472 0
M  V30 19 N 4.3541 1.38767 -0.267295 0
M  V30 20 N 6.73672 1.25638 -0.62007 0
M  V30 21 H -3.26819 2.49722 -1.16922 0
M  V30 22 H -4.93277 2.42329 -0.392708 0
M  V30 23 H -3.89938 3.83723 -0.148991 0
M  V30 24 H -2.76758 2.96536 1.56683 0
M  V30 25 H -4.0849 1.7171 1.6113 0
M  V30 26 H -4.76588 0.0389471 0.852766 0
M  V30 27 H -4.79671 -2.54228 1.08 0
M  V30 28 H -4.42071 -2.21707 -0.69438 0
M  V30 29 H -2.53256 -3.42478 -0.265134 0
M  V30 30 H -2.49969 -2.95476 1.53605 0
M  V30 31 H -1.56257 -1.39947 -0.913998 0
M  V30 32 H -0.919919 -1.52063 0.761455 0
M  V30 33 H 0.471026 0.197546 1.2491 0
M  V30 34 H 0.172331 0.195925 -0.541526 0
M  V30 35 H 3.90951 -3.22319 -1.42981 0
M  V30 36 H 3.65396 -3.25715 0.343073 0
M  V30 37 H 6.156 -1.37032 -0.743688 0
M  V30 38 H 7.43726 0.870985 -1.26668 0
M  V30 39 H 6.95439 2.09933 -0.0584739 0
M  V30 END ATOM
M  V30 BEGIN BOND
M  V30 1 1 1 2
M  V30 2 1 2 3
M  V30 3 1 3 4
M  V30 4 2 4 5
M  V30 5 1 5 6
M  V30 6 1 6 7
M  V30 7 1 7 8
M  V30 8 1 3 9
M  V30 9 2 9 10
M  V30 10 1 9 11
M  V30 11 1 11 12
M  V30 12 1 12 13
M  V30 13 2 13 14
M  V30 14 1 14 15
M  V30 15 1 15 16
M  V30 16 2 15 17
M  V30 17 1 17 18
M  V30 18 2 18 19
M  V30 19 1 18 20
M  V30 20 1 8 4
M  V30 21 1 19 13
M  V30 22 1 1 21
M  V30 23 1 1 22
M  V30 24 1 1 23
M  V30 25 1 2 24
M  V30 26 1 2 25
M  V30 27 1 5 26
M  V30 28 1 6 27
M  V30 29 1 6 28
M  V30 30 1 7 29
M  V30 31 1 7 30
M  V30 32 1 8 31
M  V30 33 1 8 32
M  V30 34 1 11 33
M  V30 35 1 11 34
M  V30 36 1 16 35
M  V30 37 1 16 36
M  V30 38 1 17 37
M  V30 39 1 20 38
M  V30 40 1 20 39
M  V30 END BOND
M  V30 END CTAB
M  END
