
     RDKit          3D

  0  0  0  0  0  0  0  0  0  0999 V3000
M  V30 BEGIN CTAB
M  V30 COUNTS 24 24 0 0 0
M  V30 BEGIN ATOM
M  V30 1 N 3.58689 0.809061 -0.25343 0
M  V30 2 C 3.01245 -0.411073 0.21253 0
M  V30 3 C 1.58471 -0.622074 -0.208249 0
M  V30 4 N 0.702504 0.413583 0.266746 0
M  V30 5 C -0.67073 0.317896 -0.0705861 0
M  V30 6 C -1.51592 -0.363367 0.781465 0
M  V30 7 N -0.973595 -0.937154 1.95596 0
M  V30 8 C -2.85724 -0.494932 0.516799 0
M  V30 9 C -3.39102 0.0564499 -0.616506 0
M  V30 10 C -2.57359 0.751442 -1.50205 0
M  V30 11 C -1.21944 0.872932 -1.21555 0
M  V30 12 F -0.379876 1.54311 -2.05075 0
M  V30 13 Cl -3.22165 1.47175 -2.96463 0
M  V30 14 H 3.55899 0.964875 -1.26471 0
M  V30 15 H 3.46555 1.62616 0.348298 0
M  V30 16 H 3.60339 -1.25544 -0.189528 0
M  V30 17 H 3.02078 -0.385924 1.32648 0
M  V30 18 H 1.24871 -1.58304 0.239659 0
M  V30 19 H 1.49385 -0.759769 -1.31673 0
M  V30 20 H 1.02507 1.23139 0.847422 0
M  V30 21 H -0.554617 -1.86791 2.02857 0
M  V30 22 H -1.00887 -0.344546 2.83055 0
M  V30 23 H -3.50287 -1.02562 1.18517 0
M  V30 24 H -4.43348 -0.0077943 -0.886925 0
M  V30 END ATOM
M  V30 BEGIN BOND
M  V30 1 1 1 2
M  V30 2 1 2 3
M  V30 3 1 3 4
M  V30 4 1 4 5
M  V30 5 2 5 6
M  V30 6 1 6 7
M  V30 7 1 6 8
M  V30 8 2 8 9
M  V30 9 1 9 10
M  V30 10 2 10 11
M  V30 11 1 11 12
M  V30 12 1 10 13
M  V30 13 1 11 5
M  V30 14 1 1 14
M  V30 15 1 1 15
M  V30 16 1 2 16
M  V30 17 1 2 17
M  V30 18 1 3 18
M  V30 19 1 3 19
M  V30 20 1 4 20
M  V30 21 1 7 21
M  V30 22 1 7 22
M  V30 23 1 8 23
M  V30 24 1 9 24
M  V30 END BOND
M  V30 END CTAB
M  END
