
     RDKit          3D

  0  0  0  0  0  0  0  0  0  0999 V3000
M  V30 BEGIN CTAB
M  V30 COUNTS 36 37 0 0 0
M  V30 BEGIN ATOM
M  V30 1 N 0.840877 2.97509 1.19524 0
M  V30 2 C 1.43581 2.07754 0.756156 0
M  V30 3 C 2.17339 0.938308 0.230812 0
M  V30 4 C 1.5141 -0.234748 -0.111803 0
M  V30 5 C 0.069593 -0.242331 0.0703019 0
M  V30 6 C -0.537709 -0.276447 1.28151 0
M  V30 7 C -1.92748 -0.276867 1.41672 0
M  V30 8 C -2.70698 -0.240609 0.289329 0
M  V30 9 C -2.10143 -0.205932 -0.975075 0
M  V30 10 C -0.731317 -0.207496 -1.06915 0
M  V30 11 N -4.1337 -0.195403 0.336398 0
M  V30 12 C -4.86577 -1.39266 0.636983 0
M  V30 13 C -4.77803 1.0869 0.0611341 0
M  V30 14 C 2.2164 -1.3315 -0.61627 0
M  V30 15 C 1.49977 -2.51866 -0.963015 0
M  V30 16 N 0.928669 -3.48598 -1.23614 0
M  V30 17 C 3.58552 -1.19137 -0.754034 0
M  V30 18 O 4.26084 -2.18461 -1.21931 0
M  V30 19 N 4.22752 -0.0649075 -0.425451 0
M  V30 20 C 3.53986 0.986455 0.058929 0
M  V30 21 N 4.18677 2.20424 0.428587 0
M  V30 22 N 5.61451 0.0437426 -0.577113 0
M  V30 23 H 0.0363481 -0.304588 2.17463 0
M  V30 24 H -2.40546 -0.308466 2.38562 0
M  V30 25 H -2.71334 -0.181108 -1.84976 0
M  V30 26 H -0.286146 -0.176316 -2.05277 0
M  V30 27 H -5.03118 -1.97477 -0.302242 0
M  V30 28 H -5.88227 -1.10287 1.02265 0
M  V30 29 H -4.36505 -2.06917 1.35799 0
M  V30 30 H -5.61199 1.31272 0.747421 0
M  V30 31 H -4.01005 1.90383 0.0820081 0
M  V30 32 H -5.18233 1.10516 -0.992129 0
M  V30 33 H 3.75464 3.093 0.105831 0
M  V30 34 H 5.04568 2.21585 0.992389 0
M  V30 35 H 6.14319 0.79803 -0.0581918 0
M  V30 36 H 6.19674 -0.574053 -1.1788 0
M  V30 END ATOM
M  V30 BEGIN BOND
M  V30 1 3 1 2
M  V30 2 1 2 3
M  V30 3 1 3 4
M  V30 4 1 4 5
M  V30 5 2 5 6
M  V30 6 1 6 7
M  V30 7 2 7 8
M  V30 8 1 8 9
M  V30 9 2 9 10
M  V30 10 1 8 11
M  V30 11 1 11 12
M  V30 12 1 11 13
M  V30 13 2 4 14
M  V30 14 1 14 15
M  V30 15 3 15 16
M  V30 16 1 14 17
M  V30 17 2 17 18
M  V30 18 1 17 19
M  V30 19 1 19 20
M  V30 20 1 20 21
M  V30 21 1 19 22
M  V30 22 2 20 3
M  V30 23 1 10 5
M  V30 24 1 6 23
M  V30 25 1 7 24
M  V30 26 1 9 25
M  V30 27 1 10 26
M  V30 28 1 12 27
M  V30 29 1 12 28
M  V30 30 1 12 29
M  V30 31 1 13 30
M  V30 32 1 13 31
M  V30 33 1 13 32
M  V30 34 1 21 33
M  V30 35 1 21 34
M  V30 36 1 22 35
M  V30 37 1 22 36
M  V30 END BOND
M  V30 END CTAB
M  END
