
     RDKit          3D

  0  0  0  0  0  0  0  0  0  0999 V3000
M  V30 BEGIN CTAB
M  V30 COUNTS 49 51 0 0 0
M  V30 BEGIN ATOM
M  V30 1 N -6.1415 1.43862 2.10206 0
M  V30 2 C -5.11382 0.700445 1.46526 0
M  V30 3 C -3.9318 0.401596 2.15302 0
M  V30 4 C -2.93517 -0.314256 1.53253 0
M  V30 5 C -3.0375 -0.767006 0.234506 0
M  V30 6 C -4.1973 -0.470986 -0.433104 0
M  V30 7 C -5.2067 0.24513 0.172557 0
M  V30 8 C -4.43079 -0.905584 -1.85001 0
M  V30 9 C -3.08671 -1.11986 -2.5127 0
M  V30 10 C -2.32744 -2.10224 -1.66494 0
M  V30 11 C -1.8991 -1.53078 -0.33232 0
M  V30 12 N -0.691699 -0.740516 -0.448094 0
M  V30 13 C 0.529684 -1.08665 0.154887 0
M  V30 14 O 0.587068 -2.14083 0.835659 0
M  V30 15 C 1.74454 -0.294401 0.0399496 0
M  V30 16 C 1.76905 0.916783 -0.645864 0
M  V30 17 C 2.91814 1.66524 -0.757139 0
M  V30 18 C 2.9662 2.96487 -1.48647 0
M  V30 19 C 4.09578 1.20131 -0.16733 0
M  V30 20 C 4.11416 0.00347633 0.522896 0
M  V30 21 C 2.93417 -0.705453 0.603071 0
M  V30 22 S 5.57672 -0.579007 1.25989 0
M  V30 23 O 6.69496 -0.738542 0.299096 0
M  V30 24 O 5.94197 0.339857 2.41923 0
M  V30 25 N 5.20926 -2.10862 2.02146 0
M  V30 26 C 5.33451 1.97379 -0.272061 0
M  V30 27 H -6.34877 1.25452 3.0966 0
M  V30 28 H -6.68755 2.15565 1.59603 0
M  V30 29 H -3.84516 0.750082 3.16056 0
M  V30 30 H -2.0423 -0.506896 2.13715 0
M  V30 31 H -6.13832 0.481672 -0.366971 0
M  V30 32 H -5.00639 -0.0920686 -2.33525 0
M  V30 33 H -5.03032 -1.83076 -1.82843 0
M  V30 34 H -2.60005 -0.126021 -2.56186 0
M  V30 35 H -3.19316 -1.51564 -3.52229 0
M  V30 36 H -1.46591 -2.55054 -2.20208 0
M  V30 37 H -3.04181 -2.94101 -1.43033 0
M  V30 38 H -1.644 -2.41288 0.310842 0
M  V30 39 H -0.756393 0.119507 -1.01013 0
M  V30 40 H 0.884467 1.30163 -1.10986 0
M  V30 41 H 3.15699 3.77808 -0.757936 0
M  V30 42 H 1.95071 3.148 -1.93082 0
M  V30 43 H 3.72341 2.98565 -2.28112 0
M  V30 44 H 2.90232 -1.66575 1.14313 0
M  V30 45 H 4.7092 -2.73139 1.34406 0
M  V30 46 H 6.1466 -2.58259 2.1829 0
M  V30 47 H 5.97037 1.99833 0.61129 0
M  V30 48 H 5.03866 3.04805 -0.462054 0
M  V30 49 H 5.90072 1.688 -1.20749 0
M  V30 END ATOM
M  V30 BEGIN BOND
M  V30 1 1 1 2
M  V30 2 2 2 3
M  V30 3 1 3 4
M  V30 4 2 4 5
M  V30 5 1 5 6
M  V30 6 2 6 7
M  V30 7 1 6 8
M  V30 8 1 8 9
M  V30 9 1 9 10
M  V30 10 1 10 11
M  V30 11 1 11 12
M  V30 12 1 12 13
M  V30 13 2 13 14
M  V30 14 1 13 15
M  V30 15 2 15 16
M  V30 16 1 16 17
M  V30 17 1 17 18
M  V30 18 2 17 19
M  V30 19 1 19 20
M  V30 20 2 20 21
M  V30 21 1 20 22
M  V30 22 2 22 23
M  V30 23 2 22 24
M  V30 24 1 22 25
M  V30 25 1 19 26
M  V30 26 1 7 2
M  V30 27 1 21 15
M  V30 28 1 11 5
M  V30 29 1 1 27
M  V30 30 1 1 28
M  V30 31 1 3 29
M  V30 32 1 4 30
M  V30 33 1 7 31
M  V30 34 1 8 32
M  V30 35 1 8 33
M  V30 36 1 9 34
M  V30 37 1 9 35
M  V30 38 1 10 36
M  V30 39 1 10 37
M  V30 40 1 11 38
M  V30 41 1 12 39
M  V30 42 1 16 40
M  V30 43 1 18 41
M  V30 44 1 18 42
M  V30 45 1 18 43
M  V30 46 1 21 44
M  V30 47 1 25 45
M  V30 48 1 25 46
M  V30 49 1 26 47
M  V30 50 1 26 48
M  V30 51 1 26 49
M  V30 END BOND
M  V30 END CTAB
M  END
