
     RDKit          3D

  0  0  0  0  0  0  0  0  0  0999 V3000
M  V30 BEGIN CTAB
M  V30 COUNTS 30 30 0 0 0
M  V30 BEGIN ATOM
M  V30 1 N -0.601371 2.38612 1.31433 0
M  V30 2 C -1.04894 1.07999 1.67139 0
M  V30 3 C -0.626188 0.112772 0.575686 0
M  V30 4 C -1.19135 0.447025 -0.74998 0
M  V30 5 C -2.11603 -0.708795 -1.14108 0
M  V30 6 C -2.49655 -1.30625 0.213564 0
M  V30 7 C -1.16675 -1.26326 0.932666 0
M  V30 8 C 0.875637 0.0381685 0.611154 0
M  V30 9 N 1.42136 -0.855514 -0.388574 0
M  V30 10 S 3.13503 -0.813923 -0.199921 0
M  V30 11 O 3.76399 -2.11694 -0.586903 0
M  V30 12 O 3.43838 -0.458166 1.21816 0
M  V30 13 N 3.71959 0.484723 -1.19646 0
M  V30 14 H -0.43712 2.53364 0.315133 0
M  V30 15 H 0.0781037 2.81362 1.95237 0
M  V30 16 H -2.13414 0.998616 1.8501 0
M  V30 17 H -0.474202 0.753161 2.58537 0
M  V30 18 H -1.82866 1.35335 -0.646337 0
M  V30 19 H -0.478367 0.646393 -1.54924 0
M  V30 20 H -3.03687 -0.326659 -1.60389 0
M  V30 21 H -1.58259 -1.45226 -1.75055 0
M  V30 22 H -3.26343 -0.692143 0.696291 0
M  V30 23 H -2.84604 -2.33482 0.140106 0
M  V30 24 H -1.24892 -1.40749 2.01323 0
M  V30 25 H -0.506048 -2.00297 0.429331 0
M  V30 26 H 1.33594 1.03903 0.419137 0
M  V30 27 H 1.22669 -0.330007 1.59218 0
M  V30 28 H 1.16261 -0.548394 -1.35299 0
M  V30 29 H 3.75537 1.35317 -0.640483 0
M  V30 30 H 3.17088 0.577816 -2.07335 0
M  V30 END ATOM
M  V30 BEGIN BOND
M  V30 1 1 1 2
M  V30 2 1 2 3
M  V30 3 1 3 4
M  V30 4 1 4 5
M  V30 5 1 5 6
M  V30 6 1 6 7
M  V30 7 1 3 8
M  V30 8 1 8 9
M  V30 9 1 9 10
M  V30 10 2 10 11
M  V30 11 2 10 12
M  V30 12 1 10 13
M  V30 13 1 7 3
M  V30 14 1 1 14
M  V30 15 1 1 15
M  V30 16 1 2 16
M  V30 17 1 2 17
M  V30 18 1 4 18
M  V30 19 1 4 19
M  V30 20 1 5 20
M  V30 21 1 5 21
M  V30 22 1 6 22
M  V30 23 1 6 23
M  V30 24 1 7 24
M  V30 25 1 7 25
M  V30 26 1 8 26
M  V30 27 1 8 27
M  V30 28 1 9 28
M  V30 29 1 13 29
M  V30 30 1 13 30
M  V30 END BOND
M  V30 END CTAB
M  END
