
     RDKit          3D

  0  0  0  0  0  0  0  0  0  0999 V3000
M  V30 BEGIN CTAB
M  V30 COUNTS 30 30 0 0 0
M  V30 BEGIN ATOM
M  V30 1 C -3.37772 0.235902 -0.326454 0
M  V30 2 C -2.22721 -0.508032 0.284166 0
M  V30 3 C -0.909529 -0.177127 -0.387276 0
M  V30 4 C 0.216773 -0.9151 0.22048 0
M  V30 5 C 1.55128 -0.676782 -0.341203 0
M  V30 6 C 2.09925 -1.5225 -1.2826 0
M  V30 7 N 3.30437 -1.24255 -1.77855 0
M  V30 8 C 4.02887 -0.171836 -1.41267 0
M  V30 9 C 3.52241 0.692484 -0.480932 0
M  V30 10 C 2.26238 0.429152 0.0597925 0
M  V30 11 N 1.77238 1.33324 1.05135 0
M  V30 12 N -0.814208 1.22339 -0.52436 0
M  V30 13 C -2.17693 -0.255711 1.7803 0
M  V30 14 H -4.30729 -0.396133 -0.404572 0
M  V30 15 H -3.16939 0.635527 -1.33817 0
M  V30 16 H -3.66241 1.10216 0.305345 0
M  V30 17 H -2.42888 -1.59911 0.165547 0
M  V30 18 H -1.02603 -0.59878 -1.4392 0
M  V30 19 H 0.0126127 -2.02396 0.148185 0
M  V30 20 H 0.306257 -0.750054 1.33528 0
M  V30 21 H 1.52646 -2.40556 -1.59872 0
M  V30 22 H 5.01903 -0.00312602 -1.86578 0
M  V30 23 H 4.08176 1.55325 -0.173418 0
M  V30 24 H 1.45295 0.980308 1.96021 0
M  V30 25 H 1.74801 2.33611 0.835031 0
M  V30 26 H -1.14879 1.79626 0.264852 0
M  V30 27 H -1.00945 1.60529 -1.46558 0
M  V30 28 H -3.24047 -0.372716 2.13424 0
M  V30 29 H -1.61575 -1.06292 2.27947 0
M  V30 30 H -1.79072 0.758926 1.99523 0
M  V30 END ATOM
M  V30 BEGIN BOND
M  V30 1 1 1 2
M  V30 2 1 2 3
M  V30 3 1 3 4
M  V30 4 1 4 5
M  V30 5 2 5 6
M  V30 6 1 6 7
M  V30 7 2 7 8
M  V30 8 1 8 9
M  V30 9 2 9 10
M  V30 10 1 10 11
M  V30 11 1 3 12
M  V30 12 1 2 13
M  V30 13 1 10 5
M  V30 14 1 1 14
M  V30 15 1 1 15
M  V30 16 1 1 16
M  V30 17 1 2 17
M  V30 18 1 3 18
M  V30 19 1 4 19
M  V30 20 1 4 20
M  V30 21 1 6 21
M  V30 22 1 8 22
M  V30 23 1 9 23
M  V30 24 1 11 24
M  V30 25 1 11 25
M  V30 26 1 12 26
M  V30 27 1 12 27
M  V30 28 1 13 28
M  V30 29 1 13 29
M  V30 30 1 13 30
M  V30 END BOND
M  V30 END CTAB
M  END
