
     RDKit          3D

  0  0  0  0  0  0  0  0  0  0999 V3000
M  V30 BEGIN CTAB
M  V30 COUNTS 27 27 0 0 0
M  V30 BEGIN ATOM
M  V30 1 C 0.589888 -4.30135 -0.194958 0
M  V30 2 C 0.850006 -2.8903 0.299618 0
M  V30 3 C 1.77834 -2.7423 1.2079 0
M  V30 4 C 0.0641197 -1.76711 -0.250818 0
M  V30 5 N 0.365266 -0.472569 0.260756 0
M  V30 6 C -0.381908 0.636448 -0.250726 0
M  V30 7 N -1.33536 0.48681 -1.17761 0
M  V30 8 C -2.06287 1.49122 -1.68876 0
M  V30 9 C -1.80886 2.7627 -1.22595 0
M  V30 10 C -0.833959 2.96334 -0.269856 0
M  V30 11 C -0.108301 1.8774 0.225262 0
M  V30 12 N 0.880197 2.15194 1.20733 0
M  V30 13 N -0.55715 4.26478 0.219687 0
M  V30 14 H 0.717211 -4.2825 -1.29423 0
M  V30 15 H -0.443217 -4.55582 0.0398556 0
M  V30 16 H 1.32214 -5.00587 0.230853 0
M  V30 17 H 2.08227 -1.81764 1.65889 0
M  V30 18 H 2.31618 -3.63161 1.56306 0
M  V30 19 H 0.118596 -1.79076 -1.37427 0
M  V30 20 H -1.03831 -1.96733 -0.0707551 0
M  V30 21 H 1.07873 -0.314916 0.962343 0
M  V30 22 H -2.83085 1.28954 -2.44963 0
M  V30 23 H -2.38012 3.591 -1.62051 0
M  V30 24 H 0.703125 1.90938 2.20339 0
M  V30 25 H 1.79583 2.59296 0.985503 0
M  V30 26 H -1.24666 4.81618 0.76618 0
M  V30 27 H 0.365675 4.70639 0.0374319 0
M  V30 END ATOM
M  V30 BEGIN BOND
M  V30 1 1 1 2
M  V30 2 2 2 3 CFG=2
M  V30 3 1 2 4
M  V30 4 1 4 5
M  V30 5 1 5 6
M  V30 6 2 6 7
M  V30 7 1 7 8
M  V30 8 2 8 9
M  V30 9 1 9 10
M  V30 10 2 10 11
M  V30 11 1 11 12
M  V30 12 1 10 13
M  V30 13 1 11 6
M  V30 14 1 1 14
M  V30 15 1 1 15
M  V30 16 1 1 16
M  V30 17 1 3 17
M  V30 18 1 3 18
M  V30 19 1 4 19
M  V30 20 1 4 20
M  V30 21 1 5 21
M  V30 22 1 8 22
M  V30 23 1 9 23
M  V30 24 1 12 24
M  V30 25 1 12 25
M  V30 26 1 13 26
M  V30 27 1 13 27
M  V30 END BOND
M  V30 END CTAB
M  END
