
     RDKit          3D

  0  0  0  0  0  0  0  0  0  0999 V3000
M  V30 BEGIN CTAB
M  V30 COUNTS 92 92 0 0 0
M  V30 BEGIN ATOM
M  V30 1 N 8.58461 2.95766 2.9152 0
M  V30 2 C 7.37312 3.1291 3.71526 0
M  V30 3 C 6.20596 3.12492 2.76162 0
M  V30 4 O 6.16946 1.94364 2.06716 0
M  V30 5 C 6.0438 0.791924 2.8158 0
M  V30 6 C 5.99184 -0.357483 1.81357 0
M  V30 7 O 5.87555 -1.58574 2.3512 0
M  V30 8 C 4.81665 -1.92871 3.1102 0
M  V30 9 C 3.47372 -1.87551 2.43461 0
M  V30 10 O 3.1418 -0.619115 1.97815 0
M  V30 11 C 1.88691 -0.650897 1.35569 0
M  V30 12 C 1.48827 0.721926 0.866828 0
M  V30 13 O 2.27844 1.31444 -0.0187562 0
M  V30 14 C 2.63846 0.820695 -1.18807 0
M  V30 15 C 1.74655 0.504714 -2.31117 0
M  V30 16 N 0.70888 -0.457274 -2.16401 0
M  V30 17 C 0.9501 -1.88053 -2.34185 0
M  V30 18 O -0.0585492 -2.60015 -2.16976 0
M  V30 19 C 2.25976 -2.39298 -2.68583 0
M  V30 20 C 2.43591 -3.73063 -3.25907 0
M  V30 21 N 1.84562 -4.04231 -4.51479 0
M  V30 22 C 0.631655 -4.67516 -4.81744 0
M  V30 23 O -0.242297 -5.16719 -4.04307 0
M  V30 24 C 0.480321 -4.70916 -6.25342 0
M  V30 25 C 1.53017 -4.13774 -6.79653 0
M  V30 26 C 2.45794 -3.67975 -5.77579 0
M  V30 27 O 3.557 -3.0945 -5.93275 0
M  V30 28 C -0.654575 -0.0477986 -1.91052 0
M  V30 29 C -1.37102 0.20748 -3.22097 0
M  V30 30 O -2.66697 0.59926 -3.12831 0
M  V30 31 C -3.46387 -0.335243 -2.51999 0
M  V30 32 C -4.90658 0.07475 -2.43789 0
M  V30 33 O -5.65795 -0.902878 -1.82707 0
M  V30 34 C -5.30519 -1.22628 -0.537604 0
M  V30 35 C -5.38048 -0.010872 0.382609 0
M  V30 36 O -6.70453 0.445416 0.352025 0
M  V30 37 C -6.72665 1.57707 1.22771 0
M  V30 38 C -8.10953 2.12308 1.24341 0
M  V30 39 O -8.37231 3.1808 1.96159 0
M  V30 40 C -8.28173 3.36553 3.25912 0
M  V30 41 C -6.95121 3.34015 3.92482 0
M  V30 42 N -7.216 3.59485 5.37208 0
M  V30 43 H 9.38994 2.73901 3.51208 0
M  V30 44 H 8.78178 3.7998 2.34834 0
M  V30 45 H 7.42755 4.0989 4.28151 0
M  V30 46 H 7.27496 2.27307 4.39455 0
M  V30 47 H 6.27064 3.97448 2.04494 0
M  V30 48 H 5.2332 3.22373 3.30029 0
M  V30 49 H 6.98912 0.607527 3.40926 0
M  V30 50 H 5.14783 0.865746 3.44214 0
M  V30 51 H 5.29497 -0.0754024 1.00858 0
M  V30 52 H 7.01434 -0.31413 1.31509 0
M  V30 53 H 4.78867 -1.44486 4.11718 0
M  V30 54 H 4.95657 -3.02844 3.37597 0
M  V30 55 H 2.65616 -2.23879 3.06516 0
M  V30 56 H 3.48853 -2.5338 1.51448 0
M  V30 57 H 1.93682 -1.4212 0.589981 0
M  V30 58 H 1.09902 -0.963923 2.099 0
M  V30 59 H 1.61512 1.36474 1.84507 0
M  V30 60 H 0.3976 0.781997 0.739278 0
M  V30 61 H 3.20908 -0.159765 -0.954297 0
M  V30 62 H 3.44596 1.51042 -1.64212 0
M  V30 63 H 1.29527 1.52108 -2.6324 0
M  V30 64 H 2.34649 0.274241 -3.26586 0
M  V30 65 H 2.8597 -1.67648 -3.31509 0
M  V30 66 H 2.86593 -2.39307 -1.71192 0
M  V30 67 H 3.55256 -3.89949 -3.38973 0
M  V30 68 H 2.17057 -4.54099 -2.50283 0
M  V30 69 H -0.359924 -5.13615 -6.79933 0
M  V30 70 H 1.66194 -4.03482 -7.86281 0
M  V30 71 H -0.601831 0.972589 -1.42244 0
M  V30 72 H -1.17979 -0.695586 -1.21777 0
M  V30 73 H -0.81425 0.968704 -3.82967 0
M  V30 74 H -1.25018 -0.74598 -3.81879 0
M  V30 75 H -3.13337 -0.537623 -1.45819 0
M  V30 76 H -3.37444 -1.3 -3.05104 0
M  V30 77 H -5.27608 0.11229 -3.50551 0
M  V30 78 H -5.03552 1.08034 -1.97744 0
M  V30 79 H -6.09256 -1.94346 -0.13223 0
M  V30 80 H -4.33655 -1.7057 -0.401102 0
M  V30 81 H -4.74622 0.825076 0.0249558 0
M  V30 82 H -5.05274 -0.261521 1.39529 0
M  V30 83 H -6.38095 1.12073 2.18299 0
M  V30 84 H -6.01982 2.2973 0.804008 0
M  V30 85 H -8.37928 2.31378 0.14212 0
M  V30 86 H -8.82513 1.25839 1.52797 0
M  V30 87 H -8.78214 4.37912 3.52621 0
M  V30 88 H -9.01186 2.67425 3.84913 0
M  V30 89 H -6.33113 4.20551 3.58519 0
M  V30 90 H -6.36846 2.44138 3.89079 0
M  V30 91 H -6.34267 3.29869 5.85581 0
M  V30 92 H -7.97842 2.9454 5.64923 0
M  V30 END ATOM
M  V30 BEGIN BOND
M  V30 1 1 1 2
M  V30 2 1 2 3
M  V30 3 1 3 4
M  V30 4 1 4 5
M  V30 5 1 5 6
M  V30 6 1 6 7
M  V30 7 1 7 8
M  V30 8 1 8 9
M  V30 9 1 9 10
M  V30 10 1 10 11
M  V30 11 1 11 12
M  V30 12 1 12 13
M  V30 13 1 13 14
M  V30 14 1 14 15
M  V30 15 1 15 16
M  V30 16 1 16 17
M  V30 17 2 17 18
M  V30 18 1 17 19
M  V30 19 1 19 20
M  V30 20 1 20 21
M  V30 21 1 21 22
M  V30 22 2 22 23
M  V30 23 1 22 24
M  V30 24 2 24 25
M  V30 25 1 25 26
M  V30 26 2 26 27
M  V30 27 1 16 28
M  V30 28 1 28 29
M  V30 29 1 29 30
M  V30 30 1 30 31
M  V30 31 1 31 32
M  V30 32 1 32 33
M  V30 33 1 33 34
M  V30 34 1 34 35
M  V30 35 1 35 36
M  V30 36 1 36 37
M  V30 37 1 37 38
M  V30 38 1 38 39
M  V30 39 1 39 40
M  V30 40 1 40 41
M  V30 41 1 41 42
M  V30 42 1 26 21
M  V30 43 1 1 43
M  V30 44 1 1 44
M  V30 45 1 2 45
M  V30 46 1 2 46
M  V30 47 1 3 47
M  V30 48 1 3 48
M  V30 49 1 5 49
M  V30 50 1 5 50
M  V30 51 1 6 51
M  V30 52 1 6 52
M  V30 53 1 8 53
M  V30 54 1 8 54
M  V30 55 1 9 55
M  V30 56 1 9 56
M  V30 57 1 11 57
M  V30 58 1 11 58
M  V30 59 1 12 59
M  V30 60 1 12 60
M  V30 61 1 14 61
M  V30 62 1 14 62
M  V30 63 1 15 63
M  V30 64 1 15 64
M  V30 65 1 19 65
M  V30 66 1 19 66
M  V30 67 1 20 67
M  V30 68 1 20 68
M  V30 69 1 24 69
M  V30 70 1 25 70
M  V30 71 1 28 71
M  V30 72 1 28 72
M  V30 73 1 29 73
M  V30 74 1 29 74
M  V30 75 1 31 75
M  V30 76 1 31 76
M  V30 77 1 32 77
M  V30 78 1 32 78
M  V30 79 1 34 79
M  V30 80 1 34 80
M  V30 81 1 35 81
M  V30 82 1 35 82
M  V30 83 1 37 83
M  V30 84 1 37 84
M  V30 85 1 38 85
M  V30 86 1 38 86
M  V30 87 1 40 87
M  V30 88 1 40 88
M  V30 89 1 41 89
M  V30 90 1 41 90
M  V30 91 1 42 91
M  V30 92 1 42 92
M  V30 END BOND
M  V30 END CTAB
M  END
