
     RDKit          3D

  0  0  0  0  0  0  0  0  0  0999 V3000
M  V30 BEGIN CTAB
M  V30 COUNTS 57 60 0 0 0
M  V30 BEGIN ATOM
M  V30 1 C -0.29084 0.643093 0.438848 0 CFG=1
M  V30 2 S -0.00235238 -0.0937795 -1.17595 0
M  V30 3 C 1.81673 -0.203729 -1.08778 0
M  V30 4 C 2.37726 1.10655 -0.77678 0
M  V30 5 C 3.6461 1.4386 -1.47648 0
M  V30 6 S 5.04033 0.591736 -0.833161 0
M  V30 7 C 5.23547 -1.12612 -1.1227 0
M  V30 8 N 4.49819 -2.01653 -1.80609 0
M  V30 9 N 5.05246 -3.20545 -1.74625 0
M  V30 10 N 6.15129 -3.09943 -1.02615 0
M  V30 11 N 6.29188 -1.86451 -0.635686 0
M  V30 12 C 7.34107 -1.26695 0.171822 0
M  V30 13 C 8.42124 -0.773031 -0.769215 0
M  V30 14 N 8.97516 -1.8677 -1.56283 0
M  V30 15 C 1.78774 2.00554 -0.0280938 0
M  V30 16 N 0.525557 1.8044 0.561205 0
M  V30 17 C -0.551588 2.27123 1.36444 0
M  V30 18 O -0.638354 2.97542 2.37685 0
M  V30 19 C -1.44942 1.54266 0.445582 0
M  V30 20 N -2.59387 0.886358 1.02499 0
M  V30 21 C -3.80772 0.898519 0.306331 0
M  V30 22 O -3.87747 1.46552 -0.798749 0
M  V30 23 C -4.97272 0.239411 0.876619 0
M  V30 24 N -4.89056 -0.337622 2.01077 0
M  V30 25 O -5.89272 -0.995542 2.67108 0
M  V30 26 C -5.86008 -2.41913 2.80114 0
M  V30 27 C -6.9824 -2.991 3.5865 0
M  V30 28 F -8.19783 -2.72005 3.05447 0
M  V30 29 F -6.80428 -4.37261 3.66612 0
M  V30 30 F -6.86931 -2.53505 4.90883 0
M  V30 31 C -6.25715 0.252326 0.122864 0
M  V30 32 N -7.34302 -0.330517 0.638334 0
M  V30 33 S -8.51401 -0.0741723 -0.537404 0
M  V30 34 C -7.54968 0.782399 -1.65865 0
M  V30 35 N -7.90069 1.33826 -2.94339 0
M  V30 36 N -6.37793 0.812588 -1.04341 0
M  V30 37 C 2.43187 3.29225 0.347478 0
M  V30 38 O 1.75092 4.24186 1.12774 0
M  V30 39 O 3.58033 3.63543 0.0275405 0
M  V30 40 H -0.208602 -0.0342601 1.22409 0
M  V30 41 H 2.0449 -1.01621 -0.408096 0
M  V30 42 H 2.1002 -0.512342 -2.13908 0
M  V30 43 H 3.76529 2.47595 -1.79144 0
M  V30 44 H 3.48378 0.955048 -2.55364 0
M  V30 45 H 6.92751 -0.383527 0.692589 0
M  V30 46 H 7.73971 -1.98311 0.912563 0
M  V30 47 H 9.21821 -0.305416 -0.158986 0
M  V30 48 H 8.04273 -0.0046944 -1.46463 0
M  V30 49 H 8.34405 -2.09688 -2.37233 0
M  V30 50 H 9.95395 -1.65843 -1.87559 0
M  V30 51 H -1.63026 2.02745 -0.531696 0
M  V30 52 H -2.47652 0.429572 1.95467 0
M  V30 53 H -4.89642 -2.67826 3.31428 0
M  V30 54 H -5.78717 -2.84315 1.76751 0
M  V30 55 H -8.40302 0.717066 -3.59555 0
M  V30 56 H -7.64575 2.3104 -3.16199 0
M  V30 57 H 2.12782 4.66956 1.94494 0
M  V30 END ATOM
M  V30 BEGIN BOND
M  V30 1 1 1 2
M  V30 2 1 2 3
M  V30 3 1 3 4
M  V30 4 1 4 5
M  V30 5 1 5 6
M  V30 6 1 6 7
M  V30 7 2 7 8
M  V30 8 1 8 9
M  V30 9 2 9 10
M  V30 10 1 10 11
M  V30 11 1 11 12
M  V30 12 1 12 13
M  V30 13 1 13 14
M  V30 14 2 4 15
M  V30 15 1 15 16
M  V30 16 1 16 17
M  V30 17 2 17 18
M  V30 18 1 17 19
M  V30 19 1 19 20
M  V30 20 1 20 21
M  V30 21 2 21 22
M  V30 22 1 21 23
M  V30 23 2 23 24
M  V30 24 1 24 25
M  V30 25 1 25 26
M  V30 26 1 26 27
M  V30 27 1 27 28
M  V30 28 1 27 29
M  V30 29 1 27 30
M  V30 30 1 23 31
M  V30 31 2 31 32
M  V30 32 1 32 33
M  V30 33 1 33 34
M  V30 34 1 34 35
M  V30 35 2 34 36
M  V30 36 1 15 37
M  V30 37 1 37 38
M  V30 38 2 37 39
M  V30 39 1 16 1
M  V30 40 1 36 31
M  V30 41 1 19 1
M  V30 42 1 11 7
M  V30 43 1 1 40 CFG=1
M  V30 44 1 3 41
M  V30 45 1 3 42
M  V30 46 1 5 43
M  V30 47 1 5 44
M  V30 48 1 12 45
M  V30 49 1 12 46
M  V30 50 1 13 47
M  V30 51 1 13 48
M  V30 52 1 14 49
M  V30 53 1 14 50
M  V30 54 1 19 51
M  V30 55 1 20 52
M  V30 56 1 26 53
M  V30 57 1 26 54
M  V30 58 1 35 55
M  V30 59 1 35 56
M  V30 60 1 38 57
M  V30 END BOND
M  V30 END CTAB
M  END
