
     RDKit          3D

  0  0  0  0  0  0  0  0  0  0999 V3000
M  V30 BEGIN CTAB
M  V30 COUNTS 21 21 0 0 0
M  V30 BEGIN ATOM
M  V30 1 N 3.64401 -0.513829 0.531112 0
M  V30 2 C 2.89501 -0.784713 -0.669971 0
M  V30 3 C 1.4535 -0.407628 -0.428251 0
M  V30 4 N 0.85752 0.755707 -0.632044 0
M  V30 5 C -0.400758 0.895128 -0.363885 0
M  V30 6 C -1.07112 -0.193366 0.12952 0
M  V30 7 S 0.181367 -1.37078 0.175718 0
M  V30 8 C -2.52325 -0.300597 0.519832 0
M  V30 9 N -2.75903 -1.63692 0.980801 0
M  V30 10 C -1.14307 2.20051 -0.574375 0
M  V30 11 H 4.40256 0.172876 0.330901 0
M  V30 12 H 3.0215 -0.234185 1.31265 0
M  V30 13 H 3.29634 -0.3348 -1.57251 0
M  V30 14 H 2.88027 -1.90604 -0.785723 0
M  V30 15 H -3.08385 -0.141063 -0.439974 0
M  V30 16 H -2.72939 0.461425 1.27302 0
M  V30 17 H -2.2337 -1.85202 1.83468 0
M  V30 18 H -2.63528 -2.29394 0.196494 0
M  V30 19 H -0.607767 2.86996 -1.24829 0
M  V30 20 H -1.30207 2.61558 0.440618 0
M  V30 21 H -2.14282 1.99871 -1.01033 0
M  V30 END ATOM
M  V30 BEGIN BOND
M  V30 1 1 1 2
M  V30 2 1 2 3
M  V30 3 2 3 4
M  V30 4 1 4 5
M  V30 5 2 5 6
M  V30 6 1 6 7
M  V30 7 1 6 8
M  V30 8 1 8 9
M  V30 9 1 5 10
M  V30 10 1 7 3
M  V30 11 1 1 11
M  V30 12 1 1 12
M  V30 13 1 2 13
M  V30 14 1 2 14
M  V30 15 1 8 15
M  V30 16 1 8 16
M  V30 17 1 9 17
M  V30 18 1 9 18
M  V30 19 1 10 19
M  V30 20 1 10 20
M  V30 21 1 10 21
M  V30 END BOND
M  V30 END CTAB
M  END
