
     RDKit          3D

  0  0  0  0  0  0  0  0  0  0999 V3000
M  V30 BEGIN CTAB
M  V30 COUNTS 23 24 0 0 0
M  V30 BEGIN ATOM
M  V30 1 N 2.26888 2.05272 1.49802 0
M  V30 2 C 1.88965 0.962826 0.699022 0
M  V30 3 C 0.566238 0.554206 0.577393 0
M  V30 4 C 0.244963 -0.515375 -0.214296 0
M  V30 5 N -1.11637 -0.906667 -0.313363 0
M  V30 6 C -2.11986 -0.176689 0.428777 0
M  V30 7 C -3.53332 -0.660502 0.216112 0
M  V30 8 C -3.0439 0.660661 -0.331791 0
M  V30 9 N 1.20545 -1.20343 -0.899534 0
M  V30 10 C 2.47469 -0.785443 -0.76244 0
M  V30 11 N 2.80102 0.256615 0.00697278 0
M  V30 12 N 3.51331 -1.46138 -1.44995 0
M  V30 13 H 1.55028 2.78737 1.6923 0
M  V30 14 H 3.21647 2.15799 1.89712 0
M  V30 15 H -0.130333 1.15211 1.1495 0
M  V30 16 H -1.39768 -1.71911 -0.91927 0
M  V30 17 H -1.84235 0.145061 1.45877 0
M  V30 18 H -3.70429 -1.50886 -0.450371 0
M  V30 19 H -4.19665 -0.654873 1.10645 0
M  V30 20 H -3.56286 1.54403 0.122228 0
M  V30 21 H -2.9328 0.771469 -1.44274 0
M  V30 22 H 4.3028 -0.947172 -1.90043 0
M  V30 23 H 3.54667 -2.50555 -1.54375 0
M  V30 END ATOM
M  V30 BEGIN BOND
M  V30 1 1 1 2
M  V30 2 2 2 3
M  V30 3 1 3 4
M  V30 4 1 4 5
M  V30 5 1 5 6
M  V30 6 1 6 7
M  V30 7 1 7 8
M  V30 8 2 4 9
M  V30 9 1 9 10
M  V30 10 2 10 11
M  V30 11 1 10 12
M  V30 12 1 11 2
M  V30 13 1 8 6
M  V30 14 1 1 13
M  V30 15 1 1 14
M  V30 16 1 3 15
M  V30 17 1 5 16
M  V30 18 1 6 17
M  V30 19 1 7 18
M  V30 20 1 7 19
M  V30 21 1 8 20
M  V30 22 1 8 21
M  V30 23 1 12 22
M  V30 24 1 12 23
M  V30 END BOND
M  V30 END CTAB
M  END
