
     RDKit          3D

  0  0  0  0  0  0  0  0  0  0999 V3000
M  V30 BEGIN CTAB
M  V30 COUNTS 20 20 0 0 0
M  V30 BEGIN ATOM
M  V30 1 C -0.175469 1.34805 -1.22426 0
M  V30 2 C -0.157044 0.34241 -0.0565749 0
M  V30 3 C -1.10285 -0.755055 -0.459756 0
M  V30 4 N -1.23489 -1.8001 0.491088 0
M  V30 5 N -0.5661 1.04207 1.11883 0
M  V30 6 C 0.524493 1.01287 2.01605 0
M  V30 7 O 0.585277 1.51365 3.16899 0
M  V30 8 N 1.55385 0.300273 1.35903 0
M  V30 9 C 1.19934 -0.088491 0.19309 0
M  V30 10 N 2.07868 -0.839197 -0.679842 0
M  V30 11 H -1.21439 1.70903 -1.28551 0
M  V30 12 H 0.469058 2.1895 -0.898478 0
M  V30 13 H 0.174942 0.868367 -2.15475 0
M  V30 14 H -0.740892 -1.16202 -1.41936 0
M  V30 15 H -2.09313 -0.302924 -0.634485 0
M  V30 16 H -0.412445 -2.39421 0.641095 0
M  V30 17 H -2.14757 -2.26673 0.53189 0
M  V30 18 H -1.52305 1.49459 1.26875 0
M  V30 19 H 2.01531 -0.724456 -1.70558 0
M  V30 20 H 2.76688 -1.48764 -0.270222 0
M  V30 END ATOM
M  V30 BEGIN BOND
M  V30 1 1 1 2
M  V30 2 1 2 3
M  V30 3 1 3 4
M  V30 4 1 2 5
M  V30 5 1 5 6
M  V30 6 2 6 7
M  V30 7 1 6 8
M  V30 8 2 8 9
M  V30 9 1 9 10
M  V30 10 1 9 2
M  V30 11 1 1 11
M  V30 12 1 1 12
M  V30 13 1 1 13
M  V30 14 1 3 14
M  V30 15 1 3 15
M  V30 16 1 4 16
M  V30 17 1 4 17
M  V30 18 1 5 18
M  V30 19 1 10 19
M  V30 20 1 10 20
M  V30 END BOND
M  V30 END CTAB
M  END
