
     RDKit          3D

  0  0  0  0  0  0  0  0  0  0999 V3000
M  V30 BEGIN CTAB
M  V30 COUNTS 48 51 0 0 0
M  V30 BEGIN ATOM
M  V30 1 Cl -6.57139 -5.47953 -0.733979 0
M  V30 2 C -5.4423 -4.18742 -0.340121 0
M  V30 3 C -5.76973 -2.90266 -0.729191 0
M  V30 4 C -4.87611 -1.90586 -0.41339 0
M  V30 5 C -3.67572 -2.14112 0.271636 0
M  V30 6 C -3.36137 -3.41293 0.651911 0
M  V30 7 C -4.2732 -4.41902 0.327705 0
M  V30 8 Cl -1.89447 -3.81484 1.52343 0
M  V30 9 C -2.79172 -0.988404 0.543828 0
M  V30 10 C -1.61979 -0.869899 -0.376889 0
M  V30 11 N -0.831628 0.333667 -0.110493 0
M  V30 12 C 0.216979 0.395151 0.71339 0
M  V30 13 S 0.789575 -1.05326 1.5744 0
M  V30 14 C 2.00149 -1.88622 0.521075 0
M  V30 15 C 3.1936 -1.00754 0.387537 0
M  V30 16 N 3.28474 -0.0769884 -0.588928 0
M  V30 17 C 4.36311 0.71165 -0.713774 0
M  V30 18 N 4.48566 1.69422 -1.72582 0
M  V30 19 N 5.37124 0.553963 0.170456 0
M  V30 20 C 5.28904 -0.369278 1.14512 0
M  V30 21 N 4.20937 -1.15506 1.26572 0
M  V30 22 N 6.35198 -0.548937 2.08796 0
M  V30 23 N 0.898568 1.56419 0.918354 0
M  V30 24 C 0.555336 2.70317 0.308315 0
M  V30 25 C -0.518209 2.68934 -0.5508 0
M  V30 26 C -1.17347 1.50386 -0.728778 0
M  V30 27 O -2.15736 1.47282 -1.50992 0
M  V30 28 C -0.910355 3.85933 -1.21148 0
M  V30 29 C -0.243686 5.04364 -1.02438 0
M  V30 30 C 0.829759 5.05311 -0.163858 0
M  V30 31 C 1.2207 3.90514 0.48893 0
M  V30 32 H -6.69148 -2.68655 -1.26085 0
M  V30 33 H -5.13054 -0.88955 -0.719313 0
M  V30 34 H -4.04181 -5.45454 0.622639 0
M  V30 35 H -2.47115 -1.0917 1.62089 0
M  V30 36 H -3.38162 -0.0333191 0.425377 0
M  V30 37 H -0.923193 -1.73098 -0.238553 0
M  V30 38 H -1.93587 -0.837432 -1.42028 0
M  V30 39 H 1.59046 -2.196 -0.446434 0
M  V30 40 H 2.30982 -2.82765 1.06535 0
M  V30 41 H 3.8995 1.67403 -2.57574 0
M  V30 42 H 5.17866 2.45382 -1.61526 0
M  V30 43 H 7.07438 -1.27405 1.86413 0
M  V30 44 H 6.44967 -0.0188998 2.95678 0
M  V30 45 H -1.75981 3.79929 -1.87736 0
M  V30 46 H -0.536579 5.97227 -1.53479 0
M  V30 47 H 1.35597 5.99098 -0.0173168 0
M  V30 48 H 2.06295 3.88601 1.17274 0
M  V30 END ATOM
M  V30 BEGIN BOND
M  V30 1 1 1 2
M  V30 2 2 2 3
M  V30 3 1 3 4
M  V30 4 2 4 5
M  V30 5 1 5 6
M  V30 6 2 6 7
M  V30 7 1 6 8
M  V30 8 1 5 9
M  V30 9 1 9 10
M  V30 10 1 10 11
M  V30 11 1 11 12
M  V30 12 1 12 13
M  V30 13 1 13 14
M  V30 14 1 14 15
M  V30 15 2 15 16
M  V30 16 1 16 17
M  V30 17 1 17 18
M  V30 18 2 17 19
M  V30 19 1 19 20
M  V30 20 2 20 21
M  V30 21 1 20 22
M  V30 22 2 12 23
M  V30 23 1 23 24
M  V30 24 2 24 25
M  V30 25 1 25 26
M  V30 26 2 26 27
M  V30 27 1 25 28
M  V30 28 2 28 29
M  V30 29 1 29 30
M  V30 30 2 30 31
M  V30 31 1 7 2
M  V30 32 1 26 11
M  V30 33 1 21 15
M  V30 34 1 31 24
M  V30 35 1 3 32
M  V30 36 1 4 33
M  V30 37 1 7 34
M  V30 38 1 9 35
M  V30 39 1 9 36
M  V30 40 1 10 37
M  V30 41 1 10 38
M  V30 42 1 14 39
M  V30 43 1 14 40
M  V30 44 1 18 41
M  V30 45 1 18 42
M  V30 46 1 22 43
M  V30 47 1 22 44
M  V30 48 1 28 45
M  V30 49 1 29 46
M  V30 50 1 30 47
M  V30 51 1 31 48
M  V30 END BOND
M  V30 END CTAB
M  END
