
     RDKit          3D

  0  0  0  0  0  0  0  0  0  0999 V3000
M  V30 BEGIN CTAB
M  V30 COUNTS 43 45 0 0 0
M  V30 BEGIN ATOM
M  V30 1 N 7.20316 -0.404383 0.0550424 0
M  V30 2 C 5.77458 -0.31241 0.0134179 0
M  V30 3 C 5.03424 -1.3862 0.456291 0
M  V30 4 C 3.65623 -1.34205 0.434563 0
M  V30 5 C 2.96459 -0.224949 -0.0297925 0
M  V30 6 C 3.74066 0.821143 -0.460991 0
M  V30 7 C 5.1267 0.791384 -0.445284 0
M  V30 8 N 1.54993 -0.254991 -0.014765 0
M  V30 9 C 0.824493 0.833602 -0.626371 0
M  V30 10 C -0.472496 0.203933 -1.16087 0
M  V30 11 N -1.23982 -0.159222 0.0122773 0
M  V30 12 C -0.580423 -0.992346 0.989015 0
M  V30 13 C 0.831969 -1.32399 0.593039 0
M  V30 14 C -2.5592 0.302944 0.145946 0
M  V30 15 C -3.00466 1.09859 1.18048 0
M  V30 16 C -4.29787 1.53558 1.28575 0
M  V30 17 C -5.22128 1.18821 0.340541 0
M  V30 18 C -4.81561 0.390289 -0.715055 0
M  V30 19 C -3.49359 -0.0439418 -0.803313 0
M  V30 20 C -3.07231 -0.901099 -1.94269 0
M  V30 21 N -6.58844 1.6271 0.415968 0
M  V30 22 H 7.71164 -0.151285 0.91507 0
M  V30 23 H 7.70798 -0.728083 -0.791379 0
M  V30 24 H 5.57348 -2.26318 0.820863 0
M  V30 25 H 3.13734 -2.212 0.792402 0
M  V30 26 H 3.22936 1.72061 -0.831411 0
M  V30 27 H 5.65591 1.64366 -0.796979 0
M  V30 28 H 1.37167 1.3195 -1.46052 0
M  V30 29 H 0.603358 1.56844 0.160162 0
M  V30 30 H -0.255951 -0.704229 -1.72122 0
M  V30 31 H -0.958818 1.00927 -1.748 0
M  V30 32 H -0.600994 -0.547315 1.98219 0
M  V30 33 H -1.13803 -1.95294 1.03324 0
M  V30 34 H 0.870786 -2.24568 -0.0304721 0
M  V30 35 H 1.36962 -1.57135 1.55564 0
M  V30 36 H -2.2624 1.37114 1.92992 0
M  V30 37 H -4.58631 2.14894 2.10743 0
M  V30 38 H -5.5425 0.113806 -1.46384 0
M  V30 39 H -2.64633 -0.348696 -2.77915 0
M  V30 40 H -3.98806 -1.41433 -2.33079 0
M  V30 41 H -2.4208 -1.72696 -1.56768 0
M  V30 42 H -7.19349 1.15734 1.11823 0
M  V30 43 H -6.99829 2.36616 -0.173361 0
M  V30 END ATOM
M  V30 BEGIN BOND
M  V30 1 1 1 2
M  V30 2 2 2 3
M  V30 3 1 3 4
M  V30 4 2 4 5
M  V30 5 1 5 6
M  V30 6 2 6 7
M  V30 7 1 5 8
M  V30 8 1 8 9
M  V30 9 1 9 10
M  V30 10 1 10 11
M  V30 11 1 11 12
M  V30 12 1 12 13
M  V30 13 1 11 14
M  V30 14 2 14 15
M  V30 15 1 15 16
M  V30 16 2 16 17
M  V30 17 1 17 18
M  V30 18 2 18 19
M  V30 19 1 19 20
M  V30 20 1 17 21
M  V30 21 1 7 2
M  V30 22 1 13 8
M  V30 23 1 19 14
M  V30 24 1 1 22
M  V30 25 1 1 23
M  V30 26 1 3 24
M  V30 27 1 4 25
M  V30 28 1 6 26
M  V30 29 1 7 27
M  V30 30 1 9 28
M  V30 31 1 9 29
M  V30 32 1 10 30
M  V30 33 1 10 31
M  V30 34 1 12 32
M  V30 35 1 12 33
M  V30 36 1 13 34
M  V30 37 1 13 35
M  V30 38 1 15 36
M  V30 39 1 16 37
M  V30 40 1 18 38
M  V30 41 1 20 39
M  V30 42 1 20 40
M  V30 43 1 20 41
M  V30 44 1 21 42
M  V30 45 1 21 43
M  V30 END BOND
M  V30 END CTAB
M  END
