
     RDKit          3D

  0  0  0  0  0  0  0  0  0  0999 V3000
M  V30 BEGIN CTAB
M  V30 COUNTS 14 14 0 0 0
M  V30 BEGIN ATOM
M  V30 1 N 0.548987 -1.61739 0.435969 0
M  V30 2 C 0.288326 -0.264973 0.0964534 0
M  V30 3 C 1.3465 0.635383 0.0689533 0
M  V30 4 Cl 2.98689 0.179023 0.433781 0
M  V30 5 C 1.06256 1.95122 -0.26627 0
M  V30 6 N -0.212166 2.28144 -0.544377 0
M  V30 7 N -1.21285 1.42223 -0.516662 0
M  V30 8 C -1.00213 0.131379 -0.198731 0
M  V30 9 N -2.06825 -0.818505 -0.161585 0
M  V30 10 H 1.51414 -1.94844 0.636512 0
M  V30 11 H -0.213545 -2.32147 0.495686 0
M  V30 12 H 1.87283 2.66844 -0.293444 0
M  V30 13 H -2.4088 -1.3426 -0.984337 0
M  V30 14 H -2.50251 -0.95574 0.798052 0
M  V30 END ATOM
M  V30 BEGIN BOND
M  V30 1 1 1 2
M  V30 2 2 2 3
M  V30 3 1 3 4
M  V30 4 1 3 5
M  V30 5 2 5 6
M  V30 6 1 6 7
M  V30 7 2 7 8
M  V30 8 1 8 9
M  V30 9 1 8 2
M  V30 10 1 1 10
M  V30 11 1 1 11
M  V30 12 1 5 12
M  V30 13 1 9 13
M  V30 14 1 9 14
M  V30 END BOND
M  V30 END CTAB
M  END
