
     RDKit          3D

  0  0  0  0  0  0  0  0  0  0999 V3000
M  V30 BEGIN CTAB
M  V30 COUNTS 26 27 0 0 0
M  V30 BEGIN ATOM
M  V30 1 F 4.25343 -0.612109 1.0051 0
M  V30 2 C 2.94635 -0.451216 0.681576 0
M  V30 3 C 2.03954 -1.45564 0.903721 0
M  V30 4 C 0.710103 -1.26583 0.564209 0
M  V30 5 C 0.224254 -0.10363 0.00316721 0
M  V30 6 C 1.15261 0.894762 -0.212473 0
M  V30 7 C 2.47309 0.73804 0.111863 0
M  V30 8 N 3.45328 1.74987 -0.0988858 0
M  V30 9 F 0.733261 2.05271 -0.758929 0
M  V30 10 C -1.18156 -0.0185129 -0.322671 0
M  V30 11 N -1.52088 0.190086 -1.71548 0
M  V30 12 C -1.99303 -1.15937 0.230111 0
M  V30 13 C -3.16337 -0.143316 0.18699 0
M  V30 14 C -2.05303 0.873156 0.535352 0
M  V30 15 H 2.38338 -2.39611 1.34819 0
M  V30 16 H 0.0385184 -2.09814 0.756307 0
M  V30 17 H 3.97433 1.80885 -0.997261 0
M  V30 18 H 3.62417 2.41991 0.674905 0
M  V30 19 H -0.873422 0.80219 -2.22102 0
M  V30 20 H -1.697 -0.73503 -2.15093 0
M  V30 21 H -2.17345 -2.0006 -0.440222 0
M  V30 22 H -1.73842 -1.40772 1.28925 0
M  V30 23 H -3.90175 -0.287701 0.972518 0
M  V30 24 H -3.50401 -0.0759814 -0.852227 0
M  V30 25 H -2.31539 1.85373 0.0941506 0
M  V30 26 H -1.89099 0.827585 1.61288 0
M  V30 END ATOM
M  V30 BEGIN BOND
M  V30 1 1 1 2
M  V30 2 2 2 3
M  V30 3 1 3 4
M  V30 4 2 4 5
M  V30 5 1 5 6
M  V30 6 2 6 7
M  V30 7 1 7 8
M  V30 8 1 6 9
M  V30 9 1 5 10
M  V30 10 1 10 11
M  V30 11 1 10 12
M  V30 12 1 12 13
M  V30 13 1 13 14
M  V30 14 1 7 2
M  V30 15 1 14 10
M  V30 16 1 3 15
M  V30 17 1 4 16
M  V30 18 1 8 17
M  V30 19 1 8 18
M  V30 20 1 11 19
M  V30 21 1 11 20
M  V30 22 1 12 21
M  V30 23 1 12 22
M  V30 24 1 13 23
M  V30 25 1 13 24
M  V30 26 1 14 25
M  V30 27 1 14 26
M  V30 END BOND
M  V30 END CTAB
M  END
