
     RDKit          3D

  0  0  0  0  0  0  0  0  0  0999 V3000
M  V30 BEGIN CTAB
M  V30 COUNTS 45 46 0 0 0
M  V30 BEGIN ATOM
M  V30 1 N -7.02774 1.87428 -2.14891 0
M  V30 2 C -5.59332 1.65696 -2.14272 0
M  V30 3 C -5.21464 0.904837 -0.900332 0
M  V30 4 C -3.7162 0.644769 -0.834825 0
M  V30 5 O -3.35823 -0.0548859 0.31962 0
M  V30 6 C -2.09133 -0.43532 0.661929 0
M  V30 7 C -1.02569 -0.127302 -0.171947 0
M  V30 8 C 0.278219 -0.501176 0.148795 0
M  V30 9 C 0.467751 -1.18707 1.32353 0
M  V30 10 C -0.604125 -1.50038 2.16853 0
M  V30 11 C -1.88968 -1.12532 1.84077 0
M  V30 12 O -2.9721 -1.40689 2.63189 0
M  V30 13 C -2.9404 -2.09162 3.84656 0
M  V30 14 C 1.39478 -0.177968 -0.725789 0
M  V30 15 O 1.16179 0.459493 -1.80321 0
M  V30 16 N 2.74215 -0.52389 -0.465755 0
M  V30 17 C 3.80057 -0.165895 -1.38703 0
M  V30 18 C 4.80743 0.663291 -0.656363 0
M  V30 19 N 4.63449 1.6774 0.178562 0
M  V30 20 N 5.62731 2.25295 0.698088 0
M  V30 21 C 6.86093 1.84676 0.412418 0
M  V30 22 S 6.53076 0.558759 -0.671023 0
M  V30 23 N 8.11423 2.35324 0.885545 0
M  V30 24 C 4.52343 -1.43282 -1.81501 0
M  V30 25 H -7.50129 1.01745 -1.78727 0
M  V30 26 H -7.29678 2.7193 -1.58969 0
M  V30 27 H -5.13225 2.68058 -2.11471 0
M  V30 28 H -5.31106 1.14121 -3.073 0
M  V30 29 H -5.46379 1.55477 -0.0297699 0
M  V30 30 H -5.79456 -0.020849 -0.852979 0
M  V30 31 H -3.16034 1.58472 -0.99429 0
M  V30 32 H -3.48214 -0.0088288 -1.71622 0
M  V30 33 H -1.15244 0.415093 -1.10708 0
M  V30 34 H 1.46295 -1.50014 1.61784 0
M  V30 35 H -0.419516 -2.04829 3.0981 0
M  V30 36 H -2.66143 -3.15007 3.70971 0
M  V30 37 H -2.29348 -1.57684 4.61365 0
M  V30 38 H -3.98128 -2.03469 4.27916 0
M  V30 39 H 3.00253 -1.04761 0.401074 0
M  V30 40 H 3.39661 0.38312 -2.26048 0
M  V30 41 H 8.60849 1.94926 1.68308 0
M  V30 42 H 8.51666 3.16556 0.379986 0
M  V30 43 H 5.58199 -1.16655 -2.03484 0
M  V30 44 H 4.55725 -2.10079 -0.930625 0
M  V30 45 H 4.01352 -1.89104 -2.68497 0
M  V30 END ATOM
M  V30 BEGIN BOND
M  V30 1 1 1 2
M  V30 2 1 2 3
M  V30 3 1 3 4
M  V30 4 1 4 5
M  V30 5 1 5 6
M  V30 6 2 6 7
M  V30 7 1 7 8
M  V30 8 2 8 9
M  V30 9 1 9 10
M  V30 10 2 10 11
M  V30 11 1 11 12
M  V30 12 1 12 13
M  V30 13 1 8 14
M  V30 14 2 14 15
M  V30 15 1 14 16
M  V30 16 1 16 17
M  V30 17 1 17 18
M  V30 18 2 18 19
M  V30 19 1 19 20
M  V30 20 2 20 21
M  V30 21 1 21 22
M  V30 22 1 21 23
M  V30 23 1 17 24
M  V30 24 1 11 6
M  V30 25 1 22 18
M  V30 26 1 1 25
M  V30 27 1 1 26
M  V30 28 1 2 27
M  V30 29 1 2 28
M  V30 30 1 3 29
M  V30 31 1 3 30
M  V30 32 1 4 31
M  V30 33 1 4 32
M  V30 34 1 7 33
M  V30 35 1 9 34
M  V30 36 1 10 35
M  V30 37 1 13 36
M  V30 38 1 13 37
M  V30 39 1 13 38
M  V30 40 1 16 39
M  V30 41 1 17 40
M  V30 42 1 23 41
M  V30 43 1 23 42
M  V30 44 1 24 43
M  V30 45 1 24 44
M  V30 46 1 24 45
M  V30 END BOND
M  V30 END CTAB
M  END
