
     RDKit          3D

  0  0  0  0  0  0  0  0  0  0999 V3000
M  V30 BEGIN CTAB
M  V30 COUNTS 44 46 0 0 0
M  V30 BEGIN ATOM
M  V30 1 N -2.9192 -0.943334 -2.19826 0
M  V30 2 C -3.15939 -0.57089 -0.822558 0
M  V30 3 C -4.52072 0.0224664 -0.610994 0
M  V30 4 C -4.49569 1.50659 -0.350777 0
M  V30 5 C -3.64283 1.87651 0.839058 0
M  V30 6 C -2.56458 0.873592 1.03299 0
M  V30 7 C -2.13235 0.405056 -0.365353 0
M  V30 8 C -0.792555 -0.17594 -0.0660262 0
M  V30 9 N -0.200282 0.80617 0.82299 0
M  V30 10 C -1.26355 1.45062 1.53599 0
M  V30 11 S 0.855835 0.00722096 1.93434 0
M  V30 12 O 0.0296495 -1.03572 2.65319 0
M  V30 13 O 1.40762 1.01803 2.86797 0
M  V30 14 C 2.14616 -0.783032 1.05263 0
M  V30 15 C 2.02157 -2.09379 0.606067 0
M  V30 16 C 3.02022 -2.7401 -0.0896141 0
M  V30 17 C 4.20435 -2.06262 -0.361058 0
M  V30 18 C 4.36201 -0.759647 0.0676777 0
M  V30 19 C 3.34147 -0.154259 0.757493 0
M  V30 20 S 5.87376 0.0488688 -0.300473 0
M  V30 21 O 6.98794 -0.949732 -0.278633 0
M  V30 22 O 6.08741 1.07522 0.79145 0
M  V30 23 N 5.79406 0.866522 -1.81208 0
M  V30 24 H -1.93977 -0.679304 -2.49519 0
M  V30 25 H -2.93621 -1.99638 -2.26366 0
M  V30 26 H -3.08406 -1.47414 -0.157817 0
M  V30 27 H -5.09488 -0.127483 -1.55067 0
M  V30 28 H -5.10369 -0.502377 0.180881 0
M  V30 29 H -5.53971 1.80188 -0.0935065 0
M  V30 30 H -4.2241 2.06627 -1.26229 0
M  V30 31 H -4.26595 1.94531 1.77681 0
M  V30 32 H -3.24892 2.89992 0.680017 0
M  V30 33 H -2.91471 0.00997259 1.60441 0
M  V30 34 H -2.03978 1.27281 -1.04258 0
M  V30 35 H -0.156973 -0.28325 -0.98158 0
M  V30 36 H -0.934271 -1.13397 0.453897 0
M  V30 37 H -1.20834 2.55836 1.38159 0
M  V30 38 H -1.1855 1.26735 2.62344 0
M  V30 39 H 1.09862 -2.61665 0.81963 0
M  V30 40 H 2.91024 -3.75983 -0.431172 0
M  V30 41 H 4.98677 -2.57241 -0.90742 0
M  V30 42 H 3.4763 0.861848 1.08649 0
M  V30 43 H 6.17771 1.83008 -1.71388 0
M  V30 44 H 4.78632 0.944205 -2.07237 0
M  V30 END ATOM
M  V30 BEGIN BOND
M  V30 1 1 1 2
M  V30 2 1 2 3
M  V30 3 1 3 4
M  V30 4 1 4 5
M  V30 5 1 5 6
M  V30 6 1 6 7
M  V30 7 1 7 8
M  V30 8 1 8 9
M  V30 9 1 9 10
M  V30 10 1 9 11
M  V30 11 2 11 12
M  V30 12 2 11 13
M  V30 13 1 11 14
M  V30 14 2 14 15
M  V30 15 1 15 16
M  V30 16 2 16 17
M  V30 17 1 17 18
M  V30 18 2 18 19
M  V30 19 1 18 20
M  V30 20 2 20 21
M  V30 21 2 20 22
M  V30 22 1 20 23
M  V30 23 1 7 2
M  V30 24 1 19 14
M  V30 25 1 10 6
M  V30 26 1 1 24
M  V30 27 1 1 25
M  V30 28 1 2 26
M  V30 29 1 3 27
M  V30 30 1 3 28
M  V30 31 1 4 29
M  V30 32 1 4 30
M  V30 33 1 5 31
M  V30 34 1 5 32
M  V30 35 1 6 33
M  V30 36 1 7 34
M  V30 37 1 8 35
M  V30 38 1 8 36
M  V30 39 1 10 37
M  V30 40 1 10 38
M  V30 41 1 15 39
M  V30 42 1 16 40
M  V30 43 1 17 41
M  V30 44 1 19 42
M  V30 45 1 23 43
M  V30 46 1 23 44
M  V30 END BOND
M  V30 END CTAB
M  END
