
     RDKit          3D

  0  0  0  0  0  0  0  0  0  0999 V3000
M  V30 BEGIN CTAB
M  V30 COUNTS 53 57 0 0 0
M  V30 BEGIN ATOM
M  V30 1 O -2.65982 -1.80592 0.679565 0
M  V30 2 C -2.33031 -0.595962 0.77218 0
M  V30 3 C -0.92549 -0.215639 0.564501 0
M  V30 4 C 0.105428 -1.04916 0.271793 0
M  V30 5 N 0.0263959 -2.44663 0.109947 0
M  V30 6 N 1.26446 -0.353277 0.148635 0
M  V30 7 C 0.964205 0.944692 0.366952 0
M  V30 8 C -0.402788 1.05449 0.629552 0
M  V30 9 N -0.986043 2.23834 0.884974 0
M  V30 10 C -0.253233 3.38086 0.895697 0
M  V30 11 C -0.871895 4.59928 1.16192 0
M  V30 12 C -0.0874388 5.73209 1.16203 0
M  V30 13 C 1.25632 5.66569 0.909127 0
M  V30 14 C 1.8376 4.44449 0.649352 0
M  V30 15 C 1.09562 3.27002 0.636265 0
M  V30 16 N 1.68208 2.08089 0.379596 0
M  V30 17 C 2.54394 -0.890056 -0.151873 0
M  V30 18 C 3.35347 -0.337736 -1.15121 0
M  V30 19 C 4.59393 -0.873934 -1.42822 0
M  V30 20 C 5.08114 -1.96151 -0.741378 0
M  V30 21 C 4.30924 -2.52565 0.245527 0
M  V30 22 C 3.07383 -1.97769 0.50875 0
M  V30 23 S 6.65945 -2.64737 -1.09055 0
M  V30 24 O 6.98166 -2.36046 -2.52178 0
M  V30 25 O 6.69578 -4.11251 -0.867601 0
M  V30 26 N 7.85253 -1.86207 -0.0936366 0
M  V30 27 O -3.30699 0.327089 1.06631 0
M  V30 28 C -4.65911 -0.00886895 1.26805 0
M  V30 29 C -5.323 -0.640899 0.129617 0
M  V30 30 C -5.611 0.138523 -0.987826 0
M  V30 31 C -6.24309 -0.454058 -2.05113 0
M  V30 32 C -6.58555 -1.79032 -2.01489 0
M  V30 33 C -6.30225 -2.54621 -0.92218 0
M  V30 34 C -5.66901 -1.96966 0.153359 0
M  V30 35 H 0.438826 -2.88308 -0.728229 0
M  V30 36 H -0.438948 -3.02944 0.821553 0
M  V30 37 H -1.93295 4.65274 1.36175 0
M  V30 38 H -0.511796 6.72724 1.36474 0
M  V30 39 H 1.89873 6.55144 0.903923 0
M  V30 40 H 2.88964 4.36491 0.447871 0
M  V30 41 H 2.96916 0.524332 -1.69679 0
M  V30 42 H 5.2128 -0.433519 -2.20869 0
M  V30 43 H 4.69302 -3.39024 0.793717 0
M  V30 44 H 2.47742 -2.43072 1.28684 0
M  V30 45 H 7.38161 -1.59132 0.790395 0
M  V30 46 H 8.60098 -2.54307 0.166076 0
M  V30 47 H -4.69392 -0.734566 2.13281 0
M  V30 48 H -5.22887 0.876874 1.65412 0
M  V30 49 H -5.32785 1.1837 -0.98181 0
M  V30 50 H -6.47619 0.141401 -2.93424 0
M  V30 51 H -7.08478 -2.21401 -2.88142 0
M  V30 52 H -6.56634 -3.60834 -0.875136 0
M  V30 53 H -5.46063 -2.61518 1.01109 0
M  V30 END ATOM
M  V30 BEGIN BOND
M  V30 1 2 1 2
M  V30 2 1 2 3
M  V30 3 2 3 4
M  V30 4 1 4 5
M  V30 5 1 4 6
M  V30 6 1 6 7
M  V30 7 2 7 8
M  V30 8 1 8 9
M  V30 9 2 9 10
M  V30 10 1 10 11
M  V30 11 2 11 12
M  V30 12 1 12 13
M  V30 13 2 13 14
M  V30 14 1 14 15
M  V30 15 2 15 16
M  V30 16 1 6 17
M  V30 17 2 17 18
M  V30 18 1 18 19
M  V30 19 2 19 20
M  V30 20 1 20 21
M  V30 21 2 21 22
M  V30 22 1 20 23
M  V30 23 2 23 24
M  V30 24 2 23 25
M  V30 25 1 23 26
M  V30 26 1 2 27
M  V30 27 1 27 28
M  V30 28 1 28 29
M  V30 29 2 29 30
M  V30 30 1 30 31
M  V30 31 2 31 32
M  V30 32 1 32 33
M  V30 33 2 33 34
M  V30 34 1 8 3
M  V30 35 1 15 10
M  V30 36 1 22 17
M  V30 37 1 34 29
M  V30 38 1 16 7
M  V30 39 1 5 35
M  V30 40 1 5 36
M  V30 41 1 11 37
M  V30 42 1 12 38
M  V30 43 1 13 39
M  V30 44 1 14 40
M  V30 45 1 18 41
M  V30 46 1 19 42
M  V30 47 1 21 43
M  V30 48 1 22 44
M  V30 49 1 26 45
M  V30 50 1 26 46
M  V30 51 1 28 47
M  V30 52 1 28 48
M  V30 53 1 30 49
M  V30 54 1 31 50
M  V30 55 1 32 51
M  V30 56 1 33 52
M  V30 57 1 34 53
M  V30 END BOND
M  V30 END CTAB
M  END
