
     RDKit          3D

  0  0  0  0  0  0  0  0  0  0999 V3000
M  V30 BEGIN CTAB
M  V30 COUNTS 54 58 0 0 0
M  V30 BEGIN ATOM
M  V30 1 N -3.11803 -1.81872 -0.631128 0
M  V30 2 C -2.49917 -0.594516 -0.335309 0 CFG=2
M  V30 3 C -1.01166 -0.643364 -0.624547 0
M  V30 4 O -0.866881 -0.93028 -1.99285 0
M  V30 5 C 0.381334 -1.03433 -2.53967 0
M  V30 6 C 1.49324 -0.856657 -1.74345 0
M  V30 7 C 2.77825 -0.947882 -2.23117 0
M  V30 8 C 2.89064 -1.2302 -3.5761 0
M  V30 9 N 1.79587 -1.40476 -4.35815 0
M  V30 10 C 0.543587 -1.31692 -3.88798 0
M  V30 11 C 3.92048 -0.751652 -1.3508 0
M  V30 12 C 3.87452 0.106694 -0.271145 0
M  V30 13 C 4.96824 0.302152 0.580693 0
M  V30 14 C 6.14372 -0.378727 0.349414 0
M  V30 15 C 6.19963 -1.24079 -0.729571 0
M  V30 16 C 5.11098 -1.42393 -1.56273 0
M  V30 17 C 7.21623 -0.180017 1.19349 0
M  V30 18 N 7.12546 0.674907 2.2438 0
M  V30 19 C 5.97286 1.3585 2.49104 0
M  V30 20 N 5.85336 2.25389 3.57716 0
M  V30 21 C 4.9043 1.16059 1.65016 0
M  V30 22 C -2.75994 -0.311384 1.14963 0
M  V30 23 C -4.25459 -0.253091 1.27336 0
M  V30 24 C -5.12024 -1.18342 1.78467 0
M  V30 25 N -6.37914 -0.699703 1.6907 0
M  V30 26 C -6.37914 0.51976 1.13452 0
M  V30 27 C -5.05159 0.808639 0.869287 0
M  V30 28 C -4.70166 2.01199 0.285291 0
M  V30 29 C -5.69863 2.89175 -0.0157483 0
M  V30 30 C -7.01463 2.61614 0.242267 0
M  V30 31 C -7.38176 1.41636 0.826416 0
M  V30 32 H -3.83497 -1.87031 -1.285 0
M  V30 33 H -2.96924 -2.51528 0.0398379 0
M  V30 34 H -2.92446 0.179162 -0.970861 0
M  V30 35 H -0.495454 -1.36797 0.0277403 0
M  V30 36 H -0.603189 0.355764 -0.402531 0
M  V30 37 H 1.39378 -0.633598 -0.679951 0
M  V30 38 H 3.90538 -1.30557 -3.97836 0
M  V30 39 H -0.324321 -1.45879 -4.52419 0
M  V30 40 H 2.95538 0.639379 -0.0899493 0
M  V30 41 H 7.13806 -1.75622 -0.87802 0
M  V30 42 H 5.1781 -2.10741 -2.40613 0
M  V30 43 H 8.15055 -0.702339 1.03407 0
M  V30 44 H 5.49674 3.21024 3.41488 0
M  V30 45 H 6.12736 1.93151 4.52084 0
M  V30 46 H 3.99138 1.69322 1.83433 0
M  V30 47 H -2.4119 -1.15189 1.77415 0
M  V30 48 H -2.34338 0.650276 1.44941 0
M  V30 49 H -4.83352 -2.14697 2.19499 0
M  V30 50 H -7.23566 -1.19792 2.00409 0
M  V30 51 H -3.66298 2.25248 0.0713552 0
M  V30 52 H -5.43379 3.84056 -0.474856 0
M  V30 53 H -7.77249 3.32762 -0.00612992 0
M  V30 54 H -8.42702 1.21304 1.0243 0
M  V30 END ATOM
M  V30 BEGIN BOND
M  V30 1 1 1 2
M  V30 2 1 2 3
M  V30 3 1 3 4
M  V30 4 1 4 5
M  V30 5 2 5 6
M  V30 6 1 6 7
M  V30 7 2 7 8
M  V30 8 1 8 9
M  V30 9 2 9 10
M  V30 10 1 7 11
M  V30 11 2 11 12
M  V30 12 1 12 13
M  V30 13 2 13 14
M  V30 14 1 14 15
M  V30 15 2 15 16
M  V30 16 1 14 17
M  V30 17 2 17 18
M  V30 18 1 18 19
M  V30 19 1 19 20
M  V30 20 2 19 21
M  V30 21 1 2 22
M  V30 22 1 22 23
M  V30 23 2 23 24
M  V30 24 1 24 25
M  V30 25 1 25 26
M  V30 26 2 26 27
M  V30 27 1 27 28
M  V30 28 2 28 29
M  V30 29 1 29 30
M  V30 30 2 30 31
M  V30 31 1 10 5
M  V30 32 1 16 11
M  V30 33 1 27 23
M  V30 34 1 21 13
M  V30 35 1 31 26
M  V30 36 1 1 32
M  V30 37 1 1 33
M  V30 38 1 2 34 CFG=3
M  V30 39 1 3 35
M  V30 40 1 3 36
M  V30 41 1 6 37
M  V30 42 1 8 38
M  V30 43 1 10 39
M  V30 44 1 12 40
M  V30 45 1 15 41
M  V30 46 1 16 42
M  V30 47 1 17 43
M  V30 48 1 20 44
M  V30 49 1 20 45
M  V30 50 1 21 46
M  V30 51 1 22 47
M  V30 52 1 22 48
M  V30 53 1 24 49
M  V30 54 1 25 50
M  V30 55 1 28 51
M  V30 56 1 29 52
M  V30 57 1 30 53
M  V30 58 1 31 54
M  V30 END BOND
M  V30 END CTAB
M  END
