
     RDKit          3D

  0  0  0  0  0  0  0  0  0  0999 V3000
M  V30 BEGIN CTAB
M  V30 COUNTS 26 26 0 0 0
M  V30 BEGIN ATOM
M  V30 1 N -3.72468 1.02695 -0.0357888 0
M  V30 2 C -3.78972 -0.37187 -0.218246 0
M  V30 3 C -2.84298 -1.24541 0.507459 0
M  V30 4 N -1.43967 -1.07291 0.254103 0
M  V30 5 C -0.637391 0.0422549 0.509702 0
M  V30 6 O -1.10437 1.11572 1.03815 0
M  V30 7 C 0.797261 0.140665 0.217193 0
M  V30 8 C 1.35421 1.38527 -0.039233 0
M  V30 9 C 2.676 1.51752 -0.354575 0
M  V30 10 C 3.53124 0.432034 -0.43686 0
M  V30 11 C 2.96963 -0.795973 -0.180356 0
M  V30 12 C 1.60894 -0.935212 0.145186 0
M  V30 13 F 1.20199 -2.21673 0.408324 0
M  V30 14 N 4.90515 0.514604 -0.75956 0
M  V30 15 H -4.12246 1.39028 0.857719 0
M  V30 16 H -3.91255 1.60214 -0.862462 0
M  V30 17 H -4.84595 -0.698252 0.0568897 0
M  V30 18 H -3.76784 -0.558363 -1.33507 0
M  V30 19 H -3.15139 -2.31273 0.265392 0
M  V30 20 H -3.05278 -1.19414 1.62566 0
M  V30 21 H -0.945464 -1.90007 -0.214997 0
M  V30 22 H 0.72601 2.25109 0.0140643 0
M  V30 23 H 3.13468 2.49278 -0.560621 0
M  V30 24 H 3.57578 -1.70073 -0.224626 0
M  V30 25 H 5.63139 0.419591 -0.0198443 0
M  V30 26 H 5.22497 0.671505 -1.73859 0
M  V30 END ATOM
M  V30 BEGIN BOND
M  V30 1 1 1 2
M  V30 2 1 2 3
M  V30 3 1 3 4
M  V30 4 1 4 5
M  V30 5 2 5 6
M  V30 6 1 5 7
M  V30 7 2 7 8
M  V30 8 1 8 9
M  V30 9 2 9 10
M  V30 10 1 10 11
M  V30 11 2 11 12
M  V30 12 1 12 13
M  V30 13 1 10 14
M  V30 14 1 12 7
M  V30 15 1 1 15
M  V30 16 1 1 16
M  V30 17 1 2 17
M  V30 18 1 2 18
M  V30 19 1 3 19
M  V30 20 1 3 20
M  V30 21 1 4 21
M  V30 22 1 8 22
M  V30 23 1 9 23
M  V30 24 1 11 24
M  V30 25 1 14 25
M  V30 26 1 14 26
M  V30 END BOND
M  V30 END CTAB
M  END
