
     RDKit          3D

  0  0  0  0  0  0  0  0  0  0999 V3000
M  V30 BEGIN CTAB
M  V30 COUNTS 71 76 0 0 0
M  V30 BEGIN ATOM
M  V30 1 N 10.4182 0.235448 2.27841 0
M  V30 2 C 9.30217 -0.172927 1.50084 0
M  V30 3 N 9.13489 -1.43358 1.06614 0
M  V30 4 C 8.06037 -1.76567 0.333732 0
M  V30 5 N 7.10424 -0.885758 -0.0062032 0
M  V30 6 C 7.22312 0.392826 0.404242 0
M  V30 7 C 8.32926 0.748017 1.16173 0
M  V30 8 N 8.17058 2.06293 1.41535 0
M  V30 9 C 7.04733 2.48024 0.852499 0
M  V30 10 N 6.43651 1.46454 0.216815 0
M  V30 11 C 5.20082 1.54316 -0.503334 0 CFG=2
M  V30 12 O 4.17908 0.805416 0.117377 0
M  V30 13 C 3.26031 0.651234 -0.919913 0 CFG=2
M  V30 14 C 2.1017 -0.211122 -0.544169 0
M  V30 15 O 1.18078 -0.381898 -1.54323 0
M  V30 16 P -0.115855 -1.3645 -1.07851 0
M  V30 17 O -0.227013 -2.60418 -2.23573 0
M  V30 18 O 0.212329 -1.90648 0.286588 0
M  V30 19 O -1.53212 -0.489024 -1.1289 0
M  V30 20 C -2.6389 -1.09769 -0.652881 0 CFG=2
M  V30 21 C -3.86282 -1.03361 -1.50212 0 CFG=1
M  V30 22 C -4.44947 -2.44186 -1.5595 0
M  V30 23 O -4.68883 -2.92741 -0.274177 0
M  V30 24 P -5.33139 -4.46571 -0.274738 0
M  V30 25 O -4.47793 -5.50827 0.750533 0
M  V30 26 O -5.49959 -5.11475 -1.82638 0
M  V30 27 O -6.7465 -4.36808 0.301361 0
M  V30 28 O -4.81338 -0.250729 -0.848129 0
M  V30 29 C -4.11282 0.608356 -0.0370087 0 CFG=2
M  V30 30 C -3.09348 -0.33243 0.599237 0 CFG=2
M  V30 31 O -2.06721 0.467406 1.09686 0
M  V30 32 N -4.95692 1.2091 0.948811 0
M  V30 33 C -5.11787 0.873884 2.24038 0
M  V30 34 N -6.02324 1.71218 2.82205 0
M  V30 35 C -6.4387 2.58195 1.89874 0
M  V30 36 C -5.76245 2.25643 0.7266 0
M  V30 37 N -6.0179 3.00284 -0.360238 0
M  V30 38 C -6.88978 4.02459 -0.32619 0
M  V30 39 N -7.54101 4.3295 0.82357 0
M  V30 40 C -7.33578 3.62735 1.94819 0
M  V30 41 N -8.04303 3.99192 3.11488 0
M  V30 42 C 4.13929 0.0488804 -1.98594 0 CFG=1
M  V30 43 O 3.57007 0.0992436 -3.2507 0
M  V30 44 C 5.34624 0.971453 -1.89622 0 CFG=1
M  V30 45 O 5.12641 2.01836 -2.81063 0
M  V30 46 H 10.2697 0.530179 3.26328 0
M  V30 47 H 11.3932 0.258808 1.9182 0
M  V30 48 H 8 -2.81228 0.0199762 0
M  V30 49 H 6.69706 3.52034 0.918328 0
M  V30 50 H 4.839 2.59158 -0.532802 0
M  V30 51 H 2.8888 1.64412 -1.24715 0
M  V30 52 H 1.64924 0.198118 0.381434 0
M  V30 53 H 2.5156 -1.23125 -0.298455 0
M  V30 54 H -0.488986 -2.1534 -3.08439 0
M  V30 55 H -2.41282 -2.12601 -0.291385 0
M  V30 56 H -3.72682 -0.624564 -2.49589 0
M  V30 57 H -3.79425 -3.13852 -2.12174 0
M  V30 58 H -5.42723 -2.40664 -2.08125 0
M  V30 59 H -5.0934 -6.1467 1.20477 0
M  V30 60 H -5.52287 -6.1102 -1.70187 0
M  V30 61 H -3.53151 1.34198 -0.640485 0
M  V30 62 H -3.53427 -1.00326 1.33654 0
M  V30 63 H -2.0277 0.312903 2.06886 0
M  V30 64 H -4.59715 0.0626254 2.71346 0
M  V30 65 H -7.05484 4.58946 -1.23091 0
M  V30 66 H -9.02044 3.69184 3.23443 0
M  V30 67 H -7.58556 4.55904 3.85117 0
M  V30 68 H 4.42774 -0.972071 -1.69917 0
M  V30 69 H 2.92312 -0.656707 -3.30344 0
M  V30 70 H 6.29036 0.459069 -2.06982 0
M  V30 71 H 4.16436 2.16999 -2.95866 0
M  V30 END ATOM
M  V30 BEGIN BOND
M  V30 1 1 1 2
M  V30 2 2 2 3
M  V30 3 1 3 4
M  V30 4 2 4 5
M  V30 5 1 5 6
M  V30 6 2 6 7
M  V30 7 1 7 8
M  V30 8 2 8 9
M  V30 9 1 9 10
M  V30 10 1 10 11
M  V30 11 1 11 12
M  V30 12 1 12 13
M  V30 13 1 13 14
M  V30 14 1 14 15
M  V30 15 1 15 16
M  V30 16 1 16 17
M  V30 17 2 16 18
M  V30 18 1 16 19
M  V30 19 1 19 20
M  V30 20 1 20 21
M  V30 21 1 21 22
M  V30 22 1 22 23
M  V30 23 1 23 24
M  V30 24 1 24 25
M  V30 25 1 24 26
M  V30 26 2 24 27
M  V30 27 1 21 28
M  V30 28 1 28 29
M  V30 29 1 29 30
M  V30 30 1 30 31
M  V30 31 1 29 32
M  V30 32 1 32 33
M  V30 33 2 33 34
M  V30 34 1 34 35
M  V30 35 2 35 36
M  V30 36 1 36 37
M  V30 37 2 37 38
M  V30 38 1 38 39
M  V30 39 2 39 40
M  V30 40 1 40 41
M  V30 41 1 13 42
M  V30 42 1 42 43
M  V30 43 1 42 44
M  V30 44 1 44 45
M  V30 45 1 7 2
M  V30 46 1 44 11
M  V30 47 1 10 6
M  V30 48 1 30 20
M  V30 49 1 36 32
M  V30 50 1 40 35
M  V30 51 1 1 46
M  V30 52 1 1 47
M  V30 53 1 4 48
M  V30 54 1 9 49
M  V30 55 1 11 50 CFG=3
M  V30 56 1 13 51 CFG=3
M  V30 57 1 14 52
M  V30 58 1 14 53
M  V30 59 1 17 54
M  V30 60 1 20 55 CFG=1
M  V30 61 1 21 56 CFG=3
M  V30 62 1 22 57
M  V30 63 1 22 58
M  V30 64 1 25 59
M  V30 65 1 26 60
M  V30 66 1 29 61 CFG=3
M  V30 67 1 30 62 CFG=1
M  V30 68 1 31 63
M  V30 69 1 33 64
M  V30 70 1 38 65
M  V30 71 1 41 66
M  V30 72 1 41 67
M  V30 73 1 42 68 CFG=1
M  V30 74 1 43 69
M  V30 75 1 44 70 CFG=1
M  V30 76 1 45 71
M  V30 END BOND
M  V30 END CTAB
M  END
