
     RDKit          3D

  0  0  0  0  0  0  0  0  0  0999 V3000
M  V30 BEGIN CTAB
M  V30 COUNTS 41 44 0 0 0
M  V30 BEGIN ATOM
M  V30 1 N -1.21411 -3.86195 1.96104 0
M  V30 2 C -1.14208 -2.59736 1.33328 0
M  V30 3 N 0.000551804 -2.25006 0.729955 0
M  V30 4 C 0.170453 -1.06247 0.100965 0
M  V30 5 C -0.919449 -0.220616 0.119431 0
M  V30 6 C -2.12187 -0.572751 0.748029 0
M  V30 7 N -2.1981 -1.76974 1.34555 0
M  V30 8 N -3.22767 0.303532 0.75636 0
M  V30 9 C -3.27513 1.61051 0.1592 0
M  V30 10 C -4.37544 2.34932 0.878353 0
M  V30 11 C -5.039 1.36622 1.81059 0
M  V30 12 C -4.50624 0.0451274 1.3641 0
M  V30 13 N 1.39778 -0.721718 -0.535628 0
M  V30 14 C 2.4355 -1.69981 -0.561651 0
M  V30 15 C 3.55577 -1.45989 -1.51542 0
M  V30 16 C 4.01193 -0.0251896 -1.23952 0
M  V30 17 C 3.02995 0.92833 -1.04749 0
M  V30 18 C 1.56894 0.561261 -1.12514 0
M  V30 19 S 3.96456 2.32847 -0.770836 0
M  V30 20 C 5.5176 1.64207 -0.91156 0
M  V30 21 N 5.24791 0.375809 -1.16294 0
M  V30 22 N 6.80225 2.28193 -0.787734 0
M  V30 23 H -1.15605 -3.92559 2.98702 0
M  V30 24 H -1.32402 -4.71114 1.39201 0
M  V30 25 H -0.889021 0.740256 -0.350684 0
M  V30 26 H -3.53317 1.48858 -0.934143 0
M  V30 27 H -2.2797 2.12633 0.26124 0
M  V30 28 H -3.9959 3.19023 1.50335 0
M  V30 29 H -5.12994 2.68777 0.125253 0
M  V30 30 H -4.78552 1.58702 2.8829 0
M  V30 31 H -6.14616 1.43157 1.75927 0
M  V30 32 H -4.37482 -0.600991 2.25713 0
M  V30 33 H -5.25089 -0.388065 0.647306 0
M  V30 34 H 2.02967 -2.71855 -0.785559 0
M  V30 35 H 2.88212 -1.72054 0.46741 0
M  V30 36 H 3.16383 -1.52578 -2.55279 0
M  V30 37 H 4.34641 -2.18567 -1.30919 0
M  V30 38 H 1.23608 0.514662 -2.18446 0
M  V30 39 H 0.987652 1.38588 -0.65888 0
M  V30 40 H 6.92872 3.23125 -1.20209 0
M  V30 41 H 7.60658 1.84177 -0.305517 0
M  V30 END ATOM
M  V30 BEGIN BOND
M  V30 1 1 1 2
M  V30 2 2 2 3
M  V30 3 1 3 4
M  V30 4 2 4 5
M  V30 5 1 5 6
M  V30 6 2 6 7
M  V30 7 1 6 8
M  V30 8 1 8 9
M  V30 9 1 9 10
M  V30 10 1 10 11
M  V30 11 1 11 12
M  V30 12 1 4 13
M  V30 13 1 13 14
M  V30 14 1 14 15
M  V30 15 1 15 16
M  V30 16 2 16 17
M  V30 17 1 17 18
M  V30 18 1 17 19
M  V30 19 1 19 20
M  V30 20 2 20 21
M  V30 21 1 20 22
M  V30 22 1 7 2
M  V30 23 1 12 8
M  V30 24 1 18 13
M  V30 25 1 21 16
M  V30 26 1 1 23
M  V30 27 1 1 24
M  V30 28 1 5 25
M  V30 29 1 9 26
M  V30 30 1 9 27
M  V30 31 1 10 28
M  V30 32 1 10 29
M  V30 33 1 11 30
M  V30 34 1 11 31
M  V30 35 1 12 32
M  V30 36 1 12 33
M  V30 37 1 14 34
M  V30 38 1 14 35
M  V30 39 1 15 36
M  V30 40 1 15 37
M  V30 41 1 18 38
M  V30 42 1 18 39
M  V30 43 1 22 40
M  V30 44 1 22 41
M  V30 END BOND
M  V30 END CTAB
M  END
