
     RDKit          3D

  0  0  0  0  0  0  0  0  0  0999 V3000
M  V30 BEGIN CTAB
M  V30 COUNTS 32 33 0 0 0
M  V30 BEGIN ATOM
M  V30 1 N 1.5964 2.14712 -0.473244 0
M  V30 2 C 1.03809 0.784703 -0.45937 0
M  V30 3 C 2.19412 -0.157169 -0.424414 0
M  V30 4 C 1.8527 -1.57189 -0.123064 0
M  V30 5 C 0.691748 -1.82799 0.747507 0
M  V30 6 C -0.316735 -0.731179 0.876933 0
M  V30 7 C -1.4575 -0.928597 -0.0733861 0
M  V30 8 N -0.967659 -1.47916 -1.3504 0
M  V30 9 C -2.3479 0.217677 -0.287623 0
M  V30 10 C -1.87063 1.57168 0.0716773 0
M  V30 11 C -0.764424 1.63363 1.07096 0
M  V30 12 C 0.306466 0.621988 0.819154 0
M  V30 13 H 2.52173 2.12915 0.0152894 0
M  V30 14 H 1.76713 2.4826 -1.43206 0
M  V30 15 H 0.418984 0.710706 -1.36332 0
M  V30 16 H 2.70574 -0.0854842 -1.42818 0
M  V30 17 H 2.93924 0.262741 0.29387 0
M  V30 18 H 1.7021 -2.10149 -1.09933 0
M  V30 19 H 2.78857 -2.04718 0.289666 0
M  V30 20 H 1.07965 -2.10016 1.77334 0
M  V30 21 H 0.131967 -2.74026 0.427697 0
M  V30 22 H -0.758608 -0.803558 1.91765 0
M  V30 23 H -2.0736 -1.77949 0.351123 0
M  V30 24 H -0.931619 -2.50213 -1.34753 0
M  V30 25 H -1.6638 -1.18854 -2.0789 0
M  V30 26 H -2.62966 0.242491 -1.38463 0
M  V30 27 H -3.35372 0.070851 0.2117 0
M  V30 28 H -2.6941 2.21088 0.480766 0
M  V30 29 H -1.51282 2.14798 -0.831664 0
M  V30 30 H -0.301141 2.63726 1.0485 0
M  V30 31 H -1.13032 1.47872 2.11192 0
M  V30 32 H 1.0396 0.694114 1.64937 0
M  V30 END ATOM
M  V30 BEGIN BOND
M  V30 1 1 1 2
M  V30 2 1 2 3
M  V30 3 1 3 4
M  V30 4 1 4 5
M  V30 5 1 5 6
M  V30 6 1 6 7
M  V30 7 1 7 8
M  V30 8 1 7 9
M  V30 9 1 9 10
M  V30 10 1 10 11
M  V30 11 1 11 12
M  V30 12 1 12 2
M  V30 13 1 12 6
M  V30 14 1 1 13
M  V30 15 1 1 14
M  V30 16 1 2 15
M  V30 17 1 3 16
M  V30 18 1 3 17
M  V30 19 1 4 18
M  V30 20 1 4 19
M  V30 21 1 5 20
M  V30 22 1 5 21
M  V30 23 1 6 22
M  V30 24 1 7 23
M  V30 25 1 8 24
M  V30 26 1 8 25
M  V30 27 1 9 26
M  V30 28 1 9 27
M  V30 29 1 10 28
M  V30 30 1 10 29
M  V30 31 1 11 30
M  V30 32 1 11 31
M  V30 33 1 12 32
M  V30 END BOND
M  V30 END CTAB
M  END
