
     RDKit          3D

  0  0  0  0  0  0  0  0  0  0999 V3000
M  V30 BEGIN CTAB
M  V30 COUNTS 62 65 0 0 0
M  V30 BEGIN ATOM
M  V30 1 C 3.00276 2.92186 3.30975 0
M  V30 2 C 3.01107 3.42555 1.90256 0
M  V30 3 O 2.42161 2.58298 0.971203 0
M  V30 4 C 1.09008 2.22081 1.08527 0
M  V30 5 O 0.452469 2.67882 2.04865 0
M  V30 6 C 0.438749 1.32344 0.104439 0
M  V30 7 C -0.834788 1.03454 0.295707 0
M  V30 8 N -1.52786 1.58954 1.42481 0
M  V30 9 N -1.57593 0.190048 -0.567904 0
M  V30 10 C -2.94764 -0.116699 -0.355819 0
M  V30 11 C -3.24984 -1.22293 0.411498 0
M  V30 12 C -4.57074 -1.56402 0.64752 0
M  V30 13 C -5.58889 -0.813444 0.126332 0
M  V30 14 C -5.29554 0.295473 -0.64285 0
M  V30 15 C -3.97964 0.635994 -0.878479 0
M  V30 16 S -7.27087 -1.18834 0.385676 0
M  V30 17 O -7.47735 -2.68006 0.532131 0
M  V30 18 O -8.04931 -0.757692 -0.812358 0
M  V30 19 N -7.91435 -0.437242 1.77345 0
M  V30 20 C -0.92871 -0.365085 -1.67661 0
M  V30 21 C 0.346427 -0.0978558 -1.89878 0
M  V30 22 C 1.18356 0.777614 -1.03522 0
M  V30 23 C 2.44045 0.109581 -0.625451 0
M  V30 24 C 3.63831 0.608914 -1.08358 0
M  V30 25 C 4.82576 0.000803855 -0.713657 0
M  V30 26 C 4.81803 -1.1124 0.118507 0
M  V30 27 C 3.62051 -1.6253 0.586746 0
M  V30 28 C 2.45035 -0.999927 0.202699 0
M  V30 29 S 6.4007 -1.8322 0.543798 0
M  V30 30 C 6.9892 -1.03752 2.03892 0
M  V30 31 C 0.973834 -0.709846 -3.09038 0
M  V30 32 O 1.87001 -0.0536503 -3.72197 0
M  V30 33 C 0.554801 -2.06326 -3.52718 0
M  V30 34 C -0.694173 -2.47453 -2.82012 0
M  V30 35 C -1.60693 -1.26511 -2.65846 0
M  V30 36 H 3.7939 3.50732 3.86584 0
M  V30 37 H 3.32339 1.86281 3.39934 0
M  V30 38 H 2.06163 3.13368 3.85969 0
M  V30 39 H 4.09525 3.5423 1.60709 0
M  V30 40 H 2.60577 4.45418 1.90694 0
M  V30 41 H -1.90375 2.54106 1.32345 0
M  V30 42 H -1.65514 1.07953 2.30352 0
M  V30 43 H -2.49744 -1.85801 0.852434 0
M  V30 44 H -4.81488 -2.43523 1.25182 0
M  V30 45 H -6.10408 0.899747 -1.06246 0
M  V30 46 H -3.72459 1.50209 -1.47921 0
M  V30 47 H -8.07332 0.579426 1.64167 0
M  V30 48 H -7.35392 -0.55328 2.62906 0
M  V30 49 H 1.44181 1.65471 -1.68606 0
M  V30 50 H 3.68659 1.48201 -1.73926 0
M  V30 51 H 5.78517 0.392709 -1.07456 0
M  V30 52 H 3.65083 -2.49113 1.23141 0
M  V30 53 H 1.4931 -1.38243 0.556466 0
M  V30 54 H 6.27199 -1.25216 2.85826 0
M  V30 55 H 7.02688 0.0675599 1.9088 0
M  V30 56 H 7.98841 -1.41047 2.35475 0
M  V30 57 H 0.44419 -2.13785 -4.62784 0
M  V30 58 H 1.37095 -2.76584 -3.18826 0
M  V30 59 H -1.2619 -3.27776 -3.32125 0
M  V30 60 H -0.45493 -2.82053 -1.77397 0
M  V30 61 H -2.61423 -1.54574 -2.35343 0
M  V30 62 H -1.59781 -0.747548 -3.64509 0
M  V30 END ATOM
M  V30 BEGIN BOND
M  V30 1 1 1 2
M  V30 2 1 2 3
M  V30 3 1 3 4
M  V30 4 2 4 5
M  V30 5 1 4 6
M  V30 6 2 6 7
M  V30 7 1 7 8
M  V30 8 1 7 9
M  V30 9 1 9 10
M  V30 10 2 10 11
M  V30 11 1 11 12
M  V30 12 2 12 13
M  V30 13 1 13 14
M  V30 14 2 14 15
M  V30 15 1 13 16
M  V30 16 2 16 17
M  V30 17 2 16 18
M  V30 18 1 16 19
M  V30 19 1 9 20
M  V30 20 2 20 21
M  V30 21 1 21 22
M  V30 22 1 22 23
M  V30 23 2 23 24
M  V30 24 1 24 25
M  V30 25 2 25 26
M  V30 26 1 26 27
M  V30 27 2 27 28
M  V30 28 1 26 29
M  V30 29 1 29 30
M  V30 30 1 21 31
M  V30 31 2 31 32
M  V30 32 1 31 33
M  V30 33 1 33 34
M  V30 34 1 34 35
M  V30 35 1 22 6
M  V30 36 1 28 23
M  V30 37 1 15 10
M  V30 38 1 35 20
M  V30 39 1 1 36
M  V30 40 1 1 37
M  V30 41 1 1 38
M  V30 42 1 2 39
M  V30 43 1 2 40
M  V30 44 1 8 41
M  V30 45 1 8 42
M  V30 46 1 11 43
M  V30 47 1 12 44
M  V30 48 1 14 45
M  V30 49 1 15 46
M  V30 50 1 19 47
M  V30 51 1 19 48
M  V30 52 1 22 49
M  V30 53 1 24 50
M  V30 54 1 25 51
M  V30 55 1 27 52
M  V30 56 1 28 53
M  V30 57 1 30 54
M  V30 58 1 30 55
M  V30 59 1 30 56
M  V30 60 1 33 57
M  V30 61 1 33 58
M  V30 62 1 34 59
M  V30 63 1 34 60
M  V30 64 1 35 61
M  V30 65 1 35 62
M  V30 END BOND
M  V30 END CTAB
M  END
