
     RDKit          3D

  0  0  0  0  0  0  0  0  0  0999 V3000
M  V30 BEGIN CTAB
M  V30 COUNTS 37 36 0 0 0
M  V30 BEGIN ATOM
M  V30 1 N -5.01729 -1.2968 -1.01084 0
M  V30 2 C -4.14527 -0.26867 -0.538344 0 CFG=1
M  V30 3 C -4.86361 0.409646 0.606293 0
M  V30 4 O -4.17601 1.43612 1.1937 0
M  V30 5 C -2.8729 -0.883103 -0.159967 0
M  V30 6 O -2.68931 -2.12459 -0.24709 0
M  V30 7 N -1.81857 -0.0946467 0.312755 0
M  V30 8 C -0.507067 -0.651626 0.712413 0 CFG=1
M  V30 9 C 0.487653 0.0818343 -0.147042 0
M  V30 10 C 1.89202 -0.36948 0.113381 0
M  V30 11 C 2.81874 0.4084 -0.814943 0
M  V30 12 N 4.18217 -0.0216296 -0.568023 0
M  V30 13 C 5.25733 0.541442 -1.29597 0
M  V30 14 N 5.70216 1.84771 -1.0076 0
M  V30 15 N 5.82043 -0.143974 -2.21632 0
M  V30 16 C -0.332129 -0.246821 2.12182 0
M  V30 17 O 0.744026 -0.610785 2.92528 0
M  V30 18 O -1.20876 0.491918 2.69579 0
M  V30 19 H -5.08748 -2.06054 -0.385667 0
M  V30 20 H -5.09439 -1.46405 -1.9582 0
M  V30 21 H -4.05424 0.458871 -1.39299 0
M  V30 22 H -5.84616 0.754104 0.234519 0
M  V30 23 H -5.0594 -0.380076 1.37043 0
M  V30 24 H -3.99395 2.19284 0.614202 0
M  V30 25 H -1.91015 0.932928 0.404251 0
M  V30 26 H -0.487004 -1.73776 0.566696 0
M  V30 27 H 0.223437 0.0189282 -1.23408 0
M  V30 28 H 0.436496 1.17789 0.12789 0
M  V30 29 H 1.98831 -1.4426 -0.183201 0
M  V30 30 H 2.23014 -0.201544 1.13337 0
M  V30 31 H 2.50317 0.177128 -1.85823 0
M  V30 32 H 2.707 1.48773 -0.602574 0
M  V30 33 H 4.35962 -0.756992 0.158636 0
M  V30 34 H 5.90269 2.50169 -1.79362 0
M  V30 35 H 5.83726 2.18112 -0.029267 0
M  V30 36 H 5.54631 -1.10978 -2.48285 0
M  V30 37 H 0.524705 -1.23486 3.70734 0
M  V30 END ATOM
M  V30 BEGIN BOND
M  V30 1 1 1 2
M  V30 2 1 2 3
M  V30 3 1 3 4
M  V30 4 1 2 5
M  V30 5 2 5 6
M  V30 6 1 5 7
M  V30 7 1 7 8
M  V30 8 1 8 9
M  V30 9 1 9 10
M  V30 10 1 10 11
M  V30 11 1 11 12
M  V30 12 1 12 13
M  V30 13 1 13 14
M  V30 14 2 13 15 CFG=2
M  V30 15 1 8 16
M  V30 16 1 16 17
M  V30 17 2 16 18
M  V30 18 1 1 19
M  V30 19 1 1 20
M  V30 20 1 2 21 CFG=3
M  V30 21 1 3 22
M  V30 22 1 3 23
M  V30 23 1 4 24
M  V30 24 1 7 25
M  V30 25 1 8 26 CFG=1
M  V30 26 1 9 27
M  V30 27 1 9 28
M  V30 28 1 10 29
M  V30 29 1 10 30
M  V30 30 1 11 31
M  V30 31 1 11 32
M  V30 32 1 12 33
M  V30 33 1 14 34
M  V30 34 1 14 35
M  V30 35 1 15 36
M  V30 36 1 17 37
M  V30 END BOND
M  V30 END CTAB
M  END
