
     RDKit          3D

  0  0  0  0  0  0  0  0  0  0999 V3000
M  V30 BEGIN CTAB
M  V30 COUNTS 24 25 0 0 0
M  V30 BEGIN ATOM
M  V30 1 N -1.79091 -2.28877 0.281707 0
M  V30 2 C -1.9054 -0.878877 0.247518 0
M  V30 3 N -3.06445 -0.258852 0.626284 0
M  V30 4 C -3.21263 1.07802 0.605495 0
M  V30 5 C -2.13667 1.82778 0.180808 0
M  V30 6 C -0.939298 1.22722 -0.212724 0
M  V30 7 C -0.819686 -0.145338 -0.179517 0
M  V30 8 C 0.43196 -0.819566 -0.580646 0
M  V30 9 C 1.58994 -0.174187 0.127814 0
M  V30 10 C 2.92567 -0.245663 -0.180679 0
M  V30 11 N 3.75057 0.402544 0.578553 0
M  V30 12 C 3.29495 1.10015 1.60714 0
M  V30 13 S 1.612 0.83373 1.50745 0
M  V30 14 N 0.607814 -0.631186 -2.02445 0
M  V30 15 H -2.36429 -2.89031 -0.336943 0
M  V30 16 H -1.12652 -2.74609 0.930518 0
M  V30 17 H -4.14757 1.5527 0.912155 0
M  V30 18 H -2.22389 2.90875 0.152077 0
M  V30 19 H -0.0915128 1.78389 -0.545015 0
M  V30 20 H 0.376436 -1.89816 -0.402516 0
M  V30 21 H 3.29162 -0.839491 -1.05306 0
M  V30 22 H 3.88213 1.69628 2.33302 0
M  V30 23 H 1.55426 -0.966922 -2.28824 0
M  V30 24 H 0.505487 0.372363 -2.28675 0
M  V30 END ATOM
M  V30 BEGIN BOND
M  V30 1 1 1 2
M  V30 2 2 2 3
M  V30 3 1 3 4
M  V30 4 2 4 5
M  V30 5 1 5 6
M  V30 6 2 6 7
M  V30 7 1 7 8
M  V30 8 1 8 9
M  V30 9 2 9 10
M  V30 10 1 10 11
M  V30 11 2 11 12
M  V30 12 1 12 13
M  V30 13 1 8 14
M  V30 14 1 7 2
M  V30 15 1 13 9
M  V30 16 1 1 15
M  V30 17 1 1 16
M  V30 18 1 4 17
M  V30 19 1 5 18
M  V30 20 1 6 19
M  V30 21 1 8 20
M  V30 22 1 10 21
M  V30 23 1 12 22
M  V30 24 1 14 23
M  V30 25 1 14 24
M  V30 END BOND
M  V30 END CTAB
M  END
