
     RDKit          3D

  0  0  0  0  0  0  0  0  0  0999 V3000
M  V30 BEGIN CTAB
M  V30 COUNTS 34 35 0 0 0
M  V30 BEGIN ATOM
M  V30 1 N 5.57863 -0.483706 0.820013 0
M  V30 2 C 4.23891 -0.457167 0.371504 0
M  V30 3 C 3.58549 -1.51724 -0.200753 0
M  V30 4 C 2.26523 -1.40886 -0.615639 0
M  V30 5 C 1.56983 -0.208184 -0.457403 0
M  V30 6 C 2.28044 0.823147 0.124897 0
M  V30 7 N 3.56158 0.699706 0.521468 0
M  V30 8 C 0.154267 -0.0675642 -0.894226 0 CFG=2
M  V30 9 O 0.0259998 1.11111 -1.55947 0
M  V30 10 C -1.23951 1.61966 -1.66763 0
M  V30 11 C -1.71751 2.29289 -0.392653 0
M  V30 12 C -2.61267 1.29552 0.323649 0
M  V30 13 N -2.11628 0.000842673 0.0310838 0
M  V30 14 C -0.752639 -0.236948 0.290308 0
M  V30 15 S -3.18118 -1.28452 0.227477 0
M  V30 16 O -4.41737 -1.01823 -0.621992 0
M  V30 17 O -2.57805 -2.54924 -0.313156 0
M  V30 18 N -3.752 -1.48259 1.84786 0
M  V30 19 H 5.78511 -0.867518 1.75448 0
M  V30 20 H 6.32584 -0.10932 0.183259 0
M  V30 21 H 4.13141 -2.44851 -0.321195 0
M  V30 22 H 1.74029 -2.22969 -1.06524 0
M  V30 23 H 1.80091 1.78066 0.276668 0
M  V30 24 H -0.0514613 -0.938035 -1.58256 0
M  V30 25 H -1.9838 0.836415 -1.98312 0
M  V30 26 H -1.253 2.37772 -2.46723 0
M  V30 27 H -2.22957 3.24396 -0.586657 0
M  V30 28 H -0.79986 2.4259 0.238459 0
M  V30 29 H -3.65607 1.36411 -0.0909914 0
M  V30 30 H -2.62619 1.52222 1.42849 0
M  V30 31 H -0.414812 0.464136 1.10793 0
M  V30 32 H -0.591305 -1.25444 0.697142 0
M  V30 33 H -3.75979 -2.4656 2.14533 0
M  V30 34 H -3.31085 -0.830634 2.50734 0
M  V30 END ATOM
M  V30 BEGIN BOND
M  V30 1 1 1 2
M  V30 2 2 2 3
M  V30 3 1 3 4
M  V30 4 2 4 5
M  V30 5 1 5 6
M  V30 6 2 6 7
M  V30 7 1 5 8
M  V30 8 1 8 9
M  V30 9 1 9 10
M  V30 10 1 10 11
M  V30 11 1 11 12
M  V30 12 1 12 13
M  V30 13 1 13 14
M  V30 14 1 13 15
M  V30 15 2 15 16
M  V30 16 2 15 17
M  V30 17 1 15 18
M  V30 18 1 7 2
M  V30 19 1 14 8
M  V30 20 1 1 19
M  V30 21 1 1 20
M  V30 22 1 3 21
M  V30 23 1 4 22
M  V30 24 1 6 23
M  V30 25 1 8 24 CFG=3
M  V30 26 1 10 25
M  V30 27 1 10 26
M  V30 28 1 11 27
M  V30 29 1 11 28
M  V30 30 1 12 29
M  V30 31 1 12 30
M  V30 32 1 14 31
M  V30 33 1 14 32
M  V30 34 1 18 33
M  V30 35 1 18 34
M  V30 END BOND
M  V30 END CTAB
M  END
