
     RDKit          3D

  0  0  0  0  0  0  0  0  0  0999 V3000
M  V30 BEGIN CTAB
M  V30 COUNTS 25 26 0 0 0
M  V30 BEGIN ATOM
M  V30 1 N 1.37344 -2.3099 -1.13836 0
M  V30 2 N 0.292674 -1.42715 -1.26879 0
M  V30 3 C -0.0280675 -0.795961 0.00514564 0
M  V30 4 C -1.18611 0.118635 -0.254564 0
M  V30 5 C -1.61004 0.553563 -1.49752 0
M  V30 6 N -2.6606 1.3636 -1.32604 0
M  V30 7 N -2.89628 1.44184 -0.032265 0
M  V30 8 C -2.01629 0.693986 0.663761 0
M  V30 9 N -1.97955 0.536928 2.09564 0
M  V30 10 C 1.14437 -0.0094926 0.48918 0
M  V30 11 C 1.75133 0.0457044 1.71416 0
M  V30 12 O 2.74286 0.886215 1.64308 0
M  V30 13 C 2.87364 1.41989 0.466359 0
M  V30 14 C 1.87132 0.878266 -0.312581 0
M  V30 15 H 1.15628 -3.08094 -0.466674 0
M  V30 16 H 1.61666 -2.68914 -2.0784 0
M  V30 17 H -0.570772 -1.8991 -1.60258 0
M  V30 18 H -0.286364 -1.53867 0.768823 0
M  V30 19 H -1.15013 0.270215 -2.43813 0
M  V30 20 H -3.20572 1.85543 -2.09501 0
M  V30 21 H -2.7252 1.00076 2.6901 0
M  V30 22 H -1.24671 -0.015879 2.54189 0
M  V30 23 H 1.41508 -0.544207 2.58027 0
M  V30 24 H 3.6427 2.15109 0.192194 0
M  V30 25 H 1.68147 1.09433 -1.3397 0
M  V30 END ATOM
M  V30 BEGIN BOND
M  V30 1 1 1 2
M  V30 2 1 2 3
M  V30 3 1 3 4
M  V30 4 2 4 5
M  V30 5 1 5 6
M  V30 6 1 6 7
M  V30 7 2 7 8
M  V30 8 1 8 9
M  V30 9 1 3 10
M  V30 10 2 10 11
M  V30 11 1 11 12
M  V30 12 1 12 13
M  V30 13 2 13 14
M  V30 14 1 8 4
M  V30 15 1 14 10
M  V30 16 1 1 15
M  V30 17 1 1 16
M  V30 18 1 2 17
M  V30 19 1 3 18
M  V30 20 1 5 19
M  V30 21 1 6 20
M  V30 22 1 9 21
M  V30 23 1 9 22
M  V30 24 1 11 23
M  V30 25 1 13 24
M  V30 26 1 14 25
M  V30 END BOND
M  V30 END CTAB
M  END
