
     RDKit          3D

  0  0  0  0  0  0  0  0  0  0999 V3000
M  V30 BEGIN CTAB
M  V30 COUNTS 25 25 0 0 0
M  V30 BEGIN ATOM
M  V30 1 N 3.05664 -0.00105838 -1.20215 0
M  V30 2 C 2.92058 0.521832 0.159588 0
M  V30 3 C 2.25191 -0.510921 1.01284 0
M  V30 4 N 0.947287 -0.852154 0.519743 0
M  V30 5 C -0.145172 0.0495676 0.425003 0
M  V30 6 N -0.0295908 1.34879 0.822189 0
M  V30 7 C -1.06599 2.19929 0.737289 0
M  V30 8 Cl -0.915857 3.88061 1.25145 0
M  V30 9 N -2.23026 1.7372 0.247674 0
M  V30 10 C -2.39545 0.455362 -0.160069 0
M  V30 11 C -1.34039 -0.428184 -0.0785713 0
M  V30 12 N -1.54027 -1.76501 -0.512383 0
M  V30 13 C -3.70901 0.00412583 -0.692983 0
M  V30 14 H 3.85287 0.520876 -1.63191 0
M  V30 15 H 3.39253 -1.00258 -1.12067 0
M  V30 16 H 3.96771 0.685594 0.530125 0
M  V30 17 H 2.43337 1.4961 0.153743 0
M  V30 18 H 2.89774 -1.41216 0.970326 0
M  V30 19 H 2.21079 -0.153539 2.07072 0
M  V30 20 H 0.791094 -1.85019 0.204332 0
M  V30 21 H -1.20728 -2.06304 -1.45955 0
M  V30 22 H -2.01088 -2.50127 0.060787 0
M  V30 23 H -4.48553 0.239725 0.0926765 0
M  V30 24 H -3.70285 -1.10512 -0.765565 0
M  V30 25 H -3.944 0.506135 -1.63464 0
M  V30 END ATOM
M  V30 BEGIN BOND
M  V30 1 1 1 2
M  V30 2 1 2 3
M  V30 3 1 3 4
M  V30 4 1 4 5
M  V30 5 2 5 6
M  V30 6 1 6 7
M  V30 7 1 7 8
M  V30 8 2 7 9
M  V30 9 1 9 10
M  V30 10 2 10 11
M  V30 11 1 11 12
M  V30 12 1 10 13
M  V30 13 1 11 5
M  V30 14 1 1 14
M  V30 15 1 1 15
M  V30 16 1 2 16
M  V30 17 1 2 17
M  V30 18 1 3 18
M  V30 19 1 3 19
M  V30 20 1 4 20
M  V30 21 1 12 21
M  V30 22 1 12 22
M  V30 23 1 13 23
M  V30 24 1 13 24
M  V30 25 1 13 25
M  V30 END BOND
M  V30 END CTAB
M  END
