
     RDKit          3D

  0  0  0  0  0  0  0  0  0  0999 V3000
M  V30 BEGIN CTAB
M  V30 COUNTS 15 14 0 0 0
M  V30 BEGIN ATOM
M  V30 1 C 1.1385 -0.476585 0.637255 0
M  V30 2 C -0.0778646 0.34382 0.766843 0
M  V30 3 N -0.306836 0.990612 2.02213 0
M  V30 4 C -0.972356 0.535178 -0.167102 0
M  V30 5 C -0.878563 -0.0484971 -1.47717 0
M  V30 6 N 0.170802 -0.885305 -1.91085 0
M  V30 7 S -2.11188 0.30609 -2.53861 0
M  V30 8 H 0.950917 -1.54853 0.422516 0
M  V30 9 H 1.73311 -0.426533 1.60156 0
M  V30 10 H 1.80192 -0.0385016 -0.143698 0
M  V30 11 H -0.559282 0.424145 2.85488 0
M  V30 12 H -0.200093 2.02815 2.0138 0
M  V30 13 H -1.83672 1.17939 0.0778668 0
M  V30 14 H 0.144728 -1.91928 -1.80001 0
M  V30 15 H 1.00362 -0.464156 -2.35941 0
M  V30 END ATOM
M  V30 BEGIN BOND
M  V30 1 1 1 2
M  V30 2 1 2 3
M  V30 3 2 2 4 CFG=2
M  V30 4 1 4 5
M  V30 5 1 5 6
M  V30 6 2 5 7
M  V30 7 1 1 8
M  V30 8 1 1 9
M  V30 9 1 1 10
M  V30 10 1 3 11
M  V30 11 1 3 12
M  V30 12 1 4 13
M  V30 13 1 6 14
M  V30 14 1 6 15
M  V30 END BOND
M  V30 END CTAB
M  END
