
     RDKit          3D

  0  0  0  0  0  0  0  0  0  0999 V3000
M  V30 BEGIN CTAB
M  V30 COUNTS 23 23 0 0 0
M  V30 BEGIN ATOM
M  V30 1 N -3.99294 -0.802643 -0.613571 0
M  V30 2 N -2.86302 -0.00463237 -0.7962 0
M  V30 3 C -1.75814 -0.401136 -0.23707 0
M  V30 4 C -0.519648 0.346468 -0.357573 0
M  V30 5 C 0.645857 -0.0793668 0.23694 0
M  V30 6 C 1.81604 0.643046 0.112966 0
M  V30 7 O 3.00898 0.276181 0.678221 0
M  V30 8 C 3.24355 -0.856656 1.45427 0
M  V30 9 C 1.77069 1.8055 -0.628482 0
M  V30 10 C 0.616522 2.27093 -1.24463 0
M  V30 11 C -0.535721 1.51164 -1.0925 0
M  V30 12 F 0.615148 3.421 -1.96596 0
M  V30 13 N -1.73373 -1.61187 0.52874 0
M  V30 14 H -4.79923 -0.743135 -1.3014 0
M  V30 15 H -4.06273 -1.46322 0.192858 0
M  V30 16 H 0.679886 -0.979389 0.8107 0
M  V30 17 H 2.70135 -0.89648 2.4042 0
M  V30 18 H 4.34633 -0.880341 1.67947 0
M  V30 19 H 3.07608 -1.75574 0.807811 0
M  V30 20 H 2.68098 2.40775 -0.750151 0
M  V30 21 H -1.44035 1.83176 -1.54743 0
M  V30 22 H -2.38129 -1.64122 1.34488 0
M  V30 23 H -1.1146 -2.39844 0.283904 0
M  V30 END ATOM
M  V30 BEGIN BOND
M  V30 1 1 1 2
M  V30 2 2 2 3
M  V30 3 1 3 4
M  V30 4 2 4 5
M  V30 5 1 5 6
M  V30 6 1 6 7
M  V30 7 1 7 8
M  V30 8 2 6 9
M  V30 9 1 9 10
M  V30 10 2 10 11
M  V30 11 1 10 12
M  V30 12 1 3 13
M  V30 13 1 11 4
M  V30 14 1 1 14
M  V30 15 1 1 15
M  V30 16 1 5 16
M  V30 17 1 8 17
M  V30 18 1 8 18
M  V30 19 1 8 19
M  V30 20 1 9 20
M  V30 21 1 11 21
M  V30 22 1 13 22
M  V30 23 1 13 23
M  V30 END BOND
M  V30 END CTAB
M  END
