
     RDKit          3D

  0  0  0  0  0  0  0  0  0  0999 V3000
M  V30 BEGIN CTAB
M  V30 COUNTS 32 32 0 0 0
M  V30 BEGIN ATOM
M  V30 1 N -0.954577 2.71091 0.0593981 0
M  V30 2 N -0.070996 1.77086 -0.430041 0
M  V30 3 C -0.0928602 0.506268 0.266104 0
M  V30 4 C -1.37189 -0.237637 0.217774 0
M  V30 5 C -1.26232 -1.56318 0.988629 0
M  V30 6 C -1.96373 -0.484717 -1.11324 0
M  V30 7 C -2.44395 0.541549 1.00724 0
M  V30 8 C 1.12531 -0.255874 -0.109303 0
M  V30 9 C 1.12948 -1.44287 -0.786154 0
M  V30 10 C 2.32143 -2.09182 -1.13117 0
M  V30 11 C 3.53118 -1.53318 -0.78819 0
M  V30 12 N 3.52134 -0.362124 -0.121332 0
M  V30 13 C 2.37852 0.271417 0.216524 0
M  V30 14 N 2.52183 1.50158 0.923023 0
M  V30 15 H -1.73176 2.92301 -0.643161 0
M  V30 16 H -0.464506 3.59722 0.328423 0
M  V30 17 H 0.00594749 1.70989 -1.4467 0
M  V30 18 H 0.0754508 0.775595 1.35563 0
M  V30 19 H -1.56142 -2.4183 0.330432 0
M  V30 20 H -2.00479 -1.59549 1.81513 0
M  V30 21 H -0.274191 -1.67254 1.45151 0
M  V30 22 H -1.29235 -0.327614 -1.97264 0
M  V30 23 H -2.84788 0.174678 -1.32743 0
M  V30 24 H -2.31109 -1.53978 -1.16347 0
M  V30 25 H -3.16492 -0.199386 1.43916 0
M  V30 26 H -1.9564 1.1372 1.78462 0
M  V30 27 H -3.00646 1.20253 0.327555 0
M  V30 28 H 0.241108 -1.95475 -1.11189 0
M  V30 29 H 2.32376 -3.0368 -1.66766 0
M  V30 30 H 4.43893 -2.06235 -1.0704 0
M  V30 31 H 2.25953 1.6111 1.92322 0
M  V30 32 H 2.90231 2.34459 0.448404 0
M  V30 END ATOM
M  V30 BEGIN BOND
M  V30 1 1 1 2
M  V30 2 1 2 3
M  V30 3 1 3 4
M  V30 4 1 4 5
M  V30 5 1 4 6
M  V30 6 1 4 7
M  V30 7 1 3 8
M  V30 8 2 8 9
M  V30 9 1 9 10
M  V30 10 2 10 11
M  V30 11 1 11 12
M  V30 12 2 12 13
M  V30 13 1 13 14
M  V30 14 1 13 8
M  V30 15 1 1 15
M  V30 16 1 1 16
M  V30 17 1 2 17
M  V30 18 1 3 18
M  V30 19 1 5 19
M  V30 20 1 5 20
M  V30 21 1 5 21
M  V30 22 1 6 22
M  V30 23 1 6 23
M  V30 24 1 6 24
M  V30 25 1 7 25
M  V30 26 1 7 26
M  V30 27 1 7 27
M  V30 28 1 9 28
M  V30 29 1 10 29
M  V30 30 1 11 30
M  V30 31 1 14 31
M  V30 32 1 14 32
M  V30 END BOND
M  V30 END CTAB
M  END
