
     RDKit          3D

  0  0  0  0  0  0  0  0  0  0999 V3000
M  V30 BEGIN CTAB
M  V30 COUNTS 32 31 0 0 0
M  V30 BEGIN ATOM
M  V30 1 N 0.459552 2.75678 0.750581 0
M  V30 2 C -0.421283 1.65192 0.979574 0
M  V30 3 C -0.255326 0.643737 -0.1125 0
M  V30 4 C -1.18495 -0.555703 0.0986915 0
M  V30 5 C -0.977885 -1.29278 1.36536 0
M  V30 6 C -1.0674 -1.41653 -1.13354 0
M  V30 7 C -2.63516 -0.0411328 0.11849 0
M  V30 8 N 1.0263 0.355202 -0.556702 0
M  V30 9 S 2.21853 -0.347153 0.331936 0
M  V30 10 O 3.56172 0.114324 -0.256864 0
M  V30 11 O 2.33104 0.0681486 1.78273 0
M  V30 12 N 2.31772 -2.0644 0.306014 0
M  V30 13 C 1.40871 0.805278 -1.85453 0
M  V30 14 H 0.129154 3.65367 1.15565 0
M  V30 15 H 0.873156 2.82037 -0.176503 0
M  V30 16 H -0.341442 1.22484 2.00031 0
M  V30 17 H -1.45798 2.04873 0.908713 0
M  V30 18 H -0.764765 1.13055 -1.02036 0
M  V30 19 H -1.95843 -1.53818 1.88463 0
M  V30 20 H -0.384729 -0.807295 2.13734 0
M  V30 21 H -0.598368 -2.32346 1.09878 0
M  V30 22 H -1.42205 -2.41808 -0.879205 0
M  V30 23 H -1.76822 -1.01057 -1.91042 0
M  V30 24 H -0.0202606 -1.43591 -1.53918 0
M  V30 25 H -2.84733 0.493124 1.06043 0
M  V30 26 H -2.75636 0.572104 -0.781358 0
M  V30 27 H -3.26746 -0.950145 0.0867253 0
M  V30 28 H 2.24225 -2.50491 1.2294 0
M  V30 29 H 3.02166 -2.44056 -0.331499 0
M  V30 30 H 0.552037 1.3003 -2.38226 0
M  V30 31 H 2.23402 1.54817 -1.84919 0
M  V30 32 H 1.75357 -0.040449 -2.51123 0
M  V30 END ATOM
M  V30 BEGIN BOND
M  V30 1 1 1 2
M  V30 2 1 2 3
M  V30 3 1 3 4
M  V30 4 1 4 5
M  V30 5 1 4 6
M  V30 6 1 4 7
M  V30 7 1 3 8
M  V30 8 1 8 9
M  V30 9 2 9 10
M  V30 10 2 9 11
M  V30 11 1 9 12
M  V30 12 1 8 13
M  V30 13 1 1 14
M  V30 14 1 1 15
M  V30 15 1 2 16
M  V30 16 1 2 17
M  V30 17 1 3 18
M  V30 18 1 5 19
M  V30 19 1 5 20
M  V30 20 1 5 21
M  V30 21 1 6 22
M  V30 22 1 6 23
M  V30 23 1 6 24
M  V30 24 1 7 25
M  V30 25 1 7 26
M  V30 26 1 7 27
M  V30 27 1 12 28
M  V30 28 1 12 29
M  V30 29 1 13 30
M  V30 30 1 13 31
M  V30 31 1 13 32
M  V30 END BOND
M  V30 END CTAB
M  END
