
     RDKit          3D

  0  0  0  0  0  0  0  0  0  0999 V3000
M  V30 BEGIN CTAB
M  V30 COUNTS 35 35 0 0 0
M  V30 BEGIN ATOM
M  V30 1 N -1.84105 -1.56543 1.26888 0
M  V30 2 C -1.9902 -0.155232 1.52067 0
M  V30 3 C -3.39597 0.343855 1.28048 0
M  V30 4 C -3.74462 -0.0204418 -0.157695 0
M  V30 5 C -2.83949 0.839092 -1.0325 0
M  V30 6 C -1.39735 0.47563 -0.819939 0
M  V30 7 C -1.07532 0.654983 0.640695 0
M  V30 8 S 0.631912 0.132044 1.0136 0
M  V30 9 C 1.59938 0.413826 -0.480953 0
M  V30 10 C 3.0111 -0.124364 -0.372024 0
M  V30 11 N 3.60641 0.0690527 -1.69303 0
M  V30 12 C 2.90738 -1.59842 -0.0497038 0
M  V30 13 C 3.82841 0.62343 0.645577 0
M  V30 14 H -1.61739 -1.8016 0.286465 0
M  V30 15 H -2.64607 -2.12364 1.60923 0
M  V30 16 H -1.71942 0.0323062 2.5703 0
M  V30 17 H -4.09777 -0.104762 2.00586 0
M  V30 18 H -3.34924 1.45543 1.39901 0
M  V30 19 H -4.7957 0.245861 -0.362683 0
M  V30 20 H -3.52512 -1.09696 -0.284265 0
M  V30 21 H -3.15152 0.746779 -2.09818 0
M  V30 22 H -2.96943 1.88482 -0.662205 0
M  V30 23 H -0.788046 1.21483 -1.39267 0
M  V30 24 H -1.13327 -0.514082 -1.21684 0
M  V30 25 H -1.21943 1.73551 0.869121 0
M  V30 26 H 1.57982 1.49429 -0.69047 0
M  V30 27 H 1.1107 -0.162868 -1.30549 0
M  V30 28 H 4.25048 -0.697156 -1.9491 0
M  V30 29 H 4.00568 1.02155 -1.75837 0
M  V30 30 H 1.88078 -1.88656 0.284655 0
M  V30 31 H 3.65561 -1.87605 0.71683 0
M  V30 32 H 3.09392 -2.21785 -0.963317 0
M  V30 33 H 4.51594 1.34077 0.134678 0
M  V30 34 H 4.42488 -0.0286496 1.30682 0
M  V30 35 H 3.19403 1.24999 1.31896 0
M  V30 END ATOM
M  V30 BEGIN BOND
M  V30 1 1 1 2
M  V30 2 1 2 3
M  V30 3 1 3 4
M  V30 4 1 4 5
M  V30 5 1 5 6
M  V30 6 1 6 7
M  V30 7 1 7 8
M  V30 8 1 8 9
M  V30 9 1 9 10
M  V30 10 1 10 11
M  V30 11 1 10 12
M  V30 12 1 10 13
M  V30 13 1 7 2
M  V30 14 1 1 14
M  V30 15 1 1 15
M  V30 16 1 2 16
M  V30 17 1 3 17
M  V30 18 1 3 18
M  V30 19 1 4 19
M  V30 20 1 4 20
M  V30 21 1 5 21
M  V30 22 1 5 22
M  V30 23 1 6 23
M  V30 24 1 6 24
M  V30 25 1 7 25
M  V30 26 1 9 26
M  V30 27 1 9 27
M  V30 28 1 11 28
M  V30 29 1 11 29
M  V30 30 1 12 30
M  V30 31 1 12 31
M  V30 32 1 12 32
M  V30 33 1 13 33
M  V30 34 1 13 34
M  V30 35 1 13 35
M  V30 END BOND
M  V30 END CTAB
M  END
