
     RDKit          3D

  0  0  0  0  0  0  0  0  0  0999 V3000
M  V30 BEGIN CTAB
M  V30 COUNTS 25 26 0 0 0
M  V30 BEGIN ATOM
M  V30 1 N -2.17366 2.2923 -0.190175 0
M  V30 2 C -2.05634 0.875477 -0.160864 0
M  V30 3 C -3.20798 0.13319 -0.0531352 0
M  V30 4 C -3.08564 -1.24955 -0.0251489 0
M  V30 5 C -1.85233 -1.85666 -0.10271 0
M  V30 6 C -0.726283 -1.07887 -0.209462 0
M  V30 7 C -0.820437 0.294737 -0.239316 0
M  V30 8 C 0.577581 0.861381 -0.360202 0
M  V30 9 N 1.32671 -0.222652 0.0897777 0
M  V30 10 C 0.731043 -1.40833 -0.312476 0
M  V30 11 S 2.89962 -0.109969 0.516473 0
M  V30 12 O 3.05779 0.873888 1.67036 0
M  V30 13 O 3.41659 -1.426 1.03018 0
M  V30 14 N 3.9573 0.388884 -0.755818 0
M  V30 15 H -1.59671 2.82828 0.478251 0
M  V30 16 H -2.82202 2.74626 -0.86753 0
M  V30 17 H -4.19992 0.575624 0.0104768 0
M  V30 18 H -3.97457 -1.88538 0.0597242 0
M  V30 19 H -1.75836 -2.94582 -0.0805017 0
M  V30 20 H 0.733569 1.015 -1.45473 0
M  V30 21 H 0.679923 1.80889 0.167531 0
M  V30 22 H 0.986344 -2.32284 0.243442 0
M  V30 23 H 0.917543 -1.5855 -1.41054 0
M  V30 24 H 4.89688 -0.0351381 -0.613063 0
M  V30 25 H 4.09335 1.43282 -0.692427 0
M  V30 END ATOM
M  V30 BEGIN BOND
M  V30 1 1 1 2
M  V30 2 2 2 3
M  V30 3 1 3 4
M  V30 4 2 4 5
M  V30 5 1 5 6
M  V30 6 2 6 7
M  V30 7 1 7 8
M  V30 8 1 8 9
M  V30 9 1 9 10
M  V30 10 1 9 11
M  V30 11 2 11 12
M  V30 12 2 11 13
M  V30 13 1 11 14
M  V30 14 1 7 2
M  V30 15 1 10 6
M  V30 16 1 1 15
M  V30 17 1 1 16
M  V30 18 1 3 17
M  V30 19 1 4 18
M  V30 20 1 5 19
M  V30 21 1 8 20
M  V30 22 1 8 21
M  V30 23 1 10 22
M  V30 24 1 10 23
M  V30 25 1 14 24
M  V30 26 1 14 25
M  V30 END BOND
M  V30 END CTAB
M  END
