
     RDKit          3D

  0  0  0  0  0  0  0  0  0  0999 V3000
M  V30 BEGIN CTAB
M  V30 COUNTS 24 25 0 0 0
M  V30 BEGIN ATOM
M  V30 1 N 4.57499 2.08076 0.1122 0
M  V30 2 N 3.74138 0.989512 -0.0498211 0
M  V30 3 C 2.33254 1.06274 0.010122 0
M  V30 4 O 1.82363 2.19122 0.223584 0
M  V30 5 C 1.43948 -0.0710674 -0.157304 0
M  V30 6 C 1.89268 -1.35033 -0.395116 0
M  V30 7 C 1.01594 -2.43076 -0.553815 0
M  V30 8 C -0.333941 -2.16903 -0.46309 0
M  V30 9 C -0.773447 -0.903828 -0.228183 0
M  V30 10 N 0.109902 0.0968308 -0.0835873 0
M  V30 11 C -2.22299 -0.614815 -0.129366 0
M  V30 12 N -3.22767 -1.49732 -0.249336 0
M  V30 13 N -4.38089 -0.853456 -0.098679 0
M  V30 14 C -4.09808 0.44189 0.117303 0
M  V30 15 O -2.79024 0.542815 0.0910974 0
M  V30 16 N -5.04932 1.4897 0.331501 0
M  V30 17 H 5.15876 2.04749 0.977162 0
M  V30 18 H 4.06561 2.99866 0.0288671 0
M  V30 19 H 4.18779 0.0660669 -0.225512 0
M  V30 20 H 2.96802 -1.52934 -0.462251 0
M  V30 21 H 1.41217 -3.42421 -0.739971 0
M  V30 22 H -1.04056 -2.98564 -0.581573 0
M  V30 23 H -5.98434 1.32887 0.734994 0
M  V30 24 H -4.82142 2.49326 0.0769077 0
M  V30 END ATOM
M  V30 BEGIN BOND
M  V30 1 1 1 2
M  V30 2 1 2 3
M  V30 3 2 3 4
M  V30 4 1 3 5
M  V30 5 2 5 6
M  V30 6 1 6 7
M  V30 7 2 7 8
M  V30 8 1 8 9
M  V30 9 2 9 10
M  V30 10 1 9 11
M  V30 11 2 11 12
M  V30 12 1 12 13
M  V30 13 2 13 14
M  V30 14 1 14 15
M  V30 15 1 14 16
M  V30 16 1 10 5
M  V30 17 1 15 11
M  V30 18 1 1 17
M  V30 19 1 1 18
M  V30 20 1 2 19
M  V30 21 1 6 20
M  V30 22 1 7 21
M  V30 23 1 8 22
M  V30 24 1 16 23
M  V30 25 1 16 24
M  V30 END BOND
M  V30 END CTAB
M  END
