
     RDKit          3D

  0  0  0  0  0  0  0  0  0  0999 V3000
M  V30 BEGIN CTAB
M  V30 COUNTS 33 34 0 0 0
M  V30 BEGIN ATOM
M  V30 1 C 4.16773 -0.640406 1.684 0
M  V30 2 C 3.71238 -0.43059 0.230054 0
M  V30 3 N 2.35604 -0.0238984 0.193306 0
M  V30 4 C 1.85157 0.447916 -1.03839 0
M  V30 5 C 0.343623 0.60712 -1.03523 0
M  V30 6 C -0.0227968 1.15568 -2.41886 0
M  V30 7 O -0.163028 1.43864 -0.0464384 0
M  V30 8 C -1.41187 0.950732 0.374523 0
M  V30 9 C -1.56985 -0.334168 -0.0801976 0
M  V30 10 C -0.34564 -0.69651 -0.835801 0
M  V30 11 C -2.74334 -1.00817 0.226356 0
M  V30 12 N -2.82974 -2.34106 -0.27244 0
M  V30 13 N -3.68011 -0.399333 0.948917 0
M  V30 14 C -3.55827 0.861543 1.41114 0
M  V30 15 N -2.41604 1.51598 1.11153 0
M  V30 16 N -4.59135 1.46466 2.17771 0
M  V30 17 H 4.8319 -1.49577 1.79742 0
M  V30 18 H 4.61827 0.329466 2.02434 0
M  V30 19 H 3.24075 -0.762672 2.27646 0
M  V30 20 H 4.38436 0.269337 -0.25596 0
M  V30 21 H 3.77344 -1.46675 -0.223636 0
M  V30 22 H 1.91073 0.269521 1.05599 0
M  V30 23 H 2.11777 -0.222854 -1.85196 0
M  V30 24 H 2.24308 1.47713 -1.25999 0
M  V30 25 H 0.890093 1.44193 -2.99818 0
M  V30 26 H -0.561241 0.394022 -3.00663 0
M  V30 27 H -0.606957 2.0965 -2.26865 0
M  V30 28 H 0.226615 -1.38071 -0.174552 0
M  V30 29 H -0.597432 -1.19204 -1.803 0
M  V30 30 H -2.13574 -3.01804 0.117868 0
M  V30 31 H -3.49892 -2.67813 -0.973998 0
M  V30 32 H -4.81687 1.10974 3.11707 0
M  V30 33 H -5.11915 2.26119 1.79723 0
M  V30 END ATOM
M  V30 BEGIN BOND
M  V30 1 1 1 2
M  V30 2 1 2 3
M  V30 3 1 3 4
M  V30 4 1 4 5
M  V30 5 1 5 6
M  V30 6 1 5 7
M  V30 7 1 7 8
M  V30 8 2 8 9
M  V30 9 1 9 10
M  V30 10 1 9 11
M  V30 11 1 11 12
M  V30 12 2 11 13
M  V30 13 1 13 14
M  V30 14 2 14 15
M  V30 15 1 14 16
M  V30 16 1 10 5
M  V30 17 1 15 8
M  V30 18 1 1 17
M  V30 19 1 1 18
M  V30 20 1 1 19
M  V30 21 1 2 20
M  V30 22 1 2 21
M  V30 23 1 3 22
M  V30 24 1 4 23
M  V30 25 1 4 24
M  V30 26 1 6 25
M  V30 27 1 6 26
M  V30 28 1 6 27
M  V30 29 1 10 28
M  V30 30 1 10 29
M  V30 31 1 12 30
M  V30 32 1 12 31
M  V30 33 1 16 32
M  V30 34 1 16 33
M  V30 END BOND
M  V30 END CTAB
M  END
