
     RDKit          3D

  0  0  0  0  0  0  0  0  0  0999 V3000
M  V30 BEGIN CTAB
M  V30 COUNTS 112 116 0 0 0
M  V30 BEGIN ATOM
M  V30 1 C 3.44382 6.45105 1.78881 0
M  V30 2 C 3.50185 5.48549 2.9528 0
M  V30 3 O 2.36638 4.69484 3.04175 0
M  V30 4 C 2.18091 3.90838 1.87772 0
M  V30 5 C 0.967632 3.07739 2.04469 0
M  V30 6 O 0.583044 2.22688 1.04833 0
M  V30 7 C 0.215738 2.53157 -0.323339 0
M  V30 8 C 1.16924 2.52035 -1.35983 0
M  V30 9 C 2.58548 2.00214 -1.39975 0
M  V30 10 C 2.66206 0.560215 -1.85208 0
M  V30 11 C 2.97609 0.514663 -3.2023 0
M  V30 12 C 2.96743 -0.609423 -3.98906 0
M  V30 13 N 3.30583 -0.592702 -5.35927 0
M  V30 14 C 2.60494 -1.74246 -3.31592 0
M  V30 15 C 2.27226 -1.77447 -1.94135 0
M  V30 16 C 1.75937 -3.1779 -1.63502 0
M  V30 17 C 0.247636 -3.22548 -1.62571 0
M  V30 18 C -0.193639 -3.38576 -2.94682 0
M  V30 19 C -1.49293 -3.29509 -3.35958 0
M  V30 20 C -2.35277 -3.01985 -2.32486 0
M  V30 21 C -1.98852 -2.84769 -0.984636 0
M  V30 22 C -3.23352 -2.36087 -0.281211 0
M  V30 23 C -3.19276 -0.958008 0.254838 0
M  V30 24 C -3.08591 -1.01807 1.64317 0
M  V30 25 C -2.85501 0.0456819 2.47002 0
M  V30 26 N -2.75902 -0.0609479 3.8733 0
M  V30 27 C -2.72828 1.22454 1.78789 0
M  V30 28 C -2.82109 1.37584 0.398819 0
M  V30 29 C -2.40449 2.79557 0.0401584 0
M  V30 30 C -1.06433 2.85653 -0.685702 0
M  V30 31 C -1.38829 3.17685 -2.03334 0
M  V30 32 C -0.481084 3.18276 -3.05125 0
M  V30 33 C 0.78804 2.84392 -2.65662 0
M  V30 34 C -3.06685 0.274763 -0.387638 0
M  V30 35 O -3.20681 0.384093 -1.84878 0
M  V30 36 C -4.34886 0.562107 -2.56522 0
M  V30 37 C -5.19603 1.75728 -2.30749 0
M  V30 38 O -5.66536 1.80744 -1.02017 0
M  V30 39 C -6.45401 2.89902 -0.759255 0
M  V30 40 C -6.94301 2.88945 0.676246 0
M  V30 41 C -0.654423 -2.96372 -0.628159 0
M  V30 42 O -0.235394 -2.82642 0.774494 0
M  V30 43 C -0.182893 -3.80309 1.73001 0
M  V30 44 C 0.671204 -4.99087 1.50932 0
M  V30 45 O 0.403108 -5.78057 0.436359 0
M  V30 46 C -0.809746 -6.39759 0.377722 0
M  V30 47 C -1.04884 -7.34918 1.55836 0
M  V30 48 C 2.30425 -0.629177 -1.18127 0
M  V30 49 O 2.01044 -0.627315 0.243575 0
M  V30 50 C 2.89372 -0.896068 1.27651 0
M  V30 51 C 4.13046 0.0278064 1.269 0
M  V30 52 O 4.94741 -0.185226 2.19825 0
M  V30 53 C 5.97447 -0.0644433 2.85312 0
M  V30 54 C 6.13454 -0.918187 4.13786 0
M  V30 55 H 4.04033 7.38595 2.00217 0
M  V30 56 H 2.35515 6.72729 1.69652 0
M  V30 57 H 3.81487 5.99525 0.853414 0
M  V30 58 H 3.58417 6.10999 3.87044 0
M  V30 59 H 4.43014 4.87879 2.8632 0
M  V30 60 H 3.10372 3.30666 1.80715 0
M  V30 61 H 2.10203 4.66474 1.05718 0
M  V30 62 H 0.9955 2.55828 3.01152 0
M  V30 63 H 0.108506 3.82037 2.1657 0
M  V30 64 H 3.32713 2.34329 -0.674269 0
M  V30 65 H 3.03875 2.5997 -2.26103 0
M  V30 66 H 3.29758 1.42771 -3.76953 0
M  V30 67 H 3.03533 0.223243 -5.93904 0
M  V30 68 H 3.81242 -1.37927 -5.76603 0
M  V30 69 H 2.61019 -2.6624 -3.9364 0
M  V30 70 H 2.11185 -3.89362 -2.50611 0
M  V30 71 H 2.27577 -3.76809 -0.8961 0
M  V30 72 H 0.546814 -3.61839 -3.75676 0
M  V30 73 H -1.80718 -3.42682 -4.37888 0
M  V30 74 H -3.43095 -2.93994 -2.64148 0
M  V30 75 H -4.17965 -2.6022 -0.864148 0
M  V30 76 H -3.42726 -3.05273 0.551827 0
M  V30 77 H -3.19514 -1.99723 2.1898 0
M  V30 78 H -1.91893 -0.553436 4.25956 0
M  V30 79 H -3.49697 0.335752 4.49449 0
M  V30 80 H -2.53605 2.12399 2.43812 0
M  V30 81 H -3.20944 3.38115 -0.486763 0
M  V30 82 H -2.453 3.41574 0.961294 0
M  V30 83 H -2.42391 3.44292 -2.32607 0
M  V30 84 H -0.734803 3.43028 -4.0697 0
M  V30 85 H 1.50458 2.86112 -3.50864 0
M  V30 86 H -5.01571 -0.331258 -2.43227 0
M  V30 87 H -4.05872 0.57673 -3.65111 0
M  V30 88 H -6.11228 1.6378 -2.95951 0
M  V30 89 H -4.73825 2.70613 -2.65016 0
M  V30 90 H -5.95288 3.87952 -0.926538 0
M  V30 91 H -7.3835 2.84374 -1.3898 0
M  V30 92 H -7.30713 1.91915 1.01552 0
M  V30 93 H -6.18174 3.26396 1.3869 0
M  V30 94 H -7.81235 3.59765 0.754534 0
M  V30 95 H 0.0733791 -3.30482 2.68553 0
M  V30 96 H -1.25097 -4.15509 1.90135 0
M  V30 97 H 0.632594 -5.63264 2.42411 0
M  V30 98 H 1.72407 -4.62778 1.41272 0
M  V30 99 H -0.760423 -7.09872 -0.511385 0
M  V30 100 H -1.68653 -5.77891 0.203877 0
M  V30 101 H -1.83817 -8.07501 1.19218 0
M  V30 102 H -0.142698 -7.944 1.72201 0
M  V30 103 H -1.45354 -6.82667 2.42412 0
M  V30 104 H 3.30305 -1.91337 1.11206 0
M  V30 105 H 2.42004 -0.864599 2.25972 0
M  V30 106 H 4.59355 -0.077518 0.234462 0
M  V30 107 H 3.68145 1.07376 1.33068 0
M  V30 108 H 6.93093 -0.282895 2.24343 0
M  V30 109 H 6.24903 0.989609 3.23764 0
M  V30 110 H 7.21881 -0.937018 4.35782 0
M  V30 111 H 5.63207 -0.420621 4.96743 0
M  V30 112 H 5.74092 -1.93123 3.97574 0
M  V30 END ATOM
M  V30 BEGIN BOND
M  V30 1 1 1 2
M  V30 2 1 2 3
M  V30 3 1 3 4
M  V30 4 1 4 5
M  V30 5 1 5 6
M  V30 6 1 6 7
M  V30 7 2 7 8
M  V30 8 1 8 9
M  V30 9 1 9 10
M  V30 10 2 10 11
M  V30 11 1 11 12
M  V30 12 1 12 13
M  V30 13 2 12 14
M  V30 14 1 14 15
M  V30 15 1 15 16
M  V30 16 1 16 17
M  V30 17 2 17 18
M  V30 18 1 18 19
M  V30 19 2 19 20
M  V30 20 1 20 21
M  V30 21 1 21 22
M  V30 22 1 22 23
M  V30 23 2 23 24
M  V30 24 1 24 25
M  V30 25 1 25 26
M  V30 26 2 25 27
M  V30 27 1 27 28
M  V30 28 1 28 29
M  V30 29 1 29 30
M  V30 30 2 30 31
M  V30 31 1 31 32
M  V30 32 2 32 33
M  V30 33 2 28 34
M  V30 34 1 34 35
M  V30 35 1 35 36
M  V30 36 1 36 37
M  V30 37 1 37 38
M  V30 38 1 38 39
M  V30 39 1 39 40
M  V30 40 2 21 41
M  V30 41 1 41 42
M  V30 42 1 42 43
M  V30 43 1 43 44
M  V30 44 1 44 45
M  V30 45 1 45 46
M  V30 46 1 46 47
M  V30 47 2 15 48
M  V30 48 1 48 49
M  V30 49 1 49 50
M  V30 50 1 50 51
M  V30 51 1 51 52
M  V30 52 1 52 53
M  V30 53 1 53 54
M  V30 54 1 30 7
M  V30 55 1 33 8
M  V30 56 1 48 10
M  V30 57 1 41 17
M  V30 58 1 34 23
M  V30 59 1 1 55
M  V30 60 1 1 56
M  V30 61 1 1 57
M  V30 62 1 2 58
M  V30 63 1 2 59
M  V30 64 1 4 60
M  V30 65 1 4 61
M  V30 66 1 5 62
M  V30 67 1 5 63
M  V30 68 1 9 64
M  V30 69 1 9 65
M  V30 70 1 11 66
M  V30 71 1 13 67
M  V30 72 1 13 68
M  V30 73 1 14 69
M  V30 74 1 16 70
M  V30 75 1 16 71
M  V30 76 1 18 72
M  V30 77 1 19 73
M  V30 78 1 20 74
M  V30 79 1 22 75
M  V30 80 1 22 76
M  V30 81 1 24 77
M  V30 82 1 26 78
M  V30 83 1 26 79
M  V30 84 1 27 80
M  V30 85 1 29 81
M  V30 86 1 29 82
M  V30 87 1 31 83
M  V30 88 1 32 84
M  V30 89 1 33 85
M  V30 90 1 36 86
M  V30 91 1 36 87
M  V30 92 1 37 88
M  V30 93 1 37 89
M  V30 94 1 39 90
M  V30 95 1 39 91
M  V30 96 1 40 92
M  V30 97 1 40 93
M  V30 98 1 40 94
M  V30 99 1 43 95
M  V30 100 1 43 96
M  V30 101 1 44 97
M  V30 102 1 44 98
M  V30 103 1 46 99
M  V30 104 1 46 100
M  V30 105 1 47 101
M  V30 106 1 47 102
M  V30 107 1 47 103
M  V30 108 1 50 104
M  V30 109 1 50 105
M  V30 110 1 51 106
M  V30 111 1 51 107
M  V30 112 1 53 108
M  V30 113 1 53 109
M  V30 114 1 54 110
M  V30 115 1 54 111
M  V30 116 1 54 112
M  V30 END BOND
M  V30 END CTAB
M  END
