
     RDKit          3D

  0  0  0  0  0  0  0  0  0  0999 V3000
M  V30 BEGIN CTAB
M  V30 COUNTS 32 33 0 0 0
M  V30 BEGIN ATOM
M  V30 1 N 3.01317 3.185 0.656274 0
M  V30 2 C 2.91458 1.79848 0.403924 0
M  V30 3 N 1.71273 1.2805 0.0189704 0
M  V30 4 C 1.57148 -0.0346153 -0.232265 0
M  V30 5 N 0.361939 -0.617811 -0.629895 0
M  V30 6 C -0.87532 0.0998009 -0.820749 0
M  V30 7 C -1.93024 -0.886677 -1.24633 0
M  V30 8 C -2.67671 -1.44802 -0.041067 0
M  V30 9 C -3.48753 -0.395531 0.662544 0
M  V30 10 C -2.88492 0.947152 0.400125 0
M  V30 11 C -1.3624 0.777173 0.436326 0
M  V30 12 C 2.68916 -0.817241 -0.0819171 0
M  V30 13 C 3.91639 -0.278557 0.312773 0
M  V30 14 N 4.01241 1.04182 0.553583 0
M  V30 15 Cl 5.34507 -1.25708 0.508551 0
M  V30 16 N 2.63645 -2.19776 -0.321805 0
M  V30 17 H 3.07906 3.51324 1.63583 0
M  V30 18 H 3.01859 3.85094 -0.128952 0
M  V30 19 H 0.345484 -1.65099 -0.803716 0
M  V30 20 H -0.805577 0.87854 -1.60149 0
M  V30 21 H -1.42606 -1.77663 -1.71731 0
M  V30 22 H -2.66721 -0.469868 -1.94846 0
M  V30 23 H -2.00895 -1.98249 0.644139 0
M  V30 24 H -3.37039 -2.22849 -0.463812 0
M  V30 25 H -3.48075 -0.538921 1.78164 0
M  V30 26 H -4.54853 -0.479405 0.350431 0
M  V30 27 H -3.14633 1.62393 1.23751 0
M  V30 28 H -3.20762 1.42515 -0.529207 0
M  V30 29 H -1.06678 0.280255 1.35843 0
M  V30 30 H -0.966604 1.83468 0.478627 0
M  V30 31 H 3.39729 -2.6272 -0.899048 0
M  V30 32 H 1.89811 -2.84936 0.0263534 0
M  V30 END ATOM
M  V30 BEGIN BOND
M  V30 1 1 1 2
M  V30 2 2 2 3
M  V30 3 1 3 4
M  V30 4 1 4 5
M  V30 5 1 5 6
M  V30 6 1 6 7
M  V30 7 1 7 8
M  V30 8 1 8 9
M  V30 9 1 9 10
M  V30 10 1 10 11
M  V30 11 2 4 12
M  V30 12 1 12 13
M  V30 13 2 13 14
M  V30 14 1 13 15
M  V30 15 1 12 16
M  V30 16 1 14 2
M  V30 17 1 11 6
M  V30 18 1 1 17
M  V30 19 1 1 18
M  V30 20 1 5 19
M  V30 21 1 6 20
M  V30 22 1 7 21
M  V30 23 1 7 22
M  V30 24 1 8 23
M  V30 25 1 8 24
M  V30 26 1 9 25
M  V30 27 1 9 26
M  V30 28 1 10 27
M  V30 29 1 10 28
M  V30 30 1 11 29
M  V30 31 1 11 30
M  V30 32 1 16 31
M  V30 33 1 16 32
M  V30 END BOND
M  V30 END CTAB
M  END
