
     RDKit          3D

  0  0  0  0  0  0  0  0  0  0999 V3000
M  V30 BEGIN CTAB
M  V30 COUNTS 49 50 0 0 0
M  V30 BEGIN ATOM
M  V30 1 N 6.64554 1.65452 0.0937098 0
M  V30 2 C 6.77902 0.231376 0.200628 0
M  V30 3 C 5.47965 -0.42585 0.630558 0
M  V30 4 C 4.37359 -0.149281 -0.361597 0
M  V30 5 C 3.10783 -0.825288 0.115381 0
M  V30 6 C 2.01059 -0.505508 -0.94168 0 CFG=1
M  V30 7 C 0.755875 -1.11733 -0.56347 0
M  V30 8 O 0.846435 -2.36875 -0.244578 0
M  V30 9 N -0.511425 -0.528686 -0.503987 0
M  V30 10 C -0.731086 0.827342 -0.844787 0
M  V30 11 C -2.16672 1.29651 -0.787457 0
M  V30 12 C -3.1431 0.211882 -1.14211 0 CFG=1
M  V30 13 C -2.95294 -1.00697 -0.271625 0 CFG=1
M  V30 14 C -1.57176 -1.43325 -0.0542468 0
M  V30 15 C -3.63 -0.490325 1.00791 0
M  V30 16 C -4.80213 0.223876 0.367666 0
M  V30 17 O -4.41069 0.635546 -0.871556 0
M  V30 18 C -5.8871 -0.844338 0.17188 0
M  V30 19 C -5.33916 1.33158 1.24225 0
M  V30 20 N 1.94831 0.87796 -1.19763 0
M  V30 21 H 6.27235 1.87019 -0.862783 0
M  V30 22 H 5.98897 2.06423 0.776124 0
M  V30 23 H 7.05944 -0.237406 -0.767031 0
M  V30 24 H 7.58518 0.0226005 0.931104 0
M  V30 25 H 5.18405 0.00637331 1.61032 0
M  V30 26 H 5.61752 -1.5058 0.74735 0
M  V30 27 H 4.64853 -0.585841 -1.3545 0
M  V30 28 H 4.23348 0.934888 -0.512627 0
M  V30 29 H 3.21658 -1.9273 0.0750496 0
M  V30 30 H 2.79937 -0.516692 1.11165 0
M  V30 31 H 2.46243 -1.01656 -1.86872 0
M  V30 32 H -0.170353 1.48232 -0.151067 0
M  V30 33 H -0.368273 1.03547 -1.87668 0
M  V30 34 H -2.29496 2.12258 -1.51051 0
M  V30 35 H -2.39539 1.68565 0.214541 0
M  V30 36 H -2.98 -0.0622955 -2.20468 0
M  V30 37 H -3.56298 -1.82615 -0.710031 0
M  V30 38 H -1.39957 -2.39485 -0.620547 0
M  V30 39 H -1.42895 -1.71085 1.01193 0
M  V30 40 H -2.96128 0.209913 1.50292 0
M  V30 41 H -3.97299 -1.33054 1.63667 0
M  V30 42 H -6.44754 -0.670992 -0.76968 0
M  V30 43 H -6.55634 -0.759604 1.05156 0
M  V30 44 H -5.45321 -1.86371 0.194582 0
M  V30 45 H -5.07259 2.3337 0.903775 0
M  V30 46 H -5.0437 1.1456 2.30975 0
M  V30 47 H -6.4599 1.25252 1.23542 0
M  V30 48 H 2.25528 1.48083 -0.385142 0
M  V30 49 H 2.44411 1.16673 -2.07965 0
M  V30 END ATOM
M  V30 BEGIN BOND
M  V30 1 1 1 2
M  V30 2 1 2 3
M  V30 3 1 3 4
M  V30 4 1 4 5
M  V30 5 1 5 6
M  V30 6 1 6 7
M  V30 7 2 7 8
M  V30 8 1 7 9
M  V30 9 1 9 10
M  V30 10 1 10 11
M  V30 11 1 11 12
M  V30 12 1 12 13
M  V30 13 1 13 14
M  V30 14 1 13 15
M  V30 15 1 15 16
M  V30 16 1 16 17
M  V30 17 1 16 18
M  V30 18 1 16 19
M  V30 19 1 6 20
M  V30 20 1 14 9
M  V30 21 1 17 12
M  V30 22 1 1 21
M  V30 23 1 1 22
M  V30 24 1 2 23
M  V30 25 1 2 24
M  V30 26 1 3 25
M  V30 27 1 3 26
M  V30 28 1 4 27
M  V30 29 1 4 28
M  V30 30 1 5 29
M  V30 31 1 5 30
M  V30 32 1 6 31 CFG=3
M  V30 33 1 10 32
M  V30 34 1 10 33
M  V30 35 1 11 34
M  V30 36 1 11 35
M  V30 37 1 12 36 CFG=3
M  V30 38 1 13 37 CFG=3
M  V30 39 1 14 38
M  V30 40 1 14 39
M  V30 41 1 15 40
M  V30 42 1 15 41
M  V30 43 1 18 42
M  V30 44 1 18 43
M  V30 45 1 18 44
M  V30 46 1 19 45
M  V30 47 1 19 46
M  V30 48 1 19 47
M  V30 49 1 20 48
M  V30 50 1 20 49
M  V30 END BOND
M  V30 END CTAB
M  END
