
     RDKit          3D

  0  0  0  0  0  0  0  0  0  0999 V3000
M  V30 BEGIN CTAB
M  V30 COUNTS 57 60 0 0 0
M  V30 BEGIN ATOM
M  V30 1 N 6.27352 1.93119 1.97894 0
M  V30 2 C 7.01158 1.55856 0.863307 0 CFG=1
M  V30 3 C 6.28048 1.70695 -0.447827 0
M  V30 4 C 5.0637 0.909875 -0.532416 0
M  V30 5 C 5.06593 -0.377153 -1.01407 0
M  V30 6 C 3.90223 -1.10454 -1.08273 0
M  V30 7 C 2.67076 -0.58358 -0.672815 0
M  V30 8 C 2.69417 0.704522 -0.195229 0
M  V30 9 C 3.86469 1.44515 -0.122787 0
M  V30 10 C 1.46168 -1.38244 -0.759456 0
M  V30 11 N 1.5393 -2.63483 -1.2367 0
M  V30 12 C 0.424973 -3.38958 -1.32343 0
M  V30 13 N 0.571891 -4.70165 -1.83484 0
M  V30 14 N -0.786842 -2.96342 -0.955905 0
M  V30 15 C -0.914724 -1.70546 -0.467917 0
M  V30 16 C 0.236405 -0.909985 -0.372561 0
M  V30 17 N -2.18322 -1.21696 -0.0717283 0
M  V30 18 C -3.34984 -2.05491 -0.264154 0
M  V30 19 C -4.54001 -1.1586 -0.563596 0
M  V30 20 N -4.71428 -0.183089 0.511545 0
M  V30 21 C -3.60076 0.0545512 1.38268 0
M  V30 22 C -2.33514 0.0857277 0.511686 0
M  V30 23 C -5.93161 0.497165 0.679862 0
M  V30 24 C -6.92583 0.345129 -0.287207 0
M  V30 25 C -8.15041 0.970207 -0.19686 0
M  V30 26 Cl -9.35089 0.735529 -1.447 0
M  V30 27 C -8.37271 1.77045 0.902954 0
M  V30 28 C -7.42725 1.95625 1.88766 0
M  V30 29 C -6.19518 1.30262 1.75797 0
M  V30 30 C 8.30841 2.28005 0.851063 0
M  V30 31 O 9.24483 2.09902 -0.160644 0
M  V30 32 O 8.63705 3.10344 1.76287 0
M  V30 33 H 5.61819 1.33944 2.40772 0
M  V30 34 H 6.78498 2.51741 2.61703 0
M  V30 35 H 7.27648 0.466597 0.954309 0
M  V30 36 H 6.9286 1.48679 -1.31547 0
M  V30 37 H 6.03616 2.80516 -0.539679 0
M  V30 38 H 5.9963 -0.856615 -1.35601 0
M  V30 39 H 3.87282 -2.13124 -1.46142 0
M  V30 40 H 1.78188 1.15371 0.132345 0
M  V30 41 H 3.78033 2.44931 0.267535 0
M  V30 42 H 0.326182 -4.88039 -2.82197 0
M  V30 43 H 0.914845 -5.46279 -1.24116 0
M  V30 44 H 0.115926 0.0716364 0.00931341 0
M  V30 45 H -3.59908 -2.63591 0.646515 0
M  V30 46 H -3.14115 -2.75707 -1.07078 0
M  V30 47 H -5.4409 -1.81411 -0.544583 0
M  V30 48 H -4.47321 -0.705248 -1.55113 0
M  V30 49 H -3.49044 -0.757598 2.15202 0
M  V30 50 H -3.68215 1.00911 1.92382 0
M  V30 51 H -2.52382 0.887664 -0.24857 0
M  V30 52 H -1.49092 0.396572 1.16406 0
M  V30 53 H -6.7016 -0.286293 -1.11927 0
M  V30 54 H -9.34436 2.26922 0.979197 0
M  V30 55 H -7.60382 2.58158 2.74413 0
M  V30 56 H -5.49615 1.47266 2.54657 0
M  V30 57 H 9.08197 2.29022 -1.12877 0
M  V30 END ATOM
M  V30 BEGIN BOND
M  V30 1 1 1 2
M  V30 2 1 2 3
M  V30 3 1 3 4
M  V30 4 2 4 5
M  V30 5 1 5 6
M  V30 6 2 6 7
M  V30 7 1 7 8
M  V30 8 2 8 9
M  V30 9 1 7 10
M  V30 10 2 10 11
M  V30 11 1 11 12
M  V30 12 1 12 13
M  V30 13 2 12 14
M  V30 14 1 14 15
M  V30 15 2 15 16
M  V30 16 1 15 17
M  V30 17 1 17 18
M  V30 18 1 18 19
M  V30 19 1 19 20
M  V30 20 1 20 21
M  V30 21 1 21 22
M  V30 22 1 20 23
M  V30 23 2 23 24
M  V30 24 1 24 25
M  V30 25 1 25 26
M  V30 26 2 25 27
M  V30 27 1 27 28
M  V30 28 2 28 29
M  V30 29 1 2 30
M  V30 30 1 30 31
M  V30 31 2 30 32
M  V30 32 1 9 4
M  V30 33 1 16 10
M  V30 34 1 22 17
M  V30 35 1 29 23
M  V30 36 1 1 33
M  V30 37 1 1 34
M  V30 38 1 2 35 CFG=1
M  V30 39 1 3 36
M  V30 40 1 3 37
M  V30 41 1 5 38
M  V30 42 1 6 39
M  V30 43 1 8 40
M  V30 44 1 9 41
M  V30 45 1 13 42
M  V30 46 1 13 43
M  V30 47 1 16 44
M  V30 48 1 18 45
M  V30 49 1 18 46
M  V30 50 1 19 47
M  V30 51 1 19 48
M  V30 52 1 21 49
M  V30 53 1 21 50
M  V30 54 1 22 51
M  V30 55 1 22 52
M  V30 56 1 24 53
M  V30 57 1 27 54
M  V30 58 1 28 55
M  V30 59 1 29 56
M  V30 60 1 31 57
M  V30 END BOND
M  V30 END CTAB
M  END
