
     RDKit          3D

  0  0  0  0  0  0  0  0  0  0999 V3000
M  V30 BEGIN CTAB
M  V30 COUNTS 24 24 0 0 0
M  V30 BEGIN ATOM
M  V30 1 N -4.23763 0.357179 -0.271199 0
M  V30 2 N -2.83544 0.44814 -0.289168 0
M  V30 3 C -1.99582 -0.637742 0.00573523 0
M  V30 4 O -2.63357 -1.72942 0.29543 0
M  V30 5 C -0.54914 -0.663116 0.0191605 0
M  V30 6 C 0.0693037 -1.8786 0.34784 0
M  V30 7 C 1.43296 -2.02526 0.393417 0
M  V30 8 Cl 2.19668 -3.55056 0.80581 0
M  V30 9 C 2.25156 -0.963433 0.112522 0
M  V30 10 C 1.68704 0.24765 -0.21473 0
M  V30 11 C 0.302455 0.365566 -0.252694 0
M  V30 12 O -0.22636 1.59131 -0.583711 0
M  V30 13 C 0.488536 2.74655 -0.890104 0
M  V30 14 N 3.66847 -1.04591 0.14116 0
M  V30 15 H -4.6376 0.00653898 -1.14975 0
M  V30 16 H -4.60079 -0.0783622 0.587767 0
M  V30 17 H -2.45792 1.36711 -0.533763 0
M  V30 18 H -0.538461 -2.72433 0.571768 0
M  V30 19 H 2.26277 1.12184 -0.446463 0
M  V30 20 H -0.170024 3.63696 -0.791777 0
M  V30 21 H 1.29751 2.89136 -0.134211 0
M  V30 22 H 0.879471 2.68357 -1.92561 0
M  V30 23 H 4.1129 -1.43685 0.995838 0
M  V30 24 H 4.2331 -0.730195 -0.65492 0
M  V30 END ATOM
M  V30 BEGIN BOND
M  V30 1 1 1 2
M  V30 2 1 2 3
M  V30 3 2 3 4
M  V30 4 1 3 5
M  V30 5 2 5 6
M  V30 6 1 6 7
M  V30 7 1 7 8
M  V30 8 2 7 9
M  V30 9 1 9 10
M  V30 10 2 10 11
M  V30 11 1 11 12
M  V30 12 1 12 13
M  V30 13 1 9 14
M  V30 14 1 11 5
M  V30 15 1 1 15
M  V30 16 1 1 16
M  V30 17 1 2 17
M  V30 18 1 6 18
M  V30 19 1 10 19
M  V30 20 1 13 20
M  V30 21 1 13 21
M  V30 22 1 13 22
M  V30 23 1 14 23
M  V30 24 1 14 24
M  V30 END BOND
M  V30 END CTAB
M  END
