
     RDKit          3D

  0  0  0  0  0  0  0  0  0  0999 V3000
M  V30 BEGIN CTAB
M  V30 COUNTS 46 47 0 0 0
M  V30 BEGIN ATOM
M  V30 1 N -2.83342 -3.25495 0.314926 0
M  V30 2 C -2.74075 -1.8192 0.044775 0 CFG=2
M  V30 3 C -1.32088 -1.38019 0.456023 0
M  V30 4 N -0.424075 -2.1379 -0.319197 0
M  V30 5 C 0.954075 -2.03467 -0.135885 0
M  V30 6 C 1.65391 -0.780178 -0.50652 0 CFG=1
M  V30 7 N 1.23477 0.402541 0.182175 0
M  V30 8 C 3.14526 -0.987749 -0.187502 0
M  V30 9 C 3.95845 0.187603 -0.510447 0
M  V30 10 C 4.14058 1.17058 0.466741 0
M  V30 11 C 4.9123 2.27407 0.163095 0
M  V30 12 C 5.49871 2.40084 -1.10086 0
M  V30 13 C 5.31158 1.42392 -2.05727 0
M  V30 14 C 4.53529 0.311338 -1.75591 0
M  V30 15 C -3.75797 -1.14888 0.907996 0
M  V30 16 C -3.77704 0.29907 0.729945 0
M  V30 17 C -4.5965 0.809249 -0.272911 0
M  V30 18 C -4.67198 2.1604 -0.480635 0
M  V30 19 C -3.93012 2.99541 0.312643 0
M  V30 20 C -3.1239 2.50636 1.2981 0
M  V30 21 C -3.03361 1.15282 1.52341 0
M  V30 22 H -2.11036 -3.71818 -0.230508 0
M  V30 23 H -2.61821 -3.377 1.3176 0
M  V30 24 H -2.88771 -1.7016 -1.03047 0
M  V30 25 H -1.17611 -1.51044 1.53798 0
M  V30 26 H -1.25745 -0.272545 0.254101 0
M  V30 27 H -0.773239 -2.5257 -1.20875 0
M  V30 28 H 1.17523 -2.25886 0.947315 0
M  V30 29 H 1.43017 -2.92119 -0.662041 0
M  V30 30 H 1.52533 -0.600431 -1.59875 0
M  V30 31 H 0.626882 1.03242 -0.366097 0
M  V30 32 H 0.875411 0.245456 1.13014 0
M  V30 33 H 3.18342 -1.15965 0.914208 0
M  V30 34 H 3.50349 -1.92202 -0.662237 0
M  V30 35 H 3.67994 1.06367 1.44834 0
M  V30 36 H 5.08941 3.06394 0.871151 0
M  V30 37 H 6.09757 3.27944 -1.30285 0
M  V30 38 H 5.75433 1.49307 -3.04834 0
M  V30 39 H 4.3662 -0.474306 -2.48213 0
M  V30 40 H -4.76133 -1.61481 0.700233 0
M  V30 41 H -3.46008 -1.37704 1.97548 0
M  V30 42 H -5.19047 0.161972 -0.908921 0
M  V30 43 H -5.29814 2.57712 -1.24942 0
M  V30 44 H -4.00051 4.0648 0.136709 0
M  V30 45 H -2.52112 3.15711 1.9456 0
M  V30 46 H -2.38736 0.744321 2.31404 0
M  V30 END ATOM
M  V30 BEGIN BOND
M  V30 1 1 1 2
M  V30 2 1 2 3
M  V30 3 1 3 4
M  V30 4 1 4 5
M  V30 5 1 5 6
M  V30 6 1 6 7
M  V30 7 1 6 8
M  V30 8 1 8 9
M  V30 9 2 9 10
M  V30 10 1 10 11
M  V30 11 2 11 12
M  V30 12 1 12 13
M  V30 13 2 13 14
M  V30 14 1 2 15
M  V30 15 1 15 16
M  V30 16 2 16 17
M  V30 17 1 17 18
M  V30 18 2 18 19
M  V30 19 1 19 20
M  V30 20 2 20 21
M  V30 21 1 14 9
M  V30 22 1 21 16
M  V30 23 1 1 22
M  V30 24 1 1 23
M  V30 25 1 2 24 CFG=3
M  V30 26 1 3 25
M  V30 27 1 3 26
M  V30 28 1 4 27
M  V30 29 1 5 28
M  V30 30 1 5 29
M  V30 31 1 6 30 CFG=3
M  V30 32 1 7 31
M  V30 33 1 7 32
M  V30 34 1 8 33
M  V30 35 1 8 34
M  V30 36 1 10 35
M  V30 37 1 11 36
M  V30 38 1 12 37
M  V30 39 1 13 38
M  V30 40 1 14 39
M  V30 41 1 15 40
M  V30 42 1 15 41
M  V30 43 1 17 42
M  V30 44 1 18 43
M  V30 45 1 19 44
M  V30 46 1 20 45
M  V30 47 1 21 46
M  V30 END BOND
M  V30 END CTAB
M  END
