
     RDKit          3D

  0  0  0  0  0  0  0  0  0  0999 V3000
M  V30 BEGIN CTAB
M  V30 COUNTS 21 21 0 0 0
M  V30 BEGIN ATOM
M  V30 1 N -2.87509 1.30897 -1.25527 0
M  V30 2 C -2.56076 1.37391 0.11662 0
M  V30 3 N -3.3588 1.93577 0.944717 0
M  V30 4 N -1.35672 0.818665 0.602012 0
M  V30 5 C -0.432977 0.184525 -0.260111 0
M  V30 6 O -0.70409 0.122403 -1.47932 0
M  V30 7 C 0.808558 -0.389886 0.229379 0
M  V30 8 C 1.71071 -1.0105 -0.620176 0
M  V30 9 N 1.36582 -1.05801 -1.98459 0
M  V30 10 N 2.85943 -1.53622 -0.132917 0
M  V30 11 C 3.17585 -1.48386 1.17081 0
M  V30 12 C 2.28327 -0.868055 2.02189 0
M  V30 13 Br 2.7082 -0.778485 3.88755 0
M  V30 14 N 1.14345 -0.34737 1.53271 0
M  V30 15 H -2.82295 2.13859 -1.88031 0
M  V30 16 H -3.17292 0.408492 -1.68169 0
M  V30 17 H -4.25001 2.34939 0.600999 0
M  V30 18 H -1.09836 0.856024 1.63427 0
M  V30 19 H 0.802553 -1.82467 -2.39793 0
M  V30 20 H 1.6821 -0.298182 -2.62 0
M  V30 21 H 4.09274 -1.90151 1.57137 0
M  V30 END ATOM
M  V30 BEGIN BOND
M  V30 1 1 1 2
M  V30 2 2 2 3 CFG=2
M  V30 3 1 2 4
M  V30 4 1 4 5
M  V30 5 2 5 6
M  V30 6 1 5 7
M  V30 7 2 7 8
M  V30 8 1 8 9
M  V30 9 1 8 10
M  V30 10 2 10 11
M  V30 11 1 11 12
M  V30 12 1 12 13
M  V30 13 2 12 14
M  V30 14 1 14 7
M  V30 15 1 1 15
M  V30 16 1 1 16
M  V30 17 1 3 17
M  V30 18 1 4 18
M  V30 19 1 9 19
M  V30 20 1 9 20
M  V30 21 1 11 21
M  V30 END BOND
M  V30 END CTAB
M  END
