
     RDKit          3D

  0  0  0  0  0  0  0  0  0  0999 V3000
M  V30 BEGIN CTAB
M  V30 COUNTS 66 65 0 0 0
M  V30 BEGIN ATOM
M  V30 1 N 7.49493 -1.08087 -2.72837 0
M  V30 2 C 7.91301 0.167661 -2.16626 0
M  V30 3 C 7.89648 0.320045 -0.709603 0
M  V30 4 C 6.61998 0.222675 0.0482764 0
M  V30 5 C 5.90757 -1.05333 -0.0456522 0
M  V30 6 C 4.67942 -1.3201 0.682778 0
M  V30 7 C 3.38788 -0.646667 0.472377 0
M  V30 8 C 3.38576 0.820709 0.667269 0
M  V30 9 C 2.127 1.57731 0.5746 0
M  V30 10 C 1.04757 1.419 1.56625 0
M  V30 11 C 0.440938 0.097016 1.77656 0
M  V30 12 C -0.731507 0.197699 2.7727 0
M  V30 13 C -1.80087 1.0957 2.28087 0
M  V30 14 C -2.38031 0.649196 0.942191 0
M  V30 15 C -2.96453 -0.722694 1.09319 0
M  V30 16 C -3.54586 -1.25438 -0.170611 0
M  V30 17 C -4.66178 -0.361633 -0.702339 0
M  V30 18 C -5.72762 -0.261223 0.298008 0
M  V30 19 C -6.89375 0.543994 -0.0243745 0
M  V30 20 C -7.9212 0.249323 -0.976975 0
M  V30 21 C -7.83903 -0.00695819 -2.40466 0
M  V30 22 N -7.2158 -1.1854 -2.88017 0
M  V30 23 H 7.77787 -1.90825 -2.19826 0
M  V30 24 H 7.90578 -1.15552 -3.70106 0
M  V30 25 H 8.99887 0.280179 -2.49223 0
M  V30 26 H 7.42344 1.03619 -2.68488 0
M  V30 27 H 8.36665 1.32985 -0.47774 0
M  V30 28 H 8.6678 -0.387715 -0.260981 0
M  V30 29 H 6.94861 0.301532 1.15496 0
M  V30 30 H 6.08541 1.15818 -0.120323 0
M  V30 31 H 6.65564 -1.85082 0.294386 0
M  V30 32 H 5.70858 -1.34526 -1.12528 0
M  V30 33 H 4.52535 -2.46744 0.622202 0
M  V30 34 H 4.90641 -1.24777 1.81812 0
M  V30 35 H 2.96895 -0.892435 -0.573628 0
M  V30 36 H 2.65173 -1.20635 1.10524 0
M  V30 37 H 3.99864 1.2307 -0.216959 0
M  V30 38 H 3.95451 1.11094 1.58392 0
M  V30 39 H 2.37275 2.70777 0.589808 0
M  V30 40 H 1.70566 1.5068 -0.497568 0
M  V30 41 H 0.241245 2.21913 1.38429 0
M  V30 42 H 1.47941 1.78512 2.56186 0
M  V30 43 H 0.121518 -0.412123 0.8729 0
M  V30 44 H 1.17611 -0.501206 2.40562 0
M  V30 45 H -0.288783 0.580813 3.73413 0
M  V30 46 H -1.07817 -0.833838 2.97588 0
M  V30 47 H -1.49563 2.14606 2.27482 0
M  V30 48 H -2.62789 1.05178 3.05857 0
M  V30 49 H -1.56221 0.648436 0.209132 0
M  V30 50 H -3.11991 1.40409 0.614968 0
M  V30 51 H -3.68408 -0.757792 1.94732 0
M  V30 52 H -2.12501 -1.45942 1.35643 0
M  V30 53 H -3.90778 -2.28328 -0.0162396 0
M  V30 54 H -2.72386 -1.22985 -0.938599 0
M  V30 55 H -4.24714 0.6973 -0.831165 0
M  V30 56 H -4.85706 -0.690185 -1.70642 0
M  V30 57 H -5.22858 0.219461 1.22822 0
M  V30 58 H -5.99749 -1.28561 0.715406 0
M  V30 59 H -6.53978 1.67152 -0.142651 0
M  V30 60 H -7.46468 0.724558 0.993355 0
M  V30 61 H -8.71832 1.11555 -0.889064 0
M  V30 62 H -8.58023 -0.583386 -0.469733 0
M  V30 63 H -8.88081 0.0146382 -2.86228 0
M  V30 64 H -7.38322 0.92514 -2.90023 0
M  V30 65 H -6.40137 -0.959588 -3.47165 0
M  V30 66 H -6.94721 -1.87497 -2.16307 0
M  V30 END ATOM
M  V30 BEGIN BOND
M  V30 1 1 1 2
M  V30 2 1 2 3
M  V30 3 1 3 4
M  V30 4 1 4 5
M  V30 5 1 5 6
M  V30 6 1 6 7
M  V30 7 1 7 8
M  V30 8 1 8 9
M  V30 9 1 9 10
M  V30 10 1 10 11
M  V30 11 1 11 12
M  V30 12 1 12 13
M  V30 13 1 13 14
M  V30 14 1 14 15
M  V30 15 1 15 16
M  V30 16 1 16 17
M  V30 17 1 17 18
M  V30 18 1 18 19
M  V30 19 1 19 20
M  V30 20 1 20 21
M  V30 21 1 21 22
M  V30 22 1 1 23
M  V30 23 1 1 24
M  V30 24 1 2 25
M  V30 25 1 2 26
M  V30 26 1 3 27
M  V30 27 1 3 28
M  V30 28 1 4 29
M  V30 29 1 4 30
M  V30 30 1 5 31
M  V30 31 1 5 32
M  V30 32 1 6 33
M  V30 33 1 6 34
M  V30 34 1 7 35
M  V30 35 1 7 36
M  V30 36 1 8 37
M  V30 37 1 8 38
M  V30 38 1 9 39
M  V30 39 1 9 40
M  V30 40 1 10 41
M  V30 41 1 10 42
M  V30 42 1 11 43
M  V30 43 1 11 44
M  V30 44 1 12 45
M  V30 45 1 12 46
M  V30 46 1 13 47
M  V30 47 1 13 48
M  V30 48 1 14 49
M  V30 49 1 14 50
M  V30 50 1 15 51
M  V30 51 1 15 52
M  V30 52 1 16 53
M  V30 53 1 16 54
M  V30 54 1 17 55
M  V30 55 1 17 56
M  V30 56 1 18 57
M  V30 57 1 18 58
M  V30 58 1 19 59
M  V30 59 1 19 60
M  V30 60 1 20 61
M  V30 61 1 20 62
M  V30 62 1 21 63
M  V30 63 1 21 64
M  V30 64 1 22 65
M  V30 65 1 22 66
M  V30 END BOND
M  V30 END CTAB
M  END
