
     RDKit          3D

  0  0  0  0  0  0  0  0  0  0999 V3000
M  V30 BEGIN CTAB
M  V30 COUNTS 21 21 0 0 0
M  V30 BEGIN ATOM
M  V30 1 Br -3.16317 -1.25518 1.92906 0
M  V30 2 C -2.99051 -0.991184 0.0129523 0
M  V30 3 C -2.07311 0.1723 -0.236906 0
M  V30 4 O -2.60987 1.25856 -0.56112 0
M  V30 5 C -0.63852 0.055536 -0.105922 0
M  V30 6 C -0.128164 -1.20577 0.237068 0
M  V30 7 C 1.23548 -1.3244 0.359729 0
M  V30 8 F 1.83288 -2.50249 0.681098 0
M  V30 9 C 2.08708 -0.243555 0.156674 0
M  V30 10 C 1.56706 0.998035 -0.180747 0
M  V30 11 C 0.178808 1.13587 -0.310867 0
M  V30 12 N -0.381991 2.42036 -0.653113 0
M  V30 13 N 3.48333 -0.407531 0.290956 0
M  V30 14 H -3.99481 -0.789458 -0.458524 0
M  V30 15 H -2.63007 -1.93178 -0.435872 0
M  V30 16 H -0.797127 -2.04942 0.396632 0
M  V30 17 H 2.1748 1.85602 -0.352829 0
M  V30 18 H -0.42507 3.16354 0.0892201 0
M  V30 19 H -0.74136 2.63885 -1.5855 0
M  V30 20 H 4.19784 0.209873 -0.138236 0
M  V30 21 H 3.81648 -1.20818 0.866249 0
M  V30 END ATOM
M  V30 BEGIN BOND
M  V30 1 1 1 2
M  V30 2 1 2 3
M  V30 3 2 3 4
M  V30 4 1 3 5
M  V30 5 2 5 6
M  V30 6 1 6 7
M  V30 7 1 7 8
M  V30 8 2 7 9
M  V30 9 1 9 10
M  V30 10 2 10 11
M  V30 11 1 11 12
M  V30 12 1 9 13
M  V30 13 1 11 5
M  V30 14 1 2 14
M  V30 15 1 2 15
M  V30 16 1 6 16
M  V30 17 1 10 17
M  V30 18 1 12 18
M  V30 19 1 12 19
M  V30 20 1 13 20
M  V30 21 1 13 21
M  V30 END BOND
M  V30 END CTAB
M  END
