
     RDKit          3D

  0  0  0  0  0  0  0  0  0  0999 V3000
M  V30 BEGIN CTAB
M  V30 COUNTS 24 24 0 0 0
M  V30 BEGIN ATOM
M  V30 1 Br 3.9267 -2.26202 0.601835 0
M  V30 2 C 2.84151 -1.56596 -0.838887 0
M  V30 3 C 2.31862 -0.237562 -0.571582 0
M  V30 4 O 3.14992 0.734211 -0.65766 0
M  V30 5 C 0.950596 0.0426234 -0.220484 0
M  V30 6 C -0.0227618 -0.933723 -0.124448 0
M  V30 7 C -1.31216 -0.570056 0.202176 0
M  V30 8 C -2.38699 -1.59922 0.309741 0
M  V30 9 C -1.68585 0.75004 0.442109 0
M  V30 10 C -0.701461 1.71085 0.34381 0
M  V30 11 C 0.599405 1.38588 0.0193547 0
M  V30 12 N 1.59768 2.38547 -0.070827 0
M  V30 13 N -3.02393 1.05184 0.763304 0
M  V30 14 H 3.47917 -1.5996 -1.76283 0
M  V30 15 H 2.05573 -2.344 -1.02831 0
M  V30 16 H 0.257828 -1.96126 -0.311503 0
M  V30 17 H -2.71983 -1.78172 -0.754751 0
M  V30 18 H -3.26052 -1.22653 0.84506 0
M  V30 19 H -2.02522 -2.56901 0.693807 0
M  V30 20 H -0.954796 2.75404 0.533221 0
M  V30 21 H 1.75038 2.90036 -0.960654 0
M  V30 22 H 2.17746 2.61223 0.742604 0
M  V30 23 H -3.26527 1.23794 1.75673 0
M  V30 24 H -3.7462 1.08519 0.0481863 0
M  V30 END ATOM
M  V30 BEGIN BOND
M  V30 1 1 1 2
M  V30 2 1 2 3
M  V30 3 2 3 4
M  V30 4 1 3 5
M  V30 5 2 5 6
M  V30 6 1 6 7
M  V30 7 1 7 8
M  V30 8 2 7 9
M  V30 9 1 9 10
M  V30 10 2 10 11
M  V30 11 1 11 12
M  V30 12 1 9 13
M  V30 13 1 11 5
M  V30 14 1 2 14
M  V30 15 1 2 15
M  V30 16 1 6 16
M  V30 17 1 8 17
M  V30 18 1 8 18
M  V30 19 1 8 19
M  V30 20 1 10 20
M  V30 21 1 12 21
M  V30 22 1 12 22
M  V30 23 1 13 23
M  V30 24 1 13 24
M  V30 END BOND
M  V30 END CTAB
M  END
