
     RDKit          3D

  0  0  0  0  0  0  0  0  0  0999 V3000
M  V30 BEGIN CTAB
M  V30 COUNTS 32 34 0 0 0
M  V30 BEGIN ATOM
M  V30 1 C 4.7351 -0.542123 0.61164 0
M  V30 2 O 3.39094 -0.87819 0.446882 0
M  V30 3 C 2.37755 0.0797785 0.299459 0
M  V30 4 C 1.05067 -0.303662 0.137633 0
M  V30 5 C 0.854662 -1.76864 0.135081 0
M  V30 6 C -0.528719 -2.21555 0.00224815 0
M  V30 7 C -1.5578 -1.17744 -0.162506 0
M  V30 8 C -1.31317 0.206496 -0.165777 0
M  V30 9 C -2.34114 1.07626 -0.320733 0
M  V30 10 N -2.24559 2.46609 -0.345714 0
M  V30 11 N -3.60598 0.551209 -0.471201 0
M  V30 12 C -3.87356 -0.744789 -0.473258 0
M  V30 13 N -5.22783 -1.23003 -0.636374 0
M  V30 14 N -2.85334 -1.58285 -0.320092 0
M  V30 15 C 0.0614293 0.655255 -0.00652588 0
M  V30 16 C 0.367856 1.98554 0.00721185 0
M  V30 17 C 1.70626 2.35602 0.170624 0
M  V30 18 C 2.68958 1.41565 0.31381 0
M  V30 19 H 5.0129 -0.226811 1.627 0
M  V30 20 H 5.05773 0.274409 -0.0993739 0
M  V30 21 H 5.39205 -1.40367 0.349153 0
M  V30 22 H 1.43215 -2.1335 -0.772104 0
M  V30 23 H 1.39173 -2.19761 1.04165 0
M  V30 24 H -0.625043 -3.00575 -0.812418 0
M  V30 25 H -0.803198 -2.79502 0.923147 0
M  V30 26 H -2.35198 3.01289 0.564221 0
M  V30 27 H -2.11481 3.06549 -1.19775 0
M  V30 28 H -5.57284 -1.60731 -1.54466 0
M  V30 29 H -5.89178 -1.20955 0.166512 0
M  V30 30 H -0.305084 2.75198 -0.0915718 0
M  V30 31 H 1.9662 3.40633 0.183694 0
M  V30 32 H 3.72506 1.7191 0.44009 0
M  V30 END ATOM
M  V30 BEGIN BOND
M  V30 1 1 1 2
M  V30 2 1 2 3
M  V30 3 2 3 4
M  V30 4 1 4 5
M  V30 5 1 5 6
M  V30 6 1 6 7
M  V30 7 2 7 8
M  V30 8 1 8 9
M  V30 9 1 9 10
M  V30 10 2 9 11
M  V30 11 1 11 12
M  V30 12 1 12 13
M  V30 13 2 12 14
M  V30 14 1 8 15
M  V30 15 2 15 16
M  V30 16 1 16 17
M  V30 17 2 17 18
M  V30 18 1 18 3
M  V30 19 1 15 4
M  V30 20 1 14 7
M  V30 21 1 1 19
M  V30 22 1 1 20
M  V30 23 1 1 21
M  V30 24 1 5 22
M  V30 25 1 5 23
M  V30 26 1 6 24
M  V30 27 1 6 25
M  V30 28 1 10 26
M  V30 29 1 10 27
M  V30 30 1 13 28
M  V30 31 1 13 29
M  V30 32 1 16 30
M  V30 33 1 17 31
M  V30 34 1 18 32
M  V30 END BOND
M  V30 END CTAB
M  END
