
     RDKit          3D

  0  0  0  0  0  0  0  0  0  0999 V3000
M  V30 BEGIN CTAB
M  V30 COUNTS 26 27 0 0 0
M  V30 BEGIN ATOM
M  V30 1 N -3.25876 0.710109 -0.169954 0
M  V30 2 C -2.7741 -0.453919 -0.861618 0
M  V30 3 C -2.08927 -1.33746 0.175064 0
M  V30 4 C -0.972003 -0.573076 0.784326 0
M  V30 5 C -0.918989 0.0278114 2.01835 0
M  V30 6 N 0.280272 0.591489 2.12349 0
M  V30 7 C 1.02628 0.395031 1.02192 0
M  V30 8 C 0.23463 -0.340327 0.175149 0
M  V30 9 C 0.78576 -0.680353 -1.05479 0
M  V30 10 C 2.0578 -0.298402 -1.40225 0
M  V30 11 C 2.85904 0.442957 -0.553398 0
M  V30 12 N 4.17258 0.841914 -0.898888 0
M  V30 13 C 2.30106 0.781416 0.680869 0
M  V30 14 H -2.92135 1.60347 -0.600928 0
M  V30 15 H -4.28496 0.693976 -0.131213 0
M  V30 16 H -2.03026 -0.167266 -1.60578 0
M  V30 17 H -3.60888 -1.02619 -1.32838 0
M  V30 18 H -2.84518 -1.57366 0.970189 0
M  V30 19 H -1.75968 -2.2744 -0.308256 0
M  V30 20 H -1.72572 0.0213601 2.74342 0
M  V30 21 H 0.601105 1.12404 2.96561 0
M  V30 22 H 0.158279 -1.26147 -1.71481 0
M  V30 23 H 2.48162 -0.570378 -2.362 0
M  V30 24 H 4.37933 1.31461 -1.79146 0
M  V30 25 H 4.93519 0.648776 -0.234747 0
M  V30 26 H 2.91618 1.35996 1.36009 0
M  V30 END ATOM
M  V30 BEGIN BOND
M  V30 1 1 1 2
M  V30 2 1 2 3
M  V30 3 1 3 4
M  V30 4 2 4 5
M  V30 5 1 5 6
M  V30 6 1 6 7
M  V30 7 2 7 8
M  V30 8 1 8 9
M  V30 9 2 9 10
M  V30 10 1 10 11
M  V30 11 1 11 12
M  V30 12 2 11 13
M  V30 13 1 8 4
M  V30 14 1 13 7
M  V30 15 1 1 14
M  V30 16 1 1 15
M  V30 17 1 2 16
M  V30 18 1 2 17
M  V30 19 1 3 18
M  V30 20 1 3 19
M  V30 21 1 5 20
M  V30 22 1 6 21
M  V30 23 1 9 22
M  V30 24 1 10 23
M  V30 25 1 12 24
M  V30 26 1 12 25
M  V30 27 1 13 26
M  V30 END BOND
M  V30 END CTAB
M  END
