
     RDKit          3D

  0  0  0  0  0  0  0  0  0  0999 V3000
M  V30 BEGIN CTAB
M  V30 COUNTS 26 27 0 0 0
M  V30 BEGIN ATOM
M  V30 1 N -1.43649 2.0398 -0.268633 0
M  V30 2 C -1.58265 0.631148 -0.133134 0
M  V30 3 N -2.74601 0.00340967 0.161192 0
M  V30 4 N -4.00998 0.589116 0.319916 0
M  V30 5 C -2.42183 -1.34327 0.285091 0
M  V30 6 N -1.10862 -1.44135 0.0543793 0
M  V30 7 C -0.554718 -0.275747 -0.205529 0
M  V30 8 C 0.802809 0.0917329 -0.66561 0
M  V30 9 C 1.61165 0.817623 0.380972 0
M  V30 10 C 2.94106 0.126603 0.48116 0
M  V30 11 C 2.59752 -1.3331 0.1941 0
M  V30 12 C 1.51678 -1.28329 -0.827142 0
M  V30 13 H -1.39924 2.58042 0.67494 0
M  V30 14 H -1.35295 2.61279 -1.13561 0
M  V30 15 H -4.46491 1.16963 -0.387379 0
M  V30 16 H -4.47647 0.40208 1.23201 0
M  V30 17 H -3.14355 -2.07781 0.522727 0
M  V30 18 H 0.87206 0.555956 -1.64223 0
M  V30 19 H 1.76171 1.86512 -0.0300518 0
M  V30 20 H 1.17875 0.815216 1.3682 0
M  V30 21 H 3.65559 0.471084 -0.306743 0
M  V30 22 H 3.37886 0.232036 1.46927 0
M  V30 23 H 3.4646 -1.84534 -0.209907 0
M  V30 24 H 2.26537 -1.83076 1.13928 0
M  V30 25 H 1.852 -1.44993 -1.8747 0
M  V30 26 H 0.798653 -2.12317 -0.596571 0
M  V30 END ATOM
M  V30 BEGIN BOND
M  V30 1 1 1 2
M  V30 2 1 2 3
M  V30 3 1 3 4
M  V30 4 1 3 5
M  V30 5 2 5 6
M  V30 6 1 6 7
M  V30 7 1 7 8
M  V30 8 1 8 9
M  V30 9 1 9 10
M  V30 10 1 10 11
M  V30 11 1 11 12
M  V30 12 2 7 2
M  V30 13 1 12 8
M  V30 14 1 1 13
M  V30 15 1 1 14
M  V30 16 1 4 15
M  V30 17 1 4 16
M  V30 18 1 5 17
M  V30 19 1 8 18
M  V30 20 1 9 19
M  V30 21 1 9 20
M  V30 22 1 10 21
M  V30 23 1 10 22
M  V30 24 1 11 23
M  V30 25 1 11 24
M  V30 26 1 12 25
M  V30 27 1 12 26
M  V30 END BOND
M  V30 END CTAB
M  END
