
     RDKit          3D

  0  0  0  0  0  0  0  0  0  0999 V3000
M  V30 BEGIN CTAB
M  V30 COUNTS 75 74 0 0 0
M  V30 BEGIN ATOM
M  V30 1 C -10.3122 -1.53837 -0.958333 0
M  V30 2 C -8.82117 -1.57889 -0.640958 0
M  V30 3 C -8.67438 -1.86978 0.825012 0
M  V30 4 C -8.23432 -2.73028 -1.46893 0
M  V30 5 C -8.15075 -0.359169 -1.09406 0
M  V30 6 O -8.76846 0.521576 -1.74134 0
M  V30 7 N -6.77814 -0.142538 -0.811168 0
M  V30 8 C -6.09258 1.06089 -1.25579 0
M  V30 9 C -4.6623 0.997735 -0.780293 0
M  V30 10 C -4.63095 0.941295 0.713561 0
M  V30 11 C -3.22558 0.887585 1.2525 0
M  V30 12 C -2.38936 2.08203 0.867113 0 CFG=1
M  V30 13 N -2.92494 3.32285 1.3268 0
M  V30 14 C -1.06299 1.88396 1.55939 0
M  V30 15 O -0.627216 2.71077 2.38228 0
M  V30 16 N -0.326626 0.731024 1.24736 0
M  V30 17 C 0.943887 0.473185 1.85578 0
M  V30 18 C 1.9302 1.5495 1.50431 0
M  V30 19 C 3.2726 1.23684 2.15521 0
M  V30 20 N 3.84102 -0.00538906 1.73944 0
M  V30 21 C 4.26483 -0.00572175 0.358321 0
M  V30 22 C 5.44119 0.909625 0.128345 0
M  V30 23 C 6.58849 0.462216 0.982557 0
M  V30 24 C 6.98714 -0.93271 0.629538 0
M  V30 25 N 7.38554 -1.03738 -0.741007 0
M  V30 26 C 8.60044 -0.362046 -1.0685 0
M  V30 27 C 8.87208 -0.561216 -2.54928 0
M  V30 28 C 8.99481 -2.06708 -2.77638 0
M  V30 29 N 10.1045 -2.49685 -1.94154 0
M  V30 30 H -10.6277 -2.56556 -1.17044 0
M  V30 31 H -10.8416 -1.21479 -0.0250637 0
M  V30 32 H -10.4575 -0.815658 -1.76496 0
M  V30 33 H -7.71683 -2.42764 1.01058 0
M  V30 34 H -9.48008 -2.56966 1.13942 0
M  V30 35 H -8.61774 -0.952394 1.42108 0
M  V30 36 H -8.54378 -3.7119 -1.07811 0
M  V30 37 H -8.64089 -2.55534 -2.50737 0
M  V30 38 H -7.14315 -2.66145 -1.53619 0
M  V30 39 H -6.27102 -0.88122 -0.273785 0
M  V30 40 H -6.55604 1.94606 -0.73097 0
M  V30 41 H -6.15278 1.18072 -2.36136 0
M  V30 42 H -4.08055 1.88078 -1.13908 0
M  V30 43 H -4.13919 0.114831 -1.20989 0
M  V30 44 H -5.14002 0.0368825 1.0995 0
M  V30 45 H -5.12208 1.81499 1.18947 0
M  V30 46 H -2.72121 -0.0170906 0.856495 0
M  V30 47 H -3.26154 0.800627 2.35281 0
M  V30 48 H -2.28036 2.10713 -0.223169 0
M  V30 49 H -3.79822 3.61853 0.887046 0
M  V30 50 H -2.76865 3.56702 2.30525 0
M  V30 51 H -0.670685 0.00272505 0.553482 0
M  V30 52 H 1.33846 -0.547415 1.59294 0
M  V30 53 H 0.760275 0.420223 2.95408 0
M  V30 54 H 2.02796 1.67223 0.399886 0
M  V30 55 H 1.67215 2.55658 1.87548 0
M  V30 56 H 3.0527 1.14352 3.2531 0
M  V30 57 H 3.96684 2.07 2.0399 0
M  V30 58 H 3.30661 -0.836494 2.01014 0
M  V30 59 H 3.44752 0.411006 -0.307776 0
M  V30 60 H 4.46814 -1.01349 0.010722 0
M  V30 61 H 5.20234 1.96195 0.407727 0
M  V30 62 H 5.75694 0.884415 -0.933095 0
M  V30 63 H 7.40711 1.19864 0.829895 0
M  V30 64 H 6.32683 0.563453 2.07213 0
M  V30 65 H 7.83662 -1.30017 1.28098 0
M  V30 66 H 6.17811 -1.66202 0.823038 0
M  V30 67 H 6.60426 -0.90215 -1.38161 0
M  V30 68 H 8.57993 0.72952 -0.865718 0
M  V30 69 H 9.41399 -0.771555 -0.434027 0
M  V30 70 H 8.00378 -0.166631 -3.10266 0
M  V30 71 H 9.76092 -0.0139623 -2.88117 0
M  V30 72 H 8.08024 -2.51495 -2.36668 0
M  V30 73 H 9.1353 -2.27022 -3.83724 0
M  V30 74 H 10.1951 -3.51288 -1.85162 0
M  V30 75 H 10.9648 -1.95869 -2.08308 0
M  V30 END ATOM
M  V30 BEGIN BOND
M  V30 1 1 1 2
M  V30 2 1 2 3
M  V30 3 1 2 4
M  V30 4 1 2 5
M  V30 5 2 5 6
M  V30 6 1 5 7
M  V30 7 1 7 8
M  V30 8 1 8 9
M  V30 9 1 9 10
M  V30 10 1 10 11
M  V30 11 1 11 12
M  V30 12 1 12 13
M  V30 13 1 12 14
M  V30 14 2 14 15
M  V30 15 1 14 16
M  V30 16 1 16 17
M  V30 17 1 17 18
M  V30 18 1 18 19
M  V30 19 1 19 20
M  V30 20 1 20 21
M  V30 21 1 21 22
M  V30 22 1 22 23
M  V30 23 1 23 24
M  V30 24 1 24 25
M  V30 25 1 25 26
M  V30 26 1 26 27
M  V30 27 1 27 28
M  V30 28 1 28 29
M  V30 29 1 1 30
M  V30 30 1 1 31
M  V30 31 1 1 32
M  V30 32 1 3 33
M  V30 33 1 3 34
M  V30 34 1 3 35
M  V30 35 1 4 36
M  V30 36 1 4 37
M  V30 37 1 4 38
M  V30 38 1 7 39
M  V30 39 1 8 40
M  V30 40 1 8 41
M  V30 41 1 9 42
M  V30 42 1 9 43
M  V30 43 1 10 44
M  V30 44 1 10 45
M  V30 45 1 11 46
M  V30 46 1 11 47
M  V30 47 1 12 48 CFG=3
M  V30 48 1 13 49
M  V30 49 1 13 50
M  V30 50 1 16 51
M  V30 51 1 17 52
M  V30 52 1 17 53
M  V30 53 1 18 54
M  V30 54 1 18 55
M  V30 55 1 19 56
M  V30 56 1 19 57
M  V30 57 1 20 58
M  V30 58 1 21 59
M  V30 59 1 21 60
M  V30 60 1 22 61
M  V30 61 1 22 62
M  V30 62 1 23 63
M  V30 63 1 23 64
M  V30 64 1 24 65
M  V30 65 1 24 66
M  V30 66 1 25 67
M  V30 67 1 26 68
M  V30 68 1 26 69
M  V30 69 1 27 70
M  V30 70 1 27 71
M  V30 71 1 28 72
M  V30 72 1 28 73
M  V30 73 1 29 74
M  V30 74 1 29 75
M  V30 END BOND
M  V30 END CTAB
M  END
