
     RDKit          3D

  0  0  0  0  0  0  0  0  0  0999 V3000
M  V30 BEGIN CTAB
M  V30 COUNTS 27 27 0 0 0
M  V30 BEGIN ATOM
M  V30 1 C 1.2298 -1.14897 0.347835 0 CFG=1
M  V30 2 N 2.3903 -1.45519 1.20733 0
M  V30 3 C 0.216939 -0.542957 1.25436 0
M  V30 4 C -1.05601 -0.145907 0.617453 0
M  V30 5 C -1.1998 1.1427 0.147575 0
M  V30 6 C -2.38477 1.52728 -0.450145 0
M  V30 7 C -3.40861 0.616504 -0.56889 0
M  V30 8 O -4.60336 0.99077 -1.16723 0
M  V30 9 C -3.30214 -0.685646 -0.10963 0
M  V30 10 C -2.1138 -1.05638 0.485014 0
M  V30 11 C 1.68544 -0.316719 -0.763827 0
M  V30 12 O 0.930713 0.033361 -1.72764 0
M  V30 13 N 3.02731 0.143809 -0.807464 0
M  V30 14 N 3.46554 0.936526 -1.86391 0
M  V30 15 H 0.853508 -2.12302 -0.0302853 0
M  V30 16 H 3.11767 -1.97597 0.701434 0
M  V30 17 H 2.7212 -0.599197 1.67667 0
M  V30 18 H 0.68265 0.33492 1.79651 0
M  V30 19 H -0.0546337 -1.23579 2.09981 0
M  V30 20 H -0.353814 1.8229 0.268811 0
M  V30 21 H -2.45591 2.55444 -0.807261 0
M  V30 22 H -4.73026 1.93963 -1.52165 0
M  V30 23 H -4.12071 -1.385 -0.213809 0
M  V30 24 H -1.95074 -2.06147 0.871927 0
M  V30 25 H 3.69958 -0.108025 -0.0464115 0
M  V30 26 H 3.22917 1.93403 -1.75854 0
M  V30 27 H 4.48473 0.863368 -2.03548 0
M  V30 END ATOM
M  V30 BEGIN BOND
M  V30 1 1 1 2
M  V30 2 1 1 3
M  V30 3 1 3 4
M  V30 4 2 4 5
M  V30 5 1 5 6
M  V30 6 2 6 7
M  V30 7 1 7 8
M  V30 8 1 7 9
M  V30 9 2 9 10
M  V30 10 1 1 11
M  V30 11 2 11 12
M  V30 12 1 11 13
M  V30 13 1 13 14
M  V30 14 1 10 4
M  V30 15 1 1 15 CFG=3
M  V30 16 1 2 16
M  V30 17 1 2 17
M  V30 18 1 3 18
M  V30 19 1 3 19
M  V30 20 1 5 20
M  V30 21 1 6 21
M  V30 22 1 8 22
M  V30 23 1 9 23
M  V30 24 1 10 24
M  V30 25 1 13 25
M  V30 26 1 14 26
M  V30 27 1 14 27
M  V30 END BOND
M  V30 END CTAB
M  END
