
     RDKit          3D

  0  0  0  0  0  0  0  0  0  0999 V3000
M  V30 BEGIN CTAB
M  V30 COUNTS 29 29 0 0 0
M  V30 BEGIN ATOM
M  V30 1 C -4.55896 -0.745946 -1.01806 0
M  V30 2 O -3.62862 -0.915513 0.0365701 0
M  V30 3 C -2.31406 -0.495352 -0.0524732 0
M  V30 4 O -1.96308 0.0558717 -1.12813 0
M  V30 5 C -1.31435 -0.649654 1.01497 0
M  V30 6 C 0.0143624 -0.108712 0.638919 0
M  V30 7 C 1.08545 -0.917236 0.281932 0
M  V30 8 C 2.32783 -0.421662 -0.0708937 0
M  V30 9 O 3.41356 -1.16442 -0.429584 0
M  V30 10 C 3.41763 -2.55159 -0.486378 0
M  V30 11 F 4.45083 -3.10857 0.262592 0
M  V30 12 F 3.67428 -2.916 -1.80147 0
M  V30 13 C 2.50485 0.964033 -0.0648776 0
M  V30 14 C 1.4664 1.78232 0.282777 0
M  V30 15 C 0.221877 1.25484 0.634846 0
M  V30 16 N -0.840617 2.09843 0.990041 0
M  V30 17 N 1.62809 3.19928 0.295028 0
M  V30 18 H -5.30478 -1.56753 -0.904195 0
M  V30 19 H -5.14499 0.197942 -0.882944 0
M  V30 20 H -4.08746 -0.800669 -2.01288 0
M  V30 21 H -1.1553 -1.71277 1.30791 0
M  V30 22 H -1.64284 -0.142803 1.96996 0
M  V30 23 H 0.896131 -1.97747 0.293337 0
M  V30 24 H 2.48767 -3.01986 -0.192915 0
M  V30 25 H 3.46179 1.37913 -0.335273 0
M  V30 26 H -1.29693 2.67972 0.263053 0
M  V30 27 H -1.18621 2.159 1.96473 0
M  V30 28 H 1.55319 3.7851 1.13885 0
M  V30 29 H 1.83425 3.66007 -0.60984 0
M  V30 END ATOM
M  V30 BEGIN BOND
M  V30 1 1 1 2
M  V30 2 1 2 3
M  V30 3 2 3 4
M  V30 4 1 3 5
M  V30 5 1 5 6
M  V30 6 2 6 7
M  V30 7 1 7 8
M  V30 8 1 8 9
M  V30 9 1 9 10
M  V30 10 1 10 11
M  V30 11 1 10 12
M  V30 12 2 8 13
M  V30 13 1 13 14
M  V30 14 2 14 15
M  V30 15 1 15 16
M  V30 16 1 14 17
M  V30 17 1 15 6
M  V30 18 1 1 18
M  V30 19 1 1 19
M  V30 20 1 1 20
M  V30 21 1 5 21
M  V30 22 1 5 22
M  V30 23 1 7 23
M  V30 24 1 10 24
M  V30 25 1 13 25
M  V30 26 1 16 26
M  V30 27 1 16 27
M  V30 28 1 17 28
M  V30 29 1 17 29
M  V30 END BOND
M  V30 END CTAB
M  END
