
     RDKit          3D

  0  0  0  0  0  0  0  0  0  0999 V3000
M  V30 BEGIN CTAB
M  V30 COUNTS 20 20 0 0 0
M  V30 BEGIN ATOM
M  V30 1 F -4.00764 -0.535107 0.962747 0
M  V30 2 C -3.14859 -0.577944 -0.150304 0
M  V30 3 O -2.12698 0.351812 -0.0282957 0
M  V30 4 C -0.79748 0.00786031 -0.0241821 0
M  V30 5 C -0.30051 -1.26968 -0.137007 0
M  V30 6 C 1.07014 -1.47117 -0.117528 0
M  V30 7 C 1.95094 -0.412648 0.0132369 0
M  V30 8 C 1.47018 0.868798 0.126922 0
M  V30 9 C 0.1092 1.07352 0.108041 0
M  V30 10 N -0.389439 2.38852 0.22453 0
M  V30 11 Br 2.62963 2.38546 0.311337 0
M  V30 12 N 3.34828 -0.626328 0.0322637 0
M  V30 13 F -3.98053 -0.29286 -1.24879 0
M  V30 14 H -2.87628 -1.62774 -0.246935 0
M  V30 15 H -0.989207 -2.11135 -0.240645 0
M  V30 16 H 1.46374 -2.46445 -0.205043 0
M  V30 17 H 0.194663 3.18071 -0.0979675 0
M  V30 18 H -1.32495 2.55406 0.626657 0
M  V30 19 H 3.97359 -0.051287 -0.542795 0
M  V30 20 H 3.73124 -1.37016 0.633764 0
M  V30 END ATOM
M  V30 BEGIN BOND
M  V30 1 1 1 2
M  V30 2 1 2 3
M  V30 3 1 3 4
M  V30 4 2 4 5
M  V30 5 1 5 6
M  V30 6 2 6 7
M  V30 7 1 7 8
M  V30 8 2 8 9
M  V30 9 1 9 10
M  V30 10 1 8 11
M  V30 11 1 7 12
M  V30 12 1 2 13
M  V30 13 1 9 4
M  V30 14 1 2 14
M  V30 15 1 5 15
M  V30 16 1 6 16
M  V30 17 1 10 17
M  V30 18 1 10 18
M  V30 19 1 12 19
M  V30 20 1 12 20
M  V30 END BOND
M  V30 END CTAB
M  END
