
     RDKit          3D

  0  0  0  0  0  0  0  0  0  0999 V3000
M  V30 BEGIN CTAB
M  V30 COUNTS 52 54 0 0 0
M  V30 BEGIN ATOM
M  V30 1 C -3.93685 1.42084 3.30948 0
M  V30 2 O -4.68712 0.928217 2.21976 0
M  V30 3 C -4.05669 0.711802 1.01013 0
M  V30 4 C -2.71309 0.979475 0.889686 0
M  V30 5 C -2.01077 0.795228 -0.266222 0
M  V30 6 C -0.569954 1.06999 -0.437069 0
M  V30 7 C 0.289152 -0.133948 -0.114636 0
M  V30 8 C 1.7137 0.253326 -0.319568 0
M  V30 9 C 2.7112 -0.813727 -0.0508561 0
M  V30 10 C 2.70733 -1.35248 1.34482 0
M  V30 11 C 3.51145 -0.296567 2.09092 0
M  V30 12 C 4.57937 0.0144011 1.10575 0
M  V30 13 C 4.10336 -0.291534 -0.161176 0
M  V30 14 C 4.97067 -0.0624673 -1.20849 0
M  V30 15 N 4.49393 -0.373895 -2.52887 0
M  V30 16 N 6.21112 0.427887 -1.04301 0
M  V30 17 C 6.66018 0.720701 0.195468 0
M  V30 18 N 7.97685 1.24173 0.377101 0
M  V30 19 N 5.82605 0.502428 1.22333 0
M  V30 20 C -2.71125 0.308274 -1.37473 0
M  V30 21 C -4.0591 0.0279026 -1.29387 0
M  V30 22 O -4.75738 -0.448929 -2.36994 0
M  V30 23 C -4.23833 -0.708004 -3.63855 0
M  V30 24 C -4.72229 0.231522 -0.10244 0
M  V30 25 O -6.08233 -0.0303073 0.0502247 0
M  V30 26 C -6.53292 -1.30378 0.46695 0
M  V30 27 H -3.38825 2.35976 3.03257 0
M  V30 28 H -3.14709 0.682592 3.58302 0
M  V30 29 H -4.5755 1.57868 4.20126 0
M  V30 30 H -2.16107 1.35841 1.74706 0
M  V30 31 H -0.316015 1.90357 0.249845 0
M  V30 32 H -0.383436 1.44375 -1.46508 0
M  V30 33 H -0.0199297 -1.03502 -0.641824 0
M  V30 34 H 0.139096 -0.339074 0.978882 0
M  V30 35 H 1.88237 0.626561 -1.3579 0
M  V30 36 H 1.92781 1.1062 0.377591 0
M  V30 37 H 2.55507 -1.66502 -0.741645 0
M  V30 38 H 3.18907 -2.34889 1.42656 0
M  V30 39 H 1.69837 -1.33976 1.8035 0
M  V30 40 H 4.03387 -0.769327 2.9701 0
M  V30 41 H 2.90933 0.564091 2.37736 0
M  V30 42 H 4.25832 -1.32823 -2.83578 0
M  V30 43 H 4.39687 0.440216 -3.1766 0
M  V30 44 H 8.18944 2.17792 -0.0265773 0
M  V30 45 H 8.73738 0.753702 0.882962 0
M  V30 46 H -2.18037 0.153839 -2.29959 0
M  V30 47 H -4.00409 -1.77872 -3.81592 0
M  V30 48 H -3.39433 -0.0479361 -3.92919 0
M  V30 49 H -5.05687 -0.465819 -4.37758 0
M  V30 50 H -7.05803 -1.78764 -0.394422 0
M  V30 51 H -5.66977 -1.95645 0.745073 0
M  V30 52 H -7.2385 -1.25498 1.31216 0
M  V30 END ATOM
M  V30 BEGIN BOND
M  V30 1 1 1 2
M  V30 2 1 2 3
M  V30 3 2 3 4
M  V30 4 1 4 5
M  V30 5 1 5 6
M  V30 6 1 6 7
M  V30 7 1 7 8
M  V30 8 1 8 9
M  V30 9 1 9 10
M  V30 10 1 10 11
M  V30 11 1 11 12
M  V30 12 2 12 13
M  V30 13 1 13 14
M  V30 14 1 14 15
M  V30 15 2 14 16
M  V30 16 1 16 17
M  V30 17 1 17 18
M  V30 18 2 17 19
M  V30 19 2 5 20
M  V30 20 1 20 21
M  V30 21 1 21 22
M  V30 22 1 22 23
M  V30 23 2 21 24
M  V30 24 1 24 25
M  V30 25 1 25 26
M  V30 26 1 24 3
M  V30 27 1 13 9
M  V30 28 1 19 12
M  V30 29 1 1 27
M  V30 30 1 1 28
M  V30 31 1 1 29
M  V30 32 1 4 30
M  V30 33 1 6 31
M  V30 34 1 6 32
M  V30 35 1 7 33
M  V30 36 1 7 34
M  V30 37 1 8 35
M  V30 38 1 8 36
M  V30 39 1 9 37
M  V30 40 1 10 38
M  V30 41 1 10 39
M  V30 42 1 11 40
M  V30 43 1 11 41
M  V30 44 1 15 42
M  V30 45 1 15 43
M  V30 46 1 18 44
M  V30 47 1 18 45
M  V30 48 1 20 46
M  V30 49 1 23 47
M  V30 50 1 23 48
M  V30 51 1 23 49
M  V30 52 1 26 50
M  V30 53 1 26 51
M  V30 54 1 26 52
M  V30 END BOND
M  V30 END CTAB
M  END
