
     RDKit          3D

  0  0  0  0  0  0  0  0  0  0999 V3000
M  V30 BEGIN CTAB
M  V30 COUNTS 27 28 0 0 0
M  V30 BEGIN ATOM
M  V30 1 C -1.72267 3.03702 0.381841 0
M  V30 2 O -0.862866 1.98179 0.671294 0
M  V30 3 C -1.13021 0.64612 0.543872 0
M  V30 4 C -2.36306 0.212891 0.0851631 0
M  V30 5 C -2.62136 -1.15499 -0.039693 0
M  V30 6 N -3.88493 -1.59102 -0.509716 0
M  V30 7 C -1.63931 -2.06089 0.297544 0
M  V30 8 C -0.425415 -1.60437 0.749883 0
M  V30 9 C -0.153598 -0.258067 0.879167 0
M  V30 10 S 1.39884 0.358017 1.45823 0
M  V30 11 C 2.56741 0.635705 0.154189 0
M  V30 12 N 2.73281 1.76857 -0.550428 0
M  V30 13 N 3.69873 1.60979 -1.44354 0
M  V30 14 C 4.18438 0.344503 -1.32883 0
M  V30 15 N 3.47348 -0.234264 -0.340716 0
M  V30 16 N 3.60704 -1.5355 0.144453 0
M  V30 17 H -1.08325 3.92731 0.140167 0
M  V30 18 H -2.40967 2.79013 -0.438745 0
M  V30 19 H -2.33084 3.34823 1.26018 0
M  V30 20 H -3.14708 0.905595 -0.184752 0
M  V30 21 H -4.69894 -0.949459 -0.564524 0
M  V30 22 H -4.01197 -2.57715 -0.81029 0
M  V30 23 H -1.82984 -3.11906 0.204355 0
M  V30 24 H 0.349297 -2.30453 1.01623 0
M  V30 25 H 4.98616 -0.1082 -1.91757 0
M  V30 26 H 3.69823 -2.31787 -0.534512 0
M  V30 27 H 3.61865 -1.7503 1.14775 0
M  V30 END ATOM
M  V30 BEGIN BOND
M  V30 1 1 1 2
M  V30 2 1 2 3
M  V30 3 2 3 4
M  V30 4 1 4 5
M  V30 5 1 5 6
M  V30 6 2 5 7
M  V30 7 1 7 8
M  V30 8 2 8 9
M  V30 9 1 9 10
M  V30 10 1 10 11
M  V30 11 2 11 12
M  V30 12 1 12 13
M  V30 13 2 13 14
M  V30 14 1 14 15
M  V30 15 1 15 16
M  V30 16 1 9 3
M  V30 17 1 15 11
M  V30 18 1 1 17
M  V30 19 1 1 18
M  V30 20 1 1 19
M  V30 21 1 4 20
M  V30 22 1 6 21
M  V30 23 1 6 22
M  V30 24 1 7 23
M  V30 25 1 8 24
M  V30 26 1 14 25
M  V30 27 1 16 26
M  V30 28 1 16 27
M  V30 END BOND
M  V30 END CTAB
M  END
