
     RDKit          3D

  0  0  0  0  0  0  0  0  0  0999 V3000
M  V30 BEGIN CTAB
M  V30 COUNTS 36 37 0 0 0
M  V30 BEGIN ATOM
M  V30 1 N -2.65987 3.4125 -1.5741 0
M  V30 2 S -2.46919 2.82949 0.0577195 0
M  V30 3 O -3.76518 2.83706 0.775744 0
M  V30 4 O -1.47288 3.77062 0.711851 0
M  V30 5 C -1.76618 1.22867 0.0171914 0
M  V30 6 C -0.37963 1.11454 0.0462836 0
M  V30 7 C 0.243669 -0.11166 0.0172683 0
M  V30 8 N 1.65744 -0.188122 0.0483636 0
M  V30 9 C 2.29624 -0.911033 1.1584 0
M  V30 10 C 3.37634 0.0413345 1.6795 0
M  V30 11 N 4.3849 0.189643 0.675564 0
M  V30 12 C 3.92935 -0.15737 -0.655305 0
M  V30 13 C 2.52886 0.390882 -0.929363 0
M  V30 14 C -0.546487 -1.22605 -0.0415644 0
M  V30 15 Cl 0.222932 -2.80003 -0.0795449 0
M  V30 16 C -1.921 -1.18235 -0.0728913 0
M  V30 17 C -2.50826 0.0659048 -0.0422248 0
M  V30 18 S -2.91342 -2.62077 -0.148198 0
M  V30 19 N -4.57662 -2.25881 -0.174949 0
M  V30 20 O -2.52497 -3.5069 0.993735 0
M  V30 21 O -2.56848 -3.38603 -1.41717 0
M  V30 22 H -2.93711 4.42 -1.50107 0
M  V30 23 H -1.71395 3.37497 -2.01452 0
M  V30 24 H 0.215371 2.02128 0.0930055 0
M  V30 25 H 2.75239 -1.84898 0.83315 0
M  V30 26 H 1.56112 -1.15749 1.95292 0
M  V30 27 H 2.85969 0.99135 1.94051 0
M  V30 28 H 3.79761 -0.444463 2.60061 0
M  V30 29 H 5.16486 -0.494126 0.907106 0
M  V30 30 H 3.86581 -1.26437 -0.779804 0
M  V30 31 H 4.6377 0.206362 -1.40747 0
M  V30 32 H 2.29304 0.0549588 -1.97837 0
M  V30 33 H 2.6026 1.49165 -0.853424 0
M  V30 34 H -3.57088 0.148331 -0.0647068 0
M  V30 35 H -4.94134 -2.03668 -1.10542 0
M  V30 36 H -5.15447 -2.99431 0.331175 0
M  V30 END ATOM
M  V30 BEGIN BOND
M  V30 1 1 1 2
M  V30 2 2 2 3
M  V30 3 2 2 4
M  V30 4 1 2 5
M  V30 5 2 5 6
M  V30 6 1 6 7
M  V30 7 1 7 8
M  V30 8 1 8 9
M  V30 9 1 9 10
M  V30 10 1 10 11
M  V30 11 1 11 12
M  V30 12 1 12 13
M  V30 13 2 7 14
M  V30 14 1 14 15
M  V30 15 1 14 16
M  V30 16 2 16 17
M  V30 17 1 16 18
M  V30 18 1 18 19
M  V30 19 2 18 20
M  V30 20 2 18 21
M  V30 21 1 17 5
M  V30 22 1 13 8
M  V30 23 1 1 22
M  V30 24 1 1 23
M  V30 25 1 6 24
M  V30 26 1 9 25
M  V30 27 1 9 26
M  V30 28 1 10 27
M  V30 29 1 10 28
M  V30 30 1 11 29
M  V30 31 1 12 30
M  V30 32 1 12 31
M  V30 33 1 13 32
M  V30 34 1 13 33
M  V30 35 1 17 34
M  V30 36 1 19 35
M  V30 37 1 19 36
M  V30 END BOND
M  V30 END CTAB
M  END
