
     RDKit          3D

  0  0  0  0  0  0  0  0  0  0999 V3000
M  V30 BEGIN CTAB
M  V30 COUNTS 35 36 0 0 0
M  V30 BEGIN ATOM
M  V30 1 N -4.94699 1.90679 0.441706 0
M  V30 2 N -4.1462 1.0019 1.10992 0
M  V30 3 C -2.98295 0.399882 0.565683 0
M  V30 4 N -2.26657 -0.469478 1.28952 0
M  V30 5 C -1.14488 -1.0802 0.822557 0
M  V30 6 C -0.416384 -2.05179 1.69108 0
M  V30 7 C -0.748078 -0.773812 -0.454844 0
M  V30 8 C -1.51795 0.140698 -1.19234 0
M  V30 9 O -1.17286 0.432352 -2.3639 0
M  V30 10 N -2.61365 0.710428 -0.679241 0
M  V30 11 N -3.3963 1.62543 -1.39515 0
M  V30 12 C 0.446895 -1.37199 -1.06017 0
M  V30 13 C 1.74022 -0.823371 -0.626159 0
M  V30 14 C 2.62179 -1.4738 0.221671 0
M  V30 15 C 3.82641 -0.934688 0.619831 0
M  V30 16 C 4.20233 0.331912 0.158356 0
M  V30 17 C 3.35425 0.982729 -0.671364 0
M  V30 18 C 2.14942 0.427915 -1.06087 0
M  V30 19 N 5.44354 0.894416 0.561016 0 CHG=1
M  V30 20 O 6.1957 0.290442 1.32097 0
M  V30 21 O 5.77659 2.13119 0.0775769 0 CHG=-1
M  V30 22 H -4.66687 2.8928 0.538706 0
M  V30 23 H -5.96495 1.72588 0.528115 0
M  V30 24 H -4.42926 0.752533 2.08352 0
M  V30 25 H -1.19999 -2.48959 2.38181 0
M  V30 26 H -0.0126189 -2.8997 1.13816 0
M  V30 27 H 0.325954 -1.57713 2.34746 0
M  V30 28 H -3.18117 2.64398 -1.32903 0
M  V30 29 H -4.19923 1.36102 -2.00603 0
M  V30 30 H 0.457979 -2.47824 -0.834806 0
M  V30 31 H 0.339853 -1.33169 -2.17739 0
M  V30 32 H 2.41262 -2.45782 0.609191 0
M  V30 33 H 4.52096 -1.42032 1.27437 0
M  V30 34 H 3.6535 1.97806 -1.03231 0
M  V30 35 H 1.53888 1.00327 -1.71758 0
M  V30 END ATOM
M  V30 BEGIN BOND
M  V30 1 1 1 2
M  V30 2 1 2 3
M  V30 3 2 3 4
M  V30 4 1 4 5
M  V30 5 1 5 6
M  V30 6 2 5 7
M  V30 7 1 7 8
M  V30 8 2 8 9
M  V30 9 1 8 10
M  V30 10 1 10 11
M  V30 11 1 7 12
M  V30 12 1 12 13
M  V30 13 2 13 14
M  V30 14 1 14 15
M  V30 15 2 15 16
M  V30 16 1 16 17
M  V30 17 2 17 18
M  V30 18 1 16 19
M  V30 19 2 19 20
M  V30 20 1 19 21
M  V30 21 1 10 3
M  V30 22 1 18 13
M  V30 23 1 1 22
M  V30 24 1 1 23
M  V30 25 1 2 24
M  V30 26 1 6 25
M  V30 27 1 6 26
M  V30 28 1 6 27
M  V30 29 1 11 28
M  V30 30 1 11 29
M  V30 31 1 12 30
M  V30 32 1 12 31
M  V30 33 1 14 32
M  V30 34 1 15 33
M  V30 35 1 17 34
M  V30 36 1 18 35
M  V30 END BOND
M  V30 END CTAB
M  END
