
     RDKit          3D

  0  0  0  0  0  0  0  0  0  0999 V3000
M  V30 BEGIN CTAB
M  V30 COUNTS 31 32 0 0 0
M  V30 BEGIN ATOM
M  V30 1 C 3.8917 1.23327 -0.141753 0
M  V30 2 C 3.45858 -0.179111 0.0894034 0
M  V30 3 C 2.88706 -0.898774 -1.10971 0
M  V30 4 C 1.53159 -0.343 -0.738149 0
M  V30 5 C 2.06408 -0.219004 0.696664 0
M  V30 6 N 0.440984 -1.27216 -0.832739 0
M  V30 7 C -0.879963 -0.862437 -0.515776 0
M  V30 8 C -1.94281 -1.74991 -0.592298 0
M  V30 9 C -3.2434 -1.39983 -0.295463 0
M  V30 10 C -3.45418 -0.0936143 0.0923874 0
M  V30 11 C -2.40106 0.80702 0.173984 0
M  V30 12 C -1.11965 0.447052 -0.122578 0
M  V30 13 N -2.62096 2.14625 0.572221 0
M  V30 14 N -4.76557 0.311557 0.405872 0
M  V30 15 H 3.61651 1.63809 -1.11664 0
M  V30 16 H 3.47107 1.93435 0.636562 0
M  V30 17 H 5.00769 1.36524 -0.0410333 0
M  V30 18 H 4.22531 -0.747131 0.651738 0
M  V30 19 H 3.23391 -0.486819 -2.08378 0
M  V30 20 H 2.99483 -1.99646 -1.00924 0
M  V30 21 H 1.3587 0.631353 -1.21007 0
M  V30 22 H 1.73205 0.700957 1.16919 0
M  V30 23 H 1.95017 -1.15823 1.27126 0
M  V30 24 H 0.576155 -2.2582 -1.13059 0
M  V30 25 H -1.73676 -2.77968 -0.904234 0
M  V30 26 H -4.0517 -2.11302 -0.364071 0
M  V30 27 H -0.275601 1.12037 -0.0708034 0
M  V30 28 H -2.72484 2.35958 1.57703 0
M  V30 29 H -2.67353 2.88488 -0.147677 0
M  V30 30 H -5.22675 1.03719 -0.193505 0
M  V30 31 H -5.3236 -0.0597897 1.20097 0
M  V30 END ATOM
M  V30 BEGIN BOND
M  V30 1 1 1 2
M  V30 2 1 2 3
M  V30 3 1 3 4
M  V30 4 1 4 5
M  V30 5 1 4 6
M  V30 6 1 6 7
M  V30 7 2 7 8
M  V30 8 1 8 9
M  V30 9 2 9 10
M  V30 10 1 10 11
M  V30 11 2 11 12
M  V30 12 1 11 13
M  V30 13 1 10 14
M  V30 14 1 5 2
M  V30 15 1 12 7
M  V30 16 1 1 15
M  V30 17 1 1 16
M  V30 18 1 1 17
M  V30 19 1 2 18
M  V30 20 1 3 19
M  V30 21 1 3 20
M  V30 22 1 4 21
M  V30 23 1 5 22
M  V30 24 1 5 23
M  V30 25 1 6 24
M  V30 26 1 8 25
M  V30 27 1 9 26
M  V30 28 1 12 27
M  V30 29 1 13 28
M  V30 30 1 13 29
M  V30 31 1 14 30
M  V30 32 1 14 31
M  V30 END BOND
M  V30 END CTAB
M  END
