
     RDKit          3D

  0  0  0  0  0  0  0  0  0  0999 V3000
M  V30 BEGIN CTAB
M  V30 COUNTS 21 20 0 0 0
M  V30 BEGIN ATOM
M  V30 1 C -0.884558 -0.483529 1.60325 0
M  V30 2 C -0.480275 -0.465096 0.132005 0
M  V30 3 C 0.824068 0.220716 0.0557376 0
M  V30 4 O 0.892483 1.42357 0.413255 0
M  V30 5 O 1.99906 -0.359039 -0.383978 0
M  V30 6 C 3.19828 0.391734 -0.416852 0
M  V30 7 C -1.53459 0.227371 -0.679527 0
M  V30 8 N -1.76463 1.58905 -0.291395 0
M  V30 9 N -0.401944 -1.83392 -0.309875 0
M  V30 10 H -1.16829 0.548212 1.87514 0
M  V30 11 H 0.00345516 -0.85251 2.16603 0
M  V30 12 H -1.73098 -1.18086 1.73742 0
M  V30 13 H 4.08889 -0.251781 -0.298968 0
M  V30 14 H 3.18609 1.18016 0.359437 0
M  V30 15 H 3.30978 0.913091 -1.39738 0
M  V30 16 H -2.46571 -0.398847 -0.608665 0
M  V30 17 H -1.15697 0.253555 -1.74024 0
M  V30 18 H -2.37378 2.01822 -1.04301 0
M  V30 19 H -2.27444 1.6936 0.600316 0
M  V30 20 H 0.080247 -2.4125 0.401766 0
M  V30 21 H -1.34618 -2.2212 -0.470044 0
M  V30 END ATOM
M  V30 BEGIN BOND
M  V30 1 1 1 2
M  V30 2 1 2 3
M  V30 3 2 3 4
M  V30 4 1 3 5
M  V30 5 1 5 6
M  V30 6 1 2 7
M  V30 7 1 7 8
M  V30 8 1 2 9
M  V30 9 1 1 10
M  V30 10 1 1 11
M  V30 11 1 1 12
M  V30 12 1 6 13
M  V30 13 1 6 14
M  V30 14 1 6 15
M  V30 15 1 7 16
M  V30 16 1 7 17
M  V30 17 1 8 18
M  V30 18 1 8 19
M  V30 19 1 9 20
M  V30 20 1 9 21
M  V30 END BOND
M  V30 END CTAB
M  END
