
     RDKit          3D

  0  0  0  0  0  0  0  0  0  0999 V3000
M  V30 BEGIN CTAB
M  V30 COUNTS 68 67 0 0 0
M  V30 BEGIN ATOM
M  V30 1 C -8.3972 2.28072 -0.8478 0
M  V30 2 C -8.04384 2.06594 0.582355 0
M  V30 3 C -6.9609 1.03029 0.795243 0 CFG=1
M  V30 4 C -7.36156 -0.302612 0.261077 0
M  V30 5 C -5.65025 1.55483 0.317191 0 CFG=2
M  V30 6 N -5.7161 1.86965 -1.07568 0
M  V30 7 C -4.51095 0.650176 0.586203 0
M  V30 8 O -4.35959 0.205553 1.75616 0
M  V30 9 N -3.58773 0.269647 -0.422378 0
M  V30 10 C -2.49405 -0.606554 -0.137689 0 CFG=1
M  V30 11 C -2.28132 -1.66781 -1.16185 0
M  V30 12 C -3.42399 -2.59569 -1.37749 0
M  V30 13 C -3.84152 -3.36899 -0.207907 0
M  V30 14 O -3.25125 -3.33127 1.04702 0
M  V30 15 O -4.82533 -4.14337 -0.33971 0
M  V30 16 C -1.23116 0.21705 -0.107708 0
M  V30 17 O -1.32011 1.43889 -0.32615 0
M  V30 18 N 0.0410114 -0.384991 0.165374 0
M  V30 19 C 1.20493 0.444567 0.184371 0
M  V30 20 C 2.39849 -0.368821 0.485141 0
M  V30 21 O 2.27624 -1.6021 0.670778 0
M  V30 22 N 3.65352 0.268768 0.556433 0
M  V30 23 C 4.86963 -0.553527 0.862701 0 CFG=1
M  V30 24 C 5.74462 -0.399708 -0.318971 0
M  V30 25 C 7.03923 -1.06322 -0.434237 0
M  V30 26 C 8.08359 -0.681227 0.571324 0
M  V30 27 N 8.34045 0.741752 0.520549 0
M  V30 28 C 8.96753 1.29185 -0.617116 0
M  V30 29 N 9.95046 0.526903 -1.30149 0
M  V30 30 N 8.65451 2.48547 -1.03952 0
M  V30 31 C 5.36387 -0.088246 2.15887 0
M  V30 32 O 5.84012 -0.832209 3.20148 0
M  V30 33 O 5.34187 1.18068 2.34569 0
M  V30 34 H -8.23781 1.38206 -1.48119 0
M  V30 35 H -7.92638 3.19873 -1.24819 0
M  V30 36 H -9.50156 2.47967 -0.908704 0
M  V30 37 H -7.6422 3.01737 0.991455 0
M  V30 38 H -8.93862 1.73402 1.13085 0
M  V30 39 H -6.87554 0.919755 1.9111 0
M  V30 40 H -7.21337 -1.12564 1.01874 0
M  V30 41 H -8.47235 -0.282307 0.104324 0
M  V30 42 H -6.91465 -0.585096 -0.694026 0
M  V30 43 H -5.45478 2.5045 0.873229 0
M  V30 44 H -4.95192 2.48067 -1.42034 0
M  V30 45 H -5.87405 1.03385 -1.68345 0
M  V30 46 H -3.73361 0.65079 -1.37881 0
M  V30 47 H -2.59711 -0.967362 0.907124 0
M  V30 48 H -2.08678 -1.14739 -2.1303 0
M  V30 49 H -1.35318 -2.22232 -0.909581 0
M  V30 50 H -4.30421 -2.03109 -1.75059 0
M  V30 51 H -3.12819 -3.31974 -2.17258 0
M  V30 52 H -3.07284 -4.22168 1.51245 0
M  V30 53 H 0.0419414 -1.41146 0.337804 0
M  V30 54 H 1.29867 0.925148 -0.81755 0
M  V30 55 H 1.08771 1.22923 0.980051 0
M  V30 56 H 3.75071 1.27615 0.403881 0
M  V30 57 H 4.50925 -1.59039 0.939845 0
M  V30 58 H 5.95601 0.727808 -0.444438 0
M  V30 59 H 5.14455 -0.581045 -1.28528 0
M  V30 60 H 6.9499 -2.19832 -0.477735 0
M  V30 61 H 7.45265 -0.83324 -1.46212 0
M  V30 62 H 7.94559 -1.08286 1.56814 0
M  V30 63 H 9.09544 -1.12866 0.216493 0
M  V30 64 H 8.05379 1.32231 1.32908 0
M  V30 65 H 9.93821 0.407615 -2.33751 0
M  V30 66 H 10.7078 0.0700928 -0.756084 0
M  V30 67 H 9.10549 2.90181 -1.8716 0
M  V30 68 H 6.72826 -0.743969 3.65326 0
M  V30 END ATOM
M  V30 BEGIN BOND
M  V30 1 1 1 2
M  V30 2 1 2 3
M  V30 3 1 3 4
M  V30 4 1 3 5
M  V30 5 1 5 6
M  V30 6 1 5 7
M  V30 7 2 7 8
M  V30 8 1 7 9
M  V30 9 1 9 10
M  V30 10 1 10 11
M  V30 11 1 11 12
M  V30 12 1 12 13
M  V30 13 1 13 14
M  V30 14 2 13 15
M  V30 15 1 10 16
M  V30 16 2 16 17
M  V30 17 1 16 18
M  V30 18 1 18 19
M  V30 19 1 19 20
M  V30 20 2 20 21
M  V30 21 1 20 22
M  V30 22 1 22 23
M  V30 23 1 23 24
M  V30 24 1 24 25
M  V30 25 1 25 26
M  V30 26 1 26 27
M  V30 27 1 27 28
M  V30 28 1 28 29
M  V30 29 2 28 30 CFG=2
M  V30 30 1 23 31
M  V30 31 1 31 32
M  V30 32 2 31 33
M  V30 33 1 1 34
M  V30 34 1 1 35
M  V30 35 1 1 36
M  V30 36 1 2 37
M  V30 37 1 2 38
M  V30 38 1 3 39 CFG=1
M  V30 39 1 4 40
M  V30 40 1 4 41
M  V30 41 1 4 42
M  V30 42 1 5 43 CFG=1
M  V30 43 1 6 44
M  V30 44 1 6 45
M  V30 45 1 9 46
M  V30 46 1 10 47 CFG=1
M  V30 47 1 11 48
M  V30 48 1 11 49
M  V30 49 1 12 50
M  V30 50 1 12 51
M  V30 51 1 14 52
M  V30 52 1 18 53
M  V30 53 1 19 54
M  V30 54 1 19 55
M  V30 55 1 22 56
M  V30 56 1 23 57 CFG=1
M  V30 57 1 24 58
M  V30 58 1 24 59
M  V30 59 1 25 60
M  V30 60 1 25 61
M  V30 61 1 26 62
M  V30 62 1 26 63
M  V30 63 1 27 64
M  V30 64 1 29 65
M  V30 65 1 29 66
M  V30 66 1 30 67
M  V30 67 1 32 68
M  V30 END BOND
M  V30 END CTAB
M  END
