
     RDKit          3D

  0  0  0  0  0  0  0  0  0  0999 V3000
M  V30 BEGIN CTAB
M  V30 COUNTS 71 74 0 0 0
M  V30 BEGIN ATOM
M  V30 1 N 4.46746 -1.18089 -3.75087 0
M  V30 2 C 3.91689 -0.162858 -2.89375 0 CFG=2
M  V30 3 C 5.05292 0.306143 -2.02346 0
M  V30 4 C 4.73177 1.32486 -1.04108 0
M  V30 5 C 4.76888 2.65855 -1.36801 0
M  V30 6 C 4.47966 3.64872 -0.42026 0
M  V30 7 C 4.14907 3.31508 0.873817 0
M  V30 8 C 4.1135 1.97333 1.19629 0
M  V30 9 C 4.39556 0.991607 0.269447 0
M  V30 10 C 2.75573 -0.681669 -2.15926 0
M  V30 11 O 1.8213 0.205755 -1.99387 0
M  V30 12 N 2.56653 -1.95391 -1.65273 0
M  V30 13 C 3.52618 -3.03846 -1.61113 0
M  V30 14 C 3.4276 -3.42801 -0.113871 0
M  V30 15 C 2.02569 -2.93933 0.295988 0
M  V30 16 C 1.40582 -2.55075 -1.04945 0 CFG=1
M  V30 17 C 0.177505 -1.80479 -0.986636 0
M  V30 18 O -0.354508 -1.41025 -2.08404 0
M  V30 19 N -0.445817 -1.50367 0.248271 0
M  V30 20 C -1.70529 -0.741813 0.187594 0
M  V30 21 C -1.31182 0.634131 0.745733 0
M  V30 22 C -2.43761 1.59843 0.771556 0
M  V30 23 C -2.08034 2.96697 1.25841 0
M  V30 24 N -1.61328 3.08504 2.59216 0
M  V30 25 C -0.413668 2.65198 3.16313 0
M  V30 26 N -0.450804 1.93857 4.40044 0
M  V30 27 N 0.722049 2.87755 2.62363 0
M  V30 28 C -2.68581 -1.43275 1.00838 0
M  V30 29 O -2.31219 -2.14624 1.97935 0
M  V30 30 C -4.13267 -1.35567 0.768998 0
M  V30 31 N -4.81799 -0.727721 -0.160619 0
M  V30 32 C -6.11518 -0.794798 -0.197243 0
M  V30 33 C -6.73658 -1.54376 0.770134 0
M  V30 34 S -5.4044 -2.10637 1.6746 0
M  V30 35 C -8.13199 -1.68251 0.814698 0
M  V30 36 C -8.93652 -1.06869 -0.116551 0
M  V30 37 C -8.29434 -0.323425 -1.07711 0
M  V30 38 C -6.95051 -0.171877 -1.14414 0
M  V30 39 H 5.43223 -0.969325 -3.98483 0
M  V30 40 H 3.91335 -1.29828 -4.60264 0
M  V30 41 H 3.60918 0.660885 -3.54953 0
M  V30 42 H 5.80716 0.743565 -2.73173 0
M  V30 43 H 5.56919 -0.542793 -1.53675 0
M  V30 44 H 5.01808 3.0261 -2.36104 0
M  V30 45 H 4.51789 4.68481 -0.710541 0
M  V30 46 H 3.9268 4.10061 1.60404 0
M  V30 47 H 3.85107 1.73845 2.21922 0
M  V30 48 H 4.35831 -0.0381293 0.54618 0
M  V30 49 H 4.55945 -2.74877 -1.8362 0
M  V30 50 H 3.1718 -3.93235 -2.16496 0
M  V30 51 H 4.2062 -2.8222 0.390816 0
M  V30 52 H 3.52362 -4.50358 0.0303413 0
M  V30 53 H 2.1436 -2.03872 0.898989 0
M  V30 54 H 1.47291 -3.76223 0.781328 0
M  V30 55 H 1.19724 -3.55727 -1.57534 0
M  V30 56 H -0.0192499 -1.81551 1.12739 0
M  V30 57 H -2.01396 -0.570962 -0.841614 0
M  V30 58 H -0.94063 0.488824 1.80087 0
M  V30 59 H -0.470366 1.04974 0.163327 0
M  V30 60 H -3.27637 1.25281 1.45165 0
M  V30 61 H -2.82716 1.69042 -0.281799 0
M  V30 62 H -1.30858 3.43481 0.55676 0
M  V30 63 H -2.97617 3.63655 1.08261 0
M  V30 64 H -2.28189 3.58729 3.27433 0
M  V30 65 H -0.660759 2.44724 5.26903 0
M  V30 66 H -0.262372 0.917286 4.38862 0
M  V30 67 H 1.58489 2.53195 3.09246 0
M  V30 68 H -8.53679 -2.28457 1.60144 0
M  V30 69 H -9.99914 -1.14151 -0.130319 0
M  V30 70 H -8.93036 0.164806 -1.81884 0
M  V30 71 H -6.53202 0.443571 -1.95182 0
M  V30 END ATOM
M  V30 BEGIN BOND
M  V30 1 1 1 2
M  V30 2 1 2 3
M  V30 3 1 3 4
M  V30 4 2 4 5
M  V30 5 1 5 6
M  V30 6 2 6 7
M  V30 7 1 7 8
M  V30 8 2 8 9
M  V30 9 1 2 10
M  V30 10 2 10 11
M  V30 11 1 10 12
M  V30 12 1 12 13
M  V30 13 1 13 14
M  V30 14 1 14 15
M  V30 15 1 15 16
M  V30 16 1 16 17
M  V30 17 2 17 18
M  V30 18 1 17 19
M  V30 19 1 19 20
M  V30 20 1 20 21
M  V30 21 1 21 22
M  V30 22 1 22 23
M  V30 23 1 23 24
M  V30 24 1 24 25
M  V30 25 1 25 26
M  V30 26 2 25 27 CFG=2
M  V30 27 1 20 28
M  V30 28 2 28 29
M  V30 29 1 28 30
M  V30 30 2 30 31
M  V30 31 1 31 32
M  V30 32 2 32 33
M  V30 33 1 33 34
M  V30 34 1 33 35
M  V30 35 2 35 36
M  V30 36 1 36 37
M  V30 37 2 37 38
M  V30 38 1 9 4
M  V30 39 1 16 12
M  V30 40 1 34 30
M  V30 41 1 38 32
M  V30 42 1 1 39
M  V30 43 1 1 40
M  V30 44 1 2 41 CFG=3
M  V30 45 1 3 42
M  V30 46 1 3 43
M  V30 47 1 5 44
M  V30 48 1 6 45
M  V30 49 1 7 46
M  V30 50 1 8 47
M  V30 51 1 9 48
M  V30 52 1 13 49
M  V30 53 1 13 50
M  V30 54 1 14 51
M  V30 55 1 14 52
M  V30 56 1 15 53
M  V30 57 1 15 54
M  V30 58 1 16 55 CFG=3
M  V30 59 1 19 56
M  V30 60 1 20 57
M  V30 61 1 21 58
M  V30 62 1 21 59
M  V30 63 1 22 60
M  V30 64 1 22 61
M  V30 65 1 23 62
M  V30 66 1 23 63
M  V30 67 1 24 64
M  V30 68 1 26 65
M  V30 69 1 26 66
M  V30 70 1 27 67
M  V30 71 1 35 68
M  V30 72 1 36 69
M  V30 73 1 37 70
M  V30 74 1 38 71
M  V30 END BOND
M  V30 END CTAB
M  END
