
     RDKit          3D

  0  0  0  0  0  0  0  0  0  0999 V3000
M  V30 BEGIN CTAB
M  V30 COUNTS 30 30 0 0 0
M  V30 BEGIN ATOM
M  V30 1 N -3.23841 -1.67076 -0.464496 0
M  V30 2 C -2.37636 -0.801561 0.299911 0 CFG=2
M  V30 3 C -2.7454 0.614343 -0.0956575 0
M  V30 4 C -1.61584 1.56747 0.212197 0
M  V30 5 C -0.74425 0.919525 1.2624 0
M  V30 6 N -0.094367 -0.222192 0.660666 0
M  V30 7 C -0.930697 -1.0032 -0.178851 0
M  V30 8 C 1.12596 0.229415 0.0523922 0
M  V30 9 C 1.90837 -0.865257 -0.615839 0
M  V30 10 S 3.37967 -0.125533 -1.31012 0
M  V30 11 O 4.16544 -1.15469 -2.09273 0
M  V30 12 O 3.00253 0.957555 -2.30314 0
M  V30 13 N 4.35016 0.613061 -0.102015 0
M  V30 14 H -4.12734 -1.86195 -0.0697389 0
M  V30 15 H -2.79572 -2.40711 -0.94738 0
M  V30 16 H -2.47376 -0.982311 1.3765 0
M  V30 17 H -2.88032 0.619089 -1.20339 0
M  V30 18 H -3.70329 0.912198 0.373451 0
M  V30 19 H -1.97993 2.52256 0.648072 0
M  V30 20 H -1.01547 1.77064 -0.673457 0
M  V30 21 H -1.36197 0.645293 2.13897 0
M  V30 22 H 0.0181392 1.65417 1.55368 0
M  V30 23 H -0.681062 -2.08149 -0.199946 0
M  V30 24 H -0.915159 -0.598453 -1.21537 0
M  V30 25 H 1.77433 0.702222 0.797538 0
M  V30 26 H 0.861622 0.973708 -0.726802 0
M  V30 27 H 2.25221 -1.64763 0.0775802 0
M  V30 28 H 1.36529 -1.34203 -1.43855 0
M  V30 29 H 4.11825 1.63592 -0.00577735 0
M  V30 30 H 5.35736 0.427006 -0.216275 0
M  V30 END ATOM
M  V30 BEGIN BOND
M  V30 1 1 1 2
M  V30 2 1 2 3
M  V30 3 1 3 4
M  V30 4 1 4 5
M  V30 5 1 5 6
M  V30 6 1 6 7
M  V30 7 1 6 8
M  V30 8 1 8 9
M  V30 9 1 9 10
M  V30 10 2 10 11
M  V30 11 2 10 12
M  V30 12 1 10 13
M  V30 13 1 7 2
M  V30 14 1 1 14
M  V30 15 1 1 15
M  V30 16 1 2 16 CFG=1
M  V30 17 1 3 17
M  V30 18 1 3 18
M  V30 19 1 4 19
M  V30 20 1 4 20
M  V30 21 1 5 21
M  V30 22 1 5 22
M  V30 23 1 7 23
M  V30 24 1 7 24
M  V30 25 1 8 25
M  V30 26 1 8 26
M  V30 27 1 9 27
M  V30 28 1 9 28
M  V30 29 1 13 29
M  V30 30 1 13 30
M  V30 END BOND
M  V30 END CTAB
M  END
