
     RDKit          3D

  0  0  0  0  0  0  0  0  0  0999 V3000
M  V30 BEGIN CTAB
M  V30 COUNTS 28 28 0 0 0
M  V30 BEGIN ATOM
M  V30 1 N 2.96945 -1.30223 0.900996 0
M  V30 2 C 2.38046 0.00231996 0.85 0
M  V30 3 C 1.89952 0.472287 -0.473549 0
M  V30 4 C 2.52027 1.5443 -1.17657 0
M  V30 5 N 3.64442 2.2756 -0.705696 0
M  V30 6 O 1.82458 1.72166 -2.30307 0
M  V30 7 N 0.797609 0.822355 -2.3113 0
M  V30 8 C 0.82752 0.0830451 -1.22741 0
M  V30 9 C -0.221442 -0.883569 -0.735931 0
M  V30 10 O -0.114023 -2.05255 -0.860739 0
M  V30 11 N -1.33185 -0.259061 -0.131968 0
M  V30 12 C -2.5193 -0.705476 0.488258 0
M  V30 13 C -3.52486 -1.38899 -0.386749 0
M  V30 14 C -3.2197 0.416289 1.24723 0
M  V30 15 H 3.82552 -1.39113 1.50037 0
M  V30 16 H 3.13474 -1.72684 -0.0313804 0
M  V30 17 H 2.70882 0.743399 1.46202 0
M  V30 18 H 1.30717 -0.287848 1.40079 0
M  V30 19 H 4.35302 2.56043 -1.44922 0
M  V30 20 H 3.85321 2.56098 0.284302 0
M  V30 21 H -1.21668 0.846476 -0.169351 0
M  V30 22 H -2.24233 -1.51655 1.24384 0
M  V30 23 H -3.72926 -0.833471 -1.3007 0
M  V30 24 H -4.52495 -1.3355 0.163427 0
M  V30 25 H -3.26475 -2.39898 -0.55784 0
M  V30 26 H -3.2484 1.2857 0.547861 0
M  V30 27 H -4.20262 0.0090833 1.5202 0
M  V30 28 H -2.68615 0.738285 2.21219 0
M  V30 END ATOM
M  V30 BEGIN BOND
M  V30 1 1 1 2
M  V30 2 1 2 3
M  V30 3 2 3 4
M  V30 4 1 4 5
M  V30 5 1 4 6
M  V30 6 1 6 7
M  V30 7 2 7 8
M  V30 8 1 8 9
M  V30 9 2 9 10
M  V30 10 1 9 11
M  V30 11 1 11 12
M  V30 12 1 12 13
M  V30 13 1 12 14
M  V30 14 1 8 3
M  V30 15 1 1 15
M  V30 16 1 1 16
M  V30 17 1 2 17
M  V30 18 1 2 18
M  V30 19 1 5 19
M  V30 20 1 5 20
M  V30 21 1 11 21
M  V30 22 1 12 22
M  V30 23 1 13 23
M  V30 24 1 13 24
M  V30 25 1 13 25
M  V30 26 1 14 26
M  V30 27 1 14 27
M  V30 28 1 14 28
M  V30 END BOND
M  V30 END CTAB
M  END
