
     RDKit          3D

  0  0  0  0  0  0  0  0  0  0999 V3000
M  V30 BEGIN CTAB
M  V30 COUNTS 24 23 0 0 0
M  V30 BEGIN ATOM
M  V30 1 N -2.91634 1.19028 0.372138 0
M  V30 2 C -2.5859 0.511403 -0.828579 0
M  V30 3 N -3.54099 0.266626 -1.65582 0
M  V30 4 C -1.17083 0.092732 -1.12369 0
M  V30 5 C -0.697311 -0.85855 -0.0656766 0
M  V30 6 C 0.641941 -1.40826 -0.1512 0
M  V30 7 C 1.87348 -0.644837 -0.16422 0
M  V30 8 C 2.254 0.221642 0.927457 0
M  V30 9 N 1.60877 0.311961 2.01714 0
M  V30 10 N 3.4179 1.02264 0.813471 0
M  V30 11 F 2.0523 -0.0229715 -1.42179 0
M  V30 12 F 2.93974 -1.59843 -0.229351 0
M  V30 13 F 0.654954 -2.23881 -1.29935 0
M  V30 14 F 0.727665 -2.37188 0.885393 0
M  V30 15 F -1.55229 -1.99034 -0.2391 0
M  V30 16 F -1.12828 -0.369742 1.15035 0
M  V30 17 F -1.14673 -0.364299 -2.39339 0
M  V30 18 F -0.478288 1.31363 -1.06932 0
M  V30 19 H -3.82542 1.00765 0.844286 0
M  V30 20 H -2.21112 1.87571 0.756734 0
M  V30 21 H -4.52728 0.536838 -1.49166 0
M  V30 22 H 1.84979 0.917617 2.81578 0
M  V30 23 H 3.41533 2.04672 0.638739 0
M  V30 24 H 4.3449 0.552671 0.911664 0
M  V30 END ATOM
M  V30 BEGIN BOND
M  V30 1 1 1 2
M  V30 2 2 2 3 CFG=2
M  V30 3 1 2 4
M  V30 4 1 4 5
M  V30 5 1 5 6
M  V30 6 1 6 7
M  V30 7 1 7 8
M  V30 8 2 8 9 CFG=2
M  V30 9 1 8 10
M  V30 10 1 7 11
M  V30 11 1 7 12
M  V30 12 1 6 13
M  V30 13 1 6 14
M  V30 14 1 5 15
M  V30 15 1 5 16
M  V30 16 1 4 17
M  V30 17 1 4 18
M  V30 18 1 1 19
M  V30 19 1 1 20
M  V30 20 1 3 21
M  V30 21 1 9 22
M  V30 22 1 10 23
M  V30 23 1 10 24
M  V30 END BOND
M  V30 END CTAB
M  END
