
     RDKit          3D

  0  0  0  0  0  0  0  0  0  0999 V3000
M  V30 BEGIN CTAB
M  V30 COUNTS 23 24 0 0 0
M  V30 BEGIN ATOM
M  V30 1 N -2.46518 -0.382097 -1.8229 0
M  V30 2 C -1.73199 -0.179549 -0.636893 0
M  V30 3 N -0.39938 -0.153812 -0.592816 0
M  V30 4 C 0.322155 0.0378924 0.527315 0
M  V30 5 O 1.70881 0.0522184 0.496406 0
M  V30 6 C 2.38967 -0.133119 -0.705015 0
M  V30 7 C 3.53614 0.867854 -0.900373 0
M  V30 8 C 3.78129 -0.621471 -0.772653 0
M  V30 9 C -0.383498 0.218137 1.69956 0
M  V30 10 C -1.76642 0.201626 1.71671 0
M  V30 11 C -2.42282 0.00146563 0.538832 0
M  V30 12 N -3.84049 -0.0212827 0.520567 0
M  V30 13 H -2.56768 -1.33337 -2.20288 0
M  V30 14 H -2.89567 0.418161 -2.30598 0
M  V30 15 H 1.74924 -0.286796 -1.59773 0
M  V30 16 H 3.86145 1.47197 -0.0470415 0
M  V30 17 H 3.60227 1.34573 -1.89052 0
M  V30 18 H 4.31438 -1.00624 0.120258 0
M  V30 19 H 4.07314 -1.15751 -1.6991 0
M  V30 20 H 0.142173 0.379069 2.64678 0
M  V30 21 H -2.3302 0.344044 2.64345 0
M  V30 22 H -4.34729 0.874077 0.597191 0
M  V30 23 H -4.33011 -0.93699 0.430709 0
M  V30 END ATOM
M  V30 BEGIN BOND
M  V30 1 1 1 2
M  V30 2 2 2 3
M  V30 3 1 3 4
M  V30 4 1 4 5
M  V30 5 1 5 6
M  V30 6 1 6 7
M  V30 7 1 7 8
M  V30 8 2 4 9
M  V30 9 1 9 10
M  V30 10 2 10 11
M  V30 11 1 11 12
M  V30 12 1 11 2
M  V30 13 1 8 6
M  V30 14 1 1 13
M  V30 15 1 1 14
M  V30 16 1 6 15
M  V30 17 1 7 16
M  V30 18 1 7 17
M  V30 19 1 8 18
M  V30 20 1 8 19
M  V30 21 1 9 20
M  V30 22 1 10 21
M  V30 23 1 12 22
M  V30 24 1 12 23
M  V30 END BOND
M  V30 END CTAB
M  END
