
     RDKit          3D

  0  0  0  0  0  0  0  0  0  0999 V3000
M  V30 BEGIN CTAB
M  V30 COUNTS 43 44 0 0 0
M  V30 BEGIN ATOM
M  V30 1 C 5.66045 0.0671394 0.35055 0
M  V30 2 C 4.76462 -0.631 1.32264 0
M  V30 3 C 5.56757 -1.77898 1.92781 0
M  V30 4 C 4.39488 0.349124 2.43888 0
M  V30 5 O 3.57005 -1.08813 0.769215 0
M  V30 6 C 2.68285 -0.170599 0.187912 0
M  V30 7 O 3.04641 1.01185 0.215102 0
M  V30 8 N 1.48023 -0.607469 -0.372502 0
M  V30 9 C 0.477696 0.155461 -0.997552 0
M  V30 10 C -0.771912 -0.413763 -1.27911 0
M  V30 11 C -1.79017 0.255238 -1.89378 0
M  V30 12 O -3.02484 -0.300167 -2.17089 0
M  V30 13 C -4.19482 -0.118867 -1.49019 0
M  V30 14 C -4.39615 -0.424568 -0.174341 0
M  V30 15 N -3.34503 -0.974678 0.595768 0
M  V30 16 C -5.65055 -0.193885 0.426567 0
M  V30 17 N -5.79158 -0.535818 1.80268 0
M  V30 18 N -6.67189 0.326854 -0.268543 0
M  V30 19 C -6.50785 0.639351 -1.56616 0
M  V30 20 C -5.28746 0.423804 -2.18242 0
M  V30 21 C -1.59449 1.58491 -2.2727 0
M  V30 22 C -0.385137 2.1756 -2.01435 0
M  V30 23 C 0.643448 1.45774 -1.37861 0
M  V30 24 H 5.45315 -0.21166 -0.699182 0
M  V30 25 H 5.49563 1.1601 0.444719 0
M  V30 26 H 6.75356 -0.0785958 0.594857 0
M  V30 27 H 5.17993 -2.04681 2.93248 0
M  V30 28 H 6.61608 -1.43723 1.98862 0
M  V30 29 H 5.52555 -2.63327 1.23667 0
M  V30 30 H 4.98259 0.179817 3.34865 0
M  V30 31 H 3.31825 0.298856 2.68662 0
M  V30 32 H 4.60698 1.37854 2.08672 0
M  V30 33 H 1.30337 -1.67907 -0.31801 0
M  V30 34 H -0.886491 -1.44547 -0.987494 0
M  V30 35 H -2.92972 -0.443654 1.37712 0
M  V30 36 H -2.99553 -1.91763 0.367473 0
M  V30 37 H -6.71227 -0.962312 2.07842 0
M  V30 38 H -5.04501 -0.384312 2.51603 0
M  V30 39 H -7.34256 1.06357 -2.12942 0
M  V30 40 H -5.1401 0.670443 -3.22682 0
M  V30 41 H -2.41633 2.09248 -2.75816 0
M  V30 42 H -0.224457 3.1964 -2.30127 0
M  V30 43 H 1.58104 1.99065 -1.21401 0
M  V30 END ATOM
M  V30 BEGIN BOND
M  V30 1 1 1 2
M  V30 2 1 2 3
M  V30 3 1 2 4
M  V30 4 1 2 5
M  V30 5 1 5 6
M  V30 6 2 6 7
M  V30 7 1 6 8
M  V30 8 1 8 9
M  V30 9 2 9 10
M  V30 10 1 10 11
M  V30 11 1 11 12
M  V30 12 1 12 13
M  V30 13 2 13 14
M  V30 14 1 14 15
M  V30 15 1 14 16
M  V30 16 1 16 17
M  V30 17 2 16 18
M  V30 18 1 18 19
M  V30 19 2 19 20
M  V30 20 2 11 21
M  V30 21 1 21 22
M  V30 22 2 22 23
M  V30 23 1 23 9
M  V30 24 1 20 13
M  V30 25 1 1 24
M  V30 26 1 1 25
M  V30 27 1 1 26
M  V30 28 1 3 27
M  V30 29 1 3 28
M  V30 30 1 3 29
M  V30 31 1 4 30
M  V30 32 1 4 31
M  V30 33 1 4 32
M  V30 34 1 8 33
M  V30 35 1 10 34
M  V30 36 1 15 35
M  V30 37 1 15 36
M  V30 38 1 17 37
M  V30 39 1 17 38
M  V30 40 1 19 39
M  V30 41 1 20 40
M  V30 42 1 21 41
M  V30 43 1 22 42
M  V30 44 1 23 43
M  V30 END BOND
M  V30 END CTAB
M  END
