
     RDKit          3D

  0  0  0  0  0  0  0  0  0  0999 V3000
M  V30 BEGIN CTAB
M  V30 COUNTS 15 14 0 0 0
M  V30 BEGIN ATOM
M  V30 1 N 2.06075 0.0435922 1.34185 0
M  V30 2 S 1.71337 -0.345641 -0.287014 0
M  V30 3 O 2.77086 0.329417 -1.1441 0
M  V30 4 O 1.83558 -1.81843 -0.556463 0
M  V30 5 C 0.150089 0.286214 -0.813149 0
M  V30 6 S -1.19245 -0.341598 0.138668 0
M  V30 7 N -2.65315 0.350455 -0.474861 0
M  V30 8 O -1.03289 -0.119343 1.59575 0
M  V30 9 O -1.28896 -1.83054 -0.0920771 0
M  V30 10 H 1.38658 -0.310071 2.02622 0
M  V30 11 H 2.20526 1.08206 1.39613 0
M  V30 12 H 0.204198 1.39585 -0.754199 0
M  V30 13 H 0.00950819 0.0232519 -1.86401 0
M  V30 14 H -2.66689 1.37995 -0.400089 0
M  V30 15 H -3.50186 -0.125185 -0.112664 0
M  V30 END ATOM
M  V30 BEGIN BOND
M  V30 1 1 1 2
M  V30 2 2 2 3
M  V30 3 2 2 4
M  V30 4 1 2 5
M  V30 5 1 5 6
M  V30 6 1 6 7
M  V30 7 2 6 8
M  V30 8 2 6 9
M  V30 9 1 1 10
M  V30 10 1 1 11
M  V30 11 1 5 12
M  V30 12 1 5 13
M  V30 13 1 7 14
M  V30 14 1 7 15
M  V30 END BOND
M  V30 END CTAB
M  END
