
     RDKit          3D

  0  0  0  0  0  0  0  0  0  0999 V3000
M  V30 BEGIN CTAB
M  V30 COUNTS 25 25 0 0 0
M  V30 BEGIN ATOM
M  V30 1 N 2.60152 1.98474 0.781712 0
M  V30 2 C 2.35164 1.06762 -0.289185 0
M  V30 3 C 1.28255 0.0652464 0.106846 0
M  V30 4 O 1.09806 -0.783976 -0.976993 0
M  V30 5 C 0.402024 -1.89302 -0.519652 0
M  V30 6 C -0.681105 -1.58382 0.448419 0
M  V30 7 N -1.0431 -0.230252 0.579092 0
M  V30 8 C -0.034456 0.7379 0.385359 0
M  V30 9 S -2.5937 0.193418 0.0393988 0
M  V30 10 O -2.79262 1.67161 0.222138 0
M  V30 11 O -3.69088 -0.531765 0.752849 0
M  V30 12 N -2.70794 -0.13921 -1.65256 0
M  V30 13 H 3.6229 2.04556 0.99269 0
M  V30 14 H 2.1538 1.6218 1.66754 0
M  V30 15 H 3.27644 0.468498 -0.480764 0
M  V30 16 H 2.08775 1.55009 -1.2434 0
M  V30 17 H 1.5906 -0.478437 1.0077 0
M  V30 18 H 1.17309 -2.55186 -0.0227617 0
M  V30 19 H 0.0480142 -2.45464 -1.41764 0
M  V30 20 H -0.411461 -1.97513 1.47318 0
M  V30 21 H -1.58762 -2.168 0.142081 0
M  V30 22 H -0.255808 1.50222 -0.385417 0
M  V30 23 H 0.106635 1.31609 1.34394 0
M  V30 24 H -2.26747 0.689233 -2.1449 0
M  V30 25 H -3.72886 -0.12392 -1.91857 0
M  V30 END ATOM
M  V30 BEGIN BOND
M  V30 1 1 1 2
M  V30 2 1 2 3
M  V30 3 1 3 4
M  V30 4 1 4 5
M  V30 5 1 5 6
M  V30 6 1 6 7
M  V30 7 1 7 8
M  V30 8 1 7 9
M  V30 9 2 9 10
M  V30 10 2 9 11
M  V30 11 1 9 12
M  V30 12 1 8 3
M  V30 13 1 1 13
M  V30 14 1 1 14
M  V30 15 1 2 15
M  V30 16 1 2 16
M  V30 17 1 3 17
M  V30 18 1 5 18
M  V30 19 1 5 19
M  V30 20 1 6 20
M  V30 21 1 6 21
M  V30 22 1 8 22
M  V30 23 1 8 23
M  V30 24 1 12 24
M  V30 25 1 12 25
M  V30 END BOND
M  V30 END CTAB
M  END
