
     RDKit          3D

  0  0  0  0  0  0  0  0  0  0999 V3000
M  V30 BEGIN CTAB
M  V30 COUNTS 34 36 0 0 0
M  V30 BEGIN ATOM
M  V30 1 N -6.21 3.54275 -1.2606 0
M  V30 2 C -5.30052 2.87392 -1.02171 0
M  V30 3 C -4.15733 2.05617 -0.727584 0
M  V30 4 C -2.86684 2.46906 -0.985711 0
M  V30 5 N -1.87146 1.6285 -0.66931 0
M  V30 6 C -2.07815 0.400994 -0.11369 0
M  V30 7 N -3.33268 -0.0198719 0.145079 0
M  V30 8 C -4.35162 0.811489 -0.164149 0
M  V30 9 N -5.66182 0.33038 0.129341 0
M  V30 10 N -3.31007 -1.23109 0.679125 0
M  V30 11 C -2.05414 -1.66949 0.801194 0
M  V30 12 C -1.25824 -0.620392 0.291728 0
M  V30 13 N 0.124408 -0.678724 0.249859 0
M  V30 14 N 0.924294 -0.167268 -0.570839 0
M  V30 15 C 2.33579 -0.401336 -0.36219 0
M  V30 16 C 2.76002 -1.70942 -0.535663 0
M  V30 17 C 4.086 -2.03807 -0.333977 0
M  V30 18 C 5.02097 -1.09763 0.0406463 0
M  V30 19 C 4.54991 0.212176 0.20434 0
M  V30 20 C 3.23517 0.554754 0.00733961 0
M  V30 21 C 5.56528 1.22033 0.617883 0
M  V30 22 F 6.14678 1.83762 -0.475961 0
M  V30 23 F 6.58524 0.65682 1.35156 0
M  V30 24 F 4.94561 2.18106 1.41724 0
M  V30 25 N -1.54466 -2.89165 1.30728 0
M  V30 26 H -2.69222 3.4532 -1.42864 0
M  V30 27 H -6.37996 0.214041 -0.61704 0
M  V30 28 H -5.9611 0.069778 1.09936 0
M  V30 29 H 2.0554 -2.4938 -0.832808 0
M  V30 30 H 4.43204 -3.04768 -0.461014 0
M  V30 31 H 6.06863 -1.3465 0.206888 0
M  V30 32 H 2.89125 1.56787 0.138378 0
M  V30 33 H -1.15801 -2.89932 2.27476 0
M  V30 34 H -1.53796 -3.76868 0.767494 0
M  V30 END ATOM
M  V30 BEGIN BOND
M  V30 1 3 1 2
M  V30 2 1 2 3
M  V30 3 1 3 4
M  V30 4 2 4 5
M  V30 5 1 5 6
M  V30 6 1 6 7
M  V30 7 1 7 8
M  V30 8 1 8 9
M  V30 9 1 7 10
M  V30 10 2 10 11
M  V30 11 1 11 12
M  V30 12 1 12 13
M  V30 13 2 13 14
M  V30 14 1 14 15
M  V30 15 2 15 16
M  V30 16 1 16 17
M  V30 17 2 17 18
M  V30 18 1 18 19
M  V30 19 2 19 20
M  V30 20 1 19 21
M  V30 21 1 21 22
M  V30 22 1 21 23
M  V30 23 1 21 24
M  V30 24 1 11 25
M  V30 25 2 8 3
M  V30 26 1 20 15
M  V30 27 2 12 6
M  V30 28 1 4 26
M  V30 29 1 9 27
M  V30 30 1 9 28
M  V30 31 1 16 29
M  V30 32 1 17 30
M  V30 33 1 18 31
M  V30 34 1 20 32
M  V30 35 1 25 33
M  V30 36 1 25 34
M  V30 END BOND
M  V30 END CTAB
M  END
