
     RDKit          3D

  0  0  0  0  0  0  0  0  0  0999 V3000
M  V30 BEGIN CTAB
M  V30 COUNTS 23 23 0 0 0
M  V30 BEGIN ATOM
M  V30 1 C 3.0963 -0.910797 -0.219628 0
M  V30 2 C 2.29839 -0.178404 0.840883 0
M  V30 3 N 0.881661 -0.0570678 0.52258 0
M  V30 4 N -0.0431337 -1.00444 0.70427 0
M  V30 5 C -1.24285 -0.626017 0.30581 0
M  V30 6 C -2.56579 -1.3608 0.392178 0
M  V30 7 O -3.22608 -1.3699 -0.847342 0
M  V30 8 C -1.07702 0.67756 -0.165922 0
M  V30 9 N -2.15684 1.43249 -0.691739 0
M  V30 10 C 0.265322 1.00012 -0.0199647 0
M  V30 11 N 0.803699 2.24246 -0.407454 0
M  V30 12 H 3.3163 -1.98447 0.0967015 0
M  V30 13 H 2.65763 -0.819129 -1.20939 0
M  V30 14 H 4.11076 -0.415879 -0.235754 0
M  V30 15 H 2.70445 0.842743 0.974578 0
M  V30 16 H 2.47259 -0.695725 1.80397 0
M  V30 17 H -2.18614 -2.45473 0.545081 0
M  V30 18 H -3.15626 -1.13694 1.27009 0
M  V30 19 H -3.98256 -1.98698 -0.757611 0
M  V30 20 H -2.02154 1.90219 -1.5979 0
M  V30 21 H -3.04963 1.50651 -0.17562 0
M  V30 22 H 0.264151 3.09564 -0.550649 0
M  V30 23 H 1.83658 2.30156 -0.577162 0
M  V30 END ATOM
M  V30 BEGIN BOND
M  V30 1 1 1 2
M  V30 2 1 2 3
M  V30 3 1 3 4
M  V30 4 2 4 5
M  V30 5 1 5 6
M  V30 6 1 6 7
M  V30 7 1 5 8
M  V30 8 1 8 9
M  V30 9 2 8 10
M  V30 10 1 10 11
M  V30 11 1 10 3
M  V30 12 1 1 12
M  V30 13 1 1 13
M  V30 14 1 1 14
M  V30 15 1 2 15
M  V30 16 1 2 16
M  V30 17 1 6 17
M  V30 18 1 6 18
M  V30 19 1 7 19
M  V30 20 1 9 20
M  V30 21 1 9 21
M  V30 22 1 11 22
M  V30 23 1 11 23
M  V30 END BOND
M  V30 END CTAB
M  END
