
     RDKit          3D

  0  0  0  0  0  0  0  0  0  0999 V3000
M  V30 BEGIN CTAB
M  V30 COUNTS 44 48 0 0 0
M  V30 BEGIN ATOM
M  V30 1 N -5.89065 -1.73772 -0.72374 0
M  V30 2 C -4.75078 -1.75999 -0.549874 0
M  V30 3 C -3.33585 -1.81112 -0.326134 0
M  V30 4 C -2.74622 -2.92131 0.218567 0
M  V30 5 N -3.53164 -4.0516 0.575222 0
M  V30 6 N -1.43175 -2.89525 0.395489 0
M  V30 7 C -0.638445 -1.86017 0.0796447 0
M  V30 8 C -1.22201 -0.725485 -0.473262 0
M  V30 9 C -2.58373 -0.701584 -0.67849 0
M  V30 10 N -3.26152 0.438794 -1.25902 0
M  V30 11 C -0.388595 0.425332 -0.815905 0
M  V30 12 C -0.87534 1.7258 -0.258417 0
M  V30 13 C -0.935114 1.81973 1.11284 0
M  V30 14 C -1.34326 2.97544 1.73551 0
M  V30 15 C -1.69646 4.05321 0.954994 0
M  V30 16 C -1.63829 3.96404 -0.417841 0
M  V30 17 C -1.22951 2.80553 -1.02415 0
M  V30 18 C 1.04781 0.248874 -0.560437 0
M  V30 19 C 1.54807 -0.88597 -0.0193362 0
M  V30 20 O 0.733131 -1.93964 0.304865 0
M  V30 21 C 2.93358 -1.01594 0.225789 0
M  V30 22 C 3.41345 -2.17354 0.77409 0
M  V30 23 C 4.75149 -2.31576 1.01776 0
M  V30 24 C 5.5963 -1.28374 0.704362 0
M  V30 25 C 5.11153 -0.118971 0.152395 0
M  V30 26 C 3.7539 0.0258305 -0.0950542 0
M  V30 27 C 3.27642 1.19658 -0.648516 0
M  V30 28 C 1.92105 1.26916 -0.865299 0
M  V30 29 H -3.42323 -4.50604 1.48756 0
M  V30 30 H -4.21758 -4.41409 -0.0971831 0
M  V30 31 H -3.17902 0.667727 -2.27182 0
M  V30 32 H -3.84946 1.05956 -0.677002 0
M  V30 33 H -0.473016 0.54833 -1.93925 0
M  V30 34 H -0.657493 0.97109 1.75195 0
M  V30 35 H -1.40787 3.10113 2.80701 0
M  V30 36 H -2.0246 4.98632 1.38822 0
M  V30 37 H -1.93201 4.85582 -0.990184 0
M  V30 38 H -1.18538 2.73915 -2.08544 0
M  V30 39 H 2.6985 -2.95868 1.00257 0
M  V30 40 H 5.11368 -3.24892 1.45637 0
M  V30 41 H 6.66061 -1.39034 0.895469 0
M  V30 42 H 5.79542 0.684454 -0.0879722 0
M  V30 43 H 3.96716 1.98318 -0.88115 0
M  V30 44 H 1.52673 2.17079 -1.29519 0
M  V30 END ATOM
M  V30 BEGIN BOND
M  V30 1 3 1 2
M  V30 2 1 2 3
M  V30 3 2 3 4
M  V30 4 1 4 5
M  V30 5 1 4 6
M  V30 6 2 6 7
M  V30 7 1 7 8
M  V30 8 2 8 9
M  V30 9 1 9 10
M  V30 10 1 8 11
M  V30 11 1 11 12
M  V30 12 2 12 13
M  V30 13 1 13 14
M  V30 14 2 14 15
M  V30 15 1 15 16
M  V30 16 2 16 17
M  V30 17 1 11 18
M  V30 18 2 18 19
M  V30 19 1 19 20
M  V30 20 1 19 21
M  V30 21 2 21 22
M  V30 22 1 22 23
M  V30 23 2 23 24
M  V30 24 1 24 25
M  V30 25 2 25 26
M  V30 26 1 26 27
M  V30 27 2 27 28
M  V30 28 1 9 3
M  V30 29 1 17 12
M  V30 30 1 28 18
M  V30 31 1 20 7
M  V30 32 1 26 21
M  V30 33 1 5 29
M  V30 34 1 5 30
M  V30 35 1 10 31
M  V30 36 1 10 32
M  V30 37 1 11 33
M  V30 38 1 13 34
M  V30 39 1 14 35
M  V30 40 1 15 36
M  V30 41 1 16 37
M  V30 42 1 17 38
M  V30 43 1 22 39
M  V30 44 1 23 40
M  V30 45 1 24 41
M  V30 46 1 25 42
M  V30 47 1 27 43
M  V30 48 1 28 44
M  V30 END BOND
M  V30 END CTAB
M  END
