
     RDKit          3D

  0  0  0  0  0  0  0  0  0  0999 V3000
M  V30 BEGIN CTAB
M  V30 COUNTS 27 27 0 0 0
M  V30 BEGIN ATOM
M  V30 1 C -3.99692 0.137717 0.215652 0
M  V30 2 C -2.55928 -0.131202 -0.212068 0
M  V30 3 C -1.6715 0.788135 0.636496 0
M  V30 4 C -0.239096 0.584086 0.27585 0
M  V30 5 N 0.522609 -0.332029 0.904892 0
M  V30 6 C 1.8105 -0.500895 0.565804 0
M  V30 7 N 2.56513 -1.47273 1.25428 0
M  V30 8 C 2.41179 0.25055 -0.436377 0
M  V30 9 C 1.62429 1.17731 -1.06602 0
M  V30 10 O 2.15426 1.86496 -1.97507 0
M  V30 11 N 0.344287 1.31108 -0.694384 0
M  V30 12 C 3.8427 0.0156639 -0.76506 0
M  V30 13 N -2.19236 -1.49331 0.056473 0
M  V30 14 H -4.27986 1.11342 -0.203183 0
M  V30 15 H -4.08063 0.0891687 1.3152 0
M  V30 16 H -4.68825 -0.622131 -0.206179 0
M  V30 17 H -2.45086 0.138572 -1.27183 0
M  V30 18 H -1.82962 0.574041 1.71246 0
M  V30 19 H -1.98902 1.83106 0.44444 0
M  V30 20 H 2.99139 -2.25487 0.721784 0
M  V30 21 H 2.71138 -1.43114 2.29617 0
M  V30 22 H -0.237269 2.02546 -1.18983 0
M  V30 23 H 4.4924 0.781507 -0.252181 0
M  V30 24 H 4.05358 0.100178 -1.84518 0
M  V30 25 H 4.14915 -1.00039 -0.446124 0
M  V30 26 H -1.70935 -1.65029 0.945912 0
M  V30 27 H -1.74943 -1.89393 -0.781935 0
M  V30 END ATOM
M  V30 BEGIN BOND
M  V30 1 1 1 2
M  V30 2 1 2 3
M  V30 3 1 3 4
M  V30 4 2 4 5
M  V30 5 1 5 6
M  V30 6 1 6 7
M  V30 7 2 6 8
M  V30 8 1 8 9
M  V30 9 2 9 10
M  V30 10 1 9 11
M  V30 11 1 8 12
M  V30 12 1 2 13
M  V30 13 1 11 4
M  V30 14 1 1 14
M  V30 15 1 1 15
M  V30 16 1 1 16
M  V30 17 1 2 17
M  V30 18 1 3 18
M  V30 19 1 3 19
M  V30 20 1 7 20
M  V30 21 1 7 21
M  V30 22 1 11 22
M  V30 23 1 12 23
M  V30 24 1 12 24
M  V30 25 1 12 25
M  V30 26 1 13 26
M  V30 27 1 13 27
M  V30 END BOND
M  V30 END CTAB
M  END
