
     RDKit          3D

  0  0  0  0  0  0  0  0  0  0999 V3000
M  V30 BEGIN CTAB
M  V30 COUNTS 26 26 0 0 0
M  V30 BEGIN ATOM
M  V30 1 O -2.13278 -0.826888 -2.66155 0
M  V30 2 C -1.53998 -0.168289 -1.76251 0
M  V30 3 N -1.30889 1.22295 -1.66781 0
M  V30 4 C -0.668195 1.54212 -0.607601 0
M  V30 5 C -0.389075 0.326043 0.159756 0
M  V30 6 N -0.960176 -0.746006 -0.60769 0
M  V30 7 C -0.946959 -2.18103 -0.260693 0
M  V30 8 C -1.00827 0.388637 1.55832 0
M  V30 9 C 1.09094 0.113142 0.405285 0
M  V30 10 N 1.25665 -1.10967 1.16795 0
M  V30 11 C 1.87629 0.00113458 -0.867273 0
M  V30 12 N -0.271783 2.87501 -0.207482 0
M  V30 13 H 0.00904302 -2.60224 -0.572744 0
M  V30 14 H -1.80359 -2.70578 -0.750363 0
M  V30 15 H -1.05469 -2.32235 0.834017 0
M  V30 16 H -2.02809 0.788763 1.53105 0
M  V30 17 H -0.34849 1.02908 2.18828 0
M  V30 18 H -0.928927 -0.631038 1.97107 0
M  V30 19 H 1.47744 0.984586 0.971186 0
M  V30 20 H 1.91182 -1.75904 0.686181 0
M  V30 21 H 1.63891 -0.898514 2.12873 0
M  V30 22 H 1.94046 1.00766 -1.32323 0
M  V30 23 H 1.50248 -0.765936 -1.55761 0
M  V30 24 H 2.91115 -0.29121 -0.590202 0
M  V30 25 H 0.366775 3.39996 -0.830232 0
M  V30 26 H -0.592064 3.3289 0.665153 0
M  V30 END ATOM
M  V30 BEGIN BOND
M  V30 1 2 1 2
M  V30 2 1 2 3
M  V30 3 2 3 4
M  V30 4 1 4 5
M  V30 5 1 5 6
M  V30 6 1 6 7
M  V30 7 1 5 8
M  V30 8 1 5 9
M  V30 9 1 9 10
M  V30 10 1 9 11
M  V30 11 1 4 12
M  V30 12 1 6 2
M  V30 13 1 7 13
M  V30 14 1 7 14
M  V30 15 1 7 15
M  V30 16 1 8 16
M  V30 17 1 8 17
M  V30 18 1 8 18
M  V30 19 1 9 19
M  V30 20 1 10 20
M  V30 21 1 10 21
M  V30 22 1 11 22
M  V30 23 1 11 23
M  V30 24 1 11 24
M  V30 25 1 12 25
M  V30 26 1 12 26
M  V30 END BOND
M  V30 END CTAB
M  END
