
     RDKit          3D

  0  0  0  0  0  0  0  0  0  0999 V3000
M  V30 BEGIN CTAB
M  V30 COUNTS 36 37 0 0 0
M  V30 BEGIN ATOM
M  V30 1 C -4.73145 -1.61049 -1.42584 0
M  V30 2 C -3.80055 -0.739639 -0.603244 0
M  V30 3 C -4.24561 -0.451953 0.69997 0
M  V30 4 C -3.53186 0.469957 1.40202 0
M  V30 5 C -2.43723 1.12392 0.93637 0
M  V30 6 C -1.9957 0.837609 -0.333461 0
M  V30 7 C -2.69639 -0.108687 -1.09163 0
M  V30 8 C -0.989837 1.68012 -0.967032 0
M  V30 9 S 0.604892 0.834495 -1.29061 0
M  V30 10 C 1.41036 0.686098 0.370556 0
M  V30 11 C 2.73686 0.0307172 0.232455 0
M  V30 12 N 2.71372 -1.33733 0.130211 0
M  V30 13 C 3.85751 -2.00543 0.056226 0
M  V30 14 N 3.88406 -3.43345 0.00752942 0
M  V30 15 N 5.0525 -1.33361 0.0828946 0
M  V30 16 C 5.10934 0.0342279 0.183373 0
M  V30 17 N 3.88226 0.613951 0.2443 0
M  V30 18 N 6.32895 0.719902 0.199854 0
M  V30 19 C -1.70332 2.09928 1.75886 0
M  V30 20 H -4.94159 -2.58696 -1.01979 0
M  V30 21 H -4.38299 -1.61093 -2.46988 0
M  V30 22 H -5.70213 -0.97506 -1.479 0
M  V30 23 H -5.10116 -0.979649 1.0777 0
M  V30 24 H -3.87171 0.68687 2.44515 0
M  V30 25 H -2.36988 -0.3753 -2.09495 0
M  V30 26 H -1.39301 1.88081 -2.01747 0
M  V30 27 H -0.774707 2.6675 -0.59374 0
M  V30 28 H 0.745743 0.118312 0.998245 0
M  V30 29 H 1.61846 1.74509 0.741948 0
M  V30 30 H 4.15333 -4.00393 0.79613 0
M  V30 31 H 3.59629 -3.86271 -0.887097 0
M  V30 32 H 6.34781 1.78125 0.12372 0
M  V30 33 H 7.22446 0.211708 0.294898 0
M  V30 34 H -2.38943 2.50142 2.55856 0
M  V30 35 H -0.840847 1.68191 2.289 0
M  V30 36 H -1.36713 3.00999 1.23322 0
M  V30 END ATOM
M  V30 BEGIN BOND
M  V30 1 1 1 2
M  V30 2 2 2 3
M  V30 3 1 3 4
M  V30 4 2 4 5
M  V30 5 1 5 6
M  V30 6 2 6 7
M  V30 7 1 6 8
M  V30 8 1 8 9
M  V30 9 1 9 10
M  V30 10 1 10 11
M  V30 11 2 11 12
M  V30 12 1 12 13
M  V30 13 1 13 14
M  V30 14 2 13 15
M  V30 15 1 15 16
M  V30 16 2 16 17
M  V30 17 1 16 18
M  V30 18 1 5 19
M  V30 19 1 7 2
M  V30 20 1 17 11
M  V30 21 1 1 20
M  V30 22 1 1 21
M  V30 23 1 1 22
M  V30 24 1 3 23
M  V30 25 1 4 24
M  V30 26 1 7 25
M  V30 27 1 8 26
M  V30 28 1 8 27
M  V30 29 1 10 28
M  V30 30 1 10 29
M  V30 31 1 14 30
M  V30 32 1 14 31
M  V30 33 1 18 32
M  V30 34 1 18 33
M  V30 35 1 19 34
M  V30 36 1 19 35
M  V30 37 1 19 36
M  V30 END BOND
M  V30 END CTAB
M  END
