
     RDKit          3D

  0  0  0  0  0  0  0  0  0  0999 V3000
M  V30 BEGIN CTAB
M  V30 COUNTS 64 68 0 0 0
M  V30 BEGIN ATOM
M  V30 1 N 8.38763 4.0315 -0.272608 0
M  V30 2 C 7.46819 2.9498 -0.277592 0
M  V30 3 N 7.95361 1.70323 -0.480721 0
M  V30 4 C 7.10034 0.65665 -0.490064 0
M  V30 5 O 7.58719 -0.493212 -0.68211 0
M  V30 6 N 5.7762 0.806391 -0.303985 0
M  V30 7 C 5.26008 2.0106 -0.101706 0
M  V30 8 C 6.11718 3.10187 -0.0877503 0
M  V30 9 C 4.93909 -0.353165 -0.329095 0 CFG=2
M  V30 10 O 3.72264 -0.131643 -0.960278 0
M  V30 11 C 2.85608 -1.11755 -0.5695 0 CFG=2
M  V30 12 C 1.52007 -0.456811 -0.229853 0
M  V30 13 O 0.676983 -1.47066 0.154364 0
M  V30 14 P -0.874974 -0.929391 0.580679 0
M  V30 15 O -0.822033 0.719007 0.967117 0
M  V30 16 O -1.36081 -1.65354 1.80847 0
M  V30 17 O -1.85538 -1.11856 -0.752681 0
M  V30 18 C -3.05836 -1.70256 -0.538885 0 CFG=2
M  V30 19 C -3.32374 -2.93094 -1.3779 0 CFG=2
M  V30 20 O -2.75683 -2.81808 -2.63251 0
M  V30 21 C -4.83404 -2.86578 -1.4951 0 CFG=1
M  V30 22 C -5.48424 -3.67441 -0.377232 0
M  V30 23 O -5.12231 -5.01624 -0.457341 0
M  V30 24 O -5.23184 -1.56747 -1.35835 0
M  V30 25 C -4.13111 -0.783339 -1.07791 0 CFG=1
M  V30 26 N -4.37482 0.259327 -0.131282 0
M  V30 27 C -4.49325 0.087054 1.19414 0
M  V30 28 N -4.72281 1.27169 1.79942 0
M  V30 29 C -4.75766 2.23074 0.884576 0
M  V30 30 C -4.53724 1.59226 -0.342867 0
M  V30 31 N -4.51736 2.3107 -1.46866 0
M  V30 32 C -4.71202 3.65057 -1.39996 0
M  V30 33 N -4.92627 4.27721 -0.212068 0
M  V30 34 C -4.95423 3.59623 0.939935 0
M  V30 35 N -5.17991 4.2802 2.15925 0
M  V30 36 C 3.37344 -1.73949 0.696416 0 CFG=1
M  V30 37 O 3.87074 -3.00642 0.380235 0
M  V30 38 C 4.5093 -0.804681 1.0593 0 CFG=1
M  V30 39 O 5.53642 -1.46109 1.72098 0
M  V30 40 H 9.06174 4.12475 -1.03015 0
M  V30 41 H 8.35706 4.71464 0.509264 0
M  V30 42 H 4.19421 2.10585 0.0451704 0
M  V30 43 H 5.72181 4.10099 0.0753126 0
M  V30 44 H 5.43651 -1.21563 -0.798442 0
M  V30 45 H 2.73401 -1.87993 -1.35865 0
M  V30 46 H 1.09601 0.0621842 -1.12525 0
M  V30 47 H 1.64208 0.277163 0.564747 0
M  V30 48 H -1.06785 1.29168 0.198484 0
M  V30 49 H -3.27202 -1.9545 0.509066 0
M  V30 50 H -3.09651 -3.87743 -0.862938 0
M  V30 51 H -2.31197 -1.93556 -2.68401 0
M  V30 52 H -5.14377 -3.33654 -2.4541 0
M  V30 53 H -6.57504 -3.52052 -0.469298 0
M  V30 54 H -5.17809 -3.29 0.60673 0
M  V30 55 H -5.09666 -5.32167 -1.40107 0
M  V30 56 H -3.77653 -0.37959 -2.07174 0
M  V30 57 H -4.42526 -0.844127 1.76753 0
M  V30 58 H -4.69852 4.24071 -2.30432 0
M  V30 59 H -5.84531 3.9648 2.88757 0
M  V30 60 H -4.61772 5.16254 2.30126 0
M  V30 61 H 2.6098 -1.79064 1.49727 0
M  V30 62 H 3.43278 -3.39822 -0.428215 0
M  V30 63 H 4.07974 0.0266288 1.64034 0
M  V30 64 H 6.11558 -0.76758 2.1339 0
M  V30 END ATOM
M  V30 BEGIN BOND
M  V30 1 1 1 2
M  V30 2 2 2 3
M  V30 3 1 3 4
M  V30 4 2 4 5
M  V30 5 1 4 6
M  V30 6 1 6 7
M  V30 7 2 7 8
M  V30 8 1 6 9
M  V30 9 1 9 10
M  V30 10 1 10 11
M  V30 11 1 11 12
M  V30 12 1 12 13
M  V30 13 1 13 14
M  V30 14 1 14 15
M  V30 15 2 14 16
M  V30 16 1 14 17
M  V30 17 1 17 18
M  V30 18 1 18 19
M  V30 19 1 19 20
M  V30 20 1 19 21
M  V30 21 1 21 22
M  V30 22 1 22 23
M  V30 23 1 21 24
M  V30 24 1 24 25
M  V30 25 1 25 26
M  V30 26 1 26 27
M  V30 27 2 27 28
M  V30 28 1 28 29
M  V30 29 2 29 30
M  V30 30 1 30 31
M  V30 31 2 31 32
M  V30 32 1 32 33
M  V30 33 2 33 34
M  V30 34 1 34 35
M  V30 35 1 11 36
M  V30 36 1 36 37
M  V30 37 1 36 38
M  V30 38 1 38 39
M  V30 39 1 8 2
M  V30 40 1 38 9
M  V30 41 1 25 18
M  V30 42 1 30 26
M  V30 43 1 34 29
M  V30 44 1 1 40
M  V30 45 1 1 41
M  V30 46 1 7 42
M  V30 47 1 8 43
M  V30 48 1 9 44 CFG=3
M  V30 49 1 11 45 CFG=3
M  V30 50 1 12 46
M  V30 51 1 12 47
M  V30 52 1 15 48
M  V30 53 1 18 49 CFG=1
M  V30 54 1 19 50 CFG=1
M  V30 55 1 20 51
M  V30 56 1 21 52 CFG=3
M  V30 57 1 22 53
M  V30 58 1 22 54
M  V30 59 1 23 55
M  V30 60 1 25 56 CFG=3
M  V30 61 1 27 57
M  V30 62 1 32 58
M  V30 63 1 35 59
M  V30 64 1 35 60
M  V30 65 1 36 61 CFG=1
M  V30 66 1 37 62
M  V30 67 1 38 63 CFG=1
M  V30 68 1 39 64
M  V30 END BOND
M  V30 END CTAB
M  END
