
     RDKit          3D

  0  0  0  0  0  0  0  0  0  0999 V3000
M  V30 BEGIN CTAB
M  V30 COUNTS 38 39 0 0 0
M  V30 BEGIN ATOM
M  V30 1 N -5.94068 2.34365 0.117119 0
M  V30 2 S -5.32195 1.3579 -1.16791 0
M  V30 3 O -6.17928 0.14871 -1.34638 0
M  V30 4 O -5.23337 2.17022 -2.44347 0
M  V30 5 C -3.68936 0.853372 -0.787952 0
M  V30 6 C -3.42762 -0.295668 -0.108036 0
M  V30 7 C -2.14166 -0.685332 0.186816 0
M  V30 8 C -1.02084 0.0890653 -0.201465 0
M  V30 9 N 0.265116 -0.342523 0.123679 0
M  V30 10 C 1.53074 0.177525 -0.111501 0
M  V30 11 S 1.79421 1.57297 -0.863073 0
M  V30 12 N 2.66815 -0.543572 0.372625 0
M  V30 13 C 4.0245 -0.215472 0.231868 0
M  V30 14 C 4.59592 0.427683 -0.8329 0
M  V30 15 C 5.9473 0.744277 -0.874025 0
M  V30 16 C 6.78605 0.422643 0.163429 0
M  V30 17 C 6.21274 -0.225487 1.23493 0
M  V30 18 C 4.89075 -0.542077 1.29046 0
M  V30 19 C -1.29893 1.2382 -0.882533 0
M  V30 20 C -2.61532 1.6106 -1.16913 0
M  V30 21 S -1.93673 -2.1796 1.05249 0
M  V30 22 N -3.51023 -2.85604 1.39231 0
M  V30 23 O -1.09823 -3.1866 0.318269 0
M  V30 24 O -1.31798 -1.86363 2.38137 0
M  V30 25 H -6.21405 1.69034 0.889233 0
M  V30 26 H -5.20804 3.00044 0.470736 0
M  V30 27 H -4.28631 -0.902954 0.197729 0
M  V30 28 H 0.280123 -1.27508 0.676589 0
M  V30 29 H 2.48018 -1.45495 0.912486 0
M  V30 30 H 4.01124 0.687215 -1.68674 0
M  V30 31 H 6.35862 1.25064 -1.72769 0
M  V30 32 H 7.85157 0.668575 0.138639 0
M  V30 33 H 6.90948 -0.471101 2.05141 0
M  V30 34 H 4.4873 -1.0485 2.14762 0
M  V30 35 H -0.553196 1.92986 -1.2446 0
M  V30 36 H -2.80604 2.53069 -1.71268 0
M  V30 37 H -3.74073 -3.60876 0.703826 0
M  V30 38 H -3.55343 -3.21724 2.37143 0
M  V30 END ATOM
M  V30 BEGIN BOND
M  V30 1 1 1 2
M  V30 2 2 2 3
M  V30 3 2 2 4
M  V30 4 1 2 5
M  V30 5 2 5 6
M  V30 6 1 6 7
M  V30 7 2 7 8
M  V30 8 1 8 9
M  V30 9 1 9 10
M  V30 10 2 10 11
M  V30 11 1 10 12
M  V30 12 1 12 13
M  V30 13 2 13 14
M  V30 14 1 14 15
M  V30 15 2 15 16
M  V30 16 1 16 17
M  V30 17 2 17 18
M  V30 18 1 8 19
M  V30 19 2 19 20
M  V30 20 1 7 21
M  V30 21 1 21 22
M  V30 22 2 21 23
M  V30 23 2 21 24
M  V30 24 1 20 5
M  V30 25 1 18 13
M  V30 26 1 1 25
M  V30 27 1 1 26
M  V30 28 1 6 27
M  V30 29 1 9 28
M  V30 30 1 12 29
M  V30 31 1 14 30
M  V30 32 1 15 31
M  V30 33 1 16 32
M  V30 34 1 17 33
M  V30 35 1 18 34
M  V30 36 1 19 35
M  V30 37 1 20 36
M  V30 38 1 22 37
M  V30 39 1 22 38
M  V30 END BOND
M  V30 END CTAB
M  END
