
     RDKit          3D

  0  0  0  0  0  0  0  0  0  0999 V3000
M  V30 BEGIN CTAB
M  V30 COUNTS 27 27 0 0 0
M  V30 BEGIN ATOM
M  V30 1 N -1.86183 -1.31083 1.18896 0
M  V30 2 C -0.753111 -0.494009 0.816405 0
M  V30 3 C 0.437315 -1.2588 0.320583 0
M  V30 4 N 1.09225 -0.427589 -0.656022 0
M  V30 5 C 0.416739 0.854854 -0.652084 0
M  V30 6 C -1.00761 0.450493 -0.307309 0
M  V30 7 C -1.60381 -0.179098 -1.52031 0
M  V30 8 C -1.83966 1.61594 0.150677 0
M  V30 9 S 2.77775 -0.279189 -0.402244 0
M  V30 10 O 3.34716 0.538033 -1.52544 0
M  V30 11 O 3.37927 -1.65718 -0.494833 0
M  V30 12 N 3.15361 0.455174 1.12064 0
M  V30 13 H -2.17055 -1.20259 2.18027 0
M  V30 14 H -2.65111 -1.3067 0.514261 0
M  V30 15 H -0.451123 0.121537 1.70637 0
M  V30 16 H 1.11184 -1.561 1.1466 0
M  V30 17 H 0.0640917 -2.16387 -0.219276 0
M  V30 18 H 0.846226 1.56561 0.0602727 0
M  V30 19 H 0.414933 1.2699 -1.66311 0
M  V30 20 H -2.70773 0.0444671 -1.56834 0
M  V30 21 H -1.19804 0.241813 -2.48329 0
M  V30 22 H -1.48619 -1.27372 -1.56385 0
M  V30 23 H -2.90099 1.34417 -0.0402677 0
M  V30 24 H -1.57066 2.51773 -0.435568 0
M  V30 25 H -1.75836 1.77266 1.24428 0
M  V30 26 H 4.19597 0.437769 1.2042 0
M  V30 27 H 2.72361 -0.115574 1.87843 0
M  V30 END ATOM
M  V30 BEGIN BOND
M  V30 1 1 1 2
M  V30 2 1 2 3
M  V30 3 1 3 4
M  V30 4 1 4 5
M  V30 5 1 5 6
M  V30 6 1 6 7
M  V30 7 1 6 8
M  V30 8 1 4 9
M  V30 9 2 9 10
M  V30 10 2 9 11
M  V30 11 1 9 12
M  V30 12 1 6 2
M  V30 13 1 1 13
M  V30 14 1 1 14
M  V30 15 1 2 15
M  V30 16 1 3 16
M  V30 17 1 3 17
M  V30 18 1 5 18
M  V30 19 1 5 19
M  V30 20 1 7 20
M  V30 21 1 7 21
M  V30 22 1 7 22
M  V30 23 1 8 23
M  V30 24 1 8 24
M  V30 25 1 8 25
M  V30 26 1 12 26
M  V30 27 1 12 27
M  V30 END BOND
M  V30 END CTAB
M  END
