
     RDKit          3D

  0  0  0  0  0  0  0  0  0  0999 V3000
M  V30 BEGIN CTAB
M  V30 COUNTS 42 43 0 0 0
M  V30 BEGIN ATOM
M  V30 1 C 5.75312 0.601152 1.60673 0
M  V30 2 C 4.61474 0.697185 0.691136 0
M  V30 3 O 4.73161 1.40739 -0.344733 0
M  V30 4 N 3.37271 0.0394313 0.888665 0
M  V30 5 C 2.27085 0.157819 -0.0374753 0
M  V30 6 C 1.06979 -0.6574 0.434649 0
M  V30 7 C -0.0731126 -0.526842 -0.539118 0
M  V30 8 C -0.540061 0.845895 -0.71003 0
M  V30 9 C -0.909518 1.33289 -1.94368 0
M  V30 10 C -1.34717 2.63203 -2.06179 0
M  V30 11 C -1.4339 3.48334 -0.980738 0
M  V30 12 N -1.88445 4.82825 -1.08846 0
M  V30 13 C -1.05799 2.97488 0.2504 0
M  V30 14 C -0.619829 1.68099 0.381189 0
M  V30 15 C -1.10437 -1.49912 -0.191001 0
M  V30 16 C -1.47052 -1.84515 1.08384 0
M  V30 17 C -2.45242 -2.76884 1.35485 0
M  V30 18 C -3.12692 -3.40169 0.309486 0
M  V30 19 N -4.14776 -4.36196 0.542615 0
M  V30 20 C -2.76551 -3.0601 -0.978165 0
M  V30 21 C -1.77817 -2.13132 -1.23158 0
M  V30 22 H 6.06714 1.599 1.99454 0
M  V30 23 H 6.5971 0.0413054 1.15961 0
M  V30 24 H 5.41329 0.0186803 2.51044 0
M  V30 25 H 3.28145 -0.557501 1.76401 0
M  V30 26 H 1.97353 1.22491 -0.0381129 0
M  V30 27 H 2.57599 -0.125826 -1.05742 0
M  V30 28 H 1.42035 -1.70998 0.476801 0
M  V30 29 H 0.795374 -0.389721 1.47524 0
M  V30 30 H 0.365062 -0.833715 -1.53682 0
M  V30 31 H -0.872515 0.735426 -2.8405 0
M  V30 32 H -1.64753 3.04706 -3.02906 0
M  V30 33 H -1.21685 5.64569 -1.05202 0
M  V30 34 H -2.90059 5.06023 -1.20864 0
M  V30 35 H -1.12465 3.64153 1.10426 0
M  V30 36 H -0.339972 1.35395 1.3935 0
M  V30 37 H -0.947306 -1.35388 1.89075 0
M  V30 38 H -2.7103 -3.01271 2.36742 0
M  V30 39 H -4.7099 -4.23537 1.42301 0
M  V30 40 H -4.30785 -5.13585 -0.136024 0
M  V30 41 H -3.26611 -3.5297 -1.81826 0
M  V30 42 H -1.54681 -1.91235 -2.27948 0
M  V30 END ATOM
M  V30 BEGIN BOND
M  V30 1 1 1 2
M  V30 2 2 2 3
M  V30 3 1 2 4
M  V30 4 1 4 5
M  V30 5 1 5 6
M  V30 6 1 6 7
M  V30 7 1 7 8
M  V30 8 2 8 9
M  V30 9 1 9 10
M  V30 10 2 10 11
M  V30 11 1 11 12
M  V30 12 1 11 13
M  V30 13 2 13 14
M  V30 14 1 7 15
M  V30 15 2 15 16
M  V30 16 1 16 17
M  V30 17 2 17 18
M  V30 18 1 18 19
M  V30 19 1 18 20
M  V30 20 2 20 21
M  V30 21 1 14 8
M  V30 22 1 21 15
M  V30 23 1 1 22
M  V30 24 1 1 23
M  V30 25 1 1 24
M  V30 26 1 4 25
M  V30 27 1 5 26
M  V30 28 1 5 27
M  V30 29 1 6 28
M  V30 30 1 6 29
M  V30 31 1 7 30
M  V30 32 1 9 31
M  V30 33 1 10 32
M  V30 34 1 12 33
M  V30 35 1 12 34
M  V30 36 1 13 35
M  V30 37 1 14 36
M  V30 38 1 16 37
M  V30 39 1 17 38
M  V30 40 1 19 39
M  V30 41 1 19 40
M  V30 42 1 20 41
M  V30 43 1 21 42
M  V30 END BOND
M  V30 END CTAB
M  END
