
     RDKit          3D

  0  0  0  0  0  0  0  0  0  0999 V3000
M  V30 BEGIN CTAB
M  V30 COUNTS 20 20 0 0 0
M  V30 BEGIN ATOM
M  V30 1 C 4.04071 -0.460262 -0.28073 0
M  V30 2 C 2.83949 -0.49095 -0.225904 0
M  V30 3 C 1.40705 -0.524973 -0.138353 0
M  V30 4 C 0.763144 -1.73532 -0.130993 0
M  V30 5 C -0.607988 -1.82551 -0.0487627 0
M  V30 6 C -1.3325 -0.663909 0.0270473 0
M  V30 7 C -0.721723 0.549736 0.0218218 0
M  V30 8 C 0.657448 0.611141 -0.0616721 0
M  V30 9 N 1.33878 1.87947 -0.0697614 0
M  V30 10 N -1.48508 1.74544 0.100937 0
M  V30 11 C -2.78277 -0.708148 0.115379 0
M  V30 12 C -3.98446 -0.749209 0.205879 0
M  V30 13 H 5.10953 -0.43875 -0.312335 0
M  V30 14 H 1.31469 -2.65744 -0.189715 0
M  V30 15 H -1.13586 -2.77954 -0.0417054 0
M  V30 16 H 1.11952 2.49242 -0.889051 0
M  V30 17 H 1.99193 2.13714 0.693706 0
M  V30 18 H -1.05648 2.62093 -0.266248 0
M  V30 19 H -2.42906 1.78347 0.499384 0
M  V30 20 H -5.04637 -0.785759 0.294226 0
M  V30 END ATOM
M  V30 BEGIN BOND
M  V30 1 3 1 2
M  V30 2 1 2 3
M  V30 3 2 3 4
M  V30 4 1 4 5
M  V30 5 2 5 6
M  V30 6 1 6 7
M  V30 7 2 7 8
M  V30 8 1 8 9
M  V30 9 1 7 10
M  V30 10 1 6 11
M  V30 11 3 11 12
M  V30 12 1 8 3
M  V30 13 1 1 13
M  V30 14 1 4 14
M  V30 15 1 5 15
M  V30 16 1 9 16
M  V30 17 1 9 17
M  V30 18 1 10 18
M  V30 19 1 10 19
M  V30 20 1 12 20
M  V30 END BOND
M  V30 END CTAB
M  END
