
     RDKit          3D

  0  0  0  0  0  0  0  0  0  0999 V3000
M  V30 BEGIN CTAB
M  V30 COUNTS 19 18 0 0 0
M  V30 BEGIN ATOM
M  V30 1 N 2.34694 0.539588 0.716112 0
M  V30 2 C 1.98654 -0.476637 -0.163824 0
M  V30 3 C 0.617159 -1.02318 0.175842 0
M  V30 4 C -0.386523 0.11052 0.0721449 0 CFG=1
M  V30 5 C -1.79063 -0.386456 0.404526 0
M  V30 6 N -2.70824 0.709359 0.325226 0
M  V30 7 O -0.0518101 1.09181 0.998772 0
M  V30 8 H 3.02373 0.357651 1.42827 0
M  V30 9 H 2.29311 1.4615 0.335086 0
M  V30 10 H 2.75752 -1.28562 -0.160738 0
M  V30 11 H 1.95535 -0.0752095 -1.20338 0
M  V30 12 H 0.664747 -1.40311 1.21031 0
M  V30 13 H 0.374855 -1.86268 -0.478023 0
M  V30 14 H -0.425493 0.513622 -0.957229 0
M  V30 15 H -2.10625 -1.1376 -0.366396 0
M  V30 16 H -1.77055 -0.888182 1.38765 0
M  V30 17 H -3.6976 0.417439 0.175803 0
M  V30 18 H -2.39682 1.48223 -0.285823 0
M  V30 19 H -0.686025 1.85495 0.914175 0
M  V30 END ATOM
M  V30 BEGIN BOND
M  V30 1 1 1 2
M  V30 2 1 2 3
M  V30 3 1 3 4
M  V30 4 1 4 5
M  V30 5 1 5 6
M  V30 6 1 4 7
M  V30 7 1 1 8
M  V30 8 1 1 9
M  V30 9 1 2 10
M  V30 10 1 2 11
M  V30 11 1 3 12
M  V30 12 1 3 13
M  V30 13 1 4 14 CFG=3
M  V30 14 1 5 15
M  V30 15 1 5 16
M  V30 16 1 6 17
M  V30 17 1 6 18
M  V30 18 1 7 19
M  V30 END BOND
M  V30 END CTAB
M  END
