
     RDKit          3D

  0  0  0  0  0  0  0  0  0  0999 V3000
M  V30 BEGIN CTAB
M  V30 COUNTS 17 17 0 0 0
M  V30 BEGIN ATOM
M  V30 1 C -2.44959 -0.799262 0.222654 0
M  V30 2 C -1.1112 -1.17589 0.695959 0
M  V30 3 O -0.974398 -2.19885 1.41111 0
M  V30 4 N 0.0407732 -0.413118 0.367165 0
M  V30 5 N 1.30039 -0.676827 0.750934 0
M  V30 6 C 2.14274 0.244103 0.264673 0
M  V30 7 N 3.57256 0.290909 0.465909 0
M  V30 8 N 1.40495 1.10639 -0.43933 0
M  V30 9 C 0.103859 0.69263 -0.371186 0
M  V30 10 N -1.01228 1.32616 -0.98189 0
M  V30 11 H -3.19013 -1.5551 0.568378 0
M  V30 12 H -2.69616 0.216855 0.592842 0
M  V30 13 H -2.50686 -0.746724 -0.894301 0
M  V30 14 H 4.21824 -0.117808 -0.244998 0
M  V30 15 H 3.99445 0.723138 1.30575 0
M  V30 16 H -1.26104 1.012 -1.95204 0
M  V30 17 H -1.57629 2.0714 -0.511887 0
M  V30 END ATOM
M  V30 BEGIN BOND
M  V30 1 1 1 2
M  V30 2 2 2 3
M  V30 3 1 2 4
M  V30 4 1 4 5
M  V30 5 2 5 6
M  V30 6 1 6 7
M  V30 7 1 6 8
M  V30 8 2 8 9
M  V30 9 1 9 10
M  V30 10 1 9 4
M  V30 11 1 1 11
M  V30 12 1 1 12
M  V30 13 1 1 13
M  V30 14 1 7 14
M  V30 15 1 7 15
M  V30 16 1 10 16
M  V30 17 1 10 17
M  V30 END BOND
M  V30 END CTAB
M  END
