
     RDKit          3D

  0  0  0  0  0  0  0  0  0  0999 V3000
M  V30 BEGIN CTAB
M  V30 COUNTS 48 49 0 0 0
M  V30 BEGIN ATOM
M  V30 1 C -4.13943 1.88133 1.42235 0
M  V30 2 O -3.61685 0.682369 0.958881 0
M  V30 3 C -2.37918 0.467883 0.388435 0
M  V30 4 C -2.10394 -0.827914 0.0105723 0
M  V30 5 C -0.88483 -1.0518 -0.550038 0
M  V30 6 C 0.0761349 -0.0178855 -0.747353 0
M  V30 7 O 1.26557 -0.383211 -1.32323 0
M  V30 8 C 2.43715 -0.696845 -0.678254 0
M  V30 9 C 2.57555 -0.831266 0.703776 0
M  V30 10 N 3.75839 -1.13617 1.23064 0
M  V30 11 C 4.87485 -1.33347 0.507106 0
M  V30 12 N 6.11021 -1.65378 1.13508 0
M  V30 13 N 4.75586 -1.20777 -0.826249 0
M  V30 14 C 3.58983 -0.90098 -1.42242 0
M  V30 15 N 3.54267 -0.78221 -2.84574 0
M  V30 16 C -0.19115 1.26817 -0.381138 0
M  V30 17 C -1.46858 1.47129 0.202994 0
M  V30 18 C 0.570602 2.4819 -0.648911 0
M  V30 19 C 0.0226617 3.61856 0.235447 0
M  V30 20 C 2.02321 2.55354 -0.579224 0
M  V30 21 C -3.04455 -1.93694 0.189724 0
M  V30 22 C -2.4616 -3.18841 -0.422712 0
M  V30 23 C -3.38857 -2.24033 1.61097 0
M  V30 24 O -4.25408 -1.70673 -0.505616 0
M  V30 25 H -4.24479 1.91102 2.53076 0
M  V30 26 H -5.18678 1.94881 1.01344 0
M  V30 27 H -3.6388 2.79564 1.11059 0
M  V30 28 H -0.584517 -2.05818 -0.883804 0
M  V30 29 H 1.67503 -0.672849 1.27103 0
M  V30 30 H 6.75795 -2.3916 0.779328 0
M  V30 31 H 6.38957 -1.12033 2.00456 0
M  V30 32 H 3.3988 0.170808 -3.24896 0
M  V30 33 H 3.64563 -1.5894 -3.46783 0
M  V30 34 H -1.72978 2.4779 0.511172 0
M  V30 35 H 0.285784 2.86938 -1.71258 0
M  V30 36 H 0.842367 4.40053 0.251015 0
M  V30 37 H -0.838273 4.11068 -0.217259 0
M  V30 38 H -0.0791745 3.27472 1.26347 0
M  V30 39 H 2.53724 2.22003 0.320394 0
M  V30 40 H 2.27563 3.68361 -0.597781 0
M  V30 41 H 2.47736 2.21088 -1.54676 0
M  V30 42 H -3.24115 -4.00411 -0.328161 0
M  V30 43 H -1.56946 -3.51321 0.111894 0
M  V30 44 H -2.27529 -3.0056 -1.4978 0
M  V30 45 H -2.50252 -2.37126 2.24965 0
M  V30 46 H -3.89178 -3.25387 1.60045 0
M  V30 47 H -4.15264 -1.56131 2.0479 0
M  V30 48 H -4.02033 -1.06166 -1.2298 0
M  V30 END ATOM
M  V30 BEGIN BOND
M  V30 1 1 1 2
M  V30 2 1 2 3
M  V30 3 2 3 4
M  V30 4 1 4 5
M  V30 5 2 5 6
M  V30 6 1 6 7
M  V30 7 1 7 8
M  V30 8 2 8 9
M  V30 9 1 9 10
M  V30 10 2 10 11
M  V30 11 1 11 12
M  V30 12 1 11 13
M  V30 13 2 13 14
M  V30 14 1 14 15
M  V30 15 1 6 16
M  V30 16 2 16 17
M  V30 17 1 16 18
M  V30 18 1 18 19
M  V30 19 1 18 20
M  V30 20 1 4 21
M  V30 21 1 21 22
M  V30 22 1 21 23
M  V30 23 1 21 24
M  V30 24 1 17 3
M  V30 25 1 14 8
M  V30 26 1 1 25
M  V30 27 1 1 26
M  V30 28 1 1 27
M  V30 29 1 5 28
M  V30 30 1 9 29
M  V30 31 1 12 30
M  V30 32 1 12 31
M  V30 33 1 15 32
M  V30 34 1 15 33
M  V30 35 1 17 34
M  V30 36 1 18 35
M  V30 37 1 19 36
M  V30 38 1 19 37
M  V30 39 1 19 38
M  V30 40 1 20 39
M  V30 41 1 20 40
M  V30 42 1 20 41
M  V30 43 1 22 42
M  V30 44 1 22 43
M  V30 45 1 22 44
M  V30 46 1 23 45
M  V30 47 1 23 46
M  V30 48 1 23 47
M  V30 49 1 24 48
M  V30 END BOND
M  V30 END CTAB
M  END
