
     RDKit          3D

  0  0  0  0  0  0  0  0  0  0999 V3000
M  V30 BEGIN CTAB
M  V30 COUNTS 37 39 0 0 0
M  V30 BEGIN ATOM
M  V30 1 N 5.55412 -0.559267 -0.95023 0
M  V30 2 C 4.47202 -0.0520906 -1.76395 0
M  V30 3 C 3.45956 0.510813 -0.836046 0
M  V30 4 N 3.59836 1.79895 -0.477799 0
M  V30 5 C 2.69454 2.31768 0.357322 0
M  V30 6 C 1.64222 1.58155 0.853054 0
M  V30 7 C 1.47826 0.237686 0.49312 0
M  V30 8 C 2.41851 -0.283003 -0.368867 0
M  V30 9 C 0.372384 -0.504363 1.05269 0
M  V30 10 O 0.695039 -1.27786 2.03531 0
M  V30 11 N -0.984248 -0.469972 0.649642 0
M  V30 12 C -1.59479 0.157251 -0.363965 0
M  V30 13 C -1.09515 0.936677 -1.3966 0
M  V30 14 C -1.94236 1.469 -2.33886 0
M  V30 15 C -3.29871 1.25451 -2.29913 0
M  V30 16 C -3.83606 0.477513 -1.27942 0
M  V30 17 C -2.97667 -0.0552544 -0.333908 0
M  V30 18 C -3.2086 -0.855298 0.755665 0
M  V30 19 C -1.98966 -1.09083 1.33082 0
M  V30 20 C -1.81012 -1.92606 2.55018 0
M  V30 21 N -4.47224 -1.35468 1.21555 0
M  V30 22 H 6.23079 -1.14474 -1.44848 0
M  V30 23 H 5.27864 -0.859798 -0.011908 0
M  V30 24 H 4.85951 0.757546 -2.39497 0
M  V30 25 H 4.05443 -0.822532 -2.4413 0
M  V30 26 H 2.80979 3.36968 0.648319 0
M  V30 27 H 0.94127 2.06585 1.52952 0
M  V30 28 H 2.31989 -1.33278 -0.671545 0
M  V30 29 H -0.05404 1.13722 -1.51003 0
M  V30 30 H -1.52846 2.06879 -3.1264 0
M  V30 31 H -3.95971 1.67067 -3.03511 0
M  V30 32 H -4.91075 0.289004 -1.22122 0
M  V30 33 H -1.35435 -1.32031 3.33591 0
M  V30 34 H -2.79404 -2.31749 2.90071 0
M  V30 35 H -1.1687 -2.80497 2.32328 0
M  V30 36 H -5.05215 -2.02989 0.673712 0
M  V30 37 H -4.84854 -1.0392 2.13592 0
M  V30 END ATOM
M  V30 BEGIN BOND
M  V30 1 1 1 2
M  V30 2 1 2 3
M  V30 3 2 3 4
M  V30 4 1 4 5
M  V30 5 2 5 6
M  V30 6 1 6 7
M  V30 7 2 7 8
M  V30 8 1 7 9
M  V30 9 2 9 10
M  V30 10 1 9 11
M  V30 11 1 11 12
M  V30 12 2 12 13
M  V30 13 1 13 14
M  V30 14 2 14 15
M  V30 15 1 15 16
M  V30 16 2 16 17
M  V30 17 1 17 18
M  V30 18 2 18 19
M  V30 19 1 19 20
M  V30 20 1 18 21
M  V30 21 1 8 3
M  V30 22 1 19 11
M  V30 23 1 17 12
M  V30 24 1 1 22
M  V30 25 1 1 23
M  V30 26 1 2 24
M  V30 27 1 2 25
M  V30 28 1 5 26
M  V30 29 1 6 27
M  V30 30 1 8 28
M  V30 31 1 13 29
M  V30 32 1 14 30
M  V30 33 1 15 31
M  V30 34 1 16 32
M  V30 35 1 20 33
M  V30 36 1 20 34
M  V30 37 1 20 35
M  V30 38 1 21 36
M  V30 39 1 21 37
M  V30 END BOND
M  V30 END CTAB
M  END
