
     RDKit          3D

  0  0  0  0  0  0  0  0  0  0999 V3000
M  V30 BEGIN CTAB
M  V30 COUNTS 51 53 0 0 0
M  V30 BEGIN ATOM
M  V30 1 N 6.82011 -0.706906 0.74793 0
M  V30 2 C 5.91028 -0.528457 1.84403 0
M  V30 3 C 4.50307 -0.436838 1.23294 0
M  V30 4 C 4.51723 0.731024 0.317525 0
M  V30 5 C 3.27741 1.09639 -0.390672 0
M  V30 6 C 2.65069 0.115067 -1.30948 0 CFG=2
M  V30 7 C 1.43916 0.805378 -1.88844 0
M  V30 8 O 1.68252 1.92279 -2.40302 0
M  V30 9 N 0.135511 0.307198 -1.88832 0
M  V30 10 C -1.00105 1.02431 -2.46152 0
M  V30 11 C -2.21716 0.43894 -1.68231 0 CFG=1
M  V30 12 C -1.80342 -1.01952 -1.755 0 CFG=1
M  V30 13 C -0.326808 -0.941585 -1.35742 0
M  V30 14 O -2.40869 -1.86746 -0.883949 0
M  V30 15 C -2.11704 1.03747 -0.328021 0
M  V30 16 C -3.19854 0.700313 0.620917 0
M  V30 17 N -3.0303 1.01906 1.94289 0
M  V30 18 C -3.99724 0.768642 2.84148 0
M  V30 19 C -5.1957 0.185726 2.49088 0
M  V30 20 N -5.38775 -0.137233 1.19884 0
M  V30 21 C -4.40038 0.121186 0.293491 0
M  V30 22 C -6.61019 -0.681088 1.1142 0
M  V30 23 C -7.20739 -0.709582 2.34993 0
M  V30 24 N -6.28637 -0.155072 3.19302 0
M  V30 25 N 2.30664 -1.1179 -0.708588 0
M  V30 26 H 6.39493 -1.27669 0.0246698 0
M  V30 27 H 7.25965 0.169697 0.47191 0
M  V30 28 H 5.95052 -1.45584 2.46029 0
M  V30 29 H 6.14298 0.359733 2.45511 0
M  V30 30 H 4.39139 -1.41502 0.712782 0
M  V30 31 H 3.79694 -0.271176 2.04954 0
M  V30 32 H 4.78173 1.628 0.968371 0
M  V30 33 H 5.40866 0.69461 -0.383283 0
M  V30 34 H 2.52326 1.39294 0.388255 0
M  V30 35 H 3.48905 2.0628 -0.937889 0
M  V30 36 H 3.35264 -0.105767 -2.16332 0
M  V30 37 H -1.13458 0.79858 -3.53244 0
M  V30 38 H -0.920575 2.10932 -2.26515 0
M  V30 39 H -3.10301 0.685629 -2.26097 0
M  V30 40 H -1.86404 -1.30689 -2.82328 0
M  V30 41 H -0.222073 -1.05733 -0.264483 0
M  V30 42 H 0.130301 -1.83564 -1.83253 0
M  V30 43 H -2.5026 -2.76856 -1.27479 0
M  V30 44 H -1.11123 0.730526 0.0876017 0
M  V30 45 H -2.057 2.15456 -0.35539 0
M  V30 46 H -3.85746 1.02657 3.9029 0
M  V30 47 H -4.59085 -0.129703 -0.731014 0
M  V30 48 H -7.05867 -1.04283 0.209829 0
M  V30 49 H -8.18673 -1.0787 2.64058 0
M  V30 50 H 2.83597 -1.95754 -0.97592 0
M  V30 51 H 2.09621 -1.12265 0.297275 0
M  V30 END ATOM
M  V30 BEGIN BOND
M  V30 1 1 1 2
M  V30 2 1 2 3
M  V30 3 1 3 4
M  V30 4 1 4 5
M  V30 5 1 5 6
M  V30 6 1 6 7
M  V30 7 2 7 8
M  V30 8 1 7 9
M  V30 9 1 9 10
M  V30 10 1 10 11
M  V30 11 1 11 12
M  V30 12 1 12 13
M  V30 13 1 12 14
M  V30 14 1 11 15
M  V30 15 1 15 16
M  V30 16 1 16 17
M  V30 17 2 17 18
M  V30 18 1 18 19
M  V30 19 1 19 20
M  V30 20 1 20 21
M  V30 21 1 20 22
M  V30 22 2 22 23
M  V30 23 1 23 24
M  V30 24 1 6 25
M  V30 25 1 13 9
M  V30 26 2 21 16
M  V30 27 2 24 19
M  V30 28 1 1 26
M  V30 29 1 1 27
M  V30 30 1 2 28
M  V30 31 1 2 29
M  V30 32 1 3 30
M  V30 33 1 3 31
M  V30 34 1 4 32
M  V30 35 1 4 33
M  V30 36 1 5 34
M  V30 37 1 5 35
M  V30 38 1 6 36 CFG=3
M  V30 39 1 10 37
M  V30 40 1 10 38
M  V30 41 1 11 39 CFG=3
M  V30 42 1 12 40 CFG=3
M  V30 43 1 13 41
M  V30 44 1 13 42
M  V30 45 1 14 43
M  V30 46 1 15 44
M  V30 47 1 15 45
M  V30 48 1 18 46
M  V30 49 1 21 47
M  V30 50 1 22 48
M  V30 51 1 23 49
M  V30 52 1 25 50
M  V30 53 1 25 51
M  V30 END BOND
M  V30 END CTAB
M  END
