
     RDKit          3D

  0  0  0  0  0  0  0  0  0  0999 V3000
M  V30 BEGIN CTAB
M  V30 COUNTS 57 61 0 0 0
M  V30 BEGIN ATOM
M  V30 1 C -6.56401 1.02906 1.67542 0
M  V30 2 C -6.04075 1.54088 0.31519 0
M  V30 3 C -7.22827 2.2804 -0.280563 0
M  V30 4 N -4.99224 2.47848 0.58986 0
M  V30 5 C -5.59375 0.431387 -0.511055 0
M  V30 6 O -6.52082 -0.397326 -0.869978 0
M  V30 7 N -4.29693 0.165976 -0.952371 0
M  V30 8 C -4.10871 -1.02615 -1.80457 0
M  V30 9 C -2.99549 -1.87687 -1.22799 0
M  V30 10 N -1.79264 -1.08945 -1.03467 0
M  V30 11 C -1.86729 0.315895 -1.28108 0
M  V30 12 C -3.12604 0.92541 -0.660616 0
M  V30 13 C -0.606055 -1.73506 -0.613654 0
M  V30 14 C -0.564325 -3.1192 -0.423147 0
M  V30 15 C 0.561139 -3.78834 -0.0119831 0
M  V30 16 C 1.70092 -3.04994 0.22203 0
M  V30 17 N 2.85454 -3.59826 0.627143 0
M  V30 18 C 3.95902 -2.86836 0.853382 0
M  V30 19 C 3.97889 -1.48831 0.681272 0
M  V30 20 C 2.80599 -0.901096 0.26538 0
M  V30 21 C 1.66576 -1.68417 0.0356909 0
M  V30 22 N 0.53758 -1.07113 -0.369174 0
M  V30 23 C 5.1855 -0.722174 0.933676 0
M  V30 24 C 5.41298 0.41846 0.199082 0
M  V30 25 C 6.55824 1.18599 0.407063 0
M  V30 26 C 7.47879 0.808222 1.35527 0
M  V30 27 O 8.45255 1.68487 1.35622 0
M  V30 28 C 8.21758 2.60947 0.463942 0
M  V30 29 N 9.06262 3.7162 0.193129 0
M  V30 30 N 7.03985 2.31355 -0.137367 0
M  V30 31 C 7.26681 -0.331886 2.10039 0
M  V30 32 C 6.12098 -1.07644 1.87401 0
M  V30 33 H -6.55884 1.89311 2.34956 0
M  V30 34 H -5.85164 0.244939 2.00521 0
M  V30 35 H -7.54203 0.583354 1.48638 0
M  V30 36 H -7.13643 2.465 -1.3502 0
M  V30 37 H -7.33058 3.22105 0.277969 0
M  V30 38 H -8.17836 1.71281 -0.118139 0
M  V30 39 H -5.05774 3.25158 -0.139036 0
M  V30 40 H -5.16034 2.90159 1.52702 0
M  V30 41 H -5.01467 -1.66469 -1.80621 0
M  V30 42 H -3.80738 -0.689282 -2.8021 0
M  V30 43 H -2.74409 -2.63009 -2.02264 0
M  V30 44 H -3.2883 -2.41403 -0.308686 0
M  V30 45 H -1.00189 0.852517 -0.892375 0
M  V30 46 H -1.94385 0.461832 -2.37475 0
M  V30 47 H -2.94117 1.08213 0.441886 0
M  V30 48 H -3.21884 1.93283 -1.10794 0
M  V30 49 H -1.48455 -3.66357 -0.618783 0
M  V30 50 H 0.589323 -4.85322 0.133257 0
M  V30 51 H 4.88548 -3.33314 1.18221 0
M  V30 52 H 2.80118 0.168706 0.126077 0
M  V30 53 H 4.72743 0.743756 -0.541662 0
M  V30 54 H 10.0868 3.60806 0.284775 0
M  V30 55 H 8.61651 4.6115 -0.0923959 0
M  V30 56 H 8.01322 -0.603089 2.84188 0
M  V30 57 H 5.97838 -1.96374 2.47014 0
M  V30 END ATOM
M  V30 BEGIN BOND
M  V30 1 1 1 2
M  V30 2 1 2 3
M  V30 3 1 2 4
M  V30 4 1 2 5
M  V30 5 2 5 6
M  V30 6 1 5 7
M  V30 7 1 7 8
M  V30 8 1 8 9
M  V30 9 1 9 10
M  V30 10 1 10 11
M  V30 11 1 11 12
M  V30 12 1 10 13
M  V30 13 2 13 14
M  V30 14 1 14 15
M  V30 15 2 15 16
M  V30 16 1 16 17
M  V30 17 2 17 18
M  V30 18 1 18 19
M  V30 19 2 19 20
M  V30 20 1 20 21
M  V30 21 2 21 22
M  V30 22 1 19 23
M  V30 23 2 23 24
M  V30 24 1 24 25
M  V30 25 2 25 26
M  V30 26 1 26 27
M  V30 27 1 27 28
M  V30 28 1 28 29
M  V30 29 2 28 30
M  V30 30 1 26 31
M  V30 31 2 31 32
M  V30 32 1 12 7
M  V30 33 1 22 13
M  V30 34 1 32 23
M  V30 35 1 21 16
M  V30 36 1 30 25
M  V30 37 1 1 33
M  V30 38 1 1 34
M  V30 39 1 1 35
M  V30 40 1 3 36
M  V30 41 1 3 37
M  V30 42 1 3 38
M  V30 43 1 4 39
M  V30 44 1 4 40
M  V30 45 1 8 41
M  V30 46 1 8 42
M  V30 47 1 9 43
M  V30 48 1 9 44
M  V30 49 1 11 45
M  V30 50 1 11 46
M  V30 51 1 12 47
M  V30 52 1 12 48
M  V30 53 1 14 49
M  V30 54 1 15 50
M  V30 55 1 18 51
M  V30 56 1 20 52
M  V30 57 1 24 53
M  V30 58 1 29 54
M  V30 59 1 29 55
M  V30 60 1 31 56
M  V30 61 1 32 57
M  V30 END BOND
M  V30 END CTAB
M  END
