
     RDKit          3D

  0  0  0  0  0  0  0  0  0  0999 V3000
M  V30 BEGIN CTAB
M  V30 COUNTS 49 51 0 0 0
M  V30 BEGIN ATOM
M  V30 1 N -4.21996 2.18322 -0.983918 0
M  V30 2 C -3.64686 0.883745 -1.21714 0
M  V30 3 C -2.46854 0.633182 -0.281637 0
M  V30 4 C -2.91692 0.70203 1.15379 0
M  V30 5 C -3.12926 -0.641945 1.78884 0
M  V30 6 C -3.71295 -1.67472 0.850318 0
M  V30 7 C -2.88697 -1.78323 -0.39364 0
M  V30 8 N -1.92054 -0.685925 -0.490833 0
M  V30 9 C -0.582719 -1.0076 -0.759129 0
M  V30 10 O -0.311673 -2.24725 -0.950255 0
M  V30 11 C 0.538004 0.000345429 -0.831202 0
M  V30 12 C 1.66935 -0.68524 -1.53452 0
M  V30 13 C 3.0403 -0.293953 -1.09684 0
M  V30 14 C 3.52422 -1.31101 -0.0872434 0
M  V30 15 C 4.0366 -0.672459 1.17161 0
M  V30 16 C 2.97922 0.194058 1.76834 0
M  V30 17 C 2.23287 1.02751 0.748297 0
M  V30 18 C 0.858026 0.459046 0.551369 0
M  V30 19 C 2.97466 1.09985 -0.557327 0
M  V30 20 N 4.22054 1.77539 -0.473104 0
M  V30 21 H -4.43038 2.70606 -1.84289 0
M  V30 22 H -3.63307 2.69508 -0.291688 0
M  V30 23 H -3.24113 0.830844 -2.26737 0
M  V30 24 H -4.44512 0.132611 -1.05228 0
M  V30 25 H -1.76776 1.4602 -0.467414 0
M  V30 26 H -3.83498 1.33348 1.21958 0
M  V30 27 H -2.1427 1.26303 1.73485 0
M  V30 28 H -3.72031 -0.502237 2.69452 0
M  V30 29 H -2.12254 -1.00385 2.11896 0
M  V30 30 H -3.66732 -2.64304 1.38871 0
M  V30 31 H -4.79383 -1.49565 0.665645 0
M  V30 32 H -3.54526 -1.68879 -1.26703 0
M  V30 33 H -2.39038 -2.75579 -0.423977 0
M  V30 34 H 0.165106 0.825334 -1.45468 0
M  V30 35 H 1.60421 -0.487031 -2.64449 0
M  V30 36 H 1.60147 -1.81166 -1.46825 0
M  V30 37 H 3.74192 -0.343968 -1.95437 0
M  V30 38 H 4.30625 -1.9798 -0.509875 0
M  V30 39 H 2.69289 -2.00262 0.22227 0
M  V30 40 H 4.24503 -1.52356 1.88474 0
M  V30 41 H 5.017 -0.173352 1.0382 0
M  V30 42 H 3.45609 0.811492 2.56141 0
M  V30 43 H 2.25765 -0.489042 2.30363 0
M  V30 44 H 2.22448 2.07263 1.15957 0
M  V30 45 H 0.156698 1.26532 0.831048 0
M  V30 46 H 0.668112 -0.371596 1.28685 0
M  V30 47 H 2.31873 1.68973 -1.25708 0
M  V30 48 H 4.83983 1.42085 -1.26025 0
M  V30 49 H 4.16194 2.81028 -0.624091 0
M  V30 END ATOM
M  V30 BEGIN BOND
M  V30 1 1 1 2
M  V30 2 1 2 3
M  V30 3 1 3 4
M  V30 4 1 4 5
M  V30 5 1 5 6
M  V30 6 1 6 7
M  V30 7 1 7 8
M  V30 8 1 8 9
M  V30 9 2 9 10
M  V30 10 1 9 11
M  V30 11 1 11 12
M  V30 12 1 12 13
M  V30 13 1 13 14
M  V30 14 1 14 15
M  V30 15 1 15 16
M  V30 16 1 16 17
M  V30 17 1 17 18
M  V30 18 1 17 19
M  V30 19 1 19 20
M  V30 20 1 8 3
M  V30 21 1 18 11
M  V30 22 1 19 13
M  V30 23 1 1 21
M  V30 24 1 1 22
M  V30 25 1 2 23
M  V30 26 1 2 24
M  V30 27 1 3 25
M  V30 28 1 4 26
M  V30 29 1 4 27
M  V30 30 1 5 28
M  V30 31 1 5 29
M  V30 32 1 6 30
M  V30 33 1 6 31
M  V30 34 1 7 32
M  V30 35 1 7 33
M  V30 36 1 11 34
M  V30 37 1 12 35
M  V30 38 1 12 36
M  V30 39 1 13 37
M  V30 40 1 14 38
M  V30 41 1 14 39
M  V30 42 1 15 40
M  V30 43 1 15 41
M  V30 44 1 16 42
M  V30 45 1 16 43
M  V30 46 1 17 44
M  V30 47 1 18 45
M  V30 48 1 18 46
M  V30 49 1 19 47
M  V30 50 1 20 48
M  V30 51 1 20 49
M  V30 END BOND
M  V30 END CTAB
M  END
