
     RDKit          3D

  0  0  0  0  0  0  0  0  0  0999 V3000
M  V30 BEGIN CTAB
M  V30 COUNTS 34 34 0 0 0
M  V30 BEGIN ATOM
M  V30 1 N -4.07736 1.94234 0.632329 0
M  V30 2 C -3.18517 1.19068 -0.215635 0
M  V30 3 C -1.88992 0.83993 0.527792 0
M  V30 4 N -0.974413 0.101278 -0.239331 0
M  V30 5 C -1.30052 -1.21331 -0.585432 0
M  V30 6 C -0.68912 -2.29163 0.270446 0
M  V30 7 C 0.755611 -2.56082 0.00866862 0
M  V30 8 O 1.58973 -1.47494 0.276269 0
M  V30 9 C 1.31924 -0.526093 -0.727739 0 CFG=1
M  V30 10 C 0.394725 0.479756 -0.155335 0
M  V30 11 C 2.59983 -0.0361396 -1.29032 0
M  V30 12 C 3.53803 0.623353 -0.341828 0
M  V30 13 N 2.8909 1.78655 0.231501 0
M  V30 14 H -3.95769 2.97296 0.474933 0
M  V30 15 H -5.05786 1.70489 0.355019 0
M  V30 16 H -2.96487 1.84442 -1.08657 0
M  V30 17 H -3.68121 0.259626 -0.553876 0
M  V30 18 H -1.44006 1.80191 0.834132 0
M  V30 19 H -2.16733 0.256815 1.43924 0
M  V30 20 H -1.20438 -1.42333 -1.67116 0
M  V30 21 H -2.41576 -1.32249 -0.40468 0
M  V30 22 H -1.23129 -3.24609 0.0388247 0
M  V30 23 H -0.844251 -2.014 1.3249 0
M  V30 24 H 1.05971 -3.4158 0.63303 0
M  V30 25 H 0.931515 -2.82738 -1.05931 0
M  V30 26 H 0.780279 -1.01941 -1.59175 0
M  V30 27 H 0.64451 0.732672 0.918099 0
M  V30 28 H 0.507955 1.43467 -0.71157 0
M  V30 29 H 2.4067 0.589681 -2.19728 0
M  V30 30 H 3.12886 -0.9422 -1.71072 0
M  V30 31 H 4.44499 0.998998 -0.88139 0
M  V30 32 H 3.88319 -0.0378921 0.472608 0
M  V30 33 H 2.64472 2.4881 -0.508712 0
M  V30 34 H 3.56069 2.30286 0.860502 0
M  V30 END ATOM
M  V30 BEGIN BOND
M  V30 1 1 1 2
M  V30 2 1 2 3
M  V30 3 1 3 4
M  V30 4 1 4 5
M  V30 5 1 5 6
M  V30 6 1 6 7
M  V30 7 1 7 8
M  V30 8 1 8 9
M  V30 9 1 9 10
M  V30 10 1 9 11
M  V30 11 1 11 12
M  V30 12 1 12 13
M  V30 13 1 10 4
M  V30 14 1 1 14
M  V30 15 1 1 15
M  V30 16 1 2 16
M  V30 17 1 2 17
M  V30 18 1 3 18
M  V30 19 1 3 19
M  V30 20 1 5 20
M  V30 21 1 5 21
M  V30 22 1 6 22
M  V30 23 1 6 23
M  V30 24 1 7 24
M  V30 25 1 7 25
M  V30 26 1 9 26 CFG=3
M  V30 27 1 10 27
M  V30 28 1 10 28
M  V30 29 1 11 29
M  V30 30 1 11 30
M  V30 31 1 12 31
M  V30 32 1 12 32
M  V30 33 1 13 33
M  V30 34 1 13 34
M  V30 END BOND
M  V30 END CTAB
M  END
