
     RDKit          3D

  0  0  0  0  0  0  0  0  0  0999 V3000
M  V30 BEGIN CTAB
M  V30 COUNTS 30 30 0 0 0
M  V30 BEGIN ATOM
M  V30 1 C -1.95451 -0.801801 1.32098 0
M  V30 2 C -1.73076 -0.318968 -0.039755 0
M  V30 3 C -0.661544 0.559464 -0.484993 0
M  V30 4 C 0.743648 0.212686 -0.359358 0
M  V30 5 C 1.42889 -0.0567044 0.794523 0
M  V30 6 C 2.81612 -0.209788 0.82883 0
M  V30 7 C 3.56648 -0.42002 2.0822 0
M  V30 8 C 3.544 -0.0821952 -0.367845 0
M  V30 9 N 2.86385 0.185329 -1.49092 0
M  V30 10 C 1.53595 0.328788 -1.51883 0
M  V30 11 N 0.817125 0.518772 -2.72098 0
M  V30 12 F -0.985391 1.34061 -1.60437 0
M  V30 13 C -3.05342 -0.0500309 -0.773288 0
M  V30 14 N -3.92988 0.862994 -0.153922 0
M  V30 15 H -1.03469 -1.162 1.816 0
M  V30 16 H -2.65898 -1.70081 1.26385 0
M  V30 17 H -2.37338 -0.0423149 2.00115 0
M  V30 18 H -1.37605 -1.35992 -0.586112 0
M  V30 19 H -0.759053 1.45958 0.33023 0
M  V30 20 H 0.910324 -0.133689 1.74831 0
M  V30 21 H 2.9633 -0.266302 2.97196 0
M  V30 22 H 4.0491 -1.40395 2.09913 0
M  V30 23 H 4.43465 0.322329 2.05949 0
M  V30 24 H 4.60459 -0.227627 -0.312191 0
M  V30 25 H 0.124944 -0.226028 -2.96948 0
M  V30 26 H 0.935994 1.31868 -3.33735 0
M  V30 27 H -2.79583 0.402081 -1.78882 0
M  V30 28 H -3.52038 -1.00457 -1.02121 0
M  V30 29 H -4.91818 0.630439 -0.0953731 0
M  V30 30 H -3.58691 1.68226 0.308152 0
M  V30 END ATOM
M  V30 BEGIN BOND
M  V30 1 1 1 2
M  V30 2 1 2 3
M  V30 3 1 3 4
M  V30 4 2 4 5
M  V30 5 1 5 6
M  V30 6 1 6 7
M  V30 7 2 6 8
M  V30 8 1 8 9
M  V30 9 2 9 10
M  V30 10 1 10 11
M  V30 11 1 3 12
M  V30 12 1 2 13
M  V30 13 1 13 14
M  V30 14 1 10 4
M  V30 15 1 1 15
M  V30 16 1 1 16
M  V30 17 1 1 17
M  V30 18 1 2 18
M  V30 19 1 3 19
M  V30 20 1 5 20
M  V30 21 1 7 21
M  V30 22 1 7 22
M  V30 23 1 7 23
M  V30 24 1 8 24
M  V30 25 1 11 25
M  V30 26 1 11 26
M  V30 27 1 13 27
M  V30 28 1 13 28
M  V30 29 1 14 29
M  V30 30 1 14 30
M  V30 END BOND
M  V30 END CTAB
M  END
