
     RDKit          3D

  0  0  0  0  0  0  0  0  0  0999 V3000
M  V30 BEGIN CTAB
M  V30 COUNTS 47 49 0 0 0
M  V30 BEGIN ATOM
M  V30 1 N -2.14648 0.551657 4.90314 0
M  V30 2 C -2.02297 0.169475 3.51738 0
M  V30 3 C -2.44423 1.0351 2.53311 0
M  V30 4 C -2.35475 0.730172 1.19347 0
M  V30 5 C -1.81819 -0.496601 0.856101 0
M  V30 6 C -1.3937 -1.3693 1.84056 0
M  V30 7 C -1.48783 -1.05439 3.17609 0
M  V30 8 N -1.69042 -0.933814 -0.489591 0
M  V30 9 C -0.556696 -0.676845 -1.23455 0
M  V30 10 O -0.410698 -1.05784 -2.45283 0
M  V30 11 C 0.609226 0.045295 -0.758694 0
M  V30 12 O 0.566689 0.457182 0.405045 0
M  V30 13 N 1.75084 0.281688 -1.56046 0
M  V30 14 C 2.92591 0.957731 -1.21702 0
M  V30 15 C 3.21676 1.54067 -0.00722134 0
M  V30 16 C 4.42301 2.19794 0.251638 0
M  V30 17 C 4.63095 2.79447 1.60012 0
M  V30 18 C 5.36546 2.26777 -0.745488 0
M  V30 19 C 5.12111 1.69952 -1.97424 0
M  V30 20 C 3.92737 1.0607 -2.19881 0
M  V30 21 N 3.70374 0.486124 -3.47055 0
M  V30 22 C -2.8332 -1.64541 -0.962528 0
M  V30 23 C -3.85004 -0.985518 -1.62901 0
M  V30 24 C -4.97265 -1.63612 -2.10197 0
M  V30 25 C -5.09967 -2.99255 -1.91105 0
M  V30 26 C -4.09508 -3.68248 -1.2454 0
M  V30 27 C -2.98101 -3.00168 -0.782745 0
M  V30 28 H -1.87579 -0.101166 5.6434 0
M  V30 29 H -2.5109 1.49091 5.13915 0
M  V30 30 H -2.86876 2.00776 2.81916 0
M  V30 31 H -2.67668 1.38807 0.397727 0
M  V30 32 H -0.974169 -2.32814 1.58026 0
M  V30 33 H -1.16961 -1.70414 3.97638 0
M  V30 34 H 1.70728 -0.110884 -2.56621 0
M  V30 35 H 2.496 1.50128 0.792354 0
M  V30 36 H 3.75475 3.31282 1.99173 0
M  V30 37 H 5.51838 3.47221 1.57274 0
M  V30 38 H 4.91417 1.9876 2.33509 0
M  V30 39 H 6.30053 2.78665 -0.519044 0
M  V30 40 H 5.88423 1.76427 -2.76113 0
M  V30 41 H 3.8389 -0.507957 -3.71581 0
M  V30 42 H 3.37076 1.13162 -4.22974 0
M  V30 43 H -3.79265 0.0910521 -1.80353 0
M  V30 44 H -5.75776 -1.11036 -2.61979 0
M  V30 45 H -5.9502 -3.57129 -2.25314 0
M  V30 46 H -4.12414 -4.74418 -1.05851 0
M  V30 47 H -2.16781 -3.49908 -0.255601 0
M  V30 END ATOM
M  V30 BEGIN BOND
M  V30 1 1 1 2
M  V30 2 2 2 3
M  V30 3 1 3 4
M  V30 4 2 4 5
M  V30 5 1 5 6
M  V30 6 2 6 7
M  V30 7 1 5 8
M  V30 8 1 8 9
M  V30 9 2 9 10
M  V30 10 1 9 11
M  V30 11 2 11 12
M  V30 12 1 11 13
M  V30 13 1 13 14
M  V30 14 2 14 15
M  V30 15 1 15 16
M  V30 16 1 16 17
M  V30 17 2 16 18
M  V30 18 1 18 19
M  V30 19 2 19 20
M  V30 20 1 20 21
M  V30 21 1 8 22
M  V30 22 2 22 23
M  V30 23 1 23 24
M  V30 24 2 24 25
M  V30 25 1 25 26
M  V30 26 2 26 27
M  V30 27 1 7 2
M  V30 28 1 20 14
M  V30 29 1 27 22
M  V30 30 1 1 28
M  V30 31 1 1 29
M  V30 32 1 3 30
M  V30 33 1 4 31
M  V30 34 1 6 32
M  V30 35 1 7 33
M  V30 36 1 13 34
M  V30 37 1 15 35
M  V30 38 1 17 36
M  V30 39 1 17 37
M  V30 40 1 17 38
M  V30 41 1 18 39
M  V30 42 1 19 40
M  V30 43 1 21 41
M  V30 44 1 21 42
M  V30 45 1 23 43
M  V30 46 1 24 44
M  V30 47 1 25 45
M  V30 48 1 26 46
M  V30 49 1 27 47
M  V30 END BOND
M  V30 END CTAB
M  END
