
     RDKit          3D

  0  0  0  0  0  0  0  0  0  0999 V3000
M  V30 BEGIN CTAB
M  V30 COUNTS 47 50 0 0 0
M  V30 BEGIN ATOM
M  V30 1 C -4.17191 -0.489407 0.265304 0
M  V30 2 O -2.96659 -0.522447 -0.450623 0
M  V30 3 C -1.73005 -0.156531 0.08132 0
M  V30 4 C -0.960758 -1.12234 0.693526 0
M  V30 5 C 0.264459 -0.780803 1.22539 0
M  V30 6 C 0.732219 0.515161 1.15356 0
M  V30 7 C 2.02515 0.861442 1.73424 0
M  V30 8 C 3.21083 0.507913 0.956258 0
M  V30 9 C 3.70127 1.17357 -0.141994 0
M  V30 10 N 3.02573 2.32677 -0.583039 0
M  V30 11 N 4.81929 0.71801 -0.774751 0
M  V30 12 C 5.49924 -0.372816 -0.38735 0
M  V30 13 N 6.65921 -0.799864 -1.08753 0
M  V30 14 N 5.03532 -1.04565 0.692879 0
M  V30 15 C 3.93742 -0.626118 1.34033 0
M  V30 16 C -0.057148 1.45549 0.537779 0
M  V30 17 C -1.29423 1.15109 -0.00897367 0
M  V30 18 N -2.12756 2.0917 -0.647458 0
M  V30 19 C -3.06918 2.83195 -0.0480991 0
M  V30 20 C -3.68972 3.64597 -0.989271 0
M  V30 21 C -3.08907 3.37528 -2.19698 0
M  V30 22 C -2.13321 2.41303 -1.94213 0
M  V30 23 N -1.36887 -2.47351 0.808061 0
M  V30 24 C -1.98318 -3.0054 1.88655 0
M  V30 25 C -2.22664 -4.33285 1.64117 0
M  V30 26 C -1.74472 -4.61384 0.374298 0
M  V30 27 C -1.20871 -3.44271 -0.140639 0
M  V30 28 H -3.91612 -0.227619 1.31956 0
M  V30 29 H -4.60833 -1.51389 0.276839 0
M  V30 30 H -4.91257 0.217137 -0.166725 0
M  V30 31 H 0.875918 -1.54358 1.71088 0
M  V30 32 H 2.08028 0.339702 2.72779 0
M  V30 33 H 2.03205 1.94523 2.00739 0
M  V30 34 H 2.35541 2.29664 -1.39613 0
M  V30 35 H 3.20077 3.22664 -0.0852854 0
M  V30 36 H 7.30208 -0.12348 -1.54394 0
M  V30 37 H 6.89089 -1.80764 -1.15836 0
M  V30 38 H 3.58022 -1.18218 2.20783 0
M  V30 39 H 0.221404 2.50198 0.440993 0
M  V30 40 H -3.3603 2.85181 0.993177 0
M  V30 41 H -4.48808 4.35025 -0.795997 0
M  V30 42 H -3.3501 3.84991 -3.13327 0
M  V30 43 H -1.49656 2.005 -2.72579 0
M  V30 44 H -2.25597 -2.51179 2.80493 0
M  V30 45 H -2.69837 -5.05422 2.28067 0
M  V30 46 H -1.79183 -5.58844 -0.106224 0
M  V30 47 H -0.749395 -3.31457 -1.1093 0
M  V30 END ATOM
M  V30 BEGIN BOND
M  V30 1 1 1 2
M  V30 2 1 2 3
M  V30 3 2 3 4
M  V30 4 1 4 5
M  V30 5 2 5 6
M  V30 6 1 6 7
M  V30 7 1 7 8
M  V30 8 2 8 9
M  V30 9 1 9 10
M  V30 10 1 9 11
M  V30 11 2 11 12
M  V30 12 1 12 13
M  V30 13 1 12 14
M  V30 14 2 14 15
M  V30 15 1 6 16
M  V30 16 2 16 17
M  V30 17 1 17 18
M  V30 18 1 18 19
M  V30 19 2 19 20
M  V30 20 1 20 21
M  V30 21 2 21 22
M  V30 22 1 4 23
M  V30 23 1 23 24
M  V30 24 2 24 25
M  V30 25 1 25 26
M  V30 26 2 26 27
M  V30 27 1 17 3
M  V30 28 1 22 18
M  V30 29 1 27 23
M  V30 30 1 15 8
M  V30 31 1 1 28
M  V30 32 1 1 29
M  V30 33 1 1 30
M  V30 34 1 5 31
M  V30 35 1 7 32
M  V30 36 1 7 33
M  V30 37 1 10 34
M  V30 38 1 10 35
M  V30 39 1 13 36
M  V30 40 1 13 37
M  V30 41 1 15 38
M  V30 42 1 16 39
M  V30 43 1 19 40
M  V30 44 1 20 41
M  V30 45 1 21 42
M  V30 46 1 22 43
M  V30 47 1 24 44
M  V30 48 1 25 45
M  V30 49 1 26 46
M  V30 50 1 27 47
M  V30 END BOND
M  V30 END CTAB
M  END
