
     RDKit          3D

  0  0  0  0  0  0  0  0  0  0999 V3000
M  V30 BEGIN CTAB
M  V30 COUNTS 49 51 0 0 0
M  V30 BEGIN ATOM
M  V30 1 N 2.24674 2.1117 0.129518 0
M  V30 2 C 3.22842 1.42718 0.938175 0
M  V30 3 C 3.70942 0.236488 0.185247 0
M  V30 4 C 4.78594 -0.523722 0.959794 0
M  V30 5 C 4.84032 -1.82849 0.151525 0
M  V30 6 C 3.48216 -1.96676 -0.517056 0
M  V30 7 C 2.63489 -0.860421 0.133961 0
M  V30 8 N 1.49117 -0.490002 -0.520319 0
M  V30 9 C 0.359449 -0.123405 -1.16788 0
M  V30 10 O 0.269626 0.400637 -2.31491 0
M  V30 11 C -1.02795 -0.327343 -0.5224 0
M  V30 12 C -1.2297 0.626896 0.568934 0
M  V30 13 C -2.63856 1.07106 0.829766 0
M  V30 14 C -3.36621 0.0964447 1.75715 0
M  V30 15 C -3.63369 -1.21077 1.09351 0
M  V30 16 C -4.08422 -1.13616 -0.325942 0
M  V30 17 C -3.4458 -0.0463244 -1.14978 0
M  V30 18 C -2.06436 -0.454729 -1.55327 0
M  V30 19 C -3.48897 1.2424 -0.382628 0
M  V30 20 N -3.17874 2.39546 -1.18895 0
M  V30 21 H 2.49701 2.17381 -0.886509 0
M  V30 22 H 2.00614 3.03971 0.539022 0
M  V30 23 H 2.65831 1.07917 1.8588 0
M  V30 24 H 4.03316 2.06322 1.32547 0
M  V30 25 H 4.06927 0.477092 -0.827923 0
M  V30 26 H 4.40278 -0.773591 1.94651 0
M  V30 27 H 5.76479 0.0055762 0.95547 0
M  V30 28 H 5.67246 -1.70672 -0.565712 0
M  V30 29 H 4.97771 -2.70441 0.836975 0
M  V30 30 H 3.05996 -2.9584 -0.407438 0
M  V30 31 H 3.60582 -1.63962 -1.58318 0
M  V30 32 H 2.48637 -1.12865 1.23378 0
M  V30 33 H 2.23481 -0.130257 -1.60355 0
M  V30 34 H -0.889703 -1.35107 -0.056688 0
M  V30 35 H -0.827874 0.279849 1.57208 0
M  V30 36 H -0.66593 1.56641 0.360169 0
M  V30 37 H -2.62629 2.03981 1.37682 0
M  V30 38 H -2.77835 -0.0336459 2.67195 0
M  V30 39 H -4.34834 0.588514 1.99388 0
M  V30 40 H -2.80038 -1.94324 1.24379 0
M  V30 41 H -4.49165 -1.67792 1.6678 0
M  V30 42 H -5.18447 -1.00508 -0.41927 0
M  V30 43 H -3.78355 -2.1128 -0.813321 0
M  V30 44 H -4.08328 0.0831805 -2.05552 0
M  V30 45 H -2.14858 -1.45453 -2.02793 0
M  V30 46 H -1.79134 0.228013 -2.40832 0
M  V30 47 H -4.54546 1.38691 -0.0345776 0
M  V30 48 H -3.0919 2.09989 -2.17112 0
M  V30 49 H -2.30144 2.86865 -0.825888 0
M  V30 END ATOM
M  V30 BEGIN BOND
M  V30 1 1 1 2
M  V30 2 1 2 3
M  V30 3 1 3 4
M  V30 4 1 4 5
M  V30 5 1 5 6
M  V30 6 1 6 7
M  V30 7 1 7 8
M  V30 8 1 8 9
M  V30 9 2 9 10
M  V30 10 1 9 11
M  V30 11 1 11 12
M  V30 12 1 12 13
M  V30 13 1 13 14
M  V30 14 1 14 15
M  V30 15 1 15 16
M  V30 16 1 16 17
M  V30 17 1 17 18
M  V30 18 1 17 19
M  V30 19 1 19 20
M  V30 20 1 7 3
M  V30 21 1 18 11
M  V30 22 1 19 13
M  V30 23 1 1 21
M  V30 24 1 1 22
M  V30 25 1 2 23
M  V30 26 1 2 24
M  V30 27 1 3 25
M  V30 28 1 4 26
M  V30 29 1 4 27
M  V30 30 1 5 28
M  V30 31 1 5 29
M  V30 32 1 6 30
M  V30 33 1 6 31
M  V30 34 1 7 32
M  V30 35 1 8 33
M  V30 36 1 11 34
M  V30 37 1 12 35
M  V30 38 1 12 36
M  V30 39 1 13 37
M  V30 40 1 14 38
M  V30 41 1 14 39
M  V30 42 1 15 40
M  V30 43 1 15 41
M  V30 44 1 16 42
M  V30 45 1 16 43
M  V30 46 1 17 44
M  V30 47 1 18 45
M  V30 48 1 18 46
M  V30 49 1 19 47
M  V30 50 1 20 48
M  V30 51 1 20 49
M  V30 END BOND
M  V30 END CTAB
M  END
