
     RDKit          3D

  0  0  0  0  0  0  0  0  0  0999 V3000
M  V30 BEGIN CTAB
M  V30 COUNTS 31 33 0 0 0
M  V30 BEGIN ATOM
M  V30 1 N 4.02818 2.7574 -1.01937 0
M  V30 2 C 3.13861 1.75132 -0.579072 0
M  V30 3 N 2.19383 1.31431 -1.40511 0
M  V30 4 C 1.27957 0.361946 -1.11633 0
M  V30 5 N 0.405789 -0.093855 -2.12477 0
M  V30 6 C 1.28473 -0.23711 0.137595 0
M  V30 7 C 0.435324 -1.22582 0.492618 0
M  V30 8 O -0.589748 -1.72512 -0.30665 0
M  V30 9 C -1.8032 -1.00861 -0.302787 0
M  V30 10 C -2.84838 -1.4107 -1.13594 0
M  V30 11 C -4.05739 -0.722625 -1.1453 0
M  V30 12 C -4.23353 0.354907 -0.337856 0
M  V30 13 F -5.40431 1.02432 -0.344361 0
M  V30 14 C -3.23053 0.780218 0.494318 0
M  V30 15 C -2.03218 0.0911662 0.497769 0
M  V30 16 C 0.581169 -1.80981 1.76631 0
M  V30 17 C 1.56001 -1.37308 2.62275 0
M  V30 18 C 2.4086 -0.35854 2.24405 0
M  V30 19 C 2.28726 0.226757 0.999823 0
M  V30 20 N 3.17195 1.18946 0.632706 0
M  V30 21 H 4.89641 2.524 -1.54914 0
M  V30 22 H 3.84212 3.76661 -0.826889 0
M  V30 23 H -0.28535 0.544138 -2.54397 0
M  V30 24 H 0.463954 -1.07017 -2.44642 0
M  V30 25 H -2.6815 -2.257 -1.75644 0
M  V30 26 H -4.8782 -1.02316 -1.78698 0
M  V30 27 H -3.41327 1.63932 1.11783 0
M  V30 28 H -1.25772 0.442579 1.15938 0
M  V30 29 H -0.113509 -2.61206 2.02775 0
M  V30 30 H 1.65552 -1.84109 3.60657 0
M  V30 31 H 3.1958 0.000300185 2.92791 0
M  V30 END ATOM
M  V30 BEGIN BOND
M  V30 1 1 1 2
M  V30 2 2 2 3
M  V30 3 1 3 4
M  V30 4 1 4 5
M  V30 5 2 4 6
M  V30 6 1 6 7
M  V30 7 1 7 8
M  V30 8 1 8 9
M  V30 9 2 9 10
M  V30 10 1 10 11
M  V30 11 2 11 12
M  V30 12 1 12 13
M  V30 13 1 12 14
M  V30 14 2 14 15
M  V30 15 2 7 16
M  V30 16 1 16 17
M  V30 17 2 17 18
M  V30 18 1 18 19
M  V30 19 2 19 20
M  V30 20 1 20 2
M  V30 21 1 19 6
M  V30 22 1 15 9
M  V30 23 1 1 21
M  V30 24 1 1 22
M  V30 25 1 5 23
M  V30 26 1 5 24
M  V30 27 1 10 25
M  V30 28 1 11 26
M  V30 29 1 14 27
M  V30 30 1 15 28
M  V30 31 1 16 29
M  V30 32 1 17 30
M  V30 33 1 18 31
M  V30 END BOND
M  V30 END CTAB
M  END
