
     RDKit          3D

  0  0  0  0  0  0  0  0  0  0999 V3000
M  V30 BEGIN CTAB
M  V30 COUNTS 40 41 0 0 0
M  V30 BEGIN ATOM
M  V30 1 N 0.136584 -2.16566 -4.34408 0
M  V30 2 C 0.426969 -1.35273 -3.57405 0
M  V30 3 C 0.777733 -0.336596 -2.59613 0
M  V30 4 C 1.90224 0.329445 -2.7436 0
M  V30 5 N 2.30162 1.33445 -1.82261 0
M  V30 6 C 3.32683 1.00946 -0.893757 0
M  V30 7 C 3.75754 1.94509 0.0261004 0
M  V30 8 C 4.75037 1.68526 0.952726 0
M  V30 9 C 5.32955 0.433293 0.949721 0
M  V30 10 C 4.92524 -0.527938 0.0452828 0
M  V30 11 C 3.93113 -0.229218 -0.863499 0
M  V30 12 N 6.3707 0.0947742 1.88887 0
M  V30 13 C -0.112708 -0.0589675 -1.45968 0
M  V30 14 O 0.243369 0.818431 -0.662149 0
M  V30 15 N -1.31996 -0.763497 -1.288 0
M  V30 16 C -2.28561 -0.634235 -0.282849 0
M  V30 17 C -2.37491 0.418538 0.587867 0
M  V30 18 C -3.35779 0.480084 1.59576 0
M  V30 19 C -4.27082 -0.539472 1.73002 0
M  V30 20 C -4.20145 -1.61004 0.864697 0
M  V30 21 C -3.23583 -1.65829 -0.115971 0
M  V30 22 S -5.49189 -0.463686 2.98221 0
M  V30 23 O -4.99635 0.318097 4.1627 0
M  V30 24 O -5.86288 -1.85829 3.37987 0
M  V30 25 N -6.89107 0.327385 2.35505 0
M  V30 26 H 2.53289 0.0790278 -3.61662 0
M  V30 27 H 1.83497 2.26024 -1.86228 0
M  V30 28 H 3.2679 2.91411 -0.0155264 0
M  V30 29 H 5.05752 2.4484 1.65607 0
M  V30 30 H 5.38765 -1.50408 0.0544385 0
M  V30 31 H 3.64126 -1.00309 -1.55379 0
M  V30 32 H 6.13287 -0.376529 2.77409 0
M  V30 33 H 7.3548 0.336269 1.65107 0
M  V30 34 H -1.54507 -1.5108 -2.03977 0
M  V30 35 H -1.67612 1.23651 0.49521 0
M  V30 36 H -3.34811 1.35324 2.23664 0
M  V30 37 H -4.92508 -2.43222 0.960227 0
M  V30 38 H -3.17962 -2.49342 -0.790778 0
M  V30 39 H -7.62197 0.413482 3.0968 0
M  V30 40 H -6.69247 1.28317 2.02088 0
M  V30 END ATOM
M  V30 BEGIN BOND
M  V30 1 3 1 2
M  V30 2 1 2 3
M  V30 3 2 3 4
M  V30 4 1 4 5
M  V30 5 1 5 6
M  V30 6 2 6 7
M  V30 7 1 7 8
M  V30 8 2 8 9
M  V30 9 1 9 10
M  V30 10 2 10 11
M  V30 11 1 9 12
M  V30 12 1 3 13
M  V30 13 2 13 14
M  V30 14 1 13 15
M  V30 15 1 15 16
M  V30 16 2 16 17
M  V30 17 1 17 18
M  V30 18 2 18 19
M  V30 19 1 19 20
M  V30 20 2 20 21
M  V30 21 1 19 22
M  V30 22 2 22 23
M  V30 23 2 22 24
M  V30 24 1 22 25
M  V30 25 1 11 6
M  V30 26 1 21 16
M  V30 27 1 4 26
M  V30 28 1 5 27
M  V30 29 1 7 28
M  V30 30 1 8 29
M  V30 31 1 10 30
M  V30 32 1 11 31
M  V30 33 1 12 32
M  V30 34 1 12 33
M  V30 35 1 15 34
M  V30 36 1 17 35
M  V30 37 1 18 36
M  V30 38 1 20 37
M  V30 39 1 21 38
M  V30 40 1 25 39
M  V30 41 1 25 40
M  V30 END BOND
M  V30 END CTAB
M  END
