
     RDKit          3D

  0  0  0  0  0  0  0  0  0  0999 V3000
M  V30 BEGIN CTAB
M  V30 COUNTS 53 56 0 0 0
M  V30 BEGIN ATOM
M  V30 1 N -6.91979 -1.6575 -1.60098 0
M  V30 2 C -5.50565 -1.9009 -1.38071 0
M  V30 3 C -4.69983 -0.876084 -2.16844 0
M  V30 4 C -4.85199 0.0585381 -0.997006 0
M  V30 5 C -5.06627 -1.17657 -0.118048 0
M  V30 6 C -3.66728 0.849095 -0.643959 0
M  V30 7 C -2.40702 0.277104 -0.463812 0
M  V30 8 C -1.29636 1.00647 -0.134761 0
M  V30 9 N -1.48334 2.34361 0.0113815 0
M  V30 10 C -2.67886 2.93597 -0.152676 0
M  V30 11 N -3.74963 2.17866 -0.47735 0
M  V30 12 N -2.74489 4.33168 0.0268137 0
M  V30 13 N -0.0247446 0.435271 0.0482204 0
M  V30 14 C 0.310164 -0.946391 -0.0773947 0
M  V30 15 C 0.89086 -1.51379 1.22603 0
M  V30 16 N 2.00189 -0.694085 1.66112 0
M  V30 17 C 1.97647 0.700222 1.39812 0
M  V30 18 O 2.75375 1.45701 2.0333 0
M  V30 19 C 1.0722 1.33009 0.401616 0
M  V30 20 C 3.10605 -1.30767 2.34877 0
M  V30 21 C 4.20879 -1.79731 1.47321 0
M  V30 22 C 4.85524 -0.746948 0.648919 0
M  V30 23 C 4.38661 -0.449071 -0.61457 0
M  V30 24 C 4.97036 0.529436 -1.41618 0
M  V30 25 C 6.0546 1.22946 -0.938189 0
M  V30 26 C 6.54844 0.963732 0.308435 0
M  V30 27 C 5.95054 -0.0172012 1.09205 0
M  V30 28 H -7.13628 -1.70147 -2.604 0
M  V30 29 H -7.2212 -0.737877 -1.21202 0
M  V30 30 H -5.18245 -2.93543 -1.46316 0
M  V30 31 H -3.67702 -1.2298 -2.37979 0
M  V30 32 H -5.17895 -0.509308 -3.07882 0
M  V30 33 H -5.75073 0.688603 -1.09309 0
M  V30 34 H -5.83095 -1.0761 0.651591 0
M  V30 35 H -4.05037 -1.49406 0.25368 0
M  V30 36 H -2.33607 -0.772724 -0.594115 0
M  V30 37 H -2.98281 4.94352 -0.765852 0
M  V30 38 H -2.55431 4.73701 0.953957 0
M  V30 39 H 1.1512 -1.07095 -0.819942 0
M  V30 40 H -0.540614 -1.56383 -0.332578 0
M  V30 41 H 0.132649 -1.56123 2.0212 0
M  V30 42 H 1.24999 -2.5455 0.937876 0
M  V30 43 H 1.65792 1.64609 -0.486133 0
M  V30 44 H 0.651829 2.22625 0.892714 0
M  V30 45 H 2.70033 -2.21338 2.87824 0
M  V30 46 H 3.53442 -0.585724 3.07729 0
M  V30 47 H 3.91676 -2.68138 0.85748 0
M  V30 48 H 5.00864 -2.18716 2.16001 0
M  V30 49 H 3.54348 -0.994177 -0.9852 0
M  V30 50 H 4.60483 0.756941 -2.39321 0
M  V30 51 H 6.53696 1.99657 -1.52799 0
M  V30 52 H 7.40728 1.53182 0.663486 0
M  V30 53 H 6.35514 -0.209548 2.06885 0
M  V30 END ATOM
M  V30 BEGIN BOND
M  V30 1 1 1 2
M  V30 2 1 2 3
M  V30 3 1 3 4
M  V30 4 1 4 5
M  V30 5 1 4 6
M  V30 6 2 6 7
M  V30 7 1 7 8
M  V30 8 2 8 9
M  V30 9 1 9 10
M  V30 10 2 10 11
M  V30 11 1 10 12
M  V30 12 1 8 13
M  V30 13 1 13 14
M  V30 14 1 14 15
M  V30 15 1 15 16
M  V30 16 1 16 17
M  V30 17 2 17 18
M  V30 18 1 17 19
M  V30 19 1 16 20
M  V30 20 1 20 21
M  V30 21 1 21 22
M  V30 22 2 22 23
M  V30 23 1 23 24
M  V30 24 2 24 25
M  V30 25 1 25 26
M  V30 26 2 26 27
M  V30 27 1 5 2
M  V30 28 1 11 6
M  V30 29 1 19 13
M  V30 30 1 27 22
M  V30 31 1 1 28
M  V30 32 1 1 29
M  V30 33 1 2 30
M  V30 34 1 3 31
M  V30 35 1 3 32
M  V30 36 1 4 33
M  V30 37 1 5 34
M  V30 38 1 5 35
M  V30 39 1 7 36
M  V30 40 1 12 37
M  V30 41 1 12 38
M  V30 42 1 14 39
M  V30 43 1 14 40
M  V30 44 1 15 41
M  V30 45 1 15 42
M  V30 46 1 19 43
M  V30 47 1 19 44
M  V30 48 1 20 45
M  V30 49 1 20 46
M  V30 50 1 21 47
M  V30 51 1 21 48
M  V30 52 1 23 49
M  V30 53 1 24 50
M  V30 54 1 25 51
M  V30 55 1 26 52
M  V30 56 1 27 53
M  V30 END BOND
M  V30 END CTAB
M  END
