
     RDKit          3D

  0  0  0  0  0  0  0  0  0  0999 V3000
M  V30 BEGIN CTAB
M  V30 COUNTS 32 32 0 0 0
M  V30 BEGIN ATOM
M  V30 1 C 6.64471 -0.499564 0.940479 0
M  V30 2 C 5.77677 0.192967 -0.0774185 0
M  V30 3 N 4.35138 -0.0511454 0.197265 0
M  V30 4 C 3.34076 0.482648 -0.603758 0
M  V30 5 O 3.73988 1.19808 -1.59263 0
M  V30 6 N 1.96275 0.327798 -0.452121 0
M  V30 7 C 1.2706 -0.397567 0.537159 0
M  V30 8 O 1.88018 -1.01006 1.42979 0
M  V30 9 C -0.212693 -0.480062 0.582306 0
M  V30 10 S -0.968046 0.463939 -0.787262 0
M  V30 11 C -2.73784 0.290432 -0.622934 0
M  V30 12 N -3.39703 1.18155 0.118094 0
M  V30 13 C -4.74704 1.15608 0.31951 0
M  V30 14 N -5.39073 2.13083 1.11756 0
M  V30 15 C -5.4624 0.14483 -0.283448 0
M  V30 16 C -4.79644 -0.783672 -1.05218 0
M  V30 17 N -3.44267 -0.690071 -1.20575 0
M  V30 18 N -5.47046 -1.84928 -1.70048 0
M  V30 19 H 6.68775 0.042297 1.89958 0
M  V30 20 H 7.6605 -0.671979 0.53521 0
M  V30 21 H 6.21987 -1.5333 1.1059 0
M  V30 22 H 5.98236 -0.189293 -1.08561 0
M  V30 23 H 5.98089 1.28455 -0.102186 0
M  V30 24 H 4.1566 -0.639408 1.01642 0
M  V30 25 H 1.31783 0.807359 -1.1591 0
M  V30 26 H -0.593353 -1.5029 0.629609 0
M  V30 27 H -0.524169 0.04673 1.52026 0
M  V30 28 H -4.85942 2.89927 1.55484 0
M  V30 29 H -6.4104 2.06808 1.26217 0
M  V30 30 H -6.5213 0.0759712 -0.160217 0
M  V30 31 H -5.14079 -2.82684 -1.57743 0
M  V30 32 H -6.29805 -1.66827 -2.30362 0
M  V30 END ATOM
M  V30 BEGIN BOND
M  V30 1 1 1 2
M  V30 2 1 2 3
M  V30 3 1 3 4
M  V30 4 2 4 5
M  V30 5 1 4 6
M  V30 6 1 6 7
M  V30 7 2 7 8
M  V30 8 1 7 9
M  V30 9 1 9 10
M  V30 10 1 10 11
M  V30 11 2 11 12
M  V30 12 1 12 13
M  V30 13 1 13 14
M  V30 14 2 13 15
M  V30 15 1 15 16
M  V30 16 2 16 17
M  V30 17 1 16 18
M  V30 18 1 17 11
M  V30 19 1 1 19
M  V30 20 1 1 20
M  V30 21 1 1 21
M  V30 22 1 2 22
M  V30 23 1 2 23
M  V30 24 1 3 24
M  V30 25 1 6 25
M  V30 26 1 9 26
M  V30 27 1 9 27
M  V30 28 1 14 28
M  V30 29 1 14 29
M  V30 30 1 15 30
M  V30 31 1 18 31
M  V30 32 1 18 32
M  V30 END BOND
M  V30 END CTAB
M  END
