
     RDKit          3D

  0  0  0  0  0  0  0  0  0  0999 V3000
M  V30 BEGIN CTAB
M  V30 COUNTS 31 32 0 0 0
M  V30 BEGIN ATOM
M  V30 1 N 4.01693 1.26391 -0.925572 0
M  V30 2 C 3.09526 0.514327 -0.130091 0
M  V30 3 C 3.49751 -0.135667 1.01878 0
M  V30 4 C 2.57097 -0.857462 1.77 0
M  V30 5 C 1.25138 -0.91379 1.35217 0
M  V30 6 C 0.8283 -0.272714 0.208988 0
M  V30 7 C 1.77019 0.432875 -0.511553 0
M  V30 8 C -0.572794 -0.357713 -0.195945 0 CFG=1
M  V30 9 C -0.954842 -1.75741 -0.697347 0
M  V30 10 C -2.46596 -1.68292 -0.709195 0
M  V30 11 C -2.77857 -0.611983 0.292044 0
M  V30 12 N -1.52005 -0.164887 0.856484 0
M  V30 13 S -1.71058 1.4532 1.35662 0
M  V30 14 O -2.7338 1.47545 2.46466 0
M  V30 15 O -0.45506 2.04943 1.91403 0
M  V30 16 N -2.28247 2.49137 0.117933 0
M  V30 17 H 4.44189 2.12887 -0.53074 0
M  V30 18 H 4.29194 0.992744 -1.88862 0
M  V30 19 H 4.53841 -0.0598032 1.30024 0
M  V30 20 H 2.88801 -1.35537 2.65348 0
M  V30 21 H 0.524973 -1.46995 1.92627 0
M  V30 22 H 1.50022 0.96914 -1.4359 0
M  V30 23 H -0.748198 0.313605 -1.07551 0
M  V30 24 H -0.514139 -1.98561 -1.66599 0
M  V30 25 H -0.669677 -2.52694 0.0447847 0
M  V30 26 H -2.84722 -1.44268 -1.72626 0
M  V30 27 H -2.95238 -2.61225 -0.389277 0
M  V30 28 H -3.32523 0.191476 -0.221903 0
M  V30 29 H -3.39215 -0.9764 1.14151 0
M  V30 30 H -1.99515 2.22572 -0.830611 0
M  V30 31 H -3.29771 2.68144 0.216399 0
M  V30 END ATOM
M  V30 BEGIN BOND
M  V30 1 1 1 2
M  V30 2 2 2 3
M  V30 3 1 3 4
M  V30 4 2 4 5
M  V30 5 1 5 6
M  V30 6 2 6 7
M  V30 7 1 6 8
M  V30 8 1 8 9
M  V30 9 1 9 10
M  V30 10 1 10 11
M  V30 11 1 11 12
M  V30 12 1 12 13
M  V30 13 2 13 14
M  V30 14 2 13 15
M  V30 15 1 13 16
M  V30 16 1 7 2
M  V30 17 1 12 8
M  V30 18 1 1 17
M  V30 19 1 1 18
M  V30 20 1 3 19
M  V30 21 1 4 20
M  V30 22 1 5 21
M  V30 23 1 7 22
M  V30 24 1 8 23 CFG=3
M  V30 25 1 9 24
M  V30 26 1 9 25
M  V30 27 1 10 26
M  V30 28 1 10 27
M  V30 29 1 11 28
M  V30 30 1 11 29
M  V30 31 1 16 30
M  V30 32 1 16 31
M  V30 END BOND
M  V30 END CTAB
M  END
