
     RDKit          3D

  0  0  0  0  0  0  0  0  0  0999 V3000
M  V30 BEGIN CTAB
M  V30 COUNTS 124 126 0 0 0
M  V30 BEGIN ATOM
M  V30 1 N -4.91926 3.16934 2.15105 0
M  V30 2 C -4.27107 2.40221 3.15802 0
M  V30 3 N -5.01929 1.68296 3.92121 0
M  V30 4 N -2.87457 2.38963 3.37843 0
M  V30 5 C -1.8245 2.40409 2.4397 0
M  V30 6 C -1.59744 1.15057 1.61768 0
M  V30 7 C -2.78958 0.80405 0.834962 0
M  V30 8 C -2.64158 -0.459719 -0.0768742 0 CFG=2
M  V30 9 N -1.58549 -0.189174 -0.986985 0
M  V30 10 C -0.276268 -0.67084 -0.677333 0
M  V30 11 O -0.0972829 -1.32814 0.37712 0
M  V30 12 C 0.868333 -0.388493 -1.57952 0 CFG=2
M  V30 13 C 1.28678 -1.51865 -2.44084 0
M  V30 14 C 1.75637 -2.74138 -1.81742 0
M  V30 15 O 1.98062 -3.84433 -2.65659 0
M  V30 16 O 1.96145 -2.85391 -0.605581 0
M  V30 17 N 1.96632 0.0774896 -0.719324 0
M  V30 18 C 2.60298 1.31201 -0.971569 0
M  V30 19 O 2.17158 1.94294 -2.00078 0
M  V30 20 C 3.67259 1.95387 -0.216556 0
M  V30 21 C 4.36843 3.03599 -1.04471 0
M  V30 22 C 5.11706 2.27111 -2.1755 0 CFG=2
M  V30 23 N 6.08376 1.40903 -1.54036 0
M  V30 24 C 6.09207 0.0191348 -1.70058 0
M  V30 25 O 5.30178 -0.620382 -2.41168 0
M  V30 26 C 7.13289 -0.718509 -0.945674 0
M  V30 27 C 7.99931 -1.5877 -1.48796 0
M  V30 28 C 8.93345 -2.22918 -0.671662 0
M  V30 29 C 9.02019 -2.02053 0.682736 0
M  V30 30 N 9.96862 -2.62783 1.54138 0
M  V30 31 C 11.08 -3.35293 0.979002 0
M  V30 32 C 11.8718 -2.38015 0.182644 0
M  V30 33 N 11.727 -1.07392 0.435134 0
M  V30 34 C 12.3896 -0.126324 -0.229997 0
M  V30 35 C 13.2704 -0.501568 -1.22951 0
M  V30 36 N 13.442 -1.79797 -1.51046 0
M  V30 37 C 12.7541 -2.72923 -0.816189 0
M  V30 38 N 13.9293 0.461608 -1.88591 0
M  V30 39 C 13.7549 1.76687 -1.59695 0
M  V30 40 N 14.4713 2.7864 -2.30577 0
M  V30 41 N 12.8972 2.1235 -0.62469 0
M  V30 42 C 12.1913 1.20239 0.0865229 0
M  V30 43 O 11.3961 1.51535 0.987417 0
M  V30 44 C 8.10253 -1.10722 1.23207 0
M  V30 45 C 7.19079 -0.481302 0.425334 0
M  V30 46 C 5.79665 3.21586 -3.09045 0
M  V30 47 O 5.03975 4.12744 -3.80914 0
M  V30 48 O 7.04129 3.25163 -3.26763 0
M  V30 49 C -3.98483 -0.658493 -0.670739 0
M  V30 50 O -4.29823 0.0836244 -1.61959 0
M  V30 51 N -4.90298 -1.61329 -0.207497 0
M  V30 52 C -6.26195 -1.73106 -0.731361 0 CFG=1
M  V30 53 C -6.44904 -2.83251 -1.71436 0
M  V30 54 C -6.1531 -4.18465 -1.22792 0
M  V30 55 O -6.33526 -5.28908 -2.0407 0
M  V30 56 O -5.72882 -4.37083 -0.0694094 0
M  V30 57 C -7.223 -1.68217 0.385723 0
M  V30 58 O -7.07345 -2.34243 1.45855 0
M  V30 59 N -8.36961 -0.866767 0.311163 0
M  V30 60 C -9.31214 -0.814443 1.48002 0 CFG=1
M  V30 61 C -8.7042 0.105623 2.49971 0
M  V30 62 C -9.48812 0.132845 3.73183 0
M  V30 63 O -10.3318 -0.918404 4.14693 0
M  V30 64 O -9.45394 1.13269 4.53013 0
M  V30 65 C -10.5981 -0.416641 0.924608 0
M  V30 66 O -10.9474 -0.936889 -0.197696 0
M  V30 67 N -11.528 0.483088 1.46531 0
M  V30 68 C -12.8001 0.807672 0.807859 0 CFG=1
M  V30 69 C -13.9668 0.447831 1.71646 0
M  V30 70 S -14.0031 -1.29173 2.12993 0
M  V30 71 C -12.8503 2.26637 0.637324 0
M  V30 72 O -14.0244 2.79233 0.0494859 0
M  V30 73 O -11.971 3.08878 0.958093 0
M  V30 74 H -4.93576 4.20882 2.14482 0
M  V30 75 H -5.39537 2.66305 1.38745 0
M  V30 76 H -6.04848 1.65283 3.81977 0
M  V30 77 H -2.58633 2.36695 4.41476 0
M  V30 78 H -2.04322 3.2147 1.6884 0
M  V30 79 H -0.85114 2.61395 2.9424 0
M  V30 80 H -1.3383 0.320593 2.31622 0
M  V30 81 H -0.681519 1.33568 0.993276 0
M  V30 82 H -3.19536 1.61856 0.213117 0
M  V30 83 H -3.59027 0.501117 1.54451 0
M  V30 84 H -2.34455 -1.23343 0.638562 0
M  V30 85 H -1.74626 0.339943 -1.85513 0
M  V30 86 H 0.644762 0.483821 -2.26031 0
M  V30 87 H 0.496022 -1.72979 -3.23115 0
M  V30 88 H 2.15087 -1.14099 -3.07977 0
M  V30 89 H 1.5871 -3.89452 -3.5909 0
M  V30 90 H 2.25944 -0.508091 0.069363 0
M  V30 91 H 3.33006 2.46037 0.718886 0
M  V30 92 H 4.44019 1.21287 0.12501 0
M  V30 93 H 5.13927 3.56973 -0.467151 0
M  V30 94 H 3.64851 3.74077 -1.44658 0
M  V30 95 H 4.41823 1.62839 -2.73319 0
M  V30 96 H 6.79917 1.87596 -0.947844 0
M  V30 97 H 7.99205 -1.80241 -2.539 0
M  V30 98 H 9.62769 -2.9389 -1.11642 0
M  V30 99 H 9.86422 -2.55181 2.56127 0
M  V30 100 H 11.7164 -3.80572 1.78351 0
M  V30 101 H 10.7642 -4.17609 0.345929 0
M  V30 102 H 12.8758 -3.77172 -1.02106 0
M  V30 103 H 13.9435 3.33676 -3.01819 0
M  V30 104 H 15.4639 2.96719 -2.11931 0
M  V30 105 H 12.7644 3.12178 -0.403097 0
M  V30 106 H 8.13963 -0.914586 2.29768 0
M  V30 107 H 6.48203 0.227153 0.866151 0
M  V30 108 H 4.03787 3.95644 -3.92046 0
M  V30 109 H -4.57803 -2.26094 0.552373 0
M  V30 110 H -6.41997 -0.77673 -1.32233 0
M  V30 111 H -5.72572 -2.64674 -2.57209 0
M  V30 112 H -7.46455 -2.77837 -2.21304 0
M  V30 113 H -6.88531 -5.19942 -2.90122 0
M  V30 114 H -8.63341 -0.279776 -0.48798 0
M  V30 115 H -9.24443 -1.8265 1.91781 0
M  V30 116 H -7.69102 -0.297384 2.7516 0
M  V30 117 H -8.60977 1.14976 2.11798 0
M  V30 118 H -10.1359 -1.85093 3.81108 0
M  V30 119 H -11.335 0.971955 2.35304 0
M  V30 120 H -12.8418 0.306502 -0.163415 0
M  V30 121 H -14.8888 0.707496 1.16121 0
M  V30 122 H -13.8675 1.08328 2.62286 0
M  V30 123 H -13.1799 -1.51323 3.25183 0
M  V30 124 H -14.3025 3.7441 0.31615 0
M  V30 END ATOM
M  V30 BEGIN BOND
M  V30 1 1 1 2
M  V30 2 2 2 3 CFG=2
M  V30 3 1 2 4
M  V30 4 1 4 5
M  V30 5 1 5 6
M  V30 6 1 6 7
M  V30 7 1 7 8
M  V30 8 1 8 9
M  V30 9 1 9 10
M  V30 10 2 10 11
M  V30 11 1 10 12
M  V30 12 1 12 13
M  V30 13 1 13 14
M  V30 14 1 14 15
M  V30 15 2 14 16
M  V30 16 1 12 17
M  V30 17 1 17 18
M  V30 18 2 18 19
M  V30 19 1 18 20
M  V30 20 1 20 21
M  V30 21 1 21 22
M  V30 22 1 22 23
M  V30 23 1 23 24
M  V30 24 2 24 25
M  V30 25 1 24 26
M  V30 26 2 26 27
M  V30 27 1 27 28
M  V30 28 2 28 29
M  V30 29 1 29 30
M  V30 30 1 30 31
M  V30 31 1 31 32
M  V30 32 2 32 33
M  V30 33 1 33 34
M  V30 34 2 34 35
M  V30 35 1 35 36
M  V30 36 2 36 37
M  V30 37 1 35 38
M  V30 38 2 38 39
M  V30 39 1 39 40
M  V30 40 1 39 41
M  V30 41 1 41 42
M  V30 42 2 42 43
M  V30 43 1 29 44
M  V30 44 2 44 45
M  V30 45 1 22 46
M  V30 46 1 46 47
M  V30 47 2 46 48
M  V30 48 1 8 49
M  V30 49 2 49 50
M  V30 50 1 49 51
M  V30 51 1 51 52
M  V30 52 1 52 53
M  V30 53 1 53 54
M  V30 54 1 54 55
M  V30 55 2 54 56
M  V30 56 1 52 57
M  V30 57 2 57 58
M  V30 58 1 57 59
M  V30 59 1 59 60
M  V30 60 1 60 61
M  V30 61 1 61 62
M  V30 62 1 62 63
M  V30 63 2 62 64
M  V30 64 1 60 65
M  V30 65 2 65 66
M  V30 66 1 65 67
M  V30 67 1 67 68
M  V30 68 1 68 69
M  V30 69 1 69 70
M  V30 70 1 68 71
M  V30 71 1 71 72
M  V30 72 2 71 73
M  V30 73 1 45 26
M  V30 74 1 37 32
M  V30 75 1 42 34
M  V30 76 1 1 74
M  V30 77 1 1 75
M  V30 78 1 3 76
M  V30 79 1 4 77
M  V30 80 1 5 78
M  V30 81 1 5 79
M  V30 82 1 6 80
M  V30 83 1 6 81
M  V30 84 1 7 82
M  V30 85 1 7 83
M  V30 86 1 8 84 CFG=1
M  V30 87 1 9 85
M  V30 88 1 12 86 CFG=3
M  V30 89 1 13 87
M  V30 90 1 13 88
M  V30 91 1 15 89
M  V30 92 1 17 90
M  V30 93 1 20 91
M  V30 94 1 20 92
M  V30 95 1 21 93
M  V30 96 1 21 94
M  V30 97 1 22 95 CFG=3
M  V30 98 1 23 96
M  V30 99 1 27 97
M  V30 100 1 28 98
M  V30 101 1 30 99
M  V30 102 1 31 100
M  V30 103 1 31 101
M  V30 104 1 37 102
M  V30 105 1 40 103
M  V30 106 1 40 104
M  V30 107 1 41 105
M  V30 108 1 44 106
M  V30 109 1 45 107
M  V30 110 1 47 108
M  V30 111 1 51 109
M  V30 112 1 52 110 CFG=3
M  V30 113 1 53 111
M  V30 114 1 53 112
M  V30 115 1 55 113
M  V30 116 1 59 114
M  V30 117 1 60 115 CFG=1
M  V30 118 1 61 116
M  V30 119 1 61 117
M  V30 120 1 63 118
M  V30 121 1 67 119
M  V30 122 1 68 120 CFG=3
M  V30 123 1 69 121
M  V30 124 1 69 122
M  V30 125 1 70 123
M  V30 126 1 72 124
M  V30 END BOND
M  V30 END CTAB
M  END
