
     RDKit          3D

  0  0  0  0  0  0  0  0  0  0999 V3000
M  V30 BEGIN CTAB
M  V30 COUNTS 18 19 0 0 0
M  V30 BEGIN ATOM
M  V30 1 F -3.86034 -0.999077 0.455602 0
M  V30 2 C -2.56674 -0.637469 0.29694 0
M  V30 3 C -2.16016 0.649547 0.0116384 0
M  V30 4 C -0.854232 1.02604 -0.15081 0
M  V30 5 N -0.594647 2.38272 -0.44031 0
M  V30 6 C 0.171773 0.0708294 -0.0274186 0
M  V30 7 C -0.212659 -1.20806 0.254774 0
M  V30 8 C -1.55943 -1.57325 0.41767 0
M  V30 9 S 1.29341 -2.02014 0.317506 0
M  V30 10 C 2.32387 -0.675464 -0.0208682 0
M  V30 11 N 1.44935 0.301772 -0.158761 0
M  V30 12 N 3.75218 -0.637176 -0.123602 0
M  V30 13 H -2.95975 1.40007 -0.0857595 0
M  V30 14 H -0.51215 3.0642 0.333603 0
M  V30 15 H -0.484722 2.71101 -1.41481 0
M  V30 16 H -1.73571 -2.604 0.636217 0
M  V30 17 H 4.30437 -0.826865 0.717239 0
M  V30 18 H 4.20558 -0.424694 -1.01885 0
M  V30 END ATOM
M  V30 BEGIN BOND
M  V30 1 1 1 2
M  V30 2 2 2 3
M  V30 3 1 3 4
M  V30 4 1 4 5
M  V30 5 2 4 6
M  V30 6 1 6 7
M  V30 7 2 7 8
M  V30 8 1 7 9
M  V30 9 1 9 10
M  V30 10 2 10 11
M  V30 11 1 10 12
M  V30 12 1 8 2
M  V30 13 1 11 6
M  V30 14 1 3 13
M  V30 15 1 5 14
M  V30 16 1 5 15
M  V30 17 1 8 16
M  V30 18 1 12 17
M  V30 19 1 12 18
M  V30 END BOND
M  V30 END CTAB
M  END
