
     RDKit          3D

  0  0  0  0  0  0  0  0  0  0999 V3000
M  V30 BEGIN CTAB
M  V30 COUNTS 28 28 0 0 0
M  V30 BEGIN ATOM
M  V30 1 N -2.14132 1.79226 -1.11597 0
M  V30 2 C -2.17809 0.450223 -0.612169 0
M  V30 3 C -1.1414 0.172343 0.458428 0
M  V30 4 N 0.199473 0.346645 0.0947515 0
M  V30 5 C 0.970914 1.35824 0.791138 0
M  V30 6 O 0.48847 2.13293 1.64989 0
M  V30 7 C 2.41882 1.39734 0.388046 0
M  V30 8 C 2.8605 -0.0452332 0.36767 0
M  V30 9 C 2.26158 -0.745827 -0.821681 0
M  V30 10 C 0.825413 -0.422598 -0.921136 0
M  V30 11 O 0.152524 -0.834062 -1.91742 0
M  V30 12 C -1.52557 -1.1644 1.03447 0
M  V30 13 N -1.5404 -2.24762 0.110832 0
M  V30 14 H -3.1225 2.1247 -1.23296 0
M  V30 15 H -1.65733 1.85997 -2.05467 0
M  V30 16 H -3.20252 0.234716 -0.171072 0
M  V30 17 H -2.13487 -0.228609 -1.48056 0
M  V30 18 H -1.37967 0.906408 1.29228 0
M  V30 19 H 3.0124 2.02697 1.06796 0
M  V30 20 H 2.49235 1.76786 -0.658205 0
M  V30 21 H 3.967 -0.144943 0.362844 0
M  V30 22 H 2.42856 -0.554335 1.27762 0
M  V30 23 H 2.72059 -0.366272 -1.76804 0
M  V30 24 H 2.44203 -1.84681 -0.766724 0
M  V30 25 H -2.60551 -1.03143 1.33824 0
M  V30 26 H -1.0323 -1.38386 2.00252 0
M  V30 27 H -2.40316 -2.41022 -0.399321 0
M  V30 28 H -1.176 -3.14438 0.484192 0
M  V30 END ATOM
M  V30 BEGIN BOND
M  V30 1 1 1 2
M  V30 2 1 2 3
M  V30 3 1 3 4
M  V30 4 1 4 5
M  V30 5 2 5 6
M  V30 6 1 5 7
M  V30 7 1 7 8
M  V30 8 1 8 9
M  V30 9 1 9 10
M  V30 10 2 10 11
M  V30 11 1 3 12
M  V30 12 1 12 13
M  V30 13 1 10 4
M  V30 14 1 1 14
M  V30 15 1 1 15
M  V30 16 1 2 16
M  V30 17 1 2 17
M  V30 18 1 3 18
M  V30 19 1 7 19
M  V30 20 1 7 20
M  V30 21 1 8 21
M  V30 22 1 8 22
M  V30 23 1 9 23
M  V30 24 1 9 24
M  V30 25 1 12 25
M  V30 26 1 12 26
M  V30 27 1 13 27
M  V30 28 1 13 28
M  V30 END BOND
M  V30 END CTAB
M  END
