
     RDKit          3D

  0  0  0  0  0  0  0  0  0  0999 V3000
M  V30 BEGIN CTAB
M  V30 COUNTS 46 48 0 0 0
M  V30 BEGIN ATOM
M  V30 1 C -2.65892 -0.817858 -1.98401 0
M  V30 2 C -3.41989 0.0740103 -0.994756 0
M  V30 3 C -3.83844 1.35389 -1.71275 0
M  V30 4 N -4.62576 -0.628049 -0.661593 0
M  V30 5 C -4.98932 -0.980836 0.513442 0
M  V30 6 N -6.24215 -1.69102 0.713197 0
M  V30 7 N -4.16117 -0.673819 1.61829 0
M  V30 8 C -3.06014 -0.0480962 1.43074 0
M  V30 9 N -2.22925 0.25608 2.56862 0
M  V30 10 N -2.59472 0.373286 0.157123 0
M  V30 11 C -1.35951 1.06438 0.0304694 0
M  V30 12 C -1.28344 2.43662 0.0993476 0
M  V30 13 C -0.113273 3.14925 -0.0172743 0
M  V30 14 C 1.07061 2.42855 -0.218396 0
M  V30 15 C 1.04789 1.05304 -0.294651 0
M  V30 16 C 2.3246 0.335874 -0.508063 0
M  V30 17 N 2.96877 -0.00220631 0.748281 0
M  V30 18 C 4.20841 -0.695869 0.686457 0
M  V30 19 C 4.88005 -1.05093 1.84683 0
M  V30 20 C 6.09074 -1.72771 1.82344 0
M  V30 21 C 6.66708 -2.07067 0.617224 0
M  V30 22 Cl 8.19633 -2.92497 0.618587 0
M  V30 23 C 6.01906 -1.72897 -0.552521 0
M  V30 24 C 4.80105 -1.0476 -0.500754 0
M  V30 25 C -0.150242 0.392757 -0.171242 0
M  V30 26 H -2.383 -1.74464 -1.44483 0
M  V30 27 H -1.81851 -0.296976 -2.44948 0
M  V30 28 H -3.44075 -1.14025 -2.73192 0
M  V30 29 H -4.27201 2.01328 -0.931164 0
M  V30 30 H -4.66295 1.07769 -2.39395 0
M  V30 31 H -3.00012 1.84141 -2.21962 0
M  V30 32 H -7.14504 -1.18515 0.795275 0
M  V30 33 H -6.17544 -2.71188 0.766928 0
M  V30 34 H -2.22666 1.23407 2.8955 0
M  V30 35 H -1.66473 -0.519599 3.01662 0
M  V30 36 H -2.19675 2.98789 0.254239 0
M  V30 37 H -0.0717014 4.22968 0.0394228 0
M  V30 38 H 2.02427 2.92666 -0.318204 0
M  V30 39 H 3.04056 1.02675 -1.03593 0
M  V30 40 H 2.2369 -0.552088 -1.14364 0
M  V30 41 H 2.5598 0.242106 1.65894 0
M  V30 42 H 4.4461 -0.791854 2.80392 0
M  V30 43 H 6.61384 -2.00419 2.72997 0
M  V30 44 H 6.48135 -2.0036 -1.49337 0
M  V30 45 H 4.30007 -0.783654 -1.41724 0
M  V30 46 H -0.193578 -0.674782 -0.226959 0
M  V30 END ATOM
M  V30 BEGIN BOND
M  V30 1 1 1 2
M  V30 2 1 2 3
M  V30 3 1 2 4
M  V30 4 2 4 5
M  V30 5 1 5 6
M  V30 6 1 5 7
M  V30 7 2 7 8
M  V30 8 1 8 9
M  V30 9 1 8 10
M  V30 10 1 10 11
M  V30 11 2 11 12
M  V30 12 1 12 13
M  V30 13 2 13 14
M  V30 14 1 14 15
M  V30 15 1 15 16
M  V30 16 1 16 17
M  V30 17 1 17 18
M  V30 18 2 18 19
M  V30 19 1 19 20
M  V30 20 2 20 21
M  V30 21 1 21 22
M  V30 22 1 21 23
M  V30 23 2 23 24
M  V30 24 2 15 25
M  V30 25 1 10 2
M  V30 26 1 25 11
M  V30 27 1 24 18
M  V30 28 1 1 26
M  V30 29 1 1 27
M  V30 30 1 1 28
M  V30 31 1 3 29
M  V30 32 1 3 30
M  V30 33 1 3 31
M  V30 34 1 6 32
M  V30 35 1 6 33
M  V30 36 1 9 34
M  V30 37 1 9 35
M  V30 38 1 12 36
M  V30 39 1 13 37
M  V30 40 1 14 38
M  V30 41 1 16 39
M  V30 42 1 16 40
M  V30 43 1 17 41
M  V30 44 1 19 42
M  V30 45 1 20 43
M  V30 46 1 23 44
M  V30 47 1 24 45
M  V30 48 1 25 46
M  V30 END BOND
M  V30 END CTAB
M  END
