
     RDKit          3D

  0  0  0  0  0  0  0  0  0  0999 V3000
M  V30 BEGIN CTAB
M  V30 COUNTS 25 25 0 0 0
M  V30 BEGIN ATOM
M  V30 1 C 4.66589 -0.908043 -0.296316 0
M  V30 2 O 3.68456 -0.360139 0.531077 0
M  V30 3 C 2.35354 -0.195544 0.186695 0
M  V30 4 O 1.99158 -0.565719 -0.958841 0
M  V30 5 C 1.40406 0.402036 1.15831 0
M  V30 6 C 0.0350322 0.494439 0.609599 0
M  V30 7 C -0.397912 1.61377 -0.0839641 0
M  V30 8 C -1.68264 1.69249 -0.595095 0
M  V30 9 C -2.57679 0.66894 -0.436426 0
M  V30 10 C -2.16167 -0.455709 0.253095 0
M  V30 11 C -0.877837 -0.528222 0.76094 0
M  V30 12 N -3.03793 -1.56084 0.457286 0
M  V30 13 N -3.90069 0.691467 -0.93518 0
M  V30 14 H 4.73274 -0.443122 -1.29023 0
M  V30 15 H 4.58854 -2.0254 -0.384391 0
M  V30 16 H 5.65572 -0.734072 0.212694 0
M  V30 17 H 1.44905 -0.237704 2.07441 0
M  V30 18 H 1.81652 1.39198 1.43982 0
M  V30 19 H 0.32441 2.41331 -0.199131 0
M  V30 20 H -1.99845 2.57596 -1.13294 0
M  V30 21 H -0.56794 -1.40679 1.2943 0
M  V30 22 H -2.81656 -2.28933 1.15655 0
M  V30 23 H -3.90657 -1.61806 -0.113949 0
M  V30 24 H -4.74483 0.841707 -0.36539 0
M  V30 25 H -4.03185 0.542602 -1.97186 0
M  V30 END ATOM
M  V30 BEGIN BOND
M  V30 1 1 1 2
M  V30 2 1 2 3
M  V30 3 2 3 4
M  V30 4 1 3 5
M  V30 5 1 5 6
M  V30 6 2 6 7
M  V30 7 1 7 8
M  V30 8 2 8 9
M  V30 9 1 9 10
M  V30 10 2 10 11
M  V30 11 1 10 12
M  V30 12 1 9 13
M  V30 13 1 11 6
M  V30 14 1 1 14
M  V30 15 1 1 15
M  V30 16 1 1 16
M  V30 17 1 5 17
M  V30 18 1 5 18
M  V30 19 1 7 19
M  V30 20 1 8 20
M  V30 21 1 11 21
M  V30 22 1 12 22
M  V30 23 1 12 23
M  V30 24 1 13 24
M  V30 25 1 13 25
M  V30 END BOND
M  V30 END CTAB
M  END
