
     RDKit          3D

  0  0  0  0  0  0  0  0  0  0999 V3000
M  V30 BEGIN CTAB
M  V30 COUNTS 41 42 0 0 0
M  V30 BEGIN ATOM
M  V30 1 O -4.26607 -2.33753 -2.06129 0
M  V30 2 C -3.85699 -1.55894 -0.92175 0
M  V30 3 C -2.91017 -0.507879 -1.32422 0
M  V30 4 N -2.29749 0.387118 -0.448192 0
M  V30 5 C -0.832937 0.439898 -0.372856 0
M  V30 6 N -0.236961 1.55984 -0.898833 0
M  V30 7 C 1.0883 1.75273 -0.901564 0
M  V30 8 N 1.68165 2.93401 -1.45154 0
M  V30 9 C 1.86065 0.756144 -0.341288 0
M  V30 10 C 1.28165 -0.369863 0.188742 0
M  V30 11 C -0.118132 -0.552215 0.182074 0
M  V30 12 C -0.675648 -1.71975 0.78168 0
M  V30 13 N -1.09583 -2.66414 1.29031 0
M  V30 14 C 2.03362 -1.37181 0.758475 0
M  V30 15 C 3.41937 -1.18723 0.772825 0
M  V30 16 N 3.9548 -0.0717991 0.247592 0
M  V30 17 C 3.25224 0.917215 -0.312628 0
M  V30 18 N 3.84996 2.07688 -0.864233 0
M  V30 19 O 4.2531 -2.12238 1.3063 0
M  V30 20 C 5.62918 -2.10722 1.43473 0
M  V30 21 C -2.89165 1.37017 0.389077 0
M  V30 22 C -3.56418 1.01232 1.63556 0
M  V30 23 O -4.65052 0.18582 1.59668 0
M  V30 24 H -4.32871 -3.27008 -1.72987 0
M  V30 25 H -3.66186 -2.17596 -0.0636637 0
M  V30 26 H -4.87344 -1.06004 -0.692931 0
M  V30 27 H -2.10479 -1.07898 -1.95151 0
M  V30 28 H -3.40057 0.0593837 -2.21573 0
M  V30 29 H 1.93268 2.90648 -2.45331 0
M  V30 30 H 1.87063 3.79899 -0.917862 0
M  V30 31 H 1.62124 -2.25131 1.17742 0
M  V30 32 H 4.04924 2.91804 -0.287277 0
M  V30 33 H 4.11204 2.12032 -1.88065 0
M  V30 34 H 6.08918 -2.52625 0.50964 0
M  V30 35 H 5.98411 -1.04918 1.47477 0
M  V30 36 H 6.01487 -2.60409 2.34796 0
M  V30 37 H -3.72398 1.82873 -0.275086 0
M  V30 38 H -2.22609 2.28995 0.511101 0
M  V30 39 H -2.85644 0.66158 2.4433 0
M  V30 40 H -3.94578 1.98875 2.08688 0
M  V30 41 H -5.46025 0.622318 1.23117 0
M  V30 END ATOM
M  V30 BEGIN BOND
M  V30 1 1 1 2
M  V30 2 1 2 3
M  V30 3 1 3 4
M  V30 4 1 4 5
M  V30 5 2 5 6
M  V30 6 1 6 7
M  V30 7 1 7 8
M  V30 8 2 7 9
M  V30 9 1 9 10
M  V30 10 2 10 11
M  V30 11 1 11 12
M  V30 12 3 12 13
M  V30 13 1 10 14
M  V30 14 2 14 15
M  V30 15 1 15 16
M  V30 16 2 16 17
M  V30 17 1 17 18
M  V30 18 1 15 19
M  V30 19 1 19 20
M  V30 20 1 4 21
M  V30 21 1 21 22
M  V30 22 1 22 23
M  V30 23 1 11 5
M  V30 24 1 17 9
M  V30 25 1 1 24
M  V30 26 1 2 25
M  V30 27 1 2 26
M  V30 28 1 3 27
M  V30 29 1 3 28
M  V30 30 1 8 29
M  V30 31 1 8 30
M  V30 32 1 14 31
M  V30 33 1 18 32
M  V30 34 1 18 33
M  V30 35 1 20 34
M  V30 36 1 20 35
M  V30 37 1 20 36
M  V30 38 1 21 37
M  V30 39 1 21 38
M  V30 40 1 22 39
M  V30 41 1 22 40
M  V30 42 1 23 41
M  V30 END BOND
M  V30 END CTAB
M  END
