
     RDKit          3D

  0  0  0  0  0  0  0  0  0  0999 V3000
M  V30 BEGIN CTAB
M  V30 COUNTS 29 30 0 0 0
M  V30 BEGIN ATOM
M  V30 1 N -4.90491 -0.971425 -0.436251 0
M  V30 2 C -3.53063 -0.655737 -0.273304 0
M  V30 3 C -3.18514 0.671207 -0.0935916 0
M  V30 4 N -4.17347 1.67339 -0.0739679 0
M  V30 5 C -1.85722 1.00724 0.0672072 0
M  V30 6 C -0.891067 0.0342932 0.0487774 0
M  V30 7 C -1.24714 -1.27754 -0.130047 0
M  V30 8 C -2.59115 -1.63989 -0.295364 0
M  V30 9 C 0.525926 0.430829 0.231087 0
M  V30 10 O 0.727594 1.59188 0.680983 0
M  V30 11 N 1.5847 -0.411787 -0.0705029 0
M  V30 12 C 2.93682 -0.0840126 0.0978489 0
M  V30 13 C 3.86063 -0.762576 -0.720861 0
M  V30 14 C 5.18286 -0.470498 -0.543723 0
M  V30 15 N 5.61787 0.415288 0.357823 0
M  V30 16 C 4.74111 1.05926 1.13541 0
M  V30 17 C 3.35762 0.820071 1.02158 0
M  V30 18 H -5.14438 -1.55905 -1.28608 0
M  V30 19 H -5.64886 -0.663701 0.213708 0
M  V30 20 H -4.59881 1.93466 0.840253 0
M  V30 21 H -4.51229 2.17654 -0.917327 0
M  V30 22 H -1.56967 2.04972 0.209887 0
M  V30 23 H -0.477663 -2.02326 -0.137319 0
M  V30 24 H -2.84861 -2.6693 -0.433788 0
M  V30 25 H 1.35662 -1.38295 -0.461593 0
M  V30 26 H 3.56817 -1.48145 -1.45866 0
M  V30 27 H 5.92416 -0.966274 -1.14868 0
M  V30 28 H 5.06643 1.78138 1.87334 0
M  V30 29 H 2.73048 1.3737 1.70316 0
M  V30 END ATOM
M  V30 BEGIN BOND
M  V30 1 1 1 2
M  V30 2 2 2 3
M  V30 3 1 3 4
M  V30 4 1 3 5
M  V30 5 2 5 6
M  V30 6 1 6 7
M  V30 7 2 7 8
M  V30 8 1 6 9
M  V30 9 2 9 10
M  V30 10 1 9 11
M  V30 11 1 11 12
M  V30 12 2 12 13
M  V30 13 1 13 14
M  V30 14 2 14 15
M  V30 15 1 15 16
M  V30 16 2 16 17
M  V30 17 1 8 2
M  V30 18 1 17 12
M  V30 19 1 1 18
M  V30 20 1 1 19
M  V30 21 1 4 20
M  V30 22 1 4 21
M  V30 23 1 5 22
M  V30 24 1 7 23
M  V30 25 1 8 24
M  V30 26 1 11 25
M  V30 27 1 13 26
M  V30 28 1 14 27
M  V30 29 1 16 28
M  V30 30 1 17 29
M  V30 END BOND
M  V30 END CTAB
M  END
