
     RDKit          3D

  0  0  0  0  0  0  0  0  0  0999 V3000
M  V30 BEGIN CTAB
M  V30 COUNTS 22 22 0 0 0
M  V30 BEGIN ATOM
M  V30 1 O 4.05681 -0.0403388 -0.225103 0
M  V30 2 C 2.69883 -0.237461 -0.236188 0
M  V30 3 O 2.14402 -0.7394 -1.23778 0
M  V30 4 C 1.87822 0.136433 0.926401 0
M  V30 5 C 0.43572 -0.127439 0.709984 0
M  V30 6 C -0.264995 0.769671 -0.0845278 0
M  V30 7 N 0.40337 1.90289 -0.645509 0
M  V30 8 C -1.5997 0.629287 -0.362733 0
M  V30 9 C -2.30535 -0.430013 0.147988 0
M  V30 10 C -1.61868 -1.33325 0.94277 0
M  V30 11 C -0.259741 -1.18349 1.22168 0
M  V30 12 Br 0.648757 -2.42711 2.31055 0
M  V30 13 N -3.66727 -0.539271 -0.156217 0
M  V30 14 H 4.64668 0.0742486 0.569514 0
M  V30 15 H 1.98222 1.24546 1.09822 0
M  V30 16 H 2.18986 -0.337868 1.87491 0
M  V30 17 H 0.510005 2.81264 -0.136335 0
M  V30 18 H 0.792392 1.79298 -1.60553 0
M  V30 19 H -2.10729 1.37032 -0.998014 0
M  V30 20 H -2.17954 -2.17421 1.34883 0
M  V30 21 H -4.35543 -0.814777 0.57097 0
M  V30 22 H -4.02888 -0.349301 -1.1098 0
M  V30 END ATOM
M  V30 BEGIN BOND
M  V30 1 1 1 2
M  V30 2 2 2 3
M  V30 3 1 2 4
M  V30 4 1 4 5
M  V30 5 2 5 6
M  V30 6 1 6 7
M  V30 7 1 6 8
M  V30 8 2 8 9
M  V30 9 1 9 10
M  V30 10 2 10 11
M  V30 11 1 11 12
M  V30 12 1 9 13
M  V30 13 1 11 5
M  V30 14 1 1 14
M  V30 15 1 4 15
M  V30 16 1 4 16
M  V30 17 1 7 17
M  V30 18 1 7 18
M  V30 19 1 8 19
M  V30 20 1 10 20
M  V30 21 1 13 21
M  V30 22 1 13 22
M  V30 END BOND
M  V30 END CTAB
M  END
