
     RDKit          3D

  0  0  0  0  0  0  0  0  0  0999 V3000
M  V30 BEGIN CTAB
M  V30 COUNTS 29 29 0 0 0
M  V30 BEGIN ATOM
M  V30 1 O 3.06074 -1.57557 0.397179 0
M  V30 2 C 3.4791 -0.300294 0.0464169 0
M  V30 3 C 2.65223 0.250374 -1.11026 0
M  V30 4 N 1.23299 0.268642 -0.688543 0
M  V30 5 N 0.305416 -0.626812 -0.89501 0
M  V30 6 C -0.847188 -0.229849 -0.292376 0
M  V30 7 C -0.591651 0.991395 0.317488 0
M  V30 8 C 0.731164 1.27346 0.0471466 0
M  V30 9 N 1.43892 2.43665 0.444627 0
M  V30 10 N -1.55666 1.79107 1.02831 0
M  V30 11 C -2.03324 -1.08425 -0.172453 0
M  V30 12 C -2.9348 -1.13528 -1.38696 0
M  V30 13 C -2.66974 -1.18091 1.17763 0
M  V30 14 H 3.87542 -2.12868 0.658263 0
M  V30 15 H 3.4578 0.406514 0.923183 0
M  V30 16 H 4.5479 -0.37636 -0.295935 0
M  V30 17 H 2.99328 1.22745 -1.44873 0
M  V30 18 H 2.7456 -0.469924 -1.9662 0
M  V30 19 H 2.1181 2.83976 -0.188106 0
M  V30 20 H 1.28659 2.8678 1.35787 0
M  V30 21 H -1.24712 2.28796 1.8746 0
M  V30 22 H -2.55191 1.89335 0.746237 0
M  V30 23 H -1.54945 -2.17906 -0.279584 0
M  V30 24 H -3.35227 -2.14057 -1.49363 0
M  V30 25 H -2.37341 -0.863353 -2.27752 0
M  V30 26 H -3.81596 -0.432766 -1.21798 0
M  V30 27 H -2.7746 -0.238147 1.7127 0
M  V30 28 H -1.99308 -1.82734 1.83967 0
M  V30 29 H -3.63417 -1.74526 1.14197 0
M  V30 END ATOM
M  V30 BEGIN BOND
M  V30 1 1 1 2
M  V30 2 1 2 3
M  V30 3 1 3 4
M  V30 4 1 4 5
M  V30 5 2 5 6
M  V30 6 1 6 7
M  V30 7 2 7 8
M  V30 8 1 8 9
M  V30 9 1 7 10
M  V30 10 1 6 11
M  V30 11 1 11 12
M  V30 12 1 11 13
M  V30 13 1 8 4
M  V30 14 1 1 14
M  V30 15 1 2 15
M  V30 16 1 2 16
M  V30 17 1 3 17
M  V30 18 1 3 18
M  V30 19 1 9 19
M  V30 20 1 9 20
M  V30 21 1 10 21
M  V30 22 1 10 22
M  V30 23 1 11 23
M  V30 24 1 12 24
M  V30 25 1 12 25
M  V30 26 1 12 26
M  V30 27 1 13 27
M  V30 28 1 13 28
M  V30 29 1 13 29
M  V30 END BOND
M  V30 END CTAB
M  END
