
     RDKit          3D

  0  0  0  0  0  0  0  0  0  0999 V3000
M  V30 BEGIN CTAB
M  V30 COUNTS 23 24 0 0 0
M  V30 BEGIN ATOM
M  V30 1 C -2.13814 1.51289 0.207295 0
M  V30 2 C -1.50854 0.210032 0.00333473 0
M  V30 3 C -2.25931 -0.959792 -0.206975 0
M  V30 4 C -1.73548 -2.19077 -0.400671 0
M  V30 5 C -0.374108 -2.34431 -0.3976 0
M  V30 6 C 0.440221 -1.23842 -0.196597 0
M  V30 7 C -0.136533 0.0118484 -0.000813658 0
M  V30 8 C 0.707233 1.05557 0.190423 0
M  V30 9 N 0.260708 2.35864 0.397075 0
M  V30 10 N 2.06054 0.881956 0.189989 0
M  V30 11 C 2.62424 -0.322944 0.00150156 0
M  V30 12 N 4.04838 -0.495313 0.00278179 0
M  V30 13 N 1.78364 -1.35148 -0.187175 0
M  V30 14 H -2.11345 1.92017 1.23621 0
M  V30 15 H -3.26335 1.29222 0.149222 0
M  V30 16 H -2.07816 2.23932 -0.613895 0
M  V30 17 H -3.34856 -0.868233 -0.21464 0
M  V30 18 H -2.3897 -3.03769 -0.555255 0
M  V30 19 H 0.0974191 -3.31044 -0.548348 0
M  V30 20 H 0.118124 3.00631 -0.412834 0
M  V30 21 H 0.0606251 2.75825 1.33523 0
M  V30 22 H 4.49363 -1.06058 0.751012 0
M  V30 23 H 4.65056 -0.0672467 -0.72927 0
M  V30 END ATOM
M  V30 BEGIN BOND
M  V30 1 1 1 2
M  V30 2 2 2 3
M  V30 3 1 3 4
M  V30 4 2 4 5
M  V30 5 1 5 6
M  V30 6 2 6 7
M  V30 7 1 7 8
M  V30 8 1 8 9
M  V30 9 2 8 10
M  V30 10 1 10 11
M  V30 11 1 11 12
M  V30 12 2 11 13
M  V30 13 1 7 2
M  V30 14 1 13 6
M  V30 15 1 1 14
M  V30 16 1 1 15
M  V30 17 1 1 16
M  V30 18 1 3 17
M  V30 19 1 4 18
M  V30 20 1 5 19
M  V30 21 1 9 20
M  V30 22 1 9 21
M  V30 23 1 12 22
M  V30 24 1 12 23
M  V30 END BOND
M  V30 END CTAB
M  END
