
     RDKit          3D

  0  0  0  0  0  0  0  0  0  0999 V3000
M  V30 BEGIN CTAB
M  V30 COUNTS 29 30 0 0 0
M  V30 BEGIN ATOM
M  V30 1 C 5.13439 0.716803 0.744214 0
M  V30 2 O 3.88607 1.2759 0.387251 0
M  V30 3 C 2.78208 0.455217 0.19316 0
M  V30 4 C 2.91203 -0.906957 0.350918 0
M  V30 5 C 1.84722 -1.78281 0.171508 0
M  V30 6 C 0.622594 -1.23417 -0.178729 0
M  V30 7 C 0.444993 0.129475 -0.348277 0
M  V30 8 N -0.816376 0.665924 -0.706396 0
M  V30 9 N -1.91896 -0.161161 -0.899595 0
M  V30 10 C -2.96229 -0.0334313 -0.139088 0
M  V30 11 C -3.12876 0.921933 0.951074 0
M  V30 12 N -2.20202 1.9062 1.41302 0
M  V30 13 N -4.31563 0.684463 1.41956 0
M  V30 14 N -4.94064 -0.335982 0.738483 0
M  V30 15 C -4.19382 -0.810581 -0.20291 0
M  V30 16 N -4.49482 -1.86831 -1.11771 0
M  V30 17 C 1.54775 0.933506 -0.152942 0
M  V30 18 H 5.10706 0.154814 1.68851 0
M  V30 19 H 5.85998 1.55699 0.890592 0
M  V30 20 H 5.53111 0.0565222 -0.0624039 0
M  V30 21 H 3.87397 -1.35379 0.627499 0
M  V30 22 H 1.98292 -2.84873 0.303263 0
M  V30 23 H -0.214828 -1.88741 -0.323125 0
M  V30 24 H -0.895862 1.69342 -0.820855 0
M  V30 25 H -2.15815 2.87665 0.996876 0
M  V30 26 H -1.52029 1.72253 2.18319 0
M  V30 27 H -4.58106 -1.68471 -2.14631 0
M  V30 28 H -4.63643 -2.847 -0.790293 0
M  V30 29 H 1.44777 2.0047 -0.276476 0
M  V30 END ATOM
M  V30 BEGIN BOND
M  V30 1 1 1 2
M  V30 2 1 2 3
M  V30 3 2 3 4
M  V30 4 1 4 5
M  V30 5 2 5 6
M  V30 6 1 6 7
M  V30 7 1 7 8
M  V30 8 1 8 9
M  V30 9 2 9 10
M  V30 10 1 10 11
M  V30 11 1 11 12
M  V30 12 2 11 13
M  V30 13 1 13 14
M  V30 14 2 14 15
M  V30 15 1 15 16
M  V30 16 2 7 17
M  V30 17 1 17 3
M  V30 18 1 15 10
M  V30 19 1 1 18
M  V30 20 1 1 19
M  V30 21 1 1 20
M  V30 22 1 4 21
M  V30 23 1 5 22
M  V30 24 1 6 23
M  V30 25 1 8 24
M  V30 26 1 12 25
M  V30 27 1 12 26
M  V30 28 1 16 27
M  V30 29 1 16 28
M  V30 30 1 17 29
M  V30 END BOND
M  V30 END CTAB
M  END
