
     RDKit          3D

  0  0  0  0  0  0  0  0  0  0999 V3000
M  V30 BEGIN CTAB
M  V30 COUNTS 22 22 0 0 0
M  V30 BEGIN ATOM
M  V30 1 C 3.79734 0.0225299 0.38426 0
M  V30 2 O 2.46694 0.367397 0.048431 0
M  V30 3 C 1.43951 -0.463086 0.415575 0
M  V30 4 O 1.72334 -1.51333 1.04509 0
M  V30 5 C 0.0296027 -0.165357 0.0983754 0
M  V30 6 C -0.953383 -1.04492 0.498201 0
M  V30 7 C -2.29691 -0.816911 0.227753 0
M  V30 8 N -3.29792 -1.73564 0.648072 0
M  V30 9 C -2.60161 0.337556 -0.463477 0
M  V30 10 C -1.61929 1.22796 -0.869561 0
M  V30 11 C -0.286707 0.984781 -0.591592 0
M  V30 12 N 0.710294 1.90979 -1.01591 0
M  V30 13 F -3.90219 0.592307 -0.744726 0
M  V30 14 H 3.82804 -0.97875 0.898719 0
M  V30 15 H 4.25936 0.806696 1.03376 0
M  V30 16 H 4.43575 -0.101516 -0.533013 0
M  V30 17 H -0.731947 -1.96278 1.04559 0
M  V30 18 H -3.61241 -2.51337 0.0251616 0
M  V30 19 H -3.71049 -1.59825 1.61792 0
M  V30 20 H -1.85094 2.1351 -1.41189 0
M  V30 21 H 0.808507 2.87134 -0.602791 0
M  V30 22 H 1.36511 1.63846 -1.75394 0
M  V30 END ATOM
M  V30 BEGIN BOND
M  V30 1 1 1 2
M  V30 2 1 2 3
M  V30 3 2 3 4
M  V30 4 1 3 5
M  V30 5 2 5 6
M  V30 6 1 6 7
M  V30 7 1 7 8
M  V30 8 2 7 9
M  V30 9 1 9 10
M  V30 10 2 10 11
M  V30 11 1 11 12
M  V30 12 1 9 13
M  V30 13 1 11 5
M  V30 14 1 1 14
M  V30 15 1 1 15
M  V30 16 1 1 16
M  V30 17 1 6 17
M  V30 18 1 8 18
M  V30 19 1 8 19
M  V30 20 1 10 20
M  V30 21 1 12 21
M  V30 22 1 12 22
M  V30 END BOND
M  V30 END CTAB
M  END
