
     RDKit          3D

  0  0  0  0  0  0  0  0  0  0999 V3000
M  V30 BEGIN CTAB
M  V30 COUNTS 24 25 0 0 0
M  V30 BEGIN ATOM
M  V30 1 N 3.50189 -2.29295 -0.55506 0
M  V30 2 C 2.84193 -1.05476 -0.313862 0
M  V30 3 N 1.52381 -0.821207 -0.216854 0
M  V30 4 N 1.24712 0.445216 0.0126228 0
M  V30 5 C -0.0102751 1.08484 0.176675 0
M  V30 6 O -0.0410232 2.34296 0.403965 0
M  V30 7 C -1.30039 0.391275 0.103675 0
M  V30 8 C -1.52704 -0.70567 -0.699205 0
M  V30 9 C -2.76465 -1.32726 -0.721923 0
M  V30 10 C -3.81353 -0.877118 0.0521447 0
M  V30 11 C -3.59523 0.220602 0.858443 0
M  V30 12 C -2.37277 0.844553 0.889181 0
M  V30 13 C 2.45686 1.07958 0.069392 0
M  V30 14 N 2.61576 2.47148 0.301813 0
M  V30 15 N 3.40724 0.150843 -0.131128 0
M  V30 16 H 3.78164 -2.92217 0.227523 0
M  V30 17 H 3.73503 -2.62726 -1.51461 0
M  V30 18 H -0.727214 -1.10151 -1.34123 0
M  V30 19 H -2.91784 -2.19814 -1.36948 0
M  V30 20 H -4.78004 -1.38107 0.0195153 0
M  V30 21 H -4.41502 0.602137 1.48743 0
M  V30 22 H -2.18417 1.71462 1.52207 0
M  V30 23 H 2.43452 3.12407 -0.488795 0
M  V30 24 H 2.9034 2.83694 1.22769 0
M  V30 END ATOM
M  V30 BEGIN BOND
M  V30 1 1 1 2
M  V30 2 2 2 3
M  V30 3 1 3 4
M  V30 4 1 4 5
M  V30 5 2 5 6
M  V30 6 1 5 7
M  V30 7 2 7 8
M  V30 8 1 8 9
M  V30 9 2 9 10
M  V30 10 1 10 11
M  V30 11 2 11 12
M  V30 12 1 4 13
M  V30 13 1 13 14
M  V30 14 2 13 15
M  V30 15 1 15 2
M  V30 16 1 12 7
M  V30 17 1 1 16
M  V30 18 1 1 17
M  V30 19 1 8 18
M  V30 20 1 9 19
M  V30 21 1 10 20
M  V30 22 1 11 21
M  V30 23 1 12 22
M  V30 24 1 14 23
M  V30 25 1 14 24
M  V30 END BOND
M  V30 END CTAB
M  END
