
     RDKit          3D

  0  0  0  0  0  0  0  0  0  0999 V3000
M  V30 BEGIN CTAB
M  V30 COUNTS 29 29 0 0 0
M  V30 BEGIN ATOM
M  V30 1 N 3.90584 -1.59389 -0.861558 0
M  V30 2 C 2.61703 -1.06427 -1.14944 0
M  V30 3 N 2.00394 -0.886456 -2.33093 0
M  V30 4 O 0.83976 -0.376247 -2.1427 0
M  V30 5 C 0.608429 -0.18722 -0.87024 0
M  V30 6 N 1.71668 -0.615444 -0.239531 0
M  V30 7 C -0.640529 0.384543 -0.32443 0
M  V30 8 C -0.324413 1.68917 0.348184 0
M  V30 9 N 0.254069 2.6169 -0.606154 0
M  V30 10 C -1.51191 2.34486 0.983882 0
M  V30 11 C -1.35463 -0.590388 0.561855 0
M  V30 12 C -1.68343 -1.81341 -0.2785 0
M  V30 13 C -0.581216 -1.02791 1.75371 0
M  V30 14 H 4.54667 -1.20282 -0.136746 0
M  V30 15 H 4.25485 -2.42114 -1.39142 0
M  V30 16 H -1.31854 0.61375 -1.169 0
M  V30 17 H 0.439831 1.5176 1.1345 0
M  V30 18 H -0.489793 2.9198 -1.27298 0
M  V30 19 H 0.969822 2.1042 -1.17832 0
M  V30 20 H -1.16664 3.30891 1.41243 0
M  V30 21 H -1.93869 1.76719 1.82439 0
M  V30 22 H -2.28899 2.60871 0.231136 0
M  V30 23 H -2.32129 -0.147116 0.857249 0
M  V30 24 H -1.69731 -2.72726 0.35145 0
M  V30 25 H -2.68099 -1.70976 -0.775704 0
M  V30 26 H -0.882567 -1.97258 -1.03177 0
M  V30 27 H -0.0696066 -2.00452 1.55384 0
M  V30 28 H 0.105106 -0.276446 2.16753 0
M  V30 29 H -1.31149 -1.25877 2.57927 0
M  V30 END ATOM
M  V30 BEGIN BOND
M  V30 1 1 1 2
M  V30 2 2 2 3
M  V30 3 1 3 4
M  V30 4 1 4 5
M  V30 5 2 5 6
M  V30 6 1 5 7
M  V30 7 1 7 8
M  V30 8 1 8 9
M  V30 9 1 8 10
M  V30 10 1 7 11
M  V30 11 1 11 12
M  V30 12 1 11 13
M  V30 13 1 6 2
M  V30 14 1 1 14
M  V30 15 1 1 15
M  V30 16 1 7 16
M  V30 17 1 8 17
M  V30 18 1 9 18
M  V30 19 1 9 19
M  V30 20 1 10 20
M  V30 21 1 10 21
M  V30 22 1 10 22
M  V30 23 1 11 23
M  V30 24 1 12 24
M  V30 25 1 12 25
M  V30 26 1 12 26
M  V30 27 1 13 27
M  V30 28 1 13 28
M  V30 29 1 13 29
M  V30 END BOND
M  V30 END CTAB
M  END
