
     RDKit          3D

  0  0  0  0  0  0  0  0  0  0999 V3000
M  V30 BEGIN CTAB
M  V30 COUNTS 20 20 0 0 0
M  V30 BEGIN ATOM
M  V30 1 N -4.1559 -0.0638425 -0.269696 0
M  V30 2 C -2.79428 0.401105 -0.118792 0
M  V30 3 S -2.524 1.9767 0.0595737 0
M  V30 4 N -1.76686 -0.5351 -0.167593 0
M  V30 5 C -0.417856 -0.262463 -0.0234968 0
M  V30 6 C 0.104797 0.725745 0.753853 0
M  V30 7 C 1.49168 0.922467 0.788977 0
M  V30 8 C 2.34103 0.123744 0.0434166 0
M  V30 9 C 1.82042 -0.877971 -0.744082 0
M  V30 10 C 0.461779 -1.06191 -0.771826 0
M  V30 11 Cl 2.93082 -1.86607 -1.67111 0
M  V30 12 N 3.73361 0.339565 0.0939632 0
M  V30 13 H -4.78968 0.520847 -0.854167 0
M  V30 14 H -4.44946 -0.945158 0.199139 0
M  V30 15 H -2.04343 -1.55895 -0.327677 0
M  V30 16 H -0.450331 1.39098 1.39007 0
M  V30 17 H 1.88963 1.71897 1.41655 0
M  V30 18 H 0.0799115 -1.86385 -1.40551 0
M  V30 19 H 4.08035 1.32579 0.135874 0
M  V30 20 H 4.45775 -0.4106 0.0931333 0
M  V30 END ATOM
M  V30 BEGIN BOND
M  V30 1 1 1 2
M  V30 2 2 2 3
M  V30 3 1 2 4
M  V30 4 1 4 5
M  V30 5 2 5 6
M  V30 6 1 6 7
M  V30 7 2 7 8
M  V30 8 1 8 9
M  V30 9 2 9 10
M  V30 10 1 9 11
M  V30 11 1 8 12
M  V30 12 1 10 5
M  V30 13 1 1 13
M  V30 14 1 1 14
M  V30 15 1 4 15
M  V30 16 1 6 16
M  V30 17 1 7 17
M  V30 18 1 10 18
M  V30 19 1 12 19
M  V30 20 1 12 20
M  V30 END BOND
M  V30 END CTAB
M  END
