
     RDKit          3D

  0  0  0  0  0  0  0  0  0  0999 V3000
M  V30 BEGIN CTAB
M  V30 COUNTS 49 51 0 0 0
M  V30 BEGIN ATOM
M  V30 1 C -3.88134 3.24856 1.43287 0
M  V30 2 C -3.08714 2.25844 2.22375 0
M  V30 3 O -2.65084 1.13532 1.52628 0
M  V30 4 C -3.53862 0.227884 0.965906 0
M  V30 5 C -4.88211 0.327618 1.05202 0
M  V30 6 C -5.77513 -0.580063 0.494061 0
M  V30 7 C -5.21024 -1.6271 -0.176629 0
M  V30 8 C -3.84301 -1.77116 -0.291014 0
M  V30 9 C -2.98211 -0.887969 0.25253 0
M  V30 10 C -1.53327 -0.868169 0.201197 0
M  V30 11 N -0.741902 -1.8636 -0.384199 0
M  V30 12 C 0.670071 -1.54408 -0.632215 0
M  V30 13 C 1.20401 -0.342984 -0.24976 0
M  V30 14 C 2.54223 -0.0610583 -0.507891 0
M  V30 15 N 3.27287 -0.997514 -1.13466 0
M  V30 16 C 2.76121 -2.18507 -1.51723 0
M  V30 17 N 1.46696 -2.42874 -1.25479 0
M  V30 18 N 3.53347 -3.17484 -2.18055 0
M  V30 19 C 3.18465 1.2204 -0.124316 0 CFG=2
M  V30 20 C 3.9887 1.86639 -1.23299 0
M  V30 21 C 5.11891 2.02532 -0.238189 0 CFG=1
M  V30 22 C 4.47223 1.00161 0.649028 0
M  V30 23 N 6.37249 1.59342 -0.801453 0
M  V30 24 C -1.10761 -3.20813 -0.739221 0
M  V30 25 Cl -6.29469 -2.82227 -0.913095 0
M  V30 26 H -4.15411 2.8686 0.418557 0
M  V30 27 H -4.82908 3.45949 1.96056 0
M  V30 28 H -3.36378 4.23264 1.33324 0
M  V30 29 H -2.19769 2.81072 2.62387 0
M  V30 30 H -3.68455 1.96965 3.13233 0
M  V30 31 H -5.35532 1.16125 1.60292 0
M  V30 32 H -6.83704 -0.432316 0.605308 0
M  V30 33 H -3.50902 -2.64741 -0.873508 0
M  V30 34 H -1.28716 0.150823 -0.313413 0
M  V30 35 H -1.16544 -0.62666 1.25247 0
M  V30 36 H 0.594672 0.382557 0.254645 0
M  V30 37 H 3.48572 -3.23895 -3.203 0
M  V30 38 H 4.12043 -3.79956 -1.6067 0
M  V30 39 H 2.48643 1.90437 0.386578 0
M  V30 40 H 3.60166 2.82896 -1.61895 0
M  V30 41 H 4.22053 1.13398 -2.05612 0
M  V30 42 H 5.13426 3.01845 0.245291 0
M  V30 43 H 4.89686 -0.0239547 0.462717 0
M  V30 44 H 4.42978 1.29273 1.72076 0
M  V30 45 H 6.5923 2.26944 -1.58564 0
M  V30 46 H 7.13514 1.68154 -0.112951 0
M  V30 47 H -1.71293 -3.728 0.0601106 0
M  V30 48 H -1.49473 -3.33959 -1.7563 0
M  V30 49 H -0.166718 -3.87097 -0.748754 0
M  V30 END ATOM
M  V30 BEGIN BOND
M  V30 1 1 1 2
M  V30 2 1 2 3
M  V30 3 1 3 4
M  V30 4 2 4 5
M  V30 5 1 5 6
M  V30 6 2 6 7
M  V30 7 1 7 8
M  V30 8 2 8 9
M  V30 9 1 9 10
M  V30 10 1 10 11
M  V30 11 1 11 12
M  V30 12 2 12 13
M  V30 13 1 13 14
M  V30 14 2 14 15
M  V30 15 1 15 16
M  V30 16 2 16 17
M  V30 17 1 16 18
M  V30 18 1 14 19
M  V30 19 1 19 20
M  V30 20 1 20 21
M  V30 21 1 21 22
M  V30 22 1 21 23
M  V30 23 1 11 24
M  V30 24 1 7 25
M  V30 25 1 9 4
M  V30 26 1 17 12
M  V30 27 1 22 19
M  V30 28 1 1 26
M  V30 29 1 1 27
M  V30 30 1 1 28
M  V30 31 1 2 29
M  V30 32 1 2 30
M  V30 33 1 5 31
M  V30 34 1 6 32
M  V30 35 1 8 33
M  V30 36 1 10 34
M  V30 37 1 10 35
M  V30 38 1 13 36
M  V30 39 1 18 37
M  V30 40 1 18 38
M  V30 41 1 19 39 CFG=1
M  V30 42 1 20 40
M  V30 43 1 20 41
M  V30 44 1 21 42 CFG=1
M  V30 45 1 22 43
M  V30 46 1 22 44
M  V30 47 1 23 45
M  V30 48 1 23 46
M  V30 49 1 24 47
M  V30 50 1 24 48
M  V30 51 1 24 49
M  V30 END BOND
M  V30 END CTAB
M  END
