
     RDKit          3D

  0  0  0  0  0  0  0  0  0  0999 V3000
M  V30 BEGIN CTAB
M  V30 COUNTS 50 53 0 0 0
M  V30 BEGIN ATOM
M  V30 1 N -3.36684 1.44479 -3.58514 0
M  V30 2 C -2.24814 1.26406 -3.3011 0
M  V30 3 C -0.867589 1.0324 -2.95059 0
M  V30 4 C 0.0643166 1.31446 -3.91271 0
M  V30 5 N -0.320266 1.80235 -5.17929 0
M  V30 6 N 1.34208 1.09904 -3.573 0
M  V30 7 C 1.66858 0.628367 -2.34007 0
M  V30 8 C 0.773918 0.330605 -1.34232 0
M  V30 9 C -0.555184 0.547216 -1.67681 0
M  V30 10 C -1.6951 0.294627 -0.786317 0
M  V30 11 C -2.472 -0.852291 -0.945122 0
M  V30 12 C -3.56788 -1.12244 -0.158961 0
M  V30 13 C -3.94309 -0.244582 0.838711 0
M  V30 14 C -3.18816 0.896287 1.01361 0
M  V30 15 C -2.08638 1.15449 0.212484 0
M  V30 16 C -5.13388 -0.483749 1.70418 0
M  V30 17 C -6.10668 0.695655 1.59849 0
M  V30 18 C -4.6944 -0.551528 3.1473 0
M  V30 19 C 1.2832 -0.119228 -0.184186 0
M  V30 20 N 0.497054 -0.49602 0.972484 0
M  V30 21 C 2.64602 -0.246205 -0.0858354 0
M  V30 22 S 3.17423 0.276026 -1.64267 0
M  V30 23 C 3.46454 -0.648901 1.04193 0
M  V30 24 O 2.89314 -0.885755 2.12925 0
M  V30 25 C 4.90088 -0.789952 0.988812 0
M  V30 26 C 5.62599 -1.12419 -0.131564 0
M  V30 27 C 6.99969 -1.2183 -0.172129 0
M  V30 28 C 7.69854 -0.962981 0.982296 0
M  V30 29 C 7.05004 -0.625479 2.13857 0
M  V30 30 C 5.65822 -0.536535 2.15212 0
M  V30 31 Br 9.60683 -1.06243 1.02404 0
M  V30 32 H 0.28544 1.75905 -6.02727 0
M  V30 33 H -1.27072 2.24038 -5.31928 0
M  V30 34 H -2.1488 -1.52807 -1.74623 0
M  V30 35 H -4.14846 -2.01069 -0.303465 0
M  V30 36 H -3.49102 1.58951 1.81103 0
M  V30 37 H -1.52381 2.04844 0.379948 0
M  V30 38 H -5.66059 -1.39498 1.37874 0
M  V30 39 H -5.5306 1.65076 1.64377 0
M  V30 40 H -6.66698 0.627495 0.621345 0
M  V30 41 H -6.82637 0.698773 2.42398 0
M  V30 42 H -4.30788 -1.57333 3.35891 0
M  V30 43 H -3.94584 0.246255 3.30982 0
M  V30 44 H -5.58404 -0.313039 3.79741 0
M  V30 45 H -0.00417954 -1.39948 0.918131 0
M  V30 46 H 0.421003 0.0823131 1.81768 0
M  V30 47 H 5.0698 -1.35228 -1.05782 0
M  V30 48 H 7.52629 -1.48271 -1.06814 0
M  V30 49 H 7.59954 -0.425033 3.04474 0
M  V30 50 H 5.10554 -0.273186 3.04024 0
M  V30 END ATOM
M  V30 BEGIN BOND
M  V30 1 3 1 2
M  V30 2 1 2 3
M  V30 3 2 3 4
M  V30 4 1 4 5
M  V30 5 1 4 6
M  V30 6 2 6 7
M  V30 7 1 7 8
M  V30 8 2 8 9
M  V30 9 1 9 10
M  V30 10 2 10 11
M  V30 11 1 11 12
M  V30 12 2 12 13
M  V30 13 1 13 14
M  V30 14 2 14 15
M  V30 15 1 13 16
M  V30 16 1 16 17
M  V30 17 1 16 18
M  V30 18 1 8 19
M  V30 19 1 19 20
M  V30 20 2 19 21
M  V30 21 1 21 22
M  V30 22 1 21 23
M  V30 23 2 23 24
M  V30 24 1 23 25
M  V30 25 2 25 26
M  V30 26 1 26 27
M  V30 27 2 27 28
M  V30 28 1 28 29
M  V30 29 2 29 30
M  V30 30 1 28 31
M  V30 31 1 9 3
M  V30 32 1 15 10
M  V30 33 1 30 25
M  V30 34 1 22 7
M  V30 35 1 5 32
M  V30 36 1 5 33
M  V30 37 1 11 34
M  V30 38 1 12 35
M  V30 39 1 14 36
M  V30 40 1 15 37
M  V30 41 1 16 38
M  V30 42 1 17 39
M  V30 43 1 17 40
M  V30 44 1 17 41
M  V30 45 1 18 42
M  V30 46 1 18 43
M  V30 47 1 18 44
M  V30 48 1 20 45
M  V30 49 1 20 46
M  V30 50 1 26 47
M  V30 51 1 27 48
M  V30 52 1 29 49
M  V30 53 1 30 50
M  V30 END BOND
M  V30 END CTAB
M  END
