
     RDKit          3D

  0  0  0  0  0  0  0  0  0  0999 V3000
M  V30 BEGIN CTAB
M  V30 COUNTS 21 20 0 0 0
M  V30 BEGIN ATOM
M  V30 1 N 2.74051 1.19991 0.29778 0
M  V30 2 C 2.8098 -0.219133 0.460673 0
M  V30 3 C 1.55493 -0.930194 0.130449 0
M  V30 4 C 0.439377 -0.350931 -0.292784 0
M  V30 5 C -0.772015 -1.15867 -0.598473 0
M  V30 6 N -1.91912 -0.817907 0.178969 0
M  V30 7 C -2.61127 0.409708 0.0339399 0
M  V30 8 N -3.72103 0.539698 -0.609799 0
M  V30 9 N -2.08182 1.57872 0.618648 0
M  V30 10 H 3.32821 1.50154 -0.514655 0
M  V30 11 H 3.12034 1.74286 1.12812 0
M  V30 12 H 3.67782 -0.626379 -0.144395 0
M  V30 13 H 3.07234 -0.454158 1.51799 0
M  V30 14 H 1.52905 -2.01049 0.240955 0
M  V30 15 H 0.458883 0.735063 -0.40328 0
M  V30 16 H -0.964438 -1.0665 -1.71287 0
M  V30 17 H -0.504482 -2.2212 -0.416567 0
M  V30 18 H -2.27863 -1.48826 0.888636 0
M  V30 19 H -4.09495 -0.364401 -1.03956 0
M  V30 20 H -1.72114 2.32915 0.015905 0
M  V30 21 H -2.06235 1.67157 1.64054 0
M  V30 END ATOM
M  V30 BEGIN BOND
M  V30 1 1 1 2
M  V30 2 1 2 3
M  V30 3 2 3 4
M  V30 4 1 4 5
M  V30 5 1 5 6
M  V30 6 1 6 7
M  V30 7 2 7 8 CFG=2
M  V30 8 1 7 9
M  V30 9 1 1 10
M  V30 10 1 1 11
M  V30 11 1 2 12
M  V30 12 1 2 13
M  V30 13 1 3 14
M  V30 14 1 4 15
M  V30 15 1 5 16
M  V30 16 1 5 17
M  V30 17 1 6 18
M  V30 18 1 8 19
M  V30 19 1 9 20
M  V30 20 1 9 21
M  V30 END BOND
M  V30 END CTAB
M  END
