
     RDKit          3D

  0  0  0  0  0  0  0  0  0  0999 V3000
M  V30 BEGIN CTAB
M  V30 COUNTS 38 40 0 0 0
M  V30 BEGIN ATOM
M  V30 1 O 1.06482 -0.798095 1.52943 0
M  V30 2 C 0.105602 -0.366085 0.840738 0
M  V30 3 N -1.16166 -0.997407 0.957734 0
M  V30 4 C -2.33795 -0.207777 0.644914 0
M  V30 5 C -3.46505 -1.15381 0.417183 0
M  V30 6 C -4.71044 -0.525382 -0.112949 0
M  V30 7 C -4.4678 0.569171 -1.10752 0
M  V30 8 C -3.32807 1.46696 -0.789592 0
M  V30 9 C -2.08099 0.587713 -0.595694 0
M  V30 10 C -0.876479 1.46399 -0.55779 0
M  V30 11 C 0.341787 0.773524 -0.0533026 0
M  V30 12 S 1.44362 0.213234 -1.40483 0
M  V30 13 C 3.04109 -0.159702 -0.716955 0
M  V30 14 N 3.95059 0.836416 -0.642931 0
M  V30 15 C 5.17528 0.680215 -0.152249 0
M  V30 16 N 6.07826 1.77609 -0.105298 0
M  V30 17 N 5.53356 -0.555343 0.301976 0
M  V30 18 C 4.65551 -1.5681 0.244108 0
M  V30 19 N 3.41365 -1.36541 -0.264915 0
M  V30 20 N 5.02247 -2.85112 0.713935 0
M  V30 21 H -1.23777 -1.97935 1.25353 0
M  V30 22 H -2.50522 0.48523 1.51617 0
M  V30 23 H -3.72895 -1.61557 1.40881 0
M  V30 24 H -3.08368 -1.99979 -0.202193 0
M  V30 25 H -5.37669 -0.17667 0.705748 0
M  V30 26 H -5.26806 -1.32875 -0.645905 0
M  V30 27 H -5.39697 1.2118 -1.0984 0
M  V30 28 H -4.3818 0.187095 -2.12286 0
M  V30 29 H -3.17016 2.13675 -1.65804 0
M  V30 30 H -3.53253 2.05243 0.140987 0
M  V30 31 H -2.07155 -0.108691 -1.45517 0
M  V30 32 H -0.662459 1.77867 -1.60589 0
M  V30 33 H -1.1173 2.37705 0.0267263 0
M  V30 34 H 0.934963 1.51994 0.562054 0
M  V30 35 H 5.85862 2.6815 0.359632 0
M  V30 36 H 7.00425 1.64633 -0.566327 0
M  V30 37 H 4.31863 -3.52203 1.1437 0
M  V30 38 H 6.01887 -3.16503 0.641858 0
M  V30 END ATOM
M  V30 BEGIN BOND
M  V30 1 2 1 2
M  V30 2 1 2 3
M  V30 3 1 3 4
M  V30 4 1 4 5
M  V30 5 1 5 6
M  V30 6 1 6 7
M  V30 7 1 7 8
M  V30 8 1 8 9
M  V30 9 1 9 10
M  V30 10 1 10 11
M  V30 11 1 11 12
M  V30 12 1 12 13
M  V30 13 2 13 14
M  V30 14 1 14 15
M  V30 15 1 15 16
M  V30 16 2 15 17
M  V30 17 1 17 18
M  V30 18 2 18 19
M  V30 19 1 18 20
M  V30 20 1 11 2
M  V30 21 1 19 13
M  V30 22 1 9 4
M  V30 23 1 3 21
M  V30 24 1 4 22
M  V30 25 1 5 23
M  V30 26 1 5 24
M  V30 27 1 6 25
M  V30 28 1 6 26
M  V30 29 1 7 27
M  V30 30 1 7 28
M  V30 31 1 8 29
M  V30 32 1 8 30
M  V30 33 1 9 31
M  V30 34 1 10 32
M  V30 35 1 10 33
M  V30 36 1 11 34
M  V30 37 1 16 35
M  V30 38 1 16 36
M  V30 39 1 20 37
M  V30 40 1 20 38
M  V30 END BOND
M  V30 END CTAB
M  END
