
     RDKit          3D

  0  0  0  0  0  0  0  0  0  0999 V3000
M  V30 BEGIN CTAB
M  V30 COUNTS 31 31 0 0 0
M  V30 BEGIN ATOM
M  V30 1 C 3.66706 0.159414 0.238759 0
M  V30 2 C 2.1871 0.0998251 0.144768 0
M  V30 3 C 1.4232 1.1561 0.603568 0
M  V30 4 N 2.06782 2.28156 1.15755 0
M  V30 5 C 0.036566 1.12452 0.527718 0
M  V30 6 C -0.585516 0.0184643 -0.0153073 0
M  V30 7 C 0.163635 -1.04376 -0.47746 0
M  V30 8 C 1.54473 -0.999991 -0.39621 0
M  V30 9 N 2.31002 -2.09266 -0.87169 0
M  V30 10 C -2.05389 -0.0753705 -0.124021 0
M  V30 11 C -2.43752 -1.53522 -0.0382419 0
M  V30 12 C -2.78395 0.64864 0.975103 0
M  V30 13 C -2.45004 0.5087 -1.46857 0
M  V30 14 H 4.15293 -0.131996 -0.720534 0
M  V30 15 H 3.9789 1.19867 0.452583 0
M  V30 16 H 4.05236 -0.482934 1.04005 0
M  V30 17 H 2.57589 2.93566 0.544806 0
M  V30 18 H 2.03254 2.45241 2.17314 0
M  V30 19 H -0.544185 1.97933 0.9003 0
M  V30 20 H -0.276753 -1.93216 -0.911784 0
M  V30 21 H 2.91837 -1.9696 -1.68855 0
M  V30 22 H 2.22344 -2.99514 -0.36399 0
M  V30 23 H -2.31089 -2.07707 -0.992325 0
M  V30 24 H -1.76447 -2.02671 0.699933 0
M  V30 25 H -3.50857 -1.65291 0.251614 0
M  V30 26 H -3.56421 -0.00582168 1.46433 0
M  V30 27 H -2.14241 1.05384 1.75915 0
M  V30 28 H -3.37715 1.49327 0.541306 0
M  V30 29 H -3.52065 0.356697 -1.68845 0
M  V30 30 H -1.8698 -0.00960045 -2.24453 0
M  V30 31 H -2.14453 1.56382 -1.47301 0
M  V30 END ATOM
M  V30 BEGIN BOND
M  V30 1 1 1 2
M  V30 2 2 2 3
M  V30 3 1 3 4
M  V30 4 1 3 5
M  V30 5 2 5 6
M  V30 6 1 6 7
M  V30 7 2 7 8
M  V30 8 1 8 9
M  V30 9 1 6 10
M  V30 10 1 10 11
M  V30 11 1 10 12
M  V30 12 1 10 13
M  V30 13 1 8 2
M  V30 14 1 1 14
M  V30 15 1 1 15
M  V30 16 1 1 16
M  V30 17 1 4 17
M  V30 18 1 4 18
M  V30 19 1 5 19
M  V30 20 1 7 20
M  V30 21 1 9 21
M  V30 22 1 9 22
M  V30 23 1 11 23
M  V30 24 1 11 24
M  V30 25 1 11 25
M  V30 26 1 12 26
M  V30 27 1 12 27
M  V30 28 1 12 28
M  V30 29 1 13 29
M  V30 30 1 13 30
M  V30 31 1 13 31
M  V30 END BOND
M  V30 END CTAB
M  END
