
     RDKit          3D

  0  0  0  0  0  0  0  0  0  0999 V3000
M  V30 BEGIN CTAB
M  V30 COUNTS 24 25 0 0 0
M  V30 BEGIN ATOM
M  V30 1 N -3.16064 -0.343248 -0.374405 0
M  V30 2 C -1.89419 -1.05661 -0.322784 0
M  V30 3 C -0.833321 -0.0795377 -0.12307 0
M  V30 4 C -1.12005 1.26063 -0.0176467 0
M  V30 5 C -0.0950595 2.16318 0.171185 0
M  V30 6 N -0.37137 3.57575 0.284818 0
M  V30 7 N 1.17475 1.72343 0.25033 0
M  V30 8 C 1.4659 0.415448 0.148533 0
M  V30 9 C 0.4724 -0.522623 -0.0407831 0
M  V30 10 C 0.739671 -1.87067 -0.148877 0
M  V30 11 C 2.04724 -2.31916 -0.0669552 0
M  V30 12 C 3.0751 -1.40377 0.123429 0
M  V30 13 C 2.76178 -0.0702558 0.225626 0
M  V30 14 H -3.27926 0.0934658 0.568161 0
M  V30 15 H -3.95482 -1.01395 -0.483786 0
M  V30 16 H -2.01589 -1.79259 0.485728 0
M  V30 17 H -1.78521 -1.54285 -1.32568 0
M  V30 18 H -2.12719 1.66402 -0.0749985 0
M  V30 19 H 0.114533 4.20427 -0.379423 0
M  V30 20 H -1.01911 3.95017 0.989404 0
M  V30 21 H -0.0911923 -2.54568 -0.296321 0
M  V30 22 H 2.26571 -3.37623 -0.150858 0
M  V30 23 H 4.09014 -1.76821 0.185399 0
M  V30 24 H 3.54008 0.655029 0.372975 0
M  V30 END ATOM
M  V30 BEGIN BOND
M  V30 1 1 1 2
M  V30 2 1 2 3
M  V30 3 2 3 4
M  V30 4 1 4 5
M  V30 5 1 5 6
M  V30 6 2 5 7
M  V30 7 1 7 8
M  V30 8 2 8 9
M  V30 9 1 9 10
M  V30 10 2 10 11
M  V30 11 1 11 12
M  V30 12 2 12 13
M  V30 13 1 9 3
M  V30 14 1 13 8
M  V30 15 1 1 14
M  V30 16 1 1 15
M  V30 17 1 2 16
M  V30 18 1 2 17
M  V30 19 1 4 18
M  V30 20 1 6 19
M  V30 21 1 6 20
M  V30 22 1 10 21
M  V30 23 1 11 22
M  V30 24 1 12 23
M  V30 25 1 13 24
M  V30 END BOND
M  V30 END CTAB
M  END
