
     RDKit          3D

  0  0  0  0  0  0  0  0  0  0999 V3000
M  V30 BEGIN CTAB
M  V30 COUNTS 34 35 0 0 0
M  V30 BEGIN ATOM
M  V30 1 N 4.70504 1.33273 -1.19724 0
M  V30 2 C 3.55997 1.07682 -0.399734 0
M  V30 3 N 3.33096 1.35343 0.891985 0
M  V30 4 N 2.11142 0.938785 1.25063 0
M  V30 5 C 1.49609 0.373221 0.200758 0
M  V30 6 C 2.39288 0.451922 -0.844312 0
M  V30 7 C 0.145717 -0.212238 0.161522 0 CFG=1
M  V30 8 C 0.165736 -1.5362 0.907507 0
M  V30 9 C -0.671835 -2.59489 0.241881 0
M  V30 10 C -2.13671 -2.41883 0.409749 0
M  V30 11 C -2.60608 -1.00081 0.184648 0
M  V30 12 C -2.04378 -0.0400053 1.17143 0
M  V30 13 N -0.824556 0.601479 0.781623 0
M  V30 14 S -1.00286 2.17922 0.207426 0
M  V30 15 O 0.184182 3.04999 0.31997 0
M  V30 16 O -2.17933 2.80777 0.941296 0
M  V30 17 N -1.48394 2.07986 -1.45266 0
M  V30 18 H 4.57003 1.65766 -2.16529 0
M  V30 19 H 5.66206 1.20056 -0.828817 0
M  V30 20 H 1.72064 1.04857 2.20362 0
M  V30 21 H 2.22842 0.0926295 -1.84376 0
M  V30 22 H -0.105508 -0.482805 -0.90575 0
M  V30 23 H 1.2167 -1.91434 0.880607 0
M  V30 24 H -0.0738131 -1.43082 1.98515 0
M  V30 25 H -0.352211 -2.63696 -0.824147 0
M  V30 26 H -0.380524 -3.5683 0.702953 0
M  V30 27 H -2.49672 -2.76896 1.37621 0
M  V30 28 H -2.64241 -3.04337 -0.381849 0
M  V30 29 H -3.71718 -1.0208 0.283606 0
M  V30 30 H -2.39833 -0.671032 -0.857347 0
M  V30 31 H -2.80252 0.763164 1.33039 0
M  V30 32 H -1.89493 -0.556583 2.13984 0
M  V30 33 H -1.15393 2.90623 -1.96348 0
M  V30 34 H -2.52267 1.98288 -1.51621 0
M  V30 END ATOM
M  V30 BEGIN BOND
M  V30 1 1 1 2
M  V30 2 2 2 3
M  V30 3 1 3 4
M  V30 4 1 4 5
M  V30 5 2 5 6
M  V30 6 1 5 7
M  V30 7 1 7 8
M  V30 8 1 8 9
M  V30 9 1 9 10
M  V30 10 1 10 11
M  V30 11 1 11 12
M  V30 12 1 12 13
M  V30 13 1 13 14
M  V30 14 2 14 15
M  V30 15 2 14 16
M  V30 16 1 14 17
M  V30 17 1 6 2
M  V30 18 1 13 7
M  V30 19 1 1 18
M  V30 20 1 1 19
M  V30 21 1 4 20
M  V30 22 1 6 21
M  V30 23 1 7 22 CFG=3
M  V30 24 1 8 23
M  V30 25 1 8 24
M  V30 26 1 9 25
M  V30 27 1 9 26
M  V30 28 1 10 27
M  V30 29 1 10 28
M  V30 30 1 11 29
M  V30 31 1 11 30
M  V30 32 1 12 31
M  V30 33 1 12 32
M  V30 34 1 17 33
M  V30 35 1 17 34
M  V30 END BOND
M  V30 END CTAB
M  END
