
     RDKit          3D

  0  0  0  0  0  0  0  0  0  0999 V3000
M  V30 BEGIN CTAB
M  V30 COUNTS 34 34 0 0 0
M  V30 BEGIN ATOM
M  V30 1 C -3.21445 1.03543 0.601123 0
M  V30 2 C -2.58775 0.327987 -0.569745 0
M  V30 3 C -1.1059 0.107452 -0.378827 0
M  V30 4 O -0.641503 -0.555609 -1.5292 0
M  V30 5 C -0.794933 -0.651341 0.879929 0
M  V30 6 C 0.659788 -1.08914 0.791277 0
M  V30 7 N 1.50274 0.0125809 0.388861 0
M  V30 8 C 0.995354 1.34412 0.230432 0
M  V30 9 C -0.382577 1.4264 -0.32114 0
M  V30 10 C 2.87133 -0.259886 0.14953 0
M  V30 11 N 3.18022 -1.30788 -0.562249 0
M  V30 12 N 4.49974 -1.64724 -0.844106 0
M  V30 13 N 3.93031 0.537973 0.63692 0
M  V30 14 C -3.33181 -0.931111 -0.865239 0
M  V30 15 H -2.94313 0.569012 1.57001 0
M  V30 16 H -4.32554 0.923807 0.506904 0
M  V30 17 H -3.02053 2.13602 0.586132 0
M  V30 18 H -2.68933 1.02504 -1.44999 0
M  V30 19 H -1.20153 -0.280346 -2.31122 0
M  V30 20 H -1.40147 -1.56067 1.01704 0
M  V30 21 H -0.972234 0.0185448 1.73205 0
M  V30 22 H 0.731179 -1.9195 0.0594888 0
M  V30 23 H 0.949709 -1.51432 1.77516 0
M  V30 24 H 1.70528 1.924 -0.426761 0
M  V30 25 H 1.09323 1.84808 1.23545 0
M  V30 26 H -0.397467 1.89817 -1.32528 0
M  V30 27 H -0.97785 2.10912 0.339275 0
M  V30 28 H 5.24601 -1.33055 -0.187152 0
M  V30 29 H 4.7599 -2.19805 -1.67639 0
M  V30 30 H 4.51971 1.0439 -0.0431371 0
M  V30 31 H 4.08975 0.596567 1.65618 0
M  V30 32 H -4.27546 -0.632141 -1.40888 0
M  V30 33 H -2.81022 -1.6276 -1.52412 0
M  V30 34 H -3.66056 -1.37884 0.0980283 0
M  V30 END ATOM
M  V30 BEGIN BOND
M  V30 1 1 1 2
M  V30 2 1 2 3
M  V30 3 1 3 4
M  V30 4 1 3 5
M  V30 5 1 5 6
M  V30 6 1 6 7
M  V30 7 1 7 8
M  V30 8 1 8 9
M  V30 9 1 7 10
M  V30 10 2 10 11 CFG=2
M  V30 11 1 11 12
M  V30 12 1 10 13
M  V30 13 1 2 14
M  V30 14 1 9 3
M  V30 15 1 1 15
M  V30 16 1 1 16
M  V30 17 1 1 17
M  V30 18 1 2 18
M  V30 19 1 4 19
M  V30 20 1 5 20
M  V30 21 1 5 21
M  V30 22 1 6 22
M  V30 23 1 6 23
M  V30 24 1 8 24
M  V30 25 1 8 25
M  V30 26 1 9 26
M  V30 27 1 9 27
M  V30 28 1 12 28
M  V30 29 1 12 29
M  V30 30 1 13 30
M  V30 31 1 13 31
M  V30 32 1 14 32
M  V30 33 1 14 33
M  V30 34 1 14 34
M  V30 END BOND
M  V30 END CTAB
M  END
