
     RDKit          3D

  0  0  0  0  0  0  0  0  0  0999 V3000
M  V30 BEGIN CTAB
M  V30 COUNTS 48 51 0 0 0
M  V30 BEGIN ATOM
M  V30 1 N -6.53726 -1.33443 0.117006 0
M  V30 2 C -5.88256 -0.173939 -0.416517 0
M  V30 3 C -4.65097 -0.450565 -1.25474 0
M  V30 4 C -3.85666 -0.446973 0.0292081 0
M  V30 5 C -4.93767 0.442041 0.616053 0
M  V30 6 C -2.55134 0.257472 -0.0258181 0
M  V30 7 C -1.40737 -0.304231 0.503691 0
M  V30 8 C -0.163476 0.342956 0.462992 0
M  V30 9 N -0.156522 1.5279 -0.116253 0
M  V30 10 C -1.24938 2.1165 -0.647639 0
M  V30 11 N -2.43354 1.48183 -0.59973 0
M  V30 12 N -1.19195 3.39471 -1.26187 0
M  V30 13 N 0.905398 -0.367315 1.05269 0
M  V30 14 C 1.75692 -1.29253 0.428066 0
M  V30 15 C 2.99218 -0.998132 -0.247491 0
M  V30 16 C 3.6953 -2.05958 -0.911056 0
M  V30 17 C 3.25549 -3.47863 -1.0128 0
M  V30 18 N 4.78757 -1.50206 -1.39448 0
M  V30 19 C 4.81114 -0.199835 -1.08369 0
M  V30 20 N 3.69577 0.131572 -0.365835 0
M  V30 21 C 3.52362 1.39758 0.0650642 0
M  V30 22 C 4.45032 2.3732 -0.204522 0
M  V30 23 C 5.59839 2.08784 -0.931115 0
M  V30 24 C 5.7456 0.786406 -1.35555 0
M  V30 25 C 1.08261 -0.116294 2.50031 0
M  V30 26 H -7.55871 -1.36513 -0.12611 0
M  V30 27 H -6.49827 -1.29164 1.15799 0
M  V30 28 H -6.59289 0.562333 -0.844024 0
M  V30 29 H -4.63075 -1.43642 -1.75718 0
M  V30 30 H -4.39684 0.424085 -1.86624 0
M  V30 31 H -3.74703 -1.42589 0.527733 0
M  V30 32 H -4.77077 1.51851 0.445777 0
M  V30 33 H -5.19205 0.170793 1.66369 0
M  V30 34 H -1.45303 -1.2557 0.95957 0
M  V30 35 H -0.393766 3.63983 -1.90617 0
M  V30 36 H -1.90406 4.14503 -1.12384 0
M  V30 37 H 1.0858 -1.82195 -0.360968 0
M  V30 38 H 1.94824 -2.19742 1.12649 0
M  V30 39 H 2.1528 -3.57202 -1.04032 0
M  V30 40 H 3.74027 -3.90561 -1.91414 0
M  V30 41 H 3.61163 -4.08134 -0.146315 0
M  V30 42 H 2.6474 1.65086 0.642955 0
M  V30 43 H 4.25391 3.37015 0.168818 0
M  V30 44 H 6.3083 2.85828 -1.1322 0
M  V30 45 H 6.64304 0.537447 -1.92992 0
M  V30 46 H 2.01459 -0.579882 2.86725 0
M  V30 47 H 1.20545 0.979236 2.63066 0
M  V30 48 H 0.245121 -0.53905 3.08042 0
M  V30 END ATOM
M  V30 BEGIN BOND
M  V30 1 1 1 2
M  V30 2 1 2 3
M  V30 3 1 3 4
M  V30 4 1 4 5
M  V30 5 1 4 6
M  V30 6 2 6 7
M  V30 7 1 7 8
M  V30 8 2 8 9
M  V30 9 1 9 10
M  V30 10 2 10 11
M  V30 11 1 10 12
M  V30 12 1 8 13
M  V30 13 1 13 14
M  V30 14 1 14 15
M  V30 15 2 15 16
M  V30 16 1 16 17
M  V30 17 1 16 18
M  V30 18 2 18 19
M  V30 19 1 19 20
M  V30 20 1 20 21
M  V30 21 2 21 22
M  V30 22 1 22 23
M  V30 23 2 23 24
M  V30 24 1 13 25
M  V30 25 1 5 2
M  V30 26 1 11 6
M  V30 27 1 20 15
M  V30 28 1 24 19
M  V30 29 1 1 26
M  V30 30 1 1 27
M  V30 31 1 2 28
M  V30 32 1 3 29
M  V30 33 1 3 30
M  V30 34 1 4 31
M  V30 35 1 5 32
M  V30 36 1 5 33
M  V30 37 1 7 34
M  V30 38 1 12 35
M  V30 39 1 12 36
M  V30 40 1 14 37
M  V30 41 1 14 38
M  V30 42 1 17 39
M  V30 43 1 17 40
M  V30 44 1 17 41
M  V30 45 1 21 42
M  V30 46 1 22 43
M  V30 47 1 23 44
M  V30 48 1 24 45
M  V30 49 1 25 46
M  V30 50 1 25 47
M  V30 51 1 25 48
M  V30 END BOND
M  V30 END CTAB
M  END
