
     RDKit          3D

  0  0  0  0  0  0  0  0  0  0999 V3000
M  V30 BEGIN CTAB
M  V30 COUNTS 19 19 0 0 0
M  V30 BEGIN ATOM
M  V30 1 N -3.34084 -0.719339 0.29688 0
M  V30 2 C -1.96535 -0.41319 0.0771345 0
M  V30 3 C -1.06735 -1.38677 -0.340318 0
M  V30 4 F -1.56211 -2.63856 -0.527853 0
M  V30 5 C 0.266602 -1.11731 -0.559842 0
M  V30 6 C 0.760023 0.15438 -0.367396 0
M  V30 7 C -0.129742 1.12765 0.0482372 0
M  V30 8 C -1.46462 0.857984 0.267914 0
M  V30 9 I -2.76033 2.4016 0.902707 0
M  V30 10 S 2.452 0.527174 -0.638628 0
M  V30 11 N 3.38625 0.303333 0.797677 0
M  V30 12 O 2.62455 1.984 -1.04187 0
M  V30 13 O 3.02675 -0.293049 -1.75065 0
M  V30 14 H -3.82819 -0.45968 1.20273 0
M  V30 15 H -3.92881 -1.20778 -0.413447 0
M  V30 16 H 0.941732 -1.89316 -0.883955 0
M  V30 17 H 0.28401 2.12512 0.193516 0
M  V30 18 H 3.23145 1.16397 1.38226 0
M  V30 19 H 3.07397 -0.516367 1.3549 0
M  V30 END ATOM
M  V30 BEGIN BOND
M  V30 1 1 1 2
M  V30 2 2 2 3
M  V30 3 1 3 4
M  V30 4 1 3 5
M  V30 5 2 5 6
M  V30 6 1 6 7
M  V30 7 2 7 8
M  V30 8 1 8 9
M  V30 9 1 6 10
M  V30 10 1 10 11
M  V30 11 2 10 12
M  V30 12 2 10 13
M  V30 13 1 8 2
M  V30 14 1 1 14
M  V30 15 1 1 15
M  V30 16 1 5 16
M  V30 17 1 7 17
M  V30 18 1 11 18
M  V30 19 1 11 19
M  V30 END BOND
M  V30 END CTAB
M  END
