
     RDKit          3D

  0  0  0  0  0  0  0  0  0  0999 V3000
M  V30 BEGIN CTAB
M  V30 COUNTS 52 55 0 0 0
M  V30 BEGIN ATOM
M  V30 1 O -1.15874 1.74794 0.378906 0
M  V30 2 C -1.20638 0.502409 0.489306 0
M  V30 3 N -0.256883 -0.177106 1.26176 0
M  V30 4 C -0.401085 -1.60591 1.32319 0
M  V30 5 C 0.593633 -2.25389 2.25615 0
M  V30 6 O 1.87548 -2.12268 1.78483 0
M  V30 7 C 2.53981 -1.00765 2.31482 0
M  V30 8 C 2.0915 0.184407 1.50131 0
M  V30 9 C 0.729965 0.669128 1.88345 0
M  V30 10 O 3.0571 1.22949 1.52795 0
M  V30 11 C 4.0017 1.00353 0.533345 0
M  V30 12 C 3.45086 0.138583 -0.388917 0
M  V30 13 C 2.06885 -0.211595 0.0396232 0
M  V30 14 C 4.19576 -0.250784 -1.49148 0
M  V30 15 N 3.60194 -1.12892 -2.40369 0
M  V30 16 N 5.4343 0.245866 -1.60042 0
M  V30 17 C 5.99124 1.08972 -0.714215 0
M  V30 18 N 5.25504 1.45508 0.34615 0
M  V30 19 N 7.3173 1.59704 -0.867309 0
M  V30 20 C -2.26003 -0.285474 -0.188136 0
M  V30 21 C -3.16993 0.632377 -0.9483 0
M  V30 22 C -4.22536 -0.205756 -1.62744 0
M  V30 23 C -5.18438 -0.723289 -0.587497 0
M  V30 24 N -5.86481 0.372729 0.0177225 0
M  V30 25 C -5.26992 1.64893 -0.23659 0
M  V30 26 C -3.77033 1.61181 0.0327263 0
M  V30 27 H -0.355021 -2.0447 0.29873 0
M  V30 28 H -1.41941 -1.90431 1.70929 0
M  V30 29 H 0.488912 -1.72495 3.23921 0
M  V30 30 H 0.275081 -3.30726 2.38736 0
M  V30 31 H 3.62289 -1.12358 2.17481 0
M  V30 32 H 2.24178 -0.860329 3.37848 0
M  V30 33 H 0.604639 1.73082 1.59115 0
M  V30 34 H 0.589552 0.649149 2.99391 0
M  V30 35 H 1.31325 0.401145 -0.489653 0
M  V30 36 H 1.89733 -1.30795 -0.0818681 0
M  V30 37 H 2.80162 -0.832359 -2.9893 0
M  V30 38 H 3.96182 -2.09444 -2.50228 0
M  V30 39 H 7.53811 2.59999 -0.681719 0
M  V30 40 H 8.08414 0.95807 -1.16998 0
M  V30 41 H -1.79029 -0.980204 -0.940683 0
M  V30 42 H -2.78039 -0.891666 0.570259 0
M  V30 43 H -2.55895 1.15908 -1.72611 0
M  V30 44 H -4.76307 0.391171 -2.36137 0
M  V30 45 H -3.72069 -1.06238 -2.16134 0
M  V30 46 H -5.93334 -1.34426 -1.16403 0
M  V30 47 H -4.69338 -1.39916 0.144049 0
M  V30 48 H -6.85361 0.386326 -0.301272 0
M  V30 49 H -5.69688 2.44473 0.412033 0
M  V30 50 H -5.39422 1.99787 -1.27893 0
M  V30 51 H -3.53409 1.37761 1.0778 0
M  V30 52 H -3.36243 2.62559 -0.230198 0
M  V30 END ATOM
M  V30 BEGIN BOND
M  V30 1 2 1 2
M  V30 2 1 2 3
M  V30 3 1 3 4
M  V30 4 1 4 5
M  V30 5 1 5 6
M  V30 6 1 6 7
M  V30 7 1 7 8
M  V30 8 1 8 9
M  V30 9 1 8 10
M  V30 10 1 10 11
M  V30 11 2 11 12
M  V30 12 1 12 13
M  V30 13 1 12 14
M  V30 14 1 14 15
M  V30 15 2 14 16
M  V30 16 1 16 17
M  V30 17 2 17 18
M  V30 18 1 17 19
M  V30 19 1 2 20
M  V30 20 1 20 21
M  V30 21 1 21 22
M  V30 22 1 22 23
M  V30 23 1 23 24
M  V30 24 1 24 25
M  V30 25 1 25 26
M  V30 26 1 9 3
M  V30 27 1 18 11
M  V30 28 1 26 21
M  V30 29 1 13 8
M  V30 30 1 4 27
M  V30 31 1 4 28
M  V30 32 1 5 29
M  V30 33 1 5 30
M  V30 34 1 7 31
M  V30 35 1 7 32
M  V30 36 1 9 33
M  V30 37 1 9 34
M  V30 38 1 13 35
M  V30 39 1 13 36
M  V30 40 1 15 37
M  V30 41 1 15 38
M  V30 42 1 19 39
M  V30 43 1 19 40
M  V30 44 1 20 41
M  V30 45 1 20 42
M  V30 46 1 21 43
M  V30 47 1 22 44
M  V30 48 1 22 45
M  V30 49 1 23 46
M  V30 50 1 23 47
M  V30 51 1 24 48
M  V30 52 1 25 49
M  V30 53 1 25 50
M  V30 54 1 26 51
M  V30 55 1 26 52
M  V30 END BOND
M  V30 END CTAB
M  END
