
     RDKit          3D

  0  0  0  0  0  0  0  0  0  0999 V3000
M  V30 BEGIN CTAB
M  V30 COUNTS 52 53 0 0 0
M  V30 BEGIN ATOM
M  V30 1 N -5.15866 0.330589 0.565558 0
M  V30 2 C -3.79367 0.660162 0.926676 0
M  V30 3 C -3.218 1.58126 -0.0854846 0
M  V30 4 C -1.70866 1.64994 -0.0178903 0
M  V30 5 C -1.33891 2.64593 -1.10638 0
M  V30 6 C -1.29481 2.08887 1.33806 0
M  V30 7 N -1.07406 0.328616 -0.270815 0
M  V30 8 C -1.93178 -0.783943 0.000309357 0
M  V30 9 C -2.90588 -0.493481 1.16548 0
M  V30 10 C -2.756 -1.11534 -1.21225 0
M  V30 11 C -1.23167 -2.03122 0.503003 0
M  V30 12 C 0.283899 0.383473 -0.602767 0
M  V30 13 S 1.05899 1.86444 -0.121989 0
M  V30 14 N 1.26532 -0.516647 -1.01105 0
M  V30 15 C 2.63943 -0.27242 -0.480776 0
M  V30 16 C 3.00806 -0.77145 0.740495 0
M  V30 17 C 4.29327 -0.541069 1.23091 0
M  V30 18 C 5.19574 0.201776 0.464098 0
M  V30 19 C 4.83061 0.705797 -0.764095 0
M  V30 20 C 3.54562 0.450921 -1.20747 0
M  V30 21 N 6.50482 0.431628 0.972242 0
M  V30 22 C 1.23466 -1.71117 -1.73989 0
M  V30 23 O 0.315925 -1.99911 -2.51976 0
M  V30 24 C 2.32209 -2.75332 -1.63543 0
M  V30 25 H -5.37118 -0.673931 0.723867 0
M  V30 26 H -5.36854 0.538706 -0.433782 0
M  V30 27 H -3.89108 1.20507 1.91493 0
M  V30 28 H -3.61172 1.45657 -1.11444 0
M  V30 29 H -3.55641 2.6227 0.203026 0
M  V30 30 H -0.884516 3.55111 -0.669893 0
M  V30 31 H -2.30142 3.03869 -1.5649 0
M  V30 32 H -0.811743 2.19511 -1.94548 0
M  V30 33 H -2.19166 2.24602 2.00625 0
M  V30 34 H -0.697445 1.30013 1.83385 0
M  V30 35 H -0.791176 3.09527 1.35711 0
M  V30 36 H -2.29847 -0.462844 2.09203 0
M  V30 37 H -3.53271 -1.4159 1.23596 0
M  V30 38 H -2.51833 -0.431479 -2.07174 0
M  V30 39 H -2.47301 -2.13221 -1.62793 0
M  V30 40 H -3.83611 -1.1941 -1.03196 0
M  V30 41 H -1.23197 -2.84569 -0.264755 0
M  V30 42 H -0.260442 -1.84205 0.971117 0
M  V30 43 H -1.88734 -2.47453 1.31385 0
M  V30 44 H 2.33138 -1.3453 1.34783 0
M  V30 45 H 4.59329 -0.930988 2.1939 0
M  V30 46 H 5.54114 1.28175 -1.35099 0
M  V30 47 H 3.28482 0.8559 -2.17092 0
M  V30 48 H 6.64587 1.23445 1.61166 0
M  V30 49 H 7.29488 -0.190922 0.706895 0
M  V30 50 H 2.14495 -3.57354 -2.34022 0
M  V30 51 H 2.273 -3.15918 -0.602045 0
M  V30 52 H 3.3196 -2.28303 -1.74291 0
M  V30 END ATOM
M  V30 BEGIN BOND
M  V30 1 1 1 2
M  V30 2 1 2 3
M  V30 3 1 3 4
M  V30 4 1 4 5
M  V30 5 1 4 6
M  V30 6 1 4 7
M  V30 7 1 7 8
M  V30 8 1 8 9
M  V30 9 1 8 10
M  V30 10 1 8 11
M  V30 11 1 7 12
M  V30 12 2 12 13
M  V30 13 1 12 14
M  V30 14 1 14 15
M  V30 15 2 15 16
M  V30 16 1 16 17
M  V30 17 2 17 18
M  V30 18 1 18 19
M  V30 19 2 19 20
M  V30 20 1 18 21
M  V30 21 1 14 22
M  V30 22 2 22 23
M  V30 23 1 22 24
M  V30 24 1 9 2
M  V30 25 1 20 15
M  V30 26 1 1 25
M  V30 27 1 1 26
M  V30 28 1 2 27
M  V30 29 1 3 28
M  V30 30 1 3 29
M  V30 31 1 5 30
M  V30 32 1 5 31
M  V30 33 1 5 32
M  V30 34 1 6 33
M  V30 35 1 6 34
M  V30 36 1 6 35
M  V30 37 1 9 36
M  V30 38 1 9 37
M  V30 39 1 10 38
M  V30 40 1 10 39
M  V30 41 1 10 40
M  V30 42 1 11 41
M  V30 43 1 11 42
M  V30 44 1 11 43
M  V30 45 1 16 44
M  V30 46 1 17 45
M  V30 47 1 19 46
M  V30 48 1 20 47
M  V30 49 1 21 48
M  V30 50 1 21 49
M  V30 51 1 24 50
M  V30 52 1 24 51
M  V30 53 1 24 52
M  V30 END BOND
M  V30 END CTAB
M  END
