
     RDKit          3D

  0  0  0  0  0  0  0  0  0  0999 V3000
M  V30 BEGIN CTAB
M  V30 COUNTS 54 57 0 0 0
M  V30 BEGIN ATOM
M  V30 1 N -5.83911 -3.19158 0.069615 0
M  V30 2 C -4.59208 -2.52972 0.334938 0
M  V30 3 C -4.70518 -1.08007 0.759923 0
M  V30 4 C -4.51808 -0.690918 -0.691378 0
M  V30 5 C -3.85972 -2.05213 -0.901793 0
M  V30 6 C -3.56016 0.443138 -0.792107 0
M  V30 7 C -2.35602 0.419145 -0.104727 0
M  V30 8 C -1.50341 1.48094 -0.224336 0
M  V30 9 N -1.82779 2.55432 -1.00962 0
M  V30 10 C -2.99634 2.55755 -1.66539 0
M  V30 11 N -3.83406 1.51154 -1.5461 0
M  V30 12 N -3.32078 3.68756 -2.48161 0
M  V30 13 N -0.273603 1.49833 0.464059 0
M  V30 14 C 0.663966 2.57036 0.179067 0
M  V30 15 C 2.03853 2.08484 -0.12847 0
M  V30 16 C 2.14562 0.682783 -0.616257 0
M  V30 17 N 1.95696 -0.352993 0.31677 0
M  V30 18 C 0.590672 -0.70046 0.603776 0
M  V30 19 C -0.0311591 0.444792 1.41553 0
M  V30 20 C 2.84523 -0.442452 1.41325 0
M  V30 21 C 4.23243 -0.632589 0.88813 0
M  V30 22 C 4.50433 -1.63411 -0.0187287 0
M  V30 23 C 5.76608 -1.84595 -0.525259 0
M  V30 24 C 6.81667 -1.05009 -0.135612 0
M  V30 25 C 6.54717 -0.0435832 0.77469 0
M  V30 26 C 5.28601 0.181938 1.29242 0
M  V30 27 F 8.08563 -1.23371 -0.620309 0
M  V30 28 H -5.76396 -4.1693 0.436278 0
M  V30 29 H -5.99426 -3.21528 -0.955405 0
M  V30 30 H -3.94196 -3.05876 1.06651 0
M  V30 31 H -3.9359 -0.732234 1.45277 0
M  V30 32 H -5.75628 -0.867987 1.05257 0
M  V30 33 H -5.44646 -0.550752 -1.26763 0
M  V30 34 H -4.26499 -2.50227 -1.83054 0
M  V30 35 H -2.77164 -2.0658 -0.803768 0
M  V30 36 H -2.14931 -0.453838 0.497191 0
M  V30 37 H -3.57149 4.62038 -2.09935 0
M  V30 38 H -3.30361 3.56538 -3.51354 0
M  V30 39 H 0.208069 3.1868 -0.623386 0
M  V30 40 H 0.72999 3.24623 1.07891 0
M  V30 41 H 2.42874 2.73943 -0.965583 0
M  V30 42 H 2.75048 2.30261 0.714231 0
M  V30 43 H 1.45426 0.538439 -1.4654 0
M  V30 44 H 3.18544 0.568973 -1.04434 0
M  V30 45 H 0.0589285 -0.706547 -0.368021 0
M  V30 46 H 0.497747 -1.65403 1.11808 0
M  V30 47 H 0.738202 0.745325 2.17173 0
M  V30 48 H -0.902106 0.0534449 1.93244 0
M  V30 49 H 2.59405 -1.33035 2.01428 0
M  V30 50 H 2.809 0.434398 2.09825 0
M  V30 51 H 3.67466 -2.27304 -0.334741 0
M  V30 52 H 5.95911 -2.63164 -1.23252 0
M  V30 53 H 7.37732 0.599008 1.0955 0
M  V30 54 H 5.07415 0.974538 2.0092 0
M  V30 END ATOM
M  V30 BEGIN BOND
M  V30 1 1 1 2
M  V30 2 1 2 3
M  V30 3 1 3 4
M  V30 4 1 4 5
M  V30 5 1 4 6
M  V30 6 2 6 7
M  V30 7 1 7 8
M  V30 8 2 8 9
M  V30 9 1 9 10
M  V30 10 2 10 11
M  V30 11 1 10 12
M  V30 12 1 8 13
M  V30 13 1 13 14
M  V30 14 1 14 15
M  V30 15 1 15 16
M  V30 16 1 16 17
M  V30 17 1 17 18
M  V30 18 1 18 19
M  V30 19 1 17 20
M  V30 20 1 20 21
M  V30 21 2 21 22
M  V30 22 1 22 23
M  V30 23 2 23 24
M  V30 24 1 24 25
M  V30 25 2 25 26
M  V30 26 1 24 27
M  V30 27 1 5 2
M  V30 28 1 11 6
M  V30 29 1 19 13
M  V30 30 1 26 21
M  V30 31 1 1 28
M  V30 32 1 1 29
M  V30 33 1 2 30
M  V30 34 1 3 31
M  V30 35 1 3 32
M  V30 36 1 4 33
M  V30 37 1 5 34
M  V30 38 1 5 35
M  V30 39 1 7 36
M  V30 40 1 12 37
M  V30 41 1 12 38
M  V30 42 1 14 39
M  V30 43 1 14 40
M  V30 44 1 15 41
M  V30 45 1 15 42
M  V30 46 1 16 43
M  V30 47 1 16 44
M  V30 48 1 18 45
M  V30 49 1 18 46
M  V30 50 1 19 47
M  V30 51 1 19 48
M  V30 52 1 20 49
M  V30 53 1 20 50
M  V30 54 1 22 51
M  V30 55 1 23 52
M  V30 56 1 25 53
M  V30 57 1 26 54
M  V30 END BOND
M  V30 END CTAB
M  END
