
     RDKit          3D

  0  0  0  0  0  0  0  0  0  0999 V3000
M  V30 BEGIN CTAB
M  V30 COUNTS 50 52 0 0 0
M  V30 BEGIN ATOM
M  V30 1 C -8.5763 -0.430784 0.0286264 0
M  V30 2 O -7.71715 0.683592 0.188057 0
M  V30 3 C -6.33137 0.538027 0.268604 0
M  V30 4 C -5.5459 1.64321 0.421706 0
M  V30 5 C -4.17802 1.50751 0.501845 0
M  V30 6 C -3.5835 0.288275 0.431676 0
M  V30 7 C -4.38275 -0.840333 0.275614 0
M  V30 8 C -5.75978 -0.730581 0.19257 0
M  V30 9 C -2.09844 0.152835 0.519594 0
M  V30 10 C -1.57146 0.24507 -0.882371 0
M  V30 11 N -0.165666 0.138653 -1.02428 0
M  V30 12 C 0.34128 -1.14558 -0.720022 0
M  V30 13 C 1.85379 -1.04494 -0.470429 0
M  V30 14 N 2.31108 -0.0335015 -1.3761 0
M  V30 15 C 2.01416 1.24734 -0.817914 0
M  V30 16 C 0.535076 1.25441 -0.48904 0
M  V30 17 C 3.59117 -0.213853 -1.92143 0
M  V30 18 C 4.70303 -0.275786 -0.941671 0
M  V30 19 N 5.12408 -1.41724 -0.376082 0
M  V30 20 C 6.1342 -1.47143 0.512726 0
M  V30 21 N 6.58723 -2.67328 1.11654 0
M  V30 22 N 6.74344 -0.306379 0.83998 0
M  V30 23 C 6.35809 0.863301 0.300526 0
M  V30 24 N 5.33433 0.860257 -0.590277 0
M  V30 25 N 7.04736 2.04002 0.695237 0
M  V30 26 H -8.46745 -1.17457 0.839938 0
M  V30 27 H -8.35314 -0.980717 -0.922614 0
M  V30 28 H -9.61256 -0.0505259 -0.0109595 0
M  V30 29 H -6.00815 2.62408 0.479455 0
M  V30 30 H -3.56093 2.38118 0.622236 0
M  V30 31 H -3.95799 -1.84193 0.214057 0
M  V30 32 H -6.39913 -1.59555 0.0713717 0
M  V30 33 H -1.90794 -0.819571 1.00579 0
M  V30 34 H -1.73549 0.938417 1.18422 0
M  V30 35 H -2.04987 -0.584931 -1.46904 0
M  V30 36 H -1.98161 1.18319 -1.32192 0
M  V30 37 H -0.169681 -1.70493 0.0635883 0
M  V30 38 H 0.264057 -1.77218 -1.65827 0
M  V30 39 H 2.34988 -2.02371 -0.593832 0
M  V30 40 H 1.95369 -0.653373 0.567437 0
M  V30 41 H 2.32277 2.10867 -1.44411 0
M  V30 42 H 2.5601 1.34176 0.148037 0
M  V30 43 H 0.348604 1.42115 0.601946 0
M  V30 44 H 0.118441 2.1752 -0.983205 0
M  V30 45 H 3.56748 -1.15092 -2.55455 0
M  V30 46 H 3.7525 0.601994 -2.68806 0
M  V30 47 H 7.37499 -3.18578 0.670125 0
M  V30 48 H 6.16132 -3.04433 1.97226 0
M  V30 49 H 6.80108 2.60997 1.52168 0
M  V30 50 H 7.8611 2.31862 0.0763642 0
M  V30 END ATOM
M  V30 BEGIN BOND
M  V30 1 1 1 2
M  V30 2 1 2 3
M  V30 3 2 3 4
M  V30 4 1 4 5
M  V30 5 2 5 6
M  V30 6 1 6 7
M  V30 7 2 7 8
M  V30 8 1 6 9
M  V30 9 1 9 10
M  V30 10 1 10 11
M  V30 11 1 11 12
M  V30 12 1 12 13
M  V30 13 1 13 14
M  V30 14 1 14 15
M  V30 15 1 15 16
M  V30 16 1 14 17
M  V30 17 1 17 18
M  V30 18 2 18 19
M  V30 19 1 19 20
M  V30 20 1 20 21
M  V30 21 2 20 22
M  V30 22 1 22 23
M  V30 23 2 23 24
M  V30 24 1 23 25
M  V30 25 1 8 3
M  V30 26 1 16 11
M  V30 27 1 24 18
M  V30 28 1 1 26
M  V30 29 1 1 27
M  V30 30 1 1 28
M  V30 31 1 4 29
M  V30 32 1 5 30
M  V30 33 1 7 31
M  V30 34 1 8 32
M  V30 35 1 9 33
M  V30 36 1 9 34
M  V30 37 1 10 35
M  V30 38 1 10 36
M  V30 39 1 12 37
M  V30 40 1 12 38
M  V30 41 1 13 39
M  V30 42 1 13 40
M  V30 43 1 15 41
M  V30 44 1 15 42
M  V30 45 1 16 43
M  V30 46 1 16 44
M  V30 47 1 17 45
M  V30 48 1 17 46
M  V30 49 1 21 47
M  V30 50 1 21 48
M  V30 51 1 25 49
M  V30 52 1 25 50
M  V30 END BOND
M  V30 END CTAB
M  END
