
     RDKit          3D

  0  0  0  0  0  0  0  0  0  0999 V3000
M  V30 BEGIN CTAB
M  V30 COUNTS 20 19 0 0 0
M  V30 BEGIN ATOM
M  V30 1 N 2.79099 0.736256 -0.236375 0
M  V30 2 C 1.40687 0.921994 0.0354213 0
M  V30 3 C 0.767566 -0.439426 0.0243286 0 CFG=2
M  V30 4 O 0.97364 -0.987019 -1.24372 0
M  V30 5 C -0.699947 -0.403359 0.384121 0 CFG=2
M  V30 6 O -1.16576 -1.71067 0.364485 0
M  V30 7 C -1.50566 0.375291 -0.633823 0
M  V30 8 N -2.9023 0.319296 -0.262523 0
M  V30 9 H 3.35293 1.53589 -0.271802 0
M  V30 10 H 3.17372 -0.132307 0.00284893 0
M  V30 11 H 0.992445 1.53956 -0.794772 0
M  V30 12 H 1.30891 1.45684 0.988635 0
M  V30 13 H 1.28547 -1.07114 0.774302 0
M  V30 14 H 1.35679 -1.87787 -1.16151 0
M  V30 15 H -0.786829 0.0256937 1.38789 0
M  V30 16 H -1.06213 -2.03004 -0.580739 0
M  V30 17 H -1.37967 -0.0776734 -1.62899 0
M  V30 18 H -1.19145 1.42886 -0.58111 0
M  V30 19 H -3.45634 1.03582 -0.780974 0
M  V30 20 H -3.25925 -0.646003 -0.412044 0
M  V30 END ATOM
M  V30 BEGIN BOND
M  V30 1 1 1 2
M  V30 2 1 2 3
M  V30 3 1 3 4
M  V30 4 1 3 5
M  V30 5 1 5 6
M  V30 6 1 5 7
M  V30 7 1 7 8
M  V30 8 1 1 9
M  V30 9 1 1 10
M  V30 10 1 2 11
M  V30 11 1 2 12
M  V30 12 1 3 13 CFG=1
M  V30 13 1 4 14
M  V30 14 1 5 15 CFG=1
M  V30 15 1 6 16
M  V30 16 1 7 17
M  V30 17 1 7 18
M  V30 18 1 8 19
M  V30 19 1 8 20
M  V30 END BOND
M  V30 END CTAB
M  END
