
     RDKit          3D

  0  0  0  0  0  0  0  0  0  0999 V3000
M  V30 BEGIN CTAB
M  V30 COUNTS 44 47 0 0 0
M  V30 BEGIN ATOM
M  V30 1 N 8.02554 1.28259 0.865417 0
M  V30 2 C 6.86639 0.535003 0.591302 0
M  V30 3 C 6.44204 0.331732 -0.721834 0
M  V30 4 C 5.25376 -0.369083 -0.976083 0
M  V30 5 C 4.47623 -0.879096 0.0620214 0
M  V30 6 O 3.32674 -1.5746 -0.22917 0
M  V30 7 C 2.05967 -1.07422 -0.39628 0
M  V30 8 C 1.21493 -1.00111 0.725947 0
M  V30 9 C -0.0395244 -0.523923 0.612548 0
M  V30 10 C -0.553931 -0.0791737 -0.600767 0
M  V30 11 O -1.79888 0.40359 -0.705006 0
M  V30 12 C -2.80227 0.268272 0.382995 0
M  V30 13 C -2.3212 -1.02033 1.05811 0
M  V30 14 C -1.01804 -0.5225 1.77073 0
M  V30 15 C -4.14427 0.174388 -0.179108 0
M  V30 16 C -4.4493 -0.56409 -1.30345 0
M  V30 17 C -5.71728 -0.515512 -1.91867 0
M  V30 18 C -6.69342 0.313993 -1.35813 0
M  V30 19 C -6.38075 1.05151 -0.222504 0
M  V30 20 C -5.15319 0.990533 0.350714 0
M  V30 21 N -4.89617 1.68239 1.60559 0
M  V30 22 C 0.274876 -0.141475 -1.74085 0
M  V30 23 C 1.57906 -0.640744 -1.62576 0
M  V30 24 N 4.9272 -0.65845 1.34473 0
M  V30 25 C 6.0858 0.0284879 1.55638 0
M  V30 26 H 8.05893 2.3462 0.723811 0
M  V30 27 H 8.90338 0.886831 1.20907 0
M  V30 28 H 7.02389 0.682275 -1.54927 0
M  V30 29 H 4.91728 -0.565814 -1.98103 0
M  V30 30 H 1.60945 -1.34872 1.70012 0
M  V30 31 H -2.61988 1.10637 1.03404 0
M  V30 32 H -1.99845 -1.77463 0.334189 0
M  V30 33 H -2.99082 -1.44215 1.78433 0
M  V30 34 H -1.14911 0.52719 2.07243 0
M  V30 35 H -0.705583 -1.18869 2.5525 0
M  V30 36 H -3.73951 -1.2116 -1.79513 0
M  V30 37 H -5.94988 -1.09666 -2.7984 0
M  V30 38 H -7.64746 0.323312 -1.85052 0
M  V30 39 H -7.15513 1.68344 0.18165 0
M  V30 40 H -4.21346 2.44614 1.62805 0
M  V30 41 H -5.35879 1.43669 2.50596 0
M  V30 42 H -0.15597 0.183115 -2.66881 0
M  V30 43 H 2.19073 -0.693494 -2.51057 0
M  V30 44 H 6.4164 0.202013 2.59421 0
M  V30 END ATOM
M  V30 BEGIN BOND
M  V30 1 1 1 2
M  V30 2 2 2 3
M  V30 3 1 3 4
M  V30 4 2 4 5
M  V30 5 1 5 6
M  V30 6 1 6 7
M  V30 7 2 7 8
M  V30 8 1 8 9
M  V30 9 2 9 10
M  V30 10 1 10 11
M  V30 11 1 11 12
M  V30 12 1 12 13
M  V30 13 1 13 14
M  V30 14 1 12 15
M  V30 15 2 15 16
M  V30 16 1 16 17
M  V30 17 2 17 18
M  V30 18 1 18 19
M  V30 19 2 19 20
M  V30 20 1 20 21
M  V30 21 1 10 22
M  V30 22 2 22 23
M  V30 23 1 5 24
M  V30 24 2 24 25
M  V30 25 1 25 2
M  V30 26 1 23 7
M  V30 27 1 14 9
M  V30 28 1 20 15
M  V30 29 1 1 26
M  V30 30 1 1 27
M  V30 31 1 3 28
M  V30 32 1 4 29
M  V30 33 1 8 30
M  V30 34 1 12 31
M  V30 35 1 13 32
M  V30 36 1 13 33
M  V30 37 1 14 34
M  V30 38 1 14 35
M  V30 39 1 16 36
M  V30 40 1 17 37
M  V30 41 1 18 38
M  V30 42 1 19 39
M  V30 43 1 21 40
M  V30 44 1 21 41
M  V30 45 1 22 42
M  V30 46 1 23 43
M  V30 47 1 25 44
M  V30 END BOND
M  V30 END CTAB
M  END
