
     RDKit          3D

  0  0  0  0  0  0  0  0  0  0999 V3000
M  V30 BEGIN CTAB
M  V30 COUNTS 65 68 0 0 0
M  V30 BEGIN ATOM
M  V30 1 C -6.1128 4.39222 0.47681 0
M  V30 2 C -5.12984 4.18879 -0.691208 0
M  V30 3 C -5.68088 3.15545 -1.63405 0
M  V30 4 C -5.89934 1.81717 -1.04722 0
M  V30 5 C -4.64987 1.14254 -0.601105 0
M  V30 6 N -4.5447 0.0262963 0.131327 0
M  V30 7 N -3.24702 -0.312435 0.304604 0
M  V30 8 C -2.46913 0.568901 -0.306457 0
M  V30 9 C -3.35204 1.49186 -0.882533 0
M  V30 10 C -1.02633 0.733124 -0.434903 0
M  V30 11 O -0.611714 1.60858 -1.28401 0
M  V30 12 N -0.01913 0.0638628 0.247237 0
M  V30 13 C 1.34173 0.277175 0.0442554 0
M  V30 14 C 1.94732 0.69917 -1.09761 0
M  V30 15 C 3.33779 0.908588 -1.15856 0
M  V30 16 C 4.14657 0.698204 -0.0804576 0
M  V30 17 C 3.5473 0.267877 1.09069 0
M  V30 18 C 2.19656 0.0689929 1.13767 0
M  V30 19 C 5.57622 0.901094 -0.183743 0
M  V30 20 C 6.13552 2.03724 0.426287 0
M  V30 21 C 7.48712 2.26668 0.319458 0
M  V30 22 C 8.30217 1.40274 -0.374751 0
M  V30 23 C 7.77486 0.293202 -0.973443 0
M  V30 24 C 6.39509 0.0450599 -0.872493 0
M  V30 25 S 5.78277 -1.40558 -1.62786 0
M  V30 26 N 5.00609 -2.38774 -0.436123 0
M  V30 27 O 6.95997 -2.2397 -2.11816 0
M  V30 28 O 4.95015 -1.13456 -2.81941 0
M  V30 29 C -2.8272 -1.45821 1.02143 0
M  V30 30 C -2.80222 -1.45398 2.38489 0
M  V30 31 C -2.41881 -2.61905 3.05233 0
M  V30 32 C -2.07117 -3.75367 2.36841 0
M  V30 33 C -2.09658 -3.75799 0.982922 0
M  V30 34 C -2.47952 -2.59289 0.340661 0
M  V30 35 C -1.72053 -4.98002 0.307272 0
M  V30 36 N -1.3369 -6.13623 1.05706 0
M  V30 37 N -1.69973 -5.12501 -0.968594 0
M  V30 38 H -5.912 3.57035 1.19425 0
M  V30 39 H -5.9436 5.38405 0.927379 0
M  V30 40 H -7.15117 4.27848 0.0836444 0
M  V30 41 H -4.18632 3.91429 -0.217405 0
M  V30 42 H -5.00032 5.1743 -1.19326 0
M  V30 43 H -5.01547 3.10589 -2.52658 0
M  V30 44 H -6.67106 3.56138 -1.97919 0
M  V30 45 H -6.58577 1.95756 -0.158129 0
M  V30 46 H -6.45365 1.13616 -1.72197 0
M  V30 47 H -3.07872 2.3642 -1.48691 0
M  V30 48 H -0.270369 -0.641613 0.966335 0
M  V30 49 H 1.39663 0.873951 -2.01841 0
M  V30 50 H 3.72468 1.27132 -2.119 0
M  V30 51 H 4.19652 0.104292 1.93967 0
M  V30 52 H 1.78203 -0.269759 2.08579 0
M  V30 53 H 5.46326 2.69002 0.961255 0
M  V30 54 H 7.87837 3.16933 0.814052 0
M  V30 55 H 9.37372 1.64428 -0.422488 0
M  V30 56 H 8.41534 -0.394212 -1.5244 0
M  V30 57 H 5.39976 -2.20263 0.499475 0
M  V30 58 H 3.98133 -2.39722 -0.519153 0
M  V30 59 H -3.06799 -0.581538 2.99099 0
M  V30 60 H -2.38496 -2.66008 4.13422 0
M  V30 61 H -1.7731 -4.65832 2.91247 0
M  V30 62 H -2.48587 -2.6391 -0.756407 0
M  V30 63 H -2.02957 -6.85238 1.31119 0
M  V30 64 H -0.339181 -6.234 1.33855 0
M  V30 65 H -1.95431 -4.36679 -1.61656 0
M  V30 END ATOM
M  V30 BEGIN BOND
M  V30 1 1 1 2
M  V30 2 1 2 3
M  V30 3 1 3 4
M  V30 4 1 4 5
M  V30 5 2 5 6
M  V30 6 1 6 7
M  V30 7 1 7 8
M  V30 8 2 8 9
M  V30 9 1 8 10
M  V30 10 2 10 11
M  V30 11 1 10 12
M  V30 12 1 12 13
M  V30 13 2 13 14
M  V30 14 1 14 15
M  V30 15 2 15 16
M  V30 16 1 16 17
M  V30 17 2 17 18
M  V30 18 1 16 19
M  V30 19 2 19 20
M  V30 20 1 20 21
M  V30 21 2 21 22
M  V30 22 1 22 23
M  V30 23 2 23 24
M  V30 24 1 24 25
M  V30 25 1 25 26
M  V30 26 2 25 27
M  V30 27 2 25 28
M  V30 28 1 7 29
M  V30 29 2 29 30
M  V30 30 1 30 31
M  V30 31 2 31 32
M  V30 32 1 32 33
M  V30 33 2 33 34
M  V30 34 1 33 35
M  V30 35 1 35 36
M  V30 36 2 35 37 CFG=2
M  V30 37 1 9 5
M  V30 38 1 18 13
M  V30 39 1 24 19
M  V30 40 1 34 29
M  V30 41 1 1 38
M  V30 42 1 1 39
M  V30 43 1 1 40
M  V30 44 1 2 41
M  V30 45 1 2 42
M  V30 46 1 3 43
M  V30 47 1 3 44
M  V30 48 1 4 45
M  V30 49 1 4 46
M  V30 50 1 9 47
M  V30 51 1 12 48
M  V30 52 1 14 49
M  V30 53 1 15 50
M  V30 54 1 17 51
M  V30 55 1 18 52
M  V30 56 1 20 53
M  V30 57 1 21 54
M  V30 58 1 22 55
M  V30 59 1 23 56
M  V30 60 1 26 57
M  V30 61 1 26 58
M  V30 62 1 30 59
M  V30 63 1 31 60
M  V30 64 1 32 61
M  V30 65 1 34 62
M  V30 66 1 36 63
M  V30 67 1 36 64
M  V30 68 1 37 65
M  V30 END BOND
M  V30 END CTAB
M  END
