
     RDKit          3D

  0  0  0  0  0  0  0  0  0  0999 V3000
M  V30 BEGIN CTAB
M  V30 COUNTS 39 41 0 0 0
M  V30 BEGIN ATOM
M  V30 1 N 0.701662 -3.81979 1.36255 0
M  V30 2 C -0.0956005 -3.03808 0.988584 0
M  V30 3 C -1.0522 -2.06691 0.540797 0
M  V30 4 C -2.12272 -2.47457 -0.11961 0
M  V30 5 N -2.24155 -3.88995 -0.339164 0
M  V30 6 O -3.08862 -1.60594 -0.583292 0
M  V30 7 C -2.95305 -0.258376 -0.360964 0
M  V30 8 C -1.86833 0.225666 0.315804 0
M  V30 9 C -0.802042 -0.658324 0.833186 0
M  V30 10 C 0.563335 -0.220295 0.446968 0
M  V30 11 C 1.32445 0.595465 1.25583 0
M  V30 12 C 2.59208 1.01503 0.920392 0
M  V30 13 C 3.13644 0.618047 -0.257794 0
M  V30 14 C 2.40238 -0.206131 -1.10495 0
M  V30 15 C 1.13384 -0.622343 -0.762721 0
M  V30 16 C 4.5066 1.07071 -0.621825 0
M  V30 17 C 5.50106 0.0592139 -0.0930945 0
M  V30 18 C -1.78498 1.60659 0.512268 0
M  V30 19 C -2.77449 2.44578 0.032408 0
M  V30 20 C -3.85478 1.92287 -0.646122 0
M  V30 21 C -3.95893 0.568566 -0.851602 0
M  V30 22 N -4.89943 2.76802 -1.15717 0
M  V30 23 H -3.08706 -4.41746 -0.0134101 0
M  V30 24 H -1.4976 -4.43342 -0.825121 0
M  V30 25 H -0.852152 -0.551957 1.95839 0
M  V30 26 H 0.896998 0.92465 2.21229 0
M  V30 27 H 3.15916 1.65696 1.5842 0
M  V30 28 H 2.86624 -0.50977 -2.04682 0
M  V30 29 H 0.554972 -1.26467 -1.41713 0
M  V30 30 H 4.60732 1.17518 -1.72495 0
M  V30 31 H 4.71048 2.0209 -0.0860505 0
M  V30 32 H 5.26285 -0.175947 0.948132 0
M  V30 33 H 6.52395 0.513445 -0.109614 0
M  V30 34 H 5.5021 -0.798227 -0.779113 0
M  V30 35 H -0.92831 2.00249 1.0493 0
M  V30 36 H -2.73971 3.50356 0.166126 0
M  V30 37 H -4.81752 0.167199 -1.38933 0
M  V30 38 H -5.84093 2.36398 -1.35619 0
M  V30 39 H -4.68592 3.78786 -1.32032 0
M  V30 END ATOM
M  V30 BEGIN BOND
M  V30 1 3 1 2
M  V30 2 1 2 3
M  V30 3 2 3 4
M  V30 4 1 4 5
M  V30 5 1 4 6
M  V30 6 1 6 7
M  V30 7 2 7 8
M  V30 8 1 8 9
M  V30 9 1 9 10
M  V30 10 2 10 11
M  V30 11 1 11 12
M  V30 12 2 12 13
M  V30 13 1 13 14
M  V30 14 2 14 15
M  V30 15 1 13 16
M  V30 16 1 16 17
M  V30 17 1 8 18
M  V30 18 2 18 19
M  V30 19 1 19 20
M  V30 20 2 20 21
M  V30 21 1 20 22
M  V30 22 1 9 3
M  V30 23 1 15 10
M  V30 24 1 21 7
M  V30 25 1 5 23
M  V30 26 1 5 24
M  V30 27 1 9 25
M  V30 28 1 11 26
M  V30 29 1 12 27
M  V30 30 1 14 28
M  V30 31 1 15 29
M  V30 32 1 16 30
M  V30 33 1 16 31
M  V30 34 1 17 32
M  V30 35 1 17 33
M  V30 36 1 17 34
M  V30 37 1 18 35
M  V30 38 1 19 36
M  V30 39 1 21 37
M  V30 40 1 22 38
M  V30 41 1 22 39
M  V30 END BOND
M  V30 END CTAB
M  END
