
     RDKit          3D

  0  0  0  0  0  0  0  0  0  0999 V3000
M  V30 BEGIN CTAB
M  V30 COUNTS 30 32 0 0 0
M  V30 BEGIN ATOM
M  V30 1 N -5.27261 -0.698282 -0.145444 0
M  V30 2 C -3.88899 -0.339513 -0.0669889 0
M  V30 3 C -3.34354 0.242945 1.05088 0
M  V30 4 C -2.00282 0.574886 1.08821 0
M  V30 5 C -1.1542 0.34328 0.0232012 0
M  V30 6 C -1.73328 -0.243127 -1.08483 0
M  V30 7 C -3.0629 -0.57907 -1.13848 0
M  V30 8 N 0.23024 0.692668 0.0780541 0
M  V30 9 C 0.574031 2.0025 0.170107 0
M  V30 10 C 1.90009 2.37713 0.225228 0
M  V30 11 C 2.90699 1.43465 0.18841 0
M  V30 12 O 4.11397 1.72696 0.235455 0
M  V30 13 C 2.55454 0.102171 0.0947009 0
M  V30 14 C 1.21569 -0.216317 0.0428763 0
M  V30 15 N 0.860417 -1.508 -0.048282 0
M  V30 16 C 1.82943 -2.45177 -0.0860706 0
M  V30 17 N 3.14326 -2.14261 -0.0354343 0
M  V30 18 C 3.5467 -0.865858 0.0558947 0
M  V30 19 N 4.93174 -0.547307 0.108814 0
M  V30 20 H -5.65197 -1.1166 -0.99984 0
M  V30 21 H -5.90883 -0.539133 0.662215 0
M  V30 22 H -4.01592 0.421655 1.88286 0
M  V30 23 H -1.59193 1.03704 1.98789 0
M  V30 24 H -1.12867 -0.451049 -1.94935 0
M  V30 25 H -3.51701 -1.04192 -2.01477 0
M  V30 26 H -0.221796 2.72569 0.19782 0
M  V30 27 H 2.17904 3.41824 0.298535 0
M  V30 28 H 1.58962 -3.50373 -0.159143 0
M  V30 29 H 5.44517 -0.459975 -0.815257 0
M  V30 30 H 5.47355 -0.395553 0.962168 0
M  V30 END ATOM
M  V30 BEGIN BOND
M  V30 1 1 1 2
M  V30 2 2 2 3
M  V30 3 1 3 4
M  V30 4 2 4 5
M  V30 5 1 5 6
M  V30 6 2 6 7
M  V30 7 1 5 8
M  V30 8 1 8 9
M  V30 9 2 9 10
M  V30 10 1 10 11
M  V30 11 2 11 12
M  V30 12 1 11 13
M  V30 13 2 13 14
M  V30 14 1 14 15
M  V30 15 2 15 16
M  V30 16 1 16 17
M  V30 17 2 17 18
M  V30 18 1 18 19
M  V30 19 1 7 2
M  V30 20 1 14 8
M  V30 21 1 18 13
M  V30 22 1 1 20
M  V30 23 1 1 21
M  V30 24 1 3 22
M  V30 25 1 4 23
M  V30 26 1 6 24
M  V30 27 1 7 25
M  V30 28 1 9 26
M  V30 29 1 10 27
M  V30 30 1 16 28
M  V30 31 1 19 29
M  V30 32 1 19 30
M  V30 END BOND
M  V30 END CTAB
M  END
