
     RDKit          3D

  0  0  0  0  0  0  0  0  0  0999 V3000
M  V30 BEGIN CTAB
M  V30 COUNTS 34 35 0 0 0
M  V30 BEGIN ATOM
M  V30 1 N 0.891565 -2.25952 -0.0745672 0
M  V30 2 C 0.376538 -0.97829 -0.567037 0 CFG=1
M  V30 3 C -0.539141 -0.29284 0.399732 0 CFG=2
M  V30 4 N -1.22111 -1.6653 0.831079 0
M  V30 5 C -1.82261 0.339182 -0.0193554 0
M  V30 6 C -1.92217 1.5379 -0.691318 0
M  V30 7 O -0.871833 2.27774 -1.14713 0
M  V30 8 C -3.20769 2.09387 -0.940478 0
M  V30 9 C -4.3327 1.46208 -0.529112 0
M  V30 10 C -4.27816 0.268111 0.150571 0
M  V30 11 C -3.01036 -0.263647 0.383768 0
M  V30 12 C 1.76276 -0.223713 -0.430965 0
M  V30 13 C 2.24934 0.649321 -1.29159 0
M  V30 14 C 3.51202 1.16865 -1.11925 0
M  V30 15 C 4.28751 0.77274 -0.0279072 0
M  V30 16 C 3.80965 -0.139006 0.889465 0
M  V30 17 C 2.53951 -0.621579 0.667103 0
M  V30 18 O 2.0283 -1.54095 1.5674 0
M  V30 19 H 0.175066 -2.98864 -0.0962625 0
M  V30 20 H 1.62019 -2.5234 -0.741122 0
M  V30 21 H 0.152908 -1.07267 -1.59287 0
M  V30 22 H -0.173682 0.134322 1.29637 0
M  V30 23 H -1.67144 -1.94672 0.0320385 0
M  V30 24 H -1.415 -1.67879 1.76048 0
M  V30 25 H 0.0454517 2.25036 -1.18441 0
M  V30 26 H -3.24492 3.0233 -1.52222 0
M  V30 27 H -5.32377 1.90341 -0.712667 0
M  V30 28 H -5.1721 -0.217689 0.522116 0
M  V30 29 H -3.09369 -1.18854 0.979957 0
M  V30 30 H 1.71113 0.996893 -2.1575 0
M  V30 31 H 3.91688 1.89153 -1.85339 0
M  V30 32 H 5.29556 1.19337 0.0970464 0
M  V30 33 H 4.40348 -0.466794 1.74537 0
M  V30 34 H 2.52252 -1.89471 2.3863 0
M  V30 END ATOM
M  V30 BEGIN BOND
M  V30 1 1 1 2
M  V30 2 1 2 3
M  V30 3 1 3 4
M  V30 4 1 3 5
M  V30 5 2 5 6
M  V30 6 1 6 7
M  V30 7 1 6 8
M  V30 8 2 8 9
M  V30 9 1 9 10
M  V30 10 2 10 11
M  V30 11 1 2 12
M  V30 12 2 12 13
M  V30 13 1 13 14
M  V30 14 2 14 15
M  V30 15 1 15 16
M  V30 16 2 16 17
M  V30 17 1 17 18
M  V30 18 1 11 5
M  V30 19 1 17 12
M  V30 20 1 1 19
M  V30 21 1 1 20
M  V30 22 1 2 21 CFG=3
M  V30 23 1 3 22 CFG=1
M  V30 24 1 4 23
M  V30 25 1 4 24
M  V30 26 1 7 25
M  V30 27 1 8 26
M  V30 28 1 9 27
M  V30 29 1 10 28
M  V30 30 1 11 29
M  V30 31 1 13 30
M  V30 32 1 14 31
M  V30 33 1 15 32
M  V30 34 1 16 33
M  V30 35 1 18 34
M  V30 END BOND
M  V30 END CTAB
M  END
