
     RDKit          3D

  0  0  0  0  0  0  0  0  0  0999 V3000
M  V30 BEGIN CTAB
M  V30 COUNTS 52 55 0 0 0
M  V30 BEGIN ATOM
M  V30 1 N -0.380479 1.63109 -2.26284 0
M  V30 2 C 0.618345 1.1506 -1.36371 0
M  V30 3 N 1.93155 1.28109 -1.61752 0
M  V30 4 C 2.82692 0.805563 -0.722551 0
M  V30 5 N 4.16819 0.93096 -0.957745 0
M  V30 6 C 5.09563 0.473699 -0.0893217 0
M  V30 7 N 4.63188 -0.118788 1.03203 0
M  V30 8 C 3.33976 -0.281541 1.33793 0
M  V30 9 N 2.8714 -0.898298 2.50803 0
M  V30 10 C 2.40225 0.197233 0.429482 0
M  V30 11 C 1.06312 0.0591774 0.696833 0
M  V30 12 C 0.149186 0.535198 -0.197863 0
M  V30 13 C -1.2696 0.422718 0.057214 0
M  V30 14 O -2.06567 0.899471 -0.787936 0
M  V30 15 N -1.83526 -0.190422 1.20113 0
M  V30 16 C -3.25482 -0.295592 1.45853 0
M  V30 17 C -4.02486 -1.06529 0.437235 0
M  V30 18 N -5.42856 -1.10777 0.79132 0
M  V30 19 C -5.99832 0.19357 0.631664 0
M  V30 20 C -7.48321 0.200953 0.940332 0
M  V30 21 O -8.17648 -0.777473 0.258804 0
M  V30 22 C -7.37621 -1.447 -0.641634 0
M  V30 23 C -6.17667 -2.07508 0.0275134 0
M  V30 24 C 6.53248 0.595917 -0.325718 0
M  V30 25 C 7.39809 0.0873758 0.609733 0
M  V30 26 C 8.76538 0.160607 0.456028 0
M  V30 27 C 9.30276 0.76651 -0.678611 0
M  V30 28 C 8.44298 1.29088 -1.6423 0
M  V30 29 C 7.06925 1.18688 -1.43088 0
M  V30 30 H -0.783654 2.57179 -2.22299 0
M  V30 31 H -0.722073 0.980457 -3.00817 0
M  V30 32 H 2.68005 -1.93557 2.48566 0
M  V30 33 H 2.68652 -0.429915 3.42361 0
M  V30 34 H 0.784907 -0.426246 1.61842 0
M  V30 35 H -1.1585 -0.599202 1.91048 0
M  V30 36 H -3.35525 -0.763708 2.48738 0
M  V30 37 H -3.63105 0.74049 1.6211 0
M  V30 38 H -3.70338 -2.13855 0.404957 0
M  V30 39 H -3.95028 -0.600948 -0.557122 0
M  V30 40 H -5.5071 0.961514 1.26217 0
M  V30 41 H -5.81431 0.495862 -0.436263 0
M  V30 42 H -7.59067 0.127142 2.04175 0
M  V30 43 H -7.90474 1.21344 0.676803 0
M  V30 44 H -7.10261 -0.726056 -1.44768 0
M  V30 45 H -7.99855 -2.23492 -1.1396 0
M  V30 46 H -5.54239 -2.54142 -0.778495 0
M  V30 47 H -6.58892 -2.88098 0.68486 0
M  V30 48 H 6.98115 -0.390341 1.50241 0
M  V30 49 H 9.43905 -0.23232 1.1787 0
M  V30 50 H 10.3818 0.828984 -0.808319 0
M  V30 51 H 8.83859 1.76665 -2.529 0
M  V30 52 H 6.42236 1.6016 -2.19207 0
M  V30 END ATOM
M  V30 BEGIN BOND
M  V30 1 1 1 2
M  V30 2 2 2 3
M  V30 3 1 3 4
M  V30 4 2 4 5
M  V30 5 1 5 6
M  V30 6 2 6 7
M  V30 7 1 7 8
M  V30 8 1 8 9
M  V30 9 2 8 10
M  V30 10 1 10 11
M  V30 11 2 11 12
M  V30 12 1 12 13
M  V30 13 2 13 14
M  V30 14 1 13 15
M  V30 15 1 15 16
M  V30 16 1 16 17
M  V30 17 1 17 18
M  V30 18 1 18 19
M  V30 19 1 19 20
M  V30 20 1 20 21
M  V30 21 1 21 22
M  V30 22 1 22 23
M  V30 23 1 6 24
M  V30 24 2 24 25
M  V30 25 1 25 26
M  V30 26 2 26 27
M  V30 27 1 27 28
M  V30 28 2 28 29
M  V30 29 1 12 2
M  V30 30 1 23 18
M  V30 31 1 29 24
M  V30 32 1 10 4
M  V30 33 1 1 30
M  V30 34 1 1 31
M  V30 35 1 9 32
M  V30 36 1 9 33
M  V30 37 1 11 34
M  V30 38 1 15 35
M  V30 39 1 16 36
M  V30 40 1 16 37
M  V30 41 1 17 38
M  V30 42 1 17 39
M  V30 43 1 19 40
M  V30 44 1 19 41
M  V30 45 1 20 42
M  V30 46 1 20 43
M  V30 47 1 22 44
M  V30 48 1 22 45
M  V30 49 1 23 46
M  V30 50 1 23 47
M  V30 51 1 25 48
M  V30 52 1 26 49
M  V30 53 1 27 50
M  V30 54 1 28 51
M  V30 55 1 29 52
M  V30 END BOND
M  V30 END CTAB
M  END
