
     RDKit          3D

  0  0  0  0  0  0  0  0  0  0999 V3000
M  V30 BEGIN CTAB
M  V30 COUNTS 35 36 0 0 0
M  V30 BEGIN ATOM
M  V30 1 O 0.206611 -1.45369 1.21754 0
M  V30 2 C 0.326018 -1.99618 0.112007 0
M  V30 3 N 1.43526 -1.66358 -0.712332 0
M  V30 4 C 2.42474 -0.729442 -0.314128 0
M  V30 5 C 3.60366 -1.066 0.3104 0
M  V30 6 Br 3.98423 -2.91472 0.670337 0
M  V30 7 C 4.54412 -0.13968 0.697554 0
M  V30 8 C 4.30689 1.20494 0.453666 0
M  V30 9 C 3.13235 1.57097 -0.170871 0
M  V30 10 C 2.20263 0.604711 -0.54928 0
M  V30 11 Br 0.616431 1.23962 -1.40348 0
M  V30 12 C 5.28004 2.26435 0.843247 0
M  V30 13 C -0.689627 -2.9881 -0.344411 0
M  V30 14 S -1.77457 -2.33177 -1.62613 0
M  V30 15 C -2.79959 -1.04523 -0.942919 0
M  V30 16 N -3.68607 -0.414243 -1.76488 0
M  V30 17 C -4.51288 0.552234 -1.37015 0
M  V30 18 N -5.4181 1.18017 -2.25834 0
M  V30 19 C -4.46408 0.932448 -0.0497089 0
M  V30 20 C -3.57492 0.32123 0.840057 0
M  V30 21 N -2.77804 -0.65008 0.336362 0
M  V30 22 N -3.54612 0.733271 2.19002 0
M  V30 23 H 1.49725 -2.13798 -1.64714 0
M  V30 24 H 5.46906 -0.3781 1.18401 0
M  V30 25 H 2.96756 2.62011 -0.351458 0
M  V30 26 H 4.73043 3.16396 1.21156 0
M  V30 27 H 5.94575 1.81635 1.60201 0
M  V30 28 H 5.92137 2.52632 -0.0380324 0
M  V30 29 H -0.25463 -3.92373 -0.703277 0
M  V30 30 H -1.35717 -3.25614 0.520347 0
M  V30 31 H -5.09882 1.78697 -3.05984 0
M  V30 32 H -6.45418 1.07414 -2.16698 0
M  V30 33 H -5.11248 1.72278 0.362466 0
M  V30 34 H -3.56884 1.74476 2.40307 0
M  V30 35 H -3.50427 0.0293239 2.93895 0
M  V30 END ATOM
M  V30 BEGIN BOND
M  V30 1 2 1 2
M  V30 2 1 2 3
M  V30 3 1 3 4
M  V30 4 2 4 5
M  V30 5 1 5 6
M  V30 6 1 5 7
M  V30 7 2 7 8
M  V30 8 1 8 9
M  V30 9 2 9 10
M  V30 10 1 10 11
M  V30 11 1 8 12
M  V30 12 1 2 13
M  V30 13 1 13 14
M  V30 14 1 14 15
M  V30 15 2 15 16
M  V30 16 1 16 17
M  V30 17 1 17 18
M  V30 18 2 17 19
M  V30 19 1 19 20
M  V30 20 2 20 21
M  V30 21 1 20 22
M  V30 22 1 10 4
M  V30 23 1 21 15
M  V30 24 1 3 23
M  V30 25 1 7 24
M  V30 26 1 9 25
M  V30 27 1 12 26
M  V30 28 1 12 27
M  V30 29 1 12 28
M  V30 30 1 13 29
M  V30 31 1 13 30
M  V30 32 1 18 31
M  V30 33 1 18 32
M  V30 34 1 19 33
M  V30 35 1 22 34
M  V30 36 1 22 35
M  V30 END BOND
M  V30 END CTAB
M  END
