
     RDKit          3D

  0  0  0  0  0  0  0  0  0  0999 V3000
M  V30 BEGIN CTAB
M  V30 COUNTS 27 27 0 0 0
M  V30 BEGIN ATOM
M  V30 1 N 3.55948 -0.480269 -0.401892 0
M  V30 2 C 2.18166 -0.919443 -0.0665746 0
M  V30 3 C 1.62141 0.117459 0.835926 0
M  V30 4 C 0.227664 0.0147659 1.30775 0
M  V30 5 C -0.783709 -0.0692528 0.235109 0
M  V30 6 C -1.45543 1.08312 -0.0984792 0
M  V30 7 C -1.18892 2.41843 0.461507 0
M  V30 8 C -2.45026 0.938483 -1.0889 0
M  V30 9 C -2.75452 -0.229555 -1.69292 0
M  V30 10 N -2.07076 -1.32959 -1.32865 0
M  V30 11 C -1.10183 -1.26543 -0.385342 0
M  V30 12 N -0.57887 -2.52128 -0.0305983 0
M  V30 13 F -0.0270517 1.00943 2.25144 0
M  V30 14 H 3.7223 -0.717701 -1.42109 0
M  V30 15 H 3.63787 0.54902 -0.254397 0
M  V30 16 H 1.61871 -0.95782 -1.04203 0
M  V30 17 H 2.31079 -1.89692 0.387767 0
M  V30 18 H 2.31194 0.0912059 1.78428 0
M  V30 19 H 1.87567 1.12543 0.410994 0
M  V30 20 H 0.164349 -0.935161 1.91756 0
M  V30 21 H -0.116443 2.70437 0.4176 0
M  V30 22 H -1.66586 2.54633 1.43959 0
M  V30 23 H -1.6802 3.17261 -0.211637 0
M  V30 24 H -2.98118 1.84696 -1.36024 0
M  V30 25 H -3.53488 -0.257407 -2.43687 0
M  V30 26 H 0.0887952 -3.12382 -0.552153 0
M  V30 27 H -0.930724 -2.91397 0.922231 0
M  V30 END ATOM
M  V30 BEGIN BOND
M  V30 1 1 1 2
M  V30 2 1 2 3
M  V30 3 1 3 4
M  V30 4 1 4 5
M  V30 5 2 5 6
M  V30 6 1 6 7
M  V30 7 1 6 8
M  V30 8 2 8 9
M  V30 9 1 9 10
M  V30 10 2 10 11
M  V30 11 1 11 12
M  V30 12 1 4 13
M  V30 13 1 11 5
M  V30 14 1 1 14
M  V30 15 1 1 15
M  V30 16 1 2 16
M  V30 17 1 2 17
M  V30 18 1 3 18
M  V30 19 1 3 19
M  V30 20 1 4 20
M  V30 21 1 7 21
M  V30 22 1 7 22
M  V30 23 1 7 23
M  V30 24 1 8 24
M  V30 25 1 9 25
M  V30 26 1 12 26
M  V30 27 1 12 27
M  V30 END BOND
M  V30 END CTAB
M  END
