
     RDKit          3D

  0  0  0  0  0  0  0  0  0  0999 V3000
M  V30 BEGIN CTAB
M  V30 COUNTS 34 37 0 0 0
M  V30 BEGIN ATOM
M  V30 1 N 6.43209 -1.16493 -0.810602 0
M  V30 2 C 5.24334 -0.447634 -0.523449 0
M  V30 3 C 5.25138 0.889705 -0.177528 0
M  V30 4 Br 6.93207 1.77708 -0.0906701 0
M  V30 5 C 4.09093 1.57309 0.0984212 0
M  V30 6 C 2.86496 0.916561 0.0326807 0
M  V30 7 C 1.48699 1.3691 0.267321 0
M  V30 8 O 1.21926 2.53133 0.591346 0
M  V30 9 C 0.660307 0.204696 0.0359449 0
M  V30 10 N 1.48169 -0.907216 -0.322189 0
M  V30 11 C 2.82739 -0.41488 -0.309197 0
M  V30 12 C 4.01597 -1.06935 -0.580051 0
M  V30 13 Br 3.93884 -2.93117 -1.05601 0
M  V30 14 C -0.667187 0.139744 0.132163 0
M  V30 15 N -1.44111 -1.05476 -0.111511 0
M  V30 16 C -2.80844 -0.685215 0.100705 0
M  V30 17 C -3.97804 -1.45026 0.00202882 0
M  V30 18 Br -3.83684 -3.28666 -0.485942 0
M  V30 19 C -5.20781 -0.892005 0.251437 0
M  V30 20 N -6.39229 -1.68231 0.147485 0
M  V30 21 C -5.28717 0.441913 0.603906 0
M  V30 22 Br -7.00702 1.22455 0.953202 0
M  V30 23 C -4.14726 1.19751 0.702661 0
M  V30 24 C -2.90844 0.635716 0.451565 0
M  V30 25 C -1.54332 1.21752 0.486101 0
M  V30 26 O -1.32562 2.39879 0.773708 0
M  V30 27 H 7.3348 -0.83439 -0.421022 0
M  V30 28 H 6.43163 -2.01656 -1.40193 0
M  V30 29 H 4.10244 2.63837 0.373536 0
M  V30 30 H 1.14145 -1.84253 -0.535623 0
M  V30 31 H -1.04981 -1.95756 -0.378808 0
M  V30 32 H -7.19477 -1.50315 0.778027 0
M  V30 33 H -6.46308 -2.44005 -0.555692 0
M  V30 34 H -4.19734 2.24339 0.977985 0
M  V30 END ATOM
M  V30 BEGIN BOND
M  V30 1 1 1 2
M  V30 2 2 2 3
M  V30 3 1 3 4
M  V30 4 1 3 5
M  V30 5 2 5 6
M  V30 6 1 6 7
M  V30 7 2 7 8
M  V30 8 1 7 9
M  V30 9 1 9 10
M  V30 10 1 10 11
M  V30 11 2 11 12
M  V30 12 1 12 13
M  V30 13 2 9 14
M  V30 14 1 14 15
M  V30 15 1 15 16
M  V30 16 2 16 17
M  V30 17 1 17 18
M  V30 18 1 17 19
M  V30 19 1 19 20
M  V30 20 2 19 21
M  V30 21 1 21 22
M  V30 22 1 21 23
M  V30 23 2 23 24
M  V30 24 1 24 25
M  V30 25 2 25 26
M  V30 26 1 12 2
M  V30 27 1 25 14
M  V30 28 1 11 6
M  V30 29 1 24 16
M  V30 30 1 1 27
M  V30 31 1 1 28
M  V30 32 1 5 29
M  V30 33 1 10 30
M  V30 34 1 15 31
M  V30 35 1 20 32
M  V30 36 1 20 33
M  V30 37 1 23 34
M  V30 END BOND
M  V30 END CTAB
M  END
