
     RDKit          3D

  0  0  0  0  0  0  0  0  0  0999 V3000
M  V30 BEGIN CTAB
M  V30 COUNTS 52 55 0 0 0
M  V30 BEGIN ATOM
M  V30 1 N 7.29423 -0.485467 -2.35342 0
M  V30 2 C 6.14444 -0.601756 -1.52999 0
M  V30 3 N 4.9061 -0.248258 -1.91197 0
M  V30 4 C 3.83237 -0.381669 -1.07654 0
M  V30 5 O 2.47943 -0.0976472 -1.22337 0
M  V30 6 C 1.96009 0.112427 0.0513554 0
M  V30 7 C 2.69222 -0.923301 0.874788 0
M  V30 8 C 4.03511 -0.893772 0.190525 0
M  V30 9 C 5.30363 -1.25362 0.575592 0
M  V30 10 N 6.30662 -1.0951 -0.29464 0
M  V30 11 N 5.46863 -1.77674 1.88822 0
M  V30 12 C 2.3448 1.49145 0.509555 0
M  V30 13 O 1.60331 1.98337 1.54937 0
M  V30 14 C 0.609368 2.83042 1.00471 0
M  V30 15 C -0.619794 1.91086 0.855776 0
M  V30 16 N -0.335543 0.949044 -0.113515 0
M  V30 17 C 0.481493 -0.150476 0.168288 0
M  V30 18 C -1.35514 0.70612 -1.06392 0
M  V30 19 C -2.64633 0.227777 -0.551871 0
M  V30 20 C -2.83747 -0.298413 0.68671 0
M  V30 21 C -4.06968 -0.712022 1.08124 0
M  V30 22 C -4.30272 -1.29154 2.43334 0
M  V30 23 C -5.18682 -0.608754 0.219914 0
M  V30 24 C -5.02763 -0.0809165 -1.04046 0
M  V30 25 C -3.73101 0.325129 -1.38116 0
M  V30 26 C -6.09906 0.0755607 -2.01313 0
M  V30 27 O -5.88085 0.570034 -3.15681 0
M  V30 28 O -7.3793 -0.299391 -1.7429 0
M  V30 29 O -6.38969 -1.04725 0.693634 0
M  V30 30 H 7.80958 0.418573 -2.37761 0
M  V30 31 H 7.663 -1.25803 -2.94543 0
M  V30 32 H 2.76987 -0.655418 1.93698 0
M  V30 33 H 2.25041 -1.93628 0.712827 0
M  V30 34 H 4.9398 -1.37504 2.69875 0
M  V30 35 H 6.12998 -2.57721 2.04836 0
M  V30 36 H 3.42419 1.48804 0.842196 0
M  V30 37 H 2.31727 2.23294 -0.32298 0
M  V30 38 H 0.897601 3.20035 0.0193962 0
M  V30 39 H 0.389433 3.66955 1.69803 0
M  V30 40 H -0.767385 1.53455 1.90974 0
M  V30 41 H -1.50512 2.51223 0.53319 0
M  V30 42 H 0.255675 -0.968202 -0.577925 0
M  V30 43 H 0.330644 -0.63418 1.16076 0
M  V30 44 H -1.04368 -0.0625936 -1.83852 0
M  V30 45 H -1.47869 1.63507 -1.69491 0
M  V30 46 H -2.02021 -0.400804 1.37638 0
M  V30 47 H -3.53553 -0.9707 3.15831 0
M  V30 48 H -5.27787 -0.93186 2.80527 0
M  V30 49 H -4.36418 -2.39722 2.37204 0
M  V30 50 H -3.63134 0.741687 -2.39012 0
M  V30 51 H -7.86442 -1.0945 -2.16096 0
M  V30 52 H -7.28984 -1.10704 0.36428 0
M  V30 END ATOM
M  V30 BEGIN BOND
M  V30 1 1 1 2
M  V30 2 2 2 3
M  V30 3 1 3 4
M  V30 4 1 4 5
M  V30 5 1 5 6
M  V30 6 1 6 7
M  V30 7 1 7 8
M  V30 8 1 8 9
M  V30 9 2 9 10
M  V30 10 1 9 11
M  V30 11 1 6 12
M  V30 12 1 12 13
M  V30 13 1 13 14
M  V30 14 1 14 15
M  V30 15 1 15 16
M  V30 16 1 16 17
M  V30 17 1 16 18
M  V30 18 1 18 19
M  V30 19 2 19 20
M  V30 20 1 20 21
M  V30 21 1 21 22
M  V30 22 2 21 23
M  V30 23 1 23 24
M  V30 24 2 24 25
M  V30 25 1 24 26
M  V30 26 2 26 27
M  V30 27 1 26 28
M  V30 28 1 23 29
M  V30 29 1 10 2
M  V30 30 1 25 19
M  V30 31 2 8 4
M  V30 32 1 17 6
M  V30 33 1 1 30
M  V30 34 1 1 31
M  V30 35 1 7 32
M  V30 36 1 7 33
M  V30 37 1 11 34
M  V30 38 1 11 35
M  V30 39 1 12 36
M  V30 40 1 12 37
M  V30 41 1 14 38
M  V30 42 1 14 39
M  V30 43 1 15 40
M  V30 44 1 15 41
M  V30 45 1 17 42
M  V30 46 1 17 43
M  V30 47 1 18 44
M  V30 48 1 18 45
M  V30 49 1 20 46
M  V30 50 1 22 47
M  V30 51 1 22 48
M  V30 52 1 22 49
M  V30 53 1 25 50
M  V30 54 1 28 51
M  V30 55 1 29 52
M  V30 END BOND
M  V30 END CTAB
M  END
