
     RDKit          3D

  0  0  0  0  0  0  0  0  0  0999 V3000
M  V30 BEGIN CTAB
M  V30 COUNTS 40 41 0 0 0
M  V30 BEGIN ATOM
M  V30 1 C -4.86511 -0.0540595 -0.671978 0
M  V30 2 N -3.57672 -0.169956 -1.33562 0
M  V30 3 C -2.37688 -0.19273 -0.564405 0
M  V30 4 C -1.80206 -1.34291 -0.0802018 0
M  V30 5 O -2.40786 -2.53889 -0.348805 0
M  V30 6 C -1.93218 -3.77628 0.0815635 0
M  V30 7 C -0.629917 -1.26713 0.664161 0
M  V30 8 C -0.0135485 -0.0745724 0.939476 0
M  V30 9 C 1.23943 0.0749891 1.7128 0
M  V30 10 C 2.4402 0.306944 0.890453 0
M  V30 11 C 3.11382 -0.648811 0.187776 0
M  V30 12 N 2.65749 -2.01028 0.236112 0
M  V30 13 N 4.20736 -0.336893 -0.548408 0
M  V30 14 C 4.68528 0.913785 -0.628345 0
M  V30 15 N 5.83228 1.24536 -1.39853 0
M  V30 16 N 4.0261 1.88203 0.0666496 0
M  V30 17 C 2.94066 1.60255 0.804131 0
M  V30 18 C -0.612806 1.07128 0.440366 0
M  V30 19 C -1.77584 1.02607 -0.301114 0
M  V30 20 O -2.35238 2.20478 -0.789303 0
M  V30 21 C -1.743 3.44863 -0.523149 0
M  V30 22 H -5.61471 -0.61872 -1.2311 0
M  V30 23 H -5.14246 1.02112 -0.553328 0
M  V30 24 H -4.79676 -0.471279 0.340461 0
M  V30 25 H -3.47116 -0.239441 -2.36675 0
M  V30 26 H -2.26381 -4.01167 1.12809 0
M  V30 27 H -0.831603 -3.8816 0.0746369 0
M  V30 28 H -2.31243 -4.54203 -0.635115 0
M  V30 29 H -0.21785 -2.19161 1.03203 0
M  V30 30 H 1.41505 -0.874115 2.30403 0
M  V30 31 H 1.12595 0.874603 2.50365 0
M  V30 32 H 2.65234 -2.45854 1.17729 0
M  V30 33 H 2.34603 -2.55048 -0.576709 0
M  V30 34 H 6.29434 2.15447 -1.23159 0
M  V30 35 H 6.20882 0.608201 -2.10998 0
M  V30 36 H 2.46777 2.41993 1.32972 0
M  V30 37 H -0.182776 2.05379 0.617995 0
M  V30 38 H -2.21296 4.249 -1.13917 0
M  V30 39 H -1.83394 3.71271 0.568626 0
M  V30 40 H -0.684143 3.38175 -0.845282 0
M  V30 END ATOM
M  V30 BEGIN BOND
M  V30 1 1 1 2
M  V30 2 1 2 3
M  V30 3 2 3 4
M  V30 4 1 4 5
M  V30 5 1 5 6
M  V30 6 1 4 7
M  V30 7 2 7 8
M  V30 8 1 8 9
M  V30 9 1 9 10
M  V30 10 2 10 11
M  V30 11 1 11 12
M  V30 12 1 11 13
M  V30 13 2 13 14
M  V30 14 1 14 15
M  V30 15 1 14 16
M  V30 16 2 16 17
M  V30 17 1 8 18
M  V30 18 2 18 19
M  V30 19 1 19 20
M  V30 20 1 20 21
M  V30 21 1 19 3
M  V30 22 1 17 10
M  V30 23 1 1 22
M  V30 24 1 1 23
M  V30 25 1 1 24
M  V30 26 1 2 25
M  V30 27 1 6 26
M  V30 28 1 6 27
M  V30 29 1 6 28
M  V30 30 1 7 29
M  V30 31 1 9 30
M  V30 32 1 9 31
M  V30 33 1 12 32
M  V30 34 1 12 33
M  V30 35 1 15 34
M  V30 36 1 15 35
M  V30 37 1 17 36
M  V30 38 1 18 37
M  V30 39 1 21 38
M  V30 40 1 21 39
M  V30 41 1 21 40
M  V30 END BOND
M  V30 END CTAB
M  END
