
     RDKit          3D

  0  0  0  0  0  0  0  0  0  0999 V3000
M  V30 BEGIN CTAB
M  V30 COUNTS 41 42 0 0 0
M  V30 BEGIN ATOM
M  V30 1 C 4.43139 1.25024 0.494926 0
M  V30 2 C 3.78195 -0.0839273 0.723481 0
M  V30 3 C 2.3867 -0.0417809 0.189472 0
M  V30 4 C 1.65623 -1.36064 0.383368 0
M  V30 5 C 0.690044 -1.56781 -0.799752 0
M  V30 6 N 0.128676 -0.319305 -1.17561 0
M  V30 7 C 1.11274 0.538671 -1.91918 0
M  V30 8 C 2.46737 0.367016 -1.27332 0
M  V30 9 C -1.09253 0.226834 -0.926531 0
M  V30 10 O -1.28828 1.40012 -1.50575 0
M  V30 11 C -2.24399 -0.183367 -0.163117 0
M  V30 12 C -2.27926 -1.27886 0.662557 0
M  V30 13 C -3.41173 -1.61873 1.42705 0
M  V30 14 C -4.52406 -0.828259 1.3487 0
M  V30 15 C -4.55036 0.285607 0.538973 0
M  V30 16 C -3.42571 0.568123 -0.180542 0
M  V30 17 N -3.47209 1.7138 -1.0102 0
M  V30 18 N -5.72151 1.08791 0.479623 0 CHG=1
M  V30 19 O -6.47377 1.11477 1.46018 0
M  V30 20 O -6.01828 1.81399 -0.625292 0 CHG=-1
M  V30 21 N 3.87782 -0.559227 2.06962 0
M  V30 22 H 3.64349 2.03385 0.524346 0
M  V30 23 H 5.25116 1.43345 1.2157 0
M  V30 24 H 4.87872 1.29968 -0.52263 0
M  V30 25 H 4.34799 -0.821394 0.082432 0
M  V30 26 H 1.81064 0.72929 0.738129 0
M  V30 27 H 2.40069 -2.17043 0.349067 0
M  V30 28 H 1.09376 -1.40277 1.32922 0
M  V30 29 H 1.33482 -1.93281 -1.6801 0
M  V30 30 H 0.0434953 -2.38631 -0.583057 0
M  V30 31 H 0.829638 1.59257 -1.87041 0
M  V30 32 H 1.15781 0.110655 -2.93209 0
M  V30 33 H 2.99571 1.32715 -1.30383 0
M  V30 34 H 3.02596 -0.394013 -1.81824 0
M  V30 35 H -1.43562 -1.91012 0.781333 0
M  V30 36 H -3.38662 -2.50138 2.06667 0
M  V30 37 H -5.41907 -1.06763 1.93139 0
M  V30 38 H -3.75789 1.60798 -2.00489 0
M  V30 39 H -3.23333 2.66484 -0.674559 0
M  V30 40 H 3.51267 0.0745701 2.78616 0
M  V30 41 H 4.87464 -0.812334 2.24576 0
M  V30 END ATOM
M  V30 BEGIN BOND
M  V30 1 1 1 2
M  V30 2 1 2 3
M  V30 3 1 3 4
M  V30 4 1 4 5
M  V30 5 1 5 6
M  V30 6 1 6 7
M  V30 7 1 7 8
M  V30 8 1 6 9
M  V30 9 2 9 10
M  V30 10 1 9 11
M  V30 11 2 11 12
M  V30 12 1 12 13
M  V30 13 2 13 14
M  V30 14 1 14 15
M  V30 15 2 15 16
M  V30 16 1 16 17
M  V30 17 1 15 18
M  V30 18 2 18 19
M  V30 19 1 18 20
M  V30 20 1 2 21
M  V30 21 1 8 3
M  V30 22 1 16 11
M  V30 23 1 1 22
M  V30 24 1 1 23
M  V30 25 1 1 24
M  V30 26 1 2 25
M  V30 27 1 3 26
M  V30 28 1 4 27
M  V30 29 1 4 28
M  V30 30 1 5 29
M  V30 31 1 5 30
M  V30 32 1 7 31
M  V30 33 1 7 32
M  V30 34 1 8 33
M  V30 35 1 8 34
M  V30 36 1 12 35
M  V30 37 1 13 36
M  V30 38 1 14 37
M  V30 39 1 17 38
M  V30 40 1 17 39
M  V30 41 1 21 40
M  V30 42 1 21 41
M  V30 END BOND
M  V30 END CTAB
M  END
