
     RDKit          3D

  0  0  0  0  0  0  0  0  0  0999 V3000
M  V30 BEGIN CTAB
M  V30 COUNTS 54 58 0 0 0
M  V30 BEGIN ATOM
M  V30 1 N -6.63267 -2.37912 -1.27738 0
M  V30 2 C -6.16459 -1.28267 -0.470906 0
M  V30 3 N -6.99684 -0.660957 0.393606 0
M  V30 4 C -6.59131 0.370886 1.15012 0
M  V30 5 N -7.52114 0.977968 2.04514 0
M  V30 6 C -5.293 0.786901 1.01821 0
M  V30 7 C -4.40884 0.18527 0.148218 0
M  V30 8 N -4.87721 -0.84015 -0.573777 0
M  V30 9 N -3.19218 0.824636 0.259273 0
M  V30 10 C -3.33507 1.76491 1.15059 0
M  V30 11 N -4.6181 1.76249 1.62492 0
M  V30 12 C -2.09482 0.316017 -0.572834 0 CFG=2
M  V30 13 C -1.96452 -1.18363 -0.374538 0
M  V30 14 C -0.643589 -1.68915 -0.00220618 0
M  V30 15 N 0.493853 -0.83502 -0.38715 0
M  V30 16 C 0.267402 0.327066 -1.20459 0
M  V30 17 C -0.94413 1.13131 -0.780715 0 CFG=2
M  V30 18 C -0.455893 2.10828 0.245441 0
M  V30 19 O -1.18588 1.91182 -2.02259 0
M  V30 20 C 1.75284 -1.35674 -0.0107006 0
M  V30 21 O 1.7303 -2.58797 0.390474 0
M  V30 22 C 3.06152 -0.776104 0.00489678 0
M  V30 23 C 3.29617 0.553278 0.299701 0
M  V30 24 C 4.52747 1.14626 0.269578 0
M  V30 25 C 5.63974 0.389474 -0.0722429 0
M  V30 26 C 5.44542 -0.931652 -0.364744 0
M  V30 27 C 4.18471 -1.50952 -0.332239 0
M  V30 28 N 6.69798 -1.4512 -0.645316 0
M  V30 29 C 7.57849 -0.448809 -0.510205 0
M  V30 30 N 6.93987 0.666789 -0.16386 0
M  V30 31 C 9.04719 -0.561282 -0.717443 0
M  V30 32 F 9.46037 -1.6533 0.00201459 0
M  V30 33 F 9.6506 0.573283 -0.149452 0
M  V30 34 F 9.38578 -0.617905 -2.02067 0
M  V30 35 H -6.064 -3.17619 -1.576 0
M  V30 36 H -7.62826 -2.37553 -1.57281 0
M  V30 37 H -8.24119 0.434906 2.55178 0
M  V30 38 H -7.51393 1.99535 2.20797 0
M  V30 39 H -2.58114 2.44666 1.50357 0
M  V30 40 H -2.63438 0.298998 -1.62444 0
M  V30 41 H -2.6498 -1.41251 0.514367 0
M  V30 42 H -2.45189 -1.74826 -1.23406 0
M  V30 43 H -0.500275 -2.70954 -0.356063 0
M  V30 44 H -0.588583 -1.77876 1.14447 0
M  V30 45 H 0.135033 0.0123144 -2.2981 0
M  V30 46 H 1.16241 0.949037 -1.19799 0
M  V30 47 H -0.430931 1.80137 1.27942 0
M  V30 48 H -0.996674 3.05529 0.066621 0
M  V30 49 H 0.629928 2.39561 -0.00815155 0
M  V30 50 H -0.382664 2.45863 -2.12756 0
M  V30 51 H 2.40297 1.10689 0.595897 0
M  V30 52 H 4.66196 2.19393 0.520888 0
M  V30 53 H 4.10325 -2.56379 -0.598146 0
M  V30 54 H 7.32824 1.58414 0.0133139 0
M  V30 END ATOM
M  V30 BEGIN BOND
M  V30 1 1 1 2
M  V30 2 2 2 3
M  V30 3 1 3 4
M  V30 4 1 4 5
M  V30 5 2 4 6
M  V30 6 1 6 7
M  V30 7 2 7 8
M  V30 8 1 7 9
M  V30 9 1 9 10
M  V30 10 2 10 11
M  V30 11 1 9 12
M  V30 12 1 12 13
M  V30 13 1 13 14
M  V30 14 1 14 15
M  V30 15 1 15 16
M  V30 16 1 16 17
M  V30 17 1 17 18
M  V30 18 1 17 19 CFG=3
M  V30 19 1 15 20
M  V30 20 2 20 21
M  V30 21 1 20 22
M  V30 22 2 22 23
M  V30 23 1 23 24
M  V30 24 2 24 25
M  V30 25 1 25 26
M  V30 26 2 26 27
M  V30 27 1 26 28
M  V30 28 2 28 29
M  V30 29 1 29 30
M  V30 30 1 29 31
M  V30 31 1 31 32
M  V30 32 1 31 33
M  V30 33 1 31 34
M  V30 34 1 8 2
M  V30 35 1 17 12
M  V30 36 1 27 22
M  V30 37 1 11 6
M  V30 38 1 30 25
M  V30 39 1 1 35
M  V30 40 1 1 36
M  V30 41 1 5 37
M  V30 42 1 5 38
M  V30 43 1 10 39
M  V30 44 1 12 40 CFG=3
M  V30 45 1 13 41
M  V30 46 1 13 42
M  V30 47 1 14 43
M  V30 48 1 14 44
M  V30 49 1 16 45
M  V30 50 1 16 46
M  V30 51 1 18 47
M  V30 52 1 18 48
M  V30 53 1 18 49
M  V30 54 1 19 50
M  V30 55 1 23 51
M  V30 56 1 24 52
M  V30 57 1 27 53
M  V30 58 1 30 54
M  V30 END BOND
M  V30 END CTAB
M  END
