
     RDKit          3D

  0  0  0  0  0  0  0  0  0  0999 V3000
M  V30 BEGIN CTAB
M  V30 COUNTS 33 35 0 0 0
M  V30 BEGIN ATOM
M  V30 1 N -3.44973 1.97709 -0.991851 0
M  V30 2 C -3.53081 0.862234 -0.117405 0
M  V30 3 C -2.57889 -0.243405 -0.499393 0 CFG=1
M  V30 4 O -1.2537 0.145852 -0.488647 0
M  V30 5 C -0.579311 -1.04187 -0.378759 0 CFG=2
M  V30 6 C -1.27294 -1.67587 0.834142 0
M  V30 7 C -2.7298 -1.36088 0.495922 0 CFG=2
M  V30 8 O -3.26005 -2.50757 -0.133828 0
M  V30 9 N 0.841161 -0.888926 -0.135757 0
M  V30 10 C 1.61373 -1.89765 0.299285 0
M  V30 11 N 2.86581 -1.42451 0.41962 0
M  V30 12 C 2.90925 -0.130448 0.0693814 0
M  V30 13 C 1.61819 0.191565 -0.279349 0
M  V30 14 N 1.33813 1.45374 -0.685752 0
M  V30 15 C 2.33363 2.37318 -0.740787 0
M  V30 16 C 3.63868 2.06322 -0.392589 0
M  V30 17 C 3.9543 0.783211 0.0259068 0
M  V30 18 N 5.27733 0.426638 0.390661 0
M  V30 19 H -2.71458 2.60051 -0.73844 0
M  V30 20 H -4.3482 2.44044 -1.06235 0
M  V30 21 H -3.3266 1.19471 0.912906 0
M  V30 22 H -4.55051 0.444037 -0.126408 0
M  V30 23 H -2.82312 -0.594039 -1.53779 0
M  V30 24 H -0.799545 -1.69961 -1.24368 0
M  V30 25 H -1.07922 -2.74436 0.912894 0
M  V30 26 H -0.945676 -1.07991 1.71393 0
M  V30 27 H -3.31819 -1.09293 1.37776 0
M  V30 28 H -3.27968 -2.3501 -1.12823 0
M  V30 29 H 1.30723 -2.9193 0.521099 0
M  V30 30 H 2.14543 3.3873 -1.05992 0
M  V30 31 H 4.44493 2.80006 -0.435003 0
M  V30 32 H 5.59027 -0.552525 0.201416 0
M  V30 33 H 5.9625 1.0601 0.831483 0
M  V30 END ATOM
M  V30 BEGIN BOND
M  V30 1 1 1 2
M  V30 2 1 2 3
M  V30 3 1 3 4
M  V30 4 1 4 5
M  V30 5 1 5 6
M  V30 6 1 6 7
M  V30 7 1 7 8
M  V30 8 1 5 9
M  V30 9 1 9 10
M  V30 10 2 10 11
M  V30 11 1 11 12
M  V30 12 2 12 13
M  V30 13 1 13 14
M  V30 14 2 14 15
M  V30 15 1 15 16
M  V30 16 2 16 17
M  V30 17 1 17 18
M  V30 18 1 7 3
M  V30 19 1 13 9
M  V30 20 1 17 12
M  V30 21 1 1 19
M  V30 22 1 1 20
M  V30 23 1 2 21
M  V30 24 1 2 22
M  V30 25 1 3 23 CFG=3
M  V30 26 1 5 24 CFG=3
M  V30 27 1 6 25
M  V30 28 1 6 26
M  V30 29 1 7 27 CFG=1
M  V30 30 1 8 28
M  V30 31 1 10 29
M  V30 32 1 15 30
M  V30 33 1 16 31
M  V30 34 1 18 32
M  V30 35 1 18 33
M  V30 END BOND
M  V30 END CTAB
M  END
