
     RDKit          3D

  0  0  0  0  0  0  0  0  0  0999 V3000
M  V30 BEGIN CTAB
M  V30 COUNTS 42 43 0 0 0
M  V30 BEGIN ATOM
M  V30 1 C 4.885 1.39448 0.405117 0
M  V30 2 C 4.14185 1.13412 -0.872407 0
M  V30 3 C 2.67078 0.825987 -0.612485 0
M  V30 4 C 2.63757 -0.401788 0.263956 0
M  V30 5 C 1.23054 -0.842447 0.628157 0
M  V30 6 C 0.411282 -1.18184 -0.562898 0
M  V30 7 C -0.959146 -1.63287 -0.315124 0
M  V30 8 C -2.01489 -0.809881 -0.0495724 0
M  V30 9 C -3.26883 -1.35186 0.172881 0
M  V30 10 N -4.32447 -0.444397 0.4433 0
M  V30 11 N -3.46079 -2.67387 0.131147 0
M  V30 12 C -2.42965 -3.49366 -0.129223 0
M  V30 13 N -2.68894 -4.88862 -0.162358 0
M  V30 14 N -1.20669 -2.98004 -0.347141 0
M  V30 15 C -1.84174 0.658165 0.00435293 0
M  V30 16 C -1.5763 1.43384 -1.08098 0
M  V30 17 C -1.46293 2.79838 -0.942079 0
M  V30 18 C -1.61303 3.41323 0.286728 0
M  V30 19 C -1.87989 2.63788 1.38148 0
M  V30 20 C -1.99203 1.26353 1.22923 0
M  V30 21 H 5.77845 2.03214 0.250163 0
M  V30 22 H 4.16715 1.87172 1.11479 0
M  V30 23 H 5.16421 0.413654 0.858148 0
M  V30 24 H 4.63516 0.286837 -1.38859 0
M  V30 25 H 4.17398 2.03473 -1.533 0
M  V30 26 H 2.18838 1.6723 -0.096149 0
M  V30 27 H 2.12681 0.662678 -1.5509 0
M  V30 28 H 3.1142 -1.23466 -0.291989 0
M  V30 29 H 3.22265 -0.141424 1.18094 0
M  V30 30 H 1.37401 -1.71418 1.31885 0
M  V30 31 H 0.783308 0.0103517 1.16458 0
M  V30 32 H 0.952797 -2.01519 -1.09881 0
M  V30 33 H 0.414768 -0.358411 -1.32296 0
M  V30 34 H -5.02217 -0.216805 -0.279105 0
M  V30 35 H -4.39106 -0.00937014 1.37467 0
M  V30 36 H -1.90962 -5.52555 0.107917 0
M  V30 37 H -3.60246 -5.30015 -0.438442 0
M  V30 38 H -1.45477 0.988419 -2.04152 0
M  V30 39 H -1.25117 3.4331 -1.79644 0
M  V30 40 H -1.51679 4.48235 0.349572 0
M  V30 41 H -2.00204 3.08422 2.35506 0
M  V30 42 H -2.20347 0.684907 2.11548 0
M  V30 END ATOM
M  V30 BEGIN BOND
M  V30 1 1 1 2
M  V30 2 1 2 3
M  V30 3 1 3 4
M  V30 4 1 4 5
M  V30 5 1 5 6
M  V30 6 1 6 7
M  V30 7 2 7 8
M  V30 8 1 8 9
M  V30 9 1 9 10
M  V30 10 2 9 11
M  V30 11 1 11 12
M  V30 12 1 12 13
M  V30 13 2 12 14
M  V30 14 1 8 15
M  V30 15 2 15 16
M  V30 16 1 16 17
M  V30 17 2 17 18
M  V30 18 1 18 19
M  V30 19 2 19 20
M  V30 20 1 14 7
M  V30 21 1 20 15
M  V30 22 1 1 21
M  V30 23 1 1 22
M  V30 24 1 1 23
M  V30 25 1 2 24
M  V30 26 1 2 25
M  V30 27 1 3 26
M  V30 28 1 3 27
M  V30 29 1 4 28
M  V30 30 1 4 29
M  V30 31 1 5 30
M  V30 32 1 5 31
M  V30 33 1 6 32
M  V30 34 1 6 33
M  V30 35 1 10 34
M  V30 36 1 10 35
M  V30 37 1 13 36
M  V30 38 1 13 37
M  V30 39 1 16 38
M  V30 40 1 17 39
M  V30 41 1 18 40
M  V30 42 1 19 41
M  V30 43 1 20 42
M  V30 END BOND
M  V30 END CTAB
M  END
