
     RDKit          3D

  0  0  0  0  0  0  0  0  0  0999 V3000
M  V30 BEGIN CTAB
M  V30 COUNTS 17 17 0 0 0
M  V30 BEGIN ATOM
M  V30 1 N 3.90036 0.273074 -0.436863 0
M  V30 2 S 2.92784 -0.672806 0.623912 0
M  V30 3 O 3.15282 -2.14199 0.441352 0
M  V30 4 O 3.19268 -0.334367 2.06311 0
M  V30 5 C 1.22933 -0.368905 0.250076 0
M  V30 6 N 0.452427 -1.01475 -0.614738 0
M  V30 7 N -0.750806 -0.663735 -0.759554 0
M  V30 8 C -1.23923 0.347509 -0.0503408 0
M  V30 9 S 0.130687 0.798411 0.866438 0
M  V30 10 S -2.87476 0.98578 -0.104708 0
M  V30 11 N -3.82621 0.150736 1.04769 0
M  V30 12 O -3.47131 0.781594 -1.45502 0
M  V30 13 O -2.84443 2.43954 0.296895 0
M  V30 14 H 4.54004 -0.392713 -0.943243 0
M  V30 15 H 3.30916 0.778163 -1.13137 0
M  V30 16 H -4.58031 -0.436204 0.581121 0
M  V30 17 H -3.2483 -0.529338 1.59601 0
M  V30 END ATOM
M  V30 BEGIN BOND
M  V30 1 1 1 2
M  V30 2 2 2 3
M  V30 3 2 2 4
M  V30 4 1 2 5
M  V30 5 2 5 6
M  V30 6 1 6 7
M  V30 7 2 7 8
M  V30 8 1 8 9
M  V30 9 1 8 10
M  V30 10 1 10 11
M  V30 11 2 10 12
M  V30 12 2 10 13
M  V30 13 1 9 5
M  V30 14 1 1 14
M  V30 15 1 1 15
M  V30 16 1 11 16
M  V30 17 1 11 17
M  V30 END BOND
M  V30 END CTAB
M  END
