
     RDKit          3D

  0  0  0  0  0  0  0  0  0  0999 V3000
M  V30 BEGIN CTAB
M  V30 COUNTS 71 73 0 0 0
M  V30 BEGIN ATOM
M  V30 1 C -10.4395 0.732948 1.72891 0
M  V30 2 C -9.90093 -0.119761 0.576331 0
M  V30 3 C -8.82205 0.678264 -0.120721 0
M  V30 4 C -8.24054 -0.0865785 -1.2954 0
M  V30 5 C -7.64397 -1.39095 -0.826746 0
M  V30 6 N -6.59419 -1.24142 0.133649 0
M  V30 7 C -5.39065 -0.539064 -0.124183 0
M  V30 8 O -5.25202 -0.0236972 -1.27433 0
M  V30 9 C -4.32562 -0.39312 0.876901 0
M  V30 10 C -2.97872 -0.0296961 0.400627 0
M  V30 11 C -2.18691 -1.04376 -0.329696 0
M  V30 12 N -0.900448 -0.4305 -0.758614 0
M  V30 13 C 0.297373 -0.597517 -0.0440096 0
M  V30 14 O 0.291665 -1.28955 0.997502 0
M  V30 15 C 1.55053 0.00883302 -0.464162 0
M  V30 16 C 1.98715 -0.0801989 -1.76071 0
M  V30 17 C 3.16786 0.525441 -2.17167 0
M  V30 18 C 3.95425 1.24941 -1.27353 0
M  V30 19 C 3.49933 1.32495 0.0210566 0
M  V30 20 C 2.32231 0.717852 0.418355 0
M  V30 21 N 5.13367 1.86854 -1.73552 0
M  V30 22 C 5.51279 1.71919 -3.12162 0
M  V30 23 C 5.95115 2.64137 -0.849119 0
M  V30 24 C 6.66156 1.88554 0.194293 0
M  V30 25 N 7.01996 0.595437 0.115576 0
M  V30 26 C 7.68341 -0.0175506 1.13276 0
M  V30 27 C 8.05932 -1.34138 1.05442 0
M  V30 28 N 7.72551 -2.05476 -0.128597 0
M  V30 29 N 8.72866 -1.94892 2.07834 0
M  V30 30 C 9.04059 -1.26809 3.19576 0
M  V30 31 N 9.74295 -1.91943 4.26441 0
M  V30 32 N 8.67723 0.0203039 3.27693 0
M  V30 33 C 8.01606 0.656418 2.28865 0
M  V30 34 N 7.66165 1.94891 2.37792 0
M  V30 35 C 7.00737 2.55623 1.37522 0
M  V30 36 C -2.8037 -1.80085 -1.3739 0
M  V30 37 O -3.68927 -2.86226 -1.08493 0
M  V30 38 O -2.58997 -1.57457 -2.6027 0
M  V30 39 H -9.66119 0.82413 2.49526 0
M  V30 40 H -10.6624 1.74445 1.34394 0
M  V30 41 H -11.4006 0.317063 2.09426 0
M  V30 42 H -9.45585 -1.01973 1.09133 0
M  V30 43 H -10.7021 -0.460225 -0.0763966 0
M  V30 44 H -8.03304 0.911873 0.626753 0
M  V30 45 H -9.19674 1.63834 -0.50692 0
M  V30 46 H -9.11684 -0.389412 -1.94644 0
M  V30 47 H -7.5486 0.535235 -1.88194 0
M  V30 48 H -7.28471 -1.93462 -1.7506 0
M  V30 49 H -8.47758 -1.98578 -0.385246 0
M  V30 50 H -6.69784 -1.67132 1.09337 0
M  V30 51 H -4.30319 -1.34074 1.51783 0
M  V30 52 H -4.65488 0.384149 1.64842 0
M  V30 53 H -3.09193 0.929006 -0.220419 0
M  V30 54 H -2.34389 0.26574 1.30364 0
M  V30 55 H -1.83686 -1.76903 0.498563 0
M  V30 56 H -0.911106 0.137528 -1.6221 0
M  V30 57 H 1.42372 -0.632636 -2.5214 0
M  V30 58 H 3.50887 0.454319 -3.19054 0
M  V30 59 H 4.05409 1.86615 0.746318 0
M  V30 60 H 2.01986 0.811919 1.44564 0
M  V30 61 H 6.36778 2.38891 -3.33702 0
M  V30 62 H 4.69982 2.01273 -3.81775 0
M  V30 63 H 5.78037 0.674286 -3.38674 0
M  V30 64 H 6.73267 3.23438 -1.4174 0
M  V30 65 H 5.31057 3.45569 -0.40373 0
M  V30 66 H 7.72927 -3.09405 -0.0805647 0
M  V30 67 H 7.49238 -1.55309 -1.00137 0
M  V30 68 H 10.1482 -1.38853 5.05943 0
M  V30 69 H 9.87397 -2.95374 4.28604 0
M  V30 70 H 6.73635 3.58781 1.47774 0
M  V30 71 H -4.43249 -3.05682 -1.73042 0
M  V30 END ATOM
M  V30 BEGIN BOND
M  V30 1 1 1 2
M  V30 2 1 2 3
M  V30 3 1 3 4
M  V30 4 1 4 5
M  V30 5 1 5 6
M  V30 6 1 6 7
M  V30 7 2 7 8
M  V30 8 1 7 9
M  V30 9 1 9 10
M  V30 10 1 10 11
M  V30 11 1 11 12
M  V30 12 1 12 13
M  V30 13 2 13 14
M  V30 14 1 13 15
M  V30 15 2 15 16
M  V30 16 1 16 17
M  V30 17 2 17 18
M  V30 18 1 18 19
M  V30 19 2 19 20
M  V30 20 1 18 21
M  V30 21 1 21 22
M  V30 22 1 21 23
M  V30 23 1 23 24
M  V30 24 2 24 25
M  V30 25 1 25 26
M  V30 26 2 26 27
M  V30 27 1 27 28
M  V30 28 1 27 29
M  V30 29 2 29 30
M  V30 30 1 30 31
M  V30 31 1 30 32
M  V30 32 2 32 33
M  V30 33 1 33 34
M  V30 34 2 34 35
M  V30 35 1 11 36
M  V30 36 1 36 37
M  V30 37 2 36 38
M  V30 38 1 20 15
M  V30 39 1 35 24
M  V30 40 1 33 26
M  V30 41 1 1 39
M  V30 42 1 1 40
M  V30 43 1 1 41
M  V30 44 1 2 42
M  V30 45 1 2 43
M  V30 46 1 3 44
M  V30 47 1 3 45
M  V30 48 1 4 46
M  V30 49 1 4 47
M  V30 50 1 5 48
M  V30 51 1 5 49
M  V30 52 1 6 50
M  V30 53 1 9 51
M  V30 54 1 9 52
M  V30 55 1 10 53
M  V30 56 1 10 54
M  V30 57 1 11 55
M  V30 58 1 12 56
M  V30 59 1 16 57
M  V30 60 1 17 58
M  V30 61 1 19 59
M  V30 62 1 20 60
M  V30 63 1 22 61
M  V30 64 1 22 62
M  V30 65 1 22 63
M  V30 66 1 23 64
M  V30 67 1 23 65
M  V30 68 1 28 66
M  V30 69 1 28 67
M  V30 70 1 31 68
M  V30 71 1 31 69
M  V30 72 1 35 70
M  V30 73 1 37 71
M  V30 END BOND
M  V30 END CTAB
M  END
