
     RDKit          3D

  0  0  0  0  0  0  0  0  0  0999 V3000
M  V30 BEGIN CTAB
M  V30 COUNTS 32 32 0 0 0
M  V30 BEGIN ATOM
M  V30 1 O -0.861203 -2.12153 -0.261267 0
M  V30 2 C -0.0721673 -1.20841 0.0216635 0
M  V30 3 C 1.35104 -1.37794 -0.406534 0
M  V30 4 C 1.67385 -2.29549 -1.37908 0
M  V30 5 S 3.38312 -2.13248 -1.52038 0
M  V30 6 C 3.6263 -0.923298 -0.357463 0
M  V30 7 C 2.37475 -0.676415 0.111367 0
M  V30 8 S 5.18673 -0.245809 0.0407993 0
M  V30 9 O 6.05466 -1.38577 0.518938 0
M  V30 10 O 5.86892 0.331466 -1.17669 0
M  V30 11 N 5.03237 0.96025 1.27131 0
M  V30 12 N -0.516656 -0.0711105 0.715074 0
M  V30 13 C -1.77998 0.306266 1.19902 0
M  V30 14 C -2.91407 0.561164 0.304904 0
M  V30 15 N -4.04991 0.9606 1.19814 0
M  V30 16 C -2.71845 1.80456 -0.572955 0
M  V30 17 C -3.44906 -0.53872 -0.534578 0
M  V30 18 H 1.01181 -2.977 -1.94206 0
M  V30 19 H 2.2266 0.0905176 0.906708 0
M  V30 20 H 4.15105 1.50109 1.06858 0
M  V30 21 H 5.81003 1.65543 1.08582 0
M  V30 22 H 0.305191 0.635304 0.889406 0
M  V30 23 H -2.11768 -0.533142 1.89895 0
M  V30 24 H -1.64671 1.16715 1.90868 0
M  V30 25 H -4.94669 0.763013 0.744039 0
M  V30 26 H -3.98053 1.97012 1.42181 0
M  V30 27 H -2.1117 1.49437 -1.43389 0
M  V30 28 H -2.16993 2.58742 -0.0404693 0
M  V30 29 H -3.70145 2.11399 -0.93936 0
M  V30 30 H -2.91117 -0.636336 -1.49645 0
M  V30 31 H -3.58877 -1.5018 -0.022756 0
M  V30 32 H -4.52029 -0.277448 -0.867379 0
M  V30 END ATOM
M  V30 BEGIN BOND
M  V30 1 2 1 2
M  V30 2 1 2 3
M  V30 3 2 3 4
M  V30 4 1 4 5
M  V30 5 1 5 6
M  V30 6 2 6 7
M  V30 7 1 6 8
M  V30 8 2 8 9
M  V30 9 2 8 10
M  V30 10 1 8 11
M  V30 11 1 2 12
M  V30 12 1 12 13
M  V30 13 1 13 14
M  V30 14 1 14 15
M  V30 15 1 14 16
M  V30 16 1 14 17
M  V30 17 1 7 3
M  V30 18 1 4 18
M  V30 19 1 7 19
M  V30 20 1 11 20
M  V30 21 1 11 21
M  V30 22 1 12 22
M  V30 23 1 13 23
M  V30 24 1 13 24
M  V30 25 1 15 25
M  V30 26 1 15 26
M  V30 27 1 16 27
M  V30 28 1 16 28
M  V30 29 1 16 29
M  V30 30 1 17 30
M  V30 31 1 17 31
M  V30 32 1 17 32
M  V30 END BOND
M  V30 END CTAB
M  END
