
     RDKit          3D

  0  0  0  0  0  0  0  0  0  0999 V3000
M  V30 BEGIN CTAB
M  V30 COUNTS 26 27 0 0 0
M  V30 BEGIN ATOM
M  V30 1 C 4.58332 -0.315162 0.0146568 0
M  V30 2 N 3.20248 -0.753749 0.0320141 0
M  V30 3 C 2.78108 -2.03064 0.00615039 0
M  V30 4 N 1.43753 -2.02334 0.0349024 0
M  V30 5 C 0.967366 -0.758264 0.0793906 0
M  V30 6 C 2.09677 0.0329392 0.0769649 0
M  V30 7 C -0.432697 -0.3455 0.120404 0
M  V30 8 N -1.46966 -1.20724 0.118956 0
M  V30 9 C -2.64316 -0.554746 0.161679 0
M  V30 10 N -2.31636 0.748562 0.190256 0
M  V30 11 C -0.979559 0.905549 0.166124 0
M  V30 12 N -0.235004 2.11748 0.183342 0
M  V30 13 N -3.21707 1.83252 0.238947 0
M  V30 14 C -4.03185 -1.08533 0.176745 0
M  V30 15 H 4.72946 0.553348 0.689232 0
M  V30 16 H 4.92618 -0.064062 -1.03139 0
M  V30 17 H 5.25576 -1.10943 0.376425 0
M  V30 18 H 3.44637 -2.90945 -0.0319671 0
M  V30 19 H 2.13704 1.12336 0.105838 0
M  V30 20 H 0.310233 2.44698 0.999389 0
M  V30 21 H -0.236599 2.71482 -0.680537 0
M  V30 22 H -3.59672 2.26509 -0.634998 0
M  V30 23 H -3.53443 2.23824 1.13094 0
M  V30 24 H -4.57752 -0.92351 -0.751131 0
M  V30 25 H -3.98886 -2.20083 0.338693 0
M  V30 26 H -4.61408 -0.697641 1.05478 0
M  V30 END ATOM
M  V30 BEGIN BOND
M  V30 1 1 1 2
M  V30 2 1 2 3
M  V30 3 2 3 4
M  V30 4 1 4 5
M  V30 5 2 5 6
M  V30 6 1 5 7
M  V30 7 1 7 8
M  V30 8 2 8 9
M  V30 9 1 9 10
M  V30 10 1 10 11
M  V30 11 1 11 12
M  V30 12 1 10 13
M  V30 13 1 9 14
M  V30 14 1 6 2
M  V30 15 2 11 7
M  V30 16 1 1 15
M  V30 17 1 1 16
M  V30 18 1 1 17
M  V30 19 1 3 18
M  V30 20 1 6 19
M  V30 21 1 12 20
M  V30 22 1 12 21
M  V30 23 1 13 22
M  V30 24 1 13 23
M  V30 25 1 14 24
M  V30 26 1 14 25
M  V30 27 1 14 26
M  V30 END BOND
M  V30 END CTAB
M  END
