
     RDKit          3D

  0  0  0  0  0  0  0  0  0  0999 V3000
M  V30 BEGIN CTAB
M  V30 COUNTS 54 56 0 0 0
M  V30 BEGIN ATOM
M  V30 1 C -4.96141 -0.289646 1.01346 0 CFG=2
M  V30 2 C -5.18166 1.18406 0.833218 0
M  V30 3 C -5.41099 1.48335 -0.627036 0
M  V30 4 C -5.63526 2.92631 -0.753506 0
M  V30 5 O -4.61287 3.74926 -1.17784 0
M  V30 6 O -6.74596 3.42071 -0.480045 0
M  V30 7 N -3.79049 -0.673581 0.237185 0
M  V30 8 C -2.64594 -1.10158 0.959415 0
M  V30 9 O -2.63152 -1.14956 2.22525 0
M  V30 10 C -1.45939 -1.49447 0.23524 0
M  V30 11 C -0.259282 -1.58965 0.903753 0
M  V30 12 C 0.892463 -1.96708 0.247077 0
M  V30 13 C 0.876807 -2.2629 -1.10914 0
M  V30 14 C 2.11519 -2.66662 -1.82556 0
M  V30 15 C 2.81597 -1.49058 -2.41526 0
M  V30 16 C 3.23957 -0.462032 -1.44742 0
M  V30 17 C 4.46253 -0.468366 -0.800276 0
M  V30 18 C 4.86541 0.485736 0.0927091 0
M  V30 19 C 3.96433 1.52602 0.352342 0
M  V30 20 N 2.76621 1.56866 -0.255764 0
M  V30 21 C 2.39951 0.613279 -1.13055 0
M  V30 22 N 4.33689 2.47677 1.22641 0
M  V30 23 C 5.52903 2.47397 1.85935 0
M  V30 24 N 5.8422 3.51162 2.76431 0
M  V30 25 N 6.3722 1.46334 1.59014 0
M  V30 26 C 6.0845 0.471828 0.731983 0
M  V30 27 N 6.99323 -0.583227 0.465435 0
M  V30 28 C -0.337461 -2.15998 -1.75444 0
M  V30 29 C -1.5101 -1.7797 -1.10402 0
M  V30 30 C -6.12605 -1.08853 0.614055 0
M  V30 31 O -7.34355 -0.881131 1.22899 0
M  V30 32 O -6.00355 -1.95073 -0.281115 0
M  V30 33 H -4.7817 -0.484896 2.09566 0
M  V30 34 H -6.04977 1.53649 1.42574 0
M  V30 35 H -4.24048 1.70544 1.12467 0
M  V30 36 H -4.51186 1.16717 -1.21805 0
M  V30 37 H -6.26394 0.871208 -0.979933 0
M  V30 38 H -4.31439 4.55015 -0.631958 0
M  V30 39 H -3.78863 -0.640971 -0.791465 0
M  V30 40 H -0.184919 -1.36709 1.98163 0
M  V30 41 H 1.84004 -2.04155 0.775982 0
M  V30 42 H 2.76415 -3.22379 -1.11545 0
M  V30 43 H 1.78785 -3.37239 -2.61658 0
M  V30 44 H 3.68819 -1.89661 -2.99985 0
M  V30 45 H 2.19061 -0.980947 -3.18595 0
M  V30 46 H 5.12248 -1.28442 -1.02871 0
M  V30 47 H 1.42716 0.659538 -1.61565 0
M  V30 48 H 6.40866 3.31726 3.60603 0
M  V30 49 H 5.50444 4.47145 2.58666 0
M  V30 50 H 7.64993 -0.914384 1.21437 0
M  V30 51 H 7.06751 -1.0794 -0.449828 0
M  V30 52 H -0.338 -2.39508 -2.81971 0
M  V30 53 H -2.40279 -1.73543 -1.70726 0
M  V30 54 H -7.4751 -0.15731 1.91332 0
M  V30 END ATOM
M  V30 BEGIN BOND
M  V30 1 1 1 2
M  V30 2 1 2 3
M  V30 3 1 3 4
M  V30 4 1 4 5
M  V30 5 2 4 6
M  V30 6 1 1 7
M  V30 7 1 7 8
M  V30 8 2 8 9
M  V30 9 1 8 10
M  V30 10 2 10 11
M  V30 11 1 11 12
M  V30 12 2 12 13
M  V30 13 1 13 14
M  V30 14 1 14 15
M  V30 15 1 15 16
M  V30 16 2 16 17
M  V30 17 1 17 18
M  V30 18 2 18 19
M  V30 19 1 19 20
M  V30 20 2 20 21
M  V30 21 1 19 22
M  V30 22 2 22 23
M  V30 23 1 23 24
M  V30 24 1 23 25
M  V30 25 2 25 26
M  V30 26 1 26 27
M  V30 27 1 13 28
M  V30 28 2 28 29
M  V30 29 1 1 30
M  V30 30 1 30 31
M  V30 31 2 30 32
M  V30 32 1 29 10
M  V30 33 1 21 16
M  V30 34 1 26 18
M  V30 35 1 1 33 CFG=1
M  V30 36 1 2 34
M  V30 37 1 2 35
M  V30 38 1 3 36
M  V30 39 1 3 37
M  V30 40 1 5 38
M  V30 41 1 7 39
M  V30 42 1 11 40
M  V30 43 1 12 41
M  V30 44 1 14 42
M  V30 45 1 14 43
M  V30 46 1 15 44
M  V30 47 1 15 45
M  V30 48 1 17 46
M  V30 49 1 21 47
M  V30 50 1 24 48
M  V30 51 1 24 49
M  V30 52 1 27 50
M  V30 53 1 27 51
M  V30 54 1 28 52
M  V30 55 1 29 53
M  V30 56 1 31 54
M  V30 END BOND
M  V30 END CTAB
M  END
