
     RDKit          3D

  0  0  0  0  0  0  0  0  0  0999 V3000
M  V30 BEGIN CTAB
M  V30 COUNTS 32 32 0 0 0
M  V30 BEGIN ATOM
M  V30 1 C 4.18377 0.75291 -0.0984724 0
M  V30 2 C 3.39859 -0.289285 0.649559 0
M  V30 3 C 2.16021 -0.611841 -0.179563 0
M  V30 4 S 1.22723 0.917022 -0.342723 0
M  V30 5 C -0.544902 0.688628 -0.399358 0
M  V30 6 C -0.98405 -0.734297 -0.574585 0
M  V30 7 C -2.48075 -0.770075 -0.74131 0
M  V30 8 C -3.22229 -0.0547793 0.35287 0
M  V30 9 C -2.70793 1.37667 0.44694 0
M  V30 10 C -1.23768 1.25109 0.828041 0
M  V30 11 N -4.62969 -0.0665322 0.0250424 0
M  V30 12 N 4.16232 -1.46809 0.967007 0
M  V30 13 H 5.27073 0.570924 -0.0833235 0
M  V30 14 H 3.87921 0.808099 -1.17453 0
M  V30 15 H 3.95345 1.76289 0.324073 0
M  V30 16 H 3.03271 0.139032 1.59255 0
M  V30 17 H 1.603 -1.428 0.310144 0
M  V30 18 H 2.46558 -0.907813 -1.21523 0
M  V30 19 H -0.962823 1.25819 -1.26806 0
M  V30 20 H -0.550868 -1.10601 -1.53799 0
M  V30 21 H -0.668417 -1.3853 0.270765 0
M  V30 22 H -2.78667 -1.84405 -0.708774 0
M  V30 23 H -2.7406 -0.349479 -1.73127 0
M  V30 24 H -2.98262 -0.53943 1.30718 0
M  V30 25 H -3.28134 1.98473 1.15767 0
M  V30 26 H -2.71306 1.84136 -0.567853 0
M  V30 27 H -1.17021 0.497504 1.64776 0
M  V30 28 H -0.808292 2.203 1.17083 0
M  V30 29 H -4.73771 0.338246 -0.923538 0
M  V30 30 H -4.95271 -1.05428 0.0891258 0
M  V30 31 H 5.15352 -1.42932 0.678145 0
M  V30 32 H 3.67233 -2.35172 0.720372 0
M  V30 END ATOM
M  V30 BEGIN BOND
M  V30 1 1 1 2
M  V30 2 1 2 3
M  V30 3 1 3 4
M  V30 4 1 4 5
M  V30 5 1 5 6
M  V30 6 1 6 7
M  V30 7 1 7 8
M  V30 8 1 8 9
M  V30 9 1 9 10
M  V30 10 1 8 11
M  V30 11 1 2 12
M  V30 12 1 10 5
M  V30 13 1 1 13
M  V30 14 1 1 14
M  V30 15 1 1 15
M  V30 16 1 2 16
M  V30 17 1 3 17
M  V30 18 1 3 18
M  V30 19 1 5 19
M  V30 20 1 6 20
M  V30 21 1 6 21
M  V30 22 1 7 22
M  V30 23 1 7 23
M  V30 24 1 8 24
M  V30 25 1 9 25
M  V30 26 1 9 26
M  V30 27 1 10 27
M  V30 28 1 10 28
M  V30 29 1 11 29
M  V30 30 1 11 30
M  V30 31 1 12 31
M  V30 32 1 12 32
M  V30 END BOND
M  V30 END CTAB
M  END
