
     RDKit          3D

  0  0  0  0  0  0  0  0  0  0999 V3000
M  V30 BEGIN CTAB
M  V30 COUNTS 35 36 0 0 0
M  V30 BEGIN ATOM
M  V30 1 N -3.70553 2.0221 0.7982 0
M  V30 2 C -3.66133 0.647664 0.385328 0
M  V30 3 N -4.783 -0.0894874 0.384759 0
M  V30 4 C -4.82986 -1.38814 0.0118705 0
M  V30 5 C -3.64865 -1.97265 -0.388031 0
M  V30 6 C -2.45645 -1.26356 -0.409602 0
M  V30 7 C -2.46069 0.0525991 -0.0211154 0
M  V30 8 C -1.29764 0.92466 -0.0240476 0
M  V30 9 N -0.0384274 0.347079 -0.382945 0
M  V30 10 C 0.882813 1.49925 -0.53979 0
M  V30 11 C 2.30828 1.06134 -0.450576 0
M  V30 12 N 2.52496 -0.338819 -0.448473 0
M  V30 13 C 1.73312 -1.08877 0.498423 0
M  V30 14 C 0.432207 -0.404116 0.789557 0
M  V30 15 S 4.14598 -0.819062 -0.55543 0
M  V30 16 O 4.75693 -0.219283 -1.7943 0
M  V30 17 O 4.33748 -2.29089 -0.619797 0
M  V30 18 N 5.02968 -0.222688 0.813818 0
M  V30 19 H -3.07299 2.41325 1.50673 0
M  V30 20 H -4.40967 2.6638 0.364612 0
M  V30 21 H -5.74163 -1.96941 0.0168313 0
M  V30 22 H -3.62068 -3.00528 -0.697043 0
M  V30 23 H -1.55792 -1.77505 -0.747145 0
M  V30 24 H -1.49476 1.7158 -0.811709 0
M  V30 25 H -1.23084 1.53497 0.915784 0
M  V30 26 H 0.700187 2.24231 0.263496 0
M  V30 27 H 0.666554 2.00685 -1.50017 0
M  V30 28 H 2.83489 1.50725 0.434118 0
M  V30 29 H 2.85018 1.4807 -1.33578 0
M  V30 30 H 1.6021 -2.13714 0.191063 0
M  V30 31 H 2.32378 -1.11534 1.45811 0
M  V30 32 H 0.593479 0.321942 1.63974 0
M  V30 33 H -0.313689 -1.11179 1.09341 0
M  V30 34 H 4.57148 -0.643498 1.65714 0
M  V30 35 H 6.02967 -0.58661 0.783989 0
M  V30 END ATOM
M  V30 BEGIN BOND
M  V30 1 1 1 2
M  V30 2 2 2 3
M  V30 3 1 3 4
M  V30 4 2 4 5
M  V30 5 1 5 6
M  V30 6 2 6 7
M  V30 7 1 7 8
M  V30 8 1 8 9
M  V30 9 1 9 10
M  V30 10 1 10 11
M  V30 11 1 11 12
M  V30 12 1 12 13
M  V30 13 1 13 14
M  V30 14 1 12 15
M  V30 15 2 15 16
M  V30 16 2 15 17
M  V30 17 1 15 18
M  V30 18 1 7 2
M  V30 19 1 14 9
M  V30 20 1 1 19
M  V30 21 1 1 20
M  V30 22 1 4 21
M  V30 23 1 5 22
M  V30 24 1 6 23
M  V30 25 1 8 24
M  V30 26 1 8 25
M  V30 27 1 10 26
M  V30 28 1 10 27
M  V30 29 1 11 28
M  V30 30 1 11 29
M  V30 31 1 13 30
M  V30 32 1 13 31
M  V30 33 1 14 32
M  V30 34 1 14 33
M  V30 35 1 18 34
M  V30 36 1 18 35
M  V30 END BOND
M  V30 END CTAB
M  END
