
     RDKit          3D

  0  0  0  0  0  0  0  0  0  0999 V3000
M  V30 BEGIN CTAB
M  V30 COUNTS 34 35 0 0 0
M  V30 BEGIN ATOM
M  V30 1 N -5.30979 0.188728 0.176765 0
M  V30 2 C -3.91266 0.121036 0.54398 0
M  V30 3 C -3.42063 -1.30887 0.643325 0
M  V30 4 C -1.90794 -1.06723 0.560778 0
M  V30 5 N -1.75052 -0.00691194 -0.391297 0
M  V30 6 C -3.01288 0.649466 -0.554787 0
M  V30 7 S -0.57132 1.14705 0.0461563 0
M  V30 8 O -0.911767 1.87941 1.31248 0
M  V30 9 O -0.526406 2.19004 -1.04964 0
M  V30 10 C 1.02339 0.468591 0.189035 0
M  V30 11 C 1.41034 -0.0247494 1.43813 0
M  V30 12 C 2.65813 -0.576733 1.62813 0
M  V30 13 C 3.50453 -0.622736 0.543685 0
M  V30 14 C 3.15228 -0.147215 -0.691015 0
M  V30 15 C 1.90396 0.40042 -0.864125 0
M  V30 16 S 4.30301 -0.248262 -2.02322 0
M  V30 17 O 5.21181 -1.40961 -1.76279 0
M  V30 18 O 3.59798 -0.480227 -3.30583 0
M  V30 19 N 5.25917 1.18539 -2.05312 0
M  V30 20 H -5.83856 0.832697 0.801752 0
M  V30 21 H -5.75646 -0.754809 0.163641 0
M  V30 22 H -3.70294 0.628003 1.50828 0
M  V30 23 H -3.7143 -1.81189 1.56131 0
M  V30 24 H -3.67744 -1.86519 -0.28943 0
M  V30 25 H -1.43226 -1.99822 0.229182 0
M  V30 26 H -1.58835 -0.764864 1.59167 0
M  V30 27 H -2.94559 1.75439 -0.525687 0
M  V30 28 H -3.46576 0.300745 -1.52372 0
M  V30 29 H 0.732026 0.0226818 2.26815 0
M  V30 30 H 3.00603 -0.969675 2.56435 0
M  V30 31 H 4.50461 -1.05339 0.652475 0
M  V30 32 H 1.61445 0.781459 -1.84253 0
M  V30 33 H 6.0364 1.09539 -2.71816 0
M  V30 34 H 5.52747 1.4651 -1.09266 0
M  V30 END ATOM
M  V30 BEGIN BOND
M  V30 1 1 1 2
M  V30 2 1 2 3
M  V30 3 1 3 4
M  V30 4 1 4 5
M  V30 5 1 5 6
M  V30 6 1 5 7
M  V30 7 2 7 8
M  V30 8 2 7 9
M  V30 9 1 7 10
M  V30 10 2 10 11
M  V30 11 1 11 12
M  V30 12 2 12 13
M  V30 13 1 13 14
M  V30 14 2 14 15
M  V30 15 1 14 16
M  V30 16 2 16 17
M  V30 17 2 16 18
M  V30 18 1 16 19
M  V30 19 1 6 2
M  V30 20 1 15 10
M  V30 21 1 1 20
M  V30 22 1 1 21
M  V30 23 1 2 22
M  V30 24 1 3 23
M  V30 25 1 3 24
M  V30 26 1 4 25
M  V30 27 1 4 26
M  V30 28 1 6 27
M  V30 29 1 6 28
M  V30 30 1 11 29
M  V30 31 1 12 30
M  V30 32 1 13 31
M  V30 33 1 15 32
M  V30 34 1 19 33
M  V30 35 1 19 34
M  V30 END BOND
M  V30 END CTAB
M  END
