
     RDKit          3D

  0  0  0  0  0  0  0  0  0  0999 V3000
M  V30 BEGIN CTAB
M  V30 COUNTS 25 26 0 0 0
M  V30 BEGIN ATOM
M  V30 1 N -3.45128 -0.381191 0.226942 0
M  V30 2 C -2.20405 -0.139411 -0.474035 0
M  V30 3 C -1.75634 1.2592 -0.095576 0
M  V30 4 C -0.496834 1.54569 -0.878593 0
M  V30 5 C 0.561744 0.65304 -0.349813 0
M  V30 6 C 0.194894 -0.636183 -0.028242 0
M  V30 7 C -1.16608 -1.16685 -0.178019 0
M  V30 8 C 1.17553 -1.46394 0.46181 0
M  V30 9 O 0.885181 -2.66279 0.772671 0
M  V30 10 N 2.45628 -1.02673 0.622397 0
M  V30 11 C 2.78071 0.241626 0.297527 0
M  V30 12 N 1.82952 1.07306 -0.186828 0
M  V30 13 N 4.1225 0.738452 0.453546 0
M  V30 14 H -3.96175 -1.20124 -0.127214 0
M  V30 15 H -3.30728 -0.391683 1.26382 0
M  V30 16 H -2.45043 -0.141493 -1.56243 0
M  V30 17 H -2.51022 1.99376 -0.362459 0
M  V30 18 H -1.55539 1.25137 0.994512 0
M  V30 19 H -0.225771 2.59609 -0.719188 0
M  V30 20 H -0.69221 1.31951 -1.95283 0
M  V30 21 H -1.15243 -1.95073 -0.977262 0
M  V30 22 H -1.43223 -1.71096 0.762803 0
M  V30 23 H 3.1967 -1.66817 0.997596 0
M  V30 24 H 4.20191 1.6872 0.895357 0
M  V30 25 H 4.95731 0.182369 0.143508 0
M  V30 END ATOM
M  V30 BEGIN BOND
M  V30 1 1 1 2
M  V30 2 1 2 3
M  V30 3 1 3 4
M  V30 4 1 4 5
M  V30 5 2 5 6
M  V30 6 1 6 7
M  V30 7 1 6 8
M  V30 8 2 8 9
M  V30 9 1 8 10
M  V30 10 1 10 11
M  V30 11 2 11 12
M  V30 12 1 11 13
M  V30 13 1 7 2
M  V30 14 1 12 5
M  V30 15 1 1 14
M  V30 16 1 1 15
M  V30 17 1 2 16
M  V30 18 1 3 17
M  V30 19 1 3 18
M  V30 20 1 4 19
M  V30 21 1 4 20
M  V30 22 1 7 21
M  V30 23 1 7 22
M  V30 24 1 10 23
M  V30 25 1 13 24
M  V30 26 1 13 25
M  V30 END BOND
M  V30 END CTAB
M  END
