
     RDKit          3D

  0  0  0  0  0  0  0  0  0  0999 V3000
M  V30 BEGIN CTAB
M  V30 COUNTS 34 34 0 0 0
M  V30 BEGIN ATOM
M  V30 1 N -2.9 1.09026 1.28477 0
M  V30 2 C -1.50477 1.1 1.47985 0
M  V30 3 C -0.708763 0.553607 0.285301 0
M  V30 4 N -0.953063 1.32081 -0.897029 0
M  V30 5 C 0.74187 0.71919 0.648 0
M  V30 6 C 1.70051 -0.104636 -0.12196 0
M  V30 7 C 2.63623 0.828978 -0.904949 0
M  V30 8 C 2.62451 -0.893084 0.808582 0
M  V30 9 C 1.05498 -1.00059 -1.13108 0
M  V30 10 C -0.0625185 -1.75921 -0.468535 0
M  V30 11 C -1.13046 -0.859206 0.0844287 0
M  V30 12 C -2.2901 -0.928077 -0.91972 0
M  V30 13 H -3.28808 1.69468 0.566446 0
M  V30 14 H -3.48874 0.880138 2.09321 0
M  V30 15 H -1.26107 0.533947 2.40159 0
M  V30 16 H -1.18704 2.15856 1.69578 0
M  V30 17 H -1.90789 1.68305 -0.999185 0
M  V30 18 H -0.20033 1.94502 -1.18744 0
M  V30 19 H 0.874647 0.490057 1.73815 0
M  V30 20 H 0.98662 1.81085 0.564398 0
M  V30 21 H 2.85526 0.426424 -1.90862 0
M  V30 22 H 2.19211 1.82517 -1.04631 0
M  V30 23 H 3.59789 0.967011 -0.393384 0
M  V30 24 H 2.93723 -0.211288 1.62582 0
M  V30 25 H 3.48306 -1.23321 0.212182 0
M  V30 26 H 2.0828 -1.73251 1.28936 0
M  V30 27 H 0.663331 -0.406291 -1.95519 0
M  V30 28 H 1.79178 -1.75964 -1.4891 0
M  V30 29 H -0.443967 -2.49001 -1.2128 0
M  V30 30 H 0.34056 -2.36329 0.374121 0
M  V30 31 H -1.54488 -1.26812 1.02954 0
M  V30 32 H -2.12773 -0.238451 -1.76076 0
M  V30 33 H -2.29577 -1.95939 -1.36279 0
M  V30 34 H -3.26824 -0.820745 -0.422685 0
M  V30 END ATOM
M  V30 BEGIN BOND
M  V30 1 1 1 2
M  V30 2 1 2 3
M  V30 3 1 3 4
M  V30 4 1 3 5
M  V30 5 1 5 6
M  V30 6 1 6 7
M  V30 7 1 6 8
M  V30 8 1 6 9
M  V30 9 1 9 10
M  V30 10 1 10 11
M  V30 11 1 11 12
M  V30 12 1 11 3
M  V30 13 1 1 13
M  V30 14 1 1 14
M  V30 15 1 2 15
M  V30 16 1 2 16
M  V30 17 1 4 17
M  V30 18 1 4 18
M  V30 19 1 5 19
M  V30 20 1 5 20
M  V30 21 1 7 21
M  V30 22 1 7 22
M  V30 23 1 7 23
M  V30 24 1 8 24
M  V30 25 1 8 25
M  V30 26 1 8 26
M  V30 27 1 9 27
M  V30 28 1 9 28
M  V30 29 1 10 29
M  V30 30 1 10 30
M  V30 31 1 11 31
M  V30 32 1 12 32
M  V30 33 1 12 33
M  V30 34 1 12 34
M  V30 END BOND
M  V30 END CTAB
M  END
