
     RDKit          3D

  0  0  0  0  0  0  0  0  0  0999 V3000
M  V30 BEGIN CTAB
M  V30 COUNTS 41 43 0 0 0
M  V30 BEGIN ATOM
M  V30 1 C -2.84182 2.03712 -2.10451 0
M  V30 2 C -3.06133 0.929794 -1.13292 0
M  V30 3 N -4.32251 0.606014 -0.785007 0
M  V30 4 C -4.57942 -0.386768 0.083507 0
M  V30 5 N -5.90541 -0.745544 0.465426 0
M  V30 6 N -3.59426 -1.12369 0.663461 0
M  V30 7 C -2.32688 -0.823004 0.335282 0
M  V30 8 O -1.36227 -1.48439 0.851458 0
M  V30 9 C -2.04171 0.198344 -0.559187 0
M  V30 10 C -0.642092 0.54306 -0.921701 0
M  V30 11 C -0.167967 1.78461 -0.208426 0
M  V30 12 C 1.23225 2.16847 -0.550355 0
M  V30 13 N 2.21762 1.15536 -0.233958 0
M  V30 14 C 2.69825 0.0969671 -1.07358 0
M  V30 15 O 2.30892 -0.0900744 -2.24615 0
M  V30 16 C 3.67324 -0.682789 -0.353415 0
M  V30 17 C 3.82877 -0.153037 0.920023 0
M  V30 18 C 2.92387 0.991104 0.996484 0
M  V30 19 O 2.79664 1.72183 2.01643 0
M  V30 20 C 4.71844 -0.744607 1.79096 0
M  V30 21 C 5.43727 -1.84729 1.38857 0
M  V30 22 C 5.29695 -2.39011 0.124951 0
M  V30 23 C 4.40453 -1.78569 -0.729361 0
M  V30 24 N -3.89174 -2.15356 1.56662 0
M  V30 25 H -1.86896 1.97522 -2.61757 0
M  V30 26 H -3.61095 1.99418 -2.9299 0
M  V30 27 H -2.92815 3.02945 -1.65127 0
M  V30 28 H -6.20722 -0.511265 1.43085 0
M  V30 29 H -6.56311 -1.22193 -0.174827 0
M  V30 30 H -0.499375 0.58379 -2.0021 0
M  V30 31 H -0.00578656 -0.294061 -0.535077 0
M  V30 32 H -0.204558 1.65198 0.903365 0
M  V30 33 H -0.862736 2.61501 -0.424092 0
M  V30 34 H 1.48918 3.11314 0.00151092 0
M  V30 35 H 1.35357 2.42716 -1.62441 0
M  V30 36 H 4.81845 -0.311388 2.77374 0
M  V30 37 H 6.12504 -2.27756 2.10962 0
M  V30 38 H 5.88259 -3.26134 -0.154092 0
M  V30 39 H 4.30594 -2.22221 -1.71607 0
M  V30 40 H -3.39568 -3.0733 1.5505 0
M  V30 41 H -4.6276 -2.03899 2.29689 0
M  V30 END ATOM
M  V30 BEGIN BOND
M  V30 1 1 1 2
M  V30 2 1 2 3
M  V30 3 2 3 4
M  V30 4 1 4 5
M  V30 5 1 4 6
M  V30 6 1 6 7
M  V30 7 2 7 8
M  V30 8 1 7 9
M  V30 9 1 9 10
M  V30 10 1 10 11
M  V30 11 1 11 12
M  V30 12 1 12 13
M  V30 13 1 13 14
M  V30 14 2 14 15
M  V30 15 1 14 16
M  V30 16 2 16 17
M  V30 17 1 17 18
M  V30 18 2 18 19
M  V30 19 1 17 20
M  V30 20 2 20 21
M  V30 21 1 21 22
M  V30 22 2 22 23
M  V30 23 1 6 24
M  V30 24 2 9 2
M  V30 25 1 18 13
M  V30 26 1 23 16
M  V30 27 1 1 25
M  V30 28 1 1 26
M  V30 29 1 1 27
M  V30 30 1 5 28
M  V30 31 1 5 29
M  V30 32 1 10 30
M  V30 33 1 10 31
M  V30 34 1 11 32
M  V30 35 1 11 33
M  V30 36 1 12 34
M  V30 37 1 12 35
M  V30 38 1 20 36
M  V30 39 1 21 37
M  V30 40 1 22 38
M  V30 41 1 23 39
M  V30 42 1 24 40
M  V30 43 1 24 41
M  V30 END BOND
M  V30 END CTAB
M  END
