
     RDKit          3D

  0  0  0  0  0  0  0  0  0  0999 V3000
M  V30 BEGIN CTAB
M  V30 COUNTS 32 33 0 0 0
M  V30 BEGIN ATOM
M  V30 1 C 5.18459 -1.053 0.48004 0
M  V30 2 C 5.08106 0.434136 0.487982 0
M  V30 3 O 4.18046 0.961392 -0.428921 0
M  V30 4 C 2.83933 0.771024 -0.535029 0
M  V30 5 C 2.10759 1.39886 -1.54964 0
M  V30 6 C 0.749686 1.21406 -1.66638 0
M  V30 7 C 0.0997194 0.396936 -0.768914 0
M  V30 8 C 0.805007 -0.216704 0.220321 0
M  V30 9 C 2.17185 -0.0405397 0.350891 0
M  V30 10 N -1.30764 0.211397 -0.897923 0
M  V30 11 N -2.08812 0.135255 0.0988162 0
M  V30 12 C -3.49469 -0.0498709 -0.0178444 0
M  V30 13 C -4.49707 0.875883 -0.194614 0
M  V30 14 N -4.29812 2.27505 -0.299673 0
M  V30 15 N -5.67416 0.197104 -0.245857 0
M  V30 16 N -5.45982 -1.09888 -0.110847 0
M  V30 17 C -4.12464 -1.2763 0.0311502 0
M  V30 18 N -3.48997 -2.53785 0.202869 0
M  V30 19 H 6.16503 -1.3644 0.0938992 0
M  V30 20 H 4.42521 -1.46449 -0.220913 0
M  V30 21 H 5.05055 -1.50035 1.48193 0
M  V30 22 H 6.08696 0.874732 0.276786 0
M  V30 23 H 4.75068 0.790316 1.50809 0
M  V30 24 H 2.62662 2.04156 -2.25348 0
M  V30 25 H 0.182755 1.71254 -2.46824 0
M  V30 26 H 0.316964 -0.86419 0.938606 0
M  V30 27 H 2.69646 -0.558191 1.17448 0
M  V30 28 H -3.42384 2.61394 -0.758163 0
M  V30 29 H -4.99257 2.9739 0.0639817 0
M  V30 30 H -6.20953 -1.84043 -0.116106 0
M  V30 31 H -3.93727 -3.43629 -0.0420861 0
M  V30 32 H -2.52308 -2.57659 0.595043 0
M  V30 END ATOM
M  V30 BEGIN BOND
M  V30 1 1 1 2
M  V30 2 1 2 3
M  V30 3 1 3 4
M  V30 4 2 4 5
M  V30 5 1 5 6
M  V30 6 2 6 7
M  V30 7 1 7 8
M  V30 8 2 8 9
M  V30 9 1 7 10
M  V30 10 2 10 11
M  V30 11 1 11 12
M  V30 12 1 12 13
M  V30 13 1 13 14
M  V30 14 2 13 15
M  V30 15 1 15 16
M  V30 16 1 16 17
M  V30 17 1 17 18
M  V30 18 1 9 4
M  V30 19 2 17 12
M  V30 20 1 1 19
M  V30 21 1 1 20
M  V30 22 1 1 21
M  V30 23 1 2 22
M  V30 24 1 2 23
M  V30 25 1 5 24
M  V30 26 1 6 25
M  V30 27 1 8 26
M  V30 28 1 9 27
M  V30 29 1 14 28
M  V30 30 1 14 29
M  V30 31 1 16 30
M  V30 32 1 18 31
M  V30 33 1 18 32
M  V30 END BOND
M  V30 END CTAB
M  END
