
     RDKit          3D

  0  0  0  0  0  0  0  0  0  0999 V3000
M  V30 BEGIN CTAB
M  V30 COUNTS 58 60 0 0 0
M  V30 BEGIN ATOM
M  V30 1 N 7.16646 1.69453 -0.578697 0
M  V30 2 C 5.90095 1.13343 -0.180988 0
M  V30 3 C 5.00473 0.645874 -1.11734 0
M  V30 4 C 3.77357 0.0936495 -0.818054 0
M  V30 5 C 3.42249 0.026325 0.523489 0
M  V30 6 O 2.21196 -0.514014 0.949164 0
M  V30 7 C 1.7245 -1.8054 0.634231 0
M  V30 8 C 1.45257 -2.50879 1.9511 0
M  V30 9 O 0.114494 -2.93451 1.9975 0
M  V30 10 C -0.743584 -1.85566 2.24007 0
M  V30 11 C -1.89645 -1.99966 1.26717 0
M  V30 12 O -2.85458 -0.982376 1.51977 0
M  V30 13 C -3.86981 -0.608538 0.619632 0
M  V30 14 C -5.2149 -0.76986 0.900428 0
M  V30 15 C -6.23706 -0.419774 0.0394031 0
M  V30 16 N -7.6056 -0.599089 0.358435 0
M  V30 17 C -5.89774 0.123581 -1.17309 0
M  V30 18 C -4.55349 0.295289 -1.47378 0
M  V30 19 C -3.53307 -0.0521577 -0.615643 0
M  V30 20 O -2.19693 0.145576 -0.960435 0
M  V30 21 C -1.28847 0.99269 -0.268658 0
M  V30 22 C -0.911459 2.11351 -1.21227 0
M  V30 23 O -0.100613 1.56248 -2.18885 0
M  V30 24 C 1.22807 1.40514 -1.78133 0
M  V30 25 C 1.71039 0.0994902 -2.28144 0
M  V30 26 O 2.93296 -0.367654 -1.81282 0
M  V30 27 N -6.87632 0.511427 -2.12133 0 CHG=1
M  V30 28 O -6.52348 0.398651 -3.46061 0 CHG=-1
M  V30 29 O -7.99972 0.934913 -1.84916 0
M  V30 30 C 4.31037 0.510738 1.45636 0
M  V30 31 C 5.54126 1.06295 1.13906 0
M  V30 32 N 6.42565 1.55066 2.13357 0 CHG=1
M  V30 33 O 7.3116 2.54493 1.82541 0 CHG=-1
M  V30 34 O 6.37206 1.05775 3.26872 0
M  V30 35 H 7.17359 2.59231 -1.07381 0
M  V30 36 H 8.03082 1.19054 -0.361442 0
M  V30 37 H 5.39236 0.736277 -2.15131 0
M  V30 38 H 0.772333 -1.76012 0.0635391 0
M  V30 39 H 2.42481 -2.43116 0.0638355 0
M  V30 40 H 2.06506 -3.42287 2.06065 0
M  V30 41 H 1.59561 -1.82049 2.82264 0
M  V30 42 H -0.259263 -0.877277 2.14211 0
M  V30 43 H -1.09574 -1.98401 3.28462 0
M  V30 44 H -2.32019 -3.03153 1.49439 0
M  V30 45 H -1.60308 -2.03525 0.224444 0
M  V30 46 H -5.52731 -1.19216 1.86973 0
M  V30 47 H -8.16471 0.0650763 0.914165 0
M  V30 48 H -8.09579 -1.45654 0.0150265 0
M  V30 49 H -4.35487 0.732222 -2.4793 0
M  V30 50 H -0.361903 0.449032 0.000319527 0
M  V30 51 H -1.68267 1.43312 0.648451 0
M  V30 52 H -0.403933 2.92873 -0.655197 0
M  V30 53 H -1.80645 2.53441 -1.71109 0
M  V30 54 H 1.7874 2.20066 -2.36296 0
M  V30 55 H 1.39274 1.65034 -0.738664 0
M  V30 56 H 1.71783 0.187859 -3.42398 0
M  V30 57 H 0.935045 -0.670765 -2.10952 0
M  V30 58 H 4.08752 0.495491 2.53435 0
M  V30 END ATOM
M  V30 BEGIN BOND
M  V30 1 1 1 2
M  V30 2 2 2 3
M  V30 3 1 3 4
M  V30 4 2 4 5
M  V30 5 1 5 6
M  V30 6 1 6 7
M  V30 7 1 7 8
M  V30 8 1 8 9
M  V30 9 1 9 10
M  V30 10 1 10 11
M  V30 11 1 11 12
M  V30 12 1 12 13
M  V30 13 2 13 14
M  V30 14 1 14 15
M  V30 15 1 15 16
M  V30 16 2 15 17
M  V30 17 1 17 18
M  V30 18 2 18 19
M  V30 19 1 19 20
M  V30 20 1 20 21
M  V30 21 1 21 22
M  V30 22 1 22 23
M  V30 23 1 23 24
M  V30 24 1 24 25
M  V30 25 1 25 26
M  V30 26 1 17 27
M  V30 27 1 27 28
M  V30 28 2 27 29
M  V30 29 1 5 30
M  V30 30 2 30 31
M  V30 31 1 31 32
M  V30 32 1 32 33
M  V30 33 2 32 34
M  V30 34 1 31 2
M  V30 35 1 26 4
M  V30 36 1 19 13
M  V30 37 1 1 35
M  V30 38 1 1 36
M  V30 39 1 3 37
M  V30 40 1 7 38
M  V30 41 1 7 39
M  V30 42 1 8 40
M  V30 43 1 8 41
M  V30 44 1 10 42
M  V30 45 1 10 43
M  V30 46 1 11 44
M  V30 47 1 11 45
M  V30 48 1 14 46
M  V30 49 1 16 47
M  V30 50 1 16 48
M  V30 51 1 18 49
M  V30 52 1 21 50
M  V30 53 1 21 51
M  V30 54 1 22 52
M  V30 55 1 22 53
M  V30 56 1 24 54
M  V30 57 1 24 55
M  V30 58 1 25 56
M  V30 59 1 25 57
M  V30 60 1 30 58
M  V30 END BOND
M  V30 END CTAB
M  END
