
     RDKit          3D

  0  0  0  0  0  0  0  0  0  0999 V3000
M  V30 BEGIN CTAB
M  V30 COUNTS 34 35 0 0 0
M  V30 BEGIN ATOM
M  V30 1 N -4.00013 1.42537 0.462747 0
M  V30 2 C -3.37271 1.28332 -0.816531 0
M  V30 3 C -2.98672 -0.16593 -1.02625 0
M  V30 4 N -2.06966 -0.525949 0.0363316 0
M  V30 5 C -1.63784 -1.90782 -0.0744225 0
M  V30 6 C -0.195448 -1.91461 0.384581 0
M  V30 7 C 0.0464438 -0.535076 0.923001 0 CFG=2
M  V30 8 C -0.885389 0.298906 0.0339822 0
M  V30 9 C 1.43967 -0.0868283 0.786104 0
M  V30 10 C 2.12478 0.422919 1.84365 0
M  V30 11 C 3.45314 0.851666 1.71831 0
M  V30 12 C 4.09604 0.763662 0.508663 0
M  V30 13 C 3.4088 0.247917 -0.569348 0
M  V30 14 C 2.07986 -0.177449 -0.430069 0
M  V30 15 N 4.05644 0.147838 -1.83237 0
M  V30 16 H -4.61397 2.17049 0.60819 0
M  V30 17 H -3.47996 1.09482 1.24148 0
M  V30 18 H -4.10656 1.62429 -1.57696 0
M  V30 19 H -2.45912 1.87933 -0.805409 0
M  V30 20 H -3.86239 -0.843388 -1.05414 0
M  V30 21 H -2.4169 -0.298269 -1.98127 0
M  V30 22 H -1.75356 -2.25778 -1.11648 0
M  V30 23 H -2.29355 -2.48881 0.632902 0
M  V30 24 H -0.0948268 -2.66488 1.19417 0
M  V30 25 H 0.466552 -2.11331 -0.470327 0
M  V30 26 H -0.33035 -0.400311 1.9511 0
M  V30 27 H -1.09416 1.25339 0.567577 0
M  V30 28 H -0.455397 0.462665 -0.96011 0
M  V30 29 H 1.66167 0.507432 2.79709 0
M  V30 30 H 3.99609 1.25626 2.55882 0
M  V30 31 H 5.12683 1.08282 0.358709 0
M  V30 32 H 1.54667 -0.578185 -1.26889 0
M  V30 33 H 4.26805 -0.790292 -2.22069 0
M  V30 34 H 4.3376 0.975794 -2.40416 0
M  V30 END ATOM
M  V30 BEGIN BOND
M  V30 1 1 1 2
M  V30 2 1 2 3
M  V30 3 1 3 4
M  V30 4 1 4 5
M  V30 5 1 5 6
M  V30 6 1 6 7
M  V30 7 1 7 8
M  V30 8 1 7 9
M  V30 9 2 9 10
M  V30 10 1 10 11
M  V30 11 2 11 12
M  V30 12 1 12 13
M  V30 13 2 13 14
M  V30 14 1 13 15
M  V30 15 1 8 4
M  V30 16 1 14 9
M  V30 17 1 1 16
M  V30 18 1 1 17
M  V30 19 1 2 18
M  V30 20 1 2 19
M  V30 21 1 3 20
M  V30 22 1 3 21
M  V30 23 1 5 22
M  V30 24 1 5 23
M  V30 25 1 6 24
M  V30 26 1 6 25
M  V30 27 1 7 26 CFG=1
M  V30 28 1 8 27
M  V30 29 1 8 28
M  V30 30 1 10 29
M  V30 31 1 11 30
M  V30 32 1 12 31
M  V30 33 1 14 32
M  V30 34 1 15 33
M  V30 35 1 15 34
M  V30 END BOND
M  V30 END CTAB
M  END
