
     RDKit          3D

  0  0  0  0  0  0  0  0  0  0999 V3000
M  V30 BEGIN CTAB
M  V30 COUNTS 33 34 0 0 0
M  V30 BEGIN ATOM
M  V30 1 N -2.99447 2.49944 0.395553 0
M  V30 2 C -2.54721 1.17849 0.754218 0
M  V30 3 C -1.39908 0.85498 -0.197192 0
M  V30 4 N -0.846746 -0.448251 0.0487322 0
M  V30 5 C -1.83036 -1.46532 -0.294944 0
M  V30 6 C -1.25135 -2.83464 -0.0233861 0
M  V30 7 N -0.249171 -3.00716 -1.09251 0
M  V30 8 C 0.813411 -2.10089 -0.724535 0
M  V30 9 C 0.368933 -0.664082 -0.643476 0 CFG=2
M  V30 10 C 1.54163 0.111478 -0.190015 0
M  V30 11 N 2.58864 -0.352825 0.562716 0
M  V30 12 N 3.48228 0.570773 0.767031 0
M  V30 13 C 3.11914 1.71381 0.179256 0
M  V30 14 C 1.8993 1.42342 -0.421741 0
M  V30 15 N 3.85831 2.90477 0.208561 0
M  V30 16 H -2.42872 3.25654 0.707421 0
M  V30 17 H -3.9629 2.61114 0.666929 0
M  V30 18 H -2.2232 1.23494 1.79394 0
M  V30 19 H -3.39181 0.509109 0.553738 0
M  V30 20 H -0.670408 1.66219 -0.0202193 0
M  V30 21 H -1.84115 0.857016 -1.20912 0
M  V30 22 H -2.05153 -1.4007 -1.36309 0
M  V30 23 H -2.72174 -1.38652 0.35468 0
M  V30 24 H -2.00304 -3.62346 -0.0430484 0
M  V30 25 H -0.746748 -2.76911 0.970304 0
M  V30 26 H 0.113636 -3.97858 -0.961393 0
M  V30 27 H 1.68503 -2.16956 -1.38497 0
M  V30 28 H 1.13084 -2.40982 0.296688 0
M  V30 29 H 0.21416 -0.346456 -1.72487 0
M  V30 30 H 2.67829 -1.32604 0.936819 0
M  V30 31 H 1.37646 2.16742 -0.980058 0
M  V30 32 H 3.93591 3.52102 -0.62604 0
M  V30 33 H 4.35366 3.20689 1.07239 0
M  V30 END ATOM
M  V30 BEGIN BOND
M  V30 1 1 1 2
M  V30 2 1 2 3
M  V30 3 1 3 4
M  V30 4 1 4 5
M  V30 5 1 5 6
M  V30 6 1 6 7
M  V30 7 1 7 8
M  V30 8 1 8 9
M  V30 9 1 9 10
M  V30 10 1 10 11
M  V30 11 1 11 12
M  V30 12 2 12 13
M  V30 13 1 13 14
M  V30 14 1 13 15
M  V30 15 1 9 4
M  V30 16 2 14 10
M  V30 17 1 1 16
M  V30 18 1 1 17
M  V30 19 1 2 18
M  V30 20 1 2 19
M  V30 21 1 3 20
M  V30 22 1 3 21
M  V30 23 1 5 22
M  V30 24 1 5 23
M  V30 25 1 6 24
M  V30 26 1 6 25
M  V30 27 1 7 26
M  V30 28 1 8 27
M  V30 29 1 8 28
M  V30 30 1 9 29 CFG=3
M  V30 31 1 11 30
M  V30 32 1 14 31
M  V30 33 1 15 32
M  V30 34 1 15 33
M  V30 END BOND
M  V30 END CTAB
M  END
