
     RDKit          3D

  0  0  0  0  0  0  0  0  0  0999 V3000
M  V30 BEGIN CTAB
M  V30 COUNTS 21 22 0 0 0
M  V30 BEGIN ATOM
M  V30 1 C -3.40792 -0.705513 -0.0475086 0
M  V30 2 C -1.9727 -0.363244 -0.036598 0
M  V30 3 C -1.48709 0.905385 -0.195942 0
M  V30 4 C -0.145357 1.20027 -0.182177 0
M  V30 5 N 0.246889 2.54309 -0.355853 0
M  V30 6 C 0.816191 0.185194 0.0011393 0
M  V30 7 C 0.321407 -1.08092 0.159748 0
M  V30 8 C -1.04743 -1.37451 0.144678 0
M  V30 9 S 1.78242 -1.98339 0.347822 0
M  V30 10 C 2.8958 -0.695359 0.211701 0
M  V30 11 N 2.11074 0.335757 0.0333909 0
M  V30 12 N 4.31758 -0.681113 0.268486 0
M  V30 13 H -4.02204 0.139384 -0.45598 0
M  V30 14 H -3.5663 -1.61479 -0.663406 0
M  V30 15 H -3.79406 -0.845651 0.999474 0
M  V30 16 H -2.2484 1.68198 -0.337246 0
M  V30 17 H 0.882108 3.00734 0.31695 0
M  V30 18 H -0.10328 3.07498 -1.16618 0
M  V30 19 H -1.31261 -2.39396 0.277891 0
M  V30 20 H 4.78794 -0.524268 1.20938 0
M  V30 21 H 4.94612 -0.810646 -0.529764 0
M  V30 END ATOM
M  V30 BEGIN BOND
M  V30 1 1 1 2
M  V30 2 2 2 3
M  V30 3 1 3 4
M  V30 4 1 4 5
M  V30 5 2 4 6
M  V30 6 1 6 7
M  V30 7 2 7 8
M  V30 8 1 7 9
M  V30 9 1 9 10
M  V30 10 2 10 11
M  V30 11 1 10 12
M  V30 12 1 8 2
M  V30 13 1 11 6
M  V30 14 1 1 13
M  V30 15 1 1 14
M  V30 16 1 1 15
M  V30 17 1 3 16
M  V30 18 1 5 17
M  V30 19 1 5 18
M  V30 20 1 8 19
M  V30 21 1 12 20
M  V30 22 1 12 21
M  V30 END BOND
M  V30 END CTAB
M  END
