
     RDKit          3D

  0  0  0  0  0  0  0  0  0  0999 V3000
M  V30 BEGIN CTAB
M  V30 COUNTS 29 29 0 0 0
M  V30 BEGIN ATOM
M  V30 1 C 4.2462 -0.921501 0.737881 0
M  V30 2 O 3.4272 0.15524 0.405942 0
M  V30 3 C 2.04722 0.0841494 0.300962 0
M  V30 4 C 1.39462 -1.10156 0.528928 0
M  V30 5 C 0.0139458 -1.18123 0.42516 0
M  V30 6 C -0.545647 -2.53136 0.68432 0
M  V30 7 C -0.762449 -0.0691378 0.0883643 0
M  V30 8 C -0.12328 1.11057 -0.138138 0
M  V30 9 C 1.26063 1.1555 -0.0267961 0
M  V30 10 S -1.00201 2.56006 -0.511299 0
M  V30 11 O 0.0126481 3.6415 -0.777209 0
M  V30 12 O -1.75293 2.46107 -1.8107 0
M  V30 13 N -1.95599 3.16859 0.770372 0
M  V30 14 S -2.44745 -0.315097 -0.0326488 0
M  V30 15 O -2.87719 -1.40876 0.914253 0
M  V30 16 O -3.38795 0.762418 0.179538 0
M  V30 17 N -2.72704 -0.870881 -1.67972 0
M  V30 18 H 5.26367 -0.515306 0.959355 0
M  V30 19 H 3.81618 -1.4583 1.58632 0
M  V30 20 H 4.3138 -1.58516 -0.169686 0
M  V30 21 H 2.00636 -1.97966 0.795646 0
M  V30 22 H -0.967261 -2.68824 1.6691 0
M  V30 23 H 0.275875 -3.30904 0.604998 0
M  V30 24 H -1.26583 -2.86619 -0.107187 0
M  V30 25 H 1.78182 2.11322 -0.211632 0
M  V30 26 H -1.32875 3.27809 1.59723 0
M  V30 27 H -2.3088 4.09366 0.492325 0
M  V30 28 H -3.0688 -0.0814497 -2.2736 0
M  V30 29 H -3.33878 -1.70122 -1.6831 0
M  V30 END ATOM
M  V30 BEGIN BOND
M  V30 1 1 1 2
M  V30 2 1 2 3
M  V30 3 2 3 4
M  V30 4 1 4 5
M  V30 5 1 5 6
M  V30 6 2 5 7
M  V30 7 1 7 8
M  V30 8 2 8 9
M  V30 9 1 8 10
M  V30 10 2 10 11
M  V30 11 2 10 12
M  V30 12 1 10 13
M  V30 13 1 7 14
M  V30 14 2 14 15
M  V30 15 2 14 16
M  V30 16 1 14 17
M  V30 17 1 9 3
M  V30 18 1 1 18
M  V30 19 1 1 19
M  V30 20 1 1 20
M  V30 21 1 4 21
M  V30 22 1 6 22
M  V30 23 1 6 23
M  V30 24 1 6 24
M  V30 25 1 9 25
M  V30 26 1 13 26
M  V30 27 1 13 27
M  V30 28 1 17 28
M  V30 29 1 17 29
M  V30 END BOND
M  V30 END CTAB
M  END
