
     RDKit          3D

  0  0  0  0  0  0  0  0  0  0999 V3000
M  V30 BEGIN CTAB
M  V30 COUNTS 31 32 0 0 0
M  V30 BEGIN ATOM
M  V30 1 C -4.32565 1.45085 -0.392422 0
M  V30 2 C -3.19851 0.463672 -0.249941 0
M  V30 3 C -3.38005 -0.848114 -0.665995 0
M  V30 4 N -4.6294 -1.24748 -1.20906 0
M  V30 5 C -2.33302 -1.72747 -0.535805 0
M  V30 6 C -1.08997 -1.33328 0.00482472 0
M  V30 7 C -0.882752 -0.0540371 0.41999 0
M  V30 8 C -2.00057 0.806448 0.260423 0
M  V30 9 C 0.330729 0.527203 0.939078 0
M  V30 10 O 0.129237 1.48224 1.83941 0
M  V30 11 C 1.69574 0.291149 0.668912 0
M  V30 12 C 2.62203 1.35727 0.810657 0
M  V30 13 C 3.95824 1.2613 0.580572 0
M  V30 14 C 4.48593 0.0691394 0.182113 0
M  V30 15 N 5.85408 -0.132202 -0.084505 0
M  V30 16 C 3.62872 -0.99702 0.0311938 0
M  V30 17 C 2.25394 -0.888009 0.271319 0
M  V30 18 H -4.01579 2.16923 -1.18729 0
M  V30 19 H -5.25686 0.920525 -0.59389 0
M  V30 20 H -4.36302 2.0364 0.554525 0
M  V30 21 H -4.634 -1.73755 -2.13302 0
M  V30 22 H -5.51374 -1.07443 -0.732848 0
M  V30 23 H -2.42797 -2.75433 -0.84112 0
M  V30 24 H -0.334458 -2.07908 0.0942871 0
M  V30 25 H -1.86042 1.83013 0.583485 0
M  V30 26 H 2.19469 2.30874 1.12523 0
M  V30 27 H 4.62503 2.10619 0.702392 0
M  V30 28 H 6.64193 0.216485 0.50314 0
M  V30 29 H 6.12316 -0.679758 -0.943547 0
M  V30 30 H 4.00495 -1.96809 -0.284736 0
M  V30 31 H 1.69776 -1.77613 0.128726 0
M  V30 END ATOM
M  V30 BEGIN BOND
M  V30 1 1 1 2
M  V30 2 2 2 3
M  V30 3 1 3 4
M  V30 4 1 3 5
M  V30 5 2 5 6
M  V30 6 1 6 7
M  V30 7 2 7 8
M  V30 8 1 7 9
M  V30 9 2 9 10
M  V30 10 1 9 11
M  V30 11 2 11 12
M  V30 12 1 12 13
M  V30 13 2 13 14
M  V30 14 1 14 15
M  V30 15 1 14 16
M  V30 16 2 16 17
M  V30 17 1 8 2
M  V30 18 1 17 11
M  V30 19 1 1 18
M  V30 20 1 1 19
M  V30 21 1 1 20
M  V30 22 1 4 21
M  V30 23 1 4 22
M  V30 24 1 5 23
M  V30 25 1 6 24
M  V30 26 1 8 25
M  V30 27 1 12 26
M  V30 28 1 13 27
M  V30 29 1 15 28
M  V30 30 1 15 29
M  V30 31 1 16 30
M  V30 32 1 17 31
M  V30 END BOND
M  V30 END CTAB
M  END
