
     RDKit          3D

  0  0  0  0  0  0  0  0  0  0999 V3000
M  V30 BEGIN CTAB
M  V30 COUNTS 32 34 0 0 0
M  V30 BEGIN ATOM
M  V30 1 C -0.538665 1.93716 -1.48184 0
M  V30 2 C -0.882561 0.590491 -0.897817 0
M  V30 3 C -0.22419 -0.609153 -1.07418 0
M  V30 4 N -0.873974 -1.56663 -0.366884 0
M  V30 5 C -1.93673 -1.03809 0.268402 0
M  V30 6 C -1.94063 0.301686 -0.0623754 0
M  V30 7 C -2.94412 1.08274 0.467277 0
M  V30 8 N -2.94579 2.46094 0.125635 0
M  V30 9 N -3.88177 0.54013 1.27897 0
M  V30 10 C -3.87815 -0.765773 1.60149 0
M  V30 11 N -4.88 -1.32348 2.46318 0
M  V30 12 N -2.89691 -1.52586 1.08269 0
M  V30 13 S 1.23823 -0.818818 -2.0773 0
M  V30 14 C 2.7213 -0.556729 -1.08047 0
M  V30 15 C 2.61755 -0.242343 0.261732 0
M  V30 16 C 3.75586 -0.0438908 1.01542 0
M  V30 17 C 5.01461 -0.154303 0.449052 0
M  V30 18 Cl 6.47475 0.0987779 1.40955 0
M  V30 19 C 5.10779 -0.467365 -0.886702 0
M  V30 20 C 3.96548 -0.664418 -1.63415 0
M  V30 21 H -0.301884 2.62545 -0.669347 0
M  V30 22 H -1.47126 2.3115 -1.99901 0
M  V30 23 H 0.215037 1.84755 -2.26186 0
M  V30 24 H -0.605753 -2.58149 -0.307731 0
M  V30 25 H -2.40902 3.10446 0.770829 0
M  V30 26 H -3.41681 2.87523 -0.681422 0
M  V30 27 H -5.6778 -1.84809 2.04326 0
M  V30 28 H -4.83556 -1.22036 3.50202 0
M  V30 29 H 1.63748 -0.155598 0.706001 0
M  V30 30 H 3.68153 0.205887 2.08119 0
M  V30 31 H 6.09131 -0.558317 -1.34911 0
M  V30 32 H 4.02064 -0.91373 -2.69648 0
M  V30 END ATOM
M  V30 BEGIN BOND
M  V30 1 1 1 2
M  V30 2 2 2 3
M  V30 3 1 3 4
M  V30 4 1 4 5
M  V30 5 2 5 6
M  V30 6 1 6 7
M  V30 7 1 7 8
M  V30 8 2 7 9
M  V30 9 1 9 10
M  V30 10 1 10 11
M  V30 11 2 10 12
M  V30 12 1 3 13
M  V30 13 1 13 14
M  V30 14 2 14 15
M  V30 15 1 15 16
M  V30 16 2 16 17
M  V30 17 1 17 18
M  V30 18 1 17 19
M  V30 19 2 19 20
M  V30 20 1 6 2
M  V30 21 1 20 14
M  V30 22 1 12 5
M  V30 23 1 1 21
M  V30 24 1 1 22
M  V30 25 1 1 23
M  V30 26 1 4 24
M  V30 27 1 8 25
M  V30 28 1 8 26
M  V30 29 1 11 27
M  V30 30 1 11 28
M  V30 31 1 15 29
M  V30 32 1 16 30
M  V30 33 1 19 31
M  V30 34 1 20 32
M  V30 END BOND
M  V30 END CTAB
M  END
