
     RDKit          3D

  0  0  0  0  0  0  0  0  0  0999 V3000
M  V30 BEGIN CTAB
M  V30 COUNTS 22 22 0 0 0
M  V30 BEGIN ATOM
M  V30 1 O -1.59154 -3.41673 0.927621 0 CHG=-1
M  V30 2 N -1.92899 -2.25398 0.237566 0 CHG=1
M  V30 3 O -3.07045 -2.19289 -0.227334 0
M  V30 4 C -0.965372 -1.2423 0.109393 0
M  V30 5 C 0.381645 -1.64753 0.0349074 0
M  V30 6 C 1.39265 -0.705061 -0.0809847 0
M  V30 7 N 2.76467 -1.0995 -0.150492 0
M  V30 8 C 1.10795 0.640059 -0.124342 0
M  V30 9 C -0.218623 1.00308 -0.0487922 0
M  V30 10 C -1.25617 0.0864628 0.0670447 0
M  V30 11 N -2.61172 0.543884 0.161598 0 CHG=1
M  V30 12 O -3.40117 0.543837 -0.78511 0
M  V30 13 O -2.9806 0.998715 1.42531 0 CHG=-1
M  V30 14 N -0.529525 2.38946 -0.102168 0 CHG=1
M  V30 15 O -0.331303 3.1399 0.860607 0
M  V30 16 O -1.05845 2.87682 -1.26154 0 CHG=-1
M  V30 17 N 2.1386 1.58978 -0.236191 0
M  V30 18 H 0.597207 -2.70833 0.0675668 0
M  V30 19 H 3.25717 -1.21777 0.76635 0
M  V30 20 H 3.19788 -1.25746 -1.08093 0
M  V30 21 H 3.13764 1.32111 -0.101335 0
M  V30 22 H 1.96851 2.60845 -0.458752 0
M  V30 END ATOM
M  V30 BEGIN BOND
M  V30 1 1 1 2
M  V30 2 2 2 3
M  V30 3 1 2 4
M  V30 4 2 4 5
M  V30 5 1 5 6
M  V30 6 1 6 7
M  V30 7 2 6 8
M  V30 8 1 8 9
M  V30 9 2 9 10
M  V30 10 1 10 11
M  V30 11 2 11 12
M  V30 12 1 11 13
M  V30 13 1 9 14
M  V30 14 2 14 15
M  V30 15 1 14 16
M  V30 16 1 8 17
M  V30 17 1 10 4
M  V30 18 1 5 18
M  V30 19 1 7 19
M  V30 20 1 7 20
M  V30 21 1 17 21
M  V30 22 1 17 22
M  V30 END BOND
M  V30 END CTAB
M  END
