
     RDKit          3D

  0  0  0  0  0  0  0  0  0  0999 V3000
M  V30 BEGIN CTAB
M  V30 COUNTS 37 38 0 0 0
M  V30 BEGIN ATOM
M  V30 1 N 1.38879 2.08838 1.50182 0
M  V30 2 C 2.19113 1.2114 0.752582 0
M  V30 3 C 3.46784 1.60084 0.33608 0
M  V30 4 C 4.26318 0.749688 -0.379317 0
M  V30 5 C 3.78547 -0.503304 -0.684716 0
M  V30 6 C 2.52015 -0.897467 -0.275386 0
M  V30 7 C 1.70022 -0.0606615 0.444267 0
M  V30 8 C 0.359278 -0.47179 0.878967 0 CFG=2
M  V30 9 C 0.0645027 -1.90381 0.51769 0
M  V30 10 C -0.304193 -2.12646 -0.919532 0
M  V30 11 C -1.80774 -2.15772 -1.03327 0
M  V30 12 C -2.24826 -0.700326 -1.0479 0
M  V30 13 N -2.00341 -0.154394 0.244577 0
M  V30 14 C -0.69709 0.473799 0.402621 0
M  V30 15 S -3.22716 1.05825 0.515504 0
M  V30 16 O -3.05698 1.56004 1.90555 0
M  V30 17 O -4.55225 0.365362 0.30472 0
M  V30 18 N -3.05442 2.28072 -0.68367 0
M  V30 19 H 1.10382 2.98488 1.10951 0
M  V30 20 H 1.10172 1.79291 2.45573 0
M  V30 21 H 3.79272 2.59739 0.603905 0
M  V30 22 H 5.25853 1.02657 -0.714734 0
M  V30 23 H 4.42321 -1.17468 -1.25367 0
M  V30 24 H 2.18635 -1.89031 -0.525809 0
M  V30 25 H 0.363263 -0.424717 2.0051 0
M  V30 26 H -0.819138 -2.20589 1.16468 0
M  V30 27 H 0.889066 -2.54575 0.835493 0
M  V30 28 H 0.0833305 -1.30068 -1.57309 0
M  V30 29 H 0.128568 -3.1079 -1.2504 0
M  V30 30 H -2.1763 -2.73163 -1.88169 0
M  V30 31 H -2.28605 -2.59754 -0.112723 0
M  V30 32 H -1.62705 -0.195205 -1.80068 0
M  V30 33 H -3.31246 -0.635578 -1.31565 0
M  V30 34 H -0.886112 1.22851 1.2289 0
M  V30 35 H -0.402423 1.08 -0.476241 0
M  V30 36 H -4.01464 2.56128 -1.02371 0
M  V30 37 H -2.59545 3.12581 -0.255495 0
M  V30 END ATOM
M  V30 BEGIN BOND
M  V30 1 1 1 2
M  V30 2 2 2 3
M  V30 3 1 3 4
M  V30 4 2 4 5
M  V30 5 1 5 6
M  V30 6 2 6 7
M  V30 7 1 7 8
M  V30 8 1 8 9
M  V30 9 1 9 10
M  V30 10 1 10 11
M  V30 11 1 11 12
M  V30 12 1 12 13
M  V30 13 1 13 14
M  V30 14 1 13 15
M  V30 15 2 15 16
M  V30 16 2 15 17
M  V30 17 1 15 18
M  V30 18 1 7 2
M  V30 19 1 14 8
M  V30 20 1 1 19
M  V30 21 1 1 20
M  V30 22 1 3 21
M  V30 23 1 4 22
M  V30 24 1 5 23
M  V30 25 1 6 24
M  V30 26 1 8 25 CFG=1
M  V30 27 1 9 26
M  V30 28 1 9 27
M  V30 29 1 10 28
M  V30 30 1 10 29
M  V30 31 1 11 30
M  V30 32 1 11 31
M  V30 33 1 12 32
M  V30 34 1 12 33
M  V30 35 1 14 34
M  V30 36 1 14 35
M  V30 37 1 18 36
M  V30 38 1 18 37
M  V30 END BOND
M  V30 END CTAB
M  END
