
     RDKit          3D

  0  0  0  0  0  0  0  0  0  0999 V3000
M  V30 BEGIN CTAB
M  V30 COUNTS 29 30 0 0 0
M  V30 BEGIN ATOM
M  V30 1 N 0.319888 -2.13608 -0.303401 0
M  V30 2 C -0.0949836 -0.886838 0.233828 0
M  V30 3 C 1.04256 0.0500914 0.468228 0
M  V30 4 C 1.13855 0.916692 1.5074 0
M  V30 5 N 2.25411 1.65853 1.69191 0
M  V30 6 C 3.31353 1.56794 0.867142 0
M  V30 7 C 3.30036 0.703887 -0.213899 0
M  V30 8 C 2.15916 -0.0447483 -0.394703 0
M  V30 9 N 2.04273 -0.882755 -1.5148 0
M  V30 10 C -1.19254 -0.170759 -0.440147 0
M  V30 11 C -2.49101 -0.9295 -0.566966 0
M  V30 12 O -3.31966 0.121449 -1.04475 0
M  V30 13 C -3.12917 1.14291 -0.110498 0
M  V30 14 C -1.68853 0.998578 0.397649 0
M  V30 15 H 1.01274 -2.54056 0.413971 0
M  V30 16 H -0.511276 -2.82117 -0.160031 0
M  V30 17 H -0.476665 -1.10595 1.2877 0
M  V30 18 H 0.3374 1.01424 2.24778 0
M  V30 19 H 4.2106 2.15322 0.994855 0
M  V30 20 H 4.14468 0.619103 -0.878208 0
M  V30 21 H 1.32358 -0.639759 -2.22304 0
M  V30 22 H 2.62383 -1.71003 -1.639 0
M  V30 23 H -0.912542 0.179853 -1.4687 0
M  V30 24 H -2.87722 -1.22221 0.404628 0
M  V30 25 H -2.46304 -1.71031 -1.35338 0
M  V30 26 H -3.86425 0.963873 0.700423 0
M  V30 27 H -3.32423 2.12648 -0.541665 0
M  V30 28 H -1.09921 1.90633 0.207047 0
M  V30 29 H -1.7794 0.677501 1.43063 0
M  V30 END ATOM
M  V30 BEGIN BOND
M  V30 1 1 1 2
M  V30 2 1 2 3
M  V30 3 2 3 4
M  V30 4 1 4 5
M  V30 5 2 5 6
M  V30 6 1 6 7
M  V30 7 2 7 8
M  V30 8 1 8 9
M  V30 9 1 2 10
M  V30 10 1 10 11
M  V30 11 1 11 12
M  V30 12 1 12 13
M  V30 13 1 13 14
M  V30 14 1 8 3
M  V30 15 1 14 10
M  V30 16 1 1 15
M  V30 17 1 1 16
M  V30 18 1 2 17
M  V30 19 1 4 18
M  V30 20 1 6 19
M  V30 21 1 7 20
M  V30 22 1 9 21
M  V30 23 1 9 22
M  V30 24 1 10 23
M  V30 25 1 11 24
M  V30 26 1 11 25
M  V30 27 1 13 26
M  V30 28 1 13 27
M  V30 29 1 14 28
M  V30 30 1 14 29
M  V30 END BOND
M  V30 END CTAB
M  END
