
     RDKit          3D

  0  0  0  0  0  0  0  0  0  0999 V3000
M  V30 BEGIN CTAB
M  V30 COUNTS 26 27 0 0 0
M  V30 BEGIN ATOM
M  V30 1 N 4.89636 0.49966 -0.131854 0
M  V30 2 C 3.48131 0.354401 -0.106961 0
M  V30 3 C 2.88294 -0.813195 -0.547552 0
M  V30 4 C 1.49191 -0.959373 -0.524464 0
M  V30 5 C 0.67931 0.0529351 -0.063019 0
M  V30 6 C 1.2974 1.20871 0.371425 0
M  V30 7 C 2.66702 1.36675 0.354301 0
M  V30 8 C -0.762786 -0.0796637 -0.0229329 0
M  V30 9 C -1.56278 0.936518 -0.56123 0
M  V30 10 C -2.93416 0.850642 -0.554726 0
M  V30 11 C -3.49238 -0.2955 0.0128392 0
M  V30 12 N -4.9032 -0.389836 0.0223857 0
M  V30 13 C -2.72139 -1.2941 0.541602 0
M  V30 14 C -1.34212 -1.20049 0.531596 0
M  V30 15 Cl -0.360774 -2.50259 1.23452 0
M  V30 16 H 5.34443 1.41499 0.013811 0
M  V30 17 H 5.48955 -0.341843 -0.301668 0
M  V30 18 H 3.52488 -1.59982 -0.90652 0
M  V30 19 H 1.11181 -1.90328 -0.893539 0
M  V30 20 H 0.723114 2.0586 0.752159 0
M  V30 21 H 3.14674 2.27218 0.694906 0
M  V30 22 H -1.08724 1.80101 -0.987846 0
M  V30 23 H -3.58871 1.61119 -0.959118 0
M  V30 24 H -5.43421 -0.346699 -0.858868 0
M  V30 25 H -5.39206 -0.5022 0.922208 0
M  V30 26 H -3.15498 -2.19899 0.989886 0
M  V30 END ATOM
M  V30 BEGIN BOND
M  V30 1 1 1 2
M  V30 2 2 2 3
M  V30 3 1 3 4
M  V30 4 2 4 5
M  V30 5 1 5 6
M  V30 6 2 6 7
M  V30 7 1 5 8
M  V30 8 2 8 9
M  V30 9 1 9 10
M  V30 10 2 10 11
M  V30 11 1 11 12
M  V30 12 1 11 13
M  V30 13 2 13 14
M  V30 14 1 14 15
M  V30 15 1 7 2
M  V30 16 1 14 8
M  V30 17 1 1 16
M  V30 18 1 1 17
M  V30 19 1 3 18
M  V30 20 1 4 19
M  V30 21 1 6 20
M  V30 22 1 7 21
M  V30 23 1 9 22
M  V30 24 1 10 23
M  V30 25 1 12 24
M  V30 26 1 12 25
M  V30 27 1 13 26
M  V30 END BOND
M  V30 END CTAB
M  END
