
     RDKit          3D

  0  0  0  0  0  0  0  0  0  0999 V3000
M  V30 BEGIN CTAB
M  V30 COUNTS 29 30 0 0 0
M  V30 BEGIN ATOM
M  V30 1 O -0.0831103 -0.941139 1.70902 0
M  V30 2 C -0.215207 -1.01 0.323769 0
M  V30 3 C -1.31478 -0.204321 -0.191128 0
M  V30 4 C -1.34834 0.265239 -1.47662 0
M  V30 5 N -2.39094 0.998466 -1.96991 0
M  V30 6 C -3.41793 1.264 -1.15712 0
M  V30 7 C -3.44579 0.823808 0.136892 0
M  V30 8 C -2.40264 0.0855954 0.644291 0
M  V30 9 N -2.44262 -0.367129 1.98959 0
M  V30 10 C 1.05494 -1.02843 -0.431886 0
M  V30 11 C 1.97754 0.13817 -0.233849 0
M  V30 12 N 1.49098 1.45546 -0.565606 0
M  V30 13 C 3.39317 -0.13722 -0.752563 0
M  V30 14 C 3.12343 0.0864141 0.686615 0
M  V30 15 H 0.483932 -1.66417 2.06829 0
M  V30 16 H -0.612429 -2.10063 0.193718 0
M  V30 17 H -0.566606 0.0896296 -2.21816 0
M  V30 18 H -4.27341 1.84635 -1.51141 0
M  V30 19 H -4.28404 1.04097 0.799245 0
M  V30 20 H -2.14173 0.182137 2.81418 0
M  V30 21 H -2.80659 -1.33681 2.15219 0
M  V30 22 H 0.829691 -1.16677 -1.5076 0
M  V30 23 H 1.58559 -1.99722 -0.160447 0
M  V30 24 H 1.68354 2.15259 0.185406 0
M  V30 25 H 1.7533 1.76838 -1.50926 0
M  V30 26 H 3.86957 0.640872 -1.38398 0
M  V30 27 H 3.65575 -1.15784 -1.07911 0
M  V30 28 H 3.33632 -0.769434 1.35422 0
M  V30 29 H 3.50841 1.04302 1.09123 0
M  V30 END ATOM
M  V30 BEGIN BOND
M  V30 1 1 1 2
M  V30 2 1 2 3
M  V30 3 2 3 4
M  V30 4 1 4 5
M  V30 5 2 5 6
M  V30 6 1 6 7
M  V30 7 2 7 8
M  V30 8 1 8 9
M  V30 9 1 2 10
M  V30 10 1 10 11
M  V30 11 1 11 12
M  V30 12 1 11 13
M  V30 13 1 13 14
M  V30 14 1 8 3
M  V30 15 1 14 11
M  V30 16 1 1 15
M  V30 17 1 2 16
M  V30 18 1 4 17
M  V30 19 1 6 18
M  V30 20 1 7 19
M  V30 21 1 9 20
M  V30 22 1 9 21
M  V30 23 1 10 22
M  V30 24 1 10 23
M  V30 25 1 12 24
M  V30 26 1 12 25
M  V30 27 1 13 26
M  V30 28 1 13 27
M  V30 29 1 14 28
M  V30 30 1 14 29
M  V30 END BOND
M  V30 END CTAB
M  END
