
     RDKit          3D

  0  0  0  0  0  0  0  0  0  0999 V3000
M  V30 BEGIN CTAB
M  V30 COUNTS 53 56 0 0 0
M  V30 BEGIN ATOM
M  V30 1 N 6.1457 -3.78828 0.673159 0
M  V30 2 C 5.28712 -2.64846 0.868634 0
M  V30 3 N 4.6183 -2.58477 1.93967 0
M  V30 4 C 5.26184 -1.65415 -0.195618 0
M  V30 5 C 4.472 -0.542908 -0.0847115 0
M  V30 6 C 4.43043 0.414398 -1.07907 0
M  V30 7 C 5.19173 0.25428 -2.19962 0
M  V30 8 N 4.96267 1.30945 -2.98081 0
M  V30 9 C 4.07533 2.15738 -2.40903 0
M  V30 10 C 3.73049 1.59357 -1.19496 0
M  V30 11 C 2.79077 2.12389 -0.188629 0
M  V30 12 C 1.48416 1.37456 -0.254369 0
M  V30 13 O 1.44528 0.479687 -1.12323 0
M  V30 14 N 0.443653 1.69718 0.606325 0
M  V30 15 C -0.83555 1.13506 0.70809 0
M  V30 16 C -1.73105 1.61287 1.69014 0
M  V30 17 F -1.30202 2.59978 2.50015 0
M  V30 18 C -2.97677 1.0709 1.78562 0
M  V30 19 C -3.41798 0.0647681 0.961952 0
M  V30 20 C -2.54199 -0.388827 0.0171078 0
M  V30 21 C -1.25032 0.132711 -0.125054 0
M  V30 22 C -4.74485 -0.480419 1.15548 0
M  V30 23 C -5.72525 -0.276712 0.228334 0
M  V30 24 C -6.96892 -0.866623 0.479646 0
M  V30 25 C -7.18789 -1.61407 1.60866 0
M  V30 26 C -6.18382 -1.80445 2.52989 0
M  V30 27 C -4.95405 -1.2412 2.31415 0
M  V30 28 S -5.50831 0.678538 -1.18777 0
M  V30 29 N -5.00492 2.29867 -0.786227 0
M  V30 30 O -4.67803 0.0879098 -2.25637 0
M  V30 31 O -6.8969 0.876605 -1.82094 0
M  V30 32 C 6.00207 -0.859786 -2.3427 0
M  V30 33 C 6.03188 -1.80428 -1.34255 0
M  V30 34 H 7.16944 -3.72863 0.783795 0
M  V30 35 H 5.67917 -4.67463 0.414476 0
M  V30 36 H 3.96899 -1.81172 2.1867 0
M  V30 37 H 3.85469 -0.373794 0.780574 0
M  V30 38 H 5.38953 1.48934 -3.90937 0
M  V30 39 H 3.67779 3.08753 -2.76418 0
M  V30 40 H 2.55647 3.19629 -0.354823 0
M  V30 41 H 3.23177 2.06663 0.833172 0
M  V30 42 H 0.653088 2.49683 1.2944 0
M  V30 43 H -3.6598 1.44515 2.54539 0
M  V30 44 H -2.7907 -1.20428 -0.671195 0
M  V30 45 H -0.627952 -0.284145 -0.899149 0
M  V30 46 H -7.76567 -0.723623 -0.238144 0
M  V30 47 H -8.16222 -2.07686 1.807 0
M  V30 48 H -6.36296 -2.3993 3.42715 0
M  V30 49 H -4.14954 -1.37457 3.02053 0
M  V30 50 H -4.55698 2.78026 -1.58637 0
M  V30 51 H -5.82128 2.83445 -0.467829 0
M  V30 52 H 6.59831 -0.953029 -3.25709 0
M  V30 53 H 6.65304 -2.66831 -1.44041 0
M  V30 END ATOM
M  V30 BEGIN BOND
M  V30 1 1 1 2
M  V30 2 2 2 3 CFG=2
M  V30 3 1 2 4
M  V30 4 2 4 5
M  V30 5 1 5 6
M  V30 6 2 6 7
M  V30 7 1 7 8
M  V30 8 1 8 9
M  V30 9 2 9 10
M  V30 10 1 10 11
M  V30 11 1 11 12
M  V30 12 2 12 13
M  V30 13 1 12 14
M  V30 14 1 14 15
M  V30 15 2 15 16
M  V30 16 1 16 17
M  V30 17 1 16 18
M  V30 18 2 18 19
M  V30 19 1 19 20
M  V30 20 2 20 21
M  V30 21 1 19 22
M  V30 22 2 22 23
M  V30 23 1 23 24
M  V30 24 2 24 25
M  V30 25 1 25 26
M  V30 26 2 26 27
M  V30 27 1 23 28
M  V30 28 1 28 29
M  V30 29 2 28 30
M  V30 30 2 28 31
M  V30 31 1 7 32
M  V30 32 2 32 33
M  V30 33 1 33 4
M  V30 34 1 10 6
M  V30 35 1 21 15
M  V30 36 1 27 22
M  V30 37 1 1 34
M  V30 38 1 1 35
M  V30 39 1 3 36
M  V30 40 1 5 37
M  V30 41 1 8 38
M  V30 42 1 9 39
M  V30 43 1 11 40
M  V30 44 1 11 41
M  V30 45 1 14 42
M  V30 46 1 18 43
M  V30 47 1 20 44
M  V30 48 1 21 45
M  V30 49 1 24 46
M  V30 50 1 25 47
M  V30 51 1 26 48
M  V30 52 1 27 49
M  V30 53 1 29 50
M  V30 54 1 29 51
M  V30 55 1 32 52
M  V30 56 1 33 53
M  V30 END BOND
M  V30 END CTAB
M  END
