
     RDKit          3D

  0  0  0  0  0  0  0  0  0  0999 V3000
M  V30 BEGIN CTAB
M  V30 COUNTS 20 20 0 0 0
M  V30 BEGIN ATOM
M  V30 1 N 0.553784 4.09698 -0.181586 0
M  V30 2 C 0.507316 2.94084 -0.129377 0
M  V30 3 C 0.444326 1.50101 -0.078404 0
M  V30 4 C 1.64358 0.810732 -0.00358934 0
M  V30 5 C 1.62757 -0.558034 0.0466599 0
M  V30 6 N 2.85889 -1.25587 0.123071 0
M  V30 7 C 0.419354 -1.24944 0.0228633 0
M  V30 8 C -0.7533 -0.560963 -0.0507942 0
M  V30 9 C -0.749318 0.814178 -0.101773 0
M  V30 10 N -1.97499 1.5197 -0.17823 0
M  V30 11 C -2.03423 -1.25622 -0.0774253 0
M  V30 12 O -3.11377 -0.641669 -0.144516 0
M  V30 13 O -2.09609 -2.6537 -0.0279949 0
M  V30 14 H 2.60639 1.34216 0.0161055 0
M  V30 15 H 3.34794 -1.50019 -0.754637 0
M  V30 16 H 3.2141 -1.49055 1.06763 0
M  V30 17 H 0.412771 -2.33844 0.0630991 0
M  V30 18 H -2.27075 1.92905 -1.10796 0
M  V30 19 H -2.62112 1.67226 0.617551 0
M  V30 20 H -2.02246 -3.12184 0.879306 0
M  V30 END ATOM
M  V30 BEGIN BOND
M  V30 1 3 1 2
M  V30 2 1 2 3
M  V30 3 2 3 4
M  V30 4 1 4 5
M  V30 5 1 5 6
M  V30 6 2 5 7
M  V30 7 1 7 8
M  V30 8 2 8 9
M  V30 9 1 9 10
M  V30 10 1 8 11
M  V30 11 2 11 12
M  V30 12 1 11 13
M  V30 13 1 9 3
M  V30 14 1 4 14
M  V30 15 1 6 15
M  V30 16 1 6 16
M  V30 17 1 7 17
M  V30 18 1 10 18
M  V30 19 1 10 19
M  V30 20 1 13 20
M  V30 END BOND
M  V30 END CTAB
M  END
