
     RDKit          3D

  0  0  0  0  0  0  0  0  0  0999 V3000
M  V30 BEGIN CTAB
M  V30 COUNTS 43 45 0 0 0
M  V30 BEGIN ATOM
M  V30 1 N -5.82593 1.90914 -0.81074 0
M  V30 2 C -5.55495 0.771121 0.073084 0
M  V30 3 C -4.31274 0.981868 0.907252 0
M  V30 4 C -3.52404 0.449682 -0.305112 0
M  V30 5 C -4.78956 -0.27917 -0.697852 0
M  V30 6 C -2.40886 -0.437323 0.0959882 0
M  V30 7 C -1.10121 -0.0419314 -0.20564 0
M  V30 8 C -0.0327128 -0.822426 0.138625 0
M  V30 9 N -0.303047 -1.99572 0.784796 0
M  V30 10 C -1.54906 -2.38514 1.07976 0
M  V30 11 N -2.57231 -1.59369 0.726193 0
M  V30 12 N -1.75607 -3.60597 1.76932 0
M  V30 13 N 1.32049 -0.503514 -0.0828221 0
M  V30 14 C 1.871 0.819319 0.218631 0
M  V30 15 C 3.35317 0.778842 0.190943 0
M  V30 16 C 3.98852 -0.0358237 1.1334 0
M  V30 17 C 5.3643 -0.0796101 1.13087 0
M  V30 18 C 6.0979 0.665644 0.214924 0
M  V30 19 C 5.46356 1.46466 -0.708048 0
M  V30 20 C 4.07795 1.5142 -0.710724 0
M  V30 21 O 6.20789 2.2115 -1.62945 0
M  V30 22 C 2.22586 -1.49168 -0.642169 0
M  V30 23 H -5.61124 2.81476 -0.298846 0
M  V30 24 H -5.25226 1.83855 -1.69057 0
M  V30 25 H -6.43235 0.391871 0.63188 0
M  V30 26 H -4.066 2.0088 1.1757 0
M  V30 27 H -4.23406 0.20403 1.6969 0
M  V30 28 H -3.23249 1.27806 -0.94293 0
M  V30 29 H -4.97802 -0.291382 -1.78493 0
M  V30 30 H -4.83724 -1.26263 -0.180131 0
M  V30 31 H -0.906155 0.888317 -0.715513 0
M  V30 32 H -1.33278 -4.46788 1.37236 0
M  V30 33 H -2.30186 -3.70365 2.65007 0
M  V30 34 H 1.45838 1.18536 1.1736 0
M  V30 35 H 1.53159 1.45917 -0.630664 0
M  V30 36 H 3.35651 -0.581695 1.80369 0
M  V30 37 H 5.87214 -0.714864 1.85952 0
M  V30 38 H 7.1832 0.609531 0.234162 0
M  V30 39 H 3.61587 2.15534 -1.45323 0
M  V30 40 H 6.53201 3.13402 -1.46335 0
M  V30 41 H 1.7586 -2.07644 -1.466 0
M  V30 42 H 2.54762 -2.18774 0.164322 0
M  V30 43 H 3.08839 -0.975502 -1.12766 0
M  V30 END ATOM
M  V30 BEGIN BOND
M  V30 1 1 1 2
M  V30 2 1 2 3
M  V30 3 1 3 4
M  V30 4 1 4 5
M  V30 5 1 4 6
M  V30 6 2 6 7
M  V30 7 1 7 8
M  V30 8 2 8 9
M  V30 9 1 9 10
M  V30 10 2 10 11
M  V30 11 1 10 12
M  V30 12 1 8 13
M  V30 13 1 13 14
M  V30 14 1 14 15
M  V30 15 2 15 16
M  V30 16 1 16 17
M  V30 17 2 17 18
M  V30 18 1 18 19
M  V30 19 2 19 20
M  V30 20 1 19 21
M  V30 21 1 13 22
M  V30 22 1 5 2
M  V30 23 1 11 6
M  V30 24 1 20 15
M  V30 25 1 1 23
M  V30 26 1 1 24
M  V30 27 1 2 25
M  V30 28 1 3 26
M  V30 29 1 3 27
M  V30 30 1 4 28
M  V30 31 1 5 29
M  V30 32 1 5 30
M  V30 33 1 7 31
M  V30 34 1 12 32
M  V30 35 1 12 33
M  V30 36 1 14 34
M  V30 37 1 14 35
M  V30 38 1 16 36
M  V30 39 1 17 37
M  V30 40 1 18 38
M  V30 41 1 20 39
M  V30 42 1 21 40
M  V30 43 1 22 41
M  V30 44 1 22 42
M  V30 45 1 22 43
M  V30 END BOND
M  V30 END CTAB
M  END
