
     RDKit          3D

  0  0  0  0  0  0  0  0  0  0999 V3000
M  V30 BEGIN CTAB
M  V30 COUNTS 38 39 0 0 0
M  V30 BEGIN ATOM
M  V30 1 C -4.30849 1.41445 0.992536 0
M  V30 2 C -3.66965 1.24762 -0.344025 0
M  V30 3 C -3.27635 -0.155325 -0.660655 0
M  V30 4 C -4.06981 -0.910593 -1.51733 0
M  V30 5 C -3.7145 -2.19096 -1.80603 0
M  V30 6 C -2.58978 -2.7558 -1.27102 0
M  V30 7 C -1.8114 -1.97204 -0.412737 0
M  V30 8 C -2.1189 -0.68007 -0.086796 0
M  V30 9 N -1.36191 0.137608 0.768254 0
M  V30 10 C -0.160238 -0.155166 1.43514 0
M  V30 11 O 0.430284 -1.24719 1.34296 0
M  V30 12 C 0.502207 0.85779 2.32087 0
M  V30 13 S 1.40236 2.11022 1.37921 0
M  V30 14 C 2.75494 1.27136 0.558289 0
M  V30 15 N 2.66082 0.75344 -0.657496 0
M  V30 16 C 3.67896 0.112752 -1.29525 0
M  V30 17 N 3.53968 -0.417273 -2.60647 0
M  V30 18 C 4.8689 0.0105336 -0.610894 0
M  V30 19 C 5.01119 0.53412 0.655381 0
M  V30 20 N 3.94203 1.14516 1.1891 0
M  V30 21 N 6.23682 0.431428 1.37276 0
M  V30 22 H -5.37391 1.67728 0.865813 0
M  V30 23 H -3.82454 2.29886 1.48033 0
M  V30 24 H -4.20219 0.507209 1.62346 0
M  V30 25 H -2.80672 1.93934 -0.467521 0
M  V30 26 H -4.42548 1.56005 -1.135 0
M  V30 27 H -4.96406 -0.423601 -1.92726 0
M  V30 28 H -4.36143 -2.75439 -2.48261 0
M  V30 29 H -2.3426 -3.7772 -1.52941 0
M  V30 30 H -0.946611 -2.44758 -0.0185687 0
M  V30 31 H -1.72214 1.13217 0.959709 0
M  V30 32 H -0.243315 1.39263 2.97118 0
M  V30 33 H 1.25415 0.333574 2.94349 0
M  V30 34 H 2.99192 -1.31458 -2.77069 0
M  V30 35 H 3.95755 0.0304377 -3.44402 0
M  V30 36 H 5.70692 -0.490601 -1.06355 0
M  V30 37 H 7.05218 -0.0530628 0.953415 0
M  V30 38 H 6.30312 0.847415 2.32587 0
M  V30 END ATOM
M  V30 BEGIN BOND
M  V30 1 1 1 2
M  V30 2 1 2 3
M  V30 3 2 3 4
M  V30 4 1 4 5
M  V30 5 2 5 6
M  V30 6 1 6 7
M  V30 7 2 7 8
M  V30 8 1 8 9
M  V30 9 1 9 10
M  V30 10 2 10 11
M  V30 11 1 10 12
M  V30 12 1 12 13
M  V30 13 1 13 14
M  V30 14 2 14 15
M  V30 15 1 15 16
M  V30 16 1 16 17
M  V30 17 2 16 18
M  V30 18 1 18 19
M  V30 19 2 19 20
M  V30 20 1 19 21
M  V30 21 1 8 3
M  V30 22 1 20 14
M  V30 23 1 1 22
M  V30 24 1 1 23
M  V30 25 1 1 24
M  V30 26 1 2 25
M  V30 27 1 2 26
M  V30 28 1 4 27
M  V30 29 1 5 28
M  V30 30 1 6 29
M  V30 31 1 7 30
M  V30 32 1 9 31
M  V30 33 1 12 32
M  V30 34 1 12 33
M  V30 35 1 17 34
M  V30 36 1 17 35
M  V30 37 1 18 36
M  V30 38 1 21 37
M  V30 39 1 21 38
M  V30 END BOND
M  V30 END CTAB
M  END
