
     RDKit          3D

  0  0  0  0  0  0  0  0  0  0999 V3000
M  V30 BEGIN CTAB
M  V30 COUNTS 29 29 0 0 0
M  V30 BEGIN ATOM
M  V30 1 C -4.17279 -1.0351 0.456141 0
M  V30 2 C -4.19983 0.481533 0.540086 0
M  V30 3 O -3.1595 1.01176 -0.263914 0
M  V30 4 C -1.84854 0.707575 -0.02953 0
M  V30 5 O -1.49784 -0.0489732 0.899246 0
M  V30 6 C -0.782917 1.28383 -0.895374 0
M  V30 7 C 0.561834 0.841139 -0.487856 0
M  V30 8 N 1.41659 1.62922 0.18341 0
M  V30 9 C 2.64863 1.20781 0.550783 0
M  V30 10 N 3.54016 2.06794 1.26564 0
M  V30 11 C 3.02491 -0.0763386 0.217726 0
M  V30 12 C 4.32928 -0.522639 0.606583 0
M  V30 13 N 5.37054 -0.858023 0.916064 0
M  V30 14 C 2.19709 -0.930208 -0.467302 0
M  V30 15 N 2.55835 -2.2547 -0.82256 0
M  V30 16 C 0.94026 -0.445039 -0.820793 0
M  V30 17 C 0.0446738 -1.30103 -1.53597 0
M  V30 18 N -0.667224 -2.00612 -2.11298 0
M  V30 19 H -3.52241 -1.40548 1.2639 0
M  V30 20 H -3.68972 -1.29832 -0.522355 0
M  V30 21 H -5.19171 -1.47316 0.49578 0
M  V30 22 H -5.1861 0.841702 0.221109 0
M  V30 23 H -3.96226 0.781479 1.59012 0
M  V30 24 H -0.838605 2.39566 -0.746634 0
M  V30 25 H -1.02232 1.09517 -1.9459 0
M  V30 26 H 3.19831 2.74467 1.9727 0
M  V30 27 H 4.54223 2.00656 1.06691 0
M  V30 28 H 2.64145 -2.95598 -0.059508 0
M  V30 29 H 2.72745 -2.48494 -1.81891 0
M  V30 END ATOM
M  V30 BEGIN BOND
M  V30 1 1 1 2
M  V30 2 1 2 3
M  V30 3 1 3 4
M  V30 4 2 4 5
M  V30 5 1 4 6
M  V30 6 1 6 7
M  V30 7 2 7 8
M  V30 8 1 8 9
M  V30 9 1 9 10
M  V30 10 2 9 11
M  V30 11 1 11 12
M  V30 12 3 12 13
M  V30 13 1 11 14
M  V30 14 1 14 15
M  V30 15 2 14 16
M  V30 16 1 16 17
M  V30 17 3 17 18
M  V30 18 1 16 7
M  V30 19 1 1 19
M  V30 20 1 1 20
M  V30 21 1 1 21
M  V30 22 1 2 22
M  V30 23 1 2 23
M  V30 24 1 6 24
M  V30 25 1 6 25
M  V30 26 1 10 26
M  V30 27 1 10 27
M  V30 28 1 15 28
M  V30 29 1 15 29
M  V30 END BOND
M  V30 END CTAB
M  END
