
     RDKit          3D

  0  0  0  0  0  0  0  0  0  0999 V3000
M  V30 BEGIN CTAB
M  V30 COUNTS 44 46 0 0 0
M  V30 BEGIN ATOM
M  V30 1 C -1.01147 2.26087 -0.128713 0
M  V30 2 C -1.66842 1.0282 -0.538068 0
M  V30 3 C -2.90716 1.32795 -1.37769 0
M  V30 4 C -3.73092 0.0351893 -1.27433 0
M  V30 5 C -2.90835 -0.845926 -0.382629 0
M  V30 6 C -2.28529 0.200352 0.559314 0
M  V30 7 C -3.3156 0.924633 1.35609 0
M  V30 8 C -1.29085 -0.408764 1.49055 0
M  V30 9 C -1.67495 -1.24313 -1.16641 0
M  V30 10 C -0.856118 0.0262057 -1.28769 0
M  V30 11 N 0.455738 -0.0488311 -0.837037 0
M  V30 12 C 1.33997 -0.962583 -1.41712 0
M  V30 13 C 2.68457 -0.842579 -0.755784 0
M  V30 14 N 2.92442 0.0502295 0.220297 0
M  V30 15 C 4.10809 0.191909 0.838612 0
M  V30 16 N 4.31809 1.16159 1.87815 0
M  V30 17 N 5.12255 -0.619468 0.450027 0
M  V30 18 C 4.91382 -1.52014 -0.521218 0
M  V30 19 N 3.71413 -1.6384 -1.12292 0
M  V30 20 N 5.96866 -2.38968 -0.950253 0
M  V30 21 H -0.518179 2.27085 0.859163 0
M  V30 22 H -1.73837 3.1001 -0.143335 0
M  V30 23 H -0.235976 2.53557 -0.90199 0
M  V30 24 H -2.65168 1.55628 -2.42863 0
M  V30 25 H -3.45643 2.12603 -0.861537 0
M  V30 26 H -3.74657 -0.426088 -2.28445 0
M  V30 27 H -4.74811 0.214266 -0.941222 0
M  V30 28 H -3.41596 -1.63731 0.123347 0
M  V30 29 H -3.03439 1.96288 1.59115 0
M  V30 30 H -4.32454 0.924639 0.922801 0
M  V30 31 H -3.4073 0.390539 2.3459 0
M  V30 32 H -0.625463 0.389501 1.87058 0
M  V30 33 H -1.86521 -0.759707 2.39447 0
M  V30 34 H -0.762607 -1.28635 1.10478 0
M  V30 35 H -2.0541 -1.59271 -2.16654 0
M  V30 36 H -1.12708 -2.0792 -0.738325 0
M  V30 37 H -0.858117 0.304044 -2.38321 0
M  V30 38 H 0.771631 0.534719 -0.0724789 0
M  V30 39 H 1.39262 -0.831218 -2.50175 0
M  V30 40 H 0.973474 -2.00609 -1.21031 0
M  V30 41 H 4.74967 2.09014 1.6696 0
M  V30 42 H 4.03665 0.939024 2.85743 0
M  V30 43 H 6.81685 -2.49865 -0.329481 0
M  V30 44 H 5.92828 -2.90888 -1.83796 0
M  V30 END ATOM
M  V30 BEGIN BOND
M  V30 1 1 1 2
M  V30 2 1 2 3
M  V30 3 1 3 4
M  V30 4 1 4 5
M  V30 5 1 5 6
M  V30 6 1 6 7
M  V30 7 1 6 8
M  V30 8 1 5 9
M  V30 9 1 9 10
M  V30 10 1 10 11
M  V30 11 1 11 12
M  V30 12 1 12 13
M  V30 13 2 13 14
M  V30 14 1 14 15
M  V30 15 1 15 16
M  V30 16 2 15 17
M  V30 17 1 17 18
M  V30 18 2 18 19
M  V30 19 1 18 20
M  V30 20 1 10 2
M  V30 21 1 19 13
M  V30 22 1 6 2
M  V30 23 1 1 21
M  V30 24 1 1 22
M  V30 25 1 1 23
M  V30 26 1 3 24
M  V30 27 1 3 25
M  V30 28 1 4 26
M  V30 29 1 4 27
M  V30 30 1 5 28
M  V30 31 1 7 29
M  V30 32 1 7 30
M  V30 33 1 7 31
M  V30 34 1 8 32
M  V30 35 1 8 33
M  V30 36 1 8 34
M  V30 37 1 9 35
M  V30 38 1 9 36
M  V30 39 1 10 37
M  V30 40 1 11 38
M  V30 41 1 12 39
M  V30 42 1 12 40
M  V30 43 1 16 41
M  V30 44 1 16 42
M  V30 45 1 20 43
M  V30 46 1 20 44
M  V30 END BOND
M  V30 END CTAB
M  END
