
     RDKit          3D

  0  0  0  0  0  0  0  0  0  0999 V3000
M  V30 BEGIN CTAB
M  V30 COUNTS 28 29 0 0 0
M  V30 BEGIN ATOM
M  V30 1 N 3.96381 1.86399 0.175298 0
M  V30 2 C 3.40721 0.568593 0.338299 0
M  V30 3 N 2.09021 0.373685 0.0363543 0
M  V30 4 C 1.52534 -0.842717 0.178228 0
M  V30 5 S -0.18477 -1.18731 -0.191907 0
M  V30 6 C -1.00458 0.342793 -0.77542 0
M  V30 7 C -2.46303 -0.0292884 -1.07242 0
M  V30 8 C -3.04654 -0.533995 0.231118 0
M  V30 9 C -3.96256 0.576781 0.633478 0
M  V30 10 C -3.49344 1.72204 -0.246417 0
M  V30 11 O -3.19894 1.07487 -1.43686 0
M  V30 12 N 2.30184 -1.84129 0.623003 0
M  V30 13 C 3.59802 -1.70804 0.934203 0
M  V30 14 N 4.13628 -0.470204 0.780152 0
M  V30 15 N 4.38643 -2.79603 1.40355 0
M  V30 16 H 4.79409 2.12436 0.785204 0
M  V30 17 H 3.5975 2.55682 -0.505866 0
M  V30 18 H -0.96351 1.05325 0.0752475 0
M  V30 19 H -0.493636 0.716867 -1.68442 0
M  V30 20 H -2.50424 -0.799695 -1.86399 0
M  V30 21 H -3.63837 -1.44817 -0.01276 0
M  V30 22 H -2.26181 -0.732749 0.991477 0
M  V30 23 H -3.9347 0.827876 1.70047 0
M  V30 24 H -5.00154 0.342285 0.298268 0
M  V30 25 H -4.36292 2.39925 -0.414396 0
M  V30 26 H -2.61793 2.24235 0.146577 0
M  V30 27 H 5.37451 -2.92945 1.09462 0
M  V30 28 H 3.95727 -3.46689 2.06927 0
M  V30 END ATOM
M  V30 BEGIN BOND
M  V30 1 1 1 2
M  V30 2 2 2 3
M  V30 3 1 3 4
M  V30 4 1 4 5
M  V30 5 1 5 6
M  V30 6 1 6 7
M  V30 7 1 7 8
M  V30 8 1 8 9
M  V30 9 1 9 10
M  V30 10 1 10 11
M  V30 11 2 4 12
M  V30 12 1 12 13
M  V30 13 2 13 14
M  V30 14 1 13 15
M  V30 15 1 14 2
M  V30 16 1 11 7
M  V30 17 1 1 16
M  V30 18 1 1 17
M  V30 19 1 6 18
M  V30 20 1 6 19
M  V30 21 1 7 20
M  V30 22 1 8 21
M  V30 23 1 8 22
M  V30 24 1 9 23
M  V30 25 1 9 24
M  V30 26 1 10 25
M  V30 27 1 10 26
M  V30 28 1 15 27
M  V30 29 1 15 28
M  V30 END BOND
M  V30 END CTAB
M  END
