
     RDKit          3D

  0  0  0  0  0  0  0  0  0  0999 V3000
M  V30 BEGIN CTAB
M  V30 COUNTS 20 20 0 0 0
M  V30 BEGIN ATOM
M  V30 1 N -2.43717 -1.88697 0.151827 0
M  V30 2 C -1.39319 -0.899445 0.0844521 0
M  V30 3 C -0.0660913 -1.29994 0.163447 0
M  V30 4 I 0.436661 -3.34569 0.381666 0
M  V30 5 C 0.957702 -0.379187 0.102127 0
M  V30 6 C 2.39871 -0.816663 0.188146 0
M  V30 7 O 3.23507 0.294619 0.102353 0
M  V30 8 C 0.640763 0.954439 -0.0398164 0
M  V30 9 I 2.16286 2.37752 -0.136342 0
M  V30 10 C -0.684093 1.39011 -0.122244 0
M  V30 11 N -0.999616 2.76931 -0.268669 0
M  V30 12 C -1.6837 0.441331 -0.0574268 0
M  V30 13 I -3.69289 1.05267 -0.177531 0
M  V30 14 H -3.1272 -2.01926 -0.610709 0
M  V30 15 H -2.52433 -2.50811 0.992855 0
M  V30 16 H 2.59823 -1.53638 -0.627715 0
M  V30 17 H 2.55688 -1.31624 1.16748 0
M  V30 18 H 3.86433 0.140215 -0.646848 0
M  V30 19 H -0.332462 3.43794 -0.705972 0
M  V30 20 H -1.91046 3.14972 0.0589175 0
M  V30 END ATOM
M  V30 BEGIN BOND
M  V30 1 1 1 2
M  V30 2 2 2 3
M  V30 3 1 3 4
M  V30 4 1 3 5
M  V30 5 1 5 6
M  V30 6 1 6 7
M  V30 7 2 5 8
M  V30 8 1 8 9
M  V30 9 1 8 10
M  V30 10 1 10 11
M  V30 11 2 10 12
M  V30 12 1 12 13
M  V30 13 1 12 2
M  V30 14 1 1 14
M  V30 15 1 1 15
M  V30 16 1 6 16
M  V30 17 1 6 17
M  V30 18 1 7 18
M  V30 19 1 11 19
M  V30 20 1 11 20
M  V30 END BOND
M  V30 END CTAB
M  END
