
     RDKit          3D

  0  0  0  0  0  0  0  0  0  0999 V3000
M  V30 BEGIN CTAB
M  V30 COUNTS 43 44 0 0 0
M  V30 BEGIN ATOM
M  V30 1 N 6.26457 -0.448483 -1.6351 0
M  V30 2 C 5.3213 0.0997792 -0.713566 0
M  V30 3 N 5.77706 1.07155 0.0991772 0
M  V30 4 C 4.94689 1.63092 0.988393 0
M  V30 5 O 5.30749 2.54693 1.78111 0
M  V30 6 C 3.65376 1.18629 1.03486 0
M  V30 7 C 3.15166 0.188845 0.213936 0
M  V30 8 N 4.0459 -0.335528 -0.664429 0
M  V30 9 N 1.79323 -0.266419 0.276865 0
M  V30 10 C 0.951075 0.330108 1.26838 0
M  V30 11 C -0.334085 -0.429408 1.50491 0
M  V30 12 N -0.811176 -0.928142 0.246404 0
M  V30 13 C 0.110571 -1.97229 -0.301652 0
M  V30 14 C 1.4002 -1.27812 -0.663455 0
M  V30 15 C -1.93686 -0.571974 -0.477422 0
M  V30 16 O -2.09658 -1.24792 -1.58865 0
M  V30 17 C -2.98205 0.412396 -0.242662 0 CFG=1
M  V30 18 C -4.38248 -0.226489 -0.161547 0
M  V30 19 C -5.34811 0.914953 0.0923507 0
M  V30 20 C -4.70984 -0.817187 -1.50481 0
M  V30 21 N -2.81385 1.32714 0.836191 0
M  V30 22 H 7.24756 -0.587697 -1.38427 0
M  V30 23 H 5.93085 -0.702605 -2.56497 0
M  V30 24 H 6.75917 1.41515 0.0699001 0
M  V30 25 H 2.9947 1.64427 1.7533 0
M  V30 26 H 1.53929 0.316302 2.23365 0
M  V30 27 H 0.734991 1.37125 0.961252 0
M  V30 28 H -1.0308 0.234073 2.01168 0
M  V30 29 H -0.0739594 -1.28148 2.20314 0
M  V30 30 H -0.345185 -2.41097 -1.18725 0
M  V30 31 H 0.229612 -2.71181 0.513127 0
M  V30 32 H 1.23546 -0.850828 -1.68938 0
M  V30 33 H 2.165 -2.0749 -0.766984 0
M  V30 34 H -3.07105 1.0624 -1.17611 0
M  V30 35 H -4.43268 -0.959242 0.659437 0
M  V30 36 H -4.90673 1.86441 -0.264555 0
M  V30 37 H -6.29385 0.700558 -0.48455 0
M  V30 38 H -5.60692 1.01111 1.14756 0
M  V30 39 H -5.82724 -0.723726 -1.66579 0
M  V30 40 H -4.20934 -0.266917 -2.32491 0
M  V30 41 H -4.45094 -1.89717 -1.52035 0
M  V30 42 H -3.65061 1.52079 1.40387 0
M  V30 43 H -2.24599 2.1401 0.571495 0
M  V30 END ATOM
M  V30 BEGIN BOND
M  V30 1 1 1 2
M  V30 2 1 2 3
M  V30 3 1 3 4
M  V30 4 2 4 5
M  V30 5 1 4 6
M  V30 6 2 6 7
M  V30 7 1 7 8
M  V30 8 1 7 9
M  V30 9 1 9 10
M  V30 10 1 10 11
M  V30 11 1 11 12
M  V30 12 1 12 13
M  V30 13 1 13 14
M  V30 14 1 12 15
M  V30 15 2 15 16
M  V30 16 1 15 17
M  V30 17 1 17 18
M  V30 18 1 18 19
M  V30 19 1 18 20
M  V30 20 1 17 21
M  V30 21 2 8 2
M  V30 22 1 14 9
M  V30 23 1 1 22
M  V30 24 1 1 23
M  V30 25 1 3 24
M  V30 26 1 6 25
M  V30 27 1 10 26
M  V30 28 1 10 27
M  V30 29 1 11 28
M  V30 30 1 11 29
M  V30 31 1 13 30
M  V30 32 1 13 31
M  V30 33 1 14 32
M  V30 34 1 14 33
M  V30 35 1 17 34 CFG=3
M  V30 36 1 18 35
M  V30 37 1 19 36
M  V30 38 1 19 37
M  V30 39 1 19 38
M  V30 40 1 20 39
M  V30 41 1 20 40
M  V30 42 1 20 41
M  V30 43 1 21 42
M  V30 44 1 21 43
M  V30 END BOND
M  V30 END CTAB
M  END
