
     RDKit          3D

  0  0  0  0  0  0  0  0  0  0999 V3000
M  V30 BEGIN CTAB
M  V30 COUNTS 29 29 0 0 0
M  V30 BEGIN ATOM
M  V30 1 N 5.20877 -0.2379 -0.0246561 0
M  V30 2 C 4.56387 -1.00882 0.977375 0
M  V30 3 N 5.2424 -1.73174 1.82084 0
M  V30 4 N 3.15157 -0.990443 1.06049 0
M  V30 5 C 2.37427 -0.213654 0.157808 0
M  V30 6 O 2.95539 0.46408 -0.724144 0
M  V30 7 C 0.922926 -0.173205 0.216545 0
M  V30 8 C 0.223311 0.595111 -0.681432 0
M  V30 9 N 0.964176 1.33466 -1.65176 0
M  V30 10 N -1.13983 0.657708 -0.656707 0
M  V30 11 C -1.81223 -0.0559884 0.276532 0
M  V30 12 N -3.23378 -0.0309358 0.352104 0
M  V30 13 C -4.0461 0.750737 -0.553855 0
M  V30 14 C -5.51923 0.60174 -0.258994 0
M  V30 15 F -5.7866 1.02815 1.03734 0
M  V30 16 F -5.96666 -0.676287 -0.43377 0
M  V30 17 F -6.24087 1.43226 -1.09312 0
M  V30 18 C -1.11001 -0.832017 1.18385 0
M  V30 19 Cl -2.03091 -1.74798 2.38594 0
M  V30 20 N 0.233776 -0.889912 1.15476 0
M  V30 21 H 5.60366 0.680572 0.254142 0
M  V30 22 H 5.30914 -0.534318 -1.0129 0
M  V30 23 H 6.29091 -1.74448 1.75801 0
M  V30 24 H 2.68176 -1.55144 1.7897 0
M  V30 25 H 1.27001 2.32117 -1.4946 0
M  V30 26 H 1.23029 0.908367 -2.56677 0
M  V30 27 H -3.73184 -0.587478 1.07781 0
M  V30 28 H -3.84339 0.409801 -1.58235 0
M  V30 29 H -3.7648 1.82225 -0.515555 0
M  V30 END ATOM
M  V30 BEGIN BOND
M  V30 1 1 1 2
M  V30 2 2 2 3 CFG=2
M  V30 3 1 2 4
M  V30 4 1 4 5
M  V30 5 2 5 6
M  V30 6 1 5 7
M  V30 7 2 7 8
M  V30 8 1 8 9
M  V30 9 1 8 10
M  V30 10 2 10 11
M  V30 11 1 11 12
M  V30 12 1 12 13
M  V30 13 1 13 14
M  V30 14 1 14 15
M  V30 15 1 14 16
M  V30 16 1 14 17
M  V30 17 1 11 18
M  V30 18 1 18 19
M  V30 19 2 18 20
M  V30 20 1 20 7
M  V30 21 1 1 21
M  V30 22 1 1 22
M  V30 23 1 3 23
M  V30 24 1 4 24
M  V30 25 1 9 25
M  V30 26 1 9 26
M  V30 27 1 12 27
M  V30 28 1 13 28
M  V30 29 1 13 29
M  V30 END BOND
M  V30 END CTAB
M  END
