
     RDKit          3D

  0  0  0  0  0  0  0  0  0  0999 V3000
M  V30 BEGIN CTAB
M  V30 COUNTS 35 36 0 0 0
M  V30 BEGIN ATOM
M  V30 1 C 4.79849 0.178802 1.96332 0
M  V30 2 C 4.48142 -0.116525 0.518644 0
M  V30 3 O 3.10702 -0.186508 0.258737 0
M  V30 4 C 2.46602 -1.29459 -0.270337 0
M  V30 5 O 3.2024 -2.2934 -0.524061 0
M  V30 6 C 1.03327 -1.32498 -0.525192 0
M  V30 7 C 0.387966 -2.41987 -1.05023 0
M  V30 8 C -0.960556 -2.40715 -1.27454 0
M  V30 9 C -1.73947 -1.28014 -0.979336 0
M  V30 10 C -1.11223 -0.196115 -0.461462 0
M  V30 11 C 0.267644 -0.21769 -0.235177 0
M  V30 12 N -1.85321 0.97784 -0.141189 0
M  V30 13 S -3.47274 -1.40276 -1.32028 0
M  V30 14 C -4.4374 0.0166982 -0.950361 0
M  V30 15 N -4.68258 1.02654 -1.80448 0
M  V30 16 N -5.44592 1.9227 -1.24613 0
M  V30 17 C -5.69629 1.48371 -0.0138227 0
M  V30 18 N -5.08042 0.310049 0.180701 0
M  V30 19 N -5.12406 -0.43991 1.35928 0
M  V30 20 C 5.0765 0.946192 -0.381854 0
M  V30 21 H 4.14299 0.982447 2.35966 0
M  V30 22 H 5.85701 0.510435 2.00727 0
M  V30 23 H 4.7298 -0.731552 2.59755 0
M  V30 24 H 5.0131 -1.07356 0.24598 0
M  V30 25 H 0.951967 -3.30427 -1.2899 0
M  V30 26 H -1.46702 -3.29068 -1.69579 0
M  V30 27 H 0.705458 0.678377 0.179161 0
M  V30 28 H -2.27263 1.08827 0.785591 0
M  V30 29 H -1.94185 1.71076 -0.861559 0
M  V30 30 H -6.31149 2.02478 0.69556 0
M  V30 31 H -4.54403 -1.29012 1.49611 0
M  V30 32 H -5.7489 -0.165641 2.14898 0
M  V30 33 H 5.16524 1.88387 0.232372 0
M  V30 34 H 6.08561 0.632812 -0.764004 0
M  V30 35 H 4.41889 1.11203 -1.23922 0
M  V30 END ATOM
M  V30 BEGIN BOND
M  V30 1 1 1 2
M  V30 2 1 2 3
M  V30 3 1 3 4
M  V30 4 2 4 5
M  V30 5 1 4 6
M  V30 6 2 6 7
M  V30 7 1 7 8
M  V30 8 2 8 9
M  V30 9 1 9 10
M  V30 10 2 10 11
M  V30 11 1 10 12
M  V30 12 1 9 13
M  V30 13 1 13 14
M  V30 14 2 14 15
M  V30 15 1 15 16
M  V30 16 2 16 17
M  V30 17 1 17 18
M  V30 18 1 18 19
M  V30 19 1 2 20
M  V30 20 1 11 6
M  V30 21 1 18 14
M  V30 22 1 1 21
M  V30 23 1 1 22
M  V30 24 1 1 23
M  V30 25 1 2 24
M  V30 26 1 7 25
M  V30 27 1 8 26
M  V30 28 1 11 27
M  V30 29 1 12 28
M  V30 30 1 12 29
M  V30 31 1 17 30
M  V30 32 1 19 31
M  V30 33 1 19 32
M  V30 34 1 20 33
M  V30 35 1 20 34
M  V30 36 1 20 35
M  V30 END BOND
M  V30 END CTAB
M  END
