
     RDKit          3D

  0  0  0  0  0  0  0  0  0  0999 V3000
M  V30 BEGIN CTAB
M  V30 COUNTS 28 30 0 0 0
M  V30 BEGIN ATOM
M  V30 1 N 3.94158 -0.612632 -1.47358 0
M  V30 2 C 2.5706 -0.515296 -1.05964 0
M  V30 3 C 2.13058 0.484237 -0.219165 0
M  V30 4 N 3.09766 1.43887 0.236627 0
M  V30 5 C 0.812207 0.548761 0.157655 0
M  V30 6 C -0.103833 -0.403236 -0.308993 0
M  V30 7 C 0.379452 -1.38079 -1.14422 0
M  V30 8 C 1.71525 -1.47135 -1.54442 0
M  V30 9 C -1.43106 -0.32572 0.079549 0
M  V30 10 C -2.33028 -1.25658 -0.375866 0
M  V30 11 C -3.64145 -1.13731 0.0391682 0
M  V30 12 C -4.08724 -0.139061 0.880164 0
M  V30 13 C -3.1675 0.775812 1.31876 0
M  V30 14 C -1.85276 0.692327 0.92899 0
M  V30 15 C -0.920936 1.60798 1.36513 0
M  V30 16 C 0.404659 1.55525 0.995102 0
M  V30 17 H 4.22226 -0.609705 -2.48334 0
M  V30 18 H 4.72474 -0.691175 -0.781739 0
M  V30 19 H 4.03802 1.10269 0.535206 0
M  V30 20 H 2.92524 2.45567 0.291124 0
M  V30 21 H -0.294563 -2.12694 -1.52096 0
M  V30 22 H 2.03035 -2.2621 -2.20109 0
M  V30 23 H -2.09873 -2.0744 -1.03144 0
M  V30 24 H -4.35434 -1.86007 -0.310765 0
M  V30 25 H -5.12491 -0.0671563 1.19219 0
M  V30 26 H -3.48276 1.56756 1.97621 0
M  V30 27 H -1.23606 2.41932 2.03685 0
M  V30 28 H 1.1338 2.28506 1.34612 0
M  V30 END ATOM
M  V30 BEGIN BOND
M  V30 1 1 1 2
M  V30 2 2 2 3
M  V30 3 1 3 4
M  V30 4 1 3 5
M  V30 5 2 5 6
M  V30 6 1 6 7
M  V30 7 2 7 8
M  V30 8 1 6 9
M  V30 9 2 9 10
M  V30 10 1 10 11
M  V30 11 2 11 12
M  V30 12 1 12 13
M  V30 13 2 13 14
M  V30 14 1 14 15
M  V30 15 2 15 16
M  V30 16 1 8 2
M  V30 17 1 14 9
M  V30 18 1 16 5
M  V30 19 1 1 17
M  V30 20 1 1 18
M  V30 21 1 4 19
M  V30 22 1 4 20
M  V30 23 1 7 21
M  V30 24 1 8 22
M  V30 25 1 10 23
M  V30 26 1 11 24
M  V30 27 1 12 25
M  V30 28 1 13 26
M  V30 29 1 15 27
M  V30 30 1 16 28
M  V30 END BOND
M  V30 END CTAB
M  END
