
     RDKit          3D

  0  0  0  0  0  0  0  0  0  0999 V3000
M  V30 BEGIN CTAB
M  V30 COUNTS 41 42 0 0 0
M  V30 BEGIN ATOM
M  V30 1 C 2.21051 1.97416 3.31304 0
M  V30 2 C 2.40319 1.8508 1.83956 0
M  V30 3 Cl 2.90408 3.25092 0.920972 0
M  V30 4 C 2.16564 0.721582 1.20667 0
M  V30 5 C 2.3548 0.584044 -0.224941 0
M  V30 6 C 3.49958 0.99319 -0.829045 0
M  V30 7 C 3.73359 0.883289 -2.17973 0
M  V30 8 N 4.95806 1.32821 -2.75373 0
M  V30 9 C 2.73879 0.327966 -2.92294 0
M  V30 10 C 1.54882 -0.103377 -2.33649 0
M  V30 11 C 1.29018 -0.00497431 -0.98562 0
M  V30 12 O 0.192836 -0.393841 -0.343823 0
M  V30 13 C -0.919061 -1.08503 -0.555013 0
M  V30 14 C -1.16282 -1.8542 -1.68632 0
M  V30 15 C -2.37746 -2.52284 -1.7837 0
M  V30 16 C -3.34012 -2.45635 -0.813185 0
M  V30 17 N -4.54564 -3.15617 -0.969647 0
M  V30 18 C -3.07121 -1.68999 0.293154 0
M  V30 19 C -1.91082 -1.0031 0.467627 0
M  V30 20 C -1.64365 -0.189928 1.65023 0
M  V30 21 C -2.45712 0.624736 2.2366 0
M  V30 22 C -3.8553 0.926723 1.84581 0
M  V30 23 Cl -1.87921 1.49386 3.6727 0
M  V30 24 H 2.58204 1.11175 3.85988 0
M  V30 25 H 2.80183 2.87792 3.63966 0
M  V30 26 H 1.16094 2.23884 3.52605 0
M  V30 27 H 1.8123 -0.132471 1.8151 0
M  V30 28 H 4.32296 1.43003 -0.242036 0
M  V30 29 H 5.45252 0.842524 -3.53219 0
M  V30 30 H 5.41395 2.19252 -2.3929 0
M  V30 31 H 2.9048 0.233427 -3.98414 0
M  V30 32 H 0.816305 -0.494732 -3.02085 0
M  V30 33 H -0.4611 -1.99754 -2.48921 0
M  V30 34 H -2.53448 -3.11543 -2.68904 0
M  V30 35 H -4.62175 -3.93064 -1.66809 0
M  V30 36 H -5.40456 -2.94881 -0.416046 0
M  V30 37 H -3.82637 -1.62834 1.08531 0
M  V30 38 H -0.630269 -0.306158 2.0739 0
M  V30 39 H -4.0406 0.717144 0.77414 0
M  V30 40 H -4.54257 0.387203 2.53753 0
M  V30 41 H -4.0436 2.02309 2.06073 0
M  V30 END ATOM
M  V30 BEGIN BOND
M  V30 1 1 1 2
M  V30 2 1 2 3
M  V30 3 2 2 4 CFG=2
M  V30 4 1 4 5
M  V30 5 2 5 6
M  V30 6 1 6 7
M  V30 7 1 7 8
M  V30 8 2 7 9
M  V30 9 1 9 10
M  V30 10 2 10 11
M  V30 11 1 11 12
M  V30 12 1 12 13
M  V30 13 2 13 14
M  V30 14 1 14 15
M  V30 15 2 15 16
M  V30 16 1 16 17
M  V30 17 1 16 18
M  V30 18 2 18 19
M  V30 19 1 19 20
M  V30 20 2 20 21 CFG=2
M  V30 21 1 21 22
M  V30 22 1 21 23
M  V30 23 1 11 5
M  V30 24 1 19 13
M  V30 25 1 1 24
M  V30 26 1 1 25
M  V30 27 1 1 26
M  V30 28 1 4 27
M  V30 29 1 6 28
M  V30 30 1 8 29
M  V30 31 1 8 30
M  V30 32 1 9 31
M  V30 33 1 10 32
M  V30 34 1 14 33
M  V30 35 1 15 34
M  V30 36 1 17 35
M  V30 37 1 17 36
M  V30 38 1 18 37
M  V30 39 1 20 38
M  V30 40 1 22 39
M  V30 41 1 22 40
M  V30 42 1 22 41
M  V30 END BOND
M  V30 END CTAB
M  END
