
     RDKit          3D

  0  0  0  0  0  0  0  0  0  0999 V3000
M  V30 BEGIN CTAB
M  V30 COUNTS 32 33 0 0 0
M  V30 BEGIN ATOM
M  V30 1 N -3.9732 -0.0690998 1.49821 0
M  V30 2 C -2.98699 -1.04377 1.17328 0
M  V30 3 C -2.42486 -0.749599 -0.219516 0
M  V30 4 N -1.76543 0.557726 -0.221374 0
M  V30 5 C -1.56221 0.932263 -1.60859 0
M  V30 6 C -0.578321 0.100094 -2.35185 0
M  V30 7 O 0.402574 -0.4341 -1.53027 0
M  V30 8 C 0.634449 0.570133 -0.548608 0 CFG=1
M  V30 9 C -0.457551 0.427969 0.447773 0
M  V30 10 N 1.9426 0.319373 -0.00715297 0
M  V30 11 C 3.04834 0.196436 -0.817111 0
M  V30 12 C 4.10835 -0.0460237 -0.0197798 0
M  V30 13 C 3.64452 -0.070535 1.2711 0
M  V30 14 N 2.32434 0.156835 1.22201 0
M  V30 15 N 4.39779 -0.29421 2.44123 0
M  V30 16 H -3.65689 0.857367 1.57876 0
M  V30 17 H -4.77743 -0.187361 0.948306 0
M  V30 18 H -2.18359 -0.92548 1.94921 0
M  V30 19 H -3.46614 -2.01626 1.14562 0
M  V30 20 H -3.25032 -0.764301 -0.926698 0
M  V30 21 H -1.67263 -1.54744 -0.422613 0
M  V30 22 H -1.31235 2.01857 -1.6219 0
M  V30 23 H -2.57073 0.784137 -2.0925 0
M  V30 24 H -0.0810805 0.779007 -3.10445 0
M  V30 25 H -1.05547 -0.764045 -2.87792 0
M  V30 26 H 0.618472 1.55873 -1.05891 0
M  V30 27 H -0.446621 1.13616 1.28165 0
M  V30 28 H -0.411532 -0.617514 0.858297 0
M  V30 29 H 3.02207 0.279386 -1.88448 0
M  V30 30 H 5.15166 -0.193356 -0.280902 0
M  V30 31 H 4.0037 -0.912461 3.17076 0
M  V30 32 H 5.33448 0.125206 2.60842 0
M  V30 END ATOM
M  V30 BEGIN BOND
M  V30 1 1 1 2
M  V30 2 1 2 3
M  V30 3 1 3 4
M  V30 4 1 4 5
M  V30 5 1 5 6
M  V30 6 1 6 7
M  V30 7 1 7 8
M  V30 8 1 8 9
M  V30 9 1 8 10
M  V30 10 1 10 11
M  V30 11 2 11 12
M  V30 12 1 12 13
M  V30 13 2 13 14
M  V30 14 1 13 15
M  V30 15 1 9 4
M  V30 16 1 14 10
M  V30 17 1 1 16
M  V30 18 1 1 17
M  V30 19 1 2 18
M  V30 20 1 2 19
M  V30 21 1 3 20
M  V30 22 1 3 21
M  V30 23 1 5 22
M  V30 24 1 5 23
M  V30 25 1 6 24
M  V30 26 1 6 25
M  V30 27 1 8 26 CFG=3
M  V30 28 1 9 27
M  V30 29 1 9 28
M  V30 30 1 11 29
M  V30 31 1 12 30
M  V30 32 1 15 31
M  V30 33 1 15 32
M  V30 END BOND
M  V30 END CTAB
M  END
