
     RDKit          3D

  0  0  0  0  0  0  0  0  0  0999 V3000
M  V30 BEGIN CTAB
M  V30 COUNTS 53 55 0 0 0
M  V30 BEGIN ATOM
M  V30 1 C 6.31073 1.62003 0.791983 0
M  V30 2 N 6.02548 0.195851 0.825466 0
M  V30 3 C 4.60769 -0.0615398 0.983688 0
M  V30 4 C 3.81754 0.333645 -0.225478 0
M  V30 5 C 2.34532 0.0560007 -0.0464019 0
M  V30 6 C 1.6073 0.475703 -1.29567 0
M  V30 7 C 0.12075 0.307725 -1.18186 0
M  V30 8 N -0.205309 -0.874157 -0.408486 0
M  V30 9 C 0.793977 -1.91596 -0.346459 0
M  V30 10 C 2.0465 -1.36313 0.290856 0
M  V30 11 C -1.45282 -1.01341 0.253035 0
M  V30 12 C -2.48942 -0.12273 -0.0206499 0
M  V30 13 C -3.67019 -0.26452 0.631109 0
M  V30 14 N -3.78739 -1.26721 1.51996 0
M  V30 15 C -2.80031 -2.14261 1.80377 0
M  V30 16 N -1.65089 -1.98735 1.1543 0
M  V30 17 N -2.95581 -3.1843 2.7459 0
M  V30 18 C -4.85897 0.58824 0.427876 0
M  V30 19 C -5.64755 0.212958 -0.847733 0
M  V30 20 C -5.98448 1.68803 -0.939681 0
M  V30 21 C -4.67755 1.93601 -0.166457 0
M  V30 22 N -7.08367 2.00365 -0.048619 0
M  V30 23 C 6.5498 -0.437428 -0.375855 0
M  V30 24 H 5.84732 2.09765 -0.096966 0
M  V30 25 H 5.9817 2.04784 1.74517 0
M  V30 26 H 7.42871 1.71395 0.757024 0
M  V30 27 H 4.28878 0.564294 1.84695 0
M  V30 28 H 4.49864 -1.14473 1.18383 0
M  V30 29 H 4.15372 -0.285672 -1.08918 0
M  V30 30 H 3.97709 1.39116 -0.516248 0
M  V30 31 H 1.96947 0.703633 0.780191 0
M  V30 32 H 2.05141 -0.0294586 -2.17279 0
M  V30 33 H 1.80536 1.57429 -1.418 0
M  V30 34 H -0.273907 1.205 -0.642359 0
M  V30 35 H -0.28842 0.306612 -2.19883 0
M  V30 36 H 0.993403 -2.31935 -1.36332 0
M  V30 37 H 0.441595 -2.75618 0.320969 0
M  V30 38 H 2.88378 -2.07115 0.049431 0
M  V30 39 H 1.89286 -1.45271 1.41045 0
M  V30 40 H -2.36366 0.660462 -0.725585 0
M  V30 41 H -2.94777 -4.16957 2.43971 0
M  V30 42 H -3.08031 -2.96034 3.74683 0
M  V30 43 H -5.56653 0.55125 1.28779 0
M  V30 44 H -6.4908 -0.465942 -0.646363 0
M  V30 45 H -4.94367 -0.0925013 -1.61924 0
M  V30 46 H -6.01519 2.11091 -1.94364 0
M  V30 47 H -3.84292 2.03209 -0.885537 0
M  V30 48 H -4.73275 2.79679 0.501211 0
M  V30 49 H -7.97203 2.17426 -0.574826 0
M  V30 50 H -6.85338 2.77473 0.612724 0
M  V30 51 H 6.18177 -1.45865 -0.455849 0
M  V30 52 H 6.35753 0.193618 -1.2716 0
M  V30 53 H 7.65749 -0.475795 -0.258441 0
M  V30 END ATOM
M  V30 BEGIN BOND
M  V30 1 1 1 2
M  V30 2 1 2 3
M  V30 3 1 3 4
M  V30 4 1 4 5
M  V30 5 1 5 6
M  V30 6 1 6 7
M  V30 7 1 7 8
M  V30 8 1 8 9
M  V30 9 1 9 10
M  V30 10 1 8 11
M  V30 11 2 11 12
M  V30 12 1 12 13
M  V30 13 2 13 14
M  V30 14 1 14 15
M  V30 15 2 15 16
M  V30 16 1 15 17
M  V30 17 1 13 18
M  V30 18 1 18 19
M  V30 19 1 19 20
M  V30 20 1 20 21
M  V30 21 1 20 22
M  V30 22 1 2 23
M  V30 23 1 10 5
M  V30 24 1 16 11
M  V30 25 1 21 18
M  V30 26 1 1 24
M  V30 27 1 1 25
M  V30 28 1 1 26
M  V30 29 1 3 27
M  V30 30 1 3 28
M  V30 31 1 4 29
M  V30 32 1 4 30
M  V30 33 1 5 31
M  V30 34 1 6 32
M  V30 35 1 6 33
M  V30 36 1 7 34
M  V30 37 1 7 35
M  V30 38 1 9 36
M  V30 39 1 9 37
M  V30 40 1 10 38
M  V30 41 1 10 39
M  V30 42 1 12 40
M  V30 43 1 17 41
M  V30 44 1 17 42
M  V30 45 1 18 43
M  V30 46 1 19 44
M  V30 47 1 19 45
M  V30 48 1 20 46
M  V30 49 1 21 47
M  V30 50 1 21 48
M  V30 51 1 22 49
M  V30 52 1 22 50
M  V30 53 1 23 51
M  V30 54 1 23 52
M  V30 55 1 23 53
M  V30 END BOND
M  V30 END CTAB
M  END
