
     RDKit          3D

  0  0  0  0  0  0  0  0  0  0999 V3000
M  V30 BEGIN CTAB
M  V30 COUNTS 52 51 0 0 0
M  V30 BEGIN ATOM
M  V30 1 C 7.716 -0.26276 -1.81573 0
M  V30 2 C 7.21255 -1.29079 -0.848871 0
M  V30 3 C 5.8521 -0.819697 -0.342319 0
M  V30 4 C 5.94814 0.49778 0.343951 0
M  V30 5 N 4.67167 0.948227 0.814199 0
M  V30 6 C 3.94922 0.219101 1.77216 0
M  V30 7 O 4.40719 -0.839978 2.24345 0
M  V30 8 C 2.62749 0.709034 2.2318 0 CFG=1
M  V30 9 N 2.23858 1.93446 1.60171 0
M  V30 10 C 1.53828 -0.314138 1.98806 0
M  V30 11 S -0.0507594 0.329754 2.56608 0
M  V30 12 S -0.652184 1.99306 1.38687 0
M  V30 13 C -1.63316 1.35706 2.84742e-05 0
M  V30 14 C -2.90398 0.766019 0.58131 0 CFG=2
M  V30 15 N -2.58696 -0.28841 1.48327 0
M  V30 16 C -3.83163 0.338092 -0.535974 0
M  V30 17 O -4.17215 1.20085 -1.37291 0
M  V30 18 N -4.2512 -0.9909 -0.565851 0
M  V30 19 C -5.13357 -1.5532 -1.49384 0
M  V30 20 C -6.56701 -1.36635 -1.54882 0
M  V30 21 C -7.31601 -0.122959 -1.58678 0
M  V30 22 C -7.30613 0.714994 -0.352156 0
M  V30 23 H 6.91761 -0.0723233 -2.56904 0
M  V30 24 H 8.59375 -0.702637 -2.34764 0
M  V30 25 H 8.0506 0.657466 -1.34504 0
M  V30 26 H 7.01877 -2.24172 -1.38791 0
M  V30 27 H 7.85843 -1.42014 0.029517 0
M  V30 28 H 5.13631 -0.724268 -1.19982 0
M  V30 29 H 5.46713 -1.63595 0.281706 0
M  V30 30 H 6.36859 1.29147 -0.338418 0
M  V30 31 H 6.66428 0.477641 1.20637 0
M  V30 32 H 4.25139 1.85569 0.435504 0
M  V30 33 H 2.67527 0.876411 3.32779 0
M  V30 34 H 1.97846 1.85562 0.608938 0
M  V30 35 H 2.94673 2.65049 1.7909 0
M  V30 36 H 1.45835 -0.581805 0.917862 0
M  V30 37 H 1.7346 -1.25958 2.55025 0
M  V30 38 H -1.89269 2.17362 -0.714272 0
M  V30 39 H -1.08748 0.597128 -0.590514 0
M  V30 40 H -3.42414 1.56567 1.15231 0
M  V30 41 H -2.10254 -1.0922 1.034 0
M  V30 42 H -3.45827 -0.653962 1.91905 0
M  V30 43 H -3.86201 -1.63645 0.195134 0
M  V30 44 H -4.97854 -2.70567 -1.40709 0
M  V30 45 H -4.6522 -1.32764 -2.53794 0
M  V30 46 H -7.05837 -2.04619 -0.744724 0
M  V30 47 H -6.91273 -1.97642 -2.48826 0
M  V30 48 H -8.41186 -0.376564 -1.77057 0
M  V30 49 H -7.06834 0.4884 -2.50474 0
M  V30 50 H -8.3337 0.927869 0.0366428 0
M  V30 51 H -6.76555 0.175909 0.462849 0
M  V30 52 H -6.86837 1.70087 -0.597598 0
M  V30 END ATOM
M  V30 BEGIN BOND
M  V30 1 1 1 2
M  V30 2 1 2 3
M  V30 3 1 3 4
M  V30 4 1 4 5
M  V30 5 1 5 6
M  V30 6 2 6 7
M  V30 7 1 6 8
M  V30 8 1 8 9
M  V30 9 1 8 10
M  V30 10 1 10 11
M  V30 11 1 11 12
M  V30 12 1 12 13
M  V30 13 1 13 14
M  V30 14 1 14 15
M  V30 15 1 14 16
M  V30 16 2 16 17
M  V30 17 1 16 18
M  V30 18 1 18 19
M  V30 19 1 19 20
M  V30 20 1 20 21
M  V30 21 1 21 22
M  V30 22 1 1 23
M  V30 23 1 1 24
M  V30 24 1 1 25
M  V30 25 1 2 26
M  V30 26 1 2 27
M  V30 27 1 3 28
M  V30 28 1 3 29
M  V30 29 1 4 30
M  V30 30 1 4 31
M  V30 31 1 5 32
M  V30 32 1 8 33 CFG=1
M  V30 33 1 9 34
M  V30 34 1 9 35
M  V30 35 1 10 36
M  V30 36 1 10 37
M  V30 37 1 13 38
M  V30 38 1 13 39
M  V30 39 1 14 40 CFG=1
M  V30 40 1 15 41
M  V30 41 1 15 42
M  V30 42 1 18 43
M  V30 43 1 19 44
M  V30 44 1 19 45
M  V30 45 1 20 46
M  V30 46 1 20 47
M  V30 47 1 21 48
M  V30 48 1 21 49
M  V30 49 1 22 50
M  V30 50 1 22 51
M  V30 51 1 22 52
M  V30 END BOND
M  V30 END CTAB
M  END
