
     RDKit          3D

  0  0  0  0  0  0  0  0  0  0999 V3000
M  V30 BEGIN CTAB
M  V30 COUNTS 30 31 0 0 0
M  V30 BEGIN ATOM
M  V30 1 N -4.24638 -1.09345 -0.842057 0
M  V30 2 C -3.0138 -0.47022 -0.523595 0
M  V30 3 N -1.9053 -1.2098 -0.494524 0
M  V30 4 C -0.678143 -0.737615 -0.206808 0
M  V30 5 C 0.188997 -1.89189 -0.298007 0
M  V30 6 C 1.41605 -1.86981 0.545915 0
M  V30 7 C 2.52243 -1.09817 -0.12287 0
M  V30 8 C 2.64535 0.224721 0.583513 0
M  V30 9 C 1.83691 1.23448 -0.204022 0
M  V30 10 C 0.512523 1.50925 0.426416 0
M  V30 11 C -0.555913 0.599379 0.0771914 0
M  V30 12 C -1.69188 1.38686 0.0532581 0
M  V30 13 N -2.90888 0.838363 -0.247956 0
M  V30 14 N -1.57373 2.76541 0.344877 0
M  V30 15 H -5.14371 -0.894846 -0.369457 0
M  V30 16 H -4.24765 -1.80211 -1.60696 0
M  V30 17 H 0.519371 -2.13051 -1.35121 0
M  V30 18 H -0.384343 -2.81856 0.00821835 0
M  V30 19 H 1.7824 -2.93653 0.61561 0
M  V30 20 H 1.26906 -1.50667 1.56428 0
M  V30 21 H 2.25398 -0.994042 -1.19619 0
M  V30 22 H 3.49111 -1.6523 -0.105079 0
M  V30 23 H 2.21179 0.20549 1.61602 0
M  V30 24 H 3.70856 0.500659 0.669229 0
M  V30 25 H 2.41989 2.18611 -0.187925 0
M  V30 26 H 1.75359 0.912282 -1.2505 0
M  V30 27 H 0.211095 2.55075 0.106641 0
M  V30 28 H 0.675754 1.61607 1.53841 0
M  V30 29 H -1.35949 3.13679 1.2861 0
M  V30 30 H -1.70962 3.43991 -0.428513 0
M  V30 END ATOM
M  V30 BEGIN BOND
M  V30 1 1 1 2
M  V30 2 2 2 3
M  V30 3 1 3 4
M  V30 4 1 4 5
M  V30 5 1 5 6
M  V30 6 1 6 7
M  V30 7 1 7 8
M  V30 8 1 8 9
M  V30 9 1 9 10
M  V30 10 1 10 11
M  V30 11 1 11 12
M  V30 12 2 12 13
M  V30 13 1 12 14
M  V30 14 1 13 2
M  V30 15 2 11 4
M  V30 16 1 1 15
M  V30 17 1 1 16
M  V30 18 1 5 17
M  V30 19 1 5 18
M  V30 20 1 6 19
M  V30 21 1 6 20
M  V30 22 1 7 21
M  V30 23 1 7 22
M  V30 24 1 8 23
M  V30 25 1 8 24
M  V30 26 1 9 25
M  V30 27 1 9 26
M  V30 28 1 10 27
M  V30 29 1 10 28
M  V30 30 1 14 29
M  V30 31 1 14 30
M  V30 END BOND
M  V30 END CTAB
M  END
