
     RDKit          3D

  0  0  0  0  0  0  0  0  0  0999 V3000
M  V30 BEGIN CTAB
M  V30 COUNTS 29 29 0 0 0
M  V30 BEGIN ATOM
M  V30 1 C 4.37254 -1.46227 0.592151 0
M  V30 2 O 3.47961 -0.368901 0.586703 0
M  V30 3 C 2.61565 -0.0543906 -0.461425 0
M  V30 4 O 2.62507 -0.786389 -1.47501 0
M  V30 5 C 1.75387 1.09574 -0.331496 0
M  V30 6 C 0.324538 0.920564 -0.135719 0
M  V30 7 C -0.403182 2.12467 -0.0917274 0
M  V30 8 C -1.77121 2.13316 0.0981979 0
M  V30 9 N -2.49797 3.36335 0.146955 0
M  V30 10 C -2.45508 0.963992 0.249572 0
M  V30 11 C -1.79282 -0.269915 0.216969 0
M  V30 12 C -0.395546 -0.201144 0.0188965 0
M  V30 13 N 0.241825 -1.46167 0.0065801 0
M  V30 14 O -2.44681 -1.37917 0.36453 0
M  V30 15 C -3.20624 -2.41396 0.523488 0
M  V30 16 H 4.03064 -2.33417 0.0161117 0
M  V30 17 H 5.39655 -1.1575 0.236103 0
M  V30 18 H 4.55675 -1.74454 1.67367 0
M  V30 19 H 2.09833 1.78556 0.508397 0
M  V30 20 H 1.85068 1.80396 -1.22992 0
M  V30 21 H 0.0721711 3.07999 -0.209324 0
M  V30 22 H -2.00273 4.15626 0.618253 0
M  V30 23 H -3.43219 3.52692 -0.229181 0
M  V30 24 H -3.51197 0.971804 0.399379 0
M  V30 25 H 0.155426 -2.06379 -0.822966 0
M  V30 26 H 0.785143 -1.76388 0.828147 0
M  V30 27 H -2.68417 -3.30683 1.0296 0
M  V30 28 H -3.58964 -2.92028 -0.433628 0
M  V30 29 H -4.16924 -2.23718 1.11767 0
M  V30 END ATOM
M  V30 BEGIN BOND
M  V30 1 1 1 2
M  V30 2 1 2 3
M  V30 3 2 3 4
M  V30 4 1 3 5
M  V30 5 1 5 6
M  V30 6 2 6 7
M  V30 7 1 7 8
M  V30 8 1 8 9
M  V30 9 2 8 10
M  V30 10 1 10 11
M  V30 11 2 11 12
M  V30 12 1 12 13
M  V30 13 1 11 14
M  V30 14 1 14 15
M  V30 15 1 12 6
M  V30 16 1 1 16
M  V30 17 1 1 17
M  V30 18 1 1 18
M  V30 19 1 5 19
M  V30 20 1 5 20
M  V30 21 1 7 21
M  V30 22 1 9 22
M  V30 23 1 9 23
M  V30 24 1 10 24
M  V30 25 1 13 25
M  V30 26 1 13 26
M  V30 27 1 15 27
M  V30 28 1 15 28
M  V30 29 1 15 29
M  V30 END BOND
M  V30 END CTAB
M  END
