
     RDKit          3D

  0  0  0  0  0  0  0  0  0  0999 V3000
M  V30 BEGIN CTAB
M  V30 COUNTS 54 57 0 0 0
M  V30 BEGIN ATOM
M  V30 1 N 6.72448 2.44102 -1.56284 0
M  V30 2 C 7.41051 1.22414 -1.81036 0
M  V30 3 N 8.48919 1.25045 -2.48128 0
M  V30 4 C 6.86576 -0.0167883 -1.29322 0
M  V30 5 C 5.68638 -0.038953 -0.560637 0
M  V30 6 C 5.14621 -1.19575 -0.0585436 0
M  V30 7 C 5.80097 -2.38524 -0.290693 0
M  V30 8 C 6.97748 -2.42433 -1.01261 0
M  V30 9 C 7.48466 -1.23185 -1.49948 0
M  V30 10 C 3.89336 -1.1768 0.71348 0
M  V30 11 N 3.3067 -2.19539 1.22425 0
M  V30 12 O 2.15362 -1.8598 1.88894 0
M  V30 13 C 2.16551 -0.462782 2.12379 0
M  V30 14 C 3.08957 0.01827 1.03367 0
M  V30 15 C 0.800091 0.133968 1.92424 0
M  V30 16 O 0.673896 1.36366 2.101 0
M  V30 17 N -0.261689 -0.67686 1.55718 0
M  V30 18 C -1.60219 -0.304511 1.32042 0
M  V30 19 C -2.03137 0.983964 1.16945 0
M  V30 20 C -3.39548 1.26031 0.953281 0
M  V30 21 C -4.3446 0.284249 0.882067 0
M  V30 22 C -3.90148 -1.02768 1.03673 0
M  V30 23 C -2.57416 -1.31051 1.24876 0
M  V30 24 C -5.75188 0.465426 0.636015 0
M  V30 25 C -6.24877 0.820455 -0.580773 0
M  V30 26 C -7.63644 1.01085 -0.751737 0
M  V30 27 C -8.50518 0.841974 0.29768 0
M  V30 28 C -7.98089 0.481796 1.51938 0
M  V30 29 C -6.63226 0.289595 1.71621 0
M  V30 30 S -5.20886 1.01702 -1.9545 0
M  V30 31 N -4.29575 -0.412155 -2.27727 0
M  V30 32 O -6.05599 1.23025 -3.21436 0
M  V30 33 O -4.326 2.20006 -1.84626 0
M  V30 34 H 6.28894 2.61114 -0.633569 0
M  V30 35 H 6.63859 3.1808 -2.28472 0
M  V30 36 H 9.10174 0.470803 -2.74687 0
M  V30 37 H 5.18455 0.888394 -0.384982 0
M  V30 38 H 5.3926 -3.30134 0.0949249 0
M  V30 39 H 7.50925 -3.35119 -1.20685 0
M  V30 40 H 8.42365 -1.30712 -2.06926 0
M  V30 41 H 2.55668 -0.177755 3.10954 0
M  V30 42 H 2.53529 0.404955 0.159422 0
M  V30 43 H 3.80735 0.783782 1.43521 0
M  V30 44 H -0.0190647 -1.72608 1.43518 0
M  V30 45 H -1.35663 1.81747 1.19927 0
M  V30 46 H -3.69484 2.29058 0.862713 0
M  V30 47 H -4.59088 -1.86482 0.9944 0
M  V30 48 H -2.2327 -2.334 1.36975 0
M  V30 49 H -7.99152 1.29368 -1.73533 0
M  V30 50 H -9.58836 0.987822 0.175371 0
M  V30 51 H -8.67571 0.351701 2.33711 0
M  V30 52 H -6.21061 0.00628774 2.67314 0
M  V30 53 H -4.01195 -0.405567 -3.28097 0
M  V30 54 H -4.98174 -1.21758 -2.1938 0
M  V30 END ATOM
M  V30 BEGIN BOND
M  V30 1 1 1 2
M  V30 2 2 2 3 CFG=2
M  V30 3 1 2 4
M  V30 4 2 4 5
M  V30 5 1 5 6
M  V30 6 2 6 7
M  V30 7 1 7 8
M  V30 8 2 8 9
M  V30 9 1 6 10
M  V30 10 2 10 11
M  V30 11 1 11 12
M  V30 12 1 12 13
M  V30 13 1 13 14
M  V30 14 1 13 15
M  V30 15 2 15 16
M  V30 16 1 15 17
M  V30 17 1 17 18
M  V30 18 2 18 19
M  V30 19 1 19 20
M  V30 20 2 20 21
M  V30 21 1 21 22
M  V30 22 2 22 23
M  V30 23 1 21 24
M  V30 24 2 24 25
M  V30 25 1 25 26
M  V30 26 2 26 27
M  V30 27 1 27 28
M  V30 28 2 28 29
M  V30 29 1 25 30
M  V30 30 1 30 31
M  V30 31 2 30 32
M  V30 32 2 30 33
M  V30 33 1 9 4
M  V30 34 1 14 10
M  V30 35 1 23 18
M  V30 36 1 29 24
M  V30 37 1 1 34
M  V30 38 1 1 35
M  V30 39 1 3 36
M  V30 40 1 5 37
M  V30 41 1 7 38
M  V30 42 1 8 39
M  V30 43 1 9 40
M  V30 44 1 13 41
M  V30 45 1 14 42
M  V30 46 1 14 43
M  V30 47 1 17 44
M  V30 48 1 19 45
M  V30 49 1 20 46
M  V30 50 1 22 47
M  V30 51 1 23 48
M  V30 52 1 26 49
M  V30 53 1 27 50
M  V30 54 1 28 51
M  V30 55 1 29 52
M  V30 56 1 31 53
M  V30 57 1 31 54
M  V30 END BOND
M  V30 END CTAB
M  END
