
     RDKit          3D

  0  0  0  0  0  0  0  0  0  0999 V3000
M  V30 BEGIN CTAB
M  V30 COUNTS 30 30 0 0 0
M  V30 BEGIN ATOM
M  V30 1 N 3.2412 -0.520951 -1.80727 0
M  V30 2 N 2.05974 -0.27827 -1.10365 0
M  V30 3 C 1.90837 -0.498275 0.146141 0
M  V30 4 N 0.688288 -0.224489 0.764598 0
M  V30 5 C -0.424692 0.398022 0.14095 0
M  V30 6 C -0.525431 1.77157 0.179552 0
M  V30 7 C 0.52708 2.52658 0.864671 0
M  V30 8 C -1.60119 2.43095 -0.41862 0
M  V30 9 C -2.5928 1.69193 -1.06718 0
M  V30 10 C -2.49549 0.322837 -1.10752 0
M  V30 11 C -1.41253 -0.317934 -0.503562 0
M  V30 12 C -1.35536 -1.79771 -0.57342 0
M  V30 13 C -1.76535 -2.35316 0.788281 0
M  V30 14 N 2.98123 -1.01849 0.900912 0
M  V30 15 H 3.76149 0.259597 -2.28957 0
M  V30 16 H 3.66788 -1.47296 -1.89347 0
M  V30 17 H 0.522922 -0.481199 1.78479 0
M  V30 18 H 0.213236 3.59631 0.968557 0
M  V30 19 H 0.759778 2.17436 1.88747 0
M  V30 20 H 1.47961 2.57791 0.264918 0
M  V30 21 H -1.6383 3.51208 -0.362919 0
M  V30 22 H -3.41949 2.23271 -1.52458 0
M  V30 23 H -3.242 -0.278755 -1.59907 0
M  V30 24 H -0.349213 -2.11801 -0.840425 0
M  V30 25 H -2.10656 -2.18635 -1.29129 0
M  V30 26 H -2.45443 -1.61273 1.23151 0
M  V30 27 H -0.878776 -2.56737 1.3973 0
M  V30 28 H -2.38359 -3.28854 0.660708 0
M  V30 29 H 3.00902 -2.01892 1.25842 0
M  V30 30 H 3.82536 -0.460747 1.16333 0
M  V30 END ATOM
M  V30 BEGIN BOND
M  V30 1 1 1 2
M  V30 2 2 2 3 CFG=2
M  V30 3 1 3 4
M  V30 4 1 4 5
M  V30 5 2 5 6
M  V30 6 1 6 7
M  V30 7 1 6 8
M  V30 8 2 8 9
M  V30 9 1 9 10
M  V30 10 2 10 11
M  V30 11 1 11 12
M  V30 12 1 12 13
M  V30 13 1 3 14
M  V30 14 1 11 5
M  V30 15 1 1 15
M  V30 16 1 1 16
M  V30 17 1 4 17
M  V30 18 1 7 18
M  V30 19 1 7 19
M  V30 20 1 7 20
M  V30 21 1 8 21
M  V30 22 1 9 22
M  V30 23 1 10 23
M  V30 24 1 12 24
M  V30 25 1 12 25
M  V30 26 1 13 26
M  V30 27 1 13 27
M  V30 28 1 13 28
M  V30 29 1 14 29
M  V30 30 1 14 30
M  V30 END BOND
M  V30 END CTAB
M  END
