
     RDKit          3D

  0  0  0  0  0  0  0  0  0  0999 V3000
M  V30 BEGIN CTAB
M  V30 COUNTS 48 51 0 0 0
M  V30 BEGIN ATOM
M  V30 1 N -5.72328 2.94304 -2.04519 0
M  V30 2 C -6.05639 1.89819 -1.11219 0
M  V30 3 C -5.0403 1.89715 0.0372544 0
M  V30 4 C -4.15742 1.03651 -0.855623 0
M  V30 5 C -5.43567 0.586246 -1.5563 0
M  V30 6 C -3.42775 -0.0386266 -0.158603 0
M  V30 7 N -4.0295 -0.91154 0.666192 0
M  V30 8 C -3.29809 -1.88091 1.27873 0
M  V30 9 N -3.90982 -2.81786 2.15664 0
M  V30 10 N -1.97488 -1.97801 1.06913 0
M  V30 11 C -1.30364 -1.12392 0.244253 0
M  V30 12 C -2.07051 -0.156577 -0.358989 0
M  V30 13 N 0.0939045 -1.22516 0.0218739 0
M  V30 14 C 0.712259 -0.282385 -0.862155 0
M  V30 15 C 2.20085 -0.54813 -0.973285 0
M  V30 16 C 2.65939 -1.41531 -1.93638 0
M  V30 17 S 4.34908 -1.37238 -1.65553 0
M  V30 18 C 4.35676 -0.260147 -0.339117 0
M  V30 19 N 3.07296 0.00555132 -0.199697 0
M  V30 20 C 5.50477 0.250281 0.42082 0
M  V30 21 C 5.3291 1.13037 1.43767 0
M  V30 22 C 6.43433 1.61101 2.15653 0
M  V30 23 C 7.71024 1.19294 1.83586 0
M  V30 24 C 7.88473 0.295136 0.79789 0
M  V30 25 C 6.76572 -0.172263 0.0928064 0
M  V30 26 C 0.805251 -2.28205 0.708512 0
M  V30 27 H -5.15817 2.59375 -2.84969 0
M  V30 28 H -5.14331 3.70581 -1.59645 0
M  V30 29 H -7.09698 1.83633 -0.781403 0
M  V30 30 H -5.45014 1.3336 0.877845 0
M  V30 31 H -4.64562 2.90731 0.242472 0
M  V30 32 H -3.55645 1.68154 -1.49885 0
M  V30 33 H -5.92381 -0.265113 -1.05363 0
M  V30 34 H -5.32374 0.494373 -2.66263 0
M  V30 35 H -4.87492 -3.17609 1.98661 0
M  V30 36 H -3.41683 -3.18065 3.00134 0
M  V30 37 H -1.59263 0.546352 -1.02172 0
M  V30 38 H 0.577605 0.761058 -0.516205 0
M  V30 39 H 0.246594 -0.319394 -1.86845 0
M  V30 40 H 2.07079 -1.97859 -2.68268 0
M  V30 41 H 4.32295 1.4562 1.686 0
M  V30 42 H 6.28552 2.30137 2.95267 0
M  V30 43 H 8.54416 1.57415 2.40019 0
M  V30 44 H 8.8649 -0.0595804 0.511866 0
M  V30 45 H 6.86313 -0.8744 -0.724251 0
M  V30 46 H 0.75502 -3.25052 0.173275 0
M  V30 47 H 1.8755 -2.04888 0.854567 0
M  V30 48 H 0.324344 -2.41979 1.69801 0
M  V30 END ATOM
M  V30 BEGIN BOND
M  V30 1 1 1 2
M  V30 2 1 2 3
M  V30 3 1 3 4
M  V30 4 1 4 5
M  V30 5 1 4 6
M  V30 6 2 6 7
M  V30 7 1 7 8
M  V30 8 1 8 9
M  V30 9 2 8 10
M  V30 10 1 10 11
M  V30 11 2 11 12
M  V30 12 1 11 13
M  V30 13 1 13 14
M  V30 14 1 14 15
M  V30 15 2 15 16
M  V30 16 1 16 17
M  V30 17 1 17 18
M  V30 18 2 18 19
M  V30 19 1 18 20
M  V30 20 2 20 21
M  V30 21 1 21 22
M  V30 22 2 22 23
M  V30 23 1 23 24
M  V30 24 2 24 25
M  V30 25 1 13 26
M  V30 26 1 5 2
M  V30 27 1 12 6
M  V30 28 1 19 15
M  V30 29 1 25 20
M  V30 30 1 1 27
M  V30 31 1 1 28
M  V30 32 1 2 29
M  V30 33 1 3 30
M  V30 34 1 3 31
M  V30 35 1 4 32
M  V30 36 1 5 33
M  V30 37 1 5 34
M  V30 38 1 9 35
M  V30 39 1 9 36
M  V30 40 1 12 37
M  V30 41 1 14 38
M  V30 42 1 14 39
M  V30 43 1 16 40
M  V30 44 1 21 41
M  V30 45 1 22 42
M  V30 46 1 23 43
M  V30 47 1 24 44
M  V30 48 1 25 45
M  V30 49 1 26 46
M  V30 50 1 26 47
M  V30 51 1 26 48
M  V30 END BOND
M  V30 END CTAB
M  END
