
     RDKit          3D

  0  0  0  0  0  0  0  0  0  0999 V3000
M  V30 BEGIN CTAB
M  V30 COUNTS 43 46 0 0 0
M  V30 BEGIN ATOM
M  V30 1 Cl -6.45632 -3.59112 1.48116 0
M  V30 2 C -4.9746 -2.84969 0.880294 0
M  V30 3 C -4.69598 -1.54304 1.1691 0
M  V30 4 C -3.51777 -0.959253 0.689454 0
M  V30 5 C -2.6162 -1.63102 -0.0632281 0
M  V30 6 C -2.91771 -2.95578 -0.34449 0
M  V30 7 C -4.07199 -3.55008 0.117957 0
M  V30 8 Cl -1.81192 -3.91082 -1.31355 0
M  V30 9 C -1.40311 -1.06201 -0.608087 0
M  V30 10 N -0.42922 -1.83657 -1.21779 0
M  V30 11 N 0.554893 -1.1336 -1.65152 0
M  V30 12 C 0.286518 0.138121 -1.35394 0
M  V30 13 N -0.92511 0.165709 -0.710895 0
M  V30 14 C -1.48142 1.39086 -0.290302 0
M  V30 15 C -2.40859 2.01308 -1.0946 0
M  V30 16 C -2.91721 3.22978 -0.692013 0
M  V30 17 C -2.52608 3.8403 0.488786 0
M  V30 18 C -1.59815 3.21714 1.29327 0
M  V30 19 C -1.10054 2.00462 0.878047 0
M  V30 20 Cl -1.05717 3.93959 2.80954 0
M  V30 21 F -3.0102 5.02844 0.901058 0
M  V30 22 S 1.36201 1.49955 -1.75642 0
M  V30 23 C 2.56138 1.85933 -0.481785 0
M  V30 24 C 3.5641 0.777609 -0.284142 0
M  V30 25 N 3.3337 -0.217387 0.59721 0
M  V30 26 C 4.20287 -1.22022 0.818129 0
M  V30 27 N 3.98067 -2.27136 1.73666 0
M  V30 28 N 5.35271 -1.20177 0.107705 0
M  V30 29 C 5.61408 -0.225394 -0.778597 0
M  V30 30 N 4.70729 0.770648 -0.971696 0
M  V30 31 N 6.82183 -0.1879 -1.5379 0
M  V30 32 H -5.38048 -0.969334 1.76181 0
M  V30 33 H -3.37599 0.0465008 0.970943 0
M  V30 34 H -4.28147 -4.5786 -0.115933 0
M  V30 35 H -2.74579 1.56128 -2.041 0
M  V30 36 H -3.6492 3.73479 -1.31362 0
M  V30 37 H -0.365343 1.53036 1.53419 0
M  V30 38 H 3.01122 2.84024 -0.666748 0
M  V30 39 H 2.02486 1.94939 0.506562 0
M  V30 40 H 3.7939 -2.05463 2.73139 0
M  V30 41 H 4.00054 -3.26037 1.43415 0
M  V30 42 H 6.98166 -0.810359 -2.35392 0
M  V30 43 H 7.56336 0.482974 -1.26525 0
M  V30 END ATOM
M  V30 BEGIN BOND
M  V30 1 1 1 2
M  V30 2 2 2 3
M  V30 3 1 3 4
M  V30 4 2 4 5
M  V30 5 1 5 6
M  V30 6 2 6 7
M  V30 7 1 6 8
M  V30 8 1 5 9
M  V30 9 2 9 10
M  V30 10 1 10 11
M  V30 11 2 11 12
M  V30 12 1 12 13
M  V30 13 1 13 14
M  V30 14 2 14 15
M  V30 15 1 15 16
M  V30 16 2 16 17
M  V30 17 1 17 18
M  V30 18 2 18 19
M  V30 19 1 18 20
M  V30 20 1 17 21
M  V30 21 1 12 22
M  V30 22 1 22 23
M  V30 23 1 23 24
M  V30 24 2 24 25
M  V30 25 1 25 26
M  V30 26 1 26 27
M  V30 27 2 26 28
M  V30 28 1 28 29
M  V30 29 2 29 30
M  V30 30 1 29 31
M  V30 31 1 7 2
M  V30 32 1 13 9
M  V30 33 1 19 14
M  V30 34 1 30 24
M  V30 35 1 3 32
M  V30 36 1 4 33
M  V30 37 1 7 34
M  V30 38 1 15 35
M  V30 39 1 16 36
M  V30 40 1 19 37
M  V30 41 1 23 38
M  V30 42 1 23 39
M  V30 43 1 27 40
M  V30 44 1 27 41
M  V30 45 1 31 42
M  V30 46 1 31 43
M  V30 END BOND
M  V30 END CTAB
M  END
