
     RDKit          3D

  0  0  0  0  0  0  0  0  0  0999 V3000
M  V30 BEGIN CTAB
M  V30 COUNTS 21 21 0 0 0
M  V30 BEGIN ATOM
M  V30 1 N -2.31602 -1.80126 -0.544113 0
M  V30 2 C -1.11584 -1.10149 -0.348409 0
M  V30 3 N 0.10123 -1.61056 -0.570492 0
M  V30 4 C 1.22631 -0.905712 -0.370175 0
M  V30 5 N 2.51541 -1.49038 -0.621081 0
M  V30 6 C 1.15209 0.3954 0.0816315 0
M  V30 7 C -0.0747074 0.954435 0.321326 0
M  V30 8 C -1.19642 0.207936 0.106508 0
M  V30 9 S -2.76599 0.926828 0.414449 0
M  V30 10 Cl -2.54939 2.84525 1.06822 0
M  V30 11 O -3.67366 0.82428 -0.767245 0
M  V30 12 O -3.39967 0.121272 1.53925 0
M  V30 13 S 2.65356 1.2668 0.325068 0
M  V30 14 Cl 2.31669 3.16961 0.994459 0
M  V30 15 O 3.45596 0.456506 1.32529 0
M  V30 16 O 3.39198 1.26545 -0.984278 0
M  V30 17 H -2.77711 -1.80887 -1.46788 0
M  V30 18 H -2.74715 -2.31577 0.240402 0
M  V30 19 H 2.85213 -1.52891 -1.60713 0
M  V30 20 H 3.06365 -1.85251 0.186938 0
M  V30 21 H -0.113045 1.9817 0.677263 0
M  V30 END ATOM
M  V30 BEGIN BOND
M  V30 1 1 1 2
M  V30 2 2 2 3
M  V30 3 1 3 4
M  V30 4 1 4 5
M  V30 5 2 4 6
M  V30 6 1 6 7
M  V30 7 2 7 8
M  V30 8 1 8 9
M  V30 9 1 9 10
M  V30 10 2 9 11
M  V30 11 2 9 12
M  V30 12 1 6 13
M  V30 13 1 13 14
M  V30 14 2 13 15
M  V30 15 2 13 16
M  V30 16 1 8 2
M  V30 17 1 1 17
M  V30 18 1 1 18
M  V30 19 1 5 19
M  V30 20 1 5 20
M  V30 21 1 7 21
M  V30 END BOND
M  V30 END CTAB
M  END
