
     RDKit          3D

  0  0  0  0  0  0  0  0  0  0999 V3000
M  V30 BEGIN CTAB
M  V30 COUNTS 25 25 0 0 0
M  V30 BEGIN ATOM
M  V30 1 C -2.36523 1.06522 -0.919268 0
M  V30 2 C -1.93833 -0.345674 -0.493887 0
M  V30 3 C -2.75647 -0.704863 0.706144 0
M  V30 4 C -0.493618 -0.346382 -0.274815 0
M  V30 5 C 0.047933 0.414594 0.741831 0
M  V30 6 C 1.41694 0.439995 0.981417 0
M  V30 7 N 1.98331 1.21516 2.01941 0
M  V30 8 C 2.29919 -0.303551 0.202896 0
M  V30 9 N 3.68576 -0.264364 0.462017 0
M  V30 10 C 1.7539 -1.06137 -0.810434 0
M  V30 11 C 0.402307 -1.07975 -1.03876 0
M  V30 12 H -3.36337 0.972689 -1.40348 0
M  V30 13 H -1.66436 1.45884 -1.67706 0
M  V30 14 H -2.4339 1.72235 -0.0179989 0
M  V30 15 H -2.20225 -1.00678 -1.34547 0
M  V30 16 H -2.36307 -1.52303 1.30644 0
M  V30 17 H -3.76552 -1.02442 0.337538 0
M  V30 18 H -2.87838 0.174567 1.36378 0
M  V30 19 H -0.576767 1.01532 1.38421 0
M  V30 20 H 1.98342 0.848137 2.98335 0
M  V30 21 H 2.39142 2.14012 1.80566 0
M  V30 22 H 4.00274 0.0445479 1.40298 0
M  V30 23 H 4.37487 -0.536967 -0.2678 0
M  V30 24 H 2.45968 -1.63964 -1.41289 0
M  V30 25 H -0.000217877 -1.67475 -1.83042 0
M  V30 END ATOM
M  V30 BEGIN BOND
M  V30 1 1 1 2
M  V30 2 1 2 3
M  V30 3 1 2 4
M  V30 4 2 4 5
M  V30 5 1 5 6
M  V30 6 1 6 7
M  V30 7 2 6 8
M  V30 8 1 8 9
M  V30 9 1 8 10
M  V30 10 2 10 11
M  V30 11 1 11 4
M  V30 12 1 1 12
M  V30 13 1 1 13
M  V30 14 1 1 14
M  V30 15 1 2 15
M  V30 16 1 3 16
M  V30 17 1 3 17
M  V30 18 1 3 18
M  V30 19 1 5 19
M  V30 20 1 7 20
M  V30 21 1 7 21
M  V30 22 1 9 22
M  V30 23 1 9 23
M  V30 24 1 10 24
M  V30 25 1 11 25
M  V30 END BOND
M  V30 END CTAB
M  END
