
     RDKit          3D

  0  0  0  0  0  0  0  0  0  0999 V3000
M  V30 BEGIN CTAB
M  V30 COUNTS 26 26 0 0 0
M  V30 BEGIN ATOM
M  V30 1 N -3.35582 -0.166777 0.810809 0
M  V30 2 C -2.22231 -1.00013 0.470842 0
M  V30 3 C -0.994379 -0.181682 0.137613 0
M  V30 4 C 0.104903 -1.16837 -0.195686 0
M  V30 5 C 1.37459 -0.531292 -0.544502 0
M  V30 6 O 1.76796 -0.170291 -1.73322 0
M  V30 7 N 2.95121 0.362805 -1.658 0
M  V30 8 C 3.36611 0.358622 -0.369498 0
M  V30 9 N 2.35654 -0.209389 0.313715 0
M  V30 10 N 4.60112 0.850549 0.135013 0
M  V30 11 C -1.31428 0.622487 -1.10842 0
M  V30 12 C -0.6136 0.757394 1.24597 0
M  V30 13 H -4.19321 -0.804081 0.843809 0
M  V30 14 H -3.54407 0.533345 0.0834404 0
M  V30 15 H -2.47021 -1.5805 -0.448952 0
M  V30 16 H -1.99635 -1.71075 1.26671 0
M  V30 17 H 0.193903 -1.83693 0.708104 0
M  V30 18 H -0.264742 -1.78279 -1.04535 0
M  V30 19 H 4.90459 1.81763 -0.101515 0
M  V30 20 H 5.19081 0.238694 0.736634 0
M  V30 21 H -1.89051 1.52231 -0.776892 0
M  V30 22 H -0.376833 1.03539 -1.56227 0
M  V30 23 H -1.8841 0.00225138 -1.81584 0
M  V30 24 H -1.48968 0.778859 1.95805 0
M  V30 25 H -0.510041 1.81572 0.888373 0
M  V30 26 H 0.308396 0.446917 1.76108 0
M  V30 END ATOM
M  V30 BEGIN BOND
M  V30 1 1 1 2
M  V30 2 1 2 3
M  V30 3 1 3 4
M  V30 4 1 4 5
M  V30 5 1 5 6
M  V30 6 1 6 7
M  V30 7 2 7 8
M  V30 8 1 8 9
M  V30 9 1 8 10
M  V30 10 1 3 11
M  V30 11 1 3 12
M  V30 12 2 9 5
M  V30 13 1 1 13
M  V30 14 1 1 14
M  V30 15 1 2 15
M  V30 16 1 2 16
M  V30 17 1 4 17
M  V30 18 1 4 18
M  V30 19 1 10 19
M  V30 20 1 10 20
M  V30 21 1 11 21
M  V30 22 1 11 22
M  V30 23 1 11 23
M  V30 24 1 12 24
M  V30 25 1 12 25
M  V30 26 1 12 26
M  V30 END BOND
M  V30 END CTAB
M  END
