
     RDKit          3D

  0  0  0  0  0  0  0  0  0  0999 V3000
M  V30 BEGIN CTAB
M  V30 COUNTS 22 22 0 0 0
M  V30 BEGIN ATOM
M  V30 1 N -3.17865 -0.368208 -0.501384 0
M  V30 2 C -1.73233 -0.492394 -0.625482 0
M  V30 3 C -0.984326 0.124794 0.538456 0
M  V30 4 C 0.451785 -0.0458086 0.209642 0
M  V30 5 C 1.19531 1.06243 -0.205187 0
M  V30 6 F 0.515497 2.21441 -0.391846 0
M  V30 7 C 2.54282 0.999596 -0.459474 0
M  V30 8 C 3.18646 -0.210556 -0.295858 0
M  V30 9 C 2.50212 -1.34619 0.111434 0
M  V30 10 C 1.14302 -1.20351 0.349876 0
M  V30 11 Cl 0.29517 -2.64288 0.939473 0
M  V30 12 N -1.42281 1.32958 1.07251 0
M  V30 13 H -3.52792 0.036022 -1.44884 0
M  V30 14 H -3.40963 0.350298 0.238656 0
M  V30 15 H -1.48183 -1.55212 -0.690679 0
M  V30 16 H -1.38956 -0.000232437 -1.57974 0
M  V30 17 H -1.13787 -0.703603 1.36949 0
M  V30 18 H 3.0735 1.87228 -0.806802 0
M  V30 19 H 4.251 -0.2858 -0.474456 0
M  V30 20 H 3.00584 -2.33234 0.229666 0
M  V30 21 H -1.84877 2.05328 0.502694 0
M  V30 22 H -2.04884 1.14096 1.91786 0
M  V30 END ATOM
M  V30 BEGIN BOND
M  V30 1 1 1 2
M  V30 2 1 2 3
M  V30 3 1 3 4
M  V30 4 2 4 5
M  V30 5 1 5 6
M  V30 6 1 5 7
M  V30 7 2 7 8
M  V30 8 1 8 9
M  V30 9 2 9 10
M  V30 10 1 10 11
M  V30 11 1 3 12
M  V30 12 1 10 4
M  V30 13 1 1 13
M  V30 14 1 1 14
M  V30 15 1 2 15
M  V30 16 1 2 16
M  V30 17 1 3 17
M  V30 18 1 7 18
M  V30 19 1 8 19
M  V30 20 1 9 20
M  V30 21 1 12 21
M  V30 22 1 12 22
M  V30 END BOND
M  V30 END CTAB
M  END
