
     RDKit          3D

  0  0  0  0  0  0  0  0  0  0999 V3000
M  V30 BEGIN CTAB
M  V30 COUNTS 31 31 0 0 0
M  V30 BEGIN ATOM
M  V30 1 N -2.2332 0.359106 1.64787 0
M  V30 2 C -2.47838 0.267522 0.24352 0
M  V30 3 C -1.21225 0.0461893 -0.569865 0
M  V30 4 N -1.62144 -0.0245209 -1.9593 0
M  V30 5 C -0.107848 0.841367 -0.215329 0
M  V30 6 C 0.773928 1.91709 -0.0428844 0
M  V30 7 C 2.07587 1.26658 0.532458 0
M  V30 8 C 2.42257 -0.0577189 -0.00269211 0
M  V30 9 C 1.73118 -1.3148 0.456618 0
M  V30 10 C 0.625482 -1.75344 -0.516034 0
M  V30 11 C -0.772664 -1.41213 -0.205558 0
M  V30 12 H -3.13114 0.244808 2.14704 0
M  V30 13 H -1.66024 1.15863 1.93714 0
M  V30 14 H -3.13165 -0.621739 0.069163 0
M  V30 15 H -3.04109 1.15326 -0.103546 0
M  V30 16 H -2.54193 -0.521045 -2.00652 0
M  V30 17 H -1.69598 0.936923 -2.38164 0
M  V30 18 H 0.532984 0.373767 -1.01032 0
M  V30 19 H -0.0610487 0.489702 0.859854 0
M  V30 20 H 1.12992 2.53293 -0.906098 0
M  V30 21 H 0.478345 2.669 0.728728 0
M  V30 22 H 1.89723 1.17045 1.61911 0
M  V30 23 H 2.88956 1.9613 0.381028 0
M  V30 24 H 3.52002 -0.184169 0.276609 0
M  V30 25 H 2.48993 -0.10641 -1.13046 0
M  V30 26 H 1.39259 -1.30054 1.48899 0
M  V30 27 H 2.48827 -2.13967 0.405192 0
M  V30 28 H 0.628515 -2.89256 -0.540169 0
M  V30 29 H 0.963713 -1.51688 -1.55747 0
M  V30 30 H -1.48261 -2.13603 -0.567559 0
M  V30 31 H -0.868648 -1.40696 0.922112 0
M  V30 END ATOM
M  V30 BEGIN BOND
M  V30 1 1 1 2
M  V30 2 1 2 3
M  V30 3 1 3 4
M  V30 4 1 3 5
M  V30 5 1 5 6
M  V30 6 1 6 7
M  V30 7 1 7 8
M  V30 8 1 8 9
M  V30 9 1 9 10
M  V30 10 1 10 11
M  V30 11 1 11 3
M  V30 12 1 1 12
M  V30 13 1 1 13
M  V30 14 1 2 14
M  V30 15 1 2 15
M  V30 16 1 4 16
M  V30 17 1 4 17
M  V30 18 1 5 18
M  V30 19 1 5 19
M  V30 20 1 6 20
M  V30 21 1 6 21
M  V30 22 1 7 22
M  V30 23 1 7 23
M  V30 24 1 8 24
M  V30 25 1 8 25
M  V30 26 1 9 26
M  V30 27 1 9 27
M  V30 28 1 10 28
M  V30 29 1 10 29
M  V30 30 1 11 30
M  V30 31 1 11 31
M  V30 END BOND
M  V30 END CTAB
M  END
