
     RDKit          3D

  0  0  0  0  0  0  0  0  0  0999 V3000
M  V30 BEGIN CTAB
M  V30 COUNTS 25 26 0 0 0
M  V30 BEGIN ATOM
M  V30 1 N -1.34488 -0.939909 0.761139 0
M  V30 2 N -1.83736 0.0395456 -0.109628 0
M  V30 3 C -1.07058 0.765806 -0.914292 0
M  V30 4 C 0.388049 0.735845 -1.0904 0
M  V30 5 C 1.09876 0.97479 0.217876 0
M  V30 6 N 1.78505 -0.183655 0.711254 0
M  V30 7 C 2.98548 -0.504927 -0.0179911 0
M  V30 8 C 2.70989 -0.994268 -1.41286 0
M  V30 9 S 0.914019 -0.91233 -1.67686 0
M  V30 10 N -1.89108 1.58933 -1.58935 0
M  V30 11 N -3.14604 1.36233 -1.19523 0
M  V30 12 C -3.14569 0.392911 -0.264977 0
M  V30 13 N -4.23203 -0.189726 0.446733 0
M  V30 14 H -1.35563 -0.752356 1.79219 0
M  V30 15 H -0.972251 -1.84259 0.399025 0
M  V30 16 H 0.753263 1.45947 -1.83621 0
M  V30 17 H 1.77833 1.86533 0.164551 0
M  V30 18 H 0.329995 1.25075 0.98168 0
M  V30 19 H 2.07209 0.0199804 1.69741 0
M  V30 20 H 3.48864 -1.3332 0.52872 0
M  V30 21 H 3.71755 0.351514 -0.0178236 0
M  V30 22 H 3.17042 -0.327101 -2.1768 0
M  V30 23 H 3.05331 -2.03292 -1.59207 0
M  V30 24 H -4.17154 -0.318394 1.48099 0
M  V30 25 H -5.07778 -0.476221 -0.112972 0
M  V30 END ATOM
M  V30 BEGIN BOND
M  V30 1 1 1 2
M  V30 2 1 2 3
M  V30 3 1 3 4
M  V30 4 1 4 5
M  V30 5 1 5 6
M  V30 6 1 6 7
M  V30 7 1 7 8
M  V30 8 1 8 9
M  V30 9 2 3 10
M  V30 10 1 10 11
M  V30 11 2 11 12
M  V30 12 1 12 13
M  V30 13 1 12 2
M  V30 14 1 9 4
M  V30 15 1 1 14
M  V30 16 1 1 15
M  V30 17 1 4 16
M  V30 18 1 5 17
M  V30 19 1 5 18
M  V30 20 1 6 19
M  V30 21 1 7 20
M  V30 22 1 7 21
M  V30 23 1 8 22
M  V30 24 1 8 23
M  V30 25 1 13 24
M  V30 26 1 13 25
M  V30 END BOND
M  V30 END CTAB
M  END
