
     RDKit          3D

  0  0  0  0  0  0  0  0  0  0999 V3000
M  V30 BEGIN CTAB
M  V30 COUNTS 38 40 0 0 0
M  V30 BEGIN ATOM
M  V30 1 C -4.31525 -2.54368 0.875682 0
M  V30 2 C -4.36638 -1.34894 -0.0324554 0
M  V30 3 C -5.33108 -1.30376 -1.01365 0
M  V30 4 C -5.38952 -0.206339 -1.859 0
M  V30 5 C -4.49884 0.823873 -1.7232 0
M  V30 6 C -3.49348 0.812055 -0.726282 0
M  V30 7 C -3.48843 -0.311418 0.0854818 0
M  V30 8 O -2.69328 1.8239 -0.666169 0
M  V30 9 C -1.89508 2.83301 -0.606051 0
M  V30 10 C -0.425531 2.40132 -0.833447 0
M  V30 11 S -0.0268665 1.22088 0.478268 0
M  V30 12 C 1.65051 0.626067 0.333079 0
M  V30 13 N 2.10356 -0.436176 -0.348309 0
M  V30 14 C 3.41831 -0.513335 -0.187491 0
M  V30 15 C 3.80076 0.538786 0.623646 0
M  V30 16 N 2.69636 1.22164 0.928286 0
M  V30 17 N 5.12346 0.658652 0.925803 0
M  V30 18 C 6.05119 -0.200294 0.467208 0
M  V30 19 N 5.65965 -1.21914 -0.321523 0
M  V30 20 C 4.37535 -1.41291 -0.670318 0
M  V30 21 N 3.95714 -2.4866 -1.50368 0
M  V30 22 N 7.44313 -0.0446752 0.805803 0
M  V30 23 H -3.67061 -3.30461 0.367886 0
M  V30 24 H -5.32842 -2.9775 0.942224 0
M  V30 25 H -3.95691 -2.2783 1.87349 0
M  V30 26 H -6.05109 -2.09505 -1.15351 0
M  V30 27 H -6.14339 -0.134867 -2.65196 0
M  V30 28 H -4.57536 1.66333 -2.40168 0
M  V30 29 H -2.75227 -0.372467 0.857059 0
M  V30 30 H -1.86601 3.45991 0.334927 0
M  V30 31 H -2.09915 3.64572 -1.39386 0
M  V30 32 H 0.179612 3.32241 -0.755326 0
M  V30 33 H -0.32055 1.87537 -1.79692 0
M  V30 34 H 2.71434 2.07246 1.53668 0
M  V30 35 H 4.47617 -3.39767 -1.39911 0
M  V30 36 H 3.18884 -2.43189 -2.19508 0
M  V30 37 H 8.07607 -0.841249 0.64449 0
M  V30 38 H 7.77304 0.861497 1.20178 0
M  V30 END ATOM
M  V30 BEGIN BOND
M  V30 1 1 1 2
M  V30 2 2 2 3
M  V30 3 1 3 4
M  V30 4 2 4 5
M  V30 5 1 5 6
M  V30 6 2 6 7
M  V30 7 1 6 8
M  V30 8 1 8 9
M  V30 9 1 9 10
M  V30 10 1 10 11
M  V30 11 1 11 12
M  V30 12 2 12 13
M  V30 13 1 13 14
M  V30 14 2 14 15
M  V30 15 1 15 16
M  V30 16 1 15 17
M  V30 17 2 17 18
M  V30 18 1 18 19
M  V30 19 2 19 20
M  V30 20 1 20 21
M  V30 21 1 18 22
M  V30 22 1 7 2
M  V30 23 1 16 12
M  V30 24 1 20 14
M  V30 25 1 1 23
M  V30 26 1 1 24
M  V30 27 1 1 25
M  V30 28 1 3 26
M  V30 29 1 4 27
M  V30 30 1 5 28
M  V30 31 1 7 29
M  V30 32 1 9 30
M  V30 33 1 9 31
M  V30 34 1 10 32
M  V30 35 1 10 33
M  V30 36 1 16 34
M  V30 37 1 21 35
M  V30 38 1 21 36
M  V30 39 1 22 37
M  V30 40 1 22 38
M  V30 END BOND
M  V30 END CTAB
M  END
