
     RDKit          3D

  0  0  0  0  0  0  0  0  0  0999 V3000
M  V30 BEGIN CTAB
M  V30 COUNTS 100 101 0 0 0
M  V30 BEGIN ATOM
M  V30 1 C -6.06696 1.30473 4.53404 0
M  V30 2 C -6.17056 0.957861 3.07962 0
M  V30 3 C -7.59277 0.450322 2.83165 0
M  V30 4 C -5.17602 -0.129498 2.64754 0 CFG=2
M  V30 5 N -5.37343 -0.363178 1.25142 0
M  V30 6 C -4.34373 -0.462839 0.271658 0
M  V30 7 O -3.15764 -0.382022 0.768186 0
M  V30 8 C -4.55184 -0.626714 -1.15752 0 CFG=2
M  V30 9 C -5.57038 -1.54058 -1.6788 0
M  V30 10 C -5.47029 -2.96942 -1.37371 0
M  V30 11 C -4.77063 -3.85197 -2.21897 0
M  V30 12 C -4.66751 -5.19024 -1.94802 0
M  V30 13 C -5.24889 -5.74515 -0.824475 0
M  V30 14 C -5.9405 -4.90091 0.0174539 0
M  V30 15 C -6.03044 -3.56196 -0.277339 0
M  V30 16 N -3.24017 -0.756359 -1.8274 0
M  V30 17 C -2.37529 0.322532 -2.03743 0
M  V30 18 O -2.81274 1.45105 -1.55591 0
M  V30 19 C -1.08855 0.3908 -2.69708 0 CFG=1
M  V30 20 N -0.490937 1.71864 -2.46977 0
M  V30 21 C 0.567883 2.02826 -1.60842 0
M  V30 22 O 1.12891 1.1573 -0.918923 0
M  V30 23 C 1.05471 3.43007 -1.49687 0
M  V30 24 N 2.19865 3.46016 -0.613961 0
M  V30 25 C 3.39606 2.80766 -0.927758 0
M  V30 26 O 3.46704 2.15907 -2.02723 0
M  V30 27 C 4.58117 2.8114 -0.0784649 0 CFG=2
M  V30 28 C 5.36561 4.11378 -0.285314 0
M  V30 29 C 4.60283 5.30872 0.0343147 0
M  V30 30 C 3.88125 6.1406 -0.777612 0
M  V30 31 N 3.34489 7.11085 0.00476241 0
M  V30 32 C 3.72503 6.89112 1.29472 0
M  V30 33 N 4.4808 5.80099 1.28317 0
M  V30 34 N 5.4918 1.71953 -0.480836 0
M  V30 35 C 6.22465 0.925997 0.416308 0
M  V30 36 O 6.13695 1.13543 1.6493 0
M  V30 37 C 7.1177 -0.178477 -0.0365286 0 CFG=1
M  V30 38 N 7.99719 -0.634074 0.992823 0
M  V30 39 C 6.36154 -1.27277 -0.705563 0
M  V30 40 C 5.31423 -1.96526 0.0875781 0
M  V30 41 C 5.79531 -2.66169 1.33121 0
M  V30 42 C 4.58672 -3.35526 1.99319 0
M  V30 43 N 5.12365 -4.00532 3.17927 0
M  V30 44 C -0.140162 -0.745584 -2.56834 0
M  V30 45 C 1.11267 -0.426417 -3.41486 0
M  V30 46 C -0.644845 -2.06187 -3.11978 0
M  V30 47 C -5.29895 -1.30082 3.51103 0
M  V30 48 O -5.07265 -1.20724 4.89944 0
M  V30 49 O -5.60306 -2.42687 3.07139 0
M  V30 50 H -6.54639 2.30468 4.68212 0
M  V30 51 H -5.02687 1.41812 4.85243 0
M  V30 52 H -6.67251 0.623123 5.19083 0
M  V30 53 H -6.03877 1.87594 2.48369 0
M  V30 54 H -7.59064 -0.649766 2.63257 0
M  V30 55 H -7.96322 0.93858 1.92489 0
M  V30 56 H -8.27438 0.704621 3.66545 0
M  V30 57 H -4.14711 0.278 2.81439 0
M  V30 58 H -6.34737 -0.478099 0.864878 0
M  V30 59 H -4.82737 0.465345 -1.47887 0
M  V30 60 H -6.58403 -1.12689 -1.36466 0
M  V30 61 H -5.66023 -1.46521 -2.81996 0
M  V30 62 H -4.3329 -3.39517 -3.10411 0
M  V30 63 H -4.12731 -5.83596 -2.61206 0
M  V30 64 H -5.15181 -6.80981 -0.630458 0
M  V30 65 H -6.39163 -5.33101 0.895236 0
M  V30 66 H -6.60752 -2.97296 0.443356 0
M  V30 67 H -3.02001 -1.71775 -2.12781 0
M  V30 68 H -1.28706 0.431686 -3.83967 0
M  V30 69 H -0.896612 2.55261 -3.0123 0
M  V30 70 H 0.255697 4.08801 -1.05117 0
M  V30 71 H 1.2932 3.86153 -2.49406 0
M  V30 72 H 2.11133 3.96386 0.292245 0
M  V30 73 H 4.3601 2.68319 0.979114 0
M  V30 74 H 6.33108 4.06202 0.292644 0
M  V30 75 H 5.66053 4.1886 -1.37282 0
M  V30 76 H 3.76235 6.03516 -1.85827 0
M  V30 77 H 2.74869 7.89798 -0.292247 0
M  V30 78 H 3.43243 7.52005 2.12413 0
M  V30 79 H 5.58507 1.5415 -1.49491 0
M  V30 80 H 7.75224 0.293922 -0.847457 0
M  V30 81 H 8.10252 0.0405825 1.76082 0
M  V30 82 H 8.922 -0.916459 0.573332 0
M  V30 83 H 5.9405 -0.870211 -1.66083 0
M  V30 84 H 7.11555 -2.03282 -1.04913 0
M  V30 85 H 4.84552 -2.73675 -0.561386 0
M  V30 86 H 4.46697 -1.28869 0.367509 0
M  V30 87 H 6.23609 -1.96376 2.08491 0
M  V30 88 H 6.54503 -3.45452 1.16134 0
M  V30 89 H 3.82871 -2.60839 2.25027 0
M  V30 90 H 4.15186 -4.10455 1.31789 0
M  V30 91 H 5.3016 -3.28296 3.91834 0
M  V30 92 H 5.97342 -4.53257 2.94143 0
M  V30 93 H 0.201178 -0.95809 -1.54233 0
M  V30 94 H 2.04078 -0.664351 -2.89713 0
M  V30 95 H 1.11434 -1.03948 -4.35658 0
M  V30 96 H 1.07098 0.620511 -3.75388 0
M  V30 97 H -1.44553 -1.96379 -3.8576 0
M  V30 98 H 0.200587 -2.54695 -3.6656 0
M  V30 99 H -0.872308 -2.78693 -2.29173 0
M  V30 100 H -5.69709 -1.73011 5.50004 0
M  V30 END ATOM
M  V30 BEGIN BOND
M  V30 1 1 1 2
M  V30 2 1 2 3
M  V30 3 1 2 4
M  V30 4 1 4 5
M  V30 5 1 5 6
M  V30 6 2 6 7
M  V30 7 1 6 8
M  V30 8 1 8 9
M  V30 9 1 9 10
M  V30 10 2 10 11
M  V30 11 1 11 12
M  V30 12 2 12 13
M  V30 13 1 13 14
M  V30 14 2 14 15
M  V30 15 1 8 16
M  V30 16 1 16 17
M  V30 17 2 17 18
M  V30 18 1 17 19
M  V30 19 1 19 20
M  V30 20 1 20 21
M  V30 21 2 21 22
M  V30 22 1 21 23
M  V30 23 1 23 24
M  V30 24 1 24 25
M  V30 25 2 25 26
M  V30 26 1 25 27
M  V30 27 1 27 28
M  V30 28 1 28 29
M  V30 29 2 29 30
M  V30 30 1 30 31
M  V30 31 1 31 32
M  V30 32 2 32 33
M  V30 33 1 27 34
M  V30 34 1 34 35
M  V30 35 2 35 36
M  V30 36 1 35 37
M  V30 37 1 37 38
M  V30 38 1 37 39
M  V30 39 1 39 40
M  V30 40 1 40 41
M  V30 41 1 41 42
M  V30 42 1 42 43
M  V30 43 1 19 44
M  V30 44 1 44 45
M  V30 45 1 44 46
M  V30 46 1 4 47
M  V30 47 1 47 48
M  V30 48 2 47 49
M  V30 49 1 15 10
M  V30 50 1 33 29
M  V30 51 1 1 50
M  V30 52 1 1 51
M  V30 53 1 1 52
M  V30 54 1 2 53
M  V30 55 1 3 54
M  V30 56 1 3 55
M  V30 57 1 3 56
M  V30 58 1 4 57 CFG=3
M  V30 59 1 5 58
M  V30 60 1 8 59 CFG=3
M  V30 61 1 9 60
M  V30 62 1 9 61
M  V30 63 1 11 62
M  V30 64 1 12 63
M  V30 65 1 13 64
M  V30 66 1 14 65
M  V30 67 1 15 66
M  V30 68 1 16 67
M  V30 69 1 19 68 CFG=3
M  V30 70 1 20 69
M  V30 71 1 23 70
M  V30 72 1 23 71
M  V30 73 1 24 72
M  V30 74 1 27 73 CFG=1
M  V30 75 1 28 74
M  V30 76 1 28 75
M  V30 77 1 30 76
M  V30 78 1 31 77
M  V30 79 1 32 78
M  V30 80 1 34 79
M  V30 81 1 37 80 CFG=3
M  V30 82 1 38 81
M  V30 83 1 38 82
M  V30 84 1 39 83
M  V30 85 1 39 84
M  V30 86 1 40 85
M  V30 87 1 40 86
M  V30 88 1 41 87
M  V30 89 1 41 88
M  V30 90 1 42 89
M  V30 91 1 42 90
M  V30 92 1 43 91
M  V30 93 1 43 92
M  V30 94 1 44 93
M  V30 95 1 45 94
M  V30 96 1 45 95
M  V30 97 1 45 96
M  V30 98 1 46 97
M  V30 99 1 46 98
M  V30 100 1 46 99
M  V30 101 1 48 100
M  V30 END BOND
M  V30 END CTAB
M  END
