
     RDKit          3D

  0  0  0  0  0  0  0  0  0  0999 V3000
M  V30 BEGIN CTAB
M  V30 COUNTS 53 56 0 0 0
M  V30 BEGIN ATOM
M  V30 1 N 7.60215 0.543112 -0.837011 0
M  V30 2 C 6.9257 1.1272 0.285672 0
M  V30 3 C 5.65759 1.83143 -0.176071 0
M  V30 4 C 4.88029 0.857614 0.686999 0
M  V30 5 C 6.143 0.120133 1.06261 0
M  V30 6 C 3.92826 0.0308614 -0.132213 0
M  V30 7 C 2.60091 -0.105423 0.223063 0
M  V30 8 C 1.72533 -0.862333 -0.525295 0
M  V30 9 N 2.23091 -1.4609 -1.619 0
M  V30 10 C 3.51729 -1.35521 -2.00216 0
M  V30 11 N 4.35981 -0.598095 -1.23964 0
M  V30 12 N 4.00573 -2.00596 -3.16624 0
M  V30 13 N 0.373303 -0.980758 -0.1335 0
M  V30 14 C -0.0916258 -0.310148 1.04916 0
M  V30 15 C -1.57499 -0.479748 1.28075 0
M  V30 16 N -2.36033 -0.457784 0.0796102 0
M  V30 17 C -1.75012 -0.786942 -1.18827 0
M  V30 18 C -0.602336 -1.75817 -0.870038 0
M  V30 19 C -3.73791 -0.117126 0.14818 0
M  V30 20 C -4.35569 0.0443072 1.37669 0
M  V30 21 C -5.69051 0.380413 1.44448 0
M  V30 22 C -6.45856 0.567973 0.308927 0
M  V30 23 C -5.86245 0.411971 -0.917163 0
M  V30 24 C -4.51502 0.072798 -0.983112 0
M  V30 25 C -7.86958 0.92317 0.376521 0
M  V30 26 O -8.53687 1.08517 -0.66732 0
M  V30 27 C -8.47973 1.08404 1.72396 0
M  V30 28 H 8.58543 0.872991 -0.952569 0
M  V30 29 H 7.51955 -0.497699 -0.885904 0
M  V30 30 H 7.60157 1.79024 0.850873 0
M  V30 31 H 5.43453 1.71092 -1.25889 0
M  V30 32 H 5.57034 2.886 0.112656 0
M  V30 33 H 4.38833 1.31017 1.55995 0
M  V30 34 H 6.3948 0.177279 2.14356 0
M  V30 35 H 6.15769 -0.913407 0.719404 0
M  V30 36 H 2.28755 0.417408 1.12453 0
M  V30 37 H 4.32207 -1.49342 -4.01448 0
M  V30 38 H 4.05164 -3.04534 -3.1768 0
M  V30 39 H 0.125828 0.772733 1.02478 0
M  V30 40 H 0.451333 -0.722102 1.93604 0
M  V30 41 H -1.72416 -1.45394 1.7846 0
M  V30 42 H -1.85064 0.332842 2.00083 0
M  V30 43 H -2.43973 -1.26941 -1.90867 0
M  V30 44 H -1.29874 0.0956463 -1.67837 0
M  V30 45 H -0.187322 -2.19123 -1.79021 0
M  V30 46 H -1.04367 -2.51867 -0.191449 0
M  V30 47 H -3.80192 -0.0923689 2.29415 0
M  V30 48 H -6.18178 0.50863 2.39697 0
M  V30 49 H -6.41034 0.545128 -1.85422 0
M  V30 50 H -4.04142 -0.0487177 -1.967 0
M  V30 51 H -8.23498 0.238895 2.39433 0
M  V30 52 H -9.58809 1.11236 1.61527 0
M  V30 53 H -8.15242 2.0714 2.131 0
M  V30 END ATOM
M  V30 BEGIN BOND
M  V30 1 1 1 2
M  V30 2 1 2 3
M  V30 3 1 3 4
M  V30 4 1 4 5
M  V30 5 1 4 6
M  V30 6 2 6 7
M  V30 7 1 7 8
M  V30 8 2 8 9
M  V30 9 1 9 10
M  V30 10 2 10 11
M  V30 11 1 10 12
M  V30 12 1 8 13
M  V30 13 1 13 14
M  V30 14 1 14 15
M  V30 15 1 15 16
M  V30 16 1 16 17
M  V30 17 1 17 18
M  V30 18 1 16 19
M  V30 19 2 19 20
M  V30 20 1 20 21
M  V30 21 2 21 22
M  V30 22 1 22 23
M  V30 23 2 23 24
M  V30 24 1 22 25
M  V30 25 2 25 26
M  V30 26 1 25 27
M  V30 27 1 5 2
M  V30 28 1 11 6
M  V30 29 1 18 13
M  V30 30 1 24 19
M  V30 31 1 1 28
M  V30 32 1 1 29
M  V30 33 1 2 30
M  V30 34 1 3 31
M  V30 35 1 3 32
M  V30 36 1 4 33
M  V30 37 1 5 34
M  V30 38 1 5 35
M  V30 39 1 7 36
M  V30 40 1 12 37
M  V30 41 1 12 38
M  V30 42 1 14 39
M  V30 43 1 14 40
M  V30 44 1 15 41
M  V30 45 1 15 42
M  V30 46 1 17 43
M  V30 47 1 17 44
M  V30 48 1 18 45
M  V30 49 1 18 46
M  V30 50 1 20 47
M  V30 51 1 21 48
M  V30 52 1 23 49
M  V30 53 1 24 50
M  V30 54 1 27 51
M  V30 55 1 27 52
M  V30 56 1 27 53
M  V30 END BOND
M  V30 END CTAB
M  END
