
     RDKit          3D

  0  0  0  0  0  0  0  0  0  0999 V3000
M  V30 BEGIN CTAB
M  V30 COUNTS 23 23 0 0 0
M  V30 BEGIN ATOM
M  V30 1 N -3.89185 1.03282 -1.00708 0
M  V30 2 C -3.41669 0.0233112 -0.134712 0
M  V30 3 N -4.24899 -0.589837 0.661376 0
M  V30 4 C -2.00527 -0.362367 -0.0935351 0
M  V30 5 O -1.14129 0.687272 0.252623 0
M  V30 6 C 0.228578 0.408509 0.316392 0
M  V30 7 C 0.724055 -0.868833 0.0457285 0
M  V30 8 C 2.08582 -1.14184 0.110125 0
M  V30 9 C 2.98127 -0.160004 0.442409 0
M  V30 10 C 2.51224 1.09987 0.711288 0
M  V30 11 C 1.15062 1.372 0.646686 0
M  V30 12 N 4.35701 -0.46456 0.500258 0
M  V30 13 H -4.32852 1.87652 -0.593245 0
M  V30 14 H -3.82995 0.980837 -2.04323 0
M  V30 15 H -3.93558 -1.33537 1.31455 0
M  V30 16 H -1.82444 -1.1897 0.610066 0
M  V30 17 H -1.71953 -0.7268 -1.10241 0
M  V30 18 H 0.028172 -1.65644 -0.21863 0
M  V30 19 H 2.47664 -2.12694 -0.0977558 0
M  V30 20 H 3.18505 1.91653 0.980653 0
M  V30 21 H 0.822005 2.37652 0.865489 0
M  V30 22 H 5.05967 0.111188 -0.0225641 0
M  V30 23 H 4.73097 -1.26269 1.05631 0
M  V30 END ATOM
M  V30 BEGIN BOND
M  V30 1 1 1 2
M  V30 2 2 2 3 CFG=2
M  V30 3 1 2 4
M  V30 4 1 4 5
M  V30 5 1 5 6
M  V30 6 2 6 7
M  V30 7 1 7 8
M  V30 8 2 8 9
M  V30 9 1 9 10
M  V30 10 2 10 11
M  V30 11 1 9 12
M  V30 12 1 11 6
M  V30 13 1 1 13
M  V30 14 1 1 14
M  V30 15 1 3 15
M  V30 16 1 4 16
M  V30 17 1 4 17
M  V30 18 1 7 18
M  V30 19 1 8 19
M  V30 20 1 10 20
M  V30 21 1 11 21
M  V30 22 1 12 22
M  V30 23 1 12 23
M  V30 END BOND
M  V30 END CTAB
M  END
