
     RDKit          3D

  0  0  0  0  0  0  0  0  0  0999 V3000
M  V30 BEGIN CTAB
M  V30 COUNTS 45 49 0 0 0
M  V30 BEGIN ATOM
M  V30 1 N 1.17931 -2.07306 -2.02141 0
M  V30 2 C 1.04616 -1.18426 -0.917855 0
M  V30 3 C 2.10113 -0.426431 -0.453884 0
M  V30 4 C 3.33702 -0.520749 -1.06971 0
M  V30 5 O 3.49427 -1.28913 -2.04096 0
M  V30 6 C 4.37926 0.249894 -0.585433 0
M  V30 7 C 5.63527 0.168815 -1.19385 0
M  V30 8 C 6.68999 0.924175 -0.73271 0
M  V30 9 C 6.49113 1.77486 0.352686 0
M  V30 10 C 5.25083 1.84596 0.94291 0
M  V30 11 C 4.19592 1.09618 0.488422 0
M  V30 12 C 2.97006 1.19925 1.1105 0
M  V30 13 O 2.782 1.97195 2.09942 0
M  V30 14 C 1.94222 0.43469 0.627515 0
M  V30 15 C 0.714983 0.545325 1.25907 0
M  V30 16 N 0.513498 1.41237 2.36484 0
M  V30 17 C -0.341229 -0.200522 0.809754 0
M  V30 18 C -0.175115 -1.05368 -0.26519 0
M  V30 19 C -1.3804 -1.67045 -0.501285 0
M  V30 20 O -1.62145 -2.52107 -1.40703 0
M  V30 21 N -2.24919 -1.19261 0.417422 0
M  V30 22 C -3.62981 -1.58324 0.519832 0
M  V30 23 C -4.53515 -0.732056 -0.293322 0
M  V30 24 C -5.11692 0.417405 0.231514 0
M  V30 25 C -5.95918 1.21858 -0.508825 0
M  V30 26 C -6.25532 0.893358 -1.82417 0
M  V30 27 C -5.68405 -0.247673 -2.36093 0
M  V30 28 C -4.84291 -1.03886 -1.60608 0
M  V30 29 C -1.65895 -0.306687 1.22231 0
M  V30 30 O -2.17529 0.327862 2.18214 0
M  V30 31 H 0.877899 -1.82539 -2.98901 0
M  V30 32 H 1.5962 -3.03303 -1.89591 0
M  V30 33 H 5.76996 -0.497673 -2.03561 0
M  V30 34 H 7.67414 0.873808 -1.1939 0
M  V30 35 H 7.31895 2.37657 0.725064 0
M  V30 36 H 5.09366 2.49985 1.77896 0
M  V30 37 H 0.0997093 2.34939 2.16692 0
M  V30 38 H 0.77104 1.11331 3.31954 0
M  V30 39 H -3.97387 -1.55007 1.58788 0
M  V30 40 H -3.765 -2.631 0.122718 0
M  V30 41 H -4.89768 0.680757 1.24457 0
M  V30 42 H -6.4066 2.11085 -0.0908461 0
M  V30 43 H -6.91386 1.50893 -2.42189 0
M  V30 44 H -5.92489 -0.490885 -3.3937 0
M  V30 45 H -4.41774 -1.9256 -2.07079 0
M  V30 END ATOM
M  V30 BEGIN BOND
M  V30 1 1 1 2
M  V30 2 2 2 3
M  V30 3 1 3 4
M  V30 4 2 4 5
M  V30 5 1 4 6
M  V30 6 2 6 7
M  V30 7 1 7 8
M  V30 8 2 8 9
M  V30 9 1 9 10
M  V30 10 2 10 11
M  V30 11 1 11 12
M  V30 12 2 12 13
M  V30 13 1 12 14
M  V30 14 2 14 15
M  V30 15 1 15 16
M  V30 16 1 15 17
M  V30 17 2 17 18
M  V30 18 1 18 19
M  V30 19 2 19 20
M  V30 20 1 19 21
M  V30 21 1 21 22
M  V30 22 1 22 23
M  V30 23 2 23 24
M  V30 24 1 24 25
M  V30 25 2 25 26
M  V30 26 1 26 27
M  V30 27 2 27 28
M  V30 28 1 21 29
M  V30 29 2 29 30
M  V30 30 1 18 2
M  V30 31 1 28 23
M  V30 32 1 14 3
M  V30 33 1 29 17
M  V30 34 1 11 6
M  V30 35 1 1 31
M  V30 36 1 1 32
M  V30 37 1 7 33
M  V30 38 1 8 34
M  V30 39 1 9 35
M  V30 40 1 10 36
M  V30 41 1 16 37
M  V30 42 1 16 38
M  V30 43 1 22 39
M  V30 44 1 22 40
M  V30 45 1 24 41
M  V30 46 1 25 42
M  V30 47 1 26 43
M  V30 48 1 27 44
M  V30 49 1 28 45
M  V30 END BOND
M  V30 END CTAB
M  END
