
     RDKit          3D

  0  0  0  0  0  0  0  0  0  0999 V3000
M  V30 BEGIN CTAB
M  V30 COUNTS 55 60 0 0 0
M  V30 BEGIN ATOM
M  V30 1 N 2.172 0.589872 2.62745 0
M  V30 2 C 1.9455 0.284014 1.51813 0
M  V30 3 C 1.72308 -0.0905448 0.146456 0
M  V30 4 C 2.8398 -0.414398 -0.647596 0
M  V30 5 N 2.65898 -0.744547 -1.92808 0
M  V30 6 C 1.45929 -0.788919 -2.51695 0
M  V30 7 C 0.327884 -0.475182 -1.76254 0
M  V30 8 C 0.480607 -0.124109 -0.415979 0
M  V30 9 C -0.649956 0.191327 0.344775 0
M  V30 10 C -0.885433 0.580615 1.72927 0
M  V30 11 C -2.35666 0.768735 1.80824 0
M  V30 12 O -3.0261 1.1368 2.83944 0
M  V30 13 N -2.9299 0.479604 0.562103 0
M  V30 14 C -1.86084 0.12853 -0.31821 0
M  V30 15 N -1.97136 -0.21872 -1.6361 0
M  V30 16 C -0.905271 -0.52164 -2.372 0
M  V30 17 N -1.09263 -0.871869 -3.72838 0
M  V30 18 C -4.33746 0.520284 0.203988 0
M  V30 19 C -4.77788 1.26705 -0.868873 0
M  V30 20 C -6.10727 1.31922 -1.22488 0
M  V30 21 C -7.01454 0.604741 -0.485723 0
M  V30 22 C -6.60853 -0.14666 0.585962 0
M  V30 23 C -5.27295 -0.176726 0.9142 0
M  V30 24 O -7.73451 -0.744818 1.12529 0
M  V30 25 C -8.85759 -0.277054 0.438572 0
M  V30 26 O -8.39046 0.497153 -0.642423 0
M  V30 27 N 1.27906 -1.13984 -3.87427 0
M  V30 28 N 4.14784 -0.406799 -0.0809832 0
M  V30 29 C 4.54201 -1.38104 0.891057 0
M  V30 30 C 5.52743 -0.935822 1.91142 0
M  V30 31 C 5.96063 0.501478 1.79211 0
M  V30 32 C 6.22296 0.875977 0.348466 0
M  V30 33 C 5.05063 0.614116 -0.533051 0
M  V30 34 O 7.39683 0.249097 -0.103319 0
M  V30 35 H -0.621345 -0.200126 2.4713 0
M  V30 36 H -0.492243 1.60541 1.99428 0
M  V30 37 H -1.06957 -0.0880954 -4.42729 0
M  V30 38 H -1.24495 -1.86511 -3.99459 0
M  V30 39 H -4.07479 1.82922 -1.45264 0
M  V30 40 H -6.39347 1.9228 -2.07749 0
M  V30 41 H -4.93851 -0.76825 1.7611 0
M  V30 42 H -9.45235 -1.11962 0.0141086 0
M  V30 43 H -9.53168 0.330309 1.09278 0
M  V30 44 H 1.13049 -2.13519 -4.12226 0
M  V30 45 H 1.29384 -0.431127 -4.6208 0
M  V30 46 H 3.6276 -1.77099 1.39756 0
M  V30 47 H 4.95918 -2.31075 0.383404 0
M  V30 48 H 5.08955 -1.04147 2.93615 0
M  V30 49 H 6.41588 -1.6147 1.92563 0
M  V30 50 H 5.17321 1.18047 2.19166 0
M  V30 51 H 6.9043 0.64267 2.34599 0
M  V30 52 H 6.43498 1.96503 0.342955 0
M  V30 53 H 5.44612 0.310554 -1.53512 0
M  V30 54 H 4.44115 1.54402 -0.662589 0
M  V30 55 H 7.94744 0.86502 -0.642857 0
M  V30 END ATOM
M  V30 BEGIN BOND
M  V30 1 3 1 2
M  V30 2 1 2 3
M  V30 3 2 3 4
M  V30 4 1 4 5
M  V30 5 2 5 6
M  V30 6 1 6 7
M  V30 7 2 7 8
M  V30 8 1 8 9
M  V30 9 1 9 10
M  V30 10 1 10 11
M  V30 11 2 11 12
M  V30 12 1 11 13
M  V30 13 1 13 14
M  V30 14 1 14 15
M  V30 15 2 15 16
M  V30 16 1 16 17
M  V30 17 1 13 18
M  V30 18 2 18 19
M  V30 19 1 19 20
M  V30 20 2 20 21
M  V30 21 1 21 22
M  V30 22 2 22 23
M  V30 23 1 22 24
M  V30 24 1 24 25
M  V30 25 1 25 26
M  V30 26 1 6 27
M  V30 27 1 4 28
M  V30 28 1 28 29
M  V30 29 1 29 30
M  V30 30 1 30 31
M  V30 31 1 31 32
M  V30 32 1 32 33
M  V30 33 1 32 34
M  V30 34 1 8 3
M  V30 35 2 14 9
M  V30 36 1 23 18
M  V30 37 1 33 28
M  V30 38 1 16 7
M  V30 39 1 26 21
M  V30 40 1 10 35
M  V30 41 1 10 36
M  V30 42 1 17 37
M  V30 43 1 17 38
M  V30 44 1 19 39
M  V30 45 1 20 40
M  V30 46 1 23 41
M  V30 47 1 25 42
M  V30 48 1 25 43
M  V30 49 1 27 44
M  V30 50 1 27 45
M  V30 51 1 29 46
M  V30 52 1 29 47
M  V30 53 1 30 48
M  V30 54 1 30 49
M  V30 55 1 31 50
M  V30 56 1 31 51
M  V30 57 1 32 52
M  V30 58 1 33 53
M  V30 59 1 33 54
M  V30 60 1 34 55
M  V30 END BOND
M  V30 END CTAB
M  END
