
     RDKit          3D

  0  0  0  0  0  0  0  0  0  0999 V3000
M  V30 BEGIN CTAB
M  V30 COUNTS 20 20 0 0 0
M  V30 BEGIN ATOM
M  V30 1 N 4.10941 -0.131491 -0.243653 0
M  V30 2 N 3.13871 -1.05757 0.00351624 0
M  V30 3 C 1.77965 -0.653009 0.129481 0
M  V30 4 N 1.23973 0.554313 0.0441071 0
M  V30 5 C -0.0310258 0.716298 0.189875 0
M  V30 6 C -0.797301 -0.39461 0.434148 0
M  V30 7 S 0.385049 -1.62633 0.438388 0
M  V30 8 S -2.53038 -0.519979 0.678153 0
M  V30 9 O -2.84992 -1.7153 1.56549 0
M  V30 10 O -3.01409 0.741425 1.3137 0
M  V30 11 N -3.36851 -0.77028 -0.806197 0
M  V30 12 C -0.699252 2.07402 0.102502 0
M  V30 13 H 3.92638 0.788065 0.205256 0
M  V30 14 H 5.07753 -0.455237 -0.0459182 0
M  V30 15 H 3.35528 -2.0594 0.10472 0
M  V30 16 H -4.28393 -1.23816 -0.624605 0
M  V30 17 H -2.80643 -1.4571 -1.36418 0
M  V30 18 H -1.5387 1.98189 -0.624281 0
M  V30 19 H -1.09452 2.35817 1.11935 0
M  V30 20 H 0.00231033 2.86429 -0.199939 0
M  V30 END ATOM
M  V30 BEGIN BOND
M  V30 1 1 1 2
M  V30 2 1 2 3
M  V30 3 2 3 4
M  V30 4 1 4 5
M  V30 5 2 5 6
M  V30 6 1 6 7
M  V30 7 1 6 8
M  V30 8 2 8 9
M  V30 9 2 8 10
M  V30 10 1 8 11
M  V30 11 1 5 12
M  V30 12 1 7 3
M  V30 13 1 1 13
M  V30 14 1 1 14
M  V30 15 1 2 15
M  V30 16 1 11 16
M  V30 17 1 11 17
M  V30 18 1 12 18
M  V30 19 1 12 19
M  V30 20 1 12 20
M  V30 END BOND
M  V30 END CTAB
M  END
