
     RDKit          3D

  0  0  0  0  0  0  0  0  0  0999 V3000
M  V30 BEGIN CTAB
M  V30 COUNTS 73 76 0 0 0
M  V30 BEGIN ATOM
M  V30 1 O -7.48851 -1.66261 -2.3621 0
M  V30 2 C -6.6851 -1.79012 -1.22798 0
M  V30 3 C -7.55155 -1.71049 -0.00810401 0
M  V30 4 C -6.70343 -1.7616 1.24575 0
M  V30 5 O -5.81662 -0.688142 1.18219 0
M  V30 6 P -4.80294 -0.621207 2.52242 0
M  V30 7 O -5.53919 0.151161 3.60053 0
M  V30 8 O -3.43898 0.280391 2.1106 0
M  V30 9 C -3.22288 0.126065 0.742607 0
M  V30 10 N -2.07364 0.862857 0.291279 0
M  V30 11 C -0.851388 0.319426 0.277494 0
M  V30 12 C 0.299896 0.993864 -0.153044 0
M  V30 13 C 1.56064 0.302938 -0.0848314 0
M  V30 14 O 1.4734 -0.976071 -0.0330763 0
M  V30 15 N 2.79499 0.944219 -0.0718471 0
M  V30 16 C 4.08521 0.325919 -0.0220006 0
M  V30 17 C 4.29791 -0.970172 -0.35147 0
M  V30 18 C 5.59329 -1.49802 -0.246903 0
M  V30 19 C 6.68818 -0.785602 0.173279 0
M  V30 20 C 6.41544 0.572382 0.507791 0
M  V30 21 C 5.17219 1.09294 0.411453 0
M  V30 22 F 7.43907 1.33621 0.928575 0
M  V30 23 O 7.92439 -1.21722 0.294657 0
M  V30 24 C 8.75733 -2.23921 0.172805 0
M  V30 25 C 8.4508 -3.52597 -0.24143 0
M  V30 26 C 9.3823 -4.53595 -0.340742 0
M  V30 27 N 10.646 -4.27933 -0.026441 0
M  V30 28 C 11.0079 -3.05465 0.381335 0
M  V30 29 C 10.134 -2.03509 0.494294 0
M  V30 30 Cl 10.6188 -0.445703 1.02609 0
M  V30 31 N 12.3844 -2.83582 0.705906 0
M  V30 32 C 0.103918 2.28224 -0.574605 0
M  V30 33 O 1.03138 3.00551 -0.989586 0
M  V30 34 C -1.16637 2.89111 -0.575012 0
M  V30 35 C -2.20755 2.11268 -0.126034 0
M  V30 36 C -1.33542 4.25648 -1.02093 0
M  V30 37 C -2.36225 4.55498 -1.88246 0
M  V30 38 C -2.57326 5.85626 -2.34167 0
M  V30 39 C -1.73171 6.84313 -1.91584 0
M  V30 40 C -0.696777 6.58699 -1.05763 0
M  V30 41 C -0.510531 5.27044 -0.613969 0
M  V30 42 F -1.89832 8.12836 -2.33704 0
M  V30 43 O -4.4299 -2.1349 3.12889 0
M  V30 44 C -8.53639 -2.85618 -0.0643943 0
M  V30 45 O -7.80443 -4.03732 -0.0865242 0
M  V30 46 N -8.24152 -0.422076 0.0177096 0
M  V30 47 H -8.24974 -1.09212 -2.11522 0
M  V30 48 H -5.91626 -0.993314 -1.25138 0
M  V30 49 H -6.21028 -2.78002 -1.26831 0
M  V30 50 H -7.35884 -1.67309 2.13607 0
M  V30 51 H -6.14571 -2.7336 1.25327 0
M  V30 52 H -3.17272 -0.963424 0.453918 0
M  V30 53 H -4.13316 0.549958 0.230102 0
M  V30 54 H -0.774976 -0.705516 0.62711 0
M  V30 55 H 2.78393 2.00385 -0.0845868 0
M  V30 56 H 3.50423 -1.64019 -0.719037 0
M  V30 57 H 5.67797 -2.53778 -0.529364 0
M  V30 58 H 4.97268 2.14741 0.67326 0
M  V30 59 H 7.42128 -3.78182 -0.509023 0
M  V30 60 H 9.08054 -5.54082 -0.674645 0
M  V30 61 H 12.7035 -2.60119 1.66436 0
M  V30 62 H 13.0699 -2.92281 -0.0733042 0
M  V30 63 H -3.20283 2.56652 -0.117108 0
M  V30 64 H -3.02342 3.78798 -2.21774 0
M  V30 65 H -3.37523 6.08545 -3.01359 0
M  V30 66 H -0.0352474 7.36978 -0.724885 0
M  V30 67 H 0.310678 5.10003 0.0623702 0
M  V30 68 H -4.43497 -2.85168 2.44776 0
M  V30 69 H -9.07064 -2.77045 -1.03307 0
M  V30 70 H -9.26963 -2.81632 0.759236 0
M  V30 71 H -7.7127 -4.43251 0.820908 0
M  V30 72 H -8.36649 -0.0832397 0.998806 0
M  V30 73 H -7.66463 0.295833 -0.47703 0
M  V30 END ATOM
M  V30 BEGIN BOND
M  V30 1 1 1 2
M  V30 2 1 2 3
M  V30 3 1 3 4
M  V30 4 1 4 5
M  V30 5 1 5 6
M  V30 6 2 6 7
M  V30 7 1 6 8
M  V30 8 1 8 9
M  V30 9 1 9 10
M  V30 10 1 10 11
M  V30 11 2 11 12
M  V30 12 1 12 13
M  V30 13 2 13 14
M  V30 14 1 13 15
M  V30 15 1 15 16
M  V30 16 2 16 17
M  V30 17 1 17 18
M  V30 18 2 18 19
M  V30 19 1 19 20
M  V30 20 2 20 21
M  V30 21 1 20 22
M  V30 22 1 19 23
M  V30 23 1 23 24
M  V30 24 2 24 25
M  V30 25 1 25 26
M  V30 26 2 26 27
M  V30 27 1 27 28
M  V30 28 2 28 29
M  V30 29 1 29 30
M  V30 30 1 28 31
M  V30 31 1 12 32
M  V30 32 2 32 33
M  V30 33 1 32 34
M  V30 34 2 34 35
M  V30 35 1 34 36
M  V30 36 2 36 37
M  V30 37 1 37 38
M  V30 38 2 38 39
M  V30 39 1 39 40
M  V30 40 2 40 41
M  V30 41 1 39 42
M  V30 42 1 6 43
M  V30 43 1 3 44
M  V30 44 1 44 45
M  V30 45 1 3 46
M  V30 46 1 35 10
M  V30 47 1 41 36
M  V30 48 1 21 16
M  V30 49 1 29 24
M  V30 50 1 1 47
M  V30 51 1 2 48
M  V30 52 1 2 49
M  V30 53 1 4 50
M  V30 54 1 4 51
M  V30 55 1 9 52
M  V30 56 1 9 53
M  V30 57 1 11 54
M  V30 58 1 15 55
M  V30 59 1 17 56
M  V30 60 1 18 57
M  V30 61 1 21 58
M  V30 62 1 25 59
M  V30 63 1 26 60
M  V30 64 1 31 61
M  V30 65 1 31 62
M  V30 66 1 35 63
M  V30 67 1 37 64
M  V30 68 1 38 65
M  V30 69 1 40 66
M  V30 70 1 41 67
M  V30 71 1 43 68
M  V30 72 1 44 69
M  V30 73 1 44 70
M  V30 74 1 45 71
M  V30 75 1 46 72
M  V30 76 1 46 73
M  V30 END BOND
M  V30 END CTAB
M  END
