
     RDKit          3D

  0  0  0  0  0  0  0  0  0  0999 V3000
M  V30 BEGIN CTAB
M  V30 COUNTS 28 30 0 0 0
M  V30 BEGIN ATOM
M  V30 1 N 4.96431 -0.0851641 -0.20563 0
M  V30 2 C 3.53736 -0.164163 -0.168882 0
M  V30 3 C 2.78567 0.954984 0.101685 0
M  V30 4 C 1.42041 0.915792 0.144712 0
M  V30 5 C 0.736369 -0.260294 -0.08401 0
M  V30 6 C 1.45513 -1.39487 -0.356672 0
M  V30 7 C 2.84391 -1.32371 -0.393668 0
M  V30 8 C -0.707461 -0.31267 -0.0408809 0
M  V30 9 C -1.46094 0.837188 0.236392 0
M  V30 10 C -2.82973 0.795677 0.27904 0
M  V30 11 C -3.51594 -0.372465 0.0521181 0
M  V30 12 N -4.94797 -0.407498 0.0985465 0
M  V30 13 C -2.785 -1.49259 -0.21787 0
M  V30 14 C -1.39306 -1.4741 -0.266375 0
M  V30 15 C -0.794388 2.09921 0.484374 0
M  V30 16 O -1.49397 3.11749 0.731137 0
M  V30 17 C 0.642065 2.12144 0.434998 0
M  V30 18 O 1.25504 3.18609 0.642285 0
M  V30 19 H 5.41305 0.836636 -0.316488 0
M  V30 20 H 5.57287 -0.921117 -0.125031 0
M  V30 21 H 3.27738 1.90217 0.288119 0
M  V30 22 H 1.04003 -2.35065 -0.547864 0
M  V30 23 H 3.43654 -2.22316 -0.610687 0
M  V30 24 H -3.40979 1.6933 0.495179 0
M  V30 25 H -5.3828 -1.28746 0.441765 0
M  V30 26 H -5.47265 0.438217 -0.209487 0
M  V30 27 H -3.29919 -2.44304 -0.404165 0
M  V30 28 H -0.887256 -2.38524 -0.482641 0
M  V30 END ATOM
M  V30 BEGIN BOND
M  V30 1 1 1 2
M  V30 2 2 2 3
M  V30 3 1 3 4
M  V30 4 2 4 5
M  V30 5 1 5 6
M  V30 6 2 6 7
M  V30 7 1 5 8
M  V30 8 2 8 9
M  V30 9 1 9 10
M  V30 10 2 10 11
M  V30 11 1 11 12
M  V30 12 1 11 13
M  V30 13 2 13 14
M  V30 14 1 9 15
M  V30 15 2 15 16
M  V30 16 1 15 17
M  V30 17 2 17 18
M  V30 18 1 7 2
M  V30 19 1 14 8
M  V30 20 1 17 4
M  V30 21 1 1 19
M  V30 22 1 1 20
M  V30 23 1 3 21
M  V30 24 1 6 22
M  V30 25 1 7 23
M  V30 26 1 10 24
M  V30 27 1 12 25
M  V30 28 1 12 26
M  V30 29 1 13 27
M  V30 30 1 14 28
M  V30 END BOND
M  V30 END CTAB
M  END
