
     RDKit          3D

  0  0  0  0  0  0  0  0  0  0999 V3000
M  V30 BEGIN CTAB
M  V30 COUNTS 29 30 0 0 0
M  V30 BEGIN ATOM
M  V30 1 N -3.56998 -1.45381 1.40715 0
M  V30 2 C -2.39482 -1.56833 0.608835 0
M  V30 3 C -1.73271 -0.517912 -0.0635513 0
M  V30 4 N -0.679262 -1.0072 -0.702016 0
M  V30 5 C 0.316443 -0.364845 -1.52476 0
M  V30 6 C 1.49566 0.0795086 -0.778886 0
M  V30 7 C 2.53269 -0.799383 -0.481122 0
M  V30 8 C 3.65456 -0.390156 0.206727 0
M  V30 9 C 3.74825 0.923881 0.608347 0
M  V30 10 C 2.71774 1.81608 0.317516 0
M  V30 11 C 1.60366 1.38277 -0.372799 0
M  V30 12 C -0.637711 -2.35877 -0.461201 0
M  V30 13 N -1.67737 -2.65864 0.325173 0
M  V30 14 S -2.30748 1.13344 -0.0117816 0
M  V30 15 N -1.66375 1.95195 1.33611 0
M  V30 16 O -3.81672 1.14757 0.0756856 0
M  V30 17 O -1.97204 1.78345 -1.31728 0
M  V30 18 H -4.23474 -2.2605 1.47461 0
M  V30 19 H -3.81294 -0.59707 1.93941 0
M  V30 20 H -0.08123 0.533258 -2.06536 0
M  V30 21 H 0.688959 -1.11217 -2.30356 0
M  V30 22 H 2.48207 -1.85163 -0.790155 0
M  V30 23 H 4.43481 -1.1195 0.41246 0
M  V30 24 H 4.62733 1.27537 1.15562 0
M  V30 25 H 2.83728 2.84457 0.655663 0
M  V30 26 H 0.820577 2.12825 -0.575641 0
M  V30 27 H 0.111839 -3.04623 -0.847713 0
M  V30 28 H -1.26963 1.35223 2.0656 0
M  V30 29 H -2.22148 2.75381 1.66557 0
M  V30 END ATOM
M  V30 BEGIN BOND
M  V30 1 1 1 2
M  V30 2 2 2 3
M  V30 3 1 3 4
M  V30 4 1 4 5
M  V30 5 1 5 6
M  V30 6 2 6 7
M  V30 7 1 7 8
M  V30 8 2 8 9
M  V30 9 1 9 10
M  V30 10 2 10 11
M  V30 11 1 4 12
M  V30 12 2 12 13
M  V30 13 1 3 14
M  V30 14 1 14 15
M  V30 15 2 14 16
M  V30 16 2 14 17
M  V30 17 1 13 2
M  V30 18 1 11 6
M  V30 19 1 1 18
M  V30 20 1 1 19
M  V30 21 1 5 20
M  V30 22 1 5 21
M  V30 23 1 7 22
M  V30 24 1 8 23
M  V30 25 1 9 24
M  V30 26 1 10 25
M  V30 27 1 11 26
M  V30 28 1 12 27
M  V30 29 1 15 28
M  V30 30 1 15 29
M  V30 END BOND
M  V30 END CTAB
M  END
