
     RDKit          3D

  0  0  0  0  0  0  0  0  0  0999 V3000
M  V30 BEGIN CTAB
M  V30 COUNTS 22 21 0 0 0
M  V30 BEGIN ATOM
M  V30 1 C -1.5757 -0.960478 -0.199741 0 CFG=1
M  V30 2 N -2.45305 -1.99697 -0.683611 0
M  V30 3 C -1.15251 -0.0177966 -1.32458 0
M  V30 4 S -0.0475638 1.26275 -0.644293 0
M  V30 5 C 1.46065 0.440953 -0.116511 0
M  V30 6 C 2.48086 1.37616 0.474374 0
M  V30 7 N 3.63726 0.582875 0.853337 0
M  V30 8 C -2.24487 -0.172164 0.858723 0
M  V30 9 O -1.61977 0.888506 1.49433 0
M  V30 10 O -3.4207 -0.452186 1.21259 0
M  V30 11 H -0.652862 -1.4182 0.226258 0
M  V30 12 H -2.69469 -1.84975 -1.67627 0
M  V30 13 H -3.28581 -2.06382 -0.0549024 0
M  V30 14 H -0.640074 -0.610521 -2.10525 0
M  V30 15 H -2.03804 0.495393 -1.75162 0
M  V30 16 H 1.89334 -0.0727366 -0.988777 0
M  V30 17 H 1.18375 -0.318419 0.647972 0
M  V30 18 H 2.82379 2.11153 -0.272555 0
M  V30 19 H 2.11599 1.91825 1.3516 0
M  V30 20 H 4.01937 0.122332 0.0204609 0
M  V30 21 H 3.32002 -0.100364 1.5795 0
M  V30 22 H -1.10937 0.834646 2.35654 0
M  V30 END ATOM
M  V30 BEGIN BOND
M  V30 1 1 1 2
M  V30 2 1 1 3
M  V30 3 1 3 4
M  V30 4 1 4 5
M  V30 5 1 5 6
M  V30 6 1 6 7
M  V30 7 1 1 8
M  V30 8 1 8 9
M  V30 9 2 8 10
M  V30 10 1 1 11 CFG=1
M  V30 11 1 2 12
M  V30 12 1 2 13
M  V30 13 1 3 14
M  V30 14 1 3 15
M  V30 15 1 5 16
M  V30 16 1 5 17
M  V30 17 1 6 18
M  V30 18 1 6 19
M  V30 19 1 7 20
M  V30 20 1 7 21
M  V30 21 1 9 22
M  V30 END BOND
M  V30 END CTAB
M  END
