
     RDKit          3D

  0  0  0  0  0  0  0  0  0  0999 V3000
M  V30 BEGIN CTAB
M  V30 COUNTS 31 32 0 0 0
M  V30 BEGIN ATOM
M  V30 1 N -4.78872 2.72218 0.356062 0
M  V30 2 C -4.40083 1.35841 0.345696 0
M  V30 3 N -3.08126 1.03829 0.402457 0
M  V30 4 C -2.65377 -0.235197 0.395912 0
M  V30 5 S -0.894819 -0.527995 0.474539 0
M  V30 6 C -0.165084 -0.588267 -1.2032 0
M  V30 7 C 1.32946 -0.842261 -0.994512 0
M  V30 8 O 1.82001 0.239345 -0.227053 0
M  V30 9 C 3.18826 0.222813 0.0937029 0
M  V30 10 C 4.01634 -0.803258 -0.321733 0
M  V30 11 C 5.3567 -0.84231 -0.0211802 0
M  V30 12 C 5.89124 0.185004 0.724344 0
M  V30 13 C 5.08009 1.23979 1.16108 0
M  V30 14 C 3.74063 1.24441 0.840106 0
M  V30 15 F 2.92555 2.25899 1.25177 0
M  V30 16 N -3.57198 -1.21289 0.330816 0
M  V30 17 C -4.89511 -0.957999 0.2725 0
M  V30 18 N -5.26882 0.334074 0.282039 0
M  V30 19 N -5.87028 -1.98402 0.203684 0
M  V30 20 H -4.44231 3.33199 1.12981 0
M  V30 21 H -5.4099 3.15063 -0.379446 0
M  V30 22 H -0.626526 -1.37769 -1.81371 0
M  V30 23 H -0.228123 0.423849 -1.67669 0
M  V30 24 H 1.85037 -0.89648 -1.97594 0
M  V30 25 H 1.51911 -1.79627 -0.484423 0
M  V30 26 H 3.5666 -1.60719 -0.91277 0
M  V30 27 H 6.01782 -1.63154 -0.334882 0
M  V30 28 H 6.92661 0.237085 1.00588 0
M  V30 29 H 5.53675 2.0454 1.7548 0
M  V30 30 H -5.92123 -2.7207 0.933227 0
M  V30 31 H -6.54678 -2.00819 -0.582103 0
M  V30 END ATOM
M  V30 BEGIN BOND
M  V30 1 1 1 2
M  V30 2 2 2 3
M  V30 3 1 3 4
M  V30 4 1 4 5
M  V30 5 1 5 6
M  V30 6 1 6 7
M  V30 7 1 7 8
M  V30 8 1 8 9
M  V30 9 2 9 10
M  V30 10 1 10 11
M  V30 11 2 11 12
M  V30 12 1 12 13
M  V30 13 2 13 14
M  V30 14 1 14 15
M  V30 15 2 4 16
M  V30 16 1 16 17
M  V30 17 2 17 18
M  V30 18 1 17 19
M  V30 19 1 18 2
M  V30 20 1 14 9
M  V30 21 1 1 20
M  V30 22 1 1 21
M  V30 23 1 6 22
M  V30 24 1 6 23
M  V30 25 1 7 24
M  V30 26 1 7 25
M  V30 27 1 10 26
M  V30 28 1 11 27
M  V30 29 1 12 28
M  V30 30 1 13 29
M  V30 31 1 19 30
M  V30 32 1 19 31
M  V30 END BOND
M  V30 END CTAB
M  END
