
     RDKit          3D

  0  0  0  0  0  0  0  0  0  0999 V3000
M  V30 BEGIN CTAB
M  V30 COUNTS 48 50 0 0 0
M  V30 BEGIN ATOM
M  V30 1 N -6.02207 2.02477 0.151523 0
M  V30 2 C -5.41581 1.14882 -0.789113 0 CFG=2
M  V30 3 C -5.00955 -0.207865 -0.213504 0
M  V30 4 C -3.8316 -0.12087 -1.19444 0 CFG=1
M  V30 5 C -3.9019 1.3689 -0.981228 0
M  V30 6 C -2.63031 -0.82404 -0.782163 0
M  V30 7 C -1.81746 -0.319325 0.213038 0
M  V30 8 C -0.672339 -1.00342 0.612894 0
M  V30 9 N -0.32947 -2.16052 0.0525258 0
M  V30 10 C -1.13805 -2.67196 -0.94477 0
M  V30 11 N -2.23703 -1.99065 -1.31228 0
M  V30 12 N -0.733047 -3.90642 -1.50496 0
M  V30 13 N 0.136332 -0.400137 1.64261 0
M  V30 14 C 0.591845 0.946012 1.45198 0
M  V30 15 C 2.0649 1.11046 1.23541 0
M  V30 16 C 2.50728 0.381804 0.00644569 0
M  V30 17 C 3.9352 0.496337 -0.302594 0
M  V30 18 C 4.8126 -0.421657 0.206888 0
M  V30 19 C 6.17488 -0.38913 -0.0518119 0
M  V30 20 C 6.64965 0.617837 -0.858273 0
M  V30 21 C 5.80895 1.55907 -1.39067 0
M  V30 22 C 4.4671 1.50787 -1.12277 0
M  V30 23 C 0.432928 -1.20004 2.80168 0
M  V30 24 H -5.92727 2.98449 -0.0800656 0
M  V30 25 H -6.96703 1.75663 0.376064 0
M  V30 26 H -5.88099 1.04022 -1.7733 0
M  V30 27 H -4.70887 -0.0743587 0.841755 0
M  V30 28 H -5.73299 -1.00062 -0.447204 0
M  V30 29 H -4.25004 -0.403395 -2.19069 0
M  V30 30 H -3.65251 2.00579 -1.84293 0
M  V30 31 H -3.50797 1.70499 -0.00750057 0
M  V30 32 H -2.02812 0.606679 0.713524 0
M  V30 33 H 0.185583 -4.30101 -1.29702 0
M  V30 34 H -1.36325 -4.43844 -2.14024 0
M  V30 35 H 0.0560715 1.45759 0.622805 0
M  V30 36 H 0.327311 1.50461 2.40057 0
M  V30 37 H 2.6615 0.822514 2.13233 0
M  V30 38 H 2.26557 2.18961 1.08892 0
M  V30 39 H 1.91013 0.745597 -0.846627 0
M  V30 40 H 2.29112 -0.714928 0.0697596 0
M  V30 41 H 4.45288 -1.22504 0.84799 0
M  V30 42 H 6.81868 -1.13192 0.369652 0
M  V30 43 H 7.72649 0.631403 -1.05507 0
M  V30 44 H 6.20592 2.342 -2.02202 0
M  V30 45 H 3.77945 2.21504 -1.51225 0
M  V30 46 H 1.45449 -1.03966 3.20559 0
M  V30 47 H 0.379985 -2.26513 2.51627 0
M  V30 48 H -0.339195 -0.958496 3.56105 0
M  V30 END ATOM
M  V30 BEGIN BOND
M  V30 1 1 1 2
M  V30 2 1 2 3
M  V30 3 1 3 4
M  V30 4 1 4 5
M  V30 5 1 4 6
M  V30 6 2 6 7
M  V30 7 1 7 8
M  V30 8 2 8 9
M  V30 9 1 9 10
M  V30 10 2 10 11
M  V30 11 1 10 12
M  V30 12 1 8 13
M  V30 13 1 13 14
M  V30 14 1 14 15
M  V30 15 1 15 16
M  V30 16 1 16 17
M  V30 17 2 17 18
M  V30 18 1 18 19
M  V30 19 2 19 20
M  V30 20 1 20 21
M  V30 21 2 21 22
M  V30 22 1 13 23
M  V30 23 1 5 2
M  V30 24 1 11 6
M  V30 25 1 22 17
M  V30 26 1 1 24
M  V30 27 1 1 25
M  V30 28 1 2 26 CFG=3
M  V30 29 1 3 27
M  V30 30 1 3 28
M  V30 31 1 4 29 CFG=3
M  V30 32 1 5 30
M  V30 33 1 5 31
M  V30 34 1 7 32
M  V30 35 1 12 33
M  V30 36 1 12 34
M  V30 37 1 14 35
M  V30 38 1 14 36
M  V30 39 1 15 37
M  V30 40 1 15 38
M  V30 41 1 16 39
M  V30 42 1 16 40
M  V30 43 1 18 41
M  V30 44 1 19 42
M  V30 45 1 20 43
M  V30 46 1 21 44
M  V30 47 1 22 45
M  V30 48 1 23 46
M  V30 49 1 23 47
M  V30 50 1 23 48
M  V30 END BOND
M  V30 END CTAB
M  END
