
     RDKit          3D

  0  0  0  0  0  0  0  0  0  0999 V3000
M  V30 BEGIN CTAB
M  V30 COUNTS 27 27 0 0 0
M  V30 BEGIN ATOM
M  V30 1 C -2.95542 1.61822 0.329453 0
M  V30 2 C -3.088 0.555235 -0.734234 0
M  V30 3 O -2.38016 -0.584422 -0.371961 0
M  V30 4 C -1.02686 -0.624738 -0.179863 0
M  V30 5 C -0.20758 0.446972 -0.334546 0
M  V30 6 C 1.19291 0.388459 -0.132898 0
M  V30 7 O 1.91726 1.51741 -0.313866 0
M  V30 8 C 3.19246 1.93723 -0.246753 0
M  V30 9 F 3.52057 2.55733 -1.47337 0
M  V30 10 F 3.25256 2.99488 0.694238 0
M  V30 11 C 1.68455 -0.837565 0.234549 0
M  V30 12 C 0.866048 -1.96833 0.40339 0
M  V30 13 C -0.478275 -1.84348 0.193172 0
M  V30 14 N -1.32004 -2.96842 0.357493 0
M  V30 15 N 3.05726 -1.00603 0.459543 0
M  V30 16 H -2.2572 1.33037 1.14437 0
M  V30 17 H -3.97846 1.79743 0.769835 0
M  V30 18 H -2.65907 2.57836 -0.162543 0
M  V30 19 H -4.17664 0.297166 -0.90206 0
M  V30 20 H -2.7756 0.953513 -1.7421 0
M  V30 21 H -0.574911 1.43231 -0.637728 0
M  V30 22 H 3.97844 1.22952 0.0317116 0
M  V30 23 H 1.30344 -2.92948 0.698217 0
M  V30 24 H -1.66873 -3.20705 1.30122 0
M  V30 25 H -1.56525 -3.52668 -0.482607 0
M  V30 26 H 3.71553 -1.13516 -0.327455 0
M  V30 27 H 3.43114 -1.00306 1.42479 0
M  V30 END ATOM
M  V30 BEGIN BOND
M  V30 1 1 1 2
M  V30 2 1 2 3
M  V30 3 1 3 4
M  V30 4 2 4 5
M  V30 5 1 5 6
M  V30 6 1 6 7
M  V30 7 1 7 8
M  V30 8 1 8 9
M  V30 9 1 8 10
M  V30 10 2 6 11
M  V30 11 1 11 12
M  V30 12 2 12 13
M  V30 13 1 13 14
M  V30 14 1 11 15
M  V30 15 1 13 4
M  V30 16 1 1 16
M  V30 17 1 1 17
M  V30 18 1 1 18
M  V30 19 1 2 19
M  V30 20 1 2 20
M  V30 21 1 5 21
M  V30 22 1 8 22
M  V30 23 1 12 23
M  V30 24 1 14 24
M  V30 25 1 14 25
M  V30 26 1 15 26
M  V30 27 1 15 27
M  V30 END BOND
M  V30 END CTAB
M  END
