
     RDKit          3D

  0  0  0  0  0  0  0  0  0  0999 V3000
M  V30 BEGIN CTAB
M  V30 COUNTS 22 22 0 0 0
M  V30 BEGIN ATOM
M  V30 1 Cl 4.38949 2.1527 0.683154 0
M  V30 2 C 3.84431 0.637105 0.0211862 0
M  V30 3 C 4.74551 -0.303463 -0.227534 0
M  V30 4 C 2.40728 0.373608 -0.269502 0
M  V30 5 S 1.45317 0.521926 1.28718 0
M  V30 6 C -0.254275 0.195149 0.866177 0
M  V30 7 N -0.738644 -1.05863 0.907023 0
M  V30 8 C -2.02801 -1.34366 0.594299 0
M  V30 9 N -2.54928 -2.66677 0.634601 0
M  V30 10 C -2.82624 -0.267426 0.227736 0
M  V30 11 C -2.35203 1.02749 0.17844 0
M  V30 12 N -1.06037 1.22598 0.503742 0
M  V30 13 N -3.19563 2.12319 -0.203157 0
M  V30 14 H 4.44357 -1.25708 -0.63864 0
M  V30 15 H 5.79987 -0.160084 -0.0337545 0
M  V30 16 H 2.27913 -0.666695 -0.621184 0
M  V30 17 H 1.98162 1.05363 -0.999892 0
M  V30 18 H -1.87767 -3.46257 0.630806 0
M  V30 19 H -3.58782 -2.76807 0.666085 0
M  V30 20 H -3.87009 -0.401802 -0.0387685 0
M  V30 21 H -4.23011 2.03594 -0.151339 0
M  V30 22 H -2.77378 3.00953 -0.533267 0
M  V30 END ATOM
M  V30 BEGIN BOND
M  V30 1 1 1 2
M  V30 2 2 2 3 CFG=2
M  V30 3 1 2 4
M  V30 4 1 4 5
M  V30 5 1 5 6
M  V30 6 2 6 7
M  V30 7 1 7 8
M  V30 8 1 8 9
M  V30 9 2 8 10
M  V30 10 1 10 11
M  V30 11 2 11 12
M  V30 12 1 11 13
M  V30 13 1 12 6
M  V30 14 1 3 14
M  V30 15 1 3 15
M  V30 16 1 4 16
M  V30 17 1 4 17
M  V30 18 1 9 18
M  V30 19 1 9 19
M  V30 20 1 10 20
M  V30 21 1 13 21
M  V30 22 1 13 22
M  V30 END BOND
M  V30 END CTAB
M  END
