
     RDKit          3D

  0  0  0  0  0  0  0  0  0  0999 V3000
M  V30 BEGIN CTAB
M  V30 COUNTS 24 25 0 0 0
M  V30 BEGIN ATOM
M  V30 1 N 4.97952 -1.01955 0.336827 0
M  V30 2 C 3.7322 -0.629089 -0.24454 0
M  V30 3 N 3.55826 0.0496709 -1.36974 0
M  V30 4 N 2.27307 0.215527 -1.57329 0
M  V30 5 N 1.59065 -0.344683 -0.597156 0
M  V30 6 C 2.47414 -0.885078 0.255875 0
M  V30 7 C 0.137183 -0.354012 -0.498023 0
M  V30 8 C -0.345789 0.833108 0.24955 0
M  V30 9 O 0.518298 1.64154 0.672762 0
M  V30 10 N -1.74308 1.044 0.476767 0
M  V30 11 N -2.24027 2.06451 1.12532 0
M  V30 12 C -3.56751 2.01234 1.18956 0
M  V30 13 C -3.94889 0.862348 0.526506 0
M  V30 14 C -2.76878 0.285708 0.0952984 0
M  V30 15 N -2.6985 -0.928163 -0.638604 0
M  V30 16 H 5.02171 -1.65033 1.15562 0
M  V30 17 H 5.85448 -0.669215 -0.0630884 0
M  V30 18 H 2.236 -1.41945 1.16327 0
M  V30 19 H -0.210728 -1.3162 -0.020891 0
M  V30 20 H -0.275911 -0.28703 -1.53028 0
M  V30 21 H -4.27024 2.69483 1.64994 0
M  V30 22 H -4.95729 0.504712 0.384385 0
M  V30 23 H -2.75339 -1.81442 -0.125902 0
M  V30 24 H -2.59512 -0.891074 -1.65802 0
M  V30 END ATOM
M  V30 BEGIN BOND
M  V30 1 1 1 2
M  V30 2 1 2 3
M  V30 3 2 3 4
M  V30 4 1 4 5
M  V30 5 1 5 6
M  V30 6 1 5 7
M  V30 7 1 7 8
M  V30 8 2 8 9
M  V30 9 1 8 10
M  V30 10 1 10 11
M  V30 11 2 11 12
M  V30 12 1 12 13
M  V30 13 2 13 14
M  V30 14 1 14 15
M  V30 15 2 6 2
M  V30 16 1 14 10
M  V30 17 1 1 16
M  V30 18 1 1 17
M  V30 19 1 6 18
M  V30 20 1 7 19
M  V30 21 1 7 20
M  V30 22 1 12 21
M  V30 23 1 13 22
M  V30 24 1 15 23
M  V30 25 1 15 24
M  V30 END BOND
M  V30 END CTAB
M  END
