
     RDKit          3D

  0  0  0  0  0  0  0  0  0  0999 V3000
M  V30 BEGIN CTAB
M  V30 COUNTS 27 28 0 0 0
M  V30 BEGIN ATOM
M  V30 1 N 1.89647 0.453618 1.39435 0
M  V30 2 N 2.1666 -0.0918062 0.124687 0
M  V30 3 C 1.29778 -0.858336 -0.550088 0
M  V30 4 N 1.94813 -1.17145 -1.71208 0
M  V30 5 N 3.14478 -0.610454 -1.71294 0
M  V30 6 C 3.29769 0.0630333 -0.581898 0
M  V30 7 N 4.40683 0.832824 -0.113138 0
M  V30 8 C -0.0713692 -1.29975 -0.178748 0
M  V30 9 C -1.14407 -0.37391 -0.634654 0
M  V30 10 C -2.48164 -0.974868 -0.178924 0
M  V30 11 C -3.24518 0.196542 0.403982 0
M  V30 12 C -2.46657 1.38142 -0.180634 0
M  V30 13 N -1.08952 0.915003 0.0743501 0
M  V30 14 H 1.61649 1.47307 1.50144 0
M  V30 15 H 1.95836 -0.104393 2.2561 0
M  V30 16 H 5.20224 0.407583 0.409659 0
M  V30 17 H 4.40792 1.83842 -0.304573 0
M  V30 18 H -0.141082 -1.38376 0.92581 0
M  V30 19 H -0.290147 -2.31951 -0.572642 0
M  V30 20 H -1.14325 -0.188072 -1.71368 0
M  V30 21 H -2.34249 -1.74241 0.593041 0
M  V30 22 H -3.06748 -1.32267 -1.05677 0
M  V30 23 H -3.10081 0.268086 1.51604 0
M  V30 24 H -4.2925 0.21175 0.101384 0
M  V30 25 H -2.6835 2.30921 0.345957 0
M  V30 26 H -2.67121 1.40939 -1.27095 0
M  V30 27 H -1.11249 0.681447 1.11491 0
M  V30 END ATOM
M  V30 BEGIN BOND
M  V30 1 1 1 2
M  V30 2 1 2 3
M  V30 3 2 3 4
M  V30 4 1 4 5
M  V30 5 2 5 6
M  V30 6 1 6 7
M  V30 7 1 3 8
M  V30 8 1 8 9
M  V30 9 1 9 10
M  V30 10 1 10 11
M  V30 11 1 11 12
M  V30 12 1 12 13
M  V30 13 1 6 2
M  V30 14 1 13 9
M  V30 15 1 1 14
M  V30 16 1 1 15
M  V30 17 1 7 16
M  V30 18 1 7 17
M  V30 19 1 8 18
M  V30 20 1 8 19
M  V30 21 1 9 20
M  V30 22 1 10 21
M  V30 23 1 10 22
M  V30 24 1 11 23
M  V30 25 1 11 24
M  V30 26 1 12 25
M  V30 27 1 12 26
M  V30 28 1 13 27
M  V30 END BOND
M  V30 END CTAB
M  END
