
     RDKit          3D

  0  0  0  0  0  0  0  0  0  0999 V3000
M  V30 BEGIN CTAB
M  V30 COUNTS 18 18 0 0 0
M  V30 BEGIN ATOM
M  V30 1 N 1.68276 -1.7169 -0.295429 0
M  V30 2 C 0.701213 -0.722654 -0.126208 0
M  V30 3 C -0.647689 -1.03658 -0.243979 0
M  V30 4 C -1.62941 -0.079859 -0.0823718 0
M  V30 5 N -2.99051 -0.421061 -0.206053 0
M  V30 6 C -1.22101 1.20588 0.201768 0
M  V30 7 Cl -2.44452 2.43572 0.411048 0
M  V30 8 C 0.11808 1.51327 0.31778 0
M  V30 9 C 1.10939 0.564415 0.158163 0
M  V30 10 N 2.48418 0.926153 0.287373 0 CHG=1
M  V30 11 O 3.50157 0.263337 -0.348575 0 CHG=-1
M  V30 12 O 2.80166 1.90301 1.01924 0
M  V30 13 H 1.77118 -2.463 0.456052 0
M  V30 14 H 2.32647 -1.76296 -1.11378 0
M  V30 15 H -0.966957 -2.05135 -0.468044 0
M  V30 16 H -3.3323 -1.40464 -0.234656 0
M  V30 17 H -3.70692 0.324789 -0.273636 0
M  V30 18 H 0.442811 2.52243 0.541315 0
M  V30 END ATOM
M  V30 BEGIN BOND
M  V30 1 1 1 2
M  V30 2 2 2 3
M  V30 3 1 3 4
M  V30 4 1 4 5
M  V30 5 2 4 6
M  V30 6 1 6 7
M  V30 7 1 6 8
M  V30 8 2 8 9
M  V30 9 1 9 10
M  V30 10 1 10 11
M  V30 11 2 10 12
M  V30 12 1 9 2
M  V30 13 1 1 13
M  V30 14 1 1 14
M  V30 15 1 3 15
M  V30 16 1 5 16
M  V30 17 1 5 17
M  V30 18 1 8 18
M  V30 END BOND
M  V30 END CTAB
M  END
