
     RDKit          3D

  0  0  0  0  0  0  0  0  0  0999 V3000
M  V30 BEGIN CTAB
M  V30 COUNTS 23 24 0 0 0
M  V30 BEGIN ATOM
M  V30 1 N -3.83605 -1.56372 -0.420313 0
M  V30 2 C -2.66065 -0.768486 -0.33466 0
M  V30 3 N -1.40981 -1.17807 -0.0905389 0
M  V30 4 N -0.599766 -0.139365 -0.0912641 0
M  V30 5 C -1.28299 0.991976 -0.335149 0
M  V30 6 C -2.59576 0.599269 -0.491169 0
M  V30 7 N -0.748289 2.32784 -0.414812 0
M  V30 8 C 0.822475 -0.226083 0.140175 0
M  V30 9 C 1.62323 -0.86282 -0.774521 0
M  V30 10 C 2.97966 -0.945588 -0.553886 0
M  V30 11 C 3.59576 -0.41295 0.559914 0
M  V30 12 C 2.75229 0.216667 1.45037 0
M  V30 13 C 1.39498 0.3165 1.25983 0
M  V30 14 Cl 0.377252 1.14309 2.45317 0
M  V30 15 H -4.67961 -1.25065 -0.928803 0
M  V30 16 H -3.87309 -2.50007 0.0379186 0
M  V30 17 H -3.43603 1.27848 -0.70437 0
M  V30 18 H -1.1574 3.04403 0.223659 0
M  V30 19 H 0.0181513 2.52281 -1.1004 0
M  V30 20 H 1.20132 -1.31048 -1.68464 0
M  V30 21 H 3.64927 -1.44813 -1.26561 0
M  V30 22 H 4.66751 -0.484706 0.722954 0
M  V30 23 H 3.19754 0.650453 2.34214 0
M  V30 END ATOM
M  V30 BEGIN BOND
M  V30 1 1 1 2
M  V30 2 2 2 3
M  V30 3 1 3 4
M  V30 4 1 4 5
M  V30 5 2 5 6
M  V30 6 1 5 7
M  V30 7 1 4 8
M  V30 8 2 8 9
M  V30 9 1 9 10
M  V30 10 2 10 11
M  V30 11 1 11 12
M  V30 12 2 12 13
M  V30 13 1 13 14
M  V30 14 1 6 2
M  V30 15 1 13 8
M  V30 16 1 1 15
M  V30 17 1 1 16
M  V30 18 1 6 17
M  V30 19 1 7 18
M  V30 20 1 7 19
M  V30 21 1 9 20
M  V30 22 1 10 21
M  V30 23 1 11 22
M  V30 24 1 12 23
M  V30 END BOND
M  V30 END CTAB
M  END
