
     RDKit          3D

  0  0  0  0  0  0  0  0  0  0999 V3000
M  V30 BEGIN CTAB
M  V30 COUNTS 29 29 0 0 0
M  V30 BEGIN ATOM
M  V30 1 C -1.63316 1.11658 -0.586105 0
M  V30 2 N -2.3266 -0.0888365 -0.335627 0
M  V30 3 C -1.94126 -0.749466 0.849065 0
M  V30 4 C -0.640664 -1.42861 0.813086 0
M  V30 5 C 0.576397 -0.655993 0.547589 0
M  V30 6 N 1.32138 -0.751417 -0.578693 0
M  V30 7 N 2.36407 0.0467997 -0.541419 0
M  V30 8 C 2.28544 0.67745 0.652886 0
M  V30 9 N 1.19969 0.252489 1.3183 0
M  V30 10 N 3.25006 1.63265 1.05291 0
M  V30 11 C 3.37423 0.213592 -1.56779 0
M  V30 12 N -0.373199 -2.05363 2.16077 0
M  V30 13 C -3.74454 0.0294594 -0.53327 0
M  V30 14 H -0.774306 1.10871 -1.2424 0
M  V30 15 H -2.39812 1.84981 -1.02189 0
M  V30 16 H -1.3043 1.53037 0.412446 0
M  V30 17 H -2.03748 -0.0683859 1.75136 0
M  V30 18 H -2.71281 -1.58218 1.04865 0
M  V30 19 H -0.64809 -2.31123 0.109947 0
M  V30 20 H 3.83551 1.4949 1.89017 0
M  V30 21 H 3.37179 2.49653 0.489291 0
M  V30 22 H 3.35145 -0.632699 -2.28841 0
M  V30 23 H 4.37963 0.248825 -1.14795 0
M  V30 24 H 3.2188 1.14204 -2.15126 0
M  V30 25 H 0.533002 -2.56066 1.9802 0
M  V30 26 H -0.104775 -1.23346 2.75242 0
M  V30 27 H -4.0638 1.06033 -0.231067 0
M  V30 28 H -4.04272 -0.0423184 -1.60627 0
M  V30 29 H -4.31563 -0.741656 0.00490192 0
M  V30 END ATOM
M  V30 BEGIN BOND
M  V30 1 1 1 2
M  V30 2 1 2 3
M  V30 3 1 3 4
M  V30 4 1 4 5
M  V30 5 2 5 6
M  V30 6 1 6 7
M  V30 7 1 7 8
M  V30 8 2 8 9
M  V30 9 1 8 10
M  V30 10 1 7 11
M  V30 11 1 4 12
M  V30 12 1 2 13
M  V30 13 1 9 5
M  V30 14 1 1 14
M  V30 15 1 1 15
M  V30 16 1 1 16
M  V30 17 1 3 17
M  V30 18 1 3 18
M  V30 19 1 4 19
M  V30 20 1 10 20
M  V30 21 1 10 21
M  V30 22 1 11 22
M  V30 23 1 11 23
M  V30 24 1 11 24
M  V30 25 1 12 25
M  V30 26 1 12 26
M  V30 27 1 13 27
M  V30 28 1 13 28
M  V30 29 1 13 29
M  V30 END BOND
M  V30 END CTAB
M  END
