
     RDKit          3D

  0  0  0  0  0  0  0  0  0  0999 V3000
M  V30 BEGIN CTAB
M  V30 COUNTS 26 27 0 0 0
M  V30 BEGIN ATOM
M  V30 1 C -2.68583 1.1089 -0.185467 0
M  V30 2 C -2.50956 -0.37051 0.0533884 0
M  V30 3 C -1.51144 -0.66233 1.14522 0
M  V30 4 C -0.262661 -0.972678 0.388469 0
M  V30 5 O -0.548404 -0.954849 -0.960134 0
M  V30 6 C -1.90265 -1.07223 -1.13036 0
M  V30 7 C 0.853345 -0.0262123 0.728858 0
M  V30 8 N 0.93902 0.846361 1.7346 0
M  V30 9 N 2.11476 1.47486 1.64168 0
M  V30 10 C 2.77941 1.01012 0.584896 0
M  V30 11 N 1.9788 0.0632442 0.0126892 0
M  V30 12 N 2.29177 -0.681818 -1.1294 0
M  V30 13 N 4.06022 1.3559 0.068549 0
M  V30 14 H -2.93968 1.29814 -1.26453 0
M  V30 15 H -3.50009 1.51575 0.464928 0
M  V30 16 H -1.78554 1.69811 0.0302625 0
M  V30 17 H -3.52251 -0.786168 0.303334 0
M  V30 18 H -1.90696 -1.52777 1.71892 0
M  V30 19 H -1.41981 0.25682 1.77155 0
M  V30 20 H 0.0820462 -1.98042 0.695746 0
M  V30 21 H -2.17243 -0.493859 -2.06144 0
M  V30 22 H -2.24959 -2.12077 -1.24142 0
M  V30 23 H 2.74407 -1.62105 -1.08147 0
M  V30 24 H 2.0743 -0.30494 -2.07457 0
M  V30 25 H 4.1034 1.88157 -0.831167 0
M  V30 26 H 4.896 1.06583 0.616867 0
M  V30 END ATOM
M  V30 BEGIN BOND
M  V30 1 1 1 2
M  V30 2 1 2 3
M  V30 3 1 3 4
M  V30 4 1 4 5
M  V30 5 1 5 6
M  V30 6 1 4 7
M  V30 7 2 7 8
M  V30 8 1 8 9
M  V30 9 2 9 10
M  V30 10 1 10 11
M  V30 11 1 11 12
M  V30 12 1 10 13
M  V30 13 1 6 2
M  V30 14 1 11 7
M  V30 15 1 1 14
M  V30 16 1 1 15
M  V30 17 1 1 16
M  V30 18 1 2 17
M  V30 19 1 3 18
M  V30 20 1 3 19
M  V30 21 1 4 20
M  V30 22 1 6 21
M  V30 23 1 6 22
M  V30 24 1 12 23
M  V30 25 1 12 24
M  V30 26 1 13 25
M  V30 27 1 13 26
M  V30 END BOND
M  V30 END CTAB
M  END
