
     RDKit          3D

  0  0  0  0  0  0  0  0  0  0999 V3000
M  V30 BEGIN CTAB
M  V30 COUNTS 34 36 0 0 0
M  V30 BEGIN ATOM
M  V30 1 N 1.14575 -0.233686 -2.58454 0
M  V30 2 C 0.605356 0.297512 -1.39122 0
M  V30 3 N 1.3714 1.09445 -0.631718 0
M  V30 4 C 0.910341 1.63244 0.519686 0
M  V30 5 C 1.75823 2.5066 1.34911 0
M  V30 6 S 2.6622 1.56514 2.59334 0
M  V30 7 C 3.87213 0.510446 1.78584 0
M  V30 8 N 4.16819 0.351475 0.503619 0
M  V30 9 N 5.06948 -0.456606 0.152271 0
M  V30 10 C 5.72854 -1.15484 1.07109 0
M  V30 11 S 4.98952 -0.596779 2.50507 0
M  V30 12 N 6.78225 -2.11579 0.84156 0
M  V30 13 N -0.344546 1.34006 0.876716 0
M  V30 14 C -1.17219 0.531888 0.139644 0
M  V30 15 N -0.643563 0.0432489 -0.977715 0
M  V30 16 N -2.4692 0.331364 0.632607 0
M  V30 17 C -3.45617 -0.476354 0.0228882 0
M  V30 18 C -3.26923 -1.4535 -0.908962 0
M  V30 19 C -4.33094 -2.17259 -1.45817 0
M  V30 20 C -5.62174 -1.94227 -1.09565 0
M  V30 21 C -5.84063 -0.954968 -0.14966 0
M  V30 22 C -4.79711 -0.248591 0.389255 0
M  V30 23 F -6.67627 -2.63483 -1.62107 0
M  V30 24 H 0.843464 -1.20899 -2.88155 0
M  V30 25 H 1.81693 0.249222 -3.20061 0
M  V30 26 H 2.46209 3.10511 0.723852 0
M  V30 27 H 1.13146 3.27975 1.87806 0
M  V30 28 H 7.60695 -1.76557 0.343177 0
M  V30 29 H 6.68198 -3.07971 1.16842 0
M  V30 30 H -2.73195 0.831793 1.55191 0
M  V30 31 H -2.26405 -1.69208 -1.2243 0
M  V30 32 H -4.10093 -2.9237 -2.18436 0
M  V30 33 H -6.87921 -0.784594 0.128219 0
M  V30 34 H -5.00851 0.523874 1.13322 0
M  V30 END ATOM
M  V30 BEGIN BOND
M  V30 1 1 1 2
M  V30 2 2 2 3
M  V30 3 1 3 4
M  V30 4 1 4 5
M  V30 5 1 5 6
M  V30 6 1 6 7
M  V30 7 2 7 8
M  V30 8 1 8 9
M  V30 9 2 9 10
M  V30 10 1 10 11
M  V30 11 1 10 12
M  V30 12 2 4 13
M  V30 13 1 13 14
M  V30 14 2 14 15
M  V30 15 1 14 16
M  V30 16 1 16 17
M  V30 17 2 17 18
M  V30 18 1 18 19
M  V30 19 2 19 20
M  V30 20 1 20 21
M  V30 21 2 21 22
M  V30 22 1 20 23
M  V30 23 1 15 2
M  V30 24 1 22 17
M  V30 25 1 11 7
M  V30 26 1 1 24
M  V30 27 1 1 25
M  V30 28 1 5 26
M  V30 29 1 5 27
M  V30 30 1 12 28
M  V30 31 1 12 29
M  V30 32 1 16 30
M  V30 33 1 18 31
M  V30 34 1 19 32
M  V30 35 1 21 33
M  V30 36 1 22 34
M  V30 END BOND
M  V30 END CTAB
M  END
