
     RDKit          3D

  0  0  0  0  0  0  0  0  0  0999 V3000
M  V30 BEGIN CTAB
M  V30 COUNTS 35 34 0 0 0
M  V30 BEGIN ATOM
M  V30 1 N 5.83028 0.188194 -0.890757 0
M  V30 2 C 4.39277 -0.0654578 -0.969571 0
M  V30 3 C 3.83587 -0.491659 0.35268 0
M  V30 4 C 2.35804 -0.776951 0.308964 0
M  V30 5 C 1.63927 0.470367 -0.11433 0
M  V30 6 C 0.132686 0.255941 -0.177308 0
M  V30 7 C -0.426335 -0.14854 1.14873 0
M  V30 8 C -1.93104 -0.360948 1.08025 0
M  V30 9 C -2.65432 0.877347 0.665788 0
M  V30 10 N -4.0748 0.669001 0.609163 0
M  V30 11 C -4.75429 -0.143143 -0.329276 0
M  V30 12 N -5.58466 0.469183 -1.29997 0
M  V30 13 N -4.58682 -1.41485 -0.25683 0
M  V30 14 H 6.24432 -0.536286 -0.282664 0
M  V30 15 H 5.9768 1.12219 -0.424307 0
M  V30 16 H 4.15388 -0.816948 -1.72383 0
M  V30 17 H 3.93069 0.90152 -1.29738 0
M  V30 18 H 4.03687 0.360333 1.06386 0
M  V30 19 H 4.4046 -1.34452 0.800148 0
M  V30 20 H 2.01794 -1.06801 1.3245 0
M  V30 21 H 2.19549 -1.60655 -0.412953 0
M  V30 22 H 1.92297 1.31087 0.533162 0
M  V30 23 H 1.94289 0.680103 -1.17814 0
M  V30 24 H -0.300442 1.19945 -0.545668 0
M  V30 25 H -0.0416254 -0.511588 -0.960025 0
M  V30 26 H -0.122253 0.521032 1.94792 0
M  V30 27 H -0.0069024 -1.16951 1.38882 0
M  V30 28 H -2.23199 -0.657591 2.12488 0
M  V30 29 H -2.13261 -1.22327 0.448302 0
M  V30 30 H -2.3809 1.73984 1.31611 0
M  V30 31 H -2.33723 1.09755 -0.397168 0
M  V30 32 H -4.67556 1.16191 1.32743 0
M  V30 33 H -5.13591 0.816483 -2.17135 0
M  V30 34 H -6.61197 0.598229 -1.20698 0
M  V30 35 H -5.02572 -2.10373 -0.880803 0
M  V30 END ATOM
M  V30 BEGIN BOND
M  V30 1 1 1 2
M  V30 2 1 2 3
M  V30 3 1 3 4
M  V30 4 1 4 5
M  V30 5 1 5 6
M  V30 6 1 6 7
M  V30 7 1 7 8
M  V30 8 1 8 9
M  V30 9 1 9 10
M  V30 10 1 10 11
M  V30 11 1 11 12
M  V30 12 2 11 13 CFG=2
M  V30 13 1 1 14
M  V30 14 1 1 15
M  V30 15 1 2 16
M  V30 16 1 2 17
M  V30 17 1 3 18
M  V30 18 1 3 19
M  V30 19 1 4 20
M  V30 20 1 4 21
M  V30 21 1 5 22
M  V30 22 1 5 23
M  V30 23 1 6 24
M  V30 24 1 6 25
M  V30 25 1 7 26
M  V30 26 1 7 27
M  V30 27 1 8 28
M  V30 28 1 8 29
M  V30 29 1 9 30
M  V30 30 1 9 31
M  V30 31 1 10 32
M  V30 32 1 12 33
M  V30 33 1 12 34
M  V30 34 1 13 35
M  V30 END BOND
M  V30 END CTAB
M  END
