
     RDKit          3D

  0  0  0  0  0  0  0  0  0  0999 V3000
M  V30 BEGIN CTAB
M  V30 COUNTS 24 24 0 0 0
M  V30 BEGIN ATOM
M  V30 1 C -2.10725 2.76698 0.0779523 0
M  V30 2 C -2.24235 1.57007 0.129333 0
M  V30 3 C -2.42968 0.0954406 0.191836 0
M  V30 4 N -1.38588 -0.500958 0.950892 0
M  V30 5 C -0.0133748 -0.479097 0.683747 0
M  V30 6 C 0.50961 0.158086 -0.418874 0
M  V30 7 C 1.87459 0.166843 -0.66058 0
M  V30 8 N 2.3775 0.833105 -1.80605 0
M  V30 9 N 2.70536 -0.449001 0.182038 0
M  V30 10 C 2.20599 -1.07435 1.26175 0
M  V30 11 N 0.879038 -1.07851 1.48985 0
M  V30 12 N 3.13787 -1.70798 2.1158 0
M  V30 13 C -2.54607 -0.376456 -1.21031 0
M  V30 14 H -1.99052 3.8178 0.0174741 0
M  V30 15 H -3.41185 -0.106039 0.713386 0
M  V30 16 H -1.67266 -1.0314 1.83176 0
M  V30 17 H -0.0951419 0.667442 -1.13216 0
M  V30 18 H 1.89166 0.699006 -2.70945 0
M  V30 19 H 3.20925 1.43927 -1.74494 0
M  V30 20 H 2.99282 -2.69182 2.39213 0
M  V30 21 H 3.966 -1.20273 2.47085 0
M  V30 22 H -2.32574 0.426937 -1.97445 0
M  V30 23 H -3.59557 -0.665001 -1.4152 0
M  V30 24 H -1.9336 -1.27762 -1.43677 0
M  V30 END ATOM
M  V30 BEGIN BOND
M  V30 1 3 1 2
M  V30 2 1 2 3
M  V30 3 1 3 4
M  V30 4 1 4 5
M  V30 5 2 5 6
M  V30 6 1 6 7
M  V30 7 1 7 8
M  V30 8 2 7 9
M  V30 9 1 9 10
M  V30 10 2 10 11
M  V30 11 1 10 12
M  V30 12 1 3 13
M  V30 13 1 11 5
M  V30 14 1 1 14
M  V30 15 1 3 15
M  V30 16 1 4 16
M  V30 17 1 6 17
M  V30 18 1 8 18
M  V30 19 1 8 19
M  V30 20 1 12 20
M  V30 21 1 12 21
M  V30 22 1 13 22
M  V30 23 1 13 23
M  V30 24 1 13 24
M  V30 END BOND
M  V30 END CTAB
M  END
