
     RDKit          3D

  0  0  0  0  0  0  0  0  0  0999 V3000
M  V30 BEGIN CTAB
M  V30 COUNTS 29 30 0 0 0
M  V30 BEGIN ATOM
M  V30 1 N -5.9577 0.253651 -1.10957 0
M  V30 2 C -4.59141 0.109167 -0.743038 0
M  V30 3 N -4.18084 0.478193 0.483884 0
M  V30 4 C -2.89881 0.355505 0.862669 0
M  V30 5 N -2.41747 0.730472 2.14497 0
M  V30 6 C -2.00764 -0.160108 -0.0392511 0
M  V30 7 N -0.641517 -0.323484 0.276075 0
M  V30 8 N 0.289002 0.0713588 -0.51427 0
M  V30 9 C 1.65215 -0.0767545 -0.229238 0
M  V30 10 C 2.56736 -0.258139 -1.25184 0
M  V30 11 C 3.89051 -0.397994 -0.916476 0
M  V30 12 C 4.34836 -0.366894 0.37778 0
M  V30 13 C 3.41971 -0.185266 1.37951 0
M  V30 14 C 2.06921 -0.038768 1.0928 0
M  V30 15 N 5.74085 -0.517628 0.678548 0 CHG=1
M  V30 16 O 6.65345 -0.697926 -0.333001 0 CHG=-1
M  V30 17 O 6.0961 -0.480692 1.87339 0
M  V30 18 C -2.41408 -0.548595 -1.31659 0
M  V30 19 O -1.54453 -1.07409 -2.25726 0
M  V30 20 N -3.70756 -0.394234 -1.61595 0
M  V30 21 H -6.57168 -0.577967 -0.948657 0
M  V30 22 H -6.38189 1.09382 -1.51222 0
M  V30 23 H -2.85959 0.223146 2.96303 0
M  V30 24 H -1.67429 1.45884 2.29438 0
M  V30 25 H 2.28775 -0.29372 -2.28805 0
M  V30 26 H 4.63761 -0.542213 -1.69426 0
M  V30 27 H 3.72568 -0.152762 2.41808 0
M  V30 28 H 1.37902 0.101226 1.91149 0
M  V30 29 H -0.907783 -1.82999 -1.98693 0
M  V30 END ATOM
M  V30 BEGIN BOND
M  V30 1 1 1 2
M  V30 2 2 2 3
M  V30 3 1 3 4
M  V30 4 1 4 5
M  V30 5 2 4 6
M  V30 6 1 6 7
M  V30 7 2 7 8 CFG=2
M  V30 8 1 8 9
M  V30 9 2 9 10
M  V30 10 1 10 11
M  V30 11 2 11 12
M  V30 12 1 12 13
M  V30 13 2 13 14
M  V30 14 1 12 15
M  V30 15 1 15 16
M  V30 16 2 15 17
M  V30 17 1 6 18
M  V30 18 1 18 19
M  V30 19 2 18 20
M  V30 20 1 20 2
M  V30 21 1 14 9
M  V30 22 1 1 21
M  V30 23 1 1 22
M  V30 24 1 5 23
M  V30 25 1 5 24
M  V30 26 1 10 25
M  V30 27 1 11 26
M  V30 28 1 13 27
M  V30 29 1 14 28
M  V30 30 1 19 29
M  V30 END BOND
M  V30 END CTAB
M  END
