
     RDKit          3D

  0  0  0  0  0  0  0  0  0  0999 V3000
M  V30 BEGIN CTAB
M  V30 COUNTS 30 30 0 0 0
M  V30 BEGIN ATOM
M  V30 1 C -0.858085 -1.60955 0.994575 0
M  V30 2 N -0.609698 -0.305439 0.469497 0
M  V30 3 C 0.68924 -0.0466119 -0.114749 0
M  V30 4 N 0.827135 0.183768 -1.4231 0
M  V30 5 C 2.01992 0.416221 -2.00422 0
M  V30 6 C 3.13624 0.41081 -1.18818 0
M  V30 7 C 3.07344 0.183342 0.155255 0
M  V30 8 C 1.80223 -0.0516685 0.698544 0
M  V30 9 N 1.65649 -0.286441 2.08789 0
M  V30 10 N 4.19755 0.17209 1.02452 0
M  V30 11 C -1.57773 0.752688 0.502139 0
M  V30 12 C -2.73985 0.559969 -0.368166 0
M  V30 13 C -2.94984 1.46766 -1.33759 0
M  V30 14 C -3.68819 -0.559324 -0.215221 0
M  V30 15 H -1.38037 -2.19869 0.192577 0
M  V30 16 H -1.4634 -1.59725 1.92272 0
M  V30 17 H 0.0804119 -2.13973 1.27194 0
M  V30 18 H 2.12752 0.603064 -3.06991 0
M  V30 19 H 4.12506 0.592178 -1.60484 0
M  V30 20 H 1.00829 0.235819 2.69338 0
M  V30 21 H 2.24206 -1.03098 2.51671 0
M  V30 22 H 4.93578 0.898573 0.914914 0
M  V30 23 H 4.3043 -0.529648 1.75737 0
M  V30 24 H -1.89881 0.897519 1.58038 0
M  V30 25 H -1.05766 1.73079 0.277252 0
M  V30 26 H -2.27607 2.29552 -1.45128 0
M  V30 27 H -3.78838 1.39043 -2.01955 0
M  V30 28 H -3.76971 -1.17355 -1.13962 0
M  V30 29 H -4.72366 -0.134523 -0.00440341 0
M  V30 30 H -3.44422 -1.12702 0.691846 0
M  V30 END ATOM
M  V30 BEGIN BOND
M  V30 1 1 1 2
M  V30 2 1 2 3
M  V30 3 2 3 4
M  V30 4 1 4 5
M  V30 5 2 5 6
M  V30 6 1 6 7
M  V30 7 2 7 8
M  V30 8 1 8 9
M  V30 9 1 7 10
M  V30 10 1 2 11
M  V30 11 1 11 12
M  V30 12 2 12 13 CFG=2
M  V30 13 1 12 14
M  V30 14 1 8 3
M  V30 15 1 1 15
M  V30 16 1 1 16
M  V30 17 1 1 17
M  V30 18 1 5 18
M  V30 19 1 6 19
M  V30 20 1 9 20
M  V30 21 1 9 21
M  V30 22 1 10 22
M  V30 23 1 10 23
M  V30 24 1 11 24
M  V30 25 1 11 25
M  V30 26 1 13 26
M  V30 27 1 13 27
M  V30 28 1 14 28
M  V30 29 1 14 29
M  V30 30 1 14 30
M  V30 END BOND
M  V30 END CTAB
M  END
