
     RDKit          3D

  0  0  0  0  0  0  0  0  0  0999 V3000
M  V30 BEGIN CTAB
M  V30 COUNTS 31 32 0 0 0
M  V30 BEGIN ATOM
M  V30 1 N 1.29895 -1.82775 -1.68146 0
M  V30 2 C 1.79874 -0.614791 -1.15852 0
M  V30 3 N 2.92662 -0.14643 -1.75398 0
M  V30 4 C 3.52224 0.973408 -1.33354 0
M  V30 5 C 2.97286 1.66391 -0.275917 0
M  V30 6 C 1.82891 1.17151 0.315099 0
M  V30 7 C 1.20072 0.0143465 -0.102588 0
M  V30 8 C -0.0171708 -0.530099 0.531449 0 CFG=1
M  V30 9 C 0.217666 -0.0709963 2.04371 0
M  V30 10 O -0.668697 -0.772172 2.86388 0
M  V30 11 C -1.8815 -0.0531036 2.66439 0
M  V30 12 C -2.26331 -0.33685 1.25713 0
M  V30 13 N -1.27824 -0.00572746 0.254525 0
M  V30 14 S -2.03174 -0.175392 -1.23925 0
M  V30 15 O -2.38166 -1.65511 -1.5202 0
M  V30 16 O -3.41035 0.486609 -1.11201 0
M  V30 17 N -1.26659 0.50809 -2.59859 0
M  V30 18 H 1.22336 -2.69499 -1.14386 0
M  V30 19 H 0.985703 -1.80232 -2.69988 0
M  V30 20 H 4.447 1.33993 -1.8356 0
M  V30 21 H 3.43175 2.56555 0.087027 0
M  V30 22 H 1.3916 1.73762 1.1417 0
M  V30 23 H -0.0128127 -1.64971 0.603264 0
M  V30 24 H 1.2654 -0.24428 2.27524 0
M  V30 25 H -0.0777991 0.980911 2.04546 0
M  V30 26 H -1.60719 1.02022 2.82436 0
M  V30 27 H -2.6579 -0.409776 3.35096 0
M  V30 28 H -2.53005 -1.43649 1.19947 0
M  V30 29 H -3.18753 0.232499 1.01138 0
M  V30 30 H -1.81277 0.183509 -3.44026 0
M  V30 31 H -1.42621 1.54787 -2.5734 0
M  V30 END ATOM
M  V30 BEGIN BOND
M  V30 1 1 1 2
M  V30 2 2 2 3
M  V30 3 1 3 4
M  V30 4 2 4 5
M  V30 5 1 5 6
M  V30 6 2 6 7
M  V30 7 1 7 8
M  V30 8 1 8 9
M  V30 9 1 9 10
M  V30 10 1 10 11
M  V30 11 1 11 12
M  V30 12 1 12 13
M  V30 13 1 13 14
M  V30 14 2 14 15
M  V30 15 2 14 16
M  V30 16 1 14 17
M  V30 17 1 7 2
M  V30 18 1 13 8
M  V30 19 1 1 18
M  V30 20 1 1 19
M  V30 21 1 4 20
M  V30 22 1 5 21
M  V30 23 1 6 22
M  V30 24 1 8 23 CFG=1
M  V30 25 1 9 24
M  V30 26 1 9 25
M  V30 27 1 11 26
M  V30 28 1 11 27
M  V30 29 1 12 28
M  V30 30 1 12 29
M  V30 31 1 17 30
M  V30 32 1 17 31
M  V30 END BOND
M  V30 END CTAB
M  END
