
     RDKit          3D

  0  0  0  0  0  0  0  0  0  0999 V3000
M  V30 BEGIN CTAB
M  V30 COUNTS 34 34 0 0 0
M  V30 BEGIN ATOM
M  V30 1 N 4.399 1.31125 -1.58614 0
M  V30 2 N 3.42714 0.737841 -0.75639 0
M  V30 3 C 2.5344 -0.244752 -1.23358 0
M  V30 4 O 2.57605 -0.645972 -2.42651 0
M  V30 5 C 1.53408 -0.792152 -0.263079 0
M  V30 6 C 0.644145 0.283649 0.268535 0
M  V30 7 N -0.345183 -0.143123 1.20901 0
M  V30 8 C -1.1119 0.995114 1.65011 0
M  V30 9 C -2.54426 0.951436 1.20038 0
M  V30 10 C -2.71722 0.460591 -0.198362 0
M  V30 11 C -1.91283 -0.791071 -0.477475 0
M  V30 12 C -1.16165 -1.22867 0.751422 0
M  V30 13 N -4.1259 0.241198 -0.452762 0
M  V30 14 C 2.33633 -1.40816 0.884803 0
M  V30 15 H 4.558 2.31391 -1.33843 0
M  V30 16 H 4.13777 1.28535 -2.58639 0
M  V30 17 H 3.40112 1.07273 0.217784 0
M  V30 18 H 0.952254 -1.54028 -0.803599 0
M  V30 19 H 1.24676 1.14167 0.636793 0
M  V30 20 H 0.0815176 0.701638 -0.614912 0
M  V30 21 H -0.640028 1.92079 1.26866 0
M  V30 22 H -1.10301 1.06098 2.76832 0
M  V30 23 H -3.17582 0.315219 1.85902 0
M  V30 24 H -2.94818 1.98632 1.24867 0
M  V30 25 H -2.38261 1.2476 -0.911265 0
M  V30 26 H -1.22376 -0.698689 -1.31365 0
M  V30 27 H -2.63057 -1.60824 -0.730337 0
M  V30 28 H -1.92458 -1.53537 1.50099 0
M  V30 29 H -0.501942 -2.07733 0.482091 0
M  V30 30 H -4.30681 -0.321923 -1.31228 0
M  V30 31 H -4.62671 -0.193669 0.34826 0
M  V30 32 H 1.95095 -1.07558 1.86885 0
M  V30 33 H 3.42766 -1.20924 0.775715 0
M  V30 34 H 2.17579 -2.51308 0.861379 0
M  V30 END ATOM
M  V30 BEGIN BOND
M  V30 1 1 1 2
M  V30 2 1 2 3
M  V30 3 2 3 4
M  V30 4 1 3 5
M  V30 5 1 5 6
M  V30 6 1 6 7
M  V30 7 1 7 8
M  V30 8 1 8 9
M  V30 9 1 9 10
M  V30 10 1 10 11
M  V30 11 1 11 12
M  V30 12 1 10 13
M  V30 13 1 5 14
M  V30 14 1 12 7
M  V30 15 1 1 15
M  V30 16 1 1 16
M  V30 17 1 2 17
M  V30 18 1 5 18
M  V30 19 1 6 19
M  V30 20 1 6 20
M  V30 21 1 8 21
M  V30 22 1 8 22
M  V30 23 1 9 23
M  V30 24 1 9 24
M  V30 25 1 10 25
M  V30 26 1 11 26
M  V30 27 1 11 27
M  V30 28 1 12 28
M  V30 29 1 12 29
M  V30 30 1 13 30
M  V30 31 1 13 31
M  V30 32 1 14 32
M  V30 33 1 14 33
M  V30 34 1 14 34
M  V30 END BOND
M  V30 END CTAB
M  END
