
     RDKit          3D

  0  0  0  0  0  0  0  0  0  0999 V3000
M  V30 BEGIN CTAB
M  V30 COUNTS 31 30 0 0 0
M  V30 BEGIN ATOM
M  V30 1 N -5.53147 -0.248264 0.104823 0
M  V30 2 C -4.11625 -0.579909 -0.0504666 0
M  V30 3 C -3.40762 0.667677 -0.463416 0
M  V30 4 C -1.93403 0.498478 -0.667089 0
M  V30 5 N -1.22919 0.0585237 0.497448 0
M  V30 6 C 0.165306 -0.0699967 0.195061 0
M  V30 7 C 0.986794 -0.530571 1.36867 0
M  V30 8 C 2.43362 -0.638304 0.965265 0
M  V30 9 N 2.97869 0.613273 0.51475 0
M  V30 10 C 4.36241 0.611522 0.105748 0
M  V30 11 N 4.9792 -0.58824 -0.331496 0
M  V30 12 N 5.05629 1.70653 0.133626 0
M  V30 13 H -5.74899 -0.276591 1.1145 0
M  V30 14 H -5.76113 0.684618 -0.311732 0
M  V30 15 H -4.02056 -1.4106 -0.761919 0
M  V30 16 H -3.68328 -0.915214 0.926194 0
M  V30 17 H -3.83651 0.987273 -1.44816 0
M  V30 18 H -3.65385 1.45755 0.280123 0
M  V30 19 H -1.80736 -0.210767 -1.52918 0
M  V30 20 H -1.54117 1.47248 -1.04488 0
M  V30 21 H -1.6499 -0.873214 0.776695 0
M  V30 22 H 0.516411 0.934826 -0.156888 0
M  V30 23 H 0.326972 -0.753225 -0.668827 0
M  V30 24 H 0.879295 0.216132 2.18087 0
M  V30 25 H 0.638003 -1.53985 1.66206 0
M  V30 26 H 2.54791 -1.36489 0.132162 0
M  V30 27 H 3.07685 -1.00158 1.78874 0
M  V30 28 H 2.46715 1.50357 0.460342 0
M  V30 29 H 4.89331 -0.992337 -1.2836 0
M  V30 30 H 5.56475 -1.10874 0.350308 0
M  V30 31 H 6.04832 1.68984 -0.162877 0
M  V30 END ATOM
M  V30 BEGIN BOND
M  V30 1 1 1 2
M  V30 2 1 2 3
M  V30 3 1 3 4
M  V30 4 1 4 5
M  V30 5 1 5 6
M  V30 6 1 6 7
M  V30 7 1 7 8
M  V30 8 1 8 9
M  V30 9 1 9 10
M  V30 10 1 10 11
M  V30 11 2 10 12 CFG=2
M  V30 12 1 1 13
M  V30 13 1 1 14
M  V30 14 1 2 15
M  V30 15 1 2 16
M  V30 16 1 3 17
M  V30 17 1 3 18
M  V30 18 1 4 19
M  V30 19 1 4 20
M  V30 20 1 5 21
M  V30 21 1 6 22
M  V30 22 1 6 23
M  V30 23 1 7 24
M  V30 24 1 7 25
M  V30 25 1 8 26
M  V30 26 1 8 27
M  V30 27 1 9 28
M  V30 28 1 11 29
M  V30 29 1 11 30
M  V30 30 1 12 31
M  V30 END BOND
M  V30 END CTAB
M  END
