
     RDKit          3D

  0  0  0  0  0  0  0  0  0  0999 V3000
M  V30 BEGIN CTAB
M  V30 COUNTS 27 27 0 0 0
M  V30 BEGIN ATOM
M  V30 1 N 2.48749 0.0163078 1.38974 0
M  V30 2 P 2.22578 0.318751 -0.317357 0
M  V30 3 N 3.0718 -0.853024 -1.31202 0
M  V30 4 O 2.67211 1.70379 -0.657108 0
M  V30 5 N 0.497435 0.228174 -0.594658 0
M  V30 6 C 0.0225456 -0.92203 0.167913 0
M  V30 7 C -1.23405 -1.40451 -0.496471 0
M  V30 8 C -2.47877 -0.784653 0.04587 0
M  V30 9 C -2.30165 0.594227 0.586145 0
M  V30 10 C -1.57668 1.52657 -0.336976 0
M  V30 11 C -0.0808427 1.46017 -0.125802 0
M  V30 12 H 3.47226 0.313291 1.616 0
M  V30 13 H 2.40415 -0.974236 1.64585 0
M  V30 14 H 4.0966 -0.631308 -1.2315 0
M  V30 15 H 2.93201 -1.81971 -0.967956 0
M  V30 16 H 0.820249 -1.71341 0.0673673 0
M  V30 17 H -0.100376 -0.619075 1.20969 0
M  V30 18 H -1.29032 -2.50818 -0.416167 0
M  V30 19 H -1.18566 -1.17951 -1.59479 0
M  V30 20 H -3.24854 -0.806721 -0.73657 0
M  V30 21 H -2.83801 -1.43027 0.881929 0
M  V30 22 H -3.32656 1.01646 0.762011 0
M  V30 23 H -1.78404 0.610319 1.56584 0
M  V30 24 H -1.87958 2.5746 -0.0622489 0
M  V30 25 H -1.86248 1.38741 -1.39828 0
M  V30 26 H 0.0821851 1.61111 0.973673 0
M  V30 27 H 0.402957 2.28544 -0.664132 0
M  V30 END ATOM
M  V30 BEGIN BOND
M  V30 1 1 1 2
M  V30 2 1 2 3
M  V30 3 2 2 4
M  V30 4 1 2 5
M  V30 5 1 5 6
M  V30 6 1 6 7
M  V30 7 1 7 8
M  V30 8 1 8 9
M  V30 9 1 9 10
M  V30 10 1 10 11
M  V30 11 1 11 5
M  V30 12 1 1 12
M  V30 13 1 1 13
M  V30 14 1 3 14
M  V30 15 1 3 15
M  V30 16 1 6 16
M  V30 17 1 6 17
M  V30 18 1 7 18
M  V30 19 1 7 19
M  V30 20 1 8 20
M  V30 21 1 8 21
M  V30 22 1 9 22
M  V30 23 1 9 23
M  V30 24 1 10 24
M  V30 25 1 10 25
M  V30 26 1 11 26
M  V30 27 1 11 27
M  V30 END BOND
M  V30 END CTAB
M  END
