
     RDKit          3D

  0  0  0  0  0  0  0  0  0  0999 V3000
M  V30 BEGIN CTAB
M  V30 COUNTS 26 26 0 0 0
M  V30 BEGIN ATOM
M  V30 1 N -2.25352 2.19817 0.940069 0
M  V30 2 C -2.58313 0.910728 0.354855 0
M  V30 3 C -1.34785 0.330063 -0.35751 0
M  V30 4 N -0.316936 0.183094 0.6368 0
M  V30 5 C 1.07257 0.0631366 0.379872 0
M  V30 6 C 1.64952 0.165524 -0.861297 0
M  V30 7 C 3.0233 0.00958959 -1.03425 0
M  V30 8 C 3.81121 -0.251126 0.0651054 0
M  V30 9 C 3.21245 -0.348127 1.29485 0
M  V30 10 N 1.88968 -0.1919 1.41577 0
M  V30 11 F 5.15065 -0.414828 -0.0218356 0
M  V30 12 C -1.83019 -1.09576 -0.706288 0
M  V30 13 N -0.833601 -1.82972 -1.37715 0
M  V30 14 H -3.13692 2.69951 1.11701 0
M  V30 15 H -1.66522 2.69699 0.22465 0
M  V30 16 H -2.8313 0.186712 1.14867 0
M  V30 17 H -3.43663 0.964759 -0.347645 0
M  V30 18 H -1.04553 0.902972 -1.22179 0
M  V30 19 H -0.63523 0.161764 1.64812 0
M  V30 20 H 1.05626 0.386275 -1.72333 0
M  V30 21 H 3.47801 0.087625 -1.99868 0
M  V30 22 H 3.85054 -0.556309 2.167 0
M  V30 23 H -2.16906 -1.52755 0.256985 0
M  V30 24 H -2.74914 -0.991219 -1.33614 0
M  V30 25 H -1.15642 -2.34804 -2.2258 0
M  V30 26 H -0.203523 -2.39233 -0.773919 0
M  V30 END ATOM
M  V30 BEGIN BOND
M  V30 1 1 1 2
M  V30 2 1 2 3
M  V30 3 1 3 4
M  V30 4 1 4 5
M  V30 5 2 5 6
M  V30 6 1 6 7
M  V30 7 2 7 8
M  V30 8 1 8 9
M  V30 9 2 9 10
M  V30 10 1 8 11
M  V30 11 1 3 12
M  V30 12 1 12 13
M  V30 13 1 10 5
M  V30 14 1 1 14
M  V30 15 1 1 15
M  V30 16 1 2 16
M  V30 17 1 2 17
M  V30 18 1 3 18
M  V30 19 1 4 19
M  V30 20 1 6 20
M  V30 21 1 7 21
M  V30 22 1 9 22
M  V30 23 1 12 23
M  V30 24 1 12 24
M  V30 25 1 13 25
M  V30 26 1 13 26
M  V30 END BOND
M  V30 END CTAB
M  END
