
     RDKit          3D

  0  0  0  0  0  0  0  0  0  0999 V3000
M  V30 BEGIN CTAB
M  V30 COUNTS 92 93 0 0 0
M  V30 BEGIN ATOM
M  V30 1 C -1.64251 2.12112 1.26097 0 CFG=2
M  V30 2 C -1.36832 3.20653 0.324931 0
M  V30 3 C -2.16885 4.45318 0.385039 0
M  V30 4 C -3.62425 4.41568 0.181665 0
M  V30 5 N -4.11938 5.81339 0.246678 0
M  V30 6 C -5.50169 6.00171 0.0708041 0
M  V30 7 N -6.38736 4.95439 -0.299729 0
M  V30 8 N -6.04524 7.17523 0.244602 0
M  V30 9 N -0.751756 0.967568 1.16305 0
M  V30 10 C 0.572831 0.779865 0.850995 0
M  V30 11 O 1.3423 0.531698 1.88365 0
M  V30 12 C 1.3847 0.778957 -0.374503 0 CFG=2
M  V30 13 C 2.15576 2.01027 -0.687344 0
M  V30 14 C 3.1596 2.52327 0.220159 0
M  V30 15 C 4.32652 1.61222 0.497476 0
M  V30 16 C 5.08469 1.29136 -0.769857 0
M  V30 17 N 6.21252 0.441152 -0.541369 0
M  V30 18 C 7.32146 0.761667 0.275795 0
M  V30 19 O 7.37024 1.86319 0.865589 0
M  V30 20 C 8.45063 -0.159659 0.472211 0
M  V30 21 O 8.326 -1.35706 -0.213019 0
M  V30 22 N 9.41857 -2.13535 0.033584 0
M  V30 23 N 0.685875 0.418497 -1.58259 0
M  V30 24 C 0.407091 -0.888774 -2.04782 0
M  V30 25 O 0.42454 -1.18266 -3.29827 0
M  V30 26 C 0.0698275 -2.04419 -1.17108 0 CFG=2
M  V30 27 C 1.29328 -2.95504 -0.994306 0
M  V30 28 C 0.922792 -4.08592 -0.116297 0
M  V30 29 C 1.07447 -3.95165 1.24533 0
M  V30 30 C 0.7264 -5.01684 2.04963 0
M  V30 31 C 0.238602 -6.19674 1.54952 0
M  V30 32 C 0.0998173 -6.29789 0.187761 0
M  V30 33 C 0.438391 -5.25042 -0.652194 0
M  V30 34 N -0.927628 -2.90129 -1.82213 0
M  V30 35 C -2.23884 -3.09557 -1.38033 0
M  V30 36 O -2.8648 -4.16284 -1.7177 0
M  V30 37 C -2.98183 -2.13758 -0.529139 0 CFG=2
M  V30 38 C -3.41918 -2.76507 0.784413 0
M  V30 39 C -4.29703 -3.9218 0.632252 0
M  V30 40 O -3.78142 -5.18795 0.817519 0
M  V30 41 O -5.50025 -3.76444 0.337861 0
M  V30 42 N -4.06698 -1.54598 -1.26237 0
M  V30 43 C -4.04141 -0.247602 -1.82072 0
M  V30 44 O -4.70037 -0.0290645 -2.8662 0
M  V30 45 C -3.26633 0.81944 -1.19741 0
M  V30 46 N -3.76828 1.19267 0.0981837 0
M  V30 47 C -3.05105 1.59169 1.22872 0
M  V30 48 O -3.70618 1.47265 2.3402 0
M  V30 49 H -1.57761 2.59784 2.29504 0
M  V30 50 H -1.43561 2.86301 -0.763263 0
M  V30 51 H -0.297257 3.56242 0.371283 0
M  V30 52 H -1.7404 5.24997 -0.30047 0
M  V30 53 H -1.99368 4.95423 1.40835 0
M  V30 54 H -4.14076 3.96007 1.06558 0
M  V30 55 H -3.97102 4.04658 -0.789304 0
M  V30 56 H -3.47966 6.58506 0.410881 0
M  V30 57 H -7.40669 4.96415 -0.0806299 0
M  V30 58 H -6.02315 4.12516 -0.816586 0
M  V30 59 H -7.04977 7.37121 0.129995 0
M  V30 60 H -1.30575 0.0710023 1.43437 0
M  V30 61 H 2.20144 -0.0337458 -0.305207 0
M  V30 62 H 2.67743 1.76596 -1.6725 0
M  V30 63 H 1.4365 2.80746 -1.00463 0
M  V30 64 H 2.81093 2.91793 1.19424 0
M  V30 65 H 3.6302 3.43551 -0.266841 0
M  V30 66 H 4.05887 0.688632 1.0545 0
M  V30 67 H 5.02283 2.23357 1.13761 0
M  V30 68 H 5.45427 2.24624 -1.20198 0
M  V30 69 H 4.41025 0.778303 -1.49918 0
M  V30 70 H 6.25376 -0.511906 -1.00519 0
M  V30 71 H 8.51105 -0.431493 1.55972 0
M  V30 72 H 9.42601 0.313528 0.225053 0
M  V30 73 H 9.46383 -2.42536 1.03863 0
M  V30 74 H 10.3104 -1.58797 -0.14427 0
M  V30 75 H 0.335426 1.19417 -2.19775 0
M  V30 76 H -0.228869 -1.73009 -0.169765 0
M  V30 77 H 2.11595 -2.39697 -0.536288 0
M  V30 78 H 1.65717 -3.29628 -1.98816 0
M  V30 79 H 1.45403 -3.04811 1.71823 0
M  V30 80 H 0.836308 -4.93534 3.12488 0
M  V30 81 H -0.0385042 -7.04007 2.16823 0
M  V30 82 H -0.283187 -7.2111 -0.273114 0
M  V30 83 H 0.308773 -5.38487 -1.71453 0
M  V30 84 H -0.639131 -3.41429 -2.69444 0
M  V30 85 H -2.2233 -1.36414 -0.228807 0
M  V30 86 H -3.90341 -2.01028 1.4266 0
M  V30 87 H -2.46084 -3.02579 1.31339 0
M  V30 88 H -4.23912 -5.95933 0.376911 0
M  V30 89 H -4.9393 -2.12371 -1.39236 0
M  V30 90 H -2.23561 0.4609 -1.05524 0
M  V30 91 H -3.21297 1.6729 -1.90476 0
M  V30 92 H -4.83582 1.14902 0.169295 0
M  V30 END ATOM
M  V30 BEGIN BOND
M  V30 1 1 1 2
M  V30 2 1 2 3
M  V30 3 1 3 4
M  V30 4 1 4 5
M  V30 5 1 5 6
M  V30 6 1 6 7
M  V30 7 2 6 8 CFG=2
M  V30 8 1 1 9
M  V30 9 1 9 10
M  V30 10 2 10 11
M  V30 11 1 10 12
M  V30 12 1 12 13
M  V30 13 1 13 14
M  V30 14 1 14 15
M  V30 15 1 15 16
M  V30 16 1 16 17
M  V30 17 1 17 18
M  V30 18 2 18 19
M  V30 19 1 18 20
M  V30 20 1 20 21
M  V30 21 1 21 22
M  V30 22 1 12 23
M  V30 23 1 23 24
M  V30 24 2 24 25
M  V30 25 1 24 26
M  V30 26 1 26 27
M  V30 27 1 27 28
M  V30 28 2 28 29
M  V30 29 1 29 30
M  V30 30 2 30 31
M  V30 31 1 31 32
M  V30 32 2 32 33
M  V30 33 1 26 34
M  V30 34 1 34 35
M  V30 35 2 35 36
M  V30 36 1 35 37
M  V30 37 1 37 38
M  V30 38 1 38 39
M  V30 39 1 39 40
M  V30 40 2 39 41
M  V30 41 1 37 42
M  V30 42 1 42 43
M  V30 43 2 43 44
M  V30 44 1 43 45
M  V30 45 1 45 46
M  V30 46 1 46 47
M  V30 47 2 47 48
M  V30 48 1 47 1
M  V30 49 1 33 28
M  V30 50 1 1 49 CFG=1
M  V30 51 1 2 50
M  V30 52 1 2 51
M  V30 53 1 3 52
M  V30 54 1 3 53
M  V30 55 1 4 54
M  V30 56 1 4 55
M  V30 57 1 5 56
M  V30 58 1 7 57
M  V30 59 1 7 58
M  V30 60 1 8 59
M  V30 61 1 9 60
M  V30 62 1 12 61 CFG=1
M  V30 63 1 13 62
M  V30 64 1 13 63
M  V30 65 1 14 64
M  V30 66 1 14 65
M  V30 67 1 15 66
M  V30 68 1 15 67
M  V30 69 1 16 68
M  V30 70 1 16 69
M  V30 71 1 17 70
M  V30 72 1 20 71
M  V30 73 1 20 72
M  V30 74 1 22 73
M  V30 75 1 22 74
M  V30 76 1 23 75
M  V30 77 1 26 76 CFG=1
M  V30 78 1 27 77
M  V30 79 1 27 78
M  V30 80 1 29 79
M  V30 81 1 30 80
M  V30 82 1 31 81
M  V30 83 1 32 82
M  V30 84 1 33 83
M  V30 85 1 34 84
M  V30 86 1 37 85 CFG=1
M  V30 87 1 38 86
M  V30 88 1 38 87
M  V30 89 1 40 88
M  V30 90 1 42 89
M  V30 91 1 45 90
M  V30 92 1 45 91
M  V30 93 1 46 92
M  V30 END BOND
M  V30 END CTAB
M  END
