
     RDKit          3D

  0  0  0  0  0  0  0  0  0  0999 V3000
M  V30 BEGIN CTAB
M  V30 COUNTS 27 26 0 0 0
M  V30 BEGIN ATOM
M  V30 1 C -0.13254 1.1091 -1.38255 0
M  V30 2 C -0.331577 -0.134439 -0.565219 0
M  V30 3 C 0.405386 -0.232928 0.712782 0
M  V30 4 C 1.877 -0.201707 0.685256 0
M  V30 5 C 2.50239 1.03169 0.125914 0
M  V30 6 N -0.020296 -1.50556 1.33559 0
M  V30 7 C -1.82657 -0.319782 -0.352404 0
M  V30 8 C -2.47941 0.782029 0.343554 0
M  V30 9 O -2.75553 1.84102 -0.26156 0
M  V30 10 O -2.80822 0.68673 1.68018 0
M  V30 11 N 0.0675338 -1.23828 -1.4607 0
M  V30 12 H -0.138726 2.04783 -0.81326 0
M  V30 13 H -1.0669 1.17754 -2.03848 0
M  V30 14 H 0.674129 1.0308 -2.14541 0
M  V30 15 H 0.0583061 0.607947 1.38906 0
M  V30 16 H 2.22126 -0.250661 1.76992 0
M  V30 17 H 2.32641 -1.13871 0.256462 0
M  V30 18 H 2.68588 1.02961 -0.961424 0
M  V30 19 H 3.52461 1.11618 0.585366 0
M  V30 20 H 1.88572 1.91389 0.367495 0
M  V30 21 H -0.208016 -2.22955 0.615966 0
M  V30 22 H 0.775635 -1.82932 1.92314 0
M  V30 23 H -1.9762 -1.25299 0.227573 0
M  V30 24 H -2.25625 -0.518702 -1.36065 0
M  V30 25 H -3.41324 -0.0338456 2.06105 0
M  V30 26 H 1.03277 -1.49585 -1.25425 0
M  V30 27 H -0.623552 -1.99203 -1.48339 0
M  V30 END ATOM
M  V30 BEGIN BOND
M  V30 1 1 1 2
M  V30 2 1 2 3
M  V30 3 1 3 4
M  V30 4 1 4 5
M  V30 5 1 3 6
M  V30 6 1 2 7
M  V30 7 1 7 8
M  V30 8 2 8 9
M  V30 9 1 8 10
M  V30 10 1 2 11
M  V30 11 1 1 12
M  V30 12 1 1 13
M  V30 13 1 1 14
M  V30 14 1 3 15
M  V30 15 1 4 16
M  V30 16 1 4 17
M  V30 17 1 5 18
M  V30 18 1 5 19
M  V30 19 1 5 20
M  V30 20 1 6 21
M  V30 21 1 6 22
M  V30 22 1 7 23
M  V30 23 1 7 24
M  V30 24 1 10 25
M  V30 25 1 11 26
M  V30 26 1 11 27
M  V30 END BOND
M  V30 END CTAB
M  END
