
     RDKit          3D

  0  0  0  0  0  0  0  0  0  0999 V3000
M  V30 BEGIN CTAB
M  V30 COUNTS 51 54 0 0 0
M  V30 BEGIN ATOM
M  V30 1 N 8.4602 -2.21906 0.897869 0
M  V30 2 C 7.86877 -2.21272 -0.416029 0
M  V30 3 C 6.71288 -1.28371 -0.424139 0
M  V30 4 C 6.0451 -1.02895 -1.61014 0
M  V30 5 C 4.97755 -0.164548 -1.58332 0
M  V30 6 C 4.52641 0.473417 -0.425591 0
M  V30 7 C 5.23284 0.176872 0.715859 0
M  V30 8 C 6.32226 -0.690196 0.752262 0
M  V30 9 C 3.39268 1.37814 -0.491246 0
M  V30 10 O 2.94081 1.68396 -1.64445 0
M  V30 11 N 2.82674 1.88874 0.688543 0
M  V30 12 C 1.70049 2.79034 0.653234 0
M  V30 13 C 0.481004 1.99545 0.364908 0
M  V30 14 C -0.163483 1.97627 -0.83442 0
M  V30 15 C -1.29673 1.19606 -0.999738 0
M  V30 16 C -1.82595 0.416886 0.00420722 0
M  V30 17 C -1.16825 0.441126 1.21642 0
M  V30 18 C -0.0394485 1.21076 1.39969 0
M  V30 19 C -3.05609 -0.410254 -0.218405 0
M  V30 20 O -4.1965 0.358663 0.0913804 0
M  V30 21 C -5.44504 -0.241153 -0.0555122 0
M  V30 22 N -5.59676 -1.50783 -0.475525 0
M  V30 23 C -6.78371 -2.12284 -0.630327 0
M  V30 24 N -6.83476 -3.45913 -1.07919 0
M  V30 25 N -7.91952 -1.43427 -0.348172 0
M  V30 26 C -7.83435 -0.162178 0.0766783 0
M  V30 27 C -6.61633 0.45925 0.232179 0
M  V30 28 N -6.85203 1.70829 0.662711 0
M  V30 29 C -8.18016 1.91218 0.789569 0
M  V30 30 N -8.76488 0.751863 0.425051 0
M  V30 31 H 8.74828 -1.26267 1.15378 0
M  V30 32 H 7.8594 -2.62672 1.63345 0
M  V30 33 H 7.56575 -3.24827 -0.686188 0
M  V30 34 H 8.61528 -1.80819 -1.12784 0
M  V30 35 H 6.36199 -1.50469 -2.53899 0
M  V30 36 H 4.42689 0.0579084 -2.50774 0
M  V30 37 H 4.93993 0.636309 1.64829 0
M  V30 38 H 6.83782 -0.877755 1.70898 0
M  V30 39 H 3.21436 1.62047 1.60758 0
M  V30 40 H 1.5899 3.38162 1.58547 0
M  V30 41 H 1.88024 3.4874 -0.218298 0
M  V30 42 H 0.206205 2.57127 -1.65464 0
M  V30 43 H -1.82889 1.16715 -1.95817 0
M  V30 44 H -1.58627 -0.175624 2.01264 0
M  V30 45 H 0.463977 1.21749 2.35806 0
M  V30 46 H -3.03686 -0.767364 -1.26269 0
M  V30 47 H -2.97298 -1.31678 0.421524 0
M  V30 48 H -7.43233 -4.14129 -0.593252 0
M  V30 49 H -6.27359 -3.74726 -1.89226 0
M  V30 50 H -8.682 2.83316 1.12129 0
M  V30 51 H -9.81086 0.622402 0.427812 0
M  V30 END ATOM
M  V30 BEGIN BOND
M  V30 1 1 1 2
M  V30 2 1 2 3
M  V30 3 2 3 4
M  V30 4 1 4 5
M  V30 5 2 5 6
M  V30 6 1 6 7
M  V30 7 2 7 8
M  V30 8 1 6 9
M  V30 9 2 9 10
M  V30 10 1 9 11
M  V30 11 1 11 12
M  V30 12 1 12 13
M  V30 13 2 13 14
M  V30 14 1 14 15
M  V30 15 2 15 16
M  V30 16 1 16 17
M  V30 17 2 17 18
M  V30 18 1 16 19
M  V30 19 1 19 20
M  V30 20 1 20 21
M  V30 21 2 21 22
M  V30 22 1 22 23
M  V30 23 1 23 24
M  V30 24 2 23 25
M  V30 25 1 25 26
M  V30 26 2 26 27
M  V30 27 1 27 28
M  V30 28 2 28 29
M  V30 29 1 29 30
M  V30 30 1 8 3
M  V30 31 1 18 13
M  V30 32 1 27 21
M  V30 33 1 30 26
M  V30 34 1 1 31
M  V30 35 1 1 32
M  V30 36 1 2 33
M  V30 37 1 2 34
M  V30 38 1 4 35
M  V30 39 1 5 36
M  V30 40 1 7 37
M  V30 41 1 8 38
M  V30 42 1 11 39
M  V30 43 1 12 40
M  V30 44 1 12 41
M  V30 45 1 14 42
M  V30 46 1 15 43
M  V30 47 1 17 44
M  V30 48 1 18 45
M  V30 49 1 19 46
M  V30 50 1 19 47
M  V30 51 1 24 48
M  V30 52 1 24 49
M  V30 53 1 29 50
M  V30 54 1 30 51
M  V30 END BOND
M  V30 END CTAB
M  END
