
     RDKit          3D

  0  0  0  0  0  0  0  0  0  0999 V3000
M  V30 BEGIN CTAB
M  V30 COUNTS 40 41 0 0 0
M  V30 BEGIN ATOM
M  V30 1 C 3.27103 -2.80022 -0.382333 0
M  V30 2 C 2.05854 -1.87111 -0.291604 0
M  V30 3 C 2.55382 -0.527007 0.0587187 0
M  V30 4 C 1.68266 0.518147 0.230729 0
M  V30 5 C 0.256029 0.359941 0.0554873 0
M  V30 6 C -0.553762 -0.318254 0.963908 0
M  V30 7 C -1.92056 -0.445559 0.777149 0
M  V30 8 N -2.72117 -1.14566 1.7212 0
M  V30 9 N -2.696 -0.958676 2.93264 0 CHG=1
M  V30 10 N -2.42445 -0.717117 4.10418 0 CHG=-1
M  V30 11 C -2.54568 0.0946837 -0.320786 0
M  V30 12 C -1.75051 0.772253 -1.23163 0
M  V30 13 C -0.395249 0.893609 -1.03834 0
M  V30 14 N -3.91796 0.0276561 -0.600258 0
M  V30 15 C -4.55548 -1.2432 -0.791505 0
M  V30 16 C -4.69765 1.23744 -0.698395 0
M  V30 17 C 2.18485 1.75754 0.563875 0
M  V30 18 N 1.31702 2.87053 0.750506 0
M  V30 19 N 3.50413 1.97856 0.72684 0
M  V30 20 C 4.34848 0.943542 0.554461 0
M  V30 21 N 5.75672 1.11396 0.711099 0
M  V30 22 N 3.87874 -0.27711 0.228733 0
M  V30 23 H 3.54119 -3.05128 0.68044 0
M  V30 24 H 4.14231 -2.24564 -0.777694 0
M  V30 25 H 3.03029 -3.72299 -0.928491 0
M  V30 26 H 1.55152 -1.91283 -1.25976 0
M  V30 27 H 1.41713 -2.28937 0.497269 0
M  V30 28 H -0.0824142 -0.742151 1.82078 0
M  V30 29 H -2.19678 1.22193 -2.11957 0
M  V30 30 H 0.176607 1.4412 -1.79683 0
M  V30 31 H -3.93789 -2.03788 -0.369732 0
M  V30 32 H -4.56955 -1.41542 -1.90445 0
M  V30 33 H -5.5941 -1.24992 -0.402979 0
M  V30 34 H -4.60405 1.70666 -1.69918 0
M  V30 35 H -5.75164 1.12064 -0.373935 0
M  V30 36 H -4.24201 1.98257 0.0193204 0
M  V30 37 H 0.545911 2.85793 1.44107 0
M  V30 38 H 1.45666 3.72276 0.175473 0
M  V30 39 H 6.10812 1.45404 1.60937 0
M  V30 40 H 6.37517 0.89581 -0.0655153 0
M  V30 END ATOM
M  V30 BEGIN BOND
M  V30 1 1 1 2
M  V30 2 1 2 3
M  V30 3 2 3 4
M  V30 4 1 4 5
M  V30 5 2 5 6
M  V30 6 1 6 7
M  V30 7 1 7 8
M  V30 8 2 8 9 CFG=2
M  V30 9 2 9 10
M  V30 10 2 7 11
M  V30 11 1 11 12
M  V30 12 2 12 13
M  V30 13 1 11 14
M  V30 14 1 14 15
M  V30 15 1 14 16
M  V30 16 1 4 17
M  V30 17 1 17 18
M  V30 18 2 17 19
M  V30 19 1 19 20
M  V30 20 1 20 21
M  V30 21 2 20 22
M  V30 22 1 22 3
M  V30 23 1 13 5
M  V30 24 1 1 23
M  V30 25 1 1 24
M  V30 26 1 1 25
M  V30 27 1 2 26
M  V30 28 1 2 27
M  V30 29 1 6 28
M  V30 30 1 12 29
M  V30 31 1 13 30
M  V30 32 1 15 31
M  V30 33 1 15 32
M  V30 34 1 15 33
M  V30 35 1 16 34
M  V30 36 1 16 35
M  V30 37 1 16 36
M  V30 38 1 18 37
M  V30 39 1 18 38
M  V30 40 1 21 39
M  V30 41 1 21 40
M  V30 END BOND
M  V30 END CTAB
M  END
