
     RDKit          3D

  0  0  0  0  0  0  0  0  0  0999 V3000
M  V30 BEGIN CTAB
M  V30 COUNTS 55 57 0 0 0
M  V30 BEGIN ATOM
M  V30 1 C -6.96073 0.660083 0.408148 0
M  V30 2 C -5.90645 1.16708 1.36678 0
M  V30 3 C -5.62933 2.63327 1.09251 0
M  V30 4 C -4.61396 0.372238 1.2524 0
M  V30 5 N -4.0601 0.453687 -0.0740081 0
M  V30 6 C -2.85773 -0.22462 -0.371088 0
M  V30 7 C -2.17763 -0.978881 0.558194 0
M  V30 8 C -1.00354 -1.64751 0.286538 0
M  V30 9 C -0.455255 -1.58175 -0.959823 0
M  V30 10 C -1.11552 -0.831997 -1.91351 0
M  V30 11 C -2.29146 -0.160274 -1.64741 0
M  V30 12 C 0.772739 -2.24734 -1.35081 0
M  V30 13 C 1.96939 -1.66321 -1.0084 0
M  V30 14 C 1.9482 -0.399806 -0.265727 0
M  V30 15 O 3.20672 0.0995368 0.0279795 0
M  V30 16 C 2.98796 1.30732 0.732748 0
M  V30 17 C 4.26662 1.9392 1.11089 0
M  V30 18 C 4.91092 2.7931 0.244317 0
M  V30 19 C 6.11562 3.39925 0.581606 0
M  V30 20 C 6.67191 3.14293 1.79751 0
M  V30 21 C 6.04297 2.29626 2.66989 0
M  V30 22 C 4.83133 1.68378 2.33611 0
M  V30 23 N 3.12692 -2.29068 -1.37809 0
M  V30 24 C 3.12758 -3.44928 -2.05881 0
M  V30 25 N 4.38557 -4.04667 -2.40952 0
M  V30 26 N 1.9581 -4.02126 -2.39408 0
M  V30 27 C 0.796762 -3.43545 -2.049 0
M  V30 28 N -0.473563 -4.00034 -2.37963 0
M  V30 29 H -6.93646 -0.44855 0.407671 0
M  V30 30 H -6.77134 1.07235 -0.592805 0
M  V30 31 H -7.95476 0.968394 0.781659 0
M  V30 32 H -6.32265 1.09331 2.38481 0
M  V30 33 H -4.76248 2.74555 0.40279 0
M  V30 34 H -5.39262 3.13321 2.04093 0
M  V30 35 H -6.55549 3.08005 0.656189 0
M  V30 36 H -4.79055 -0.667737 1.57167 0
M  V30 37 H -3.88875 0.884888 1.93221 0
M  V30 38 H -4.5481 1.00616 -0.791683 0
M  V30 39 H -2.60499 -1.04236 1.56698 0
M  V30 40 H -0.507214 -2.22609 1.04886 0
M  V30 41 H -0.732823 -0.736904 -2.9306 0
M  V30 42 H -2.80554 0.432549 -2.4151 0
M  V30 43 H 1.48719 -0.641186 0.739235 0
M  V30 44 H 1.26559 0.370086 -0.694777 0
M  V30 45 H 2.40726 2.01788 0.126294 0
M  V30 46 H 2.36657 1.08319 1.64302 0
M  V30 47 H 4.51567 3.03745 -0.743288 0
M  V30 48 H 6.61901 4.07846 -0.121668 0
M  V30 49 H 7.62533 3.61803 2.07455 0
M  V30 50 H 6.48151 2.08705 3.64241 0
M  V30 51 H 4.39997 1.02904 3.07929 0
M  V30 52 H 4.65116 -4.95499 -2.01995 0
M  V30 53 H 5.03894 -3.56616 -3.06156 0
M  V30 54 H -0.979903 -4.46472 -1.59178 0
M  V30 55 H -0.878528 -3.95763 -3.34109 0
M  V30 END ATOM
M  V30 BEGIN BOND
M  V30 1 1 1 2
M  V30 2 1 2 3
M  V30 3 1 2 4
M  V30 4 1 4 5
M  V30 5 1 5 6
M  V30 6 2 6 7
M  V30 7 1 7 8
M  V30 8 2 8 9
M  V30 9 1 9 10
M  V30 10 2 10 11
M  V30 11 1 9 12
M  V30 12 1 12 13
M  V30 13 1 13 14
M  V30 14 1 14 15
M  V30 15 1 15 16
M  V30 16 1 16 17
M  V30 17 2 17 18
M  V30 18 1 18 19
M  V30 19 2 19 20
M  V30 20 1 20 21
M  V30 21 2 21 22
M  V30 22 2 13 23
M  V30 23 1 23 24
M  V30 24 1 24 25
M  V30 25 2 24 26
M  V30 26 1 26 27
M  V30 27 1 27 28
M  V30 28 1 11 6
M  V30 29 2 27 12
M  V30 30 1 22 17
M  V30 31 1 1 29
M  V30 32 1 1 30
M  V30 33 1 1 31
M  V30 34 1 2 32
M  V30 35 1 3 33
M  V30 36 1 3 34
M  V30 37 1 3 35
M  V30 38 1 4 36
M  V30 39 1 4 37
M  V30 40 1 5 38
M  V30 41 1 7 39
M  V30 42 1 8 40
M  V30 43 1 10 41
M  V30 44 1 11 42
M  V30 45 1 14 43
M  V30 46 1 14 44
M  V30 47 1 16 45
M  V30 48 1 16 46
M  V30 49 1 18 47
M  V30 50 1 19 48
M  V30 51 1 20 49
M  V30 52 1 21 50
M  V30 53 1 22 51
M  V30 54 1 25 52
M  V30 55 1 25 53
M  V30 56 1 28 54
M  V30 57 1 28 55
M  V30 END BOND
M  V30 END CTAB
M  END
