
     RDKit          3D

  0  0  0  0  0  0  0  0  0  0999 V3000
M  V30 BEGIN CTAB
M  V30 COUNTS 55 57 0 0 0
M  V30 BEGIN ATOM
M  V30 1 C -5.83386 2.11151 0.501043 0
M  V30 2 C -5.41731 1.09276 -0.532899 0
M  V30 3 O -4.34311 0.322298 -0.199668 0
M  V30 4 C -3.1809 0.975409 0.0604602 0
M  V30 5 C -2.01786 0.454164 -0.80614 0
M  V30 6 C -1.89024 -0.645914 0.278439 0
M  V30 7 C -2.39115 0.349838 1.22851 0
M  V30 8 C -3.34591 -0.1106 2.31403 0
M  V30 9 C -1.4569 1.37714 1.81925 0
M  V30 10 N -2.94174 -1.61766 -0.0456942 0
M  V30 11 C -0.59117 -1.27061 0.3493 0
M  V30 12 O -0.535246 -2.49162 -0.0925167 0
M  V30 13 N 0.630503 -0.787837 0.815297 0
M  V30 14 C 1.87563 -1.59011 0.796784 0
M  V30 15 C 2.88785 -0.87177 0.0283727 0
M  V30 16 C 4.15031 -0.553293 0.403416 0
M  V30 17 C 5.0285 0.131143 -0.430549 0
M  V30 18 C 4.63614 0.516938 -1.69523 0
M  V30 19 C 3.3547 0.205992 -2.10519 0
M  V30 20 C 2.50319 -0.469145 -1.26583 0
M  V30 21 C 2.9533 0.598398 -3.38267 0
M  V30 22 C 3.78929 1.27467 -4.22154 0
M  V30 23 C 5.07614 1.58852 -3.80899 0
M  V30 24 C 5.48238 1.20203 -2.54247 0
M  V30 25 C 2.23504 -2.10845 2.12644 0
M  V30 26 N 3.43135 -2.90951 2.04254 0
M  V30 27 H -5.09836 2.89856 0.649768 0
M  V30 28 H -6.12435 1.56092 1.42411 0
M  V30 29 H -6.80187 2.55097 0.113974 0
M  V30 30 H -5.31957 1.60011 -1.50442 0
M  V30 31 H -6.29167 0.375847 -0.613689 0
M  V30 32 H -3.17419 2.06852 0.0167761 0
M  V30 33 H -1.15311 1.13469 -0.835956 0
M  V30 34 H -2.34343 0.0627947 -1.77 0
M  V30 35 H -2.74176 -0.60652 3.09494 0
M  V30 36 H -3.74166 0.851694 2.76109 0
M  V30 37 H -4.16337 -0.724556 1.90511 0
M  V30 38 H -0.90804 0.987969 2.6765 0
M  V30 39 H -2.14668 2.17158 2.24839 0
M  V30 40 H -0.84092 1.85951 1.03685 0
M  V30 41 H -3.2851 -2.12598 0.805776 0
M  V30 42 H -2.56692 -2.29043 -0.758366 0
M  V30 43 H 0.746026 0.14572 1.20019 0
M  V30 44 H 1.57719 -2.5014 0.183935 0
M  V30 45 H 4.49576 -0.816888 1.3835 0
M  V30 46 H 6.01832 0.349978 -0.0608969 0
M  V30 47 H 1.51791 -0.687306 -1.63135 0
M  V30 48 H 1.93241 0.335792 -3.66973 0
M  V30 49 H 3.41372 1.55465 -5.2109 0
M  V30 50 H 5.69803 2.1194 -4.50013 0
M  V30 51 H 6.46879 1.43435 -2.20325 0
M  V30 52 H 2.25858 -1.35786 2.94418 0
M  V30 53 H 1.41515 -2.82126 2.44766 0
M  V30 54 H 3.68439 -3.14411 1.05573 0
M  V30 55 H 3.38578 -3.76104 2.63667 0
M  V30 END ATOM
M  V30 BEGIN BOND
M  V30 1 1 1 2
M  V30 2 1 2 3
M  V30 3 1 3 4
M  V30 4 1 4 5
M  V30 5 1 5 6
M  V30 6 1 6 7
M  V30 7 1 7 8
M  V30 8 1 7 9
M  V30 9 1 6 10
M  V30 10 1 6 11
M  V30 11 2 11 12
M  V30 12 1 11 13
M  V30 13 1 13 14
M  V30 14 1 14 15
M  V30 15 2 15 16
M  V30 16 1 16 17
M  V30 17 2 17 18
M  V30 18 1 18 19
M  V30 19 2 19 20
M  V30 20 1 19 21
M  V30 21 2 21 22
M  V30 22 1 22 23
M  V30 23 2 23 24
M  V30 24 1 14 25
M  V30 25 1 25 26
M  V30 26 1 7 4
M  V30 27 1 20 15
M  V30 28 1 24 18
M  V30 29 1 1 27
M  V30 30 1 1 28
M  V30 31 1 1 29
M  V30 32 1 2 30
M  V30 33 1 2 31
M  V30 34 1 4 32
M  V30 35 1 5 33
M  V30 36 1 5 34
M  V30 37 1 8 35
M  V30 38 1 8 36
M  V30 39 1 8 37
M  V30 40 1 9 38
M  V30 41 1 9 39
M  V30 42 1 9 40
M  V30 43 1 10 41
M  V30 44 1 10 42
M  V30 45 1 13 43
M  V30 46 1 14 44
M  V30 47 1 16 45
M  V30 48 1 17 46
M  V30 49 1 20 47
M  V30 50 1 21 48
M  V30 51 1 22 49
M  V30 52 1 23 50
M  V30 53 1 24 51
M  V30 54 1 25 52
M  V30 55 1 25 53
M  V30 56 1 26 54
M  V30 57 1 26 55
M  V30 END BOND
M  V30 END CTAB
M  END
