
     RDKit          3D

  0  0  0  0  0  0  0  0  0  0999 V3000
M  V30 BEGIN CTAB
M  V30 COUNTS 61 63 0 0 0
M  V30 BEGIN ATOM
M  V30 1 C -6.51372 0.096566 -0.524435 0
M  V30 2 C -5.43903 0.438672 0.50514 0
M  V30 3 C -4.79037 1.74267 0.0577101 0
M  V30 4 N -6.06551 0.566584 1.77286 0
M  V30 5 C -5.85823 -0.162022 2.78454 0
M  V30 6 N -6.59657 0.129417 3.98527 0
M  V30 7 N -4.92718 -1.23623 2.74405 0
M  V30 8 C -4.30122 -1.43985 1.63536 0
M  V30 9 N -3.34201 -2.51917 1.53654 0
M  V30 10 N -4.50306 -0.650102 0.482724 0
M  V30 11 C -3.74809 -0.971524 -0.696675 0
M  V30 12 C -4.20636 -1.85681 -1.6477 0
M  V30 13 C -3.43007 -2.12756 -2.76823 0
M  V30 14 C -2.20119 -1.53033 -2.95927 0
M  V30 15 Cl -1.21494 -1.86384 -4.36672 0
M  V30 16 C -1.72437 -0.637127 -2.01283 0
M  V30 17 O -0.48802 -0.00926725 -2.1634 0
M  V30 18 C -0.0626328 0.885786 -1.16754 0
M  V30 19 C 1.28321 1.48635 -1.45932 0
M  V30 20 C 2.33965 0.445518 -1.58281 0
M  V30 21 C 2.49767 -0.398088 -0.344602 0
M  V30 22 C 2.86908 0.494606 0.81192 0
M  V30 23 O 4.0169 1.1817 0.577794 0
M  V30 24 C 5.3172 0.821362 0.384483 0
M  V30 25 C 6.22773 1.8655 0.134918 0
M  V30 26 C 7.56219 1.6559 -0.0752608 0
M  V30 27 C 8.02221 0.356443 -0.037983 0
M  V30 28 C 7.15352 -0.680537 0.204221 0
M  V30 29 C 5.81334 -0.463159 0.415147 0
M  V30 30 S 9.7062 3.64069e-05 -0.295578 0
M  V30 31 F 10.4975 0.0286697 1.18242 0
M  V30 32 O 10.2914 1.1352 -1.12357 0
M  V30 33 O 9.89704 -1.28509 -1.02212 0
M  V30 34 C -2.51845 -0.390201 -0.912964 0
M  V30 35 H -6.18826 0.289279 -1.55075 0
M  V30 36 H -7.4216 0.715696 -0.309191 0
M  V30 37 H -6.8404 -0.959688 -0.43888 0
M  V30 38 H -4.79146 1.78143 -1.04064 0
M  V30 39 H -3.81389 1.9013 0.527103 0
M  V30 40 H -5.45986 2.56003 0.413199 0
M  V30 41 H -7.12423 -0.580807 4.51409 0
M  V30 42 H -6.58372 1.10663 4.31653 0
M  V30 43 H -2.34313 -2.37654 1.3413 0
M  V30 44 H -3.70809 -3.48037 1.67436 0
M  V30 45 H -5.17181 -2.32444 -1.49516 0
M  V30 46 H -3.81157 -2.82921 -3.50541 0
M  V30 47 H -0.045407 0.459557 -0.147849 0
M  V30 48 H -0.78226 1.75629 -1.11054 0
M  V30 49 H 1.52095 2.21259 -0.661603 0
M  V30 50 H 1.24178 2.12437 -2.39034 0
M  V30 51 H 2.2295 -0.183691 -2.49589 0
M  V30 52 H 3.30837 1.00277 -1.77146 0
M  V30 53 H 3.1944 -1.24355 -0.511767 0
M  V30 54 H 1.48382 -0.830771 -0.0830319 0
M  V30 55 H 2.90621 -0.115263 1.7701 0
M  V30 56 H 2.0222 1.2284 0.93961 0
M  V30 57 H 5.84285 2.88173 0.110069 0
M  V30 58 H 8.24554 2.48649 -0.266752 0
M  V30 59 H 7.51231 -1.7011 0.233935 0
M  V30 60 H 5.14024 -1.30703 0.626181 0
M  V30 61 H -2.12628 0.315851 -0.178633 0
M  V30 END ATOM
M  V30 BEGIN BOND
M  V30 1 1 1 2
M  V30 2 1 2 3
M  V30 3 1 2 4
M  V30 4 2 4 5
M  V30 5 1 5 6
M  V30 6 1 5 7
M  V30 7 2 7 8
M  V30 8 1 8 9
M  V30 9 1 8 10
M  V30 10 1 10 11
M  V30 11 2 11 12
M  V30 12 1 12 13
M  V30 13 2 13 14
M  V30 14 1 14 15
M  V30 15 1 14 16
M  V30 16 1 16 17
M  V30 17 1 17 18
M  V30 18 1 18 19
M  V30 19 1 19 20
M  V30 20 1 20 21
M  V30 21 1 21 22
M  V30 22 1 22 23
M  V30 23 1 23 24
M  V30 24 2 24 25
M  V30 25 1 25 26
M  V30 26 2 26 27
M  V30 27 1 27 28
M  V30 28 2 28 29
M  V30 29 1 27 30
M  V30 30 1 30 31
M  V30 31 2 30 32
M  V30 32 2 30 33
M  V30 33 2 16 34
M  V30 34 1 10 2
M  V30 35 1 34 11
M  V30 36 1 29 24
M  V30 37 1 1 35
M  V30 38 1 1 36
M  V30 39 1 1 37
M  V30 40 1 3 38
M  V30 41 1 3 39
M  V30 42 1 3 40
M  V30 43 1 6 41
M  V30 44 1 6 42
M  V30 45 1 9 43
M  V30 46 1 9 44
M  V30 47 1 12 45
M  V30 48 1 13 46
M  V30 49 1 18 47
M  V30 50 1 18 48
M  V30 51 1 19 49
M  V30 52 1 19 50
M  V30 53 1 20 51
M  V30 54 1 20 52
M  V30 55 1 21 53
M  V30 56 1 21 54
M  V30 57 1 22 55
M  V30 58 1 22 56
M  V30 59 1 25 57
M  V30 60 1 26 58
M  V30 61 1 28 59
M  V30 62 1 29 60
M  V30 63 1 34 61
M  V30 END BOND
M  V30 END CTAB
M  END
