
     RDKit          3D

  0  0  0  0  0  0  0  0  0  0999 V3000
M  V30 BEGIN CTAB
M  V30 COUNTS 45 46 0 0 0
M  V30 BEGIN ATOM
M  V30 1 N 3.47055 -1.95438 0.454213 0
M  V30 2 C 3.46411 -0.697311 1.10962 0
M  V30 3 C 2.68798 0.356434 0.414025 0
M  V30 4 C 3.33867 0.502312 -0.97734 0
M  V30 5 C 4.69204 1.07823 -0.697891 0
M  V30 6 C 4.51902 1.90763 0.571438 0
M  V30 7 C 3.08582 1.73673 0.974722 0
M  V30 8 N 1.2888 0.226415 0.303556 0
M  V30 9 C 0.486444 -0.708287 -0.3581 0
M  V30 10 O 1.02865 -1.65841 -1.02102 0
M  V30 11 C -0.964962 -0.695375 -0.359023 0
M  V30 12 C -1.64311 -1.75316 -0.892221 0
M  V30 13 C -3.02903 -1.81371 -0.932352 0
M  V30 14 C -3.69172 -2.99947 -1.52949 0
M  V30 15 C -3.73053 -0.750799 -0.406424 0
M  V30 16 C -3.09131 0.33889 0.142395 0
M  V30 17 C -1.69557 0.349013 0.157364 0
M  V30 18 S -4.0447 1.64851 0.789644 0
M  V30 19 O -4.95761 1.22587 1.88561 0
M  V30 20 O -4.83828 2.35423 -0.30174 0
M  V30 21 N -2.9383 2.83658 1.39269 0
M  V30 22 C -5.20895 -0.848923 -0.465123 0
M  V30 23 H 4.3007 -2.09661 -0.180742 0
M  V30 24 H 3.4752 -2.78263 1.09572 0
M  V30 25 H 4.53898 -0.331518 1.12152 0
M  V30 26 H 3.23354 -0.767967 2.20444 0
M  V30 27 H 3.3468 -0.448926 -1.51183 0
M  V30 28 H 2.71982 1.28216 -1.50375 0
M  V30 29 H 5.02361 1.74296 -1.54809 0
M  V30 30 H 5.45895 0.298919 -0.581204 0
M  V30 31 H 5.21704 1.56447 1.36132 0
M  V30 32 H 4.74359 2.98046 0.371088 0
M  V30 33 H 2.45683 2.46404 0.415149 0
M  V30 34 H 2.90677 1.79349 2.05622 0
M  V30 35 H 0.719593 0.981879 0.824663 0
M  V30 36 H -1.11544 -2.59724 -1.30956 0
M  V30 37 H -2.96228 -3.63552 -2.07183 0
M  V30 38 H -4.15907 -3.64589 -0.756129 0
M  V30 39 H -4.44083 -2.69437 -2.3062 0
M  V30 40 H -1.24956 1.22623 0.597049 0
M  V30 41 H -2.22377 3.01797 0.651499 0
M  V30 42 H -3.42679 3.7508 1.58329 0
M  V30 43 H -5.53978 -1.18976 -1.48115 0
M  V30 44 H -5.71141 0.0638251 -0.144017 0
M  V30 45 H -5.5405 -1.6578 0.243935 0
M  V30 END ATOM
M  V30 BEGIN BOND
M  V30 1 1 1 2
M  V30 2 1 2 3
M  V30 3 1 3 4
M  V30 4 1 4 5
M  V30 5 1 5 6
M  V30 6 1 6 7
M  V30 7 1 3 8
M  V30 8 1 8 9
M  V30 9 2 9 10
M  V30 10 1 9 11
M  V30 11 2 11 12
M  V30 12 1 12 13
M  V30 13 1 13 14
M  V30 14 2 13 15
M  V30 15 1 15 16
M  V30 16 2 16 17
M  V30 17 1 16 18
M  V30 18 2 18 19
M  V30 19 2 18 20
M  V30 20 1 18 21
M  V30 21 1 15 22
M  V30 22 1 7 3
M  V30 23 1 17 11
M  V30 24 1 1 23
M  V30 25 1 1 24
M  V30 26 1 2 25
M  V30 27 1 2 26
M  V30 28 1 4 27
M  V30 29 1 4 28
M  V30 30 1 5 29
M  V30 31 1 5 30
M  V30 32 1 6 31
M  V30 33 1 6 32
M  V30 34 1 7 33
M  V30 35 1 7 34
M  V30 36 1 8 35
M  V30 37 1 12 36
M  V30 38 1 14 37
M  V30 39 1 14 38
M  V30 40 1 14 39
M  V30 41 1 17 40
M  V30 42 1 21 41
M  V30 43 1 21 42
M  V30 44 1 22 43
M  V30 45 1 22 44
M  V30 46 1 22 45
M  V30 END BOND
M  V30 END CTAB
M  END
