
     RDKit          3D

  0  0  0  0  0  0  0  0  0  0999 V3000
M  V30 BEGIN CTAB
M  V30 COUNTS 17 16 0 0 0
M  V30 BEGIN ATOM
M  V30 1 O 3.0716 -0.819656 0.242261 0
M  V30 2 C 1.94127 -0.396228 -0.448325 0
M  V30 3 C 0.943181 0.21015 0.547772 0
M  V30 4 C -0.224023 0.629944 -0.285871 0
M  V30 5 C -1.4279 0.168321 -0.120152 0
M  V30 6 N -2.48013 0.614051 -0.948809 0
M  V30 7 N -1.67989 -0.783312 0.894646 0
M  V30 8 H 3.48379 -0.0202018 0.650783 0
M  V30 9 H 1.44283 -1.28387 -0.906212 0
M  V30 10 H 2.24052 0.355319 -1.19058 0
M  V30 11 H 0.681048 -0.526171 1.31012 0
M  V30 12 H 1.35973 1.14498 0.979424 0
M  V30 13 H -0.0170069 1.35481 -1.0543 0
M  V30 14 H -2.59711 0.304024 -1.95133 0
M  V30 15 H -3.20433 1.28179 -0.605309 0
M  V30 16 H -2.00606 -1.76173 0.666364 0
M  V30 17 H -1.52754 -0.472211 1.88919 0
M  V30 END ATOM
M  V30 BEGIN BOND
M  V30 1 1 1 2
M  V30 2 1 2 3
M  V30 3 1 3 4
M  V30 4 2 4 5 CFG=2
M  V30 5 1 5 6
M  V30 6 1 5 7
M  V30 7 1 1 8
M  V30 8 1 2 9
M  V30 9 1 2 10
M  V30 10 1 3 11
M  V30 11 1 3 12
M  V30 12 1 4 13
M  V30 13 1 6 14
M  V30 14 1 6 15
M  V30 15 1 7 16
M  V30 16 1 7 17
M  V30 END BOND
M  V30 END CTAB
M  END
