
     RDKit          3D

  0  0  0  0  0  0  0  0  0  0999 V3000
M  V30 BEGIN CTAB
M  V30 COUNTS 24 24 0 0 0
M  V30 BEGIN ATOM
M  V30 1 N 2.62237 0.821851 -1.57441 0
M  V30 2 C 2.85418 -0.0849056 -0.512733 0
M  V30 3 N 3.56628 0.265 0.50478 0
M  V30 4 N 2.30304 -1.38593 -0.562959 0
M  V30 5 S 1.11932 -1.8273 0.585027 0
M  V30 6 O 0.654272 -3.24779 0.36858 0
M  V30 7 O 1.65618 -1.75099 1.996 0
M  V30 8 C -0.308117 -0.794022 0.435173 0
M  V30 9 C -1.35622 -1.11993 -0.391449 0
M  V30 10 C -2.48776 -0.336733 -0.533948 0
M  V30 11 C -2.57662 0.842814 0.193552 0
M  V30 12 N -3.73579 1.64266 0.0459406 0
M  V30 13 C -1.52608 1.17787 1.02764 0
M  V30 14 C -0.399066 0.378346 1.15671 0
M  V30 15 H 1.62626 1.01604 -1.87628 0
M  V30 16 H 3.42166 1.31051 -2.0738 0
M  V30 17 H 3.99308 1.21153 0.587319 0
M  V30 18 H 2.60318 -2.07418 -1.28111 0
M  V30 19 H -1.24944 -2.06116 -0.951036 0
M  V30 20 H -3.29315 -0.628645 -1.19656 0
M  V30 21 H -3.7248 2.42165 -0.671641 0
M  V30 22 H -4.58658 1.46228 0.639093 0
M  V30 23 H -1.60487 2.10334 1.59315 0
M  V30 24 H 0.428682 0.657693 1.82405 0
M  V30 END ATOM
M  V30 BEGIN BOND
M  V30 1 1 1 2
M  V30 2 2 2 3 CFG=2
M  V30 3 1 2 4
M  V30 4 1 4 5
M  V30 5 2 5 6
M  V30 6 2 5 7
M  V30 7 1 5 8
M  V30 8 2 8 9
M  V30 9 1 9 10
M  V30 10 2 10 11
M  V30 11 1 11 12
M  V30 12 1 11 13
M  V30 13 2 13 14
M  V30 14 1 14 8
M  V30 15 1 1 15
M  V30 16 1 1 16
M  V30 17 1 3 17
M  V30 18 1 4 18
M  V30 19 1 9 19
M  V30 20 1 10 20
M  V30 21 1 12 21
M  V30 22 1 12 22
M  V30 23 1 13 23
M  V30 24 1 14 24
M  V30 END BOND
M  V30 END CTAB
M  END
