
     RDKit          3D

  0  0  0  0  0  0  0  0  0  0999 V3000
M  V30 BEGIN CTAB
M  V30 COUNTS 25 25 0 0 0
M  V30 BEGIN ATOM
M  V30 1 C 2.36261 1.11648 -0.557717 0
M  V30 2 C 2.36733 -0.306335 -0.0843512 0
M  V30 3 C 1.23526 -0.614624 0.855512 0 CFG=1
M  V30 4 C -0.0935251 -0.390955 0.227889 0
M  V30 5 C -0.610104 -1.23527 -0.73734 0
M  V30 6 C -1.84513 -1.0226 -1.31697 0
M  V30 7 C -2.61208 0.0473473 -0.950551 0
M  V30 8 C -2.12133 0.908551 0.0121983 0
M  V30 9 C -0.87774 0.682144 0.586338 0
M  V30 10 N -2.92489 2.01582 0.385475 0
M  V30 11 N 1.36503 -2.03775 1.2067 0
M  V30 12 H 3.39729 1.43086 -0.739806 0
M  V30 13 H 1.82 1.15988 -1.51361 0
M  V30 14 H 1.90911 1.81764 0.149418 0
M  V30 15 H 2.33203 -0.997863 -0.940058 0
M  V30 16 H 3.31038 -0.48044 0.455945 0
M  V30 17 H 1.33247 -0.0716551 1.81135 0
M  V30 18 H 0.00803624 -2.08982 -1.02662 0
M  V30 19 H -2.21821 -1.70166 -2.06773 0
M  V30 20 H -3.59018 0.206796 -1.41656 0
M  V30 21 H -0.528787 1.377 1.33483 0
M  V30 22 H -2.60599 2.9907 0.184131 0
M  V30 23 H -3.82763 1.87839 0.856798 0
M  V30 24 H 1.95242 -2.16198 2.05116 0
M  V30 25 H 0.463646 -2.52064 1.23356 0
M  V30 END ATOM
M  V30 BEGIN BOND
M  V30 1 1 1 2
M  V30 2 1 2 3
M  V30 3 1 3 4
M  V30 4 2 4 5
M  V30 5 1 5 6
M  V30 6 2 6 7
M  V30 7 1 7 8
M  V30 8 2 8 9
M  V30 9 1 8 10
M  V30 10 1 3 11
M  V30 11 1 9 4
M  V30 12 1 1 12
M  V30 13 1 1 13
M  V30 14 1 1 14
M  V30 15 1 2 15
M  V30 16 1 2 16
M  V30 17 1 3 17 CFG=1
M  V30 18 1 5 18
M  V30 19 1 6 19
M  V30 20 1 7 20
M  V30 21 1 9 21
M  V30 22 1 10 22
M  V30 23 1 10 23
M  V30 24 1 11 24
M  V30 25 1 11 25
M  V30 END BOND
M  V30 END CTAB
M  END
