
     RDKit          3D

  0  0  0  0  0  0  0  0  0  0999 V3000
M  V30 BEGIN CTAB
M  V30 COUNTS 35 36 0 0 0
M  V30 BEGIN ATOM
M  V30 1 N -3.4168 2.75878 -0.318661 0
M  V30 2 C -3.29837 1.37671 -0.00091098 0
M  V30 3 C -1.84234 1.08555 0.244418 0
M  V30 4 N -1.57077 -0.285518 0.581551 0
M  V30 5 C -1.82044 -1.12856 -0.556991 0
M  V30 6 C -1.37295 -2.53897 -0.387702 0
M  V30 7 C 0.0712397 -2.80572 -0.638202 0
M  V30 8 O 0.926263 -2.21673 0.290427 0
M  V30 9 C 0.776856 -0.826733 0.0895605 0 CFG=1
M  V30 10 C -0.22453 -0.34906 1.07703 0
M  V30 11 C 2.11912 -0.170033 0.245048 0
M  V30 12 N 3.03058 -0.384758 1.2085 0
M  V30 13 N 4.09439 0.376399 1.01171 0
M  V30 14 C 3.91267 1.12474 -0.101436 0
M  V30 15 C 2.67005 0.783437 -0.587075 0
M  V30 16 N 4.84079 2.07067 -0.643887 0
M  V30 17 H -2.58955 3.27213 -0.217671 0
M  V30 18 H -4.29925 3.15607 -0.195045 0
M  V30 19 H -3.64979 0.806827 -0.911268 0
M  V30 20 H -3.95446 1.18649 0.862112 0
M  V30 21 H -1.2723 1.36349 -0.643068 0
M  V30 22 H -1.51647 1.72187 1.1084 0
M  V30 23 H -1.50164 -0.730286 -1.51965 0
M  V30 24 H -2.95186 -1.17977 -0.636512 0
M  V30 25 H -1.93552 -3.15316 -1.15171 0
M  V30 26 H -1.65786 -2.97292 0.589018 0
M  V30 27 H 0.219564 -3.9091 -0.528084 0
M  V30 28 H 0.373706 -2.46292 -1.64125 0
M  V30 29 H 0.43672 -0.609313 -0.935657 0
M  V30 30 H 0.110593 0.651522 1.45057 0
M  V30 31 H -0.209399 -1.01767 1.96875 0
M  V30 32 H 2.9208 -1.04578 1.98811 0
M  V30 33 H 2.22937 1.21359 -1.48011 0
M  V30 34 H 5.8056 1.78141 -0.916451 0
M  V30 35 H 4.54598 3.05733 -0.767011 0
M  V30 END ATOM
M  V30 BEGIN BOND
M  V30 1 1 1 2
M  V30 2 1 2 3
M  V30 3 1 3 4
M  V30 4 1 4 5
M  V30 5 1 5 6
M  V30 6 1 6 7
M  V30 7 1 7 8
M  V30 8 1 8 9
M  V30 9 1 9 10
M  V30 10 1 9 11
M  V30 11 1 11 12
M  V30 12 1 12 13
M  V30 13 2 13 14
M  V30 14 1 14 15
M  V30 15 1 14 16
M  V30 16 1 10 4
M  V30 17 2 15 11
M  V30 18 1 1 17
M  V30 19 1 1 18
M  V30 20 1 2 19
M  V30 21 1 2 20
M  V30 22 1 3 21
M  V30 23 1 3 22
M  V30 24 1 5 23
M  V30 25 1 5 24
M  V30 26 1 6 25
M  V30 27 1 6 26
M  V30 28 1 7 27
M  V30 29 1 7 28
M  V30 30 1 9 29 CFG=3
M  V30 31 1 10 30
M  V30 32 1 10 31
M  V30 33 1 12 32
M  V30 34 1 15 33
M  V30 35 1 16 34
M  V30 36 1 16 35
M  V30 END BOND
M  V30 END CTAB
M  END
