
     RDKit          3D

  0  0  0  0  0  0  0  0  0  0999 V3000
M  V30 BEGIN CTAB
M  V30 COUNTS 53 56 0 0 0
M  V30 BEGIN ATOM
M  V30 1 N -5.40654 -2.50623 -0.967032 0
M  V30 2 C -6.10696 -1.38259 -0.386444 0
M  V30 3 C -5.85056 -0.130731 -1.18176 0
M  V30 4 C -5.5265 0.580423 0.114856 0
M  V30 5 C -5.28288 -0.800186 0.737297 0
M  V30 6 C -4.25748 1.33211 0.10973 0
M  V30 7 C -3.12093 0.742595 -0.43624 0
M  V30 8 C -1.89724 1.36029 -0.485851 0
M  V30 9 N -1.86509 2.61722 0.0460011 0
M  V30 10 C -2.9424 3.20596 0.576339 0
M  V30 11 N -4.11906 2.57175 0.60675 0
M  V30 12 N -2.79005 4.52048 1.10215 0
M  V30 13 N -0.726014 0.78503 -1.03527 0
M  V30 14 C 0.528315 1.51656 -0.994805 0
M  V30 15 C 1.50354 0.712864 -0.147844 0
M  V30 16 C 1.62995 -0.679795 -0.697973 0
M  V30 17 C 0.252277 -1.35315 -0.783162 0
M  V30 18 C -0.695215 -0.510579 -1.64736 0
M  V30 19 S 2.65852 -1.73472 0.303546 0
M  V30 20 C 4.38252 -1.32626 0.27969 0
M  V30 21 C 4.95935 -0.350216 -0.501192 0
M  V30 22 C 6.33466 -0.0880077 -0.44185 0
M  V30 23 C 7.168 -0.793515 0.397785 0
M  V30 24 C 6.57612 -1.76665 1.17204 0
M  V30 25 C 5.2253 -2.03126 1.12056 0
M  V30 26 C 8.62766 -0.51081 0.456025 0
M  V30 27 H -5.93009 -3.00422 -1.69104 0
M  V30 28 H -4.93458 -3.10045 -0.268508 0
M  V30 29 H -7.1554 -1.57382 -0.10085 0
M  V30 30 H -6.7893 0.236093 -1.64622 0
M  V30 31 H -4.98595 -0.191963 -1.8576 0
M  V30 32 H -6.38191 1.10295 0.554257 0
M  V30 33 H -4.22304 -1.10121 0.720291 0
M  V30 34 H -5.74695 -0.832239 1.73363 0
M  V30 35 H -3.21792 -0.256219 -0.839621 0
M  V30 36 H -3.58677 5.18486 1.18187 0
M  V30 37 H -1.86296 4.85593 1.42561 0
M  V30 38 H 0.903486 1.59481 -2.01664 0
M  V30 39 H 0.368859 2.51578 -0.54701 0
M  V30 40 H 1.16642 0.718671 0.91247 0
M  V30 41 H 2.46905 1.23113 -0.22688 0
M  V30 42 H 2.03747 -0.55638 -1.7404 0
M  V30 43 H 0.379101 -2.34929 -1.20764 0
M  V30 44 H -0.121205 -1.38395 0.26916 0
M  V30 45 H -0.190049 -0.415985 -2.63481 0
M  V30 46 H -1.62927 -1.0555 -1.70127 0
M  V30 47 H 4.32908 0.202725 -1.16964 0
M  V30 48 H 6.76263 0.683957 -1.06511 0
M  V30 49 H 7.22906 -2.32876 1.83825 0
M  V30 50 H 4.79412 -2.81621 1.75533 0
M  V30 51 H 8.92371 0.24791 -0.294409 0
M  V30 52 H 8.94231 -0.136795 1.44539 0
M  V30 53 H 9.19082 -1.45242 0.196248 0
M  V30 END ATOM
M  V30 BEGIN BOND
M  V30 1 1 1 2
M  V30 2 1 2 3
M  V30 3 1 3 4
M  V30 4 1 4 5
M  V30 5 1 4 6
M  V30 6 2 6 7
M  V30 7 1 7 8
M  V30 8 2 8 9
M  V30 9 1 9 10
M  V30 10 2 10 11
M  V30 11 1 10 12
M  V30 12 1 8 13
M  V30 13 1 13 14
M  V30 14 1 14 15
M  V30 15 1 15 16
M  V30 16 1 16 17
M  V30 17 1 17 18
M  V30 18 1 16 19
M  V30 19 1 19 20
M  V30 20 2 20 21
M  V30 21 1 21 22
M  V30 22 2 22 23
M  V30 23 1 23 24
M  V30 24 2 24 25
M  V30 25 1 23 26
M  V30 26 1 5 2
M  V30 27 1 11 6
M  V30 28 1 18 13
M  V30 29 1 25 20
M  V30 30 1 1 27
M  V30 31 1 1 28
M  V30 32 1 2 29
M  V30 33 1 3 30
M  V30 34 1 3 31
M  V30 35 1 4 32
M  V30 36 1 5 33
M  V30 37 1 5 34
M  V30 38 1 7 35
M  V30 39 1 12 36
M  V30 40 1 12 37
M  V30 41 1 14 38
M  V30 42 1 14 39
M  V30 43 1 15 40
M  V30 44 1 15 41
M  V30 45 1 16 42
M  V30 46 1 17 43
M  V30 47 1 17 44
M  V30 48 1 18 45
M  V30 49 1 18 46
M  V30 50 1 21 47
M  V30 51 1 22 48
M  V30 52 1 24 49
M  V30 53 1 25 50
M  V30 54 1 26 51
M  V30 55 1 26 52
M  V30 56 1 26 53
M  V30 END BOND
M  V30 END CTAB
M  END
