
     RDKit          3D

  0  0  0  0  0  0  0  0  0  0999 V3000
M  V30 BEGIN CTAB
M  V30 COUNTS 30 31 0 0 0
M  V30 BEGIN ATOM
M  V30 1 N 5.16785 -0.295608 0.389074 0
M  V30 2 C 3.86569 -0.80421 0.497193 0
M  V30 3 N 3.55522 -2.02473 0.910819 0
M  V30 4 N 2.26197 -2.15683 0.887186 0
M  V30 5 C 1.67679 -1.01971 0.454332 0
M  V30 6 N 2.6878 -0.176935 0.21186 0
M  V30 7 N 2.63842 1.11657 -0.249366 0
M  V30 8 C 0.226792 -0.833551 0.312658 0
M  V30 9 C -0.172246 0.509952 -0.182761 0
M  V30 10 N -1.57646 0.698797 -0.320428 0
M  V30 11 C -2.23667 -0.0388739 -1.32859 0
M  V30 12 C -3.64255 -0.33825 -0.793489 0
M  V30 13 C -3.76422 0.719595 0.289461 0
M  V30 14 C -2.34816 0.646539 0.880185 0
M  V30 15 H 5.65305 0.0885633 1.22367 0
M  V30 16 H 5.66382 -0.293646 -0.515243 0
M  V30 17 H 2.56341 1.41491 -1.24321 0
M  V30 18 H 2.67993 1.89594 0.473122 0
M  V30 19 H -0.204818 -0.926477 1.35334 0
M  V30 20 H -0.214074 -1.62016 -0.351195 0
M  V30 21 H 0.263343 0.76802 -1.17971 0
M  V30 22 H 0.195838 1.28631 0.544007 0
M  V30 23 H -2.39923 0.579108 -2.24537 0
M  V30 24 H -1.73356 -0.972278 -1.64341 0
M  V30 25 H -4.4104 -0.271432 -1.56159 0
M  V30 26 H -3.60562 -1.34707 -0.29028 0
M  V30 27 H -4.53524 0.524652 1.02266 0
M  V30 28 H -3.82023 1.70873 -0.21329 0
M  V30 29 H -2.15184 1.50296 1.54391 0
M  V30 30 H -2.2846 -0.340868 1.39239 0
M  V30 END ATOM
M  V30 BEGIN BOND
M  V30 1 1 1 2
M  V30 2 2 2 3
M  V30 3 1 3 4
M  V30 4 2 4 5
M  V30 5 1 5 6
M  V30 6 1 6 7
M  V30 7 1 5 8
M  V30 8 1 8 9
M  V30 9 1 9 10
M  V30 10 1 10 11
M  V30 11 1 11 12
M  V30 12 1 12 13
M  V30 13 1 13 14
M  V30 14 1 6 2
M  V30 15 1 14 10
M  V30 16 1 1 15
M  V30 17 1 1 16
M  V30 18 1 7 17
M  V30 19 1 7 18
M  V30 20 1 8 19
M  V30 21 1 8 20
M  V30 22 1 9 21
M  V30 23 1 9 22
M  V30 24 1 11 23
M  V30 25 1 11 24
M  V30 26 1 12 25
M  V30 27 1 12 26
M  V30 28 1 13 27
M  V30 29 1 13 28
M  V30 30 1 14 29
M  V30 31 1 14 30
M  V30 END BOND
M  V30 END CTAB
M  END
