
     RDKit          3D

  0  0  0  0  0  0  0  0  0  0999 V3000
M  V30 BEGIN CTAB
M  V30 COUNTS 38 40 0 0 0
M  V30 BEGIN ATOM
M  V30 1 C -5.93902 2.13261 0.239552 0
M  V30 2 S -4.26988 2.36863 0.790165 0
M  V30 3 C -3.07521 1.20271 0.176526 0
M  V30 4 N -2.43475 1.33219 -0.972562 0
M  V30 5 C -1.44302 0.476931 -1.34209 0
M  V30 6 N -0.764776 0.608278 -2.59299 0
M  V30 7 C -1.1175 -0.537807 -0.45649 0
M  V30 8 C -1.76367 -0.716061 0.75088 0
M  V30 9 N -2.74367 0.188569 1.0196 0
M  V30 10 O -1.45681 -1.72607 1.62574 0
M  V30 11 C -0.44814 -2.62365 1.33723 0
M  V30 12 C 0.232755 -2.47421 0.230879 0
M  V30 13 C 0.0546259 -1.4018 -0.770888 0
M  V30 14 C 1.2288 -0.418595 -0.550383 0
M  V30 15 C 2.46988 -0.743657 -1.02148 0
M  V30 16 C 3.54815 0.136119 -0.833817 0
M  V30 17 C 3.39421 1.34061 -0.187199 0
M  V30 18 C 2.13684 1.66453 0.279228 0
M  V30 19 C 1.07343 0.770438 0.0947788 0
M  V30 20 C 4.49575 2.32488 -0.00676124 0
M  V30 21 F 5.63049 1.97231 -0.657536 0
M  V30 22 F 4.69887 2.46171 1.37093 0
M  V30 23 F 4.1057 3.58707 -0.453451 0
M  V30 24 C 1.23106 -3.49334 -0.0778332 0
M  V30 25 N 2.01472 -4.31845 -0.320817 0
M  V30 26 N -0.111377 -3.72264 2.22696 0
M  V30 27 H -6.1358 2.94705 -0.535202 0
M  V30 28 H -6.63898 2.39005 1.08158 0
M  V30 29 H -6.22174 1.17147 -0.177762 0
M  V30 30 H 0.0885607 1.1139 -2.81961 0
M  V30 31 H -1.22334 0.0797725 -3.42963 0
M  V30 32 H 0.102377 -1.70232 -1.80854 0
M  V30 33 H 2.67518 -1.65505 -1.54273 0
M  V30 34 H 4.54744 -0.16154 -1.18079 0
M  V30 35 H 1.96474 2.58413 0.787972 0
M  V30 36 H 0.131207 1.08526 0.505764 0
M  V30 37 H 0.854557 -3.9514 2.49109 0
M  V30 38 H -0.891645 -4.29265 2.59759 0
M  V30 END ATOM
M  V30 BEGIN BOND
M  V30 1 1 1 2
M  V30 2 1 2 3
M  V30 3 2 3 4
M  V30 4 1 4 5
M  V30 5 1 5 6
M  V30 6 2 5 7
M  V30 7 1 7 8
M  V30 8 2 8 9
M  V30 9 1 8 10
M  V30 10 1 10 11
M  V30 11 2 11 12
M  V30 12 1 12 13
M  V30 13 1 13 14
M  V30 14 2 14 15
M  V30 15 1 15 16
M  V30 16 2 16 17
M  V30 17 1 17 18
M  V30 18 2 18 19
M  V30 19 1 17 20
M  V30 20 1 20 21
M  V30 21 1 20 22
M  V30 22 1 20 23
M  V30 23 1 12 24
M  V30 24 3 24 25
M  V30 25 1 11 26
M  V30 26 1 9 3
M  V30 27 1 19 14
M  V30 28 1 13 7
M  V30 29 1 1 27
M  V30 30 1 1 28
M  V30 31 1 1 29
M  V30 32 1 6 30
M  V30 33 1 6 31
M  V30 34 1 13 32
M  V30 35 1 15 33
M  V30 36 1 16 34
M  V30 37 1 18 35
M  V30 38 1 19 36
M  V30 39 1 26 37
M  V30 40 1 26 38
M  V30 END BOND
M  V30 END CTAB
M  END
