
     RDKit          3D

  0  0  0  0  0  0  0  0  0  0999 V3000
M  V30 BEGIN CTAB
M  V30 COUNTS 59 59 0 0 0
M  V30 BEGIN ATOM
M  V30 1 N 6.90491 1.99056 -2.56027 0
M  V30 2 C 6.39185 0.718421 -2.39382 0
M  V30 3 C 5.90098 0.418464 -0.996954 0
M  V30 4 C 5.34278 -0.989427 -0.881871 0
M  V30 5 C 4.84114 -1.26186 0.503836 0
M  V30 6 C 3.75769 -0.35494 0.978398 0 CFG=1
M  V30 7 C 2.51702 -0.371491 0.198867 0
M  V30 8 O 2.53879 -0.255658 -1.03929 0
M  V30 9 N 1.27362 -0.519938 0.84511 0
M  V30 10 C -0.0157626 -0.563701 0.190817 0 CFG=2
M  V30 11 C -0.834531 0.625429 0.445855 0
M  V30 12 O -0.188614 1.68149 0.799677 0
M  V30 13 N -2.22792 0.736936 0.347834 0
M  V30 14 C -2.96695 1.92499 0.590335 0 CFG=2
M  V30 15 C -3.63783 1.98062 1.9119 0
M  V30 16 O -3.57451 1.05925 2.75889 0
M  V30 17 O -4.36888 3.1252 2.20598 0
M  V30 18 C -3.89628 2.3084 -0.534936 0
M  V30 19 C -4.90551 1.26679 -0.83321 0
M  V30 20 C -6.12962 1.2342 -0.204987 0
M  V30 21 C -7.06801 0.238269 -0.498168 0
M  V30 22 C -6.74822 -0.715723 -1.4298 0
M  V30 23 C -5.54455 -0.713013 -2.07207 0
M  V30 24 C -4.63099 0.287788 -1.76109 0
M  V30 25 O -7.67635 -1.73516 -1.74612 0
M  V30 26 C -0.755904 -1.79172 0.651679 0 CFG=2
M  V30 27 O -0.933207 -1.74504 2.01797 0
M  V30 28 C 0.103376 -3.01812 0.332959 0
M  V30 29 N 3.5124 -0.65006 2.39776 0
M  V30 30 H 6.48175 2.55746 -3.21698 0
M  V30 31 H 7.47555 2.37983 -1.87004 0
M  V30 32 H 7.22619 -0.0229278 -2.579 0
M  V30 33 H 5.60969 0.425656 -3.11276 0
M  V30 34 H 5.19337 1.18653 -0.660543 0
M  V30 35 H 6.819 0.509211 -0.337484 0
M  V30 36 H 6.23925 -1.66366 -1.02881 0
M  V30 37 H 4.67741 -1.18042 -1.70544 0
M  V30 38 H 5.70836 -1.12662 1.20667 0
M  V30 39 H 4.50338 -2.30484 0.649228 0
M  V30 40 H 4.13501 0.724038 1.00092 0
M  V30 41 H 1.2615 -0.611469 1.88808 0
M  V30 42 H 0.154138 -0.597014 -0.926504 0
M  V30 43 H -2.76865 -0.13134 0.0856708 0
M  V30 44 H -2.19462 2.76214 0.647278 0
M  V30 45 H -4.44597 3.41671 3.17404 0
M  V30 46 H -4.43688 3.23429 -0.234249 0
M  V30 47 H -3.3082 2.56008 -1.44975 0
M  V30 48 H -6.42412 1.96686 0.534627 0
M  V30 49 H -8.03315 0.192258 -0.0164131 0
M  V30 50 H -5.33945 -1.49329 -2.80686 0
M  V30 51 H -3.69085 0.259061 -2.28645 0
M  V30 52 H -8.32798 -1.54714 -2.49971 0
M  V30 53 H -1.75579 -1.90708 0.189591 0
M  V30 54 H -0.323591 -2.37989 2.50892 0
M  V30 55 H -0.119176 -3.31559 -0.705735 0
M  V30 56 H -0.139507 -3.84597 1.01046 0
M  V30 57 H 1.17396 -2.73525 0.398763 0
M  V30 58 H 4.41871 -0.557913 2.91579 0
M  V30 59 H 3.24975 -1.66467 2.4537 0
M  V30 END ATOM
M  V30 BEGIN BOND
M  V30 1 1 1 2
M  V30 2 1 2 3
M  V30 3 1 3 4
M  V30 4 1 4 5
M  V30 5 1 5 6
M  V30 6 1 6 7
M  V30 7 2 7 8
M  V30 8 1 7 9
M  V30 9 1 9 10
M  V30 10 1 10 11
M  V30 11 2 11 12
M  V30 12 1 11 13
M  V30 13 1 13 14
M  V30 14 1 14 15
M  V30 15 2 15 16
M  V30 16 1 15 17
M  V30 17 1 14 18
M  V30 18 1 18 19
M  V30 19 2 19 20
M  V30 20 1 20 21
M  V30 21 2 21 22
M  V30 22 1 22 23
M  V30 23 2 23 24
M  V30 24 1 22 25
M  V30 25 1 10 26
M  V30 26 1 26 27
M  V30 27 1 26 28
M  V30 28 1 6 29
M  V30 29 1 24 19
M  V30 30 1 1 30
M  V30 31 1 1 31
M  V30 32 1 2 32
M  V30 33 1 2 33
M  V30 34 1 3 34
M  V30 35 1 3 35
M  V30 36 1 4 36
M  V30 37 1 4 37
M  V30 38 1 5 38
M  V30 39 1 5 39
M  V30 40 1 6 40 CFG=1
M  V30 41 1 9 41
M  V30 42 1 10 42 CFG=3
M  V30 43 1 13 43
M  V30 44 1 14 44 CFG=1
M  V30 45 1 17 45
M  V30 46 1 18 46
M  V30 47 1 18 47
M  V30 48 1 20 48
M  V30 49 1 21 49
M  V30 50 1 23 50
M  V30 51 1 24 51
M  V30 52 1 25 52
M  V30 53 1 26 53 CFG=3
M  V30 54 1 27 54
M  V30 55 1 28 55
M  V30 56 1 28 56
M  V30 57 1 28 57
M  V30 58 1 29 58
M  V30 59 1 29 59
M  V30 END BOND
M  V30 END CTAB
M  END
