
     RDKit          3D

  0  0  0  0  0  0  0  0  0  0999 V3000
M  V30 BEGIN CTAB
M  V30 COUNTS 27 27 0 0 0
M  V30 BEGIN ATOM
M  V30 1 C -2.72809 0.267246 -1.1361 0
M  V30 2 C -1.94603 0.0244562 0.169484 0
M  V30 3 C -2.17802 -1.55099 0.396796 0
M  V30 4 C -0.530085 0.155583 0.070739 0
M  V30 5 C 0.127372 1.26641 0.647468 0
M  V30 6 N -0.66522 2.29372 1.17696 0
M  V30 7 C 1.48171 1.35747 0.676598 0
M  V30 8 C 2.25252 0.35805 0.144566 0
M  V30 9 C 1.64222 -0.741021 -0.418714 0
M  V30 10 N 2.48411 -1.77785 -0.889173 0
M  V30 11 C 0.266658 -0.832912 -0.453026 0
M  V30 12 N 3.67411 0.516124 0.13626 0 CHG=1
M  V30 13 O 4.49958 -0.0849607 -0.747691 0 CHG=-1
M  V30 14 O 4.20638 1.29624 0.987853 0
M  V30 15 H -3.24476 1.27686 -0.976979 0
M  V30 16 H -2.10122 0.24951 -2.03992 0
M  V30 17 H -3.52758 -0.47886 -1.22199 0
M  V30 18 H -2.44145 0.490843 1.0017 0
M  V30 19 H -1.41049 -1.86532 1.09806 0
M  V30 20 H -3.17325 -1.65727 0.879941 0
M  V30 21 H -2.1322 -2.05443 -0.574349 0
M  V30 22 H -1.11637 2.96916 0.557357 0
M  V30 23 H -0.789265 2.36479 2.20374 0
M  V30 24 H 1.90667 2.28611 1.10216 0
M  V30 25 H 2.89155 -1.89373 -1.81441 0
M  V30 26 H 2.70201 -2.5155 -0.128811 0
M  V30 27 H -0.150851 -1.71974 -0.935012 0
M  V30 END ATOM
M  V30 BEGIN BOND
M  V30 1 1 1 2
M  V30 2 1 2 3
M  V30 3 1 2 4
M  V30 4 2 4 5
M  V30 5 1 5 6
M  V30 6 1 5 7
M  V30 7 2 7 8
M  V30 8 1 8 9
M  V30 9 1 9 10
M  V30 10 2 9 11
M  V30 11 1 8 12
M  V30 12 1 12 13
M  V30 13 2 12 14
M  V30 14 1 11 4
M  V30 15 1 1 15
M  V30 16 1 1 16
M  V30 17 1 1 17
M  V30 18 1 2 18
M  V30 19 1 3 19
M  V30 20 1 3 20
M  V30 21 1 3 21
M  V30 22 1 6 22
M  V30 23 1 6 23
M  V30 24 1 7 24
M  V30 25 1 10 25
M  V30 26 1 10 26
M  V30 27 1 11 27
M  V30 END BOND
M  V30 END CTAB
M  END
