
     RDKit          3D

  0  0  0  0  0  0  0  0  0  0999 V3000
M  V30 BEGIN CTAB
M  V30 COUNTS 27 27 0 0 0
M  V30 BEGIN ATOM
M  V30 1 N 4.60789 -0.735455 -1.38351 0
M  V30 2 C 3.56719 -0.486654 -0.966438 0
M  V30 3 N 4.34465 0.72883 0.0712666 0
M  V30 4 N 2.30155 -0.184037 -0.459174 0
M  V30 5 C 1.14562 -0.867299 -0.981204 0
M  V30 6 O 1.33561 -1.70554 -1.88841 0
M  V30 7 C -0.173152 -0.595561 -0.478687 0
M  V30 8 N -0.352561 0.281281 0.555368 0
M  V30 9 C -1.61194 0.475925 1.00692 0
M  V30 10 C -1.80508 1.41903 2.14356 0
M  V30 11 C -3.22333 1.55781 2.59921 0
M  V30 12 C -2.70983 -0.152788 0.48658 0
M  V30 13 N -2.51839 -1.0281 -0.548745 0
M  V30 14 C -1.26498 -1.2322 -1.00868 0
M  V30 15 N -1.03787 -2.1285 -2.08041 0
M  V30 16 H 5.41386 -1.03369 -1.80847 0
M  V30 17 H 4.57062 0.252982 0.866515 0
M  V30 18 H 4.29156 1.49818 -0.497756 0
M  V30 19 H 2.09356 0.491825 0.269855 0
M  V30 20 H -1.26196 0.93027 3.01031 0
M  V30 21 H -1.39217 2.41858 1.94494 0
M  V30 22 H -3.16099 2.16354 3.55593 0
M  V30 23 H -3.84559 2.16379 1.88698 0
M  V30 24 H -3.71731 0.604328 2.84743 0
M  V30 25 H -3.68759 0.0376553 0.882222 0
M  V30 26 H -1.00613 -3.13927 -1.92208 0
M  V30 27 H -0.903209 -1.73492 -3.02805 0
M  V30 END ATOM
M  V30 BEGIN BOND
M  V30 1 2 1 2 CFG=2
M  V30 2 1 2 3
M  V30 3 1 2 4
M  V30 4 1 4 5
M  V30 5 2 5 6
M  V30 6 1 5 7
M  V30 7 2 7 8
M  V30 8 1 8 9
M  V30 9 1 9 10
M  V30 10 1 10 11
M  V30 11 2 9 12
M  V30 12 1 12 13
M  V30 13 2 13 14
M  V30 14 1 14 15
M  V30 15 1 14 7
M  V30 16 1 1 16
M  V30 17 1 3 17
M  V30 18 1 3 18
M  V30 19 1 4 19
M  V30 20 1 10 20
M  V30 21 1 10 21
M  V30 22 1 11 22
M  V30 23 1 11 23
M  V30 24 1 11 24
M  V30 25 1 12 25
M  V30 26 1 15 26
M  V30 27 1 15 27
M  V30 END BOND
M  V30 END CTAB
M  END
