
     RDKit          3D

  0  0  0  0  0  0  0  0  0  0999 V3000
M  V30 BEGIN CTAB
M  V30 COUNTS 77 81 0 0 0
M  V30 BEGIN ATOM
M  V30 1 C 6.6872 1.63401 -3.07416 0
M  V30 2 C 6.25989 3.01526 -2.65241 0
M  V30 3 C 6.68039 3.23404 -1.2486 0
M  V30 4 C 7.88175 3.92118 -1.01975 0
M  V30 5 C 8.41008 4.08445 0.23488 0
M  V30 6 C 7.69384 3.53036 1.29102 0
M  V30 7 C 6.49956 2.83144 1.1165 0
M  V30 8 C 6.00474 2.70687 -0.217718 0
M  V30 9 N 4.6973 2.23854 -0.339746 0
M  V30 10 C 4.294 1.06806 0.337731 0
M  V30 11 N 3.06086 0.678443 0.410264 0
M  V30 12 C 2.61915 -0.494672 0.936347 0
M  V30 13 C 1.27583 -0.89013 1.21138 0
M  V30 14 N 0.451118 -1.78099 0.394805 0
M  V30 15 C 0.263195 -2.90442 1.20586 0
M  V30 16 C -0.480083 -4.11272 1.00778 0
M  V30 17 C -1.44784 -4.59437 1.84186 0
M  V30 18 C -1.9456 -5.89763 1.77344 0
M  V30 19 C -1.45762 -6.74785 0.832604 0
M  V30 20 C -0.470375 -6.2875 -0.0311662 0
M  V30 21 C -0.0193599 -5.05598 0.0548137 0
M  V30 22 Cl 1.22535 -4.45635 -1.01373 0
M  V30 23 C -0.517937 -1.05468 -0.266828 0
M  V30 24 C -1.88634 -0.92902 0.124051 0
M  V30 25 N -2.4987 -1.56034 1.08594 0
M  V30 26 C -3.76752 -1.40592 1.37949 0
M  V30 27 N -4.47054 -2.16952 2.38371 0
M  V30 28 N -4.48823 -0.521457 0.640007 0
M  V30 29 C -3.93854 0.179517 -0.372979 0
M  V30 30 N -2.6594 -0.0393917 -0.612338 0
M  V30 31 N -4.76967 1.15875 -1.00165 0
M  V30 32 C -6.00217 1.5267 -0.42946 0
M  V30 33 C -5.98996 1.81772 0.971856 0
M  V30 34 C -7.09682 2.36359 1.59642 0
M  V30 35 C -8.25281 2.64331 0.863973 0
M  V30 36 C -8.23871 2.36868 -0.455518 0
M  V30 37 C -7.12932 1.81242 -1.10356 0
M  V30 38 C -7.31117 1.4579 -2.53376 0
M  V30 39 C -6.6394 2.41386 -3.43347 0
M  V30 40 N 3.68034 -1.26375 1.39977 0
M  V30 41 C 4.96043 -0.912502 1.34334 0
M  V30 42 N 5.25513 0.270612 0.802724 0
M  V30 43 N 5.98794 -1.78326 1.84051 0
M  V30 44 H 7.38444 1.21776 -2.2965 0
M  V30 45 H 5.85708 0.948767 -3.16178 0
M  V30 46 H 7.23027 1.62572 -4.06418 0
M  V30 47 H 5.13995 3.1672 -2.7463 0
M  V30 48 H 6.72797 3.78139 -3.33112 0
M  V30 49 H 8.37785 4.33466 -1.89366 0
M  V30 50 H 9.32488 4.63129 0.360876 0
M  V30 51 H 8.08818 3.66158 2.29724 0
M  V30 52 H 5.9311 2.41076 1.89922 0
M  V30 53 H 3.9662 2.72758 -0.9038 0
M  V30 54 H 1.32103 -1.35207 2.28297 0
M  V30 55 H 0.69197 0.0642773 1.42904 0
M  V30 56 H -0.348914 -2.40633 2.1562 0
M  V30 57 H 1.20447 -3.10106 1.80157 0
M  V30 58 H -1.90335 -4.00359 2.63474 0
M  V30 59 H -2.68477 -6.28999 2.45124 0
M  V30 60 H -1.80506 -7.78077 0.727542 0
M  V30 61 H -0.179128 -7.04836 -0.781365 0
M  V30 62 H -0.125931 0.0835954 -0.192239 0
M  V30 63 H -0.368393 -1.12633 -1.40148 0
M  V30 64 H -4.17166 -3.13778 2.51663 0
M  V30 65 H -5.22381 -1.67919 2.87339 0
M  V30 66 H -4.39467 1.56133 -1.86151 0
M  V30 67 H -5.07917 1.64265 1.52397 0
M  V30 68 H -7.00721 2.5446 2.65668 0
M  V30 69 H -9.12524 3.10953 1.38396 0
M  V30 70 H -9.09819 2.58259 -1.06308 0
M  V30 71 H -7.00486 0.400969 -2.73691 0
M  V30 72 H -8.43766 1.44882 -2.78822 0
M  V30 73 H -7.17448 2.4708 -4.44126 0
M  V30 74 H -5.60046 2.14529 -3.62818 0
M  V30 75 H -6.66063 3.4285 -3.01035 0
M  V30 76 H 6.1474 -1.87522 2.85451 0
M  V30 77 H 6.59082 -2.28222 1.17791 0
M  V30 END ATOM
M  V30 BEGIN BOND
M  V30 1 1 1 2
M  V30 2 1 2 3
M  V30 3 2 3 4
M  V30 4 1 4 5
M  V30 5 2 5 6
M  V30 6 1 6 7
M  V30 7 2 7 8
M  V30 8 1 8 9
M  V30 9 1 9 10
M  V30 10 2 10 11
M  V30 11 1 11 12
M  V30 12 1 12 13
M  V30 13 1 13 14
M  V30 14 1 14 15
M  V30 15 1 15 16
M  V30 16 2 16 17
M  V30 17 1 17 18
M  V30 18 2 18 19
M  V30 19 1 19 20
M  V30 20 2 20 21
M  V30 21 1 21 22
M  V30 22 1 14 23
M  V30 23 1 23 24
M  V30 24 2 24 25
M  V30 25 1 25 26
M  V30 26 1 26 27
M  V30 27 2 26 28
M  V30 28 1 28 29
M  V30 29 2 29 30
M  V30 30 1 29 31
M  V30 31 1 31 32
M  V30 32 2 32 33
M  V30 33 1 33 34
M  V30 34 2 34 35
M  V30 35 1 35 36
M  V30 36 2 36 37
M  V30 37 1 37 38
M  V30 38 1 38 39
M  V30 39 2 12 40
M  V30 40 1 40 41
M  V30 41 2 41 42
M  V30 42 1 41 43
M  V30 43 1 8 3
M  V30 44 1 42 10
M  V30 45 1 21 16
M  V30 46 1 30 24
M  V30 47 1 37 32
M  V30 48 1 1 44
M  V30 49 1 1 45
M  V30 50 1 1 46
M  V30 51 1 2 47
M  V30 52 1 2 48
M  V30 53 1 4 49
M  V30 54 1 5 50
M  V30 55 1 6 51
M  V30 56 1 7 52
M  V30 57 1 9 53
M  V30 58 1 13 54
M  V30 59 1 13 55
M  V30 60 1 15 56
M  V30 61 1 15 57
M  V30 62 1 17 58
M  V30 63 1 18 59
M  V30 64 1 19 60
M  V30 65 1 20 61
M  V30 66 1 23 62
M  V30 67 1 23 63
M  V30 68 1 27 64
M  V30 69 1 27 65
M  V30 70 1 31 66
M  V30 71 1 33 67
M  V30 72 1 34 68
M  V30 73 1 35 69
M  V30 74 1 36 70
M  V30 75 1 38 71
M  V30 76 1 38 72
M  V30 77 1 39 73
M  V30 78 1 39 74
M  V30 79 1 39 75
M  V30 80 1 43 76
M  V30 81 1 43 77
M  V30 END BOND
M  V30 END CTAB
M  END
