
     RDKit          3D

  0  0  0  0  0  0  0  0  0  0999 V3000
M  V30 BEGIN CTAB
M  V30 COUNTS 20 21 0 0 0
M  V30 BEGIN ATOM
M  V30 1 N 2.31665 2.94429 0.18759 0
M  V30 2 C 1.75034 1.64608 0.0977677 0
M  V30 3 N 2.58375 0.596389 0.00162801 0
M  V30 4 C 2.14779 -0.670637 -0.088149 0
M  V30 5 N 3.03886 -1.77171 -0.189278 0
M  V30 6 N 0.797938 -0.851521 -0.0775113 0
M  V30 7 C -0.0624938 0.153731 0.0156894 0
M  V30 8 N 0.443326 1.40153 0.102713 0
M  V30 9 C -1.50953 -0.0784938 0.0241278 0
M  V30 10 S -2.74853 1.08575 0.13666 0
M  V30 11 C -4.10649 0.0527795 0.0816688 0
M  V30 12 C -3.53517 -1.1886 -0.0246358 0
M  V30 13 C -2.20098 -1.2544 -0.0540714 0
M  V30 14 Cl -1.30464 -2.79174 -0.189177 0
M  V30 15 H 2.3272 3.56279 -0.651917 0
M  V30 16 H 2.73116 3.31714 1.07046 0
M  V30 17 H 2.80852 -2.5463 -0.845513 0
M  V30 18 H 3.9174 -1.84835 0.361015 0
M  V30 19 H -5.18007 0.309415 0.121094 0
M  V30 20 H -4.21502 -2.06814 -0.080165 0
M  V30 END ATOM
M  V30 BEGIN BOND
M  V30 1 1 1 2
M  V30 2 2 2 3
M  V30 3 1 3 4
M  V30 4 1 4 5
M  V30 5 2 4 6
M  V30 6 1 6 7
M  V30 7 2 7 8
M  V30 8 1 7 9
M  V30 9 1 9 10
M  V30 10 1 10 11
M  V30 11 2 11 12
M  V30 12 1 12 13
M  V30 13 1 13 14
M  V30 14 1 8 2
M  V30 15 2 13 9
M  V30 16 1 1 15
M  V30 17 1 1 16
M  V30 18 1 5 17
M  V30 19 1 5 18
M  V30 20 1 11 19
M  V30 21 1 12 20
M  V30 END BOND
M  V30 END CTAB
M  END
