
     RDKit          3D

  0  0  0  0  0  0  0  0  0  0999 V3000
M  V30 BEGIN CTAB
M  V30 COUNTS 33 35 0 0 0
M  V30 BEGIN ATOM
M  V30 1 O -4.96033 0.154729 0.461418 0
M  V30 2 C -3.83882 0.0470088 0.935805 0
M  V30 3 C -2.82308 1.08399 0.533764 0 CFG=1
M  V30 4 O -1.63196 0.819879 1.14744 0
M  V30 5 C -0.612808 0.916137 0.232306 0 CFG=2
M  V30 6 C -1.19741 0.78313 -1.13695 0
M  V30 7 C -2.62524 1.207 -0.927046 0 CFG=1
M  V30 8 O -3.44884 0.381342 -1.68483 0
M  V30 9 N 0.273581 -0.233955 0.43426 0
M  V30 10 C -0.0870077 -1.48653 0.707752 0
M  V30 11 N 1.02656 -2.22188 0.81479 0
M  V30 12 C 2.09241 -1.39944 0.601731 0
M  V30 13 C 1.6126 -0.129709 0.358636 0
M  V30 14 N 2.46861 0.878601 0.115642 0
M  V30 15 C 3.8163 0.705565 0.0969964 0
M  V30 16 N 4.70827 1.77385 -0.159841 0
M  V30 17 N 4.25042 -0.555381 0.34012 0
M  V30 18 C 3.45411 -1.58983 0.586105 0
M  V30 19 N 3.97663 -2.8994 0.835691 0
M  V30 20 H -5.57531 -0.0253767 0.117175 0
M  V30 21 H -3.4317 -0.962487 0.632734 0
M  V30 22 H -3.92031 -0.00454999 2.0408 0
M  V30 23 H -3.19072 2.07048 0.923755 0
M  V30 24 H -0.0670886 1.86946 0.377196 0
M  V30 25 H -0.692619 1.47228 -1.87199 0
M  V30 26 H -1.16339 -0.263372 -1.48142 0
M  V30 27 H -2.72251 2.26944 -1.27382 0
M  V30 28 H -2.94681 -0.447629 -1.96354 0
M  V30 29 H -1.1067 -1.80933 0.815661 0
M  V30 30 H 4.52985 2.7121 0.243493 0
M  V30 31 H 5.53324 1.62317 -0.745307 0
M  V30 32 H 4.80573 -3.03868 1.45934 0
M  V30 33 H 3.49435 -3.70062 0.369374 0
M  V30 END ATOM
M  V30 BEGIN BOND
M  V30 1 1 1 2
M  V30 2 1 2 3
M  V30 3 1 3 4
M  V30 4 1 4 5
M  V30 5 1 5 6
M  V30 6 1 6 7
M  V30 7 1 7 8
M  V30 8 1 5 9
M  V30 9 1 9 10
M  V30 10 2 10 11
M  V30 11 1 11 12
M  V30 12 2 12 13
M  V30 13 1 13 14
M  V30 14 2 14 15
M  V30 15 1 15 16
M  V30 16 1 15 17
M  V30 17 2 17 18
M  V30 18 1 18 19
M  V30 19 1 7 3
M  V30 20 1 13 9
M  V30 21 1 18 12
M  V30 22 1 1 20
M  V30 23 1 2 21
M  V30 24 1 2 22
M  V30 25 1 3 23 CFG=1
M  V30 26 1 5 24 CFG=3
M  V30 27 1 6 25
M  V30 28 1 6 26
M  V30 29 1 7 27 CFG=3
M  V30 30 1 8 28
M  V30 31 1 10 29
M  V30 32 1 16 30
M  V30 33 1 16 31
M  V30 34 1 19 32
M  V30 35 1 19 33
M  V30 END BOND
M  V30 END CTAB
M  END
