
     RDKit          3D

  0  0  0  0  0  0  0  0  0  0999 V3000
M  V30 BEGIN CTAB
M  V30 COUNTS 21 22 0 0 0
M  V30 BEGIN ATOM
M  V30 1 N 4.44046 0.724432 0.170106 0
M  V30 2 C 3.12791 0.17838 0.14524 0
M  V30 3 N 2.82759 -1.12761 0.0498627 0
M  V30 4 O 1.54504 -1.30177 0.0528787 0
M  V30 5 C 0.933964 -0.143172 0.148605 0
M  V30 6 N 1.9296 0.780826 0.206168 0
M  V30 7 C -0.503208 0.10712 0.185814 0
M  V30 8 C -0.941691 1.40629 0.29002 0
M  V30 9 C -2.31399 1.67231 0.327607 0
M  V30 10 C -3.2358 0.649237 0.261606 0
M  V30 11 C -2.7965 -0.63382 0.158613 0
M  V30 12 C -1.43148 -0.892929 0.121639 0
M  V30 13 N -1.00561 -2.23389 0.0144222 0
M  V30 14 H 4.82878 1.19556 -0.695563 0
M  V30 15 H 5.0622 0.698569 0.984252 0
M  V30 16 H -0.289462 2.26691 0.347108 0
M  V30 17 H -2.66411 2.69648 0.40982 0
M  V30 18 H -4.31644 0.858918 0.291214 0
M  V30 19 H -3.49007 -1.47827 0.103278 0
M  V30 20 H -0.894948 -2.80183 0.867165 0
M  V30 21 H -0.812228 -2.62173 -0.921364 0
M  V30 END ATOM
M  V30 BEGIN BOND
M  V30 1 1 1 2
M  V30 2 2 2 3
M  V30 3 1 3 4
M  V30 4 1 4 5
M  V30 5 2 5 6
M  V30 6 1 5 7
M  V30 7 2 7 8
M  V30 8 1 8 9
M  V30 9 2 9 10
M  V30 10 1 10 11
M  V30 11 2 11 12
M  V30 12 1 12 13
M  V30 13 1 6 2
M  V30 14 1 12 7
M  V30 15 1 1 14
M  V30 16 1 1 15
M  V30 17 1 8 16
M  V30 18 1 9 17
M  V30 19 1 10 18
M  V30 20 1 11 19
M  V30 21 1 13 20
M  V30 22 1 13 21
M  V30 END BOND
M  V30 END CTAB
M  END
