
     RDKit          3D

  0  0  0  0  0  0  0  0  0  0999 V3000
M  V30 BEGIN CTAB
M  V30 COUNTS 26 26 0 0 0
M  V30 BEGIN ATOM
M  V30 1 O 3.03845 0.858559 -3.13403 0
M  V30 2 C 2.32839 0.516217 -2.0016 0
M  V30 3 O 2.85832 0.660967 -0.876286 0
M  V30 4 C 0.954676 -0.0166242 -2.11239 0
M  V30 5 C 0.368068 -0.319551 -0.783624 0
M  V30 6 C -0.581109 0.576562 -0.282102 0
M  V30 7 C -1.17911 0.372518 0.942549 0
M  V30 8 O -2.11642 1.19464 1.51125 0
M  V30 9 C -2.60932 2.36139 0.946635 0
M  V30 10 F -2.43308 3.4631 1.80782 0
M  V30 11 F -4.00377 2.2641 0.759954 0
M  V30 12 C -0.826075 -0.758722 1.69973 0
M  V30 13 C 0.108866 -1.63299 1.19603 0
M  V30 14 C 0.707967 -1.42686 -0.0330018 0
M  V30 15 N 1.66692 -2.32849 -0.544616 0
M  V30 16 N -1.4531 -0.953338 2.95957 0
M  V30 17 H 3.92044 1.30201 -3.04291 0
M  V30 18 H 0.945381 -0.981342 -2.68679 0
M  V30 19 H 0.289642 0.664384 -2.67915 0
M  V30 20 H -0.850065 1.44906 -0.872024 0
M  V30 21 H -2.16972 2.60388 -0.0261737 0
M  V30 22 H 0.359483 -2.50393 1.8147 0
M  V30 23 H 2.36527 -2.73308 0.0990613 0
M  V30 24 H 1.66176 -2.57291 -1.54813 0
M  V30 25 H -0.867593 -1.18564 3.79336 0
M  V30 26 H -2.48428 -0.873925 3.09217 0
M  V30 END ATOM
M  V30 BEGIN BOND
M  V30 1 1 1 2
M  V30 2 2 2 3
M  V30 3 1 2 4
M  V30 4 1 4 5
M  V30 5 2 5 6
M  V30 6 1 6 7
M  V30 7 1 7 8
M  V30 8 1 8 9
M  V30 9 1 9 10
M  V30 10 1 9 11
M  V30 11 2 7 12
M  V30 12 1 12 13
M  V30 13 2 13 14
M  V30 14 1 14 15
M  V30 15 1 12 16
M  V30 16 1 14 5
M  V30 17 1 1 17
M  V30 18 1 4 18
M  V30 19 1 4 19
M  V30 20 1 6 20
M  V30 21 1 9 21
M  V30 22 1 13 22
M  V30 23 1 15 23
M  V30 24 1 15 24
M  V30 25 1 16 25
M  V30 26 1 16 26
M  V30 END BOND
M  V30 END CTAB
M  END
