
     RDKit          3D

  0  0  0  0  0  0  0  0  0  0999 V3000
M  V30 BEGIN CTAB
M  V30 COUNTS 60 63 0 0 0
M  V30 BEGIN ATOM
M  V30 1 N 8.13634 0.304808 2.7819 0
M  V30 2 C 6.97083 -0.110718 1.98304 0 CFG=1
M  V30 3 C 5.90864 0.927887 2.16542 0
M  V30 4 C 4.65514 0.700779 1.44963 0
M  V30 5 C 3.6066 -0.052262 1.97367 0
M  V30 6 C 2.41338 -0.248605 1.29123 0
M  V30 7 C 2.23399 0.307566 0.0545289 0
M  V30 8 C 3.26799 1.0505 -0.462357 0
M  V30 9 C 4.4563 1.25225 0.205868 0
M  V30 10 C 1.01223 0.137198 -0.719456 0
M  V30 11 N 0.900664 0.716158 -1.93175 0
M  V30 12 C -0.189949 0.592248 -2.68786 0
M  V30 13 N -0.213589 1.24753 -3.95404 0
M  V30 14 N -1.21858 -0.134982 -2.23048 0
M  V30 15 C -1.22227 -0.756638 -1.04081 0
M  V30 16 O -2.23811 -1.50414 -0.533467 0
M  V30 17 C -3.49164 -1.80047 -1.08249 0
M  V30 18 C -4.55635 -1.69404 -0.0977254 0
M  V30 19 C -4.88974 -0.476711 0.466862 0
M  V30 20 C -5.88663 -0.42999 1.45609 0
M  V30 21 C -6.53866 -1.558 1.87438 0
M  V30 22 C -6.22459 -2.76746 1.32695 0
M  V30 23 C -5.23137 -2.81214 0.343385 0
M  V30 24 C -4.33454 0.802108 0.0803679 0
M  V30 25 C -4.5095 1.29837 -1.1706 0
M  V30 26 C -3.98003 2.52335 -1.57295 0
M  V30 27 F -4.18862 2.96812 -2.83917 0
M  V30 28 C -3.2509 3.25293 -0.655731 0
M  V30 29 C -3.05711 2.77431 0.62237 0
M  V30 30 F -2.3417 3.52483 1.4715 0
M  V30 31 C -3.60843 1.53447 0.986319 0
M  V30 32 C -3.41843 -3.15711 -1.79083 0
M  V30 33 F -2.45773 -3.06413 -2.82546 0
M  V30 34 F -2.89369 -4.12796 -0.961169 0
M  V30 35 F -4.5879 -3.50199 -2.40941 0
M  V30 36 C -0.0502051 -0.595214 -0.281969 0
M  V30 37 C 7.4492 -0.257572 0.604966 0
M  V30 38 O 8.74452 0.0925913 0.216364 0
M  V30 39 O 6.70982 -0.707927 -0.293491 0
M  V30 40 H 7.83377 0.883942 3.59491 0
M  V30 41 H 8.77359 0.838425 2.16135 0
M  V30 42 H 6.68107 -1.09923 2.39673 0
M  V30 43 H 6.34958 1.89405 1.81855 0
M  V30 44 H 5.75275 1.0161 3.27877 0
M  V30 45 H 3.77753 -0.487353 2.96741 0
M  V30 46 H 1.6644 -0.836029 1.76045 0
M  V30 47 H 3.17369 1.51475 -1.44664 0
M  V30 48 H 5.25605 1.8572 -0.250714 0
M  V30 49 H 0.194144 0.733878 -4.76172 0
M  V30 50 H -0.630281 2.19118 -4.0039 0
M  V30 51 H -3.65261 -1.08559 -1.91081 0
M  V30 52 H -6.14458 0.523071 1.89643 0
M  V30 53 H -7.30292 -1.46322 2.64354 0
M  V30 54 H -6.7393 -3.64466 1.65847 0
M  V30 55 H -5.05987 -3.82518 -0.0309055 0
M  V30 56 H -5.08244 0.75837 -1.90268 0
M  V30 57 H -2.84626 4.19935 -0.978996 0
M  V30 58 H -3.41438 1.22621 2.00483 0
M  V30 59 H -0.0202382 -1.08543 0.687358 0
M  V30 60 H 9.55093 -0.359753 0.578683 0
M  V30 END ATOM
M  V30 BEGIN BOND
M  V30 1 1 1 2
M  V30 2 1 2 3
M  V30 3 1 3 4
M  V30 4 2 4 5
M  V30 5 1 5 6
M  V30 6 2 6 7
M  V30 7 1 7 8
M  V30 8 2 8 9
M  V30 9 1 7 10
M  V30 10 2 10 11
M  V30 11 1 11 12
M  V30 12 1 12 13
M  V30 13 2 12 14
M  V30 14 1 14 15
M  V30 15 1 15 16
M  V30 16 1 16 17
M  V30 17 1 17 18
M  V30 18 1 18 19
M  V30 19 2 19 20
M  V30 20 1 20 21
M  V30 21 2 21 22
M  V30 22 1 22 23
M  V30 23 1 19 24
M  V30 24 2 24 25
M  V30 25 1 25 26
M  V30 26 1 26 27
M  V30 27 2 26 28
M  V30 28 1 28 29
M  V30 29 1 29 30
M  V30 30 2 29 31
M  V30 31 1 17 32
M  V30 32 1 32 33
M  V30 33 1 32 34
M  V30 34 1 32 35
M  V30 35 2 15 36
M  V30 36 1 2 37
M  V30 37 1 37 38
M  V30 38 2 37 39
M  V30 39 1 9 4
M  V30 40 1 36 10
M  V30 41 2 23 18
M  V30 42 1 31 24
M  V30 43 1 1 40
M  V30 44 1 1 41
M  V30 45 1 2 42 CFG=1
M  V30 46 1 3 43
M  V30 47 1 3 44
M  V30 48 1 5 45
M  V30 49 1 6 46
M  V30 50 1 8 47
M  V30 51 1 9 48
M  V30 52 1 13 49
M  V30 53 1 13 50
M  V30 54 1 17 51
M  V30 55 1 20 52
M  V30 56 1 21 53
M  V30 57 1 22 54
M  V30 58 1 23 55
M  V30 59 1 25 56
M  V30 60 1 28 57
M  V30 61 1 31 58
M  V30 62 1 36 59
M  V30 63 1 38 60
M  V30 END BOND
M  V30 END CTAB
M  END
