
     RDKit          3D

  0  0  0  0  0  0  0  0  0  0999 V3000
M  V30 BEGIN CTAB
M  V30 COUNTS 23 24 0 0 0
M  V30 BEGIN ATOM
M  V30 1 N 3.84251 1.13583 0.256817 0
M  V30 2 C 2.45007 1.02339 0.648153 0
M  V30 3 C 1.9524 -0.315309 0.136425 0
M  V30 4 N 0.567668 -0.548096 0.464908 0
M  V30 5 C 0.141313 -1.15116 1.59492 0
M  V30 6 N -1.20247 -1.20351 1.57761 0
M  V30 7 C -1.6645 -0.636182 0.438347 0
M  V30 8 C -0.534394 -0.232681 -0.243124 0
M  V30 9 N -0.704505 0.371583 -1.42813 0
M  V30 10 C -1.93436 0.578288 -1.93696 0
M  V30 11 N -3.03342 0.177101 -1.25724 0
M  V30 12 C -2.94663 -0.439248 -0.0561806 0
M  V30 13 N -4.08598 -0.868699 0.674706 0
M  V30 14 H 3.99544 1.68624 -0.592615 0
M  V30 15 H 4.46926 1.35714 1.04623 0
M  V30 16 H 2.34976 1.10415 1.75032 0
M  V30 17 H 1.884 1.84181 0.184351 0
M  V30 18 H 2.08178 -0.309338 -0.968242 0
M  V30 19 H 2.62459 -1.09196 0.56627 0
M  V30 20 H 0.801971 -1.52633 2.37966 0
M  V30 21 H -2.03871 1.06884 -2.896 0
M  V30 22 H -4.81085 -1.5236 0.320927 0
M  V30 23 H -4.20494 -0.498269 1.64186 0
M  V30 END ATOM
M  V30 BEGIN BOND
M  V30 1 1 1 2
M  V30 2 1 2 3
M  V30 3 1 3 4
M  V30 4 1 4 5
M  V30 5 2 5 6
M  V30 6 1 6 7
M  V30 7 2 7 8
M  V30 8 1 8 9
M  V30 9 2 9 10
M  V30 10 1 10 11
M  V30 11 2 11 12
M  V30 12 1 12 13
M  V30 13 1 8 4
M  V30 14 1 12 7
M  V30 15 1 1 14
M  V30 16 1 1 15
M  V30 17 1 2 16
M  V30 18 1 2 17
M  V30 19 1 3 18
M  V30 20 1 3 19
M  V30 21 1 5 20
M  V30 22 1 10 21
M  V30 23 1 13 22
M  V30 24 1 13 23
M  V30 END BOND
M  V30 END CTAB
M  END
