
     RDKit          3D

  0  0  0  0  0  0  0  0  0  0999 V3000
M  V30 BEGIN CTAB
M  V30 COUNTS 22 22 0 0 0
M  V30 BEGIN ATOM
M  V30 1 C -2.55118 -0.739534 -0.665893 0
M  V30 2 C -1.59706 -0.915187 0.506921 0
M  V30 3 C -0.30158 -0.228957 0.297761 0
M  V30 4 C -0.211085 1.12834 0.479509 0
M  V30 5 N -1.31278 1.9339 0.892971 0
M  V30 6 C 1.03853 1.71444 0.251376 0
M  V30 7 C 2.1463 0.994494 -0.137598 0
M  V30 8 C 2.05446 -0.372994 -0.320414 0
M  V30 9 C 0.828054 -0.957863 -0.0980988 0
M  V30 10 Br 0.672103 -2.82692 -0.34212 0
M  V30 11 N 3.18621 -1.14249 -0.725303 0
M  V30 12 H -2.57468 0.325218 -0.918897 0
M  V30 13 H -3.55253 -1.06353 -0.346374 0
M  V30 14 H -2.20812 -1.34535 -1.54435 0
M  V30 15 H -2.09627 -0.40883 1.37535 0
M  V30 16 H -1.46 -1.99446 0.728167 0
M  V30 17 H -1.35297 2.18778 1.92088 0
M  V30 18 H -2.06649 2.29399 0.311382 0
M  V30 19 H 1.0836 2.79813 0.40243 0
M  V30 20 H 3.10071 1.49332 -0.305704 0
M  V30 21 H 4.16685 -0.816553 -0.587118 0
M  V30 22 H 3.00793 -2.05695 -1.17488 0
M  V30 END ATOM
M  V30 BEGIN BOND
M  V30 1 1 1 2
M  V30 2 1 2 3
M  V30 3 2 3 4
M  V30 4 1 4 5
M  V30 5 1 4 6
M  V30 6 2 6 7
M  V30 7 1 7 8
M  V30 8 2 8 9
M  V30 9 1 9 10
M  V30 10 1 8 11
M  V30 11 1 9 3
M  V30 12 1 1 12
M  V30 13 1 1 13
M  V30 14 1 1 14
M  V30 15 1 2 15
M  V30 16 1 2 16
M  V30 17 1 5 17
M  V30 18 1 5 18
M  V30 19 1 6 19
M  V30 20 1 7 20
M  V30 21 1 11 21
M  V30 22 1 11 22
M  V30 END BOND
M  V30 END CTAB
M  END
