
     RDKit          3D

  0  0  0  0  0  0  0  0  0  0999 V3000
M  V30 BEGIN CTAB
M  V30 COUNTS 47 51 0 0 0
M  V30 BEGIN ATOM
M  V30 1 N 6.35258 -2.72397 -0.860523 0
M  V30 2 C 6.92211 -1.53016 -0.326303 0
M  V30 3 C 8.27349 -1.3564 -0.176714 0
M  V30 4 C 8.81883 -0.213977 0.334523 0
M  V30 5 C 7.95162 0.791215 0.708066 0
M  V30 6 C 6.60419 0.635445 0.566267 0
M  V30 7 C 6.06542 -0.523872 0.0482998 0
M  V30 8 C 4.61165 -0.649307 -0.0867578 0
M  V30 9 N 3.92221 -1.69834 -0.566905 0
M  V30 10 N 2.60983 -1.41558 -0.522307 0
M  V30 11 C 2.45693 -0.182386 -0.0124069 0
M  V30 12 N 3.68088 0.263031 0.244183 0
M  V30 13 C 1.16377 0.478559 0.192311 0
M  V30 14 C 1.18026 1.74901 0.727467 0
M  V30 15 C -0.00428508 2.39761 0.933148 0
M  V30 16 C -1.17575 1.74333 0.59171 0
M  V30 17 C -1.16279 0.473888 0.0586483 0
M  V30 18 N 0.00786236 -0.140528 -0.133447 0
M  V30 19 C -2.42022 -0.177739 -0.286502 0
M  V30 20 N -2.62156 -1.39591 -0.810074 0
M  V30 21 N -3.91608 -1.58812 -0.964139 0
M  V30 22 C -4.60834 -0.488344 -0.54091 0
M  V30 23 N -3.65804 0.353031 -0.133381 0
M  V30 24 C -6.04482 -0.397399 -0.583949 0
M  V30 25 C -6.76504 -1.49521 -1.08628 0
M  V30 26 C -8.1369 -1.49474 -1.1637 0
M  V30 27 C -8.87253 -0.429896 -0.757608 0
M  V30 28 C -8.19639 0.67126 -0.256371 0
M  V30 29 C -6.80937 0.661163 -0.182137 0
M  V30 30 N -6.19425 1.8167 0.338531 0
M  V30 31 H 6.14115 -3.4885 -0.18525 0
M  V30 32 H 6.14896 -2.84881 -1.87248 0
M  V30 33 H 8.90397 -2.19291 -0.492735 0
M  V30 34 H 9.8862 -0.154963 0.419781 0
M  V30 35 H 8.40864 1.69091 1.11224 0
M  V30 36 H 5.95553 1.46089 0.876605 0
M  V30 37 H 3.88438 1.20402 0.651385 0
M  V30 38 H 2.1143 2.23058 0.982838 0
M  V30 39 H -0.0618332 3.40863 1.35502 0
M  V30 40 H -2.09962 2.2774 0.76399 0
M  V30 41 H -3.81521 1.30512 0.258029 0
M  V30 42 H -6.26627 -2.39226 -1.43522 0
M  V30 43 H -8.66138 -2.37323 -1.56273 0
M  V30 44 H -9.95567 -0.387933 -0.801249 0
M  V30 45 H -8.73268 1.55232 0.083725 0
M  V30 46 H -6.06361 1.98192 1.3806 0
M  V30 47 H -5.82212 2.59446 -0.260597 0
M  V30 END ATOM
M  V30 BEGIN BOND
M  V30 1 1 1 2
M  V30 2 2 2 3
M  V30 3 1 3 4
M  V30 4 2 4 5
M  V30 5 1 5 6
M  V30 6 2 6 7
M  V30 7 1 7 8
M  V30 8 2 8 9
M  V30 9 1 9 10
M  V30 10 2 10 11
M  V30 11 1 11 12
M  V30 12 1 11 13
M  V30 13 2 13 14
M  V30 14 1 14 15
M  V30 15 2 15 16
M  V30 16 1 16 17
M  V30 17 2 17 18
M  V30 18 1 17 19
M  V30 19 2 19 20
M  V30 20 1 20 21
M  V30 21 2 21 22
M  V30 22 1 22 23
M  V30 23 1 22 24
M  V30 24 2 24 25
M  V30 25 1 25 26
M  V30 26 2 26 27
M  V30 27 1 27 28
M  V30 28 2 28 29
M  V30 29 1 29 30
M  V30 30 1 7 2
M  V30 31 1 12 8
M  V30 32 1 18 13
M  V30 33 1 23 19
M  V30 34 1 29 24
M  V30 35 1 1 31
M  V30 36 1 1 32
M  V30 37 1 3 33
M  V30 38 1 4 34
M  V30 39 1 5 35
M  V30 40 1 6 36
M  V30 41 1 12 37
M  V30 42 1 14 38
M  V30 43 1 15 39
M  V30 44 1 16 40
M  V30 45 1 23 41
M  V30 46 1 25 42
M  V30 47 1 26 43
M  V30 48 1 27 44
M  V30 49 1 28 45
M  V30 50 1 30 46
M  V30 51 1 30 47
M  V30 END BOND
M  V30 END CTAB
M  END
