
     RDKit          3D

  0  0  0  0  0  0  0  0  0  0999 V3000
M  V30 BEGIN CTAB
M  V30 COUNTS 33 35 0 0 0
M  V30 BEGIN ATOM
M  V30 1 N -5.87554 2.04495 -0.0714581 0
M  V30 2 C -4.60631 1.41998 -0.0928884 0
M  V30 3 C -3.45906 2.18168 -0.232687 0
M  V30 4 C -2.21682 1.58993 -0.255464 0
M  V30 5 C -2.06167 0.207979 -0.139556 0
M  V30 6 C -3.17804 -0.543748 -0.0025648 0
M  V30 7 C -4.43511 0.057491 0.0202628 0
M  V30 8 F -5.50572 -0.750679 0.15956 0
M  V30 9 C -0.698725 -0.343944 -0.173383 0
M  V30 10 C -0.455369 -1.68281 -0.0667177 0
M  V30 11 C 0.846925 -2.17299 -0.102414 0
M  V30 12 O 1.09452 -3.39996 -0.00617876 0
M  V30 13 C 1.8872 -1.29181 -0.24658 0
M  V30 14 C 3.19742 -1.69822 -0.290378 0
M  V30 15 N 3.45445 -3.09093 -0.179662 0
M  V30 16 C 4.23664 -0.812875 -0.434856 0
M  V30 17 F 5.54114 -1.2055 -0.479541 0
M  V30 18 C 3.92476 0.52991 -0.537655 0
M  V30 19 N 4.96711 1.45961 -0.686352 0
M  V30 20 N 5.39093 2.0712 0.297165 0 CHG=1
M  V30 21 N 5.9943 2.79852 1.06019 0 CHG=-1
M  V30 22 C 2.63037 0.965702 -0.497502 0
M  V30 23 F 2.27079 2.27454 -0.594276 0
M  V30 24 C 1.58383 0.0639681 -0.351083 0
M  V30 25 O 0.332075 0.449358 -0.308977 0
M  V30 26 H -6.1434 2.70662 0.679511 0
M  V30 27 H -6.54734 1.8289 -0.830619 0
M  V30 28 H -3.57751 3.26929 -0.32413 0
M  V30 29 H -1.32601 2.22407 -0.367887 0
M  V30 30 H -3.10817 -1.61648 0.0905116 0
M  V30 31 H -1.23823 -2.39439 0.046178 0
M  V30 32 H 3.44137 -3.48567 0.800579 0
M  V30 33 H 3.63921 -3.65371 -1.02825 0
M  V30 END ATOM
M  V30 BEGIN BOND
M  V30 1 1 1 2
M  V30 2 2 2 3
M  V30 3 1 3 4
M  V30 4 2 4 5
M  V30 5 1 5 6
M  V30 6 2 6 7
M  V30 7 1 7 8
M  V30 8 1 5 9
M  V30 9 2 9 10
M  V30 10 1 10 11
M  V30 11 2 11 12
M  V30 12 1 11 13
M  V30 13 2 13 14
M  V30 14 1 14 15
M  V30 15 1 14 16
M  V30 16 1 16 17
M  V30 17 2 16 18
M  V30 18 1 18 19
M  V30 19 2 19 20 CFG=2
M  V30 20 2 20 21
M  V30 21 1 18 22
M  V30 22 1 22 23
M  V30 23 2 22 24
M  V30 24 1 24 25
M  V30 25 1 7 2
M  V30 26 1 25 9
M  V30 27 1 24 13
M  V30 28 1 1 26
M  V30 29 1 1 27
M  V30 30 1 3 28
M  V30 31 1 4 29
M  V30 32 1 6 30
M  V30 33 1 10 31
M  V30 34 1 15 32
M  V30 35 1 15 33
M  V30 END BOND
M  V30 END CTAB
M  END
