
     RDKit          3D

  0  0  0  0  0  0  0  0  0  0999 V3000
M  V30 BEGIN CTAB
M  V30 COUNTS 26 27 0 0 0
M  V30 BEGIN ATOM
M  V30 1 C 4.7262 0.543658 0.352119 0
M  V30 2 C 3.27153 0.261921 0.277878 0
M  V30 3 C 2.41582 1.34674 0.226286 0
M  V30 4 C 1.05885 1.13122 0.156746 0
M  V30 5 C 0.514199 -0.135165 0.136314 0
M  V30 6 C 1.35629 -1.20206 0.187081 0
M  V30 7 C 2.737 -0.989765 0.257883 0
M  V30 8 C -0.934475 -0.268005 0.0614562 0
M  V30 9 C -1.87434 0.739275 0.00601017 0
M  V30 10 N -3.11333 0.223567 -0.0554594 0
M  V30 11 N -4.28404 0.968751 -0.121319 0
M  V30 12 C -2.97561 -1.11278 -0.0398359 0
M  V30 13 N -4.06977 -2.00772 -0.0913423 0
M  V30 14 N -1.65021 -1.41886 0.0313286 0
M  V30 15 H 4.9612 1.24779 1.18222 0
M  V30 16 H 5.3215 -0.372858 0.539585 0
M  V30 17 H 5.03624 1.05811 -0.582056 0
M  V30 18 H 2.80228 2.36734 0.240015 0
M  V30 19 H 0.433247 2.01718 0.118446 0
M  V30 20 H 0.958655 -2.19821 0.172619 0
M  V30 21 H 3.38303 -1.8356 0.297003 0
M  V30 22 H -1.58896 1.79762 0.0142472 0
M  V30 23 H -4.88637 1.15434 0.703219 0
M  V30 24 H -4.58391 1.36568 -1.03233 0
M  V30 25 H -4.88892 -1.8423 0.533566 0
M  V30 26 H -4.1261 -2.83986 -0.718262 0
M  V30 END ATOM
M  V30 BEGIN BOND
M  V30 1 1 1 2
M  V30 2 2 2 3
M  V30 3 1 3 4
M  V30 4 2 4 5
M  V30 5 1 5 6
M  V30 6 2 6 7
M  V30 7 1 5 8
M  V30 8 2 8 9
M  V30 9 1 9 10
M  V30 10 1 10 11
M  V30 11 1 10 12
M  V30 12 1 12 13
M  V30 13 2 12 14
M  V30 14 1 7 2
M  V30 15 1 14 8
M  V30 16 1 1 15
M  V30 17 1 1 16
M  V30 18 1 1 17
M  V30 19 1 3 18
M  V30 20 1 4 19
M  V30 21 1 6 20
M  V30 22 1 7 21
M  V30 23 1 9 22
M  V30 24 1 11 23
M  V30 25 1 11 24
M  V30 26 1 13 25
M  V30 27 1 13 26
M  V30 END BOND
M  V30 END CTAB
M  END
