
     RDKit          3D

  0  0  0  0  0  0  0  0  0  0999 V3000
M  V30 BEGIN CTAB
M  V30 COUNTS 31 33 0 0 0
M  V30 BEGIN ATOM
M  V30 1 N -5.68807 0.499337 -1.67667 0
M  V30 2 C -4.49439 0.31592 -0.909466 0
M  V30 3 N -3.27894 0.374377 -1.47546 0
M  V30 4 C -2.13375 0.204491 -0.772779 0
M  V30 5 C -0.904277 0.272527 -1.39428 0
M  V30 6 C 0.225877 0.0917346 -0.628612 0
M  V30 7 C 0.15432 -0.152384 0.727124 0
M  V30 8 S 1.61826 -0.386157 1.71702 0
M  V30 9 C 3.09976 -0.263922 0.750944 0
M  V30 10 C 3.64528 -1.36714 0.148833 0
M  V30 11 Cl 2.90147 -2.96557 0.303983 0
M  V30 12 C 4.79739 -1.21492 -0.590077 0
M  V30 13 Cl 5.50612 -2.62459 -1.36712 0
M  V30 14 C 5.41738 0.00554461 -0.743371 0
M  V30 15 Cl 6.89613 0.119374 -1.70917 0
M  V30 16 C 4.8725 1.11618 -0.140088 0
M  V30 17 Cl 5.62588 2.67077 -0.310963 0
M  V30 18 C 3.71068 0.954525 0.603298 0
M  V30 19 Cl 3.03894 2.40835 1.36507 0
M  V30 20 C -1.05994 -0.21856 1.33531 0
M  V30 21 C -2.20931 -0.0420077 0.596725 0
M  V30 22 C -3.45991 -0.102342 1.18014 0
M  V30 23 N -3.52309 -0.352704 2.56888 0
M  V30 24 N -4.55465 0.077256 0.413891 0
M  V30 25 H -6.29048 -0.271234 -1.99545 0
M  V30 26 H -5.94217 1.49938 -1.91611 0
M  V30 27 H -0.888889 0.465721 -2.45882 0
M  V30 28 H 1.21412 0.143031 -1.1095 0
M  V30 29 H -1.19148 -0.408704 2.40653 0
M  V30 30 H -3.69551 0.444845 3.2424 0
M  V30 31 H -3.40928 -1.29312 2.99592 0
M  V30 END ATOM
M  V30 BEGIN BOND
M  V30 1 1 1 2
M  V30 2 2 2 3
M  V30 3 1 3 4
M  V30 4 2 4 5
M  V30 5 1 5 6
M  V30 6 2 6 7
M  V30 7 1 7 8
M  V30 8 1 8 9
M  V30 9 2 9 10
M  V30 10 1 10 11
M  V30 11 1 10 12
M  V30 12 1 12 13
M  V30 13 2 12 14
M  V30 14 1 14 15
M  V30 15 1 14 16
M  V30 16 1 16 17
M  V30 17 2 16 18
M  V30 18 1 18 19
M  V30 19 1 7 20
M  V30 20 2 20 21
M  V30 21 1 21 22
M  V30 22 1 22 23
M  V30 23 2 22 24
M  V30 24 1 24 2
M  V30 25 1 21 4
M  V30 26 1 18 9
M  V30 27 1 1 25
M  V30 28 1 1 26
M  V30 29 1 5 27
M  V30 30 1 6 28
M  V30 31 1 20 29
M  V30 32 1 23 30
M  V30 33 1 23 31
M  V30 END BOND
M  V30 END CTAB
M  END
