
     RDKit          3D

  0  0  0  0  0  0  0  0  0  0999 V3000
M  V30 BEGIN CTAB
M  V30 COUNTS 46 48 0 0 0
M  V30 BEGIN ATOM
M  V30 1 N 1.84243 0.345574 2.49101 0
M  V30 2 C 1.48956 0.632507 1.17478 0 CFG=2
M  V30 3 C 0.0150497 0.286092 0.889362 0
M  V30 4 N -0.0132444 0.0148236 -0.525253 0
M  V30 5 C 1.34932 0.055844 -1.06258 0
M  V30 6 C 2.16031 -0.27299 0.163168 0 CFG=1
M  V30 7 C 3.59973 0.0213069 0.00158322 0
M  V30 8 C 4.10839 1.2248 -0.357178 0
M  V30 9 C 5.46942 1.41935 -0.486971 0
M  V30 10 C 6.35089 0.381395 -0.25168 0
M  V30 11 C 5.85785 -0.853016 0.114687 0
M  V30 12 C 4.49006 -1.01585 0.23616 0
M  V30 13 C -1.16388 -0.252948 -1.29764 0
M  V30 14 O -0.959358 -0.485437 -2.55362 0
M  V30 15 C -2.54863 -0.299867 -0.851777 0
M  V30 16 N -3.37638 -0.827849 -1.9605 0
M  V30 17 C -2.79937 -1.12897 0.362611 0
M  V30 18 C -4.29772 -1.33102 0.525346 0
M  V30 19 C -4.88275 0.0555923 0.775966 0
M  V30 20 C -4.64867 0.871673 -0.475178 0
M  V30 21 C -3.13728 1.08644 -0.601649 0
M  V30 22 H 2.24581 1.1128 2.98164 0
M  V30 23 H 2.15369 -0.544412 2.74828 0
M  V30 24 H 1.69958 1.68038 0.855292 0
M  V30 25 H -0.134672 -0.698392 1.39758 0
M  V30 26 H -0.643065 1.0703 1.24301 0
M  V30 27 H 1.50667 -0.713661 -1.83257 0
M  V30 28 H 1.5121 1.08704 -1.41015 0
M  V30 29 H 1.96406 -1.30789 0.457337 0
M  V30 30 H 3.42449 2.04093 -0.542704 0
M  V30 31 H 5.83926 2.38559 -0.772856 0
M  V30 32 H 7.42193 0.503363 -0.345282 0
M  V30 33 H 6.5423 -1.68658 0.30497 0
M  V30 34 H 4.1258 -2.00219 0.527241 0
M  V30 35 H -3.47233 -1.85046 -1.90916 0
M  V30 36 H -3.01923 -0.474451 -2.86884 0
M  V30 37 H -2.50122 -0.530277 1.25174 0
M  V30 38 H -2.3279 -2.10361 0.271075 0
M  V30 39 H -4.44734 -1.90596 1.45386 0
M  V30 40 H -4.75928 -1.84244 -0.319869 0
M  V30 41 H -5.93625 -0.0728857 1.02627 0
M  V30 42 H -4.26831 0.516447 1.5751 0
M  V30 43 H -5.05215 0.363216 -1.3594 0
M  V30 44 H -5.08855 1.87249 -0.294887 0
M  V30 45 H -2.78394 1.43242 0.365114 0
M  V30 46 H -2.90719 1.74077 -1.45362 0
M  V30 END ATOM
M  V30 BEGIN BOND
M  V30 1 1 1 2
M  V30 2 1 2 3
M  V30 3 1 3 4
M  V30 4 1 4 5
M  V30 5 1 5 6
M  V30 6 1 6 7
M  V30 7 2 7 8
M  V30 8 1 8 9
M  V30 9 2 9 10
M  V30 10 1 10 11
M  V30 11 2 11 12
M  V30 12 1 4 13
M  V30 13 2 13 14
M  V30 14 1 13 15
M  V30 15 1 15 16
M  V30 16 1 15 17
M  V30 17 1 17 18
M  V30 18 1 18 19
M  V30 19 1 19 20
M  V30 20 1 20 21
M  V30 21 1 6 2
M  V30 22 1 12 7
M  V30 23 1 21 15
M  V30 24 1 1 22
M  V30 25 1 1 23
M  V30 26 1 2 24 CFG=3
M  V30 27 1 3 25
M  V30 28 1 3 26
M  V30 29 1 5 27
M  V30 30 1 5 28
M  V30 31 1 6 29 CFG=1
M  V30 32 1 8 30
M  V30 33 1 9 31
M  V30 34 1 10 32
M  V30 35 1 11 33
M  V30 36 1 12 34
M  V30 37 1 16 35
M  V30 38 1 16 36
M  V30 39 1 17 37
M  V30 40 1 17 38
M  V30 41 1 18 39
M  V30 42 1 18 40
M  V30 43 1 19 41
M  V30 44 1 19 42
M  V30 45 1 20 43
M  V30 46 1 20 44
M  V30 47 1 21 45
M  V30 48 1 21 46
M  V30 END BOND
M  V30 END CTAB
M  END
