
     RDKit          3D

  0  0  0  0  0  0  0  0  0  0999 V3000
M  V30 BEGIN CTAB
M  V30 COUNTS 33 34 0 0 0
M  V30 BEGIN ATOM
M  V30 1 N -3.20904 -0.385387 -1.3981 0
M  V30 2 C -2.3353 0.725194 -1.07339 0
M  V30 3 C -1.46514 0.40476 0.137023 0
M  V30 4 C -2.24017 0.106 1.38318 0
M  V30 5 C -1.42706 1.39416 1.2038 0
M  V30 6 C -0.294421 -0.496652 -0.195351 0
M  V30 7 O -0.874144 -1.69748 -0.673782 0
M  V30 8 C 0.459099 0.148997 -1.32665 0
M  V30 9 C 1.87119 -0.294809 -1.47271 0
M  V30 10 C 2.63162 -0.390277 -0.179179 0
M  V30 11 C 1.76603 0.083506 0.966946 0
M  V30 12 C 0.554666 -0.845714 0.969804 0
M  V30 13 N 3.89101 0.311365 -0.235653 0
M  V30 14 H -4.13028 -0.084418 -1.74751 0
M  V30 15 H -3.26157 -1.05356 -0.593954 0
M  V30 16 H -1.74445 0.965438 -1.96303 0
M  V30 17 H -2.93877 1.60572 -0.813584 0
M  V30 18 H -3.34672 0.27411 1.38929 0
M  V30 19 H -1.92017 -0.615908 2.13466 0
M  V30 20 H -0.578308 1.5579 1.88897 0
M  V30 21 H -2.0166 2.34739 1.05539 0
M  V30 22 H -0.249271 -2.45531 -0.601922 0
M  V30 23 H 0.415043 1.25152 -1.20452 0
M  V30 24 H -0.0732514 -0.154307 -2.27577 0
M  V30 25 H 1.91231 -1.26236 -2.0387 0
M  V30 26 H 2.40049 0.441848 -2.11429 0
M  V30 27 H 2.85393 -1.46244 3.62075e-05 0
M  V30 28 H 2.36469 -0.0214192 1.89531 0
M  V30 29 H 1.5076 1.12456 0.787406 0
M  V30 30 H 0.0559914 -0.878226 1.92838 0
M  V30 31 H 0.980951 -1.87426 0.777383 0
M  V30 32 H 4.62972 -0.0979309 0.359555 0
M  V30 33 H 3.81033 1.32798 -0.0127726 0
M  V30 END ATOM
M  V30 BEGIN BOND
M  V30 1 1 1 2
M  V30 2 1 2 3
M  V30 3 1 3 4
M  V30 4 1 4 5
M  V30 5 1 3 6
M  V30 6 1 6 7
M  V30 7 1 6 8
M  V30 8 1 8 9
M  V30 9 1 9 10
M  V30 10 1 10 11
M  V30 11 1 11 12
M  V30 12 1 10 13
M  V30 13 1 5 3
M  V30 14 1 12 6
M  V30 15 1 1 14
M  V30 16 1 1 15
M  V30 17 1 2 16
M  V30 18 1 2 17
M  V30 19 1 4 18
M  V30 20 1 4 19
M  V30 21 1 5 20
M  V30 22 1 5 21
M  V30 23 1 7 22
M  V30 24 1 8 23
M  V30 25 1 8 24
M  V30 26 1 9 25
M  V30 27 1 9 26
M  V30 28 1 10 27
M  V30 29 1 11 28
M  V30 30 1 11 29
M  V30 31 1 12 30
M  V30 32 1 12 31
M  V30 33 1 13 32
M  V30 34 1 13 33
M  V30 END BOND
M  V30 END CTAB
M  END
