
     RDKit          3D

  0  0  0  0  0  0  0  0  0  0999 V3000
M  V30 BEGIN CTAB
M  V30 COUNTS 38 40 0 0 0
M  V30 BEGIN ATOM
M  V30 1 N -4.33318 2.86428 0.988258 0
M  V30 2 C -4.07358 1.49988 0.633111 0
M  V30 3 N -2.93098 0.882728 0.92904 0
M  V30 4 C -2.66862 -0.395802 0.604752 0
M  V30 5 C -1.39071 -1.0603 0.944584 0
M  V30 6 N -0.386092 -0.930409 -0.0531759 0
M  V30 7 C -0.0465012 0.401789 -0.316512 0
M  V30 8 C 1.23698 0.669493 -1.00207 0
M  V30 9 N 2.26997 -0.332671 -0.721037 0
M  V30 10 C 1.81982 -1.68902 -0.848696 0
M  V30 11 C 0.659598 -1.88355 0.0794903 0
M  V30 12 C 3.58124 0.0677864 -0.359484 0
M  V30 13 C 4.58594 -0.806059 -0.0873217 0
M  V30 14 N 5.80655 -0.331263 0.249711 0
M  V30 15 C 6.06697 0.991936 0.326697 0
M  V30 16 C 5.05312 1.86835 0.0520325 0
M  V30 17 N 3.84419 1.3973 -0.28178 0
M  V30 18 N -3.64108 -1.05184 -0.0546905 0
M  V30 19 C -4.81091 -0.448853 -0.367633 0
M  V30 20 N -5.02183 0.825186 -0.0219866 0
M  V30 21 N -5.80624 -1.17118 -1.06014 0
M  V30 22 H -5.03626 3.01262 1.73333 0
M  V30 23 H -3.85315 3.66181 0.534484 0
M  V30 24 H -1.55862 -2.14847 1.1679 0
M  V30 25 H -1.04163 -0.624236 1.91113 0
M  V30 26 H -0.0261295 0.962438 0.66634 0
M  V30 27 H -0.869848 0.922514 -0.889167 0
M  V30 28 H 1.09793 0.631265 -2.11917 0
M  V30 29 H 1.66471 1.66983 -0.796141 0
M  V30 30 H 2.56199 -2.45588 -0.633828 0
M  V30 31 H 1.48814 -1.80778 -1.92073 0
M  V30 32 H 1.05274 -1.8267 1.11808 0
M  V30 33 H 0.298058 -2.9236 -0.0618466 0
M  V30 34 H 4.43197 -1.87372 -0.134053 0
M  V30 35 H 7.0453 1.37539 0.596842 0
M  V30 36 H 5.27705 2.92822 0.117912 0
M  V30 37 H -5.64064 -1.49774 -2.0304 0
M  V30 38 H -6.70626 -1.37372 -0.591441 0
M  V30 END ATOM
M  V30 BEGIN BOND
M  V30 1 1 1 2
M  V30 2 2 2 3
M  V30 3 1 3 4
M  V30 4 1 4 5
M  V30 5 1 5 6
M  V30 6 1 6 7
M  V30 7 1 7 8
M  V30 8 1 8 9
M  V30 9 1 9 10
M  V30 10 1 10 11
M  V30 11 1 9 12
M  V30 12 2 12 13
M  V30 13 1 13 14
M  V30 14 2 14 15
M  V30 15 1 15 16
M  V30 16 2 16 17
M  V30 17 2 4 18
M  V30 18 1 18 19
M  V30 19 2 19 20
M  V30 20 1 19 21
M  V30 21 1 20 2
M  V30 22 1 11 6
M  V30 23 1 17 12
M  V30 24 1 1 22
M  V30 25 1 1 23
M  V30 26 1 5 24
M  V30 27 1 5 25
M  V30 28 1 7 26
M  V30 29 1 7 27
M  V30 30 1 8 28
M  V30 31 1 8 29
M  V30 32 1 10 30
M  V30 33 1 10 31
M  V30 34 1 11 32
M  V30 35 1 11 33
M  V30 36 1 13 34
M  V30 37 1 15 35
M  V30 38 1 16 36
M  V30 39 1 21 37
M  V30 40 1 21 38
M  V30 END BOND
M  V30 END CTAB
M  END
