
     RDKit          3D

  0  0  0  0  0  0  0  0  0  0999 V3000
M  V30 BEGIN CTAB
M  V30 COUNTS 32 33 0 0 0
M  V30 BEGIN ATOM
M  V30 1 C -3.01079 -2.43772 0.371127 0
M  V30 2 N -2.34659 -1.16631 0.196259 0
M  V30 3 C -0.980784 -1.18854 0.201619 0
M  V30 4 O -0.382293 -2.2919 0.356863 0
M  V30 5 N -0.238264 -0.0661482 0.0481451 0
M  V30 6 N 1.13464 -0.0882847 0.0165167 0
M  V30 7 C 1.82849 -1.31889 -0.40416 0
M  V30 8 C 3.14648 -0.85231 -1.00301 0
M  V30 9 O 3.95804 -0.46019 0.0410175 0
M  V30 10 C 3.35739 0.426636 0.907002 0
M  V30 11 C 2.03774 0.971892 0.400673 0
M  V30 12 C -0.928803 1.06975 -0.109348 0
M  V30 13 N -0.19711 2.28087 -0.301186 0
M  V30 14 C -2.3332 1.13165 -0.119357 0
M  V30 15 N -2.95889 2.3914 -0.294118 0
M  V30 16 C -3.03316 -0.0311937 0.0394627 0
M  V30 17 O -4.28659 -0.0366772 0.0384796 0
M  V30 18 H -2.572 -3.14056 -0.352147 0
M  V30 19 H -2.90283 -2.83249 1.40223 0
M  V30 20 H -4.10543 -2.32892 0.175393 0
M  V30 21 H 1.25048 -1.74222 -1.25788 0
M  V30 22 H 2.01496 -2.00931 0.413875 0
M  V30 23 H 2.96812 -0.0668654 -1.73849 0
M  V30 24 H 3.63496 -1.71009 -1.50663 0
M  V30 25 H 4.0527 1.27846 1.05112 0
M  V30 26 H 3.26713 -0.074078 1.8926 0
M  V30 27 H 1.59557 1.48146 1.28514 0
M  V30 28 H 2.29865 1.67447 -0.40696 0
M  V30 29 H 0.242288 2.54585 -1.18102 0
M  V30 30 H -0.133239 2.90762 0.523734 0
M  V30 31 H -2.82689 2.92924 -1.16078 0
M  V30 32 H -3.55078 2.75338 0.473827 0
M  V30 END ATOM
M  V30 BEGIN BOND
M  V30 1 1 1 2
M  V30 2 1 2 3
M  V30 3 2 3 4
M  V30 4 1 3 5
M  V30 5 1 5 6
M  V30 6 1 6 7
M  V30 7 1 7 8
M  V30 8 1 8 9
M  V30 9 1 9 10
M  V30 10 1 10 11
M  V30 11 1 5 12
M  V30 12 1 12 13
M  V30 13 2 12 14
M  V30 14 1 14 15
M  V30 15 1 14 16
M  V30 16 2 16 17
M  V30 17 1 16 2
M  V30 18 1 11 6
M  V30 19 1 1 18
M  V30 20 1 1 19
M  V30 21 1 1 20
M  V30 22 1 7 21
M  V30 23 1 7 22
M  V30 24 1 8 23
M  V30 25 1 8 24
M  V30 26 1 10 25
M  V30 27 1 10 26
M  V30 28 1 11 27
M  V30 29 1 11 28
M  V30 30 1 13 29
M  V30 31 1 13 30
M  V30 32 1 15 31
M  V30 33 1 15 32
M  V30 END BOND
M  V30 END CTAB
M  END
