
     RDKit          3D

  0  0  0  0  0  0  0  0  0  0999 V3000
M  V30 BEGIN CTAB
M  V30 COUNTS 31 32 0 0 0
M  V30 BEGIN ATOM
M  V30 1 N -5.67644 1.78426 2.06183 0
M  V30 2 C -4.86912 1.27947 0.970405 0
M  V30 3 S -5.17113 1.34858 -0.704917 0
M  V30 4 C -3.76907 0.549392 -1.25276 0
M  V30 5 C -3.12675 0.265544 -0.0717274 0
M  V30 6 N -3.71653 0.651877 1.03156 0
M  V30 7 C -1.78862 -0.462104 0.0161521 0
M  V30 8 C -1.35773 -0.777892 -1.37273 0
M  V30 9 C -0.0368679 -1.50458 -1.41686 0
M  V30 10 N 1.02237 -0.687073 -0.807823 0
M  V30 11 C 2.347 -1.13076 -0.719431 0
M  V30 12 O 2.67065 -2.24275 -1.15871 0
M  V30 13 C 3.35121 -0.260259 -0.0981796 0
M  V30 14 C 3.17985 0.99266 0.439447 0
M  V30 15 N 4.21582 1.58041 0.937856 0
M  V30 16 C 5.3977 0.984747 0.924952 0
M  V30 17 S 5.02085 -0.51305 0.153958 0
M  V30 18 N 6.6574 1.45653 1.41944 0
M  V30 19 H -5.24051 2.21163 2.90013 0
M  V30 20 H -6.69779 1.71672 2.00231 0
M  V30 21 H -3.42807 0.303836 -2.27688 0
M  V30 22 H -1.89767 -1.37702 0.618768 0
M  V30 23 H -1.0545 0.213009 0.493812 0
M  V30 24 H -1.22648 0.15805 -1.95746 0
M  V30 25 H -2.10303 -1.45882 -1.85245 0
M  V30 26 H 0.241343 -1.6034 -2.48596 0
M  V30 27 H -0.0747807 -2.50156 -0.94153 0
M  V30 28 H 0.750419 0.24564 -0.440394 0
M  V30 29 H 2.17169 1.47099 0.436774 0
M  V30 30 H 7.4924 1.29235 0.837872 0
M  V30 31 H 6.71638 1.93485 2.31256 0
M  V30 END ATOM
M  V30 BEGIN BOND
M  V30 1 1 1 2
M  V30 2 1 2 3
M  V30 3 1 3 4
M  V30 4 2 4 5
M  V30 5 1 5 6
M  V30 6 1 5 7
M  V30 7 1 7 8
M  V30 8 1 8 9
M  V30 9 1 9 10
M  V30 10 1 10 11
M  V30 11 2 11 12
M  V30 12 1 11 13
M  V30 13 2 13 14
M  V30 14 1 14 15
M  V30 15 2 15 16
M  V30 16 1 16 17
M  V30 17 1 16 18
M  V30 18 2 6 2
M  V30 19 1 17 13
M  V30 20 1 1 19
M  V30 21 1 1 20
M  V30 22 1 4 21
M  V30 23 1 7 22
M  V30 24 1 7 23
M  V30 25 1 8 24
M  V30 26 1 8 25
M  V30 27 1 9 26
M  V30 28 1 9 27
M  V30 29 1 10 28
M  V30 30 1 14 29
M  V30 31 1 18 30
M  V30 32 1 18 31
M  V30 END BOND
M  V30 END CTAB
M  END
