
     RDKit          3D

  0  0  0  0  0  0  0  0  0  0999 V3000
M  V30 BEGIN CTAB
M  V30 COUNTS 42 43 0 0 0
M  V30 BEGIN ATOM
M  V30 1 N -6.57063 0.327883 2.18087 0
M  V30 2 C -5.35001 0.344322 1.42698 0
M  V30 3 C -4.76772 -0.812541 0.960716 0
M  V30 4 C -3.57594 -0.77116 0.226142 0
M  V30 5 C -2.95665 0.42013 -0.048884 0
M  V30 6 C -3.54664 1.56496 0.42104 0
M  V30 7 C -4.72863 1.54048 1.15109 0
M  V30 8 N -1.70239 0.476225 -0.820272 0
M  V30 9 C -0.579696 0.106392 -0.118189 0
M  V30 10 O -0.772171 -0.245651 1.14204 0
M  V30 11 C 0.831129 0.0105799 -0.462194 0
M  V30 12 O 1.18269 0.306237 -1.61561 0
M  V30 13 N 1.75642 -0.418274 0.536354 0
M  V30 14 C 3.11287 -0.56118 0.375618 0
M  V30 15 C 3.81796 -0.329205 -0.760758 0
M  V30 16 C 5.20877 -0.49209 -0.86822 0
M  V30 17 C 5.89414 -0.219194 -2.13596 0
M  V30 18 C 5.89832 -0.908802 0.234102 0
M  V30 19 C 5.21431 -1.15338 1.40372 0
M  V30 20 C 3.851 -0.991819 1.50264 0
M  V30 21 N 3.19516 -1.25717 2.72906 0
M  V30 22 C -1.78375 0.890559 -2.15361 0
M  V30 23 O -0.850015 0.997906 -2.93964 0
M  V30 24 C -3.15399 1.2513 -2.71455 0
M  V30 25 H -6.59578 0.290721 3.22304 0
M  V30 26 H -7.4896 0.353611 1.68624 0
M  V30 27 H -5.25487 -1.74975 1.1776 0
M  V30 28 H -3.11956 -1.68448 -0.140338 0
M  V30 29 H -3.06655 2.51433 0.210558 0
M  V30 30 H -5.1933 2.44645 1.52155 0
M  V30 31 H 1.32533 -0.639407 1.47515 0
M  V30 32 H 3.36846 0.00138592 -1.68544 0
M  V30 33 H 6.96217 -0.023423 -1.94228 0
M  V30 34 H 5.75089 -1.0233 -2.8857 0
M  V30 35 H 5.49245 0.717765 -2.60421 0
M  V30 36 H 6.96838 -1.05772 0.23256 0
M  V30 37 H 5.77128 -1.48873 2.28922 0
M  V30 38 H 3.52463 -0.829503 3.61132 0
M  V30 39 H 2.37713 -1.88672 2.73271 0
M  V30 40 H -3.87525 0.455047 -2.4799 0
M  V30 41 H -3.07232 1.32756 -3.79136 0
M  V30 42 H -3.49802 2.19964 -2.2832 0
M  V30 END ATOM
M  V30 BEGIN BOND
M  V30 1 1 1 2
M  V30 2 2 2 3
M  V30 3 1 3 4
M  V30 4 2 4 5
M  V30 5 1 5 6
M  V30 6 2 6 7
M  V30 7 1 5 8
M  V30 8 1 8 9
M  V30 9 2 9 10
M  V30 10 1 9 11
M  V30 11 2 11 12
M  V30 12 1 11 13
M  V30 13 1 13 14
M  V30 14 2 14 15
M  V30 15 1 15 16
M  V30 16 1 16 17
M  V30 17 2 16 18
M  V30 18 1 18 19
M  V30 19 2 19 20
M  V30 20 1 20 21
M  V30 21 1 8 22
M  V30 22 2 22 23
M  V30 23 1 22 24
M  V30 24 1 7 2
M  V30 25 1 20 14
M  V30 26 1 1 25
M  V30 27 1 1 26
M  V30 28 1 3 27
M  V30 29 1 4 28
M  V30 30 1 6 29
M  V30 31 1 7 30
M  V30 32 1 13 31
M  V30 33 1 15 32
M  V30 34 1 17 33
M  V30 35 1 17 34
M  V30 36 1 17 35
M  V30 37 1 18 36
M  V30 38 1 19 37
M  V30 39 1 21 38
M  V30 40 1 21 39
M  V30 41 1 24 40
M  V30 42 1 24 41
M  V30 43 1 24 42
M  V30 END BOND
M  V30 END CTAB
M  END
