
     RDKit          3D

  0  0  0  0  0  0  0  0  0  0999 V3000
M  V30 BEGIN CTAB
M  V30 COUNTS 55 57 0 0 0
M  V30 BEGIN ATOM
M  V30 1 C -2.44005 -2.40874 -1.49619 0
M  V30 2 N -1.90716 -1.55758 -0.480978 0
M  V30 3 C -2.64175 -1.2355 0.691099 0
M  V30 4 C -3.83493 -0.406284 0.499825 0
M  V30 5 N -5.0604 -0.937088 0.350666 0
M  V30 6 C -6.15117 -0.142415 0.181181 0
M  V30 7 C -5.94959 1.21544 0.169219 0
M  V30 8 N -4.72564 1.7686 0.317543 0
M  V30 9 C -3.65494 0.978622 0.484019 0
M  V30 10 N -7.02281 2.01521 0.00535827 0
M  V30 11 C -8.27084 1.50843 -0.144369 0
M  V30 12 N -9.39428 2.35532 -0.315221 0
M  V30 13 N -8.44203 0.183681 -0.129564 0
M  V30 14 C -7.41482 -0.685892 0.030122 0
M  V30 15 N -7.61984 -2.08263 0.0411061 0
M  V30 16 C -0.613595 -1.00188 -0.626384 0
M  V30 17 C 0.484562 -1.51319 0.0264046 0
M  V30 18 C 1.73132 -0.938225 -0.116399 0
M  V30 19 C 1.92539 0.165581 -0.9149 0
M  V30 20 C 0.846705 0.695753 -1.58015 0
M  V30 21 C -0.394152 0.119348 -1.43437 0
M  V30 22 C 3.24845 0.806285 -1.03941 0
M  V30 23 O 3.59671 1.46349 -2.0387 0
M  V30 24 N 4.11885 0.640571 0.0467657 0
M  V30 25 C 5.46344 1.26879 -0.0255097 0 CFG=2
M  V30 26 C 6.42088 0.111428 0.0668199 0
M  V30 27 C 7.83251 0.569749 -0.0036758 0
M  V30 28 C 8.7511 -0.620955 0.0728392 0
M  V30 29 O 8.21384 -1.87466 0.183682 0
M  V30 30 O 9.98175 -0.43543 0.0343622 0
M  V30 31 C 5.55938 2.21727 1.09346 0
M  V30 32 O 6.62904 3.03868 1.28796 0
M  V30 33 O 4.59938 2.29237 1.93737 0
M  V30 34 H -3.52845 -2.58992 -1.39448 0
M  V30 35 H -1.88562 -3.38452 -1.43261 0
M  V30 36 H -2.22053 -2.02549 -2.53445 0
M  V30 37 H -2.993 -2.16373 1.23694 0
M  V30 38 H -2.01144 -0.707545 1.46646 0
M  V30 39 H -2.64656 1.34099 0.608613 0
M  V30 40 H -9.79767 2.89246 0.476605 0
M  V30 41 H -9.80485 2.4232 -1.26772 0
M  V30 42 H -7.10761 -2.66678 0.716538 0
M  V30 43 H -8.27797 -2.51128 -0.623229 0
M  V30 44 H 0.31798 -2.38917 0.658443 0
M  V30 45 H 2.56029 -1.3761 0.41341 0
M  V30 46 H 0.977432 1.56337 -2.21624 0
M  V30 47 H -1.23957 0.51999 -1.94673 0
M  V30 48 H 3.84946 0.102814 0.886408 0
M  V30 49 H 5.51078 1.77974 -1.00487 0
M  V30 50 H 6.19684 -0.461892 0.994935 0
M  V30 51 H 6.2481 -0.586868 -0.794489 0
M  V30 52 H 7.9941 1.09239 -0.960782 0
M  V30 53 H 8.052 1.23216 0.860358 0
M  V30 54 H 8.74256 -2.72634 0.268548 0
M  V30 55 H 7.19842 3.06834 2.14068 0
M  V30 END ATOM
M  V30 BEGIN BOND
M  V30 1 1 1 2
M  V30 2 1 2 3
M  V30 3 1 3 4
M  V30 4 2 4 5
M  V30 5 1 5 6
M  V30 6 2 6 7
M  V30 7 1 7 8
M  V30 8 2 8 9
M  V30 9 1 7 10
M  V30 10 2 10 11
M  V30 11 1 11 12
M  V30 12 1 11 13
M  V30 13 2 13 14
M  V30 14 1 14 15
M  V30 15 1 2 16
M  V30 16 2 16 17
M  V30 17 1 17 18
M  V30 18 2 18 19
M  V30 19 1 19 20
M  V30 20 2 20 21
M  V30 21 1 19 22
M  V30 22 2 22 23
M  V30 23 1 22 24
M  V30 24 1 24 25
M  V30 25 1 25 26
M  V30 26 1 26 27
M  V30 27 1 27 28
M  V30 28 1 28 29
M  V30 29 2 28 30
M  V30 30 1 25 31
M  V30 31 1 31 32
M  V30 32 2 31 33
M  V30 33 1 9 4
M  V30 34 1 21 16
M  V30 35 1 14 6
M  V30 36 1 1 34
M  V30 37 1 1 35
M  V30 38 1 1 36
M  V30 39 1 3 37
M  V30 40 1 3 38
M  V30 41 1 9 39
M  V30 42 1 12 40
M  V30 43 1 12 41
M  V30 44 1 15 42
M  V30 45 1 15 43
M  V30 46 1 17 44
M  V30 47 1 18 45
M  V30 48 1 20 46
M  V30 49 1 21 47
M  V30 50 1 24 48
M  V30 51 1 25 49 CFG=3
M  V30 52 1 26 50
M  V30 53 1 26 51
M  V30 54 1 27 52
M  V30 55 1 27 53
M  V30 56 1 29 54
M  V30 57 1 32 55
M  V30 END BOND
M  V30 END CTAB
M  END
