
     RDKit          3D

  0  0  0  0  0  0  0  0  0  0999 V3000
M  V30 BEGIN CTAB
M  V30 COUNTS 26 26 0 0 0
M  V30 BEGIN ATOM
M  V30 1 C 1.02898 -2.6099 -0.645567 0
M  V30 2 C 1.20638 -1.20727 -0.162603 0
M  V30 3 N 2.43092 -0.758754 0.169752 0
M  V30 4 C 2.60992 0.514782 0.610982 0
M  V30 5 C 3.98033 1.00391 0.978779 0
M  V30 6 C 1.52582 1.36154 0.72104 0
M  V30 7 C 0.270818 0.880772 0.37356 0
M  V30 8 C 0.0868836 -0.415986 -0.0759684 0
M  V30 9 N -1.19971 -0.887199 -0.425132 0
M  V30 10 C -2.34213 -0.0618677 -0.330922 0
M  V30 11 N -2.52723 0.954438 -1.09932 0
M  V30 12 N -3.68391 1.70722 -0.930378 0
M  V30 13 N -3.32622 -0.357545 0.644035 0
M  V30 14 H 1.98846 -3.11761 -0.777737 0
M  V30 15 H 0.343518 -3.13867 0.0536586 0
M  V30 16 H 0.511832 -2.52794 -1.62752 0
M  V30 17 H 4.06691 2.05663 0.602213 0
M  V30 18 H 4.75503 0.395524 0.48028 0
M  V30 19 H 4.08406 1.05689 2.07288 0
M  V30 20 H 1.65927 2.38855 1.0752 0
M  V30 21 H -0.547896 1.54907 0.466053 0
M  V30 22 H -1.31804 -1.8597 -0.759256 0
M  V30 23 H -3.62534 2.73433 -1.06618 0
M  V30 24 H -4.59773 1.28838 -0.675837 0
M  V30 25 H -3.24863 -0.00516018 1.60905 0
M  V30 26 H -4.13229 -0.944441 0.351266 0
M  V30 END ATOM
M  V30 BEGIN BOND
M  V30 1 1 1 2
M  V30 2 2 2 3
M  V30 3 1 3 4
M  V30 4 1 4 5
M  V30 5 2 4 6
M  V30 6 1 6 7
M  V30 7 2 7 8
M  V30 8 1 8 9
M  V30 9 1 9 10
M  V30 10 2 10 11
M  V30 11 1 11 12
M  V30 12 1 10 13
M  V30 13 1 8 2
M  V30 14 1 1 14
M  V30 15 1 1 15
M  V30 16 1 1 16
M  V30 17 1 5 17
M  V30 18 1 5 18
M  V30 19 1 5 19
M  V30 20 1 6 20
M  V30 21 1 7 21
M  V30 22 1 9 22
M  V30 23 1 12 23
M  V30 24 1 12 24
M  V30 25 1 13 25
M  V30 26 1 13 26
M  V30 END BOND
M  V30 END CTAB
M  END
