
     RDKit          3D

  0  0  0  0  0  0  0  0  0  0999 V3000
M  V30 BEGIN CTAB
M  V30 COUNTS 44 45 0 0 0
M  V30 BEGIN ATOM
M  V30 1 C -5.11819 -0.171862 -1.06922 0
M  V30 2 C -4.53649 0.34936 0.230392 0
M  V30 3 C -5.20869 1.66437 0.539667 0
M  V30 4 C -4.82651 -0.640526 1.30969 0
M  V30 5 O -3.153 0.599541 0.0558847 0
M  V30 6 C -2.24089 -0.382961 -0.304497 0
M  V30 7 O -2.72931 -1.54744 -0.472979 0
M  V30 8 N -0.859829 -0.133517 -0.478767 0
M  V30 9 C 0.00614302 -1.22514 -0.854822 0
M  V30 10 C 1.30457 -0.75969 -1.42532 0
M  V30 11 N 1.88442 0.226082 -0.560343 0
M  V30 12 C 1.08976 1.26872 0.00408309 0
M  V30 13 C -0.369768 1.21356 -0.271579 0
M  V30 14 C 3.26154 0.162298 -0.272491 0
M  V30 15 C 3.79975 -0.94239 0.347947 0
M  V30 16 N 3.02885 -2.06669 0.733983 0
M  V30 17 C 5.15169 -0.941209 0.599791 0
M  V30 18 S 5.91805 -2.33795 1.40024 0
M  V30 19 N 5.91119 0.0871271 0.257592 0
M  V30 20 C 5.40515 1.18302 -0.352668 0
M  V30 21 N 6.26285 2.25519 -0.697122 0
M  V30 22 N 4.08903 1.19609 -0.604545 0
M  V30 23 H -6.13757 0.225398 -1.16997 0
M  V30 24 H -4.48136 0.219729 -1.90024 0
M  V30 25 H -5.10853 -1.29539 -1.06682 0
M  V30 26 H -5.16066 2.35174 -0.327132 0
M  V30 27 H -6.2505 1.53032 0.907811 0
M  V30 28 H -4.65263 2.16534 1.37127 0
M  V30 29 H -4.19247 -0.514319 2.20836 0
M  V30 30 H -5.88618 -0.465755 1.64485 0
M  V30 31 H -4.81643 -1.67742 0.918017 0
M  V30 32 H -0.554873 -1.79679 -1.65065 0
M  V30 33 H 0.0886461 -1.93628 -0.00950186 0
M  V30 34 H 1.07625 -0.286312 -2.40987 0
M  V30 35 H 1.96982 -1.63355 -1.5898 0
M  V30 36 H 1.46917 2.23129 -0.455936 0
M  V30 37 H 1.31576 1.42144 1.10264 0
M  V30 38 H -0.905569 1.60548 0.636392 0
M  V30 39 H -0.671927 1.83403 -1.14755 0
M  V30 40 H 3.12217 -2.99193 0.306703 0
M  V30 41 H 2.311 -1.96938 1.50375 0
M  V30 42 H 6.24665 -3.34825 0.479593 0
M  V30 43 H 6.90091 2.14708 -1.49978 0
M  V30 44 H 6.24801 3.12755 -0.153666 0
M  V30 END ATOM
M  V30 BEGIN BOND
M  V30 1 1 1 2
M  V30 2 1 2 3
M  V30 3 1 2 4
M  V30 4 1 2 5
M  V30 5 1 5 6
M  V30 6 2 6 7
M  V30 7 1 6 8
M  V30 8 1 8 9
M  V30 9 1 9 10
M  V30 10 1 10 11
M  V30 11 1 11 12
M  V30 12 1 12 13
M  V30 13 1 11 14
M  V30 14 2 14 15
M  V30 15 1 15 16
M  V30 16 1 15 17
M  V30 17 1 17 18
M  V30 18 2 17 19
M  V30 19 1 19 20
M  V30 20 1 20 21
M  V30 21 2 20 22
M  V30 22 1 13 8
M  V30 23 1 22 14
M  V30 24 1 1 23
M  V30 25 1 1 24
M  V30 26 1 1 25
M  V30 27 1 3 26
M  V30 28 1 3 27
M  V30 29 1 3 28
M  V30 30 1 4 29
M  V30 31 1 4 30
M  V30 32 1 4 31
M  V30 33 1 9 32
M  V30 34 1 9 33
M  V30 35 1 10 34
M  V30 36 1 10 35
M  V30 37 1 12 36
M  V30 38 1 12 37
M  V30 39 1 13 38
M  V30 40 1 13 39
M  V30 41 1 16 40
M  V30 42 1 16 41
M  V30 43 1 18 42
M  V30 44 1 21 43
M  V30 45 1 21 44
M  V30 END BOND
M  V30 END CTAB
M  END
