
     RDKit          3D

  0  0  0  0  0  0  0  0  0  0999 V3000
M  V30 BEGIN CTAB
M  V30 COUNTS 60 62 0 0 0
M  V30 BEGIN ATOM
M  V30 1 N 0.879545 4.49297 0.496008 0
M  V30 2 C -0.0641216 3.43771 0.458414 0
M  V30 3 C 0.138003 2.67318 -0.834214 0
M  V30 4 C -0.83261 1.52394 -0.961249 0
M  V30 5 C -0.694998 0.51721 0.144901 0 CFG=2
M  V30 6 N 0.623665 -0.0644674 0.16528 0
M  V30 7 C 1.45799 -0.125946 1.28105 0
M  V30 8 O 1.08298 0.339798 2.37687 0
M  V30 9 C 2.83546 -0.741598 1.24619 0 CFG=1
M  V30 10 N 3.10095 -1.13858 -0.0906444 0
M  V30 11 C 3.73655 0.244873 1.86824 0
M  V30 12 C 5.16814 -0.0430963 2.00465 0
M  V30 13 C 5.96687 -0.287562 0.82364 0
M  V30 14 C 6.1988 -1.54752 0.329187 0
M  V30 15 C 6.97578 -1.74359 -0.820658 0
M  V30 16 C 7.51213 -0.655504 -1.46021 0
M  V30 17 C 7.29926 0.602322 -0.993653 0
M  V30 18 C 6.53181 0.766778 0.138206 0
M  V30 19 C -1.7744 -0.513876 -0.0199039 0
M  V30 20 O -1.40449 -1.69283 -0.122041 0
M  V30 21 N -3.12224 -0.141254 -0.0525566 0
M  V30 22 C -4.24675 -0.962788 -0.187835 0
M  V30 23 C -5.45514 -0.341392 -0.566773 0
M  V30 24 C -6.60737 -1.07114 -0.697136 0
M  V30 25 C -6.54897 -2.41976 -0.448276 0
M  V30 26 C -7.7273 -3.14698 -0.581673 0
M  V30 27 C -8.92306 -2.5591 -0.949024 0
M  V30 28 C -8.98304 -1.20515 -1.19916 0
M  V30 29 C -7.81544 -0.484237 -1.06705 0
M  V30 30 N -5.39938 -3.0035 -0.0890094 0
M  V30 31 C -4.23255 -2.31328 0.0515403 0
M  V30 32 H 0.724525 5.2446 1.06985 0
M  V30 33 H 1.67606 4.37182 -0.050202 0
M  V30 34 H -1.07318 3.90121 0.503162 0
M  V30 35 H 0.0614915 2.83775 1.35895 0
M  V30 36 H 0.0348247 3.38967 -1.65992 0
M  V30 37 H 1.16817 2.27003 -0.801932 0
M  V30 38 H -0.526096 0.974136 -1.90139 0
M  V30 39 H -1.86395 1.84573 -1.13646 0
M  V30 40 H -0.896835 0.993545 1.11826 0
M  V30 41 H 0.977416 -0.471335 -0.732674 0
M  V30 42 H 2.74607 -1.6604 1.89629 0
M  V30 43 H 3.28226 -0.384949 -0.755042 0
M  V30 44 H 2.4949 -1.90718 -0.385094 0
M  V30 45 H 3.29369 0.483894 2.88572 0
M  V30 46 H 3.57738 1.22333 1.31462 0
M  V30 47 H 5.61048 0.768825 2.6649 0
M  V30 48 H 5.2579 -0.95306 2.68251 0
M  V30 49 H 5.79164 -2.42414 0.80836 0
M  V30 50 H 7.1593 -2.73883 -1.2127 0
M  V30 51 H 8.1285 -0.753901 -2.36552 0
M  V30 52 H 7.72534 1.46607 -1.50242 0
M  V30 53 H 6.3683 1.7725 0.498442 0
M  V30 54 H -3.337 0.921325 0.0469972 0
M  V30 55 H -5.48491 0.728539 -0.762131 0
M  V30 56 H -7.65834 -4.20488 -0.380485 0
M  V30 57 H -9.83226 -3.14484 -1.04744 0
M  V30 58 H -9.89997 -0.708792 -1.48829 0
M  V30 59 H -7.84525 0.577029 -1.26003 0
M  V30 60 H -3.33652 -2.81334 0.350566 0
M  V30 END ATOM
M  V30 BEGIN BOND
M  V30 1 1 1 2
M  V30 2 1 2 3
M  V30 3 1 3 4
M  V30 4 1 4 5
M  V30 5 1 5 6
M  V30 6 1 6 7
M  V30 7 2 7 8
M  V30 8 1 7 9
M  V30 9 1 9 10
M  V30 10 1 9 11
M  V30 11 1 11 12
M  V30 12 1 12 13
M  V30 13 2 13 14
M  V30 14 1 14 15
M  V30 15 2 15 16
M  V30 16 1 16 17
M  V30 17 2 17 18
M  V30 18 1 5 19
M  V30 19 2 19 20
M  V30 20 1 19 21
M  V30 21 1 21 22
M  V30 22 2 22 23
M  V30 23 1 23 24
M  V30 24 2 24 25
M  V30 25 1 25 26
M  V30 26 2 26 27
M  V30 27 1 27 28
M  V30 28 2 28 29
M  V30 29 1 25 30
M  V30 30 2 30 31
M  V30 31 1 18 13
M  V30 32 1 31 22
M  V30 33 1 29 24
M  V30 34 1 1 32
M  V30 35 1 1 33
M  V30 36 1 2 34
M  V30 37 1 2 35
M  V30 38 1 3 36
M  V30 39 1 3 37
M  V30 40 1 4 38
M  V30 41 1 4 39
M  V30 42 1 5 40 CFG=1
M  V30 43 1 6 41
M  V30 44 1 9 42 CFG=1
M  V30 45 1 10 43
M  V30 46 1 10 44
M  V30 47 1 11 45
M  V30 48 1 11 46
M  V30 49 1 12 47
M  V30 50 1 12 48
M  V30 51 1 14 49
M  V30 52 1 15 50
M  V30 53 1 16 51
M  V30 54 1 17 52
M  V30 55 1 18 53
M  V30 56 1 21 54
M  V30 57 1 23 55
M  V30 58 1 26 56
M  V30 59 1 27 57
M  V30 60 1 28 58
M  V30 61 1 29 59
M  V30 62 1 31 60
M  V30 END BOND
M  V30 END CTAB
M  END
