
     RDKit          3D

  0  0  0  0  0  0  0  0  0  0999 V3000
M  V30 BEGIN CTAB
M  V30 COUNTS 33 34 0 0 0
M  V30 BEGIN ATOM
M  V30 1 C 6.73277 0.75731 -0.548006 0
M  V30 2 N 5.41855 0.158822 -0.617805 0
M  V30 3 C 4.27699 0.866051 -0.165628 0
M  V30 4 O 4.40116 2.01332 0.296795 0
M  V30 5 C 2.96018 0.213211 -0.257789 0
M  V30 6 N 2.83294 -1.01814 -0.755015 0
M  V30 7 C 1.61071 -1.57252 -0.818983 0
M  V30 8 C 0.472359 -0.904446 -0.383494 0
M  V30 9 C 0.581383 0.37125 0.134768 0
M  V30 10 O -0.472816 1.10831 0.587538 0
M  V30 11 C -1.78961 0.698589 0.596857 0
M  V30 12 C -2.6721 0.896123 -0.422163 0
M  V30 13 C -3.97177 0.449515 -0.321282 0
M  V30 14 N -4.9041 0.648702 -1.37721 0
M  V30 15 C -4.41607 -0.210962 0.815952 0
M  V30 16 N -5.76033 -0.658196 0.888363 0
M  V30 17 C -3.52354 -0.417836 1.86197 0
M  V30 18 C -2.22789 0.0379987 1.73837 0
M  V30 19 C 1.8476 0.912701 0.187297 0
M  V30 20 H 7.47633 -0.0378852 -0.400392 0
M  V30 21 H 6.77241 1.53505 0.244594 0
M  V30 22 H 6.89245 1.25956 -1.54368 0
M  V30 23 H 5.34217 -0.800413 -1.00819 0
M  V30 24 H 1.4752 -2.56851 -1.21669 0
M  V30 25 H -0.51583 -1.34835 -0.433415 0
M  V30 26 H -2.35193 1.40049 -1.30338 0
M  V30 27 H -5.48466 -0.105851 -1.78798 0
M  V30 28 H -4.97949 1.63984 -1.73645 0
M  V30 29 H -6.04108 -1.58042 0.490683 0
M  V30 30 H -6.52537 -0.100459 1.33414 0
M  V30 31 H -3.87636 -0.940439 2.76095 0
M  V30 32 H -1.53549 -0.131958 2.57038 0
M  V30 33 H 1.95526 1.90884 0.588892 0
M  V30 END ATOM
M  V30 BEGIN BOND
M  V30 1 1 1 2
M  V30 2 1 2 3
M  V30 3 2 3 4
M  V30 4 1 3 5
M  V30 5 2 5 6
M  V30 6 1 6 7
M  V30 7 2 7 8
M  V30 8 1 8 9
M  V30 9 1 9 10
M  V30 10 1 10 11
M  V30 11 2 11 12
M  V30 12 1 12 13
M  V30 13 1 13 14
M  V30 14 2 13 15
M  V30 15 1 15 16
M  V30 16 1 15 17
M  V30 17 2 17 18
M  V30 18 2 9 19
M  V30 19 1 19 5
M  V30 20 1 18 11
M  V30 21 1 1 20
M  V30 22 1 1 21
M  V30 23 1 1 22
M  V30 24 1 2 23
M  V30 25 1 7 24
M  V30 26 1 8 25
M  V30 27 1 12 26
M  V30 28 1 14 27
M  V30 29 1 14 28
M  V30 30 1 16 29
M  V30 31 1 16 30
M  V30 32 1 17 31
M  V30 33 1 18 32
M  V30 34 1 19 33
M  V30 END BOND
M  V30 END CTAB
M  END
