
     RDKit          3D

  0  0  0  0  0  0  0  0  0  0999 V3000
M  V30 BEGIN CTAB
M  V30 COUNTS 26 27 0 0 0
M  V30 BEGIN ATOM
M  V30 1 N 0.309407 -2.38867 -0.429405 0
M  V30 2 C 0.735352 -1.01087 -0.300688 0
M  V30 3 C -0.140659 0.0344155 -0.319776 0
M  V30 4 N 0.569789 1.18644 -0.0677028 0
M  V30 5 C 1.8618 0.764123 0.0783554 0
M  V30 6 N 1.92759 -0.537509 -0.061416 0
M  V30 7 N 3.15134 -1.27376 0.0421321 0
M  V30 8 C 2.93983 1.74856 0.369544 0
M  V30 9 C -1.54785 -0.00481847 -0.69756 0
M  V30 10 C -2.40568 -0.453526 0.503813 0
M  V30 11 C -3.42595 0.535903 0.0317156 0
M  V30 12 C -2.24815 1.36477 -0.426017 0
M  V30 13 H 0.405065 -2.89828 -1.29957 0
M  V30 14 H -0.105769 -2.86129 0.415221 0
M  V30 15 H 3.17741 -2.19279 0.507995 0
M  V30 16 H 3.9842 -0.837653 -0.381309 0
M  V30 17 H 3.79658 1.27573 0.894232 0
M  V30 18 H 2.48836 2.55715 1.00552 0
M  V30 19 H 3.21916 2.22151 -0.579779 0
M  V30 20 H -1.87917 -0.376333 -1.6403 0
M  V30 21 H -2.68052 -1.52436 0.346807 0
M  V30 22 H -1.92088 -0.3145 1.46092 0
M  V30 23 H -4.0619 0.965814 0.835428 0
M  V30 24 H -3.97718 0.155211 -0.847638 0
M  V30 25 H -2.43713 1.94779 -1.31551 0
M  V30 26 H -1.73504 1.91696 0.412481 0
M  V30 END ATOM
M  V30 BEGIN BOND
M  V30 1 1 1 2
M  V30 2 2 2 3
M  V30 3 1 3 4
M  V30 4 2 4 5
M  V30 5 1 5 6
M  V30 6 1 6 7
M  V30 7 1 5 8
M  V30 8 1 3 9
M  V30 9 1 9 10
M  V30 10 1 10 11
M  V30 11 1 11 12
M  V30 12 1 6 2
M  V30 13 1 12 9
M  V30 14 1 1 13
M  V30 15 1 1 14
M  V30 16 1 7 15
M  V30 17 1 7 16
M  V30 18 1 8 17
M  V30 19 1 8 18
M  V30 20 1 8 19
M  V30 21 1 9 20
M  V30 22 1 10 21
M  V30 23 1 10 22
M  V30 24 1 11 23
M  V30 25 1 11 24
M  V30 26 1 12 25
M  V30 27 1 12 26
M  V30 END BOND
M  V30 END CTAB
M  END
