
     RDKit          3D

  0  0  0  0  0  0  0  0  0  0999 V3000
M  V30 BEGIN CTAB
M  V30 COUNTS 36 37 0 0 0
M  V30 BEGIN ATOM
M  V30 1 C -4.83764 0.576099 0.140977 0
M  V30 2 N -3.46413 0.816069 0.549797 0
M  V30 3 C -2.74747 1.28324 -0.60246 0
M  V30 4 C -1.28633 1.05141 -0.581097 0
M  V30 5 N -0.916592 -0.284586 -0.0914689 0
M  V30 6 C -2.02726 -1.14779 0.196027 0
M  V30 7 C -2.96528 -0.40374 1.11015 0
M  V30 8 C 0.445491 -0.648017 0.0681529 0
M  V30 9 C 1.414 0.296383 -0.246009 0
M  V30 10 C 2.74787 -0.0115738 -0.107089 0
M  V30 11 C 3.808 0.991502 -0.440056 0
M  V30 12 N 3.20845 2.21965 -0.889703 0
M  V30 13 C 3.17599 -1.2437 0.340184 0
M  V30 14 N 4.54147 -1.59119 0.493844 0
M  V30 15 C 2.20033 -2.16847 0.647196 0
M  V30 16 C 0.840202 -1.87208 0.511798 0
M  V30 17 H -5.50877 0.422002 1.00743 0
M  V30 18 H -5.18284 1.42814 -0.492523 0
M  V30 19 H -4.82449 -0.317818 -0.512084 0
M  V30 20 H -3.23279 0.871669 -1.52128 0
M  V30 21 H -2.91699 2.38814 -0.66142 0
M  V30 22 H -0.896779 1.09903 -1.61981 0
M  V30 23 H -0.736362 1.82996 3.22438e-06 0
M  V30 24 H -2.56947 -1.373 -0.768219 0
M  V30 25 H -1.79747 -2.10675 0.648155 0
M  V30 26 H -2.39434 -0.14654 2.02678 0
M  V30 27 H -3.76156 -1.11913 1.40451 0
M  V30 28 H 1.12953 1.27334 -0.599656 0
M  V30 29 H 4.46196 0.516541 -1.19841 0
M  V30 30 H 4.42032 1.18239 0.487924 0
M  V30 31 H 3.39955 3.01055 -0.259565 0
M  V30 32 H 3.53219 2.4132 -1.84936 0
M  V30 33 H 5.11375 -1.72462 -0.367456 0
M  V30 34 H 5.01083 -1.72194 1.40446 0
M  V30 35 H 2.48267 -3.14798 1.00148 0
M  V30 36 H 0.133972 -2.64038 0.768796 0
M  V30 END ATOM
M  V30 BEGIN BOND
M  V30 1 1 1 2
M  V30 2 1 2 3
M  V30 3 1 3 4
M  V30 4 1 4 5
M  V30 5 1 5 6
M  V30 6 1 6 7
M  V30 7 1 5 8
M  V30 8 2 8 9
M  V30 9 1 9 10
M  V30 10 1 10 11
M  V30 11 1 11 12
M  V30 12 2 10 13
M  V30 13 1 13 14
M  V30 14 1 13 15
M  V30 15 2 15 16
M  V30 16 1 7 2
M  V30 17 1 16 8
M  V30 18 1 1 17
M  V30 19 1 1 18
M  V30 20 1 1 19
M  V30 21 1 3 20
M  V30 22 1 3 21
M  V30 23 1 4 22
M  V30 24 1 4 23
M  V30 25 1 6 24
M  V30 26 1 6 25
M  V30 27 1 7 26
M  V30 28 1 7 27
M  V30 29 1 9 28
M  V30 30 1 11 29
M  V30 31 1 11 30
M  V30 32 1 12 31
M  V30 33 1 12 32
M  V30 34 1 14 33
M  V30 35 1 14 34
M  V30 36 1 15 35
M  V30 37 1 16 36
M  V30 END BOND
M  V30 END CTAB
M  END
