
     RDKit          3D

  0  0  0  0  0  0  0  0  0  0999 V3000
M  V30 BEGIN CTAB
M  V30 COUNTS 16 16 0 0 0
M  V30 BEGIN ATOM
M  V30 1 N -2.78828 -0.538426 -0.0196405 0
M  V30 2 C -1.39099 -0.247166 -0.0276311 0
M  V30 3 C -0.51978 -1.02699 0.705212 0
M  V30 4 C 0.830681 -0.766462 0.713586 0
M  V30 5 Br 2.02273 -1.83313 1.71602 0
M  V30 6 C 1.37728 0.294274 -0.0161334 0
M  V30 7 C 0.484674 1.07078 -0.749729 0
M  V30 8 C -0.865959 0.803064 -0.752614 0
M  V30 9 F -1.73213 1.56449 -1.47056 0
M  V30 10 N 2.75534 0.574951 -0.0189678 0
M  V30 11 H -3.36217 -0.643321 -0.879749 0
M  V30 12 H -3.26406 -0.653111 0.892244 0
M  V30 13 H -0.959294 -1.84516 1.26529 0
M  V30 14 H 0.910804 1.89541 -1.31685 0
M  V30 15 H 3.10168 1.41684 0.454378 0
M  V30 16 H 3.39946 -0.0660477 -0.494864 0
M  V30 END ATOM
M  V30 BEGIN BOND
M  V30 1 1 1 2
M  V30 2 2 2 3
M  V30 3 1 3 4
M  V30 4 1 4 5
M  V30 5 2 4 6
M  V30 6 1 6 7
M  V30 7 2 7 8
M  V30 8 1 8 9
M  V30 9 1 6 10
M  V30 10 1 8 2
M  V30 11 1 1 11
M  V30 12 1 1 12
M  V30 13 1 3 13
M  V30 14 1 7 14
M  V30 15 1 10 15
M  V30 16 1 10 16
M  V30 END BOND
M  V30 END CTAB
M  END
