
     RDKit          3D

  0  0  0  0  0  0  0  0  0  0999 V3000
M  V30 BEGIN CTAB
M  V30 COUNTS 32 32 0 0 0
M  V30 BEGIN ATOM
M  V30 1 C -3.75 1.206 -1.31793 0
M  V30 2 O -3.02335 0.157561 -0.704734 0
M  V30 3 C -1.72397 0.324335 -0.254838 0
M  V30 4 C -1.06721 1.52274 -0.380519 0
M  V30 5 C 0.226564 1.63066 0.0858476 0
M  V30 6 C 0.896407 0.581457 0.677505 0
M  V30 7 C 2.28713 0.734088 1.16722 0
M  V30 8 C 3.3106 0.399181 0.11343 0
M  V30 9 C 3.16764 -1.02853 -0.361245 0
M  V30 10 N 3.29939 1.32875 -0.986663 0
M  V30 11 C 0.220032 -0.612977 0.794329 0
M  V30 12 C -1.08733 -0.758043 0.33448 0
M  V30 13 S -1.95646 -2.27345 0.478436 0
M  V30 14 N -3.3497 -2.09882 1.39395 0
M  V30 15 O -1.00823 -3.27904 1.06962 0
M  V30 16 O -2.34819 -2.69413 -0.931348 0
M  V30 17 H -4.82896 0.980141 -1.37536 0
M  V30 18 H -3.38705 1.44365 -2.33648 0
M  V30 19 H -3.62555 2.13549 -0.695693 0
M  V30 20 H -1.60304 2.33816 -0.846397 0
M  V30 21 H 0.720226 2.57929 -0.0237625 0
M  V30 22 H 2.44968 0.0227616 2.01027 0
M  V30 23 H 2.50158 1.77538 1.50733 0
M  V30 24 H 4.30732 0.474898 0.596041 0
M  V30 25 H 2.2641 -1.15103 -1.00649 0
M  V30 26 H 3.13544 -1.68567 0.527659 0
M  V30 27 H 4.09539 -1.29988 -0.92075 0
M  V30 28 H 4.22689 1.39639 -1.42366 0
M  V30 29 H 2.51901 1.17658 -1.65667 0
M  V30 30 H 0.69787 -1.46929 1.25057 0
M  V30 31 H -4.24364 -2.31699 0.970349 0
M  V30 32 H -3.32261 -1.53966 2.23161 0
M  V30 END ATOM
M  V30 BEGIN BOND
M  V30 1 1 1 2
M  V30 2 1 2 3
M  V30 3 2 3 4
M  V30 4 1 4 5
M  V30 5 2 5 6
M  V30 6 1 6 7
M  V30 7 1 7 8
M  V30 8 1 8 9
M  V30 9 1 8 10
M  V30 10 1 6 11
M  V30 11 2 11 12
M  V30 12 1 12 13
M  V30 13 1 13 14
M  V30 14 2 13 15
M  V30 15 2 13 16
M  V30 16 1 12 3
M  V30 17 1 1 17
M  V30 18 1 1 18
M  V30 19 1 1 19
M  V30 20 1 4 20
M  V30 21 1 5 21
M  V30 22 1 7 22
M  V30 23 1 7 23
M  V30 24 1 8 24
M  V30 25 1 9 25
M  V30 26 1 9 26
M  V30 27 1 9 27
M  V30 28 1 10 28
M  V30 29 1 10 29
M  V30 30 1 11 30
M  V30 31 1 14 31
M  V30 32 1 14 32
M  V30 END BOND
M  V30 END CTAB
M  END
