
     RDKit          3D

  0  0  0  0  0  0  0  0  0  0999 V3000
M  V30 BEGIN CTAB
M  V30 COUNTS 46 48 0 0 0
M  V30 BEGIN ATOM
M  V30 1 C 5.41304 1.83672 0.24872 0
M  V30 2 C 4.10834 1.13174 0.315381 0
M  V30 3 C 3.38465 0.910436 -0.827456 0
M  V30 4 C 2.17099 0.253771 -0.75936 0
M  V30 5 C 1.6516 -0.194132 0.429772 0
M  V30 6 C 2.36865 0.0245082 1.56657 0
M  V30 7 C 3.60125 0.688826 1.51546 0
M  V30 8 C 0.320598 -0.899959 0.528982 0
M  V30 9 C 0.343085 -1.93549 -0.524421 0
M  V30 10 C -0.497446 -1.98451 -1.55233 0
M  V30 11 N -0.367107 -3.05019 -2.52508 0
M  V30 12 O -1.49484 -1.03733 -1.69843 0
M  V30 13 C -1.57369 -0.0465489 -0.728528 0
M  V30 14 C -0.769058 0.0493513 0.302495 0
M  V30 15 C -0.995361 1.15685 1.26916 0
M  V30 16 O -0.0493302 1.7431 1.83664 0
M  V30 17 C -2.37607 1.59701 1.58568 0
M  V30 18 C -3.33934 1.25854 0.479462 0
M  V30 19 C -2.64545 1.01388 -0.832204 0
M  V30 20 C -4.24126 2.4589 0.29858 0
M  V30 21 C -4.20927 0.0629287 0.767794 0
M  V30 22 C 1.36868 -3.00342 -0.392942 0
M  V30 23 S 2.44224 -3.07373 0.826928 0
M  V30 24 N 1.45586 -4.03647 -1.35671 0
M  V30 25 H 5.90723 1.56236 -0.726579 0
M  V30 26 H 6.06127 1.63451 1.11621 0
M  V30 27 H 5.25619 2.94058 0.181535 0
M  V30 28 H 3.78546 1.2598 -1.77092 0
M  V30 29 H 1.63508 0.0980053 -1.66203 0
M  V30 30 H 2.01004 -0.305516 2.53193 0
M  V30 31 H 4.1859 0.872789 2.40281 0
M  V30 32 H 0.238385 -1.33382 1.54747 0
M  V30 33 H -0.902406 -3.93297 -2.39534 0
M  V30 34 H 0.238855 -2.97049 -3.36269 0
M  V30 35 H -2.73329 1.09375 2.50541 0
M  V30 36 H -2.32525 2.68239 1.79974 0
M  V30 37 H -2.17774 1.96191 -1.16574 0
M  V30 38 H -3.41306 0.676698 -1.55739 0
M  V30 39 H -5.31526 2.17426 0.209242 0
M  V30 40 H -3.97829 3.03361 -0.620391 0
M  V30 41 H -4.14345 3.19038 1.13871 0
M  V30 42 H -5.1227 0.354907 1.32142 0
M  V30 43 H -3.70704 -0.715483 1.35644 0
M  V30 44 H -4.55056 -0.385897 -0.192831 0
M  V30 45 H 0.917523 -4.90289 -1.22705 0
M  V30 46 H 2.06234 -3.91368 -2.17789 0
M  V30 END ATOM
M  V30 BEGIN BOND
M  V30 1 1 1 2
M  V30 2 2 2 3
M  V30 3 1 3 4
M  V30 4 2 4 5
M  V30 5 1 5 6
M  V30 6 2 6 7
M  V30 7 1 5 8
M  V30 8 1 8 9
M  V30 9 2 9 10
M  V30 10 1 10 11
M  V30 11 1 10 12
M  V30 12 1 12 13
M  V30 13 2 13 14
M  V30 14 1 14 15
M  V30 15 2 15 16
M  V30 16 1 15 17
M  V30 17 1 17 18
M  V30 18 1 18 19
M  V30 19 1 18 20
M  V30 20 1 18 21
M  V30 21 1 9 22
M  V30 22 2 22 23
M  V30 23 1 22 24
M  V30 24 1 7 2
M  V30 25 1 14 8
M  V30 26 1 19 13
M  V30 27 1 1 25
M  V30 28 1 1 26
M  V30 29 1 1 27
M  V30 30 1 3 28
M  V30 31 1 4 29
M  V30 32 1 6 30
M  V30 33 1 7 31
M  V30 34 1 8 32
M  V30 35 1 11 33
M  V30 36 1 11 34
M  V30 37 1 17 35
M  V30 38 1 17 36
M  V30 39 1 19 37
M  V30 40 1 19 38
M  V30 41 1 20 39
M  V30 42 1 20 40
M  V30 43 1 20 41
M  V30 44 1 21 42
M  V30 45 1 21 43
M  V30 46 1 21 44
M  V30 47 1 24 45
M  V30 48 1 24 46
M  V30 END BOND
M  V30 END CTAB
M  END
