
     RDKit          3D

  0  0  0  0  0  0  0  0  0  0999 V3000
M  V30 BEGIN CTAB
M  V30 COUNTS 27 27 0 0 0
M  V30 BEGIN ATOM
M  V30 1 N 2.95476 0.764331 -1.02418 0
M  V30 2 C 2.50847 0.842512 0.327951 0 CFG=1
M  V30 3 C 1.01913 1.02421 0.45298 0
M  V30 4 C 0.237934 -0.050534 -0.138415 0
M  V30 5 O 0.800404 -1.01696 -0.689574 0
M  V30 6 C -1.20801 -0.0124056 -0.0948713 0
M  V30 7 C -1.88509 1.03956 0.506067 0
M  V30 8 C -3.25357 1.11315 0.568326 0
M  V30 9 Cl -4.08019 2.4467 1.32964 0
M  V30 10 C -3.97549 0.082241 0.000625912 0
M  V30 11 C -3.36478 -0.98963 -0.610471 0
M  V30 12 C -1.97769 -1.02388 -0.650932 0
M  V30 13 N -1.30668 -2.09613 -1.26318 0
M  V30 14 C 3.03411 -0.272019 1.10389 0
M  V30 15 O 3.84207 -1.21301 0.507545 0
M  V30 16 O 2.76159 -0.390429 2.31479 0
M  V30 17 H 3.02848 -0.219951 -1.37917 0
M  V30 18 H 3.92137 1.15394 -1.08144 0
M  V30 19 H 2.96271 1.78334 0.760947 0
M  V30 20 H 0.768697 1.97666 -0.0768676 0
M  V30 21 H 0.766432 1.15859 1.51236 0
M  V30 22 H -1.28857 1.84423 0.948683 0
M  V30 23 H -5.06358 0.104457 0.0297552 0
M  V30 24 H -3.90757 -1.8079 -1.06154 0
M  V30 25 H -1.09982 -2.07016 -2.28186 0
M  V30 26 H -1.00697 -2.92526 -0.721489 0
M  V30 27 H 4.81185 -1.24565 0.815102 0
M  V30 END ATOM
M  V30 BEGIN BOND
M  V30 1 1 1 2
M  V30 2 1 2 3
M  V30 3 1 3 4
M  V30 4 2 4 5
M  V30 5 1 4 6
M  V30 6 2 6 7
M  V30 7 1 7 8
M  V30 8 1 8 9
M  V30 9 2 8 10
M  V30 10 1 10 11
M  V30 11 2 11 12
M  V30 12 1 12 13
M  V30 13 1 2 14
M  V30 14 1 14 15
M  V30 15 2 14 16
M  V30 16 1 12 6
M  V30 17 1 1 17
M  V30 18 1 1 18
M  V30 19 1 2 19 CFG=1
M  V30 20 1 3 20
M  V30 21 1 3 21
M  V30 22 1 7 22
M  V30 23 1 10 23
M  V30 24 1 11 24
M  V30 25 1 13 25
M  V30 26 1 13 26
M  V30 27 1 15 27
M  V30 END BOND
M  V30 END CTAB
M  END
