
     RDKit          3D

  0  0  0  0  0  0  0  0  0  0999 V3000
M  V30 BEGIN CTAB
M  V30 COUNTS 37 39 0 0 0
M  V30 BEGIN ATOM
M  V30 1 C 5.08766 1.39661 1.23932 0
M  V30 2 C 4.5392 1.14845 -0.157591 0
M  V30 3 C 3.4106 0.196492 -0.0982984 0
M  V30 4 C 3.57443 -1.17206 0.0775317 0
M  V30 5 F 4.8312 -1.66385 0.201102 0
M  V30 6 C 2.50914 -2.03737 0.129727 0
M  V30 7 N 2.63435 -3.43747 0.307777 0
M  V30 8 C 1.21269 -1.53535 0.00283361 0
M  V30 9 C 0.101452 -2.35174 0.0473307 0
M  V30 10 O 0.283221 -3.57971 0.206427 0
M  V30 11 C -1.16557 -1.79878 -0.0834751 0
M  V30 12 C -1.30543 -0.441944 -0.256616 0
M  V30 13 O -0.213784 0.280915 -0.290714 0
M  V30 14 C 1.0063 -0.182205 -0.172966 0
M  V30 15 C 2.11277 0.64712 -0.218731 0
M  V30 16 F 1.83888 1.97564 -0.394999 0
M  V30 17 C -2.63137 0.199468 -0.401281 0
M  V30 18 C -2.70697 1.57699 -0.598071 0
M  V30 19 C -3.91419 2.23896 -0.735355 0
M  V30 20 C -5.10429 1.54336 -0.680558 0
M  V30 21 N -6.36907 2.17756 -0.818395 0
M  V30 22 C -5.03246 0.181486 -0.485537 0
M  V30 23 F -6.19729 -0.513268 -0.427716 0
M  V30 24 C -3.80689 -0.48787 -0.346671 0
M  V30 25 H 6.1828 1.4017 1.19266 0
M  V30 26 H 4.7556 0.574093 1.9103 0
M  V30 27 H 4.70879 2.38119 1.63069 0
M  V30 28 H 5.34603 0.793687 -0.831843 0
M  V30 29 H 4.18858 2.10648 -0.577211 0
M  V30 30 H 2.57844 -3.79467 1.28246 0
M  V30 31 H 2.77436 -4.05236 -0.528742 0
M  V30 32 H -2.03074 -2.46267 -0.0458849 0
M  V30 33 H -1.76419 2.10346 -0.638715 0
M  V30 34 H -3.95815 3.31711 -0.889302 0
M  V30 35 H -6.94463 2.02151 -1.6732 0
M  V30 36 H -6.73247 2.80997 -0.0563136 0
M  V30 37 H -3.79901 -1.56094 -0.194628 0
M  V30 END ATOM
M  V30 BEGIN BOND
M  V30 1 1 1 2
M  V30 2 1 2 3
M  V30 3 2 3 4
M  V30 4 1 4 5
M  V30 5 1 4 6
M  V30 6 1 6 7
M  V30 7 2 6 8
M  V30 8 1 8 9
M  V30 9 2 9 10
M  V30 10 1 9 11
M  V30 11 2 11 12
M  V30 12 1 12 13
M  V30 13 1 13 14
M  V30 14 2 14 15
M  V30 15 1 15 16
M  V30 16 1 12 17
M  V30 17 2 17 18
M  V30 18 1 18 19
M  V30 19 2 19 20
M  V30 20 1 20 21
M  V30 21 1 20 22
M  V30 22 1 22 23
M  V30 23 2 22 24
M  V30 24 1 15 3
M  V30 25 1 24 17
M  V30 26 1 14 8
M  V30 27 1 1 25
M  V30 28 1 1 26
M  V30 29 1 1 27
M  V30 30 1 2 28
M  V30 31 1 2 29
M  V30 32 1 7 30
M  V30 33 1 7 31
M  V30 34 1 11 32
M  V30 35 1 18 33
M  V30 36 1 19 34
M  V30 37 1 21 35
M  V30 38 1 21 36
M  V30 39 1 24 37
M  V30 END BOND
M  V30 END CTAB
M  END
