
     RDKit          3D

  0  0  0  0  0  0  0  0  0  0999 V3000
M  V30 BEGIN CTAB
M  V30 COUNTS 41 43 0 0 0
M  V30 BEGIN ATOM
M  V30 1 F -8.28989 1.99825 0.442565 0
M  V30 2 C -7.02381 1.58585 0.181233 0
M  V30 3 C -6.19227 2.3706 -0.595962 0
M  V30 4 C -4.90856 1.98703 -0.880386 0
M  V30 5 C -4.43242 0.762623 -0.36486 0
M  V30 6 C -5.24282 -0.0148601 0.399073 0
M  V30 7 C -6.55614 0.392394 0.681937 0
M  V30 8 N -3.11331 0.394395 -0.697675 0
M  V30 9 C -2.26719 -0.521411 -0.0280269 0
M  V30 10 N -1.02266 -0.729052 -0.54891 0
M  V30 11 C -0.14214 -1.56321 0.0213675 0
M  V30 12 C 1.19281 -1.73394 -0.608408 0
M  V30 13 O 2.12042 -0.777953 -0.078188 0
M  V30 14 C 3.41799 -0.781907 -0.544421 0
M  V30 15 O 3.73153 -1.62619 -1.41658 0
M  V30 16 C 4.40285 0.174297 -0.0344363 0
M  V30 17 C 4.01934 1.08448 0.92206 0
M  V30 18 C 4.95943 1.98026 1.39361 0
M  V30 19 C 6.25482 1.99655 0.946368 0
M  V30 20 C 6.63006 1.07994 -0.0129692 0
M  V30 21 C 5.68798 0.171127 -0.495546 0
M  V30 22 N 6.07832 -0.772931 -1.48501 0
M  V30 23 F 7.1534 2.89844 1.43823 0
M  V30 24 N -0.483985 -2.22467 1.14594 0
M  V30 25 C -1.71471 -2.05547 1.71042 0
M  V30 26 N -2.53648 -1.20495 1.0798 0
M  V30 27 N -2.08493 -2.74828 2.89626 0
M  V30 28 H -6.59585 3.3089 -0.975814 0
M  V30 29 H -4.24664 2.61474 -1.49958 0
M  V30 30 H -4.91379 -0.967197 0.79867 0
M  V30 31 H -7.16624 -0.26456 1.29873 0
M  V30 32 H -2.72246 0.872285 -1.57149 0
M  V30 33 H 1.59962 -2.75071 -0.432995 0
M  V30 34 H 1.14177 -1.59666 -1.71338 0
M  V30 35 H 3.00138 1.10396 1.30259 0
M  V30 36 H 4.68537 2.71757 2.15538 0
M  V30 37 H 7.65301 1.09642 -0.362894 0
M  V30 38 H 6.45333 -1.70193 -1.19672 0
M  V30 39 H 5.97583 -0.502622 -2.48746 0
M  V30 40 H -1.5172 -2.74317 3.76407 0
M  V30 41 H -2.98579 -3.30843 2.92178 0
M  V30 END ATOM
M  V30 BEGIN BOND
M  V30 1 1 1 2
M  V30 2 2 2 3
M  V30 3 1 3 4
M  V30 4 2 4 5
M  V30 5 1 5 6
M  V30 6 2 6 7
M  V30 7 1 5 8
M  V30 8 1 8 9
M  V30 9 2 9 10
M  V30 10 1 10 11
M  V30 11 1 11 12
M  V30 12 1 12 13
M  V30 13 1 13 14
M  V30 14 2 14 15
M  V30 15 1 14 16
M  V30 16 2 16 17
M  V30 17 1 17 18
M  V30 18 2 18 19
M  V30 19 1 19 20
M  V30 20 2 20 21
M  V30 21 1 21 22
M  V30 22 1 19 23
M  V30 23 2 11 24
M  V30 24 1 24 25
M  V30 25 2 25 26
M  V30 26 1 25 27
M  V30 27 1 7 2
M  V30 28 1 26 9
M  V30 29 1 21 16
M  V30 30 1 3 28
M  V30 31 1 4 29
M  V30 32 1 6 30
M  V30 33 1 7 31
M  V30 34 1 8 32
M  V30 35 1 12 33
M  V30 36 1 12 34
M  V30 37 1 17 35
M  V30 38 1 18 36
M  V30 39 1 20 37
M  V30 40 1 22 38
M  V30 41 1 22 39
M  V30 42 1 27 40
M  V30 43 1 27 41
M  V30 END BOND
M  V30 END CTAB
M  END
