
     RDKit          3D

  0  0  0  0  0  0  0  0  0  0999 V3000
M  V30 BEGIN CTAB
M  V30 COUNTS 41 44 0 0 0
M  V30 BEGIN ATOM
M  V30 1 N -5.9009 -1.62248 -0.891062 0
M  V30 2 C -4.61781 -0.94592 -0.762784 0
M  V30 3 C -4.58148 0.0621321 0.348922 0
M  V30 4 C -3.4287 -0.683458 0.96744 0
M  V30 5 C -3.61241 -1.77463 -0.018923 0
M  V30 6 C -2.16868 0.0569261 0.935542 0
M  V30 7 C -1.63161 0.555902 -0.228536 0
M  V30 8 C -0.432936 1.25817 -0.244001 0
M  V30 9 N 0.0574115 1.75075 -1.49497 0
M  V30 10 C 1.30077 2.48058 -1.59905 0
M  V30 11 C 2.4871 1.67822 -1.2115 0
M  V30 12 C 2.49984 0.323119 -1.00285 0
M  V30 13 N 3.77875 -0.0547703 -0.657539 0
M  V30 14 C 4.49678 1.06593 -0.666092 0
M  V30 15 N 3.7235 2.14735 -1.00441 0
M  V30 16 S 6.04631 0.476819 -0.22776 0
M  V30 17 C 5.64445 -1.17601 -0.0672028 0
M  V30 18 N 4.35674 -1.15425 -0.36042 0
M  V30 19 C 6.51357 -2.34735 0.306389 0
M  V30 20 N 0.18482 1.43337 0.920164 0
M  V30 21 C -0.312395 0.958538 2.07867 0
M  V30 22 N -1.48905 0.272888 2.07057 0
M  V30 23 N 0.420013 1.19615 3.27122 0
M  V30 24 H -5.90158 -2.46637 -0.268616 0
M  V30 25 H -5.9694 -1.95075 -1.87916 0
M  V30 26 H -4.2349 -0.578308 -1.74178 0
M  V30 27 H -5.48727 -0.0408508 0.984799 0
M  V30 28 H -4.35563 1.10345 0.0378512 0
M  V30 29 H -3.66022 -0.996875 2.03264 0
M  V30 30 H -2.72804 -2.06479 -0.621863 0
M  V30 31 H -4.10125 -2.66921 0.46955 0
M  V30 32 H -2.14569 0.401261 -1.1431 0
M  V30 33 H -0.49391 1.58287 -2.37062 0
M  V30 34 H 1.42366 2.86569 -2.63398 0
M  V30 35 H 1.19555 3.38936 -0.96536 0
M  V30 36 H 1.62516 -0.333074 -1.10068 0
M  V30 37 H 6.99093 -2.79876 -0.567327 0
M  V30 38 H 7.25463 -1.93945 1.03915 0
M  V30 39 H 5.86406 -3.06048 0.814102 0
M  V30 40 H 0.97222 2.0665 3.42318 0
M  V30 41 H 0.417577 0.490294 4.02941 0
M  V30 END ATOM
M  V30 BEGIN BOND
M  V30 1 1 1 2
M  V30 2 1 2 3
M  V30 3 1 3 4
M  V30 4 1 4 5
M  V30 5 1 4 6
M  V30 6 2 6 7
M  V30 7 1 7 8
M  V30 8 1 8 9
M  V30 9 1 9 10
M  V30 10 1 10 11
M  V30 11 2 11 12
M  V30 12 1 12 13
M  V30 13 1 13 14
M  V30 14 2 14 15
M  V30 15 1 14 16
M  V30 16 1 16 17
M  V30 17 2 17 18
M  V30 18 1 17 19
M  V30 19 2 8 20
M  V30 20 1 20 21
M  V30 21 2 21 22
M  V30 22 1 21 23
M  V30 23 1 5 2
M  V30 24 1 22 6
M  V30 25 1 15 11
M  V30 26 1 18 13
M  V30 27 1 1 24
M  V30 28 1 1 25
M  V30 29 1 2 26
M  V30 30 1 3 27
M  V30 31 1 3 28
M  V30 32 1 4 29
M  V30 33 1 5 30
M  V30 34 1 5 31
M  V30 35 1 7 32
M  V30 36 1 9 33
M  V30 37 1 10 34
M  V30 38 1 10 35
M  V30 39 1 12 36
M  V30 40 1 19 37
M  V30 41 1 19 38
M  V30 42 1 19 39
M  V30 43 1 23 40
M  V30 44 1 23 41
M  V30 END BOND
M  V30 END CTAB
M  END
