
     RDKit          3D

  0  0  0  0  0  0  0  0  0  0999 V3000
M  V30 BEGIN CTAB
M  V30 COUNTS 26 27 0 0 0
M  V30 BEGIN ATOM
M  V30 1 N -4.90284 -0.365898 0.323619 0
M  V30 2 C -3.4933 -0.260337 0.211548 0
M  V30 3 C -2.70486 0.162315 1.25606 0
M  V30 4 C -1.32916 0.268835 1.1573 0
M  V30 5 C -0.701183 -0.0533878 -0.0162669 0
M  V30 6 C -1.48235 -0.48108 -1.07878 0
M  V30 7 C -2.85477 -0.583567 -0.969129 0
M  V30 8 C 0.737813 0.0561031 -0.103277 0
M  V30 9 C 1.32767 0.708907 -1.1599 0
M  V30 10 C 2.71195 0.822338 -1.24159 0
M  V30 11 C 3.47713 0.260002 -0.230182 0
M  V30 12 C 2.89969 -0.392314 0.82633 0
M  V30 13 C 1.50497 -0.49512 0.888953 0
M  V30 14 F 0.922197 -1.1402 1.91768 0
M  V30 15 N 4.8881 0.377703 -0.316651 0
M  V30 16 H -5.3566 -0.479353 1.25316 0
M  V30 17 H -5.53151 -0.334847 -0.504797 0
M  V30 18 H -3.1725 0.426322 2.20384 0
M  V30 19 H -0.788538 0.615259 2.02848 0
M  V30 20 H -0.975395 -0.730425 -1.99398 0
M  V30 21 H -3.42493 -0.922215 -1.82531 0
M  V30 22 H 0.758415 1.15391 -1.95739 0
M  V30 23 H 3.18316 1.33497 -2.07071 0
M  V30 24 H 3.50149 -0.821851 1.60027 0
M  V30 25 H 5.52629 -0.460056 -0.250249 0
M  V30 26 H 5.27905 1.33398 -0.449987 0
M  V30 END ATOM
M  V30 BEGIN BOND
M  V30 1 1 1 2
M  V30 2 2 2 3
M  V30 3 1 3 4
M  V30 4 2 4 5
M  V30 5 1 5 6
M  V30 6 2 6 7
M  V30 7 1 5 8
M  V30 8 2 8 9
M  V30 9 1 9 10
M  V30 10 2 10 11
M  V30 11 1 11 12
M  V30 12 2 12 13
M  V30 13 1 13 14
M  V30 14 1 11 15
M  V30 15 1 7 2
M  V30 16 1 13 8
M  V30 17 1 1 16
M  V30 18 1 1 17
M  V30 19 1 3 18
M  V30 20 1 4 19
M  V30 21 1 6 20
M  V30 22 1 7 21
M  V30 23 1 9 22
M  V30 24 1 10 23
M  V30 25 1 12 24
M  V30 26 1 15 25
M  V30 27 1 15 26
M  V30 END BOND
M  V30 END CTAB
M  END
