
     RDKit          3D

  0  0  0  0  0  0  0  0  0  0999 V3000
M  V30 BEGIN CTAB
M  V30 COUNTS 56 57 0 0 0
M  V30 BEGIN ATOM
M  V30 1 N 8.03238 1.09345 0.818074 0
M  V30 2 C 7.29594 0.880433 -0.384909 0
M  V30 3 N 7.75186 1.51645 -1.48648 0
M  V30 4 C 7.08658 1.34063 -2.63493 0
M  V30 5 Cl 7.7026 2.18214 -4.05777 0
M  V30 6 C 5.97709 0.539606 -2.68988 0
M  V30 7 C 5.52224 -0.103496 -1.55947 0
M  V30 8 N 4.37517 -0.933347 -1.63674 0
M  V30 9 C 3.79694 -1.64686 -0.536651 0
M  V30 10 C 3.27849 -0.755122 0.56851 0
M  V30 11 C 2.68583 -1.61922 1.67464 0
M  V30 12 C 2.15935 -0.776222 2.77739 0
M  V30 13 C 1.1163 0.207433 2.51741 0
M  V30 14 C -0.249905 -0.112445 2.09851 0
M  V30 15 C -0.409116 -0.834046 0.82824 0
M  V30 16 C -1.88009 -1.04139 0.44263 0
M  V30 17 C -2.63467 0.229479 0.262083 0
M  V30 18 C -4.05454 -0.149359 -0.127185 0
M  V30 19 N -4.87641 1.02524 -0.327668 0
M  V30 20 C -6.23683 0.857228 -0.697332 0
M  V30 21 N -7.06314 1.89809 -0.901541 0
M  V30 22 C -8.35204 1.74997 -1.25162 0
M  V30 23 N -9.2423 2.83479 -1.47234 0
M  V30 24 N -8.85726 0.494159 -1.41017 0
M  V30 25 C -8.1004 -0.591249 -1.22546 0
M  V30 26 Cl -8.74918 -2.19143 -1.42884 0
M  V30 27 C -6.78166 -0.417105 -0.866879 0
M  V30 28 N 6.21128 0.096111 -0.434121 0
M  V30 29 H 7.76234 1.76335 1.55747 0
M  V30 30 H 8.90116 0.535151 0.959548 0
M  V30 31 H 5.49011 0.444726 -3.65443 0
M  V30 32 H 3.92134 -1.02095 -2.59628 0
M  V30 33 H 4.57476 -2.34976 -0.138985 0
M  V30 34 H 2.95549 -2.26105 -0.873169 0
M  V30 35 H 2.5312 -0.0567939 0.210901 0
M  V30 36 H 4.12115 -0.180039 1.01326 0
M  V30 37 H 1.9736 -2.32752 1.29422 0
M  V30 38 H 3.55945 -2.26246 2.06699 0
M  V30 39 H 1.89609 -1.45952 3.65434 0
M  V30 40 H 3.05398 -0.219545 3.2154 0
M  V30 41 H 1.00515 0.835242 3.4865 0
M  V30 42 H 1.57864 0.978834 1.78021 0
M  V30 43 H -0.780936 -0.671495 2.95341 0
M  V30 44 H -0.892981 0.826774 2.02931 0
M  V30 45 H -0.0854843 -1.91001 1.01412 0
M  V30 46 H 0.182282 -0.479284 -0.0206398 0
M  V30 47 H -1.85124 -1.62937 -0.495151 0
M  V30 48 H -2.31713 -1.68596 1.23448 0
M  V30 49 H -2.22037 0.784547 -0.608347 0
M  V30 50 H -2.64885 0.903168 1.1267 0
M  V30 51 H -3.98512 -0.663558 -1.11454 0
M  V30 52 H -4.49644 -0.855443 0.590668 0
M  V30 53 H -4.48421 1.9757 -0.204945 0
M  V30 54 H -9.40726 3.20957 -2.41204 0
M  V30 55 H -9.73104 3.24798 -0.650246 0
M  V30 56 H -6.11017 -1.2462 -0.700625 0
M  V30 END ATOM
M  V30 BEGIN BOND
M  V30 1 1 1 2
M  V30 2 2 2 3
M  V30 3 1 3 4
M  V30 4 1 4 5
M  V30 5 2 4 6
M  V30 6 1 6 7
M  V30 7 1 7 8
M  V30 8 1 8 9
M  V30 9 1 9 10
M  V30 10 1 10 11
M  V30 11 1 11 12
M  V30 12 1 12 13
M  V30 13 1 13 14
M  V30 14 1 14 15
M  V30 15 1 15 16
M  V30 16 1 16 17
M  V30 17 1 17 18
M  V30 18 1 18 19
M  V30 19 1 19 20
M  V30 20 2 20 21
M  V30 21 1 21 22
M  V30 22 1 22 23
M  V30 23 2 22 24
M  V30 24 1 24 25
M  V30 25 1 25 26
M  V30 26 2 25 27
M  V30 27 2 7 28
M  V30 28 1 28 2
M  V30 29 1 27 20
M  V30 30 1 1 29
M  V30 31 1 1 30
M  V30 32 1 6 31
M  V30 33 1 8 32
M  V30 34 1 9 33
M  V30 35 1 9 34
M  V30 36 1 10 35
M  V30 37 1 10 36
M  V30 38 1 11 37
M  V30 39 1 11 38
M  V30 40 1 12 39
M  V30 41 1 12 40
M  V30 42 1 13 41
M  V30 43 1 13 42
M  V30 44 1 14 43
M  V30 45 1 14 44
M  V30 46 1 15 45
M  V30 47 1 15 46
M  V30 48 1 16 47
M  V30 49 1 16 48
M  V30 50 1 17 49
M  V30 51 1 17 50
M  V30 52 1 18 51
M  V30 53 1 18 52
M  V30 54 1 19 53
M  V30 55 1 23 54
M  V30 56 1 23 55
M  V30 57 1 27 56
M  V30 END BOND
M  V30 END CTAB
M  END
