
     RDKit          3D

  0  0  0  0  0  0  0  0  0  0999 V3000
M  V30 BEGIN CTAB
M  V30 COUNTS 24 24 0 0 0
M  V30 BEGIN ATOM
M  V30 1 C -3.15518 0.822309 -0.717042 0
M  V30 2 C -2.3978 -0.178999 0.0523999 0
M  V30 3 C -0.952694 -0.117589 0.0622026 0
M  V30 4 C -0.303142 -1.10959 0.819468 0
M  V30 5 N -1.0389 -2.10269 1.52461 0
M  V30 6 N 1.05173 -1.05306 0.829479 0
M  V30 7 C 1.7558 -0.125869 0.171779 0
M  V30 8 N 1.09857 0.816683 -0.549258 0
M  V30 9 C -0.23098 0.833565 -0.612512 0
M  V30 10 O -0.848566 1.69529 -1.27236 0
M  V30 11 C 3.22637 -0.163956 0.256116 0
M  V30 12 N 3.87298 0.874529 -0.48582 0
M  V30 13 H -2.99669 0.670889 -1.8124 0
M  V30 14 H -3.11156 1.86135 -0.380146 0
M  V30 15 H -4.25092 0.549361 -0.577975 0
M  V30 16 H -2.73618 -0.0935526 1.12983 0
M  V30 17 H -2.74839 -1.19279 -0.262897 0
M  V30 18 H -0.682779 -3.08335 1.56958 0
M  V30 19 H -1.94158 -1.82432 1.99411 0
M  V30 20 H 1.67413 1.52433 -1.04978 0
M  V30 21 H 3.59653 -1.13661 -0.126092 0
M  V30 22 H 3.54812 -0.0886573 1.31086 0
M  V30 23 H 3.79298 0.805907 -1.50171 0
M  V30 24 H 3.77814 1.81683 -0.0827505 0
M  V30 END ATOM
M  V30 BEGIN BOND
M  V30 1 1 1 2
M  V30 2 1 2 3
M  V30 3 2 3 4
M  V30 4 1 4 5
M  V30 5 1 4 6
M  V30 6 2 6 7
M  V30 7 1 7 8
M  V30 8 1 8 9
M  V30 9 2 9 10
M  V30 10 1 7 11
M  V30 11 1 11 12
M  V30 12 1 9 3
M  V30 13 1 1 13
M  V30 14 1 1 14
M  V30 15 1 1 15
M  V30 16 1 2 16
M  V30 17 1 2 17
M  V30 18 1 5 18
M  V30 19 1 5 19
M  V30 20 1 8 20
M  V30 21 1 11 21
M  V30 22 1 11 22
M  V30 23 1 12 23
M  V30 24 1 12 24
M  V30 END BOND
M  V30 END CTAB
M  END
