
     RDKit          3D

  0  0  0  0  0  0  0  0  0  0999 V3000
M  V30 BEGIN CTAB
M  V30 COUNTS 53 54 0 0 0
M  V30 BEGIN ATOM
M  V30 1 C 2.0171 0.319046 0.496176 0 CFG=1
M  V30 2 N 1.83343 0.00018139 -0.90454 0
M  V30 3 C 2.4662 1.73433 0.581912 0
M  V30 4 C 3.7564 1.91801 -0.163049 0
M  V30 5 C 4.84612 1.06861 0.405388 0
M  V30 6 N 6.07851 1.30849 -0.35319 0
M  V30 7 C 7.2795 0.635134 -0.0270419 0
M  V30 8 N 7.51977 -0.669534 -0.521314 0
M  V30 9 N 8.14922 1.21267 0.718943 0
M  V30 10 C 0.78051 0.0612869 1.28106 0
M  V30 11 O 0.824699 0.241465 2.52485 0
M  V30 12 N -0.431252 -0.369746 0.716484 0
M  V30 13 C -1.61297 -0.611091 1.50903 0 CFG=1
M  V30 14 C -2.64304 0.444918 1.34099 0
M  V30 15 C -3.16458 0.720214 0.0168726 0
M  V30 16 C -2.67926 1.67781 -0.896776 0
M  V30 17 N -3.36025 1.62928 -2.03999 0
M  V30 18 C -4.28284 0.669498 -1.91246 0
M  V30 19 C -4.18485 0.0857058 -0.639283 0
M  V30 20 C -5.08834 -0.918247 -0.346614 0
M  V30 21 C -6.04188 -1.33081 -1.26479 0
M  V30 22 C -6.08864 -0.722627 -2.49898 0
M  V30 23 C -5.2202 0.281633 -2.85015 0
M  V30 24 C -2.1172 -1.97389 1.50287 0
M  V30 25 O -1.69758 -2.91458 0.751933 0
M  V30 26 O -3.13587 -2.32089 2.37736 0
M  V30 27 C -3.66979 -3.63066 2.4273 0
M  V30 28 H 2.79568 -0.344545 0.898404 0
M  V30 29 H 2.7087 -0.348454 -1.34211 0
M  V30 30 H 1.42989 0.781374 -1.45699 0
M  V30 31 H 2.55213 2.1086 1.62568 0
M  V30 32 H 1.70086 2.36403 0.0370308 0
M  V30 33 H 4.06244 2.99933 -0.204934 0
M  V30 34 H 3.56541 1.56917 -1.22253 0
M  V30 35 H 4.64875 -0.0182159 0.269477 0
M  V30 36 H 5.01503 1.30116 1.47654 0
M  V30 37 H 6.07375 1.97716 -1.13697 0
M  V30 38 H 6.75697 -1.27103 -0.92047 0
M  V30 39 H 8.48408 -1.10723 -0.512963 0
M  V30 40 H 7.99192 2.17541 1.09492 0
M  V30 41 H -0.481956 -0.520628 -0.304549 0
M  V30 42 H -1.24453 -0.454337 2.58856 0
M  V30 43 H -3.52284 0.127237 1.98127 0
M  V30 44 H -2.28071 1.3756 1.87362 0
M  V30 45 H -1.85873 2.31836 -0.609559 0
M  V30 46 H -3.18435 2.24707 -2.88003 0
M  V30 47 H -5.0293 -1.35254 0.634512 0
M  V30 48 H -6.73634 -2.12885 -0.988597 0
M  V30 49 H -6.85633 -1.07224 -3.20654 0
M  V30 50 H -5.31431 0.712742 -3.83289 0
M  V30 51 H -3.13846 -4.27444 3.15829 0
M  V30 52 H -3.49669 -4.08587 1.40812 0
M  V30 53 H -4.77395 -3.62505 2.57953 0
M  V30 END ATOM
M  V30 BEGIN BOND
M  V30 1 1 1 2
M  V30 2 1 1 3
M  V30 3 1 3 4
M  V30 4 1 4 5
M  V30 5 1 5 6
M  V30 6 1 6 7
M  V30 7 1 7 8
M  V30 8 2 7 9 CFG=2
M  V30 9 1 1 10
M  V30 10 2 10 11
M  V30 11 1 10 12
M  V30 12 1 12 13
M  V30 13 1 13 14
M  V30 14 1 14 15
M  V30 15 2 15 16
M  V30 16 1 16 17
M  V30 17 1 17 18
M  V30 18 2 18 19
M  V30 19 1 19 20
M  V30 20 2 20 21
M  V30 21 1 21 22
M  V30 22 2 22 23
M  V30 23 1 13 24
M  V30 24 2 24 25
M  V30 25 1 24 26
M  V30 26 1 26 27
M  V30 27 1 19 15
M  V30 28 1 23 18
M  V30 29 1 1 28 CFG=1
M  V30 30 1 2 29
M  V30 31 1 2 30
M  V30 32 1 3 31
M  V30 33 1 3 32
M  V30 34 1 4 33
M  V30 35 1 4 34
M  V30 36 1 5 35
M  V30 37 1 5 36
M  V30 38 1 6 37
M  V30 39 1 8 38
M  V30 40 1 8 39
M  V30 41 1 9 40
M  V30 42 1 12 41
M  V30 43 1 13 42 CFG=1
M  V30 44 1 14 43
M  V30 45 1 14 44
M  V30 46 1 16 45
M  V30 47 1 17 46
M  V30 48 1 20 47
M  V30 49 1 21 48
M  V30 50 1 22 49
M  V30 51 1 23 50
M  V30 52 1 27 51
M  V30 53 1 27 52
M  V30 54 1 27 53
M  V30 END BOND
M  V30 END CTAB
M  END
