
     RDKit          3D

  0  0  0  0  0  0  0  0  0  0999 V3000
M  V30 BEGIN CTAB
M  V30 COUNTS 21 21 0 0 0
M  V30 BEGIN ATOM
M  V30 1 N -3.43913 1.16294 0.366302 0
M  V30 2 N -2.26019 0.558318 0.783775 0
M  V30 3 C -1.76627 -0.4625 0.172917 0
M  V30 4 N -0.579246 -1.08334 0.580897 0
M  V30 5 C 0.688197 -0.493099 0.333622 0
M  V30 6 C 0.747543 0.735271 -0.332367 0
M  V30 7 C 1.98552 1.30506 -0.570207 0
M  V30 8 C 3.14426 0.66812 -0.155015 0
M  V30 9 C 3.10611 -0.544355 0.503554 0
M  V30 10 C 1.86022 -1.09318 0.7295 0
M  V30 11 F 4.25054 -1.17994 0.91714 0
M  V30 12 Br 4.81363 1.50192 -0.511352 0
M  V30 13 N -2.45675 -0.974548 -0.958346 0
M  V30 14 H -3.39137 2.09407 -0.0782392 0
M  V30 15 H -4.3564 0.700467 0.491963 0
M  V30 16 H -0.60623 -1.99579 1.07659 0
M  V30 17 H -0.181696 1.18649 -0.632863 0
M  V30 18 H 2.03962 2.26999 -1.09294 0
M  V30 19 H 1.80999 -2.05393 1.25017 0
M  V30 20 H -2.6842 -0.308336 -1.71976 0
M  V30 21 H -2.72414 -1.99365 -1.01423 0
M  V30 END ATOM
M  V30 BEGIN BOND
M  V30 1 1 1 2
M  V30 2 2 2 3 CFG=2
M  V30 3 1 3 4
M  V30 4 1 4 5
M  V30 5 2 5 6
M  V30 6 1 6 7
M  V30 7 2 7 8
M  V30 8 1 8 9
M  V30 9 2 9 10
M  V30 10 1 9 11
M  V30 11 1 8 12
M  V30 12 1 3 13
M  V30 13 1 10 5
M  V30 14 1 1 14
M  V30 15 1 1 15
M  V30 16 1 4 16
M  V30 17 1 6 17
M  V30 18 1 7 18
M  V30 19 1 10 19
M  V30 20 1 13 20
M  V30 21 1 13 21
M  V30 END BOND
M  V30 END CTAB
M  END
