
     RDKit          3D

  0  0  0  0  0  0  0  0  0  0999 V3000
M  V30 BEGIN CTAB
M  V30 COUNTS 21 21 0 0 0
M  V30 BEGIN ATOM
M  V30 1 N 3.62068 2.21312 -0.755685 0
M  V30 2 C 3.50368 1.11695 -0.40955 0
M  V30 3 C 3.37947 -0.26279 0.0362003 0
M  V30 4 S 2.1657 -0.439163 1.33872 0
M  V30 5 C 0.498936 -0.114861 0.814695 0
M  V30 6 N 0.0593238 1.15163 0.896498 0
M  V30 7 C -1.19538 1.48149 0.526087 0
M  V30 8 N -1.66476 2.83927 0.613797 0
M  V30 9 C -2.00073 0.46686 0.0619597 0
M  V30 10 C -1.56692 -0.845578 -0.0306629 0
M  V30 11 C -0.282424 -1.14866 0.355306 0
M  V30 12 C 0.163788 -2.50392 0.259197 0
M  V30 13 N 0.545498 -3.58716 0.173956 0
M  V30 14 N -2.46386 -1.84369 -0.521038 0
M  V30 15 H 4.3687 -0.546843 0.472098 0
M  V30 16 H 3.14442 -0.922353 -0.823763 0
M  V30 17 H -1.31153 3.58825 -0.0191895 0
M  V30 18 H -2.37544 3.0858 1.32889 0
M  V30 19 H -3.01246 0.719441 -0.238538 0
M  V30 20 H -3.49704 -1.71568 -0.523421 0
M  V30 21 H -2.07965 -2.73211 -0.886799 0
M  V30 END ATOM
M  V30 BEGIN BOND
M  V30 1 3 1 2
M  V30 2 1 2 3
M  V30 3 1 3 4
M  V30 4 1 4 5
M  V30 5 2 5 6
M  V30 6 1 6 7
M  V30 7 1 7 8
M  V30 8 2 7 9
M  V30 9 1 9 10
M  V30 10 2 10 11
M  V30 11 1 11 12
M  V30 12 3 12 13
M  V30 13 1 10 14
M  V30 14 1 11 5
M  V30 15 1 3 15
M  V30 16 1 3 16
M  V30 17 1 8 17
M  V30 18 1 8 18
M  V30 19 1 9 19
M  V30 20 1 14 20
M  V30 21 1 14 21
M  V30 END BOND
M  V30 END CTAB
M  END
