
     RDKit          3D

  0  0  0  0  0  0  0  0  0  0999 V3000
M  V30 BEGIN CTAB
M  V30 COUNTS 33 34 0 0 0
M  V30 BEGIN ATOM
M  V30 1 N 3.66796 -0.853684 1.33388 0
M  V30 2 C 2.9051 0.0721537 0.576345 0
M  V30 3 C 3.42298 1.30138 0.204105 0
M  V30 4 C 2.64714 2.18237 -0.537407 0
M  V30 5 C 1.36264 1.83553 -0.903533 0
M  V30 6 C 0.821921 0.602336 -0.538852 0
M  V30 7 C 1.61143 -0.237841 0.188845 0
M  V30 8 C -0.559988 0.204782 -0.921053 0 CFG=1
M  V30 9 C -0.534793 -0.758196 -2.10816 0
M  V30 10 N -0.61385 -2.13264 -1.67078 0
M  V30 11 C -1.82812 -2.41683 -0.946884 0
M  V30 12 C -2.38973 -1.17888 -0.316464 0
M  V30 13 N -1.27965 -0.384958 0.17701 0
M  V30 14 S -1.87922 0.752757 1.30003 0
M  V30 15 O -2.54321 -0.00416041 2.41677 0
M  V30 16 O -0.709188 1.49663 1.92195 0
M  V30 17 N -2.99103 1.85726 0.657077 0
M  V30 18 H 3.38794 -1.84913 1.39305 0
M  V30 19 H 4.521 -0.561198 1.84563 0
M  V30 20 H 4.43884 1.54345 0.509044 0
M  V30 21 H 3.06007 3.15414 -0.830199 0
M  V30 22 H 0.792674 2.52944 -1.47054 0
M  V30 23 H 1.209 -1.20122 0.482016 0
M  V30 24 H -1.05203 1.12155 -1.30774 0
M  V30 25 H -1.38662 -0.561081 -2.77057 0
M  V30 26 H 0.437824 -0.624912 -2.60209 0
M  V30 27 H -0.486469 -2.73063 -2.5004 0
M  V30 28 H -1.6573 -3.1983 -0.188291 0
M  V30 29 H -2.57318 -2.85624 -1.66898 0
M  V30 30 H -2.86753 -0.566927 -1.13135 0
M  V30 31 H -3.13718 -1.40146 0.456243 0
M  V30 32 H -2.94154 2.74869 1.21556 0
M  V30 33 H -2.85587 2.11582 -0.323292 0
M  V30 END ATOM
M  V30 BEGIN BOND
M  V30 1 1 1 2
M  V30 2 2 2 3
M  V30 3 1 3 4
M  V30 4 2 4 5
M  V30 5 1 5 6
M  V30 6 2 6 7
M  V30 7 1 6 8
M  V30 8 1 8 9
M  V30 9 1 9 10
M  V30 10 1 10 11
M  V30 11 1 11 12
M  V30 12 1 12 13
M  V30 13 1 13 14
M  V30 14 2 14 15
M  V30 15 2 14 16
M  V30 16 1 14 17
M  V30 17 1 7 2
M  V30 18 1 13 8
M  V30 19 1 1 18
M  V30 20 1 1 19
M  V30 21 1 3 20
M  V30 22 1 4 21
M  V30 23 1 5 22
M  V30 24 1 7 23
M  V30 25 1 8 24 CFG=3
M  V30 26 1 9 25
M  V30 27 1 9 26
M  V30 28 1 10 27
M  V30 29 1 11 28
M  V30 30 1 11 29
M  V30 31 1 12 30
M  V30 32 1 12 31
M  V30 33 1 17 32
M  V30 34 1 17 33
M  V30 END BOND
M  V30 END CTAB
M  END
