
     RDKit          3D

  0  0  0  0  0  0  0  0  0  0999 V3000
M  V30 BEGIN CTAB
M  V30 COUNTS 76 81 0 0 0
M  V30 BEGIN ATOM
M  V30 1 C -3.53118 -2.15235 2.24404 0
M  V30 2 C -2.84071 -1.13784 1.38443 0
M  V30 3 C -3.5863 -0.250983 0.641493 0
M  V30 4 C -2.97378 0.69013 -0.156457 0
M  V30 5 C -1.57912 0.751235 -0.217739 0
M  V30 6 C -0.818779 -0.12787 0.518601 0
M  V30 7 C -1.46705 -1.05087 1.30158 0
M  V30 8 C 0.631232 -0.045891 0.44048 0
M  V30 9 C 1.2398 1.1784 0.233632 0
M  V30 10 C 2.6345 1.29233 0.153561 0
M  V30 11 C 3.23472 2.64037 -0.0709869 0
M  V30 12 C 3.42851 0.181303 0.280383 0
M  V30 13 C 2.84542 -1.04306 0.486106 0
M  V30 14 C 1.45353 -1.14889 0.564659 0
M  V30 15 N 4.82789 0.324331 0.1983 0
M  V30 16 N 5.67141 -0.566431 -0.0274853 0
M  V30 17 C 7.0726 -0.348324 -0.0958574 0
M  V30 18 C 7.82034 -0.0771324 1.03068 0
M  V30 19 N 7.23715 -0.00145031 2.32261 0
M  V30 20 C 9.17636 0.125244 0.885576 0
M  V30 21 C 9.96001 0.402573 2.00914 0
M  V30 22 C 11.3129 0.601797 1.83872 0
M  V30 23 C 11.9083 0.535198 0.598951 0
M  V30 24 C 11.1428 0.262381 -0.51248 0
M  V30 25 C 9.76645 0.0570413 -0.358371 0
M  V30 26 C 9.04205 -0.210402 -1.48418 0
M  V30 27 C 7.66893 -0.41488 -1.33411 0
M  V30 28 S 9.77869 -0.302302 -3.05548 0
M  V30 29 O 10.9561 -1.5233 -3.12233 0
M  V30 30 O 10.3421 1.01906 -3.49215 0
M  V30 31 O 8.72477 -0.686814 -4.05308 0
M  V30 32 N -5.02082 -0.277125 0.673546 0
M  V30 33 N -5.64117 0.0540825 -0.386997 0
M  V30 34 C -7.03616 0.0840947 -0.530093 0
M  V30 35 C -7.77458 -1.08423 -0.545943 0
M  V30 36 N -7.12128 -2.35132 -0.41668 0
M  V30 37 C -9.13891 -1.02792 -0.686252 0
M  V30 38 C -9.87268 -2.18713 -0.7017 0
M  V30 39 C -11.2523 -2.15353 -0.841938 0
M  V30 40 C -11.8909 -0.93939 -0.967151 0
M  V30 41 C -11.1718 0.249782 -0.954764 0
M  V30 42 C -9.80752 0.18579 -0.814474 0
M  V30 43 C -9.08297 1.365 -0.800687 0
M  V30 44 C -7.7044 1.28368 -0.657702 0
M  V30 45 S -9.88703 2.90551 -0.959086 0
M  V30 46 O -8.70877 4.12386 -0.901422 0
M  V30 47 O -10.6076 3.03069 -2.27966 0
M  V30 48 O -10.8501 3.17164 0.142556 0
M  V30 49 H -3.84592 -1.63648 3.19239 0
M  V30 50 H -4.3725 -2.63544 1.73452 0
M  V30 51 H -2.81052 -2.9311 2.55934 0
M  V30 52 H -3.54538 1.40166 -0.752813 0
M  V30 53 H -1.13713 1.50313 -0.854978 0
M  V30 54 H -0.87584 -1.74724 1.88466 0
M  V30 55 H 0.597931 2.05791 0.133725 0
M  V30 56 H 4.22118 2.46945 -0.591792 0
M  V30 57 H 3.40076 3.178 0.882993 0
M  V30 58 H 2.60977 3.21179 -0.758454 0
M  V30 59 H 3.40596 -1.94924 0.593406 0
M  V30 60 H 0.965162 -2.1113 0.727601 0
M  V30 61 H 6.68807 0.820525 2.62123 0
M  V30 62 H 7.3602 -0.796245 3.00118 0
M  V30 63 H 9.47223 0.45022 2.9724 0
M  V30 64 H 11.9177 0.818762 2.72989 0
M  V30 65 H 12.9902 0.695924 0.473802 0
M  V30 66 H 11.5916 0.2058 -1.50365 0
M  V30 67 H 7.11889 -0.625021 -2.24197 0
M  V30 68 H 10.5182 -2.33868 -2.77008 0
M  V30 69 H -6.85119 -2.64975 0.544162 0
M  V30 70 H -6.90933 -2.97102 -1.21451 0
M  V30 71 H -9.34153 -3.13627 -0.600782 0
M  V30 72 H -11.7829 -3.10444 -0.847314 0
M  V30 73 H -12.9612 -0.91235 -1.07576 0
M  V30 74 H -11.695 1.18964 -1.05407 0
M  V30 75 H -7.1304 2.20564 -0.646188 0
M  V30 76 H -8.10974 3.93002 -0.146136 0
M  V30 END ATOM
M  V30 BEGIN BOND
M  V30 1 1 1 2
M  V30 2 2 2 3
M  V30 3 1 3 4
M  V30 4 2 4 5
M  V30 5 1 5 6
M  V30 6 2 6 7
M  V30 7 1 6 8
M  V30 8 2 8 9
M  V30 9 1 9 10
M  V30 10 1 10 11
M  V30 11 2 10 12
M  V30 12 1 12 13
M  V30 13 2 13 14
M  V30 14 1 12 15
M  V30 15 2 15 16
M  V30 16 1 16 17
M  V30 17 2 17 18
M  V30 18 1 18 19
M  V30 19 1 18 20
M  V30 20 2 20 21
M  V30 21 1 21 22
M  V30 22 2 22 23
M  V30 23 1 23 24
M  V30 24 2 24 25
M  V30 25 1 25 26
M  V30 26 2 26 27
M  V30 27 1 26 28
M  V30 28 1 28 29
M  V30 29 2 28 30
M  V30 30 2 28 31
M  V30 31 1 3 32
M  V30 32 2 32 33
M  V30 33 1 33 34
M  V30 34 2 34 35
M  V30 35 1 35 36
M  V30 36 1 35 37
M  V30 37 2 37 38
M  V30 38 1 38 39
M  V30 39 2 39 40
M  V30 40 1 40 41
M  V30 41 2 41 42
M  V30 42 1 42 43
M  V30 43 2 43 44
M  V30 44 1 43 45
M  V30 45 1 45 46
M  V30 46 2 45 47
M  V30 47 2 45 48
M  V30 48 1 7 2
M  V30 49 1 14 8
M  V30 50 1 27 17
M  V30 51 1 44 34
M  V30 52 1 25 20
M  V30 53 1 42 37
M  V30 54 1 1 49
M  V30 55 1 1 50
M  V30 56 1 1 51
M  V30 57 1 4 52
M  V30 58 1 5 53
M  V30 59 1 7 54
M  V30 60 1 9 55
M  V30 61 1 11 56
M  V30 62 1 11 57
M  V30 63 1 11 58
M  V30 64 1 13 59
M  V30 65 1 14 60
M  V30 66 1 19 61
M  V30 67 1 19 62
M  V30 68 1 21 63
M  V30 69 1 22 64
M  V30 70 1 23 65
M  V30 71 1 24 66
M  V30 72 1 27 67
M  V30 73 1 29 68
M  V30 74 1 36 69
M  V30 75 1 36 70
M  V30 76 1 38 71
M  V30 77 1 39 72
M  V30 78 1 40 73
M  V30 79 1 41 74
M  V30 80 1 44 75
M  V30 81 1 46 76
M  V30 END BOND
M  V30 END CTAB
M  END
