
     RDKit          3D

  0  0  0  0  0  0  0  0  0  0999 V3000
M  V30 BEGIN CTAB
M  V30 COUNTS 38 40 0 0 0
M  V30 BEGIN ATOM
M  V30 1 N -2.06245 -2.6594 1.2405 0
M  V30 2 C -2.53463 -1.32767 0.860395 0
M  V30 3 C -1.44951 -0.646849 0.0498257 0
M  V30 4 C -1.09608 -1.40839 -1.18776 0
M  V30 5 N -2.33294 -1.49602 -1.98427 0
M  V30 6 C -0.462866 0.131137 0.849988 0
M  V30 7 C -1.35689 0.830298 -0.0649245 0
M  V30 8 S -2.64695 1.91416 0.445687 0
M  V30 9 O -3.64826 2.09875 -0.686658 0
M  V30 10 O -3.42648 1.44536 1.62588 0
M  V30 11 C -1.96316 3.55107 0.749791 0
M  V30 12 C 0.9819 -0.0490628 0.648853 0
M  V30 13 C 1.76236 -0.657708 1.61878 0
M  V30 14 C 3.12587 -0.821678 1.44983 0
M  V30 15 C 3.74798 -0.378019 0.29849 0
M  V30 16 C 2.98852 0.222527 -0.661955 0
M  V30 17 C 1.63831 0.375401 -0.474489 0
M  V30 18 O 3.83751 0.566262 -1.69099 0
M  V30 19 C 5.17926 0.302222 -1.32634 0
M  V30 20 O 5.09203 -0.413955 -0.128947 0
M  V30 21 H -1.88108 -3.2605 0.42971 0
M  V30 22 H -1.14811 -2.58292 1.77023 0
M  V30 23 H -2.65923 -0.806699 1.84134 0
M  V30 24 H -3.45266 -1.44171 0.286236 0
M  V30 25 H -0.68115 -2.41137 -0.993373 0
M  V30 26 H -0.385479 -0.876632 -1.8422 0
M  V30 27 H -2.94634 -2.24648 -1.5805 0
M  V30 28 H -2.86148 -0.593663 -1.82435 0
M  V30 29 H -0.698239 0.164242 1.9733 0
M  V30 30 H -0.864383 1.22199 -1.0149 0
M  V30 31 H -0.898172 3.44788 1.0376 0
M  V30 32 H -2.56447 4.10358 1.49268 0
M  V30 33 H -1.97093 4.16109 -0.17953 0
M  V30 34 H 1.3445 -1.02977 2.54562 0
M  V30 35 H 3.75968 -1.29269 2.18925 0
M  V30 36 H 1.0625 0.874644 -1.26977 0
M  V30 37 H 5.73836 -0.266154 -2.07044 0
M  V30 38 H 5.73315 1.25672 -1.09572 0
M  V30 END ATOM
M  V30 BEGIN BOND
M  V30 1 1 1 2
M  V30 2 1 2 3
M  V30 3 1 3 4
M  V30 4 1 4 5
M  V30 5 1 3 6
M  V30 6 1 6 7
M  V30 7 1 7 8
M  V30 8 2 8 9
M  V30 9 2 8 10
M  V30 10 1 8 11
M  V30 11 1 6 12
M  V30 12 2 12 13
M  V30 13 1 13 14
M  V30 14 2 14 15
M  V30 15 1 15 16
M  V30 16 2 16 17
M  V30 17 1 16 18
M  V30 18 1 18 19
M  V30 19 1 19 20
M  V30 20 1 7 3
M  V30 21 1 17 12
M  V30 22 1 20 15
M  V30 23 1 1 21
M  V30 24 1 1 22
M  V30 25 1 2 23
M  V30 26 1 2 24
M  V30 27 1 4 25
M  V30 28 1 4 26
M  V30 29 1 5 27
M  V30 30 1 5 28
M  V30 31 1 6 29
M  V30 32 1 7 30
M  V30 33 1 11 31
M  V30 34 1 11 32
M  V30 35 1 11 33
M  V30 36 1 13 34
M  V30 37 1 14 35
M  V30 38 1 17 36
M  V30 39 1 19 37
M  V30 40 1 19 38
M  V30 END BOND
M  V30 END CTAB
M  END
