
     RDKit          3D

  0  0  0  0  0  0  0  0  0  0999 V3000
M  V30 BEGIN CTAB
M  V30 COUNTS 29 29 0 0 0
M  V30 BEGIN ATOM
M  V30 1 N 3.85251 -3.01194 -0.408991 0
M  V30 2 C 3.3944 -1.95704 -0.258522 0
M  V30 3 C 2.80338 -0.648726 -0.0493514 0
M  V30 4 C 3.59088 0.383994 0.124446 0
M  V30 5 N 5.00665 0.152238 0.100368 0
M  V30 6 C 3.10512 1.76026 0.33689 0
M  V30 7 C 1.35306 -0.492399 -0.017672 0
M  V30 8 O 0.812541 0.628834 0.187223 0
M  V30 9 C 0.537567 -1.70253 -0.238344 0
M  V30 10 S -0.777571 -1.47257 -1.43475 0
M  V30 11 C -2.10325 -0.427818 -0.894593 0
M  V30 12 N -3.16682 -1.02862 -0.274925 0
M  V30 13 C -4.22366 -0.328983 0.153396 0
M  V30 14 N -5.33805 -0.972634 0.79635 0
M  V30 15 C -4.20007 1.02986 -0.05312 0
M  V30 16 C -3.11513 1.62396 -0.682192 0
M  V30 17 O -3.10524 2.88734 -0.866962 0
M  V30 18 N -2.06163 0.894833 -1.10562 0
M  V30 19 H 5.65679 0.887728 -0.23258 0
M  V30 20 H 5.35928 -0.769287 0.426564 0
M  V30 21 H 2.52551 2.1632 -0.524306 0
M  V30 22 H 2.57552 1.9097 1.27072 0
M  V30 23 H 4.01706 2.44009 0.404056 0
M  V30 24 H 1.1872 -2.5186 -0.613252 0
M  V30 25 H 0.127344 -2.06833 0.747157 0
M  V30 26 H -5.31875 -1.96847 1.06425 0
M  V30 27 H -6.17187 -0.407613 0.990494 0
M  V30 28 H -5.05382 1.62318 0.292798 0
M  V30 29 H -1.26894 1.39034 -1.58984 0
M  V30 END ATOM
M  V30 BEGIN BOND
M  V30 1 3 1 2
M  V30 2 1 2 3
M  V30 3 2 3 4 CFG=2
M  V30 4 1 4 5
M  V30 5 1 4 6
M  V30 6 1 3 7
M  V30 7 2 7 8
M  V30 8 1 7 9
M  V30 9 1 9 10
M  V30 10 1 10 11
M  V30 11 2 11 12
M  V30 12 1 12 13
M  V30 13 1 13 14
M  V30 14 2 13 15
M  V30 15 1 15 16
M  V30 16 2 16 17
M  V30 17 1 16 18
M  V30 18 1 18 11
M  V30 19 1 5 19
M  V30 20 1 5 20
M  V30 21 1 6 21
M  V30 22 1 6 22
M  V30 23 1 6 23
M  V30 24 1 9 24
M  V30 25 1 9 25
M  V30 26 1 14 26
M  V30 27 1 14 27
M  V30 28 1 15 28
M  V30 29 1 18 29
M  V30 END BOND
M  V30 END CTAB
M  END
