
     RDKit          3D

  0  0  0  0  0  0  0  0  0  0999 V3000
M  V30 BEGIN CTAB
M  V30 COUNTS 35 37 0 0 0
M  V30 BEGIN ATOM
M  V30 1 C 6.00807 0.861901 -0.35408 0
M  V30 2 S 4.74992 0.739202 -1.65486 0
M  V30 3 C 3.16303 0.40078 -0.94002 0
M  V30 4 N 2.38469 1.42625 -0.58328 0
M  V30 5 C 1.1516 1.21465 -0.0281491 0
M  V30 6 N 0.35801 2.31326 0.344743 0
M  V30 7 C 0.675749 -0.0797345 0.179082 0
M  V30 8 C 1.52575 -1.08027 -0.209168 0
M  V30 9 N 2.74852 -0.848381 -0.759618 0
M  V30 10 O 1.16312 -2.40574 -0.0502298 0
M  V30 11 C -0.0675534 -2.70029 0.504801 0
M  V30 12 C -0.928873 -1.79609 0.895325 0
M  V30 13 C -0.640603 -0.359005 0.765821 0
M  V30 14 C -1.77073 0.316168 0.0740976 0
M  V30 15 C -2.55097 1.21294 0.748485 0
M  V30 16 C -3.61524 1.87829 0.172829 0
M  V30 17 C -3.89294 1.61415 -1.15083 0
M  V30 18 C -3.12143 0.717184 -1.84505 0
M  V30 19 C -2.04691 0.0545302 -1.23948 0
M  V30 20 Br -5.34243 2.47549 -2.05588 0
M  V30 21 C -2.19113 -2.17605 1.46673 0
M  V30 22 N -3.23028 -2.47804 1.91659 0
M  V30 23 N -0.413113 -4.08214 0.658284 0
M  V30 24 H 5.67453 0.316504 0.567031 0
M  V30 25 H 6.22165 1.89849 -0.055571 0
M  V30 26 H 6.94236 0.399812 -0.7242 0
M  V30 27 H 0.257327 2.56372 1.33916 0
M  V30 28 H -0.123981 2.86986 -0.376603 0
M  V30 29 H -0.587964 0.019306 1.84386 0
M  V30 30 H -2.33448 1.42097 1.7862 0
M  V30 31 H -4.23922 2.58482 0.683493 0
M  V30 32 H -3.36339 0.526245 -2.89343 0
M  V30 33 H -1.46439 -0.650603 -1.83853 0
M  V30 34 H -0.012956 -4.67043 1.40286 0
M  V30 35 H -1.08575 -4.49774 -0.00154745 0
M  V30 END ATOM
M  V30 BEGIN BOND
M  V30 1 1 1 2
M  V30 2 1 2 3
M  V30 3 2 3 4
M  V30 4 1 4 5
M  V30 5 1 5 6
M  V30 6 2 5 7
M  V30 7 1 7 8
M  V30 8 2 8 9
M  V30 9 1 8 10
M  V30 10 1 10 11
M  V30 11 2 11 12
M  V30 12 1 12 13
M  V30 13 1 13 14
M  V30 14 2 14 15
M  V30 15 1 15 16
M  V30 16 2 16 17
M  V30 17 1 17 18
M  V30 18 2 18 19
M  V30 19 1 17 20
M  V30 20 1 12 21
M  V30 21 3 21 22
M  V30 22 1 11 23
M  V30 23 1 9 3
M  V30 24 1 19 14
M  V30 25 1 13 7
M  V30 26 1 1 24
M  V30 27 1 1 25
M  V30 28 1 1 26
M  V30 29 1 6 27
M  V30 30 1 6 28
M  V30 31 1 13 29
M  V30 32 1 15 30
M  V30 33 1 16 31
M  V30 34 1 18 32
M  V30 35 1 19 33
M  V30 36 1 23 34
M  V30 37 1 23 35
M  V30 END BOND
M  V30 END CTAB
M  END
