
     RDKit          3D

  0  0  0  0  0  0  0  0  0  0999 V3000
M  V30 BEGIN CTAB
M  V30 COUNTS 26 27 0 0 0
M  V30 BEGIN ATOM
M  V30 1 N -3.66576 0.787204 0.795126 0
M  V30 2 C -3.29567 0.291262 -0.498085 0
M  V30 3 C -2.03191 -0.501767 -0.326919 0 CFG=1
M  V30 4 O -1.53954 -1.04898 -1.4739 0
M  V30 5 C -0.162793 -1.08778 -1.40721 0
M  V30 6 C 0.24281 -0.641232 -0.0250463 0 CFG=2
M  V30 7 C -0.914099 0.319404 0.284231 0
M  V30 8 C 1.54373 0.0358886 0.0156269 0
M  V30 9 N 2.01693 1.05371 -0.702728 0
M  V30 10 N 3.2519 1.33624 -0.321722 0
M  V30 11 C 3.60976 0.488747 0.67183 0
M  V30 12 N 2.53764 -0.301563 0.85901 0
M  V30 13 N 4.83622 0.423441 1.3789 0
M  V30 14 H -3.09097 0.42947 1.54946 0
M  V30 15 H -4.62921 0.92757 0.971846 0
M  V30 16 H -3.18532 1.15366 -1.16661 0
M  V30 17 H -4.08533 -0.402149 -0.838783 0
M  V30 18 H -2.25298 -1.31765 0.408106 0
M  V30 19 H 0.262884 -2.07209 -1.68433 0
M  V30 20 H 0.210341 -0.288203 -2.11105 0
M  V30 21 H 0.166839 -1.44959 0.702354 0
M  V30 22 H -1.03093 0.479773 1.36131 0
M  V30 23 H -0.809594 1.25884 -0.304083 0
M  V30 24 H 1.44456 1.5295 -1.45589 0
M  V30 25 H 5.75412 0.294163 0.908133 0
M  V30 26 H 4.81638 0.508354 2.41042 0
M  V30 END ATOM
M  V30 BEGIN BOND
M  V30 1 1 1 2
M  V30 2 1 2 3
M  V30 3 1 3 4
M  V30 4 1 4 5
M  V30 5 1 5 6
M  V30 6 1 6 7
M  V30 7 1 6 8
M  V30 8 1 8 9
M  V30 9 1 9 10
M  V30 10 2 10 11
M  V30 11 1 11 12
M  V30 12 1 11 13
M  V30 13 1 7 3
M  V30 14 2 12 8
M  V30 15 1 1 14
M  V30 16 1 1 15
M  V30 17 1 2 16
M  V30 18 1 2 17
M  V30 19 1 3 18 CFG=1
M  V30 20 1 5 19
M  V30 21 1 5 20
M  V30 22 1 6 21 CFG=1
M  V30 23 1 7 22
M  V30 24 1 7 23
M  V30 25 1 9 24
M  V30 26 1 13 25
M  V30 27 1 13 26
M  V30 END BOND
M  V30 END CTAB
M  END
