
     RDKit          3D

  0  0  0  0  0  0  0  0  0  0999 V3000
M  V30 BEGIN CTAB
M  V30 COUNTS 48 50 0 0 0
M  V30 BEGIN ATOM
M  V30 1 O 1.16809 0.480621 -1.01888 0
M  V30 2 C 1.11543 -0.214285 -0.154651 0
M  V30 3 N 2.2707 -0.618401 0.576723 0
M  V30 4 C 3.60479 -0.2558 0.347225 0
M  V30 5 C 4.00661 0.71986 -0.521951 0
M  V30 6 C 5.36957 0.960056 -0.709141 0
M  V30 7 C 6.34053 0.259394 -0.0579424 0
M  V30 8 C 5.92548 -0.719085 0.8168 0
M  V30 9 C 4.59905 -0.980189 1.02367 0
M  V30 10 S 8.0516 0.539625 -0.307407 0
M  V30 11 O 8.33101 1.98757 -0.593059 0
M  V30 12 O 8.77905 0.053136 0.894047 0
M  V30 13 N 8.6037 -0.385495 -1.68824 0
M  V30 14 C -0.230225 -0.76017 0.267148 0
M  V30 15 N -1.24657 -0.187567 -0.626397 0
M  V30 16 C -2.5033 -0.883976 -0.410963 0
M  V30 17 C -3.53857 0.211813 -0.515816 0 CFG=2
M  V30 18 C -2.87571 1.26496 0.356511 0 CFG=1
M  V30 19 C -1.46727 1.21186 -0.256648 0
M  V30 20 N -3.48688 2.54575 0.234987 0
M  V30 21 C -4.85736 -0.220035 -0.0551707 0
M  V30 22 C -5.96048 0.00729191 -0.854572 0
M  V30 23 C -7.2318 -0.414681 -0.442883 0
M  V30 24 C -7.40086 -1.06045 0.762588 0
M  V30 25 C -6.28802 -1.27477 1.53932 0
M  V30 26 C -5.02429 -0.856803 1.1326 0
M  V30 27 H 2.06858 -1.27066 1.39262 0
M  V30 28 H 3.30099 1.32626 -1.06873 0
M  V30 29 H 5.65685 1.73475 -1.40368 0
M  V30 30 H 6.68236 -1.27491 1.33652 0
M  V30 31 H 4.29213 -1.74361 1.7072 0
M  V30 32 H 8.83505 -1.31997 -1.31954 0
M  V30 33 H 7.75772 -0.543197 -2.30991 0
M  V30 34 H -0.420806 -0.301423 1.2748 0
M  V30 35 H -0.222468 -1.84604 0.275601 0
M  V30 36 H -2.66306 -1.67516 -1.17976 0
M  V30 37 H -2.50171 -1.26449 0.625806 0
M  V30 38 H -3.56982 0.650154 -1.54156 0
M  V30 39 H -2.83585 0.858365 1.399 0
M  V30 40 H -1.51761 1.78449 -1.19787 0
M  V30 41 H -0.697782 1.58833 0.439238 0
M  V30 42 H -2.88949 3.35093 0.442817 0
M  V30 43 H -4.40393 2.50556 0.707596 0
M  V30 44 H -5.88386 0.507187 -1.80311 0
M  V30 45 H -8.10612 -0.250628 -1.04424 0
M  V30 46 H -8.37388 -1.39793 1.11043 0
M  V30 47 H -6.39961 -1.7842 2.50115 0
M  V30 48 H -4.16197 -1.04402 1.78145 0
M  V30 END ATOM
M  V30 BEGIN BOND
M  V30 1 2 1 2
M  V30 2 1 2 3
M  V30 3 1 3 4
M  V30 4 2 4 5
M  V30 5 1 5 6
M  V30 6 2 6 7
M  V30 7 1 7 8
M  V30 8 2 8 9
M  V30 9 1 7 10
M  V30 10 2 10 11
M  V30 11 2 10 12
M  V30 12 1 10 13
M  V30 13 1 2 14
M  V30 14 1 14 15
M  V30 15 1 15 16
M  V30 16 1 16 17
M  V30 17 1 17 18
M  V30 18 1 18 19
M  V30 19 1 18 20
M  V30 20 1 17 21
M  V30 21 2 21 22
M  V30 22 1 22 23
M  V30 23 2 23 24
M  V30 24 1 24 25
M  V30 25 2 25 26
M  V30 26 1 9 4
M  V30 27 1 19 15
M  V30 28 1 26 21
M  V30 29 1 3 27
M  V30 30 1 5 28
M  V30 31 1 6 29
M  V30 32 1 8 30
M  V30 33 1 9 31
M  V30 34 1 13 32
M  V30 35 1 13 33
M  V30 36 1 14 34
M  V30 37 1 14 35
M  V30 38 1 16 36
M  V30 39 1 16 37
M  V30 40 1 17 38 CFG=3
M  V30 41 1 18 39 CFG=1
M  V30 42 1 19 40
M  V30 43 1 19 41
M  V30 44 1 20 42
M  V30 45 1 20 43
M  V30 46 1 22 44
M  V30 47 1 23 45
M  V30 48 1 24 46
M  V30 49 1 25 47
M  V30 50 1 26 48
M  V30 END BOND
M  V30 END CTAB
M  END
