
     RDKit          3D

  0  0  0  0  0  0  0  0  0  0999 V3000
M  V30 BEGIN CTAB
M  V30 COUNTS 52 54 0 0 0
M  V30 BEGIN ATOM
M  V30 1 C -1.6128 4.29109 1.00681 0
M  V30 2 C -2.44385 3.56194 -0.041184 0
M  V30 3 C -1.53577 3.02141 -1.15373 0
M  V30 4 C -0.565768 2.07513 -0.493852 0
M  V30 5 C 0.389391 1.47544 -1.50813 0
M  V30 6 N 1.20277 0.460873 -0.974307 0
M  V30 7 C 0.777337 -0.284653 0.128294 0
M  V30 8 C -0.191677 0.421212 1.04947 0
M  V30 9 N -1.2505 1.05743 0.289611 0
M  V30 10 C -1.95131 0.119669 -0.529427 0
M  V30 11 C -2.72181 -0.904254 0.184279 0
M  V30 12 C -3.18447 -0.818952 1.46364 0
M  V30 13 C -3.90062 -1.82308 2.0616 0
M  V30 14 C -4.1869 -2.98483 1.37549 0
M  V30 15 C -3.7327 -3.10004 0.0812963 0
M  V30 16 C -3.01599 -2.08375 -0.50328 0
M  V30 17 C 2.54775 0.374806 -1.39665 0
M  V30 18 C 3.30797 -0.733489 -0.758655 0
M  V30 19 N 3.17373 -2.00599 -1.17147 0
M  V30 20 C 3.87762 -2.99205 -0.583832 0
M  V30 21 N 3.76983 -4.34719 -0.984256 0
M  V30 22 N 4.70729 -2.65368 0.417834 0
M  V30 23 C 4.86638 -1.40255 0.854171 0
M  V30 24 N 4.14773 -0.42859 0.247401 0
M  V30 25 N 5.74087 -1.04959 1.90944 0
M  V30 26 H -1.34366 3.64473 1.85575 0
M  V30 27 H -2.21017 5.14355 1.43176 0
M  V30 28 H -0.718281 4.78221 0.53944 0
M  V30 29 H -3.1348 4.30621 -0.479788 0
M  V30 30 H -2.95494 2.72045 0.462766 0
M  V30 31 H -2.16487 2.52938 -1.89636 0
M  V30 32 H -1.03347 3.88537 -1.58649 0
M  V30 33 H 0.062646 2.64955 0.220064 0
M  V30 34 H 1.06152 2.33137 -1.81726 0
M  V30 35 H -0.141126 1.20343 -2.45107 0
M  V30 36 H 0.302838 -1.26673 -0.114459 0
M  V30 37 H 1.64376 -0.551394 0.769996 0
M  V30 38 H -0.62095 -0.308436 1.72398 0
M  V30 39 H 0.344366 1.23105 1.60645 0
M  V30 40 H -2.65036 0.600137 -1.24679 0
M  V30 41 H -1.21101 -0.424542 -1.17742 0
M  V30 42 H -2.97553 0.0799607 2.02623 0
M  V30 43 H -4.25666 -1.7308 3.07889 0
M  V30 44 H -4.76032 -3.79581 1.84588 0
M  V30 45 H -3.96268 -4.01547 -0.448479 0
M  V30 46 H -2.683 -2.23028 -1.52741 0
M  V30 47 H 3.0577 1.35517 -1.24346 0
M  V30 48 H 2.55964 0.140836 -2.49962 0
M  V30 49 H 3.47617 -4.59126 -1.9367 0
M  V30 50 H 3.99476 -5.08618 -0.291669 0
M  V30 51 H 5.45086 -1.21996 2.88275 0
M  V30 52 H 6.65308 -0.628838 1.70694 0
M  V30 END ATOM
M  V30 BEGIN BOND
M  V30 1 1 1 2
M  V30 2 1 2 3
M  V30 3 1 3 4
M  V30 4 1 4 5
M  V30 5 1 5 6
M  V30 6 1 6 7
M  V30 7 1 7 8
M  V30 8 1 8 9
M  V30 9 1 9 10
M  V30 10 1 10 11
M  V30 11 2 11 12
M  V30 12 1 12 13
M  V30 13 2 13 14
M  V30 14 1 14 15
M  V30 15 2 15 16
M  V30 16 1 6 17
M  V30 17 1 17 18
M  V30 18 2 18 19
M  V30 19 1 19 20
M  V30 20 1 20 21
M  V30 21 2 20 22
M  V30 22 1 22 23
M  V30 23 2 23 24
M  V30 24 1 23 25
M  V30 25 1 9 4
M  V30 26 1 16 11
M  V30 27 1 24 18
M  V30 28 1 1 26
M  V30 29 1 1 27
M  V30 30 1 1 28
M  V30 31 1 2 29
M  V30 32 1 2 30
M  V30 33 1 3 31
M  V30 34 1 3 32
M  V30 35 1 4 33
M  V30 36 1 5 34
M  V30 37 1 5 35
M  V30 38 1 7 36
M  V30 39 1 7 37
M  V30 40 1 8 38
M  V30 41 1 8 39
M  V30 42 1 10 40
M  V30 43 1 10 41
M  V30 44 1 12 42
M  V30 45 1 13 43
M  V30 46 1 14 44
M  V30 47 1 15 45
M  V30 48 1 16 46
M  V30 49 1 17 47
M  V30 50 1 17 48
M  V30 51 1 21 49
M  V30 52 1 21 50
M  V30 53 1 25 51
M  V30 54 1 25 52
M  V30 END BOND
M  V30 END CTAB
M  END
