
     RDKit          3D

  0  0  0  0  0  0  0  0  0  0999 V3000
M  V30 BEGIN CTAB
M  V30 COUNTS 48 50 0 0 0
M  V30 BEGIN ATOM
M  V30 1 C 0.477588 5.64021 0.216626 0
M  V30 2 C 0.343291 4.15051 0.371163 0
M  V30 3 C 0.788524 3.28627 -0.604172 0
M  V30 4 C 0.663905 1.90609 -0.459914 0
M  V30 5 C 0.0921975 1.34694 0.659983 0
M  V30 6 C -0.35191 2.21259 1.63315 0
M  V30 7 C -0.22997 3.59443 1.49448 0
M  V30 8 C -0.0573241 -0.112176 0.841279 0
M  V30 9 C -1.36266 -0.556352 0.36397 0
M  V30 10 C -1.87372 -0.284148 -0.884613 0
M  V30 11 C -3.11265 -0.731779 -1.29232 0
M  V30 12 C -3.66096 -0.434777 -2.64422 0
M  V30 13 C -3.91026 -1.48838 -0.446662 0
M  V30 14 N -5.19181 -1.96039 -0.847086 0
M  V30 15 C -3.42094 -1.77534 0.811473 0
M  V30 16 C -2.19846 -1.32069 1.18299 0
M  V30 17 C 1.0472 -0.926577 0.336537 0
M  V30 18 C 1.14196 -1.50991 -0.879682 0
M  V30 19 C 2.25693 -2.24567 -1.2119 0
M  V30 20 C 3.32832 -2.44262 -0.367723 0
M  V30 21 N 4.46849 -3.21145 -0.744842 0
M  V30 22 C 3.22551 -1.84651 0.867805 0
M  V30 23 C 4.36268 -2.03195 1.81766 0
M  V30 24 C 2.12251 -1.10876 1.21906 0
M  V30 25 H 0.346046 6.15461 1.17636 0
M  V30 26 H -0.208185 6.00618 -0.548674 0
M  V30 27 H 1.52545 5.89231 -0.117928 0
M  V30 28 H 1.24122 3.72241 -1.49164 0
M  V30 29 H 1.02235 1.27687 -1.24005 0
M  V30 30 H -0.807474 1.85614 2.53286 0
M  V30 31 H -0.574432 4.28429 2.25071 0
M  V30 32 H -0.0687881 -0.248972 1.9769 0
M  V30 33 H -1.29625 0.306529 -1.58797 0
M  V30 34 H -2.94134 0.149098 -3.22067 0
M  V30 35 H -3.82236 -1.40846 -3.17684 0
M  V30 36 H -4.65989 0.050127 -2.59937 0
M  V30 37 H -5.95017 -1.25202 -0.945889 0
M  V30 38 H -5.41226 -2.9423 -1.04199 0
M  V30 39 H -4.01948 -2.367 1.50289 0
M  V30 40 H -1.83584 -1.5573 2.17207 0
M  V30 41 H 0.354967 -1.40902 -1.60181 0
M  V30 42 H 2.34781 -2.7261 -2.19804 0
M  V30 43 H 5.44434 -2.97213 -0.423001 0
M  V30 44 H 4.39492 -4.04554 -1.3551 0
M  V30 45 H 3.92386 -2.23156 2.83317 0
M  V30 46 H 4.95911 -2.91544 1.55862 0
M  V30 47 H 4.99278 -1.11849 1.8884 0
M  V30 48 H 2.09517 -0.653798 2.22394 0
M  V30 END ATOM
M  V30 BEGIN BOND
M  V30 1 1 1 2
M  V30 2 2 2 3
M  V30 3 1 3 4
M  V30 4 2 4 5
M  V30 5 1 5 6
M  V30 6 2 6 7
M  V30 7 1 5 8
M  V30 8 1 8 9
M  V30 9 2 9 10
M  V30 10 1 10 11
M  V30 11 1 11 12
M  V30 12 2 11 13
M  V30 13 1 13 14
M  V30 14 1 13 15
M  V30 15 2 15 16
M  V30 16 1 8 17
M  V30 17 2 17 18
M  V30 18 1 18 19
M  V30 19 2 19 20
M  V30 20 1 20 21
M  V30 21 1 20 22
M  V30 22 1 22 23
M  V30 23 2 22 24
M  V30 24 1 7 2
M  V30 25 1 16 9
M  V30 26 1 24 17
M  V30 27 1 1 25
M  V30 28 1 1 26
M  V30 29 1 1 27
M  V30 30 1 3 28
M  V30 31 1 4 29
M  V30 32 1 6 30
M  V30 33 1 7 31
M  V30 34 1 8 32
M  V30 35 1 10 33
M  V30 36 1 12 34
M  V30 37 1 12 35
M  V30 38 1 12 36
M  V30 39 1 14 37
M  V30 40 1 14 38
M  V30 41 1 15 39
M  V30 42 1 16 40
M  V30 43 1 18 41
M  V30 44 1 19 42
M  V30 45 1 21 43
M  V30 46 1 21 44
M  V30 47 1 23 45
M  V30 48 1 23 46
M  V30 49 1 23 47
M  V30 50 1 24 48
M  V30 END BOND
M  V30 END CTAB
M  END
