
     RDKit          3D

  0  0  0  0  0  0  0  0  0  0999 V3000
M  V30 BEGIN CTAB
M  V30 COUNTS 36 38 0 0 0
M  V30 BEGIN ATOM
M  V30 1 C -5.15127 2.70383 0.803801 0
M  V30 2 S -4.61397 1.98342 -0.741215 0
M  V30 3 O -4.20271 3.00519 -1.7607 0
M  V30 4 C -3.40112 0.716285 -0.506501 0
M  V30 5 C -3.79177 -0.593363 -0.336176 0
M  V30 6 F -5.10109 -0.93618 -0.344626 0
M  V30 7 C -2.85979 -1.61394 -0.149122 0
M  V30 8 N -3.27589 -2.96856 0.026519 0
M  V30 9 C -1.50438 -1.32664 -0.130697 0
M  V30 10 C -0.577074 -2.33993 0.055115 0
M  V30 11 O -0.982555 -3.50099 0.203522 0
M  V30 12 C 0.771499 -1.99627 0.0651738 0
M  V30 13 C 1.12015 -0.683134 -0.1075 0
M  V30 14 O 0.174225 0.242161 -0.28153 0
M  V30 15 C -1.09736 -0.0246384 -0.299207 0
M  V30 16 C -2.05172 0.97571 -0.484351 0
M  V30 17 F -1.63954 2.24875 -0.648503 0
M  V30 18 C 2.52348 -0.30048 -0.100623 0
M  V30 19 C 3.56557 -1.17177 0.0698583 0
M  V30 20 C 4.89188 -0.733419 0.0653705 0
M  V30 21 C 5.19811 0.590863 -0.110728 0
M  V30 22 N 6.5567 1.04004 -0.115366 0
M  V30 23 C 4.14286 1.46273 -0.28187 0
M  V30 24 F 4.42444 2.79417 -0.460073 0
M  V30 25 C 2.84186 1.04153 -0.278724 0
M  V30 26 H -5.72607 3.61203 0.58918 0
M  V30 27 H -4.26284 2.94166 1.44598 0
M  V30 28 H -5.7694 1.97301 1.3692 0
M  V30 29 H -3.34563 -3.53249 -0.869224 0
M  V30 30 H -3.49786 -3.39426 0.935753 0
M  V30 31 H 1.47626 -2.7783 0.208109 0
M  V30 32 H 3.3763 -2.20753 0.209809 0
M  V30 33 H 5.69701 -1.43586 0.201285 0
M  V30 34 H 6.76095 1.87561 -0.693909 0
M  V30 35 H 7.30648 0.57796 0.416245 0
M  V30 36 H 2.02427 1.75279 -0.41643 0
M  V30 END ATOM
M  V30 BEGIN BOND
M  V30 1 1 1 2
M  V30 2 2 2 3
M  V30 3 1 2 4
M  V30 4 2 4 5
M  V30 5 1 5 6
M  V30 6 1 5 7
M  V30 7 1 7 8
M  V30 8 2 7 9
M  V30 9 1 9 10
M  V30 10 2 10 11
M  V30 11 1 10 12
M  V30 12 2 12 13
M  V30 13 1 13 14
M  V30 14 1 14 15
M  V30 15 2 15 16
M  V30 16 1 16 17
M  V30 17 1 13 18
M  V30 18 2 18 19
M  V30 19 1 19 20
M  V30 20 2 20 21
M  V30 21 1 21 22
M  V30 22 1 21 23
M  V30 23 1 23 24
M  V30 24 2 23 25
M  V30 25 1 16 4
M  V30 26 1 25 18
M  V30 27 1 15 9
M  V30 28 1 1 26
M  V30 29 1 1 27
M  V30 30 1 1 28
M  V30 31 1 8 29
M  V30 32 1 8 30
M  V30 33 1 12 31
M  V30 34 1 19 32
M  V30 35 1 20 33
M  V30 36 1 22 34
M  V30 37 1 22 35
M  V30 38 1 25 36
M  V30 END BOND
M  V30 END CTAB
M  END
