
     RDKit          3D

  0  0  0  0  0  0  0  0  0  0999 V3000
M  V30 BEGIN CTAB
M  V30 COUNTS 13 13 0 0 0
M  V30 BEGIN ATOM
M  V30 1 N -2.27512 0.651666 0.168659 0
M  V30 2 C -1.01041 0.0435341 -0.0163761 0
M  V30 3 C 0.19932 0.64405 0.252487 0
M  V30 4 C 1.18883 -0.273206 -0.0587648 0
M  V30 5 N 2.57947 -0.0520463 0.0733752 0
M  V30 6 N 0.556101 -1.3951 -0.504038 0
M  V30 7 N -0.749933 -1.19235 -0.473337 0
M  V30 8 H -2.4393 1.41805 0.831294 0
M  V30 9 H -3.07458 0.300581 -0.397632 0
M  V30 10 H 0.345482 1.66065 0.640988 0
M  V30 11 H 3.24647 -0.567998 -0.527775 0
M  V30 12 H 2.96037 0.61974 0.762549 0
M  V30 13 H -1.52669 -1.85758 -0.751428 0
M  V30 END ATOM
M  V30 BEGIN BOND
M  V30 1 1 1 2
M  V30 2 2 2 3
M  V30 3 1 3 4
M  V30 4 1 4 5
M  V30 5 2 4 6
M  V30 6 1 6 7
M  V30 7 1 7 2
M  V30 8 1 1 8
M  V30 9 1 1 9
M  V30 10 1 3 10
M  V30 11 1 5 11
M  V30 12 1 5 12
M  V30 13 1 7 13
M  V30 END BOND
M  V30 END CTAB
M  END
