
     RDKit          3D

  0  0  0  0  0  0  0  0  0  0999 V3000
M  V30 BEGIN CTAB
M  V30 COUNTS 61 64 0 0 0
M  V30 BEGIN ATOM
M  V30 1 C -1.95084 -3.20492 -2.62948 0
M  V30 2 C -1.83736 -3.39698 -1.12989 0
M  V30 3 N -2.34415 -2.24151 -0.453004 0
M  V30 4 C -1.49049 -1.17476 -0.209267 0
M  V30 5 C -0.1725 -0.939313 -0.502713 0
M  V30 6 C 0.409997 0.252412 -0.119912 0
M  V30 7 O 1.75648 0.413001 -0.457331 0
M  V30 8 C 2.40025 1.61978 -0.0862382 0
M  V30 9 C 3.83572 1.49881 -0.583768 0 CFG=2
M  V30 10 N 3.73093 1.32841 -2.03882 0
M  V30 11 C 4.3971 0.210129 -0.0104002 0
M  V30 12 C 5.79343 -0.0236839 -0.422373 0
M  V30 13 C 6.82599 0.449426 0.325099 0
M  V30 14 C 8.14305 0.215 -0.0859719 0
M  V30 15 C 8.42882 -0.488571 -1.23808 0
M  V30 16 C 7.38034 -0.960654 -1.98352 0
M  V30 17 C 6.06483 -0.724759 -1.57009 0
M  V30 18 N -0.275068 1.20231 0.537806 0
M  V30 19 C -1.55494 0.945225 0.80917 0
M  V30 20 C -2.32958 1.92478 1.50812 0
M  V30 21 C -2.99865 2.73638 2.09694 0
M  V30 22 C -3.81994 3.71297 2.82588 0
M  V30 23 C -3.24213 5.08488 2.61042 0
M  V30 24 C -5.24206 3.61585 2.33115 0
M  V30 25 O -3.78195 3.45038 4.19718 0
M  V30 26 C -2.20837 -0.227407 0.457017 0
M  V30 27 N -3.41553 -0.705337 0.599033 0
M  V30 28 C -3.53764 -1.97706 0.0351455 0
M  V30 29 C -4.8094 -2.67951 0.103618 0
M  V30 30 N -5.91158 -2.09585 0.733933 0
M  V30 31 O -6.91874 -2.87734 0.670791 0
M  V30 32 N -6.61238 -3.9512 0.0522385 0
M  V30 33 C -5.2725 -3.84647 -0.318489 0
M  V30 34 N -4.63769 -4.8785 -1.02907 0
M  V30 35 H -1.97373 -4.21437 -3.08792 0
M  V30 36 H -1.08578 -2.66252 -3.05815 0
M  V30 37 H -2.86742 -2.60922 -2.8572 0
M  V30 38 H -2.08776 -4.37131 -0.748993 0
M  V30 39 H -0.69002 -3.38854 -0.961368 0
M  V30 40 H 0.403324 -1.68991 -1.03405 0
M  V30 41 H 2.35884 1.80108 1.00296 0
M  V30 42 H 1.87999 2.43849 -0.657519 0
M  V30 43 H 4.42607 2.37353 -0.318367 0
M  V30 44 H 3.40142 0.393972 -2.29322 0
M  V30 45 H 3.18419 2.1079 -2.4654 0
M  V30 46 H 4.33306 0.269265 1.09552 0
M  V30 47 H 3.75041 -0.617731 -0.339074 0
M  V30 48 H 6.62368 0.999244 1.22495 0
M  V30 49 H 8.94669 0.601505 0.52556 0
M  V30 50 H 9.45979 -0.669839 -1.55623 0
M  V30 51 H 7.57869 -1.5162 -2.89261 0
M  V30 52 H 5.26593 -1.11211 -2.18295 0
M  V30 53 H -3.2701 5.42052 1.56423 0
M  V30 54 H -3.83883 5.80062 3.20566 0
M  V30 55 H -2.18062 5.04772 2.94958 0
M  V30 56 H -5.49311 2.54441 2.12294 0
M  V30 57 H -5.91205 3.94153 3.14894 0
M  V30 58 H -5.39461 4.16154 1.38478 0
M  V30 59 H -2.83877 3.23479 4.42282 0
M  V30 60 H -4.18285 -5.71523 -0.599713 0
M  V30 61 H -4.59986 -4.83504 -2.08337 0
M  V30 END ATOM
M  V30 BEGIN BOND
M  V30 1 1 1 2
M  V30 2 1 2 3
M  V30 3 1 3 4
M  V30 4 2 4 5
M  V30 5 1 5 6
M  V30 6 1 6 7
M  V30 7 1 7 8
M  V30 8 1 8 9
M  V30 9 1 9 10
M  V30 10 1 9 11
M  V30 11 1 11 12
M  V30 12 2 12 13
M  V30 13 1 13 14
M  V30 14 2 14 15
M  V30 15 1 15 16
M  V30 16 2 16 17
M  V30 17 2 6 18
M  V30 18 1 18 19
M  V30 19 1 19 20
M  V30 20 3 20 21
M  V30 21 1 21 22
M  V30 22 1 22 23
M  V30 23 1 22 24
M  V30 24 1 22 25
M  V30 25 2 19 26
M  V30 26 1 26 27
M  V30 27 2 27 28
M  V30 28 1 28 29
M  V30 29 2 29 30
M  V30 30 1 30 31
M  V30 31 1 31 32
M  V30 32 2 32 33
M  V30 33 1 33 34
M  V30 34 1 28 3
M  V30 35 1 33 29
M  V30 36 1 26 4
M  V30 37 1 17 12
M  V30 38 1 1 35
M  V30 39 1 1 36
M  V30 40 1 1 37
M  V30 41 1 2 38
M  V30 42 1 2 39
M  V30 43 1 5 40
M  V30 44 1 8 41
M  V30 45 1 8 42
M  V30 46 1 9 43 CFG=3
M  V30 47 1 10 44
M  V30 48 1 10 45
M  V30 49 1 11 46
M  V30 50 1 11 47
M  V30 51 1 13 48
M  V30 52 1 14 49
M  V30 53 1 15 50
M  V30 54 1 16 51
M  V30 55 1 17 52
M  V30 56 1 23 53
M  V30 57 1 23 54
M  V30 58 1 23 55
M  V30 59 1 24 56
M  V30 60 1 24 57
M  V30 61 1 24 58
M  V30 62 1 25 59
M  V30 63 1 34 60
M  V30 64 1 34 61
M  V30 END BOND
M  V30 END CTAB
M  END
