
     RDKit          3D

  0  0  0  0  0  0  0  0  0  0999 V3000
M  V30 BEGIN CTAB
M  V30 COUNTS 41 44 0 0 0
M  V30 BEGIN ATOM
M  V30 1 N 7.03218 -0.344886 -0.226033 0
M  V30 2 C 5.61501 -0.449063 -0.196367 0
M  V30 3 N 4.80806 0.620842 -0.12676 0
M  V30 4 C 3.45127 0.525393 -0.0981581 0
M  V30 5 N 2.67985 1.63016 -0.0277806 0
M  V30 6 C 1.35468 1.47858 -0.00257079 0
M  V30 7 C 0.749933 0.244374 -0.0454807 0
M  V30 8 C -0.729552 0.0711245 -0.0180508 0
M  V30 9 N -1.42463 1.17246 0.529593 0
M  V30 10 C -2.57032 1.57151 -0.235871 0
M  V30 11 C -3.56074 0.472468 -0.337846 0
M  V30 12 C -3.68898 -0.333237 -1.45531 0
M  V30 13 C -4.61775 -1.35104 -1.52133 0
M  V30 14 C -5.46243 -1.60609 -0.464293 0
M  V30 15 C -5.33232 -0.800941 0.648643 0
M  V30 16 C -4.4061 0.219998 0.724518 0
M  V30 17 C -0.653763 2.24994 1.0449 0
M  V30 18 C 0.43886 2.64761 0.0748381 0
M  V30 19 C 1.52679 -0.873724 -0.116601 0
M  V30 20 C 2.91403 -0.755142 -0.144852 0
M  V30 21 C 3.73247 -1.85759 -0.21626 0
M  V30 22 N 3.13003 -3.13603 -0.261266 0
M  V30 23 N 5.05478 -1.67206 -0.239814 0
M  V30 24 H 7.52403 0.263796 0.458013 0
M  V30 25 H 7.60752 -0.865312 -0.92053 0
M  V30 26 H -0.909218 -0.818437 0.655251 0
M  V30 27 H -1.04905 -0.249236 -1.02462 0
M  V30 28 H -2.25403 1.86478 -1.27564 0
M  V30 29 H -3.0242 2.50051 0.185764 0
M  V30 30 H -3.04942 -0.174959 -2.32047 0
M  V30 31 H -4.69193 -1.95939 -2.40459 0
M  V30 32 H -6.19526 -2.39867 -0.498912 0
M  V30 33 H -5.99174 -0.996071 1.48034 0
M  V30 34 H -4.39143 0.789343 1.64717 0
M  V30 35 H -1.299 3.12903 1.19649 0
M  V30 36 H -0.148895 1.93465 1.98092 0
M  V30 37 H 0.958424 3.56839 0.401415 0
M  V30 38 H -0.0336546 2.7695 -0.934221 0
M  V30 39 H 1.09118 -1.87063 -0.152533 0
M  V30 40 H 2.89013 -3.68874 0.594158 0
M  V30 41 H 2.9252 -3.5232 -1.22796 0
M  V30 END ATOM
M  V30 BEGIN BOND
M  V30 1 1 1 2
M  V30 2 2 2 3
M  V30 3 1 3 4
M  V30 4 2 4 5
M  V30 5 1 5 6
M  V30 6 2 6 7
M  V30 7 1 7 8
M  V30 8 1 8 9
M  V30 9 1 9 10
M  V30 10 1 10 11
M  V30 11 2 11 12
M  V30 12 1 12 13
M  V30 13 2 13 14
M  V30 14 1 14 15
M  V30 15 2 15 16
M  V30 16 1 9 17
M  V30 17 1 17 18
M  V30 18 1 7 19
M  V30 19 2 19 20
M  V30 20 1 20 21
M  V30 21 1 21 22
M  V30 22 2 21 23
M  V30 23 1 23 2
M  V30 24 1 20 4
M  V30 25 1 18 6
M  V30 26 1 16 11
M  V30 27 1 1 24
M  V30 28 1 1 25
M  V30 29 1 8 26
M  V30 30 1 8 27
M  V30 31 1 10 28
M  V30 32 1 10 29
M  V30 33 1 12 30
M  V30 34 1 13 31
M  V30 35 1 14 32
M  V30 36 1 15 33
M  V30 37 1 16 34
M  V30 38 1 17 35
M  V30 39 1 17 36
M  V30 40 1 18 37
M  V30 41 1 18 38
M  V30 42 1 19 39
M  V30 43 1 22 40
M  V30 44 1 22 41
M  V30 END BOND
M  V30 END CTAB
M  END
