
     RDKit          3D

  0  0  0  0  0  0  0  0  0  0999 V3000
M  V30 BEGIN CTAB
M  V30 COUNTS 25 25 0 0 0
M  V30 BEGIN ATOM
M  V30 1 N -3.88989 -0.511501 0.361945 0
M  V30 2 C -2.72588 -1.24805 -0.085492 0
M  V30 3 C -1.48557 -0.445722 0.0589789 0
M  V30 4 C -1.57074 0.820882 0.5667 0
M  V30 5 C -0.425226 1.55401 0.697038 0
M  V30 6 C 0.821255 1.02228 0.31817 0
M  V30 7 C 0.926973 -0.245675 -0.192928 0
M  V30 8 C -0.266531 -0.956147 -0.307802 0
M  V30 9 C 2.19355 -0.823343 -0.593478 0
M  V30 10 N 2.24562 -2.01727 -1.06741 0
M  V30 11 N 3.45629 -0.165925 -0.511408 0
M  V30 12 C 2.03968 1.87026 0.484206 0
M  V30 13 H -4.18257 0.181239 -0.37388 0
M  V30 14 H -4.63692 -1.22241 0.544997 0
M  V30 15 H -2.67086 -2.20255 0.477418 0
M  V30 16 H -2.84754 -1.43977 -1.17707 0
M  V30 17 H -2.54632 1.24889 0.867862 0
M  V30 18 H -0.475848 2.5711 1.10228 0
M  V30 19 H -0.196586 -1.96824 -0.713772 0
M  V30 20 H 1.50397 -2.67302 -1.22145 0
M  V30 21 H 4.0617 -0.226279 0.334247 0
M  V30 22 H 3.80425 0.393496 -1.31888 0
M  V30 23 H 2.50973 2.17112 -0.450997 0
M  V30 24 H 1.66333 2.85305 0.933294 0
M  V30 25 H 2.69413 1.45957 1.26744 0
M  V30 END ATOM
M  V30 BEGIN BOND
M  V30 1 1 1 2
M  V30 2 1 2 3
M  V30 3 2 3 4
M  V30 4 1 4 5
M  V30 5 2 5 6
M  V30 6 1 6 7
M  V30 7 2 7 8
M  V30 8 1 7 9
M  V30 9 2 9 10 CFG=2
M  V30 10 1 9 11
M  V30 11 1 6 12
M  V30 12 1 8 3
M  V30 13 1 1 13
M  V30 14 1 1 14
M  V30 15 1 2 15
M  V30 16 1 2 16
M  V30 17 1 4 17
M  V30 18 1 5 18
M  V30 19 1 8 19
M  V30 20 1 10 20
M  V30 21 1 11 21
M  V30 22 1 11 22
M  V30 23 1 12 23
M  V30 24 1 12 24
M  V30 25 1 12 25
M  V30 END BOND
M  V30 END CTAB
M  END
