
     RDKit          3D

  0  0  0  0  0  0  0  0  0  0999 V3000
M  V30 BEGIN CTAB
M  V30 COUNTS 56 60 0 0 0
M  V30 BEGIN ATOM
M  V30 1 O 1.34575 2.51935 -2.09536 0
M  V30 2 C 1.87359 1.84498 -1.19134 0
M  V30 3 C 3.17044 2.1449 -0.549351 0
M  V30 4 N 3.55529 0.776889 -0.140357 0
M  V30 5 C 2.35253 0.036204 0.0181795 0
M  V30 6 C 1.32369 0.64266 -0.595668 0
M  V30 7 C -0.0617855 0.162377 -0.634989 0
M  V30 8 N -1.13464 0.961121 -0.547543 0
M  V30 9 C -2.27256 0.243401 -0.613855 0
M  V30 10 C -1.90147 -1.07406 -0.750167 0
M  V30 11 N -0.547385 -1.07728 -0.758256 0
M  V30 12 C -2.85545 -2.07964 -0.845082 0
M  V30 13 C -4.2053 -1.70992 -0.797379 0
M  V30 14 C -4.6204 -0.408583 -0.662177 0
M  V30 15 C -3.61183 0.538703 -0.573803 0
M  V30 16 N -5.97384 -0.075656 -0.621496 0
M  V30 17 C -6.45539 1.27659 -0.303241 0
M  V30 18 C -7.79846 1.04998 0.409766 0
M  V30 19 C -7.76743 -0.191552 1.26703 0
M  V30 20 C -7.52661 -1.4602 0.491318 0
M  V30 21 C -7.01192 -1.03062 -0.892271 0
M  V30 22 N 2.21771 -1.1829 0.730812 0
M  V30 23 C 4.91253 0.404181 0.0366484 0
M  V30 24 C 5.90157 1.39645 0.000757179 0
M  V30 25 C 7.24061 1.10824 0.161132 0
M  V30 26 C 7.66868 -0.184902 0.366188 0
M  V30 27 C 6.72514 -1.16091 0.404002 0
M  V30 28 C 5.36636 -0.867093 0.241006 0
M  V30 29 S 9.3858 -0.446122 0.555928 0
M  V30 30 O 10.1315 0.642814 -0.172499 0
M  V30 31 O 9.79375 -1.81554 0.0952526 0
M  V30 32 N 9.75964 -0.267914 2.2427 0
M  V30 33 H 3.87403 2.4608 -1.34723 0
M  V30 34 H 3.09848 2.82187 0.303249 0
M  V30 35 H 0.0396861 -1.94187 -0.849506 0
M  V30 36 H -2.55916 -3.10741 -0.952291 0
M  V30 37 H -4.89798 -2.55208 -0.871755 0
M  V30 38 H -3.90886 1.57 -0.467224 0
M  V30 39 H -6.69482 1.80501 -1.22954 0
M  V30 40 H -5.80834 1.79693 0.400589 0
M  V30 41 H -8.63085 1.06286 -0.301066 0
M  V30 42 H -7.9761 1.89963 1.10601 0
M  V30 43 H -8.77631 -0.284833 1.71591 0
M  V30 44 H -7.00923 -0.0194411 2.06277 0
M  V30 45 H -6.64184 -1.96628 0.979119 0
M  V30 46 H -8.39587 -2.1252 0.419247 0
M  V30 47 H -6.66174 -1.90674 -1.44165 0
M  V30 48 H -7.85569 -0.570519 -1.47154 0
M  V30 49 H 2.05271 -1.2687 1.75595 0
M  V30 50 H 2.28875 -2.0695 0.187258 0
M  V30 51 H 5.62193 2.43302 -0.156971 0
M  V30 52 H 7.95304 1.90942 0.124325 0
M  V30 53 H 7.04152 -2.1953 0.565597 0
M  V30 54 H 4.65264 -1.67582 0.274045 0
M  V30 55 H 10.7948 -0.357412 2.34771 0
M  V30 56 H 9.41911 0.664144 2.57111 0
M  V30 END ATOM
M  V30 BEGIN BOND
M  V30 1 2 1 2
M  V30 2 1 2 3
M  V30 3 1 3 4
M  V30 4 1 4 5
M  V30 5 2 5 6
M  V30 6 1 6 7
M  V30 7 2 7 8
M  V30 8 1 8 9
M  V30 9 2 9 10
M  V30 10 1 10 11
M  V30 11 1 10 12
M  V30 12 2 12 13
M  V30 13 1 13 14
M  V30 14 2 14 15
M  V30 15 1 14 16
M  V30 16 1 16 17
M  V30 17 1 17 18
M  V30 18 1 18 19
M  V30 19 1 19 20
M  V30 20 1 20 21
M  V30 21 1 5 22
M  V30 22 1 4 23
M  V30 23 2 23 24
M  V30 24 1 24 25
M  V30 25 2 25 26
M  V30 26 1 26 27
M  V30 27 2 27 28
M  V30 28 1 26 29
M  V30 29 2 29 30
M  V30 30 2 29 31
M  V30 31 1 29 32
M  V30 32 1 6 2
M  V30 33 1 11 7
M  V30 34 1 21 16
M  V30 35 1 28 23
M  V30 36 1 15 9
M  V30 37 1 3 33
M  V30 38 1 3 34
M  V30 39 1 11 35
M  V30 40 1 12 36
M  V30 41 1 13 37
M  V30 42 1 15 38
M  V30 43 1 17 39
M  V30 44 1 17 40
M  V30 45 1 18 41
M  V30 46 1 18 42
M  V30 47 1 19 43
M  V30 48 1 19 44
M  V30 49 1 20 45
M  V30 50 1 20 46
M  V30 51 1 21 47
M  V30 52 1 21 48
M  V30 53 1 22 49
M  V30 54 1 22 50
M  V30 55 1 24 51
M  V30 56 1 25 52
M  V30 57 1 27 53
M  V30 58 1 28 54
M  V30 59 1 32 55
M  V30 60 1 32 56
M  V30 END BOND
M  V30 END CTAB
M  END
