
     RDKit          3D

  0  0  0  0  0  0  0  0  0  0999 V3000
M  V30 BEGIN CTAB
M  V30 COUNTS 48 49 0 0 0
M  V30 BEGIN ATOM
M  V30 1 N -2.40788 -3.53683 0.642901 0
M  V30 2 C -1.2967 -3.52707 -0.270573 0
M  V30 3 C -1.10742 -2.2182 -0.979871 0
M  V30 4 N -0.866292 -1.08785 -0.147275 0
M  V30 5 C 0.31362 -0.545358 0.339628 0
M  V30 6 O 0.132333 0.521998 1.07137 0
M  V30 7 C 1.71261 -0.925182 0.198969 0
M  V30 8 C 2.19418 -2.02488 -0.448047 0
M  V30 9 C 3.54908 -2.3088 -0.554012 0
M  V30 10 C 4.4741 -1.46451 0.00760077 0
M  V30 11 C 4.00102 -0.357824 0.659898 0
M  V30 12 C 2.67679 -0.0827449 0.761714 0
M  V30 13 C 4.98598 0.588776 1.28732 0
M  V30 14 S 5.402 1.79801 0.0679887 0
M  V30 15 O 4.16654 2.50334 -0.404677 0
M  V30 16 O 6.02657 1.10689 -1.10364 0
M  V30 17 N 6.53781 2.92358 0.72915 0
M  V30 18 C -2.10086 -0.337738 0.293739 0
M  V30 19 C -2.40677 0.73621 -0.694785 0
M  V30 20 C -3.61182 1.51414 -0.320855 0
M  V30 21 C -4.88722 1.1672 -0.730975 0
M  V30 22 C -5.96458 1.94818 -0.337805 0
M  V30 23 C -5.79924 3.06481 0.453324 0
M  V30 24 C -4.51345 3.41806 0.86919 0
M  V30 25 C -3.45663 2.63278 0.470297 0
M  V30 26 H -2.2898 -4.20733 1.40797 0
M  V30 27 H -3.27224 -3.7377 0.0923127 0
M  V30 28 H -1.50789 -4.28865 -1.05013 0
M  V30 29 H -0.34592 -3.85428 0.214335 0
M  V30 30 H -2.09305 -2.06181 -1.56283 0
M  V30 31 H -0.389391 -2.32749 -1.78672 0
M  V30 32 H 1.52058 -2.72152 -0.894107 0
M  V30 33 H 3.91463 -3.18469 -1.07071 0
M  V30 34 H 5.51169 -1.68838 -0.0775003 0
M  V30 35 H 2.35469 0.826195 1.29995 0
M  V30 36 H 4.472 1.10652 2.14424 0
M  V30 37 H 5.86822 0.0418708 1.6202 0
M  V30 38 H 6.78131 3.62967 0.00339473 0
M  V30 39 H 6.18132 3.36178 1.59719 0
M  V30 40 H -1.85625 0.0987389 1.27194 0
M  V30 41 H -2.94539 -1.01795 0.355943 0
M  V30 42 H -2.60062 0.26365 -1.69672 0
M  V30 43 H -1.56463 1.44029 -0.858981 0
M  V30 44 H -5.02564 0.308553 -1.34084 0
M  V30 45 H -6.9493 1.66326 -0.666197 0
M  V30 46 H -6.65914 3.64113 0.734764 0
M  V30 47 H -4.38457 4.29339 1.48927 0
M  V30 48 H -2.47441 2.90779 0.791533 0
M  V30 END ATOM
M  V30 BEGIN BOND
M  V30 1 1 1 2
M  V30 2 1 2 3
M  V30 3 1 3 4
M  V30 4 1 4 5
M  V30 5 2 5 6
M  V30 6 1 5 7
M  V30 7 2 7 8
M  V30 8 1 8 9
M  V30 9 2 9 10
M  V30 10 1 10 11
M  V30 11 2 11 12
M  V30 12 1 11 13
M  V30 13 1 13 14
M  V30 14 2 14 15
M  V30 15 2 14 16
M  V30 16 1 14 17
M  V30 17 1 4 18
M  V30 18 1 18 19
M  V30 19 1 19 20
M  V30 20 2 20 21
M  V30 21 1 21 22
M  V30 22 2 22 23
M  V30 23 1 23 24
M  V30 24 2 24 25
M  V30 25 1 12 7
M  V30 26 1 25 20
M  V30 27 1 1 26
M  V30 28 1 1 27
M  V30 29 1 2 28
M  V30 30 1 2 29
M  V30 31 1 3 30
M  V30 32 1 3 31
M  V30 33 1 8 32
M  V30 34 1 9 33
M  V30 35 1 10 34
M  V30 36 1 12 35
M  V30 37 1 13 36
M  V30 38 1 13 37
M  V30 39 1 17 38
M  V30 40 1 17 39
M  V30 41 1 18 40
M  V30 42 1 18 41
M  V30 43 1 19 42
M  V30 44 1 19 43
M  V30 45 1 21 44
M  V30 46 1 22 45
M  V30 47 1 23 46
M  V30 48 1 24 47
M  V30 49 1 25 48
M  V30 END BOND
M  V30 END CTAB
M  END
