
     RDKit          3D

  0  0  0  0  0  0  0  0  0  0999 V3000
M  V30 BEGIN CTAB
M  V30 COUNTS 48 51 0 0 0
M  V30 BEGIN ATOM
M  V30 1 N 8.86282 1.11673 0.667756 0
M  V30 2 C 7.73852 0.268221 0.457474 0
M  V30 3 C 7.30764 0.102117 -0.842629 0
M  V30 4 C 6.22536 -0.708485 -1.09437 0
M  V30 5 C 5.57359 -1.35102 -0.0630924 0
M  V30 6 O 4.49273 -2.15207 -0.37986 0
M  V30 7 C 3.21685 -1.57894 -0.408468 0
M  V30 8 C 3.01708 -0.242502 -0.128672 0
M  V30 9 C 1.78103 0.350641 -0.147886 0
M  V30 10 C 0.658179 -0.407883 -0.461178 0
M  V30 11 C 0.845363 -1.74499 -0.74257 0
M  V30 12 C 2.09811 -2.32364 -0.717992 0
M  V30 13 C -0.661685 0.224414 -0.483211 0
M  V30 14 C -1.81086 -0.46787 -0.160603 0
M  V30 15 C -3.06043 0.133729 -0.182654 0
M  V30 16 C -3.20505 1.45964 -0.530999 0
M  V30 17 O -4.44851 2.09187 -0.562298 0
M  V30 18 C -5.56262 1.33732 -0.228487 0
M  V30 19 C -6.30032 0.61973 -1.14502 0
M  V30 20 C -7.39128 -0.0978779 -0.707726 0
M  V30 21 C -7.76416 -0.117375 0.619917 0
M  V30 22 N -8.88384 -0.854623 1.06237 0
M  V30 23 C -7.03279 0.597605 1.54746 0
M  V30 24 C -5.92188 1.33145 1.11812 0
M  V30 25 C -2.0522 2.14647 -0.852449 0
M  V30 26 C -0.806127 1.55544 -0.832941 0
M  V30 27 C 6.01065 -1.17924 1.23012 0
M  V30 28 C 7.09111 -0.372647 1.50183 0
M  V30 29 H 9.60365 1.18357 -0.0769403 0
M  V30 30 H 8.96565 1.67312 1.54617 0
M  V30 31 H 7.80527 0.600335 -1.68632 0
M  V30 32 H 5.87095 -0.850996 -2.12244 0
M  V30 33 H 3.88719 0.351241 0.115429 0
M  V30 34 H 1.62518 1.40475 0.0731443 0
M  V30 35 H -0.0329243 -2.35252 -0.990977 0
M  V30 36 H 2.24784 -3.37197 -0.937924 0
M  V30 37 H -1.696 -1.51411 0.114143 0
M  V30 38 H -3.94745 -0.430484 0.074542 0
M  V30 39 H -6.01764 0.628135 -2.18545 0
M  V30 40 H -7.97932 -0.665769 -1.41571 0
M  V30 41 H -8.99777 -1.87705 0.819743 0
M  V30 42 H -9.64706 -0.440255 1.64242 0
M  V30 43 H -7.29301 0.607535 2.59637 0
M  V30 44 H -5.35734 1.88888 1.86193 0
M  V30 45 H -2.1524 3.18776 -1.12752 0
M  V30 46 H 0.103192 2.11698 -1.09198 0
M  V30 47 H 5.52114 -1.66882 2.05694 0
M  V30 48 H 7.47355 -0.206525 2.51199 0
M  V30 END ATOM
M  V30 BEGIN BOND
M  V30 1 1 1 2
M  V30 2 2 2 3
M  V30 3 1 3 4
M  V30 4 2 4 5
M  V30 5 1 5 6
M  V30 6 1 6 7
M  V30 7 2 7 8
M  V30 8 1 8 9
M  V30 9 2 9 10
M  V30 10 1 10 11
M  V30 11 2 11 12
M  V30 12 1 10 13
M  V30 13 2 13 14
M  V30 14 1 14 15
M  V30 15 2 15 16
M  V30 16 1 16 17
M  V30 17 1 17 18
M  V30 18 2 18 19
M  V30 19 1 19 20
M  V30 20 2 20 21
M  V30 21 1 21 22
M  V30 22 1 21 23
M  V30 23 2 23 24
M  V30 24 1 16 25
M  V30 25 2 25 26
M  V30 26 1 5 27
M  V30 27 2 27 28
M  V30 28 1 28 2
M  V30 29 1 12 7
M  V30 30 1 26 13
M  V30 31 1 24 18
M  V30 32 1 1 29
M  V30 33 1 1 30
M  V30 34 1 3 31
M  V30 35 1 4 32
M  V30 36 1 8 33
M  V30 37 1 9 34
M  V30 38 1 11 35
M  V30 39 1 12 36
M  V30 40 1 14 37
M  V30 41 1 15 38
M  V30 42 1 19 39
M  V30 43 1 20 40
M  V30 44 1 22 41
M  V30 45 1 22 42
M  V30 46 1 23 43
M  V30 47 1 24 44
M  V30 48 1 25 45
M  V30 49 1 26 46
M  V30 50 1 27 47
M  V30 51 1 28 48
M  V30 END BOND
M  V30 END CTAB
M  END
