
     RDKit          3D

  0  0  0  0  0  0  0  0  0  0999 V3000
M  V30 BEGIN CTAB
M  V30 COUNTS 33 35 0 0 0
M  V30 BEGIN ATOM
M  V30 1 N -1.44792 -3.01967 -0.863304 0
M  V30 2 C -0.120756 -3.20935 -0.402767 0
M  V30 3 N 0.60539 -4.35089 -0.462435 0
M  V30 4 O 1.76206 -4.15945 0.0514306 0
M  V30 5 N 1.83957 -2.93239 0.453676 0
M  V30 6 C 0.657427 -2.26934 0.188525 0
M  V30 7 N 0.480684 -0.909186 0.525646 0
M  V30 8 C -0.589863 -0.493112 1.36223 0
M  V30 9 C -1.65028 0.312048 0.744231 0
M  V30 10 C -1.60852 0.670247 -0.558737 0
M  V30 11 C -2.60326 1.43977 -1.11972 0
M  V30 12 C -3.66676 1.85121 -0.323378 0
M  V30 13 C -3.72133 1.49092 1.01214 0
M  V30 14 C -2.69941 0.713495 1.54437 0
M  V30 15 Cl -2.82932 0.29344 3.23817 0
M  V30 16 N 1.3893 0.0115618 0.0345729 0
M  V30 17 N 2.49045 0.11744 0.607502 0
M  V30 18 C 3.54278 0.969423 0.286699 0
M  V30 19 N 4.72875 1.03415 0.908949 0
M  V30 20 O 5.48484 1.94302 0.352421 0
M  V30 21 N 4.83362 2.48912 -0.628317 0
M  V30 22 C 3.59955 1.91058 -0.714166 0
M  V30 23 N 2.58615 2.21645 -1.64278 0
M  V30 24 H -1.61589 -2.84825 -1.87503 0
M  V30 25 H -2.27391 -3.04395 -0.22955 0
M  V30 26 H -1.04287 -1.40076 1.89186 0
M  V30 27 H -0.211498 0.151834 2.22889 0
M  V30 28 H -0.80153 0.358393 -1.1863 0
M  V30 29 H -2.56611 1.72425 -2.16181 0
M  V30 30 H -4.42022 2.44749 -0.793873 0
M  V30 31 H -4.56667 1.83646 1.58198 0
M  V30 32 H 1.61666 2.5115 -1.38959 0
M  V30 33 H 2.81889 2.14356 -2.66153 0
M  V30 END ATOM
M  V30 BEGIN BOND
M  V30 1 1 1 2
M  V30 2 2 2 3
M  V30 3 1 3 4
M  V30 4 1 4 5
M  V30 5 2 5 6
M  V30 6 1 6 7
M  V30 7 1 7 8
M  V30 8 1 8 9
M  V30 9 2 9 10
M  V30 10 1 10 11
M  V30 11 2 11 12
M  V30 12 1 12 13
M  V30 13 2 13 14
M  V30 14 1 14 15
M  V30 15 1 7 16
M  V30 16 2 16 17
M  V30 17 1 17 18
M  V30 18 2 18 19
M  V30 19 1 19 20
M  V30 20 1 20 21
M  V30 21 2 21 22
M  V30 22 1 22 23
M  V30 23 1 6 2
M  V30 24 1 14 9
M  V30 25 1 22 18
M  V30 26 1 1 24
M  V30 27 1 1 25
M  V30 28 1 8 26
M  V30 29 1 8 27
M  V30 30 1 10 28
M  V30 31 1 11 29
M  V30 32 1 12 30
M  V30 33 1 13 31
M  V30 34 1 23 32
M  V30 35 1 23 33
M  V30 END BOND
M  V30 END CTAB
M  END
