
     RDKit          3D

  0  0  0  0  0  0  0  0  0  0999 V3000
M  V30 BEGIN CTAB
M  V30 COUNTS 37 38 0 0 0
M  V30 BEGIN ATOM
M  V30 1 N -3.77852 -1.25563 1.49807 0
M  V30 2 C -2.96265 -0.666237 0.45932 0
M  V30 3 C -1.69397 -0.0457131 1.00185 0
M  V30 4 N -1.30145 0.885428 -0.026867 0
M  V30 5 C -2.48697 1.31537 -0.701701 0
M  V30 6 C -3.65079 0.534807 -0.15237 0
M  V30 7 C -4.62221 0.127238 -1.23948 0
M  V30 8 S -0.191984 0.206092 -1.15188 0
M  V30 9 O -0.892113 -0.961356 -1.81865 0
M  V30 10 O 0.0044709 1.23978 -2.2486 0
M  V30 11 C 1.28952 -0.292883 -0.447584 0
M  V30 12 C 1.43495 -1.56758 0.0366625 0
M  V30 13 C 2.6397 -1.98934 0.614763 0
M  V30 14 C 3.68262 -1.10571 0.692297 0
M  V30 15 C 3.56558 0.164337 0.219884 0
M  V30 16 C 2.35411 0.569357 -0.354972 0
M  V30 17 S 4.89081 1.28155 0.320244 0
M  V30 18 O 5.70419 1.00898 1.54881 0
M  V30 19 O 4.35511 2.69835 0.425252 0
M  V30 20 N 5.90745 1.22449 -1.06372 0
M  V30 21 H -3.98877 -0.624079 2.27463 0
M  V30 22 H -3.32909 -2.15747 1.763 0
M  V30 23 H -2.76961 -1.44571 -0.296637 0
M  V30 24 H -1.96708 0.549665 1.90052 0
M  V30 25 H -0.929896 -0.779459 1.2622 0
M  V30 26 H -2.41931 1.08836 -1.79126 0
M  V30 27 H -2.69754 2.39581 -0.585345 0
M  V30 28 H -4.18173 1.0522 0.663658 0
M  V30 29 H -4.08105 -0.00645825 -2.19291 0
M  V30 30 H -5.39005 0.919899 -1.3042 0
M  V30 31 H -5.12603 -0.806953 -0.971305 0
M  V30 32 H 0.652814 -2.31264 0.00641266 0
M  V30 33 H 2.74216 -2.99538 0.992502 0
M  V30 34 H 4.60217 -1.47883 1.15089 0
M  V30 35 H 2.32793 1.58947 -0.709906 0
M  V30 36 H 6.85317 0.836248 -0.860764 0
M  V30 37 H 5.45406 0.804016 -1.88877 0
M  V30 END ATOM
M  V30 BEGIN BOND
M  V30 1 1 1 2
M  V30 2 1 2 3
M  V30 3 1 3 4
M  V30 4 1 4 5
M  V30 5 1 5 6
M  V30 6 1 6 7
M  V30 7 1 4 8
M  V30 8 2 8 9
M  V30 9 2 8 10
M  V30 10 1 8 11
M  V30 11 2 11 12
M  V30 12 1 12 13
M  V30 13 2 13 14
M  V30 14 1 14 15
M  V30 15 2 15 16
M  V30 16 1 15 17
M  V30 17 2 17 18
M  V30 18 2 17 19
M  V30 19 1 17 20
M  V30 20 1 6 2
M  V30 21 1 16 11
M  V30 22 1 1 21
M  V30 23 1 1 22
M  V30 24 1 2 23
M  V30 25 1 3 24
M  V30 26 1 3 25
M  V30 27 1 5 26
M  V30 28 1 5 27
M  V30 29 1 6 28
M  V30 30 1 7 29
M  V30 31 1 7 30
M  V30 32 1 7 31
M  V30 33 1 12 32
M  V30 34 1 13 33
M  V30 35 1 14 34
M  V30 36 1 16 35
M  V30 37 1 20 36
M  V30 38 1 20 37
M  V30 END BOND
M  V30 END CTAB
M  END
