
     RDKit          3D

  0  0  0  0  0  0  0  0  0  0999 V3000
M  V30 BEGIN CTAB
M  V30 COUNTS 31 31 0 0 0
M  V30 BEGIN ATOM
M  V30 1 C 4.51342 1.05373 1.41716 0
M  V30 2 C 3.607 0.878136 0.469062 0
M  V30 3 C 3.15165 -0.451575 0.0385703 0
M  V30 4 C 1.64917 -0.646385 0.241579 0
M  V30 5 N 0.938074 0.34093 -0.524564 0
M  V30 6 C -0.4737 0.466454 -0.525337 0
M  V30 7 C -1.1015 1.39919 -1.32586 0
M  V30 8 C -2.48277 1.519 -1.31814 0
M  V30 9 C -3.27464 0.715725 -0.515461 0
M  V30 10 C -2.6531 -0.21939 0.287845 0
M  V30 11 C -1.27331 -0.325009 0.267318 0
M  V30 12 N -3.44956 -1.06442 1.12913 0
M  V30 13 N -4.69427 0.812565 -0.483512 0
M  V30 14 C 1.30453 -2.0206 -0.305323 0
M  V30 15 H 4.94021 0.162946 1.89948 0
M  V30 16 H 4.85715 2.02767 1.74322 0
M  V30 17 H 3.19154 1.75751 -0.000906741 0
M  V30 18 H 3.64672 -1.23193 0.680121 0
M  V30 19 H 3.38369 -0.600909 -1.04074 0
M  V30 20 H 1.40882 -0.618181 1.31598 0
M  V30 21 H 1.48711 1.01118 -1.12016 0
M  V30 22 H -0.48186 2.02748 -1.95371 0
M  V30 23 H -2.95049 2.25455 -1.95176 0
M  V30 24 H -0.853696 -1.08734 0.932767 0
M  V30 25 H -3.17096 -1.39649 2.0663 0
M  V30 26 H -4.3777 -1.36308 0.763455 0
M  V30 27 H -5.29475 0.150716 -1.03003 0
M  V30 28 H -5.17354 1.5565 0.0940341 0
M  V30 29 H 1.00696 -2.66439 0.544329 0
M  V30 30 H 2.18073 -2.5011 -0.79758 0
M  V30 31 H 0.439079 -1.9435 -0.997267 0
M  V30 END ATOM
M  V30 BEGIN BOND
M  V30 1 2 1 2 CFG=2
M  V30 2 1 2 3
M  V30 3 1 3 4
M  V30 4 1 4 5
M  V30 5 1 5 6
M  V30 6 2 6 7
M  V30 7 1 7 8
M  V30 8 2 8 9
M  V30 9 1 9 10
M  V30 10 2 10 11
M  V30 11 1 10 12
M  V30 12 1 9 13
M  V30 13 1 4 14
M  V30 14 1 11 6
M  V30 15 1 1 15
M  V30 16 1 1 16
M  V30 17 1 2 17
M  V30 18 1 3 18
M  V30 19 1 3 19
M  V30 20 1 4 20
M  V30 21 1 5 21
M  V30 22 1 7 22
M  V30 23 1 8 23
M  V30 24 1 11 24
M  V30 25 1 12 25
M  V30 26 1 12 26
M  V30 27 1 13 27
M  V30 28 1 13 28
M  V30 29 1 14 29
M  V30 30 1 14 30
M  V30 31 1 14 31
M  V30 END BOND
M  V30 END CTAB
M  END
