
     RDKit          3D

  0  0  0  0  0  0  0  0  0  0999 V3000
M  V30 BEGIN CTAB
M  V30 COUNTS 18 18 0 0 0
M  V30 BEGIN ATOM
M  V30 1 C -2.80157 -0.712097 -0.0255325 0
M  V30 2 O -1.64086 0.060836 -0.130766 0
M  V30 3 C -0.395091 -0.541642 -0.0335468 0
M  V30 4 O -0.37494 -1.76889 0.146701 0
M  V30 5 C 0.871835 0.226442 -0.137318 0
M  V30 6 C 0.890053 1.55623 -0.33234 0
M  V30 7 N -0.269928 2.39681 -0.463885 0
M  V30 8 N 2.09135 2.14038 -0.409586 0
M  V30 9 S 3.18923 0.883847 -0.217432 0
M  V30 10 C 2.08642 -0.400167 -0.0367838 0
M  V30 11 N 2.3466 -1.80328 0.170968 0
M  V30 12 H -2.60057 -1.8058 -0.0315634 0
M  V30 13 H -3.39307 -0.511312 0.886517 0
M  V30 14 H -3.50581 -0.50937 -0.884318 0
M  V30 15 H -0.660558 2.69003 -1.37525 0
M  V30 16 H -0.719765 2.71202 0.405006 0
M  V30 17 H 2.11875 -2.26289 1.07578 0
M  V30 18 H 2.76793 -2.35113 -0.602513 0
M  V30 END ATOM
M  V30 BEGIN BOND
M  V30 1 1 1 2
M  V30 2 1 2 3
M  V30 3 2 3 4
M  V30 4 1 3 5
M  V30 5 1 5 6
M  V30 6 1 6 7
M  V30 7 2 6 8
M  V30 8 1 8 9
M  V30 9 1 9 10
M  V30 10 1 10 11
M  V30 11 2 10 5
M  V30 12 1 1 12
M  V30 13 1 1 13
M  V30 14 1 1 14
M  V30 15 1 7 15
M  V30 16 1 7 16
M  V30 17 1 11 17
M  V30 18 1 11 18
M  V30 END BOND
M  V30 END CTAB
M  END
