
     RDKit          3D

  0  0  0  0  0  0  0  0  0  0999 V3000
M  V30 BEGIN CTAB
M  V30 COUNTS 40 41 0 0 0
M  V30 BEGIN ATOM
M  V30 1 C -8.80867 -0.0402761 0.448979 0
M  V30 2 C -7.52387 0.0377221 -0.38675 0
M  V30 3 O -6.4726 -0.265737 0.508456 0
M  V30 4 C -5.13643 -0.30876 0.1691 0
M  V30 5 O -4.851 -0.0521079 -1.04924 0
M  V30 6 C -4.06272 -0.629605 1.1304 0
M  V30 7 C -2.71517 -0.59667 0.455568 0
M  V30 8 C -1.87285 0.48115 0.321461 0
M  V30 9 N -0.752893 0.292106 -0.296339 0
M  V30 10 C -0.450014 -0.900297 -0.772597 0
M  V30 11 S -1.82715 -1.8264 -0.326903 0
M  V30 12 N 0.733837 -1.32613 -1.48494 0
M  V30 13 C 1.76339 -0.406832 -1.74812 0
M  V30 14 O 2.78789 -0.827437 -2.38345 0
M  V30 15 C 1.75149 1.01436 -1.34453 0
M  V30 16 S 3.27258 1.85074 -1.89794 0
M  V30 17 C 4.65978 1.13656 -0.986581 0
M  V30 18 N 5.9196 1.55208 -1.18188 0
M  V30 19 C 6.98346 1.0487 -0.523081 0
M  V30 20 N 8.31533 1.49077 -0.731545 0
M  V30 21 C 6.74825 0.0383073 0.412768 0
M  V30 22 C 5.46084 -0.402105 0.62756 0
M  V30 23 N 4.46425 0.1633 -0.0800558 0
M  V30 24 N 5.24648 -1.42322 1.57806 0
M  V30 25 H -8.86355 -1.09185 0.852079 0
M  V30 26 H -8.65824 0.601161 1.33905 0
M  V30 27 H -9.69475 0.221955 -0.139997 0
M  V30 28 H -7.42541 1.10567 -0.712807 0
M  V30 29 H -7.58145 -0.640105 -1.24228 0
M  V30 30 H -4.18384 -1.61899 1.60292 0
M  V30 31 H -4.02335 0.124621 1.92143 0
M  V30 32 H -2.15208 1.48035 0.733311 0
M  V30 33 H 0.823908 -2.31502 -1.80653 0
M  V30 34 H 0.913071 1.58268 -1.78763 0
M  V30 35 H 1.66583 1.13574 -0.225634 0
M  V30 36 H 8.83429 2.02778 -0.0278048 0
M  V30 37 H 8.77009 1.25455 -1.63608 0
M  V30 38 H 7.60754 -0.357395 0.934591 0
M  V30 39 H 5.14287 -2.40121 1.25663 0
M  V30 40 H 5.19127 -1.21014 2.58834 0
M  V30 END ATOM
M  V30 BEGIN BOND
M  V30 1 1 1 2
M  V30 2 1 2 3
M  V30 3 1 3 4
M  V30 4 2 4 5
M  V30 5 1 4 6
M  V30 6 1 6 7
M  V30 7 2 7 8
M  V30 8 1 8 9
M  V30 9 2 9 10
M  V30 10 1 10 11
M  V30 11 1 10 12
M  V30 12 1 12 13
M  V30 13 2 13 14
M  V30 14 1 13 15
M  V30 15 1 15 16
M  V30 16 1 16 17
M  V30 17 2 17 18
M  V30 18 1 18 19
M  V30 19 1 19 20
M  V30 20 2 19 21
M  V30 21 1 21 22
M  V30 22 2 22 23
M  V30 23 1 22 24
M  V30 24 1 11 7
M  V30 25 1 23 17
M  V30 26 1 1 25
M  V30 27 1 1 26
M  V30 28 1 1 27
M  V30 29 1 2 28
M  V30 30 1 2 29
M  V30 31 1 6 30
M  V30 32 1 6 31
M  V30 33 1 8 32
M  V30 34 1 12 33
M  V30 35 1 15 34
M  V30 36 1 15 35
M  V30 37 1 20 36
M  V30 38 1 20 37
M  V30 39 1 21 38
M  V30 40 1 24 39
M  V30 41 1 24 40
M  V30 END BOND
M  V30 END CTAB
M  END
