
     RDKit          3D

  0  0  0  0  0  0  0  0  0  0999 V3000
M  V30 BEGIN CTAB
M  V30 COUNTS 67 70 0 0 0
M  V30 BEGIN ATOM
M  V30 1 N 9.249 3.75415 -1.83751 0
M  V30 2 C 8.49902 2.65169 -1.35979 0
M  V30 3 N 7.18391 2.52258 -1.53431 0
M  V30 4 C 6.50605 1.45039 -1.06003 0
M  V30 5 O 5.26976 1.40506 -1.26677 0
M  V30 6 N 7.10869 0.466353 -0.394761 0
M  V30 7 C 8.43868 0.556871 -0.19579 0
M  V30 8 C 9.14992 1.63338 -0.666216 0
M  V30 9 C 6.34248 -0.662747 0.0948495 0 CFG=2
M  V30 10 O 5.38003 -1.09247 -0.797038 0
M  V30 11 C 4.62036 -1.97616 -0.0261826 0 CFG=2
M  V30 12 C 3.36623 -2.39056 -0.730687 0
M  V30 13 O 2.55563 -1.27234 -1.01713 0
M  V30 14 P 1.14454 -1.74524 -1.81061 0
M  V30 15 O 0.537948 -0.423874 -2.67567 0
M  V30 16 O 1.39415 -2.93429 -2.70254 0
M  V30 17 O 0.0216684 -2.19486 -0.631906 0
M  V30 18 P -0.508961 -0.843693 0.252972 0
M  V30 19 O -0.55156 0.529235 -0.73197 0
M  V30 20 O 0.52843 -0.590262 1.32291 0
M  V30 21 O -1.99994 -1.1158 0.966379 0
M  V30 22 C -2.93485 -0.133894 0.6271 0
M  V30 23 C -4.27208 -0.392624 1.27697 0 CFG=1
M  V30 24 O -5.1756 0.577932 0.934246 0
M  V30 25 C -6.45574 0.0334508 1.04347 0 CFG=2
M  V30 26 C -6.33676 -1.36403 0.559559 0 CFG=2
M  V30 27 O -7.10081 -2.27463 1.28847 0
M  V30 28 C -4.87933 -1.69338 0.852747 0 CFG=2
M  V30 29 O -4.76014 -2.58386 1.92203 0
M  V30 30 N -7.34422 0.875582 0.322751 0
M  V30 31 C -6.88993 1.57707 -0.7334 0
M  V30 32 C -7.71135 2.41463 -1.47397 0
M  V30 33 C -9.04322 2.54794 -1.13349 0
M  V30 34 N -9.94097 3.38382 -1.84284 0
M  V30 35 N -9.47255 1.83551 -0.0730923 0
M  V30 36 C -8.65277 1.03109 0.626397 0
M  V30 37 O -9.05549 0.367285 1.61545 0
M  V30 38 C 4.32215 -1.12794 1.19589 0 CFG=1
M  V30 39 O 4.04837 -1.89882 2.31571 0
M  V30 40 C 5.60824 -0.344933 1.37179 0 CFG=1
M  V30 41 O 6.31154 -0.847168 2.44522 0
M  V30 42 H 8.96866 4.72826 -1.60661 0
M  V30 43 H 10.0839 3.60646 -2.42121 0
M  V30 44 H 8.93063 -0.259155 0.354434 0
M  V30 45 H 10.2232 1.72073 -0.513674 0
M  V30 46 H 7.06659 -1.51322 0.241237 0
M  V30 47 H 5.17923 -2.89461 0.235312 0
M  V30 48 H 3.66132 -2.89021 -1.67559 0
M  V30 49 H 2.83438 -3.12656 -0.119879 0
M  V30 50 H 1.1725 0.325533 -2.69565 0
M  V30 51 H 0.223764 1.09763 -0.601923 0
M  V30 52 H -2.52356 0.825272 0.994744 0
M  V30 53 H -3.0418 -0.0367792 -0.473022 0
M  V30 54 H -4.13087 -0.334508 2.38994 0
M  V30 55 H -6.72544 -0.00339073 2.13373 0
M  V30 56 H -6.46976 -1.48546 -0.532194 0
M  V30 57 H -6.63495 -3.15071 1.27098 0
M  V30 58 H -4.37142 -2.14037 -0.0306847 0
M  V30 59 H -3.90177 -3.0571 1.82587 0
M  V30 60 H -5.83648 1.50378 -1.04317 0
M  V30 61 H -7.3609 2.98348 -2.3236 0
M  V30 62 H -10.3897 3.01986 -2.70626 0
M  V30 63 H -10.1768 4.35022 -1.54315 0
M  V30 64 H 3.46162 -0.482078 0.955973 0
M  V30 65 H 3.44902 -1.39582 2.89143 0
M  V30 66 H 5.39952 0.726792 1.4964 0
M  V30 67 H 6.40868 -1.82851 2.29265 0
M  V30 END ATOM
M  V30 BEGIN BOND
M  V30 1 1 1 2
M  V30 2 2 2 3
M  V30 3 1 3 4
M  V30 4 2 4 5
M  V30 5 1 4 6
M  V30 6 1 6 7
M  V30 7 2 7 8
M  V30 8 1 6 9
M  V30 9 1 9 10
M  V30 10 1 10 11
M  V30 11 1 11 12
M  V30 12 1 12 13
M  V30 13 1 13 14
M  V30 14 1 14 15
M  V30 15 2 14 16
M  V30 16 1 14 17
M  V30 17 1 17 18
M  V30 18 1 18 19
M  V30 19 2 18 20
M  V30 20 1 18 21
M  V30 21 1 21 22
M  V30 22 1 22 23
M  V30 23 1 23 24
M  V30 24 1 24 25
M  V30 25 1 25 26
M  V30 26 1 26 27
M  V30 27 1 26 28
M  V30 28 1 28 29
M  V30 29 1 25 30
M  V30 30 1 30 31
M  V30 31 2 31 32
M  V30 32 1 32 33
M  V30 33 1 33 34
M  V30 34 2 33 35
M  V30 35 1 35 36
M  V30 36 2 36 37
M  V30 37 1 11 38
M  V30 38 1 38 39
M  V30 39 1 38 40
M  V30 40 1 40 41
M  V30 41 1 8 2
M  V30 42 1 40 9
M  V30 43 1 28 23
M  V30 44 1 36 30
M  V30 45 1 1 42
M  V30 46 1 1 43
M  V30 47 1 7 44
M  V30 48 1 8 45
M  V30 49 1 9 46 CFG=1
M  V30 50 1 11 47 CFG=1
M  V30 51 1 12 48
M  V30 52 1 12 49
M  V30 53 1 15 50
M  V30 54 1 19 51
M  V30 55 1 22 52
M  V30 56 1 22 53
M  V30 57 1 23 54 CFG=1
M  V30 58 1 25 55 CFG=1
M  V30 59 1 26 56 CFG=3
M  V30 60 1 27 57
M  V30 61 1 28 58 CFG=3
M  V30 62 1 29 59
M  V30 63 1 31 60
M  V30 64 1 32 61
M  V30 65 1 34 62
M  V30 66 1 34 63
M  V30 67 1 38 64 CFG=3
M  V30 68 1 39 65
M  V30 69 1 40 66 CFG=1
M  V30 70 1 41 67
M  V30 END BOND
M  V30 END CTAB
M  END
