
     RDKit          3D

  0  0  0  0  0  0  0  0  0  0999 V3000
M  V30 BEGIN CTAB
M  V30 COUNTS 47 48 0 0 0
M  V30 BEGIN ATOM
M  V30 1 C -2.71766 -1.95419 -1.5065 0
M  V30 2 C -3.58168 -1.09109 -0.59244 0
M  V30 3 C -3.16118 0.357292 -0.612901 0
M  V30 4 C -4.06983 1.11951 0.308484 0
M  V30 5 C -3.59986 2.53413 0.549428 0
M  V30 6 C -2.50505 2.84207 -0.429405 0
M  V30 7 C -1.36347 1.86476 -0.137934 0
M  V30 8 N -1.7792 0.48346 -0.260872 0
M  V30 9 C -1.43661 -0.299599 0.88453 0
M  V30 10 C 0.0306707 -0.216306 1.26007 0
M  V30 11 O 0.81957 -0.668232 0.193364 0
M  V30 12 C 2.18326 -0.731768 0.183503 0
M  V30 13 C 2.95364 -0.343438 1.26187 0
M  V30 14 C 4.33032 -0.436872 1.17708 0
M  V30 15 C 4.98556 -0.904008 0.0567305 0
M  V30 16 C 4.21084 -1.29057 -1.0177 0
M  V30 17 C 2.82585 -1.20141 -0.944728 0
M  V30 18 S 6.73487 -0.987937 0.0382281 0
M  V30 19 O 7.13236 -2.10855 -0.880937 0
M  V30 20 O 7.18178 -1.30504 1.43694 0
M  V30 21 N 7.45013 0.454534 -0.547145 0
M  V30 22 N -4.94359 -1.24132 -1.13584 0
M  V30 23 H -2.57067 -2.91483 -0.958142 0
M  V30 24 H -1.71443 -1.46547 -1.66922 0
M  V30 25 H -3.1968 -2.19308 -2.45708 0
M  V30 26 H -3.65138 -1.4954 0.436477 0
M  V30 27 H -3.35568 0.741084 -1.65569 0
M  V30 28 H -5.08537 1.22227 -0.177721 0
M  V30 29 H -4.23488 0.64213 1.27406 0
M  V30 30 H -4.41903 3.27754 0.462827 0
M  V30 31 H -3.12804 2.57115 1.56734 0
M  V30 32 H -2.0749 3.85697 -0.283355 0
M  V30 33 H -2.82178 2.6739 -1.47229 0
M  V30 34 H -1.10895 2.05909 0.932151 0
M  V30 35 H -0.526681 2.15734 -0.764039 0
M  V30 36 H -2.03303 0.121934 1.74681 0
M  V30 37 H -1.67955 -1.35802 0.849341 0
M  V30 38 H 0.257403 0.780874 1.63485 0
M  V30 39 H 0.191128 -0.906025 2.14307 0
M  V30 40 H 2.45315 0.0249627 2.14737 0
M  V30 41 H 4.93958 -0.13246 2.02325 0
M  V30 42 H 4.72706 -1.65786 -1.89863 0
M  V30 43 H 2.22106 -1.50525 -1.78892 0
M  V30 44 H 8.39184 0.564432 -0.115842 0
M  V30 45 H 6.80645 1.25411 -0.327965 0
M  V30 46 H -4.94779 -0.918552 -2.12773 0
M  V30 47 H -5.11942 -2.27627 -1.16093 0
M  V30 END ATOM
M  V30 BEGIN BOND
M  V30 1 1 1 2
M  V30 2 1 2 3
M  V30 3 1 3 4
M  V30 4 1 4 5
M  V30 5 1 5 6
M  V30 6 1 6 7
M  V30 7 1 7 8
M  V30 8 1 8 9
M  V30 9 1 9 10
M  V30 10 1 10 11
M  V30 11 1 11 12
M  V30 12 2 12 13
M  V30 13 1 13 14
M  V30 14 2 14 15
M  V30 15 1 15 16
M  V30 16 2 16 17
M  V30 17 1 15 18
M  V30 18 2 18 19
M  V30 19 2 18 20
M  V30 20 1 18 21
M  V30 21 1 2 22
M  V30 22 1 8 3
M  V30 23 1 17 12
M  V30 24 1 1 23
M  V30 25 1 1 24
M  V30 26 1 1 25
M  V30 27 1 2 26
M  V30 28 1 3 27
M  V30 29 1 4 28
M  V30 30 1 4 29
M  V30 31 1 5 30
M  V30 32 1 5 31
M  V30 33 1 6 32
M  V30 34 1 6 33
M  V30 35 1 7 34
M  V30 36 1 7 35
M  V30 37 1 9 36
M  V30 38 1 9 37
M  V30 39 1 10 38
M  V30 40 1 10 39
M  V30 41 1 13 40
M  V30 42 1 14 41
M  V30 43 1 16 42
M  V30 44 1 17 43
M  V30 45 1 21 44
M  V30 46 1 21 45
M  V30 47 1 22 46
M  V30 48 1 22 47
M  V30 END BOND
M  V30 END CTAB
M  END
