
     RDKit          3D

  0  0  0  0  0  0  0  0  0  0999 V3000
M  V30 BEGIN CTAB
M  V30 COUNTS 35 34 0 0 0
M  V30 BEGIN ATOM
M  V30 1 C 2.67502 1.85751 1.56386 0
M  V30 2 O 1.63871 1.50336 0.703748 0
M  V30 3 C 1.7031 0.187807 0.318368 0
M  V30 4 C 0.608943 -0.257594 -0.613226 0
M  V30 5 C -0.772029 -0.138135 -0.0720487 0
M  V30 6 C -1.03854 -0.9169 1.19242 0
M  V30 7 N -2.4437 -0.660453 1.56819 0
M  V30 8 C -1.2164 1.26211 0.200878 0
M  V30 9 C -1.21417 2.16149 -1.00014 0
M  V30 10 C -1.8014 -0.705473 -1.07674 0
M  V30 11 C 0.992386 -1.59732 -1.17441 0
M  V30 12 N 0.975559 -2.69347 -0.279351 0
M  V30 13 O 0.756322 0.605715 -1.75207 0
M  V30 14 H 3.66893 1.70052 1.06289 0
M  V30 15 H 2.56447 2.92051 1.84011 0
M  V30 16 H 2.68196 1.25855 2.48872 0
M  V30 17 H 2.66017 0.0795602 -0.27303 0
M  V30 18 H 1.83213 -0.509236 1.17317 0
M  V30 19 H -0.401042 -0.494032 1.99003 0
M  V30 20 H -0.963847 -1.99279 1.12502 0
M  V30 21 H -3.05641 -1.43618 1.29068 0
M  V30 22 H -2.52842 -0.510391 2.58403 0
M  V30 23 H -0.743028 1.75989 1.05776 0
M  V30 24 H -2.30605 1.17366 0.510016 0
M  V30 25 H -0.269493 2.74739 -1.09072 0
M  V30 26 H -2.01425 2.9359 -0.865601 0
M  V30 27 H -1.47714 1.63057 -1.93665 0
M  V30 28 H -2.78859 -0.233227 -0.931317 0
M  V30 29 H -1.47626 -0.549055 -2.10375 0
M  V30 30 H -1.93131 -1.79405 -0.904046 0
M  V30 31 H 2.07123 -1.47373 -1.50037 0
M  V30 32 H 0.464605 -1.79943 -2.13789 0
M  V30 33 H 0.950734 -3.57243 -0.801389 0
M  V30 34 H 1.76023 -2.59727 0.399979 0
M  V30 35 H 0.437572 0.146597 -2.55711 0
M  V30 END ATOM
M  V30 BEGIN BOND
M  V30 1 1 1 2
M  V30 2 1 2 3
M  V30 3 1 3 4
M  V30 4 1 4 5
M  V30 5 1 5 6
M  V30 6 1 6 7
M  V30 7 1 5 8
M  V30 8 1 8 9
M  V30 9 1 5 10
M  V30 10 1 4 11
M  V30 11 1 11 12
M  V30 12 1 4 13
M  V30 13 1 1 14
M  V30 14 1 1 15
M  V30 15 1 1 16
M  V30 16 1 3 17
M  V30 17 1 3 18
M  V30 18 1 6 19
M  V30 19 1 6 20
M  V30 20 1 7 21
M  V30 21 1 7 22
M  V30 22 1 8 23
M  V30 23 1 8 24
M  V30 24 1 9 25
M  V30 25 1 9 26
M  V30 26 1 9 27
M  V30 27 1 10 28
M  V30 28 1 10 29
M  V30 29 1 10 30
M  V30 30 1 11 31
M  V30 31 1 11 32
M  V30 32 1 12 33
M  V30 33 1 12 34
M  V30 34 1 13 35
M  V30 END BOND
M  V30 END CTAB
M  END
