
     RDKit          3D

  0  0  0  0  0  0  0  0  0  0999 V3000
M  V30 BEGIN CTAB
M  V30 COUNTS 19 19 0 0 0
M  V30 BEGIN ATOM
M  V30 1 N -2.07741 1.6677 -0.17549 0
M  V30 2 C -1.53238 0.317456 -0.16821 0
M  V30 3 N -2.3877 -0.584637 -0.307901 0
M  V30 4 N -2.19296 -1.92416 -0.341687 0
M  V30 5 C -0.118699 0.10209 -0.00978185 0
M  V30 6 C 0.503631 -1.10392 0.0127523 0
M  V30 7 C 1.89373 -1.17672 0.174443 0
M  V30 8 C 2.63665 -0.0464612 0.31053 0
M  V30 9 C 2.03792 1.19277 0.292211 0
M  V30 10 C 0.684277 1.25296 0.134306 0
M  V30 11 F 0.0874636 2.49492 0.116332 0
M  V30 12 Br 3.08646 2.79421 0.484542 0
M  V30 13 H -2.07555 2.14977 -1.07231 0
M  V30 14 H -2.42924 2.06687 0.690341 0
M  V30 15 H -2.22266 -2.48474 0.544254 0
M  V30 16 H -2.01491 -2.45094 -1.22852 0
M  V30 17 H 0.0151335 -2.05787 -0.085695 0
M  V30 18 H 2.37936 -2.15755 0.190339 0
M  V30 19 H 3.72688 -0.0517676 0.439541 0
M  V30 END ATOM
M  V30 BEGIN BOND
M  V30 1 1 1 2
M  V30 2 2 2 3
M  V30 3 1 3 4
M  V30 4 1 2 5
M  V30 5 2 5 6
M  V30 6 1 6 7
M  V30 7 2 7 8
M  V30 8 1 8 9
M  V30 9 2 9 10
M  V30 10 1 10 11
M  V30 11 1 9 12
M  V30 12 1 10 5
M  V30 13 1 1 13
M  V30 14 1 1 14
M  V30 15 1 4 15
M  V30 16 1 4 16
M  V30 17 1 6 17
M  V30 18 1 7 18
M  V30 19 1 8 19
M  V30 END BOND
M  V30 END CTAB
M  END
