
     RDKit          3D

  0  0  0  0  0  0  0  0  0  0999 V3000
M  V30 BEGIN CTAB
M  V30 COUNTS 19 20 0 0 0
M  V30 BEGIN ATOM
M  V30 1 N -3.19656 -0.35272 -0.291557 0
M  V30 2 N -1.99426 -1.00211 -0.0609348 0
M  V30 3 C -0.800259 -0.26045 -0.0748801 0
M  V30 4 N -0.799052 1.06126 -0.306365 0
M  V30 5 C 0.338938 1.78019 -0.321763 0
M  V30 6 N 0.270107 3.18401 -0.574452 0
M  V30 7 N 1.48629 1.13538 -0.0972855 0
M  V30 8 C 1.54224 -0.199863 0.142121 0
M  V30 9 C 0.379272 -0.935617 0.158039 0
M  V30 10 N 0.716652 -2.21018 0.414154 0
M  V30 11 C 2.05076 -2.32123 0.563241 0
M  V30 12 N 2.52817 -1.07655 0.391534 0
M  V30 13 H -4.00848 -0.797787 0.188408 0
M  V30 14 H -3.09573 0.652807 -0.117701 0
M  V30 15 H -2.04072 -2.03036 0.114739 0
M  V30 16 H -0.53554 3.75516 -0.252837 0
M  V30 17 H 1.03762 3.66468 -1.09271 0
M  V30 18 H 2.58946 -3.23949 0.77648 0
M  V30 19 H 3.5311 -0.807131 0.441768 0
M  V30 END ATOM
M  V30 BEGIN BOND
M  V30 1 1 1 2
M  V30 2 1 2 3
M  V30 3 2 3 4
M  V30 4 1 4 5
M  V30 5 1 5 6
M  V30 6 2 5 7
M  V30 7 1 7 8
M  V30 8 2 8 9
M  V30 9 1 9 10
M  V30 10 2 10 11
M  V30 11 1 11 12
M  V30 12 1 9 3
M  V30 13 1 12 8
M  V30 14 1 1 13
M  V30 15 1 1 14
M  V30 16 1 2 15
M  V30 17 1 6 16
M  V30 18 1 6 17
M  V30 19 1 11 18
M  V30 20 1 12 19
M  V30 END BOND
M  V30 END CTAB
M  END
