
     RDKit          3D

  0  0  0  0  0  0  0  0  0  0999 V3000
M  V30 BEGIN CTAB
M  V30 COUNTS 52 54 0 0 0
M  V30 BEGIN ATOM
M  V30 1 C -1.34782 -2.87743 -1.78038 0
M  V30 2 C -1.72359 -1.58389 -2.43401 0
M  V30 3 N -2.3252 -0.633016 -1.52638 0
M  V30 4 C -1.6248 0.271029 -0.821108 0
M  V30 5 S 0.165855 0.511675 -0.832652 0
M  V30 6 C 0.590009 1.86365 0.299913 0
M  V30 7 C 2.09845 1.99859 0.229397 0
M  V30 8 O 2.48756 3.12241 -0.15146 0
M  V30 9 N 2.86377 0.892647 0.584804 0
M  V30 10 C 4.28005 0.826168 0.585296 0
M  V30 11 C 5.11721 1.8829 0.338022 0
M  V30 12 C 6.50886 1.68994 0.35926 0
M  V30 13 C 7.0673 0.461203 0.623278 0
M  V30 14 C 6.23683 -0.621667 0.876474 0
M  V30 15 C 4.89878 -0.404242 0.848861 0
M  V30 16 S 6.92389 -2.19358 1.21475 0
M  V30 17 O 8.22267 -2.32845 0.466677 0
M  V30 18 O 5.94882 -3.22864 0.714361 0
M  V30 19 N 7.17056 -2.34628 2.92157 0
M  V30 20 C -0.0254248 3.14842 -0.155988 0
M  V30 21 N -2.51787 0.969164 -0.0986749 0
M  V30 22 C -3.77819 0.529764 -0.327427 0
M  V30 23 C -3.63444 -0.50795 -1.25448 0
M  V30 24 C -4.78746 -1.15431 -1.67795 0
M  V30 25 C -6.00756 -0.786494 -1.20446 0
M  V30 26 C -6.14515 0.245064 -0.283578 0
M  V30 27 C -5.01513 0.892765 0.143914 0
M  V30 28 S -7.75072 0.679433 0.295649 0
M  V30 29 O -8.76565 0.45525 -0.764941 0
M  V30 30 O -7.78655 2.14307 0.69118 0
M  V30 31 N -8.06927 -0.275716 1.70039 0
M  V30 32 H -0.253882 -3.12271 -1.91569 0
M  V30 33 H -1.87588 -3.70996 -2.33129 0
M  V30 34 H -1.54421 -2.91844 -0.706109 0
M  V30 35 H -0.801479 -1.12679 -2.89035 0
M  V30 36 H -2.42789 -1.7159 -3.28061 0
M  V30 37 H 0.289772 1.57873 1.33492 0
M  V30 38 H 2.33822 0.00930962 0.888197 0
M  V30 39 H 4.72611 2.86912 0.129901 0
M  V30 40 H 7.14019 2.53486 0.161961 0
M  V30 41 H 8.13433 0.28854 0.645007 0
M  V30 42 H 4.25999 -1.25605 1.04746 0
M  V30 43 H 8.05209 -2.89863 3.10734 0
M  V30 44 H 6.39675 -2.96997 3.2779 0
M  V30 45 H -0.888287 2.92963 -0.851255 0
M  V30 46 H -0.468807 3.72178 0.693251 0
M  V30 47 H 0.660743 3.78708 -0.753409 0
M  V30 48 H -4.68809 -1.96162 -2.39773 0
M  V30 49 H -6.88239 -1.32212 -1.56531 0
M  V30 50 H -5.11199 1.69074 0.855038 0
M  V30 51 H -7.33548 -0.0733979 2.4093 0
M  V30 52 H -8.99564 0.0243165 2.07018 0
M  V30 END ATOM
M  V30 BEGIN BOND
M  V30 1 1 1 2
M  V30 2 1 2 3
M  V30 3 1 3 4
M  V30 4 1 4 5
M  V30 5 1 5 6
M  V30 6 1 6 7
M  V30 7 2 7 8
M  V30 8 1 7 9
M  V30 9 1 9 10
M  V30 10 2 10 11
M  V30 11 1 11 12
M  V30 12 2 12 13
M  V30 13 1 13 14
M  V30 14 2 14 15
M  V30 15 1 14 16
M  V30 16 2 16 17
M  V30 17 2 16 18
M  V30 18 1 16 19
M  V30 19 1 6 20
M  V30 20 2 4 21
M  V30 21 1 21 22
M  V30 22 2 22 23
M  V30 23 1 23 24
M  V30 24 2 24 25
M  V30 25 1 25 26
M  V30 26 2 26 27
M  V30 27 1 26 28
M  V30 28 2 28 29
M  V30 29 2 28 30
M  V30 30 1 28 31
M  V30 31 1 23 3
M  V30 32 1 15 10
M  V30 33 1 27 22
M  V30 34 1 1 32
M  V30 35 1 1 33
M  V30 36 1 1 34
M  V30 37 1 2 35
M  V30 38 1 2 36
M  V30 39 1 6 37
M  V30 40 1 9 38
M  V30 41 1 11 39
M  V30 42 1 12 40
M  V30 43 1 13 41
M  V30 44 1 15 42
M  V30 45 1 19 43
M  V30 46 1 19 44
M  V30 47 1 20 45
M  V30 48 1 20 46
M  V30 49 1 20 47
M  V30 50 1 24 48
M  V30 51 1 25 49
M  V30 52 1 27 50
M  V30 53 1 31 51
M  V30 54 1 31 52
M  V30 END BOND
M  V30 END CTAB
M  END
