
     RDKit          3D

  0  0  0  0  0  0  0  0  0  0999 V3000
M  V30 BEGIN CTAB
M  V30 COUNTS 59 61 0 0 0
M  V30 BEGIN ATOM
M  V30 1 C 6.81612 -1.53303 0.698113 0
M  V30 2 C 6.59986 -0.703081 -0.544794 0
M  V30 3 C 5.24207 -0.946134 -1.16752 0
M  V30 4 C 4.12784 -0.585076 -0.179339 0
M  V30 5 C 2.83655 -0.866885 -0.873807 0
M  V30 6 C 1.60451 -0.575668 -0.0596729 0
M  V30 7 C 1.57562 0.877738 0.291197 0
M  V30 8 C 0.331605 1.20885 1.1358 0
M  V30 9 N -0.859797 0.862015 0.3659 0
M  V30 10 C -1.20677 1.63022 -0.809176 0
M  V30 11 C -1.54978 3.02231 -0.51966 0
M  V30 12 C -1.9564 3.40426 0.736693 0
M  V30 13 C -2.29459 4.73581 1.00339 0
M  V30 14 C -2.22105 5.67244 0.00475011 0
M  V30 15 Cl -2.64769 7.34133 0.336326 0
M  V30 16 C -1.81643 5.3093 -1.25763 0
M  V30 17 C -1.48656 3.98504 -1.49791 0
M  V30 18 C -1.66637 -0.194159 0.787023 0
M  V30 19 C -2.5354 -0.851042 -0.0618133 0
M  V30 20 C -3.35954 -1.90124 0.370386 0
M  V30 21 C -3.29088 -2.27986 1.68061 0
M  V30 22 C -2.44052 -1.66008 2.58091 0
M  V30 23 C -1.64593 -0.620929 2.09106 0
M  V30 24 N -4.05082 -3.2816 2.13299 0
M  V30 25 C -4.87252 -3.9054 1.30221 0
M  V30 26 N -5.67963 -4.98933 1.80628 0
M  V30 27 N -4.95113 -3.54345 0.0130887 0
M  V30 28 C -4.20434 -2.5329 -0.507578 0
M  V30 29 N -4.30771 -2.16698 -1.87459 0
M  V30 30 H 7.84843 -1.96259 0.727455 0
M  V30 31 H 6.1283 -2.40543 0.715349 0
M  V30 32 H 6.69475 -0.892269 1.57536 0
M  V30 33 H 7.42197 -0.865664 -1.26693 0
M  V30 34 H 6.64405 0.368439 -0.235907 0
M  V30 35 H 5.16721 -2.01002 -1.41055 0
M  V30 36 H 5.19597 -0.314714 -2.06775 0
M  V30 37 H 4.19699 0.456072 0.141901 0
M  V30 38 H 4.23514 -1.24742 0.702037 0
M  V30 39 H 2.79259 -0.265523 -1.82569 0
M  V30 40 H 2.84872 -1.93577 -1.22683 0
M  V30 41 H 0.738039 -0.861923 -0.714875 0
M  V30 42 H 1.61592 -1.23697 0.84339 0
M  V30 43 H 1.62013 1.46296 -0.629626 0
M  V30 44 H 2.4449 1.10083 0.938451 0
M  V30 45 H 0.456026 0.644317 2.04673 0
M  V30 46 H 0.382548 2.29766 1.28303 0
M  V30 47 H -0.293231 1.58477 -1.48018 0
M  V30 48 H -2.01356 1.13023 -1.35003 0
M  V30 49 H -2.03647 2.72528 1.56337 0
M  V30 50 H -2.61734 5.0579 1.98161 0
M  V30 51 H -1.77367 6.08302 -2.01075 0
M  V30 52 H -1.17014 3.73228 -2.50446 0
M  V30 53 H -2.61496 -0.596061 -1.10931 0
M  V30 54 H -2.40414 -1.97471 3.60283 0
M  V30 55 H -1.0067 -0.137275 2.80351 0
M  V30 56 H -5.17881 -5.89856 2.03316 0
M  V30 57 H -6.70578 -4.88532 1.94148 0
M  V30 58 H -5.20506 -1.80191 -2.22315 0
M  V30 59 H -3.50216 -2.2641 -2.50504 0
M  V30 END ATOM
M  V30 BEGIN BOND
M  V30 1 1 1 2
M  V30 2 1 2 3
M  V30 3 1 3 4
M  V30 4 1 4 5
M  V30 5 1 5 6
M  V30 6 1 6 7
M  V30 7 1 7 8
M  V30 8 1 8 9
M  V30 9 1 9 10
M  V30 10 1 10 11
M  V30 11 2 11 12
M  V30 12 1 12 13
M  V30 13 2 13 14
M  V30 14 1 14 15
M  V30 15 1 14 16
M  V30 16 2 16 17
M  V30 17 1 9 18
M  V30 18 2 18 19
M  V30 19 1 19 20
M  V30 20 2 20 21
M  V30 21 1 21 22
M  V30 22 2 22 23
M  V30 23 1 21 24
M  V30 24 2 24 25
M  V30 25 1 25 26
M  V30 26 1 25 27
M  V30 27 2 27 28
M  V30 28 1 28 29
M  V30 29 1 17 11
M  V30 30 1 23 18
M  V30 31 1 28 20
M  V30 32 1 1 30
M  V30 33 1 1 31
M  V30 34 1 1 32
M  V30 35 1 2 33
M  V30 36 1 2 34
M  V30 37 1 3 35
M  V30 38 1 3 36
M  V30 39 1 4 37
M  V30 40 1 4 38
M  V30 41 1 5 39
M  V30 42 1 5 40
M  V30 43 1 6 41
M  V30 44 1 6 42
M  V30 45 1 7 43
M  V30 46 1 7 44
M  V30 47 1 8 45
M  V30 48 1 8 46
M  V30 49 1 10 47
M  V30 50 1 10 48
M  V30 51 1 12 49
M  V30 52 1 13 50
M  V30 53 1 16 51
M  V30 54 1 17 52
M  V30 55 1 19 53
M  V30 56 1 22 54
M  V30 57 1 23 55
M  V30 58 1 26 56
M  V30 59 1 26 57
M  V30 60 1 29 58
M  V30 61 1 29 59
M  V30 END BOND
M  V30 END CTAB
M  END
