
     RDKit          3D

  0  0  0  0  0  0  0  0  0  0999 V3000
M  V30 BEGIN CTAB
M  V30 COUNTS 24 24 0 0 0
M  V30 BEGIN ATOM
M  V30 1 N -3.16378 1.08774 0.62467 0
M  V30 2 C -2.66617 -0.249039 0.276927 0
M  V30 3 C -1.39697 -0.109456 -0.536294 0
M  V30 4 O -0.925781 -1.36845 -0.865412 0
M  V30 5 C 0.0177724 -1.72632 0.0683375 0
M  V30 6 C 0.64737 -0.489117 0.615901 0
M  V30 7 C -0.314482 0.599169 0.210535 0
M  V30 8 C 2.00228 -0.284651 0.084711 0
M  V30 9 O 2.48312 -1.11129 -0.729162 0
M  V30 10 N 2.79848 0.822483 0.458976 0
M  V30 11 N 4.08814 1.04648 -0.0262237 0
M  V30 12 H -3.31599 1.64419 -0.251619 0
M  V30 13 H -4.09456 0.94866 1.0507 0
M  V30 14 H -3.45208 -0.763474 -0.309908 0
M  V30 15 H -2.51208 -0.775554 1.21903 0
M  V30 16 H -1.63696 0.433101 -1.46945 0
M  V30 17 H 0.805859 -2.33609 -0.450456 0
M  V30 18 H -0.405608 -2.37069 0.860762 0
M  V30 19 H 0.663085 -0.561901 1.72231 0
M  V30 20 H -0.764889 1.08997 1.09311 0
M  V30 21 H 0.165121 1.39198 -0.393692 0
M  V30 22 H 2.40493 1.51086 1.13335 0
M  V30 23 H 4.50892 0.0830335 -0.191884 0
M  V30 24 H 4.06428 1.48836 -0.976689 0
M  V30 END ATOM
M  V30 BEGIN BOND
M  V30 1 1 1 2
M  V30 2 1 2 3
M  V30 3 1 3 4
M  V30 4 1 4 5
M  V30 5 1 5 6
M  V30 6 1 6 7
M  V30 7 1 6 8
M  V30 8 2 8 9
M  V30 9 1 8 10
M  V30 10 1 10 11
M  V30 11 1 7 3
M  V30 12 1 1 12
M  V30 13 1 1 13
M  V30 14 1 2 14
M  V30 15 1 2 15
M  V30 16 1 3 16
M  V30 17 1 5 17
M  V30 18 1 5 18
M  V30 19 1 6 19
M  V30 20 1 7 20
M  V30 21 1 7 21
M  V30 22 1 10 22
M  V30 23 1 11 23
M  V30 24 1 11 24
M  V30 END BOND
M  V30 END CTAB
M  END
