
     RDKit          3D

  0  0  0  0  0  0  0  0  0  0999 V3000
M  V30 BEGIN CTAB
M  V30 COUNTS 30 31 0 0 0
M  V30 BEGIN ATOM
M  V30 1 C -5.12953 0.475526 1.47104 0
M  V30 2 O -4.21553 1.15883 0.664411 0
M  V30 3 C -3.0767 0.622298 0.126686 0
M  V30 4 C -2.24492 1.39539 -0.658136 0
M  V30 5 C -1.09286 0.861183 -1.20501 0
M  V30 6 C -0.733461 -0.45635 -0.988275 0
M  V30 7 C -1.56275 -1.25009 -0.198047 0
M  V30 8 C -2.69017 -0.697787 0.327179 0
M  V30 9 N -1.16002 -2.59797 0.00178629 0
M  V30 10 S 0.753938 -1.11662 -1.70415 0
M  V30 11 C 2.16653 -0.919193 -0.639802 0
M  V30 12 N 2.59399 -1.77635 0.293829 0
M  V30 13 N 3.67147 -1.27539 0.871995 0
M  V30 14 C 3.95672 -0.0884501 0.321892 0
M  V30 15 N 3.01125 0.123987 -0.62032 0
M  V30 16 N 3.00105 1.27838 -1.39879 0
M  V30 17 C 5.09787 0.754881 0.725872 0
M  V30 18 H -5.70904 1.17083 2.13494 0
M  V30 19 H -4.67766 -0.336971 2.07939 0
M  V30 20 H -5.89028 -0.0276379 0.823259 0
M  V30 21 H -2.51003 2.43548 -0.840992 0
M  V30 22 H -0.48575 1.53297 -1.81408 0
M  V30 23 H -3.31875 -1.34291 0.940617 0
M  V30 24 H -0.825151 -2.92044 0.934318 0
M  V30 25 H -1.21144 -3.24529 -0.810372 0
M  V30 26 H 3.48326 1.3091 -2.31073 0
M  V30 27 H 2.50078 2.1111 -1.04969 0
M  V30 28 H 5.02496 1.79704 0.409315 0
M  V30 29 H 5.25999 0.729565 1.83062 0
M  V30 30 H 6.01223 0.294897 0.281258 0
M  V30 END ATOM
M  V30 BEGIN BOND
M  V30 1 1 1 2
M  V30 2 1 2 3
M  V30 3 2 3 4
M  V30 4 1 4 5
M  V30 5 2 5 6
M  V30 6 1 6 7
M  V30 7 2 7 8
M  V30 8 1 7 9
M  V30 9 1 6 10
M  V30 10 1 10 11
M  V30 11 2 11 12
M  V30 12 1 12 13
M  V30 13 2 13 14
M  V30 14 1 14 15
M  V30 15 1 15 16
M  V30 16 1 14 17
M  V30 17 1 8 3
M  V30 18 1 15 11
M  V30 19 1 1 18
M  V30 20 1 1 19
M  V30 21 1 1 20
M  V30 22 1 4 21
M  V30 23 1 5 22
M  V30 24 1 8 23
M  V30 25 1 9 24
M  V30 26 1 9 25
M  V30 27 1 16 26
M  V30 28 1 16 27
M  V30 29 1 17 28
M  V30 30 1 17 29
M  V30 31 1 17 30
M  V30 END BOND
M  V30 END CTAB
M  END
