
     RDKit          3D

  0  0  0  0  0  0  0  0  0  0999 V3000
M  V30 BEGIN CTAB
M  V30 COUNTS 38 39 0 0 0
M  V30 BEGIN ATOM
M  V30 1 C 5.53644 0.638381 0.153984 0
M  V30 2 C 4.32082 1.25357 0.767207 0
M  V30 3 N 3.09254 0.589249 0.531056 0
M  V30 4 C 2.90961 -0.683902 1.1353 0
M  V30 5 C 1.42578 -0.962492 1.37889 0
M  V30 6 N 0.718285 -0.626733 0.162846 0
M  V30 7 C 1.57639 -0.421518 -1.01535 0
M  V30 8 C 2.49286 0.751764 -0.745199 0
M  V30 9 C -0.695648 -0.495051 0.0640165 0
M  V30 10 C -1.30678 0.545195 0.720744 0
M  V30 11 Cl -0.365062 1.70897 1.62839 0
M  V30 12 N -2.66732 0.673125 0.647903 0
M  V30 13 C -3.3694 -0.22609 -0.0673093 0
M  V30 14 C -4.82858 -0.0912368 -0.149569 0
M  V30 15 O -5.51476 -0.906227 -0.810129 0
M  V30 16 N -5.48631 0.96861 0.520492 0
M  V30 17 N -6.86239 1.09959 0.443041 0
M  V30 18 C -2.75537 -1.27317 -0.729214 0
M  V30 19 N -3.58671 -2.16896 -1.45633 0
M  V30 20 N -1.42169 -1.40484 -0.662063 0
M  V30 21 H 6.42143 1.21693 0.550573 0
M  V30 22 H 5.71146 -0.409141 0.457425 0
M  V30 23 H 5.55782 0.724465 -0.953681 0
M  V30 24 H 4.26999 2.30572 0.428723 0
M  V30 25 H 4.48359 1.29185 1.87584 0
M  V30 26 H 3.38715 -0.672569 2.13773 0
M  V30 27 H 3.37125 -1.5288 0.580945 0
M  V30 28 H 1.04679 -0.432324 2.25093 0
M  V30 29 H 1.3859 -2.08135 1.54872 0
M  V30 30 H 0.991523 -0.3055 -1.93302 0
M  V30 31 H 2.1989 -1.33666 -1.09443 0
M  V30 32 H 1.90932 1.70033 -0.790982 0
M  V30 33 H 3.22657 0.822012 -1.5778 0
M  V30 34 H -4.92156 1.6566 1.08046 0
M  V30 35 H -7.20308 1.36798 -0.505636 0
M  V30 36 H -7.25816 1.6843 1.20937 0
M  V30 37 H -3.71524 -1.98746 -2.4762 0
M  V30 38 H -4.07636 -2.9846 -1.06749 0
M  V30 END ATOM
M  V30 BEGIN BOND
M  V30 1 1 1 2
M  V30 2 1 2 3
M  V30 3 1 3 4
M  V30 4 1 4 5
M  V30 5 1 5 6
M  V30 6 1 6 7
M  V30 7 1 7 8
M  V30 8 1 6 9
M  V30 9 2 9 10
M  V30 10 1 10 11
M  V30 11 1 10 12
M  V30 12 2 12 13
M  V30 13 1 13 14
M  V30 14 2 14 15
M  V30 15 1 14 16
M  V30 16 1 16 17
M  V30 17 1 13 18
M  V30 18 1 18 19
M  V30 19 2 18 20
M  V30 20 1 8 3
M  V30 21 1 20 9
M  V30 22 1 1 21
M  V30 23 1 1 22
M  V30 24 1 1 23
M  V30 25 1 2 24
M  V30 26 1 2 25
M  V30 27 1 4 26
M  V30 28 1 4 27
M  V30 29 1 5 28
M  V30 30 1 5 29
M  V30 31 1 7 30
M  V30 32 1 7 31
M  V30 33 1 8 32
M  V30 34 1 8 33
M  V30 35 1 16 34
M  V30 36 1 17 35
M  V30 37 1 17 36
M  V30 38 1 19 37
M  V30 39 1 19 38
M  V30 END BOND
M  V30 END CTAB
M  END
