
     RDKit          3D

  0  0  0  0  0  0  0  0  0  0999 V3000
M  V30 BEGIN CTAB
M  V30 COUNTS 22 22 0 0 0
M  V30 BEGIN ATOM
M  V30 1 N 3.49354 1.04104 -0.0882566 0
M  V30 2 C 2.90041 -0.219042 0.221278 0
M  V30 3 C 1.41806 -0.189992 0.114852 0
M  V30 4 C 0.685769 -1.331 0.416959 0
M  V30 5 C -0.686924 -1.39284 0.347808 0
M  V30 6 C -1.38176 -0.273348 -0.0375666 0
M  V30 7 C -0.670948 0.885467 -0.345604 0
M  V30 8 C 0.703468 0.940045 -0.277716 0
M  V30 9 F -1.3971 1.97364 -0.695587 0
M  V30 10 C -2.85064 -0.337044 -0.180044 0
M  V30 11 N -3.53407 0.762488 0.481939 0
M  V30 12 H 4.38144 1.11048 0.480747 0
M  V30 13 H 3.8404 1.04325 -1.08808 0
M  V30 14 H 3.32913 -0.999258 -0.479337 0
M  V30 15 H 3.22806 -0.534387 1.24672 0
M  V30 16 H 1.22166 -2.21239 0.725968 0
M  V30 17 H -1.25638 -2.28444 0.564464 0
M  V30 18 H 1.24069 1.84664 -0.530037 0
M  V30 19 H -3.18426 -1.26719 0.405018 0
M  V30 20 H -3.18262 -0.41664 -1.20226 0
M  V30 21 H -3.8786 1.42562 -0.289879 0
M  V30 22 H -4.41931 0.428918 0.916468 0
M  V30 END ATOM
M  V30 BEGIN BOND
M  V30 1 1 1 2
M  V30 2 1 2 3
M  V30 3 2 3 4
M  V30 4 1 4 5
M  V30 5 2 5 6
M  V30 6 1 6 7
M  V30 7 2 7 8
M  V30 8 1 7 9
M  V30 9 1 6 10
M  V30 10 1 10 11
M  V30 11 1 8 3
M  V30 12 1 1 12
M  V30 13 1 1 13
M  V30 14 1 2 14
M  V30 15 1 2 15
M  V30 16 1 4 16
M  V30 17 1 5 17
M  V30 18 1 8 18
M  V30 19 1 10 19
M  V30 20 1 10 20
M  V30 21 1 11 21
M  V30 22 1 11 22
M  V30 END BOND
M  V30 END CTAB
M  END
