
     RDKit          3D

  0  0  0  0  0  0  0  0  0  0999 V3000
M  V30 BEGIN CTAB
M  V30 COUNTS 23 24 0 0 0
M  V30 BEGIN ATOM
M  V30 1 N -2.04829 -1.29616 0.916312 0
M  V30 2 C -1.52282 -0.155146 0.205945 0
M  V30 3 N -2.25031 0.934683 -0.0942162 0
M  V30 4 N -3.59013 1.17587 0.202135 0
M  V30 5 C -1.40073 1.7581 -0.751592 0
M  V30 6 N -0.181241 1.18053 -0.849149 0
M  V30 7 C -0.229671 -0.0167345 -0.258552 0
M  V30 8 C 0.81731 -1.04959 -0.0841037 0
M  V30 9 C 2.12349 -0.622371 -0.69094 0
M  V30 10 C 2.75177 0.631738 -0.155437 0
M  V30 11 C 3.3071 -0.691763 0.21252 0
M  V30 12 H -1.56873 -1.55967 1.8238 0
M  V30 13 H -2.85455 -1.84628 0.574774 0
M  V30 14 H -4.17127 1.73459 -0.451426 0
M  V30 15 H -4.01844 0.806239 1.06628 0
M  V30 16 H -1.6989 2.7323 -1.12825 0
M  V30 17 H 0.511815 -1.99953 -0.597148 0
M  V30 18 H 0.899471 -1.25295 1.00248 0
M  V30 19 H 2.25204 -0.876233 -1.75146 0
M  V30 20 H 3.20351 1.28179 -0.913265 0
M  V30 21 H 2.20338 1.1908 0.640527 0
M  V30 22 H 3.17033 -1.04025 1.26956 0
M  V30 23 H 4.29487 -1.01997 -0.188786 0
M  V30 END ATOM
M  V30 BEGIN BOND
M  V30 1 1 1 2
M  V30 2 1 2 3
M  V30 3 1 3 4
M  V30 4 1 3 5
M  V30 5 2 5 6
M  V30 6 1 6 7
M  V30 7 1 7 8
M  V30 8 1 8 9
M  V30 9 1 9 10
M  V30 10 1 10 11
M  V30 11 2 7 2
M  V30 12 1 11 9
M  V30 13 1 1 12
M  V30 14 1 1 13
M  V30 15 1 4 14
M  V30 16 1 4 15
M  V30 17 1 5 16
M  V30 18 1 8 17
M  V30 19 1 8 18
M  V30 20 1 9 19
M  V30 21 1 10 20
M  V30 22 1 10 21
M  V30 23 1 11 22
M  V30 24 1 11 23
M  V30 END BOND
M  V30 END CTAB
M  END
