
     RDKit          3D

  0  0  0  0  0  0  0  0  0  0999 V3000
M  V30 BEGIN CTAB
M  V30 COUNTS 34 34 0 0 0
M  V30 BEGIN ATOM
M  V30 1 O -2.73103 2.67373 -0.682761 0
M  V30 2 C -1.63922 1.98809 -0.110565 0
M  V30 3 C -1.51674 0.650872 -0.837694 0
M  V30 4 C -2.75313 -0.120327 -0.66805 0
M  V30 5 C -2.70509 -1.46092 -0.0616647 0
M  V30 6 C -1.38107 -1.89193 0.519822 0
M  V30 7 C -0.351792 -1.53501 -0.492232 0
M  V30 8 C -0.225053 -0.0450231 -0.549783 0
M  V30 9 C 0.366906 0.431389 0.759703 0
M  V30 10 N 1.62809 -0.204564 1.06876 0
M  V30 11 C 2.84611 0.0202931 0.383144 0
M  V30 12 N 3.16174 -0.488121 -0.746749 0
M  V30 13 N 4.41467 -0.168 -1.3042 0
M  V30 14 N 3.76434 0.906817 1.0646 0
M  V30 15 H -3.18128 2.11307 -1.35923 0
M  V30 16 H -1.88001 1.87136 0.962162 0
M  V30 17 H -0.766698 2.64152 -0.303092 0
M  V30 18 H -1.44384 0.962785 -1.92609 0
M  V30 19 H -3.51002 0.479928 -0.0657759 0
M  V30 20 H -3.31443 -0.222535 -1.65113 0
M  V30 21 H -2.96082 -2.27005 -0.81179 0
M  V30 22 H -3.48721 -1.60965 0.734203 0
M  V30 23 H -1.44316 -2.99095 0.709894 0
M  V30 24 H -1.26202 -1.37666 1.47888 0
M  V30 25 H -0.679906 -1.85478 -1.52743 0
M  V30 26 H 0.617801 -2.01484 -0.352074 0
M  V30 27 H 0.569948 0.16102 -1.32135 0
M  V30 28 H 0.622028 1.52308 0.688661 0
M  V30 29 H -0.321059 0.356145 1.61111 0
M  V30 30 H 1.64462 -0.883382 1.85743 0
M  V30 31 H 5.18758 0.236675 -0.701516 0
M  V30 32 H 4.62897 -0.310066 -2.30551 0
M  V30 33 H 4.51422 0.502885 1.63928 0
M  V30 34 H 3.58657 1.92715 0.918618 0
M  V30 END ATOM
M  V30 BEGIN BOND
M  V30 1 1 1 2
M  V30 2 1 2 3
M  V30 3 1 3 4
M  V30 4 1 4 5
M  V30 5 1 5 6
M  V30 6 1 6 7
M  V30 7 1 7 8
M  V30 8 1 8 9
M  V30 9 1 9 10
M  V30 10 1 10 11
M  V30 11 2 11 12 CFG=2
M  V30 12 1 12 13
M  V30 13 1 11 14
M  V30 14 1 8 3
M  V30 15 1 1 15
M  V30 16 1 2 16
M  V30 17 1 2 17
M  V30 18 1 3 18
M  V30 19 1 4 19
M  V30 20 1 4 20
M  V30 21 1 5 21
M  V30 22 1 5 22
M  V30 23 1 6 23
M  V30 24 1 6 24
M  V30 25 1 7 25
M  V30 26 1 7 26
M  V30 27 1 8 27
M  V30 28 1 9 28
M  V30 29 1 9 29
M  V30 30 1 10 30
M  V30 31 1 13 31
M  V30 32 1 13 32
M  V30 33 1 14 33
M  V30 34 1 14 34
M  V30 END BOND
M  V30 END CTAB
M  END
