
     RDKit          3D

  0  0  0  0  0  0  0  0  0  0999 V3000
M  V30 BEGIN CTAB
M  V30 COUNTS 54 56 0 0 0
M  V30 BEGIN ATOM
M  V30 1 O -0.618435 0.795408 -2.9163 0 CHG=-1
M  V30 2 N -1.97699 0.71924 -2.93342 0 CHG=1
M  V30 3 O -2.54365 0.320261 -3.96226 0
M  V30 4 C -2.74993 1.09119 -1.79697 0
M  V30 5 C -2.58645 0.284481 -0.562282 0
M  V30 6 C -1.23257 0.247575 0.0173341 0
M  V30 7 C -0.845256 1.16056 0.994707 0
M  V30 8 C 0.398469 1.15365 1.59983 0
M  V30 9 C 1.34581 0.208886 1.24956 0
M  V30 10 C 0.968695 -0.703459 0.280115 0
M  V30 11 C -0.272443 -0.679676 -0.310007 0
M  V30 12 C 2.66136 0.170128 1.94234 0
M  V30 13 S 3.64744 -1.25986 1.48212 0
M  V30 14 C 4.7078 -0.996909 0.0971722 0
M  V30 15 C 4.3844 -1.03105 -1.22527 0
M  V30 16 C 5.29031 -0.851592 -2.26852 0
M  V30 17 C 6.60578 -0.623492 -1.94276 0
M  V30 18 C 6.97935 -0.58141 -0.617896 0
M  V30 19 C 6.07525 -0.760616 0.390699 0
M  V30 20 N 6.53669 -0.745824 1.75093 0
M  V30 21 C 3.48664 1.42399 1.64268 0
M  V30 22 N 2.9604 2.66974 2.04282 0 CHG=1
M  V30 23 O 2.59321 3.50229 1.17961 0
M  V30 24 O 2.82094 3.07788 3.35825 0 CHG=-1
M  V30 25 S -3.41871 -1.32357 -0.595465 0
M  V30 26 C -5.16515 -1.05082 -0.570854 0
M  V30 27 C -5.89947 -0.921397 -1.72002 0
M  V30 28 C -7.27926 -0.693044 -1.66299 0
M  V30 29 C -7.89536 -0.598952 -0.430887 0
M  V30 30 C -7.15179 -0.729654 0.720664 0
M  V30 31 C -5.80098 -0.953696 0.661778 0
M  V30 32 N -5.05075 -1.08657 1.83225 0
M  V30 33 H -3.83635 1.08538 -2.05943 0
M  V30 34 H -2.56425 2.17005 -1.49883 0
M  V30 35 H -3.20392 0.879983 0.221495 0
M  V30 36 H -1.57058 1.90438 1.28119 0
M  V30 37 H 0.591641 1.8815 2.36758 0
M  V30 38 H 1.69908 -1.45978 0.0441275 0
M  V30 39 H -0.513185 -1.42499 -1.0685 0
M  V30 40 H 2.51476 0.173651 3.05239 0
M  V30 41 H 3.36018 -1.21728 -1.53278 0
M  V30 42 H 4.96807 -0.891272 -3.30258 0
M  V30 43 H 7.37806 -0.47455 -2.71411 0
M  V30 44 H 8.04128 -0.397543 -0.346564 0
M  V30 45 H 6.64988 0.169997 2.21676 0
M  V30 46 H 6.75866 -1.61609 2.27923 0
M  V30 47 H 3.66678 1.40854 0.546309 0
M  V30 48 H 4.5157 1.29702 2.11011 0
M  V30 49 H -5.43234 -0.993423 -2.71454 0
M  V30 50 H -7.8504 -0.592553 -2.57328 0
M  V30 51 H -8.97882 -0.419869 -0.351262 0
M  V30 52 H -7.67477 -0.647196 1.68059 0
M  V30 53 H -4.43136 -0.332491 2.24059 0
M  V30 54 H -5.06346 -1.98605 2.39457 0
M  V30 END ATOM
M  V30 BEGIN BOND
M  V30 1 1 1 2
M  V30 2 2 2 3
M  V30 3 1 2 4
M  V30 4 1 4 5
M  V30 5 1 5 6
M  V30 6 2 6 7
M  V30 7 1 7 8
M  V30 8 2 8 9
M  V30 9 1 9 10
M  V30 10 2 10 11
M  V30 11 1 9 12
M  V30 12 1 12 13
M  V30 13 1 13 14
M  V30 14 2 14 15
M  V30 15 1 15 16
M  V30 16 2 16 17
M  V30 17 1 17 18
M  V30 18 2 18 19
M  V30 19 1 19 20
M  V30 20 1 12 21
M  V30 21 1 21 22
M  V30 22 2 22 23
M  V30 23 1 22 24
M  V30 24 1 5 25
M  V30 25 1 25 26
M  V30 26 2 26 27
M  V30 27 1 27 28
M  V30 28 2 28 29
M  V30 29 1 29 30
M  V30 30 2 30 31
M  V30 31 1 31 32
M  V30 32 1 11 6
M  V30 33 1 19 14
M  V30 34 1 31 26
M  V30 35 1 4 33
M  V30 36 1 4 34
M  V30 37 1 5 35
M  V30 38 1 7 36
M  V30 39 1 8 37
M  V30 40 1 10 38
M  V30 41 1 11 39
M  V30 42 1 12 40
M  V30 43 1 15 41
M  V30 44 1 16 42
M  V30 45 1 17 43
M  V30 46 1 18 44
M  V30 47 1 20 45
M  V30 48 1 20 46
M  V30 49 1 21 47
M  V30 50 1 21 48
M  V30 51 1 27 49
M  V30 52 1 28 50
M  V30 53 1 29 51
M  V30 54 1 30 52
M  V30 55 1 32 53
M  V30 56 1 32 54
M  V30 END BOND
M  V30 END CTAB
M  END
