
     RDKit          3D

  0  0  0  0  0  0  0  0  0  0999 V3000
M  V30 BEGIN CTAB
M  V30 COUNTS 18 19 0 0 0
M  V30 BEGIN ATOM
M  V30 1 N 4.33059 1.34274 -0.167719 0
M  V30 2 C 3.26202 0.448812 -0.00217369 0
M  V30 3 N 3.22496 -0.858594 0.315064 0
M  V30 4 O 1.97403 -1.27202 0.354371 0
M  V30 5 C 1.18117 -0.271454 0.0711561 0
M  V30 6 N 1.95728 0.797301 -0.151453 0
M  V30 7 C -0.284674 -0.281799 0.00151756 0
M  V30 8 C -1.12337 -1.33749 0.21782 0
M  V30 9 C -2.43904 -1.11884 0.0997068 0
M  V30 10 C -2.83935 0.149741 -0.229531 0
M  V30 11 S -1.3576 0.990373 -0.361709 0
M  V30 12 N -4.18778 0.63109 -0.41334 0
M  V30 13 H 4.97234 1.57226 0.632557 0
M  V30 14 H 4.56085 1.83301 -1.07464 0
M  V30 15 H -0.703489 -2.32879 0.480363 0
M  V30 16 H -3.22049 -1.89805 0.251364 0
M  V30 17 H -4.6863 0.926313 0.448801 0
M  V30 18 H -4.62115 0.675405 -1.34793 0
M  V30 END ATOM
M  V30 BEGIN BOND
M  V30 1 1 1 2
M  V30 2 2 2 3
M  V30 3 1 3 4
M  V30 4 1 4 5
M  V30 5 2 5 6
M  V30 6 1 5 7
M  V30 7 2 7 8
M  V30 8 1 8 9
M  V30 9 2 9 10
M  V30 10 1 10 11
M  V30 11 1 10 12
M  V30 12 1 6 2
M  V30 13 1 11 7
M  V30 14 1 1 13
M  V30 15 1 1 14
M  V30 16 1 8 15
M  V30 17 1 9 16
M  V30 18 1 12 17
M  V30 19 1 12 18
M  V30 END BOND
M  V30 END CTAB
M  END
