
     RDKit          3D

  0  0  0  0  0  0  0  0  0  0999 V3000
M  V30 BEGIN CTAB
M  V30 COUNTS 20 20 0 0 0
M  V30 BEGIN ATOM
M  V30 1 C -0.0540915 -2.95242 -0.0451735 0
M  V30 2 C -0.0344472 -1.45202 -0.168019 0
M  V30 3 N 1.13795 -0.804816 -0.312242 0
M  V30 4 C 1.21939 0.521303 -0.437275 0
M  V30 5 N 2.43873 1.20719 -0.604913 0
M  V30 6 N 3.41116 1.34468 0.380453 0
M  V30 7 N 0.0639972 1.20873 -0.412466 0
M  V30 8 C -1.13509 0.602642 -0.272337 0
M  V30 9 N -2.3303 1.40879 -0.272276 0
M  V30 10 N -3.57211 0.811342 -0.0967065 0
M  V30 11 N -1.1584 -0.720417 -0.152509 0
M  V30 12 H 0.507161 -3.27426 0.840425 0
M  V30 13 H -1.09425 -3.29945 -0.0605717 0
M  V30 14 H 0.412062 -3.40286 -0.971842 0
M  V30 15 H 2.66709 1.66107 -1.53304 0
M  V30 16 H 4.31176 0.886118 0.129735 0
M  V30 17 H 3.49934 2.2725 0.812241 0
M  V30 18 H -2.24912 2.43933 -0.409794 0
M  V30 19 H -3.71517 0.0399039 -0.804177 0
M  V30 20 H -4.32567 1.50262 -0.271928 0
M  V30 END ATOM
M  V30 BEGIN BOND
M  V30 1 1 1 2
M  V30 2 2 2 3
M  V30 3 1 3 4
M  V30 4 1 4 5
M  V30 5 1 5 6
M  V30 6 2 4 7
M  V30 7 1 7 8
M  V30 8 1 8 9
M  V30 9 1 9 10
M  V30 10 2 8 11
M  V30 11 1 11 2
M  V30 12 1 1 12
M  V30 13 1 1 13
M  V30 14 1 1 14
M  V30 15 1 5 15
M  V30 16 1 6 16
M  V30 17 1 6 17
M  V30 18 1 9 18
M  V30 19 1 10 19
M  V30 20 1 10 20
M  V30 END BOND
M  V30 END CTAB
M  END
