
     RDKit          3D

  0  0  0  0  0  0  0  0  0  0999 V3000
M  V30 BEGIN CTAB
M  V30 COUNTS 31 32 0 0 0
M  V30 BEGIN ATOM
M  V30 1 N 4.03219 -0.771996 -0.259831 0
M  V30 2 C 3.38508 0.46753 -0.034803 0
M  V30 3 N 2.16466 0.52846 0.278645 0
M  V30 4 C 1.30493 -0.590663 0.442827 0
M  V30 5 N 1.78095 -1.60912 1.08822 0
M  V30 6 N -0.0172721 -0.642867 -0.0548322 0
M  V30 7 C -0.323857 -1.6032 -1.08869 0
M  V30 8 C -1.79234 -1.619 -1.4329 0
M  V30 9 C -2.38969 -0.250434 -1.53243 0
M  V30 10 C -2.20933 0.444446 -0.243782 0
M  V30 11 C -1.03761 0.231376 0.448594 0
M  V30 12 C -0.861819 0.878038 1.648 0
M  V30 13 C -1.81255 1.71983 2.16633 0
M  V30 14 C -2.9874 1.9376 1.47905 0
M  V30 15 C -3.16527 1.2905 0.276933 0
M  V30 16 N 4.14636 1.6531 -0.1707 0
M  V30 17 H 4.21158 -1.0253 -1.27056 0
M  V30 18 H 4.32759 -1.4205 0.505615 0
M  V30 19 H 1.18777 -2.4404 1.22807 0
M  V30 20 H -0.0698548 -2.62818 -0.730678 0
M  V30 21 H 0.232619 -1.41337 -2.02844 0
M  V30 22 H -1.92536 -2.12212 -2.41617 0
M  V30 23 H -2.35643 -2.20498 -0.699242 0
M  V30 24 H -1.88626 0.364109 -2.31015 0
M  V30 25 H -3.465 -0.380934 -1.79134 0
M  V30 26 H 0.0515842 0.733162 2.22093 0
M  V30 27 H -1.61089 2.2046 3.12727 0
M  V30 28 H -3.71148 2.60351 1.91395 0
M  V30 29 H -4.08921 1.44736 -0.286836 0
M  V30 30 H 4.33396 2.30583 0.62207 0
M  V30 31 H 4.55235 1.91361 -1.09511 0
M  V30 END ATOM
M  V30 BEGIN BOND
M  V30 1 1 1 2
M  V30 2 2 2 3 CFG=2
M  V30 3 1 3 4
M  V30 4 2 4 5 CFG=2
M  V30 5 1 4 6
M  V30 6 1 6 7
M  V30 7 1 7 8
M  V30 8 1 8 9
M  V30 9 1 9 10
M  V30 10 2 10 11
M  V30 11 1 11 12
M  V30 12 2 12 13
M  V30 13 1 13 14
M  V30 14 2 14 15
M  V30 15 1 2 16
M  V30 16 1 11 6
M  V30 17 1 15 10
M  V30 18 1 1 17
M  V30 19 1 1 18
M  V30 20 1 5 19
M  V30 21 1 7 20
M  V30 22 1 7 21
M  V30 23 1 8 22
M  V30 24 1 8 23
M  V30 25 1 9 24
M  V30 26 1 9 25
M  V30 27 1 12 26
M  V30 28 1 13 27
M  V30 29 1 14 28
M  V30 30 1 15 29
M  V30 31 1 16 30
M  V30 32 1 16 31
M  V30 END BOND
M  V30 END CTAB
M  END
