
     RDKit          3D

  0  0  0  0  0  0  0  0  0  0999 V3000
M  V30 BEGIN CTAB
M  V30 COUNTS 38 39 0 0 0
M  V30 BEGIN ATOM
M  V30 1 C 5.60432 -0.0666787 -0.111445 0
M  V30 2 O 4.82375 -0.0474187 -1.27036 0
M  V30 3 C 3.42648 -0.0446954 -1.24908 0
M  V30 4 C 2.71971 -0.0252714 -2.42959 0
M  V30 5 C 1.3598 -0.0225113 -2.42161 0
M  V30 6 C 0.603123 -0.0385889 -1.25728 0
M  V30 7 C -0.86727 -0.0463055 -1.34677 0
M  V30 8 N -1.53352 0.226897 -0.0745344 0
M  V30 9 C -1.32978 1.51753 0.464731 0
M  V30 10 N -0.550132 2.4864 -0.270453 0
M  V30 11 N -1.84899 1.84531 1.6028 0
M  V30 12 C -2.63043 0.880601 2.29013 0
M  V30 13 N -3.22231 1.19644 3.56046 0
M  V30 14 N -2.84224 -0.292874 1.82318 0
M  V30 15 C -2.33276 -0.762183 0.581382 0
M  V30 16 C -3.5694 -1.1109 -0.273668 0
M  V30 17 C -1.59524 -2.0742 0.762876 0
M  V30 18 C 1.31267 -0.0577618 -0.0828739 0
M  V30 19 C 2.70857 -0.0609103 -0.0755487 0
M  V30 20 H 5.29843 0.65876 0.659021 0
M  V30 21 H 6.66564 0.0581616 -0.422542 0
M  V30 22 H 5.51686 -1.07986 0.34614 0
M  V30 23 H 3.2524 -0.0122451 -3.36178 0
M  V30 24 H 0.806617 -0.00713506 -3.35797 0
M  V30 25 H -1.18613 0.684775 -2.12273 0
M  V30 26 H -1.19067 -1.05468 -1.67467 0
M  V30 27 H 0.128223 3.13236 0.158314 0
M  V30 28 H -0.695748 2.5199 -1.29592 0
M  V30 29 H -3.35155 2.19026 3.83759 0
M  V30 30 H -3.53161 0.459858 4.22461 0
M  V30 31 H -4.21397 -0.209056 -0.318128 0
M  V30 32 H -3.2734 -1.35882 -1.30144 0
M  V30 33 H -4.08486 -1.90895 0.257263 0
M  V30 34 H -0.708302 -1.97264 1.39307 0
M  V30 35 H -2.34097 -2.778 1.22174 0
M  V30 36 H -1.32704 -2.49235 -0.211593 0
M  V30 37 H 0.793178 -0.0672492 0.869602 0
M  V30 38 H 3.20659 -0.0764254 0.877066 0
M  V30 END ATOM
M  V30 BEGIN BOND
M  V30 1 1 1 2
M  V30 2 1 2 3
M  V30 3 2 3 4
M  V30 4 1 4 5
M  V30 5 2 5 6
M  V30 6 1 6 7
M  V30 7 1 7 8
M  V30 8 1 8 9
M  V30 9 1 9 10
M  V30 10 2 9 11
M  V30 11 1 11 12
M  V30 12 1 12 13
M  V30 13 2 12 14
M  V30 14 1 14 15
M  V30 15 1 15 16
M  V30 16 1 15 17
M  V30 17 1 6 18
M  V30 18 2 18 19
M  V30 19 1 19 3
M  V30 20 1 15 8
M  V30 21 1 1 20
M  V30 22 1 1 21
M  V30 23 1 1 22
M  V30 24 1 4 23
M  V30 25 1 5 24
M  V30 26 1 7 25
M  V30 27 1 7 26
M  V30 28 1 10 27
M  V30 29 1 10 28
M  V30 30 1 13 29
M  V30 31 1 13 30
M  V30 32 1 16 31
M  V30 33 1 16 32
M  V30 34 1 16 33
M  V30 35 1 17 34
M  V30 36 1 17 35
M  V30 37 1 17 36
M  V30 38 1 18 37
M  V30 39 1 19 38
M  V30 END BOND
M  V30 END CTAB
M  END
