
     RDKit          3D

  0  0  0  0  0  0  0  0  0  0999 V3000
M  V30 BEGIN CTAB
M  V30 COUNTS 23 23 0 0 0
M  V30 BEGIN ATOM
M  V30 1 O 2.69743 -1.16349 -0.10813 0
M  V30 2 C 1.39707 -1.61356 0.103005 0
M  V30 3 C 0.416138 -0.41242 0.153915 0
M  V30 4 C 0.631002 0.509774 -1.01327 0
M  V30 5 C 1.23184 1.51204 -0.0624138 0
M  V30 6 C 1.0007 0.600723 1.11031 0
M  V30 7 N -0.892667 -0.869072 0.366663 0
M  V30 8 C -1.97235 -0.234561 0.436523 0
M  V30 9 N -3.21505 -0.942675 0.667338 0
M  V30 10 N -2.01384 1.16437 0.294318 0
M  V30 11 H 3.28831 -1.58636 0.583117 0
M  V30 12 H 1.13947 -2.29131 -0.710278 0
M  V30 13 H 1.28955 -2.14714 1.06783 0
M  V30 14 H -0.226938 0.911084 -1.53621 0
M  V30 15 H 1.3538 0.118591 -1.77446 0
M  V30 16 H 0.705413 2.47526 0.05178 0
M  V30 17 H 2.29969 1.68918 -0.31282 0
M  V30 18 H 1.97248 0.313191 1.58568 0
M  V30 19 H 0.306784 0.973736 1.86642 0
M  V30 20 H -4.01283 -0.426104 1.08971 0
M  V30 21 H -3.32716 -1.92917 0.427684 0
M  V30 22 H -1.76398 1.77977 1.07994 0
M  V30 23 H -2.30487 1.56815 -0.611031 0
M  V30 END ATOM
M  V30 BEGIN BOND
M  V30 1 1 1 2
M  V30 2 1 2 3
M  V30 3 1 3 4
M  V30 4 1 4 5
M  V30 5 1 5 6
M  V30 6 1 3 7
M  V30 7 2 7 8 CFG=2
M  V30 8 1 8 9
M  V30 9 1 8 10
M  V30 10 1 6 3
M  V30 11 1 1 11
M  V30 12 1 2 12
M  V30 13 1 2 13
M  V30 14 1 4 14
M  V30 15 1 4 15
M  V30 16 1 5 16
M  V30 17 1 5 17
M  V30 18 1 6 18
M  V30 19 1 6 19
M  V30 20 1 9 20
M  V30 21 1 9 21
M  V30 22 1 10 22
M  V30 23 1 10 23
M  V30 END BOND
M  V30 END CTAB
M  END
