
     RDKit          3D

  0  0  0  0  0  0  0  0  0  0999 V3000
M  V30 BEGIN CTAB
M  V30 COUNTS 52 55 0 0 0
M  V30 BEGIN ATOM
M  V30 1 N -3.10989 -3.7155 -0.144451 0
M  V30 2 C -2.0428 -3.46613 -1.06049 0
M  V30 3 C -0.842322 -2.84114 -0.31917 0
M  V30 4 O -1.059 -1.7152 0.275505 0
M  V30 5 C -1.3101 -0.622867 0.894069 0
M  V30 6 C -0.631532 0.579068 0.60037 0
M  V30 7 C -0.921447 1.7312 1.27819 0
M  V30 8 C -0.229053 2.91473 0.963901 0
M  V30 9 C -0.535145 4.05121 1.65297 0
M  V30 10 C -1.49714 4.07771 2.64337 0
M  V30 11 C -2.17348 2.89391 2.94108 0
M  V30 12 C -1.88437 1.73198 2.26087 0
M  V30 13 C -2.57883 0.591083 2.59125 0
M  V30 14 C -2.28883 -0.553712 1.91567 0
M  V30 15 C 0.38421 0.583788 -0.43429 0
M  V30 16 C 1.72922 0.309266 -0.108723 0
M  V30 17 O 2.05627 0.0382146 1.18885 0
M  V30 18 C 3.22459 -0.27178 1.80275 0
M  V30 19 C 3.93212 -1.52756 1.4404 0
M  V30 20 N 3.13662 -2.72003 1.68286 0
M  V30 21 C 2.68335 0.322054 -1.09929 0
M  V30 22 C 2.3404 0.601975 -2.42562 0
M  V30 23 C 1.03238 0.868401 -2.74207 0
M  V30 24 C 0.700568 1.1431 -4.05197 0
M  V30 25 C -0.607746 1.41252 -4.38907 0
M  V30 26 C -1.58047 1.40626 -3.41493 0
M  V30 27 C -1.23187 1.13192 -2.12314 0
M  V30 28 C 0.0802941 0.854636 -1.74286 0
M  V30 29 H -3.33411 -4.73928 -0.04634 0
M  V30 30 H -3.93425 -3.10836 -0.268381 0
M  V30 31 H -2.30903 -2.75961 -1.86716 0
M  V30 32 H -1.63981 -4.37899 -1.55343 0
M  V30 33 H -0.509605 -3.70563 0.363889 0
M  V30 34 H -0.0183195 -2.88475 -1.10224 0
M  V30 35 H 0.506816 2.84087 0.187999 0
M  V30 36 H 0.0178665 4.95762 1.38947 0
M  V30 37 H -1.74329 4.9615 3.18799 0
M  V30 38 H -2.92755 2.86801 3.7019 0
M  V30 39 H -3.33127 0.632641 3.37259 0
M  V30 40 H -2.81949 -1.46318 2.15629 0
M  V30 41 H 3.97484 0.56864 1.62188 0
M  V30 42 H 3.12742 -0.250184 2.93335 0
M  V30 43 H 4.80407 -1.6172 2.16234 0
M  V30 44 H 4.34928 -1.56456 0.433912 0
M  V30 45 H 2.41262 -2.86483 0.951621 0
M  V30 46 H 3.75995 -3.56299 1.66336 0
M  V30 47 H 3.72805 0.139248 -0.925636 0
M  V30 48 H 3.11192 0.60823 -3.20668 0
M  V30 49 H 1.4711 1.15093 -4.83973 0
M  V30 50 H -0.891873 1.63443 -5.43024 0
M  V30 51 H -2.62087 1.61631 -3.65928 0
M  V30 52 H -1.96046 1.11206 -1.30353 0
M  V30 END ATOM
M  V30 BEGIN BOND
M  V30 1 1 1 2
M  V30 2 1 2 3
M  V30 3 1 3 4
M  V30 4 1 4 5
M  V30 5 2 5 6
M  V30 6 1 6 7
M  V30 7 2 7 8
M  V30 8 1 8 9
M  V30 9 2 9 10
M  V30 10 1 10 11
M  V30 11 2 11 12
M  V30 12 1 12 13
M  V30 13 2 13 14
M  V30 14 1 6 15
M  V30 15 2 15 16
M  V30 16 1 16 17
M  V30 17 1 17 18
M  V30 18 1 18 19
M  V30 19 1 19 20
M  V30 20 1 16 21
M  V30 21 2 21 22
M  V30 22 1 22 23
M  V30 23 2 23 24
M  V30 24 1 24 25
M  V30 25 2 25 26
M  V30 26 1 26 27
M  V30 27 2 27 28
M  V30 28 1 14 5
M  V30 29 1 28 15
M  V30 30 1 12 7
M  V30 31 1 28 23
M  V30 32 1 1 29
M  V30 33 1 1 30
M  V30 34 1 2 31
M  V30 35 1 2 32
M  V30 36 1 3 33
M  V30 37 1 3 34
M  V30 38 1 8 35
M  V30 39 1 9 36
M  V30 40 1 10 37
M  V30 41 1 11 38
M  V30 42 1 13 39
M  V30 43 1 14 40
M  V30 44 1 18 41
M  V30 45 1 18 42
M  V30 46 1 19 43
M  V30 47 1 19 44
M  V30 48 1 20 45
M  V30 49 1 20 46
M  V30 50 1 21 47
M  V30 51 1 22 48
M  V30 52 1 24 49
M  V30 53 1 25 50
M  V30 54 1 26 51
M  V30 55 1 27 52
M  V30 END BOND
M  V30 END CTAB
M  END
