
     RDKit          3D

  0  0  0  0  0  0  0  0  0  0999 V3000
M  V30 BEGIN CTAB
M  V30 COUNTS 37 39 0 0 0
M  V30 BEGIN ATOM
M  V30 1 N 5.21701 1.33135 -1.4036 0
M  V30 2 C 4.15504 0.668092 -0.764288 0
M  V30 3 N 2.96082 1.27431 -0.95525 0
M  V30 4 C 1.8053 0.914529 -0.372436 0
M  V30 5 N 0.902161 1.81778 -0.205051 0
M  V30 6 C 1.40718 -0.326453 0.0996852 0
M  V30 7 C 2.27332 -1.32153 0.523488 0
M  V30 8 N 1.49381 -2.3424 0.894641 0
M  V30 9 C 0.212014 -1.99167 0.707901 0
M  V30 10 N 0.125722 -0.727552 0.208091 0
M  V30 11 C -1.03456 0.00868457 -0.128091 0 CFG=2
M  V30 12 O -1.63103 0.725221 0.910274 0
M  V30 13 C -2.81268 1.13895 0.28832 0 CFG=2
M  V30 14 C -3.78552 1.74036 1.26981 0
M  V30 15 O -4.91815 2.11555 0.551277 0
M  V30 16 C -3.35277 -0.0706792 -0.405307 0 CFG=1
M  V30 17 O -3.69518 0.161857 -1.72573 0
M  V30 18 C -2.16325 -1.03771 -0.299053 0 CFG=1
M  V30 19 O -1.9936 -1.78116 -1.43891 0
M  V30 20 C 3.66523 -1.31229 0.571685 0
M  V30 21 N 4.24935 -2.31722 1.37044 0
M  V30 22 N 4.43997 -0.446826 -0.0658312 0
M  V30 23 H 5.09006 1.76618 -2.33253 0
M  V30 24 H 6.13932 1.38758 -0.942362 0
M  V30 25 H 1.01498 2.81078 -0.494969 0
M  V30 26 H -0.612469 -2.64984 0.934839 0
M  V30 27 H -1.06443 0.506081 -1.10803 0
M  V30 28 H -2.54083 1.90189 -0.458546 0
M  V30 29 H -4.08873 1.05548 2.0599 0
M  V30 30 H -3.32478 2.67511 1.66262 0
M  V30 31 H -5.00743 3.07681 0.431965 0
M  V30 32 H -4.22142 -0.454111 0.184593 0
M  V30 33 H -3.41242 -0.578361 -2.31905 0
M  V30 34 H -2.32818 -1.60321 0.618995 0
M  V30 35 H -2.08839 -2.74794 -1.19191 0
M  V30 36 H 4.47267 -3.23366 0.960056 0
M  V30 37 H 4.45186 -2.13398 2.36236 0
M  V30 END ATOM
M  V30 BEGIN BOND
M  V30 1 1 1 2
M  V30 2 2 2 3
M  V30 3 1 3 4
M  V30 4 2 4 5 CFG=2
M  V30 5 1 4 6
M  V30 6 2 6 7
M  V30 7 1 7 8
M  V30 8 2 8 9
M  V30 9 1 9 10
M  V30 10 1 10 11
M  V30 11 1 11 12
M  V30 12 1 12 13
M  V30 13 1 13 14
M  V30 14 1 14 15
M  V30 15 1 13 16
M  V30 16 1 16 17
M  V30 17 1 16 18
M  V30 18 1 18 19
M  V30 19 1 7 20
M  V30 20 1 20 21
M  V30 21 2 20 22
M  V30 22 1 22 2
M  V30 23 1 10 6
M  V30 24 1 18 11
M  V30 25 1 1 23
M  V30 26 1 1 24
M  V30 27 1 5 25
M  V30 28 1 9 26
M  V30 29 1 11 27 CFG=3
M  V30 30 1 13 28 CFG=3
M  V30 31 1 14 29
M  V30 32 1 14 30
M  V30 33 1 15 31
M  V30 34 1 16 32 CFG=1
M  V30 35 1 17 33
M  V30 36 1 18 34 CFG=1
M  V30 37 1 19 35
M  V30 38 1 21 36
M  V30 39 1 21 37
M  V30 END BOND
M  V30 END CTAB
M  END
