
     RDKit          3D

  0  0  0  0  0  0  0  0  0  0999 V3000
M  V30 BEGIN CTAB
M  V30 COUNTS 36 37 0 0 0
M  V30 BEGIN ATOM
M  V30 1 N 7.04001 -1.97054 -0.232311 0
M  V30 2 C 5.94735 -1.14183 0.149643 0
M  V30 3 N 4.81229 -1.712 0.339736 0
M  V30 4 N 3.64979 -1.04773 0.714703 0
M  V30 5 C 2.67081 -0.814448 -0.083374 0
M  V30 6 C 1.4587 -0.119621 0.315152 0
M  V30 7 C 0.456165 0.0911314 -0.598363 0
M  V30 8 C -0.735137 0.753024 -0.278361 0
M  V30 9 C -0.930861 1.21681 0.989206 0
M  V30 10 C 0.099666 0.996888 1.91585 0
M  V30 11 C 1.26293 0.347402 1.59147 0
M  V30 12 O -2.07984 1.87161 1.36395 0
M  V30 13 C -3.16576 2.13099 0.561143 0
M  V30 14 C -3.85123 0.917222 0.0502722 0
M  V30 15 C -4.63285 1.00119 -1.07354 0
M  V30 16 C -5.30736 -0.105136 -1.59033 0
M  V30 17 C -5.20082 -1.32076 -0.974349 0
M  V30 18 C -4.42047 -1.43313 0.158609 0
M  V30 19 C -3.75714 -0.331119 0.661439 0
M  V30 20 N 6.1365 0.252915 0.305709 0
M  V30 21 H 7.02992 -3.00159 -0.0700687 0
M  V30 22 H 7.90846 -1.59349 -0.694141 0
M  V30 23 H 2.78262 -1.16525 -1.09934 0
M  V30 24 H 0.559959 -0.254878 -1.61121 0
M  V30 25 H -1.47739 0.892293 -1.06012 0
M  V30 26 H -0.0683119 1.36793 2.90962 0
M  V30 27 H 2.0371 0.198393 2.34291 0
M  V30 28 H -2.87918 2.70964 -0.360504 0
M  V30 29 H -3.89047 2.76556 1.13791 0
M  V30 30 H -4.74806 1.92408 -1.58911 0
M  V30 31 H -5.92272 -0.0200421 -2.48239 0
M  V30 32 H -5.72323 -2.16821 -1.37821 0
M  V30 33 H -4.34238 -2.4035 0.640572 0
M  V30 34 H -3.1386 -0.38329 1.54527 0
M  V30 35 H 6.30359 0.631108 1.25726 0
M  V30 36 H 6.11595 0.918387 -0.489873 0
M  V30 END ATOM
M  V30 BEGIN BOND
M  V30 1 1 1 2
M  V30 2 2 2 3
M  V30 3 1 3 4
M  V30 4 2 4 5
M  V30 5 1 5 6
M  V30 6 2 6 7
M  V30 7 1 7 8
M  V30 8 2 8 9
M  V30 9 1 9 10
M  V30 10 2 10 11
M  V30 11 1 9 12
M  V30 12 1 12 13
M  V30 13 1 13 14
M  V30 14 2 14 15
M  V30 15 1 15 16
M  V30 16 2 16 17
M  V30 17 1 17 18
M  V30 18 2 18 19
M  V30 19 1 2 20
M  V30 20 1 11 6
M  V30 21 1 19 14
M  V30 22 1 1 21
M  V30 23 1 1 22
M  V30 24 1 5 23
M  V30 25 1 7 24
M  V30 26 1 8 25
M  V30 27 1 10 26
M  V30 28 1 11 27
M  V30 29 1 13 28
M  V30 30 1 13 29
M  V30 31 1 15 30
M  V30 32 1 16 31
M  V30 33 1 17 32
M  V30 34 1 18 33
M  V30 35 1 19 34
M  V30 36 1 20 35
M  V30 37 1 20 36
M  V30 END BOND
M  V30 END CTAB
M  END
