
     RDKit          3D

  0  0  0  0  0  0  0  0  0  0999 V3000
M  V30 BEGIN CTAB
M  V30 COUNTS 24 23 0 0 0
M  V30 BEGIN ATOM
M  V30 1 C -1.4438 -0.013307 0.66546 0
M  V30 2 C -0.348654 0.155867 -0.367342 0
M  V30 3 N 0.846248 -0.546561 -0.0379197 0
M  V30 4 C 1.61079 -0.31743 1.14272 0
M  V30 5 N 1.88306 0.84363 1.62557 0
M  V30 6 N 2.64248 1.01429 2.79501 0
M  V30 7 N 2.10549 -1.45469 1.83237 0
M  V30 8 C -0.893358 -0.374691 -1.67496 0
M  V30 9 C -2.11776 0.388557 -2.08871 0
M  V30 10 C -2.08419 1.02314 -3.23992 0
M  V30 11 H -1.97586 -0.977753 0.496418 0
M  V30 12 H -2.1877 0.786195 0.481426 0
M  V30 13 H -1.06335 -0.0273901 1.69328 0
M  V30 14 H -0.119428 1.23255 -0.436924 0
M  V30 15 H 1.214 -1.28809 -0.687515 0
M  V30 16 H 2.33191 1.70268 3.51646 0
M  V30 17 H 3.51704 0.483917 2.99155 0
M  V30 18 H 2.07065 -1.59037 2.85479 0
M  V30 19 H 2.54844 -2.23733 1.28049 0
M  V30 20 H -1.25581 -1.42694 -1.50896 0
M  V30 21 H -0.127689 -0.355125 -2.46481 0
M  V30 22 H -2.99319 0.404863 -1.44583 0
M  V30 23 H -2.94585 1.57708 -3.5609 0
M  V30 24 H -1.21346 0.996899 -3.86175 0
M  V30 END ATOM
M  V30 BEGIN BOND
M  V30 1 1 1 2
M  V30 2 1 2 3
M  V30 3 1 3 4
M  V30 4 2 4 5
M  V30 5 1 5 6
M  V30 6 1 4 7
M  V30 7 1 2 8
M  V30 8 1 8 9
M  V30 9 2 9 10 CFG=2
M  V30 10 1 1 11
M  V30 11 1 1 12
M  V30 12 1 1 13
M  V30 13 1 2 14
M  V30 14 1 3 15
M  V30 15 1 6 16
M  V30 16 1 6 17
M  V30 17 1 7 18
M  V30 18 1 7 19
M  V30 19 1 8 20
M  V30 20 1 8 21
M  V30 21 1 9 22
M  V30 22 1 10 23
M  V30 23 1 10 24
M  V30 END BOND
M  V30 END CTAB
M  END
