
     RDKit          3D

  0  0  0  0  0  0  0  0  0  0999 V3000
M  V30 BEGIN CTAB
M  V30 COUNTS 45 45 0 0 0
M  V30 BEGIN ATOM
M  V30 1 N -7.14199 -0.764326 0.272521 0
M  V30 2 C -6.29843 -1.13399 -0.841917 0
M  V30 3 C -4.88325 -0.767501 -0.47796 0
M  V30 4 C -4.06692 -1.62147 0.20207 0
M  V30 5 C -2.77097 -1.23405 0.512053 0
M  V30 6 C -2.27079 -0.00553002 0.155255 0
M  V30 7 N -0.911017 0.342574 0.506343 0
M  V30 8 C -0.331283 1.57319 0.155307 0
M  V30 9 C 1.1184 1.80489 0.45405 0 CFG=1
M  V30 10 N 1.41196 1.6739 1.85772 0
M  V30 11 C 2.05604 1.12231 -0.474267 0
M  V30 12 C 2.07778 -0.347295 -0.550342 0
M  V30 13 C 2.53413 -1.04517 0.700201 0
M  V30 14 N 3.89206 -0.657058 1.06053 0
M  V30 15 C 4.98302 -1.04804 0.246652 0
M  V30 16 N 4.92937 -2.0582 -0.541934 0
M  V30 17 N 6.19546 -0.30636 0.288771 0
M  V30 18 N 6.53592 0.563582 -0.726807 0 CHG=1
M  V30 19 O 7.27555 0.161035 -1.80339 0 CHG=-1
M  V30 20 O 6.15911 1.75158 -0.663522 0
M  V30 21 C -3.1071 0.839392 -0.52803 0
M  V30 22 C -4.41323 0.466821 -0.848328 0
M  V30 23 H -7.12809 0.257947 0.362426 0
M  V30 24 H -8.10271 -1.12861 0.0725585 0
M  V30 25 H -6.6248 -0.52697 -1.70793 0
M  V30 26 H -6.37138 -2.19882 -1.11071 0
M  V30 27 H -4.45465 -2.58371 0.483071 0
M  V30 28 H -2.13157 -1.93592 1.05881 0
M  V30 29 H -0.37528 -0.352282 1.04954 0
M  V30 30 H -0.867071 2.46959 0.552542 0
M  V30 31 H -0.473224 1.67526 -0.972872 0
M  V30 32 H 1.34352 2.93373 0.258332 0
M  V30 33 H 0.71068 1.05513 2.33141 0
M  V30 34 H 1.29958 2.60549 2.31075 0
M  V30 35 H 3.10419 1.5475 -0.346805 0
M  V30 36 H 1.77634 1.50178 -1.51434 0
M  V30 37 H 2.75938 -0.640929 -1.39254 0
M  V30 38 H 1.06908 -0.735183 -0.820815 0
M  V30 39 H 2.49898 -2.15127 0.477736 0
M  V30 40 H 1.85694 -0.855876 1.51783 0
M  V30 41 H 4.01777 -0.0926848 1.92357 0
M  V30 42 H 4.11962 -2.67531 -0.668294 0
M  V30 43 H 6.82948 -0.429087 1.10341 0
M  V30 44 H -2.77323 1.79923 -0.826089 0
M  V30 45 H -5.05737 1.15072 -1.39044 0
M  V30 END ATOM
M  V30 BEGIN BOND
M  V30 1 1 1 2
M  V30 2 1 2 3
M  V30 3 2 3 4
M  V30 4 1 4 5
M  V30 5 2 5 6
M  V30 6 1 6 7
M  V30 7 1 7 8
M  V30 8 1 8 9
M  V30 9 1 9 10
M  V30 10 1 9 11
M  V30 11 1 11 12
M  V30 12 1 12 13
M  V30 13 1 13 14
M  V30 14 1 14 15
M  V30 15 2 15 16 CFG=2
M  V30 16 1 15 17
M  V30 17 1 17 18
M  V30 18 1 18 19
M  V30 19 2 18 20
M  V30 20 1 6 21
M  V30 21 2 21 22
M  V30 22 1 22 3
M  V30 23 1 1 23
M  V30 24 1 1 24
M  V30 25 1 2 25
M  V30 26 1 2 26
M  V30 27 1 4 27
M  V30 28 1 5 28
M  V30 29 1 7 29
M  V30 30 1 8 30
M  V30 31 1 8 31
M  V30 32 1 9 32 CFG=3
M  V30 33 1 10 33
M  V30 34 1 10 34
M  V30 35 1 11 35
M  V30 36 1 11 36
M  V30 37 1 12 37
M  V30 38 1 12 38
M  V30 39 1 13 39
M  V30 40 1 13 40
M  V30 41 1 14 41
M  V30 42 1 16 42
M  V30 43 1 17 43
M  V30 44 1 21 44
M  V30 45 1 22 45
M  V30 END BOND
M  V30 END CTAB
M  END
