
     RDKit          3D

  0  0  0  0  0  0  0  0  0  0999 V3000
M  V30 BEGIN CTAB
M  V30 COUNTS 18 18 0 0 0
M  V30 BEGIN ATOM
M  V30 1 C 2.47826 0.0224216 0.241982 0
M  V30 2 C 1.07201 0.484926 0.0781595 0
M  V30 3 C 0.0521137 -0.434852 0.0423539 0
M  V30 4 N 0.323688 -1.80471 0.158655 0
M  V30 5 C -1.25349 -0.0193775 -0.108813 0
M  V30 6 N -2.30352 -0.972862 -0.145233 0
M  V30 7 C -1.4984 1.32512 -0.220923 0
M  V30 8 C -0.462696 2.23716 -0.183107 0
M  V30 9 N 0.795275 1.79331 -0.0345723 0
M  V30 10 H 2.77574 -0.405742 -0.758193 0
M  V30 11 H 3.15372 0.861513 0.494679 0
M  V30 12 H 2.60148 -0.742473 1.00908 0
M  V30 13 H 1.24525 -2.18245 0.510747 0
M  V30 14 H -0.372499 -2.55199 -0.0970522 0
M  V30 15 H -2.44705 -1.70844 0.57428 0
M  V30 16 H -2.9672 -0.926978 -0.944574 0
M  V30 17 H -2.52189 1.71751 -0.343835 0
M  V30 18 H -0.670784 3.30792 -0.273639 0
M  V30 END ATOM
M  V30 BEGIN BOND
M  V30 1 1 1 2
M  V30 2 2 2 3
M  V30 3 1 3 4
M  V30 4 1 3 5
M  V30 5 1 5 6
M  V30 6 2 5 7
M  V30 7 1 7 8
M  V30 8 2 8 9
M  V30 9 1 9 2
M  V30 10 1 1 10
M  V30 11 1 1 11
M  V30 12 1 1 12
M  V30 13 1 4 13
M  V30 14 1 4 14
M  V30 15 1 6 15
M  V30 16 1 6 16
M  V30 17 1 7 17
M  V30 18 1 8 18
M  V30 END BOND
M  V30 END CTAB
M  END
