
     RDKit          3D

  0  0  0  0  0  0  0  0  0  0999 V3000
M  V30 BEGIN CTAB
M  V30 COUNTS 22 23 0 0 0
M  V30 BEGIN ATOM
M  V30 1 N 4.32022 1.53099 -0.0494703 0
M  V30 2 C 3.3272 0.522076 -0.272088 0
M  V30 3 S 2.91219 -0.390854 -1.64762 0
M  V30 4 C 1.63187 -1.31915 -0.961007 0
M  V30 5 C 1.61277 -0.844165 0.324118 0
M  V30 6 N 2.48103 0.0805076 0.62985 0
M  V30 7 C 0.617837 -1.36124 1.33737 0
M  V30 8 S -0.815237 -0.308971 1.43035 0
M  V30 9 C -1.83008 -0.294688 -0.0250337 0
M  V30 10 N -1.73546 -0.923696 -1.18429 0
M  V30 11 N -2.73222 -0.601642 -1.97836 0
M  V30 12 C -3.50205 0.268665 -1.30929 0
M  V30 13 N -2.95778 0.471152 -0.0951359 0
M  V30 14 N -3.45766 1.30892 0.901846 0
M  V30 15 H 5.24557 1.24106 0.275194 0
M  V30 16 H 4.08674 2.5292 -0.219526 0
M  V30 17 H 1.00962 -2.09241 -1.44209 0
M  V30 18 H 1.13038 -1.34162 2.31189 0
M  V30 19 H 0.378713 -2.42192 1.10824 0
M  V30 20 H -4.41809 0.724628 -1.70902 0
M  V30 21 H -3.34368 2.33561 0.873865 0
M  V30 22 H -3.96189 0.887542 1.7002 0
M  V30 END ATOM
M  V30 BEGIN BOND
M  V30 1 1 1 2
M  V30 2 1 2 3
M  V30 3 1 3 4
M  V30 4 2 4 5
M  V30 5 1 5 6
M  V30 6 1 5 7
M  V30 7 1 7 8
M  V30 8 1 8 9
M  V30 9 2 9 10
M  V30 10 1 10 11
M  V30 11 2 11 12
M  V30 12 1 12 13
M  V30 13 1 13 14
M  V30 14 2 6 2
M  V30 15 1 13 9
M  V30 16 1 1 15
M  V30 17 1 1 16
M  V30 18 1 4 17
M  V30 19 1 7 18
M  V30 20 1 7 19
M  V30 21 1 12 20
M  V30 22 1 14 21
M  V30 23 1 14 22
M  V30 END BOND
M  V30 END CTAB
M  END
