
     RDKit          3D

  0  0  0  0  0  0  0  0  0  0999 V3000
M  V30 BEGIN CTAB
M  V30 COUNTS 28 28 0 0 0
M  V30 BEGIN ATOM
M  V30 1 N 2.55349 1.99133 0.893125 0
M  V30 2 N 2.18543 0.655156 1.05063 0
M  V30 3 C 2.4494 -0.213234 0.143368 0
M  V30 4 N 2.05874 -1.55943 0.341842 0
M  V30 5 C 0.876249 -2.12258 -0.321621 0
M  V30 6 C -0.341375 -1.35086 0.0886758 0
M  V30 7 C -1.0922 -1.71017 1.19029 0
M  V30 8 C -2.21757 -1.00897 1.58185 0
M  V30 9 C -2.60006 0.0974076 0.832994 0
M  V30 10 C -1.87639 0.486838 -0.272598 0
M  V30 11 C -0.762522 -0.245334 -0.621408 0
M  V30 12 C -2.2724 1.67675 -1.09302 0
M  V30 13 O -3.40239 2.28309 -0.60169 0
M  V30 14 N 3.12404 0.199422 -1.03081 0
M  V30 15 H 1.83205 2.72884 0.765909 0
M  V30 16 H 3.57113 2.23054 0.90641 0
M  V30 17 H 2.64988 -2.13274 0.981265 0
M  V30 18 H 1.01492 -1.96501 -1.40514 0
M  V30 19 H 0.795764 -3.18505 -0.0442726 0
M  V30 20 H -0.799932 -2.56894 1.77616 0
M  V30 21 H -2.79735 -1.3088 2.45524 0
M  V30 22 H -3.48138 0.682251 1.10336 0
M  V30 23 H -0.202297 0.0709896 -1.49242 0
M  V30 24 H -1.3837 2.36084 -1.10945 0
M  V30 25 H -2.39957 1.35013 -2.15134 0
M  V30 26 H -4.18918 1.81427 -0.999316 0
M  V30 27 H 2.6124 0.810675 -1.69962 0
M  V30 28 H 4.0948 -0.0674205 -1.26842 0
M  V30 END ATOM
M  V30 BEGIN BOND
M  V30 1 1 1 2
M  V30 2 2 2 3 CFG=2
M  V30 3 1 3 4
M  V30 4 1 4 5
M  V30 5 1 5 6
M  V30 6 2 6 7
M  V30 7 1 7 8
M  V30 8 2 8 9
M  V30 9 1 9 10
M  V30 10 2 10 11
M  V30 11 1 10 12
M  V30 12 1 12 13
M  V30 13 1 3 14
M  V30 14 1 11 6
M  V30 15 1 1 15
M  V30 16 1 1 16
M  V30 17 1 4 17
M  V30 18 1 5 18
M  V30 19 1 5 19
M  V30 20 1 7 20
M  V30 21 1 8 21
M  V30 22 1 9 22
M  V30 23 1 11 23
M  V30 24 1 12 24
M  V30 25 1 12 25
M  V30 26 1 13 26
M  V30 27 1 14 27
M  V30 28 1 14 28
M  V30 END BOND
M  V30 END CTAB
M  END
