
     RDKit          3D

  0  0  0  0  0  0  0  0  0  0999 V3000
M  V30 BEGIN CTAB
M  V30 COUNTS 24 24 0 0 0
M  V30 BEGIN ATOM
M  V30 1 N -2.01902 -2.52554 0.786416 0
M  V30 2 C -2.30938 -1.25168 0.198512 0
M  V30 3 N -3.51907 -0.966433 -0.100247 0
M  V30 4 C -1.22697 -0.321388 -0.0418335 0
M  V30 5 C 0.0852342 -0.671053 0.29943 0
M  V30 6 C 1.1485 0.170157 0.0944472 0
M  V30 7 C 0.881271 1.39844 -0.470491 0
M  V30 8 C -0.392144 1.7931 -0.825357 0
M  V30 9 C -1.44171 0.91924 -0.604392 0
M  V30 10 N -0.608699 3.08005 -1.40801 0 CHG=1
M  V30 11 O 0.347012 3.83592 -1.59219 0
M  V30 12 O -1.87219 3.4788 -1.76314 0 CHG=-1
M  V30 13 C 2.52066 -0.215217 0.45977 0
M  V30 14 N 3.47899 0.605329 0.24831 0
M  V30 15 N 2.80955 -1.47682 1.04216 0
M  V30 16 H -2.25255 -3.38772 0.252525 0
M  V30 17 H -1.58336 -2.55197 1.72949 0
M  V30 18 H -3.86014 -0.0902385 -0.525258 0
M  V30 19 H 0.235462 -1.64943 0.740275 0
M  V30 20 H 1.7155 2.08358 -0.642081 0
M  V30 21 H -2.4137 1.26514 -0.89438 0
M  V30 22 H 4.45339 0.347266 0.501056 0
M  V30 23 H 2.33505 -1.76105 1.9477 0
M  V30 24 H 3.48832 -2.1085 0.567283 0
M  V30 END ATOM
M  V30 BEGIN BOND
M  V30 1 1 1 2
M  V30 2 2 2 3 CFG=2
M  V30 3 1 2 4
M  V30 4 2 4 5
M  V30 5 1 5 6
M  V30 6 2 6 7
M  V30 7 1 7 8
M  V30 8 2 8 9
M  V30 9 1 8 10
M  V30 10 2 10 11
M  V30 11 1 10 12
M  V30 12 1 6 13
M  V30 13 2 13 14 CFG=2
M  V30 14 1 13 15
M  V30 15 1 9 4
M  V30 16 1 1 16
M  V30 17 1 1 17
M  V30 18 1 3 18
M  V30 19 1 5 19
M  V30 20 1 7 20
M  V30 21 1 9 21
M  V30 22 1 14 22
M  V30 23 1 15 23
M  V30 24 1 15 24
M  V30 END BOND
M  V30 END CTAB
M  END
