
     RDKit          3D

  0  0  0  0  0  0  0  0  0  0999 V3000
M  V30 BEGIN CTAB
M  V30 COUNTS 30 29 0 0 0
M  V30 BEGIN ATOM
M  V30 1 C 3.7991 0.422691 0.653951 0
M  V30 2 C 2.41089 1.00189 0.341735 0
M  V30 3 C 1.35835 -0.0779829 0.42731 0
M  V30 4 C -0.00873934 0.402074 0.146725 0
M  V30 5 N -0.0953603 0.952221 -1.18852 0
M  V30 6 C -1.09185 -0.61914 0.298724 0
M  V30 7 C -2.46675 -0.0670032 -0.00180108 0
M  V30 8 C -2.82603 1.0838 0.919887 0
M  V30 9 C -0.882234 -1.8815 -0.449683 0
M  V30 10 N -0.772074 -1.70029 -1.88013 0
M  V30 11 H 3.72681 -0.324564 1.47481 0
M  V30 12 H 4.51581 1.21846 0.852212 0
M  V30 13 H 4.10711 -0.116824 -0.266172 0
M  V30 14 H 2.242 1.77711 1.12632 0
M  V30 15 H 2.51697 1.45145 -0.665312 0
M  V30 16 H 1.67494 -0.866998 -0.319721 0
M  V30 17 H 1.48926 -0.567143 1.4116 0
M  V30 18 H -0.205925 1.27459 0.837983 0
M  V30 19 H -1.01505 1.48072 -1.2726 0
M  V30 20 H 0.675372 1.57184 -1.45256 0
M  V30 21 H -1.11494 -0.893548 1.39564 0
M  V30 22 H -3.17292 -0.916345 0.201954 0
M  V30 23 H -2.60506 0.246705 -1.04015 0
M  V30 24 H -2.1505 1.15086 1.79701 0
M  V30 25 H -2.81654 2.04871 0.337921 0
M  V30 26 H -3.85184 0.942903 1.30468 0
M  V30 27 H -0.0250228 -2.47514 -0.0397717 0
M  V30 28 H -1.77812 -2.52497 -0.284225 0
M  V30 29 H -1.65913 -1.79018 -2.38362 0
M  V30 30 H 0.0214608 -2.20441 -2.30595 0
M  V30 END ATOM
M  V30 BEGIN BOND
M  V30 1 1 1 2
M  V30 2 1 2 3
M  V30 3 1 3 4
M  V30 4 1 4 5
M  V30 5 1 4 6
M  V30 6 1 6 7
M  V30 7 1 7 8
M  V30 8 1 6 9
M  V30 9 1 9 10
M  V30 10 1 1 11
M  V30 11 1 1 12
M  V30 12 1 1 13
M  V30 13 1 2 14
M  V30 14 1 2 15
M  V30 15 1 3 16
M  V30 16 1 3 17
M  V30 17 1 4 18
M  V30 18 1 5 19
M  V30 19 1 5 20
M  V30 20 1 6 21
M  V30 21 1 7 22
M  V30 22 1 7 23
M  V30 23 1 8 24
M  V30 24 1 8 25
M  V30 25 1 8 26
M  V30 26 1 9 27
M  V30 27 1 9 28
M  V30 28 1 10 29
M  V30 29 1 10 30
M  V30 END BOND
M  V30 END CTAB
M  END
