
     RDKit          3D

  0  0  0  0  0  0  0  0  0  0999 V3000
M  V30 BEGIN CTAB
M  V30 COUNTS 28 28 0 0 0
M  V30 BEGIN ATOM
M  V30 1 C 0.734597 -1.96577 -0.00651216 0
M  V30 2 C 0.826249 -0.486193 -0.137578 0
M  V30 3 C -0.255935 0.304857 -0.458466 0
M  V30 4 C -1.52225 -0.302556 -0.866176 0
M  V30 5 C -2.32754 -0.772225 0.343165 0
M  V30 6 N -2.59865 0.198996 1.31893 0
M  V30 7 N -2.39314 0.774115 -1.41287 0
M  V30 8 C -0.104779 1.67119 -0.500785 0
M  V30 9 C 1.11595 2.27582 -0.232654 0
M  V30 10 C 2.20779 1.49084 0.0848954 0
M  V30 11 C 2.04302 0.116675 0.132042 0
M  V30 12 C 3.17943 -0.728441 0.578273 0
M  V30 13 H 1.67816 -2.46632 -0.20873 0
M  V30 14 H 0.446806 -2.23759 1.05102 0
M  V30 15 H -0.0181382 -2.40499 -0.689168 0
M  V30 16 H -1.43808 -1.0911 -1.58577 0
M  V30 17 H -3.31418 -1.11396 -0.0861242 0
M  V30 18 H -1.89591 -1.69472 0.794843 0
M  V30 19 H -3.37291 0.805577 1.12882 0
M  V30 20 H -2.15845 0.156084 2.22333 0
M  V30 21 H -2.65239 1.43686 -0.649455 0
M  V30 22 H -2.07915 1.15954 -2.28335 0
M  V30 23 H -0.900742 2.35272 -0.738037 0
M  V30 24 H 1.25359 3.35446 -0.282541 0
M  V30 25 H 3.15177 1.94678 0.298835 0
M  V30 26 H 3.99842 -0.0633955 0.958665 0
M  V30 27 H 3.60058 -1.35546 -0.196842 0
M  V30 28 H 2.79589 -1.36181 1.42224 0
M  V30 END ATOM
M  V30 BEGIN BOND
M  V30 1 1 1 2
M  V30 2 2 2 3
M  V30 3 1 3 4
M  V30 4 1 4 5
M  V30 5 1 5 6
M  V30 6 1 4 7
M  V30 7 1 3 8
M  V30 8 2 8 9
M  V30 9 1 9 10
M  V30 10 2 10 11
M  V30 11 1 11 12
M  V30 12 1 11 2
M  V30 13 1 1 13
M  V30 14 1 1 14
M  V30 15 1 1 15
M  V30 16 1 4 16
M  V30 17 1 5 17
M  V30 18 1 5 18
M  V30 19 1 6 19
M  V30 20 1 6 20
M  V30 21 1 7 21
M  V30 22 1 7 22
M  V30 23 1 8 23
M  V30 24 1 9 24
M  V30 25 1 10 25
M  V30 26 1 12 26
M  V30 27 1 12 27
M  V30 28 1 12 28
M  V30 END BOND
M  V30 END CTAB
M  END
