
     RDKit          3D

  0  0  0  0  0  0  0  0  0  0999 V3000
M  V30 BEGIN CTAB
M  V30 COUNTS 32 32 0 0 0
M  V30 BEGIN ATOM
M  V30 1 N 4.39522 1.52605 1.04488 0
M  V30 2 C 3.27679 0.862638 0.475598 0
M  V30 3 C 2.47004 1.48206 -0.469267 0
M  V30 4 C 1.38088 0.86025 -1.03604 0
M  V30 5 C 1.0523 -0.427465 -0.672165 0
M  V30 6 C 1.84097 -1.08317 0.27602 0
M  V30 7 C 2.92111 -0.42199 0.81647 0
M  V30 8 C 1.55083 -2.47209 0.717745 0
M  V30 9 S -0.320709 -1.27445 -1.35897 0
M  V30 10 C -1.85476 -1.16451 -0.483736 0
M  V30 11 C -2.52538 0.160756 -0.422019 0
M  V30 12 N -2.84361 0.700613 -1.72997 0
M  V30 13 C -1.79834 1.21235 0.365055 0
M  V30 14 C -3.90273 -0.0150733 0.265067 0
M  V30 15 H 4.88451 1.10608 1.85311 0
M  V30 16 H 4.73695 2.43125 0.665639 0
M  V30 17 H 2.74421 2.50731 -0.749154 0
M  V30 18 H 0.802282 1.41762 -1.76858 0
M  V30 19 H 3.52293 -0.944153 1.55059 0
M  V30 20 H 2.55221 -2.96582 0.889839 0
M  V30 21 H 1.02741 -2.49324 1.67231 0
M  V30 22 H 1.07618 -3.07039 -0.0821077 0
M  V30 23 H -1.67601 -1.50957 0.566226 0
M  V30 24 H -2.58064 -1.871 -0.993467 0
M  V30 25 H -3.09849 -0.0445832 -2.41253 0
M  V30 26 H -2.11524 1.35012 -2.08857 0
M  V30 27 H -2.5147 1.68087 1.09804 0
M  V30 28 H -1.01185 0.704956 0.959634 0
M  V30 29 H -1.39723 2.02446 -0.29713 0
M  V30 30 H -4.55898 -0.645825 -0.355539 0
M  V30 31 H -3.69984 -0.586514 1.19579 0
M  V30 32 H -4.33629 0.96246 0.50724 0
M  V30 END ATOM
M  V30 BEGIN BOND
M  V30 1 1 1 2
M  V30 2 2 2 3
M  V30 3 1 3 4
M  V30 4 2 4 5
M  V30 5 1 5 6
M  V30 6 2 6 7
M  V30 7 1 6 8
M  V30 8 1 5 9
M  V30 9 1 9 10
M  V30 10 1 10 11
M  V30 11 1 11 12
M  V30 12 1 11 13
M  V30 13 1 11 14
M  V30 14 1 7 2
M  V30 15 1 1 15
M  V30 16 1 1 16
M  V30 17 1 3 17
M  V30 18 1 4 18
M  V30 19 1 7 19
M  V30 20 1 8 20
M  V30 21 1 8 21
M  V30 22 1 8 22
M  V30 23 1 10 23
M  V30 24 1 10 24
M  V30 25 1 12 25
M  V30 26 1 12 26
M  V30 27 1 13 27
M  V30 28 1 13 28
M  V30 29 1 13 29
M  V30 30 1 14 30
M  V30 31 1 14 31
M  V30 32 1 14 32
M  V30 END BOND
M  V30 END CTAB
M  END
