
     RDKit          3D

  0  0  0  0  0  0  0  0  0  0999 V3000
M  V30 BEGIN CTAB
M  V30 COUNTS 24 25 0 0 0
M  V30 BEGIN ATOM
M  V30 1 N 3.8678 1.06584 -0.204813 0
M  V30 2 C 2.78744 0.159996 -0.042813 0
M  V30 3 C 3.02094 -1.16919 0.184229 0
M  V30 4 C 1.92554 -1.99662 0.332851 0
M  V30 5 N 0.654948 -1.52287 0.258899 0
M  V30 6 C 0.400579 -0.220976 0.03667 0
M  V30 7 C 1.48279 0.616528 -0.113603 0
M  V30 8 C -0.946831 0.31127 -0.04687 0
M  V30 9 N -1.11733 1.62147 -0.271018 0
M  V30 10 C -2.31871 2.20734 -0.364621 0
M  V30 11 C -3.45597 1.43318 -0.224881 0
M  V30 12 C -3.3588 0.0843204 0.00634363 0
M  V30 13 C -2.07902 -0.460812 0.09248 0
M  V30 14 N -1.95812 -1.85228 0.33088 0
M  V30 15 H 4.70888 0.732614 -0.725888 0
M  V30 16 H 3.76784 2.01996 0.204943 0
M  V30 17 H 4.03075 -1.59057 0.250719 0
M  V30 18 H 2.12878 -3.04748 0.512236 0
M  V30 19 H 1.30013 1.68484 -0.296106 0
M  V30 20 H -2.34476 3.26895 -0.546905 0
M  V30 21 H -4.41085 1.93552 -0.305586 0
M  V30 22 H -4.25478 -0.49746 0.111603 0
M  V30 23 H -2.19746 -2.53844 -0.417817 0
M  V30 24 H -1.63379 -2.24514 1.23907 0
M  V30 END ATOM
M  V30 BEGIN BOND
M  V30 1 1 1 2
M  V30 2 2 2 3
M  V30 3 1 3 4
M  V30 4 2 4 5
M  V30 5 1 5 6
M  V30 6 2 6 7
M  V30 7 1 6 8
M  V30 8 2 8 9
M  V30 9 1 9 10
M  V30 10 2 10 11
M  V30 11 1 11 12
M  V30 12 2 12 13
M  V30 13 1 13 14
M  V30 14 1 7 2
M  V30 15 1 13 8
M  V30 16 1 1 15
M  V30 17 1 1 16
M  V30 18 1 3 17
M  V30 19 1 4 18
M  V30 20 1 7 19
M  V30 21 1 10 20
M  V30 22 1 11 21
M  V30 23 1 12 22
M  V30 24 1 14 23
M  V30 25 1 14 24
M  V30 END BOND
M  V30 END CTAB
M  END
