
     RDKit          3D

  0  0  0  0  0  0  0  0  0  0999 V3000
M  V30 BEGIN CTAB
M  V30 COUNTS 93 97 0 0 0
M  V30 BEGIN ATOM
M  V30 1 C 1.11828 0.511653 0.527357 0 CFG=2
M  V30 2 O 2.41775 0.253802 0.865087 0
M  V30 3 C 3.16207 -0.35968 -0.145154 0 CFG=1
M  V30 4 O 4.13255 0.547946 -0.536331 0
M  V30 5 C 5.48679 0.291268 -0.504664 0
M  V30 6 C 6.49187 1.3498 -0.340188 0
M  V30 7 N 7.83863 0.901656 -0.233224 0
M  V30 8 C 8.09101 0.314426 1.05143 0
M  V30 9 C 9.51238 -0.226518 1.17875 0
M  V30 10 C 10.6834 0.691417 1.02794 0
M  V30 11 C 10.3868 -0.395836 0.0162073 0
M  V30 12 C 5.87366 -0.967375 -0.627613 0
M  V30 13 C 4.80799 -2.04069 -0.788951 0
M  V30 14 C 3.73078 -1.66725 0.248645 0 CFG=1
M  V30 15 N 4.46549 -1.53865 1.50824 0
M  V30 16 C 0.862589 1.99231 0.686656 0 CFG=1
M  V30 17 N 0.498302 2.53256 -0.598839 0
M  V30 18 C -0.243419 2.28071 1.64185 0
M  V30 19 C -1.48723 1.47939 1.51672 0 CFG=1
M  V30 20 N -2.31357 2.19681 0.530958 0
M  V30 21 C -3.4258 2.93055 0.973872 0
M  V30 22 O -3.7049 2.96202 2.21887 0
M  V30 23 C -4.31604 3.6939 0.0584787 0
M  V30 24 O -5.30839 4.37464 0.786391 0
M  V30 25 C -5.04147 2.80152 -0.923883 0
M  V30 26 C -5.92291 3.61699 -1.82895 0
M  V30 27 N -7.06672 3.44949 -0.946165 0
M  V30 28 C -6.35053 2.35024 -0.293253 0
M  V30 29 C -1.1825 0.0772379 1.12478 0 CFG=2
M  V30 30 O -2.09058 -0.865608 1.55533 0
M  V30 31 C -2.68367 -1.63842 0.581696 0 CFG=1
M  V30 32 O -2.49165 -3.00415 0.801698 0
M  V30 33 C -2.8339 -3.75179 -0.29547 0
M  V30 34 C -4.19291 -3.46635 -0.835176 0 CFG=2
M  V30 35 C -5.04397 -4.74167 -0.924235 0
M  V30 36 O -4.17349 -2.92098 -2.10323 0
M  V30 37 C -4.95262 -2.56753 0.147969 0 CFG=2
M  V30 38 N -6.28226 -2.30063 -0.312403 0
M  V30 39 C -6.37188 -1.60213 -1.5459 0
M  V30 40 C -4.17208 -1.38492 0.602481 0 CFG=1
M  V30 41 O -4.60644 -1.06442 1.90481 0
M  V30 42 C 0.233 -0.251872 1.53137 0 CFG=1
M  V30 43 O 0.555587 -1.57995 1.41974 0
M  V30 44 H 0.793878 0.205745 -0.468998 0
M  V30 45 H 2.52358 -0.541636 -1.05148 0
M  V30 46 H 6.1962 2.02136 0.504449 0
M  V30 47 H 6.45373 2.01716 -1.25501 0
M  V30 48 H 8.13892 0.252892 -0.968224 0
M  V30 49 H 7.38004 -0.437753 1.40268 0
M  V30 50 H 8.03597 1.18878 1.77677 0
M  V30 51 H 9.59887 -0.958201 2.01555 0
M  V30 52 H 10.5542 1.72926 0.677448 0
M  V30 53 H 11.5745 0.525861 1.68611 0
M  V30 54 H 11.0825 -1.28524 0.0254223 0
M  V30 55 H 10.1283 -0.0922111 -1.01675 0
M  V30 56 H 6.8782 -1.32849 -0.649007 0
M  V30 57 H 5.22085 -3.0407 -0.616839 0
M  V30 58 H 4.40567 -1.95711 -1.80694 0
M  V30 59 H 3.03237 -2.51427 0.248106 0
M  V30 60 H 3.94943 -0.933032 2.17504 0
M  V30 61 H 4.73322 -2.46636 1.89768 0
M  V30 62 H 1.77022 2.49714 1.05006 0
M  V30 63 H 1.34546 2.86105 -1.14282 0
M  V30 64 H -0.048207 3.43124 -0.430523 0
M  V30 65 H 0.17494 2.20604 2.68834 0
M  V30 66 H -0.521141 3.3698 1.55073 0
M  V30 67 H -2.03082 1.52051 2.50699 0
M  V30 68 H -2.07274 2.15345 -0.466098 0
M  V30 69 H -3.71531 4.4419 -0.475252 0
M  V30 70 H -5.17759 5.36187 0.705949 0
M  V30 71 H -4.46085 1.98897 -1.37853 0
M  V30 72 H -5.66315 4.68429 -1.92053 0
M  V30 73 H -6.08794 3.1892 -2.84467 0
M  V30 74 H -7.93782 3.10478 -1.403 0
M  V30 75 H -6.71991 1.36178 -0.606585 0
M  V30 76 H -6.38036 2.45551 0.820726 0
M  V30 77 H -1.18002 0.00957817 0.00927172 0
M  V30 78 H -2.30941 -1.3284 -0.413399 0
M  V30 79 H -2.81449 -4.83574 0.014859 0
M  V30 80 H -2.09958 -3.68774 -1.12702 0
M  V30 81 H -5.57914 -4.90201 0.0549524 0
M  V30 82 H -4.45084 -5.61231 -1.22706 0
M  V30 83 H -5.85048 -4.59367 -1.67013 0
M  V30 84 H -3.78654 -3.61543 -2.70232 0
M  V30 85 H -5.08854 -3.23111 1.0543 0
M  V30 86 H -6.88279 -1.9828 0.455157 0
M  V30 87 H -5.56027 -0.891111 -1.75326 0
M  V30 88 H -6.53275 -2.26769 -2.43158 0
M  V30 89 H -7.31317 -0.979988 -1.50357 0
M  V30 90 H -4.34883 -0.470948 0.00560963 0
M  V30 91 H -4.57074 -0.0961755 2.05744 0
M  V30 92 H 0.519367 0.139397 2.51697 0
M  V30 93 H 0.602949 -1.93135 0.511637 0
M  V30 END ATOM
M  V30 BEGIN BOND
M  V30 1 1 1 2
M  V30 2 1 2 3
M  V30 3 1 3 4
M  V30 4 1 4 5
M  V30 5 1 5 6
M  V30 6 1 6 7
M  V30 7 1 7 8
M  V30 8 1 8 9
M  V30 9 1 9 10
M  V30 10 1 10 11
M  V30 11 2 5 12
M  V30 12 1 12 13
M  V30 13 1 13 14
M  V30 14 1 14 15
M  V30 15 1 1 16
M  V30 16 1 16 17
M  V30 17 1 16 18
M  V30 18 1 18 19
M  V30 19 1 19 20
M  V30 20 1 20 21
M  V30 21 2 21 22
M  V30 22 1 21 23
M  V30 23 1 23 24
M  V30 24 1 23 25
M  V30 25 1 25 26
M  V30 26 1 26 27
M  V30 27 1 27 28
M  V30 28 1 19 29
M  V30 29 1 29 30
M  V30 30 1 30 31
M  V30 31 1 31 32
M  V30 32 1 32 33
M  V30 33 1 33 34
M  V30 34 1 34 35
M  V30 35 1 34 36 CFG=3
M  V30 36 1 34 37
M  V30 37 1 37 38
M  V30 38 1 38 39
M  V30 39 1 37 40
M  V30 40 1 40 41
M  V30 41 1 29 42
M  V30 42 1 42 43
M  V30 43 1 42 1
M  V30 44 1 14 3
M  V30 45 1 28 25
M  V30 46 1 40 31
M  V30 47 1 11 9
M  V30 48 1 1 44 CFG=3
M  V30 49 1 3 45 CFG=3
M  V30 50 1 6 46
M  V30 51 1 6 47
M  V30 52 1 7 48
M  V30 53 1 8 49
M  V30 54 1 8 50
M  V30 55 1 9 51
M  V30 56 1 10 52
M  V30 57 1 10 53
M  V30 58 1 11 54
M  V30 59 1 11 55
M  V30 60 1 12 56
M  V30 61 1 13 57
M  V30 62 1 13 58
M  V30 63 1 14 59 CFG=1
M  V30 64 1 15 60
M  V30 65 1 15 61
M  V30 66 1 16 62 CFG=1
M  V30 67 1 17 63
M  V30 68 1 17 64
M  V30 69 1 18 65
M  V30 70 1 18 66
M  V30 71 1 19 67 CFG=1
M  V30 72 1 20 68
M  V30 73 1 23 69
M  V30 74 1 24 70
M  V30 75 1 25 71
M  V30 76 1 26 72
M  V30 77 1 26 73
M  V30 78 1 27 74
M  V30 79 1 28 75
M  V30 80 1 28 76
M  V30 81 1 29 77 CFG=3
M  V30 82 1 31 78 CFG=3
M  V30 83 1 33 79
M  V30 84 1 33 80
M  V30 85 1 35 81
M  V30 86 1 35 82
M  V30 87 1 35 83
M  V30 88 1 36 84
M  V30 89 1 37 85 CFG=1
M  V30 90 1 38 86
M  V30 91 1 39 87
M  V30 92 1 39 88
M  V30 93 1 39 89
M  V30 94 1 40 90 CFG=3
M  V30 95 1 41 91
M  V30 96 1 42 92 CFG=1
M  V30 97 1 43 93
M  V30 END BOND
M  V30 END CTAB
M  END
