
     RDKit          3D

  0  0  0  0  0  0  0  0  0  0999 V3000
M  V30 BEGIN CTAB
M  V30 COUNTS 21 22 0 0 0
M  V30 BEGIN ATOM
M  V30 1 N -1.46621 -2.36768 0.483534 0
M  V30 2 C -1.59754 -0.995152 0.142127 0
M  V30 3 C -0.488319 -0.183069 -0.0920078 0
M  V30 4 C -0.590064 1.14425 -0.422834 0
M  V30 5 S 0.891533 2.13986 -0.713363 0
M  V30 6 C 2.33625 1.07896 -0.485976 0
M  V30 7 N 2.96168 0.337583 -1.38926 0
M  V30 8 C 3.9892 -0.366452 -1.04983 0
M  V30 9 C 4.39576 -0.313343 0.26133 0
M  V30 10 S 3.24639 0.768473 0.925731 0
M  V30 11 N -1.80473 1.67639 -0.523558 0
M  V30 12 C -2.90047 0.921353 -0.304098 0
M  V30 13 N -2.79589 -0.389678 0.0225149 0
M  V30 14 N -4.21743 1.4503 -0.400995 0
M  V30 15 H -2.21753 -2.82632 1.03919 0
M  V30 16 H -0.641154 -2.93462 0.196458 0
M  V30 17 H 0.49004 -0.625689 -0.00747547 0
M  V30 18 H 4.54616 -1.00355 -1.77133 0
M  V30 19 H 5.24723 -0.845731 0.723775 0
M  V30 20 H -4.84765 1.30354 -1.19888 0
M  V30 21 H -4.53726 2.03056 0.424557 0
M  V30 END ATOM
M  V30 BEGIN BOND
M  V30 1 1 1 2
M  V30 2 2 2 3
M  V30 3 1 3 4
M  V30 4 1 4 5
M  V30 5 1 5 6
M  V30 6 2 6 7
M  V30 7 1 7 8
M  V30 8 2 8 9
M  V30 9 1 9 10
M  V30 10 2 4 11
M  V30 11 1 11 12
M  V30 12 2 12 13
M  V30 13 1 12 14
M  V30 14 1 13 2
M  V30 15 1 10 6
M  V30 16 1 1 15
M  V30 17 1 1 16
M  V30 18 1 3 17
M  V30 19 1 8 18
M  V30 20 1 9 19
M  V30 21 1 14 20
M  V30 22 1 14 21
M  V30 END BOND
M  V30 END CTAB
M  END
