
     RDKit          3D

  0  0  0  0  0  0  0  0  0  0999 V3000
M  V30 BEGIN CTAB
M  V30 COUNTS 47 46 0 0 0
M  V30 BEGIN ATOM
M  V30 1 C -3.00119 1.60804 0.200378 0
M  V30 2 C -3.86791 0.514282 0.701199 0
M  V30 3 C -5.19867 1.11791 1.10875 0
M  V30 4 C -4.10632 -0.616548 -0.211064 0 CFG=1
M  V30 5 N -4.73718 -0.150092 -1.42184 0
M  V30 6 C -2.94983 -1.45929 -0.566953 0
M  V30 7 O -2.5824 -1.69606 -1.72902 0
M  V30 8 N -2.21586 -2.03353 0.500819 0
M  V30 9 C -1.07424 -2.86173 0.242442 0
M  V30 10 C 0.0315655 -2.1314 -0.460557 0
M  V30 11 C 0.427307 -0.980243 0.457888 0
M  V30 12 N 1.4705 -0.156184 -0.0480586 0
M  V30 13 C 2.75568 -0.648616 -0.329583 0
M  V30 14 O 3.02238 -1.85182 -0.139616 0
M  V30 15 C 3.83018 0.219858 -0.855761 0 CFG=2
M  V30 16 N 4.97568 -0.59625 -1.29329 0
M  V30 17 C 4.40006 1.16442 0.200708 0
M  V30 18 C 5.48942 1.9556 -0.545973 0
M  V30 19 C 3.38706 2.12714 0.744202 0
M  V30 20 H -1.91952 1.51591 0.510209 0
M  V30 21 H -3.32906 2.55896 0.672649 0
M  V30 22 H -3.08248 1.7769 -0.896781 0
M  V30 23 H -3.40945 0.150654 1.66887 0
M  V30 24 H -5.87538 0.387386 1.56324 0
M  V30 25 H -5.67347 1.46819 0.14588 0
M  V30 26 H -5.08341 1.97263 1.80099 0
M  V30 27 H -4.85229 -1.30041 0.281695 0
M  V30 28 H -4.10834 0.376634 -2.05011 0
M  V30 29 H -5.32843 -0.849519 -1.88101 0
M  V30 30 H -2.51272 -1.85033 1.51914 0
M  V30 31 H -1.33104 -3.75718 -0.368123 0
M  V30 32 H -0.664939 -3.24049 1.21006 0
M  V30 33 H 0.880789 -2.8529 -0.597148 0
M  V30 34 H -0.240619 -1.75192 -1.45704 0
M  V30 35 H -0.514123 -0.412953 0.628977 0
M  V30 36 H 0.723247 -1.4892 1.42184 0
M  V30 37 H 1.25254 0.86082 -0.221559 0
M  V30 38 H 3.51636 0.827015 -1.70275 0
M  V30 39 H 5.03238 -0.607897 -2.32831 0
M  V30 40 H 4.94259 -1.53827 -0.863017 0
M  V30 41 H 4.8554 0.621252 1.03899 0
M  V30 42 H 6.39516 1.30131 -0.5917 0
M  V30 43 H 5.13449 2.15217 -1.58174 0
M  V30 44 H 5.70553 2.90853 -0.0641161 0
M  V30 45 H 2.72446 1.62825 1.47674 0
M  V30 46 H 2.80875 2.63792 -0.0606457 0
M  V30 47 H 3.89735 2.98105 1.28857 0
M  V30 END ATOM
M  V30 BEGIN BOND
M  V30 1 1 1 2
M  V30 2 1 2 3
M  V30 3 1 2 4
M  V30 4 1 4 5
M  V30 5 1 4 6
M  V30 6 2 6 7
M  V30 7 1 6 8
M  V30 8 1 8 9
M  V30 9 1 9 10
M  V30 10 1 10 11
M  V30 11 1 11 12
M  V30 12 1 12 13
M  V30 13 2 13 14
M  V30 14 1 13 15
M  V30 15 1 15 16
M  V30 16 1 15 17
M  V30 17 1 17 18
M  V30 18 1 17 19
M  V30 19 1 1 20
M  V30 20 1 1 21
M  V30 21 1 1 22
M  V30 22 1 2 23
M  V30 23 1 3 24
M  V30 24 1 3 25
M  V30 25 1 3 26
M  V30 26 1 4 27 CFG=1
M  V30 27 1 5 28
M  V30 28 1 5 29
M  V30 29 1 8 30
M  V30 30 1 9 31
M  V30 31 1 9 32
M  V30 32 1 10 33
M  V30 33 1 10 34
M  V30 34 1 11 35
M  V30 35 1 11 36
M  V30 36 1 12 37
M  V30 37 1 15 38 CFG=3
M  V30 38 1 16 39
M  V30 39 1 16 40
M  V30 40 1 17 41
M  V30 41 1 18 42
M  V30 42 1 18 43
M  V30 43 1 18 44
M  V30 44 1 19 45
M  V30 45 1 19 46
M  V30 46 1 19 47
M  V30 END BOND
M  V30 END CTAB
M  END
