
     RDKit          3D

  0  0  0  0  0  0  0  0  0  0999 V3000
M  V30 BEGIN CTAB
M  V30 COUNTS 19 19 0 0 0
M  V30 BEGIN ATOM
M  V30 1 F -0.370464 2.22087 1.54078 0
M  V30 2 C 0.173724 1.92082 0.28824 0
M  V30 3 C 0.00677296 0.478339 0.0680452 0
M  V30 4 C -1.25731 -0.0596234 -0.0590878 0
M  V30 5 N -2.3558 0.809843 0.028734 0
M  V30 6 C -1.35626 -1.42055 -0.264657 0
M  V30 7 C -0.230713 -2.23309 -0.343035 0
M  V30 8 C 1.03355 -1.69468 -0.215827 0
M  V30 9 C 1.1254 -0.338371 -0.0112058 0
M  V30 10 N 2.44765 0.211511 0.119909 0
M  V30 11 Cl 2.48386 -2.68532 -0.308448 0
M  V30 12 F -0.467353 2.66468 -0.675234 0
M  V30 13 H 1.24991 2.18116 0.367173 0
M  V30 14 H -2.87668 1.03177 -0.847886 0
M  V30 15 H -2.7161 1.26848 0.894274 0
M  V30 16 H -2.34312 -1.84701 -0.364851 0
M  V30 17 H -0.3258 -3.30563 -0.505751 0
M  V30 18 H 2.88323 0.546271 -0.767293 0
M  V30 19 H 2.89552 0.25053 1.05612 0
M  V30 END ATOM
M  V30 BEGIN BOND
M  V30 1 1 1 2
M  V30 2 1 2 3
M  V30 3 2 3 4
M  V30 4 1 4 5
M  V30 5 1 4 6
M  V30 6 2 6 7
M  V30 7 1 7 8
M  V30 8 2 8 9
M  V30 9 1 9 10
M  V30 10 1 8 11
M  V30 11 1 2 12
M  V30 12 1 9 3
M  V30 13 1 2 13
M  V30 14 1 5 14
M  V30 15 1 5 15
M  V30 16 1 6 16
M  V30 17 1 7 17
M  V30 18 1 10 18
M  V30 19 1 10 19
M  V30 END BOND
M  V30 END CTAB
M  END
