
     RDKit          3D

  0  0  0  0  0  0  0  0  0  0999 V3000
M  V30 BEGIN CTAB
M  V30 COUNTS 28 27 0 0 0
M  V30 BEGIN ATOM
M  V30 1 C -2.22409 -0.38796 -0.199211 0 CFG=2
M  V30 2 N -2.83603 -1.54428 0.428339 0
M  V30 3 C -1.71824 0.584971 0.850471 0
M  V30 4 C -0.685936 -0.0563764 1.74358 0
M  V30 5 S 0.748923 -0.624587 0.809416 0
M  V30 6 C 1.5999 0.806444 0.135815 0
M  V30 7 C 2.82524 0.418342 -0.667659 0 CFG=2
M  V30 8 N 2.47823 -0.430198 -1.77945 0
M  V30 9 C 3.82554 -0.217061 0.212915 0
M  V30 10 O 4.27999 -1.48438 -0.0859516 0
M  V30 11 O 4.27151 0.364348 1.22364 0
M  V30 12 C -3.24983 0.25312 -1.05965 0
M  V30 13 O -2.89087 1.38012 -1.78548 0
M  V30 14 O -4.4223 -0.193392 -1.14679 0
M  V30 15 H -1.40342 -0.731623 -0.85685 0
M  V30 16 H -3.22053 -2.21561 -0.240937 0
M  V30 17 H -3.58697 -1.27733 1.09433 0
M  V30 18 H -2.56204 0.946017 1.45465 0
M  V30 19 H -1.26513 1.45885 0.341329 0
M  V30 20 H -0.353104 0.690946 2.49286 0
M  V30 21 H -1.09024 -0.914037 2.30936 0
M  V30 22 H 0.89404 1.36207 -0.523215 0
M  V30 23 H 1.92399 1.48539 0.93097 0
M  V30 24 H 3.26996 1.39057 -1.01815 0
M  V30 25 H 1.48329 -0.366031 -2.0657 0
M  V30 26 H 3.07244 -0.290289 -2.6023 0
M  V30 27 H 4.14912 -1.88264 -0.999886 0
M  V30 28 H -3.31344 1.4746 -2.70981 0
M  V30 END ATOM
M  V30 BEGIN BOND
M  V30 1 1 1 2
M  V30 2 1 1 3
M  V30 3 1 3 4
M  V30 4 1 4 5
M  V30 5 1 5 6
M  V30 6 1 6 7
M  V30 7 1 7 8
M  V30 8 1 7 9
M  V30 9 1 9 10
M  V30 10 2 9 11
M  V30 11 1 1 12
M  V30 12 1 12 13
M  V30 13 2 12 14
M  V30 14 1 1 15 CFG=3
M  V30 15 1 2 16
M  V30 16 1 2 17
M  V30 17 1 3 18
M  V30 18 1 3 19
M  V30 19 1 4 20
M  V30 20 1 4 21
M  V30 21 1 6 22
M  V30 22 1 6 23
M  V30 23 1 7 24 CFG=3
M  V30 24 1 8 25
M  V30 25 1 8 26
M  V30 26 1 10 27
M  V30 27 1 13 28
M  V30 END BOND
M  V30 END CTAB
M  END
