
     RDKit          3D

  0  0  0  0  0  0  0  0  0  0999 V3000
M  V30 BEGIN CTAB
M  V30 COUNTS 25 24 0 0 0
M  V30 BEGIN ATOM
M  V30 1 N 4.0262 -0.120385 -1.78041 0
M  V30 2 N 2.93841 0.223137 -1.0797 0
M  V30 3 C 1.86764 0.561374 -0.389783 0
M  V30 4 O 1.91491 1.14984 0.809479 0
M  V30 5 C 0.433466 0.36721 -0.775285 0
M  V30 6 C -0.391116 0.315542 0.500324 0 CFG=1
M  V30 7 C -1.84916 0.224175 0.204196 0
M  V30 8 C -2.32087 -0.948512 -0.555545 0
M  V30 9 C -2.61979 0.347097 1.49838 0
M  V30 10 N 0.00659387 -0.748376 1.3705 0
M  V30 11 H 4.5007 0.601119 -2.30972 0
M  V30 12 H 4.65072 -0.836126 -1.43608 0
M  V30 13 H 3.80206 0.815285 -0.209335 0
M  V30 14 H 0.106444 1.12673 -1.46343 0
M  V30 15 H 0.386188 -0.652911 -1.26246 0
M  V30 16 H -0.256255 1.26251 1.10916 0
M  V30 17 H -2.09829 1.20651 -0.347928 0
M  V30 18 H -1.6726 -1.8224 -0.385242 0
M  V30 19 H -2.37941 -0.724953 -1.65365 0
M  V30 20 H -3.38634 -1.19826 -0.288829 0
M  V30 21 H -2.86029 1.42371 1.6872 0
M  V30 22 H -3.57955 -0.209856 1.48038 0
M  V30 23 H -2.00476 -0.0740062 2.33604 0
M  V30 24 H 0.805506 -0.592138 1.98522 0
M  V30 25 H -0.0204113 -1.69631 0.956517 0
M  V30 END ATOM
M  V30 BEGIN BOND
M  V30 1 1 1 2
M  V30 2 1 2 3
M  V30 3 2 3 4
M  V30 4 1 3 5
M  V30 5 1 5 6
M  V30 6 1 6 7
M  V30 7 1 7 8
M  V30 8 1 7 9
M  V30 9 1 6 10
M  V30 10 1 1 11
M  V30 11 1 1 12
M  V30 12 1 2 13
M  V30 13 1 5 14
M  V30 14 1 5 15
M  V30 15 1 6 16 CFG=1
M  V30 16 1 7 17
M  V30 17 1 8 18
M  V30 18 1 8 19
M  V30 19 1 8 20
M  V30 20 1 9 21
M  V30 21 1 9 22
M  V30 22 1 9 23
M  V30 23 1 10 24
M  V30 24 1 10 25
M  V30 END BOND
M  V30 END CTAB
M  END
