
     RDKit          3D

  0  0  0  0  0  0  0  0  0  0999 V3000
M  V30 BEGIN CTAB
M  V30 COUNTS 44 45 0 0 0
M  V30 BEGIN ATOM
M  V30 1 N -4.88065 1.74525 1.29415 0
M  V30 2 C -4.13344 1.50338 0.0767468 0
M  V30 3 C -4.03832 -0.0172086 -0.0954474 0
M  V30 4 C -5.41577 -0.630345 -0.200881 0
M  V30 5 C -3.28302 -0.532814 1.07576 0
M  V30 6 C -2.41374 -1.6193 0.483709 0
M  V30 7 N -2.08049 -1.1637 -0.851573 0
M  V30 8 C -3.24668 -0.393676 -1.29333 0
M  V30 9 C -0.965281 -0.279066 -0.908589 0
M  V30 10 C 0.341887 -0.920156 -0.580208 0
M  V30 11 O 0.366963 -2.12723 -0.299498 0
M  V30 12 N 1.49499 -0.138678 -0.599438 0
M  V30 13 C 2.82278 -0.510058 -0.328653 0
M  V30 14 C 3.24486 -1.74844 0.0200901 0
M  V30 15 C 4.60092 -2.02706 0.27574 0
M  V30 16 C 5.54774 -1.04657 0.17954 0
M  V30 17 C 5.12506 0.212475 -0.174417 0
M  V30 18 C 3.8202 0.47494 -0.419195 0
M  V30 19 S 6.33707 1.48605 -0.299855 0
M  V30 20 O 7.66743 0.875056 -0.694573 0
M  V30 21 O 5.93384 2.51032 -1.32095 0
M  V30 22 N 6.4927 2.271 1.22064 0
M  V30 23 H -4.35042 1.42372 2.1447 0
M  V30 24 H -5.13758 2.75561 1.40015 0
M  V30 25 H -3.09833 1.85745 0.234823 0
M  V30 26 H -4.62517 1.98907 -0.768338 0
M  V30 27 H -6.14483 0.163036 0.121887 0
M  V30 28 H -5.68229 -0.919325 -1.22519 0
M  V30 29 H -5.52866 -1.53489 0.448121 0
M  V30 30 H -2.56616 0.258703 1.43937 0
M  V30 31 H -3.90023 -0.880754 1.91173 0
M  V30 32 H -3.04163 -2.52379 0.36902 0
M  V30 33 H -1.55861 -1.73808 1.15487 0
M  V30 34 H -2.93714 0.504373 -1.86683 0
M  V30 35 H -3.84481 -1.00645 -2.00688 0
M  V30 36 H -0.894362 0.0975816 -1.95302 0
M  V30 37 H -1.10452 0.619205 -0.263759 0
M  V30 38 H 1.30364 0.900275 -0.865627 0
M  V30 39 H 2.55413 -2.56104 0.112908 0
M  V30 40 H 4.87092 -3.03006 0.548422 0
M  V30 41 H 6.59548 -1.22956 0.369329 0
M  V30 42 H 3.55344 1.50814 -0.698052 0
M  V30 43 H 5.59799 2.10916 1.7569 0
M  V30 44 H 6.6001 3.31347 1.07569 0
M  V30 END ATOM
M  V30 BEGIN BOND
M  V30 1 1 1 2
M  V30 2 1 2 3
M  V30 3 1 3 4
M  V30 4 1 3 5
M  V30 5 1 5 6
M  V30 6 1 6 7
M  V30 7 1 7 8
M  V30 8 1 7 9
M  V30 9 1 9 10
M  V30 10 2 10 11
M  V30 11 1 10 12
M  V30 12 1 12 13
M  V30 13 2 13 14
M  V30 14 1 14 15
M  V30 15 2 15 16
M  V30 16 1 16 17
M  V30 17 2 17 18
M  V30 18 1 17 19
M  V30 19 2 19 20
M  V30 20 2 19 21
M  V30 21 1 19 22
M  V30 22 1 8 3
M  V30 23 1 18 13
M  V30 24 1 1 23
M  V30 25 1 1 24
M  V30 26 1 2 25
M  V30 27 1 2 26
M  V30 28 1 4 27
M  V30 29 1 4 28
M  V30 30 1 4 29
M  V30 31 1 5 30
M  V30 32 1 5 31
M  V30 33 1 6 32
M  V30 34 1 6 33
M  V30 35 1 8 34
M  V30 36 1 8 35
M  V30 37 1 9 36
M  V30 38 1 9 37
M  V30 39 1 12 38
M  V30 40 1 14 39
M  V30 41 1 15 40
M  V30 42 1 16 41
M  V30 43 1 18 42
M  V30 44 1 22 43
M  V30 45 1 22 44
M  V30 END BOND
M  V30 END CTAB
M  END
