
     RDKit          3D

  0  0  0  0  0  0  0  0  0  0999 V3000
M  V30 BEGIN CTAB
M  V30 COUNTS 27 27 0 0 0
M  V30 BEGIN ATOM
M  V30 1 N 2.17235 0.920384 -0.0498965 0
M  V30 2 C 1.94614 -0.468404 0.114671 0
M  V30 3 N 2.96609 -1.21084 0.402469 0
M  V30 4 C 4.26969 -0.675221 0.552053 0
M  V30 5 N 5.28289 -1.43292 0.308677 0
M  V30 6 N 4.544 0.65784 0.957374 0
M  V30 7 S 0.303807 -1.1435 -0.0737148 0
M  V30 8 C -0.845141 0.178871 -0.469271 0
M  V30 9 C -2.25187 -0.28548 -0.647338 0
M  V30 10 O -2.47089 -1.2098 -1.647 0
M  V30 11 C -2.88312 -0.616177 0.685365 0
M  V30 12 C -4.00637 0.336819 0.394837 0
M  V30 13 C -3.19495 0.905483 -0.748981 0
M  V30 14 H 2.06501 1.52928 0.782191 0
M  V30 15 H 2.43404 1.26673 -0.989731 0
M  V30 16 H 5.21116 -2.41793 0.00773717 0
M  V30 17 H 4.72677 1.35588 0.198525 0
M  V30 18 H 4.57812 0.993205 1.92525 0
M  V30 19 H -0.838836 0.997426 0.282904 0
M  V30 20 H -0.469914 0.663594 -1.41807 0
M  V30 21 H -2.39855 -2.1181 -1.27214 0
M  V30 22 H -2.24961 -0.372534 1.55498 0
M  V30 23 H -3.24888 -1.66529 0.701597 0
M  V30 24 H -4.93241 -0.146564 0.0372818 0
M  V30 25 H -4.19875 1.11162 1.15814 0
M  V30 26 H -2.73491 1.8849 -0.545513 0
M  V30 27 H -3.77587 0.96071 -1.68801 0
M  V30 END ATOM
M  V30 BEGIN BOND
M  V30 1 1 1 2
M  V30 2 2 2 3 CFG=2
M  V30 3 1 3 4
M  V30 4 2 4 5 CFG=2
M  V30 5 1 4 6
M  V30 6 1 2 7
M  V30 7 1 7 8
M  V30 8 1 8 9
M  V30 9 1 9 10
M  V30 10 1 9 11
M  V30 11 1 11 12
M  V30 12 1 12 13
M  V30 13 1 13 9
M  V30 14 1 1 14
M  V30 15 1 1 15
M  V30 16 1 5 16
M  V30 17 1 6 17
M  V30 18 1 6 18
M  V30 19 1 8 19
M  V30 20 1 8 20
M  V30 21 1 10 21
M  V30 22 1 11 22
M  V30 23 1 11 23
M  V30 24 1 12 24
M  V30 25 1 12 25
M  V30 26 1 13 26
M  V30 27 1 13 27
M  V30 END BOND
M  V30 END CTAB
M  END
