
     RDKit          3D

  0  0  0  0  0  0  0  0  0  0999 V3000
M  V30 BEGIN CTAB
M  V30 COUNTS 47 48 0 0 0
M  V30 BEGIN ATOM
M  V30 1 N 1.20645 4.34366 1.59933 0
M  V30 2 C 1.63531 3.35135 0.639929 0
M  V30 3 C 0.464311 2.50666 0.0888417 0
M  V30 4 N 0.972282 1.55403 -0.892816 0
M  V30 5 C -0.0802213 1.0136 -1.68745 0
M  V30 6 C -1.08782 0.194184 -1.03693 0
M  V30 7 O -0.925513 -1.06654 -0.539574 0
M  V30 8 N -2.04432 -1.47989 -0.0356173 0
M  V30 9 C -2.97217 -0.551592 -0.167545 0
M  V30 10 N -2.35182 0.486776 -0.796467 0
M  V30 11 C -4.41445 -0.514797 0.205455 0
M  V30 12 N -4.63296 -1.06014 1.53889 0
M  V30 13 C -5.16065 -1.38367 -0.801652 0
M  V30 14 C -4.95944 0.884456 0.136044 0
M  V30 15 C 1.76181 0.510491 -0.253417 0
M  V30 16 C 2.38835 -0.338058 -1.34966 0
M  V30 17 C 3.22056 -1.42028 -0.770951 0
M  V30 18 C 2.7904 -2.72914 -0.623023 0
M  V30 19 C 3.61149 -3.67941 -0.0388565 0
M  V30 20 C 4.86881 -3.39494 0.421165 0
M  V30 21 C 5.30124 -2.08897 0.274551 0
M  V30 22 C 4.4923 -1.13292 -0.30517 0
M  V30 23 H 1.80916 4.3178 2.48159 0
M  V30 24 H 1.30716 5.27917 1.18256 0
M  V30 25 H 2.1707 3.84579 -0.228705 0
M  V30 26 H 2.39915 2.73636 1.13419 0
M  V30 27 H -0.225718 3.18364 -0.400207 0
M  V30 28 H -0.012986 2.00806 0.956697 0
M  V30 29 H 0.333588 0.509528 -2.55771 0
M  V30 30 H -0.624529 1.90547 -2.11815 0
M  V30 31 H -5.66049 -1.36212 1.54385 0
M  V30 32 H -4.07586 -1.9524 1.62567 0
M  V30 33 H -6.20275 -1.57328 -0.387742 0
M  V30 34 H -4.6144 -2.29829 -1.02499 0
M  V30 35 H -5.28503 -0.8373 -1.75961 0
M  V30 36 H -5.81299 0.949093 -0.569762 0
M  V30 37 H -5.3043 1.23657 1.14034 0
M  V30 38 H -4.16184 1.54983 -0.264313 0
M  V30 39 H 2.56301 0.992394 0.310999 0
M  V30 40 H 1.189 -0.156996 0.390595 0
M  V30 41 H 2.96814 0.299516 -2.04763 0
M  V30 42 H 1.5759 -0.820593 -1.92069 0
M  V30 43 H 1.7861 -2.97067 -0.99922 0
M  V30 44 H 3.20956 -4.68572 0.0374714 0
M  V30 45 H 5.48519 -4.17134 0.890287 0
M  V30 46 H 6.2852 -1.85515 0.642421 0
M  V30 47 H 4.81511 -0.134238 -0.412255 0
M  V30 END ATOM
M  V30 BEGIN BOND
M  V30 1 1 1 2
M  V30 2 1 2 3
M  V30 3 1 3 4
M  V30 4 1 4 5
M  V30 5 1 5 6
M  V30 6 1 6 7
M  V30 7 1 7 8
M  V30 8 2 8 9
M  V30 9 1 9 10
M  V30 10 1 9 11
M  V30 11 1 11 12
M  V30 12 1 11 13
M  V30 13 1 11 14
M  V30 14 1 4 15
M  V30 15 1 15 16
M  V30 16 1 16 17
M  V30 17 2 17 18
M  V30 18 1 18 19
M  V30 19 2 19 20
M  V30 20 1 20 21
M  V30 21 2 21 22
M  V30 22 2 10 6
M  V30 23 1 22 17
M  V30 24 1 1 23
M  V30 25 1 1 24
M  V30 26 1 2 25
M  V30 27 1 2 26
M  V30 28 1 3 27
M  V30 29 1 3 28
M  V30 30 1 5 29
M  V30 31 1 5 30
M  V30 32 1 12 31
M  V30 33 1 12 32
M  V30 34 1 13 33
M  V30 35 1 13 34
M  V30 36 1 13 35
M  V30 37 1 14 36
M  V30 38 1 14 37
M  V30 39 1 14 38
M  V30 40 1 15 39
M  V30 41 1 15 40
M  V30 42 1 16 41
M  V30 43 1 16 42
M  V30 44 1 18 43
M  V30 45 1 19 44
M  V30 46 1 20 45
M  V30 47 1 21 46
M  V30 48 1 22 47
M  V30 END BOND
M  V30 END CTAB
M  END
