
     RDKit          3D

  0  0  0  0  0  0  0  0  0  0999 V3000
M  V30 BEGIN CTAB
M  V30 COUNTS 29 29 0 0 0
M  V30 BEGIN ATOM
M  V30 1 C 2.65257 -1.3228 1.09059 0
M  V30 2 C 1.8002 -1.41763 -0.134436 0
M  V30 3 N 1.15527 -0.132402 -0.395973 0
M  V30 4 C 1.69906 0.893897 -1.19 0
M  V30 5 O 2.82158 0.849674 -1.78954 0
M  V30 6 N 0.774006 1.96361 -1.19255 0
M  V30 7 C -0.273431 1.67578 -0.47499 0
M  V30 8 C -0.124896 0.323385 0.0927631 0
M  V30 9 C -0.107015 0.444035 1.59095 0
M  V30 10 C -1.16414 -0.639497 -0.407507 0
M  V30 11 N -1.11145 -0.620435 -1.8587 0
M  V30 12 C -2.56385 -0.257516 0.00922211 0
M  V30 13 N -1.33075 2.60466 -0.336658 0
M  V30 14 H 2.04131 -1.22761 2.01019 0
M  V30 15 H 3.44163 -0.542436 1.01145 0
M  V30 16 H 3.22119 -2.29451 1.16412 0
M  V30 17 H 1.00081 -2.15343 0.0598738 0
M  V30 18 H 2.44037 -1.72397 -0.983816 0
M  V30 19 H 0.883913 0.870346 1.87283 0
M  V30 20 H -0.243553 -0.497833 2.12121 0
M  V30 21 H -0.856478 1.19312 1.96307 0
M  V30 22 H -0.97417 -1.65025 0.0067335 0
M  V30 23 H -1.86516 -0.0222409 -2.24554 0
M  V30 24 H -1.12871 -1.5546 -2.28229 0
M  V30 25 H -3.19253 -1.17897 -0.145973 0
M  V30 26 H -2.98544 0.561467 -0.618853 0
M  V30 27 H -2.5924 -0.0198004 1.08442 0
M  V30 28 H -1.72426 2.80209 0.594164 0
M  V30 29 H -1.69367 3.07385 -1.18081 0
M  V30 END ATOM
M  V30 BEGIN BOND
M  V30 1 1 1 2
M  V30 2 1 2 3
M  V30 3 1 3 4
M  V30 4 2 4 5
M  V30 5 1 4 6
M  V30 6 2 6 7
M  V30 7 1 7 8
M  V30 8 1 8 9
M  V30 9 1 8 10
M  V30 10 1 10 11
M  V30 11 1 10 12
M  V30 12 1 7 13
M  V30 13 1 8 3
M  V30 14 1 1 14
M  V30 15 1 1 15
M  V30 16 1 1 16
M  V30 17 1 2 17
M  V30 18 1 2 18
M  V30 19 1 9 19
M  V30 20 1 9 20
M  V30 21 1 9 21
M  V30 22 1 10 22
M  V30 23 1 11 23
M  V30 24 1 11 24
M  V30 25 1 12 25
M  V30 26 1 12 26
M  V30 27 1 12 27
M  V30 28 1 13 28
M  V30 29 1 13 29
M  V30 END BOND
M  V30 END CTAB
M  END
