
     RDKit          3D

  0  0  0  0  0  0  0  0  0  0999 V3000
M  V30 BEGIN CTAB
M  V30 COUNTS 30 30 0 0 0
M  V30 BEGIN ATOM
M  V30 1 N 1.69966 -1.49865 -0.789063 0
M  V30 2 C 1.57291 -0.325873 -0.268953 0
M  V30 3 N 2.5113 0.6929 -0.54916 0
M  V30 4 C 3.78297 0.55301 -0.408299 0
M  V30 5 N 4.41817 -0.621557 0.040288 0
M  V30 6 N 4.60057 1.67317 -0.732072 0
M  V30 7 N 0.490152 -0.028566 0.596342 0
M  V30 8 C -0.855982 -0.449336 0.392927 0
M  V30 9 C -1.72888 0.047874 1.50749 0
M  V30 10 C -3.13819 -0.51077 1.42019 0
M  V30 11 C -3.72947 -0.256329 0.0496885 0
M  V30 12 C -2.81583 0.666684 -0.694901 0
M  V30 13 C -1.44398 0.0412707 -0.908254 0
M  V30 14 H 2.48934 -1.73068 -1.42578 0
M  V30 15 H 4.10116 -1.17815 0.872454 0
M  V30 16 H 5.25952 -1.00285 -0.450871 0
M  V30 17 H 5.58341 1.78154 -0.360659 0
M  V30 18 H 4.27837 2.45063 -1.35325 0
M  V30 19 H 0.720085 0.541453 1.43727 0
M  V30 20 H -0.867618 -1.57077 0.453648 0
M  V30 21 H -1.80263 1.15281 1.53147 0
M  V30 22 H -1.32384 -0.26205 2.49034 0
M  V30 23 H -3.74197 0.00969261 2.17659 0
M  V30 24 H -3.08927 -1.58919 1.64677 0
M  V30 25 H -4.71375 0.212951 0.138471 0
M  V30 26 H -3.84408 -1.19105 -0.509077 0
M  V30 27 H -3.23397 0.828399 -1.72522 0
M  V30 28 H -2.77097 1.63965 -0.205476 0
M  V30 29 H -1.60691 -0.849275 -1.55012 0
M  V30 30 H -0.800273 0.773062 -1.4249 0
M  V30 END ATOM
M  V30 BEGIN BOND
M  V30 1 2 1 2 CFG=2
M  V30 2 1 2 3
M  V30 3 2 3 4 CFG=2
M  V30 4 1 4 5
M  V30 5 1 4 6
M  V30 6 1 2 7
M  V30 7 1 7 8
M  V30 8 1 8 9
M  V30 9 1 9 10
M  V30 10 1 10 11
M  V30 11 1 11 12
M  V30 12 1 12 13
M  V30 13 1 13 8
M  V30 14 1 1 14
M  V30 15 1 5 15
M  V30 16 1 5 16
M  V30 17 1 6 17
M  V30 18 1 6 18
M  V30 19 1 7 19
M  V30 20 1 8 20
M  V30 21 1 9 21
M  V30 22 1 9 22
M  V30 23 1 10 23
M  V30 24 1 10 24
M  V30 25 1 11 25
M  V30 26 1 11 26
M  V30 27 1 12 27
M  V30 28 1 12 28
M  V30 29 1 13 29
M  V30 30 1 13 30
M  V30 END BOND
M  V30 END CTAB
M  END
