
     RDKit          3D

  0  0  0  0  0  0  0  0  0  0999 V3000
M  V30 BEGIN CTAB
M  V30 COUNTS 40 42 0 0 0
M  V30 BEGIN ATOM
M  V30 1 O 1.20202 -1.81949 -2.80762 0
M  V30 2 C 0.600646 -2.24461 -1.80408 0
M  V30 3 N 0.900007 -1.8875 -0.485064 0
M  V30 4 C 1.90794 -1.02086 -0.0863263 0
M  V30 5 C 1.82909 -0.45292 1.19453 0
M  V30 6 C 2.7934 0.401181 1.68694 0
M  V30 7 C 3.87148 0.702927 0.883765 0
M  V30 8 C 3.9757 0.1591 -0.381257 0
M  V30 9 C 2.98557 -0.700592 -0.849656 0
M  V30 10 S 5.09328 1.78659 1.51471 0
M  V30 11 O 5.13653 1.64563 3.03051 0
M  V30 12 O 6.46075 1.46339 0.992986 0
M  V30 13 N 4.69853 3.4264 1.09302 0
M  V30 14 C -0.522964 -3.21709 -2.09254 0
M  V30 15 S -1.35911 -3.66072 -0.583022 0
M  V30 16 C -2.37772 -2.40093 0.117483 0
M  V30 17 N -3.02019 -2.58357 1.30769 0
M  V30 18 N -3.71426 -1.51826 1.56656 0
M  V30 19 C -3.5648 -0.610033 0.585214 0
M  V30 20 N -2.7319 -1.176 -0.306244 0
M  V30 21 N -2.29393 -0.619706 -1.51279 0
M  V30 22 C -4.19139 0.697212 0.53721 0
M  V30 23 C -4.0834 1.68545 -0.414192 0
M  V30 24 C -4.86683 2.75278 -0.0263767 0
M  V30 25 C -5.43296 2.36833 1.16815 0
M  V30 26 O -5.02019 1.16375 1.47218 0
M  V30 27 H 0.296836 -2.32437 0.297868 0
M  V30 28 H 0.982839 -0.692967 1.82207 0
M  V30 29 H 2.74847 0.844318 2.66869 0
M  V30 30 H 4.82302 0.400095 -1.00269 0
M  V30 31 H 3.15619 -1.09607 -1.8521 0
M  V30 32 H 4.20857 3.86223 1.91156 0
M  V30 33 H 5.58909 3.92679 0.9445 0
M  V30 34 H -1.21352 -2.74014 -2.83263 0
M  V30 35 H -0.0771137 -4.06887 -2.62666 0
M  V30 36 H -2.66608 -0.868883 -2.44986 0
M  V30 37 H -1.53962 0.0951059 -1.46529 0
M  V30 38 H -3.48814 1.63908 -1.31354 0
M  V30 39 H -4.97525 3.67961 -0.586705 0
M  V30 40 H -6.12059 3.0036 1.74637 0
M  V30 END ATOM
M  V30 BEGIN BOND
M  V30 1 2 1 2
M  V30 2 1 2 3
M  V30 3 1 3 4
M  V30 4 2 4 5
M  V30 5 1 5 6
M  V30 6 2 6 7
M  V30 7 1 7 8
M  V30 8 2 8 9
M  V30 9 1 7 10
M  V30 10 2 10 11
M  V30 11 2 10 12
M  V30 12 1 10 13
M  V30 13 1 2 14
M  V30 14 1 14 15
M  V30 15 1 15 16
M  V30 16 2 16 17
M  V30 17 1 17 18
M  V30 18 2 18 19
M  V30 19 1 19 20
M  V30 20 1 20 21
M  V30 21 1 19 22
M  V30 22 2 22 23
M  V30 23 1 23 24
M  V30 24 2 24 25
M  V30 25 1 25 26
M  V30 26 1 9 4
M  V30 27 1 20 16
M  V30 28 1 26 22
M  V30 29 1 3 27
M  V30 30 1 5 28
M  V30 31 1 6 29
M  V30 32 1 8 30
M  V30 33 1 9 31
M  V30 34 1 13 32
M  V30 35 1 13 33
M  V30 36 1 14 34
M  V30 37 1 14 35
M  V30 38 1 21 36
M  V30 39 1 21 37
M  V30 40 1 23 38
M  V30 41 1 24 39
M  V30 42 1 25 40
M  V30 END BOND
M  V30 END CTAB
M  END
