
     RDKit          3D

  0  0  0  0  0  0  0  0  0  0999 V3000
M  V30 BEGIN CTAB
M  V30 COUNTS 34 35 0 0 0
M  V30 BEGIN ATOM
M  V30 1 N 3.91372 -2.64049 -1.16839 0
M  V30 2 C 3.47312 -1.38844 -0.64478 0
M  V30 3 N 2.30734 -1.22615 -0.00429181 0
M  V30 4 C 1.89492 -0.0439537 0.488265 0
M  V30 5 C 0.601457 0.134678 1.19856 0
M  V30 6 N -0.473915 0.47599 0.313665 0
M  V30 7 C -0.737578 -0.502073 -0.702732 0
M  V30 8 C -2.22555 -0.646287 -0.819818 0
M  V30 9 C -2.82574 0.27248 0.192269 0
M  V30 10 C -1.68685 0.557352 1.12911 0
M  V30 11 C -3.29386 1.58731 -0.390117 0
M  V30 12 C -3.95643 -0.364088 0.965516 0
M  V30 13 N 2.72376 1.01043 0.309502 0
M  V30 14 C 3.90553 0.861673 -0.336046 0
M  V30 15 N 4.2956 -0.329399 -0.819154 0
M  V30 16 N 4.76761 1.97847 -0.517223 0
M  V30 17 H 3.87731 -2.90242 -2.16227 0
M  V30 18 H 4.29847 -3.32028 -0.451715 0
M  V30 19 H 0.665136 0.91313 1.97449 0
M  V30 20 H 0.32648 -0.810969 1.74239 0
M  V30 21 H -0.216385 -1.46146 -0.547039 0
M  V30 22 H -0.362857 -0.101565 -1.67877 0
M  V30 23 H -2.46111 -1.72233 -0.58112 0
M  V30 24 H -2.59982 -0.422562 -1.83881 0
M  V30 25 H -1.76413 1.52434 1.64494 0
M  V30 26 H -1.63435 -0.251202 1.91056 0
M  V30 27 H -2.52533 2.02758 -1.04379 0
M  V30 28 H -3.4534 2.27619 0.482 0
M  V30 29 H -4.21506 1.46508 -0.971283 0
M  V30 30 H -4.7819 0.340258 1.17446 0
M  V30 31 H -3.62942 -0.790195 1.93182 0
M  V30 32 H -4.35403 -1.22981 0.363881 0
M  V30 33 H 4.5908 2.64496 -1.28515 0
M  V30 34 H 5.55647 2.08376 0.141061 0
M  V30 END ATOM
M  V30 BEGIN BOND
M  V30 1 1 1 2
M  V30 2 2 2 3
M  V30 3 1 3 4
M  V30 4 1 4 5
M  V30 5 1 5 6
M  V30 6 1 6 7
M  V30 7 1 7 8
M  V30 8 1 8 9
M  V30 9 1 9 10
M  V30 10 1 9 11
M  V30 11 1 9 12
M  V30 12 2 4 13
M  V30 13 1 13 14
M  V30 14 2 14 15
M  V30 15 1 14 16
M  V30 16 1 15 2
M  V30 17 1 10 6
M  V30 18 1 1 17
M  V30 19 1 1 18
M  V30 20 1 5 19
M  V30 21 1 5 20
M  V30 22 1 7 21
M  V30 23 1 7 22
M  V30 24 1 8 23
M  V30 25 1 8 24
M  V30 26 1 10 25
M  V30 27 1 10 26
M  V30 28 1 11 27
M  V30 29 1 11 28
M  V30 30 1 11 29
M  V30 31 1 12 30
M  V30 32 1 12 31
M  V30 33 1 12 32
M  V30 34 1 16 33
M  V30 35 1 16 34
M  V30 END BOND
M  V30 END CTAB
M  END
