
     RDKit          3D

  0  0  0  0  0  0  0  0  0  0999 V3000
M  V30 BEGIN CTAB
M  V30 COUNTS 42 43 0 0 0
M  V30 BEGIN ATOM
M  V30 1 N -6.85773 2.0752 -0.024375 0
M  V30 2 C -7.12379 0.68849 -0.0182797 0
M  V30 3 C -6.06906 -0.100576 0.72769 0
M  V30 4 C -4.7418 0.167399 0.00415716 0
M  V30 5 O -3.76334 -0.564758 0.695765 0
M  V30 6 C -2.4218 -0.589791 0.353612 0
M  V30 7 C -1.91037 0.109685 -0.711397 0
M  V30 8 C -0.572589 0.0601326 -1.02026 0
M  V30 9 C 0.34041 -0.697616 -0.276883 0
M  V30 10 C -0.19967 -1.38612 0.781783 0
M  V30 11 C -1.5509 -1.34332 1.10335 0
M  V30 12 Cl -2.17069 -2.24332 2.46333 0
M  V30 13 C 1.73995 -0.704195 -0.659699 0
M  V30 14 O 2.12271 -0.0123374 -1.65468 0
M  V30 15 N 2.69467 -1.45408 0.0357639 0
M  V30 16 C 4.08396 -1.45639 -0.333988 0
M  V30 17 C 4.79626 -0.175205 -0.135087 0
M  V30 18 C 4.20307 0.921922 0.438544 0
M  V30 19 C 4.97613 2.07549 0.606657 0
M  V30 20 C 6.29031 2.06609 0.194814 0
M  V30 21 N 6.82938 0.98062 -0.357041 0
M  V30 22 C 6.13347 -0.132366 -0.535131 0
M  V30 23 N 6.72651 -1.30281 -1.13431 0
M  V30 24 H -7.11112 2.60178 -0.866293 0
M  V30 25 H -6.92417 2.57187 0.869311 0
M  V30 26 H -7.1568 0.312762 -1.04989 0
M  V30 27 H -8.09066 0.512523 0.509183 0
M  V30 28 H -5.91912 0.310942 1.76763 0
M  V30 29 H -6.29745 -1.16483 0.791135 0
M  V30 30 H -4.57411 1.27168 0.0870715 0
M  V30 31 H -4.81202 -0.0884811 -1.05858 0
M  V30 32 H -2.59374 0.702368 -1.30142 0
M  V30 33 H -0.160384 0.613805 -1.86515 0
M  V30 34 H 0.449934 -1.99214 1.39879 0
M  V30 35 H 2.35836 -2.03543 0.863384 0
M  V30 36 H 4.13167 -1.75513 -1.41945 0
M  V30 37 H 4.64609 -2.26858 0.204008 0
M  V30 38 H 3.17327 0.946583 0.785776 0
M  V30 39 H 4.54329 2.95242 1.05162 0
M  V30 40 H 6.88578 2.95614 0.324954 0
M  V30 41 H 6.78688 -2.21641 -0.655197 0
M  V30 42 H 7.10922 -1.21403 -2.09486 0
M  V30 END ATOM
M  V30 BEGIN BOND
M  V30 1 1 1 2
M  V30 2 1 2 3
M  V30 3 1 3 4
M  V30 4 1 4 5
M  V30 5 1 5 6
M  V30 6 2 6 7
M  V30 7 1 7 8
M  V30 8 2 8 9
M  V30 9 1 9 10
M  V30 10 2 10 11
M  V30 11 1 11 12
M  V30 12 1 9 13
M  V30 13 2 13 14
M  V30 14 1 13 15
M  V30 15 1 15 16
M  V30 16 1 16 17
M  V30 17 2 17 18
M  V30 18 1 18 19
M  V30 19 2 19 20
M  V30 20 1 20 21
M  V30 21 2 21 22
M  V30 22 1 22 23
M  V30 23 1 11 6
M  V30 24 1 22 17
M  V30 25 1 1 24
M  V30 26 1 1 25
M  V30 27 1 2 26
M  V30 28 1 2 27
M  V30 29 1 3 28
M  V30 30 1 3 29
M  V30 31 1 4 30
M  V30 32 1 4 31
M  V30 33 1 7 32
M  V30 34 1 8 33
M  V30 35 1 10 34
M  V30 36 1 15 35
M  V30 37 1 16 36
M  V30 38 1 16 37
M  V30 39 1 18 38
M  V30 40 1 19 39
M  V30 41 1 20 40
M  V30 42 1 23 41
M  V30 43 1 23 42
M  V30 END BOND
M  V30 END CTAB
M  END
