
     RDKit          3D

  0  0  0  0  0  0  0  0  0  0999 V3000
M  V30 BEGIN CTAB
M  V30 COUNTS 21 21 0 0 0
M  V30 BEGIN ATOM
M  V30 1 Br -3.2242 -1.88929 -1.47407 0
M  V30 2 C -3.07479 -0.783065 0.101861 0
M  V30 3 C -2.08246 0.282594 -0.173164 0
M  V30 4 O -2.46728 1.42679 -0.551708 0
M  V30 5 C -0.662532 0.0476708 -0.0191157 0
M  V30 6 C -0.220313 -1.21616 0.355302 0
M  V30 7 C 1.14133 -1.41465 0.48612 0
M  V30 8 C 2.0611 -0.392066 0.253354 0
M  V30 9 C 1.58441 0.865178 -0.121715 0
M  V30 10 C 0.232178 1.07321 -0.253567 0
M  V30 11 N -0.19781 2.37513 -0.632294 0
M  V30 12 F 2.50777 1.83943 -0.343077 0
M  V30 13 N 3.45756 -0.593519 0.389868 0
M  V30 14 H -2.79346 -1.37037 1.01545 0
M  V30 15 H -4.057 -0.254712 0.28446 0
M  V30 16 H -0.950288 -1.97824 0.52542 0
M  V30 17 H 1.47867 -2.38871 0.774625 0
M  V30 18 H -0.464165 3.06263 0.104185 0
M  V30 19 H -0.23048 2.60096 -1.63669 0
M  V30 20 H 3.99442 0.102692 0.968304 0
M  V30 21 H 3.96733 -1.39551 -0.0535395 0
M  V30 END ATOM
M  V30 BEGIN BOND
M  V30 1 1 1 2
M  V30 2 1 2 3
M  V30 3 2 3 4
M  V30 4 1 3 5
M  V30 5 2 5 6
M  V30 6 1 6 7
M  V30 7 2 7 8
M  V30 8 1 8 9
M  V30 9 2 9 10
M  V30 10 1 10 11
M  V30 11 1 9 12
M  V30 12 1 8 13
M  V30 13 1 10 5
M  V30 14 1 2 14
M  V30 15 1 2 15
M  V30 16 1 6 16
M  V30 17 1 7 17
M  V30 18 1 11 18
M  V30 19 1 11 19
M  V30 20 1 13 20
M  V30 21 1 13 21
M  V30 END BOND
M  V30 END CTAB
M  END
