
     RDKit          3D

  0  0  0  0  0  0  0  0  0  0999 V3000
M  V30 BEGIN CTAB
M  V30 COUNTS 66 69 0 0 0
M  V30 BEGIN ATOM
M  V30 1 C 7.6225 2.6649 -0.235188 0
M  V30 2 C 8.00343 2.55074 -1.68118 0
M  V30 3 O 7.78203 1.23513 -2.16216 0
M  V30 4 C 6.5186 0.633762 -2.1567 0
M  V30 5 O 5.58001 1.30736 -1.7066 0
M  V30 6 C 6.39045 -0.733903 -2.67608 0 CFG=1
M  V30 7 N 7.65162 -1.12923 -3.31835 0
M  V30 8 C 6.1659 -1.70754 -1.57676 0
M  V30 9 C 4.94616 -1.47519 -0.772806 0
M  V30 10 C 4.92283 -0.740824 0.394901 0
M  V30 11 C 3.78635 -0.533949 1.1301 0
M  V30 12 C 2.55818 -1.0729 0.720849 0
M  V30 13 C 2.5572 -1.80553 -0.435394 0
M  V30 14 C 3.72446 -2.00012 -1.16228 0
M  V30 15 C 1.36343 -0.841925 1.51459 0
M  V30 16 N 1.40129 -0.107743 2.65349 0
M  V30 17 C 0.286453 0.0957649 3.37622 0
M  V30 18 N 0.386017 0.872892 4.55995 0
M  V30 19 N -0.891118 -0.425427 2.98397 0
M  V30 20 C -1.01057 -1.1624 1.87021 0
M  V30 21 O -2.22282 -1.69946 1.46562 0
M  V30 22 C -3.35573 -1.44813 2.26869 0
M  V30 23 C -4.35244 -0.734371 1.42939 0
M  V30 24 C -4.60523 -1.18626 0.150794 0
M  V30 25 C -5.5238 -0.548757 -0.657069 0
M  V30 26 C -6.23094 0.563273 -0.233028 0
M  V30 27 C -5.97816 1.01556 1.04605 0
M  V30 28 C -5.05237 0.373036 1.86035 0
M  V30 29 C -7.19864 1.22524 -1.10061 0
M  V30 30 C -7.02798 1.25357 -2.46826 0
M  V30 31 C -7.93932 1.87924 -3.31077 0
M  V30 32 C -9.03741 2.48624 -2.78525 0
M  V30 33 C -9.2373 2.47575 -1.42094 0
M  V30 34 F -10.3536 3.09712 -0.931571 0
M  V30 35 C -8.32349 1.85089 -0.60287 0
M  V30 36 C -3.95611 -2.74108 2.7918 0
M  V30 37 F -3.01582 -3.4025 3.54806 0
M  V30 38 F -5.00821 -2.38171 3.62125 0
M  V30 39 F -4.46734 -3.52033 1.79241 0
M  V30 40 C 0.163045 -1.36545 1.12693 0
M  V30 41 H 6.80661 3.40198 -0.0959579 0
M  V30 42 H 8.49735 3.02664 0.340566 0
M  V30 43 H 7.31036 1.68153 0.178405 0
M  V30 44 H 7.36074 3.25323 -2.27619 0
M  V30 45 H 9.07161 2.76864 -1.82359 0
M  V30 46 H 5.63696 -0.777161 -3.47766 0
M  V30 47 H 7.50677 -2.12912 -3.62475 0
M  V30 48 H 8.3854 -1.1526 -2.5798 0
M  V30 49 H 6.13286 -2.76609 -1.9207 0
M  V30 50 H 7.01389 -1.69301 -0.828419 0
M  V30 51 H 5.87112 -0.313861 0.728128 0
M  V30 52 H 3.78151 0.0518495 2.05649 0
M  V30 53 H 1.62558 -2.26046 -0.818785 0
M  V30 54 H 3.65273 -2.59955 -2.08243 0
M  V30 55 H 0.353465 0.3944 5.49594 0
M  V30 56 H 0.491984 1.91564 4.55322 0
M  V30 57 H -3.13465 -0.828881 3.15472 0
M  V30 58 H -4.0755 -2.06215 -0.2392 0
M  V30 59 H -5.73985 -0.885945 -1.66715 0
M  V30 60 H -6.51605 1.8878 1.41332 0
M  V30 61 H -4.84202 0.717431 2.87077 0
M  V30 62 H -6.1807 0.790691 -2.93063 0
M  V30 63 H -7.77079 1.88063 -4.38398 0
M  V30 64 H -9.75855 2.97788 -3.4151 0
M  V30 65 H -8.52082 1.86751 0.459941 0
M  V30 66 H 0.0183707 -1.96276 0.241827 0
M  V30 END ATOM
M  V30 BEGIN BOND
M  V30 1 1 1 2
M  V30 2 1 2 3
M  V30 3 1 3 4
M  V30 4 2 4 5
M  V30 5 1 4 6
M  V30 6 1 6 7
M  V30 7 1 6 8
M  V30 8 1 8 9
M  V30 9 2 9 10
M  V30 10 1 10 11
M  V30 11 2 11 12
M  V30 12 1 12 13
M  V30 13 2 13 14
M  V30 14 1 12 15
M  V30 15 2 15 16
M  V30 16 1 16 17
M  V30 17 1 17 18
M  V30 18 2 17 19
M  V30 19 1 19 20
M  V30 20 1 20 21
M  V30 21 1 21 22
M  V30 22 1 22 23
M  V30 23 2 23 24
M  V30 24 1 24 25
M  V30 25 2 25 26
M  V30 26 1 26 27
M  V30 27 2 27 28
M  V30 28 1 26 29
M  V30 29 2 29 30
M  V30 30 1 30 31
M  V30 31 2 31 32
M  V30 32 1 32 33
M  V30 33 1 33 34
M  V30 34 2 33 35
M  V30 35 1 22 36
M  V30 36 1 36 37
M  V30 37 1 36 38
M  V30 38 1 36 39
M  V30 39 2 20 40
M  V30 40 1 14 9
M  V30 41 1 40 15
M  V30 42 1 28 23
M  V30 43 1 35 29
M  V30 44 1 1 41
M  V30 45 1 1 42
M  V30 46 1 1 43
M  V30 47 1 2 44
M  V30 48 1 2 45
M  V30 49 1 6 46 CFG=3
M  V30 50 1 7 47
M  V30 51 1 7 48
M  V30 52 1 8 49
M  V30 53 1 8 50
M  V30 54 1 10 51
M  V30 55 1 11 52
M  V30 56 1 13 53
M  V30 57 1 14 54
M  V30 58 1 18 55
M  V30 59 1 18 56
M  V30 60 1 22 57
M  V30 61 1 24 58
M  V30 62 1 25 59
M  V30 63 1 27 60
M  V30 64 1 28 61
M  V30 65 1 30 62
M  V30 66 1 31 63
M  V30 67 1 32 64
M  V30 68 1 35 65
M  V30 69 1 40 66
M  V30 END BOND
M  V30 END CTAB
M  END
