
     RDKit          3D

  0  0  0  0  0  0  0  0  0  0999 V3000
M  V30 BEGIN CTAB
M  V30 COUNTS 28 29 0 0 0
M  V30 BEGIN ATOM
M  V30 1 N -3.86823 -0.337961 -1.41853 0
M  V30 2 C -2.96029 0.196715 -0.458219 0 CFG=1
M  V30 3 C -2.81342 -0.682907 0.778938 0
M  V30 4 C -1.40844 -0.403085 1.30431 0
M  V30 5 C -0.802741 0.603024 0.342181 0 CFG=2
M  V30 6 C -1.51104 0.203534 -0.959 0
M  V30 7 C 0.658407 0.468851 0.22657 0
M  V30 8 N 1.34705 -0.638544 -0.0475156 0
M  V30 9 N 2.63838 -0.381908 -0.0707988 0
M  V30 10 C 2.80101 0.939761 0.197425 0
M  V30 11 N 1.55429 1.45979 0.381368 0
M  V30 12 N 4.0423 1.6162 0.265427 0
M  V30 13 C 3.74016 -1.30082 -0.329962 0
M  V30 14 H -4.31682 0.44584 -1.96596 0
M  V30 15 H -4.66727 -0.803231 -0.910262 0
M  V30 16 H -3.20102 1.22738 -0.119867 0
M  V30 17 H -2.90931 -1.76738 0.490564 0
M  V30 18 H -3.57926 -0.389188 1.52225 0
M  V30 19 H -1.44544 -0.0119602 2.3416 0
M  V30 20 H -0.801644 -1.3302 1.21995 0
M  V30 21 H -1.13599 1.61849 0.575473 0
M  V30 22 H -1.3482 0.921208 -1.7601 0
M  V30 23 H -1.17324 -0.821246 -1.17652 0
M  V30 24 H 4.36999 2.24853 -0.489046 0
M  V30 25 H 4.6535 1.48264 1.09324 0
M  V30 26 H 4.57991 -1.09461 0.381412 0
M  V30 27 H 3.39301 -2.33427 -0.165094 0
M  V30 28 H 4.16433 -1.13464 -1.34504 0
M  V30 END ATOM
M  V30 BEGIN BOND
M  V30 1 1 1 2
M  V30 2 1 2 3
M  V30 3 1 3 4
M  V30 4 1 4 5
M  V30 5 1 5 6
M  V30 6 1 5 7
M  V30 7 2 7 8
M  V30 8 1 8 9
M  V30 9 1 9 10
M  V30 10 2 10 11
M  V30 11 1 10 12
M  V30 12 1 9 13
M  V30 13 1 6 2
M  V30 14 1 11 7
M  V30 15 1 1 14
M  V30 16 1 1 15
M  V30 17 1 2 16 CFG=1
M  V30 18 1 3 17
M  V30 19 1 3 18
M  V30 20 1 4 19
M  V30 21 1 4 20
M  V30 22 1 5 21 CFG=1
M  V30 23 1 6 22
M  V30 24 1 6 23
M  V30 25 1 12 24
M  V30 26 1 12 25
M  V30 27 1 13 26
M  V30 28 1 13 27
M  V30 29 1 13 28
M  V30 END BOND
M  V30 END CTAB
M  END
