
     RDKit          3D

  0  0  0  0  0  0  0  0  0  0999 V3000
M  V30 BEGIN CTAB
M  V30 COUNTS 46 48 0 0 0
M  V30 BEGIN ATOM
M  V30 1 C -8.04204 0.287198 -1.12463 0
M  V30 2 C -7.64976 0.131787 0.32188 0
M  V30 3 O -6.24932 0.289458 0.475254 0
M  V30 4 C -5.37914 -0.568433 -0.193053 0
M  V30 5 O -5.87913 -1.45879 -0.914588 0
M  V30 6 C -3.9316 -0.443748 -0.0644291 0
M  V30 7 C -3.1229 -1.31361 -0.746818 0
M  V30 8 C -1.73301 -1.23827 -0.655733 0
M  V30 9 C -1.16087 -0.26839 0.137653 0
M  V30 10 C -1.96478 0.612677 0.829151 0
M  V30 11 C -3.35714 0.535573 0.736465 0
M  V30 12 N 0.280302 -0.226562 0.203625 0
M  V30 13 C 0.943607 0.619591 -0.72262 0
M  V30 14 C 2.40378 0.686538 -0.6681 0
M  V30 15 N 3.17154 0.0169907 0.182134 0
M  V30 16 C 4.51329 0.107591 0.196982 0
M  V30 17 C 5.27354 -0.605881 1.09757 0
M  V30 18 N 4.60342 -1.45189 2.02418 0
M  V30 19 N 6.61615 -0.482544 1.07385 0
M  V30 20 C 7.26063 0.319024 0.196152 0
M  V30 21 N 6.48584 1.00325 -0.671532 0
M  V30 22 C 5.1635 0.940245 -0.716351 0
M  V30 23 N 4.38712 1.61846 -1.57743 0
M  V30 24 C 3.04714 1.52548 -1.58917 0
M  V30 25 C 2.25303 2.26554 -2.52333 0
M  V30 26 N 1.60983 2.87742 -3.28486 0
M  V30 27 N 8.67967 0.418106 0.206725 0
M  V30 28 C 0.925692 -1.03373 1.18496 0
M  V30 29 H -7.1732 0.589278 -1.74012 0
M  V30 30 H -8.48913 -0.676639 -1.49341 0
M  V30 31 H -8.86503 1.02958 -1.15575 0
M  V30 32 H -8.13014 0.888642 0.975616 0
M  V30 33 H -7.96236 -0.864141 0.74384 0
M  V30 34 H -3.50859 -2.10309 -1.39032 0
M  V30 35 H -1.09967 -1.94302 -1.2096 0
M  V30 36 H -1.47833 1.35725 1.43838 0
M  V30 37 H -3.99153 1.21917 1.27208 0
M  V30 38 H 0.683227 0.340576 -1.80086 0
M  V30 39 H 0.498507 1.67627 -0.678696 0
M  V30 40 H 4.80542 -2.485 1.94731 0
M  V30 41 H 3.94637 -1.11546 2.75003 0
M  V30 42 H 9.24532 -0.413883 -0.06254 0
M  V30 43 H 9.20162 1.28221 0.47035 0
M  V30 44 H 0.135272 -1.6363 1.74829 0
M  V30 45 H 1.45772 -0.461836 1.98385 0
M  V30 46 H 1.57614 -1.84668 0.747162 0
M  V30 END ATOM
M  V30 BEGIN BOND
M  V30 1 1 1 2
M  V30 2 1 2 3
M  V30 3 1 3 4
M  V30 4 2 4 5
M  V30 5 1 4 6
M  V30 6 2 6 7
M  V30 7 1 7 8
M  V30 8 2 8 9
M  V30 9 1 9 10
M  V30 10 2 10 11
M  V30 11 1 9 12
M  V30 12 1 12 13
M  V30 13 1 13 14
M  V30 14 2 14 15
M  V30 15 1 15 16
M  V30 16 2 16 17
M  V30 17 1 17 18
M  V30 18 1 17 19
M  V30 19 2 19 20
M  V30 20 1 20 21
M  V30 21 2 21 22
M  V30 22 1 22 23
M  V30 23 2 23 24
M  V30 24 1 24 25
M  V30 25 3 25 26
M  V30 26 1 20 27
M  V30 27 1 12 28
M  V30 28 1 11 6
M  V30 29 1 24 14
M  V30 30 1 22 16
M  V30 31 1 1 29
M  V30 32 1 1 30
M  V30 33 1 1 31
M  V30 34 1 2 32
M  V30 35 1 2 33
M  V30 36 1 7 34
M  V30 37 1 8 35
M  V30 38 1 10 36
M  V30 39 1 11 37
M  V30 40 1 13 38
M  V30 41 1 13 39
M  V30 42 1 18 40
M  V30 43 1 18 41
M  V30 44 1 27 42
M  V30 45 1 27 43
M  V30 46 1 28 44
M  V30 47 1 28 45
M  V30 48 1 28 46
M  V30 END BOND
M  V30 END CTAB
M  END
