
     RDKit          3D

  0  0  0  0  0  0  0  0  0  0999 V3000
M  V30 BEGIN CTAB
M  V30 COUNTS 47 49 0 0 0
M  V30 BEGIN ATOM
M  V30 1 C 3.2708 -2.09127 1.29293 0
M  V30 2 N 2.66559 -0.902749 0.88616 0
M  V30 3 C 3.36966 -0.0144382 0.0448537 0
M  V30 4 C 4.54044 0.610447 0.79461 0
M  V30 5 C 5.26265 1.56484 -0.165879 0
M  V30 6 N 4.32361 2.59441 -0.603111 0
M  V30 7 C 1.32968 -0.626054 1.16801 0
M  V30 8 C 0.27536 -1.44227 0.479459 0 CFG=1
M  V30 9 O -0.953339 -0.972933 0.929669 0
M  V30 10 C -1.91516 -1.2126 -0.0167264 0 CFG=2
M  V30 11 C -1.2107 -1.61949 -1.28352 0 CFG=2
M  V30 12 O -1.21069 -3.00726 -1.34555 0
M  V30 13 C 0.200326 -1.15957 -0.999756 0 CFG=2
M  V30 14 O 1.14264 -1.88351 -1.72118 0
M  V30 15 N -2.75756 -0.0718188 -0.267458 0
M  V30 16 C -2.56992 0.925123 -1.14825 0
M  V30 17 N -3.59411 1.81339 -1.0652 0
M  V30 18 C -4.44397 1.38738 -0.128849 0
M  V30 19 C -3.92828 0.20151 0.380311 0
M  V30 20 N -4.57523 -0.471081 1.35288 0
M  V30 21 C -5.7319 0.0254341 1.82537 0
M  V30 22 N -6.22792 1.17643 1.32926 0
M  V30 23 C -5.63379 1.89265 0.361671 0
M  V30 24 N -6.14309 3.10794 -0.165332 0
M  V30 25 H 3.85506 -1.98413 2.25142 0
M  V30 26 H 4.05495 -2.38603 0.538872 0
M  V30 27 H 2.62234 -2.96343 1.43054 0
M  V30 28 H 3.73916 -0.475512 -0.901894 0
M  V30 29 H 2.72073 0.821628 -0.261665 0
M  V30 30 H 5.24091 -0.187726 1.09882 0
M  V30 31 H 4.15289 1.16031 1.67496 0
M  V30 32 H 5.57191 1.02347 -1.07117 0
M  V30 33 H 6.12113 2.04378 0.326363 0
M  V30 34 H 4.8169 3.50715 -0.67339 0
M  V30 35 H 3.57571 2.66318 0.150384 0
M  V30 36 H 1.11209 0.447588 0.906384 0
M  V30 37 H 1.13706 -0.701517 2.26214 0
M  V30 38 H 0.314403 -2.51441 0.722719 0
M  V30 39 H -2.57061 -2.02822 0.373094 0
M  V30 40 H -1.63801 -1.14792 -2.18612 0
M  V30 41 H -1.4237 -3.4276 -0.459624 0
M  V30 42 H 0.323827 -0.0625457 -1.13974 0
M  V30 43 H 1.43524 -1.30404 -2.47343 0
M  V30 44 H -1.7093 0.988302 -1.82169 0
M  V30 45 H -6.29441 -0.491541 2.61892 0
M  V30 46 H -6.80805 3.15835 -0.94676 0
M  V30 47 H -5.83535 4.03634 0.253394 0
M  V30 END ATOM
M  V30 BEGIN BOND
M  V30 1 1 1 2
M  V30 2 1 2 3
M  V30 3 1 3 4
M  V30 4 1 4 5
M  V30 5 1 5 6
M  V30 6 1 2 7
M  V30 7 1 7 8
M  V30 8 1 8 9
M  V30 9 1 9 10
M  V30 10 1 10 11
M  V30 11 1 11 12
M  V30 12 1 11 13
M  V30 13 1 13 14
M  V30 14 1 10 15
M  V30 15 1 15 16
M  V30 16 2 16 17
M  V30 17 1 17 18
M  V30 18 2 18 19
M  V30 19 1 19 20
M  V30 20 2 20 21
M  V30 21 1 21 22
M  V30 22 2 22 23
M  V30 23 1 23 24
M  V30 24 1 13 8
M  V30 25 1 19 15
M  V30 26 1 23 18
M  V30 27 1 1 25
M  V30 28 1 1 26
M  V30 29 1 1 27
M  V30 30 1 3 28
M  V30 31 1 3 29
M  V30 32 1 4 30
M  V30 33 1 4 31
M  V30 34 1 5 32
M  V30 35 1 5 33
M  V30 36 1 6 34
M  V30 37 1 6 35
M  V30 38 1 7 36
M  V30 39 1 7 37
M  V30 40 1 8 38 CFG=3
M  V30 41 1 10 39 CFG=1
M  V30 42 1 11 40 CFG=3
M  V30 43 1 12 41
M  V30 44 1 13 42 CFG=1
M  V30 45 1 14 43
M  V30 46 1 16 44
M  V30 47 1 21 45
M  V30 48 1 24 46
M  V30 49 1 24 47
M  V30 END BOND
M  V30 END CTAB
M  END
