
     RDKit          3D

  0  0  0  0  0  0  0  0  0  0999 V3000
M  V30 BEGIN CTAB
M  V30 COUNTS 25 25 0 0 0
M  V30 BEGIN ATOM
M  V30 1 N 3.32515 -1.70744 -0.551509 0
M  V30 2 C 2.98 -0.732571 0.437349 0
M  V30 3 C 1.67394 -0.0729536 0.182855 0
M  V30 4 C 1.64075 1.07761 -0.57695 0
M  V30 5 C 0.411655 1.66371 -0.793434 0
M  V30 6 F 0.379654 2.78832 -1.53616 0
M  V30 7 C -0.750459 1.12322 -0.270805 0
M  V30 8 C -0.711581 -0.0239727 0.485958 0
M  V30 9 C 0.516161 -0.612223 0.704067 0
M  V30 10 S -2.19778 -0.676332 1.12846 0
M  V30 11 O -2.79337 0.266688 2.13219 0
M  V30 12 O -1.84313 -1.93645 1.87476 0
M  V30 13 N -3.32566 -1.08658 -0.0846314 0
M  V30 14 C -2.04646 1.79117 -0.532228 0
M  V30 15 H 2.61554 -1.85649 -1.28829 0
M  V30 16 H 4.30095 -1.62097 -0.899148 0
M  V30 17 H 2.9255 -1.25942 1.41558 0
M  V30 18 H 3.77932 0.0547954 0.556073 0
M  V30 19 H 2.56397 1.4928 -0.982726 0
M  V30 20 H 0.549015 -1.51923 1.30211 0
M  V30 21 H -3.8892 -1.94029 0.128915 0
M  V30 22 H -2.89541 -1.20159 -1.03509 0
M  V30 23 H -2.5963 2.02986 0.421355 0
M  V30 24 H -1.87609 2.75289 -1.07614 0
M  V30 25 H -2.73617 1.20546 -1.14256 0
M  V30 END ATOM
M  V30 BEGIN BOND
M  V30 1 1 1 2
M  V30 2 1 2 3
M  V30 3 2 3 4
M  V30 4 1 4 5
M  V30 5 1 5 6
M  V30 6 2 5 7
M  V30 7 1 7 8
M  V30 8 2 8 9
M  V30 9 1 8 10
M  V30 10 2 10 11
M  V30 11 2 10 12
M  V30 12 1 10 13
M  V30 13 1 7 14
M  V30 14 1 9 3
M  V30 15 1 1 15
M  V30 16 1 1 16
M  V30 17 1 2 17
M  V30 18 1 2 18
M  V30 19 1 4 19
M  V30 20 1 9 20
M  V30 21 1 13 21
M  V30 22 1 13 22
M  V30 23 1 14 23
M  V30 24 1 14 24
M  V30 25 1 14 25
M  V30 END BOND
M  V30 END CTAB
M  END
