
     RDKit          3D

  0  0  0  0  0  0  0  0  0  0999 V3000
M  V30 BEGIN CTAB
M  V30 COUNTS 43 44 0 0 0
M  V30 BEGIN ATOM
M  V30 1 N 8.29585 -1.5412 -0.856424 0
M  V30 2 S 7.7458 -0.0161438 -0.315904 0
M  V30 3 O 8.08679 1.0061 -1.35966 0
M  V30 4 O 8.41682 0.336107 0.995247 0
M  V30 5 C 6.01963 0.0209117 -0.0586839 0
M  V30 6 C 5.2116 0.377032 -1.09131 0
M  V30 7 C 3.81254 0.433494 -0.972936 0
M  V30 8 C 3.25565 0.11944 0.216051 0
M  V30 9 N 1.87551 0.0941188 0.470873 0
M  V30 10 C 0.852386 -0.212427 -0.425885 0
M  V30 11 S 1.09654 -0.663306 -1.94403 0
M  V30 12 C -0.575694 -0.152166 0.0586691 0
M  V30 13 C -0.947246 1.2546 0.244874 0
M  V30 14 S 0.353793 2.32437 0.228181 0
M  V30 15 N -2.23389 1.79589 0.423937 0
M  V30 16 C -3.43302 1.11389 0.461527 0
M  V30 17 C -4.58489 1.83858 0.0890047 0
M  V30 18 C -5.81752 1.23857 0.122615 0
M  V30 19 C -5.98436 -0.0817204 0.516596 0
M  V30 20 C -4.87764 -0.804703 0.883372 0
M  V30 21 C -3.62111 -0.182001 0.845991 0
M  V30 22 S -7.56342 -0.847075 0.558107 0
M  V30 23 N -7.82558 -1.56465 -1.00295 0
M  V30 24 O -7.59427 -1.91102 1.61743 0
M  V30 25 O -8.59717 0.209557 0.844366 0
M  V30 26 C 4.08683 -0.249588 1.28948 0
M  V30 27 C 5.43416 -0.291709 1.13535 0
M  V30 28 H 9.25046 -1.77829 -0.526637 0
M  V30 29 H 7.60754 -2.30887 -0.71213 0
M  V30 30 H 5.59792 0.63915 -2.06911 0
M  V30 31 H 3.2128 0.739333 -1.8076 0
M  V30 32 H 1.60566 0.343711 1.49436 0
M  V30 33 H -0.59832 -0.678394 1.07126 0
M  V30 34 H -1.23619 -0.7304 -0.594493 0
M  V30 35 H -2.31294 2.87629 0.558604 0
M  V30 36 H -4.50459 2.86743 -0.225009 0
M  V30 37 H -6.67444 1.8294 -0.170812 0
M  V30 38 H -5.00508 -1.83155 1.19011 0
M  V30 39 H -2.82901 -0.808946 1.16131 0
M  V30 40 H -7.50675 -2.57672 -0.938656 0
M  V30 41 H -7.19205 -1.14459 -1.72928 0
M  V30 42 H 3.64993 -0.506308 2.25994 0
M  V30 43 H 6.04697 -0.576213 1.96896 0
M  V30 END ATOM
M  V30 BEGIN BOND
M  V30 1 1 1 2
M  V30 2 2 2 3
M  V30 3 2 2 4
M  V30 4 1 2 5
M  V30 5 2 5 6
M  V30 6 1 6 7
M  V30 7 2 7 8
M  V30 8 1 8 9
M  V30 9 1 9 10
M  V30 10 2 10 11
M  V30 11 1 10 12
M  V30 12 1 12 13
M  V30 13 2 13 14
M  V30 14 1 13 15
M  V30 15 1 15 16
M  V30 16 2 16 17
M  V30 17 1 17 18
M  V30 18 2 18 19
M  V30 19 1 19 20
M  V30 20 2 20 21
M  V30 21 1 19 22
M  V30 22 1 22 23
M  V30 23 2 22 24
M  V30 24 2 22 25
M  V30 25 1 8 26
M  V30 26 2 26 27
M  V30 27 1 27 5
M  V30 28 1 21 16
M  V30 29 1 1 28
M  V30 30 1 1 29
M  V30 31 1 6 30
M  V30 32 1 7 31
M  V30 33 1 9 32
M  V30 34 1 12 33
M  V30 35 1 12 34
M  V30 36 1 15 35
M  V30 37 1 17 36
M  V30 38 1 18 37
M  V30 39 1 20 38
M  V30 40 1 21 39
M  V30 41 1 23 40
M  V30 42 1 23 41
M  V30 43 1 26 42
M  V30 44 1 27 43
M  V30 END BOND
M  V30 END CTAB
M  END
