
     RDKit          3D

  0  0  0  0  0  0  0  0  0  0999 V3000
M  V30 BEGIN CTAB
M  V30 COUNTS 26 27 0 0 0
M  V30 BEGIN ATOM
M  V30 1 N 4.05189 1.52013 -0.00259197 0
M  V30 2 C 2.8767 0.74995 0.221979 0
M  V30 3 C 1.63395 1.14973 -0.208024 0
M  V30 4 C 0.489672 0.412387 0.00376867 0
M  V30 5 N 0.64959 -0.756443 0.673396 0
M  V30 6 C 1.8692 -1.15739 1.10013 0
M  V30 7 N 2.98157 -0.432229 0.889631 0
M  V30 8 N 2.0132 -2.38492 1.79934 0
M  V30 9 N -0.786295 0.846184 -0.450555 0
M  V30 10 C -1.99739 0.11936 -0.25567 0
M  V30 11 C -2.01952 -1.25872 -0.874357 0
M  V30 12 C -3.2728 0.920765 -0.434151 0
M  V30 13 C -2.87923 0.344764 0.910557 0
M  V30 14 H 4.83228 1.12795 -0.56997 0
M  V30 15 H 4.16999 2.47635 0.381606 0
M  V30 16 H 1.5575 2.07884 -0.731752 0
M  V30 17 H 1.7101 -3.31092 1.38349 0
M  V30 18 H 2.42187 -2.45592 2.75703 0
M  V30 19 H -0.819632 1.75421 -0.956677 0
M  V30 20 H -1.70896 -2.03125 -0.160809 0
M  V30 21 H -1.30523 -1.28136 -1.72304 0
M  V30 22 H -3.02369 -1.48182 -1.33036 0
M  V30 23 H -3.20205 2.00523 -0.610497 0
M  V30 24 H -4.15844 0.398729 -0.890731 0
M  V30 25 H -3.43261 -0.501348 1.33297 0
M  V30 26 H -2.65167 1.14777 1.66456 0
M  V30 END ATOM
M  V30 BEGIN BOND
M  V30 1 1 1 2
M  V30 2 2 2 3
M  V30 3 1 3 4
M  V30 4 2 4 5
M  V30 5 1 5 6
M  V30 6 2 6 7
M  V30 7 1 6 8
M  V30 8 1 4 9
M  V30 9 1 9 10
M  V30 10 1 10 11
M  V30 11 1 10 12
M  V30 12 1 12 13
M  V30 13 1 7 2
M  V30 14 1 13 10
M  V30 15 1 1 14
M  V30 16 1 1 15
M  V30 17 1 3 16
M  V30 18 1 8 17
M  V30 19 1 8 18
M  V30 20 1 9 19
M  V30 21 1 11 20
M  V30 22 1 11 21
M  V30 23 1 11 22
M  V30 24 1 12 23
M  V30 25 1 12 24
M  V30 26 1 13 25
M  V30 27 1 13 26
M  V30 END BOND
M  V30 END CTAB
M  END
