
     RDKit          3D

  0  0  0  0  0  0  0  0  0  0999 V3000
M  V30 BEGIN CTAB
M  V30 COUNTS 37 36 0 0 0
M  V30 BEGIN ATOM
M  V30 1 N -0.0506078 1.96444 0.00420953 0
M  V30 2 C -0.446337 0.55705 0.00672998 0 CFG=1
M  V30 3 C -1.22456 0.365161 -1.27631 0
M  V30 4 C -1.7537 -0.993993 -1.5079 0
M  V30 5 C -2.72214 -1.56108 -0.546154 0
M  V30 6 N -3.98723 -0.904565 -0.407631 0
M  V30 7 C -4.25253 0.359635 0.161129 0
M  V30 8 N -3.94728 0.650803 1.5117 0
M  V30 9 N -4.81145 1.31169 -0.535197 0
M  V30 10 C 0.776849 -0.281475 0.0651531 0
M  V30 11 O 0.673116 -1.51453 0.0574738 0
M  V30 12 N 2.08468 0.297185 0.132049 0
M  V30 13 C 3.27146 -0.531893 0.186718 0 CFG=1
M  V30 14 C 4.16017 -0.201129 -0.996614 0
M  V30 15 S 4.66851 1.52083 -0.996205 0
M  V30 16 C 4.01358 -0.382687 1.45358 0
M  V30 17 O 5.16845 -1.12871 1.62585 0
M  V30 18 O 3.58842 0.399664 2.32548 0
M  V30 19 H 0.0498551 2.29716 -0.948101 0
M  V30 20 H -0.776087 2.50353 0.477967 0
M  V30 21 H -1.03611 0.405397 0.920432 0
M  V30 22 H -1.96719 1.15549 -1.36202 0
M  V30 23 H -0.457952 0.550647 -2.0861 0
M  V30 24 H -2.31958 -0.92795 -2.50008 0
M  V30 25 H -0.929581 -1.71507 -1.76665 0
M  V30 26 H -2.94398 -2.6215 -0.877524 0
M  V30 27 H -2.31034 -1.65087 0.492341 0
M  V30 28 H -4.89091 -1.38839 -0.765433 0
M  V30 29 H -3.99336 -0.0972628 2.23765 0
M  V30 30 H -3.66967 1.61393 1.81908 0
M  V30 31 H -5.07314 1.14713 -1.53417 0
M  V30 32 H 2.14413 1.33029 0.139693 0
M  V30 33 H 2.95606 -1.59873 0.12784 0
M  V30 34 H 5.04609 -0.858174 -0.985426 0
M  V30 35 H 3.59592 -0.391105 -1.94083 0
M  V30 36 H 5.62602 1.76661 0.00158325 0
M  V30 37 H 5.74043 -1.44752 0.856223 0
M  V30 END ATOM
M  V30 BEGIN BOND
M  V30 1 1 1 2
M  V30 2 1 2 3
M  V30 3 1 3 4
M  V30 4 1 4 5
M  V30 5 1 5 6
M  V30 6 1 6 7
M  V30 7 1 7 8
M  V30 8 2 7 9 CFG=2
M  V30 9 1 2 10
M  V30 10 2 10 11
M  V30 11 1 10 12
M  V30 12 1 12 13
M  V30 13 1 13 14
M  V30 14 1 14 15
M  V30 15 1 13 16
M  V30 16 1 16 17
M  V30 17 2 16 18
M  V30 18 1 1 19
M  V30 19 1 1 20
M  V30 20 1 2 21 CFG=1
M  V30 21 1 3 22
M  V30 22 1 3 23
M  V30 23 1 4 24
M  V30 24 1 4 25
M  V30 25 1 5 26
M  V30 26 1 5 27
M  V30 27 1 6 28
M  V30 28 1 8 29
M  V30 29 1 8 30
M  V30 30 1 9 31
M  V30 31 1 12 32
M  V30 32 1 13 33 CFG=3
M  V30 33 1 14 34
M  V30 34 1 14 35
M  V30 35 1 15 36
M  V30 36 1 17 37
M  V30 END BOND
M  V30 END CTAB
M  END
