
     RDKit          3D

  0  0  0  0  0  0  0  0  0  0999 V3000
M  V30 BEGIN CTAB
M  V30 COUNTS 51 52 0 0 0
M  V30 BEGIN ATOM
M  V30 1 N -1.34294 1.92616 -2.84006 0
M  V30 2 C -2.31873 1.71562 -1.76662 0
M  V30 3 C -2.06923 0.377318 -1.11016 0
M  V30 4 C -3.04296 0.127192 -0.00651619 0
M  V30 5 C -2.80932 -1.21821 0.667481 0
M  V30 6 C -3.94672 -2.15427 0.318433 0
M  V30 7 C -5.20784 -1.59299 0.937312 0
M  V30 8 C -5.43778 -0.143341 0.604597 0
M  V30 9 C -4.44968 0.289567 -0.47447 0
M  V30 10 N -0.732161 0.387213 -0.545083 0
M  V30 11 C 0.292937 -0.463387 -0.991049 0
M  V30 12 O 0.0697137 -1.27064 -1.91001 0
M  V30 13 C 1.60402 -0.408819 -0.39205 0
M  V30 14 C 2.00304 -1.30336 0.602383 0
M  V30 15 C 3.25319 -1.25194 1.1708 0
M  V30 16 C 3.68326 -2.212 2.2394 0
M  V30 17 C 4.1367 -0.286198 0.743427 0
M  V30 18 C 3.76189 0.624059 -0.252957 0
M  V30 19 C 2.50151 0.543374 -0.800347 0
M  V30 20 S 4.8584 1.84105 -0.803473 0
M  V30 21 O 4.1643 2.68847 -1.82926 0
M  V30 22 O 6.0791 1.26263 -1.46396 0
M  V30 23 N 5.32431 2.88474 0.517825 0
M  V30 24 C 5.50256 -0.170127 1.31176 0
M  V30 25 H -1.54091 1.26449 -3.59783 0
M  V30 26 H -1.50296 2.92825 -3.15678 0
M  V30 27 H -3.35607 1.7311 -2.17664 0
M  V30 28 H -2.13745 2.50059 -1.01372 0
M  V30 29 H -2.08634 -0.390154 -1.9032 0
M  V30 30 H -2.86429 0.911193 0.774327 0
M  V30 31 H -1.83846 -1.66364 0.33242 0
M  V30 32 H -2.78289 -1.11199 1.77731 0
M  V30 33 H -3.73304 -3.12022 0.841082 0
M  V30 34 H -4.03306 -2.34111 -0.751461 0
M  V30 35 H -5.10721 -1.7114 2.05162 0
M  V30 36 H -6.06752 -2.18778 0.538575 0
M  V30 37 H -5.37111 0.513574 1.4818 0
M  V30 38 H -6.46259 0.00648542 0.160427 0
M  V30 39 H -4.63601 1.37762 -0.639154 0
M  V30 40 H -4.66434 -0.25072 -1.3968 0
M  V30 41 H -0.507172 1.06083 0.241762 0
M  V30 42 H 1.3018 -2.03582 0.91232 0
M  V30 43 H 4.46126 -2.89218 1.85154 0
M  V30 44 H 2.78678 -2.71316 2.62998 0
M  V30 45 H 4.05236 -1.56316 3.08196 0
M  V30 46 H 2.17039 1.23973 -1.5852 0
M  V30 47 H 4.47325 3.24127 0.976004 0
M  V30 48 H 5.9796 3.61054 0.186162 0
M  V30 49 H 5.62817 0.706032 1.97207 0
M  V30 50 H 6.27019 -0.23267 0.519398 0
M  V30 51 H 5.69007 -1.06981 1.96463 0
M  V30 END ATOM
M  V30 BEGIN BOND
M  V30 1 1 1 2
M  V30 2 1 2 3
M  V30 3 1 3 4
M  V30 4 1 4 5
M  V30 5 1 5 6
M  V30 6 1 6 7
M  V30 7 1 7 8
M  V30 8 1 8 9
M  V30 9 1 3 10
M  V30 10 1 10 11
M  V30 11 2 11 12
M  V30 12 1 11 13
M  V30 13 2 13 14
M  V30 14 1 14 15
M  V30 15 1 15 16
M  V30 16 2 15 17
M  V30 17 1 17 18
M  V30 18 2 18 19
M  V30 19 1 18 20
M  V30 20 2 20 21
M  V30 21 2 20 22
M  V30 22 1 20 23
M  V30 23 1 17 24
M  V30 24 1 9 4
M  V30 25 1 19 13
M  V30 26 1 1 25
M  V30 27 1 1 26
M  V30 28 1 2 27
M  V30 29 1 2 28
M  V30 30 1 3 29
M  V30 31 1 4 30
M  V30 32 1 5 31
M  V30 33 1 5 32
M  V30 34 1 6 33
M  V30 35 1 6 34
M  V30 36 1 7 35
M  V30 37 1 7 36
M  V30 38 1 8 37
M  V30 39 1 8 38
M  V30 40 1 9 39
M  V30 41 1 9 40
M  V30 42 1 10 41
M  V30 43 1 14 42
M  V30 44 1 16 43
M  V30 45 1 16 44
M  V30 46 1 16 45
M  V30 47 1 19 46
M  V30 48 1 23 47
M  V30 49 1 23 48
M  V30 50 1 24 49
M  V30 51 1 24 50
M  V30 52 1 24 51
M  V30 END BOND
M  V30 END CTAB
M  END
