
     RDKit          3D

  0  0  0  0  0  0  0  0  0  0999 V3000
M  V30 BEGIN CTAB
M  V30 COUNTS 24 25 0 0 0
M  V30 BEGIN ATOM
M  V30 1 C -3.40996 -0.962205 -0.301171 0
M  V30 2 C -2.74887 0.289686 0.17478 0
M  V30 3 C -1.25044 0.166691 0.169979 0
M  V30 4 N -0.395231 0.610664 -0.767745 0
M  V30 5 C 0.879056 0.324613 -0.441878 0
M  V30 6 C 0.816339 -0.334525 0.766273 0
M  V30 7 N -0.477823 -0.4137 1.10757 0
M  V30 8 C 1.99674 -0.747075 1.33648 0
M  V30 9 O 1.98337 -1.34305 2.42225 0
M  V30 10 N 3.17879 -0.498945 0.705051 0
M  V30 11 C 3.24143 0.144917 -0.475307 0
M  V30 12 N 2.08191 0.543342 -1.02302 0
M  V30 13 N 4.49158 0.397256 -1.12477 0
M  V30 14 N -3.24597 0.704214 1.45213 0
M  V30 15 H -3.61465 -0.963676 -1.40496 0
M  V30 16 H -2.80009 -1.83542 -0.00778053 0
M  V30 17 H -4.42721 -1.04165 0.168363 0
M  V30 18 H -2.99558 1.106 -0.556822 0
M  V30 19 H -0.665078 1.1112 -1.63678 0
M  V30 20 H 4.09116 -0.804813 1.12214 0
M  V30 21 H 4.65096 1.22005 -1.74506 0
M  V30 22 H 5.28139 -0.249874 -0.986753 0
M  V30 23 H -2.56835 1.27612 2.009 0
M  V30 24 H -4.09347 1.30018 1.30835 0
M  V30 END ATOM
M  V30 BEGIN BOND
M  V30 1 1 1 2
M  V30 2 1 2 3
M  V30 3 1 3 4
M  V30 4 1 4 5
M  V30 5 2 5 6
M  V30 6 1 6 7
M  V30 7 1 6 8
M  V30 8 2 8 9
M  V30 9 1 8 10
M  V30 10 1 10 11
M  V30 11 2 11 12
M  V30 12 1 11 13
M  V30 13 1 2 14
M  V30 14 2 7 3
M  V30 15 1 12 5
M  V30 16 1 1 15
M  V30 17 1 1 16
M  V30 18 1 1 17
M  V30 19 1 2 18
M  V30 20 1 4 19
M  V30 21 1 10 20
M  V30 22 1 13 21
M  V30 23 1 13 22
M  V30 24 1 14 23
M  V30 25 1 14 24
M  V30 END BOND
M  V30 END CTAB
M  END
