
     RDKit          3D

  0  0  0  0  0  0  0  0  0  0999 V3000
M  V30 BEGIN CTAB
M  V30 COUNTS 35 38 0 0 0
M  V30 BEGIN ATOM
M  V30 1 N -3.04453 2.7872 0.502212 0
M  V30 2 C -3.66877 1.51761 0.465476 0
M  V30 3 N -3.08992 0.376046 0.868033 0
M  V30 4 C -3.7182 -0.808152 0.812729 0
M  V30 5 C -3.06613 -2.09004 1.26199 0
M  V30 6 S -2.17935 -2.81807 -0.172774 0
M  V30 7 C -0.812895 -1.69358 -0.548302 0
M  V30 8 N -0.813251 -0.629236 -1.36478 0
M  V30 9 N 0.408232 -0.078924 -1.35126 0
M  V30 10 C 1.17432 -0.811881 -0.516023 0
M  V30 11 O 0.408666 -1.76679 -0.0566343 0
M  V30 12 C 2.58125 -0.556659 -0.211451 0
M  V30 13 C 3.30384 -1.36169 0.641966 0
M  V30 14 C 4.6291 -1.07693 0.897741 0
M  V30 15 C 5.27847 -0.000765238 0.326589 0
M  V30 16 C 4.55653 0.803657 -0.526204 0
M  V30 17 C 3.21547 0.521761 -0.789551 0
M  V30 18 O 5.42599 1.79403 -0.955529 0
M  V30 19 C 6.7621 1.41081 -0.70976 0
M  V30 20 O 6.57435 0.526722 0.390983 0
M  V30 21 N -4.98205 -0.814293 0.327221 0
M  V30 22 C -5.62712 0.287426 -0.0947653 0
M  V30 23 N -4.9319 1.45672 -0.0110666 0
M  V30 24 N -6.9531 0.252603 -0.602374 0
M  V30 25 H -2.669 3.24069 1.33904 0
M  V30 26 H -2.95509 3.31894 -0.410341 0
M  V30 27 H -3.84497 -2.82745 1.56725 0
M  V30 28 H -2.37154 -1.91611 2.11603 0
M  V30 29 H 2.80048 -2.22095 1.1026 0
M  V30 30 H 5.17784 -1.72494 1.57361 0
M  V30 31 H 2.70111 1.19345 -1.46999 0
M  V30 32 H 7.25498 0.925982 -1.57546 0
M  V30 33 H 7.30196 2.30107 -0.349013 0
M  V30 34 H -7.62207 0.989753 -0.30475 0
M  V30 35 H -7.20479 -0.508018 -1.25206 0
M  V30 END ATOM
M  V30 BEGIN BOND
M  V30 1 1 1 2
M  V30 2 2 2 3
M  V30 3 1 3 4
M  V30 4 1 4 5
M  V30 5 1 5 6
M  V30 6 1 6 7
M  V30 7 2 7 8
M  V30 8 1 8 9
M  V30 9 2 9 10
M  V30 10 1 10 11
M  V30 11 1 10 12
M  V30 12 2 12 13
M  V30 13 1 13 14
M  V30 14 2 14 15
M  V30 15 1 15 16
M  V30 16 2 16 17
M  V30 17 1 16 18
M  V30 18 1 18 19
M  V30 19 1 19 20
M  V30 20 2 4 21
M  V30 21 1 21 22
M  V30 22 2 22 23
M  V30 23 1 22 24
M  V30 24 1 23 2
M  V30 25 1 11 7
M  V30 26 1 17 12
M  V30 27 1 20 15
M  V30 28 1 1 25
M  V30 29 1 1 26
M  V30 30 1 5 27
M  V30 31 1 5 28
M  V30 32 1 13 29
M  V30 33 1 14 30
M  V30 34 1 17 31
M  V30 35 1 19 32
M  V30 36 1 19 33
M  V30 37 1 24 34
M  V30 38 1 24 35
M  V30 END BOND
M  V30 END CTAB
M  END
