
     RDKit          3D

  0  0  0  0  0  0  0  0  0  0999 V3000
M  V30 BEGIN CTAB
M  V30 COUNTS 30 30 0 0 0
M  V30 BEGIN ATOM
M  V30 1 C -2.9645 -1.86293 1.50119 0
M  V30 2 N -3.25449 -0.811412 0.558323 0
M  V30 3 C -2.20131 0.0553795 0.104131 0
M  V30 4 N -0.950772 -0.123405 0.564725 0
M  V30 5 C -0.00273672 0.695259 0.124093 0
M  V30 6 N -0.276236 1.66739 -0.748929 0
M  V30 7 C -1.53115 1.84068 -1.20606 0
M  V30 8 N -2.49066 1.02248 -0.768683 0
M  V30 9 N -1.74544 2.8889 -2.12725 0
M  V30 10 C 1.41691 0.542147 0.605766 0
M  V30 11 C 1.97865 -0.667732 -0.103674 0
M  V30 12 C 3.39851 -0.954197 0.273639 0
M  V30 13 C 1.892 -0.38703 -1.5933 0
M  V30 14 N 1.34678 0.357286 2.03176 0
M  V30 15 H -2.57935 -2.74525 0.930327 0
M  V30 16 H -2.14398 -1.56894 2.19229 0
M  V30 17 H -3.87467 -2.14016 2.05513 0
M  V30 18 H -4.22893 -0.70689 0.228219 0
M  V30 19 H -1.59499 2.72561 -3.13547 0
M  V30 20 H -2.05469 3.81822 -1.77074 0
M  V30 21 H 2.01799 1.41928 0.30554 0
M  V30 22 H 1.38154 -1.58135 0.0918204 0
M  V30 23 H 4.1317 -0.291338 -0.229122 0
M  V30 24 H 3.50979 -0.91342 1.37887 0
M  V30 25 H 3.59086 -2.03486 0.00519535 0
M  V30 26 H 0.867514 -0.662131 -1.95685 0
M  V30 27 H 2.65821 -0.93014 -2.16829 0
M  V30 28 H 2.02825 0.687076 -1.77223 0
M  V30 29 H 0.832358 -0.529044 2.20733 0
M  V30 30 H 0.842837 1.19053 2.42225 0
M  V30 END ATOM
M  V30 BEGIN BOND
M  V30 1 1 1 2
M  V30 2 1 2 3
M  V30 3 2 3 4
M  V30 4 1 4 5
M  V30 5 2 5 6
M  V30 6 1 6 7
M  V30 7 2 7 8
M  V30 8 1 7 9
M  V30 9 1 5 10
M  V30 10 1 10 11
M  V30 11 1 11 12
M  V30 12 1 11 13
M  V30 13 1 10 14
M  V30 14 1 8 3
M  V30 15 1 1 15
M  V30 16 1 1 16
M  V30 17 1 1 17
M  V30 18 1 2 18
M  V30 19 1 9 19
M  V30 20 1 9 20
M  V30 21 1 10 21
M  V30 22 1 11 22
M  V30 23 1 12 23
M  V30 24 1 12 24
M  V30 25 1 12 25
M  V30 26 1 13 26
M  V30 27 1 13 27
M  V30 28 1 13 28
M  V30 29 1 14 29
M  V30 30 1 14 30
M  V30 END BOND
M  V30 END CTAB
M  END
