
     RDKit          3D

  0  0  0  0  0  0  0  0  0  0999 V3000
M  V30 BEGIN CTAB
M  V30 COUNTS 19 19 0 0 0
M  V30 BEGIN ATOM
M  V30 1 C 2.87145 0.539794 0.258333 0
M  V30 2 C 1.44517 0.118521 0.0737387 0
M  V30 3 C 1.13669 -1.1434 -0.393397 0
M  V30 4 C -0.165161 -1.53182 -0.563292 0
M  V30 5 C -1.21102 -0.682379 -0.275959 0
M  V30 6 N -2.55535 -1.10158 -0.45798 0
M  V30 7 C -0.917408 0.59875 0.197864 0
M  V30 8 N -1.96399 1.48338 0.498044 0
M  V30 9 C 0.39846 0.971381 0.362298 0
M  V30 10 H 3.09461 1.43684 -0.344999 0
M  V30 11 H 3.51392 -0.277216 -0.0690609 0
M  V30 12 H 3.03471 0.776648 1.32331 0
M  V30 13 H 1.9763 -1.82661 -0.624556 0
M  V30 14 H -0.404806 -2.52146 -0.929618 0
M  V30 15 H -3.03461 -1.68908 0.240944 0
M  V30 16 H -3.05002 -0.803913 -1.31296 0
M  V30 17 H -2.41522 2.13777 -0.194428 0
M  V30 18 H -2.36911 1.53879 1.47833 0
M  V30 19 H 0.615386 1.97558 0.733399 0
M  V30 END ATOM
M  V30 BEGIN BOND
M  V30 1 1 1 2
M  V30 2 2 2 3
M  V30 3 1 3 4
M  V30 4 2 4 5
M  V30 5 1 5 6
M  V30 6 1 5 7
M  V30 7 1 7 8
M  V30 8 2 7 9
M  V30 9 1 9 2
M  V30 10 1 1 10
M  V30 11 1 1 11
M  V30 12 1 1 12
M  V30 13 1 3 13
M  V30 14 1 4 14
M  V30 15 1 6 15
M  V30 16 1 6 16
M  V30 17 1 8 17
M  V30 18 1 8 18
M  V30 19 1 9 19
M  V30 END BOND
M  V30 END CTAB
M  END
