
     RDKit          3D

  0  0  0  0  0  0  0  0  0  0999 V3000
M  V30 BEGIN CTAB
M  V30 COUNTS 30 30 0 0 0
M  V30 BEGIN ATOM
M  V30 1 C -5.07787 1.25551 -0.464243 0
M  V30 2 N -3.84527 0.505388 -0.636965 0
M  V30 3 N -3.92557 -0.639255 -1.38969 0
M  V30 4 C -2.6842 0.984057 -0.0409686 0
M  V30 5 O -2.86394 2.09759 0.626989 0
M  V30 6 C -1.34224 0.446553 -0.0503323 0
M  V30 7 C -0.935331 -0.697386 -0.681055 0
M  V30 8 C 0.368512 -1.14364 -0.64156 0
M  V30 9 C 1.37673 -0.455263 0.0504504 0
M  V30 10 C 0.980224 0.690779 0.685109 0
M  V30 11 C -0.350403 1.13018 0.634545 0
M  V30 12 C 2.72597 -0.982035 0.0497097 0
M  V30 13 O 2.88858 -2.09292 -0.620767 0
M  V30 14 N 3.84125 -0.447475 0.669939 0
M  V30 15 C 5.11055 -1.1795 0.517896 0
M  V30 16 N 3.86825 0.708494 1.41652 0
M  V30 17 H -5.0495 1.90177 0.433555 0
M  V30 18 H -5.33996 1.82596 -1.38171 0
M  V30 19 H -5.88486 0.516709 -0.293156 0
M  V30 20 H -4.6959 -0.575505 -2.10619 0
M  V30 21 H -4.13264 -1.50964 -0.828612 0
M  V30 22 H -1.68271 -1.28032 -1.24054 0
M  V30 23 H 0.640218 -2.05025 -1.15408 0
M  V30 24 H 1.66422 1.29928 1.24514 0
M  V30 25 H -0.625158 2.04902 1.15415 0
M  V30 26 H 5.16157 -1.67248 -0.479344 0
M  V30 27 H 5.19894 -1.9702 1.28583 0
M  V30 28 H 5.94806 -0.454045 0.540167 0
M  V30 29 H 4.65766 1.29945 1.09079 0
M  V30 30 H 4.00481 0.439189 2.43495 0
M  V30 END ATOM
M  V30 BEGIN BOND
M  V30 1 1 1 2
M  V30 2 1 2 3
M  V30 3 1 2 4
M  V30 4 2 4 5
M  V30 5 1 4 6
M  V30 6 2 6 7
M  V30 7 1 7 8
M  V30 8 2 8 9
M  V30 9 1 9 10
M  V30 10 2 10 11
M  V30 11 1 9 12
M  V30 12 2 12 13
M  V30 13 1 12 14
M  V30 14 1 14 15
M  V30 15 1 14 16
M  V30 16 1 11 6
M  V30 17 1 1 17
M  V30 18 1 1 18
M  V30 19 1 1 19
M  V30 20 1 3 20
M  V30 21 1 3 21
M  V30 22 1 7 22
M  V30 23 1 8 23
M  V30 24 1 10 24
M  V30 25 1 11 25
M  V30 26 1 15 26
M  V30 27 1 15 27
M  V30 28 1 15 28
M  V30 29 1 16 29
M  V30 30 1 16 30
M  V30 END BOND
M  V30 END CTAB
M  END
