
     RDKit          3D

  0  0  0  0  0  0  0  0  0  0999 V3000
M  V30 BEGIN CTAB
M  V30 COUNTS 32 35 0 0 0
M  V30 BEGIN ATOM
M  V30 1 N 1.37743 1.26214 1.42347 0
M  V30 2 C 1.7146 0.313584 0.34743 0
M  V30 3 C 0.751961 -0.416089 -0.228473 0
M  V30 4 S 1.68128 -1.41555 -1.34062 0
M  V30 5 C 3.23178 -0.827795 -0.993928 0
M  V30 6 C 4.51742 -1.13409 -1.48776 0
M  V30 7 C 5.61608 -0.465764 -1.00076 0
M  V30 8 C 5.3895 0.485073 -0.0371156 0
M  V30 9 C 4.14587 0.769851 0.429571 0
M  V30 10 C 3.00535 0.11326 -0.0395388 0
M  V30 11 C -0.729479 -0.470404 -0.169957 0
M  V30 12 C -1.70728 0.353029 0.230281 0
M  V30 13 N -1.40148 1.68242 0.78001 0
M  V30 14 C -2.99996 -0.0641546 0.0641324 0
M  V30 15 C -4.17329 0.628929 0.410651 0
M  V30 16 C -5.40386 0.0875831 0.185731 0
M  V30 17 C -5.59127 -1.13976 -0.379605 0
M  V30 18 C -4.46409 -1.83459 -0.72587 0
M  V30 19 C -3.20161 -1.27815 -0.494616 0
M  V30 20 S -1.6385 -1.84245 -0.788913 0
M  V30 21 H 1.04618 0.8827 2.31962 0
M  V30 22 H 1.52269 2.2518 1.15454 0
M  V30 23 H 4.54481 -1.89435 -2.23496 0
M  V30 24 H 6.59594 -0.703481 -1.38135 0
M  V30 25 H 6.26012 1.01911 0.352857 0
M  V30 26 H 4.08153 1.5334 1.1847 0
M  V30 27 H -1.07672 2.45518 0.200932 0
M  V30 28 H -1.54656 1.78987 1.79856 0
M  V30 29 H -4.12356 1.60914 0.864935 0
M  V30 30 H -6.32653 0.62205 0.45322 0
M  V30 31 H -6.57153 -1.55647 -0.552071 0
M  V30 32 H -4.52683 -2.81602 -1.17978 0
M  V30 END ATOM
M  V30 BEGIN BOND
M  V30 1 1 1 2
M  V30 2 2 2 3
M  V30 3 1 3 4
M  V30 4 1 4 5
M  V30 5 2 5 6
M  V30 6 1 6 7
M  V30 7 2 7 8
M  V30 8 1 8 9
M  V30 9 2 9 10
M  V30 10 1 3 11
M  V30 11 2 11 12
M  V30 12 1 12 13
M  V30 13 1 12 14
M  V30 14 2 14 15
M  V30 15 1 15 16
M  V30 16 2 16 17
M  V30 17 1 17 18
M  V30 18 2 18 19
M  V30 19 1 19 20
M  V30 20 1 10 2
M  V30 21 1 20 11
M  V30 22 1 10 5
M  V30 23 1 19 14
M  V30 24 1 1 21
M  V30 25 1 1 22
M  V30 26 1 6 23
M  V30 27 1 7 24
M  V30 28 1 8 25
M  V30 29 1 9 26
M  V30 30 1 13 27
M  V30 31 1 13 28
M  V30 32 1 15 29
M  V30 33 1 16 30
M  V30 34 1 17 31
M  V30 35 1 18 32
M  V30 END BOND
M  V30 END CTAB
M  END
