
     RDKit          3D

  0  0  0  0  0  0  0  0  0  0999 V3000
M  V30 BEGIN CTAB
M  V30 COUNTS 44 46 0 0 0
M  V30 BEGIN ATOM
M  V30 1 N -5.42949 3.28445 -0.508017 0
M  V30 2 C -5.01478 1.94188 -0.211891 0
M  V30 3 C -3.92461 1.68137 0.582686 0
M  V30 4 C -3.57689 0.364218 0.830036 0
M  V30 5 C -4.29203 -0.689116 0.302767 0
M  V30 6 C -5.37882 -0.398578 -0.489189 0
M  V30 7 C -5.7585 0.900186 -0.759965 0
M  V30 8 S -3.81081 -2.32662 0.646023 0
M  V30 9 O -5.03393 -3.22327 0.636147 0
M  V30 10 O -3.23023 -2.43923 2.03812 0
M  V30 11 O -2.72144 -2.83039 -0.534034 0
M  V30 12 C -1.35922 -2.89925 -0.379702 0
M  V30 13 C -0.616407 -1.78166 -0.703087 0
M  V30 14 C 0.758194 -1.74844 -0.583587 0
M  V30 15 O 1.52193 -0.634455 -0.903702 0
M  V30 16 S 1.81609 0.494304 0.337936 0
M  V30 17 O 1.63245 -0.10806 1.69917 0
M  V30 18 O 0.805751 1.59605 0.176274 0
M  V30 19 C 3.44906 1.11002 0.218224 0
M  V30 20 C 3.77195 2.22913 -0.523105 0
M  V30 21 C 5.08384 2.64256 -0.560831 0
M  V30 22 C 6.10392 1.99233 0.109032 0
M  V30 23 N 7.44007 2.45556 0.0402712 0
M  V30 24 C 5.74214 0.871096 0.844192 0
M  V30 25 C 4.43551 0.446227 0.891186 0
M  V30 26 C 1.36276 -2.90349 -0.11836 0
M  V30 27 C 0.640552 -4.0309 0.210456 0
M  V30 28 C -0.731766 -4.04565 0.0846566 0
M  V30 29 H -6.28059 3.62612 -0.0528862 0
M  V30 30 H -4.86127 3.85644 -1.16421 0
M  V30 31 H -3.36684 2.49916 0.993908 0
M  V30 32 H -2.6996 0.195663 1.46965 0
M  V30 33 H -5.96708 -1.18524 -0.922518 0
M  V30 34 H -6.6088 1.14725 -1.37949 0
M  V30 35 H -1.08679 -0.864027 -1.07174 0
M  V30 36 H 2.97204 2.72434 -1.03782 0
M  V30 37 H 5.34829 3.53307 -1.14924 0
M  V30 38 H 7.68417 3.34467 0.516727 0
M  V30 39 H 8.17035 1.92847 -0.471617 0
M  V30 40 H 6.54841 0.365656 1.36753 0
M  V30 41 H 4.19378 -0.436155 1.47825 0
M  V30 42 H 2.45074 -2.86667 -0.0274943 0
M  V30 43 H 1.15853 -4.90855 0.569542 0
M  V30 44 H -1.34067 -4.91049 0.331654 0
M  V30 END ATOM
M  V30 BEGIN BOND
M  V30 1 1 1 2
M  V30 2 2 2 3
M  V30 3 1 3 4
M  V30 4 2 4 5
M  V30 5 1 5 6
M  V30 6 2 6 7
M  V30 7 1 5 8
M  V30 8 2 8 9
M  V30 9 2 8 10
M  V30 10 1 8 11
M  V30 11 1 11 12
M  V30 12 2 12 13
M  V30 13 1 13 14
M  V30 14 1 14 15
M  V30 15 1 15 16
M  V30 16 2 16 17
M  V30 17 2 16 18
M  V30 18 1 16 19
M  V30 19 2 19 20
M  V30 20 1 20 21
M  V30 21 2 21 22
M  V30 22 1 22 23
M  V30 23 1 22 24
M  V30 24 2 24 25
M  V30 25 2 14 26
M  V30 26 1 26 27
M  V30 27 2 27 28
M  V30 28 1 7 2
M  V30 29 1 28 12
M  V30 30 1 25 19
M  V30 31 1 1 29
M  V30 32 1 1 30
M  V30 33 1 3 31
M  V30 34 1 4 32
M  V30 35 1 6 33
M  V30 36 1 7 34
M  V30 37 1 13 35
M  V30 38 1 20 36
M  V30 39 1 21 37
M  V30 40 1 23 38
M  V30 41 1 23 39
M  V30 42 1 24 40
M  V30 43 1 25 41
M  V30 44 1 26 42
M  V30 45 1 27 43
M  V30 46 1 28 44
M  V30 END BOND
M  V30 END CTAB
M  END
