
     RDKit          3D

  0  0  0  0  0  0  0  0  0  0999 V3000
M  V30 BEGIN CTAB
M  V30 COUNTS 40 42 0 0 0
M  V30 BEGIN ATOM
M  V30 1 N 2.67234 -2.89281 -1.76688 0
M  V30 2 C 1.71003 -2.34301 -1.4441 0
M  V30 3 C 0.511373 -1.66646 -1.01581 0
M  V30 4 C -0.694329 -2.11435 -1.54295 0
M  V30 5 N -0.688088 -3.19799 -2.48333 0
M  V30 6 N -1.80869 -1.54165 -1.17332 0
M  V30 7 C -1.90359 -0.506959 -0.285654 0
M  V30 8 C -0.749451 -0.0602263 0.234183 0
M  V30 9 C 0.484914 -0.634614 -0.123532 0
M  V30 10 C 1.73028 -0.139159 0.427487 0
M  V30 11 C 1.8691 -0.014356 1.8186 0
M  V30 12 C 3.04529 0.467191 2.29267 0
M  V30 13 C 4.08004 0.827359 1.46288 0
M  V30 14 C 3.92154 0.69622 0.0928233 0
M  V30 15 C 2.7422 0.211639 -0.421475 0
M  V30 16 O 4.93258 1.04539 -0.771966 0
M  V30 17 C 4.75756 0.907049 -2.15736 0
M  V30 18 O 5.26006 1.31139 1.96104 0
M  V30 19 C -3.26324 -0.00808956 -0.00775055 0
M  V30 20 S -4.72664 -0.639654 -0.724016 0
M  V30 21 C -5.85921 0.376637 0.029605 0
M  V30 22 N -5.08458 1.12736 0.770621 0
M  V30 23 C -3.78639 0.962254 0.775658 0
M  V30 24 C -2.9128 1.85535 1.65178 0
M  V30 25 N -7.28465 0.475886 -0.0472122 0
M  V30 26 H -1.49205 -3.80816 -2.597 0
M  V30 27 H 0.168421 -3.33875 -3.04615 0
M  V30 28 H -0.720916 0.742136 0.934157 0
M  V30 29 H 1.03038 -0.308474 2.44828 0
M  V30 30 H 3.1662 0.569461 3.37795 0
M  V30 31 H 2.63659 0.125899 -1.51629 0
M  V30 32 H 3.93506 1.55279 -2.54191 0
M  V30 33 H 4.49009 -0.150471 -2.37453 0
M  V30 34 H 5.67782 1.22865 -2.65565 0
M  V30 35 H 6.01265 1.57281 1.34667 0
M  V30 36 H -2.37956 1.28965 2.41308 0
M  V30 37 H -2.28743 2.4167 0.965833 0
M  V30 38 H -3.54294 2.58442 2.2139 0
M  V30 39 H -7.76925 0.364008 -0.975777 0
M  V30 40 H -7.88072 0.654946 0.773138 0
M  V30 END ATOM
M  V30 BEGIN BOND
M  V30 1 3 1 2
M  V30 2 1 2 3
M  V30 3 2 3 4
M  V30 4 1 4 5
M  V30 5 1 4 6
M  V30 6 2 6 7
M  V30 7 1 7 8
M  V30 8 2 8 9
M  V30 9 1 9 10
M  V30 10 2 10 11
M  V30 11 1 11 12
M  V30 12 2 12 13
M  V30 13 1 13 14
M  V30 14 2 14 15
M  V30 15 1 14 16
M  V30 16 1 16 17
M  V30 17 1 13 18
M  V30 18 1 7 19
M  V30 19 1 19 20
M  V30 20 1 20 21
M  V30 21 2 21 22
M  V30 22 1 22 23
M  V30 23 1 23 24
M  V30 24 1 21 25
M  V30 25 1 9 3
M  V30 26 1 15 10
M  V30 27 2 23 19
M  V30 28 1 5 26
M  V30 29 1 5 27
M  V30 30 1 8 28
M  V30 31 1 11 29
M  V30 32 1 12 30
M  V30 33 1 15 31
M  V30 34 1 17 32
M  V30 35 1 17 33
M  V30 36 1 17 34
M  V30 37 1 18 35
M  V30 38 1 24 36
M  V30 39 1 24 37
M  V30 40 1 24 38
M  V30 41 1 25 39
M  V30 42 1 25 40
M  V30 END BOND
M  V30 END CTAB
M  END
