
     RDKit          3D

  0  0  0  0  0  0  0  0  0  0999 V3000
M  V30 BEGIN CTAB
M  V30 COUNTS 28 29 0 0 0
M  V30 BEGIN ATOM
M  V30 1 N 5.67659 -0.0185075 -1.05185 0
M  V30 2 C 4.26199 0.0164816 -0.806345 0
M  V30 3 N 3.5044 1.03615 -1.19955 0
M  V30 4 C 2.16895 0.997301 -0.930082 0
M  V30 5 C 1.57392 -0.0339755 -0.278492 0
M  V30 6 N 0.225508 -0.108831 0.0123589 0
M  V30 7 C -0.779074 0.810141 -0.282079 0
M  V30 8 O -0.581475 1.888 -0.886768 0
M  V30 9 C -2.1928 0.576455 0.106515 0
M  V30 10 C -2.54554 -0.366757 1.03423 0
M  V30 11 C -3.89006 -0.569426 1.3748 0
M  V30 12 C -4.8896 0.168004 0.791718 0
M  V30 13 C -4.54402 1.11839 -0.141667 0
M  V30 14 C -3.22075 1.30849 -0.468167 0
M  V30 15 C 2.42882 -1.07754 0.109086 0
M  V30 16 N 1.91998 -2.21746 0.801522 0
M  V30 17 N 3.73848 -1.01757 -0.166638 0
M  V30 18 H 6.00059 -0.738726 -1.73686 0
M  V30 19 H 6.30483 0.64779 -0.558924 0
M  V30 20 H 1.63196 1.87493 -1.28994 0
M  V30 21 H -0.0831016 -1.00171 0.532347 0
M  V30 22 H -1.78253 -0.972527 1.52599 0
M  V30 23 H -4.1349 -1.31795 2.10689 0
M  V30 24 H -5.94886 0.0191794 1.0498 0
M  V30 25 H -5.35361 1.6861 -0.585974 0
M  V30 26 H -2.94222 2.05381 -1.201 0
M  V30 27 H 1.54923 -2.12067 1.76764 0
M  V30 28 H 1.90331 -3.16436 0.371443 0
M  V30 END ATOM
M  V30 BEGIN BOND
M  V30 1 1 1 2
M  V30 2 2 2 3
M  V30 3 1 3 4
M  V30 4 2 4 5
M  V30 5 1 5 6
M  V30 6 1 6 7
M  V30 7 2 7 8
M  V30 8 1 7 9
M  V30 9 2 9 10
M  V30 10 1 10 11
M  V30 11 2 11 12
M  V30 12 1 12 13
M  V30 13 2 13 14
M  V30 14 1 5 15
M  V30 15 1 15 16
M  V30 16 2 15 17
M  V30 17 1 17 2
M  V30 18 1 14 9
M  V30 19 1 1 18
M  V30 20 1 1 19
M  V30 21 1 4 20
M  V30 22 1 6 21
M  V30 23 1 10 22
M  V30 24 1 11 23
M  V30 25 1 12 24
M  V30 26 1 13 25
M  V30 27 1 14 26
M  V30 28 1 16 27
M  V30 29 1 16 28
M  V30 END BOND
M  V30 END CTAB
M  END
