
     RDKit          3D

  0  0  0  0  0  0  0  0  0  0999 V3000
M  V30 BEGIN CTAB
M  V30 COUNTS 27 27 0 0 0
M  V30 BEGIN ATOM
M  V30 1 C 2.28878 1.50105 0.346188 0
M  V30 2 N 1.83827 0.132494 0.284054 0
M  V30 3 C 1.31079 -0.235417 -1.01085 0
M  V30 4 C 0.0413746 0.433668 -1.36551 0
M  V30 5 N -1.05467 0.189106 -0.475703 0
M  V30 6 N -1.33161 0.929866 0.582987 0
M  V30 7 C -2.41166 0.453623 1.21494 0
M  V30 8 C -2.81938 -0.650329 0.493597 0
M  V30 9 C -1.95316 -0.805091 -0.570858 0
M  V30 10 N -2.06212 -1.83887 -1.53091 0
M  V30 11 N -3.01737 0.987748 2.40378 0
M  V30 12 C 3.0178 -0.730067 0.469151 0
M  V30 13 H 3.20206 1.52315 0.985979 0
M  V30 14 H 2.52653 1.94448 -0.62678 0
M  V30 15 H 1.55064 2.14669 0.86914 0
M  V30 16 H 1.30722 -1.33565 -1.06031 0
M  V30 17 H 2.08505 0.0991484 -1.75822 0
M  V30 18 H -0.270314 0.0428103 -2.3763 0
M  V30 19 H 0.232634 1.51067 -1.51506 0
M  V30 20 H -3.68469 -1.27636 0.744452 0
M  V30 21 H -2.15492 -1.65209 -2.54593 0
M  V30 22 H -2.04956 -2.82722 -1.21194 0
M  V30 23 H -4.04092 1.17685 2.46162 0
M  V30 24 H -2.44828 1.20307 3.24636 0
M  V30 25 H 3.29563 -0.846739 1.5168 0
M  V30 26 H 2.75631 -1.74035 0.0764474 0
M  V30 27 H 3.84556 -0.336233 -0.169365 0
M  V30 END ATOM
M  V30 BEGIN BOND
M  V30 1 1 1 2
M  V30 2 1 2 3
M  V30 3 1 3 4
M  V30 4 1 4 5
M  V30 5 1 5 6
M  V30 6 2 6 7
M  V30 7 1 7 8
M  V30 8 2 8 9
M  V30 9 1 9 10
M  V30 10 1 7 11
M  V30 11 1 2 12
M  V30 12 1 9 5
M  V30 13 1 1 13
M  V30 14 1 1 14
M  V30 15 1 1 15
M  V30 16 1 3 16
M  V30 17 1 3 17
M  V30 18 1 4 18
M  V30 19 1 4 19
M  V30 20 1 8 20
M  V30 21 1 10 21
M  V30 22 1 10 22
M  V30 23 1 11 23
M  V30 24 1 11 24
M  V30 25 1 12 25
M  V30 26 1 12 26
M  V30 27 1 12 27
M  V30 END BOND
M  V30 END CTAB
M  END
