
     RDKit          3D

  0  0  0  0  0  0  0  0  0  0999 V3000
M  V30 BEGIN CTAB
M  V30 COUNTS 29 31 0 0 0
M  V30 BEGIN ATOM
M  V30 1 N 4.33191 0.524949 0.389486 0
M  V30 2 C 2.94514 0.51743 0.71877 0
M  V30 3 N 2.38845 0.915345 1.87797 0
M  V30 4 N 1.08118 0.750963 1.78545 0
M  V30 5 C 0.760427 0.249598 0.581789 0
M  V30 6 N 1.92831 0.11244 -0.0630786 0
M  V30 7 N 2.14186 -0.37674 -1.36981 0
M  V30 8 C -0.591879 -0.082327 0.071405 0
M  V30 9 C -1.52925 1.09805 0.144858 0
M  V30 10 C -1.23418 2.35459 -0.57903 0
M  V30 11 C -2.26893 1.38185 -1.16191 0
M  V30 12 C -1.18156 -1.21549 0.902849 0
M  V30 13 C -2.5195 -1.74556 0.612923 0
M  V30 14 C -1.24979 -2.57629 0.319772 0
M  V30 15 H 4.6602 0.956064 -0.490409 0
M  V30 16 H 5.02052 0.0979109 1.0306 0
M  V30 17 H 2.3296 -1.35776 -1.61215 0
M  V30 18 H 2.10221 0.327077 -2.1356 0
M  V30 19 H -0.509949 -0.477637 -0.962 0
M  V30 20 H -2.12924 1.21011 1.07159 0
M  V30 21 H -0.347319 2.48693 -1.20948 0
M  V30 22 H -1.64112 3.30357 -0.183455 0
M  V30 23 H -1.98147 0.801969 -2.05517 0
M  V30 24 H -3.33476 1.68717 -1.07577 0
M  V30 25 H -0.88349 -1.14874 1.976 0
M  V30 26 H -3.13653 -2.14201 1.46364 0
M  V30 27 H -3.08415 -1.46458 -0.300422 0
M  V30 28 H -1.00718 -2.75876 -0.744369 0
M  V30 29 H -1.05953 -3.43013 0.995555 0
M  V30 END ATOM
M  V30 BEGIN BOND
M  V30 1 1 1 2
M  V30 2 2 2 3
M  V30 3 1 3 4
M  V30 4 2 4 5
M  V30 5 1 5 6
M  V30 6 1 6 7
M  V30 7 1 5 8
M  V30 8 1 8 9
M  V30 9 1 9 10
M  V30 10 1 10 11
M  V30 11 1 8 12
M  V30 12 1 12 13
M  V30 13 1 13 14
M  V30 14 1 6 2
M  V30 15 1 11 9
M  V30 16 1 14 12
M  V30 17 1 1 15
M  V30 18 1 1 16
M  V30 19 1 7 17
M  V30 20 1 7 18
M  V30 21 1 8 19
M  V30 22 1 9 20
M  V30 23 1 10 21
M  V30 24 1 10 22
M  V30 25 1 11 23
M  V30 26 1 11 24
M  V30 27 1 12 25
M  V30 28 1 13 26
M  V30 29 1 13 27
M  V30 30 1 14 28
M  V30 31 1 14 29
M  V30 END BOND
M  V30 END CTAB
M  END
