
     RDKit          3D

  0  0  0  0  0  0  0  0  0  0999 V3000
M  V30 BEGIN CTAB
M  V30 COUNTS 21 20 0 0 0
M  V30 BEGIN ATOM
M  V30 1 C 0.354142 1.18389 1.32664 0
M  V30 2 C -0.140128 0.589188 0.0400096 0
M  V30 3 C -1.13631 -0.475234 0.309452 0
M  V30 4 N -1.45531 -0.763208 1.52375 0
M  V30 5 N -1.77608 -1.21514 -0.718659 0
M  V30 6 C 0.994024 0.0847729 -0.832217 0
M  V30 7 C 1.80453 -0.981439 -0.150481 0
M  V30 8 N -0.788354 1.65963 -0.72284 0
M  V30 9 H 1.31431 1.71311 1.22594 0
M  V30 10 H -0.456909 1.83853 1.72001 0
M  V30 11 H 0.493184 0.385736 2.09052 0
M  V30 12 H -2.12894 -1.47837 1.80435 0
M  V30 13 H -2.83181 -1.32718 -0.717126 0
M  V30 14 H -1.28102 -1.6765 -1.5063 0
M  V30 15 H 1.64797 0.952485 -1.03581 0
M  V30 16 H 0.543087 -0.254015 -1.78748 0
M  V30 17 H 2.88882 -0.76831 -0.257662 0
M  V30 18 H 1.57414 -1.04753 0.929436 0
M  V30 19 H 1.62855 -1.94889 -0.677138 0
M  V30 20 H -1.17954 1.18881 -1.58246 0
M  V30 21 H -0.0683532 2.33968 -0.981927 0
M  V30 END ATOM
M  V30 BEGIN BOND
M  V30 1 1 1 2
M  V30 2 1 2 3
M  V30 3 2 3 4 CFG=2
M  V30 4 1 3 5
M  V30 5 1 2 6
M  V30 6 1 6 7
M  V30 7 1 2 8
M  V30 8 1 1 9
M  V30 9 1 1 10
M  V30 10 1 1 11
M  V30 11 1 4 12
M  V30 12 1 5 13
M  V30 13 1 5 14
M  V30 14 1 6 15
M  V30 15 1 6 16
M  V30 16 1 7 17
M  V30 17 1 7 18
M  V30 18 1 7 19
M  V30 19 1 8 20
M  V30 20 1 8 21
M  V30 END BOND
M  V30 END CTAB
M  END
