
     RDKit          3D

  0  0  0  0  0  0  0  0  0  0999 V3000
M  V30 BEGIN CTAB
M  V30 COUNTS 44 46 0 0 0
M  V30 BEGIN ATOM
M  V30 1 O -3.39645 2.13645 -0.62503 0
M  V30 2 C -2.86286 1.07185 -0.275583 0
M  V30 3 C -1.38886 1.10269 -0.220584 0
M  V30 4 C -0.709164 2.14213 -0.827702 0
M  V30 5 C 0.662444 2.24126 -0.814474 0
M  V30 6 C 1.39963 1.27516 -0.175688 0
M  V30 7 C 0.752656 0.237001 0.432854 0
M  V30 8 C -0.647266 0.137246 0.418392 0
M  V30 9 C 2.88507 1.38356 -0.148375 0
M  V30 10 O 3.39759 2.51189 -0.302921 0
M  V30 11 N 3.62588 0.227518 0.0460554 0
M  V30 12 C 5.02518 0.125519 0.105382 0
M  V30 13 C 5.85825 1.19925 -0.0270515 0
M  V30 14 C 7.25102 0.987722 0.0483116 0
M  V30 15 C 7.78916 -0.250666 0.248496 0
M  V30 16 C 6.90983 -1.31453 0.378012 0
M  V30 17 C 5.56587 -1.16252 0.312999 0
M  V30 18 N 4.66671 -2.27402 0.449051 0
M  V30 19 N -3.61277 -0.0617275 0.0383558 0
M  V30 20 C -5.00477 -0.150078 0.0060411 0
M  V30 21 C -5.88641 0.81524 -0.32612 0
M  V30 22 C -7.28046 0.620937 -0.326193 0
M  V30 23 C -7.77292 -0.609257 0.0282842 0
M  V30 24 C -6.8925 -1.61764 0.373542 0
M  V30 25 C -5.53657 -1.40686 0.366961 0
M  V30 26 N -4.69111 -2.4895 0.733429 0
M  V30 27 H -1.27034 2.91902 -1.34 0
M  V30 28 H 1.19061 3.05007 -1.28691 0
M  V30 29 H 1.2641 -0.566918 0.967198 0
M  V30 30 H -1.14086 -0.690655 0.908417 0
M  V30 31 H 3.04682 -0.680316 0.154136 0
M  V30 32 H 5.51124 2.2031 -0.186399 0
M  V30 33 H 7.88139 1.84988 -0.0592519 0
M  V30 34 H 8.83935 -0.434594 0.308934 0
M  V30 35 H 7.31731 -2.31795 0.539311 0
M  V30 36 H 4.52812 -2.98949 -0.277183 0
M  V30 37 H 4.1375 -2.33776 1.33991 0
M  V30 38 H -3.01836 -0.917196 0.320872 0
M  V30 39 H -5.56894 1.7918 -0.610613 0
M  V30 40 H -7.97927 1.3936 -0.591774 0
M  V30 41 H -8.83922 -0.769684 0.0318336 0
M  V30 42 H -7.2968 -2.59606 0.654934 0
M  V30 43 H -3.96748 -2.78278 0.0432425 0
M  V30 44 H -4.74234 -3.0027 1.62863 0
M  V30 END ATOM
M  V30 BEGIN BOND
M  V30 1 2 1 2
M  V30 2 1 2 3
M  V30 3 2 3 4
M  V30 4 1 4 5
M  V30 5 2 5 6
M  V30 6 1 6 7
M  V30 7 2 7 8
M  V30 8 1 6 9
M  V30 9 2 9 10
M  V30 10 1 9 11
M  V30 11 1 11 12
M  V30 12 2 12 13
M  V30 13 1 13 14
M  V30 14 2 14 15
M  V30 15 1 15 16
M  V30 16 2 16 17
M  V30 17 1 17 18
M  V30 18 1 2 19
M  V30 19 1 19 20
M  V30 20 2 20 21
M  V30 21 1 21 22
M  V30 22 2 22 23
M  V30 23 1 23 24
M  V30 24 2 24 25
M  V30 25 1 25 26
M  V30 26 1 8 3
M  V30 27 1 17 12
M  V30 28 1 25 20
M  V30 29 1 4 27
M  V30 30 1 5 28
M  V30 31 1 7 29
M  V30 32 1 8 30
M  V30 33 1 11 31
M  V30 34 1 13 32
M  V30 35 1 14 33
M  V30 36 1 15 34
M  V30 37 1 16 35
M  V30 38 1 18 36
M  V30 39 1 18 37
M  V30 40 1 19 38
M  V30 41 1 21 39
M  V30 42 1 22 40
M  V30 43 1 23 41
M  V30 44 1 24 42
M  V30 45 1 26 43
M  V30 46 1 26 44
M  V30 END BOND
M  V30 END CTAB
M  END
