
     RDKit          3D

  0  0  0  0  0  0  0  0  0  0999 V3000
M  V30 BEGIN CTAB
M  V30 COUNTS 22 23 0 0 0
M  V30 BEGIN ATOM
M  V30 1 N 3.87115 -0.701248 -1.0964 0
M  V30 2 C 2.68304 -0.232529 -0.466823 0
M  V30 3 N 1.44398 -0.655666 -0.74145 0
M  V30 4 N 0.531587 -0.051212 -0.00833202 0
M  V30 5 C 1.21864 0.808275 0.781981 0
M  V30 6 C 2.57067 0.720229 0.520302 0
M  V30 7 N 0.614315 1.67151 1.74022 0
M  V30 8 C -0.882071 -0.224729 -0.00589678 0
M  V30 9 N -1.64945 -0.0859198 1.08934 0
M  V30 10 C -2.9743 -0.246002 1.10364 0
M  V30 11 C -3.61971 -0.576419 -0.0744473 0
M  V30 12 C -2.89869 -0.737762 -1.24866 0
M  V30 13 C -1.51665 -0.553747 -1.18368 0
M  V30 14 Cl -0.55364 -0.747406 -2.64934 0
M  V30 15 H 3.85686 -1.56122 -1.6709 0
M  V30 16 H 4.76428 -0.172008 -0.976861 0
M  V30 17 H 3.37764 1.26838 0.977488 0
M  V30 18 H 0.32928 1.2312 2.64863 0
M  V30 19 H 0.463607 2.68438 1.54965 0
M  V30 20 H -3.57299 -0.125222 2.01676 0
M  V30 21 H -4.70224 -0.71812 -0.113963 0
M  V30 22 H -3.35529 -0.994769 -2.19126 0
M  V30 END ATOM
M  V30 BEGIN BOND
M  V30 1 1 1 2
M  V30 2 2 2 3
M  V30 3 1 3 4
M  V30 4 1 4 5
M  V30 5 2 5 6
M  V30 6 1 5 7
M  V30 7 1 4 8
M  V30 8 2 8 9
M  V30 9 1 9 10
M  V30 10 2 10 11
M  V30 11 1 11 12
M  V30 12 2 12 13
M  V30 13 1 13 14
M  V30 14 1 6 2
M  V30 15 1 13 8
M  V30 16 1 1 15
M  V30 17 1 1 16
M  V30 18 1 6 17
M  V30 19 1 7 18
M  V30 20 1 7 19
M  V30 21 1 10 20
M  V30 22 1 11 21
M  V30 23 1 12 22
M  V30 END BOND
M  V30 END CTAB
M  END
