
     RDKit          3D

  0  0  0  0  0  0  0  0  0  0999 V3000
M  V30 BEGIN CTAB
M  V30 COUNTS 33 33 0 0 0
M  V30 BEGIN ATOM
M  V30 1 N -4.85854 1.60816 0.28567 0
M  V30 2 C -3.86264 0.758049 0.949046 0
M  V30 3 C -2.96281 0.236995 -0.138915 0
M  V30 4 C -3.0246 0.696239 -1.43572 0
M  V30 5 C -2.19463 0.204862 -2.42954 0
M  V30 6 C -1.27431 -0.791268 -2.0689 0
M  V30 7 C -1.20206 -1.2576 -0.780259 0
M  V30 8 C -2.04335 -0.74522 0.181445 0
M  V30 9 C -0.241687 -2.30927 -0.378191 0
M  V30 10 N 0.795897 -1.66603 0.403335 0
M  V30 11 C 1.82398 -0.913209 -0.213811 0
M  V30 12 O 1.88191 -0.775259 -1.4472 0
M  V30 13 C 2.8451 -0.283462 0.646862 0
M  V30 14 N 3.83569 0.444167 -0.10131 0
M  V30 15 C 4.86595 1.1221 0.594384 0
M  V30 16 S 4.90826 1.07411 2.2161 0
M  V30 17 N 5.82439 1.82532 -0.178492 0
M  V30 18 H -5.05941 2.47283 0.814561 0
M  V30 19 H -5.74044 1.06469 0.0651692 0
M  V30 20 H -3.2306 1.34538 1.6432 0
M  V30 21 H -4.39781 -0.0362023 1.47462 0
M  V30 22 H -3.76436 1.46899 -1.63596 0
M  V30 23 H -2.26377 0.582396 -3.43648 0
M  V30 24 H -0.621771 -1.19008 -2.81752 0
M  V30 25 H -2.01364 -1.09546 1.2231 0
M  V30 26 H -0.767926 -3.04911 0.276116 0
M  V30 27 H 0.192353 -2.83614 -1.26283 0
M  V30 28 H 0.750077 -1.78336 1.44555 0
M  V30 29 H 3.36704 -1.12386 1.19524 0
M  V30 30 H 2.36436 0.347347 1.4295 0
M  V30 31 H 3.75491 0.442734 -1.14704 0
M  V30 32 H 6.81885 1.78634 0.0712152 0
M  V30 33 H 5.49559 2.37481 -0.995051 0
M  V30 END ATOM
M  V30 BEGIN BOND
M  V30 1 1 1 2
M  V30 2 1 2 3
M  V30 3 2 3 4
M  V30 4 1 4 5
M  V30 5 2 5 6
M  V30 6 1 6 7
M  V30 7 2 7 8
M  V30 8 1 7 9
M  V30 9 1 9 10
M  V30 10 1 10 11
M  V30 11 2 11 12
M  V30 12 1 11 13
M  V30 13 1 13 14
M  V30 14 1 14 15
M  V30 15 2 15 16
M  V30 16 1 15 17
M  V30 17 1 8 3
M  V30 18 1 1 18
M  V30 19 1 1 19
M  V30 20 1 2 20
M  V30 21 1 2 21
M  V30 22 1 4 22
M  V30 23 1 5 23
M  V30 24 1 6 24
M  V30 25 1 8 25
M  V30 26 1 9 26
M  V30 27 1 9 27
M  V30 28 1 10 28
M  V30 29 1 13 29
M  V30 30 1 13 30
M  V30 31 1 14 31
M  V30 32 1 17 32
M  V30 33 1 17 33
M  V30 END BOND
M  V30 END CTAB
M  END
