
     RDKit          3D

  0  0  0  0  0  0  0  0  0  0999 V3000
M  V30 BEGIN CTAB
M  V30 COUNTS 40 41 0 0 0
M  V30 BEGIN ATOM
M  V30 1 C 4.51234 0.342514 1.1415 0
M  V30 2 C 3.95294 -0.424291 -0.0657394 0
M  V30 3 C 3.08709 -1.5535 0.336791 0
M  V30 4 C 1.6149 -1.27625 0.36521 0
M  V30 5 C 1.157 -0.24465 -0.597814 0
M  V30 6 C 2.04059 0.97685 -0.64016 0
M  V30 7 C 3.40452 0.516749 -1.08199 0
M  V30 8 N -0.176006 0.188792 -0.233665 0
M  V30 9 C -1.08339 -0.908919 -0.325578 0
M  V30 10 C -2.47924 -0.505617 0.0246496 0
M  V30 11 N -2.83969 -0.28776 1.29962 0
M  V30 12 C -4.11024 0.0726875 1.61295 0
M  V30 13 N -4.52952 0.313086 2.9503 0
M  V30 14 N -5.01168 0.209939 0.61819 0
M  V30 15 C -4.68513 -0.00115792 -0.678482 0
M  V30 16 N -3.42055 -0.354753 -0.935278 0
M  V30 17 N -5.66841 0.153887 -1.68956 0
M  V30 18 C -0.612534 1.36619 -0.910238 0
M  V30 19 H 3.73289 0.780131 1.76247 0
M  V30 20 H 5.2316 1.0756 0.712557 0
M  V30 21 H 5.14718 -0.414523 1.67635 0
M  V30 22 H 4.88266 -0.876828 -0.527633 0
M  V30 23 H 3.37573 -1.8458 1.38922 0
M  V30 24 H 3.3205 -2.47745 -0.271274 0
M  V30 25 H 1.23401 -1.0555 1.39051 0
M  V30 26 H 1.11467 -2.24921 0.0782537 0
M  V30 27 H 1.11188 -0.645293 -1.63039 0
M  V30 28 H 1.64502 1.65728 -1.41883 0
M  V30 29 H 2.1212 1.48911 0.321875 0
M  V30 30 H 4.121 1.37519 -1.14972 0
M  V30 31 H 3.36562 0.0247485 -2.06211 0
M  V30 32 H -1.09181 -1.25725 -1.37813 0
M  V30 33 H -0.821273 -1.73003 0.355167 0
M  V30 34 H -5.48253 0.0784894 3.27975 0
M  V30 35 H -3.842 0.744361 3.61731 0
M  V30 36 H -6.66621 0.0120433 -1.47747 0
M  V30 37 H -5.37884 0.413393 -2.65329 0
M  V30 38 H -0.519398 1.29601 -2.01748 0
M  V30 39 H -0.0775962 2.25304 -0.50979 0
M  V30 40 H -1.67728 1.53174 -0.678054 0
M  V30 END ATOM
M  V30 BEGIN BOND
M  V30 1 1 1 2
M  V30 2 1 2 3
M  V30 3 1 3 4
M  V30 4 1 4 5
M  V30 5 1 5 6
M  V30 6 1 6 7
M  V30 7 1 5 8
M  V30 8 1 8 9
M  V30 9 1 9 10
M  V30 10 2 10 11
M  V30 11 1 11 12
M  V30 12 1 12 13
M  V30 13 2 12 14
M  V30 14 1 14 15
M  V30 15 2 15 16
M  V30 16 1 15 17
M  V30 17 1 8 18
M  V30 18 1 7 2
M  V30 19 1 16 10
M  V30 20 1 1 19
M  V30 21 1 1 20
M  V30 22 1 1 21
M  V30 23 1 2 22
M  V30 24 1 3 23
M  V30 25 1 3 24
M  V30 26 1 4 25
M  V30 27 1 4 26
M  V30 28 1 5 27
M  V30 29 1 6 28
M  V30 30 1 6 29
M  V30 31 1 7 30
M  V30 32 1 7 31
M  V30 33 1 9 32
M  V30 34 1 9 33
M  V30 35 1 13 34
M  V30 36 1 13 35
M  V30 37 1 17 36
M  V30 38 1 17 37
M  V30 39 1 18 38
M  V30 40 1 18 39
M  V30 41 1 18 40
M  V30 END BOND
M  V30 END CTAB
M  END
