
     RDKit          3D

  0  0  0  0  0  0  0  0  0  0999 V3000
M  V30 BEGIN CTAB
M  V30 COUNTS 21 22 0 0 0
M  V30 BEGIN ATOM
M  V30 1 F -4.94016 0.249302 0.768158 0
M  V30 2 C -3.59504 0.319517 0.545897 0
M  V30 3 C -2.8131 -0.804972 0.614275 0
M  V30 4 C -1.4467 -0.672427 0.378117 0
M  V30 5 C -0.847223 0.505855 0.0845837 0
M  V30 6 N -1.6691 1.60138 0.0273593 0
M  V30 7 C -2.98763 1.51938 0.247461 0
M  V30 8 C 0.566799 0.704414 -0.170226 0
M  V30 9 N 1.13299 1.9287 -0.46636 0
M  V30 10 N 2.42862 1.78299 -0.644296 0
M  V30 11 C 2.75197 0.492543 -0.47607 0
M  V30 12 N 1.57928 -0.162183 -0.181648 0
M  V30 13 N 1.52124 -1.52971 0.0593145 0
M  V30 14 N 4.00304 -0.15269 -0.562359 0
M  V30 15 H -3.23379 -1.7763 0.844762 0
M  V30 16 H -0.858065 -1.56991 0.438231 0
M  V30 17 H -3.60028 2.42989 0.188903 0
M  V30 18 H 1.48125 -2.25616 -0.696423 0
M  V30 19 H 1.51576 -1.88516 1.04919 0
M  V30 20 H 4.15387 -1.11633 -0.893833 0
M  V30 21 H 4.85629 0.391863 -0.264337 0
M  V30 END ATOM
M  V30 BEGIN BOND
M  V30 1 1 1 2
M  V30 2 2 2 3
M  V30 3 1 3 4
M  V30 4 2 4 5
M  V30 5 1 5 6
M  V30 6 2 6 7
M  V30 7 1 5 8
M  V30 8 2 8 9
M  V30 9 1 9 10
M  V30 10 2 10 11
M  V30 11 1 11 12
M  V30 12 1 12 13
M  V30 13 1 11 14
M  V30 14 1 7 2
M  V30 15 1 12 8
M  V30 16 1 3 15
M  V30 17 1 4 16
M  V30 18 1 7 17
M  V30 19 1 13 18
M  V30 20 1 13 19
M  V30 21 1 14 20
M  V30 22 1 14 21
M  V30 END BOND
M  V30 END CTAB
M  END
