
     RDKit          3D

  0  0  0  0  0  0  0  0  0  0999 V3000
M  V30 BEGIN CTAB
M  V30 COUNTS 27 27 0 0 0
M  V30 BEGIN ATOM
M  V30 1 N 5.60714 -0.717381 0.0311356 0
M  V30 2 N 4.32637 -0.235946 0.313494 0
M  V30 3 C 3.42506 0.205981 -0.674358 0
M  V30 4 O 3.77792 0.176187 -1.87191 0
M  V30 5 C 2.09228 0.693893 -0.309133 0
M  V30 6 S 0.778753 -0.529032 -0.571098 0
M  V30 7 C -0.761959 0.211825 -0.0609601 0
M  V30 8 C -0.84125 1.47504 0.493709 0
M  V30 9 C -2.04831 2.03538 0.877693 0
M  V30 10 C -3.21265 1.31792 0.704898 0
M  V30 11 C -3.14292 0.0418625 0.14518 0
M  V30 12 C -1.94333 -0.517235 -0.23744 0
M  V30 13 C -1.88346 -1.87507 -0.837387 0
M  V30 14 N -4.36333 -0.647693 -0.0105407 0
M  V30 15 H 5.51986 -1.69561 -0.355862 0
M  V30 16 H 6.17256 -0.745365 0.892421 0
M  V30 17 H 4.01668 -0.198243 1.31117 0
M  V30 18 H 2.01251 1.03568 0.756257 0
M  V30 19 H 1.79318 1.60538 -0.912896 0
M  V30 20 H 0.0776132 2.02807 0.622216 0
M  V30 21 H -2.09139 3.02488 1.30884 0
M  V30 22 H -4.15838 1.77259 1.01383 0
M  V30 23 H -2.29591 -1.86066 -1.86454 0
M  V30 24 H -0.831261 -2.19504 -0.932186 0
M  V30 25 H -2.42988 -2.62424 -0.240017 0
M  V30 26 H -4.81546 -0.67786 -0.936797 0
M  V30 27 H -4.78045 -1.10532 0.815633 0
M  V30 END ATOM
M  V30 BEGIN BOND
M  V30 1 1 1 2
M  V30 2 1 2 3
M  V30 3 2 3 4
M  V30 4 1 3 5
M  V30 5 1 5 6
M  V30 6 1 6 7
M  V30 7 2 7 8
M  V30 8 1 8 9
M  V30 9 2 9 10
M  V30 10 1 10 11
M  V30 11 2 11 12
M  V30 12 1 12 13
M  V30 13 1 11 14
M  V30 14 1 12 7
M  V30 15 1 1 15
M  V30 16 1 1 16
M  V30 17 1 2 17
M  V30 18 1 5 18
M  V30 19 1 5 19
M  V30 20 1 8 20
M  V30 21 1 9 21
M  V30 22 1 10 22
M  V30 23 1 13 23
M  V30 24 1 13 24
M  V30 25 1 13 25
M  V30 26 1 14 26
M  V30 27 1 14 27
M  V30 END BOND
M  V30 END CTAB
M  END
