
     RDKit          3D

  0  0  0  0  0  0  0  0  0  0999 V3000
M  V30 BEGIN CTAB
M  V30 COUNTS 55 54 0 0 0
M  V30 BEGIN ATOM
M  V30 1 C -4.63967 -1.22381 0.377851 0 CFG=1
M  V30 2 C -5.15131 -0.0357035 1.10484 0
M  V30 3 C -5.22187 -1.42901 -1.00542 0
M  V30 4 C -6.73832 -1.59306 -0.973867 0
M  V30 5 C -3.17708 -1.47602 0.467465 0 CFG=2
M  V30 6 N -2.80291 -1.70874 1.83881 0
M  V30 7 C -2.355 -0.333494 -0.0982122 0
M  V30 8 O -2.98664 0.348383 -0.93848 0
M  V30 9 N -1.101 -0.134413 0.299133 0
M  V30 10 C 0.254239 0.0845908 0.725463 0 CFG=1
M  V30 11 C 1.11104 -0.920161 0.177376 0
M  V30 12 C 2.55117 -1.06654 0.399879 0
M  V30 13 C 2.94148 -2.37261 -0.35385 0
M  V30 14 N 4.34242 -2.64772 -0.2414 0
M  V30 15 C 5.27473 -1.7923 -0.903324 0
M  V30 16 N 5.98922 -0.816515 -0.181161 0
M  V30 17 N 5.48676 -1.90182 -2.16598 0
M  V30 18 C 0.531298 1.50421 0.798652 0
M  V30 19 O -0.255303 2.31362 1.41426 0
M  V30 20 N 1.64184 2.11401 0.223475 0
M  V30 21 C 1.98303 3.53243 0.289086 0 CFG=1
M  V30 22 C 3.39701 3.81323 0.641219 0
M  V30 23 C 1.67953 4.20691 -0.996692 0
M  V30 24 O 2.34057 5.39138 -1.35572 0
M  V30 25 O 0.839496 3.79163 -1.83905 0
M  V30 26 H -5.08683 -2.10256 0.971725 0
M  V30 27 H -5.01728 0.9235 0.568022 0
M  V30 28 H -4.68936 0.0222651 2.09977 0
M  V30 29 H -6.25409 -0.208136 1.29412 0
M  V30 30 H -4.98652 -0.637883 -1.73662 0
M  V30 31 H -4.81721 -2.36962 -1.46291 0
M  V30 32 H -7.01521 -2.09431 -0.043263 0
M  V30 33 H -7.25913 -0.622481 -1.13417 0
M  V30 34 H -7.01141 -2.26823 -1.81302 0
M  V30 35 H -2.97232 -2.40732 -0.105959 0
M  V30 36 H -2.29272 -2.61102 1.91827 0
M  V30 37 H -2.27576 -0.933005 2.27416 0
M  V30 38 H -0.877365 0.843212 -0.637517 0
M  V30 39 H 0.200016 -0.145038 1.90528 0
M  V30 40 H 1.02229 -0.928113 -0.978834 0
M  V30 41 H 0.660157 -1.9633 0.374091 0
M  V30 42 H 3.17809 -0.334943 -0.0839093 0
M  V30 43 H 2.84559 -1.29546 1.45033 0
M  V30 44 H 2.66839 -2.29628 -1.4014 0
M  V30 45 H 2.41342 -3.2443 0.0700354 0
M  V30 46 H 4.75504 -3.44902 0.300766 0
M  V30 47 H 5.63716 0.143793 -0.119841 0
M  V30 48 H 6.87962 -1.04686 0.296732 0
M  V30 49 H 6.1245 -1.35102 -2.74254 0
M  V30 50 H 2.32256 1.56878 -0.349477 0
M  V30 51 H 1.3174 4.04412 1.03184 0
M  V30 52 H 4.08782 3.09844 0.164111 0
M  V30 53 H 3.67003 4.82012 0.197751 0
M  V30 54 H 3.55939 3.9205 1.73276 0
M  V30 55 H 3.27902 5.2757 -1.74463 0
M  V30 END ATOM
M  V30 BEGIN BOND
M  V30 1 1 1 2
M  V30 2 1 1 3
M  V30 3 1 3 4
M  V30 4 1 1 5
M  V30 5 1 5 6
M  V30 6 1 5 7
M  V30 7 2 7 8
M  V30 8 1 7 9
M  V30 9 1 9 10
M  V30 10 1 10 11
M  V30 11 1 11 12
M  V30 12 1 12 13
M  V30 13 1 13 14
M  V30 14 1 14 15
M  V30 15 1 15 16
M  V30 16 2 15 17 CFG=2
M  V30 17 1 10 18
M  V30 18 2 18 19
M  V30 19 1 18 20
M  V30 20 1 20 21
M  V30 21 1 21 22
M  V30 22 1 21 23
M  V30 23 1 23 24
M  V30 24 2 23 25
M  V30 25 1 1 26 CFG=1
M  V30 26 1 2 27
M  V30 27 1 2 28
M  V30 28 1 2 29
M  V30 29 1 3 30
M  V30 30 1 3 31
M  V30 31 1 4 32
M  V30 32 1 4 33
M  V30 33 1 4 34
M  V30 34 1 5 35 CFG=3
M  V30 35 1 6 36
M  V30 36 1 6 37
M  V30 37 1 9 38
M  V30 38 1 10 39 CFG=1
M  V30 39 1 11 40
M  V30 40 1 11 41
M  V30 41 1 12 42
M  V30 42 1 12 43
M  V30 43 1 13 44
M  V30 44 1 13 45
M  V30 45 1 14 46
M  V30 46 1 16 47
M  V30 47 1 16 48
M  V30 48 1 17 49
M  V30 49 1 20 50
M  V30 50 1 21 51 CFG=1
M  V30 51 1 22 52
M  V30 52 1 22 53
M  V30 53 1 22 54
M  V30 54 1 24 55
M  V30 END BOND
M  V30 END CTAB
M  END
