
     RDKit          3D

  0  0  0  0  0  0  0  0  0  0999 V3000
M  V30 BEGIN CTAB
M  V30 COUNTS 16 16 0 0 0
M  V30 BEGIN ATOM
M  V30 1 N 2.88831 0.832482 0.448426 0
M  V30 2 C 1.7931 0.0463353 0.031688 0
M  V30 3 N 1.98318 -1.02324 -0.746949 0
M  V30 4 N 0.992481 -1.79259 -1.16501 0
M  V30 5 C -0.302235 -1.55094 -0.831399 0
M  V30 6 C -0.566627 -0.466524 -0.0329263 0
M  V30 7 C 0.471088 0.326973 0.39624 0
M  V30 8 C -1.94396 -0.188799 0.336526 0
M  V30 9 S -2.79271 -1.18397 1.33034 0
M  V30 10 N -2.60077 0.967081 -0.159601 0
M  V30 11 H 3.39539 1.43664 -0.223405 0
M  V30 12 H 3.19249 0.81164 1.42529 0
M  V30 13 H -1.07459 -2.22474 -1.20953 0
M  V30 14 H 0.296495 1.18912 1.0266 0
M  V30 15 H -3.21278 1.48595 0.498715 0
M  V30 16 H -2.51886 1.33459 -1.12501 0
M  V30 END ATOM
M  V30 BEGIN BOND
M  V30 1 1 1 2
M  V30 2 2 2 3
M  V30 3 1 3 4
M  V30 4 2 4 5
M  V30 5 1 5 6
M  V30 6 2 6 7
M  V30 7 1 6 8
M  V30 8 2 8 9
M  V30 9 1 8 10
M  V30 10 1 7 2
M  V30 11 1 1 11
M  V30 12 1 1 12
M  V30 13 1 5 13
M  V30 14 1 7 14
M  V30 15 1 10 15
M  V30 16 1 10 16
M  V30 END BOND
M  V30 END CTAB
M  END
