
     RDKit          3D

  0  0  0  0  0  0  0  0  0  0999 V3000
M  V30 BEGIN CTAB
M  V30 COUNTS 25 26 0 0 0
M  V30 BEGIN ATOM
M  V30 1 Cl 4.15631 3.25219 0.13046 0
M  V30 2 C 3.46618 1.65903 -0.0684036 0
M  V30 3 C 4.30149 0.578628 -0.0524965 0
M  V30 4 C 3.79778 -0.682407 -0.204988 0
M  V30 5 C 2.44613 -0.852494 -0.37406 0
M  V30 6 C 1.57141 0.205967 -0.396163 0
M  V30 7 C 2.11817 1.45743 -0.239405 0
M  V30 8 N 0.195054 -0.0470858 -0.574294 0
M  V30 9 N -0.646476 -0.144563 0.338909 0
M  V30 10 C -2.02078 -0.39522 0.197008 0
M  V30 11 C -2.65369 -1.46985 -0.380395 0
M  V30 12 N -2.03253 -2.58473 -0.971887 0
M  V30 13 N -3.96359 -1.25871 -0.275404 0
M  V30 14 N -4.17139 -0.111748 0.335659 0
M  V30 15 C -3.01087 0.476428 0.656486 0
M  V30 16 N -2.77748 1.71167 1.31729 0
M  V30 17 H 5.3779 0.716028 0.0823059 0
M  V30 18 H 4.45209 -1.53329 -0.192877 0
M  V30 19 H 2.09422 -1.88411 -0.491852 0
M  V30 20 H 1.4348 2.29737 -0.255695 0
M  V30 21 H -2.58578 -3.48319 -1.09048 0
M  V30 22 H -1.06615 -2.6082 -1.30825 0
M  V30 23 H -5.10699 0.301676 0.550848 0
M  V30 24 H -2.66266 1.8036 2.34581 0
M  V30 25 H -2.71314 2.5956 0.758227 0
M  V30 END ATOM
M  V30 BEGIN BOND
M  V30 1 1 1 2
M  V30 2 2 2 3
M  V30 3 1 3 4
M  V30 4 2 4 5
M  V30 5 1 5 6
M  V30 6 2 6 7
M  V30 7 1 6 8
M  V30 8 2 8 9
M  V30 9 1 9 10
M  V30 10 1 10 11
M  V30 11 1 11 12
M  V30 12 2 11 13
M  V30 13 1 13 14
M  V30 14 1 14 15
M  V30 15 1 15 16
M  V30 16 1 7 2
M  V30 17 2 15 10
M  V30 18 1 3 17
M  V30 19 1 4 18
M  V30 20 1 5 19
M  V30 21 1 7 20
M  V30 22 1 12 21
M  V30 23 1 12 22
M  V30 24 1 14 23
M  V30 25 1 16 24
M  V30 26 1 16 25
M  V30 END BOND
M  V30 END CTAB
M  END
