
     RDKit          3D

  0  0  0  0  0  0  0  0  0  0999 V3000
M  V30 BEGIN CTAB
M  V30 COUNTS 37 38 0 0 0
M  V30 BEGIN ATOM
M  V30 1 N 4.32031 2.07327 -1.20421 0
M  V30 2 C 3.64248 0.992354 -0.581425 0
M  V30 3 N 2.59706 1.23651 0.22817 0
M  V30 4 C 1.9109 0.26613 0.848814 0
M  V30 5 C 0.78248 0.567571 1.71968 0
M  V30 6 N -0.489259 0.611724 1.06333 0
M  V30 7 C -0.598198 1.58454 0.0281444 0
M  V30 8 C -2.06633 1.9395 -0.0798602 0
M  V30 9 C -2.96675 0.75512 0.0963137 0
M  V30 10 C -2.30143 -0.568106 -0.00354762 0
M  V30 11 C -0.928503 -0.656674 0.549647 0
M  V30 12 C -2.32048 -1.0571 -1.45726 0
M  V30 13 C -3.1696 -1.57868 0.761991 0
M  V30 14 N 2.28975 -1.00234 0.648602 0
M  V30 15 C 3.34124 -1.31429 -0.160456 0
M  V30 16 N 4.00058 -0.291997 -0.763939 0
M  V30 17 N 3.74074 -2.64969 -0.371741 0
M  V30 18 H 5.3192 2.29361 -1.00277 0
M  V30 19 H 3.83335 2.68849 -1.89167 0
M  V30 20 H 0.686298 -0.169475 2.56257 0
M  V30 21 H 0.911433 1.55807 2.23977 0
M  V30 22 H -0.0535042 2.52393 0.237121 0
M  V30 23 H -0.311776 1.14192 -0.956472 0
M  V30 24 H -2.2738 2.66812 0.731494 0
M  V30 25 H -2.27492 2.4905 -1.04025 0
M  V30 26 H -3.53726 0.829805 1.05955 0
M  V30 27 H -3.74697 0.812771 -0.69638 0
M  V30 28 H -0.223144 -1.03784 -0.238928 0
M  V30 29 H -0.828097 -1.39693 1.39468 0
M  V30 30 H -1.51706 -0.620282 -2.05305 0
M  V30 31 H -3.32515 -0.884882 -1.90169 0
M  V30 32 H -2.19347 -2.17288 -1.43693 0
M  V30 33 H -4.18725 -1.46632 0.341963 0
M  V30 34 H -3.1106 -1.32757 1.8396 0
M  V30 35 H -2.72482 -2.56605 0.569221 0
M  V30 36 H 3.87967 -3.27619 0.435319 0
M  V30 37 H 3.89289 -2.99664 -1.33002 0
M  V30 END ATOM
M  V30 BEGIN BOND
M  V30 1 1 1 2
M  V30 2 2 2 3
M  V30 3 1 3 4
M  V30 4 1 4 5
M  V30 5 1 5 6
M  V30 6 1 6 7
M  V30 7 1 7 8
M  V30 8 1 8 9
M  V30 9 1 9 10
M  V30 10 1 10 11
M  V30 11 1 10 12
M  V30 12 1 10 13
M  V30 13 2 4 14
M  V30 14 1 14 15
M  V30 15 2 15 16
M  V30 16 1 15 17
M  V30 17 1 16 2
M  V30 18 1 11 6
M  V30 19 1 1 18
M  V30 20 1 1 19
M  V30 21 1 5 20
M  V30 22 1 5 21
M  V30 23 1 7 22
M  V30 24 1 7 23
M  V30 25 1 8 24
M  V30 26 1 8 25
M  V30 27 1 9 26
M  V30 28 1 9 27
M  V30 29 1 11 28
M  V30 30 1 11 29
M  V30 31 1 12 30
M  V30 32 1 12 31
M  V30 33 1 12 32
M  V30 34 1 13 33
M  V30 35 1 13 34
M  V30 36 1 13 35
M  V30 37 1 17 36
M  V30 38 1 17 37
M  V30 END BOND
M  V30 END CTAB
M  END
