
     RDKit          3D

  0  0  0  0  0  0  0  0  0  0999 V3000
M  V30 BEGIN CTAB
M  V30 COUNTS 43 45 0 0 0
M  V30 BEGIN ATOM
M  V30 1 O 0.749239 -0.611458 -1.51373 0
M  V30 2 C 0.268935 -0.369108 -0.383189 0
M  V30 3 C 1.14579 -0.202212 0.802271 0
M  V30 4 C 2.56933 -0.356884 0.474645 0
M  V30 5 C 3.10837 -1.59648 0.257938 0
M  V30 6 C 2.29197 -2.85796 0.340644 0
M  V30 7 N 4.40962 -1.6804 -0.0381713 0
M  V30 8 C 5.21349 -0.605237 -0.133214 0
M  V30 9 N 4.6782 0.602084 0.0800946 0
M  V30 10 C 3.3602 0.767846 0.386445 0
M  V30 11 C 2.81252 2.13385 0.614903 0
M  V30 12 N 5.65877 1.49108 -0.0687586 0
M  V30 13 C 6.81282 0.876315 -0.37358 0
M  V30 14 N 6.52276 -0.43732 -0.41146 0
M  V30 15 N 8.10044 1.42498 -0.616741 0
M  V30 16 N -1.12813 -0.253117 -0.234869 0
M  V30 17 C -1.9786 -0.413176 -1.3756 0
M  V30 18 C -3.42718 -0.258204 -1.02089 0
M  V30 19 C -4.32154 -1.22242 -0.639105 0
M  V30 20 C -5.571 -0.834175 -0.373304 0
M  V30 21 C -5.86079 0.497412 -0.502942 0
M  V30 22 S -4.37358 1.16459 -0.993353 0
M  V30 23 S -7.36549 1.35586 -0.242624 0
M  V30 24 O -7.12207 2.33143 0.87522 0
M  V30 25 O -7.78595 2.12192 -1.46275 0
M  V30 26 N -8.62088 0.28135 0.24596 0
M  V30 27 H 0.942364 0.819746 1.20423 0
M  V30 28 H 0.85009 -0.894983 1.62371 0
M  V30 29 H 2.10819 -3.19735 -0.692506 0
M  V30 30 H 1.39571 -2.73931 0.953427 0
M  V30 31 H 2.94501 -3.61981 0.817569 0
M  V30 32 H 2.63532 2.34338 1.67965 0
M  V30 33 H 1.93928 2.28478 -0.0380438 0
M  V30 34 H 3.58425 2.8746 0.27444 0
M  V30 35 H 8.20936 2.30396 -1.16895 0
M  V30 36 H 8.98022 0.978134 -0.258262 0
M  V30 37 H -1.5315 -0.0512022 0.708035 0
M  V30 38 H -1.84917 -1.41062 -1.87311 0
M  V30 39 H -1.73676 0.375843 -2.11469 0
M  V30 40 H -3.9759 -2.27282 -0.567749 0
M  V30 41 H -6.37925 -1.52924 -0.0555024 0
M  V30 42 H -9.48838 0.867934 0.347913 0
M  V30 43 H -8.77608 -0.48361 -0.451933 0
M  V30 END ATOM
M  V30 BEGIN BOND
M  V30 1 2 1 2
M  V30 2 1 2 3
M  V30 3 1 3 4
M  V30 4 1 4 5
M  V30 5 1 5 6
M  V30 6 2 5 7
M  V30 7 1 7 8
M  V30 8 1 8 9
M  V30 9 1 9 10
M  V30 10 1 10 11
M  V30 11 1 9 12
M  V30 12 2 12 13
M  V30 13 1 13 14
M  V30 14 1 13 15
M  V30 15 1 2 16
M  V30 16 1 16 17
M  V30 17 1 17 18
M  V30 18 2 18 19
M  V30 19 1 19 20
M  V30 20 2 20 21
M  V30 21 1 21 22
M  V30 22 1 21 23
M  V30 23 2 23 24
M  V30 24 2 23 25
M  V30 25 1 23 26
M  V30 26 2 10 4
M  V30 27 1 22 18
M  V30 28 2 14 8
M  V30 29 1 3 27
M  V30 30 1 3 28
M  V30 31 1 6 29
M  V30 32 1 6 30
M  V30 33 1 6 31
M  V30 34 1 11 32
M  V30 35 1 11 33
M  V30 36 1 11 34
M  V30 37 1 15 35
M  V30 38 1 15 36
M  V30 39 1 16 37
M  V30 40 1 17 38
M  V30 41 1 17 39
M  V30 42 1 19 40
M  V30 43 1 20 41
M  V30 44 1 26 42
M  V30 45 1 26 43
M  V30 END BOND
M  V30 END CTAB
M  END
