
     RDKit          3D

  0  0  0  0  0  0  0  0  0  0999 V3000
M  V30 BEGIN CTAB
M  V30 COUNTS 26 26 0 0 0
M  V30 BEGIN ATOM
M  V30 1 N -2.04551 2.28998 0.850847 0
M  V30 2 C -2.35178 0.987593 0.376374 0
M  V30 3 C -1.34053 0.0946599 0.149421 0
M  V30 4 C -1.63319 -1.16424 -0.308943 0
M  V30 5 C -2.95062 -1.50131 -0.531463 0
M  V30 6 C -3.96432 -0.589687 -0.298253 0
M  V30 7 C -3.6665 0.694944 0.169414 0
M  V30 8 F -4.66478 1.58935 0.397924 0
M  V30 9 C 0.0472925 0.48956 0.397591 0
M  V30 10 O 0.243584 1.65845 0.817132 0
M  V30 11 N 1.1424 -0.367063 0.189916 0
M  V30 12 C 2.47802 0.124502 0.467255 0
M  V30 13 C 3.52281 -0.939589 0.183889 0
M  V30 14 N 4.8526 -0.488807 0.446549 0
M  V30 15 H -2.12817 2.52175 1.84622 0
M  V30 16 H -1.73601 2.99593 0.155136 0
M  V30 17 H -0.86625 -1.91539 -0.506606 0
M  V30 18 H -3.22238 -2.49407 -0.896231 0
M  V30 19 H -4.99863 -0.816007 -0.459717 0
M  V30 20 H 1.04211 -1.36185 -0.16175 0
M  V30 21 H 2.50037 0.442192 1.509 0
M  V30 22 H 2.65479 0.97665 -0.2379 0
M  V30 23 H 3.41629 -1.36524 -0.813479 0
M  V30 24 H 3.2968 -1.77535 0.906728 0
M  V30 25 H 5.45365 -0.374111 -0.376729 0
M  V30 26 H 4.91799 0.287158 1.13764 0
M  V30 END ATOM
M  V30 BEGIN BOND
M  V30 1 1 1 2
M  V30 2 2 2 3
M  V30 3 1 3 4
M  V30 4 2 4 5
M  V30 5 1 5 6
M  V30 6 2 6 7
M  V30 7 1 7 8
M  V30 8 1 3 9
M  V30 9 2 9 10
M  V30 10 1 9 11
M  V30 11 1 11 12
M  V30 12 1 12 13
M  V30 13 1 13 14
M  V30 14 1 7 2
M  V30 15 1 1 15
M  V30 16 1 1 16
M  V30 17 1 4 17
M  V30 18 1 5 18
M  V30 19 1 6 19
M  V30 20 1 11 20
M  V30 21 1 12 21
M  V30 22 1 12 22
M  V30 23 1 13 23
M  V30 24 1 13 24
M  V30 25 1 14 25
M  V30 26 1 14 26
M  V30 END BOND
M  V30 END CTAB
M  END
