
     RDKit          3D

  0  0  0  0  0  0  0  0  0  0999 V3000
M  V30 BEGIN CTAB
M  V30 COUNTS 15 15 0 0 0
M  V30 BEGIN ATOM
M  V30 1 N -2.8459 0.879927 -0.810052 0
M  V30 2 N -1.48228 1.01836 -0.556127 0
M  V30 3 C -0.843644 -0.0061335 -0.138385 0
M  V30 4 N -1.48461 -1.23754 0.0622015 0
M  V30 5 C 0.58958 0.140674 0.128134 0
M  V30 6 N 1.4315 -0.782273 0.561559 0
M  V30 7 C 2.67859 -0.488661 0.747986 0
M  V30 8 C 3.08027 0.793535 0.482228 0
M  V30 9 S 1.60299 1.50371 -0.0288458 0
M  V30 10 H -3.12798 0.148026 -1.50929 0
M  V30 11 H -3.5828 1.46411 -0.341268 0
M  V30 12 H -1.27033 -1.9266 0.808874 0
M  V30 13 H -2.25758 -1.49266 -0.605105 0
M  V30 14 H 3.41668 -1.23121 1.1097 0
M  V30 15 H 4.09551 1.21672 0.583473 0
M  V30 END ATOM
M  V30 BEGIN BOND
M  V30 1 1 1 2
M  V30 2 2 2 3 CFG=2
M  V30 3 1 3 4
M  V30 4 1 3 5
M  V30 5 2 5 6
M  V30 6 1 6 7
M  V30 7 2 7 8
M  V30 8 1 8 9
M  V30 9 1 9 5
M  V30 10 1 1 10
M  V30 11 1 1 11
M  V30 12 1 4 12
M  V30 13 1 4 13
M  V30 14 1 7 14
M  V30 15 1 8 15
M  V30 END BOND
M  V30 END CTAB
M  END
