
     RDKit          3D

  0  0  0  0  0  0  0  0  0  0999 V3000
M  V30 BEGIN CTAB
M  V30 COUNTS 24 23 0 0 0
M  V30 BEGIN ATOM
M  V30 1 N 3.84099 1.14887 -0.0505541 0
M  V30 2 N 2.47811 0.908743 -0.149438 0
M  V30 3 C 1.9583 -0.264329 -0.218598 0
M  V30 4 N 0.548482 -0.385272 -0.317173 0
M  V30 5 C -0.364379 0.629873 0.172103 0
M  V30 6 C -1.77503 0.155516 -0.105035 0
M  V30 7 C -2.79501 1.21777 0.25418 0
M  V30 8 F -4.07635 0.785985 0.0022514 0
M  V30 9 F -2.66947 1.56454 1.58936 0
M  V30 10 F -2.5969 2.35714 -0.497957 0
M  V30 11 O -1.85803 -0.00107992 -1.50414 0
M  V30 12 C -2.0265 -1.13565 0.621575 0
M  V30 13 N 2.80954 -1.40288 -0.19434 0
M  V30 14 H 4.18689 2.10654 -0.291972 0
M  V30 15 H 4.51052 0.388915 0.258957 0
M  V30 16 H 0.201344 -1.27687 -0.777375 0
M  V30 17 H -0.230769 0.710418 1.28706 0
M  V30 18 H -0.156368 1.60085 -0.297807 0
M  V30 19 H -1.84981 -0.952648 -1.76597 0
M  V30 20 H -2.22042 -1.94196 -0.141114 0
M  V30 21 H -1.19557 -1.41095 1.2993 0
M  V30 22 H -2.96188 -1.08961 1.24697 0
M  V30 23 H 3.60448 -1.51502 0.457705 0
M  V30 24 H 2.63782 -2.19888 -0.877982 0
M  V30 END ATOM
M  V30 BEGIN BOND
M  V30 1 1 1 2
M  V30 2 2 2 3 CFG=2
M  V30 3 1 3 4
M  V30 4 1 4 5
M  V30 5 1 5 6
M  V30 6 1 6 7
M  V30 7 1 7 8
M  V30 8 1 7 9
M  V30 9 1 7 10
M  V30 10 1 6 11
M  V30 11 1 6 12
M  V30 12 1 3 13
M  V30 13 1 1 14
M  V30 14 1 1 15
M  V30 15 1 4 16
M  V30 16 1 5 17
M  V30 17 1 5 18
M  V30 18 1 11 19
M  V30 19 1 12 20
M  V30 20 1 12 21
M  V30 21 1 12 22
M  V30 22 1 13 23
M  V30 23 1 13 24
M  V30 END BOND
M  V30 END CTAB
M  END
