
     RDKit          3D

  0  0  0  0  0  0  0  0  0  0999 V3000
M  V30 BEGIN CTAB
M  V30 COUNTS 30 30 0 0 0
M  V30 BEGIN ATOM
M  V30 1 C 3.22847 2.04974 0.574208 0
M  V30 2 C 2.57179 0.752137 0.259141 0
M  V30 3 C 3.33415 -0.369332 -0.00172131 0
M  V30 4 N 2.74916 -1.55279 -0.288963 0
M  V30 5 C 1.42922 -1.6682 -0.327864 0
M  V30 6 C 0.578726 -0.580784 -0.0760172 0
M  V30 7 C 1.20151 0.600088 0.210966 0
M  V30 8 C -0.836245 -0.849203 -0.153914 0
M  V30 9 C -1.79724 0.253579 -0.0529801 0
M  V30 10 N -1.64049 1.27362 -1.08245 0
M  V30 11 C -2.02618 0.830116 1.32035 0
M  V30 12 C -3.16075 -0.385819 -0.425235 0
M  V30 13 F -1.08352 -1.54735 -1.34161 0
M  V30 14 N 0.890543 -2.9555 -0.644276 0
M  V30 15 H 3.53209 2.08884 1.6395 0
M  V30 16 H 2.6064 2.91389 0.273067 0
M  V30 17 H 4.17345 2.08059 -0.0185855 0
M  V30 18 H 4.42172 -0.263286 0.0323284 0
M  V30 19 H 0.599701 1.44692 0.406491 0
M  V30 20 H -1.09772 -1.59019 0.647455 0
M  V30 21 H -2.29353 2.04837 -0.830081 0
M  V30 22 H -1.96338 0.890107 -1.99799 0
M  V30 23 H -1.47792 1.77603 1.51851 0
M  V30 24 H -3.10904 1.15729 1.4183 0
M  V30 25 H -1.86362 0.0589709 2.07535 0
M  V30 26 H -3.96381 0.351192 -0.317526 0
M  V30 27 H -3.1298 -0.650303 -1.5236 0
M  V30 28 H -3.27349 -1.28267 0.202303 0
M  V30 29 H 0.138132 -3.40291 -0.0682552 0
M  V30 30 H 1.2617 -3.47315 -1.48544 0
M  V30 END ATOM
M  V30 BEGIN BOND
M  V30 1 1 1 2
M  V30 2 2 2 3
M  V30 3 1 3 4
M  V30 4 2 4 5
M  V30 5 1 5 6
M  V30 6 2 6 7
M  V30 7 1 6 8
M  V30 8 1 8 9
M  V30 9 1 9 10
M  V30 10 1 9 11
M  V30 11 1 9 12
M  V30 12 1 8 13
M  V30 13 1 5 14
M  V30 14 1 7 2
M  V30 15 1 1 15
M  V30 16 1 1 16
M  V30 17 1 1 17
M  V30 18 1 3 18
M  V30 19 1 7 19
M  V30 20 1 8 20
M  V30 21 1 10 21
M  V30 22 1 10 22
M  V30 23 1 11 23
M  V30 24 1 11 24
M  V30 25 1 11 25
M  V30 26 1 12 26
M  V30 27 1 12 27
M  V30 28 1 12 28
M  V30 29 1 14 29
M  V30 30 1 14 30
M  V30 END BOND
M  V30 END CTAB
M  END
