
     RDKit          3D

  0  0  0  0  0  0  0  0  0  0999 V3000
M  V30 BEGIN CTAB
M  V30 COUNTS 28 29 0 0 0
M  V30 BEGIN ATOM
M  V30 1 N 1.6512 1.23057 -1.25188 0
M  V30 2 C 1.47467 0.706576 0.103919 0
M  V30 3 C 0.0851396 0.293702 0.256799 0
M  V30 4 N -0.853094 1.16579 -0.221598 0
M  V30 5 C -2.17068 0.922989 -0.152196 0
M  V30 6 N -3.1375 1.84278 -0.655844 0
M  V30 7 C -2.63741 -0.241723 0.417253 0
M  V30 8 C -1.68687 -1.11562 0.897084 0
M  V30 9 O -2.04628 -2.19624 1.4284 0
M  V30 10 N -0.349723 -0.844179 0.814005 0
M  V30 11 C -4.08229 -0.566052 0.522643 0
M  V30 12 C 2.5128 -0.314418 0.358859 0
M  V30 13 C 3.97314 0.0838049 0.278129 0
M  V30 14 C 3.37271 -0.698363 -0.831453 0
M  V30 15 H 1.3808 0.472226 -1.90226 0
M  V30 16 H 2.56422 1.66643 -1.41496 0
M  V30 17 H 1.66604 1.55472 0.80513 0
M  V30 18 H -3.42199 1.84964 -1.64024 0
M  V30 19 H -3.55414 2.51808 0.0113342 0
M  V30 20 H 0.359958 -1.50196 1.17506 0
M  V30 21 H -4.19507 -1.31601 1.32202 0
M  V30 22 H -4.67464 0.336236 0.766706 0
M  V30 23 H -4.46566 -1.03014 -0.414357 0
M  V30 24 H 2.32529 -1.1637 1.05153 0
M  V30 25 H 4.23679 1.14092 0.0906837 0
M  V30 26 H 4.70021 -0.451384 0.915209 0
M  V30 27 H 3.67435 -1.7769 -0.94139 0
M  V30 28 H 3.29804 -0.190238 -1.78858 0
M  V30 END ATOM
M  V30 BEGIN BOND
M  V30 1 1 1 2
M  V30 2 1 2 3
M  V30 3 2 3 4
M  V30 4 1 4 5
M  V30 5 1 5 6
M  V30 6 2 5 7
M  V30 7 1 7 8
M  V30 8 2 8 9
M  V30 9 1 8 10
M  V30 10 1 7 11
M  V30 11 1 2 12
M  V30 12 1 12 13
M  V30 13 1 13 14
M  V30 14 1 10 3
M  V30 15 1 14 12
M  V30 16 1 1 15
M  V30 17 1 1 16
M  V30 18 1 2 17
M  V30 19 1 6 18
M  V30 20 1 6 19
M  V30 21 1 10 20
M  V30 22 1 11 21
M  V30 23 1 11 22
M  V30 24 1 11 23
M  V30 25 1 12 24
M  V30 26 1 13 25
M  V30 27 1 13 26
M  V30 28 1 14 27
M  V30 29 1 14 28
M  V30 END BOND
M  V30 END CTAB
M  END
