
     RDKit          3D

  0  0  0  0  0  0  0  0  0  0999 V3000
M  V30 BEGIN CTAB
M  V30 COUNTS 47 47 0 0 0
M  V30 BEGIN ATOM
M  V30 1 N -0.405049 -0.154764 4.15794 0
M  V30 2 N -0.658149 -0.447828 2.83575 0
M  V30 3 C 0.215673 -0.0644976 1.79216 0
M  V30 4 O 1.24688 0.566698 2.15649 0
M  V30 5 C -0.0791826 -0.393885 0.358804 0
M  V30 6 C -0.229799 -1.91247 0.238258 0
M  V30 7 C 0.667383 -2.74794 0.862189 0
M  V30 8 S 0.0718569 -4.28564 0.422958 0
M  V30 9 C -1.27214 -3.78214 -0.52067 0
M  V30 10 N -1.18288 -2.46417 -0.441805 0
M  V30 11 C -2.29678 -4.61508 -1.25462 0
M  V30 12 C -1.43227 0.223846 0.0794818 0
M  V30 13 C -1.48328 1.69511 0.27183 0
M  V30 14 C -2.85703 2.18584 -0.0236852 0
M  V30 15 O -3.75021 1.38528 -0.372433 0
M  V30 16 N -3.19104 3.57277 0.0817704 0
M  V30 17 N -4.46495 4.05501 -0.188483 0
M  V30 18 C 0.882395 0.121095 -0.625447 0
M  V30 19 C 2.2899 -0.316961 -0.555719 0
M  V30 20 C 3.14136 0.301475 -1.64911 0
M  V30 21 C 4.57846 -0.166469 -1.55129 0
M  V30 22 C 3.13826 1.79489 -1.62099 0
M  V30 23 H -1.25608 -0.0554223 4.75183 0
M  V30 24 H 0.29036 0.598551 4.31621 0
M  V30 25 H -1.5135 -0.9651 2.58971 0
M  V30 26 H 1.5376 -2.46431 1.48048 0
M  V30 27 H -2.5017 -5.48725 -0.572944 0
M  V30 28 H -1.94828 -4.91509 -2.2444 0
M  V30 29 H -3.24818 -4.05131 -1.29447 0
M  V30 30 H -1.64947 0.011194 -0.997409 0
M  V30 31 H -2.22065 -0.223053 0.738796 0
M  V30 32 H -1.26253 1.98062 1.34207 0
M  V30 33 H -0.806559 2.29816 -0.335953 0
M  V30 34 H -2.45342 4.25924 0.373354 0
M  V30 35 H -4.43581 5.06422 -0.442696 0
M  V30 36 H -5.1033 3.94293 0.650537 0
M  V30 37 H 0.887768 1.24613 -0.564397 0
M  V30 38 H 0.518377 -0.106654 -1.66928 0
M  V30 39 H 2.44175 -1.41219 -0.631412 0
M  V30 40 H 2.74429 -0.00453012 0.398687 0
M  V30 41 H 2.77988 -0.00893471 -2.66845 0
M  V30 42 H 4.89526 -0.250342 -0.511133 0
M  V30 43 H 5.21193 0.588052 -2.09299 0
M  V30 44 H 4.68188 -1.10773 -2.1265 0
M  V30 45 H 3.18621 2.22044 -0.600949 0
M  V30 46 H 4.04638 2.14906 -2.15067 0
M  V30 47 H 2.24839 2.14314 -2.1914 0
M  V30 END ATOM
M  V30 BEGIN BOND
M  V30 1 1 1 2
M  V30 2 1 2 3
M  V30 3 2 3 4
M  V30 4 1 3 5
M  V30 5 1 5 6
M  V30 6 2 6 7
M  V30 7 1 7 8
M  V30 8 1 8 9
M  V30 9 2 9 10
M  V30 10 1 9 11
M  V30 11 1 5 12
M  V30 12 1 12 13
M  V30 13 1 13 14
M  V30 14 2 14 15
M  V30 15 1 14 16
M  V30 16 1 16 17
M  V30 17 1 5 18
M  V30 18 1 18 19
M  V30 19 1 19 20
M  V30 20 1 20 21
M  V30 21 1 20 22
M  V30 22 1 10 6
M  V30 23 1 1 23
M  V30 24 1 1 24
M  V30 25 1 2 25
M  V30 26 1 7 26
M  V30 27 1 11 27
M  V30 28 1 11 28
M  V30 29 1 11 29
M  V30 30 1 12 30
M  V30 31 1 12 31
M  V30 32 1 13 32
M  V30 33 1 13 33
M  V30 34 1 16 34
M  V30 35 1 17 35
M  V30 36 1 17 36
M  V30 37 1 18 37
M  V30 38 1 18 38
M  V30 39 1 19 39
M  V30 40 1 19 40
M  V30 41 1 20 41
M  V30 42 1 21 42
M  V30 43 1 21 43
M  V30 44 1 21 44
M  V30 45 1 22 45
M  V30 46 1 22 46
M  V30 47 1 22 47
M  V30 END BOND
M  V30 END CTAB
M  END
