
     RDKit          3D

  0  0  0  0  0  0  0  0  0  0999 V3000
M  V30 BEGIN CTAB
M  V30 COUNTS 58 59 0 0 0
M  V30 BEGIN ATOM
M  V30 1 N -6.1313 1.28895 1.4321 0
M  V30 2 C -5.54804 0.595508 0.272415 0
M  V30 3 C -5.0191 -0.709756 0.733812 0
M  V30 4 C -4.03594 -1.22548 -0.334741 0
M  V30 5 C -3.82004 -2.65812 0.0139964 0
M  V30 6 C -4.61788 -1.1468 -1.7095 0
M  V30 7 N -2.86843 -0.346904 -0.22841 0
M  V30 8 C -3.09897 1.06685 -0.177921 0
M  V30 9 C -4.56152 1.45759 -0.396479 0
M  V30 10 C -2.36446 1.8414 -1.2646 0
M  V30 11 C -2.73919 1.59493 1.18466 0
M  V30 12 C -1.57756 -0.897009 -0.236428 0
M  V30 13 O -1.47846 -2.20404 -0.444269 0
M  V30 14 C -0.274586 -0.320909 -0.0561787 0
M  V30 15 O 0.0225854 0.851249 0.198712 0
M  V30 16 N 0.868604 -1.20272 -0.183289 0
M  V30 17 C 2.17852 -0.662988 -0.0104838 0
M  V30 18 C 3.26916 -1.6702 -0.165854 0
M  V30 19 C 4.58265 -1.00323 0.0332015 0
M  V30 20 C 5.27879 -0.443896 -1.00493 0
M  V30 21 C 6.5099 0.176055 -0.789497 0
M  V30 22 C 7.04129 0.234414 0.465995 0
M  V30 23 C 6.34135 -0.329187 1.51652 0
M  V30 24 C 5.13435 -0.936216 1.30095 0
M  V30 25 S 8.57928 0.99866 0.792076 0
M  V30 26 O 9.20182 0.298588 1.96217 0
M  V30 27 O 9.47277 0.858638 -0.421264 0
M  V30 28 N 8.29659 2.65433 1.14844 0
M  V30 29 H -6.53901 2.17206 1.06841 0
M  V30 30 H -6.77342 0.694177 1.96287 0
M  V30 31 H -6.4472 0.401694 -0.383813 0
M  V30 32 H -4.47181 -0.674647 1.69069 0
M  V30 33 H -5.82638 -1.45805 0.796844 0
M  V30 34 H -4.87414 -3.05531 0.253965 0
M  V30 35 H -3.53118 -3.31669 -0.837692 0
M  V30 36 H -3.28262 -2.85017 0.955014 0
M  V30 37 H -5.66491 -0.854101 -1.7198 0
M  V30 38 H -4.02546 -0.485468 -2.38424 0
M  V30 39 H -4.50051 -2.16966 -2.18486 0
M  V30 40 H -4.74109 1.5823 -1.47822 0
M  V30 41 H -4.64404 2.50664 0.0174668 0
M  V30 42 H -1.80882 2.70482 -0.882997 0
M  V30 43 H -3.10028 2.31598 -1.99866 0
M  V30 44 H -1.77781 1.16619 -1.94098 0
M  V30 45 H -3.6659 1.93656 1.75646 0
M  V30 46 H -2.07314 2.48942 1.16022 0
M  V30 47 H -2.26998 0.851409 1.85642 0
M  V30 48 H 0.746153 -2.21008 -0.396019 0
M  V30 49 H 2.31514 0.132792 -0.793028 0
M  V30 50 H 2.32025 -0.167807 0.981293 0
M  V30 51 H 3.10553 -2.48786 0.591424 0
M  V30 52 H 3.22062 -2.10013 -1.18651 0
M  V30 53 H 4.84481 -0.495704 -2.00724 0
M  V30 54 H 7.03506 0.605939 -1.61673 0
M  V30 55 H 6.77707 -0.274109 2.50585 0
M  V30 56 H 4.59015 -1.3791 2.14386 0
M  V30 57 H 9.06066 3.27776 0.827256 0
M  V30 58 H 7.36007 2.98142 0.830999 0
M  V30 END ATOM
M  V30 BEGIN BOND
M  V30 1 1 1 2
M  V30 2 1 2 3
M  V30 3 1 3 4
M  V30 4 1 4 5
M  V30 5 1 4 6
M  V30 6 1 4 7
M  V30 7 1 7 8
M  V30 8 1 8 9
M  V30 9 1 8 10
M  V30 10 1 8 11
M  V30 11 1 7 12
M  V30 12 2 12 13
M  V30 13 1 12 14
M  V30 14 2 14 15
M  V30 15 1 14 16
M  V30 16 1 16 17
M  V30 17 1 17 18
M  V30 18 1 18 19
M  V30 19 2 19 20
M  V30 20 1 20 21
M  V30 21 2 21 22
M  V30 22 1 22 23
M  V30 23 2 23 24
M  V30 24 1 22 25
M  V30 25 2 25 26
M  V30 26 2 25 27
M  V30 27 1 25 28
M  V30 28 1 9 2
M  V30 29 1 24 19
M  V30 30 1 1 29
M  V30 31 1 1 30
M  V30 32 1 2 31
M  V30 33 1 3 32
M  V30 34 1 3 33
M  V30 35 1 5 34
M  V30 36 1 5 35
M  V30 37 1 5 36
M  V30 38 1 6 37
M  V30 39 1 6 38
M  V30 40 1 6 39
M  V30 41 1 9 40
M  V30 42 1 9 41
M  V30 43 1 10 42
M  V30 44 1 10 43
M  V30 45 1 10 44
M  V30 46 1 11 45
M  V30 47 1 11 46
M  V30 48 1 11 47
M  V30 49 1 16 48
M  V30 50 1 17 49
M  V30 51 1 17 50
M  V30 52 1 18 51
M  V30 53 1 18 52
M  V30 54 1 20 53
M  V30 55 1 21 54
M  V30 56 1 23 55
M  V30 57 1 24 56
M  V30 58 1 28 57
M  V30 59 1 28 58
M  V30 END BOND
M  V30 END CTAB
M  END
