
     RDKit          3D

  0  0  0  0  0  0  0  0  0  0999 V3000
M  V30 BEGIN CTAB
M  V30 COUNTS 29 29 0 0 0
M  V30 BEGIN ATOM
M  V30 1 N -3.49574 -1.38109 1.66687 0
M  V30 2 C -2.60819 -0.866743 0.696397 0
M  V30 3 N -1.33108 -0.700373 1.05348 0
M  V30 4 C -0.40597 -0.214547 0.179457 0
M  V30 5 N -0.776752 0.102579 -1.05998 0
M  V30 6 C -2.05839 -0.0654217 -1.41459 0
M  V30 7 N -2.51459 0.26561 -2.71928 0
M  V30 8 N -2.96552 -0.543365 -0.550499 0
M  V30 9 N 0.903043 -0.0650289 0.67208 0
M  V30 10 C 1.78809 -1.18908 0.776682 0
M  V30 11 C 2.9125 -1.12377 -0.169572 0
M  V30 12 C 3.10152 -2.07502 -1.05483 0
M  V30 13 C 1.359 1.22852 1.07361 0
M  V30 14 C 0.327549 2.26178 0.732274 0
M  V30 15 C 0.642875 3.24906 -0.0919615 0
M  V30 16 H -3.62772 -2.39674 1.73722 0
M  V30 17 H -4.00165 -0.749826 2.29718 0
M  V30 18 H -2.25025 -0.399606 -3.48666 0
M  V30 19 H -3.08029 1.11801 -2.91385 0
M  V30 20 H 2.13293 -1.25883 1.85161 0
M  V30 21 H 1.24272 -2.16928 0.624358 0
M  V30 22 H 3.58843 -0.285158 -0.13854 0
M  V30 23 H 3.92512 -2.0397 -1.75726 0
M  V30 24 H 2.44133 -2.92705 -1.11029 0
M  V30 25 H 2.35499 1.49748 0.664221 0
M  V30 26 H 1.43778 1.17783 2.2068 0
M  V30 27 H -0.66471 2.2193 1.1467 0
M  V30 28 H 1.64746 3.29382 -0.504967 0
M  V30 29 H -0.0244748 4.03663 -0.406647 0
M  V30 END ATOM
M  V30 BEGIN BOND
M  V30 1 1 1 2
M  V30 2 2 2 3
M  V30 3 1 3 4
M  V30 4 2 4 5
M  V30 5 1 5 6
M  V30 6 1 6 7
M  V30 7 2 6 8
M  V30 8 1 4 9
M  V30 9 1 9 10
M  V30 10 1 10 11
M  V30 11 2 11 12 CFG=2
M  V30 12 1 9 13
M  V30 13 1 13 14
M  V30 14 2 14 15 CFG=2
M  V30 15 1 8 2
M  V30 16 1 1 16
M  V30 17 1 1 17
M  V30 18 1 7 18
M  V30 19 1 7 19
M  V30 20 1 10 20
M  V30 21 1 10 21
M  V30 22 1 11 22
M  V30 23 1 12 23
M  V30 24 1 12 24
M  V30 25 1 13 25
M  V30 26 1 13 26
M  V30 27 1 14 27
M  V30 28 1 15 28
M  V30 29 1 15 29
M  V30 END BOND
M  V30 END CTAB
M  END
