
     RDKit          3D

  0  0  0  0  0  0  0  0  0  0999 V3000
M  V30 BEGIN CTAB
M  V30 COUNTS 52 55 0 0 0
M  V30 BEGIN ATOM
M  V30 1 O 3.25932 -1.75998 -2.06426 0
M  V30 2 C 2.80947 -1.05115 -1.13162 0
M  V30 3 C 1.33936 -0.843902 -1.06253 0
M  V30 4 C 0.714826 -0.31585 0.0352446 0
M  V30 5 C -0.679585 -0.137899 0.0384531 0
M  V30 6 C -1.47694 -0.473967 -1.02904 0
M  V30 7 C -0.808878 -1.01334 -2.14086 0
M  V30 8 C 0.552492 -1.18478 -2.13906 0
M  V30 9 N -2.89057 -0.320848 -1.06666 0
M  V30 10 C -3.65738 -0.524922 -2.30014 0
M  V30 11 C -5.05569 -0.385285 -1.91956 0
M  V30 12 O -6.04335 -0.557128 -2.66722 0
M  V30 13 C -5.07709 -0.0105036 -0.511995 0
M  V30 14 C -3.82316 0.0136518 -0.0638072 0
M  V30 15 N -3.53201 0.342077 1.31123 0
M  V30 16 C -6.29238 0.299894 0.271071 0
M  V30 17 C -6.37912 1.32139 1.17638 0
M  V30 18 C -7.53586 1.5848 1.9054 0
M  V30 19 C -8.62482 0.769249 1.68849 0
M  V30 20 C -8.57648 -0.270086 0.784772 0
M  V30 21 C -7.3991 -0.499076 0.0758608 0
M  V30 22 N 3.66814 -0.478576 -0.193456 0
M  V30 23 C 5.08129 -0.586512 -0.117691 0
M  V30 24 C 5.83276 -1.54883 -0.751965 0
M  V30 25 C 7.22629 -1.61415 -0.676547 0
M  V30 26 C 7.88076 -0.667109 0.0712889 0
M  V30 27 C 7.15648 0.298472 0.711043 0
M  V30 28 C 5.80059 0.360798 0.636487 0
M  V30 29 S 7.99698 1.52133 1.67221 0
M  V30 30 O 9.2728 0.945123 2.18875 0
M  V30 31 O 7.08128 1.96105 2.75081 0
M  V30 32 N 8.38762 2.88101 0.666702 0
M  V30 33 H 1.25729 -0.0298948 0.908157 0
M  V30 34 H -1.13611 0.289258 0.927281 0
M  V30 35 H -1.40957 -1.29389 -3.01381 0
M  V30 36 H 1.00353 -1.60225 -3.02258 0
M  V30 37 H -3.40317 0.250776 -3.06371 0
M  V30 38 H -3.39516 -1.55772 -2.64471 0
M  V30 39 H -3.61885 -0.33815 2.09304 0
M  V30 40 H -3.21908 1.30687 1.53598 0
M  V30 41 H -5.52216 1.94699 1.32613 0
M  V30 42 H -7.57539 2.40527 2.61942 0
M  V30 43 H -9.54698 0.957946 2.25157 0
M  V30 44 H -9.46381 -0.87909 0.654758 0
M  V30 45 H -7.36504 -1.31538 -0.631345 0
M  V30 46 H 3.22269 0.125658 0.583217 0
M  V30 47 H 5.35591 -2.31044 -1.33327 0
M  V30 48 H 7.81356 -2.36711 -1.1732 0
M  V30 49 H 8.95534 -0.638027 0.187654 0
M  V30 50 H 5.23926 1.13156 1.14767 0
M  V30 51 H 9.09264 2.63534 -0.0541041 0
M  V30 52 H 7.50707 3.22734 0.224379 0
M  V30 END ATOM
M  V30 BEGIN BOND
M  V30 1 2 1 2
M  V30 2 1 2 3
M  V30 3 2 3 4
M  V30 4 1 4 5
M  V30 5 2 5 6
M  V30 6 1 6 7
M  V30 7 2 7 8
M  V30 8 1 6 9
M  V30 9 1 9 10
M  V30 10 1 10 11
M  V30 11 2 11 12
M  V30 12 1 11 13
M  V30 13 2 13 14
M  V30 14 1 14 15
M  V30 15 1 13 16
M  V30 16 2 16 17
M  V30 17 1 17 18
M  V30 18 2 18 19
M  V30 19 1 19 20
M  V30 20 2 20 21
M  V30 21 1 2 22
M  V30 22 1 22 23
M  V30 23 2 23 24
M  V30 24 1 24 25
M  V30 25 2 25 26
M  V30 26 1 26 27
M  V30 27 2 27 28
M  V30 28 1 27 29
M  V30 29 2 29 30
M  V30 30 2 29 31
M  V30 31 1 29 32
M  V30 32 1 8 3
M  V30 33 1 14 9
M  V30 34 1 21 16
M  V30 35 1 28 23
M  V30 36 1 4 33
M  V30 37 1 5 34
M  V30 38 1 7 35
M  V30 39 1 8 36
M  V30 40 1 10 37
M  V30 41 1 10 38
M  V30 42 1 15 39
M  V30 43 1 15 40
M  V30 44 1 17 41
M  V30 45 1 18 42
M  V30 46 1 19 43
M  V30 47 1 20 44
M  V30 48 1 21 45
M  V30 49 1 22 46
M  V30 50 1 24 47
M  V30 51 1 25 48
M  V30 52 1 26 49
M  V30 53 1 28 50
M  V30 54 1 32 51
M  V30 55 1 32 52
M  V30 END BOND
M  V30 END CTAB
M  END
