
     RDKit          3D

  0  0  0  0  0  0  0  0  0  0999 V3000
M  V30 BEGIN CTAB
M  V30 COUNTS 38 38 0 0 0
M  V30 BEGIN ATOM
M  V30 1 N -4.72623 -0.896151 -0.388363 0
M  V30 2 C -4.16845 0.248764 0.259308 0
M  V30 3 C -2.89834 0.739877 -0.395149 0
M  V30 4 C -1.82998 -0.257176 -0.409786 0
M  V30 5 O -1.36445 -0.638045 -1.50991 0
M  V30 6 N -1.26664 -0.840566 0.761763 0
M  V30 7 C -0.224639 -1.812 0.736942 0
M  V30 8 C 1.1218 -1.26995 0.465628 0
M  V30 9 C 2.22051 -2.09436 0.373531 0
M  V30 10 C 3.49335 -1.58642 0.118618 0
M  V30 11 C 3.69866 -0.240764 -0.0505188 0
M  V30 12 C 2.60417 0.593528 0.0401253 0
M  V30 13 C 1.33788 0.0764194 0.294977 0
M  V30 14 S 5.31042 0.393646 -0.372298 0
M  V30 15 O 6.14688 -0.649599 -1.09842 0
M  V30 16 O 5.25454 1.62093 -1.22759 0
M  V30 17 N 6.09492 0.801895 1.12828 0
M  V30 18 C -2.40896 1.92347 0.442038 0
M  V30 19 C -3.2212 1.16535 -1.80507 0
M  V30 20 H -5.20364 -1.49518 0.319433 0
M  V30 21 H -4.0343 -1.42919 -0.957393 0
M  V30 22 H -3.9497 -0.0417319 1.3271 0
M  V30 23 H -4.86415 1.11408 0.326675 0
M  V30 24 H -1.66505 -0.512623 1.66862 0
M  V30 25 H -0.492677 -2.6378 0.0314401 0
M  V30 26 H -0.199008 -2.31917 1.74614 0
M  V30 27 H 2.0587 -3.16266 0.507845 0
M  V30 28 H 4.35991 -2.25989 0.048648 0
M  V30 29 H 2.75717 1.63575 -0.0898107 0
M  V30 30 H 0.511201 0.752666 0.360178 0
M  V30 31 H 5.43304 1.39245 1.68449 0
M  V30 32 H 6.97421 1.31459 0.966777 0
M  V30 33 H -1.39466 2.19471 0.10852 0
M  V30 34 H -3.15783 2.70856 0.350701 0
M  V30 35 H -2.39916 1.56571 1.49331 0
M  V30 36 H -2.47046 0.832799 -2.54715 0
M  V30 37 H -4.2156 0.777548 -2.10918 0
M  V30 38 H -3.22225 2.29053 -1.80799 0
M  V30 END ATOM
M  V30 BEGIN BOND
M  V30 1 1 1 2
M  V30 2 1 2 3
M  V30 3 1 3 4
M  V30 4 2 4 5
M  V30 5 1 4 6
M  V30 6 1 6 7
M  V30 7 1 7 8
M  V30 8 2 8 9
M  V30 9 1 9 10
M  V30 10 2 10 11
M  V30 11 1 11 12
M  V30 12 2 12 13
M  V30 13 1 11 14
M  V30 14 2 14 15
M  V30 15 2 14 16
M  V30 16 1 14 17
M  V30 17 1 3 18
M  V30 18 1 3 19
M  V30 19 1 13 8
M  V30 20 1 1 20
M  V30 21 1 1 21
M  V30 22 1 2 22
M  V30 23 1 2 23
M  V30 24 1 6 24
M  V30 25 1 7 25
M  V30 26 1 7 26
M  V30 27 1 9 27
M  V30 28 1 10 28
M  V30 29 1 12 29
M  V30 30 1 13 30
M  V30 31 1 17 31
M  V30 32 1 17 32
M  V30 33 1 18 33
M  V30 34 1 18 34
M  V30 35 1 18 35
M  V30 36 1 19 36
M  V30 37 1 19 37
M  V30 38 1 19 38
M  V30 END BOND
M  V30 END CTAB
M  END
