
     RDKit          3D

  0  0  0  0  0  0  0  0  0  0999 V3000
M  V30 BEGIN CTAB
M  V30 COUNTS 32 33 0 0 0
M  V30 BEGIN ATOM
M  V30 1 N -1.09201 -1.8038 1.68283 0
M  V30 2 C -1.53455 -0.886673 0.693131 0
M  V30 3 C -2.93838 -0.603979 0.640607 0
M  V30 4 C -3.35672 0.244698 -0.397946 0
M  V30 5 C -2.52487 0.772386 -1.31155 0
M  V30 6 C -1.16315 0.503385 -1.24139 0
M  V30 7 C -0.726311 -0.322252 -0.215996 0
M  V30 8 C 0.75481 -0.434441 -0.0665047 0
M  V30 9 C 1.33309 0.863376 0.00287191 0
M  V30 10 N 0.550373 1.98662 0.0916303 0
M  V30 11 C 2.71571 0.894774 0.00160669 0
M  V30 12 C 3.53645 -0.220799 -0.0588669 0
M  V30 13 C 2.89506 -1.43427 -0.111078 0
M  V30 14 C 1.48791 -1.55218 -0.118355 0
M  V30 15 C 4.9847 -0.0448453 -0.188742 0
M  V30 16 F 5.19702 0.380352 -1.51604 0
M  V30 17 F 5.68912 -1.2294 -0.0995882 0
M  V30 18 F 5.40036 0.947096 0.623072 0
M  V30 19 C -4.79215 0.691714 -0.330491 0
M  V30 20 F -5.58126 -0.36813 -0.0139208 0
M  V30 21 F -4.95833 1.70559 0.594659 0
M  V30 22 F -5.22252 1.12085 -1.59043 0
M  V30 23 H -0.968273 -2.80387 1.42254 0
M  V30 24 H -0.855153 -1.46579 2.61498 0
M  V30 25 H -3.64415 -1.02365 1.34654 0
M  V30 26 H -2.92341 1.36201 -2.15702 0
M  V30 27 H -0.433229 0.919625 -1.93554 0
M  V30 28 H 0.523181 2.63467 -0.741174 0
M  V30 29 H -0.0251716 2.2494 0.925546 0
M  V30 30 H 3.2247 1.83815 0.111383 0
M  V30 31 H 3.46588 -2.38747 -0.152532 0
M  V30 32 H 0.981283 -2.53317 -0.150578 0
M  V30 END ATOM
M  V30 BEGIN BOND
M  V30 1 1 1 2
M  V30 2 2 2 3
M  V30 3 1 3 4
M  V30 4 2 4 5
M  V30 5 1 5 6
M  V30 6 2 6 7
M  V30 7 1 7 8
M  V30 8 2 8 9
M  V30 9 1 9 10
M  V30 10 1 9 11
M  V30 11 2 11 12
M  V30 12 1 12 13
M  V30 13 2 13 14
M  V30 14 1 12 15
M  V30 15 1 15 16
M  V30 16 1 15 17
M  V30 17 1 15 18
M  V30 18 1 4 19
M  V30 19 1 19 20
M  V30 20 1 19 21
M  V30 21 1 19 22
M  V30 22 1 7 2
M  V30 23 1 14 8
M  V30 24 1 1 23
M  V30 25 1 1 24
M  V30 26 1 3 25
M  V30 27 1 5 26
M  V30 28 1 6 27
M  V30 29 1 10 28
M  V30 30 1 10 29
M  V30 31 1 11 30
M  V30 32 1 13 31
M  V30 33 1 14 32
M  V30 END BOND
M  V30 END CTAB
M  END
