
     RDKit          3D

  0  0  0  0  0  0  0  0  0  0999 V3000
M  V30 BEGIN CTAB
M  V30 COUNTS 26 27 0 0 0
M  V30 BEGIN ATOM
M  V30 1 O -0.480925 1.37397 1.64728 0
M  V30 2 C -0.47809 0.168957 0.843437 0
M  V30 3 C -1.6851 0.299434 -0.0370962 0
M  V30 4 N -2.93174 0.430724 0.809496 0
M  V30 5 C -1.82141 -0.97791 -0.955329 0
M  V30 6 C -1.84455 0.476323 -1.45776 0
M  V30 7 C 0.821968 0.138092 0.148314 0
M  V30 8 C 1.17062 0.981841 -0.868624 0
M  V30 9 C 2.43745 0.934959 -1.39015 0
M  V30 10 Cl 2.97989 1.9451 -2.69045 0
M  V30 11 C 3.36156 0.0203424 -0.86708 0
M  V30 12 N 2.98157 -0.800409 0.140112 0
M  V30 13 C 1.7543 -0.745587 0.624305 0
M  V30 14 N 1.38244 -1.69823 1.67245 0
M  V30 15 H -1.04679 1.26891 2.44152 0
M  V30 16 H -0.638214 -0.644269 1.55762 0
M  V30 17 H -2.9041 -0.437113 1.40555 0
M  V30 18 H -2.78048 1.24259 1.41286 0
M  V30 19 H -2.74231 -1.55548 -0.851464 0
M  V30 20 H -0.875969 -1.50321 -1.12064 0
M  V30 21 H -2.90873 0.732768 -1.81481 0
M  V30 22 H -1.11861 0.706353 -2.22944 0
M  V30 23 H 0.501154 1.73739 -1.26899 0
M  V30 24 H 4.36134 -0.0674345 -1.22965 0
M  V30 25 H 1.20774 -2.68196 1.44277 0
M  V30 26 H 1.29699 -1.34614 2.63576 0
M  V30 END ATOM
M  V30 BEGIN BOND
M  V30 1 1 1 2
M  V30 2 1 2 3
M  V30 3 1 3 4
M  V30 4 1 3 5
M  V30 5 1 5 6
M  V30 6 1 2 7
M  V30 7 2 7 8
M  V30 8 1 8 9
M  V30 9 1 9 10
M  V30 10 2 9 11
M  V30 11 1 11 12
M  V30 12 2 12 13
M  V30 13 1 13 14
M  V30 14 1 6 3
M  V30 15 1 13 7
M  V30 16 1 1 15
M  V30 17 1 2 16
M  V30 18 1 4 17
M  V30 19 1 4 18
M  V30 20 1 5 19
M  V30 21 1 5 20
M  V30 22 1 6 21
M  V30 23 1 6 22
M  V30 24 1 8 23
M  V30 25 1 11 24
M  V30 26 1 14 25
M  V30 27 1 14 26
M  V30 END BOND
M  V30 END CTAB
M  END
