
     RDKit          3D

  0  0  0  0  0  0  0  0  0  0999 V3000
M  V30 BEGIN CTAB
M  V30 COUNTS 20 20 0 0 0
M  V30 BEGIN ATOM
M  V30 1 S 3.50054 -0.794481 0.0813411 0
M  V30 2 C 1.99437 0.11236 -0.056264 0
M  V30 3 C 2.03673 1.48148 -0.297011 0
M  V30 4 C 0.851865 2.20886 -0.407694 0
M  V30 5 C -0.349586 1.55979 -0.276717 0
M  V30 6 C -0.397272 0.204986 -0.0384051 0
M  V30 7 C 0.783328 -0.510387 0.0702351 0
M  V30 8 N 0.747896 -1.90658 0.315631 0
M  V30 9 S -1.89995 -0.634153 0.130217 0
M  V30 10 O -1.94894 -1.25556 1.49976 0
M  V30 11 O -1.96783 -1.76869 -0.864325 0
M  V30 12 N -3.2602 0.393324 -0.0305784 0
M  V30 13 H 3.36095 -2.15799 -0.141282 0
M  V30 14 H 2.99997 1.94494 -0.392042 0
M  V30 15 H 0.966202 3.26741 -0.595002 0
M  V30 16 H -1.25613 2.1304 -0.36388 0
M  V30 17 H 0.400754 -2.54387 -0.443074 0
M  V30 18 H 1.04341 -2.35865 1.20272 0
M  V30 19 H -3.52873 0.839529 0.889812 0
M  V30 20 H -4.07737 -0.212703 -0.283444 0
M  V30 END ATOM
M  V30 BEGIN BOND
M  V30 1 1 1 2
M  V30 2 2 2 3
M  V30 3 1 3 4
M  V30 4 2 4 5
M  V30 5 1 5 6
M  V30 6 2 6 7
M  V30 7 1 7 8
M  V30 8 1 6 9
M  V30 9 2 9 10
M  V30 10 2 9 11
M  V30 11 1 9 12
M  V30 12 1 7 2
M  V30 13 1 1 13
M  V30 14 1 3 14
M  V30 15 1 4 15
M  V30 16 1 5 16
M  V30 17 1 8 17
M  V30 18 1 8 18
M  V30 19 1 12 19
M  V30 20 1 12 20
M  V30 END BOND
M  V30 END CTAB
M  END
