
     RDKit          3D

  0  0  0  0  0  0  0  0  0  0999 V3000
M  V30 BEGIN CTAB
M  V30 COUNTS 31 32 0 0 0
M  V30 BEGIN ATOM
M  V30 1 N -2.8754 2.32489 -2.13447 0
M  V30 2 C -2.65057 1.40768 -1.07562 0
M  V30 3 N -1.53607 0.664885 -1.02128 0
M  V30 4 C -1.26727 -0.217269 -0.0482594 0
M  V30 5 N -0.0967023 -1.00138 -0.0395606 0
M  V30 6 C 0.951597 -0.913238 -1.00884 0 CFG=2
M  V30 7 C 1.77822 -2.17868 -0.874189 0
M  V30 8 C 2.72812 -1.97309 0.0101072 0
M  V30 9 C 2.64646 -0.582038 0.55086 0
M  V30 10 C 2.01858 0.0998497 -0.683033 0 CFG=2
M  V30 11 C 1.57525 1.47441 -0.383003 0
M  V30 12 O 2.75484 2.23232 -0.112434 0
M  V30 13 C -2.20454 -0.365063 0.960812 0
M  V30 14 N -1.93892 -1.28833 1.99288 0
M  V30 15 C -3.34554 0.385224 0.919048 0
M  V30 16 Cl -4.51141 0.172761 2.21331 0
M  V30 17 N -3.54155 1.24273 -0.0830102 0
M  V30 18 H -3.12555 1.9395 -3.06818 0
M  V30 19 H -2.8033 3.34172 -2.02279 0
M  V30 20 H 0.0198496 -1.71028 0.746077 0
M  V30 21 H 0.584027 -0.806352 -2.0478 0
M  V30 22 H 1.55125 -3.07029 -1.45581 0
M  V30 23 H 3.46908 -2.68859 0.316424 0
M  V30 24 H 1.95363 -0.490746 1.39816 0
M  V30 25 H 3.61617 -0.153879 0.800871 0
M  V30 26 H 2.8038 0.0299516 -1.46238 0
M  V30 27 H 0.890199 1.56292 0.470192 0
M  V30 28 H 1.14476 1.97709 -1.26602 0
M  V30 29 H 3.09583 1.83353 0.739776 0
M  V30 30 H -1.87319 -2.2916 1.77501 0
M  V30 31 H -1.81166 -0.95862 2.95879 0
M  V30 END ATOM
M  V30 BEGIN BOND
M  V30 1 1 1 2
M  V30 2 2 2 3
M  V30 3 1 3 4
M  V30 4 1 4 5
M  V30 5 1 5 6
M  V30 6 1 6 7
M  V30 7 2 7 8
M  V30 8 1 8 9
M  V30 9 1 9 10
M  V30 10 1 10 11
M  V30 11 1 11 12
M  V30 12 2 4 13
M  V30 13 1 13 14
M  V30 14 1 13 15
M  V30 15 1 15 16
M  V30 16 2 15 17
M  V30 17 1 17 2
M  V30 18 1 10 6
M  V30 19 1 1 18
M  V30 20 1 1 19
M  V30 21 1 5 20
M  V30 22 1 6 21 CFG=3
M  V30 23 1 7 22
M  V30 24 1 8 23
M  V30 25 1 9 24
M  V30 26 1 9 25
M  V30 27 1 10 26 CFG=3
M  V30 28 1 11 27
M  V30 29 1 11 28
M  V30 30 1 12 29
M  V30 31 1 14 30
M  V30 32 1 14 31
M  V30 END BOND
M  V30 END CTAB
M  END
