
     RDKit          3D

  0  0  0  0  0  0  0  0  0  0999 V3000
M  V30 BEGIN CTAB
M  V30 COUNTS 42 41 0 0 0
M  V30 BEGIN ATOM
M  V30 1 N 1.93188 2.64013 -0.523805 0
M  V30 2 C 2.78729 1.81538 0.248121 0
M  V30 3 C 2.15401 1.00522 1.34323 0
M  V30 4 N 1.11253 0.0857204 0.732484 0
M  V30 5 C -0.191687 0.562006 0.719762 0
M  V30 6 S -0.330932 2.07295 1.54519 0
M  V30 7 N -1.41865 0.177842 0.216448 0
M  V30 8 C -2.57145 1.0011 0.405422 0
M  V30 9 O -2.57633 2.07239 1.00345 0
M  V30 10 O -3.81201 0.589648 -0.116955 0
M  V30 11 C -4.97298 1.4073 0.0668484 0
M  V30 12 C -5.27701 1.60774 1.53748 0
M  V30 13 C -1.67674 -1.01978 -0.526919 0
M  V30 14 C -1.49104 -0.857515 -2.0276 0
M  V30 15 N -1.78776 -2.14564 -2.62395 0
M  V30 16 C 1.70285 -1.11161 0.273266 0
M  V30 17 O 1.2162 -2.1029 -0.264258 0
M  V30 18 O 3.1246 -1.24391 0.441151 0
M  V30 19 C 3.78129 -2.4399 -0.00703878 0
M  V30 20 C 5.24901 -2.25973 0.313064 0
M  V30 21 H 2.00987 3.62512 -0.205127 0
M  V30 22 H 2.05579 2.57724 -1.5466 0
M  V30 23 H 3.64496 2.38828 0.696924 0
M  V30 24 H 3.28016 1.09006 -0.475486 0
M  V30 25 H 2.89587 0.311235 1.80937 0
M  V30 26 H 1.64799 1.61861 2.07005 0
M  V30 27 H -5.82331 0.792147 -0.340938 0
M  V30 28 H -4.86751 2.37405 -0.452198 0
M  V30 29 H -4.93767 2.6011 1.89494 0
M  V30 30 H -6.33493 1.40712 1.78837 0
M  V30 31 H -4.66584 0.860085 2.09252 0
M  V30 32 H -1.30191 -1.95287 -0.160135 0
M  V30 33 H -2.84876 -1.14803 -0.459836 0
M  V30 34 H -2.19675 -0.119865 -2.43196 0
M  V30 35 H -0.444668 -0.616631 -2.26487 0
M  V30 36 H -1.18246 -2.361 -3.44673 0
M  V30 37 H -1.7296 -2.93018 -1.91513 0
M  V30 38 H 3.34389 -3.34112 0.420256 0
M  V30 39 H 3.70711 -2.39777 -1.12932 0
M  V30 40 H 5.77308 -1.6871 -0.478901 0
M  V30 41 H 5.71314 -3.24407 0.500219 0
M  V30 42 H 5.30846 -1.70285 1.27919 0
M  V30 END ATOM
M  V30 BEGIN BOND
M  V30 1 1 1 2
M  V30 2 1 2 3
M  V30 3 1 3 4
M  V30 4 1 4 5
M  V30 5 2 5 6
M  V30 6 1 5 7
M  V30 7 1 7 8
M  V30 8 2 8 9
M  V30 9 1 8 10
M  V30 10 1 10 11
M  V30 11 1 11 12
M  V30 12 1 7 13
M  V30 13 1 13 14
M  V30 14 1 14 15
M  V30 15 1 4 16
M  V30 16 2 16 17
M  V30 17 1 16 18
M  V30 18 1 18 19
M  V30 19 1 19 20
M  V30 20 1 1 21
M  V30 21 1 1 22
M  V30 22 1 2 23
M  V30 23 1 2 24
M  V30 24 1 3 25
M  V30 25 1 3 26
M  V30 26 1 11 27
M  V30 27 1 11 28
M  V30 28 1 12 29
M  V30 29 1 12 30
M  V30 30 1 12 31
M  V30 31 1 13 32
M  V30 32 1 13 33
M  V30 33 1 14 34
M  V30 34 1 14 35
M  V30 35 1 15 36
M  V30 36 1 15 37
M  V30 37 1 19 38
M  V30 38 1 19 39
M  V30 39 1 20 40
M  V30 40 1 20 41
M  V30 41 1 20 42
M  V30 END BOND
M  V30 END CTAB
M  END
