
     RDKit          3D

  0  0  0  0  0  0  0  0  0  0999 V3000
M  V30 BEGIN CTAB
M  V30 COUNTS 27 30 0 0 0
M  V30 BEGIN ATOM
M  V30 1 N 4.1569 -1.05773 0.176518 0
M  V30 2 C 2.91292 -1.17536 -0.484976 0
M  V30 3 N 2.60914 -1.81471 -1.63786 0
M  V30 4 N 1.30647 -1.64046 -1.84775 0
M  V30 5 C 0.755602 -0.909294 -0.869153 0
M  V30 6 N 1.76955 -0.63276 -0.0365405 0
M  V30 7 N 1.64783 0.10916 1.12524 0
M  V30 8 C -0.67665 -0.512168 -0.761911 0
M  V30 9 C -1.05999 0.777516 -0.452968 0
M  V30 10 C -1.22829 -0.434949 0.494218 0
M  V30 11 C -1.97464 -0.158089 1.60491 0
M  V30 12 C -2.67738 -0.969087 0.62407 0
M  V30 13 C -0.661894 2.04065 -0.0196676 0
M  V30 14 C -2.0317 1.75848 -0.676603 0
M  V30 15 H 4.23626 -1.21293 1.19917 0
M  V30 16 H 5.0207 -0.811236 -0.357343 0
M  V30 17 H 1.14688 -0.227638 1.9791 0
M  V30 18 H 2.061 1.08274 1.22981 0
M  V30 19 H -1.25444 -0.98921 -1.62366 0
M  V30 20 H -2.47206 0.835918 1.83384 0
M  V30 21 H -1.77096 -0.673368 2.59611 0
M  V30 22 H -2.66259 -2.07922 0.748407 0
M  V30 23 H -3.36894 -0.578153 -0.137201 0
M  V30 24 H -0.678198 2.28582 1.08332 0
M  V30 25 H -0.0458422 2.75613 -0.577164 0
M  V30 26 H -2.88594 2.05745 -0.0263872 0
M  V30 27 H -2.17374 2.17249 -1.71857 0
M  V30 END ATOM
M  V30 BEGIN BOND
M  V30 1 1 1 2
M  V30 2 2 2 3
M  V30 3 1 3 4
M  V30 4 2 4 5
M  V30 5 1 5 6
M  V30 6 1 6 7
M  V30 7 1 5 8
M  V30 8 1 8 9
M  V30 9 1 9 10
M  V30 10 1 10 11
M  V30 11 1 11 12
M  V30 12 1 9 13
M  V30 13 1 13 14
M  V30 14 1 6 2
M  V30 15 1 10 8
M  V30 16 1 14 9
M  V30 17 1 12 10
M  V30 18 1 1 15
M  V30 19 1 1 16
M  V30 20 1 7 17
M  V30 21 1 7 18
M  V30 22 1 8 19
M  V30 23 1 11 20
M  V30 24 1 11 21
M  V30 25 1 12 22
M  V30 26 1 12 23
M  V30 27 1 13 24
M  V30 28 1 13 25
M  V30 29 1 14 26
M  V30 30 1 14 27
M  V30 END BOND
M  V30 END CTAB
M  END
