
     RDKit          3D

  0  0  0  0  0  0  0  0  0  0999 V3000
M  V30 BEGIN CTAB
M  V30 COUNTS 25 25 0 0 0
M  V30 BEGIN ATOM
M  V30 1 C -3.67016 -0.618734 2.50904 0
M  V30 2 C -3.17233 -0.554878 1.41481 0
M  V30 3 C -2.5467 -0.483003 0.0951273 0
M  V30 4 O -1.22869 -0.932074 0.167371 0
M  V30 5 C -0.116513 -0.15363 -0.104186 0
M  V30 6 C 1.13581 -0.722157 0.0052439 0
M  V30 7 C 2.30019 -0.0119445 -0.248957 0
M  V30 8 N 3.57289 -0.629144 -0.126391 0
M  V30 9 N 4.23867 -0.594898 1.09094 0
M  V30 10 N 2.15234 1.27573 -0.612576 0
M  V30 11 C 0.942994 1.8612 -0.728727 0
M  V30 12 N -0.178012 1.13795 -0.472646 0
M  V30 13 N 0.892319 3.22492 -1.11831 0
M  V30 14 C -3.34327 -1.25222 -0.939373 0
M  V30 15 H -4.10277 -0.670148 3.47405 0
M  V30 16 H -2.57005 0.584323 -0.210501 0
M  V30 17 H 1.19166 -1.77908 0.306515 0
M  V30 18 H 3.97044 -1.09562 -0.97186 0
M  V30 19 H 5.13205 -0.0622457 1.0563 0
M  V30 20 H 4.35751 -1.54407 1.50971 0
M  V30 21 H 0.785259 3.45269 -2.1274 0
M  V30 22 H 0.965392 3.93998 -0.368474 0
M  V30 23 H -3.29335 -0.770652 -1.93636 0
M  V30 24 H -4.41594 -1.30738 -0.625199 0
M  V30 25 H -2.99973 -2.2949 -1.03815 0
M  V30 END ATOM
M  V30 BEGIN BOND
M  V30 1 3 1 2
M  V30 2 1 2 3
M  V30 3 1 3 4
M  V30 4 1 4 5
M  V30 5 2 5 6
M  V30 6 1 6 7
M  V30 7 1 7 8
M  V30 8 1 8 9
M  V30 9 2 7 10
M  V30 10 1 10 11
M  V30 11 2 11 12
M  V30 12 1 11 13
M  V30 13 1 3 14
M  V30 14 1 12 5
M  V30 15 1 1 15
M  V30 16 1 3 16
M  V30 17 1 6 17
M  V30 18 1 8 18
M  V30 19 1 9 19
M  V30 20 1 9 20
M  V30 21 1 13 21
M  V30 22 1 13 22
M  V30 23 1 14 23
M  V30 24 1 14 24
M  V30 25 1 14 25
M  V30 END BOND
M  V30 END CTAB
M  END
