
     RDKit          3D

  0  0  0  0  0  0  0  0  0  0999 V3000
M  V30 BEGIN CTAB
M  V30 COUNTS 47 49 0 0 0
M  V30 BEGIN ATOM
M  V30 1 N 7.82567 -3.34459 0.205903 0
M  V30 2 C 6.95082 -2.56622 0.0961967 0
M  V30 3 C 5.88525 -1.62151 -0.016611 0
M  V30 4 C 4.79229 -1.59587 0.805508 0
M  V30 5 C 3.78147 -0.656556 0.654939 0
M  V30 6 C 3.87005 0.2791 -0.34443 0
M  V30 7 C 4.97479 0.257531 -1.17957 0
M  V30 8 C 5.95839 -0.672755 -1.01695 0
M  V30 9 C 2.81647 1.30165 -0.546507 0
M  V30 10 N 1.5808 0.936555 0.0408747 0
M  V30 11 C 0.967878 -0.233629 -0.461329 0
M  V30 12 C -0.181549 -0.035593 -1.3921 0
M  V30 13 C -1.25338 0.850328 -0.864568 0
M  V30 14 N -1.43195 0.889426 0.532763 0
M  V30 15 C -0.438524 1.58689 1.27317 0
M  V30 16 C 0.752815 2.00264 0.463355 0
M  V30 17 C -2.0772 -0.194765 1.16973 0
M  V30 18 C -3.4565 -0.355574 0.648381 0
M  V30 19 N -4.44182 0.421742 1.18781 0
M  V30 20 C -5.70977 0.312298 0.756037 0
M  V30 21 N -6.71573 1.12732 1.33312 0
M  V30 22 N -6.04809 -0.548158 -0.203179 0
M  V30 23 C -5.08478 -1.33152 -0.754196 0
M  V30 24 N -3.82175 -1.20733 -0.308632 0
M  V30 25 N -5.47279 -2.23776 -1.77245 0
M  V30 26 H 4.75564 -2.36064 1.59379 0
M  V30 27 H 2.93287 -0.662736 1.31946 0
M  V30 28 H 5.0388 1.00061 -1.9673 0
M  V30 29 H 6.82925 -0.685733 -1.68098 0
M  V30 30 H 2.75264 1.44529 -1.66385 0
M  V30 31 H 3.19164 2.24582 -0.075348 0
M  V30 32 H 1.7556 -0.801206 -1.04749 0
M  V30 33 H 0.702429 -0.928754 0.362317 0
M  V30 34 H 0.203226 0.401394 -2.35855 0
M  V30 35 H -0.559019 -1.04945 -1.67736 0
M  V30 36 H -1.12752 1.8879 -1.2579 0
M  V30 37 H -2.22098 0.512929 -1.3405 0
M  V30 38 H -0.0689665 1.07946 2.1786 0
M  V30 39 H -0.913673 2.54041 1.65157 0
M  V30 40 H 1.37672 2.64286 1.15849 0
M  V30 41 H 0.517178 2.6874 -0.378158 0
M  V30 42 H -1.55916 -1.1736 1.10282 0
M  V30 43 H -2.18085 0.0718021 2.25488 0
M  V30 44 H -7.11311 0.93556 2.29659 0
M  V30 45 H -7.12305 1.95564 0.851631 0
M  V30 46 H -6.11354 -3.01138 -1.53978 0
M  V30 47 H -5.09897 -2.09726 -2.73145 0
M  V30 END ATOM
M  V30 BEGIN BOND
M  V30 1 3 1 2
M  V30 2 1 2 3
M  V30 3 2 3 4
M  V30 4 1 4 5
M  V30 5 2 5 6
M  V30 6 1 6 7
M  V30 7 2 7 8
M  V30 8 1 6 9
M  V30 9 1 9 10
M  V30 10 1 10 11
M  V30 11 1 11 12
M  V30 12 1 12 13
M  V30 13 1 13 14
M  V30 14 1 14 15
M  V30 15 1 15 16
M  V30 16 1 14 17
M  V30 17 1 17 18
M  V30 18 2 18 19
M  V30 19 1 19 20
M  V30 20 1 20 21
M  V30 21 2 20 22
M  V30 22 1 22 23
M  V30 23 2 23 24
M  V30 24 1 23 25
M  V30 25 1 8 3
M  V30 26 1 16 10
M  V30 27 1 24 18
M  V30 28 1 4 26
M  V30 29 1 5 27
M  V30 30 1 7 28
M  V30 31 1 8 29
M  V30 32 1 9 30
M  V30 33 1 9 31
M  V30 34 1 11 32
M  V30 35 1 11 33
M  V30 36 1 12 34
M  V30 37 1 12 35
M  V30 38 1 13 36
M  V30 39 1 13 37
M  V30 40 1 15 38
M  V30 41 1 15 39
M  V30 42 1 16 40
M  V30 43 1 16 41
M  V30 44 1 17 42
M  V30 45 1 17 43
M  V30 46 1 21 44
M  V30 47 1 21 45
M  V30 48 1 25 46
M  V30 49 1 25 47
M  V30 END BOND
M  V30 END CTAB
M  END
