
     RDKit          3D

  0  0  0  0  0  0  0  0  0  0999 V3000
M  V30 BEGIN CTAB
M  V30 COUNTS 56 57 0 0 0
M  V30 BEGIN ATOM
M  V30 1 C 8.15351 -1.11424 -1.8202 0
M  V30 2 C 8.02943 -1.52159 -0.387753 0
M  V30 3 C 7.14122 -0.587908 0.392548 0
M  V30 4 C 5.73621 -0.531242 -0.161917 0
M  V30 5 C 4.95379 0.43077 0.701218 0
M  V30 6 C 3.51428 0.57134 0.237112 0
M  V30 7 C 2.85429 1.55963 1.18787 0
M  V30 8 C 1.4042 1.75516 0.78831 0
M  V30 9 O 0.784262 0.486258 0.872206 0
M  V30 10 C -0.532713 0.340195 0.570292 0
M  V30 11 C -1.12932 -0.893459 0.653377 0
M  V30 12 C -2.47506 -1.04928 0.346104 0
M  V30 13 C -3.24769 0.0232428 -0.0491329 0
M  V30 14 C -2.64173 1.25976 -0.130418 0
M  V30 15 C -1.28783 1.41412 0.179177 0
M  V30 16 N -4.64822 -0.144486 -0.367938 0
M  V30 17 C -4.92772 -0.444158 -1.72075 0
M  V30 18 N -3.88362 -0.569301 -2.69431 0
M  V30 19 N -6.16263 -0.600816 -2.04458 0
M  V30 20 C -7.19248 -0.474056 -1.06806 0
M  V30 21 N -8.52153 -0.671425 -1.55593 0
M  V30 22 N -6.95288 -0.202958 0.160534 0
M  V30 23 C -5.64224 -0.00297398 0.667595 0
M  V30 24 C -5.60312 1.40046 1.27544 0
M  V30 25 C -5.29921 -0.941054 1.81165 0
M  V30 26 H 7.21814 -1.28482 -2.40287 0
M  V30 27 H 8.91561 -1.79365 -2.29453 0
M  V30 28 H 8.50257 -0.086514 -1.92462 0
M  V30 29 H 7.6471 -2.56236 -0.321785 0
M  V30 30 H 9.03253 -1.48159 0.0700192 0
M  V30 31 H 7.59259 0.428744 0.364198 0
M  V30 32 H 7.08876 -0.896348 1.44189 0
M  V30 33 H 5.69396 -0.284375 -1.22909 0
M  V30 34 H 5.26106 -1.53389 -0.0406154 0
M  V30 35 H 5.48504 1.40337 0.659515 0
M  V30 36 H 4.95388 0.0376975 1.73322 0
M  V30 37 H 3.01967 -0.40379 0.318146 0
M  V30 38 H 3.44503 1.0044 -0.76579 0
M  V30 39 H 3.4091 2.50704 1.18915 0
M  V30 40 H 2.89561 1.0901 2.19185 0
M  V30 41 H 1.30952 2.20023 -0.216282 0
M  V30 42 H 0.926903 2.4382 1.5206 0
M  V30 43 H -0.527994 -1.74003 0.96321 0
M  V30 44 H -2.93219 -2.02306 0.415135 0
M  V30 45 H -3.22665 2.1063 -0.436138 0
M  V30 46 H -0.81486 2.39377 0.113002 0
M  V30 47 H -3.80744 0.110243 -3.46746 0
M  V30 48 H -3.18318 -1.33895 -2.64833 0
M  V30 49 H -9.12862 -1.34642 -1.07173 0
M  V30 50 H -8.83135 -0.135665 -2.373 0
M  V30 51 H -4.65523 1.45523 1.86121 0
M  V30 52 H -5.70649 2.18196 0.523832 0
M  V30 53 H -6.44593 1.46051 1.98251 0
M  V30 54 H -4.33557 -0.588994 2.25038 0
M  V30 55 H -5.16227 -1.98304 1.46325 0
M  V30 56 H -6.06248 -0.826273 2.59421 0
M  V30 END ATOM
M  V30 BEGIN BOND
M  V30 1 1 1 2
M  V30 2 1 2 3
M  V30 3 1 3 4
M  V30 4 1 4 5
M  V30 5 1 5 6
M  V30 6 1 6 7
M  V30 7 1 7 8
M  V30 8 1 8 9
M  V30 9 1 9 10
M  V30 10 2 10 11
M  V30 11 1 11 12
M  V30 12 2 12 13
M  V30 13 1 13 14
M  V30 14 2 14 15
M  V30 15 1 13 16
M  V30 16 1 16 17
M  V30 17 1 17 18
M  V30 18 2 17 19
M  V30 19 1 19 20
M  V30 20 1 20 21
M  V30 21 2 20 22
M  V30 22 1 22 23
M  V30 23 1 23 24
M  V30 24 1 23 25
M  V30 25 1 15 10
M  V30 26 1 23 16
M  V30 27 1 1 26
M  V30 28 1 1 27
M  V30 29 1 1 28
M  V30 30 1 2 29
M  V30 31 1 2 30
M  V30 32 1 3 31
M  V30 33 1 3 32
M  V30 34 1 4 33
M  V30 35 1 4 34
M  V30 36 1 5 35
M  V30 37 1 5 36
M  V30 38 1 6 37
M  V30 39 1 6 38
M  V30 40 1 7 39
M  V30 41 1 7 40
M  V30 42 1 8 41
M  V30 43 1 8 42
M  V30 44 1 11 43
M  V30 45 1 12 44
M  V30 46 1 14 45
M  V30 47 1 15 46
M  V30 48 1 18 47
M  V30 49 1 18 48
M  V30 50 1 21 49
M  V30 51 1 21 50
M  V30 52 1 24 51
M  V30 53 1 24 52
M  V30 54 1 24 53
M  V30 55 1 25 54
M  V30 56 1 25 55
M  V30 57 1 25 56
M  V30 END BOND
M  V30 END CTAB
M  END
