
     RDKit          3D

  0  0  0  0  0  0  0  0  0  0999 V3000
M  V30 BEGIN CTAB
M  V30 COUNTS 62 65 0 0 0
M  V30 BEGIN ATOM
M  V30 1 N 7.85694 1.15793 -0.742847 0
M  V30 2 C 8.66186 0.720278 0.377171 0
M  V30 3 C 8.39147 -0.735828 0.704759 0
M  V30 4 C 6.94457 -0.891488 1.0534 0
M  V30 5 O 6.14498 -0.49639 -0.0361654 0
M  V30 6 C 4.76571 -0.556009 0.0604582 0
M  V30 7 C 4.16437 -0.999478 1.21591 0
M  V30 8 C 2.81985 -1.0558 1.30391 0
M  V30 9 C 1.96699 -0.679818 0.261272 0
M  V30 10 C 2.55948 -0.239074 -0.884164 0
M  V30 11 C 3.95366 -0.181785 -0.974183 0
M  V30 12 C 0.528003 -0.733544 0.458449 0
M  V30 13 O 0.249845 -0.941921 1.74841 0
M  V30 14 N -0.577893 -0.623113 -0.367933 0
M  V30 15 C -0.449089 -0.442793 -1.77638 0
M  V30 16 C -1.78343 -0.836197 -2.43227 0 CFG=2
M  V30 17 O -1.56235 -1.23045 -3.75275 0
M  V30 18 C -2.72733 0.29148 -2.39703 0
M  V30 19 C -2.76124 1.11528 -1.1735 0 CFG=2
M  V30 20 C -2.77902 0.428415 0.124429 0 CFG=2
M  V30 21 C -1.85546 -0.704773 0.360243 0
M  V30 22 N -4.1235 -0.0413537 0.503153 0
M  V30 23 C -4.75555 -1.12744 -0.0152529 0
M  V30 24 N -5.967 -1.27674 0.548829 0
M  V30 25 C -6.12242 -0.293191 1.4295 0
M  V30 26 C -4.97863 0.476366 1.40365 0
M  V30 27 N -4.87111 1.55711 2.21492 0
M  V30 28 C -5.88189 1.87029 3.0392 0
M  V30 29 N -6.98501 1.11557 3.054 0
M  V30 30 C -7.14759 0.0366276 2.27531 0
M  V30 31 N -8.36808 -0.716139 2.35819 0
M  V30 32 C -4.05609 1.94909 -1.25247 0
M  V30 33 O -1.75624 2.11167 -1.12955 0
M  V30 34 H 8.27175 0.968271 -1.66102 0
M  V30 35 H 7.6351 2.16777 -0.668044 0
M  V30 36 H 9.73543 0.837917 0.142588 0
M  V30 37 H 8.38688 1.33329 1.26177 0
M  V30 38 H 8.5967 -1.37783 -0.175962 0
M  V30 39 H 9.02023 -1.02721 1.56772 0
M  V30 40 H 6.7444 -1.95371 1.3539 0
M  V30 41 H 6.72109 -0.235037 1.92598 0
M  V30 42 H 4.8322 -1.29639 2.03871 0
M  V30 43 H 2.38609 -1.40861 2.213 0
M  V30 44 H 1.99583 0.0988541 -1.73849 0
M  V30 45 H 4.38289 0.172801 -1.90054 0
M  V30 46 H 0.25913 -1.17983 -2.26053 0
M  V30 47 H -0.149694 0.555951 -2.11664 0
M  V30 48 H -2.14841 -1.72116 -1.90393 0
M  V30 49 H -0.666827 -1.66535 -3.81133 0
M  V30 50 H -3.75503 -0.0823641 -2.65034 0
M  V30 51 H -2.47613 0.979986 -3.25925 0
M  V30 52 H -2.53161 1.20991 0.90884 0
M  V30 53 H -1.64036 -0.808675 1.43669 0
M  V30 54 H -2.33151 -1.67724 0.0802531 0
M  V30 55 H -4.31734 -1.77473 -0.784643 0
M  V30 56 H -5.80673 2.74627 3.70351 0
M  V30 57 H -9.17387 -0.42825 1.78127 0
M  V30 58 H -8.47853 -1.53616 2.97067 0
M  V30 59 H -4.9294 1.28258 -1.14761 0
M  V30 60 H -4.10729 2.37179 -2.27688 0
M  V30 61 H -4.09026 2.72663 -0.486807 0
M  V30 62 H -1.86352 2.69376 -1.91871 0
M  V30 END ATOM
M  V30 BEGIN BOND
M  V30 1 1 1 2
M  V30 2 1 2 3
M  V30 3 1 3 4
M  V30 4 1 4 5
M  V30 5 1 5 6
M  V30 6 2 6 7
M  V30 7 1 7 8
M  V30 8 2 8 9
M  V30 9 1 9 10
M  V30 10 2 10 11
M  V30 11 1 9 12
M  V30 12 2 12 13
M  V30 13 1 12 14
M  V30 14 1 14 15
M  V30 15 1 15 16
M  V30 16 1 16 17
M  V30 17 1 16 18
M  V30 18 1 18 19
M  V30 19 1 19 20
M  V30 20 1 20 21
M  V30 21 1 20 22
M  V30 22 1 22 23
M  V30 23 2 23 24
M  V30 24 1 24 25
M  V30 25 2 25 26
M  V30 26 1 26 27
M  V30 27 2 27 28
M  V30 28 1 28 29
M  V30 29 2 29 30
M  V30 30 1 30 31
M  V30 31 1 19 32
M  V30 32 1 19 33 CFG=1
M  V30 33 1 11 6
M  V30 34 1 21 14
M  V30 35 1 26 22
M  V30 36 1 30 25
M  V30 37 1 1 34
M  V30 38 1 1 35
M  V30 39 1 2 36
M  V30 40 1 2 37
M  V30 41 1 3 38
M  V30 42 1 3 39
M  V30 43 1 4 40
M  V30 44 1 4 41
M  V30 45 1 7 42
M  V30 46 1 8 43
M  V30 47 1 10 44
M  V30 48 1 11 45
M  V30 49 1 15 46
M  V30 50 1 15 47
M  V30 51 1 16 48 CFG=1
M  V30 52 1 17 49
M  V30 53 1 18 50
M  V30 54 1 18 51
M  V30 55 1 20 52 CFG=1
M  V30 56 1 21 53
M  V30 57 1 21 54
M  V30 58 1 23 55
M  V30 59 1 28 56
M  V30 60 1 31 57
M  V30 61 1 31 58
M  V30 62 1 32 59
M  V30 63 1 32 60
M  V30 64 1 32 61
M  V30 65 1 33 62
M  V30 END BOND
M  V30 END CTAB
M  END
