
     RDKit          3D

  0  0  0  0  0  0  0  0  0  0999 V3000
M  V30 BEGIN CTAB
M  V30 COUNTS 26 26 0 0 0
M  V30 BEGIN ATOM
M  V30 1 N 4.44551 0.343338 0.662082 0
M  V30 2 N 3.24674 -0.205895 0.933254 0
M  V30 3 C 2.08226 0.0180299 0.15647 0
M  V30 4 O 2.19125 0.775632 -0.840083 0
M  V30 5 C 0.769632 -0.587976 0.459815 0
M  V30 6 C -0.300606 -0.200194 -0.503813 0 CFG=2
M  V30 7 C -0.568359 1.26556 -0.571089 0
M  V30 8 C -2.0071 1.47699 -0.0992515 0
M  V30 9 C -2.69034 0.145958 -0.31457 0
M  V30 10 C -1.59432 -0.837178 -0.0555865 0 CFG=1
M  V30 11 N -1.83865 -2.06919 -0.817745 0
M  V30 12 H 4.46999 1.24686 0.281249 0
M  V30 13 H 5.27905 -0.121166 0.782561 0
M  V30 14 H 3.19708 -0.832106 1.77325 0
M  V30 15 H 0.828367 -1.70501 0.459743 0
M  V30 16 H 0.444421 -0.330673 1.50976 0
M  V30 17 H -0.0723175 -0.615099 -1.50973 0
M  V30 18 H -0.5291 1.59845 -1.61921 0
M  V30 19 H 0.0653836 1.87445 0.102157 0
M  V30 20 H -2.03641 1.74463 0.976874 0
M  V30 21 H -2.51273 2.27796 -0.675998 0
M  V30 22 H -3.09281 0.104543 -1.34377 0
M  V30 23 H -3.50431 0.0631789 0.456525 0
M  V30 24 H -1.53749 -1.10782 1.01603 0
M  V30 25 H -2.03243 -1.80908 -1.82919 0
M  V30 26 H -2.70272 -2.51419 -0.434486 0
M  V30 END ATOM
M  V30 BEGIN BOND
M  V30 1 1 1 2
M  V30 2 1 2 3
M  V30 3 2 3 4
M  V30 4 1 3 5
M  V30 5 1 5 6
M  V30 6 1 6 7
M  V30 7 1 7 8
M  V30 8 1 8 9
M  V30 9 1 9 10
M  V30 10 1 10 11
M  V30 11 1 10 6
M  V30 12 1 1 12
M  V30 13 1 1 13
M  V30 14 1 2 14
M  V30 15 1 5 15
M  V30 16 1 5 16
M  V30 17 1 6 17 CFG=3
M  V30 18 1 7 18
M  V30 19 1 7 19
M  V30 20 1 8 20
M  V30 21 1 8 21
M  V30 22 1 9 22
M  V30 23 1 9 23
M  V30 24 1 10 24 CFG=1
M  V30 25 1 11 25
M  V30 26 1 11 26
M  V30 END BOND
M  V30 END CTAB
M  END
