
     RDKit          3D

  0  0  0  0  0  0  0  0  0  0999 V3000
M  V30 BEGIN CTAB
M  V30 COUNTS 27 26 0 0 0
M  V30 BEGIN ATOM
M  V30 1 O -1.82877 0.573644 2.21782 0
M  V30 2 C -0.617928 0.380116 1.61396 0
M  V30 3 C -0.706531 -0.00232023 0.164065 0
M  V30 4 C -1.51564 0.930694 -0.669224 0
M  V30 5 C -1.50347 0.404779 -2.09161 0
M  V30 6 C -1.05085 2.33948 -0.660745 0
M  V30 7 N 0.615154 -0.183895 -0.384448 0
M  V30 8 C 1.53916 -1.13694 0.104804 0
M  V30 9 N 2.67291 -0.73353 0.563056 0
M  V30 10 N 3.55603 -1.70176 1.03583 0
M  V30 11 N 1.17309 -2.52748 0.0707546 0
M  V30 12 H -1.94989 1.533 2.46782 0
M  V30 13 H -0.0554715 -0.370948 2.20469 0
M  V30 14 H -0.0140356 1.32629 1.68674 0
M  V30 15 H -1.20616 -1.00461 0.126239 0
M  V30 16 H -2.57766 0.926964 -0.313374 0
M  V30 17 H -1.25024 1.17854 -2.83053 0
M  V30 18 H -2.51902 0.017104 -2.38265 0
M  V30 19 H -0.76253 -0.415162 -2.22809 0
M  V30 20 H -1.84703 3.06443 -0.324179 0
M  V30 21 H -0.13004 2.50259 -0.0516807 0
M  V30 22 H -0.791618 2.66032 -1.68886 0
M  V30 23 H 0.908671 0.413357 -1.17978 0
M  V30 24 H 3.5559 -2.64625 0.646936 0
M  V30 25 H 4.21493 -1.43993 1.79368 0
M  V30 26 H 0.253741 -2.87144 0.42607 0
M  V30 27 H 1.83732 -3.21703 -0.317295 0
M  V30 END ATOM
M  V30 BEGIN BOND
M  V30 1 1 1 2
M  V30 2 1 2 3
M  V30 3 1 3 4
M  V30 4 1 4 5
M  V30 5 1 4 6
M  V30 6 1 3 7
M  V30 7 1 7 8
M  V30 8 2 8 9 CFG=2
M  V30 9 1 9 10
M  V30 10 1 8 11
M  V30 11 1 1 12
M  V30 12 1 2 13
M  V30 13 1 2 14
M  V30 14 1 3 15
M  V30 15 1 4 16
M  V30 16 1 5 17
M  V30 17 1 5 18
M  V30 18 1 5 19
M  V30 19 1 6 20
M  V30 20 1 6 21
M  V30 21 1 6 22
M  V30 22 1 7 23
M  V30 23 1 10 24
M  V30 24 1 10 25
M  V30 25 1 11 26
M  V30 26 1 11 27
M  V30 END BOND
M  V30 END CTAB
M  END
