
     RDKit          3D

  0  0  0  0  0  0  0  0  0  0999 V3000
M  V30 BEGIN CTAB
M  V30 COUNTS 33 35 0 0 0
M  V30 BEGIN ATOM
M  V30 1 O -1.65414 0.282132 2.14427 0
M  V30 2 C -2.41482 0.677934 1.0597 0 CFG=2
M  V30 3 C -2.77564 -0.529089 0.224197 0 CFG=2
M  V30 4 O -3.49084 -1.39221 1.05336 0
M  V30 5 C -1.61132 -1.22485 -0.368758 0 CFG=1
M  V30 6 N -1.85733 -1.44034 -1.80107 0
M  V30 7 C -0.320682 -0.504311 -0.169562 0
M  V30 8 C -0.228929 0.843316 0.108904 0
M  V30 9 C -1.52145 1.59404 0.209764 0 CFG=1
M  V30 10 N -2.10356 1.86899 -1.06646 0
M  V30 11 N 0.95784 1.46863 0.284396 0
M  V30 12 C 2.13601 0.823504 0.200525 0
M  V30 13 C 2.07722 -0.530126 -0.0778323 0
M  V30 14 C 0.872925 -1.19028 -0.261138 0
M  V30 15 C 3.28946 -1.19224 -0.163798 0
M  V30 16 C 4.50375 -0.559858 0.0142481 0
M  V30 17 C 4.51253 0.806588 0.293197 0
M  V30 18 C 3.32367 1.50117 0.386725 0
M  V30 19 H -1.31762 1.07851 2.62476 0
M  V30 20 H -3.34289 1.18584 1.33337 0
M  V30 21 H -3.49895 -0.216926 -0.573424 0
M  V30 22 H -3.45756 -2.32987 0.753588 0
M  V30 23 H -1.54999 -2.26665 0.0558769 0
M  V30 24 H -2.61281 -2.16154 -1.88772 0
M  V30 25 H -0.996456 -1.83947 -2.25328 0
M  V30 26 H -1.34591 2.53323 0.793182 0
M  V30 27 H -2.4264 2.87424 -1.15857 0
M  V30 28 H -1.50269 1.58774 -1.87565 0
M  V30 29 H 0.859396 -2.24814 -0.477364 0
M  V30 30 H 3.24826 -2.26029 -0.383219 0
M  V30 31 H 5.43723 -1.11925 -0.0620365 0
M  V30 32 H 5.47019 1.3018 0.432889 0
M  V30 33 H 3.34153 2.57777 0.606938 0
M  V30 END ATOM
M  V30 BEGIN BOND
M  V30 1 1 1 2
M  V30 2 1 2 3
M  V30 3 1 3 4
M  V30 4 1 3 5
M  V30 5 1 5 6
M  V30 6 1 5 7
M  V30 7 2 7 8
M  V30 8 1 8 9
M  V30 9 1 9 10
M  V30 10 1 8 11
M  V30 11 2 11 12
M  V30 12 1 12 13
M  V30 13 2 13 14
M  V30 14 1 13 15
M  V30 15 2 15 16
M  V30 16 1 16 17
M  V30 17 2 17 18
M  V30 18 1 9 2
M  V30 19 1 18 12
M  V30 20 1 14 7
M  V30 21 1 1 19
M  V30 22 1 2 20 CFG=1
M  V30 23 1 3 21 CFG=3
M  V30 24 1 4 22
M  V30 25 1 5 23 CFG=1
M  V30 26 1 6 24
M  V30 27 1 6 25
M  V30 28 1 9 26 CFG=1
M  V30 29 1 10 27
M  V30 30 1 10 28
M  V30 31 1 14 29
M  V30 32 1 15 30
M  V30 33 1 16 31
M  V30 34 1 17 32
M  V30 35 1 18 33
M  V30 END BOND
M  V30 END CTAB
M  END
