
     RDKit          3D

  0  0  0  0  0  0  0  0  0  0999 V3000
M  V30 BEGIN CTAB
M  V30 COUNTS 33 35 0 0 0
M  V30 BEGIN ATOM
M  V30 1 O -5.16838 0.279338 0.178788 0
M  V30 2 C -4.27383 -0.575565 -0.0426877 0
M  V30 3 C -2.93708 -0.0429821 0.399327 0 CFG=1
M  V30 4 O -1.89581 -0.929775 0.187844 0
M  V30 5 C -0.779559 -0.108926 0.470367 0 CFG=2
M  V30 6 C -1.03545 1.07893 -0.393734 0
M  V30 7 C -2.55483 1.22133 -0.331126 0 CFG=1
M  V30 8 O -3.0131 1.26846 -1.6257 0
M  V30 9 F -0.524543 2.25998 0.136656 0
M  V30 10 N 0.420661 -0.829889 0.146528 0
M  V30 11 C 0.520467 -2.14063 -0.0721709 0
M  V30 12 N 1.79117 -2.46362 -0.347528 0
M  V30 13 C 2.53492 -1.36439 -0.311175 0
M  V30 14 C 1.66057 -0.323396 0.00382589 0
M  V30 15 N 2.19543 0.89624 0.0957652 0
M  V30 16 C 3.47876 1.19209 -0.0869531 0
M  V30 17 N 4.01339 2.50415 0.0191877 0
M  V30 18 N 4.32402 0.167529 -0.394265 0
M  V30 19 C 3.85762 -1.10485 -0.50646 0
M  V30 20 N 4.76578 -2.13707 -0.826119 0
M  V30 21 H -5.64705 0.602228 0.658262 0
M  V30 22 H -4.26863 -0.846805 -1.11777 0
M  V30 23 H -4.48462 -1.47233 0.588752 0
M  V30 24 H -3.00295 0.139718 1.49248 0
M  V30 25 H -0.810924 0.192572 1.53703 0
M  V30 26 H -0.667995 0.988251 -1.42556 0
M  V30 27 H -2.87114 2.06937 0.290797 0
M  V30 28 H -3.99035 1.4007 -1.70093 0
M  V30 29 H -0.282193 -2.8874 -0.0440354 0
M  V30 30 H 3.53141 3.25301 0.563106 0
M  V30 31 H 4.91677 2.74325 -0.456385 0
M  V30 32 H 5.07306 -2.7862 -0.0952656 0
M  V30 33 H 5.12441 -2.24334 -1.7955 0
M  V30 END ATOM
M  V30 BEGIN BOND
M  V30 1 1 1 2
M  V30 2 1 2 3
M  V30 3 1 3 4
M  V30 4 1 4 5
M  V30 5 1 5 6
M  V30 6 1 6 7
M  V30 7 1 7 8
M  V30 8 1 6 9
M  V30 9 1 5 10
M  V30 10 1 10 11
M  V30 11 2 11 12
M  V30 12 1 12 13
M  V30 13 2 13 14
M  V30 14 1 14 15
M  V30 15 2 15 16
M  V30 16 1 16 17
M  V30 17 1 16 18
M  V30 18 2 18 19
M  V30 19 1 19 20
M  V30 20 1 7 3
M  V30 21 1 14 10
M  V30 22 1 19 13
M  V30 23 1 1 21
M  V30 24 1 2 22
M  V30 25 1 2 23
M  V30 26 1 3 24 CFG=1
M  V30 27 1 5 25 CFG=1
M  V30 28 1 6 26
M  V30 29 1 7 27 CFG=1
M  V30 30 1 8 28
M  V30 31 1 11 29
M  V30 32 1 17 30
M  V30 33 1 17 31
M  V30 34 1 20 32
M  V30 35 1 20 33
M  V30 END BOND
M  V30 END CTAB
M  END
