
     RDKit          3D

  0  0  0  0  0  0  0  0  0  0999 V3000
M  V30 BEGIN CTAB
M  V30 COUNTS 18 18 0 0 0
M  V30 BEGIN ATOM
M  V30 1 C -2.39823 -0.822293 0.159602 0
M  V30 2 C -1.47272 0.3427 -0.0670075 0 CFG=2
M  V30 3 C -0.0541084 -0.0791047 -0.0566625 0
M  V30 4 N 0.486796 -1.31025 -0.09235 0
M  V30 5 N 1.80979 -1.21969 -0.0647832 0
M  V30 6 C 2.12067 0.088118 -0.0106699 0
M  V30 7 N 0.970684 0.791499 -0.00567354 0
M  V30 8 N 3.43041 0.641807 0.0337435 0
M  V30 9 N -1.65517 1.3582 0.929539 0
M  V30 10 H -3.23686 -0.453732 0.785333 0
M  V30 11 H -2.8197 -1.21876 -0.770537 0
M  V30 12 H -1.88103 -1.63281 0.699675 0
M  V30 13 H -1.75885 0.795332 -1.04957 0
M  V30 14 H 2.50391 -2.00178 -0.0810715 0
M  V30 15 H 3.5659 1.59037 -0.377216 0
M  V30 16 H 4.17471 0.0820842 0.466667 0
M  V30 17 H -2.51932 1.88913 0.874475 0
M  V30 18 H -1.26688 1.15919 1.84683 0
M  V30 END ATOM
M  V30 BEGIN BOND
M  V30 1 1 1 2
M  V30 2 1 2 3
M  V30 3 2 3 4
M  V30 4 1 4 5
M  V30 5 1 5 6
M  V30 6 2 6 7
M  V30 7 1 6 8
M  V30 8 1 2 9
M  V30 9 1 7 3
M  V30 10 1 1 10
M  V30 11 1 1 11
M  V30 12 1 1 12
M  V30 13 1 2 13 CFG=3
M  V30 14 1 5 14
M  V30 15 1 8 15
M  V30 16 1 8 16
M  V30 17 1 9 17
M  V30 18 1 9 18
M  V30 END BOND
M  V30 END CTAB
M  END
