
     RDKit          3D

  0  0  0  0  0  0  0  0  0  0999 V3000
M  V30 BEGIN CTAB
M  V30 COUNTS 35 36 0 0 0
M  V30 BEGIN ATOM
M  V30 1 C 3.29038 -3.25605 0.243105 0
M  V30 2 O 2.91214 -2.11193 -0.248497 0
M  V30 3 C 2.59282 -1.04355 -0.902595 0
M  V30 4 C 2.801 -0.989787 -2.29444 0
M  V30 5 C 2.47106 0.120449 -3.00889 0
M  V30 6 C 1.9243 1.21507 -2.3671 0
M  V30 7 C 1.71934 1.1656 -1.00026 0
M  V30 8 C 2.02857 0.0842379 -0.234133 0
M  V30 9 N 1.84106 0.0138348 1.15778 0
M  V30 10 S 0.723973 0.933185 2.03876 0
M  V30 11 O 0.82764 0.573654 3.51297 0
M  V30 12 O 0.956391 2.43222 1.87743 0
M  V30 13 C -0.917332 0.632274 1.57638 0
M  V30 14 C -1.67878 -0.387891 2.11699 0
M  V30 15 C -2.98153 -0.548164 1.69565 0
M  V30 16 C -3.55264 0.282106 0.745181 0
M  V30 17 C -2.82167 1.29203 0.201184 0
M  V30 18 C -1.5211 1.43323 0.639198 0
M  V30 19 N -3.39697 2.14645 -0.774438 0
M  V30 20 N -4.89268 0.116927 0.311827 0
M  V30 21 H 2.60645 -3.62214 1.07815 0
M  V30 22 H 4.31383 -3.26522 0.745953 0
M  V30 23 H 3.34175 -4.06553 -0.542227 0
M  V30 24 H 3.23662 -1.86308 -2.79067 0
M  V30 25 H 2.62296 0.184562 -4.08789 0
M  V30 26 H 1.65202 2.10579 -2.90965 0
M  V30 27 H 1.29686 2.04998 -0.518559 0
M  V30 28 H 2.46046 -0.676111 1.68335 0
M  V30 29 H -1.24789 -1.02889 2.84466 0
M  V30 30 H -3.61508 -1.32323 2.08857 0
M  V30 31 H -0.975446 2.26994 0.172737 0
M  V30 32 H -2.82399 2.55225 -1.54645 0
M  V30 33 H -4.39517 2.37222 -0.722349 0
M  V30 34 H -5.25961 -0.723305 -0.169636 0
M  V30 35 H -5.53972 0.92885 0.510295 0
M  V30 END ATOM
M  V30 BEGIN BOND
M  V30 1 1 1 2
M  V30 2 1 2 3
M  V30 3 2 3 4
M  V30 4 1 4 5
M  V30 5 2 5 6
M  V30 6 1 6 7
M  V30 7 2 7 8
M  V30 8 1 8 9
M  V30 9 1 9 10
M  V30 10 2 10 11
M  V30 11 2 10 12
M  V30 12 1 10 13
M  V30 13 2 13 14
M  V30 14 1 14 15
M  V30 15 2 15 16
M  V30 16 1 16 17
M  V30 17 2 17 18
M  V30 18 1 17 19
M  V30 19 1 16 20
M  V30 20 1 8 3
M  V30 21 1 18 13
M  V30 22 1 1 21
M  V30 23 1 1 22
M  V30 24 1 1 23
M  V30 25 1 4 24
M  V30 26 1 5 25
M  V30 27 1 6 26
M  V30 28 1 7 27
M  V30 29 1 9 28
M  V30 30 1 14 29
M  V30 31 1 15 30
M  V30 32 1 18 31
M  V30 33 1 19 32
M  V30 34 1 19 33
M  V30 35 1 20 34
M  V30 36 1 20 35
M  V30 END BOND
M  V30 END CTAB
M  END
