
     RDKit          3D

  0  0  0  0  0  0  0  0  0  0999 V3000
M  V30 BEGIN CTAB
M  V30 COUNTS 51 50 0 0 0
M  V30 BEGIN ATOM
M  V30 1 N -5.04643 -4.70772 -0.0904245 0
M  V30 2 C -3.90015 -3.8404 0.232912 0
M  V30 3 C -4.40749 -2.58585 0.895321 0
M  V30 4 N -3.38498 -1.65113 1.25788 0
M  V30 5 C -2.50263 -1.03099 0.31838 0
M  V30 6 O -2.6677 -1.35386 -0.883715 0
M  V30 7 C -1.46644 -0.069512 0.764762 0
M  V30 8 C -0.721078 0.467565 -0.43267 0
M  V30 9 N 0.300637 1.4051 -0.0625772 0
M  V30 10 C -0.276483 2.60197 0.464631 0
M  V30 11 C -1.03472 3.43025 -0.552317 0
M  V30 12 C -1.59622 4.67743 0.124236 0
M  V30 13 N -2.3291 5.49326 -0.796539 0
M  V30 14 N -2.6668 6.64205 -0.523211 0 CHG=1
M  V30 15 N -2.71511 7.83898 -0.23673 0 CHG=-1
M  V30 16 C 1.23583 1.68194 -1.1206 0
M  V30 17 C 2.1309 0.557654 -1.50252 0
M  V30 18 C 2.99781 0.0553197 -0.404821 0
M  V30 19 O 2.95889 0.502937 0.754325 0
M  V30 20 N 3.90271 -0.98931 -0.740239 0
M  V30 21 C 4.76283 -1.50323 0.305237 0
M  V30 22 C 5.64616 -2.59681 -0.251023 0
M  V30 23 N 6.51194 -3.11249 0.782572 0
M  V30 24 H -5.80076 -4.48915 0.609796 0
M  V30 25 H -5.40356 -4.34892 -1.02205 0
M  V30 26 H -3.21792 -4.42093 0.916254 0
M  V30 27 H -3.36174 -3.68795 -0.704458 0
M  V30 28 H -5.08728 -2.09396 0.145668 0
M  V30 29 H -5.03209 -2.81829 1.77433 0
M  V30 30 H -3.23417 -1.37066 2.27263 0
M  V30 31 H -1.99489 0.775474 1.2698 0
M  V30 32 H -0.794072 -0.578235 1.48534 0
M  V30 33 H -1.47556 0.91821 -1.11645 0
M  V30 34 H -0.256877 -0.386492 -0.976814 0
M  V30 35 H 0.582006 3.24946 0.799907 0
M  V30 36 H -0.924981 2.46184 1.34462 0
M  V30 37 H -1.90922 2.89468 -0.971991 0
M  V30 38 H -0.425445 3.76849 -1.39181 0
M  V30 39 H -0.760653 5.29996 0.553718 0
M  V30 40 H -2.20474 4.3581 0.994197 0
M  V30 41 H 0.647523 1.95748 -2.02183 0
M  V30 42 H 1.86413 2.53578 -0.76005 0
M  V30 43 H 2.82541 0.952087 -2.28969 0
M  V30 44 H 1.56805 -0.30839 -1.90352 0
M  V30 45 H 3.96881 -1.39649 -1.70776 0
M  V30 46 H 5.4271 -0.705649 0.706522 0
M  V30 47 H 4.11031 -1.84937 1.12736 0
M  V30 48 H 6.19312 -2.19204 -1.10732 0
M  V30 49 H 4.97319 -3.41263 -0.570827 0
M  V30 50 H 7.50344 -2.87738 0.495209 0
M  V30 51 H 6.48849 -4.14819 0.87492 0
M  V30 END ATOM
M  V30 BEGIN BOND
M  V30 1 1 1 2
M  V30 2 1 2 3
M  V30 3 1 3 4
M  V30 4 1 4 5
M  V30 5 2 5 6
M  V30 6 1 5 7
M  V30 7 1 7 8
M  V30 8 1 8 9
M  V30 9 1 9 10
M  V30 10 1 10 11
M  V30 11 1 11 12
M  V30 12 1 12 13
M  V30 13 2 13 14 CFG=2
M  V30 14 2 14 15
M  V30 15 1 9 16
M  V30 16 1 16 17
M  V30 17 1 17 18
M  V30 18 2 18 19
M  V30 19 1 18 20
M  V30 20 1 20 21
M  V30 21 1 21 22
M  V30 22 1 22 23
M  V30 23 1 1 24
M  V30 24 1 1 25
M  V30 25 1 2 26
M  V30 26 1 2 27
M  V30 27 1 3 28
M  V30 28 1 3 29
M  V30 29 1 4 30
M  V30 30 1 7 31
M  V30 31 1 7 32
M  V30 32 1 8 33
M  V30 33 1 8 34
M  V30 34 1 10 35
M  V30 35 1 10 36
M  V30 36 1 11 37
M  V30 37 1 11 38
M  V30 38 1 12 39
M  V30 39 1 12 40
M  V30 40 1 16 41
M  V30 41 1 16 42
M  V30 42 1 17 43
M  V30 43 1 17 44
M  V30 44 1 20 45
M  V30 45 1 21 46
M  V30 46 1 21 47
M  V30 47 1 22 48
M  V30 48 1 22 49
M  V30 49 1 23 50
M  V30 50 1 23 51
M  V30 END BOND
M  V30 END CTAB
M  END
