
     RDKit          3D

  0  0  0  0  0  0  0  0  0  0999 V3000
M  V30 BEGIN CTAB
M  V30 COUNTS 24 24 0 0 0
M  V30 BEGIN ATOM
M  V30 1 N 4.0678 1.17822 -0.0342175 0
M  V30 2 C 3.83355 -0.195054 -0.223925 0
M  V30 3 S 5.21805 -1.11617 -0.40777 0
M  V30 4 N 2.6214 -0.879942 -0.277826 0
M  V30 5 C 1.29909 -0.402787 -0.154148 0
M  V30 6 C 0.242719 -1.27436 -0.475458 0
M  V30 7 C -1.05111 -0.816865 -0.342926 0
M  V30 8 C -1.36624 0.448671 0.0882017 0
M  V30 9 N -2.67411 0.926382 0.254043 0
M  V30 10 C -3.85531 0.197461 0.38677 0
M  V30 11 N -3.97137 -1.20255 0.390122 0
M  V30 12 S -5.3099 1.00622 0.56319 0
M  V30 13 C -0.271519 1.2815 0.396616 0
M  V30 14 C 1.01608 0.85187 0.273402 0
M  V30 15 H 4.52876 1.53951 0.834252 0
M  V30 16 H 3.79902 1.9023 -0.738274 0
M  V30 17 H 2.73225 -1.94947 -0.438009 0
M  V30 18 H 0.480546 -2.26888 -0.814631 0
M  V30 19 H -1.82931 -1.54726 -0.627708 0
M  V30 20 H -2.75936 1.99671 0.275426 0
M  V30 21 H -4.52341 -1.72093 -0.330383 0
M  V30 22 H -3.50122 -1.79872 1.12821 0
M  V30 23 H -0.50392 2.27402 0.735146 0
M  V30 24 H 1.77752 1.57013 0.544449 0
M  V30 END ATOM
M  V30 BEGIN BOND
M  V30 1 1 1 2
M  V30 2 2 2 3
M  V30 3 1 2 4
M  V30 4 1 4 5
M  V30 5 2 5 6
M  V30 6 1 6 7
M  V30 7 2 7 8
M  V30 8 1 8 9
M  V30 9 1 9 10
M  V30 10 1 10 11
M  V30 11 2 10 12
M  V30 12 1 8 13
M  V30 13 2 13 14
M  V30 14 1 14 5
M  V30 15 1 1 15
M  V30 16 1 1 16
M  V30 17 1 4 17
M  V30 18 1 6 18
M  V30 19 1 7 19
M  V30 20 1 9 20
M  V30 21 1 11 21
M  V30 22 1 11 22
M  V30 23 1 13 23
M  V30 24 1 14 24
M  V30 END BOND
M  V30 END CTAB
M  END
