
     RDKit          3D

  0  0  0  0  0  0  0  0  0  0999 V3000
M  V30 BEGIN CTAB
M  V30 COUNTS 24 24 0 0 0
M  V30 BEGIN ATOM
M  V30 1 C -3.27614 0.563353 -0.943893 0
M  V30 2 C -2.13861 -0.44933 -0.868079 0
M  V30 3 C -1.04066 0.0527852 0.0193737 0
M  V30 4 C -1.18452 0.0833742 1.38525 0
M  V30 5 S 0.334489 0.733109 1.88368 0
M  V30 6 C 1.02498 0.911227 0.312019 0
M  V30 7 N 0.0790722 0.476857 -0.454935 0
M  V30 8 C 2.3868 1.44111 -0.0519752 0
M  V30 9 S 3.50977 0.0733991 -0.0807677 0
M  V30 10 O 3.52325 -0.579272 1.27261 0
M  V30 11 O 4.88991 0.547175 -0.451407 0
M  V30 12 N 3.05146 -1.11985 -1.22615 0
M  V30 13 N -2.67533 -1.66658 -0.304918 0
M  V30 14 H -2.88247 1.56307 -0.649206 0
M  V30 15 H -4.09321 0.312754 -0.238951 0
M  V30 16 H -3.69195 0.607285 -1.97202 0
M  V30 17 H -1.77163 -0.59522 -1.89591 0
M  V30 18 H -2.05879 -0.23428 1.96184 0
M  V30 19 H 2.31495 1.96906 -0.998449 0
M  V30 20 H 2.72935 2.14013 0.738048 0
M  V30 21 H 2.34889 -1.78224 -0.880318 0
M  V30 22 H 3.83595 -1.52487 -1.7483 0
M  V30 23 H -1.87675 -2.16091 0.163898 0
M  V30 24 H -3.33884 -1.36213 0.465591 0
M  V30 END ATOM
M  V30 BEGIN BOND
M  V30 1 1 1 2
M  V30 2 1 2 3
M  V30 3 2 3 4
M  V30 4 1 4 5
M  V30 5 1 5 6
M  V30 6 2 6 7
M  V30 7 1 6 8
M  V30 8 1 8 9
M  V30 9 2 9 10
M  V30 10 2 9 11
M  V30 11 1 9 12
M  V30 12 1 2 13
M  V30 13 1 7 3
M  V30 14 1 1 14
M  V30 15 1 1 15
M  V30 16 1 1 16
M  V30 17 1 2 17
M  V30 18 1 4 18
M  V30 19 1 8 19
M  V30 20 1 8 20
M  V30 21 1 12 21
M  V30 22 1 12 22
M  V30 23 1 13 23
M  V30 24 1 13 24
M  V30 END BOND
M  V30 END CTAB
M  END
