
     RDKit          3D

  0  0  0  0  0  0  0  0  0  0999 V3000
M  V30 BEGIN CTAB
M  V30 COUNTS 29 30 0 0 0
M  V30 BEGIN ATOM
M  V30 1 N -4.4738 0.472402 1.25637 0
M  V30 2 C -4.30016 0.186694 -0.103709 0
M  V30 3 S -5.56993 0.0100587 -1.12635 0
M  V30 4 C -2.95972 0.0218707 -0.724598 0
M  V30 5 S -2.46951 0.363963 -2.32336 0
M  V30 6 C -0.838576 -0.106326 -2.15951 0
M  V30 7 S 0.310154 -0.0537184 -3.35459 0
M  V30 8 N -0.724258 -0.508572 -0.88921 0
M  V30 9 C -1.81846 -0.442777 -0.147707 0
M  V30 10 N -1.82917 -0.851505 1.2552 0
M  V30 11 C 0.602083 -0.985589 -0.444469 0
M  V30 12 C 1.48109 0.054774 0.100006 0
M  V30 13 C 2.78638 -0.614629 0.500888 0
M  V30 14 C 3.7904 0.524777 0.460626 0
M  V30 15 C 3.07786 1.54227 -0.382503 0
M  V30 16 O 1.93414 0.952825 -0.859486 0
M  V30 17 H -5.11713 -0.094583 1.82493 0
M  V30 18 H -3.95892 1.2495 1.69054 0
M  V30 19 H -1.6865 -0.151874 2.00086 0
M  V30 20 H -1.97786 -1.83955 1.5385 0
M  V30 21 H 1.12951 -1.51888 -1.2585 0
M  V30 22 H 0.418172 -1.75643 0.346777 0
M  V30 23 H 1.12763 0.552852 1.02279 0
M  V30 24 H 2.68856 -0.991074 1.55509 0
M  V30 25 H 3.04793 -1.42848 -0.188894 0
M  V30 26 H 4.70427 0.135097 -0.0253297 0
M  V30 27 H 3.97254 0.96763 1.45063 0
M  V30 28 H 3.78579 1.83735 -1.19748 0
M  V30 29 H 2.8675 2.47193 0.18248 0
M  V30 END ATOM
M  V30 BEGIN BOND
M  V30 1 1 1 2
M  V30 2 2 2 3
M  V30 3 1 2 4
M  V30 4 1 4 5
M  V30 5 1 5 6
M  V30 6 2 6 7
M  V30 7 1 6 8
M  V30 8 1 8 9
M  V30 9 1 9 10
M  V30 10 1 8 11
M  V30 11 1 11 12
M  V30 12 1 12 13
M  V30 13 1 13 14
M  V30 14 1 14 15
M  V30 15 1 15 16
M  V30 16 2 9 4
M  V30 17 1 16 12
M  V30 18 1 1 17
M  V30 19 1 1 18
M  V30 20 1 10 19
M  V30 21 1 10 20
M  V30 22 1 11 21
M  V30 23 1 11 22
M  V30 24 1 12 23
M  V30 25 1 13 24
M  V30 26 1 13 25
M  V30 27 1 14 26
M  V30 28 1 14 27
M  V30 29 1 15 28
M  V30 30 1 15 29
M  V30 END BOND
M  V30 END CTAB
M  END
