
     RDKit          3D

  0  0  0  0  0  0  0  0  0  0999 V3000
M  V30 BEGIN CTAB
M  V30 COUNTS 30 30 0 0 0
M  V30 BEGIN ATOM
M  V30 1 C -3.30586 1.04815 -1.4766 0
M  V30 2 C -3.3453 -0.183396 -0.644846 0
M  V30 3 C -2.37974 -0.265557 0.472309 0
M  V30 4 C -0.954888 -0.226132 0.137373 0
M  V30 5 N -0.102433 -0.327906 1.19877 0
M  V30 6 C 1.21702 -0.324573 1.11157 0
M  V30 7 N 2.00209 -0.436426 2.28356 0
M  V30 8 C 1.80104 -0.209846 -0.145837 0
M  V30 9 C 0.9533 -0.10742 -1.2169 0
M  V30 10 O 1.45155 -0.0017674 -2.37163 0
M  V30 11 N -0.406136 -0.11695 -1.06346 0
M  V30 12 C 3.26454 -0.200779 -0.300172 0
M  V30 13 C 3.90282 1.104 0.0874995 0
M  V30 14 N -2.62111 -1.42422 1.31342 0
M  V30 15 H -3.27542 0.770677 -2.55956 0
M  V30 16 H -2.48635 1.74725 -1.21252 0
M  V30 17 H -4.24923 1.65426 -1.3754 0
M  V30 18 H -3.30986 -1.10081 -1.30354 0
M  V30 19 H -4.37476 -0.251224 -0.180746 0
M  V30 20 H -2.59208 0.615081 1.14989 0
M  V30 21 H 2.44852 0.408393 2.67629 0
M  V30 22 H 2.14052 -1.34424 2.75625 0
M  V30 23 H -0.996864 -0.0447102 -1.89225 0
M  V30 24 H 3.68504 -1.00691 0.339811 0
M  V30 25 H 3.54682 -0.494597 -1.35037 0
M  V30 26 H 4.84771 0.895647 0.631934 0
M  V30 27 H 4.13782 1.74325 -0.792232 0
M  V30 28 H 3.23942 1.64528 0.77656 0
M  V30 29 H -2.25173 -2.24698 0.792787 0
M  V30 30 H -1.98644 -1.31755 2.15805 0
M  V30 END ATOM
M  V30 BEGIN BOND
M  V30 1 1 1 2
M  V30 2 1 2 3
M  V30 3 1 3 4
M  V30 4 2 4 5
M  V30 5 1 5 6
M  V30 6 1 6 7
M  V30 7 2 6 8
M  V30 8 1 8 9
M  V30 9 2 9 10
M  V30 10 1 9 11
M  V30 11 1 8 12
M  V30 12 1 12 13
M  V30 13 1 3 14
M  V30 14 1 11 4
M  V30 15 1 1 15
M  V30 16 1 1 16
M  V30 17 1 1 17
M  V30 18 1 2 18
M  V30 19 1 2 19
M  V30 20 1 3 20
M  V30 21 1 7 21
M  V30 22 1 7 22
M  V30 23 1 11 23
M  V30 24 1 12 24
M  V30 25 1 12 25
M  V30 26 1 13 26
M  V30 27 1 13 27
M  V30 28 1 13 28
M  V30 29 1 14 29
M  V30 30 1 14 30
M  V30 END BOND
M  V30 END CTAB
M  END
