
     RDKit          3D

  0  0  0  0  0  0  0  0  0  0999 V3000
M  V30 BEGIN CTAB
M  V30 COUNTS 23 23 0 0 0
M  V30 BEGIN ATOM
M  V30 1 N -2.95776 -1.16761 0.324208 0
M  V30 2 C -2.31272 0.131346 0.332681 0
M  V30 3 C -1.12206 0.105176 -0.619172 0 CFG=1
M  V30 4 C -0.44838 1.46089 -0.602184 0
M  V30 5 C 0.792861 1.11798 0.235716 0
M  V30 6 C 1.06118 -0.25372 -0.351075 0 CFG=1
M  V30 7 C 2.11267 -1.00955 0.402127 0
M  V30 8 N 3.38067 -0.320135 0.249391 0
M  V30 9 O -0.191806 -0.834255 -0.266965 0
M  V30 10 H -3.3734 -1.359 -0.60463 0
M  V30 11 H -3.6717 -1.21278 1.05816 0
M  V30 12 H -3.04944 0.88128 -0.0168268 0
M  V30 13 H -2.01846 0.407374 1.35702 0
M  V30 14 H -1.53076 -0.0934329 -1.6302 0
M  V30 15 H -1.04283 2.24222 -0.138168 0
M  V30 16 H -0.0496661 1.73061 -1.61125 0
M  V30 17 H 1.60218 1.82734 0.0902948 0
M  V30 18 H 0.459523 1.00228 1.28535 0
M  V30 19 H 1.31566 -0.127044 -1.40435 0
M  V30 20 H 2.20304 -2.0085 -0.0731109 0
M  V30 21 H 1.89211 -1.14325 1.45979 0
M  V30 22 H 3.54891 0.219464 1.12804 0
M  V30 23 H 3.40017 0.266612 -0.604849 0
M  V30 END ATOM
M  V30 BEGIN BOND
M  V30 1 1 1 2
M  V30 2 1 2 3
M  V30 3 1 3 4
M  V30 4 1 4 5
M  V30 5 1 5 6
M  V30 6 1 6 7
M  V30 7 1 7 8
M  V30 8 1 6 9
M  V30 9 1 9 3
M  V30 10 1 1 10
M  V30 11 1 1 11
M  V30 12 1 2 12
M  V30 13 1 2 13
M  V30 14 1 3 14 CFG=3
M  V30 15 1 4 15
M  V30 16 1 4 16
M  V30 17 1 5 17
M  V30 18 1 5 18
M  V30 19 1 6 19 CFG=3
M  V30 20 1 7 20
M  V30 21 1 7 21
M  V30 22 1 8 22
M  V30 23 1 8 23
M  V30 END BOND
M  V30 END CTAB
M  END
