
     RDKit          3D

  0  0  0  0  0  0  0  0  0  0999 V3000
M  V30 BEGIN CTAB
M  V30 COUNTS 17 16 0 0 0
M  V30 BEGIN ATOM
M  V30 1 O -2.56242 -0.859446 1.07674 0
M  V30 2 C -1.49714 -1.38066 1.62544 0
M  V30 3 N -0.296488 -1.03301 1.01697 0
M  V30 4 C -0.0819263 -0.19899 -0.108627 0
M  V30 5 N 1.09535 -0.450832 -0.800733 0
M  V30 6 C 2.22365 -0.692163 -1.46401 0
M  V30 7 O 3.42303 -0.268234 -1.33365 0
M  V30 8 N -0.277461 1.25139 0.220023 0
M  V30 9 C -1.15875 2.07258 -0.525261 0
M  V30 10 O -1.84018 1.74718 -1.48723 0
M  V30 11 H -1.65746 -2.01082 2.47092 0
M  V30 12 H 0.583115 -1.45965 1.47131 0
M  V30 13 H -1.00489 -0.338336 -0.804288 0
M  V30 14 H 1.77801 0.250149 0.143025 0
M  V30 15 H 2.22918 -1.41566 -2.35576 0
M  V30 16 H 0.249832 1.67303 1.01644 0
M  V30 17 H -1.20545 3.11347 -0.16131 0
M  V30 END ATOM
M  V30 BEGIN BOND
M  V30 1 2 1 2
M  V30 2 1 2 3
M  V30 3 1 3 4
M  V30 4 1 4 5
M  V30 5 1 5 6
M  V30 6 2 6 7
M  V30 7 1 4 8
M  V30 8 1 8 9
M  V30 9 2 9 10
M  V30 10 1 2 11
M  V30 11 1 3 12
M  V30 12 1 4 13
M  V30 13 1 5 14
M  V30 14 1 6 15
M  V30 15 1 8 16
M  V30 16 1 9 17
M  V30 END BOND
M  V30 END CTAB
M  END
