
     RDKit          3D

  0  0  0  0  0  0  0  0  0  0999 V3000
M  V30 BEGIN CTAB
M  V30 COUNTS 75 78 0 0 0
M  V30 BEGIN ATOM
M  V30 1 C -5.0679 1.03113 4.30071 0
M  V30 2 C -4.41044 0.271722 3.20747 0
M  V30 3 C -3.53658 0.922488 2.36542 0
M  V30 4 C -2.92325 0.197141 1.3396 0
M  V30 5 C -3.19507 -1.13871 1.18433 0
M  V30 6 C -4.0696 -1.79714 2.02433 0
M  V30 7 C -4.35636 -3.21887 1.85594 0
M  V30 8 O -3.7799 -3.82328 0.919907 0
M  V30 9 C -4.685 -1.0703 3.05345 0
M  V30 10 O -5.56806 -1.7212 3.90688 0
M  V30 11 C -1.97106 0.841253 0.404889 0
M  V30 12 C -1.76285 2.29769 0.829722 0
M  V30 13 C -0.662282 0.149891 0.31291 0
M  V30 14 C -0.370241 -0.875274 -0.555997 0
M  V30 15 C 0.870712 -1.47381 -0.578509 0
M  V30 16 C 1.8957 -1.07849 0.271508 0
M  V30 17 C 1.58205 -0.0512353 1.13235 0
M  V30 18 C 0.343121 0.554728 1.16321 0
M  V30 19 C 3.22203 -1.74479 0.218742 0
M  V30 20 C 3.47628 -2.32274 1.6195 0
M  V30 21 C 3.11624 -2.94719 -0.696056 0
M  V30 22 C 4.33546 -0.861821 -0.116998 0
M  V30 23 C 4.99751 -0.131227 0.877148 0
M  V30 24 C 6.05025 0.711589 0.579111 0
M  V30 25 C 6.7359 1.47972 1.6744 0
M  V30 26 C 6.4505 0.831107 -0.716804 0
M  V30 27 O 7.50737 1.67631 -1.02139 0
M  V30 28 C 5.83552 0.139613 -1.71523 0
M  V30 29 C 6.30915 0.309743 -3.07938 0
M  V30 30 O 7.25093 1.0602 -3.36588 0
M  V30 31 C 4.78759 -0.697715 -1.40917 0
M  V30 32 C -2.52003 0.955115 -0.976784 0
M  V30 33 C -1.68864 1.25392 -2.03338 0
M  V30 34 C -2.25537 1.34402 -3.28484 0
M  V30 35 C -1.33355 1.66829 -4.40951 0
M  V30 36 C -3.60677 1.14773 -3.50897 0
M  V30 37 O -4.10176 1.25783 -4.81266 0
M  V30 38 C -4.45601 0.847698 -2.46396 0
M  V30 39 C -5.8821 0.633384 -2.65079 0
M  V30 40 O -6.58517 0.364868 -1.65093 0
M  V30 41 C -3.86524 0.760644 -1.20569 0
M  V30 42 H -4.96572 2.12403 4.16131 0
M  V30 43 H -6.16357 0.821015 4.25538 0
M  V30 44 H -4.7367 0.687456 5.30819 0
M  V30 45 H -3.32696 1.96527 2.48595 0
M  V30 46 H -2.74326 -1.74395 0.401524 0
M  V30 47 H -5.02966 -3.75459 2.49221 0
M  V30 48 H -6.0039 -1.186 4.64309 0
M  V30 49 H -2.73767 2.8237 0.613466 0
M  V30 50 H -1.03927 2.75661 0.0984724 0
M  V30 51 H -1.46499 2.41909 1.86513 0
M  V30 52 H -1.14202 -1.20637 -1.23366 0
M  V30 53 H 1.09187 -2.29488 -1.27933 0
M  V30 54 H 2.38837 0.269609 1.8088 0
M  V30 55 H 0.240854 1.35499 1.89898 0
M  V30 56 H 4.50952 -2.66333 1.74077 0
M  V30 57 H 3.17103 -1.52795 2.32908 0
M  V30 58 H 2.72821 -3.15216 1.76277 0
M  V30 59 H 3.02743 -2.6966 -1.75087 0
M  V30 60 H 2.32213 -3.60488 -0.303098 0
M  V30 61 H 4.07314 -3.52416 -0.557704 0
M  V30 62 H 4.72378 -0.190034 1.92092 0
M  V30 63 H 7.79233 1.153 1.7198 0
M  V30 64 H 6.64286 2.54878 1.46019 0
M  V30 65 H 6.26262 1.20991 2.64298 0
M  V30 66 H 7.98237 2.19961 -0.313549 0
M  V30 67 H 5.8172 -0.240404 -3.86048 0
M  V30 68 H 4.33341 -1.22383 -2.23922 0
M  V30 69 H -0.611888 1.41824 -1.89802 0
M  V30 70 H -1.89523 2.08605 -5.27213 0
M  V30 71 H -0.851629 0.73407 -4.76332 0
M  V30 72 H -0.538352 2.33002 -4.04546 0
M  V30 73 H -5.04525 1.13669 -5.07643 0
M  V30 74 H -6.35969 0.694826 -3.60671 0
M  V30 75 H -4.56445 0.522153 -0.397632 0
M  V30 END ATOM
M  V30 BEGIN BOND
M  V30 1 1 1 2
M  V30 2 2 2 3
M  V30 3 1 3 4
M  V30 4 2 4 5
M  V30 5 1 5 6
M  V30 6 1 6 7
M  V30 7 2 7 8
M  V30 8 2 6 9
M  V30 9 1 9 10
M  V30 10 1 4 11
M  V30 11 1 11 12
M  V30 12 1 11 13
M  V30 13 2 13 14
M  V30 14 1 14 15
M  V30 15 2 15 16
M  V30 16 1 16 17
M  V30 17 2 17 18
M  V30 18 1 16 19
M  V30 19 1 19 20
M  V30 20 1 19 21
M  V30 21 1 19 22
M  V30 22 2 22 23
M  V30 23 1 23 24
M  V30 24 1 24 25
M  V30 25 2 24 26
M  V30 26 1 26 27
M  V30 27 1 26 28
M  V30 28 1 28 29
M  V30 29 2 29 30
M  V30 30 2 28 31
M  V30 31 1 11 32
M  V30 32 2 32 33
M  V30 33 1 33 34
M  V30 34 1 34 35
M  V30 35 2 34 36
M  V30 36 1 36 37
M  V30 37 1 36 38
M  V30 38 1 38 39
M  V30 39 2 39 40
M  V30 40 2 38 41
M  V30 41 1 9 2
M  V30 42 1 18 13
M  V30 43 1 31 22
M  V30 44 1 41 32
M  V30 45 1 1 42
M  V30 46 1 1 43
M  V30 47 1 1 44
M  V30 48 1 3 45
M  V30 49 1 5 46
M  V30 50 1 7 47
M  V30 51 1 10 48
M  V30 52 1 12 49
M  V30 53 1 12 50
M  V30 54 1 12 51
M  V30 55 1 14 52
M  V30 56 1 15 53
M  V30 57 1 17 54
M  V30 58 1 18 55
M  V30 59 1 20 56
M  V30 60 1 20 57
M  V30 61 1 20 58
M  V30 62 1 21 59
M  V30 63 1 21 60
M  V30 64 1 21 61
M  V30 65 1 23 62
M  V30 66 1 25 63
M  V30 67 1 25 64
M  V30 68 1 25 65
M  V30 69 1 27 66
M  V30 70 1 29 67
M  V30 71 1 31 68
M  V30 72 1 33 69
M  V30 73 1 35 70
M  V30 74 1 35 71
M  V30 75 1 35 72
M  V30 76 1 37 73
M  V30 77 1 39 74
M  V30 78 1 41 75
M  V30 END BOND
M  V30 END CTAB
M  END
