
     RDKit          3D

  0  0  0  0  0  0  0  0  0  0999 V3000
M  V30 BEGIN CTAB
M  V30 COUNTS 35 36 0 0 0
M  V30 BEGIN ATOM
M  V30 1 O -4.23711 -3.08319 -1.21768 0
M  V30 2 C -3.63023 -3.37134 -0.453485 0
M  V30 3 O -2.73213 -2.49208 0.161864 0
M  V30 4 C -2.65182 -1.15366 -0.280528 0
M  V30 5 C -1.62575 -0.453141 0.542507 0 CFG=1
M  V30 6 O -0.405754 -1.06857 0.394526 0
M  V30 7 C 0.53391 -0.0645804 0.624354 0 CFG=2
M  V30 8 C 0.0307428 1.16821 -0.05236 0 CFG=2
M  V30 9 O 0.41413 2.35984 0.617376 0
M  V30 10 C 0.949718 3.40156 -0.126165 0
M  V30 11 O 1.07228 3.24112 -1.3713 0
M  V30 12 C -1.4866 0.986878 0.1036 0 CFG=2
M  V30 13 O -1.99854 1.88195 1.05882 0
M  V30 14 C -3.02653 2.73627 0.692881 0
M  V30 15 O -3.5059 2.72018 -0.481655 0
M  V30 16 N 1.87297 -0.438875 0.318074 0
M  V30 17 C 2.55176 -0.130078 -0.780012 0
M  V30 18 C 3.86022 -0.54159 -0.993104 0
M  V30 19 C 4.49078 -1.29804 -0.0404734 0
M  V30 20 O 5.67681 -1.66834 -0.23877 0
M  V30 21 N 3.79717 -1.60843 1.07185 0
M  V30 22 C 2.5301 -1.19409 1.24825 0
M  V30 23 O 1.96528 -1.53375 2.31835 0
M  V30 24 H -3.61636 -4.39093 -0.0360557 0
M  V30 25 H -3.66221 -0.681185 -0.14114 0
M  V30 26 H -2.40562 -1.14883 -1.36404 0
M  V30 27 H -1.99095 -0.460866 1.60503 0
M  V30 28 H 0.480596 0.137634 1.73498 0
M  V30 29 H 0.218902 1.23443 -1.12139 0
M  V30 30 H 1.26396 4.3428 0.327189 0
M  V30 31 H -2.01236 1.11007 -0.843458 0
M  V30 32 H -3.46369 3.45283 1.39284 0
M  V30 33 H 2.05803 0.464857 -1.53114 0
M  V30 34 H 4.38099 -0.270775 -1.89968 0
M  V30 35 H 4.30322 -2.1863 1.78113 0
M  V30 END ATOM
M  V30 BEGIN BOND
M  V30 1 2 1 2
M  V30 2 1 2 3
M  V30 3 1 3 4
M  V30 4 1 4 5
M  V30 5 1 5 6
M  V30 6 1 6 7
M  V30 7 1 7 8
M  V30 8 1 8 9
M  V30 9 1 9 10
M  V30 10 2 10 11
M  V30 11 1 8 12
M  V30 12 1 12 13
M  V30 13 1 13 14
M  V30 14 2 14 15
M  V30 15 1 7 16
M  V30 16 1 16 17
M  V30 17 2 17 18
M  V30 18 1 18 19
M  V30 19 2 19 20
M  V30 20 1 19 21
M  V30 21 1 21 22
M  V30 22 2 22 23
M  V30 23 1 12 5
M  V30 24 1 22 16
M  V30 25 1 2 24
M  V30 26 1 4 25
M  V30 27 1 4 26
M  V30 28 1 5 27 CFG=1
M  V30 29 1 7 28 CFG=1
M  V30 30 1 8 29 CFG=3
M  V30 31 1 10 30
M  V30 32 1 12 31 CFG=3
M  V30 33 1 14 32
M  V30 34 1 17 33
M  V30 35 1 18 34
M  V30 36 1 21 35
M  V30 END BOND
M  V30 END CTAB
M  END
