
     RDKit          3D

  0  0  0  0  0  0  0  0  0  0999 V3000
M  V30 BEGIN CTAB
M  V30 COUNTS 111 117 0 0 0
M  V30 BEGIN ATOM
M  V30 1 C 2.39893 3.94322 2.59605 0
M  V30 2 O 1.61305 4.31798 1.4632 0
M  V30 3 C 0.952743 3.30617 0.751673 0
M  V30 4 C 0.20112 3.66779 -0.332048 0
M  V30 5 O 0.121139 5.01208 -0.681966 0
M  V30 6 C -0.645981 5.45247 -1.79523 0
M  V30 7 C -0.557829 6.94817 -1.9345 0
M  V30 8 O -0.991684 7.69948 -0.886177 0
M  V30 9 C -2.1814 7.87572 -0.258486 0
M  V30 10 C -3.37091 7.26957 -0.596231 0
M  V30 11 C -4.49642 7.54307 0.135348 0
M  V30 12 C -4.48553 8.4129 1.20993 0
M  V30 13 C -5.68386 8.69878 1.98485 0
M  V30 14 O -5.62365 9.4847 2.93688 0
M  V30 15 C -3.3016 9.02244 1.55256 0
M  V30 16 C -2.17606 8.76142 0.837005 0
M  V30 17 C -0.449034 2.67989 -1.03428 0
M  V30 18 C -0.374233 1.34048 -0.690284 0
M  V30 19 C -1.12474 0.358014 -1.51314 0
M  V30 20 C -1.99689 -0.502238 -0.670598 0
M  V30 21 C -3.07032 0.103215 -0.0386301 0
M  V30 22 C -3.95033 -0.564591 0.763631 0
M  V30 23 O -5.02855 0.0630895 1.39342 0
M  V30 24 C -5.21687 1.45905 1.18924 0
M  V30 25 C -3.78164 -1.93554 0.975757 0
M  V30 26 O -4.67645 -2.5772 1.77767 0
M  V30 27 C -4.84094 -3.87274 2.16961 0
M  V30 28 C -5.15756 -4.80597 1.03864 0
M  V30 29 O -5.31515 -6.1467 1.52115 0
M  V30 30 C -5.60614 -7.12717 0.584623 0
M  V30 31 C -5.74119 -6.83961 -0.750327 0
M  V30 32 C -6.03132 -7.83131 -1.67434 0
M  V30 33 C -6.18479 -9.12938 -1.22775 0
M  V30 34 C -6.48482 -10.177 -2.18313 0
M  V30 35 O -6.59599 -9.89284 -3.38867 0
M  V30 36 C -6.05462 -9.44567 0.107786 0
M  V30 37 C -5.76325 -8.42904 1.01035 0
M  V30 38 C -2.72542 -2.53006 0.354815 0
M  V30 39 C -1.8079 -1.85564 -0.47709 0
M  V30 40 C -0.756988 -2.63319 -1.07998 0
M  V30 41 C 0.647452 -2.18167 -0.977422 0
M  V30 42 C 1.53357 -2.82787 -1.88434 0
M  V30 43 C 2.85347 -2.58505 -1.96894 0
M  V30 44 O 3.67876 -3.24304 -2.87297 0
M  V30 45 C 3.21658 -4.20907 -3.77012 0
M  V30 46 C 3.45276 -1.63476 -1.12478 0
M  V30 47 O 4.78192 -1.43901 -1.25557 0
M  V30 48 C 5.71377 -0.650518 -0.629632 0
M  V30 49 C 5.94306 -0.888095 0.828718 0
M  V30 50 O 6.90659 -0.0403777 1.33936 0
M  V30 51 C 8.23509 0.091517 1.10075 0
M  V30 52 C 8.88568 1.10889 1.79417 0
M  V30 53 C 10.2063 1.32968 1.63717 0
M  V30 54 C 10.9735 0.576102 0.798085 0
M  V30 55 C 12.4186 0.836911 0.640916 0
M  V30 56 O 12.9316 1.76992 1.29463 0
M  V30 57 C 10.3557 -0.4334 0.103688 0
M  V30 58 C 9.00066 -0.672253 0.255008 0
M  V30 59 C 2.60246 -1.00997 -0.251015 0
M  V30 60 C 1.21629 -1.2678 -0.164882 0
M  V30 61 C 0.561639 -0.418522 0.883098 0
M  V30 62 C 0.377217 0.973646 0.394067 0
M  V30 63 C 1.03552 1.98766 1.10253 0
M  V30 64 H 3.26414 3.31793 2.28582 0
M  V30 65 H 2.74549 4.83754 3.13074 0
M  V30 66 H 1.8118 3.32273 3.30389 0
M  V30 67 H -0.23451 5.02816 -2.74711 0
M  V30 68 H -1.69564 5.14791 -1.74932 0
M  V30 69 H 0.488142 7.27173 -2.19501 0
M  V30 70 H -1.13853 7.27513 -2.85648 0
M  V30 71 H -3.42613 6.6009 -1.42651 0
M  V30 72 H -5.43376 7.07409 -0.118795 0
M  V30 73 H -6.59959 8.20172 1.69089 0
M  V30 74 H -3.2917 9.71249 2.40399 0
M  V30 75 H -1.24157 9.23679 1.10052 0
M  V30 76 H -1.03729 2.99945 -1.88919 0
M  V30 77 H -1.8614 0.905003 -2.18227 0
M  V30 78 H -0.467845 -0.156732 -2.19858 0
M  V30 79 H -3.25948 1.18037 -0.164076 0
M  V30 80 H -5.38075 1.68431 0.112693 0
M  V30 81 H -6.09142 1.75803 1.79899 0
M  V30 82 H -4.27601 1.94442 1.53213 0
M  V30 83 H -5.67197 -3.96497 2.93009 0
M  V30 84 H -3.8825 -4.24881 2.63609 0
M  V30 85 H -6.14046 -4.47558 0.586946 0
M  V30 86 H -4.39763 -4.85121 0.275279 0
M  V30 87 H -5.62199 -5.82568 -1.10128 0
M  V30 88 H -6.13008 -7.56943 -2.71388 0
M  V30 89 H -6.60765 -11.1887 -1.83715 0
M  V30 90 H -6.18074 -10.4709 0.421823 0
M  V30 91 H -5.67098 -8.72813 2.04887 0
M  V30 92 H -2.55659 -3.58528 0.518761 0
M  V30 93 H -0.991418 -2.87767 -2.1801 0
M  V30 94 H -0.781127 -3.68353 -0.64503 0
M  V30 95 H 1.11564 -3.57071 -2.55677 0
M  V30 96 H 4.12404 -4.70448 -4.20928 0
M  V30 97 H 2.59906 -3.72777 -4.54145 0
M  V30 98 H 2.62282 -4.96596 -3.21993 0
M  V30 99 H 5.46832 0.45434 -0.714965 0
M  V30 100 H 6.66891 -0.742512 -1.17422 0
M  V30 101 H 6.35795 -1.94095 1.003 0
M  V30 102 H 5.03199 -0.75344 1.4505 0
M  V30 103 H 8.32122 1.72678 2.46491 0
M  V30 104 H 10.7 2.14191 2.19719 0
M  V30 105 H 13.0098 0.242817 -0.0145169 0
M  V30 106 H 10.9432 -1.05299 -0.574407 0
M  V30 107 H 8.57649 -1.49197 -0.297056 0
M  V30 108 H 3.04836 -0.266285 0.394376 0
M  V30 109 H 1.28627 -0.404312 1.77827 0
M  V30 110 H -0.323016 -0.863056 1.35027 0
M  V30 111 H 1.64304 1.74983 1.96882 0
M  V30 END ATOM
M  V30 BEGIN BOND
M  V30 1 1 1 2
M  V30 2 1 2 3
M  V30 3 2 3 4
M  V30 4 1 4 5
M  V30 5 1 5 6
M  V30 6 1 6 7
M  V30 7 1 7 8
M  V30 8 1 8 9
M  V30 9 2 9 10
M  V30 10 1 10 11
M  V30 11 2 11 12
M  V30 12 1 12 13
M  V30 13 2 13 14
M  V30 14 1 12 15
M  V30 15 2 15 16
M  V30 16 1 4 17
M  V30 17 2 17 18
M  V30 18 1 18 19
M  V30 19 1 19 20
M  V30 20 2 20 21
M  V30 21 1 21 22
M  V30 22 1 22 23
M  V30 23 1 23 24
M  V30 24 2 22 25
M  V30 25 1 25 26
M  V30 26 1 26 27
M  V30 27 1 27 28
M  V30 28 1 28 29
M  V30 29 1 29 30
M  V30 30 2 30 31
M  V30 31 1 31 32
M  V30 32 2 32 33
M  V30 33 1 33 34
M  V30 34 2 34 35
M  V30 35 1 33 36
M  V30 36 2 36 37
M  V30 37 1 25 38
M  V30 38 2 38 39
M  V30 39 1 39 40
M  V30 40 1 40 41
M  V30 41 2 41 42
M  V30 42 1 42 43
M  V30 43 1 43 44
M  V30 44 1 44 45
M  V30 45 2 43 46
M  V30 46 1 46 47
M  V30 47 1 47 48
M  V30 48 1 48 49
M  V30 49 1 49 50
M  V30 50 1 50 51
M  V30 51 2 51 52
M  V30 52 1 52 53
M  V30 53 2 53 54
M  V30 54 1 54 55
M  V30 55 2 55 56
M  V30 56 1 54 57
M  V30 57 2 57 58
M  V30 58 1 46 59
M  V30 59 2 59 60
M  V30 60 1 60 61
M  V30 61 1 61 62
M  V30 62 2 62 63
M  V30 63 1 63 3
M  V30 64 1 16 9
M  V30 65 1 62 18
M  V30 66 1 39 20
M  V30 67 1 60 41
M  V30 68 1 37 30
M  V30 69 1 58 51
M  V30 70 1 1 64
M  V30 71 1 1 65
M  V30 72 1 1 66
M  V30 73 1 6 67
M  V30 74 1 6 68
M  V30 75 1 7 69
M  V30 76 1 7 70
M  V30 77 1 10 71
M  V30 78 1 11 72
M  V30 79 1 13 73
M  V30 80 1 15 74
M  V30 81 1 16 75
M  V30 82 1 17 76
M  V30 83 1 19 77
M  V30 84 1 19 78
M  V30 85 1 21 79
M  V30 86 1 24 80
M  V30 87 1 24 81
M  V30 88 1 24 82
M  V30 89 1 27 83
M  V30 90 1 27 84
M  V30 91 1 28 85
M  V30 92 1 28 86
M  V30 93 1 31 87
M  V30 94 1 32 88
M  V30 95 1 34 89
M  V30 96 1 36 90
M  V30 97 1 37 91
M  V30 98 1 38 92
M  V30 99 1 40 93
M  V30 100 1 40 94
M  V30 101 1 42 95
M  V30 102 1 45 96
M  V30 103 1 45 97
M  V30 104 1 45 98
M  V30 105 1 48 99
M  V30 106 1 48 100
M  V30 107 1 49 101
M  V30 108 1 49 102
M  V30 109 1 52 103
M  V30 110 1 53 104
M  V30 111 1 55 105
M  V30 112 1 57 106
M  V30 113 1 58 107
M  V30 114 1 59 108
M  V30 115 1 61 109
M  V30 116 1 61 110
M  V30 117 1 63 111
M  V30 END BOND
M  V30 END CTAB
M  END
