
     RDKit          3D

  0  0  0  0  0  0  0  0  0  0999 V3000
M  V30 BEGIN CTAB
M  V30 COUNTS 44 46 0 0 0
M  V30 BEGIN ATOM
M  V30 1 O -1.92035 -7.16151 -0.300616 0
M  V30 2 C -2.51044 -6.12977 0.0466437 0
M  V30 3 C -1.8422 -4.83378 0.113537 0
M  V30 4 C -2.54593 -3.70858 0.508052 0
M  V30 5 C -1.92482 -2.49136 0.572576 0
M  V30 6 C -0.599429 -2.38947 0.244281 0
M  V30 7 O 0.0272239 -1.13747 0.313844 0
M  V30 8 P 0.0179805 -0.128407 -1.09182 0
M  V30 9 O -1.03033 -0.548091 -2.07106 0
M  V30 10 O 1.5512 -0.386659 -1.86026 0
M  V30 11 C 2.66326 0.0755213 -1.12772 0
M  V30 12 C 3.31315 -0.739143 -0.229765 0
M  V30 13 C 4.38663 -0.28053 0.471967 0
M  V30 14 C 4.86701 1.00241 0.319172 0
M  V30 15 C 6.01901 1.48384 1.07688 0
M  V30 16 O 6.43314 2.64024 0.92332 0
M  V30 17 C 4.22011 1.82309 -0.578882 0
M  V30 18 C 3.13151 1.36297 -1.29264 0
M  V30 19 O -0.0551948 1.47403 -0.616242 0
M  V30 20 C -1.17062 2.21977 -0.3587 0
M  V30 21 C -2.4639 1.79416 -0.441042 0
M  V30 22 C -3.53271 2.63068 -0.158254 0
M  V30 23 C -3.32652 3.94044 0.221544 0
M  V30 24 C -4.45311 4.81456 0.517356 0
M  V30 25 O -5.61747 4.39454 0.432329 0
M  V30 26 C -2.02599 4.3922 0.311364 0
M  V30 27 C -0.97396 3.5468 0.0265181 0
M  V30 28 C 0.0961143 -3.50882 -0.146994 0
M  V30 29 C -0.507752 -4.72172 -0.215228 0
M  V30 30 H -3.56021 -6.20178 0.308258 0
M  V30 31 H -3.60049 -3.86593 0.755023 0
M  V30 32 H -2.48578 -1.6173 0.882783 0
M  V30 33 H 2.95094 -1.74671 -0.097123 0
M  V30 34 H 4.92472 -0.912156 1.19688 0
M  V30 35 H 6.5212 0.838792 1.77751 0
M  V30 36 H 4.59238 2.84383 -0.708781 0
M  V30 37 H 2.62999 2.02528 -2.00017 0
M  V30 38 H -2.63948 0.761528 -0.74004 0
M  V30 39 H -4.56789 2.27878 -0.227478 0
M  V30 40 H -4.27858 5.83905 0.813994 0
M  V30 41 H -1.88521 5.42864 0.612659 0
M  V30 42 H 0.023425 3.95581 0.11387 0
M  V30 43 H 1.14562 -3.42129 -0.405675 0
M  V30 44 H 0.00375289 -5.63648 -0.520081 0
M  V30 END ATOM
M  V30 BEGIN BOND
M  V30 1 2 1 2
M  V30 2 1 2 3
M  V30 3 2 3 4
M  V30 4 1 4 5
M  V30 5 2 5 6
M  V30 6 1 6 7
M  V30 7 1 7 8
M  V30 8 2 8 9
M  V30 9 1 8 10
M  V30 10 1 10 11
M  V30 11 2 11 12
M  V30 12 1 12 13
M  V30 13 2 13 14
M  V30 14 1 14 15
M  V30 15 2 15 16
M  V30 16 1 14 17
M  V30 17 2 17 18
M  V30 18 1 8 19
M  V30 19 1 19 20
M  V30 20 2 20 21
M  V30 21 1 21 22
M  V30 22 2 22 23
M  V30 23 1 23 24
M  V30 24 2 24 25
M  V30 25 1 23 26
M  V30 26 2 26 27
M  V30 27 1 6 28
M  V30 28 2 28 29
M  V30 29 1 29 3
M  V30 30 1 18 11
M  V30 31 1 27 20
M  V30 32 1 2 30
M  V30 33 1 4 31
M  V30 34 1 5 32
M  V30 35 1 12 33
M  V30 36 1 13 34
M  V30 37 1 15 35
M  V30 38 1 17 36
M  V30 39 1 18 37
M  V30 40 1 21 38
M  V30 41 1 22 39
M  V30 42 1 24 40
M  V30 43 1 26 41
M  V30 44 1 27 42
M  V30 45 1 28 43
M  V30 46 1 29 44
M  V30 END BOND
M  V30 END CTAB
M  END
