
     RDKit          3D

 54 57  0  0  0  0  0  0  0  0999 V2000
    3.2964    0.9733   -0.0171 O   0  0  0  0  0  0  0  0  0  0  0  0
    2.1366    1.3440   -0.1345 C   0  0  0  0  0  0  0  0  0  0  0  0
    0.9805    0.5405    0.3454 C   0  0  0  0  0  0  0  0  0  0  0  0
   -0.1706    0.4770   -0.4642 C   0  0  0  0  0  0  0  0  0  0  0  0
   -0.2104    1.1677   -1.7253 C   0  0  0  0  0  0  0  0  0  0  0  0
   -0.2448    1.7435   -2.7791 C   0  0  0  0  0  0  0  0  0  0  0  0
   -0.2839    2.4275   -4.0340 C   0  0  0  0  0  0  0  0  0  0  0  0
   -1.4801    2.9878   -4.4887 C   0  0  0  0  0  0  0  0  0  0  0  0
   -1.5164    3.6551   -5.7146 C   0  0  0  0  0  0  0  0  0  0  0  0
   -0.3587    3.7636   -6.4851 C   0  0  0  0  0  0  0  0  0  0  0  0
    0.8363    3.2051   -6.0320 C   0  0  0  0  0  0  0  0  0  0  0  0
    0.8748    2.5366   -4.8066 C   0  0  0  0  0  0  0  0  0  0  0  0
   -1.2835   -0.2653   -0.0256 C   0  0  0  0  0  0  0  0  0  0  0  0
   -2.4950   -0.3056   -0.8863 C   0  0  0  0  0  0  0  0  0  0  0  0
   -3.6285   -0.2613   -0.4260 O   0  0  0  0  0  0  0  0  0  0  0  0
   -1.2481   -0.9526    1.2044 C   0  0  0  0  0  0  0  0  0  0  0  0
   -2.3484   -1.7859    1.6065 C   0  0  0  0  0  0  0  0  0  0  0  0
   -3.2711   -2.4831    1.9318 C   0  0  0  0  0  0  0  0  0  0  0  0
   -4.3895   -3.2951    2.2956 C   0  0  0  0  0  0  0  0  0  0  0  0
   -4.2256   -4.3659    3.1770 C   0  0  0  0  0  0  0  0  0  0  0  0
   -5.3234   -5.1551    3.5261 C   0  0  0  0  0  0  0  0  0  0  0  0
   -6.5826   -4.8745    2.9949 C   0  0  0  0  0  0  0  0  0  0  0  0
   -6.7466   -3.8054    2.1140 C   0  0  0  0  0  0  0  0  0  0  0  0
   -5.6508   -3.0148    1.7645 C   0  0  0  0  0  0  0  0  0  0  0  0
   -0.0922   -0.8738    2.0094 C   0  0  0  0  0  0  0  0  0  0  0  0
   -0.0909   -1.5935    3.3139 C   0  0  0  0  0  0  0  0  0  0  0  0
    0.9081   -2.1125    3.7929 O   0  0  0  0  0  0  0  0  0  0  0  0
    1.0255   -0.1224    1.5895 C   0  0  0  0  0  0  0  0  0  0  0  0
    2.1634    0.0404    2.4506 C   0  0  0  0  0  0  0  0  0  0  0  0
    3.1181    0.1828    3.1656 C   0  0  0  0  0  0  0  0  0  0  0  0
    4.2613    0.3492    4.0064 C   0  0  0  0  0  0  0  0  0  0  0  0
    5.3814    1.0352    3.5316 C   0  0  0  0  0  0  0  0  0  0  0  0
    6.4976    1.2017    4.3535 C   0  0  0  0  0  0  0  0  0  0  0  0
    6.4940    0.6823    5.6487 C   0  0  0  0  0  0  0  0  0  0  0  0
    5.3767   -0.0065    6.1225 C   0  0  0  0  0  0  0  0  0  0  0  0
    4.2602   -0.1748    5.3011 C   0  0  0  0  0  0  0  0  0  0  0  0
    1.8987    2.2924   -0.6454 H   0  0  0  0  0  0  0  0  0  0  0  0
   -2.3887    2.9109   -3.8965 H   0  0  0  0  0  0  0  0  0  0  0  0
   -2.4470    4.0918   -6.0688 H   0  0  0  0  0  0  0  0  0  0  0  0
   -0.3877    4.2838   -7.4395 H   0  0  0  0  0  0  0  0  0  0  0  0
    1.7388    3.2905   -6.6327 H   0  0  0  0  0  0  0  0  0  0  0  0
    1.8125    2.1056   -4.4640 H   0  0  0  0  0  0  0  0  0  0  0  0
   -2.3306   -0.3389   -1.9766 H   0  0  0  0  0  0  0  0  0  0  0  0
   -3.2480   -4.5940    3.5948 H   0  0  0  0  0  0  0  0  0  0  0  0
   -5.1965   -5.9890    4.2119 H   0  0  0  0  0  0  0  0  0  0  0  0
   -7.4364   -5.4901    3.2663 H   0  0  0  0  0  0  0  0  0  0  0  0
   -7.7274   -3.5865    1.6996 H   0  0  0  0  0  0  0  0  0  0  0  0
   -5.7839   -2.1821    1.0760 H   0  0  0  0  0  0  0  0  0  0  0  0
   -1.0592   -1.6689    3.8366 H   0  0  0  0  0  0  0  0  0  0  0  0
    5.3904    1.4361    2.5201 H   0  0  0  0  0  0  0  0  0  0  0  0
    7.3694    1.7334    3.9821 H   0  0  0  0  0  0  0  0  0  0  0  0
    7.3639    0.8106    6.2876 H   0  0  0  0  0  0  0  0  0  0  0  0
    5.3757   -0.4160    7.1293 H   0  0  0  0  0  0  0  0  0  0  0  0
    3.3946   -0.7205    5.6705 H   0  0  0  0  0  0  0  0  0  0  0  0
  1  2  2  0
  2  3  1  0
  3  4  2  0
  4  5  1  0
  5  6  3  0
  6  7  1  0
  7  8  2  0
  8  9  1  0
  9 10  2  0
 10 11  1  0
 11 12  2  0
  4 13  1  0
 13 14  1  0
 14 15  2  0
 13 16  2  0
 16 17  1  0
 17 18  3  0
 18 19  1  0
 19 20  2  0
 20 21  1  0
 21 22  2  0
 22 23  1  0
 23 24  2  0
 16 25  1  0
 25 26  1  0
 26 27  2  0
 25 28  2  0
 28 29  1  0
 29 30  3  0
 30 31  1  0
 31 32  2  0
 32 33  1  0
 33 34  2  0
 34 35  1  0
 35 36  2  0
 28  3  1  0
 12  7  1  0
 24 19  1  0
 36 31  1  0
  2 37  1  0
  8 38  1  0
  9 39  1  0
 10 40  1  0
 11 41  1  0
 12 42  1  0
 14 43  1  0
 20 44  1  0
 21 45  1  0
 22 46  1  0
 23 47  1  0
 24 48  1  0
 26 49  1  0
 32 50  1  0
 33 51  1  0
 34 52  1  0
 35 53  1  0
 36 54  1  0
M  END
