
     RDKit          3D

  0  0  0  0  0  0  0  0  0  0999 V3000
M  V30 BEGIN CTAB
M  V30 COUNTS 34 35 0 0 0
M  V30 BEGIN ATOM
M  V30 1 O -3.80246 -0.306968 -0.156401 0
M  V30 2 C -3.61149 -1.30104 -0.685584 0
M  V30 3 O -2.79193 -1.45192 -1.73141 0
M  V30 4 C -2.00486 -0.619985 -2.43019 0
M  V30 5 C -0.835417 0.0331973 -1.81414 0 CFG=2
M  V30 6 O 0.046435 -0.89407 -1.2038 0
M  V30 7 C 0.769976 -0.102767 -0.364357 0 CFG=1
M  V30 8 C -0.359925 0.635838 0.374952 0 CFG=1
M  V30 9 O 0.103666 1.64501 1.20075 0
M  V30 10 C -0.286188 1.84968 2.51789 0
M  V30 11 O -1.1293 1.06303 3.01877 0
M  V30 12 C -1.02003 1.19046 -0.913099 0 CFG=1
M  V30 13 O -0.101547 2.27044 -1.26727 0
M  V30 14 C -0.553946 3.56339 -1.35138 0
M  V30 15 O -1.75215 3.82015 -1.12534 0
M  V30 16 N 1.64808 -0.77063 0.533269 0
M  V30 17 N 2.0227 -0.251285 1.69015 0
M  V30 18 C 2.85937 -0.89448 2.53883 0
M  V30 19 C 3.3587 -2.13944 2.21671 0
M  V30 20 O 4.13654 -2.73349 3.0095 0
M  V30 21 N 2.97188 -2.65905 1.03818 0
M  V30 22 C 2.13752 -1.98561 0.222638 0
M  V30 23 O 1.79509 -2.51192 -0.884471 0
M  V30 24 H -4.18196 -2.16798 -0.246982 0
M  V30 25 H -2.60871 0.230644 -2.94317 0
M  V30 26 H -1.62354 -1.14768 -3.3837 0
M  V30 27 H -0.140897 0.428045 -2.66777 0
M  V30 28 H 1.26789 0.685935 -0.973874 0
M  V30 29 H -1.09309 -0.0541673 0.799793 0
M  V30 30 H 0.151578 2.67752 3.05875 0
M  V30 31 H -2.00147 1.59399 -0.755317 0
M  V30 32 H 0.120742 4.35352 -1.61109 0
M  V30 33 H 3.15246 -0.434862 3.49521 0
M  V30 34 H 3.35625 -3.61351 0.793954 0
M  V30 END ATOM
M  V30 BEGIN BOND
M  V30 1 2 1 2
M  V30 2 1 2 3
M  V30 3 1 3 4
M  V30 4 1 4 5
M  V30 5 1 5 6
M  V30 6 1 6 7
M  V30 7 1 7 8
M  V30 8 1 8 9
M  V30 9 1 9 10
M  V30 10 2 10 11
M  V30 11 1 8 12
M  V30 12 1 12 13
M  V30 13 1 13 14
M  V30 14 2 14 15
M  V30 15 1 7 16
M  V30 16 1 16 17
M  V30 17 2 17 18
M  V30 18 1 18 19
M  V30 19 2 19 20
M  V30 20 1 19 21
M  V30 21 1 21 22
M  V30 22 2 22 23
M  V30 23 1 12 5
M  V30 24 1 22 16
M  V30 25 1 2 24
M  V30 26 1 4 25
M  V30 27 1 4 26
M  V30 28 1 5 27 CFG=3
M  V30 29 1 7 28 CFG=3
M  V30 30 1 8 29 CFG=1
M  V30 31 1 10 30
M  V30 32 1 12 31 CFG=1
M  V30 33 1 14 32
M  V30 34 1 18 33
M  V30 35 1 21 34
M  V30 END BOND
M  V30 END CTAB
M  END
