
     RDKit          3D

  0  0  0  0  0  0  0  0  0  0999 V3000
M  V30 BEGIN CTAB
M  V30 COUNTS 76 78 0 0 0
M  V30 BEGIN ATOM
M  V30 1 O 4.31406 7.15754 1.06484 0
M  V30 2 C 4.01382 5.97743 1.30764 0
M  V30 3 N 2.85142 5.29333 0.962472 0
M  V30 4 C 1.74085 5.7972 0.24933 0
M  V30 5 C 1.65299 7.07776 -0.224108 0
M  V30 6 C 0.543134 7.54626 -0.925998 0
M  V30 7 C -0.470681 6.65093 -1.1217 0
M  V30 8 C -0.412945 5.35344 -0.656784 0
M  V30 9 C 0.66872 4.89173 0.027847 0
M  V30 10 O 0.74845 3.6244 0.495196 0
M  V30 11 C -0.0177004 2.50815 0.477926 0
M  V30 12 C -0.324456 1.87032 -0.843218 0
M  V30 13 C -1.18361 0.641766 -0.71108 0
M  V30 14 N -0.645255 -0.406438 0.0640742 0
M  V30 15 C 0.471207 -1.07776 -0.427696 0
M  V30 16 C 1.03066 -2.14276 0.479965 0
M  V30 17 C 2.23125 -2.82463 -0.148123 0
M  V30 18 O 3.30335 -2.04929 -0.453341 0
M  V30 19 C 4.17899 -1.281 0.190235 0
M  V30 20 C 5.1693 -0.624154 -0.582717 0
M  V30 21 N 5.18853 -0.801605 -1.97274 0
M  V30 22 C 6.09865 -0.229788 -2.85552 0
M  V30 23 O 7.05632 0.529344 -2.64188 0
M  V30 24 C 6.07653 0.166275 0.059637 0
M  V30 25 C 6.04955 0.340896 1.45612 0
M  V30 26 C 5.09369 -0.293671 2.19781 0
M  V30 27 C 4.16333 -1.10469 1.53947 0
M  V30 28 C -1.17243 -0.640086 1.34011 0
M  V30 29 C -2.60252 -1.1406 1.25685 0
M  V30 30 C -2.77166 -2.41466 0.506478 0
M  V30 31 O -4.11569 -2.78095 0.497973 0
M  V30 32 C -4.63242 -3.90775 -0.10305 0
M  V30 33 C -6.00741 -4.15738 -0.0357159 0
M  V30 34 N -6.79631 -3.21886 0.657746 0
M  V30 35 C -8.16955 -3.28564 0.841337 0
M  V30 36 O -8.94403 -4.16162 0.44048 0
M  V30 37 C -6.51739 -5.28023 -0.635061 0
M  V30 38 C -5.68757 -6.1733 -1.30824 0
M  V30 39 C -4.34471 -5.90267 -1.3579 0
M  V30 40 C -3.82693 -4.77917 -0.759343 0
M  V30 41 H 4.80589 5.43226 1.87759 0
M  V30 42 H 2.81548 4.27216 1.28255 0
M  V30 43 H 2.44573 7.80273 -0.0790614 0
M  V30 44 H 0.517676 8.57152 -1.28369 0
M  V30 45 H -1.36616 6.9762 -1.67038 0
M  V30 46 H -1.28436 4.69854 -0.843458 0
M  V30 47 H -0.974208 2.67229 1.07524 0
M  V30 48 H 0.554877 1.70178 1.05384 0
M  V30 49 H 0.652209 1.66032 -1.32663 0
M  V30 50 H -0.843314 2.57361 -1.50025 0
M  V30 51 H -1.51367 0.253434 -1.69448 0
M  V30 52 H -2.13301 0.990173 -0.206614 0
M  V30 53 H 0.170429 -1.61381 -1.37197 0
M  V30 54 H 1.35416 -0.403591 -0.649599 0
M  V30 55 H 0.285312 -2.96714 0.626171 0
M  V30 56 H 1.25267 -1.78823 1.50399 0
M  V30 57 H 2.55481 -3.61144 0.597391 0
M  V30 58 H 1.8341 -3.41524 -1.00329 0
M  V30 59 H 4.43953 -1.43514 -2.42669 0
M  V30 60 H 5.98304 -0.468416 -3.9482 0
M  V30 61 H 6.87333 0.715208 -0.415712 0
M  V30 62 H 6.77032 0.968074 1.961 0
M  V30 63 H 5.0793 -0.155842 3.26345 0
M  V30 64 H 3.4511 -1.57299 2.20837 0
M  V30 65 H -1.26147 0.375512 1.85034 0
M  V30 66 H -0.556911 -1.2471 1.99973 0
M  V30 67 H -3.25963 -0.37682 0.798482 0
M  V30 68 H -3.02028 -1.2976 2.29358 0
M  V30 69 H -2.47608 -2.21135 -0.563569 0
M  V30 70 H -2.09675 -3.22557 0.846174 0
M  V30 71 H -6.27758 -2.37561 1.08066 0
M  V30 72 H -8.62105 -2.44274 1.42198 0
M  V30 73 H -7.55884 -5.52075 -0.61546 0
M  V30 74 H -6.12121 -7.05326 -1.77213 0
M  V30 75 H -3.70892 -6.61317 -1.88951 0
M  V30 76 H -2.76806 -4.61609 -0.829179 0
M  V30 END ATOM
M  V30 BEGIN BOND
M  V30 1 2 1 2
M  V30 2 1 2 3
M  V30 3 1 3 4
M  V30 4 2 4 5
M  V30 5 1 5 6
M  V30 6 2 6 7
M  V30 7 1 7 8
M  V30 8 2 8 9
M  V30 9 1 9 10
M  V30 10 1 10 11
M  V30 11 1 11 12
M  V30 12 1 12 13
M  V30 13 1 13 14
M  V30 14 1 14 15
M  V30 15 1 15 16
M  V30 16 1 16 17
M  V30 17 1 17 18
M  V30 18 1 18 19
M  V30 19 2 19 20
M  V30 20 1 20 21
M  V30 21 1 21 22
M  V30 22 2 22 23
M  V30 23 1 20 24
M  V30 24 2 24 25
M  V30 25 1 25 26
M  V30 26 2 26 27
M  V30 27 1 14 28
M  V30 28 1 28 29
M  V30 29 1 29 30
M  V30 30 1 30 31
M  V30 31 1 31 32
M  V30 32 2 32 33
M  V30 33 1 33 34
M  V30 34 1 34 35
M  V30 35 2 35 36
M  V30 36 1 33 37
M  V30 37 2 37 38
M  V30 38 1 38 39
M  V30 39 2 39 40
M  V30 40 1 9 4
M  V30 41 1 27 19
M  V30 42 1 40 32
M  V30 43 1 2 41
M  V30 44 1 3 42
M  V30 45 1 5 43
M  V30 46 1 6 44
M  V30 47 1 7 45
M  V30 48 1 8 46
M  V30 49 1 11 47
M  V30 50 1 11 48
M  V30 51 1 12 49
M  V30 52 1 12 50
M  V30 53 1 13 51
M  V30 54 1 13 52
M  V30 55 1 15 53
M  V30 56 1 15 54
M  V30 57 1 16 55
M  V30 58 1 16 56
M  V30 59 1 17 57
M  V30 60 1 17 58
M  V30 61 1 21 59
M  V30 62 1 22 60
M  V30 63 1 24 61
M  V30 64 1 25 62
M  V30 65 1 26 63
M  V30 66 1 27 64
M  V30 67 1 28 65
M  V30 68 1 28 66
M  V30 69 1 29 67
M  V30 70 1 29 68
M  V30 71 1 30 69
M  V30 72 1 30 70
M  V30 73 1 34 71
M  V30 74 1 35 72
M  V30 75 1 37 73
M  V30 76 1 38 74
M  V30 77 1 39 75
M  V30 78 1 40 76
M  V30 END BOND
M  V30 END CTAB
M  END
