
     RDKit          3D

  0  0  0  0  0  0  0  0  0  0999 V3000
M  V30 BEGIN CTAB
M  V30 COUNTS 45 48 0 0 0
M  V30 BEGIN ATOM
M  V30 1 O -4.6942 6.13156 -1.02111 0
M  V30 2 C -3.46022 6.15906 -0.781052 0
M  V30 3 C -2.74631 4.8852 -0.604064 0
M  V30 4 C -1.39346 4.85614 -0.339147 0
M  V30 5 C -0.709498 3.66285 -0.170366 0
M  V30 6 C -1.3638 2.45771 -0.262443 0
M  V30 7 C -2.71399 2.4726 -0.526423 0
M  V30 8 C -3.40163 3.67567 -0.696211 0
M  V30 9 C -0.671397 1.18867 -0.0897667 0
M  V30 10 N -1.30226 0.00435867 -0.177956 0
M  V30 11 C -0.667845 -1.16917 -0.0194176 0
M  V30 12 N 0.653428 -1.18878 0.239137 0
M  V30 13 C 1.30152 -0.0146501 0.330989 0
M  V30 14 N 0.648914 1.15016 0.169156 0
M  V30 15 C 2.74856 0.0185511 0.612532 0
M  V30 16 C 3.43801 -1.1584 0.781983 0
M  V30 17 C 4.77745 -1.12399 1.04245 0
M  V30 18 C 5.46086 0.0719268 1.14044 0
M  V30 19 C 4.76011 1.24877 0.968794 0
M  V30 20 C 3.42247 1.20593 0.708926 0
M  V30 21 C 6.88388 0.0783913 1.41804 0
M  V30 22 O 7.49651 -1.01128 1.56989 0
M  V30 23 C -1.3632 -2.45139 -0.117358 0
M  V30 24 C -0.707419 -3.65235 0.0462046 0
M  V30 25 C -1.36977 -4.85876 -0.0475743 0
M  V30 26 C -2.72726 -4.91909 -0.310983 0
M  V30 27 C -3.37239 -3.71064 -0.472686 0
M  V30 28 C -2.71682 -2.50075 -0.380335 0
M  V30 29 C -3.42548 -6.1949 -0.409663 0
M  V30 30 O -2.83651 -7.29169 -0.262009 0
M  V30 31 H -2.89258 7.07099 -0.697195 0
M  V30 32 H -0.87275 5.81111 -0.265736 0
M  V30 33 H 0.367438 3.70871 0.0384838 0
M  V30 34 H -3.273 1.54695 -0.608165 0
M  V30 35 H -4.46457 3.66069 -0.903232 0
M  V30 36 H 2.92296 -2.09679 0.709223 0
M  V30 37 H 5.33173 -2.05567 1.17824 0
M  V30 38 H 5.31172 2.1825 1.04882 0
M  V30 39 H 2.88442 2.14091 0.576204 0
M  V30 40 H 7.44698 1.00464 1.50054 0
M  V30 41 H 0.352063 -3.62093 0.252239 0
M  V30 42 H -0.846445 -5.81578 0.0829071 0
M  V30 43 H -4.44143 -3.74301 -0.680566 0
M  V30 44 H -3.29214 -1.59608 -0.519441 0
M  V30 45 H -4.48267 -6.21994 -0.615605 0
M  V30 END ATOM
M  V30 BEGIN BOND
M  V30 1 2 1 2
M  V30 2 1 2 3
M  V30 3 2 3 4
M  V30 4 1 4 5
M  V30 5 2 5 6
M  V30 6 1 6 7
M  V30 7 2 7 8
M  V30 8 1 6 9
M  V30 9 2 9 10
M  V30 10 1 10 11
M  V30 11 2 11 12
M  V30 12 1 12 13
M  V30 13 2 13 14
M  V30 14 1 13 15
M  V30 15 2 15 16
M  V30 16 1 16 17
M  V30 17 2 17 18
M  V30 18 1 18 19
M  V30 19 2 19 20
M  V30 20 1 18 21
M  V30 21 2 21 22
M  V30 22 1 11 23
M  V30 23 2 23 24
M  V30 24 1 24 25
M  V30 25 2 25 26
M  V30 26 1 26 27
M  V30 27 2 27 28
M  V30 28 1 26 29
M  V30 29 2 29 30
M  V30 30 1 8 3
M  V30 31 1 14 9
M  V30 32 1 20 15
M  V30 33 1 28 23
M  V30 34 1 2 31
M  V30 35 1 4 32
M  V30 36 1 5 33
M  V30 37 1 7 34
M  V30 38 1 8 35
M  V30 39 1 16 36
M  V30 40 1 17 37
M  V30 41 1 19 38
M  V30 42 1 20 39
M  V30 43 1 21 40
M  V30 44 1 24 41
M  V30 45 1 25 42
M  V30 46 1 27 43
M  V30 47 1 28 44
M  V30 48 1 29 45
M  V30 END BOND
M  V30 END CTAB
M  END
