
     RDKit          3D

  0  0  0  0  0  0  0  0  0  0999 V3000
M  V30 BEGIN CTAB
M  V30 COUNTS 72 75 0 0 0
M  V30 BEGIN ATOM
M  V30 1 C 7.75155 0.300147 0.842274 0
M  V30 2 N 6.94715 -0.903788 0.92861 0
M  V30 3 C 7.5537 -2.16665 1.12163 0
M  V30 4 O 6.83334 -3.17993 1.18769 0
M  V30 5 C 5.53795 -0.751422 0.810751 0
M  V30 6 C 4.77346 -0.438167 1.89464 0
M  V30 7 C 3.4067 -0.278733 1.80617 0
M  V30 8 C 2.74234 -0.43379 0.589062 0
M  V30 9 N 1.3409 -0.267987 0.469411 0
M  V30 10 C 0.84209 1.00341 0.473183 0
M  V30 11 O 1.62362 1.98057 0.579577 0
M  V30 12 N -0.486607 1.21667 0.363426 0
M  V30 13 C -1.35494 0.199974 0.248197 0
M  V30 14 O -2.61438 0.416074 0.145259 0
M  V30 15 N -0.859177 -1.04545 0.245167 0
M  V30 16 C 0.458789 -1.27262 0.353412 0
M  V30 17 O 0.956326 -2.4534 0.353074 0
M  V30 18 C -1.75237 -2.12727 0.125133 0
M  V30 19 C -2.55596 -2.47004 1.1931 0
M  V30 20 C -3.41661 -3.53158 1.026 0
M  V30 21 C -3.47062 -4.23168 -0.180733 0
M  V30 22 C -2.64241 -3.84776 -1.2229 0
M  V30 23 C -1.7684 -2.78822 -1.08848 0
M  V30 24 C -0.893284 -2.41101 -2.23831 0
M  V30 25 N -4.38184 -5.29511 -0.257584 0
M  V30 26 C -5.10501 -5.62005 -1.46376 0
M  V30 27 C -4.60952 -6.08874 0.898319 0
M  V30 28 O -5.405 -7.04907 0.9018 0
M  V30 29 C -1.05773 2.52912 0.364255 0
M  V30 30 C -1.10582 3.1895 1.58829 0
M  V30 31 C -1.65559 4.45158 1.61497 0
M  V30 32 C -2.15548 5.0731 0.46992 0
M  V30 33 C -2.07501 4.36294 -0.702117 0
M  V30 34 C -1.53808 3.10106 -0.79274 0
M  V30 35 C -1.47416 2.37609 -2.08719 0
M  V30 36 N -2.7086 6.36974 0.562745 0
M  V30 37 C -2.27835 7.41026 -0.332582 0
M  V30 38 C -3.69009 6.65216 1.5351 0
M  V30 39 O -4.0656 5.72192 2.3234 0
M  V30 40 C 3.50538 -0.751037 -0.514209 0
M  V30 41 C 2.90646 -0.938881 -1.86492 0
M  V30 42 C 4.86964 -0.905061 -0.40205 0
M  V30 43 H 8.14189 0.487948 -0.17684 0
M  V30 44 H 8.60033 0.159447 1.54971 0
M  V30 45 H 7.19182 1.20072 1.14548 0
M  V30 46 H 8.64356 -2.21109 1.20671 0
M  V30 47 H 5.22896 -0.303952 2.87416 0
M  V30 48 H 2.8177 -0.033262 2.66267 0
M  V30 49 H -2.49917 -1.90966 2.1348 0
M  V30 50 H -4.04524 -3.79222 1.87307 0
M  V30 51 H -2.70181 -4.40518 -2.14664 0
M  V30 52 H -1.43122 -2.55648 -3.20631 0
M  V30 53 H -0.00567412 -3.10153 -2.30506 0
M  V30 54 H -0.592965 -1.35772 -2.21043 0
M  V30 55 H -5.46612 -6.65171 -1.41246 0
M  V30 56 H -5.99913 -4.94127 -1.53155 0
M  V30 57 H -4.49234 -5.50816 -2.38448 0
M  V30 58 H -4.095 -5.89309 1.84327 0
M  V30 59 H -0.72198 2.72121 2.48679 0
M  V30 60 H -1.71039 4.99566 2.54638 0
M  V30 61 H -2.45329 4.81574 -1.60776 0
M  V30 62 H -2.51466 1.99577 -2.28767 0
M  V30 63 H -1.2176 3.06151 -2.92147 0
M  V30 64 H -0.816466 1.50815 -2.01995 0
M  V30 65 H -2.40269 7.09553 -1.40844 0
M  V30 66 H -1.23299 7.73646 -0.126086 0
M  V30 67 H -2.89567 8.33138 -0.239971 0
M  V30 68 H -4.15513 7.60771 1.66659 0
M  V30 69 H 3.58382 -0.447175 -2.59771 0
M  V30 70 H 1.87817 -0.533584 -1.91225 0
M  V30 71 H 2.94875 -2.02519 -2.10468 0
M  V30 72 H 5.48577 -1.15285 -1.25685 0
M  V30 END ATOM
M  V30 BEGIN BOND
M  V30 1 1 1 2
M  V30 2 1 2 3
M  V30 3 2 3 4
M  V30 4 1 2 5
M  V30 5 2 5 6
M  V30 6 1 6 7
M  V30 7 2 7 8
M  V30 8 1 8 9
M  V30 9 1 9 10
M  V30 10 2 10 11
M  V30 11 1 10 12
M  V30 12 1 12 13
M  V30 13 2 13 14
M  V30 14 1 13 15
M  V30 15 1 15 16
M  V30 16 2 16 17
M  V30 17 1 15 18
M  V30 18 2 18 19
M  V30 19 1 19 20
M  V30 20 2 20 21
M  V30 21 1 21 22
M  V30 22 2 22 23
M  V30 23 1 23 24
M  V30 24 1 21 25
M  V30 25 1 25 26
M  V30 26 1 25 27
M  V30 27 2 27 28
M  V30 28 1 12 29
M  V30 29 2 29 30
M  V30 30 1 30 31
M  V30 31 2 31 32
M  V30 32 1 32 33
M  V30 33 2 33 34
M  V30 34 1 34 35
M  V30 35 1 32 36
M  V30 36 1 36 37
M  V30 37 1 36 38
M  V30 38 2 38 39
M  V30 39 1 8 40
M  V30 40 1 40 41
M  V30 41 2 40 42
M  V30 42 1 42 5
M  V30 43 1 16 9
M  V30 44 1 23 18
M  V30 45 1 34 29
M  V30 46 1 1 43
M  V30 47 1 1 44
M  V30 48 1 1 45
M  V30 49 1 3 46
M  V30 50 1 6 47
M  V30 51 1 7 48
M  V30 52 1 19 49
M  V30 53 1 20 50
M  V30 54 1 22 51
M  V30 55 1 24 52
M  V30 56 1 24 53
M  V30 57 1 24 54
M  V30 58 1 26 55
M  V30 59 1 26 56
M  V30 60 1 26 57
M  V30 61 1 27 58
M  V30 62 1 30 59
M  V30 63 1 31 60
M  V30 64 1 33 61
M  V30 65 1 35 62
M  V30 66 1 35 63
M  V30 67 1 35 64
M  V30 68 1 37 65
M  V30 69 1 37 66
M  V30 70 1 37 67
M  V30 71 1 38 68
M  V30 72 1 41 69
M  V30 73 1 41 70
M  V30 74 1 41 71
M  V30 75 1 42 72
M  V30 END BOND
M  V30 END CTAB
M  END
