
     RDKit          3D

  0  0  0  0  0  0  0  0  0  0999 V3000
M  V30 BEGIN CTAB
M  V30 COUNTS 74 77 0 0 0
M  V30 BEGIN ATOM
M  V30 1 C 4.1665 0.124311 0.488644 0 CFG=2
M  V30 2 C 4.40706 1.40803 1.18237 0
M  V30 3 C 5.216 0.070865 -0.642644 0
M  V30 4 C 6.61337 0.120229 -0.126999 0
M  V30 5 C 7.58071 0.0550733 -1.26143 0
M  V30 6 Cl 9.29465 0.0956378 -0.928044 0
M  V30 7 O 7.19529 -0.0251379 -2.40443 0
M  V30 8 C 2.86639 -0.0578546 -0.20941 0 CFG=1
M  V30 9 C 2.91351 -1.4531 -0.794609 0
M  V30 10 C 1.57902 -2.1076 -0.387102 0
M  V30 11 C 0.720581 -0.927592 -0.286048 0 CFG=1
M  V30 12 C -0.632578 -1.03584 0.253543 0 CFG=2
M  V30 13 C -1.53504 -2.05558 -0.27592 0 CFG=1
M  V30 14 C -2.59575 -1.3997 -1.17942 0
M  V30 15 C -3.52029 -0.693796 -0.209487 0 CFG=2
M  V30 16 C -4.73421 -0.197513 -0.912621 0
M  V30 17 C -5.54513 0.765671 -0.0997402 0 CFG=1
M  V30 18 C -4.68421 1.88517 0.422401 0
M  V30 19 C -3.26513 1.71812 -0.0724932 0
M  V30 20 C -2.70129 0.393103 0.448197 0 CFG=1
M  V30 21 C -2.85545 0.393577 1.93857 0
M  V30 22 C -1.26437 0.359684 0.0690636 0 CFG=1
M  V30 23 C -0.470832 1.2322 1.03278 0
M  V30 24 C 0.956329 1.40099 0.522718 0 CFG=2
M  V30 25 O 0.977824 1.83496 -0.809046 0
M  V30 26 C 1.54283 3.04141 -1.15973 0
M  V30 27 O 2.03948 3.75218 -0.268089 0
M  V30 28 C 1.61143 0.00836925 0.554983 0 CFG=2
M  V30 29 C 1.7665 -0.436598 1.96338 0
M  V30 30 O -6.60279 1.25955 -0.901009 0
M  V30 31 C -7.93595 1.03308 -0.616692 0
M  V30 32 O -8.26341 0.367663 0.382839 0
M  V30 33 O -1.01456 -3.11139 -1.0082 0
M  V30 34 C -1.24896 -4.46169 -0.744579 0
M  V30 35 O -1.99037 -4.72791 0.234392 0
M  V30 36 H 4.45692 -0.72703 1.1327 0
M  V30 37 H 5.33581 1.24867 1.81572 0
M  V30 38 H 4.67099 2.23859 0.496777 0
M  V30 39 H 3.64788 1.69195 1.9406 0
M  V30 40 H 5.09335 -0.833474 -1.26684 0
M  V30 41 H 5.03537 0.934052 -1.321 0
M  V30 42 H 6.80474 1.05177 0.465251 0
M  V30 43 H 6.82352 -0.734113 0.547445 0
M  V30 44 H 2.82849 0.716401 -1.02203 0
M  V30 45 H 2.98229 -1.34282 -1.89478 0
M  V30 46 H 3.74923 -2.07064 -0.406071 0
M  V30 47 H 1.39543 -2.81724 -1.21809 0
M  V30 48 H 1.71159 -2.61354 0.577898 0
M  V30 49 H 0.689208 -0.427758 -1.29198 0
M  V30 50 H -0.61686 -1.14872 1.37966 0
M  V30 51 H -2.15909 -2.53881 0.538799 0
M  V30 52 H -3.1312 -2.26417 -1.67022 0
M  V30 53 H -2.14694 -0.73769 -1.92288 0
M  V30 54 H -3.77792 -1.42242 0.586205 0
M  V30 55 H -4.51435 0.186562 -1.93118 0
M  V30 56 H -5.39724 -1.09595 -1.08851 0
M  V30 57 H -6.0332 0.197793 0.743492 0
M  V30 58 H -4.74014 1.94677 1.51256 0
M  V30 59 H -5.065 2.84689 0.00901985 0
M  V30 60 H -2.65547 2.57764 0.222658 0
M  V30 61 H -3.31762 1.66617 -1.19867 0
M  V30 62 H -3.89383 0.115942 2.21635 0
M  V30 63 H -2.69685 1.42234 2.35431 0
M  V30 64 H -2.19078 -0.351819 2.41077 0
M  V30 65 H -1.11867 0.732738 -0.954315 0
M  V30 66 H -0.399547 0.650437 1.97266 0
M  V30 67 H -0.949573 2.1778 1.26316 0
M  V30 68 H 1.43155 2.06736 1.23989 0
M  V30 69 H 1.57586 3.40569 -2.18797 0
M  V30 70 H 2.81308 -0.680378 2.27394 0
M  V30 71 H 1.17924 -1.30725 2.27807 0
M  V30 72 H 1.48468 0.407568 2.6611 0
M  V30 73 H -8.68235 1.44129 -1.27317 0
M  V30 74 H -0.809684 -5.23919 -1.3585 0
M  V30 END ATOM
M  V30 BEGIN BOND
M  V30 1 1 1 2
M  V30 2 1 1 3
M  V30 3 1 3 4
M  V30 4 1 4 5
M  V30 5 1 5 6
M  V30 6 2 5 7
M  V30 7 1 1 8
M  V30 8 1 8 9
M  V30 9 1 9 10
M  V30 10 1 10 11
M  V30 11 1 11 12
M  V30 12 1 12 13
M  V30 13 1 13 14
M  V30 14 1 14 15
M  V30 15 1 15 16
M  V30 16 1 16 17
M  V30 17 1 17 18
M  V30 18 1 18 19
M  V30 19 1 19 20
M  V30 20 1 20 21 CFG=1
M  V30 21 1 20 22
M  V30 22 1 22 23
M  V30 23 1 23 24
M  V30 24 1 24 25
M  V30 25 1 25 26
M  V30 26 2 26 27
M  V30 27 1 24 28
M  V30 28 1 28 29 CFG=1
M  V30 29 1 17 30
M  V30 30 1 30 31
M  V30 31 2 31 32
M  V30 32 1 13 33
M  V30 33 1 33 34
M  V30 34 2 34 35
M  V30 35 1 28 8
M  V30 36 1 28 11
M  V30 37 1 22 12
M  V30 38 1 20 15
M  V30 39 1 1 36 CFG=1
M  V30 40 1 2 37
M  V30 41 1 2 38
M  V30 42 1 2 39
M  V30 43 1 3 40
M  V30 44 1 3 41
M  V30 45 1 4 42
M  V30 46 1 4 43
M  V30 47 1 8 44 CFG=3
M  V30 48 1 9 45
M  V30 49 1 9 46
M  V30 50 1 10 47
M  V30 51 1 10 48
M  V30 52 1 11 49 CFG=3
M  V30 53 1 12 50 CFG=1
M  V30 54 1 13 51 CFG=1
M  V30 55 1 14 52
M  V30 56 1 14 53
M  V30 57 1 15 54 CFG=1
M  V30 58 1 16 55
M  V30 59 1 16 56
M  V30 60 1 17 57 CFG=1
M  V30 61 1 18 58
M  V30 62 1 18 59
M  V30 63 1 19 60
M  V30 64 1 19 61
M  V30 65 1 21 62
M  V30 66 1 21 63
M  V30 67 1 21 64
M  V30 68 1 22 65 CFG=3
M  V30 69 1 23 66
M  V30 70 1 23 67
M  V30 71 1 24 68 CFG=1
M  V30 72 1 26 69
M  V30 73 1 29 70
M  V30 74 1 29 71
M  V30 75 1 29 72
M  V30 76 1 31 73
M  V30 77 1 34 74
M  V30 END BOND
M  V30 END CTAB
M  END
