
     RDKit          3D

 17 17  0  0  0  0  0  0  0  0999 V2000
    3.8264    0.4908    1.2139 O   0  0  0  0  0  0  0  0  0  0  0  0
    2.7075    0.9814    1.1208 C   0  0  0  0  0  0  0  0  0  0  0  0
    1.5608    0.2188    0.5848 C   0  0  0  0  0  0  0  0  0  0  0  0
    1.7303   -1.0928    0.1682 C   0  0  0  0  0  0  0  0  0  0  0  0
    0.6110   -1.7543   -0.3261 C   0  0  0  0  0  0  0  0  0  0  0  0
    0.7404   -3.1507   -0.7817 C   0  0  0  0  0  0  0  0  0  0  0  0
   -0.2185   -3.7694   -1.2232 O   0  0  0  0  0  0  0  0  0  0  0  0
   -0.6211   -1.1072   -0.3914 C   0  0  0  0  0  0  0  0  0  0  0  0
   -0.6779    0.2037    0.0515 C   0  0  0  0  0  0  0  0  0  0  0  0
   -1.9505    0.9557    0.0131 C   0  0  0  0  0  0  0  0  0  0  0  0
   -2.9926    0.4656   -0.4033 O   0  0  0  0  0  0  0  0  0  0  0  0
    0.3849    0.8891    0.5408 N   0  0  0  0  0  0  0  0  0  0  0  0
    2.4947    2.0179    1.4314 H   0  0  0  0  0  0  0  0  0  0  0  0
    2.7027   -1.5719    0.2308 H   0  0  0  0  0  0  0  0  0  0  0  0
    1.7401   -3.6111   -0.7061 H   0  0  0  0  0  0  0  0  0  0  0  0
   -1.5058   -1.6094   -0.7749 H   0  0  0  0  0  0  0  0  0  0  0  0
   -1.9035    1.9927    0.3852 H   0  0  0  0  0  0  0  0  0  0  0  0
  1  2  2  0
  2  3  1  0
  3  4  2  0
  4  5  1  0
  5  6  1  0
  6  7  2  0
  5  8  2  0
  8  9  1  0
  9 10  1  0
 10 11  2  0
  9 12  2  0
 12  3  1  0
  2 13  1  0
  4 14  1  0
  6 15  1  0
  8 16  1  0
 10 17  1  0
M  END
