
     RDKit          3D

  0  0  0  0  0  0  0  0  0  0999 V3000
M  V30 BEGIN CTAB
M  V30 COUNTS 123 125 0 0 0
M  V30 BEGIN ATOM
M  V30 1 C -5.37175 2.74941 0.645447 0
M  V30 2 C -4.49212 2.57312 -0.539329 0
M  V30 3 C -3.07516 3.04747 -0.280293 0
M  V30 4 O -2.22365 2.90511 -1.33055 0
M  V30 5 C -1.95601 2.20551 -2.40937 0
M  V30 6 O -2.25473 2.66878 -3.58145 0
M  V30 7 C -1.30852 0.846039 -2.54568 0
M  V30 8 C -0.321549 0.861064 -3.69973 0
M  V30 9 C -0.818881 0.23872 -1.27995 0
M  V30 10 O -1.46804 -1.03312 -1.25974 0
M  V30 11 C -2.35564 -1.2188 -0.247388 0
M  V30 12 C -2.06147 -2.29997 0.731369 0
M  V30 13 C -2.48102 -3.69379 0.299253 0
M  V30 14 C -1.49857 -4.18339 -0.731509 0
M  V30 15 O -2.4111 -4.52217 1.38965 0
M  V30 16 C -2.64644 -5.86001 1.13212 0
M  V30 17 C -3.89252 -3.66325 -0.234551 0
M  V30 18 O -4.89137 -3.51009 0.717035 0
M  V30 19 C -6.01902 -4.21592 0.950429 0
M  V30 20 O -6.27285 -5.19256 0.215203 0
M  V30 21 C -3.97282 -2.49342 -1.25747 0
M  V30 22 C -5.28048 -2.47641 -1.96294 0
M  V30 23 O -3.68762 -1.30924 -0.634959 0
M  V30 24 C 0.633562 -0.00778975 -1.15983 0
M  V30 25 C 0.937603 -1.36275 -1.80105 0
M  V30 26 C 1.34871 -0.0429615 0.113751 0
M  V30 27 O 2.68627 -0.336265 -0.103749 0
M  V30 28 C 3.2529 -1.47035 0.265303 0
M  V30 29 O 4.12899 -1.13772 1.35423 0
M  V30 30 C 4.50734 -2.33221 2.00104 0
M  V30 31 C 5.04115 -2.04839 3.37438 0
M  V30 32 C 5.55905 -3.03848 1.12882 0
M  V30 33 C 5.6305 -2.17586 -0.125795 0
M  V30 34 C 4.20567 -2.15459 -0.72985 0
M  V30 35 O 3.8762 -3.52371 -0.864146 0
M  V30 36 C 3.64956 -4.12097 -2.08195 0
M  V30 37 O 3.73538 -3.41784 -3.1162 0
M  V30 38 N 6.54908 -2.63335 -1.10544 0
M  V30 39 C 7.90393 -2.644 -0.498385 0
M  V30 40 C 6.65711 -1.55651 -2.11168 0
M  V30 41 C 1.33707 1.04248 1.10134 0
M  V30 42 C 0.422353 0.613919 2.24578 0
M  V30 43 O 2.56404 1.23037 1.75604 0
M  V30 44 C 0.737687 2.33092 0.64788 0
M  V30 45 C 1.43575 3.58677 1.12535 0
M  V30 46 C 2.32496 4.19639 0.0677845 0
M  V30 47 C 0.414621 4.47915 1.6692 0
M  V30 48 O 0.51595 4.63759 2.90593 0
M  V30 49 C -0.694523 5.20293 0.979274 0
M  V30 50 C -0.373801 5.67202 -0.384189 0
M  V30 51 C -2.06052 4.75249 1.30713 0
M  V30 52 O -2.63433 5.54619 2.33635 0
M  V30 53 C -2.90567 5.05509 3.57366 0
M  V30 54 O -2.64085 3.85798 3.81241 0
M  V30 55 C -3.09102 4.47414 0.297488 0
M  V30 56 C -3.3514 5.36545 -0.835658 0
M  V30 57 H -4.781 2.66171 1.58193 0
M  V30 58 H -5.94985 3.70849 0.619611 0
M  V30 59 H -6.15386 1.93799 0.678774 0
M  V30 60 H -4.42178 1.48793 -0.758691 0
M  V30 61 H -4.90649 3.02745 -1.47158 0
M  V30 62 H -2.7013 2.41702 0.580026 0
M  V30 63 H -2.17234 0.276539 -3.02069 0
M  V30 64 H -0.142538 -0.140924 -4.08188 0
M  V30 65 H 0.540268 1.51288 -3.55777 0
M  V30 66 H -0.91055 1.36742 -4.53263 0
M  V30 67 H -1.27757 0.732136 -0.371425 0
M  V30 68 H -2.33181 -0.252249 0.365254 0
M  V30 69 H -0.971779 -2.29939 0.930282 0
M  V30 70 H -2.54056 -2.03271 1.71669 0
M  V30 71 H -0.486241 -4.33998 -0.314827 0
M  V30 72 H -1.4143 -3.46751 -1.57363 0
M  V30 73 H -1.90783 -5.11631 -1.18638 0
M  V30 74 H -3.61495 -6.11345 0.70288 0
M  V30 75 H -1.8563 -6.29572 0.4618 0
M  V30 76 H -2.52901 -6.47535 2.07661 0
M  V30 77 H -4.08623 -4.55146 -0.819616 0
M  V30 78 H -6.66245 -3.89269 1.78279 0
M  V30 79 H -3.1923 -2.68391 -2.01572 0
M  V30 80 H -6.06911 -1.89095 -1.48935 0
M  V30 81 H -5.67413 -3.49659 -2.15362 0
M  V30 82 H -5.11169 -2.01288 -2.97958 0
M  V30 83 H 1.13764 0.739672 -1.82094 0
M  V30 84 H 1.75736 -1.31513 -2.50907 0
M  V30 85 H 0.053493 -1.75523 -2.36754 0
M  V30 86 H 1.03804 -2.17221 -1.01999 0
M  V30 87 H 0.967186 -0.947244 0.640901 0
M  V30 88 H 2.67662 -2.27512 0.716683 0
M  V30 89 H 3.62767 -2.96729 2.0685 0
M  V30 90 H 5.32119 -3.00449 3.84153 0
M  V30 91 H 4.18985 -1.63441 3.96394 0
M  V30 92 H 5.8727 -1.31673 3.37229 0
M  V30 93 H 6.51012 -2.99712 1.6552 0
M  V30 94 H 5.25114 -4.06096 0.905932 0
M  V30 95 H 5.86117 -1.1473 0.211864 0
M  V30 96 H 4.30743 -1.60055 -1.65055 0
M  V30 97 H 3.40541 -5.18243 -2.09127 0
M  V30 98 H 8.61216 -2.67288 -1.34827 0
M  V30 99 H 8.10105 -1.72548 0.0627652 0
M  V30 100 H 7.97137 -3.56377 0.10055 0
M  V30 101 H 6.11177 -0.655656 -1.76359 0
M  V30 102 H 6.18486 -1.90946 -3.03897 0
M  V30 103 H 7.70327 -1.23409 -2.25295 0
M  V30 104 H 0.420339 1.40048 3.0531 0
M  V30 105 H 0.789154 -0.297165 2.75187 0
M  V30 106 H -0.608438 0.387834 1.90886 0
M  V30 107 H 3.22735 1.56692 1.11239 0
M  V30 108 H 0.723812 2.44999 -0.457085 0
M  V30 109 H -0.322282 2.35565 0.96063 0
M  V30 110 H 2.15133 3.32012 1.9445 0
M  V30 111 H 1.91258 4.19699 -0.933906 0
M  V30 112 H 3.28312 3.63899 0.0103461 0
M  V30 113 H 2.6512 5.18883 0.463475 0
M  V30 114 H -0.617156 6.23327 1.50665 0
M  V30 115 H 0.638543 6.18267 -0.302093 0
M  V30 116 H -1.01229 6.55894 -0.689451 0
M  V30 117 H -0.301647 5.01114 -1.21009 0
M  V30 118 H -1.93125 3.78071 1.83166 0
M  V30 119 H -3.35012 5.70966 4.34182 0
M  V30 120 H -4.07197 4.45467 0.878744 0
M  V30 121 H -3.40566 6.44576 -0.609353 0
M  V30 122 H -2.68013 5.15214 -1.70732 0
M  V30 123 H -4.37427 5.12959 -1.2404 0
M  V30 END ATOM
M  V30 BEGIN BOND
M  V30 1 1 1 2
M  V30 2 1 2 3
M  V30 3 1 3 4
M  V30 4 1 4 5
M  V30 5 2 5 6
M  V30 6 1 5 7
M  V30 7 1 7 8
M  V30 8 1 7 9
M  V30 9 1 9 10
M  V30 10 1 10 11
M  V30 11 1 11 12
M  V30 12 1 12 13
M  V30 13 1 13 14
M  V30 14 1 13 15
M  V30 15 1 15 16
M  V30 16 1 13 17
M  V30 17 1 17 18
M  V30 18 1 18 19
M  V30 19 2 19 20
M  V30 20 1 17 21
M  V30 21 1 21 22
M  V30 22 1 21 23
M  V30 23 1 9 24
M  V30 24 1 24 25
M  V30 25 1 24 26
M  V30 26 1 26 27
M  V30 27 1 27 28
M  V30 28 1 28 29
M  V30 29 1 29 30
M  V30 30 1 30 31
M  V30 31 1 30 32
M  V30 32 1 32 33
M  V30 33 1 33 34
M  V30 34 1 34 35
M  V30 35 1 35 36
M  V30 36 2 36 37
M  V30 37 1 33 38
M  V30 38 1 38 39
M  V30 39 1 38 40
M  V30 40 1 26 41
M  V30 41 1 41 42
M  V30 42 1 41 43
M  V30 43 1 41 44
M  V30 44 1 44 45
M  V30 45 1 45 46
M  V30 46 1 45 47
M  V30 47 2 47 48
M  V30 48 1 47 49
M  V30 49 1 49 50
M  V30 50 1 49 51
M  V30 51 1 51 52
M  V30 52 1 52 53
M  V30 53 2 53 54
M  V30 54 1 51 55
M  V30 55 1 55 56
M  V30 56 1 55 3
M  V30 57 1 23 11
M  V30 58 1 34 28
M  V30 59 1 1 57
M  V30 60 1 1 58
M  V30 61 1 1 59
M  V30 62 1 2 60
M  V30 63 1 2 61
M  V30 64 1 3 62
M  V30 65 1 7 63
M  V30 66 1 8 64
M  V30 67 1 8 65
M  V30 68 1 8 66
M  V30 69 1 9 67
M  V30 70 1 11 68
M  V30 71 1 12 69
M  V30 72 1 12 70
M  V30 73 1 14 71
M  V30 74 1 14 72
M  V30 75 1 14 73
M  V30 76 1 16 74
M  V30 77 1 16 75
M  V30 78 1 16 76
M  V30 79 1 17 77
M  V30 80 1 19 78
M  V30 81 1 21 79
M  V30 82 1 22 80
M  V30 83 1 22 81
M  V30 84 1 22 82
M  V30 85 1 24 83
M  V30 86 1 25 84
M  V30 87 1 25 85
M  V30 88 1 25 86
M  V30 89 1 26 87
M  V30 90 1 28 88
M  V30 91 1 30 89
M  V30 92 1 31 90
M  V30 93 1 31 91
M  V30 94 1 31 92
M  V30 95 1 32 93
M  V30 96 1 32 94
M  V30 97 1 33 95
M  V30 98 1 34 96
M  V30 99 1 36 97
M  V30 100 1 39 98
M  V30 101 1 39 99
M  V30 102 1 39 100
M  V30 103 1 40 101
M  V30 104 1 40 102
M  V30 105 1 40 103
M  V30 106 1 42 104
M  V30 107 1 42 105
M  V30 108 1 42 106
M  V30 109 1 43 107
M  V30 110 1 44 108
M  V30 111 1 44 109
M  V30 112 1 45 110
M  V30 113 1 46 111
M  V30 114 1 46 112
M  V30 115 1 46 113
M  V30 116 1 49 114
M  V30 117 1 50 115
M  V30 118 1 50 116
M  V30 119 1 50 117
M  V30 120 1 51 118
M  V30 121 1 53 119
M  V30 122 1 55 120
M  V30 123 1 56 121
M  V30 124 1 56 122
M  V30 125 1 56 123
M  V30 END BOND
M  V30 END CTAB
M  END
