
     RDKit          3D

  0  0  0  0  0  0  0  0  0  0999 V3000
M  V30 BEGIN CTAB
M  V30 COUNTS 77 80 0 0 0
M  V30 BEGIN ATOM
M  V30 1 C 3.74443 -0.916169 -0.368151 0 CFG=2
M  V30 2 C 3.79601 -2.26333 0.273668 0
M  V30 3 C 5.08272 -0.238212 -0.215528 0
M  V30 4 C 6.23259 -0.962762 -0.837765 0
M  V30 5 C 7.46726 -0.163001 -0.620797 0
M  V30 6 O 8.55018 -0.613613 -1.07739 0
M  V30 7 C 7.38747 1.09591 0.101088 0
M  V30 8 N 7.90328 1.25143 1.23695 0 CHG=1
M  V30 9 N 8.6416 1.49919 2.18148 0 CHG=-1
M  V30 10 C 2.6399 -0.0109575 0.121604 0 CFG=1
M  V30 11 C 2.7401 1.31607 -0.626238 0
M  V30 12 C 1.34533 1.71122 -1.03501 0
M  V30 13 C 0.493002 0.890039 -0.113279 0 CFG=1
M  V30 14 C -0.864481 0.598504 -0.611905 0 CFG=2
M  V30 15 C -1.63791 1.92519 -0.690434 0 CFG=1
M  V30 16 C -3.01058 1.62472 -1.27191 0
M  V30 17 C -3.39007 0.174238 -1.20708 0 CFG=2
M  V30 18 C -4.85527 0.0304947 -1.56171 0
M  V30 19 C -5.76418 -0.0253631 -0.37254 0 CFG=1
M  V30 20 C -5.14443 0.416351 0.905944 0
M  V30 21 C -3.93202 -0.404691 1.17621 0
M  V30 22 C -2.99938 -0.572338 0.00675414 0 CFG=1
M  V30 23 C -3.08133 -2.06866 -0.359681 0
M  V30 24 C -1.60808 -0.203411 0.43794 0 CFG=1
M  V30 25 C -0.846273 -1.33055 1.00246 0
M  V30 26 C 0.633996 -1.1188 1.14865 0 CFG=2
M  V30 27 O 0.889016 -0.345796 2.30235 0
M  V30 28 C 1.55405 -0.889757 3.37215 0
M  V30 29 O 1.95105 -2.07424 3.36881 0
M  V30 30 C 1.26235 -0.448706 -0.041706 0 CFG=2
M  V30 31 C 0.932861 -1.17821 -1.29377 0
M  V30 32 O -6.99455 0.668792 -0.635319 0
M  V30 33 C -8.21107 0.00841149 -0.671428 0
M  V30 34 O -8.19453 -1.23385 -0.463052 0
M  V30 35 O -1.86974 2.44814 0.587862 0
M  V30 36 C -1.51082 3.71575 0.92721 0
M  V30 37 O -0.959645 4.47542 0.109807 0
M  V30 38 H 3.65009 -1.11334 -1.47097 0
M  V30 39 H 4.13652 -2.23056 1.33103 0
M  V30 40 H 2.92538 -2.90753 0.124078 0
M  V30 41 H 4.62903 -2.82183 -0.258 0
M  V30 42 H 5.35219 -0.100434 0.870256 0
M  V30 43 H 5.08587 0.791388 -0.626585 0
M  V30 44 H 6.38865 -1.92637 -0.284668 0
M  V30 45 H 6.06015 -1.20146 -1.89056 0
M  V30 46 H 6.86789 1.90958 -0.364154 0
M  V30 47 H 2.85333 0.214846 1.18459 0
M  V30 48 H 3.31979 1.18299 -1.56382 0
M  V30 49 H 3.1362 2.12465 0.0178588 0
M  V30 50 H 1.14113 2.78739 -0.824141 0
M  V30 51 H 1.12859 1.57355 -2.09721 0
M  V30 52 H 0.45399 1.28206 0.90258 0
M  V30 53 H -0.928665 0.163648 -1.6075 0
M  V30 54 H -1.11381 2.64166 -1.32145 0
M  V30 55 H -2.95075 1.8957 -2.37003 0
M  V30 56 H -3.75703 2.31782 -0.838477 0
M  V30 57 H -2.84729 -0.316525 -2.07262 0
M  V30 58 H -5.14588 0.923202 -2.15792 0
M  V30 59 H -5.04422 -0.842322 -2.21976 0
M  V30 60 H -6.06079 -1.09333 -0.230708 0
M  V30 61 H -5.00376 1.5074 1.01737 0
M  V30 62 H -5.89003 0.162648 1.72149 0
M  V30 63 H -3.40307 0.0955276 2.04332 0
M  V30 64 H -4.26417 -1.37492 1.6018 0
M  V30 65 H -2.34432 -2.34359 -1.13112 0
M  V30 66 H -4.07789 -2.27033 -0.833649 0
M  V30 67 H -3.05602 -2.70526 0.540398 0
M  V30 68 H -1.74763 0.554148 1.27788 0
M  V30 69 H -1.07456 -2.25764 0.45228 0
M  V30 70 H -1.22812 -1.51473 2.05205 0
M  V30 71 H 1.07689 -2.10677 1.28978 0
M  V30 72 H 1.74721 -0.291275 4.24769 0
M  V30 73 H -0.0601655 -1.6548 -1.17692 0
M  V30 74 H 1.61563 -1.97745 -1.60132 0
M  V30 75 H 0.933905 -0.441445 -2.13781 0
M  V30 76 H -9.15016 0.530043 -0.870662 0
M  V30 77 H -1.72692 4.0462 1.95618 0
M  V30 END ATOM
M  V30 BEGIN BOND
M  V30 1 1 1 2
M  V30 2 1 1 3
M  V30 3 1 3 4
M  V30 4 1 4 5
M  V30 5 2 5 6
M  V30 6 1 5 7
M  V30 7 2 7 8 CFG=2
M  V30 8 2 8 9
M  V30 9 1 1 10
M  V30 10 1 10 11
M  V30 11 1 11 12
M  V30 12 1 12 13
M  V30 13 1 13 14
M  V30 14 1 14 15
M  V30 15 1 15 16
M  V30 16 1 16 17
M  V30 17 1 17 18
M  V30 18 1 18 19
M  V30 19 1 19 20
M  V30 20 1 20 21
M  V30 21 1 21 22
M  V30 22 1 22 23 CFG=3
M  V30 23 1 22 24
M  V30 24 1 24 25
M  V30 25 1 25 26
M  V30 26 1 26 27
M  V30 27 1 27 28
M  V30 28 2 28 29
M  V30 29 1 26 30
M  V30 30 1 30 31 CFG=3
M  V30 31 1 19 32
M  V30 32 1 32 33
M  V30 33 2 33 34
M  V30 34 1 15 35
M  V30 35 1 35 36
M  V30 36 2 36 37
M  V30 37 1 30 10
M  V30 38 1 30 13
M  V30 39 1 24 14
M  V30 40 1 22 17
M  V30 41 1 1 38 CFG=3
M  V30 42 1 2 39
M  V30 43 1 2 40
M  V30 44 1 2 41
M  V30 45 1 3 42
M  V30 46 1 3 43
M  V30 47 1 4 44
M  V30 48 1 4 45
M  V30 49 1 7 46
M  V30 50 1 10 47 CFG=1
M  V30 51 1 11 48
M  V30 52 1 11 49
M  V30 53 1 12 50
M  V30 54 1 12 51
M  V30 55 1 13 52 CFG=1
M  V30 56 1 14 53 CFG=3
M  V30 57 1 15 54 CFG=3
M  V30 58 1 16 55
M  V30 59 1 16 56
M  V30 60 1 17 57 CFG=3
M  V30 61 1 18 58
M  V30 62 1 18 59
M  V30 63 1 19 60 CFG=1
M  V30 64 1 20 61
M  V30 65 1 20 62
M  V30 66 1 21 63
M  V30 67 1 21 64
M  V30 68 1 23 65
M  V30 69 1 23 66
M  V30 70 1 23 67
M  V30 71 1 24 68 CFG=1
M  V30 72 1 25 69
M  V30 73 1 25 70
M  V30 74 1 26 71 CFG=1
M  V30 75 1 28 72
M  V30 76 1 31 73
M  V30 77 1 31 74
M  V30 78 1 31 75
M  V30 79 1 33 76
M  V30 80 1 36 77
M  V30 END BOND
M  V30 END CTAB
M  END
