
     RDKit          3D

  0  0  0  0  0  0  0  0  0  0999 V3000
M  V30 BEGIN CTAB
M  V30 COUNTS 53 56 0 0 0
M  V30 BEGIN ATOM
M  V30 1 C -1.1007 -0.471585 -0.372304 0 CFG=2
M  V30 2 C -2.05124 -1.00904 -1.36456 0
M  V30 3 C -3.35548 -0.862635 -0.567135 0 CFG=1
M  V30 4 O -3.45512 -2.04822 0.212256 0
M  V30 5 C -4.54584 -2.89695 0.134382 0
M  V30 6 O -5.46564 -2.56892 -0.672145 0
M  V30 7 C -3.1182 0.292696 0.393588 0 CFG=2
M  V30 8 O -4.13119 1.27217 0.210947 0
M  V30 9 C -4.87198 1.64018 1.31498 0
M  V30 10 O -4.66322 1.12921 2.45113 0
M  V30 11 C -1.75196 0.825156 0.0206883 0 CFG=2
M  V30 12 C -1.91511 1.78623 -1.10084 0
M  V30 13 C -1.00375 1.39954 1.19636 0
M  V30 14 C 0.462623 1.50309 0.899209 0
M  V30 15 C 1.02639 0.148854 0.454041 0 CFG=1
M  V30 16 C 0.277504 -0.217923 -0.815155 0 CFG=1
M  V30 17 C 0.902987 -1.46434 -1.44828 0
M  V30 18 C 2.23578 -0.967514 -2.02426 0
M  V30 19 C 3.03589 -0.519748 -0.85656 0
M  V30 20 C 4.34026 -0.746131 -0.89935 0
M  V30 21 C 5.18111 -0.326446 0.224343 0
M  V30 22 O 6.39333 -0.084168 -0.00769219 0
M  V30 23 C 4.61157 -0.190306 1.60957 0
M  V30 24 C 3.13803 -0.513238 1.55018 0
M  V30 25 C 2.49045 0.145804 0.323404 0 CFG=2
M  V30 26 C 2.96719 1.57729 0.359846 0
M  V30 27 O 3.1554 2.17444 -0.680698 0
M  V30 28 H -1.09228 -1.11468 0.501382 0
M  V30 29 H -1.86707 -2.06646 -1.621 0
M  V30 30 H -2.06252 -0.34079 -2.24958 0
M  V30 31 H -4.21349 -0.699453 -1.21813 0
M  V30 32 H -4.58197 -3.78798 0.744309 0
M  V30 33 H -3.05849 -0.0585625 1.44738 0
M  V30 34 H -5.65705 2.37831 1.24794 0
M  V30 35 H -1.72835 2.81939 -0.683543 0
M  V30 36 H -1.31067 1.59406 -1.98744 0
M  V30 37 H -2.98447 1.84108 -1.46128 0
M  V30 38 H -1.38385 2.43515 1.34178 0
M  V30 39 H -1.18617 0.860194 2.12984 0
M  V30 40 H 0.654592 2.20962 0.0727057 0
M  V30 41 H 1.02034 1.78624 1.80697 0
M  V30 42 H 0.704108 -0.565503 1.26767 0
M  V30 43 H 0.40731 0.589704 -1.53914 0
M  V30 44 H 0.224559 -1.76498 -2.26434 0
M  V30 45 H 1.06744 -2.24785 -0.698189 0
M  V30 46 H 1.98854 -0.0781967 -2.64017 0
M  V30 47 H 2.72676 -1.74634 -2.60617 0
M  V30 48 H 4.78529 -1.2421 -1.76626 0
M  V30 49 H 4.82586 0.79794 2.04683 0
M  V30 50 H 5.10286 -0.946193 2.27387 0
M  V30 51 H 2.99966 -1.61442 1.5098 0
M  V30 52 H 2.68693 -0.12246 2.48394 0
M  V30 53 H 3.14305 2.07677 1.31486 0
M  V30 END ATOM
M  V30 BEGIN BOND
M  V30 1 1 1 2
M  V30 2 1 2 3
M  V30 3 1 3 4
M  V30 4 1 4 5
M  V30 5 2 5 6
M  V30 6 1 3 7
M  V30 7 1 7 8
M  V30 8 1 8 9
M  V30 9 2 9 10
M  V30 10 1 7 11
M  V30 11 1 11 12 CFG=3
M  V30 12 1 11 13
M  V30 13 1 13 14
M  V30 14 1 14 15
M  V30 15 1 15 16
M  V30 16 1 16 17
M  V30 17 1 17 18
M  V30 18 1 18 19
M  V30 19 2 19 20
M  V30 20 1 20 21
M  V30 21 2 21 22
M  V30 22 1 21 23
M  V30 23 1 23 24
M  V30 24 1 24 25
M  V30 25 1 25 26 CFG=3
M  V30 26 2 26 27
M  V30 27 1 11 1
M  V30 28 1 25 15
M  V30 29 1 16 1
M  V30 30 1 25 19
M  V30 31 1 1 28 CFG=1
M  V30 32 1 2 29
M  V30 33 1 2 30
M  V30 34 1 3 31 CFG=3
M  V30 35 1 5 32
M  V30 36 1 7 33 CFG=1
M  V30 37 1 9 34
M  V30 38 1 12 35
M  V30 39 1 12 36
M  V30 40 1 12 37
M  V30 41 1 13 38
M  V30 42 1 13 39
M  V30 43 1 14 40
M  V30 44 1 14 41
M  V30 45 1 15 42 CFG=1
M  V30 46 1 16 43 CFG=3
M  V30 47 1 17 44
M  V30 48 1 17 45
M  V30 49 1 18 46
M  V30 50 1 18 47
M  V30 51 1 20 48
M  V30 52 1 23 49
M  V30 53 1 23 50
M  V30 54 1 24 51
M  V30 55 1 24 52
M  V30 56 1 26 53
M  V30 END BOND
M  V30 END CTAB
M  END
