
     RDKit          3D

  0  0  0  0  0  0  0  0  0  0999 V3000
M  V30 BEGIN CTAB
M  V30 COUNTS 38 38 0 0 0
M  V30 BEGIN ATOM
M  V30 1 O 4.24488 -1.23581 1.26132 0
M  V30 2 C 3.56575 -0.218765 0.975515 0
M  V30 3 N 2.53669 -0.300712 0.0218068 0
M  V30 4 C 2.26209 -1.55144 -0.626947 0
M  V30 5 C 1.21496 -2.36394 0.102272 0
M  V30 6 N 0.0205648 -1.59177 0.367772 0
M  V30 7 C -1.18689 -2.22144 -0.0504778 0
M  V30 8 C -2.19641 -1.27822 -0.659462 0
M  V30 9 N -2.52701 -0.170972 0.200229 0
M  V30 10 C -2.03307 1.16306 -0.0458043 0
M  V30 11 C -1.28357 1.74001 1.1095 0
M  V30 12 N -0.0212368 2.2604 0.649724 0
M  V30 13 C 1.2334 1.5862 0.8916 0
M  V30 14 C 1.76003 0.862795 -0.303897 0
M  V30 15 C -0.0140142 3.47935 -0.0661516 0
M  V30 16 O -1.07534 4.07785 -0.287331 0
M  V30 17 C -3.35897 -0.386809 1.32041 0
M  V30 18 O -3.80914 -1.53131 1.56935 0
M  V30 19 H 3.82625 0.695256 1.50348 0
M  V30 20 H 2.00999 -1.41756 -1.69954 0
M  V30 21 H 3.19402 -2.15231 -0.611495 0
M  V30 22 H 1.64256 -2.64585 1.08576 0
M  V30 23 H 0.954449 -3.22129 -0.534046 0
M  V30 24 H -0.00877973 -1.26719 1.37643 0
M  V30 25 H -0.988413 -3.00861 -0.806625 0
M  V30 26 H -1.63689 -2.74 0.820576 0
M  V30 27 H -3.10299 -1.90864 -0.888911 0
M  V30 28 H -1.84339 -0.928304 -1.65733 0
M  V30 29 H -1.38683 1.16029 -0.970395 0
M  V30 30 H -2.86597 1.85504 -0.309059 0
M  V30 31 H -1.04822 1.00165 1.90151 0
M  V30 32 H -1.9115 2.5099 1.60151 0
M  V30 33 H 1.99076 2.33663 1.19507 0
M  V30 34 H 1.16166 0.877607 1.74665 0
M  V30 35 H 0.956206 0.653186 -1.04121 0
M  V30 36 H 2.45306 1.56275 -0.849642 0
M  V30 37 H 0.911189 3.91244 -0.433402 0
M  V30 38 H -3.63989 0.406538 1.99973 0
M  V30 END ATOM
M  V30 BEGIN BOND
M  V30 1 2 1 2
M  V30 2 1 2 3
M  V30 3 1 3 4
M  V30 4 1 4 5
M  V30 5 1 5 6
M  V30 6 1 6 7
M  V30 7 1 7 8
M  V30 8 1 8 9
M  V30 9 1 9 10
M  V30 10 1 10 11
M  V30 11 1 11 12
M  V30 12 1 12 13
M  V30 13 1 13 14
M  V30 14 1 12 15
M  V30 15 2 15 16
M  V30 16 1 9 17
M  V30 17 2 17 18
M  V30 18 1 14 3
M  V30 19 1 2 19
M  V30 20 1 4 20
M  V30 21 1 4 21
M  V30 22 1 5 22
M  V30 23 1 5 23
M  V30 24 1 6 24
M  V30 25 1 7 25
M  V30 26 1 7 26
M  V30 27 1 8 27
M  V30 28 1 8 28
M  V30 29 1 10 29
M  V30 30 1 10 30
M  V30 31 1 11 31
M  V30 32 1 11 32
M  V30 33 1 13 33
M  V30 34 1 13 34
M  V30 35 1 14 35
M  V30 36 1 14 36
M  V30 37 1 15 37
M  V30 38 1 17 38
M  V30 END BOND
M  V30 END CTAB
M  END
