
     RDKit          3D

  0  0  0  0  0  0  0  0  0  0999 V3000
M  V30 BEGIN CTAB
M  V30 COUNTS 75 78 0 0 0
M  V30 BEGIN ATOM
M  V30 1 C 4.05455 -0.449689 -0.223401 0 CFG=2
M  V30 2 C 4.61233 -0.685584 1.10875 0
M  V30 3 C 4.92712 0.642937 -0.864978 0
M  V30 4 C 6.35683 0.25225 -0.993792 0
M  V30 5 C 7.11363 1.35447 -1.62804 0
M  V30 6 O 7.90347 2.20242 -0.878993 0
M  V30 7 O 7.04579 1.53313 -2.86465 0
M  V30 8 C 2.6723 -0.0218622 -0.435497 0 CFG=1
M  V30 9 C 2.52074 0.08832 -1.95941 0
M  V30 10 C 1.18207 -0.602689 -2.27812 0
M  V30 11 C 0.488036 -0.240671 -1.05095 0 CFG=1
M  V30 12 C -0.826253 -0.747142 -0.713184 0 CFG=2
M  V30 13 C -1.84037 -1.00912 -1.74579 0 CFG=1
M  V30 14 C -2.9067 0.0637988 -1.7579 0
M  V30 15 C -3.65319 0.0636678 -0.439442 0 CFG=2
M  V30 16 C -4.54466 1.26825 -0.444782 0
M  V30 17 C -5.4005 1.40711 0.768191 0 CFG=1
M  V30 18 C -4.60289 1.11281 1.99567 0
M  V30 19 C -3.11308 1.10179 1.74056 0
M  V30 20 C -2.72465 0.00776888 0.75664 0 CFG=1
M  V30 21 C -2.88991 -1.29948 1.4696 0
M  V30 22 C -1.3682 0.308506 0.27157 0 CFG=1
M  V30 23 C -0.291836 0.577808 1.23053 0
M  V30 24 C 0.834724 -0.449523 1.28525 0 CFG=2
M  V30 25 O 1.60978 -0.027985 2.36263 0
M  V30 26 C 1.63797 -0.670238 3.5896 0
M  V30 27 O 0.941499 -1.69187 3.78068 0
M  V30 28 C 1.50509 -0.747952 0.00803371 0 CFG=2
M  V30 29 C 1.61164 -2.26736 -0.17861 0
M  V30 30 O -5.9941 2.68664 0.786778 0
M  V30 31 C -7.33434 2.9412 0.719909 0
M  V30 32 O -8.12106 1.96788 0.63387 0
M  V30 33 O -1.364 -1.14378 -3.0584 0
M  V30 34 C -1.58538 -2.2558 -3.86222 0
M  V30 35 O -2.26072 -3.1921 -3.35788 0
M  V30 36 H 4.26446 -1.35712 -0.849009 0
M  V30 37 H 4.05884 -1.40711 1.74006 0
M  V30 38 H 4.88599 0.252826 1.63459 0
M  V30 39 H 5.61278 -1.20725 0.978029 0
M  V30 40 H 4.84846 1.57987 -0.238117 0
M  V30 41 H 4.54128 0.947701 -1.85655 0
M  V30 42 H 6.50939 -0.714774 -1.50714 0
M  V30 43 H 6.77878 0.137114 0.0444303 0
M  V30 44 H 7.58667 2.9341 -0.281537 0
M  V30 45 H 2.56084 1.04978 -0.0792513 0
M  V30 46 H 3.30613 -0.520118 -2.4884 0
M  V30 47 H 2.56171 1.11098 -2.32549 0
M  V30 48 H 0.838956 -0.0670828 -3.21325 0
M  V30 49 H 1.30217 -1.64234 -2.54865 0
M  V30 50 H 0.601473 0.886859 -0.953561 0
M  V30 51 H -0.728971 -1.67053 -0.0785251 0
M  V30 52 H -2.40604 -1.96796 -1.53512 0
M  V30 53 H -3.66298 -0.274959 -2.52594 0
M  V30 54 H -2.56276 1.03947 -2.08292 0
M  V30 55 H -4.3041 -0.833914 -0.435358 0
M  V30 56 H -5.24906 1.11675 -1.31601 0
M  V30 57 H -3.99543 2.21544 -0.716775 0
M  V30 58 H -6.22037 0.670865 0.690912 0
M  V30 59 H -4.79015 1.90193 2.75072 0
M  V30 60 H -4.85798 0.148609 2.48031 0
M  V30 61 H -2.72816 2.05924 1.36319 0
M  V30 62 H -2.6339 0.934422 2.72852 0
M  V30 63 H -4.00198 -1.49066 1.52877 0
M  V30 64 H -2.37308 -2.14423 1.01914 0
M  V30 65 H -2.57422 -1.20899 2.54741 0
M  V30 66 H -1.46091 1.23155 -0.381243 0
M  V30 67 H 0.219946 1.56299 1.08882 0
M  V30 68 H -0.666553 0.61814 2.29734 0
M  V30 69 H 0.300632 -1.38501 1.63902 0
M  V30 70 H 2.25271 -0.307501 4.39424 0
M  V30 71 H 0.859869 -2.67436 -0.852143 0
M  V30 72 H 1.45195 -2.73754 0.815247 0
M  V30 73 H 2.61761 -2.53197 -0.586649 0
M  V30 74 H -7.76263 3.9214 0.736111 0
M  V30 75 H -1.17707 -2.25453 -4.84655 0
M  V30 END ATOM
M  V30 BEGIN BOND
M  V30 1 1 1 2
M  V30 2 1 1 3
M  V30 3 1 3 4
M  V30 4 1 4 5
M  V30 5 1 5 6
M  V30 6 2 5 7
M  V30 7 1 1 8
M  V30 8 1 8 9
M  V30 9 1 9 10
M  V30 10 1 10 11
M  V30 11 1 11 12
M  V30 12 1 12 13
M  V30 13 1 13 14
M  V30 14 1 14 15
M  V30 15 1 15 16
M  V30 16 1 16 17
M  V30 17 1 17 18
M  V30 18 1 18 19
M  V30 19 1 19 20
M  V30 20 1 20 21 CFG=1
M  V30 21 1 20 22
M  V30 22 1 22 23
M  V30 23 1 23 24
M  V30 24 1 24 25
M  V30 25 1 25 26
M  V30 26 2 26 27
M  V30 27 1 24 28
M  V30 28 1 28 29 CFG=3
M  V30 29 1 17 30
M  V30 30 1 30 31
M  V30 31 2 31 32
M  V30 32 1 13 33
M  V30 33 1 33 34
M  V30 34 2 34 35
M  V30 35 1 28 8
M  V30 36 1 28 11
M  V30 37 1 22 12
M  V30 38 1 20 15
M  V30 39 1 1 36 CFG=3
M  V30 40 1 2 37
M  V30 41 1 2 38
M  V30 42 1 2 39
M  V30 43 1 3 40
M  V30 44 1 3 41
M  V30 45 1 4 42
M  V30 46 1 4 43
M  V30 47 1 6 44
M  V30 48 1 8 45 CFG=1
M  V30 49 1 9 46
M  V30 50 1 9 47
M  V30 51 1 10 48
M  V30 52 1 10 49
M  V30 53 1 11 50 CFG=3
M  V30 54 1 12 51 CFG=1
M  V30 55 1 13 52 CFG=1
M  V30 56 1 14 53
M  V30 57 1 14 54
M  V30 58 1 15 55 CFG=3
M  V30 59 1 16 56
M  V30 60 1 16 57
M  V30 61 1 17 58 CFG=3
M  V30 62 1 18 59
M  V30 63 1 18 60
M  V30 64 1 19 61
M  V30 65 1 19 62
M  V30 66 1 21 63
M  V30 67 1 21 64
M  V30 68 1 21 65
M  V30 69 1 22 66 CFG=3
M  V30 70 1 23 67
M  V30 71 1 23 68
M  V30 72 1 24 69 CFG=1
M  V30 73 1 26 70
M  V30 74 1 29 71
M  V30 75 1 29 72
M  V30 76 1 29 73
M  V30 77 1 31 74
M  V30 78 1 34 75
M  V30 END BOND
M  V30 END CTAB
M  END
