
     RDKit          3D

  0  0  0  0  0  0  0  0  0  0999 V3000
M  V30 BEGIN CTAB
M  V30 COUNTS 66 69 0 0 0
M  V30 BEGIN ATOM
M  V30 1 C -2.67779 4.711 0.148594 0
M  V30 2 O -1.58221 3.93052 0.557465 0
M  V30 3 C -0.315923 4.51876 0.52919 0
M  V30 4 C 0.835283 3.81217 0.922634 0
M  V30 5 O 0.635033 2.50408 1.33297 0
M  V30 6 C 0.36841 1.45933 0.465789 0
M  V30 7 N -0.952179 1.1526 0.286281 0
M  V30 8 C -1.40042 0.184781 -0.508256 0
M  V30 9 O -2.76669 -0.0872304 -0.658186 0
M  V30 10 C -3.46747 -1.06513 0.00676936 0
M  V30 11 C -3.53777 -2.3163 -0.636228 0
M  V30 12 O -2.92988 -2.48794 -1.87409 0
M  V30 13 C -3.0635 -3.76887 -2.47922 0
M  V30 14 C -4.21281 -3.3206 -0.0141878 0
M  V30 15 C -4.83344 -3.16285 1.22302 0
M  V30 16 C -5.53972 -4.26974 1.84681 0
M  V30 17 O -5.6108 -5.39198 1.29415 0
M  V30 18 C -4.75286 -1.93894 1.82464 0
M  V30 19 C -4.07172 -0.870607 1.22842 0
M  V30 20 N -4.07715 0.374705 1.92968 0 CHG=1
M  V30 21 O -4.06319 0.403791 3.30981 0 CHG=-1
M  V30 22 O -4.14118 1.43868 1.30588 0
M  V30 23 N -0.460734 -0.534088 -1.17451 0
M  V30 24 C 0.863874 -0.3033 -1.05817 0
M  V30 25 O 1.81059 -1.03749 -1.7398 0
M  V30 26 C 2.50947 -2.13303 -1.29921 0
M  V30 27 C 3.64824 -1.86882 -0.528655 0
M  V30 28 O 4.03707 -0.551177 -0.239945 0
M  V30 29 C 5.23177 -0.427709 0.548975 0
M  V30 30 C 4.38562 -2.9313 -0.0591291 0
M  V30 31 C 4.02269 -4.24547 -0.334553 0
M  V30 32 C 4.84307 -5.33096 0.194382 0
M  V30 33 O 5.8607 -5.07912 0.886971 0
M  V30 34 C 2.90031 -4.46974 -1.09503 0
M  V30 35 C 2.1214 -3.41365 -1.5932 0
M  V30 36 N 0.984104 -3.74126 -2.41103 0 CHG=1
M  V30 37 O 0.292896 -4.92561 -2.1688 0 CHG=-1
M  V30 38 O 0.622766 -3.00366 -3.33688 0
M  V30 39 N 1.22588 0.71504 -0.216642 0
M  V30 40 C 2.0606 4.43696 0.882761 0
M  V30 41 C 2.15306 5.75529 0.451284 0
M  V30 42 C 1.0415 6.48763 0.0521972 0
M  V30 43 C 1.16509 7.86339 -0.394897 0
M  V30 44 O 2.29134 8.39829 -0.421391 0
M  V30 45 C -0.150632 5.8189 0.114576 0
M  V30 46 N 3.25842 3.83593 1.32356 0 CHG=1
M  V30 47 O 4.18237 4.7221 1.93226 0 CHG=-1
M  V30 48 O 3.57622 2.65291 1.24111 0
M  V30 49 H -2.72101 4.91442 -0.927786 0
M  V30 50 H -3.61301 4.14795 0.426534 0
M  V30 51 H -2.7569 5.66901 0.699807 0
M  V30 52 H -4.16559 -3.94032 -2.58638 0
M  V30 53 H -2.62152 -4.51462 -1.77737 0
M  V30 54 H -2.56426 -3.80414 -3.47206 0
M  V30 55 H -4.26137 -4.28039 -0.515348 0
M  V30 56 H -6.0179 -4.14378 2.8024 0
M  V30 57 H -5.21012 -1.75915 2.77451 0
M  V30 58 H 5.55128 0.623819 0.639852 0
M  V30 59 H 6.08325 -0.95069 0.0347932 0
M  V30 60 H 5.1061 -0.879789 1.53621 0
M  V30 61 H 5.28432 -2.75167 0.549362 0
M  V30 62 H 4.58768 -6.38063 -0.00192558 0
M  V30 63 H 2.62614 -5.49321 -1.30384 0
M  V30 64 H 3.11131 6.26643 0.411039 0
M  V30 65 H 0.307778 8.42453 -0.701048 0
M  V30 66 H -1.04587 6.35197 -0.186897 0
M  V30 END ATOM
M  V30 BEGIN BOND
M  V30 1 1 1 2
M  V30 2 1 2 3
M  V30 3 2 3 4
M  V30 4 1 4 5
M  V30 5 1 5 6
M  V30 6 2 6 7
M  V30 7 1 7 8
M  V30 8 1 8 9
M  V30 9 1 9 10
M  V30 10 2 10 11
M  V30 11 1 11 12
M  V30 12 1 12 13
M  V30 13 1 11 14
M  V30 14 2 14 15
M  V30 15 1 15 16
M  V30 16 2 16 17
M  V30 17 1 15 18
M  V30 18 2 18 19
M  V30 19 1 19 20
M  V30 20 1 20 21
M  V30 21 2 20 22
M  V30 22 2 8 23
M  V30 23 1 23 24
M  V30 24 1 24 25
M  V30 25 1 25 26
M  V30 26 2 26 27
M  V30 27 1 27 28
M  V30 28 1 28 29
M  V30 29 1 27 30
M  V30 30 2 30 31
M  V30 31 1 31 32
M  V30 32 2 32 33
M  V30 33 1 31 34
M  V30 34 2 34 35
M  V30 35 1 35 36
M  V30 36 1 36 37
M  V30 37 2 36 38
M  V30 38 2 24 39
M  V30 39 1 4 40
M  V30 40 2 40 41
M  V30 41 1 41 42
M  V30 42 1 42 43
M  V30 43 2 43 44
M  V30 44 2 42 45
M  V30 45 1 40 46
M  V30 46 1 46 47
M  V30 47 2 46 48
M  V30 48 1 45 3
M  V30 49 1 39 6
M  V30 50 1 19 10
M  V30 51 1 35 26
M  V30 52 1 1 49
M  V30 53 1 1 50
M  V30 54 1 1 51
M  V30 55 1 13 52
M  V30 56 1 13 53
M  V30 57 1 13 54
M  V30 58 1 14 55
M  V30 59 1 16 56
M  V30 60 1 18 57
M  V30 61 1 29 58
M  V30 62 1 29 59
M  V30 63 1 29 60
M  V30 64 1 30 61
M  V30 65 1 32 62
M  V30 66 1 34 63
M  V30 67 1 41 64
M  V30 68 1 43 65
M  V30 69 1 45 66
M  V30 END BOND
M  V30 END CTAB
M  END
