
     RDKit          3D

  0  0  0  0  0  0  0  0  0  0999 V3000
M  V30 BEGIN CTAB
M  V30 COUNTS 60 63 0 0 0
M  V30 BEGIN ATOM
M  V30 1 O -5.55148 -7.50416 4.11957 0
M  V30 2 C -5.82437 -6.33931 3.73673 0
M  V30 3 C -4.8187 -5.45297 3.19027 0
M  V30 4 C -3.5247 -5.93994 3.10233 0
M  V30 5 C -2.56951 -5.09842 2.58366 0
M  V30 6 C -2.88187 -3.80175 2.15938 0
M  V30 7 C -4.16852 -3.36798 2.26583 0
M  V30 8 C -5.16615 -4.19689 2.78866 0
M  V30 9 C -1.81993 -2.98013 1.6264 0
M  V30 10 C -2.02451 -1.76597 1.2104 0
M  V30 11 C -0.993949 -0.908992 0.670669 0
M  V30 12 C -1.30393 0.392547 0.243647 0
M  V30 13 C -0.374637 1.24323 -0.272116 0
M  V30 14 C -0.65144 2.59773 -0.725995 0
M  V30 15 C -1.84564 3.09996 -0.666564 0
M  V30 16 C -2.1255 4.44872 -1.1176 0
M  V30 17 C -3.43105 4.95239 -1.03616 0
M  V30 18 C -3.76435 6.22351 -1.44674 0
M  V30 19 C -2.8275 7.06451 -1.95916 0
M  V30 20 C -3.10723 8.41839 -2.41235 0
M  V30 21 O -4.26817 8.91883 -2.36006 0
M  V30 22 C -1.53778 6.59644 -2.05077 0
M  V30 23 C -1.20444 5.32037 -1.63831 0
M  V30 24 C 0.940889 0.756102 -0.363117 0
M  V30 25 C 1.29537 -0.486265 0.0322229 0
M  V30 26 C 2.64688 -0.989064 -0.0603133 0
M  V30 27 C 3.62703 -0.275233 -0.535207 0
M  V30 28 C 5.0168 -0.699338 -0.665489 0
M  V30 29 C 5.39156 -1.95027 -0.270973 0
M  V30 30 C 6.728 -2.30744 -0.415228 0
M  V30 31 C 7.67261 -1.46602 -0.930638 0
M  V30 32 C 9.04108 -1.90399 -1.05107 0
M  V30 33 O 9.9573 -1.16587 -1.52132 0
M  V30 34 C 7.26813 -0.193972 -1.32692 0
M  V30 35 C 5.94583 0.172501 -1.18914 0
M  V30 36 C 0.297892 -1.33485 0.561444 0
M  V30 37 H -6.8446 -6.00424 3.82465 0
M  V30 38 H -3.28053 -6.95368 3.43407 0
M  V30 39 H -1.56094 -5.49017 2.51968 0
M  V30 40 H -4.49323 -2.38407 1.96233 0
M  V30 41 H -6.15803 -3.81193 2.8516 0
M  V30 42 H -0.797086 -3.3906 1.56735 0
M  V30 43 H -3.03836 -1.35656 1.26789 0
M  V30 44 H -2.32812 0.716884 0.335336 0
M  V30 45 H 0.149982 3.21589 -1.12664 0
M  V30 46 H -2.71245 2.54185 -0.274986 0
M  V30 47 H -4.22322 4.31604 -0.631131 0
M  V30 48 H -4.78616 6.59975 -1.37625 0
M  V30 49 H -2.34533 9.04618 -2.80784 0
M  V30 50 H -0.76871 7.24206 -2.45462 0
M  V30 51 H -0.186399 5.03985 -1.74418 0
M  V30 52 H 1.65791 1.4557 -0.777434 0
M  V30 53 H 2.8996 -2.0022 0.269975 0
M  V30 54 H 3.39838 0.733122 -0.868801 0
M  V30 55 H 4.72328 -2.68541 0.146549 0
M  V30 56 H 6.99566 -3.32031 -0.0881633 0
M  V30 57 H 9.32931 -2.88092 -0.742246 0
M  V30 58 H 8.03699 0.441705 -1.7278 0
M  V30 59 H 5.64731 1.16798 -1.50307 0
M  V30 60 H 0.640757 -2.31332 0.859463 0
M  V30 END ATOM
M  V30 BEGIN BOND
M  V30 1 2 1 2
M  V30 2 1 2 3
M  V30 3 2 3 4
M  V30 4 1 4 5
M  V30 5 2 5 6
M  V30 6 1 6 7
M  V30 7 2 7 8
M  V30 8 1 6 9
M  V30 9 2 9 10
M  V30 10 1 10 11
M  V30 11 2 11 12
M  V30 12 1 12 13
M  V30 13 1 13 14
M  V30 14 2 14 15
M  V30 15 1 15 16
M  V30 16 2 16 17
M  V30 17 1 17 18
M  V30 18 2 18 19
M  V30 19 1 19 20
M  V30 20 2 20 21
M  V30 21 1 19 22
M  V30 22 2 22 23
M  V30 23 2 13 24
M  V30 24 1 24 25
M  V30 25 1 25 26
M  V30 26 2 26 27
M  V30 27 1 27 28
M  V30 28 2 28 29
M  V30 29 1 29 30
M  V30 30 2 30 31
M  V30 31 1 31 32
M  V30 32 2 32 33
M  V30 33 1 31 34
M  V30 34 2 34 35
M  V30 35 2 25 36
M  V30 36 1 8 3
M  V30 37 1 36 11
M  V30 38 1 23 16
M  V30 39 1 35 28
M  V30 40 1 2 37
M  V30 41 1 4 38
M  V30 42 1 5 39
M  V30 43 1 7 40
M  V30 44 1 8 41
M  V30 45 1 9 42
M  V30 46 1 10 43
M  V30 47 1 12 44
M  V30 48 1 14 45
M  V30 49 1 15 46
M  V30 50 1 17 47
M  V30 51 1 18 48
M  V30 52 1 20 49
M  V30 53 1 22 50
M  V30 54 1 23 51
M  V30 55 1 24 52
M  V30 56 1 26 53
M  V30 57 1 27 54
M  V30 58 1 29 55
M  V30 59 1 30 56
M  V30 60 1 32 57
M  V30 61 1 34 58
M  V30 62 1 35 59
M  V30 63 1 36 60
M  V30 END BOND
M  V30 END CTAB
M  END
