
     RDKit          3D

  0  0  0  0  0  0  0  0  0  0999 V3000
M  V30 BEGIN CTAB
M  V30 COUNTS 18 18 0 0 0
M  V30 BEGIN ATOM
M  V30 1 O 1.70079 -2.18153 -0.779438 0
M  V30 2 C 1.26798 -1.54557 0.239502 0
M  V30 3 C 0.342145 -0.425619 0.075316 0
M  V30 4 C 0.853732 0.835953 -0.0764448 0
M  V30 5 C 2.28465 1.09124 -0.0570018 0
M  V30 6 O 3.07468 0.153116 0.105989 0
M  V30 7 C -0.00593561 1.91368 -0.244669 0
M  V30 8 C -1.36597 1.68226 -0.254124 0
M  V30 9 C -1.89044 0.41536 -0.101484 0
M  V30 10 C -1.03002 -0.653773 0.0656311 0
M  V30 11 C -1.54475 -1.9958 0.239428 0
M  V30 12 O -0.768975 -2.96544 0.40602 0
M  V30 13 H 1.62344 -1.88424 1.19292 0
M  V30 14 H 2.6887 2.09407 -0.182842 0
M  V30 15 H 0.393425 2.92882 -0.367446 0
M  V30 16 H -2.04463 2.51865 -0.385159 0
M  V30 17 H -2.97745 0.244021 -0.110709 0
M  V30 18 H -2.60136 -2.2252 0.234515 0
M  V30 END ATOM
M  V30 BEGIN BOND
M  V30 1 2 1 2
M  V30 2 1 2 3
M  V30 3 2 3 4
M  V30 4 1 4 5
M  V30 5 2 5 6
M  V30 6 1 4 7
M  V30 7 2 7 8
M  V30 8 1 8 9
M  V30 9 2 9 10
M  V30 10 1 10 11
M  V30 11 2 11 12
M  V30 12 1 10 3
M  V30 13 1 2 13
M  V30 14 1 5 14
M  V30 15 1 7 15
M  V30 16 1 8 16
M  V30 17 1 9 17
M  V30 18 1 11 18
M  V30 END BOND
M  V30 END CTAB
M  END
