
     RDKit          3D

  0  0  0  0  0  0  0  0  0  0999 V3000
M  V30 BEGIN CTAB
M  V30 COUNTS 114 118 0 0 0
M  V30 BEGIN ATOM
M  V30 1 C 2.60899 -7.66213 3.44734 0
M  V30 2 C 1.9714 -6.59664 2.57609 0
M  V30 3 O 1.10438 -5.80276 3.27753 0
M  V30 4 C 0.47145 -4.80948 2.55244 0
M  V30 5 C 1.37424 -3.82774 1.93105 0
M  V30 6 O 0.828423 -2.7956 1.1882 0
M  V30 7 C -0.00599632 -2.96744 -0.01392 0
M  V30 8 C 0.559687 -3.05736 -1.26191 0
M  V30 9 C 1.98148 -2.76779 -1.72995 0
M  V30 10 C 2.13852 -1.31024 -2.17653 0
M  V30 11 C 2.09113 -1.28181 -3.59326 0
M  V30 12 C 2.05741 -0.132393 -4.33034 0
M  V30 13 C 2.01452 -0.129459 -5.7716 0
M  V30 14 O 2.0069 -1.22349 -6.38577 0
M  V30 15 C 2.06975 1.01374 -3.57112 0
M  V30 16 C 2.11515 1.04832 -2.18421 0
M  V30 17 C 1.92861 2.486 -1.7103 0
M  V30 18 C 0.525086 2.75474 -1.26533 0
M  V30 19 C -0.11032 2.65756 -0.00281727 0
M  V30 20 O 0.70793 2.49196 1.19279 0
M  V30 21 C 1.19845 3.47023 2.02207 0
M  V30 22 C 2.07337 4.52167 1.45555 0
M  V30 23 O 1.5206 5.30785 0.476661 0
M  V30 24 C 0.420508 6.03611 0.901661 0
M  V30 25 C -0.0812447 6.835 -0.282584 0
M  V30 26 C -1.47556 2.74133 0.0149741 0
M  V30 27 C -2.51503 2.47394 1.102 0
M  V30 28 C -2.4638 1.03498 1.58828 0
M  V30 29 C -1.68336 1.02288 2.76093 0
M  V30 30 C -1.23195 -0.0921879 3.39694 0
M  V30 31 C -0.437765 -0.0361697 4.6009 0
M  V30 32 O -0.0400015 -1.07401 5.16128 0
M  V30 33 C -1.61563 -1.24149 2.76811 0
M  V30 34 C -2.39584 -1.31661 1.59311 0
M  V30 35 C -2.34744 -2.77029 1.19416 0
M  V30 36 C -1.39201 -3.05852 0.0650115 0
M  V30 37 C -2.12297 -3.25367 -1.1085 0
M  V30 38 C -1.60706 -3.36141 -2.36966 0
M  V30 39 C -0.243397 -3.25267 -2.39163 0
M  V30 40 C -2.82786 -0.145478 1.0119 0
M  V30 41 O -3.69007 -0.185725 -0.209123 0
M  V30 42 C -5.08926 -0.303309 -0.0424086 0
M  V30 43 C -5.8227 -0.330796 -1.31677 0
M  V30 44 O -5.70429 0.782151 -2.12414 0
M  V30 45 C -6.204 1.92759 -1.4851 0
M  V30 46 C -7.65085 1.78928 -1.12384 0
M  V30 47 C -2.19851 2.93664 -1.18925 0
M  V30 48 C -1.62202 3.04642 -2.4227 0
M  V30 49 C -2.38143 3.264 -3.64082 0
M  V30 50 O -3.62523 3.3709 -3.55553 0
M  V30 51 C -0.258134 2.94564 -2.39822 0
M  V30 52 C 2.1613 -0.14793 -1.43933 0
M  V30 53 O 2.24388 -0.151584 0.00537859 0
M  V30 54 C 3.33389 -0.128646 0.817193 0
M  V30 55 C 4.3204 -1.2363 0.714104 0
M  V30 56 O 5.37378 -1.1044 1.58932 0
M  V30 57 C 6.13421 0.0249423 1.45262 0
M  V30 58 C 6.80559 0.198136 0.124724 0
M  V30 59 H 1.84973 -8.0407 4.14784 0
M  V30 60 H 3.52495 -7.28558 3.94681 0
M  V30 61 H 2.91308 -8.49409 2.78765 0
M  V30 62 H 1.44584 -7.12553 1.75485 0
M  V30 63 H 2.81409 -6.03035 2.08489 0
M  V30 64 H -0.232855 -4.32009 3.28958 0
M  V30 65 H -0.211286 -5.32615 1.84513 0
M  V30 66 H 2.06109 -3.38457 2.65441 0
M  V30 67 H 2.04345 -4.39835 1.21505 0
M  V30 68 H 2.83088 -3.21614 -1.22814 0
M  V30 69 H 2.10701 -3.44775 -2.68238 0
M  V30 70 H 2.09574 -2.20626 -4.19672 0
M  V30 71 H 1.98881 0.780744 -6.34442 0
M  V30 72 H 2.05692 1.93638 -4.19833 0
M  V30 73 H 2.02532 3.1139 -2.66017 0
M  V30 74 H 2.79755 2.94651 -1.24046 0
M  V30 75 H 1.71403 2.94859 2.85247 0
M  V30 76 H 0.293464 3.93069 2.53151 0
M  V30 77 H 3.04395 4.13033 1.10322 0
M  V30 78 H 2.34194 5.22659 2.29963 0
M  V30 79 H -0.406993 5.46728 1.30967 0
M  V30 80 H 0.719482 6.77608 1.6787 0
M  V30 81 H 0.424612 7.81337 -0.369982 0
M  V30 82 H -1.18656 7.00213 -0.200308 0
M  V30 83 H 0.0663123 6.31669 -1.24954 0
M  V30 84 H -3.52998 2.80558 0.817915 0
M  V30 85 H -2.42372 3.20183 1.97876 0
M  V30 86 H -1.41636 2.01415 3.20276 0
M  V30 87 H -0.180592 0.920231 5.02764 0
M  V30 88 H -1.25614 -2.17992 3.26869 0
M  V30 89 H -3.35236 -3.09162 0.889247 0
M  V30 90 H -2.2555 -3.44193 2.09026 0
M  V30 91 H -3.24975 -3.33895 -1.04975 0
M  V30 92 H -2.20533 -3.5161 -3.24884 0
M  V30 93 H 0.228142 -3.33483 -3.40955 0
M  V30 94 H -5.47224 0.486308 0.666773 0
M  V30 95 H -5.26531 -1.26259 0.485868 0
M  V30 96 H -6.91788 -0.477121 -1.10211 0
M  V30 97 H -5.46049 -1.20123 -1.90534 0
M  V30 98 H -6.10601 2.76606 -2.18508 0
M  V30 99 H -5.62866 2.10298 -0.568507 0
M  V30 100 H -7.76764 1.45994 -0.0665526 0
M  V30 101 H -8.11826 2.80627 -1.1731 0
M  V30 102 H -8.2257 1.15755 -1.83063 0
M  V30 103 H -3.3048 3.01549 -1.15762 0
M  V30 104 H -1.8816 3.33177 -4.59887 0
M  V30 105 H 0.166599 3.04078 -3.422 0
M  V30 106 H 3.89894 0.826426 0.622121 0
M  V30 107 H 2.99285 -0.0359661 1.86093 0
M  V30 108 H 4.77219 -1.24298 -0.318736 0
M  V30 109 H 3.87711 -2.24374 0.858374 0
M  V30 110 H 5.61429 0.972849 1.7016 0
M  V30 111 H 6.97245 -0.029807 2.20993 0
M  V30 112 H 7.83946 0.640948 0.241616 0
M  V30 113 H 6.96963 -0.802116 -0.367929 0
M  V30 114 H 6.26878 0.909533 -0.53446 0
M  V30 END ATOM
M  V30 BEGIN BOND
M  V30 1 1 1 2
M  V30 2 1 2 3
M  V30 3 1 3 4
M  V30 4 1 4 5
M  V30 5 1 5 6
M  V30 6 1 6 7
M  V30 7 2 7 8
M  V30 8 1 8 9
M  V30 9 1 9 10
M  V30 10 2 10 11
M  V30 11 1 11 12
M  V30 12 1 12 13
M  V30 13 2 13 14
M  V30 14 2 12 15
M  V30 15 1 15 16
M  V30 16 1 16 17
M  V30 17 1 17 18
M  V30 18 2 18 19
M  V30 19 1 19 20
M  V30 20 1 20 21
M  V30 21 1 21 22
M  V30 22 1 22 23
M  V30 23 1 23 24
M  V30 24 1 24 25
M  V30 25 1 19 26
M  V30 26 1 26 27
M  V30 27 1 27 28
M  V30 28 2 28 29
M  V30 29 1 29 30
M  V30 30 1 30 31
M  V30 31 2 31 32
M  V30 32 2 30 33
M  V30 33 1 33 34
M  V30 34 1 34 35
M  V30 35 1 35 36
M  V30 36 2 36 37
M  V30 37 1 37 38
M  V30 38 2 38 39
M  V30 39 2 34 40
M  V30 40 1 40 41
M  V30 41 1 41 42
M  V30 42 1 42 43
M  V30 43 1 43 44
M  V30 44 1 44 45
M  V30 45 1 45 46
M  V30 46 2 26 47
M  V30 47 1 47 48
M  V30 48 1 48 49
M  V30 49 2 49 50
M  V30 50 2 48 51
M  V30 51 2 16 52
M  V30 52 1 52 53
M  V30 53 1 53 54
M  V30 54 1 54 55
M  V30 55 1 55 56
M  V30 56 1 56 57
M  V30 57 1 57 58
M  V30 58 1 36 7
M  V30 59 1 39 8
M  V30 60 1 52 10
M  V30 61 1 51 18
M  V30 62 1 40 28
M  V30 63 1 1 59
M  V30 64 1 1 60
M  V30 65 1 1 61
M  V30 66 1 2 62
M  V30 67 1 2 63
M  V30 68 1 4 64
M  V30 69 1 4 65
M  V30 70 1 5 66
M  V30 71 1 5 67
M  V30 72 1 9 68
M  V30 73 1 9 69
M  V30 74 1 11 70
M  V30 75 1 13 71
M  V30 76 1 15 72
M  V30 77 1 17 73
M  V30 78 1 17 74
M  V30 79 1 21 75
M  V30 80 1 21 76
M  V30 81 1 22 77
M  V30 82 1 22 78
M  V30 83 1 24 79
M  V30 84 1 24 80
M  V30 85 1 25 81
M  V30 86 1 25 82
M  V30 87 1 25 83
M  V30 88 1 27 84
M  V30 89 1 27 85
M  V30 90 1 29 86
M  V30 91 1 31 87
M  V30 92 1 33 88
M  V30 93 1 35 89
M  V30 94 1 35 90
M  V30 95 1 37 91
M  V30 96 1 38 92
M  V30 97 1 39 93
M  V30 98 1 42 94
M  V30 99 1 42 95
M  V30 100 1 43 96
M  V30 101 1 43 97
M  V30 102 1 45 98
M  V30 103 1 45 99
M  V30 104 1 46 100
M  V30 105 1 46 101
M  V30 106 1 46 102
M  V30 107 1 47 103
M  V30 108 1 49 104
M  V30 109 1 51 105
M  V30 110 1 54 106
M  V30 111 1 54 107
M  V30 112 1 55 108
M  V30 113 1 55 109
M  V30 114 1 57 110
M  V30 115 1 57 111
M  V30 116 1 58 112
M  V30 117 1 58 113
M  V30 118 1 58 114
M  V30 END BOND
M  V30 END CTAB
M  END
