
     RDKit          3D

  0  0  0  0  0  0  0  0  0  0999 V3000
M  V30 BEGIN CTAB
M  V30 COUNTS 11 10 0 0 0
M  V30 BEGIN ATOM
M  V30 1 O 1.71724 0.581878 1.1771 0
M  V30 2 C 1.43021 0.0172263 0.137806 0
M  V30 3 C 0.0476411 0.028504 -0.371325 0
M  V30 4 C -0.744529 1.17565 0.0870268 0
M  V30 5 O -1.3405 1.19753 1.16093 0
M  V30 6 C -0.693486 -1.22432 -0.035827 0
M  V30 7 O -0.489769 -1.85655 0.963958 0
M  V30 8 H 2.24046 -0.483661 -0.377693 0
M  V30 9 H 0.124469 0.0662914 -1.49754 0
M  V30 10 H -0.841104 2.076 -0.516274 0
M  V30 11 H -1.45063 -1.57854 -0.728163 0
M  V30 END ATOM
M  V30 BEGIN BOND
M  V30 1 2 1 2
M  V30 2 1 2 3
M  V30 3 1 3 4
M  V30 4 2 4 5
M  V30 5 1 3 6
M  V30 6 2 6 7
M  V30 7 1 2 8
M  V30 8 1 3 9
M  V30 9 1 4 10
M  V30 10 1 6 11
M  V30 END BOND
M  V30 END CTAB
M  END
