
     RDKit          3D

  0  0  0  0  0  0  0  0  0  0999 V3000
M  V30 BEGIN CTAB
M  V30 COUNTS 76 79 0 0 0
M  V30 BEGIN ATOM
M  V30 1 C 2.37235 -0.275517 -1.0444 0 CFG=1
M  V30 2 C 2.22153 -1.5355 -1.89552 0
M  V30 3 C 0.819055 -2.08115 -1.55275 0
M  V30 4 C 0.241333 -0.921827 -0.872038 0 CFG=1
M  V30 5 C -0.947785 -0.977608 -0.0550323 0 CFG=2
M  V30 6 C -2.05309 -1.87041 -0.441223 0 CFG=1
M  V30 7 C -3.28349 -1.05822 -0.85026 0
M  V30 8 C -3.68472 -0.297781 0.424213 0 CFG=2
M  V30 9 C -5.07099 0.186847 0.324422 0
M  V30 10 C -5.30666 1.6173 0.0426884 0 CFG=1
M  V30 11 C -4.044 2.27572 -0.465776 0
M  V30 12 C -3.04852 2.12562 0.663965 0
M  V30 13 C -2.63937 0.668156 0.841232 0 CFG=1
M  V30 14 C -2.34012 0.520794 2.34127 0
M  V30 15 C -1.39394 0.494113 0.05939 0 CFG=1
M  V30 16 C -0.223411 1.289 0.483814 0
M  V30 17 C 0.983647 0.510172 0.927703 0 CFG=2
M  V30 18 O 1.97273 1.469 1.29538 0
M  V30 19 C 2.39908 1.69217 2.57366 0
M  V30 20 O 1.89233 1.01103 3.50544 0
M  V30 21 C 1.44264 -0.549715 0.0393251 0 CFG=2
M  V30 22 C 1.77703 -1.82476 0.814853 0
M  V30 23 O -6.40694 1.84452 -0.793229 0
M  V30 24 C -7.51181 2.581 -0.399629 0
M  V30 25 O -7.50471 3.0556 0.762199 0
M  V30 26 O -1.79613 -2.7708 -1.4743 0
M  V30 27 C -1.9796 -4.14733 -1.36664 0
M  V30 28 O -2.4043 -4.56776 -0.254606 0
M  V30 29 C 3.77363 0.091072 -0.809124 0 CFG=2
M  V30 30 C 4.40399 0.333499 -2.18343 0
M  V30 31 C 4.64442 -0.843937 -0.0795935 0
M  V30 32 C 6.04133 -0.292632 0.0441176 0
M  V30 33 C 6.10742 1.01253 0.785648 0
M  V30 34 O 7.45747 1.44082 0.864802 0
M  V30 35 H 1.92914 0.532018 -1.6766 0
M  V30 36 H 2.31006 -1.27213 -2.96498 0
M  V30 37 H 3.00219 -2.27846 -1.68937 0
M  V30 38 H 0.363757 -2.31074 -2.55961 0
M  V30 39 H 0.927488 -3.00724 -0.966403 0
M  V30 40 H 0.184537 -0.0952995 -1.64649 0
M  V30 41 H -0.670192 -1.21438 1.01718 0
M  V30 42 H -2.41757 -2.49157 0.431536 0
M  V30 43 H -4.13751 -1.73815 -1.08206 0
M  V30 44 H -3.1148 -0.415627 -1.70161 0
M  V30 45 H -3.68857 -1.12493 1.20238 0
M  V30 46 H -5.689 -0.0898593 1.23145 0
M  V30 47 H -5.57997 -0.400803 -0.499479 0
M  V30 48 H -5.53028 2.13708 1.02105 0
M  V30 49 H -3.69054 1.89407 -1.42097 0
M  V30 50 H -4.26227 3.3633 -0.555317 0
M  V30 51 H -3.54157 2.52487 1.5794 0
M  V30 52 H -2.19197 2.77086 0.440644 0
M  V30 53 H -3.32843 0.36222 2.84413 0
M  V30 54 H -1.75002 -0.385324 2.53445 0
M  V30 55 H -1.9259 1.4404 2.76961 0
M  V30 56 H -1.62268 0.786314 -1.00916 0
M  V30 57 H -0.527195 1.92647 1.3655 0
M  V30 58 H 0.140218 2.02726 -0.281138 0
M  V30 59 H 0.680403 0.0308618 1.9097 0
M  V30 60 H 3.14963 2.41942 2.85205 0
M  V30 61 H 2.51992 -2.45266 0.279103 0
M  V30 62 H 0.913258 -2.4694 0.994781 0
M  V30 63 H 2.12512 -1.48471 1.81533 0
M  V30 64 H -8.32571 2.71563 -1.1009 0
M  V30 65 H -1.78879 -4.84731 -2.14387 0
M  V30 66 H 3.8038 1.0788 -0.302458 0
M  V30 67 H 5.18248 1.12518 -2.13652 0
M  V30 68 H 4.80458 -0.586073 -2.6251 0
M  V30 69 H 3.6349 0.726057 -2.90771 0
M  V30 70 H 4.32149 -1.04527 0.97357 0
M  V30 71 H 4.74376 -1.84888 -0.540446 0
M  V30 72 H 6.6912 -1.06319 0.556423 0
M  V30 73 H 6.5267 -0.146088 -0.943252 0
M  V30 74 H 5.64929 0.908219 1.77212 0
M  V30 75 H 5.58796 1.79218 0.186434 0
M  V30 76 H 7.68071 2.00287 0.060329 0
M  V30 END ATOM
M  V30 BEGIN BOND
M  V30 1 1 1 2
M  V30 2 1 2 3
M  V30 3 1 3 4
M  V30 4 1 4 5
M  V30 5 1 5 6
M  V30 6 1 6 7
M  V30 7 1 7 8
M  V30 8 1 8 9
M  V30 9 1 9 10
M  V30 10 1 10 11
M  V30 11 1 11 12
M  V30 12 1 12 13
M  V30 13 1 13 14 CFG=1
M  V30 14 1 13 15
M  V30 15 1 15 16
M  V30 16 1 16 17
M  V30 17 1 17 18
M  V30 18 1 18 19
M  V30 19 2 19 20
M  V30 20 1 17 21
M  V30 21 1 21 22 CFG=1
M  V30 22 1 10 23
M  V30 23 1 23 24
M  V30 24 2 24 25
M  V30 25 1 6 26
M  V30 26 1 26 27
M  V30 27 2 27 28
M  V30 28 1 1 29
M  V30 29 1 29 30
M  V30 30 1 29 31
M  V30 31 1 31 32
M  V30 32 1 32 33
M  V30 33 1 33 34
M  V30 34 1 21 1
M  V30 35 1 21 4
M  V30 36 1 15 5
M  V30 37 1 13 8
M  V30 38 1 1 35 CFG=3
M  V30 39 1 2 36
M  V30 40 1 2 37
M  V30 41 1 3 38
M  V30 42 1 3 39
M  V30 43 1 4 40 CFG=3
M  V30 44 1 5 41 CFG=1
M  V30 45 1 6 42 CFG=1
M  V30 46 1 7 43
M  V30 47 1 7 44
M  V30 48 1 8 45 CFG=1
M  V30 49 1 9 46
M  V30 50 1 9 47
M  V30 51 1 10 48 CFG=1
M  V30 52 1 11 49
M  V30 53 1 11 50
M  V30 54 1 12 51
M  V30 55 1 12 52
M  V30 56 1 14 53
M  V30 57 1 14 54
M  V30 58 1 14 55
M  V30 59 1 15 56 CFG=3
M  V30 60 1 16 57
M  V30 61 1 16 58
M  V30 62 1 17 59 CFG=1
M  V30 63 1 19 60
M  V30 64 1 22 61
M  V30 65 1 22 62
M  V30 66 1 22 63
M  V30 67 1 24 64
M  V30 68 1 27 65
M  V30 69 1 29 66 CFG=1
M  V30 70 1 30 67
M  V30 71 1 30 68
M  V30 72 1 30 69
M  V30 73 1 31 70
M  V30 74 1 31 71
M  V30 75 1 32 72
M  V30 76 1 32 73
M  V30 77 1 33 74
M  V30 78 1 33 75
M  V30 79 1 34 76
M  V30 END BOND
M  V30 END CTAB
M  END
