
     RDKit          3D

  0  0  0  0  0  0  0  0  0  0999 V3000
M  V30 BEGIN CTAB
M  V30 COUNTS 18 18 0 0 0
M  V30 BEGIN ATOM
M  V30 1 Cl -2.97015 0.734111 0.123409 0
M  V30 2 C -1.27631 0.295561 0.0289404 0
M  V30 3 C -0.33941 1.29477 -0.077858 0
M  V30 4 C -0.725334 2.69914 -0.141084 0
M  V30 5 O -1.90657 3.11765 -0.100233 0
M  V30 6 C 1.00471 0.936807 -0.13191 0
M  V30 7 Cl 2.23755 2.18476 -0.256448 0
M  V30 8 C 1.35403 -0.392329 -0.0733841 0
M  V30 9 C 2.75614 -0.743255 -0.122413 0
M  V30 10 O 3.40576 -0.975657 0.936929 0
M  V30 11 C 0.401492 -1.394 0.0361793 0
M  V30 12 C -0.930194 -1.04568 0.0845014 0
M  V30 13 C -2.00108 -2.04789 0.199111 0
M  V30 14 O -2.59617 -2.20248 1.32801 0
M  V30 15 H 0.0370078 3.45202 -0.224313 0
M  V30 16 H 3.23906 -0.803619 -1.08227 0
M  V30 17 H 0.638065 -2.44255 0.0727545 0
M  V30 18 H -2.32859 -2.66734 -0.599922 0
M  V30 END ATOM
M  V30 BEGIN BOND
M  V30 1 1 1 2
M  V30 2 2 2 3
M  V30 3 1 3 4
M  V30 4 2 4 5
M  V30 5 1 3 6
M  V30 6 1 6 7
M  V30 7 2 6 8
M  V30 8 1 8 9
M  V30 9 2 9 10
M  V30 10 1 8 11
M  V30 11 2 11 12
M  V30 12 1 12 13
M  V30 13 2 13 14
M  V30 14 1 12 2
M  V30 15 1 4 15
M  V30 16 1 9 16
M  V30 17 1 11 17
M  V30 18 1 13 18
M  V30 END BOND
M  V30 END CTAB
M  END
