
     RDKit          3D

  0  0  0  0  0  0  0  0  0  0999 V3000
M  V30 BEGIN CTAB
M  V30 COUNTS 18 18 0 0 0
M  V30 BEGIN ATOM
M  V30 1 Br -3.1802 0.768584 0.190609 0
M  V30 2 C -1.34122 0.319124 0.0887263 0
M  V30 3 C -0.394082 1.33368 0.118589 0
M  V30 4 C -0.799429 2.71759 0.225919 0
M  V30 5 O -1.01152 3.36759 -0.820833 0
M  V30 6 C 0.946351 0.998771 0.0438515 0
M  V30 7 Br 2.20862 2.42223 0.0883746 0
M  V30 8 C 1.34946 -0.318963 -0.0590375 0
M  V30 9 C 2.76138 -0.633964 -0.135272 0
M  V30 10 O 3.49331 -0.856116 0.854154 0
M  V30 11 C 0.371714 -1.29545 -0.0851837 0
M  V30 12 Br 0.908037 -3.11959 -0.226752 0
M  V30 13 C -0.979481 -0.999163 -0.0125745 0
M  V30 14 C -1.93463 -2.09898 -0.0477459 0
M  V30 15 O -2.4095 -2.52689 -1.13176 0
M  V30 16 H -0.92613 3.21142 1.17148 0
M  V30 17 H 3.22475 -0.682556 -1.11802 0
M  V30 18 H -2.28744 -2.60732 0.855476 0
M  V30 END ATOM
M  V30 BEGIN BOND
M  V30 1 1 1 2
M  V30 2 2 2 3
M  V30 3 1 3 4
M  V30 4 2 4 5
M  V30 5 1 3 6
M  V30 6 1 6 7
M  V30 7 2 6 8
M  V30 8 1 8 9
M  V30 9 2 9 10
M  V30 10 1 8 11
M  V30 11 1 11 12
M  V30 12 2 11 13
M  V30 13 1 13 14
M  V30 14 2 14 15
M  V30 15 1 13 2
M  V30 16 1 4 16
M  V30 17 1 9 17
M  V30 18 1 14 18
M  V30 END BOND
M  V30 END CTAB
M  END
