
     RDKit          3D

 40 42  0  0  0  0  0  0  0  0999 V2000
    1.1624   -0.3222    6.8418 O   0  0  0  0  0  0  0  0  0  0  0  0
    1.8689   -0.5382    5.8652 C   0  0  0  0  0  0  0  0  0  0  0  0
    1.4196   -0.2396    4.4907 C   0  0  0  0  0  0  0  0  0  0  0  0
    0.1632    0.3269    4.2697 C   0  0  0  0  0  0  0  0  0  0  0  0
   -0.2541    0.6048    2.9648 C   0  0  0  0  0  0  0  0  0  0  0  0
    2.2610   -0.5287    3.4156 C   0  0  0  0  0  0  0  0  0  0  0  0
    1.8380   -0.2488    2.1119 C   0  0  0  0  0  0  0  0  0  0  0  0
    0.5746    0.3210    1.8637 C   0  0  0  0  0  0  0  0  0  0  0  0
    0.1415    0.6056    0.5160 N   0  0  0  0  0  0  0  0  0  0  0  0
   -1.2232    0.3413    0.1252 C   0  0  0  0  0  0  0  0  0  0  0  0
   -1.9275    1.2410   -0.6959 C   0  0  0  0  0  0  0  0  0  0  0  0
   -3.2480    0.9848   -1.0766 C   0  0  0  0  0  0  0  0  0  0  0  0
   -3.8833   -0.1783   -0.6388 C   0  0  0  0  0  0  0  0  0  0  0  0
   -5.2773   -0.4587   -1.0365 C   0  0  0  0  0  0  0  0  0  0  0  0
   -5.9103    0.2953   -1.7648 O   0  0  0  0  0  0  0  0  0  0  0  0
   -3.2069   -1.0858    0.1776 C   0  0  0  0  0  0  0  0  0  0  0  0
   -1.8856   -0.8245    0.5551 C   0  0  0  0  0  0  0  0  0  0  0  0
    1.0718    1.1595   -0.4393 C   0  0  0  0  0  0  0  0  0  0  0  0
    1.0839    0.7180   -1.7763 C   0  0  0  0  0  0  0  0  0  0  0  0
    1.9845    1.2503   -2.7050 C   0  0  0  0  0  0  0  0  0  0  0  0
    2.8877    2.2352   -2.3034 C   0  0  0  0  0  0  0  0  0  0  0  0
    3.8377    2.7935   -3.2863 C   0  0  0  0  0  0  0  0  0  0  0  0
    4.6622    3.6463   -2.9825 O   0  0  0  0  0  0  0  0  0  0  0  0
    2.8940    2.6896   -0.9836 C   0  0  0  0  0  0  0  0  0  0  0  0
    1.9915    2.1544   -0.0600 C   0  0  0  0  0  0  0  0  0  0  0  0
    2.8778   -0.9707    5.9713 H   0  0  0  0  0  0  0  0  0  0  0  0
   -0.4913    0.5589    5.1078 H   0  0  0  0  0  0  0  0  0  0  0  0
   -1.2280    1.0662    2.8151 H   0  0  0  0  0  0  0  0  0  0  0  0
    3.2409   -0.9720    3.5727 H   0  0  0  0  0  0  0  0  0  0  0  0
    2.4978   -0.4961    1.2828 H   0  0  0  0  0  0  0  0  0  0  0  0
   -1.4576    2.1635   -1.0301 H   0  0  0  0  0  0  0  0  0  0  0  0
   -3.7765    1.6964   -1.7081 H   0  0  0  0  0  0  0  0  0  0  0  0
   -5.7244   -1.3879   -0.6453 H   0  0  0  0  0  0  0  0  0  0  0  0
   -3.6882   -1.9967    0.5239 H   0  0  0  0  0  0  0  0  0  0  0  0
   -1.3655   -1.5500    1.1774 H   0  0  0  0  0  0  0  0  0  0  0  0
    0.3978   -0.0622   -2.0998 H   0  0  0  0  0  0  0  0  0  0  0  0
    1.9700    0.8851   -3.7285 H   0  0  0  0  0  0  0  0  0  0  0  0
    3.7704    2.4012   -4.3149 H   0  0  0  0  0  0  0  0  0  0  0  0
    3.5936    3.4625   -0.6708 H   0  0  0  0  0  0  0  0  0  0  0  0
    1.9980    2.5372    0.9584 H   0  0  0  0  0  0  0  0  0  0  0  0
  1  2  2  0
  2  3  1  0
  3  4  2  0
  4  5  1  0
  3  6  1  0
  6  7  2  0
  7  8  1  0
  8  9  1  0
  9 10  1  0
 10 11  2  0
 11 12  1  0
 12 13  2  0
 13 14  1  0
 14 15  2  0
 13 16  1  0
 16 17  2  0
  9 18  1  0
 18 19  2  0
 19 20  1  0
 20 21  2  0
 21 22  1  0
 22 23  2  0
 21 24  1  0
 24 25  2  0
  8  5  2  0
 17 10  1  0
 25 18  1  0
  2 26  1  0
  4 27  1  0
  5 28  1  0
  6 29  1  0
  7 30  1  0
 11 31  1  0
 12 32  1  0
 14 33  1  0
 16 34  1  0
 17 35  1  0
 19 36  1  0
 20 37  1  0
 22 38  1  0
 24 39  1  0
 25 40  1  0
M  END
