
     RDKit          3D

  0  0  0  0  0  0  0  0  0  0999 V3000
M  V30 BEGIN CTAB
M  V30 COUNTS 18 18 0 0 0
M  V30 BEGIN ATOM
M  V30 1 Cl -3.01986 -0.811417 0.206821 0
M  V30 2 C -1.31931 -0.352305 0.0837327 0
M  V30 3 C -0.340391 -1.31206 -0.011665 0
M  V30 4 C -0.741416 -2.70601 0.0115676 0
M  V30 5 O -0.983074 -3.26699 1.11614 0
M  V30 6 C 0.999866 -0.963344 -0.107723 0
M  V30 7 C 1.40846 0.35691 -0.119318 0
M  V30 8 C 2.81536 0.762194 -0.203681 0
M  V30 9 O 3.75054 -0.0395226 -0.240806 0
M  V30 10 C 0.39451 1.30269 -0.0209632 0
M  V30 11 C -0.933109 0.975879 0.0741937 0
M  V30 12 C -1.9472 2.02278 0.156584 0
M  V30 13 O -3.16873 1.7662 0.239682 0
M  V30 14 H -0.834461 -3.25096 -0.908798 0
M  V30 15 H 1.7635 -1.71992 -0.174189 0
M  V30 16 H 3.05391 1.82735 -0.231254 0
M  V30 17 H 0.742217 2.34199 -0.0211404 0
M  V30 18 H -1.64081 3.06654 0.150813 0
M  V30 END ATOM
M  V30 BEGIN BOND
M  V30 1 1 1 2
M  V30 2 2 2 3
M  V30 3 1 3 4
M  V30 4 2 4 5
M  V30 5 1 3 6
M  V30 6 2 6 7
M  V30 7 1 7 8
M  V30 8 2 8 9
M  V30 9 1 7 10
M  V30 10 2 10 11
M  V30 11 1 11 12
M  V30 12 2 12 13
M  V30 13 1 11 2
M  V30 14 1 4 14
M  V30 15 1 6 15
M  V30 16 1 8 16
M  V30 17 1 10 17
M  V30 18 1 12 18
M  V30 END BOND
M  V30 END CTAB
M  END
