
     RDKit          3D

  0  0  0  0  0  0  0  0  0  0999 V3000
M  V30 BEGIN CTAB
M  V30 COUNTS 129 138 0 0 0
M  V30 BEGIN ATOM
M  V30 1 C 4.73381 -3.45727 -4.04047 0
M  V30 2 O 4.55994 -2.21531 -3.57559 0
M  V30 3 C 3.77382 -1.51921 -2.74699 0
M  V30 4 C 4.20844 -0.175678 -2.55996 0
M  V30 5 O 5.34231 0.123038 -3.23341 0
M  V30 6 C 6.22616 1.22755 -2.85156 0
M  V30 7 C 6.6971 0.660511 -1.55331 0
M  V30 8 O 7.48639 0.888195 -0.609688 0
M  V30 9 C 8.64209 1.00772 -0.0189119 0
M  V30 10 C 8.86513 1.35887 1.28045 0
M  V30 11 C 10.0919 1.4227 1.90418 0
M  V30 12 C 11.208 1.11318 1.21073 0
M  V30 13 C 12.4765 1.05591 1.7957 0
M  V30 14 C 13.5892 0.673656 1.11708 0
M  V30 15 C 14.8921 0.509645 1.69407 0
M  V30 16 O 15.0846 0.647534 2.9186 0
M  V30 17 C 13.4553 0.317597 -0.245464 0
M  V30 18 C 12.224 0.363067 -0.816324 0
M  V30 19 C 11.0903 0.738474 -0.153498 0
M  V30 20 C 9.84349 0.702233 -0.715936 0
M  V30 21 C 3.49975 0.627147 -1.72639 0
M  V30 22 C 2.36828 0.199154 -1.03567 0
M  V30 23 C 1.61159 1.02702 -0.131351 0
M  V30 24 C 0.39546 1.72254 -0.596604 0
M  V30 25 C -0.00813391 2.78713 0.242816 0
M  V30 26 C -1.05219 3.55465 0.0170666 0
M  V30 27 O -1.35828 4.59081 0.943533 0
M  V30 28 C -0.528867 4.7132 2.0821 0
M  V30 29 C -1.89793 3.377 -1.13618 0
M  V30 30 O -2.85071 4.28728 -1.07646 0
M  V30 31 C -3.96202 4.74276 -1.85128 0
M  V30 32 C -4.62749 5.73516 -1.03543 0
M  V30 33 O -5.18738 6.59892 -0.331941 0
M  V30 34 C -5.93505 7.37167 0.362015 0
M  V30 35 C -4.97761 8.40615 0.982549 0
M  V30 36 C -5.48851 9.33055 1.77974 0
M  V30 37 C -6.87448 9.42584 2.08624 0
M  V30 38 C -7.17125 10.4785 2.92013 0
M  V30 39 C -8.60051 10.5419 3.18248 0
M  V30 40 C -9.00166 11.6371 4.07174 0
M  V30 41 O -10.2337 11.8124 4.28464 0
M  V30 42 C -9.37488 9.67657 2.6552 0
M  V30 43 C -9.09713 8.60018 1.8115 0
M  V30 44 C -7.66378 8.51336 1.52805 0
M  V30 45 C -7.15703 7.5415 0.697706 0
M  V30 46 C -1.52715 2.37529 -1.94386 0
M  V30 47 C -0.397939 1.55435 -1.6758 0
M  V30 48 C -0.277003 0.391323 -2.64344 0
M  V30 49 C -0.967088 -0.778708 -1.99796 0
M  V30 50 C -2.32758 -0.957485 -2.39085 0
M  V30 51 C -3.12656 -1.88189 -1.77019 0
M  V30 52 O -4.48303 -2.06126 -2.12772 0
M  V30 53 C -4.90095 -1.08644 -3.13803 0
M  V30 54 C -2.6419 -2.66373 -0.758769 0
M  V30 55 O -3.48964 -3.575 -0.103458 0
M  V30 56 C -3.20508 -4.06793 1.14452 0
M  V30 57 C -3.86346 -5.28823 1.6078 0
M  V30 58 O -3.42601 -6.47563 0.953537 0
M  V30 59 C -3.94698 -7.72662 1.16127 0
M  V30 60 C -5.10542 -8.03193 1.80705 0
M  V30 61 C -5.5513 -9.30831 2.06037 0
M  V30 62 C -4.7503 -10.388 1.60861 0
M  V30 63 C -5.12266 -11.6671 1.95587 0
M  V30 64 C -4.32273 -12.7577 1.65621 0
M  V30 65 C -4.68084 -14.0868 2.05437 0
M  V30 66 O -3.79064 -15.0128 1.80479 0
M  V30 67 C -3.1279 -12.4898 0.98733 0
M  V30 68 C -2.78067 -11.1803 0.649293 0
M  V30 69 C -3.61101 -10.0977 0.970668 0
M  V30 70 C -3.15182 -8.8103 0.708968 0
M  V30 71 C -1.3306 -2.50134 -0.381638 0
M  V30 72 C -0.50322 -1.54285 -1.01585 0
M  V30 73 C 0.891745 -1.66839 -0.464596 0
M  V30 74 C 1.98087 -1.14185 -1.2412 0
M  V30 75 C 2.686 -1.98265 -2.0902 0
M  V30 76 H 5.36398 -3.37051 -5.0376 0
M  V30 77 H 5.44596 -4.09802 -3.42069 0
M  V30 78 H 3.88727 -4.05597 -4.39074 0
M  V30 79 H 7.01579 1.38947 -3.57291 0
M  V30 80 H 5.62963 2.13665 -2.72409 0
M  V30 81 H 5.70873 0.229897 -1.05889 0
M  V30 82 H 7.02483 -0.492887 -1.91438 0
M  V30 83 H 7.99811 1.66077 1.91254 0
M  V30 84 H 10.1606 1.72541 2.95906 0
M  V30 85 H 12.566 1.31643 2.84514 0
M  V30 86 H 15.7465 0.261332 1.05862 0
M  V30 87 H 14.3169 0.0167061 -0.80385 0
M  V30 88 H 12.1346 0.0866728 -1.8403 0
M  V30 89 H 9.7138 0.450278 -1.76817 0
M  V30 90 H 3.82244 1.67496 -1.60448 0
M  V30 91 H 2.32963 1.86176 0.179935 0
M  V30 92 H 1.45336 0.532194 0.879722 0
M  V30 93 H 0.59723 2.9278 1.16155 0
M  V30 94 H 0.54047 4.86446 1.76445 0
M  V30 95 H -0.816424 5.57837 2.68137 0
M  V30 96 H -0.646321 3.78975 2.71992 0
M  V30 97 H -3.48697 5.25568 -2.77079 0
M  V30 98 H -4.52881 3.89353 -2.20186 0
M  V30 99 H -3.66921 5.60409 -0.0475787 0
M  V30 100 H -3.68902 6.70102 -1.39884 0
M  V30 101 H -3.96862 8.25552 0.735524 0
M  V30 102 H -4.83937 10.061 2.28192 0
M  V30 103 H -6.54097 11.1697 3.32869 0
M  V30 104 H -8.24501 12.2628 4.52808 0
M  V30 105 H -10.4999 9.74065 2.84653 0
M  V30 106 H -9.71316 7.90034 1.40642 0
M  V30 107 H -7.96006 6.83409 0.311038 0
M  V30 108 H -2.09843 2.20308 -2.86411 0
M  V30 109 H 0.725396 0.228278 -3.0086 0
M  V30 110 H -0.844174 0.661111 -3.59526 0
M  V30 111 H -2.69945 -0.328721 -3.19251 0
M  V30 112 H -5.96447 -1.29667 -3.30153 0
M  V30 113 H -4.87548 -0.0790773 -2.63559 0
M  V30 114 H -4.2153 -1.20616 -3.96457 0
M  V30 115 H -2.07587 -4.0969 1.37726 0
M  V30 116 H -3.58879 -3.23323 1.85452 0
M  V30 117 H -3.71794 -5.43445 2.72742 0
M  V30 118 H -4.94993 -5.2079 1.50419 0
M  V30 119 H -5.75993 -7.18098 2.13119 0
M  V30 120 H -6.4365 -9.56026 2.56778 0
M  V30 121 H -6.06027 -11.8649 2.46317 0
M  V30 122 H -5.54264 -14.4152 2.50622 0
M  V30 123 H -2.47726 -13.2925 0.723678 0
M  V30 124 H -1.84768 -10.9512 0.126575 0
M  V30 125 H -2.25652 -8.68704 0.185781 0
M  V30 126 H -0.934041 -3.10712 0.396961 0
M  V30 127 H 0.796775 -1.32665 0.572384 0
M  V30 128 H 1.11075 -2.79098 -0.320206 0
M  V30 129 H 2.39357 -3.02761 -2.21309 0
M  V30 END ATOM
M  V30 BEGIN BOND
M  V30 1 1 1 2
M  V30 2 1 2 3
M  V30 3 2 3 4
M  V30 4 1 4 5
M  V30 5 1 5 6
M  V30 6 1 6 7
M  V30 7 1 7 8
M  V30 8 1 8 9
M  V30 9 2 9 10
M  V30 10 1 10 11
M  V30 11 2 11 12
M  V30 12 1 12 13
M  V30 13 2 13 14
M  V30 14 1 14 15
M  V30 15 2 15 16
M  V30 16 1 14 17
M  V30 17 2 17 18
M  V30 18 1 18 19
M  V30 19 2 19 20
M  V30 20 1 4 21
M  V30 21 2 21 22
M  V30 22 1 22 23
M  V30 23 1 23 24
M  V30 24 2 24 25
M  V30 25 1 25 26
M  V30 26 1 26 27
M  V30 27 1 27 28
M  V30 28 2 26 29
M  V30 29 1 29 30
M  V30 30 1 30 31
M  V30 31 1 31 32
M  V30 32 1 32 33
M  V30 33 1 33 34
M  V30 34 2 34 35
M  V30 35 1 35 36
M  V30 36 2 36 37
M  V30 37 1 37 38
M  V30 38 2 38 39
M  V30 39 1 39 40
M  V30 40 2 40 41
M  V30 41 1 39 42
M  V30 42 2 42 43
M  V30 43 1 43 44
M  V30 44 2 44 45
M  V30 45 1 29 46
M  V30 46 2 46 47
M  V30 47 1 47 48
M  V30 48 1 48 49
M  V30 49 2 49 50
M  V30 50 1 50 51
M  V30 51 1 51 52
M  V30 52 1 52 53
M  V30 53 2 51 54
M  V30 54 1 54 55
M  V30 55 1 55 56
M  V30 56 1 56 57
M  V30 57 1 57 58
M  V30 58 1 58 59
M  V30 59 2 59 60
M  V30 60 1 60 61
M  V30 61 2 61 62
M  V30 62 1 62 63
M  V30 63 2 63 64
M  V30 64 1 64 65
M  V30 65 2 65 66
M  V30 66 1 64 67
M  V30 67 2 67 68
M  V30 68 1 68 69
M  V30 69 2 69 70
M  V30 70 1 54 71
M  V30 71 2 71 72
M  V30 72 1 72 73
M  V30 73 1 73 74
M  V30 74 2 74 75
M  V30 75 1 75 3
M  V30 76 1 20 9
M  V30 77 1 74 22
M  V30 78 1 19 12
M  V30 79 1 47 24
M  V30 80 1 72 49
M  V30 81 1 45 34
M  V30 82 1 70 59
M  V30 83 1 44 37
M  V30 84 1 69 62
M  V30 85 1 1 76
M  V30 86 1 1 77
M  V30 87 1 1 78
M  V30 88 1 6 79
M  V30 89 1 6 80
M  V30 90 1 7 81
M  V30 91 1 7 82
M  V30 92 1 10 83
M  V30 93 1 11 84
M  V30 94 1 13 85
M  V30 95 1 15 86
M  V30 96 1 17 87
M  V30 97 1 18 88
M  V30 98 1 20 89
M  V30 99 1 21 90
M  V30 100 1 23 91
M  V30 101 1 23 92
M  V30 102 1 25 93
M  V30 103 1 28 94
M  V30 104 1 28 95
M  V30 105 1 28 96
M  V30 106 1 31 97
M  V30 107 1 31 98
M  V30 108 1 32 99
M  V30 109 1 32 100
M  V30 110 1 35 101
M  V30 111 1 36 102
M  V30 112 1 38 103
M  V30 113 1 40 104
M  V30 114 1 42 105
M  V30 115 1 43 106
M  V30 116 1 45 107
M  V30 117 1 46 108
M  V30 118 1 48 109
M  V30 119 1 48 110
M  V30 120 1 50 111
M  V30 121 1 53 112
M  V30 122 1 53 113
M  V30 123 1 53 114
M  V30 124 1 56 115
M  V30 125 1 56 116
M  V30 126 1 57 117
M  V30 127 1 57 118
M  V30 128 1 60 119
M  V30 129 1 61 120
M  V30 130 1 63 121
M  V30 131 1 65 122
M  V30 132 1 67 123
M  V30 133 1 68 124
M  V30 134 1 70 125
M  V30 135 1 71 126
M  V30 136 1 73 127
M  V30 137 1 73 128
M  V30 138 1 75 129
M  V30 END BOND
M  V30 END CTAB
M  END
