
     RDKit          3D

  0  0  0  0  0  0  0  0  0  0999 V3000
M  V30 BEGIN CTAB
M  V30 COUNTS 24 23 0 0 0
M  V30 BEGIN ATOM
M  V30 1 O 4.53927 -0.450098 -0.714062 0
M  V30 2 C 3.52066 -0.189431 -1.40383 0
M  V30 3 O 2.38419 0.206444 -0.709411 0
M  V30 4 C 2.31022 0.328333 0.675208 0
M  V30 5 C 0.9146 0.780065 1.04942 0
M  V30 6 N -0.10907 -0.182923 0.604781 0
M  V30 7 C -0.746289 -0.0372975 -0.662846 0
M  V30 8 C -1.89206 0.88535 -0.760556 0
M  V30 9 O -3.03424 0.683652 -0.0197495 0
M  V30 10 C -3.84737 -0.405663 -0.231545 0
M  V30 11 O -3.51306 -1.21654 -1.13024 0
M  V30 12 C -0.421044 -1.2005 1.52797 0
M  V30 13 O -1.23754 -2.11469 1.27386 0
M  V30 14 H 3.46653 -0.249463 -2.47013 0
M  V30 15 H 3.0039 1.11098 1.07932 0
M  V30 16 H 2.59483 -0.604148 1.20774 0
M  V30 17 H 0.792249 0.932219 2.12461 0
M  V30 18 H 0.6629 1.72521 0.527259 0
M  V30 19 H -1.07606 -1.05403 -1.01725 0
M  V30 20 H 0.0387308 0.333605 -1.39021 0
M  V30 21 H -2.11757 0.982417 -1.87606 0
M  V30 22 H -1.56119 1.9566 -0.523137 0
M  V30 23 H -4.75323 -0.609356 0.323355 0
M  V30 24 H 0.0806383 -1.18321 2.5155 0
M  V30 END ATOM
M  V30 BEGIN BOND
M  V30 1 2 1 2
M  V30 2 1 2 3
M  V30 3 1 3 4
M  V30 4 1 4 5
M  V30 5 1 5 6
M  V30 6 1 6 7
M  V30 7 1 7 8
M  V30 8 1 8 9
M  V30 9 1 9 10
M  V30 10 2 10 11
M  V30 11 1 6 12
M  V30 12 2 12 13
M  V30 13 1 2 14
M  V30 14 1 4 15
M  V30 15 1 4 16
M  V30 16 1 5 17
M  V30 17 1 5 18
M  V30 18 1 7 19
M  V30 19 1 7 20
M  V30 20 1 8 21
M  V30 21 1 8 22
M  V30 22 1 10 23
M  V30 23 1 12 24
M  V30 END BOND
M  V30 END CTAB
M  END
