
     RDKit          3D

  0  0  0  0  0  0  0  0  0  0999 V3000
M  V30 BEGIN CTAB
M  V30 COUNTS 41 43 0 0 0
M  V30 BEGIN ATOM
M  V30 1 C 1.1519 0.344818 -2.56116 0
M  V30 2 C -0.10123 -0.0783916 -1.8795 0
M  V30 3 C -0.0609393 0.0680952 -0.362936 0
M  V30 4 C -1.40355 -0.426977 0.0878002 0
M  V30 5 C -2.47827 0.35934 0.357301 0
M  V30 6 C -3.53644 -0.466275 0.749556 0
M  V30 7 C -3.05527 -1.7574 0.703233 0
M  V30 8 N -1.7776 -1.69835 0.304002 0
M  V30 9 C -3.84532 -2.94244 1.04089 0
M  V30 10 O -3.3561 -4.09693 0.98091 0
M  V30 11 C 1.05048 -0.757671 0.173358 0
M  V30 12 C 1.79943 -0.553434 1.29244 0
M  V30 13 C 2.70692 -1.57111 1.39518 0
M  V30 14 C 2.53011 -2.41634 0.341329 0
M  V30 15 N 1.5253 -1.91053 -0.387629 0
M  V30 16 C 3.3053 -3.63705 0.0826987 0
M  V30 17 O 4.21851 -3.96975 0.869181 0
M  V30 18 C 0.0194097 1.47887 0.0559457 0
M  V30 19 C -0.198978 1.87518 1.3812 0
M  V30 20 C -0.062029 3.22545 1.45744 0
M  V30 21 C 0.236533 3.68903 0.216116 0
M  V30 22 N 0.274045 2.60504 -0.58889 0
M  V30 23 C 0.474878 5.07995 -0.196729 0
M  V30 24 O 0.742947 5.37328 -1.38301 0
M  V30 25 H 1.95676 0.69062 -1.87221 0
M  V30 26 H 0.970476 1.12601 -3.3518 0
M  V30 27 H 1.61914 -0.508649 -3.1335 0
M  V30 28 H -0.287897 -1.15185 -2.09393 0
M  V30 29 H -0.995924 0.472976 -2.22568 0
M  V30 30 H -2.57118 1.42446 0.298154 0
M  V30 31 H -4.53472 -0.159416 1.03339 0
M  V30 32 H -1.14332 -2.51175 0.172462 0
M  V30 33 H -4.87486 -2.85381 1.35191 0
M  V30 34 H 1.72973 0.275018 2.0251 0
M  V30 35 H 3.43384 -1.67485 2.18252 0
M  V30 36 H 1.14875 -2.34224 -1.27592 0
M  V30 37 H 3.10118 -4.25286 -0.77418 0
M  V30 38 H -0.440335 1.25537 2.24041 0
M  V30 39 H -0.16903 3.85088 2.35211 0
M  V30 40 H 0.480736 2.68721 -1.59659 0
M  V30 41 H 0.416635 5.85647 0.539016 0
M  V30 END ATOM
M  V30 BEGIN BOND
M  V30 1 1 1 2
M  V30 2 1 2 3
M  V30 3 1 3 4
M  V30 4 2 4 5
M  V30 5 1 5 6
M  V30 6 2 6 7
M  V30 7 1 7 8
M  V30 8 1 7 9
M  V30 9 2 9 10
M  V30 10 1 3 11
M  V30 11 2 11 12
M  V30 12 1 12 13
M  V30 13 2 13 14
M  V30 14 1 14 15
M  V30 15 1 14 16
M  V30 16 2 16 17
M  V30 17 1 3 18
M  V30 18 2 18 19
M  V30 19 1 19 20
M  V30 20 2 20 21
M  V30 21 1 21 22
M  V30 22 1 21 23
M  V30 23 2 23 24
M  V30 24 1 8 4
M  V30 25 1 15 11
M  V30 26 1 22 18
M  V30 27 1 1 25
M  V30 28 1 1 26
M  V30 29 1 1 27
M  V30 30 1 2 28
M  V30 31 1 2 29
M  V30 32 1 5 30
M  V30 33 1 6 31
M  V30 34 1 8 32
M  V30 35 1 9 33
M  V30 36 1 12 34
M  V30 37 1 13 35
M  V30 38 1 15 36
M  V30 39 1 16 37
M  V30 40 1 19 38
M  V30 41 1 20 39
M  V30 42 1 22 40
M  V30 43 1 23 41
M  V30 END BOND
M  V30 END CTAB
M  END
