
     RDKit          3D

  0  0  0  0  0  0  0  0  0  0999 V3000
M  V30 BEGIN CTAB
M  V30 COUNTS 108 111 0 0 0
M  V30 BEGIN ATOM
M  V30 1 C -4.94632 -10.2749 1.53586 0
M  V30 2 C -5.32529 -8.87924 1.05593 0
M  V30 3 C -5.84382 -8.06614 2.20642 0
M  V30 4 C -6.47259 -9.06482 0.062673 0
M  V30 5 C -4.20782 -8.22551 0.361963 0
M  V30 6 C -3.61489 -7.04931 0.74043 0
M  V30 7 C -2.57749 -6.47115 0.0709073 0
M  V30 8 O -1.94286 -5.28925 0.409821 0
M  V30 9 C -2.39922 -4.04843 -0.00908494 0
M  V30 10 O -3.45525 -4.08066 -0.72425 0
M  V30 11 C -1.74496 -2.75778 0.320516 0
M  V30 12 O -0.601185 -2.91664 1.10411 0
M  V30 13 C 0.111371 -1.77606 1.45903 0
M  V30 14 C 1.24821 -1.84642 2.22893 0
M  V30 15 C 1.99063 -0.713009 2.60176 0
M  V30 16 O 3.10738 -0.879423 3.37336 0
M  V30 17 C 3.93836 0.144821 3.79497 0
M  V30 18 C 4.65099 0.884343 2.73988 0
M  V30 19 O 5.36047 1.87355 3.05343 0
M  V30 20 O 4.59232 0.553546 1.39155 0
M  V30 21 C 5.30226 1.31254 0.483303 0
M  V30 22 C 4.69082 2.31817 -0.228947 0
M  V30 23 C 5.40218 3.10647 -1.16222 0
M  V30 24 C 4.67617 4.14536 -1.85858 0
M  V30 25 O 5.188 4.90204 -2.68947 0
M  V30 26 C 6.74304 2.86393 -1.36674 0
M  V30 27 O 7.51471 3.5635 -2.24156 0
M  V30 28 C 7.34461 1.82677 -0.622469 0
M  V30 29 C 6.63908 1.07121 0.279818 0
M  V30 30 C 8.79393 1.59908 -0.866396 0
M  V30 31 C 9.23648 0.438652 0.0282116 0
M  V30 32 C 9.05124 1.22091 -2.31021 0
M  V30 33 C 9.6107 2.83061 -0.553677 0
M  V30 34 C 1.57739 0.537172 2.18724 0
M  V30 35 C 0.425727 0.608414 1.40743 0
M  V30 36 O -0.000564507 1.83314 0.982583 0
M  V30 37 C 0.561045 3.08286 1.20886 0
M  V30 38 C -0.320343 4.07689 0.490644 0
M  V30 39 O -0.0239825 5.28825 0.388824 0
M  V30 40 O -1.51727 3.65932 -0.091938 0
M  V30 41 C -2.38479 4.47717 -0.779993 0
M  V30 42 C -2.62145 4.16856 -2.10257 0
M  V30 43 C -3.47296 4.91995 -2.89728 0
M  V30 44 C -3.66856 4.51421 -4.28081 0
M  V30 45 O -3.06803 3.50006 -4.7495 0
M  V30 46 C -4.08246 5.99081 -2.33353 0
M  V30 47 O -4.93259 6.76 -3.08148 0
M  V30 48 C -3.89001 6.35776 -1.01387 0
M  V30 49 C -3.02545 5.5688 -0.258839 0
M  V30 50 C -4.51851 7.52556 -0.395524 0
M  V30 51 C -4.14938 8.84774 -1.05638 0
M  V30 52 C -6.02799 7.45021 -0.309192 0
M  V30 53 C -4.02425 7.6493 1.04069 0
M  V30 54 C -0.281219 -0.518279 1.05841 0
M  V30 55 C -2.10632 -7.1162 -1.05148 0
M  V30 56 C -2.65652 -8.32267 -1.5066 0
M  V30 57 C -2.08018 -8.91879 -2.69212 0
M  V30 58 O -1.12672 -8.37401 -3.30053 0
M  V30 59 C -3.70188 -8.85164 -0.782878 0
M  V30 60 O -4.27019 -10.0332 -1.1947 0
M  V30 61 H -5.28671 -11.0514 0.819448 0
M  V30 62 H -3.83503 -10.289 1.67149 0
M  V30 63 H -5.38646 -10.5238 2.51799 0
M  V30 64 H -6.26894 -7.09881 1.85307 0
M  V30 65 H -5.1282 -7.94211 3.0268 0
M  V30 66 H -6.73155 -8.60806 2.64176 0
M  V30 67 H -6.3512 -8.36658 -0.817686 0
M  V30 68 H -7.43211 -8.76548 0.53964 0
M  V30 69 H -6.54107 -10.114 -0.260591 0
M  V30 70 H -3.98957 -6.54171 1.62799 0
M  V30 71 H -2.47529 -2.14626 0.866148 0
M  V30 72 H -1.48682 -2.18229 -0.599789 0
M  V30 73 H 1.61144 -2.80695 2.57706 0
M  V30 74 H 3.37214 0.864013 4.43833 0
M  V30 75 H 4.7191 -0.317429 4.46531 0
M  V30 76 H 3.64032 2.50138 -0.0654515 0
M  V30 77 H 3.61035 4.26631 -1.63431 0
M  V30 78 H 7.38761 4.29605 -2.86231 0
M  V30 79 H 7.09344 0.271731 0.853965 0
M  V30 80 H 8.64727 -0.461834 -0.208219 0
M  V30 81 H 9.06226 0.692252 1.09348 0
M  V30 82 H 10.341 0.269949 -0.12059 0
M  V30 83 H 9.8262 0.415469 -2.32347 0
M  V30 84 H 9.49198 2.07312 -2.8968 0
M  V30 85 H 8.1217 0.891287 -2.83923 0
M  V30 86 H 8.97766 3.72482 -0.304094 0
M  V30 87 H 10.2492 2.56609 0.346216 0
M  V30 88 H 10.2663 3.03217 -1.42688 0
M  V30 89 H 2.10113 1.45422 2.45102 0
M  V30 90 H 1.59057 3.22322 0.883621 0
M  V30 91 H 0.489451 3.36842 2.30031 0
M  V30 92 H -2.13706 3.31702 -2.55386 0
M  V30 93 H -4.3103 5.02991 -4.96432 0
M  V30 94 H -5.14425 6.59863 -4.03504 0
M  V30 95 H -2.80707 5.77679 0.794686 0
M  V30 96 H -4.68829 9.63844 -0.455574 0
M  V30 97 H -4.37596 8.8876 -2.11515 0
M  V30 98 H -3.05663 8.98311 -0.857826 0
M  V30 99 H -6.36437 6.6302 0.334643 0
M  V30 100 H -6.34065 8.39757 0.221471 0
M  V30 101 H -6.52047 7.47352 -1.29484 0
M  V30 102 H -4.44892 8.57062 1.51885 0
M  V30 103 H -2.93277 7.77006 1.11363 0
M  V30 104 H -4.34245 6.78302 1.65098 0
M  V30 105 H -1.18886 -0.468641 0.446904 0
M  V30 106 H -1.28514 -6.69669 -1.61859 0
M  V30 107 H -2.4543 -9.84423 -3.08162 0
M  V30 108 H -3.96252 -10.5399 -2.00296 0
M  V30 END ATOM
M  V30 BEGIN BOND
M  V30 1 1 1 2
M  V30 2 1 2 3
M  V30 3 1 2 4
M  V30 4 1 2 5
M  V30 5 2 5 6
M  V30 6 1 6 7
M  V30 7 1 7 8
M  V30 8 1 8 9
M  V30 9 2 9 10
M  V30 10 1 9 11
M  V30 11 1 11 12
M  V30 12 1 12 13
M  V30 13 2 13 14
M  V30 14 1 14 15
M  V30 15 1 15 16
M  V30 16 1 16 17
M  V30 17 1 17 18
M  V30 18 2 18 19
M  V30 19 1 18 20
M  V30 20 1 20 21
M  V30 21 2 21 22
M  V30 22 1 22 23
M  V30 23 1 23 24
M  V30 24 2 24 25
M  V30 25 2 23 26
M  V30 26 1 26 27
M  V30 27 1 26 28
M  V30 28 2 28 29
M  V30 29 1 28 30
M  V30 30 1 30 31
M  V30 31 1 30 32
M  V30 32 1 30 33
M  V30 33 2 15 34
M  V30 34 1 34 35
M  V30 35 1 35 36
M  V30 36 1 36 37
M  V30 37 1 37 38
M  V30 38 2 38 39
M  V30 39 1 38 40
M  V30 40 1 40 41
M  V30 41 2 41 42
M  V30 42 1 42 43
M  V30 43 1 43 44
M  V30 44 2 44 45
M  V30 45 2 43 46
M  V30 46 1 46 47
M  V30 47 1 46 48
M  V30 48 2 48 49
M  V30 49 1 48 50
M  V30 50 1 50 51
M  V30 51 1 50 52
M  V30 52 1 50 53
M  V30 53 2 35 54
M  V30 54 2 7 55
M  V30 55 1 55 56
M  V30 56 1 56 57
M  V30 57 2 57 58
M  V30 58 2 56 59
M  V30 59 1 59 60
M  V30 60 1 59 5
M  V30 61 1 54 13
M  V30 62 1 29 21
M  V30 63 1 49 41
M  V30 64 1 1 61
M  V30 65 1 1 62
M  V30 66 1 1 63
M  V30 67 1 3 64
M  V30 68 1 3 65
M  V30 69 1 3 66
M  V30 70 1 4 67
M  V30 71 1 4 68
M  V30 72 1 4 69
M  V30 73 1 6 70
M  V30 74 1 11 71
M  V30 75 1 11 72
M  V30 76 1 14 73
M  V30 77 1 17 74
M  V30 78 1 17 75
M  V30 79 1 22 76
M  V30 80 1 24 77
M  V30 81 1 27 78
M  V30 82 1 29 79
M  V30 83 1 31 80
M  V30 84 1 31 81
M  V30 85 1 31 82
M  V30 86 1 32 83
M  V30 87 1 32 84
M  V30 88 1 32 85
M  V30 89 1 33 86
M  V30 90 1 33 87
M  V30 91 1 33 88
M  V30 92 1 34 89
M  V30 93 1 37 90
M  V30 94 1 37 91
M  V30 95 1 42 92
M  V30 96 1 44 93
M  V30 97 1 47 94
M  V30 98 1 49 95
M  V30 99 1 51 96
M  V30 100 1 51 97
M  V30 101 1 51 98
M  V30 102 1 52 99
M  V30 103 1 52 100
M  V30 104 1 52 101
M  V30 105 1 53 102
M  V30 106 1 53 103
M  V30 107 1 53 104
M  V30 108 1 54 105
M  V30 109 1 55 106
M  V30 110 1 57 107
M  V30 111 1 60 108
M  V30 END BOND
M  V30 END CTAB
M  END
