
     RDKit          3D

  0  0  0  0  0  0  0  0  0  0999 V3000
M  V30 BEGIN CTAB
M  V30 COUNTS 69 75 0 0 0
M  V30 BEGIN ATOM
M  V30 1 O -6.08805 -3.55821 0.851463 0
M  V30 2 C -5.55787 -2.85453 -0.0114426 0
M  V30 3 C -4.1265 -2.96679 -0.254859 0
M  V30 4 C -3.38352 -2.24401 -1.19588 0
M  V30 5 N -2.10865 -2.60781 -1.13762 0
M  V30 6 C -1.0315 -2.09639 -1.93012 0
M  V30 7 C -0.386523 -0.902751 -1.33209 0
M  V30 8 C -0.84639 0.376602 -1.56088 0
M  V30 9 C -0.280711 1.51574 -1.0306 0
M  V30 10 C -0.832969 2.87434 -1.3252 0
M  V30 11 N -1.88353 3.26109 -0.434001 0
M  V30 12 C -3.21054 3.01474 -0.595137 0
M  V30 13 C -3.91243 3.53079 0.466307 0
M  V30 14 C -5.34756 3.49088 0.694583 0
M  V30 15 O -6.12463 2.93782 -0.125884 0
M  V30 16 C -2.98185 4.11679 1.31243 0
M  V30 17 C -1.73552 3.9276 0.717311 0
M  V30 18 C -0.65657 4.44624 1.40922 0
M  V30 19 C -0.795097 5.1077 2.60893 0
M  V30 20 C -2.03659 5.28195 3.17724 0
M  V30 21 C -3.13537 4.77918 2.51714 0
M  V30 22 C 0.818107 1.3541 -0.218466 0
M  V30 23 C 1.33212 0.0878586 0.0522101 0
M  V30 24 C 2.51261 0.0228496 0.938343 0
M  V30 25 N 3.77448 0.172661 0.201477 0
M  V30 26 C 4.40756 1.2993 -0.084423 0
M  V30 27 C 5.54834 1.00517 -0.792589 0
M  V30 28 C 6.52549 2.00378 -1.29538 0
M  V30 29 O 7.52109 1.59875 -1.92626 0
M  V30 30 C 5.57561 -0.364138 -0.922425 0
M  V30 31 C 4.45734 -0.857328 -0.293033 0
M  V30 32 C 4.27891 -2.2354 -0.297945 0
M  V30 33 C 5.17092 -3.08846 -0.901478 0
M  V30 34 C 6.28315 -2.57659 -1.52604 0
M  V30 35 C 6.49988 -1.20104 -1.54403 0
M  V30 36 C 0.714863 -1.01997 -0.513962 0
M  V30 37 C -1.99177 -3.54926 -0.185575 0
M  V30 38 C -3.23491 -3.79838 0.387717 0
M  V30 39 C -3.40388 -4.72352 1.39301 0
M  V30 40 C -2.29688 -5.41321 1.83054 0
M  V30 41 C -1.04988 -5.19865 1.29179 0
M  V30 42 C -0.912688 -4.26993 0.290922 0
M  V30 43 H -6.13282 -2.15254 -0.594697 0
M  V30 44 H -3.79173 -1.504 -1.86469 0
M  V30 45 H -1.41554 -1.82438 -2.95756 0
M  V30 46 H -0.273982 -2.90754 -2.13899 0
M  V30 47 H -1.70438 0.506809 -2.19467 0
M  V30 48 H -1.25251 2.82251 -2.37187 0
M  V30 49 H -0.00257496 3.59275 -1.37221 0
M  V30 50 H -3.65869 2.48976 -1.43339 0
M  V30 51 H -5.7808 3.92997 1.56473 0
M  V30 52 H 0.325769 4.30149 0.942177 0
M  V30 53 H 0.0861281 5.4848 3.09155 0
M  V30 54 H -2.14174 5.81208 4.1379 0
M  V30 55 H -4.10221 4.92889 2.98467 0
M  V30 56 H 1.27169 2.24578 0.202654 0
M  V30 57 H 2.52832 -0.891079 1.56295 0
M  V30 58 H 2.47067 0.875097 1.64498 0
M  V30 59 H 4.0881 2.31908 0.191713 0
M  V30 60 H 6.35205 3.03948 -1.10507 0
M  V30 61 H 3.39642 -2.62782 0.200979 0
M  V30 62 H 4.95191 -4.15421 -0.856779 0
M  V30 63 H 6.98803 -3.25211 -2.00294 0
M  V30 64 H 7.36644 -0.807427 -2.0313 0
M  V30 65 H 1.15152 -1.96956 -0.272412 0
M  V30 66 H -4.35197 -4.93833 1.85669 0
M  V30 67 H -2.34905 -6.1678 2.62938 0
M  V30 68 H -0.159043 -5.74324 1.63203 0
M  V30 69 H 0.0718953 -4.08805 -0.151124 0
M  V30 END ATOM
M  V30 BEGIN BOND
M  V30 1 2 1 2
M  V30 2 1 2 3
M  V30 3 2 3 4
M  V30 4 1 4 5
M  V30 5 1 5 6
M  V30 6 1 6 7
M  V30 7 2 7 8
M  V30 8 1 8 9
M  V30 9 1 9 10
M  V30 10 1 10 11
M  V30 11 1 11 12
M  V30 12 2 12 13
M  V30 13 1 13 14
M  V30 14 2 14 15
M  V30 15 1 13 16
M  V30 16 2 16 17
M  V30 17 1 17 18
M  V30 18 2 18 19
M  V30 19 1 19 20
M  V30 20 2 20 21
M  V30 21 2 9 22
M  V30 22 1 22 23
M  V30 23 1 23 24
M  V30 24 1 24 25
M  V30 25 1 25 26
M  V30 26 2 26 27
M  V30 27 1 27 28
M  V30 28 2 28 29
M  V30 29 1 27 30
M  V30 30 2 30 31
M  V30 31 1 31 32
M  V30 32 2 32 33
M  V30 33 1 33 34
M  V30 34 2 34 35
M  V30 35 2 23 36
M  V30 36 1 5 37
M  V30 37 2 37 38
M  V30 38 1 38 39
M  V30 39 2 39 40
M  V30 40 1 40 41
M  V30 41 2 41 42
M  V30 42 1 38 3
M  V30 43 1 36 7
M  V30 44 1 42 37
M  V30 45 1 17 11
M  V30 46 1 31 25
M  V30 47 1 21 16
M  V30 48 1 35 30
M  V30 49 1 2 43
M  V30 50 1 4 44
M  V30 51 1 6 45
M  V30 52 1 6 46
M  V30 53 1 8 47
M  V30 54 1 10 48
M  V30 55 1 10 49
M  V30 56 1 12 50
M  V30 57 1 14 51
M  V30 58 1 18 52
M  V30 59 1 19 53
M  V30 60 1 20 54
M  V30 61 1 21 55
M  V30 62 1 22 56
M  V30 63 1 24 57
M  V30 64 1 24 58
M  V30 65 1 26 59
M  V30 66 1 28 60
M  V30 67 1 32 61
M  V30 68 1 33 62
M  V30 69 1 34 63
M  V30 70 1 35 64
M  V30 71 1 36 65
M  V30 72 1 39 66
M  V30 73 1 40 67
M  V30 74 1 41 68
M  V30 75 1 42 69
M  V30 END BOND
M  V30 END CTAB
M  END
