
     RDKit          3D

  0  0  0  0  0  0  0  0  0  0999 V3000
M  V30 BEGIN CTAB
M  V30 COUNTS 10 9 0 0 0
M  V30 BEGIN ATOM
M  V30 1 O -1.0941 -1.71859 -1.07553 0
M  V30 2 C -1.14392 -0.599596 -0.504639 0
M  V30 3 N 0.0199763 0.0229343 0.0152679 0
M  V30 4 C 1.2565 -0.657082 -0.126893 0
M  V30 5 O 1.32623 -1.7736 -0.69315 0
M  V30 6 C -0.0658016 1.28719 0.65527 0
M  V30 7 O -1.15882 1.89211 0.782901 0
M  V30 8 H -2.08622 -0.0749875 -0.393008 0
M  V30 9 H 2.13813 -0.156906 0.281757 0
M  V30 10 H 0.808029 1.77853 1.05802 0
M  V30 END ATOM
M  V30 BEGIN BOND
M  V30 1 2 1 2
M  V30 2 1 2 3
M  V30 3 1 3 4
M  V30 4 2 4 5
M  V30 5 1 3 6
M  V30 6 2 6 7
M  V30 7 1 2 8
M  V30 8 1 4 9
M  V30 9 1 6 10
M  V30 END BOND
M  V30 END CTAB
M  END
