
     RDKit          3D

  0  0  0  0  0  0  0  0  0  0999 V3000
M  V30 BEGIN CTAB
M  V30 COUNTS 30 31 0 0 0
M  V30 BEGIN ATOM
M  V30 1 O 7.06812 1.44554 0.678313 0
M  V30 2 C 6.50733 0.446167 0.162359 0
M  V30 3 C 5.05246 0.369198 0.118653 0
M  V30 4 C 4.26581 1.37081 0.631965 0
M  V30 5 C 2.89093 1.26996 0.57621 0
M  V30 6 C 2.26773 0.187115 0.0171435 0
M  V30 7 C 3.03628 -0.823737 -0.500975 0
M  V30 8 C 4.41297 -0.713765 -0.440521 0
M  V30 9 C 0.823977 0.0676752 -0.0483502 0
M  V30 10 C -0.378658 -0.0134096 -0.100683 0
M  V30 11 C -1.80978 -0.10853 -0.170151 0
M  V30 12 C -2.62661 0.955963 -0.475622 0
M  V30 13 C -4.01278 0.840898 -0.537459 0
M  V30 14 C -4.81259 2.00564 -0.865651 0
M  V30 15 O -4.25793 3.09868 -1.08967 0
M  V30 16 C -4.58139 -0.375684 -0.284984 0
M  V30 17 C -3.79175 -1.46976 0.0257685 0
M  V30 18 C -4.41833 -2.76381 0.292916 0
M  V30 19 O -5.66672 -2.87463 0.238924 0
M  V30 20 C -2.41536 -1.31926 0.0785587 0
M  V30 21 H 7.11478 -0.333234 -0.237092 0
M  V30 22 H 4.72302 2.24291 1.0821 0
M  V30 23 H 2.3047 2.07744 0.990167 0
M  V30 24 H 2.54641 -1.66766 -0.936703 0
M  V30 25 H 5.04385 -1.49652 -0.84163 0
M  V30 26 H -2.18323 1.92521 -0.677392 0
M  V30 27 H -5.87891 1.90444 -0.910203 0
M  V30 28 H -5.67025 -0.500276 -0.32543 0
M  V30 29 H -3.77909 -3.59139 0.53068 0
M  V30 30 H -1.77501 -2.15598 0.31856 0
M  V30 END ATOM
M  V30 BEGIN BOND
M  V30 1 2 1 2
M  V30 2 1 2 3
M  V30 3 2 3 4
M  V30 4 1 4 5
M  V30 5 2 5 6
M  V30 6 1 6 7
M  V30 7 2 7 8
M  V30 8 1 6 9
M  V30 9 3 9 10
M  V30 10 1 10 11
M  V30 11 2 11 12
M  V30 12 1 12 13
M  V30 13 1 13 14
M  V30 14 2 14 15
M  V30 15 2 13 16
M  V30 16 1 16 17
M  V30 17 1 17 18
M  V30 18 2 18 19
M  V30 19 2 17 20
M  V30 20 1 8 3
M  V30 21 1 20 11
M  V30 22 1 2 21
M  V30 23 1 4 22
M  V30 24 1 5 23
M  V30 25 1 7 24
M  V30 26 1 8 25
M  V30 27 1 12 26
M  V30 28 1 14 27
M  V30 29 1 16 28
M  V30 30 1 18 29
M  V30 31 1 20 30
M  V30 END BOND
M  V30 END CTAB
M  END
