
     RDKit          3D

  0  0  0  0  0  0  0  0  0  0999 V3000
M  V30 BEGIN CTAB
M  V30 COUNTS 59 61 0 0 0
M  V30 BEGIN ATOM
M  V30 1 C 7.79932 -1.36787 0.866355 0
M  V30 2 C 7.26549 -1.60451 -0.545576 0
M  V30 3 O 5.88999 -1.83716 -0.559448 0
M  V30 4 C 4.94931 -0.934757 -0.106381 0
M  V30 5 O 5.33418 0.183221 0.354184 0
M  V30 6 C 3.51619 -1.24513 -0.147675 0
M  V30 7 C 2.76735 -0.564056 -1.26598 0
M  V30 8 C 2.83311 0.930626 -1.18802 0
M  V30 9 O 2.32352 1.49511 -0.0540391 0
M  V30 10 C 1.12372 1.54867 0.54575 0
M  V30 11 C 1.05169 2.26338 1.75324 0
M  V30 12 C 2.21932 2.91114 2.32114 0
M  V30 13 O 3.35426 2.87393 1.78062 0
M  V30 14 C -0.165168 2.32614 2.37702 0
M  V30 15 C -1.29469 1.72303 1.86727 0
M  V30 16 C -1.25643 1.01618 0.686581 0
M  V30 17 C -0.0145757 0.95223 0.0488099 0
M  V30 18 N -2.41563 0.384568 0.162717 0
M  V30 19 C -3.64078 1.10548 0.157183 0
M  V30 20 C -4.8313 0.516999 0.566359 0
M  V30 21 C -6.02904 1.19943 0.564263 0
M  V30 22 C -6.07924 2.51011 0.148017 0
M  V30 23 C -7.32157 3.27587 0.126948 0
M  V30 24 O -8.40693 2.76382 0.493454 0
M  V30 25 C -4.90467 3.12552 -0.266907 0
M  V30 26 C -3.71745 2.42009 -0.255553 0
M  V30 27 C -2.38314 -0.925523 -0.355887 0
M  V30 28 C -1.71778 -1.91132 0.328831 0
M  V30 29 C -1.67228 -3.22013 -0.168575 0
M  V30 30 C -2.31094 -3.51718 -1.37005 0
M  V30 31 C -2.22862 -4.89713 -1.84438 0
M  V30 32 O -2.8172 -5.15305 -2.92626 0
M  V30 33 C -2.97313 -2.53381 -2.04972 0
M  V30 34 C -3.00084 -1.26221 -1.53956 0
M  V30 35 H 8.91772 -1.48069 0.825093 0
M  V30 36 H 7.5603 -0.374891 1.24945 0
M  V30 37 H 7.43432 -2.15222 1.56803 0
M  V30 38 H 7.57278 -0.75079 -1.16652 0
M  V30 39 H 7.7629 -2.52805 -0.919348 0
M  V30 40 H 3.08314 -1.02097 0.847471 0
M  V30 41 H 3.38782 -2.34209 -0.308398 0
M  V30 42 H 3.26303 -0.914475 -2.22117 0
M  V30 43 H 1.76718 -0.996171 -1.28487 0
M  V30 44 H 2.25355 1.33697 -2.07834 0
M  V30 45 H 3.88177 1.23914 -1.4233 0
M  V30 46 H 2.12555 3.45115 3.24454 0
M  V30 47 H -0.19866 2.89235 3.3233 0
M  V30 48 H -2.24526 1.80057 2.39956 0
M  V30 49 H -0.0220665 0.401534 -0.883582 0
M  V30 50 H -4.7648 -0.524625 0.893036 0
M  V30 51 H -6.90778 0.688585 0.89085 0
M  V30 52 H -7.33178 4.29994 -0.204807 0
M  V30 53 H -4.96617 4.15555 -0.589682 0
M  V30 54 H -2.78284 2.89806 -0.582703 0
M  V30 55 H -1.20218 -1.75013 1.2661 0
M  V30 56 H -1.14878 -3.99918 0.366676 0
M  V30 57 H -1.69721 -5.65249 -1.30318 0
M  V30 58 H -3.46609 -2.74752 -2.96905 0
M  V30 59 H -3.52247 -0.481275 -2.07192 0
M  V30 END ATOM
M  V30 BEGIN BOND
M  V30 1 1 1 2
M  V30 2 1 2 3
M  V30 3 1 3 4
M  V30 4 2 4 5
M  V30 5 1 4 6
M  V30 6 1 6 7
M  V30 7 1 7 8
M  V30 8 1 8 9
M  V30 9 1 9 10
M  V30 10 2 10 11
M  V30 11 1 11 12
M  V30 12 2 12 13
M  V30 13 1 11 14
M  V30 14 2 14 15
M  V30 15 1 15 16
M  V30 16 2 16 17
M  V30 17 1 16 18
M  V30 18 1 18 19
M  V30 19 2 19 20
M  V30 20 1 20 21
M  V30 21 2 21 22
M  V30 22 1 22 23
M  V30 23 2 23 24
M  V30 24 1 22 25
M  V30 25 2 25 26
M  V30 26 1 18 27
M  V30 27 2 27 28
M  V30 28 1 28 29
M  V30 29 2 29 30
M  V30 30 1 30 31
M  V30 31 2 31 32
M  V30 32 1 30 33
M  V30 33 2 33 34
M  V30 34 1 17 10
M  V30 35 1 26 19
M  V30 36 1 34 27
M  V30 37 1 1 35
M  V30 38 1 1 36
M  V30 39 1 1 37
M  V30 40 1 2 38
M  V30 41 1 2 39
M  V30 42 1 6 40
M  V30 43 1 6 41
M  V30 44 1 7 42
M  V30 45 1 7 43
M  V30 46 1 8 44
M  V30 47 1 8 45
M  V30 48 1 12 46
M  V30 49 1 14 47
M  V30 50 1 15 48
M  V30 51 1 17 49
M  V30 52 1 20 50
M  V30 53 1 21 51
M  V30 54 1 23 52
M  V30 55 1 25 53
M  V30 56 1 26 54
M  V30 57 1 28 55
M  V30 58 1 29 56
M  V30 59 1 31 57
M  V30 60 1 33 58
M  V30 61 1 34 59
M  V30 END BOND
M  V30 END CTAB
M  END
