
     RDKit          3D

  0  0  0  0  0  0  0  0  0  0999 V3000
M  V30 BEGIN CTAB
M  V30 COUNTS 20 19 0 0 0
M  V30 BEGIN ATOM
M  V30 1 C -0.0251328 -1.02161 0.170173 0 CFG=2
M  V30 2 O -0.490158 -1.68791 1.29572 0
M  V30 3 C 1.27318 -0.385053 0.509078 0
M  V30 4 O 1.86854 0.327255 -0.530515 0
M  V30 5 C 3.0832 0.957174 -0.311404 0
M  V30 6 O 3.60044 0.856726 0.829726 0
M  V30 7 C -1.0701 -0.0793322 -0.34635 0 CFG=1
M  V30 8 O -1.44632 0.895544 0.572865 0
M  V30 9 C -2.73314 0.998078 1.0741 0
M  V30 10 O -3.54854 0.142731 0.639159 0
M  V30 11 C -0.659217 0.482477 -1.66752 0
M  V30 12 O -0.304958 -0.257727 -2.56772 0
M  V30 13 H 0.14652 -1.79319 -0.609368 0
M  V30 14 H -0.800411 -2.59899 1.12352 0
M  V30 15 H 1.97637 -1.20605 0.793619 0
M  V30 16 H 1.19205 0.243614 1.44363 0
M  V30 17 H 3.59455 1.52892 -1.09039 0
M  V30 18 H -1.97512 -0.69657 -0.557604 0
M  V30 19 H -3.03389 1.7547 1.79036 0
M  V30 20 H -0.647864 1.53921 -1.90714 0
M  V30 END ATOM
M  V30 BEGIN BOND
M  V30 1 1 1 2
M  V30 2 1 1 3
M  V30 3 1 3 4
M  V30 4 1 4 5
M  V30 5 2 5 6
M  V30 6 1 1 7
M  V30 7 1 7 8
M  V30 8 1 8 9
M  V30 9 2 9 10
M  V30 10 1 7 11
M  V30 11 2 11 12
M  V30 12 1 1 13 CFG=3
M  V30 13 1 2 14
M  V30 14 1 3 15
M  V30 15 1 3 16
M  V30 16 1 5 17
M  V30 17 1 7 18 CFG=3
M  V30 18 1 9 19
M  V30 19 1 11 20
M  V30 END BOND
M  V30 END CTAB
M  END
