
     RDKit          3D

  0  0  0  0  0  0  0  0  0  0999 V3000
M  V30 BEGIN CTAB
M  V30 COUNTS 61 63 0 0 0
M  V30 BEGIN ATOM
M  V30 1 C -1.5568 -0.8018 0.4304 0
M  V30 2 C -2.0461 -2.2080 0.1660 0
M  V30 3 C -1.0265 -3.1078 0.8953 0
M  V30 4 C 0.2476 -2.8430 0.1676 0
M  V30 5 C 0.8229 -3.7998 -0.5057 0
M  V30 6 C 0.7925 -1.4290 0.2649 0
M  V30 7 C 2.0814 -1.3787 -0.4833 0
M  V30 8 C 2.8335 -0.1441 -0.5425 0
M  V30 9 C 4.0228 0.0222 -0.0041 0
M  V30 10 C 4.8713 1.2712 -0.0223 0
M  V30 11 C 6.2634 0.6978 0.0480 0
M  V30 12 O 6.1788 -0.6356 0.4737 0
M  V30 13 C 4.8215 -0.9207 0.7441 0
M  V30 14 O 4.4525 -1.8342 1.5016 0
M  V30 15 O 4.5672 2.0522 1.0941 0
M  V30 16 C 4.1372 3.3753 0.9946 0
M  V30 17 O 4.0216 3.8788 -0.1655 0
M  V30 18 C -0.2714 -0.4431 -0.2361 0
M  V30 19 C -0.2656 -0.5915 -1.7311 0
M  V30 20 C 0.1387 0.9265 0.2216 0
M  V30 21 C -0.9127 1.6465 1.0509 0
M  V30 22 C -2.2103 1.5867 0.2520 0
M  V30 23 O -2.0203 2.1046 -1.0189 0
M  V30 24 C -2.5843 3.2747 -1.4378 0
M  V30 25 O -3.3181 3.9574 -0.6789 0
M  V30 26 C -2.6885 0.1598 0.3134 0
M  V30 27 C -3.4302 0.0934 1.6836 0
M  V30 28 C -3.7396 -0.1775 -0.6867 0
M  V30 29 O -4.7165 0.8756 -0.6185 0
M  V30 30 C -5.8383 0.8699 -1.4271 0
M  V30 31 O -6.0147 -0.0850 -2.2506 0
M  V30 32 H -1.2863 -0.8282 1.5405 0
M  V30 33 H -2.9964 -2.3402 0.6794 0
M  V30 34 H -2.1500 -2.4639 -0.8823 0
M  V30 35 H -1.3180 -4.1557 0.8729 0
M  V30 36 H -0.9240 -2.6750 1.9073 0
M  V30 37 H 0.3856 -4.7872 -0.5425 0
M  V30 38 H 1.7398 -3.6455 -1.0464 0
M  V30 39 H 0.9595 -1.2068 1.3198 0
M  V30 40 H 1.9034 -1.6870 -1.5666 0
M  V30 41 H 2.7365 -2.2139 -0.0872 0
M  V30 42 H 2.4395 0.7173 -1.0647 0
M  V30 43 H 4.7289 1.8292 -0.9757 0
M  V30 44 H 6.8820 1.3246 0.7348 0
M  V30 45 H 6.7663 0.7387 -0.9583 0
M  V30 46 H 3.9146 3.9361 1.8956 0
M  V30 47 H -0.0892 -1.6876 -1.9624 0
M  V30 48 H -1.1738 -0.3343 -2.2556 0
M  V30 49 H 0.5649 -0.0733 -2.2367 0
M  V30 50 H 1.0456 0.9514 0.8637 0
M  V30 51 H 0.3511 1.6307 -0.6362 0
M  V30 52 H -1.0165 1.2388 2.0539 0
M  V30 53 H -0.5886 2.6974 1.1250 0
M  V30 54 H -2.8967 2.2921 0.8092 0
M  V30 55 H -2.4448 3.6966 -2.4392 0
M  V30 56 H -2.6966 0.1400 2.4972 0
M  V30 57 H -4.1024 -0.7674 1.7095 0
M  V30 58 H -4.0456 1.0144 1.7221 0
M  V30 59 H -4.2877 -1.0781 -0.3340 0
M  V30 60 H -3.4239 -0.3086 -1.7211 0
M  V30 61 H -6.5907 1.6528 -1.3951 0
M  V30 END ATOM
M  V30 BEGIN BOND
M  V30 0 1 1 2
M  V30 1 1 2 3
M  V30 2 1 3 4
M  V30 3 2 4 5
M  V30 4 1 4 6
M  V30 5 1 6 7
M  V30 6 1 7 8
M  V30 7 2 8 9
M  V30 8 1 9 10
M  V30 9 1 10 11
M  V30 10 1 11 12
M  V30 11 1 12 13
M  V30 12 2 13 14
M  V30 13 1 10 15
M  V30 14 1 15 16
M  V30 15 2 16 17
M  V30 16 1 6 18
M  V30 17 1 18 19
M  V30 18 1 18 20
M  V30 19 1 20 21
M  V30 20 1 21 22
M  V30 21 1 22 23
M  V30 22 1 23 24
M  V30 23 2 24 25
M  V30 24 1 22 26
M  V30 25 1 26 27
M  V30 26 1 26 28
M  V30 27 1 28 29
M  V30 28 1 29 30
M  V30 29 2 30 31
M  V30 30 1 18 1
M  V30 31 1 26 1
M  V30 32 1 13 9
M  V30 33 1 1 32
M  V30 34 1 2 33
M  V30 35 1 2 34
M  V30 36 1 3 35
M  V30 37 1 3 36
M  V30 38 1 5 37
M  V30 39 1 5 38
M  V30 40 1 6 39
M  V30 41 1 7 40
M  V30 42 1 7 41
M  V30 43 1 8 42
M  V30 44 1 10 43
M  V30 45 1 11 44
M  V30 46 1 11 45
M  V30 47 1 16 46
M  V30 48 1 19 47
M  V30 49 1 19 48
M  V30 50 1 19 49
M  V30 51 1 20 50
M  V30 52 1 20 51
M  V30 53 1 21 52
M  V30 54 1 21 53
M  V30 55 1 22 54
M  V30 56 1 24 55
M  V30 57 1 27 56
M  V30 58 1 27 57
M  V30 59 1 27 58
M  V30 60 1 28 59
M  V30 61 1 28 60
M  V30 62 1 30 61
M  V30 END BOND
M  V30 END CTAB
M  END

$$$$
