
     RDKit          3D

  0  0  0  0  0  0  0  0  0  0999 V3000
M  V30 BEGIN CTAB
M  V30 COUNTS 31 30 0 0 0
M  V30 BEGIN ATOM
M  V30 1 O 2.06757 3.72952 -0.318924 0
M  V30 2 C 1.16601 4.34036 0.287907 0
M  V30 3 O 0.16278 3.67826 0.915523 0
M  V30 4 C 0.001713 2.27175 0.979915 0
M  V30 5 C -0.162734 1.63368 -0.329062 0
M  V30 6 N -0.349944 0.254899 -0.448544 0
M  V30 7 C 0.644982 -0.698817 -0.246685 0
M  V30 8 C 1.04767 -0.981844 1.12899 0
M  V30 9 O 2.06696 -1.97867 1.241 0
M  V30 10 C 3.33173 -1.87756 0.754338 0
M  V30 11 O 3.6702 -0.852424 0.162825 0
M  V30 12 C -1.44185 -0.0953095 -1.3316 0
M  V30 13 C -1.87966 -1.50891 -1.27936 0
M  V30 14 O -2.30763 -1.79279 0.0540196 0
M  V30 15 C -2.78228 -3.05592 0.348822 0
M  V30 16 O -2.85898 -3.97476 -0.487298 0
M  V30 17 H 1.18805 5.46489 0.314392 0
M  V30 18 H 0.757231 1.84429 1.63078 0
M  V30 19 H -0.978304 2.13784 1.53876 0
M  V30 20 H -0.986892 2.13054 -0.946295 0
M  V30 21 H 0.788009 1.85976 -0.933982 0
M  V30 22 H 0.420063 -1.68855 -0.773914 0
M  V30 23 H 1.56008 -0.278761 -0.855334 0
M  V30 24 H 1.29556 -0.106381 1.70914 0
M  V30 25 H 0.163997 -1.44736 1.65761 0
M  V30 26 H 4.05709 -2.6659 0.864223 0
M  V30 27 H -1.22329 0.173102 -2.3968 0
M  V30 28 H -2.30793 0.558841 -1.0464 0
M  V30 29 H -1.15871 -2.23519 -1.65632 0
M  V30 30 H -2.83856 -1.55189 -1.90265 0
M  V30 31 H -3.11292 -3.2867 1.36493 0
M  V30 END ATOM
M  V30 BEGIN BOND
M  V30 1 2 1 2
M  V30 2 1 2 3
M  V30 3 1 3 4
M  V30 4 1 4 5
M  V30 5 1 5 6
M  V30 6 1 6 7
M  V30 7 1 7 8
M  V30 8 1 8 9
M  V30 9 1 9 10
M  V30 10 2 10 11
M  V30 11 1 6 12
M  V30 12 1 12 13
M  V30 13 1 13 14
M  V30 14 1 14 15
M  V30 15 2 15 16
M  V30 16 1 2 17
M  V30 17 1 4 18
M  V30 18 1 4 19
M  V30 19 1 5 20
M  V30 20 1 5 21
M  V30 21 1 7 22
M  V30 22 1 7 23
M  V30 23 1 8 24
M  V30 24 1 8 25
M  V30 25 1 10 26
M  V30 26 1 12 27
M  V30 27 1 12 28
M  V30 28 1 13 29
M  V30 29 1 13 30
M  V30 30 1 15 31
M  V30 END BOND
M  V30 END CTAB
M  END
