
     RDKit          3D

  0  0  0  0  0  0  0  0  0  0999 V3000
M  V30 BEGIN CTAB
M  V30 COUNTS 26 25 0 0 0
M  V30 BEGIN ATOM
M  V30 1 C 3.41826 -0.634403 -0.155367 0
M  V30 2 O 2.0261 -0.707676 -0.0103799 0
M  V30 3 C 1.21998 0.412038 -0.0871775 0
M  V30 4 O 1.69472 1.54217 -0.289474 0
M  V30 5 C -0.273583 0.196883 0.0895847 0
M  V30 6 C -0.384358 -0.23063 1.53883 0
M  V30 7 C -1.70499 -0.494278 2.05047 0
M  V30 8 O -1.78801 -1.02259 3.17022 0
M  V30 9 C -0.954628 1.48222 -0.132929 0
M  V30 10 C -0.811251 2.11359 -1.44246 0
M  V30 11 O -0.206044 1.61868 -2.36152 0
M  V30 12 C -0.58196 -0.916519 -0.851473 0
M  V30 13 C -1.94342 -1.37833 -0.974903 0
M  V30 14 O -2.09657 -2.40687 -1.66249 0
M  V30 15 H 3.76632 0.332677 0.223127 0
M  V30 16 H 3.88121 -1.43013 0.456921 0
M  V30 17 H 3.72422 -0.75801 -1.21141 0
M  V30 18 H 0.241141 -1.15482 1.6254 0
M  V30 19 H 0.146369 0.510499 2.20663 0
M  V30 20 H -2.62227 -0.286294 1.57819 0
M  V30 21 H -0.498294 2.21813 0.606774 0
M  V30 22 H -2.0287 1.45855 0.179527 0
M  V30 23 H -1.26431 3.09062 -1.63893 0
M  V30 24 H 0.0183243 -1.80632 -0.460163 0
M  V30 25 H -0.113566 -0.743208 -1.85947 0
M  V30 26 H -2.86469 -1.00597 -0.587515 0
M  V30 END ATOM
M  V30 BEGIN BOND
M  V30 1 1 1 2
M  V30 2 1 2 3
M  V30 3 2 3 4
M  V30 4 1 3 5
M  V30 5 1 5 6
M  V30 6 1 6 7
M  V30 7 2 7 8
M  V30 8 1 5 9
M  V30 9 1 9 10
M  V30 10 2 10 11
M  V30 11 1 5 12
M  V30 12 1 12 13
M  V30 13 2 13 14
M  V30 14 1 1 15
M  V30 15 1 1 16
M  V30 16 1 1 17
M  V30 17 1 6 18
M  V30 18 1 6 19
M  V30 19 1 7 20
M  V30 20 1 9 21
M  V30 21 1 9 22
M  V30 22 1 10 23
M  V30 23 1 12 24
M  V30 24 1 12 25
M  V30 25 1 13 26
M  V30 END BOND
M  V30 END CTAB
M  END
