
     RDKit          3D

  0  0  0  0  0  0  0  0  0  0999 V3000
M  V30 BEGIN CTAB
M  V30 COUNTS 57 60 0 0 0
M  V30 BEGIN ATOM
M  V30 1 O 4.90227 -2.40246 -1.65472 0
M  V30 2 C 4.24698 -1.89112 -0.660968 0
M  V30 3 C 4.52634 -0.489179 -0.388578 0
M  V30 4 C 5.45528 0.162848 -1.16649 0
M  V30 5 C 5.82009 1.4938 -0.954976 0
M  V30 6 C 5.19994 2.14296 0.0846825 0
M  V30 7 C 4.26877 1.53576 0.887477 0
M  V30 8 C 3.93718 0.210099 0.636754 0
M  V30 9 C 2.89503 -0.394692 1.47419 0
M  V30 10 C 1.51714 -0.269972 0.984636 0
M  V30 11 C 0.858784 0.910522 1.28279 0
M  V30 12 C -0.471815 1.17697 0.906754 0
M  V30 13 C -1.04519 2.49876 1.25267 0
M  V30 14 C -1.586 3.26721 0.138558 0
M  V30 15 C -2.91417 3.23304 -0.194657 0
M  V30 16 C -3.87391 2.53728 0.637158 0
M  V30 17 O -5.11298 2.68045 0.293324 0
M  V30 18 C -3.323 3.91885 -1.33157 0
M  V30 19 C -2.48125 4.6276 -2.1398 0
M  V30 20 C -1.13863 4.64301 -1.77172 0
M  V30 21 C -0.680172 3.97926 -0.653669 0
M  V30 22 C -1.11976 0.198148 0.213822 0
M  V30 23 C -0.491679 -1.0178 -0.112247 0
M  V30 24 C -1.26171 -2.00954 -0.865759 0
M  V30 25 C -1.96726 -2.97873 -0.0106042 0
M  V30 26 C -2.57251 -4.06706 -0.600077 0
M  V30 27 C -2.54256 -4.24608 -2.06963 0
M  V30 28 O -3.05372 -5.25263 -2.57714 0
M  V30 29 C -3.23433 -5.01696 0.153057 0
M  V30 30 C -3.30717 -4.89566 1.52086 0
M  V30 31 C -2.70825 -3.81416 2.12214 0
M  V30 32 C -2.04352 -2.86262 1.35886 0
M  V30 33 C 0.822274 -1.21464 0.289278 0
M  V30 34 H 3.58279 -2.53215 -0.150507 0
M  V30 35 H 5.96077 -0.34331 -2.01073 0
M  V30 36 H 6.56498 1.96529 -1.60939 0
M  V30 37 H 5.49452 3.18288 0.224758 0
M  V30 38 H 3.81428 2.10129 1.69358 0
M  V30 39 H 3.01028 0.0243001 2.51396 0
M  V30 40 H 3.08877 -1.49207 1.63052 0
M  V30 41 H 1.36751 1.66366 1.82348 0
M  V30 42 H -1.77913 2.41927 2.0835 0
M  V30 43 H -0.222777 3.14353 1.70467 0
M  V30 44 H -3.61705 1.9397 1.48368 0
M  V30 45 H -4.38262 3.8952 -1.60411 0
M  V30 46 H -2.77492 5.1635 -3.02898 0
M  V30 47 H -0.435644 5.19631 -2.38571 0
M  V30 48 H 0.366608 3.99553 -0.371155 0
M  V30 49 H -2.15119 0.33947 -0.113085 0
M  V30 50 H -0.637763 -2.60234 -1.57488 0
M  V30 51 H -2.063 -1.53596 -1.51106 0
M  V30 52 H -2.07235 -3.49296 -2.68238 0
M  V30 53 H -3.70132 -5.87254 -0.33583 0
M  V30 54 H -3.8414 -5.67481 2.08258 0
M  V30 55 H -2.76239 -3.71006 3.2102 0
M  V30 56 H -1.56897 -1.99931 1.83196 0
M  V30 57 H 1.23952 -2.16765 0.010507 0
M  V30 END ATOM
M  V30 BEGIN BOND
M  V30 1 2 1 2
M  V30 2 1 2 3
M  V30 3 2 3 4
M  V30 4 1 4 5
M  V30 5 2 5 6
M  V30 6 1 6 7
M  V30 7 2 7 8
M  V30 8 1 8 9
M  V30 9 1 9 10
M  V30 10 2 10 11
M  V30 11 1 11 12
M  V30 12 1 12 13
M  V30 13 1 13 14
M  V30 14 2 14 15
M  V30 15 1 15 16
M  V30 16 2 16 17
M  V30 17 1 15 18
M  V30 18 2 18 19
M  V30 19 1 19 20
M  V30 20 2 20 21
M  V30 21 2 12 22
M  V30 22 1 22 23
M  V30 23 1 23 24
M  V30 24 1 24 25
M  V30 25 2 25 26
M  V30 26 1 26 27
M  V30 27 2 27 28
M  V30 28 1 26 29
M  V30 29 2 29 30
M  V30 30 1 30 31
M  V30 31 2 31 32
M  V30 32 2 23 33
M  V30 33 1 8 3
M  V30 34 1 33 10
M  V30 35 1 21 14
M  V30 36 1 32 25
M  V30 37 1 2 34
M  V30 38 1 4 35
M  V30 39 1 5 36
M  V30 40 1 6 37
M  V30 41 1 7 38
M  V30 42 1 9 39
M  V30 43 1 9 40
M  V30 44 1 11 41
M  V30 45 1 13 42
M  V30 46 1 13 43
M  V30 47 1 16 44
M  V30 48 1 18 45
M  V30 49 1 19 46
M  V30 50 1 20 47
M  V30 51 1 21 48
M  V30 52 1 22 49
M  V30 53 1 24 50
M  V30 54 1 24 51
M  V30 55 1 27 52
M  V30 56 1 29 53
M  V30 57 1 30 54
M  V30 58 1 31 55
M  V30 59 1 32 56
M  V30 60 1 33 57
M  V30 END BOND
M  V30 END CTAB
M  END
