
     RDKit          3D

  0  0  0  0  0  0  0  0  0  0999 V3000
M  V30 BEGIN CTAB
M  V30 COUNTS 118 124 0 0 0
M  V30 BEGIN ATOM
M  V30 1 C 0.122191 0.265167 -0.0911857 0 CFG=1
M  V30 2 C 0.0891004 -0.836898 0.95919 0
M  V30 3 C 1.44816 -1.4609 0.973901 0
M  V30 4 C 2.2972 -0.338833 0.462091 0 CFG=1
M  V30 5 C 3.6158 -0.762153 -0.0480078 0 CFG=2
M  V30 6 C 4.47782 -1.33717 1.08283 0 CFG=1
M  V30 7 C 5.63235 -2.01442 0.377201 0
M  V30 8 C 5.98404 -1.43724 -0.949332 0 CFG=2
M  V30 9 C 7.40515 -1.73257 -1.31372 0
M  V30 10 C 8.43507 -0.881967 -0.623969 0 CFG=1
M  V30 11 C 7.88709 0.330706 0.030664 0
M  V30 12 C 6.70661 0.95195 -0.65989 0
M  V30 13 C 5.67863 0.00472708 -1.17054 0 CFG=1
M  V30 14 C 5.66052 0.177088 -2.70004 0
M  V30 15 C 4.33233 0.433722 -0.61958 0 CFG=1
M  V30 16 C 3.54817 1.20661 -1.59169 0
M  V30 17 C 2.10775 1.4884 -1.04738 0 CFG=2
M  V30 18 O 2.35261 2.25949 0.0621156 0
M  V30 19 C 2.2864 3.58653 0.0239709 0
M  V30 20 C 1.07828 4.31874 -0.310708 0
M  V30 21 O 0.00950248 3.84065 -0.573668 0
M  V30 22 C 1.4534 0.200092 -0.706693 0 CFG=2
M  V30 23 C 1.51243 -0.814197 -1.8318 0
M  V30 24 O 9.07906 -1.70658 0.291549 0
M  V30 25 C 10.4168 -1.91936 0.00858179 0
M  V30 26 C 11.2374 -0.687001 -0.00103205 0
M  V30 27 O 12.4501 -0.786011 -0.254949 0
M  V30 28 O 4.90165 -0.375696 1.97211 0
M  V30 29 C 4.43088 -0.574025 3.25986 0
M  V30 30 C 4.93931 0.494391 4.16029 0
M  V30 31 O 4.64889 0.514869 5.33073 0
M  V30 32 C -1.06987 0.0162498 -0.954066 0 CFG=2
M  V30 33 C -1.30376 0.934204 -2.08398 0
M  V30 34 C -2.28645 0.158639 -0.0223675 0
M  V30 35 C -3.5709 -0.0689389 -0.742838 0
M  V30 36 C -4.73897 0.082131 0.248852 0
M  V30 37 O -5.89101 -0.128957 -0.453129 0
M  V30 38 C -7.07108 -0.066156 0.238435 0
M  V30 39 C -7.24765 1.24195 0.874749 0
M  V30 40 C -7.94815 2.22649 0.214067 0
M  V30 41 C -8.16452 3.49109 0.760676 0
M  V30 42 C -7.66932 3.79686 2.0105 0
M  V30 43 C -6.96777 2.82043 2.6795 0
M  V30 44 C -6.75939 1.57542 2.13204 0
M  V30 45 C -7.2144 -1.21711 1.15901 0
M  V30 46 C -6.52011 -2.36884 0.857268 0
M  V30 47 C -6.57807 -3.48481 1.63932 0
M  V30 48 C -7.35465 -3.48145 2.77919 0
M  V30 49 C -8.05787 -2.34103 3.10135 0
M  V30 50 C -7.982 -1.22575 2.29358 0
M  V30 51 C -8.16411 -0.231449 -0.794065 0
M  V30 52 C -9.49233 -0.33513 -0.452727 0
M  V30 53 C -10.4833 -0.486205 -1.40425 0
M  V30 54 C -10.1558 -0.536212 -2.72876 0
M  V30 55 C -8.83791 -0.43618 -3.11599 0
M  V30 56 C -7.8797 -0.28748 -2.15059 0
M  V30 57 H -0.0201912 1.19663 0.448224 0
M  V30 58 H -0.223359 -0.452816 1.94084 0
M  V30 59 H -0.662033 -1.62565 0.689377 0
M  V30 60 H 1.55146 -2.40938 0.450888 0
M  V30 61 H 1.67428 -1.68059 2.05623 0
M  V30 62 H 2.40145 0.431445 1.22431 0
M  V30 63 H 3.60441 -1.54944 -0.81358 0
M  V30 64 H 3.83516 -2.05291 1.62269 0
M  V30 65 H 5.34426 -3.07923 0.249932 0
M  V30 66 H 6.5145 -2.0471 1.08231 0
M  V30 67 H 5.36834 -2.00254 -1.71639 0
M  V30 68 H 7.55948 -2.83544 -1.114 0
M  V30 69 H 7.52938 -1.63858 -2.40524 0
M  V30 70 H 9.2204 -0.571559 -1.3718 0
M  V30 71 H 7.66072 0.165952 1.12946 0
M  V30 72 H 8.67692 1.11266 0.0512822 0
M  V30 73 H 6.27265 1.68033 0.0904727 0
M  V30 74 H 7.1038 1.63145 -1.46193 0
M  V30 75 H 6.73792 0.104247 -3.00873 0
M  V30 76 H 5.37453 1.20999 -2.97971 0
M  V30 77 H 5.12298 -0.619869 -3.20999 0
M  V30 78 H 4.49211 1.11498 0.278912 0
M  V30 79 H 3.44732 0.787073 -2.57775 0
M  V30 80 H 3.98333 2.24897 -1.64244 0
M  V30 81 H 1.67563 2.05341 -1.86329 0
M  V30 82 H 2.59433 3.95164 1.07243 0
M  V30 83 H 3.09621 3.96564 -0.686539 0
M  V30 84 H 1.07862 5.4409 -0.343505 0
M  V30 85 H 0.799176 -0.629474 -2.64672 0
M  V30 86 H 2.50659 -0.863491 -2.29068 0
M  V30 87 H 1.27205 -1.83929 -1.46673 0
M  V30 88 H 10.5349 -2.41879 -0.999927 0
M  V30 89 H 10.8837 -2.64003 0.715793 0
M  V30 90 H 10.8903 0.310164 0.192797 0
M  V30 91 H 4.68602 -1.57391 3.64903 0
M  V30 92 H 3.32528 -0.493191 3.28569 0
M  V30 93 H 5.57752 1.26336 3.7624 0
M  V30 94 H -1.11773 -1.05609 -1.28558 0
M  V30 95 H -1.86425 0.348595 -2.87606 0
M  V30 96 H -2.04727 1.73584 -1.8093 0
M  V30 97 H -0.442564 1.34604 -2.60643 0
M  V30 98 H -2.27278 1.2579 0.250576 0
M  V30 99 H -2.17552 -0.368026 0.92048 0
M  V30 100 H -3.76123 0.707312 -1.50831 0
M  V30 101 H -3.5887 -1.08519 -1.17326 0
M  V30 102 H -4.65645 1.15929 0.586256 0
M  V30 103 H -4.5381 -0.612993 1.06791 0
M  V30 104 H -8.36727 2.06127 -0.774898 0
M  V30 105 H -8.7213 4.25931 0.224693 0
M  V30 106 H -7.82414 4.77869 2.46203 0
M  V30 107 H -6.56922 3.03906 3.66462 0
M  V30 108 H -6.2137 0.832741 2.66562 0
M  V30 109 H -5.88542 -2.4244 -0.0408046 0
M  V30 110 H -6.0272 -4.37568 1.38601 0
M  V30 111 H -7.39825 -4.36216 3.39352 0
M  V30 112 H -8.65247 -2.37653 3.99837 0
M  V30 113 H -8.53539 -0.36373 2.5759 0
M  V30 114 H -9.80163 -0.300303 0.572432 0
M  V30 115 H -11.5298 -0.566673 -1.11491 0
M  V30 116 H -10.9235 -0.654675 -3.49115 0
M  V30 117 H -8.5481 -0.473009 -4.16819 0
M  V30 118 H -6.84374 -0.208043 -2.43185 0
M  V30 END ATOM
M  V30 BEGIN BOND
M  V30 1 1 1 2
M  V30 2 1 2 3
M  V30 3 1 3 4
M  V30 4 1 4 5
M  V30 5 1 5 6
M  V30 6 1 6 7
M  V30 7 1 7 8
M  V30 8 1 8 9
M  V30 9 1 9 10
M  V30 10 1 10 11
M  V30 11 1 11 12
M  V30 12 1 12 13
M  V30 13 1 13 14 CFG=3
M  V30 14 1 13 15
M  V30 15 1 15 16
M  V30 16 1 16 17
M  V30 17 1 17 18
M  V30 18 1 18 19
M  V30 19 1 19 20
M  V30 20 2 20 21
M  V30 21 1 17 22
M  V30 22 1 22 23 CFG=3
M  V30 23 1 10 24
M  V30 24 1 24 25
M  V30 25 1 25 26
M  V30 26 2 26 27
M  V30 27 1 6 28
M  V30 28 1 28 29
M  V30 29 1 29 30
M  V30 30 2 30 31
M  V30 31 1 1 32
M  V30 32 1 32 33
M  V30 33 1 32 34
M  V30 34 1 34 35
M  V30 35 1 35 36
M  V30 36 1 36 37
M  V30 37 1 37 38
M  V30 38 1 38 39
M  V30 39 2 39 40
M  V30 40 1 40 41
M  V30 41 2 41 42
M  V30 42 1 42 43
M  V30 43 2 43 44
M  V30 44 1 38 45
M  V30 45 2 45 46
M  V30 46 1 46 47
M  V30 47 2 47 48
M  V30 48 1 48 49
M  V30 49 2 49 50
M  V30 50 1 38 51
M  V30 51 2 51 52
M  V30 52 1 52 53
M  V30 53 2 53 54
M  V30 54 1 54 55
M  V30 55 2 55 56
M  V30 56 1 22 1
M  V30 57 1 44 39
M  V30 58 1 50 45
M  V30 59 1 56 51
M  V30 60 1 22 4
M  V30 61 1 15 5
M  V30 62 1 13 8
M  V30 63 1 1 57 CFG=1
M  V30 64 1 2 58
M  V30 65 1 2 59
M  V30 66 1 3 60
M  V30 67 1 3 61
M  V30 68 1 4 62 CFG=1
M  V30 69 1 5 63 CFG=3
M  V30 70 1 6 64 CFG=1
M  V30 71 1 7 65
M  V30 72 1 7 66
M  V30 73 1 8 67 CFG=3
M  V30 74 1 9 68
M  V30 75 1 9 69
M  V30 76 1 10 70 CFG=3
M  V30 77 1 11 71
M  V30 78 1 11 72
M  V30 79 1 12 73
M  V30 80 1 12 74
M  V30 81 1 14 75
M  V30 82 1 14 76
M  V30 83 1 14 77
M  V30 84 1 15 78 CFG=1
M  V30 85 1 16 79
M  V30 86 1 16 80
M  V30 87 1 17 81 CFG=3
M  V30 88 1 19 82
M  V30 89 1 19 83
M  V30 90 1 20 84
M  V30 91 1 23 85
M  V30 92 1 23 86
M  V30 93 1 23 87
M  V30 94 1 25 88
M  V30 95 1 25 89
M  V30 96 1 26 90
M  V30 97 1 29 91
M  V30 98 1 29 92
M  V30 99 1 30 93
M  V30 100 1 32 94 CFG=3
M  V30 101 1 33 95
M  V30 102 1 33 96
M  V30 103 1 33 97
M  V30 104 1 34 98
M  V30 105 1 34 99
M  V30 106 1 35 100
M  V30 107 1 35 101
M  V30 108 1 36 102
M  V30 109 1 36 103
M  V30 110 1 40 104
M  V30 111 1 41 105
M  V30 112 1 42 106
M  V30 113 1 43 107
M  V30 114 1 44 108
M  V30 115 1 46 109
M  V30 116 1 47 110
M  V30 117 1 48 111
M  V30 118 1 49 112
M  V30 119 1 50 113
M  V30 120 1 52 114
M  V30 121 1 53 115
M  V30 122 1 54 116
M  V30 123 1 55 117
M  V30 124 1 56 118
M  V30 END BOND
M  V30 END CTAB
M  END
