
     RDKit          3D

  0  0  0  0  0  0  0  0  0  0999 V3000
M  V30 BEGIN CTAB
M  V30 COUNTS 63 64 0 0 0
M  V30 BEGIN ATOM
M  V30 1 C 7.09097 -0.865786 0.181968 0
M  V30 2 C 6.09291 0.231115 0.342346 0
M  V30 3 C 6.30501 0.8758 1.70261 0
M  V30 4 C 6.37892 1.3149 -0.686373 0
M  V30 5 C 4.68432 -0.211744 0.26052 0
M  V30 6 C 3.73916 0.31682 1.12748 0
M  V30 7 C 2.42042 -0.0678984 1.07423 0
M  V30 8 C 2.04267 -0.994312 0.14099 0
M  V30 9 C 0.640184 -1.42665 0.0201171 0
M  V30 10 N -0.318989 -0.449511 0.296659 0
M  V30 11 C -0.364383 0.745307 -0.423908 0
M  V30 12 C -1.41944 0.804602 -1.51143 0
M  V30 13 N -2.40502 1.82594 -1.29382 0
M  V30 14 C -3.80051 1.55287 -1.57853 0
M  V30 15 C -4.56736 1.3632 -0.2913 0
M  V30 16 N -5.67056 0.455796 -0.42142 0
M  V30 17 C -5.66789 -0.805151 0.290131 0
M  V30 18 C -4.46759 -1.63975 0.00359939 0
M  V30 19 N -3.52211 -1.71077 1.08195 0
M  V30 20 C -2.11435 -1.96958 0.731233 0
M  V30 21 C -1.29563 -0.792574 1.21827 0
M  V30 22 C -3.79463 -1.57129 2.46126 0
M  V30 23 O -2.92943 -1.63599 3.33991 0
M  V30 24 C -6.76722 0.782496 -1.23903 0
M  V30 25 O -7.74047 -0.0181464 -1.35274 0
M  V30 26 C -2.05558 3.10938 -0.803011 0
M  V30 27 O -2.92446 4.0088 -0.60047 0
M  V30 28 C 2.9835 -1.5139 -0.70995 0
M  V30 29 C 4.31367 -1.14083 -0.673227 0
M  V30 30 H 7.0856 -1.60675 1.00031 0
M  V30 31 H 7.0043 -1.40265 -0.790954 0
M  V30 32 H 8.09351 -0.394596 0.164471 0
M  V30 33 H 5.89478 1.89949 1.6671 0
M  V30 34 H 5.84062 0.246546 2.4939 0
M  V30 35 H 7.40287 0.984543 1.83922 0
M  V30 36 H 5.93312 1.06878 -1.67986 0
M  V30 37 H 6.01626 2.31041 -0.345065 0
M  V30 38 H 7.47729 1.37315 -0.801297 0
M  V30 39 H 4.05299 1.06783 1.87039 0
M  V30 40 H 1.71833 0.376873 1.77352 0
M  V30 41 H 0.417627 -1.85592 -1.00631 0
M  V30 42 H 0.538515 -2.33372 0.686045 0
M  V30 43 H 0.600536 1.01056 -0.916681 0
M  V30 44 H -0.646868 1.57341 0.291785 0
M  V30 45 H -1.91749 -0.159754 -1.64129 0
M  V30 46 H -0.952971 1.05286 -2.51449 0
M  V30 47 H -3.92334 0.689151 -2.26879 0
M  V30 48 H -4.18652 2.4359 -2.1395 0
M  V30 49 H -4.88329 2.387 0.0269753 0
M  V30 50 H -3.83885 1.04808 0.508402 0
M  V30 51 H -5.85988 -0.562356 1.33855 0
M  V30 52 H -6.56185 -1.41703 -0.049061 0
M  V30 53 H -4.75711 -2.71411 -0.210636 0
M  V30 54 H -3.9328 -1.3346 -0.921953 0
M  V30 55 H -2.02028 -2.15508 -0.354546 0
M  V30 56 H -1.82311 -2.92317 1.2291 0
M  V30 57 H -0.792695 -1.15645 2.157 0
M  V30 58 H -1.95186 0.0444209 1.56761 0
M  V30 59 H -4.81486 -1.40064 2.77691 0
M  V30 60 H -6.79787 1.70093 -1.77173 0
M  V30 61 H -1.04312 3.3877 -0.578989 0
M  V30 62 H 2.73717 -2.25385 -1.4747 0
M  V30 63 H 5.02513 -1.56009 -1.34588 0
M  V30 END ATOM
M  V30 BEGIN BOND
M  V30 1 1 1 2
M  V30 2 1 2 3
M  V30 3 1 2 4
M  V30 4 1 2 5
M  V30 5 2 5 6
M  V30 6 1 6 7
M  V30 7 2 7 8
M  V30 8 1 8 9
M  V30 9 1 9 10
M  V30 10 1 10 11
M  V30 11 1 11 12
M  V30 12 1 12 13
M  V30 13 1 13 14
M  V30 14 1 14 15
M  V30 15 1 15 16
M  V30 16 1 16 17
M  V30 17 1 17 18
M  V30 18 1 18 19
M  V30 19 1 19 20
M  V30 20 1 20 21
M  V30 21 1 19 22
M  V30 22 2 22 23
M  V30 23 1 16 24
M  V30 24 2 24 25
M  V30 25 1 13 26
M  V30 26 2 26 27
M  V30 27 1 8 28
M  V30 28 2 28 29
M  V30 29 1 29 5
M  V30 30 1 21 10
M  V30 31 1 1 30
M  V30 32 1 1 31
M  V30 33 1 1 32
M  V30 34 1 3 33
M  V30 35 1 3 34
M  V30 36 1 3 35
M  V30 37 1 4 36
M  V30 38 1 4 37
M  V30 39 1 4 38
M  V30 40 1 6 39
M  V30 41 1 7 40
M  V30 42 1 9 41
M  V30 43 1 9 42
M  V30 44 1 11 43
M  V30 45 1 11 44
M  V30 46 1 12 45
M  V30 47 1 12 46
M  V30 48 1 14 47
M  V30 49 1 14 48
M  V30 50 1 15 49
M  V30 51 1 15 50
M  V30 52 1 17 51
M  V30 53 1 17 52
M  V30 54 1 18 53
M  V30 55 1 18 54
M  V30 56 1 20 55
M  V30 57 1 20 56
M  V30 58 1 21 57
M  V30 59 1 21 58
M  V30 60 1 22 59
M  V30 61 1 24 60
M  V30 62 1 26 61
M  V30 63 1 28 62
M  V30 64 1 29 63
M  V30 END BOND
M  V30 END CTAB
M  END
