
     RDKit          3D

  0  0  0  0  0  0  0  0  0  0999 V3000
M  V30 BEGIN CTAB
M  V30 COUNTS 60 63 0 0 0
M  V30 BEGIN ATOM
M  V30 1 O -6.44345 -7.44245 1.11824 0
M  V30 2 C -6.43121 -6.27037 1.55649 0
M  V30 3 C -5.38685 -5.33618 1.1815 0
M  V30 4 C -5.37487 -4.04583 1.66501 0
M  V30 5 C -4.35929 -3.16224 1.29089 0
M  V30 6 C -3.3468 -3.53908 0.43845 0
M  V30 7 O -2.35814 -2.62774 0.0937655 0
M  V30 8 C -1.30839 -2.98335 -0.776626 0
M  V30 9 C -0.410364 -1.81857 -0.961187 0
M  V30 10 C -0.653217 -0.619544 -0.336589 0
M  V30 11 C 0.193714 0.457651 -0.518598 0
M  V30 12 C -0.086157 1.72876 0.15914 0
M  V30 13 O -0.895811 2.59565 -0.600487 0
M  V30 14 C -1.21128 3.82864 -0.0302412 0
M  V30 15 C -2.00986 4.74828 -0.717103 0
M  V30 16 C -2.32333 5.96823 -0.155566 0
M  V30 17 C -1.8686 6.32957 1.09193 0
M  V30 18 C -2.17991 7.60344 1.70979 0
M  V30 19 O -1.73058 7.86488 2.85012 0
M  V30 20 C -1.08343 5.433 1.77465 0
M  V30 21 C -0.768115 4.2132 1.21689 0
M  V30 22 C 1.29201 0.312264 -1.34009 0
M  V30 23 C 1.57238 -0.874879 -1.98636 0
M  V30 24 C 2.71566 -1.11611 -2.87561 0
M  V30 25 O 3.78825 -0.247321 -2.73669 0
M  V30 26 C 4.57419 -0.0358071 -1.63941 0
M  V30 27 C 5.60687 0.908555 -1.72282 0
M  V30 28 C 6.43868 1.17924 -0.671437 0
M  V30 29 C 6.28541 0.521416 0.522671 0
M  V30 30 C 7.19191 0.839931 1.61535 0
M  V30 31 O 8.09097 1.69915 1.45885 0
M  V30 32 C 5.28137 -0.422031 0.660947 0
M  V30 33 C 4.45211 -0.67559 -0.424892 0
M  V30 34 C 0.695437 -1.91749 -1.77028 0
M  V30 35 C -3.36861 -4.83452 -0.040116 0
M  V30 36 C -4.37637 -5.72279 0.326742 0
M  V30 37 H -7.22608 -5.9734 2.22616 0
M  V30 38 H -6.16571 -3.73857 2.33576 0
M  V30 39 H -4.37329 -2.14999 1.68656 0
M  V30 40 H -0.7368 -3.82831 -0.341366 0
M  V30 41 H -1.70057 -3.25326 -1.79912 0
M  V30 42 H -1.52661 -0.488432 0.322543 0
M  V30 43 H 0.851833 2.30001 0.39614 0
M  V30 44 H -0.590771 1.56925 1.12828 0
M  V30 45 H -2.38025 4.47792 -1.71002 0
M  V30 46 H -2.94092 6.68244 -0.683861 0
M  V30 47 H -2.79566 8.34786 1.21409 0
M  V30 48 H -0.683637 5.65197 2.77592 0
M  V30 49 H -0.137639 3.50525 1.7767 0
M  V30 50 H 1.98881 1.13221 -1.51501 0
M  V30 51 H 2.33356 -1.20502 -3.90136 0
M  V30 52 H 3.09372 -2.15013 -2.61392 0
M  V30 53 H 5.72973 1.42549 -2.65634 0
M  V30 54 H 7.21025 1.93039 -0.837739 0
M  V30 55 H 7.09208 0.342134 2.55122 0
M  V30 56 H 5.14715 -0.946258 1.58826 0
M  V30 57 H 3.65908 -1.42681 -0.325363 0
M  V30 58 H 0.874784 -2.88584 -2.26299 0
M  V30 59 H -2.56181 -5.12832 -0.716896 0
M  V30 60 H -4.36558 -6.73053 -0.0649759 0
M  V30 END ATOM
M  V30 BEGIN BOND
M  V30 1 2 1 2
M  V30 2 1 2 3
M  V30 3 2 3 4
M  V30 4 1 4 5
M  V30 5 2 5 6
M  V30 6 1 6 7
M  V30 7 1 7 8
M  V30 8 1 8 9
M  V30 9 2 9 10
M  V30 10 1 10 11
M  V30 11 1 11 12
M  V30 12 1 12 13
M  V30 13 1 13 14
M  V30 14 2 14 15
M  V30 15 1 15 16
M  V30 16 2 16 17
M  V30 17 1 17 18
M  V30 18 2 18 19
M  V30 19 1 17 20
M  V30 20 2 20 21
M  V30 21 2 11 22
M  V30 22 1 22 23
M  V30 23 1 23 24
M  V30 24 1 24 25
M  V30 25 1 25 26
M  V30 26 2 26 27
M  V30 27 1 27 28
M  V30 28 2 28 29
M  V30 29 1 29 30
M  V30 30 2 30 31
M  V30 31 1 29 32
M  V30 32 2 32 33
M  V30 33 2 23 34
M  V30 34 1 6 35
M  V30 35 2 35 36
M  V30 36 1 36 3
M  V30 37 1 34 9
M  V30 38 1 21 14
M  V30 39 1 33 26
M  V30 40 1 2 37
M  V30 41 1 4 38
M  V30 42 1 5 39
M  V30 43 1 8 40
M  V30 44 1 8 41
M  V30 45 1 10 42
M  V30 46 1 12 43
M  V30 47 1 12 44
M  V30 48 1 15 45
M  V30 49 1 16 46
M  V30 50 1 18 47
M  V30 51 1 20 48
M  V30 52 1 21 49
M  V30 53 1 22 50
M  V30 54 1 24 51
M  V30 55 1 24 52
M  V30 56 1 27 53
M  V30 57 1 28 54
M  V30 58 1 30 55
M  V30 59 1 32 56
M  V30 60 1 33 57
M  V30 61 1 34 58
M  V30 62 1 35 59
M  V30 63 1 36 60
M  V30 END BOND
M  V30 END CTAB
M  END
