
     RDKit          3D

  0  0  0  0  0  0  0  0  0  0999 V3000
M  V30 BEGIN CTAB
M  V30 COUNTS 36 36 0 0 0
M  V30 BEGIN ATOM
M  V30 1 C 3.7243 -0.511054 0.326794 0
M  V30 2 C 2.57466 -0.273759 1.25768 0
M  V30 3 C 1.2863 -0.110413 0.56194 0
M  V30 4 C 0.555606 -1.17076 0.153608 0
M  V30 5 C 1.00467 -2.52573 0.445899 0
M  V30 6 O 1.72129 -3.2381 -0.272449 0
M  V30 7 C -0.672352 -1.04087 -0.539206 0
M  V30 8 C -1.39281 -2.25511 -0.942787 0
M  V30 9 C -2.1847 -2.89919 0.180937 0
M  V30 10 C -1.16908 0.210978 -0.821004 0
M  V30 11 C -2.43349 0.444424 -1.50046 0
M  V30 12 O -3.24528 -0.402512 -1.90496 0
M  V30 13 C -0.404569 1.30554 -0.393543 0
M  V30 14 C -0.920348 2.66236 -0.683953 0
M  V30 15 C -2.04487 3.08554 0.228922 0
M  V30 16 C 0.78662 1.16009 0.27769 0
M  V30 17 C 1.56655 2.30848 0.711293 0
M  V30 18 O 1.43526 2.86224 1.82472 0
M  V30 19 H 4.54341 -1.04599 0.866346 0
M  V30 20 H 4.09066 0.471058 -0.091081 0
M  V30 21 H 3.4688 -1.1029 -0.568236 0
M  V30 22 H 2.83245 0.646699 1.86499 0
M  V30 23 H 2.54563 -1.14926 1.95 0
M  V30 24 H 0.685649 -2.98902 1.40318 0
M  V30 25 H -0.556766 -3.03303 -1.11526 0
M  V30 26 H -1.88881 -2.24542 -1.91046 0
M  V30 27 H -1.5712 -3.53669 0.833346 0
M  V30 28 H -2.96687 -3.52251 -0.342971 0
M  V30 29 H -2.65247 -2.14314 0.836354 0
M  V30 30 H -2.75349 1.47522 -1.70349 0
M  V30 31 H -1.17758 2.70335 -1.76199 0
M  V30 32 H -0.0876394 3.39193 -0.533651 0
M  V30 33 H -1.72514 3.84178 0.990458 0
M  V30 34 H -2.51832 2.25544 0.7586 0
M  V30 35 H -2.77291 3.64065 -0.429296 0
M  V30 36 H 2.31683 2.72968 0.0420276 0
M  V30 END ATOM
M  V30 BEGIN BOND
M  V30 1 1 1 2
M  V30 2 1 2 3
M  V30 3 2 3 4
M  V30 4 1 4 5
M  V30 5 2 5 6
M  V30 6 1 4 7
M  V30 7 1 7 8
M  V30 8 1 8 9
M  V30 9 2 7 10
M  V30 10 1 10 11
M  V30 11 2 11 12
M  V30 12 1 10 13
M  V30 13 1 13 14
M  V30 14 1 14 15
M  V30 15 2 13 16
M  V30 16 1 16 17
M  V30 17 2 17 18
M  V30 18 1 16 3
M  V30 19 1 1 19
M  V30 20 1 1 20
M  V30 21 1 1 21
M  V30 22 1 2 22
M  V30 23 1 2 23
M  V30 24 1 5 24
M  V30 25 1 8 25
M  V30 26 1 8 26
M  V30 27 1 9 27
M  V30 28 1 9 28
M  V30 29 1 9 29
M  V30 30 1 11 30
M  V30 31 1 14 31
M  V30 32 1 14 32
M  V30 33 1 15 33
M  V30 34 1 15 34
M  V30 35 1 15 35
M  V30 36 1 17 36
M  V30 END BOND
M  V30 END CTAB
M  END
