
     RDKit          3D

  0  0  0  0  0  0  0  0  0  0999 V3000
M  V30 BEGIN CTAB
M  V30 COUNTS 32 31 0 0 0
M  V30 BEGIN ATOM
M  V30 1 O 5.58256 -1.06823 1.36281 0
M  V30 2 C 5.58748 -0.0718045 0.598452 0
M  V30 3 N 4.41448 0.401294 -0.0429996 0
M  V30 4 C 3.16695 -0.293232 0.194924 0
M  V30 5 C 2.03452 0.370109 -0.583075 0
M  V30 6 C 0.750663 -0.396224 -0.298113 0
M  V30 7 N -0.367251 0.21842 -1.03522 0
M  V30 8 C -1.10091 1.24149 -0.365511 0
M  V30 9 C -2.2466 0.759328 0.479096 0
M  V30 10 C -3.2982 0.0051092 -0.271306 0
M  V30 11 N -4.36969 -0.420889 0.584998 0
M  V30 12 C -4.19969 -1.29358 1.6715 0
M  V30 13 O -3.10417 -1.8032 2.01776 0
M  V30 14 C -0.614927 -0.269463 -2.3288 0
M  V30 15 O -1.53796 0.221078 -3.00543 0
M  V30 16 H 6.52969 0.429318 0.436749 0
M  V30 17 H 4.43729 1.21724 -0.66445 0
M  V30 18 H 3.2416 -1.34932 -0.181795 0
M  V30 19 H 2.91443 -0.377922 1.2699 0
M  V30 20 H 2.24301 0.324259 -1.67111 0
M  V30 21 H 1.95763 1.42893 -0.303543 0
M  V30 22 H 0.924442 -1.43895 -0.632518 0
M  V30 23 H 0.55305 -0.4114 0.783291 0
M  V30 24 H -1.50213 2.01737 -1.06342 0
M  V30 25 H -0.403746 1.79413 0.301893 0
M  V30 26 H -2.72491 1.67407 0.945916 0
M  V30 27 H -1.90909 0.16207 1.34954 0
M  V30 28 H -3.70275 0.572398 -1.13548 0
M  V30 29 H -2.85562 -0.927496 -0.73043 0
M  V30 30 H -5.3312 -0.0631205 0.39186 0
M  V30 31 H -5.04884 -1.59725 2.31233 0
M  V30 32 H -0.0201404 -1.05454 -2.73459 0
M  V30 END ATOM
M  V30 BEGIN BOND
M  V30 1 2 1 2
M  V30 2 1 2 3
M  V30 3 1 3 4
M  V30 4 1 4 5
M  V30 5 1 5 6
M  V30 6 1 6 7
M  V30 7 1 7 8
M  V30 8 1 8 9
M  V30 9 1 9 10
M  V30 10 1 10 11
M  V30 11 1 11 12
M  V30 12 2 12 13
M  V30 13 1 7 14
M  V30 14 2 14 15
M  V30 15 1 2 16
M  V30 16 1 3 17
M  V30 17 1 4 18
M  V30 18 1 4 19
M  V30 19 1 5 20
M  V30 20 1 5 21
M  V30 21 1 6 22
M  V30 22 1 6 23
M  V30 23 1 8 24
M  V30 24 1 8 25
M  V30 25 1 9 26
M  V30 26 1 9 27
M  V30 27 1 10 28
M  V30 28 1 10 29
M  V30 29 1 11 30
M  V30 30 1 12 31
M  V30 31 1 14 32
M  V30 END BOND
M  V30 END CTAB
M  END
