
     RDKit          3D

  0  0  0  0  0  0  0  0  0  0999 V3000
M  V30 BEGIN CTAB
M  V30 COUNTS 57 60 0 0 0
M  V30 BEGIN ATOM
M  V30 1 C -2.02734 4.81269 2.00212 0
M  V30 2 O -0.7133 4.62506 1.56774 0
M  V30 3 C -0.321188 3.68672 0.627769 0
M  V30 4 C -1.21294 2.83062 0.0193686 0
M  V30 5 C -0.81812 1.88165 -0.930782 0
M  V30 6 C 0.521698 1.82694 -1.24807 0
M  V30 7 C 1.06706 0.851327 -2.25496 0
M  V30 8 C 1.5813 -0.373946 -1.58409 0
M  V30 9 C 0.855277 -1.53607 -1.43625 0
M  V30 10 C -0.548717 -1.68296 -1.94694 0
M  V30 11 C -1.56036 -1.41571 -0.893725 0
M  V30 12 C -1.92291 -2.44993 -0.0573681 0
M  V30 13 C -2.86813 -2.29315 0.9632 0
M  V30 14 O -3.22802 -3.33682 1.80046 0
M  V30 15 C -2.64639 -4.63218 1.65972 0
M  V30 16 C -3.45843 -1.07236 1.14398 0
M  V30 17 C -4.43883 -0.899322 2.19839 0
M  V30 18 O -5.00475 0.206341 2.39804 0
M  V30 19 C -3.08773 -0.0448292 0.300884 0
M  V30 20 C -2.15448 -0.194212 -0.708918 0
M  V30 21 C -1.85339 0.99712 -1.54158 0
M  V30 22 C 1.4281 -2.63864 -0.790752 0
M  V30 23 C 2.70522 -2.62275 -0.285307 0
M  V30 24 C 3.27878 -3.79709 0.387727 0
M  V30 25 O 2.62608 -4.8433 0.521289 0
M  V30 26 C 3.43203 -1.46193 -0.43245 0
M  V30 27 O 4.72287 -1.45242 0.0808538 0
M  V30 28 C 5.49068 -0.278717 -0.05475 0
M  V30 29 C 2.87268 -0.37237 -1.06772 0
M  V30 30 C 1.40771 2.69595 -0.626891 0
M  V30 31 C 1.015 3.6287 0.308013 0
M  V30 32 C 1.99711 4.5313 0.940985 0
M  V30 33 O 1.57293 5.35786 1.78457 0
M  V30 34 H -2.11134 5.8837 2.34776 0
M  V30 35 H -2.27362 4.10078 2.819 0
M  V30 36 H -2.76854 4.71952 1.18309 0
M  V30 37 H -2.25883 2.88292 0.274812 0
M  V30 38 H 1.91243 1.39869 -2.77412 0
M  V30 39 H 0.351771 0.641645 -3.06184 0
M  V30 40 H -0.722199 -1.07328 -2.85932 0
M  V30 41 H -0.633032 -2.7488 -2.31882 0
M  V30 42 H -1.46524 -3.43417 -0.18383 0
M  V30 43 H -3.19015 -5.37873 2.26542 0
M  V30 44 H -2.61691 -4.93694 0.571928 0
M  V30 45 H -1.5878 -4.62471 1.99005 0
M  V30 46 H -4.6841 -1.74222 2.82253 0
M  V30 47 H -3.59326 0.908583 0.491721 0
M  V30 48 H -2.80962 1.59808 -1.6213 0
M  V30 49 H -1.62337 0.73465 -2.59488 0
M  V30 50 H 0.87325 -3.56655 -0.663945 0
M  V30 51 H 4.28409 -3.78253 0.78484 0
M  V30 52 H 5.83709 -0.120653 -1.11251 0
M  V30 53 H 6.42498 -0.339462 0.552865 0
M  V30 54 H 4.95561 0.634129 0.237723 0
M  V30 55 H 3.47164 0.534417 -1.17297 0
M  V30 56 H 2.48209 2.67672 -0.862275 0
M  V30 57 H 3.03558 4.50065 0.705752 0
M  V30 END ATOM
M  V30 BEGIN BOND
M  V30 1 1 1 2
M  V30 2 1 2 3
M  V30 3 2 3 4
M  V30 4 1 4 5
M  V30 5 2 5 6
M  V30 6 1 6 7
M  V30 7 1 7 8
M  V30 8 2 8 9
M  V30 9 1 9 10
M  V30 10 1 10 11
M  V30 11 2 11 12
M  V30 12 1 12 13
M  V30 13 1 13 14
M  V30 14 1 14 15
M  V30 15 2 13 16
M  V30 16 1 16 17
M  V30 17 2 17 18
M  V30 18 1 16 19
M  V30 19 2 19 20
M  V30 20 1 20 21
M  V30 21 1 9 22
M  V30 22 2 22 23
M  V30 23 1 23 24
M  V30 24 2 24 25
M  V30 25 1 23 26
M  V30 26 1 26 27
M  V30 27 1 27 28
M  V30 28 2 26 29
M  V30 29 1 6 30
M  V30 30 2 30 31
M  V30 31 1 31 32
M  V30 32 2 32 33
M  V30 33 1 31 3
M  V30 34 1 21 5
M  V30 35 1 29 8
M  V30 36 1 20 11
M  V30 37 1 1 34
M  V30 38 1 1 35
M  V30 39 1 1 36
M  V30 40 1 4 37
M  V30 41 1 7 38
M  V30 42 1 7 39
M  V30 43 1 10 40
M  V30 44 1 10 41
M  V30 45 1 12 42
M  V30 46 1 15 43
M  V30 47 1 15 44
M  V30 48 1 15 45
M  V30 49 1 17 46
M  V30 50 1 19 47
M  V30 51 1 21 48
M  V30 52 1 21 49
M  V30 53 1 22 50
M  V30 54 1 24 51
M  V30 55 1 28 52
M  V30 56 1 28 53
M  V30 57 1 28 54
M  V30 58 1 29 55
M  V30 59 1 30 56
M  V30 60 1 32 57
M  V30 END BOND
M  V30 END CTAB
M  END
