
     RDKit          3D

  0  0  0  0  0  0  0  0  0  0999 V3000
M  V30 BEGIN CTAB
M  V30 COUNTS 90 96 0 0 0
M  V30 BEGIN ATOM
M  V30 1 C 6.08467 0.0675299 1.00203 0 CFG=1
M  V30 2 O 7.14094 -0.809976 0.904884 0
M  V30 3 C 6.5336 -2.05323 1.01531 0 CFG=2
M  V30 4 O 7.23949 -3.049 0.348099 0
M  V30 5 C 6.76992 -3.05036 -0.963299 0
M  V30 6 C 6.82967 -4.47873 -1.46229 0
M  V30 7 C 7.57062 -2.16014 -1.86483 0
M  V30 8 O 5.42822 -2.68418 -0.903455 0
M  V30 9 C 5.23964 -1.99203 0.267364 0 CFG=2
M  V30 10 C 5.0621 -0.490025 0.0513839 0 CFG=1
M  V30 11 O 3.77818 -0.136909 0.405561 0
M  V30 12 C 3.15958 0.43667 -0.703427 0
M  V30 13 C 1.78052 0.806635 -0.28192 0
M  V30 14 C 1.50719 2.02505 0.268039 0
M  V30 15 C 0.207725 2.4226 0.689878 0
M  V30 16 C 0.0777482 3.76833 1.2644 0
M  V30 17 O -1.09433 4.16513 1.6655 0
M  V30 18 C -2.22923 4.3247 0.994389 0 CFG=2
M  V30 19 C -2.50671 5.81701 0.683693 0 CFG=1
M  V30 20 O -2.94281 5.97563 -0.630222 0
M  V30 21 C -4.2022 6.55848 -0.569828 0
M  V30 22 C -5.29519 5.61746 -0.950439 0
M  V30 23 C -4.21252 7.70947 -1.56757 0
M  V30 24 O -4.3931 7.01271 0.734185 0
M  V30 25 C -3.68073 6.09977 1.55472 0 CFG=1
M  V30 26 O -4.40569 4.92208 1.66081 0
M  V30 27 C -3.50848 3.88035 1.60196 0 CFG=2
M  V30 28 C -3.30228 3.26719 2.96865 0
M  V30 29 O -3.90177 3.72344 3.91263 0
M  V30 30 C -0.742674 1.47718 0.495933 0
M  V30 31 C -0.520088 0.217871 -0.0608664 0
M  V30 32 C -1.63129 -0.746685 -0.234485 0
M  V30 33 O -1.22687 -1.94666 -0.747275 0
M  V30 34 C -2.34735 -2.76653 -0.871508 0 CFG=2
M  V30 35 C -2.11317 -4.08146 -0.162152 0 CFG=1
M  V30 36 O -3.00293 -4.26283 0.877632 0
M  V30 37 C -3.71212 -5.41173 0.634768 0
M  V30 38 C -5.20921 -5.1917 0.585801 0
M  V30 39 C -3.45548 -6.36025 1.80605 0
M  V30 40 O -3.22237 -6.0195 -0.493433 0
M  V30 41 C -2.47745 -5.08908 -1.20378 0 CFG=1
M  V30 42 O -3.22437 -4.41225 -2.14573 0
M  V30 43 C -2.54625 -3.20758 -2.30647 0 CFG=2
M  V30 44 C -1.23642 -3.44124 -2.99244 0
M  V30 45 O -0.494952 -2.51064 -3.2239 0
M  V30 46 C 0.744198 -0.101686 -0.443889 0
M  V30 47 C 5.54776 0.154732 2.37556 0
M  V30 48 O 4.61919 0.862999 2.6803 0
M  V30 49 H 6.39357 1.05362 0.647801 0
M  V30 50 H 6.36465 -2.29762 2.06362 0
M  V30 51 H 6.37871 -4.59553 -2.47212 0
M  V30 52 H 6.2768 -5.10184 -0.728067 0
M  V30 53 H 7.8846 -4.81627 -1.44097 0
M  V30 54 H 6.91708 -1.52625 -2.49901 0
M  V30 55 H 8.18349 -1.47182 -1.24259 0
M  V30 56 H 8.21032 -2.75272 -2.52433 0
M  V30 57 H 4.38058 -2.3966 0.838306 0
M  V30 58 H 5.27477 -0.23987 -0.989031 0
M  V30 59 H 3.08142 -0.365827 -1.46537 0
M  V30 60 H 3.71745 1.27202 -1.13053 0
M  V30 61 H 2.30115 2.76763 0.410943 0
M  V30 62 H 0.907705 3.89515 2.04211 0
M  V30 63 H 0.529795 4.43598 0.422338 0
M  V30 64 H -2.12303 3.90603 -0.0297068 0
M  V30 65 H -1.63202 6.44241 0.820856 0
M  V30 66 H -6.13762 5.60468 -0.218256 0
M  V30 67 H -4.95755 4.57303 -1.1013 0
M  V30 68 H -5.7771 5.90436 -1.92687 0
M  V30 69 H -4.99236 8.45545 -1.30376 0
M  V30 70 H -4.40487 7.22947 -2.56529 0
M  V30 71 H -3.19735 8.11751 -1.60318 0
M  V30 72 H -3.4607 6.54888 2.53378 0
M  V30 73 H -4.01716 3.05895 1.01489 0
M  V30 74 H -2.61235 2.43726 3.01215 0
M  V30 75 H -1.74354 1.68291 0.784181 0
M  V30 76 H -2.42963 -0.243215 -0.814987 0
M  V30 77 H -2.06876 -0.913192 0.788522 0
M  V30 78 H -3.26421 -2.26385 -0.540743 0
M  V30 79 H -1.05803 -4.1235 0.155914 0
M  V30 80 H -5.69949 -6.16478 0.409155 0
M  V30 81 H -5.50208 -4.75702 1.56734 0
M  V30 82 H -5.41682 -4.49634 -0.243137 0
M  V30 83 H -2.35335 -6.43113 2.02607 0
M  V30 84 H -3.95328 -6.00291 2.71109 0
M  V30 85 H -3.83721 -7.35867 1.45903 0
M  V30 86 H -1.55538 -5.50227 -1.62847 0
M  V30 87 H -3.14514 -2.47303 -2.88887 0
M  V30 88 H -0.97037 -4.43991 -3.27208 0
M  V30 89 H 1.00551 -1.05817 -0.885036 0
M  V30 90 H 6.0189 -0.451612 3.13929 0
M  V30 END ATOM
M  V30 BEGIN BOND
M  V30 1 1 1 2
M  V30 2 1 2 3
M  V30 3 1 3 4
M  V30 4 1 4 5
M  V30 5 1 5 6
M  V30 6 1 5 7
M  V30 7 1 5 8
M  V30 8 1 8 9
M  V30 9 1 9 10
M  V30 10 1 10 11
M  V30 11 1 11 12
M  V30 12 1 12 13
M  V30 13 2 13 14
M  V30 14 1 14 15
M  V30 15 1 15 16
M  V30 16 1 16 17
M  V30 17 1 17 18
M  V30 18 1 18 19
M  V30 19 1 19 20
M  V30 20 1 20 21
M  V30 21 1 21 22
M  V30 22 1 21 23
M  V30 23 1 21 24
M  V30 24 1 24 25
M  V30 25 1 25 26
M  V30 26 1 26 27
M  V30 27 1 27 28
M  V30 28 2 28 29
M  V30 29 2 15 30
M  V30 30 1 30 31
M  V30 31 1 31 32
M  V30 32 1 32 33
M  V30 33 1 33 34
M  V30 34 1 34 35
M  V30 35 1 35 36
M  V30 36 1 36 37
M  V30 37 1 37 38
M  V30 38 1 37 39
M  V30 39 1 37 40
M  V30 40 1 40 41
M  V30 41 1 41 42
M  V30 42 1 42 43
M  V30 43 1 43 44
M  V30 44 2 44 45
M  V30 45 2 31 46
M  V30 46 1 1 47
M  V30 47 2 47 48
M  V30 48 1 10 1
M  V30 49 1 46 13
M  V30 50 1 9 3
M  V30 51 1 27 18
M  V30 52 1 43 34
M  V30 53 1 25 19
M  V30 54 1 41 35
M  V30 55 1 1 49 CFG=3
M  V30 56 1 3 50 CFG=1
M  V30 57 1 6 51
M  V30 58 1 6 52
M  V30 59 1 6 53
M  V30 60 1 7 54
M  V30 61 1 7 55
M  V30 62 1 7 56
M  V30 63 1 9 57 CFG=1
M  V30 64 1 10 58 CFG=3
M  V30 65 1 12 59
M  V30 66 1 12 60
M  V30 67 1 14 61
M  V30 68 1 16 62
M  V30 69 1 16 63
M  V30 70 1 18 64 CFG=3
M  V30 71 1 19 65 CFG=1
M  V30 72 1 22 66
M  V30 73 1 22 67
M  V30 74 1 22 68
M  V30 75 1 23 69
M  V30 76 1 23 70
M  V30 77 1 23 71
M  V30 78 1 25 72 CFG=1
M  V30 79 1 27 73 CFG=3
M  V30 80 1 28 74
M  V30 81 1 30 75
M  V30 82 1 32 76
M  V30 83 1 32 77
M  V30 84 1 34 78 CFG=1
M  V30 85 1 35 79 CFG=1
M  V30 86 1 38 80
M  V30 87 1 38 81
M  V30 88 1 38 82
M  V30 89 1 39 83
M  V30 90 1 39 84
M  V30 91 1 39 85
M  V30 92 1 41 86 CFG=3
M  V30 93 1 43 87 CFG=3
M  V30 94 1 44 88
M  V30 95 1 46 89
M  V30 96 1 47 90
M  V30 END BOND
M  V30 END CTAB
M  END
