
     RDKit          3D

  0  0  0  0  0  0  0  0  0  0999 V3000
M  V30 BEGIN CTAB
M  V30 COUNTS 24 24 0 0 0
M  V30 BEGIN ATOM
M  V30 1 O -2.75829 -1.32014 -0.397651 0
M  V30 2 C -1.93715 -1.50956 -0.566392 0
M  V30 3 C -0.780766 -1.25184 0.374153 0 CFG=1
M  V30 4 C 0.51737 -1.20979 -0.312914 0
M  V30 5 C 1.49324 -0.17993 0.0656095 0 CFG=2
M  V30 6 C 0.986373 1.05501 0.71427 0
M  V30 7 C -0.504036 1.22375 0.67713 0 CFG=2
M  V30 8 C -1.1279 -0.0426444 1.18434 0
M  V30 9 C -1.02063 1.64654 -0.630502 0
M  V30 10 O -0.357925 2.18277 -1.48834 0
M  V30 11 C 2.27697 0.236056 -1.15398 0
M  V30 12 O 3.40676 0.624301 -1.11256 0
M  V30 13 H -1.60536 -1.97928 -1.51749 0
M  V30 14 H -0.845269 -2.13033 1.08547 0
M  V30 15 H 0.315523 -1.13433 -1.42422 0
M  V30 16 H 0.994428 -2.23266 -0.224363 0
M  V30 17 H 2.25636 -0.632568 0.750499 0
M  V30 18 H 1.4288 1.97936 0.273122 0
M  V30 19 H 1.27979 1.1035 1.80581 0
M  V30 20 H -0.761403 2.02061 1.41418 0
M  V30 21 H -2.22054 0.0985326 1.20368 0
M  V30 22 H -0.745581 -0.19044 2.23115 0
M  V30 23 H -2.06514 1.47091 -0.852192 0
M  V30 24 H 1.77438 0.172183 -2.09881 0
M  V30 END ATOM
M  V30 BEGIN BOND
M  V30 1 2 1 2
M  V30 2 1 2 3
M  V30 3 1 3 4
M  V30 4 1 4 5
M  V30 5 1 5 6
M  V30 6 1 6 7
M  V30 7 1 7 8
M  V30 8 1 7 9
M  V30 9 2 9 10
M  V30 10 1 5 11
M  V30 11 2 11 12
M  V30 12 1 8 3
M  V30 13 1 2 13
M  V30 14 1 3 14 CFG=1
M  V30 15 1 4 15
M  V30 16 1 4 16
M  V30 17 1 5 17 CFG=1
M  V30 18 1 6 18
M  V30 19 1 6 19
M  V30 20 1 7 20 CFG=1
M  V30 21 1 8 21
M  V30 22 1 8 22
M  V30 23 1 9 23
M  V30 24 1 11 24
M  V30 END BOND
M  V30 END CTAB
M  END
