
     RDKit          3D

  0  0  0  0  0  0  0  0  0  0999 V3000
M  V30 BEGIN CTAB
M  V30 COUNTS 54 55 0 0 0
M  V30 BEGIN ATOM
M  V30 1 O -6.28307 1.42436 -0.782944 0
M  V30 2 C -5.8801 0.401359 -0.1833 0
M  V30 3 N -4.5422 0.11812 0.088338 0
M  V30 4 C -3.40074 0.877623 -0.232774 0
M  V30 5 C -3.40059 2.12338 -0.985195 0
M  V30 6 N -2.02074 2.6019 -0.921987 0
M  V30 7 C -0.863295 1.72281 -1.10352 0
M  V30 8 C -0.0783315 1.46799 0.119736 0
M  V30 9 N 0.516769 0.178712 0.28042 0
M  V30 10 C -0.10302 -1.09232 0.0120227 0
M  V30 11 C -1.08369 -1.57645 1.06167 0
M  V30 12 N -2.06495 -2.37679 0.310258 0
M  V30 13 C -3.40582 -2.07404 0.017184 0
M  V30 14 C -4.18187 -1.12412 0.803999 0
M  V30 15 C -1.51879 -3.61643 -0.157003 0
M  V30 16 O -2.25261 -4.39287 -0.813057 0
M  V30 17 C 1.86009 0.101801 0.755286 0
M  V30 18 O 2.45382 1.17682 1.00918 0
M  V30 19 O 2.55666 -1.05618 0.957151 0
M  V30 20 C 3.85801 -1.2202 1.41354 0
M  V30 21 C 4.91855 -0.614047 0.622852 0
M  V30 22 C 5.50372 0.573247 0.9838 0
M  V30 23 C 6.5088 1.15206 0.232331 0
M  V30 24 C 6.94074 0.530163 -0.907979 0
M  V30 25 C 6.37959 -0.6591 -1.30148 0
M  V30 26 C 5.36273 -1.22743 -0.525108 0
M  V30 27 C -1.83407 3.98411 -0.67305 0
M  V30 28 O -0.692294 4.51544 -0.596054 0
M  V30 29 H -6.65672 -0.290986 0.132158 0
M  V30 30 H -2.87415 1.05137 0.729927 0
M  V30 31 H -2.81404 0.176068 -0.89919 0
M  V30 32 H -4.07689 2.84854 -0.508472 0
M  V30 33 H -3.61138 2.00812 -2.08006 0
M  V30 34 H -0.193068 2.29636 -1.8251 0
M  V30 35 H -1.11102 0.826789 -1.72573 0
M  V30 36 H 0.734751 2.25755 0.181743 0
M  V30 37 H -0.620274 1.66921 1.0873 0
M  V30 38 H -0.607217 -0.991312 -0.992972 0
M  V30 39 H 0.623213 -1.90558 -0.134105 0
M  V30 40 H -0.568545 -2.25813 1.7863 0
M  V30 41 H -1.54693 -0.773286 1.64366 0
M  V30 42 H -3.44815 -1.74478 -1.06632 0
M  V30 43 H -3.97154 -3.05644 -0.0274843 0
M  V30 44 H -3.63944 -0.890064 1.74304 0
M  V30 45 H -5.14303 -1.56389 1.12576 0
M  V30 46 H -0.50945 -3.94224 0.0126654 0
M  V30 47 H 4.0082 -2.33419 1.54639 0
M  V30 48 H 3.87415 -0.843121 2.48048 0
M  V30 49 H 5.20509 1.10356 1.87151 0
M  V30 50 H 6.94937 2.08548 0.541023 0
M  V30 51 H 7.72815 1.00211 -1.47935 0
M  V30 52 H 6.74704 -1.11906 -2.20656 0
M  V30 53 H 4.96386 -2.15169 -0.878908 0
M  V30 54 H -2.69528 4.61968 -0.542033 0
M  V30 END ATOM
M  V30 BEGIN BOND
M  V30 1 2 1 2
M  V30 2 1 2 3
M  V30 3 1 3 4
M  V30 4 1 4 5
M  V30 5 1 5 6
M  V30 6 1 6 7
M  V30 7 1 7 8
M  V30 8 1 8 9
M  V30 9 1 9 10
M  V30 10 1 10 11
M  V30 11 1 11 12
M  V30 12 1 12 13
M  V30 13 1 13 14
M  V30 14 1 12 15
M  V30 15 2 15 16
M  V30 16 1 9 17
M  V30 17 2 17 18
M  V30 18 1 17 19
M  V30 19 1 19 20
M  V30 20 1 20 21
M  V30 21 2 21 22
M  V30 22 1 22 23
M  V30 23 2 23 24
M  V30 24 1 24 25
M  V30 25 2 25 26
M  V30 26 1 6 27
M  V30 27 2 27 28
M  V30 28 1 14 3
M  V30 29 1 26 21
M  V30 30 1 2 29
M  V30 31 1 4 30
M  V30 32 1 4 31
M  V30 33 1 5 32
M  V30 34 1 5 33
M  V30 35 1 7 34
M  V30 36 1 7 35
M  V30 37 1 8 36
M  V30 38 1 8 37
M  V30 39 1 10 38
M  V30 40 1 10 39
M  V30 41 1 11 40
M  V30 42 1 11 41
M  V30 43 1 13 42
M  V30 44 1 13 43
M  V30 45 1 14 44
M  V30 46 1 14 45
M  V30 47 1 15 46
M  V30 48 1 20 47
M  V30 49 1 20 48
M  V30 50 1 22 49
M  V30 51 1 23 50
M  V30 52 1 24 51
M  V30 53 1 25 52
M  V30 54 1 26 53
M  V30 55 1 27 54
M  V30 END BOND
M  V30 END CTAB
M  END
