
     RDKit          3D

  0  0  0  0  0  0  0  0  0  0999 V3000
M  V30 BEGIN CTAB
M  V30 COUNTS 66 69 0 0 0
M  V30 BEGIN ATOM
M  V30 1 O 8.34953 -0.432288 -3.21939 0
M  V30 2 C 8.27754 -0.287522 -1.97237 0
M  V30 3 C 7.2653 0.542596 -1.35728 0
M  V30 4 C 7.24449 0.657524 0.029254 0
M  V30 5 C 6.26903 1.45507 0.5874 0
M  V30 6 C 5.34536 2.11734 -0.188938 0
M  V30 7 C 4.29524 2.97557 0.404617 0
M  V30 8 O 3.03971 2.37175 0.336366 0
M  V30 9 C 2.6654 1.17538 0.906874 0
M  V30 10 O 3.51641 0.534208 1.56601 0
M  V30 11 C 1.29509 0.672489 0.739081 0
M  V30 12 C 0.896553 -0.519555 1.29926 0
M  V30 13 C -0.398315 -0.977384 1.13048 0
M  V30 14 C -1.28354 -0.203398 0.382078 0
M  V30 15 C -0.90738 0.986698 -0.184494 0
M  V30 16 C 0.382163 1.41987 -0.00313396 0
M  V30 17 C -1.87187 1.74509 -0.950434 0
M  V30 18 O -1.50438 2.83386 -1.46081 0
M  V30 19 O -3.16288 1.34676 -1.15265 0
M  V30 20 C -4.14595 2.01508 -1.87195 0
M  V30 21 C -4.49851 3.35428 -1.38685 0
M  V30 22 C -4.15624 3.80652 -0.136047 0
M  V30 23 C -4.50511 5.05765 0.257847 0
M  V30 24 C -5.20372 5.88847 -0.585195 0
M  V30 25 C -5.57796 7.23128 -0.161951 0
M  V30 26 O -6.20817 7.96069 -0.942073 0
M  V30 27 C -5.56802 5.46063 -1.86387 0
M  V30 28 C -5.20613 4.20041 -2.23605 0
M  V30 29 C -0.826132 -2.23885 1.72138 0
M  V30 30 O -0.0530684 -2.93608 2.38763 0
M  V30 31 O -2.13044 -2.65717 1.52623 0
M  V30 32 C -2.67595 -3.83161 2.02689 0
M  V30 33 C -2.01992 -5.07361 1.5688 0
M  V30 34 C -1.24436 -5.05956 0.438128 0
M  V30 35 C -0.61443 -6.22896 -0.0017042 0
M  V30 36 C -0.783751 -7.39253 0.715118 0
M  V30 37 C -0.115422 -8.60874 0.23866 0
M  V30 38 O 0.595211 -8.60822 -0.792027 0
M  V30 39 C -1.55322 -7.41459 1.83989 0
M  V30 40 C -2.1775 -6.24846 2.273 0
M  V30 41 C 5.38216 1.99017 -1.5729 0
M  V30 42 C 6.34994 1.19773 -2.143 0
M  V30 43 H 9.01069 -0.814996 -1.38261 0
M  V30 44 H 7.97682 0.131253 0.62825 0
M  V30 45 H 6.23422 1.55864 1.66181 0
M  V30 46 H 4.29672 3.97499 -0.105001 0
M  V30 47 H 4.58459 3.21369 1.4709 0
M  V30 48 H 1.62766 -1.08219 1.87275 0
M  V30 49 H -2.29686 -0.554083 0.245565 0
M  V30 50 H 0.709045 2.36036 -0.440912 0
M  V30 51 H -5.07623 1.37465 -1.81936 0
M  V30 52 H -3.93133 2.09539 -2.95883 0
M  V30 53 H -3.60393 3.12304 0.513823 0
M  V30 54 H -4.21745 5.38915 1.26136 0
M  V30 55 H -5.2825 7.54299 0.840847 0
M  V30 56 H -6.10849 6.13095 -2.48904 0
M  V30 57 H -5.49406 3.87217 -3.23705 0
M  V30 58 H -3.75331 -3.87293 1.72802 0
M  V30 59 H -2.68046 -3.80709 3.15583 0
M  V30 60 H -1.13425 -4.1341 -0.103068 0
M  V30 61 H -0.0160163 -6.20785 -0.878041 0
M  V30 62 H -0.235953 -9.52015 0.78263 0
M  V30 63 H -1.6732 -8.34744 2.39159 0
M  V30 64 H -2.77898 -6.28623 3.16051 0
M  V30 65 H 4.67711 2.49143 -2.22539 0
M  V30 66 H 6.38939 1.08981 -3.22792 0
M  V30 END ATOM
M  V30 BEGIN BOND
M  V30 1 2 1 2
M  V30 2 1 2 3
M  V30 3 2 3 4
M  V30 4 1 4 5
M  V30 5 2 5 6
M  V30 6 1 6 7
M  V30 7 1 7 8
M  V30 8 1 8 9
M  V30 9 2 9 10
M  V30 10 1 9 11
M  V30 11 2 11 12
M  V30 12 1 12 13
M  V30 13 2 13 14
M  V30 14 1 14 15
M  V30 15 2 15 16
M  V30 16 1 15 17
M  V30 17 2 17 18
M  V30 18 1 17 19
M  V30 19 1 19 20
M  V30 20 1 20 21
M  V30 21 2 21 22
M  V30 22 1 22 23
M  V30 23 2 23 24
M  V30 24 1 24 25
M  V30 25 2 25 26
M  V30 26 1 24 27
M  V30 27 2 27 28
M  V30 28 1 13 29
M  V30 29 2 29 30
M  V30 30 1 29 31
M  V30 31 1 31 32
M  V30 32 1 32 33
M  V30 33 2 33 34
M  V30 34 1 34 35
M  V30 35 2 35 36
M  V30 36 1 36 37
M  V30 37 2 37 38
M  V30 38 1 36 39
M  V30 39 2 39 40
M  V30 40 1 6 41
M  V30 41 2 41 42
M  V30 42 1 42 3
M  V30 43 1 16 11
M  V30 44 1 28 21
M  V30 45 1 40 33
M  V30 46 1 2 43
M  V30 47 1 4 44
M  V30 48 1 5 45
M  V30 49 1 7 46
M  V30 50 1 7 47
M  V30 51 1 12 48
M  V30 52 1 14 49
M  V30 53 1 16 50
M  V30 54 1 20 51
M  V30 55 1 20 52
M  V30 56 1 22 53
M  V30 57 1 23 54
M  V30 58 1 25 55
M  V30 59 1 27 56
M  V30 60 1 28 57
M  V30 61 1 32 58
M  V30 62 1 32 59
M  V30 63 1 34 60
M  V30 64 1 35 61
M  V30 65 1 37 62
M  V30 66 1 39 63
M  V30 67 1 40 64
M  V30 68 1 41 65
M  V30 69 1 42 66
M  V30 END BOND
M  V30 END CTAB
M  END
