
     RDKit          3D

  0  0  0  0  0  0  0  0  0  0999 V3000
M  V30 BEGIN CTAB
M  V30 COUNTS 27 27 0 0 0
M  V30 BEGIN ATOM
M  V30 1 C -0.713213 -2.79575 0.0313573 0
M  V30 2 C -0.32836 -1.33965 0.0184726 0
M  V30 3 C 0.987899 -0.969999 0.0970326 0
M  V30 4 C 2.02073 -2.01535 0.194205 0
M  V30 5 O 2.48617 -2.43989 -0.893861 0
M  V30 6 C 1.32047 0.369164 0.0837395 0
M  V30 7 C 2.73824 0.741039 0.168993 0
M  V30 8 C 0.357329 1.3478 -0.00697619 0
M  V30 9 C 0.730258 2.74876 -0.01915 0
M  V30 10 O -0.0378358 3.71325 -0.0964021 0
M  V30 11 C -0.964549 0.979313 -0.0859457 0
M  V30 12 C -2.00006 2.00701 -0.182847 0
M  V30 13 C -1.31874 -0.379263 -0.0735871 0
M  V30 14 C -2.72825 -0.747367 -0.158451 0
M  V30 15 O -3.38254 -0.869399 0.913329 0
M  V30 16 H -1.1915 -3.07766 -0.9253 0
M  V30 17 H -1.44094 -2.90586 0.861366 0
M  V30 18 H 0.180247 -3.38508 0.232179 0
M  V30 19 H 2.3803 -2.4155 1.10888 0
M  V30 20 H 2.92793 1.47583 -0.666434 0
M  V30 21 H 3.02145 1.2246 1.11235 0
M  V30 22 H 3.42551 -0.10136 -0.0313341 0
M  V30 23 H 1.79954 3.01882 0.0455326 0
M  V30 24 H -1.97146 2.60641 -1.12064 0
M  V30 25 H -2.07393 2.63067 0.738152 0
M  V30 26 H -3.00647 1.49534 -0.233993 0
M  V30 27 H -3.21821 -0.915883 -1.11067 0
M  V30 END ATOM
M  V30 BEGIN BOND
M  V30 1 1 1 2
M  V30 2 2 2 3
M  V30 3 1 3 4
M  V30 4 2 4 5
M  V30 5 1 3 6
M  V30 6 1 6 7
M  V30 7 2 6 8
M  V30 8 1 8 9
M  V30 9 2 9 10
M  V30 10 1 8 11
M  V30 11 1 11 12
M  V30 12 2 11 13
M  V30 13 1 13 14
M  V30 14 2 14 15
M  V30 15 1 13 2
M  V30 16 1 1 16
M  V30 17 1 1 17
M  V30 18 1 1 18
M  V30 19 1 4 19
M  V30 20 1 7 20
M  V30 21 1 7 21
M  V30 22 1 7 22
M  V30 23 1 9 23
M  V30 24 1 12 24
M  V30 25 1 12 25
M  V30 26 1 12 26
M  V30 27 1 14 27
M  V30 END BOND
M  V30 END CTAB
M  END
