
     RDKit          3D

  0  0  0  0  0  0  0  0  0  0999 V3000
M  V30 BEGIN CTAB
M  V30 COUNTS 44 46 0 0 0
M  V30 BEGIN ATOM
M  V30 1 O -1.92175 7.00903 0.365068 0
M  V30 2 C -1.78137 6.20612 -0.585587 0
M  V30 3 C -1.48714 4.79314 -0.334865 0
M  V30 4 C -1.33229 3.9074 -1.37851 0
M  V30 5 C -1.05102 2.56358 -1.10268 0
M  V30 6 C -0.925797 2.10733 0.184409 0
M  V30 7 O -0.654565 0.81567 0.486844 0
M  V30 8 P -0.422198 -0.459713 -0.605942 0
M  V30 9 S -1.74174 -0.65856 -1.69584 0
M  V30 10 O -0.185415 -1.95532 0.185202 0
M  V30 11 C -1.15244 -2.91907 0.30125 0
M  V30 12 C -1.9947 -2.91542 1.38273 0
M  V30 13 C -2.9911 -3.87019 1.5466 0
M  V30 14 C -3.12236 -4.85229 0.572229 0
M  V30 15 C -4.14889 -5.86781 0.70377 0
M  V30 16 O -4.90166 -5.83504 1.70481 0
M  V30 17 C -2.28937 -4.87895 -0.524079 0
M  V30 18 C -1.30245 -3.89909 -0.646646 0
M  V30 19 O 0.997031 -0.12457 -1.50548 0
M  V30 20 C 2.23065 0.100164 -0.953814 0
M  V30 21 C 2.68627 1.34201 -0.593232 0
M  V30 22 C 3.94508 1.54295 -0.0341035 0
M  V30 23 C 4.78267 0.475495 0.175368 0
M  V30 24 C 6.1022 0.669951 0.759072 0
M  V30 25 O 6.47585 1.81885 1.07155 0
M  V30 26 C 4.34091 -0.79714 -0.183578 0
M  V30 27 C 3.10516 -0.965522 -0.728543 0
M  V30 28 C -1.08712 3.021 1.1979 0
M  V30 29 C -1.36527 4.35494 0.966322 0
M  V30 30 H -1.88401 6.58855 -1.58995 0
M  V30 31 H -1.43153 4.26965 -2.39398 0
M  V30 32 H -0.941698 1.92661 -1.94544 0
M  V30 33 H -1.89977 -2.15686 2.14346 0
M  V30 34 H -3.64603 -3.85152 2.40591 0
M  V30 35 H -4.28505 -6.64145 -0.0221886 0
M  V30 36 H -2.41912 -5.65209 -1.25731 0
M  V30 37 H -0.67317 -3.96516 -1.52826 0
M  V30 38 H 2.08441 2.20811 -0.730532 0
M  V30 39 H 4.26641 2.5486 0.237808 0
M  V30 40 H 6.74197 -0.185723 0.914299 0
M  V30 41 H 5.02075 -1.64096 -0.0105096 0
M  V30 42 H 2.74791 -1.95985 -1.01402 0
M  V30 43 H -1.00193 2.73274 2.25259 0
M  V30 44 H -1.48631 5.0504 1.80791 0
M  V30 END ATOM
M  V30 BEGIN BOND
M  V30 1 2 1 2
M  V30 2 1 2 3
M  V30 3 2 3 4
M  V30 4 1 4 5
M  V30 5 2 5 6
M  V30 6 1 6 7
M  V30 7 1 7 8
M  V30 8 2 8 9
M  V30 9 1 8 10
M  V30 10 1 10 11
M  V30 11 2 11 12
M  V30 12 1 12 13
M  V30 13 2 13 14
M  V30 14 1 14 15
M  V30 15 2 15 16
M  V30 16 1 14 17
M  V30 17 2 17 18
M  V30 18 1 8 19
M  V30 19 1 19 20
M  V30 20 2 20 21
M  V30 21 1 21 22
M  V30 22 2 22 23
M  V30 23 1 23 24
M  V30 24 2 24 25
M  V30 25 1 23 26
M  V30 26 2 26 27
M  V30 27 1 6 28
M  V30 28 2 28 29
M  V30 29 1 29 3
M  V30 30 1 18 11
M  V30 31 1 27 20
M  V30 32 1 2 30
M  V30 33 1 4 31
M  V30 34 1 5 32
M  V30 35 1 12 33
M  V30 36 1 13 34
M  V30 37 1 15 35
M  V30 38 1 17 36
M  V30 39 1 18 37
M  V30 40 1 21 38
M  V30 41 1 22 39
M  V30 42 1 24 40
M  V30 43 1 26 41
M  V30 44 1 27 42
M  V30 45 1 28 43
M  V30 46 1 29 44
M  V30 END BOND
M  V30 END CTAB
M  END
