
     RDKit          3D

 40 44  0  0  0  0  0  0  0  0999 V2000
    0.3810   -3.0964   -4.9895 O   0  0  0  0  0  0  0  0  0  0  0  0
    0.8438   -3.5613   -3.9553 C   0  0  0  0  0  0  0  0  0  0  0  0
    0.8479   -2.8053   -2.6860 C   0  0  0  0  0  0  0  0  0  0  0  0
    0.3168   -1.5106   -2.6493 C   0  0  0  0  0  0  0  0  0  0  0  0
    0.3353   -0.8331   -1.4397 C   0  0  0  0  0  0  0  0  0  0  0  0
    0.8843   -1.4460   -0.2659 C   0  0  0  0  0  0  0  0  0  0  0  0
    1.4091   -2.7298   -0.3130 C   0  0  0  0  0  0  0  0  0  0  0  0
    1.3888   -3.4110   -1.5342 C   0  0  0  0  0  0  0  0  0  0  0  0
    0.8110   -0.5362    0.9784 C   0  0  0  0  0  0  0  0  0  0  0  0
   -0.6774   -0.1601    1.1325 C   0  0  0  0  0  0  0  0  0  0  0  0
   -1.2262    0.4517   -0.0431 C   0  0  0  0  0  0  0  0  0  0  0  0
   -2.5538    0.8541   -0.0801 C   0  0  0  0  0  0  0  0  0  0  0  0
   -3.3335    0.6433    1.0633 C   0  0  0  0  0  0  0  0  0  0  0  0
   -4.7503    1.0629    1.0493 C   0  0  0  0  0  0  0  0  0  0  0  0
   -5.4871    0.9076    2.0151 O   0  0  0  0  0  0  0  0  0  0  0  0
   -2.7960    0.0424    2.2193 C   0  0  0  0  0  0  0  0  0  0  0  0
   -1.4596   -0.3640    2.2598 C   0  0  0  0  0  0  0  0  0  0  0  0
   -0.1994    0.5903   -1.1866 C   0  0  0  0  0  0  0  0  0  0  0  0
    0.9825    1.3800   -0.5903 C   0  0  0  0  0  0  0  0  0  0  0  0
    1.5324    0.7701    0.5846 C   0  0  0  0  0  0  0  0  0  0  0  0
    2.6020    1.3493    1.2526 C   0  0  0  0  0  0  0  0  0  0  0  0
    3.1300    2.5432    0.7511 C   0  0  0  0  0  0  0  0  0  0  0  0
    2.5864    3.1400   -0.4040 C   0  0  0  0  0  0  0  0  0  0  0  0
    3.1726    4.4029   -0.8986 C   0  0  0  0  0  0  0  0  0  0  0  0
    2.7417    4.9771   -1.8908 O   0  0  0  0  0  0  0  0  0  0  0  0
    1.5081    2.5635   -1.0855 C   0  0  0  0  0  0  0  0  0  0  0  0
    1.2801   -4.5737   -3.9275 H   0  0  0  0  0  0  0  0  0  0  0  0
   -0.0968   -1.0538   -3.5442 H   0  0  0  0  0  0  0  0  0  0  0  0
    1.8249   -3.1995    0.5732 H   0  0  0  0  0  0  0  0  0  0  0  0
    1.7966   -4.4183   -1.5817 H   0  0  0  0  0  0  0  0  0  0  0  0
    1.2299   -1.0026    1.8747 H   0  0  0  0  0  0  0  0  0  0  0  0
   -2.9664    1.3166   -0.9710 H   0  0  0  0  0  0  0  0  0  0  0  0
   -5.1169    1.5274    0.1185 H   0  0  0  0  0  0  0  0  0  0  0  0
   -3.4284   -0.1081    3.0932 H   0  0  0  0  0  0  0  0  0  0  0  0
   -1.0537   -0.8260    3.1543 H   0  0  0  0  0  0  0  0  0  0  0  0
   -0.6178    1.0567   -2.0831 H   0  0  0  0  0  0  0  0  0  0  0  0
    3.0216    0.8925    2.1438 H   0  0  0  0  0  0  0  0  0  0  0  0
    3.9677    3.0061    1.2679 H   0  0  0  0  0  0  0  0  0  0  0  0
    4.0237    4.8086   -0.3264 H   0  0  0  0  0  0  0  0  0  0  0  0
    1.0981    3.0327   -1.9757 H   0  0  0  0  0  0  0  0  0  0  0  0
  1  2  2  0
  2  3  1  0
  3  4  2  0
  4  5  1  0
  5  6  2  0
  6  7  1  0
  7  8  2  0
  6  9  1  0
  9 10  1  0
 10 11  2  0
 11 12  1  0
 12 13  2  0
 13 14  1  0
 14 15  2  0
 13 16  1  0
 16 17  2  0
 11 18  1  0
 18 19  1  0
 19 20  2  0
 20 21  1  0
 21 22  2  0
 22 23  1  0
 23 24  1  0
 24 25  2  0
 23 26  2  0
  8  3  1  0
 18  5  1  0
 20  9  1  0
 17 10  1  0
 26 19  1  0
  2 27  1  0
  4 28  1  0
  7 29  1  0
  8 30  1  0
  9 31  1  0
 12 32  1  0
 14 33  1  0
 16 34  1  0
 17 35  1  0
 18 36  1  0
 21 37  1  0
 22 38  1  0
 24 39  1  0
 26 40  1  0
M  END
