
     RDKit          3D

  0  0  0  0  0  0  0  0  0  0999 V3000
M  V30 BEGIN CTAB
M  V30 COUNTS 161 168 0 0 0
M  V30 BEGIN ATOM
M  V30 1 C 1.29725 -6.78245 -3.0405 0
M  V30 2 C 0.116806 -5.95039 -3.15248 0
M  V30 3 C -1.21409 -6.69553 -2.96727 0
M  V30 4 C 0.00099653 -5.19462 -4.46491 0
M  V30 5 C 0.151308 -4.90612 -2.08903 0
M  V30 6 C 1.1748 -4.63559 -1.27214 0
M  V30 7 C 1.13744 -3.64452 -0.226717 0
M  V30 8 C -0.00412581 -2.92275 -0.0235407 0
M  V30 9 O -0.166749 -2.00643 0.990673 0
M  V30 10 C -1.10522 -3.12912 -0.852854 0
M  V30 11 C -2.34879 -2.39224 -1.17916 0
M  V30 12 C -3.08811 -1.17365 -0.781612 0
M  V30 13 C -3.83305 -0.765789 -1.95526 0
M  V30 14 C -4.41385 0.463245 -2.11648 0
M  V30 15 C -4.25296 1.36723 -1.08804 0
M  V30 16 C -3.54345 1.0359 0.0536016 0
M  V30 17 C -3.07336 2.37101 0.72148 0
M  V30 18 C -1.5358 2.4709 0.499214 0
M  V30 19 C -0.46414 2.34981 1.3651 0
M  V30 20 O -0.637173 2.77393 2.80305 0
M  V30 21 C -0.102391 4.17957 2.81471 0
M  V30 22 C -0.864419 5.1646 2.00152 0
M  V30 23 O -0.342858 6.30198 1.81192 0
M  V30 24 C 0.191093 7.46901 1.64632 0
M  V30 25 C 0.561156 8.39674 2.6101 0
M  V30 26 C 1.1168 9.6402 2.27111 0
M  V30 27 C 1.31091 9.99516 0.987621 0
M  V30 28 C 0.951952 9.06811 -0.0228953 0
M  V30 29 C 0.408019 7.84603 0.291352 0
M  V30 30 C 0.0668528 6.89746 -0.802897 0
M  V30 31 O 0.34628 7.3501 -1.96175 0
M  V30 32 C 0.776032 1.87736 0.860193 0
M  V30 33 C 1.97782 1.3857 1.5992 0
M  V30 34 C 2.80299 0.189554 1.11948 0
M  V30 35 C 2.71212 -1.12679 1.44523 0
M  V30 36 O 2.32927 -1.6184 2.86014 0
M  V30 37 C 3.64334 -1.97619 3.48143 0
M  V30 38 C 4.5872 -0.812401 3.51419 0
M  V30 39 O 5.8482 -1.12895 3.874 0
M  V30 40 C 6.88462 -1.55605 4.50827 0
M  V30 41 C 6.93817 -2.18268 5.71316 0
M  V30 42 C 8.03841 -2.63559 6.39808 0
M  V30 43 C 9.26103 -2.41622 5.73343 0
M  V30 44 C 9.25274 -1.80499 4.52645 0
M  V30 45 C 8.20201 -1.34946 3.83943 0
M  V30 46 C 8.24583 -0.72868 2.56095 0
M  V30 47 O 9.35542 -0.564339 2.02271 0
M  V30 48 C 3.08341 -2.09826 0.545171 0
M  V30 49 C 2.57903 -3.53709 0.336595 0
M  V30 50 C 3.65103 -1.70105 -0.676283 0
M  V30 51 C 3.83249 -0.393424 -1.02984 0
M  V30 52 C 3.38724 0.514531 -0.127944 0
M  V30 53 C 4.76171 -0.0388054 -2.1841 0
M  V30 54 C 6.13652 -0.702231 -1.83747 0
M  V30 55 C 4.22689 -0.634968 -3.44941 0
M  V30 56 C 4.95469 1.43826 -2.29272 0
M  V30 57 C 0.822714 1.65187 -0.497725 0
M  V30 58 C -0.219634 1.81556 -1.43068 0
M  V30 59 C -1.38416 2.2219 -0.864813 0
M  V30 60 C -0.00725067 1.76729 -2.90673 0
M  V30 61 C 1.3837 2.28523 -3.198 0
M  V30 62 C -0.926547 2.84278 -3.53358 0
M  V30 63 C -0.267919 0.455814 -3.52489 0
M  V30 64 C -3.00341 -0.253464 0.199775 0
M  V30 65 O -2.40685 -0.61982 1.56062 0
M  V30 66 C -3.5883 -0.83193 2.41497 0
M  V30 67 C -4.39971 -2.00405 2.01236 0
M  V30 68 O -5.52707 -2.00183 2.67514 0
M  V30 69 C -6.45761 -1.9887 3.57911 0
M  V30 70 C -7.7898 -1.95424 3.01944 0
M  V30 71 C -8.05609 -2.06997 1.63891 0
M  V30 72 O -8.63451 -2.03601 0.611291 0
M  V30 73 C -8.80682 -1.92791 3.94468 0
M  V30 74 C -8.65961 -1.92785 5.28857 0
M  V30 75 C -7.32581 -1.95553 5.74768 0
M  V30 76 C -6.27475 -1.98624 4.92 0
M  V30 77 C -5.27472 0.775419 -3.31991 0
M  V30 78 C -5.70877 -0.590251 -3.89709 0
M  V30 79 C -4.46329 1.4987 -4.35805 0
M  V30 80 C -6.49799 1.5075 -2.89158 0
M  V30 81 C -0.944726 -4.14202 -1.85759 0
M  V30 82 H 2.09652 -6.42858 -3.70558 0
M  V30 83 H 1.58859 -6.99387 -2.01683 0
M  V30 84 H 1.01783 -7.83334 -3.51122 0
M  V30 85 H -1.92475 -6.38953 -3.73091 0
M  V30 86 H -1.0626 -7.78686 -2.88338 0
M  V30 87 H -1.68079 -6.37013 -1.97617 0
M  V30 88 H 0.376612 -4.16728 -4.34849 0
M  V30 89 H 0.618036 -5.70001 -5.221 0
M  V30 90 H -1.05497 -5.1347 -4.69359 0
M  V30 91 H 2.10958 -5.20665 -1.38995 0
M  V30 92 H -0.0902761 -1.48601 1.68118 0
M  V30 93 H -3.08284 -3.10011 -1.76 0
M  V30 94 H -1.96342 -1.97991 -2.36539 0
M  V30 95 H -3.95296 -1.48418 -2.7444 0
M  V30 96 H -4.72281 2.32131 -1.20959 0
M  V30 97 H -3.58571 2.69011 1.5706 0
M  V30 98 H -3.38581 3.16418 0.0212747 0
M  V30 99 H 0.949523 4.09556 2.46621 0
M  V30 100 H -0.115801 4.39977 3.8798 0
M  V30 101 H -1.33494 4.7069 1.11898 0
M  V30 102 H -1.85557 5.43903 2.71042 0
M  V30 103 H 0.371228 8.1313 3.67047 0
M  V30 104 H 1.35508 10.3183 3.10812 0
M  V30 105 H 1.74835 10.9 0.669919 0
M  V30 106 H 1.16092 9.33904 -1.07125 0
M  V30 107 H -0.35946 5.98904 -0.577335 0
M  V30 108 H 2.66762 2.1965 2.00361 0
M  V30 109 H 1.63327 0.981051 2.61865 0
M  V30 110 H 4.0102 -2.8313 2.88419 0
M  V30 111 H 3.37315 -2.28782 4.46566 0
M  V30 112 H 4.19789 -0.118915 4.41044 0
M  V30 113 H 4.53249 -0.0881672 2.68734 0
M  V30 114 H 5.9981 -2.38236 6.29004 0
M  V30 115 H 8.02785 -3.13168 7.35041 0
M  V30 116 H 10.128 -2.77993 6.18663 0
M  V30 117 H 10.2578 -1.62195 4.0514 0
M  V30 118 H 7.3681 -0.395433 2.03291 0
M  V30 119 H 3.29312 -4.09306 -0.384867 0
M  V30 120 H 2.66799 -4.16466 1.19436 0
M  V30 121 H 3.9905 -2.4649 -1.42203 0
M  V30 122 H 3.55512 1.60327 -0.294617 0
M  V30 123 H 6.80541 -0.477871 -2.65351 0
M  V30 124 H 6.42176 -0.135476 -0.909912 0
M  V30 125 H 5.97989 -1.75445 -1.66779 0
M  V30 126 H 4.29304 0.143514 -4.29062 0
M  V30 127 H 3.11956 -0.844517 -3.38027 0
M  V30 128 H 4.77999 -1.47862 -3.81191 0
M  V30 129 H 4.07998 2.04573 -2.05629 0
M  V30 130 H 5.18731 1.69653 -3.37891 0
M  V30 131 H 5.86234 1.74974 -1.68916 0
M  V30 132 H 1.71313 1.31727 -1.01236 0
M  V30 133 H -2.2044 2.41694 -1.56668 0
M  V30 134 H 2.05319 1.46804 -3.44521 0
M  V30 135 H 1.75237 2.88949 -2.33672 0
M  V30 136 H 1.3893 2.9754 -4.05811 0
M  V30 137 H -1.95484 2.56633 -3.44319 0
M  V30 138 H -0.638293 2.95229 -4.57977 0
M  V30 139 H -0.795143 3.81302 -3.0429 0
M  V30 140 H -1.26432 0.0877991 -3.36079 0
M  V30 141 H -0.0691426 0.626051 -4.62108 0
M  V30 142 H 0.437947 -0.315911 -3.04685 0
M  V30 143 H -4.20974 0.0499447 2.30372 0
M  V30 144 H -3.18845 -0.935572 3.44122 0
M  V30 145 H -4.58045 -2.13561 0.914342 0
M  V30 146 H -3.83243 -3.00077 2.2472 0
M  V30 147 H -6.92863 -2.56728 1.14421 0
M  V30 148 H -9.84499 -1.89968 3.56976 0
M  V30 149 H -9.42944 -1.85732 6.00227 0
M  V30 150 H -7.16658 -1.9893 6.85273 0
M  V30 151 H -5.26645 -1.99953 5.37106 0
M  V30 152 H -4.89171 -1.07156 -4.45812 0
M  V30 153 H -6.59194 -0.48238 -4.48474 0
M  V30 154 H -5.94333 -1.29025 -3.10209 0
M  V30 155 H -3.45095 0.994473 -4.36814 0
M  V30 156 H -4.92811 1.36784 -5.37637 0
M  V30 157 H -4.33148 2.5427 -4.07999 0
M  V30 158 H -6.33685 2.61602 -3.14593 0
M  V30 159 H -6.63454 1.42579 -1.81944 0
M  V30 160 H -7.39056 1.09228 -3.39854 0
M  V30 161 H -1.81372 -4.32798 -2.56963 0
M  V30 END ATOM
M  V30 BEGIN BOND
M  V30 1 1 1 2
M  V30 2 1 2 3
M  V30 3 1 2 4
M  V30 4 1 2 5
M  V30 5 2 5 6
M  V30 6 1 6 7
M  V30 7 2 7 8
M  V30 8 1 8 9
M  V30 9 1 8 10
M  V30 10 1 10 11
M  V30 11 1 11 12
M  V30 12 2 12 13
M  V30 13 1 13 14
M  V30 14 2 14 15
M  V30 15 1 15 16
M  V30 16 1 16 17
M  V30 17 1 17 18
M  V30 18 2 18 19
M  V30 19 1 19 20
M  V30 20 1 20 21
M  V30 21 1 21 22
M  V30 22 1 22 23
M  V30 23 1 23 24
M  V30 24 2 24 25
M  V30 25 1 25 26
M  V30 26 2 26 27
M  V30 27 1 27 28
M  V30 28 2 28 29
M  V30 29 1 29 30
M  V30 30 2 30 31
M  V30 31 1 19 32
M  V30 32 1 32 33
M  V30 33 1 33 34
M  V30 34 2 34 35
M  V30 35 1 35 36
M  V30 36 1 36 37
M  V30 37 1 37 38
M  V30 38 1 38 39
M  V30 39 1 39 40
M  V30 40 2 40 41
M  V30 41 1 41 42
M  V30 42 2 42 43
M  V30 43 1 43 44
M  V30 44 2 44 45
M  V30 45 1 45 46
M  V30 46 2 46 47
M  V30 47 1 35 48
M  V30 48 1 48 49
M  V30 49 2 48 50
M  V30 50 1 50 51
M  V30 51 2 51 52
M  V30 52 1 51 53
M  V30 53 1 53 54
M  V30 54 1 53 55
M  V30 55 1 53 56
M  V30 56 2 32 57
M  V30 57 1 57 58
M  V30 58 2 58 59
M  V30 59 1 58 60
M  V30 60 1 60 61
M  V30 61 1 60 62
M  V30 62 1 60 63
M  V30 63 2 16 64
M  V30 64 1 64 65
M  V30 65 1 65 66
M  V30 66 1 66 67
M  V30 67 1 67 68
M  V30 68 1 68 69
M  V30 69 2 69 70
M  V30 70 1 70 71
M  V30 71 2 71 72
M  V30 72 1 70 73
M  V30 73 2 73 74
M  V30 74 1 74 75
M  V30 75 2 75 76
M  V30 76 1 14 77
M  V30 77 1 77 78
M  V30 78 1 77 79
M  V30 79 1 77 80
M  V30 80 2 10 81
M  V30 81 1 81 5
M  V30 82 1 49 7
M  V30 83 1 76 69
M  V30 84 1 64 12
M  V30 85 1 59 18
M  V30 86 1 29 24
M  V30 87 1 52 34
M  V30 88 1 45 40
M  V30 89 1 1 82
M  V30 90 1 1 83
M  V30 91 1 1 84
M  V30 92 1 3 85
M  V30 93 1 3 86
M  V30 94 1 3 87
M  V30 95 1 4 88
M  V30 96 1 4 89
M  V30 97 1 4 90
M  V30 98 1 6 91
M  V30 99 1 9 92
M  V30 100 1 11 93
M  V30 101 1 11 94
M  V30 102 1 13 95
M  V30 103 1 15 96
M  V30 104 1 17 97
M  V30 105 1 17 98
M  V30 106 1 21 99
M  V30 107 1 21 100
M  V30 108 1 22 101
M  V30 109 1 22 102
M  V30 110 1 25 103
M  V30 111 1 26 104
M  V30 112 1 27 105
M  V30 113 1 28 106
M  V30 114 1 30 107
M  V30 115 1 33 108
M  V30 116 1 33 109
M  V30 117 1 37 110
M  V30 118 1 37 111
M  V30 119 1 38 112
M  V30 120 1 38 113
M  V30 121 1 41 114
M  V30 122 1 42 115
M  V30 123 1 43 116
M  V30 124 1 44 117
M  V30 125 1 46 118
M  V30 126 1 49 119
M  V30 127 1 49 120
M  V30 128 1 50 121
M  V30 129 1 52 122
M  V30 130 1 54 123
M  V30 131 1 54 124
M  V30 132 1 54 125
M  V30 133 1 55 126
M  V30 134 1 55 127
M  V30 135 1 55 128
M  V30 136 1 56 129
M  V30 137 1 56 130
M  V30 138 1 56 131
M  V30 139 1 57 132
M  V30 140 1 59 133
M  V30 141 1 61 134
M  V30 142 1 61 135
M  V30 143 1 61 136
M  V30 144 1 62 137
M  V30 145 1 62 138
M  V30 146 1 62 139
M  V30 147 1 63 140
M  V30 148 1 63 141
M  V30 149 1 63 142
M  V30 150 1 66 143
M  V30 151 1 66 144
M  V30 152 1 67 145
M  V30 153 1 67 146
M  V30 154 1 71 147
M  V30 155 1 73 148
M  V30 156 1 74 149
M  V30 157 1 75 150
M  V30 158 1 76 151
M  V30 159 1 78 152
M  V30 160 1 78 153
M  V30 161 1 78 154
M  V30 162 1 79 155
M  V30 163 1 79 156
M  V30 164 1 79 157
M  V30 165 1 80 158
M  V30 166 1 80 159
M  V30 167 1 80 160
M  V30 168 1 81 161
M  V30 END BOND
M  V30 END CTAB
M  END
