
     RDKit          3D

  0  0  0  0  0  0  0  0  0  0999 V3000
M  V30 BEGIN CTAB
M  V30 COUNTS 79 81 0 0 0
M  V30 BEGIN ATOM
M  V30 1 C -6.3770 -4.7312 2.1730 0
M  V30 2 C -5.0956 -4.5320 1.4920 0
M  V30 3 C -4.2311 -5.5735 1.2046 0
M  V30 4 C -3.0164 -5.4039 0.5512 0
M  V30 5 C -2.1823 -6.5205 0.2534 0
M  V30 6 O -2.4234 -7.6858 0.5738 0
M  V30 7 C -2.6595 -4.1027 0.1710 0
M  V30 8 O -1.4464 -3.8442 -0.4920 0
M  V30 9 C -3.5022 -3.0762 0.4518 0
M  V30 10 C -3.1111 -1.7023 0.0641 0
M  V30 11 N -2.0278 -1.5481 -0.5397 0
M  V30 12 C -1.5745 -0.1416 -0.9512 0
M  V30 13 C -0.1287 -0.2130 -0.7105 0
M  V30 14 N 0.8049 0.7986 -0.9631 0
M  V30 15 C 2.1101 0.1368 -0.7990 0
M  V30 16 C 3.2973 0.9939 -0.9403 0
M  V30 17 N 4.4648 0.0802 -0.9422 0
M  V30 18 C 4.4647 -1.0216 -0.2483 0
M  V30 19 C 5.6502 -1.8708 -0.3146 0
M  V30 20 C 5.6355 -3.0962 0.4507 0
M  V30 21 O 4.5292 -3.3130 1.2113 0
M  V30 22 C 6.7168 -3.9107 0.3448 0
M  V30 23 C 6.7588 -5.1539 1.1140 0
M  V30 24 O 7.7151 -5.9442 1.0783 0
M  V30 25 C 7.8257 -3.6304 -0.4554 0
M  V30 26 C 7.8258 -2.4723 -1.1705 0
M  V30 27 C 8.9978 -2.1637 -2.0442 0
M  V30 28 C 6.7330 -1.6146 -1.0812 0
M  V30 29 C 0.7239 1.9431 -0.1558 0
M  V30 30 C -0.3729 2.9408 -0.5435 0
M  V30 31 N -0.5446 3.9331 0.3456 0
M  V30 32 C -1.1047 4.8795 0.8093 0
M  V30 33 C -2.2927 5.6006 0.4127 0
M  V30 34 C -3.0475 5.4156 -0.6920 0
M  V30 35 O -2.6085 4.5198 -1.6287 0
M  V30 36 C -4.2489 6.0658 -0.9727 0
M  V30 37 C -5.0165 5.8136 -2.1865 0
M  V30 38 O -6.1014 6.4357 -2.4021 0
M  V30 39 C -4.7105 6.9884 -0.0367 0
M  V30 40 C -3.9786 7.2261 1.1139 0
M  V30 41 C -4.4825 8.2310 2.1025 0
M  V30 42 C -2.8211 6.5561 1.3251 0
M  V30 43 C -4.6837 -3.2603 1.0870 0
M  V30 44 H -7.1708 -4.5806 1.4167 0
M  V30 45 H -6.4125 -5.7630 2.5984 0
M  V30 46 H -6.5447 -4.0468 3.0066 0
M  V30 47 H -4.5040 -6.5741 1.5024 0
M  V30 48 H -1.2274 -6.4037 -0.3083 0
M  V30 49 H -0.7576 -4.5324 -0.7207 0
M  V30 50 H -3.7556 -0.8620 0.3225 0
M  V30 51 H -1.9052 -0.0505 -1.9690 0
M  V30 52 H -2.0914 0.5085 -0.1955 0
M  V30 53 H -0.0988 -0.4114 0.4706 0
M  V30 54 H 0.2288 -1.2118 -1.1334 0
M  V30 55 H 2.1198 -0.6766 -1.5671 0
M  V30 56 H 2.0662 -0.2922 0.2397 0
M  V30 57 H 3.4806 1.6316 -0.0388 0
M  V30 58 H 3.2580 1.5591 -1.8855 0
M  V30 59 H 3.6560 -1.3304 0.3743 0
M  V30 60 H 4.4237 -4.1373 1.7624 0
M  V30 61 H 5.9340 -5.4232 1.7496 0
M  V30 62 H 8.6362 -4.3392 -0.4893 0
M  V30 63 H 9.9590 -2.1561 -1.4904 0
M  V30 64 H 8.8385 -1.2610 -2.6596 0
M  V30 65 H 9.0540 -3.0148 -2.7763 0
M  V30 66 H 6.7520 -0.6909 -1.6357 0
M  V30 67 H 1.6551 2.5504 -0.0689 0
M  V30 68 H 0.5079 1.6368 0.9010 0
M  V30 69 H -1.2550 2.4235 -0.9112 0
M  V30 70 H 0.0400 3.4523 -1.5322 0
M  V30 71 H -0.5832 5.3252 1.7612 0
M  V30 72 H -3.0543 4.3194 -2.4709 0
M  V30 73 H -4.7060 5.1185 -2.9206 0
M  V30 74 H -5.6406 7.5145 -0.2093 0
M  V30 75 H -4.5323 7.7562 3.1139 0
M  V30 76 H -3.7291 9.0379 2.1967 0
M  V30 77 H -5.4816 8.5699 1.8280 0
M  V30 78 H -2.2481 6.7585 2.2509 0
M  V30 79 H -5.3750 -2.4363 1.3089 0
M  V30 END ATOM
M  V30 BEGIN BOND
M  V30 0 1 1 2
M  V30 1 2 2 3
M  V30 2 1 3 4
M  V30 3 1 4 5
M  V30 4 2 5 6
M  V30 5 2 4 7
M  V30 6 1 7 8
M  V30 7 1 7 9
M  V30 8 1 9 10
M  V30 9 2 10 11
M  V30 10 1 11 12
M  V30 11 1 12 13
M  V30 12 1 13 14
M  V30 13 1 14 15
M  V30 14 1 15 16
M  V30 15 1 16 17
M  V30 16 2 17 18
M  V30 17 1 18 19
M  V30 18 2 19 20
M  V30 19 1 20 21
M  V30 20 1 20 22
M  V30 21 1 22 23
M  V30 22 2 23 24
M  V30 23 2 22 25
M  V30 24 1 25 26
M  V30 25 1 26 27
M  V30 26 2 26 28
M  V30 27 1 14 29
M  V30 28 1 29 30
M  V30 29 1 30 31
M  V30 30 2 31 32
M  V30 31 1 32 33
M  V30 32 2 33 34
M  V30 33 1 34 35
M  V30 34 1 34 36
M  V30 35 1 36 37
M  V30 36 2 37 38
M  V30 37 2 36 39
M  V30 38 1 39 40
M  V30 39 1 40 41
M  V30 40 2 40 42
M  V30 41 2 9 43
M  V30 42 1 43 2
M  V30 43 1 28 19
M  V30 44 1 42 33
M  V30 45 1 1 44
M  V30 46 1 1 45
M  V30 47 1 1 46
M  V30 48 1 3 47
M  V30 49 1 5 48
M  V30 50 1 8 49
M  V30 51 1 10 50
M  V30 52 1 12 51
M  V30 53 1 12 52
M  V30 54 1 13 53
M  V30 55 1 13 54
M  V30 56 1 15 55
M  V30 57 1 15 56
M  V30 58 1 16 57
M  V30 59 1 16 58
M  V30 60 1 18 59
M  V30 61 1 21 60
M  V30 62 1 23 61
M  V30 63 1 25 62
M  V30 64 1 27 63
M  V30 65 1 27 64
M  V30 66 1 27 65
M  V30 67 1 28 66
M  V30 68 1 29 67
M  V30 69 1 29 68
M  V30 70 1 30 69
M  V30 71 1 30 70
M  V30 72 1 32 71
M  V30 73 1 35 72
M  V30 74 1 37 73
M  V30 75 1 39 74
M  V30 76 1 41 75
M  V30 77 1 41 76
M  V30 78 1 41 77
M  V30 79 1 42 78
M  V30 80 1 43 79
M  V30 END BOND
M  V30 END CTAB
M  END

$$$$
