
     RDKit          3D

  0  0  0  0  0  0  0  0  0  0999 V3000
M  V30 BEGIN CTAB
M  V30 COUNTS 18 18 0 0 0
M  V30 BEGIN ATOM
M  V30 1 Cl 0.220741 -3.10074 0.0927427 0
M  V30 2 C 0.110373 -1.35292 0.0388925 0
M  V30 3 C -1.16206 -0.795671 -0.0564241 0
M  V30 4 C -2.3395 -1.65094 -0.107923 0
M  V30 5 O -3.46172 -1.1009 -0.193488 0
M  V30 6 C -1.24368 0.5766 -0.0983896 0
M  V30 7 Cl -2.83217 1.29163 -0.217873 0
M  V30 8 C -0.102215 1.34507 -0.046904 0
M  V30 9 C -0.192921 2.79188 -0.091487 0
M  V30 10 O -0.300073 3.38105 1.03271 0
M  V30 11 C 1.14788 0.771303 0.0474467 0
M  V30 12 Cl 2.5625 1.80013 0.109198 0
M  V30 13 C 1.25341 -0.615096 0.0912982 0
M  V30 14 C 2.58323 -1.16704 0.190071 0
M  V30 15 O 3.22023 -1.43203 -0.84145 0
M  V30 16 H -2.30447 -2.7241 -0.0770408 0
M  V30 17 H -0.170338 3.32576 -1.01992 0
M  V30 18 H 3.01079 -1.34398 1.14854 0
M  V30 END ATOM
M  V30 BEGIN BOND
M  V30 1 1 1 2
M  V30 2 2 2 3
M  V30 3 1 3 4
M  V30 4 2 4 5
M  V30 5 1 3 6
M  V30 6 1 6 7
M  V30 7 2 6 8
M  V30 8 1 8 9
M  V30 9 2 9 10
M  V30 10 1 8 11
M  V30 11 1 11 12
M  V30 12 2 11 13
M  V30 13 1 13 14
M  V30 14 2 14 15
M  V30 15 1 13 2
M  V30 16 1 4 16
M  V30 17 1 9 17
M  V30 18 1 14 18
M  V30 END BOND
M  V30 END CTAB
M  END
