
     RDKit          3D

  0  0  0  0  0  0  0  0  0  0999 V3000
M  V30 BEGIN CTAB
M  V30 COUNTS 104 109 0 0 0
M  V30 BEGIN ATOM
M  V30 1 C 7.50895 2.28031 0.145271 0
M  V30 2 N 7.1173 2.68518 1.41756 0
M  V30 3 C 8.1529 2.80483 2.4097 0
M  V30 4 C 5.80648 2.7625 1.86411 0
M  V30 5 C 4.99668 1.55004 2.09267 0
M  V30 6 C 4.72575 0.761925 0.880524 0
M  V30 7 C 3.92407 1.53666 -0.191285 0
M  V30 8 N 3.62319 0.301622 -0.983757 0
M  V30 9 C 4.05917 -0.0137698 -2.23374 0
M  V30 10 O 4.38567 -1.07428 -2.80165 0
M  V30 11 C 2.98828 -0.507531 -0.00903067 0
M  V30 12 C 3.7752 -0.390367 1.15685 0
M  V30 13 C 3.52125 -1.19462 2.22836 0
M  V30 14 C 2.51141 -2.09899 2.15895 0
M  V30 15 C 1.76568 -2.17998 1.01506 0
M  V30 16 C 1.93526 -1.39396 -0.147874 0
M  V30 17 C 1.03001 -1.46987 -1.25492 0
M  V30 18 C 1.34341 -2.16583 -2.53376 0
M  V30 19 C 1.75111 -3.56909 -2.56262 0
M  V30 20 N 0.90463 -4.60764 -2.14172 0
M  V30 21 C -0.218823 -4.92539 -2.95948 0
M  V30 22 C 1.49298 -5.71457 -1.47286 0
M  V30 23 C -0.214827 -2.2032 -0.781652 0
M  V30 24 N -0.858734 -1.18715 0.0669354 0
M  V30 25 C -1.27866 -1.18425 1.37068 0
M  V30 26 O -1.5486 -2.33244 1.93736 0
M  V30 27 C -0.904659 -0.078676 -0.858387 0
M  V30 28 C 0.25119 -0.17504 -1.58056 0
M  V30 29 C 0.529368 0.809027 -2.48519 0
M  V30 30 C -0.314363 1.84424 -2.65326 0
M  V30 31 C -1.4722 1.90542 -1.90703 0
M  V30 32 C -1.85531 0.953195 -0.965533 0
M  V30 33 C -3.19115 0.984884 -0.262642 0
M  V30 34 C -3.07124 1.63892 1.04463 0
M  V30 35 C -4.01537 1.80025 2.11188 0
M  V30 36 N -5.18651 2.5794 2.09677 0
M  V30 37 C -5.94608 2.278 3.3231 0
M  V30 38 C -4.81486 4.01636 2.16163 0
M  V30 39 C -3.85733 2.09151 -1.13065 0
M  V30 40 N -5.27111 1.96085 -1.0328 0
M  V30 41 C -6.23719 2.97429 -1.16431 0
M  V30 42 O -7.46584 2.73977 -1.15757 0
M  V30 43 C -5.40728 0.534129 -0.87971 0
M  V30 44 C -4.19101 -0.0450866 -0.541962 0
M  V30 45 C -4.2691 -1.42125 -0.523193 0
M  V30 46 C -5.40622 -2.14295 -0.796342 0
M  V30 47 C -6.598 -1.54706 -1.12231 0
M  V30 48 C -6.56982 -0.182079 -1.15765 0
M  V30 49 N -5.40661 -3.57728 -0.756926 0 CHG=1
M  V30 50 O -4.26044 -4.22341 -0.442269 0 CHG=-1
M  V30 51 O -6.41776 -4.21566 -1.00088 0
M  V30 52 N -0.0411784 2.90956 -3.59798 0 CHG=1
M  V30 53 O -0.910462 3.93361 -3.72939 0 CHG=-1
M  V30 54 O 1.01029 2.81183 -4.25072 0
M  V30 55 N 2.241 -2.94214 3.27221 0 CHG=1
M  V30 56 O 1.22814 -3.83991 3.19655 0 CHG=-1
M  V30 57 O 2.92266 -2.85129 4.29055 0
M  V30 58 H 8.47807 2.84878 -0.0935884 0
M  V30 59 H 6.81051 2.64875 -0.639478 0
M  V30 60 H 7.75579 1.20199 -0.00479555 0
M  V30 61 H 7.73079 3.21809 3.32674 0
M  V30 62 H 8.88316 3.57062 2.02527 0
M  V30 63 H 8.73908 1.87893 2.5557 0
M  V30 64 H 5.82302 3.34753 2.85207 0
M  V30 65 H 5.24951 3.48426 1.18075 0
M  V30 66 H 4.00606 1.87795 2.53042 0
M  V30 67 H 5.46333 0.861083 2.84238 0
M  V30 68 H 5.61945 0.391989 0.361718 0
M  V30 69 H 4.51913 2.20602 -0.782559 0
M  V30 70 H 3.03268 1.90957 0.294556 0
M  V30 71 H 4.15374 0.860243 -2.9368 0
M  V30 72 H 4.13507 -1.08674 3.10299 0
M  V30 73 H 1.03599 -2.96108 1.01944 0
M  V30 74 H 0.262439 -2.27931 -3.07119 0
M  V30 75 H 1.73504 -1.47896 -3.28377 0
M  V30 76 H 1.94844 -3.79887 -3.67345 0
M  V30 77 H 2.78796 -3.75316 -2.15623 0
M  V30 78 H -1.19893 -4.85071 -2.4471 0
M  V30 79 H -0.130912 -5.99873 -3.26595 0
M  V30 80 H -0.175913 -4.3287 -3.89553 0
M  V30 81 H 0.813906 -6.19393 -0.73509 0
M  V30 82 H 1.73445 -6.48845 -2.24471 0
M  V30 83 H 2.45458 -5.39779 -1.0181 0
M  V30 84 H -0.854002 -2.24598 -1.7322 0
M  V30 85 H -0.075068 -3.15432 -0.377687 0
M  V30 86 H -1.42031 -0.385253 2.02002 0
M  V30 87 H 1.40202 0.81079 -3.1242 0
M  V30 88 H -2.09567 2.80414 -2.05606 0
M  V30 89 H -2.95374 2.85048 0.780314 0
M  V30 90 H -1.9688 1.65341 1.36162 0
M  V30 91 H -3.40755 2.27486 2.98649 0
M  V30 92 H -4.24947 0.799518 2.65697 0
M  V30 93 H -5.334 1.86068 4.11663 0
M  V30 94 H -6.80188 1.60272 3.04583 0
M  V30 95 H -6.40805 3.23283 3.63938 0
M  V30 96 H -5.71431 4.52533 2.56447 0
M  V30 97 H -3.96479 4.18384 2.81868 0
M  V30 98 H -4.65024 4.40306 1.13874 0
M  V30 99 H -3.58201 3.09134 -0.803575 0
M  V30 100 H -3.57332 1.87516 -2.21736 0
M  V30 101 H -5.92327 3.99259 -1.27553 0
M  V30 102 H -3.41387 -2.06 -0.305299 0
M  V30 103 H -7.4738 -2.13446 -1.33012 0
M  V30 104 H -7.50558 0.336304 -1.41646 0
M  V30 END ATOM
M  V30 BEGIN BOND
M  V30 1 1 1 2
M  V30 2 1 2 3
M  V30 3 1 2 4
M  V30 4 1 4 5
M  V30 5 1 5 6
M  V30 6 1 6 7
M  V30 7 1 7 8
M  V30 8 1 8 9
M  V30 9 2 9 10
M  V30 10 1 8 11
M  V30 11 2 11 12
M  V30 12 1 12 13
M  V30 13 2 13 14
M  V30 14 1 14 15
M  V30 15 2 15 16
M  V30 16 1 16 17
M  V30 17 1 17 18
M  V30 18 1 18 19
M  V30 19 1 19 20
M  V30 20 1 20 21
M  V30 21 1 20 22
M  V30 22 1 17 23
M  V30 23 1 23 24
M  V30 24 1 24 25
M  V30 25 2 25 26
M  V30 26 1 24 27
M  V30 27 2 27 28
M  V30 28 1 28 29
M  V30 29 2 29 30
M  V30 30 1 30 31
M  V30 31 2 31 32
M  V30 32 1 32 33
M  V30 33 1 33 34
M  V30 34 1 34 35
M  V30 35 1 35 36
M  V30 36 1 36 37
M  V30 37 1 36 38
M  V30 38 1 33 39
M  V30 39 1 39 40
M  V30 40 1 40 41
M  V30 41 2 41 42
M  V30 42 1 40 43
M  V30 43 2 43 44
M  V30 44 1 44 45
M  V30 45 2 45 46
M  V30 46 1 46 47
M  V30 47 2 47 48
M  V30 48 1 46 49
M  V30 49 1 49 50
M  V30 50 2 49 51
M  V30 51 1 30 52
M  V30 52 1 52 53
M  V30 53 2 52 54
M  V30 54 1 14 55
M  V30 55 1 55 56
M  V30 56 2 55 57
M  V30 57 1 12 6
M  V30 58 1 28 17
M  V30 59 1 44 33
M  V30 60 1 16 11
M  V30 61 1 32 27
M  V30 62 1 48 43
M  V30 63 1 1 58
M  V30 64 1 1 59
M  V30 65 1 1 60
M  V30 66 1 3 61
M  V30 67 1 3 62
M  V30 68 1 3 63
M  V30 69 1 4 64
M  V30 70 1 4 65
M  V30 71 1 5 66
M  V30 72 1 5 67
M  V30 73 1 6 68
M  V30 74 1 7 69
M  V30 75 1 7 70
M  V30 76 1 9 71
M  V30 77 1 13 72
M  V30 78 1 15 73
M  V30 79 1 18 74
M  V30 80 1 18 75
M  V30 81 1 19 76
M  V30 82 1 19 77
M  V30 83 1 21 78
M  V30 84 1 21 79
M  V30 85 1 21 80
M  V30 86 1 22 81
M  V30 87 1 22 82
M  V30 88 1 22 83
M  V30 89 1 23 84
M  V30 90 1 23 85
M  V30 91 1 25 86
M  V30 92 1 29 87
M  V30 93 1 31 88
M  V30 94 1 34 89
M  V30 95 1 34 90
M  V30 96 1 35 91
M  V30 97 1 35 92
M  V30 98 1 37 93
M  V30 99 1 37 94
M  V30 100 1 37 95
M  V30 101 1 38 96
M  V30 102 1 38 97
M  V30 103 1 38 98
M  V30 104 1 39 99
M  V30 105 1 39 100
M  V30 106 1 41 101
M  V30 107 1 45 102
M  V30 108 1 47 103
M  V30 109 1 48 104
M  V30 END BOND
M  V30 END CTAB
M  END
