
     RDKit          3D

  0  0  0  0  0  0  0  0  0  0999 V3000
M  V30 BEGIN CTAB
M  V30 COUNTS 129 135 0 0 0
M  V30 BEGIN ATOM
M  V30 1 C 4.93623 3.7979 0.478071 0
M  V30 2 O 5.05674 2.40626 0.406863 0
M  V30 3 C 4.11431 1.66 -0.30002 0
M  V30 4 C 4.26323 0.303116 -0.354582 0
M  V30 5 O 5.32138 -0.408557 0.259241 0
M  V30 6 C 5.39289 -1.81006 0.111404 0
M  V30 7 C 6.55433 -2.3959 0.81367 0
M  V30 8 O 7.78469 -1.8854 0.359124 0
M  V30 9 C 8.92666 -2.43143 0.923564 0
M  V30 10 C 8.89376 -3.43308 1.86667 0
M  V30 11 C 10.039 -3.95826 2.41002 0
M  V30 12 C 11.2605 -3.45917 1.99066 0
M  V30 13 C 12.4769 -4.00566 2.54301 0
M  V30 14 O 13.5812 -3.53527 2.17715 0
M  V30 15 C 11.316 -2.44722 1.03951 0
M  V30 16 C 10.17 -1.93133 0.504688 0
M  V30 17 O 10.1636 -0.932521 -0.435516 0
M  V30 18 C 11.2559 -0.278984 -0.997552 0
M  V30 19 C 12.0596 0.405753 -0.0018629 0
M  V30 20 C 12.751 0.994341 0.817958 0
M  V30 21 C 3.32597 -0.415219 -1.05525 0
M  V30 22 C 2.24196 0.182608 -1.70846 0
M  V30 23 C 1.33619 -0.698212 -2.45967 0
M  V30 24 C 0.201409 -1.28343 -1.73385 0
M  V30 25 C 0.384805 -2.35096 -0.860158 0
M  V30 26 C -0.654266 -2.99836 -0.260513 0
M  V30 27 O -0.477308 -4.05759 0.610869 0
M  V30 28 C 0.762643 -4.59697 0.988821 0
M  V30 29 C -1.9703 -2.59146 -0.522636 0
M  V30 30 O -2.96193 -3.21103 0.0204731 0
M  V30 31 C -4.00827 -3.7887 0.520818 0
M  V30 32 C -4.75855 -4.6873 -0.480527 0
M  V30 33 O -5.87318 -5.26613 0.178807 0
M  V30 34 C -6.58407 -6.28709 -0.473797 0
M  V30 35 C -6.12029 -6.67521 -1.73339 0
M  V30 36 C -6.76649 -7.67883 -2.39107 0
M  V30 37 C -7.84592 -8.31386 -1.86435 0
M  V30 38 C -8.53436 -9.38744 -2.55889 0
M  V30 39 O -8.14215 -9.76741 -3.67653 0
M  V30 40 C -8.32504 -7.93683 -0.609465 0
M  V30 41 C -7.66037 -6.92045 0.0383655 0
M  V30 42 O -8.16853 -6.54335 1.32661 0
M  V30 43 C -9.16908 -7.34533 1.91268 0
M  V30 44 C -8.66314 -8.69344 2.17836 0
M  V30 45 C -8.23725 -9.80331 2.41581 0
M  V30 46 C -2.13626 -1.49942 -1.41103 0
M  V30 47 C -1.07907 -0.857362 -1.99943 0
M  V30 48 C -1.40118 0.361894 -2.80908 0
M  V30 49 C -1.35009 1.47847 -1.80756 0
M  V30 50 C -2.46521 1.66274 -1.01721 0
M  V30 51 C -2.57506 2.60021 -0.0322672 0
M  V30 52 O -3.72534 2.73585 0.730385 0
M  V30 53 C -4.83765 1.89079 0.50324 0
M  V30 54 C -1.47152 3.45154 0.203875 0
M  V30 55 O -1.62922 4.37605 1.19983 0
M  V30 56 C -0.711093 5.33717 1.57252 0
M  V30 57 C -0.412718 6.41127 0.567641 0
M  V30 58 O -1.5183 7.18078 0.181901 0
M  V30 59 C -2.30337 8.02119 0.898059 0
M  V30 60 C -2.13513 8.33101 2.22455 0
M  V30 61 C -2.99628 9.20588 2.89213 0
M  V30 62 C -4.03507 9.76886 2.19542 0
M  V30 63 C -4.98345 10.6915 2.8205 0
M  V30 64 O -4.80071 10.9387 4.05042 0
M  V30 65 C -4.22397 9.46799 0.844224 0
M  V30 66 C -3.38189 8.60788 0.185192 0
M  V30 67 O -3.53658 8.28248 -1.14972 0
M  V30 68 C -4.57089 8.76868 -1.95057 0
M  V30 69 C -5.90899 8.35408 -1.50451 0
M  V30 70 C -7.01934 8.00017 -1.13046 0
M  V30 71 C -0.360086 3.27184 -0.580347 0
M  V30 72 C -0.279932 2.2956 -1.58879 0
M  V30 73 C 0.987886 2.2527 -2.34548 0
M  V30 74 C 2.08946 1.55259 -1.65619 0
M  V30 75 C 3.02682 2.26482 -0.95319 0
M  V30 76 H 5.88489 4.28154 0.843626 0
M  V30 77 H 4.7801 4.25152 -0.539531 0
M  V30 78 H 4.09624 4.05384 1.14814 0
M  V30 79 H 5.33069 -2.10911 -0.963133 0
M  V30 80 H 4.44559 -2.21385 0.576701 0
M  V30 81 H 6.49466 -2.23609 1.91223 0
M  V30 82 H 6.51701 -3.51961 0.682803 0
M  V30 83 H 7.89524 -3.78717 2.1607 0
M  V30 84 H 9.99655 -4.73703 3.14502 0
M  V30 85 H 12.4622 -4.80935 3.26258 0
M  V30 86 H 12.2873 -2.11595 0.767962 0
M  V30 87 H 11.8559 -0.965428 -1.65649 0
M  V30 88 H 10.8976 0.53004 -1.69671 0
M  V30 89 H 13.3577 1.51226 1.5173 0
M  V30 90 H 3.43997 -1.49933 -1.09099 0
M  V30 91 H 1.94055 -1.61228 -2.80721 0
M  V30 92 H 1.03593 -0.254729 -3.43996 0
M  V30 93 H 1.4017 -2.66981 -0.656161 0
M  V30 94 H 0.557158 -5.50801 1.60053 0
M  V30 95 H 1.4044 -3.90928 1.53829 0
M  V30 96 H 1.25566 -4.99391 0.0546851 0
M  V30 97 H -3.88784 -4.43169 1.45026 0
M  V30 98 H -4.76799 -3.01525 0.891969 0
M  V30 99 H -5.07316 -4.11085 -1.35749 0
M  V30 100 H -4.0503 -5.51047 -0.770387 0
M  V30 101 H -5.2776 -6.22467 -2.21792 0
M  V30 102 H -6.4323 -8.00543 -3.37822 0
M  V30 103 H -9.39641 -9.88367 -2.13741 0
M  V30 104 H -9.18806 -8.4568 -0.262845 0
M  V30 105 H -9.40903 -6.83144 2.89184 0
M  V30 106 H -10.0983 -7.34501 1.32046 0
M  V30 107 H -7.84891 -10.7636 2.61912 0
M  V30 108 H -3.16819 -1.22131 -1.59916 0
M  V30 109 H -2.44893 0.280665 -3.16062 0
M  V30 110 H -0.786926 0.507255 -3.68266 0
M  V30 111 H -3.36235 1.0397 -1.15857 0
M  V30 112 H -4.56152 0.823181 0.549291 0
M  V30 113 H -5.64264 2.06029 1.25229 0
M  V30 114 H -5.20638 2.11011 -0.520835 0
M  V30 115 H -0.85131 5.70886 2.59691 0
M  V30 116 H 0.287175 4.7652 1.66493 0
M  V30 117 H 0.279923 7.1779 1.07965 0
M  V30 118 H 0.133053 6.08201 -0.307433 0
M  V30 119 H -1.29844 7.90236 2.78373 0
M  V30 120 H -2.85277 9.43729 3.93074 0
M  V30 121 H -5.78311 11.1372 2.29014 0
M  V30 122 H -5.06616 9.96199 0.326639 0
M  V30 123 H -4.41876 8.47079 -3.00267 0
M  V30 124 H -4.60702 9.89148 -1.96405 0
M  V30 125 H -7.9835 7.68034 -0.790026 0
M  V30 126 H 0.511088 3.90188 -0.389669 0
M  V30 127 H 1.28975 3.30342 -2.63831 0
M  V30 128 H 0.763069 1.77173 -3.34474 0
M  V30 129 H 2.96054 3.35324 -0.874499 0
M  V30 END ATOM
M  V30 BEGIN BOND
M  V30 1 1 1 2
M  V30 2 1 2 3
M  V30 3 2 3 4
M  V30 4 1 4 5
M  V30 5 1 5 6
M  V30 6 1 6 7
M  V30 7 1 7 8
M  V30 8 1 8 9
M  V30 9 2 9 10
M  V30 10 1 10 11
M  V30 11 2 11 12
M  V30 12 1 12 13
M  V30 13 2 13 14
M  V30 14 1 12 15
M  V30 15 2 15 16
M  V30 16 1 16 17
M  V30 17 1 17 18
M  V30 18 1 18 19
M  V30 19 3 19 20
M  V30 20 1 4 21
M  V30 21 2 21 22
M  V30 22 1 22 23
M  V30 23 1 23 24
M  V30 24 2 24 25
M  V30 25 1 25 26
M  V30 26 1 26 27
M  V30 27 1 27 28
M  V30 28 2 26 29
M  V30 29 1 29 30
M  V30 30 1 30 31
M  V30 31 1 31 32
M  V30 32 1 32 33
M  V30 33 1 33 34
M  V30 34 2 34 35
M  V30 35 1 35 36
M  V30 36 2 36 37
M  V30 37 1 37 38
M  V30 38 2 38 39
M  V30 39 1 37 40
M  V30 40 2 40 41
M  V30 41 1 41 42
M  V30 42 1 42 43
M  V30 43 1 43 44
M  V30 44 3 44 45
M  V30 45 1 29 46
M  V30 46 2 46 47
M  V30 47 1 47 48
M  V30 48 1 48 49
M  V30 49 2 49 50
M  V30 50 1 50 51
M  V30 51 1 51 52
M  V30 52 1 52 53
M  V30 53 2 51 54
M  V30 54 1 54 55
M  V30 55 1 55 56
M  V30 56 1 56 57
M  V30 57 1 57 58
M  V30 58 1 58 59
M  V30 59 2 59 60
M  V30 60 1 60 61
M  V30 61 2 61 62
M  V30 62 1 62 63
M  V30 63 2 63 64
M  V30 64 1 62 65
M  V30 65 2 65 66
M  V30 66 1 66 67
M  V30 67 1 67 68
M  V30 68 1 68 69
M  V30 69 3 69 70
M  V30 70 1 54 71
M  V30 71 2 71 72
M  V30 72 1 72 73
M  V30 73 1 73 74
M  V30 74 2 74 75
M  V30 75 1 75 3
M  V30 76 1 16 9
M  V30 77 1 74 22
M  V30 78 1 47 24
M  V30 79 1 72 49
M  V30 80 1 41 34
M  V30 81 1 66 59
M  V30 82 1 1 76
M  V30 83 1 1 77
M  V30 84 1 1 78
M  V30 85 1 6 79
M  V30 86 1 6 80
M  V30 87 1 7 81
M  V30 88 1 7 82
M  V30 89 1 10 83
M  V30 90 1 11 84
M  V30 91 1 13 85
M  V30 92 1 15 86
M  V30 93 1 18 87
M  V30 94 1 18 88
M  V30 95 1 20 89
M  V30 96 1 21 90
M  V30 97 1 23 91
M  V30 98 1 23 92
M  V30 99 1 25 93
M  V30 100 1 28 94
M  V30 101 1 28 95
M  V30 102 1 28 96
M  V30 103 1 31 97
M  V30 104 1 31 98
M  V30 105 1 32 99
M  V30 106 1 32 100
M  V30 107 1 35 101
M  V30 108 1 36 102
M  V30 109 1 38 103
M  V30 110 1 40 104
M  V30 111 1 43 105
M  V30 112 1 43 106
M  V30 113 1 45 107
M  V30 114 1 46 108
M  V30 115 1 48 109
M  V30 116 1 48 110
M  V30 117 1 50 111
M  V30 118 1 53 112
M  V30 119 1 53 113
M  V30 120 1 53 114
M  V30 121 1 56 115
M  V30 122 1 56 116
M  V30 123 1 57 117
M  V30 124 1 57 118
M  V30 125 1 60 119
M  V30 126 1 61 120
M  V30 127 1 63 121
M  V30 128 1 65 122
M  V30 129 1 68 123
M  V30 130 1 68 124
M  V30 131 1 70 125
M  V30 132 1 71 126
M  V30 133 1 73 127
M  V30 134 1 73 128
M  V30 135 1 75 129
M  V30 END BOND
M  V30 END CTAB
M  END
