
     RDKit          3D

  0  0  0  0  0  0  0  0  0  0999 V3000
M  V30 BEGIN CTAB
M  V30 COUNTS 20 19 0 0 0
M  V30 BEGIN ATOM
M  V30 1 O -2.84849 -0.195075 1.43225 0
M  V30 2 C -2.24209 0.617766 2.17091 0
M  V30 3 O -0.871285 0.646345 2.1752 0
M  V30 4 C -0.00442866 -0.152568 1.41934 0
M  V30 5 C -0.179454 0.0818373 -0.0325649 0
M  V30 6 C 0.663462 -0.894145 -0.863466 0
M  V30 7 O 2.04387 -0.614201 -0.700357 0
M  V30 8 C 2.9536 -1.40561 -1.38456 0
M  V30 9 O 2.5222 -2.34885 -2.12977 0
M  V30 10 O 0.060032 1.41268 -0.440349 0
M  V30 11 C -0.887535 2.1858 -1.09236 0
M  V30 12 O -1.9917 1.62857 -1.30727 0
M  V30 13 H -2.85151 1.27097 2.78213 0
M  V30 14 H -0.302119 -1.20944 1.61989 0
M  V30 15 H 1.04238 -0.0790328 1.77338 0
M  V30 16 H -1.21667 -0.153872 -0.320281 0
M  V30 17 H 0.323155 -0.820449 -1.9036 0
M  V30 18 H 0.43299 -1.91424 -0.491203 0
M  V30 19 H 4.02515 -1.26112 -1.31703 0
M  V30 20 H -0.67155 3.20463 -1.39029 0
M  V30 END ATOM
M  V30 BEGIN BOND
M  V30 1 2 1 2
M  V30 2 1 2 3
M  V30 3 1 3 4
M  V30 4 1 4 5
M  V30 5 1 5 6
M  V30 6 1 6 7
M  V30 7 1 7 8
M  V30 8 2 8 9
M  V30 9 1 5 10
M  V30 10 1 10 11
M  V30 11 2 11 12
M  V30 12 1 2 13
M  V30 13 1 4 14
M  V30 14 1 4 15
M  V30 15 1 5 16
M  V30 16 1 6 17
M  V30 17 1 6 18
M  V30 18 1 8 19
M  V30 19 1 11 20
M  V30 END BOND
M  V30 END CTAB
M  END
