
     RDKit          3D

  0  0  0  0  0  0  0  0  0  0999 V3000
M  V30 BEGIN CTAB
M  V30 COUNTS 64 66 0 0 0
M  V30 BEGIN ATOM
M  V30 1 C 7.94839 0.123511 1.1348 0
M  V30 2 C 6.71056 0.137931 0.315411 0
M  V30 3 C 6.69036 1.43049 -0.485482 0
M  V30 4 C 5.42379 -0.013329 1.11088 0
M  V30 5 C 4.29193 0.00598288 0.166646 0
M  V30 6 O 4.61288 0.0232259 -1.08647 0
M  V30 7 C 2.88836 0.00718157 0.455044 0
M  V30 8 C 2.33414 0.0134363 1.73549 0
M  V30 9 O 3.18986 0.0566794 2.79797 0
M  V30 10 C 0.96553 -0.0231192 1.95878 0
M  V30 11 C 0.359368 0.0130281 3.27274 0
M  V30 12 O 0.913521 0.0843875 4.37535 0
M  V30 13 C 0.0717936 -0.0717649 0.875742 0
M  V30 14 O -1.27627 -0.11368 1.05576 0
M  V30 15 C -2.23471 -0.561753 0.0627526 0 CFG=2
M  V30 16 C -1.59745 -0.762242 -1.26062 0 CFG=1
M  V30 17 C -0.295804 -0.147826 -1.5543 0
M  V30 18 C 0.612981 -0.0759066 -0.373212 0
M  V30 19 C 1.95402 -0.0382705 -0.597688 0
M  V30 20 O 2.48587 -0.0393989 -1.87597 0
M  V30 21 C -1.38904 -2.34101 -1.37528 0
M  V30 22 C -2.75091 -2.96209 -1.24267 0
M  V30 23 C -0.829191 -2.65941 -2.71007 0
M  V30 24 C -3.45443 0.267945 0.144843 0
M  V30 25 C -4.47263 -0.0992312 1.06751 0
M  V30 26 O -4.24242 -1.28917 1.7209 0
M  V30 27 C -5.57441 0.685363 1.26521 0
M  V30 28 C -6.66661 0.306573 2.16366 0
M  V30 29 O -6.72121 -0.747964 2.82748 0
M  V30 30 C -5.69243 1.88348 0.537999 0
M  V30 31 O -6.80798 2.62802 0.778795 0
M  V30 32 C -4.71762 2.26771 -0.367089 0
M  V30 33 C -4.87681 3.52525 -1.09086 0
M  V30 34 O -4.05908 3.95926 -1.89833 0
M  V30 35 C -3.59189 1.44367 -0.560325 0
M  V30 36 O -2.6172 1.77458 -1.43315 0
M  V30 37 H 8.15409 1.07768 1.66924 0
M  V30 38 H 8.81453 0.00870054 0.419442 0
M  V30 39 H 8.03352 -0.759176 1.79711 0
M  V30 40 H 6.73978 -0.693956 -0.392651 0
M  V30 41 H 6.67039 1.19709 -1.59109 0
M  V30 42 H 5.80553 2.02605 -0.207564 0
M  V30 43 H 7.57105 2.06056 -0.337969 0
M  V30 44 H 5.5246 -1.0392 1.58743 0
M  V30 45 H 5.38646 0.754974 1.87855 0
M  V30 46 H 3.1127 0.0825148 3.7566 0
M  V30 47 H -0.739046 -0.0254824 3.33344 0
M  V30 48 H -2.51483 -1.58051 0.47473 0
M  V30 49 H -2.31873 -0.567155 -2.065 0
M  V30 50 H 0.252 -0.900724 -2.23654 0
M  V30 51 H -0.250856 0.768065 -2.16086 0
M  V30 52 H 1.9128 -0.0548944 -2.68505 0
M  V30 53 H -0.712738 -2.55559 -0.518213 0
M  V30 54 H -3.00202 -3.67958 -2.04902 0
M  V30 55 H -2.83435 -3.52733 -0.266447 0
M  V30 56 H -3.50711 -2.15746 -1.21274 0
M  V30 57 H 0.26669 -2.87003 -2.67483 0
M  V30 58 H -1.29492 -3.64142 -3.05019 0
M  V30 59 H -1.11888 -1.89509 -3.43695 0
M  V30 60 H -4.75361 -1.78297 2.38148 0
M  V30 61 H -7.5092 0.97242 2.28426 0
M  V30 62 H -7.05886 3.49492 0.374734 0
M  V30 63 H -5.76427 4.11474 -0.918311 0
M  V30 64 H -2.44994 2.48131 -2.04219 0
M  V30 END ATOM
M  V30 BEGIN BOND
M  V30 1 1 1 2
M  V30 2 1 2 3
M  V30 3 1 2 4
M  V30 4 1 4 5
M  V30 5 2 5 6
M  V30 6 1 5 7
M  V30 7 2 7 8
M  V30 8 1 8 9
M  V30 9 1 8 10
M  V30 10 1 10 11
M  V30 11 2 11 12
M  V30 12 2 10 13
M  V30 13 1 13 14
M  V30 14 1 14 15
M  V30 15 1 15 16
M  V30 16 1 16 17
M  V30 17 1 17 18
M  V30 18 2 18 19
M  V30 19 1 19 20
M  V30 20 1 16 21
M  V30 21 1 21 22
M  V30 22 1 21 23
M  V30 23 1 15 24
M  V30 24 2 24 25
M  V30 25 1 25 26
M  V30 26 1 25 27
M  V30 27 1 27 28
M  V30 28 2 28 29
M  V30 29 2 27 30
M  V30 30 1 30 31
M  V30 31 1 30 32
M  V30 32 1 32 33
M  V30 33 2 33 34
M  V30 34 2 32 35
M  V30 35 1 35 36
M  V30 36 1 19 7
M  V30 37 1 35 24
M  V30 38 1 18 13
M  V30 39 1 1 37
M  V30 40 1 1 38
M  V30 41 1 1 39
M  V30 42 1 2 40
M  V30 43 1 3 41
M  V30 44 1 3 42
M  V30 45 1 3 43
M  V30 46 1 4 44
M  V30 47 1 4 45
M  V30 48 1 9 46
M  V30 49 1 11 47
M  V30 50 1 15 48 CFG=1
M  V30 51 1 16 49 CFG=3
M  V30 52 1 17 50
M  V30 53 1 17 51
M  V30 54 1 20 52
M  V30 55 1 21 53
M  V30 56 1 22 54
M  V30 57 1 22 55
M  V30 58 1 22 56
M  V30 59 1 23 57
M  V30 60 1 23 58
M  V30 61 1 23 59
M  V30 62 1 26 60
M  V30 63 1 28 61
M  V30 64 1 31 62
M  V30 65 1 33 63
M  V30 66 1 36 64
M  V30 END BOND
M  V30 END CTAB
M  END
