
     RDKit          3D

  0  0  0  0  0  0  0  0  0  0999 V3000
M  V30 BEGIN CTAB
M  V30 COUNTS 87 92 0 0 0
M  V30 BEGIN ATOM
M  V30 1 C 2.31159 -0.642712 -0.256906 0 CFG=2
M  V30 2 C 2.23354 -2.12385 -0.154175 0
M  V30 3 C 3.63188 -0.105375 0.168138 0
M  V30 4 C 4.79264 -0.591278 -0.628878 0
M  V30 5 C 6.0791 0.0168056 -0.129903 0
M  V30 6 O 6.03929 0.814382 0.828891 0
M  V30 7 N 7.29139 -0.327512 -0.754298 0
M  V30 8 C 8.4934 0.244328 -0.287199 0
M  V30 9 C 9.67685 -0.0958969 -0.899417 0
M  V30 10 N 9.95023 -0.933047 -1.9388 0
M  V30 11 C 11.2823 -0.905521 -2.14185 0
M  V30 12 N 11.8254 -0.0642098 -1.24187 0
M  V30 13 C 10.8588 0.454932 -0.456325 0
M  V30 14 N 10.8376 1.3208 0.572766 0
M  V30 15 C 9.67063 1.6448 1.16275 0
M  V30 16 N 8.5145 1.10669 0.730081 0
M  V30 17 C 1.15355 0.00316923 0.453701 0 CFG=1
M  V30 18 C 1.31006 1.53921 0.329551 0
M  V30 19 C -0.0720381 2.10159 0.162887 0
M  V30 20 C -0.967041 0.962385 0.508693 0 CFG=1
M  V30 21 C -2.35607 1.09111 -0.00460213 0 CFG=2
M  V30 22 C -3.12636 1.99738 0.907802 0 CFG=1
M  V30 23 C -4.56354 2.1709 0.512332 0
M  V30 24 C -5.24026 1.01803 -0.0742708 0 CFG=2
M  V30 25 C -6.15482 0.376513 0.952754 0
M  V30 26 C -7.23122 -0.350469 0.186967 0 CFG=1
M  V30 27 C -6.56227 -1.33019 -0.727193 0
M  V30 28 C -5.08499 -1.43315 -0.530621 0
M  V30 29 C -4.39467 -0.0670512 -0.667626 0 CFG=1
M  V30 30 C -4.22108 0.170289 -2.15051 0
M  V30 31 C -3.05837 -0.221236 -0.0281134 0 CFG=1
M  V30 32 C -2.27046 -1.3562 -0.550036 0
M  V30 33 C -0.946851 -1.42158 0.275694 0 CFG=2
M  V30 34 O -1.32583 -1.39185 1.63011 0
M  V30 35 C -1.08859 -2.47806 2.44022 0
M  V30 36 O -0.541212 -3.52334 2.01657 0
M  V30 37 C -0.185743 -0.206923 -0.137538 0 CFG=2
M  V30 38 C -0.181782 -0.0416636 -1.64326 0
M  V30 39 O -8.22755 -0.893817 0.981079 0
M  V30 40 C -9.54224 -0.488023 0.905469 0
M  V30 41 O -9.80291 0.417778 0.064268 0
M  V30 42 O -3.04043 1.46153 2.21484 0
M  V30 43 C -2.43858 2.08641 3.28487 0
M  V30 44 O -1.92383 3.21779 3.10063 0
M  V30 45 H 2.19409 -0.402243 -1.35209 0
M  V30 46 H 1.68676 -2.62605 -0.977782 0
M  V30 47 H 3.29173 -2.53497 -0.0931938 0
M  V30 48 H 1.78773 -2.45774 0.803949 0
M  V30 49 H 3.66438 1.01312 0.134949 0
M  V30 50 H 3.86024 -0.357134 1.24674 0
M  V30 51 H 4.97149 -1.66098 -0.653867 0
M  V30 52 H 4.70983 -0.264376 -1.70756 0
M  V30 53 H 7.28742 -1.01074 -1.56842 0
M  V30 54 H 9.29406 -1.5045 -2.49904 0
M  V30 55 H 11.8328 -1.45968 -2.89533 0
M  V30 56 H 9.71098 2.34567 1.98479 0
M  V30 57 H 1.13492 -0.207367 1.53364 0
M  V30 58 H 1.9302 1.77766 -0.560374 0
M  V30 59 H 1.73722 1.94334 1.26913 0
M  V30 60 H -0.239785 2.32952 -0.93018 0
M  V30 61 H -0.235798 3.02249 0.759698 0
M  V30 62 H -0.884687 0.763631 1.59894 0
M  V30 63 H -2.32609 1.60107 -0.991903 0
M  V30 64 H -2.60098 2.97542 0.93975 0
M  V30 65 H -5.10297 2.52914 1.43497 0
M  V30 66 H -4.60677 3.0377 -0.183918 0
M  V30 67 H -5.93151 1.35032 -0.907711 0
M  V30 68 H -6.5811 1.15059 1.61126 0
M  V30 69 H -5.5117 -0.326982 1.53799 0
M  V30 70 H -7.70785 0.431513 -0.475136 0
M  V30 71 H -6.7809 -1.13299 -1.79656 0
M  V30 72 H -6.97508 -2.35499 -0.531506 0
M  V30 73 H -4.7959 -1.92354 0.418111 0
M  V30 74 H -4.67708 -2.05788 -1.35099 0
M  V30 75 H -5.10453 -0.157791 -2.73664 0
M  V30 76 H -4.178 1.28756 -2.3173 0
M  V30 77 H -3.34479 -0.285295 -2.59882 0
M  V30 78 H -3.27592 -0.467838 1.06159 0
M  V30 79 H -1.96977 -1.35232 -1.58562 0
M  V30 80 H -2.79521 -2.30769 -0.244777 0
M  V30 81 H -0.418493 -2.33495 -0.0124312 0
M  V30 82 H -1.36052 -2.49856 3.49786 0
M  V30 83 H -1.09966 0.39563 -2.05398 0
M  V30 84 H 0.14819 -0.968372 -2.12624 0
M  V30 85 H 0.619631 0.730147 -1.85086 0
M  V30 86 H -10.3514 -0.872852 1.49415 0
M  V30 87 H -2.40914 1.61941 4.25332 0
M  V30 END ATOM
M  V30 BEGIN BOND
M  V30 1 1 1 2
M  V30 2 1 1 3
M  V30 3 1 3 4
M  V30 4 1 4 5
M  V30 5 2 5 6
M  V30 6 1 5 7
M  V30 7 1 7 8
M  V30 8 2 8 9
M  V30 9 1 9 10
M  V30 10 1 10 11
M  V30 11 2 11 12
M  V30 12 1 12 13
M  V30 13 2 13 14
M  V30 14 1 14 15
M  V30 15 2 15 16
M  V30 16 1 1 17
M  V30 17 1 17 18
M  V30 18 1 18 19
M  V30 19 1 19 20
M  V30 20 1 20 21
M  V30 21 1 21 22
M  V30 22 1 22 23
M  V30 23 1 23 24
M  V30 24 1 24 25
M  V30 25 1 25 26
M  V30 26 1 26 27
M  V30 27 1 27 28
M  V30 28 1 28 29
M  V30 29 1 29 30 CFG=3
M  V30 30 1 29 31
M  V30 31 1 31 32
M  V30 32 1 32 33
M  V30 33 1 33 34
M  V30 34 1 34 35
M  V30 35 2 35 36
M  V30 36 1 33 37
M  V30 37 1 37 38 CFG=3
M  V30 38 1 26 39
M  V30 39 1 39 40
M  V30 40 2 40 41
M  V30 41 1 22 42
M  V30 42 1 42 43
M  V30 43 2 43 44
M  V30 44 1 16 8
M  V30 45 1 37 17
M  V30 46 1 13 9
M  V30 47 1 37 20
M  V30 48 1 31 21
M  V30 49 1 29 24
M  V30 50 1 1 45 CFG=3
M  V30 51 1 2 46
M  V30 52 1 2 47
M  V30 53 1 2 48
M  V30 54 1 3 49
M  V30 55 1 3 50
M  V30 56 1 4 51
M  V30 57 1 4 52
M  V30 58 1 7 53
M  V30 59 1 10 54
M  V30 60 1 11 55
M  V30 61 1 15 56
M  V30 62 1 17 57 CFG=1
M  V30 63 1 18 58
M  V30 64 1 18 59
M  V30 65 1 19 60
M  V30 66 1 19 61
M  V30 67 1 20 62 CFG=1
M  V30 68 1 21 63 CFG=3
M  V30 69 1 22 64 CFG=1
M  V30 70 1 23 65
M  V30 71 1 23 66
M  V30 72 1 24 67 CFG=3
M  V30 73 1 25 68
M  V30 74 1 25 69
M  V30 75 1 26 70 CFG=3
M  V30 76 1 27 71
M  V30 77 1 27 72
M  V30 78 1 28 73
M  V30 79 1 28 74
M  V30 80 1 30 75
M  V30 81 1 30 76
M  V30 82 1 30 77
M  V30 83 1 31 78 CFG=1
M  V30 84 1 32 79
M  V30 85 1 32 80
M  V30 86 1 33 81 CFG=1
M  V30 87 1 35 82
M  V30 88 1 38 83
M  V30 89 1 38 84
M  V30 90 1 38 85
M  V30 91 1 40 86
M  V30 92 1 43 87
M  V30 END BOND
M  V30 END CTAB
M  END
