
     RDKit          3D

  0  0  0  0  0  0  0  0  0  0999 V3000
M  V30 BEGIN CTAB
M  V30 COUNTS 104 108 0 0 0
M  V30 BEGIN ATOM
M  V30 1 C 0.144998 -2.62167 -1.06533 0 CFG=2
M  V30 2 C -0.258481 -3.87428 -0.241013 0
M  V30 3 C 1.61622 -2.57238 -0.789842 0
M  V30 4 C 2.46142 -1.53766 -1.39127 0
M  V30 5 C 3.92065 -1.79246 -1.00235 0
M  V30 6 O 4.21042 -2.76355 -0.2742 0
M  V30 7 O 4.91371 -0.958812 -1.45011 0
M  V30 8 C 6.27286 -1.08424 -1.16491 0
M  V30 9 C 6.59932 -0.964322 0.292891 0 CFG=1
M  V30 10 N 8.05296 -1.1298 0.413039 0
M  V30 11 C 8.60611 -2.16523 1.17166 0
M  V30 12 O 7.84533 -2.98053 1.77035 0
M  V30 13 C 10.0636 -2.3552 1.30902 0
M  V30 14 Cl 10.8237 -2.6282 -0.280632 0
M  V30 15 Cl 10.7534 -0.906793 2.07956 0
M  V30 16 C 6.20723 0.366666 0.861919 0 CFG=2
M  V30 17 O 4.8481 0.54864 0.755487 0
M  V30 18 C 6.97454 1.49907 0.303294 0
M  V30 19 C 8.07588 1.98862 1.00745 0
M  V30 20 C 8.81412 3.05705 0.510896 0
M  V30 21 C 8.47756 3.65326 -0.680225 0
M  V30 22 C 7.40401 3.19225 -1.38781 0
M  V30 23 C 6.67465 2.12428 -0.880903 0
M  V30 24 N 9.24012 4.74651 -1.18006 0 CHG=1
M  V30 25 O 8.91817 5.35071 -2.36228 0 CHG=-1
M  V30 26 O 10.2241 5.16481 -0.528213 0
M  V30 27 C -0.579784 -1.42522 -0.594237 0 CFG=1
M  V30 28 C -0.242443 -0.23441 -1.42782 0
M  V30 29 C -1.5934 0.438896 -1.80471 0
M  V30 30 C -2.44701 -0.000317781 -0.704001 0 CFG=1
M  V30 31 C -3.91986 0.128022 -0.808859 0 CFG=2
M  V30 32 C -4.4759 1.36681 -1.40069 0 CFG=1
M  V30 33 C -5.31141 2.10012 -0.331895 0
M  V30 34 C -6.45391 1.12335 -0.0449254 0 CFG=2
M  V30 35 C -7.67649 1.78861 0.448653 0
M  V30 36 C -7.66902 2.14839 1.90812 0 CFG=1
M  V30 37 C -7.39725 0.866567 2.67063 0
M  V30 38 C -6.0261 0.405695 2.32154 0
M  V30 39 C -5.86552 0.0745045 0.83158 0 CFG=1
M  V30 40 C -6.65508 -1.22208 0.620634 0
M  V30 41 C -4.40975 -0.137618 0.625003 0 CFG=1
M  V30 42 C -4.11629 -1.59895 0.87065 0
M  V30 43 C -2.6328 -1.90151 0.749535 0 CFG=2
M  V30 44 O -2.0137 -1.07046 1.73155 0
M  V30 45 C -1.41681 -1.51412 2.87554 0
M  V30 46 O -1.39474 -2.74698 3.11706 0
M  V30 47 C -2.0559 -1.48725 -0.587985 0 CFG=2
M  V30 48 C -2.63313 -2.20471 -1.7508 0
M  V30 49 O -6.71905 3.14922 2.16243 0
M  V30 50 C -7.12043 4.38148 2.64523 0
M  V30 51 O -8.35458 4.56943 2.84588 0
M  V30 52 O -3.63474 2.20606 -2.08412 0
M  V30 53 C -3.8226 2.52863 -3.40927 0
M  V30 54 O -4.81483 2.01096 -3.974 0
M  V30 55 H 0.00540895 -2.89793 -2.1216 0
M  V30 56 H 0.00444467 -3.73035 0.815057 0
M  V30 57 H -1.23131 -4.25905 -0.481298 0
M  V30 58 H 0.468743 -4.66117 -0.613365 0
M  V30 59 H 1.71054 -2.60776 0.335806 0
M  V30 60 H 2.09633 -3.57653 -1.07407 0
M  V30 61 H 2.44795 -1.47908 -2.47311 0
M  V30 62 H 2.28331 -0.552022 -0.866725 0
M  V30 63 H 6.5769 -2.1258 -1.49915 0
M  V30 64 H 6.88395 -0.371036 -1.76599 0
M  V30 65 H 6.08578 -1.74445 0.875135 0
M  V30 66 H 8.64946 -0.44726 -0.0878843 0
M  V30 67 H 10.3141 -3.21187 1.96354 0
M  V30 68 H 6.41522 0.294253 1.97216 0
M  V30 69 H 4.50472 1.21076 1.41735 0
M  V30 70 H 8.33432 1.51838 1.93889 0
M  V30 71 H 9.65318 3.41063 1.07304 0
M  V30 72 H 7.09965 3.63293 -2.33571 0
M  V30 73 H 5.83118 1.7845 -1.46499 0
M  V30 74 H -0.200848 -1.22444 0.463038 0
M  V30 75 H 0.351658 0.507194 -0.840723 0
M  V30 76 H 0.298089 -0.44461 -2.36748 0
M  V30 77 H -1.36718 1.53979 -1.69179 0
M  V30 78 H -1.83158 0.159578 -2.82054 0
M  V30 79 H -2.09743 0.45603 0.247134 0
M  V30 80 H -4.30389 -0.787086 -1.35798 0
M  V30 81 H -5.28276 1.04342 -2.13326 0
M  V30 82 H -4.76282 2.21302 0.602736 0
M  V30 83 H -5.77035 3.00535 -0.722768 0
M  V30 84 H -6.73262 0.609295 -1.01428 0
M  V30 85 H -7.86647 2.69657 -0.145177 0
M  V30 86 H -8.54023 1.08526 0.288519 0
M  V30 87 H -8.68838 2.51866 2.15238 0
M  V30 88 H -8.19374 0.147862 2.40055 0
M  V30 89 H -7.42739 1.09021 3.73869 0
M  V30 90 H -5.31527 1.21842 2.59701 0
M  V30 91 H -5.73278 -0.475 2.90649 0
M  V30 92 H -7.73861 -0.941403 0.737512 0
M  V30 93 H -6.53572 -1.58395 -0.409564 0
M  V30 94 H -6.42234 -1.94981 1.40169 0
M  V30 95 H -3.79604 0.446512 1.31425 0
M  V30 96 H -4.40648 -1.83544 1.90193 0
M  V30 97 H -4.65522 -2.18595 0.102956 0
M  V30 98 H -2.56315 -2.97429 0.977067 0
M  V30 99 H -0.965025 -0.785628 3.56694 0
M  V30 100 H -3.54663 -2.81235 -1.48063 0
M  V30 101 H -1.95587 -2.91934 -2.24761 0
M  V30 102 H -2.92529 -1.50936 -2.59794 0
M  V30 103 H -6.44521 5.20169 2.86444 0
M  V30 104 H -3.14633 3.20278 -3.95512 0
M  V30 END ATOM
M  V30 BEGIN BOND
M  V30 1 1 1 2
M  V30 2 1 1 3
M  V30 3 1 3 4
M  V30 4 1 4 5
M  V30 5 2 5 6
M  V30 6 1 5 7
M  V30 7 1 7 8
M  V30 8 1 8 9
M  V30 9 1 9 10
M  V30 10 1 10 11
M  V30 11 2 11 12
M  V30 12 1 11 13
M  V30 13 1 13 14
M  V30 14 1 13 15
M  V30 15 1 9 16
M  V30 16 1 16 17
M  V30 17 1 16 18
M  V30 18 2 18 19
M  V30 19 1 19 20
M  V30 20 2 20 21
M  V30 21 1 21 22
M  V30 22 2 22 23
M  V30 23 1 21 24
M  V30 24 1 24 25
M  V30 25 2 24 26
M  V30 26 1 1 27
M  V30 27 1 27 28
M  V30 28 1 28 29
M  V30 29 1 29 30
M  V30 30 1 30 31
M  V30 31 1 31 32
M  V30 32 1 32 33
M  V30 33 1 33 34
M  V30 34 1 34 35
M  V30 35 1 35 36
M  V30 36 1 36 37
M  V30 37 1 37 38
M  V30 38 1 38 39
M  V30 39 1 39 40 CFG=1
M  V30 40 1 39 41
M  V30 41 1 41 42
M  V30 42 1 42 43
M  V30 43 1 43 44
M  V30 44 1 44 45
M  V30 45 2 45 46
M  V30 46 1 43 47
M  V30 47 1 47 48 CFG=3
M  V30 48 1 36 49
M  V30 49 1 49 50
M  V30 50 2 50 51
M  V30 51 1 32 52
M  V30 52 1 52 53
M  V30 53 2 53 54
M  V30 54 1 23 18
M  V30 55 1 47 27
M  V30 56 1 47 30
M  V30 57 1 41 31
M  V30 58 1 39 34
M  V30 59 1 1 55 CFG=3
M  V30 60 1 2 56
M  V30 61 1 2 57
M  V30 62 1 2 58
M  V30 63 1 3 59
M  V30 64 1 3 60
M  V30 65 1 4 61
M  V30 66 1 4 62
M  V30 67 1 8 63
M  V30 68 1 8 64
M  V30 69 1 9 65 CFG=1
M  V30 70 1 10 66
M  V30 71 1 13 67
M  V30 72 1 16 68 CFG=1
M  V30 73 1 17 69
M  V30 74 1 19 70
M  V30 75 1 20 71
M  V30 76 1 22 72
M  V30 77 1 23 73
M  V30 78 1 27 74 CFG=1
M  V30 79 1 28 75
M  V30 80 1 28 76
M  V30 81 1 29 77
M  V30 82 1 29 78
M  V30 83 1 30 79 CFG=1
M  V30 84 1 31 80 CFG=3
M  V30 85 1 32 81 CFG=3
M  V30 86 1 33 82
M  V30 87 1 33 83
M  V30 88 1 34 84 CFG=3
M  V30 89 1 35 85
M  V30 90 1 35 86
M  V30 91 1 36 87 CFG=1
M  V30 92 1 37 88
M  V30 93 1 37 89
M  V30 94 1 38 90
M  V30 95 1 38 91
M  V30 96 1 40 92
M  V30 97 1 40 93
M  V30 98 1 40 94
M  V30 99 1 41 95 CFG=1
M  V30 100 1 42 96
M  V30 101 1 42 97
M  V30 102 1 43 98 CFG=1
M  V30 103 1 45 99
M  V30 104 1 48 100
M  V30 105 1 48 101
M  V30 106 1 48 102
M  V30 107 1 50 103
M  V30 108 1 53 104
M  V30 END BOND
M  V30 END CTAB
M  END
