
     RDKit          3D

  0  0  0  0  0  0  0  0  0  0999 V3000
M  V30 BEGIN CTAB
M  V30 COUNTS 27 27 0 0 0
M  V30 BEGIN ATOM
M  V30 1 C -3.19615 -1.0161 -0.272355 0
M  V30 2 C -2.31001 0.119284 -0.658369 0
M  V30 3 N -1.29244 0.287028 0.355554 0
M  V30 4 C 0.0959754 0.0145422 0.112325 0
M  V30 5 C 0.949233 0.994252 -0.352555 0
M  V30 6 N 0.382389 2.29258 -0.578852 0
M  V30 7 C 2.28608 0.753124 -0.593314 0
M  V30 8 C 2.82928 -0.496308 -0.375127 0
M  V30 9 C 1.98015 -1.47967 0.0897974 0
M  V30 10 C 0.644117 -1.23185 0.328629 0
M  V30 11 F -0.14857 -2.22404 0.783088 0
M  V30 12 Cl 2.67863 -3.08153 0.369109 0
M  V30 13 N 4.21494 -0.753798 -0.622366 0
M  V30 14 C -1.67505 0.751429 1.67769 0
M  V30 15 H -3.22444 -1.04072 0.855828 0
M  V30 16 H -2.72663 -1.97209 -0.581534 0
M  V30 17 H -4.24073 -0.909721 -0.615423 0
M  V30 18 H -1.87393 -0.0639438 -1.66052 0
M  V30 19 H -2.92874 1.05127 -0.640183 0
M  V30 20 H 0.858334 2.9424 -1.27002 0
M  V30 21 H -0.480162 2.60004 -0.0777218 0
M  V30 22 H 2.95219 1.52014 -0.956488 0
M  V30 23 H 4.49413 -1.71204 -0.896298 0
M  V30 24 H 4.96023 -0.041069 -0.545201 0
M  V30 25 H -2.46646 1.52959 1.61214 0
M  V30 26 H -1.95697 -0.0897807 2.35273 0
M  V30 27 H -0.80539 1.25696 2.15943 0
M  V30 END ATOM
M  V30 BEGIN BOND
M  V30 1 1 1 2
M  V30 2 1 2 3
M  V30 3 1 3 4
M  V30 4 2 4 5
M  V30 5 1 5 6
M  V30 6 1 5 7
M  V30 7 2 7 8
M  V30 8 1 8 9
M  V30 9 2 9 10
M  V30 10 1 10 11
M  V30 11 1 9 12
M  V30 12 1 8 13
M  V30 13 1 3 14
M  V30 14 1 10 4
M  V30 15 1 1 15
M  V30 16 1 1 16
M  V30 17 1 1 17
M  V30 18 1 2 18
M  V30 19 1 2 19
M  V30 20 1 6 20
M  V30 21 1 6 21
M  V30 22 1 7 22
M  V30 23 1 13 23
M  V30 24 1 13 24
M  V30 25 1 14 25
M  V30 26 1 14 26
M  V30 27 1 14 27
M  V30 END BOND
M  V30 END CTAB
M  END
