
     RDKit          3D

  0  0  0  0  0  0  0  0  0  0999 V3000
M  V30 BEGIN CTAB
M  V30 COUNTS 41 43 0 0 0
M  V30 BEGIN ATOM
M  V30 1 N -3.7038 3.79839 1.13277 0
M  V30 2 C -2.54581 3.012 0.830642 0
M  V30 3 N -2.61297 1.68621 0.642257 0
M  V30 4 C -1.50765 0.936235 0.353961 0
M  V30 5 N -1.70924 -0.452907 0.173064 0
M  V30 6 C -3.0684 -0.98842 0.357677 0
M  V30 7 C -3.39179 -1.72319 -0.924516 0
M  V30 8 C -2.4881 -2.91746 -1.1159 0
M  V30 9 C -1.24647 -2.83203 -0.272476 0
M  V30 10 C -0.708338 -1.41796 -0.180182 0
M  V30 11 C -0.31211 1.58969 0.262166 0
M  V30 12 N 0.859956 0.876655 -0.02762 0
M  V30 13 N 1.96569 1.02779 0.571596 0
M  V30 14 C 3.07404 0.231568 0.168391 0
M  V30 15 C 3.27152 -1.04696 0.694856 0
M  V30 16 C 4.34726 -1.80859 0.297658 0
M  V30 17 C 5.23719 -1.30408 -0.628137 0
M  V30 18 Cl 6.63397 -2.24644 -1.16838 0
M  V30 19 C 5.05636 -0.0614048 -1.14809 0
M  V30 20 C 3.98555 0.696258 -0.752465 0
M  V30 21 C -0.242626 2.94363 0.45434 0
M  V30 22 N 1.00741 3.65432 0.362317 0
M  V30 23 N -1.35871 3.62254 0.733618 0
M  V30 24 H -3.76205 4.7545 0.716141 0
M  V30 25 H -4.45178 3.40899 1.75072 0
M  V30 26 H -3.80342 -0.175312 0.472847 0
M  V30 27 H -3.09802 -1.71799 1.17506 0
M  V30 28 H -3.22488 -1.01247 -1.75778 0
M  V30 29 H -4.46835 -1.97425 -0.920287 0
M  V30 30 H -3.06206 -3.80641 -0.789725 0
M  V30 31 H -2.23648 -3.06375 -2.18333 0
M  V30 32 H -0.462433 -3.43648 -0.770308 0
M  V30 33 H -1.43339 -3.28511 0.71813 0
M  V30 34 H 0.0534784 -1.44877 0.621908 0
M  V30 35 H -0.151237 -1.15861 -1.12658 0
M  V30 36 H 2.55931 -1.42322 1.4213 0
M  V30 37 H 4.53035 -2.81196 0.689969 0
M  V30 38 H 5.74302 0.367793 -1.88345 0
M  V30 39 H 3.84882 1.70094 -1.17986 0
M  V30 40 H 1.19544 4.20085 -0.477645 0
M  V30 41 H 1.68073 3.60543 1.12395 0
M  V30 END ATOM
M  V30 BEGIN BOND
M  V30 1 1 1 2
M  V30 2 2 2 3
M  V30 3 1 3 4
M  V30 4 1 4 5
M  V30 5 1 5 6
M  V30 6 1 6 7
M  V30 7 1 7 8
M  V30 8 1 8 9
M  V30 9 1 9 10
M  V30 10 2 4 11
M  V30 11 1 11 12
M  V30 12 2 12 13 CFG=2
M  V30 13 1 13 14
M  V30 14 2 14 15
M  V30 15 1 15 16
M  V30 16 2 16 17
M  V30 17 1 17 18
M  V30 18 1 17 19
M  V30 19 2 19 20
M  V30 20 1 11 21
M  V30 21 1 21 22
M  V30 22 2 21 23
M  V30 23 1 23 2
M  V30 24 1 10 5
M  V30 25 1 20 14
M  V30 26 1 1 24
M  V30 27 1 1 25
M  V30 28 1 6 26
M  V30 29 1 6 27
M  V30 30 1 7 28
M  V30 31 1 7 29
M  V30 32 1 8 30
M  V30 33 1 8 31
M  V30 34 1 9 32
M  V30 35 1 9 33
M  V30 36 1 10 34
M  V30 37 1 10 35
M  V30 38 1 15 36
M  V30 39 1 16 37
M  V30 40 1 19 38
M  V30 41 1 20 39
M  V30 42 1 22 40
M  V30 43 1 22 41
M  V30 END BOND
M  V30 END CTAB
M  END
