
     RDKit          3D

  0  0  0  0  0  0  0  0  0  0999 V3000
M  V30 BEGIN CTAB
M  V30 COUNTS 31 31 0 0 0
M  V30 BEGIN ATOM
M  V30 1 N 3.61138 -0.968811 1.05413 0
M  V30 2 C 3.42138 0.419886 0.724829 0
M  V30 3 C 2.28105 0.59771 -0.281004 0
M  V30 4 C 0.985783 0.0506126 0.333145 0
M  V30 5 C -0.131838 0.224991 -0.653511 0
M  V30 6 C -1.43257 -0.263807 -0.174631 0
M  V30 7 C -1.57235 -1.05077 0.940926 0
M  V30 8 C -2.8629 -1.45459 1.29797 0
M  V30 9 C -3.97451 -1.0987 0.585887 0
M  V30 10 C -3.83868 -0.315866 -0.524361 0
M  V30 11 C -2.56312 0.0924804 -0.890624 0
M  V30 12 C -0.177948 1.66967 -1.02191 0
M  V30 13 O 0.053536 2.07275 -2.18569 0
M  V30 14 O -0.49005 2.58202 -0.0257977 0
M  V30 15 N 0.214982 -0.545172 -1.85659 0
M  V30 16 H 3.72213 -1.07907 2.09839 0
M  V30 17 H 4.52236 -1.3347 0.652035 0
M  V30 18 H 3.21905 1.00465 1.63978 0
M  V30 19 H 4.32795 0.80468 0.227484 0
M  V30 20 H 2.16368 1.66186 -0.557834 0
M  V30 21 H 2.58312 0.053685 -1.17895 0
M  V30 22 H 1.1209 -0.984764 0.67213 0
M  V30 23 H 0.765864 0.68892 1.2195 0
M  V30 24 H -0.708134 -1.32258 1.488 0
M  V30 25 H -2.95935 -2.07077 2.17374 0
M  V30 26 H -4.97714 -1.40898 0.858253 0
M  V30 27 H -4.68606 0.00289408 -1.1359 0
M  V30 28 H -2.44013 0.720284 -1.77853 0
M  V30 29 H 0.181055 2.84368 0.704624 0
M  V30 30 H -0.208977 -0.0777463 -2.68857 0
M  V30 31 H -0.150476 -1.51446 -1.71692 0
M  V30 END ATOM
M  V30 BEGIN BOND
M  V30 1 1 1 2
M  V30 2 1 2 3
M  V30 3 1 3 4
M  V30 4 1 4 5
M  V30 5 1 5 6
M  V30 6 2 6 7
M  V30 7 1 7 8
M  V30 8 2 8 9
M  V30 9 1 9 10
M  V30 10 2 10 11
M  V30 11 1 5 12
M  V30 12 2 12 13
M  V30 13 1 12 14
M  V30 14 1 5 15
M  V30 15 1 11 6
M  V30 16 1 1 16
M  V30 17 1 1 17
M  V30 18 1 2 18
M  V30 19 1 2 19
M  V30 20 1 3 20
M  V30 21 1 3 21
M  V30 22 1 4 22
M  V30 23 1 4 23
M  V30 24 1 7 24
M  V30 25 1 8 25
M  V30 26 1 9 26
M  V30 27 1 10 27
M  V30 28 1 11 28
M  V30 29 1 14 29
M  V30 30 1 15 30
M  V30 31 1 15 31
M  V30 END BOND
M  V30 END CTAB
M  END
