
     RDKit          3D

  0  0  0  0  0  0  0  0  0  0999 V3000
M  V30 BEGIN CTAB
M  V30 COUNTS 25 26 0 0 0
M  V30 BEGIN ATOM
M  V30 1 C -1.9806 -0.0162645 0.729189 0 CFG=1
M  V30 2 C -1.53642 1.4402 0.799437 0
M  V30 3 C -0.370345 1.23112 -0.19099 0 CFG=2
M  V30 4 C -1.13358 0.588206 -1.28602 0
M  V30 5 C -2.09313 -0.155143 -0.755967 0
M  V30 6 C 0.401309 0.185529 0.577335 0 CFG=1
M  V30 7 C -0.674082 -0.713369 1.08252 0 CFG=2
M  V30 8 N -0.735492 -2.01352 0.4901 0
M  V30 9 C 1.47105 -0.429245 -0.191518 0
M  V30 10 O 1.51807 -1.65607 -0.418143 0
M  V30 11 N 2.50013 0.392992 -0.703759 0
M  V30 12 N 3.53317 -0.181858 -1.44303 0
M  V30 13 H -2.82355 -0.277141 1.2962 0
M  V30 14 H -1.17321 1.69726 1.79787 0
M  V30 15 H -2.30133 2.09535 0.384744 0
M  V30 16 H 0.152958 2.12662 -0.431664 0
M  V30 17 H -0.938031 0.707747 -2.33177 0
M  V30 18 H -2.82531 -0.753054 -1.27057 0
M  V30 19 H 0.863965 0.667835 1.47729 0
M  V30 20 H -0.653447 -0.851912 2.18575 0
M  V30 21 H -0.204003 -2.73765 1.05981 0
M  V30 22 H -1.72722 -2.34112 0.513852 0
M  V30 23 H 2.54109 1.42804 -0.563062 0
M  V30 24 H 4.0234 -0.948468 -0.937662 0
M  V30 25 H 4.16458 0.513916 -1.86995 0
M  V30 END ATOM
M  V30 BEGIN BOND
M  V30 1 1 1 2
M  V30 2 1 2 3
M  V30 3 1 3 4
M  V30 4 2 4 5
M  V30 5 1 3 6
M  V30 6 1 6 7
M  V30 7 1 7 8
M  V30 8 1 6 9
M  V30 9 2 9 10
M  V30 10 1 9 11
M  V30 11 1 11 12
M  V30 12 1 5 1
M  V30 13 1 7 1
M  V30 14 1 1 13 CFG=1
M  V30 15 1 2 14
M  V30 16 1 2 15
M  V30 17 1 3 16 CFG=3
M  V30 18 1 4 17
M  V30 19 1 5 18
M  V30 20 1 6 19 CFG=1
M  V30 21 1 7 20 CFG=1
M  V30 22 1 8 21
M  V30 23 1 8 22
M  V30 24 1 11 23
M  V30 25 1 12 24
M  V30 26 1 12 25
M  V30 END BOND
M  V30 END CTAB
M  END
