
     RDKit          3D

  0  0  0  0  0  0  0  0  0  0999 V3000
M  V30 BEGIN CTAB
M  V30 COUNTS 35 35 0 0 0
M  V30 BEGIN ATOM
M  V30 1 N 5.15424 -2.36413 1.28329 0
M  V30 2 C 4.58646 -1.1422 0.858003 0
M  V30 3 S 5.48527 0.188374 0.640897 0
M  V30 4 N 3.1791 -1.05668 0.607015 0
M  V30 5 C 2.57026 0.159882 0.177653 0
M  V30 6 C 1.07532 -0.0354129 0.0439415 0
M  V30 7 C 0.463941 1.243 -0.390403 0
M  V30 8 O 1.27241 2.1718 -0.733558 0
M  V30 9 N -0.934223 1.46838 -0.438571 0
M  V30 10 C -1.82233 0.415695 -0.0585116 0
M  V30 11 C -2.64408 0.621918 1.04313 0
M  V30 12 C -3.51793 -0.3625 1.44155 0
M  V30 13 C -3.55676 -1.5529 0.72378 0
M  V30 14 C -2.74543 -1.77683 -0.376685 0
M  V30 15 C -1.8762 -0.765554 -0.75328 0
M  V30 16 N -2.79344 -2.99945 -1.09983 0
M  V30 17 C -1.5202 2.6907 -0.828816 0
M  V30 18 O -2.79162 2.82292 -0.822472 0
M  V30 19 C -0.714528 3.85103 -1.25335 0
M  V30 20 H 5.76372 -2.86597 0.580364 0
M  V30 21 H 4.97635 -2.74404 2.24338 0
M  V30 22 H 2.56496 -1.91473 0.739935 0
M  V30 23 H 2.7015 0.951128 0.956935 0
M  V30 24 H 2.91303 0.525234 -0.816786 0
M  V30 25 H 0.93636 -0.856959 -0.694267 0
M  V30 26 H 0.69214 -0.318428 1.06218 0
M  V30 27 H -2.61405 1.56172 1.61017 0
M  V30 28 H -4.17133 -0.196151 2.31153 0
M  V30 29 H -4.25057 -2.33878 1.03623 0
M  V30 30 H -1.25459 -0.95 -1.61203 0
M  V30 31 H -2.4235 -3.01758 -2.07142 0
M  V30 32 H -3.17746 -3.88574 -0.716021 0
M  V30 33 H -1.36877 4.72764 -1.49246 0
M  V30 34 H -0.00412846 4.21547 -0.488618 0
M  V30 35 H -0.153898 3.52912 -2.17157 0
M  V30 END ATOM
M  V30 BEGIN BOND
M  V30 1 1 1 2
M  V30 2 2 2 3
M  V30 3 1 2 4
M  V30 4 1 4 5
M  V30 5 1 5 6
M  V30 6 1 6 7
M  V30 7 2 7 8
M  V30 8 1 7 9
M  V30 9 1 9 10
M  V30 10 2 10 11
M  V30 11 1 11 12
M  V30 12 2 12 13
M  V30 13 1 13 14
M  V30 14 2 14 15
M  V30 15 1 14 16
M  V30 16 1 9 17
M  V30 17 2 17 18
M  V30 18 1 17 19
M  V30 19 1 15 10
M  V30 20 1 1 20
M  V30 21 1 1 21
M  V30 22 1 4 22
M  V30 23 1 5 23
M  V30 24 1 5 24
M  V30 25 1 6 25
M  V30 26 1 6 26
M  V30 27 1 11 27
M  V30 28 1 12 28
M  V30 29 1 13 29
M  V30 30 1 15 30
M  V30 31 1 16 31
M  V30 32 1 16 32
M  V30 33 1 19 33
M  V30 34 1 19 34
M  V30 35 1 19 35
M  V30 END BOND
M  V30 END CTAB
M  END
