
     RDKit          3D

  0  0  0  0  0  0  0  0  0  0999 V3000
M  V30 BEGIN CTAB
M  V30 COUNTS 36 38 0 0 0
M  V30 BEGIN ATOM
M  V30 1 N 3.89036 2.26689 -0.260917 0
M  V30 2 C 3.02679 1.24347 0.222123 0
M  V30 3 C 3.0855 0.902341 1.55864 0
M  V30 4 C 2.25211 -0.0847585 2.02318 0
M  V30 5 C 1.38429 -0.6976 1.12314 0
M  V30 6 C 1.32599 -0.358814 -0.204666 0
M  V30 7 N 2.17564 0.627916 -0.61257 0
M  V30 8 C 0.411296 -1.0004 -1.18325 0 CFG=2
M  V30 9 C 0.31614 -0.0472016 -2.41067 0
M  V30 10 N -0.256473 1.18887 -1.92088 0
M  V30 11 C -1.27111 1.19132 -0.929577 0
M  V30 12 C -1.61664 0.00528426 -0.300175 0
M  V30 13 N -0.931807 -1.19433 -0.67628 0
M  V30 14 S -1.65867 -2.71861 -0.550601 0
M  V30 15 O -3.11665 -2.72541 -0.261166 0
M  V30 16 O -1.5566 -3.41422 -1.93081 0
M  V30 17 N -0.845558 -3.80688 0.518019 0
M  V30 18 C -2.59656 -0.011525 0.668335 0
M  V30 19 C -3.27232 1.12318 1.05475 0
M  V30 20 C -2.94167 2.31003 0.438601 0
M  V30 21 C -1.96204 2.32809 -0.528853 0
M  V30 22 H 4.93139 2.1952 -0.261689 0
M  V30 23 H 3.49624 3.1665 -0.649275 0
M  V30 24 H 3.7933 1.42194 2.2269 0
M  V30 25 H 2.30622 -0.343593 3.06979 0
M  V30 26 H 0.744442 -1.4613 1.51066 0
M  V30 27 H 0.880618 -1.91908 -1.57707 0
M  V30 28 H -0.325156 -0.539287 -3.15985 0
M  V30 29 H 1.35373 0.104262 -2.73474 0
M  V30 30 H 0.0643072 2.12178 -2.28696 0
M  V30 31 H -1.23162 -4.74629 0.36505 0
M  V30 32 H 0.172718 -3.72395 0.486896 0
M  V30 33 H -2.85198 -0.939327 1.16133 0
M  V30 34 H -4.04302 1.06982 1.82579 0
M  V30 35 H -3.45559 3.21505 0.721836 0
M  V30 36 H -1.67761 3.25064 -1.03449 0
M  V30 END ATOM
M  V30 BEGIN BOND
M  V30 1 1 1 2
M  V30 2 2 2 3
M  V30 3 1 3 4
M  V30 4 2 4 5
M  V30 5 1 5 6
M  V30 6 2 6 7
M  V30 7 1 6 8
M  V30 8 1 8 9
M  V30 9 1 9 10
M  V30 10 1 10 11
M  V30 11 2 11 12
M  V30 12 1 12 13
M  V30 13 1 13 14
M  V30 14 2 14 15
M  V30 15 2 14 16
M  V30 16 1 14 17
M  V30 17 1 12 18
M  V30 18 2 18 19
M  V30 19 1 19 20
M  V30 20 2 20 21
M  V30 21 1 7 2
M  V30 22 1 13 8
M  V30 23 1 21 11
M  V30 24 1 1 22
M  V30 25 1 1 23
M  V30 26 1 3 24
M  V30 27 1 4 25
M  V30 28 1 5 26
M  V30 29 1 8 27 CFG=3
M  V30 30 1 9 28
M  V30 31 1 9 29
M  V30 32 1 10 30
M  V30 33 1 17 31
M  V30 34 1 17 32
M  V30 35 1 18 33
M  V30 36 1 19 34
M  V30 37 1 20 35
M  V30 38 1 21 36
M  V30 END BOND
M  V30 END CTAB
M  END
