
     RDKit          3D

  0  0  0  0  0  0  0  0  0  0999 V3000
M  V30 BEGIN CTAB
M  V30 COUNTS 26 27 0 0 0
M  V30 BEGIN ATOM
M  V30 1 N -3.76997 1.31036 0.768615 0
M  V30 2 C -2.70244 0.475345 0.346014 0
M  V30 3 N -2.95224 -0.794603 -0.0194717 0
M  V30 4 C -1.93666 -1.58264 -0.419513 0
M  V30 5 N -2.28656 -2.92013 -0.79159 0
M  V30 6 N -0.668017 -1.14341 -0.468077 0
M  V30 7 C -0.36705 0.118446 -0.11273 0
M  V30 8 C -1.39878 0.921189 0.294361 0
M  V30 9 N 0.979305 0.607623 -0.157014 0
M  V30 10 C 1.58099 1.89024 0.160238 0
M  V30 11 C 2.8481 1.10391 0.526101 0
M  V30 12 C 2.28505 0.139098 -0.498641 0
M  V30 13 C 2.58578 -1.29753 -0.288286 0
M  V30 14 H -3.91606 1.59026 1.76514 0
M  V30 15 H -4.47951 1.69634 0.0915834 0
M  V30 16 H -2.17595 -3.27732 -1.76405 0
M  V30 17 H -2.67283 -3.58293 -0.0651731 0
M  V30 18 H -1.19869 1.96107 0.594313 0
M  V30 19 H 1.8371 2.50367 -0.749027 0
M  V30 20 H 1.13421 2.44658 0.985469 0
M  V30 21 H 3.77713 1.60991 0.245316 0
M  V30 22 H 2.819 0.765789 1.56486 0
M  V30 23 H 2.60192 0.492964 -1.51752 0
M  V30 24 H 1.97343 -1.81267 0.447166 0
M  V30 25 H 3.68956 -1.39519 -0.109995 0
M  V30 26 H 2.41319 -1.82636 -1.26933 0
M  V30 END ATOM
M  V30 BEGIN BOND
M  V30 1 1 1 2
M  V30 2 2 2 3
M  V30 3 1 3 4
M  V30 4 1 4 5
M  V30 5 2 4 6
M  V30 6 1 6 7
M  V30 7 2 7 8
M  V30 8 1 7 9
M  V30 9 1 9 10
M  V30 10 1 10 11
M  V30 11 1 11 12
M  V30 12 1 12 13
M  V30 13 1 8 2
M  V30 14 1 12 9
M  V30 15 1 1 14
M  V30 16 1 1 15
M  V30 17 1 5 16
M  V30 18 1 5 17
M  V30 19 1 8 18
M  V30 20 1 10 19
M  V30 21 1 10 20
M  V30 22 1 11 21
M  V30 23 1 11 22
M  V30 24 1 12 23
M  V30 25 1 13 24
M  V30 26 1 13 25
M  V30 27 1 13 26
M  V30 END BOND
M  V30 END CTAB
M  END
