
     RDKit          3D

  0  0  0  0  0  0  0  0  0  0999 V3000
M  V30 BEGIN CTAB
M  V30 COUNTS 40 40 0 0 0
M  V30 BEGIN ATOM
M  V30 1 N -3.83714 -1.51664 -1.07789 0
M  V30 2 C -3.0117 -0.375333 -1.41099 0
M  V30 3 C -2.61155 0.346214 -0.149753 0
M  V30 4 C -1.82057 -0.4034 0.83013 0
M  V30 5 N -0.512511 -0.903428 0.382559 0
M  V30 6 C 0.608925 -0.0971753 0.580498 0
M  V30 7 O 0.383668 1.03774 1.23221 0
M  V30 8 C 1.98827 -0.230111 0.22398 0
M  V30 9 C 2.49774 -1.23776 -0.542042 0
M  V30 10 C 3.85144 -1.31465 -0.896645 0
M  V30 11 F 4.30249 -2.33122 -1.65416 0
M  V30 12 C 4.71966 -0.357416 -0.474598 0
M  V30 13 C 4.2633 0.685456 0.301201 0
M  V30 14 C 2.90726 0.72522 0.632954 0
M  V30 15 N 2.467 1.79928 1.42987 0
M  V30 16 N 5.11281 1.71461 0.773411 0 CHG=1
M  V30 17 O 4.86376 2.24913 1.85991 0
M  V30 18 O 6.19818 2.13354 0.0642649 0 CHG=-1
M  V30 19 C -0.485706 -2.21331 -0.165038 0
M  V30 20 C -3.91723 0.757158 0.583969 0
M  V30 21 C -2.02153 1.66712 -0.591383 0
M  V30 22 H -3.74525 -2.27181 -1.77916 0
M  V30 23 H -4.80587 -1.25072 -0.857382 0
M  V30 24 H -3.62658 0.268657 -2.07368 0
M  V30 25 H -2.14612 -0.693874 -2.01294 0
M  V30 26 H -2.36324 -1.27489 1.27199 0
M  V30 27 H -1.66822 0.273659 1.72645 0
M  V30 28 H 1.89141 -2.02715 -0.938393 0
M  V30 29 H 5.78009 -0.347009 -0.706845 0
M  V30 30 H 2.19556 2.69006 0.918136 0
M  V30 31 H 2.38165 1.80999 2.45215 0
M  V30 32 H -1.4384 -2.79128 0.0638966 0
M  V30 33 H 0.276051 -2.863 0.369202 0
M  V30 34 H -0.401314 -2.23184 -1.25244 0
M  V30 35 H -3.54236 1.22635 1.53652 0
M  V30 36 H -4.47989 1.47822 -0.0337535 0
M  V30 37 H -4.45425 -0.16035 0.829963 0
M  V30 38 H -2.78981 2.12542 -1.27074 0
M  V30 39 H -1.93326 2.36573 0.248482 0
M  V30 40 H -1.07679 1.53882 -1.15946 0
M  V30 END ATOM
M  V30 BEGIN BOND
M  V30 1 1 1 2
M  V30 2 1 2 3
M  V30 3 1 3 4
M  V30 4 1 4 5
M  V30 5 1 5 6
M  V30 6 2 6 7
M  V30 7 1 6 8
M  V30 8 2 8 9
M  V30 9 1 9 10
M  V30 10 1 10 11
M  V30 11 2 10 12
M  V30 12 1 12 13
M  V30 13 2 13 14
M  V30 14 1 14 15
M  V30 15 1 13 16
M  V30 16 2 16 17
M  V30 17 1 16 18
M  V30 18 1 5 19
M  V30 19 1 3 20
M  V30 20 1 3 21
M  V30 21 1 14 8
M  V30 22 1 1 22
M  V30 23 1 1 23
M  V30 24 1 2 24
M  V30 25 1 2 25
M  V30 26 1 4 26
M  V30 27 1 4 27
M  V30 28 1 9 28
M  V30 29 1 12 29
M  V30 30 1 15 30
M  V30 31 1 15 31
M  V30 32 1 19 32
M  V30 33 1 19 33
M  V30 34 1 19 34
M  V30 35 1 20 35
M  V30 36 1 20 36
M  V30 37 1 20 37
M  V30 38 1 21 38
M  V30 39 1 21 39
M  V30 40 1 21 40
M  V30 END BOND
M  V30 END CTAB
M  END
