
     RDKit          3D

  0  0  0  0  0  0  0  0  0  0999 V3000
M  V30 BEGIN CTAB
M  V30 COUNTS 23 23 0 0 0
M  V30 BEGIN ATOM
M  V30 1 O -4.12098 1.36193 -0.541093 0
M  V30 2 C -3.13824 0.386416 -0.482221 0
M  V30 3 O -2.46286 0.156058 -1.50617 0
M  V30 4 C -2.89599 -0.36295 0.763206 0
M  V30 5 O -1.81405 -1.20396 0.637147 0
M  V30 6 C -0.49517 -0.930737 0.415282 0
M  V30 7 C 0.429719 -1.95259 0.300845 0
M  V30 8 C 1.76753 -1.72602 0.0802247 0
M  V30 9 C 2.2512 -0.439698 -0.0384568 0
M  V30 10 C 1.3444 0.592574 0.073011 0
M  V30 11 C 0.00045392 0.34 0.295676 0
M  V30 12 N 1.83852 1.93987 -0.0492931 0
M  V30 13 N 3.62711 -0.188761 -0.266178 0
M  V30 14 H -3.83424 2.31237 -0.349085 0
M  V30 15 H -2.84466 0.3147 1.65128 0
M  V30 16 H -3.83299 -0.968889 0.935825 0
M  V30 17 H 0.0566165 -2.96335 0.392998 0
M  V30 18 H 2.46762 -2.57481 -0.00396478 0
M  V30 19 H -0.630182 1.21114 0.379249 0
M  V30 20 H 1.50118 2.67347 0.600969 0
M  V30 21 H 2.53162 2.21803 -0.773313 0
M  V30 22 H 3.97001 0.780859 -0.328011 0
M  V30 23 H 4.28339 -0.975664 -0.369719 0
M  V30 END ATOM
M  V30 BEGIN BOND
M  V30 1 1 1 2
M  V30 2 2 2 3
M  V30 3 1 2 4
M  V30 4 1 4 5
M  V30 5 1 5 6
M  V30 6 2 6 7
M  V30 7 1 7 8
M  V30 8 2 8 9
M  V30 9 1 9 10
M  V30 10 2 10 11
M  V30 11 1 10 12
M  V30 12 1 9 13
M  V30 13 1 11 6
M  V30 14 1 1 14
M  V30 15 1 4 15
M  V30 16 1 4 16
M  V30 17 1 7 17
M  V30 18 1 8 18
M  V30 19 1 11 19
M  V30 20 1 12 20
M  V30 21 1 12 21
M  V30 22 1 13 22
M  V30 23 1 13 23
M  V30 END BOND
M  V30 END CTAB
M  END
