
     RDKit          3D

  0  0  0  0  0  0  0  0  0  0999 V3000
M  V30 BEGIN CTAB
M  V30 COUNTS 34 35 0 0 0
M  V30 BEGIN ATOM
M  V30 1 N -4.30168 0.827344 1.91709 0
M  V30 2 C -3.57879 -0.413241 1.70985 0
M  V30 3 C -3.63652 -0.892606 0.302398 0
M  V30 4 N -3.0991 -0.028218 -0.690291 0
M  V30 5 C -1.72502 0.250323 -0.853887 0
M  V30 6 C -0.725856 -0.370647 -0.148815 0
M  V30 7 C 0.64311 -0.0871689 -0.343958 0
M  V30 8 N 0.896979 0.824059 -1.26 0
M  V30 9 C -0.0418903 1.46245 -1.97953 0
M  V30 10 C -1.3857 1.21007 -1.8141 0
M  V30 11 N -2.3577 1.89242 -2.58102 0
M  V30 12 N 1.58224 -0.78199 0.433626 0
M  V30 13 C 2.97362 -0.666639 0.412074 0
M  V30 14 C 3.66517 0.177957 -0.405742 0
M  V30 15 N 5.02807 0.214652 -0.348647 0
M  V30 16 C 5.72815 -0.552906 0.486907 0
M  V30 17 C 5.03018 -1.39447 1.30116 0
M  V30 18 N 3.71295 -1.43989 1.25619 0
M  V30 19 C 7.16939 -0.467333 0.499338 0
M  V30 20 N 8.31902 -0.41245 0.5132 0
M  V30 21 H -4.5484 0.997282 2.8953 0
M  V30 22 H -5.07672 0.952967 1.23208 0
M  V30 23 H -2.55861 -0.248769 2.0323 0
M  V30 24 H -4.06278 -1.17757 2.34783 0
M  V30 25 H -3.03896 -1.85583 0.281606 0
M  V30 26 H -4.67483 -1.1991 0.0242254 0
M  V30 27 H -3.79591 0.433844 -1.34853 0
M  V30 28 H -0.973834 -1.11783 0.581014 0
M  V30 29 H 0.284742 2.2004 -2.71326 0
M  V30 30 H -3.00153 1.41796 -3.26278 0
M  V30 31 H -2.46893 2.92847 -2.48912 0
M  V30 32 H 1.21524 -1.50864 1.15315 0
M  V30 33 H 3.20173 0.843102 -1.11984 0
M  V30 34 H 5.60219 -2.01801 1.98018 0
M  V30 END ATOM
M  V30 BEGIN BOND
M  V30 1 1 1 2
M  V30 2 1 2 3
M  V30 3 1 3 4
M  V30 4 1 4 5
M  V30 5 2 5 6
M  V30 6 1 6 7
M  V30 7 2 7 8
M  V30 8 1 8 9
M  V30 9 2 9 10
M  V30 10 1 10 11
M  V30 11 1 7 12
M  V30 12 1 12 13
M  V30 13 2 13 14
M  V30 14 1 14 15
M  V30 15 2 15 16
M  V30 16 1 16 17
M  V30 17 2 17 18
M  V30 18 1 16 19
M  V30 19 3 19 20
M  V30 20 1 10 5
M  V30 21 1 18 13
M  V30 22 1 1 21
M  V30 23 1 1 22
M  V30 24 1 2 23
M  V30 25 1 2 24
M  V30 26 1 3 25
M  V30 27 1 3 26
M  V30 28 1 4 27
M  V30 29 1 6 28
M  V30 30 1 9 29
M  V30 31 1 11 30
M  V30 32 1 11 31
M  V30 33 1 12 32
M  V30 34 1 14 33
M  V30 35 1 17 34
M  V30 END BOND
M  V30 END CTAB
M  END
