
     RDKit          3D

  0  0  0  0  0  0  0  0  0  0999 V3000
M  V30 BEGIN CTAB
M  V30 COUNTS 39 40 0 0 0
M  V30 BEGIN ATOM
M  V30 1 N 1.42797 -5.59995 0.654812 0
M  V30 2 C 1.0645 -4.50674 0.546096 0
M  V30 3 C 0.621685 -3.06789 0.402829 0
M  V30 4 C -0.655796 -2.859 0.387618 0
M  V30 5 N -1.3252 -1.64236 0.266925 0
M  V30 6 C -2.77121 -1.7393 0.282357 0
M  V30 7 O -3.36807 -2.82239 0.394385 0
M  V30 8 C -3.51365 -0.492888 0.156368 0
M  V30 9 C -3.00833 0.739268 0.528656 0
M  V30 10 C -3.76482 1.9058 0.36739 0
M  V30 11 C -5.03697 1.8884 -0.163984 0
M  V30 12 C -5.53762 0.651695 -0.534777 0
M  V30 13 C -4.78664 -0.492399 -0.372923 0
M  V30 14 N -5.80814 3.06688 -0.329795 0
M  V30 15 C 1.62465 -2.07184 0.306582 0
M  V30 16 O 2.82745 -2.64273 0.342662 0
M  V30 17 N 1.62899 -0.691374 0.188654 0
M  V30 18 C 2.87941 0.0360894 0.0926939 0
M  V30 19 C 2.98471 1.23634 0.751892 0
M  V30 20 C 4.15433 2.00252 0.664599 0
M  V30 21 C 5.21989 1.52625 -0.107324 0
M  V30 22 C 5.06609 0.32283 -0.746691 0
M  V30 23 C 3.89441 -0.44088 -0.657657 0
M  V30 24 Cl 6.4095 -0.258882 -1.70886 0
M  V30 25 N 6.41559 2.29276 -0.205745 0
M  V30 26 H -1.28775 -3.78203 0.484612 0
M  V30 27 H -0.927604 -0.705322 0.164874 0
M  V30 28 H -2.01023 0.793815 0.954108 0
M  V30 29 H -3.33062 2.85456 0.672693 0
M  V30 30 H -6.5404 0.642918 -0.952923 0
M  V30 31 H -5.20007 -1.46051 -0.672132 0
M  V30 32 H -6.34222 3.44846 0.468046 0
M  V30 33 H -5.8514 3.56203 -1.24013 0
M  V30 34 H 0.808544 -0.0596245 0.159662 0
M  V30 35 H 2.19876 1.65108 1.35869 0
M  V30 36 H 4.26346 2.94859 1.17214 0
M  V30 37 H 3.88727 -1.37879 -1.23728 0
M  V30 38 H 6.72488 2.83687 0.615133 0
M  V30 39 H 6.96464 2.30775 -1.07564 0
M  V30 END ATOM
M  V30 BEGIN BOND
M  V30 1 3 1 2
M  V30 2 1 2 3
M  V30 3 2 3 4
M  V30 4 1 4 5
M  V30 5 1 5 6
M  V30 6 2 6 7
M  V30 7 1 6 8
M  V30 8 2 8 9
M  V30 9 1 9 10
M  V30 10 2 10 11
M  V30 11 1 11 12
M  V30 12 2 12 13
M  V30 13 1 11 14
M  V30 14 1 3 15
M  V30 15 2 15 16
M  V30 16 1 15 17
M  V30 17 1 17 18
M  V30 18 2 18 19
M  V30 19 1 19 20
M  V30 20 2 20 21
M  V30 21 1 21 22
M  V30 22 2 22 23
M  V30 23 1 22 24
M  V30 24 1 21 25
M  V30 25 1 13 8
M  V30 26 1 23 18
M  V30 27 1 4 26
M  V30 28 1 5 27
M  V30 29 1 9 28
M  V30 30 1 10 29
M  V30 31 1 12 30
M  V30 32 1 13 31
M  V30 33 1 14 32
M  V30 34 1 14 33
M  V30 35 1 17 34
M  V30 36 1 19 35
M  V30 37 1 20 36
M  V30 38 1 23 37
M  V30 39 1 25 38
M  V30 40 1 25 39
M  V30 END BOND
M  V30 END CTAB
M  END
