
     RDKit          3D

  0  0  0  0  0  0  0  0  0  0999 V3000
M  V30 BEGIN CTAB
M  V30 COUNTS 29 30 0 0 0
M  V30 BEGIN ATOM
M  V30 1 N -2.56316 0.197005 2.20903 0
M  V30 2 C -2.77312 0.802626 0.907188 0 CFG=2
M  V30 3 C -3.49604 -0.157225 0.0363024 0
M  V30 4 C -2.91204 -0.890747 -0.89983 0
M  V30 5 C -1.4544 -0.835193 -1.18654 0
M  V30 6 C -0.784972 -0.311397 0.0619544 0 CFG=2
M  V30 7 C -1.37686 1.0575 0.332201 0
M  V30 8 C 0.694785 -0.176131 -0.128846 0
M  V30 9 N 1.66019 -0.768067 0.56119 0
M  V30 10 N 2.8545 -0.424034 0.125957 0
M  V30 11 C 2.6413 0.437998 -0.902165 0
M  V30 12 N 1.29336 0.588988 -1.05672 0
M  V30 13 N 3.63431 1.07488 -1.68417 0
M  V30 14 C 4.17257 -0.824519 0.579864 0
M  V30 15 H -3.07864 -0.727235 2.27173 0
M  V30 16 H -2.7848 0.818532 2.99616 0
M  V30 17 H -3.34589 1.75045 0.973111 0
M  V30 18 H -4.57976 -0.235695 0.20908 0
M  V30 19 H -3.53223 -1.55994 -1.47932 0
M  V30 20 H -1.29658 -0.0684555 -1.98085 0
M  V30 21 H -1.05135 -1.81197 -1.50533 0
M  V30 22 H -1.01568 -1.00255 0.894066 0
M  V30 23 H -0.776126 1.66343 1.01532 0
M  V30 24 H -1.5297 1.58463 -0.650934 0
M  V30 25 H 4.33605 0.538205 -2.22432 0
M  V30 26 H 3.66425 2.1088 -1.72057 0
M  V30 27 H 4.07691 -1.89131 0.92641 0
M  V30 28 H 4.92277 -0.698634 -0.198188 0
M  V30 29 H 4.40037 -0.239941 1.5182 0
M  V30 END ATOM
M  V30 BEGIN BOND
M  V30 1 1 1 2
M  V30 2 1 2 3
M  V30 3 2 3 4
M  V30 4 1 4 5
M  V30 5 1 5 6
M  V30 6 1 6 7
M  V30 7 1 6 8
M  V30 8 2 8 9
M  V30 9 1 9 10
M  V30 10 1 10 11
M  V30 11 2 11 12
M  V30 12 1 11 13
M  V30 13 1 10 14
M  V30 14 1 7 2
M  V30 15 1 12 8
M  V30 16 1 1 15
M  V30 17 1 1 16
M  V30 18 1 2 17 CFG=1
M  V30 19 1 3 18
M  V30 20 1 4 19
M  V30 21 1 5 20
M  V30 22 1 5 21
M  V30 23 1 6 22 CFG=1
M  V30 24 1 7 23
M  V30 25 1 7 24
M  V30 26 1 13 25
M  V30 27 1 13 26
M  V30 28 1 14 27
M  V30 29 1 14 28
M  V30 30 1 14 29
M  V30 END BOND
M  V30 END CTAB
M  END
