
     RDKit          3D

  0  0  0  0  0  0  0  0  0  0999 V3000
M  V30 BEGIN CTAB
M  V30 COUNTS 23 23 0 0 0
M  V30 BEGIN ATOM
M  V30 1 N 3.6691 0.030141 -0.28277 0
M  V30 2 C 2.61608 0.628818 -1.1037 0
M  V30 3 C 1.26965 0.336276 -0.573868 0
M  V30 4 C 0.599874 -0.788598 -0.990666 0
M  V30 5 C -0.660968 -1.0012 -0.451941 0
M  V30 6 C -1.2619 -0.176282 0.448269 0
M  V30 7 C -0.56647 0.959816 0.858898 0
M  V30 8 C 0.683328 1.20875 0.351423 0
M  V30 9 N -1.15475 1.8483 1.79638 0
M  V30 10 O -2.50675 -0.344913 1.00884 0
M  V30 11 C -3.33326 -1.41873 0.712789 0
M  V30 12 F -3.6247 -2.14054 1.88038 0
M  V30 13 F -4.54418 -0.940219 0.201775 0
M  V30 14 H 4.50987 -0.0373545 -0.890116 0
M  V30 15 H 3.34931 -0.939234 -0.0619053 0
M  V30 16 H 2.84234 1.69588 -1.19831 0
M  V30 17 H 2.71794 0.166644 -2.11049 0
M  V30 18 H 1.00106 -1.48767 -1.69472 0
M  V30 19 H -1.19818 -1.90217 -0.785371 0
M  V30 20 H 1.24203 2.10078 0.666928 0
M  V30 21 H -2.17074 1.98663 1.8506 0
M  V30 22 H -0.523232 2.36137 2.43414 0
M  V30 23 H -2.95546 -2.14649 0.00149314 0
M  V30 END ATOM
M  V30 BEGIN BOND
M  V30 1 1 1 2
M  V30 2 1 2 3
M  V30 3 2 3 4
M  V30 4 1 4 5
M  V30 5 2 5 6
M  V30 6 1 6 7
M  V30 7 2 7 8
M  V30 8 1 7 9
M  V30 9 1 6 10
M  V30 10 1 10 11
M  V30 11 1 11 12
M  V30 12 1 11 13
M  V30 13 1 8 3
M  V30 14 1 1 14
M  V30 15 1 1 15
M  V30 16 1 2 16
M  V30 17 1 2 17
M  V30 18 1 4 18
M  V30 19 1 5 19
M  V30 20 1 8 20
M  V30 21 1 9 21
M  V30 22 1 9 22
M  V30 23 1 11 23
M  V30 END BOND
M  V30 END CTAB
M  END
