
     RDKit          3D

  0  0  0  0  0  0  0  0  0  0999 V3000
M  V30 BEGIN CTAB
M  V30 COUNTS 25 25 0 0 0
M  V30 BEGIN ATOM
M  V30 1 Cl -2.04971 3.39604 -0.612088 0
M  V30 2 C -2.42363 1.97558 0.39661 0
M  V30 3 C -2.33166 0.712443 -0.35195 0
M  V30 4 O -3.35265 0.212325 -0.894123 0
M  V30 5 C -1.07213 -0.0207154 -0.505649 0
M  V30 6 C 0.0821312 0.49171 0.0639951 0
M  V30 7 C 1.2855 -0.157786 -0.0563737 0
M  V30 8 O 2.42924 0.349277 0.506609 0
M  V30 9 C 2.56054 1.5186 1.24338 0
M  V30 10 C 1.35091 -1.35568 -0.76472 0
M  V30 11 C 0.216627 -1.87101 -1.33172 0
M  V30 12 C -0.971296 -1.20407 -1.1969 0
M  V30 13 N -2.12744 -1.75943 -1.79094 0
M  V30 14 N 2.61372 -2.01363 -0.877431 0
M  V30 15 H -3.5077 2.10683 0.69073 0
M  V30 16 H -1.81139 1.98616 1.3224 0
M  V30 17 H 0.00407529 1.4119 0.602472 0
M  V30 18 H 2.44022 1.24602 2.32994 0
M  V30 19 H 1.77342 2.27167 1.04822 0
M  V30 20 H 3.55836 2.0121 1.10171 0
M  V30 21 H 0.277213 -2.82592 -1.89534 0
M  V30 22 H -2.85429 -2.16983 -1.19421 0
M  V30 23 H -2.22888 -1.74824 -2.81315 0
M  V30 24 H 3.39481 -1.68047 -1.46683 0
M  V30 25 H 2.74399 -2.8839 -0.324243 0
M  V30 END ATOM
M  V30 BEGIN BOND
M  V30 1 1 1 2
M  V30 2 1 2 3
M  V30 3 2 3 4
M  V30 4 1 3 5
M  V30 5 2 5 6
M  V30 6 1 6 7
M  V30 7 1 7 8
M  V30 8 1 8 9
M  V30 9 2 7 10
M  V30 10 1 10 11
M  V30 11 2 11 12
M  V30 12 1 12 13
M  V30 13 1 10 14
M  V30 14 1 12 5
M  V30 15 1 2 15
M  V30 16 1 2 16
M  V30 17 1 6 17
M  V30 18 1 9 18
M  V30 19 1 9 19
M  V30 20 1 9 20
M  V30 21 1 11 21
M  V30 22 1 13 22
M  V30 23 1 13 23
M  V30 24 1 14 24
M  V30 25 1 14 25
M  V30 END BOND
M  V30 END CTAB
M  END
