
     RDKit          3D

  0  0  0  0  0  0  0  0  0  0999 V3000
M  V30 BEGIN CTAB
M  V30 COUNTS 50 52 0 0 0
M  V30 BEGIN ATOM
M  V30 1 O -0.540405 0.662063 -1.22236 0
M  V30 2 C -0.649154 -0.0041726 -0.195979 0
M  V30 3 C -2.00218 -0.144307 0.411201 0
M  V30 4 N -1.98148 -0.935926 1.58824 0
M  V30 5 C -3.10722 -0.406591 -0.574286 0
M  V30 6 C -4.1843 -1.32887 -0.149828 0
M  V30 7 C -5.57125 -0.884012 -0.480203 0
M  V30 8 C -5.66974 0.525064 -0.964853 0
M  V30 9 O -4.76756 1.32508 -0.286443 0
M  V30 10 C -3.4531 1.04199 -0.554569 0
M  V30 11 C -2.6002 1.21522 0.669533 0
M  V30 12 C -1.59357 2.32708 0.61401 0
M  V30 13 C -3.41402 1.32082 1.94558 0
M  V30 14 N 0.438661 -0.635843 0.426819 0
M  V30 15 C 1.79308 -0.6191 0.0147729 0
M  V30 16 C 2.27521 0.311546 -0.872159 0
M  V30 17 C 3.61913 0.237707 -1.24032 0
M  V30 18 C 4.46874 -0.715708 -0.757285 0
M  V30 19 C 3.96019 -1.6278 0.124074 0
M  V30 20 C 2.65714 -1.59701 0.512883 0
M  V30 21 C 5.89657 -0.815618 -1.13107 0
M  V30 22 S 6.93693 0.122849 -0.0511045 0
M  V30 23 O 6.58471 1.56369 -0.112421 0
M  V30 24 O 6.85894 -0.431973 1.34278 0
M  V30 25 N 8.56479 -0.0728448 -0.586397 0
M  V30 26 H -1.76577 -1.94425 1.44085 0
M  V30 27 H -2.69815 -0.738744 2.293 0
M  V30 28 H -2.65675 -0.689974 -1.57075 0
M  V30 29 H -4.01954 -2.31601 -0.675641 0
M  V30 30 H -4.11169 -1.57797 0.932743 0
M  V30 31 H -6.22663 -0.961456 0.432048 0
M  V30 32 H -6.06897 -1.54206 -1.23583 0
M  V30 33 H -5.55384 0.551936 -2.06256 0
M  V30 34 H -6.69224 0.922952 -0.71867 0
M  V30 35 H -3.00072 1.64366 -1.39773 0
M  V30 36 H -1.587 2.75338 -0.410268 0
M  V30 37 H -1.80773 3.15868 1.3138 0
M  V30 38 H -0.607869 1.90603 0.905838 0
M  V30 39 H -2.74769 1.28457 2.82715 0
M  V30 40 H -3.85357 2.35949 1.93244 0
M  V30 41 H -4.23142 0.572859 1.98971 0
M  V30 42 H 0.27153 -1.20451 1.32951 0
M  V30 43 H 1.69873 1.09511 -1.29281 0
M  V30 44 H 3.97671 0.971078 -1.93274 0
M  V30 45 H 4.62376 -2.4071 0.528991 0
M  V30 46 H 2.2721 -2.32195 1.20559 0
M  V30 47 H 6.18658 -1.87619 -1.09363 0
M  V30 48 H 6.01188 -0.426319 -2.15184 0
M  V30 49 H 9.18869 -0.427728 0.157902 0
M  V30 50 H 8.87966 0.781176 -1.06504 0
M  V30 END ATOM
M  V30 BEGIN BOND
M  V30 1 2 1 2
M  V30 2 1 2 3
M  V30 3 1 3 4
M  V30 4 1 3 5
M  V30 5 1 5 6
M  V30 6 1 6 7
M  V30 7 1 7 8
M  V30 8 1 8 9
M  V30 9 1 9 10
M  V30 10 1 10 11
M  V30 11 1 11 12
M  V30 12 1 11 13
M  V30 13 1 2 14
M  V30 14 1 14 15
M  V30 15 2 15 16
M  V30 16 1 16 17
M  V30 17 2 17 18
M  V30 18 1 18 19
M  V30 19 2 19 20
M  V30 20 1 18 21
M  V30 21 1 21 22
M  V30 22 2 22 23
M  V30 23 2 22 24
M  V30 24 1 22 25
M  V30 25 1 11 3
M  V30 26 1 20 15
M  V30 27 1 10 5
M  V30 28 1 4 26
M  V30 29 1 4 27
M  V30 30 1 5 28
M  V30 31 1 6 29
M  V30 32 1 6 30
M  V30 33 1 7 31
M  V30 34 1 7 32
M  V30 35 1 8 33
M  V30 36 1 8 34
M  V30 37 1 10 35
M  V30 38 1 12 36
M  V30 39 1 12 37
M  V30 40 1 12 38
M  V30 41 1 13 39
M  V30 42 1 13 40
M  V30 43 1 13 41
M  V30 44 1 14 42
M  V30 45 1 16 43
M  V30 46 1 17 44
M  V30 47 1 19 45
M  V30 48 1 20 46
M  V30 49 1 21 47
M  V30 50 1 21 48
M  V30 51 1 25 49
M  V30 52 1 25 50
M  V30 END BOND
M  V30 END CTAB
M  END
