
     RDKit          3D

  0  0  0  0  0  0  0  0  0  0999 V3000
M  V30 BEGIN CTAB
M  V30 COUNTS 52 54 0 0 0
M  V30 BEGIN ATOM
M  V30 1 C -0.397092 -2.58084 -2.20605 0
M  V30 2 C -0.467532 -1.74866 -0.8871 0
M  V30 3 N -0.303162 -0.374883 -1.1578 0
M  V30 4 C 0.929109 0.109055 -1.60618 0
M  V30 5 C 2.12767 0.248811 -0.789977 0
M  V30 6 C 3.25117 0.838866 -1.66225 0
M  V30 7 O 2.04353 1.14481 0.325554 0
M  V30 8 C 3.33157 1.02499 0.895053 0
M  V30 9 C 3.80784 -0.245797 0.672709 0
M  V30 10 C 2.7127 -0.941672 -0.0969697 0
M  V30 11 C 5.01952 -0.638078 1.10929 0
M  V30 12 N 5.53875 -1.96496 0.893174 0
M  V30 13 N 5.77317 0.257448 1.78227 0
M  V30 14 C 5.35362 1.53308 2.03266 0
M  V30 15 N 4.14042 1.87211 1.57815 0
M  V30 16 N 6.18619 2.43384 2.74396 0
M  V30 17 C -1.39208 0.334602 -1.67696 0
M  V30 18 C -2.58661 0.710297 -0.942288 0
M  V30 19 C -3.39992 -0.371634 -0.300772 0
M  V30 20 C -4.66017 0.168236 0.302274 0
M  V30 21 C -4.68771 0.634788 1.58949 0
M  V30 22 C -5.89111 1.11566 2.0888 0
M  V30 23 C -7.05595 1.14189 1.3434 0
M  V30 24 C -6.99287 0.663633 0.04831 0
M  V30 25 C -5.80766 0.187627 -0.451793 0
M  V30 26 H 0.563576 -2.44827 -2.69928 0
M  V30 27 H -0.479821 -3.63135 -1.86892 0
M  V30 28 H -1.29447 -2.37683 -2.83682 0
M  V30 29 H 0.362142 -2.15269 -0.304535 0
M  V30 30 H -1.38485 -2.10137 -0.440404 0
M  V30 31 H 0.714081 1.17481 -2.00213 0
M  V30 32 H 1.27028 -0.379372 -2.5776 0
M  V30 33 H 2.95792 1.87142 -1.96514 0
M  V30 34 H 3.30369 0.153218 -2.55238 0
M  V30 35 H 4.19084 0.803357 -1.10561 0
M  V30 36 H 3.09264 -1.70564 -0.763463 0
M  V30 37 H 2.06512 -1.33634 0.743009 0
M  V30 38 H 5.67992 -2.60216 1.69953 0
M  V30 39 H 5.76771 -2.27453 -0.0603888 0
M  V30 40 H 7.15228 2.57796 2.42863 0
M  V30 41 H 5.81526 2.92958 3.56031 0
M  V30 42 H -0.956958 1.26574 -2.18544 0
M  V30 43 H -1.74435 -0.255928 -2.59982 0
M  V30 44 H -2.43378 1.5729 -0.219841 0
M  V30 45 H -3.29783 1.19403 -1.69141 0
M  V30 46 H -2.87322 -0.813713 0.585289 0
M  V30 47 H -3.67279 -1.14311 -1.02046 0
M  V30 48 H -3.78219 0.626333 2.20185 0
M  V30 49 H -5.92489 1.49286 3.11285 0
M  V30 50 H -7.98751 1.51898 1.75086 0
M  V30 51 H -7.89218 0.674663 -0.549225 0
M  V30 52 H -5.78402 -0.187751 -1.48925 0
M  V30 END ATOM
M  V30 BEGIN BOND
M  V30 1 1 1 2
M  V30 2 1 2 3
M  V30 3 1 3 4
M  V30 4 1 4 5
M  V30 5 1 5 6
M  V30 6 1 5 7
M  V30 7 1 7 8
M  V30 8 2 8 9
M  V30 9 1 9 10
M  V30 10 1 9 11
M  V30 11 1 11 12
M  V30 12 2 11 13
M  V30 13 1 13 14
M  V30 14 2 14 15
M  V30 15 1 14 16
M  V30 16 1 3 17
M  V30 17 1 17 18
M  V30 18 1 18 19
M  V30 19 1 19 20
M  V30 20 2 20 21
M  V30 21 1 21 22
M  V30 22 2 22 23
M  V30 23 1 23 24
M  V30 24 2 24 25
M  V30 25 1 10 5
M  V30 26 1 25 20
M  V30 27 1 15 8
M  V30 28 1 1 26
M  V30 29 1 1 27
M  V30 30 1 1 28
M  V30 31 1 2 29
M  V30 32 1 2 30
M  V30 33 1 4 31
M  V30 34 1 4 32
M  V30 35 1 6 33
M  V30 36 1 6 34
M  V30 37 1 6 35
M  V30 38 1 10 36
M  V30 39 1 10 37
M  V30 40 1 12 38
M  V30 41 1 12 39
M  V30 42 1 16 40
M  V30 43 1 16 41
M  V30 44 1 17 42
M  V30 45 1 17 43
M  V30 46 1 18 44
M  V30 47 1 18 45
M  V30 48 1 19 46
M  V30 49 1 19 47
M  V30 50 1 21 48
M  V30 51 1 22 49
M  V30 52 1 23 50
M  V30 53 1 24 51
M  V30 54 1 25 52
M  V30 END BOND
M  V30 END CTAB
M  END
