
     RDKit          3D

  0  0  0  0  0  0  0  0  0  0999 V3000
M  V30 BEGIN CTAB
M  V30 COUNTS 45 48 0 0 0
M  V30 BEGIN ATOM
M  V30 1 N 3.38362 0.421043 -2.94135 0
M  V30 2 C 3.30658 -0.0621841 -1.62345 0
M  V30 3 C 4.14418 0.388332 -0.680764 0
M  V30 4 C 5.09466 1.38836 -1.04925 0
M  V30 5 C 5.9057 1.90479 -0.142531 0
M  V30 6 C 5.82494 1.41174 1.22077 0
M  V30 7 C 5.00673 0.447033 1.59818 0
M  V30 8 C 4.1342 -0.219317 0.662298 0
M  V30 9 N 2.84793 -0.649164 1.07385 0
M  V30 10 C 1.98439 -1.15441 0.0503148 0
M  V30 11 N 2.2193 -0.862304 -1.17326 0
M  V30 12 C 0.816731 -2.0147 0.374244 0
M  V30 13 S -0.0935535 -2.50003 -1.10139 0
M  V30 14 C -0.886528 -1.06828 -1.89741 0
M  V30 15 C -1.94448 -0.497101 -1.04519 0
M  V30 16 N -1.95323 0.741154 -0.758823 0
M  V30 17 C -2.99891 1.24788 0.0917615 0
M  V30 18 C -3.93293 0.483867 0.612781 0
M  V30 19 C -3.93853 -0.973125 0.374794 0
M  V30 20 N -3.0599 -1.33992 -0.66838 0
M  V30 21 C -5.20691 -1.63809 0.565804 0
M  V30 22 C -6.23787 -0.98095 1.10683 0
M  V30 23 C -6.17523 0.413056 1.49836 0
M  V30 24 C -5.08041 1.12946 1.29034 0
M  V30 25 N -3.02976 2.64204 0.387139 0
M  V30 26 H 4.12324 0.175902 -3.63126 0
M  V30 27 H 2.64301 1.08142 -3.26704 0
M  V30 28 H 5.13442 1.71227 -2.08863 0
M  V30 29 H 6.59875 2.67627 -0.454334 0
M  V30 30 H 6.48401 1.87176 1.97283 0
M  V30 31 H 5.03938 0.192202 2.6685 0
M  V30 32 H 4.68481 -1.26214 0.444575 0
M  V30 33 H 2.48533 -0.623803 2.06833 0
M  V30 34 H 1.13826 -2.94189 0.889097 0
M  V30 35 H 0.119279 -1.50119 1.09815 0
M  V30 36 H -1.30804 -1.36875 -2.89382 0
M  V30 37 H -0.129835 -0.288745 -2.09038 0
M  V30 38 H -3.29796 -1.38255 1.34386 0
M  V30 39 H -3.14615 -2.22463 -1.23363 0
M  V30 40 H -5.36353 -2.65719 0.28722 0
M  V30 41 H -7.18879 -1.51631 1.26814 0
M  V30 42 H -7.03426 0.908522 1.97683 0
M  V30 43 H -4.97914 2.15792 1.588 0
M  V30 44 H -2.4645 3.09714 1.1247 0
M  V30 45 H -3.66903 3.23459 -0.185148 0
M  V30 END ATOM
M  V30 BEGIN BOND
M  V30 1 1 1 2
M  V30 2 2 2 3
M  V30 3 1 3 4
M  V30 4 2 4 5
M  V30 5 1 5 6
M  V30 6 2 6 7
M  V30 7 1 7 8
M  V30 8 1 8 9
M  V30 9 1 9 10
M  V30 10 2 10 11
M  V30 11 1 10 12
M  V30 12 1 12 13
M  V30 13 1 13 14
M  V30 14 1 14 15
M  V30 15 2 15 16
M  V30 16 1 16 17
M  V30 17 2 17 18
M  V30 18 1 18 19
M  V30 19 1 19 20
M  V30 20 1 19 21
M  V30 21 2 21 22
M  V30 22 1 22 23
M  V30 23 2 23 24
M  V30 24 1 17 25
M  V30 25 1 11 2
M  V30 26 1 20 15
M  V30 27 1 8 3
M  V30 28 1 24 18
M  V30 29 1 1 26
M  V30 30 1 1 27
M  V30 31 1 4 28
M  V30 32 1 5 29
M  V30 33 1 6 30
M  V30 34 1 7 31
M  V30 35 1 8 32
M  V30 36 1 9 33
M  V30 37 1 12 34
M  V30 38 1 12 35
M  V30 39 1 14 36
M  V30 40 1 14 37
M  V30 41 1 19 38
M  V30 42 1 20 39
M  V30 43 1 21 40
M  V30 44 1 22 41
M  V30 45 1 23 42
M  V30 46 1 24 43
M  V30 47 1 25 44
M  V30 48 1 25 45
M  V30 END BOND
M  V30 END CTAB
M  END
