
     RDKit          3D

  0  0  0  0  0  0  0  0  0  0999 V3000
M  V30 BEGIN CTAB
M  V30 COUNTS 34 36 0 0 0
M  V30 BEGIN ATOM
M  V30 1 C -3.69708 0.778219 1.89056 0
M  V30 2 C -3.22019 0.9455 0.45259 0 CFG=1
M  V30 3 O -1.86976 1.1894 0.475608 0
M  V30 4 C -1.20149 0.144732 -0.0997637 0 CFG=2
M  V30 5 C -2.10285 -1.05778 0.214387 0 CFG=2
M  V30 6 O -1.78711 -2.16088 -0.522636 0
M  V30 7 C -3.4249 -0.410851 -0.223607 0 CFG=2
M  V30 8 O -3.36707 -0.231431 -1.58657 0
M  V30 9 N 0.136144 -0.0529114 0.345222 0
M  V30 10 C 0.525433 -0.136915 1.61442 0
M  V30 11 N 1.85996 -0.325542 1.67149 0
M  V30 12 C 2.32542 -0.36173 0.410467 0
M  V30 13 C 1.22404 -0.187564 -0.434937 0
M  V30 14 N 1.46233 -0.190554 -1.76428 0
M  V30 15 C 2.70021 -0.353051 -2.26595 0
M  V30 16 N 2.84841 -0.341489 -3.67479 0
M  V30 17 N 3.7583 -0.521129 -1.42064 0
M  V30 18 C 3.59126 -0.528089 -0.0926817 0
M  V30 19 S 4.9929 -0.748612 0.969084 0
M  V30 20 N 5.74646 0.758477 1.42047 0
M  V30 21 H -2.87224 1.04138 2.61251 0
M  V30 22 H -4.57218 1.42445 2.10758 0
M  V30 23 H -3.9845 -0.24884 2.12533 0
M  V30 24 H -3.80459 1.73917 -0.0639601 0
M  V30 25 H -1.27864 0.268363 -1.21033 0
M  V30 26 H -2.14942 -1.20008 1.29701 0
M  V30 27 H -1.38535 -2.83642 0.112453 0
M  V30 28 H -4.29319 -0.942767 0.146009 0
M  V30 29 H -4.19679 -0.461851 -2.0538 0
M  V30 30 H -0.120545 -0.0657598 2.46879 0
M  V30 31 H 3.26885 -1.1661 -4.17701 0
M  V30 32 H 2.56119 0.455851 -4.28578 0
M  V30 33 H 6.74891 0.822573 1.13662 0
M  V30 34 H 5.57806 1.03179 2.40613 0
M  V30 END ATOM
M  V30 BEGIN BOND
M  V30 1 1 1 2
M  V30 2 1 2 3
M  V30 3 1 3 4
M  V30 4 1 4 5
M  V30 5 1 5 6
M  V30 6 1 5 7
M  V30 7 1 7 8
M  V30 8 1 4 9
M  V30 9 1 9 10
M  V30 10 2 10 11
M  V30 11 1 11 12
M  V30 12 2 12 13
M  V30 13 1 13 14
M  V30 14 2 14 15
M  V30 15 1 15 16
M  V30 16 1 15 17
M  V30 17 2 17 18
M  V30 18 1 18 19
M  V30 19 1 19 20
M  V30 20 1 7 2
M  V30 21 1 13 9
M  V30 22 1 18 12
M  V30 23 1 1 21
M  V30 24 1 1 22
M  V30 25 1 1 23
M  V30 26 1 2 24 CFG=3
M  V30 27 1 4 25 CFG=3
M  V30 28 1 5 26 CFG=1
M  V30 29 1 6 27
M  V30 30 1 7 28 CFG=3
M  V30 31 1 8 29
M  V30 32 1 10 30
M  V30 33 1 16 31
M  V30 34 1 16 32
M  V30 35 1 20 33
M  V30 36 1 20 34
M  V30 END BOND
M  V30 END CTAB
M  END
