
     RDKit          3D

  0  0  0  0  0  0  0  0  0  0999 V3000
M  V30 BEGIN CTAB
M  V30 COUNTS 54 56 0 0 0
M  V30 BEGIN ATOM
M  V30 1 C -4.77053 -2.84101 -3.16607 0
M  V30 2 C -3.86212 -2.32896 -2.09611 0
M  V30 3 O -4.28077 -1.02291 -1.72655 0
M  V30 4 C -3.62603 -0.288069 -0.748326 0
M  V30 5 C -2.5314 -0.772537 -0.0730039 0
M  V30 6 C -1.86271 -0.0839661 0.891508 0
M  V30 7 N -0.752968 -0.518619 1.65048 0
M  V30 8 C -1.03918 -1.58633 2.62386 0
M  V30 9 C 0.587364 -0.0122861 1.59528 0
M  V30 10 C 1.47265 -0.466293 0.53212 0
M  V30 11 C 2.77578 0.0872633 0.419113 0
M  V30 12 C 3.18662 1.13049 1.34005 0
M  V30 13 C 3.56956 -0.42083 -0.587715 0
M  V30 14 C 3.15512 -1.41969 -1.46511 0
M  V30 15 N 1.93663 -1.91267 -1.33116 0
M  V30 16 C 1.12216 -1.44047 -0.351643 0
M  V30 17 N 4.01176 -1.85348 -2.42666 0
M  V30 18 C 5.25009 -1.37116 -2.5843 0
M  V30 19 N 6.06359 -1.90515 -3.63535 0
M  V30 20 N 5.6678 -0.417791 -1.75887 0
M  V30 21 C 4.84315 0.0537026 -0.773333 0
M  V30 22 N 5.36435 1.049 0.0426214 0
M  V30 23 C -2.33315 1.20749 1.20919 0
M  V30 24 O -1.68959 1.9457 2.18327 0
M  V30 25 C -2.01422 3.21611 2.60198 0
M  V30 26 C -1.92295 4.27119 1.53579 0
M  V30 27 C -3.42605 1.70165 0.540999 0
M  V30 28 C -4.08671 0.972025 -0.440129 0
M  V30 29 H -5.19558 -3.83921 -2.84868 0
M  V30 30 H -4.22669 -3.00002 -4.13406 0
M  V30 31 H -5.59979 -2.13775 -3.35148 0
M  V30 32 H -3.87261 -2.95835 -1.17576 0
M  V30 33 H -2.8075 -2.3262 -2.46889 0
M  V30 34 H -2.19201 -1.78326 -0.340284 0
M  V30 35 H -2.09828 -1.81024 2.72497 0
M  V30 36 H -0.399965 -2.46981 2.41213 0
M  V30 37 H -0.701733 -1.18447 3.62378 0
M  V30 38 H 0.469036 1.10819 1.42288 0
M  V30 39 H 1.06637 -0.0502889 2.61179 0
M  V30 40 H 3.92788 0.847259 2.12639 0
M  V30 41 H 3.27848 2.15805 0.939962 0
M  V30 42 H 2.32096 1.31964 2.06062 0
M  V30 43 H 0.171368 -1.92276 -0.312913 0
M  V30 44 H 6.76568 -1.33917 -4.15134 0
M  V30 45 H 5.96551 -2.90677 -3.91454 0
M  V30 46 H 5.26661 2.04779 -0.206627 0
M  V30 47 H 5.87647 0.805263 0.907015 0
M  V30 48 H -1.27303 3.50835 3.39863 0
M  V30 49 H -2.99976 3.25227 3.12258 0
M  V30 50 H -1.19755 5.04633 1.76681 0
M  V30 51 H -2.91717 4.77261 1.46706 0
M  V30 52 H -1.65258 3.84719 0.537414 0
M  V30 53 H -3.82563 2.67374 0.751236 0
M  V30 54 H -4.95671 1.36919 -0.970593 0
M  V30 END ATOM
M  V30 BEGIN BOND
M  V30 1 1 1 2
M  V30 2 1 2 3
M  V30 3 1 3 4
M  V30 4 2 4 5
M  V30 5 1 5 6
M  V30 6 1 6 7
M  V30 7 1 7 8
M  V30 8 1 7 9
M  V30 9 1 9 10
M  V30 10 2 10 11
M  V30 11 1 11 12
M  V30 12 1 11 13
M  V30 13 2 13 14
M  V30 14 1 14 15
M  V30 15 2 15 16
M  V30 16 1 14 17
M  V30 17 2 17 18
M  V30 18 1 18 19
M  V30 19 1 18 20
M  V30 20 2 20 21
M  V30 21 1 21 22
M  V30 22 2 6 23
M  V30 23 1 23 24
M  V30 24 1 24 25
M  V30 25 1 25 26
M  V30 26 1 23 27
M  V30 27 2 27 28
M  V30 28 1 28 4
M  V30 29 1 16 10
M  V30 30 1 21 13
M  V30 31 1 1 29
M  V30 32 1 1 30
M  V30 33 1 1 31
M  V30 34 1 2 32
M  V30 35 1 2 33
M  V30 36 1 5 34
M  V30 37 1 8 35
M  V30 38 1 8 36
M  V30 39 1 8 37
M  V30 40 1 9 38
M  V30 41 1 9 39
M  V30 42 1 12 40
M  V30 43 1 12 41
M  V30 44 1 12 42
M  V30 45 1 16 43
M  V30 46 1 19 44
M  V30 47 1 19 45
M  V30 48 1 22 46
M  V30 49 1 22 47
M  V30 50 1 25 48
M  V30 51 1 25 49
M  V30 52 1 26 50
M  V30 53 1 26 51
M  V30 54 1 26 52
M  V30 55 1 27 53
M  V30 56 1 28 54
M  V30 END BOND
M  V30 END CTAB
M  END
