
     RDKit          3D

  0  0  0  0  0  0  0  0  0  0999 V3000
M  V30 BEGIN CTAB
M  V30 COUNTS 28 28 0 0 0
M  V30 BEGIN ATOM
M  V30 1 N 3.96263 0.203331 0.596537 0
M  V30 2 N 2.61444 0.474258 0.532387 0
M  V30 3 C 1.76831 -0.245528 -0.125715 0
M  V30 4 N 0.394713 0.12377 -0.126319 0
M  V30 5 C -0.0178282 1.51007 -0.336877 0
M  V30 6 C -1.22799 1.80427 0.553923 0
M  V30 7 C -2.39143 0.915465 0.197531 0 CFG=2
M  V30 8 C -1.89833 -0.242024 -0.658101 0
M  V30 9 C -0.682307 -0.817578 0.076238 0 CFG=1
M  V30 10 C -0.406807 -2.1685 -0.520081 0
M  V30 11 O -3.4076 1.62161 -0.44702 0
M  V30 12 N 2.28049 -1.37287 -0.812618 0
M  V30 13 H 4.556 -0.0545704 -0.22046 0
M  V30 14 H 4.42722 0.261171 1.54033 0
M  V30 15 H 0.805136 2.16732 0.0554335 0
M  V30 16 H -0.221392 1.72286 -1.39328 0
M  V30 17 H -1.51712 2.84392 0.386742 0
M  V30 18 H -0.879328 1.62555 1.60532 0
M  V30 19 H -2.85393 0.454594 1.09783 0
M  V30 20 H -1.53428 0.17681 -1.6242 0
M  V30 21 H -2.66711 -1.00108 -0.809403 0
M  V30 22 H -0.928312 -0.943166 1.13167 0
M  V30 23 H 0.256925 -2.79896 0.0825364 0
M  V30 24 H -0.105029 -2.10697 -1.59329 0
M  V30 25 H -1.39953 -2.70778 -0.540722 0
M  V30 26 H -3.86918 2.14544 0.269206 0
M  V30 27 H 2.3847 -1.3826 -1.83843 0
M  V30 28 H 2.55695 -2.20882 -0.265745 0
M  V30 END ATOM
M  V30 BEGIN BOND
M  V30 1 1 1 2
M  V30 2 2 2 3 CFG=2
M  V30 3 1 3 4
M  V30 4 1 4 5
M  V30 5 1 5 6
M  V30 6 1 6 7
M  V30 7 1 7 8
M  V30 8 1 8 9
M  V30 9 1 9 10
M  V30 10 1 7 11
M  V30 11 1 3 12
M  V30 12 1 9 4
M  V30 13 1 1 13
M  V30 14 1 1 14
M  V30 15 1 5 15
M  V30 16 1 5 16
M  V30 17 1 6 17
M  V30 18 1 6 18
M  V30 19 1 7 19 CFG=1
M  V30 20 1 8 20
M  V30 21 1 8 21
M  V30 22 1 9 22 CFG=1
M  V30 23 1 10 23
M  V30 24 1 10 24
M  V30 25 1 10 25
M  V30 26 1 11 26
M  V30 27 1 12 27
M  V30 28 1 12 28
M  V30 END BOND
M  V30 END CTAB
M  END
