
     RDKit          3D

  0  0  0  0  0  0  0  0  0  0999 V3000
M  V30 BEGIN CTAB
M  V30 COUNTS 37 39 0 0 0
M  V30 BEGIN ATOM
M  V30 1 N -3.92216 -3.97479 0.634865 0
M  V30 2 N -2.65623 -3.45609 0.470026 0
M  V30 3 C -2.37032 -2.08627 0.277095 0
M  V30 4 O -3.34019 -1.28909 0.262854 0
M  V30 5 C -0.992302 -1.63206 0.0999329 0
M  V30 6 C -0.602808 -0.31948 -0.0526224 0
M  V30 7 C 0.786524 -0.300779 -0.229953 0
M  V30 8 C 1.69963 0.71262 -0.431976 0
M  V30 9 C 3.04759 0.440541 -0.585932 0
M  V30 10 C 3.4542 -0.87382 -0.531257 0
M  V30 11 C 2.56423 -1.86467 -0.334103 0
M  V30 12 C 1.22303 -1.60534 -0.180317 0
M  V30 13 N 0.126397 -2.35976 0.0180165 0
M  V30 14 S 4.24959 1.67785 -0.845047 0
M  V30 15 N 4.95062 2.20697 0.63638 0
M  V30 16 O 5.36241 1.17748 -1.74193 0
M  V30 17 O 3.58633 2.88994 -1.47699 0
M  V30 18 C -1.41427 0.908837 -0.0193727 0
M  V30 19 C -1.48286 1.64527 1.16958 0
M  V30 20 C -2.22737 2.80052 1.29275 0
M  V30 21 C -2.92822 3.23098 0.185501 0
M  V30 22 C -2.88578 2.52285 -1.0196 0
M  V30 23 Cl -3.77581 3.06879 -2.4116 0
M  V30 24 C -2.12793 1.37136 -1.10271 0
M  V30 25 H -4.496 -3.54119 1.35824 0
M  V30 26 H -3.97766 -4.99515 0.542075 0
M  V30 27 H -1.8624 -4.12848 0.493427 0
M  V30 28 H 1.35582 1.72536 -0.468765 0
M  V30 29 H 4.5137 -1.1478 -0.646975 0
M  V30 30 H 2.85917 -2.90216 -0.284597 0
M  V30 31 H 0.123582 -3.38857 0.101577 0
M  V30 32 H 5.71553 1.55886 0.940205 0
M  V30 33 H 4.23398 2.34065 1.38425 0
M  V30 34 H -0.937156 1.31493 2.04569 0
M  V30 35 H -2.25788 3.34698 2.23397 0
M  V30 36 H -3.52561 4.13797 0.248201 0
M  V30 37 H -2.06938 0.786738 -2.03088 0
M  V30 END ATOM
M  V30 BEGIN BOND
M  V30 1 1 1 2
M  V30 2 1 2 3
M  V30 3 2 3 4
M  V30 4 1 3 5
M  V30 5 2 5 6
M  V30 6 1 6 7
M  V30 7 2 7 8
M  V30 8 1 8 9
M  V30 9 2 9 10
M  V30 10 1 10 11
M  V30 11 2 11 12
M  V30 12 1 12 13
M  V30 13 1 9 14
M  V30 14 1 14 15
M  V30 15 2 14 16
M  V30 16 2 14 17
M  V30 17 1 6 18
M  V30 18 2 18 19
M  V30 19 1 19 20
M  V30 20 2 20 21
M  V30 21 1 21 22
M  V30 22 1 22 23
M  V30 23 2 22 24
M  V30 24 1 13 5
M  V30 25 1 24 18
M  V30 26 1 12 7
M  V30 27 1 1 25
M  V30 28 1 1 26
M  V30 29 1 2 27
M  V30 30 1 8 28
M  V30 31 1 10 29
M  V30 32 1 11 30
M  V30 33 1 13 31
M  V30 34 1 15 32
M  V30 35 1 15 33
M  V30 36 1 19 34
M  V30 37 1 20 35
M  V30 38 1 21 36
M  V30 39 1 24 37
M  V30 END BOND
M  V30 END CTAB
M  END
