
     RDKit          3D

  0  0  0  0  0  0  0  0  0  0999 V3000
M  V30 BEGIN CTAB
M  V30 COUNTS 24 24 0 0 0
M  V30 BEGIN ATOM
M  V30 1 N 2.40152 0.821736 -0.154581 0
M  V30 2 N 2.32923 -0.503686 -0.0392557 0
M  V30 3 C 2.25668 -1.8351 0.0764955 0
M  V30 4 O 2.4758 -2.89323 -0.247495 0
M  V30 5 C 1.34265 -2.09642 1.49967 0
M  V30 6 S 0.532711 -0.615516 1.9515 0
M  V30 7 C -0.711991 -0.0556028 0.782986 0
M  V30 8 C -0.919998 -0.704531 -0.406359 0
M  V30 9 C -1.83709 -0.184728 -1.32167 0
M  V30 10 C -2.521 0.962482 -1.02436 0
M  V30 11 C -2.33625 1.59957 0.12417 0
M  V30 12 C -1.39377 1.07836 1.09432 0
M  V30 13 N -1.26643 1.81379 2.28585 0
M  V30 14 Br -3.78464 1.61393 -2.35716 0
M  V30 15 H 3.24308 1.34206 -0.165837 0
M  V30 16 H 1.77603 1.11929 -0.984731 0
M  V30 17 H 3.13312 -0.588637 -1.17225 0
M  V30 18 H 0.722858 -2.89232 1.11984 0
M  V30 19 H 2.17467 -2.4155 2.11151 0
M  V30 20 H -0.405234 -1.61087 -0.650737 0
M  V30 21 H -1.99956 -0.657787 -2.28094 0
M  V30 22 H -2.84176 2.48846 0.403191 0
M  V30 23 H -1.85538 1.65722 3.11771 0
M  V30 24 H -0.515215 2.55703 2.3202 0
M  V30 END ATOM
M  V30 BEGIN BOND
M  V30 1 1 1 2
M  V30 2 1 2 3
M  V30 3 2 3 4
M  V30 4 1 3 5
M  V30 5 1 5 6
M  V30 6 1 6 7
M  V30 7 2 7 8
M  V30 8 1 8 9
M  V30 9 2 9 10
M  V30 10 1 10 11
M  V30 11 2 11 12
M  V30 12 1 12 13
M  V30 13 1 10 14
M  V30 14 1 12 7
M  V30 15 1 1 15
M  V30 16 1 1 16
M  V30 17 1 2 17
M  V30 18 1 5 18
M  V30 19 1 5 19
M  V30 20 1 8 20
M  V30 21 1 9 21
M  V30 22 1 11 22
M  V30 23 1 13 23
M  V30 24 1 13 24
M  V30 END BOND
M  V30 END CTAB
M  END
