
     RDKit          3D

  0  0  0  0  0  0  0  0  0  0999 V3000
M  V30 BEGIN CTAB
M  V30 COUNTS 43 44 0 0 0
M  V30 BEGIN ATOM
M  V30 1 C -1.58105 3.12744 -2.32923 0
M  V30 2 O -2.28632 2.49893 -1.28 0
M  V30 3 C -1.83649 1.36155 -0.63459 0
M  V30 4 C -0.650865 0.7342 -0.959141 0
M  V30 5 C -0.254479 -0.39934 -0.278157 0
M  V30 6 C -1.06655 -0.906313 0.744585 0
M  V30 7 C -2.25334 -0.293326 1.08225 0
M  V30 8 O -3.01029 -0.825889 2.08668 0
M  V30 9 C -2.71933 -1.95393 2.83863 0
M  V30 10 C -2.61813 0.842037 0.376828 0
M  V30 11 O -3.80196 1.47692 0.693796 0
M  V30 12 C -4.98454 1.11451 0.0536549 0
M  V30 13 C 1.01617 -1.08763 -0.610212 0
M  V30 14 C 1.23437 -1.18263 -2.10247 0
M  V30 15 O 0.927276 -2.40043 -0.117065 0
M  V30 16 C 2.14947 -0.43607 0.0780036 0
M  V30 17 C 3.41122 -0.959504 -0.132521 0
M  V30 18 N 3.64298 -2.07266 -0.970242 0
M  V30 19 N 4.44821 -0.388901 0.481428 0
M  V30 20 C 4.29333 0.688022 1.30351 0
M  V30 21 N 5.41063 1.28339 1.94947 0
M  V30 22 N 3.0812 1.20225 1.51479 0
M  V30 23 C 2.02188 0.646241 0.908887 0
M  V30 24 H -2.2509 3.90627 -2.76272 0
M  V30 25 H -1.2023 2.41247 -3.07836 0
M  V30 26 H -0.702959 3.62416 -1.87008 0
M  V30 27 H -0.0617467 1.16429 -1.75458 0
M  V30 28 H -0.715485 -1.79472 1.24942 0
M  V30 29 H -3.68857 -2.39792 3.17259 0
M  V30 30 H -2.02159 -1.77336 3.68027 0
M  V30 31 H -2.24935 -2.7359 2.20259 0
M  V30 32 H -5.79609 1.1385 0.834938 0
M  V30 33 H -4.92406 0.0649833 -0.315549 0
M  V30 34 H -5.23947 1.82628 -0.780368 0
M  V30 35 H 1.48855 -2.21603 -2.4042 0
M  V30 36 H 0.341364 -0.882513 -2.68388 0
M  V30 37 H 2.07747 -0.521643 -2.38025 0
M  V30 38 H 0.287503 -2.93589 -0.676095 0
M  V30 39 H 3.43446 -3.03085 -0.629321 0
M  V30 40 H 4.0211 -1.95766 -1.93018 0
M  V30 41 H 5.72287 0.909847 2.85133 0
M  V30 42 H 5.88895 2.07872 1.50395 0
M  V30 43 H 1.01685 1.05208 1.0716 0
M  V30 END ATOM
M  V30 BEGIN BOND
M  V30 1 1 1 2
M  V30 2 1 2 3
M  V30 3 2 3 4
M  V30 4 1 4 5
M  V30 5 2 5 6
M  V30 6 1 6 7
M  V30 7 1 7 8
M  V30 8 1 8 9
M  V30 9 2 7 10
M  V30 10 1 10 11
M  V30 11 1 11 12
M  V30 12 1 5 13
M  V30 13 1 13 14
M  V30 14 1 13 15
M  V30 15 1 13 16
M  V30 16 2 16 17
M  V30 17 1 17 18
M  V30 18 1 17 19
M  V30 19 2 19 20
M  V30 20 1 20 21
M  V30 21 1 20 22
M  V30 22 2 22 23
M  V30 23 1 10 3
M  V30 24 1 23 16
M  V30 25 1 1 24
M  V30 26 1 1 25
M  V30 27 1 1 26
M  V30 28 1 4 27
M  V30 29 1 6 28
M  V30 30 1 9 29
M  V30 31 1 9 30
M  V30 32 1 9 31
M  V30 33 1 12 32
M  V30 34 1 12 33
M  V30 35 1 12 34
M  V30 36 1 14 35
M  V30 37 1 14 36
M  V30 38 1 14 37
M  V30 39 1 15 38
M  V30 40 1 18 39
M  V30 41 1 18 40
M  V30 42 1 21 41
M  V30 43 1 21 42
M  V30 44 1 23 43
M  V30 END BOND
M  V30 END CTAB
M  END
