
     RDKit          3D

  0  0  0  0  0  0  0  0  0  0999 V3000
M  V30 BEGIN CTAB
M  V30 COUNTS 38 38 0 0 0
M  V30 BEGIN ATOM
M  V30 1 C 5.91083 1.20353 -0.291304 0
M  V30 2 O 5.10612 0.0619966 -0.315531 0
M  V30 3 C 3.7897 0.501283 -0.18914 0
M  V30 4 C 2.82751 -0.691433 -0.205705 0
M  V30 5 O 1.52937 -0.143421 -0.0728147 0
M  V30 6 C 0.395118 -0.923511 -0.0472986 0
M  V30 7 C 0.526025 -2.28336 -0.154592 0
M  V30 8 C -0.599224 -3.06089 -0.12954 0
M  V30 9 N -0.454686 -4.47174 -0.241488 0
M  V30 10 C -1.85561 -2.49097 0.00192926 0
M  V30 11 N -3.00286 -3.33255 0.023956 0
M  V30 12 C -1.94081 -1.1152 0.107075 0
M  V30 13 C -0.830503 -0.299166 0.0858726 0
M  V30 14 O -0.872192 1.0781 0.187999 0
M  V30 15 C -2.17067 1.67781 0.324648 0
M  V30 16 C -2.04883 3.16818 0.423084 0
M  V30 17 O -3.27031 3.79744 0.55981 0
M  V30 18 C -4.11341 3.56557 -0.504453 0
M  V30 19 H 5.77792 1.74302 0.64541 0
M  V30 20 H 6.97454 0.879101 -0.45899 0
M  V30 21 H 5.67805 1.88971 -1.13165 0
M  V30 22 H 3.61079 1.06003 0.751293 0
M  V30 23 H 3.48724 1.16369 -1.02669 0
M  V30 24 H 3.05493 -1.3738 0.656351 0
M  V30 25 H 2.9835 -1.19916 -1.17584 0
M  V30 26 H 1.49781 -2.71738 -0.255794 0
M  V30 27 H -0.802294 -5.02106 -1.05645 0
M  V30 28 H 0.0339453 -4.97689 0.552831 0
M  V30 29 H -3.50329 -3.60887 0.882901 0
M  V30 30 H -3.37175 -3.70141 -0.888399 0
M  V30 31 H -2.91518 -0.665715 0.209565 0
M  V30 32 H -2.65927 1.28888 1.23435 0
M  V30 33 H -2.77349 1.33728 -0.532092 0
M  V30 34 H -1.44304 3.41407 1.3426 0
M  V30 35 H -1.47671 3.61106 -0.416088 0
M  V30 36 H -4.38016 2.51986 -0.685572 0
M  V30 37 H -5.06639 4.13008 -0.301055 0
M  V30 38 H -3.63271 3.98584 -1.43474 0
M  V30 END ATOM
M  V30 BEGIN BOND
M  V30 1 1 1 2
M  V30 2 1 2 3
M  V30 3 1 3 4
M  V30 4 1 4 5
M  V30 5 1 5 6
M  V30 6 2 6 7
M  V30 7 1 7 8
M  V30 8 1 8 9
M  V30 9 2 8 10
M  V30 10 1 10 11
M  V30 11 1 10 12
M  V30 12 2 12 13
M  V30 13 1 13 14
M  V30 14 1 14 15
M  V30 15 1 15 16
M  V30 16 1 16 17
M  V30 17 1 17 18
M  V30 18 1 13 6
M  V30 19 1 1 19
M  V30 20 1 1 20
M  V30 21 1 1 21
M  V30 22 1 3 22
M  V30 23 1 3 23
M  V30 24 1 4 24
M  V30 25 1 4 25
M  V30 26 1 7 26
M  V30 27 1 9 27
M  V30 28 1 9 28
M  V30 29 1 11 29
M  V30 30 1 11 30
M  V30 31 1 12 31
M  V30 32 1 15 32
M  V30 33 1 15 33
M  V30 34 1 16 34
M  V30 35 1 16 35
M  V30 36 1 18 36
M  V30 37 1 18 37
M  V30 38 1 18 38
M  V30 END BOND
M  V30 END CTAB
M  END
