
     RDKit          3D

  0  0  0  0  0  0  0  0  0  0999 V3000
M  V30 BEGIN CTAB
M  V30 COUNTS 57 60 0 0 0
M  V30 BEGIN ATOM
M  V30 1 N -8.5047 -2.4402 0.879792 0
M  V30 2 C -7.36748 -1.5694 0.747679 0 CFG=1
M  V30 3 C -6.28832 -2.31166 0.0179721 0
M  V30 4 C -5.06553 -1.54644 -0.186569 0
M  V30 5 C -4.87267 -0.856082 -1.37057 0
M  V30 6 C -3.71901 -0.143257 -1.54426 0
M  V30 7 C -2.71587 -0.067863 -0.594325 0
M  V30 8 C -2.90695 -0.74804 0.571149 0
M  V30 9 C -4.07721 -1.4873 0.780027 0
M  V30 10 C -1.51419 0.711732 -0.851403 0
M  V30 11 N -1.41815 1.35727 -2.05387 0
M  V30 12 C -0.324951 2.08194 -2.32023 0
M  V30 13 N -0.194819 2.77189 -3.57618 0
M  V30 14 N 0.700247 2.20273 -1.43778 0
M  V30 15 C 0.668251 1.59483 -0.241147 0
M  V30 16 O 1.66251 1.66186 0.716091 0
M  V30 17 C 2.86559 2.38669 0.556396 0
M  V30 18 C 3.94993 1.38808 0.562631 0
M  V30 19 C 5.03274 1.43914 1.39664 0
M  V30 20 C 6.02125 0.45846 1.3221 0
M  V30 21 C 5.97674 -0.592357 0.435272 0
M  V30 22 C 4.88007 -0.630769 -0.397633 0
M  V30 23 C 3.89217 0.320033 -0.347369 0
M  V30 24 C 7.01137 -1.61206 0.360404 0
M  V30 25 C 6.9248 -2.94425 0.0194106 0
M  V30 26 O 8.11538 -3.48625 0.0868305 0
M  V30 27 C 9.01238 -2.6094 0.452513 0
M  V30 28 C 8.34974 -1.41734 0.633187 0
M  V30 29 C 3.00423 3.53709 1.46781 0
M  V30 30 F 4.15387 4.23209 1.27947 0
M  V30 31 F 2.93251 3.20484 2.8071 0
M  V30 32 F 1.96059 4.42737 1.16517 0
M  V30 33 C -0.467247 0.843039 0.0337219 0
M  V30 34 C -7.81541 -0.396997 -0.0175107 0
M  V30 35 O -7.05611 0.739272 -0.104315 0
M  V30 36 O -8.93796 -0.381303 -0.635934 0
M  V30 37 H -8.44961 -3.1729 1.51757 0
M  V30 38 H -9.37607 -2.07462 0.635624 0
M  V30 39 H -6.97296 -1.30308 1.76021 0
M  V30 40 H -6.72514 -2.6629 -0.962976 0
M  V30 41 H -6.03346 -3.26534 0.568839 0
M  V30 42 H -5.65672 -0.908683 -2.12574 0
M  V30 43 H -3.55484 0.402837 -2.46804 0
M  V30 44 H -2.15153 -0.721797 1.34858 0
M  V30 45 H -4.21382 -2.01477 1.69662 0
M  V30 46 H -0.397701 2.22084 -4.44193 0
M  V30 47 H 0.0824268 3.75984 -3.65807 0
M  V30 48 H 2.81316 2.80542 -0.491323 0
M  V30 49 H 5.1219 2.24115 2.13138 0
M  V30 50 H 6.86678 0.521266 1.99133 0
M  V30 51 H 4.80458 -1.45388 -1.12149 0
M  V30 52 H 3.01765 0.286958 -1.01326 0
M  V30 53 H 6.03208 -3.47766 -0.26138 0
M  V30 54 H 10.057 -2.8199 0.576608 0
M  V30 55 H 8.81666 -0.488544 0.939279 0
M  V30 56 H -0.524158 0.341507 0.9877 0
M  V30 57 H -7.42398 1.66683 0.0433821 0
M  V30 END ATOM
M  V30 BEGIN BOND
M  V30 1 1 1 2
M  V30 2 1 2 3
M  V30 3 1 3 4
M  V30 4 2 4 5
M  V30 5 1 5 6
M  V30 6 2 6 7
M  V30 7 1 7 8
M  V30 8 2 8 9
M  V30 9 1 7 10
M  V30 10 2 10 11
M  V30 11 1 11 12
M  V30 12 1 12 13
M  V30 13 2 12 14
M  V30 14 1 14 15
M  V30 15 1 15 16
M  V30 16 1 16 17
M  V30 17 1 17 18
M  V30 18 2 18 19
M  V30 19 1 19 20
M  V30 20 2 20 21
M  V30 21 1 21 22
M  V30 22 2 22 23
M  V30 23 1 21 24
M  V30 24 2 24 25
M  V30 25 1 25 26
M  V30 26 1 26 27
M  V30 27 2 27 28
M  V30 28 1 17 29
M  V30 29 1 29 30
M  V30 30 1 29 31
M  V30 31 1 29 32
M  V30 32 2 15 33
M  V30 33 1 2 34
M  V30 34 1 34 35
M  V30 35 2 34 36
M  V30 36 1 9 4
M  V30 37 1 33 10
M  V30 38 1 23 18
M  V30 39 1 28 24
M  V30 40 1 1 37
M  V30 41 1 1 38
M  V30 42 1 2 39 CFG=1
M  V30 43 1 3 40
M  V30 44 1 3 41
M  V30 45 1 5 42
M  V30 46 1 6 43
M  V30 47 1 8 44
M  V30 48 1 9 45
M  V30 49 1 13 46
M  V30 50 1 13 47
M  V30 51 1 17 48
M  V30 52 1 19 49
M  V30 53 1 20 50
M  V30 54 1 22 51
M  V30 55 1 23 52
M  V30 56 1 25 53
M  V30 57 1 27 54
M  V30 58 1 28 55
M  V30 59 1 33 56
M  V30 60 1 35 57
M  V30 END BOND
M  V30 END CTAB
M  END
