
     RDKit          3D

  0  0  0  0  0  0  0  0  0  0999 V3000
M  V30 BEGIN CTAB
M  V30 COUNTS 24 24 0 0 0
M  V30 BEGIN ATOM
M  V30 1 N 3.21807 1.08529 0.699404 0
M  V30 2 C 2.33679 0.349678 -0.123808 0
M  V30 3 C 1.40161 -0.487453 0.748181 0
M  V30 4 N 0.485225 -1.25418 -0.0519359 0
M  V30 5 N 0.638692 -2.47691 -0.535361 0
M  V30 6 N -0.441041 -2.82974 -1.2265 0
M  V30 7 C -1.31836 -1.80729 -1.18984 0
M  V30 8 C -0.733509 -0.812502 -0.44823 0
M  V30 9 C -1.31433 0.51702 -0.125725 0 CFG=1
M  V30 10 N -1.89972 1.068 -1.32836 0
M  V30 11 C -2.35453 0.391284 0.974306 0
M  V30 12 H 3.24654 2.06518 0.629639 0
M  V30 13 H 3.83775 0.576208 1.28674 0
M  V30 14 H 2.9423 -0.327164 -0.774219 0
M  V30 15 H 1.76561 1.01181 -0.796224 0
M  V30 16 H 0.827007 0.191668 1.39052 0
M  V30 17 H 2.0314 -1.14181 1.38411 0
M  V30 18 H -2.29883 -1.74382 -1.642 0
M  V30 19 H -0.507572 1.20965 0.203859 0
M  V30 20 H -1.27118 1.7567 -1.75306 0
M  V30 21 H -2.79715 1.52942 -1.0779 0
M  V30 22 H -3.33003 0.725791 0.578004 0
M  V30 23 H -2.09576 1.06052 1.8336 0
M  V30 24 H -2.36897 -0.657363 1.3448 0
M  V30 END ATOM
M  V30 BEGIN BOND
M  V30 1 1 1 2
M  V30 2 1 2 3
M  V30 3 1 3 4
M  V30 4 1 4 5
M  V30 5 2 5 6
M  V30 6 1 6 7
M  V30 7 2 7 8
M  V30 8 1 8 9
M  V30 9 1 9 10
M  V30 10 1 9 11
M  V30 11 1 8 4
M  V30 12 1 1 12
M  V30 13 1 1 13
M  V30 14 1 2 14
M  V30 15 1 2 15
M  V30 16 1 3 16
M  V30 17 1 3 17
M  V30 18 1 7 18
M  V30 19 1 9 19 CFG=1
M  V30 20 1 10 20
M  V30 21 1 10 21
M  V30 22 1 11 22
M  V30 23 1 11 23
M  V30 24 1 11 24
M  V30 END BOND
M  V30 END CTAB
M  END
