
     RDKit          3D

  0  0  0  0  0  0  0  0  0  0999 V3000
M  V30 BEGIN CTAB
M  V30 COUNTS 51 54 0 0 0
M  V30 BEGIN ATOM
M  V30 1 C -2.02713 -2.04604 3.59568 0
M  V30 2 C -1.60813 -1.19115 2.45977 0
M  V30 3 C -0.365867 -0.661963 2.17056 0
M  V30 4 N -0.441463 0.0572277 1.03448 0
M  V30 5 C -1.69757 0.0240995 0.556246 0
M  V30 6 C -2.42412 -0.745315 1.43149 0
M  V30 7 C -3.83777 -0.987784 1.2067 0
M  V30 8 O -4.38326 -1.94567 1.81302 0
M  V30 9 C -4.57875 -0.102168 0.27679 0
M  V30 10 C -3.69707 0.115172 -0.926133 0
M  V30 11 C -3.62678 -1.22828 -1.65816 0
M  V30 12 C -4.43474 1.06642 -1.84716 0
M  V30 13 C -2.34033 0.611937 -0.616672 0
M  V30 14 C 0.689439 0.73522 0.469831 0
M  V30 15 C 1.87333 0.0345853 0.218637 0
M  V30 16 C 2.97205 0.630565 -0.314851 0
M  V30 17 C 2.8338 1.99053 -0.593578 0
M  V30 18 C 1.66843 2.69351 -0.349516 0
M  V30 19 C 0.574352 2.06896 0.189207 0
M  V30 20 C 3.93767 2.62953 -1.1393 0
M  V30 21 N 3.84419 4.00169 -1.43685 0
M  V30 22 N 5.06682 1.95644 -1.37774 0
M  V30 23 C 5.17379 0.658124 -1.10277 0
M  V30 24 C 4.11342 -0.0962109 -0.544685 0
M  V30 25 C 4.31649 -1.49897 -0.278533 0
M  V30 26 N 3.42299 -2.43161 0.263625 0
M  V30 27 N 5.51219 -1.96326 -0.591074 0
M  V30 28 O 5.79226 -3.28348 -0.372165 0
M  V30 29 H -1.08364 -2.50706 4.01255 0
M  V30 30 H -2.47234 -1.48302 4.42235 0
M  V30 31 H -2.63826 -2.90945 3.26346 0
M  V30 32 H 0.492153 -0.846465 2.81528 0
M  V30 33 H -4.86977 0.83699 0.779032 0
M  V30 34 H -5.47161 -0.663801 -0.0697371 0
M  V30 35 H -3.6039 -2.05595 -0.915545 0
M  V30 36 H -4.54654 -1.37005 -2.25221 0
M  V30 37 H -2.7108 -1.25615 -2.25472 0
M  V30 38 H -5.36618 0.556473 -2.21578 0
M  V30 39 H -4.7983 1.94514 -1.26796 0
M  V30 40 H -3.80423 1.42501 -2.67858 0
M  V30 41 H -2.37369 1.72514 -0.592241 0
M  V30 42 H -1.68525 0.379369 -1.50929 0
M  V30 43 H 1.87285 -0.993778 0.466637 0
M  V30 44 H 1.65691 3.74243 -0.598246 0
M  V30 45 H -0.361489 2.6071 0.391555 0
M  V30 46 H 3.46956 4.3126 -2.34562 0
M  V30 47 H 4.14885 4.71784 -0.750766 0
M  V30 48 H 6.11019 0.139437 -1.31002 0
M  V30 49 H 2.77176 -3.01134 -0.342766 0
M  V30 50 H 3.34449 -2.62486 1.3066 0
M  V30 51 H 5.59097 -3.75773 0.509064 0
M  V30 END ATOM
M  V30 BEGIN BOND
M  V30 1 1 1 2
M  V30 2 2 2 3
M  V30 3 1 3 4
M  V30 4 1 4 5
M  V30 5 2 5 6
M  V30 6 1 6 7
M  V30 7 2 7 8
M  V30 8 1 7 9
M  V30 9 1 9 10
M  V30 10 1 10 11
M  V30 11 1 10 12
M  V30 12 1 10 13
M  V30 13 1 4 14
M  V30 14 2 14 15
M  V30 15 1 15 16
M  V30 16 2 16 17
M  V30 17 1 17 18
M  V30 18 2 18 19
M  V30 19 1 17 20
M  V30 20 1 20 21
M  V30 21 2 20 22
M  V30 22 1 22 23
M  V30 23 2 23 24
M  V30 24 1 24 25
M  V30 25 1 25 26
M  V30 26 2 25 27
M  V30 27 1 27 28
M  V30 28 1 6 2
M  V30 29 1 19 14
M  V30 30 1 13 5
M  V30 31 1 24 16
M  V30 32 1 1 29
M  V30 33 1 1 30
M  V30 34 1 1 31
M  V30 35 1 3 32
M  V30 36 1 9 33
M  V30 37 1 9 34
M  V30 38 1 11 35
M  V30 39 1 11 36
M  V30 40 1 11 37
M  V30 41 1 12 38
M  V30 42 1 12 39
M  V30 43 1 12 40
M  V30 44 1 13 41
M  V30 45 1 13 42
M  V30 46 1 15 43
M  V30 47 1 18 44
M  V30 48 1 19 45
M  V30 49 1 21 46
M  V30 50 1 21 47
M  V30 51 1 23 48
M  V30 52 1 26 49
M  V30 53 1 26 50
M  V30 54 1 28 51
M  V30 END BOND
M  V30 END CTAB
M  END
