
     RDKit          3D

  0  0  0  0  0  0  0  0  0  0999 V3000
M  V30 BEGIN CTAB
M  V30 COUNTS 36 37 0 0 0
M  V30 BEGIN ATOM
M  V30 1 C 4.32888 -0.914183 0.394971 0
M  V30 2 N 3.43533 -0.741985 -0.759422 0
M  V30 3 C 2.23083 -1.44335 -0.470723 0
M  V30 4 C 0.986317 -0.616194 -0.528839 0
M  V30 5 N 1.09122 0.652675 0.103842 0
M  V30 6 C 0.0454142 1.55945 -0.239417 0
M  V30 7 C -1.25426 0.961003 0.166882 0
M  V30 8 C -1.71588 1.18105 1.44573 0
M  V30 9 C -2.90295 0.662653 1.88852 0
M  V30 10 C -3.663 -0.105154 1.02796 0
M  V30 11 N -4.9069 -0.681795 1.40437 0
M  V30 12 C -3.20612 -0.332327 -0.262376 0
M  V30 13 N -3.98666 -1.12461 -1.15608 0
M  V30 14 C -2.01089 0.18964 -0.70821 0
M  V30 15 C 2.39345 1.22225 0.14132 0
M  V30 16 C 3.26223 0.670707 -0.966325 0
M  V30 17 H 4.75348 -1.94613 0.35301 0
M  V30 18 H 3.68226 -0.862053 1.31838 0
M  V30 19 H 5.09304 -0.128034 0.407389 0
M  V30 20 H 2.23149 -1.98151 0.499095 0
M  V30 21 H 2.12164 -2.25154 -1.25115 0
M  V30 22 H 0.178792 -1.19189 -0.0303698 0
M  V30 23 H 0.685461 -0.547122 -1.61053 0
M  V30 24 H 0.180256 2.48684 0.362866 0
M  V30 25 H 0.0315092 1.84391 -1.31118 0
M  V30 26 H -1.13131 1.78892 2.15318 0
M  V30 27 H -3.27392 0.830263 2.89202 0
M  V30 28 H -5.80426 -0.263692 1.10082 0
M  V30 29 H -4.86592 -1.54208 1.99828 0
M  V30 30 H -3.94559 -1.02649 -2.18652 0
M  V30 31 H -4.64459 -1.85155 -0.779591 0
M  V30 32 H -1.64203 0.0196529 -1.71566 0
M  V30 33 H 2.31056 2.3318 -0.0487459 0
M  V30 34 H 2.82867 1.07318 1.14307 0
M  V30 35 H 2.8081 0.941386 -1.92239 0
M  V30 36 H 4.27534 1.13631 -0.895246 0
M  V30 END ATOM
M  V30 BEGIN BOND
M  V30 1 1 1 2
M  V30 2 1 2 3
M  V30 3 1 3 4
M  V30 4 1 4 5
M  V30 5 1 5 6
M  V30 6 1 6 7
M  V30 7 2 7 8
M  V30 8 1 8 9
M  V30 9 2 9 10
M  V30 10 1 10 11
M  V30 11 1 10 12
M  V30 12 1 12 13
M  V30 13 2 12 14
M  V30 14 1 5 15
M  V30 15 1 15 16
M  V30 16 1 16 2
M  V30 17 1 14 7
M  V30 18 1 1 17
M  V30 19 1 1 18
M  V30 20 1 1 19
M  V30 21 1 3 20
M  V30 22 1 3 21
M  V30 23 1 4 22
M  V30 24 1 4 23
M  V30 25 1 6 24
M  V30 26 1 6 25
M  V30 27 1 8 26
M  V30 28 1 9 27
M  V30 29 1 11 28
M  V30 30 1 11 29
M  V30 31 1 13 30
M  V30 32 1 13 31
M  V30 33 1 14 32
M  V30 34 1 15 33
M  V30 35 1 15 34
M  V30 36 1 16 35
M  V30 37 1 16 36
M  V30 END BOND
M  V30 END CTAB
M  END
