
     RDKit          3D

  0  0  0  0  0  0  0  0  0  0999 V3000
M  V30 BEGIN CTAB
M  V30 COUNTS 29 29 0 0 0
M  V30 BEGIN ATOM
M  V30 1 C 4.44526 0.210711 -1.04244 0
M  V30 2 O 3.34833 0.703183 -0.293646 0
M  V30 3 C 2.12509 0.0879125 -0.248637 0
M  V30 4 O 1.95521 -0.976542 -0.903776 0
M  V30 5 C 1.04287 0.69547 0.569191 0
M  V30 6 C -0.202551 -0.118364 0.500476 0
M  V30 7 C -0.198297 -1.26632 1.29076 0
M  V30 8 N 0.921319 -1.59422 2.11044 0
M  V30 9 C -1.31522 -2.06352 1.243 0
M  V30 10 C -2.3895 -1.73071 0.442276 0
M  V30 11 C -2.39536 -0.597225 -0.339293 0
M  V30 12 C -1.26761 0.218028 -0.297703 0
M  V30 13 O -1.30178 1.35785 -1.09589 0
M  V30 14 C -1.82484 2.60183 -0.730234 0
M  V30 15 F -0.890527 3.58178 -0.983633 0
M  V30 16 F -2.95836 2.88344 -1.49997 0
M  V30 17 N -3.50917 -0.278031 -1.15124 0
M  V30 18 H 4.86062 1.07588 -1.59014 0
M  V30 19 H 5.1668 -0.216136 -0.319694 0
M  V30 20 H 4.154 -0.617746 -1.71137 0
M  V30 21 H 1.34426 0.796474 1.63258 0
M  V30 22 H 0.827768 1.70392 0.206391 0
M  V30 23 H 1.17958 -1.11044 2.97797 0
M  V30 24 H 1.517 -2.39175 1.78997 0
M  V30 25 H -1.32742 -2.97359 1.86073 0
M  V30 26 H -3.27365 -2.36025 0.404828 0
M  V30 27 H -2.16802 2.69017 0.309811 0
M  V30 28 H -3.40875 -0.253815 -2.17718 0
M  V30 29 H -4.45707 -0.0579777 -0.766501 0
M  V30 END ATOM
M  V30 BEGIN BOND
M  V30 1 1 1 2
M  V30 2 1 2 3
M  V30 3 2 3 4
M  V30 4 1 3 5
M  V30 5 1 5 6
M  V30 6 2 6 7
M  V30 7 1 7 8
M  V30 8 1 7 9
M  V30 9 2 9 10
M  V30 10 1 10 11
M  V30 11 2 11 12
M  V30 12 1 12 13
M  V30 13 1 13 14
M  V30 14 1 14 15
M  V30 15 1 14 16
M  V30 16 1 11 17
M  V30 17 1 12 6
M  V30 18 1 1 18
M  V30 19 1 1 19
M  V30 20 1 1 20
M  V30 21 1 5 21
M  V30 22 1 5 22
M  V30 23 1 8 23
M  V30 24 1 8 24
M  V30 25 1 9 25
M  V30 26 1 10 26
M  V30 27 1 14 27
M  V30 28 1 17 28
M  V30 29 1 17 29
M  V30 END BOND
M  V30 END CTAB
M  END
