
     RDKit          3D

  0  0  0  0  0  0  0  0  0  0999 V3000
M  V30 BEGIN CTAB
M  V30 COUNTS 25 25 0 0 0
M  V30 BEGIN ATOM
M  V30 1 C -4.03663 -1.08885 0.0197448 0
M  V30 2 C -3.07299 0.0680134 0.113712 0
M  V30 3 C -1.61735 -0.41812 0.0467213 0
M  V30 4 C -0.752666 0.78994 0.146874 0
M  V30 5 C 0.688665 0.510747 0.0993497 0
M  V30 6 N 1.5594 1.52989 0.181769 0
M  V30 7 C 2.89334 1.36466 0.146497 0
M  V30 8 N 3.7724 2.47851 0.237633 0
M  V30 9 N 3.35634 0.111793 0.0224048 0
M  V30 10 C 2.52857 -0.95884 -0.0654679 0
M  V30 11 N 1.18602 -0.728735 -0.0240003 0
M  V30 12 N 3.06098 -2.26965 -0.195983 0
M  V30 13 F -3.2813 0.67101 1.33945 0
M  V30 14 F -3.23887 0.988801 -0.892112 0
M  V30 15 H -4.97964 -0.756275 0.53667 0
M  V30 16 H -3.6023 -1.93312 0.604784 0
M  V30 17 H -4.20736 -1.34427 -1.02647 0
M  V30 18 H -1.5099 -1.1148 0.905761 0
M  V30 19 H -1.43729 -0.976083 -0.883461 0
M  V30 20 H -1.00525 1.45924 -0.704928 0
M  V30 21 H -1.01907 1.32585 1.08269 0
M  V30 22 H 3.63384 3.30119 -0.378319 0
M  V30 23 H 4.57331 2.52401 0.904826 0
M  V30 24 H 3.9184 -2.56986 0.308053 0
M  V30 25 H 2.58939 -2.96506 -0.812609 0
M  V30 END ATOM
M  V30 BEGIN BOND
M  V30 1 1 1 2
M  V30 2 1 2 3
M  V30 3 1 3 4
M  V30 4 1 4 5
M  V30 5 2 5 6
M  V30 6 1 6 7
M  V30 7 1 7 8
M  V30 8 2 7 9
M  V30 9 1 9 10
M  V30 10 2 10 11
M  V30 11 1 10 12
M  V30 12 1 2 13
M  V30 13 1 2 14
M  V30 14 1 11 5
M  V30 15 1 1 15
M  V30 16 1 1 16
M  V30 17 1 1 17
M  V30 18 1 3 18
M  V30 19 1 3 19
M  V30 20 1 4 20
M  V30 21 1 4 21
M  V30 22 1 8 22
M  V30 23 1 8 23
M  V30 24 1 12 24
M  V30 25 1 12 25
M  V30 END BOND
M  V30 END CTAB
M  END
