
     RDKit          3D

  0  0  0  0  0  0  0  0  0  0999 V3000
M  V30 BEGIN CTAB
M  V30 COUNTS 30 31 0 0 0
M  V30 BEGIN ATOM
M  V30 1 N -5.84627 -0.435104 -1.05214 0
M  V30 2 C -4.48664 -0.170201 -0.651977 0
M  V30 3 C -3.48378 -0.939691 -1.18806 0
M  V30 4 C -2.15462 -0.711589 -0.823443 0
M  V30 5 C -1.86618 0.281407 0.0683138 0
M  V30 6 C -2.87644 1.03234 0.58757 0
M  V30 7 C -4.21325 0.832613 0.246531 0
M  V30 8 C -0.485495 0.532277 0.449115 0
M  V30 9 O -0.355333 1.28197 1.4804 0
M  V30 10 N 0.600541 -0.0107483 -0.267225 0
M  V30 11 C 1.94434 0.198963 0.0459604 0
M  V30 12 C 2.42864 1.20469 0.840952 0
M  V30 13 C 3.78834 1.35847 1.14571 0
M  V30 14 C 4.66255 0.441219 0.607335 0
M  V30 15 C 4.18633 -0.580926 -0.199172 0
M  V30 16 N 5.17088 -1.48665 -0.713904 0
M  V30 17 C 2.85609 -0.730061 -0.496023 0
M  V30 18 H -6.36663 0.227586 -1.6837 0
M  V30 19 H -6.27091 -1.31381 -0.678744 0
M  V30 20 H -3.73188 -1.71557 -1.88787 0
M  V30 21 H -1.44288 -1.3662 -1.29317 0
M  V30 22 H -2.68463 1.8418 1.30917 0
M  V30 23 H -5.01384 1.41407 0.646273 0
M  V30 24 H 0.381749 -0.620836 -1.11749 0
M  V30 25 H 1.80417 1.95837 1.27798 0
M  V30 26 H 4.16442 2.15121 1.77216 0
M  V30 27 H 5.71013 0.535751 0.824847 0
M  V30 28 H 5.99064 -1.1693 -1.27263 0
M  V30 29 H 5.05773 -2.4989 -0.519143 0
M  V30 30 H 2.53222 -1.54316 -1.12963 0
M  V30 END ATOM
M  V30 BEGIN BOND
M  V30 1 1 1 2
M  V30 2 2 2 3
M  V30 3 1 3 4
M  V30 4 2 4 5
M  V30 5 1 5 6
M  V30 6 2 6 7
M  V30 7 1 5 8
M  V30 8 2 8 9
M  V30 9 1 8 10
M  V30 10 1 10 11
M  V30 11 2 11 12
M  V30 12 1 12 13
M  V30 13 2 13 14
M  V30 14 1 14 15
M  V30 15 1 15 16
M  V30 16 2 15 17
M  V30 17 1 7 2
M  V30 18 1 17 11
M  V30 19 1 1 18
M  V30 20 1 1 19
M  V30 21 1 3 20
M  V30 22 1 4 21
M  V30 23 1 6 22
M  V30 24 1 7 23
M  V30 25 1 10 24
M  V30 26 1 12 25
M  V30 27 1 13 26
M  V30 28 1 14 27
M  V30 29 1 16 28
M  V30 30 1 16 29
M  V30 31 1 17 30
M  V30 END BOND
M  V30 END CTAB
M  END
