
     RDKit          3D

  0  0  0  0  0  0  0  0  0  0999 V3000
M  V30 BEGIN CTAB
M  V30 COUNTS 26 26 0 0 0
M  V30 BEGIN ATOM
M  V30 1 N 4.46804 -0.450132 -0.472712 0
M  V30 2 C 3.13448 -0.445137 0.121901 0
M  V30 3 C 2.63584 0.984851 0.105029 0
M  V30 4 N 1.3287 1.07325 0.675755 0
M  V30 5 C 0.161669 0.465866 0.204463 0
M  V30 6 N 0.118707 -0.303614 -0.898256 0
M  V30 7 C -1.0024 -0.881618 -1.35137 0
M  V30 8 C -2.2037 -0.721461 -0.704813 0
M  V30 9 C -2.21478 0.0596597 0.433447 0
M  V30 10 C -1.03699 0.632238 0.85915 0
M  V30 11 Br -1.07416 1.69796 2.41976 0
M  V30 12 C -3.47655 0.287327 1.19882 0
M  V30 13 N -3.40531 -1.32886 -1.17288 0
M  V30 14 H 4.34566 -0.128392 -1.45663 0
M  V30 15 H 5.08648 0.160224 0.094891 0
M  V30 16 H 3.26979 -0.76448 1.19105 0
M  V30 17 H 2.4676 -1.16958 -0.340546 0
M  V30 18 H 2.67455 1.30389 -0.958647 0
M  V30 19 H 3.398 1.57295 0.657547 0
M  V30 20 H 1.25688 1.6716 1.5553 0
M  V30 21 H -0.952811 -1.4916 -2.25437 0
M  V30 22 H -4.34915 0.430972 0.563274 0
M  V30 23 H -3.30535 1.10662 1.92752 0
M  V30 24 H -3.62235 -0.64176 1.81605 0
M  V30 25 H -3.37603 -2.22213 -1.71455 0
M  V30 26 H -4.32681 -0.898646 -0.986094 0
M  V30 END ATOM
M  V30 BEGIN BOND
M  V30 1 1 1 2
M  V30 2 1 2 3
M  V30 3 1 3 4
M  V30 4 1 4 5
M  V30 5 2 5 6
M  V30 6 1 6 7
M  V30 7 2 7 8
M  V30 8 1 8 9
M  V30 9 2 9 10
M  V30 10 1 10 11
M  V30 11 1 9 12
M  V30 12 1 8 13
M  V30 13 1 10 5
M  V30 14 1 1 14
M  V30 15 1 1 15
M  V30 16 1 2 16
M  V30 17 1 2 17
M  V30 18 1 3 18
M  V30 19 1 3 19
M  V30 20 1 4 20
M  V30 21 1 7 21
M  V30 22 1 12 22
M  V30 23 1 12 23
M  V30 24 1 12 24
M  V30 25 1 13 25
M  V30 26 1 13 26
M  V30 END BOND
M  V30 END CTAB
M  END
