
     RDKit          3D

  0  0  0  0  0  0  0  0  0  0999 V3000
M  V30 BEGIN CTAB
M  V30 COUNTS 26 26 0 0 0
M  V30 BEGIN ATOM
M  V30 1 N -2.9844 1.2883 -0.0987179 0
M  V30 2 C -1.97049 0.299233 -0.463823 0
M  V30 3 C -0.776737 0.581049 0.401445 0
M  V30 4 C 0.439283 -0.195929 0.0540506 0
M  V30 5 S 1.92389 0.358208 0.895133 0
M  V30 6 C 2.71958 1.76262 0.120818 0
M  V30 7 C 0.261601 -1.67555 0.393105 0
M  V30 8 C 1.27079 -1.88843 -0.734335 0
M  V30 9 C 0.595019 -0.668505 -1.35898 0
M  V30 10 N -1.14841 0.203133 1.76507 0
M  V30 11 H -2.90515 1.55699 0.910542 0
M  V30 12 H -3.92565 0.954886 -0.37193 0
M  V30 13 H -2.41033 -0.689605 -0.274861 0
M  V30 14 H -1.78434 0.480487 -1.54649 0
M  V30 15 H -0.600698 1.68414 0.361311 0
M  V30 16 H 2.21499 2.15266 -0.770355 0
M  V30 17 H 3.73838 1.42936 -0.198733 0
M  V30 18 H 2.89656 2.58749 0.856306 0
M  V30 19 H -0.731746 -2.05482 0.116127 0
M  V30 20 H 0.689375 -1.991 1.35048 0
M  V30 21 H 2.31241 -1.66178 -0.428926 0
M  V30 22 H 1.09333 -2.8387 -1.24573 0
M  V30 23 H -0.392917 -0.991601 -1.75135 0
M  V30 24 H 1.22272 -0.0804651 -2.0328 0
M  V30 25 H -1.4907 -0.792366 1.72871 0
M  V30 26 H -0.256349 0.190181 2.32393 0
M  V30 END ATOM
M  V30 BEGIN BOND
M  V30 1 1 1 2
M  V30 2 1 2 3
M  V30 3 1 3 4
M  V30 4 1 4 5
M  V30 5 1 5 6
M  V30 6 1 4 7
M  V30 7 1 7 8
M  V30 8 1 8 9
M  V30 9 1 3 10
M  V30 10 1 9 4
M  V30 11 1 1 11
M  V30 12 1 1 12
M  V30 13 1 2 13
M  V30 14 1 2 14
M  V30 15 1 3 15
M  V30 16 1 6 16
M  V30 17 1 6 17
M  V30 18 1 6 18
M  V30 19 1 7 19
M  V30 20 1 7 20
M  V30 21 1 8 21
M  V30 22 1 8 22
M  V30 23 1 9 23
M  V30 24 1 9 24
M  V30 25 1 10 25
M  V30 26 1 10 26
M  V30 END BOND
M  V30 END CTAB
M  END
