
     RDKit          3D

  0  0  0  0  0  0  0  0  0  0999 V3000
M  V30 BEGIN CTAB
M  V30 COUNTS 32 32 0 0 0
M  V30 BEGIN ATOM
M  V30 1 N 3.52579 1.5557 -0.424114 0
M  V30 2 C 3.90004 0.345503 0.307582 0
M  V30 3 C 3.58881 -0.839321 -0.539306 0
M  V30 4 N 2.18358 -0.873381 -0.841284 0
M  V30 5 C 1.14786 -0.991519 0.116812 0
M  V30 6 O 1.42832 -1.08206 1.3336 0
M  V30 7 C -0.256213 -1.01318 -0.261412 0
M  V30 8 C -0.640524 -1.9836 -1.19239 0
M  V30 9 C -1.95503 -2.06544 -1.59495 0
M  V30 10 Br -2.47251 -3.39881 -2.87607 0
M  V30 11 C -2.85194 -1.18478 -1.0638 0
M  V30 12 C -2.49374 -0.203656 -0.130225 0
M  V30 13 C -1.18115 -0.129735 0.263877 0
M  V30 14 C -0.749896 0.879989 1.25272 0
M  V30 15 S -3.72255 0.862602 0.476851 0
M  V30 16 O -3.93236 0.701234 1.95529 0
M  V30 17 O -5.05382 0.510045 -0.169412 0
M  V30 18 N -3.40865 2.50056 0.0565215 0
M  V30 19 H 3.96678 2.37831 0.0542121 0
M  V30 20 H 3.86392 1.49777 -1.41889 0
M  V30 21 H 5.02342 0.390658 0.450041 0
M  V30 22 H 3.38211 0.336718 1.26142 0
M  V30 23 H 3.83933 -1.76316 0.0482008 0
M  V30 24 H 4.2191 -0.783023 -1.44849 0
M  V30 25 H 1.94547 -0.802026 -1.87551 0
M  V30 26 H 0.0688251 -2.67739 -1.60999 0
M  V30 27 H -3.88007 -1.25221 -1.38223 0
M  V30 28 H -1.22928 1.86368 1.12929 0
M  V30 29 H 0.351401 1.09388 1.13848 0
M  V30 30 H -0.953358 0.523633 2.30647 0
M  V30 31 H -3.38173 2.54933 -0.99062 0
M  V30 32 H -4.27194 3.05368 0.345937 0
M  V30 END ATOM
M  V30 BEGIN BOND
M  V30 1 1 1 2
M  V30 2 1 2 3
M  V30 3 1 3 4
M  V30 4 1 4 5
M  V30 5 2 5 6
M  V30 6 1 5 7
M  V30 7 2 7 8
M  V30 8 1 8 9
M  V30 9 1 9 10
M  V30 10 2 9 11
M  V30 11 1 11 12
M  V30 12 2 12 13
M  V30 13 1 13 14
M  V30 14 1 12 15
M  V30 15 2 15 16
M  V30 16 2 15 17
M  V30 17 1 15 18
M  V30 18 1 13 7
M  V30 19 1 1 19
M  V30 20 1 1 20
M  V30 21 1 2 21
M  V30 22 1 2 22
M  V30 23 1 3 23
M  V30 24 1 3 24
M  V30 25 1 4 25
M  V30 26 1 8 26
M  V30 27 1 11 27
M  V30 28 1 14 28
M  V30 29 1 14 29
M  V30 30 1 14 30
M  V30 31 1 18 31
M  V30 32 1 18 32
M  V30 END BOND
M  V30 END CTAB
M  END
