
     RDKit          3D

  0  0  0  0  0  0  0  0  0  0999 V3000
M  V30 BEGIN CTAB
M  V30 COUNTS 49 51 0 0 0
M  V30 BEGIN ATOM
M  V30 1 N 6.46282 0.303741 0.542691 0
M  V30 2 C 5.08241 0.283236 1.04002 0
M  V30 3 C 4.55597 -1.12012 0.983141 0
M  V30 4 C 3.05807 -1.10994 1.041 0
M  V30 5 C 2.50653 -0.495062 -0.228235 0
M  V30 6 C 3.41643 0.560303 -0.790335 0
M  V30 7 C 4.21725 1.26529 0.280952 0
M  V30 8 N 1.17433 0.0211582 -0.0424269 0
M  V30 9 C 0.0578048 -0.504965 -0.738728 0
M  V30 10 O 0.263147 -1.45472 -1.54062 0
M  V30 11 C -1.32245 0.0256568 -0.550051 0
M  V30 12 C -1.72488 -0.132242 0.881811 0
M  V30 13 C -3.1867 -0.0672877 1.13842 0
M  V30 14 C -3.68331 1.33708 1.1241 0
M  V30 15 C -3.82907 1.96267 -0.203946 0
M  V30 16 C -3.97272 1.08738 -1.37468 0
M  V30 17 C -3.67821 -0.354559 -1.19777 0
M  V30 18 C -2.24495 -0.643935 -1.51638 0
M  V30 19 C -4.02272 -0.859778 0.178087 0
M  V30 20 N -3.85765 -2.26635 0.26729 0
M  V30 21 H 6.50447 0.859082 -0.359959 0
M  V30 22 H 6.77421 -0.682534 0.289803 0
M  V30 23 H 5.13867 0.627949 2.10013 0
M  V30 24 H 4.92992 -1.66743 1.8889 0
M  V30 25 H 4.94783 -1.61917 0.0718952 0
M  V30 26 H 2.69487 -2.13992 1.20615 0
M  V30 27 H 2.76906 -0.502352 1.93292 0
M  V30 28 H 2.44719 -1.31816 -0.971819 0
M  V30 29 H 4.15131 0.0636764 -1.45513 0
M  V30 30 H 2.78672 1.30804 -1.30726 0
M  V30 31 H 3.59646 1.8702 0.961489 0
M  V30 32 H 4.90188 1.9662 -0.241809 0
M  V30 33 H 1.05152 0.822709 0.644695 0
M  V30 34 H -1.26269 1.10608 -0.856999 0
M  V30 35 H -1.24823 0.719191 1.45072 0
M  V30 36 H -1.2439 -1.04804 1.31946 0
M  V30 37 H -3.37404 -0.490225 2.15593 0
M  V30 38 H -4.66021 1.34803 1.68493 0
M  V30 39 H -2.98931 1.92908 1.78983 0
M  V30 40 H -2.97817 2.69807 -0.33023 0
M  V30 41 H -4.73694 2.63888 -0.16234 0
M  V30 42 H -3.29024 1.46868 -2.1926 0
M  V30 43 H -4.99899 1.16357 -1.84458 0
M  V30 44 H -4.29348 -0.975953 -1.9149 0
M  V30 45 H -2.05316 -0.251127 -2.54457 0
M  V30 46 H -2.00063 -1.72171 -1.5576 0
M  V30 47 H -5.08664 -0.606027 0.366872 0
M  V30 48 H -4.7182 -2.80862 0.414834 0
M  V30 49 H -3.03136 -2.59572 0.785867 0
M  V30 END ATOM
M  V30 BEGIN BOND
M  V30 1 1 1 2
M  V30 2 1 2 3
M  V30 3 1 3 4
M  V30 4 1 4 5
M  V30 5 1 5 6
M  V30 6 1 6 7
M  V30 7 1 5 8
M  V30 8 1 8 9
M  V30 9 2 9 10
M  V30 10 1 9 11
M  V30 11 1 11 12
M  V30 12 1 12 13
M  V30 13 1 13 14
M  V30 14 1 14 15
M  V30 15 1 15 16
M  V30 16 1 16 17
M  V30 17 1 17 18
M  V30 18 1 17 19
M  V30 19 1 19 20
M  V30 20 1 7 2
M  V30 21 1 18 11
M  V30 22 1 19 13
M  V30 23 1 1 21
M  V30 24 1 1 22
M  V30 25 1 2 23
M  V30 26 1 3 24
M  V30 27 1 3 25
M  V30 28 1 4 26
M  V30 29 1 4 27
M  V30 30 1 5 28
M  V30 31 1 6 29
M  V30 32 1 6 30
M  V30 33 1 7 31
M  V30 34 1 7 32
M  V30 35 1 8 33
M  V30 36 1 11 34
M  V30 37 1 12 35
M  V30 38 1 12 36
M  V30 39 1 13 37
M  V30 40 1 14 38
M  V30 41 1 14 39
M  V30 42 1 15 40
M  V30 43 1 15 41
M  V30 44 1 16 42
M  V30 45 1 16 43
M  V30 46 1 17 44
M  V30 47 1 18 45
M  V30 48 1 18 46
M  V30 49 1 19 47
M  V30 50 1 20 48
M  V30 51 1 20 49
M  V30 END BOND
M  V30 END CTAB
M  END
