
     RDKit          3D

  0  0  0  0  0  0  0  0  0  0999 V3000
M  V30 BEGIN CTAB
M  V30 COUNTS 33 34 0 0 0
M  V30 BEGIN ATOM
M  V30 1 N 4.31821 0.748476 -0.0430028 0
M  V30 2 C 2.94505 0.311155 -0.32893 0
M  V30 3 C 1.96056 1.0736 0.513932 0
M  V30 4 C 0.772724 0.286622 0.933519 0
M  V30 5 N 0.402867 -0.784165 0.0735178 0
M  V30 6 C 1.47711 -1.61385 -0.375069 0
M  V30 7 C 2.83427 -1.13988 0.0267235 0
M  V30 8 S -0.695323 -0.352627 -1.16536 0
M  V30 9 O -0.886452 -1.58666 -2.03719 0
M  V30 10 O -0.0401673 0.677682 -2.04072 0
M  V30 11 C -2.18996 0.218524 -0.520963 0
M  V30 12 C -2.69861 1.48409 -0.760432 0
M  V30 13 C -3.89894 1.90518 -0.226833 0
M  V30 14 Cl -4.53078 3.51948 -0.542393 0
M  V30 15 C -4.62979 1.05207 0.573221 0
M  V30 16 N -4.13905 -0.168891 0.804239 0
M  V30 17 C -2.95588 -0.598943 0.284689 0
M  V30 18 N -2.46879 -1.90657 0.554999 0
M  V30 19 H 4.44565 0.639694 0.991067 0
M  V30 20 H 4.95221 0.0890899 -0.54803 0
M  V30 21 H 2.79195 0.422176 -1.40969 0
M  V30 22 H 2.51921 1.45692 1.40053 0
M  V30 23 H 1.67013 1.99366 -0.0613434 0
M  V30 24 H 0.951095 -0.125335 1.95403 0
M  V30 25 H -0.0975128 0.97342 1.02695 0
M  V30 26 H 1.44244 -1.64281 -1.48461 0
M  V30 27 H 1.34104 -2.6547 0.014233 0
M  V30 28 H 3.58546 -1.71099 -0.593011 0
M  V30 29 H 3.10135 -1.35911 1.07649 0
M  V30 30 H -2.14472 2.16834 -1.38292 0
M  V30 31 H -5.57366 1.381 0.993755 0
M  V30 32 H -2.93888 -2.74448 0.181788 0
M  V30 33 H -1.62281 -2.01216 1.14034 0
M  V30 END ATOM
M  V30 BEGIN BOND
M  V30 1 1 1 2
M  V30 2 1 2 3
M  V30 3 1 3 4
M  V30 4 1 4 5
M  V30 5 1 5 6
M  V30 6 1 6 7
M  V30 7 1 5 8
M  V30 8 2 8 9
M  V30 9 2 8 10
M  V30 10 1 8 11
M  V30 11 2 11 12
M  V30 12 1 12 13
M  V30 13 1 13 14
M  V30 14 2 13 15
M  V30 15 1 15 16
M  V30 16 2 16 17
M  V30 17 1 17 18
M  V30 18 1 7 2
M  V30 19 1 17 11
M  V30 20 1 1 19
M  V30 21 1 1 20
M  V30 22 1 2 21
M  V30 23 1 3 22
M  V30 24 1 3 23
M  V30 25 1 4 24
M  V30 26 1 4 25
M  V30 27 1 6 26
M  V30 28 1 6 27
M  V30 29 1 7 28
M  V30 30 1 7 29
M  V30 31 1 12 30
M  V30 32 1 15 31
M  V30 33 1 18 32
M  V30 34 1 18 33
M  V30 END BOND
M  V30 END CTAB
M  END
