
     RDKit          3D

  0  0  0  0  0  0  0  0  0  0999 V3000
M  V30 BEGIN CTAB
M  V30 COUNTS 19 18 0 0 0
M  V30 BEGIN ATOM
M  V30 1 C 4.0046 0.55959 0.708522 0
M  V30 2 C 2.66011 0.292341 0.141141 0
M  V30 3 C 1.5739 0.0892533 -0.334391 0
M  V30 4 C 0.258166 -0.143484 -0.927202 0
M  V30 5 N -0.679356 -0.391265 0.129437 0
M  V30 6 C -2.03574 -0.646958 -0.190669 0
M  V30 7 N -2.98812 0.208317 -0.00997991 0
M  V30 8 N -2.78213 1.48073 0.521988 0
M  V30 9 N -2.42261 -1.9067 -0.747045 0
M  V30 10 H 4.79905 0.282382 -0.0291381 0
M  V30 11 H 4.17508 -0.0228464 1.62084 0
M  V30 12 H 4.12434 1.65521 0.865661 0
M  V30 13 H -0.0748868 0.73025 -1.53181 0
M  V30 14 H 0.279889 -1.00413 -1.65464 0
M  V30 15 H -0.389449 -0.388026 1.12245 0
M  V30 16 H -2.9582 2.37742 0.0214583 0
M  V30 17 H -2.42379 1.54435 1.49717 0
M  V30 18 H -2.54177 -2.01219 -1.77103 0
M  V30 19 H -2.57908 -2.70426 -0.102755 0
M  V30 END ATOM
M  V30 BEGIN BOND
M  V30 1 1 1 2
M  V30 2 3 2 3
M  V30 3 1 3 4
M  V30 4 1 4 5
M  V30 5 1 5 6
M  V30 6 2 6 7 CFG=2
M  V30 7 1 7 8
M  V30 8 1 6 9
M  V30 9 1 1 10
M  V30 10 1 1 11
M  V30 11 1 1 12
M  V30 12 1 4 13
M  V30 13 1 4 14
M  V30 14 1 5 15
M  V30 15 1 8 16
M  V30 16 1 8 17
M  V30 17 1 9 18
M  V30 18 1 9 19
M  V30 END BOND
M  V30 END CTAB
M  END
