
     RDKit          3D

  0  0  0  0  0  0  0  0  0  0999 V3000
M  V30 BEGIN CTAB
M  V30 COUNTS 30 32 0 0 0
M  V30 BEGIN ATOM
M  V30 1 C -4.74544 1.95121 -1.21951 0
M  V30 2 S -2.95748 1.84944 -1.1378 0
M  V30 3 C -2.41298 0.342279 -0.35888 0
M  V30 4 N -3.3391 -0.505075 0.0610045 0
M  V30 5 C -3.10031 -1.66016 0.654035 0
M  V30 6 N -4.12275 -2.54209 1.09059 0
M  V30 7 N -1.79999 -1.98706 0.838671 0
M  V30 8 C -0.799148 -1.14603 0.422911 0
M  V30 9 C -1.04475 0.051927 -0.192064 0
M  V30 10 C 0.0283272 0.787611 -0.554625 0
M  V30 11 N -0.0730043 2.08201 -1.21775 0
M  V30 12 C 1.26644 0.267711 -0.273682 0
M  V30 13 S 0.904764 -1.21295 0.47836 0
M  V30 14 C 2.5819 0.872741 -0.576699 0
M  V30 15 O 2.6589 1.97337 -1.15152 0
M  V30 16 C 3.82134 0.169738 -0.198557 0
M  V30 17 C 4.08811 -0.652251 0.859326 0
M  V30 18 C 5.31965 -1.17279 0.952982 0
M  V30 19 C 6.221 -0.842627 -0.0184141 0
M  V30 20 S 5.33235 0.185261 -1.04017 0
M  V30 21 Cl 7.908 -1.37045 -0.162445 0
M  V30 22 H -5.12735 1.24154 -1.99346 0
M  V30 23 H -5.07285 2.96541 -1.48351 0
M  V30 24 H -5.21692 1.72193 -0.218372 0
M  V30 25 H -4.42547 -2.66305 2.08026 0
M  V30 26 H -4.61099 -3.11464 0.369983 0
M  V30 27 H -0.0656223 2.96915 -0.678152 0
M  V30 28 H -0.155569 2.15941 -2.25025 0
M  V30 29 H 3.29549 -0.867413 1.61647 0
M  V30 30 H 5.64347 -1.85414 1.77346 0
M  V30 END ATOM
M  V30 BEGIN BOND
M  V30 1 1 1 2
M  V30 2 1 2 3
M  V30 3 2 3 4
M  V30 4 1 4 5
M  V30 5 1 5 6
M  V30 6 2 5 7
M  V30 7 1 7 8
M  V30 8 2 8 9
M  V30 9 1 9 10
M  V30 10 1 10 11
M  V30 11 2 10 12
M  V30 12 1 12 13
M  V30 13 1 12 14
M  V30 14 2 14 15
M  V30 15 1 14 16
M  V30 16 2 16 17
M  V30 17 1 17 18
M  V30 18 2 18 19
M  V30 19 1 19 20
M  V30 20 1 19 21
M  V30 21 1 9 3
M  V30 22 1 20 16
M  V30 23 1 13 8
M  V30 24 1 1 22
M  V30 25 1 1 23
M  V30 26 1 1 24
M  V30 27 1 6 25
M  V30 28 1 6 26
M  V30 29 1 11 27
M  V30 30 1 11 28
M  V30 31 1 17 29
M  V30 32 1 18 30
M  V30 END BOND
M  V30 END CTAB
M  END
