
     RDKit          3D

  0  0  0  0  0  0  0  0  0  0999 V3000
M  V30 BEGIN CTAB
M  V30 COUNTS 40 42 0 0 0
M  V30 BEGIN ATOM
M  V30 1 N -2.55999 2.98618 2.58719 0
M  V30 2 C -1.34217 2.40108 2.15438 0
M  V30 3 N -0.143589 2.874 2.58171 0
M  V30 4 C 0.993896 2.26923 2.13004 0
M  V30 5 C 0.929075 1.21183 1.26742 0
M  V30 6 N -0.271216 0.764974 0.861237 0
M  V30 7 C -1.40874 1.33914 1.288 0
M  V30 8 C -2.7091 0.829785 0.827408 0
M  V30 9 O -3.71969 1.41104 1.26445 0
M  V30 10 N -2.76429 -0.248418 -0.0518053 0
M  V30 11 C -3.88828 -0.891989 -0.615351 0
M  V30 12 C -3.70601 -1.97489 -1.48976 0
M  V30 13 N -4.73824 -2.61525 -2.04745 0
M  V30 14 C -6.00683 -2.27928 -1.81936 0
M  V30 15 C -6.27715 -1.2317 -0.976814 0
M  V30 16 C -5.20048 -0.558421 -0.390759 0
M  V30 17 C 2.14684 0.585516 0.801096 0
M  V30 18 C 3.40717 0.986905 1.1724 0
M  V30 19 C 4.53478 0.338465 0.684899 0
M  V30 20 C 4.38721 -0.717161 -0.179158 0
M  V30 21 C 3.14569 -1.15735 -0.581364 0
M  V30 22 C 2.05097 -0.499282 -0.0848598 0
M  V30 23 S 5.8384 -1.52311 -0.783289 0
M  V30 24 N 6.31754 -0.740644 -2.2225 0
M  V30 25 O 5.4452 -2.94509 -1.0603 0
M  V30 26 O 6.88077 -1.44772 0.29544 0
M  V30 27 H -3.05886 2.56739 3.38389 0
M  V30 28 H -2.93067 3.81608 2.10582 0
M  V30 29 H 1.93463 2.70137 2.51503 0
M  V30 30 H -1.80827 -0.656376 -0.349779 0
M  V30 31 H -2.68066 -2.27686 -1.69887 0
M  V30 32 H -6.85922 -2.79063 -2.2657 0
M  V30 33 H -7.2739 -0.891583 -0.735645 0
M  V30 34 H -5.43773 0.262782 0.2688 0
M  V30 35 H 3.56355 1.81908 1.85499 0
M  V30 36 H 5.52274 0.651973 0.975034 0
M  V30 37 H 3.10482 -1.99377 -1.2633 0
M  V30 38 H 1.07031 -0.814318 -0.375984 0
M  V30 39 H 7.2496 -0.23885 -2.12167 0
M  V30 40 H 6.26187 -1.32413 -3.06397 0
M  V30 END ATOM
M  V30 BEGIN BOND
M  V30 1 1 1 2
M  V30 2 2 2 3
M  V30 3 1 3 4
M  V30 4 2 4 5
M  V30 5 1 5 6
M  V30 6 2 6 7
M  V30 7 1 7 8
M  V30 8 2 8 9
M  V30 9 1 8 10
M  V30 10 1 10 11
M  V30 11 2 11 12
M  V30 12 1 12 13
M  V30 13 2 13 14
M  V30 14 1 14 15
M  V30 15 2 15 16
M  V30 16 1 5 17
M  V30 17 2 17 18
M  V30 18 1 18 19
M  V30 19 2 19 20
M  V30 20 1 20 21
M  V30 21 2 21 22
M  V30 22 1 20 23
M  V30 23 1 23 24
M  V30 24 2 23 25
M  V30 25 2 23 26
M  V30 26 1 7 2
M  V30 27 1 16 11
M  V30 28 1 22 17
M  V30 29 1 1 27
M  V30 30 1 1 28
M  V30 31 1 4 29
M  V30 32 1 10 30
M  V30 33 1 12 31
M  V30 34 1 14 32
M  V30 35 1 15 33
M  V30 36 1 16 34
M  V30 37 1 18 35
M  V30 38 1 19 36
M  V30 39 1 21 37
M  V30 40 1 22 38
M  V30 41 1 24 39
M  V30 42 1 24 40
M  V30 END BOND
M  V30 END CTAB
M  END
