
     RDKit          3D

  0  0  0  0  0  0  0  0  0  0999 V3000
M  V30 BEGIN CTAB
M  V30 COUNTS 22 23 0 0 0
M  V30 BEGIN ATOM
M  V30 1 N -2.7732 -1.54582 0.220101 0
M  V30 2 C -1.61961 -0.742567 0.153778 0
M  V30 3 C -0.383697 -1.36896 0.0831379 0
M  V30 4 Br -0.289799 -3.26851 0.07833 0
M  V30 5 C 0.782312 -0.645308 0.0161128 0
M  V30 6 C 2.00492 -1.27808 -0.0537664 0
M  V30 7 C 3.165 -0.545869 -0.120462 0
M  V30 8 C 3.14044 0.829674 -0.119455 0
M  V30 9 C 1.90919 1.45144 -0.0490742 0
M  V30 10 C 0.738917 0.731053 0.018201 0
M  V30 11 C -0.487782 1.34785 0.0883189 0
M  V30 12 Br -0.564704 3.25871 0.092166 0
M  V30 13 C -1.6746 0.614474 0.15654 0
M  V30 14 N -2.92462 1.26434 0.227996 0
M  V30 15 H -3.18308 -1.9049 -0.651412 0
M  V30 16 H -3.202 -1.7719 1.12549 0
M  V30 17 H 2.02776 -2.35345 -0.0547509 0
M  V30 18 H 4.14182 -1.0339 -0.176325 0
M  V30 19 H 4.06795 1.41506 -0.172784 0
M  V30 20 H 1.89042 2.54386 -0.0482978 0
M  V30 21 H -3.32231 1.55982 1.13204 0
M  V30 22 H -3.44332 1.44298 -0.646448 0
M  V30 END ATOM
M  V30 BEGIN BOND
M  V30 1 1 1 2
M  V30 2 2 2 3
M  V30 3 1 3 4
M  V30 4 1 3 5
M  V30 5 2 5 6
M  V30 6 1 6 7
M  V30 7 2 7 8
M  V30 8 1 8 9
M  V30 9 2 9 10
M  V30 10 1 10 11
M  V30 11 1 11 12
M  V30 12 2 11 13
M  V30 13 1 13 14
M  V30 14 1 13 2
M  V30 15 1 10 5
M  V30 16 1 1 15
M  V30 17 1 1 16
M  V30 18 1 6 17
M  V30 19 1 7 18
M  V30 20 1 8 19
M  V30 21 1 9 20
M  V30 22 1 14 21
M  V30 23 1 14 22
M  V30 END BOND
M  V30 END CTAB
M  END
