
     RDKit          3D

  0  0  0  0  0  0  0  0  0  0999 V3000
M  V30 BEGIN CTAB
M  V30 COUNTS 38 39 0 0 0
M  V30 BEGIN ATOM
M  V30 1 C -5.05843 1.46702 0.392695 0
M  V30 2 O -3.95515 2.27582 0.671653 0
M  V30 3 C -2.6769 1.78182 0.473728 0
M  V30 4 C -2.48646 0.501117 0.00443404 0
M  V30 5 C -1.25579 -0.0483841 -0.212647 0
M  V30 6 C -1.16197 -1.42323 -0.67997 0
M  V30 7 C -2.55612 -1.89327 -1.13818 0
M  V30 8 C -0.815501 -2.40582 0.426868 0
M  V30 9 C -0.127388 0.748048 0.0609223 0
M  V30 10 O 1.0716 0.259568 -0.135264 0
M  V30 11 C 2.37271 0.355788 -0.0890041 0
M  V30 12 C 3.08583 1.40677 0.413185 0
M  V30 13 N 4.44799 1.41079 0.411873 0
M  V30 14 C 5.13835 0.392554 -0.0771507 0
M  V30 15 N 6.56938 0.387715 -0.0838169 0
M  V30 16 N 4.49493 -0.662329 -0.581318 0
M  V30 17 C 3.15103 -0.700525 -0.596934 0
M  V30 18 N 2.52235 -1.84379 -1.15728 0
M  V30 19 C -0.32493 2.04746 0.537348 0
M  V30 20 C -1.57898 2.5751 0.747747 0
M  V30 21 Br -1.8046 4.35287 1.39916 0
M  V30 22 H -5.03418 0.490456 0.945983 0
M  V30 23 H -5.11092 1.18449 -0.696658 0
M  V30 24 H -5.986 1.99693 0.722055 0
M  V30 25 H -3.41848 -0.0653476 -0.188667 0
M  V30 26 H -0.499301 -1.54024 -1.53552 0
M  V30 27 H -2.45305 -2.90945 -1.62434 0
M  V30 28 H -3.16888 -2.08574 -0.229903 0
M  V30 29 H -3.00546 -1.21282 -1.86142 0
M  V30 30 H 0.154881 -2.21221 0.890637 0
M  V30 31 H -1.62741 -2.45161 1.163 0
M  V30 32 H -0.756788 -3.40367 -0.0575923 0
M  V30 33 H 2.60433 2.29648 0.848918 0
M  V30 34 H 7.09574 1.26514 0.0134355 0
M  V30 35 H 7.07254 -0.505463 -0.186824 0
M  V30 36 H 1.97168 -1.80568 -2.04484 0
M  V30 37 H 2.62177 -2.75008 -0.65265 0
M  V30 38 H 0.487592 2.72374 0.766527 0
M  V30 END ATOM
M  V30 BEGIN BOND
M  V30 1 1 1 2
M  V30 2 1 2 3
M  V30 3 2 3 4
M  V30 4 1 4 5
M  V30 5 1 5 6
M  V30 6 1 6 7
M  V30 7 1 6 8
M  V30 8 2 5 9
M  V30 9 1 9 10
M  V30 10 1 10 11
M  V30 11 2 11 12
M  V30 12 1 12 13
M  V30 13 2 13 14
M  V30 14 1 14 15
M  V30 15 1 14 16
M  V30 16 2 16 17
M  V30 17 1 17 18
M  V30 18 1 9 19
M  V30 19 2 19 20
M  V30 20 1 20 21
M  V30 21 1 20 3
M  V30 22 1 17 11
M  V30 23 1 1 22
M  V30 24 1 1 23
M  V30 25 1 1 24
M  V30 26 1 4 25
M  V30 27 1 6 26
M  V30 28 1 7 27
M  V30 29 1 7 28
M  V30 30 1 7 29
M  V30 31 1 8 30
M  V30 32 1 8 31
M  V30 33 1 8 32
M  V30 34 1 12 33
M  V30 35 1 15 34
M  V30 36 1 15 35
M  V30 37 1 18 36
M  V30 38 1 18 37
M  V30 39 1 19 38
M  V30 END BOND
M  V30 END CTAB
M  END
