
     RDKit          3D

  0  0  0  0  0  0  0  0  0  0999 V3000
M  V30 BEGIN CTAB
M  V30 COUNTS 21 21 0 0 0
M  V30 BEGIN ATOM
M  V30 1 N -2.64405 -2.21348 -0.381662 0
M  V30 2 C -1.46943 -1.47474 -0.0854611 0
M  V30 3 C -1.40473 -0.153434 -0.479049 0
M  V30 4 S -2.8077 0.566095 -1.34564 0
M  V30 5 C -2.47043 2.2463 -1.73072 0
M  V30 6 N -2.25624 3.36799 -1.98574 0
M  V30 7 C -0.283793 0.597731 -0.211157 0
M  V30 8 C 0.816941 0.0558671 0.461445 0
M  V30 9 C 0.744941 -1.25436 0.848169 0
M  V30 10 C -0.381905 -2.01042 0.579168 0
M  V30 11 S 2.17303 1.09162 0.744907 0
M  V30 12 N 3.3142 1.0339 -0.543381 0
M  V30 13 O 1.75334 2.53826 0.9288 0
M  V30 14 O 2.88718 0.630992 1.99194 0
M  V30 15 H -3.00307 -2.9998 0.203695 0
M  V30 16 H -3.19601 -1.95434 -1.25189 0
M  V30 17 H -0.279657 1.62412 -0.537811 0
M  V30 18 H 1.60126 -1.69268 1.37679 0
M  V30 19 H -0.426893 -3.03903 0.887999 0
M  V30 20 H 3.08702 1.77105 -1.25736 0
M  V30 21 H 4.246 1.26835 -0.159045 0
M  V30 END ATOM
M  V30 BEGIN BOND
M  V30 1 1 1 2
M  V30 2 2 2 3
M  V30 3 1 3 4
M  V30 4 1 4 5
M  V30 5 3 5 6
M  V30 6 1 3 7
M  V30 7 2 7 8
M  V30 8 1 8 9
M  V30 9 2 9 10
M  V30 10 1 8 11
M  V30 11 1 11 12
M  V30 12 2 11 13
M  V30 13 2 11 14
M  V30 14 1 10 2
M  V30 15 1 1 15
M  V30 16 1 1 16
M  V30 17 1 7 17
M  V30 18 1 9 18
M  V30 19 1 10 19
M  V30 20 1 12 20
M  V30 21 1 12 21
M  V30 END BOND
M  V30 END CTAB
M  END
