
     RDKit          3D

  0  0  0  0  0  0  0  0  0  0999 V3000
M  V30 BEGIN CTAB
M  V30 COUNTS 52 54 0 0 0
M  V30 BEGIN ATOM
M  V30 1 N -1.66817 1.24474 1.77511 0
M  V30 2 C -2.45343 0.388548 0.945741 0
M  V30 3 C -3.89342 0.911902 0.991512 0
M  V30 4 C -4.85377 -0.13258 0.468234 0
M  V30 5 C -5.23625 0.0931079 -0.956462 0
M  V30 6 C -4.34337 -0.515818 -1.97552 0
M  V30 7 C -3.36467 -1.51077 -1.49194 0
M  V30 8 C -2.04293 -0.994601 -1.0176 0
M  V30 9 C -2.02361 0.396448 -0.487405 0
M  V30 10 C -0.676305 0.97411 -0.713227 0
M  V30 11 O -0.59006 2.10932 -1.31865 0
M  V30 12 N 0.551722 0.399575 -0.323848 0
M  V30 13 C 1.85513 1.01214 -0.539785 0
M  V30 14 C 2.76607 -0.193785 -0.551621 0 CFG=2
M  V30 15 C 2.24374 -0.925405 0.665961 0 CFG=1
M  V30 16 C 0.7384 -0.872044 0.327716 0
M  V30 17 N 2.67908 -2.28405 0.7444 0
M  V30 18 C 4.16053 0.213609 -0.443032 0
M  V30 19 C 5.12307 -0.179044 -1.34497 0
M  V30 20 C 6.44674 0.220066 -1.22353 0
M  V30 21 C 6.82118 1.02714 -0.18254 0
M  V30 22 C 5.88724 1.43466 0.73108 0
M  V30 23 C 4.55744 1.02513 0.59666 0
M  V30 24 H -2.0024 2.21636 1.77077 0
M  V30 25 H -1.61053 0.888143 2.73756 0
M  V30 26 H -2.47427 -0.608548 1.41974 0
M  V30 27 H -4.13832 1.27016 1.99902 0
M  V30 28 H -3.92123 1.80201 0.318546 0
M  V30 29 H -5.7948 0.0513518 1.07658 0
M  V30 30 H -4.56393 -1.15096 0.737749 0
M  V30 31 H -5.21582 1.21112 -1.12275 0
M  V30 32 H -6.30376 -0.186551 -1.07477 0
M  V30 33 H -3.82802 0.229979 -2.61086 0
M  V30 34 H -5.03384 -1.0306 -2.71944 0
M  V30 35 H -3.12469 -2.17726 -2.38472 0
M  V30 36 H -3.7793 -2.24723 -0.76855 0
M  V30 37 H -1.74672 -1.65522 -0.146445 0
M  V30 38 H -1.2456 -1.18481 -1.77021 0
M  V30 39 H -2.73504 1.00002 -1.12197 0
M  V30 40 H 2.14114 1.64515 0.317501 0
M  V30 41 H 1.89384 1.57313 -1.49298 0
M  V30 42 H 2.57579 -0.849964 -1.42832 0
M  V30 43 H 2.46046 -0.318705 1.56396 0
M  V30 44 H 0.137008 -1.06066 1.20695 0
M  V30 45 H 0.627746 -1.72543 -0.407697 0
M  V30 46 H 1.95267 -2.97927 0.466353 0
M  V30 47 H 3.02124 -2.44632 1.7285 0
M  V30 48 H 4.88401 -0.812051 -2.18033 0
M  V30 49 H 7.17812 -0.103552 -1.94549 0
M  V30 50 H 7.86546 1.35473 -0.0683027 0
M  V30 51 H 6.2151 2.07169 1.54161 0
M  V30 52 H 3.88134 1.3809 1.34637 0
M  V30 END ATOM
M  V30 BEGIN BOND
M  V30 1 1 1 2
M  V30 2 1 2 3
M  V30 3 1 3 4
M  V30 4 1 4 5
M  V30 5 1 5 6
M  V30 6 1 6 7
M  V30 7 1 7 8
M  V30 8 1 8 9
M  V30 9 1 9 10
M  V30 10 2 10 11
M  V30 11 1 10 12
M  V30 12 1 12 13
M  V30 13 1 13 14
M  V30 14 1 14 15
M  V30 15 1 15 16
M  V30 16 1 15 17
M  V30 17 1 14 18
M  V30 18 2 18 19
M  V30 19 1 19 20
M  V30 20 2 20 21
M  V30 21 1 21 22
M  V30 22 2 22 23
M  V30 23 1 9 2
M  V30 24 1 16 12
M  V30 25 1 23 18
M  V30 26 1 1 24
M  V30 27 1 1 25
M  V30 28 1 2 26
M  V30 29 1 3 27
M  V30 30 1 3 28
M  V30 31 1 4 29
M  V30 32 1 4 30
M  V30 33 1 5 31
M  V30 34 1 5 32
M  V30 35 1 6 33
M  V30 36 1 6 34
M  V30 37 1 7 35
M  V30 38 1 7 36
M  V30 39 1 8 37
M  V30 40 1 8 38
M  V30 41 1 9 39
M  V30 42 1 13 40
M  V30 43 1 13 41
M  V30 44 1 14 42 CFG=3
M  V30 45 1 15 43 CFG=1
M  V30 46 1 16 44
M  V30 47 1 16 45
M  V30 48 1 17 46
M  V30 49 1 17 47
M  V30 50 1 19 48
M  V30 51 1 20 49
M  V30 52 1 21 50
M  V30 53 1 22 51
M  V30 54 1 23 52
M  V30 END BOND
M  V30 END CTAB
M  END
