
     RDKit          3D

  0  0  0  0  0  0  0  0  0  0999 V3000
M  V30 BEGIN CTAB
M  V30 COUNTS 38 38 0 0 0
M  V30 BEGIN ATOM
M  V30 1 N 3.17475 1.69367 -0.209717 0
M  V30 2 C 3.26722 0.661254 0.750206 0 CFG=2
M  V30 3 C 3.72199 -0.617917 0.134859 0
M  V30 4 C 2.62646 -1.31119 -0.647863 0
M  V30 5 C 1.34828 -1.39796 0.217262 0
M  V30 6 N 0.940575 -0.0829116 0.591257 0
M  V30 7 C 1.95376 0.58286 1.4804 0
M  V30 8 C -0.210483 0.642115 0.248386 0
M  V30 9 O -0.273452 1.83094 0.805978 0
M  V30 10 C -1.3139 0.266055 -0.617631 0 CFG=2
M  V30 11 C -2.57791 0.210056 0.232825 0
M  V30 12 C -2.86073 1.54587 0.850613 0
M  V30 13 C -2.37834 -0.879338 1.24481 0
M  V30 14 C -3.78611 -0.172408 -0.612785 0
M  V30 15 N -1.15002 -0.906203 -1.36841 0
M  V30 16 H 3.45214 1.50305 -1.11567 0
M  V30 17 H 2.73545 2.50959 0.0616441 0
M  V30 18 H 4.03032 0.955194 1.51203 0
M  V30 19 H 4.52765 -0.386862 -0.585415 0
M  V30 20 H 4.12176 -1.33216 0.883433 0
M  V30 21 H 2.92461 -2.33062 -0.89191 0
M  V30 22 H 2.34537 -0.731177 -1.5329 0
M  V30 23 H 0.66673 -2.03543 -0.327021 0
M  V30 24 H 1.71339 -1.93321 1.16349 0
M  V30 25 H 1.59996 1.61384 1.65673 0
M  V30 26 H 2.02874 0.0711559 2.4366 0
M  V30 27 H -1.51463 1.11924 -1.33704 0
M  V30 28 H -3.9726 1.70053 1.00898 0
M  V30 29 H -2.45842 1.63855 1.89879 0
M  V30 30 H -2.57762 2.40024 0.202304 0
M  V30 31 H -1.37398 -0.875455 1.7129 0
M  V30 32 H -3.14751 -0.823175 2.05152 0
M  V30 33 H -2.51306 -1.875 0.774537 0
M  V30 34 H -3.83422 0.410439 -1.55599 0
M  V30 35 H -4.67857 0.140823 -0.0135622 0
M  V30 36 H -3.87089 -1.25271 -0.767491 0
M  V30 37 H -1.648 -1.74882 -1.06848 0
M  V30 38 H -1.03872 -0.802909 -2.39251 0
M  V30 END ATOM
M  V30 BEGIN BOND
M  V30 1 1 1 2
M  V30 2 1 2 3
M  V30 3 1 3 4
M  V30 4 1 4 5
M  V30 5 1 5 6
M  V30 6 1 6 7
M  V30 7 1 6 8
M  V30 8 2 8 9
M  V30 9 1 8 10
M  V30 10 1 10 11
M  V30 11 1 11 12
M  V30 12 1 11 13
M  V30 13 1 11 14
M  V30 14 1 10 15
M  V30 15 1 7 2
M  V30 16 1 1 16
M  V30 17 1 1 17
M  V30 18 1 2 18 CFG=1
M  V30 19 1 3 19
M  V30 20 1 3 20
M  V30 21 1 4 21
M  V30 22 1 4 22
M  V30 23 1 5 23
M  V30 24 1 5 24
M  V30 25 1 7 25
M  V30 26 1 7 26
M  V30 27 1 10 27 CFG=3
M  V30 28 1 12 28
M  V30 29 1 12 29
M  V30 30 1 12 30
M  V30 31 1 13 31
M  V30 32 1 13 32
M  V30 33 1 13 33
M  V30 34 1 14 34
M  V30 35 1 14 35
M  V30 36 1 14 36
M  V30 37 1 15 37
M  V30 38 1 15 38
M  V30 END BOND
M  V30 END CTAB
M  END
