
     RDKit          3D

  0  0  0  0  0  0  0  0  0  0999 V3000
M  V30 BEGIN CTAB
M  V30 COUNTS 114 113 0 0 0
M  V30 BEGIN ATOM
M  V30 1 C -4.4487 0.949496 1.56727 0 CFG=1
M  V30 2 N -4.85997 1.0107 3.00712 0
M  V30 3 C -3.06217 1.3236 1.52937 0
M  V30 4 C -2.22061 1.29387 0.315559 0
M  V30 5 C -1.82047 -0.118898 -0.131788 0
M  V30 6 C -0.996206 -0.730043 1.00606 0
M  V30 7 N 0.237292 -0.0534325 1.28323 0
M  V30 8 C 1.38038 -0.0702954 0.455856 0
M  V30 9 O 1.42872 -0.695634 -0.614054 0
M  V30 10 C 2.59886 0.699499 0.895682 0
M  V30 11 C 3.7952 -0.0895209 0.510321 0
M  V30 12 C 5.12287 0.556252 0.869477 0
M  V30 13 C 5.44274 1.79294 0.110154 0
M  V30 14 C 5.60471 1.70368 -1.33588 0
M  V30 15 C 6.73659 1.14679 -2.05939 0
M  V30 16 C 7.29094 -0.15429 -1.68056 0
M  V30 17 C 8.29314 -0.208717 -0.576046 0
M  V30 18 C 9.63767 0.416042 -1.05789 0
M  V30 19 C 10.5712 0.424612 0.116477 0
M  V30 20 C 11.9501 0.879486 -0.214258 0
M  V30 21 C 12.7327 0.924099 1.10817 0
M  V30 22 C 14.1618 1.29465 0.934132 0
M  V30 23 C 14.9164 0.281975 0.0875453 0
M  V30 24 C 14.8562 -1.04953 0.778235 0
M  V30 25 C 15.6314 -2.06784 -0.0195202 0
M  V30 26 C 17.0565 -1.62694 -0.138255 0
M  V30 27 C -4.79635 -0.459782 1.13752 0
M  V30 28 O -4.38369 -1.3134 1.92511 0
M  V30 29 N -5.50113 -0.621842 -0.0127086 0
M  V30 30 C -6.22219 -0.790671 -1.1891 0
M  V30 31 C -7.56142 -1.47598 -0.884548 0
M  V30 32 C -8.36381 -0.702595 0.117156 0
M  V30 33 N -9.62625 -1.36893 0.346528 0
M  V30 34 C -10.4659 -1.19075 -0.801679 0
M  V30 35 C -11.8466 -1.77255 -0.644312 0
M  V30 36 C -12.6232 -1.42086 -1.89793 0
M  V30 37 C -14.0551 -1.9668 -1.76744 0
M  V30 38 N -14.663 -1.3851 -0.585565 0
M  V30 39 C -14.9141 0.0186644 -0.675662 0
M  V30 40 C -15.3627 0.499899 0.708027 0
M  V30 41 C -15.6506 1.98699 0.716122 0
M  V30 42 N -16.7531 2.19879 -0.20832 0
M  V30 43 H -5.13618 1.67766 1.08075 0
M  V30 44 H -5.88315 0.690505 3.0703 0
M  V30 45 H -4.34921 0.217147 3.49094 0
M  V30 46 H -2.52305 0.742557 2.36962 0
M  V30 47 H -3.02247 2.42122 1.91707 0
M  V30 48 H -1.27867 1.86275 0.442125 0
M  V30 49 H -2.71805 1.72486 -0.588052 0
M  V30 50 H -1.09558 0.0291398 -0.990446 0
M  V30 51 H -2.60691 -0.768756 -0.418525 0
M  V30 52 H -0.678402 -1.7481 0.599213 0
M  V30 53 H -1.58797 -0.947878 1.88614 0
M  V30 54 H 0.263855 0.508969 2.1872 0
M  V30 55 H 2.59532 1.73881 0.559435 0
M  V30 56 H 2.54937 0.765569 2.0258 0
M  V30 57 H 3.79112 -0.264812 -0.590106 0
M  V30 58 H 3.78111 -1.07135 0.995944 0
M  V30 59 H 5.06178 0.870785 1.96925 0
M  V30 60 H 5.85651 -0.206862 0.831857 0
M  V30 61 H 6.40728 2.18792 0.571944 0
M  V30 62 H 4.72441 2.62831 0.334763 0
M  V30 63 H 5.38636 2.7559 -1.80006 0
M  V30 64 H 4.6535 1.17036 -1.79362 0
M  V30 65 H 6.45344 1.13246 -3.17759 0
M  V30 66 H 7.55073 1.95073 -2.06015 0
M  V30 67 H 6.4601 -0.899094 -1.43529 0
M  V30 68 H 7.77455 -0.626129 -2.59398 0
M  V30 69 H 8.03313 0.355803 0.332251 0
M  V30 70 H 8.49997 -1.28671 -0.37267 0
M  V30 71 H 9.42599 1.3991 -1.46507 0
M  V30 72 H 10.0033 -0.245942 -1.8979 0
M  V30 73 H 10.1343 1.1158 0.855369 0
M  V30 74 H 10.6414 -0.631326 0.525293 0
M  V30 75 H 12.4096 0.130979 -0.893971 0
M  V30 76 H 12.0232 1.86171 -0.692413 0
M  V30 77 H 12.6216 -0.067508 1.57709 0
M  V30 78 H 12.1863 1.67928 1.74733 0
M  V30 79 H 14.6334 1.28911 1.92541 0
M  V30 80 H 14.2251 2.29519 0.436371 0
M  V30 81 H 15.9701 0.605573 -0.0639177 0
M  V30 82 H 14.4334 0.191931 -0.894748 0
M  V30 83 H 13.8144 -1.42689 0.827517 0
M  V30 84 H 15.2833 -0.992331 1.81897 0
M  V30 85 H 15.1506 -2.13414 -1.0094 0
M  V30 86 H 15.5331 -3.09259 0.45688 0
M  V30 87 H 17.7061 -2.47947 0.194239 0
M  V30 88 H 17.2902 -1.28781 -1.18412 0
M  V30 89 H 17.2981 -0.801367 0.543061 0
M  V30 90 H -5.51359 -1.99158 0.137173 0
M  V30 91 H -6.53027 0.205325 -1.62076 0
M  V30 92 H -5.67534 -1.32109 -1.98312 0
M  V30 93 H -7.3169 -2.46019 -0.371044 0
M  V30 94 H -8.04913 -1.66493 -1.83817 0
M  V30 95 H -7.80381 -0.628177 1.08204 0
M  V30 96 H -8.59825 0.334087 -0.249405 0
M  V30 97 H -10.0519 -1.09273 1.24817 0
M  V30 98 H -10.0053 -1.46846 -1.74826 0
M  V30 99 H -10.625 -0.0679337 -0.882732 0
M  V30 100 H -12.3541 -1.52506 0.281448 0
M  V30 101 H -11.6974 -2.89654 -0.60414 0
M  V30 102 H -12.1587 -1.96694 -2.74008 0
M  V30 103 H -12.6047 -0.347888 -2.1442 0
M  V30 104 H -14.5678 -1.76919 -2.70577 0
M  V30 105 H -13.9673 -3.04084 -1.59806 0
M  V30 106 H -15.6156 -1.8775 -0.516994 0
M  V30 107 H -15.7926 0.278797 -1.34058 0
M  V30 108 H -14.0795 0.615197 -1.07191 0
M  V30 109 H -14.4642 0.331974 1.3813 0
M  V30 110 H -16.1875 -0.0651211 1.11251 0
M  V30 111 H -14.747 2.52753 0.415749 0
M  V30 112 H -15.9384 2.26784 1.75174 0
M  V30 113 H -17.2221 3.12715 -0.0711952 0
M  V30 114 H -17.4286 1.40761 -0.0321701 0
M  V30 END ATOM
M  V30 BEGIN BOND
M  V30 1 1 1 2
M  V30 2 1 1 3
M  V30 3 1 3 4
M  V30 4 1 4 5
M  V30 5 1 5 6
M  V30 6 1 6 7
M  V30 7 1 7 8
M  V30 8 2 8 9
M  V30 9 1 8 10
M  V30 10 1 10 11
M  V30 11 1 11 12
M  V30 12 1 12 13
M  V30 13 1 13 14
M  V30 14 1 14 15
M  V30 15 1 15 16
M  V30 16 1 16 17
M  V30 17 1 17 18
M  V30 18 1 18 19
M  V30 19 1 19 20
M  V30 20 1 20 21
M  V30 21 1 21 22
M  V30 22 1 22 23
M  V30 23 1 23 24
M  V30 24 1 24 25
M  V30 25 1 25 26
M  V30 26 1 1 27
M  V30 27 2 27 28
M  V30 28 1 27 29
M  V30 29 1 29 30
M  V30 30 1 30 31
M  V30 31 1 31 32
M  V30 32 1 32 33
M  V30 33 1 33 34
M  V30 34 1 34 35
M  V30 35 1 35 36
M  V30 36 1 36 37
M  V30 37 1 37 38
M  V30 38 1 38 39
M  V30 39 1 39 40
M  V30 40 1 40 41
M  V30 41 1 41 42
M  V30 42 1 1 43 CFG=3
M  V30 43 1 2 44
M  V30 44 1 2 45
M  V30 45 1 3 46
M  V30 46 1 3 47
M  V30 47 1 4 48
M  V30 48 1 4 49
M  V30 49 1 5 50
M  V30 50 1 5 51
M  V30 51 1 6 52
M  V30 52 1 6 53
M  V30 53 1 7 54
M  V30 54 1 10 55
M  V30 55 1 10 56
M  V30 56 1 11 57
M  V30 57 1 11 58
M  V30 58 1 12 59
M  V30 59 1 12 60
M  V30 60 1 13 61
M  V30 61 1 13 62
M  V30 62 1 14 63
M  V30 63 1 14 64
M  V30 64 1 15 65
M  V30 65 1 15 66
M  V30 66 1 16 67
M  V30 67 1 16 68
M  V30 68 1 17 69
M  V30 69 1 17 70
M  V30 70 1 18 71
M  V30 71 1 18 72
M  V30 72 1 19 73
M  V30 73 1 19 74
M  V30 74 1 20 75
M  V30 75 1 20 76
M  V30 76 1 21 77
M  V30 77 1 21 78
M  V30 78 1 22 79
M  V30 79 1 22 80
M  V30 80 1 23 81
M  V30 81 1 23 82
M  V30 82 1 24 83
M  V30 83 1 24 84
M  V30 84 1 25 85
M  V30 85 1 25 86
M  V30 86 1 26 87
M  V30 87 1 26 88
M  V30 88 1 26 89
M  V30 89 1 29 90
M  V30 90 1 30 91
M  V30 91 1 30 92
M  V30 92 1 31 93
M  V30 93 1 31 94
M  V30 94 1 32 95
M  V30 95 1 32 96
M  V30 96 1 33 97
M  V30 97 1 34 98
M  V30 98 1 34 99
M  V30 99 1 35 100
M  V30 100 1 35 101
M  V30 101 1 36 102
M  V30 102 1 36 103
M  V30 103 1 37 104
M  V30 104 1 37 105
M  V30 105 1 38 106
M  V30 106 1 39 107
M  V30 107 1 39 108
M  V30 108 1 40 109
M  V30 109 1 40 110
M  V30 110 1 41 111
M  V30 111 1 41 112
M  V30 112 1 42 113
M  V30 113 1 42 114
M  V30 END BOND
M  V30 END CTAB
M  END
