
     RDKit          3D

  0  0  0  0  0  0  0  0  0  0999 V3000
M  V30 BEGIN CTAB
M  V30 COUNTS 23 23 0 0 0
M  V30 BEGIN ATOM
M  V30 1 N -2.0902 1.1437 1.29881 0
M  V30 2 C -2.29245 0.0157963 0.426622 0
M  V30 3 C -0.996175 -0.660863 0.0739352 0
M  V30 4 N -1.1475 -1.78675 -0.790603 0
M  V30 5 C -0.0409757 -0.856737 1.24751 0
M  V30 6 C 1.06765 -0.463183 0.297615 0
M  V30 7 C 0.00935617 0.329595 -0.481335 0
M  V30 8 S 2.32585 0.618704 0.956367 0
M  V30 9 C 3.5349 0.946916 -0.356656 0
M  V30 10 H -1.8697 1.99469 0.748504 0
M  V30 11 H -2.93998 1.25662 1.89593 0
M  V30 12 H -2.9887 -0.686081 0.92821 0
M  V30 13 H -2.73208 0.403259 -0.524002 0
M  V30 14 H -0.446948 -1.77835 -1.56178 0
M  V30 15 H -2.1191 -1.78995 -1.19601 0
M  V30 16 H -0.204845 -0.112712 2.04395 0
M  V30 17 H -0.0219945 -1.9035 1.58917 0
M  V30 18 H 1.50382 -1.28406 -0.281126 0
M  V30 19 H -0.107464 1.37073 -0.0756256 0
M  V30 20 H 0.159398 0.27884 -1.57169 0
M  V30 21 H 4.5247 0.549652 -0.0264116 0
M  V30 22 H 3.57699 2.0264 -0.600981 0
M  V30 23 H 3.29546 0.387282 -1.29459 0
M  V30 END ATOM
M  V30 BEGIN BOND
M  V30 1 1 1 2
M  V30 2 1 2 3
M  V30 3 1 3 4
M  V30 4 1 3 5
M  V30 5 1 5 6
M  V30 6 1 6 7
M  V30 7 1 6 8
M  V30 8 1 8 9
M  V30 9 1 7 3
M  V30 10 1 1 10
M  V30 11 1 1 11
M  V30 12 1 2 12
M  V30 13 1 2 13
M  V30 14 1 4 14
M  V30 15 1 4 15
M  V30 16 1 5 16
M  V30 17 1 5 17
M  V30 18 1 6 18
M  V30 19 1 7 19
M  V30 20 1 7 20
M  V30 21 1 9 21
M  V30 22 1 9 22
M  V30 23 1 9 23
M  V30 END BOND
M  V30 END CTAB
M  END
