
     RDKit          3D

  0  0  0  0  0  0  0  0  0  0999 V3000
M  V30 BEGIN CTAB
M  V30 COUNTS 40 42 0 0 0
M  V30 BEGIN ATOM
M  V30 1 Cl 8.18721 0.128242 0.291461 0
M  V30 2 C 6.43857 0.0758896 0.295237 0
M  V30 3 C 5.73799 0.944336 -0.514076 0
M  V30 4 C 4.35127 0.93389 -0.539414 0
M  V30 5 C 3.63233 0.0627133 0.236709 0
M  V30 6 C 4.34901 -0.805217 1.04596 0
M  V30 7 C 5.71819 -0.800855 1.0764 0
M  V30 8 O 2.2682 0.0279783 0.234091 0
M  V30 9 C 1.36298 0.803149 -0.495176 0
M  V30 10 C 0.486597 1.53611 0.482887 0
M  V30 11 C -0.972974 1.48925 0.129345 0
M  V30 12 N -1.44501 0.168677 -0.167315 0
M  V30 13 C -0.560113 -0.796596 -0.733827 0
M  V30 14 C 0.586263 -0.101528 -1.41654 0
M  V30 15 C -2.79974 -0.142814 0.116201 0
M  V30 16 C -3.29858 -1.40109 -0.146467 0
M  V30 17 C -4.63104 -1.73135 0.124488 0
M  V30 18 N -5.12974 -3.02425 -0.14936 0
M  V30 19 N -5.39757 -0.751352 0.655827 0
M  V30 20 C -4.93914 0.480455 0.921441 0
M  V30 21 N -3.65372 0.749234 0.644054 0
M  V30 22 N -5.80214 1.4741 1.48447 0
M  V30 23 H 6.28938 1.63774 -1.13234 0
M  V30 24 H 3.89251 1.65221 -1.20579 0
M  V30 25 H 3.83404 -1.51758 1.68244 0
M  V30 26 H 6.29436 -1.48214 1.71197 0
M  V30 27 H 1.9148 1.5163 -1.13102 0
M  V30 28 H 0.615182 1.15513 1.49822 0
M  V30 29 H 0.792403 2.60259 0.485206 0
M  V30 30 H -1.21833 2.14859 -0.716004 0
M  V30 31 H -1.53469 1.86761 1.00804 0
M  V30 32 H -1.07727 -1.39062 -1.54062 0
M  V30 33 H -0.198324 -1.51126 0.0403409 0
M  V30 34 H 1.25907 -0.899462 -1.81658 0
M  V30 35 H 0.186324 0.429014 -2.30566 0
M  V30 36 H -2.68614 -2.17723 -0.568611 0
M  V30 37 H -4.94664 -3.48871 -1.05476 0
M  V30 38 H -5.68683 -3.51615 0.564893 0
M  V30 39 H -5.41103 2.37197 1.80316 0
M  V30 40 H -6.80766 1.28304 1.56638 0
M  V30 END ATOM
M  V30 BEGIN BOND
M  V30 1 1 1 2
M  V30 2 2 2 3
M  V30 3 1 3 4
M  V30 4 2 4 5
M  V30 5 1 5 6
M  V30 6 2 6 7
M  V30 7 1 5 8
M  V30 8 1 8 9
M  V30 9 1 9 10
M  V30 10 1 10 11
M  V30 11 1 11 12
M  V30 12 1 12 13
M  V30 13 1 13 14
M  V30 14 1 12 15
M  V30 15 2 15 16
M  V30 16 1 16 17
M  V30 17 1 17 18
M  V30 18 2 17 19
M  V30 19 1 19 20
M  V30 20 2 20 21
M  V30 21 1 20 22
M  V30 22 1 7 2
M  V30 23 1 14 9
M  V30 24 1 21 15
M  V30 25 1 3 23
M  V30 26 1 4 24
M  V30 27 1 6 25
M  V30 28 1 7 26
M  V30 29 1 9 27
M  V30 30 1 10 28
M  V30 31 1 10 29
M  V30 32 1 11 30
M  V30 33 1 11 31
M  V30 34 1 13 32
M  V30 35 1 13 33
M  V30 36 1 14 34
M  V30 37 1 14 35
M  V30 38 1 16 36
M  V30 39 1 18 37
M  V30 40 1 18 38
M  V30 41 1 22 39
M  V30 42 1 22 40
M  V30 END BOND
M  V30 END CTAB
M  END
