
     RDKit          3D

  0  0  0  0  0  0  0  0  0  0999 V3000
M  V30 BEGIN CTAB
M  V30 COUNTS 22 23 0 0 0
M  V30 BEGIN ATOM
M  V30 1 N -3.11083 -1.25492 -1.87647 0
M  V30 2 C -2.13487 -0.537875 -1.09367 0
M  V30 3 N -2.46812 0.619556 -0.523986 0
M  V30 4 C -1.5633 1.29867 0.210278 0
M  V30 5 N -1.93769 2.54319 0.817006 0
M  V30 6 N -0.32287 0.813438 0.371589 0
M  V30 7 C 0.0394711 -0.366616 -0.201026 0
M  V30 8 N -0.893622 -1.00583 -0.921759 0
M  V30 9 C 1.38878 -0.892572 -0.0244549 0
M  V30 10 C 1.8426 -2.07318 -0.56409 0
M  V30 11 O 3.11535 -2.25387 -0.20927 0
M  V30 12 N 3.51384 -1.24733 0.536304 0
M  V30 13 C 2.45971 -0.384964 0.667781 0
M  V30 14 C 2.42773 0.897716 1.42158 0
M  V30 15 H -3.33303 -0.847628 -2.79834 0
M  V30 16 H -3.52297 -2.11355 -1.48261 0
M  V30 17 H -2.22163 3.37308 0.253802 0
M  V30 18 H -1.9272 2.62608 1.85725 0
M  V30 19 H 1.2872 -2.77638 -1.18566 0
M  V30 20 H 1.78726 0.777023 2.30175 0
M  V30 21 H 3.47953 1.12089 1.72497 0
M  V30 22 H 2.09465 1.68506 0.719039 0
M  V30 END ATOM
M  V30 BEGIN BOND
M  V30 1 1 1 2
M  V30 2 2 2 3
M  V30 3 1 3 4
M  V30 4 1 4 5
M  V30 5 2 4 6
M  V30 6 1 6 7
M  V30 7 2 7 8
M  V30 8 1 7 9
M  V30 9 2 9 10
M  V30 10 1 10 11
M  V30 11 1 11 12
M  V30 12 2 12 13
M  V30 13 1 13 14
M  V30 14 1 8 2
M  V30 15 1 13 9
M  V30 16 1 1 15
M  V30 17 1 1 16
M  V30 18 1 5 17
M  V30 19 1 5 18
M  V30 20 1 10 19
M  V30 21 1 14 20
M  V30 22 1 14 21
M  V30 23 1 14 22
M  V30 END BOND
M  V30 END CTAB
M  END
