
     RDKit          3D

  0  0  0  0  0  0  0  0  0  0999 V3000
M  V30 BEGIN CTAB
M  V30 COUNTS 18 18 0 0 0
M  V30 BEGIN ATOM
M  V30 1 N 3.38048 0.155297 0.728483 0
M  V30 2 C 2.00195 -0.0291148 0.49697 0
M  V30 3 N 1.20601 -0.424531 1.50595 0
M  V30 4 C -0.106575 -0.605141 1.30563 0
M  V30 5 C -0.660041 -0.3843 0.0468038 0
M  V30 6 C 0.17478 0.0196342 -0.968804 0
M  V30 7 C 1.52587 0.208672 -0.774979 0
M  V30 8 Br 2.69081 0.766461 -2.16924 0
M  V30 9 S -2.39348 -0.625287 -0.20781 0
M  V30 10 O -2.9201 -1.67044 0.725627 0
M  V30 11 O -2.59768 -0.946195 -1.63844 0
M  V30 12 N -3.15198 0.891793 0.122344 0
M  V30 13 H 4.02865 -0.641893 0.747021 0
M  V30 14 H 3.73916 1.12161 0.882552 0
M  V30 15 H -0.7826 -0.928111 2.11157 0
M  V30 16 H -0.259517 0.191062 -1.94926 0
M  V30 17 H -2.56127 1.44884 0.778648 0
M  V30 18 H -3.31446 1.45165 -0.730195 0
M  V30 END ATOM
M  V30 BEGIN BOND
M  V30 1 1 1 2
M  V30 2 2 2 3
M  V30 3 1 3 4
M  V30 4 2 4 5
M  V30 5 1 5 6
M  V30 6 2 6 7
M  V30 7 1 7 8
M  V30 8 1 5 9
M  V30 9 2 9 10
M  V30 10 2 9 11
M  V30 11 1 9 12
M  V30 12 1 7 2
M  V30 13 1 1 13
M  V30 14 1 1 14
M  V30 15 1 4 15
M  V30 16 1 6 16
M  V30 17 1 12 17
M  V30 18 1 12 18
M  V30 END BOND
M  V30 END CTAB
M  END
