
     RDKit          3D

  0  0  0  0  0  0  0  0  0  0999 V3000
M  V30 BEGIN CTAB
M  V30 COUNTS 30 30 0 0 0
M  V30 BEGIN ATOM
M  V30 1 N 3.2054 -0.84127 0.789801 0
M  V30 2 C 2.8528 -0.346008 -0.516661 0
M  V30 3 C 1.36014 -0.44418 -0.766134 0
M  V30 4 N 0.558018 0.269914 0.125978 0
M  V30 5 C 0.657439 1.68184 0.0644858 0
M  V30 6 C -0.615803 2.44059 0.0778862 0
M  V30 7 C -1.73234 1.75804 -0.678362 0
M  V30 8 C -1.87495 0.327436 -0.302098 0
M  V30 9 C -0.713966 -0.250033 0.465514 0 CFG=1
M  V30 10 S -0.878491 -1.99172 0.456597 0
M  V30 11 O 0.201037 -2.68821 1.21892 0
M  V30 12 O -0.939242 -2.58689 -0.94739 0
M  V30 13 N -2.44512 -2.4054 1.11186 0
M  V30 14 H 2.45931 -0.883501 1.46522 0
M  V30 15 H 3.88567 -1.60251 0.799126 0
M  V30 16 H 3.24174 0.668611 -0.608104 0
M  V30 17 H 3.3937 -0.974339 -1.25512 0
M  V30 18 H 1.20138 -0.0435589 -1.80717 0
M  V30 19 H 1.15093 -1.53121 -0.722224 0
M  V30 20 H 1.18112 1.93326 -0.906095 0
M  V30 21 H 1.27069 2.04829 0.931259 0
M  V30 22 H -0.498376 3.45189 -0.413255 0
M  V30 23 H -1.01427 2.66525 1.09088 0
M  V30 24 H -2.66641 2.31386 -0.455704 0
M  V30 25 H -1.5573 1.8683 -1.77023 0
M  V30 26 H -2.82856 0.199248 0.289775 0
M  V30 27 H -2.07522 -0.262377 -1.24428 0
M  V30 28 H -0.886368 0.0590697 1.55774 0
M  V30 29 H -2.84972 -3.24355 0.7002 0
M  V30 30 H -3.04326 -1.59083 1.24758 0
M  V30 END ATOM
M  V30 BEGIN BOND
M  V30 1 1 1 2
M  V30 2 1 2 3
M  V30 3 1 3 4
M  V30 4 1 4 5
M  V30 5 1 5 6
M  V30 6 1 6 7
M  V30 7 1 7 8
M  V30 8 1 8 9
M  V30 9 1 9 10
M  V30 10 2 10 11
M  V30 11 2 10 12
M  V30 12 1 10 13
M  V30 13 1 9 4
M  V30 14 1 1 14
M  V30 15 1 1 15
M  V30 16 1 2 16
M  V30 17 1 2 17
M  V30 18 1 3 18
M  V30 19 1 3 19
M  V30 20 1 5 20
M  V30 21 1 5 21
M  V30 22 1 6 22
M  V30 23 1 6 23
M  V30 24 1 7 24
M  V30 25 1 7 25
M  V30 26 1 8 26
M  V30 27 1 8 27
M  V30 28 1 9 28 CFG=1
M  V30 29 1 13 29
M  V30 30 1 13 30
M  V30 END BOND
M  V30 END CTAB
M  END
