
     RDKit          3D

  0  0  0  0  0  0  0  0  0  0999 V3000
M  V30 BEGIN CTAB
M  V30 COUNTS 54 55 0 0 0
M  V30 BEGIN ATOM
M  V30 1 N 2.2217 -3.54435 -1.59674 0
M  V30 2 C 1.35825 -2.43182 -1.11163 0
M  V30 3 C 2.30313 -1.37297 -0.747973 0
M  V30 4 C 3.29735 -1.05759 -1.69909 0
M  V30 5 C 4.23282 -0.0877303 -1.45103 0
M  V30 6 C 4.23859 0.613918 -0.268268 0
M  V30 7 C 3.27778 0.3185 0.667072 0
M  V30 8 C 2.33529 -0.659659 0.415716 0
M  V30 9 C 5.26608 1.66906 -0.013351 0
M  V30 10 C 6.1475 1.2761 1.15219 0
M  V30 11 C 4.63024 3.0118 0.188299 0
M  V30 12 C 0.516386 -3.01359 -0.0506633 0
M  V30 13 N -0.439356 -2.16786 0.581807 0
M  V30 14 C -1.47796 -1.51548 -0.124506 0
M  V30 15 O -1.5616 -1.68834 -1.35921 0
M  V30 16 C -2.4555 -0.640103 0.574555 0
M  V30 17 C -3.42766 -0.118612 -0.41316 0
M  V30 18 C -4.4865 0.758301 0.097893 0
M  V30 19 C -5.31338 1.31965 -0.887002 0
M  V30 20 C -6.35837 2.15458 -0.581193 0
M  V30 21 C -6.6005 2.4494 0.741725 0
M  V30 22 C -5.79226 1.90237 1.72726 0
M  V30 23 C -4.73969 1.06012 1.40585 0
M  V30 24 N -3.96123 -1.11712 -1.33157 0
M  V30 25 C -1.68027 0.54904 1.17076 0
M  V30 26 H 2.50665 -4.14687 -0.774366 0
M  V30 27 H 1.67506 -4.12946 -2.2831 0
M  V30 28 H 0.771201 -2.16481 -2.04182 0
M  V30 29 H 3.30198 -1.60141 -2.62948 0
M  V30 30 H 4.97312 0.129895 -2.18841 0
M  V30 31 H 3.22961 0.833602 1.61373 0
M  V30 32 H 1.60651 -0.861074 1.17751 0
M  V30 33 H 5.92328 1.72429 -0.903279 0
M  V30 34 H 6.74085 0.376096 0.840654 0
M  V30 35 H 5.54765 0.964047 2.02917 0
M  V30 36 H 6.78289 2.13065 1.4208 0
M  V30 37 H 4.04806 2.97633 1.14462 0
M  V30 38 H 5.43219 3.7704 0.245592 0
M  V30 39 H 3.96201 3.20993 -0.666768 0
M  V30 40 H 1.17033 -3.4646 0.73037 0
M  V30 41 H -0.0848839 -3.84564 -0.532818 0
M  V30 42 H -0.401324 -2.00614 1.63106 0
M  V30 43 H -2.87947 -1.18974 1.41453 0
M  V30 44 H -2.81695 0.556291 -1.10923 0
M  V30 45 H -5.15623 1.11299 -1.93693 0
M  V30 46 H -6.97117 2.56785 -1.3448 0
M  V30 47 H -7.41567 3.10649 1.05 0
M  V30 48 H -5.9451 2.10634 2.78319 0
M  V30 49 H -4.10934 0.625209 2.16993 0
M  V30 50 H -4.96168 -0.868265 -1.49533 0
M  V30 51 H -3.95222 -2.07787 -0.897291 0
M  V30 52 H -2.16629 1.47956 0.843741 0
M  V30 53 H -0.622859 0.515247 0.829641 0
M  V30 54 H -1.71904 0.503071 2.2716 0
M  V30 END ATOM
M  V30 BEGIN BOND
M  V30 1 1 1 2
M  V30 2 1 2 3
M  V30 3 2 3 4
M  V30 4 1 4 5
M  V30 5 2 5 6
M  V30 6 1 6 7
M  V30 7 2 7 8
M  V30 8 1 6 9
M  V30 9 1 9 10
M  V30 10 1 9 11
M  V30 11 1 2 12
M  V30 12 1 12 13
M  V30 13 1 13 14
M  V30 14 2 14 15
M  V30 15 1 14 16
M  V30 16 1 16 17
M  V30 17 1 17 18
M  V30 18 2 18 19
M  V30 19 1 19 20
M  V30 20 2 20 21
M  V30 21 1 21 22
M  V30 22 2 22 23
M  V30 23 1 17 24
M  V30 24 1 16 25
M  V30 25 1 8 3
M  V30 26 1 23 18
M  V30 27 1 1 26
M  V30 28 1 1 27
M  V30 29 1 2 28
M  V30 30 1 4 29
M  V30 31 1 5 30
M  V30 32 1 7 31
M  V30 33 1 8 32
M  V30 34 1 9 33
M  V30 35 1 10 34
M  V30 36 1 10 35
M  V30 37 1 10 36
M  V30 38 1 11 37
M  V30 39 1 11 38
M  V30 40 1 11 39
M  V30 41 1 12 40
M  V30 42 1 12 41
M  V30 43 1 13 42
M  V30 44 1 16 43
M  V30 45 1 17 44
M  V30 46 1 19 45
M  V30 47 1 20 46
M  V30 48 1 21 47
M  V30 49 1 22 48
M  V30 50 1 23 49
M  V30 51 1 24 50
M  V30 52 1 24 51
M  V30 53 1 25 52
M  V30 54 1 25 53
M  V30 55 1 25 54
M  V30 END BOND
M  V30 END CTAB
M  END
