
     RDKit          3D

  0  0  0  0  0  0  0  0  0  0999 V3000
M  V30 BEGIN CTAB
M  V30 COUNTS 28 29 0 0 0
M  V30 BEGIN ATOM
M  V30 1 C 3.35329 1.58607 1.10927 0
M  V30 2 C 2.47913 0.506176 0.575628 0
M  V30 3 C 2.86916 -0.821587 0.62495 0
M  V30 4 C 2.04507 -1.80293 0.125552 0
M  V30 5 C 0.825238 -1.5096 -0.431393 0
M  V30 6 C 0.419415 -0.198337 -0.489766 0
M  V30 7 C 1.23444 0.778593 0.00455263 0
M  V30 8 C -0.895951 0.102987 -1.09471 0
M  V30 9 C -2.02409 -0.00445094 -0.173626 0
M  V30 10 C -2.37955 0.916916 0.777908 0
M  V30 11 N -1.79882 2.16594 1.11817 0
M  V30 12 N -3.476 0.428682 1.42039 0
M  V30 13 O -3.79023 -0.714675 0.913539 0
M  V30 14 C -2.94631 -1.03523 -0.0605357 0
M  V30 15 N -2.91672 -2.18632 -0.878745 0
M  V30 16 H 3.82611 2.06739 0.206033 0
M  V30 17 H 4.09905 1.18515 1.81536 0
M  V30 18 H 2.69567 2.36359 1.55269 0
M  V30 19 H 3.8287 -1.10711 1.05711 0
M  V30 20 H 2.39948 -2.83491 0.187643 0
M  V30 21 H 0.159505 -2.28645 -0.832756 0
M  V30 22 H 0.978656 1.82975 -0.0147924 0
M  V30 23 H -0.918706 1.14339 -1.53765 0
M  V30 24 H -1.06889 -0.541946 -2.01316 0
M  V30 25 H -1.61276 2.35555 2.12528 0
M  V30 26 H -1.57976 2.84055 0.382715 0
M  V30 27 H -2.67872 -3.09811 -0.43667 0
M  V30 28 H -3.1264 -2.12908 -1.89754 0
M  V30 END ATOM
M  V30 BEGIN BOND
M  V30 1 1 1 2
M  V30 2 2 2 3
M  V30 3 1 3 4
M  V30 4 2 4 5
M  V30 5 1 5 6
M  V30 6 2 6 7
M  V30 7 1 6 8
M  V30 8 1 8 9
M  V30 9 1 9 10
M  V30 10 1 10 11
M  V30 11 2 10 12
M  V30 12 1 12 13
M  V30 13 1 13 14
M  V30 14 1 14 15
M  V30 15 1 7 2
M  V30 16 2 14 9
M  V30 17 1 1 16
M  V30 18 1 1 17
M  V30 19 1 1 18
M  V30 20 1 3 19
M  V30 21 1 4 20
M  V30 22 1 5 21
M  V30 23 1 7 22
M  V30 24 1 8 23
M  V30 25 1 8 24
M  V30 26 1 11 25
M  V30 27 1 11 26
M  V30 28 1 15 27
M  V30 29 1 15 28
M  V30 END BOND
M  V30 END CTAB
M  END
