
     RDKit          3D

  0  0  0  0  0  0  0  0  0  0999 V3000
M  V30 BEGIN CTAB
M  V30 COUNTS 31 33 0 0 0
M  V30 BEGIN ATOM
M  V30 1 N -3.10371 -0.421108 1.11533 0
M  V30 2 C -3.00198 -0.00403012 -0.247828 0
M  V30 3 C -2.76539 1.47894 -0.411053 0
M  V30 4 C -1.65309 1.93918 0.473507 0
M  V30 5 C -0.466809 1.03944 0.256054 0
M  V30 6 C -0.581427 -0.164297 -0.387482 0
M  V30 7 C -1.85199 -0.707938 -0.931064 0
M  V30 8 C 0.550659 -0.931573 -0.547759 0
M  V30 9 N 0.453269 -2.20555 -1.22388 0
M  V30 10 C 1.75209 -0.49854 -0.0756567 0
M  V30 11 C 1.80674 0.718729 0.562408 0
M  V30 12 N 0.708884 1.44494 0.708641 0
M  V30 13 C 2.99806 1.20994 1.06238 0
M  V30 14 C 4.1285 0.439268 0.90002 0
M  V30 15 C 4.06702 -0.780502 0.259249 0
M  V30 16 C 2.88295 -1.26954 -0.238096 0
M  V30 17 H -2.96888 -1.46007 1.15209 0
M  V30 18 H -2.48216 0.0493274 1.77707 0
M  V30 19 H -3.93661 -0.288878 -0.765219 0
M  V30 20 H -3.68749 2.04906 -0.254043 0
M  V30 21 H -2.42491 1.6192 -1.47452 0
M  V30 22 H -1.92861 1.99792 1.53688 0
M  V30 23 H -1.29947 2.95517 0.183478 0
M  V30 24 H -1.95412 -0.491566 -2.02219 0
M  V30 25 H -1.96623 -1.79362 -0.732171 0
M  V30 26 H 0.956651 -2.31918 -2.1234 0
M  V30 27 H -0.116688 -2.96689 -0.789251 0
M  V30 28 H 3.05776 2.15671 1.56223 0
M  V30 29 H 5.08876 0.807564 1.28878 0
M  V30 30 H 4.97066 -1.39476 0.130379 0
M  V30 31 H 2.76757 -2.20734 -0.744866 0
M  V30 END ATOM
M  V30 BEGIN BOND
M  V30 1 1 1 2
M  V30 2 1 2 3
M  V30 3 1 3 4
M  V30 4 1 4 5
M  V30 5 2 5 6
M  V30 6 1 6 7
M  V30 7 1 6 8
M  V30 8 1 8 9
M  V30 9 2 8 10
M  V30 10 1 10 11
M  V30 11 2 11 12
M  V30 12 1 11 13
M  V30 13 2 13 14
M  V30 14 1 14 15
M  V30 15 2 15 16
M  V30 16 1 7 2
M  V30 17 1 16 10
M  V30 18 1 12 5
M  V30 19 1 1 17
M  V30 20 1 1 18
M  V30 21 1 2 19
M  V30 22 1 3 20
M  V30 23 1 3 21
M  V30 24 1 4 22
M  V30 25 1 4 23
M  V30 26 1 7 24
M  V30 27 1 7 25
M  V30 28 1 9 26
M  V30 29 1 9 27
M  V30 30 1 13 28
M  V30 31 1 14 29
M  V30 32 1 15 30
M  V30 33 1 16 31
M  V30 END BOND
M  V30 END CTAB
M  END
