
     RDKit          3D

  0  0  0  0  0  0  0  0  0  0999 V3000
M  V30 BEGIN CTAB
M  V30 COUNTS 22 22 0 0 0
M  V30 BEGIN ATOM
M  V30 1 C -3.57305 -0.325353 -0.0434028 0
M  V30 2 C -2.09809 -0.228684 -0.0425161 0
M  V30 3 C -1.42129 0.749249 0.628412 0
M  V30 4 C -0.0290268 0.839538 0.628553 0
M  V30 5 C 0.745168 -0.068091 -0.0593149 0
M  V30 6 C 0.03813 -1.05411 -0.734643 0
M  V30 7 C -1.33838 -1.14311 -0.734592 0
M  V30 8 C 2.19096 -0.0689534 -0.127165 0
M  V30 9 N 2.78236 -1.12614 -0.913973 0
M  V30 10 N 3.02438 0.702432 0.388131 0
M  V30 11 N 2.8228 1.78046 1.1718 0
M  V30 12 H -4.01123 0.711442 -0.0194139 0
M  V30 13 H -3.87169 -0.787967 0.922973 0
M  V30 14 H -3.92178 -0.895909 -0.92053 0
M  V30 15 H -1.98242 1.48136 1.18033 0
M  V30 16 H 0.454213 1.6352 1.17758 0
M  V30 17 H 0.618198 -1.79275 -1.29211 0
M  V30 18 H -1.86298 -1.93277 -1.27738 0
M  V30 19 H 3.26769 -1.86651 -0.413302 0
M  V30 20 H 2.68643 -1.08084 -1.92341 0
M  V30 21 H 2.92744 1.72429 2.22683 0
M  V30 22 H 2.55218 2.74722 0.828706 0
M  V30 END ATOM
M  V30 BEGIN BOND
M  V30 1 1 1 2
M  V30 2 2 2 3
M  V30 3 1 3 4
M  V30 4 2 4 5
M  V30 5 1 5 6
M  V30 6 2 6 7
M  V30 7 1 5 8
M  V30 8 1 8 9
M  V30 9 2 8 10 CFG=2
M  V30 10 1 10 11
M  V30 11 1 7 2
M  V30 12 1 1 12
M  V30 13 1 1 13
M  V30 14 1 1 14
M  V30 15 1 3 15
M  V30 16 1 4 16
M  V30 17 1 6 17
M  V30 18 1 7 18
M  V30 19 1 9 19
M  V30 20 1 9 20
M  V30 21 1 11 21
M  V30 22 1 11 22
M  V30 END BOND
M  V30 END CTAB
M  END
