
     RDKit          3D

  0  0  0  0  0  0  0  0  0  0999 V3000
M  V30 BEGIN CTAB
M  V30 COUNTS 52 55 0 0 0
M  V30 BEGIN ATOM
M  V30 1 N 10.6252 1.08211 1.54043 0
M  V30 2 C 9.3011 0.820055 1.13765 0
M  V30 3 C 8.41941 1.90038 1.10187 0
M  V30 4 C 7.12677 1.67608 0.71441 0
M  V30 5 C 6.65192 0.428896 0.356233 0
M  V30 6 C 7.5182 -0.632225 0.391504 0
M  V30 7 C 8.84268 -0.4237 0.784597 0
M  V30 8 C 5.26611 0.206561 -0.0575532 0
M  V30 9 C 4.92303 -0.77128 -0.964434 0
M  V30 10 C 3.62856 -0.982149 -1.35377 0
M  V30 11 C 2.55508 -0.211102 -0.851974 0
M  V30 12 N 1.25874 -0.477776 -1.33056 0
M  V30 13 C 0.0276648 -0.320362 -0.674561 0
M  V30 14 S -0.01788 0.216038 0.852081 0
M  V30 15 N -1.16288 -0.631266 -1.3482 0
M  V30 16 C -2.49836 -0.576054 -0.912019 0
M  V30 17 C -2.92265 -0.713553 0.374339 0
M  V30 18 C -4.28291 -0.61326 0.728338 0
M  V30 19 C -5.25228 -0.371803 -0.211721 0
M  V30 20 C -4.83624 -0.232705 -1.51062 0
M  V30 21 C -3.51661 -0.328406 -1.8617 0
M  V30 22 C -6.64535 -0.274977 0.191239 0
M  V30 23 C -7.02904 0.219005 1.42741 0
M  V30 24 C -8.35615 0.298972 1.78506 0
M  V30 25 C -9.34835 -0.112409 0.918911 0
M  V30 26 N -10.7142 -0.0214246 1.30921 0
M  V30 27 C -8.98248 -0.606479 -0.31533 0
M  V30 28 C -7.64513 -0.683134 -0.666286 0
M  V30 29 C 2.91001 0.75998 0.0494017 0
M  V30 30 C 4.24028 0.969136 0.443539 0
M  V30 31 H 10.9208 0.851954 2.51384 0
M  V30 32 H 11.3497 1.49971 0.921068 0
M  V30 33 H 8.75275 2.89275 1.37493 0
M  V30 34 H 6.43437 2.5097 0.683986 0
M  V30 35 H 7.25918 -1.64668 0.134137 0
M  V30 36 H 9.5605 -1.24405 0.824821 0
M  V30 37 H 5.71486 -1.38729 -1.37577 0
M  V30 38 H 3.3545 -1.7633 -2.07818 0
M  V30 39 H 1.20737 -0.852677 -2.339 0
M  V30 40 H -1.01831 -0.968219 -2.36862 0
M  V30 41 H -2.22812 -0.928694 1.17671 0
M  V30 42 H -4.58943 -0.725838 1.75616 0
M  V30 43 H -5.62605 -0.0397478 -2.25263 0
M  V30 44 H -3.20784 -0.217195 -2.88318 0
M  V30 45 H -6.29243 0.549494 2.13089 0
M  V30 46 H -8.65467 0.682491 2.74436 0
M  V30 47 H -11.4395 0.444764 0.703253 0
M  V30 48 H -11.0618 -0.409247 2.2078 0
M  V30 49 H -9.74055 -0.92898 -0.99651 0
M  V30 50 H -7.42293 -1.07957 -1.6474 0
M  V30 51 H 2.1609 1.4164 0.471308 0
M  V30 52 H 4.48252 1.75106 1.16345 0
M  V30 END ATOM
M  V30 BEGIN BOND
M  V30 1 1 1 2
M  V30 2 2 2 3
M  V30 3 1 3 4
M  V30 4 2 4 5
M  V30 5 1 5 6
M  V30 6 2 6 7
M  V30 7 1 5 8
M  V30 8 2 8 9
M  V30 9 1 9 10
M  V30 10 2 10 11
M  V30 11 1 11 12
M  V30 12 1 12 13
M  V30 13 2 13 14
M  V30 14 1 13 15
M  V30 15 1 15 16
M  V30 16 2 16 17
M  V30 17 1 17 18
M  V30 18 2 18 19
M  V30 19 1 19 20
M  V30 20 2 20 21
M  V30 21 1 19 22
M  V30 22 2 22 23
M  V30 23 1 23 24
M  V30 24 2 24 25
M  V30 25 1 25 26
M  V30 26 1 25 27
M  V30 27 2 27 28
M  V30 28 1 11 29
M  V30 29 2 29 30
M  V30 30 1 7 2
M  V30 31 1 30 8
M  V30 32 1 21 16
M  V30 33 1 28 22
M  V30 34 1 1 31
M  V30 35 1 1 32
M  V30 36 1 3 33
M  V30 37 1 4 34
M  V30 38 1 6 35
M  V30 39 1 7 36
M  V30 40 1 9 37
M  V30 41 1 10 38
M  V30 42 1 12 39
M  V30 43 1 15 40
M  V30 44 1 17 41
M  V30 45 1 18 42
M  V30 46 1 20 43
M  V30 47 1 21 44
M  V30 48 1 23 45
M  V30 49 1 24 46
M  V30 50 1 26 47
M  V30 51 1 26 48
M  V30 52 1 27 49
M  V30 53 1 28 50
M  V30 54 1 29 51
M  V30 55 1 30 52
M  V30 END BOND
M  V30 END CTAB
M  END
