
     RDKit          3D

  0  0  0  0  0  0  0  0  0  0999 V3000
M  V30 BEGIN CTAB
M  V30 COUNTS 25 24 0 0 0
M  V30 BEGIN ATOM
M  V30 1 C -1.91584 0.528317 -0.450817 0 CFG=2
M  V30 2 N -1.92544 1.72448 0.326763 0
M  V30 3 C -2.60825 -0.578129 0.239325 0
M  V30 4 O -3.15196 -0.331482 1.4875 0
M  V30 5 O -2.7205 -1.72294 -0.260055 0
M  V30 6 C -0.549356 0.126695 -0.926043 0 CFG=2
M  V30 7 O -0.700339 -1.04708 -1.664 0
M  V30 8 C 0.403688 -0.142781 0.221555 0
M  V30 9 C 1.71576 -0.529646 -0.389614 0
M  V30 10 C 2.78608 -0.834458 0.624324 0
M  V30 11 N 3.05497 0.313365 1.47378 0
M  V30 12 H -2.51356 0.737339 -1.37836 0
M  V30 13 H -1.76587 2.53684 -0.342175 0
M  V30 14 H -2.89642 1.86628 0.68587 0
M  V30 15 H -4.12044 -0.132162 1.65815 0
M  V30 16 H -0.135054 0.954002 -1.51291 0
M  V30 17 H -0.264942 -0.967964 -2.55493 0
M  V30 18 H 0.517058 0.799966 0.825991 0
M  V30 19 H 0.0102482 -0.913263 0.921181 0
M  V30 20 H 1.55515 -1.42668 -1.00477 0
M  V30 21 H 2.06451 0.327795 -1.00219 0
M  V30 22 H 2.5895 -1.74764 1.20371 0
M  V30 23 H 3.72546 -1.01812 0.0520895 0
M  V30 24 H 4.04656 0.267219 1.7971 0
M  V30 25 H 2.79899 1.21005 1.04269 0
M  V30 END ATOM
M  V30 BEGIN BOND
M  V30 1 1 1 2
M  V30 2 1 1 3
M  V30 3 1 3 4
M  V30 4 2 3 5
M  V30 5 1 1 6
M  V30 6 1 6 7
M  V30 7 1 6 8
M  V30 8 1 8 9
M  V30 9 1 9 10
M  V30 10 1 10 11
M  V30 11 1 1 12 CFG=3
M  V30 12 1 2 13
M  V30 13 1 2 14
M  V30 14 1 4 15
M  V30 15 1 6 16 CFG=3
M  V30 16 1 7 17
M  V30 17 1 8 18
M  V30 18 1 8 19
M  V30 19 1 9 20
M  V30 20 1 9 21
M  V30 21 1 10 22
M  V30 22 1 10 23
M  V30 23 1 11 24
M  V30 24 1 11 25
M  V30 END BOND
M  V30 END CTAB
M  END
