
     RDKit          3D

  0  0  0  0  0  0  0  0  0  0999 V3000
M  V30 BEGIN CTAB
M  V30 COUNTS 59 62 0 0 0
M  V30 BEGIN ATOM
M  V30 1 C -6.40354 0.844506 -1.4346 0
M  V30 2 C -5.10203 0.976545 -0.60915 0
M  V30 3 N -4.28943 -0.144028 -0.998636 0
M  V30 4 C -2.88738 -0.315174 -0.951253 0
M  V30 5 C -1.96188 0.687134 -1.0924 0
M  V30 6 C -0.625563 0.44215 -1.17204 0
M  V30 7 C -0.0994067 -0.866233 -1.1152 0
M  V30 8 C -0.992475 -1.86639 -0.958927 0
M  V30 9 C -2.34849 -1.61484 -0.879635 0
M  V30 10 C 1.29825 -1.00432 -1.59336 0
M  V30 11 C 2.4481 -0.892282 -1.00656 0
M  V30 12 C 2.50557 -0.935694 0.553078 0
M  V30 13 O 3.09175 0.104715 0.989593 0
M  V30 14 C 4.02917 0.923666 1.10202 0
M  V30 15 C 5.34866 0.658113 1.70689 0
M  V30 16 C 5.444 0.435454 3.06404 0
M  V30 17 C 6.61814 0.22354 3.70997 0
M  V30 18 C 7.80478 0.230991 2.94106 0
M  V30 19 C 7.69924 0.456349 1.5871 0
M  V30 20 C 6.4841 0.673548 0.946135 0
M  V30 21 N 3.64519 -0.862639 -1.67542 0
M  V30 22 C 3.6152 -0.954464 -3.02584 0
M  V30 23 N 4.75932 -0.926254 -3.8711 0
M  V30 24 N 2.43191 -1.06383 -3.70671 0
M  V30 25 C 1.29933 -1.09344 -3.04989 0
M  V30 26 N 0.0351044 -1.14071 -3.65361 0
M  V30 27 C -5.53461 0.654936 0.796083 0
M  V30 28 C -5.63761 1.55008 1.78645 0
M  V30 29 C -6.01327 1.12537 3.07823 0
M  V30 30 C -6.26529 -0.194857 3.33201 0
M  V30 31 Cl -6.69852 -0.775843 4.93418 0
M  V30 32 C -6.1563 -1.11011 2.29663 0
M  V30 33 C -5.79265 -0.690425 1.0263 0
M  V30 34 H -7.03451 1.71823 -1.40531 0
M  V30 35 H -6.84736 -0.111723 -1.14045 0
M  V30 36 H -6.04227 0.683086 -2.49498 0
M  V30 37 H -4.62124 1.92295 -0.733555 0
M  V30 38 H -4.81379 -1.00243 -1.40855 0
M  V30 39 H -2.33873 1.72902 -1.15563 0
M  V30 40 H 0.123774 1.21663 -1.28492 0
M  V30 41 H -0.67257 -2.90685 -0.893386 0
M  V30 42 H -3.08835 -2.39867 -0.744415 0
M  V30 43 H 3.21056 -1.88214 0.719589 0
M  V30 44 H 1.59962 -1.2455 0.990049 0
M  V30 45 H 4.32363 1.38837 0.0360592 0
M  V30 46 H 3.64015 1.94117 1.56255 0
M  V30 47 H 4.51201 0.458183 3.60741 0
M  V30 48 H 6.61249 0.0426071 4.7597 0
M  V30 49 H 8.75905 0.0555868 3.43837 0
M  V30 50 H 8.63347 0.481342 0.996552 0
M  V30 51 H 6.51327 0.845581 -0.127453 0
M  V30 52 H 5.15688 -1.85779 -4.14925 0
M  V30 53 H 5.17015 -0.0370173 -4.1807 0
M  V30 54 H -0.397634 -0.283003 -4.11053 0
M  V30 55 H -0.537422 -2.02124 -3.60211 0
M  V30 56 H -5.45545 2.6065 1.65699 0
M  V30 57 H -6.07624 1.86098 3.85747 0
M  V30 58 H -6.36036 -2.11914 2.50745 0
M  V30 59 H -5.71848 -1.41543 0.243628 0
M  V30 END ATOM
M  V30 BEGIN BOND
M  V30 1 1 1 2
M  V30 2 1 2 3
M  V30 3 1 3 4
M  V30 4 2 4 5
M  V30 5 1 5 6
M  V30 6 2 6 7
M  V30 7 1 7 8
M  V30 8 2 8 9
M  V30 9 1 7 10
M  V30 10 1 10 11
M  V30 11 1 11 12
M  V30 12 1 12 13
M  V30 13 1 13 14
M  V30 14 1 14 15
M  V30 15 2 15 16
M  V30 16 1 16 17
M  V30 17 2 17 18
M  V30 18 1 18 19
M  V30 19 2 19 20
M  V30 20 2 11 21
M  V30 21 1 21 22
M  V30 22 1 22 23
M  V30 23 2 22 24
M  V30 24 1 24 25
M  V30 25 1 25 26
M  V30 26 1 2 27
M  V30 27 2 27 28
M  V30 28 1 28 29
M  V30 29 2 29 30
M  V30 30 1 30 31
M  V30 31 1 30 32
M  V30 32 2 32 33
M  V30 33 1 9 4
M  V30 34 2 25 10
M  V30 35 1 33 27
M  V30 36 1 20 15
M  V30 37 1 1 34
M  V30 38 1 1 35
M  V30 39 1 1 36
M  V30 40 1 2 37
M  V30 41 1 3 38
M  V30 42 1 5 39
M  V30 43 1 6 40
M  V30 44 1 8 41
M  V30 45 1 9 42
M  V30 46 1 12 43
M  V30 47 1 12 44
M  V30 48 1 14 45
M  V30 49 1 14 46
M  V30 50 1 16 47
M  V30 51 1 17 48
M  V30 52 1 18 49
M  V30 53 1 19 50
M  V30 54 1 20 51
M  V30 55 1 23 52
M  V30 56 1 23 53
M  V30 57 1 26 54
M  V30 58 1 26 55
M  V30 59 1 28 56
M  V30 60 1 29 57
M  V30 61 1 32 58
M  V30 62 1 33 59
M  V30 END BOND
M  V30 END CTAB
M  END
