
     RDKit          3D

  0  0  0  0  0  0  0  0  0  0999 V3000
M  V30 BEGIN CTAB
M  V30 COUNTS 48 51 0 0 0
M  V30 BEGIN ATOM
M  V30 1 N 8.91824 -0.568223 -0.339693 0
M  V30 2 C 7.51815 -0.703416 -0.0797844 0
M  V30 3 C 6.60699 0.115824 -0.709467 0
M  V30 4 C 5.23886 0.00884872 -0.477618 0
M  V30 5 C 4.75991 -0.922502 0.390646 0
M  V30 6 C 5.67358 -1.74766 1.02528 0
M  V30 7 C 7.02762 -1.64738 0.800746 0
M  V30 8 C 3.33479 -1.05713 0.652633 0
M  V30 9 N 2.37728 -0.326169 0.105437 0
M  V30 10 N 1.18077 -0.67708 0.534855 0
M  V30 11 C 1.36379 -1.68597 1.40472 0
M  V30 12 C 2.70983 -1.94327 1.49576 0
M  V30 13 N 0.362694 -2.36744 2.10553 0
M  V30 14 C -0.0598364 -0.0797898 0.133863 0
M  V30 15 C -0.119969 1.30486 -0.0300589 0
M  V30 16 C -1.29179 1.89904 -0.411161 0
M  V30 17 C -2.47066 1.16083 -0.652133 0
M  V30 18 C -2.3864 -0.192806 -0.486662 0
M  V30 19 C -1.17877 -0.804308 -0.0931615 0
M  V30 20 S -3.7517 -1.21463 -0.803529 0
M  V30 21 O -3.27491 -2.68166 -0.75567 0
M  V30 22 O -4.83527 -1.15381 0.215859 0
M  V30 23 O -4.33242 -1.04317 -2.38281 0
M  V30 24 O -3.59257 1.82479 -1.03016 0
M  V30 25 C -4.78787 2.0321 -0.439169 0
M  V30 26 C -4.97957 2.28932 0.899313 0
M  V30 27 C -6.24555 2.48408 1.3755 0
M  V30 28 C -7.3818 2.44003 0.585856 0
M  V30 29 C -7.19512 2.18257 -0.756403 0
M  V30 30 C -5.92421 1.98489 -1.24646 0
M  V30 31 H 9.27894 -0.615664 -1.31805 0
M  V30 32 H 9.62597 -0.420074 0.413052 0
M  V30 33 H 6.95778 0.872076 -1.41066 0
M  V30 34 H 4.552 0.666707 -0.987766 0
M  V30 35 H 5.26031 -2.48233 1.71375 0
M  V30 36 H 7.68855 -2.30307 1.3116 0
M  V30 37 H 3.22421 -2.68764 2.09936 0
M  V30 38 H -0.0299646 -3.2441 1.72148 0
M  V30 39 H 0.00414645 -2.00997 3.00701 0
M  V30 40 H 0.786894 1.86449 0.156185 0
M  V30 41 H -1.33026 2.96359 -0.535082 0
M  V30 42 H -1.14533 -1.89865 0.0330944 0
M  V30 43 H -5.31875 -1.16767 -2.34086 0
M  V30 44 H -4.13506 2.33291 1.54659 0
M  V30 45 H -6.44039 2.69229 2.43994 0
M  V30 46 H -8.36869 2.60139 1.01005 0
M  V30 47 H -8.07375 2.14391 -1.39255 0
M  V30 48 H -5.8007 1.78102 -2.32097 0
M  V30 END ATOM
M  V30 BEGIN BOND
M  V30 1 1 1 2
M  V30 2 2 2 3
M  V30 3 1 3 4
M  V30 4 2 4 5
M  V30 5 1 5 6
M  V30 6 2 6 7
M  V30 7 1 5 8
M  V30 8 2 8 9
M  V30 9 1 9 10
M  V30 10 1 10 11
M  V30 11 2 11 12
M  V30 12 1 11 13
M  V30 13 1 10 14
M  V30 14 2 14 15
M  V30 15 1 15 16
M  V30 16 2 16 17
M  V30 17 1 17 18
M  V30 18 2 18 19
M  V30 19 1 18 20
M  V30 20 2 20 21
M  V30 21 2 20 22
M  V30 22 1 20 23
M  V30 23 1 17 24
M  V30 24 1 24 25
M  V30 25 2 25 26
M  V30 26 1 26 27
M  V30 27 2 27 28
M  V30 28 1 28 29
M  V30 29 2 29 30
M  V30 30 1 7 2
M  V30 31 1 12 8
M  V30 32 1 19 14
M  V30 33 1 30 25
M  V30 34 1 1 31
M  V30 35 1 1 32
M  V30 36 1 3 33
M  V30 37 1 4 34
M  V30 38 1 6 35
M  V30 39 1 7 36
M  V30 40 1 12 37
M  V30 41 1 13 38
M  V30 42 1 13 39
M  V30 43 1 15 40
M  V30 44 1 16 41
M  V30 45 1 19 42
M  V30 46 1 23 43
M  V30 47 1 26 44
M  V30 48 1 27 45
M  V30 49 1 28 46
M  V30 50 1 29 47
M  V30 51 1 30 48
M  V30 END BOND
M  V30 END CTAB
M  END
