
     RDKit          3D

  0  0  0  0  0  0  0  0  0  0999 V3000
M  V30 BEGIN CTAB
M  V30 COUNTS 44 45 0 0 0
M  V30 BEGIN ATOM
M  V30 1 C 0.785041 -1.02103 1.2846 0
M  V30 2 C 0.691705 -1.19013 -0.21239 0
M  V30 3 C -0.60959 -1.62929 -0.703252 0
M  V30 4 O -0.661343 -2.70696 -1.38726 0
M  V30 5 N -1.8014 -0.932116 -0.464082 0
M  V30 6 C -1.83835 0.281013 0.290717 0
M  V30 7 C -2.80059 1.21984 -0.415729 0
M  V30 8 C -2.76164 2.58215 0.242266 0
M  V30 9 C -4.2091 0.695802 -0.421106 0
M  V30 10 C -4.2739 -0.809004 -0.441438 0
M  V30 11 C -3.04652 -1.45058 -0.990087 0
M  V30 12 C -4.6358 -1.36349 0.943399 0
M  V30 13 S 1.32154 0.314995 -1.01466 0
M  V30 14 C 3.06589 0.424922 -0.65574 0
M  V30 15 N 3.69398 -0.503179 0.0894436 0
M  V30 16 C 5.00511 -0.443792 0.373027 0
M  V30 17 N 5.63372 -1.44309 1.16286 0
M  V30 18 C 5.73531 0.609009 -0.11843 0
M  V30 19 C 5.08772 1.56942 -0.888919 0
M  V30 20 N 3.78433 1.45854 -1.1379 0
M  V30 21 N 5.88895 2.64157 -1.37507 0
M  V30 22 H 1.53863 -1.69698 1.75847 0
M  V30 23 H 1.00931 0.0328035 1.54932 0
M  V30 24 H -0.211867 -1.25397 1.71079 0
M  V30 25 H 1.46991 -1.99169 -0.448597 0
M  V30 26 H -0.883124 0.829282 0.348366 0
M  V30 27 H -2.14285 0.122427 1.35109 0
M  V30 28 H -2.43423 1.3419 -1.45552 0
M  V30 29 H -1.73696 2.97712 0.229619 0
M  V30 30 H -3.18262 2.54292 1.27586 0
M  V30 31 H -3.36471 3.26299 -0.415179 0
M  V30 32 H -4.74497 1.04814 0.486233 0
M  V30 33 H -4.74512 1.12303 -1.29471 0
M  V30 34 H -5.12417 -1.08851 -1.09801 0
M  V30 35 H -3.05253 -1.52372 -2.10718 0
M  V30 36 H -3.07492 -2.5287 -0.648865 0
M  V30 37 H -5.18909 -0.565574 1.4784 0
M  V30 38 H -5.34845 -2.21465 0.842138 0
M  V30 39 H -3.76634 -1.73451 1.48649 0
M  V30 40 H 6.6744 -1.59005 1.12164 0
M  V30 41 H 5.113 -2.07695 1.81659 0
M  V30 42 H 6.78809 0.655214 0.110354 0
M  V30 43 H 6.05391 3.48677 -0.801487 0
M  V30 44 H 6.29966 2.53812 -2.32784 0
M  V30 END ATOM
M  V30 BEGIN BOND
M  V30 1 1 1 2
M  V30 2 1 2 3
M  V30 3 2 3 4
M  V30 4 1 3 5
M  V30 5 1 5 6
M  V30 6 1 6 7
M  V30 7 1 7 8
M  V30 8 1 7 9
M  V30 9 1 9 10
M  V30 10 1 10 11
M  V30 11 1 10 12
M  V30 12 1 2 13
M  V30 13 1 13 14
M  V30 14 2 14 15
M  V30 15 1 15 16
M  V30 16 1 16 17
M  V30 17 2 16 18
M  V30 18 1 18 19
M  V30 19 2 19 20
M  V30 20 1 19 21
M  V30 21 1 11 5
M  V30 22 1 20 14
M  V30 23 1 1 22
M  V30 24 1 1 23
M  V30 25 1 1 24
M  V30 26 1 2 25
M  V30 27 1 6 26
M  V30 28 1 6 27
M  V30 29 1 7 28
M  V30 30 1 8 29
M  V30 31 1 8 30
M  V30 32 1 8 31
M  V30 33 1 9 32
M  V30 34 1 9 33
M  V30 35 1 10 34
M  V30 36 1 11 35
M  V30 37 1 11 36
M  V30 38 1 12 37
M  V30 39 1 12 38
M  V30 40 1 12 39
M  V30 41 1 17 40
M  V30 42 1 17 41
M  V30 43 1 18 42
M  V30 44 1 21 43
M  V30 45 1 21 44
M  V30 END BOND
M  V30 END CTAB
M  END
