
     RDKit          3D

  0  0  0  0  0  0  0  0  0  0999 V3000
M  V30 BEGIN CTAB
M  V30 COUNTS 44 44 0 0 0
M  V30 BEGIN ATOM
M  V30 1 C -4.34068 2.49967 1.3171 0
M  V30 2 C -4.98247 1.47989 0.431106 0
M  V30 3 C -4.28178 0.138486 0.480822 0
M  V30 4 C -2.86242 0.31038 0.0370131 0
M  V30 5 C -2.09072 -0.973554 0.0553896 0
M  V30 6 N -0.730302 -0.74543 -0.381909 0
M  V30 7 C 0.397892 -1.05202 0.410368 0
M  V30 8 O 0.223266 -1.54728 1.5521 0
M  V30 9 C 1.79342 -0.819559 -0.034647 0 CFG=2
M  V30 10 C 2.45902 0.115527 0.967094 0
M  V30 11 C 3.85777 0.401195 0.598657 0
M  V30 12 C 4.17424 1.47119 -0.211849 0
M  V30 13 C 5.47595 1.77132 -0.579542 0
M  V30 14 C 6.5088 0.96598 -0.116573 0
M  V30 15 C 6.21071 -0.108199 0.694838 0
M  V30 16 C 4.89581 -0.386136 1.048 0
M  V30 17 N 1.85392 -0.254319 -1.34848 0
M  V30 18 C -2.77019 -2.03926 -0.810171 0
M  V30 19 N -2.02744 -3.26152 -0.787333 0
M  V30 20 H -4.97364 3.40337 1.31055 0
M  V30 21 H -3.35077 2.80402 0.924554 0
M  V30 22 H -4.28803 2.15095 2.35994 0
M  V30 23 H -6.04461 1.36436 0.772911 0
M  V30 24 H -5.01559 1.83715 -0.599696 0
M  V30 25 H -4.35974 -0.22065 1.53177 0
M  V30 26 H -4.84828 -0.524948 -0.228057 0
M  V30 27 H -2.36042 1.01721 0.714097 0
M  V30 28 H -2.87211 0.710067 -0.993594 0
M  V30 29 H -2.04441 -1.40987 1.07423 0
M  V30 30 H -0.582128 -0.328475 -1.343 0
M  V30 31 H 2.31332 -1.80498 -0.0413394 0
M  V30 32 H 2.36119 -0.272718 1.99933 0
M  V30 33 H 1.8636 1.06372 0.942886 0
M  V30 34 H 3.40046 2.12802 -0.597368 0
M  V30 35 H 5.67616 2.61999 -1.2165 0
M  V30 36 H 7.50545 1.21172 -0.409628 0
M  V30 37 H 7.03417 -0.716316 1.03939 0
M  V30 38 H 4.73535 -1.24197 1.68556 0
M  V30 39 H 1.46577 0.694292 -1.39896 0
M  V30 40 H 1.51273 -0.915998 -2.05437 0
M  V30 41 H -2.8786 -1.65274 -1.8368 0
M  V30 42 H -3.75854 -2.24666 -0.322096 0
M  V30 43 H -2.10854 -3.81883 -1.67024 0
M  V30 44 H -2.1476 -3.81708 0.0646841 0
M  V30 END ATOM
M  V30 BEGIN BOND
M  V30 1 1 1 2
M  V30 2 1 2 3
M  V30 3 1 3 4
M  V30 4 1 4 5
M  V30 5 1 5 6
M  V30 6 1 6 7
M  V30 7 2 7 8
M  V30 8 1 7 9
M  V30 9 1 9 10
M  V30 10 1 10 11
M  V30 11 2 11 12
M  V30 12 1 12 13
M  V30 13 2 13 14
M  V30 14 1 14 15
M  V30 15 2 15 16
M  V30 16 1 9 17
M  V30 17 1 5 18
M  V30 18 1 18 19
M  V30 19 1 16 11
M  V30 20 1 1 20
M  V30 21 1 1 21
M  V30 22 1 1 22
M  V30 23 1 2 23
M  V30 24 1 2 24
M  V30 25 1 3 25
M  V30 26 1 3 26
M  V30 27 1 4 27
M  V30 28 1 4 28
M  V30 29 1 5 29
M  V30 30 1 6 30
M  V30 31 1 9 31 CFG=3
M  V30 32 1 10 32
M  V30 33 1 10 33
M  V30 34 1 12 34
M  V30 35 1 13 35
M  V30 36 1 14 36
M  V30 37 1 15 37
M  V30 38 1 16 38
M  V30 39 1 17 39
M  V30 40 1 17 40
M  V30 41 1 18 41
M  V30 42 1 18 42
M  V30 43 1 19 43
M  V30 44 1 19 44
M  V30 END BOND
M  V30 END CTAB
M  END
