
     RDKit          3D

  0  0  0  0  0  0  0  0  0  0999 V3000
M  V30 BEGIN CTAB
M  V30 COUNTS 26 26 0 0 0
M  V30 BEGIN ATOM
M  V30 1 N 4.14326 0.939341 0.453287 0
M  V30 2 C 4.02054 -0.121332 -0.533436 0
M  V30 3 C 2.75842 -0.907136 -0.331066 0
M  V30 4 N 1.56904 -0.0583459 -0.447353 0
M  V30 5 C 0.310687 -0.675318 -0.277962 0
M  V30 6 O 0.337841 -1.93838 -0.0376616 0
M  V30 7 C -0.99225 -0.0397898 -0.347397 0
M  V30 8 C -2.14582 -0.84036 -0.307945 0
M  V30 9 C -3.41663 -0.320152 -0.379635 0
M  V30 10 N -4.53895 -1.19104 -0.333694 0
M  V30 11 C -3.61422 1.03386 -0.495343 0
M  V30 12 C -2.50381 1.84293 -0.536319 0
M  V30 13 C -1.2244 1.30441 -0.462779 0
M  V30 14 F -0.19194 2.15803 -0.500828 0
M  V30 15 H 3.34759 0.983899 1.10926 0
M  V30 16 H 5.07513 1.00526 0.876653 0
M  V30 17 H 4.05442 0.374461 -1.5253 0
M  V30 18 H 4.8663 -0.826361 -0.407657 0
M  V30 19 H 2.72857 -1.69755 -1.12086 0
M  V30 20 H 2.78537 -1.38029 0.668626 0
M  V30 21 H 1.75426 0.937592 -0.651218 0
M  V30 22 H -1.9813 -1.91449 -0.216656 0
M  V30 23 H -4.67824 -1.85787 -1.14148 0
M  V30 24 H -5.23145 -1.2177 0.438173 0
M  V30 25 H -4.60012 1.48424 -0.554957 0
M  V30 26 H -2.63229 2.92209 -0.627873 0
M  V30 END ATOM
M  V30 BEGIN BOND
M  V30 1 1 1 2
M  V30 2 1 2 3
M  V30 3 1 3 4
M  V30 4 1 4 5
M  V30 5 2 5 6
M  V30 6 1 5 7
M  V30 7 2 7 8
M  V30 8 1 8 9
M  V30 9 1 9 10
M  V30 10 2 9 11
M  V30 11 1 11 12
M  V30 12 2 12 13
M  V30 13 1 13 14
M  V30 14 1 13 7
M  V30 15 1 1 15
M  V30 16 1 1 16
M  V30 17 1 2 17
M  V30 18 1 2 18
M  V30 19 1 3 19
M  V30 20 1 3 20
M  V30 21 1 4 21
M  V30 22 1 8 22
M  V30 23 1 10 23
M  V30 24 1 10 24
M  V30 25 1 11 25
M  V30 26 1 12 26
M  V30 END BOND
M  V30 END CTAB
M  END
