
     RDKit          3D

  0  0  0  0  0  0  0  0  0  0999 V3000
M  V30 BEGIN CTAB
M  V30 COUNTS 25 25 0 0 0
M  V30 BEGIN ATOM
M  V30 1 N -3.38949 0.324569 1.18318 0
M  V30 2 N -2.14339 0.356879 0.571146 0
M  V30 3 C -1.28487 -0.589094 0.653478 0
M  V30 4 C -0.00348375 -0.467281 -0.0220009 0
M  V30 5 C 0.978002 -1.47156 0.0475144 0
M  V30 6 C 2.03154 -1.03324 -0.681972 0
M  V30 7 N 1.70722 0.158275 -1.16104 0
M  V30 8 N 0.47406 0.510372 -0.766291 0
M  V30 9 C -0.16989 1.7541 -1.1353 0
M  V30 10 C 0.0880758 2.8379 -0.114765 0
M  V30 11 C 3.29745 -1.81815 -0.862782 0
M  V30 12 N -1.64208 -1.73095 1.41843 0
M  V30 13 H -3.51291 -0.0467957 2.13938 0
M  V30 14 H -4.21158 0.680001 0.670506 0
M  V30 15 H 0.869818 -2.40937 0.595866 0
M  V30 16 H 0.319603 2.13974 -2.09193 0
M  V30 17 H -1.21551 1.62468 -1.40338 0
M  V30 18 H 0.472998 3.77913 -0.558423 0
M  V30 19 H -0.867883 3.12076 0.393188 0
M  V30 20 H 0.852544 2.50984 0.620511 0
M  V30 21 H 4.11409 -1.13042 -1.1597 0
M  V30 22 H 3.19752 -2.5816 -1.63769 0
M  V30 23 H 3.59423 -2.22784 0.133741 0
M  V30 24 H -1.77378 -1.61633 2.45617 0
M  V30 25 H -1.78228 -2.67362 1.02097 0
M  V30 END ATOM
M  V30 BEGIN BOND
M  V30 1 1 1 2
M  V30 2 2 2 3
M  V30 3 1 3 4
M  V30 4 2 4 5
M  V30 5 1 5 6
M  V30 6 2 6 7
M  V30 7 1 7 8
M  V30 8 1 8 9
M  V30 9 1 9 10
M  V30 10 1 6 11
M  V30 11 1 3 12
M  V30 12 1 8 4
M  V30 13 1 1 13
M  V30 14 1 1 14
M  V30 15 1 5 15
M  V30 16 1 9 16
M  V30 17 1 9 17
M  V30 18 1 10 18
M  V30 19 1 10 19
M  V30 20 1 10 20
M  V30 21 1 11 21
M  V30 22 1 11 22
M  V30 23 1 11 23
M  V30 24 1 12 24
M  V30 25 1 12 25
M  V30 END BOND
M  V30 END CTAB
M  END
