
     RDKit          3D

  0  0  0  0  0  0  0  0  0  0999 V3000
M  V30 BEGIN CTAB
M  V30 COUNTS 29 30 0 0 0
M  V30 BEGIN ATOM
M  V30 1 N 0.16984 -1.28266 -0.657669 0
M  V30 2 C -0.338729 -0.0796095 -0.13714 0
M  V30 3 N 0.517263 0.815894 0.226041 0
M  V30 4 C 1.90939 0.636178 0.12239 0
M  V30 5 C 2.71052 1.47266 -0.595635 0
M  V30 6 C 4.06335 1.29957 -0.697464 0
M  V30 7 C 4.63516 0.230736 -0.0430666 0
M  V30 8 Cl 6.3633 -0.015189 -0.155762 0
M  V30 9 C 3.89172 -0.640751 0.689968 0
M  V30 10 C 2.53139 -0.433853 0.769349 0
M  V30 11 C -1.76487 0.18247 0.00211024 0
M  V30 12 C -2.62743 -0.800543 -0.398051 0
M  V30 13 N -2.20291 -2.05062 -0.936834 0
M  V30 14 C -3.98253 -0.534819 -0.258664 0
M  V30 15 C -4.42929 0.649641 0.252712 0
M  V30 16 C -3.53798 1.61851 0.646308 0
M  V30 17 C -2.19133 1.38189 0.519436 0
M  V30 18 H 0.469474 -1.32856 -1.64033 0
M  V30 19 H 0.237785 -2.1087 -0.0487853 0
M  V30 20 H 2.26342 2.3149 -1.11187 0
M  V30 21 H 4.70092 1.98207 -1.28067 0
M  V30 22 H 4.36487 -1.4598 1.18566 0
M  V30 23 H 1.92071 -1.12629 1.35507 0
M  V30 24 H -2.05305 -2.14742 -1.9678 0
M  V30 25 H -2.03091 -2.89787 -0.323375 0
M  V30 26 H -4.69705 -1.2882 -0.564298 0
M  V30 27 H -5.49757 0.884234 0.373252 0
M  V30 28 H -3.92006 2.56844 1.0569 0
M  V30 29 H -1.4754 2.15771 0.834563 0
M  V30 END ATOM
M  V30 BEGIN BOND
M  V30 1 1 1 2
M  V30 2 2 2 3 CFG=2
M  V30 3 1 3 4
M  V30 4 2 4 5
M  V30 5 1 5 6
M  V30 6 2 6 7
M  V30 7 1 7 8
M  V30 8 1 7 9
M  V30 9 2 9 10
M  V30 10 1 2 11
M  V30 11 2 11 12
M  V30 12 1 12 13
M  V30 13 1 12 14
M  V30 14 2 14 15
M  V30 15 1 15 16
M  V30 16 2 16 17
M  V30 17 1 10 4
M  V30 18 1 17 11
M  V30 19 1 1 18
M  V30 20 1 1 19
M  V30 21 1 5 20
M  V30 22 1 6 21
M  V30 23 1 9 22
M  V30 24 1 10 23
M  V30 25 1 13 24
M  V30 26 1 13 25
M  V30 27 1 14 26
M  V30 28 1 15 27
M  V30 29 1 16 28
M  V30 30 1 17 29
M  V30 END BOND
M  V30 END CTAB
M  END
