
     RDKit          3D

  0  0  0  0  0  0  0  0  0  0999 V3000
M  V30 BEGIN CTAB
M  V30 COUNTS 21 21 0 0 0
M  V30 BEGIN ATOM
M  V30 1 F -3.34289 2.32152 0.0837157 0
M  V30 2 C -2.8978 1.1031 -0.397099 0
M  V30 3 O -2.0388 0.568431 0.558686 0
M  V30 4 C -0.737309 0.168703 0.359228 0
M  V30 5 C -0.116781 0.259185 -0.864334 0
M  V30 6 C 1.19861 -0.146107 -1.0607 0
M  V30 7 N 1.82242 -0.045271 -2.33023 0
M  V30 8 C 1.87921 -0.655033 0.0390515 0
M  V30 9 C 1.2458 -0.740141 1.25888 0
M  V30 10 C -0.0479891 -0.346142 1.47067 0
M  V30 11 N -0.710399 -0.42703 2.71387 0
M  V30 12 O 3.19824 -1.07914 -0.0868236 0
M  V30 13 F -3.97948 0.218546 -0.494383 0
M  V30 14 H -2.45671 1.19986 -1.39723 0
M  V30 15 H -0.597725 0.645865 -1.75003 0
M  V30 16 H 1.64566 0.788936 -2.91001 0
M  V30 17 H 2.4466 -0.783764 -2.68645 0
M  V30 18 H 1.77606 -1.14046 2.131 0
M  V30 19 H -1.57399 0.118896 2.87274 0
M  V30 20 H -0.353599 -1.0229 3.47935 0
M  V30 21 H 3.64087 -1.00705 -0.989914 0
M  V30 END ATOM
M  V30 BEGIN BOND
M  V30 1 1 1 2
M  V30 2 1 2 3
M  V30 3 1 3 4
M  V30 4 2 4 5
M  V30 5 1 5 6
M  V30 6 1 6 7
M  V30 7 2 6 8
M  V30 8 1 8 9
M  V30 9 2 9 10
M  V30 10 1 10 11
M  V30 11 1 8 12
M  V30 12 1 2 13
M  V30 13 1 10 4
M  V30 14 1 2 14
M  V30 15 1 5 15
M  V30 16 1 7 16
M  V30 17 1 7 17
M  V30 18 1 9 18
M  V30 19 1 11 19
M  V30 20 1 11 20
M  V30 21 1 12 21
M  V30 END BOND
M  V30 END CTAB
M  END
