
     RDKit          3D

  0  0  0  0  0  0  0  0  0  0999 V3000
M  V30 BEGIN CTAB
M  V30 COUNTS 31 32 0 0 0
M  V30 BEGIN ATOM
M  V30 1 C 5.24959 -0.990037 -0.590751 0
M  V30 2 C 4.41782 -0.93626 0.647916 0
M  V30 3 C 3.00292 -0.590788 0.403928 0
M  V30 4 C 2.65773 0.751076 0.426799 0
M  V30 5 C 1.3595 1.18715 0.21071 0
M  V30 6 C 0.392091 0.23443 -0.0340312 0
M  V30 7 C 0.714782 -1.10712 -0.0611216 0
M  V30 8 C 2.01829 -1.50302 0.158592 0
M  V30 9 N -0.983023 0.604258 -0.269002 0
M  V30 10 N -1.90642 0.258364 0.522645 0
M  V30 11 C -3.2761 0.596124 0.33749 0
M  V30 12 C -3.83066 1.85476 0.226656 0
M  V30 13 N -3.09093 3.0463 0.282753 0
M  V30 14 N -5.17095 1.6819 0.0615375 0
M  V30 15 N -5.46318 0.391506 0.065576 0
M  V30 16 C -4.32503 -0.308491 0.232856 0
M  V30 17 N -4.14804 -1.71852 0.300468 0
M  V30 18 H 6.19093 -0.438614 -0.404783 0
M  V30 19 H 5.54216 -2.0195 -0.876271 0
M  V30 20 H 4.77687 -0.532979 -1.47864 0
M  V30 21 H 4.42012 -1.97661 1.08733 0
M  V30 22 H 4.88398 -0.301065 1.42947 0
M  V30 23 H 3.41839 1.51493 0.620208 0
M  V30 24 H 1.11177 2.23961 0.232992 0
M  V30 25 H -0.0679119 -1.85263 -0.25747 0
M  V30 26 H 2.27092 -2.55366 0.13736 0
M  V30 27 H -3.03923 3.75332 -0.480361 0
M  V30 28 H -2.53175 3.26807 1.16004 0
M  V30 29 H -6.41788 -0.0387998 -0.0422341 0
M  V30 30 H -4.37551 -2.30066 -0.534816 0
M  V30 31 H -3.80124 -2.21305 1.14191 0
M  V30 END ATOM
M  V30 BEGIN BOND
M  V30 1 1 1 2
M  V30 2 1 2 3
M  V30 3 2 3 4
M  V30 4 1 4 5
M  V30 5 2 5 6
M  V30 6 1 6 7
M  V30 7 2 7 8
M  V30 8 1 6 9
M  V30 9 2 9 10
M  V30 10 1 10 11
M  V30 11 1 11 12
M  V30 12 1 12 13
M  V30 13 2 12 14
M  V30 14 1 14 15
M  V30 15 1 15 16
M  V30 16 1 16 17
M  V30 17 1 8 3
M  V30 18 2 16 11
M  V30 19 1 1 18
M  V30 20 1 1 19
M  V30 21 1 1 20
M  V30 22 1 2 21
M  V30 23 1 2 22
M  V30 24 1 4 23
M  V30 25 1 5 24
M  V30 26 1 7 25
M  V30 27 1 8 26
M  V30 28 1 13 27
M  V30 29 1 13 28
M  V30 30 1 15 29
M  V30 31 1 17 30
M  V30 32 1 17 31
M  V30 END BOND
M  V30 END CTAB
M  END
