
     RDKit          3D

  0  0  0  0  0  0  0  0  0  0999 V3000
M  V30 BEGIN CTAB
M  V30 COUNTS 70 74 0 0 0
M  V30 BEGIN ATOM
M  V30 1 C 4.04543 1.91928 3.48347 0
M  V30 2 O 2.95564 1.311 2.86487 0
M  V30 3 C 3.01184 0.465746 1.79223 0
M  V30 4 C 1.81668 -0.0603551 1.29109 0
M  V30 5 O 0.629417 0.303 1.92887 0
M  V30 6 C 0.311624 -0.577742 3.04219 0
M  V30 7 C 1.78848 -0.902388 0.228446 0
M  V30 8 C 0.635395 -1.41907 -0.446373 0
M  V30 9 C -0.650699 -1.01764 -0.386028 0
M  V30 10 C -1.66972 -1.68109 -1.14695 0
M  V30 11 O -1.18801 -2.67441 -1.86003 0
M  V30 12 N -3.03141 -1.44332 -1.24829 0
M  V30 13 N -3.62322 -2.37243 -2.22399 0
M  V30 14 C -4.82294 -2.70461 -2.28434 0
M  V30 15 C -5.73096 -2.10755 -1.30428 0
M  V30 16 C -5.26682 -1.20731 -0.390393 0
M  V30 17 C -6.10811 -0.874462 0.624475 0
M  V30 18 C -7.38092 -1.3979 0.748362 0
M  V30 19 C -7.86359 -2.2934 -0.161805 0
M  V30 20 C -7.03054 -2.64778 -1.19274 0
M  V30 21 C -3.96543 -0.551775 -0.723182 0
M  V30 22 C -3.64782 0.614949 0.0843052 0
M  V30 23 C -3.27923 0.603331 1.49339 0
M  V30 24 C -3.8195 1.95742 2.02896 0
M  V30 25 C -3.99744 2.81594 0.795521 0
M  V30 26 C -4.55771 1.79724 -0.18446 0
M  V30 27 C 3.05708 -1.22757 -0.349736 0
M  V30 28 C 4.21893 -0.722182 0.131864 0
M  V30 29 C 5.50679 -1.0501 -0.481454 0
M  V30 30 C 6.14289 0.0142642 -1.25983 0
M  V30 31 C 5.71977 0.33221 -2.51708 0
M  V30 32 N 4.63165 -0.347693 -3.18183 0
M  V30 33 N 6.32955 1.32208 -3.20053 0
M  V30 34 C 7.33649 1.97599 -2.63947 0
M  V30 35 N 7.99778 3.0236 -3.33629 0
M  V30 36 N 7.77901 1.68499 -1.39659 0
M  V30 37 C 7.19018 0.709029 -0.701931 0
M  V30 38 C 4.21581 0.137249 1.21521 0
M  V30 39 H 4.75146 2.24049 2.68277 0
M  V30 40 H 4.5511 1.14926 4.13347 0
M  V30 41 H 3.73638 2.76429 4.10883 0
M  V30 42 H 1.01533 -0.427157 3.8638 0
M  V30 43 H -0.704285 -0.32213 3.36695 0
M  V30 44 H 0.383643 -1.61517 2.71195 0
M  V30 45 H 0.81291 -2.28681 -1.11107 0
M  V30 46 H -0.789925 -0.164454 0.222704 0
M  V30 47 H -5.22224 -3.40874 -3.02417 0
M  V30 48 H -5.7974 -0.195662 1.3684 0
M  V30 49 H -7.9737 -1.05679 1.60966 0
M  V30 50 H -8.86086 -2.69582 -0.0602615 0
M  V30 51 H -7.34832 -3.36051 -1.96105 0
M  V30 52 H -4.33311 -0.0189419 -1.73144 0
M  V30 53 H -2.68037 1.02293 -0.432958 0
M  V30 54 H -3.59756 -0.238462 2.12882 0
M  V30 55 H -2.18374 0.703679 1.73822 0
M  V30 56 H -3.13435 2.44418 2.71232 0
M  V30 57 H -4.81495 1.81093 2.48119 0
M  V30 58 H -4.70431 3.63449 0.984916 0
M  V30 59 H -3.02937 3.15042 0.389762 0
M  V30 60 H -4.44391 2.15246 -1.23563 0
M  V30 61 H -5.60271 1.67213 -0.00285587 0
M  V30 62 H 3.06421 -1.91634 -1.19969 0
M  V30 63 H 6.17762 -1.38943 0.358149 0
M  V30 64 H 5.35644 -1.98017 -1.10637 0
M  V30 65 H 3.6789 0.098198 -3.2229 0
M  V30 66 H 4.8289 -1.26974 -3.60366 0
M  V30 67 H 8.65961 2.79068 -4.09963 0
M  V30 68 H 7.79498 4.00818 -3.05452 0
M  V30 69 H 7.55795 0.488711 0.294226 0
M  V30 70 H 5.16531 0.508773 1.55443 0
M  V30 END ATOM
M  V30 BEGIN BOND
M  V30 1 1 1 2
M  V30 2 1 2 3
M  V30 3 2 3 4
M  V30 4 1 4 5
M  V30 5 1 5 6
M  V30 6 1 4 7
M  V30 7 1 7 8
M  V30 8 2 8 9
M  V30 9 1 9 10
M  V30 10 2 10 11
M  V30 11 1 10 12
M  V30 12 1 12 13
M  V30 13 2 13 14
M  V30 14 1 14 15
M  V30 15 2 15 16
M  V30 16 1 16 17
M  V30 17 2 17 18
M  V30 18 1 18 19
M  V30 19 2 19 20
M  V30 20 1 16 21
M  V30 21 1 21 22
M  V30 22 1 22 23
M  V30 23 1 23 24
M  V30 24 1 24 25
M  V30 25 1 25 26
M  V30 26 2 7 27
M  V30 27 1 27 28
M  V30 28 1 28 29
M  V30 29 1 29 30
M  V30 30 2 30 31
M  V30 31 1 31 32
M  V30 32 1 31 33
M  V30 33 2 33 34
M  V30 34 1 34 35
M  V30 35 1 34 36
M  V30 36 2 36 37
M  V30 37 2 28 38
M  V30 38 1 38 3
M  V30 39 1 21 12
M  V30 40 1 26 22
M  V30 41 1 37 30
M  V30 42 1 20 15
M  V30 43 1 1 39
M  V30 44 1 1 40
M  V30 45 1 1 41
M  V30 46 1 6 42
M  V30 47 1 6 43
M  V30 48 1 6 44
M  V30 49 1 8 45
M  V30 50 1 9 46
M  V30 51 1 14 47
M  V30 52 1 17 48
M  V30 53 1 18 49
M  V30 54 1 19 50
M  V30 55 1 20 51
M  V30 56 1 21 52
M  V30 57 1 22 53
M  V30 58 1 23 54
M  V30 59 1 23 55
M  V30 60 1 24 56
M  V30 61 1 24 57
M  V30 62 1 25 58
M  V30 63 1 25 59
M  V30 64 1 26 60
M  V30 65 1 26 61
M  V30 66 1 27 62
M  V30 67 1 29 63
M  V30 68 1 29 64
M  V30 69 1 32 65
M  V30 70 1 32 66
M  V30 71 1 35 67
M  V30 72 1 35 68
M  V30 73 1 37 69
M  V30 74 1 38 70
M  V30 END BOND
M  V30 END CTAB
M  END
