
     RDKit          3D

  0  0  0  0  0  0  0  0  0  0999 V3000
M  V30 BEGIN CTAB
M  V30 COUNTS 16 15 0 0 0
M  V30 BEGIN ATOM
M  V30 1 N -1.64247 2.47171 0.419942 0
M  V30 2 N -0.803671 1.30742 0.290873 0
M  V30 3 C -1.29357 0.209435 -0.439723 0
M  V30 4 O -2.4999 0.378656 -0.951798 0
M  V30 5 N -0.761634 -1.02306 -0.730403 0
M  V30 6 C 0.491141 -1.65006 -0.387608 0
M  V30 7 O 0.582138 -2.84673 -0.891686 0
M  V30 8 N 1.42154 -1.07268 0.342169 0
M  V30 9 N 2.37477 -0.481212 1.08982 0
M  V30 10 H -2.62265 2.07676 0.599952 0
M  V30 11 H -1.38705 2.88447 1.37488 0
M  V30 12 H 0.10947 1.38283 0.760482 0
M  V30 13 H -1.40282 -1.67443 -1.33826 0
M  V30 14 H 2.23625 -2.17139 0.197592 0
M  V30 15 H 3.16948 -0.151215 0.447032 0
M  V30 16 H 2.02898 0.359499 1.64504 0
M  V30 END ATOM
M  V30 BEGIN BOND
M  V30 1 1 1 2
M  V30 2 1 2 3
M  V30 3 2 3 4
M  V30 4 1 3 5
M  V30 5 1 5 6
M  V30 6 2 6 7
M  V30 7 1 6 8
M  V30 8 1 8 9
M  V30 9 1 1 10
M  V30 10 1 1 11
M  V30 11 1 2 12
M  V30 12 1 5 13
M  V30 13 1 8 14
M  V30 14 1 9 15
M  V30 15 1 9 16
M  V30 END BOND
M  V30 END CTAB
M  END
