
     RDKit          3D

  0  0  0  0  0  0  0  0  0  0999 V3000
M  V30 BEGIN CTAB
M  V30 COUNTS 40 41 0 0 0
M  V30 BEGIN ATOM
M  V30 1 C -1.95449 -3.73521 0.872755 0
M  V30 2 O -1.27499 -2.53005 0.732871 0
M  V30 3 C -1.96085 -1.38879 0.346273 0
M  V30 4 C -3.3359 -1.48078 0.103971 0
M  V30 5 C -4.08174 -0.391625 -0.282463 0
M  V30 6 C -3.51186 0.851391 -0.451791 0
M  V30 7 C -2.16558 0.934527 -0.213005 0
M  V30 8 C -1.37222 -0.158623 0.183417 0
M  V30 9 C 0.0437188 0.0375321 0.410478 0
M  V30 10 O 0.446218 1.2515 0.215244 0
M  V30 11 N 1.02502 -0.858321 0.799209 0
M  V30 12 C 2.42501 -0.481935 0.97582 0
M  V30 13 C 3.08558 0.0221795 -0.265113 0
M  V30 14 C 4.54232 0.385148 0.0178099 0
M  V30 15 C 5.40914 0.907146 -1.04143 0
M  V30 16 C 4.83401 1.84899 0.0157768 0
M  V30 17 N 3.12439 -1.01997 -1.296 0
M  V30 18 S -4.45171 2.2415 -0.942687 0
M  V30 19 O -3.66458 3.19187 -1.78302 0
M  V30 20 O -5.62295 1.77022 -1.7686 0
M  V30 21 N -5.03365 3.00891 0.511018 0
M  V30 22 H -2.63719 -3.70449 1.74691 0
M  V30 23 H -2.46762 -4.01764 -0.0673263 0
M  V30 24 H -1.18512 -4.5338 1.06739 0
M  V30 25 H -3.78821 -2.47032 0.239025 0
M  V30 26 H -5.14311 -0.487182 -0.463996 0
M  V30 27 H -1.71274 1.91322 -0.345537 0
M  V30 28 H 0.808436 -1.85611 0.986506 0
M  V30 29 H 2.41555 0.302971 1.76426 0
M  V30 30 H 3.00391 -1.31319 1.36739 0
M  V30 31 H 2.61428 0.902063 -0.719063 0
M  V30 32 H 5.00263 -0.258706 0.784887 0
M  V30 33 H 6.49281 0.750556 -0.951766 0
M  V30 34 H 5.06434 1.01731 -2.08864 0
M  V30 35 H 4.11264 2.56533 -0.391155 0
M  V30 36 H 5.52185 2.20802 0.813865 0
M  V30 37 H 2.74668 -1.92584 -0.942259 0
M  V30 38 H 2.62894 -0.717612 -2.16316 0
M  V30 39 H -4.24162 3.51174 0.941184 0
M  V30 40 H -5.74136 3.70806 0.193485 0
M  V30 END ATOM
M  V30 BEGIN BOND
M  V30 1 1 1 2
M  V30 2 1 2 3
M  V30 3 2 3 4
M  V30 4 1 4 5
M  V30 5 2 5 6
M  V30 6 1 6 7
M  V30 7 2 7 8
M  V30 8 1 8 9
M  V30 9 2 9 10
M  V30 10 1 9 11
M  V30 11 1 11 12
M  V30 12 1 12 13
M  V30 13 1 13 14
M  V30 14 1 14 15
M  V30 15 1 15 16
M  V30 16 1 13 17
M  V30 17 1 6 18
M  V30 18 2 18 19
M  V30 19 2 18 20
M  V30 20 1 18 21
M  V30 21 1 8 3
M  V30 22 1 16 14
M  V30 23 1 1 22
M  V30 24 1 1 23
M  V30 25 1 1 24
M  V30 26 1 4 25
M  V30 27 1 5 26
M  V30 28 1 7 27
M  V30 29 1 11 28
M  V30 30 1 12 29
M  V30 31 1 12 30
M  V30 32 1 13 31
M  V30 33 1 14 32
M  V30 34 1 15 33
M  V30 35 1 15 34
M  V30 36 1 16 35
M  V30 37 1 16 36
M  V30 38 1 17 37
M  V30 39 1 17 38
M  V30 40 1 21 39
M  V30 41 1 21 40
M  V30 END BOND
M  V30 END CTAB
M  END
