
     RDKit          3D

  0  0  0  0  0  0  0  0  0  0999 V3000
M  V30 BEGIN CTAB
M  V30 COUNTS 35 36 0 0 0
M  V30 BEGIN ATOM
M  V30 1 N 4.29427 0.363064 1.4531 0
M  V30 2 C 3.23194 0.208469 0.492712 0
M  V30 3 C 3.46899 0.267311 -0.864207 0
M  V30 4 C 2.46021 0.120977 -1.80663 0
M  V30 5 C 1.17309 -0.0917089 -1.3331 0
M  V30 6 C 0.892002 -0.157348 0.00779831 0
M  V30 7 C 1.9294 -0.00559037 0.895632 0
M  V30 8 C -0.478433 -0.383491 0.463376 0 CFG=2
M  V30 9 C -0.852717 -1.84465 0.441358 0
M  V30 10 C -1.61594 -2.26045 -0.775136 0
M  V30 11 O -2.98362 -2.29081 -0.421188 0
M  V30 12 C -3.44315 -0.983372 -0.616193 0
M  V30 13 C -2.76672 0.0019825 0.273777 0
M  V30 14 N -1.46283 0.439749 -0.254277 0
M  V30 15 S -1.27005 2.07031 0.346448 0
M  V30 16 O -2.37162 2.91302 -0.24268 0
M  V30 17 O -1.50774 1.98708 1.83869 0
M  V30 18 N 0.283659 2.69271 0.0350931 0
M  V30 19 H 4.19353 -0.0672711 2.39761 0
M  V30 20 H 5.15686 0.883743 1.24853 0
M  V30 21 H 4.50231 0.437108 -1.18393 0
M  V30 22 H 2.65862 0.169028 -2.86464 0
M  V30 23 H 0.3742 -0.207991 -2.03411 0
M  V30 24 H 1.72716 -0.0543901 1.96231 0
M  V30 25 H -0.595834 -0.0612161 1.54093 0
M  V30 26 H 0.125326 -2.40989 0.415142 0
M  V30 27 H -1.34363 -2.18156 1.37874 0
M  V30 28 H -1.2803 -3.2749 -1.1256 0
M  V30 29 H -1.53819 -1.59554 -1.63302 0
M  V30 30 H -4.523 -0.984575 -0.377488 0
M  V30 31 H -3.32974 -0.697596 -1.68256 0
M  V30 32 H -2.65056 -0.423479 1.30105 0
M  V30 33 H -3.43772 0.884474 0.400069 0
M  V30 34 H 0.24705 3.51711 -0.603583 0
M  V30 35 H 0.733156 3.01968 0.925964 0
M  V30 END ATOM
M  V30 BEGIN BOND
M  V30 1 1 1 2
M  V30 2 2 2 3
M  V30 3 1 3 4
M  V30 4 2 4 5
M  V30 5 1 5 6
M  V30 6 2 6 7
M  V30 7 1 6 8
M  V30 8 1 8 9
M  V30 9 1 9 10
M  V30 10 1 10 11
M  V30 11 1 11 12
M  V30 12 1 12 13
M  V30 13 1 13 14
M  V30 14 1 14 15
M  V30 15 2 15 16
M  V30 16 2 15 17
M  V30 17 1 15 18
M  V30 18 1 7 2
M  V30 19 1 14 8
M  V30 20 1 1 19
M  V30 21 1 1 20
M  V30 22 1 3 21
M  V30 23 1 4 22
M  V30 24 1 5 23
M  V30 25 1 7 24
M  V30 26 1 8 25 CFG=1
M  V30 27 1 9 26
M  V30 28 1 9 27
M  V30 29 1 10 28
M  V30 30 1 10 29
M  V30 31 1 12 30
M  V30 32 1 12 31
M  V30 33 1 13 32
M  V30 34 1 13 33
M  V30 35 1 18 34
M  V30 36 1 18 35
M  V30 END BOND
M  V30 END CTAB
M  END
