
     RDKit          3D

  0  0  0  0  0  0  0  0  0  0999 V3000
M  V30 BEGIN CTAB
M  V30 COUNTS 27 28 0 0 0
M  V30 BEGIN ATOM
M  V30 1 N 6.44498 -0.0107398 -0.282759 0
M  V30 2 C 5.05776 0.253223 -0.00169045 0
M  V30 3 N 4.50293 0.467971 1.18804 0
M  V30 4 N 3.26127 0.68708 1.27037 0
M  V30 5 C 2.50765 0.70609 0.195643 0
M  V30 6 S 3.69291 0.381334 -1.02364 0
M  V30 7 C 1.03848 0.938204 0.0252297 0
M  V30 8 N 0.390377 -0.347692 0.113269 0
M  V30 9 C -1.03274 -0.486818 -0.00917133 0
M  V30 10 C -1.82293 0.600357 -0.214158 0
M  V30 11 C -3.21007 0.508158 -0.338639 0
M  V30 12 C -4.05527 1.71051 -0.562512 0
M  V30 13 N -3.7195 -0.738208 -0.241714 0
M  V30 14 C -2.95355 -1.83114 -0.038416 0
M  V30 15 N -1.59621 -1.7009 0.0786833 0
M  V30 16 N -3.51634 -3.13683 0.0602926 0
M  V30 17 H 6.9544 0.576573 -0.964808 0
M  V30 18 H 6.88417 -0.797696 0.223273 0
M  V30 19 H 0.736459 1.6232 0.842836 0
M  V30 20 H 0.891474 1.41619 -0.981926 0
M  V30 21 H 0.990204 -1.20382 0.272482 0
M  V30 22 H -1.36452 1.56798 -0.283253 0
M  V30 23 H -3.63849 2.55713 0.016605 0
M  V30 24 H -3.91234 1.98339 -1.64315 0
M  V30 25 H -5.09649 1.4817 -0.319137 0
M  V30 26 H -3.99235 -3.54276 -0.774355 0
M  V30 27 H -3.44224 -3.66248 0.964283 0
M  V30 END ATOM
M  V30 BEGIN BOND
M  V30 1 1 1 2
M  V30 2 2 2 3
M  V30 3 1 3 4
M  V30 4 2 4 5
M  V30 5 1 5 6
M  V30 6 1 5 7
M  V30 7 1 7 8
M  V30 8 1 8 9
M  V30 9 2 9 10
M  V30 10 1 10 11
M  V30 11 1 11 12
M  V30 12 2 11 13
M  V30 13 1 13 14
M  V30 14 2 14 15
M  V30 15 1 14 16
M  V30 16 1 6 2
M  V30 17 1 15 9
M  V30 18 1 1 17
M  V30 19 1 1 18
M  V30 20 1 7 19
M  V30 21 1 7 20
M  V30 22 1 8 21
M  V30 23 1 10 22
M  V30 24 1 12 23
M  V30 25 1 12 24
M  V30 26 1 12 25
M  V30 27 1 16 26
M  V30 28 1 16 27
M  V30 END BOND
M  V30 END CTAB
M  END
