
     RDKit          3D

  0  0  0  0  0  0  0  0  0  0999 V3000
M  V30 BEGIN CTAB
M  V30 COUNTS 65 64 0 0 0
M  V30 BEGIN ATOM
M  V30 1 N -3.7949 1.38685 -4.85714 0
M  V30 2 C -3.97178 0.437251 -3.82591 0
M  V30 3 C -4.52854 1.07176 -2.56925 0
M  V30 4 C -4.6834 -0.0108941 -1.52924 0
M  V30 5 N -5.20466 0.52061 -0.315604 0
M  V30 6 C -4.3562 1.39518 0.415289 0
M  V30 7 C -3.15238 0.764037 1.02218 0
M  V30 8 C -3.45587 -0.34284 2.01454 0
M  V30 9 C -2.11726 -0.836401 2.50352 0
M  V30 10 N -1.35648 -1.31878 1.3873 0
M  V30 11 C -1.75145 -2.41295 0.612831 0
M  V30 12 O -2.79677 -3.06065 0.844638 0
M  V30 13 C -0.888681 -2.81968 -0.53158 0 CFG=2
M  V30 14 O -1.38987 -3.97032 -1.15837 0
M  V30 15 N 0.473239 -3.08255 -0.158189 0
M  V30 16 C 1.51447 -2.408 -0.830128 0
M  V30 17 O 1.22688 -1.60052 -1.73556 0
M  V30 18 C 2.91359 -2.65559 -0.466693 0
M  V30 19 C 3.92784 -1.74974 -1.05574 0 CFG=1
M  V30 20 O 3.94917 -1.67852 -2.42813 0
M  V30 21 C 4.15133 -0.432408 -0.4077 0
M  V30 22 C 2.99343 0.499516 -0.314575 0
M  V30 23 C 3.40096 1.82587 0.352358 0
M  V30 24 C 3.90512 1.60586 1.73163 0
M  V30 25 N 4.26117 2.91383 2.29766 0
M  V30 26 C 4.77507 2.93705 3.61689 0
M  V30 27 N 5.84398 3.80858 3.91261 0
M  V30 28 N 4.2635 2.17178 4.51065 0
M  V30 29 H -4.48661 1.38625 -5.56101 0
M  V30 30 H -2.8614 1.55488 -5.12785 0
M  V30 31 H -2.98016 -0.0464599 -3.62852 0
M  V30 32 H -4.63829 -0.353854 -4.20676 0
M  V30 33 H -5.51319 1.50613 -2.85726 0
M  V30 34 H -3.91451 1.92327 -2.22839 0
M  V30 35 H -3.77491 -0.619571 -1.41329 0
M  V30 36 H -5.47576 -0.704284 -1.93695 0
M  V30 37 H -5.84413 -0.070349 0.214102 0
M  V30 38 H -3.99799 2.23391 -0.224224 0
M  V30 39 H -4.96286 1.84068 1.24302 0
M  V30 40 H -2.56164 1.53569 1.55817 0
M  V30 41 H -2.46931 0.314104 0.261819 0
M  V30 42 H -3.9992 0.0574711 2.90383 0
M  V30 43 H -3.99187 -1.17864 1.54908 0
M  V30 44 H -1.57558 -0.0200155 3.06593 0
M  V30 45 H -2.25616 -1.63187 3.28496 0
M  V30 46 H -0.474093 -0.812405 1.16449 0
M  V30 47 H -0.879447 -2.00834 -1.31278 0
M  V30 48 H -2.20194 -3.7213 -1.64669 0
M  V30 49 H 0.706838 -3.7573 0.593749 0
M  V30 50 H 3.23629 -3.70271 -0.695299 0
M  V30 51 H 3.06014 -2.59683 0.66012 0
M  V30 52 H 4.98036 -2.28786 -0.845081 0
M  V30 53 H 3.72868 -2.51624 -2.88088 0
M  V30 54 H 4.97324 0.130964 -0.936839 0
M  V30 55 H 4.58404 -0.658078 0.609885 0
M  V30 56 H 2.21405 0.00873603 0.319355 0
M  V30 57 H 2.66081 0.79334 -1.31687 0
M  V30 58 H 4.12791 2.34894 -0.295139 0
M  V30 59 H 2.5008 2.48773 0.436637 0
M  V30 60 H 3.09315 1.13081 2.32121 0
M  V30 61 H 4.773 0.920136 1.80791 0
M  V30 62 H 4.13421 3.77904 1.73166 0
M  V30 63 H 5.75972 4.45918 4.71005 0
M  V30 64 H 6.69789 3.80028 3.34463 0
M  V30 65 H 3.47643 1.51622 4.33487 0
M  V30 END ATOM
M  V30 BEGIN BOND
M  V30 1 1 1 2
M  V30 2 1 2 3
M  V30 3 1 3 4
M  V30 4 1 4 5
M  V30 5 1 5 6
M  V30 6 1 6 7
M  V30 7 1 7 8
M  V30 8 1 8 9
M  V30 9 1 9 10
M  V30 10 1 10 11
M  V30 11 2 11 12
M  V30 12 1 11 13
M  V30 13 1 13 14
M  V30 14 1 13 15
M  V30 15 1 15 16
M  V30 16 2 16 17
M  V30 17 1 16 18
M  V30 18 1 18 19
M  V30 19 1 19 20
M  V30 20 1 19 21
M  V30 21 1 21 22
M  V30 22 1 22 23
M  V30 23 1 23 24
M  V30 24 1 24 25
M  V30 25 1 25 26
M  V30 26 1 26 27
M  V30 27 2 26 28 CFG=2
M  V30 28 1 1 29
M  V30 29 1 1 30
M  V30 30 1 2 31
M  V30 31 1 2 32
M  V30 32 1 3 33
M  V30 33 1 3 34
M  V30 34 1 4 35
M  V30 35 1 4 36
M  V30 36 1 5 37
M  V30 37 1 6 38
M  V30 38 1 6 39
M  V30 39 1 7 40
M  V30 40 1 7 41
M  V30 41 1 8 42
M  V30 42 1 8 43
M  V30 43 1 9 44
M  V30 44 1 9 45
M  V30 45 1 10 46
M  V30 46 1 13 47 CFG=3
M  V30 47 1 14 48
M  V30 48 1 15 49
M  V30 49 1 18 50
M  V30 50 1 18 51
M  V30 51 1 19 52 CFG=1
M  V30 52 1 20 53
M  V30 53 1 21 54
M  V30 54 1 21 55
M  V30 55 1 22 56
M  V30 56 1 22 57
M  V30 57 1 23 58
M  V30 58 1 23 59
M  V30 59 1 24 60
M  V30 60 1 24 61
M  V30 61 1 25 62
M  V30 62 1 27 63
M  V30 63 1 27 64
M  V30 64 1 28 65
M  V30 END BOND
M  V30 END CTAB
M  END
