
     RDKit          3D

  0  0  0  0  0  0  0  0  0  0999 V3000
M  V30 BEGIN CTAB
M  V30 COUNTS 49 51 0 0 0
M  V30 BEGIN ATOM
M  V30 1 N -2.90811 -2.78774 -2.13783 0
M  V30 2 C -3.26211 -2.00995 -1.0239 0
M  V30 3 C -2.48388 -0.725 -1.01733 0 CFG=2
M  V30 4 C -0.982594 -0.997972 -0.955065 0
M  V30 5 N -0.410863 0.109258 -0.221994 0
M  V30 6 C -1.52552 1.06246 0.06132 0
M  V30 7 C -2.67074 0.0646726 0.261356 0 CFG=1
M  V30 8 C -3.96852 0.726089 0.347437 0
M  V30 9 C -4.40251 1.61151 -0.610055 0
M  V30 10 C -5.64757 2.23722 -0.514295 0
M  V30 11 C -6.47074 1.98086 0.543943 0
M  V30 12 C -6.05397 1.09975 1.50921 0
M  V30 13 C -4.81298 0.479336 1.40893 0
M  V30 14 C 0.879906 0.416919 0.224636 0
M  V30 15 O 1.02289 1.53457 0.87325 0
M  V30 16 C 2.10132 -0.350287 0.0620745 0
M  V30 17 C 2.20184 -1.55495 -0.58762 0
M  V30 18 C 3.43305 -2.21705 -0.688165 0
M  V30 19 C 4.58288 -1.69933 -0.148726 0
M  V30 20 C 4.50428 -0.497258 0.504265 0
M  V30 21 C 3.29518 0.146627 0.599498 0
M  V30 22 C 5.73721 0.107559 1.11037 0
M  V30 23 S 6.54559 1.15652 -0.0954163 0
M  V30 24 O 5.62345 2.26193 -0.522458 0
M  V30 25 O 6.93268 0.358204 -1.29983 0
M  V30 26 N 7.96069 1.86698 0.560145 0
M  V30 27 H -3.67878 -3.17101 -2.64005 0
M  V30 28 H -1.97165 -2.87857 -2.4215 0
M  V30 29 H -4.33665 -1.74054 -1.11282 0
M  V30 30 H -3.11295 -2.51301 -0.047759 0
M  V30 31 H -2.71729 -0.10912 -1.92281 0
M  V30 32 H -0.588484 -1.10181 -1.98561 0
M  V30 33 H -0.90537 -1.96257 -0.404758 0
M  V30 34 H -1.67987 1.59898 -0.872601 0
M  V30 35 H -1.33928 1.65402 0.952601 0
M  V30 36 H -2.451 -0.617313 1.09308 0
M  V30 37 H -3.80998 1.85263 -1.45581 0
M  V30 38 H -5.98343 2.93283 -1.27071 0
M  V30 39 H -7.44596 2.48515 0.59788 0
M  V30 40 H -6.71989 0.90752 2.34277 0
M  V30 41 H -4.55653 -0.20431 2.21296 0
M  V30 42 H 1.3548 -2.03233 -1.03934 0
M  V30 43 H 3.4744 -3.15918 -1.20436 0
M  V30 44 H 5.5457 -2.18075 -0.207093 0
M  V30 45 H 3.3008 1.08758 1.12531 0
M  V30 46 H 5.51701 0.725823 1.98427 0
M  V30 47 H 6.43288 -0.692689 1.36387 0
M  V30 48 H 8.67749 2.08705 -0.164138 0
M  V30 49 H 7.77316 2.6507 1.2158 0
M  V30 END ATOM
M  V30 BEGIN BOND
M  V30 1 1 1 2
M  V30 2 1 2 3
M  V30 3 1 3 4
M  V30 4 1 4 5
M  V30 5 1 5 6
M  V30 6 1 6 7
M  V30 7 1 7 8
M  V30 8 2 8 9
M  V30 9 1 9 10
M  V30 10 2 10 11
M  V30 11 1 11 12
M  V30 12 2 12 13
M  V30 13 1 5 14
M  V30 14 2 14 15
M  V30 15 1 14 16
M  V30 16 2 16 17
M  V30 17 1 17 18
M  V30 18 2 18 19
M  V30 19 1 19 20
M  V30 20 2 20 21
M  V30 21 1 20 22
M  V30 22 1 22 23
M  V30 23 2 23 24
M  V30 24 2 23 25
M  V30 25 1 23 26
M  V30 26 1 7 3
M  V30 27 1 13 8
M  V30 28 1 21 16
M  V30 29 1 1 27
M  V30 30 1 1 28
M  V30 31 1 2 29
M  V30 32 1 2 30
M  V30 33 1 3 31 CFG=3
M  V30 34 1 4 32
M  V30 35 1 4 33
M  V30 36 1 6 34
M  V30 37 1 6 35
M  V30 38 1 7 36 CFG=1
M  V30 39 1 9 37
M  V30 40 1 10 38
M  V30 41 1 11 39
M  V30 42 1 12 40
M  V30 43 1 13 41
M  V30 44 1 17 42
M  V30 45 1 18 43
M  V30 46 1 19 44
M  V30 47 1 21 45
M  V30 48 1 22 46
M  V30 49 1 22 47
M  V30 50 1 26 48
M  V30 51 1 26 49
M  V30 END BOND
M  V30 END CTAB
M  END
