
     RDKit          3D

  0  0  0  0  0  0  0  0  0  0999 V3000
M  V30 BEGIN CTAB
M  V30 COUNTS 38 39 0 0 0
M  V30 BEGIN ATOM
M  V30 1 N 3.97142 -0.49725 -1.75447 0
M  V30 2 C 4.59579 -0.0367384 -0.565656 0
M  V30 3 C 5.96522 0.109851 -0.566006 0
M  V30 4 C 6.57675 0.555152 0.581045 0
M  V30 5 C 5.82863 0.851124 1.717 0
M  V30 6 C 4.46256 0.692081 1.67865 0
M  V30 7 C 3.81347 0.2423 0.530218 0
M  V30 8 C 2.37546 0.0670165 0.466047 0
M  V30 9 N 1.85774 -0.350802 -0.628391 0
M  V30 10 C 0.462448 -0.578786 -0.865559 0
M  V30 11 C -0.310798 -0.147684 0.366012 0
M  V30 12 N -1.7371 -0.352214 0.189879 0
M  V30 13 C -2.51338 0.647593 0.103959 0
M  V30 14 C -3.93757 0.456426 -0.0717944 0
M  V30 15 C -4.83007 1.49741 -0.17154 0
M  V30 16 C -6.16894 1.28652 -0.337034 0
M  V30 17 C -6.68265 0.0133775 -0.411203 0
M  V30 18 C -5.80204 -1.0404 -0.313025 0
M  V30 19 C -4.44493 -0.84378 -0.145428 0
M  V30 20 N -3.53629 -1.93315 -0.0441541 0
M  V30 21 H 3.85219 -1.50993 -1.96798 0
M  V30 22 H 3.59414 0.166458 -2.48657 0
M  V30 23 H 6.58743 -0.104509 -1.41472 0
M  V30 24 H 7.64119 0.699451 0.672456 0
M  V30 25 H 6.27208 1.20266 2.63524 0
M  V30 26 H 3.82172 0.904891 2.52873 0
M  V30 27 H 1.7259 0.273831 1.30085 0
M  V30 28 H 0.292082 -1.67888 -0.984839 0
M  V30 29 H 0.0724592 -0.111332 -1.78289 0
M  V30 30 H -0.0292021 -0.747153 1.25161 0
M  V30 31 H -0.0749689 0.91208 0.605791 0
M  V30 32 H -2.11526 1.64175 0.161505 0
M  V30 33 H -4.39313 2.5052 -0.109131 0
M  V30 34 H -6.8405 2.12398 -0.411604 0
M  V30 35 H -7.75658 -0.183859 -0.544199 0
M  V30 36 H -6.18512 -2.07112 -0.369056 0
M  V30 37 H -3.33131 -2.34826 0.882403 0
M  V30 38 H -3.07886 -2.3133 -0.891032 0
M  V30 END ATOM
M  V30 BEGIN BOND
M  V30 1 1 1 2
M  V30 2 2 2 3
M  V30 3 1 3 4
M  V30 4 2 4 5
M  V30 5 1 5 6
M  V30 6 2 6 7
M  V30 7 1 7 8
M  V30 8 2 8 9 CFG=2
M  V30 9 1 9 10
M  V30 10 1 10 11
M  V30 11 1 11 12
M  V30 12 2 12 13 CFG=2
M  V30 13 1 13 14
M  V30 14 2 14 15
M  V30 15 1 15 16
M  V30 16 2 16 17
M  V30 17 1 17 18
M  V30 18 2 18 19
M  V30 19 1 19 20
M  V30 20 1 7 2
M  V30 21 1 19 14
M  V30 22 1 1 21
M  V30 23 1 1 22
M  V30 24 1 3 23
M  V30 25 1 4 24
M  V30 26 1 5 25
M  V30 27 1 6 26
M  V30 28 1 8 27
M  V30 29 1 10 28
M  V30 30 1 10 29
M  V30 31 1 11 30
M  V30 32 1 11 31
M  V30 33 1 13 32
M  V30 34 1 15 33
M  V30 35 1 16 34
M  V30 36 1 17 35
M  V30 37 1 18 36
M  V30 38 1 20 37
M  V30 39 1 20 38
M  V30 END BOND
M  V30 END CTAB
M  END
