
     RDKit          3D

  0  0  0  0  0  0  0  0  0  0999 V3000
M  V30 BEGIN CTAB
M  V30 COUNTS 31 32 0 0 0
M  V30 BEGIN ATOM
M  V30 1 C 3.61438 -0.920241 -1.69647 0
M  V30 2 N 2.66347 -0.350289 -0.7261 0
M  V30 3 N 1.71425 -0.980557 -0.0941091 0
M  V30 4 C 1.05407 -0.13445 0.706018 0
M  V30 5 N 1.63882 1.05651 0.542025 0
M  V30 6 C 2.63777 0.933105 -0.343913 0
M  V30 7 N 3.50945 1.95918 -0.798695 0
M  V30 8 C -0.0747722 -0.422364 1.58725 0
M  V30 9 C -1.40627 -0.25414 0.928422 0
M  V30 10 N -2.46689 -0.556455 1.863 0
M  V30 11 C -1.6487 1.09646 0.354014 0
M  V30 12 C -2.80438 0.869178 -0.603877 0
M  V30 13 C -2.90035 -0.618049 -0.820909 0
M  V30 14 C -1.59142 -1.16062 -0.267342 0
M  V30 15 H 4.12355 -0.0988171 -2.23296 0
M  V30 16 H 3.09145 -1.57621 -2.41304 0
M  V30 17 H 4.42546 -1.47255 -1.14412 0
M  V30 18 H 3.13856 2.68397 -1.45091 0
M  V30 19 H 4.50515 1.99056 -0.487525 0
M  V30 20 H -0.0403318 -1.4607 1.99981 0
M  V30 21 H -0.0536638 0.247145 2.47174 0
M  V30 22 H -2.3222 -1.55834 2.15555 0
M  V30 23 H -2.40249 0.0089907 2.73925 0
M  V30 24 H -0.809307 1.48131 -0.259935 0
M  V30 25 H -1.95188 1.81 1.14745 0
M  V30 26 H -3.77043 1.18121 -0.116049 0
M  V30 27 H -2.65157 1.40374 -1.57418 0
M  V30 28 H -3.70311 -1.07204 -0.171528 0
M  V30 29 H -3.04571 -0.892443 -1.88028 0
M  V30 30 H -0.805775 -0.964658 -1.02045 0
M  V30 31 H -1.66713 -2.22842 0.0100962 0
M  V30 END ATOM
M  V30 BEGIN BOND
M  V30 1 1 1 2
M  V30 2 1 2 3
M  V30 3 2 3 4
M  V30 4 1 4 5
M  V30 5 2 5 6
M  V30 6 1 6 7
M  V30 7 1 4 8
M  V30 8 1 8 9
M  V30 9 1 9 10
M  V30 10 1 9 11
M  V30 11 1 11 12
M  V30 12 1 12 13
M  V30 13 1 13 14
M  V30 14 1 6 2
M  V30 15 1 14 9
M  V30 16 1 1 15
M  V30 17 1 1 16
M  V30 18 1 1 17
M  V30 19 1 7 18
M  V30 20 1 7 19
M  V30 21 1 8 20
M  V30 22 1 8 21
M  V30 23 1 10 22
M  V30 24 1 10 23
M  V30 25 1 11 24
M  V30 26 1 11 25
M  V30 27 1 12 26
M  V30 28 1 12 27
M  V30 29 1 13 28
M  V30 30 1 13 29
M  V30 31 1 14 30
M  V30 32 1 14 31
M  V30 END BOND
M  V30 END CTAB
M  END
