
     RDKit          3D

  0  0  0  0  0  0  0  0  0  0999 V3000
M  V30 BEGIN CTAB
M  V30 COUNTS 25 25 0 0 0
M  V30 BEGIN ATOM
M  V30 1 N 4.69534 -0.880997 0.620396 0
M  V30 2 C 3.30727 -0.571266 0.495523 0
M  V30 3 N 2.28172 -1.20502 1.03631 0
M  V30 4 C 1.06961 -0.788506 0.820058 0
M  V30 5 C 0.89554 0.309029 0.0275856 0
M  V30 6 S 2.53624 0.682502 -0.367702 0
M  V30 7 C -0.323085 1.04432 -0.42004 0
M  V30 8 C -1.599 0.307274 -0.198246 0
M  V30 9 N -2.67904 1.1189 -0.795539 0
M  V30 10 C -1.91927 0.255061 1.28352 0
M  V30 11 C -1.66423 -1.03465 -0.85766 0
M  V30 12 O -0.129722 1.22792 -1.80906 0
M  V30 13 H 5.21419 -1.11475 -0.246592 0
M  V30 14 H 5.21666 -0.887916 1.51458 0
M  V30 15 H 0.201759 -1.32232 1.27218 0
M  V30 16 H -0.415845 2.04667 0.0222089 0
M  V30 17 H -2.65039 2.08844 -0.419705 0
M  V30 18 H -3.61439 0.678524 -0.596445 0
M  V30 19 H -2.12631 -0.819723 1.52416 0
M  V30 20 H -2.85088 0.788106 1.51584 0
M  V30 21 H -1.04619 0.639364 1.84789 0
M  V30 22 H -2.20998 -0.995147 -1.84553 0
M  V30 23 H -2.24196 -1.71163 -0.176761 0
M  V30 24 H -0.701669 -1.50204 -1.05661 0
M  V30 25 H 0.753613 1.64786 -1.95188 0
M  V30 END ATOM
M  V30 BEGIN BOND
M  V30 1 1 1 2
M  V30 2 2 2 3
M  V30 3 1 3 4
M  V30 4 2 4 5
M  V30 5 1 5 6
M  V30 6 1 5 7
M  V30 7 1 7 8
M  V30 8 1 8 9
M  V30 9 1 8 10
M  V30 10 1 8 11
M  V30 11 1 7 12
M  V30 12 1 6 2
M  V30 13 1 1 13
M  V30 14 1 1 14
M  V30 15 1 4 15
M  V30 16 1 7 16
M  V30 17 1 9 17
M  V30 18 1 9 18
M  V30 19 1 10 19
M  V30 20 1 10 20
M  V30 21 1 10 21
M  V30 22 1 11 22
M  V30 23 1 11 23
M  V30 24 1 11 24
M  V30 25 1 12 25
M  V30 END BOND
M  V30 END CTAB
M  END
