
     RDKit          3D

  0  0  0  0  0  0  0  0  0  0999 V3000
M  V30 BEGIN CTAB
M  V30 COUNTS 34 35 0 0 0
M  V30 BEGIN ATOM
M  V30 1 O 0.526554 -1.59857 -0.47028 0
M  V30 2 C 0.524735 -0.448169 -0.00942526 0
M  V30 3 N 1.69066 0.255021 0.358369 0
M  V30 4 C 2.98867 -0.250513 0.259647 0
M  V30 5 C 3.30472 -1.57044 0.152221 0
M  V30 6 C 4.65349 -1.94856 0.0343922 0
M  V30 7 C 5.64311 -0.993644 0.0285218 0
M  V30 8 C 5.35222 0.354845 0.136775 0
M  V30 9 C 4.02792 0.688531 0.249646 0
M  V30 10 N 6.37629 1.32828 0.1301 0 CHG=1
M  V30 11 O 6.16304 2.542 0.224227 0
M  V30 12 O 7.6941 0.934605 0.0137318 0 CHG=-1
M  V30 13 C -0.833668 0.187133 0.144947 0
M  V30 14 O -1.8381 -0.666651 -0.271308 0
M  V30 15 N -3.16891 -0.51494 -0.307361 0
M  V30 16 C -3.7819 0.547003 0.0190075 0
M  V30 17 C -5.23588 0.620202 -0.0523826 0
M  V30 18 N -6.06221 1.63796 0.244521 0
M  V30 19 O -7.29559 1.24227 0.0256986 0
M  V30 20 N -7.33683 0.0337449 -0.39486 0
M  V30 21 C -6.05659 -0.406183 -0.46181 0
M  V30 22 N -5.59581 -1.68121 -0.871958 0
M  V30 23 N -3.07927 1.6931 0.462011 0
M  V30 24 H 1.57364 1.26323 0.753249 0
M  V30 25 H 2.56513 -2.36522 0.166371 0
M  V30 26 H 4.87489 -2.99806 -0.049514 0
M  V30 27 H 6.67867 -1.29732 -0.0628178 0
M  V30 28 H 3.81546 1.76566 0.334423 0
M  V30 29 H -0.793166 1.07823 -0.542484 0
M  V30 30 H -0.886189 0.555464 1.17452 0
M  V30 31 H -5.63718 -1.92764 -1.87459 0
M  V30 32 H -5.23179 -2.31697 -0.126057 0
M  V30 33 H -2.8858 1.82798 1.4999 0
M  V30 34 H -2.73442 2.42884 -0.184 0
M  V30 END ATOM
M  V30 BEGIN BOND
M  V30 1 2 1 2
M  V30 2 1 2 3
M  V30 3 1 3 4
M  V30 4 2 4 5
M  V30 5 1 5 6
M  V30 6 2 6 7
M  V30 7 1 7 8
M  V30 8 2 8 9
M  V30 9 1 8 10
M  V30 10 2 10 11
M  V30 11 1 10 12
M  V30 12 1 2 13
M  V30 13 1 13 14
M  V30 14 1 14 15
M  V30 15 2 15 16
M  V30 16 1 16 17
M  V30 17 2 17 18
M  V30 18 1 18 19
M  V30 19 1 19 20
M  V30 20 2 20 21
M  V30 21 1 21 22
M  V30 22 1 16 23
M  V30 23 1 9 4
M  V30 24 1 21 17
M  V30 25 1 3 24
M  V30 26 1 5 25
M  V30 27 1 6 26
M  V30 28 1 7 27
M  V30 29 1 9 28
M  V30 30 1 13 29
M  V30 31 1 13 30
M  V30 32 1 22 31
M  V30 33 1 22 32
M  V30 34 1 23 33
M  V30 35 1 23 34
M  V30 END BOND
M  V30 END CTAB
M  END
