
     RDKit          3D

  0  0  0  0  0  0  0  0  0  0999 V3000
M  V30 BEGIN CTAB
M  V30 COUNTS 48 49 0 0 0
M  V30 BEGIN ATOM
M  V30 1 C 8.04337 -0.21602 0.537163 0
M  V30 2 C 7.00272 -0.530788 -0.537371 0
M  V30 3 O 5.73849 -0.279704 -0.00225353 0
M  V30 4 C 4.54165 -0.442483 -0.652478 0
M  V30 5 O 4.54799 -0.853232 -1.838 0
M  V30 6 C 3.25603 -0.147978 0.00464144 0
M  V30 7 O 2.14958 -0.389733 -0.838856 0
M  V30 8 C 0.897362 -0.134864 -0.287945 0
M  V30 9 C 0.19079 -1.11615 0.399071 0
M  V30 10 O 0.759515 -2.37046 0.529662 0
M  V30 11 C 0.0364692 -3.36315 1.22954 0
M  V30 12 C -1.0416 -0.828543 0.928897 0
M  V30 13 C -1.60414 0.446181 0.788428 0
M  V30 14 C -2.93067 0.727965 1.3903 0
M  V30 15 C -4.07646 0.218358 0.665525 0
M  V30 16 C -4.71862 -0.940979 1.09881 0
M  V30 17 N -5.78417 -1.41868 0.415434 0
M  V30 18 C -6.24328 -0.805549 -0.672998 0
M  V30 19 N -7.36272 -1.32397 -1.37444 0
M  V30 20 N -5.65862 0.29763 -1.11348 0
M  V30 21 C -4.58066 0.807102 -0.447552 0
M  V30 22 N -4.03149 1.97813 -0.977874 0
M  V30 23 C -0.857139 1.37175 0.0999425 0
M  V30 24 C 0.384594 1.13435 -0.451659 0
M  V30 25 O 1.07705 2.12303 -1.13402 0
M  V30 26 C 0.494667 3.40199 -1.2656 0
M  V30 27 H 8.97487 0.196152 0.0735105 0
M  V30 28 H 7.59909 0.519111 1.23161 0
M  V30 29 H 8.24369 -1.144 1.11718 0
M  V30 30 H 7.13762 -1.60397 -0.829169 0
M  V30 31 H 7.26468 0.0683044 -1.41825 0
M  V30 32 H 3.30101 0.903039 0.350099 0
M  V30 33 H 3.10489 -0.774306 0.926177 0
M  V30 34 H -0.303178 -2.98914 2.20429 0
M  V30 35 H -0.894855 -3.5562 0.626599 0
M  V30 36 H 0.642598 -4.28605 1.36675 0
M  V30 37 H -1.59601 -1.59995 1.46801 0
M  V30 38 H -2.92959 0.347766 2.45664 0
M  V30 39 H -2.99317 1.84865 1.53844 0
M  V30 40 H -4.35936 -1.45409 1.9824 0
M  V30 41 H -8.23093 -1.67714 -0.918146 0
M  V30 42 H -7.35062 -1.36954 -2.42153 0
M  V30 43 H -3.37955 1.97511 -1.7794 0
M  V30 44 H -4.29618 2.89269 -0.539466 0
M  V30 45 H -1.22917 2.38573 -0.0372562 0
M  V30 46 H 1.21087 4.078 -1.77626 0
M  V30 47 H -0.429442 3.41584 -1.85435 0
M  V30 48 H 0.282026 3.84511 -0.260757 0
M  V30 END ATOM
M  V30 BEGIN BOND
M  V30 1 1 1 2
M  V30 2 1 2 3
M  V30 3 1 3 4
M  V30 4 2 4 5
M  V30 5 1 4 6
M  V30 6 1 6 7
M  V30 7 1 7 8
M  V30 8 2 8 9
M  V30 9 1 9 10
M  V30 10 1 10 11
M  V30 11 1 9 12
M  V30 12 2 12 13
M  V30 13 1 13 14
M  V30 14 1 14 15
M  V30 15 2 15 16
M  V30 16 1 16 17
M  V30 17 2 17 18
M  V30 18 1 18 19
M  V30 19 1 18 20
M  V30 20 2 20 21
M  V30 21 1 21 22
M  V30 22 1 13 23
M  V30 23 2 23 24
M  V30 24 1 24 25
M  V30 25 1 25 26
M  V30 26 1 24 8
M  V30 27 1 21 15
M  V30 28 1 1 27
M  V30 29 1 1 28
M  V30 30 1 1 29
M  V30 31 1 2 30
M  V30 32 1 2 31
M  V30 33 1 6 32
M  V30 34 1 6 33
M  V30 35 1 11 34
M  V30 36 1 11 35
M  V30 37 1 11 36
M  V30 38 1 12 37
M  V30 39 1 14 38
M  V30 40 1 14 39
M  V30 41 1 16 40
M  V30 42 1 19 41
M  V30 43 1 19 42
M  V30 44 1 22 43
M  V30 45 1 22 44
M  V30 46 1 23 45
M  V30 47 1 26 46
M  V30 48 1 26 47
M  V30 49 1 26 48
M  V30 END BOND
M  V30 END CTAB
M  END
