
     RDKit          3D

  0  0  0  0  0  0  0  0  0  0999 V3000
M  V30 BEGIN CTAB
M  V30 COUNTS 52 55 0 0 0
M  V30 BEGIN ATOM
M  V30 1 N -8.05228 -1.37931 -0.553919 0
M  V30 2 C -6.75114 -0.777822 -0.402792 0
M  V30 3 N -5.96645 -1.07387 0.638489 0
M  V30 4 C -4.74239 -0.509487 0.78276 0
M  V30 5 N -3.89955 -0.807285 1.87003 0
M  V30 6 C -4.32695 0.382441 -0.178313 0
M  V30 7 C -3.04481 0.973885 -0.0284825 0
M  V30 8 O -2.27453 0.682623 1.00444 0
M  V30 9 C -1.16529 0.787457 1.69749 0
M  V30 10 C 0.168615 0.308555 1.21914 0
M  V30 11 C 0.653957 0.931901 -0.0191744 0
M  V30 12 C 2.07043 0.494484 -0.363714 0
M  V30 13 N 2.40219 -0.770815 0.181058 0
M  V30 14 C 1.39096 -1.68501 0.494194 0
M  V30 15 C 0.0866274 -1.18884 0.988057 0
M  V30 16 S 3.81522 -0.83514 1.10847 0
M  V30 17 O 3.98393 -2.25074 1.61716 0
M  V30 18 O 3.72281 0.0304173 2.35947 0
M  V30 19 C 5.22748 -0.420329 0.204124 0
M  V30 20 C 5.7091 0.880642 0.098418 0
M  V30 21 C 6.83861 1.11533 -0.641934 0
M  V30 22 C 7.52713 0.115227 -1.29312 0
M  V30 23 Cl 8.97303 0.442536 -2.23614 0
M  V30 24 C 7.058 -1.16781 -1.19291 0
M  V30 25 C 5.91704 -1.42164 -0.447987 0
M  V30 26 C -2.72236 1.86569 -1.06193 0
M  V30 27 C -3.52745 2.15813 -2.11476 0
M  V30 28 C -4.7528 1.5589 -2.20953 0
M  V30 29 C -5.13265 0.681506 -1.24046 0
M  V30 30 N -6.35854 0.0848419 -1.33964 0
M  V30 31 H -8.22544 -2.14792 -1.24095 0
M  V30 32 H -8.82306 -1.02836 0.0415951 0
M  V30 33 H -3.22695 -1.5889 1.78465 0
M  V30 34 H -3.93884 -0.262332 2.7511 0
M  V30 35 H -1.30292 0.429391 2.79436 0
M  V30 36 H -1.02506 1.92678 1.94185 0
M  V30 37 H 0.879747 0.524157 2.07222 0
M  V30 38 H 0.0156417 0.558193 -0.87043 0
M  V30 39 H 0.536764 2.02203 0.0146007 0
M  V30 40 H 2.2046 0.476572 -1.45755 0
M  V30 41 H 2.74361 1.26605 0.0464234 0
M  V30 42 H 1.20239 -2.30787 -0.43193 0
M  V30 43 H 1.79753 -2.4622 1.21409 0
M  V30 44 H -0.690697 -1.35219 0.242484 0
M  V30 45 H -0.160226 -1.63771 1.97793 0
M  V30 46 H 5.16355 1.66482 0.612939 0
M  V30 47 H 7.2011 2.12478 -0.716204 0
M  V30 48 H 7.57833 -1.9865 -1.69603 0
M  V30 49 H 5.59886 -2.46449 -0.41021 0
M  V30 50 H -1.77797 2.37207 -1.0197 0
M  V30 51 H -3.20256 2.86803 -2.88513 0
M  V30 52 H -5.37634 1.79913 -3.04478 0
M  V30 END ATOM
M  V30 BEGIN BOND
M  V30 1 1 1 2
M  V30 2 2 2 3
M  V30 3 1 3 4
M  V30 4 1 4 5
M  V30 5 2 4 6
M  V30 6 1 6 7
M  V30 7 1 7 8
M  V30 8 1 8 9
M  V30 9 1 9 10
M  V30 10 1 10 11
M  V30 11 1 11 12
M  V30 12 1 12 13
M  V30 13 1 13 14
M  V30 14 1 14 15
M  V30 15 1 13 16
M  V30 16 2 16 17
M  V30 17 2 16 18
M  V30 18 1 16 19
M  V30 19 2 19 20
M  V30 20 1 20 21
M  V30 21 2 21 22
M  V30 22 1 22 23
M  V30 23 1 22 24
M  V30 24 2 24 25
M  V30 25 2 7 26
M  V30 26 1 26 27
M  V30 27 2 27 28
M  V30 28 1 28 29
M  V30 29 2 29 30
M  V30 30 1 30 2
M  V30 31 1 29 6
M  V30 32 1 15 10
M  V30 33 1 25 19
M  V30 34 1 1 31
M  V30 35 1 1 32
M  V30 36 1 5 33
M  V30 37 1 5 34
M  V30 38 1 9 35
M  V30 39 1 9 36
M  V30 40 1 10 37
M  V30 41 1 11 38
M  V30 42 1 11 39
M  V30 43 1 12 40
M  V30 44 1 12 41
M  V30 45 1 14 42
M  V30 46 1 14 43
M  V30 47 1 15 44
M  V30 48 1 15 45
M  V30 49 1 20 46
M  V30 50 1 21 47
M  V30 51 1 24 48
M  V30 52 1 25 49
M  V30 53 1 26 50
M  V30 54 1 27 51
M  V30 55 1 28 52
M  V30 END BOND
M  V30 END CTAB
M  END
