
     RDKit          3D

  0  0  0  0  0  0  0  0  0  0999 V3000
M  V30 BEGIN CTAB
M  V30 COUNTS 34 35 0 0 0
M  V30 BEGIN ATOM
M  V30 1 O 0.999214 -0.805614 -0.557191 0
M  V30 2 C 0.599634 0.174414 0.0692 0
M  V30 3 N -0.678919 0.579993 0.356233 0
M  V30 4 C -1.54366 -0.678553 -0.441121 0
M  V30 5 O -0.844905 -1.42905 -0.972175 0
M  V30 6 C -2.94747 -0.539279 -0.286571 0
M  V30 7 C -3.59958 -0.86396 0.909533 0
M  V30 8 C -4.96145 -0.746688 1.07471 0
M  V30 9 C -5.79696 -0.293286 0.0614845 0
M  V30 10 C -5.15033 0.0281753 -1.12469 0
M  V30 11 C -3.79276 -0.0833656 -1.30461 0
M  V30 12 N -7.18959 -0.176227 0.258221 0
M  V30 13 N 1.64705 1.04817 0.605553 0
M  V30 14 C 2.9903 0.724726 0.377654 0
M  V30 15 C 3.9096 0.837014 1.43144 0
M  V30 16 C 5.23498 0.541965 1.28305 0
M  V30 17 C 5.73897 0.110002 0.057444 0
M  V30 18 C 4.84721 0.000247837 -0.972475 0
M  V30 19 C 3.48159 0.303088 -0.824635 0
M  V30 20 Cl 5.42301 -0.541273 -2.53067 0
M  V30 21 N 7.10006 -0.225228 -0.141267 0
M  V30 22 H -1.56118 0.859825 0.554277 0
M  V30 23 H -2.9264 -1.21532 1.70092 0
M  V30 24 H -5.42429 -1.01285 2.02514 0
M  V30 25 H -5.78906 0.389612 -1.95019 0
M  V30 26 H -3.29371 0.174414 -2.24634 0
M  V30 27 H -7.53275 0.41446 1.0461 0
M  V30 28 H -7.90498 -0.634959 -0.328451 0
M  V30 29 H 1.36754 1.86716 1.13349 0
M  V30 30 H 3.57028 1.17372 2.40897 0
M  V30 31 H 5.96696 0.618277 2.09528 0
M  V30 32 H 2.8378 0.199964 -1.69159 0
M  V30 33 H 7.44875 -1.09746 0.349143 0
M  V30 34 H 7.77504 0.29788 -0.721726 0
M  V30 END ATOM
M  V30 BEGIN BOND
M  V30 1 2 1 2
M  V30 2 1 2 3
M  V30 3 1 3 4
M  V30 4 2 4 5
M  V30 5 1 4 6
M  V30 6 2 6 7
M  V30 7 1 7 8
M  V30 8 2 8 9
M  V30 9 1 9 10
M  V30 10 2 10 11
M  V30 11 1 9 12
M  V30 12 1 2 13
M  V30 13 1 13 14
M  V30 14 2 14 15
M  V30 15 1 15 16
M  V30 16 2 16 17
M  V30 17 1 17 18
M  V30 18 2 18 19
M  V30 19 1 18 20
M  V30 20 1 17 21
M  V30 21 1 11 6
M  V30 22 1 19 14
M  V30 23 1 3 22
M  V30 24 1 7 23
M  V30 25 1 8 24
M  V30 26 1 10 25
M  V30 27 1 11 26
M  V30 28 1 12 27
M  V30 29 1 12 28
M  V30 30 1 13 29
M  V30 31 1 15 30
M  V30 32 1 16 31
M  V30 33 1 19 32
M  V30 34 1 21 33
M  V30 35 1 21 34
M  V30 END BOND
M  V30 END CTAB
M  END
