
     RDKit          3D

  0  0  0  0  0  0  0  0  0  0999 V3000
M  V30 BEGIN CTAB
M  V30 COUNTS 38 39 0 0 0
M  V30 BEGIN ATOM
M  V30 1 O -1.24964 2.11739 -0.0809865 0
M  V30 2 C -1.08087 0.892866 -0.00497338 0
M  V30 3 C 0.359966 0.444716 0.0903203 0
M  V30 4 S 1.4902 1.85403 0.0629301 0
M  V30 5 C 3.14874 1.25025 0.181451 0
M  V30 6 N 3.9172 0.917064 -0.867118 0
M  V30 7 C 5.16997 0.462829 -0.746309 0
M  V30 8 N 5.94891 0.122125 -1.87141 0
M  V30 9 C 5.70288 0.328602 0.518754 0
M  V30 10 C 4.9311 0.664321 1.59417 0
M  V30 11 N 3.6899 1.11095 1.40473 0
M  V30 12 N 5.48584 0.524232 2.90139 0
M  V30 13 C 0.625435 -0.405444 -1.11634 0
M  V30 14 N -2.08897 -0.0786843 -0.000375259 0
M  V30 15 C -3.48508 0.0822738 -0.0770429 0
M  V30 16 C -4.0925 1.33934 -0.173292 0
M  V30 17 C -5.4643 1.47987 -0.247127 0
M  V30 18 C -6.23513 0.346394 -0.224127 0
M  V30 19 C -5.64724 -0.899041 -0.129449 0
M  V30 20 C -4.27403 -1.06802 -0.0540043 0
M  V30 21 C -3.73247 -2.44821 0.0456753 0
M  V30 22 F -4.81019 -3.36664 0.0419082 0
M  V30 23 F -3.08662 -2.69946 1.23985 0
M  V30 24 F -2.99079 -2.79993 -1.06261 0
M  V30 25 Cl -7.99302 0.489064 -0.316902 0
M  V30 26 H 0.536866 -0.0950643 1.05008 0
M  V30 27 H 5.73626 0.458594 -2.84602 0
M  V30 28 H 6.789 -0.498572 -1.75221 0
M  V30 29 H 6.73168 -0.043322 0.640498 0
M  V30 30 H 5.78148 -0.422656 3.21818 0
M  V30 31 H 5.57123 1.37853 3.48388 0
M  V30 32 H -0.312047 -0.748381 -1.60814 0
M  V30 33 H 1.21174 0.111635 -1.90525 0
M  V30 34 H 1.16691 -1.3503 -0.836045 0
M  V30 35 H -1.73588 -1.08838 0.0722873 0
M  V30 36 H -3.4979 2.24164 -0.19237 0
M  V30 37 H -5.94415 2.45636 -0.322128 0
M  V30 38 H -6.27449 -1.80072 -0.111876 0
M  V30 END ATOM
M  V30 BEGIN BOND
M  V30 1 2 1 2
M  V30 2 1 2 3
M  V30 3 1 3 4
M  V30 4 1 4 5
M  V30 5 2 5 6
M  V30 6 1 6 7
M  V30 7 1 7 8
M  V30 8 2 7 9
M  V30 9 1 9 10
M  V30 10 2 10 11
M  V30 11 1 10 12
M  V30 12 1 3 13
M  V30 13 1 2 14
M  V30 14 1 14 15
M  V30 15 2 15 16
M  V30 16 1 16 17
M  V30 17 2 17 18
M  V30 18 1 18 19
M  V30 19 2 19 20
M  V30 20 1 20 21
M  V30 21 1 21 22
M  V30 22 1 21 23
M  V30 23 1 21 24
M  V30 24 1 18 25
M  V30 25 1 11 5
M  V30 26 1 20 15
M  V30 27 1 3 26
M  V30 28 1 8 27
M  V30 29 1 8 28
M  V30 30 1 9 29
M  V30 31 1 12 30
M  V30 32 1 12 31
M  V30 33 1 13 32
M  V30 34 1 13 33
M  V30 35 1 13 34
M  V30 36 1 14 35
M  V30 37 1 16 36
M  V30 38 1 17 37
M  V30 39 1 19 38
M  V30 END BOND
M  V30 END CTAB
M  END
