
     RDKit          3D

  0  0  0  0  0  0  0  0  0  0999 V3000
M  V30 BEGIN CTAB
M  V30 COUNTS 19 19 0 0 0
M  V30 BEGIN ATOM
M  V30 1 N -2.23321 1.54862 -0.0529401 0
M  V30 2 C -1.32755 0.430416 0.0363546 0
M  V30 3 C -1.81717 -0.826312 0.31709 0
M  V30 4 C -0.972668 -1.91075 0.407717 0
M  V30 5 F -1.45091 -3.15942 0.685677 0
M  V30 6 C 0.367388 -1.67095 0.204964 0
M  V30 7 C 0.866503 -0.401779 -0.0791108 0
M  V30 8 C 2.28726 -0.197883 -0.285187 0
M  V30 9 O 3.16461 -1.25667 -0.203018 0
M  V30 10 O 2.71897 0.943035 -0.538532 0
M  V30 11 C 0.0164126 0.661575 -0.165341 0
M  V30 12 N 0.452685 1.9891 -0.452194 0
M  V30 13 H -1.93428 2.4965 0.264224 0
M  V30 14 H -3.19658 1.41687 -0.436548 0
M  V30 15 H -2.89574 -0.978039 0.472984 0
M  V30 16 H 1.04746 -2.50068 0.270238 0
M  V30 17 H 3.70562 -1.46206 0.651144 0
M  V30 18 H 0.548608 2.26652 -1.45382 0
M  V30 19 H 0.652605 2.61189 0.356297 0
M  V30 END ATOM
M  V30 BEGIN BOND
M  V30 1 1 1 2
M  V30 2 2 2 3
M  V30 3 1 3 4
M  V30 4 1 4 5
M  V30 5 2 4 6
M  V30 6 1 6 7
M  V30 7 1 7 8
M  V30 8 1 8 9
M  V30 9 2 8 10
M  V30 10 2 7 11
M  V30 11 1 11 12
M  V30 12 1 11 2
M  V30 13 1 1 13
M  V30 14 1 1 14
M  V30 15 1 3 15
M  V30 16 1 6 16
M  V30 17 1 9 17
M  V30 18 1 12 18
M  V30 19 1 12 19
M  V30 END BOND
M  V30 END CTAB
M  END
