
     RDKit          3D

  0  0  0  0  0  0  0  0  0  0999 V3000
M  V30 BEGIN CTAB
M  V30 COUNTS 42 43 0 0 0
M  V30 BEGIN ATOM
M  V30 1 N 5.37048 -0.684318 -0.191157 0
M  V30 2 C 4.62893 -0.122053 0.923333 0
M  V30 3 C 4.64392 1.38336 0.796425 0
M  V30 4 C 3.53229 1.6815 -0.173913 0
M  V30 5 C 2.73366 0.434574 -0.342247 0
M  V30 6 C 3.14349 -0.429942 0.820346 0
M  V30 7 C 1.25261 0.716014 -0.324264 0
M  V30 8 O 0.933343 1.90295 -0.177 0
M  V30 9 N 0.324699 -0.311422 -0.46625 0
M  V30 10 C -1.08906 -0.242079 -0.474384 0
M  V30 11 C -1.81182 0.919118 -0.330394 0
M  V30 12 C -3.21299 0.945757 -0.342559 0
M  V30 13 C -3.88897 -0.241054 -0.505522 0
M  V30 14 C -3.21714 -1.43562 -0.654465 0
M  V30 15 C -1.85332 -1.40924 -0.635807 0
M  V30 16 C -1.11757 -2.6824 -0.794749 0
M  V30 17 C -3.97462 -2.72655 -0.831953 0
M  V30 18 S -4.0866 2.45228 -0.15506 0
M  V30 19 O -5.40424 2.40916 -0.898989 0
M  V30 20 O -3.28949 3.56877 -0.790721 0
M  V30 21 N -4.42229 2.79303 1.49937 0
M  V30 22 H 5.06351 -0.192227 -1.05263 0
M  V30 23 H 5.16005 -1.70528 -0.209749 0
M  V30 24 H 5.03389 -0.460566 1.90207 0
M  V30 25 H 4.46598 1.84248 1.79696 0
M  V30 26 H 5.63276 1.73739 0.383357 0
M  V30 27 H 2.91502 2.51962 0.220183 0
M  V30 28 H 3.982 2.01437 -1.13369 0
M  V30 29 H 3.00966 -0.0638101 -1.2826 0
M  V30 30 H 2.6818 -0.110848 1.77268 0
M  V30 31 H 2.99812 -1.51068 0.633175 0
M  V30 32 H 0.717146 -1.31397 -0.588585 0
M  V30 33 H -1.33535 1.87409 -0.199883 0
M  V30 34 H -4.98256 -0.254208 -0.519449 0
M  V30 35 H -0.531847 -2.92757 0.105338 0
M  V30 36 H -1.82919 -3.47362 -1.08861 0
M  V30 37 H -0.451828 -2.55589 -1.69966 0
M  V30 38 H -5.01352 -2.52135 -0.56792 0
M  V30 39 H -3.80618 -3.17601 -1.81031 0
M  V30 40 H -3.5736 -3.40352 -0.0347604 0
M  V30 41 H -5.43519 2.69371 1.71131 0
M  V30 42 H -3.89595 2.06606 2.06752 0
M  V30 END ATOM
M  V30 BEGIN BOND
M  V30 1 1 1 2
M  V30 2 1 2 3
M  V30 3 1 3 4
M  V30 4 1 4 5
M  V30 5 1 5 6
M  V30 6 1 5 7
M  V30 7 2 7 8
M  V30 8 1 7 9
M  V30 9 1 9 10
M  V30 10 2 10 11
M  V30 11 1 11 12
M  V30 12 2 12 13
M  V30 13 1 13 14
M  V30 14 2 14 15
M  V30 15 1 15 16
M  V30 16 1 14 17
M  V30 17 1 12 18
M  V30 18 2 18 19
M  V30 19 2 18 20
M  V30 20 1 18 21
M  V30 21 1 6 2
M  V30 22 1 15 10
M  V30 23 1 1 22
M  V30 24 1 1 23
M  V30 25 1 2 24
M  V30 26 1 3 25
M  V30 27 1 3 26
M  V30 28 1 4 27
M  V30 29 1 4 28
M  V30 30 1 5 29
M  V30 31 1 6 30
M  V30 32 1 6 31
M  V30 33 1 9 32
M  V30 34 1 11 33
M  V30 35 1 13 34
M  V30 36 1 16 35
M  V30 37 1 16 36
M  V30 38 1 16 37
M  V30 39 1 17 38
M  V30 40 1 17 39
M  V30 41 1 17 40
M  V30 42 1 21 41
M  V30 43 1 21 42
M  V30 END BOND
M  V30 END CTAB
M  END
