
     RDKit          3D

  0  0  0  0  0  0  0  0  0  0999 V3000
M  V30 BEGIN CTAB
M  V30 COUNTS 81 81 0 0 0
M  V30 BEGIN ATOM
M  V30 1 C -4.61137 -0.424324 1.09286 0 CFG=2
M  V30 2 C -4.19819 0.230891 2.43465 0
M  V30 3 O -4.79845 -0.2166 3.54475 0
M  V30 4 N -3.75168 0.26297 0.131089 0
M  V30 5 C -2.51273 -0.148034 -0.373599 0
M  V30 6 O -1.98764 -1.21966 -0.0173311 0
M  V30 7 C -1.77432 0.691486 -1.35649 0 CFG=2
M  V30 8 C -1.95009 0.202837 -2.77321 0
M  V30 9 C -1.16811 1.09194 -3.73474 0
M  V30 10 C -1.26389 0.789872 -5.13167 0
M  V30 11 O -0.309935 0.0186607 -5.81071 0
M  V30 12 O -2.21382 1.1937 -5.87449 0
M  V30 13 N -0.33766 0.730564 -1.14304 0
M  V30 14 C 0.205045 1.74008 -0.352695 0
M  V30 15 O -0.581459 2.57308 0.207742 0
M  V30 16 C 1.63719 1.99204 -0.0687171 0
M  V30 17 N 2.47555 1.12679 -0.846428 0
M  V30 18 C 3.90287 1.31922 -0.723258 0
M  V30 19 O 4.3541 2.14549 0.037713 0
M  V30 20 C 4.80454 0.428119 -1.62635 0 CFG=2
M  V30 21 C 4.41125 -0.94491 -1.33577 0
M  V30 22 C 4.47321 -1.44743 0.0707136 0
M  V30 23 C 5.83349 -1.36607 0.675344 0
M  V30 24 N 5.88703 -1.87797 2.06622 0
M  V30 25 C 7.11824 -1.70301 2.75765 0
M  V30 26 N 7.5141 -0.330207 2.9269 0
M  V30 27 N 7.82436 -2.63643 3.17951 0
M  V30 28 N 6.07575 0.933966 -1.57924 0
M  V30 29 C 7.32904 1.47002 -1.53332 0
M  V30 30 O 7.58036 2.77691 -1.49171 0
M  V30 31 C 8.64477 0.750274 -1.53531 0
M  V30 32 N 8.60889 -0.654249 -1.6144 0
M  V30 33 C -6.01197 -0.0265908 0.770193 0
M  V30 34 O -6.09065 0.987084 -0.00129878 0
M  V30 35 N -7.16924 -0.643927 1.23167 0
M  V30 36 C -7.18869 -1.87859 2.04794 0
M  V30 37 C -8.094 -1.4847 3.19074 0
M  V30 38 C -8.8071 -0.211887 2.69268 0
M  V30 39 C -8.54661 -0.333377 1.14715 0 CFG=1
M  V30 40 C -9.09284 0.7505 0.423064 0
M  V30 41 O -10.4176 1.1588 0.765816 0
M  V30 42 O -8.57974 1.41016 -0.479414 0
M  V30 43 H -4.4361 -1.46689 1.08617 0
M  V30 44 H -3.08416 0.0823536 2.43432 0
M  V30 45 H -4.34664 1.34386 2.35468 0
M  V30 46 H -4.19719 -0.239808 4.3372 0
M  V30 47 H -4.13162 1.19674 -0.232706 0
M  V30 48 H -2.15745 1.73789 -1.2362 0
M  V30 49 H -1.50952 -0.820835 -2.88727 0
M  V30 50 H -2.98081 0.188737 -3.14112 0
M  V30 51 H -0.106912 1.15106 -3.39398 0
M  V30 52 H -1.5544 2.137 -3.53508 0
M  V30 53 H -0.211844 -0.978478 -5.62533 0
M  V30 54 H 0.248846 -0.0247 -1.58665 0
M  V30 55 H 1.90068 3.07387 -0.262324 0
M  V30 56 H 1.83171 1.82225 1.01873 0
M  V30 57 H 2.09572 0.415663 -1.46589 0
M  V30 58 H 4.26467 0.729418 -2.63775 0
M  V30 59 H 3.39158 -1.19628 -1.77487 0
M  V30 60 H 5.06237 -1.6797 -1.91789 0
M  V30 61 H 4.259 -2.56638 -0.00283623 0
M  V30 62 H 3.67101 -1.07946 0.734648 0
M  V30 63 H 6.57667 -1.99486 0.107195 0
M  V30 64 H 6.18468 -0.330877 0.68558 0
M  V30 65 H 5.0257 -2.31035 2.3959 0
M  V30 66 H 8.13462 0.182378 2.27845 0
M  V30 67 H 7.13931 0.154547 3.75942 0
M  V30 68 H 8.73118 -2.40184 3.6859 0
M  V30 69 H 5.57425 2.1909 -1.76798 0
M  V30 70 H 9.2506 1.05559 -0.657152 0
M  V30 71 H 9.25926 1.18046 -2.41948 0
M  V30 72 H 9.58902 -1.01672 -1.78737 0
M  V30 73 H 7.96052 -1.05518 -2.31447 0
M  V30 74 H -7.79896 -2.65128 1.46487 0
M  V30 75 H -6.21664 -2.26058 2.3073 0
M  V30 76 H -8.81762 -2.28926 3.43853 0
M  V30 77 H -7.44872 -1.2632 4.0704 0
M  V30 78 H -9.8626 -0.268626 2.90497 0
M  V30 79 H -8.25565 0.67484 3.0237 0
M  V30 80 H -9.13198 -1.32396 0.932309 0
M  V30 81 H -11.1246 0.67421 0.23029 0
M  V30 END ATOM
M  V30 BEGIN BOND
M  V30 1 1 1 2
M  V30 2 1 2 3
M  V30 3 1 1 4
M  V30 4 1 4 5
M  V30 5 2 5 6
M  V30 6 1 5 7
M  V30 7 1 7 8
M  V30 8 1 8 9
M  V30 9 1 9 10
M  V30 10 1 10 11
M  V30 11 2 10 12
M  V30 12 1 7 13
M  V30 13 1 13 14
M  V30 14 2 14 15
M  V30 15 1 14 16
M  V30 16 1 16 17
M  V30 17 1 17 18
M  V30 18 2 18 19
M  V30 19 1 18 20
M  V30 20 1 20 21
M  V30 21 1 21 22
M  V30 22 1 22 23
M  V30 23 1 23 24
M  V30 24 1 24 25
M  V30 25 1 25 26
M  V30 26 2 25 27 CFG=2
M  V30 27 1 20 28
M  V30 28 1 28 29
M  V30 29 2 29 30
M  V30 30 1 29 31
M  V30 31 1 31 32
M  V30 32 1 1 33
M  V30 33 2 33 34
M  V30 34 1 33 35
M  V30 35 1 35 36
M  V30 36 1 36 37
M  V30 37 1 37 38
M  V30 38 1 38 39
M  V30 39 1 39 40
M  V30 40 1 40 41
M  V30 41 2 40 42
M  V30 42 1 39 35
M  V30 43 1 1 43 CFG=1
M  V30 44 1 2 44
M  V30 45 1 2 45
M  V30 46 1 3 46
M  V30 47 1 4 47
M  V30 48 1 7 48 CFG=3
M  V30 49 1 8 49
M  V30 50 1 8 50
M  V30 51 1 9 51
M  V30 52 1 9 52
M  V30 53 1 11 53
M  V30 54 1 13 54
M  V30 55 1 16 55
M  V30 56 1 16 56
M  V30 57 1 17 57
M  V30 58 1 20 58 CFG=3
M  V30 59 1 21 59
M  V30 60 1 21 60
M  V30 61 1 22 61
M  V30 62 1 22 62
M  V30 63 1 23 63
M  V30 64 1 23 64
M  V30 65 1 24 65
M  V30 66 1 26 66
M  V30 67 1 26 67
M  V30 68 1 27 68
M  V30 69 1 28 69
M  V30 70 1 31 70
M  V30 71 1 31 71
M  V30 72 1 32 72
M  V30 73 1 32 73
M  V30 74 1 36 74
M  V30 75 1 36 75
M  V30 76 1 37 76
M  V30 77 1 37 77
M  V30 78 1 38 78
M  V30 79 1 38 79
M  V30 80 1 39 80 CFG=3
M  V30 81 1 41 81
M  V30 END BOND
M  V30 END CTAB
M  END
