
     RDKit          3D

  0  0  0  0  0  0  0  0  0  0999 V3000
M  V30 BEGIN CTAB
M  V30 COUNTS 19 19 0 0 0
M  V30 BEGIN ATOM
M  V30 1 N 3.3128 0.993377 0.14211 0
M  V30 2 N 1.9329 0.990608 0.0742961 0
M  V30 3 C 1.2182 -0.0859876 0.0539289 0
M  V30 4 C -0.228237 0.0198145 -0.0186665 0
M  V30 5 C -0.839289 1.25384 -0.0656703 0
M  V30 6 C -2.21924 1.29401 -0.134111 0
M  V30 7 C -3.00497 0.159854 -0.157204 0
M  V30 8 C -2.38797 -1.07338 -0.109919 0
M  V30 9 C -0.99752 -1.12978 -0.0407337 0
M  V30 10 F -0.457794 -2.3703 0.00285774 0
M  V30 11 F -4.35114 0.285241 -0.225123 0
M  V30 12 N 1.90619 -1.31328 0.104649 0
M  V30 13 H 3.86519 0.970391 -0.739333 0
M  V30 14 H 3.8663 1.01762 1.04095 0
M  V30 15 H -0.270294 2.1848 -0.0504679 0
M  V30 16 H -2.66586 2.29662 -0.16983 0
M  V30 17 H -2.98933 -1.98772 -0.126966 0
M  V30 18 H 2.01614 -1.886 -0.739135 0
M  V30 19 H 2.29391 -1.61971 1.00447 0
M  V30 END ATOM
M  V30 BEGIN BOND
M  V30 1 1 1 2
M  V30 2 2 2 3 CFG=2
M  V30 3 1 3 4
M  V30 4 2 4 5
M  V30 5 1 5 6
M  V30 6 2 6 7
M  V30 7 1 7 8
M  V30 8 2 8 9
M  V30 9 1 9 10
M  V30 10 1 7 11
M  V30 11 1 3 12
M  V30 12 1 9 4
M  V30 13 1 1 13
M  V30 14 1 1 14
M  V30 15 1 5 15
M  V30 16 1 6 16
M  V30 17 1 8 17
M  V30 18 1 12 18
M  V30 19 1 12 19
M  V30 END BOND
M  V30 END CTAB
M  END
