
     RDKit          3D

  0  0  0  0  0  0  0  0  0  0999 V3000
M  V30 BEGIN CTAB
M  V30 COUNTS 47 48 0 0 0
M  V30 BEGIN ATOM
M  V30 1 C 5.13507 0.634936 -2.28182 0
M  V30 2 C 4.83731 -0.556736 -1.40616 0
M  V30 3 O 3.45361 -0.54697 -1.00103 0
M  V30 4 C 2.94524 0.526036 -0.291023 0
M  V30 5 O 3.75627 1.45318 -0.0398368 0
M  V30 6 N 1.55987 0.60256 0.149114 0
M  V30 7 C 0.686802 -0.389134 -0.210201 0
M  V30 8 O 1.29929 -1.44684 -0.721931 0
M  V30 9 N -0.697441 -0.536358 -0.164288 0
M  V30 10 C -1.693 0.387319 0.197456 0
M  V30 11 C -2.27221 0.4755 1.42307 0
M  V30 12 C -3.2815 1.39127 1.73921 0
M  V30 13 C -3.69611 2.24014 0.744646 0
M  V30 14 C -3.12474 2.16845 -0.50294 0
M  V30 15 C -2.14263 1.27707 -0.812467 0
M  V30 16 N -4.71265 3.19592 1.02742 0
M  V30 17 C -1.24889 -1.8406 -0.555601 0
M  V30 18 C -1.03298 -2.32214 -1.836 0
M  V30 19 C -1.51926 -3.54878 -2.23211 0
M  V30 20 C -2.24923 -4.34492 -1.3421 0
M  V30 21 C -2.45819 -3.86548 -0.08504 0
M  V30 22 C -1.96256 -2.62552 0.302459 0
M  V30 23 C 1.2398 1.79798 0.851656 0
M  V30 24 C 1.6877 1.53234 2.30873 0
M  V30 25 N 1.05669 0.386364 2.87031 0
M  V30 26 H 5.70346 1.37848 -1.65372 0
M  V30 27 H 5.79998 0.318548 -3.10672 0
M  V30 28 H 4.21827 1.14774 -2.62933 0
M  V30 29 H 5.50703 -0.595866 -0.513868 0
M  V30 30 H 4.9831 -1.5124 -1.94104 0
M  V30 31 H -1.93995 -0.183743 2.22451 0
M  V30 32 H -3.67909 1.38439 2.73223 0
M  V30 33 H -3.47191 2.85857 -1.28433 0
M  V30 34 H -1.69251 1.21602 -1.79053 0
M  V30 35 H -4.40909 4.10953 1.43551 0
M  V30 36 H -5.69892 2.98956 0.838085 0
M  V30 37 H -0.465676 -1.72365 -2.56142 0
M  V30 38 H -1.38133 -3.97105 -3.21321 0
M  V30 39 H -2.63476 -5.30426 -1.63225 0
M  V30 40 H -3.01592 -4.43003 0.662377 0
M  V30 41 H -2.15113 -2.29594 1.30897 0
M  V30 42 H 1.93744 2.64351 0.519842 0
M  V30 43 H 0.218619 2.12786 0.850678 0
M  V30 44 H 2.81358 1.48325 2.32996 0
M  V30 45 H 1.43256 2.42793 2.92898 0
M  V30 46 H 0.981547 0.405746 3.89823 0
M  V30 47 H 1.37841 -0.519758 2.46553 0
M  V30 END ATOM
M  V30 BEGIN BOND
M  V30 1 1 1 2
M  V30 2 1 2 3
M  V30 3 1 3 4
M  V30 4 2 4 5
M  V30 5 1 4 6
M  V30 6 1 6 7
M  V30 7 2 7 8
M  V30 8 1 7 9
M  V30 9 1 9 10
M  V30 10 2 10 11
M  V30 11 1 11 12
M  V30 12 2 12 13
M  V30 13 1 13 14
M  V30 14 2 14 15
M  V30 15 1 13 16
M  V30 16 1 9 17
M  V30 17 2 17 18
M  V30 18 1 18 19
M  V30 19 2 19 20
M  V30 20 1 20 21
M  V30 21 2 21 22
M  V30 22 1 6 23
M  V30 23 1 23 24
M  V30 24 1 24 25
M  V30 25 1 15 10
M  V30 26 1 22 17
M  V30 27 1 1 26
M  V30 28 1 1 27
M  V30 29 1 1 28
M  V30 30 1 2 29
M  V30 31 1 2 30
M  V30 32 1 11 31
M  V30 33 1 12 32
M  V30 34 1 14 33
M  V30 35 1 15 34
M  V30 36 1 16 35
M  V30 37 1 16 36
M  V30 38 1 18 37
M  V30 39 1 19 38
M  V30 40 1 20 39
M  V30 41 1 21 40
M  V30 42 1 22 41
M  V30 43 1 23 42
M  V30 44 1 23 43
M  V30 45 1 24 44
M  V30 46 1 24 45
M  V30 47 1 25 46
M  V30 48 1 25 47
M  V30 END BOND
M  V30 END CTAB
M  END
