
     RDKit          3D

  0  0  0  0  0  0  0  0  0  0999 V3000
M  V30 BEGIN CTAB
M  V30 COUNTS 63 66 0 0 0
M  V30 BEGIN ATOM
M  V30 1 N -5.55781 -1.41817 2.60807 0
M  V30 2 C -4.36612 -1.2388 1.85034 0
M  V30 3 N -3.46353 -2.23349 1.71452 0
M  V30 4 C -2.32863 -2.08807 1.00992 0
M  V30 5 S -1.1671 -3.44879 0.859195 0
M  V30 6 C 0.245194 -2.9096 -0.136323 0
M  V30 7 C 0.99797 -1.86258 0.629803 0
M  V30 8 N 2.15708 -1.39821 -0.151255 0
M  V30 9 C 2.82822 -0.421097 0.64114 0
M  V30 10 C 2.73022 0.939779 -0.0178197 0
M  V30 11 N 3.24199 0.872329 -1.31456 0
M  V30 12 C 4.4286 1.50759 -1.67777 0
M  V30 13 C 5.57791 1.00328 -0.883731 0
M  V30 14 C 5.97482 1.65138 0.267819 0
M  V30 15 C 7.03683 1.21179 1.02539 0
M  V30 16 C 7.73783 0.093453 0.639823 0
M  V30 17 C 7.36576 -0.590797 -0.521705 0
M  V30 18 C 6.29531 -0.128683 -1.26482 0
M  V30 19 N 8.83031 -0.351386 1.42813 0 CHG=1
M  V30 20 O 9.56328 -1.46406 1.0925 0 CHG=-1
M  V30 21 O 9.12448 0.292372 2.44961 0
M  V30 22 C 2.60844 -0.0466294 -2.15123 0
M  V30 23 C 1.65883 -0.953061 -1.41314 0
M  V30 24 N -2.13455 -0.893243 0.442332 0
M  V30 25 C -2.97849 0.144646 0.528282 0
M  V30 26 N -2.64545 1.36854 -0.109815 0
M  V30 27 C -4.15584 -0.0236848 1.26515 0
M  V30 28 C -5.06201 1.1189 1.35844 0
M  V30 29 C -6.29215 1.06841 0.594222 0
M  V30 30 C -6.31135 1.24858 -0.758445 0
M  V30 31 C -7.47604 1.22285 -1.49343 0
M  V30 32 C -8.66594 1.00682 -0.836082 0
M  V30 33 C -8.70029 0.820888 0.518329 0
M  V30 34 C -7.50018 0.855744 1.21568 0
M  V30 35 H -6.1452 -2.25441 2.39055 0
M  V30 36 H -5.85923 -0.757618 3.35806 0
M  V30 37 H -0.148355 -2.45824 -1.07758 0
M  V30 38 H 0.941251 -3.74333 -0.332021 0
M  V30 39 H 0.41242 -0.950445 0.856053 0
M  V30 40 H 1.3657 -2.25488 1.60007 0
M  V30 41 H 2.48349 -0.390256 1.69657 0
M  V30 42 H 3.91081 -0.678879 0.702881 0
M  V30 43 H 3.16888 1.73433 0.629247 0
M  V30 44 H 1.62297 1.19425 -0.0119925 0
M  V30 45 H 4.62228 1.26783 -2.76954 0
M  V30 46 H 4.39366 2.62441 -1.66958 0
M  V30 47 H 5.43171 2.52394 0.573204 0
M  V30 48 H 7.30183 1.76818 1.92592 0
M  V30 49 H 7.9413 -1.45623 -0.782065 0
M  V30 50 H 5.99881 -0.662778 -2.17892 0
M  V30 51 H 1.97112 0.513213 -2.8993 0
M  V30 52 H 3.30553 -0.646484 -2.80648 0
M  V30 53 H 0.632399 -0.546489 -1.32619 0
M  V30 54 H 1.54391 -1.87731 -2.05353 0
M  V30 55 H -2.53579 2.24751 0.437318 0
M  V30 56 H -2.50602 1.39947 -1.14208 0
M  V30 57 H -5.25251 1.26438 2.4728 0
M  V30 58 H -4.46391 2.0499 1.11422 0
M  V30 59 H -5.39154 1.41843 -1.28239 0
M  V30 60 H -7.46376 1.36892 -2.56375 0
M  V30 61 H -9.61665 0.979609 -1.39094 0
M  V30 62 H -9.64903 0.654923 0.996866 0
M  V30 63 H -7.61366 0.711059 2.2927 0
M  V30 END ATOM
M  V30 BEGIN BOND
M  V30 1 1 1 2
M  V30 2 2 2 3
M  V30 3 1 3 4
M  V30 4 1 4 5
M  V30 5 1 5 6
M  V30 6 1 6 7
M  V30 7 1 7 8
M  V30 8 1 8 9
M  V30 9 1 9 10
M  V30 10 1 10 11
M  V30 11 1 11 12
M  V30 12 1 12 13
M  V30 13 2 13 14
M  V30 14 1 14 15
M  V30 15 2 15 16
M  V30 16 1 16 17
M  V30 17 2 17 18
M  V30 18 1 16 19
M  V30 19 1 19 20
M  V30 20 2 19 21
M  V30 21 1 11 22
M  V30 22 1 22 23
M  V30 23 2 4 24
M  V30 24 1 24 25
M  V30 25 1 25 26
M  V30 26 2 25 27
M  V30 27 1 27 28
M  V30 28 1 28 29
M  V30 29 2 29 30
M  V30 30 1 30 31
M  V30 31 2 31 32
M  V30 32 1 32 33
M  V30 33 2 33 34
M  V30 34 1 27 2
M  V30 35 1 34 29
M  V30 36 1 23 8
M  V30 37 1 18 13
M  V30 38 1 1 35
M  V30 39 1 1 36
M  V30 40 1 6 37
M  V30 41 1 6 38
M  V30 42 1 7 39
M  V30 43 1 7 40
M  V30 44 1 9 41
M  V30 45 1 9 42
M  V30 46 1 10 43
M  V30 47 1 10 44
M  V30 48 1 12 45
M  V30 49 1 12 46
M  V30 50 1 14 47
M  V30 51 1 15 48
M  V30 52 1 17 49
M  V30 53 1 18 50
M  V30 54 1 22 51
M  V30 55 1 22 52
M  V30 56 1 23 53
M  V30 57 1 23 54
M  V30 58 1 26 55
M  V30 59 1 26 56
M  V30 60 1 28 57
M  V30 61 1 28 58
M  V30 62 1 30 59
M  V30 63 1 31 60
M  V30 64 1 32 61
M  V30 65 1 33 62
M  V30 66 1 34 63
M  V30 END BOND
M  V30 END CTAB
M  END
