
     RDKit          3D

  0  0  0  0  0  0  0  0  0  0999 V3000
M  V30 BEGIN CTAB
M  V30 COUNTS 65 69 0 0 0
M  V30 BEGIN ATOM
M  V30 1 C 9.58875 1.30509 0.45678 0
M  V30 2 N 8.50246 0.753574 -0.308003 0
M  V30 3 C 8.63688 -0.692163 -0.272567 0
M  V30 4 C 7.20638 1.16328 0.218168 0
M  V30 5 C 6.92444 0.558482 1.55171 0
M  V30 6 O 5.7219 0.874196 2.13941 0
M  V30 7 C 4.43814 0.618769 1.74515 0
M  V30 8 C 4.09262 -0.0725713 0.612687 0
M  V30 9 C 2.7594 -0.301085 0.256812 0
M  V30 10 C 1.75083 0.169334 1.04716 0
M  V30 11 N 0.567774 -0.191058 0.468278 0
M  V30 12 C 0.778521 -0.864496 -0.650041 0
M  V30 13 C 2.16963 -0.942742 -0.796519 0
M  V30 14 C -0.135243 -1.4069 -1.61899 0
M  V30 15 O 0.400835 -2.12429 -2.58677 0
M  V30 16 N -1.51478 -1.31495 -1.72724 0
M  V30 17 C -2.36392 -2.25862 -2.52866 0
M  V30 18 C -3.33581 -2.55689 -1.33858 0
M  V30 19 C -4.22828 -3.57655 -1.77952 0
M  V30 20 Cl -3.19733 -5.00697 -2.2479 0
M  V30 21 C -3.658 -1.20823 -0.93633 0
M  V30 22 C -2.50168 -0.449763 -1.14614 0
M  V30 23 C -2.43385 0.908808 -0.865129 0
M  V30 24 C -3.52825 1.55848 -0.361939 0
M  V30 25 N -3.49114 2.95069 -0.0632669 0
M  V30 26 C -4.7052 0.861469 -0.132476 0
M  V30 27 C -5.82106 1.53839 0.377351 0
M  V30 28 C -7.00033 0.874426 0.607956 0
M  V30 29 C -7.02103 -0.464803 0.315501 0
M  V30 30 C -5.90567 -1.1501 -0.195436 0
M  V30 31 C -4.73381 -0.480101 -0.422312 0
M  V30 32 S -8.4193 1.68831 1.24955 0
M  V30 33 N -9.36619 2.39158 -0.00156856 0
M  V30 34 O -9.20246 0.669821 2.03348 0
M  V30 35 O -7.98811 2.74857 2.22025 0
M  V30 36 C 2.07211 0.873437 2.20251 0
M  V30 37 C 3.38138 1.09107 2.54089 0
M  V30 38 H 9.45514 2.36124 0.723302 0
M  V30 39 H 10.5198 1.20885 -0.156643 0
M  V30 40 H 9.65781 0.732662 1.40543 0
M  V30 41 H 7.67398 -1.17385 -0.478617 0
M  V30 42 H 8.9234 -1.00308 0.7649 0
M  V30 43 H 9.41561 -0.975329 -1.00716 0
M  V30 44 H 6.44618 1.06242 -0.53657 0
M  V30 45 H 7.33153 2.2756 0.40845 0
M  V30 46 H 6.96524 -0.568039 1.46699 0
M  V30 47 H 7.74005 0.802915 2.29564 0
M  V30 48 H 4.83718 -0.487713 -0.0501426 0
M  V30 49 H -0.342061 0.0494913 0.926776 0
M  V30 50 H 2.7107 -1.4229 -1.59651 0
M  V30 51 H -1.82011 -3.13621 -2.83545 0
M  V30 52 H -2.94752 -1.70754 -3.25151 0
M  V30 53 H -2.62339 -2.97475 -0.561484 0
M  V30 54 H -4.85295 -4.03696 -0.955636 0
M  V30 55 H -4.81339 -3.36273 -2.69312 0
M  V30 56 H -1.48042 1.4297 -1.05827 0
M  V30 57 H -4.2649 3.55811 -0.434543 0
M  V30 58 H -2.71059 3.35883 0.512417 0
M  V30 59 H -5.74945 2.58741 0.588513 0
M  V30 60 H -7.936 -1.03059 0.483902 0
M  V30 61 H -5.95578 -2.18276 -0.41068 0
M  V30 62 H -10.3919 2.39932 0.249032 0
M  V30 63 H -9.11921 3.42069 -0.118728 0
M  V30 64 H 1.26618 1.2428 2.82405 0
M  V30 65 H 3.62423 1.63375 3.43142 0
M  V30 END ATOM
M  V30 BEGIN BOND
M  V30 1 1 1 2
M  V30 2 1 2 3
M  V30 3 1 2 4
M  V30 4 1 4 5
M  V30 5 1 5 6
M  V30 6 1 6 7
M  V30 7 2 7 8
M  V30 8 1 8 9
M  V30 9 2 9 10
M  V30 10 1 10 11
M  V30 11 1 11 12
M  V30 12 2 12 13
M  V30 13 1 12 14
M  V30 14 2 14 15
M  V30 15 1 14 16
M  V30 16 1 16 17
M  V30 17 1 17 18
M  V30 18 1 18 19
M  V30 19 1 19 20
M  V30 20 1 18 21
M  V30 21 2 21 22
M  V30 22 1 22 23
M  V30 23 2 23 24
M  V30 24 1 24 25
M  V30 25 1 24 26
M  V30 26 2 26 27
M  V30 27 1 27 28
M  V30 28 2 28 29
M  V30 29 1 29 30
M  V30 30 2 30 31
M  V30 31 1 28 32
M  V30 32 1 32 33
M  V30 33 2 32 34
M  V30 34 2 32 35
M  V30 35 1 10 36
M  V30 36 2 36 37
M  V30 37 1 37 7
M  V30 38 1 13 9
M  V30 39 1 22 16
M  V30 40 1 31 26
M  V30 41 1 31 21
M  V30 42 1 1 38
M  V30 43 1 1 39
M  V30 44 1 1 40
M  V30 45 1 3 41
M  V30 46 1 3 42
M  V30 47 1 3 43
M  V30 48 1 4 44
M  V30 49 1 4 45
M  V30 50 1 5 46
M  V30 51 1 5 47
M  V30 52 1 8 48
M  V30 53 1 11 49
M  V30 54 1 13 50
M  V30 55 1 17 51
M  V30 56 1 17 52
M  V30 57 1 18 53
M  V30 58 1 19 54
M  V30 59 1 19 55
M  V30 60 1 23 56
M  V30 61 1 25 57
M  V30 62 1 25 58
M  V30 63 1 27 59
M  V30 64 1 29 60
M  V30 65 1 30 61
M  V30 66 1 33 62
M  V30 67 1 33 63
M  V30 68 1 36 64
M  V30 69 1 37 65
M  V30 END BOND
M  V30 END CTAB
M  END
