
     RDKit          3D

  0  0  0  0  0  0  0  0  0  0999 V3000
M  V30 BEGIN CTAB
M  V30 COUNTS 19 19 0 0 0
M  V30 BEGIN ATOM
M  V30 1 N -3.40921 -0.128969 -0.308721 0
M  V30 2 C -2.00639 -0.124156 -0.18432 0
M  V30 3 C -1.29774 -1.29317 -0.342487 0
M  V30 4 C 0.0913819 -1.24733 -0.211549 0
M  V30 5 C 0.780032 -0.0856928 0.0682313 0
M  V30 6 C 0.0357078 1.08547 0.223662 0
M  V30 7 C -1.33555 1.04918 0.0961006 0
M  V30 8 Cl 0.919598 2.54684 0.577183 0
M  V30 9 C 2.22018 -0.0557658 0.200667 0
M  V30 10 N 2.89376 -1.13251 0.0568204 0
M  V30 11 N 2.9618 1.10279 0.484512 0
M  V30 12 H -3.8422 -0.115797 -1.24231 0
M  V30 13 H -3.99857 -0.145664 0.535313 0
M  V30 14 H -1.78194 -2.23371 -0.562559 0
M  V30 15 H 0.592648 -2.20134 -0.347416 0
M  V30 16 H -1.86067 2.00426 0.230047 0
M  V30 17 H 2.56683 -2.07981 -0.150692 0
M  V30 18 H 3.3132 1.69387 -0.277694 0
M  V30 19 H 3.15714 1.3615 1.45842 0
M  V30 END ATOM
M  V30 BEGIN BOND
M  V30 1 1 1 2
M  V30 2 2 2 3
M  V30 3 1 3 4
M  V30 4 2 4 5
M  V30 5 1 5 6
M  V30 6 2 6 7
M  V30 7 1 6 8
M  V30 8 1 5 9
M  V30 9 2 9 10 CFG=2
M  V30 10 1 9 11
M  V30 11 1 7 2
M  V30 12 1 1 12
M  V30 13 1 1 13
M  V30 14 1 3 14
M  V30 15 1 4 15
M  V30 16 1 7 16
M  V30 17 1 10 17
M  V30 18 1 11 18
M  V30 19 1 11 19
M  V30 END BOND
M  V30 END CTAB
M  END
