
     RDKit          3D

  0  0  0  0  0  0  0  0  0  0999 V3000
M  V30 BEGIN CTAB
M  V30 COUNTS 22 22 0 0 0
M  V30 BEGIN ATOM
M  V30 1 N 0.128203 -2.80667 0.833909 0
M  V30 2 C -0.483765 -1.65955 0.188934 0
M  V30 3 N -1.64802 -1.85247 -0.212107 0
M  V30 4 C 0.292636 -0.44759 0.105693 0
M  V30 5 C 1.69547 -0.591609 0.314961 0
M  V30 6 C 2.60008 0.400472 0.100961 0
M  V30 7 Cl 4.32977 0.184792 0.371316 0
M  V30 8 C 2.10818 1.60299 -0.342972 0
M  V30 9 C 0.762312 1.78132 -0.552806 0
M  V30 10 C -0.187088 0.751063 -0.327875 0
M  V30 11 C -1.57441 1.14511 -0.382333 0
M  V30 12 N -1.90926 2.25759 -1.00534 0
M  V30 13 N -2.71311 0.592306 0.253827 0
M  V30 14 Cl 3.27238 2.89466 -0.628375 0
M  V30 15 H -0.275403 -3.18999 1.71054 0
M  V30 16 H 0.974738 -3.21979 0.385463 0
M  V30 17 H -2.22173 -2.69589 -0.149482 0
M  V30 18 H 2.09027 -1.5417 0.66687 0
M  V30 19 H 0.437465 2.74571 -0.893855 0
M  V30 20 H -1.31554 2.89756 -1.46787 0
M  V30 21 H -2.75901 0.410121 1.30207 0
M  V30 22 H -3.60419 0.341554 -0.271533 0
M  V30 END ATOM
M  V30 BEGIN BOND
M  V30 1 1 1 2
M  V30 2 2 2 3 CFG=2
M  V30 3 1 2 4
M  V30 4 2 4 5
M  V30 5 1 5 6
M  V30 6 1 6 7
M  V30 7 2 6 8
M  V30 8 1 8 9
M  V30 9 2 9 10
M  V30 10 1 10 11
M  V30 11 2 11 12 CFG=2
M  V30 12 1 11 13
M  V30 13 1 8 14
M  V30 14 1 10 4
M  V30 15 1 1 15
M  V30 16 1 1 16
M  V30 17 1 3 17
M  V30 18 1 5 18
M  V30 19 1 9 19
M  V30 20 1 12 20
M  V30 21 1 13 21
M  V30 22 1 13 22
M  V30 END BOND
M  V30 END CTAB
M  END
