
     RDKit          3D

  0  0  0  0  0  0  0  0  0  0999 V3000
M  V30 BEGIN CTAB
M  V30 COUNTS 28 28 0 0 0
M  V30 BEGIN ATOM
M  V30 1 C -1.71081 -0.910831 1.33981 0
M  V30 2 C -1.76079 -0.260577 -0.0317568 0
M  V30 3 O -0.806266 0.739612 -0.195628 0
M  V30 4 C 0.556355 0.582001 -0.105365 0
M  V30 5 N 1.11412 -0.63081 0.166392 0
M  V30 6 C 2.42665 -0.792063 0.255248 0
M  V30 7 N 2.93472 -2.08795 0.541861 0
M  V30 8 C 3.28204 0.277946 0.0728649 0
M  V30 9 C 2.72393 1.51491 -0.203842 0
M  V30 10 C 1.35767 1.69446 -0.298734 0
M  V30 11 N 0.755906 2.93842 -0.578764 0
M  V30 12 C -3.13981 0.394481 -0.125517 0
M  V30 13 C -1.72091 -1.32673 -1.09631 0
M  V30 14 H -2.7215 -1.34515 1.51703 0
M  V30 15 H -0.951117 -1.688 1.42281 0
M  V30 16 H -1.59892 -0.0840263 2.07688 0
M  V30 17 H 2.43632 -2.67788 1.2417 0
M  V30 18 H 3.80214 -2.45141 0.0565968 0
M  V30 19 H 4.33227 0.0938713 0.155233 0
M  V30 20 H 3.3717 2.35798 -0.348659 0
M  V30 21 H 0.203005 3.39836 0.172421 0
M  V30 22 H 0.833993 3.42425 -1.49818 0
M  V30 23 H -3.84638 -0.0337217 0.614544 0
M  V30 24 H -3.59191 0.207735 -1.12363 0
M  V30 25 H -3.0489 1.46531 0.0901626 0
M  V30 26 H -2.06402 -0.913362 -2.07823 0
M  V30 27 H -2.43677 -2.12277 -0.782037 0
M  V30 28 H -0.732735 -1.76404 -1.25691 0
M  V30 END ATOM
M  V30 BEGIN BOND
M  V30 1 1 1 2
M  V30 2 1 2 3
M  V30 3 1 3 4
M  V30 4 2 4 5
M  V30 5 1 5 6
M  V30 6 1 6 7
M  V30 7 2 6 8
M  V30 8 1 8 9
M  V30 9 2 9 10
M  V30 10 1 10 11
M  V30 11 1 2 12
M  V30 12 1 2 13
M  V30 13 1 10 4
M  V30 14 1 1 14
M  V30 15 1 1 15
M  V30 16 1 1 16
M  V30 17 1 7 17
M  V30 18 1 7 18
M  V30 19 1 8 19
M  V30 20 1 9 20
M  V30 21 1 11 21
M  V30 22 1 11 22
M  V30 23 1 12 23
M  V30 24 1 12 24
M  V30 25 1 12 25
M  V30 26 1 13 26
M  V30 27 1 13 27
M  V30 28 1 13 28
M  V30 END BOND
M  V30 END CTAB
M  END
