
     RDKit          3D

  0  0  0  0  0  0  0  0  0  0999 V3000
M  V30 BEGIN CTAB
M  V30 COUNTS 38 38 0 0 0
M  V30 BEGIN ATOM
M  V30 1 C -4.37673 1.38541 -1.14307 0
M  V30 2 C -3.37047 0.311322 -0.787866 0
M  V30 3 C -3.7248 -0.33757 0.54035 0
M  V30 4 C -2.75674 -1.40393 0.929347 0
M  V30 5 C -1.36704 -0.89494 1.07517 0
M  V30 6 O -1.06598 0.0345155 1.85615 0
M  V30 7 N -0.355958 -1.49384 0.294634 0
M  V30 8 C 1.01542 -1.04892 0.382182 0
M  V30 9 C 1.23875 0.378137 0.0116622 0
M  V30 10 C 2.71651 0.634685 0.167913 0
M  V30 11 C 3.1666 1.38595 1.21656 0
M  V30 12 C 4.51737 1.66065 1.41916 0
M  V30 13 C 5.38539 1.12564 0.491162 0
M  V30 14 C 4.94435 0.369609 -0.565955 0
M  V30 15 C 3.59181 0.11257 -0.742015 0
M  V30 16 N 0.971155 0.606941 -1.41259 0
M  V30 17 N -2.81924 -2.46475 -0.0266462 0
M  V30 18 H -5.05099 1.5261 -0.268967 0
M  V30 19 H -4.96994 1.12913 -2.04922 0
M  V30 20 H -3.86109 2.35448 -1.3977 0
M  V30 21 H -3.40074 -0.430268 -1.61255 0
M  V30 22 H -2.37106 0.77332 -0.774183 0
M  V30 23 H -3.89144 0.418595 1.3116 0
M  V30 24 H -4.71233 -0.838396 0.372314 0
M  V30 25 H -3.08983 -1.80557 1.91583 0
M  V30 26 H -0.570344 -2.2899 -0.38144 0
M  V30 27 H 1.35226 -1.2122 1.44187 0
M  V30 28 H 1.6821 -1.67053 -0.268884 0
M  V30 29 H 0.675338 1.12485 0.561962 0
M  V30 30 H 2.44132 1.78427 1.9195 0
M  V30 31 H 4.84371 2.26245 2.26438 0
M  V30 32 H 6.44388 1.30754 0.600298 0
M  V30 33 H 5.63346 -0.0536479 -1.30047 0
M  V30 34 H 3.28447 -0.483577 -1.58174 0
M  V30 35 H 1.22834 -0.235334 -1.98361 0
M  V30 36 H 1.43879 1.46287 -1.76109 0
M  V30 37 H -2.53206 -2.17407 -0.976098 0
M  V30 38 H -2.28426 -3.3116 0.26205 0
M  V30 END ATOM
M  V30 BEGIN BOND
M  V30 1 1 1 2
M  V30 2 1 2 3
M  V30 3 1 3 4
M  V30 4 1 4 5
M  V30 5 2 5 6
M  V30 6 1 5 7
M  V30 7 1 7 8
M  V30 8 1 8 9
M  V30 9 1 9 10
M  V30 10 2 10 11
M  V30 11 1 11 12
M  V30 12 2 12 13
M  V30 13 1 13 14
M  V30 14 2 14 15
M  V30 15 1 9 16
M  V30 16 1 4 17
M  V30 17 1 15 10
M  V30 18 1 1 18
M  V30 19 1 1 19
M  V30 20 1 1 20
M  V30 21 1 2 21
M  V30 22 1 2 22
M  V30 23 1 3 23
M  V30 24 1 3 24
M  V30 25 1 4 25
M  V30 26 1 7 26
M  V30 27 1 8 27
M  V30 28 1 8 28
M  V30 29 1 9 29
M  V30 30 1 11 30
M  V30 31 1 12 31
M  V30 32 1 13 32
M  V30 33 1 14 33
M  V30 34 1 15 34
M  V30 35 1 16 35
M  V30 36 1 16 36
M  V30 37 1 17 37
M  V30 38 1 17 38
M  V30 END BOND
M  V30 END CTAB
M  END
