
     RDKit          3D

  0  0  0  0  0  0  0  0  0  0999 V3000
M  V30 BEGIN CTAB
M  V30 COUNTS 23 24 0 0 0
M  V30 BEGIN ATOM
M  V30 1 N -4.5521 0.52723 -0.947879 0
M  V30 2 C -3.15726 0.359578 -0.640482 0
M  V30 3 N -2.27057 1.13306 -1.28071 0
M  V30 4 N -0.991899 1.03781 -1.0546 0
M  V30 5 C -0.484693 0.131555 -0.141062 0
M  V30 6 C -1.3815 -0.656856 0.510011 0
M  V30 7 N -0.976533 -1.63896 1.43853 0
M  V30 8 N -2.73165 -0.535578 0.252679 0
M  V30 9 C 0.957206 0.103233 0.00672701 0
M  V30 10 C 1.69826 0.897854 -0.883906 0
M  V30 11 F 1.06903 1.63202 -1.85421 0
M  V30 12 C 3.06252 1.00918 -0.871503 0
M  V30 13 C 3.73518 0.28786 0.0839085 0
M  V30 14 C 3.04016 -0.49714 0.968524 0
M  V30 15 C 1.63778 -0.604028 0.947137 0
M  V30 16 H -5.16599 -0.306305 -1.05105 0
M  V30 17 H -4.98956 1.46236 -1.07498 0
M  V30 18 H -1.02396 -1.41892 2.44851 0
M  V30 19 H -0.644554 -2.57174 1.1356 0
M  V30 20 H 3.61911 1.62153 -1.56089 0
M  V30 21 H 4.81795 0.339782 0.13786 0
M  V30 22 H 3.54556 -1.08264 1.73857 0
M  V30 23 H 1.18751 -1.23089 1.69322 0
M  V30 END ATOM
M  V30 BEGIN BOND
M  V30 1 1 1 2
M  V30 2 2 2 3
M  V30 3 1 3 4
M  V30 4 2 4 5
M  V30 5 1 5 6
M  V30 6 1 6 7
M  V30 7 2 6 8
M  V30 8 1 5 9
M  V30 9 2 9 10
M  V30 10 1 10 11
M  V30 11 1 10 12
M  V30 12 2 12 13
M  V30 13 1 13 14
M  V30 14 2 14 15
M  V30 15 1 8 2
M  V30 16 1 15 9
M  V30 17 1 1 16
M  V30 18 1 1 17
M  V30 19 1 7 18
M  V30 20 1 7 19
M  V30 21 1 12 20
M  V30 22 1 13 21
M  V30 23 1 14 22
M  V30 24 1 15 23
M  V30 END BOND
M  V30 END CTAB
M  END
