
     RDKit          3D

  0  0  0  0  0  0  0  0  0  0999 V3000
M  V30 BEGIN CTAB
M  V30 COUNTS 18 20 0 0 0
M  V30 BEGIN ATOM
M  V30 1 N 2.67766 -0.780073 -0.0486811 0
M  V30 2 N 1.35407 -0.391216 -0.0668577 0
M  V30 3 C 0.338332 -1.36465 -0.0816796 0
M  V30 4 N 0.317104 -2.68849 -0.0829092 0
M  V30 5 O -0.932568 -3.09487 -0.100585 0
M  V30 6 N -1.72798 -2.06602 -0.110931 0
M  V30 7 C -0.999767 -0.943472 -0.100003 0
M  V30 8 N -1.34074 0.422241 -0.103787 0
M  V30 9 N -2.67117 0.832874 -0.12201 0
M  V30 10 C -0.301606 1.39904 -0.0886402 0
M  V30 11 N -0.293645 2.74018 -0.0875783 0
M  V30 12 O 0.930867 3.13743 -0.07025 0
M  V30 13 N 1.72679 2.12767 -0.05989 0
M  V30 14 C 1.03398 0.988007 -0.070341 0
M  V30 15 H 3.32003 0.00608827 0.258958 0
M  V30 16 H 2.87078 -1.57138 0.610341 0
M  V30 17 H -3.31996 0.117789 -0.52354 0
M  V30 18 H -2.98218 1.12884 0.848384 0
M  V30 END ATOM
M  V30 BEGIN BOND
M  V30 1 1 1 2
M  V30 2 1 2 3
M  V30 3 2 3 4
M  V30 4 1 4 5
M  V30 5 1 5 6
M  V30 6 2 6 7
M  V30 7 1 7 8
M  V30 8 1 8 9
M  V30 9 1 8 10
M  V30 10 2 10 11
M  V30 11 1 11 12
M  V30 12 1 12 13
M  V30 13 2 13 14
M  V30 14 1 14 2
M  V30 15 1 7 3
M  V30 16 1 14 10
M  V30 17 1 1 15
M  V30 18 1 1 16
M  V30 19 1 9 17
M  V30 20 1 9 18
M  V30 END BOND
M  V30 END CTAB
M  END
