
     RDKit          3D

  0  0  0  0  0  0  0  0  0  0999 V3000
M  V30 BEGIN CTAB
M  V30 COUNTS 35 36 0 0 0
M  V30 BEGIN ATOM
M  V30 1 C -6.85562 -0.00487031 0.00524753 0
M  V30 2 C -5.42089 -0.158401 -0.472903 0
M  V30 3 C -4.5572 -0.353438 0.721833 0
M  V30 4 O -3.21138 -0.513492 0.499838 0
M  V30 5 C -2.34762 0.375049 -0.109012 0
M  V30 6 O -2.85777 1.44996 -0.501867 0
M  V30 7 C -0.925723 0.0923348 -0.290297 0
M  V30 8 C -0.350302 -1.08445 0.135951 0
M  V30 9 C 0.989405 -1.34593 -0.0371456 0
M  V30 10 C 1.82226 -0.425969 -0.653827 0
M  V30 11 C 1.25427 0.766445 -1.08907 0
M  V30 12 C -0.094127 1.00236 -0.902032 0
M  V30 13 N 2.11799 1.69595 -1.71707 0
M  V30 14 S 3.55363 -0.743221 -0.887282 0
M  V30 15 C 4.52698 -0.174543 0.488137 0
M  V30 16 N 4.13108 0.427931 1.61037 0
M  V30 17 N 5.17415 0.692552 2.38889 0
M  V30 18 C 6.26266 0.243693 1.73906 0
M  V30 19 N 5.86444 -0.299033 0.550948 0
M  V30 20 N 6.73355 -0.865216 -0.387008 0
M  V30 21 H -7.30286 0.95565 -0.268069 0
M  V30 22 H -6.92593 -0.072942 1.1242 0
M  V30 23 H -7.51451 -0.814942 -0.372923 0
M  V30 24 H -5.41595 -1.02415 -1.16669 0
M  V30 25 H -5.17856 0.796357 -1.00268 0
M  V30 26 H -4.94678 -1.22057 1.29382 0
M  V30 27 H -4.71841 0.533017 1.39544 0
M  V30 28 H -0.983213 -1.81661 0.620133 0
M  V30 29 H 1.45053 -2.26632 0.293795 0
M  V30 30 H -0.497432 1.93421 -1.25114 0
M  V30 31 H 2.68722 1.38738 -2.51871 0
M  V30 32 H 2.17437 2.66286 -1.37661 0
M  V30 33 H 7.27587 0.310985 2.11258 0
M  V30 34 H 6.37885 -1.64374 -0.991096 0
M  V30 35 H 7.70699 -0.498905 -0.459624 0
M  V30 END ATOM
M  V30 BEGIN BOND
M  V30 1 1 1 2
M  V30 2 1 2 3
M  V30 3 1 3 4
M  V30 4 1 4 5
M  V30 5 2 5 6
M  V30 6 1 5 7
M  V30 7 2 7 8
M  V30 8 1 8 9
M  V30 9 2 9 10
M  V30 10 1 10 11
M  V30 11 2 11 12
M  V30 12 1 11 13
M  V30 13 1 10 14
M  V30 14 1 14 15
M  V30 15 2 15 16
M  V30 16 1 16 17
M  V30 17 2 17 18
M  V30 18 1 18 19
M  V30 19 1 19 20
M  V30 20 1 12 7
M  V30 21 1 19 15
M  V30 22 1 1 21
M  V30 23 1 1 22
M  V30 24 1 1 23
M  V30 25 1 2 24
M  V30 26 1 2 25
M  V30 27 1 3 26
M  V30 28 1 3 27
M  V30 29 1 8 28
M  V30 30 1 9 29
M  V30 31 1 12 30
M  V30 32 1 13 31
M  V30 33 1 13 32
M  V30 34 1 18 33
M  V30 35 1 20 34
M  V30 36 1 20 35
M  V30 END BOND
M  V30 END CTAB
M  END
