
     RDKit          3D

  0  0  0  0  0  0  0  0  0  0999 V3000
M  V30 BEGIN CTAB
M  V30 COUNTS 26 26 0 0 0
M  V30 BEGIN ATOM
M  V30 1 N 2.40594 1.74626 1.38739 0
M  V30 2 C 2.03191 0.862637 0.713269 0
M  V30 3 C 1.58689 -0.24204 -0.138693 0
M  V30 4 N 2.70156 -0.977402 -0.665037 0
M  V30 5 C 0.822356 0.330209 -1.32254 0
M  V30 6 C -0.415155 1.0562 -0.905075 0
M  V30 7 C -1.27816 0.294747 0.0547026 0
M  V30 8 C -0.475411 -0.285562 1.18202 0
M  V30 9 C 0.677497 -1.13033 0.711931 0
M  V30 10 C -2.08164 -0.793566 -0.601087 0
M  V30 11 N -2.2038 1.26648 0.655023 0
M  V30 12 H 2.60522 -2.00357 -0.620328 0
M  V30 13 H 3.62511 -0.655685 -0.354988 0
M  V30 14 H 0.63014 -0.469068 -2.07399 0
M  V30 15 H 1.51176 1.08149 -1.78598 0
M  V30 16 H -0.999092 1.28646 -1.81314 0
M  V30 17 H -0.127595 2.02217 -0.450239 0
M  V30 18 H -1.14339 -0.951233 1.77479 0
M  V30 19 H -0.123174 0.536727 1.82381 0
M  V30 20 H 1.28843 -1.36475 1.63053 0
M  V30 21 H 0.347196 -2.01766 0.177706 0
M  V30 22 H -2.93077 -1.06967 0.0640346 0
M  V30 23 H -2.51165 -0.51481 -1.57011 0
M  V30 24 H -1.48495 -1.71018 -0.737026 0
M  V30 25 H -2.87544 1.61992 -0.0482846 0
M  V30 26 H -1.58377 2.08221 0.93097 0
M  V30 END ATOM
M  V30 BEGIN BOND
M  V30 1 3 1 2
M  V30 2 1 2 3
M  V30 3 1 3 4
M  V30 4 1 3 5
M  V30 5 1 5 6
M  V30 6 1 6 7
M  V30 7 1 7 8
M  V30 8 1 8 9
M  V30 9 1 7 10
M  V30 10 1 7 11
M  V30 11 1 9 3
M  V30 12 1 4 12
M  V30 13 1 4 13
M  V30 14 1 5 14
M  V30 15 1 5 15
M  V30 16 1 6 16
M  V30 17 1 6 17
M  V30 18 1 8 18
M  V30 19 1 8 19
M  V30 20 1 9 20
M  V30 21 1 9 21
M  V30 22 1 10 22
M  V30 23 1 10 23
M  V30 24 1 10 24
M  V30 25 1 11 25
M  V30 26 1 11 26
M  V30 END BOND
M  V30 END CTAB
M  END
