
     RDKit          3D

  0  0  0  0  0  0  0  0  0  0999 V3000
M  V30 BEGIN CTAB
M  V30 COUNTS 30 30 0 0 0
M  V30 BEGIN ATOM
M  V30 1 N 3.34783 -0.429769 1.64118 0
M  V30 2 C 2.28388 -0.376386 0.699583 0
M  V30 3 N 2.58679 -0.0984313 -0.52344 0
M  V30 4 C 3.91632 0.152667 -0.963299 0
M  V30 5 N 4.87037 -0.691138 -0.800755 0
M  V30 6 N 4.19703 1.38025 -1.60464 0
M  V30 7 S 0.602703 -0.683387 1.20245 0
M  V30 8 C -0.55918 -0.561305 -0.150359 0
M  V30 9 C -1.9533 -0.846855 0.424561 0
M  V30 10 O -2.02022 -2.10345 0.981574 0
M  V30 11 C -2.31146 0.192067 1.462 0
M  V30 12 C -2.69179 1.36686 0.623015 0
M  V30 13 C -3.57834 0.733244 -0.426778 0
M  V30 14 C -3.02038 -0.644398 -0.619427 0
M  V30 15 H 3.74767 0.392684 2.12191 0
M  V30 16 H 3.771 -1.36599 1.87792 0
M  V30 17 H 5.83216 -0.499479 -1.12363 0
M  V30 18 H 3.69789 2.27279 -1.31992 0
M  V30 19 H 4.90891 1.38234 -2.36545 0
M  V30 20 H -0.568688 0.440085 -0.626389 0
M  V30 21 H -0.365616 -1.34405 -0.925847 0
M  V30 22 H -2.37788 -2.75341 0.319635 0
M  V30 23 H -3.22397 -0.169628 1.97433 0
M  V30 24 H -1.48557 0.387478 2.16944 0
M  V30 25 H -1.84919 1.84896 0.103888 0
M  V30 26 H -3.21361 2.16149 1.18832 0
M  V30 27 H -4.64831 0.725668 -0.0901943 0
M  V30 28 H -3.47832 1.30406 -1.37359 0
M  V30 29 H -2.58533 -0.805624 -1.62898 0
M  V30 30 H -3.8314 -1.36733 -0.396802 0
M  V30 END ATOM
M  V30 BEGIN BOND
M  V30 1 1 1 2
M  V30 2 2 2 3
M  V30 3 1 3 4
M  V30 4 2 4 5
M  V30 5 1 4 6
M  V30 6 1 2 7
M  V30 7 1 7 8
M  V30 8 1 8 9
M  V30 9 1 9 10
M  V30 10 1 9 11
M  V30 11 1 11 12
M  V30 12 1 12 13
M  V30 13 1 13 14
M  V30 14 1 14 9
M  V30 15 1 1 15
M  V30 16 1 1 16
M  V30 17 1 5 17
M  V30 18 1 6 18
M  V30 19 1 6 19
M  V30 20 1 8 20
M  V30 21 1 8 21
M  V30 22 1 10 22
M  V30 23 1 11 23
M  V30 24 1 11 24
M  V30 25 1 12 25
M  V30 26 1 12 26
M  V30 27 1 13 27
M  V30 28 1 13 28
M  V30 29 1 14 29
M  V30 30 1 14 30
M  V30 END BOND
M  V30 END CTAB
M  END
