
     RDKit          3D

  0  0  0  0  0  0  0  0  0  0999 V3000
M  V30 BEGIN CTAB
M  V30 COUNTS 39 40 0 0 0
M  V30 BEGIN ATOM
M  V30 1 C -2.31474 -3.97994 -1.04202 0
M  V30 2 O -2.02356 -2.75182 -0.820965 0
M  V30 3 C -1.6478 -1.51391 -0.646547 0
M  V30 4 C -0.439595 -1.04998 -1.21187 0
M  V30 5 C 0.00102048 0.230596 -1.06161 0
M  V30 6 C 1.28861 0.719554 -1.64792 0
M  V30 7 C 2.37425 0.858626 -0.675493 0
M  V30 8 C 3.11959 -0.197937 -0.241172 0
M  V30 9 N 2.91965 -1.50682 -0.752463 0
M  V30 10 N 4.10567 -0.0286122 0.69128 0
M  V30 11 C 4.37556 1.17308 1.21011 0
M  V30 12 N 5.40632 1.36813 2.18979 0
M  V30 13 N 3.64182 2.21812 0.782376 0
M  V30 14 C 2.66062 2.10435 -0.133048 0
M  V30 15 C -0.780939 1.12391 -0.313906 0
M  V30 16 C -1.96725 0.734241 0.261951 0
M  V30 17 O -2.72773 1.60551 0.989882 0
M  V30 18 C -2.4366 2.94206 1.24562 0
M  V30 19 C -2.379 -0.560401 0.0907727 0
M  V30 20 C -3.64617 -1.08422 0.676004 0
M  V30 21 O -4.23796 -0.0271031 1.36618 0
M  V30 22 H -3.24842 -4.36018 -0.48835 0
M  V30 23 H -2.42391 -4.34752 -2.10601 0
M  V30 24 H -1.53005 -4.69339 -0.608965 0
M  V30 25 H 0.127083 -1.78854 -1.79375 0
M  V30 26 H 1.04681 1.72115 -2.11238 0
M  V30 27 H 1.55587 0.0803401 -2.51683 0
M  V30 28 H 3.15709 -2.33292 -0.159141 0
M  V30 29 H 2.5495 -1.71082 -1.69734 0
M  V30 30 H 5.83993 0.561567 2.69216 0
M  V30 31 H 5.75747 2.31785 2.43335 0
M  V30 32 H 2.06519 2.93383 -0.482422 0
M  V30 33 H -0.384611 2.11962 -0.229745 0
M  V30 34 H -1.94252 2.98454 2.26127 0
M  V30 35 H -1.73096 3.42197 0.560331 0
M  V30 36 H -3.37588 3.54707 1.31023 0
M  V30 37 H -3.46846 -1.88674 1.39573 0
M  V30 38 H -4.36946 -1.37126 -0.130957 0
M  V30 39 H -4.91643 0.426008 0.793694 0
M  V30 END ATOM
M  V30 BEGIN BOND
M  V30 1 1 1 2
M  V30 2 1 2 3
M  V30 3 2 3 4
M  V30 4 1 4 5
M  V30 5 1 5 6
M  V30 6 1 6 7
M  V30 7 2 7 8
M  V30 8 1 8 9
M  V30 9 1 8 10
M  V30 10 2 10 11
M  V30 11 1 11 12
M  V30 12 1 11 13
M  V30 13 2 13 14
M  V30 14 2 5 15
M  V30 15 1 15 16
M  V30 16 1 16 17
M  V30 17 1 17 18
M  V30 18 2 16 19
M  V30 19 1 19 20
M  V30 20 1 20 21
M  V30 21 1 19 3
M  V30 22 1 14 7
M  V30 23 1 1 22
M  V30 24 1 1 23
M  V30 25 1 1 24
M  V30 26 1 4 25
M  V30 27 1 6 26
M  V30 28 1 6 27
M  V30 29 1 9 28
M  V30 30 1 9 29
M  V30 31 1 12 30
M  V30 32 1 12 31
M  V30 33 1 14 32
M  V30 34 1 15 33
M  V30 35 1 18 34
M  V30 36 1 18 35
M  V30 37 1 18 36
M  V30 38 1 20 37
M  V30 39 1 20 38
M  V30 40 1 21 39
M  V30 END BOND
M  V30 END CTAB
M  END
