
     RDKit          3D

  0  0  0  0  0  0  0  0  0  0999 V3000
M  V30 BEGIN CTAB
M  V30 COUNTS 43 46 0 0 0
M  V30 BEGIN ATOM
M  V30 1 O 1.22521 -1.55634 0.0156584 0
M  V30 2 C 0.521899 -0.775805 -0.677065 0
M  V30 3 N -0.734979 -0.275215 -0.191411 0
M  V30 4 N -1.61945 0.576863 -0.820307 0
M  V30 5 C -2.47535 1.06478 -0.00355817 0
M  V30 6 C -2.22458 0.54587 1.35239 0
M  V30 7 C -1.2945 -0.605984 1.09408 0
M  V30 8 C -2.05313 -1.90707 1.00487 0
M  V30 9 C -2.94167 -2.33373 0.0576722 0
M  V30 10 C -3.47611 -3.54953 0.217983 0
M  V30 11 C -3.09049 -4.26886 1.31753 0
M  V30 12 S -1.99215 -3.21766 2.08998 0
M  V30 13 C -3.56859 2.01243 -0.308008 0
M  V30 14 C -4.49944 2.53801 0.543843 0
M  V30 15 C -5.39567 3.38699 0.0315413 0
M  V30 16 C -5.30935 3.66254 -1.30912 0
M  V30 17 S -3.97703 2.72385 -1.80505 0
M  V30 18 C 1.04163 -0.395792 -2.00939 0
M  V30 19 S 2.62945 -1.20052 -2.34092 0
M  V30 20 C 3.87946 -0.601114 -1.24107 0
M  V30 21 N 5.14982 -1.01531 -1.25282 0
M  V30 22 C 6.09146 -0.544692 -0.401541 0
M  V30 23 N 7.43972 -1.00661 -0.438666 0
M  V30 24 C 5.73768 0.415838 0.536666 0
M  V30 25 C 4.43431 0.836228 0.54388 0
M  V30 26 N 3.55225 0.327511 -0.328944 0
M  V30 27 N 4.06539 1.8286 1.51345 0
M  V30 28 H -1.68859 1.32673 1.92869 0
M  V30 29 H -3.14841 0.245291 1.88226 0
M  V30 30 H -0.509755 -0.695181 1.88141 0
M  V30 31 H -3.18693 -1.66551 -0.801536 0
M  V30 32 H -4.20889 -3.98837 -0.498544 0
M  V30 33 H -3.43641 -5.28089 1.59378 0
M  V30 34 H -4.50233 2.26202 1.62724 0
M  V30 35 H -6.20051 3.87713 0.627229 0
M  V30 36 H -5.95872 4.33431 -1.90039 0
M  V30 37 H 0.313649 -0.609783 -2.81662 0
M  V30 38 H 1.24963 0.713311 -1.95663 0
M  V30 39 H 7.80956 -1.67484 0.264352 0
M  V30 40 H 8.09988 -0.685742 -1.17835 0
M  V30 41 H 6.45364 0.822004 1.23701 0
M  V30 42 H 4.73889 2.4999 1.89477 0
M  V30 43 H 3.05948 1.85433 1.83459 0
M  V30 END ATOM
M  V30 BEGIN BOND
M  V30 1 2 1 2
M  V30 2 1 2 3
M  V30 3 1 3 4
M  V30 4 2 4 5
M  V30 5 1 5 6
M  V30 6 1 6 7
M  V30 7 1 7 8
M  V30 8 2 8 9
M  V30 9 1 9 10
M  V30 10 2 10 11
M  V30 11 1 11 12
M  V30 12 1 5 13
M  V30 13 2 13 14
M  V30 14 1 14 15
M  V30 15 2 15 16
M  V30 16 1 16 17
M  V30 17 1 2 18
M  V30 18 1 18 19
M  V30 19 1 19 20
M  V30 20 2 20 21
M  V30 21 1 21 22
M  V30 22 1 22 23
M  V30 23 2 22 24
M  V30 24 1 24 25
M  V30 25 2 25 26
M  V30 26 1 25 27
M  V30 27 1 7 3
M  V30 28 1 12 8
M  V30 29 1 17 13
M  V30 30 1 26 20
M  V30 31 1 6 28
M  V30 32 1 6 29
M  V30 33 1 7 30
M  V30 34 1 9 31
M  V30 35 1 10 32
M  V30 36 1 11 33
M  V30 37 1 14 34
M  V30 38 1 15 35
M  V30 39 1 16 36
M  V30 40 1 18 37
M  V30 41 1 18 38
M  V30 42 1 23 39
M  V30 43 1 23 40
M  V30 44 1 24 41
M  V30 45 1 27 42
M  V30 46 1 27 43
M  V30 END BOND
M  V30 END CTAB
M  END
