
     RDKit          3D

  0  0  0  0  0  0  0  0  0  0999 V3000
M  V30 BEGIN CTAB
M  V30 COUNTS 41 41 0 0 0
M  V30 BEGIN ATOM
M  V30 1 C 6.02094 0.316507 -1.32172 0
M  V30 2 C 4.95429 0.84171 -0.39495 0
M  V30 3 C 3.5584 0.553468 -0.898445 0
M  V30 4 C 2.5968 1.13669 0.130098 0
M  V30 5 C 1.20769 0.87951 -0.318795 0
M  V30 6 O 0.928399 1.30244 -1.44825 0
M  V30 7 N 0.303039 0.213219 0.480987 0
M  V30 8 C -1.03308 -0.14042 0.281983 0
M  V30 9 C -1.74666 0.146307 -0.857548 0
M  V30 10 C -3.09288 -0.224499 -1.02394 0
M  V30 11 C -3.74218 -0.900942 -0.021666 0
M  V30 12 C -3.06777 -1.20358 1.12415 0
M  V30 13 C -1.74723 -0.831532 1.26917 0
M  V30 14 C -1.01772 -1.16251 2.51501 0
M  V30 15 C -3.73513 -1.94511 2.25508 0
M  V30 16 S -3.96293 0.158561 -2.48626 0
M  V30 17 O -5.02884 -0.846997 -2.78423 0
M  V30 18 O -3.01898 0.151236 -3.67741 0
M  V30 19 N -4.73144 1.70131 -2.33931 0
M  V30 20 N 2.86862 0.624629 1.44892 0
M  V30 21 H 6.87263 1.02112 -1.35443 0
M  V30 22 H 5.63502 0.0948633 -2.34331 0
M  V30 23 H 6.33939 -0.682013 -0.910473 0
M  V30 24 H 5.05619 1.96362 -0.407058 0
M  V30 25 H 5.07005 0.46154 0.630707 0
M  V30 26 H 3.40286 -0.540507 -1.0026 0
M  V30 27 H 3.3864 1.08604 -1.84177 0
M  V30 28 H 2.7677 2.22371 0.130435 0
M  V30 29 H 0.713955 -0.087451 1.43983 0
M  V30 30 H -1.28107 0.679685 -1.68118 0
M  V30 31 H -4.77523 -1.21352 -0.0882901 0
M  V30 32 H -0.834878 -0.269181 3.14924 0
M  V30 33 H -0.0915615 -1.73979 2.31584 0
M  V30 34 H -1.66311 -1.83543 3.11525 0
M  V30 35 H -4.81002 -1.99786 1.99224 0
M  V30 36 H -3.35728 -2.98544 2.32984 0
M  V30 37 H -3.64764 -1.37797 3.20114 0
M  V30 38 H -4.86905 1.87919 -1.31618 0
M  V30 39 H -5.69875 1.69998 -2.75106 0
M  V30 40 H 2.54222 1.23053 2.20711 0
M  V30 41 H 2.72887 -0.381099 1.56142 0
M  V30 END ATOM
M  V30 BEGIN BOND
M  V30 1 1 1 2
M  V30 2 1 2 3
M  V30 3 1 3 4
M  V30 4 1 4 5
M  V30 5 2 5 6
M  V30 6 1 5 7
M  V30 7 1 7 8
M  V30 8 2 8 9
M  V30 9 1 9 10
M  V30 10 2 10 11
M  V30 11 1 11 12
M  V30 12 2 12 13
M  V30 13 1 13 14
M  V30 14 1 12 15
M  V30 15 1 10 16
M  V30 16 2 16 17
M  V30 17 2 16 18
M  V30 18 1 16 19
M  V30 19 1 4 20
M  V30 20 1 13 8
M  V30 21 1 1 21
M  V30 22 1 1 22
M  V30 23 1 1 23
M  V30 24 1 2 24
M  V30 25 1 2 25
M  V30 26 1 3 26
M  V30 27 1 3 27
M  V30 28 1 4 28
M  V30 29 1 7 29
M  V30 30 1 9 30
M  V30 31 1 11 31
M  V30 32 1 14 32
M  V30 33 1 14 33
M  V30 34 1 14 34
M  V30 35 1 15 35
M  V30 36 1 15 36
M  V30 37 1 15 37
M  V30 38 1 19 38
M  V30 39 1 19 39
M  V30 40 1 20 40
M  V30 41 1 20 41
M  V30 END BOND
M  V30 END CTAB
M  END
