
     RDKit          3D

  0  0  0  0  0  0  0  0  0  0999 V3000
M  V30 BEGIN CTAB
M  V30 COUNTS 46 48 0 0 0
M  V30 BEGIN ATOM
M  V30 1 N -6.30243 2.00117 -1.54226 0
M  V30 2 C -5.14844 1.342 -1.03062 0
M  V30 3 C -3.87113 1.76751 -1.27802 0
M  V30 4 C -2.7931 1.07453 -0.745544 0
M  V30 5 C -3.02048 -0.029723 0.0231622 0
M  V30 6 C -4.30442 -0.446764 0.264073 0
M  V30 7 C -5.40945 0.212993 -0.245982 0
M  V30 8 C -4.46069 -1.66002 1.10439 0
M  V30 9 C -3.50849 -1.77096 2.24262 0
M  V30 10 C -2.31159 -0.858573 2.12893 0
M  V30 11 C -1.94142 -0.828359 0.637759 0
M  V30 12 N -0.637856 -0.297561 0.428558 0
M  V30 13 C 0.349609 -1.08969 -0.20791 0
M  V30 14 O 0.0536514 -2.26281 -0.581742 0
M  V30 15 C 1.71117 -0.628883 -0.463873 0
M  V30 16 C 2.10846 0.630041 -0.0884454 0
M  V30 17 C 3.37697 1.08156 -0.318007 0
M  V30 18 C 4.29718 0.270527 -0.940298 0
M  V30 19 C 3.88573 -0.989018 -1.31139 0
M  V30 20 C 2.61338 -1.46154 -1.08899 0
M  V30 21 C 5.65695 0.796676 -1.16952 0
M  V30 22 S 6.6643 0.400036 0.238771 0
M  V30 23 O 6.04087 0.98764 1.45959 0
M  V30 24 O 6.68475 -1.09732 0.386408 0
M  V30 25 N 8.26913 0.973184 0.0641833 0
M  V30 26 H -7.05151 1.40341 -1.95223 0
M  V30 27 H -6.45329 3.02322 -1.53811 0
M  V30 28 H -3.74168 2.65605 -1.89876 0
M  V30 29 H -1.77408 1.42442 -0.950258 0
M  V30 30 H -6.4195 -0.120849 -0.0521963 0
M  V30 31 H -4.29291 -2.52241 0.400938 0
M  V30 32 H -5.50023 -1.67041 1.49761 0
M  V30 33 H -4.00293 -1.67455 3.23862 0
M  V30 34 H -3.07373 -2.81599 2.26436 0
M  V30 35 H -1.47141 -1.24426 2.74083 0
M  V30 36 H -2.59083 0.182906 2.45471 0
M  V30 37 H -2.06186 -1.87251 0.258704 0
M  V30 38 H -0.448142 0.671882 0.755219 0
M  V30 39 H 1.43307 1.31722 0.405087 0
M  V30 40 H 3.67501 2.07657 -0.0161205 0
M  V30 41 H 4.58706 -1.65116 -1.80328 0
M  V30 42 H 2.31987 -2.47899 -1.40134 0
M  V30 43 H 5.61367 1.90941 -1.22379 0
M  V30 44 H 6.10687 0.456149 -2.11519 0
M  V30 45 H 8.27442 2.01684 0.199063 0
M  V30 46 H 8.86946 0.484128 0.770318 0
M  V30 END ATOM
M  V30 BEGIN BOND
M  V30 1 1 1 2
M  V30 2 2 2 3
M  V30 3 1 3 4
M  V30 4 2 4 5
M  V30 5 1 5 6
M  V30 6 2 6 7
M  V30 7 1 6 8
M  V30 8 1 8 9
M  V30 9 1 9 10
M  V30 10 1 10 11
M  V30 11 1 11 12
M  V30 12 1 12 13
M  V30 13 2 13 14
M  V30 14 1 13 15
M  V30 15 2 15 16
M  V30 16 1 16 17
M  V30 17 2 17 18
M  V30 18 1 18 19
M  V30 19 2 19 20
M  V30 20 1 18 21
M  V30 21 1 21 22
M  V30 22 2 22 23
M  V30 23 2 22 24
M  V30 24 1 22 25
M  V30 25 1 7 2
M  V30 26 1 20 15
M  V30 27 1 11 5
M  V30 28 1 1 26
M  V30 29 1 1 27
M  V30 30 1 3 28
M  V30 31 1 4 29
M  V30 32 1 7 30
M  V30 33 1 8 31
M  V30 34 1 8 32
M  V30 35 1 9 33
M  V30 36 1 9 34
M  V30 37 1 10 35
M  V30 38 1 10 36
M  V30 39 1 11 37
M  V30 40 1 12 38
M  V30 41 1 16 39
M  V30 42 1 17 40
M  V30 43 1 19 41
M  V30 44 1 20 42
M  V30 45 1 21 43
M  V30 46 1 21 44
M  V30 47 1 25 45
M  V30 48 1 25 46
M  V30 END BOND
M  V30 END CTAB
M  END
