
     RDKit          3D

  0  0  0  0  0  0  0  0  0  0999 V3000
M  V30 BEGIN CTAB
M  V30 COUNTS 22 22 0 0 0
M  V30 BEGIN ATOM
M  V30 1 N -2.62811 0.257042 -0.987574 0
M  V30 2 C -2.51842 0.532115 0.425604 0
M  V30 3 C -1.16789 1.07068 0.801309 0
M  V30 4 C -0.0499175 0.183939 0.500778 0
M  V30 5 C 0.0746173 -1.09891 0.950144 0
M  V30 6 C 1.16833 -1.85495 0.610671 0
M  V30 7 C 2.17702 -1.34839 -0.193303 0
M  V30 8 C 2.06767 -0.0573921 -0.654986 0
M  V30 9 C 0.96147 0.677776 -0.299608 0
M  V30 10 N 3.1021 0.478744 -1.48628 0
M  V30 11 F -1.1821 1.29198 2.17618 0
M  V30 12 H -3.33874 0.855575 -1.47097 0
M  V30 13 H -2.93677 -0.740508 -1.13095 0
M  V30 14 H -3.25823 1.34146 0.646725 0
M  V30 15 H -2.83403 -0.329039 1.05772 0
M  V30 16 H -1.0623 2.06811 0.332082 0
M  V30 17 H -0.708859 -1.50934 1.58153 0
M  V30 18 H 1.22129 -2.88171 0.998002 0
M  V30 19 H 3.04254 -1.97124 -0.451934 0
M  V30 20 H 0.921717 1.70374 -0.694435 0
M  V30 21 H 3.21469 0.0768982 -2.42863 0
M  V30 22 H 3.73391 1.25344 -1.16616 0
M  V30 END ATOM
M  V30 BEGIN BOND
M  V30 1 1 1 2
M  V30 2 1 2 3
M  V30 3 1 3 4
M  V30 4 2 4 5
M  V30 5 1 5 6
M  V30 6 2 6 7
M  V30 7 1 7 8
M  V30 8 2 8 9
M  V30 9 1 8 10
M  V30 10 1 3 11
M  V30 11 1 9 4
M  V30 12 1 1 12
M  V30 13 1 1 13
M  V30 14 1 2 14
M  V30 15 1 2 15
M  V30 16 1 3 16
M  V30 17 1 5 17
M  V30 18 1 6 18
M  V30 19 1 7 19
M  V30 20 1 9 20
M  V30 21 1 10 21
M  V30 22 1 10 22
M  V30 END BOND
M  V30 END CTAB
M  END
