
     RDKit          3D

  0  0  0  0  0  0  0  0  0  0999 V3000
M  V30 BEGIN CTAB
M  V30 COUNTS 25 25 0 0 0
M  V30 BEGIN ATOM
M  V30 1 C 3.87792 0.412174 0.378622 0
M  V30 2 C 3.22722 -0.471075 -0.673899 0
M  V30 3 O 1.85582 -0.645768 -0.435192 0
M  V30 4 C 0.921871 0.341572 -0.379568 0
M  V30 5 O 1.28582 1.52734 -0.553046 0
M  V30 6 C -0.514917 0.110154 -0.124809 0
M  V30 7 C -1.38858 1.17395 -0.0863462 0
M  V30 8 C -2.73401 0.992366 0.148805 0
M  V30 9 N -3.59781 2.13091 0.178421 0
M  V30 10 C -3.22506 -0.279921 0.351214 0
M  V30 11 C -2.348 -1.35602 0.313394 0
M  V30 12 C -1.01052 -1.14685 0.0768611 0
M  V30 13 N -0.128508 -2.25926 0.0417521 0
M  V30 14 H 4.96741 0.213308 0.439779 0
M  V30 15 H 3.43706 0.209929 1.36899 0
M  V30 16 H 3.70802 1.48561 0.0754417 0
M  V30 17 H 3.71198 -1.46677 -0.587226 0
M  V30 18 H 3.44338 -0.0886043 -1.69314 0
M  V30 19 H -1.0149 2.20088 -0.246055 0
M  V30 20 H -3.42732 2.88367 -0.52815 0
M  V30 21 H -4.33688 2.13864 0.896526 0
M  V30 22 H -4.28969 -0.427036 0.537618 0
M  V30 23 H -2.77611 -2.3484 0.478579 0
M  V30 24 H -0.250076 -2.93353 -0.746133 0
M  V30 25 H 0.605895 -2.39727 0.767561 0
M  V30 END ATOM
M  V30 BEGIN BOND
M  V30 1 1 1 2
M  V30 2 1 2 3
M  V30 3 1 3 4
M  V30 4 2 4 5
M  V30 5 1 4 6
M  V30 6 2 6 7
M  V30 7 1 7 8
M  V30 8 1 8 9
M  V30 9 2 8 10
M  V30 10 1 10 11
M  V30 11 2 11 12
M  V30 12 1 12 13
M  V30 13 1 12 6
M  V30 14 1 1 14
M  V30 15 1 1 15
M  V30 16 1 1 16
M  V30 17 1 2 17
M  V30 18 1 2 18
M  V30 19 1 7 19
M  V30 20 1 9 20
M  V30 21 1 9 21
M  V30 22 1 10 22
M  V30 23 1 11 23
M  V30 24 1 13 24
M  V30 25 1 13 25
M  V30 END BOND
M  V30 END CTAB
M  END
