
     RDKit          3D

  0  0  0  0  0  0  0  0  0  0999 V3000
M  V30 BEGIN CTAB
M  V30 COUNTS 23 24 0 0 0
M  V30 BEGIN ATOM
M  V30 1 O -3.92514 1.7108 -0.589793 0
M  V30 2 C -2.96733 0.774002 -0.266632 0
M  V30 3 C -3.33014 -0.478152 0.198374 0
M  V30 4 C -2.39466 -1.40694 0.519059 0
M  V30 5 C -1.03481 -1.10081 0.37981 0
M  V30 6 C -0.642468 0.122828 -0.0753647 0
M  V30 7 C -1.62531 1.04039 -0.390999 0
M  V30 8 C 0.740834 0.542453 -0.256571 0
M  V30 9 N 1.12039 1.78139 -0.717067 0
M  V30 10 N 2.42935 1.85633 -0.770783 0
M  V30 11 C 2.8936 0.672529 -0.347414 0
M  V30 12 N 1.84863 -0.154273 -0.0241816 0
M  V30 13 N 2.01766 -1.45467 0.447744 0
M  V30 14 N 4.26713 0.258879 -0.223831 0
M  V30 15 H -4.30021 2.38602 0.0787703 0
M  V30 16 H -4.38805 -0.676501 0.292159 0
M  V30 17 H -2.67022 -2.38135 0.880776 0
M  V30 18 H -0.332436 -1.88297 0.651584 0
M  V30 19 H -1.38914 2.04774 -0.76398 0
M  V30 20 H 2.27282 -1.61039 1.4485 0
M  V30 21 H 1.90697 -2.31259 -0.134117 0
M  V30 22 H 4.90199 0.866986 0.33371 0
M  V30 23 H 4.60053 -0.601693 -0.669758 0
M  V30 END ATOM
M  V30 BEGIN BOND
M  V30 1 1 1 2
M  V30 2 2 2 3
M  V30 3 1 3 4
M  V30 4 2 4 5
M  V30 5 1 5 6
M  V30 6 2 6 7
M  V30 7 1 6 8
M  V30 8 2 8 9
M  V30 9 1 9 10
M  V30 10 2 10 11
M  V30 11 1 11 12
M  V30 12 1 12 13
M  V30 13 1 11 14
M  V30 14 1 7 2
M  V30 15 1 12 8
M  V30 16 1 1 15
M  V30 17 1 3 16
M  V30 18 1 4 17
M  V30 19 1 5 18
M  V30 20 1 7 19
M  V30 21 1 13 20
M  V30 22 1 13 21
M  V30 23 1 14 22
M  V30 24 1 14 23
M  V30 END BOND
M  V30 END CTAB
M  END
