
     RDKit          3D

  0  0  0  0  0  0  0  0  0  0999 V3000
M  V30 BEGIN CTAB
M  V30 COUNTS 20 21 0 0 0
M  V30 BEGIN ATOM
M  V30 1 N -4.24964 -1.61425 0.0585075 0
M  V30 2 C -3.25344 -1.02866 0.0855959 0
M  V30 3 C -2.02081 -0.278051 0.117764 0
M  V30 4 C -1.94738 1.11364 0.245032 0
M  V30 5 N -3.0349 2.02346 0.36298 0
M  V30 6 N -0.644653 1.42195 0.233883 0
M  V30 7 N 0.0658817 0.313168 0.108971 0
M  V30 8 C -0.728422 -0.742591 0.0350119 0
M  V30 9 N -0.347761 -2.10045 -0.103008 0
M  V30 10 C 1.50377 0.295874 0.0634422 0
M  V30 11 N 2.33283 -0.653798 -0.286337 0
M  V30 12 C 3.61269 -0.456549 -0.253589 0
M  V30 13 C 4.05216 0.779038 0.159778 0
M  V30 14 S 2.56592 1.57578 0.474961 0
M  V30 15 H -3.68541 2.16515 -0.433937 0
M  V30 16 H -3.19351 2.55593 1.24171 0
M  V30 17 H -0.764101 -2.76958 0.600064 0
M  V30 18 H 0.296912 -2.46296 -0.833211 0
M  V30 19 H 4.33847 -1.24772 -0.54595 0
M  V30 20 H 5.10142 1.11062 0.245106 0
M  V30 END ATOM
M  V30 BEGIN BOND
M  V30 1 3 1 2
M  V30 2 1 2 3
M  V30 3 1 3 4
M  V30 4 1 4 5
M  V30 5 2 4 6
M  V30 6 1 6 7
M  V30 7 1 7 8
M  V30 8 1 8 9
M  V30 9 1 7 10
M  V30 10 2 10 11
M  V30 11 1 11 12
M  V30 12 2 12 13
M  V30 13 1 13 14
M  V30 14 2 8 3
M  V30 15 1 14 10
M  V30 16 1 5 15
M  V30 17 1 5 16
M  V30 18 1 9 17
M  V30 19 1 9 18
M  V30 20 1 12 19
M  V30 21 1 13 20
M  V30 END BOND
M  V30 END CTAB
M  END
