
     RDKit          3D

  0  0  0  0  0  0  0  0  0  0999 V3000
M  V30 BEGIN CTAB
M  V30 COUNTS 83 88 0 0 0
M  V30 BEGIN ATOM
M  V30 1 N -9.08856 -3.90819 -1.28921 0
M  V30 2 C -9.62378 -2.66691 -0.76973 0
M  V30 3 N -9.09299 -1.48999 -0.89649 0
M  V30 4 C -9.71516 -0.372009 -0.408047 0
M  V30 5 C -10.9303 -0.510188 0.209854 0
M  V30 6 N -11.3284 0.697525 0.580181 0
M  V30 7 C -10.3458 1.60773 0.202785 0
M  V30 8 N -9.37701 0.925148 -0.399604 0
M  V30 9 C -8.11624 1.52772 -0.869368 0 CFG=2
M  V30 10 O -7.22831 0.465294 -0.937706 0
M  V30 11 C -6.27769 0.655807 0.0604292 0 CFG=2
M  V30 12 C -5.5422 -0.588471 0.388028 0
M  V30 13 O -4.50568 -0.233976 1.32479 0
M  V30 14 P -3.17695 0.0841685 0.304349 0
M  V30 15 O -3.1678 1.82108 0.20979 0
M  V30 16 O -3.5299 -0.445315 -1.08048 0
M  V30 17 O -1.69551 -0.437053 0.745785 0
M  V30 18 P -0.675666 -0.511953 -0.633761 0
M  V30 19 O -0.281408 -2.13262 -0.867009 0
M  V30 20 O -1.42087 -0.0541466 -1.88144 0
M  V30 21 O 0.693565 0.399807 -0.503821 0
M  V30 22 P 0.364618 2.02152 -0.287104 0
M  V30 23 O -0.227918 2.36777 1.23117 0
M  V30 24 O -0.493034 2.54994 -1.36297 0
M  V30 25 O 1.85177 2.93041 -0.415404 0
M  V30 26 P 3.02671 2.02715 0.257756 0
M  V30 27 O 2.91677 0.366121 -0.206614 0
M  V30 28 O 2.81425 2.075 1.80046 0
M  V30 29 O 4.59323 2.45378 -0.0467449 0
M  V30 30 C 5.0513 1.62288 -1.19812 0
M  V30 31 C 6.16632 0.958697 -0.546465 0 CFG=1
M  V30 32 O 6.94433 -0.0423329 -1.06923 0
M  V30 33 C 7.29424 -0.60597 0.125477 0 CFG=2
M  V30 34 C 7.8918 0.584602 0.926021 0 CFG=2
M  V30 35 O 7.6103 0.485136 2.25159 0
M  V30 36 C 7.17871 1.76253 0.226345 0 CFG=2
M  V30 37 O 6.60253 2.5949 1.14995 0
M  V30 38 N 8.13768 -1.70528 0.262754 0
M  V30 39 C 7.85371 -2.8536 0.955737 0
M  V30 40 N 8.97104 -3.58933 1.04788 0
M  V30 41 C 10.0011 -2.93735 0.413495 0
M  V30 42 C 9.43391 -1.79864 -0.0427229 0
M  V30 43 N 10.2018 -0.878392 -0.723192 0
M  V30 44 C 11.4929 -1.15476 -0.866128 0
M  V30 45 N 12.3485 -0.232796 -1.522 0
M  V30 46 N 12.0617 -2.29952 -0.387278 0
M  V30 47 C 11.3441 -3.2056 0.248253 0
M  V30 48 O 11.8268 -4.29059 0.729588 0
M  V30 49 C -6.96967 1.40679 1.15372 0 CFG=1
M  V30 50 O -6.07986 2.08468 1.99078 0
M  V30 51 C -7.67086 2.46669 0.236035 0 CFG=1
M  V30 52 O -6.68024 3.29163 -0.271185 0
M  V30 53 C -11.5025 -1.79884 0.33374 0
M  V30 54 O -12.6046 -1.79764 0.927949 0
M  V30 55 N -10.8445 -2.83561 -0.144383 0
M  V30 56 H -9.71495 -4.61433 -1.7287 0
M  V30 57 H -8.05962 -4.11357 -1.25112 0
M  V30 58 H -10.4079 2.65191 0.360043 0
M  V30 59 H -8.24209 2.06101 -1.81299 0
M  V30 60 H -5.5381 1.39379 -0.425593 0
M  V30 61 H -5.18866 -1.18683 -0.396408 0
M  V30 62 H -6.23249 -1.20966 1.03471 0
M  V30 63 H -3.31711 2.1398 1.1619 0
M  V30 64 H 0.0695594 -2.48404 0.00685735 0
M  V30 65 H -0.52887 1.55392 1.71875 0
M  V30 66 H 2.90404 -0.157958 0.620798 0
M  V30 67 H 5.38111 2.44817 -1.89271 0
M  V30 68 H 4.23146 1.05096 -1.53309 0
M  V30 69 H 5.62478 0.410179 0.404274 0
M  V30 70 H 6.33749 -0.855981 0.668082 0
M  V30 71 H 8.95471 0.708026 0.764494 0
M  V30 72 H 7.14133 -0.35748 2.4438 0
M  V30 73 H 7.84091 2.29962 -0.436723 0
M  V30 74 H 6.74061 2.25344 2.05268 0
M  V30 75 H 6.88501 -3.09432 1.34188 0
M  V30 76 H 12.1273 0.162464 -2.43083 0
M  V30 77 H 13.2181 0.00184329 -1.01662 0
M  V30 78 H 13.1089 -2.44347 -0.508732 0
M  V30 79 H -7.74292 0.881382 1.69579 0
M  V30 80 H -5.96756 1.49475 2.80442 0
M  V30 81 H -8.47069 2.95297 0.788621 0
M  V30 82 H -6.41361 3.00301 -1.17981 0
M  V30 83 H -11.221 -3.80707 -0.0428934 0
M  V30 END ATOM
M  V30 BEGIN BOND
M  V30 1 1 1 2
M  V30 2 2 2 3
M  V30 3 1 3 4
M  V30 4 2 4 5
M  V30 5 1 5 6
M  V30 6 2 6 7
M  V30 7 1 7 8
M  V30 8 1 8 9
M  V30 9 1 9 10
M  V30 10 1 10 11
M  V30 11 1 11 12
M  V30 12 1 12 13
M  V30 13 1 13 14
M  V30 14 1 14 15
M  V30 15 2 14 16
M  V30 16 1 14 17
M  V30 17 1 17 18
M  V30 18 1 18 19
M  V30 19 2 18 20
M  V30 20 1 18 21
M  V30 21 1 21 22
M  V30 22 1 22 23
M  V30 23 2 22 24
M  V30 24 1 22 25
M  V30 25 1 25 26
M  V30 26 1 26 27
M  V30 27 2 26 28
M  V30 28 1 26 29
M  V30 29 1 29 30
M  V30 30 1 30 31
M  V30 31 1 31 32
M  V30 32 1 32 33
M  V30 33 1 33 34
M  V30 34 1 34 35
M  V30 35 1 34 36
M  V30 36 1 36 37
M  V30 37 1 33 38
M  V30 38 1 38 39
M  V30 39 2 39 40
M  V30 40 1 40 41
M  V30 41 2 41 42
M  V30 42 1 42 43
M  V30 43 2 43 44
M  V30 44 1 44 45
M  V30 45 1 44 46
M  V30 46 1 46 47
M  V30 47 2 47 48
M  V30 48 1 11 49
M  V30 49 1 49 50
M  V30 50 1 49 51
M  V30 51 1 51 52
M  V30 52 1 5 53
M  V30 53 2 53 54
M  V30 54 1 53 55
M  V30 55 1 55 2
M  V30 56 1 8 4
M  V30 57 1 51 9
M  V30 58 1 36 31
M  V30 59 1 42 38
M  V30 60 1 47 41
M  V30 61 1 1 56
M  V30 62 1 1 57
M  V30 63 1 7 58
M  V30 64 1 9 59 CFG=3
M  V30 65 1 11 60 CFG=3
M  V30 66 1 12 61
M  V30 67 1 12 62
M  V30 68 1 15 63
M  V30 69 1 19 64
M  V30 70 1 23 65
M  V30 71 1 27 66
M  V30 72 1 30 67
M  V30 73 1 30 68
M  V30 74 1 31 69 CFG=1
M  V30 75 1 33 70 CFG=1
M  V30 76 1 34 71 CFG=1
M  V30 77 1 35 72
M  V30 78 1 36 73 CFG=3
M  V30 79 1 37 74
M  V30 80 1 39 75
M  V30 81 1 45 76
M  V30 82 1 45 77
M  V30 83 1 46 78
M  V30 84 1 49 79 CFG=1
M  V30 85 1 50 80
M  V30 86 1 51 81 CFG=1
M  V30 87 1 52 82
M  V30 88 1 55 83
M  V30 END BOND
M  V30 END CTAB
M  END
