
     RDKit          3D

  0  0  0  0  0  0  0  0  0  0999 V3000
M  V30 BEGIN CTAB
M  V30 COUNTS 44 44 0 0 0
M  V30 BEGIN ATOM
M  V30 1 C -4.50487 -1.30109 0.811724 0
M  V30 2 C -3.31631 -1.36056 -0.0936873 0
M  V30 3 C -3.75945 -1.91933 -1.42962 0
M  V30 4 N -2.30657 -2.24812 0.437116 0
M  V30 5 C -2.74201 0.000373783 -0.371408 0
M  V30 6 O -3.5472 0.823288 -0.830578 0
M  V30 7 N -1.39986 0.272095 -0.116619 0
M  V30 8 C -0.681424 1.47777 -0.304869 0
M  V30 9 C 0.718201 1.51956 -0.149032 0
M  V30 10 N 1.39263 0.295596 0.0758023 0
M  V30 11 C 2.73562 0.0829274 0.4402 0
M  V30 12 O 3.52618 1.01444 0.620732 0
M  V30 13 C 3.26807 -1.31855 0.627067 0
M  V30 14 C 2.47928 -2.02425 1.6978 0
M  V30 15 C 3.13085 -2.08264 -0.681159 0
M  V30 16 N 4.66158 -1.23112 0.995372 0
M  V30 17 C 1.39328 2.718 -0.278663 0
M  V30 18 C 0.766737 3.91689 -0.561309 0
M  V30 19 C -0.594949 3.88161 -0.715482 0
M  V30 20 C -1.28827 2.67596 -0.586031 0
M  V30 21 N 1.50665 5.12687 -0.684974 0 CHG=1
M  V30 22 O 2.8619 5.07613 -0.516465 0 CHG=-1
M  V30 23 O 0.991866 6.22778 -0.937481 0
M  V30 24 H -5.09145 -2.2451 0.663596 0
M  V30 25 H -5.16973 -0.458322 0.628681 0
M  V30 26 H -4.23225 -1.28829 1.89074 0
M  V30 27 H -4.55658 -2.67227 -1.26386 0
M  V30 28 H -4.05636 -1.09165 -2.07342 0
M  V30 29 H -2.85074 -2.38949 -1.89783 0
M  V30 30 H -2.10842 -1.93107 1.41961 0
M  V30 31 H -2.73084 -3.19613 0.487974 0
M  V30 32 H -0.862109 -0.558936 0.304502 0
M  V30 33 H 0.856489 -0.621558 -0.0642951 0
M  V30 34 H 2.99636 -1.89283 2.65345 0
M  V30 35 H 2.41314 -3.09248 1.42386 0
M  V30 36 H 1.45044 -1.59574 1.68316 0
M  V30 37 H 3.65801 -1.49392 -1.47775 0
M  V30 38 H 3.62167 -3.05308 -0.565305 0
M  V30 39 H 2.06018 -2.17054 -0.913574 0
M  V30 40 H 5.05027 -0.282539 0.96642 0
M  V30 41 H 5.26113 -1.90973 0.511543 0
M  V30 42 H 2.47169 2.78714 -0.173253 0
M  V30 43 H -1.10805 4.81318 -0.93902 0
M  V30 44 H -2.36477 2.71972 -0.713667 0
M  V30 END ATOM
M  V30 BEGIN BOND
M  V30 1 1 1 2
M  V30 2 1 2 3
M  V30 3 1 2 4
M  V30 4 1 2 5
M  V30 5 2 5 6
M  V30 6 1 5 7
M  V30 7 1 7 8
M  V30 8 2 8 9
M  V30 9 1 9 10
M  V30 10 1 10 11
M  V30 11 2 11 12
M  V30 12 1 11 13
M  V30 13 1 13 14
M  V30 14 1 13 15
M  V30 15 1 13 16
M  V30 16 1 9 17
M  V30 17 2 17 18
M  V30 18 1 18 19
M  V30 19 2 19 20
M  V30 20 1 18 21
M  V30 21 1 21 22
M  V30 22 2 21 23
M  V30 23 1 20 8
M  V30 24 1 1 24
M  V30 25 1 1 25
M  V30 26 1 1 26
M  V30 27 1 3 27
M  V30 28 1 3 28
M  V30 29 1 3 29
M  V30 30 1 4 30
M  V30 31 1 4 31
M  V30 32 1 7 32
M  V30 33 1 10 33
M  V30 34 1 14 34
M  V30 35 1 14 35
M  V30 36 1 14 36
M  V30 37 1 15 37
M  V30 38 1 15 38
M  V30 39 1 15 39
M  V30 40 1 16 40
M  V30 41 1 16 41
M  V30 42 1 17 42
M  V30 43 1 19 43
M  V30 44 1 20 44
M  V30 END BOND
M  V30 END CTAB
M  END
