
     RDKit          3D

  0  0  0  0  0  0  0  0  0  0999 V3000
M  V30 BEGIN CTAB
M  V30 COUNTS 64 66 0 0 0
M  V30 BEGIN ATOM
M  V30 1 C -6.56995 2.74945 -3.15737 0
M  V30 2 O -6.03418 2.75057 -1.86223 0
M  V30 3 C -6.33632 1.62067 -1.03547 0
M  V30 4 O -7.04696 0.754827 -1.56195 0
M  V30 5 C -5.82175 1.55237 0.306946 0
M  V30 6 C -5.97215 0.331978 1.09009 0
M  V30 7 C -5.31998 -0.934812 0.690987 0 CFG=2
M  V30 8 N -3.88019 -0.69557 0.574538 0
M  V30 9 C -3.0143 -1.22089 1.5514 0
M  V30 10 O -3.49018 -1.88916 2.51806 0
M  V30 11 C -1.58037 -0.9851 1.43345 0
M  V30 12 C -1.04003 -0.586701 0.230158 0
M  V30 13 C 0.324611 -0.364506 0.143019 0
M  V30 14 C 1.14113 -0.529893 1.21423 0
M  V30 15 C 0.593372 -0.927936 2.41213 0
M  V30 16 C -0.756578 -1.16267 2.55467 0
M  V30 17 C 2.6031 -0.303508 1.14904 0
M  V30 18 C 2.76935 1.16111 0.798998 0
M  V30 19 C 2.14518 2.01856 1.81973 0
M  V30 20 C 1.63288 2.74022 2.65797 0
M  V30 21 C 3.3072 -1.13795 0.162318 0
M  V30 22 C 4.76558 -0.880712 0.136564 0
M  V30 23 N 5.36374 0.0118148 -0.675811 0
M  V30 24 C 6.6917 0.212034 -0.664536 0
M  V30 25 C 7.52302 -0.488849 0.18452 0
M  V30 26 N 6.95647 -1.38721 1.00821 0
M  V30 27 C 5.62918 -1.58167 0.991056 0
M  V30 28 N 8.86078 -0.268643 0.176526 0
M  V30 29 C 9.39243 0.638707 -0.662542 0
M  V30 30 N 10.792 0.824796 -0.624781 0
M  V30 31 N 8.60602 1.3376 -1.50238 0
M  V30 32 C 7.26407 1.13056 -1.50849 0
M  V30 33 N 6.4035 1.85397 -2.38668 0
M  V30 34 C -5.82037 -1.71545 -0.409975 0
M  V30 35 O -5.10254 -1.99845 -1.43104 0
M  V30 36 O -7.13176 -2.23103 -0.440673 0
M  V30 37 C -7.54741 -2.99192 -1.54766 0
M  V30 38 H -7.67083 2.65663 -3.19002 0
M  V30 39 H -6.15691 1.89054 -3.7214 0
M  V30 40 H -6.22636 3.67262 -3.6666 0
M  V30 41 H -6.33265 2.39759 0.9129 0
M  V30 42 H -4.73721 1.94085 0.329013 0
M  V30 43 H -5.64025 0.542193 2.17106 0
M  V30 44 H -7.0908 0.109439 1.16433 0
M  V30 45 H -5.4647 -1.61431 1.62887 0
M  V30 46 H -3.55956 -0.133611 -0.24335 0
M  V30 47 H -1.62407 -0.433327 -0.677668 0
M  V30 48 H 0.794084 -0.0482949 -0.791489 0
M  V30 49 H 1.19724 -1.07923 3.31348 0
M  V30 50 H -1.21625 -1.4729 3.47226 0
M  V30 51 H 3.05678 -0.438087 2.15414 0
M  V30 52 H 3.83729 1.47331 0.709196 0
M  V30 53 H 2.28294 1.43502 -0.159415 0
M  V30 54 H 1.19651 3.38116 3.39038 0
M  V30 55 H 2.92204 -0.931059 -0.880628 0
M  V30 56 H 3.18572 -2.22902 0.283863 0
M  V30 57 H 5.15393 -2.30142 1.64725 0
M  V30 58 H 11.3973 0.316346 -1.29738 0
M  V30 59 H 11.2174 1.46633 0.0709581 0
M  V30 60 H 5.86148 2.68851 -2.10541 0
M  V30 61 H 6.30402 1.53439 -3.37488 0
M  V30 62 H -7.63899 -2.39147 -2.48044 0
M  V30 63 H -6.7993 -3.81545 -1.68795 0
M  V30 64 H -8.54915 -3.42486 -1.30408 0
M  V30 END ATOM
M  V30 BEGIN BOND
M  V30 1 1 1 2
M  V30 2 1 2 3
M  V30 3 2 3 4
M  V30 4 1 3 5
M  V30 5 1 5 6
M  V30 6 1 6 7
M  V30 7 1 7 8
M  V30 8 1 8 9
M  V30 9 2 9 10
M  V30 10 1 9 11
M  V30 11 2 11 12
M  V30 12 1 12 13
M  V30 13 2 13 14
M  V30 14 1 14 15
M  V30 15 2 15 16
M  V30 16 1 14 17
M  V30 17 1 17 18
M  V30 18 1 18 19
M  V30 19 3 19 20
M  V30 20 1 17 21
M  V30 21 1 21 22
M  V30 22 2 22 23
M  V30 23 1 23 24
M  V30 24 2 24 25
M  V30 25 1 25 26
M  V30 26 2 26 27
M  V30 27 1 25 28
M  V30 28 2 28 29
M  V30 29 1 29 30
M  V30 30 1 29 31
M  V30 31 2 31 32
M  V30 32 1 32 33
M  V30 33 1 7 34
M  V30 34 2 34 35
M  V30 35 1 34 36
M  V30 36 1 36 37
M  V30 37 1 16 11
M  V30 38 1 27 22
M  V30 39 1 32 24
M  V30 40 1 1 38
M  V30 41 1 1 39
M  V30 42 1 1 40
M  V30 43 1 5 41
M  V30 44 1 5 42
M  V30 45 1 6 43
M  V30 46 1 6 44
M  V30 47 1 7 45 CFG=1
M  V30 48 1 8 46
M  V30 49 1 12 47
M  V30 50 1 13 48
M  V30 51 1 15 49
M  V30 52 1 16 50
M  V30 53 1 17 51
M  V30 54 1 18 52
M  V30 55 1 18 53
M  V30 56 1 20 54
M  V30 57 1 21 55
M  V30 58 1 21 56
M  V30 59 1 27 57
M  V30 60 1 30 58
M  V30 61 1 30 59
M  V30 62 1 33 60
M  V30 63 1 33 61
M  V30 64 1 37 62
M  V30 65 1 37 63
M  V30 66 1 37 64
M  V30 END BOND
M  V30 END CTAB
M  END
