
     RDKit          3D

  0  0  0  0  0  0  0  0  0  0999 V3000
M  V30 BEGIN CTAB
M  V30 COUNTS 21 22 0 0 0
M  V30 BEGIN ATOM
M  V30 1 N 4.52762 1.19792 0.367098 0
M  V30 2 C 3.35902 0.458003 0.0292654 0
M  V30 3 N 3.36694 -0.704739 -0.619978 0
M  V30 4 O 2.148 -1.0962 -0.760155 0
M  V30 5 C 1.33622 -0.21528 -0.216559 0
M  V30 6 N 2.06884 0.766483 0.284178 0
M  V30 7 C -0.124423 -0.385186 -0.217608 0
M  V30 8 C -0.960713 0.549143 0.35739 0
M  V30 9 C -2.33245 0.408354 0.366868 0
M  V30 10 N -3.18622 1.37679 0.962012 0
M  V30 11 C -2.88708 -0.728663 -0.231961 0
M  V30 12 C -2.07984 -1.68012 -0.814654 0
M  V30 13 C -0.7302 -1.48345 -0.791531 0
M  V30 14 Br -2.90837 -3.19883 -1.60889 0
M  V30 15 H 5.38145 0.714762 0.720966 0
M  V30 16 H 4.52954 2.23522 0.259338 0
M  V30 17 H -0.506352 1.41697 0.812461 0
M  V30 18 H -3.30952 2.28768 0.477913 0
M  V30 19 H -3.65079 1.12604 1.86085 0
M  V30 20 H -3.96729 -0.829117 -0.218677 0
M  V30 21 H -0.0743637 -2.21578 -1.24224 0
M  V30 END ATOM
M  V30 BEGIN BOND
M  V30 1 1 1 2
M  V30 2 2 2 3
M  V30 3 1 3 4
M  V30 4 1 4 5
M  V30 5 2 5 6
M  V30 6 1 5 7
M  V30 7 2 7 8
M  V30 8 1 8 9
M  V30 9 1 9 10
M  V30 10 2 9 11
M  V30 11 1 11 12
M  V30 12 2 12 13
M  V30 13 1 12 14
M  V30 14 1 6 2
M  V30 15 1 13 7
M  V30 16 1 1 15
M  V30 17 1 1 16
M  V30 18 1 8 17
M  V30 19 1 10 18
M  V30 20 1 10 19
M  V30 21 1 11 20
M  V30 22 1 13 21
M  V30 END BOND
M  V30 END CTAB
M  END
