
     RDKit          3D

  0  0  0  0  0  0  0  0  0  0999 V3000
M  V30 BEGIN CTAB
M  V30 COUNTS 37 39 0 0 0
M  V30 BEGIN ATOM
M  V30 1 N 4.09123 -5.02798 -0.0319715 0
M  V30 2 C 3.32045 -3.8214 0.0395882 0
M  V30 3 N 3.70885 -2.5654 -0.0947469 0
M  V30 4 C 2.85631 -1.59258 0.00345682 0
M  V30 5 C 1.54538 -1.93175 0.251275 0
M  V30 6 S 1.62789 -3.63386 0.326514 0
M  V30 7 N 0.410203 -1.04933 0.405054 0
M  V30 8 N -0.737802 -1.37154 -0.00359843 0
M  V30 9 C -1.90287 -0.612627 0.0860562 0
M  V30 10 C -2.87329 -0.797822 -0.896839 0
M  V30 11 C -4.05735 -0.110516 -0.91434 0
M  V30 12 C -4.32715 0.818899 0.0816861 0
M  V30 13 C -3.36988 1.00493 1.05559 0
M  V30 14 C -2.17464 0.310026 1.07182 0
M  V30 15 S -5.80815 1.71336 0.10484 0
M  V30 16 N -5.59849 3.17468 -0.791184 0
M  V30 17 O -6.27699 2.04333 1.48968 0
M  V30 18 O -6.86893 0.906512 -0.605473 0
M  V30 19 C 3.22687 -0.14465 -0.135373 0
M  V30 20 C 4.33998 0.359221 0.506501 0
M  V30 21 C 4.73287 1.66331 0.420364 0
M  V30 22 C 3.95039 2.50308 -0.362366 0
M  V30 23 Br 4.45369 4.34434 -0.520041 0
M  V30 24 C 2.83367 2.02273 -1.01335 0
M  V30 25 C 2.45018 0.685799 -0.911531 0
M  V30 26 H 3.82836 -5.81344 -0.630525 0
M  V30 27 H 4.94065 -5.08328 0.552421 0
M  V30 28 H -2.69449 -1.5208 -1.69544 0
M  V30 29 H -4.79792 -0.2717 -1.69012 0
M  V30 30 H -3.5803 1.73472 1.83877 0
M  V30 31 H -1.42571 0.463254 1.8437 0
M  V30 32 H -5.07733 3.85185 -0.181697 0
M  V30 33 H -5.08123 2.95092 -1.64669 0
M  V30 34 H 4.96116 -0.299917 1.1258 0
M  V30 35 H 5.59155 2.08688 0.905857 0
M  V30 36 H 2.21044 2.66818 -1.63028 0
M  V30 37 H 1.57239 0.342545 -1.43437 0
M  V30 END ATOM
M  V30 BEGIN BOND
M  V30 1 1 1 2
M  V30 2 2 2 3
M  V30 3 1 3 4
M  V30 4 2 4 5
M  V30 5 1 5 6
M  V30 6 1 5 7
M  V30 7 2 7 8
M  V30 8 1 8 9
M  V30 9 2 9 10
M  V30 10 1 10 11
M  V30 11 2 11 12
M  V30 12 1 12 13
M  V30 13 2 13 14
M  V30 14 1 12 15
M  V30 15 1 15 16
M  V30 16 2 15 17
M  V30 17 2 15 18
M  V30 18 1 4 19
M  V30 19 2 19 20
M  V30 20 1 20 21
M  V30 21 2 21 22
M  V30 22 1 22 23
M  V30 23 1 22 24
M  V30 24 2 24 25
M  V30 25 1 6 2
M  V30 26 1 14 9
M  V30 27 1 25 19
M  V30 28 1 1 26
M  V30 29 1 1 27
M  V30 30 1 10 28
M  V30 31 1 11 29
M  V30 32 1 13 30
M  V30 33 1 14 31
M  V30 34 1 16 32
M  V30 35 1 16 33
M  V30 36 1 20 34
M  V30 37 1 21 35
M  V30 38 1 24 36
M  V30 39 1 25 37
M  V30 END BOND
M  V30 END CTAB
M  END
