
     RDKit          3D

  0  0  0  0  0  0  0  0  0  0999 V3000
M  V30 BEGIN CTAB
M  V30 COUNTS 32 33 0 0 0
M  V30 BEGIN ATOM
M  V30 1 N -1.35278 -1.45553 0.535265 0
M  V30 2 C -0.724265 -0.257514 0.100928 0
M  V30 3 N -1.49029 0.726525 -0.206933 0
M  V30 4 C -2.90241 0.663773 -0.131581 0
M  V30 5 C -3.59402 0.258152 -1.25046 0
M  V30 6 C -4.9928 0.177786 -1.23199 0
M  V30 7 C -5.70236 0.502664 -0.095334 0
M  V30 8 C -4.99226 0.906487 1.01449 0
M  V30 9 C -3.59301 0.992559 1.01351 0
M  V30 10 C 0.707809 -0.0823562 -0.0136643 0
M  V30 11 N 1.57973 -0.984895 0.262207 0
M  V30 12 C 2.98586 -0.766919 0.133933 0
M  V30 13 C 3.77603 -1.39241 -0.783127 0
M  V30 14 C 5.11978 -1.11484 -0.827458 0
M  V30 15 C 5.68422 -0.216702 0.0368192 0
M  V30 16 C 4.91822 0.437447 0.979815 0
M  V30 17 C 3.56257 0.140111 1.00499 0
M  V30 18 N 1.20944 1.16715 -0.460773 0
M  V30 19 H -1.47133 -1.73124 1.52749 0
M  V30 20 H -1.72531 -2.11215 -0.185497 0
M  V30 21 H -3.05608 -0.00046367 -2.15015 0
M  V30 22 H -5.5576 -0.138382 -2.09927 0
M  V30 23 H -6.79374 0.452158 -0.0432937 0
M  V30 24 H -5.51047 1.16764 1.91823 0
M  V30 25 H -3.03174 1.30462 1.86878 0
M  V30 26 H 3.29797 -2.10002 -1.45517 0
M  V30 27 H 5.75982 -1.59813 -1.54389 0
M  V30 28 H 6.74384 0.0239131 0.0264261 0
M  V30 29 H 5.37563 1.14713 1.65971 0
M  V30 30 H 2.97264 0.658672 1.74792 0
M  V30 31 H 1.37583 1.9894 0.135505 0
M  V30 32 H 1.42109 1.23536 -1.48742 0
M  V30 END ATOM
M  V30 BEGIN BOND
M  V30 1 1 1 2
M  V30 2 2 2 3
M  V30 3 1 3 4
M  V30 4 2 4 5
M  V30 5 1 5 6
M  V30 6 2 6 7
M  V30 7 1 7 8
M  V30 8 2 8 9
M  V30 9 1 2 10
M  V30 10 2 10 11
M  V30 11 1 11 12
M  V30 12 2 12 13
M  V30 13 1 13 14
M  V30 14 2 14 15
M  V30 15 1 15 16
M  V30 16 2 16 17
M  V30 17 1 10 18
M  V30 18 1 9 4
M  V30 19 1 17 12
M  V30 20 1 1 19
M  V30 21 1 1 20
M  V30 22 1 5 21
M  V30 23 1 6 22
M  V30 24 1 7 23
M  V30 25 1 8 24
M  V30 26 1 9 25
M  V30 27 1 13 26
M  V30 28 1 14 27
M  V30 29 1 15 28
M  V30 30 1 16 29
M  V30 31 1 17 30
M  V30 32 1 18 31
M  V30 33 1 18 32
M  V30 END BOND
M  V30 END CTAB
M  END
