
     RDKit          3D

  0  0  0  0  0  0  0  0  0  0999 V3000
M  V30 BEGIN CTAB
M  V30 COUNTS 30 30 0 0 0
M  V30 BEGIN ATOM
M  V30 1 C -0.783226 -1.85165 -0.0859659 0
M  V30 2 C -0.339936 -0.644019 0.676801 0
M  V30 3 C -1.349 0.4737 0.649881 0
M  V30 4 C -0.900743 1.68295 1.41579 0
M  V30 5 C -1.65969 0.924043 -0.765038 0
M  V30 6 C -2.65666 -0.00309406 1.24886 0
M  V30 7 N 0.953681 -0.246591 0.194065 0
M  V30 8 N 1.4368 0.942259 -0.128606 0
M  V30 9 C 2.70507 0.865429 -0.538039 0
M  V30 10 N 3.03059 -0.443865 -0.46663 0
M  V30 11 C 1.96066 -1.11249 -0.0208481 0
M  V30 12 N 1.97688 -2.53466 0.168503 0
M  V30 13 N 3.54702 1.9302 -0.962595 0
M  V30 14 H -0.585901 -2.80259 0.44987 0
M  V30 15 H -0.225068 -1.9335 -1.06036 0
M  V30 16 H -1.85321 -1.80453 -0.371903 0
M  V30 17 H -0.213205 -0.948235 1.73784 0
M  V30 18 H -1.79122 2.16293 1.87056 0
M  V30 19 H -0.206223 1.4415 2.24623 0
M  V30 20 H -0.465229 2.47151 0.740798 0
M  V30 21 H -2.51321 1.65618 -0.661118 0
M  V30 22 H -0.844262 1.48836 -1.23104 0
M  V30 23 H -2.02995 0.097672 -1.39999 0
M  V30 24 H -3.22993 -0.557969 0.471722 0
M  V30 25 H -3.21963 0.910605 1.58436 0
M  V30 26 H -2.46793 -0.687605 2.12125 0
M  V30 27 H 1.96085 -2.92459 1.12711 0
M  V30 28 H 2.00438 -3.20489 -0.623282 0
M  V30 29 H 3.56174 2.87498 -0.519763 0
M  V30 30 H 4.19656 1.77796 -1.76345 0
M  V30 END ATOM
M  V30 BEGIN BOND
M  V30 1 1 1 2
M  V30 2 1 2 3
M  V30 3 1 3 4
M  V30 4 1 3 5
M  V30 5 1 3 6
M  V30 6 1 2 7
M  V30 7 1 7 8
M  V30 8 2 8 9
M  V30 9 1 9 10
M  V30 10 2 10 11
M  V30 11 1 11 12
M  V30 12 1 9 13
M  V30 13 1 11 7
M  V30 14 1 1 14
M  V30 15 1 1 15
M  V30 16 1 1 16
M  V30 17 1 2 17
M  V30 18 1 4 18
M  V30 19 1 4 19
M  V30 20 1 4 20
M  V30 21 1 5 21
M  V30 22 1 5 22
M  V30 23 1 5 23
M  V30 24 1 6 24
M  V30 25 1 6 25
M  V30 26 1 6 26
M  V30 27 1 12 27
M  V30 28 1 12 28
M  V30 29 1 13 29
M  V30 30 1 13 30
M  V30 END BOND
M  V30 END CTAB
M  END
