
     RDKit          3D

  0  0  0  0  0  0  0  0  0  0999 V3000
M  V30 BEGIN CTAB
M  V30 COUNTS 15 14 0 0 0
M  V30 BEGIN ATOM
M  V30 1 O 1.02045 -1.37148 -0.566942 0
M  V30 2 P 1.17325 0.228517 -0.0367951 0
M  V30 3 O 1.3702 1.07483 -1.29834 0
M  V30 4 O -0.118535 0.768944 0.836762 0
M  V30 5 P -1.61634 0.373398 0.270163 0
M  V30 6 O -2.58296 1.49895 0.65674 0
M  V30 7 O -2.24048 -1.02884 1.01389 0
M  V30 8 N -1.73056 0.155596 -1.43374 0
M  V30 9 N 2.59309 0.325675 0.9051 0
M  V30 10 H 1.94934 -1.69935 -0.764638 0
M  V30 11 H -2.73927 -0.790813 1.821 0
M  V30 12 H -0.953947 0.511935 -1.98885 0
M  V30 13 H -2.14634 -0.737651 -1.73459 0
M  V30 14 H 3.05258 1.20535 1.01565 0
M  V30 15 H 2.96953 -0.515064 1.30459 0
M  V30 END ATOM
M  V30 BEGIN BOND
M  V30 1 1 1 2
M  V30 2 2 2 3
M  V30 3 1 2 4
M  V30 4 1 4 5
M  V30 5 2 5 6
M  V30 6 1 5 7
M  V30 7 1 5 8
M  V30 8 1 2 9
M  V30 9 1 1 10
M  V30 10 1 7 11
M  V30 11 1 8 12
M  V30 12 1 8 13
M  V30 13 1 9 14
M  V30 14 1 9 15
M  V30 END BOND
M  V30 END CTAB
M  END
