
     RDKit          3D

  0  0  0  0  0  0  0  0  0  0999 V3000
M  V30 BEGIN CTAB
M  V30 COUNTS 34 35 0 0 0
M  V30 BEGIN ATOM
M  V30 1 N -2.60234 1.92988 -0.110575 0
M  V30 2 C -2.49196 0.787977 -0.965636 0
M  V30 3 C -3.23729 -0.432167 -0.550309 0
M  V30 4 C -2.4083 -1.5852 -0.129872 0
M  V30 5 N -1.19512 -1.21657 0.568406 0
M  V30 6 C -0.462247 -0.136729 0.0504108 0
M  V30 7 C -1.04019 0.390722 -1.22653 0
M  V30 8 C 0.988579 -0.0934687 0.159689 0
M  V30 9 C 1.62111 0.965198 -0.505762 0
M  V30 10 C 2.97231 1.18458 -0.417683 0
M  V30 11 N 3.55993 2.29864 -1.11982 0
M  V30 12 C 3.74865 0.346877 0.346168 0
M  V30 13 C 3.13097 -0.692384 1.00069 0
M  V30 14 C 1.74295 -0.926978 0.915771 0
M  V30 15 C 1.14492 -2.06273 1.62175 0
M  V30 16 H -2.76818 1.65765 0.881721 0
M  V30 17 H -3.29798 2.64575 -0.441794 0
M  V30 18 H -2.86029 1.15766 -1.98179 0
M  V30 19 H -4.05774 -0.215557 0.185642 0
M  V30 20 H -3.81611 -0.788615 -1.46114 0
M  V30 21 H -2.22691 -2.32546 -0.933277 0
M  V30 22 H -3.01273 -2.14532 0.64472 0
M  V30 23 H -1.38475 -1.13529 1.6169 0
M  V30 24 H -0.762987 0.735653 0.80372 0
M  V30 25 H -1.15089 -0.46528 -1.97235 0
M  V30 26 H -0.585093 1.25064 -1.68081 0
M  V30 27 H 1.08243 1.68139 -1.11162 0
M  V30 28 H 3.86066 2.20904 -2.08658 0
M  V30 29 H 3.6331 3.18915 -0.552552 0
M  V30 30 H 4.83225 0.525356 0.418564 0
M  V30 31 H 3.71726 -1.3785 1.61332 0
M  V30 32 H 0.623206 -1.84791 2.55508 0
M  V30 33 H 2.03613 -2.68161 2.0026 0
M  V30 34 H 0.666638 -2.8264 0.956701 0
M  V30 END ATOM
M  V30 BEGIN BOND
M  V30 1 1 1 2
M  V30 2 1 2 3
M  V30 3 1 3 4
M  V30 4 1 4 5
M  V30 5 1 5 6
M  V30 6 1 6 7
M  V30 7 1 6 8
M  V30 8 2 8 9
M  V30 9 1 9 10
M  V30 10 1 10 11
M  V30 11 2 10 12
M  V30 12 1 12 13
M  V30 13 2 13 14
M  V30 14 1 14 15
M  V30 15 1 7 2
M  V30 16 1 14 8
M  V30 17 1 1 16
M  V30 18 1 1 17
M  V30 19 1 2 18
M  V30 20 1 3 19
M  V30 21 1 3 20
M  V30 22 1 4 21
M  V30 23 1 4 22
M  V30 24 1 5 23
M  V30 25 1 6 24
M  V30 26 1 7 25
M  V30 27 1 7 26
M  V30 28 1 9 27
M  V30 29 1 11 28
M  V30 30 1 11 29
M  V30 31 1 12 30
M  V30 32 1 13 31
M  V30 33 1 15 32
M  V30 34 1 15 33
M  V30 35 1 15 34
M  V30 END BOND
M  V30 END CTAB
M  END
