
     RDKit          3D

  0  0  0  0  0  0  0  0  0  0999 V3000
M  V30 BEGIN CTAB
M  V30 COUNTS 25 25 0 0 0
M  V30 BEGIN ATOM
M  V30 1 N -2.95512 1.85715 -0.743833 0
M  V30 2 C -2.10798 0.789611 -0.355435 0
M  V30 3 C -0.739022 1.02525 -0.381215 0
M  V30 4 F -0.233453 2.234 -0.764523 0
M  V30 5 C 0.114756 0.0163004 -0.012112 0
M  V30 6 N 1.53892 0.238987 -0.0314347 0
M  V30 7 C 2.46408 -0.782948 0.344695 0
M  V30 8 C 3.86088 -0.444132 0.285611 0
M  V30 9 C 4.35086 0.709873 -0.0800031 0
M  V30 10 C -0.360098 -1.21295 0.379207 0
M  V30 11 C -1.74461 -1.4232 0.395927 0
M  V30 12 C -2.62112 -0.421166 0.0282521 0
M  V30 13 N -4.04064 -0.672543 0.0573262 0
M  V30 14 H -3.49025 1.77561 -1.63121 0
M  V30 15 H -3.05614 2.71667 -0.168223 0
M  V30 16 H 1.83732 1.17261 -0.330996 0
M  V30 17 H 2.12258 -1.16006 1.34645 0
M  V30 18 H 2.22403 -1.67201 -0.32922 0
M  V30 19 H 4.60141 -1.2177 0.571869 0
M  V30 20 H 5.43412 0.914198 -0.106355 0
M  V30 21 H 3.71573 1.51113 -0.37144 0
M  V30 22 H 0.310931 -2.02066 0.674203 0
M  V30 23 H -2.07795 -2.38437 0.703364 0
M  V30 24 H -4.61404 -0.548584 0.896397 0
M  V30 25 H -4.53519 -1.00105 -0.816499 0
M  V30 END ATOM
M  V30 BEGIN BOND
M  V30 1 1 1 2
M  V30 2 2 2 3
M  V30 3 1 3 4
M  V30 4 1 3 5
M  V30 5 1 5 6
M  V30 6 1 6 7
M  V30 7 1 7 8
M  V30 8 2 8 9 CFG=2
M  V30 9 2 5 10
M  V30 10 1 10 11
M  V30 11 2 11 12
M  V30 12 1 12 13
M  V30 13 1 12 2
M  V30 14 1 1 14
M  V30 15 1 1 15
M  V30 16 1 6 16
M  V30 17 1 7 17
M  V30 18 1 7 18
M  V30 19 1 8 19
M  V30 20 1 9 20
M  V30 21 1 9 21
M  V30 22 1 10 22
M  V30 23 1 11 23
M  V30 24 1 13 24
M  V30 25 1 13 25
M  V30 END BOND
M  V30 END CTAB
M  END
