
     RDKit          3D

  0  0  0  0  0  0  0  0  0  0999 V3000
M  V30 BEGIN CTAB
M  V30 COUNTS 41 42 0 0 0
M  V30 BEGIN ATOM
M  V30 1 C -2.14284 0.146513 0.32067 0
M  V30 2 C -2.30213 -1.22218 -0.292088 0
M  V30 3 C -3.61455 -1.85713 0.23847 0
M  V30 4 N -3.35324 0.848295 -0.106968 0
M  V30 5 C -3.43972 1.85046 -0.853093 0
M  V30 6 N -4.70281 2.41451 -1.18137 0
M  V30 7 N -2.20774 2.42485 -1.28567 0
M  V30 8 C -1.07828 1.95317 -0.925363 0
M  V30 9 N 0.0747438 2.62654 -1.44154 0
M  V30 10 N -0.927326 0.843046 0.021026 0
M  V30 11 O 0.265963 0.699009 0.490724 0
M  V30 12 C 0.977245 -0.440627 0.663492 0
M  V30 13 C 0.879474 -0.886237 2.10728 0
M  V30 14 C 1.62184 -2.15537 2.33939 0
M  V30 15 C 2.31281 -0.196082 0.114233 0
M  V30 16 C 2.42538 -0.344581 -1.26963 0
M  V30 17 Cl 1.08279 -0.933244 -2.23828 0
M  V30 18 C 3.58329 -0.0958317 -1.95007 0
M  V30 19 C 4.6931 0.313479 -1.2853 0
M  V30 20 C 4.6396 0.474904 0.0714843 0
M  V30 21 C 3.44413 0.214987 0.7361 0
M  V30 22 Cl 3.44661 0.485127 2.42875 0
M  V30 23 H -2.25023 0.0496698 1.43848 0
M  V30 24 H -2.41308 -1.229 -1.37402 0
M  V30 25 H -1.52948 -1.91355 0.084667 0
M  V30 26 H -3.51804 -2.92748 0.0623254 0
M  V30 27 H -4.41101 -1.41173 -0.40276 0
M  V30 28 H -3.776 -1.58604 1.29438 0
M  V30 29 H -5.30438 1.98279 -1.89165 0
M  V30 30 H -5.01454 3.27266 -0.692732 0
M  V30 31 H 0.570901 3.39449 -0.969787 0
M  V30 32 H 0.427397 2.30576 -2.36583 0
M  V30 33 H 0.557958 -1.26519 0.110295 0
M  V30 34 H -0.224996 -1.1782 2.1847 0
M  V30 35 H 0.937257 -0.111123 2.86088 0
M  V30 36 H 0.978111 -3.07155 2.32115 0
M  V30 37 H 2.38497 -2.35307 1.54286 0
M  V30 38 H 2.10403 -2.21263 3.35812 0
M  V30 39 H 3.65572 -0.21591 -3.02522 0
M  V30 40 H 5.62503 0.513217 -1.82675 0
M  V30 41 H 5.52203 0.793283 0.588658 0
M  V30 END ATOM
M  V30 BEGIN BOND
M  V30 1 1 1 2
M  V30 2 1 2 3
M  V30 3 1 1 4
M  V30 4 2 4 5
M  V30 5 1 5 6
M  V30 6 1 5 7
M  V30 7 2 7 8
M  V30 8 1 8 9
M  V30 9 1 8 10
M  V30 10 1 10 11
M  V30 11 1 11 12
M  V30 12 1 12 13
M  V30 13 1 13 14
M  V30 14 1 12 15
M  V30 15 2 15 16
M  V30 16 1 16 17
M  V30 17 1 16 18
M  V30 18 2 18 19
M  V30 19 1 19 20
M  V30 20 2 20 21
M  V30 21 1 21 22
M  V30 22 1 10 1
M  V30 23 1 21 15
M  V30 24 1 1 23
M  V30 25 1 2 24
M  V30 26 1 2 25
M  V30 27 1 3 26
M  V30 28 1 3 27
M  V30 29 1 3 28
M  V30 30 1 6 29
M  V30 31 1 6 30
M  V30 32 1 9 31
M  V30 33 1 9 32
M  V30 34 1 12 33
M  V30 35 1 13 34
M  V30 36 1 13 35
M  V30 37 1 14 36
M  V30 38 1 14 37
M  V30 39 1 14 38
M  V30 40 1 18 39
M  V30 41 1 19 40
M  V30 42 1 20 41
M  V30 END BOND
M  V30 END CTAB
M  END
