
     RDKit          3D

  0  0  0  0  0  0  0  0  0  0999 V3000
M  V30 BEGIN CTAB
M  V30 COUNTS 40 41 0 0 0
M  V30 BEGIN ATOM
M  V30 1 O 0.404147 -1.19072 -2.14899 0
M  V30 2 C -0.280543 -1.24778 -1.06635 0
M  V30 3 C -1.57886 -0.558132 -1.01807 0
M  V30 4 C -2.35561 -0.554197 0.0363836 0
M  V30 5 C -3.63344 0.115065 0.108247 0
M  V30 6 C -4.37842 0.0474793 1.29256 0
M  V30 7 C -5.59857 0.658996 1.4288 0
M  V30 8 C -6.12573 1.37239 0.366405 0
M  V30 9 C -5.41808 1.45041 -0.793019 0
M  V30 10 C -4.18447 0.826257 -0.916515 0
M  V30 11 N -7.38037 1.9977 0.513001 0
M  V30 12 N 0.261619 -1.97245 0.0110329 0
M  V30 13 C 1.52797 -2.623 -0.0949821 0
M  V30 14 C 2.68792 -1.68696 -0.0172324 0
M  V30 15 C 2.77174 -0.803864 1.01916 0
M  V30 16 C 3.8367 0.0780593 1.12282 0
M  V30 17 C 4.8497 0.0779715 0.161297 0
M  V30 18 C 4.73823 -0.825103 -0.87411 0
M  V30 19 C 3.67766 -1.71033 -0.986092 0
M  V30 20 S 6.20386 1.16829 0.248444 0
M  V30 21 O 7.43917 0.530076 -0.351628 0
M  V30 22 O 6.5599 1.46266 1.69773 0
M  V30 23 N 5.93125 2.63727 -0.564039 0
M  V30 24 H -1.92994 -0.014835 -1.90012 0
M  V30 25 H -2.00438 -1.09633 0.913834 0
M  V30 26 H -3.97901 -0.508827 2.13715 0
M  V30 27 H -6.13175 0.57993 2.352 0
M  V30 28 H -5.82213 2.00771 -1.63332 0
M  V30 29 H -3.6903 0.935271 -1.86278 0
M  V30 30 H -7.53186 2.60832 1.34446 0
M  V30 31 H -8.13119 1.85232 -0.188141 0
M  V30 32 H -0.254584 -2.04569 0.904272 0
M  V30 33 H 1.6112 -3.42491 0.637861 0
M  V30 34 H 1.55201 -3.11418 -1.10284 0
M  V30 35 H 1.98789 -0.782194 1.79207 0
M  V30 36 H 3.93006 0.791909 1.93526 0
M  V30 37 H 5.50524 -0.85613 -1.63995 0
M  V30 38 H 3.59207 -2.41776 -1.79875 0
M  V30 39 H 6.34031 3.46883 -0.100721 0
M  V30 40 H 5.00061 2.76648 -0.965142 0
M  V30 END ATOM
M  V30 BEGIN BOND
M  V30 1 2 1 2
M  V30 2 1 2 3
M  V30 3 2 3 4
M  V30 4 1 4 5
M  V30 5 2 5 6
M  V30 6 1 6 7
M  V30 7 2 7 8
M  V30 8 1 8 9
M  V30 9 2 9 10
M  V30 10 1 8 11
M  V30 11 1 2 12
M  V30 12 1 12 13
M  V30 13 1 13 14
M  V30 14 2 14 15
M  V30 15 1 15 16
M  V30 16 2 16 17
M  V30 17 1 17 18
M  V30 18 2 18 19
M  V30 19 1 17 20
M  V30 20 2 20 21
M  V30 21 2 20 22
M  V30 22 1 20 23
M  V30 23 1 10 5
M  V30 24 1 19 14
M  V30 25 1 3 24
M  V30 26 1 4 25
M  V30 27 1 6 26
M  V30 28 1 7 27
M  V30 29 1 9 28
M  V30 30 1 10 29
M  V30 31 1 11 30
M  V30 32 1 11 31
M  V30 33 1 12 32
M  V30 34 1 13 33
M  V30 35 1 13 34
M  V30 36 1 15 35
M  V30 37 1 16 36
M  V30 38 1 18 37
M  V30 39 1 19 38
M  V30 40 1 23 39
M  V30 41 1 23 40
M  V30 END BOND
M  V30 END CTAB
M  END
