
     RDKit          3D

  0  0  0  0  0  0  0  0  0  0999 V3000
M  V30 BEGIN CTAB
M  V30 COUNTS 42 44 0 0 0
M  V30 BEGIN ATOM
M  V30 1 C -7.98584 2.13529 1.00533 0
M  V30 2 O -7.59389 1.49371 -0.184288 0
M  V30 3 C -6.32365 0.972806 -0.292463 0
M  V30 4 C -5.43363 1.07444 0.752497 0
M  V30 5 C -4.18331 0.543455 0.602615 0
M  V30 6 C -3.74673 -0.0953748 -0.538692 0
M  V30 7 C -4.63292 -0.197781 -1.58219 0
M  V30 8 C -5.91239 0.335789 -1.45218 0
M  V30 9 C -2.36956 -0.659211 -0.651168 0
M  V30 10 C -1.95265 -1.2917 -1.80103 0
M  V30 11 S -0.352697 -1.72371 -1.39396 0
M  V30 12 C -0.300167 -1.0922 0.179292 0
M  V30 13 N -1.51684 -0.577452 0.319512 0
M  V30 14 N 0.698586 -1.04291 1.20458 0
M  V30 15 C 1.95423 -1.6098 0.976864 0
M  V30 16 O 2.79814 -1.5402 1.9067 0
M  V30 17 C 2.32356 -2.26893 -0.273101 0
M  V30 18 S 4.07102 -2.84106 -0.121103 0
M  V30 19 C 5.09086 -1.36588 -0.0245863 0
M  V30 20 N 6.43823 -1.48072 0.0971711 0
M  V30 21 C 7.22301 -0.391664 0.16959 0
M  V30 22 N 8.62173 -0.519173 0.295356 0
M  V30 23 C 6.65659 0.865751 0.11993 0
M  V30 24 C 5.27841 1.00278 -0.0045855 0
M  V30 25 N 4.57611 -0.128781 -0.0696145 0
M  V30 26 N 4.66703 2.28454 -0.0583986 0
M  V30 27 H -7.8417 1.45084 1.89189 0
M  V30 28 H -7.3437 3.01996 1.16742 0
M  V30 29 H -9.04599 2.45001 0.985446 0
M  V30 30 H -5.74981 1.57229 1.66347 0
M  V30 31 H -3.50194 0.63873 1.44441 0
M  V30 32 H -4.3767 -0.682378 -2.51545 0
M  V30 33 H -6.59687 0.253346 -2.2662 0
M  V30 34 H -2.52858 -1.46027 -2.73027 0
M  V30 35 H 0.471072 -0.5735 2.12776 0
M  V30 36 H 2.28708 -1.5713 -1.15827 0
M  V30 37 H 1.69019 -3.1652 -0.516794 0
M  V30 38 H 9.1439 0.135643 0.91141 0
M  V30 39 H 9.15289 -1.25167 -0.211624 0
M  V30 40 H 7.272 1.75978 0.176577 0
M  V30 41 H 3.96061 2.52702 -0.78337 0
M  V30 42 H 4.91431 3.0147 0.631533 0
M  V30 END ATOM
M  V30 BEGIN BOND
M  V30 1 1 1 2
M  V30 2 1 2 3
M  V30 3 2 3 4
M  V30 4 1 4 5
M  V30 5 2 5 6
M  V30 6 1 6 7
M  V30 7 2 7 8
M  V30 8 1 6 9
M  V30 9 2 9 10
M  V30 10 1 10 11
M  V30 11 1 11 12
M  V30 12 2 12 13
M  V30 13 1 12 14
M  V30 14 1 14 15
M  V30 15 2 15 16
M  V30 16 1 15 17
M  V30 17 1 17 18
M  V30 18 1 18 19
M  V30 19 2 19 20
M  V30 20 1 20 21
M  V30 21 1 21 22
M  V30 22 2 21 23
M  V30 23 1 23 24
M  V30 24 2 24 25
M  V30 25 1 24 26
M  V30 26 1 8 3
M  V30 27 1 13 9
M  V30 28 1 25 19
M  V30 29 1 1 27
M  V30 30 1 1 28
M  V30 31 1 1 29
M  V30 32 1 4 30
M  V30 33 1 5 31
M  V30 34 1 7 32
M  V30 35 1 8 33
M  V30 36 1 10 34
M  V30 37 1 14 35
M  V30 38 1 17 36
M  V30 39 1 17 37
M  V30 40 1 22 38
M  V30 41 1 22 39
M  V30 42 1 23 40
M  V30 43 1 26 41
M  V30 44 1 26 42
M  V30 END BOND
M  V30 END CTAB
M  END
