
     RDKit          3D

  0  0  0  0  0  0  0  0  0  0999 V3000
M  V30 BEGIN CTAB
M  V30 COUNTS 13 13 0 0 0
M  V30 BEGIN ATOM
M  V30 1 N 2.41842 -0.6733 0.122675 0
M  V30 2 N 1.09241 -0.23249 0.0623856 0
M  V30 3 C 0.684008 1.05889 0.094608 0
M  V30 4 C -0.691556 1.092 0.0134325 0
M  V30 5 C -1.10637 -0.216608 -0.0689958 0
M  V30 6 N -2.45838 -0.660302 -0.169711 0
M  V30 7 N 0.00439899 -0.969148 -0.0353466 0
M  V30 8 H 2.9595 -0.692281 -0.768976 0
M  V30 9 H 2.90749 -0.98105 0.971625 0
M  V30 10 H 1.33096 1.92727 0.171632 0
M  V30 11 H -1.33304 1.96012 0.0130416 0
M  V30 12 H -3.00429 -0.712341 0.702459 0
M  V30 13 H -2.80356 -0.900763 -1.10883 0
M  V30 END ATOM
M  V30 BEGIN BOND
M  V30 1 1 1 2
M  V30 2 1 2 3
M  V30 3 2 3 4
M  V30 4 1 4 5
M  V30 5 1 5 6
M  V30 6 2 5 7
M  V30 7 1 7 2
M  V30 8 1 1 8
M  V30 9 1 1 9
M  V30 10 1 3 10
M  V30 11 1 4 11
M  V30 12 1 6 12
M  V30 13 1 6 13
M  V30 END BOND
M  V30 END CTAB
M  END
