
     RDKit          3D

  0  0  0  0  0  0  0  0  0  0999 V3000
M  V30 BEGIN CTAB
M  V30 COUNTS 35 36 0 0 0
M  V30 BEGIN ATOM
M  V30 1 O -1.76811 0.469184 -1.09904 0
M  V30 2 C -0.631039 0.407704 -0.108659 0
M  V30 3 N -1.36868 0.302339 1.06422 0
M  V30 4 C -2.81701 0.370349 1.02011 0
M  V30 5 C -3.30286 1.51218 0.346644 0
M  V30 6 C -4.65937 1.7009 0.198513 0
M  V30 7 C -5.46442 0.740972 0.741506 0
M  V30 8 C -5.07051 -0.367956 1.40972 0
M  V30 9 C -3.66372 -0.547897 1.53551 0
M  V30 10 C -6.0121 -1.33173 2.01325 0
M  V30 11 F -7.29418 -0.974523 1.64536 0
M  V30 12 F -5.81685 -2.62364 1.59581 0
M  V30 13 F -5.99489 -1.28365 3.40687 0
M  V30 14 C 0.476653 0.502085 -0.911142 0
M  V30 15 S 1.32335 -0.839591 -1.73371 0
M  V30 16 C 3.08507 -0.683492 -1.35556 0
M  V30 17 N 3.55338 0.111816 -0.444786 0
M  V30 18 C 4.83288 0.42134 -0.168477 0
M  V30 19 N 5.21036 1.25508 0.883345 0
M  V30 20 C 5.73085 -0.201963 -0.984191 0
M  V30 21 C 5.31284 -1.07631 -2.00338 0
M  V30 22 N 4.00337 -1.29397 -2.15642 0
M  V30 23 N 6.33394 -1.65506 -2.78264 0
M  V30 24 H -0.946263 0.222268 2.01748 0
M  V30 25 H -2.65407 2.28253 -0.0262606 0
M  V30 26 H -5.04043 2.54495 -0.332537 0
M  V30 27 H -6.56633 0.905425 0.648159 0
M  V30 28 H -3.32138 -1.39964 2.06139 0
M  V30 29 H 1.29654 1.0872 -0.300117 0
M  V30 30 H 0.370263 1.33567 -1.75971 0
M  V30 31 H 6.15853 1.45801 1.16924 0
M  V30 32 H 4.41348 1.70638 1.43885 0
M  V30 33 H 6.78406 -0.00177821 -0.822897 0
M  V30 34 H 7.3068 -1.23619 -2.84547 0
M  V30 35 H 6.19985 -2.54467 -3.36094 0
M  V30 END ATOM
M  V30 BEGIN BOND
M  V30 1 2 1 2
M  V30 2 1 2 3
M  V30 3 1 3 4
M  V30 4 2 4 5
M  V30 5 1 5 6
M  V30 6 2 6 7
M  V30 7 1 7 8
M  V30 8 2 8 9
M  V30 9 1 8 10
M  V30 10 1 10 11
M  V30 11 1 10 12
M  V30 12 1 10 13
M  V30 13 1 2 14
M  V30 14 1 14 15
M  V30 15 1 15 16
M  V30 16 2 16 17
M  V30 17 1 17 18
M  V30 18 1 18 19
M  V30 19 2 18 20
M  V30 20 1 20 21
M  V30 21 2 21 22
M  V30 22 1 21 23
M  V30 23 1 9 4
M  V30 24 1 22 16
M  V30 25 1 3 24
M  V30 26 1 5 25
M  V30 27 1 6 26
M  V30 28 1 7 27
M  V30 29 1 9 28
M  V30 30 1 14 29
M  V30 31 1 14 30
M  V30 32 1 19 31
M  V30 33 1 19 32
M  V30 34 1 20 33
M  V30 35 1 23 34
M  V30 36 1 23 35
M  V30 END BOND
M  V30 END CTAB
M  END
