
     RDKit          3D

  0  0  0  0  0  0  0  0  0  0999 V3000
M  V30 BEGIN CTAB
M  V30 COUNTS 50 52 0 0 0
M  V30 BEGIN ATOM
M  V30 1 O -0.688255 1.82139 1.68597 0
M  V30 2 C -1.12579 1.15206 0.688337 0
M  V30 3 C -2.57933 1.10129 0.500298 0
M  V30 4 S -3.24329 -0.585954 0.559408 0
M  V30 5 C -4.99646 -0.48714 0.320518 0
M  V30 6 N -5.80202 -0.343471 1.37627 0
M  V30 7 C -7.14334 -0.261718 1.26369 0
M  V30 8 N -7.98801 -0.109654 2.38716 0
M  V30 9 C -7.71528 -0.326996 0.0261942 0
M  V30 10 C -6.89784 -0.474912 -1.07012 0
M  V30 11 N -5.54647 -0.552308 -0.897656 0
M  V30 12 N -7.45155 -0.546983 -2.37499 0
M  V30 13 C -3.0102 1.75374 -0.796833 0
M  V30 14 N -0.194505 0.510046 -0.161811 0
M  V30 15 C 1.20109 0.611044 0.0931521 0
M  V30 16 C 1.97278 1.17284 -1.09104 0
M  V30 17 C 3.3933 0.712157 -0.740984 0
M  V30 18 N 3.27123 -0.377923 0.164611 0
M  V30 19 C 1.88949 -0.722859 0.28701 0
M  V30 20 C 4.12281 -1.47499 -0.174321 0
M  V30 21 C 5.55944 -1.11728 -0.174681 0
M  V30 22 C 6.25706 -0.834242 -1.31691 0
M  V30 23 C 7.6053 -0.496225 -1.30571 0
M  V30 24 C 8.28353 -0.438158 -0.11274 0
M  V30 25 C 7.58909 -0.722423 1.04971 0
M  V30 26 C 6.248 -1.05809 1.03318 0
M  V30 27 H -3.07424 1.66314 1.31284 0
M  V30 28 H -8.13101 -0.885903 3.05075 0
M  V30 29 H -8.4734 0.795686 2.54994 0
M  V30 30 H -8.80597 -0.260744 -0.068586 0
M  V30 31 H -8.06336 0.216969 -2.77506 0
M  V30 32 H -7.22733 -1.40007 -2.93595 0
M  V30 33 H -3.95623 2.32133 -0.658217 0
M  V30 34 H -2.24476 2.44742 -1.15081 0
M  V30 35 H -3.22212 0.983772 -1.57984 0
M  V30 36 H -0.545057 -0.0327849 -0.970032 0
M  V30 37 H 1.38403 1.22677 0.997384 0
M  V30 38 H 1.88373 2.26229 -1.10146 0
M  V30 39 H 1.62457 0.691183 -2.01624 0
M  V30 40 H 3.88157 0.503014 -1.69264 0
M  V30 41 H 3.84421 1.56665 -0.191279 0
M  V30 42 H 1.69088 -1.07179 1.32011 0
M  V30 43 H 1.55249 -1.46636 -0.461994 0
M  V30 44 H 3.87371 -1.86293 -1.18444 0
M  V30 45 H 3.94384 -2.31373 0.532155 0
M  V30 46 H 5.7421 -0.877243 -2.26085 0
M  V30 47 H 8.13586 -0.27643 -2.22158 0
M  V30 48 H 9.34397 -0.175794 -0.0671357 0
M  V30 49 H 8.13829 -0.673785 1.99871 0
M  V30 50 H 5.69344 -1.28388 1.94904 0
M  V30 END ATOM
M  V30 BEGIN BOND
M  V30 1 2 1 2
M  V30 2 1 2 3
M  V30 3 1 3 4
M  V30 4 1 4 5
M  V30 5 2 5 6
M  V30 6 1 6 7
M  V30 7 1 7 8
M  V30 8 2 7 9
M  V30 9 1 9 10
M  V30 10 2 10 11
M  V30 11 1 10 12
M  V30 12 1 3 13
M  V30 13 1 2 14
M  V30 14 1 14 15
M  V30 15 1 15 16
M  V30 16 1 16 17
M  V30 17 1 17 18
M  V30 18 1 18 19
M  V30 19 1 18 20
M  V30 20 1 20 21
M  V30 21 2 21 22
M  V30 22 1 22 23
M  V30 23 2 23 24
M  V30 24 1 24 25
M  V30 25 2 25 26
M  V30 26 1 11 5
M  V30 27 1 19 15
M  V30 28 1 26 21
M  V30 29 1 3 27
M  V30 30 1 8 28
M  V30 31 1 8 29
M  V30 32 1 9 30
M  V30 33 1 12 31
M  V30 34 1 12 32
M  V30 35 1 13 33
M  V30 36 1 13 34
M  V30 37 1 13 35
M  V30 38 1 14 36
M  V30 39 1 15 37
M  V30 40 1 16 38
M  V30 41 1 16 39
M  V30 42 1 17 40
M  V30 43 1 17 41
M  V30 44 1 19 42
M  V30 45 1 19 43
M  V30 46 1 20 44
M  V30 47 1 20 45
M  V30 48 1 22 46
M  V30 49 1 23 47
M  V30 50 1 24 48
M  V30 51 1 25 49
M  V30 52 1 26 50
M  V30 END BOND
M  V30 END CTAB
M  END
