
     RDKit          3D

  0  0  0  0  0  0  0  0  0  0999 V3000
M  V30 BEGIN CTAB
M  V30 COUNTS 50 51 0 0 0
M  V30 BEGIN ATOM
M  V30 1 C -3.09957 -4.83919 1.16712 0
M  V30 2 O -1.71212 -4.54272 1.08679 0
M  V30 3 C -1.34856 -3.20409 0.929235 0
M  V30 4 C -2.28275 -2.19489 0.853304 0
M  V30 5 C -1.91661 -0.848853 0.695141 0
M  V30 6 C -2.98216 0.175221 0.636006 0
M  V30 7 C -3.71426 0.24618 -0.627582 0
M  V30 8 C -3.22156 0.853981 -1.74948 0
M  V30 9 N -1.93676 1.47539 -1.7001 0
M  V30 10 N -3.94236 0.883813 -2.91532 0
M  V30 11 C -5.15358 0.324531 -3.01164 0
M  V30 12 N -5.9039 0.358445 -4.23573 0
M  V30 13 N -5.6557 -0.277979 -1.91803 0
M  V30 14 C -4.98633 -0.332661 -0.753655 0
M  V30 15 C -0.569989 -0.595741 0.620859 0
M  V30 16 C 0.375543 -1.61957 0.697584 0
M  V30 17 O 1.72985 -1.34702 0.619827 0
M  V30 18 C 2.26673 -0.0412187 0.46199 0
M  V30 19 C 3.75075 -0.173952 0.424851 0
M  V30 20 C 4.48757 1.13902 0.251323 0
M  V30 21 C 4.16954 2.07293 1.38682 0
M  V30 22 C 4.84689 3.40446 1.3213 0
M  V30 23 C 6.32073 3.34657 1.37699 0
M  V30 24 O 7.07596 4.53858 1.24778 0
M  V30 25 O 6.99948 2.32465 1.53135 0
M  V30 26 C 0.00162994 -2.93377 0.852315 0
M  V30 27 Br 1.28504 -4.34727 0.958654 0
M  V30 28 H -3.2002 -5.93209 1.1899 0
M  V30 29 H -3.596 -4.42137 0.250728 0
M  V30 30 H -3.47547 -4.36846 2.09344 0
M  V30 31 H -3.33906 -2.41206 0.91368 0
M  V30 32 H -3.66385 -0.0390207 1.51031 0
M  V30 33 H -2.50612 1.14419 0.901697 0
M  V30 34 H -1.55642 1.98584 -0.896079 0
M  V30 35 H -1.35043 1.39593 -2.55763 0
M  V30 36 H -5.50897 0.662391 -5.12805 0
M  V30 37 H -6.90502 0.0611928 -4.23153 0
M  V30 38 H -5.37505 -0.810041 0.131374 0
M  V30 39 H -0.245511 0.426409 0.510857 0
M  V30 40 H 1.84022 0.487437 -0.406812 0
M  V30 41 H 1.98764 0.49576 1.40205 0
M  V30 42 H 4.1121 -0.860477 -0.361927 0
M  V30 43 H 4.06299 -0.624084 1.41111 0
M  V30 44 H 4.18208 1.58986 -0.719811 0
M  V30 45 H 5.57388 0.963286 0.227841 0
M  V30 46 H 4.43056 1.61882 2.36799 0
M  V30 47 H 3.05769 2.20794 1.36132 0
M  V30 48 H 4.56107 3.93657 0.376402 0
M  V30 49 H 4.48129 3.9925 2.20535 0
M  V30 50 H 7.54907 4.65463 0.348538 0
M  V30 END ATOM
M  V30 BEGIN BOND
M  V30 1 1 1 2
M  V30 2 1 2 3
M  V30 3 2 3 4
M  V30 4 1 4 5
M  V30 5 1 5 6
M  V30 6 1 6 7
M  V30 7 2 7 8
M  V30 8 1 8 9
M  V30 9 1 8 10
M  V30 10 2 10 11
M  V30 11 1 11 12
M  V30 12 1 11 13
M  V30 13 2 13 14
M  V30 14 2 5 15
M  V30 15 1 15 16
M  V30 16 1 16 17
M  V30 17 1 17 18
M  V30 18 1 18 19
M  V30 19 1 19 20
M  V30 20 1 20 21
M  V30 21 1 21 22
M  V30 22 1 22 23
M  V30 23 1 23 24
M  V30 24 2 23 25
M  V30 25 2 16 26
M  V30 26 1 26 27
M  V30 27 1 26 3
M  V30 28 1 14 7
M  V30 29 1 1 28
M  V30 30 1 1 29
M  V30 31 1 1 30
M  V30 32 1 4 31
M  V30 33 1 6 32
M  V30 34 1 6 33
M  V30 35 1 9 34
M  V30 36 1 9 35
M  V30 37 1 12 36
M  V30 38 1 12 37
M  V30 39 1 14 38
M  V30 40 1 15 39
M  V30 41 1 18 40
M  V30 42 1 18 41
M  V30 43 1 19 42
M  V30 44 1 19 43
M  V30 45 1 20 44
M  V30 46 1 20 45
M  V30 47 1 21 46
M  V30 48 1 21 47
M  V30 49 1 22 48
M  V30 50 1 22 49
M  V30 51 1 24 50
M  V30 END BOND
M  V30 END CTAB
M  END
