
     RDKit          3D

  0  0  0  0  0  0  0  0  0  0999 V3000
M  V30 BEGIN CTAB
M  V30 COUNTS 34 35 0 0 0
M  V30 BEGIN ATOM
M  V30 1 Cl 1.25068 -3.66587 0.804737 0
M  V30 2 C -0.173361 -2.6754 0.607002 0
M  V30 3 C -0.0841032 -1.35454 0.374774 0
M  V30 4 C 1.25545 -0.793004 0.29638 0
M  V30 5 C 2.12772 -1.00651 1.38089 0
M  V30 6 C 3.40383 -0.516819 1.30795 0
M  V30 7 C 3.8511 0.176329 0.204628 0
M  V30 8 C 3.00681 0.379487 -0.83721 0
M  V30 9 C 1.69799 -0.10464 -0.801284 0
M  V30 10 N 3.46628 1.09269 -1.97272 0 CHG=1
M  V30 11 O 2.62453 1.70567 -2.64473 0
M  V30 12 O 4.77693 1.13851 -2.36044 0 CHG=-1
M  V30 13 N 5.18331 0.673023 0.159214 0
M  V30 14 C -1.33452 -0.621855 0.318145 0
M  V30 15 C -2.18203 -0.805057 1.42656 0
M  V30 16 C -3.38713 -0.164271 1.41545 0
M  V30 17 C -3.79057 0.640924 0.372849 0
M  V30 18 C -2.97453 0.836204 -0.726662 0
M  V30 19 C -1.74335 0.180189 -0.714153 0
M  V30 20 N -3.37356 1.65919 -1.80372 0 CHG=1
M  V30 21 O -4.57974 1.77219 -2.13178 0
M  V30 22 O -2.46968 2.38313 -2.55481 0 CHG=-1
M  V30 23 N -5.05552 1.29594 0.392467 0
M  V30 24 Cl -1.72164 -3.51279 0.699905 0
M  V30 25 H 1.76172 -1.54438 2.25426 0
M  V30 26 H 4.08377 -0.686581 2.15896 0
M  V30 27 H 1.09995 0.0895589 -1.67506 0
M  V30 28 H 6.01102 0.0442585 0.322418 0
M  V30 29 H 5.3969 1.67872 -0.0371536 0
M  V30 30 H -1.87878 -1.43028 2.2757 0
M  V30 31 H -4.06228 -0.295143 2.27067 0
M  V30 32 H -1.12848 0.337146 -1.58303 0
M  V30 33 H -5.09839 2.33847 0.406221 0
M  V30 34 H -5.96034 0.755505 0.393579 0
M  V30 END ATOM
M  V30 BEGIN BOND
M  V30 1 1 1 2
M  V30 2 2 2 3 CFG=2
M  V30 3 1 3 4
M  V30 4 2 4 5
M  V30 5 1 5 6
M  V30 6 2 6 7
M  V30 7 1 7 8
M  V30 8 2 8 9
M  V30 9 1 8 10
M  V30 10 2 10 11
M  V30 11 1 10 12
M  V30 12 1 7 13
M  V30 13 1 3 14
M  V30 14 2 14 15
M  V30 15 1 15 16
M  V30 16 2 16 17
M  V30 17 1 17 18
M  V30 18 2 18 19
M  V30 19 1 18 20
M  V30 20 2 20 21
M  V30 21 1 20 22
M  V30 22 1 17 23
M  V30 23 1 2 24
M  V30 24 1 9 4
M  V30 25 1 19 14
M  V30 26 1 5 25
M  V30 27 1 6 26
M  V30 28 1 9 27
M  V30 29 1 13 28
M  V30 30 1 13 29
M  V30 31 1 15 30
M  V30 32 1 16 31
M  V30 33 1 19 32
M  V30 34 1 23 33
M  V30 35 1 23 34
M  V30 END BOND
M  V30 END CTAB
M  END
