
     RDKit          3D

  0  0  0  0  0  0  0  0  0  0999 V3000
M  V30 BEGIN CTAB
M  V30 COUNTS 22 23 0 0 0
M  V30 BEGIN ATOM
M  V30 1 N -3.24818 -0.312421 -0.091177 0
M  V30 2 C -1.84179 -0.507538 -0.171228 0
M  V30 3 C -1.02029 0.596135 -0.0766309 0
M  V30 4 N -1.57312 1.89819 0.0971019 0
M  V30 5 C 0.336025 0.398416 -0.154953 0
M  V30 6 C 0.910567 -0.85662 -0.324114 0
M  V30 7 C 2.27191 -1.00002 -0.396333 0
M  V30 8 C 3.09592 0.0874107 -0.303719 0
M  V30 9 C 2.56047 1.33816 -0.13665 0
M  V30 10 C 1.19277 1.46973 -0.0655477 0
M  V30 11 C 0.0388248 -1.92922 -0.41305 0
M  V30 12 Br 0.818099 -3.65868 -0.645645 0
M  V30 13 C -1.32666 -1.78558 -0.34063 0
M  V30 14 H -3.90259 -0.930745 -0.608997 0
M  V30 15 H -3.63379 0.458752 0.492572 0
M  V30 16 H -1.45172 2.46375 0.962888 0
M  V30 17 H -2.12587 2.28947 -0.695872 0
M  V30 18 H 2.6802 -1.98655 -0.527536 0
M  V30 19 H 4.18095 -0.0580325 -0.364908 0
M  V30 20 H 3.18665 2.21319 -0.0606154 0
M  V30 21 H 0.789545 2.46988 0.0670383 0
M  V30 22 H -1.93795 -2.65768 -0.41691 0
M  V30 END ATOM
M  V30 BEGIN BOND
M  V30 1 1 1 2
M  V30 2 2 2 3
M  V30 3 1 3 4
M  V30 4 1 3 5
M  V30 5 2 5 6
M  V30 6 1 6 7
M  V30 7 2 7 8
M  V30 8 1 8 9
M  V30 9 2 9 10
M  V30 10 1 6 11
M  V30 11 1 11 12
M  V30 12 2 11 13
M  V30 13 1 13 2
M  V30 14 1 10 5
M  V30 15 1 1 14
M  V30 16 1 1 15
M  V30 17 1 4 16
M  V30 18 1 4 17
M  V30 19 1 7 18
M  V30 20 1 8 19
M  V30 21 1 9 20
M  V30 22 1 10 21
M  V30 23 1 13 22
M  V30 END BOND
M  V30 END CTAB
M  END
