
     RDKit          3D

  0  0  0  0  0  0  0  0  0  0999 V3000
M  V30 BEGIN CTAB
M  V30 COUNTS 37 39 0 0 0
M  V30 BEGIN ATOM
M  V30 1 N -4.76069 -0.980442 -1.76586 0
M  V30 2 C -4.00758 -0.446262 -0.688324 0
M  V30 3 C -4.60255 -0.111271 0.510942 0
M  V30 4 C -3.85108 0.403376 1.5364 0
M  V30 5 C -2.47768 0.578111 1.33606 0
M  V30 6 C -1.88528 0.243966 0.140347 0
M  V30 7 N -2.66144 -0.25369 -0.82699 0
M  V30 8 C -0.46192 0.425928 -0.064938 0 CFG=1
M  V30 9 C 0.116127 1.60438 0.693602 0
M  V30 10 C 1.44234 1.95743 0.0624604 0
M  V30 11 N 2.18166 0.76102 -0.322998 0
M  V30 12 C 1.74266 -0.512603 0.165386 0
M  V30 13 C 0.368951 -0.744345 0.308364 0
M  V30 14 C -0.0596806 -1.94259 0.759833 0
M  V30 15 C 0.875266 -2.93339 1.07806 0
M  V30 16 C 2.24269 -2.70085 0.935779 0
M  V30 17 C 2.67669 -1.47054 0.472436 0
M  V30 18 S 3.5574 0.883569 -1.33656 0
M  V30 19 O 4.14271 -0.408636 -1.75835 0
M  V30 20 O 3.1607 1.7132 -2.55346 0
M  V30 21 N 4.77218 1.83304 -0.53849 0
M  V30 22 H -4.92488 -1.99795 -1.80117 0
M  V30 23 H -5.13022 -0.352274 -2.49182 0
M  V30 24 H -5.68483 -0.270772 0.609746 0
M  V30 25 H -4.3104 0.669218 2.48181 0
M  V30 26 H -1.86888 0.976249 2.1159 0
M  V30 27 H -0.259649 0.627911 -1.14653 0
M  V30 28 H 0.302687 1.34705 1.75739 0
M  V30 29 H -0.53921 2.49675 0.597786 0
M  V30 30 H 1.26769 2.516 -0.893861 0
M  V30 31 H 2.10378 2.53401 0.741449 0
M  V30 32 H -1.11649 -2.10352 0.863183 0
M  V30 33 H 0.533398 -3.8924 1.43917 0
M  V30 34 H 2.97083 -3.47398 1.18434 0
M  V30 35 H 3.74765 -1.23658 0.351021 0
M  V30 36 H 4.68725 2.83529 -0.73656 0
M  V30 37 H 5.70978 1.42561 -0.618553 0
M  V30 END ATOM
M  V30 BEGIN BOND
M  V30 1 1 1 2
M  V30 2 2 2 3
M  V30 3 1 3 4
M  V30 4 2 4 5
M  V30 5 1 5 6
M  V30 6 2 6 7
M  V30 7 1 6 8
M  V30 8 1 8 9
M  V30 9 1 9 10
M  V30 10 1 10 11
M  V30 11 1 11 12
M  V30 12 2 12 13
M  V30 13 1 13 14
M  V30 14 2 14 15
M  V30 15 1 15 16
M  V30 16 2 16 17
M  V30 17 1 11 18
M  V30 18 2 18 19
M  V30 19 2 18 20
M  V30 20 1 18 21
M  V30 21 1 7 2
M  V30 22 1 13 8
M  V30 23 1 17 12
M  V30 24 1 1 22
M  V30 25 1 1 23
M  V30 26 1 3 24
M  V30 27 1 4 25
M  V30 28 1 5 26
M  V30 29 1 8 27 CFG=3
M  V30 30 1 9 28
M  V30 31 1 9 29
M  V30 32 1 10 30
M  V30 33 1 10 31
M  V30 34 1 14 32
M  V30 35 1 15 33
M  V30 36 1 16 34
M  V30 37 1 17 35
M  V30 38 1 21 36
M  V30 39 1 21 37
M  V30 END BOND
M  V30 END CTAB
M  END
