
     RDKit          3D

  0  0  0  0  0  0  0  0  0  0999 V3000
M  V30 BEGIN CTAB
M  V30 COUNTS 106 109 0 0 0
M  V30 BEGIN ATOM
M  V30 1 C 7.56099 2.63167 0.565928 0 CFG=1
M  V30 2 N 7.55985 3.0353 1.98455 0
M  V30 3 C 8.74364 1.7401 0.346941 0
M  V30 4 C 8.76279 0.483586 1.18172 0
M  V30 5 C 10.064 -0.234106 0.768539 0
M  V30 6 N 11.2263 0.555174 1.06036 0
M  V30 7 C 12.4927 0.118642 0.65278 0
M  V30 8 N 12.8944 -1.21678 0.802271 0
M  V30 9 N 13.3001 0.973794 0.134494 0
M  V30 10 C 6.24462 2.00648 0.2808 0
M  V30 11 O 5.58723 1.67595 1.31049 0
M  V30 12 N 5.8328 1.83003 -1.03469 0
M  V30 13 C 6.64359 2.24871 -2.19834 0
M  V30 14 C 6.75517 0.858273 -2.84884 0
M  V30 15 C 5.42449 0.147917 -2.4505 0
M  V30 16 C 4.71667 1.25215 -1.75344 0 CFG=1
M  V30 17 C 3.48759 1.05139 -1.06757 0
M  V30 18 O 3.18134 1.59794 0.0604284 0
M  V30 19 N 2.447 0.21616 -1.56388 0
M  V30 20 C 2.43239 -0.60596 -2.7544 0
M  V30 21 C 1.02477 -1.14863 -2.92184 0
M  V30 22 C 0.217146 -0.1994 -2.10022 0
M  V30 23 C 1.11824 0.0558173 -0.940087 0 CFG=1
M  V30 24 C 1.07735 -0.971614 0.0955567 0
M  V30 25 O 2.0847 -1.59197 0.471297 0
M  V30 26 N -0.17661 -1.28634 0.706232 0
M  V30 27 C -0.284742 -2.29801 1.71781 0
M  V30 28 C -1.65068 -2.41953 2.23818 0
M  V30 29 O -1.83703 -3.32539 3.11979 0
M  V30 30 N -2.75452 -1.64952 1.8717 0
M  V30 31 C -4.10119 -1.82959 2.44149 0 CFG=1
M  V30 32 C -4.32849 -0.763186 3.50604 0
M  V30 33 C -4.20653 0.614918 2.96418 0
M  V30 34 C -2.97342 1.25161 2.92473 0
M  V30 35 C -2.87363 2.5269 2.42765 0
M  V30 36 C -3.97811 3.1993 1.96158 0
M  V30 37 C -5.21151 2.59371 1.98864 0
M  V30 38 C -5.29449 1.30904 2.49245 0
M  V30 39 C -5.06845 -1.82069 1.35907 0
M  V30 40 O -4.66268 -1.64069 0.155722 0
M  V30 41 N -6.4683 -1.99768 1.49418 0
M  V30 42 C -7.36002 -1.9704 0.332667 0 CFG=1
M  V30 43 C -7.96856 -3.36645 0.168119 0
M  V30 44 O -8.6831 -3.72264 1.31388 0
M  V30 45 C -8.43023 -0.98272 0.5704 0
M  V30 46 O -8.61393 -0.603324 1.76152 0
M  V30 47 N -9.25166 -0.442329 -0.464617 0
M  V30 48 C -10.3302 0.49152 -0.232487 0
M  V30 49 C -11.2976 0.205417 -1.34163 0
M  V30 50 C -10.6308 -0.757255 -2.28026 0
M  V30 51 C -9.17512 -0.668092 -1.88192 0 CFG=1
M  V30 52 C -8.5922 0.514636 -2.60484 0
M  V30 53 O -8.53406 0.467083 -3.96698 0
M  V30 54 O -8.18356 1.49017 -1.9662 0
M  V30 55 H 7.71911 3.56014 -0.00801491 0
M  V30 56 H 6.75016 3.67827 2.15663 0
M  V30 57 H 7.58363 2.22937 2.62608 0
M  V30 58 H 9.63982 2.34283 0.647744 0
M  V30 59 H 8.94222 1.4442 -0.691993 0
M  V30 60 H 8.87904 0.688212 2.26382 0
M  V30 61 H 7.96113 -0.216098 0.94816 0
M  V30 62 H 10.143 -1.22514 1.28935 0
M  V30 63 H 9.9951 -0.46672 -0.315614 0
M  V30 64 H 11.1205 1.4439 1.58396 0
M  V30 65 H 12.2891 -2.05961 0.835823 0
M  V30 66 H 13.9279 -1.40784 0.892003 0
M  V30 67 H 13.0604 1.98832 -0.000237142 0
M  V30 68 H 7.55999 2.73281 -1.9772 0
M  V30 69 H 5.9646 2.89271 -2.8059 0
M  V30 70 H 7.62374 0.30624 -2.49916 0
M  V30 71 H 6.70172 1.0277 -3.93514 0
M  V30 72 H 5.73472 -0.642758 -1.74173 0
M  V30 73 H 4.96135 -0.240311 -3.3702 0
M  V30 74 H 4.52089 2.02855 -2.59605 0
M  V30 75 H 2.64904 -0.0638836 -3.68624 0
M  V30 76 H 3.12849 -1.46839 -2.66573 0
M  V30 77 H 0.672283 -1.14443 -3.96902 0
M  V30 78 H 0.957135 -2.20266 -2.56301 0
M  V30 79 H 0.0350907 0.724251 -2.67062 0
M  V30 80 H -0.725233 -0.713136 -1.82381 0
M  V30 81 H 0.8187 1.04706 -0.500131 0
M  V30 82 H -0.999279 -0.743973 0.374196 0
M  V30 83 H 0.105796 -3.2679 1.31978 0
M  V30 84 H 0.370732 -1.95329 2.56755 0
M  V30 85 H -2.70627 -0.895097 1.17262 0
M  V30 86 H -4.06316 -2.78551 3.00389 0
M  V30 87 H -5.32744 -0.898547 3.96819 0
M  V30 88 H -3.59657 -0.846423 4.32444 0
M  V30 89 H -2.08866 0.765713 3.27424 0
M  V30 90 H -1.91453 3.05045 2.38487 0
M  V30 91 H -3.88193 4.22158 1.56556 0
M  V30 92 H -6.08651 3.1226 1.61997 0
M  V30 93 H -6.29597 0.884015 2.48995 0
M  V30 94 H -6.87447 -2.14915 2.42642 0
M  V30 95 H -6.80974 -1.75465 -0.591548 0
M  V30 96 H -7.13675 -4.07704 0.0538581 0
M  V30 97 H -8.59075 -3.37873 -0.727107 0
M  V30 98 H -8.21179 -4.45068 1.82756 0
M  V30 99 H -9.91745 1.52866 -0.282 0
M  V30 100 H -10.8016 0.317414 0.775687 0
M  V30 101 H -12.2187 -0.227495 -0.889758 0
M  V30 102 H -11.5275 1.16752 -1.87709 0
M  V30 103 H -10.9685 -1.78926 -2.02312 0
M  V30 104 H -10.7687 -0.533413 -3.34898 0
M  V30 105 H -8.6156 -1.58602 -2.17029 0
M  V30 106 H -7.6467 0.364538 -4.46418 0
M  V30 END ATOM
M  V30 BEGIN BOND
M  V30 1 1 1 2
M  V30 2 1 1 3
M  V30 3 1 3 4
M  V30 4 1 4 5
M  V30 5 1 5 6
M  V30 6 1 6 7
M  V30 7 1 7 8
M  V30 8 2 7 9 CFG=2
M  V30 9 1 1 10
M  V30 10 2 10 11
M  V30 11 1 10 12
M  V30 12 1 12 13
M  V30 13 1 13 14
M  V30 14 1 14 15
M  V30 15 1 15 16
M  V30 16 1 16 17
M  V30 17 2 17 18
M  V30 18 1 17 19
M  V30 19 1 19 20
M  V30 20 1 20 21
M  V30 21 1 21 22
M  V30 22 1 22 23
M  V30 23 1 23 24
M  V30 24 2 24 25
M  V30 25 1 24 26
M  V30 26 1 26 27
M  V30 27 1 27 28
M  V30 28 2 28 29
M  V30 29 1 28 30
M  V30 30 1 30 31
M  V30 31 1 31 32
M  V30 32 1 32 33
M  V30 33 2 33 34
M  V30 34 1 34 35
M  V30 35 2 35 36
M  V30 36 1 36 37
M  V30 37 2 37 38
M  V30 38 1 31 39
M  V30 39 2 39 40
M  V30 40 1 39 41
M  V30 41 1 41 42
M  V30 42 1 42 43
M  V30 43 1 43 44
M  V30 44 1 42 45
M  V30 45 2 45 46
M  V30 46 1 45 47
M  V30 47 1 47 48
M  V30 48 1 48 49
M  V30 49 1 49 50
M  V30 50 1 50 51
M  V30 51 1 51 52
M  V30 52 1 52 53
M  V30 53 2 52 54
M  V30 54 1 16 12
M  V30 55 1 23 19
M  V30 56 1 38 33
M  V30 57 1 51 47
M  V30 58 1 1 55 CFG=3
M  V30 59 1 2 56
M  V30 60 1 2 57
M  V30 61 1 3 58
M  V30 62 1 3 59
M  V30 63 1 4 60
M  V30 64 1 4 61
M  V30 65 1 5 62
M  V30 66 1 5 63
M  V30 67 1 6 64
M  V30 68 1 8 65
M  V30 69 1 8 66
M  V30 70 1 9 67
M  V30 71 1 13 68
M  V30 72 1 13 69
M  V30 73 1 14 70
M  V30 74 1 14 71
M  V30 75 1 15 72
M  V30 76 1 15 73
M  V30 77 1 16 74 CFG=3
M  V30 78 1 20 75
M  V30 79 1 20 76
M  V30 80 1 21 77
M  V30 81 1 21 78
M  V30 82 1 22 79
M  V30 83 1 22 80
M  V30 84 1 23 81 CFG=1
M  V30 85 1 26 82
M  V30 86 1 27 83
M  V30 87 1 27 84
M  V30 88 1 30 85
M  V30 89 1 31 86 CFG=1
M  V30 90 1 32 87
M  V30 91 1 32 88
M  V30 92 1 34 89
M  V30 93 1 35 90
M  V30 94 1 36 91
M  V30 95 1 37 92
M  V30 96 1 38 93
M  V30 97 1 41 94
M  V30 98 1 42 95 CFG=3
M  V30 99 1 43 96
M  V30 100 1 43 97
M  V30 101 1 44 98
M  V30 102 1 48 99
M  V30 103 1 48 100
M  V30 104 1 49 101
M  V30 105 1 49 102
M  V30 106 1 50 103
M  V30 107 1 50 104
M  V30 108 1 51 105 CFG=1
M  V30 109 1 53 106
M  V30 END BOND
M  V30 END CTAB
M  END
