
     RDKit          3D

  0  0  0  0  0  0  0  0  0  0999 V3000
M  V30 BEGIN CTAB
M  V30 COUNTS 22 22 0 0 0
M  V30 BEGIN ATOM
M  V30 1 C 2.83811 0.582168 1.02905 0
M  V30 2 C 2.68255 0.13892 -0.39301 0
M  V30 3 O 1.58232 -0.706156 -0.599386 0
M  V30 4 C 0.279916 -0.386073 -0.355178 0
M  V30 5 C -0.751943 -1.26816 -0.581846 0
M  V30 6 N -0.529542 -2.57738 -1.08768 0
M  V30 7 O 0.223364 -2.67139 -2.09665 0
M  V30 8 C -2.05617 -0.898093 -0.318969 0
M  V30 9 N -3.1603 -1.75653 -0.529905 0
M  V30 10 N -2.30733 0.336829 0.162157 0
M  V30 11 C -1.30749 1.19534 0.383196 0
M  V30 12 N -1.64633 2.48015 0.891249 0
M  V30 13 N -0.0371557 0.827299 0.12434 0
M  V30 14 H 2.62175 -0.250328 1.73949 0
M  V30 15 H 2.26304 1.49467 1.27116 0
M  V30 16 H 3.91732 0.848553 1.20362 0
M  V30 17 H 2.4829 1.06588 -1.00702 0
M  V30 18 H 3.62859 -0.260653 -0.751059 0
M  V30 19 H -3.27903 -2.30544 -1.4068 0
M  V30 20 H -3.86925 -1.82762 0.23283 0
M  V30 21 H -1.46525 2.7967 1.85525 0
M  V30 22 H -2.11007 3.14131 0.235176 0
M  V30 END ATOM
M  V30 BEGIN BOND
M  V30 1 1 1 2
M  V30 2 1 2 3
M  V30 3 1 3 4
M  V30 4 2 4 5
M  V30 5 1 5 6
M  V30 6 2 6 7
M  V30 7 1 5 8
M  V30 8 1 8 9
M  V30 9 2 8 10
M  V30 10 1 10 11
M  V30 11 1 11 12
M  V30 12 2 11 13
M  V30 13 1 13 4
M  V30 14 1 1 14
M  V30 15 1 1 15
M  V30 16 1 1 16
M  V30 17 1 2 17
M  V30 18 1 2 18
M  V30 19 1 9 19
M  V30 20 1 9 20
M  V30 21 1 12 21
M  V30 22 1 12 22
M  V30 END BOND
M  V30 END CTAB
M  END
