
     RDKit          3D

  0  0  0  0  0  0  0  0  0  0999 V3000
M  V30 BEGIN CTAB
M  V30 COUNTS 40 41 0 0 0
M  V30 BEGIN ATOM
M  V30 1 N -1.84061 4.0265 2.15145 0
M  V30 2 C -0.938186 3.61635 1.15464 0
M  V30 3 S 0.239892 4.65385 0.753738 0
M  V30 4 C -1.07735 2.26564 0.498446 0
M  V30 5 N -0.202769 2.04222 -0.368516 0
M  V30 6 N 0.118043 1.05539 -1.20366 0
M  V30 7 C 1.27534 0.235335 -0.993262 0
M  V30 8 C 2.06324 0.487486 0.103554 0
M  V30 9 C 3.20072 -0.258632 0.380815 0
M  V30 10 C 3.55775 -1.28582 -0.465202 0
M  V30 11 C 2.78343 -1.5581 -1.57191 0
M  V30 12 C 1.65175 -0.794728 -1.82298 0
M  V30 13 S 4.99268 -2.23207 -0.121321 0
M  V30 14 O 5.20447 -2.2241 1.3587 0
M  V30 15 O 4.73721 -3.62246 -0.610847 0
M  V30 16 N 6.33339 -1.49734 -0.890157 0
M  V30 17 C -2.14892 1.42735 0.906597 0
M  V30 18 O -2.88187 1.98448 1.88036 0
M  V30 19 N -2.63047 0.17436 0.551711 0
M  V30 20 C -2.31471 -0.837968 -0.384854 0
M  V30 21 C -3.41332 -1.90294 -0.353409 0
M  V30 22 C -4.56138 -1.04017 0.191176 0
M  V30 23 C -3.81873 -0.380805 1.33109 0
M  V30 24 H -1.6005 3.91974 3.17097 0
M  V30 25 H -2.78173 4.45186 1.90742 0
M  V30 26 H -0.444573 0.847354 -2.06783 0
M  V30 27 H 1.80732 1.27732 0.77297 0
M  V30 28 H 3.79236 -0.0395948 1.23935 0
M  V30 29 H 3.06651 -2.35108 -2.21744 0
M  V30 30 H 1.0233 -0.984609 -2.6846 0
M  V30 31 H 6.11138 -0.566566 -1.30674 0
M  V30 32 H 7.19382 -1.48207 -0.303605 0
M  V30 33 H -1.31774 -1.33991 -0.225324 0
M  V30 34 H -2.33031 -0.472735 -1.45099 0
M  V30 35 H -3.15786 -2.61646 0.424313 0
M  V30 36 H -3.6339 -2.31126 -1.34254 0
M  V30 37 H -4.85381 -0.257555 -0.52872 0
M  V30 38 H -5.39384 -1.66535 0.543234 0
M  V30 39 H -4.37105 0.42741 1.79778 0
M  V30 40 H -3.43896 -1.17031 1.99452 0
M  V30 END ATOM
M  V30 BEGIN BOND
M  V30 1 1 1 2
M  V30 2 2 2 3
M  V30 3 1 2 4
M  V30 4 2 4 5
M  V30 5 1 5 6
M  V30 6 1 6 7
M  V30 7 2 7 8
M  V30 8 1 8 9
M  V30 9 2 9 10
M  V30 10 1 10 11
M  V30 11 2 11 12
M  V30 12 1 10 13
M  V30 13 2 13 14
M  V30 14 2 13 15
M  V30 15 1 13 16
M  V30 16 1 4 17
M  V30 17 2 17 18
M  V30 18 1 17 19
M  V30 19 1 19 20
M  V30 20 1 20 21
M  V30 21 1 21 22
M  V30 22 1 22 23
M  V30 23 1 12 7
M  V30 24 1 23 19
M  V30 25 1 1 24
M  V30 26 1 1 25
M  V30 27 1 6 26
M  V30 28 1 8 27
M  V30 29 1 9 28
M  V30 30 1 11 29
M  V30 31 1 12 30
M  V30 32 1 16 31
M  V30 33 1 16 32
M  V30 34 1 20 33
M  V30 35 1 20 34
M  V30 36 1 21 35
M  V30 37 1 21 36
M  V30 38 1 22 37
M  V30 39 1 22 38
M  V30 40 1 23 39
M  V30 41 1 23 40
M  V30 END BOND
M  V30 END CTAB
M  END
