
     RDKit          3D

  0  0  0  0  0  0  0  0  0  0999 V3000
M  V30 BEGIN CTAB
M  V30 COUNTS 22 22 0 0 0
M  V30 BEGIN ATOM
M  V30 1 C -2.2409 -1.31064 -0.445267 0
M  V30 2 C -0.944494 -0.634526 -0.193344 0
M  V30 3 C 0.220897 -1.36735 -0.0959019 0
M  V30 4 C 1.44088 -0.75806 0.138557 0
M  V30 5 N 2.63791 -1.50833 0.238875 0
M  V30 6 C 1.4177 0.61667 0.267507 0
M  V30 7 C 0.224103 1.30415 0.161635 0
M  V30 8 O 0.228328 2.57428 0.284471 0
M  V30 9 N -0.957184 0.7029 -0.0664772 0
M  V30 10 C -2.19163 1.47691 -0.169914 0
M  V30 11 N 2.66077 1.27563 0.51008 0
M  V30 12 H -2.83106 -0.807906 -1.2388 0
M  V30 13 H -2.83295 -1.43921 0.495366 0
M  V30 14 H -2.03549 -2.33418 -0.817576 0
M  V30 15 H 0.228045 -2.44071 -0.198149 0
M  V30 16 H 2.73557 -2.21592 0.970603 0
M  V30 17 H 3.41317 -1.34062 -0.427806 0
M  V30 18 H -2.33375 1.75608 -1.23976 0
M  V30 19 H -2.01732 2.41771 0.393025 0
M  V30 20 H -3.04833 0.965898 0.274608 0
M  V30 21 H 2.91852 2.06327 -0.121475 0
M  V30 22 H 3.30723 1.00395 1.27974 0
M  V30 END ATOM
M  V30 BEGIN BOND
M  V30 1 1 1 2
M  V30 2 2 2 3
M  V30 3 1 3 4
M  V30 4 1 4 5
M  V30 5 2 4 6
M  V30 6 1 6 7
M  V30 7 2 7 8
M  V30 8 1 7 9
M  V30 9 1 9 10
M  V30 10 1 6 11
M  V30 11 1 9 2
M  V30 12 1 1 12
M  V30 13 1 1 13
M  V30 14 1 1 14
M  V30 15 1 3 15
M  V30 16 1 5 16
M  V30 17 1 5 17
M  V30 18 1 10 18
M  V30 19 1 10 19
M  V30 20 1 10 20
M  V30 21 1 11 21
M  V30 22 1 11 22
M  V30 END BOND
M  V30 END CTAB
M  END
