
     RDKit          3D

  0  0  0  0  0  0  0  0  0  0999 V3000
M  V30 BEGIN CTAB
M  V30 COUNTS 18 18 0 0 0
M  V30 BEGIN ATOM
M  V30 1 N 3.5175 1.01052 1.61847 0
M  V30 2 C 3.36569 0.180628 0.830396 0
M  V30 3 C 3.18631 -0.886954 -0.157109 0
M  V30 4 S 2.02268 -0.377355 -1.41992 0
M  V30 5 C 0.371571 -0.158713 -0.80592 0
M  V30 6 N -0.558493 -1.13044 -0.760419 0
M  V30 7 C -1.79834 -0.87994 -0.276291 0
M  V30 8 N -2.80468 -1.87057 -0.21138 0
M  V30 9 N -2.11998 0.349981 0.16834 0
M  V30 10 C -1.19541 1.32986 0.126997 0
M  V30 11 N 0.0313534 1.06715 -0.356014 0
M  V30 12 N -1.49958 2.62729 0.585496 0
M  V30 13 H 4.16062 -1.09091 -0.683018 0
M  V30 14 H 2.88953 -1.8299 0.347052 0
M  V30 15 H -3.73185 -1.80209 -0.685136 0
M  V30 16 H -2.61947 -2.73265 0.345364 0
M  V30 17 H -1.45934 3.41705 -0.0749383 0
M  V30 18 H -1.75814 2.77705 1.57007 0
M  V30 END ATOM
M  V30 BEGIN BOND
M  V30 1 3 1 2
M  V30 2 1 2 3
M  V30 3 1 3 4
M  V30 4 1 4 5
M  V30 5 2 5 6
M  V30 6 1 6 7
M  V30 7 1 7 8
M  V30 8 2 7 9
M  V30 9 1 9 10
M  V30 10 2 10 11
M  V30 11 1 10 12
M  V30 12 1 11 5
M  V30 13 1 3 13
M  V30 14 1 3 14
M  V30 15 1 8 15
M  V30 16 1 8 16
M  V30 17 1 12 17
M  V30 18 1 12 18
M  V30 END BOND
M  V30 END CTAB
M  END
