
     RDKit          3D

  0  0  0  0  0  0  0  0  0  0999 V3000
M  V30 BEGIN CTAB
M  V30 COUNTS 25 25 0 0 0
M  V30 BEGIN ATOM
M  V30 1 N -2.6697 1.5823 -0.355426 0
M  V30 2 C -2.3456 0.230813 -0.706221 0
M  V30 3 C -2.22531 -0.690882 0.464357 0
M  V30 4 C -1.19888 -0.27792 1.46851 0
M  V30 5 C 0.163781 -0.20599 0.873243 0
M  V30 6 N 0.734388 0.866372 0.296137 0
M  V30 7 N 1.94995 0.540816 -0.112288 0
M  V30 8 C 2.17995 -0.744388 0.195319 0
M  V30 9 N 1.07735 -1.19806 0.801381 0
M  V30 10 N 3.36403 -1.4739 -0.072803 0
M  V30 11 C 2.87393 1.45755 -0.788943 0
M  V30 12 O -1.90834 -1.96291 -0.0319635 0
M  V30 13 H -2.10253 1.9918 0.395479 0
M  V30 14 H -3.67579 1.78759 -0.315052 0
M  V30 15 H -1.41526 0.156496 -1.34251 0
M  V30 16 H -3.16333 -0.151741 -1.35233 0
M  V30 17 H -3.19656 -0.789517 0.973845 0
M  V30 18 H -1.20388 -1.03085 2.28386 0
M  V30 19 H -1.48766 0.685696 1.93693 0
M  V30 20 H 3.5596 -2.39086 0.386371 0
M  V30 21 H 4.08025 -1.11717 -0.739429 0
M  V30 22 H 2.40415 1.8764 -1.71145 0
M  V30 23 H 3.77046 0.908776 -1.09998 0
M  V30 24 H 3.20174 2.26096 -0.101723 0
M  V30 25 H -2.76675 -2.3114 -0.425804 0
M  V30 END ATOM
M  V30 BEGIN BOND
M  V30 1 1 1 2
M  V30 2 1 2 3
M  V30 3 1 3 4
M  V30 4 1 4 5
M  V30 5 2 5 6
M  V30 6 1 6 7
M  V30 7 1 7 8
M  V30 8 2 8 9
M  V30 9 1 8 10
M  V30 10 1 7 11
M  V30 11 1 3 12
M  V30 12 1 9 5
M  V30 13 1 1 13
M  V30 14 1 1 14
M  V30 15 1 2 15
M  V30 16 1 2 16
M  V30 17 1 3 17
M  V30 18 1 4 18
M  V30 19 1 4 19
M  V30 20 1 10 20
M  V30 21 1 10 21
M  V30 22 1 11 22
M  V30 23 1 11 23
M  V30 24 1 11 24
M  V30 25 1 12 25
M  V30 END BOND
M  V30 END CTAB
M  END
