
     RDKit          3D

  0  0  0  0  0  0  0  0  0  0999 V3000
M  V30 BEGIN CTAB
M  V30 COUNTS 22 23 0 0 0
M  V30 BEGIN ATOM
M  V30 1 N -4.12868 -0.918777 0.773891 0
M  V30 2 C -2.80007 -0.542823 0.477071 0
M  V30 3 N -1.73625 -1.19309 0.981763 0
M  V30 4 C -0.456117 -0.874893 0.730147 0
M  V30 5 C -0.194932 0.184641 -0.0973427 0
M  V30 6 C 1.11057 0.514273 -0.357945 0
M  V30 7 C 2.14128 -0.230999 0.220972 0
M  V30 8 C 3.55865 0.149564 -0.0796773 0
M  V30 9 Br 4.16699 -0.816934 -1.65856 0
M  V30 10 C 1.85842 -1.29326 1.05065 0
M  V30 11 N 0.569801 -1.58784 1.28385 0
M  V30 12 C -1.27139 0.86446 -0.625063 0
M  V30 13 N -1.02783 1.96771 -1.48664 0
M  V30 14 N -2.54093 0.514862 -0.348969 0
M  V30 15 H -4.769 -1.15949 0.00685022 0
M  V30 16 H -4.43807 -0.946791 1.7534 0
M  V30 17 H 1.32254 1.35952 -1.01808 0
M  V30 18 H 3.6189 1.25058 -0.245711 0
M  V30 19 H 4.14819 -0.128447 0.817043 0
M  V30 20 H 2.68874 -1.83925 1.47457 0
M  V30 21 H -0.269116 1.85953 -2.1939 0
M  V30 22 H -1.5517 2.86745 -1.45833 0
M  V30 END ATOM
M  V30 BEGIN BOND
M  V30 1 1 1 2
M  V30 2 2 2 3
M  V30 3 1 3 4
M  V30 4 2 4 5
M  V30 5 1 5 6
M  V30 6 2 6 7
M  V30 7 1 7 8
M  V30 8 1 8 9
M  V30 9 1 7 10
M  V30 10 2 10 11
M  V30 11 1 5 12
M  V30 12 1 12 13
M  V30 13 2 12 14
M  V30 14 1 14 2
M  V30 15 1 11 4
M  V30 16 1 1 15
M  V30 17 1 1 16
M  V30 18 1 6 17
M  V30 19 1 8 18
M  V30 20 1 8 19
M  V30 21 1 10 20
M  V30 22 1 13 21
M  V30 23 1 13 22
M  V30 END BOND
M  V30 END CTAB
M  END
