
     RDKit          3D

  0  0  0  0  0  0  0  0  0  0999 V3000
M  V30 BEGIN CTAB
M  V30 COUNTS 45 46 0 0 0
M  V30 BEGIN ATOM
M  V30 1 N 7.37353 -1.03201 2.18723 0
M  V30 2 C 6.74415 -1.20667 0.893413 0
M  V30 3 C 5.29863 -0.698523 0.977308 0
M  V30 4 C 4.7083 -0.912841 -0.405389 0
M  V30 5 C 3.30771 -0.46436 -0.471675 0
M  V30 6 O 2.76615 0.0180716 0.540818 0
M  V30 7 N 2.58184 -0.578707 -1.67102 0
M  V30 8 C 1.19786 -0.160763 -1.82949 0
M  V30 9 C 0.9714 1.29564 -1.57873 0
M  V30 10 C -0.456688 1.64089 -1.75135 0
M  V30 11 C -1.37941 1.00875 -0.785668 0
M  V30 12 N -2.7269 1.09258 -0.923741 0
M  V30 13 N -3.3447 0.488065 0.0689812 0
M  V30 14 C -2.41316 5.60778e-05 0.871236 0
M  V30 15 C -1.15025 0.303483 0.373946 0
M  V30 16 N -2.66453 -0.725161 2.06209 0
M  V30 17 C -4.77147 0.416761 0.185253 0
M  V30 18 C -5.44855 -0.56916 -0.500526 0
M  V30 19 C -6.80782 -0.627419 -0.382212 0
M  V30 20 C -7.55968 0.240573 0.383829 0
M  V30 21 C -6.84922 1.2231 1.06295 0
M  V30 22 C -5.47752 1.3124 0.967292 0
M  V30 23 H 6.67745 -0.725534 2.90319 0
M  V30 24 H 8.10188 -0.261192 2.14317 0
M  V30 25 H 7.23116 -0.536571 0.133093 0
M  V30 26 H 6.75634 -2.2587 0.556303 0
M  V30 27 H 5.26774 0.372117 1.17784 0
M  V30 28 H 4.74582 -1.30365 1.70623 0
M  V30 29 H 5.28045 -0.340693 -1.16613 0
M  V30 30 H 4.81654 -1.99075 -0.656293 0
M  V30 31 H 3.08011 -0.996559 -2.50781 0
M  V30 32 H 0.916847 -0.317114 -2.91188 0
M  V30 33 H 0.590518 -0.801297 -1.21127 0
M  V30 34 H 1.54121 1.83735 -2.39434 0
M  V30 35 H 1.39039 1.66136 -0.615165 0
M  V30 36 H -0.799849 1.34334 -2.78442 0
M  V30 37 H -0.551587 2.76634 -1.67887 0
M  V30 38 H -0.191614 0.0584134 0.795541 0
M  V30 39 H -2.87487 -1.74738 1.96466 0
M  V30 40 H -2.65779 -0.331834 3.01468 0
M  V30 41 H -4.86117 -1.25144 -1.10223 0
M  V30 42 H -7.32294 -1.4073 -0.92714 0
M  V30 43 H -8.63922 0.158991 0.450313 0
M  V30 44 H -7.42418 1.9121 1.66838 0
M  V30 45 H -4.9729 2.09526 1.5158 0
M  V30 END ATOM
M  V30 BEGIN BOND
M  V30 1 1 1 2
M  V30 2 1 2 3
M  V30 3 1 3 4
M  V30 4 1 4 5
M  V30 5 2 5 6
M  V30 6 1 5 7
M  V30 7 1 7 8
M  V30 8 1 8 9
M  V30 9 1 9 10
M  V30 10 1 10 11
M  V30 11 2 11 12
M  V30 12 1 12 13
M  V30 13 1 13 14
M  V30 14 2 14 15
M  V30 15 1 14 16
M  V30 16 1 13 17
M  V30 17 2 17 18
M  V30 18 1 18 19
M  V30 19 2 19 20
M  V30 20 1 20 21
M  V30 21 2 21 22
M  V30 22 1 15 11
M  V30 23 1 22 17
M  V30 24 1 1 23
M  V30 25 1 1 24
M  V30 26 1 2 25
M  V30 27 1 2 26
M  V30 28 1 3 27
M  V30 29 1 3 28
M  V30 30 1 4 29
M  V30 31 1 4 30
M  V30 32 1 7 31
M  V30 33 1 8 32
M  V30 34 1 8 33
M  V30 35 1 9 34
M  V30 36 1 9 35
M  V30 37 1 10 36
M  V30 38 1 10 37
M  V30 39 1 15 38
M  V30 40 1 16 39
M  V30 41 1 16 40
M  V30 42 1 18 41
M  V30 43 1 19 42
M  V30 44 1 20 43
M  V30 45 1 21 44
M  V30 46 1 22 45
M  V30 END BOND
M  V30 END CTAB
M  END
