
     RDKit          3D

  0  0  0  0  0  0  0  0  0  0999 V3000
M  V30 BEGIN CTAB
M  V30 COUNTS 36 38 0 0 0
M  V30 BEGIN ATOM
M  V30 1 N 7.74201 -0.0830373 -1.72884 0
M  V30 2 C 6.74252 -0.0457985 -1.16275 0
M  V30 3 C 5.47215 0.0512117 -0.4554 0
M  V30 4 C 4.32334 -0.24827 -1.17365 0
M  V30 5 C 3.06321 -0.152141 -0.541212 0
M  V30 6 C 3.10773 0.235454 0.761841 0
M  V30 7 N 4.26067 0.52394 1.45504 0
M  V30 8 C 5.46751 0.441395 0.869928 0
M  V30 9 N 6.71541 0.716859 1.47807 0
M  V30 10 S 1.47093 0.259598 1.22999 0
M  V30 11 C 0.778315 -0.236233 -0.260742 0
M  V30 12 C 1.85016 -0.40596 -1.08023 0
M  V30 13 N 1.60398 -0.839176 -2.45453 0
M  V30 14 C -0.679719 -0.438232 -0.503392 0
M  V30 15 O -1.04517 -0.865127 -1.65598 0
M  V30 16 N -1.60718 -0.177776 0.446147 0
M  V30 17 C -2.99483 -0.277205 0.389546 0
M  V30 18 C -3.59638 -1.43498 0.835507 0
M  V30 19 C -4.97486 -1.57721 0.833374 0
M  V30 20 C -5.73061 -0.513758 0.363165 0
M  V30 21 C -5.14076 0.630679 -0.0760567 0
M  V30 22 C -3.79192 0.794749 -0.0875061 0
M  V30 23 C -6.03714 1.71953 -0.591571 0
M  V30 24 F -6.60294 1.41968 -1.78536 0
M  V30 25 F -5.34936 2.8947 -0.586122 0
M  V30 26 F -7.10994 1.92296 0.286245 0
M  V30 27 H 4.37918 -0.5213 -2.21453 0
M  V30 28 H 6.71983 0.875209 2.54515 0
M  V30 29 H 7.6278 0.781138 1.0228 0
M  V30 30 H 1.69008 -1.82837 -2.70423 0
M  V30 31 H 1.36458 -0.107061 -3.1307 0
M  V30 32 H -1.21884 0.192771 1.38796 0
M  V30 33 H -3.01481 -2.27422 1.23549 0
M  V30 34 H -5.39737 -2.46563 1.2112 0
M  V30 35 H -6.79342 -0.614127 0.325987 0
M  V30 36 H -3.29417 1.64574 -0.460903 0
M  V30 END ATOM
M  V30 BEGIN BOND
M  V30 1 3 1 2
M  V30 2 1 2 3
M  V30 3 2 3 4
M  V30 4 1 4 5
M  V30 5 2 5 6
M  V30 6 1 6 7
M  V30 7 2 7 8
M  V30 8 1 8 9
M  V30 9 1 6 10
M  V30 10 1 10 11
M  V30 11 2 11 12
M  V30 12 1 12 13
M  V30 13 1 11 14
M  V30 14 2 14 15
M  V30 15 1 14 16
M  V30 16 1 16 17
M  V30 17 2 17 18
M  V30 18 1 18 19
M  V30 19 2 19 20
M  V30 20 1 20 21
M  V30 21 2 21 22
M  V30 22 1 21 23
M  V30 23 1 23 24
M  V30 24 1 23 25
M  V30 25 1 23 26
M  V30 26 1 8 3
M  V30 27 1 22 17
M  V30 28 1 12 5
M  V30 29 1 4 27
M  V30 30 1 9 28
M  V30 31 1 9 29
M  V30 32 1 13 30
M  V30 33 1 13 31
M  V30 34 1 16 32
M  V30 35 1 18 33
M  V30 36 1 19 34
M  V30 37 1 20 35
M  V30 38 1 22 36
M  V30 END BOND
M  V30 END CTAB
M  END
