
     RDKit          3D

  0  0  0  0  0  0  0  0  0  0999 V3000
M  V30 BEGIN CTAB
M  V30 COUNTS 25 25 0 0 0
M  V30 BEGIN ATOM
M  V30 1 Cl 4.28431 2.53177 -0.169152 0
M  V30 2 C 3.24434 1.12357 0.232695 0
M  V30 3 C 3.19917 0.151777 -0.635336 0
M  V30 4 C 2.45012 -1.10711 -0.594043 0
M  V30 5 N 1.57306 -1.26425 0.492371 0
M  V30 6 C 0.211702 -0.783508 0.503447 0
M  V30 7 C -0.652828 -0.983931 1.55306 0
M  V30 8 C -1.96418 -0.522716 1.52436 0
M  V30 9 C -2.44629 0.159154 0.428697 0
M  V30 10 C -1.58391 0.363187 -0.626995 0
M  V30 11 C -0.267479 -0.102169 -0.59319 0
M  V30 12 N -2.05509 1.05556 -1.75265 0
M  V30 13 N -3.79632 0.631466 0.404359 0
M  V30 14 Cl 2.46014 1.21814 1.77957 0
M  V30 15 H 3.8454 0.325589 -1.55753 0
M  V30 16 H 3.2487 -1.92293 -0.500258 0
M  V30 17 H 1.9386 -1.26693 -1.59546 0
M  V30 18 H 1.88236 -1.74975 1.36252 0
M  V30 19 H -0.290596 -1.51063 2.40674 0
M  V30 20 H -2.61144 -0.700294 2.3685 0
M  V30 21 H 0.37971 0.0797805 -1.44655 0
M  V30 22 H -2.99674 1.46015 -1.8088 0
M  V30 23 H -1.43859 1.17957 -2.5871 0
M  V30 24 H -4.14399 1.2778 1.1549 0
M  V30 25 H -4.47016 0.3567 -0.344143 0
M  V30 END ATOM
M  V30 BEGIN BOND
M  V30 1 1 1 2
M  V30 2 2 2 3 CFG=2
M  V30 3 1 3 4
M  V30 4 1 4 5
M  V30 5 1 5 6
M  V30 6 2 6 7
M  V30 7 1 7 8
M  V30 8 2 8 9
M  V30 9 1 9 10
M  V30 10 2 10 11
M  V30 11 1 10 12
M  V30 12 1 9 13
M  V30 13 1 2 14
M  V30 14 1 11 6
M  V30 15 1 3 15
M  V30 16 1 4 16
M  V30 17 1 4 17
M  V30 18 1 5 18
M  V30 19 1 7 19
M  V30 20 1 8 20
M  V30 21 1 11 21
M  V30 22 1 12 22
M  V30 23 1 12 23
M  V30 24 1 13 24
M  V30 25 1 13 25
M  V30 END BOND
M  V30 END CTAB
M  END
