
     RDKit          3D

  0  0  0  0  0  0  0  0  0  0999 V3000
M  V30 BEGIN CTAB
M  V30 COUNTS 25 26 0 0 0
M  V30 BEGIN ATOM
M  V30 1 N -2.6565 -2.29088 0.866045 0
M  V30 2 C -1.30421 -1.82859 0.59339 0
M  V30 3 C -1.39901 -0.360776 0.375855 0
M  V30 4 S -2.82185 0.627999 0.423761 0
M  V30 5 C -2.09472 2.13187 0.0603344 0
M  V30 6 N -0.836673 1.80609 -0.0741368 0
M  V30 7 C -0.437815 0.568193 0.0748036 0
M  V30 8 C 0.992516 0.200529 -0.114959 0
M  V30 9 C 1.6678 -0.50531 0.826165 0
M  V30 10 C 3.00607 -0.827188 0.54748 0
M  V30 11 C 3.59748 -0.442968 -0.621678 0
M  V30 12 C 2.92038 0.26823 -1.57024 0
M  V30 13 C 1.58801 0.585941 -1.28848 0
M  V30 14 N -2.73407 3.4277 -0.0620363 0
M  V30 15 H -3.22138 -2.37403 -0.00689153 0
M  V30 16 H -2.66801 -3.15619 1.44211 0
M  V30 17 H -0.997644 -2.33488 -0.355709 0
M  V30 18 H -0.605166 -2.09897 1.38158 0
M  V30 19 H 1.24312 -0.811401 1.76585 0
M  V30 20 H 3.56647 -1.37941 1.26021 0
M  V30 21 H 4.63352 -0.707378 -0.80725 0
M  V30 22 H 3.3991 0.567936 -2.49261 0
M  V30 23 H 1.05562 1.15118 -2.04669 0
M  V30 24 H -2.42143 4.15144 0.582295 0
M  V30 25 H -3.47163 3.63087 -0.75921 0
M  V30 END ATOM
M  V30 BEGIN BOND
M  V30 1 1 1 2
M  V30 2 1 2 3
M  V30 3 1 3 4
M  V30 4 1 4 5
M  V30 5 2 5 6
M  V30 6 1 6 7
M  V30 7 1 7 8
M  V30 8 2 8 9
M  V30 9 1 9 10
M  V30 10 2 10 11
M  V30 11 1 11 12
M  V30 12 2 12 13
M  V30 13 1 5 14
M  V30 14 2 7 3
M  V30 15 1 13 8
M  V30 16 1 1 15
M  V30 17 1 1 16
M  V30 18 1 2 17
M  V30 19 1 2 18
M  V30 20 1 9 19
M  V30 21 1 10 20
M  V30 22 1 11 21
M  V30 23 1 12 22
M  V30 24 1 13 23
M  V30 25 1 14 24
M  V30 26 1 14 25
M  V30 END BOND
M  V30 END CTAB
M  END
