
     RDKit          3D

  0  0  0  0  0  0  0  0  0  0999 V3000
M  V30 BEGIN CTAB
M  V30 COUNTS 43 46 0 0 0
M  V30 BEGIN ATOM
M  V30 1 N -5.92397 1.92857 0.484427 0
M  V30 2 C -4.75579 1.84871 0.433549 0
M  V30 3 C -3.32688 1.74882 0.384414 0
M  V30 4 C -2.60155 2.83882 0.776886 0
M  V30 5 N -3.26905 4.0079 1.21824 0
M  V30 6 N -1.27817 2.72845 0.717611 0
M  V30 7 C -0.616971 1.59277 0.291794 0
M  V30 8 C -1.32834 0.46879 -0.0949072 0
M  V30 9 C -2.69412 0.568048 -0.0524497 0
M  V30 10 N -3.5881 -0.393531 -0.532534 0
M  V30 11 C -0.577146 -0.795058 -0.247794 0
M  V30 12 C -1.24563 -2.0861 -0.0939313 0
M  V30 13 C -1.89414 -2.18323 1.34428 0
M  V30 14 C -0.478118 -3.37072 -0.0964305 0
M  V30 15 C 0.810136 -0.60121 -0.669939 0
M  V30 16 C 1.44789 0.55309 -0.268645 0
M  V30 17 O 0.772383 1.67369 0.232411 0
M  V30 18 C 2.85671 0.690482 -0.39335 0
M  V30 19 C 3.43744 1.87067 0.0436633 0
M  V30 20 C 4.81544 2.03412 -0.0633655 0
M  V30 21 C 5.59035 1.03338 -0.597563 0
M  V30 22 C 4.98037 -0.129116 -1.02313 0
M  V30 23 C 3.61993 -0.317583 -0.929257 0
M  V30 24 C 2.95108 -1.43736 -1.33008 0
M  V30 25 C 1.59124 -1.59765 -1.21647 0
M  V30 26 H -3.31172 4.80767 0.543615 0
M  V30 27 H -3.70826 4.12114 2.14459 0
M  V30 28 H -3.60321 -0.734193 -1.52635 0
M  V30 29 H -4.30075 -0.793766 0.112422 0
M  V30 30 H -0.251669 -0.791237 0.98124 0
M  V30 31 H -2.12255 -2.28522 -0.719509 0
M  V30 32 H -1.19454 -2.78875 1.95243 0
M  V30 33 H -2.84056 -2.70392 1.30629 0
M  V30 34 H -1.9085 -1.17197 1.80535 0
M  V30 35 H -1.05096 -4.15278 0.531089 0
M  V30 36 H 0.488196 -3.36681 0.409826 0
M  V30 37 H -0.505491 -3.91848 -1.08387 0
M  V30 38 H 2.81081 2.64109 0.459163 0
M  V30 39 H 5.26254 2.9563 0.278948 0
M  V30 40 H 6.67743 1.17378 -0.677007 0
M  V30 41 H 5.58713 -0.910358 -1.4404 0
M  V30 42 H 3.53251 -2.25849 -1.76898 0
M  V30 43 H 1.14456 -2.49874 -1.62629 0
M  V30 END ATOM
M  V30 BEGIN BOND
M  V30 1 3 1 2
M  V30 2 1 2 3
M  V30 3 2 3 4
M  V30 4 1 4 5
M  V30 5 1 4 6
M  V30 6 2 6 7
M  V30 7 1 7 8
M  V30 8 2 8 9
M  V30 9 1 9 10
M  V30 10 1 8 11
M  V30 11 1 11 12
M  V30 12 1 12 13
M  V30 13 1 12 14
M  V30 14 1 11 15
M  V30 15 2 15 16
M  V30 16 1 16 17
M  V30 17 1 16 18
M  V30 18 2 18 19
M  V30 19 1 19 20
M  V30 20 2 20 21
M  V30 21 1 21 22
M  V30 22 2 22 23
M  V30 23 1 23 24
M  V30 24 2 24 25
M  V30 25 1 9 3
M  V30 26 1 25 15
M  V30 27 1 17 7
M  V30 28 1 23 18
M  V30 29 1 5 26
M  V30 30 1 5 27
M  V30 31 1 10 28
M  V30 32 1 10 29
M  V30 33 1 11 30
M  V30 34 1 12 31
M  V30 35 1 13 32
M  V30 36 1 13 33
M  V30 37 1 13 34
M  V30 38 1 14 35
M  V30 39 1 14 36
M  V30 40 1 14 37
M  V30 41 1 19 38
M  V30 42 1 20 39
M  V30 43 1 21 40
M  V30 44 1 22 41
M  V30 45 1 24 42
M  V30 46 1 25 43
M  V30 END BOND
M  V30 END CTAB
M  END
