
     RDKit          3D

  0  0  0  0  0  0  0  0  0  0999 V3000
M  V30 BEGIN CTAB
M  V30 COUNTS 89 92 0 0 0
M  V30 BEGIN ATOM
M  V30 1 C 4.60344 -0.151687 2.1085 0
M  V30 2 C 4.36214 0.163749 0.697258 0
M  V30 3 C 4.98444 1.28075 0.16451 0
M  V30 4 C 5.90226 2.28969 0.751465 0
M  V30 5 C 5.89286 3.40068 -0.239755 0
M  V30 6 C 7.24441 4.08073 -0.365851 0
M  V30 7 C 4.81309 4.38631 0.143476 0
M  V30 8 O 5.52146 2.78062 -1.44873 0
M  V30 9 C 4.79945 1.62692 -1.13953 0
M  V30 10 C 3.97516 0.828677 -1.90466 0
M  V30 11 C 3.75547 1.18675 -3.33843 0
M  V30 12 C 3.3328 -0.311435 -1.38318 0
M  V30 13 C 2.52773 -1.11276 -2.29615 0
M  V30 14 C 3.52121 -0.650182 -0.0801446 0
M  V30 15 S 2.83855 -2.04125 0.64503 0
M  V30 16 O 2.57976 -3.12576 -0.417662 0
M  V30 17 O 3.92862 -2.71068 1.5116 0
M  V30 18 N 1.48146 -1.84919 1.57859 0
M  V30 19 C 0.264111 -1.37539 1.09189 0 CFG=1
M  V30 20 C -0.839693 -2.34993 1.25292 0
M  V30 21 C -0.605962 -3.67711 0.567147 0
M  V30 22 C -0.0783821 -4.74506 1.23032 0
M  V30 23 C 0.111257 -5.93769 0.570056 0
M  V30 24 C -0.226022 -6.06378 -0.752608 0
M  V30 25 C -0.770988 -4.98608 -1.46545 0
M  V30 26 C -0.941285 -3.82205 -0.769196 0
M  V30 27 C -1.1171 -5.15582 -2.87204 0
M  V30 28 N -0.899142 -6.40787 -3.50466 0
M  V30 29 N -1.60909 -4.21116 -3.55143 0
M  V30 30 C -0.0495093 0.0151837 1.5452 0
M  V30 31 O 1.01239 0.796833 1.528 0
M  V30 32 N -1.18338 0.635669 1.96441 0
M  V30 33 C -1.09541 2.11062 2.23511 0
M  V30 34 C -2.09716 2.81841 1.35296 0
M  V30 35 N -3.32294 2.07502 1.14681 0
M  V30 36 C -3.38986 0.623355 1.11151 0
M  V30 37 C -2.47971 0.12893 2.22783 0
M  V30 38 C -4.52389 2.80044 0.964616 0
M  V30 39 O -4.50027 4.05178 0.977589 0
M  V30 40 C -5.78736 2.08324 0.762305 0
M  V30 41 C -6.95195 3.02693 0.557471 0
M  V30 42 N -8.13749 2.23214 0.373919 0
M  V30 43 C -8.30429 1.44132 -0.780847 0
M  V30 44 N -7.81378 1.77552 -2.07267 0
M  V30 45 N -8.96058 0.321797 -0.63703 0
M  V30 46 H 5.42122 -0.875622 2.18512 0
M  V30 47 H 4.94212 0.766863 2.62974 0
M  V30 48 H 3.73376 -0.532085 2.64439 0
M  V30 49 H 6.90741 1.87369 0.956626 0
M  V30 50 H 5.43386 2.63174 1.71277 0
M  V30 51 H 7.14485 4.86679 -1.13235 0
M  V30 52 H 7.95293 3.30866 -0.729201 0
M  V30 53 H 7.52068 4.49568 0.610111 0
M  V30 54 H 5.24657 5.21946 0.756587 0
M  V30 55 H 4.02055 3.933 0.774086 0
M  V30 56 H 4.30703 4.77896 -0.760445 0
M  V30 57 H 2.69433 1.39976 -3.56387 0
M  V30 58 H 4.16186 0.330231 -3.93781 0
M  V30 59 H 4.38987 2.0538 -3.60689 0
M  V30 60 H 1.48647 -1.25809 -2.00591 0
M  V30 61 H 3.03309 -2.08975 -2.56768 0
M  V30 62 H 2.46722 -0.60476 -3.31003 0
M  V30 63 H 1.45008 -2.37402 2.4806 0
M  V30 64 H 0.380827 -1.23794 -0.0340869 0
M  V30 65 H -1.79527 -2.01224 0.780623 0
M  V30 66 H -1.07207 -2.61762 2.3005 0
M  V30 67 H 0.197608 -4.68459 2.26895 0
M  V30 68 H 0.531283 -6.81207 1.07038 0
M  V30 69 H -0.0942531 -6.98326 -1.31445 0
M  V30 70 H -1.36127 -2.95798 -1.28468 0
M  V30 71 H -1.32362 -7.25275 -3.06849 0
M  V30 72 H -0.333074 -6.44167 -4.3663 0
M  V30 73 H -1.80445 -3.26824 -3.18922 0
M  V30 74 H -0.106493 2.49889 2.0244 0
M  V30 75 H -1.31295 2.20515 3.3129 0
M  V30 76 H -2.34204 3.78469 1.84006 0
M  V30 77 H -1.63679 3.05712 0.376659 0
M  V30 78 H -3.12961 0.199115 0.124517 0
M  V30 79 H -4.412 0.272426 1.3587 0
M  V30 80 H -2.61885 -0.895042 2.52092 0
M  V30 81 H -2.88817 0.717433 3.13891 0
M  V30 82 H -5.64996 1.39676 -0.101273 0
M  V30 83 H -6.07291 1.44912 1.65258 0
M  V30 84 H -7.02036 3.64948 1.4719 0
M  V30 85 H -6.7203 3.64999 -0.333284 0
M  V30 86 H -8.87258 2.24558 1.10048 0
M  V30 87 H -7.59077 1.06512 -2.78102 0
M  V30 88 H -7.67757 2.77994 -2.30067 0
M  V30 89 H -9.35504 -0.00891986 0.25467 0
M  V30 END ATOM
M  V30 BEGIN BOND
M  V30 1 1 1 2
M  V30 2 2 2 3
M  V30 3 1 3 4
M  V30 4 1 4 5
M  V30 5 1 5 6
M  V30 6 1 5 7
M  V30 7 1 5 8
M  V30 8 1 8 9
M  V30 9 2 9 10
M  V30 10 1 10 11
M  V30 11 1 10 12
M  V30 12 1 12 13
M  V30 13 2 12 14
M  V30 14 1 14 15
M  V30 15 2 15 16
M  V30 16 2 15 17
M  V30 17 1 15 18
M  V30 18 1 18 19
M  V30 19 1 19 20
M  V30 20 1 20 21
M  V30 21 2 21 22
M  V30 22 1 22 23
M  V30 23 2 23 24
M  V30 24 1 24 25
M  V30 25 2 25 26
M  V30 26 1 25 27
M  V30 27 1 27 28
M  V30 28 2 27 29 CFG=2
M  V30 29 1 19 30
M  V30 30 2 30 31
M  V30 31 1 30 32
M  V30 32 1 32 33
M  V30 33 1 33 34
M  V30 34 1 34 35
M  V30 35 1 35 36
M  V30 36 1 36 37
M  V30 37 1 35 38
M  V30 38 2 38 39
M  V30 39 1 38 40
M  V30 40 1 40 41
M  V30 41 1 41 42
M  V30 42 1 42 43
M  V30 43 1 43 44
M  V30 44 2 43 45 CFG=2
M  V30 45 1 14 2
M  V30 46 1 26 21
M  V30 47 1 37 32
M  V30 48 1 9 3
M  V30 49 1 1 46
M  V30 50 1 1 47
M  V30 51 1 1 48
M  V30 52 1 4 49
M  V30 53 1 4 50
M  V30 54 1 6 51
M  V30 55 1 6 52
M  V30 56 1 6 53
M  V30 57 1 7 54
M  V30 58 1 7 55
M  V30 59 1 7 56
M  V30 60 1 11 57
M  V30 61 1 11 58
M  V30 62 1 11 59
M  V30 63 1 13 60
M  V30 64 1 13 61
M  V30 65 1 13 62
M  V30 66 1 18 63
M  V30 67 1 19 64 CFG=3
M  V30 68 1 20 65
M  V30 69 1 20 66
M  V30 70 1 22 67
M  V30 71 1 23 68
M  V30 72 1 24 69
M  V30 73 1 26 70
M  V30 74 1 28 71
M  V30 75 1 28 72
M  V30 76 1 29 73
M  V30 77 1 33 74
M  V30 78 1 33 75
M  V30 79 1 34 76
M  V30 80 1 34 77
M  V30 81 1 36 78
M  V30 82 1 36 79
M  V30 83 1 37 80
M  V30 84 1 37 81
M  V30 85 1 40 82
M  V30 86 1 40 83
M  V30 87 1 41 84
M  V30 88 1 41 85
M  V30 89 1 42 86
M  V30 90 1 44 87
M  V30 91 1 44 88
M  V30 92 1 45 89
M  V30 END BOND
M  V30 END CTAB
M  END
