
     RDKit          3D

  0  0  0  0  0  0  0  0  0  0999 V3000
M  V30 BEGIN CTAB
M  V30 COUNTS 46 47 0 0 0
M  V30 BEGIN ATOM
M  V30 1 C -3.80153 -1.49553 -0.487972 0
M  V30 2 N -2.50928 -1.99021 -0.164302 0
M  V30 3 C -1.43756 -1.00848 -0.17256 0
M  V30 4 C -1.98139 0.370448 0.0176413 0
M  V30 5 C -1.68795 1.39894 -0.856409 0
M  V30 6 C -2.17692 2.67106 -0.692069 0
M  V30 7 C -3.00887 2.98209 0.389052 0
M  V30 8 C -3.30891 1.96589 1.26814 0
M  V30 9 C -2.80497 0.697967 1.08086 0
M  V30 10 C -0.414607 -1.32565 0.911325 0
M  V30 11 N 0.692477 -0.458119 0.985711 0
M  V30 12 C 1.56577 -0.403258 -0.117426 0
M  V30 13 C 2.71619 0.530755 0.0717953 0
M  V30 14 C 2.93938 1.2534 1.20252 0
M  V30 15 N 4.01746 2.04992 1.25365 0
M  V30 16 C 4.91117 2.19584 0.261788 0
M  V30 17 N 4.70019 1.47971 -0.874559 0
M  V30 18 C 3.63553 0.671893 -0.967181 0
M  V30 19 N 3.43625 -0.0662587 -2.18129 0
M  V30 20 N 6.05108 3.06111 0.361541 0
M  V30 21 C -0.104757 -2.78849 0.993311 0
M  V30 22 C -2.22016 -3.06879 -1.11777 0
M  V30 23 H -4.3651 -2.2948 -1.06694 0
M  V30 24 H -4.47384 -1.25246 0.345302 0
M  V30 25 H -3.77503 -0.591201 -1.16185 0
M  V30 26 H -0.930787 -1.06394 -1.13774 0
M  V30 27 H -1.04896 1.22221 -1.71475 0
M  V30 28 H -1.9193 3.43754 -1.40087 0
M  V30 29 H -3.37856 3.99249 0.48554 0
M  V30 30 H -3.94954 2.21068 2.09857 0
M  V30 31 H -3.05652 -0.0687765 1.79706 0
M  V30 32 H -1.0024 -1.12808 1.86995 0
M  V30 33 H 0.420327 0.517704 1.24829 0
M  V30 34 H 1.02638 -0.0554778 -1.01477 0
M  V30 35 H 2.00865 -1.38255 -0.407337 0
M  V30 36 H 2.23584 1.16889 2.04264 0
M  V30 37 H 2.71645 0.277306 -2.85264 0
M  V30 38 H 4.01683 -0.916977 -2.3486 0
M  V30 39 H 6.01729 4.0705 0.089091 0
M  V30 40 H 6.96329 2.68667 0.71795 0
M  V30 41 H 0.612619 -2.93981 1.8258 0
M  V30 42 H 0.230189 -3.26204 0.0763587 0
M  V30 43 H -1.03904 -3.30798 1.32203 0
M  V30 44 H -1.30341 -2.84711 -1.699 0
M  V30 45 H -3.0241 -3.1364 -1.88388 0
M  V30 46 H -2.18987 -4.06065 -0.631282 0
M  V30 END ATOM
M  V30 BEGIN BOND
M  V30 1 1 1 2
M  V30 2 1 2 3
M  V30 3 1 3 4
M  V30 4 2 4 5
M  V30 5 1 5 6
M  V30 6 2 6 7
M  V30 7 1 7 8
M  V30 8 2 8 9
M  V30 9 1 3 10
M  V30 10 1 10 11
M  V30 11 1 11 12
M  V30 12 1 12 13
M  V30 13 2 13 14
M  V30 14 1 14 15
M  V30 15 2 15 16
M  V30 16 1 16 17
M  V30 17 2 17 18
M  V30 18 1 18 19
M  V30 19 1 16 20
M  V30 20 1 10 21
M  V30 21 1 2 22
M  V30 22 1 9 4
M  V30 23 1 18 13
M  V30 24 1 1 23
M  V30 25 1 1 24
M  V30 26 1 1 25
M  V30 27 1 3 26
M  V30 28 1 5 27
M  V30 29 1 6 28
M  V30 30 1 7 29
M  V30 31 1 8 30
M  V30 32 1 9 31
M  V30 33 1 10 32
M  V30 34 1 11 33
M  V30 35 1 12 34
M  V30 36 1 12 35
M  V30 37 1 14 36
M  V30 38 1 19 37
M  V30 39 1 19 38
M  V30 40 1 20 39
M  V30 41 1 20 40
M  V30 42 1 21 41
M  V30 43 1 21 42
M  V30 44 1 21 43
M  V30 45 1 22 44
M  V30 46 1 22 45
M  V30 47 1 22 46
M  V30 END BOND
M  V30 END CTAB
M  END
