
     RDKit          3D

  0  0  0  0  0  0  0  0  0  0999 V3000
M  V30 BEGIN CTAB
M  V30 COUNTS 53 57 0 0 0
M  V30 BEGIN ATOM
M  V30 1 N 5.28991 3.58046 -1.06662 0
M  V30 2 N 4.91306 2.49648 -1.89775 0
M  V30 3 C 4.30222 1.35553 -1.34422 0
M  V30 4 N 5.04603 0.254992 -1.07507 0
M  V30 5 C 4.38363 -0.777062 -0.536792 0
M  V30 6 N 5.10654 -1.9585 -0.23642 0
M  V30 7 N 5.67376 -2.20585 1.01608 0
M  V30 8 N 3.10022 -0.733368 -0.285354 0
M  V30 9 C 2.27552 0.343263 -0.528051 0
M  V30 10 C 2.92348 1.40637 -1.07426 0
M  V30 11 S 1.70138 2.57328 -1.25391 0
M  V30 12 C 0.381167 1.67797 -0.623059 0
M  V30 13 C 0.938567 0.481119 -0.288746 0
M  V30 14 C 0.0430038 -0.442029 0.274302 0
M  V30 15 C 0.394261 -1.79507 0.693377 0
M  V30 16 C -0.687872 -2.79709 0.352027 0
M  V30 17 C -0.365325 -3.36644 -1.02255 0
M  V30 18 C -0.593257 -3.9453 1.32839 0
M  V30 19 O -1.95723 -2.27537 0.29973 0
M  V30 20 C -2.11315 -1.14396 1.09286 0
M  V30 21 C -1.29759 -0.0750112 0.44312 0
M  V30 22 C -1.82202 1.13406 0.0949475 0
M  V30 23 N -0.93897 1.99802 -0.443288 0
M  V30 24 N -3.19863 1.50347 0.248333 0
M  V30 25 C -4.28033 0.987637 -0.549338 0
M  V30 26 C -5.33012 2.03288 -0.876476 0
M  V30 27 O -5.12613 3.23955 -0.254047 0
M  V30 28 C -4.93382 2.98241 1.12323 0
M  V30 29 C -3.54221 2.48525 1.28952 0
M  V30 30 H 4.64042 4.38275 -1.33229 0
M  V30 31 H 6.25126 3.92077 -1.28138 0
M  V30 32 H 5.12115 2.60717 -2.93641 0
M  V30 33 H 5.20239 -2.66135 -1.01509 0
M  V30 34 H 6.24116 -1.42429 1.38404 0
M  V30 35 H 4.96234 -2.54454 1.71018 0
M  V30 36 H 0.524522 -1.76979 1.81147 0
M  V30 37 H 1.32028 -2.17425 0.269217 0
M  V30 38 H -1.05976 -4.24887 -1.152 0
M  V30 39 H -0.675548 -2.63088 -1.79288 0
M  V30 40 H 0.69639 -3.6774 -1.1028 0
M  V30 41 H -1.50182 -4.5653 1.29329 0
M  V30 42 H 0.260979 -4.58577 0.990045 0
M  V30 43 H -0.319942 -3.6225 2.35773 0
M  V30 44 H -3.15083 -0.917008 1.20374 0
M  V30 45 H -1.66953 -1.30064 2.11177 0
M  V30 46 H -3.83347 0.628896 -1.50168 0
M  V30 47 H -4.74547 0.136529 -0.0242717 0
M  V30 48 H -5.44627 2.13125 -1.96025 0
M  V30 49 H -6.30858 1.63769 -0.467974 0
M  V30 50 H -5.00926 3.9701 1.62272 0
M  V30 51 H -5.64784 2.24907 1.51744 0
M  V30 52 H -3.30425 2.0948 2.30334 0
M  V30 53 H -2.83442 3.34588 1.09207 0
M  V30 END ATOM
M  V30 BEGIN BOND
M  V30 1 1 1 2
M  V30 2 1 2 3
M  V30 3 2 3 4
M  V30 4 1 4 5
M  V30 5 1 5 6
M  V30 6 1 6 7
M  V30 7 2 5 8
M  V30 8 1 8 9
M  V30 9 2 9 10
M  V30 10 1 10 11
M  V30 11 1 11 12
M  V30 12 2 12 13
M  V30 13 1 13 14
M  V30 14 1 14 15
M  V30 15 1 15 16
M  V30 16 1 16 17
M  V30 17 1 16 18
M  V30 18 1 16 19
M  V30 19 1 19 20
M  V30 20 1 20 21
M  V30 21 1 21 22
M  V30 22 2 22 23
M  V30 23 1 22 24
M  V30 24 1 24 25
M  V30 25 1 25 26
M  V30 26 1 26 27
M  V30 27 1 27 28
M  V30 28 1 28 29
M  V30 29 1 10 3
M  V30 30 1 23 12
M  V30 31 1 29 24
M  V30 32 1 13 9
M  V30 33 2 21 14
M  V30 34 1 1 30
M  V30 35 1 1 31
M  V30 36 1 2 32
M  V30 37 1 6 33
M  V30 38 1 7 34
M  V30 39 1 7 35
M  V30 40 1 15 36
M  V30 41 1 15 37
M  V30 42 1 17 38
M  V30 43 1 17 39
M  V30 44 1 17 40
M  V30 45 1 18 41
M  V30 46 1 18 42
M  V30 47 1 18 43
M  V30 48 1 20 44
M  V30 49 1 20 45
M  V30 50 1 25 46
M  V30 51 1 25 47
M  V30 52 1 26 48
M  V30 53 1 26 49
M  V30 54 1 28 50
M  V30 55 1 28 51
M  V30 56 1 29 52
M  V30 57 1 29 53
M  V30 END BOND
M  V30 END CTAB
M  END
