
     RDKit          3D

  0  0  0  0  0  0  0  0  0  0999 V3000
M  V30 BEGIN CTAB
M  V30 COUNTS 52 55 0 0 0
M  V30 BEGIN ATOM
M  V30 1 N 10.2077 -2.2807 0.400162 0
M  V30 2 C 9.33624 -1.16586 0.153706 0
M  V30 3 C 9.92355 0.0586864 -0.109873 0
M  V30 4 C 9.12842 1.15319 -0.351231 0
M  V30 5 C 7.76465 0.989566 -0.321606 0
M  V30 6 C 7.15572 -0.234982 -0.0580926 0
M  V30 7 C 7.98379 -1.30808 0.178694 0
M  V30 8 C 5.70189 -0.349338 -0.0405642 0
M  V30 9 O 5.17313 -1.45216 0.196427 0
M  V30 10 O 4.94081 0.757999 -0.285115 0
M  V30 11 C 3.54137 0.745682 -0.290097 0
M  V30 12 C 2.84193 0.494841 -1.45171 0
M  V30 13 C 1.4629 0.477651 -1.47995 0
M  V30 14 C 0.720297 0.713184 -0.335204 0
M  V30 15 C 1.41884 0.964167 0.827025 0
M  V30 16 C 2.80954 0.981204 0.853991 0
M  V30 17 C -0.741031 0.69061 -0.38091 0
M  V30 18 C -1.41664 -0.14134 -1.25855 0
M  V30 19 C -2.80194 -0.145317 -1.28379 0
M  V30 20 C -3.55553 0.660529 -0.455036 0
M  V30 21 C -2.86905 1.48386 0.413795 0
M  V30 22 C -1.47028 1.49491 0.446548 0
M  V30 23 O -4.94449 0.66784 -0.468425 0
M  V30 24 C -5.72314 -0.159456 0.32132 0
M  V30 25 O -5.12786 -0.957277 1.08925 0
M  V30 26 C -7.1804 -0.138332 0.294372 0
M  V30 27 C -7.87789 0.716069 -0.530349 0
M  V30 28 C -9.27478 0.69319 -0.514059 0
M  V30 29 C -9.9837 -0.145046 0.289163 0
M  V30 30 C -9.27535 -1.01071 1.12458 0
M  V30 31 C -7.90248 -0.980368 1.10109 0
M  V30 32 N -9.989 -1.89685 1.97389 0
M  V30 33 H 10.5825 -2.80312 -0.416204 0
M  V30 34 H 10.409 -2.49445 1.39765 0
M  V30 35 H 11.0189 0.167771 -0.128858 0
M  V30 36 H 9.60117 2.098 -0.55425 0
M  V30 37 H 7.09276 1.8412 -0.509704 0
M  V30 38 H 7.52766 -2.2645 0.3841 0
M  V30 39 H 3.40456 0.306696 -2.36483 0
M  V30 40 H 0.918345 0.278008 -2.40525 0
M  V30 41 H 0.839204 1.14693 1.7163 0
M  V30 42 H 3.3417 1.17813 1.76666 0
M  V30 43 H -0.873146 -0.800885 -1.93757 0
M  V30 44 H -3.35687 -0.79536 -1.96997 0
M  V30 45 H -3.4282 2.12109 1.06939 0
M  V30 46 H -1.02295 2.1805 1.16801 0
M  V30 47 H -7.34538 1.40156 -1.18773 0
M  V30 48 H -9.80081 1.36575 -1.16284 0
M  V30 49 H -11.0746 -0.17128 0.309565 0
M  V30 50 H -7.36702 -1.65165 1.74882 0
M  V30 51 H -11.0028 -1.86064 2.10793 0
M  V30 52 H -9.44127 -2.62113 2.48529 0
M  V30 END ATOM
M  V30 BEGIN BOND
M  V30 1 1 1 2
M  V30 2 2 2 3
M  V30 3 1 3 4
M  V30 4 2 4 5
M  V30 5 1 5 6
M  V30 6 2 6 7
M  V30 7 1 6 8
M  V30 8 2 8 9
M  V30 9 1 8 10
M  V30 10 1 10 11
M  V30 11 2 11 12
M  V30 12 1 12 13
M  V30 13 2 13 14
M  V30 14 1 14 15
M  V30 15 2 15 16
M  V30 16 1 14 17
M  V30 17 2 17 18
M  V30 18 1 18 19
M  V30 19 2 19 20
M  V30 20 1 20 21
M  V30 21 2 21 22
M  V30 22 1 20 23
M  V30 23 1 23 24
M  V30 24 2 24 25
M  V30 25 1 24 26
M  V30 26 2 26 27
M  V30 27 1 27 28
M  V30 28 2 28 29
M  V30 29 1 29 30
M  V30 30 2 30 31
M  V30 31 1 30 32
M  V30 32 1 7 2
M  V30 33 1 16 11
M  V30 34 1 22 17
M  V30 35 1 31 26
M  V30 36 1 1 33
M  V30 37 1 1 34
M  V30 38 1 3 35
M  V30 39 1 4 36
M  V30 40 1 5 37
M  V30 41 1 7 38
M  V30 42 1 12 39
M  V30 43 1 13 40
M  V30 44 1 15 41
M  V30 45 1 16 42
M  V30 46 1 18 43
M  V30 47 1 19 44
M  V30 48 1 21 45
M  V30 49 1 22 46
M  V30 50 1 27 47
M  V30 51 1 28 48
M  V30 52 1 29 49
M  V30 53 1 31 50
M  V30 54 1 32 51
M  V30 55 1 32 52
M  V30 END BOND
M  V30 END CTAB
M  END
