
     RDKit          3D

  0  0  0  0  0  0  0  0  0  0999 V3000
M  V30 BEGIN CTAB
M  V30 COUNTS 31 32 0 0 0
M  V30 BEGIN ATOM
M  V30 1 C 6.18252 0.887468 -0.654829 0
M  V30 2 O 5.3222 0.417844 0.343927 0
M  V30 3 C 3.94459 0.335829 0.197075 0
M  V30 4 C 3.32791 0.725671 -0.980355 0
M  V30 5 C 1.95128 0.629825 -1.09089 0
M  V30 6 C 1.18232 0.153562 -0.0509353 0
M  V30 7 C 1.79612 -0.232136 1.11494 0
M  V30 8 C 3.15112 -0.135203 1.21699 0
M  V30 9 O -0.189802 0.0610318 -0.168946 0
M  V30 10 C -0.942635 -0.432079 0.919139 0
M  V30 11 C -2.39331 -0.451173 0.589123 0
M  V30 12 N -2.98712 -1.52062 0.0230457 0
M  V30 13 C -4.3133 -1.5191 -0.270948 0
M  V30 14 N -4.92514 -2.65146 -0.866565 0
M  V30 15 N -5.04116 -0.424604 0.0116851 0
M  V30 16 C -4.48302 0.663253 0.577308 0
M  V30 17 N -3.14925 0.627133 0.858947 0
M  V30 18 N -5.23029 1.83096 0.885357 0
M  V30 19 H 7.19651 0.966894 -0.218796 0
M  V30 20 H 6.25027 0.167259 -1.51248 0
M  V30 21 H 5.90059 1.88794 -1.05061 0
M  V30 22 H 3.95068 1.10226 -1.79882 0
M  V30 23 H 1.45031 0.928838 -2.00131 0
M  V30 24 H 1.18898 -0.611744 1.94535 0
M  V30 25 H 3.64446 -0.436438 2.13121 0
M  V30 26 H -0.816966 0.165753 1.84187 0
M  V30 27 H -0.625494 -1.50284 1.07652 0
M  V30 28 H -5.50149 -3.33603 -0.338722 0
M  V30 29 H -4.78685 -2.80047 -1.88589 0
M  V30 30 H -5.00689 2.77657 0.511597 0
M  V30 31 H -6.04713 1.7258 1.52264 0
M  V30 END ATOM
M  V30 BEGIN BOND
M  V30 1 1 1 2
M  V30 2 1 2 3
M  V30 3 2 3 4
M  V30 4 1 4 5
M  V30 5 2 5 6
M  V30 6 1 6 7
M  V30 7 2 7 8
M  V30 8 1 6 9
M  V30 9 1 9 10
M  V30 10 1 10 11
M  V30 11 2 11 12
M  V30 12 1 12 13
M  V30 13 1 13 14
M  V30 14 2 13 15
M  V30 15 1 15 16
M  V30 16 2 16 17
M  V30 17 1 16 18
M  V30 18 1 8 3
M  V30 19 1 17 11
M  V30 20 1 1 19
M  V30 21 1 1 20
M  V30 22 1 1 21
M  V30 23 1 4 22
M  V30 24 1 5 23
M  V30 25 1 7 24
M  V30 26 1 8 25
M  V30 27 1 10 26
M  V30 28 1 10 27
M  V30 29 1 14 28
M  V30 30 1 14 29
M  V30 31 1 18 30
M  V30 32 1 18 31
M  V30 END BOND
M  V30 END CTAB
M  END
