
     RDKit          3D

  0  0  0  0  0  0  0  0  0  0999 V3000
M  V30 BEGIN CTAB
M  V30 COUNTS 25 25 0 0 0
M  V30 BEGIN ATOM
M  V30 1 C 2.06467 0.657977 1.55914 0
M  V30 2 C 2.32338 -0.181106 0.324676 0
M  V30 3 C 1.35939 0.265226 -0.753514 0
M  V30 4 C -0.05058 0.0935206 -0.341464 0
M  V30 5 N -0.854416 1.16884 -0.262879 0
M  V30 6 C -2.14687 1.09458 0.103744 0
M  V30 7 N -2.99158 2.23095 0.185459 0
M  V30 8 N -2.60138 -0.14772 0.394721 0
M  V30 9 C -1.84096 -1.24832 0.331486 0
M  V30 10 N -0.563059 -1.12538 -0.0376058 0
M  V30 11 N -2.41484 -2.52383 0.659839 0
M  V30 12 C 1.57089 -0.468341 -2.04839 0
M  V30 13 H 1.17567 0.303263 2.11652 0
M  V30 14 H 1.84608 1.69884 1.20022 0
M  V30 15 H 2.95819 0.706353 2.21497 0
M  V30 16 H 3.34857 0.0229436 -0.042864 0
M  V30 17 H 2.22509 -1.26269 0.508454 0
M  V30 18 H 1.54363 1.33954 -0.947434 0
M  V30 19 H -3.53822 2.56766 -0.624526 0
M  V30 20 H -3.05408 2.73106 1.09194 0
M  V30 21 H -1.81969 -3.32054 0.922112 0
M  V30 22 H -3.4342 -2.63075 0.629124 0
M  V30 23 H 2.4655 -1.11065 -1.92753 0
M  V30 24 H 0.662442 -1.06715 -2.34768 0
M  V30 25 H 1.76639 0.205717 -2.90852 0
M  V30 END ATOM
M  V30 BEGIN BOND
M  V30 1 1 1 2
M  V30 2 1 2 3
M  V30 3 1 3 4
M  V30 4 2 4 5
M  V30 5 1 5 6
M  V30 6 1 6 7
M  V30 7 2 6 8
M  V30 8 1 8 9
M  V30 9 2 9 10
M  V30 10 1 9 11
M  V30 11 1 3 12
M  V30 12 1 10 4
M  V30 13 1 1 13
M  V30 14 1 1 14
M  V30 15 1 1 15
M  V30 16 1 2 16
M  V30 17 1 2 17
M  V30 18 1 3 18
M  V30 19 1 7 19
M  V30 20 1 7 20
M  V30 21 1 11 21
M  V30 22 1 11 22
M  V30 23 1 12 23
M  V30 24 1 12 24
M  V30 25 1 12 25
M  V30 END BOND
M  V30 END CTAB
M  END
