
     RDKit          3D

  0  0  0  0  0  0  0  0  0  0999 V3000
M  V30 BEGIN CTAB
M  V30 COUNTS 14 14 0 0 0
M  V30 BEGIN ATOM
M  V30 1 N -1.61372 1.12116 0.179024 0
M  V30 2 C -0.312219 0.575772 0.0270271 0
M  V30 3 C 0.775215 1.40314 -0.108781 0
M  V30 4 N 2.02963 0.885498 -0.255338 0
M  V30 5 C 2.22713 -0.445351 -0.269839 0
M  V30 6 Cl 3.87032 -1.07508 -0.462139 0
M  V30 7 N 1.17586 -1.26539 -0.138414 0
M  V30 8 C -0.0819022 -0.782774 0.00878765 0
M  V30 9 N -1.21375 -1.64449 0.150141 0
M  V30 10 H -2.08265 1.72087 -0.533353 0
M  V30 11 H -2.16373 0.930268 1.04497 0
M  V30 12 H 0.62323 2.47049 -0.0979102 0
M  V30 13 H -1.56951 -1.77117 1.12857 0
M  V30 14 H -1.66392 -2.12293 -0.672737 0
M  V30 END ATOM
M  V30 BEGIN BOND
M  V30 1 1 1 2
M  V30 2 2 2 3
M  V30 3 1 3 4
M  V30 4 2 4 5
M  V30 5 1 5 6
M  V30 6 1 5 7
M  V30 7 2 7 8
M  V30 8 1 8 9
M  V30 9 1 8 2
M  V30 10 1 1 10
M  V30 11 1 1 11
M  V30 12 1 3 12
M  V30 13 1 9 13
M  V30 14 1 9 14
M  V30 END BOND
M  V30 END CTAB
M  END
