
     RDKit          3D

  0  0  0  0  0  0  0  0  0  0999 V3000
M  V30 BEGIN CTAB
M  V30 COUNTS 48 49 0 0 0
M  V30 BEGIN ATOM
M  V30 1 N 8.6374 0.665314 0.761156 0
M  V30 2 C 7.75999 -0.343024 1.05935 0
M  V30 3 C 6.31746 0.179708 1.10603 0
M  V30 4 O 6.08746 0.694626 -0.192941 0
M  V30 5 P 4.73503 0.185414 -0.837589 0
M  V30 6 O 4.69794 -1.57325 -0.611289 0
M  V30 7 O 4.96025 0.264602 -2.40406 0
M  V30 8 O 3.21016 0.669289 -0.462064 0
M  V30 9 P 2.23199 -0.642475 -1.04662 0
M  V30 10 O 3.14972 -1.32753 -2.32325 0
M  V30 11 O 2.20333 -1.63971 0.114318 0
M  V30 12 O 0.743798 -0.287097 -1.58455 0
M  V30 13 C -0.135762 -0.234754 -0.520654 0
M  V30 14 C -1.56334 -0.228851 -0.92881 0 CFG=1
M  V30 15 O -2.35381 -0.0392784 0.143624 0
M  V30 16 C -3.63753 0.268857 -0.480842 0 CFG=2
M  V30 17 C -3.22252 1.30108 -1.47107 0 CFG=2
M  V30 18 O -4.08869 1.57752 -2.48172 0
M  V30 19 C -1.97615 0.602375 -2.09908 0 CFG=2
M  V30 20 O -2.47041 -0.27035 -3.125 0
M  V30 21 N -4.58693 0.466153 0.524973 0
M  V30 22 C -5.89658 0.194512 0.390622 0
M  V30 23 C -6.80287 0.232261 1.43115 0
M  V30 24 C -6.34365 0.585564 2.69848 0
M  V30 25 N -7.22022 0.6028 3.82381 0
M  V30 26 N -5.04513 0.862902 2.82049 0
M  V30 27 C -4.16848 0.797855 1.75814 0
M  V30 28 O -2.94718 1.02626 1.95727 0
M  V30 29 H 9.48867 0.773381 1.2469 0
M  V30 30 H 8.42534 1.17261 -0.073195 0
M  V30 31 H 7.78224 -1.14691 0.222817 0
M  V30 32 H 7.88399 -0.943284 1.97472 0
M  V30 33 H 5.54924 -0.38267 1.45859 0
M  V30 34 H 6.44124 1.10935 1.77353 0
M  V30 35 H 4.6022 -1.71968 0.377046 0
M  V30 36 H 2.80078 -2.13285 -2.69437 0
M  V30 37 H 0.0897871 0.68823 0.100965 0
M  V30 38 H 0.0179343 -1.11195 0.146572 0
M  V30 39 H -1.82791 -1.35178 -1.22883 0
M  V30 40 H -3.79467 -0.711686 -1.03383 0
M  V30 41 H -2.81817 2.21702 -1.00592 0
M  V30 42 H -3.77121 1.15345 -3.34405 0
M  V30 43 H -1.30292 1.29386 -2.53865 0
M  V30 44 H -2.66138 -1.1395 -2.62896 0
M  V30 45 H -6.25676 -0.0523189 -0.617432 0
M  V30 46 H -7.84717 -0.0127021 1.36012 0
M  V30 47 H -7.78129 1.41397 4.10084 0
M  V30 48 H -7.29521 -0.262378 4.38324 0
M  V30 END ATOM
M  V30 BEGIN BOND
M  V30 1 1 1 2
M  V30 2 1 2 3
M  V30 3 1 3 4
M  V30 4 1 4 5
M  V30 5 1 5 6
M  V30 6 2 5 7
M  V30 7 1 5 8
M  V30 8 1 8 9
M  V30 9 1 9 10
M  V30 10 2 9 11
M  V30 11 1 9 12
M  V30 12 1 12 13
M  V30 13 1 13 14
M  V30 14 1 14 15
M  V30 15 1 15 16
M  V30 16 1 16 17
M  V30 17 1 17 18
M  V30 18 1 17 19
M  V30 19 1 19 20
M  V30 20 1 16 21
M  V30 21 1 21 22
M  V30 22 2 22 23
M  V30 23 1 23 24
M  V30 24 1 24 25
M  V30 25 2 24 26
M  V30 26 1 26 27
M  V30 27 2 27 28
M  V30 28 1 19 14
M  V30 29 1 27 21
M  V30 30 1 1 29
M  V30 31 1 1 30
M  V30 32 1 2 31
M  V30 33 1 2 32
M  V30 34 1 3 33
M  V30 35 1 3 34
M  V30 36 1 6 35
M  V30 37 1 10 36
M  V30 38 1 13 37
M  V30 39 1 13 38
M  V30 40 1 14 39 CFG=3
M  V30 41 1 16 40 CFG=3
M  V30 42 1 17 41 CFG=1
M  V30 43 1 18 42
M  V30 44 1 19 43 CFG=3
M  V30 45 1 20 44
M  V30 46 1 22 45
M  V30 47 1 23 46
M  V30 48 1 25 47
M  V30 49 1 25 48
M  V30 END BOND
M  V30 END CTAB
M  END
