
     RDKit          3D

  0  0  0  0  0  0  0  0  0  0999 V3000
M  V30 BEGIN CTAB
M  V30 COUNTS 148 152 0 0 0
M  V30 BEGIN ATOM
M  V30 1 C 9.11696 0.516095 -4.06283 0
M  V30 2 S 8.32213 -1.01519 -4.39724 0
M  V30 3 C 7.19718 -1.6985 -3.18564 0
M  V30 4 C 7.78337 -2.05157 -1.88202 0
M  V30 5 C 8.28861 -0.901863 -1.0605 0 CFG=1
M  V30 6 C 7.19901 -0.015764 -0.658598 0
M  V30 7 O 6.96471 -0.0188179 0.630302 0
M  V30 8 N 6.41327 0.791209 -1.45454 0
M  V30 9 C 5.33648 1.57192 -0.773779 0 CFG=2
M  V30 10 C 4.1569 0.710916 -0.647731 0
M  V30 11 O 4.24782 -0.489356 -1.09501 0
M  V30 12 N 2.91138 1.05692 -0.0723213 0
M  V30 13 C 1.83336 0.13277 0.0298737 0 CFG=2
M  V30 14 C 0.622235 0.401045 -0.759834 0
M  V30 15 O 0.460142 1.42608 -1.43707 0
M  V30 16 N -0.400382 -0.573285 -0.737445 0
M  V30 17 C -1.66107 -0.498152 -1.44302 0 CFG=2
M  V30 18 C -2.7931 -0.624288 -0.493326 0
M  V30 19 O -2.47841 -0.616085 0.724561 0
M  V30 20 N -4.10291 -0.748432 -0.92982 0
M  V30 21 C -5.29981 -0.920934 -0.164002 0 CFG=2
M  V30 22 C -6.29032 0.109209 -0.481879 0
M  V30 23 O -6.00924 1.00058 -1.3595 0
M  V30 24 N -7.5544 0.185505 0.123197 0
M  V30 25 C -8.54281 1.24124 -0.225439 0 CFG=2
M  V30 26 C -8.68909 2.0737 0.940075 0
M  V30 27 O -8.19898 1.70295 2.05776 0
M  V30 28 N -9.35851 3.31815 0.909122 0
M  V30 29 C -9.46202 4.12065 2.12101 0
M  V30 30 C -10.2116 5.37012 1.88459 0
M  V30 31 O -10.694 5.63837 0.732159 0
M  V30 32 O -10.4126 6.28526 2.89513 0
M  V30 33 C -9.70401 0.480705 -0.75574 0
M  V30 34 C -10.9021 1.16552 -1.18288 0
M  V30 35 C -11.1437 1.62813 -2.48777 0
M  V30 36 N -12.3296 2.24329 -2.51891 0
M  V30 37 C -12.9032 2.21662 -1.28658 0
M  V30 38 C -12.0008 1.53756 -0.455064 0
M  V30 39 C -12.384 1.3647 0.856151 0
M  V30 40 C -13.5787 1.83135 1.32038 0
M  V30 41 C -14.4345 2.49525 0.464988 0
M  V30 42 C -14.1105 2.69793 -0.852443 0
M  V30 43 C -5.18943 -1.29667 1.26912 0
M  V30 44 C -4.60367 -2.60669 1.61188 0
M  V30 45 C -5.38063 -3.78537 1.02604 0
M  V30 46 N -6.73499 -3.85446 1.47594 0
M  V30 47 C -7.52802 -4.94237 1.00554 0
M  V30 48 N -8.77205 -4.73631 0.778568 0
M  V30 49 N -6.9017 -6.19731 0.813914 0
M  V30 50 C -1.70871 -1.42012 -2.6173 0
M  V30 51 C -1.50997 -2.84943 -2.30137 0
M  V30 52 C -2.50535 -3.75857 -2.05307 0
M  V30 53 C -2.18442 -5.07898 -1.75685 0
M  V30 54 C -0.885509 -5.53949 -1.6973 0
M  V30 55 C 0.116433 -4.62877 -1.94735 0
M  V30 56 C -0.190619 -3.32283 -2.24063 0
M  V30 57 C 1.59155 -0.22769 1.44594 0
M  V30 58 C 1.20187 0.840938 2.36364 0
M  V30 59 N 1.08919 0.692497 3.72219 0
M  V30 60 C 0.687541 1.83839 4.2469 0
M  V30 61 N 0.525652 2.75173 3.28694 0
M  V30 62 C 0.842558 2.13794 2.12336 0
M  V30 63 C 5.17553 2.846 -1.48765 0
M  V30 64 C 6.39162 3.70083 -1.52311 0
M  V30 65 C 6.89884 4.15717 -0.22617 0
M  V30 66 O 6.32466 3.93828 0.855793 0
M  V30 67 O 8.09146 4.87988 -0.176635 0
M  V30 68 N 8.91987 -1.48406 0.153935 0
M  V30 69 C 10.2858 -1.70758 0.305955 0
M  V30 70 O 11.0876 -1.4316 -0.60543 0
M  V30 71 C 10.8338 -2.29522 1.58468 0 CFG=2
M  V30 72 C 10.8585 -1.19297 2.64558 0
M  V30 73 C 11.7551 -0.0815358 2.18758 0
M  V30 74 C 11.3009 0.991978 1.45095 0
M  V30 75 C 12.1479 2.00404 1.03016 0
M  V30 76 C 13.489 1.9763 1.33491 0
M  V30 77 C 13.9412 0.888391 2.07913 0
M  V30 78 C 13.1037 -0.111095 2.49437 0
M  V30 79 O 14.3319 2.99025 0.913287 0
M  V30 80 N 12.1902 -2.72839 1.34725 0
M  V30 81 H 10.1786 0.337301 -3.67782 0
M  V30 82 H 8.66798 1.16855 -3.31179 0
M  V30 83 H 9.2351 1.14851 -4.9971 0
M  V30 84 H 6.80987 -2.71269 -3.60847 0
M  V30 85 H 6.25238 -1.14388 -3.07396 0
M  V30 86 H 6.98282 -2.62298 -1.29138 0
M  V30 87 H 8.59648 -2.82964 -1.96021 0
M  V30 88 H 9.12837 -0.443564 -1.6017 0
M  V30 89 H 6.47222 0.954533 -2.45752 0
M  V30 90 H 5.70653 1.71344 0.290702 0
M  V30 91 H 2.81223 2.01937 0.274561 0
M  V30 92 H 2.24484 -0.83845 -0.441553 0
M  V30 93 H -0.251307 -1.46963 -0.14869 0
M  V30 94 H -1.71764 0.545241 -1.87562 0
M  V30 95 H -4.22582 -0.707607 -2.00806 0
M  V30 96 H -5.80935 -1.90745 -0.583098 0
M  V30 97 H -7.85814 -0.488992 0.838736 0
M  V30 98 H -8.03539 1.79325 -1.0779 0
M  V30 99 H -9.77681 3.67999 0.044852 0
M  V30 100 H -8.44729 4.41218 2.48827 0
M  V30 101 H -9.94714 3.55747 2.94532 0
M  V30 102 H -10.3282 7.26145 2.75286 0
M  V30 103 H -9.27391 -0.163199 -1.60194 0
M  V30 104 H -9.93462 -0.334558 0.0167456 0
M  V30 105 H -10.4883 1.50788 -3.31823 0
M  V30 106 H -12.7958 2.69618 -3.34014 0
M  V30 107 H -11.6846 0.838092 1.4976 0
M  V30 108 H -13.8691 1.68472 2.37821 0
M  V30 109 H -15.3878 2.86284 0.859171 0
M  V30 110 H -14.7976 3.22836 -1.52998 0
M  V30 111 H -4.6412 -0.502509 1.82499 0
M  V30 112 H -6.24253 -1.29573 1.68075 0
M  V30 113 H -4.76898 -2.73189 2.73486 0
M  V30 114 H -3.56793 -2.82492 1.46158 0
M  V30 115 H -4.85663 -4.68967 1.44959 0
M  V30 116 H -5.24996 -3.8498 -0.064733 0
M  V30 117 H -7.07452 -3.12653 2.11267 0
M  V30 118 H -9.22971 -3.82238 0.919106 0
M  V30 119 H -6.04954 -6.29175 0.224961 0
M  V30 120 H -7.29508 -7.0468 1.27069 0
M  V30 121 H -0.919933 -1.16257 -3.3786 0
M  V30 122 H -2.66612 -1.23237 -3.16483 0
M  V30 123 H -3.54705 -3.43399 -2.10077 0
M  V30 124 H -2.99545 -5.74368 -1.57338 0
M  V30 125 H -0.699151 -6.58722 -1.46089 0
M  V30 126 H 1.15069 -4.98444 -1.9038 0
M  V30 127 H 0.633022 -2.65003 -2.43229 0
M  V30 128 H 2.53599 -0.712784 1.852 0
M  V30 129 H 0.84564 -1.08258 1.5001 0
M  V30 130 H 0.499625 2.06271 5.31143 0
M  V30 131 H 0.225494 3.73681 3.35106 0
M  V30 132 H 0.794339 2.62343 1.15564 0
M  V30 133 H 4.87881 2.64306 -2.54777 0
M  V30 134 H 4.32876 3.47144 -1.07964 0
M  V30 135 H 6.13814 4.63337 -2.10345 0
M  V30 136 H 7.21622 3.22325 -2.13249 0
M  V30 137 H 8.17915 5.83144 -0.455492 0
M  V30 138 H 8.22294 -1.71325 0.894786 0
M  V30 139 H 10.1918 -3.10734 1.95049 0
M  V30 140 H 11.2368 -1.55241 3.60794 0
M  V30 141 H 9.84166 -0.770957 2.79132 0
M  V30 142 H 10.2523 1.03314 1.2024 0
M  V30 143 H 11.7575 2.83295 0.449393 0
M  V30 144 H 14.9962 0.863104 2.31768 0
M  V30 145 H 13.4558 -0.968761 3.08024 0
M  V30 146 H 14.7754 2.86169 -0.00923528 0
M  V30 147 H 12.5864 -2.42485 0.446093 0
M  V30 148 H 12.312 -3.75252 1.52757 0
M  V30 END ATOM
M  V30 BEGIN BOND
M  V30 1 1 1 2
M  V30 2 1 2 3
M  V30 3 1 3 4
M  V30 4 1 4 5
M  V30 5 1 5 6
M  V30 6 2 6 7
M  V30 7 1 6 8
M  V30 8 1 8 9
M  V30 9 1 9 10
M  V30 10 2 10 11
M  V30 11 1 10 12
M  V30 12 1 12 13
M  V30 13 1 13 14
M  V30 14 2 14 15
M  V30 15 1 14 16
M  V30 16 1 16 17
M  V30 17 1 17 18
M  V30 18 2 18 19
M  V30 19 1 18 20
M  V30 20 1 20 21
M  V30 21 1 21 22
M  V30 22 2 22 23
M  V30 23 1 22 24
M  V30 24 1 24 25
M  V30 25 1 25 26
M  V30 26 2 26 27
M  V30 27 1 26 28
M  V30 28 1 28 29
M  V30 29 1 29 30
M  V30 30 2 30 31
M  V30 31 1 30 32
M  V30 32 1 25 33
M  V30 33 1 33 34
M  V30 34 2 34 35
M  V30 35 1 35 36
M  V30 36 1 36 37
M  V30 37 2 37 38
M  V30 38 1 38 39
M  V30 39 2 39 40
M  V30 40 1 40 41
M  V30 41 2 41 42
M  V30 42 1 21 43
M  V30 43 1 43 44
M  V30 44 1 44 45
M  V30 45 1 45 46
M  V30 46 1 46 47
M  V30 47 2 47 48 CFG=2
M  V30 48 1 47 49
M  V30 49 1 17 50
M  V30 50 1 50 51
M  V30 51 2 51 52
M  V30 52 1 52 53
M  V30 53 2 53 54
M  V30 54 1 54 55
M  V30 55 2 55 56
M  V30 56 1 13 57
M  V30 57 1 57 58
M  V30 58 1 58 59
M  V30 59 2 59 60
M  V30 60 1 60 61
M  V30 61 1 61 62
M  V30 62 1 9 63
M  V30 63 1 63 64
M  V30 64 1 64 65
M  V30 65 2 65 66
M  V30 66 1 65 67
M  V30 67 1 5 68
M  V30 68 1 68 69
M  V30 69 2 69 70
M  V30 70 1 69 71
M  V30 71 1 71 72
M  V30 72 1 72 73
M  V30 73 2 73 74
M  V30 74 1 74 75
M  V30 75 2 75 76
M  V30 76 1 76 77
M  V30 77 2 77 78
M  V30 78 1 76 79
M  V30 79 1 71 80
M  V30 80 1 38 34
M  V30 81 1 56 51
M  V30 82 2 62 58
M  V30 83 1 78 73
M  V30 84 1 42 37
M  V30 85 1 1 81
M  V30 86 1 1 82
M  V30 87 1 1 83
M  V30 88 1 3 84
M  V30 89 1 3 85
M  V30 90 1 4 86
M  V30 91 1 4 87
M  V30 92 1 5 88 CFG=3
M  V30 93 1 8 89
M  V30 94 1 9 90 CFG=1
M  V30 95 1 12 91
M  V30 96 1 13 92 CFG=3
M  V30 97 1 16 93
M  V30 98 1 17 94 CFG=3
M  V30 99 1 20 95
M  V30 100 1 21 96 CFG=3
M  V30 101 1 24 97
M  V30 102 1 25 98 CFG=3
M  V30 103 1 28 99
M  V30 104 1 29 100
M  V30 105 1 29 101
M  V30 106 1 32 102
M  V30 107 1 33 103
M  V30 108 1 33 104
M  V30 109 1 35 105
M  V30 110 1 36 106
M  V30 111 1 39 107
M  V30 112 1 40 108
M  V30 113 1 41 109
M  V30 114 1 42 110
M  V30 115 1 43 111
M  V30 116 1 43 112
M  V30 117 1 44 113
M  V30 118 1 44 114
M  V30 119 1 45 115
M  V30 120 1 45 116
M  V30 121 1 46 117
M  V30 122 1 48 118
M  V30 123 1 49 119
M  V30 124 1 49 120
M  V30 125 1 50 121
M  V30 126 1 50 122
M  V30 127 1 52 123
M  V30 128 1 53 124
M  V30 129 1 54 125
M  V30 130 1 55 126
M  V30 131 1 56 127
M  V30 132 1 57 128
M  V30 133 1 57 129
M  V30 134 1 60 130
M  V30 135 1 61 131
M  V30 136 1 62 132
M  V30 137 1 63 133
M  V30 138 1 63 134
M  V30 139 1 64 135
M  V30 140 1 64 136
M  V30 141 1 67 137
M  V30 142 1 68 138
M  V30 143 1 71 139 CFG=1
M  V30 144 1 72 140
M  V30 145 1 72 141
M  V30 146 1 74 142
M  V30 147 1 75 143
M  V30 148 1 77 144
M  V30 149 1 78 145
M  V30 150 1 79 146
M  V30 151 1 80 147
M  V30 152 1 80 148
M  V30 END BOND
M  V30 END CTAB
M  END
