
     RDKit          3D

  0  0  0  0  0  0  0  0  0  0999 V3000
M  V30 BEGIN CTAB
M  V30 COUNTS 31 31 0 0 0
M  V30 BEGIN ATOM
M  V30 1 C 5.73083 -0.180423 -0.720054 0
M  V30 2 C 4.27119 -0.0568567 -1.09592 0
M  V30 3 O 3.45796 -0.21164 0.0768969 0
M  V30 4 C 2.07978 -0.138724 -0.0073604 0
M  V30 5 O 1.58986 0.0672468 -1.15007 0
M  V30 6 C 1.19746 -0.294496 1.1899 0
M  V30 7 C -0.233596 -0.171862 0.81225 0
M  V30 8 C -0.989837 -1.25413 0.44087 0
M  V30 9 C -2.33723 -1.12238 0.0877352 0
M  V30 10 N -3.12751 -2.23078 -0.296975 0
M  V30 11 C -2.91249 0.143079 0.118085 0
M  V30 12 C -2.14209 1.22276 0.492989 0
M  V30 13 C -0.810965 1.08394 0.84056 0
M  V30 14 N -2.71896 2.52845 0.52892 0
M  V30 15 C -4.35516 0.309337 -0.25623 0
M  V30 16 F -5.15094 -0.452705 0.609569 0
M  V30 17 F -4.57361 -0.0345669 -1.56795 0
M  V30 18 F -4.7096 1.62439 -0.0275838 0
M  V30 19 H 6.07195 -1.21402 -0.666164 0
M  V30 20 H 6.37392 0.390374 -1.45146 0
M  V30 21 H 5.87897 0.361318 0.256818 0
M  V30 22 H 3.96704 -0.844098 -1.82723 0
M  V30 23 H 4.04991 0.910181 -1.59206 0
M  V30 24 H 1.35802 -1.33799 1.56761 0
M  V30 25 H 1.48951 0.384155 2.00029 0
M  V30 26 H -0.539595 -2.22048 0.420727 0
M  V30 27 H -3.22708 -2.45229 -1.30285 0
M  V30 28 H -3.59835 -2.81109 0.410052 0
M  V30 29 H -0.24938 1.9723 1.12901 0
M  V30 30 H -2.70875 3.06606 -0.377195 0
M  V30 31 H -3.13127 2.96494 1.35683 0
M  V30 END ATOM
M  V30 BEGIN BOND
M  V30 1 1 1 2
M  V30 2 1 2 3
M  V30 3 1 3 4
M  V30 4 2 4 5
M  V30 5 1 4 6
M  V30 6 1 6 7
M  V30 7 2 7 8
M  V30 8 1 8 9
M  V30 9 1 9 10
M  V30 10 2 9 11
M  V30 11 1 11 12
M  V30 12 2 12 13
M  V30 13 1 12 14
M  V30 14 1 11 15
M  V30 15 1 15 16
M  V30 16 1 15 17
M  V30 17 1 15 18
M  V30 18 1 13 7
M  V30 19 1 1 19
M  V30 20 1 1 20
M  V30 21 1 1 21
M  V30 22 1 2 22
M  V30 23 1 2 23
M  V30 24 1 6 24
M  V30 25 1 6 25
M  V30 26 1 8 26
M  V30 27 1 10 27
M  V30 28 1 10 28
M  V30 29 1 13 29
M  V30 30 1 14 30
M  V30 31 1 14 31
M  V30 END BOND
M  V30 END CTAB
M  END
