
     RDKit          3D

  0  0  0  0  0  0  0  0  0  0999 V3000
M  V30 BEGIN CTAB
M  V30 COUNTS 33 33 0 0 0
M  V30 BEGIN ATOM
M  V30 1 N -3.44718 1.84066 -0.353214 0
M  V30 2 C -2.67828 0.681067 0.0618046 0
M  V30 3 C -1.90537 0.213366 -1.14053 0
M  V30 4 C -1.62396 -1.25794 -0.934555 0
M  V30 5 C -0.266079 -1.38022 -0.336218 0
M  V30 6 N 0.173771 -0.250879 0.445087 0
M  V30 7 C -0.68339 0.131997 1.52125 0
M  V30 8 C -1.88566 0.911629 1.27692 0
M  V30 9 C 1.39905 -0.735811 1.11188 0
M  V30 10 C 2.53259 -0.972489 0.187141 0
M  V30 11 S 3.02664 0.498305 -0.669108 0
M  V30 12 O 1.84804 1.09428 -1.35434 0
M  V30 13 O 3.48178 1.47631 0.403496 0
M  V30 14 N 4.34282 0.171128 -1.72798 0
M  V30 15 H -3.06966 2.24486 -1.2383 0
M  V30 16 H -3.40467 2.58996 0.367715 0
M  V30 17 H -3.45169 -0.123976 0.256612 0
M  V30 18 H -2.60884 0.284257 -2.01529 0
M  V30 19 H -1.02517 0.809897 -1.36307 0
M  V30 20 H -2.35438 -1.68251 -0.186778 0
M  V30 21 H -1.72872 -1.81037 -1.90103 0
M  V30 22 H -0.0981811 -2.34667 0.184185 0
M  V30 23 H 0.45237 -1.43253 -1.21158 0
M  V30 24 H -0.013464 0.729422 2.2201 0
M  V30 25 H -0.864828 -0.810507 2.12473 0
M  V30 26 H -2.57345 0.75742 2.16603 0
M  V30 27 H -1.66446 2.02075 1.34702 0
M  V30 28 H 1.18045 -1.64019 1.72233 0
M  V30 29 H 1.74342 0.0333356 1.85981 0
M  V30 30 H 2.392 -1.82726 -0.503827 0
M  V30 31 H 3.42612 -1.25463 0.821176 0
M  V30 32 H 4.09535 0.531626 -2.67239 0
M  V30 33 H 5.25302 0.505709 -1.35702 0
M  V30 END ATOM
M  V30 BEGIN BOND
M  V30 1 1 1 2
M  V30 2 1 2 3
M  V30 3 1 3 4
M  V30 4 1 4 5
M  V30 5 1 5 6
M  V30 6 1 6 7
M  V30 7 1 7 8
M  V30 8 1 6 9
M  V30 9 1 9 10
M  V30 10 1 10 11
M  V30 11 2 11 12
M  V30 12 2 11 13
M  V30 13 1 11 14
M  V30 14 1 8 2
M  V30 15 1 1 15
M  V30 16 1 1 16
M  V30 17 1 2 17
M  V30 18 1 3 18
M  V30 19 1 3 19
M  V30 20 1 4 20
M  V30 21 1 4 21
M  V30 22 1 5 22
M  V30 23 1 5 23
M  V30 24 1 7 24
M  V30 25 1 7 25
M  V30 26 1 8 26
M  V30 27 1 8 27
M  V30 28 1 9 28
M  V30 29 1 9 29
M  V30 30 1 10 30
M  V30 31 1 10 31
M  V30 32 1 14 32
M  V30 33 1 14 33
M  V30 END BOND
M  V30 END CTAB
M  END
