
     RDKit          3D

  0  0  0  0  0  0  0  0  0  0999 V3000
M  V30 BEGIN CTAB
M  V30 COUNTS 51 54 0 0 0
M  V30 BEGIN ATOM
M  V30 1 C -1.6688 -3.53385 3.29733 0
M  V30 2 C -1.9785 -2.44211 2.32164 0
M  V30 3 N -3.07743 -2.21406 1.70783 0
M  V30 4 N -3.02503 -1.1242 0.878706 0
M  V30 5 C -1.70252 -0.58588 0.981113 0
M  V30 6 O -1.26935 0.404054 0.374681 0
M  V30 7 C -0.990883 -1.42652 1.92054 0
M  V30 8 C 0.262139 -1.37138 2.31619 0
M  V30 9 C 1.15441 -0.330775 1.87228 0
M  V30 10 C 1.06434 1.01499 1.98383 0
M  V30 11 C 2.18091 1.60582 1.39505 0
M  V30 12 C 2.9219 0.543051 0.937931 0
M  V30 13 O 2.30367 -0.570205 1.22778 0
M  V30 14 C 4.21733 0.675363 0.230259 0
M  V30 15 C 4.89235 -0.439776 -0.224458 0
M  V30 16 C 6.11328 -0.290368 -0.872321 0
M  V30 17 C 6.68365 0.942007 -1.08224 0
M  V30 18 C 5.99971 2.04454 -0.624546 0
M  V30 19 C 4.77776 1.90703 0.0256536 0
M  V30 20 S 8.22729 1.13815 -1.87994 0
M  V30 21 O 8.4806 -0.0134414 -2.81228 0
M  V30 22 O 8.2579 2.39907 -2.66698 0
M  V30 23 N 9.41769 1.1913 -0.625971 0
M  V30 24 C -4.11142 -0.645379 0.0727581 0
M  V30 25 C -3.98515 0.183653 -0.994072 0
M  V30 26 C -5.11636 0.593537 -1.71519 0
M  V30 27 C -6.37695 0.167662 -1.36006 0
M  V30 28 C -6.52062 -0.673722 -0.279684 0
M  V30 29 C -5.40632 -1.05705 0.403152 0
M  V30 30 S -7.81008 0.665074 -2.24274 0
M  V30 31 O -7.51446 0.870937 -3.69503 0
M  V30 32 O -8.87993 -0.383968 -2.11977 0
M  V30 33 N -8.42364 2.1165 -1.51641 0
M  V30 34 H -1.06287 -4.31907 2.81576 0
M  V30 35 H -2.61763 -3.98415 3.64554 0
M  V30 36 H -1.16265 -3.10347 4.19076 0
M  V30 37 H 0.616128 -2.16525 3.01423 0
M  V30 38 H 0.245414 1.55277 2.46847 0
M  V30 39 H 2.39467 2.65731 1.32723 0
M  V30 40 H 4.48001 -1.42921 -0.0821612 0
M  V30 41 H 6.67812 -1.14692 -1.24693 0
M  V30 42 H 6.4025 3.03129 -0.767585 0
M  V30 43 H 4.22904 2.75952 0.391156 0
M  V30 44 H 9.1195 0.613819 0.167155 0
M  V30 45 H 10.3692 1.01689 -0.984145 0
M  V30 46 H -3.03458 0.527 -1.2954 0
M  V30 47 H -5.03076 1.24653 -2.56206 0
M  V30 48 H -7.50443 -1.03403 0.0388195 0
M  V30 49 H -5.49259 -1.71951 1.26073 0
M  V30 50 H -9.4424 2.13541 -1.71523 0
M  V30 51 H -8.28415 2.00101 -0.487335 0
M  V30 END ATOM
M  V30 BEGIN BOND
M  V30 1 1 1 2
M  V30 2 2 2 3
M  V30 3 1 3 4
M  V30 4 1 4 5
M  V30 5 2 5 6
M  V30 6 1 5 7
M  V30 7 2 7 8
M  V30 8 1 8 9
M  V30 9 2 9 10
M  V30 10 1 10 11
M  V30 11 2 11 12
M  V30 12 1 12 13
M  V30 13 1 12 14
M  V30 14 2 14 15
M  V30 15 1 15 16
M  V30 16 2 16 17
M  V30 17 1 17 18
M  V30 18 2 18 19
M  V30 19 1 17 20
M  V30 20 2 20 21
M  V30 21 2 20 22
M  V30 22 1 20 23
M  V30 23 1 4 24
M  V30 24 2 24 25
M  V30 25 1 25 26
M  V30 26 2 26 27
M  V30 27 1 27 28
M  V30 28 2 28 29
M  V30 29 1 27 30
M  V30 30 2 30 31
M  V30 31 2 30 32
M  V30 32 1 30 33
M  V30 33 1 7 2
M  V30 34 1 13 9
M  V30 35 1 19 14
M  V30 36 1 29 24
M  V30 37 1 1 34
M  V30 38 1 1 35
M  V30 39 1 1 36
M  V30 40 1 8 37
M  V30 41 1 10 38
M  V30 42 1 11 39
M  V30 43 1 15 40
M  V30 44 1 16 41
M  V30 45 1 18 42
M  V30 46 1 19 43
M  V30 47 1 23 44
M  V30 48 1 23 45
M  V30 49 1 25 46
M  V30 50 1 26 47
M  V30 51 1 28 48
M  V30 52 1 29 49
M  V30 53 1 33 50
M  V30 54 1 33 51
M  V30 END BOND
M  V30 END CTAB
M  END
