
     RDKit          3D

  0  0  0  0  0  0  0  0  0  0999 V3000
M  V30 BEGIN CTAB
M  V30 COUNTS 42 44 0 0 0
M  V30 BEGIN ATOM
M  V30 1 N -2.47438 -2.16943 2.77908 0
M  V30 2 C -1.49803 -1.94439 2.1835 0
M  V30 3 C -0.299385 -1.65228 1.43904 0
M  V30 4 C 0.801537 -2.46545 1.54815 0
M  V30 5 N 0.762934 -3.61442 2.39717 0
M  V30 6 N 1.91722 -2.19555 0.863981 0
M  V30 7 C 2.03794 -1.14124 0.0453706 0
M  V30 8 C 0.966416 -0.288803 -0.105094 0
M  V30 9 C -0.193956 -0.548607 0.590427 0
M  V30 10 C -1.3581 0.298442 0.509626 0
M  V30 11 C -2.46402 0.175757 -0.286907 0
M  V30 12 C -2.74124 -0.897882 -1.26482 0
M  V30 13 C -2.02789 -0.790172 -2.56173 0
M  V30 14 N -3.25494 1.23501 0.0241776 0
M  V30 15 N -2.71163 1.9914 0.951297 0
M  V30 16 C -1.54077 1.45849 1.28633 0
M  V30 17 Cl -0.390349 2.03326 2.47389 0
M  V30 18 C -3.28023 3.21936 1.53314 0
M  V30 19 C 1.02443 0.911436 -0.982065 0
M  V30 20 C 2.45897 1.37205 -1.18421 0
M  V30 21 C 3.33364 0.20722 -1.61547 0
M  V30 22 C 3.31054 -0.92936 -0.659998 0
M  V30 23 N 2.94263 2.0352 -0.00958036 0
M  V30 24 H 0.472324 -3.52481 3.39552 0
M  V30 25 H 1.0229 -4.54812 2.03034 0
M  V30 26 H -2.43913 -1.86928 -0.798266 0
M  V30 27 H -3.85025 -1.01937 -1.42652 0
M  V30 28 H -2.21868 0.228398 -2.9804 0
M  V30 29 H -0.957612 -1.02656 -2.4787 0
M  V30 30 H -2.45563 -1.58103 -3.23558 0
M  V30 31 H -4.34816 2.98472 1.78583 0
M  V30 32 H -3.20301 4.00884 0.771039 0
M  V30 33 H -2.76889 3.43455 2.46926 0
M  V30 34 H 0.665039 0.687097 -2.00884 0
M  V30 35 H 0.430934 1.71599 -0.540271 0
M  V30 36 H 2.48007 2.10281 -2.02386 0
M  V30 37 H 3.05215 -0.0859283 -2.63888 0
M  V30 38 H 4.37019 0.606151 -1.67806 0
M  V30 39 H 4.10602 -0.791128 0.110117 0
M  V30 40 H 3.49087 -1.86056 -1.2537 0
M  V30 41 H 3.55515 2.83695 -0.195299 0
M  V30 42 H 3.27438 1.40122 0.740963 0
M  V30 END ATOM
M  V30 BEGIN BOND
M  V30 1 3 1 2
M  V30 2 1 2 3
M  V30 3 2 3 4
M  V30 4 1 4 5
M  V30 5 1 4 6
M  V30 6 2 6 7
M  V30 7 1 7 8
M  V30 8 2 8 9
M  V30 9 1 9 10
M  V30 10 1 10 11
M  V30 11 1 11 12
M  V30 12 1 12 13
M  V30 13 2 11 14
M  V30 14 1 14 15
M  V30 15 1 15 16
M  V30 16 1 16 17
M  V30 17 1 15 18
M  V30 18 1 8 19
M  V30 19 1 19 20
M  V30 20 1 20 21
M  V30 21 1 21 22
M  V30 22 1 20 23
M  V30 23 1 9 3
M  V30 24 2 16 10
M  V30 25 1 22 7
M  V30 26 1 5 24
M  V30 27 1 5 25
M  V30 28 1 12 26
M  V30 29 1 12 27
M  V30 30 1 13 28
M  V30 31 1 13 29
M  V30 32 1 13 30
M  V30 33 1 18 31
M  V30 34 1 18 32
M  V30 35 1 18 33
M  V30 36 1 19 34
M  V30 37 1 19 35
M  V30 38 1 20 36
M  V30 39 1 21 37
M  V30 40 1 21 38
M  V30 41 1 22 39
M  V30 42 1 22 40
M  V30 43 1 23 41
M  V30 44 1 23 42
M  V30 END BOND
M  V30 END CTAB
M  END
