
     RDKit          3D

  0  0  0  0  0  0  0  0  0  0999 V3000
M  V30 BEGIN CTAB
M  V30 COUNTS 33 35 0 0 0
M  V30 BEGIN ATOM
M  V30 1 C 5.77285 -0.755803 0.679248 0
M  V30 2 C 4.30475 -0.548346 0.5225 0
M  V30 3 N 3.77107 0.641294 0.191365 0
M  V30 4 C 2.4464 0.84661 0.0469056 0
M  V30 5 N 1.91754 2.03429 -0.280099 0
M  V30 6 C 0.584468 2.24997 -0.424402 0
M  V30 7 N 0.098714 3.54691 -0.773345 0
M  V30 8 C -0.25762 1.17018 -0.218027 0
M  V30 9 N 0.289781 -0.013274 0.108905 0
M  V30 10 C 1.60521 -0.224548 0.251397 0
M  V30 11 C 2.15202 -1.44399 0.590789 0
M  V30 12 N 1.25923 -2.55001 0.797241 0
M  V30 13 N 3.48912 -1.59667 0.723094 0
M  V30 14 C -1.68208 1.36037 -0.372372 0
M  V30 15 O -2.03962 2.55247 -0.713114 0
M  V30 16 C -2.73097 0.398395 -0.195798 0
M  V30 17 C -2.62359 -0.723414 0.580507 0
M  V30 18 C -3.70548 -1.62133 0.678789 0
M  V30 19 C -4.89229 -1.422 0.0193017 0
M  V30 20 C -5.00528 -0.296811 -0.760404 0
M  V30 21 C -3.95022 0.58668 -0.861878 0
M  V30 22 H 6.04313 -1.81168 0.564088 0
M  V30 23 H 6.3323 -0.134021 -0.0696357 0
M  V30 24 H 6.07801 -0.342022 1.67656 0
M  V30 25 H 0.0597887 3.90435 -1.75219 0
M  V30 26 H -0.248887 4.21125 -0.0258259 0
M  V30 27 H 0.242216 -2.40897 0.85677 0
M  V30 28 H 1.67952 -3.49169 0.881504 0
M  V30 29 H -1.73984 -0.939444 1.13174 0
M  V30 30 H -3.60213 -2.49938 1.29002 0
M  V30 31 H -5.71959 -2.10906 0.097697 0
M  V30 32 H -5.9204 -0.056964 -1.32433 0
M  V30 33 H -4.00812 1.48665 -1.47256 0
M  V30 END ATOM
M  V30 BEGIN BOND
M  V30 1 1 1 2
M  V30 2 2 2 3
M  V30 3 1 3 4
M  V30 4 2 4 5
M  V30 5 1 5 6
M  V30 6 1 6 7
M  V30 7 2 6 8
M  V30 8 1 8 9
M  V30 9 2 9 10
M  V30 10 1 10 11
M  V30 11 1 11 12
M  V30 12 2 11 13
M  V30 13 1 8 14
M  V30 14 2 14 15
M  V30 15 1 14 16
M  V30 16 2 16 17
M  V30 17 1 17 18
M  V30 18 2 18 19
M  V30 19 1 19 20
M  V30 20 2 20 21
M  V30 21 1 13 2
M  V30 22 1 21 16
M  V30 23 1 10 4
M  V30 24 1 1 22
M  V30 25 1 1 23
M  V30 26 1 1 24
M  V30 27 1 7 25
M  V30 28 1 7 26
M  V30 29 1 12 27
M  V30 30 1 12 28
M  V30 31 1 17 29
M  V30 32 1 18 30
M  V30 33 1 19 31
M  V30 34 1 20 32
M  V30 35 1 21 33
M  V30 END BOND
M  V30 END CTAB
M  END
