
     RDKit          3D

  0  0  0  0  0  0  0  0  0  0999 V3000
M  V30 BEGIN CTAB
M  V30 COUNTS 28 28 0 0 0
M  V30 BEGIN ATOM
M  V30 1 C -2.46162 1.31143 -0.860752 0
M  V30 2 C -3.15952 0.122982 -0.296198 0
M  V30 3 C -2.3649 -1.11991 -0.123455 0
M  V30 4 N -1.23026 -1.05568 0.723573 0
M  V30 5 C 0.0542732 -0.620097 0.289206 0
M  V30 6 C 0.412265 -0.432222 -1.02299 0
M  V30 7 C 1.69956 -0.0410436 -1.38541 0
M  V30 8 C 2.68773 0.178996 -0.450718 0
M  V30 9 C 2.33977 -0.00766784 0.870314 0
M  V30 10 C 1.07004 -0.393186 1.23073 0
M  V30 11 F 0.727611 -0.57675 2.54071 0
M  V30 12 N 3.35165 0.215566 1.85038 0
M  V30 13 N 3.99987 0.578781 -0.835831 0
M  V30 14 O -3.67151 0.541665 0.953985 0
M  V30 15 H -3.25288 2.1165 -0.945083 0
M  V30 16 H -2.12847 1.17939 -1.92383 0
M  V30 17 H -1.69232 1.75308 -0.21048 0
M  V30 18 H -4.00789 -0.119211 -0.990102 0
M  V30 19 H -3.06657 -1.90687 0.285933 0
M  V30 20 H -2.05824 -1.56582 -1.11427 0
M  V30 21 H -1.33473 -1.35064 1.75074 0
M  V30 22 H -0.335295 -0.617739 -1.80341 0
M  V30 23 H 1.93761 0.0963078 -2.43512 0
M  V30 24 H 4.30084 -0.193367 1.75163 0
M  V30 25 H 3.14023 0.797889 2.68118 0
M  V30 26 H 4.21449 1.40903 -1.42275 0
M  V30 27 H 4.79867 0.00134235 -0.50803 0
M  V30 28 H -3.9704 -0.30276 1.40006 0
M  V30 END ATOM
M  V30 BEGIN BOND
M  V30 1 1 1 2
M  V30 2 1 2 3
M  V30 3 1 3 4
M  V30 4 1 4 5
M  V30 5 2 5 6
M  V30 6 1 6 7
M  V30 7 2 7 8
M  V30 8 1 8 9
M  V30 9 2 9 10
M  V30 10 1 10 11
M  V30 11 1 9 12
M  V30 12 1 8 13
M  V30 13 1 2 14
M  V30 14 1 10 5
M  V30 15 1 1 15
M  V30 16 1 1 16
M  V30 17 1 1 17
M  V30 18 1 2 18
M  V30 19 1 3 19
M  V30 20 1 3 20
M  V30 21 1 4 21
M  V30 22 1 6 22
M  V30 23 1 7 23
M  V30 24 1 12 24
M  V30 25 1 12 25
M  V30 26 1 13 26
M  V30 27 1 13 27
M  V30 28 1 14 28
M  V30 END BOND
M  V30 END CTAB
M  END
