
     RDKit          3D

  0  0  0  0  0  0  0  0  0  0999 V3000
M  V30 BEGIN CTAB
M  V30 COUNTS 38 39 0 0 0
M  V30 BEGIN ATOM
M  V30 1 N -0.122256 3.57791 0.124423 0
M  V30 2 N -0.350748 2.2327 0.329604 0
M  V30 3 C -1.505 1.68512 0.145324 0
M  V30 4 C -1.73148 0.278868 0.362942 0
M  V30 5 C -3.07645 -0.295559 0.135774 0
M  V30 6 C -4.13918 0.440827 -0.276328 0
M  V30 7 C -5.3854 -0.1409 -0.477158 0
M  V30 8 C -5.51147 -1.49347 -0.244664 0
M  V30 9 C -4.46144 -2.27769 0.173583 0
M  V30 10 C -3.25364 -1.66394 0.358461 0
M  V30 11 N -0.77016 -0.463521 0.750586 0
M  V30 12 N 0.490766 0.0257882 0.973171 0
M  V30 13 C 1.47737 -0.420706 0.218438 0
M  V30 14 C 1.1226 -1.38802 -0.776619 0
M  V30 15 N 1.90275 -1.95278 -1.60883 0
M  V30 16 N 1.51496 -2.88741 -2.55881 0
M  V30 17 C 2.80697 0.100818 0.494709 0
M  V30 18 C 3.94491 -0.205383 -0.196177 0
M  V30 19 C 5.21578 0.311012 0.113906 0
M  V30 20 C 5.31912 1.16796 1.16581 0
M  V30 21 C 4.19296 1.5074 1.89514 0
M  V30 22 C 2.96686 0.990717 1.57284 0
M  V30 23 H -0.825251 4.14535 -0.391916 0
M  V30 24 H 0.74274 4.02368 0.480788 0
M  V30 25 H -2.27596 2.3774 -0.184491 0
M  V30 26 H -4.05817 1.48961 -0.460832 0
M  V30 27 H -6.24329 0.436417 -0.806483 0
M  V30 28 H -6.46935 -2.01104 -0.385259 0
M  V30 29 H -4.55406 -3.33284 0.356404 0
M  V30 30 H -2.40323 -2.26268 0.690082 0
M  V30 31 H 0.0683297 -1.72343 -0.884566 0
M  V30 32 H 1.57754 -2.62139 -3.56193 0
M  V30 33 H 1.16508 -3.83857 -2.33298 0
M  V30 34 H 3.90216 -0.880323 -1.04103 0
M  V30 35 H 6.07639 0.0332265 -0.46662 0
M  V30 36 H 6.28499 1.58515 1.43262 0
M  V30 37 H 4.29454 2.18808 2.72535 0
M  V30 38 H 2.06969 1.2616 2.15473 0
M  V30 END ATOM
M  V30 BEGIN BOND
M  V30 1 1 1 2
M  V30 2 2 2 3
M  V30 3 1 3 4
M  V30 4 1 4 5
M  V30 5 2 5 6
M  V30 6 1 6 7
M  V30 7 2 7 8
M  V30 8 1 8 9
M  V30 9 2 9 10
M  V30 10 2 4 11
M  V30 11 1 11 12
M  V30 12 2 12 13
M  V30 13 1 13 14
M  V30 14 2 14 15
M  V30 15 1 15 16
M  V30 16 1 13 17
M  V30 17 2 17 18
M  V30 18 1 18 19
M  V30 19 2 19 20
M  V30 20 1 20 21
M  V30 21 2 21 22
M  V30 22 1 10 5
M  V30 23 1 22 17
M  V30 24 1 1 23
M  V30 25 1 1 24
M  V30 26 1 3 25
M  V30 27 1 6 26
M  V30 28 1 7 27
M  V30 29 1 8 28
M  V30 30 1 9 29
M  V30 31 1 10 30
M  V30 32 1 14 31
M  V30 33 1 16 32
M  V30 34 1 16 33
M  V30 35 1 18 34
M  V30 36 1 19 35
M  V30 37 1 20 36
M  V30 38 1 21 37
M  V30 39 1 22 38
M  V30 END BOND
M  V30 END CTAB
M  END
