
     RDKit          3D

  0  0  0  0  0  0  0  0  0  0999 V3000
M  V30 BEGIN CTAB
M  V30 COUNTS 48 50 0 0 0
M  V30 BEGIN ATOM
M  V30 1 C -4.20617 0.368003 -3.21523 0
M  V30 2 O -4.40848 0.787847 -1.85734 0
M  V30 3 C -3.43971 0.48212 -0.947798 0
M  V30 4 C -3.60467 0.748566 0.406053 0
M  V30 5 O -4.74732 1.34797 0.895142 0
M  V30 6 C -4.71225 2.78035 1.0866 0
M  V30 7 C -2.57272 0.376583 1.24211 0
M  V30 8 O -2.79804 0.699462 2.6388 0
M  V30 9 C -3.49216 -0.313896 3.39571 0
M  V30 10 C -1.4218 -0.214935 0.876571 0
M  V30 11 Br -0.0635723 -0.673598 2.09191 0
M  V30 12 C -1.24023 -0.496485 -0.512359 0
M  V30 13 C -0.0562645 -1.23465 -0.929842 0
M  V30 14 N 1.15356 -0.565656 -0.727429 0
M  V30 15 C 1.27404 0.779532 -1.09957 0
M  V30 16 C 2.50186 1.40355 -0.457468 0
M  V30 17 C 3.48827 0.421914 0.0167774 0
M  V30 18 C 3.46319 -0.875709 -0.39397 0
M  V30 19 C 2.28898 -1.36235 -1.19983 0
M  V30 20 C 4.40615 -1.79718 -0.0058327 0
M  V30 21 N 4.4165 -3.13028 -0.451582 0
M  V30 22 N 5.37793 -1.33072 0.829871 0
M  V30 23 C 5.43821 -0.0799528 1.26036 0
M  V30 24 N 6.47333 0.314359 2.15324 0
M  V30 25 N 4.48472 0.809326 0.849489 0
M  V30 26 C -2.24991 -0.122343 -1.30532 0
M  V30 27 H -4.02745 -0.76085 -3.15495 0
M  V30 28 H -5.09764 0.595692 -3.83524 0
M  V30 29 H -3.28072 0.833608 -3.57293 0
M  V30 30 H -4.657 3.27241 0.096956 0
M  V30 31 H -3.78382 3.0054 1.64924 0
M  V30 32 H -5.59313 3.11592 1.70281 0
M  V30 33 H -3.63955 0.0531397 4.43588 0
M  V30 34 H -2.89297 -1.25677 3.4278 0
M  V30 35 H -4.49654 -0.48947 2.94077 0
M  V30 36 H -0.198191 -1.41348 -2.08431 0
M  V30 37 H -0.0539939 -2.26211 -0.520329 0
M  V30 38 H 0.40574 1.32796 -0.650875 0
M  V30 39 H 1.2364 0.99923 -2.15534 0
M  V30 40 H 3.00755 1.97046 -1.30584 0
M  V30 41 H 2.2835 2.11275 0.335586 0
M  V30 42 H 2.5439 -1.16632 -2.25386 0
M  V30 43 H 2.09761 -2.40484 -1.01153 0
M  V30 44 H 5.0032 -3.41936 -1.25232 0
M  V30 45 H 3.83942 -3.83717 0.0297233 0
M  V30 46 H 6.5823 1.33179 2.40714 0
M  V30 47 H 7.09306 -0.430785 2.52453 0
M  V30 48 H -2.12509 -0.299026 -2.39198 0
M  V30 END ATOM
M  V30 BEGIN BOND
M  V30 1 1 1 2
M  V30 2 1 2 3
M  V30 3 2 3 4
M  V30 4 1 4 5
M  V30 5 1 5 6
M  V30 6 1 4 7
M  V30 7 1 7 8
M  V30 8 1 8 9
M  V30 9 2 7 10
M  V30 10 1 10 11
M  V30 11 1 10 12
M  V30 12 1 12 13
M  V30 13 1 13 14
M  V30 14 1 14 15
M  V30 15 1 15 16
M  V30 16 1 16 17
M  V30 17 2 17 18
M  V30 18 1 18 19
M  V30 19 1 18 20
M  V30 20 1 20 21
M  V30 21 2 20 22
M  V30 22 1 22 23
M  V30 23 1 23 24
M  V30 24 2 23 25
M  V30 25 2 12 26
M  V30 26 1 26 3
M  V30 27 1 19 14
M  V30 28 1 25 17
M  V30 29 1 1 27
M  V30 30 1 1 28
M  V30 31 1 1 29
M  V30 32 1 6 30
M  V30 33 1 6 31
M  V30 34 1 6 32
M  V30 35 1 9 33
M  V30 36 1 9 34
M  V30 37 1 9 35
M  V30 38 1 13 36
M  V30 39 1 13 37
M  V30 40 1 15 38
M  V30 41 1 15 39
M  V30 42 1 16 40
M  V30 43 1 16 41
M  V30 44 1 19 42
M  V30 45 1 19 43
M  V30 46 1 21 44
M  V30 47 1 21 45
M  V30 48 1 24 46
M  V30 49 1 24 47
M  V30 50 1 26 48
M  V30 END BOND
M  V30 END CTAB
M  END
