
     RDKit          3D

  0  0  0  0  0  0  0  0  0  0999 V3000
M  V30 BEGIN CTAB
M  V30 COUNTS 23 23 0 0 0
M  V30 BEGIN ATOM
M  V30 1 N 4.19531 0.893855 -0.684909 0
M  V30 2 C 4.2843 0.0481058 0.438627 0
M  V30 3 S 5.80469 -0.425416 0.873597 0
M  V30 4 N 3.15015 -0.388975 1.175 0
M  V30 5 N 1.84323 -0.0283341 0.863388 0
M  V30 6 C 0.851757 -0.833584 0.888694 0
M  V30 7 C -0.51305 -0.438961 0.558916 0
M  V30 8 C -1.54178 -1.35218 0.604011 0
M  V30 9 C -2.84404 -1.03063 0.302691 0
M  V30 10 C -3.15286 0.273229 -0.0665371 0
M  V30 11 N -4.49272 0.596576 -0.374733 0
M  V30 12 C -2.12334 1.17545 -0.10883 0
M  V30 13 C -0.817194 0.854616 0.192982 0
M  V30 14 H 4.07313 1.90549 -0.552889 0
M  V30 15 H 4.25304 0.494475 -1.62918 0
M  V30 16 H 3.29403 -1.01291 1.99353 0
M  V30 17 H 1.04229 -1.85881 1.17005 0
M  V30 18 H -1.289 -2.37964 0.896569 0
M  V30 19 H -3.59394 -1.78886 0.357985 0
M  V30 20 H -4.83866 1.56272 -0.211635 0
M  V30 21 H -5.1755 -0.0864198 -0.764872 0
M  V30 22 H -2.36561 2.1878 -0.395909 0
M  V30 23 H -0.0442346 1.6324 0.136884 0
M  V30 END ATOM
M  V30 BEGIN BOND
M  V30 1 1 1 2
M  V30 2 2 2 3
M  V30 3 1 2 4
M  V30 4 1 4 5
M  V30 5 2 5 6
M  V30 6 1 6 7
M  V30 7 2 7 8
M  V30 8 1 8 9
M  V30 9 2 9 10
M  V30 10 1 10 11
M  V30 11 1 10 12
M  V30 12 2 12 13
M  V30 13 1 13 7
M  V30 14 1 1 14
M  V30 15 1 1 15
M  V30 16 1 4 16
M  V30 17 1 6 17
M  V30 18 1 8 18
M  V30 19 1 9 19
M  V30 20 1 11 20
M  V30 21 1 11 21
M  V30 22 1 12 22
M  V30 23 1 13 23
M  V30 END BOND
M  V30 END CTAB
M  END
