
     RDKit          3D

  0  0  0  0  0  0  0  0  0  0999 V3000
M  V30 BEGIN CTAB
M  V30 COUNTS 48 51 0 0 0
M  V30 BEGIN ATOM
M  V30 1 N -4.63975 -3.21805 0.666771 0
M  V30 2 C -4.36358 -1.82743 0.627783 0
M  V30 3 N -5.34304 -0.91072 0.556328 0
M  V30 4 C -5.01724 0.383747 0.522431 0
M  V30 5 N -6.04653 1.35087 0.447375 0
M  V30 6 N -3.7448 0.738972 0.559662 0
M  V30 7 C -2.69342 -0.120849 0.631953 0
M  V30 8 C -3.02776 -1.44472 0.666606 0
M  V30 9 N -1.39021 0.3915 0.664371 0
M  V30 10 C -1.29975 1.85975 0.580043 0
M  V30 11 C -0.48371 2.19918 -0.625008 0 CFG=2
M  V30 12 C -0.704343 1.22056 -1.74812 0
M  V30 13 C 0.0904871 -0.03144 -1.61485 0
M  V30 14 C 0.823602 -0.112261 -0.294706 0 CFG=2
M  V30 15 C -0.234874 -0.420709 0.772192 0
M  V30 16 N 1.58033 1.04479 0.0382082 0
M  V30 17 C 0.962898 2.30194 -0.222983 0
M  V30 18 C 2.88861 1.01944 -0.50929 0
M  V30 19 C 3.77864 -0.0481841 -0.0734684 0
M  V30 20 C 3.65676 -0.69209 1.13714 0
M  V30 21 C 4.52524 -1.7066 1.51737 0
M  V30 22 C 5.53985 -2.09102 0.673778 0
M  V30 23 C 5.68228 -1.46479 -0.537853 0
M  V30 24 C 4.80227 -0.449508 -0.90271 0
M  V30 25 H -3.92125 -3.91759 0.406128 0
M  V30 26 H -5.57685 -3.56058 0.960128 0
M  V30 27 H -6.64966 1.39514 -0.392921 0
M  V30 28 H -6.19694 2.01277 1.22962 0
M  V30 29 H -2.23571 -2.17128 0.723755 0
M  V30 30 H -0.841854 2.26156 1.50975 0
M  V30 31 H -2.3102 2.29639 0.486484 0
M  V30 32 H -0.825123 3.19005 -1.00018 0
M  V30 33 H -0.517119 1.70755 -2.74859 0
M  V30 34 H -1.78199 0.961363 -1.75861 0
M  V30 35 H 0.804592 -0.143462 -2.46519 0
M  V30 36 H -0.549526 -0.955181 -1.66875 0
M  V30 37 H 1.51161 -0.984665 -0.37114 0
M  V30 38 H 0.274926 -0.127908 1.74001 0
M  V30 39 H -0.343334 -1.49322 0.793362 0
M  V30 40 H 1.02859 2.95706 0.663441 0
M  V30 41 H 1.48971 2.86235 -1.05038 0
M  V30 42 H 2.89177 1.06793 -1.62465 0
M  V30 43 H 3.38654 1.99055 -0.208315 0
M  V30 44 H 2.87825 -0.433528 1.84348 0
M  V30 45 H 4.43999 -2.22315 2.4703 0
M  V30 46 H 6.23454 -2.87735 0.937244 0
M  V30 47 H 6.4879 -1.78439 -1.18551 0
M  V30 48 H 4.9792 -0.00279617 -1.87605 0
M  V30 END ATOM
M  V30 BEGIN BOND
M  V30 1 1 1 2
M  V30 2 2 2 3
M  V30 3 1 3 4
M  V30 4 1 4 5
M  V30 5 2 4 6
M  V30 6 1 6 7
M  V30 7 2 7 8
M  V30 8 1 7 9
M  V30 9 1 9 10
M  V30 10 1 10 11
M  V30 11 1 11 12
M  V30 12 1 12 13
M  V30 13 1 13 14
M  V30 14 1 14 15
M  V30 15 1 14 16
M  V30 16 1 16 17
M  V30 17 1 16 18
M  V30 18 1 18 19
M  V30 19 2 19 20
M  V30 20 1 20 21
M  V30 21 2 21 22
M  V30 22 1 22 23
M  V30 23 2 23 24
M  V30 24 1 8 2
M  V30 25 1 15 9
M  V30 26 1 24 19
M  V30 27 1 17 11
M  V30 28 1 1 25
M  V30 29 1 1 26
M  V30 30 1 5 27
M  V30 31 1 5 28
M  V30 32 1 8 29
M  V30 33 1 10 30
M  V30 34 1 10 31
M  V30 35 1 11 32 CFG=3
M  V30 36 1 12 33
M  V30 37 1 12 34
M  V30 38 1 13 35
M  V30 39 1 13 36
M  V30 40 1 14 37 CFG=3
M  V30 41 1 15 38
M  V30 42 1 15 39
M  V30 43 1 17 40
M  V30 44 1 17 41
M  V30 45 1 18 42
M  V30 46 1 18 43
M  V30 47 1 20 44
M  V30 48 1 21 45
M  V30 49 1 22 46
M  V30 50 1 23 47
M  V30 51 1 24 48
M  V30 END BOND
M  V30 END CTAB
M  END
