
     RDKit          3D

  0  0  0  0  0  0  0  0  0  0999 V3000
M  V30 BEGIN CTAB
M  V30 COUNTS 29 29 0 0 0
M  V30 BEGIN ATOM
M  V30 1 C 4.82353 0.734487 -0.0910086 0
M  V30 2 O 4.19973 -0.390222 -0.536741 0
M  V30 3 C 2.8342 -0.281176 -0.741867 0
M  V30 4 C 2.05311 0.0679385 0.482742 0
M  V30 5 O 0.695251 0.185192 0.352297 0
M  V30 6 C -0.303125 -0.64011 0.0126029 0
M  V30 7 C -0.0998623 -1.95831 -0.298907 0
M  V30 8 C -1.16358 -2.7993 -0.649335 0
M  V30 9 Cl -0.886097 -4.49493 -1.04864 0
M  V30 10 C -2.44019 -2.29247 -0.681378 0
M  V30 11 N -2.61802 -0.997658 -0.37213 0
M  V30 12 C -1.62458 -0.163902 -0.0327029 0
M  V30 13 N -1.9141 1.18897 0.277318 0
M  V30 14 C -3.06438 1.73932 0.272729 0
M  V30 15 N -3.19463 3.10996 0.607465 0
M  V30 16 N -4.20947 0.986328 -0.0651638 0
M  V30 17 H 4.45442 1.07782 0.873444 0
M  V30 18 H 5.90996 0.480386 0.0758931 0
M  V30 19 H 4.80171 1.55548 -0.864357 0
M  V30 20 H 2.51115 -1.17673 -1.27701 0
M  V30 21 H 2.68704 0.551594 -1.51017 0
M  V30 22 H 2.48158 1.006 0.929495 0
M  V30 23 H 2.26406 -0.712077 1.27273 0
M  V30 24 H 0.855884 -2.45685 -0.293538 0
M  V30 25 H -3.25528 -2.9574 -0.955156 0
M  V30 26 H -2.34605 3.70271 0.770755 0
M  V30 27 H -4.11781 3.58573 0.705673 0
M  V30 28 H -4.70518 1.04289 -0.98753 0
M  V30 29 H -4.62929 0.306328 0.630466 0
M  V30 END ATOM
M  V30 BEGIN BOND
M  V30 1 1 1 2
M  V30 2 1 2 3
M  V30 3 1 3 4
M  V30 4 1 4 5
M  V30 5 1 5 6
M  V30 6 2 6 7
M  V30 7 1 7 8
M  V30 8 1 8 9
M  V30 9 2 8 10
M  V30 10 1 10 11
M  V30 11 2 11 12
M  V30 12 1 12 13
M  V30 13 2 13 14
M  V30 14 1 14 15
M  V30 15 1 14 16
M  V30 16 1 12 6
M  V30 17 1 1 17
M  V30 18 1 1 18
M  V30 19 1 1 19
M  V30 20 1 3 20
M  V30 21 1 3 21
M  V30 22 1 4 22
M  V30 23 1 4 23
M  V30 24 1 7 24
M  V30 25 1 10 25
M  V30 26 1 15 26
M  V30 27 1 15 27
M  V30 28 1 16 28
M  V30 29 1 16 29
M  V30 END BOND
M  V30 END CTAB
M  END
