
     RDKit          3D

  0  0  0  0  0  0  0  0  0  0999 V3000
M  V30 BEGIN CTAB
M  V30 COUNTS 142 147 0 0 0
M  V30 BEGIN ATOM
M  V30 1 C 6.60877 -1.55789 1.28738 0
M  V30 2 C 5.73313 -1.97511 0.123675 0 CFG=1
M  V30 3 O 5.04616 -3.14086 0.374158 0
M  V30 4 C 4.74084 -0.862437 -0.247592 0 CFG=2
M  V30 5 N 4.04165 -1.3101 -1.43458 0
M  V30 6 C 2.69385 -1.50656 -1.64553 0
M  V30 7 O 2.1052 -0.84031 -2.57387 0
M  V30 8 C 1.76436 -2.43032 -0.916233 0 CFG=2
M  V30 9 C 1.50664 -3.56633 -1.88776 0
M  V30 10 C 2.80017 -4.24851 -2.25845 0
M  V30 11 C 2.53759 -5.38668 -3.21396 0
M  V30 12 C 1.89943 -4.92088 -4.47491 0
M  V30 13 N 2.7876 -3.96024 -5.09952 0
M  V30 14 N 0.582135 -1.6645 -0.594183 0
M  V30 15 C -0.761018 -1.95573 -0.760607 0
M  V30 16 O -1.4522 -1.15472 -1.49992 0
M  V30 17 C -1.53765 -3.08955 -0.193715 0 CFG=1
M  V30 18 C -0.978918 -3.62968 1.0602 0
M  V30 19 C -1.67902 -4.75901 1.69539 0
M  V30 20 C -1.35867 -6.0948 1.4168 0
M  V30 21 N -2.18694 -6.88952 2.10359 0
M  V30 22 C -3.0461 -6.15711 2.82992 0
M  V30 23 C -2.72928 -4.83505 2.57585 0
M  V30 24 C -3.45078 -3.86313 3.21335 0
M  V30 25 C -4.46327 -4.19401 4.07989 0
M  V30 26 C -4.77507 -5.51359 4.32728 0
M  V30 27 C -4.06087 -6.50993 3.69718 0
M  V30 28 N -2.94741 -2.90317 -0.15682 0
M  V30 29 C -3.78188 -1.85317 -0.480116 0
M  V30 30 O -4.5171 -2.03971 -1.53947 0
M  V30 31 C -4.00217 -0.53646 0.161138 0 CFG=2
M  V30 32 C -5.11038 -0.649945 1.23083 0
M  V30 33 C -6.37915 -1.10841 0.678637 0
M  V30 34 C -7.29498 -0.202364 0.207026 0
M  V30 35 C -8.50981 -0.572448 -0.324523 0
M  V30 36 C -8.82144 -1.92928 -0.38537 0
M  V30 37 C -7.89034 -2.83954 0.093573 0
M  V30 38 C -6.68044 -2.45247 0.621878 0
M  V30 39 N -4.46418 0.446788 -0.828172 0
M  V30 40 C -4.04802 1.76938 -0.938638 0
M  V30 41 O -3.68197 2.17809 -2.09823 0
M  V30 42 C -3.97117 2.79054 0.131753 0 CFG=2
M  V30 43 C -5.27408 3.59569 0.251048 0
M  V30 44 C -5.62377 4.30099 -0.982397 0
M  V30 45 C -6.39893 3.66491 -1.91082 0
M  V30 46 C -6.74134 4.30168 -3.07448 0
M  V30 47 C -6.28849 5.58683 -3.28203 0
M  V30 48 C -5.50405 6.27761 -2.3813 0
M  V30 49 C -5.19095 5.57741 -1.22036 0
M  V30 50 N -2.94655 3.76237 -0.158229 0
M  V30 51 C -2.2069 4.45075 0.830499 0
M  V30 52 O -2.0091 5.7027 0.718815 0
M  V30 53 C -1.61945 3.79015 2.04079 0 CFG=1
M  V30 54 N -2.64004 3.61189 3.0665 0
M  V30 55 C -0.96148 2.46999 1.69358 0
M  V30 56 S -0.111295 2.65276 0.100226 0
M  V30 57 S 0.818952 4.56395 0.0438349 0
M  V30 58 C 2.27552 4.55326 -1.00011 0
M  V30 59 C 3.55606 4.74899 -0.172384 0 CFG=2
M  V30 60 N 3.42717 3.9878 1.04761 0
M  V30 61 C 3.88983 2.67839 1.28077 0
M  V30 62 O 3.07462 1.83556 1.79656 0
M  V30 63 C 5.24849 2.16266 0.986675 0 CFG=2
M  V30 64 C 6.30887 3.23081 1.27586 0
M  V30 65 C 7.68046 2.73598 0.980191 0
M  V30 66 C 8.24312 2.88895 -0.266517 0
M  V30 67 C 9.51591 2.41777 -0.49347 0
M  V30 68 C 10.2511 1.79697 0.481812 0
M  V30 69 C 9.70249 1.6374 1.73108 0
M  V30 70 C 8.43239 2.10964 1.95082 0
M  V30 71 N 5.40418 1.63413 -0.338169 0
M  V30 72 C 5.58173 0.299486 -0.724832 0
M  V30 73 O 6.50516 -0.0445641 -1.5437 0
M  V30 74 C 3.59009 6.22614 0.121298 0
M  V30 75 O 3.71083 7.06921 -0.974077 0
M  V30 76 O 3.51151 6.64336 1.30463 0
M  V30 77 H 7.13821 -2.40341 1.73209 0
M  V30 78 H 5.90703 -1.06618 2.02276 0
M  V30 79 H 7.28347 -0.756673 0.923102 0
M  V30 80 H 6.34667 -2.12646 -0.793885 0
M  V30 81 H 5.43708 -3.56688 1.17414 0
M  V30 82 H 4.08328 -0.593289 0.576445 0
M  V30 83 H 4.69207 -1.50099 -2.26376 0
M  V30 84 H 2.2336 -2.79552 -0.0107043 0
M  V30 85 H 0.972772 -3.24848 -2.77756 0
M  V30 86 H 0.931296 -4.36086 -1.32517 0
M  V30 87 H 3.28008 -4.71904 -1.3572 0
M  V30 88 H 3.52944 -3.5282 -2.66823 0
M  V30 89 H 3.51041 -5.89325 -3.4663 0
M  V30 90 H 1.93064 -6.18457 -2.70445 0
M  V30 91 H 1.80856 -5.77692 -5.18988 0
M  V30 92 H 0.883749 -4.54378 -4.28667 0
M  V30 93 H 2.27476 -3.18279 -5.55897 0
M  V30 94 H 3.43754 -4.44795 -5.75477 0
M  V30 95 H 0.815881 -0.708746 -0.164204 0
M  V30 96 H -1.31849 -3.92733 -0.975649 0
M  V30 97 H -0.905361 -2.84838 1.87703 0
M  V30 98 H 0.102242 -3.88322 0.874157 0
M  V30 99 H -0.587216 -6.4238 0.768517 0
M  V30 100 H -2.21995 -7.94671 2.12211 0
M  V30 101 H -3.19233 -2.83148 3.01417 0
M  V30 102 H -5.0562 -3.45532 4.60195 0
M  V30 103 H -5.58467 -5.78228 5.02003 0
M  V30 104 H -4.3126 -7.56225 3.8961 0
M  V30 105 H -3.46798 -3.79919 0.171153 0
M  V30 106 H -3.11455 -0.173691 0.717021 0
M  V30 107 H -4.72579 -1.32215 2.01053 0
M  V30 108 H -5.19224 0.353463 1.73482 0
M  V30 109 H -7.05996 0.846062 0.251423 0
M  V30 110 H -9.20078 0.176402 -0.684835 0
M  V30 111 H -9.76664 -2.19093 -0.80133 0
M  V30 112 H -8.14926 -3.89931 0.0383084 0
M  V30 113 H -6.01452 -3.23236 0.971465 0
M  V30 114 H -5.18227 0.0761239 -1.50906 0
M  V30 115 H -3.84616 2.33265 1.13689 0
M  V30 116 H -6.07562 2.95497 0.664151 0
M  V30 117 H -5.04318 4.33033 1.07821 0
M  V30 118 H -6.74158 2.65481 -1.722 0
M  V30 119 H -7.36808 3.8038 -3.83931 0
M  V30 120 H -6.56474 6.08635 -4.20988 0
M  V30 121 H -5.15745 7.28825 -2.56221 0
M  V30 122 H -4.57389 6.1341 -0.515722 0
M  V30 123 H -2.73971 3.97089 -1.15878 0
M  V30 124 H -0.83753 4.42927 2.49972 0
M  V30 125 H -2.43954 2.80093 3.68936 0
M  V30 126 H -2.72609 4.45373 3.68854 0
M  V30 127 H -1.6369 1.61413 1.72815 0
M  V30 128 H -0.175895 2.28121 2.47578 0
M  V30 129 H 2.32521 3.59451 -1.57598 0
M  V30 130 H 2.1603 5.36083 -1.75268 0
M  V30 131 H 4.36695 4.45666 -0.831689 0
M  V30 132 H 2.92292 4.48382 1.8441 0
M  V30 133 H 5.5167 1.33971 1.71505 0
M  V30 134 H 6.30936 3.4519 2.3851 0
M  V30 135 H 6.0807 4.18565 0.7893 0
M  V30 136 H 7.68484 3.37607 -1.05566 0
M  V30 137 H 9.94663 2.55194 -1.50279 0
M  V30 138 H 11.2475 1.45718 0.211865 0
M  V30 139 H 10.3051 1.14305 2.48481 0
M  V30 140 H 7.99645 1.98079 2.94841 0
M  V30 141 H 5.38844 2.33702 -1.13797 0
M  V30 142 H 4.64803 7.37289 -1.21652 0
M  V30 END ATOM
M  V30 BEGIN BOND
M  V30 1 1 1 2
M  V30 2 1 2 3
M  V30 3 1 2 4
M  V30 4 1 4 5
M  V30 5 1 5 6
M  V30 6 2 6 7
M  V30 7 1 6 8
M  V30 8 1 8 9
M  V30 9 1 9 10
M  V30 10 1 10 11
M  V30 11 1 11 12
M  V30 12 1 12 13
M  V30 13 1 8 14
M  V30 14 1 14 15
M  V30 15 2 15 16
M  V30 16 1 15 17
M  V30 17 1 17 18
M  V30 18 1 18 19
M  V30 19 2 19 20
M  V30 20 1 20 21
M  V30 21 1 21 22
M  V30 22 2 22 23
M  V30 23 1 23 24
M  V30 24 2 24 25
M  V30 25 1 25 26
M  V30 26 2 26 27
M  V30 27 1 17 28
M  V30 28 1 28 29
M  V30 29 2 29 30
M  V30 30 1 29 31
M  V30 31 1 31 32
M  V30 32 1 32 33
M  V30 33 2 33 34
M  V30 34 1 34 35
M  V30 35 2 35 36
M  V30 36 1 36 37
M  V30 37 2 37 38
M  V30 38 1 31 39
M  V30 39 1 39 40
M  V30 40 2 40 41
M  V30 41 1 40 42
M  V30 42 1 42 43
M  V30 43 1 43 44
M  V30 44 2 44 45
M  V30 45 1 45 46
M  V30 46 2 46 47
M  V30 47 1 47 48
M  V30 48 2 48 49
M  V30 49 1 42 50
M  V30 50 1 50 51
M  V30 51 2 51 52
M  V30 52 1 51 53
M  V30 53 1 53 54
M  V30 54 1 53 55
M  V30 55 1 55 56
M  V30 56 1 56 57
M  V30 57 1 57 58
M  V30 58 1 58 59
M  V30 59 1 59 60
M  V30 60 1 60 61
M  V30 61 2 61 62
M  V30 62 1 61 63
M  V30 63 1 63 64
M  V30 64 1 64 65
M  V30 65 2 65 66
M  V30 66 1 66 67
M  V30 67 2 67 68
M  V30 68 1 68 69
M  V30 69 2 69 70
M  V30 70 1 63 71
M  V30 71 1 71 72
M  V30 72 2 72 73
M  V30 73 1 59 74
M  V30 74 1 74 75
M  V30 75 2 74 76
M  V30 76 1 72 4
M  V30 77 1 23 19
M  V30 78 1 38 33
M  V30 79 1 49 44
M  V30 80 1 70 65
M  V30 81 1 27 22
M  V30 82 1 1 77
M  V30 83 1 1 78
M  V30 84 1 1 79
M  V30 85 1 2 80 CFG=3
M  V30 86 1 3 81
M  V30 87 1 4 82 CFG=1
M  V30 88 1 5 83
M  V30 89 1 8 84 CFG=1
M  V30 90 1 9 85
M  V30 91 1 9 86
M  V30 92 1 10 87
M  V30 93 1 10 88
M  V30 94 1 11 89
M  V30 95 1 11 90
M  V30 96 1 12 91
M  V30 97 1 12 92
M  V30 98 1 13 93
M  V30 99 1 13 94
M  V30 100 1 14 95
M  V30 101 1 17 96 CFG=3
M  V30 102 1 18 97
M  V30 103 1 18 98
M  V30 104 1 20 99
M  V30 105 1 21 100
M  V30 106 1 24 101
M  V30 107 1 25 102
M  V30 108 1 26 103
M  V30 109 1 27 104
M  V30 110 1 28 105
M  V30 111 1 31 106 CFG=1
M  V30 112 1 32 107
M  V30 113 1 32 108
M  V30 114 1 34 109
M  V30 115 1 35 110
M  V30 116 1 36 111
M  V30 117 1 37 112
M  V30 118 1 38 113
M  V30 119 1 39 114
M  V30 120 1 42 115 CFG=1
M  V30 121 1 43 116
M  V30 122 1 43 117
M  V30 123 1 45 118
M  V30 124 1 46 119
M  V30 125 1 47 120
M  V30 126 1 48 121
M  V30 127 1 49 122
M  V30 128 1 50 123
M  V30 129 1 53 124 CFG=1
M  V30 130 1 54 125
M  V30 131 1 54 126
M  V30 132 1 55 127
M  V30 133 1 55 128
M  V30 134 1 58 129
M  V30 135 1 58 130
M  V30 136 1 59 131 CFG=3
M  V30 137 1 60 132
M  V30 138 1 63 133 CFG=1
M  V30 139 1 64 134
M  V30 140 1 64 135
M  V30 141 1 66 136
M  V30 142 1 67 137
M  V30 143 1 68 138
M  V30 144 1 69 139
M  V30 145 1 70 140
M  V30 146 1 71 141
M  V30 147 1 75 142
M  V30 END BOND
M  V30 END CTAB
M  END
