
     RDKit          3D

  0  0  0  0  0  0  0  0  0  0999 V3000
M  V30 BEGIN CTAB
M  V30 COUNTS 24 25 0 0 0
M  V30 BEGIN ATOM
M  V30 1 C 4.10794 -0.118695 0.035121 0
M  V30 2 C 2.61959 0.0432439 0.0519628 0
M  V30 3 C 2.00956 1.24456 0.350158 0
M  V30 4 C 0.637912 1.4035 0.368166 0
M  V30 5 C -0.177949 0.325662 0.0779752 0
M  V30 6 C 0.449424 -0.867298 -0.217786 0
M  V30 7 N 1.79694 -0.985458 -0.225727 0
M  V30 8 C -0.375132 -1.93802 -0.506304 0
M  V30 9 C -1.7522 -1.81456 -0.497507 0
M  V30 10 C -2.37411 -0.618316 -0.200817 0
M  V30 11 C -1.56381 0.460427 0.0895281 0
M  V30 12 N -2.18745 1.69359 0.395692 0
M  V30 13 N -3.79434 -0.530707 -0.201971 0
M  V30 14 H 4.62236 0.830756 -0.188948 0
M  V30 15 H 4.42007 -0.848752 -0.738846 0
M  V30 16 H 4.48569 -0.472708 1.01724 0
M  V30 17 H 2.65571 2.09407 0.578915 0
M  V30 18 H 0.152817 2.34946 0.602905 0
M  V30 19 H 0.122635 -2.87609 -0.738802 0
M  V30 20 H -2.37964 -2.67794 -0.729521 0
M  V30 21 H -2.92328 2.09863 -0.208199 0
M  V30 22 H -1.89707 2.20303 1.2492 0
M  V30 23 H -4.34418 -0.440014 -1.06852 0
M  V30 24 H -4.31149 -0.558359 0.706083 0
M  V30 END ATOM
M  V30 BEGIN BOND
M  V30 1 1 1 2
M  V30 2 2 2 3
M  V30 3 1 3 4
M  V30 4 2 4 5
M  V30 5 1 5 6
M  V30 6 2 6 7
M  V30 7 1 6 8
M  V30 8 2 8 9
M  V30 9 1 9 10
M  V30 10 2 10 11
M  V30 11 1 11 12
M  V30 12 1 10 13
M  V30 13 1 7 2
M  V30 14 1 11 5
M  V30 15 1 1 14
M  V30 16 1 1 15
M  V30 17 1 1 16
M  V30 18 1 3 17
M  V30 19 1 4 18
M  V30 20 1 8 19
M  V30 21 1 9 20
M  V30 22 1 12 21
M  V30 23 1 12 22
M  V30 24 1 13 23
M  V30 25 1 13 24
M  V30 END BOND
M  V30 END CTAB
M  END
