
     RDKit          3D

  0  0  0  0  0  0  0  0  0  0999 V3000
M  V30 BEGIN CTAB
M  V30 COUNTS 19 19 0 0 0
M  V30 BEGIN ATOM
M  V30 1 Br -2.98894 1.64678 -0.114148 0
M  V30 2 C -1.33704 0.686763 -0.0650723 0
M  V30 3 C -0.159994 1.41847 -0.099113 0
M  V30 4 N -0.169494 2.83294 -0.238048 0
M  V30 5 C 1.02098 0.766021 -0.0593957 0
M  V30 6 C 1.10102 -0.649945 0.0141852 0
M  V30 7 C -0.108195 -1.28626 0.045056 0
M  V30 8 C -1.34586 -0.680092 0.00848868 0
M  V30 9 N -2.57285 -1.42536 0.095091 0
M  V30 10 C 2.44332 -1.25012 0.0824001 0
M  V30 11 F 3.34772 -0.541016 -0.725307 0
M  V30 12 F 2.44102 -2.58233 -0.22435 0
M  V30 13 F 2.89785 -1.18797 1.40432 0
M  V30 14 H -0.337293 3.32283 0.646908 0
M  V30 15 H -0.0422299 3.28272 -1.15689 0
M  V30 16 H 1.97867 1.34263 -0.0592577 0
M  V30 17 H -0.0754415 -2.38198 0.161578 0
M  V30 18 H -2.75162 -2.30198 -0.406 0
M  V30 19 H -3.34161 -1.0121 0.689552 0
M  V30 END ATOM
M  V30 BEGIN BOND
M  V30 1 1 1 2
M  V30 2 2 2 3
M  V30 3 1 3 4
M  V30 4 1 3 5
M  V30 5 2 5 6
M  V30 6 1 6 7
M  V30 7 2 7 8
M  V30 8 1 8 9
M  V30 9 1 6 10
M  V30 10 1 10 11
M  V30 11 1 10 12
M  V30 12 1 10 13
M  V30 13 1 8 2
M  V30 14 1 4 14
M  V30 15 1 4 15
M  V30 16 1 5 16
M  V30 17 1 7 17
M  V30 18 1 9 18
M  V30 19 1 9 19
M  V30 END BOND
M  V30 END CTAB
M  END
