
     RDKit          3D

  0  0  0  0  0  0  0  0  0  0999 V3000
M  V30 BEGIN CTAB
M  V30 COUNTS 33 32 0 0 0
M  V30 BEGIN ATOM
M  V30 1 C -3.323 -0.232289 0.977847 0
M  V30 2 C -2.63694 0.633337 -0.0430357 0
M  V30 3 N -3.65946 1.01498 -1.01388 0
M  V30 4 C -1.54948 -0.098691 -0.781088 0
M  V30 5 N -2.12457 -1.2414 -1.47596 0
M  V30 6 C -0.396746 -0.515221 0.0941591 0
M  V30 7 C 0.23439 0.710164 0.714119 0
M  V30 8 C 1.39647 0.310074 1.59223 0
M  V30 9 C 2.45956 -0.418621 0.829827 0
M  V30 10 C 2.98834 0.470456 -0.268034 0
M  V30 11 C 4.05816 -0.214818 -1.05095 0
M  V30 12 O 5.38134 0.136406 -0.837188 0
M  V30 13 O 3.82133 -1.10457 -1.9044 0
M  V30 14 H -2.63632 -0.963653 1.45048 0
M  V30 15 H -3.7751 0.449974 1.73311 0
M  V30 16 H -4.13834 -0.775976 0.478216 0
M  V30 17 H -2.23123 1.56408 0.354872 0
M  V30 18 H -3.69754 2.03328 -1.17848 0
M  V30 19 H -4.56957 0.553471 -0.846254 0
M  V30 20 H -1.12409 0.555729 -1.57497 0
M  V30 21 H -2.66297 -1.84178 -0.817935 0
M  V30 22 H -1.42219 -1.75911 -2.03283 0
M  V30 23 H 0.319988 -1.04497 -0.574465 0
M  V30 24 H -0.691602 -1.26186 0.857296 0
M  V30 25 H -0.503219 1.27186 1.34057 0
M  V30 26 H 0.519487 1.38194 -0.110119 0
M  V30 27 H 1.08299 -0.283605 2.45876 0
M  V30 28 H 1.87639 1.2356 2.02067 0
M  V30 29 H 2.06565 -1.37086 0.421884 0
M  V30 30 H 3.30237 -0.675093 1.50528 0
M  V30 31 H 3.38757 1.40304 0.176425 0
M  V30 32 H 2.20552 0.727512 -1.01266 0
M  V30 33 H 6.04281 -0.649386 -0.738577 0
M  V30 END ATOM
M  V30 BEGIN BOND
M  V30 1 1 1 2
M  V30 2 1 2 3
M  V30 3 1 2 4
M  V30 4 1 4 5
M  V30 5 1 4 6
M  V30 6 1 6 7
M  V30 7 1 7 8
M  V30 8 1 8 9
M  V30 9 1 9 10
M  V30 10 1 10 11
M  V30 11 1 11 12
M  V30 12 2 11 13
M  V30 13 1 1 14
M  V30 14 1 1 15
M  V30 15 1 1 16
M  V30 16 1 2 17
M  V30 17 1 3 18
M  V30 18 1 3 19
M  V30 19 1 4 20
M  V30 20 1 5 21
M  V30 21 1 5 22
M  V30 22 1 6 23
M  V30 23 1 6 24
M  V30 24 1 7 25
M  V30 25 1 7 26
M  V30 26 1 8 27
M  V30 27 1 8 28
M  V30 28 1 9 29
M  V30 29 1 9 30
M  V30 30 1 10 31
M  V30 31 1 10 32
M  V30 32 1 12 33
M  V30 END BOND
M  V30 END CTAB
M  END
