
     RDKit          3D

  0  0  0  0  0  0  0  0  0  0999 V3000
M  V30 BEGIN CTAB
M  V30 COUNTS 26 26 0 0 0
M  V30 BEGIN ATOM
M  V30 1 N -2.30406 1.41507 1.19661 0
M  V30 2 C -2.47236 0.234084 0.474744 0 CFG=1
M  V30 3 C -2.22932 0.47569 -0.980918 0
M  V30 4 C -0.741625 0.216512 -1.12199 0
M  V30 5 N -0.313746 -0.539289 0.00282783 0
M  V30 6 C -1.48045 -0.804175 0.889767 0
M  V30 7 C 0.991661 -0.998795 0.295502 0
M  V30 8 O 1.13399 -1.66708 1.3787 0
M  V30 9 C 2.11772 -0.724326 -0.592864 0
M  V30 10 C 3.28575 -0.0660892 0.112172 0
M  V30 11 F 3.79883 -0.816369 1.12472 0
M  V30 12 F 4.27936 0.183001 -0.805019 0
M  V30 13 F 2.90845 1.15419 0.640728 0
M  V30 14 N 1.85537 0.0212539 -1.76421 0
M  V30 15 H -1.8318 1.38901 2.01547 0
M  V30 16 H -2.91173 2.13814 0.967858 0
M  V30 17 H -3.51953 -0.144548 0.621102 0
M  V30 18 H -2.52256 1.50721 -1.2412 0
M  V30 19 H -2.83158 -0.203432 -1.61671 0
M  V30 20 H -0.624078 -0.340455 -2.07315 0
M  V30 21 H -0.29805 1.2214 -1.23706 0
M  V30 22 H -1.1218 -0.681128 1.92312 0
M  V30 23 H -1.86831 -1.8261 0.713939 0
M  V30 24 H 2.48631 -1.74354 -0.937541 0
M  V30 25 H 2.12433 -0.429575 -2.65896 0
M  V30 26 H 2.08921 1.02933 -1.7131 0
M  V30 END ATOM
M  V30 BEGIN BOND
M  V30 1 1 1 2
M  V30 2 1 2 3
M  V30 3 1 3 4
M  V30 4 1 4 5
M  V30 5 1 5 6
M  V30 6 1 5 7
M  V30 7 2 7 8
M  V30 8 1 7 9
M  V30 9 1 9 10
M  V30 10 1 10 11
M  V30 11 1 10 12
M  V30 12 1 10 13
M  V30 13 1 9 14
M  V30 14 1 6 2
M  V30 15 1 1 15
M  V30 16 1 1 16
M  V30 17 1 2 17 CFG=3
M  V30 18 1 3 18
M  V30 19 1 3 19
M  V30 20 1 4 20
M  V30 21 1 4 21
M  V30 22 1 6 22
M  V30 23 1 6 23
M  V30 24 1 9 24
M  V30 25 1 14 25
M  V30 26 1 14 26
M  V30 END BOND
M  V30 END CTAB
M  END
