
     RDKit          3D

  0  0  0  0  0  0  0  0  0  0999 V3000
M  V30 BEGIN CTAB
M  V30 COUNTS 45 46 0 0 0
M  V30 BEGIN ATOM
M  V30 1 N 6.3997 -1.01899 -1.55619 0
M  V30 2 C 5.85751 0.293812 -1.34364 0
M  V30 3 C 4.35396 0.243937 -1.17508 0
M  V30 4 C 3.96679 -0.612393 0.0100851 0
M  V30 5 O 2.61744 -0.690224 0.207412 0
M  V30 6 C 1.98246 0.502644 0.442298 0
M  V30 7 C 1.25065 0.559852 1.75762 0
M  V30 8 C 0.262834 -0.587768 1.82685 0
M  V30 9 N -0.628375 -0.450101 0.630103 0
M  V30 10 C 0.0620121 -0.560077 -0.600323 0
M  V30 11 C 0.963909 0.68989 -0.692081 0
M  V30 12 C -1.97143 -0.281962 0.877707 0
M  V30 13 O -2.33031 -0.349801 2.16757 0
M  V30 14 C -3.10181 -0.043907 0.0457697 0
M  V30 15 C -3.01563 0.266275 -1.27452 0
M  V30 16 C -4.14647 0.560507 -2.07412 0
M  V30 17 F -4.0343 0.863361 -3.38108 0
M  V30 18 C -5.39831 0.541106 -1.5187 0
M  V30 19 C -5.50473 0.232766 -0.191684 0
M  V30 20 C -4.41123 -0.0490088 0.56642 0
M  V30 21 N -4.611 -0.367013 1.94955 0
M  V30 22 N -6.80454 0.206879 0.414144 0 CHG=1
M  V30 23 O -6.9697 0.511265 1.61429 0
M  V30 24 O -7.91202 -0.156223 -0.314966 0 CHG=-1
M  V30 25 H 6.2952 -1.65805 -0.762929 0
M  V30 26 H 7.33676 -1.0113 -2.00181 0
M  V30 27 H 6.07537 0.930545 -2.21149 0
M  V30 28 H 6.36207 0.732369 -0.456229 0
M  V30 29 H 3.9561 -0.209853 -2.11488 0
M  V30 30 H 3.9546 1.26356 -1.1347 0
M  V30 31 H 4.51325 -0.315959 0.928205 0
M  V30 32 H 4.32869 -1.64826 -0.221366 0
M  V30 33 H 2.66857 1.37739 0.440639 0
M  V30 34 H 1.91272 0.504289 2.61813 0
M  V30 35 H 0.713898 1.54963 1.77516 0
M  V30 36 H 0.813455 -1.52148 1.81429 0
M  V30 37 H -0.355589 -0.478089 2.72052 0
M  V30 38 H -0.449919 -0.797027 -1.50377 0
M  V30 39 H 0.843269 -1.40409 -0.432956 0
M  V30 40 H 0.384703 1.59374 -0.509028 0
M  V30 41 H 1.50546 0.695003 -1.65825 0
M  V30 42 H -2.10084 0.349283 -1.81063 0
M  V30 43 H -6.26838 0.764322 -2.1198 0
M  V30 44 H -4.65803 0.357567 2.68797 0
M  V30 45 H -4.70877 -1.3784 2.18508 0
M  V30 END ATOM
M  V30 BEGIN BOND
M  V30 1 1 1 2
M  V30 2 1 2 3
M  V30 3 1 3 4
M  V30 4 1 4 5
M  V30 5 1 5 6
M  V30 6 1 6 7
M  V30 7 1 7 8
M  V30 8 1 8 9
M  V30 9 1 9 10
M  V30 10 1 10 11
M  V30 11 1 9 12
M  V30 12 2 12 13
M  V30 13 1 12 14
M  V30 14 2 14 15
M  V30 15 1 15 16
M  V30 16 1 16 17
M  V30 17 2 16 18
M  V30 18 1 18 19
M  V30 19 2 19 20
M  V30 20 1 20 21
M  V30 21 1 19 22
M  V30 22 2 22 23
M  V30 23 1 22 24
M  V30 24 1 11 6
M  V30 25 1 20 14
M  V30 26 1 1 25
M  V30 27 1 1 26
M  V30 28 1 2 27
M  V30 29 1 2 28
M  V30 30 1 3 29
M  V30 31 1 3 30
M  V30 32 1 4 31
M  V30 33 1 4 32
M  V30 34 1 6 33
M  V30 35 1 7 34
M  V30 36 1 7 35
M  V30 37 1 8 36
M  V30 38 1 8 37
M  V30 39 1 10 38
M  V30 40 1 10 39
M  V30 41 1 11 40
M  V30 42 1 11 41
M  V30 43 1 15 42
M  V30 44 1 18 43
M  V30 45 1 21 44
M  V30 46 1 21 45
M  V30 END BOND
M  V30 END CTAB
M  END
