
     RDKit          3D

  0  0  0  0  0  0  0  0  0  0999 V3000
M  V30 BEGIN CTAB
M  V30 COUNTS 26 26 0 0 0
M  V30 BEGIN ATOM
M  V30 1 C -2.52878 -1.32852 0.45043 0
M  V30 2 C -2.36863 0.102942 0.0140597 0
M  V30 3 S -0.893117 0.29831 -1.00541 0
M  V30 4 C 0.5677 0.0224951 -0.0120236 0
M  V30 5 N 0.489895 -0.277813 1.31365 0
M  V30 6 C 1.5686 -0.487246 2.08397 0
M  V30 7 C 2.80382 -0.389548 1.48547 0
M  V30 8 C 2.93353 -0.0850717 0.13087 0
M  V30 9 C 1.81052 0.11806 -0.605177 0
M  V30 10 N 1.95188 0.42656 -1.98324 0
M  V30 11 N 4.23908 0.00178997 -0.427225 0
M  V30 12 C -3.60097 0.710321 -0.577752 0
M  V30 13 O -3.32366 2.02831 -0.934315 0
M  V30 14 H -3.51444 -1.47862 0.882294 0
M  V30 15 H -1.76518 -1.60541 1.20545 0
M  V30 16 H -2.34829 -1.99606 -0.431727 0
M  V30 17 H -2.16946 0.68629 0.965628 0
M  V30 18 H 1.53974 -0.723629 3.13819 0
M  V30 19 H 3.73588 -0.54863 2.05057 0
M  V30 20 H 2.21828 -0.293725 -2.69351 0
M  V30 21 H 1.77417 1.41622 -2.26108 0
M  V30 22 H 4.61274 -0.864178 -0.873546 0
M  V30 23 H 4.80102 0.872922 -0.40091 0
M  V30 24 H -3.9956 0.0916119 -1.39592 0
M  V30 25 H -4.37321 0.75321 0.234455 0
M  V30 26 H -4.16551 2.54941 -0.797253 0
M  V30 END ATOM
M  V30 BEGIN BOND
M  V30 1 1 1 2
M  V30 2 1 2 3
M  V30 3 1 3 4
M  V30 4 2 4 5
M  V30 5 1 5 6
M  V30 6 2 6 7
M  V30 7 1 7 8
M  V30 8 2 8 9
M  V30 9 1 9 10
M  V30 10 1 8 11
M  V30 11 1 2 12
M  V30 12 1 12 13
M  V30 13 1 9 4
M  V30 14 1 1 14
M  V30 15 1 1 15
M  V30 16 1 1 16
M  V30 17 1 2 17
M  V30 18 1 6 18
M  V30 19 1 7 19
M  V30 20 1 10 20
M  V30 21 1 10 21
M  V30 22 1 11 22
M  V30 23 1 11 23
M  V30 24 1 12 24
M  V30 25 1 12 25
M  V30 26 1 13 26
M  V30 END BOND
M  V30 END CTAB
M  END
