
     RDKit          3D

  0  0  0  0  0  0  0  0  0  0999 V3000
M  V30 BEGIN CTAB
M  V30 COUNTS 18 18 0 0 0
M  V30 BEGIN ATOM
M  V30 1 N 3.04962 1.16993 -0.292067 0
M  V30 2 C 1.9632 0.326579 0.0939812 0
M  V30 3 N 2.16072 -0.865019 0.674131 0
M  V30 4 C 1.16746 -1.69036 1.05334 0
M  V30 5 C -0.130979 -1.27829 0.828091 0
M  V30 6 C -0.424174 -0.0593354 0.232796 0
M  V30 7 C 0.651522 0.720363 -0.122691 0
M  V30 8 C -1.80328 0.345174 0.009596 0
M  V30 9 N -2.05486 1.47305 -0.540835 0
M  V30 10 N -2.87531 -0.490537 0.392272 0
M  V30 11 H 3.98189 1.12044 0.171704 0
M  V30 12 H 2.93487 1.87278 -1.06562 0
M  V30 13 H 1.38286 -2.66171 1.52735 0
M  V30 14 H -0.937843 -1.92089 1.12267 0
M  V30 15 H 0.462163 1.66212 -0.581864 0
M  V30 16 H -2.98188 1.85189 -0.742575 0
M  V30 17 H -3.06382 -1.3906 -0.0903915 0
M  V30 18 H -3.48217 -0.185578 1.17706 0
M  V30 END ATOM
M  V30 BEGIN BOND
M  V30 1 1 1 2
M  V30 2 2 2 3
M  V30 3 1 3 4
M  V30 4 2 4 5
M  V30 5 1 5 6
M  V30 6 2 6 7
M  V30 7 1 6 8
M  V30 8 2 8 9 CFG=2
M  V30 9 1 8 10
M  V30 10 1 7 2
M  V30 11 1 1 11
M  V30 12 1 1 12
M  V30 13 1 4 13
M  V30 14 1 5 14
M  V30 15 1 7 15
M  V30 16 1 9 16
M  V30 17 1 10 17
M  V30 18 1 10 18
M  V30 END BOND
M  V30 END CTAB
M  END
