
     RDKit          3D

  0  0  0  0  0  0  0  0  0  0999 V3000
M  V30 BEGIN CTAB
M  V30 COUNTS 30 32 0 0 0
M  V30 BEGIN ATOM
M  V30 1 N 0.666137 -3.2639 0.756214 0
M  V30 2 C -0.318642 -2.22198 0.653971 0
M  V30 3 N -1.42924 -2.09174 1.4135 0
M  V30 4 C -2.08947 -1.00275 1.01799 0
M  V30 5 C -1.35394 -0.460882 -0.0110008 0
M  V30 6 N -1.79075 0.665317 -0.612416 0
M  V30 7 C -2.9337 1.25639 -0.213483 0
M  V30 8 N -3.37321 2.44021 -0.861054 0
M  V30 9 N -3.66924 0.739348 0.794711 0
M  V30 10 C -3.27409 -0.37953 1.42259 0
M  V30 11 O -3.9491 -0.868204 2.3597 0
M  V30 12 N -0.26477 -1.21432 -0.231928 0
M  V30 13 C 0.77104 -0.977316 -1.2405 0
M  V30 14 C 1.86513 -0.138081 -0.730197 0
M  V30 15 N 2.9452 -0.711495 -0.132591 0
M  V30 16 C 3.96853 0.0149076 0.348605 0
M  V30 17 C 4.00272 1.39119 0.274162 0
M  V30 18 C 2.925 2.00971 -0.325245 0
M  V30 19 C 1.88136 1.2402 -0.814076 0
M  V30 20 H 1.53452 -3.17704 1.3212 0
M  V30 21 H 0.478641 -4.1359 0.231348 0
M  V30 22 H -3.99169 3.14018 -0.394405 0
M  V30 23 H -3.08901 2.65602 -1.84221 0
M  V30 24 H -4.53948 1.24456 1.05226 0
M  V30 25 H 1.10942 -1.96859 -1.59417 0
M  V30 26 H 0.254279 -0.490147 -2.1043 0
M  V30 27 H 4.80843 -0.48699 0.817073 0
M  V30 28 H 4.8423 1.95803 0.670914 0
M  V30 29 H 2.94735 3.08862 -0.385913 0
M  V30 30 H 1.06628 1.7442 -1.26983 0
M  V30 END ATOM
M  V30 BEGIN BOND
M  V30 1 1 1 2
M  V30 2 2 2 3
M  V30 3 1 3 4
M  V30 4 2 4 5
M  V30 5 1 5 6
M  V30 6 2 6 7
M  V30 7 1 7 8
M  V30 8 1 7 9
M  V30 9 1 9 10
M  V30 10 2 10 11
M  V30 11 1 5 12
M  V30 12 1 12 13
M  V30 13 1 13 14
M  V30 14 2 14 15
M  V30 15 1 15 16
M  V30 16 2 16 17
M  V30 17 1 17 18
M  V30 18 2 18 19
M  V30 19 1 12 2
M  V30 20 1 19 14
M  V30 21 1 10 4
M  V30 22 1 1 20
M  V30 23 1 1 21
M  V30 24 1 8 22
M  V30 25 1 8 23
M  V30 26 1 9 24
M  V30 27 1 13 25
M  V30 28 1 13 26
M  V30 29 1 16 27
M  V30 30 1 17 28
M  V30 31 1 18 29
M  V30 32 1 19 30
M  V30 END BOND
M  V30 END CTAB
M  END
