
     RDKit          3D

  0  0  0  0  0  0  0  0  0  0999 V3000
M  V30 BEGIN CTAB
M  V30 COUNTS 38 40 0 0 0
M  V30 BEGIN ATOM
M  V30 1 N 7.33111 0.0105641 0.12166 0
M  V30 2 C 5.91399 -0.00376182 0.0933937 0
M  V30 3 N 5.18535 0.678597 0.996289 0
M  V30 4 C 3.85302 0.696967 1.01206 0
M  V30 5 C 3.1509 -0.014192 0.0615465 0
M  V30 6 C 1.75798 -0.0269616 0.0354836 0
M  V30 7 C 1.03463 0.680718 0.972076 0
M  V30 8 N -0.384365 0.681473 0.96379 0
M  V30 9 C -1.07697 -0.071083 -0.0416683 0
M  V30 10 C -2.53077 -0.0120893 -0.00868072 0
M  V30 11 C -3.21357 -0.964918 -0.758965 0
M  V30 12 C -4.57516 -0.987727 -0.794819 0
M  V30 13 C -5.33104 -0.0898361 -0.106413 0
M  V30 14 C -4.66367 0.858142 0.639797 0
M  V30 15 C -3.27376 0.897532 0.68884 0
M  V30 16 C -6.78472 -0.130034 -0.156928 0
M  V30 17 O -7.41335 -1.10083 -0.92037 0
M  V30 18 O -7.49982 0.683765 0.466601 0
M  V30 19 C 1.74736 1.40195 1.93606 0
M  V30 20 C 3.12606 1.41309 1.95985 0
M  V30 21 C 3.87792 -0.724363 -0.878353 0
M  V30 22 N 3.15962 -1.45539 -1.8554 0
M  V30 23 N 5.22109 -0.700045 -0.837269 0
M  V30 24 H 7.80649 -0.468562 0.911769 0
M  V30 25 H 7.92312 0.4688 -0.596055 0
M  V30 26 H 1.24479 -0.606377 -0.738564 0
M  V30 27 H -0.913942 1.21309 1.67217 0
M  V30 28 H -0.748705 -1.14383 0.100735 0
M  V30 29 H -0.699895 0.273744 -1.05116 0
M  V30 30 H -2.66168 -1.71159 -1.33245 0
M  V30 31 H -5.08382 -1.75219 -1.39625 0
M  V30 32 H -5.2363 1.59258 1.2035 0
M  V30 33 H -2.80839 1.64923 1.27574 0
M  V30 34 H -8.11486 -1.66344 -0.421486 0
M  V30 35 H 1.22947 1.97429 2.69397 0
M  V30 36 H 3.68318 1.96991 2.70415 0
M  V30 37 H 2.78962 -2.39666 -1.57991 0
M  V30 38 H 2.97908 -1.12057 -2.81608 0
M  V30 END ATOM
M  V30 BEGIN BOND
M  V30 1 1 1 2
M  V30 2 2 2 3
M  V30 3 1 3 4
M  V30 4 2 4 5
M  V30 5 1 5 6
M  V30 6 2 6 7
M  V30 7 1 7 8
M  V30 8 1 8 9
M  V30 9 1 9 10
M  V30 10 2 10 11
M  V30 11 1 11 12
M  V30 12 2 12 13
M  V30 13 1 13 14
M  V30 14 2 14 15
M  V30 15 1 13 16
M  V30 16 1 16 17
M  V30 17 2 16 18
M  V30 18 1 7 19
M  V30 19 2 19 20
M  V30 20 1 5 21
M  V30 21 1 21 22
M  V30 22 2 21 23
M  V30 23 1 23 2
M  V30 24 1 20 4
M  V30 25 1 15 10
M  V30 26 1 1 24
M  V30 27 1 1 25
M  V30 28 1 6 26
M  V30 29 1 8 27
M  V30 30 1 9 28
M  V30 31 1 9 29
M  V30 32 1 11 30
M  V30 33 1 12 31
M  V30 34 1 14 32
M  V30 35 1 15 33
M  V30 36 1 17 34
M  V30 37 1 19 35
M  V30 38 1 20 36
M  V30 39 1 22 37
M  V30 40 1 22 38
M  V30 END BOND
M  V30 END CTAB
M  END
