
     RDKit          3D

  0  0  0  0  0  0  0  0  0  0999 V3000
M  V30 BEGIN CTAB
M  V30 COUNTS 19 19 0 0 0
M  V30 BEGIN ATOM
M  V30 1 N -1.14646 1.14349 0.498499 0
M  V30 2 C -0.781723 0.22031 -0.558777 0
M  V30 3 C 0.352509 0.906786 -1.33677 0
M  V30 4 S 1.5542 0.945638 0.00227137 0
M  V30 5 O 1.25223 2.06436 0.923554 0
M  V30 6 O 2.93876 0.884531 -0.485049 0
M  V30 7 C 1.04826 -0.57232 0.825752 0
M  V30 8 C -0.094828 -1.00848 -0.0480225 0
M  V30 9 N -0.985162 -1.89735 0.654731 0
M  V30 10 H -1.3535 0.699667 1.39464 0
M  V30 11 H -1.84891 1.80676 0.143778 0
M  V30 12 H -1.60574 -0.0757257 -1.19955 0
M  V30 13 H 0.0779993 1.9078 -1.66894 0
M  V30 14 H 0.696591 0.223353 -2.12856 0
M  V30 15 H 0.787327 -0.404638 1.86957 0
M  V30 16 H 1.85426 -1.33979 0.738721 0
M  V30 17 H 0.325219 -1.54579 -0.926516 0
M  V30 18 H -1.43843 -2.55514 0.00177464 0
M  V30 19 H -1.63258 -1.40345 1.29889 0
M  V30 END ATOM
M  V30 BEGIN BOND
M  V30 1 1 1 2
M  V30 2 1 2 3
M  V30 3 1 3 4
M  V30 4 2 4 5
M  V30 5 2 4 6
M  V30 6 1 4 7
M  V30 7 1 7 8
M  V30 8 1 8 9
M  V30 9 1 8 2
M  V30 10 1 1 10
M  V30 11 1 1 11
M  V30 12 1 2 12
M  V30 13 1 3 13
M  V30 14 1 3 14
M  V30 15 1 7 15
M  V30 16 1 7 16
M  V30 17 1 8 17
M  V30 18 1 9 18
M  V30 19 1 9 19
M  V30 END BOND
M  V30 END CTAB
M  END
