
     RDKit          3D

  0  0  0  0  0  0  0  0  0  0999 V3000
M  V30 BEGIN CTAB
M  V30 COUNTS 57 61 0 0 0
M  V30 BEGIN ATOM
M  V30 1 C -4.95376 3.43635 -1.34817 0
M  V30 2 C -4.97912 2.23545 -0.444467 0
M  V30 3 C -4.42928 1.04152 -1.17326 0
M  V30 4 C -4.4305 -0.180103 -0.324042 0
M  V30 5 N -5.46893 -1.02628 -0.273091 0
M  V30 6 C -5.16576 -2.03458 0.585058 0
M  V30 7 C -3.90386 -1.75882 1.04649 0
M  V30 8 N -3.45761 -0.621506 0.486528 0
M  V30 9 C -2.17998 -0.022816 0.73147 0
M  V30 10 C -1.14446 -0.533717 -0.238196 0
M  V30 11 O -1.4677 -1.37603 -1.11431 0
M  V30 12 N 0.193614 -0.0907582 -0.193086 0
M  V30 13 C 1.243 -0.521792 -1.07442 0
M  V30 14 C 2.33397 0.521396 -0.978043 0 CFG=1
M  V30 15 C 2.08623 1.22835 0.324846 0 CFG=2
M  V30 16 C 0.686328 0.873628 0.768107 0
M  V30 17 O 2.12887 2.62391 0.188174 0
M  V30 18 N 3.61376 -0.110807 -1.04576 0
M  V30 19 C 3.84648 -1.2666 -1.69963 0
M  V30 20 N 5.14362 -1.60835 -1.58406 0
M  V30 21 C 5.77607 -0.682292 -0.854206 0
M  V30 22 C 4.80365 0.248743 -0.524895 0
M  V30 23 N 5.15585 1.30839 0.216841 0
M  V30 24 C 6.41745 1.48832 0.645076 0
M  V30 25 N 6.77514 2.63313 1.44086 0
M  V30 26 N 7.33779 0.565134 0.307498 0
M  V30 27 C 7.08984 -0.528845 -0.42919 0
M  V30 28 N 8.07109 -1.4952 -0.778057 0
M  V30 29 C -3.34532 -2.65284 1.95737 0
M  V30 30 C -4.06221 -3.75485 2.35269 0
M  V30 31 C -5.32957 -4.04777 1.90037 0
M  V30 32 C -5.86812 -3.15381 0.999882 0
M  V30 33 H -4.01715 4.01835 -1.13559 0
M  V30 34 H -4.92058 3.16296 -2.41641 0
M  V30 35 H -5.79547 4.12708 -1.10433 0
M  V30 36 H -6.06441 2.06282 -0.186662 0
M  V30 37 H -4.42513 2.47876 0.461196 0
M  V30 38 H -3.41528 1.27972 -1.54287 0
M  V30 39 H -5.04744 0.830159 -2.0652 0
M  V30 40 H -2.21999 1.08211 0.628072 0
M  V30 41 H -1.88436 -0.268403 1.77434 0
M  V30 42 H 0.81425 -0.568401 -2.10435 0
M  V30 43 H 1.59582 -1.53009 -0.797162 0
M  V30 44 H 2.14776 1.25641 -1.79167 0
M  V30 45 H 2.76722 0.906463 1.13844 0
M  V30 46 H -0.0104389 1.75395 0.700835 0
M  V30 47 H 0.630141 0.52591 1.80751 0
M  V30 48 H 2.14992 2.88856 -0.765201 0
M  V30 49 H 3.14569 -1.88723 -2.2584 0
M  V30 50 H 6.16057 3.00718 2.1642 0
M  V30 51 H 7.69599 3.0671 1.24515 0
M  V30 52 H 8.81113 -1.82047 -0.109224 0
M  V30 53 H 8.11789 -1.94688 -1.73138 0
M  V30 54 H -2.35064 -2.44107 2.325 0
M  V30 55 H -3.63964 -4.47536 3.07251 0
M  V30 56 H -5.89535 -4.91581 2.21118 0
M  V30 57 H -6.86704 -3.3304 0.605628 0
M  V30 END ATOM
M  V30 BEGIN BOND
M  V30 1 1 1 2
M  V30 2 1 2 3
M  V30 3 1 3 4
M  V30 4 2 4 5
M  V30 5 1 5 6
M  V30 6 2 6 7
M  V30 7 1 7 8
M  V30 8 1 8 9
M  V30 9 1 9 10
M  V30 10 2 10 11
M  V30 11 1 10 12
M  V30 12 1 12 13
M  V30 13 1 13 14
M  V30 14 1 14 15
M  V30 15 1 15 16
M  V30 16 1 15 17
M  V30 17 1 14 18
M  V30 18 1 18 19
M  V30 19 2 19 20
M  V30 20 1 20 21
M  V30 21 2 21 22
M  V30 22 1 22 23
M  V30 23 2 23 24
M  V30 24 1 24 25
M  V30 25 1 24 26
M  V30 26 2 26 27
M  V30 27 1 27 28
M  V30 28 1 7 29
M  V30 29 2 29 30
M  V30 30 1 30 31
M  V30 31 2 31 32
M  V30 32 1 8 4
M  V30 33 1 16 12
M  V30 34 1 22 18
M  V30 35 1 32 6
M  V30 36 1 27 21
M  V30 37 1 1 33
M  V30 38 1 1 34
M  V30 39 1 1 35
M  V30 40 1 2 36
M  V30 41 1 2 37
M  V30 42 1 3 38
M  V30 43 1 3 39
M  V30 44 1 9 40
M  V30 45 1 9 41
M  V30 46 1 13 42
M  V30 47 1 13 43
M  V30 48 1 14 44 CFG=3
M  V30 49 1 15 45 CFG=1
M  V30 50 1 16 46
M  V30 51 1 16 47
M  V30 52 1 17 48
M  V30 53 1 19 49
M  V30 54 1 25 50
M  V30 55 1 25 51
M  V30 56 1 28 52
M  V30 57 1 28 53
M  V30 58 1 29 54
M  V30 59 1 30 55
M  V30 60 1 31 56
M  V30 61 1 32 57
M  V30 END BOND
M  V30 END CTAB
M  END
