
     RDKit          3D

  0  0  0  0  0  0  0  0  0  0999 V3000
M  V30 BEGIN CTAB
M  V30 COUNTS 24 25 0 0 0
M  V30 BEGIN ATOM
M  V30 1 C 2.87312 0.694762 -0.15963 0
M  V30 2 C 2.05152 -0.325622 0.598124 0
M  V30 3 C 1.42035 -1.34802 -0.306523 0
M  V30 4 N 0.0342078 -0.870142 -0.419627 0
M  V30 5 N -0.231183 0.0633817 0.455568 0
M  V30 6 C 0.929929 0.368882 1.30206 0
M  V30 7 C -1.52806 0.432228 0.266409 0
M  V30 8 N -2.17778 1.43019 1.03773 0
M  V30 9 C -2.09279 -0.291998 -0.758395 0
M  V30 10 N -3.42025 -0.217626 -1.27491 0
M  V30 11 C -1.07287 -1.11528 -1.17756 0
M  V30 12 O -1.14456 -1.96864 -2.11864 0
M  V30 13 H 3.33408 0.300638 -1.06752 0
M  V30 14 H 3.64793 1.06525 0.552179 0
M  V30 15 H 2.25001 1.59527 -0.432671 0
M  V30 16 H 2.6627 -0.840359 1.39353 0
M  V30 17 H 1.46941 -2.35464 0.131307 0
M  V30 18 H 1.86722 -1.3818 -1.3175 0
M  V30 19 H 0.74945 0.00286655 2.32359 0
M  V30 20 H 1.10956 1.47747 1.3258 0
M  V30 21 H -2.66366 2.19639 0.5339 0
M  V30 22 H -2.19282 1.43454 2.07256 0
M  V30 23 H -3.81707 0.688465 -1.64578 0
M  V30 24 H -4.05845 -1.0362 -1.31401 0
M  V30 END ATOM
M  V30 BEGIN BOND
M  V30 1 1 1 2
M  V30 2 1 2 3
M  V30 3 1 3 4
M  V30 4 1 4 5
M  V30 5 1 5 6
M  V30 6 1 5 7
M  V30 7 1 7 8
M  V30 8 2 7 9
M  V30 9 1 9 10
M  V30 10 1 9 11
M  V30 11 2 11 12
M  V30 12 1 6 2
M  V30 13 1 11 4
M  V30 14 1 1 13
M  V30 15 1 1 14
M  V30 16 1 1 15
M  V30 17 1 2 16
M  V30 18 1 3 17
M  V30 19 1 3 18
M  V30 20 1 6 19
M  V30 21 1 6 20
M  V30 22 1 8 21
M  V30 23 1 8 22
M  V30 24 1 10 23
M  V30 25 1 10 24
M  V30 END BOND
M  V30 END CTAB
M  END
