
     RDKit          3D

  0  0  0  0  0  0  0  0  0  0999 V3000
M  V30 BEGIN CTAB
M  V30 COUNTS 43 45 0 0 0
M  V30 BEGIN ATOM
M  V30 1 N -3.13104 -0.753137 -1.71822 0
M  V30 2 C -2.92946 0.553027 -1.14696 0
M  V30 3 C -4.27965 1.17982 -0.878145 0
M  V30 4 C -4.95281 0.407228 0.207008 0
M  V30 5 C -4.00057 -0.312935 1.10573 0
M  V30 6 O -2.77683 0.281117 1.24905 0
M  V30 7 C -2.08702 0.516285 0.0989865 0
M  V30 8 C -0.921556 -0.421808 -0.1178 0
M  V30 9 C -0.0379907 -0.497173 1.11108 0
M  V30 10 C 1.27344 0.232087 0.883467 0
M  V30 11 N 1.95909 -0.361039 -0.259636 0
M  V30 12 C 1.1354 -0.679186 -1.40727 0
M  V30 13 C -0.128146 0.122769 -1.30884 0
M  V30 14 C 3.34386 -0.590811 -0.196543 0
M  V30 15 N 3.86346 -1.82238 -0.306273 0
M  V30 16 C 5.20437 -2.04375 -0.243334 0
M  V30 17 N 6.02288 -0.998867 -0.0667912 0
M  V30 18 C 5.59168 0.263638 0.0523914 0
M  V30 19 C 4.20618 0.459748 -0.0165107 0
M  V30 20 Cl 3.58332 2.06606 0.127832 0
M  V30 21 N 6.45788 1.37718 0.240186 0
M  V30 22 H -4.07701 -1.14854 -1.53053 0
M  V30 23 H -2.96213 -0.761435 -2.7264 0
M  V30 24 H -2.44255 1.18575 -1.92544 0
M  V30 25 H -4.85739 1.11249 -1.81852 0
M  V30 26 H -4.15444 2.23066 -0.573615 0
M  V30 27 H -5.6018 1.13726 0.77203 0
M  V30 28 H -5.67538 -0.343046 -0.199104 0
M  V30 29 H -4.47588 -0.328421 2.13106 0
M  V30 30 H -3.90579 -1.40949 0.848832 0
M  V30 31 H -1.62906 1.54559 0.19357 0
M  V30 32 H -1.2201 -1.44474 -0.386366 0
M  V30 33 H -0.520748 -0.00553759 1.98062 0
M  V30 34 H 0.212781 -1.53863 1.34213 0
M  V30 35 H 1.08174 1.30976 0.725246 0
M  V30 36 H 1.90317 0.0164714 1.76898 0
M  V30 37 H 1.65666 -0.586712 -2.35803 0
M  V30 38 H 0.835859 -1.76084 -1.2973 0
M  V30 39 H 0.0591382 1.20686 -1.14513 0
M  V30 40 H -0.722736 0.0508255 -2.24072 0
M  V30 41 H 5.60733 -3.05663 -0.335214 0
M  V30 42 H 7.34007 1.52846 -0.261948 0
M  V30 43 H 6.15178 2.08204 0.948887 0
M  V30 END ATOM
M  V30 BEGIN BOND
M  V30 1 1 1 2
M  V30 2 1 2 3
M  V30 3 1 3 4
M  V30 4 1 4 5
M  V30 5 1 5 6
M  V30 6 1 6 7
M  V30 7 1 7 8
M  V30 8 1 8 9
M  V30 9 1 9 10
M  V30 10 1 10 11
M  V30 11 1 11 12
M  V30 12 1 12 13
M  V30 13 1 11 14
M  V30 14 2 14 15
M  V30 15 1 15 16
M  V30 16 2 16 17
M  V30 17 1 17 18
M  V30 18 2 18 19
M  V30 19 1 19 20
M  V30 20 1 18 21
M  V30 21 1 7 2
M  V30 22 1 13 8
M  V30 23 1 19 14
M  V30 24 1 1 22
M  V30 25 1 1 23
M  V30 26 1 2 24
M  V30 27 1 3 25
M  V30 28 1 3 26
M  V30 29 1 4 27
M  V30 30 1 4 28
M  V30 31 1 5 29
M  V30 32 1 5 30
M  V30 33 1 7 31
M  V30 34 1 8 32
M  V30 35 1 9 33
M  V30 36 1 9 34
M  V30 37 1 10 35
M  V30 38 1 10 36
M  V30 39 1 12 37
M  V30 40 1 12 38
M  V30 41 1 13 39
M  V30 42 1 13 40
M  V30 43 1 16 41
M  V30 44 1 21 42
M  V30 45 1 21 43
M  V30 END BOND
M  V30 END CTAB
M  END
