
     RDKit          3D

  0  0  0  0  0  0  0  0  0  0999 V3000
M  V30 BEGIN CTAB
M  V30 COUNTS 34 35 0 0 0
M  V30 BEGIN ATOM
M  V30 1 N 4.07363 -0.44001 1.55951 0
M  V30 2 C 3.93721 -0.566591 0.110909 0
M  V30 3 C 2.50946 -0.853112 -0.205566 0
M  V30 4 N 1.57415 0.129488 0.211835 0
M  V30 5 C 1.60002 1.37703 -0.427883 0
M  V30 6 C 0.157752 1.87956 -0.578928 0
M  V30 7 C -0.576081 0.857541 -1.39706 0
M  V30 8 C -0.643623 -0.458534 -0.62205 0 CFG=1
M  V30 9 C 0.2919 -0.385169 0.553211 0
M  V30 10 C -2.04863 -0.664655 -0.179341 0
M  V30 11 N -2.82756 -1.67925 -0.565961 0
M  V30 12 N -4.0089 -1.55283 0.013499 0
M  V30 13 C -4.02579 -0.468254 0.780323 0
M  V30 14 C -2.7862 0.126623 0.681422 0
M  V30 15 N -5.11475 0.0130445 1.56992 0
M  V30 16 H 3.19342 -0.0651538 1.98394 0
M  V30 17 H 4.89266 0.121686 1.82249 0
M  V30 18 H 4.52921 -1.47639 -0.166647 0
M  V30 19 H 4.38666 0.266924 -0.430657 0
M  V30 20 H 2.40016 -1.02167 -1.29983 0
M  V30 21 H 2.242 -1.81757 0.294626 0
M  V30 22 H 2.04515 1.42074 -1.42333 0
M  V30 23 H 2.10194 2.13086 0.236218 0
M  V30 24 H -0.335986 2.00955 0.40074 0
M  V30 25 H 0.180588 2.86048 -1.08182 0
M  V30 26 H -1.60407 1.19654 -1.62294 0
M  V30 27 H -0.0226079 0.674227 -2.3317 0
M  V30 28 H -0.343241 -1.30337 -1.27896 0
M  V30 29 H 0.44329 -1.40196 0.981262 0
M  V30 30 H -0.211145 0.207591 1.36355 0
M  V30 31 H -2.6132 -2.47922 -1.21554 0
M  V30 32 H -2.41817 1.02672 1.15907 0
M  V30 33 H -5.67701 0.818943 1.22937 0
M  V30 34 H -5.30225 -0.483797 2.48495 0
M  V30 END ATOM
M  V30 BEGIN BOND
M  V30 1 1 1 2
M  V30 2 1 2 3
M  V30 3 1 3 4
M  V30 4 1 4 5
M  V30 5 1 5 6
M  V30 6 1 6 7
M  V30 7 1 7 8
M  V30 8 1 8 9
M  V30 9 1 8 10
M  V30 10 1 10 11
M  V30 11 1 11 12
M  V30 12 2 12 13
M  V30 13 1 13 14
M  V30 14 1 13 15
M  V30 15 1 9 4
M  V30 16 2 14 10
M  V30 17 1 1 16
M  V30 18 1 1 17
M  V30 19 1 2 18
M  V30 20 1 2 19
M  V30 21 1 3 20
M  V30 22 1 3 21
M  V30 23 1 5 22
M  V30 24 1 5 23
M  V30 25 1 6 24
M  V30 26 1 6 25
M  V30 27 1 7 26
M  V30 28 1 7 27
M  V30 29 1 8 28 CFG=3
M  V30 30 1 9 29
M  V30 31 1 9 30
M  V30 32 1 11 31
M  V30 33 1 14 32
M  V30 34 1 15 33
M  V30 35 1 15 34
M  V30 END BOND
M  V30 END CTAB
M  END
