
     RDKit          3D

  0  0  0  0  0  0  0  0  0  0999 V3000
M  V30 BEGIN CTAB
M  V30 COUNTS 100 103 0 0 0
M  V30 BEGIN ATOM
M  V30 1 N -0.623561 6.53902 2.48316 0
M  V30 2 C 0.754324 6.23407 2.48049 0
M  V30 3 N 1.38604 6.02601 3.57817 0
M  V30 4 N 1.43657 6.16071 1.2435 0
M  V30 5 C 0.915447 5.4855 0.0869806 0
M  V30 6 C 0.845807 3.98985 0.25345 0
M  V30 7 C 0.290067 3.40013 -1.02234 0
M  V30 8 C 0.195674 1.87587 -0.919776 0 CFG=2
M  V30 9 N -0.659468 1.54857 0.149909 0
M  V30 10 C -1.96373 1.02164 0.0235557 0
M  V30 11 O -2.92247 1.50106 0.738155 0
M  V30 12 C -2.37216 -0.0726337 -0.879931 0 CFG=2
M  V30 13 C -3.05007 0.405936 -2.14975 0
M  V30 14 C -4.29652 1.19577 -1.91472 0
M  V30 15 C -4.9408 1.6511 -3.20998 0
M  V30 16 N -4.07771 2.48448 -3.991 0
M  V30 17 C -4.52662 2.99232 -5.22623 0
M  V30 18 N -3.63932 3.05738 -6.31871 0
M  V30 19 N -5.73927 3.40741 -5.40026 0
M  V30 20 N -3.26175 -0.969312 -0.141037 0
M  V30 21 C -2.91695 -2.2447 0.330405 0
M  V30 22 O -3.73804 -3.19609 0.0844028 0
M  V30 23 C -1.69682 -2.60161 1.0859 0 CFG=1
M  V30 24 C -1.94537 -2.6646 2.56968 0
M  V30 25 C -2.96547 -3.66048 2.97113 0
M  V30 26 C -4.30284 -3.34926 3.09625 0
M  V30 27 C -5.25149 -4.27414 3.46827 0
M  V30 28 C -4.88745 -5.57522 3.735 0
M  V30 29 O -5.81933 -6.5511 4.11721 0
M  V30 30 C -3.54712 -5.874 3.60637 0
M  V30 31 C -2.5871 -4.96067 3.23546 0
M  V30 32 N -1.08155 -3.80753 0.568873 0
M  V30 33 C 0.251853 -3.88282 0.139698 0
M  V30 34 O 0.783108 -5.01287 0.000542198 0
M  V30 35 C 1.09096 -2.69341 -0.16589 0
M  V30 36 N 1.97612 -2.45521 0.948899 0
M  V30 37 C 2.08457 -1.27878 1.7122 0
M  V30 38 O 2.01184 -1.38029 2.99166 0
M  V30 39 C 2.27697 0.0967717 1.22032 0 CFG=1
M  V30 40 C 3.7306 0.475271 1.58861 0
M  V30 41 C 4.72039 -0.408886 0.974079 0
M  V30 42 C 5.23057 -0.129092 -0.273032 0
M  V30 43 C 6.17214 -0.948918 -0.873222 0
M  V30 44 C 6.68256 -0.664166 -2.12813 0
M  V30 45 C 7.61579 -1.50284 -2.69051 0
M  V30 46 C 8.07813 -2.63987 -2.04975 0
M  V30 47 C 7.57612 -2.93206 -0.800256 0
M  V30 48 C 6.62708 -2.07881 -0.228791 0
M  V30 49 C 6.11076 -2.35368 1.02288 0
M  V30 50 C 5.1753 -1.53741 1.61696 0
M  V30 51 N 2.11233 0.260733 -0.197709 0
M  V30 52 C 1.55629 1.31428 -0.924726 0
M  V30 53 O 2.32306 1.94646 -1.76927 0
M  V30 54 H -0.932508 7.30982 3.13744 0
M  V30 55 H -1.33367 6.05964 1.89243 0
M  V30 56 H 0.941128 6.06599 4.51965 0
M  V30 57 H 2.38241 6.64618 1.21675 0
M  V30 58 H -0.103474 5.88042 -0.192298 0
M  V30 59 H 1.58008 5.69904 -0.779305 0
M  V30 60 H 0.221494 3.76835 1.12649 0
M  V30 61 H 1.8749 3.62492 0.465003 0
M  V30 62 H 0.877195 3.73177 -1.87715 0
M  V30 63 H -0.742564 3.78621 -1.13926 0
M  V30 64 H -0.319747 1.58419 -1.88008 0
M  V30 65 H -0.330988 1.71366 1.14492 0
M  V30 66 H -1.46344 -0.646214 -1.21845 0
M  V30 67 H -2.35761 0.931426 -2.83103 0
M  V30 68 H -3.37899 -0.496602 -2.75558 0
M  V30 69 H -4.03176 2.11776 -1.35081 0
M  V30 70 H -5.06603 0.573261 -1.41603 0
M  V30 71 H -5.37541 0.796006 -3.76682 0
M  V30 72 H -5.82042 2.28756 -2.91142 0
M  V30 73 H -3.13178 2.71461 -3.6554 0
M  V30 74 H -2.87817 2.36767 -6.39579 0
M  V30 75 H -3.75363 3.7904 -7.03321 0
M  V30 76 H -6.07122 3.78209 -6.31117 0
M  V30 77 H -4.23687 -0.560455 0.0197881 0
M  V30 78 H -0.927608 -1.78268 0.959672 0
M  V30 79 H -2.27149 -1.65098 2.89238 0
M  V30 80 H -0.997548 -2.86498 3.08828 0
M  V30 81 H -4.59192 -2.32766 2.88686 0
M  V30 82 H -6.29456 -4.01798 3.56225 0
M  V30 83 H -6.23977 -7.07091 3.34134 0
M  V30 84 H -3.23599 -6.90012 3.81332 0
M  V30 85 H -1.53097 -5.24235 3.14539 0
M  V30 86 H -1.675 -4.66204 0.517701 0
M  V30 87 H 1.75702 -2.99279 -1.02534 0
M  V30 88 H 0.501288 -1.82373 -0.470685 0
M  V30 89 H 2.60162 -3.27396 1.20704 0
M  V30 90 H 1.65443 0.774469 1.84077 0
M  V30 91 H 3.76873 0.457862 2.69894 0
M  V30 92 H 3.90947 1.54803 1.3095 0
M  V30 93 H 4.92501 0.749115 -0.85801 0
M  V30 94 H 6.32191 0.219912 -2.62429 0
M  V30 95 H 8.0308 -1.30599 -3.66657 0
M  V30 96 H 8.81627 -3.27265 -2.53385 0
M  V30 97 H 7.91071 -3.81429 -0.261282 0
M  V30 98 H 6.49168 -3.25504 1.50499 0
M  V30 99 H 4.83496 -1.83881 2.59802 0
M  V30 100 H 2.49453 -0.550047 -0.782239 0
M  V30 END ATOM
M  V30 BEGIN BOND
M  V30 1 1 1 2
M  V30 2 2 2 3 CFG=2
M  V30 3 1 2 4
M  V30 4 1 4 5
M  V30 5 1 5 6
M  V30 6 1 6 7
M  V30 7 1 7 8
M  V30 8 1 8 9
M  V30 9 1 9 10
M  V30 10 2 10 11
M  V30 11 1 10 12
M  V30 12 1 12 13
M  V30 13 1 13 14
M  V30 14 1 14 15
M  V30 15 1 15 16
M  V30 16 1 16 17
M  V30 17 1 17 18
M  V30 18 2 17 19 CFG=2
M  V30 19 1 12 20
M  V30 20 1 20 21
M  V30 21 2 21 22
M  V30 22 1 21 23
M  V30 23 1 23 24
M  V30 24 1 24 25
M  V30 25 2 25 26
M  V30 26 1 26 27
M  V30 27 2 27 28
M  V30 28 1 28 29
M  V30 29 1 28 30
M  V30 30 2 30 31
M  V30 31 1 23 32
M  V30 32 1 32 33
M  V30 33 2 33 34
M  V30 34 1 33 35
M  V30 35 1 35 36
M  V30 36 1 36 37
M  V30 37 2 37 38
M  V30 38 1 37 39
M  V30 39 1 39 40
M  V30 40 1 40 41
M  V30 41 2 41 42
M  V30 42 1 42 43
M  V30 43 2 43 44
M  V30 44 1 44 45
M  V30 45 2 45 46
M  V30 46 1 46 47
M  V30 47 2 47 48
M  V30 48 1 48 49
M  V30 49 2 49 50
M  V30 50 1 39 51
M  V30 51 1 51 52
M  V30 52 2 52 53
M  V30 53 1 52 8
M  V30 54 1 31 25
M  V30 55 1 50 41
M  V30 56 1 48 43
M  V30 57 1 1 54
M  V30 58 1 1 55
M  V30 59 1 3 56
M  V30 60 1 4 57
M  V30 61 1 5 58
M  V30 62 1 5 59
M  V30 63 1 6 60
M  V30 64 1 6 61
M  V30 65 1 7 62
M  V30 66 1 7 63
M  V30 67 1 8 64 CFG=3
M  V30 68 1 9 65
M  V30 69 1 12 66 CFG=3
M  V30 70 1 13 67
M  V30 71 1 13 68
M  V30 72 1 14 69
M  V30 73 1 14 70
M  V30 74 1 15 71
M  V30 75 1 15 72
M  V30 76 1 16 73
M  V30 77 1 18 74
M  V30 78 1 18 75
M  V30 79 1 19 76
M  V30 80 1 20 77
M  V30 81 1 23 78 CFG=1
M  V30 82 1 24 79
M  V30 83 1 24 80
M  V30 84 1 26 81
M  V30 85 1 27 82
M  V30 86 1 29 83
M  V30 87 1 30 84
M  V30 88 1 31 85
M  V30 89 1 32 86
M  V30 90 1 35 87
M  V30 91 1 35 88
M  V30 92 1 36 89
M  V30 93 1 39 90 CFG=1
M  V30 94 1 40 91
M  V30 95 1 40 92
M  V30 96 1 42 93
M  V30 97 1 44 94
M  V30 98 1 45 95
M  V30 99 1 46 96
M  V30 100 1 47 97
M  V30 101 1 49 98
M  V30 102 1 50 99
M  V30 103 1 51 100
M  V30 END BOND
M  V30 END CTAB
M  END
