
     RDKit          3D

  0  0  0  0  0  0  0  0  0  0999 V3000
M  V30 BEGIN CTAB
M  V30 COUNTS 56 59 0 0 0
M  V30 BEGIN ATOM
M  V30 1 N -4.2961 -3.58832 2.19851 0
M  V30 2 C -4.12438 -2.43774 1.36854 0
M  V30 3 N -5.20884 -1.8564 0.794082 0
M  V30 4 C -5.06061 -0.766952 0.00586896 0
M  V30 5 N -3.83329 -0.258478 -0.208841 0
M  V30 6 C -2.73781 -0.805006 0.341247 0
M  V30 7 C -1.40787 -0.259005 0.111366 0
M  V30 8 C -0.313251 -0.769737 0.634117 0
M  V30 9 C 1.03489 -0.250547 0.426372 0
M  V30 10 C 1.31036 0.838513 -0.343864 0
M  V30 11 C 2.61411 1.25287 -0.481415 0
M  V30 12 C 3.6708 0.615901 0.127061 0
M  V30 13 C 3.40209 -0.4785 0.90248 0
M  V30 14 C 2.08008 -0.90586 1.04712 0
M  V30 15 C 5.03144 1.16285 -0.091601 0
M  V30 16 O 5.12264 2.36048 -0.510023 0
M  V30 17 N 6.13068 0.345185 0.168817 0
M  V30 18 C 7.48552 0.660489 0.0323874 0
M  V30 19 C 8.41513 -0.347157 0.362537 0
M  V30 20 N 7.97003 -1.60583 0.808333 0
M  V30 21 C 9.75176 -0.0754975 0.240806 0
M  V30 22 C 10.2341 1.13926 -0.190253 0
M  V30 23 C 9.30733 2.10006 -0.504201 0
M  V30 24 C 7.92762 1.88098 -0.399788 0
M  V30 25 N -2.93234 -1.89339 1.12253 0
M  V30 26 N -6.23487 -0.207466 -0.565382 0
M  V30 27 C -6.05465 0.970563 -1.41101 0
M  V30 28 C -7.08402 1.97182 -0.895919 0
M  V30 29 C -8.42933 1.40788 -1.284 0
M  V30 30 C -8.67687 0.0351533 -0.796907 0
M  V30 31 C -7.52494 -0.749249 -0.33967 0
M  V30 32 H -4.89025 -4.39555 1.97122 0
M  V30 33 H -3.77182 -3.59367 3.10001 0
M  V30 34 H -1.32361 0.605813 -0.518789 0
M  V30 35 H -0.439395 -1.64102 1.26402 0
M  V30 36 H 0.512538 1.36575 -0.837659 0
M  V30 37 H 2.81328 2.11926 -1.09668 0
M  V30 38 H 4.18586 -1.01872 1.41041 0
M  V30 39 H 1.91598 -1.77079 1.66597 0
M  V30 40 H 5.89425 -0.638294 0.507382 0
M  V30 41 H 7.60236 -1.75442 1.77249 0
M  V30 42 H 8.00304 -2.43473 0.158756 0
M  V30 43 H 10.4822 -0.834456 0.488803 0
M  V30 44 H 11.3038 1.3131 -0.272648 0
M  V30 45 H 9.67951 3.0734 -0.849333 0
M  V30 46 H 7.31307 2.69994 -0.670989 0
M  V30 47 H -6.28236 0.670686 -2.45118 0
M  V30 48 H -5.0371 1.36642 -1.37034 0
M  V30 49 H -7.05076 2.00962 0.203477 0
M  V30 50 H -6.98709 2.95163 -1.3872 0
M  V30 51 H -8.46409 1.45451 -2.41227 0
M  V30 52 H -9.20804 2.1324 -0.947655 0
M  V30 53 H -9.22576 -0.51965 -1.61513 0
M  V30 54 H -9.44753 0.100416 0.0276079 0
M  V30 55 H -7.60709 -0.97096 0.765854 0
M  V30 56 H -7.54032 -1.77755 -0.808949 0
M  V30 END ATOM
M  V30 BEGIN BOND
M  V30 1 1 1 2
M  V30 2 2 2 3
M  V30 3 1 3 4
M  V30 4 2 4 5
M  V30 5 1 5 6
M  V30 6 1 6 7
M  V30 7 2 7 8
M  V30 8 1 8 9
M  V30 9 2 9 10
M  V30 10 1 10 11
M  V30 11 2 11 12
M  V30 12 1 12 13
M  V30 13 2 13 14
M  V30 14 1 12 15
M  V30 15 2 15 16
M  V30 16 1 15 17
M  V30 17 1 17 18
M  V30 18 2 18 19
M  V30 19 1 19 20
M  V30 20 1 19 21
M  V30 21 2 21 22
M  V30 22 1 22 23
M  V30 23 2 23 24
M  V30 24 2 6 25
M  V30 25 1 4 26
M  V30 26 1 26 27
M  V30 27 1 27 28
M  V30 28 1 28 29
M  V30 29 1 29 30
M  V30 30 1 30 31
M  V30 31 1 25 2
M  V30 32 1 31 26
M  V30 33 1 14 9
M  V30 34 1 24 18
M  V30 35 1 1 32
M  V30 36 1 1 33
M  V30 37 1 7 34
M  V30 38 1 8 35
M  V30 39 1 10 36
M  V30 40 1 11 37
M  V30 41 1 13 38
M  V30 42 1 14 39
M  V30 43 1 17 40
M  V30 44 1 20 41
M  V30 45 1 20 42
M  V30 46 1 21 43
M  V30 47 1 22 44
M  V30 48 1 23 45
M  V30 49 1 24 46
M  V30 50 1 27 47
M  V30 51 1 27 48
M  V30 52 1 28 49
M  V30 53 1 28 50
M  V30 54 1 29 51
M  V30 55 1 29 52
M  V30 56 1 30 53
M  V30 57 1 30 54
M  V30 58 1 31 55
M  V30 59 1 31 56
M  V30 END BOND
M  V30 END CTAB
M  END
