
     RDKit          3D

  0  0  0  0  0  0  0  0  0  0999 V3000
M  V30 BEGIN CTAB
M  V30 COUNTS 33 35 0 0 0
M  V30 BEGIN ATOM
M  V30 1 N -0.794176 -1.64683 1.52905 0
M  V30 2 C -1.32518 -1.47375 0.26412 0 CFG=1
M  V30 3 C -2.53427 -0.576516 0.194445 0 CFG=2
M  V30 4 O -3.72625 -1.30981 0.251598 0
M  V30 5 C -2.42727 0.00609469 -1.17782 0 CFG=1
M  V30 6 C -2.88885 1.45572 -1.16485 0
M  V30 7 O -4.19798 1.50117 -0.681665 0
M  V30 8 O -1.15247 -0.140564 -1.63704 0
M  V30 9 C -0.405341 -0.854591 -0.747821 0 CFG=1
M  V30 10 N 0.651007 -0.0697903 -0.117926 0
M  V30 11 C 0.506017 0.965085 0.716683 0
M  V30 12 N 1.72272 1.43515 1.09247 0
M  V30 13 C 2.65294 0.696462 0.494594 0
M  V30 14 C 1.98222 -0.240111 -0.258659 0
M  V30 15 N 2.69819 -1.12808 -0.976357 0
M  V30 16 C 4.0487 -1.07392 -0.936236 0
M  V30 17 N 4.69925 -0.151468 -0.194316 0
M  V30 18 C 4.03752 0.759201 0.541548 0
M  V30 19 N 4.71804 1.72979 1.32223 0
M  V30 20 H -0.219945 -2.43554 1.69024 0
M  V30 21 H -1.21208 -1.25781 2.32721 0
M  V30 22 H -1.65827 -2.48256 -0.109469 0
M  V30 23 H -2.54707 0.202432 0.96924 0
M  V30 24 H -4.31418 -1.1253 -0.525569 0
M  V30 25 H -3.11343 -0.520864 -1.89183 0
M  V30 26 H -2.89894 1.88962 -2.17411 0
M  V30 27 H -2.24804 2.05597 -0.508904 0
M  V30 28 H -4.22868 1.73452 0.281541 0
M  V30 29 H 0.0810076 -1.6962 -1.30938 0
M  V30 30 H -0.447575 1.36297 1.03989 0
M  V30 31 H 4.56969 -1.80845 -1.52968 0
M  V30 32 H 4.28327 2.18497 2.14902 0
M  V30 33 H 5.68944 2.01298 1.07777 0
M  V30 END ATOM
M  V30 BEGIN BOND
M  V30 1 1 1 2
M  V30 2 1 2 3
M  V30 3 1 3 4
M  V30 4 1 3 5
M  V30 5 1 5 6
M  V30 6 1 6 7
M  V30 7 1 5 8
M  V30 8 1 8 9
M  V30 9 1 9 10
M  V30 10 1 10 11
M  V30 11 2 11 12
M  V30 12 1 12 13
M  V30 13 2 13 14
M  V30 14 1 14 15
M  V30 15 2 15 16
M  V30 16 1 16 17
M  V30 17 2 17 18
M  V30 18 1 18 19
M  V30 19 1 9 2
M  V30 20 1 14 10
M  V30 21 1 18 13
M  V30 22 1 1 20
M  V30 23 1 1 21
M  V30 24 1 2 22 CFG=3
M  V30 25 1 3 23 CFG=1
M  V30 26 1 4 24
M  V30 27 1 5 25 CFG=3
M  V30 28 1 6 26
M  V30 29 1 6 27
M  V30 30 1 7 28
M  V30 31 1 9 29 CFG=3
M  V30 32 1 11 30
M  V30 33 1 16 31
M  V30 34 1 19 32
M  V30 35 1 19 33
M  V30 END BOND
M  V30 END CTAB
M  END
