
     RDKit          3D

  0  0  0  0  0  0  0  0  0  0999 V3000
M  V30 BEGIN CTAB
M  V30 COUNTS 32 32 0 0 0
M  V30 BEGIN ATOM
M  V30 1 N -2.88646 -2.47292 0.227968 0
M  V30 2 C -2.16496 -1.32852 -0.252354 0
M  V30 3 C -1.21608 -0.832872 0.784454 0
M  V30 4 N -0.425112 0.291008 0.462666 0
M  V30 5 C -1.29348 1.44058 0.329792 0
M  V30 6 C -0.510852 2.7291 0.235536 0
M  V30 7 N 0.483049 2.63082 -0.825006 0
M  V30 8 C 1.35544 1.51248 -0.515272 0
M  V30 9 C 0.473916 0.254249 -0.603326 0 CFG=1
M  V30 10 C 1.31553 -0.967177 -0.788221 0
M  V30 11 C 2.22741 -1.34174 0.299531 0
M  V30 12 N 3.22176 -0.374648 0.650383 0
M  V30 13 H -3.20873 -2.39468 1.16068 0
M  V30 14 H -3.48186 -2.93775 -0.412408 0
M  V30 15 H -2.92907 -0.574376 -0.54659 0
M  V30 16 H -1.68925 -1.65098 -1.1952 0
M  V30 17 H -1.86284 -0.51088 1.66167 0
M  V30 18 H -0.685366 -1.71949 1.18686 0
M  V30 19 H -1.99836 1.51074 1.18336 0
M  V30 20 H -1.88415 1.3809 -0.633513 0
M  V30 21 H -0.0382408 2.91793 1.20757 0
M  V30 22 H -1.18811 3.55303 -0.00841436 0
M  V30 23 H 0.0340313 2.52718 -1.73589 0
M  V30 24 H 2.23092 1.45546 -1.15673 0
M  V30 25 H 1.678 1.68812 0.534374 0
M  V30 26 H -0.0935424 0.392439 -1.56164 0
M  V30 27 H 0.659874 -1.79608 -1.10678 0
M  V30 28 H 1.95326 -0.758419 -1.7018 0
M  V30 29 H 2.79933 -2.28243 0.0417144 0
M  V30 30 H 1.66863 -1.58354 1.22382 0
M  V30 31 H 3.31384 -0.240821 1.67503 0
M  V30 32 H 4.14145 -0.516701 0.177729 0
M  V30 END ATOM
M  V30 BEGIN BOND
M  V30 1 1 1 2
M  V30 2 1 2 3
M  V30 3 1 3 4
M  V30 4 1 4 5
M  V30 5 1 5 6
M  V30 6 1 6 7
M  V30 7 1 7 8
M  V30 8 1 8 9
M  V30 9 1 9 10
M  V30 10 1 10 11
M  V30 11 1 11 12
M  V30 12 1 9 4
M  V30 13 1 1 13
M  V30 14 1 1 14
M  V30 15 1 2 15
M  V30 16 1 2 16
M  V30 17 1 3 17
M  V30 18 1 3 18
M  V30 19 1 5 19
M  V30 20 1 5 20
M  V30 21 1 6 21
M  V30 22 1 6 22
M  V30 23 1 7 23
M  V30 24 1 8 24
M  V30 25 1 8 25
M  V30 26 1 9 26 CFG=3
M  V30 27 1 10 27
M  V30 28 1 10 28
M  V30 29 1 11 29
M  V30 30 1 11 30
M  V30 31 1 12 31
M  V30 32 1 12 32
M  V30 END BOND
M  V30 END CTAB
M  END
