
     RDKit          3D

  0  0  0  0  0  0  0  0  0  0999 V3000
M  V30 BEGIN CTAB
M  V30 COUNTS 32 33 0 0 0
M  V30 BEGIN ATOM
M  V30 1 C 5.30906 1.56268 0.45391 0
M  V30 2 C 4.35677 0.392241 0.216065 0
M  V30 3 O 3.02897 0.783325 0.445571 0
M  V30 4 C 2.00535 -0.122751 0.26135 0
M  V30 5 C 2.185 -1.43691 -0.157705 0
M  V30 6 C 1.13242 -2.29452 -0.329455 0
M  V30 7 C -0.156229 -1.88354 -0.089875 0
M  V30 8 C -0.347176 -0.565883 0.33056 0
M  V30 9 C 0.711885 0.30642 0.506354 0
M  V30 10 F 0.497483 1.60295 0.91443 0
M  V30 11 C -1.69902 -0.113115 0.57633 0
M  V30 12 N -2.13029 0.298103 1.77465 0
M  V30 13 C -3.37748 0.744863 1.91598 0
M  V30 14 C -4.29101 0.821878 0.893586 0
M  V30 15 C -3.87809 0.400547 -0.377612 0
M  V30 16 C -2.58113 -0.0585825 -0.496409 0
M  V30 17 N -2.16997 -0.481713 -1.80667 0
M  V30 18 N -4.73211 0.468838 -1.49702 0
M  V30 19 H 5.7507 1.82958 -0.516124 0
M  V30 20 H 6.12821 1.21645 1.11915 0
M  V30 21 H 4.81215 2.40644 0.953526 0
M  V30 22 H 4.58535 -0.424057 0.93652 0
M  V30 23 H 4.44968 0.0984079 -0.841119 0
M  V30 24 H 3.21466 -1.74257 -0.341086 0
M  V30 25 H 1.31834 -3.30361 -0.661357 0
M  V30 26 H -1.02594 -2.55621 -0.208888 0
M  V30 27 H -3.72653 1.08219 2.88238 0
M  V30 28 H -5.28621 1.18063 1.00972 0
M  V30 29 H -1.97566 -1.46621 -2.06728 0
M  V30 30 H -2.05594 0.224134 -2.5552 0
M  V30 31 H -4.39852 0.988799 -2.34626 0
M  V30 32 H -5.65471 0.0412085 -1.50652 0
M  V30 END ATOM
M  V30 BEGIN BOND
M  V30 1 1 1 2
M  V30 2 1 2 3
M  V30 3 1 3 4
M  V30 4 2 4 5
M  V30 5 1 5 6
M  V30 6 2 6 7
M  V30 7 1 7 8
M  V30 8 2 8 9
M  V30 9 1 9 10
M  V30 10 1 8 11
M  V30 11 2 11 12
M  V30 12 1 12 13
M  V30 13 2 13 14
M  V30 14 1 14 15
M  V30 15 2 15 16
M  V30 16 1 16 17
M  V30 17 1 15 18
M  V30 18 1 9 4
M  V30 19 1 16 11
M  V30 20 1 1 19
M  V30 21 1 1 20
M  V30 22 1 1 21
M  V30 23 1 2 22
M  V30 24 1 2 23
M  V30 25 1 5 24
M  V30 26 1 6 25
M  V30 27 1 7 26
M  V30 28 1 13 27
M  V30 29 1 14 28
M  V30 30 1 17 29
M  V30 31 1 17 30
M  V30 32 1 18 31
M  V30 33 1 18 32
M  V30 END BOND
M  V30 END CTAB
M  END
