
     RDKit          3D

  0  0  0  0  0  0  0  0  0  0999 V3000
M  V30 BEGIN CTAB
M  V30 COUNTS 26 26 0 0 0
M  V30 BEGIN ATOM
M  V30 1 C -2.17814 2.94605 0.632374 0
M  V30 2 C -2.14804 1.77348 0.918985 0
M  V30 3 C -2.13025 0.34883 1.25891 0
M  V30 4 C -1.1796 -0.393408 0.3849 0
M  V30 5 C 0.183234 0.147864 0.571267 0
M  V30 6 C 0.621773 1.02932 1.51409 0
M  V30 7 N 1.95778 1.23954 1.31656 0
M  V30 8 N 2.37871 0.527398 0.289461 0
M  V30 9 C 1.31787 -0.150591 -0.187436 0
M  V30 10 N 1.35656 -1.02366 -1.28615 0
M  V30 11 C 3.73962 0.465514 -0.254468 0
M  V30 12 N -1.23034 -1.8206 0.547778 0
M  V30 13 N -2.47782 -2.36529 0.281206 0
M  V30 14 H -2.21589 3.98405 0.367234 0
M  V30 15 H -1.82158 0.277159 2.33986 0
M  V30 16 H -3.16461 -0.0951043 1.24937 0
M  V30 17 H -1.46657 -0.187516 -0.682606 0
M  V30 18 H 0.0775004 1.51485 2.30889 0
M  V30 19 H 0.923631 -0.767624 -2.20899 0
M  V30 20 H 1.81186 -1.96482 -1.24926 0
M  V30 21 H 3.85759 -0.512194 -0.759223 0
M  V30 22 H 4.46834 0.564838 0.567952 0
M  V30 23 H 3.91995 1.25131 -1.00083 0
M  V30 24 H -0.56768 -2.27983 -0.11971 0
M  V30 25 H -2.9383 -2.76099 1.12306 0
M  V30 26 H -3.09558 -1.74856 -0.28198 0
M  V30 END ATOM
M  V30 BEGIN BOND
M  V30 1 3 1 2
M  V30 2 1 2 3
M  V30 3 1 3 4
M  V30 4 1 4 5
M  V30 5 1 5 6
M  V30 6 2 6 7
M  V30 7 1 7 8
M  V30 8 1 8 9
M  V30 9 1 9 10
M  V30 10 1 8 11
M  V30 11 1 4 12
M  V30 12 1 12 13
M  V30 13 2 9 5
M  V30 14 1 1 14
M  V30 15 1 3 15
M  V30 16 1 3 16
M  V30 17 1 4 17
M  V30 18 1 6 18
M  V30 19 1 10 19
M  V30 20 1 10 20
M  V30 21 1 11 21
M  V30 22 1 11 22
M  V30 23 1 11 23
M  V30 24 1 12 24
M  V30 25 1 13 25
M  V30 26 1 13 26
M  V30 END BOND
M  V30 END CTAB
M  END
