
     RDKit          3D

  0  0  0  0  0  0  0  0  0  0999 V3000
M  V30 BEGIN CTAB
M  V30 COUNTS 36 39 0 0 0
M  V30 BEGIN ATOM
M  V30 1 N -7.58045 0.98548 1.36663 0
M  V30 2 C -6.58803 0.425525 0.515323 0
M  V30 3 C -5.23074 0.594546 0.792064 0
M  V30 4 C -4.26258 0.0555381 -0.0271889 0
M  V30 5 C -4.69224 -0.654627 -1.12696 0
M  V30 6 C -6.04571 -0.824416 -1.40483 0
M  V30 7 C -7.01367 -0.285483 -0.58569 0
M  V30 8 C -2.84472 0.233072 0.263329 0
M  V30 9 N -2.33889 0.908486 1.3102 0
M  V30 10 N -1.00318 0.855041 1.24378 0
M  V30 11 C -0.689922 0.138155 0.142778 0
M  V30 12 O -1.80572 -0.206237 -0.401258 0
M  V30 13 C 0.691093 -0.14171 -0.272022 0
M  V30 14 N 1.02822 -0.851722 -1.36216 0
M  V30 15 N 2.36164 -0.902105 -1.42388 0
M  V30 16 C 2.83638 -0.219908 -0.366914 0
M  V30 17 O 1.80272 0.226265 0.30832 0
M  V30 18 C 4.25485 -0.0479964 -0.0850484 0
M  V30 19 C 5.21679 -0.588414 -0.906455 0
M  V30 20 C 6.573 -0.439297 -0.660429 0
M  V30 21 N 7.55788 -1.00357 -1.51833 0
M  V30 22 C 6.98823 0.276822 0.448228 0
M  V30 23 C 6.03199 0.822993 1.27858 0
M  V30 24 C 4.6948 0.66106 1.01302 0
M  V30 25 H -8.21217 1.7587 1.07692 0
M  V30 26 H -7.70476 0.623211 2.33607 0
M  V30 27 H -4.9158 1.15128 1.65396 0
M  V30 28 H -3.9153 -1.07264 -1.762 0
M  V30 29 H -6.32725 -1.39292 -2.28447 0
M  V30 30 H -8.08062 -0.407564 -0.786626 0
M  V30 31 H 4.95087 -1.15939 -1.78964 0
M  V30 32 H 7.6618 -0.676211 -2.50788 0
M  V30 33 H 8.21801 -1.75674 -1.22205 0
M  V30 34 H 8.03022 0.423009 0.686005 0
M  V30 35 H 6.36368 1.38097 2.14252 0
M  V30 36 H 3.98961 1.1108 1.69775 0
M  V30 END ATOM
M  V30 BEGIN BOND
M  V30 1 1 1 2
M  V30 2 2 2 3
M  V30 3 1 3 4
M  V30 4 2 4 5
M  V30 5 1 5 6
M  V30 6 2 6 7
M  V30 7 1 4 8
M  V30 8 2 8 9
M  V30 9 1 9 10
M  V30 10 2 10 11
M  V30 11 1 11 12
M  V30 12 1 11 13
M  V30 13 2 13 14
M  V30 14 1 14 15
M  V30 15 2 15 16
M  V30 16 1 16 17
M  V30 17 1 16 18
M  V30 18 2 18 19
M  V30 19 1 19 20
M  V30 20 1 20 21
M  V30 21 2 20 22
M  V30 22 1 22 23
M  V30 23 2 23 24
M  V30 24 1 7 2
M  V30 25 1 12 8
M  V30 26 1 17 13
M  V30 27 1 24 18
M  V30 28 1 1 25
M  V30 29 1 1 26
M  V30 30 1 3 27
M  V30 31 1 5 28
M  V30 32 1 6 29
M  V30 33 1 7 30
M  V30 34 1 19 31
M  V30 35 1 21 32
M  V30 36 1 21 33
M  V30 37 1 22 34
M  V30 38 1 23 35
M  V30 39 1 24 36
M  V30 END BOND
M  V30 END CTAB
M  END
