
     RDKit          3D

  0  0  0  0  0  0  0  0  0  0999 V3000
M  V30 BEGIN CTAB
M  V30 COUNTS 22 23 0 0 0
M  V30 BEGIN ATOM
M  V30 1 N -4.10844 1.37459 -0.0327282 0
M  V30 2 C -2.77721 0.895401 -0.0526618 0
M  V30 3 N -1.71349 1.71796 -0.124542 0
M  V30 4 C -0.474608 1.20815 -0.140112 0
M  V30 5 C -0.320082 -0.162449 -0.0813726 0
M  V30 6 N 0.90739 -0.741899 -0.0933489 0
M  V30 7 C 2.00729 0.0239606 -0.163743 0
M  V30 8 C 3.36118 -0.604419 -0.177466 0
M  V30 9 O 3.83578 -0.744309 1.13538 0
M  V30 10 C 1.84743 1.39934 -0.222535 0
M  V30 11 N 0.634722 1.98385 -0.211262 0
M  V30 12 C -1.40092 -1.0224 -0.00721521 0
M  V30 13 N -1.20143 -2.43106 0.0518618 0
M  V30 14 N -2.62223 -0.458729 0.00529827 0
M  V30 15 H -4.34269 2.20956 0.532952 0
M  V30 16 H -4.85458 0.902986 -0.575897 0
M  V30 17 H 4.09946 0.0625109 -0.689038 0
M  V30 18 H 3.36384 -1.57903 -0.679532 0
M  V30 19 H 3.30747 -0.12001 1.69029 0
M  V30 20 H 2.773 1.97322 -0.278489 0
M  V30 21 H -1.96532 -3.02485 -0.353117 0
M  V30 22 H -0.35655 -2.86238 0.467283 0
M  V30 END ATOM
M  V30 BEGIN BOND
M  V30 1 1 1 2
M  V30 2 2 2 3
M  V30 3 1 3 4
M  V30 4 2 4 5
M  V30 5 1 5 6
M  V30 6 2 6 7
M  V30 7 1 7 8
M  V30 8 1 8 9
M  V30 9 1 7 10
M  V30 10 2 10 11
M  V30 11 1 5 12
M  V30 12 1 12 13
M  V30 13 2 12 14
M  V30 14 1 14 2
M  V30 15 1 11 4
M  V30 16 1 1 15
M  V30 17 1 1 16
M  V30 18 1 8 17
M  V30 19 1 8 18
M  V30 20 1 9 19
M  V30 21 1 10 20
M  V30 22 1 13 21
M  V30 23 1 13 22
M  V30 END BOND
M  V30 END CTAB
M  END
