
     RDKit          3D

  0  0  0  0  0  0  0  0  0  0999 V3000
M  V30 BEGIN CTAB
M  V30 COUNTS 30 31 0 0 0
M  V30 BEGIN ATOM
M  V30 1 N 4.21332 -0.584462 -1.71605 0
M  V30 2 C 3.83564 0.687787 -1.11586 0
M  V30 3 C 2.49835 0.609554 -0.502516 0
M  V30 4 C 1.53006 1.52142 -0.852762 0
M  V30 5 N 0.334797 1.53512 -0.230302 0
M  V30 6 C 0.00416261 0.668818 0.772419 0
M  V30 7 C -1.30039 0.809699 1.46224 0
M  V30 8 C -2.45692 0.192031 0.811205 0
M  V30 9 C -2.98976 0.782391 -0.324549 0
M  V30 10 C -4.11461 0.228594 -0.915398 0
M  V30 11 C -4.69584 -0.890894 -0.384808 0
M  V30 12 C -4.1858 -1.50845 0.756549 0
M  V30 13 C -3.06649 -0.935415 1.31821 0
M  V30 14 N 0.966397 -0.222727 1.1059 0
M  V30 15 C 2.17122 -0.282537 0.511622 0
M  V30 16 N 3.12073 -1.29166 0.851032 0
M  V30 17 H 4.85307 -0.40706 -2.53747 0
M  V30 18 H 4.92201 -1.04669 -1.01808 0
M  V30 19 H 4.61986 1.12931 -0.491663 0
M  V30 20 H 3.72906 1.45852 -1.98649 0
M  V30 21 H 1.75367 2.25377 -1.63966 0
M  V30 22 H -1.21758 0.332977 2.46821 0
M  V30 23 H -1.52759 1.8949 1.64778 0
M  V30 24 H -2.52091 1.68257 -0.712526 0
M  V30 25 H -4.52239 0.711305 -1.77362 0
M  V30 26 H -5.57413 -1.31038 -0.831967 0
M  V30 27 H -4.69062 -2.38899 1.15039 0
M  V30 28 H -2.61754 -1.38301 2.22519 0
M  V30 29 H 3.7391 -1.12363 1.6656 0
M  V30 30 H 3.18913 -2.15955 0.287382 0
M  V30 END ATOM
M  V30 BEGIN BOND
M  V30 1 1 1 2
M  V30 2 1 2 3
M  V30 3 2 3 4
M  V30 4 1 4 5
M  V30 5 2 5 6
M  V30 6 1 6 7
M  V30 7 1 7 8
M  V30 8 2 8 9
M  V30 9 1 9 10
M  V30 10 2 10 11
M  V30 11 1 11 12
M  V30 12 2 12 13
M  V30 13 1 6 14
M  V30 14 2 14 15
M  V30 15 1 15 16
M  V30 16 1 15 3
M  V30 17 1 13 8
M  V30 18 1 1 17
M  V30 19 1 1 18
M  V30 20 1 2 19
M  V30 21 1 2 20
M  V30 22 1 4 21
M  V30 23 1 7 22
M  V30 24 1 7 23
M  V30 25 1 9 24
M  V30 26 1 10 25
M  V30 27 1 11 26
M  V30 28 1 12 27
M  V30 29 1 13 28
M  V30 30 1 16 29
M  V30 31 1 16 30
M  V30 END BOND
M  V30 END CTAB
M  END
