
     RDKit          3D

  0  0  0  0  0  0  0  0  0  0999 V3000
M  V30 BEGIN CTAB
M  V30 COUNTS 32 33 0 0 0
M  V30 BEGIN ATOM
M  V30 1 N 3.62051 -2.24301 -1.65015 0
M  V30 2 C 3.2839 -1.11929 -0.806597 0
M  V30 3 N 2.02309 -0.914637 -0.395095 0
M  V30 4 C 1.70682 0.12974 0.389633 0
M  V30 5 C 2.69027 1.02293 0.791185 0
M  V30 6 N 2.11309 1.94616 1.54885 0
M  V30 7 C 0.804935 1.65471 1.63005 0
M  V30 8 N 0.523274 0.54339 0.927938 0
M  V30 9 O -0.68033 -0.0936346 0.749503 0
M  V30 10 C -1.46632 0.153223 -0.402574 0
M  V30 11 C -2.74431 -0.656393 -0.383859 0
M  V30 12 C -3.57548 -0.388734 -1.61212 0
M  V30 13 O -4.73202 -1.16442 -1.52771 0
M  V30 14 C -3.56855 -0.366149 0.849458 0
M  V30 15 O -3.94724 0.95818 0.957572 0
M  V30 16 C 3.99668 0.816719 0.368819 0
M  V30 17 N 4.98812 1.74209 0.790765 0
M  V30 18 N 4.2264 -0.247282 -0.410771 0
M  V30 19 H 3.29419 -2.30884 -2.63418 0
M  V30 20 H 4.20648 -3.03195 -1.29801 0
M  V30 21 H 0.0134613 2.1967 2.17215 0
M  V30 22 H -0.857517 -0.134633 -1.27054 0
M  V30 23 H -1.69913 1.22811 -0.514816 0
M  V30 24 H -2.48844 -1.73825 -0.343347 0
M  V30 25 H -3.06218 -0.684454 -2.54269 0
M  V30 26 H -3.78489 0.688636 -1.67359 0
M  V30 27 H -4.6128 -1.97811 -0.989655 0
M  V30 28 H -4.46141 -1.02414 0.809816 0
M  V30 29 H -2.99655 -0.662394 1.75558 0
M  V30 30 H -3.59338 1.47361 0.198507 0
M  V30 31 H 5.9713 1.43585 1.03076 0
M  V30 32 H 4.80803 2.76627 0.887952 0
M  V30 END ATOM
M  V30 BEGIN BOND
M  V30 1 1 1 2
M  V30 2 2 2 3
M  V30 3 1 3 4
M  V30 4 2 4 5
M  V30 5 1 5 6
M  V30 6 2 6 7
M  V30 7 1 7 8
M  V30 8 1 8 9
M  V30 9 1 9 10
M  V30 10 1 10 11
M  V30 11 1 11 12
M  V30 12 1 12 13
M  V30 13 1 11 14
M  V30 14 1 14 15
M  V30 15 1 5 16
M  V30 16 1 16 17
M  V30 17 2 16 18
M  V30 18 1 18 2
M  V30 19 1 8 4
M  V30 20 1 1 19
M  V30 21 1 1 20
M  V30 22 1 7 21
M  V30 23 1 10 22
M  V30 24 1 10 23
M  V30 25 1 11 24
M  V30 26 1 12 25
M  V30 27 1 12 26
M  V30 28 1 13 27
M  V30 29 1 14 28
M  V30 30 1 14 29
M  V30 31 1 15 30
M  V30 32 1 17 31
M  V30 33 1 17 32
M  V30 END BOND
M  V30 END CTAB
M  END
