
     RDKit          3D

  0  0  0  0  0  0  0  0  0  0999 V3000
M  V30 BEGIN CTAB
M  V30 COUNTS 15 15 0 0 0
M  V30 BEGIN ATOM
M  V30 1 N -1.93486 0.404362 -0.0255362 0
M  V30 2 C -0.651791 -0.191449 -0.0152658 0
M  V30 3 C 0.449504 0.646346 0.0158252 0
M  V30 4 N 0.329893 2.0624 0.0373407 0
M  V30 5 C 1.68167 0.0269578 0.0248907 0
M  V30 6 Cl 3.09659 1.05242 0.0639769 0
M  V30 7 N 1.76535 -1.31296 0.00406557 0
M  V30 8 N 0.73117 -2.13476 -0.0257091 0
M  V30 9 C -0.48946 -1.56861 -0.0354746 0
M  V30 10 O -1.50382 -2.32336 -0.0638304 0
M  V30 11 H -2.318 0.841752 0.845469 0
M  V30 12 H -2.55429 0.443829 -0.866525 0
M  V30 13 H -0.457195 2.55192 -0.447156 0
M  V30 14 H 1.00845 2.68599 0.529179 0
M  V30 15 H 0.846791 -3.18485 -0.04125 0
M  V30 END ATOM
M  V30 BEGIN BOND
M  V30 1 1 1 2
M  V30 2 2 2 3
M  V30 3 1 3 4
M  V30 4 1 3 5
M  V30 5 1 5 6
M  V30 6 2 5 7
M  V30 7 1 7 8
M  V30 8 1 8 9
M  V30 9 2 9 10
M  V30 10 1 9 2
M  V30 11 1 1 11
M  V30 12 1 1 12
M  V30 13 1 4 13
M  V30 14 1 4 14
M  V30 15 1 8 15
M  V30 END BOND
M  V30 END CTAB
M  END
