
     RDKit          3D

  0  0  0  0  0  0  0  0  0  0999 V3000
M  V30 BEGIN CTAB
M  V30 COUNTS 29 30 0 0 0
M  V30 BEGIN ATOM
M  V30 1 C 3.81472 0.218905 0.251691 0
M  V30 2 C 2.67785 1.12863 0.686356 0
M  V30 3 C 1.39711 0.891284 0.0312291 0
M  V30 4 C 0.6371 -0.341249 0.182 0
M  V30 5 C 1.16888 -1.68822 -0.214607 0
M  V30 6 C 0.882513 -1.32023 1.26679 0
M  V30 7 C -0.841794 -0.146377 -0.0868891 0
M  V30 8 N -1.35941 1.10432 -0.0627925 0
M  V30 9 C -2.68036 1.32523 -0.280643 0
M  V30 10 N -3.24184 2.62994 -0.268179 0
M  V30 11 N -3.45567 0.244841 -0.522924 0
M  V30 12 C -2.98013 -1.0001 -0.552747 0
M  V30 13 N -1.6518 -1.17046 -0.328984 0
M  V30 14 N -3.87576 -2.04896 -0.82106 0
M  V30 15 H 3.65049 -0.154514 -0.75744 0
M  V30 16 H 4.76051 0.855416 0.116626 0
M  V30 17 H 4.06926 -0.573089 0.940742 0
M  V30 18 H 3.05218 2.18045 0.595457 0
M  V30 19 H 2.64694 0.979242 1.81304 0
M  V30 20 H 1.59778 1.00452 -1.10898 0
M  V30 21 H 0.747631 1.80165 0.198681 0
M  V30 22 H 0.436418 -2.40272 -0.675014 0
M  V30 23 H 2.19772 -1.86989 -0.476297 0
M  V30 24 H -0.0191013 -1.80437 1.696 0
M  V30 25 H 1.71577 -1.25735 1.96803 0
M  V30 26 H -3.84738 2.93422 0.537196 0
M  V30 27 H -3.1053 3.31981 -1.03427 0
M  V30 28 H -3.9638 -2.39096 -1.78364 0
M  V30 29 H -4.43053 -2.44997 -0.0557783 0
M  V30 END ATOM
M  V30 BEGIN BOND
M  V30 1 1 1 2
M  V30 2 1 2 3
M  V30 3 1 3 4
M  V30 4 1 4 5
M  V30 5 1 5 6
M  V30 6 1 4 7
M  V30 7 2 7 8
M  V30 8 1 8 9
M  V30 9 1 9 10
M  V30 10 2 9 11
M  V30 11 1 11 12
M  V30 12 2 12 13
M  V30 13 1 12 14
M  V30 14 1 6 4
M  V30 15 1 13 7
M  V30 16 1 1 15
M  V30 17 1 1 16
M  V30 18 1 1 17
M  V30 19 1 2 18
M  V30 20 1 2 19
M  V30 21 1 3 20
M  V30 22 1 3 21
M  V30 23 1 5 22
M  V30 24 1 5 23
M  V30 25 1 6 24
M  V30 26 1 6 25
M  V30 27 1 10 26
M  V30 28 1 10 27
M  V30 29 1 14 28
M  V30 30 1 14 29
M  V30 END BOND
M  V30 END CTAB
M  END
