
     RDKit          3D

  0  0  0  0  0  0  0  0  0  0999 V3000
M  V30 BEGIN CTAB
M  V30 COUNTS 48 50 0 0 0
M  V30 BEGIN ATOM
M  V30 1 N 1.3826 -0.667239 3.593 0
M  V30 2 C 2.03145 -0.184996 2.38046 0
M  V30 3 C 1.30941 -0.706653 1.15368 0
M  V30 4 C 1.93225 -0.242393 -0.0952589 0
M  V30 5 C 1.68192 1.05024 -0.548314 0
M  V30 6 C 2.2769 1.45266 -1.71756 0
M  V30 7 C 3.11242 0.659143 -2.48139 0
M  V30 8 C 3.35241 -0.632277 -2.01337 0
M  V30 9 C 2.7664 -1.06828 -0.836009 0
M  V30 10 C 4.18335 -1.41311 -2.7763 0
M  V30 11 C 4.7757 -0.995106 -3.94994 0
M  V30 12 C 4.5285 0.295022 -4.40597 0
M  V30 13 C 3.69158 1.10289 -3.65136 0
M  V30 14 N -0.0918091 -0.34618 1.18224 0
M  V30 15 C -1.13278 -1.30175 1.30074 0
M  V30 16 O -0.8727 -2.54133 1.38885 0
M  V30 17 C -2.54032 -0.890301 1.32521 0
M  V30 18 C -2.89392 0.038446 2.43922 0
M  V30 19 C -3.23473 1.42183 1.97238 0
M  V30 20 C -4.34276 1.43963 0.946026 0
M  V30 21 C -4.28896 0.216529 0.0546772 0
M  V30 22 C -2.85804 -0.278118 -0.0395734 0
M  V30 23 N -4.7555 0.486474 -1.28065 0
M  V30 24 H 1.59788 -0.104079 4.42334 0
M  V30 25 H 1.45271 -1.68815 3.69726 0
M  V30 26 H 2.14203 0.90177 2.40111 0
M  V30 27 H 3.05774 -0.626725 2.35764 0
M  V30 28 H 1.37853 -1.80296 1.20369 0
M  V30 29 H 1.03081 1.71407 0.0185427 0
M  V30 30 H 2.09678 2.46544 -2.09701 0
M  V30 31 H 2.96385 -2.07395 -0.488714 0
M  V30 32 H 4.39206 -2.42106 -2.44652 0
M  V30 33 H 5.42943 -1.61743 -4.54612 0
M  V30 34 H 4.99251 0.625125 -5.3272 0
M  V30 35 H 3.47722 2.1153 -3.97934 0
M  V30 36 H -0.352706 0.658756 1.1129 0
M  V30 37 H -3.23599 -1.7734 1.39366 0
M  V30 38 H -3.77301 -0.335459 3.0301 0
M  V30 39 H -2.07081 0.130053 3.18207 0
M  V30 40 H -3.58994 2.04033 2.82651 0
M  V30 41 H -2.35334 1.91511 1.51977 0
M  V30 42 H -4.21555 2.3365 0.325361 0
M  V30 43 H -5.32917 1.53346 1.45799 0
M  V30 44 H -4.87763 -0.618421 0.502827 0
M  V30 45 H -2.19553 0.574051 -0.269146 0
M  V30 46 H -2.81355 -1.08993 -0.790049 0
M  V30 47 H -5.27793 -0.368675 -1.61435 0
M  V30 48 H -3.93978 0.615155 -1.91578 0
M  V30 END ATOM
M  V30 BEGIN BOND
M  V30 1 1 1 2
M  V30 2 1 2 3
M  V30 3 1 3 4
M  V30 4 2 4 5
M  V30 5 1 5 6
M  V30 6 2 6 7
M  V30 7 1 7 8
M  V30 8 2 8 9
M  V30 9 1 8 10
M  V30 10 2 10 11
M  V30 11 1 11 12
M  V30 12 2 12 13
M  V30 13 1 3 14
M  V30 14 1 14 15
M  V30 15 2 15 16
M  V30 16 1 15 17
M  V30 17 1 17 18
M  V30 18 1 18 19
M  V30 19 1 19 20
M  V30 20 1 20 21
M  V30 21 1 21 22
M  V30 22 1 21 23
M  V30 23 1 9 4
M  V30 24 1 22 17
M  V30 25 1 13 7
M  V30 26 1 1 24
M  V30 27 1 1 25
M  V30 28 1 2 26
M  V30 29 1 2 27
M  V30 30 1 3 28
M  V30 31 1 5 29
M  V30 32 1 6 30
M  V30 33 1 9 31
M  V30 34 1 10 32
M  V30 35 1 11 33
M  V30 36 1 12 34
M  V30 37 1 13 35
M  V30 38 1 14 36
M  V30 39 1 17 37
M  V30 40 1 18 38
M  V30 41 1 18 39
M  V30 42 1 19 40
M  V30 43 1 19 41
M  V30 44 1 20 42
M  V30 45 1 20 43
M  V30 46 1 21 44
M  V30 47 1 22 45
M  V30 48 1 22 46
M  V30 49 1 23 47
M  V30 50 1 23 48
M  V30 END BOND
M  V30 END CTAB
M  END
