
     RDKit          3D

  0  0  0  0  0  0  0  0  0  0999 V3000
M  V30 BEGIN CTAB
M  V30 COUNTS 25 26 0 0 0
M  V30 BEGIN ATOM
M  V30 1 N 2.60113 2.27369 -1.22007 0
M  V30 2 C 2.38962 0.975558 -0.645695 0
M  V30 3 N 1.16321 0.537952 -0.33637 0
M  V30 4 C 0.891596 -0.6458 0.195286 0
M  V30 5 N -0.403647 -1.06948 0.505312 0
M  V30 6 C -1.62769 -0.396163 0.323593 0
M  V30 7 C -2.73945 -0.780133 1.11516 0
M  V30 8 C -3.96645 -0.195787 0.985162 0
M  V30 9 C -4.1132 0.802626 0.0452602 0
M  V30 10 C -3.05341 1.19949 -0.740516 0
M  V30 11 C -1.79395 0.592771 -0.600757 0
M  V30 12 N 1.97706 -1.44771 0.428288 0
M  V30 13 C 3.22787 -1.05882 0.137278 0
M  V30 14 N 4.32441 -1.95112 0.407692 0
M  V30 15 N 3.44261 0.153406 -0.400814 0
M  V30 16 H 2.08458 3.09226 -0.844141 0
M  V30 17 H 3.26206 2.39691 -2.00241 0
M  V30 18 H -0.487215 -2.04403 0.940179 0
M  V30 19 H -2.58718 -1.55895 1.83509 0
M  V30 20 H -4.79941 -0.524948 1.6195 0
M  V30 21 H -5.09188 1.25309 -0.042438 0
M  V30 22 H -3.15713 1.98293 -1.48224 0
M  V30 23 H -1.00605 0.926016 -1.24596 0
M  V30 24 H 4.2585 -2.95733 0.232759 0
M  V30 25 H 5.204 -1.55644 0.790858 0
M  V30 END ATOM
M  V30 BEGIN BOND
M  V30 1 1 1 2
M  V30 2 2 2 3
M  V30 3 1 3 4
M  V30 4 1 4 5
M  V30 5 1 5 6
M  V30 6 2 6 7
M  V30 7 1 7 8
M  V30 8 2 8 9
M  V30 9 1 9 10
M  V30 10 2 10 11
M  V30 11 2 4 12
M  V30 12 1 12 13
M  V30 13 1 13 14
M  V30 14 2 13 15
M  V30 15 1 15 2
M  V30 16 1 11 6
M  V30 17 1 1 16
M  V30 18 1 1 17
M  V30 19 1 5 18
M  V30 20 1 7 19
M  V30 21 1 8 20
M  V30 22 1 9 21
M  V30 23 1 10 22
M  V30 24 1 11 23
M  V30 25 1 14 24
M  V30 26 1 14 25
M  V30 END BOND
M  V30 END CTAB
M  END
