
     RDKit          3D

  0  0  0  0  0  0  0  0  0  0999 V3000
M  V30 BEGIN CTAB
M  V30 COUNTS 49 51 0 0 0
M  V30 BEGIN ATOM
M  V30 1 C -1.52175 -4.09538 -3.03446 0
M  V30 2 O -1.41414 -3.04867 -2.0902 0
M  V30 3 C -2.47828 -2.66958 -1.26529 0
M  V30 4 C -3.70377 -3.31105 -1.33634 0
M  V30 5 C -4.71583 -2.89925 -0.502602 0
M  V30 6 C -4.46561 -1.8512 0.381192 0
M  V30 7 C -3.27178 -1.20523 0.469 0
M  V30 8 C -2.26086 -1.63753 -0.382629 0
M  V30 9 O -1.02207 -1.02133 -0.341167 0
M  V30 10 C -0.794514 0.0926558 -1.16189 0
M  V30 11 C 0.606961 0.609212 -0.97945 0
M  V30 12 O 0.8896 1.61105 -1.65459 0
M  V30 13 N 1.51435 -0.0021507 -0.112277 0
M  V30 14 C 2.839 0.398497 0.135818 0
M  V30 15 C 3.38195 1.61561 -0.171045 0
M  V30 16 C 4.72933 1.92753 0.0896075 0
M  V30 17 C 5.54866 0.994874 0.672188 0
M  V30 18 C 5.01974 -0.236511 0.989016 0
M  V30 19 C 3.70732 -0.537332 0.733835 0
M  V30 20 S 7.23495 1.27762 1.03457 0
M  V30 21 O 7.49145 2.72406 1.34553 0
M  V30 22 O 7.65613 0.488883 2.26555 0
M  V30 23 N 8.23358 0.825019 -0.316406 0
M  V30 24 C -2.97952 -0.0970726 1.34363 0
M  V30 25 C -3.63643 1.0168 1.47353 0
M  V30 26 S -3.19144 2.36302 2.61725 0
M  V30 27 C -4.52225 3.44773 2.1362 0
M  V30 28 N -5.17415 2.84635 1.24103 0
M  V30 29 C -4.79477 1.5853 0.827383 0
M  V30 30 O -5.46551 0.978044 -0.0950894 0
M  V30 31 N -4.73238 4.74179 2.7137 0
M  V30 32 H -1.87701 -4.99342 -2.45808 0
M  V30 33 H -2.27365 -3.79799 -3.80133 0
M  V30 34 H -0.515948 -4.25867 -3.44543 0
M  V30 35 H -3.8504 -4.12571 -2.04438 0
M  V30 36 H -5.68604 -3.38642 -0.538951 0
M  V30 37 H -5.29079 -1.5824 1.02543 0
M  V30 38 H -0.887233 -0.232882 -2.20551 0
M  V30 39 H -1.49103 0.904276 -0.874938 0
M  V30 40 H 1.14238 -0.868445 0.415954 0
M  V30 41 H 2.76785 2.37528 -0.61638 0
M  V30 42 H 5.11524 2.89318 -0.16659 0
M  V30 43 H 5.67335 -0.979342 1.45347 0
M  V30 44 H 3.30396 -1.50058 0.984046 0
M  V30 45 H 7.7543 0.963046 -1.22492 0
M  V30 46 H 9.08719 1.41873 -0.264585 0
M  V30 47 H -2.07341 -0.215229 1.98885 0
M  V30 48 H -5.54959 4.95374 3.34618 0
M  V30 49 H -4.05711 5.5011 2.50335 0
M  V30 END ATOM
M  V30 BEGIN BOND
M  V30 1 1 1 2
M  V30 2 1 2 3
M  V30 3 2 3 4
M  V30 4 1 4 5
M  V30 5 2 5 6
M  V30 6 1 6 7
M  V30 7 2 7 8
M  V30 8 1 8 9
M  V30 9 1 9 10
M  V30 10 1 10 11
M  V30 11 2 11 12
M  V30 12 1 11 13
M  V30 13 1 13 14
M  V30 14 2 14 15
M  V30 15 1 15 16
M  V30 16 2 16 17
M  V30 17 1 17 18
M  V30 18 2 18 19
M  V30 19 1 17 20
M  V30 20 2 20 21
M  V30 21 2 20 22
M  V30 22 1 20 23
M  V30 23 1 7 24
M  V30 24 2 24 25 CFG=2
M  V30 25 1 25 26
M  V30 26 1 26 27
M  V30 27 2 27 28
M  V30 28 1 28 29
M  V30 29 2 29 30
M  V30 30 1 27 31
M  V30 31 1 8 3
M  V30 32 1 19 14
M  V30 33 1 29 25
M  V30 34 1 1 32
M  V30 35 1 1 33
M  V30 36 1 1 34
M  V30 37 1 4 35
M  V30 38 1 5 36
M  V30 39 1 6 37
M  V30 40 1 10 38
M  V30 41 1 10 39
M  V30 42 1 13 40
M  V30 43 1 15 41
M  V30 44 1 16 42
M  V30 45 1 18 43
M  V30 46 1 19 44
M  V30 47 1 23 45
M  V30 48 1 23 46
M  V30 49 1 24 47
M  V30 50 1 31 48
M  V30 51 1 31 49
M  V30 END BOND
M  V30 END CTAB
M  END
