
     RDKit          3D

  0  0  0  0  0  0  0  0  0  0999 V3000
M  V30 BEGIN CTAB
M  V30 COUNTS 19 20 0 0 0
M  V30 BEGIN ATOM
M  V30 1 N 3.10734 1.02615 0.00560246 0
M  V30 2 C 1.92905 0.246447 0.168475 0
M  V30 3 C 1.96961 -1.02046 0.712846 0
M  V30 4 N 0.865867 -1.78361 0.879337 0
M  V30 5 C -0.353352 -1.30361 0.500841 0
M  V30 6 C -0.438528 -0.0396095 -0.0486701 0
M  V30 7 C 0.690399 0.735791 -0.216769 0
M  V30 8 C -1.74798 0.260328 -0.363524 0
M  V30 9 N -2.28818 1.44374 -0.943891 0
M  V30 10 C -2.45639 -0.875803 0.0180851 0
M  V30 11 N -1.6071 -1.79002 0.528235 0
M  V30 12 H 4.05363 0.607878 -0.114497 0
M  V30 13 H 3.05598 2.08421 0.00149968 0
M  V30 14 H 2.95722 -1.39423 1.01305 0
M  V30 15 H 0.613071 1.71433 -0.643814 0
M  V30 16 H -2.69506 2.20398 -0.342391 0
M  V30 17 H -2.31166 1.62196 -1.97311 0
M  V30 18 H -3.52011 -0.99775 -0.0822643 0
M  V30 19 H -1.8238 -2.73972 0.900957 0
M  V30 END ATOM
M  V30 BEGIN BOND
M  V30 1 1 1 2
M  V30 2 2 2 3
M  V30 3 1 3 4
M  V30 4 2 4 5
M  V30 5 1 5 6
M  V30 6 2 6 7
M  V30 7 1 6 8
M  V30 8 1 8 9
M  V30 9 2 8 10
M  V30 10 1 10 11
M  V30 11 1 7 2
M  V30 12 1 11 5
M  V30 13 1 1 12
M  V30 14 1 1 13
M  V30 15 1 3 14
M  V30 16 1 7 15
M  V30 17 1 9 16
M  V30 18 1 9 17
M  V30 19 1 10 18
M  V30 20 1 11 19
M  V30 END BOND
M  V30 END CTAB
M  END
