
     RDKit          3D

  0  0  0  0  0  0  0  0  0  0999 V3000
M  V30 BEGIN CTAB
M  V30 COUNTS 81 85 0 0 0
M  V30 BEGIN ATOM
M  V30 1 C 0.0165474 8.79267 1.98845 0
M  V30 2 O 0.0662938 7.55889 1.29201 0
M  V30 3 C -0.821414 6.51323 1.5946 0
M  V30 4 O -1.65223 6.73769 2.50885 0
M  V30 5 C -0.762131 5.25025 0.875772 0
M  V30 6 C -1.64491 4.25855 1.20725 0
M  V30 7 C -1.63083 3.05146 0.564642 0
M  V30 8 C -0.695989 2.84911 -0.441608 0
M  V30 9 C 0.200141 3.87159 -0.770519 0
M  V30 10 C 0.176005 5.07929 -0.116519 0
M  V30 11 O 1.06993 6.07177 -0.460001 0
M  V30 12 C 2.00407 5.84167 -1.48305 0
M  V30 13 C -0.665394 1.55317 -1.15866 0
M  V30 14 N -0.132125 0.529766 -0.327343 0
M  V30 15 C -0.0523802 -0.767307 -0.910304 0
M  V30 16 C -1.38364 -1.28918 -1.33175 0
M  V30 17 N -1.75029 -1.09162 -2.60074 0
M  V30 18 C -2.96467 -1.53976 -3.03248 0
M  V30 19 N -3.33423 -1.32147 -4.3816 0
M  V30 20 N -3.7303 -2.15884 -2.15311 0
M  V30 21 C -3.44881 -2.39997 -0.873086 0
M  V30 22 N -2.20528 -1.92211 -0.497046 0
M  V30 23 N -4.25026 -3.05053 0.0804773 0
M  V30 24 C -5.52165 -3.57959 -0.109145 0
M  V30 25 C -6.25994 -3.55291 -1.26646 0
M  V30 26 C -7.5424 -4.11011 -1.36296 0
M  V30 27 C -8.0935 -4.71464 -0.248196 0
M  V30 28 C -7.38849 -4.76626 0.939095 0
M  V30 29 C -6.1395 -4.208 0.984981 0
M  V30 30 C -5.41094 -4.2749 2.26138 0
M  V30 31 C 1.16566 0.927061 0.158699 0
M  V30 32 C 1.82472 -0.0599491 1.01771 0
M  V30 33 N 1.28444 -0.435395 2.18139 0
M  V30 34 C 1.93647 -1.33301 2.92866 0
M  V30 35 N 1.34599 -1.72853 4.17461 0
M  V30 36 N 3.09732 -1.85595 2.54706 0
M  V30 37 C 3.6873 -1.49805 1.36006 0
M  V30 38 N 2.99083 -0.599464 0.656525 0
M  V30 39 N 4.90609 -2.08843 1.04378 0
M  V30 40 C 5.73904 -1.9273 -0.0837876 0
M  V30 41 C 5.41007 -1.11199 -1.12455 0
M  V30 42 C 6.24386 -0.956866 -2.24982 0
M  V30 43 C 7.41993 -1.654 -2.28602 0
M  V30 44 C 7.76408 -2.47807 -1.24609 0
M  V30 45 C 6.94943 -2.62424 -0.155797 0
M  V30 46 C 7.34496 -3.5316 0.972876 0
M  V30 47 H 0.965929 9.01748 2.5025 0
M  V30 48 H -0.792983 8.70194 2.76117 0
M  V30 49 H -0.25606 9.63504 1.33471 0
M  V30 50 H -2.39707 4.38468 1.99821 0
M  V30 51 H -2.31188 2.22866 0.788667 0
M  V30 52 H 0.912839 3.65214 -1.57089 0
M  V30 53 H 2.59119 4.90694 -1.30274 0
M  V30 54 H 1.41671 5.75649 -2.43965 0
M  V30 55 H 2.68422 6.70528 -1.62994 0
M  V30 56 H -1.6968 1.36006 -1.51129 0
M  V30 57 H -0.060616 1.72176 -2.09602 0
M  V30 58 H 0.346226 -1.46021 -0.134771 0
M  V30 59 H 0.678076 -0.788215 -1.73618 0
M  V30 60 H -3.9167 -0.504256 -4.61285 0
M  V30 61 H -3.03248 -1.96269 -5.13474 0
M  V30 62 H -3.81707 -3.13725 1.05238 0
M  V30 63 H -5.88905 -3.09802 -2.16314 0
M  V30 64 H -8.08093 -4.06258 -2.29601 0
M  V30 65 H -9.08288 -5.15469 -0.288782 0
M  V30 66 H -7.8331 -5.24201 1.79901 0
M  V30 67 H -4.43306 -4.82201 2.15419 0
M  V30 68 H -5.13837 -3.24924 2.59037 0
M  V30 69 H -5.97083 -4.78615 3.0439 0
M  V30 70 H 1.82474 1.27966 -0.67551 0
M  V30 71 H 0.979585 1.85619 0.77325 0
M  V30 72 H 1.93958 -1.90581 5.02688 0
M  V30 73 H 0.325784 -1.84137 4.23914 0
M  V30 74 H 5.27371 -2.79003 1.79256 0
M  V30 75 H 4.49852 -0.528101 -1.17553 0
M  V30 76 H 5.94259 -0.295476 -3.05883 0
M  V30 77 H 8.05026 -1.52538 -3.15701 0
M  V30 78 H 8.70175 -3.02697 -1.28977 0
M  V30 79 H 7.31296 -2.97924 1.93026 0
M  V30 80 H 8.38968 -3.8624 0.835786 0
M  V30 81 H 6.71366 -4.44037 0.982436 0
M  V30 END ATOM
M  V30 BEGIN BOND
M  V30 1 1 1 2
M  V30 2 1 2 3
M  V30 3 2 3 4
M  V30 4 1 3 5
M  V30 5 2 5 6
M  V30 6 1 6 7
M  V30 7 2 7 8
M  V30 8 1 8 9
M  V30 9 2 9 10
M  V30 10 1 10 11
M  V30 11 1 11 12
M  V30 12 1 8 13
M  V30 13 1 13 14
M  V30 14 1 14 15
M  V30 15 1 15 16
M  V30 16 2 16 17
M  V30 17 1 17 18
M  V30 18 1 18 19
M  V30 19 2 18 20
M  V30 20 1 20 21
M  V30 21 2 21 22
M  V30 22 1 21 23
M  V30 23 1 23 24
M  V30 24 2 24 25
M  V30 25 1 25 26
M  V30 26 2 26 27
M  V30 27 1 27 28
M  V30 28 2 28 29
M  V30 29 1 29 30
M  V30 30 1 14 31
M  V30 31 1 31 32
M  V30 32 2 32 33
M  V30 33 1 33 34
M  V30 34 1 34 35
M  V30 35 2 34 36
M  V30 36 1 36 37
M  V30 37 2 37 38
M  V30 38 1 37 39
M  V30 39 1 39 40
M  V30 40 2 40 41
M  V30 41 1 41 42
M  V30 42 2 42 43
M  V30 43 1 43 44
M  V30 44 2 44 45
M  V30 45 1 45 46
M  V30 46 1 10 5
M  V30 47 1 22 16
M  V30 48 1 29 24
M  V30 49 1 38 32
M  V30 50 1 45 40
M  V30 51 1 1 47
M  V30 52 1 1 48
M  V30 53 1 1 49
M  V30 54 1 6 50
M  V30 55 1 7 51
M  V30 56 1 9 52
M  V30 57 1 12 53
M  V30 58 1 12 54
M  V30 59 1 12 55
M  V30 60 1 13 56
M  V30 61 1 13 57
M  V30 62 1 15 58
M  V30 63 1 15 59
M  V30 64 1 19 60
M  V30 65 1 19 61
M  V30 66 1 23 62
M  V30 67 1 25 63
M  V30 68 1 26 64
M  V30 69 1 27 65
M  V30 70 1 28 66
M  V30 71 1 30 67
M  V30 72 1 30 68
M  V30 73 1 30 69
M  V30 74 1 31 70
M  V30 75 1 31 71
M  V30 76 1 35 72
M  V30 77 1 35 73
M  V30 78 1 39 74
M  V30 79 1 41 75
M  V30 80 1 42 76
M  V30 81 1 43 77
M  V30 82 1 44 78
M  V30 83 1 46 79
M  V30 84 1 46 80
M  V30 85 1 46 81
M  V30 END BOND
M  V30 END CTAB
M  END
