
     RDKit          3D

  0  0  0  0  0  0  0  0  0  0999 V3000
M  V30 BEGIN CTAB
M  V30 COUNTS 30 30 0 0 0
M  V30 BEGIN ATOM
M  V30 1 N 4.87248 0.377139 -0.265485 0
M  V30 2 C 3.69181 -0.405364 0.00463304 0
M  V30 3 C 2.43843 0.484591 -0.0363282 0
M  V30 4 N 1.28014 -0.312693 0.234422 0
M  V30 5 C -0.0590049 0.15932 0.338633 0
M  V30 6 N -0.54623 1.40437 0.236635 0
M  V30 7 C 0.243117 2.61017 -0.00340075 0
M  V30 8 N -1.86305 1.34669 0.398604 0
M  V30 9 C -2.2502 0.0837883 0.605804 0
M  V30 10 C -1.13233 -0.720332 0.577476 0
M  V30 11 N -1.04465 -2.12792 0.747679 0
M  V30 12 C -3.644 -0.383623 0.829108 0
M  V30 13 C -4.21016 -1.04912 -0.402986 0
M  V30 14 H 5.68404 -0.27181 -0.224387 0
M  V30 15 H 4.78233 0.704927 -1.27085 0
M  V30 16 H 3.55778 -1.16526 -0.80343 0
M  V30 17 H 3.76328 -0.949382 0.967629 0
M  V30 18 H 2.40093 0.82625 -1.11679 0
M  V30 19 H 2.56066 1.33169 0.636863 0
M  V30 20 H 1.47205 -1.35298 0.365195 0
M  V30 21 H 0.867414 2.56364 -0.889601 0
M  V30 22 H 0.831032 2.90212 0.907063 0
M  V30 23 H -0.518046 3.44644 -0.129005 0
M  V30 24 H -1.12195 -2.73483 -0.0935921 0
M  V30 25 H -0.906881 -2.59369 1.66782 0
M  V30 26 H -3.73516 -1.02562 1.72982 0
M  V30 27 H -4.29252 0.506041 1.02616 0
M  V30 28 H -4.18264 -0.348474 -1.23761 0
M  V30 29 H -5.25769 -1.32252 -0.190661 0
M  V30 30 H -3.68099 -1.98356 -0.667081 0
M  V30 END ATOM
M  V30 BEGIN BOND
M  V30 1 1 1 2
M  V30 2 1 2 3
M  V30 3 1 3 4
M  V30 4 1 4 5
M  V30 5 1 5 6
M  V30 6 1 6 7
M  V30 7 1 6 8
M  V30 8 2 8 9
M  V30 9 1 9 10
M  V30 10 1 10 11
M  V30 11 1 9 12
M  V30 12 1 12 13
M  V30 13 2 10 5
M  V30 14 1 1 14
M  V30 15 1 1 15
M  V30 16 1 2 16
M  V30 17 1 2 17
M  V30 18 1 3 18
M  V30 19 1 3 19
M  V30 20 1 4 20
M  V30 21 1 7 21
M  V30 22 1 7 22
M  V30 23 1 7 23
M  V30 24 1 11 24
M  V30 25 1 11 25
M  V30 26 1 12 26
M  V30 27 1 12 27
M  V30 28 1 13 28
M  V30 29 1 13 29
M  V30 30 1 13 30
M  V30 END BOND
M  V30 END CTAB
M  END
