
     RDKit          3D

  0  0  0  0  0  0  0  0  0  0999 V3000
M  V30 BEGIN CTAB
M  V30 COUNTS 37 37 0 0 0
M  V30 BEGIN ATOM
M  V30 1 C 4.74394 0.665341 -0.357721 0
M  V30 2 C 3.36643 0.71096 0.317019 0
M  V30 3 C 2.40049 0.0830285 -0.633582 0
M  V30 4 C 0.989403 0.052084 -0.111445 0
M  V30 5 C 0.838508 -0.711056 1.16124 0
M  V30 6 C -0.561083 -0.408494 1.71086 0
M  V30 7 C -1.63891 -1.11186 1.00788 0
M  V30 8 C -2.23689 -0.447095 -0.177939 0
M  V30 9 C -1.22805 0.207265 -1.08756 0
M  V30 10 C 0.068359 -0.570592 -1.13884 0
M  V30 11 N -2.87431 -1.49576 -0.976924 0
M  V30 12 C -3.31073 0.547551 0.132917 0
M  V30 13 N -2.89344 1.63672 0.956657 0
M  V30 14 H 5.47577 1.15782 0.315232 0
M  V30 15 H 5.00945 -0.384983 -0.57187 0
M  V30 16 H 4.6965 1.23101 -1.306 0
M  V30 17 H 3.42538 0.139497 1.27334 0
M  V30 18 H 3.09253 1.7676 0.498376 0
M  V30 19 H 2.7675 -0.934911 -0.901829 0
M  V30 20 H 2.41685 0.667098 -1.57659 0
M  V30 21 H 0.708686 1.11745 0.102189 0
M  V30 22 H 0.970102 -1.79996 1.00465 0
M  V30 23 H 1.5403 -0.304736 1.90816 0
M  V30 24 H -0.525465 -0.786451 2.7758 0
M  V30 25 H -0.631024 0.677447 1.78242 0
M  V30 26 H -1.26104 -2.1177 0.679197 0
M  V30 27 H -2.46033 -1.33876 1.72651 0
M  V30 28 H -1.01425 1.24636 -0.775869 0
M  V30 29 H -1.59381 0.274141 -2.13912 0
M  V30 30 H -0.109431 -1.65721 -0.940237 0
M  V30 31 H 0.526526 -0.544325 -2.16294 0
M  V30 32 H -3.60166 -1.93295 -0.33448 0
M  V30 33 H -3.36651 -1.05773 -1.77321 0
M  V30 34 H -4.20477 0.0841402 0.592069 0
M  V30 35 H -3.65625 0.974021 -0.838751 0
M  V30 36 H -2.25022 2.30738 0.487622 0
M  V30 37 H -3.61857 2.05764 1.53646 0
M  V30 END ATOM
M  V30 BEGIN BOND
M  V30 1 1 1 2
M  V30 2 1 2 3
M  V30 3 1 3 4
M  V30 4 1 4 5
M  V30 5 1 5 6
M  V30 6 1 6 7
M  V30 7 1 7 8
M  V30 8 1 8 9
M  V30 9 1 9 10
M  V30 10 1 8 11
M  V30 11 1 8 12
M  V30 12 1 12 13
M  V30 13 1 10 4
M  V30 14 1 1 14
M  V30 15 1 1 15
M  V30 16 1 1 16
M  V30 17 1 2 17
M  V30 18 1 2 18
M  V30 19 1 3 19
M  V30 20 1 3 20
M  V30 21 1 4 21
M  V30 22 1 5 22
M  V30 23 1 5 23
M  V30 24 1 6 24
M  V30 25 1 6 25
M  V30 26 1 7 26
M  V30 27 1 7 27
M  V30 28 1 9 28
M  V30 29 1 9 29
M  V30 30 1 10 30
M  V30 31 1 10 31
M  V30 32 1 11 32
M  V30 33 1 11 33
M  V30 34 1 12 34
M  V30 35 1 12 35
M  V30 36 1 13 36
M  V30 37 1 13 37
M  V30 END BOND
M  V30 END CTAB
M  END
