
     RDKit          3D

  0  0  0  0  0  0  0  0  0  0999 V3000
M  V30 BEGIN CTAB
M  V30 COUNTS 23 24 0 0 0
M  V30 BEGIN ATOM
M  V30 1 C -3.16939 0.702053 0.026142 0
M  V30 2 C -2.26525 -0.488529 -0.133176 0
M  V30 3 C -0.825466 -0.0667727 -0.149024 0
M  V30 4 N 0.232229 -0.88917 -0.0374618 0
M  V30 5 C 1.35763 -0.14888 -0.0945453 0
M  V30 6 C 1.00766 1.18629 -0.247143 0
M  V30 7 N -0.335503 1.18082 -0.274569 0
M  V30 8 N 1.97453 2.12287 -0.328898 0
M  V30 9 C 3.27411 1.77463 -0.263896 0
M  V30 10 N 3.60392 0.478227 -0.115938 0
M  V30 11 C 2.68759 -0.488967 -0.0297974 0
M  V30 12 N 3.0974 -1.83956 0.12572 0
M  V30 13 N -2.40348 -1.43519 0.955121 0
M  V30 14 H -2.96633 1.16736 1.03286 0
M  V30 15 H -4.21061 0.367114 -0.0750338 0
M  V30 16 H -2.94256 1.4042 -0.798641 0
M  V30 17 H -2.46436 -0.972634 -1.11091 0
M  V30 18 H -0.911013 2.03653 -0.379689 0
M  V30 19 H 4.09325 2.4779 -0.323347 0
M  V30 20 H 3.25988 -2.394 -0.740285 0
M  V30 21 H 3.23912 -2.28847 1.06239 0
M  V30 22 H -3.40965 -1.56795 1.19672 0
M  V30 23 H -1.92372 -2.31786 0.703407 0
M  V30 END ATOM
M  V30 BEGIN BOND
M  V30 1 1 1 2
M  V30 2 1 2 3
M  V30 3 2 3 4
M  V30 4 1 4 5
M  V30 5 2 5 6
M  V30 6 1 6 7
M  V30 7 1 6 8
M  V30 8 2 8 9
M  V30 9 1 9 10
M  V30 10 2 10 11
M  V30 11 1 11 12
M  V30 12 1 2 13
M  V30 13 1 7 3
M  V30 14 1 11 5
M  V30 15 1 1 14
M  V30 16 1 1 15
M  V30 17 1 1 16
M  V30 18 1 2 17
M  V30 19 1 7 18
M  V30 20 1 9 19
M  V30 21 1 12 20
M  V30 22 1 12 21
M  V30 23 1 13 22
M  V30 24 1 13 23
M  V30 END BOND
M  V30 END CTAB
M  END
