
     RDKit          3D

  0  0  0  0  0  0  0  0  0  0999 V3000
M  V30 BEGIN CTAB
M  V30 COUNTS 41 42 0 0 0
M  V30 BEGIN ATOM
M  V30 1 N -7.47883 -1.97466 0.165537 0
M  V30 2 C -6.41686 -1.0356 0.240212 0
M  V30 3 C -5.12276 -1.40342 -0.0392444 0
M  V30 4 C -4.06326 -0.510368 0.0244933 0
M  V30 5 C -4.25261 0.79725 0.371855 0
M  V30 6 O -3.32158 1.77125 0.47112 0
M  V30 7 C -1.95836 1.80595 0.258071 0
M  V30 8 C -1.4922 1.5252 -1.13157 0
M  V30 9 O -0.134124 1.59491 -1.23989 0
M  V30 10 C 0.553111 0.695732 -0.466966 0
M  V30 11 C 2.07363 0.839768 -0.75096 0
M  V30 12 O 2.70706 -0.0989916 0.064252 0
M  V30 13 C 4.05128 -0.331028 0.149061 0
M  V30 14 C 5.00798 0.3307 -0.563454 0
M  V30 15 C 6.35025 0.0305122 -0.414752 0
M  V30 16 C 6.78183 -0.947483 0.456966 0
M  V30 17 N 8.16834 -1.23288 0.587476 0
M  V30 18 C 5.80925 -1.61272 1.17432 0
M  V30 19 C 4.46728 -1.32569 1.0379 0
M  V30 20 C -5.57957 1.17761 0.659575 0
M  V30 21 C -6.61345 0.281224 0.591582 0
M  V30 22 H -7.2927 -2.95108 0.474628 0
M  V30 23 H -8.43795 -1.75908 -0.177838 0
M  V30 24 H -4.94067 -2.44102 -0.320068 0
M  V30 25 H -3.04468 -0.851139 -0.192991 0
M  V30 26 H -1.62115 2.86089 0.487491 0
M  V30 27 H -1.40328 1.18165 1.00418 0
M  V30 28 H -1.83037 0.546323 -1.54812 0
M  V30 29 H -1.89792 2.36083 -1.77677 0
M  V30 30 H 0.440604 0.992105 0.616025 0
M  V30 31 H 0.325073 -0.358534 -0.645546 0
M  V30 32 H 2.27228 0.715802 -1.82742 0
M  V30 33 H 2.3888 1.8543 -0.41114 0
M  V30 34 H 4.67042 1.10429 -1.25338 0
M  V30 35 H 7.08275 0.564802 -0.98612 0
M  V30 36 H 8.53899 -2.07664 0.0895489 0
M  V30 37 H 8.81565 -0.639869 1.15261 0
M  V30 38 H 6.13204 -2.38218 1.86181 0
M  V30 39 H 3.71598 -1.87351 1.62375 0
M  V30 40 H -5.80827 2.2069 0.945246 0
M  V30 41 H -7.64203 0.567881 0.812587 0
M  V30 END ATOM
M  V30 BEGIN BOND
M  V30 1 1 1 2
M  V30 2 2 2 3
M  V30 3 1 3 4
M  V30 4 2 4 5
M  V30 5 1 5 6
M  V30 6 1 6 7
M  V30 7 1 7 8
M  V30 8 1 8 9
M  V30 9 1 9 10
M  V30 10 1 10 11
M  V30 11 1 11 12
M  V30 12 1 12 13
M  V30 13 2 13 14
M  V30 14 1 14 15
M  V30 15 2 15 16
M  V30 16 1 16 17
M  V30 17 1 16 18
M  V30 18 2 18 19
M  V30 19 1 5 20
M  V30 20 2 20 21
M  V30 21 1 21 2
M  V30 22 1 19 13
M  V30 23 1 1 22
M  V30 24 1 1 23
M  V30 25 1 3 24
M  V30 26 1 4 25
M  V30 27 1 7 26
M  V30 28 1 7 27
M  V30 29 1 8 28
M  V30 30 1 8 29
M  V30 31 1 10 30
M  V30 32 1 10 31
M  V30 33 1 11 32
M  V30 34 1 11 33
M  V30 35 1 14 34
M  V30 36 1 15 35
M  V30 37 1 17 36
M  V30 38 1 17 37
M  V30 39 1 18 38
M  V30 40 1 19 39
M  V30 41 1 20 40
M  V30 42 1 21 41
M  V30 END BOND
M  V30 END CTAB
M  END
