
     RDKit          3D

  0  0  0  0  0  0  0  0  0  0999 V3000
M  V30 BEGIN CTAB
M  V30 COUNTS 23 23 0 0 0
M  V30 BEGIN ATOM
M  V30 1 F 2.89297 -1.93259 -0.799108 0
M  V30 2 C 2.92404 -0.699881 -0.230235 0
M  V30 3 C 1.86093 0.251446 -0.595627 0
M  V30 4 C 0.472529 -0.135374 -0.274481 0
M  V30 5 C -0.569435 0.789699 -0.429464 0
M  V30 6 C -1.8789 0.522122 -0.146068 0
M  V30 7 N -2.91763 1.47526 -0.310655 0
M  V30 8 C -2.22447 -0.735664 0.325613 0
M  V30 9 C -1.22055 -1.65952 0.485969 0
M  V30 10 C 0.11278 -1.36953 0.191737 0
M  V30 11 F -1.54089 -2.88502 0.943102 0
M  V30 12 O -3.55138 -1.03681 0.622636 0
M  V30 13 N 2.10626 1.52155 0.106115 0
M  V30 14 H 3.90462 -0.201144 -0.491123 0
M  V30 15 H 2.88885 -0.865767 0.888268 0
M  V30 16 H 1.92101 0.439144 -1.71348 0
M  V30 17 H -0.276056 1.7636 -0.798539 0
M  V30 18 H -3.12848 2.18231 0.409766 0
M  V30 19 H -3.46823 1.4402 -1.19093 0
M  V30 20 H 0.831091 -2.16547 0.359351 0
M  V30 21 H -4.25531 -0.325081 0.488804 0
M  V30 22 H 2.69654 1.3615 0.942133 0
M  V30 23 H 2.41971 2.26502 -0.520931 0
M  V30 END ATOM
M  V30 BEGIN BOND
M  V30 1 1 1 2
M  V30 2 1 2 3
M  V30 3 1 3 4
M  V30 4 2 4 5
M  V30 5 1 5 6
M  V30 6 1 6 7
M  V30 7 2 6 8
M  V30 8 1 8 9
M  V30 9 2 9 10
M  V30 10 1 9 11
M  V30 11 1 8 12
M  V30 12 1 3 13
M  V30 13 1 10 4
M  V30 14 1 2 14
M  V30 15 1 2 15
M  V30 16 1 3 16
M  V30 17 1 5 17
M  V30 18 1 7 18
M  V30 19 1 7 19
M  V30 20 1 10 20
M  V30 21 1 12 21
M  V30 22 1 13 22
M  V30 23 1 13 23
M  V30 END BOND
M  V30 END CTAB
M  END
