
     RDKit          3D

  0  0  0  0  0  0  0  0  0  0999 V3000
M  V30 BEGIN CTAB
M  V30 COUNTS 48 50 0 0 0
M  V30 BEGIN ATOM
M  V30 1 C -6.67161 0.940746 0.241609 0
M  V30 2 O -5.43331 1.47754 -0.186869 0
M  V30 3 C -4.28483 0.694521 -0.225428 0
M  V30 4 C -3.09548 1.23066 -0.647104 0
M  V30 5 C -1.89239 0.510385 -0.717066 0
M  V30 6 C -2.00271 -0.799992 -0.321465 0
M  V30 7 C -3.17377 -1.39623 0.113635 0
M  V30 8 O -3.17681 -2.74339 0.495813 0
M  V30 9 C -4.40413 -3.29829 0.932959 0
M  V30 10 C -4.31394 -0.624114 0.154327 0
M  V30 11 N -0.721869 1.16368 -1.16116 0
M  V30 12 C -0.612695 1.49783 -2.56248 0
M  V30 13 C 0.382973 1.51357 -0.321581 0
M  V30 14 C 1.52989 0.620528 -0.431648 0
M  V30 15 C 2.68071 0.876189 0.358463 0
M  V30 16 C 2.71935 2.00796 1.26493 0
M  V30 17 C 3.73538 0.0171334 0.218636 0
M  V30 18 C 3.69888 -1.08193 -0.668804 0
M  V30 19 N 2.59406 -1.27179 -1.38436 0
M  V30 20 C 1.54576 -0.442882 -1.26505 0
M  V30 21 N 4.76117 -1.89269 -0.76604 0
M  V30 22 C 5.87497 -1.70343 -0.046465 0
M  V30 23 N 7.00127 -2.59706 -0.181163 0
M  V30 24 N 5.90635 -0.669503 0.787039 0
M  V30 25 C 4.88495 0.200711 0.952019 0
M  V30 26 N 5.03358 1.2726 1.86957 0
M  V30 27 H -7.5279 1.54109 -0.142432 0
M  V30 28 H -6.72818 0.768181 1.33367 0
M  V30 29 H -6.81193 -0.0780793 -0.21817 0
M  V30 30 H -3.04743 2.27315 -0.953052 0
M  V30 31 H -1.15102 -1.43546 -0.335262 0
M  V30 32 H -4.74043 -2.69261 1.79782 0
M  V30 33 H -4.30541 -4.38038 1.15397 0
M  V30 34 H -5.14069 -3.11602 0.0982897 0
M  V30 35 H -5.23277 -1.11657 0.503683 0
M  V30 36 H 0.4319 1.75559 -2.86359 0
M  V30 37 H -1.31074 2.33934 -2.76646 0
M  V30 38 H -1.00428 0.631243 -3.14101 0
M  V30 39 H 0.60314 2.57769 -0.546415 0
M  V30 40 H 0.0727094 1.42614 0.781377 0
M  V30 41 H 2.63548 1.79127 2.35615 0
M  V30 42 H 3.32635 2.87927 0.981744 0
M  V30 43 H 1.67181 2.49895 1.17248 0
M  V30 44 H 0.680721 -0.688876 -1.90204 0
M  V30 45 H 7.23675 -3.1894 0.631857 0
M  V30 46 H 7.56026 -2.65934 -1.04002 0
M  V30 47 H 5.43154 2.16597 1.52243 0
M  V30 48 H 4.78435 1.2061 2.87161 0
M  V30 END ATOM
M  V30 BEGIN BOND
M  V30 1 1 1 2
M  V30 2 1 2 3
M  V30 3 2 3 4
M  V30 4 1 4 5
M  V30 5 2 5 6
M  V30 6 1 6 7
M  V30 7 1 7 8
M  V30 8 1 8 9
M  V30 9 2 7 10
M  V30 10 1 5 11
M  V30 11 1 11 12
M  V30 12 1 11 13
M  V30 13 1 13 14
M  V30 14 2 14 15
M  V30 15 1 15 16
M  V30 16 1 15 17
M  V30 17 2 17 18
M  V30 18 1 18 19
M  V30 19 2 19 20
M  V30 20 1 18 21
M  V30 21 2 21 22
M  V30 22 1 22 23
M  V30 23 1 22 24
M  V30 24 2 24 25
M  V30 25 1 25 26
M  V30 26 1 10 3
M  V30 27 1 20 14
M  V30 28 1 25 17
M  V30 29 1 1 27
M  V30 30 1 1 28
M  V30 31 1 1 29
M  V30 32 1 4 30
M  V30 33 1 6 31
M  V30 34 1 9 32
M  V30 35 1 9 33
M  V30 36 1 9 34
M  V30 37 1 10 35
M  V30 38 1 12 36
M  V30 39 1 12 37
M  V30 40 1 12 38
M  V30 41 1 13 39
M  V30 42 1 13 40
M  V30 43 1 16 41
M  V30 44 1 16 42
M  V30 45 1 16 43
M  V30 46 1 20 44
M  V30 47 1 23 45
M  V30 48 1 23 46
M  V30 49 1 26 47
M  V30 50 1 26 48
M  V30 END BOND
M  V30 END CTAB
M  END
