
     RDKit          3D

  0  0  0  0  0  0  0  0  0  0999 V3000
M  V30 BEGIN CTAB
M  V30 COUNTS 23 22 0 0 0
M  V30 BEGIN ATOM
M  V30 1 C -2.52513 0.360118 -0.575696 0
M  V30 2 C -1.2703 -0.453496 -0.65075 0
M  V30 3 C -0.515378 -0.455605 0.687224 0
M  V30 4 C -0.125676 0.888051 1.10313 0
M  V30 5 O -0.472632 1.28696 2.25767 0
M  V30 6 N 0.619354 1.76151 0.27971 0
M  V30 7 N 0.989683 3.04764 0.692302 0
M  V30 8 C 0.595082 -1.41648 0.531863 0
M  V30 9 O 0.719468 -2.32853 1.41495 0
M  V30 10 N 1.53059 -1.4126 -0.507317 0
M  V30 11 N 2.5384 -2.36639 -0.548827 0
M  V30 12 H -3.12577 0.150893 0.320588 0
M  V30 13 H -2.34127 1.44728 -0.683378 0
M  V30 14 H -3.15668 0.0643626 -1.45352 0
M  V30 15 H -1.5195 -1.48645 -0.891789 0
M  V30 16 H -0.587676 0.00138837 -1.38088 0
M  V30 17 H -1.21267 -0.899809 1.47671 0
M  V30 18 H 0.930082 1.50267 -0.676824 0
M  V30 19 H 0.229575 3.53394 1.2061 0
M  V30 20 H 1.89939 3.05326 1.19527 0
M  V30 21 H 1.47806 -0.70435 -1.25623 0
M  V30 22 H 3.17804 -2.23446 0.281407 0
M  V30 23 H 2.14497 -3.3399 -0.494098 0
M  V30 END ATOM
M  V30 BEGIN BOND
M  V30 1 1 1 2
M  V30 2 1 2 3
M  V30 3 1 3 4
M  V30 4 2 4 5
M  V30 5 1 4 6
M  V30 6 1 6 7
M  V30 7 1 3 8
M  V30 8 2 8 9
M  V30 9 1 8 10
M  V30 10 1 10 11
M  V30 11 1 1 12
M  V30 12 1 1 13
M  V30 13 1 1 14
M  V30 14 1 2 15
M  V30 15 1 2 16
M  V30 16 1 3 17
M  V30 17 1 6 18
M  V30 18 1 7 19
M  V30 19 1 7 20
M  V30 20 1 10 21
M  V30 21 1 11 22
M  V30 22 1 11 23
M  V30 END BOND
M  V30 END CTAB
M  END
