
     RDKit          3D

  0  0  0  0  0  0  0  0  0  0999 V3000
M  V30 BEGIN CTAB
M  V30 COUNTS 25 26 0 0 0
M  V30 BEGIN ATOM
M  V30 1 N 1.59456 -0.401491 1.48468 0
M  V30 2 N 1.66219 0.227878 0.24453 0
M  V30 3 C 2.82379 0.739373 -0.238709 0
M  V30 4 N 4.07752 0.708612 0.424214 0
M  V30 5 N 2.5484 1.25705 -1.4227 0
M  V30 6 N 1.27514 1.08346 -1.67958 0
M  V30 7 C 0.690063 0.429766 -0.631071 0
M  V30 8 C -0.702167 0.0840999 -0.587834 0
M  V30 9 C -1.0545 -1.31421 -0.186391 0
M  V30 10 C -2.55521 -1.22107 0.154325 0
M  V30 11 C -2.90767 0.251862 0.0571349 0
M  V30 12 C -1.53926 0.871258 0.417601 0
M  V30 13 F -1.52068 2.21695 0.175757 0
M  V30 14 F -1.2836 0.529156 1.71986 0
M  V30 15 H 1.50784 0.18186 2.34202 0
M  V30 16 H 1.63677 -1.43648 1.58093 0
M  V30 17 H 4.65267 1.55868 0.613111 0
M  V30 18 H 4.47726 -0.214452 0.757341 0
M  V30 19 H -1.22496 0.339398 -1.57656 0
M  V30 20 H -0.531691 -1.64023 0.703664 0
M  V30 21 H -0.967468 -2.02 -1.04454 0
M  V30 22 H -2.72258 -1.51974 1.19935 0
M  V30 23 H -3.15733 -1.83408 -0.539766 0
M  V30 24 H -3.67339 0.545521 0.786524 0
M  V30 25 H -3.10568 0.576826 -0.97534 0
M  V30 END ATOM
M  V30 BEGIN BOND
M  V30 1 1 1 2
M  V30 2 1 2 3
M  V30 3 1 3 4
M  V30 4 2 3 5
M  V30 5 1 5 6
M  V30 6 2 6 7
M  V30 7 1 7 8
M  V30 8 1 8 9
M  V30 9 1 9 10
M  V30 10 1 10 11
M  V30 11 1 11 12
M  V30 12 1 12 13
M  V30 13 1 12 14
M  V30 14 1 7 2
M  V30 15 1 12 8
M  V30 16 1 1 15
M  V30 17 1 1 16
M  V30 18 1 4 17
M  V30 19 1 4 18
M  V30 20 1 8 19
M  V30 21 1 9 20
M  V30 22 1 9 21
M  V30 23 1 10 22
M  V30 24 1 10 23
M  V30 25 1 11 24
M  V30 26 1 11 25
M  V30 END BOND
M  V30 END CTAB
M  END
