
     RDKit          3D

  0  0  0  0  0  0  0  0  0  0999 V3000
M  V30 BEGIN CTAB
M  V30 COUNTS 39 42 0 0 0
M  V30 BEGIN ATOM
M  V30 1 N -4.83725 -2.66562 -0.228172 0
M  V30 2 C -3.66471 -1.81874 -0.145593 0
M  V30 3 N -3.72278 -0.527897 -0.454166 0
M  V30 4 C -2.6445 0.305927 -0.392791 0
M  V30 5 C -1.38171 -0.15771 0.00448221 0
M  V30 6 C -0.219289 0.732546 0.0138665 0
M  V30 7 S 1.04999 0.568203 1.21253 0
M  V30 8 C 2.47822 -0.348231 0.775037 0
M  V30 9 C 3.3204 -0.831429 1.75182 0
M  V30 10 C 4.51476 -1.4793 1.42319 0
M  V30 11 C 4.88815 -1.65539 0.110871 0
M  V30 12 C 4.05513 -1.17743 -0.878321 0
M  V30 13 C 2.87132 -0.535834 -0.562868 0
M  V30 14 C -0.53223 2.14209 -0.276764 0
M  V30 15 C -1.78886 2.5515 -0.66707 0
M  V30 16 O -2.78988 1.63247 -0.713646 0
M  V30 17 C -2.04694 3.86704 -1.00205 0
M  V30 18 C -1.04604 4.81673 -0.952673 0
M  V30 19 C 0.210428 4.40985 -0.560429 0
M  V30 20 C 0.463395 3.09565 -0.227959 0
M  V30 21 C -1.33297 -1.48925 0.323768 0
M  V30 22 N -0.141172 -2.12364 0.779232 0
M  V30 23 C -2.46133 -2.32794 0.25308 0
M  V30 24 C -2.37937 -3.71359 0.596038 0
M  V30 25 N -2.32425 -4.82541 0.883154 0
M  V30 26 H -5.62869 -2.54864 0.424579 0
M  V30 27 H -4.87496 -3.40463 -0.951979 0
M  V30 28 H 0.355308 0.450263 -1.01871 0
M  V30 29 H 3.12866 -0.755056 2.81803 0
M  V30 30 H 5.1658 -1.85502 2.18876 0
M  V30 31 H 5.82724 -2.15633 -0.149841 0
M  V30 32 H 4.37975 -1.32221 -1.91124 0
M  V30 33 H 2.24185 -0.16489 -1.35756 0
M  V30 34 H -3.01381 4.17681 -1.30613 0
M  V30 35 H -1.21575 5.85879 -1.20764 0
M  V30 36 H 0.999666 5.14238 -0.514547 0
M  V30 37 H 1.49339 2.86848 0.0754553 0
M  V30 38 H 0.157294 -2.13323 1.76957 0
M  V30 39 H 0.445781 -2.60128 0.0767023 0
M  V30 END ATOM
M  V30 BEGIN BOND
M  V30 1 1 1 2
M  V30 2 2 2 3
M  V30 3 1 3 4
M  V30 4 2 4 5
M  V30 5 1 5 6
M  V30 6 1 6 7
M  V30 7 1 7 8
M  V30 8 2 8 9
M  V30 9 1 9 10
M  V30 10 2 10 11
M  V30 11 1 11 12
M  V30 12 2 12 13
M  V30 13 1 6 14
M  V30 14 2 14 15
M  V30 15 1 15 16
M  V30 16 1 15 17
M  V30 17 2 17 18
M  V30 18 1 18 19
M  V30 19 2 19 20
M  V30 20 1 5 21
M  V30 21 1 21 22
M  V30 22 2 21 23
M  V30 23 1 23 24
M  V30 24 3 24 25
M  V30 25 1 23 2
M  V30 26 1 16 4
M  V30 27 1 13 8
M  V30 28 1 20 14
M  V30 29 1 1 26
M  V30 30 1 1 27
M  V30 31 1 6 28
M  V30 32 1 9 29
M  V30 33 1 10 30
M  V30 34 1 11 31
M  V30 35 1 12 32
M  V30 36 1 13 33
M  V30 37 1 17 34
M  V30 38 1 18 35
M  V30 39 1 19 36
M  V30 40 1 20 37
M  V30 41 1 22 38
M  V30 42 1 22 39
M  V30 END BOND
M  V30 END CTAB
M  END
