
     RDKit          3D

  0  0  0  0  0  0  0  0  0  0999 V3000
M  V30 BEGIN CTAB
M  V30 COUNTS 39 42 0 0 0
M  V30 BEGIN ATOM
M  V30 1 N 4.83024 -3.33434 0.813507 0
M  V30 2 C 3.90304 -2.2489 0.630985 0
M  V30 3 N 2.6561 -2.31848 1.11617 0
M  V30 4 C 1.77658 -1.31383 0.954945 0
M  V30 5 O 0.506877 -1.33112 1.43199 0
M  V30 6 C -0.523697 -0.371589 1.18008 0
M  V30 7 C -1.52121 -1.17798 0.415768 0
M  V30 8 C -2.78068 -1.37338 0.857583 0
M  V30 9 C -3.66342 -2.11424 0.13183 0
M  V30 10 C -3.31251 -2.68702 -1.06661 0
M  V30 11 C -2.03018 -2.4941 -1.5268 0
M  V30 12 C -1.11992 -1.72939 -0.777179 0
M  V30 13 C -0.01308 0.79745 0.466474 0
M  V30 14 N 1.23879 0.822538 0.0667379 0
M  V30 15 C 2.18368 -0.192551 0.269445 0
M  V30 16 C 3.47432 -0.143015 -0.22086 0
M  V30 17 N 4.33211 -1.14844 -0.0502779 0
M  V30 18 N 3.90077 1.01548 -0.928907 0
M  V30 19 C -0.793509 1.98515 0.148397 0
M  V30 20 C -0.244062 2.97652 -0.702133 0
M  V30 21 C -0.924325 4.12929 -0.998602 0
M  V30 22 C -2.17226 4.33511 -0.460197 0
M  V30 23 C -2.72453 3.3926 0.36486 0
M  V30 24 C -2.03813 2.2181 0.671224 0
M  V30 25 H 5.60992 -3.4537 0.151918 0
M  V30 26 H 4.66038 -3.95389 1.62086 0
M  V30 27 H -0.937617 -0.0736008 2.14643 0
M  V30 28 H -3.09303 -0.94363 1.78701 0
M  V30 29 H -4.69538 -2.27971 0.484655 0
M  V30 30 H -4.04108 -3.27843 -1.63114 0
M  V30 31 H -1.76544 -2.94834 -2.46888 0
M  V30 32 H -0.132152 -1.62094 -1.20215 0
M  V30 33 H 4.26092 1.86118 -0.419901 0
M  V30 34 H 3.86476 1.04777 -1.95467 0
M  V30 35 H 0.739315 2.8052 -1.12194 0
M  V30 36 H -0.472978 4.85672 -1.64796 0
M  V30 37 H -2.75474 5.24396 -0.67032 0
M  V30 38 H -3.70346 3.53315 0.799059 0
M  V30 39 H -2.48044 1.5104 1.33862 0
M  V30 END ATOM
M  V30 BEGIN BOND
M  V30 1 1 1 2
M  V30 2 2 2 3
M  V30 3 1 3 4
M  V30 4 1 4 5
M  V30 5 1 5 6
M  V30 6 1 6 7
M  V30 7 2 7 8
M  V30 8 1 8 9
M  V30 9 2 9 10
M  V30 10 1 10 11
M  V30 11 2 11 12
M  V30 12 1 6 13
M  V30 13 2 13 14
M  V30 14 1 14 15
M  V30 15 1 15 16
M  V30 16 2 16 17
M  V30 17 1 16 18
M  V30 18 1 13 19
M  V30 19 2 19 20
M  V30 20 1 20 21
M  V30 21 2 21 22
M  V30 22 1 22 23
M  V30 23 2 23 24
M  V30 24 1 17 2
M  V30 25 1 24 19
M  V30 26 2 15 4
M  V30 27 1 12 7
M  V30 28 1 1 25
M  V30 29 1 1 26
M  V30 30 1 6 27
M  V30 31 1 8 28
M  V30 32 1 9 29
M  V30 33 1 10 30
M  V30 34 1 11 31
M  V30 35 1 12 32
M  V30 36 1 18 33
M  V30 37 1 18 34
M  V30 38 1 20 35
M  V30 39 1 21 36
M  V30 40 1 22 37
M  V30 41 1 23 38
M  V30 42 1 24 39
M  V30 END BOND
M  V30 END CTAB
M  END
