
     RDKit          3D

  0  0  0  0  0  0  0  0  0  0999 V3000
M  V30 BEGIN CTAB
M  V30 COUNTS 51 53 0 0 0
M  V30 BEGIN ATOM
M  V30 1 O 6.77286 -0.790028 -0.304452 0
M  V30 2 C 6.29477 -0.0937286 0.792749 0
M  V30 3 C 5.14673 0.805573 0.398589 0
M  V30 4 N 4.03223 0.125449 -0.153399 0
M  V30 5 C 3.28149 -0.717344 0.710848 0
M  V30 6 C 2.6456 0.0629539 1.83407 0
M  V30 7 C 1.34343 0.709458 1.44519 0
M  V30 8 N 0.408586 -0.221928 0.848914 0
M  V30 9 C 0.905224 -1.54479 0.57167 0
M  V30 10 C 2.26828 -1.47577 -0.109733 0
M  V30 11 C -0.906974 0.235353 0.578306 0
M  V30 12 C -1.91577 -0.586564 0.078933 0
M  V30 13 C -3.17871 -0.101983 -0.180839 0
M  V30 14 N -3.41383 1.19546 0.0623538 0
M  V30 15 C -2.48172 2.01603 0.53871 0
M  V30 16 N -1.25794 1.53303 0.787214 0
M  V30 17 N -2.74572 3.39137 0.791522 0
M  V30 18 C -4.26838 -0.940827 -0.704905 0
M  V30 19 C -4.92455 -0.393024 -1.97009 0
M  V30 20 C -6.25899 -0.829399 -1.35145 0
M  V30 21 C -5.58639 -0.670649 -0.00560599 0
M  V30 22 N -7.33605 0.0635176 -1.64617 0
M  V30 23 C 4.12198 -0.267892 -1.51548 0
M  V30 24 H 7.53228 -0.348944 -0.761771 0
M  V30 25 H 6.07118 -0.77949 1.61057 0
M  V30 26 H 7.11608 0.585553 1.13715 0
M  V30 27 H 5.56541 1.44893 -0.433409 0
M  V30 28 H 4.90395 1.53225 1.19372 0
M  V30 29 H 3.9615 -1.46483 1.20792 0
M  V30 30 H 2.45652 -0.639012 2.67298 0
M  V30 31 H 3.29475 0.847053 2.21931 0
M  V30 32 H 1.56855 1.48291 0.674355 0
M  V30 33 H 0.92018 1.16405 2.36755 0
M  V30 34 H 1.06489 -2.14325 1.49963 0
M  V30 35 H 0.2736 -2.13795 -0.0967584 0
M  V30 36 H 2.08882 -0.967074 -1.08546 0
M  V30 37 H 2.612 -2.49774 -0.261538 0
M  V30 38 H -1.68548 -1.64321 -0.106309 0
M  V30 39 H -2.57349 3.77578 1.75792 0
M  V30 40 H -3.10169 3.98037 0.0142392 0
M  V30 41 H -4.03688 -2.01271 -0.814202 0
M  V30 42 H -4.90108 0.690116 -2.08287 0
M  V30 43 H -4.66817 -1.02089 -2.84155 0
M  V30 44 H -6.44962 -1.9075 -1.53705 0
M  V30 45 H -5.70424 0.372769 0.345803 0
M  V30 46 H -5.89975 -1.43877 0.721497 0
M  V30 47 H -7.85896 0.418364 -0.836419 0
M  V30 48 H -7.99055 -0.410789 -2.31148 0
M  V30 49 H 4.00684 -1.36539 -1.67404 0
M  V30 50 H 5.11077 0.0170658 -1.92648 0
M  V30 51 H 3.37642 0.29544 -2.15025 0
M  V30 END ATOM
M  V30 BEGIN BOND
M  V30 1 1 1 2
M  V30 2 1 2 3
M  V30 3 1 3 4
M  V30 4 1 4 5
M  V30 5 1 5 6
M  V30 6 1 6 7
M  V30 7 1 7 8
M  V30 8 1 8 9
M  V30 9 1 9 10
M  V30 10 1 8 11
M  V30 11 2 11 12
M  V30 12 1 12 13
M  V30 13 2 13 14
M  V30 14 1 14 15
M  V30 15 2 15 16
M  V30 16 1 15 17
M  V30 17 1 13 18
M  V30 18 1 18 19
M  V30 19 1 19 20
M  V30 20 1 20 21
M  V30 21 1 20 22
M  V30 22 1 4 23
M  V30 23 1 10 5
M  V30 24 1 16 11
M  V30 25 1 21 18
M  V30 26 1 1 24
M  V30 27 1 2 25
M  V30 28 1 2 26
M  V30 29 1 3 27
M  V30 30 1 3 28
M  V30 31 1 5 29
M  V30 32 1 6 30
M  V30 33 1 6 31
M  V30 34 1 7 32
M  V30 35 1 7 33
M  V30 36 1 9 34
M  V30 37 1 9 35
M  V30 38 1 10 36
M  V30 39 1 10 37
M  V30 40 1 12 38
M  V30 41 1 17 39
M  V30 42 1 17 40
M  V30 43 1 18 41
M  V30 44 1 19 42
M  V30 45 1 19 43
M  V30 46 1 20 44
M  V30 47 1 21 45
M  V30 48 1 21 46
M  V30 49 1 22 47
M  V30 50 1 22 48
M  V30 51 1 23 49
M  V30 52 1 23 50
M  V30 53 1 23 51
M  V30 END BOND
M  V30 END CTAB
M  END
