
 OpenBabel01241717183D

 21 20  0  0  1  0  0  0  0  0999 V2000
   -4.1969    0.2702    3.1920 C   0  0  0  0  0  0  0  0  0  0  0  0
   -3.1768    0.6155    2.9910 H   0  0  0  0  0  0  0  0  0  0  0  0
   -4.6721    0.9273    4.4040 N   0  0  0  0  0  0  0  0  0  0  0  0
   -4.1923   -1.2571    3.3009 C   0  0  0  0  0  0  0  0  0  0  0  0
   -4.8135    0.5882    2.3443 H   0  0  0  0  0  0  0  0  0  0  0  0
   -5.5971   -1.8580    3.4432 C   0  0  0  0  0  0  0  0  0  0  0  0
   -3.7195   -1.6633    2.3981 H   0  0  0  0  0  0  0  0  0  0  0  0
   -3.5630   -1.5546    4.1481 H   0  0  0  0  0  0  0  0  0  0  0  0
   -5.6110   -3.3957    3.3948 C   0  0  2  0  0  0  0  0  0  0  0  0
   -6.0552   -1.5189    4.3808 H   0  0  0  0  0  0  0  0  0  0  0  0
   -6.2265   -1.4738    2.6299 H   0  0  0  0  0  0  0  0  0  0  0  0
   -5.6446    0.6754    4.5757 H   0  0  0  0  0  0  0  0  0  0  0  0
   -4.1521    0.5759    5.2079 H   0  0  0  0  0  0  0  0  0  0  0  0
   -7.0480   -3.9156    3.4185 C   0  0  0  0  0  0  0  0  0  0  0  0
   -5.1360   -3.7339    2.4661 H   0  0  0  0  0  0  0  0  0  0  0  0
   -4.8839   -3.9674    4.5282 N   0  0  0  0  0  0  0  0  0  0  0  0
   -7.0727   -5.0097    3.3616 H   0  0  0  0  0  0  0  0  0  0  0  0
   -7.5709   -3.6124    4.3327 H   0  0  0  0  0  0  0  0  0  0  0  0
   -7.6132   -3.5285    2.5637 H   0  0  0  0  0  0  0  0  0  0  0  0
   -4.9487   -4.9848    4.5003 H   0  0  0  0  0  0  0  0  0  0  0  0
   -3.8919   -3.7487    4.4510 H   0  0  0  0  0  0  0  0  0  0  0  0
  1  2  1  0  0  0  0
  1  3  1  0  0  0  0
  1  4  1  0  0  0  0
  1  5  1  0  0  0  0
  3 12  1  0  0  0  0
  3 13  1  0  0  0  0
  4  6  1  0  0  0  0
  4  7  1  0  0  0  0
  4  8  1  0  0  0  0
  6  9  1  0  0  0  0
  6 10  1  0  0  0  0
  6 11  1  0  0  0  0
  9 14  1  0  0  0  0
  9 15  1  6  0  0  0
  9 16  1  0  0  0  0
 14 17  1  0  0  0  0
 14 18  1  0  0  0  0
 14 19  1  0  0  0  0
 16 20  1  0  0  0  0
 16 21  1  0  0  0  0
M  END
