
     RDKit          3D

  0  0  0  0  0  0  0  0  0  0999 V3000
M  V30 BEGIN CTAB
M  V30 COUNTS 19 20 0 0 0
M  V30 BEGIN ATOM
M  V30 1 N 3.50732 0.702286 -0.197264 0
M  V30 2 C 2.15399 0.27356 -0.123741 0
M  V30 3 N 1.03461 1.02148 -0.0621397 0
M  V30 4 C -0.0355174 0.208227 -0.00431998 0
M  V30 5 C 0.423241 -1.1081 -0.0302667 0
M  V30 6 N 1.76004 -1.01841 -0.103148 0
M  V30 7 C -0.471769 -2.16258 0.0178393 0
M  V30 8 C -1.82313 -1.88881 0.0917699 0
M  V30 9 C -2.26448 -0.565675 0.116771 0
M  V30 10 C -1.38276 0.494917 0.0693931 0
M  V30 11 N -1.88814 1.83314 0.0979265 0
M  V30 12 H 3.95465 1.13155 0.657696 0
M  V30 13 H 4.10415 0.626825 -1.03859 0
M  V30 14 H 1.05386 2.06578 -0.0624719 0
M  V30 15 H -0.134404 -3.18519 -0.00127989 0
M  V30 16 H -2.51929 -2.71941 0.129174 0
M  V30 17 H -3.32367 -0.379331 0.17473 0
M  V30 18 H -2.19197 2.33862 -0.765761 0
M  V30 19 H -1.95673 2.33112 1.03368 0
M  V30 END ATOM
M  V30 BEGIN BOND
M  V30 1 1 1 2
M  V30 2 1 2 3
M  V30 3 1 3 4
M  V30 4 2 4 5
M  V30 5 1 5 6
M  V30 6 1 5 7
M  V30 7 2 7 8
M  V30 8 1 8 9
M  V30 9 2 9 10
M  V30 10 1 10 11
M  V30 11 2 6 2
M  V30 12 1 10 4
M  V30 13 1 1 12
M  V30 14 1 1 13
M  V30 15 1 3 14
M  V30 16 1 7 15
M  V30 17 1 8 16
M  V30 18 1 9 17
M  V30 19 1 11 18
M  V30 20 1 11 19
M  V30 END BOND
M  V30 END CTAB
M  END
