
     RDKit          3D

  0  0  0  0  0  0  0  0  0  0999 V3000
M  V30 BEGIN CTAB
M  V30 COUNTS 32 33 0 0 0
M  V30 BEGIN ATOM
M  V30 1 N -1.48576 -2.33928 -0.577309 0
M  V30 2 C -1.59476 -0.957731 -0.265003 0
M  V30 3 C -0.561295 -0.0614544 -0.159745 0
M  V30 4 N -1.1438 1.09333 0.185093 0
M  V30 5 N -2.45393 0.991858 0.29011 0
M  V30 6 C -2.75922 -0.303686 0.0190654 0
M  V30 7 N -4.05373 -0.854492 0.0991092 0
M  V30 8 C -3.4151 2.01616 0.551034 0
M  V30 9 C 0.866035 -0.271065 -0.549157 0
M  V30 10 C 1.63511 -0.913906 0.569065 0
M  V30 11 C 3.10262 -0.990641 0.374147 0
M  V30 12 C 3.68016 0.16653 -0.393259 0
M  V30 13 C 2.78092 1.34718 -0.206061 0
M  V30 14 C 1.4044 1.13122 -0.805287 0
M  V30 15 H -1.48238 -3.11218 0.161861 0
M  V30 16 H -1.3844 -2.67748 -1.5568 0
M  V30 17 H -4.22796 -1.64507 0.802405 0
M  V30 18 H -4.86365 -0.551565 -0.449399 0
M  V30 19 H -4.05769 2.17956 -0.377324 0
M  V30 20 H -2.92682 3.01177 0.691656 0
M  V30 21 H -4.12569 1.82879 1.34211 0
M  V30 22 H 0.928921 -0.828457 -1.47257 0
M  V30 23 H 1.29124 -2.03212 0.491714 0
M  V30 24 H 1.26983 -0.585321 1.53286 0
M  V30 25 H 3.59177 -1.07813 1.34146 0
M  V30 26 H 3.43723 -1.90571 -0.208641 0
M  V30 27 H 3.84422 -0.0488087 -1.44364 0
M  V30 28 H 4.6569 0.416355 0.0563834 0
M  V30 29 H 2.65543 1.50811 0.890725 0
M  V30 30 H 3.25052 2.23326 -0.661789 0
M  V30 31 H 1.41022 1.34469 -1.86567 0
M  V30 32 H 0.73064 1.8883 -0.306787 0
M  V30 END ATOM
M  V30 BEGIN BOND
M  V30 1 1 1 2
M  V30 2 1 2 3
M  V30 3 2 3 4
M  V30 4 1 4 5
M  V30 5 1 5 6
M  V30 6 1 6 7
M  V30 7 1 5 8
M  V30 8 1 3 9
M  V30 9 1 9 10
M  V30 10 1 10 11
M  V30 11 1 11 12
M  V30 12 1 12 13
M  V30 13 1 13 14
M  V30 14 2 6 2
M  V30 15 1 14 9
M  V30 16 1 1 15
M  V30 17 1 1 16
M  V30 18 1 7 17
M  V30 19 1 7 18
M  V30 20 1 8 19
M  V30 21 1 8 20
M  V30 22 1 8 21
M  V30 23 1 9 22
M  V30 24 1 10 23
M  V30 25 1 10 24
M  V30 26 1 11 25
M  V30 27 1 11 26
M  V30 28 1 12 27
M  V30 29 1 12 28
M  V30 30 1 13 29
M  V30 31 1 13 30
M  V30 32 1 14 31
M  V30 33 1 14 32
M  V30 END BOND
M  V30 END CTAB
M  END
