
     RDKit          3D

  0  0  0  0  0  0  0  0  0  0999 V3000
M  V30 BEGIN CTAB
M  V30 COUNTS 17 17 0 0 0
M  V30 BEGIN ATOM
M  V30 1 N 3.45649 -0.66708 0.234778 0
M  V30 2 C 2.17475 -0.217938 0.656304 0
M  V30 3 N 1.86848 0.245973 1.8608 0
M  V30 4 O 0.619542 0.551154 1.86154 0
M  V30 5 C 0.059642 0.313252 0.702007 0
M  V30 6 N 1.03761 -0.176797 -0.0757399 0
M  V30 7 C -1.35573 0.542155 0.340868 0 CFG=1
M  V30 8 N -1.52822 1.17114 -0.927569 0
M  V30 9 C -2.07731 -0.794381 0.324465 0
M  V30 10 H 3.99165 -1.29031 0.868101 0
M  V30 11 H 3.83537 -0.373534 -0.681708 0
M  V30 12 H -1.83962 1.18204 1.1088 0
M  V30 13 H -1.41357 2.17475 -0.964934 0
M  V30 14 H -2.13453 0.713416 -1.59181 0
M  V30 15 H -2.0931 -1.17806 -0.732423 0
M  V30 16 H -3.09344 -0.700762 0.740504 0
M  V30 17 H -1.50802 -1.49502 0.965588 0
M  V30 END ATOM
M  V30 BEGIN BOND
M  V30 1 1 1 2
M  V30 2 2 2 3
M  V30 3 1 3 4
M  V30 4 1 4 5
M  V30 5 2 5 6
M  V30 6 1 5 7
M  V30 7 1 7 8
M  V30 8 1 7 9
M  V30 9 1 6 2
M  V30 10 1 1 10
M  V30 11 1 1 11
M  V30 12 1 7 12 CFG=1
M  V30 13 1 8 13
M  V30 14 1 8 14
M  V30 15 1 9 15
M  V30 16 1 9 16
M  V30 17 1 9 17
M  V30 END BOND
M  V30 END CTAB
M  END
