
     RDKit          3D

  0  0  0  0  0  0  0  0  0  0999 V3000
M  V30 BEGIN CTAB
M  V30 COUNTS 20 20 0 0 0
M  V30 BEGIN ATOM
M  V30 1 N 3.48162 1.19227 -1.29452 0
M  V30 2 C 2.72857 1.0751 -0.422774 0
M  V30 3 C 1.80214 0.936947 0.683456 0
M  V30 4 C 0.534876 0.262741 0.294606 0
M  V30 5 C 0.509104 -1.10246 0.1088 0
M  V30 6 N 1.69145 -1.87846 0.282405 0
M  V30 7 C -0.696636 -1.69133 -0.254244 0
M  V30 8 C -1.84538 -0.937534 -0.426583 0
M  V30 9 C -1.82785 0.425736 -0.24333 0
M  V30 10 C -0.609089 0.982398 0.118384 0
M  V30 11 Br -0.605939 2.88336 0.371924 0
M  V30 12 N -3.00731 1.18315 -0.427287 0
M  V30 13 H 1.5751 1.94531 1.08237 0
M  V30 14 H 2.30607 0.331157 1.48751 0
M  V30 15 H 2.54493 -1.71771 -0.296696 0
M  V30 16 H 1.74806 -2.63749 0.997322 0
M  V30 17 H -0.707521 -2.74957 -0.394337 0
M  V30 18 H -2.75812 -1.42787 -0.708477 0
M  V30 19 H -3.36642 1.73477 0.36897 0
M  V30 20 H -3.49766 1.18946 -1.3275 0
M  V30 END ATOM
M  V30 BEGIN BOND
M  V30 1 3 1 2
M  V30 2 1 2 3
M  V30 3 1 3 4
M  V30 4 2 4 5
M  V30 5 1 5 6
M  V30 6 1 5 7
M  V30 7 2 7 8
M  V30 8 1 8 9
M  V30 9 2 9 10
M  V30 10 1 10 11
M  V30 11 1 9 12
M  V30 12 1 10 4
M  V30 13 1 3 13
M  V30 14 1 3 14
M  V30 15 1 6 15
M  V30 16 1 6 16
M  V30 17 1 7 17
M  V30 18 1 8 18
M  V30 19 1 12 19
M  V30 20 1 12 20
M  V30 END BOND
M  V30 END CTAB
M  END
