
     RDKit          3D

  0  0  0  0  0  0  0  0  0  0999 V3000
M  V30 BEGIN CTAB
M  V30 COUNTS 31 32 0 0 0
M  V30 BEGIN ATOM
M  V30 1 N -0.499957 -3.54398 -0.176419 0
M  V30 2 C -1.05949 -2.51835 -0.105796 0
M  V30 3 C -1.74093 -1.25271 -0.0320797 0
M  V30 4 C -2.97345 -1.28963 0.469805 0
M  V30 5 N -3.58866 -2.4991 0.908412 0
M  V30 6 S -3.85662 0.214579 0.621472 0
M  V30 7 C -2.74606 1.57553 0.253613 0
M  V30 8 C -1.58485 1.23201 -0.248704 0
M  V30 9 C -1.07499 -0.0852597 -0.546059 0
M  V30 10 C 0.394125 -0.112423 -0.357718 0
M  V30 11 C 1.24892 -0.453899 -1.40735 0
M  V30 12 C 2.62389 -0.428999 -1.29238 0
M  V30 13 C 3.22939 -0.0616252 -0.120384 0
M  V30 14 C 2.41626 0.272013 0.915367 0
M  V30 15 C 1.02674 0.256623 0.834815 0
M  V30 16 C 4.70992 -0.0502378 -0.104095 0
M  V30 17 F 5.17688 -1.35409 -0.261329 0
M  V30 18 F 5.28192 0.533174 0.973883 0
M  V30 19 F 5.12913 0.677656 -1.23198 0
M  V30 20 C -0.692458 2.36037 -0.541386 0
M  V30 21 N 0.0186359 3.26152 -0.763451 0
M  V30 22 N -3.16858 2.90201 0.493323 0
M  V30 23 H -3.02782 -3.31614 1.21945 0
M  V30 24 H -4.62708 -2.58581 0.928324 0
M  V30 25 H -1.20106 -0.187145 -1.70784 0
M  V30 26 H 0.798291 -0.740705 -2.32858 0
M  V30 27 H 3.2499 -0.711348 -2.15412 0
M  V30 28 H 2.87283 0.571991 1.86549 0
M  V30 29 H 0.417409 0.531716 1.68385 0
M  V30 30 H -4.0338 3.23735 -0.036735 0
M  V30 31 H -2.71842 3.56491 1.11167 0
M  V30 END ATOM
M  V30 BEGIN BOND
M  V30 1 3 1 2
M  V30 2 1 2 3
M  V30 3 2 3 4
M  V30 4 1 4 5
M  V30 5 1 4 6
M  V30 6 1 6 7
M  V30 7 2 7 8
M  V30 8 1 8 9
M  V30 9 1 9 10
M  V30 10 2 10 11
M  V30 11 1 11 12
M  V30 12 2 12 13
M  V30 13 1 13 14
M  V30 14 2 14 15
M  V30 15 1 13 16
M  V30 16 1 16 17
M  V30 17 1 16 18
M  V30 18 1 16 19
M  V30 19 1 8 20
M  V30 20 3 20 21
M  V30 21 1 7 22
M  V30 22 1 9 3
M  V30 23 1 15 10
M  V30 24 1 5 23
M  V30 25 1 5 24
M  V30 26 1 9 25
M  V30 27 1 11 26
M  V30 28 1 12 27
M  V30 29 1 14 28
M  V30 30 1 15 29
M  V30 31 1 22 30
M  V30 32 1 22 31
M  V30 END BOND
M  V30 END CTAB
M  END
