
     RDKit          3D

  0  0  0  0  0  0  0  0  0  0999 V3000
M  V30 BEGIN CTAB
M  V30 COUNTS 43 46 0 0 0
M  V30 BEGIN ATOM
M  V30 1 N -5.7325 0.0936451 -1.91489 0
M  V30 2 C -4.74191 -0.393846 -2.8239 0
M  V30 3 C -3.60183 -1.06671 -2.14887 0
M  V30 4 C -2.90069 -0.138897 -1.20569 0
M  V30 5 C -1.7447 -0.87207 -0.513043 0
M  V30 6 N -1.051 -0.0126154 0.436848 0
M  V30 7 C -0.0228794 0.812209 0.27154 0
M  V30 8 S 1.01998 1.1109 -1.13191 0
M  V30 9 C 2.58288 0.295148 -1.05591 0
M  V30 10 C 2.87127 -0.829822 -1.754 0
M  V30 11 I 1.48526 -1.77866 -3.04402 0
M  V30 12 C 4.13601 -1.41986 -1.70195 0
M  V30 13 C 5.11423 -0.844255 -0.923367 0
M  V30 14 O 6.42722 -1.1817 -0.670631 0
M  V30 15 C 7.1201 -0.158184 -0.0102645 0
M  V30 16 O 6.04802 0.635361 0.481691 0
M  V30 17 C 4.87226 0.30686 -0.191431 0
M  V30 18 C 3.61825 0.848254 -0.272874 0
M  V30 19 N 0.260406 1.4486 1.46888 0
M  V30 20 C -0.587538 1.02304 2.38533 0
M  V30 21 C -1.40664 0.116062 1.75881 0
M  V30 22 N -2.37375 -0.485163 2.45035 0
M  V30 23 C -2.53577 -0.198027 3.75239 0
M  V30 24 N -1.73017 0.696214 4.38551 0
M  V30 25 C -0.746027 1.32545 3.73091 0
M  V30 26 N 0.105126 2.2438 4.3987 0
M  V30 27 H -5.49424 -0.21315 -0.937504 0
M  V30 28 H -5.90629 1.11968 -1.98188 0
M  V30 29 H -4.3404 0.413584 -3.47663 0
M  V30 30 H -5.27014 -1.09632 -3.52771 0
M  V30 31 H -2.87311 -1.40691 -2.92459 0
M  V30 32 H -4.01063 -1.96477 -1.62912 0
M  V30 33 H -2.43041 0.661051 -1.82847 0
M  V30 34 H -3.58752 0.282316 -0.459046 0
M  V30 35 H -1.10136 -1.38318 -1.22867 0
M  V30 36 H -2.2481 -1.68791 0.079832 0
M  V30 37 H 4.37196 -2.3081 -2.25329 0
M  V30 38 H 7.73207 -0.592421 0.81145 0
M  V30 39 H 7.77775 0.406327 -0.68299 0
M  V30 40 H 3.37387 1.75054 0.286497 0
M  V30 41 H -3.33282 -0.712032 4.2864 0
M  V30 42 H -0.0554561 3.27036 4.33596 0
M  V30 43 H 0.909247 1.88518 4.97155 0
M  V30 END ATOM
M  V30 BEGIN BOND
M  V30 1 1 1 2
M  V30 2 1 2 3
M  V30 3 1 3 4
M  V30 4 1 4 5
M  V30 5 1 5 6
M  V30 6 1 6 7
M  V30 7 1 7 8
M  V30 8 1 8 9
M  V30 9 2 9 10
M  V30 10 1 10 11
M  V30 11 1 10 12
M  V30 12 2 12 13
M  V30 13 1 13 14
M  V30 14 1 14 15
M  V30 15 1 15 16
M  V30 16 1 16 17
M  V30 17 2 17 18
M  V30 18 2 7 19
M  V30 19 1 19 20
M  V30 20 2 20 21
M  V30 21 1 21 22
M  V30 22 2 22 23
M  V30 23 1 23 24
M  V30 24 2 24 25
M  V30 25 1 25 26
M  V30 26 1 21 6
M  V30 27 1 18 9
M  V30 28 1 25 20
M  V30 29 1 17 13
M  V30 30 1 1 27
M  V30 31 1 1 28
M  V30 32 1 2 29
M  V30 33 1 2 30
M  V30 34 1 3 31
M  V30 35 1 3 32
M  V30 36 1 4 33
M  V30 37 1 4 34
M  V30 38 1 5 35
M  V30 39 1 5 36
M  V30 40 1 12 37
M  V30 41 1 15 38
M  V30 42 1 15 39
M  V30 43 1 18 40
M  V30 44 1 23 41
M  V30 45 1 26 42
M  V30 46 1 26 43
M  V30 END BOND
M  V30 END CTAB
M  END
