
     RDKit          3D

  0  0  0  0  0  0  0  0  0  0999 V3000
M  V30 BEGIN CTAB
M  V30 COUNTS 28 28 0 0 0
M  V30 BEGIN ATOM
M  V30 1 N -3.53306 0.606948 0.595322 0
M  V30 2 C -2.70705 -0.0596388 -0.386723 0
M  V30 3 C -1.29436 -0.261275 0.0927992 0
M  V30 4 C -0.599386 1.03146 0.416034 0
M  V30 5 C 0.796071 0.717094 0.899426 0
M  V30 6 C 1.60619 -0.0625345 -0.104252 0
M  V30 7 C 0.861408 -1.24828 -0.669987 0
M  V30 8 C -0.544926 -0.949278 -1.05741 0
M  V30 9 N 2.75187 -0.602591 0.608579 0
M  V30 10 C 2.09558 0.843412 -1.16084 0
M  V30 11 O 1.30303 1.44403 -1.93307 0
M  V30 12 O 3.45576 1.05103 -1.32282 0
M  V30 13 H -3.77885 -0.10189 1.32013 0
M  V30 14 H -4.38212 0.950937 0.0928907 0
M  V30 15 H -2.69513 0.457722 -1.36627 0
M  V30 16 H -3.14503 -1.0646 -0.559523 0
M  V30 17 H -1.25656 -0.911634 0.979445 0
M  V30 18 H -1.13133 1.50683 1.26579 0
M  V30 19 H -0.598964 1.75196 -0.40227 0
M  V30 20 H 0.702612 0.0971983 1.81164 0
M  V30 21 H 1.37075 1.6126 1.1682 0
M  V30 22 H 1.40564 -1.58608 -1.57328 0
M  V30 23 H 0.87912 -2.05641 0.0762193 0
M  V30 24 H -1.07504 -1.92348 -1.19563 0
M  V30 25 H -0.658684 -0.378299 -1.97924 0
M  V30 26 H 2.57193 -1.5749 0.95421 0
M  V30 27 H 3.58648 -0.645106 -0.034097 0
M  V30 28 H 4.01406 1.35479 -0.538342 0
M  V30 END ATOM
M  V30 BEGIN BOND
M  V30 1 1 1 2
M  V30 2 1 2 3
M  V30 3 1 3 4
M  V30 4 1 4 5
M  V30 5 1 5 6
M  V30 6 1 6 7
M  V30 7 1 7 8
M  V30 8 1 6 9
M  V30 9 1 6 10
M  V30 10 2 10 11
M  V30 11 1 10 12
M  V30 12 1 8 3
M  V30 13 1 1 13
M  V30 14 1 1 14
M  V30 15 1 2 15
M  V30 16 1 2 16
M  V30 17 1 3 17
M  V30 18 1 4 18
M  V30 19 1 4 19
M  V30 20 1 5 20
M  V30 21 1 5 21
M  V30 22 1 7 22
M  V30 23 1 7 23
M  V30 24 1 8 24
M  V30 25 1 8 25
M  V30 26 1 9 26
M  V30 27 1 9 27
M  V30 28 1 12 28
M  V30 END BOND
M  V30 END CTAB
M  END
