
     RDKit          3D

  0  0  0  0  0  0  0  0  0  0999 V3000
M  V30 BEGIN CTAB
M  V30 COUNTS 26 27 0 0 0
M  V30 BEGIN ATOM
M  V30 1 N -0.493702 -2.45044 0.280262 0
M  V30 2 C -1.33572 -1.31665 0.0749389 0
M  V30 3 C -2.70102 -1.37745 0.0310331 0
M  V30 4 C -3.42887 -0.230786 -0.166064 0
M  V30 5 C -2.8006 0.984151 -0.320353 0
M  V30 6 C -1.41524 1.01677 -0.270883 0
M  V30 7 N -0.772331 2.28509 -0.406158 0
M  V30 8 C -0.663065 -0.130167 -0.0731098 0
M  V30 9 C 0.766802 0.00975024 -0.0315159 0
M  V30 10 C 1.33324 0.659193 1.05863 0
M  V30 11 C 2.68867 0.832919 1.22131 0
M  V30 12 C 3.53093 0.323119 0.22053 0
M  V30 13 C 2.97803 -0.322383 -0.864341 0
M  V30 14 C 1.62569 -0.480897 -0.997091 0
M  V30 15 H -0.0761867 -3.02387 -0.467237 0
M  V30 16 H -0.302337 -2.70513 1.27112 0
M  V30 17 H -3.15555 -2.35383 0.156442 0
M  V30 18 H -4.51672 -0.31871 -0.191834 0
M  V30 19 H -3.42558 1.85425 -0.474721 0
M  V30 20 H -0.160171 2.54933 -1.21009 0
M  V30 21 H -0.906722 2.99831 0.334175 0
M  V30 22 H 0.717952 1.09656 1.87208 0
M  V30 23 H 3.13733 1.32642 2.05604 0
M  V30 24 H 4.60531 0.458053 0.358288 0
M  V30 25 H 3.62338 -0.712664 -1.63676 0
M  V30 26 H 1.14648 -0.970938 -1.8247 0
M  V30 END ATOM
M  V30 BEGIN BOND
M  V30 1 1 1 2
M  V30 2 2 2 3
M  V30 3 1 3 4
M  V30 4 2 4 5
M  V30 5 1 5 6
M  V30 6 1 6 7
M  V30 7 2 6 8
M  V30 8 1 8 9
M  V30 9 2 9 10
M  V30 10 1 10 11
M  V30 11 2 11 12
M  V30 12 1 12 13
M  V30 13 2 13 14
M  V30 14 1 8 2
M  V30 15 1 14 9
M  V30 16 1 1 15
M  V30 17 1 1 16
M  V30 18 1 3 17
M  V30 19 1 4 18
M  V30 20 1 5 19
M  V30 21 1 7 20
M  V30 22 1 7 21
M  V30 23 1 10 22
M  V30 24 1 11 23
M  V30 25 1 12 24
M  V30 26 1 13 25
M  V30 27 1 14 26
M  V30 END BOND
M  V30 END CTAB
M  END
