
     RDKit          3D

  0  0  0  0  0  0  0  0  0  0999 V3000
M  V30 BEGIN CTAB
M  V30 COUNTS 28 29 0 0 0
M  V30 BEGIN ATOM
M  V30 1 C -1.80295 -1.51832 -0.0871986 0
M  V30 2 C -1.88334 -0.124475 0.375733 0
M  V30 3 C -3.15009 0.152638 1.15688 0
M  V30 4 C -1.67411 0.971643 -0.637429 0
M  V30 5 N -1.1725 1.77983 0.488404 0
M  V30 6 C -0.685625 0.49866 1.0327 0
M  V30 7 C 0.627254 0.191025 0.468156 0
M  V30 8 N 1.54918 1.16691 0.398458 0
M  V30 9 C 2.78038 0.97884 -0.102201 0
M  V30 10 N 3.66903 2.08181 -0.125018 0
M  V30 11 N 3.09371 -0.242589 -0.550351 0
M  V30 12 C 2.20603 -1.25466 -0.503033 0
M  V30 13 N 0.96896 -1.02404 0.0113962 0
M  V30 14 N 2.5692 -2.54227 -0.98741 0
M  V30 15 H -2.84876 -1.94357 -0.107794 0
M  V30 16 H -1.29312 -1.67889 -1.05626 0
M  V30 17 H -1.27568 -2.1284 0.677225 0
M  V30 18 H -2.95451 0.609286 2.14448 0
M  V30 19 H -3.73295 -0.794771 1.29611 0
M  V30 20 H -3.82168 0.829552 0.589385 0
M  V30 21 H -2.62483 1.33521 -1.02606 0
M  V30 22 H -0.854476 0.824796 -1.34538 0
M  V30 23 H -0.417132 2.44261 0.227952 0
M  V30 24 H -0.68486 0.465888 2.13809 0
M  V30 25 H 4.61257 2.07027 0.311384 0
M  V30 26 H 3.37147 2.9645 -0.605025 0
M  V30 27 H 1.94063 -3.11588 -1.60871 0
M  V30 28 H 3.48821 -2.9956 -0.752024 0
M  V30 END ATOM
M  V30 BEGIN BOND
M  V30 1 1 1 2
M  V30 2 1 2 3
M  V30 3 1 2 4
M  V30 4 1 4 5
M  V30 5 1 5 6
M  V30 6 1 6 7
M  V30 7 2 7 8
M  V30 8 1 8 9
M  V30 9 1 9 10
M  V30 10 2 9 11
M  V30 11 1 11 12
M  V30 12 2 12 13
M  V30 13 1 12 14
M  V30 14 1 6 2
M  V30 15 1 13 7
M  V30 16 1 1 15
M  V30 17 1 1 16
M  V30 18 1 1 17
M  V30 19 1 3 18
M  V30 20 1 3 19
M  V30 21 1 3 20
M  V30 22 1 4 21
M  V30 23 1 4 22
M  V30 24 1 5 23
M  V30 25 1 6 24
M  V30 26 1 10 25
M  V30 27 1 10 26
M  V30 28 1 14 27
M  V30 29 1 14 28
M  V30 END BOND
M  V30 END CTAB
M  END
