
     RDKit          3D

  0  0  0  0  0  0  0  0  0  0999 V3000
M  V30 BEGIN CTAB
M  V30 COUNTS 37 36 0 0 0
M  V30 BEGIN ATOM
M  V30 1 N -2.08299 -3.58412 0.136245 0
M  V30 2 N -1.84498 -2.36596 0.761486 0
M  V30 3 C -2.37538 -1.16215 0.241804 0
M  V30 4 O -3.07454 -1.28917 -0.824371 0
M  V30 5 C -2.15008 0.147341 0.868376 0
M  V30 6 C -3.34996 0.982423 0.492709 0
M  V30 7 O -4.11223 1.34536 1.40302 0
M  V30 8 N -3.55319 1.31027 -0.854646 0
M  V30 9 N -4.63819 2.07785 -1.30611 0
M  V30 10 C -0.96002 0.913878 0.434627 0
M  V30 11 C 0.395579 0.300827 0.635465 0
M  V30 12 C 1.39122 1.34556 0.125147 0
M  V30 13 O 2.68723 1.06712 0.187406 0
M  V30 14 C 3.27779 0.05117 -0.463113 0
M  V30 15 C 4.40172 0.525476 -1.39592 0
M  V30 16 C 3.99572 -0.835343 0.569487 0
M  V30 17 O 0.48907 -0.866383 -0.104454 0
M  V30 18 H -2.47097 -3.39919 -0.802151 0
M  V30 19 H -1.23939 -4.1729 0.143935 0
M  V30 20 H -1.25824 -2.38722 1.63033 0
M  V30 21 H -2.13611 -0.00629694 1.98331 0
M  V30 22 H -2.88873 0.994024 -1.59595 0
M  V30 23 H -4.2496 2.88454 -1.85269 0
M  V30 24 H -5.15988 2.39311 -0.463157 0
M  V30 25 H -0.980861 1.95034 0.8986 0
M  V30 26 H -1.10586 1.15539 -0.668637 0
M  V30 27 H 0.593244 0.125576 1.7107 0
M  V30 28 H 1.19654 2.23607 0.80643 0
M  V30 29 H 1.02542 1.72068 -0.868556 0
M  V30 30 H 2.64868 -0.609091 -1.07019 0
M  V30 31 H 5.00552 1.31349 -0.949253 0
M  V30 32 H 5.04869 -0.361991 -1.55811 0
M  V30 33 H 3.99638 0.796857 -2.39856 0
M  V30 34 H 3.3187 -0.921896 1.43429 0
M  V30 35 H 4.93369 -0.327286 0.849616 0
M  V30 36 H 4.22448 -1.80613 0.104691 0
M  V30 37 H 1.00153 -1.54223 0.402789 0
M  V30 END ATOM
M  V30 BEGIN BOND
M  V30 1 1 1 2
M  V30 2 1 2 3
M  V30 3 2 3 4
M  V30 4 1 3 5
M  V30 5 1 5 6
M  V30 6 2 6 7
M  V30 7 1 6 8
M  V30 8 1 8 9
M  V30 9 1 5 10
M  V30 10 1 10 11
M  V30 11 1 11 12
M  V30 12 1 12 13
M  V30 13 1 13 14
M  V30 14 1 14 15
M  V30 15 1 14 16
M  V30 16 1 11 17
M  V30 17 1 1 18
M  V30 18 1 1 19
M  V30 19 1 2 20
M  V30 20 1 5 21
M  V30 21 1 8 22
M  V30 22 1 9 23
M  V30 23 1 9 24
M  V30 24 1 10 25
M  V30 25 1 10 26
M  V30 26 1 11 27
M  V30 27 1 12 28
M  V30 28 1 12 29
M  V30 29 1 14 30
M  V30 30 1 15 31
M  V30 31 1 15 32
M  V30 32 1 15 33
M  V30 33 1 16 34
M  V30 34 1 16 35
M  V30 35 1 16 36
M  V30 36 1 17 37
M  V30 END BOND
M  V30 END CTAB
M  END
