
     RDKit          3D

  0  0  0  0  0  0  0  0  0  0999 V3000
M  V30 BEGIN CTAB
M  V30 COUNTS 55 56 0 0 0
M  V30 BEGIN ATOM
M  V30 1 N 9.20893 0.236238 1.36486 0
M  V30 2 C 8.07331 0.193681 0.443928 0
M  V30 3 C 7.27601 -1.05676 0.676938 0
M  V30 4 O 6.18837 -1.17696 -0.137142 0
M  V30 5 C 5.06809 -0.385885 -0.185365 0
M  V30 6 C 4.80603 0.696672 0.625899 0
M  V30 7 C 3.64273 1.44465 0.512988 0
M  V30 8 C 2.68213 1.13661 -0.425905 0
M  V30 9 C 1.43189 1.8909 -0.592584 0
M  V30 10 C 0.321576 1.39558 0.217359 0
M  V30 11 O 0.49961 0.408403 0.964297 0
M  V30 12 N -0.950234 1.99882 0.182811 0
M  V30 13 C -2.09437 1.57021 0.947133 0
M  V30 14 C -2.53861 0.165048 0.655037 0
M  V30 15 C -3.74253 -0.21754 1.48611 0
M  V30 16 C -4.24471 -1.59117 1.23634 0
M  V30 17 C -4.7597 -1.87332 -0.142088 0
M  V30 18 C -5.9331 -1.05761 -0.49168 0
M  V30 19 C -5.79364 0.143335 -1.14036 0
M  V30 20 C -6.96514 0.854168 -1.42682 0
M  V30 21 C -8.2106 0.377279 -1.07693 0
M  V30 22 C -8.32536 -0.837019 -0.423297 0
M  V30 23 C -7.19097 -1.52389 -0.146565 0
M  V30 24 C 2.96473 0.0498125 -1.22529 0
M  V30 25 C 4.09596 -0.694021 -1.13131 0
M  V30 26 N 4.35792 -1.82276 -1.98312 0
M  V30 27 H 9.93997 -0.420622 1.06475 0
M  V30 28 H 9.56348 1.22746 1.44574 0
M  V30 29 H 7.5141 1.12469 0.402115 0
M  V30 30 H 8.57595 0.0823553 -0.574308 0
M  V30 31 H 6.99733 -1.13625 1.76357 0
M  V30 32 H 7.97074 -1.92556 0.525954 0
M  V30 33 H 5.5121 0.967139 1.39427 0
M  V30 34 H 3.5007 2.28203 1.18078 0
M  V30 35 H 1.09672 1.94412 -1.65848 0
M  V30 36 H 1.655 2.96235 -0.319479 0
M  V30 37 H -1.09394 2.83973 -0.454075 0
M  V30 38 H -1.82799 1.60232 2.02343 0
M  V30 39 H -2.95165 2.24787 0.824981 0
M  V30 40 H -2.78528 0.0286238 -0.406258 0
M  V30 41 H -1.72033 -0.578473 0.857001 0
M  V30 42 H -4.55562 0.493837 1.21993 0
M  V30 43 H -3.47923 -0.0614851 2.55601 0
M  V30 44 H -3.42066 -2.34497 1.4161 0
M  V30 45 H -5.03429 -1.81413 1.99456 0
M  V30 46 H -3.9364 -1.76447 -0.884538 0
M  V30 47 H -5.09648 -2.95139 -0.124228 0
M  V30 48 H -4.84043 0.559751 -1.43992 0
M  V30 49 H -6.86522 1.79996 -1.93674 0
M  V30 50 H -9.11207 0.925307 -1.29792 0
M  V30 51 H -9.32766 -1.18337 -0.161675 0
M  V30 52 H -7.27284 -2.47208 0.363233 0
M  V30 53 H 2.22872 -0.237761 -1.99108 0
M  V30 54 H 4.56056 -1.75205 -2.98382 0
M  V30 55 H 4.3364 -2.7694 -1.5368 0
M  V30 END ATOM
M  V30 BEGIN BOND
M  V30 1 1 1 2
M  V30 2 1 2 3
M  V30 3 1 3 4
M  V30 4 1 4 5
M  V30 5 2 5 6
M  V30 6 1 6 7
M  V30 7 2 7 8
M  V30 8 1 8 9
M  V30 9 1 9 10
M  V30 10 2 10 11
M  V30 11 1 10 12
M  V30 12 1 12 13
M  V30 13 1 13 14
M  V30 14 1 14 15
M  V30 15 1 15 16
M  V30 16 1 16 17
M  V30 17 1 17 18
M  V30 18 2 18 19
M  V30 19 1 19 20
M  V30 20 2 20 21
M  V30 21 1 21 22
M  V30 22 2 22 23
M  V30 23 1 8 24
M  V30 24 2 24 25
M  V30 25 1 25 26
M  V30 26 1 25 5
M  V30 27 1 23 18
M  V30 28 1 1 27
M  V30 29 1 1 28
M  V30 30 1 2 29
M  V30 31 1 2 30
M  V30 32 1 3 31
M  V30 33 1 3 32
M  V30 34 1 6 33
M  V30 35 1 7 34
M  V30 36 1 9 35
M  V30 37 1 9 36
M  V30 38 1 12 37
M  V30 39 1 13 38
M  V30 40 1 13 39
M  V30 41 1 14 40
M  V30 42 1 14 41
M  V30 43 1 15 42
M  V30 44 1 15 43
M  V30 45 1 16 44
M  V30 46 1 16 45
M  V30 47 1 17 46
M  V30 48 1 17 47
M  V30 49 1 19 48
M  V30 50 1 20 49
M  V30 51 1 21 50
M  V30 52 1 22 51
M  V30 53 1 23 52
M  V30 54 1 24 53
M  V30 55 1 26 54
M  V30 56 1 26 55
M  V30 END BOND
M  V30 END CTAB
M  END
