
     RDKit          3D

  0  0  0  0  0  0  0  0  0  0999 V3000
M  V30 BEGIN CTAB
M  V30 COUNTS 83 84 0 0 0
M  V30 BEGIN ATOM
M  V30 1 C -0.382395 0.552229 -0.856101 0 CFG=1
M  V30 2 C -0.459025 2.03374 -1.07271 0
M  V30 3 C 0.822378 2.45887 -1.7844 0
M  V30 4 C 0.722807 3.95613 -1.98398 0
M  V30 5 N 1.91445 4.40857 -2.63748 0
M  V30 6 C 2.15663 4.03078 -3.97915 0
M  V30 7 N 1.45635 4.71289 -5.00015 0
M  V30 8 N 3.00763 3.07698 -4.24219 0
M  V30 9 N 0.78899 0.278527 -0.0515754 0
M  V30 10 C 1.68366 -0.770141 -0.283976 0
M  V30 11 O 1.50243 -1.56332 -1.23285 0
M  V30 12 C 2.89942 -1.00187 0.579414 0 CFG=2
M  V30 13 C 3.80769 0.190944 0.40421 0
M  V30 14 C 5.04416 0.147633 1.18164 0
M  V30 15 C 5.05084 0.625466 2.49572 0
M  V30 16 C 6.20214 0.628578 3.25117 0
M  V30 17 C 7.40119 0.155107 2.73404 0
M  V30 18 O 8.5699 0.153732 3.48936 0
M  V30 19 C 7.40676 -0.316165 1.44736 0
M  V30 20 C 6.24751 -0.315023 0.695242 0
M  V30 21 N 3.56241 -2.20968 0.176511 0
M  V30 22 C 2.9143 -3.4789 0.283081 0
M  V30 23 N 2.22576 -3.8365 1.48298 0
M  V30 24 N 2.95193 -4.29288 -0.700064 0
M  V30 25 C -1.62395 0.0960316 -0.164981 0
M  V30 26 O -1.52014 -0.44563 0.940877 0
M  V30 27 N -2.87904 0.283814 -0.773881 0
M  V30 28 C -4.12147 -0.122996 -0.185149 0 CFG=1
M  V30 29 C -4.27874 -1.61596 -0.176628 0
M  V30 30 C -4.25355 -2.11201 -1.57383 0
M  V30 31 C -5.45455 -2.12894 -2.28159 0
M  V30 32 C -5.43183 -2.59736 -3.58725 0
M  V30 33 C -4.2813 -3.04217 -4.20569 0
M  V30 34 C -3.10251 -3.02348 -3.50491 0
M  V30 35 C -3.12462 -2.55507 -2.19883 0
M  V30 36 C -4.34761 0.504648 1.13489 0
M  V30 37 O -3.5446 1.3347 1.59097 0
M  V30 38 N -5.50022 0.14889 1.88686 0
M  V30 39 C -5.7992 0.688729 3.17795 0
M  V30 40 C -4.82887 0.318407 4.19613 0
M  V30 41 O -4.99594 0.826116 5.36611 0
M  V30 42 N -3.75877 -0.535089 3.99558 0
M  V30 43 C -2.81921 -0.841316 5.09902 0
M  V30 44 H -0.298793 0.0522131 -1.85029 0
M  V30 45 H -0.585388 2.59157 -0.12643 0
M  V30 46 H -1.34866 2.26947 -1.68945 0
M  V30 47 H 1.69055 2.17474 -1.19803 0
M  V30 48 H 0.902097 1.97495 -2.77779 0
M  V30 49 H 0.550228 4.43625 -0.987798 0
M  V30 50 H -0.146079 4.22551 -2.61269 0
M  V30 51 H 2.61038 5.01709 -2.1358 0
M  V30 52 H 1.23329 4.2125 -5.88536 0
M  V30 53 H 1.17415 5.68856 -4.87274 0
M  V30 54 H 3.5029 2.60124 -3.4581 0
M  V30 55 H 0.960662 0.92418 0.758831 0
M  V30 56 H 2.55393 -0.996305 1.62669 0
M  V30 57 H 3.25421 1.13548 0.592682 0
M  V30 58 H 4.10451 0.185537 -0.683151 0
M  V30 59 H 4.15951 1.00742 2.96691 0
M  V30 60 H 6.26414 0.98659 4.26702 0
M  V30 61 H 9.21576 0.93344 3.50479 0
M  V30 62 H 8.3546 -0.688674 1.04656 0
M  V30 63 H 6.33903 -0.692356 -0.307119 0
M  V30 64 H 4.52491 -2.15503 -0.193509 0
M  V30 65 H 2.38295 -3.32429 2.38667 0
M  V30 66 H 1.54503 -4.61626 1.5061 0
M  V30 67 H 3.43229 -4.1032 -1.60635 0
M  V30 68 H -2.90283 0.7597 -1.73666 0
M  V30 69 H -4.93678 0.325292 -0.863858 0
M  V30 70 H -3.41562 -2.02081 0.413108 0
M  V30 71 H -5.21613 -1.90531 0.344165 0
M  V30 72 H -6.35095 -1.78338 -1.79376 0
M  V30 73 H -6.38087 -2.6109 -4.14213 0
M  V30 74 H -4.34713 -3.39558 -5.2378 0
M  V30 75 H -2.18841 -3.34838 -3.92432 0
M  V30 76 H -2.187 -2.55258 -1.64148 0
M  V30 77 H -6.17857 -0.553812 1.47396 0
M  V30 78 H -6.85443 0.401404 3.46364 0
M  V30 79 H -5.84117 1.8169 3.08318 0
M  V30 80 H -3.57125 -1.00995 3.09918 0
M  V30 81 H -3.2565 -0.45445 6.046 0
M  V30 82 H -2.73068 -1.93034 5.13979 0
M  V30 83 H -1.84968 -0.385463 4.8736 0
M  V30 END ATOM
M  V30 BEGIN BOND
M  V30 1 1 1 2
M  V30 2 1 2 3
M  V30 3 1 3 4
M  V30 4 1 4 5
M  V30 5 1 5 6
M  V30 6 1 6 7
M  V30 7 2 6 8 CFG=2
M  V30 8 1 1 9
M  V30 9 1 9 10
M  V30 10 2 10 11
M  V30 11 1 10 12
M  V30 12 1 12 13
M  V30 13 1 13 14
M  V30 14 2 14 15
M  V30 15 1 15 16
M  V30 16 2 16 17
M  V30 17 1 17 18
M  V30 18 1 17 19
M  V30 19 2 19 20
M  V30 20 1 12 21
M  V30 21 1 21 22
M  V30 22 1 22 23
M  V30 23 2 22 24 CFG=2
M  V30 24 1 1 25
M  V30 25 2 25 26
M  V30 26 1 25 27
M  V30 27 1 27 28
M  V30 28 1 28 29
M  V30 29 1 29 30
M  V30 30 2 30 31
M  V30 31 1 31 32
M  V30 32 2 32 33
M  V30 33 1 33 34
M  V30 34 2 34 35
M  V30 35 1 28 36
M  V30 36 2 36 37
M  V30 37 1 36 38
M  V30 38 1 38 39
M  V30 39 1 39 40
M  V30 40 2 40 41
M  V30 41 1 40 42
M  V30 42 1 42 43
M  V30 43 1 20 14
M  V30 44 1 35 30
M  V30 45 1 1 44 CFG=3
M  V30 46 1 2 45
M  V30 47 1 2 46
M  V30 48 1 3 47
M  V30 49 1 3 48
M  V30 50 1 4 49
M  V30 51 1 4 50
M  V30 52 1 5 51
M  V30 53 1 7 52
M  V30 54 1 7 53
M  V30 55 1 8 54
M  V30 56 1 9 55
M  V30 57 1 12 56 CFG=1
M  V30 58 1 13 57
M  V30 59 1 13 58
M  V30 60 1 15 59
M  V30 61 1 16 60
M  V30 62 1 18 61
M  V30 63 1 19 62
M  V30 64 1 20 63
M  V30 65 1 21 64
M  V30 66 1 23 65
M  V30 67 1 23 66
M  V30 68 1 24 67
M  V30 69 1 27 68
M  V30 70 1 28 69 CFG=3
M  V30 71 1 29 70
M  V30 72 1 29 71
M  V30 73 1 31 72
M  V30 74 1 32 73
M  V30 75 1 33 74
M  V30 76 1 34 75
M  V30 77 1 35 76
M  V30 78 1 38 77
M  V30 79 1 39 78
M  V30 80 1 39 79
M  V30 81 1 42 80
M  V30 82 1 43 81
M  V30 83 1 43 82
M  V30 84 1 43 83
M  V30 END BOND
M  V30 END CTAB
M  END
