
     RDKit          3D

  0  0  0  0  0  0  0  0  0  0999 V3000
M  V30 BEGIN CTAB
M  V30 COUNTS 47 50 0 0 0
M  V30 BEGIN ATOM
M  V30 1 N -0.490236 2.2822 2.8234 0
M  V30 2 C 0.224145 1.58072 1.82989 0
M  V30 3 N 1.53427 1.31016 1.89372 0
M  V30 4 C 2.1783 0.636 0.920504 0
M  V30 5 C 1.49079 0.18828 -0.207697 0
M  V30 6 N 0.177968 0.469033 -0.25377 0
M  V30 7 C -0.469341 1.14086 0.713701 0
M  V30 8 C -1.91015 1.38237 0.539506 0
M  V30 9 O -2.46116 2.01189 1.47009 0
M  V30 10 N -2.53443 0.900796 -0.624213 0
M  V30 11 C -3.94109 1.10039 -0.843596 0
M  V30 12 C -4.72807 0.398906 0.232846 0
M  V30 13 C -6.21872 0.609504 0.0346493 0
M  V30 14 C -6.95072 -0.698923 0.0423132 0
M  V30 15 C -6.31669 -1.6331 -0.943736 0
M  V30 16 C -4.99627 -1.73184 -0.841758 0
M  V30 17 O -4.37145 -0.982044 0.13618 0
M  V30 18 C 2.14187 -0.501829 -1.20747 0
M  V30 19 N 1.42564 -0.951475 -2.35164 0
M  V30 20 N 3.45949 -0.728462 -1.05886 0
M  V30 21 C 4.14834 -0.313865 0.00842658 0
M  V30 22 N 3.49286 0.356752 0.970123 0
M  V30 23 C 5.59435 -0.589133 0.122216 0
M  V30 24 C 6.26731 -0.143889 1.23956 0
M  V30 25 C 7.61464 -0.414107 1.32008 0
M  V30 26 C 8.24332 -1.11066 0.298631 0
M  V30 27 C 7.56471 -1.55305 -0.815848 0
M  V30 28 C 6.21956 -1.2762 -0.88312 0
M  V30 29 H -0.480773 3.32584 2.83681 0
M  V30 30 H -1.0546 1.81598 3.58253 0
M  V30 31 H -1.94361 0.383349 -1.34312 0
M  V30 32 H -4.20346 2.19444 -0.880249 0
M  V30 33 H -4.20702 0.644581 -1.84075 0
M  V30 34 H -4.44683 0.781561 1.22282 0
M  V30 35 H -6.41485 1.1502 -0.927621 0
M  V30 36 H -6.60732 1.23841 0.856254 0
M  V30 37 H -8.0207 -0.594607 -0.109057 0
M  V30 38 H -6.80573 -1.14474 1.06028 0
M  V30 39 H -6.84738 -2.18873 -1.67957 0
M  V30 40 H -4.47995 -2.40002 -1.53609 0
M  V30 41 H 1.87588 -1.16609 -3.24763 0
M  V30 42 H 0.38736 -1.07379 -2.29034 0
M  V30 43 H 5.73776 0.403609 2.02714 0
M  V30 44 H 8.18167 -0.0838748 2.17814 0
M  V30 45 H 9.30472 -1.33725 0.336615 0
M  V30 46 H 8.02032 -2.09629 -1.62746 0
M  V30 47 H 5.61528 -1.59186 -1.73022 0
M  V30 END ATOM
M  V30 BEGIN BOND
M  V30 1 1 1 2
M  V30 2 2 2 3
M  V30 3 1 3 4
M  V30 4 2 4 5
M  V30 5 1 5 6
M  V30 6 2 6 7
M  V30 7 1 7 8
M  V30 8 2 8 9
M  V30 9 1 8 10
M  V30 10 1 10 11
M  V30 11 1 11 12
M  V30 12 1 12 13
M  V30 13 1 13 14
M  V30 14 1 14 15
M  V30 15 2 15 16
M  V30 16 1 16 17
M  V30 17 1 5 18
M  V30 18 1 18 19
M  V30 19 2 18 20
M  V30 20 1 20 21
M  V30 21 2 21 22
M  V30 22 1 21 23
M  V30 23 2 23 24
M  V30 24 1 24 25
M  V30 25 2 25 26
M  V30 26 1 26 27
M  V30 27 2 27 28
M  V30 28 1 7 2
M  V30 29 1 17 12
M  V30 30 1 28 23
M  V30 31 1 22 4
M  V30 32 1 1 29
M  V30 33 1 1 30
M  V30 34 1 10 31
M  V30 35 1 11 32
M  V30 36 1 11 33
M  V30 37 1 12 34
M  V30 38 1 13 35
M  V30 39 1 13 36
M  V30 40 1 14 37
M  V30 41 1 14 38
M  V30 42 1 15 39
M  V30 43 1 16 40
M  V30 44 1 19 41
M  V30 45 1 19 42
M  V30 46 1 24 43
M  V30 47 1 25 44
M  V30 48 1 26 45
M  V30 49 1 27 46
M  V30 50 1 28 47
M  V30 END BOND
M  V30 END CTAB
M  END
