
     RDKit          3D

  0  0  0  0  0  0  0  0  0  0999 V3000
M  V30 BEGIN CTAB
M  V30 COUNTS 24 24 0 0 0
M  V30 BEGIN ATOM
M  V30 1 N -1.76854 1.37019 -1.03307 0
M  V30 2 C -1.07618 0.319618 -0.28083 0
M  V30 3 C -1.51215 0.272601 1.16401 0
M  V30 4 C -2.74585 -0.493764 0.656124 0
M  V30 5 C -1.8262 -0.977715 -0.475426 0
M  V30 6 C 0.389076 0.285978 -0.552971 0
M  V30 7 N 1.07622 -0.744843 0.181638 0
M  V30 8 S 2.76161 -0.693105 -0.212223 0
M  V30 9 O 3.32679 -2.10081 -0.102509 0
M  V30 10 O 2.91571 -0.286919 -1.65108 0
M  V30 11 N 3.63432 0.338989 0.831404 0
M  V30 12 H -1.86358 2.24477 -0.495861 0
M  V30 13 H -1.19525 1.51662 -1.8977 0
M  V30 14 H -0.906905 -0.349578 1.81606 0
M  V30 15 H -1.77707 1.2763 1.56578 0
M  V30 16 H -3.50115 0.234811 0.314983 0
M  V30 17 H -3.07935 -1.29423 1.32332 0
M  V30 18 H -2.42888 -1.01294 -1.416 0
M  V30 19 H -1.30873 -1.89359 -0.19414 0
M  V30 20 H 0.819998 1.25986 -0.172491 0
M  V30 21 H 0.641057 0.234157 -1.61621 0
M  V30 22 H 1.0026 -0.582062 1.22516 0
M  V30 23 H 4.46522 -0.13907 1.19858 0
M  V30 24 H 3.95723 1.21473 0.356778 0
M  V30 END ATOM
M  V30 BEGIN BOND
M  V30 1 1 1 2
M  V30 2 1 2 3
M  V30 3 1 3 4
M  V30 4 1 4 5
M  V30 5 1 2 6
M  V30 6 1 6 7
M  V30 7 1 7 8
M  V30 8 2 8 9
M  V30 9 2 8 10
M  V30 10 1 8 11
M  V30 11 1 5 2
M  V30 12 1 1 12
M  V30 13 1 1 13
M  V30 14 1 3 14
M  V30 15 1 3 15
M  V30 16 1 4 16
M  V30 17 1 4 17
M  V30 18 1 5 18
M  V30 19 1 5 19
M  V30 20 1 6 20
M  V30 21 1 6 21
M  V30 22 1 7 22
M  V30 23 1 11 23
M  V30 24 1 11 24
M  V30 END BOND
M  V30 END CTAB
M  END
