
     RDKit          3D

  0  0  0  0  0  0  0  0  0  0999 V3000
M  V30 BEGIN CTAB
M  V30 COUNTS 33 34 0 0 0
M  V30 BEGIN ATOM
M  V30 1 N 6.4774 0.82727 0.300022 0
M  V30 2 N 5.1573 0.836645 -0.144003 0
M  V30 3 C 4.07169 0.401491 0.653645 0
M  V30 4 O 4.36811 -0.0142591 1.83417 0
M  V30 5 C 2.69811 0.404562 0.210091 0
M  V30 6 C 2.33695 1.20562 -0.872528 0
M  V30 7 C 1.0378 1.18572 -1.30864 0
M  V30 8 C 0.113956 0.376498 -0.670983 0
M  V30 9 C 0.427745 -0.431309 0.404267 0
M  V30 10 C 1.74299 -0.392138 0.822379 0
M  V30 11 N -0.506526 -1.21063 0.975024 0
M  V30 12 C -1.79251 -1.24244 0.527376 0
M  V30 13 N -2.07662 -0.450821 -0.516758 0
M  V30 14 C -1.18759 0.34853 -1.1292 0
M  V30 15 O -1.48911 1.0796 -2.10759 0
M  V30 16 C -3.44772 -0.426162 -1.00267 0
M  V30 17 C -4.14969 0.740999 -0.285748 0
M  V30 18 N -2.78038 -2.07557 1.12414 0
M  V30 19 N -3.81452 -1.68589 1.95323 0
M  V30 20 H 7.15858 1.14071 -0.43236 0
M  V30 21 H 6.53746 1.40441 1.16817 0
M  V30 22 H 4.96796 1.1785 -1.1182 0
M  V30 23 H 3.07335 1.84049 -1.35309 0
M  V30 24 H 0.755606 1.79697 -2.12517 0
M  V30 25 H 1.998 -1.02559 1.66623 0
M  V30 26 H -4.03488 -1.32784 -0.728458 0
M  V30 27 H -3.50219 -0.262595 -2.08497 0
M  V30 28 H -4.3959 1.56671 -1.00792 0
M  V30 29 H -5.11922 0.432961 0.163557 0
M  V30 30 H -3.50383 1.0712 0.556175 0
M  V30 31 H -2.71284 -3.11654 0.904908 0
M  V30 32 H -4.70038 -2.13414 1.56786 0
M  V30 33 H -3.70909 -2.04297 2.93245 0
M  V30 END ATOM
M  V30 BEGIN BOND
M  V30 1 1 1 2
M  V30 2 1 2 3
M  V30 3 2 3 4
M  V30 4 1 3 5
M  V30 5 2 5 6
M  V30 6 1 6 7
M  V30 7 2 7 8
M  V30 8 1 8 9
M  V30 9 2 9 10
M  V30 10 1 9 11
M  V30 11 2 11 12
M  V30 12 1 12 13
M  V30 13 1 13 14
M  V30 14 2 14 15
M  V30 15 1 13 16
M  V30 16 1 16 17
M  V30 17 1 12 18
M  V30 18 1 18 19
M  V30 19 1 10 5
M  V30 20 1 14 8
M  V30 21 1 1 20
M  V30 22 1 1 21
M  V30 23 1 2 22
M  V30 24 1 6 23
M  V30 25 1 7 24
M  V30 26 1 10 25
M  V30 27 1 16 26
M  V30 28 1 16 27
M  V30 29 1 17 28
M  V30 30 1 17 29
M  V30 31 1 17 30
M  V30 32 1 18 31
M  V30 33 1 19 32
M  V30 34 1 19 33
M  V30 END BOND
M  V30 END CTAB
M  END
