
     RDKit          3D

  0  0  0  0  0  0  0  0  0  0999 V3000
M  V30 BEGIN CTAB
M  V30 COUNTS 23 23 0 0 0
M  V30 BEGIN ATOM
M  V30 1 C 4.05036 0.933597 -0.484791 0
M  V30 2 O 2.66928 0.739885 -0.316703 0
M  V30 3 C 2.03106 -0.470103 -0.2738 0
M  V30 4 O 2.74661 -1.49679 -0.395864 0
M  V30 5 C 0.582801 -0.553642 -0.0938313 0
M  V30 6 C -0.0438065 -1.80622 -0.0538572 0
M  V30 7 C -1.39869 -1.96527 0.111977 0
M  V30 8 C -2.20796 -0.859705 0.24842 0
M  V30 9 C -1.60657 0.378549 0.211178 0
M  V30 10 C -0.230229 0.544918 0.0428689 0
M  V30 11 C 0.331872 1.87157 0.0133733 0
M  V30 12 N 0.765845 2.96077 -0.00731828 0
M  V30 13 N -2.39827 1.53875 0.347082 0
M  V30 14 N -3.61043 -0.939005 0.422763 0
M  V30 15 H 4.49595 -0.0548735 -0.794124 0
M  V30 16 H 4.47423 1.12765 0.528925 0
M  V30 17 H 4.30646 1.71838 -1.21767 0
M  V30 18 H 0.584193 -2.67325 -0.160023 0
M  V30 19 H -1.84448 -2.96472 0.137046 0
M  V30 20 H -3.08367 1.63453 1.12324 0
M  V30 21 H -2.29606 2.31222 -0.339559 0
M  V30 22 H -4.15278 -1.66536 -0.0954874 0
M  V30 23 H -4.1657 -0.31189 1.04616 0
M  V30 END ATOM
M  V30 BEGIN BOND
M  V30 1 1 1 2
M  V30 2 1 2 3
M  V30 3 2 3 4
M  V30 4 1 3 5
M  V30 5 2 5 6
M  V30 6 1 6 7
M  V30 7 2 7 8
M  V30 8 1 8 9
M  V30 9 2 9 10
M  V30 10 1 10 11
M  V30 11 3 11 12
M  V30 12 1 9 13
M  V30 13 1 8 14
M  V30 14 1 10 5
M  V30 15 1 1 15
M  V30 16 1 1 16
M  V30 17 1 1 17
M  V30 18 1 6 18
M  V30 19 1 7 19
M  V30 20 1 13 20
M  V30 21 1 13 21
M  V30 22 1 14 22
M  V30 23 1 14 23
M  V30 END BOND
M  V30 END CTAB
M  END
