
     RDKit          3D

  0  0  0  0  0  0  0  0  0  0999 V3000
M  V30 BEGIN CTAB
M  V30 COUNTS 19 19 0 0 0
M  V30 BEGIN ATOM
M  V30 1 N 0.544223 1.83787 0.372528 0
M  V30 2 C -0.354595 0.753371 0.224477 0
M  V30 3 C -1.65906 0.868342 0.702545 0
M  V30 4 C -2.50037 -0.213831 0.53646 0
M  V30 5 Cl -4.17207 -0.148853 1.11537 0
M  V30 6 C -2.04577 -1.35979 -0.0838695 0
M  V30 7 F -2.87351 -2.42098 -0.245838 0
M  V30 8 C -0.730386 -1.4606 -0.559732 0
M  V30 9 C 0.10249 -0.380788 -0.391831 0
M  V30 10 S 1.74298 -0.441939 -0.958944 0
M  V30 11 N 2.79851 -0.21201 0.398091 0
M  V30 12 O 2.00978 0.589595 -2.01914 0
M  V30 13 O 2.03504 -1.83322 -1.48214 0
M  V30 14 H 0.669661 2.44815 -0.485771 0
M  V30 15 H 1.06818 2.06935 1.22632 0
M  V30 16 H -2.00509 1.77065 1.18704 0
M  V30 17 H -0.383252 -2.36242 -1.04442 0
M  V30 18 H 3.50319 0.516121 0.243799 0
M  V30 19 H 2.25006 -0.0190079 1.26505 0
M  V30 END ATOM
M  V30 BEGIN BOND
M  V30 1 1 1 2
M  V30 2 2 2 3
M  V30 3 1 3 4
M  V30 4 1 4 5
M  V30 5 2 4 6
M  V30 6 1 6 7
M  V30 7 1 6 8
M  V30 8 2 8 9
M  V30 9 1 9 10
M  V30 10 1 10 11
M  V30 11 2 10 12
M  V30 12 2 10 13
M  V30 13 1 9 2
M  V30 14 1 1 14
M  V30 15 1 1 15
M  V30 16 1 3 16
M  V30 17 1 8 17
M  V30 18 1 11 18
M  V30 19 1 11 19
M  V30 END BOND
M  V30 END CTAB
M  END
