
     RDKit          3D

  0  0  0  0  0  0  0  0  0  0999 V3000
M  V30 BEGIN CTAB
M  V30 COUNTS 29 31 0 0 0
M  V30 BEGIN ATOM
M  V30 1 N 5.70473 -0.410689 0.352362 0
M  V30 2 C 4.30094 -0.289624 0.218674 0
M  V30 3 N 3.78329 0.882394 -0.192387 0
M  V30 4 C 2.4617 1.03868 -0.331796 0
M  V30 5 C 1.62351 -0.0463052 -0.0401989 0
M  V30 6 C 0.298562 0.340606 -0.254343 0
M  V30 7 N -0.885266 -0.416022 -0.069103 0
M  V30 8 C -2.19482 0.033529 -0.327627 0
M  V30 9 C -2.54691 1.087 -1.12359 0
M  V30 10 C -3.87837 1.48597 -1.30699 0
M  V30 11 C -4.89494 0.81761 -0.680751 0
M  V30 12 C -4.57896 -0.251544 0.13018 0
M  V30 13 Cl -5.87924 -1.11902 0.94049 0
M  V30 14 C -3.26545 -0.62614 0.296596 0
M  V30 15 N 0.39594 1.63319 -0.663047 0
M  V30 16 N 1.64445 2.02826 -0.705207 0
M  V30 17 C 2.18475 -1.23047 0.377624 0
M  V30 18 N 1.36375 -2.35308 0.68057 0
M  V30 19 N 3.54186 -1.34615 0.506417 0
M  V30 20 H 6.14422 -0.187833 1.25549 0
M  V30 21 H 6.26319 -0.72149 -0.461922 0
M  V30 22 H -0.80314 -1.42079 0.295415 0
M  V30 23 H -1.79147 1.64799 -1.66005 0
M  V30 24 H -4.13228 2.32293 -1.94118 0
M  V30 25 H -5.92171 1.10447 -0.805765 0
M  V30 26 H -3.01953 -1.4748 0.942097 0
M  V30 27 H 1.94856 2.98386 -0.991567 0
M  V30 28 H 1.11701 -2.53998 1.6729 0
M  V30 29 H 1.01564 -2.97255 -0.0503084 0
M  V30 END ATOM
M  V30 BEGIN BOND
M  V30 1 1 1 2
M  V30 2 2 2 3
M  V30 3 1 3 4
M  V30 4 2 4 5
M  V30 5 1 5 6
M  V30 6 1 6 7
M  V30 7 1 7 8
M  V30 8 2 8 9
M  V30 9 1 9 10
M  V30 10 2 10 11
M  V30 11 1 11 12
M  V30 12 1 12 13
M  V30 13 2 12 14
M  V30 14 2 6 15
M  V30 15 1 15 16
M  V30 16 1 5 17
M  V30 17 1 17 18
M  V30 18 2 17 19
M  V30 19 1 19 2
M  V30 20 1 16 4
M  V30 21 1 14 8
M  V30 22 1 1 20
M  V30 23 1 1 21
M  V30 24 1 7 22
M  V30 25 1 9 23
M  V30 26 1 10 24
M  V30 27 1 11 25
M  V30 28 1 14 26
M  V30 29 1 16 27
M  V30 30 1 18 28
M  V30 31 1 18 29
M  V30 END BOND
M  V30 END CTAB
M  END
