
     RDKit          3D

  0  0  0  0  0  0  0  0  0  0999 V3000
M  V30 BEGIN CTAB
M  V30 COUNTS 31 33 0 0 0
M  V30 BEGIN ATOM
M  V30 1 N -3.95084 0.378261 -0.491971 0
M  V30 2 C -2.75833 0.58256 0.318057 0 CFG=1
M  V30 3 C -2.66085 -0.44689 1.41343 0
M  V30 4 C -1.15676 -0.746364 1.43445 0
M  V30 5 C -0.858547 -0.810288 -0.0443531 0 CFG=1
M  V30 6 C -1.55498 0.408659 -0.568881 0 CFG=1
M  V30 7 O -1.93797 0.191839 -1.90104 0
M  V30 8 N 0.541181 -0.838713 -0.343108 0
M  V30 9 C 1.22533 -1.80648 -0.978394 0
M  V30 10 N 2.5284 -1.48907 -1.08014 0
M  V30 11 C 2.72035 -0.301768 -0.510128 0
M  V30 12 C 1.48211 0.101546 -0.0518656 0
M  V30 13 N 1.37288 1.26703 0.568104 0
M  V30 14 C 2.4309 2.06671 0.763464 0
M  V30 15 N 3.62741 1.6608 0.312344 0
M  V30 16 C 3.84741 0.498906 -0.328273 0
M  V30 17 N 5.12004 0.09833 -0.792119 0
M  V30 18 H -3.86181 -0.556691 -0.945872 0
M  V30 19 H -4.80491 0.50202 0.0694515 0
M  V30 20 H -2.82005 1.59345 0.774766 0
M  V30 21 H -3.19188 -1.39193 1.16165 0
M  V30 22 H -3.0007 -0.0290877 2.37924 0
M  V30 23 H -0.943098 -1.68965 1.95439 0
M  V30 24 H -0.648148 0.0659201 1.95671 0
M  V30 25 H -1.35199 -1.69281 -0.44681 0
M  V30 26 H -0.971808 1.32618 -0.536212 0
M  V30 27 H -2.64309 0.853943 -2.11759 0
M  V30 28 H 0.730912 -2.71348 -1.34324 0
M  V30 29 H 2.2927 3.01383 1.27732 0
M  V30 30 H 5.28102 -0.187957 -1.77071 0
M  V30 31 H 5.91513 0.0911804 -0.132672 0
M  V30 END ATOM
M  V30 BEGIN BOND
M  V30 1 1 1 2
M  V30 2 1 2 3
M  V30 3 1 3 4
M  V30 4 1 4 5
M  V30 5 1 5 6
M  V30 6 1 6 7
M  V30 7 1 5 8
M  V30 8 1 8 9
M  V30 9 2 9 10
M  V30 10 1 10 11
M  V30 11 2 11 12
M  V30 12 1 12 13
M  V30 13 2 13 14
M  V30 14 1 14 15
M  V30 15 2 15 16
M  V30 16 1 16 17
M  V30 17 1 6 2
M  V30 18 1 12 8
M  V30 19 1 16 11
M  V30 20 1 1 18
M  V30 21 1 1 19
M  V30 22 1 2 20 CFG=1
M  V30 23 1 3 21
M  V30 24 1 3 22
M  V30 25 1 4 23
M  V30 26 1 4 24
M  V30 27 1 5 25 CFG=3
M  V30 28 1 6 26 CFG=3
M  V30 29 1 7 27
M  V30 30 1 9 28
M  V30 31 1 14 29
M  V30 32 1 17 30
M  V30 33 1 17 31
M  V30 END BOND
M  V30 END CTAB
M  END
