
     RDKit          3D

  0  0  0  0  0  0  0  0  0  0999 V3000
M  V30 BEGIN CTAB
M  V30 COUNTS 23 23 0 0 0
M  V30 BEGIN ATOM
M  V30 1 N 3.58786 0.164434 0.525756 0
M  V30 2 N 2.25106 0.184865 0.886943 0
M  V30 3 C 1.29631 0.0506284 0.0418764 0
M  V30 4 C -0.12965 0.0771928 0.462562 0
M  V30 5 C -0.761915 -1.23826 0.0816013 0
M  V30 6 C -1.99367 -1.40679 0.951653 0
M  V30 7 S -3.16029 -0.156899 0.341972 0
M  V30 8 C -2.23079 1.12448 -0.47586 0
M  V30 9 C -0.825293 1.2739 -0.0740382 0
M  V30 10 N 1.65852 -0.126404 -1.32795 0
M  V30 11 H 3.96806 -0.560221 -0.110816 0
M  V30 12 H 4.25274 0.877779 0.883431 0
M  V30 13 H -0.148885 0.129089 1.57094 0
M  V30 14 H -1.10278 -1.23863 -0.993645 0
M  V30 15 H -0.0371334 -2.04389 0.191545 0
M  V30 16 H -2.3998 -2.42793 0.910516 0
M  V30 17 H -1.72337 -1.15479 2.01724 0
M  V30 18 H -2.77414 2.10328 -0.316626 0
M  V30 19 H -2.32828 0.967224 -1.59094 0
M  V30 20 H -0.243483 1.62655 -0.977612 0
M  V30 21 H -0.73602 2.12561 0.647316 0
M  V30 22 H 1.7038 -1.07044 -1.74082 0
M  V30 23 H 1.87715 0.719229 -1.90505 0
M  V30 END ATOM
M  V30 BEGIN BOND
M  V30 1 1 1 2
M  V30 2 2 2 3 CFG=2
M  V30 3 1 3 4
M  V30 4 1 4 5
M  V30 5 1 5 6
M  V30 6 1 6 7
M  V30 7 1 7 8
M  V30 8 1 8 9
M  V30 9 1 3 10
M  V30 10 1 9 4
M  V30 11 1 1 11
M  V30 12 1 1 12
M  V30 13 1 4 13
M  V30 14 1 5 14
M  V30 15 1 5 15
M  V30 16 1 6 16
M  V30 17 1 6 17
M  V30 18 1 8 18
M  V30 19 1 8 19
M  V30 20 1 9 20
M  V30 21 1 9 21
M  V30 22 1 10 22
M  V30 23 1 10 23
M  V30 END BOND
M  V30 END CTAB
M  END
