
     RDKit          3D

  0  0  0  0  0  0  0  0  0  0999 V3000
M  V30 BEGIN CTAB
M  V30 COUNTS 45 47 0 0 0
M  V30 BEGIN ATOM
M  V30 1 O 2.612 0.858817 -1.549 0
M  V30 2 C 1.93145 -0.127602 -1.17892 0
M  V30 3 C 0.519922 0.000734138 -0.839332 0
M  V30 4 C -0.246605 -1.06094 -0.432277 0
M  V30 5 C -1.59783 -0.909682 -0.112775 0
M  V30 6 C -2.17775 0.329866 -0.206797 0
M  V30 7 C -1.39969 1.38964 -0.616454 0
M  V30 8 C -0.0596034 1.24701 -0.934777 0
M  V30 9 C -3.59885 0.571829 0.112929 0
M  V30 10 C -4.52591 -0.336757 -0.659596 0
M  V30 11 C -5.9362 0.0446588 -0.372699 0
M  V30 12 C -6.27208 0.190116 1.06894 0
M  V30 13 C -5.22502 0.841012 1.90204 0
M  V30 14 C -3.84019 0.259166 1.59656 0
M  V30 15 O 2.53855 -1.34711 -1.09579 0
M  V30 16 C 3.8836 -1.6397 -1.38485 0
M  V30 17 C 4.8628 -0.9208 -0.566144 0
M  V30 18 N 5.47539 0.214198 -0.941681 0
M  V30 19 C 6.36631 0.833079 -0.151143 0
M  V30 20 N 6.97379 2.02354 -0.607669 0
M  V30 21 N 6.63931 0.284437 1.04753 0
M  V30 22 C 6.05287 -0.848345 1.46693 0
M  V30 23 N 5.16485 -1.4438 0.651229 0
M  V30 24 N 6.34819 -1.42302 2.73917 0
M  V30 25 H 0.212432 -2.03823 -0.358617 0
M  V30 26 H -2.20586 -1.72802 0.205424 0
M  V30 27 H -1.8332 2.3811 -0.699501 0
M  V30 28 H 0.550381 2.08399 -1.25714 0
M  V30 29 H -3.86608 1.61871 -0.0237729 0
M  V30 30 H -4.36101 -0.253005 -1.75459 0
M  V30 31 H -4.32437 -1.38159 -0.382889 0
M  V30 32 H -6.59039 -0.779428 -0.783826 0
M  V30 33 H -6.24509 0.951855 -0.939566 0
M  V30 34 H -7.19415 0.840687 1.12973 0
M  V30 35 H -6.57031 -0.759751 1.56777 0
M  V30 36 H -5.12102 1.9415 1.70788 0
M  V30 37 H -5.48613 0.692946 2.97385 0
M  V30 38 H -3.82822 -0.829535 1.69753 0
M  V30 39 H -3.08859 0.80025 2.16867 0
M  V30 40 H 4.01092 -2.74268 -1.18988 0
M  V30 41 H 4.13271 -1.46173 -2.45414 0
M  V30 42 H 7.94101 1.99893 -0.984712 0
M  V30 43 H 6.44601 2.91467 -0.561846 0
M  V30 44 H 7.18707 -2.02819 2.841 0
M  V30 45 H 5.74459 -1.25281 3.57273 0
M  V30 END ATOM
M  V30 BEGIN BOND
M  V30 1 2 1 2
M  V30 2 1 2 3
M  V30 3 2 3 4
M  V30 4 1 4 5
M  V30 5 2 5 6
M  V30 6 1 6 7
M  V30 7 2 7 8
M  V30 8 1 6 9
M  V30 9 1 9 10
M  V30 10 1 10 11
M  V30 11 1 11 12
M  V30 12 1 12 13
M  V30 13 1 13 14
M  V30 14 1 2 15
M  V30 15 1 15 16
M  V30 16 1 16 17
M  V30 17 2 17 18
M  V30 18 1 18 19
M  V30 19 1 19 20
M  V30 20 2 19 21
M  V30 21 1 21 22
M  V30 22 2 22 23
M  V30 23 1 22 24
M  V30 24 1 8 3
M  V30 25 1 14 9
M  V30 26 1 23 17
M  V30 27 1 4 25
M  V30 28 1 5 26
M  V30 29 1 7 27
M  V30 30 1 8 28
M  V30 31 1 9 29
M  V30 32 1 10 30
M  V30 33 1 10 31
M  V30 34 1 11 32
M  V30 35 1 11 33
M  V30 36 1 12 34
M  V30 37 1 12 35
M  V30 38 1 13 36
M  V30 39 1 13 37
M  V30 40 1 14 38
M  V30 41 1 14 39
M  V30 42 1 16 40
M  V30 43 1 16 41
M  V30 44 1 20 42
M  V30 45 1 20 43
M  V30 46 1 24 44
M  V30 47 1 24 45
M  V30 END BOND
M  V30 END CTAB
M  END
