
     RDKit          3D

  0  0  0  0  0  0  0  0  0  0999 V3000
M  V30 BEGIN CTAB
M  V30 COUNTS 32 32 0 0 0
M  V30 BEGIN ATOM
M  V30 1 C 4.25935 -1.95924 -0.565892 0
M  V30 2 C 3.4061 -0.754123 -0.427994 0
M  V30 3 C 3.92813 0.449638 -0.00185065 0
M  V30 4 C 3.11875 1.57196 0.12348 0
M  V30 5 C 1.77214 1.51812 -0.173266 0
M  V30 6 C 1.25828 0.319908 -0.596241 0
M  V30 7 C 2.05964 -0.799829 -0.72257 0
M  V30 8 S -0.464504 0.222512 -0.983395 0
M  V30 9 C -1.42747 -0.239088 0.497817 0
M  V30 10 C -2.8789 -0.296582 0.0692864 0
M  V30 11 N -3.00776 -1.28958 -0.97386 0
M  V30 12 C -3.7668 -0.731659 1.22215 0
M  V30 13 C -3.31789 1.07308 -0.365791 0
M  V30 14 N 0.967949 2.69017 -0.03377 0
M  V30 15 H 4.29488 -2.46498 0.439113 0
M  V30 16 H 3.88036 -2.64584 -1.33731 0
M  V30 17 H 5.32484 -1.65758 -0.779174 0
M  V30 18 H 4.98382 0.476121 0.226643 0
M  V30 19 H 3.56609 2.4946 0.46001 0
M  V30 20 H 1.67253 -1.76056 -1.05648 0
M  V30 21 H -1.09527 -1.22615 0.898073 0
M  V30 22 H -1.31007 0.579109 1.23007 0
M  V30 23 H -2.424 -2.11381 -0.73587 0
M  V30 24 H -4.01664 -1.52491 -1.13468 0
M  V30 25 H -4.8091 -0.402651 1.04143 0
M  V30 26 H -3.40662 -0.268124 2.15417 0
M  V30 27 H -3.73939 -1.8298 1.31405 0
M  V30 28 H -3.21389 1.25971 -1.44184 0
M  V30 29 H -4.34625 1.30742 0.0150787 0
M  V30 30 H -2.65637 1.82553 0.147821 0
M  V30 31 H 0.556473 3.08794 -0.90365 0
M  V30 32 H 0.831606 3.08871 0.921264 0
M  V30 END ATOM
M  V30 BEGIN BOND
M  V30 1 1 1 2
M  V30 2 2 2 3
M  V30 3 1 3 4
M  V30 4 2 4 5
M  V30 5 1 5 6
M  V30 6 2 6 7
M  V30 7 1 6 8
M  V30 8 1 8 9
M  V30 9 1 9 10
M  V30 10 1 10 11
M  V30 11 1 10 12
M  V30 12 1 10 13
M  V30 13 1 5 14
M  V30 14 1 7 2
M  V30 15 1 1 15
M  V30 16 1 1 16
M  V30 17 1 1 17
M  V30 18 1 3 18
M  V30 19 1 4 19
M  V30 20 1 7 20
M  V30 21 1 9 21
M  V30 22 1 9 22
M  V30 23 1 11 23
M  V30 24 1 11 24
M  V30 25 1 12 25
M  V30 26 1 12 26
M  V30 27 1 12 27
M  V30 28 1 13 28
M  V30 29 1 13 29
M  V30 30 1 13 30
M  V30 31 1 14 31
M  V30 32 1 14 32
M  V30 END BOND
M  V30 END CTAB
M  END
