
     RDKit          3D

  0  0  0  0  0  0  0  0  0  0999 V3000
M  V30 BEGIN CTAB
M  V30 COUNTS 35 38 0 0 0
M  V30 BEGIN ATOM
M  V30 1 N 1.21394 5.06701 0.235864 0
M  V30 2 C 0.862068 3.95779 0.135826 0
M  V30 3 C 0.430571 2.58664 0.0348242 0
M  V30 4 C 1.24634 1.45332 -0.0230402 0
M  V30 5 N 2.58276 1.30066 -0.00403043 0
M  V30 6 C 3.11113 0.0558148 -0.0756257 0
M  V30 7 C 4.47989 -0.132459 -0.058287 0
M  V30 8 C 5.05367 -1.38488 -0.1294 0
M  V30 9 C 4.26956 -2.51627 -0.222105 0
M  V30 10 C 2.90247 -2.33271 -0.239721 0
M  V30 11 C 2.32191 -1.07207 -0.168206 0
M  V30 12 N 0.978086 -0.91604 -0.187152 0
M  V30 13 C 0.459661 0.323498 -0.115692 0
M  V30 14 N -0.822633 0.750958 -0.115165 0
M  V30 15 C -0.865937 2.09337 -0.0264529 0
M  V30 16 N -2.02949 2.92015 0.00334668 0
M  V30 17 C -1.9472 -0.145621 -0.199616 0
M  V30 18 C -2.27632 -0.777889 -1.37712 0
M  V30 19 C -3.35759 -1.63165 -1.43237 0
M  V30 20 C -4.11536 -1.85448 -0.300757 0
M  V30 21 C -3.77551 -1.21444 0.875096 0
M  V30 22 C -2.69314 -0.352845 0.952124 0
M  V30 23 N -2.32477 0.312135 2.13697 0
M  V30 24 H 5.08613 0.772634 0.0154302 0
M  V30 25 H 6.13251 -1.5141 -0.114454 0
M  V30 26 H 4.72616 -3.50033 -0.277857 0
M  V30 27 H 2.26942 -3.21071 -0.312199 0
M  V30 28 H -2.60399 3.05009 -0.857839 0
M  V30 29 H -2.3422 3.41379 0.865738 0
M  V30 30 H -1.67054 -0.589702 -2.25044 0
M  V30 31 H -3.59285 -2.11745 -2.37958 0
M  V30 32 H -4.97005 -2.53586 -0.364754 0
M  V30 33 H -4.36281 -1.38983 1.74378 0
M  V30 34 H -2.84053 1.1564 2.44774 0
M  V30 35 H -1.53537 -0.0249289 2.72102 0
M  V30 END ATOM
M  V30 BEGIN BOND
M  V30 1 3 1 2
M  V30 2 1 2 3
M  V30 3 1 3 4
M  V30 4 2 4 5
M  V30 5 1 5 6
M  V30 6 2 6 7
M  V30 7 1 7 8
M  V30 8 2 8 9
M  V30 9 1 9 10
M  V30 10 2 10 11
M  V30 11 1 11 12
M  V30 12 2 12 13
M  V30 13 1 13 14
M  V30 14 1 14 15
M  V30 15 1 15 16
M  V30 16 1 14 17
M  V30 17 2 17 18
M  V30 18 1 18 19
M  V30 19 2 19 20
M  V30 20 1 20 21
M  V30 21 2 21 22
M  V30 22 1 22 23
M  V30 23 2 15 3
M  V30 24 1 22 17
M  V30 25 1 13 4
M  V30 26 1 11 6
M  V30 27 1 7 24
M  V30 28 1 8 25
M  V30 29 1 9 26
M  V30 30 1 10 27
M  V30 31 1 16 28
M  V30 32 1 16 29
M  V30 33 1 18 30
M  V30 34 1 19 31
M  V30 35 1 20 32
M  V30 36 1 21 33
M  V30 37 1 23 34
M  V30 38 1 23 35
M  V30 END BOND
M  V30 END CTAB
M  END
