
     RDKit          3D

  0  0  0  0  0  0  0  0  0  0999 V3000
M  V30 BEGIN CTAB
M  V30 COUNTS 34 35 0 0 0
M  V30 BEGIN ATOM
M  V30 1 N 4.55596 -0.24173 1.53235 0
M  V30 2 C 3.95887 0.977659 1.01885 0
M  V30 3 C 2.85183 0.560793 0.0940206 0
M  V30 4 C 3.10154 0.358393 -1.24689 0
M  V30 5 C 2.10936 -0.0238588 -2.1208 0
M  V30 6 C 0.836312 -0.20116 -1.60517 0
M  V30 7 C 0.543246 -0.0110631 -0.27945 0
M  V30 8 C 1.55728 0.370403 0.56559 0
M  V30 9 C -0.829364 -0.214657 0.211814 0
M  V30 10 C -1.32628 -1.62554 0.0101018 0
M  V30 11 N -2.50464 -1.82309 0.843244 0
M  V30 12 C -3.361 -0.660605 0.864334 0
M  V30 13 C -3.19701 0.11619 -0.430339 0
M  V30 14 C -1.801 0.738522 -0.428362 0
M  V30 15 N -4.13645 1.16299 -0.551607 0
M  V30 16 H 5.29109 -0.608961 0.888897 0
M  V30 17 H 4.87681 -0.162752 2.51168 0
M  V30 18 H 4.71987 1.49518 0.418086 0
M  V30 19 H 3.57903 1.628 1.83276 0
M  V30 20 H 4.12134 0.515101 -1.58322 0
M  V30 21 H 2.35122 -0.170645 -3.1621 0
M  V30 22 H 0.0665712 -0.496445 -2.2765 0
M  V30 23 H 1.32385 0.519834 1.61115 0
M  V30 24 H -0.83777 -0.00841509 1.30022 0
M  V30 25 H -1.58161 -1.7839 -1.05765 0
M  V30 26 H -0.584227 -2.38709 0.305141 0
M  V30 27 H -2.26115 -2.04683 1.82322 0
M  V30 28 H -3.13022 0.0361934 1.6965 0
M  V30 29 H -4.44272 -0.943238 0.920136 0
M  V30 30 H -3.3291 -0.602961 -1.25114 0
M  V30 31 H -1.57021 0.95343 -1.48823 0
M  V30 32 H -1.85239 1.67363 0.167373 0
M  V30 33 H -5.0619 0.934443 -0.917772 0
M  V30 34 H -4.03714 1.97218 0.042579 0
M  V30 END ATOM
M  V30 BEGIN BOND
M  V30 1 1 1 2
M  V30 2 1 2 3
M  V30 3 2 3 4
M  V30 4 1 4 5
M  V30 5 2 5 6
M  V30 6 1 6 7
M  V30 7 2 7 8
M  V30 8 1 7 9
M  V30 9 1 9 10
M  V30 10 1 10 11
M  V30 11 1 11 12
M  V30 12 1 12 13
M  V30 13 1 13 14
M  V30 14 1 13 15
M  V30 15 1 8 3
M  V30 16 1 14 9
M  V30 17 1 1 16
M  V30 18 1 1 17
M  V30 19 1 2 18
M  V30 20 1 2 19
M  V30 21 1 4 20
M  V30 22 1 5 21
M  V30 23 1 6 22
M  V30 24 1 8 23
M  V30 25 1 9 24
M  V30 26 1 10 25
M  V30 27 1 10 26
M  V30 28 1 11 27
M  V30 29 1 12 28
M  V30 30 1 12 29
M  V30 31 1 13 30
M  V30 32 1 14 31
M  V30 33 1 14 32
M  V30 34 1 15 33
M  V30 35 1 15 34
M  V30 END BOND
M  V30 END CTAB
M  END
