
     RDKit          3D

  0  0  0  0  0  0  0  0  0  0999 V3000
M  V30 BEGIN CTAB
M  V30 COUNTS 27 27 0 0 0
M  V30 BEGIN ATOM
M  V30 1 N -2.79108 0.443823 1.41152 0
M  V30 2 C -1.91916 0.707446 0.303365 0
M  V30 3 C -0.967192 -0.44879 0.062782 0
M  V30 4 C -1.71693 -1.71097 -0.238532 0
M  V30 5 C -0.00679057 -0.608512 1.23047 0
M  V30 6 C 1.04904 0.442508 0.85477 0
M  V30 7 N 1.1499 0.219817 -0.522614 0
M  V30 8 C -0.0688847 -0.0782374 -1.11818 0
M  V30 9 S 2.39073 0.885337 -1.39008 0
M  V30 10 O 2.44181 2.39562 -1.25703 0
M  V30 11 O 2.24764 0.557664 -2.84911 0
M  V30 12 N 3.9002 0.258623 -0.773918 0
M  V30 13 H -2.37386 0.572227 2.34024 0
M  V30 14 H -3.63974 1.05274 1.36905 0
M  V30 15 H -2.54883 0.791597 -0.607574 0
M  V30 16 H -1.31875 1.62458 0.425736 0
M  V30 17 H -1.45695 -2.06959 -1.25656 0
M  V30 18 H -2.79547 -1.51065 -0.157892 0
M  V30 19 H -1.46296 -2.48734 0.512923 0
M  V30 20 H -0.463551 -0.397208 2.19819 0
M  V30 21 H 0.491355 -1.58729 1.14885 0
M  V30 22 H 1.99649 0.254906 1.37388 0
M  V30 23 H 0.663749 1.46285 1.09095 0
M  V30 24 H 0.0503617 -1.01022 -1.74221 0
M  V30 25 H -0.545395 0.705384 -1.73326 0
M  V30 26 H 3.8934 -0.789895 -0.956182 0
M  V30 27 H 3.80087 0.323581 0.280412 0
M  V30 END ATOM
M  V30 BEGIN BOND
M  V30 1 1 1 2
M  V30 2 1 2 3
M  V30 3 1 3 4
M  V30 4 1 3 5
M  V30 5 1 5 6
M  V30 6 1 6 7
M  V30 7 1 7 8
M  V30 8 1 7 9
M  V30 9 2 9 10
M  V30 10 2 9 11
M  V30 11 1 9 12
M  V30 12 1 8 3
M  V30 13 1 1 13
M  V30 14 1 1 14
M  V30 15 1 2 15
M  V30 16 1 2 16
M  V30 17 1 4 17
M  V30 18 1 4 18
M  V30 19 1 4 19
M  V30 20 1 5 20
M  V30 21 1 5 21
M  V30 22 1 6 22
M  V30 23 1 6 23
M  V30 24 1 8 24
M  V30 25 1 8 25
M  V30 26 1 12 26
M  V30 27 1 12 27
M  V30 END BOND
M  V30 END CTAB
M  END
