
     RDKit          3D

  0  0  0  0  0  0  0  0  0  0999 V3000
M  V30 BEGIN CTAB
M  V30 COUNTS 33 35 0 0 0
M  V30 BEGIN ATOM
M  V30 1 F -7.04547 1.52215 -1.89343 0
M  V30 2 C -5.84443 1.10602 -1.42337 0
M  V30 3 C -5.2168 1.81659 -0.422594 0
M  V30 4 C -3.98146 1.40908 0.0769784 0
M  V30 5 C -3.34318 0.291091 -0.403547 0
M  V30 6 C -3.97585 -0.424633 -1.41182 0
M  V30 7 C -5.20514 -0.0188975 -1.90879 0
M  V30 8 C -2.04756 -0.153992 0.10175 0
M  V30 9 C -1.2978 0.443642 1.07575 0
M  V30 10 N -0.185108 -0.306241 1.21599 0
M  V30 11 C -0.249739 -1.32197 0.363094 0
M  V30 12 O -1.38137 -1.20539 -0.294819 0
M  V30 13 S 0.869079 -2.66051 0.038107 0
M  V30 14 C 2.30833 -2.52332 1.08143 0
M  V30 15 C 3.09795 -1.33367 0.68659 0
M  V30 16 N 4.0525 -1.48403 -0.280373 0
M  V30 17 C 4.81062 -0.454465 -0.684742 0
M  V30 18 N 5.81451 -0.623407 -1.70612 0
M  V30 19 N 4.5938 0.731872 -0.100381 0
M  V30 20 C 3.66558 0.915163 0.851625 0
M  V30 21 N 2.92304 -0.138521 1.23338 0
M  V30 22 N 3.44045 2.17628 1.46724 0
M  V30 23 H -5.68914 2.70708 -0.0158763 0
M  V30 24 H -3.47365 1.96487 0.871726 0
M  V30 25 H -3.4525 -1.3018 -1.77402 0
M  V30 26 H -5.64578 -0.608265 -2.68493 0
M  V30 27 H -1.55464 1.3526 1.63032 0
M  V30 28 H 2.06905 -2.38713 2.16021 0
M  V30 29 H 2.95816 -3.4349 1.05332 0
M  V30 30 H 5.84652 -1.49578 -2.23739 0
M  V30 31 H 6.48028 0.164637 -1.86577 0
M  V30 32 H 2.54295 2.68359 1.2059 0
M  V30 33 H 4.11682 2.59226 2.14329 0
M  V30 END ATOM
M  V30 BEGIN BOND
M  V30 1 1 1 2
M  V30 2 2 2 3
M  V30 3 1 3 4
M  V30 4 2 4 5
M  V30 5 1 5 6
M  V30 6 2 6 7
M  V30 7 1 5 8
M  V30 8 2 8 9
M  V30 9 1 9 10
M  V30 10 2 10 11
M  V30 11 1 11 12
M  V30 12 1 11 13
M  V30 13 1 13 14
M  V30 14 1 14 15
M  V30 15 2 15 16
M  V30 16 1 16 17
M  V30 17 1 17 18
M  V30 18 2 17 19
M  V30 19 1 19 20
M  V30 20 2 20 21
M  V30 21 1 20 22
M  V30 22 1 7 2
M  V30 23 1 12 8
M  V30 24 1 21 15
M  V30 25 1 3 23
M  V30 26 1 4 24
M  V30 27 1 6 25
M  V30 28 1 7 26
M  V30 29 1 9 27
M  V30 30 1 14 28
M  V30 31 1 14 29
M  V30 32 1 18 30
M  V30 33 1 18 31
M  V30 34 1 22 32
M  V30 35 1 22 33
M  V30 END BOND
M  V30 END CTAB
M  END
