
     RDKit          3D

  0  0  0  0  0  0  0  0  0  0999 V3000
M  V30 BEGIN CTAB
M  V30 COUNTS 23 23 0 0 0
M  V30 BEGIN ATOM
M  V30 1 N -2.04459 -0.869443 -0.253929 0
M  V30 2 C -0.676259 -1.06177 -0.598511 0
M  V30 3 C 0.252454 -0.101676 0.181725 0
M  V30 4 C 0.105047 -0.337559 1.66034 0
M  V30 5 C 1.58649 -0.429863 -0.32812 0
M  V30 6 N 2.03592 0.58631 -0.957695 0
M  V30 7 C 1.13106 1.67066 -0.962027 0
M  V30 8 O 1.30339 2.81823 -1.5114 0
M  V30 9 N 0.00137666 1.22451 -0.236076 0
M  V30 10 C -1.14902 2.09686 -0.0358287 0
M  V30 11 N 2.31938 -1.65921 -0.181964 0
M  V30 12 H -2.61765 -1.27017 -1.05445 0
M  V30 13 H -2.35658 -1.40193 0.587203 0
M  V30 14 H -0.310906 -2.09294 -0.51752 0
M  V30 15 H -0.546796 -0.758899 -1.66563 0
M  V30 16 H -0.605349 -1.16327 1.87775 0
M  V30 17 H -0.278369 0.545606 2.21009 0
M  V30 18 H 1.05772 -0.618187 2.15531 0
M  V30 19 H -1.75357 1.8272 0.820759 0
M  V30 20 H -0.855123 3.1627 0.0569408 0
M  V30 21 H -1.77135 2.02103 -0.952779 0
M  V30 22 H 2.89035 -1.98164 -0.972548 0
M  V30 23 H 2.28236 -2.20654 0.678368 0
M  V30 END ATOM
M  V30 BEGIN BOND
M  V30 1 1 1 2
M  V30 2 1 2 3
M  V30 3 1 3 4
M  V30 4 1 3 5
M  V30 5 2 5 6
M  V30 6 1 6 7
M  V30 7 2 7 8
M  V30 8 1 7 9
M  V30 9 1 9 10
M  V30 10 1 5 11
M  V30 11 1 9 3
M  V30 12 1 1 12
M  V30 13 1 1 13
M  V30 14 1 2 14
M  V30 15 1 2 15
M  V30 16 1 4 16
M  V30 17 1 4 17
M  V30 18 1 4 18
M  V30 19 1 10 19
M  V30 20 1 10 20
M  V30 21 1 10 21
M  V30 22 1 11 22
M  V30 23 1 11 23
M  V30 END BOND
M  V30 END CTAB
M  END
