
     RDKit          3D

  0  0  0  0  0  0  0  0  0  0999 V3000
M  V30 BEGIN CTAB
M  V30 COUNTS 24 24 0 0 0
M  V30 BEGIN ATOM
M  V30 1 N -0.217394 1.94166 1.03378 0
M  V30 2 C 0.120791 0.538959 0.728758 0
M  V30 3 C -0.70969 0.0824644 -0.418687 0
M  V30 4 O -0.346919 -0.0551828 -1.68222 0
M  V30 5 C -1.36776 -0.479224 -2.38112 0
M  V30 6 N -2.44645 -0.635895 -1.58924 0
M  V30 7 C -2.02767 -0.278091 -0.338365 0
M  V30 8 C -2.87872 -0.2858 0.837352 0
M  V30 9 O -2.4828 0.0822952 1.98114 0
M  V30 10 O -4.18393 -0.705168 0.748642 0
M  V30 11 C 1.58517 0.566464 0.35143 0
M  V30 12 C 2.08636 -0.823468 0.0188078 0
M  V30 13 N 3.48976 -0.773213 -0.342763 0
M  V30 14 H -0.317517 2.39774 0.096451 0
M  V30 15 H 0.556372 2.373 1.59329 0
M  V30 16 H -0.0534727 -0.0481205 1.63672 0
M  V30 17 H -1.2714 -0.657624 -3.46163 0
M  V30 18 H -4.85172 -0.382921 0.0640491 0
M  V30 19 H 1.70509 1.20621 -0.54047 0
M  V30 20 H 2.18568 0.992022 1.17762 0
M  V30 21 H 2.06062 -1.43279 0.97181 0
M  V30 22 H 1.49741 -1.31941 -0.748555 0
M  V30 23 H 4.09716 -0.569604 0.482798 0
M  V30 24 H 3.77104 -1.73431 -0.669592 0
M  V30 END ATOM
M  V30 BEGIN BOND
M  V30 1 1 1 2
M  V30 2 1 2 3
M  V30 3 1 3 4
M  V30 4 1 4 5
M  V30 5 2 5 6
M  V30 6 1 6 7
M  V30 7 1 7 8
M  V30 8 2 8 9
M  V30 9 1 8 10
M  V30 10 1 2 11
M  V30 11 1 11 12
M  V30 12 1 12 13
M  V30 13 2 7 3
M  V30 14 1 1 14
M  V30 15 1 1 15
M  V30 16 1 2 16
M  V30 17 1 5 17
M  V30 18 1 10 18
M  V30 19 1 11 19
M  V30 20 1 11 20
M  V30 21 1 12 21
M  V30 22 1 12 22
M  V30 23 1 13 23
M  V30 24 1 13 24
M  V30 END BOND
M  V30 END CTAB
M  END
