
     RDKit          3D

  0  0  0  0  0  0  0  0  0  0999 V3000
M  V30 BEGIN CTAB
M  V30 COUNTS 28 29 0 0 0
M  V30 BEGIN ATOM
M  V30 1 N 0.143273 -1.85356 -0.252776 0
M  V30 2 C 0.457754 -0.552984 0.310191 0
M  V30 3 C 1.89846 -0.268713 0.109328 0
M  V30 4 N 2.63718 -0.454282 -1.00297 0
M  V30 5 N 3.86577 -0.0750986 -0.763375 0
M  V30 6 C 3.91498 0.352962 0.500507 0
M  V30 7 N 2.70695 0.239239 1.05209 0
M  V30 8 N 5.03715 0.866467 1.22728 0
M  V30 9 C -0.313862 0.550542 -0.385641 0
M  V30 10 C -1.7859 0.361271 -0.263649 0
M  V30 11 C -2.49431 -0.356251 -1.19677 0
M  V30 12 C -3.8542 -0.513542 -1.05637 0
M  V30 13 C -4.51231 0.0440194 0.0148188 0
M  V30 14 C -3.80265 0.765029 0.953103 0
M  V30 15 C -2.44068 0.91752 0.804506 0
M  V30 16 H 0.867769 -2.52411 0.10185 0
M  V30 17 H 0.199413 -1.73867 -1.3006 0
M  V30 18 H 0.253379 -0.533225 1.397 0
M  V30 19 H 4.71126 -0.073336 -1.38591 0
M  V30 20 H 5.13144 1.89174 1.35272 0
M  V30 21 H 5.72422 0.206424 1.60838 0
M  V30 22 H -0.0769934 0.545384 -1.46219 0
M  V30 23 H -0.0141581 1.51095 0.050466 0
M  V30 24 H -1.98259 -0.801524 -2.04826 0
M  V30 25 H -4.44542 -1.08472 -1.79133 0
M  V30 26 H -5.58327 -0.103201 0.0883925 0
M  V30 27 H -4.35965 1.19203 1.78864 0
M  V30 28 H -1.88302 1.48963 1.55059 0
M  V30 END ATOM
M  V30 BEGIN BOND
M  V30 1 1 1 2
M  V30 2 1 2 3
M  V30 3 2 3 4
M  V30 4 1 4 5
M  V30 5 1 5 6
M  V30 6 2 6 7
M  V30 7 1 6 8
M  V30 8 1 2 9
M  V30 9 1 9 10
M  V30 10 2 10 11
M  V30 11 1 11 12
M  V30 12 2 12 13
M  V30 13 1 13 14
M  V30 14 2 14 15
M  V30 15 1 7 3
M  V30 16 1 15 10
M  V30 17 1 1 16
M  V30 18 1 1 17
M  V30 19 1 2 18
M  V30 20 1 5 19
M  V30 21 1 8 20
M  V30 22 1 8 21
M  V30 23 1 9 22
M  V30 24 1 9 23
M  V30 25 1 11 24
M  V30 26 1 12 25
M  V30 27 1 13 26
M  V30 28 1 14 27
M  V30 29 1 15 28
M  V30 END BOND
M  V30 END CTAB
M  END
