
     RDKit          3D

  0  0  0  0  0  0  0  0  0  0999 V3000
M  V30 BEGIN CTAB
M  V30 COUNTS 48 48 0 0 0
M  V30 BEGIN ATOM
M  V30 1 N -0.807986 2.41958 3.02579 0
M  V30 2 C -0.195121 2.04514 1.77522 0
M  V30 3 C -0.0833985 0.533245 1.68286 0
M  V30 4 N 0.507141 0.0973981 0.458793 0
M  V30 5 C -0.111178 -0.296838 -0.732561 0
M  V30 6 O 0.724998 -0.562922 -1.71424 0
M  V30 7 N -1.43938 -0.469189 -1.09313 0
M  V30 8 C -2.59576 -0.317326 -0.241201 0
M  V30 9 C -3.25686 0.86686 -0.120322 0
M  V30 10 C -4.38013 0.966143 0.657275 0
M  V30 11 C -4.84915 -0.147654 1.32754 0
M  V30 12 C -4.20872 -1.36446 1.23121 0
M  V30 13 C -3.0895 -1.42335 0.444488 0
M  V30 14 N -6.0177 -0.0557096 2.13994 0
M  V30 15 C -1.81454 -0.833446 -2.4298 0
M  V30 16 O -3.08346 -0.971487 -2.67348 0
M  V30 17 C -0.89976 -1.06072 -3.53347 0
M  V30 18 C 1.97189 0.0702964 0.48978 0
M  V30 19 O 2.62122 0.403935 1.50566 0
M  V30 20 O 2.66788 -0.325538 -0.605079 0
M  V30 21 C 4.06048 -0.39769 -0.70849 0
M  V30 22 C 4.76321 0.909969 -0.495819 0
M  V30 23 C 4.64463 -1.47214 0.200004 0
M  V30 24 C 4.37548 -0.84591 -2.13422 0
M  V30 25 H -0.19186 3.02262 3.61239 0
M  V30 26 H -1.77104 2.76381 2.93307 0
M  V30 27 H -0.803768 2.41492 0.949487 0
M  V30 28 H 0.824744 2.51755 1.71064 0
M  V30 29 H 0.601795 0.265407 2.55354 0
M  V30 30 H -1.04075 0.10878 1.96781 0
M  V30 31 H -2.90606 1.76598 -0.641701 0
M  V30 32 H -4.91571 1.93268 0.75334 0
M  V30 33 H -4.59146 -2.24451 1.76931 0
M  V30 34 H -2.55718 -2.37455 0.346543 0
M  V30 35 H -6.03939 -0.574928 3.02588 0
M  V30 36 H -6.83087 0.518994 1.85164 0
M  V30 37 H -1.5225 -1.29924 -4.45687 0
M  V30 38 H -0.209924 -1.91674 -3.40889 0
M  V30 39 H -0.326924 -0.149023 -3.78977 0
M  V30 40 H 4.67965 1.32188 0.508972 0
M  V30 41 H 4.42557 1.61335 -1.30373 0
M  V30 42 H 5.84739 0.729412 -0.714031 0
M  V30 43 H 4.822 -1.0893 1.22472 0
M  V30 44 H 5.64227 -1.72607 -0.214374 0
M  V30 45 H 4.03005 -2.37281 0.167159 0
M  V30 46 H 5.41089 -1.25171 -2.11912 0
M  V30 47 H 3.67931 -1.71078 -2.32374 0
M  V30 48 H 4.2395 -0.0339027 -2.85905 0
M  V30 END ATOM
M  V30 BEGIN BOND
M  V30 1 1 1 2
M  V30 2 1 2 3
M  V30 3 1 3 4
M  V30 4 1 4 5
M  V30 5 2 5 6
M  V30 6 1 5 7
M  V30 7 1 7 8
M  V30 8 2 8 9
M  V30 9 1 9 10
M  V30 10 2 10 11
M  V30 11 1 11 12
M  V30 12 2 12 13
M  V30 13 1 11 14
M  V30 14 1 7 15
M  V30 15 2 15 16
M  V30 16 1 15 17
M  V30 17 1 4 18
M  V30 18 2 18 19
M  V30 19 1 18 20
M  V30 20 1 20 21
M  V30 21 1 21 22
M  V30 22 1 21 23
M  V30 23 1 21 24
M  V30 24 1 13 8
M  V30 25 1 1 25
M  V30 26 1 1 26
M  V30 27 1 2 27
M  V30 28 1 2 28
M  V30 29 1 3 29
M  V30 30 1 3 30
M  V30 31 1 9 31
M  V30 32 1 10 32
M  V30 33 1 12 33
M  V30 34 1 13 34
M  V30 35 1 14 35
M  V30 36 1 14 36
M  V30 37 1 17 37
M  V30 38 1 17 38
M  V30 39 1 17 39
M  V30 40 1 22 40
M  V30 41 1 22 41
M  V30 42 1 22 42
M  V30 43 1 23 43
M  V30 44 1 23 44
M  V30 45 1 23 45
M  V30 46 1 24 46
M  V30 47 1 24 47
M  V30 48 1 24 48
M  V30 END BOND
M  V30 END CTAB
M  END
