
     RDKit          3D

  0  0  0  0  0  0  0  0  0  0999 V3000
M  V30 BEGIN CTAB
M  V30 COUNTS 30 33 0 0 0
M  V30 BEGIN ATOM
M  V30 1 N -4.83169 -0.55011 -0.167096 0
M  V30 2 N -3.43993 -0.387412 -0.118903 0
M  V30 3 C -2.8606 0.818272 0.0221808 0
M  V30 4 O -3.61023 1.82268 0.112365 0
M  V30 5 C -1.50461 1.02142 0.073882 0
M  V30 6 C -0.916959 2.25753 0.218386 0
M  V30 7 C 0.454842 2.44737 0.269021 0
M  V30 8 C 1.27568 1.33504 0.168944 0
M  V30 9 C 2.64836 1.45852 0.212546 0
M  V30 10 O 3.15472 2.61181 0.346434 0
M  V30 11 N 3.42757 0.37059 0.114144 0
M  V30 12 N 4.82637 0.516733 0.160736 0
M  V30 13 C 2.85074 -0.821141 -0.0254001 0
M  V30 14 O 3.58004 -1.84128 -0.117701 0
M  V30 15 C 1.49541 -1.00678 -0.0752267 0
M  V30 16 C 0.929226 -2.23722 -0.218645 0
M  V30 17 C -0.446645 -2.40101 -0.266605 0
M  V30 18 C -1.27313 -1.31246 -0.169188 0
M  V30 19 C -2.63629 -1.46916 -0.216109 0
M  V30 20 O -3.19595 -2.5941 -0.348171 0
M  V30 21 C -0.67637 -0.0781998 -0.0246796 0
M  V30 22 C 0.693269 0.0938339 0.0240166 0
M  V30 23 H -5.42719 -0.0204201 -0.839334 0
M  V30 24 H -5.31465 -1.21364 0.47624 0
M  V30 25 H -1.57029 3.11955 0.295558 0
M  V30 26 H 0.895707 3.43873 0.384243 0
M  V30 27 H 5.41504 -0.0735765 0.81447 0
M  V30 28 H 5.34966 1.19435 -0.427881 0
M  V30 29 H 1.56335 -3.10043 -0.296363 0
M  V30 30 H -0.855459 -3.3995 -0.381862 0
M  V30 END ATOM
M  V30 BEGIN BOND
M  V30 1 1 1 2
M  V30 2 1 2 3
M  V30 3 2 3 4
M  V30 4 1 3 5
M  V30 5 2 5 6
M  V30 6 1 6 7
M  V30 7 2 7 8
M  V30 8 1 8 9
M  V30 9 2 9 10
M  V30 10 1 9 11
M  V30 11 1 11 12
M  V30 12 1 11 13
M  V30 13 2 13 14
M  V30 14 1 13 15
M  V30 15 2 15 16
M  V30 16 1 16 17
M  V30 17 2 17 18
M  V30 18 1 18 19
M  V30 19 2 19 20
M  V30 20 1 18 21
M  V30 21 2 21 22
M  V30 22 1 19 2
M  V30 23 1 21 5
M  V30 24 1 22 8
M  V30 25 1 22 15
M  V30 26 1 1 23
M  V30 27 1 1 24
M  V30 28 1 6 25
M  V30 29 1 7 26
M  V30 30 1 12 27
M  V30 31 1 12 28
M  V30 32 1 16 29
M  V30 33 1 17 30
M  V30 END BOND
M  V30 END CTAB
M  END
