
     RDKit          3D

  0  0  0  0  0  0  0  0  0  0999 V3000
M  V30 BEGIN CTAB
M  V30 COUNTS 24 24 0 0 0
M  V30 BEGIN ATOM
M  V30 1 N 2.73091 1.73778 -1.06727 0
M  V30 2 C 1.87859 0.785683 -0.476105 0
M  V30 3 C 0.593044 1.1312 -0.159625 0
M  V30 4 I 0.0291748 3.16672 -0.473698 0
M  V30 5 C -0.331917 0.239664 0.323863 0
M  V30 6 C -1.67299 0.719111 0.693604 0
M  V30 7 O -1.84079 2.08436 0.753455 0
M  V30 8 C -2.61631 -0.0100559 -0.251443 0
M  V30 9 O -3.93518 0.109154 0.0217017 0
M  V30 10 C 0.0497489 -1.04017 0.505764 0
M  V30 11 I -1.21959 -2.47734 1.38179 0
M  V30 12 C 1.33443 -1.46824 0.213473 0
M  V30 13 N 1.68575 -2.81249 0.407708 0
M  V30 14 C 2.23164 -0.530813 -0.28014 0
M  V30 15 I 4.18802 -1.16863 -0.786019 0
M  V30 16 H 2.55135 1.98346 -2.08468 0
M  V30 17 H 3.52158 2.13487 -0.543074 0
M  V30 18 H -1.90398 0.247744 1.71608 0
M  V30 19 H -1.75393 2.30731 1.74853 0
M  V30 20 H -2.46972 0.532825 -1.28054 0
M  V30 21 H -2.24882 -0.993781 -0.477607 0
M  V30 22 H -4.44867 -0.044206 -0.837284 0
M  V30 23 H 1.55194 -3.48679 -0.344167 0
M  V30 24 H 2.09571 -3.14736 1.29568 0
M  V30 END ATOM
M  V30 BEGIN BOND
M  V30 1 1 1 2
M  V30 2 2 2 3
M  V30 3 1 3 4
M  V30 4 1 3 5
M  V30 5 1 5 6
M  V30 6 1 6 7
M  V30 7 1 6 8
M  V30 8 1 8 9
M  V30 9 2 5 10
M  V30 10 1 10 11
M  V30 11 1 10 12
M  V30 12 1 12 13
M  V30 13 2 12 14
M  V30 14 1 14 15
M  V30 15 1 14 2
M  V30 16 1 1 16
M  V30 17 1 1 17
M  V30 18 1 6 18
M  V30 19 1 7 19
M  V30 20 1 8 20
M  V30 21 1 8 21
M  V30 22 1 9 22
M  V30 23 1 13 23
M  V30 24 1 13 24
M  V30 END BOND
M  V30 END CTAB
M  END
