
     RDKit          3D

  0  0  0  0  0  0  0  0  0  0999 V3000
M  V30 BEGIN CTAB
M  V30 COUNTS 40 41 0 0 0
M  V30 BEGIN ATOM
M  V30 1 C -1.94183 1.44736 -1.56236 0
M  V30 2 C -2.49592 0.652529 -0.391167 0
M  V30 3 C -2.54699 -0.825387 -0.812811 0
M  V30 4 N -3.83058 1.02434 -0.0617468 0
M  V30 5 C -4.2701 1.46525 1.05771 0
M  V30 6 N -5.66382 1.77556 1.15476 0
M  V30 7 N -3.38274 1.63477 2.15672 0
M  V30 8 C -2.14675 1.3241 1.95403 0
M  V30 9 N -1.17799 1.46797 3.02251 0
M  V30 10 N -1.62172 0.835999 0.735011 0
M  V30 11 O -0.284355 0.540252 0.613841 0
M  V30 12 C 0.0772323 -0.638499 1.20162 0
M  V30 13 C 1.58609 -0.807179 0.976964 0
M  V30 14 C 1.85269 -0.837254 -0.531693 0
M  V30 15 C 3.30365 -0.999484 -0.776731 0
M  V30 16 C 4.12166 0.0933151 -0.893021 0
M  V30 17 C 5.46343 -0.0988849 -1.12038 0
M  V30 18 N 5.96609 -1.33725 -1.22708 0
M  V30 19 C 5.19267 -2.44216 -1.11845 0
M  V30 20 C 3.86063 -2.26611 -0.893008 0
M  V30 21 H -1.36121 0.756131 -2.20805 0
M  V30 22 H -2.73241 1.9734 -2.12468 0
M  V30 23 H -1.18489 2.1951 -1.1859 0
M  V30 24 H -2.70596 -1.49479 0.0430703 0
M  V30 25 H -1.64169 -1.10074 -1.38777 0
M  V30 26 H -3.40497 -0.993471 -1.5009 0
M  V30 27 H -6.01992 2.74826 1.24499 0
M  V30 28 H -6.35933 1.00702 1.13555 0
M  V30 29 H -0.484477 2.24596 3.00025 0
M  V30 30 H -1.14349 0.812534 3.83087 0
M  V30 31 H -0.192077 -0.783251 2.24383 0
M  V30 32 H -0.382887 -1.48005 0.612104 0
M  V30 33 H 1.96555 -1.7207 1.45883 0
M  V30 34 H 2.15077 0.0618391 1.36621 0
M  V30 35 H 1.51771 0.137537 -0.951064 0
M  V30 36 H 1.26944 -1.64806 -1.01726 0
M  V30 37 H 3.72716 1.0812 -0.808994 0
M  V30 38 H 6.08083 0.793776 -1.2069 0
M  V30 39 H 5.60505 -3.44827 -1.2058 0
M  V30 40 H 3.2354 -3.15264 -0.805076 0
M  V30 END ATOM
M  V30 BEGIN BOND
M  V30 1 1 1 2
M  V30 2 1 2 3
M  V30 3 1 2 4
M  V30 4 2 4 5
M  V30 5 1 5 6
M  V30 6 1 5 7
M  V30 7 2 7 8
M  V30 8 1 8 9
M  V30 9 1 8 10
M  V30 10 1 10 11
M  V30 11 1 11 12
M  V30 12 1 12 13
M  V30 13 1 13 14
M  V30 14 1 14 15
M  V30 15 2 15 16
M  V30 16 1 16 17
M  V30 17 2 17 18
M  V30 18 1 18 19
M  V30 19 2 19 20
M  V30 20 1 10 2
M  V30 21 1 20 15
M  V30 22 1 1 21
M  V30 23 1 1 22
M  V30 24 1 1 23
M  V30 25 1 3 24
M  V30 26 1 3 25
M  V30 27 1 3 26
M  V30 28 1 6 27
M  V30 29 1 6 28
M  V30 30 1 9 29
M  V30 31 1 9 30
M  V30 32 1 12 31
M  V30 33 1 12 32
M  V30 34 1 13 33
M  V30 35 1 13 34
M  V30 36 1 14 35
M  V30 37 1 14 36
M  V30 38 1 16 37
M  V30 39 1 17 38
M  V30 40 1 19 39
M  V30 41 1 20 40
M  V30 END BOND
M  V30 END CTAB
M  END
