
     RDKit          3D

  0  0  0  0  0  0  0  0  0  0999 V3000
M  V30 BEGIN CTAB
M  V30 COUNTS 20 20 0 0 0
M  V30 BEGIN ATOM
M  V30 1 N -0.821565 -2.1543 -0.726783 0
M  V30 2 C -1.13149 -0.981385 0.00189194 0
M  V30 3 C -2.3563 -0.818834 0.621711 0
M  V30 4 C -2.58434 0.364495 1.31966 0
M  V30 5 C -1.63433 1.36227 1.4067 0
M  V30 6 N -0.457813 1.15705 0.786523 0
M  V30 7 C -0.187364 0.0209318 0.0938021 0
M  V30 8 N 1.06472 -0.173355 -0.554045 0
M  V30 9 S 2.30814 1.02148 -0.496339 0
M  V30 10 O 3.08808 0.946899 -1.77022 0
M  V30 11 O 1.72 2.40106 -0.325452 0
M  V30 12 N 3.31725 0.720546 0.869506 0
M  V30 13 H -0.537095 -3.05807 -0.306455 0
M  V30 14 H -0.881736 -2.11386 -1.76576 0
M  V30 15 H -3.0952 -1.60381 0.549503 0
M  V30 16 H -3.53292 0.501164 1.80513 0
M  V30 17 H -1.86828 2.25544 1.96065 0
M  V30 18 H 1.27161 -1.04416 -1.08385 0
M  V30 19 H 3.16453 1.41702 1.61716 0
M  V30 20 H 3.1541 -0.220582 1.28003 0
M  V30 END ATOM
M  V30 BEGIN BOND
M  V30 1 1 1 2
M  V30 2 2 2 3
M  V30 3 1 3 4
M  V30 4 2 4 5
M  V30 5 1 5 6
M  V30 6 2 6 7
M  V30 7 1 7 8
M  V30 8 1 8 9
M  V30 9 2 9 10
M  V30 10 2 9 11
M  V30 11 1 9 12
M  V30 12 1 7 2
M  V30 13 1 1 13
M  V30 14 1 1 14
M  V30 15 1 3 15
M  V30 16 1 4 16
M  V30 17 1 5 17
M  V30 18 1 8 18
M  V30 19 1 12 19
M  V30 20 1 12 20
M  V30 END BOND
M  V30 END CTAB
M  END
