
     RDKit          3D

  0  0  0  0  0  0  0  0  0  0999 V3000
M  V30 BEGIN CTAB
M  V30 COUNTS 40 43 0 0 0
M  V30 BEGIN ATOM
M  V30 1 N 9.05497 1.86203 0.436497 0
M  V30 2 C 7.76336 2.42258 0.739116 0
M  V30 3 C 6.69027 1.43481 0.349052 0
M  V30 4 C 6.85667 0.193536 -0.205975 0
M  V30 5 C 5.75487 -0.514866 -0.471496 0
M  V30 6 C 4.55428 0.0546824 -0.168696 0
M  V30 7 S 4.99563 1.56742 0.480136 0
M  V30 8 C 3.19958 -0.514483 -0.361928 0
M  V30 9 C 2.86177 -1.72844 -0.883308 0
M  V30 10 C 1.55541 -2.02173 -0.956841 0
M  V30 11 C 0.680296 -1.09422 -0.509976 0
M  V30 12 S 1.68503 0.18015 0.009519 0
M  V30 13 C -0.798641 -1.13326 -0.463915 0
M  V30 14 C -1.62475 -2.14196 -0.873835 0
M  V30 15 C -2.94148 -1.94565 -0.730853 0
M  V30 16 C -3.34677 -0.77335 -0.196046 0
M  V30 17 S -1.88763 0.0521541 0.105928 0
M  V30 18 C -4.71652 -0.281598 0.0795937 0
M  V30 19 C -5.88313 -0.925156 -0.154595 0
M  V30 20 C -7.02248 -0.284213 0.177036 0
M  V30 21 C -6.89629 0.96344 0.722361 0
M  V30 22 C -8.001 1.88653 1.17705 0
M  V30 23 N -8.25434 1.58519 2.56868 0
M  V30 24 S -5.2088 1.20155 0.755311 0
M  V30 25 H 9.0981 0.910343 0.854153 0
M  V30 26 H 9.22285 1.84034 -0.609574 0
M  V30 27 H 7.5897 3.40913 0.298782 0
M  V30 28 H 7.69716 2.47088 1.86136 0
M  V30 29 H 7.88878 -0.169793 -0.410537 0
M  V30 30 H 5.78 -1.53144 -0.921288 0
M  V30 31 H 3.65802 -2.4221 -1.22358 0
M  V30 32 H 1.17596 -2.98803 -1.36712 0
M  V30 33 H -1.1819 -3.06387 -1.29972 0
M  V30 34 H -3.70181 -2.70406 -1.03311 0
M  V30 35 H -5.90415 -1.94542 -0.604038 0
M  V30 36 H -8.04638 -0.703778 0.0356199 0
M  V30 37 H -8.88351 1.74612 0.546519 0
M  V30 38 H -7.59295 2.90846 1.102 0
M  V30 39 H -7.32388 1.62825 3.06004 0
M  V30 40 H -8.5463 0.569825 2.6398 0
M  V30 END ATOM
M  V30 BEGIN BOND
M  V30 1 1 1 2
M  V30 2 1 2 3
M  V30 3 2 3 4
M  V30 4 1 4 5
M  V30 5 2 5 6
M  V30 6 1 6 7
M  V30 7 1 6 8
M  V30 8 2 8 9
M  V30 9 1 9 10
M  V30 10 2 10 11
M  V30 11 1 11 12
M  V30 12 1 11 13
M  V30 13 2 13 14
M  V30 14 1 14 15
M  V30 15 2 15 16
M  V30 16 1 16 17
M  V30 17 1 16 18
M  V30 18 2 18 19
M  V30 19 1 19 20
M  V30 20 2 20 21
M  V30 21 1 21 22
M  V30 22 1 22 23
M  V30 23 1 21 24
M  V30 24 1 7 3
M  V30 25 1 12 8
M  V30 26 1 17 13
M  V30 27 1 24 18
M  V30 28 1 1 25
M  V30 29 1 1 26
M  V30 30 1 2 27
M  V30 31 1 2 28
M  V30 32 1 4 29
M  V30 33 1 5 30
M  V30 34 1 9 31
M  V30 35 1 10 32
M  V30 36 1 14 33
M  V30 37 1 15 34
M  V30 38 1 19 35
M  V30 39 1 20 36
M  V30 40 1 22 37
M  V30 41 1 22 38
M  V30 42 1 23 39
M  V30 43 1 23 40
M  V30 END BOND
M  V30 END CTAB
M  END
