
     RDKit          3D

  0  0  0  0  0  0  0  0  0  0999 V3000
M  V30 BEGIN CTAB
M  V30 COUNTS 30 30 0 0 0
M  V30 BEGIN ATOM
M  V30 1 C -4.0818 0.0913972 -1.12168 0
M  V30 2 C -3.09305 -0.825974 -0.436533 0
M  V30 3 C -1.75282 -0.076396 -0.425075 0
M  V30 4 N -0.739244 -0.861629 0.205853 0
M  V30 5 C 0.631367 -0.462526 0.109036 0
M  V30 6 C 0.984948 0.630323 -0.641386 0
M  V30 7 C 2.31578 1.03689 -0.730466 0
M  V30 8 C 3.26099 0.308138 -0.0435507 0
M  V30 9 C 2.8625 -0.793229 0.705385 0
M  V30 10 N 1.58617 -1.17251 0.783301 0
M  V30 11 N 3.88239 -1.50709 1.39277 0
M  V30 12 N 4.61195 0.681331 -0.104861 0
M  V30 13 C -2.00814 1.13731 0.462835 0
M  V30 14 O -2.44451 0.589016 1.69762 0
M  V30 15 H -4.47961 0.875138 -0.442647 0
M  V30 16 H -3.53875 0.60784 -1.93569 0
M  V30 17 H -4.96775 -0.471142 -1.49743 0
M  V30 18 H -3.4601 -1.02403 0.576942 0
M  V30 19 H -3.03325 -1.74462 -1.04248 0
M  V30 20 H -1.50221 0.155278 -1.4481 0
M  V30 21 H -0.964134 -1.73549 0.747272 0
M  V30 22 H 0.213795 1.18498 -1.18719 0
M  V30 23 H 2.54286 1.90339 -1.33338 0
M  V30 24 H 4.66282 -1.95751 0.871699 0
M  V30 25 H 3.86934 -1.59345 2.42727 0
M  V30 26 H 4.93922 1.52034 0.421989 0
M  V30 27 H 5.28239 0.14228 -0.659366 0
M  V30 28 H -1.07655 1.63707 0.693104 0
M  V30 29 H -2.72215 1.84048 0.042038 0
M  V30 30 H -1.78245 -0.115614 1.91271 0
M  V30 END ATOM
M  V30 BEGIN BOND
M  V30 1 1 1 2
M  V30 2 1 2 3
M  V30 3 1 3 4
M  V30 4 1 4 5
M  V30 5 2 5 6
M  V30 6 1 6 7
M  V30 7 2 7 8
M  V30 8 1 8 9
M  V30 9 2 9 10
M  V30 10 1 9 11
M  V30 11 1 8 12
M  V30 12 1 3 13
M  V30 13 1 13 14
M  V30 14 1 10 5
M  V30 15 1 1 15
M  V30 16 1 1 16
M  V30 17 1 1 17
M  V30 18 1 2 18
M  V30 19 1 2 19
M  V30 20 1 3 20
M  V30 21 1 4 21
M  V30 22 1 6 22
M  V30 23 1 7 23
M  V30 24 1 11 24
M  V30 25 1 11 25
M  V30 26 1 12 26
M  V30 27 1 12 27
M  V30 28 1 13 28
M  V30 29 1 13 29
M  V30 30 1 14 30
M  V30 END BOND
M  V30 END CTAB
M  END
