
     RDKit          3D

  0  0  0  0  0  0  0  0  0  0999 V3000
M  V30 BEGIN CTAB
M  V30 COUNTS 27 28 0 0 0
M  V30 BEGIN ATOM
M  V30 1 N -4.81688 -0.97133 0.436479 0
M  V30 2 C -3.52398 -0.370029 0.364078 0
M  V30 3 N -2.83282 -0.360887 -0.783384 0
M  V30 4 C -1.58954 0.204179 -0.901643 0
M  V30 5 N -0.898344 0.199882 -2.12262 0
M  V30 6 C -0.99223 0.797219 0.182984 0
M  V30 7 C 0.334169 1.42605 0.184474 0
M  V30 8 C 1.48523 0.538408 0.229066 0
M  V30 9 C 1.8758 -0.0921262 1.3927 0
M  V30 10 C 2.99723 -0.929895 1.42026 0
M  V30 11 C 3.73959 -1.14551 0.28383 0
M  V30 12 Br 5.27947 -2.30201 0.341901 0
M  V30 13 C 3.3557 -0.520681 -0.875965 0
M  V30 14 C 2.24383 0.305112 -0.88583 0
M  V30 15 C -1.73245 0.777371 1.37564 0
M  V30 16 N -2.947 0.208652 1.43148 0
M  V30 17 H -5.45785 -1.07169 -0.377651 0
M  V30 18 H -5.15395 -1.33611 1.3509 0
M  V30 19 H -0.363549 -0.64339 -2.40182 0
M  V30 20 H -0.920295 1.02797 -2.73987 0
M  V30 21 H 0.350569 2.10984 -0.720691 0
M  V30 22 H 0.337051 2.17611 1.03299 0
M  V30 23 H 1.29037 0.0767827 2.29251 0
M  V30 24 H 3.2956 -1.42482 2.35388 0
M  V30 25 H 3.93308 -0.685163 -1.77072 0
M  V30 26 H 2.01058 0.768953 -1.82858 0
M  V30 27 H -1.29937 1.23712 2.26677 0
M  V30 END ATOM
M  V30 BEGIN BOND
M  V30 1 1 1 2
M  V30 2 2 2 3
M  V30 3 1 3 4
M  V30 4 1 4 5
M  V30 5 2 4 6
M  V30 6 1 6 7
M  V30 7 1 7 8
M  V30 8 2 8 9
M  V30 9 1 9 10
M  V30 10 2 10 11
M  V30 11 1 11 12
M  V30 12 1 11 13
M  V30 13 2 13 14
M  V30 14 1 6 15
M  V30 15 2 15 16
M  V30 16 1 16 2
M  V30 17 1 14 8
M  V30 18 1 1 17
M  V30 19 1 1 18
M  V30 20 1 5 19
M  V30 21 1 5 20
M  V30 22 1 7 21
M  V30 23 1 7 22
M  V30 24 1 9 23
M  V30 25 1 10 24
M  V30 26 1 13 25
M  V30 27 1 14 26
M  V30 28 1 15 27
M  V30 END BOND
M  V30 END CTAB
M  END
