
     RDKit          3D

  0  0  0  0  0  0  0  0  0  0999 V3000
M  V30 BEGIN CTAB
M  V30 COUNTS 44 47 0 0 0
M  V30 BEGIN ATOM
M  V30 1 N -4.32385 2.84877 -1.14905 0
M  V30 2 C -3.1893 2.16065 -0.669306 0 CFG=2
M  V30 3 C -2.87055 0.860343 -1.35455 0
M  V30 4 C -3.5944 0.137136 -0.232292 0 CFG=2
M  V30 5 C -3.45283 1.38821 0.596991 0
M  V30 6 C -2.89055 -1.05021 0.28615 0
M  V30 7 C -1.55063 -1.00098 0.647181 0
M  V30 8 C -0.850293 -2.07764 1.13389 0
M  V30 9 N 0.525723 -2.036 1.48612 0
M  V30 10 C 1.28207 -0.838045 1.26241 0
M  V30 11 C 1.58563 -0.569782 -0.200983 0
M  V30 12 N 2.33387 0.664598 -0.285345 0
M  V30 13 N 1.84301 1.85765 -0.417252 0
M  V30 14 N 2.79792 2.77619 -0.463517 0
M  V30 15 C 3.96382 2.11803 -0.353616 0
M  V30 16 C 3.66976 0.753674 -0.238255 0
M  V30 17 C 4.67212 -0.180945 -0.109287 0
M  V30 18 C 5.99424 0.220269 -0.0919468 0
M  V30 19 C 6.32151 1.55484 -0.203148 0
M  V30 20 C 5.29559 2.4631 -0.330631 0
M  V30 21 N -1.55313 -3.24439 1.25411 0
M  V30 22 C -2.84717 -3.32045 0.91353 0
M  V30 23 N -3.51062 -2.23337 0.433553 0
M  V30 24 N -3.50048 -4.57648 1.07179 0
M  V30 25 H -4.19874 3.80574 -1.38391 0
M  V30 26 H -5.23577 2.50416 -0.881015 0
M  V30 27 H -2.30544 2.832 -0.649222 0
M  V30 28 H -3.40648 0.720873 -2.32843 0
M  V30 29 H -1.80666 0.623564 -1.46444 0
M  V30 30 H -4.6512 -0.039551 -0.47982 0
M  V30 31 H -4.39391 1.72228 1.08099 0
M  V30 32 H -2.63227 1.38167 1.33278 0
M  V30 33 H -1.0674 -0.0384429 0.538992 0
M  V30 34 H 0.968177 -2.901 1.91156 0
M  V30 35 H 2.26306 -0.874184 1.79117 0
M  V30 36 H 0.743252 0.0690774 1.63016 0
M  V30 37 H 0.69752 -0.576814 -0.847591 0
M  V30 38 H 2.2336 -1.41307 -0.589675 0
M  V30 39 H 4.45638 -1.233 -0.0198678 0
M  V30 40 H 6.7945 -0.500626 0.00865267 0
M  V30 41 H 7.37433 1.85763 -0.187777 0
M  V30 42 H 5.53215 3.51816 -0.419463 0
M  V30 43 H -3.74693 -5.2074 0.287315 0
M  V30 44 H -3.76964 -4.92623 2.03835 0
M  V30 END ATOM
M  V30 BEGIN BOND
M  V30 1 1 1 2
M  V30 2 1 2 3
M  V30 3 1 3 4
M  V30 4 1 4 5
M  V30 5 1 4 6
M  V30 6 2 6 7
M  V30 7 1 7 8
M  V30 8 1 8 9
M  V30 9 1 9 10
M  V30 10 1 10 11
M  V30 11 1 11 12
M  V30 12 1 12 13
M  V30 13 2 13 14
M  V30 14 1 14 15
M  V30 15 2 15 16
M  V30 16 1 16 17
M  V30 17 2 17 18
M  V30 18 1 18 19
M  V30 19 2 19 20
M  V30 20 2 8 21
M  V30 21 1 21 22
M  V30 22 2 22 23
M  V30 23 1 22 24
M  V30 24 1 5 2
M  V30 25 1 23 6
M  V30 26 1 16 12
M  V30 27 1 20 15
M  V30 28 1 1 25
M  V30 29 1 1 26
M  V30 30 1 2 27 CFG=1
M  V30 31 1 3 28
M  V30 32 1 3 29
M  V30 33 1 4 30 CFG=3
M  V30 34 1 5 31
M  V30 35 1 5 32
M  V30 36 1 7 33
M  V30 37 1 9 34
M  V30 38 1 10 35
M  V30 39 1 10 36
M  V30 40 1 11 37
M  V30 41 1 11 38
M  V30 42 1 17 39
M  V30 43 1 18 40
M  V30 44 1 19 41
M  V30 45 1 20 42
M  V30 46 1 24 43
M  V30 47 1 24 44
M  V30 END BOND
M  V30 END CTAB
M  END
