
     RDKit          3D

  0  0  0  0  0  0  0  0  0  0999 V3000
M  V30 BEGIN CTAB
M  V30 COUNTS 40 40 0 0 0
M  V30 BEGIN ATOM
M  V30 1 C -3.88042 -2.24625 -0.24484 0
M  V30 2 C -2.60353 -1.97031 0.5315 0
M  V30 3 C -2.66165 -0.652227 1.27007 0
M  V30 4 C -2.85399 0.5332 0.379054 0
M  V30 5 C -1.78209 0.746438 -0.635568 0
M  V30 6 N -0.487721 0.945647 0.0380872 0
M  V30 7 C 0.644784 0.180443 -0.313254 0
M  V30 8 O 0.559376 -0.684333 -1.21438 0
M  V30 9 C 1.92448 0.365629 0.345577 0
M  V30 10 C 2.13381 1.28484 1.34902 0
M  V30 11 C 3.37365 1.41424 1.93812 0
M  V30 12 F 3.55269 2.32785 2.92486 0
M  V30 13 C 4.44849 0.624716 1.54044 0
M  V30 14 C 4.26764 -0.303934 0.537902 0
M  V30 15 C 3.02363 -0.412001 -0.0312553 0
M  V30 16 N 2.87156 -1.38367 -1.06721 0
M  V30 17 N 5.35494 -1.13818 0.0999753 0 CHG=1
M  V30 18 O 5.44889 -1.53391 -1.07874 0
M  V30 19 O 6.34422 -1.53826 0.965965 0 CHG=-1
M  V30 20 C -2.13778 2.04367 -1.37529 0
M  V30 21 N -1.13051 2.28892 -2.3656 0
M  V30 22 H -4.62199 -1.46763 0.0184649 0
M  V30 23 H -3.70872 -2.22957 -1.35463 0
M  V30 24 H -4.28634 -3.26496 -0.0362213 0
M  V30 25 H -1.78565 -2.01208 -0.197549 0
M  V30 26 H -2.53722 -2.77741 1.29783 0
M  V30 27 H -3.49419 -0.75456 2.00249 0
M  V30 28 H -1.70578 -0.599805 1.85564 0
M  V30 29 H -3.84842 0.407269 -0.115381 0
M  V30 30 H -2.99641 1.41592 1.04994 0
M  V30 31 H -1.74601 -0.0869196 -1.34721 0
M  V30 32 H -0.418146 1.67158 0.790019 0
M  V30 33 H 1.34871 1.91945 1.69705 0
M  V30 34 H 5.43172 0.723018 2.00341 0
M  V30 35 H 2.76523 -2.40168 -0.869001 0
M  V30 36 H 2.8651 -1.07742 -2.05675 0
M  V30 37 H -3.12252 1.94492 -1.86337 0
M  V30 38 H -2.22037 2.84981 -0.627658 0
M  V30 39 H -1.21301 1.5956 -3.12782 0
M  V30 40 H -1.11645 3.25195 -2.71368 0
M  V30 END ATOM
M  V30 BEGIN BOND
M  V30 1 1 1 2
M  V30 2 1 2 3
M  V30 3 1 3 4
M  V30 4 1 4 5
M  V30 5 1 5 6
M  V30 6 1 6 7
M  V30 7 2 7 8
M  V30 8 1 7 9
M  V30 9 2 9 10
M  V30 10 1 10 11
M  V30 11 1 11 12
M  V30 12 2 11 13
M  V30 13 1 13 14
M  V30 14 2 14 15
M  V30 15 1 15 16
M  V30 16 1 14 17
M  V30 17 2 17 18
M  V30 18 1 17 19
M  V30 19 1 5 20
M  V30 20 1 20 21
M  V30 21 1 15 9
M  V30 22 1 1 22
M  V30 23 1 1 23
M  V30 24 1 1 24
M  V30 25 1 2 25
M  V30 26 1 2 26
M  V30 27 1 3 27
M  V30 28 1 3 28
M  V30 29 1 4 29
M  V30 30 1 4 30
M  V30 31 1 5 31
M  V30 32 1 6 32
M  V30 33 1 10 33
M  V30 34 1 13 34
M  V30 35 1 16 35
M  V30 36 1 16 36
M  V30 37 1 20 37
M  V30 38 1 20 38
M  V30 39 1 21 39
M  V30 40 1 21 40
M  V30 END BOND
M  V30 END CTAB
M  END
