
     RDKit          3D

  0  0  0  0  0  0  0  0  0  0999 V3000
M  V30 BEGIN CTAB
M  V30 COUNTS 142 147 0 0 0
M  V30 BEGIN ATOM
M  V30 1 C 6.47288 2.00668 -0.848966 0
M  V30 2 C 5.74159 2.33553 0.38435 0
M  V30 3 O 6.635 2.31075 1.4511 0
M  V30 4 C 4.5708 1.45816 0.720714 0 CFG=1
M  V30 5 N 3.5574 1.37779 -0.295543 0
M  V30 6 C 2.59455 2.29833 -0.712266 0
M  V30 7 O 2.73736 2.70722 -1.92776 0
M  V30 8 C 1.4393 2.89075 -0.0287502 0 CFG=2
M  V30 9 C 1.58187 3.4935 1.28582 0
M  V30 10 C 2.43364 4.64017 1.62023 0
M  V30 11 C 2.25613 5.97355 1.05194 0
M  V30 12 C 2.50196 6.14344 -0.401033 0
M  V30 13 N 3.8732 5.80868 -0.77297 0
M  V30 14 N 0.363346 1.84763 0.0822735 0
M  V30 15 C -0.668628 1.63947 -0.815841 0
M  V30 16 O -0.786498 0.488371 -1.42003 0
M  V30 17 C -1.74482 2.55828 -1.24695 0 CFG=2
M  V30 18 C -2.00065 3.73987 -0.366905 0
M  V30 19 C -3.11779 4.54598 -0.969924 0
M  V30 20 C -4.43438 4.56553 -0.581078 0
M  V30 21 N -5.06848 5.41148 -1.40756 0
M  V30 22 C -4.18729 5.91725 -2.29613 0
M  V30 23 C -2.93716 5.38625 -2.04393 0
M  V30 24 C -1.83886 5.73935 -2.81176 0
M  V30 25 C -1.98619 6.63653 -3.85062 0
M  V30 26 C -3.23132 7.15573 -4.09119 0
M  V30 27 C -4.32631 6.81322 -3.33623 0
M  V30 28 N -2.97443 1.89634 -1.64103 0
M  V30 29 C -3.62814 0.771047 -1.19764 0
M  V30 30 O -3.81076 -0.127176 -2.11398 0
M  V30 31 C -4.17707 0.375561 0.135302 0 CFG=2
M  V30 32 C -3.19428 0.294245 1.24585 0
M  V30 33 C -3.84691 -0.0879222 2.50334 0
M  V30 34 C -4.52042 0.868507 3.22729 0
M  V30 35 C -5.09009 0.524518 4.43462 0
M  V30 36 C -5.02162 -0.744502 4.96601 0
M  V30 37 C -4.34361 -1.68691 4.22726 0
M  V30 38 C -3.75888 -1.35617 2.99983 0
M  V30 39 N -5.15297 -0.672701 0.00718507 0
M  V30 40 C -5.17857 -2.05386 0.0662383 0
M  V30 41 O -6.21505 -2.47717 0.762243 0
M  V30 42 C -4.38395 -3.1514 -0.428991 0 CFG=1
M  V30 43 C -4.88832 -3.65964 -1.8021 0
M  V30 44 C -6.27643 -4.12686 -1.75569 0
M  V30 45 C -7.29965 -3.20971 -2.01306 0
M  V30 46 C -8.6262 -3.57488 -1.99021 0
M  V30 47 C -9.00481 -4.87372 -1.70935 0
M  V30 48 C -7.98681 -5.7588 -1.45957 0
M  V30 49 C -6.66315 -5.40969 -1.47918 0
M  V30 50 N -2.96482 -3.04607 -0.468277 0
M  V30 51 C -2.10666 -4.17062 -0.43757 0
M  V30 52 O -1.1111 -4.13158 -1.26445 0
M  V30 53 C -2.21666 -5.36173 0.416327 0 CFG=2
M  V30 54 N -3.19202 -6.3378 -0.0572464 0
M  V30 55 C -2.37091 -5.0866 1.88446 0
M  V30 56 S -0.884537 -4.24871 2.48583 0
M  V30 57 S 0.759709 -4.67567 1.20205 0
M  V30 58 C 2.27907 -3.99394 1.85564 0
M  V30 59 C 3.38809 -4.18616 0.844794 0 CFG=2
M  V30 60 N 3.20157 -3.27113 -0.255103 0
M  V30 61 C 4.15004 -2.60547 -1.01041 0
M  V30 62 O 4.12124 -2.7122 -2.28385 0
M  V30 63 C 5.26765 -1.72634 -0.496755 0 CFG=2
M  V30 64 C 6.47838 -2.61937 -0.505723 0
M  V30 65 C 7.72852 -2.0387 -0.0599431 0
M  V30 66 C 8.17659 -2.0835 1.24128 0
M  V30 67 C 9.38044 -1.52253 1.6198 0
M  V30 68 C 10.1851 -0.890341 0.697472 0
M  V30 69 C 9.7536 -0.835726 -0.607404 0
M  V30 70 C 8.55604 -1.39932 -0.959863 0
M  V30 71 N 4.93543 -1.12761 0.751617 0
M  V30 72 C 5.07383 0.173316 1.23789 0
M  V30 73 O 5.75646 0.329836 2.3392 0
M  V30 74 C 3.19918 -5.58096 0.299763 0
M  V30 75 O 3.32986 -6.62633 1.18822 0
M  V30 76 O 2.93372 -5.78505 -0.914501 0
M  V30 77 H 7.42154 1.49599 -0.60706 0
M  V30 78 H 5.94586 1.4148 -1.59841 0
M  V30 79 H 6.77741 2.94958 -1.36429 0
M  V30 80 H 5.40112 3.41114 0.333605 0
M  V30 81 H 6.33527 2.84114 2.21526 0
M  V30 82 H 4.01309 1.93984 1.60386 0
M  V30 83 H 3.60038 0.417758 -0.789552 0
M  V30 84 H 0.983996 3.66517 -0.717297 0
M  V30 85 H 1.67729 2.68083 2.11106 0
M  V30 86 H 0.50749 3.85518 1.56622 0
M  V30 87 H 3.51669 4.27993 1.4621 0
M  V30 88 H 2.43234 4.69836 2.77299 0
M  V30 89 H 3.03644 6.64515 1.56337 0
M  V30 90 H 1.25361 6.43395 1.30829 0
M  V30 91 H 2.38793 7.25012 -0.678593 0
M  V30 92 H 1.8177 5.64373 -1.07653 0
M  V30 93 H 3.93186 5.40636 -1.73475 0
M  V30 94 H 4.48362 6.66003 -0.768384 0
M  V30 95 H 0.464491 1.25632 0.921296 0
M  V30 96 H -1.25745 3.03865 -2.17483 0
M  V30 97 H -2.33434 3.4258 0.628721 0
M  V30 98 H -1.14051 4.41232 -0.25242 0
M  V30 99 H -4.83922 3.98845 0.245939 0
M  V30 100 H -6.07726 5.66241 -1.39582 0
M  V30 101 H -0.865609 5.32745 -2.60806 0
M  V30 102 H -1.15158 6.93052 -4.46528 0
M  V30 103 H -3.35094 7.85723 -4.90329 0
M  V30 104 H -5.29744 7.24096 -3.55149 0
M  V30 105 H -3.43296 2.43852 -2.46865 0
M  V30 106 H -4.76539 1.32847 0.509818 0
M  V30 107 H -2.32739 -0.370479 1.0353 0
M  V30 108 H -2.7532 1.29618 1.45946 0
M  V30 109 H -4.62838 1.89456 2.89366 0
M  V30 110 H -5.62399 1.31005 4.99387 0
M  V30 111 H -5.4852 -0.987074 5.92735 0
M  V30 112 H -4.27167 -2.68731 4.61149 0
M  V30 113 H -3.24354 -2.12439 2.48229 0
M  V30 114 H -6.14663 -0.207221 -0.209242 0
M  V30 115 H -4.5393 -4.08157 0.207222 0
M  V30 116 H -4.17189 -4.39086 -2.18473 0
M  V30 117 H -4.83504 -2.77901 -2.46821 0
M  V30 118 H -7.02176 -2.20515 -2.23033 0
M  V30 119 H -9.43807 -2.86396 -2.19026 0
M  V30 120 H -10.0367 -5.16281 -1.69011 0
M  V30 121 H -8.3092 -6.78794 -1.23872 0
M  V30 122 H -5.94135 -6.16506 -1.27496 0
M  V30 123 H -2.44547 -2.12228 -0.534972 0
M  V30 124 H -1.24188 -5.94289 0.353608 0
M  V30 125 H -2.81602 -6.74919 -0.941446 0
M  V30 126 H -3.30043 -7.03835 0.698258 0
M  V30 127 H -3.23731 -4.48279 2.16326 0
M  V30 128 H -2.44523 -6.11172 2.36697 0
M  V30 129 H 2.13373 -2.93809 2.15236 0
M  V30 130 H 2.57885 -4.56777 2.77234 0
M  V30 131 H 4.37845 -4.18994 1.29586 0
M  V30 132 H 2.17291 -3.1067 -0.505259 0
M  V30 133 H 5.45731 -0.902012 -1.24254 0
M  V30 134 H 6.55429 -2.9818 -1.58169 0
M  V30 135 H 6.28543 -3.57598 0.0540794 0
M  V30 136 H 7.54713 -2.57758 1.96221 0
M  V30 137 H 9.72479 -1.56014 2.63568 0
M  V30 138 H 11.1477 -0.441857 0.998289 0
M  V30 139 H 10.3902 -0.332807 -1.34673 0
M  V30 140 H 8.25981 -1.33311 -1.98774 0
M  V30 141 H 4.49507 -1.8224 1.45472 0
M  V30 142 H 3.46229 -7.59496 0.92225 0
M  V30 END ATOM
M  V30 BEGIN BOND
M  V30 1 1 1 2
M  V30 2 1 2 3
M  V30 3 1 2 4
M  V30 4 1 4 5
M  V30 5 1 5 6
M  V30 6 2 6 7
M  V30 7 1 6 8
M  V30 8 1 8 9
M  V30 9 1 9 10
M  V30 10 1 10 11
M  V30 11 1 11 12
M  V30 12 1 12 13
M  V30 13 1 8 14
M  V30 14 1 14 15
M  V30 15 2 15 16
M  V30 16 1 15 17
M  V30 17 1 17 18
M  V30 18 1 18 19
M  V30 19 2 19 20
M  V30 20 1 20 21
M  V30 21 1 21 22
M  V30 22 2 22 23
M  V30 23 1 23 24
M  V30 24 2 24 25
M  V30 25 1 25 26
M  V30 26 2 26 27
M  V30 27 1 17 28
M  V30 28 1 28 29
M  V30 29 2 29 30
M  V30 30 1 29 31
M  V30 31 1 31 32
M  V30 32 1 32 33
M  V30 33 2 33 34
M  V30 34 1 34 35
M  V30 35 2 35 36
M  V30 36 1 36 37
M  V30 37 2 37 38
M  V30 38 1 31 39
M  V30 39 1 39 40
M  V30 40 2 40 41
M  V30 41 1 40 42
M  V30 42 1 42 43
M  V30 43 1 43 44
M  V30 44 2 44 45
M  V30 45 1 45 46
M  V30 46 2 46 47
M  V30 47 1 47 48
M  V30 48 2 48 49
M  V30 49 1 42 50
M  V30 50 1 50 51
M  V30 51 2 51 52
M  V30 52 1 51 53
M  V30 53 1 53 54
M  V30 54 1 53 55
M  V30 55 1 55 56
M  V30 56 1 56 57
M  V30 57 1 57 58
M  V30 58 1 58 59
M  V30 59 1 59 60
M  V30 60 1 60 61
M  V30 61 2 61 62
M  V30 62 1 61 63
M  V30 63 1 63 64
M  V30 64 1 64 65
M  V30 65 2 65 66
M  V30 66 1 66 67
M  V30 67 2 67 68
M  V30 68 1 68 69
M  V30 69 2 69 70
M  V30 70 1 63 71
M  V30 71 1 71 72
M  V30 72 2 72 73
M  V30 73 1 59 74
M  V30 74 1 74 75
M  V30 75 2 74 76
M  V30 76 1 72 4
M  V30 77 1 23 19
M  V30 78 1 38 33
M  V30 79 1 49 44
M  V30 80 1 70 65
M  V30 81 1 27 22
M  V30 82 1 1 77
M  V30 83 1 1 78
M  V30 84 1 1 79
M  V30 85 1 2 80
M  V30 86 1 3 81
M  V30 87 1 4 82 CFG=1
M  V30 88 1 5 83
M  V30 89 1 8 84 CFG=3
M  V30 90 1 9 85
M  V30 91 1 9 86
M  V30 92 1 10 87
M  V30 93 1 10 88
M  V30 94 1 11 89
M  V30 95 1 11 90
M  V30 96 1 12 91
M  V30 97 1 12 92
M  V30 98 1 13 93
M  V30 99 1 13 94
M  V30 100 1 14 95
M  V30 101 1 17 96 CFG=3
M  V30 102 1 18 97
M  V30 103 1 18 98
M  V30 104 1 20 99
M  V30 105 1 21 100
M  V30 106 1 24 101
M  V30 107 1 25 102
M  V30 108 1 26 103
M  V30 109 1 27 104
M  V30 110 1 28 105
M  V30 111 1 31 106 CFG=1
M  V30 112 1 32 107
M  V30 113 1 32 108
M  V30 114 1 34 109
M  V30 115 1 35 110
M  V30 116 1 36 111
M  V30 117 1 37 112
M  V30 118 1 38 113
M  V30 119 1 39 114
M  V30 120 1 42 115 CFG=1
M  V30 121 1 43 116
M  V30 122 1 43 117
M  V30 123 1 45 118
M  V30 124 1 46 119
M  V30 125 1 47 120
M  V30 126 1 48 121
M  V30 127 1 49 122
M  V30 128 1 50 123
M  V30 129 1 53 124 CFG=1
M  V30 130 1 54 125
M  V30 131 1 54 126
M  V30 132 1 55 127
M  V30 133 1 55 128
M  V30 134 1 58 129
M  V30 135 1 58 130
M  V30 136 1 59 131 CFG=1
M  V30 137 1 60 132
M  V30 138 1 63 133 CFG=3
M  V30 139 1 64 134
M  V30 140 1 64 135
M  V30 141 1 66 136
M  V30 142 1 67 137
M  V30 143 1 68 138
M  V30 144 1 69 139
M  V30 145 1 70 140
M  V30 146 1 71 141
M  V30 147 1 75 142
M  V30 END BOND
M  V30 END CTAB
M  END
