
     RDKit          3D

  0  0  0  0  0  0  0  0  0  0999 V3000
M  V30 BEGIN CTAB
M  V30 COUNTS 38 39 0 0 0
M  V30 BEGIN ATOM
M  V30 1 C 7.09434 -0.300315 -0.469196 0
M  V30 2 C 5.60451 -0.239321 -0.449917 0
M  V30 3 C 4.937 0.791284 0.189881 0
M  V30 4 C 3.55753 0.807887 0.182658 0
M  V30 5 C 2.79342 -0.161044 -0.436678 0
M  V30 6 C 3.46906 -1.1833 -1.07112 0
M  V30 7 C 4.85161 -1.21542 -1.07362 0
M  V30 8 N 1.35611 -0.0995057 -0.416362 0
M  V30 9 C 0.738587 -0.296684 0.696887 0
M  V30 10 N 1.39662 -0.575018 1.92319 0
M  V30 11 C -0.71328 -0.22878 0.688917 0
M  V30 12 N -1.47828 -0.436533 1.88775 0
M  V30 13 N -1.37387 0.0163798 -0.37333 0
M  V30 14 C -2.77791 0.093774 -0.439006 0
M  V30 15 C -3.41421 1.26776 -0.0959404 0
M  V30 16 C -4.78749 1.37255 -0.150651 0
M  V30 17 C -5.58794 0.321181 -0.546705 0
M  V30 18 C -7.07369 0.456769 -0.598632 0
M  V30 19 C -4.94314 -0.849115 -0.888012 0
M  V30 20 C -3.56961 -0.963978 -0.836583 0
M  V30 21 H 7.46312 0.596016 -0.982234 0
M  V30 22 H 7.49767 -0.387603 0.580299 0
M  V30 23 H 7.40164 -1.18917 -1.02743 0
M  V30 24 H 5.52265 1.5608 0.681484 0
M  V30 25 H 3.00484 1.60881 0.679429 0
M  V30 26 H 2.91032 -1.96298 -1.56877 0
M  V30 27 H 5.36401 -2.03115 -1.58022 0
M  V30 28 H 1.79443 -1.49972 2.18825 0
M  V30 29 H 1.4933 0.198076 2.61589 0
M  V30 30 H -1.42665 0.278903 2.65764 0
M  V30 31 H -2.04906 -1.2905 1.93436 0
M  V30 32 H -2.8164 2.11298 0.219504 0
M  V30 33 H -5.30535 2.29712 0.118443 0
M  V30 34 H -7.34406 1.0139 -1.52028 0
M  V30 35 H -7.4896 -0.572738 -0.698102 0
M  V30 36 H -7.4816 0.956111 0.293607 0
M  V30 37 H -5.54909 -1.69022 -1.20263 0
M  V30 38 H -3.06952 -1.90672 -1.11278 0
M  V30 END ATOM
M  V30 BEGIN BOND
M  V30 1 1 1 2
M  V30 2 2 2 3
M  V30 3 1 3 4
M  V30 4 2 4 5
M  V30 5 1 5 6
M  V30 6 2 6 7
M  V30 7 1 5 8
M  V30 8 2 8 9 CFG=2
M  V30 9 1 9 10
M  V30 10 1 9 11
M  V30 11 1 11 12
M  V30 12 2 11 13 CFG=2
M  V30 13 1 13 14
M  V30 14 2 14 15
M  V30 15 1 15 16
M  V30 16 2 16 17
M  V30 17 1 17 18
M  V30 18 1 17 19
M  V30 19 2 19 20
M  V30 20 1 7 2
M  V30 21 1 20 14
M  V30 22 1 1 21
M  V30 23 1 1 22
M  V30 24 1 1 23
M  V30 25 1 3 24
M  V30 26 1 4 25
M  V30 27 1 6 26
M  V30 28 1 7 27
M  V30 29 1 10 28
M  V30 30 1 10 29
M  V30 31 1 12 30
M  V30 32 1 12 31
M  V30 33 1 15 32
M  V30 34 1 16 33
M  V30 35 1 18 34
M  V30 36 1 18 35
M  V30 37 1 18 36
M  V30 38 1 19 37
M  V30 39 1 20 38
M  V30 END BOND
M  V30 END CTAB
M  END
