
     RDKit          3D

  0  0  0  0  0  0  0  0  0  0999 V3000
M  V30 BEGIN CTAB
M  V30 COUNTS 46 48 0 0 0
M  V30 BEGIN ATOM
M  V30 1 O 2.06929 1.5945 0.525693 0
M  V30 2 C 1.45529 0.593141 0.928974 0
M  V30 3 C -0.0480502 0.621574 0.934529 0
M  V30 4 C -0.54954 1.90616 0.430589 0
M  V30 5 C -1.29882 2.72566 1.24504 0
M  V30 6 C -1.78733 3.95079 0.790848 0
M  V30 7 C -1.53167 4.37251 -0.487074 0
M  V30 8 C -0.785296 3.56398 -1.30942 0
M  V30 9 C -0.304567 2.34847 -0.848403 0
M  V30 10 S -0.614733 -0.78896 -0.0439325 0
M  V30 11 C -2.3727 -0.8949 -0.133272 0
M  V30 12 N -3.03509 -0.275332 -1.11063 0
M  V30 13 C -4.37594 -0.316349 -1.23577 0
M  V30 14 N -5.08238 0.336354 -2.26632 0
M  V30 15 C -5.06655 -1.0545 -0.274253 0
M  V30 16 C -4.40318 -1.70226 0.743588 0
M  V30 17 N -3.05716 -1.59532 0.775141 0
M  V30 18 N -5.16831 -2.43404 1.68579 0
M  V30 19 N 2.1071 -0.55236 1.37521 0
M  V30 20 C 3.53274 -0.706224 1.41291 0
M  V30 21 C 4.10163 -0.613163 0.0344794 0
M  V30 22 C 3.51006 -1.72427 -0.794152 0
M  V30 23 C 4.68429 -2.53215 -1.26511 0
M  V30 24 C 5.77073 -2.07076 -0.296067 0
M  V30 25 O 5.4864 -0.768376 0.0151087 0
M  V30 26 H -0.33927 0.424738 1.98604 0
M  V30 27 H -1.54985 2.47487 2.2669 0
M  V30 28 H -2.37705 4.60624 1.41686 0
M  V30 29 H -1.92471 5.34263 -0.830143 0
M  V30 30 H -0.579787 3.88817 -2.31566 0
M  V30 31 H 0.288588 1.73166 -1.53828 0
M  V30 32 H -4.9332 0.0816286 -3.25534 0
M  V30 33 H -5.75821 1.07953 -2.02749 0
M  V30 34 H -6.14404 -1.08977 -0.371451 0
M  V30 35 H -6.09819 -2.11734 2.03704 0
M  V30 36 H -4.77054 -3.3327 2.03785 0
M  V30 37 H 1.51768 -1.36997 1.71133 0
M  V30 38 H 3.99059 0.0895887 2.04892 0
M  V30 39 H 3.84678 -1.66722 1.87578 0
M  V30 40 H 3.87658 0.37793 -0.392796 0
M  V30 41 H 2.92808 -1.32181 -1.63333 0
M  V30 42 H 2.87747 -2.41461 -0.170649 0
M  V30 43 H 4.92057 -2.2479 -2.30798 0
M  V30 44 H 4.53569 -3.61699 -1.16365 0
M  V30 45 H 6.72762 -2.20807 -0.829993 0
M  V30 46 H 5.72899 -2.69478 0.622537 0
M  V30 END ATOM
M  V30 BEGIN BOND
M  V30 1 2 1 2
M  V30 2 1 2 3
M  V30 3 1 3 4
M  V30 4 2 4 5
M  V30 5 1 5 6
M  V30 6 2 6 7
M  V30 7 1 7 8
M  V30 8 2 8 9
M  V30 9 1 3 10
M  V30 10 1 10 11
M  V30 11 2 11 12
M  V30 12 1 12 13
M  V30 13 1 13 14
M  V30 14 2 13 15
M  V30 15 1 15 16
M  V30 16 2 16 17
M  V30 17 1 16 18
M  V30 18 1 2 19
M  V30 19 1 19 20
M  V30 20 1 20 21
M  V30 21 1 21 22
M  V30 22 1 22 23
M  V30 23 1 23 24
M  V30 24 1 24 25
M  V30 25 1 9 4
M  V30 26 1 17 11
M  V30 27 1 25 21
M  V30 28 1 3 26
M  V30 29 1 5 27
M  V30 30 1 6 28
M  V30 31 1 7 29
M  V30 32 1 8 30
M  V30 33 1 9 31
M  V30 34 1 14 32
M  V30 35 1 14 33
M  V30 36 1 15 34
M  V30 37 1 18 35
M  V30 38 1 18 36
M  V30 39 1 19 37
M  V30 40 1 20 38
M  V30 41 1 20 39
M  V30 42 1 21 40
M  V30 43 1 22 41
M  V30 44 1 22 42
M  V30 45 1 23 43
M  V30 46 1 23 44
M  V30 47 1 24 45
M  V30 48 1 24 46
M  V30 END BOND
M  V30 END CTAB
M  END
