
     RDKit          3D

  0  0  0  0  0  0  0  0  0  0999 V3000
M  V30 BEGIN CTAB
M  V30 COUNTS 26 27 0 0 0
M  V30 BEGIN ATOM
M  V30 1 N -3.52139 2.55168 -0.51768 0
M  V30 2 C -2.74593 1.45888 -0.0458353 0
M  V30 3 N -1.42458 1.4654 -0.281592 0
M  V30 4 C -0.677467 0.445572 0.154621 0
M  V30 5 N -1.23296 -0.561115 0.812353 0
M  V30 6 C -2.55015 -0.591581 1.06071 0
M  V30 7 N -3.29911 0.434427 0.621377 0
M  V30 8 N -3.06478 -1.69411 1.76461 0
M  V30 9 C 0.774471 0.440327 -0.0974742 0
M  V30 10 S 1.65892 0.239632 1.50224 0
M  V30 11 C 3.18587 -0.65989 1.0148 0
M  V30 12 C 3.43998 -0.241893 -0.420319 0
M  V30 13 N 2.50132 -0.806643 -1.33337 0
M  V30 14 C 1.14405 -0.806741 -0.891812 0
M  V30 15 H -4.37275 2.33535 -1.07034 0
M  V30 16 H -3.28008 3.55294 -0.338036 0
M  V30 17 H -3.55781 -2.45093 1.26626 0
M  V30 18 H -2.94983 -1.74933 2.7883 0
M  V30 19 H 1.1432 1.3066 -0.643958 0
M  V30 20 H 4.03765 -0.363289 1.64571 0
M  V30 21 H 2.94514 -1.72861 1.0395 0
M  V30 22 H 4.46228 -0.495791 -0.705419 0
M  V30 23 H 3.36108 0.885524 -0.423545 0
M  V30 24 H 2.55257 -0.322583 -2.24343 0
M  V30 25 H 1.00845 -1.66571 -0.17166 0
M  V30 26 H 0.461864 -0.978119 -1.73632 0
M  V30 END ATOM
M  V30 BEGIN BOND
M  V30 1 1 1 2
M  V30 2 2 2 3
M  V30 3 1 3 4
M  V30 4 2 4 5
M  V30 5 1 5 6
M  V30 6 2 6 7
M  V30 7 1 6 8
M  V30 8 1 4 9
M  V30 9 1 9 10
M  V30 10 1 10 11
M  V30 11 1 11 12
M  V30 12 1 12 13
M  V30 13 1 13 14
M  V30 14 1 7 2
M  V30 15 1 14 9
M  V30 16 1 1 15
M  V30 17 1 1 16
M  V30 18 1 8 17
M  V30 19 1 8 18
M  V30 20 1 9 19
M  V30 21 1 11 20
M  V30 22 1 11 21
M  V30 23 1 12 22
M  V30 24 1 12 23
M  V30 25 1 13 24
M  V30 26 1 14 25
M  V30 27 1 14 26
M  V30 END BOND
M  V30 END CTAB
M  END
