
     RDKit          3D

  0  0  0  0  0  0  0  0  0  0999 V3000
M  V30 BEGIN CTAB
M  V30 COUNTS 15 15 0 0 0
M  V30 BEGIN ATOM
M  V30 1 N 2.17604 -0.776681 0.363105 0
M  V30 2 C 0.777343 -0.647109 0.213884 0
M  V30 3 N -0.0724169 -1.69405 0.382615 0
M  V30 4 C -1.39738 -1.61875 0.252185 0
M  V30 5 C -1.96056 -0.386643 -0.0798011 0
M  V30 6 Cl -3.7079 -0.280161 -0.253453 0
M  V30 7 C -1.17228 0.729391 -0.269701 0
M  V30 8 Cl -1.9147 2.2588 -0.685534 0
M  V30 9 C 0.187063 0.569417 -0.116822 0
M  V30 10 N 1.00455 1.70831 -0.309519 0
M  V30 11 H 2.57756 -1.40199 1.06967 0
M  V30 12 H 2.7994 -0.230988 -0.251429 0
M  V30 13 H -1.97198 -2.50206 0.406693 0
M  V30 14 H 0.825141 2.45313 -1.01435 0
M  V30 15 H 1.85012 1.81939 0.292457 0
M  V30 END ATOM
M  V30 BEGIN BOND
M  V30 1 1 1 2
M  V30 2 2 2 3
M  V30 3 1 3 4
M  V30 4 2 4 5
M  V30 5 1 5 6
M  V30 6 1 5 7
M  V30 7 1 7 8
M  V30 8 2 7 9
M  V30 9 1 9 10
M  V30 10 1 9 2
M  V30 11 1 1 11
M  V30 12 1 1 12
M  V30 13 1 4 13
M  V30 14 1 10 14
M  V30 15 1 10 15
M  V30 END BOND
M  V30 END CTAB
M  END
