
     RDKit          3D

  0  0  0  0  0  0  0  0  0  0999 V3000
M  V30 BEGIN CTAB
M  V30 COUNTS 21 22 0 0 0
M  V30 BEGIN ATOM
M  V30 1 Br 5.17595 -0.814252 1.43857 0
M  V30 2 C 3.43306 -0.443915 0.749282 0
M  V30 3 C 3.23509 0.0786008 -0.504564 0
M  V30 4 C 1.95117 0.318409 -0.93159 0
M  V30 5 C 0.852221 0.0482595 -0.133866 0
M  V30 6 N 1.10996 -0.462373 1.08348 0
M  V30 7 C 2.34959 -0.71322 1.54301 0
M  V30 8 C -0.507801 0.303511 -0.589141 0
M  V30 9 N -0.825197 0.811571 -1.79278 0
M  V30 10 N -2.14655 0.909667 -1.86825 0
M  V30 11 C -2.67721 0.464313 -0.71244 0
M  V30 12 N -1.63733 0.0927455 0.067242 0
M  V30 13 N -1.79196 -0.428598 1.36212 0
M  V30 14 N -4.05201 0.381288 -0.33803 0
M  V30 15 H 4.05214 0.29772 -1.14234 0
M  V30 16 H 1.79778 0.732137 -1.92483 0
M  V30 17 H 2.5085 -1.1243 2.52906 0
M  V30 18 H -2.06868 -1.40933 1.54289 0
M  V30 19 H -1.6121 0.229075 2.14819 0
M  V30 20 H -4.5076 1.19158 0.134455 0
M  V30 21 H -4.63902 -0.462888 -0.514487 0
M  V30 END ATOM
M  V30 BEGIN BOND
M  V30 1 1 1 2
M  V30 2 2 2 3
M  V30 3 1 3 4
M  V30 4 2 4 5
M  V30 5 1 5 6
M  V30 6 2 6 7
M  V30 7 1 5 8
M  V30 8 2 8 9
M  V30 9 1 9 10
M  V30 10 2 10 11
M  V30 11 1 11 12
M  V30 12 1 12 13
M  V30 13 1 11 14
M  V30 14 1 7 2
M  V30 15 1 12 8
M  V30 16 1 3 15
M  V30 17 1 4 16
M  V30 18 1 7 17
M  V30 19 1 13 18
M  V30 20 1 13 19
M  V30 21 1 14 20
M  V30 22 1 14 21
M  V30 END BOND
M  V30 END CTAB
M  END
