
     RDKit          3D

  0  0  0  0  0  0  0  0  0  0999 V3000
M  V30 BEGIN CTAB
M  V30 COUNTS 28 28 0 0 0
M  V30 BEGIN ATOM
M  V30 1 C 3.45074 1.43693 -0.205231 0
M  V30 2 O 2.72841 0.860756 0.763614 0
M  V30 3 C 1.92113 -0.186067 0.589623 0
M  V30 4 C 0.787949 0.030488 -0.365483 0 CFG=2
M  V30 5 C -0.104272 -1.16218 -0.329247 0
M  V30 6 C 0.213019 -2.35744 -0.942356 0
M  V30 7 N -0.832574 -3.16922 -0.682718 0
M  V30 8 N -1.71378 -2.50657 0.0352839 0
M  V30 9 N -1.29559 -1.26554 0.271084 0
M  V30 10 C -1.99946 -0.239394 1.02877 0
M  V30 11 C -2.87648 0.534517 0.0357029 0
M  V30 12 N -3.61462 1.5767 0.700025 0
M  V30 13 N 1.31864 0.28692 -1.66296 0
M  V30 14 H 2.96425 1.91714 -1.04942 0
M  V30 15 H 4.12261 2.22572 0.238831 0
M  V30 16 H 4.20043 0.726504 -0.672806 0
M  V30 17 H 2.55843 -0.999797 0.0832682 0
M  V30 18 H 1.55238 -0.6367 1.55996 0
M  V30 19 H 0.195773 0.96029 -0.0983914 0
M  V30 20 H 1.08969 -2.6351 -1.51524 0
M  V30 21 H -1.29057 0.493153 1.46687 0
M  V30 22 H -2.60835 -0.657269 1.83485 0
M  V30 23 H -3.62076 -0.144439 -0.434083 0
M  V30 24 H -2.27075 0.962181 -0.775107 0
M  V30 25 H -3.01215 2.24258 1.22413 0
M  V30 26 H -4.39022 1.22691 1.29112 0
M  V30 27 H 1.6886 -0.520946 -2.17067 0
M  V30 28 H 0.837515 0.999868 -2.21595 0
M  V30 END ATOM
M  V30 BEGIN BOND
M  V30 1 1 1 2
M  V30 2 1 2 3
M  V30 3 1 3 4
M  V30 4 1 4 5
M  V30 5 2 5 6
M  V30 6 1 6 7
M  V30 7 2 7 8
M  V30 8 1 8 9
M  V30 9 1 9 10
M  V30 10 1 10 11
M  V30 11 1 11 12
M  V30 12 1 4 13
M  V30 13 1 9 5
M  V30 14 1 1 14
M  V30 15 1 1 15
M  V30 16 1 1 16
M  V30 17 1 3 17
M  V30 18 1 3 18
M  V30 19 1 4 19 CFG=1
M  V30 20 1 6 20
M  V30 21 1 10 21
M  V30 22 1 10 22
M  V30 23 1 11 23
M  V30 24 1 11 24
M  V30 25 1 12 25
M  V30 26 1 12 26
M  V30 27 1 13 27
M  V30 28 1 13 28
M  V30 END BOND
M  V30 END CTAB
M  END
