
     RDKit          3D

  0  0  0  0  0  0  0  0  0  0999 V3000
M  V30 BEGIN CTAB
M  V30 COUNTS 30 32 0 0 0
M  V30 BEGIN ATOM
M  V30 1 N -4.88829 1.32881 -2.28166 0
M  V30 2 C -4.32651 0.861503 -1.06828 0
M  V30 3 C -5.14573 0.270808 -0.108928 0
M  V30 4 C -4.58014 -0.169608 1.04815 0
M  V30 5 N -5.37068 -0.779983 2.06038 0
M  V30 6 N -3.25761 -0.0305871 1.24663 0
M  V30 7 C -2.44495 0.536801 0.334798 0
M  V30 8 N -3.01595 0.972368 -0.813918 0
M  V30 9 S -0.708494 0.697095 0.643056 0
M  V30 10 C 0.145568 -0.766068 0.0519863 0
M  V30 11 C 1.62254 -0.653299 0.302862 0
M  V30 12 N 2.3106 -1.04849 1.39114 0
M  V30 13 N 3.5911 -0.768972 1.21429 0
M  V30 14 C 3.71586 -0.192874 0.00620405 0
M  V30 15 O 2.51235 -0.143978 -0.503653 0
M  V30 16 C 4.99236 0.296592 -0.627539 0
M  V30 17 C 6.15665 -0.619275 -0.383527 0
M  V30 18 C 6.08243 0.773458 0.228324 0
M  V30 19 H -4.80265 0.733059 -3.12652 0
M  V30 20 H -5.38197 2.23567 -2.37367 0
M  V30 21 H -6.19423 0.189925 -0.329235 0
M  V30 22 H -4.93224 -1.41597 2.76629 0
M  V30 23 H -6.40044 -0.633014 2.1538 0
M  V30 24 H -0.246782 -1.66844 0.581861 0
M  V30 25 H -0.0597348 -0.87768 -1.03306 0
M  V30 26 H 4.89422 0.74323 -1.63042 0
M  V30 27 H 6.8237 -0.806445 -1.22641 0
M  V30 28 H 6.0991 -1.41912 0.372691 0
M  V30 29 H 6.82006 1.47779 -0.217739 0
M  V30 30 H 5.98987 0.876691 1.32209 0
M  V30 END ATOM
M  V30 BEGIN BOND
M  V30 1 1 1 2
M  V30 2 2 2 3
M  V30 3 1 3 4
M  V30 4 1 4 5
M  V30 5 2 4 6
M  V30 6 1 6 7
M  V30 7 2 7 8
M  V30 8 1 7 9
M  V30 9 1 9 10
M  V30 10 1 10 11
M  V30 11 2 11 12
M  V30 12 1 12 13
M  V30 13 2 13 14
M  V30 14 1 14 15
M  V30 15 1 14 16
M  V30 16 1 16 17
M  V30 17 1 17 18
M  V30 18 1 8 2
M  V30 19 1 15 11
M  V30 20 1 18 16
M  V30 21 1 1 19
M  V30 22 1 1 20
M  V30 23 1 3 21
M  V30 24 1 5 22
M  V30 25 1 5 23
M  V30 26 1 10 24
M  V30 27 1 10 25
M  V30 28 1 16 26
M  V30 29 1 17 27
M  V30 30 1 17 28
M  V30 31 1 18 29
M  V30 32 1 18 30
M  V30 END BOND
M  V30 END CTAB
M  END
