
     RDKit          3D

  0  0  0  0  0  0  0  0  0  0999 V3000
M  V30 BEGIN CTAB
M  V30 COUNTS 19 18 0 0 0
M  V30 BEGIN ATOM
M  V30 1 N -1.40777 2.42433 0.0120229 0
M  V30 2 N -0.982457 1.58196 -0.984238 0
M  V30 3 C -0.526862 0.282324 -0.654849 0
M  V30 4 N -1.32091 -0.883062 -0.802098 0
M  V30 5 N -2.3743 -1.0952 0.0891966 0
M  V30 6 N 0.679793 0.187952 -0.198997 0
M  V30 7 C 1.25469 -1.07578 0.169834 0
M  V30 8 C 2.49521 -0.808018 0.941477 0
M  V30 9 O 2.96133 0.466303 1.22202 0
M  V30 10 O 3.14459 -1.8265 1.3547 0
M  V30 11 H -0.668726 2.97371 0.47209 0
M  V30 12 H -2.28427 2.92883 -0.16665 0
M  V30 13 H -0.988192 1.8798 -1.97789 0
M  V30 14 H -1.1077 -1.55618 -1.56583 0
M  V30 15 H -2.07518 -0.822181 1.05199 0
M  V30 16 H -2.64145 -2.09901 0.033634 0
M  V30 17 H 0.540624 -1.55259 0.897394 0
M  V30 18 H 1.44353 -1.72535 -0.702007 0
M  V30 19 H 3.85806 0.718674 0.808207 0
M  V30 END ATOM
M  V30 BEGIN BOND
M  V30 1 1 1 2
M  V30 2 1 2 3
M  V30 3 1 3 4
M  V30 4 1 4 5
M  V30 5 2 3 6
M  V30 6 1 6 7
M  V30 7 1 7 8
M  V30 8 1 8 9
M  V30 9 2 8 10
M  V30 10 1 1 11
M  V30 11 1 1 12
M  V30 12 1 2 13
M  V30 13 1 4 14
M  V30 14 1 5 15
M  V30 15 1 5 16
M  V30 16 1 7 17
M  V30 17 1 7 18
M  V30 18 1 9 19
M  V30 END BOND
M  V30 END CTAB
M  END
