
     RDKit          3D

  0  0  0  0  0  0  0  0  0  0999 V3000
M  V30 BEGIN CTAB
M  V30 COUNTS 68 72 0 0 0
M  V30 BEGIN ATOM
M  V30 1 N 6.82005 2.88408 -0.212704 0
M  V30 2 C 7.28148 1.54695 -0.00303815 0
M  V30 3 N 6.597 0.486771 -0.467373 0
M  V30 4 C 7.05929 -0.767658 -0.252136 0
M  V30 5 C 8.24111 -0.923008 0.450428 0
M  V30 6 N 8.49607 -2.24206 0.538062 0
M  V30 7 C 7.5012 -2.8865 -0.0917418 0
M  V30 8 N 6.6317 -1.99924 -0.570297 0
M  V30 9 C 5.40259 -2.22312 -1.32047 0 CFG=1
M  V30 10 C 4.62574 -3.39233 -0.757093 0
M  V30 11 C 3.40543 -2.67753 -0.199949 0 CFG=2
M  V30 12 O 2.2827 -3.46502 -0.269517 0
M  V30 13 C 3.26586 -1.54171 -1.1905 0 CFG=1
M  V30 14 C 2.45922 -0.404804 -0.647364 0
M  V30 15 O 1.11227 -0.729094 -0.493246 0
M  V30 16 P 0.253426 0.591888 0.123562 0
M  V30 17 O 1.20339 1.96438 -0.144154 0
M  V30 18 O 0.0455738 0.333122 1.59518 0
M  V30 19 O -1.19072 0.775975 -0.706826 0
M  V30 20 C -2.30598 0.790775 0.0940939 0 CFG=1
M  V30 21 C -3.13728 2.01812 0.0112155 0
M  V30 22 C -4.23358 1.5703 -0.949163 0 CFG=1
M  V30 23 O -4.27588 0.212645 -0.909714 0
M  V30 24 C -3.27646 -0.317097 -0.150564 0 CFG=2
M  V30 25 C -3.89609 -0.827313 1.15147 0
M  V30 26 O -4.83025 -1.79237 0.775812 0
M  V30 27 P -5.62718 -2.48175 2.08477 0
M  V30 28 O -5.90406 -4.12263 1.71026 0
M  V30 29 O -7.14014 -1.7738 2.34073 0
M  V30 30 O -4.82802 -2.44892 3.34955 0
M  V30 31 N -5.48903 2.21463 -0.677807 0
M  V30 32 C -6.53246 1.45945 -0.297194 0
M  V30 33 C -7.7788 2.03602 -0.0203493 0
M  V30 34 C -7.8869 3.40651 -0.15539 0
M  V30 35 N -9.15437 4.01271 0.123322 0
M  V30 36 N -6.80988 4.09978 -0.537992 0
M  V30 37 C -5.61535 3.53973 -0.802216 0
M  V30 38 O -4.63667 4.27877 -1.16274 0
M  V30 39 O 4.58271 -1.1197 -1.30836 0
M  V30 40 C 8.92088 0.184317 0.914125 0
M  V30 41 O 9.9994 0.102582 1.55819 0
M  V30 42 N 8.4283 1.4072 0.679207 0
M  V30 43 H 6.7629 3.53797 0.57967 0
M  V30 44 H 6.55063 3.16373 -1.17754 0
M  V30 45 H 7.38814 -3.9639 -0.213335 0
M  V30 46 H 5.70147 -2.48998 -2.35438 0
M  V30 47 H 5.17491 -3.96276 -0.0089237 0
M  V30 48 H 4.28549 -4.10252 -1.533 0
M  V30 49 H 3.6173 -2.23685 0.773448 0
M  V30 50 H 1.61429 -3.14344 0.389782 0
M  V30 51 H 2.92124 -1.89127 -2.17608 0
M  V30 52 H 2.92032 -0.0609745 0.297178 0
M  V30 53 H 2.56447 0.448042 -1.36937 0
M  V30 54 H 1.31058 2.03838 -1.12891 0
M  V30 55 H -1.94068 0.674968 1.15589 0
M  V30 56 H -3.59939 2.22483 0.978183 0
M  V30 57 H -2.64356 2.87977 -0.470461 0
M  V30 58 H -3.96488 1.86115 -2.00566 0
M  V30 59 H -2.79788 -1.21833 -0.605967 0
M  V30 60 H -3.13879 -1.20042 1.85386 0
M  V30 61 H -4.45683 0.00090395 1.61484 0
M  V30 62 H -5.05804 -4.62297 1.67536 0
M  V30 63 H -7.88592 -2.31618 1.9986 0
M  V30 64 H -6.49388 0.385579 -0.179347 0
M  V30 65 H -8.63027 1.44554 0.288003 0
M  V30 66 H -9.6656 3.89975 1.00094 0
M  V30 67 H -9.55166 4.60744 -0.652002 0
M  V30 68 H 8.94932 2.26048 1.03469 0
M  V30 END ATOM
M  V30 BEGIN BOND
M  V30 1 1 1 2
M  V30 2 2 2 3
M  V30 3 1 3 4
M  V30 4 2 4 5
M  V30 5 1 5 6
M  V30 6 2 6 7
M  V30 7 1 7 8
M  V30 8 1 8 9
M  V30 9 1 9 10
M  V30 10 1 10 11
M  V30 11 1 11 12
M  V30 12 1 11 13
M  V30 13 1 13 14
M  V30 14 1 14 15
M  V30 15 1 15 16
M  V30 16 1 16 17
M  V30 17 2 16 18
M  V30 18 1 16 19
M  V30 19 1 19 20
M  V30 20 1 20 21
M  V30 21 1 21 22
M  V30 22 1 22 23
M  V30 23 1 23 24
M  V30 24 1 24 25
M  V30 25 1 25 26
M  V30 26 1 26 27
M  V30 27 1 27 28
M  V30 28 1 27 29
M  V30 29 2 27 30
M  V30 30 1 22 31
M  V30 31 1 31 32
M  V30 32 2 32 33
M  V30 33 1 33 34
M  V30 34 1 34 35
M  V30 35 2 34 36
M  V30 36 1 36 37
M  V30 37 2 37 38
M  V30 38 1 13 39
M  V30 39 1 5 40
M  V30 40 2 40 41
M  V30 41 1 40 42
M  V30 42 1 42 2
M  V30 43 1 8 4
M  V30 44 1 39 9
M  V30 45 1 24 20
M  V30 46 1 37 31
M  V30 47 1 1 43
M  V30 48 1 1 44
M  V30 49 1 7 45
M  V30 50 1 9 46 CFG=3
M  V30 51 1 10 47
M  V30 52 1 10 48
M  V30 53 1 11 49 CFG=1
M  V30 54 1 12 50
M  V30 55 1 13 51 CFG=3
M  V30 56 1 14 52
M  V30 57 1 14 53
M  V30 58 1 17 54
M  V30 59 1 20 55 CFG=1
M  V30 60 1 21 56
M  V30 61 1 21 57
M  V30 62 1 22 58 CFG=3
M  V30 63 1 24 59 CFG=3
M  V30 64 1 25 60
M  V30 65 1 25 61
M  V30 66 1 28 62
M  V30 67 1 29 63
M  V30 68 1 32 64
M  V30 69 1 33 65
M  V30 70 1 35 66
M  V30 71 1 35 67
M  V30 72 1 42 68
M  V30 END BOND
M  V30 END CTAB
M  END
