
     RDKit          3D

  0  0  0  0  0  0  0  0  0  0999 V3000
M  V30 BEGIN CTAB
M  V30 COUNTS 35 37 0 0 0
M  V30 BEGIN ATOM
M  V30 1 N -5.84277 2.37971 0.190072 0
M  V30 2 N -4.61279 1.71472 0.173865 0
M  V30 3 C -4.49718 0.322024 0.398771 0
M  V30 4 O -5.57909 -0.311184 0.620381 0
M  V30 5 C -3.21929 -0.358185 0.380118 0
M  V30 6 C -3.21187 -1.73192 0.611627 0
M  V30 7 C -2.03393 -2.42792 0.606686 0
M  V30 8 C -0.834282 -1.79113 0.37415 0
M  V30 9 C -0.817182 -0.419974 0.140478 0
M  V30 10 C -2.02318 0.261307 0.150803 0
M  V30 11 N 0.339403 0.143715 -0.0725725 0
M  V30 12 C 1.5721 -0.453523 -0.0970929 0
M  V30 13 N 1.55529 -1.76822 0.12513 0
M  V30 14 C 0.371032 -2.43575 0.359213 0
M  V30 15 O 0.41566 -3.67365 0.56342 0
M  V30 16 N 2.72479 -2.50664 0.0938969 0
M  V30 17 C 2.73097 0.376083 -0.380756 0
M  V30 18 C 2.49561 1.67686 -0.850914 0
M  V30 19 C 3.51765 2.56355 -1.11792 0
M  V30 20 C 4.81847 2.17371 -0.921326 0
M  V30 21 C 5.09184 0.905104 -0.460202 0
M  V30 22 C 4.02884 0.0348807 -0.200318 0
M  V30 23 F 5.82038 3.03543 -1.18098 0
M  V30 24 H -6.6004 1.71019 0.454516 0
M  V30 25 H -5.83125 3.12385 0.936785 0
M  V30 26 H -3.78534 2.30218 -0.0131921 0
M  V30 27 H -4.1252 -2.28366 0.799997 0
M  V30 28 H -2.01363 -3.51305 0.788038 0
M  V30 29 H -2.01294 1.31931 -0.029211 0
M  V30 30 H 3.16322 -2.8311 0.973435 0
M  V30 31 H 3.1709 -2.74637 -0.807065 0
M  V30 32 H 1.47165 1.97879 -1.00527 0
M  V30 33 H 3.34242 3.56524 -1.48041 0
M  V30 34 H 6.09333 0.583332 -0.301231 0
M  V30 35 H 4.31679 -0.917695 0.177088 0
M  V30 END ATOM
M  V30 BEGIN BOND
M  V30 1 1 1 2
M  V30 2 1 2 3
M  V30 3 2 3 4
M  V30 4 1 3 5
M  V30 5 2 5 6
M  V30 6 1 6 7
M  V30 7 2 7 8
M  V30 8 1 8 9
M  V30 9 2 9 10
M  V30 10 1 9 11
M  V30 11 2 11 12
M  V30 12 1 12 13
M  V30 13 1 13 14
M  V30 14 2 14 15
M  V30 15 1 13 16
M  V30 16 1 12 17
M  V30 17 2 17 18
M  V30 18 1 18 19
M  V30 19 2 19 20
M  V30 20 1 20 21
M  V30 21 2 21 22
M  V30 22 1 20 23
M  V30 23 1 10 5
M  V30 24 1 22 17
M  V30 25 1 14 8
M  V30 26 1 1 24
M  V30 27 1 1 25
M  V30 28 1 2 26
M  V30 29 1 6 27
M  V30 30 1 7 28
M  V30 31 1 10 29
M  V30 32 1 16 30
M  V30 33 1 16 31
M  V30 34 1 18 32
M  V30 35 1 19 33
M  V30 36 1 21 34
M  V30 37 1 22 35
M  V30 END BOND
M  V30 END CTAB
M  END
