
     RDKit          3D

  0  0  0  0  0  0  0  0  0  0999 V3000
M  V30 BEGIN CTAB
M  V30 COUNTS 22 22 0 0 0
M  V30 BEGIN ATOM
M  V30 1 N -2.81181 -1.0808 0.806085 0
M  V30 2 C -2.20709 -0.839609 -0.490153 0
M  V30 3 C -0.889715 -0.211007 -0.317492 0
M  V30 4 C -0.7199 1.16415 -0.266419 0
M  V30 5 C 0.52372 1.73792 -0.103869 0
M  V30 6 N 0.612683 3.14859 -0.0617321 0
M  V30 7 C 1.62698 0.930755 0.0110317 0
M  V30 8 C 1.5087 -0.443093 -0.033808 0
M  V30 9 C 0.246018 -0.979157 -0.197816 0
M  V30 10 C 2.6679 -1.2956 0.0868249 0
M  V30 11 O 2.53812 -2.67533 0.0405578 0
M  V30 12 O 3.81194 -0.814706 0.235253 0
M  V30 13 H -2.67866 -0.284182 1.46709 0
M  V30 14 H -3.81004 -1.3703 0.719672 0
M  V30 15 H -2.88023 -0.281684 -1.1768 0
M  V30 16 H -2.09173 -1.85948 -0.960273 0
M  V30 17 H -1.61507 1.77172 -0.360729 0
M  V30 18 H 1.15632 3.58711 0.701395 0
M  V30 19 H 0.152293 3.72924 -0.766838 0
M  V30 20 H 2.59708 1.36604 0.137566 0
M  V30 21 H 0.146274 -2.07068 -0.234127 0
M  V30 22 H 2.1162 -3.22988 0.764574 0
M  V30 END ATOM
M  V30 BEGIN BOND
M  V30 1 1 1 2
M  V30 2 1 2 3
M  V30 3 2 3 4
M  V30 4 1 4 5
M  V30 5 1 5 6
M  V30 6 2 5 7
M  V30 7 1 7 8
M  V30 8 2 8 9
M  V30 9 1 8 10
M  V30 10 1 10 11
M  V30 11 2 10 12
M  V30 12 1 9 3
M  V30 13 1 1 13
M  V30 14 1 1 14
M  V30 15 1 2 15
M  V30 16 1 2 16
M  V30 17 1 4 17
M  V30 18 1 6 18
M  V30 19 1 6 19
M  V30 20 1 7 20
M  V30 21 1 9 21
M  V30 22 1 11 22
M  V30 END BOND
M  V30 END CTAB
M  END
