
     RDKit          3D

  0  0  0  0  0  0  0  0  0  0999 V3000
M  V30 BEGIN CTAB
M  V30 COUNTS 32 32 0 0 0
M  V30 BEGIN ATOM
M  V30 1 N -4.54958 0.596451 1.22247 0
M  V30 2 C -3.12362 0.761663 0.896166 0
M  V30 3 C -2.65847 -0.445788 0.133994 0
M  V30 4 C -1.22764 -0.416637 -0.270327 0
M  V30 5 C -0.247221 -0.342073 0.823469 0
M  V30 6 O -0.616916 -0.361816 2.01138 0
M  V30 7 N 1.11921 -0.247511 0.513002 0
M  V30 8 C 2.09646 -0.173077 1.5715 0
M  V30 9 C 3.06049 0.939047 1.13891 0
M  V30 10 C 3.8948 0.369481 0.0186289 0
M  V30 11 C 3.07198 -0.400683 -0.949672 0
M  V30 12 C 1.59637 -0.219972 -0.847558 0
M  V30 13 N -3.49446 -0.606501 -1.06201 0
M  V30 14 H -5.05205 1.52033 1.07896 0
M  V30 15 H -4.94188 -0.0495738 0.499695 0
M  V30 16 H -2.63063 0.920199 1.86514 0
M  V30 17 H -3.04411 1.69862 0.277366 0
M  V30 18 H -2.80873 -1.3369 0.786793 0
M  V30 19 H -0.980859 -1.37758 -0.820088 0
M  V30 20 H -1.03257 0.405318 -1.0296 0
M  V30 21 H 1.6816 -0.0125673 2.56426 0
M  V30 22 H 2.72563 -1.0958 1.61256 0
M  V30 23 H 3.65808 1.29812 1.9858 0
M  V30 24 H 2.41272 1.7735 0.770187 0
M  V30 25 H 4.6161 -0.346208 0.51182 0
M  V30 26 H 4.50001 1.15856 -0.479565 0
M  V30 27 H 3.28432 -1.49959 -0.893224 0
M  V30 28 H 3.37132 -0.111721 -1.98904 0
M  V30 29 H 1.11247 -1.01577 -1.44916 0
M  V30 30 H 1.31998 0.760603 -1.28021 0
M  V30 31 H -2.89007 -0.794285 -1.87004 0
M  V30 32 H -4.22273 -1.34784 -0.90374 0
M  V30 END ATOM
M  V30 BEGIN BOND
M  V30 1 1 1 2
M  V30 2 1 2 3
M  V30 3 1 3 4
M  V30 4 1 4 5
M  V30 5 2 5 6
M  V30 6 1 5 7
M  V30 7 1 7 8
M  V30 8 1 8 9
M  V30 9 1 9 10
M  V30 10 1 10 11
M  V30 11 1 11 12
M  V30 12 1 3 13
M  V30 13 1 12 7
M  V30 14 1 1 14
M  V30 15 1 1 15
M  V30 16 1 2 16
M  V30 17 1 2 17
M  V30 18 1 3 18
M  V30 19 1 4 19
M  V30 20 1 4 20
M  V30 21 1 8 21
M  V30 22 1 8 22
M  V30 23 1 9 23
M  V30 24 1 9 24
M  V30 25 1 10 25
M  V30 26 1 10 26
M  V30 27 1 11 27
M  V30 28 1 11 28
M  V30 29 1 12 29
M  V30 30 1 12 30
M  V30 31 1 13 31
M  V30 32 1 13 32
M  V30 END BOND
M  V30 END CTAB
M  END
