
     RDKit          3D

  0  0  0  0  0  0  0  0  0  0999 V3000
M  V30 BEGIN CTAB
M  V30 COUNTS 54 57 0 0 0
M  V30 BEGIN ATOM
M  V30 1 N 6.95923 -2.34889 0.0250743 0
M  V30 2 C 5.54211 -2.33212 0.2999 0
M  V30 3 C 5.09821 -1.15453 1.16463 0
M  V30 4 C 5.02511 -0.335979 -0.103721 0
M  V30 5 C 4.81134 -1.64189 -0.859303 0
M  V30 6 C 3.917 0.620352 -0.173284 0
M  V30 7 C 2.60859 0.308067 0.125802 0
M  V30 8 C 1.6112 1.26381 0.0382336 0
M  V30 9 N 1.97347 2.49807 -0.347996 0
M  V30 10 C 3.2451 2.84407 -0.649935 0
M  V30 11 N 4.17975 1.88331 -0.550645 0
M  V30 12 N 3.54623 4.17155 -1.05067 0
M  V30 13 N 0.240866 0.971069 0.342446 0
M  V30 14 C -0.177493 -0.344394 0.757722 0
M  V30 15 C -1.58722 -0.189641 1.3445 0
M  V30 16 N -2.42356 0.307643 0.323752 0
M  V30 17 C -2.08271 1.52325 -0.270342 0
M  V30 18 C -0.737402 2.00276 0.233417 0
M  V30 19 C -3.7461 -0.147691 0.259182 0
M  V30 20 C -4.503 0.461791 -0.871081 0
M  V30 21 C -6.01464 0.277569 -0.680548 0
M  V30 22 C -6.28727 -0.932286 0.150354 0
M  V30 23 C -5.30757 -2.03544 -0.188826 0
M  V30 24 C -3.88662 -1.65897 0.141005 0
M  V30 25 H 7.20025 -1.93129 -0.899528 0
M  V30 26 H 7.53654 -1.97872 0.81542 0
M  V30 27 H 5.09257 -3.30158 0.589185 0
M  V30 28 H 4.11785 -1.38853 1.62461 0
M  V30 29 H 5.86464 -0.77521 1.85368 0
M  V30 30 H 6.0073 0.0735693 -0.373376 0
M  V30 31 H 3.74203 -1.91671 -0.924252 0
M  V30 32 H 5.37594 -1.72014 -1.81072 0
M  V30 33 H 2.35716 -0.687621 0.430627 0
M  V30 34 H 3.21637 4.5022 -1.9718 0
M  V30 35 H 4.08995 4.79864 -0.425532 0
M  V30 36 H 0.508077 -0.826196 1.46553 0
M  V30 37 H -0.288323 -0.949044 -0.189317 0
M  V30 38 H -1.88633 -1.16926 1.69764 0
M  V30 39 H -1.5379 0.507597 2.20499 0
M  V30 40 H -2.80732 2.33543 0.0345854 0
M  V30 41 H -2.03986 1.42125 -1.37211 0
M  V30 42 H -0.390583 2.76685 -0.522993 0
M  V30 43 H -0.867454 2.59235 1.17592 0
M  V30 44 H -4.28365 0.131879 1.20528 0
M  V30 45 H -4.20177 -0.0834028 -1.81085 0
M  V30 46 H -4.34344 1.52486 -1.03281 0
M  V30 47 H -6.55284 0.29869 -1.64041 0
M  V30 48 H -6.3863 1.17103 -0.0996498 0
M  V30 49 H -6.25779 -0.666366 1.22734 0
M  V30 50 H -7.29754 -1.31361 -0.109252 0
M  V30 51 H -5.6494 -2.94417 0.36852 0
M  V30 52 H -5.44697 -2.27141 -1.2644 0
M  V30 53 H -3.24815 -2.03476 -0.687099 0
M  V30 54 H -3.6277 -2.17782 1.0863 0
M  V30 END ATOM
M  V30 BEGIN BOND
M  V30 1 1 1 2
M  V30 2 1 2 3
M  V30 3 1 3 4
M  V30 4 1 4 5
M  V30 5 1 4 6
M  V30 6 2 6 7
M  V30 7 1 7 8
M  V30 8 2 8 9
M  V30 9 1 9 10
M  V30 10 2 10 11
M  V30 11 1 10 12
M  V30 12 1 8 13
M  V30 13 1 13 14
M  V30 14 1 14 15
M  V30 15 1 15 16
M  V30 16 1 16 17
M  V30 17 1 17 18
M  V30 18 1 16 19
M  V30 19 1 19 20
M  V30 20 1 20 21
M  V30 21 1 21 22
M  V30 22 1 22 23
M  V30 23 1 23 24
M  V30 24 1 5 2
M  V30 25 1 11 6
M  V30 26 1 18 13
M  V30 27 1 24 19
M  V30 28 1 1 25
M  V30 29 1 1 26
M  V30 30 1 2 27
M  V30 31 1 3 28
M  V30 32 1 3 29
M  V30 33 1 4 30
M  V30 34 1 5 31
M  V30 35 1 5 32
M  V30 36 1 7 33
M  V30 37 1 12 34
M  V30 38 1 12 35
M  V30 39 1 14 36
M  V30 40 1 14 37
M  V30 41 1 15 38
M  V30 42 1 15 39
M  V30 43 1 17 40
M  V30 44 1 17 41
M  V30 45 1 18 42
M  V30 46 1 18 43
M  V30 47 1 19 44
M  V30 48 1 20 45
M  V30 49 1 20 46
M  V30 50 1 21 47
M  V30 51 1 21 48
M  V30 52 1 22 49
M  V30 53 1 22 50
M  V30 54 1 23 51
M  V30 55 1 23 52
M  V30 56 1 24 53
M  V30 57 1 24 54
M  V30 END BOND
M  V30 END CTAB
M  END
