
     RDKit          3D

  0  0  0  0  0  0  0  0  0  0999 V3000
M  V30 BEGIN CTAB
M  V30 COUNTS 25 25 0 0 0
M  V30 BEGIN ATOM
M  V30 1 C 4.36386 0.0295366 -0.16876 0
M  V30 2 O 3.33857 0.93479 0.252336 0
M  V30 3 C 2.01838 0.472765 0.194481 0
M  V30 4 O 1.82395 -0.701803 -0.223601 0
M  V30 5 C 0.866639 1.33455 0.611854 0
M  V30 6 C -0.378674 0.548132 0.441902 0
M  V30 7 C -0.960893 0.382601 -0.797972 0
M  V30 8 N -0.347794 1.00465 -1.91517 0
M  V30 9 C -2.12629 -0.368593 -0.943829 0
M  V30 10 C -2.74104 -0.971829 0.126504 0
M  V30 11 C -2.15252 -0.80168 1.36299 0
M  V30 12 C -0.98474 -0.0529241 1.53171 0
M  V30 13 Br -0.189641 0.161417 3.24399 0
M  V30 14 N -3.94599 -1.7393 0.00544699 0
M  V30 15 H 3.94194 -0.540164 -1.03646 0
M  V30 16 H 5.28449 0.549128 -0.44 0
M  V30 17 H 4.52644 -0.752492 0.617846 0
M  V30 18 H 0.885769 2.22523 -0.0538322 0
M  V30 19 H 1.0213 1.56818 1.67737 0
M  V30 20 H -0.141563 2.02562 -1.93539 0
M  V30 21 H -0.0874576 0.455518 -2.75988 0
M  V30 22 H -2.55281 -0.475565 -1.91957 0
M  V30 23 H -2.62567 -1.27055 2.21967 0
M  V30 24 H -4.84797 -1.24323 -0.180177 0
M  V30 25 H -3.98828 -2.77398 0.0885451 0
M  V30 END ATOM
M  V30 BEGIN BOND
M  V30 1 1 1 2
M  V30 2 1 2 3
M  V30 3 2 3 4
M  V30 4 1 3 5
M  V30 5 1 5 6
M  V30 6 2 6 7
M  V30 7 1 7 8
M  V30 8 1 7 9
M  V30 9 2 9 10
M  V30 10 1 10 11
M  V30 11 2 11 12
M  V30 12 1 12 13
M  V30 13 1 10 14
M  V30 14 1 12 6
M  V30 15 1 1 15
M  V30 16 1 1 16
M  V30 17 1 1 17
M  V30 18 1 5 18
M  V30 19 1 5 19
M  V30 20 1 8 20
M  V30 21 1 8 21
M  V30 22 1 9 22
M  V30 23 1 11 23
M  V30 24 1 14 24
M  V30 25 1 14 25
M  V30 END BOND
M  V30 END CTAB
M  END
