
     RDKit          3D

  0  0  0  0  0  0  0  0  0  0999 V3000
M  V30 BEGIN CTAB
M  V30 COUNTS 26 26 0 0 0
M  V30 BEGIN ATOM
M  V30 1 C 3.64066 0.695747 -0.79628 0
M  V30 2 C 2.98945 0.851869 0.529193 0
M  V30 3 C 1.48856 0.841694 0.484424 0
M  V30 4 O 0.943738 -0.328264 -0.0313764 0
M  V30 5 C -0.434559 -0.430466 -0.112243 0
M  V30 6 C -1.24675 0.589637 0.302852 0
M  V30 7 C -2.60902 0.446654 0.204952 0
M  V30 8 N -3.47253 1.49334 0.630063 0
M  V30 9 C -3.17191 -0.694055 -0.298806 0
M  V30 10 C -2.37588 -1.73063 -0.721393 0
M  V30 11 C -1.01501 -1.56839 -0.615279 0
M  V30 12 N -0.139802 -2.62286 -1.0434 0
M  V30 13 H 3.55186 -0.326433 -1.22409 0
M  V30 14 H 3.27734 1.42487 -1.55315 0
M  V30 15 H 4.72699 0.886384 -0.674801 0
M  V30 16 H 3.37038 1.76429 1.01699 0
M  V30 17 H 3.30168 -0.00359536 1.17046 0
M  V30 18 H 1.06902 1.05629 1.48559 0
M  V30 19 H 1.18585 1.72471 -0.151424 0
M  V30 20 H -0.827931 1.51775 0.711666 0
M  V30 21 H -3.39409 2.44824 0.177946 0
M  V30 22 H -4.18384 1.35195 1.37547 0
M  V30 23 H -4.2392 -0.781302 -0.364902 0
M  V30 24 H -2.77766 -2.62921 -1.1171 0
M  V30 25 H 0.333288 -2.5059 -1.96129 0
M  V30 26 H 0.00935238 -3.47232 -0.447028 0
M  V30 END ATOM
M  V30 BEGIN BOND
M  V30 1 1 1 2
M  V30 2 1 2 3
M  V30 3 1 3 4
M  V30 4 1 4 5
M  V30 5 2 5 6
M  V30 6 1 6 7
M  V30 7 1 7 8
M  V30 8 2 7 9
M  V30 9 1 9 10
M  V30 10 2 10 11
M  V30 11 1 11 12
M  V30 12 1 11 5
M  V30 13 1 1 13
M  V30 14 1 1 14
M  V30 15 1 1 15
M  V30 16 1 2 16
M  V30 17 1 2 17
M  V30 18 1 3 18
M  V30 19 1 3 19
M  V30 20 1 6 20
M  V30 21 1 8 21
M  V30 22 1 8 22
M  V30 23 1 9 23
M  V30 24 1 10 24
M  V30 25 1 12 25
M  V30 26 1 12 26
M  V30 END BOND
M  V30 END CTAB
M  END
