
     RDKit          3D

  0  0  0  0  0  0  0  0  0  0999 V3000
M  V30 BEGIN CTAB
M  V30 COUNTS 49 51 0 0 0
M  V30 BEGIN ATOM
M  V30 1 N -7.03676 -0.837227 0.494674 0
M  V30 2 C -6.1973 0.258425 0.192975 0
M  V30 3 N -4.87506 0.126207 0.392035 0
M  V30 4 C -4.03623 1.12788 0.124354 0
M  V30 5 C -4.56937 2.30734 -0.364617 0
M  V30 6 N -3.54881 3.13531 -0.548499 0
M  V30 7 C -2.42442 2.49603 -0.188022 0
M  V30 8 N -2.70235 1.25462 0.230761 0
M  V30 9 C -1.72644 0.316665 0.682654 0 CFG=1
M  V30 10 C -2.12186 -1.11791 0.417997 0
M  V30 11 C -0.773163 -1.81104 0.424866 0 CFG=2
M  V30 12 N -0.616055 -2.70744 1.53197 0
M  V30 13 N -1.48501 -2.93645 2.36805 0 CHG=1
M  V30 14 N -2.45767 -3.45042 2.94675 0 CHG=-1
M  V30 15 C 0.182574 -0.655892 0.57234 0 CFG=1
M  V30 16 C 1.50071 -0.907278 -0.111812 0
M  V30 17 O 2.18336 -1.96539 0.480477 0
M  V30 18 P 3.65461 -2.22373 -0.305819 0
M  V30 19 O 3.44632 -3.27383 -1.63974 0
M  V30 20 O 4.64795 -2.8907 0.625901 0
M  V30 21 O 4.30539 -0.759711 -0.798429 0
M  V30 22 P 5.98133 -0.705662 -0.580941 0
M  V30 23 O 6.66474 -1.81042 -1.6696 0
M  V30 24 O 6.34636 -1.05056 0.851221 0
M  V30 25 O 6.50802 0.840801 -0.987711 0
M  V30 26 P 6.37641 1.89097 0.344658 0
M  V30 27 O 7.47377 3.1475 0.101962 0
M  V30 28 O 6.8141 1.10433 1.7775 0
M  V30 29 O 5.00328 2.47359 0.459835 0
M  V30 30 O -0.515395 0.401611 -0.00941012 0
M  V30 31 C -5.92631 2.46526 -0.576971 0
M  V30 32 N -6.45637 3.68082 -1.07869 0
M  V30 33 N -6.72287 1.42141 -0.289147 0
M  V30 34 H -7.08768 -1.19253 1.46335 0
M  V30 35 H -7.59492 -1.27666 -0.255876 0
M  V30 36 H -1.43903 2.93962 -0.236434 0
M  V30 37 H -1.49252 0.392687 1.76375 0
M  V30 38 H -2.53575 -1.23195 -0.61189 0
M  V30 39 H -2.80532 -1.50454 1.18902 0
M  V30 40 H -0.577068 -2.34544 -0.527124 0
M  V30 41 H 0.317933 -0.385932 1.63921 0
M  V30 42 H 1.40787 -0.98226 -1.19699 0
M  V30 43 H 2.12973 0.00512573 0.084718 0
M  V30 44 H 3.65251 -4.21568 -1.38517 0
M  V30 45 H 6.89045 -2.61808 -1.14185 0
M  V30 46 H 7.79038 3.52618 0.980924 0
M  V30 47 H 7.76435 1.25934 1.96612 0
M  V30 48 H -6.89388 4.3654 -0.430239 0
M  V30 49 H -6.42455 3.91963 -2.08788 0
M  V30 END ATOM
M  V30 BEGIN BOND
M  V30 1 1 1 2
M  V30 2 2 2 3
M  V30 3 1 3 4
M  V30 4 2 4 5
M  V30 5 1 5 6
M  V30 6 2 6 7
M  V30 7 1 7 8
M  V30 8 1 8 9
M  V30 9 1 9 10
M  V30 10 1 10 11
M  V30 11 1 11 12
M  V30 12 2 12 13 CFG=2
M  V30 13 2 13 14
M  V30 14 1 11 15
M  V30 15 1 15 16
M  V30 16 1 16 17
M  V30 17 1 17 18
M  V30 18 1 18 19
M  V30 19 2 18 20
M  V30 20 1 18 21
M  V30 21 1 21 22
M  V30 22 1 22 23
M  V30 23 2 22 24
M  V30 24 1 22 25
M  V30 25 1 25 26
M  V30 26 1 26 27
M  V30 27 1 26 28
M  V30 28 2 26 29
M  V30 29 1 15 30
M  V30 30 1 5 31
M  V30 31 1 31 32
M  V30 32 2 31 33
M  V30 33 1 33 2
M  V30 34 1 8 4
M  V30 35 1 30 9
M  V30 36 1 1 34
M  V30 37 1 1 35
M  V30 38 1 7 36
M  V30 39 1 9 37 CFG=1
M  V30 40 1 10 38
M  V30 41 1 10 39
M  V30 42 1 11 40 CFG=3
M  V30 43 1 15 41 CFG=1
M  V30 44 1 16 42
M  V30 45 1 16 43
M  V30 46 1 19 44
M  V30 47 1 23 45
M  V30 48 1 27 46
M  V30 49 1 28 47
M  V30 50 1 32 48
M  V30 51 1 32 49
M  V30 END BOND
M  V30 END CTAB
M  END
