
     RDKit          3D

  0  0  0  0  0  0  0  0  0  0999 V3000
M  V30 BEGIN CTAB
M  V30 COUNTS 28 28 0 0 0
M  V30 BEGIN ATOM
M  V30 1 N 2.0805 0.795194 1.5806 0
M  V30 2 C 2.14259 0.174791 0.30158 0
M  V30 3 N 3.32217 -0.0508083 -0.168301 0
M  V30 4 C 0.932854 -0.204012 -0.474233 0
M  V30 5 N 1.34989 -0.810543 -1.72577 0
M  V30 6 C 0.0779134 0.978987 -0.827945 0
M  V30 7 C -0.810204 1.4468 0.267679 0
M  V30 8 C -2.19085 0.822314 0.0808947 0
M  V30 9 C -2.14082 -0.519342 0.812794 0
M  V30 10 C -1.22873 -1.40918 -0.0352393 0
M  V30 11 C 0.204262 -1.25511 0.317673 0
M  V30 12 H 2.17705 1.81822 1.70653 0
M  V30 13 H 1.93091 0.159831 2.39599 0
M  V30 14 H 3.41882 -0.498061 -1.09055 0
M  V30 15 H 0.533378 -1.24884 -2.20289 0
M  V30 16 H 1.64655 -0.00468846 -2.34418 0
M  V30 17 H -0.546544 0.677878 -1.71008 0
M  V30 18 H 0.762343 1.76779 -1.2201 0
M  V30 19 H -0.467248 1.16646 1.27666 0
M  V30 20 H -0.956807 2.54254 0.154381 0
M  V30 21 H -2.41286 0.650708 -0.995243 0
M  V30 22 H -2.96645 1.41546 0.59302 0
M  V30 23 H -1.73488 -0.365122 1.82207 0
M  V30 24 H -3.14817 -0.983169 0.840858 0
M  V30 25 H -1.46734 -1.2758 -1.10074 0
M  V30 26 H -1.53747 -2.45943 0.228621 0
M  V30 27 H 0.736917 -2.22886 0.109667 0
M  V30 28 H 0.292237 -1.10401 1.40628 0
M  V30 END ATOM
M  V30 BEGIN BOND
M  V30 1 1 1 2
M  V30 2 2 2 3 CFG=2
M  V30 3 1 2 4
M  V30 4 1 4 5
M  V30 5 1 4 6
M  V30 6 1 6 7
M  V30 7 1 7 8
M  V30 8 1 8 9
M  V30 9 1 9 10
M  V30 10 1 10 11
M  V30 11 1 11 4
M  V30 12 1 1 12
M  V30 13 1 1 13
M  V30 14 1 3 14
M  V30 15 1 5 15
M  V30 16 1 5 16
M  V30 17 1 6 17
M  V30 18 1 6 18
M  V30 19 1 7 19
M  V30 20 1 7 20
M  V30 21 1 8 21
M  V30 22 1 8 22
M  V30 23 1 9 23
M  V30 24 1 9 24
M  V30 25 1 10 25
M  V30 26 1 10 26
M  V30 27 1 11 27
M  V30 28 1 11 28
M  V30 END BOND
M  V30 END CTAB
M  END
