
     RDKit          3D

 24 25  0  0  0  0  0  0  0  0999 V2000
    2.2459    2.1034    4.0013 N   0  0  0  0  0  0  0  0  0  0  0  0
    1.8655    1.7935    2.6918 C   0  0  0  0  0  0  0  0  0  0  0  0
    2.6081    0.8988    1.9307 C   0  0  0  0  0  0  0  0  0  0  0  0
    2.1525    0.5033    0.6705 C   0  0  0  0  0  0  0  0  0  0  0  0
    0.9289    0.9773    0.1947 C   0  0  0  0  0  0  0  0  0  0  0  0
    0.3973    0.5958   -1.1369 C   0  0  0  0  0  0  0  0  0  0  0  0
   -0.8263    1.0698   -1.6127 C   0  0  0  0  0  0  0  0  0  0  0  0
   -1.2819    0.6743   -2.8729 C   0  0  0  0  0  0  0  0  0  0  0  0
   -0.5393   -0.2204   -3.6339 C   0  0  0  0  0  0  0  0  0  0  0  0
   -0.9197   -0.5304   -4.9434 N   0  0  0  0  0  0  0  0  0  0  0  0
    0.6959   -0.5935   -3.1123 C   0  0  0  0  0  0  0  0  0  0  0  0
    1.1675   -0.2341   -1.8923 N   0  0  0  0  0  0  0  0  0  0  0  0
    0.1587    1.8072    0.9500 N   0  0  0  0  0  0  0  0  0  0  0  0
    0.6303    2.1666    2.1701 C   0  0  0  0  0  0  0  0  0  0  0  0
    3.2473    2.0489    4.1625 H   0  0  0  0  0  0  0  0  0  0  0  0
    1.8462    2.9665    4.3575 H   0  0  0  0  0  0  0  0  0  0  0  0
    3.5463    0.4986    2.3035 H   0  0  0  0  0  0  0  0  0  0  0  0
    2.7484   -0.1801    0.0722 H   0  0  0  0  0  0  0  0  0  0  0  0
   -1.4222    1.7532   -1.0144 H   0  0  0  0  0  0  0  0  0  0  0  0
   -2.2201    1.0744   -3.2457 H   0  0  0  0  0  0  0  0  0  0  0  0
   -1.9211   -0.4759   -5.1046 H   0  0  0  0  0  0  0  0  0  0  0  0
   -0.5200   -1.3935   -5.2996 H   0  0  0  0  0  0  0  0  0  0  0  0
    1.3724   -1.2212   -3.6853 H   0  0  0  0  0  0  0  0  0  0  0  0
   -0.0462    2.7943    2.7431 H   0  0  0  0  0  0  0  0  0  0  0  0
  1  2  1  0
  2  3  2  0
  3  4  1  0
  4  5  2  0
  5  6  1  0
  6  7  2  0
  7  8  1  0
  8  9  2  0
  9 10  1  0
  9 11  1  0
 11 12  2  0
  5 13  1  0
 13 14  2  0
 14  2  1  0
 12  6  1  0
  1 15  1  0
  1 16  1  0
  3 17  1  0
  4 18  1  0
  7 19  1  0
  8 20  1  0
 10 21  1  0
 10 22  1  0
 11 23  1  0
 14 24  1  0
M  END
