
     RDKit          3D

  0  0  0  0  0  0  0  0  0  0999 V3000
M  V30 BEGIN CTAB
M  V30 COUNTS 32 33 0 0 0
M  V30 BEGIN ATOM
M  V30 1 N 2.14017 -1.997 -0.731599 0
M  V30 2 C 2.08238 -1.53223 0.65759 0
M  V30 3 C 1.91301 -0.0789319 0.682878 0
M  V30 4 N 0.763068 0.57418 0.27861 0
M  V30 5 C 1.16346 1.97504 0.155934 0
M  V30 6 C 0.0840341 2.98019 0.165328 0
M  V30 7 O -0.959258 2.46626 -0.614755 0
M  V30 8 C -0.582191 1.43966 -1.40482 0
M  V30 9 C -0.224602 0.137626 -0.598781 0 CFG=2
M  V30 10 C -1.51534 -0.306035 -0.0182263 0
M  V30 11 C -2.52582 0.456731 0.52701 0
M  V30 12 N -3.51583 -0.341224 1.0273 0
M  V30 13 N -3.15867 -1.5617 0.81486 0
M  V30 14 C -1.96677 -1.61373 0.189641 0
M  V30 15 N -1.39094 -2.82438 -0.220258 0
M  V30 16 H 1.91758 -2.99056 -0.83619 0
M  V30 17 H 3.15051 -1.90103 -1.02712 0
M  V30 18 H 1.2625 -2.08142 1.1841 0
M  V30 19 H 3.02102 -1.84603 1.12779 0
M  V30 20 H 2.23375 0.3304 1.6937 0
M  V30 21 H 2.81443 0.329545 0.0433212 0
M  V30 22 H 1.94093 2.16795 0.927787 0
M  V30 23 H 1.72883 2.01277 -0.835907 0
M  V30 24 H -0.256993 3.18312 1.18586 0
M  V30 25 H 0.487386 3.917 -0.27936 0
M  V30 26 H -1.4995 1.08755 -1.96084 0
M  V30 27 H 0.175536 1.60936 -2.15506 0
M  V30 28 H 0.0878307 -0.563632 -1.37616 0
M  V30 29 H -2.61529 1.50708 0.619099 0
M  V30 30 H -4.37211 0.00125767 1.48701 0
M  V30 31 H -0.645845 -2.81388 -0.909798 0
M  V30 32 H -1.73726 -3.72393 0.155999 0
M  V30 END ATOM
M  V30 BEGIN BOND
M  V30 1 1 1 2
M  V30 2 1 2 3
M  V30 3 1 3 4
M  V30 4 1 4 5
M  V30 5 1 5 6
M  V30 6 1 6 7
M  V30 7 1 7 8
M  V30 8 1 8 9
M  V30 9 1 9 10
M  V30 10 2 10 11
M  V30 11 1 11 12
M  V30 12 1 12 13
M  V30 13 2 13 14
M  V30 14 1 14 15
M  V30 15 1 9 4
M  V30 16 1 14 10
M  V30 17 1 1 16
M  V30 18 1 1 17
M  V30 19 1 2 18
M  V30 20 1 2 19
M  V30 21 1 3 20
M  V30 22 1 3 21
M  V30 23 1 5 22
M  V30 24 1 5 23
M  V30 25 1 6 24
M  V30 26 1 6 25
M  V30 27 1 8 26
M  V30 28 1 8 27
M  V30 29 1 9 28 CFG=3
M  V30 30 1 11 29
M  V30 31 1 12 30
M  V30 32 1 15 31
M  V30 33 1 15 32
M  V30 END BOND
M  V30 END CTAB
M  END
