
     RDKit          3D

  0  0  0  0  0  0  0  0  0  0999 V3000
M  V30 BEGIN CTAB
M  V30 COUNTS 46 49 0 0 0
M  V30 BEGIN ATOM
M  V30 1 Cl -5.15183 4.87695 2.23063 0
M  V30 2 C -3.96337 3.84994 1.47413 0
M  V30 3 C -2.82133 4.37144 0.912917 0
M  V30 4 C -1.87779 3.57004 0.314368 0
M  V30 5 C -2.01786 2.17567 0.237751 0
M  V30 6 C -3.15208 1.67675 0.796596 0
M  V30 7 C -4.12307 2.50052 1.41261 0
M  V30 8 C -0.985855 1.39523 -0.425998 0
M  V30 9 N 0.0648516 2.01473 -1.08787 0
M  V30 10 N 0.878306 1.12847 -1.59128 0
M  V30 11 C 0.413326 -0.0882474 -1.29176 0
M  V30 12 N -0.73991 0.116605 -0.570527 0
M  V30 13 C -1.48619 -0.977294 -0.0730258 0
M  V30 14 C -1.30015 -1.46409 1.22928 0
M  V30 15 C -1.97712 -2.54618 1.71755 0
M  V30 16 C -2.89342 -3.21549 0.921394 0
M  V30 17 C -3.1056 -2.76923 -0.364567 0
M  V30 18 C -2.41813 -1.68127 -0.840296 0
M  V30 19 C -2.66998 -1.23068 -2.22535 0
M  V30 20 S 1.0751 -1.69028 -1.69458 0
M  V30 21 C 2.222 -2.26632 -0.416673 0
M  V30 22 C 3.44681 -1.44191 -0.337945 0
M  V30 23 N 3.43975 -0.379945 0.488465 0
M  V30 24 C 4.47592 0.431685 0.64403 0
M  V30 25 N 4.47758 1.55845 1.51622 0
M  V30 26 N 5.59081 0.174526 -0.0649645 0
M  V30 27 C 5.62266 -0.889946 -0.904567 0
M  V30 28 N 4.55719 -1.70077 -1.04603 0
M  V30 29 N 6.83263 -1.10013 -1.61953 0
M  V30 30 H -2.69541 5.45208 0.964104 0
M  V30 31 H -0.990467 4.00825 -0.116726 0
M  V30 32 H -3.36903 0.631905 0.785685 0
M  V30 33 H -4.99581 2.04215 1.83511 0
M  V30 34 H -0.593382 -0.957486 1.86147 0
M  V30 35 H -1.80696 -2.89725 2.73499 0
M  V30 36 H -3.42605 -4.07052 1.31247 0
M  V30 37 H -3.8259 -3.31018 -0.964638 0
M  V30 38 H -2.2899 -2.01993 -2.91162 0
M  V30 39 H -3.77351 -1.0629 -2.39064 0
M  V30 40 H -2.20594 -0.24311 -2.39355 0
M  V30 41 H 1.68963 -2.20581 0.572868 0
M  V30 42 H 2.47647 -3.32505 -0.574683 0
M  V30 43 H 3.57477 1.80296 1.97601 0
M  V30 44 H 5.32719 2.11094 1.69011 0
M  V30 45 H 7.19977 -0.345026 -2.20337 0
M  V30 46 H 7.29126 -2.01021 -1.51859 0
M  V30 END ATOM
M  V30 BEGIN BOND
M  V30 1 1 1 2
M  V30 2 2 2 3
M  V30 3 1 3 4
M  V30 4 2 4 5
M  V30 5 1 5 6
M  V30 6 2 6 7
M  V30 7 1 5 8
M  V30 8 2 8 9
M  V30 9 1 9 10
M  V30 10 2 10 11
M  V30 11 1 11 12
M  V30 12 1 12 13
M  V30 13 2 13 14
M  V30 14 1 14 15
M  V30 15 2 15 16
M  V30 16 1 16 17
M  V30 17 2 17 18
M  V30 18 1 18 19
M  V30 19 1 11 20
M  V30 20 1 20 21
M  V30 21 1 21 22
M  V30 22 2 22 23
M  V30 23 1 23 24
M  V30 24 1 24 25
M  V30 25 2 24 26
M  V30 26 1 26 27
M  V30 27 2 27 28
M  V30 28 1 27 29
M  V30 29 1 7 2
M  V30 30 1 12 8
M  V30 31 1 18 13
M  V30 32 1 28 22
M  V30 33 1 3 30
M  V30 34 1 4 31
M  V30 35 1 6 32
M  V30 36 1 7 33
M  V30 37 1 14 34
M  V30 38 1 15 35
M  V30 39 1 16 36
M  V30 40 1 17 37
M  V30 41 1 19 38
M  V30 42 1 19 39
M  V30 43 1 19 40
M  V30 44 1 21 41
M  V30 45 1 21 42
M  V30 46 1 25 43
M  V30 47 1 25 44
M  V30 48 1 29 45
M  V30 49 1 29 46
M  V30 END BOND
M  V30 END CTAB
M  END
