
     RDKit          3D

  0  0  0  0  0  0  0  0  0  0999 V3000
M  V30 BEGIN CTAB
M  V30 COUNTS 20 20 0 0 0
M  V30 BEGIN ATOM
M  V30 1 N 2.68022 -1.17041 0.153501 0
M  V30 2 C 1.56021 -0.31765 0.136889 0
M  V30 3 C 1.70645 1.01928 0.396544 0
M  V30 4 C 0.603033 1.84179 0.377023 0
M  V30 5 C -0.643354 1.29296 0.092219 0
M  V30 6 C -0.79972 -0.0513884 -0.170271 0
M  V30 7 C 0.322304 -0.862539 -0.145936 0
M  V30 8 O 0.138491 -2.21442 -0.413882 0
M  V30 9 C -2.10161 -0.620131 -0.466947 0
M  V30 10 O -3.12086 0.114446 -0.489458 0
M  V30 11 O -2.27341 -1.96358 -0.731599 0
M  V30 12 N -1.78907 2.14171 0.0709986 0
M  V30 13 H 2.8171 -1.94153 0.838449 0
M  V30 14 H 3.42561 -1.03248 -0.557847 0
M  V30 15 H 2.70261 1.41939 0.617329 0
M  V30 16 H 0.726683 2.90055 0.583819 0
M  V30 17 H 0.96947 -2.7968 -0.392575 0
M  V30 18 H -2.50784 -2.66893 -0.0749182 0
M  V30 19 H -2.14247 2.50173 0.983301 0
M  V30 20 H -2.27385 2.40799 -0.806637 0
M  V30 END ATOM
M  V30 BEGIN BOND
M  V30 1 1 1 2
M  V30 2 2 2 3
M  V30 3 1 3 4
M  V30 4 2 4 5
M  V30 5 1 5 6
M  V30 6 2 6 7
M  V30 7 1 7 8
M  V30 8 1 6 9
M  V30 9 2 9 10
M  V30 10 1 9 11
M  V30 11 1 5 12
M  V30 12 1 7 2
M  V30 13 1 1 13
M  V30 14 1 1 14
M  V30 15 1 3 15
M  V30 16 1 4 16
M  V30 17 1 8 17
M  V30 18 1 11 18
M  V30 19 1 12 19
M  V30 20 1 12 20
M  V30 END BOND
M  V30 END CTAB
M  END
