
     RDKit          3D

  0  0  0  0  0  0  0  0  0  0999 V3000
M  V30 BEGIN CTAB
M  V30 COUNTS 42 44 0 0 0
M  V30 BEGIN ATOM
M  V30 1 N 0.112416 5.07187 -0.591715 0
M  V30 2 C 0.107817 3.6626 -0.346447 0
M  V30 3 C 0.274016 2.76384 -1.36981 0
M  V30 4 C 0.262404 1.41696 -1.08509 0
M  V30 5 C 0.0914716 0.89848 0.185673 0
M  V30 6 C -0.0738265 1.85625 1.19384 0
M  V30 7 C -0.0661619 3.19563 0.937779 0
M  V30 8 C 0.0796458 -0.531705 0.489697 0
M  V30 9 C -0.89937 -1.36573 -0.262833 0
M  V30 10 C -2.31688 -1.00235 -0.0697035 0
M  V30 11 C -3.05892 -1.52579 0.989008 0
M  V30 12 C -4.37241 -1.23331 1.20538 0
M  V30 13 C -5.02195 -0.378501 0.346677 0
M  V30 14 C -4.33529 0.162006 -0.70965 0
M  V30 15 C -2.98642 -0.151529 -0.91424 0
M  V30 16 C 1.42993 -1.14474 0.447747 0
M  V30 17 C 1.96027 -1.75292 -0.665424 0
M  V30 18 C 3.22832 -2.30954 -0.660502 0
M  V30 19 C 4.01208 -2.26839 0.486895 0
M  V30 20 N 5.31183 -2.84608 0.470692 0
M  V30 21 C 3.48877 -1.66032 1.60895 0
M  V30 22 C 2.2088 -1.10718 1.57812 0
M  V30 23 H 0.366715 5.41142 -1.54949 0
M  V30 24 H -0.125077 5.74548 0.141798 0
M  V30 25 H 0.413713 3.126 -2.39903 0
M  V30 26 H 0.396032 0.74144 -1.91497 0
M  V30 27 H -0.21366 1.51853 2.22032 0
M  V30 28 H -0.194939 3.92822 1.72528 0
M  V30 29 H -0.240147 -0.624504 1.58194 0
M  V30 30 H -0.740222 -2.43184 0.0767747 0
M  V30 31 H -0.704953 -1.39876 -1.35655 0
M  V30 32 H -2.53722 -2.19658 1.65725 0
M  V30 33 H -4.95178 -1.6407 2.03022 0
M  V30 34 H -6.04936 -0.128241 0.486947 0
M  V30 35 H -4.85361 0.833245 -1.3801 0
M  V30 36 H -2.54215 0.314568 -1.76973 0
M  V30 37 H 1.39229 -1.80396 -1.55999 0
M  V30 38 H 3.62702 -2.78719 -1.55805 0
M  V30 39 H 5.41721 -3.86588 0.644415 0
M  V30 40 H 6.11355 -2.20536 0.281326 0
M  V30 41 H 4.11391 -1.6386 2.4912 0
M  V30 42 H 1.87614 -0.646814 2.51076 0
M  V30 END ATOM
M  V30 BEGIN BOND
M  V30 1 1 1 2
M  V30 2 2 2 3
M  V30 3 1 3 4
M  V30 4 2 4 5
M  V30 5 1 5 6
M  V30 6 2 6 7
M  V30 7 1 5 8
M  V30 8 1 8 9
M  V30 9 1 9 10
M  V30 10 2 10 11
M  V30 11 1 11 12
M  V30 12 2 12 13
M  V30 13 1 13 14
M  V30 14 2 14 15
M  V30 15 1 8 16
M  V30 16 2 16 17
M  V30 17 1 17 18
M  V30 18 2 18 19
M  V30 19 1 19 20
M  V30 20 1 19 21
M  V30 21 2 21 22
M  V30 22 1 7 2
M  V30 23 1 15 10
M  V30 24 1 22 16
M  V30 25 1 1 23
M  V30 26 1 1 24
M  V30 27 1 3 25
M  V30 28 1 4 26
M  V30 29 1 6 27
M  V30 30 1 7 28
M  V30 31 1 8 29
M  V30 32 1 9 30
M  V30 33 1 9 31
M  V30 34 1 11 32
M  V30 35 1 12 33
M  V30 36 1 13 34
M  V30 37 1 14 35
M  V30 38 1 15 36
M  V30 39 1 17 37
M  V30 40 1 18 38
M  V30 41 1 20 39
M  V30 42 1 20 40
M  V30 43 1 21 41
M  V30 44 1 22 42
M  V30 END BOND
M  V30 END CTAB
M  END
