
     RDKit          3D

  0  0  0  0  0  0  0  0  0  0999 V3000
M  V30 BEGIN CTAB
M  V30 COUNTS 31 32 0 0 0
M  V30 BEGIN ATOM
M  V30 1 C 5.91009 -0.123234 1.68933 0
M  V30 2 O 5.35539 0.200183 0.424176 0
M  V30 3 C 3.98406 0.250558 0.230561 0
M  V30 4 C 3.10734 -0.0161728 1.27756 0
M  V30 5 C 1.75428 0.04451 1.04353 0
M  V30 6 C 1.24864 0.362974 -0.202375 0
M  V30 7 C 2.14431 0.617502 -1.20163 0
M  V30 8 C 3.52016 0.573031 -1.03115 0
M  V30 9 C -0.185648 0.42907 -0.457392 0
M  V30 10 N -1.06065 0.197516 0.451783 0
M  V30 11 N -2.44064 0.251801 0.242868 0
M  V30 12 C -3.00632 -0.480203 -0.651423 0
M  V30 13 C -4.45319 -0.389155 -0.833869 0
M  V30 14 N -5.22331 -1.06851 -1.71129 0
M  V30 15 O -6.4511 -0.694587 -1.54806 0
M  V30 16 N -6.55234 0.195353 -0.613534 0
M  V30 17 C -5.32448 0.422187 -0.132665 0
M  V30 18 N -4.88828 1.29352 0.885985 0
M  V30 19 N -2.22819 -1.35487 -1.43856 0
M  V30 20 H 5.74706 0.671659 2.44169 0
M  V30 21 H 6.98434 -0.337415 1.59125 0
M  V30 22 H 5.41922 -1.08777 2.00851 0
M  V30 23 H 3.53199 -0.262989 2.24308 0
M  V30 24 H 1.04618 -0.157988 1.83854 0
M  V30 25 H 1.77161 0.869274 -2.18669 0
M  V30 26 H 4.17948 0.785798 -1.86623 0
M  V30 27 H -0.540702 0.681502 -1.44505 0
M  V30 28 H -4.74886 2.29801 0.655943 0
M  V30 29 H -4.71411 0.923714 1.84206 0
M  V30 30 H -1.74322 -2.19964 -1.07788 0
M  V30 31 H -2.14313 -1.11804 -2.46906 0
M  V30 END ATOM
M  V30 BEGIN BOND
M  V30 1 1 1 2
M  V30 2 1 2 3
M  V30 3 2 3 4
M  V30 4 1 4 5
M  V30 5 2 5 6
M  V30 6 1 6 7
M  V30 7 2 7 8
M  V30 8 1 6 9
M  V30 9 2 9 10
M  V30 10 1 10 11
M  V30 11 2 11 12
M  V30 12 1 12 13
M  V30 13 2 13 14
M  V30 14 1 14 15
M  V30 15 1 15 16
M  V30 16 2 16 17
M  V30 17 1 17 18
M  V30 18 1 12 19
M  V30 19 1 8 3
M  V30 20 1 17 13
M  V30 21 1 1 20
M  V30 22 1 1 21
M  V30 23 1 1 22
M  V30 24 1 4 23
M  V30 25 1 5 24
M  V30 26 1 7 25
M  V30 27 1 8 26
M  V30 28 1 9 27
M  V30 29 1 18 28
M  V30 30 1 18 29
M  V30 31 1 19 30
M  V30 32 1 19 31
M  V30 END BOND
M  V30 END CTAB
M  END
