
     RDKit          3D

  0  0  0  0  0  0  0  0  0  0999 V3000
M  V30 BEGIN CTAB
M  V30 COUNTS 22 22 0 0 0
M  V30 BEGIN ATOM
M  V30 1 N -3.11001 -1.15674 -0.707529 0
M  V30 2 C -2.27193 -1.15377 0.466145 0
M  V30 3 C -1.14917 -0.172228 0.345349 0
M  V30 4 C 0.0616236 -0.571109 -0.208321 0
M  V30 5 C 1.13261 0.291504 -0.34478 0
M  V30 6 C 2.41911 -0.16504 -0.942706 0
M  V30 7 N 3.2906 -0.681192 0.12233 0
M  V30 8 C 0.948974 1.58631 0.0979607 0
M  V30 9 C -0.225806 2.0377 0.653872 0
M  V30 10 Cl -0.418209 3.69994 1.20664 0
M  V30 11 C -1.2604 1.13317 0.764986 0
M  V30 12 H -2.81772 -1.96521 -1.29208 0
M  V30 13 H -2.92271 -0.267109 -1.22675 0
M  V30 14 H -1.86779 -2.1894 0.649229 0
M  V30 15 H -2.84603 -0.90804 1.38547 0
M  V30 16 H 0.185965 -1.57753 -0.54574 0
M  V30 17 H 2.20914 -0.947235 -1.67139 0
M  V30 18 H 2.98229 0.675674 -1.39673 0
M  V30 19 H 3.33197 0.0752675 0.842201 0
M  V30 20 H 2.79244 -1.49889 0.582726 0
M  V30 21 H 1.75431 2.31834 0.0196202 0
M  V30 22 H -2.21926 1.43558 1.1995 0
M  V30 END ATOM
M  V30 BEGIN BOND
M  V30 1 1 1 2
M  V30 2 1 2 3
M  V30 3 2 3 4
M  V30 4 1 4 5
M  V30 5 1 5 6
M  V30 6 1 6 7
M  V30 7 2 5 8
M  V30 8 1 8 9
M  V30 9 1 9 10
M  V30 10 2 9 11
M  V30 11 1 11 3
M  V30 12 1 1 12
M  V30 13 1 1 13
M  V30 14 1 2 14
M  V30 15 1 2 15
M  V30 16 1 4 16
M  V30 17 1 6 17
M  V30 18 1 6 18
M  V30 19 1 7 19
M  V30 20 1 7 20
M  V30 21 1 8 21
M  V30 22 1 11 22
M  V30 END BOND
M  V30 END CTAB
M  END
