
     RDKit          3D

  0  0  0  0  0  0  0  0  0  0999 V3000
M  V30 BEGIN CTAB
M  V30 COUNTS 18 18 0 0 0
M  V30 BEGIN ATOM
M  V30 1 N 2.22955 -1.03651 -0.439107 0
M  V30 2 C 1.16726 -0.148313 -0.115201 0
M  V30 3 C -0.142868 -0.639716 -0.170591 0
M  V30 4 N -0.343479 -1.9772 -0.54111 0
M  V30 5 C -1.16969 0.226575 0.144735 0
M  V30 6 C -0.860869 1.5183 0.494927 0
M  V30 7 C 0.431899 2.01016 0.551614 0
M  V30 8 Br 0.754835 3.82698 1.05148 0
M  V30 9 C 1.46097 1.14694 0.237005 0
M  V30 10 N -2.50765 -0.224631 0.102625 0 CHG=1
M  V30 11 O -3.48679 0.666903 -0.23388 0 CHG=-1
M  V30 12 O -2.79149 -1.40837 0.365746 0
M  V30 13 H 2.22503 -2.02813 -0.113713 0
M  V30 14 H 3.04696 -0.735809 -1.00882 0
M  V30 15 H -0.635012 -2.67889 0.159091 0
M  V30 16 H -0.203852 -2.28318 -1.51718 0
M  V30 17 H -1.65423 2.23558 0.75214 0
M  V30 18 H 2.47941 1.52931 0.280238 0
M  V30 END ATOM
M  V30 BEGIN BOND
M  V30 1 1 1 2
M  V30 2 2 2 3
M  V30 3 1 3 4
M  V30 4 1 3 5
M  V30 5 2 5 6
M  V30 6 1 6 7
M  V30 7 1 7 8
M  V30 8 2 7 9
M  V30 9 1 5 10
M  V30 10 1 10 11
M  V30 11 2 10 12
M  V30 12 1 9 2
M  V30 13 1 1 13
M  V30 14 1 1 14
M  V30 15 1 4 15
M  V30 16 1 4 16
M  V30 17 1 6 17
M  V30 18 1 9 18
M  V30 END BOND
M  V30 END CTAB
M  END
