
     RDKit          3D

  0  0  0  0  0  0  0  0  0  0999 V3000
M  V30 BEGIN CTAB
M  V30 COUNTS 51 54 0 0 0
M  V30 BEGIN ATOM
M  V30 1 C -5.24576 -0.649616 1.67526 0
M  V30 2 C -5.02123 -0.750741 0.184485 0
M  V30 3 C -6.04837 0.00961106 -0.582908 0
M  V30 4 C -5.16356 -2.22577 -0.20397 0
M  V30 5 N -3.68291 -0.288919 -0.097739 0
M  V30 6 C -2.58602 -0.57137 0.602145 0
M  V30 7 C -1.46755 0.0460591 0.0414496 0
M  V30 8 C -1.90603 0.733319 -1.04961 0
M  V30 9 C -1.28526 1.52721 -2.01698 0
M  V30 10 N 0.116513 1.74468 -1.98417 0
M  V30 11 N -2.06868 2.04458 -2.97434 0
M  V30 12 C -3.39333 1.84559 -3.05513 0
M  V30 13 N -3.96527 1.07785 -2.11465 0
M  V30 14 C -3.28654 0.51223 -1.11752 0
M  V30 15 C -0.111383 0.000742801 0.552174 0
M  V30 16 C 0.534528 -1.21489 0.619959 0
M  V30 17 C 1.81392 -1.35369 1.13633 0
M  V30 18 C 2.48582 -0.229739 1.60906 0
M  V30 19 O 3.76606 -0.311061 2.13528 0
M  V30 20 C 4.89035 -0.17324 1.34207 0
M  V30 21 C 6.16816 -0.243895 1.80199 0
M  V30 22 C 7.26854 -0.102305 0.985501 0
M  V30 23 C 7.08994 0.121608 -0.360808 0
M  V30 24 N 8.21073 0.275411 -1.24986 0
M  V30 25 C 5.79944 0.1949 -0.836894 0
M  V30 26 C 4.70537 0.0518772 -0.0116306 0
M  V30 27 C 1.8097 0.965642 1.52532 0
M  V30 28 C 0.547845 1.10304 1.01629 0
M  V30 29 H -4.29464 -0.469038 2.2037 0
M  V30 30 H -5.75579 -1.5658 2.04743 0
M  V30 31 H -5.89401 0.23756 1.92213 0
M  V30 32 H -7.06426 -0.25491 -0.167436 0
M  V30 33 H -5.97624 1.10433 -0.482071 0
M  V30 34 H -6.07498 -0.346162 -1.63221 0
M  V30 35 H -4.62793 -2.86108 0.524147 0
M  V30 36 H -6.24338 -2.47426 -0.204367 0
M  V30 37 H -4.79237 -2.36836 -1.23932 0
M  V30 38 H -2.52621 -1.18898 1.48771 0
M  V30 39 H 0.84438 1.03533 -2.20802 0
M  V30 40 H 0.457965 2.6907 -1.71457 0
M  V30 41 H -3.99252 2.29147 -3.85817 0
M  V30 42 H 0.0478841 -2.12613 0.261195 0
M  V30 43 H 2.32343 -2.30632 1.19089 0
M  V30 44 H 6.31213 -0.420901 2.86627 0
M  V30 45 H 8.2895 -0.165183 1.39149 0
M  V30 46 H 8.61762 -0.607902 -1.64 0
M  V30 47 H 8.56741 1.22103 -1.46846 0
M  V30 48 H 5.63348 0.373516 -1.91133 0
M  V30 49 H 3.71907 0.11472 -0.416339 0
M  V30 50 H 2.3583 1.84154 1.90427 0
M  V30 51 H 0.0961331 2.1057 1.00307 0
M  V30 END ATOM
M  V30 BEGIN BOND
M  V30 1 1 1 2
M  V30 2 1 2 3
M  V30 3 1 2 4
M  V30 4 1 2 5
M  V30 5 1 5 6
M  V30 6 2 6 7
M  V30 7 1 7 8
M  V30 8 2 8 9
M  V30 9 1 9 10
M  V30 10 1 9 11
M  V30 11 2 11 12
M  V30 12 1 12 13
M  V30 13 2 13 14
M  V30 14 1 7 15
M  V30 15 2 15 16
M  V30 16 1 16 17
M  V30 17 2 17 18
M  V30 18 1 18 19
M  V30 19 1 19 20
M  V30 20 2 20 21
M  V30 21 1 21 22
M  V30 22 2 22 23
M  V30 23 1 23 24
M  V30 24 1 23 25
M  V30 25 2 25 26
M  V30 26 1 18 27
M  V30 27 2 27 28
M  V30 28 1 14 5
M  V30 29 1 28 15
M  V30 30 1 14 8
M  V30 31 1 26 20
M  V30 32 1 1 29
M  V30 33 1 1 30
M  V30 34 1 1 31
M  V30 35 1 3 32
M  V30 36 1 3 33
M  V30 37 1 3 34
M  V30 38 1 4 35
M  V30 39 1 4 36
M  V30 40 1 4 37
M  V30 41 1 6 38
M  V30 42 1 10 39
M  V30 43 1 10 40
M  V30 44 1 12 41
M  V30 45 1 16 42
M  V30 46 1 17 43
M  V30 47 1 21 44
M  V30 48 1 22 45
M  V30 49 1 24 46
M  V30 50 1 24 47
M  V30 51 1 25 48
M  V30 52 1 26 49
M  V30 53 1 27 50
M  V30 54 1 28 51
M  V30 END BOND
M  V30 END CTAB
M  END
