
     RDKit          3D

  0  0  0  0  0  0  0  0  0  0999 V3000
M  V30 BEGIN CTAB
M  V30 COUNTS 48 49 0 0 0
M  V30 BEGIN ATOM
M  V30 1 O -1.25666 -1.49482 0.332004 0
M  V30 2 C -1.39055 -0.61912 -0.534568 0
M  V30 3 C -2.68767 -0.30637 -1.13008 0
M  V30 4 C -3.88747 -0.951725 -0.491222 0
M  V30 5 C -5.15404 -0.570745 -1.26116 0
M  V30 6 C -5.62046 0.81504 -0.983905 0
M  V30 7 C -5.86458 0.979785 0.518315 0
M  V30 8 C -4.53148 0.830975 1.17532 0
M  V30 9 C -4.04058 -0.584095 0.958298 0
M  V30 10 N -4.92775 -1.52554 1.6337 0
M  V30 11 N -0.256723 0.111195 -0.972042 0
M  V30 12 C 1.03461 -0.189083 -0.389693 0
M  V30 13 C 2.09329 0.702532 -0.998336 0
M  V30 14 C 3.43195 0.445112 -0.44606 0
M  V30 15 C 4.24011 -0.493186 -1.05376 0
M  V30 16 C 5.51861 -0.777388 -0.572397 0
M  V30 17 C 6.01078 -0.121841 0.532454 0
M  V30 18 C 5.20248 0.818421 1.14243 0
M  V30 19 C 3.93785 1.09651 0.662649 0
M  V30 20 S 7.62305 -0.487308 1.13098 0
M  V30 21 O 7.98875 -1.91067 0.923207 0
M  V30 22 O 7.64314 -0.109233 2.59685 0
M  V30 23 N 8.74804 0.582923 0.330514 0
M  V30 24 H -2.85251 0.799297 -1.03841 0
M  V30 25 H -2.64891 -0.551737 -2.22087 0
M  V30 26 H -3.78067 -2.04109 -0.566764 0
M  V30 27 H -4.88806 -0.645445 -2.3375 0
M  V30 28 H -5.97528 -1.29243 -1.07894 0
M  V30 29 H -6.6119 0.935258 -1.45787 0
M  V30 30 H -4.96654 1.60474 -1.34981 0
M  V30 31 H -6.19456 2.04381 0.682342 0
M  V30 32 H -6.62431 0.265568 0.836137 0
M  V30 33 H -3.81774 1.49926 0.643317 0
M  V30 34 H -4.54368 1.0036 2.26126 0
M  V30 35 H -3.07612 -0.650857 1.46284 0
M  V30 36 H -5.85401 -1.59368 1.17309 0
M  V30 37 H -4.4586 -2.47399 1.54032 0
M  V30 38 H -0.325869 0.861642 -1.70421 0
M  V30 39 H 1.0499 0.0175168 0.711965 0
M  V30 40 H 1.28887 -1.26707 -0.496158 0
M  V30 41 H 1.76883 1.74805 -0.843328 0
M  V30 42 H 2.10438 0.488636 -2.08381 0
M  V30 43 H 3.88555 -1.02724 -1.92399 0
M  V30 44 H 6.16119 -1.51407 -1.04432 0
M  V30 45 H 5.58471 1.33855 2.01373 0
M  V30 46 H 3.28639 1.82851 1.12324 0
M  V30 47 H 8.22623 1.38674 -0.108656 0
M  V30 48 H 9.40803 0.995069 1.00302 0
M  V30 END ATOM
M  V30 BEGIN BOND
M  V30 1 2 1 2
M  V30 2 1 2 3
M  V30 3 1 3 4
M  V30 4 1 4 5
M  V30 5 1 5 6
M  V30 6 1 6 7
M  V30 7 1 7 8
M  V30 8 1 8 9
M  V30 9 1 9 10
M  V30 10 1 2 11
M  V30 11 1 11 12
M  V30 12 1 12 13
M  V30 13 1 13 14
M  V30 14 2 14 15
M  V30 15 1 15 16
M  V30 16 2 16 17
M  V30 17 1 17 18
M  V30 18 2 18 19
M  V30 19 1 17 20
M  V30 20 2 20 21
M  V30 21 2 20 22
M  V30 22 1 20 23
M  V30 23 1 9 4
M  V30 24 1 19 14
M  V30 25 1 3 24
M  V30 26 1 3 25
M  V30 27 1 4 26
M  V30 28 1 5 27
M  V30 29 1 5 28
M  V30 30 1 6 29
M  V30 31 1 6 30
M  V30 32 1 7 31
M  V30 33 1 7 32
M  V30 34 1 8 33
M  V30 35 1 8 34
M  V30 36 1 9 35
M  V30 37 1 10 36
M  V30 38 1 10 37
M  V30 39 1 11 38
M  V30 40 1 12 39
M  V30 41 1 12 40
M  V30 42 1 13 41
M  V30 43 1 13 42
M  V30 44 1 15 43
M  V30 45 1 16 44
M  V30 46 1 18 45
M  V30 47 1 19 46
M  V30 48 1 23 47
M  V30 49 1 23 48
M  V30 END BOND
M  V30 END CTAB
M  END
