
     RDKit          3D

  0  0  0  0  0  0  0  0  0  0999 V3000
M  V30 BEGIN CTAB
M  V30 COUNTS 32 33 0 0 0
M  V30 BEGIN ATOM
M  V30 1 N -3.83752 4.53205 -0.533903 0
M  V30 2 C -3.43581 3.44579 -0.398901 0
M  V30 3 C -2.92403 2.11146 -0.252161 0
M  V30 4 S -3.82836 0.756484 0.269823 0
M  V30 5 C -2.60737 -0.42533 0.201938 0
M  V30 6 C -1.50703 0.269973 -0.230224 0
M  V30 7 C -1.67669 1.58165 -0.46518 0
M  V30 8 N -0.686634 2.52347 -0.966919 0
M  V30 9 C -0.357427 -0.530539 -0.376994 0
M  V30 10 C 0.954392 -0.0224997 -0.764795 0
M  V30 11 C 1.75164 0.648618 0.31682 0
M  V30 12 C 3.08757 1.13157 -0.244418 0
M  V30 13 C 2.16534 -0.321445 1.43612 0
M  V30 14 C -0.456849 -1.88341 -0.0868006 0
M  V30 15 C -1.5815 -2.52525 0.340238 0
M  V30 16 N -2.68354 -1.72977 0.479245 0
M  V30 17 N -1.6219 -3.89918 0.621062 0
M  V30 18 C 0.697631 -2.75859 -0.282352 0
M  V30 19 N 1.61221 -3.47525 -0.45993 0
M  V30 20 H -0.481668 2.58031 -1.97988 0
M  V30 21 H -0.22123 3.11181 -0.240016 0
M  V30 22 H 1.61133 -0.875232 -1.11927 0
M  V30 23 H 0.915104 0.615706 -1.69749 0
M  V30 24 H 1.28822 1.47605 0.838403 0
M  V30 25 H 3.63067 1.59014 0.607542 0
M  V30 26 H 3.64349 0.334124 -0.755614 0
M  V30 27 H 2.86954 1.94145 -0.967698 0
M  V30 28 H 2.92006 -1.04629 1.10654 0
M  V30 29 H 1.31843 -0.706413 1.9962 0
M  V30 30 H 2.71606 0.355172 2.16116 0
M  V30 31 H -1.8029 -4.22242 1.58946 0
M  V30 32 H -1.47123 -4.58419 -0.141996 0
M  V30 END ATOM
M  V30 BEGIN BOND
M  V30 1 3 1 2
M  V30 2 1 2 3
M  V30 3 1 3 4
M  V30 4 1 4 5
M  V30 5 2 5 6
M  V30 6 1 6 7
M  V30 7 1 7 8
M  V30 8 1 6 9
M  V30 9 1 9 10
M  V30 10 1 10 11
M  V30 11 1 11 12
M  V30 12 1 11 13
M  V30 13 2 9 14
M  V30 14 1 14 15
M  V30 15 2 15 16
M  V30 16 1 15 17
M  V30 17 1 14 18
M  V30 18 3 18 19
M  V30 19 2 7 3
M  V30 20 1 16 5
M  V30 21 1 8 20
M  V30 22 1 8 21
M  V30 23 1 10 22
M  V30 24 1 10 23
M  V30 25 1 11 24
M  V30 26 1 12 25
M  V30 27 1 12 26
M  V30 28 1 12 27
M  V30 29 1 13 28
M  V30 30 1 13 29
M  V30 31 1 13 30
M  V30 32 1 17 31
M  V30 33 1 17 32
M  V30 END BOND
M  V30 END CTAB
M  END
