
     RDKit          3D

  0  0  0  0  0  0  0  0  0  0999 V3000
M  V30 BEGIN CTAB
M  V30 COUNTS 42 45 0 0 0
M  V30 BEGIN ATOM
M  V30 1 N 6.00357 1.32573 0.72914 0
M  V30 2 C 5.17588 0.469433 1.46694 0 CFG=2
M  V30 3 C 4.63593 -0.718415 0.678288 0
M  V30 4 C 3.27686 -0.431536 1.27039 0 CFG=1
M  V30 5 C 3.73835 0.997452 1.51474 0
M  V30 6 C 2.16073 -0.484457 0.267406 0
M  V30 7 C 1.01876 -1.20458 0.536419 0
M  V30 8 C -0.0354874 -1.26958 -0.381765 0
M  V30 9 N -1.20368 -2.01965 -0.0907081 0
M  V30 10 C -2.29892 -2.1064 -0.988759 0
M  V30 11 C -2.96726 -0.801739 -1.28373 0
M  V30 12 N -2.79086 -0.0489189 -2.38053 0
M  V30 13 N -3.53698 1.03547 -2.31149 0
M  V30 14 C -4.21646 0.993559 -1.14658 0
M  V30 15 N -3.85546 -0.136822 -0.53124 0
M  V30 16 C -4.53682 -0.273464 0.744095 0
M  V30 17 C -4.8928 1.18146 1.07718 0
M  V30 18 C -5.2168 1.73184 -0.293098 0
M  V30 19 N 0.148504 -0.591938 -1.51738 0
M  V30 20 C 1.24407 0.122607 -1.82153 0
M  V30 21 N 2.2376 0.154012 -0.89816 0
M  V30 22 N 1.35237 0.81889 -3.06839 0
M  V30 23 H 5.5429 2.09916 0.309691 0
M  V30 24 H 6.80635 0.928375 0.30286 0
M  V30 25 H 5.52125 0.195765 2.48596 0
M  V30 26 H 5.1096 -1.6496 1.08538 0
M  V30 27 H 4.71415 -0.593318 -0.414359 0
M  V30 28 H 3.04104 -1.01096 2.16341 0
M  V30 29 H 3.45004 1.41308 2.50478 0
M  V30 30 H 3.47172 1.62702 0.637862 0
M  V30 31 H 0.900652 -1.74242 1.46543 0
M  V30 32 H -1.23311 -2.52637 0.843228 0
M  V30 33 H -2.00808 -2.54463 -1.98209 0
M  V30 34 H -3.07024 -2.81453 -0.579945 0
M  V30 35 H -3.8824 -0.667809 1.54107 0
M  V30 36 H -5.44708 -0.887427 0.628488 0
M  V30 37 H -5.78385 1.23222 1.73565 0
M  V30 38 H -4.01071 1.6977 1.47245 0
M  V30 39 H -5.0741 2.82596 -0.361274 0
M  V30 40 H -6.26545 1.43604 -0.584341 0
M  V30 41 H 1.34228 1.87647 -2.98117 0
M  V30 42 H 1.43394 0.362335 -3.98206 0
M  V30 END ATOM
M  V30 BEGIN BOND
M  V30 1 1 1 2
M  V30 2 1 2 3
M  V30 3 1 3 4
M  V30 4 1 4 5
M  V30 5 1 4 6
M  V30 6 2 6 7
M  V30 7 1 7 8
M  V30 8 1 8 9
M  V30 9 1 9 10
M  V30 10 1 10 11
M  V30 11 2 11 12
M  V30 12 1 12 13
M  V30 13 2 13 14
M  V30 14 1 14 15
M  V30 15 1 15 16
M  V30 16 1 16 17
M  V30 17 1 17 18
M  V30 18 2 8 19
M  V30 19 1 19 20
M  V30 20 2 20 21
M  V30 21 1 20 22
M  V30 22 1 5 2
M  V30 23 1 21 6
M  V30 24 1 15 11
M  V30 25 1 18 14
M  V30 26 1 1 23
M  V30 27 1 1 24
M  V30 28 1 2 25 CFG=1
M  V30 29 1 3 26
M  V30 30 1 3 27
M  V30 31 1 4 28 CFG=1
M  V30 32 1 5 29
M  V30 33 1 5 30
M  V30 34 1 7 31
M  V30 35 1 9 32
M  V30 36 1 10 33
M  V30 37 1 10 34
M  V30 38 1 16 35
M  V30 39 1 16 36
M  V30 40 1 17 37
M  V30 41 1 17 38
M  V30 42 1 18 39
M  V30 43 1 18 40
M  V30 44 1 22 41
M  V30 45 1 22 42
M  V30 END BOND
M  V30 END CTAB
M  END
