
     RDKit          3D

  0  0  0  0  0  0  0  0  0  0999 V3000
M  V30 BEGIN CTAB
M  V30 COUNTS 32 33 0 0 0
M  V30 BEGIN ATOM
M  V30 1 C 3.55834 -1.6823 -0.772596 0
M  V30 2 C 2.62931 -0.632288 -0.288192 0
M  V30 3 C 1.25291 -0.82575 -0.221125 0
M  V30 4 C 0.398825 0.156981 0.2307 0
M  V30 5 C 0.916142 1.36703 0.628852 0
M  V30 6 C 2.28193 1.5546 0.560516 0
M  V30 7 C 3.14801 0.582229 0.111185 0
M  V30 8 N 4.5568 0.786617 0.0447478 0
M  V30 9 C -1.02326 -0.144143 0.276748 0
M  V30 10 C -1.46456 -1.30374 0.886018 0
M  V30 11 C -2.78733 -1.58504 0.941974 0
M  V30 12 C -3.72275 -0.706889 0.384681 0
M  V30 13 N -5.09878 -1.00528 0.44631 0
M  V30 14 C -3.26554 0.437232 -0.215036 0
M  V30 15 C -1.90326 0.755469 -0.288719 0
M  V30 16 C -1.50159 2.00846 -0.966226 0
M  V30 17 H 4.26976 -1.94655 0.0628056 0
M  V30 18 H 3.01546 -2.62386 -0.989699 0
M  V30 19 H 4.18479 -1.34414 -1.62334 0
M  V30 20 H 0.908669 -1.80149 -0.549307 0
M  V30 21 H 0.264299 2.17575 1.00199 0
M  V30 22 H 2.66974 2.52822 0.883513 0
M  V30 23 H 5.07893 1.40283 0.707129 0
M  V30 24 H 5.1482 0.317937 -0.687968 0
M  V30 25 H -0.743099 -1.96499 1.30696 0
M  V30 26 H -3.15053 -2.4913 1.41675 0
M  V30 27 H -5.68641 -0.570686 1.16406 0
M  V30 28 H -5.50747 -1.66409 -0.236853 0
M  V30 29 H -3.98422 1.13012 -0.6533 0
M  V30 30 H -1.60222 2.90962 -0.293876 0
M  V30 31 H -0.559294 1.96233 -1.50719 0
M  V30 32 H -2.28182 2.21711 -1.76151 0
M  V30 END ATOM
M  V30 BEGIN BOND
M  V30 1 1 1 2
M  V30 2 2 2 3
M  V30 3 1 3 4
M  V30 4 2 4 5
M  V30 5 1 5 6
M  V30 6 2 6 7
M  V30 7 1 7 8
M  V30 8 1 4 9
M  V30 9 2 9 10
M  V30 10 1 10 11
M  V30 11 2 11 12
M  V30 12 1 12 13
M  V30 13 1 12 14
M  V30 14 2 14 15
M  V30 15 1 15 16
M  V30 16 1 7 2
M  V30 17 1 15 9
M  V30 18 1 1 17
M  V30 19 1 1 18
M  V30 20 1 1 19
M  V30 21 1 3 20
M  V30 22 1 5 21
M  V30 23 1 6 22
M  V30 24 1 8 23
M  V30 25 1 8 24
M  V30 26 1 10 25
M  V30 27 1 11 26
M  V30 28 1 13 27
M  V30 29 1 13 28
M  V30 30 1 14 29
M  V30 31 1 16 30
M  V30 32 1 16 31
M  V30 33 1 16 32
M  V30 END BOND
M  V30 END CTAB
M  END
