
     RDKit          3D

  0  0  0  0  0  0  0  0  0  0999 V3000
M  V30 BEGIN CTAB
M  V30 COUNTS 32 33 0 0 0
M  V30 BEGIN ATOM
M  V30 1 C -0.903548 2.34705 -0.284821 0
M  V30 2 C -1.45829 0.975745 -0.0285606 0
M  V30 3 C -2.81586 0.859672 0.169152 0
M  V30 4 C -3.44116 -0.349014 0.413351 0
M  V30 5 C -2.63267 -1.46649 0.452894 0
M  V30 6 C -1.26774 -1.39657 0.260309 0
M  V30 7 N -0.484375 -2.6028 0.315033 0
M  V30 8 C -0.703099 -0.165116 0.0212363 0
M  V30 9 C 0.716286 -0.049462 -0.184828 0
M  V30 10 C 1.22403 -0.151206 -1.45823 0
M  V30 11 N 0.360513 -0.373307 -2.6058 0
M  V30 12 C 2.58655 -0.037686 -1.63448 0
M  V30 13 C 3.42983 0.173208 -0.564493 0
M  V30 14 C 2.86803 0.268717 0.701363 0
M  V30 15 C 1.5103 0.159254 0.907701 0
M  V30 16 C 1.01317 0.278158 2.31598 0
M  V30 17 H -0.951329 2.98182 0.62669 0
M  V30 18 H -1.61057 2.8772 -0.995455 0
M  V30 19 H 0.0535918 2.35303 -0.790415 0
M  V30 20 H -3.41414 1.76507 0.129503 0
M  V30 21 H -4.51875 -0.42465 0.568102 0
M  V30 22 H -3.0594 -2.44425 0.639811 0
M  V30 23 H -0.846131 -3.36419 0.929288 0
M  V30 24 H 0.382668 -2.74964 -0.200771 0
M  V30 25 H -0.0484467 0.373746 -3.15912 0
M  V30 26 H 0.150109 -1.35998 -2.87463 0
M  V30 27 H 2.97512 -0.119676 -2.64365 0
M  V30 28 H 4.49816 0.260447 -0.717416 0
M  V30 29 H 3.52334 0.437041 1.56989 0
M  V30 30 H 1.55051 1.10119 2.85539 0
M  V30 31 H -0.0388959 0.490225 2.41085 0
M  V30 32 H 1.35221 -0.647542 2.85613 0
M  V30 END ATOM
M  V30 BEGIN BOND
M  V30 1 1 1 2
M  V30 2 2 2 3
M  V30 3 1 3 4
M  V30 4 2 4 5
M  V30 5 1 5 6
M  V30 6 1 6 7
M  V30 7 2 6 8
M  V30 8 1 8 9
M  V30 9 2 9 10
M  V30 10 1 10 11
M  V30 11 1 10 12
M  V30 12 2 12 13
M  V30 13 1 13 14
M  V30 14 2 14 15
M  V30 15 1 15 16
M  V30 16 1 8 2
M  V30 17 1 15 9
M  V30 18 1 1 17
M  V30 19 1 1 18
M  V30 20 1 1 19
M  V30 21 1 3 20
M  V30 22 1 4 21
M  V30 23 1 5 22
M  V30 24 1 7 23
M  V30 25 1 7 24
M  V30 26 1 11 25
M  V30 27 1 11 26
M  V30 28 1 12 27
M  V30 29 1 13 28
M  V30 30 1 14 29
M  V30 31 1 16 30
M  V30 32 1 16 31
M  V30 33 1 16 32
M  V30 END BOND
M  V30 END CTAB
M  END
