
     RDKit          3D

  0  0  0  0  0  0  0  0  0  0999 V3000
M  V30 BEGIN CTAB
M  V30 COUNTS 54 56 0 0 0
M  V30 BEGIN ATOM
M  V30 1 C -5.11153 -1.08829 0.2781 0
M  V30 2 C -4.85003 0.30902 -0.275253 0
M  V30 3 C -5.2488 0.249385 -1.73538 0
M  V30 4 N -5.77405 1.19295 0.375304 0
M  V30 5 C -5.49501 2.23531 1.05755 0
M  V30 6 N -6.53759 3.01533 1.64575 0
M  V30 7 N -4.12597 2.58896 1.20991 0
M  V30 8 C -3.20242 1.87388 0.67264 0
M  V30 9 N -1.81253 2.2349 0.828696 0
M  V30 10 N -3.49078 0.710809 -0.0901489 0
M  V30 11 C -2.39701 -0.0427718 -0.664037 0
M  V30 12 C -1.91219 0.232594 -1.92048 0
M  V30 13 C -0.870396 -0.4905 -2.45658 0
M  V30 14 C -0.248171 -1.54077 -1.75906 0
M  V30 15 C 0.830577 -2.28713 -2.43931 0
M  V30 16 C 2.15856 -1.65068 -2.49374 0
M  V30 17 C 2.79955 -1.37767 -1.18913 0
M  V30 18 O 2.2841 -1.72179 -0.115482 0
M  V30 19 N 4.04163 -0.70027 -1.18942 0
M  V30 20 C 4.75421 -0.39455 -0.0248462 0
M  V30 21 C 4.68582 -1.10891 1.12837 0
M  V30 22 C 5.41214 -0.723323 2.2784 0
M  V30 23 C 6.22011 0.389278 2.28224 0
M  V30 24 C 6.27984 1.10283 1.10465 0
M  V30 25 C 5.58564 0.749052 -0.020427 0
M  V30 26 S 7.10578 0.840142 3.72052 0
M  V30 27 F 6.18953 1.87104 4.67357 0
M  V30 28 O 7.46385 -0.420962 4.47232 0
M  V30 29 O 8.38942 1.51311 3.32937 0
M  V30 30 C -0.743262 -1.80558 -0.50579 0
M  V30 31 C -1.80286 -1.06531 0.0328766 0
M  V30 32 H -4.47162 -1.84209 -0.240311 0
M  V30 33 H -4.83596 -1.07591 1.3316 0
M  V30 34 H -6.15663 -1.38724 0.0709324 0
M  V30 35 H -5.19539 1.25888 -2.14165 0
M  V30 36 H -4.69802 -0.514667 -2.29854 0
M  V30 37 H -6.3256 -0.0545334 -1.75684 0
M  V30 38 H -6.44424 4.04783 1.6283 0
M  V30 39 H -7.37631 2.59405 2.08542 0
M  V30 40 H -1.50686 2.43277 1.80177 0
M  V30 41 H -1.14189 2.30162 0.052455 0
M  V30 42 H -2.37447 1.04635 -2.49377 0
M  V30 43 H -0.475407 -0.280792 -3.45586 0
M  V30 44 H 0.5125 -2.57056 -3.49399 0
M  V30 45 H 0.92605 -3.31324 -1.95727 0
M  V30 46 H 2.15015 -0.686872 -3.09559 0
M  V30 47 H 2.85673 -2.29628 -3.12234 0
M  V30 48 H 4.48137 -0.394038 -2.12872 0
M  V30 49 H 4.08924 -2.00781 1.19117 0
M  V30 50 H 5.31579 -1.33386 3.16951 0
M  V30 51 H 6.92875 1.98648 1.12474 0
M  V30 52 H 5.64943 1.32181 -0.924844 0
M  V30 53 H -0.315828 -2.62345 0.0697466 0
M  V30 54 H -2.16995 -1.29854 1.02479 0
M  V30 END ATOM
M  V30 BEGIN BOND
M  V30 1 1 1 2
M  V30 2 1 2 3
M  V30 3 1 2 4
M  V30 4 2 4 5
M  V30 5 1 5 6
M  V30 6 1 5 7
M  V30 7 2 7 8
M  V30 8 1 8 9
M  V30 9 1 8 10
M  V30 10 1 10 11
M  V30 11 2 11 12
M  V30 12 1 12 13
M  V30 13 2 13 14
M  V30 14 1 14 15
M  V30 15 1 15 16
M  V30 16 1 16 17
M  V30 17 2 17 18
M  V30 18 1 17 19
M  V30 19 1 19 20
M  V30 20 2 20 21
M  V30 21 1 21 22
M  V30 22 2 22 23
M  V30 23 1 23 24
M  V30 24 2 24 25
M  V30 25 1 23 26
M  V30 26 1 26 27
M  V30 27 2 26 28
M  V30 28 2 26 29
M  V30 29 1 14 30
M  V30 30 2 30 31
M  V30 31 1 10 2
M  V30 32 1 31 11
M  V30 33 1 25 20
M  V30 34 1 1 32
M  V30 35 1 1 33
M  V30 36 1 1 34
M  V30 37 1 3 35
M  V30 38 1 3 36
M  V30 39 1 3 37
M  V30 40 1 6 38
M  V30 41 1 6 39
M  V30 42 1 9 40
M  V30 43 1 9 41
M  V30 44 1 12 42
M  V30 45 1 13 43
M  V30 46 1 15 44
M  V30 47 1 15 45
M  V30 48 1 16 46
M  V30 49 1 16 47
M  V30 50 1 19 48
M  V30 51 1 21 49
M  V30 52 1 22 50
M  V30 53 1 24 51
M  V30 54 1 25 52
M  V30 55 1 30 53
M  V30 56 1 31 54
M  V30 END BOND
M  V30 END CTAB
M  END
