
     RDKit          3D

  0  0  0  0  0  0  0  0  0  0999 V3000
M  V30 BEGIN CTAB
M  V30 COUNTS 47 50 0 0 0
M  V30 BEGIN ATOM
M  V30 1 N 8.93308 0.0672989 2.11281 0
M  V30 2 C 7.85597 -0.0765451 1.6843 0
M  V30 3 C 6.52141 -0.274028 1.1664 0
M  V30 4 C 5.65398 0.788934 1.19262 0
M  V30 5 C 4.34261 0.601776 0.686307 0
M  V30 6 C 4.06877 -0.648312 0.21209 0
M  V30 7 N 4.98006 -1.67775 0.211057 0
M  V30 8 C 6.22966 -1.52917 0.684484 0
M  V30 9 N 7.15788 -2.60477 0.6756 0
M  V30 10 S 2.4471 -0.520362 -0.30363 0
M  V30 11 C 2.15999 1.10651 0.0933939 0
M  V30 12 C 3.34515 1.52233 0.625329 0
M  V30 13 N 3.48001 2.89989 1.09108 0
M  V30 14 C 0.917337 1.88882 -0.0947123 0
M  V30 15 O 0.898159 3.07257 0.253645 0
M  V30 16 N -0.173358 1.21781 -0.66634 0
M  V30 17 C -1.45559 1.7247 -0.950787 0
M  V30 18 C -1.88772 3.00178 -0.731495 0
M  V30 19 C -3.18298 3.41637 -1.04755 0
M  V30 20 C -4.04376 2.50207 -1.59707 0
M  V30 21 C -3.65654 1.20519 -1.83713 0
M  V30 22 C -2.37531 0.843984 -1.51054 0
M  V30 23 S -1.91655 -0.854148 -1.84317 0
M  V30 24 C -2.24706 -1.93829 -0.450308 0
M  V30 25 C -3.6815 -2.10375 -0.140567 0
M  V30 26 C -4.2779 -1.22854 0.745188 0
M  V30 27 C -5.61492 -1.42667 1.00079 0
M  V30 28 C -6.36324 -2.42909 0.429942 0
M  V30 29 C -5.7631 -3.29433 -0.448966 0
M  V30 30 C -4.40662 -3.12403 -0.732968 0
M  V30 31 Cl -8.07594 -2.62927 0.800706 0
M  V30 32 H 5.97818 1.74395 1.59461 0
M  V30 33 H 6.7703 -3.57267 0.842569 0
M  V30 34 H 8.17905 -2.50312 0.517814 0
M  V30 35 H 3.4971 3.69875 0.437327 0
M  V30 36 H 3.56037 3.07375 2.10606 0
M  V30 37 H 0.0203657 0.184704 -0.910316 0
M  V30 38 H -1.22513 3.72545 -0.303569 0
M  V30 39 H -3.51793 4.41468 -0.875307 0
M  V30 40 H -5.06942 2.79664 -1.85699 0
M  V30 41 H -4.36885 0.490238 -2.27962 0
M  V30 42 H -1.73634 -1.55225 0.453971 0
M  V30 43 H -1.83246 -2.92952 -0.676064 0
M  V30 44 H -3.72028 -0.425432 1.21525 0
M  V30 45 H -6.13086 -0.76789 1.68822 0
M  V30 46 H -6.34539 -4.08061 -0.897942 0
M  V30 47 H -3.92778 -3.79765 -1.42089 0
M  V30 END ATOM
M  V30 BEGIN BOND
M  V30 1 3 1 2
M  V30 2 1 2 3
M  V30 3 2 3 4
M  V30 4 1 4 5
M  V30 5 2 5 6
M  V30 6 1 6 7
M  V30 7 2 7 8
M  V30 8 1 8 9
M  V30 9 1 6 10
M  V30 10 1 10 11
M  V30 11 2 11 12
M  V30 12 1 12 13
M  V30 13 1 11 14
M  V30 14 2 14 15
M  V30 15 1 14 16
M  V30 16 1 16 17
M  V30 17 2 17 18
M  V30 18 1 18 19
M  V30 19 2 19 20
M  V30 20 1 20 21
M  V30 21 2 21 22
M  V30 22 1 22 23
M  V30 23 1 23 24
M  V30 24 1 24 25
M  V30 25 2 25 26
M  V30 26 1 26 27
M  V30 27 2 27 28
M  V30 28 1 28 29
M  V30 29 2 29 30
M  V30 30 1 28 31
M  V30 31 1 8 3
M  V30 32 1 22 17
M  V30 33 1 30 25
M  V30 34 1 12 5
M  V30 35 1 4 32
M  V30 36 1 9 33
M  V30 37 1 9 34
M  V30 38 1 13 35
M  V30 39 1 13 36
M  V30 40 1 16 37
M  V30 41 1 18 38
M  V30 42 1 19 39
M  V30 43 1 20 40
M  V30 44 1 21 41
M  V30 45 1 24 42
M  V30 46 1 24 43
M  V30 47 1 26 44
M  V30 48 1 27 45
M  V30 49 1 29 46
M  V30 50 1 30 47
M  V30 END BOND
M  V30 END CTAB
M  END
