
     RDKit          3D

  0  0  0  0  0  0  0  0  0  0999 V3000
M  V30 BEGIN CTAB
M  V30 COUNTS 27 27 0 0 0
M  V30 BEGIN ATOM
M  V30 1 N -3.1296 1.29342 -0.309111 0
M  V30 2 C -2.17606 0.241137 -0.739491 0
M  V30 3 C -2.07252 -0.775324 0.452559 0
M  V30 4 C -0.732006 -0.662298 1.15621 0
M  V30 5 C 0.534298 -0.83813 0.481525 0
M  V30 6 N 1.25237 0.254866 -0.114258 0
M  V30 7 C 0.510064 0.940175 -1.2111 0
M  V30 8 C -0.85989 0.648551 -1.03664 0
M  V30 9 S 2.86793 -0.00154376 -0.451882 0
M  V30 10 O 3.02498 -1.21405 -1.32108 0
M  V30 11 O 3.52836 1.13994 -1.15273 0
M  V30 12 N 3.69215 -0.327474 1.03436 0
M  V30 13 H -3.23854 1.25551 0.730603 0
M  V30 14 H -2.64244 2.1914 -0.531476 0
M  V30 15 H -2.74891 -0.22565 -1.57619 0
M  V30 16 H -2.20834 -1.78691 0.0782957 0
M  V30 17 H -2.83245 -0.534391 1.19056 0
M  V30 18 H -0.705006 0.260569 1.8115 0
M  V30 19 H -0.82825 -1.47852 1.94448 0
M  V30 20 H 0.498582 -1.75014 -0.192125 0
M  V30 21 H 1.27819 -1.20287 1.26605 0
M  V30 22 H 0.96419 0.689231 -2.20359 0
M  V30 23 H 0.773291 2.0412 -1.14323 0
M  V30 24 H -0.616695 -0.441671 -1.25119 0
M  V30 25 H -0.824525 1.10787 -0.0200839 0
M  V30 26 H 3.31341 -1.23038 1.39831 0
M  V30 27 H 3.37743 0.405487 1.70971 0
M  V30 END ATOM
M  V30 BEGIN BOND
M  V30 1 1 1 2
M  V30 2 1 2 3
M  V30 3 1 3 4
M  V30 4 1 4 5
M  V30 5 1 5 6
M  V30 6 1 6 7
M  V30 7 1 7 8
M  V30 8 1 6 9
M  V30 9 2 9 10
M  V30 10 2 9 11
M  V30 11 1 9 12
M  V30 12 1 8 2
M  V30 13 1 1 13
M  V30 14 1 1 14
M  V30 15 1 2 15
M  V30 16 1 3 16
M  V30 17 1 3 17
M  V30 18 1 4 18
M  V30 19 1 4 19
M  V30 20 1 5 20
M  V30 21 1 5 21
M  V30 22 1 7 22
M  V30 23 1 7 23
M  V30 24 1 8 24
M  V30 25 1 8 25
M  V30 26 1 12 26
M  V30 27 1 12 27
M  V30 END BOND
M  V30 END CTAB
M  END
