
     RDKit          3D

  0  0  0  0  0  0  0  0  0  0999 V3000
M  V30 BEGIN CTAB
M  V30 COUNTS 26 27 0 0 0
M  V30 BEGIN ATOM
M  V30 1 C 3.61319 1.39692 -0.49718 0
M  V30 2 C 2.61551 0.430479 0.0185497 0
M  V30 3 C 3.05106 -0.705706 0.680208 0
M  V30 4 C 2.10378 -1.56912 1.13906 0
M  V30 5 C 0.755562 -1.3223 0.952217 0
M  V30 6 C 0.33825 -0.18721 0.291815 0
M  V30 7 C 1.28121 0.691556 -0.175928 0
M  V30 8 N -1.06141 0.0766828 0.093575 0
M  V30 9 N -1.72304 1.16763 0.39053 0
M  V30 10 C -3.02372 1.06733 0.0666336 0
M  V30 11 C -3.18911 -0.206617 -0.484474 0
M  V30 12 C -1.93754 -0.791173 -0.44817 0
M  V30 13 N -1.69472 -2.11594 -0.930883 0
M  V30 14 N -4.05223 2.03309 0.233051 0
M  V30 15 H 3.27616 1.78545 -1.47679 0
M  V30 16 H 4.54925 0.838618 -0.687834 0
M  V30 17 H 3.75499 2.22872 0.23768 0
M  V30 18 H 4.1113 -0.855629 0.802007 0
M  V30 19 H 2.42598 -2.45941 1.65685 0
M  V30 20 H 0.00793173 -2.00593 1.3156 0
M  V30 21 H 0.973162 1.57956 -0.691945 0
M  V30 22 H -4.09907 -0.652441 -0.862962 0
M  V30 23 H -1.25357 -2.24638 -1.86682 0
M  V30 24 H -1.9466 -2.96502 -0.372584 0
M  V30 25 H -4.46123 2.54924 -0.567102 0
M  V30 26 H -4.4151 2.23762 1.1849 0
M  V30 END ATOM
M  V30 BEGIN BOND
M  V30 1 1 1 2
M  V30 2 2 2 3
M  V30 3 1 3 4
M  V30 4 2 4 5
M  V30 5 1 5 6
M  V30 6 2 6 7
M  V30 7 1 6 8
M  V30 8 1 8 9
M  V30 9 2 9 10
M  V30 10 1 10 11
M  V30 11 2 11 12
M  V30 12 1 12 13
M  V30 13 1 10 14
M  V30 14 1 7 2
M  V30 15 1 12 8
M  V30 16 1 1 15
M  V30 17 1 1 16
M  V30 18 1 1 17
M  V30 19 1 3 18
M  V30 20 1 4 19
M  V30 21 1 5 20
M  V30 22 1 7 21
M  V30 23 1 11 22
M  V30 24 1 13 23
M  V30 25 1 13 24
M  V30 26 1 14 25
M  V30 27 1 14 26
M  V30 END BOND
M  V30 END CTAB
M  END
