
     RDKit          3D

  0  0  0  0  0  0  0  0  0  0999 V3000
M  V30 BEGIN CTAB
M  V30 COUNTS 41 44 0 0 0
M  V30 BEGIN ATOM
M  V30 1 O -0.700429 -2.27827 -0.0741519 0
M  V30 2 C -0.774678 -0.989755 0.142793 0
M  V30 3 N -2.0677 -0.390281 0.204466 0
M  V30 4 C -2.25895 0.912369 0.71316 0
M  V30 5 C -1.28663 1.50241 1.51032 0
M  V30 6 C -1.45504 2.74893 2.14277 0
M  V30 7 C -2.60732 3.43122 1.98913 0
M  V30 8 C -3.59436 2.89569 1.21857 0
M  V30 9 C -3.39975 1.67651 0.613612 0
M  V30 10 S -4.75364 1.07327 -0.356258 0
M  V30 11 C -4.35133 -0.607743 -0.753485 0
M  V30 12 C -3.10784 -1.11523 -0.505101 0
M  V30 13 C -2.94519 -2.42202 -0.939967 0
M  V30 14 C -3.96315 -3.15667 -1.57433 0
M  V30 15 C -5.17841 -2.585 -1.78673 0
M  V30 16 C -5.37787 -1.29563 -1.3724 0
M  V30 17 C 0.582189 -0.446054 0.25265 0
M  V30 18 S 1.79946 -1.66796 -0.468586 0
M  V30 19 C 3.40202 -0.867117 -0.368169 0
M  V30 20 N 4.51012 -1.52705 -0.79741 0
M  V30 21 C 5.71976 -0.94397 -0.744815 0
M  V30 22 N 6.88258 -1.64424 -1.19475 0
M  V30 23 C 5.85775 0.35345 -0.248395 0
M  V30 24 C 4.71946 1.00245 0.179884 0
M  V30 25 N 3.54923 0.376761 0.105214 0
M  V30 26 N 4.73573 2.32181 0.687066 0
M  V30 27 H -0.367261 1.0235 1.73575 0
M  V30 28 H -0.64972 3.16472 2.75754 0
M  V30 29 H -2.80691 4.39576 2.44837 0
M  V30 30 H -4.54336 3.40722 1.06586 0
M  V30 31 H -2.05172 -2.95402 -0.826661 0
M  V30 32 H -3.77568 -4.18404 -1.89189 0
M  V30 33 H -5.99747 -3.13055 -2.28025 0
M  V30 34 H -6.33653 -0.811681 -1.52915 0
M  V30 35 H 0.772236 0.501668 -0.211145 0
M  V30 36 H 0.944657 -0.4546 1.3264 0
M  V30 37 H 7.33784 -1.36327 -2.07655 0
M  V30 38 H 7.26598 -2.4279 -0.641768 0
M  V30 39 H 6.79282 0.865567 -0.186342 0
M  V30 40 H 4.9886 2.50111 1.66956 0
M  V30 41 H 4.49052 3.10865 0.0651805 0
M  V30 END ATOM
M  V30 BEGIN BOND
M  V30 1 2 1 2
M  V30 2 1 2 3
M  V30 3 1 3 4
M  V30 4 2 4 5
M  V30 5 1 5 6
M  V30 6 2 6 7
M  V30 7 1 7 8
M  V30 8 2 8 9
M  V30 9 1 9 10
M  V30 10 1 10 11
M  V30 11 2 11 12
M  V30 12 1 12 13
M  V30 13 2 13 14
M  V30 14 1 14 15
M  V30 15 2 15 16
M  V30 16 1 2 17
M  V30 17 1 17 18
M  V30 18 1 18 19
M  V30 19 2 19 20
M  V30 20 1 20 21
M  V30 21 1 21 22
M  V30 22 2 21 23
M  V30 23 1 23 24
M  V30 24 2 24 25
M  V30 25 1 24 26
M  V30 26 1 12 3
M  V30 27 1 25 19
M  V30 28 1 9 4
M  V30 29 1 16 11
M  V30 30 1 5 27
M  V30 31 1 6 28
M  V30 32 1 7 29
M  V30 33 1 8 30
M  V30 34 1 13 31
M  V30 35 1 14 32
M  V30 36 1 15 33
M  V30 37 1 16 34
M  V30 38 1 17 35
M  V30 39 1 17 36
M  V30 40 1 22 37
M  V30 41 1 22 38
M  V30 42 1 23 39
M  V30 43 1 26 40
M  V30 44 1 26 41
M  V30 END BOND
M  V30 END CTAB
M  END
