
     RDKit          3D

  0  0  0  0  0  0  0  0  0  0999 V3000
M  V30 BEGIN CTAB
M  V30 COUNTS 36 38 0 0 0
M  V30 BEGIN ATOM
M  V30 1 O -4.13153 1.63602 0.00937962 0
M  V30 2 C -3.27691 0.57156 0.121237 0 CFG=1
M  V30 3 C -2.70429 0.23018 -1.22255 0 CFG=1
M  V30 4 O -2.30867 1.34714 -1.95181 0
M  V30 5 C -1.55407 -0.743076 -1.1352 0 CFG=2
M  V30 6 N -1.94157 -2.04262 -0.675163 0
M  V30 7 C -0.518314 -0.203321 -0.249019 0
M  V30 8 C -0.88147 0.548384 0.840323 0
M  V30 9 C -2.27109 0.848706 1.17357 0 CFG=2
M  V30 10 N -2.71878 0.227138 2.39974 0
M  V30 11 C 0.111602 1.0348 1.64474 0
M  V30 12 C 1.46729 0.784001 1.38129 0
M  V30 13 C 1.82765 0.0339816 0.294199 0
M  V30 14 C 0.834793 -0.4621 -0.524563 0
M  V30 15 C 3.23229 -0.282002 -0.0623591 0
M  V30 16 C 4.28743 0.168525 0.693493 0
M  V30 17 N 5.5419 -0.154295 0.314585 0
M  V30 18 C 5.82514 -0.897832 -0.769021 0
M  V30 19 C 4.73638 -1.32985 -1.50005 0
M  V30 20 N 3.49278 -1.02569 -1.14803 0
M  V30 21 H -3.81081 2.37398 -0.514257 0
M  V30 22 H -3.91552 -0.306183 0.433891 0
M  V30 23 H -3.50739 -0.26738 -1.80582 0
M  V30 24 H -2.34135 1.17014 -2.92929 0
M  V30 25 H -1.14537 -0.830454 -2.18467 0
M  V30 26 H -2.77841 -2.38724 -1.20106 0
M  V30 27 H -2.19938 -1.99558 0.319535 0
M  V30 28 H -2.30063 1.95939 1.39828 0
M  V30 29 H -2.58547 0.795317 3.23907 0
M  V30 30 H -3.63687 -0.240451 2.31886 0
M  V30 31 H -0.0763173 1.63687 2.52559 0
M  V30 32 H 2.22761 1.17191 2.02024 0
M  V30 33 H 1.10902 -1.06034 -1.39273 0
M  V30 34 H 4.1205 0.780925 1.59136 0
M  V30 35 H 6.83664 -1.15062 -1.06338 0
M  V30 36 H 4.95321 -1.93993 -2.3904 0
M  V30 END ATOM
M  V30 BEGIN BOND
M  V30 1 1 1 2
M  V30 2 1 2 3
M  V30 3 1 3 4
M  V30 4 1 3 5
M  V30 5 1 5 6
M  V30 6 1 5 7
M  V30 7 2 7 8
M  V30 8 1 8 9
M  V30 9 1 9 10
M  V30 10 1 8 11
M  V30 11 2 11 12
M  V30 12 1 12 13
M  V30 13 2 13 14
M  V30 14 1 13 15
M  V30 15 2 15 16
M  V30 16 1 16 17
M  V30 17 2 17 18
M  V30 18 1 18 19
M  V30 19 2 19 20
M  V30 20 1 9 2
M  V30 21 1 20 15
M  V30 22 1 14 7
M  V30 23 1 1 21
M  V30 24 1 2 22 CFG=1
M  V30 25 1 3 23 CFG=3
M  V30 26 1 4 24
M  V30 27 1 5 25 CFG=3
M  V30 28 1 6 26
M  V30 29 1 6 27
M  V30 30 1 9 28 CFG=1
M  V30 31 1 10 29
M  V30 32 1 10 30
M  V30 33 1 11 31
M  V30 34 1 12 32
M  V30 35 1 14 33
M  V30 36 1 16 34
M  V30 37 1 18 35
M  V30 38 1 19 36
M  V30 END BOND
M  V30 END CTAB
M  END
