
     RDKit          3D

  0  0  0  0  0  0  0  0  0  0999 V3000
M  V30 BEGIN CTAB
M  V30 COUNTS 21 21 0 0 0
M  V30 BEGIN ATOM
M  V30 1 N 3.24697 -0.336722 2.41296 0
M  V30 2 C 2.83974 -0.452555 1.31612 0
M  V30 3 C 2.31334 -0.591051 -0.046228 0
M  V30 4 C 0.864047 -0.291794 -0.105809 0
M  V30 5 C -0.0782044 -1.29946 -0.18099 0
M  V30 6 C -1.43246 -0.96006 -0.224693 0
M  V30 7 N -2.42379 -1.97714 -0.30475 0
M  V30 8 C -1.84591 0.352028 -0.194548 0
M  V30 9 C -0.883763 1.33708 -0.119777 0
M  V30 10 C 0.484029 1.04818 -0.0737771 0
M  V30 11 N 1.42037 2.11099 0.000314116 0
M  V30 12 O -3.20713 0.594798 -0.240215 0
M  V30 13 H 2.57128 -1.59987 -0.408634 0
M  V30 14 H 2.83727 0.187454 -0.636095 0
M  V30 15 H 0.242868 -2.32974 -0.204942 0
M  V30 16 H -3.08983 -2.14591 0.484051 0
M  V30 17 H -2.4885 -2.57076 -1.17235 0
M  V30 18 H -1.24968 2.36751 -0.0977898 0
M  V30 19 H 2.38829 1.99996 0.362128 0
M  V30 20 H 1.10675 3.04615 -0.329581 0
M  V30 21 H -3.61567 1.51092 -0.235385 0
M  V30 END ATOM
M  V30 BEGIN BOND
M  V30 1 3 1 2
M  V30 2 1 2 3
M  V30 3 1 3 4
M  V30 4 2 4 5
M  V30 5 1 5 6
M  V30 6 1 6 7
M  V30 7 2 6 8
M  V30 8 1 8 9
M  V30 9 2 9 10
M  V30 10 1 10 11
M  V30 11 1 8 12
M  V30 12 1 10 4
M  V30 13 1 3 13
M  V30 14 1 3 14
M  V30 15 1 5 15
M  V30 16 1 7 16
M  V30 17 1 7 17
M  V30 18 1 9 18
M  V30 19 1 11 19
M  V30 20 1 11 20
M  V30 21 1 12 21
M  V30 END BOND
M  V30 END CTAB
M  END
