
     RDKit          3D

  0  0  0  0  0  0  0  0  0  0999 V3000
M  V30 BEGIN CTAB
M  V30 COUNTS 22 22 0 0 0
M  V30 BEGIN ATOM
M  V30 1 N 2.54299 -1.8477 0.343125 0
M  V30 2 N 1.37459 -1.13065 0.0617241 0
M  V30 3 C 1.36321 0.147103 0.0726815 0
M  V30 4 C 0.192015 0.980934 -0.208011 0
M  V30 5 O 0.142813 2.27518 -0.211916 0
M  V30 6 C -1.04735 2.73613 -0.501185 0
M  V30 7 C -1.85203 1.63655 -0.705525 0
M  V30 8 C -1.06917 0.533828 -0.520035 0
M  V30 9 C -1.5368 -0.858997 -0.632518 0
M  V30 10 C -1.73817 -1.40888 0.76164 0
M  V30 11 N 2.58844 0.789263 0.382982 0
M  V30 12 H 2.54171 -2.80007 0.788037 0
M  V30 13 H 3.49354 -1.46068 0.118977 0
M  V30 14 H -1.36592 3.76628 -0.573006 0
M  V30 15 H -2.92081 1.67559 -0.967698 0
M  V30 16 H -0.871575 -1.49587 -1.24283 0
M  V30 17 H -2.52272 -0.860968 -1.13451 0
M  V30 18 H -2.83768 -1.56719 0.959531 0
M  V30 19 H -1.28404 -0.736202 1.49562 0
M  V30 20 H -1.31168 -2.43424 0.761297 0
M  V30 21 H 2.84635 1.11614 1.33531 0
M  V30 22 H 3.27227 0.944458 -0.383685 0
M  V30 END ATOM
M  V30 BEGIN BOND
M  V30 1 1 1 2
M  V30 2 2 2 3
M  V30 3 1 3 4
M  V30 4 1 4 5
M  V30 5 1 5 6
M  V30 6 2 6 7
M  V30 7 1 7 8
M  V30 8 1 8 9
M  V30 9 1 9 10
M  V30 10 1 3 11
M  V30 11 2 8 4
M  V30 12 1 1 12
M  V30 13 1 1 13
M  V30 14 1 6 14
M  V30 15 1 7 15
M  V30 16 1 9 16
M  V30 17 1 9 17
M  V30 18 1 10 18
M  V30 19 1 10 19
M  V30 20 1 10 20
M  V30 21 1 11 21
M  V30 22 1 11 22
M  V30 END BOND
M  V30 END CTAB
M  END
