
     RDKit          3D

  0  0  0  0  0  0  0  0  0  0999 V3000
M  V30 BEGIN CTAB
M  V30 COUNTS 26 26 0 0 0
M  V30 BEGIN ATOM
M  V30 1 C -3.77386 0.398572 0.0945702 0
M  V30 2 C -3.19385 -0.963083 -0.220339 0
M  V30 3 C -1.76072 -0.769955 -0.736997 0
M  V30 4 C -1.00776 -0.0860223 0.37852 0
M  V30 5 C 0.415579 0.164188 0.00449896 0
M  V30 6 N 0.958967 0.184403 -1.22641 0
M  V30 7 O 2.24736 0.442256 -1.10711 0
M  V30 8 C 2.57122 0.591316 0.14198 0
M  V30 9 N 1.43234 0.419375 0.846768 0
M  V30 10 C 3.90664 0.891529 0.742397 0
M  V30 11 N 4.90103 1.01262 -0.281299 0
M  V30 12 N -1.03549 -1.01934 1.51701 0
M  V30 13 H -4.83476 0.417096 -0.249972 0
M  V30 14 H -3.2065 1.21931 -0.407915 0
M  V30 15 H -3.74402 0.582539 1.17136 0
M  V30 16 H -3.77218 -1.46567 -0.998399 0
M  V30 17 H -3.1935 -1.57905 0.701195 0
M  V30 18 H -1.29744 -1.73961 -0.915532 0
M  V30 19 H -1.76667 -0.0832963 -1.59484 0
M  V30 20 H -1.50909 0.832851 0.742929 0
M  V30 21 H 3.8849 1.75731 1.41594 0
M  V30 22 H 4.19063 0.00192867 1.36791 0
M  V30 23 H 4.72977 0.363394 -1.06093 0
M  V30 24 H 5.8353 0.887905 0.176922 0
M  V30 25 H -0.43326 -0.571883 2.24578 0
M  V30 26 H -0.54463 -1.88868 1.21747 0
M  V30 END ATOM
M  V30 BEGIN BOND
M  V30 1 1 1 2
M  V30 2 1 2 3
M  V30 3 1 3 4
M  V30 4 1 4 5
M  V30 5 2 5 6
M  V30 6 1 6 7
M  V30 7 1 7 8
M  V30 8 2 8 9
M  V30 9 1 8 10
M  V30 10 1 10 11
M  V30 11 1 4 12
M  V30 12 1 9 5
M  V30 13 1 1 13
M  V30 14 1 1 14
M  V30 15 1 1 15
M  V30 16 1 2 16
M  V30 17 1 2 17
M  V30 18 1 3 18
M  V30 19 1 3 19
M  V30 20 1 4 20
M  V30 21 1 10 21
M  V30 22 1 10 22
M  V30 23 1 11 23
M  V30 24 1 11 24
M  V30 25 1 12 25
M  V30 26 1 12 26
M  V30 END BOND
M  V30 END CTAB
M  END
