
     RDKit          3D

  0  0  0  0  0  0  0  0  0  0999 V3000
M  V30 BEGIN CTAB
M  V30 COUNTS 42 41 0 0 0
M  V30 BEGIN ATOM
M  V30 1 N -5.30993 0.992402 0.494325 0
M  V30 2 C -3.93487 0.792185 -0.0552466 0
M  V30 3 C -3.16723 0.139256 1.04655 0
M  V30 4 C -1.7434 -0.148924 0.675086 0
M  V30 5 C -1.69458 -1.07625 -0.492426 0
M  V30 6 C -0.293446 -1.42788 -0.935433 0
M  V30 7 C 0.448561 -2.09802 0.179013 0
M  V30 8 C 1.86295 -2.47231 -0.236324 0
M  V30 9 C 2.64822 -1.26611 -0.636117 0
M  V30 10 C 2.79425 -0.235152 0.452881 0
M  V30 11 C 3.61024 0.905793 -0.12136 0
M  V30 12 N 4.88823 0.354727 -0.514249 0
M  V30 13 C 3.80324 1.9945 0.860971 0
M  V30 14 O 2.73191 2.68617 1.39469 0
M  V30 15 O 4.96306 2.30361 1.22353 0
M  V30 16 C -3.41786 2.08241 -0.516369 0
M  V30 17 O -4.10852 3.27998 -0.330115 0
M  V30 18 O -2.31993 2.15871 -1.10374 0
M  V30 19 H -5.9191 1.11226 -0.360098 0
M  V30 20 H -5.59626 0.0650101 0.917194 0
M  V30 21 H -4.06608 0.0762301 -0.889667 0
M  V30 22 H -3.22998 0.742 1.99021 0
M  V30 23 H -3.70143 -0.82177 1.32591 0
M  V30 24 H -1.28397 -0.661 1.5817 0
M  V30 25 H -1.16772 0.797895 0.494102 0
M  V30 26 H -2.31697 -0.701639 -1.29959 0
M  V30 27 H -2.15178 -2.05275 -0.157048 0
M  V30 28 H 0.24764 -0.592508 -1.37454 0
M  V30 29 H -0.413544 -2.19283 -1.7506 0
M  V30 30 H -0.0978757 -2.98617 0.547271 0
M  V30 31 H 0.518026 -1.37933 1.02875 0
M  V30 32 H 2.34338 -2.90066 0.670078 0
M  V30 33 H 1.87485 -3.19163 -1.05337 0
M  V30 34 H 2.26816 -0.791759 -1.56808 0
M  V30 35 H 3.68514 -1.60662 -0.886341 0
M  V30 36 H 1.83819 0.15735 0.828157 0
M  V30 37 H 3.32368 -0.728235 1.29362 0
M  V30 38 H 3.10962 1.3471 -1.00172 0
M  V30 39 H 5.10307 -0.462822 0.0970391 0
M  V30 40 H 4.84356 0.10297 -1.5221 0
M  V30 41 H 2.60257 3.65061 1.06231 0
M  V30 42 H -3.5741 4.05318 0.0533193 0
M  V30 END ATOM
M  V30 BEGIN BOND
M  V30 1 1 1 2
M  V30 2 1 2 3
M  V30 3 1 3 4
M  V30 4 1 4 5
M  V30 5 1 5 6
M  V30 6 1 6 7
M  V30 7 1 7 8
M  V30 8 1 8 9
M  V30 9 1 9 10
M  V30 10 1 10 11
M  V30 11 1 11 12
M  V30 12 1 11 13
M  V30 13 1 13 14
M  V30 14 2 13 15
M  V30 15 1 2 16
M  V30 16 1 16 17
M  V30 17 2 16 18
M  V30 18 1 1 19
M  V30 19 1 1 20
M  V30 20 1 2 21
M  V30 21 1 3 22
M  V30 22 1 3 23
M  V30 23 1 4 24
M  V30 24 1 4 25
M  V30 25 1 5 26
M  V30 26 1 5 27
M  V30 27 1 6 28
M  V30 28 1 6 29
M  V30 29 1 7 30
M  V30 30 1 7 31
M  V30 31 1 8 32
M  V30 32 1 8 33
M  V30 33 1 9 34
M  V30 34 1 9 35
M  V30 35 1 10 36
M  V30 36 1 10 37
M  V30 37 1 11 38
M  V30 38 1 12 39
M  V30 39 1 12 40
M  V30 40 1 14 41
M  V30 41 1 17 42
M  V30 END BOND
M  V30 END CTAB
M  END
