
     RDKit          3D

  0  0  0  0  0  0  0  0  0  0999 V3000
M  V30 BEGIN CTAB
M  V30 COUNTS 27 28 0 0 0
M  V30 BEGIN ATOM
M  V30 1 N -2.12418 2.1587 -0.429741 0
M  V30 2 C -0.760099 1.84646 -0.0667507 0
M  V30 3 C -0.505764 0.365056 0.0577091 0
M  V30 4 C -1.37644 -0.253471 1.10329 0
M  V30 5 C -1.70809 -1.65296 0.670711 0
M  V30 6 C -1.08124 -1.7932 -0.68503 0
M  V30 7 C -0.8346 -0.384585 -1.20681 0
M  V30 8 C 0.913747 0.167842 0.400463 0
M  V30 9 O 1.4175 0.0855189 1.59482 0
M  V30 10 N 2.70358 -0.0886858 1.54355 0
M  V30 11 C 3.05145 -0.120759 0.232519 0
M  V30 12 N 1.91665 0.0415271 -0.463663 0
M  V30 13 N 4.37997 -0.296025 -0.261603 0
M  V30 14 H -2.16373 2.30527 -1.4837 0
M  V30 15 H -2.32544 3.10394 -0.0169849 0
M  V30 16 H -0.0779823 2.30708 -0.801731 0
M  V30 17 H -0.501054 2.29151 0.929516 0
M  V30 18 H -0.848317 -0.291493 2.08103 0
M  V30 19 H -2.31329 0.322446 1.24732 0
M  V30 20 H -1.26112 -2.39211 1.37035 0
M  V30 21 H -2.79789 -1.84924 0.67419 0
M  V30 22 H -1.69727 -2.38112 -1.38769 0
M  V30 23 H -0.0871806 -2.31758 -0.596169 0
M  V30 24 H 0.0465292 -0.470213 -1.88608 0
M  V30 25 H -1.72298 -0.0238513 -1.72049 0
M  V30 26 H 4.91089 0.541546 -0.568437 0
M  V30 27 H 4.84635 -1.2216 -0.330598 0
M  V30 END ATOM
M  V30 BEGIN BOND
M  V30 1 1 1 2
M  V30 2 1 2 3
M  V30 3 1 3 4
M  V30 4 1 4 5
M  V30 5 1 5 6
M  V30 6 1 6 7
M  V30 7 1 3 8
M  V30 8 1 8 9
M  V30 9 1 9 10
M  V30 10 2 10 11
M  V30 11 1 11 12
M  V30 12 1 11 13
M  V30 13 1 7 3
M  V30 14 2 12 8
M  V30 15 1 1 14
M  V30 16 1 1 15
M  V30 17 1 2 16
M  V30 18 1 2 17
M  V30 19 1 4 18
M  V30 20 1 4 19
M  V30 21 1 5 20
M  V30 22 1 5 21
M  V30 23 1 6 22
M  V30 24 1 6 23
M  V30 25 1 7 24
M  V30 26 1 7 25
M  V30 27 1 13 26
M  V30 28 1 13 27
M  V30 END BOND
M  V30 END CTAB
M  END
