
     RDKit          3D

  0  0  0  0  0  0  0  0  0  0999 V3000
M  V30 BEGIN CTAB
M  V30 COUNTS 23 23 0 0 0
M  V30 BEGIN ATOM
M  V30 1 C 3.31733 -0.537363 -0.528129 0
M  V30 2 O 2.17615 0.261986 -0.698784 0
M  V30 3 C 1.00096 -0.0709269 -0.0498336 0
M  V30 4 C 0.967605 -1.19071 0.76068 0
M  V30 5 C -0.204691 -1.51824 1.40479 0
M  V30 6 C -1.31797 -0.725084 1.22875 0
M  V30 7 C -1.28848 0.393492 0.420452 0
M  V30 8 C -0.122071 0.726529 -0.225526 0
M  V30 9 C -0.0812616 1.92455 -1.09447 0
M  V30 10 N -2.47038 1.16753 0.282053 0
M  V30 11 N -2.51443 -1.07952 1.9005 0
M  V30 12 H 4.18775 -0.0823884 -1.06629 0
M  V30 13 H 3.18761 -1.54437 -1.02008 0
M  V30 14 H 3.55775 -0.665445 0.538066 0
M  V30 15 H 1.86874 -1.79394 0.875505 0
M  V30 16 H -0.226676 -2.39304 2.03656 0
M  V30 17 H 0.94921 2.18044 -1.39448 0
M  V30 18 H -0.652487 1.75348 -2.04095 0
M  V30 19 H -0.568455 2.80644 -0.604227 0
M  V30 20 H -2.45305 2.14434 -0.0832951 0
M  V30 21 H -3.40067 0.775294 0.545455 0
M  V30 22 H -3.08575 -0.444408 2.47972 0
M  V30 23 H -2.82673 -2.08865 1.78131 0
M  V30 END ATOM
M  V30 BEGIN BOND
M  V30 1 1 1 2
M  V30 2 1 2 3
M  V30 3 2 3 4
M  V30 4 1 4 5
M  V30 5 2 5 6
M  V30 6 1 6 7
M  V30 7 2 7 8
M  V30 8 1 8 9
M  V30 9 1 7 10
M  V30 10 1 6 11
M  V30 11 1 8 3
M  V30 12 1 1 12
M  V30 13 1 1 13
M  V30 14 1 1 14
M  V30 15 1 4 15
M  V30 16 1 5 16
M  V30 17 1 9 17
M  V30 18 1 9 18
M  V30 19 1 9 19
M  V30 20 1 10 20
M  V30 21 1 10 21
M  V30 22 1 11 22
M  V30 23 1 11 23
M  V30 END BOND
M  V30 END CTAB
M  END
