
     RDKit          3D

  0  0  0  0  0  0  0  0  0  0999 V3000
M  V30 BEGIN CTAB
M  V30 COUNTS 44 44 0 0 0
M  V30 BEGIN ATOM
M  V30 1 N -3.63147 -0.243248 -2.74074 0
M  V30 2 C -2.50496 -0.445126 -1.88831 0
M  V30 3 C -2.50167 0.300733 -0.598517 0
M  V30 4 C -3.72088 -0.115342 0.220228 0
M  V30 5 C -3.72219 0.628168 1.55156 0
M  V30 6 C -4.98154 0.281174 -0.481952 0
M  V30 7 N -1.30948 -0.0295014 0.152853 0
M  V30 8 C -0.0138762 0.248825 -0.295819 0
M  V30 9 O 0.202485 0.825611 -1.4122 0
M  V30 10 C 1.19268 -0.0973697 0.475264 0
M  V30 11 C 1.1506 -0.726771 1.70064 0
M  V30 12 C 2.311 -1.04042 2.40481 0
M  V30 13 C 3.55344 -0.730471 1.89811 0
M  V30 14 C 3.61307 -0.101461 0.674881 0
M  V30 15 C 2.451 0.203312 -0.0120975 0
M  V30 16 C 4.93659 0.245012 0.103282 0
M  V30 17 S 5.57304 -1.0912 -0.907102 0
M  V30 18 O 4.62924 -1.37212 -2.03822 0
M  V30 19 O 5.77337 -2.30059 -0.047694 0
M  V30 20 N 7.12034 -0.541261 -1.50448 0
M  V30 21 C -2.62385 1.79948 -0.799471 0
M  V30 22 H -4.16885 -1.11055 -2.96125 0
M  V30 23 H -3.41141 0.215567 -3.64924 0
M  V30 24 H -1.60147 -0.278904 -2.51103 0
M  V30 25 H -2.47659 -1.56473 -1.69283 0
M  V30 26 H -3.73215 -1.18206 0.430921 0
M  V30 27 H -4.15807 -0.0539207 2.30525 0
M  V30 28 H -4.41177 1.50769 1.52745 0
M  V30 29 H -2.70506 0.884665 1.88166 0
M  V30 30 H -4.90203 1.21767 -1.07116 0
M  V30 31 H -5.47803 -0.554127 -1.02851 0
M  V30 32 H -5.74483 0.543539 0.321537 0
M  V30 33 H -1.40938 -0.501413 1.08174 0
M  V30 34 H 0.217961 -0.986446 2.13362 0
M  V30 35 H 2.2738 -1.535 3.36742 0
M  V30 36 H 4.46696 -0.971931 2.44182 0
M  V30 37 H 2.52869 0.704488 -0.984296 0
M  V30 38 H 5.64173 0.413054 0.938395 0
M  V30 39 H 4.84597 1.17239 -0.474898 0
M  V30 40 H 6.95613 0.466887 -1.79193 0
M  V30 41 H 7.76147 -0.565745 -0.674649 0
M  V30 42 H -1.64136 2.31066 -0.751051 0
M  V30 43 H -3.13983 1.96857 -1.74336 0
M  V30 44 H -3.20882 2.20221 0.0411046 0
M  V30 END ATOM
M  V30 BEGIN BOND
M  V30 1 1 1 2
M  V30 2 1 2 3
M  V30 3 1 3 4
M  V30 4 1 4 5
M  V30 5 1 4 6
M  V30 6 1 3 7
M  V30 7 1 7 8
M  V30 8 2 8 9
M  V30 9 1 8 10
M  V30 10 2 10 11
M  V30 11 1 11 12
M  V30 12 2 12 13
M  V30 13 1 13 14
M  V30 14 2 14 15
M  V30 15 1 14 16
M  V30 16 1 16 17
M  V30 17 2 17 18
M  V30 18 2 17 19
M  V30 19 1 17 20
M  V30 20 1 3 21
M  V30 21 1 15 10
M  V30 22 1 1 22
M  V30 23 1 1 23
M  V30 24 1 2 24
M  V30 25 1 2 25
M  V30 26 1 4 26
M  V30 27 1 5 27
M  V30 28 1 5 28
M  V30 29 1 5 29
M  V30 30 1 6 30
M  V30 31 1 6 31
M  V30 32 1 6 32
M  V30 33 1 7 33
M  V30 34 1 11 34
M  V30 35 1 12 35
M  V30 36 1 13 36
M  V30 37 1 15 37
M  V30 38 1 16 38
M  V30 39 1 16 39
M  V30 40 1 20 40
M  V30 41 1 20 41
M  V30 42 1 21 42
M  V30 43 1 21 43
M  V30 44 1 21 44
M  V30 END BOND
M  V30 END CTAB
M  END
