
     RDKit          3D

  0  0  0  0  0  0  0  0  0  0999 V3000
M  V30 BEGIN CTAB
M  V30 COUNTS 55 58 0 0 0
M  V30 BEGIN ATOM
M  V30 1 C -7.36388 1.11616 0.697146 0
M  V30 2 C -6.52418 -0.103542 0.417159 0
M  V30 3 C -5.07947 0.323601 0.365957 0
M  V30 4 C -4.18267 -0.880797 0.0836575 0
M  V30 5 O -2.84943 -0.385366 0.0535994 0
M  V30 6 C -1.75616 -1.20499 -0.180028 0
M  V30 7 O -1.98192 -2.42718 -0.369011 0
M  V30 8 C -0.399105 -0.670278 -0.205412 0
M  V30 9 C 0.755523 -1.3823 -0.425956 0
M  V30 10 N 0.783425 -2.77663 -0.666116 0
M  V30 11 N 1.82918 -0.557155 -0.377449 0
M  V30 12 C 1.38256 0.689843 -0.126484 0
M  V30 13 C -0.0122043 0.638097 -0.0155478 0
M  V30 14 N -0.678062 1.78017 0.236355 0
M  V30 15 C -0.0411435 2.96226 0.383221 0
M  V30 16 C -0.7331 4.13536 0.642658 0
M  V30 17 C -0.0933511 5.34765 0.794428 0
M  V30 18 C 1.29079 5.3957 0.683771 0
M  V30 19 C 1.96617 4.22715 0.426535 0
M  V30 20 C 1.32152 3.01621 0.275416 0
M  V30 21 N 1.99627 1.87429 0.0227759 0
M  V30 22 C 3.17795 -0.980737 -0.565437 0
M  V30 23 C 4.17162 -0.675406 0.362632 0
M  V30 24 C 5.46852 -1.09788 0.155767 0
M  V30 25 C 5.81129 -1.83269 -0.975309 0
M  V30 26 C 4.83312 -2.13621 -1.89401 0
M  V30 27 C 3.54058 -1.71098 -1.68063 0
M  V30 28 S 7.45535 -2.37438 -1.24805 0
M  V30 29 O 8.36263 -1.33813 -0.652336 0
M  V30 30 O 7.66643 -2.44205 -2.73245 0
M  V30 31 N 7.73057 -3.93079 -0.558459 0
M  V30 32 C -6.65916 -1.11578 1.53635 0
M  V30 33 H -7.5185 1.29009 1.77116 0
M  V30 34 H -8.35404 0.966764 0.219512 0
M  V30 35 H -6.84955 1.98296 0.225312 0
M  V30 36 H -6.80333 -0.512223 -0.560829 0
M  V30 37 H -4.75801 0.724399 1.36437 0
M  V30 38 H -4.88225 1.13241 -0.355379 0
M  V30 39 H -4.25722 -1.59701 0.927049 0
M  V30 40 H -4.47091 -1.36992 -0.869577 0
M  V30 41 H 0.832443 -3.20037 -1.61335 0
M  V30 42 H 0.75331 -3.41949 0.150114 0
M  V30 43 H -1.79121 4.11972 0.730843 0
M  V30 44 H -0.617099 6.27223 0.997053 0
M  V30 45 H 1.83129 6.33313 0.797203 0
M  V30 46 H 3.04963 4.23133 0.334215 0
M  V30 47 H 3.86597 -0.106101 1.2228 0
M  V30 48 H 6.23609 -0.8646 0.868229 0
M  V30 49 H 5.02643 -2.70385 -2.7966 0
M  V30 50 H 2.77536 -1.95251 -2.40639 0
M  V30 51 H 7.56598 -4.69152 -1.24715 0
M  V30 52 H 7.13551 -4.07283 0.297238 0
M  V30 53 H -7.69838 -1.18874 1.91395 0
M  V30 54 H -6.25624 -2.09576 1.20513 0
M  V30 55 H -6.00492 -0.761333 2.36034 0
M  V30 END ATOM
M  V30 BEGIN BOND
M  V30 1 1 1 2
M  V30 2 1 2 3
M  V30 3 1 3 4
M  V30 4 1 4 5
M  V30 5 1 5 6
M  V30 6 2 6 7
M  V30 7 1 6 8
M  V30 8 2 8 9
M  V30 9 1 9 10
M  V30 10 1 9 11
M  V30 11 1 11 12
M  V30 12 2 12 13
M  V30 13 1 13 14
M  V30 14 2 14 15
M  V30 15 1 15 16
M  V30 16 2 16 17
M  V30 17 1 17 18
M  V30 18 2 18 19
M  V30 19 1 19 20
M  V30 20 2 20 21
M  V30 21 1 11 22
M  V30 22 2 22 23
M  V30 23 1 23 24
M  V30 24 2 24 25
M  V30 25 1 25 26
M  V30 26 2 26 27
M  V30 27 1 25 28
M  V30 28 2 28 29
M  V30 29 2 28 30
M  V30 30 1 28 31
M  V30 31 1 2 32
M  V30 32 1 13 8
M  V30 33 1 20 15
M  V30 34 1 27 22
M  V30 35 1 21 12
M  V30 36 1 1 33
M  V30 37 1 1 34
M  V30 38 1 1 35
M  V30 39 1 2 36
M  V30 40 1 3 37
M  V30 41 1 3 38
M  V30 42 1 4 39
M  V30 43 1 4 40
M  V30 44 1 10 41
M  V30 45 1 10 42
M  V30 46 1 16 43
M  V30 47 1 17 44
M  V30 48 1 18 45
M  V30 49 1 19 46
M  V30 50 1 23 47
M  V30 51 1 24 48
M  V30 52 1 26 49
M  V30 53 1 27 50
M  V30 54 1 31 51
M  V30 55 1 31 52
M  V30 56 1 32 53
M  V30 57 1 32 54
M  V30 58 1 32 55
M  V30 END BOND
M  V30 END CTAB
M  END
