
     RDKit          3D

  0  0  0  0  0  0  0  0  0  0999 V3000
M  V30 BEGIN CTAB
M  V30 COUNTS 57 60 0 0 0
M  V30 BEGIN ATOM
M  V30 1 C -0.963568 -2.18632 -1.31384 0
M  V30 2 N -1.45537 -0.970148 -0.734363 0
M  V30 3 C -2.83461 -0.789439 -0.507953 0
M  V30 4 C -3.4772 -1.6314 0.390914 0
M  V30 5 C -4.83033 -1.5117 0.683238 0
M  V30 6 C -5.5488 -0.513762 0.0487066 0
M  V30 7 C -4.92594 0.332192 -0.848125 0
M  V30 8 C -3.59814 0.190251 -1.11461 0
M  V30 9 C -6.96979 -0.399846 0.365371 0
M  V30 10 C -7.75282 -1.48798 0.683117 0
M  V30 11 C -9.10485 -1.34081 0.989407 0
M  V30 12 C -9.71474 -0.0969934 0.986826 0
M  V30 13 C -8.92695 0.989811 0.668102 0
M  V30 14 F -9.49457 2.22905 0.65723 0
M  V30 15 C -7.5903 0.843492 0.365239 0
M  V30 16 C -0.542484 0.0503316 -0.395129 0
M  V30 17 N -0.99516 1.23148 0.0917319 0
M  V30 18 C -0.194635 2.25287 0.438487 0
M  V30 19 N -0.714337 3.47718 0.942667 0
M  V30 20 N 1.15066 2.06879 0.28331 0
M  V30 21 C 1.64375 0.916077 -0.194771 0
M  V30 22 N 0.785357 -0.0599521 -0.520531 0
M  V30 23 C 3.10064 0.803755 -0.326348 0
M  V30 24 C 3.94651 1.81822 0.012284 0
M  V30 25 C 5.30036 1.6408 -0.133872 0
M  V30 26 C 5.84427 0.452861 -0.619029 0
M  V30 27 C 7.28878 0.263902 -0.797911 0
M  V30 28 C 7.97118 -0.227746 0.449526 0 CFG=2
M  V30 29 N 9.40733 -0.374048 0.110746 0
M  V30 30 C 7.50016 -1.49823 0.979282 0
M  V30 31 O 8.26858 -2.67037 0.944935 0
M  V30 32 O 6.36875 -1.60857 1.49924 0
M  V30 33 C 4.94738 -0.545644 -0.948283 0
M  V30 34 C 3.59139 -0.386148 -0.80912 0
M  V30 35 H -0.221001 -2.71521 -0.672097 0
M  V30 36 H -0.403248 -1.88874 -2.24544 0
M  V30 37 H -1.76611 -2.91901 -1.53493 0
M  V30 38 H -2.90034 -2.41624 0.886181 0
M  V30 39 H -5.32468 -2.18718 1.39772 0
M  V30 40 H -5.49704 1.10455 -1.33515 0
M  V30 41 H -3.09352 0.846881 -1.81625 0
M  V30 42 H -7.27414 -2.47281 0.686634 0
M  V30 43 H -9.70653 -2.20092 1.2362 0
M  V30 44 H -10.7612 0.0519429 1.21945 0
M  V30 45 H -6.97283 1.70828 0.11458 0
M  V30 46 H -0.467635 3.70295 1.94659 0
M  V30 47 H -1.29824 4.13132 0.399375 0
M  V30 48 H 3.51094 2.74092 0.389504 0
M  V30 49 H 5.97971 2.43813 0.130731 0
M  V30 50 H 7.71904 1.27968 -1.00701 0
M  V30 51 H 7.54045 -0.363891 -1.67952 0
M  V30 52 H 7.8515 0.566592 1.22205 0
M  V30 53 H 9.74375 0.583344 -0.155273 0
M  V30 54 H 9.41738 -0.98728 -0.734491 0
M  V30 55 H 8.15316 -3.39756 1.64926 0
M  V30 56 H 5.33573 -1.49571 -1.33224 0
M  V30 57 H 2.95433 -1.22552 -1.09234 0
M  V30 END ATOM
M  V30 BEGIN BOND
M  V30 1 1 1 2
M  V30 2 1 2 3
M  V30 3 2 3 4
M  V30 4 1 4 5
M  V30 5 2 5 6
M  V30 6 1 6 7
M  V30 7 2 7 8
M  V30 8 1 6 9
M  V30 9 2 9 10
M  V30 10 1 10 11
M  V30 11 2 11 12
M  V30 12 1 12 13
M  V30 13 1 13 14
M  V30 14 2 13 15
M  V30 15 1 2 16
M  V30 16 2 16 17
M  V30 17 1 17 18
M  V30 18 1 18 19
M  V30 19 2 18 20
M  V30 20 1 20 21
M  V30 21 2 21 22
M  V30 22 1 21 23
M  V30 23 2 23 24
M  V30 24 1 24 25
M  V30 25 2 25 26
M  V30 26 1 26 27
M  V30 27 1 27 28
M  V30 28 1 28 29
M  V30 29 1 28 30
M  V30 30 1 30 31
M  V30 31 2 30 32
M  V30 32 1 26 33
M  V30 33 2 33 34
M  V30 34 1 8 3
M  V30 35 1 15 9
M  V30 36 1 22 16
M  V30 37 1 34 23
M  V30 38 1 1 35
M  V30 39 1 1 36
M  V30 40 1 1 37
M  V30 41 1 4 38
M  V30 42 1 5 39
M  V30 43 1 7 40
M  V30 44 1 8 41
M  V30 45 1 10 42
M  V30 46 1 11 43
M  V30 47 1 12 44
M  V30 48 1 15 45
M  V30 49 1 19 46
M  V30 50 1 19 47
M  V30 51 1 24 48
M  V30 52 1 25 49
M  V30 53 1 27 50
M  V30 54 1 27 51
M  V30 55 1 28 52 CFG=1
M  V30 56 1 29 53
M  V30 57 1 29 54
M  V30 58 1 31 55
M  V30 59 1 33 56
M  V30 60 1 34 57
M  V30 END BOND
M  V30 END CTAB
M  END
