
     RDKit          3D

  0  0  0  0  0  0  0  0  0  0999 V3000
M  V30 BEGIN CTAB
M  V30 COUNTS 60 63 0 0 0
M  V30 BEGIN ATOM
M  V30 1 N 8.89909 2.47206 1.20479 0
M  V30 2 C 7.53609 2.18463 0.861184 0
M  V30 3 N 6.72558 3.15445 0.590607 0
M  V30 4 C 7.06742 0.80746 0.817244 0
M  V30 5 C 5.75464 0.546906 0.485325 0
M  V30 6 C 5.25274 -0.736866 0.427172 0
M  V30 7 C 6.13321 -1.75766 0.719201 0
M  V30 8 C 7.45561 -1.50624 1.0542 0
M  V30 9 C 7.94187 -0.217114 1.1079 0
M  V30 10 C 3.85127 -0.993617 0.071503 0
M  V30 11 N 3.27234 -2.11384 -0.0166555 0
M  V30 12 O 1.93231 -1.97738 -0.379214 0
M  V30 13 C 1.80863 -0.72162 -0.995516 0
M  V30 14 C 2.15705 -0.749957 -2.45742 0
M  V30 15 C 1.30909 -1.6584 -3.23874 0
M  V30 16 O 0.280988 -2.429 -2.72064 0
M  V30 17 O 1.52611 -1.74997 -4.47423 0
M  V30 18 C 2.86275 0.0637777 -0.247863 0
M  V30 19 C 0.451902 -0.12291 -0.839041 0
M  V30 20 O 0.286827 0.984637 -1.36355 0
M  V30 21 N -0.548308 -0.79609 -0.138204 0
M  V30 22 C -1.88467 -0.399817 0.11935 0
M  V30 23 C -2.73387 -1.3034 0.784606 0
M  V30 24 C -4.04787 -0.96293 1.06419 0
M  V30 25 C -4.56844 0.251922 0.708009 0
M  V30 26 C -3.76729 1.15544 0.0590979 0
M  V30 27 C -2.43091 0.799824 -0.220556 0
M  V30 28 C -5.9483 0.60047 0.9688 0
M  V30 29 C -7.02504 0.00223945 0.322609 0
M  V30 30 C -8.33052 0.379473 0.656494 0
M  V30 31 C -8.59836 1.32592 1.60429 0
M  V30 32 C -7.53462 1.93722 2.26172 0
M  V30 33 C -6.25932 1.5666 1.93414 0
M  V30 34 S -6.77658 -1.18233 -0.913469 0
M  V30 35 N -5.77902 -0.545842 -2.20357 0
M  V30 36 O -6.34198 -2.51384 -0.453419 0
M  V30 37 O -8.13325 -1.40762 -1.6013 0
M  V30 38 H 9.06829 3.32744 1.76726 0
M  V30 39 H 9.65379 1.82965 0.886719 0
M  V30 40 H 7.02244 4.13727 0.611998 0
M  V30 41 H 5.04411 1.35237 0.250732 0
M  V30 42 H 5.76041 -2.77049 0.679465 0
M  V30 43 H 8.1618 -2.30422 1.28722 0
M  V30 44 H 8.98385 -0.0392145 1.37302 0
M  V30 45 H 3.21384 -1.05813 -2.62145 0
M  V30 46 H 2.06607 0.260689 -2.90348 0
M  V30 47 H -0.64088 -2.28012 -3.09762 0
M  V30 48 H 2.45504 0.536724 0.669258 0
M  V30 49 H 3.26202 0.822542 -0.960298 0
M  V30 50 H -0.253092 -1.75538 0.263436 0
M  V30 51 H -2.34935 -2.26699 1.07506 0
M  V30 52 H -4.66956 -1.69051 1.60772 0
M  V30 53 H -4.11891 2.12542 -0.245026 0
M  V30 54 H -1.81554 1.53576 -0.733259 0
M  V30 55 H -9.18395 -0.0844715 0.155809 0
M  V30 56 H -9.59168 1.63515 1.88085 0
M  V30 57 H -7.7475 2.68571 3.01065 0
M  V30 58 H -5.42876 2.0297 2.43306 0
M  V30 59 H -4.82057 -0.903885 -2.16088 0
M  V30 60 H -5.86901 0.488414 -2.19133 0
M  V30 END ATOM
M  V30 BEGIN BOND
M  V30 1 1 1 2
M  V30 2 2 2 3 CFG=2
M  V30 3 1 2 4
M  V30 4 2 4 5
M  V30 5 1 5 6
M  V30 6 2 6 7
M  V30 7 1 7 8
M  V30 8 2 8 9
M  V30 9 1 6 10
M  V30 10 2 10 11
M  V30 11 1 11 12
M  V30 12 1 12 13
M  V30 13 1 13 14
M  V30 14 1 14 15
M  V30 15 1 15 16
M  V30 16 2 15 17
M  V30 17 1 13 18
M  V30 18 1 13 19
M  V30 19 2 19 20
M  V30 20 1 19 21
M  V30 21 1 21 22
M  V30 22 2 22 23
M  V30 23 1 23 24
M  V30 24 2 24 25
M  V30 25 1 25 26
M  V30 26 2 26 27
M  V30 27 1 25 28
M  V30 28 2 28 29
M  V30 29 1 29 30
M  V30 30 2 30 31
M  V30 31 1 31 32
M  V30 32 2 32 33
M  V30 33 1 29 34
M  V30 34 1 34 35
M  V30 35 2 34 36
M  V30 36 2 34 37
M  V30 37 1 9 4
M  V30 38 1 18 10
M  V30 39 1 27 22
M  V30 40 1 33 28
M  V30 41 1 1 38
M  V30 42 1 1 39
M  V30 43 1 3 40
M  V30 44 1 5 41
M  V30 45 1 7 42
M  V30 46 1 8 43
M  V30 47 1 9 44
M  V30 48 1 14 45
M  V30 49 1 14 46
M  V30 50 1 16 47
M  V30 51 1 18 48
M  V30 52 1 18 49
M  V30 53 1 21 50
M  V30 54 1 23 51
M  V30 55 1 24 52
M  V30 56 1 26 53
M  V30 57 1 27 54
M  V30 58 1 30 55
M  V30 59 1 31 56
M  V30 60 1 32 57
M  V30 61 1 33 58
M  V30 62 1 35 59
M  V30 63 1 35 60
M  V30 END BOND
M  V30 END CTAB
M  END
