
     RDKit          3D

  0  0  0  0  0  0  0  0  0  0999 V3000
M  V30 BEGIN CTAB
M  V30 COUNTS 32 34 0 0 0
M  V30 BEGIN ATOM
M  V30 1 N 3.67185 -0.172509 0.979405 0
M  V30 2 C 4.40129 0.477839 -0.0587701 0
M  V30 3 N 3.85252 0.93749 -1.1144 0
M  V30 4 C 2.42717 0.786828 -1.25385 0
M  V30 5 S 1.41753 1.29181 -2.53656 0
M  V30 6 C -0.0825263 0.734335 -1.91171 0
M  V30 7 C 0.30477 0.176782 -0.715117 0
M  V30 8 N 1.5695 0.225735 -0.427247 0
M  V30 9 C -0.692818 -0.459868 0.220756 0
M  V30 10 C -1.71552 -1.28831 -0.467974 0
M  V30 11 C -3.05498 -0.887292 0.147661 0
M  V30 12 C -2.56367 -0.46359 1.54359 0
M  V30 13 C -1.50348 0.529089 0.995138 0
M  V30 14 C -2.41535 1.39311 0.191879 0
M  V30 15 C -3.4798 0.452266 -0.394533 0
M  V30 16 N 5.82702 0.637706 0.0629957 0
M  V30 17 H 3.44074 0.332015 1.85481 0
M  V30 18 H 3.39926 -1.17318 0.784675 0
M  V30 19 H -1.08312 0.809964 -2.37012 0
M  V30 20 H -0.161378 -1.07603 1.01112 0
M  V30 21 H -1.72548 -1.23923 -1.55215 0
M  V30 22 H -1.58356 -2.37288 -0.194922 0
M  V30 23 H -3.79618 -1.65859 0.162095 0
M  V30 24 H -2.065 -1.27723 2.06736 0
M  V30 25 H -3.33831 0.0659957 2.10462 0
M  V30 26 H -0.98114 1.02527 1.80497 0
M  V30 27 H -2.94433 2.0557 0.93049 0
M  V30 28 H -1.96071 2.04674 -0.542078 0
M  V30 29 H -3.38381 0.417695 -1.49721 0
M  V30 30 H -4.48593 0.704655 -0.0406986 0
M  V30 31 H 6.2915 1.55551 0.102886 0
M  V30 32 H 6.41393 -0.218971 0.112887 0
M  V30 END ATOM
M  V30 BEGIN BOND
M  V30 1 1 1 2
M  V30 2 2 2 3 CFG=2
M  V30 3 1 3 4
M  V30 4 1 4 5
M  V30 5 1 5 6
M  V30 6 2 6 7
M  V30 7 1 7 8
M  V30 8 1 7 9
M  V30 9 1 9 10
M  V30 10 1 10 11
M  V30 11 1 11 12
M  V30 12 1 12 13
M  V30 13 1 13 14
M  V30 14 1 14 15
M  V30 15 1 2 16
M  V30 16 2 8 4
M  V30 17 1 13 9
M  V30 18 1 15 11
M  V30 19 1 1 17
M  V30 20 1 1 18
M  V30 21 1 6 19
M  V30 22 1 9 20
M  V30 23 1 10 21
M  V30 24 1 10 22
M  V30 25 1 11 23
M  V30 26 1 12 24
M  V30 27 1 12 25
M  V30 28 1 13 26
M  V30 29 1 14 27
M  V30 30 1 14 28
M  V30 31 1 15 29
M  V30 32 1 15 30
M  V30 33 1 16 31
M  V30 34 1 16 32
M  V30 END BOND
M  V30 END CTAB
M  END
