
     RDKit          3D

  0  0  0  0  0  0  0  0  0  0999 V3000
M  V30 BEGIN CTAB
M  V30 COUNTS 40 41 0 0 0
M  V30 BEGIN ATOM
M  V30 1 N 5.02461 -1.91605 0.209953 0
M  V30 2 C 5.57342 -0.662027 0.687789 0
M  V30 3 C 4.57202 0.402991 0.394245 0
M  V30 4 C 4.83858 1.71459 0.747431 0
M  V30 5 C 3.94748 2.73475 0.498716 0
M  V30 6 C 2.76343 2.39698 -0.123746 0
M  V30 7 C 2.43245 1.12349 -0.501062 0
M  V30 8 C 3.36899 0.129213 -0.22623 0
M  V30 9 C 1.16867 0.748968 -1.16783 0
M  V30 10 N 0.123407 0.401421 -0.223433 0
M  V30 11 C -1.04699 0.058242 -0.985626 0
M  V30 12 C -2.19426 -0.318717 -0.127403 0
M  V30 13 C -2.11572 -0.329306 1.25304 0
M  V30 14 C -3.19513 -0.683414 2.03884 0
M  V30 15 C -4.37723 -1.0338 1.42001 0
M  V30 16 C -4.50012 -1.03699 0.0414965 0
M  V30 17 C -3.39238 -0.675153 -0.703193 0
M  V30 18 C -5.78842 -1.41983 -0.594967 0
M  V30 19 N -6.62996 -0.255501 -0.779533 0
M  V30 20 H 4.18087 -2.10898 0.819285 0
M  V30 21 H 5.71722 -2.69802 0.286718 0
M  V30 22 H 5.7051 -0.773635 1.79488 0
M  V30 23 H 6.55857 -0.452931 0.234478 0
M  V30 24 H 5.7794 1.97198 1.24014 0
M  V30 25 H 4.15859 3.77447 0.778601 0
M  V30 26 H 2.06538 3.18456 -0.320574 0
M  V30 27 H 3.18267 -0.908068 -0.493881 0
M  V30 28 H 1.3636 -0.155016 -1.78029 0
M  V30 29 H 0.801424 1.54292 -1.86023 0
M  V30 30 H -0.131009 1.20851 0.387625 0
M  V30 31 H -1.33723 0.939684 -1.59741 0
M  V30 32 H -0.796687 -0.781954 -1.64564 0
M  V30 33 H -1.18365 -0.0526253 1.72528 0
M  V30 34 H -3.17716 -0.705176 3.11935 0
M  V30 35 H -5.26692 -1.32346 1.98042 0
M  V30 36 H -3.47543 -0.673718 -1.77692 0
M  V30 37 H -5.5445 -1.82224 -1.61885 0
M  V30 38 H -6.3288 -2.19298 -0.015771 0
M  V30 39 H -6.68022 0.291949 0.12224 0
M  V30 40 H -6.16405 0.354872 -1.4725 0
M  V30 END ATOM
M  V30 BEGIN BOND
M  V30 1 1 1 2
M  V30 2 1 2 3
M  V30 3 2 3 4
M  V30 4 1 4 5
M  V30 5 2 5 6
M  V30 6 1 6 7
M  V30 7 2 7 8
M  V30 8 1 7 9
M  V30 9 1 9 10
M  V30 10 1 10 11
M  V30 11 1 11 12
M  V30 12 2 12 13
M  V30 13 1 13 14
M  V30 14 2 14 15
M  V30 15 1 15 16
M  V30 16 2 16 17
M  V30 17 1 16 18
M  V30 18 1 18 19
M  V30 19 1 8 3
M  V30 20 1 17 12
M  V30 21 1 1 20
M  V30 22 1 1 21
M  V30 23 1 2 22
M  V30 24 1 2 23
M  V30 25 1 4 24
M  V30 26 1 5 25
M  V30 27 1 6 26
M  V30 28 1 8 27
M  V30 29 1 9 28
M  V30 30 1 9 29
M  V30 31 1 10 30
M  V30 32 1 11 31
M  V30 33 1 11 32
M  V30 34 1 13 33
M  V30 35 1 14 34
M  V30 36 1 15 35
M  V30 37 1 17 36
M  V30 38 1 18 37
M  V30 39 1 18 38
M  V30 40 1 19 39
M  V30 41 1 19 40
M  V30 END BOND
M  V30 END CTAB
M  END
