
     RDKit          3D

  0  0  0  0  0  0  0  0  0  0999 V3000
M  V30 BEGIN CTAB
M  V30 COUNTS 60 63 0 0 0
M  V30 BEGIN ATOM
M  V30 1 N 7.6358 1.52333 0.313394 0
M  V30 2 C 8.14959 0.236691 -0.0989151 0 CFG=1
M  V30 3 C 7.28188 -0.291573 -1.21539 0
M  V30 4 C 5.86991 -0.461988 -0.805305 0
M  V30 5 C 5.3651 -1.62097 -0.26181 0
M  V30 6 C 4.02645 -1.7023 0.0979558 0
M  V30 7 C 3.14282 -0.6548 -0.0625818 0
M  V30 8 C 3.651 0.503927 -0.606813 0
M  V30 9 C 5.00045 0.593527 -0.972236 0
M  V30 10 C 1.74425 -0.814988 0.340458 0
M  V30 11 N 1.36083 -1.99228 0.860557 0
M  V30 12 C 0.0885313 -2.25048 1.26786 0
M  V30 13 N -0.248958 -3.51967 1.80985 0
M  V30 14 N -0.798704 -1.26062 1.12908 0
M  V30 15 C -0.503443 -0.041514 0.615633 0
M  V30 16 C 0.794939 0.162723 0.221393 0
M  V30 17 C -1.55548 0.956035 0.514763 0
M  V30 18 C -2.83625 0.684974 0.928707 0
M  V30 19 C -3.86265 1.60383 0.849987 0
M  V30 20 C -5.21208 1.29481 1.29458 0
M  V30 21 O -5.51632 1.53191 2.48328 0
M  V30 22 N -6.17955 0.738603 0.425916 0
M  V30 23 C -7.49724 0.454918 0.924169 0
M  V30 24 C -7.77772 -1.03247 0.688762 0
M  V30 25 C -7.76659 -1.22428 -0.815388 0
M  V30 26 C -6.44106 -0.877402 -1.4068 0
M  V30 27 C -5.89004 0.439122 -0.967394 0
M  V30 28 C -3.57193 2.84334 0.330442 0
M  V30 29 Cl -4.88 4.01392 0.230288 0
M  V30 30 C -2.30692 3.15304 -0.0935731 0
M  V30 31 C -1.2856 2.19736 -0.000297438 0
M  V30 32 C 9.50923 0.424639 -0.64581 0
M  V30 33 O 10.2622 -0.640646 -1.12582 0
M  V30 34 O 9.99544 1.57877 -0.676744 0
M  V30 35 H 7.53842 2.13199 -0.506733 0
M  V30 36 H 8.32094 1.91286 0.999323 0
M  V30 37 H 8.1335 -0.414671 0.793402 0
M  V30 38 H 7.29971 0.424298 -2.06183 0
M  V30 39 H 7.65721 -1.27018 -1.57778 0
M  V30 40 H 6.03018 -2.44931 -0.126553 0
M  V30 41 H 3.63503 -2.63451 0.531501 0
M  V30 42 H 2.99382 1.35359 -0.751735 0
M  V30 43 H 5.33788 1.52805 -1.39329 0
M  V30 44 H -0.887296 -4.17714 1.3333 0
M  V30 45 H 0.165362 -3.78778 2.71777 0
M  V30 46 H 1.07881 1.1121 -0.191777 0
M  V30 47 H -3.02772 -0.29918 1.33151 0
M  V30 48 H -8.26928 0.99293 0.328723 0
M  V30 49 H -7.59326 0.650598 1.9991 0
M  V30 50 H -6.948 -1.59981 1.12709 0
M  V30 51 H -8.76565 -1.27015 1.09307 0
M  V30 52 H -7.94183 -2.3188 -1.02494 0
M  V30 53 H -8.62429 -0.697405 -1.26766 0
M  V30 54 H -5.71275 -1.6735 -1.11216 0
M  V30 55 H -6.54 -0.875536 -2.51022 0
M  V30 56 H -6.24108 1.24492 -1.64934 0
M  V30 57 H -4.77697 0.418276 -1.07042 0
M  V30 58 H -2.09979 4.1371 -0.500206 0
M  V30 59 H -0.331163 2.52369 -0.353682 0
M  V30 60 H 9.82029 -1.51191 -1.32636 0
M  V30 END ATOM
M  V30 BEGIN BOND
M  V30 1 1 1 2
M  V30 2 1 2 3
M  V30 3 1 3 4
M  V30 4 2 4 5
M  V30 5 1 5 6
M  V30 6 2 6 7
M  V30 7 1 7 8
M  V30 8 2 8 9
M  V30 9 1 7 10
M  V30 10 2 10 11
M  V30 11 1 11 12
M  V30 12 1 12 13
M  V30 13 2 12 14
M  V30 14 1 14 15
M  V30 15 2 15 16
M  V30 16 1 15 17
M  V30 17 2 17 18
M  V30 18 1 18 19
M  V30 19 1 19 20
M  V30 20 2 20 21
M  V30 21 1 20 22
M  V30 22 1 22 23
M  V30 23 1 23 24
M  V30 24 1 24 25
M  V30 25 1 25 26
M  V30 26 1 26 27
M  V30 27 2 19 28
M  V30 28 1 28 29
M  V30 29 1 28 30
M  V30 30 2 30 31
M  V30 31 1 2 32
M  V30 32 1 32 33
M  V30 33 2 32 34
M  V30 34 1 9 4
M  V30 35 1 16 10
M  V30 36 1 31 17
M  V30 37 1 27 22
M  V30 38 1 1 35
M  V30 39 1 1 36
M  V30 40 1 2 37 CFG=1
M  V30 41 1 3 38
M  V30 42 1 3 39
M  V30 43 1 5 40
M  V30 44 1 6 41
M  V30 45 1 8 42
M  V30 46 1 9 43
M  V30 47 1 13 44
M  V30 48 1 13 45
M  V30 49 1 16 46
M  V30 50 1 18 47
M  V30 51 1 23 48
M  V30 52 1 23 49
M  V30 53 1 24 50
M  V30 54 1 24 51
M  V30 55 1 25 52
M  V30 56 1 25 53
M  V30 57 1 26 54
M  V30 58 1 26 55
M  V30 59 1 27 56
M  V30 60 1 27 57
M  V30 61 1 30 58
M  V30 62 1 31 59
M  V30 63 1 33 60
M  V30 END BOND
M  V30 END CTAB
M  END
