
     RDKit          3D

  0  0  0  0  0  0  0  0  0  0999 V3000
M  V30 BEGIN CTAB
M  V30 COUNTS 23 24 0 0 0
M  V30 BEGIN ATOM
M  V30 1 N -3.54158 -1.37527 0.419721 0
M  V30 2 C -2.83983 -0.203767 -0.0323671 0
M  V30 3 C -3.47789 0.816091 -0.698823 0
M  V30 4 N -2.80586 1.90644 -1.11604 0
M  V30 5 C -1.48613 2.04418 -0.899332 0
M  V30 6 C -0.771372 1.04851 -0.228539 0
M  V30 7 C -1.47031 -0.0563748 0.190837 0
M  V30 8 C 0.63159 1.27292 0.0079818 0
M  V30 9 O 0.997437 2.4583 0.363881 0
M  V30 10 N 1.60997 0.251984 -0.134766 0
M  V30 11 C 1.48382 -1.02263 -0.508327 0
M  V30 12 N 2.7002 -1.65373 -0.479581 0
M  V30 13 C 3.59264 -0.726566 -0.0744597 0
M  V30 14 N 2.92897 0.420143 0.131924 0
M  V30 15 N 4.98848 -0.890663 0.111984 0
M  V30 16 H -4.15659 -1.3814 1.25772 0
M  V30 17 H -3.45324 -2.29549 -0.100865 0
M  V30 18 H -4.54147 0.742022 -0.892827 0
M  V30 19 H -0.923135 2.90664 -1.21879 0
M  V30 20 H -0.994293 -0.853386 0.732076 0
M  V30 21 H 0.55339 -1.509 -0.811323 0
M  V30 22 H 5.43179 -0.536021 0.968889 0
M  V30 23 H 5.54341 -1.36293 -0.611804 0
M  V30 END ATOM
M  V30 BEGIN BOND
M  V30 1 1 1 2
M  V30 2 2 2 3
M  V30 3 1 3 4
M  V30 4 2 4 5
M  V30 5 1 5 6
M  V30 6 2 6 7
M  V30 7 1 6 8
M  V30 8 2 8 9
M  V30 9 1 8 10
M  V30 10 1 10 11
M  V30 11 2 11 12
M  V30 12 1 12 13
M  V30 13 2 13 14
M  V30 14 1 13 15
M  V30 15 1 7 2
M  V30 16 1 14 10
M  V30 17 1 1 16
M  V30 18 1 1 17
M  V30 19 1 3 18
M  V30 20 1 5 19
M  V30 21 1 7 20
M  V30 22 1 11 21
M  V30 23 1 15 22
M  V30 24 1 15 23
M  V30 END BOND
M  V30 END CTAB
M  END
