
     RDKit          3D

  0  0  0  0  0  0  0  0  0  0999 V3000
M  V30 BEGIN CTAB
M  V30 COUNTS 30 29 0 0 0
M  V30 BEGIN ATOM
M  V30 1 N 3.17436 1.10964 -0.680753 0
M  V30 2 C 3.35446 -0.283293 -0.432854 0
M  V30 3 C 2.15559 -1.0533 -0.012702 0
M  V30 4 C 1.48489 -0.642558 1.23631 0
M  V30 5 C 0.920305 0.727801 1.29893 0
M  V30 6 C -0.148048 0.983032 0.257428 0
M  V30 7 C -1.30577 -0.00455963 0.470011 0
M  V30 8 C -2.33442 0.30341 -0.598649 0
M  V30 9 C -3.49795 -0.648998 -0.427643 0
M  V30 10 N -4.4676 -0.334098 -1.46104 0
M  V30 11 F -1.85931 0.122783 1.71226 0
M  V30 12 H 3.66412 1.36169 -1.56593 0
M  V30 13 H 3.68533 1.67754 0.0614167 0
M  V30 14 H 3.76454 -0.756424 -1.37332 0
M  V30 15 H 4.21231 -0.413851 0.298113 0
M  V30 16 H 2.51272 -2.11563 0.147304 0
M  V30 17 H 1.42804 -1.14924 -0.863607 0
M  V30 18 H 0.662444 -1.36098 1.53221 0
M  V30 19 H 2.20986 -0.730383 2.09667 0
M  V30 20 H 1.65534 1.53708 1.32491 0
M  V30 21 H 0.378457 0.798899 2.29407 0
M  V30 22 H 0.175577 0.832903 -0.779557 0
M  V30 23 H -0.597406 1.98729 0.402013 0
M  V30 24 H -0.923622 -1.01926 0.295691 0
M  V30 25 H -1.88741 0.0832219 -1.60092 0
M  V30 26 H -2.70217 1.32577 -0.528127 0
M  V30 27 H -3.98957 -0.513845 0.554933 0
M  V30 28 H -3.1579 -1.70524 -0.511222 0
M  V30 29 H -4.4025 0.693184 -1.63789 0
M  V30 30 H -4.16466 -0.812592 -2.33824 0
M  V30 END ATOM
M  V30 BEGIN BOND
M  V30 1 1 1 2
M  V30 2 1 2 3
M  V30 3 1 3 4
M  V30 4 1 4 5
M  V30 5 1 5 6
M  V30 6 1 6 7
M  V30 7 1 7 8
M  V30 8 1 8 9
M  V30 9 1 9 10
M  V30 10 1 7 11
M  V30 11 1 1 12
M  V30 12 1 1 13
M  V30 13 1 2 14
M  V30 14 1 2 15
M  V30 15 1 3 16
M  V30 16 1 3 17
M  V30 17 1 4 18
M  V30 18 1 4 19
M  V30 19 1 5 20
M  V30 20 1 5 21
M  V30 21 1 6 22
M  V30 22 1 6 23
M  V30 23 1 7 24
M  V30 24 1 8 25
M  V30 25 1 8 26
M  V30 26 1 9 27
M  V30 27 1 9 28
M  V30 28 1 10 29
M  V30 29 1 10 30
M  V30 END BOND
M  V30 END CTAB
M  END
