
     RDKit          3D

  0  0  0  0  0  0  0  0  0  0999 V3000
M  V30 BEGIN CTAB
M  V30 COUNTS 34 35 0 0 0
M  V30 BEGIN ATOM
M  V30 1 C 3.3274 1.48202 0.968459 0
M  V30 2 C 3.25731 -0.00145037 0.726536 0
M  V30 3 C 4.0067 -0.371752 -0.534751 0
M  V30 4 C 1.82841 -0.500824 0.688665 0
M  V30 5 O 1.09205 0.126493 -0.340663 0
M  V30 6 C -0.229773 -0.211234 -0.517418 0
M  V30 7 C -1.18075 0.522276 0.180887 0
M  V30 8 N -0.837974 1.52468 1.00008 0
M  V30 9 C -1.74287 2.24028 1.67946 0
M  V30 10 C -3.07513 1.9331 1.52939 0
M  V30 11 C -3.48861 0.91628 0.703829 0
M  V30 12 C -2.51951 0.208895 0.0261047 0
M  V30 13 C -2.95648 -0.81476 -0.803295 0
M  V30 14 N -4.3335 -1.13739 -0.962783 0
M  V30 15 C -1.99253 -1.52827 -1.48577 0
M  V30 16 C -0.6492 -1.23182 -1.34566 0
M  V30 17 N 0.327721 -1.97511 -2.05437 0
M  V30 18 H 2.47859 2.03469 0.504059 0
M  V30 19 H 3.31042 1.73652 2.05204 0
M  V30 20 H 4.30918 1.84832 0.584594 0
M  V30 21 H 3.7688 -0.506764 1.57129 0
M  V30 22 H 3.79658 0.356844 -1.33523 0
M  V30 23 H 5.10152 -0.348552 -0.353917 0
M  V30 24 H 3.72011 -1.39694 -0.863455 0
M  V30 25 H 1.87267 -1.59919 0.531646 0
M  V30 26 H 1.36047 -0.222625 1.65131 0
M  V30 27 H -1.4424 3.05472 2.34324 0
M  V30 28 H -3.82696 2.50051 2.07089 0
M  V30 29 H -4.5454 0.663296 0.576898 0
M  V30 30 H -4.9298 -0.634163 -1.68357 0
M  V30 31 H -4.82446 -1.86434 -0.399349 0
M  V30 32 H -2.32429 -2.34171 -2.14612 0
M  V30 33 H 0.710163 -1.5652 -2.92817 0
M  V30 34 H 0.631519 -2.89683 -1.68719 0
M  V30 END ATOM
M  V30 BEGIN BOND
M  V30 1 1 1 2
M  V30 2 1 2 3
M  V30 3 1 2 4
M  V30 4 1 4 5
M  V30 5 1 5 6
M  V30 6 2 6 7
M  V30 7 1 7 8
M  V30 8 2 8 9
M  V30 9 1 9 10
M  V30 10 2 10 11
M  V30 11 1 11 12
M  V30 12 2 12 13
M  V30 13 1 13 14
M  V30 14 1 13 15
M  V30 15 2 15 16
M  V30 16 1 16 17
M  V30 17 1 16 6
M  V30 18 1 12 7
M  V30 19 1 1 18
M  V30 20 1 1 19
M  V30 21 1 1 20
M  V30 22 1 2 21
M  V30 23 1 3 22
M  V30 24 1 3 23
M  V30 25 1 3 24
M  V30 26 1 4 25
M  V30 27 1 4 26
M  V30 28 1 9 27
M  V30 29 1 10 28
M  V30 30 1 11 29
M  V30 31 1 14 30
M  V30 32 1 14 31
M  V30 33 1 15 32
M  V30 34 1 17 33
M  V30 35 1 17 34
M  V30 END BOND
M  V30 END CTAB
M  END
