
     RDKit          3D

  0  0  0  0  0  0  0  0  0  0999 V3000
M  V30 BEGIN CTAB
M  V30 COUNTS 24 25 0 0 0
M  V30 BEGIN ATOM
M  V30 1 C -3.73567 1.36787 0.0720445 0
M  V30 2 C -3.053 0.753362 1.29867 0
M  V30 3 C -1.92254 -0.0615707 0.762659 0
M  V30 4 S -1.95993 -1.70243 0.307415 0
M  V30 5 C -0.340326 -1.88647 -0.181572 0
M  V30 6 C 0.195242 -0.644119 0.0263014 0
M  V30 7 C -0.62985 0.302942 0.517397 0
M  V30 8 C 1.62844 -0.376326 -0.284263 0
M  V30 9 O 2.51201 -1.21252 -0.759724 0
M  V30 10 N 3.67303 -0.656478 -0.91513 0
M  V30 11 C 3.57492 0.623304 -0.525686 0
M  V30 12 N 2.29754 0.782112 -0.13614 0
M  V30 13 N 4.65305 1.53965 -0.556553 0
M  V30 14 N 0.327983 -3.06145 -0.695055 0
M  V30 15 H -4.40791 0.609354 -0.368453 0
M  V30 16 H -2.93793 1.60703 -0.666097 0
M  V30 17 H -4.33783 2.2426 0.350273 0
M  V30 18 H -3.75214 0.0548952 1.80587 0
M  V30 19 H -2.73784 1.50129 2.02239 0
M  V30 20 H -0.32545 1.35155 0.732666 0
M  V30 21 H 4.97046 2.01785 -1.43707 0
M  V30 22 H 5.16965 1.76546 0.320363 0
M  V30 23 H 1.05748 -3.45581 -0.0699749 0
M  V30 24 H 0.0806269 -3.46213 -1.62032 0
M  V30 END ATOM
M  V30 BEGIN BOND
M  V30 1 1 1 2
M  V30 2 1 2 3
M  V30 3 1 3 4
M  V30 4 1 4 5
M  V30 5 2 5 6
M  V30 6 1 6 7
M  V30 7 1 6 8
M  V30 8 1 8 9
M  V30 9 1 9 10
M  V30 10 2 10 11
M  V30 11 1 11 12
M  V30 12 1 11 13
M  V30 13 1 5 14
M  V30 14 2 7 3
M  V30 15 2 12 8
M  V30 16 1 1 15
M  V30 17 1 1 16
M  V30 18 1 1 17
M  V30 19 1 2 18
M  V30 20 1 2 19
M  V30 21 1 7 20
M  V30 22 1 13 21
M  V30 23 1 13 22
M  V30 24 1 14 23
M  V30 25 1 14 24
M  V30 END BOND
M  V30 END CTAB
M  END
