
     RDKit          3D

  0  0  0  0  0  0  0  0  0  0999 V3000
M  V30 BEGIN CTAB
M  V30 COUNTS 27 27 0 0 0
M  V30 BEGIN ATOM
M  V30 1 N -4.17704 1.49786 0.0659071 0
M  V30 2 C -2.87324 0.919671 0.0674005 0
M  V30 3 C -1.75435 1.69329 0.310589 0
M  V30 4 C -0.478039 1.15111 0.316583 0
M  V30 5 C -0.303733 -0.19545 0.0749753 0
M  V30 6 C -1.42596 -0.954863 -0.165793 0
M  V30 7 C -2.70124 -0.428109 -0.174639 0
M  V30 8 N -3.83455 -1.246 -0.427497 0
M  V30 9 N 0.992893 -0.780898 0.0744771 0
M  V30 10 C 2.16691 0.0167504 0.326711 0
M  V30 11 C 3.38057 -0.880967 0.259701 0
M  V30 12 F 3.39821 -1.42389 -1.03055 0
M  V30 13 F 3.22126 -1.88615 1.19541 0
M  V30 14 C 4.65881 -0.098019 0.475311 0
M  V30 15 H -4.33713 2.37167 -0.452586 0
M  V30 16 H -4.96526 1.06097 0.57274 0
M  V30 17 H -1.92088 2.75763 0.499101 0
M  V30 18 H 0.36676 1.80932 0.514315 0
M  V30 19 H -1.30042 -2.01592 -0.357201 0
M  V30 20 H -4.2895 -1.21662 -1.36796 0
M  V30 21 H -4.2302 -1.8748 0.289251 0
M  V30 22 H 1.10565 -1.79597 -0.109048 0
M  V30 23 H 2.20737 0.780103 -0.490903 0
M  V30 24 H 2.11035 0.564479 1.28956 0
M  V30 25 H 5.07954 -0.397573 1.45582 0
M  V30 26 H 5.39837 -0.409847 -0.292021 0
M  V30 27 H 4.50485 0.982227 0.362737 0
M  V30 END ATOM
M  V30 BEGIN BOND
M  V30 1 1 1 2
M  V30 2 2 2 3
M  V30 3 1 3 4
M  V30 4 2 4 5
M  V30 5 1 5 6
M  V30 6 2 6 7
M  V30 7 1 7 8
M  V30 8 1 5 9
M  V30 9 1 9 10
M  V30 10 1 10 11
M  V30 11 1 11 12
M  V30 12 1 11 13
M  V30 13 1 11 14
M  V30 14 1 7 2
M  V30 15 1 1 15
M  V30 16 1 1 16
M  V30 17 1 3 17
M  V30 18 1 4 18
M  V30 19 1 6 19
M  V30 20 1 8 20
M  V30 21 1 8 21
M  V30 22 1 9 22
M  V30 23 1 10 23
M  V30 24 1 10 24
M  V30 25 1 14 25
M  V30 26 1 14 26
M  V30 27 1 14 27
M  V30 END BOND
M  V30 END CTAB
M  END
