
     RDKit          3D

  0  0  0  0  0  0  0  0  0  0999 V3000
M  V30 BEGIN CTAB
M  V30 COUNTS 17 17 0 0 0
M  V30 BEGIN ATOM
M  V30 1 N 3.13073 -0.403473 -0.0769737 0
M  V30 2 C 1.7517 -0.0313246 -0.0265612 0
M  V30 3 C 1.40955 1.29871 0.0997145 0
M  V30 4 N 0.125945 1.69923 0.151617 0
M  V30 5 C -0.885097 0.812369 0.0819827 0
M  V30 6 C -0.529845 -0.5218 -0.0448282 0
M  V30 7 N 0.752462 -0.925437 -0.0970017 0
M  V30 8 C -1.65632 -1.50024 -0.121564 0
M  V30 9 N -2.25493 1.1961 0.133361 0
M  V30 10 H 3.66917 -0.366955 -0.970307 0
M  V30 11 H 3.66483 -0.726716 0.764095 0
M  V30 12 H 2.19229 2.04954 0.159529 0
M  V30 13 H -1.81665 -1.98607 0.856452 0
M  V30 14 H -2.59091 -1.01793 -0.410736 0
M  V30 15 H -1.44179 -2.29399 -0.881403 0
M  V30 16 H -2.56347 1.7331 0.971767 0
M  V30 17 H -2.95767 0.984884 -0.589144 0
M  V30 END ATOM
M  V30 BEGIN BOND
M  V30 1 1 1 2
M  V30 2 2 2 3
M  V30 3 1 3 4
M  V30 4 2 4 5
M  V30 5 1 5 6
M  V30 6 2 6 7
M  V30 7 1 6 8
M  V30 8 1 5 9
M  V30 9 1 7 2
M  V30 10 1 1 10
M  V30 11 1 1 11
M  V30 12 1 3 12
M  V30 13 1 8 13
M  V30 14 1 8 14
M  V30 15 1 8 15
M  V30 16 1 9 16
M  V30 17 1 9 17
M  V30 END BOND
M  V30 END CTAB
M  END
