
     RDKit          3D

  0  0  0  0  0  0  0  0  0  0999 V3000
M  V30 BEGIN CTAB
M  V30 COUNTS 33 34 0 0 0
M  V30 BEGIN ATOM
M  V30 1 N 5.27273 0.203347 -0.0615347 0
M  V30 2 C 3.86248 0.0707115 0.00694147 0
M  V30 3 C 3.21736 -0.163506 1.20956 0
M  V30 4 C 1.85241 -0.288485 1.25297 0
M  V30 5 C 1.1073 -0.183466 0.107421 0
M  V30 6 C 1.74686 0.0480618 -1.08032 0
M  V30 7 N 3.08203 0.16455 -1.08388 0
M  V30 8 C -0.387736 -0.326708 0.197693 0 CFG=2
M  V30 9 C -0.716811 -1.71856 -0.183109 0
M  V30 10 C -2.17794 -1.99312 -0.384108 0
M  V30 11 C -3.00871 -0.743677 -0.47884 0
M  V30 12 C -2.25215 0.331493 -1.18091 0
M  V30 13 N -1.0141 0.694531 -0.585293 0
M  V30 14 S -1.16061 2.19108 0.215895 0
M  V30 15 O 0.157295 2.80541 0.573605 0
M  V30 16 O -1.84584 3.15332 -0.737054 0
M  V30 17 N -2.12457 2.10755 1.6293 0
M  V30 18 H 5.8585 -0.629638 -0.00157308 0
M  V30 19 H 5.67942 1.13231 -0.169988 0
M  V30 20 H 3.81136 -0.246157 2.11538 0
M  V30 21 H 1.38781 -0.47173 2.21739 0
M  V30 22 H 1.15485 0.130911 -1.98667 0
M  V30 23 H -0.654502 -0.140784 1.25651 0
M  V30 24 H -0.118513 -2.0054 -1.09653 0
M  V30 25 H -0.360496 -2.39753 0.62159 0
M  V30 26 H -2.61741 -2.61285 0.44448 0
M  V30 27 H -2.28916 -2.5854 -1.31595 0
M  V30 28 H -3.36904 -0.467351 0.524626 0
M  V30 29 H -3.90453 -0.986419 -1.08754 0
M  V30 30 H -2.10174 0.0133551 -2.23324 0
M  V30 31 H -2.9296 1.23318 -1.23464 0
M  V30 32 H -2.1035 1.14509 1.98956 0
M  V30 33 H -3.05344 2.53588 1.54275 0
M  V30 END ATOM
M  V30 BEGIN BOND
M  V30 1 1 1 2
M  V30 2 2 2 3
M  V30 3 1 3 4
M  V30 4 2 4 5
M  V30 5 1 5 6
M  V30 6 2 6 7
M  V30 7 1 5 8
M  V30 8 1 8 9
M  V30 9 1 9 10
M  V30 10 1 10 11
M  V30 11 1 11 12
M  V30 12 1 12 13
M  V30 13 1 13 14
M  V30 14 2 14 15
M  V30 15 2 14 16
M  V30 16 1 14 17
M  V30 17 1 7 2
M  V30 18 1 13 8
M  V30 19 1 1 18
M  V30 20 1 1 19
M  V30 21 1 3 20
M  V30 22 1 4 21
M  V30 23 1 6 22
M  V30 24 1 8 23 CFG=1
M  V30 25 1 9 24
M  V30 26 1 9 25
M  V30 27 1 10 26
M  V30 28 1 10 27
M  V30 29 1 11 28
M  V30 30 1 11 29
M  V30 31 1 12 30
M  V30 32 1 12 31
M  V30 33 1 17 32
M  V30 34 1 17 33
M  V30 END BOND
M  V30 END CTAB
M  END
