
     RDKit          3D

  0  0  0  0  0  0  0  0  0  0999 V3000
M  V30 BEGIN CTAB
M  V30 COUNTS 21 21 0 0 0
M  V30 BEGIN ATOM
M  V30 1 N -2.05773 2.36825 0.895951 0
M  V30 2 C -1.64485 1.14191 0.308641 0
M  V30 3 C -2.42814 0.0125658 0.389629 0
M  V30 4 C -2.01252 -1.15747 -0.183403 0
M  V30 5 N -2.79927 -2.33531 -0.115926 0
M  V30 6 N -0.812275 -1.16995 -0.829712 0
M  V30 7 C -0.0438797 -0.0817572 -0.91492 0
M  V30 8 S 1.5087 -0.0874281 -1.7544 0
M  V30 9 C 2.89406 -0.521769 -0.72011 0
M  V30 10 C 3.21113 0.446555 0.343445 0
M  V30 11 O 4.27238 0.164501 1.18362 0
M  V30 12 O 2.57282 1.50333 0.523131 0
M  V30 13 N -0.468544 1.05069 -0.348132 0
M  V30 14 H -2.75578 2.40261 1.67132 0
M  V30 15 H -1.67596 3.28988 0.571741 0
M  V30 16 H -3.37342 0.0740205 0.914469 0
M  V30 17 H -2.6635 -3.06087 -0.846427 0
M  V30 18 H -3.48607 -2.48318 0.624564 0
M  V30 19 H 2.75768 -1.51451 -0.197289 0
M  V30 20 H 3.82662 -0.62615 -1.34038 0
M  V30 21 H 5.17853 0.584053 0.934109 0
M  V30 END ATOM
M  V30 BEGIN BOND
M  V30 1 1 1 2
M  V30 2 2 2 3
M  V30 3 1 3 4
M  V30 4 1 4 5
M  V30 5 2 4 6
M  V30 6 1 6 7
M  V30 7 1 7 8
M  V30 8 1 8 9
M  V30 9 1 9 10
M  V30 10 1 10 11
M  V30 11 2 10 12
M  V30 12 2 7 13
M  V30 13 1 13 2
M  V30 14 1 1 14
M  V30 15 1 1 15
M  V30 16 1 3 16
M  V30 17 1 5 17
M  V30 18 1 5 18
M  V30 19 1 9 19
M  V30 20 1 9 20
M  V30 21 1 11 21
M  V30 END BOND
M  V30 END CTAB
M  END
