
     RDKit          3D

  0  0  0  0  0  0  0  0  0  0999 V3000
M  V30 BEGIN CTAB
M  V30 COUNTS 113 116 0 0 0
M  V30 BEGIN ATOM
M  V30 1 C -9.83173 1.49682 -3.04989 0
M  V30 2 C -11.184 1.44273 -2.40837 0
M  V30 3 S -11.7147 -0.18862 -1.89498 0
M  V30 4 C -10.7652 -0.901981 -0.560804 0
M  V30 5 S -10.8667 0.0403218 0.966768 0
M  V30 6 C -12.5322 -0.0808712 1.6646 0
M  V30 7 C -13.516 0.621072 0.77806 0
M  V30 8 C -9.33748 -1.24215 -0.979851 0 CFG=2
M  V30 9 C -9.45485 -2.27992 -2.11718 0
M  V30 10 C -9.94894 -3.49542 -1.35201 0
M  V30 11 C -9.54646 -3.26107 0.0639415 0
M  V30 12 N -8.69476 -2.02627 0.0353272 0
M  V30 13 C -7.55672 -1.94756 0.82507 0
M  V30 14 O -7.50068 -2.92349 1.72922 0
M  V30 15 C -6.44821 -1.04072 0.858522 0
M  V30 16 C -6.08786 -0.148893 -0.120526 0
M  V30 17 C -4.90528 0.600091 -0.0738679 0
M  V30 18 O -4.57387 1.49908 -1.09205 0
M  V30 19 C -5.38836 1.71293 -2.22244 0
M  V30 20 C -4.04349 0.474539 0.964783 0
M  V30 21 O -2.83896 1.21203 1.02516 0
M  V30 22 C -2.06483 1.01598 2.16115 0
M  V30 23 C -0.727104 1.64856 2.25401 0
M  V30 24 C 0.229342 1.09846 1.26025 0
M  V30 25 C -0.0823702 1.33094 -0.185682 0
M  V30 26 C 0.977529 0.50091 -0.971543 0
M  V30 27 O 2.21565 0.739629 -0.789913 0
M  V30 28 C 3.47685 0.985909 -0.606192 0
M  V30 29 C 4.25607 0.00236622 0.0614482 0
M  V30 30 O 3.63759 -1.17183 0.481325 0
M  V30 31 C 4.36631 -2.1899 1.15527 0
M  V30 32 C 5.58928 0.207083 0.286687 0
M  V30 33 C 6.22154 1.35363 -0.116716 0
M  V30 34 C 7.64325 1.55332 -0.0191287 0
M  V30 35 O 8.12695 2.48601 -0.774237 0
M  V30 36 N 8.56651 0.850133 0.80699 0
M  V30 37 C 8.28466 -0.113968 1.82297 0
M  V30 38 C 9.42398 0.0581888 2.84324 0
M  V30 39 C 10.5448 0.691852 2.07336 0
M  V30 40 C 10.0149 0.924471 0.716129 0 CFG=1
M  V30 41 C 10.6182 -0.0656114 -0.25074 0
M  V30 42 S 12.4149 0.171079 -0.175173 0
M  V30 43 C 12.8736 1.78496 -0.813974 0
M  V30 44 C 14.3693 2.02668 -0.707493 0
M  V30 45 S 10.2672 -1.76405 0.195598 0
M  V30 46 C 10.8763 -2.99276 -0.938731 0
M  V30 47 C 12.3837 -3.09021 -1.00199 0
M  V30 48 C 5.45692 2.32042 -0.773996 0
M  V30 49 N 6.1205 3.51988 -1.19246 0
M  V30 50 C 4.12503 2.13923 -1.00913 0
M  V30 51 C -4.37306 -0.409974 1.97207 0
M  V30 52 C -5.53254 -1.13634 1.91297 0
M  V30 53 N -5.82493 -2.02668 2.97864 0
M  V30 54 H -9.79944 2.24122 -3.88807 0
M  V30 55 H -9.56533 0.518475 -3.44698 0
M  V30 56 H -9.08397 1.78488 -2.27623 0
M  V30 57 H -11.1927 2.09913 -1.48378 0
M  V30 58 H -11.9546 1.93367 -3.07663 0
M  V30 59 H -11.252 -1.93403 -0.360059 0
M  V30 60 H -12.8041 -1.18204 1.61764 0
M  V30 61 H -12.5551 0.252034 2.73174 0
M  V30 62 H -14.455 0.893054 1.32334 0
M  V30 63 H -13.0397 1.51411 0.322328 0
M  V30 64 H -13.7527 -0.0526943 -0.0913379 0
M  V30 65 H -8.81072 -0.373042 -1.31367 0
M  V30 66 H -10.2187 -1.98235 -2.83864 0
M  V30 67 H -8.46239 -2.43166 -2.58131 0
M  V30 68 H -9.46461 -4.41869 -1.77808 0
M  V30 69 H -11.0362 -3.56695 -1.47101 0
M  V30 70 H -8.85467 -4.11199 0.344477 0
M  V30 71 H -10.3174 -3.21002 0.809524 0
M  V30 72 H -6.71494 -0.0162514 -0.971602 0
M  V30 73 H -6.47252 1.70846 -1.98153 0
M  V30 74 H -5.12796 2.69629 -2.69564 0
M  V30 75 H -5.21576 0.868979 -2.95044 0
M  V30 76 H -1.8906 -0.0992338 2.24344 0
M  V30 77 H -2.68893 1.32614 3.04134 0
M  V30 78 H -0.763597 2.75967 2.17212 0
M  V30 79 H -0.295729 1.41223 3.2731 0
M  V30 80 H 1.27585 1.48746 1.43571 0
M  V30 81 H 0.362413 -0.0154741 1.40652 0
M  V30 82 H -1.05471 0.972965 -0.499062 0
M  V30 83 H 0.048662 2.40842 -0.45353 0
M  V30 84 H 0.697341 -0.571363 -0.632123 0
M  V30 85 H 0.597289 0.448809 -2.05226 0
M  V30 86 H 3.73418 -3.11899 1.25126 0
M  V30 87 H 4.5634 -1.85632 2.20877 0
M  V30 88 H 5.29672 -2.47259 0.6468 0
M  V30 89 H 6.12205 -0.58947 0.765886 0
M  V30 90 H 8.1654 -1.14785 1.53792 0
M  V30 91 H 7.37103 0.298372 2.38614 0
M  V30 92 H 9.11097 0.76501 3.64727 0
M  V30 93 H 9.68334 -0.942657 3.26812 0
M  V30 94 H 10.932 1.61736 2.57095 0
M  V30 95 H 11.3724 -0.0849657 2.0637 0
M  V30 96 H 10.2875 1.97313 0.42857 0
M  V30 97 H 10.3455 0.184976 -1.31321 0
M  V30 98 H 12.3684 2.62432 -0.316539 0
M  V30 99 H 12.6176 1.89497 -1.90353 0
M  V30 100 H 14.5564 3.08833 -0.522014 0
M  V30 101 H 14.7727 1.41769 0.144108 0
M  V30 102 H 14.8436 1.7258 -1.66786 0
M  V30 103 H 10.5174 -3.99547 -0.552212 0
M  V30 104 H 10.4319 -2.93088 -1.95466 0
M  V30 105 H 12.8852 -2.49877 -0.184819 0
M  V30 106 H 12.7251 -4.16725 -0.931155 0
M  V30 107 H 12.6697 -2.7556 -2.01802 0
M  V30 108 H 6.44037 3.60032 -2.16085 0
M  V30 109 H 6.25807 4.27063 -0.511354 0
M  V30 110 H 3.58715 2.93476 -1.52851 0
M  V30 111 H -3.69573 -0.514299 2.8278 0
M  V30 112 H -6.52735 -1.74216 3.68762 0
M  V30 113 H -5.31207 -2.94962 3.00142 0
M  V30 END ATOM
M  V30 BEGIN BOND
M  V30 1 1 1 2
M  V30 2 1 2 3
M  V30 3 1 3 4
M  V30 4 1 4 5
M  V30 5 1 5 6
M  V30 6 1 6 7
M  V30 7 1 4 8
M  V30 8 1 8 9
M  V30 9 1 9 10
M  V30 10 1 10 11
M  V30 11 1 11 12
M  V30 12 1 12 13
M  V30 13 2 13 14
M  V30 14 1 13 15
M  V30 15 2 15 16
M  V30 16 1 16 17
M  V30 17 1 17 18
M  V30 18 1 18 19
M  V30 19 2 17 20
M  V30 20 1 20 21
M  V30 21 1 21 22
M  V30 22 1 22 23
M  V30 23 1 23 24
M  V30 24 1 24 25
M  V30 25 1 25 26
M  V30 26 1 26 27
M  V30 27 1 27 28
M  V30 28 2 28 29
M  V30 29 1 29 30
M  V30 30 1 30 31
M  V30 31 1 29 32
M  V30 32 2 32 33
M  V30 33 1 33 34
M  V30 34 2 34 35
M  V30 35 1 34 36
M  V30 36 1 36 37
M  V30 37 1 37 38
M  V30 38 1 38 39
M  V30 39 1 39 40
M  V30 40 1 40 41
M  V30 41 1 41 42
M  V30 42 1 42 43
M  V30 43 1 43 44
M  V30 44 1 41 45
M  V30 45 1 45 46
M  V30 46 1 46 47
M  V30 47 1 33 48
M  V30 48 1 48 49
M  V30 49 2 48 50
M  V30 50 1 20 51
M  V30 51 2 51 52
M  V30 52 1 52 53
M  V30 53 1 12 8
M  V30 54 1 52 15
M  V30 55 1 50 28
M  V30 56 1 40 36
M  V30 57 1 1 54
M  V30 58 1 1 55
M  V30 59 1 1 56
M  V30 60 1 2 57
M  V30 61 1 2 58
M  V30 62 1 4 59
M  V30 63 1 6 60
M  V30 64 1 6 61
M  V30 65 1 7 62
M  V30 66 1 7 63
M  V30 67 1 7 64
M  V30 68 1 8 65 CFG=3
M  V30 69 1 9 66
M  V30 70 1 9 67
M  V30 71 1 10 68
M  V30 72 1 10 69
M  V30 73 1 11 70
M  V30 74 1 11 71
M  V30 75 1 16 72
M  V30 76 1 19 73
M  V30 77 1 19 74
M  V30 78 1 19 75
M  V30 79 1 22 76
M  V30 80 1 22 77
M  V30 81 1 23 78
M  V30 82 1 23 79
M  V30 83 1 24 80
M  V30 84 1 24 81
M  V30 85 1 25 82
M  V30 86 1 25 83
M  V30 87 1 26 84
M  V30 88 1 26 85
M  V30 89 1 31 86
M  V30 90 1 31 87
M  V30 91 1 31 88
M  V30 92 1 32 89
M  V30 93 1 37 90
M  V30 94 1 37 91
M  V30 95 1 38 92
M  V30 96 1 38 93
M  V30 97 1 39 94
M  V30 98 1 39 95
M  V30 99 1 40 96 CFG=3
M  V30 100 1 41 97
M  V30 101 1 43 98
M  V30 102 1 43 99
M  V30 103 1 44 100
M  V30 104 1 44 101
M  V30 105 1 44 102
M  V30 106 1 46 103
M  V30 107 1 46 104
M  V30 108 1 47 105
M  V30 109 1 47 106
M  V30 110 1 47 107
M  V30 111 1 49 108
M  V30 112 1 49 109
M  V30 113 1 50 110
M  V30 114 1 51 111
M  V30 115 1 53 112
M  V30 116 1 53 113
M  V30 END BOND
M  V30 END CTAB
M  END
