
     RDKit          3D

  0  0  0  0  0  0  0  0  0  0999 V3000
M  V30 BEGIN CTAB
M  V30 COUNTS 35 36 0 0 0
M  V30 BEGIN ATOM
M  V30 1 N -2.39099 -1.73605 2.59073 0
M  V30 2 C -2.34936 -0.844146 1.46846 0
M  V30 3 C -1.30011 -0.859823 0.581002 0
M  V30 4 C -1.20216 -0.0206747 -0.526855 0
M  V30 5 C -2.24798 0.85413 -0.687578 0
M  V30 6 C -3.33383 0.899526 0.19547 0
M  V30 7 C -3.38044 0.0525359 1.26704 0
M  V30 8 C -0.0179587 -0.113861 -1.44086 0
M  V30 9 C 1.19591 -0.0373054 -0.612613 0
M  V30 10 C 2.25148 -0.875136 -0.758824 0
M  V30 11 C 3.38006 -0.759362 0.0659205 0
M  V30 12 C 3.45352 0.202171 1.04516 0
M  V30 13 C 2.38455 1.06412 1.20689 0
M  V30 14 N 2.43607 2.06827 2.21357 0
M  V30 15 C 1.29053 0.923415 0.379915 0
M  V30 16 C -0.0627419 -1.44699 -2.14476 0
M  V30 17 F 0.0173718 -2.53547 -1.32917 0
M  V30 18 F 0.776273 -1.62557 -3.18541 0
M  V30 19 F -1.36521 -1.5344 -2.76339 0
M  V30 20 C -0.00879567 1.02703 -2.39774 0
M  V30 21 F 1.12199 0.977764 -3.24265 0
M  V30 22 F -1.04213 0.947661 -3.35664 0
M  V30 23 F 0.0626684 2.23849 -1.78891 0
M  V30 24 H -3.01891 -2.57772 2.56328 0
M  V30 25 H -1.79667 -1.53631 3.4192 0
M  V30 26 H -0.516067 -1.56393 0.787475 0
M  V30 27 H -2.26344 1.54015 -1.49332 0
M  V30 28 H -4.12991 1.60456 0.0248149 0
M  V30 29 H -4.20343 0.0469844 1.98454 0
M  V30 30 H 2.31394 -1.6591 -1.47359 0
M  V30 31 H 4.22433 -1.41788 -0.039945 0
M  V30 32 H 4.31956 0.303317 1.68975 0
M  V30 33 H 2.29346 3.08135 2.03922 0
M  V30 34 H 2.63586 1.72171 3.19643 0
M  V30 35 H 0.472545 1.59053 0.523349 0
M  V30 END ATOM
M  V30 BEGIN BOND
M  V30 1 1 1 2
M  V30 2 2 2 3
M  V30 3 1 3 4
M  V30 4 2 4 5
M  V30 5 1 5 6
M  V30 6 2 6 7
M  V30 7 1 4 8
M  V30 8 1 8 9
M  V30 9 2 9 10
M  V30 10 1 10 11
M  V30 11 2 11 12
M  V30 12 1 12 13
M  V30 13 1 13 14
M  V30 14 2 13 15
M  V30 15 1 8 16
M  V30 16 1 16 17
M  V30 17 1 16 18
M  V30 18 1 16 19
M  V30 19 1 8 20
M  V30 20 1 20 21
M  V30 21 1 20 22
M  V30 22 1 20 23
M  V30 23 1 7 2
M  V30 24 1 15 9
M  V30 25 1 1 24
M  V30 26 1 1 25
M  V30 27 1 3 26
M  V30 28 1 5 27
M  V30 29 1 6 28
M  V30 30 1 7 29
M  V30 31 1 10 30
M  V30 32 1 11 31
M  V30 33 1 12 32
M  V30 34 1 14 33
M  V30 35 1 14 34
M  V30 36 1 15 35
M  V30 END BOND
M  V30 END CTAB
M  END
