
     RDKit          3D

  0  0  0  0  0  0  0  0  0  0999 V3000
M  V30 BEGIN CTAB
M  V30 COUNTS 39 41 0 0 0
M  V30 BEGIN ATOM
M  V30 1 C -3.00961 0.546459 -4.0706 0
M  V30 2 O -2.12413 0.441896 -3.00021 0
M  V30 3 C -2.37477 -0.208225 -1.81823 0
M  V30 4 C -1.35378 -0.20544 -0.8535 0
M  V30 5 C -1.48607 -0.815784 0.354091 0
M  V30 6 N -0.495729 -0.846928 1.36384 0
M  V30 7 C 0.782157 -0.296622 1.37703 0
M  V30 8 N 1.36322 0.401311 0.405106 0
M  V30 9 C 2.59633 0.921516 0.44183 0
M  V30 10 C 3.36899 0.738466 1.57685 0
M  V30 11 C 2.84048 0.0257076 2.63114 0
M  V30 12 C 1.57508 -0.474493 2.51999 0
M  V30 13 N 4.5927 1.23995 1.64571 0
M  V30 14 C 5.13473 1.94363 0.624294 0
M  V30 15 N 6.44991 2.46895 0.728285 0
M  V30 16 N 4.37726 2.11888 -0.479255 0
M  V30 17 C 3.13011 1.64336 -0.627137 0
M  V30 18 N 2.34959 1.83024 -1.77788 0
M  V30 19 C -2.72028 -1.45482 0.576598 0
M  V30 20 O -2.92674 -2.09051 1.76915 0
M  V30 21 C -4.08664 -2.76723 2.14415 0
M  V30 22 C -3.73357 -1.47377 -0.345462 0
M  V30 23 C -3.55268 -0.842224 -1.55319 0
M  V30 24 H -4.05288 0.532498 -3.71734 0
M  V30 25 H -2.85374 1.55864 -4.5414 0
M  V30 26 H -2.83149 -0.190512 -4.87699 0
M  V30 27 H -0.422996 0.31452 -1.10441 0
M  V30 28 H -0.76485 -1.38035 2.27302 0
M  V30 29 H 3.42027 -0.140465 3.54579 0
M  V30 30 H 1.20921 -1.02999 3.3854 0
M  V30 31 H 6.59486 3.47747 0.926516 0
M  V30 32 H 7.27921 1.86306 0.609739 0
M  V30 33 H 2.5861 1.33354 -2.65878 0
M  V30 34 H 1.53553 2.46591 -1.74652 0
M  V30 35 H -4.90233 -2.03905 2.37942 0
M  V30 36 H -4.46996 -3.37505 1.28956 0
M  V30 37 H -3.95696 -3.39355 3.04745 0
M  V30 38 H -4.68543 -1.96864 -0.168983 0
M  V30 39 H -4.38114 -0.87237 -2.27505 0
M  V30 END ATOM
M  V30 BEGIN BOND
M  V30 1 1 1 2
M  V30 2 1 2 3
M  V30 3 2 3 4
M  V30 4 1 4 5
M  V30 5 1 5 6
M  V30 6 1 6 7
M  V30 7 2 7 8
M  V30 8 1 8 9
M  V30 9 2 9 10
M  V30 10 1 10 11
M  V30 11 2 11 12
M  V30 12 1 10 13
M  V30 13 2 13 14
M  V30 14 1 14 15
M  V30 15 1 14 16
M  V30 16 2 16 17
M  V30 17 1 17 18
M  V30 18 2 5 19
M  V30 19 1 19 20
M  V30 20 1 20 21
M  V30 21 1 19 22
M  V30 22 2 22 23
M  V30 23 1 23 3
M  V30 24 1 12 7
M  V30 25 1 17 9
M  V30 26 1 1 24
M  V30 27 1 1 25
M  V30 28 1 1 26
M  V30 29 1 4 27
M  V30 30 1 6 28
M  V30 31 1 11 29
M  V30 32 1 12 30
M  V30 33 1 15 31
M  V30 34 1 15 32
M  V30 35 1 18 33
M  V30 36 1 18 34
M  V30 37 1 21 35
M  V30 38 1 21 36
M  V30 39 1 21 37
M  V30 40 1 22 38
M  V30 41 1 23 39
M  V30 END BOND
M  V30 END CTAB
M  END
