
     RDKit          3D

  0  0  0  0  0  0  0  0  0  0999 V3000
M  V30 BEGIN CTAB
M  V30 COUNTS 90 94 0 0 0
M  V30 BEGIN ATOM
M  V30 1 C 1.33098 -0.289342 0.626727 0 CFG=2
M  V30 2 O 2.37401 -1.11548 0.886543 0
M  V30 3 C 2.92937 -1.72799 -0.229018 0 CFG=1
M  V30 4 O 4.25345 -1.14717 -0.321646 0
M  V30 5 C 5.16042 -1.57275 0.642782 0
M  V30 6 C 6.36419 -0.747122 0.895129 0
M  V30 7 N 7.1099 -0.65724 -0.355285 0
M  V30 8 C 8.31893 0.131468 -0.173897 0
M  V30 9 C 9.03676 0.234305 -1.48782 0
M  V30 10 C 8.2528 0.906347 -2.63573 0
M  V30 11 C 8.63226 -0.52624 -2.6819 0
M  V30 12 C 5.01179 -2.67405 1.35055 0
M  V30 13 C 3.83859 -3.58429 1.18365 0
M  V30 14 C 3.15412 -3.19391 -0.114425 0 CFG=1
M  V30 15 N 2.03166 -4.02995 -0.40079 0
M  V30 16 C 1.64157 1.17832 0.929402 0 CFG=1
M  V30 17 N 2.97932 1.53108 0.582019 0
M  V30 18 C 0.596807 1.96118 0.173886 0
M  V30 19 C -0.76513 1.59575 0.733991 0 CFG=1
M  V30 20 N -1.79696 2.43936 0.240302 0
M  V30 21 C -2.4972 3.31473 1.09202 0
M  V30 22 O -2.19749 3.34601 2.316 0
M  V30 23 C -3.58994 4.21196 0.586348 0
M  V30 24 O -3.84378 4.08912 -0.758016 0
M  V30 25 C -3.29186 5.64923 0.97166 0
M  V30 26 N -4.57898 5.81222 1.60757 0
M  V30 27 C -4.76662 4.37592 1.5054 0
M  V30 28 C -1.05055 0.114179 0.593502 0 CFG=2
M  V30 29 O -2.29475 -0.113773 1.0611 0
M  V30 30 C -3.25418 -0.655513 0.254414 0 CFG=1
M  V30 31 O -3.47561 -1.92283 0.751679 0
M  V30 32 C -4.74492 -2.39507 0.777568 0
M  V30 33 C -5.55226 -2.09202 -0.446708 0 CFG=2
M  V30 34 C -6.96385 -2.61026 -0.268047 0
M  V30 35 O -4.96418 -2.79265 -1.50121 0
M  V30 36 C -5.58136 -0.611736 -0.675155 0 CFG=2
M  V30 37 N -5.36156 -0.309026 -2.08574 0
M  V30 38 C -6.38185 -0.832858 -2.94139 0
M  V30 39 C -4.52757 0.0872249 0.15544 0 CFG=1
M  V30 40 O -5.10218 0.422637 1.36557 0
M  V30 41 C 0.0564157 -0.575054 1.35836 0 CFG=1
M  V30 42 O -0.090068 -1.92222 1.47429 0
M  V30 43 H 1.13272 -0.304897 -0.455942 0
M  V30 44 H 2.45481 -1.4825 -1.17409 0
M  V30 45 H 7.04847 -1.21937 1.62993 0
M  V30 46 H 6.04138 0.250391 1.23471 0
M  V30 47 H 7.34569 -1.62291 -0.689682 0
M  V30 48 H 8.04221 1.17296 0.125396 0
M  V30 49 H 8.94202 -0.352148 0.599612 0
M  V30 50 H 10.083 0.600051 -1.38858 0
M  V30 51 H 8.78773 1.69149 -3.19974 0
M  V30 52 H 7.19608 1.15419 -2.42783 0
M  V30 53 H 9.43553 -0.785589 -3.41104 0
M  V30 54 H 7.83415 -1.27575 -2.61839 0
M  V30 55 H 5.74469 -2.9653 2.09105 0
M  V30 56 H 3.15259 -3.5173 2.05167 0
M  V30 57 H 4.1619 -4.63338 1.08402 0
M  V30 58 H 3.9227 -3.44772 -0.909253 0
M  V30 59 H 1.29737 -3.48832 -0.895212 0
M  V30 60 H 2.31457 -4.90789 -0.862165 0
M  V30 61 H 1.47277 1.28412 2.03741 0
M  V30 62 H 3.54656 1.56856 1.46562 0
M  V30 63 H 2.98286 2.43169 0.0939891 0
M  V30 64 H 0.706998 3.05544 0.295537 0
M  V30 65 H 0.621186 1.6681 -0.874949 0
M  V30 66 H -0.681118 1.76606 1.84801 0
M  V30 67 H -2.04288 2.41364 -0.765866 0
M  V30 68 H -4.80206 4.18228 -0.995486 0
M  V30 69 H -3.2186 6.33026 0.0813812 0
M  V30 70 H -2.43014 5.75674 1.66637 0
M  V30 71 H -5.26466 6.39264 1.07664 0
M  V30 72 H -5.7413 4.07277 1.0652 0
M  V30 73 H -4.56106 3.90666 2.48718 0
M  V30 74 H -0.879061 -0.145212 -0.469294 0
M  V30 75 H -2.87879 -0.846256 -0.796797 0
M  V30 76 H -5.2663 -1.98032 1.67477 0
M  V30 77 H -4.73946 -3.52009 0.974218 0
M  V30 78 H -7.65485 -1.75279 -0.0928236 0
M  V30 79 H -7.00381 -3.23126 0.64271 0
M  V30 80 H -7.2683 -3.22571 -1.12608 0
M  V30 81 H -5.19798 -3.76471 -1.3704 0
M  V30 82 H -6.56873 -0.226803 -0.347129 0
M  V30 83 H -4.41952 -0.604403 -2.3862 0
M  V30 84 H -6.11091 -1.80808 -3.43047 0
M  V30 85 H -7.32376 -1.0146 -2.38724 0
M  V30 86 H -6.60497 -0.155055 -3.81153 0
M  V30 87 H -4.40541 1.08539 -0.382246 0
M  V30 88 H -6.08567 0.465788 1.35343 0
M  V30 89 H 0.127723 -0.047545 2.35007 0
M  V30 90 H 0.353165 -2.22583 2.30036 0
M  V30 END ATOM
M  V30 BEGIN BOND
M  V30 1 1 1 2
M  V30 2 1 2 3
M  V30 3 1 3 4
M  V30 4 1 4 5
M  V30 5 1 5 6
M  V30 6 1 6 7
M  V30 7 1 7 8
M  V30 8 1 8 9
M  V30 9 1 9 10
M  V30 10 1 10 11
M  V30 11 2 5 12
M  V30 12 1 12 13
M  V30 13 1 13 14
M  V30 14 1 14 15
M  V30 15 1 1 16
M  V30 16 1 16 17
M  V30 17 1 16 18
M  V30 18 1 18 19
M  V30 19 1 19 20
M  V30 20 1 20 21
M  V30 21 2 21 22
M  V30 22 1 21 23
M  V30 23 1 23 24
M  V30 24 1 23 25
M  V30 25 1 25 26
M  V30 26 1 26 27
M  V30 27 1 19 28
M  V30 28 1 28 29
M  V30 29 1 29 30
M  V30 30 1 30 31
M  V30 31 1 31 32
M  V30 32 1 32 33
M  V30 33 1 33 34
M  V30 34 1 33 35 CFG=3
M  V30 35 1 33 36
M  V30 36 1 36 37
M  V30 37 1 37 38
M  V30 38 1 36 39
M  V30 39 1 39 40
M  V30 40 1 28 41
M  V30 41 1 41 42
M  V30 42 1 41 1
M  V30 43 1 14 3
M  V30 44 1 27 23
M  V30 45 1 39 30
M  V30 46 1 11 9
M  V30 47 1 1 43 CFG=3
M  V30 48 1 3 44 CFG=3
M  V30 49 1 6 45
M  V30 50 1 6 46
M  V30 51 1 7 47
M  V30 52 1 8 48
M  V30 53 1 8 49
M  V30 54 1 9 50
M  V30 55 1 10 51
M  V30 56 1 10 52
M  V30 57 1 11 53
M  V30 58 1 11 54
M  V30 59 1 12 55
M  V30 60 1 13 56
M  V30 61 1 13 57
M  V30 62 1 14 58 CFG=3
M  V30 63 1 15 59
M  V30 64 1 15 60
M  V30 65 1 16 61 CFG=1
M  V30 66 1 17 62
M  V30 67 1 17 63
M  V30 68 1 18 64
M  V30 69 1 18 65
M  V30 70 1 19 66 CFG=1
M  V30 71 1 20 67
M  V30 72 1 24 68
M  V30 73 1 25 69
M  V30 74 1 25 70
M  V30 75 1 26 71
M  V30 76 1 27 72
M  V30 77 1 27 73
M  V30 78 1 28 74 CFG=3
M  V30 79 1 30 75 CFG=3
M  V30 80 1 32 76
M  V30 81 1 32 77
M  V30 82 1 34 78
M  V30 83 1 34 79
M  V30 84 1 34 80
M  V30 85 1 35 81
M  V30 86 1 36 82 CFG=1
M  V30 87 1 37 83
M  V30 88 1 38 84
M  V30 89 1 38 85
M  V30 90 1 38 86
M  V30 91 1 39 87 CFG=3
M  V30 92 1 40 88
M  V30 93 1 41 89 CFG=1
M  V30 94 1 42 90
M  V30 END BOND
M  V30 END CTAB
M  END
