
     RDKit          3D

  0  0  0  0  0  0  0  0  0  0999 V3000
M  V30 BEGIN CTAB
M  V30 COUNTS 28 28 0 0 0
M  V30 BEGIN ATOM
M  V30 1 C -3.1836 -0.17327 1.43003 0
M  V30 2 C -2.21202 -0.02978 0.326097 0
M  V30 3 C -0.878735 -0.238012 0.626504 0
M  V30 4 N -0.455652 -0.575133 1.93636 0
M  V30 5 C 0.1288 -0.13157 -0.328445 0
M  V30 6 C -0.268661 0.195197 -1.60395 0
M  V30 7 C -1.59543 0.404071 -1.91032 0
M  V30 8 C -2.59092 0.292515 -0.938186 0
M  V30 9 N -3.94204 0.505491 -1.25149 0
M  V30 10 C 1.53575 -0.353445 -0.00201968 0
M  V30 11 O 1.93251 -0.649843 1.13756 0
M  V30 12 O 2.47028 -0.228813 -1.00377 0
M  V30 13 C 3.85707 -0.418672 -0.811288 0
M  V30 14 C 4.41203 0.548799 0.207077 0
M  V30 15 H -4.21109 0.104836 1.1382 0
M  V30 16 H -2.84871 0.489662 2.25923 0
M  V30 17 H -3.21968 -1.2048 1.84164 0
M  V30 18 H -0.274493 0.192891 2.60746 0
M  V30 19 H -0.333211 -1.56777 2.20732 0
M  V30 20 H 0.486597 0.285593 -2.36731 0
M  V30 21 H -1.9235 0.663785 -2.91833 0
M  V30 22 H -4.62062 1.04647 -0.679154 0
M  V30 23 H -4.3079 0.0841875 -2.14161 0
M  V30 24 H 4.07927 -1.47251 -0.558912 0
M  V30 25 H 4.37409 -0.20703 -1.77022 0
M  V30 26 H 3.85701 1.51182 0.103663 0
M  V30 27 H 5.47636 0.750102 -0.0271641 0
M  V30 28 H 4.25649 0.175233 1.22689 0
M  V30 END ATOM
M  V30 BEGIN BOND
M  V30 1 1 1 2
M  V30 2 2 2 3
M  V30 3 1 3 4
M  V30 4 1 3 5
M  V30 5 2 5 6
M  V30 6 1 6 7
M  V30 7 2 7 8
M  V30 8 1 8 9
M  V30 9 1 5 10
M  V30 10 2 10 11
M  V30 11 1 10 12
M  V30 12 1 12 13
M  V30 13 1 13 14
M  V30 14 1 8 2
M  V30 15 1 1 15
M  V30 16 1 1 16
M  V30 17 1 1 17
M  V30 18 1 4 18
M  V30 19 1 4 19
M  V30 20 1 6 20
M  V30 21 1 7 21
M  V30 22 1 9 22
M  V30 23 1 9 23
M  V30 24 1 13 24
M  V30 25 1 13 25
M  V30 26 1 14 26
M  V30 27 1 14 27
M  V30 28 1 14 28
M  V30 END BOND
M  V30 END CTAB
M  END
