
     RDKit          3D

  0  0  0  0  0  0  0  0  0  0999 V3000
M  V30 BEGIN CTAB
M  V30 COUNTS 17 17 0 0 0
M  V30 BEGIN ATOM
M  V30 1 N 2.37582 0.680239 -0.299345 0
M  V30 2 C 0.949559 0.568449 -0.160673 0
M  V30 3 C 0.132455 1.67518 -0.244286 0
M  V30 4 C -1.23621 1.58096 -0.113044 0
M  V30 5 C -1.85773 0.368921 0.109392 0
M  V30 6 C -1.04483 -0.749686 0.195023 0
M  V30 7 C 0.337485 -0.642359 0.0607776 0
M  V30 8 N 1.11597 -1.81904 0.157471 0
M  V30 9 O -1.654 -1.97251 0.417891 0
M  V30 10 Br -3.75121 0.2388 0.290921 0
M  V30 11 H 2.84965 0.405556 -1.17913 0
M  V30 12 H 2.95792 1.04083 0.486193 0
M  V30 13 H 0.605367 2.63621 -0.418933 0
M  V30 14 H -1.8818 2.46038 -0.179803 0
M  V30 15 H 1.78012 -1.90626 0.946241 0
M  V30 16 H 0.975721 -2.54167 -0.58008 0
M  V30 17 H -2.65428 -2.024 0.511384 0
M  V30 END ATOM
M  V30 BEGIN BOND
M  V30 1 1 1 2
M  V30 2 2 2 3
M  V30 3 1 3 4
M  V30 4 2 4 5
M  V30 5 1 5 6
M  V30 6 2 6 7
M  V30 7 1 7 8
M  V30 8 1 6 9
M  V30 9 1 5 10
M  V30 10 1 7 2
M  V30 11 1 1 11
M  V30 12 1 1 12
M  V30 13 1 3 13
M  V30 14 1 4 14
M  V30 15 1 8 15
M  V30 16 1 8 16
M  V30 17 1 9 17
M  V30 END BOND
M  V30 END CTAB
M  END
