
     RDKit          3D

  0  0  0  0  0  0  0  0  0  0999 V3000
M  V30 BEGIN CTAB
M  V30 COUNTS 18 19 0 0 0
M  V30 BEGIN ATOM
M  V30 1 N 3.11886 -0.508052 0.289313 0
M  V30 2 C 1.72546 -0.191578 0.143284 0
M  V30 3 C 0.739189 -1.15318 0.227258 0
M  V30 4 N -0.573432 -0.878455 0.0933697 0
M  V30 5 C -1.69204 -1.64932 0.138121 0
M  V30 6 C -2.77821 -0.825314 -0.0669474 0
M  V30 7 N -2.31287 0.427785 -0.232918 0
M  V30 8 C -0.95386 0.392649 -0.133721 0
M  V30 9 C 0.00857599 1.37667 -0.222882 0
M  V30 10 N 1.31485 1.07273 -0.0848106 0
M  V30 11 N -0.380986 2.72311 -0.462503 0
M  V30 12 H 3.67827 -0.992471 -0.416331 0
M  V30 13 H 3.54528 -0.200444 1.19901 0
M  V30 14 H 1.07906 -2.18378 0.413517 0
M  V30 15 H -1.6414 -2.70465 0.308414 0
M  V30 16 H -3.82449 -1.1678 -0.0849128 0
M  V30 17 H -1.32569 3.06548 -0.190274 0
M  V30 18 H 0.273435 3.39662 -0.916984 0
M  V30 END ATOM
M  V30 BEGIN BOND
M  V30 1 1 1 2
M  V30 2 2 2 3
M  V30 3 1 3 4
M  V30 4 1 4 5
M  V30 5 2 5 6
M  V30 6 1 6 7
M  V30 7 2 7 8
M  V30 8 1 8 9
M  V30 9 2 9 10
M  V30 10 1 9 11
M  V30 11 1 10 2
M  V30 12 1 8 4
M  V30 13 1 1 12
M  V30 14 1 1 13
M  V30 15 1 3 14
M  V30 16 1 5 15
M  V30 17 1 6 16
M  V30 18 1 11 17
M  V30 19 1 11 18
M  V30 END BOND
M  V30 END CTAB
M  END
