
     RDKit          3D

  0  0  0  0  0  0  0  0  0  0999 V3000
M  V30 BEGIN CTAB
M  V30 COUNTS 54 55 0 0 0
M  V30 BEGIN ATOM
M  V30 1 C -5.6241 0.966975 -0.140841 0
M  V30 2 C -4.80896 -0.0491479 -0.902704 0
M  V30 3 C -3.84088 -0.782915 -0.0286778 0
M  V30 4 C -2.86065 0.157431 0.624562 0
M  V30 5 N -2.08049 0.891559 -0.336067 0
M  V30 6 C -1.11734 1.81378 0.122408 0
M  V30 7 O -0.928292 2.00599 1.36833 0
M  V30 8 C -0.319861 2.56397 -0.878762 0 CFG=2
M  V30 9 C 0.472723 1.50957 -1.66259 0
M  V30 10 C 1.32084 0.813852 -0.62886 0
M  V30 11 N 0.967103 -0.268611 0.0747924 0
M  V30 12 C 1.9912 -0.575365 0.882006 0
M  V30 13 N 3.00664 0.297559 0.709285 0
M  V30 14 C 2.5806 1.1585 -0.232763 0
M  V30 15 C 4.29571 0.335135 1.37507 0
M  V30 16 C 5.31793 -0.441858 0.678067 0
M  V30 17 C 6.09651 0.159196 -0.282783 0
M  V30 18 C 7.08313 -0.497836 -0.9891 0
M  V30 19 C 7.25711 -1.82986 -0.675356 0
M  V30 20 C 6.49063 -2.45049 0.280996 0
M  V30 21 C 5.51105 -1.77096 0.972464 0
M  V30 22 N 0.588528 3.43583 -0.177917 0
M  V30 23 C -4.55504 -1.55533 1.06537 0
M  V30 24 C -5.50621 -2.57504 0.48281 0
M  V30 25 N -3.11142 -1.7324 -0.835271 0
M  V30 26 H -6.12428 0.563219 0.739484 0
M  V30 27 H -6.41013 1.35492 -0.829503 0
M  V30 28 H -4.99998 1.82693 0.165321 0
M  V30 29 H -4.23232 0.500046 -1.66378 0
M  V30 30 H -5.47273 -0.788181 -1.38328 0
M  V30 31 H -2.16506 -0.412776 1.26174 0
M  V30 32 H -3.39539 0.861904 1.30261 0
M  V30 33 H -2.22766 0.741563 -1.34028 0
M  V30 34 H -0.986315 3.12745 -1.5396 0
M  V30 35 H 1.18365 2.02563 -2.34081 0
M  V30 36 H -0.205154 0.816023 -2.16386 0
M  V30 37 H 1.97975 -1.40951 1.56536 0
M  V30 38 H 3.11149 2.01655 -0.655155 0
M  V30 39 H 4.21879 0.0115624 2.44811 0
M  V30 40 H 4.58131 1.4234 1.4357 0
M  V30 41 H 5.97014 1.22187 -0.545012 0
M  V30 42 H 7.68683 -0.00366296 -1.74427 0
M  V30 43 H 8.02364 -2.39557 -1.2042 0
M  V30 44 H 6.6492 -3.5102 0.511351 0
M  V30 45 H 4.91544 -2.29136 1.72933 0
M  V30 46 H 0.683496 3.21364 0.837196 0
M  V30 47 H 0.289229 4.4252 -0.312343 0
M  V30 48 H -3.80092 -2.08999 1.67606 0
M  V30 49 H -5.09263 -0.880224 1.76965 0
M  V30 50 H -5.37478 -3.5404 0.98127 0
M  V30 51 H -5.29258 -2.70778 -0.594651 0
M  V30 52 H -6.54918 -2.19123 0.649185 0
M  V30 53 H -2.90526 -1.35173 -1.8006 0
M  V30 54 H -2.28509 -2.13683 -0.370352 0
M  V30 END ATOM
M  V30 BEGIN BOND
M  V30 1 1 1 2
M  V30 2 1 2 3
M  V30 3 1 3 4
M  V30 4 1 4 5
M  V30 5 1 5 6
M  V30 6 2 6 7
M  V30 7 1 6 8
M  V30 8 1 8 9
M  V30 9 1 9 10
M  V30 10 1 10 11
M  V30 11 2 11 12
M  V30 12 1 12 13
M  V30 13 1 13 14
M  V30 14 1 13 15
M  V30 15 1 15 16
M  V30 16 2 16 17
M  V30 17 1 17 18
M  V30 18 2 18 19
M  V30 19 1 19 20
M  V30 20 2 20 21
M  V30 21 1 8 22
M  V30 22 1 3 23
M  V30 23 1 23 24
M  V30 24 1 3 25
M  V30 25 2 14 10
M  V30 26 1 21 16
M  V30 27 1 1 26
M  V30 28 1 1 27
M  V30 29 1 1 28
M  V30 30 1 2 29
M  V30 31 1 2 30
M  V30 32 1 4 31
M  V30 33 1 4 32
M  V30 34 1 5 33
M  V30 35 1 8 34 CFG=3
M  V30 36 1 9 35
M  V30 37 1 9 36
M  V30 38 1 12 37
M  V30 39 1 14 38
M  V30 40 1 15 39
M  V30 41 1 15 40
M  V30 42 1 17 41
M  V30 43 1 18 42
M  V30 44 1 19 43
M  V30 45 1 20 44
M  V30 46 1 21 45
M  V30 47 1 22 46
M  V30 48 1 22 47
M  V30 49 1 23 48
M  V30 50 1 23 49
M  V30 51 1 24 50
M  V30 52 1 24 51
M  V30 53 1 24 52
M  V30 54 1 25 53
M  V30 55 1 25 54
M  V30 END BOND
M  V30 END CTAB
M  END
