
     RDKit          3D

  0  0  0  0  0  0  0  0  0  0999 V3000
M  V30 BEGIN CTAB
M  V30 COUNTS 59 59 0 0 0
M  V30 BEGIN ATOM
M  V30 1 C 6.20947 -1.37961 1.63594 0
M  V30 2 C 5.41376 -2.03064 0.555372 0
M  V30 3 C 4.34558 -1.15223 -0.0397443 0
M  V30 4 C 3.33448 -0.695514 0.963758 0
M  V30 5 C 2.33589 0.15382 0.286067 0
M  V30 6 O 2.77208 1.1463 -0.359924 0
M  V30 7 N 0.950021 -0.0784016 0.320363 0
M  V30 8 C 0.00451164 0.801188 -0.373968 0
M  V30 9 C -0.799275 1.53995 0.593215 0
M  V30 10 O -0.581526 1.26846 1.83385 0
M  V30 11 N -1.78532 2.52368 0.321053 0
M  V30 12 C -2.15346 2.94921 -1.04099 0
M  V30 13 C -2.75259 4.33052 -0.841049 0
M  V30 14 C -3.51767 4.11113 0.433429 0
M  V30 15 C -2.5514 3.29051 1.26473 0
M  V30 16 C -3.25148 2.53673 2.30392 0
M  V30 17 O -3.86715 3.23914 3.19196 0
M  V30 18 O -3.33675 1.18921 2.45215 0
M  V30 19 C -0.642537 0.103003 -1.50126 0
M  V30 20 C -1.42242 -1.1251 -1.23907 0
M  V30 21 C -2.5936 -1.01476 -0.333525 0
M  V30 22 N -3.29633 -2.2757 -0.168941 0
M  V30 23 C -4.02007 -2.90411 -1.18894 0
M  V30 24 N -3.73101 -4.09918 -1.54394 0
M  V30 25 N -5.07559 -2.22485 -1.83582 0
M  V30 26 N 2.70564 -1.80679 1.65878 0
M  V30 27 C 6.32844 -2.44147 -0.604219 0
M  V30 28 H 5.95485 -0.332243 1.83681 0
M  V30 29 H 7.29785 -1.39795 1.36815 0
M  V30 30 H 6.14777 -2.00589 2.57389 0
M  V30 31 H 4.94629 -2.96649 0.922038 0
M  V30 32 H 4.79389 -0.248679 -0.507681 0
M  V30 33 H 3.82673 -1.7415 -0.813911 0
M  V30 34 H 3.86229 -0.0464726 1.69762 0
M  V30 35 H 0.562418 -0.879349 0.838496 0
M  V30 36 H 0.670308 1.60273 -0.883432 0
M  V30 37 H -2.91862 2.29879 -1.48186 0
M  V30 38 H -1.25588 3.12021 -1.67343 0
M  V30 39 H -1.94016 5.05377 -0.632686 0
M  V30 40 H -3.39661 4.62261 -1.69382 0
M  V30 41 H -3.75469 5.06336 0.953181 0
M  V30 42 H -4.44625 3.55741 0.191537 0
M  V30 43 H -1.8583 4.0279 1.75554 0
M  V30 44 H -4.01811 0.644798 1.93616 0
M  V30 45 H -1.16423 0.825711 -2.16636 0
M  V30 46 H 0.236722 -0.224457 -2.17678 0
M  V30 47 H -1.82074 -1.4893 -2.23548 0
M  V30 48 H -0.727685 -1.9514 -0.932549 0
M  V30 49 H -2.21347 -0.727808 0.666371 0
M  V30 50 H -3.28458 -0.236042 -0.731475 0
M  V30 51 H -3.25527 -2.73684 0.76615 0
M  V30 52 H -4.21402 -4.63713 -2.28728 0
M  V30 53 H -6.06703 -2.51696 -1.63649 0
M  V30 54 H -4.87136 -1.44968 -2.49651 0
M  V30 55 H 2.20701 -1.39625 2.48388 0
M  V30 56 H 2.01021 -2.29695 1.06875 0
M  V30 57 H 5.79917 -2.39451 -1.56742 0
M  V30 58 H 6.75189 -3.4459 -0.451258 0
M  V30 59 H 7.11791 -1.64997 -0.637441 0
M  V30 END ATOM
M  V30 BEGIN BOND
M  V30 1 1 1 2
M  V30 2 1 2 3
M  V30 3 1 3 4
M  V30 4 1 4 5
M  V30 5 2 5 6
M  V30 6 1 5 7
M  V30 7 1 7 8
M  V30 8 1 8 9
M  V30 9 2 9 10
M  V30 10 1 9 11
M  V30 11 1 11 12
M  V30 12 1 12 13
M  V30 13 1 13 14
M  V30 14 1 14 15
M  V30 15 1 15 16
M  V30 16 2 16 17
M  V30 17 1 16 18
M  V30 18 1 8 19
M  V30 19 1 19 20
M  V30 20 1 20 21
M  V30 21 1 21 22
M  V30 22 1 22 23
M  V30 23 2 23 24 CFG=2
M  V30 24 1 23 25
M  V30 25 1 4 26
M  V30 26 1 2 27
M  V30 27 1 15 11
M  V30 28 1 1 28
M  V30 29 1 1 29
M  V30 30 1 1 30
M  V30 31 1 2 31
M  V30 32 1 3 32
M  V30 33 1 3 33
M  V30 34 1 4 34
M  V30 35 1 7 35
M  V30 36 1 8 36
M  V30 37 1 12 37
M  V30 38 1 12 38
M  V30 39 1 13 39
M  V30 40 1 13 40
M  V30 41 1 14 41
M  V30 42 1 14 42
M  V30 43 1 15 43
M  V30 44 1 18 44
M  V30 45 1 19 45
M  V30 46 1 19 46
M  V30 47 1 20 47
M  V30 48 1 20 48
M  V30 49 1 21 49
M  V30 50 1 21 50
M  V30 51 1 22 51
M  V30 52 1 24 52
M  V30 53 1 25 53
M  V30 54 1 25 54
M  V30 55 1 26 55
M  V30 56 1 26 56
M  V30 57 1 27 57
M  V30 58 1 27 58
M  V30 59 1 27 59
M  V30 END BOND
M  V30 END CTAB
M  END
