
     RDKit          3D

  0  0  0  0  0  0  0  0  0  0999 V3000
M  V30 BEGIN CTAB
M  V30 COUNTS 106 109 0 0 0
M  V30 BEGIN ATOM
M  V30 1 C -11.2618 -0.160693 2.70406 0
M  V30 2 C -10.1772 -0.66783 1.74721 0
M  V30 3 C -10.9267 -1.15967 0.512215 0
M  V30 4 C -9.32295 0.51202 1.41289 0
M  V30 5 C -8.1899 0.209096 0.474764 0
M  V30 6 C -7.24095 -0.829514 1.03865 0
M  V30 7 C -6.09044 -1.12856 0.103712 0 CFG=1
M  V30 8 C -6.74142 -1.65136 -1.13936 0
M  V30 9 C -5.18832 -0.00374732 0.0277367 0 CFG=1
M  V30 10 C -4.64354 0.228841 1.40982 0
M  V30 11 C -3.37344 -0.587052 1.41862 0
M  V30 12 C -3.09361 -1.01482 0.00268976 0
M  V30 13 C -1.64169 -1.17325 -0.334464 0
M  V30 14 C -0.835281 -1.66962 0.831576 0
M  V30 15 C 0.611926 -1.68287 0.574995 0
M  V30 16 C 1.15133 -0.886815 -0.282124 0
M  V30 17 C 2.62208 -0.937516 -0.501517 0
M  V30 18 C 3.17691 0.464501 -0.68986 0
M  V30 19 C 2.25167 1.39486 0.0543701 0
M  V30 20 C 0.958329 1.47872 -0.771032 0
M  V30 21 C 0.405198 0.0946568 -1.07137 0 CFG=1
M  V30 22 C 0.848864 -0.168936 -2.53247 0
M  V30 23 C -1.0668 0.0223029 -1.02539 0
M  V30 24 C -1.78056 1.29474 -0.619391 0
M  V30 25 C -3.266 1.25718 -0.810647 0
M  V30 26 C -3.91586 -0.0964134 -0.784706 0 CFG=2
M  V30 27 C -4.18946 -0.469529 -2.21317 0
M  V30 28 O 4.50121 0.540913 -0.213802 0
M  V30 29 C 5.60069 0.936757 -0.941393 0
M  V30 30 O 5.38976 1.25483 -2.14133 0
M  V30 31 N 6.85145 0.961509 -0.321121 0
M  V30 32 C 7.02451 0.593384 1.03873 0
M  V30 33 C 7.30971 -0.88489 1.20911 0
M  V30 34 C 7.48324 -1.23241 2.68347 0
M  V30 35 C 7.76541 -2.72644 2.78947 0
M  V30 36 N 7.94228 -3.14615 4.14525 0
M  V30 37 C 8.02098 1.3866 -1.10752 0
M  V30 38 C 8.21289 2.8632 -0.997345 0
M  V30 39 C 9.3045 3.48847 -1.76436 0
M  V30 40 C 10.6584 3.01341 -1.4283 0
M  V30 41 N 10.9544 1.62976 -1.67426 0
M  V30 42 H -11.7666 -0.993962 3.19688 0
M  V30 43 H -11.9362 0.556924 2.20317 0
M  V30 44 H -10.7359 0.43723 3.49894 0
M  V30 45 H -9.66875 -1.48227 2.26099 0
M  V30 46 H -11.8727 -1.58854 0.850726 0
M  V30 47 H -10.2532 -1.86219 0.00252391 0
M  V30 48 H -11.1255 -0.242151 -0.0925918 0
M  V30 49 H -9.96687 1.26664 0.914782 0
M  V30 50 H -8.9867 0.962339 2.36765 0
M  V30 51 H -8.65682 -0.127229 -0.473121 0
M  V30 52 H -7.67128 1.1631 0.257791 0
M  V30 53 H -7.02854 -0.72311 2.0829 0
M  V30 54 H -7.86644 -1.79543 0.987466 0
M  V30 55 H -5.59166 -2.03651 0.567101 0
M  V30 56 H -7.5634 -2.34234 -0.772751 0
M  V30 57 H -6.11052 -2.33362 -1.74254 0
M  V30 58 H -7.28351 -0.893231 -1.73742 0
M  V30 59 H -5.66001 0.954473 -0.296371 0
M  V30 60 H -5.25184 -0.17782 2.23949 0
M  V30 61 H -4.49415 1.28633 1.67733 0
M  V30 62 H -2.63719 0.0397585 1.90261 0
M  V30 63 H -3.47618 -1.49238 2.08961 0
M  V30 64 H -3.59491 -2.032 -0.0898845 0
M  V30 65 H -1.58066 -2.02195 -1.08303 0
M  V30 66 H -1.12251 -2.72811 1.04606 0
M  V30 67 H -0.966866 -1.03206 1.7406 0
M  V30 68 H 1.238 -2.41818 1.15937 0
M  V30 69 H 2.96033 -1.60738 -1.28069 0
M  V30 70 H 3.09316 -1.29445 0.462376 0
M  V30 71 H 3.2004 0.784435 -1.74646 0
M  V30 72 H 2.63176 2.41385 0.15291 0
M  V30 73 H 1.93375 0.973549 1.03799 0
M  V30 74 H 1.22721 2.04018 -1.6881 0
M  V30 75 H 0.306546 2.11771 -0.18407 0
M  V30 76 H 1.66908 -0.867497 -2.6129 0
M  V30 77 H -0.00425145 -0.612402 -3.09808 0
M  V30 78 H 1.09316 0.770642 -3.0484 0
M  V30 79 H -1.38252 -0.109447 -2.11503 0
M  V30 80 H -1.49466 1.49383 0.433457 0
M  V30 81 H -1.40995 2.174 -1.19659 0
M  V30 82 H -3.65224 1.93534 0.016102 0
M  V30 83 H -3.53429 1.75184 -1.79265 0
M  V30 84 H -3.99679 -1.52651 -2.4665 0
M  V30 85 H -3.53904 0.106471 -2.94683 0
M  V30 86 H -5.19722 -0.100763 -2.56022 0
M  V30 87 H 7.924 1.12504 1.42892 0
M  V30 88 H 6.16809 0.906957 1.68523 0
M  V30 89 H 6.50505 -1.52428 0.818068 0
M  V30 90 H 8.2508 -1.15868 0.717662 0
M  V30 91 H 6.52033 -1.0205 3.19554 0
M  V30 92 H 8.33648 -0.672294 3.11279 0
M  V30 93 H 6.9313 -3.31015 2.35915 0
M  V30 94 H 8.6699 -3.00184 2.22012 0
M  V30 95 H 7.43849 -4.01588 4.3839 0
M  V30 96 H 8.93971 -3.17204 4.45351 0
M  V30 97 H 8.92289 0.882101 -0.679547 0
M  V30 98 H 7.92107 1.01399 -2.14673 0
M  V30 99 H 7.20755 3.32313 -1.23674 0
M  V30 100 H 8.35704 3.07318 0.0981399 0
M  V30 101 H 9.12708 3.20235 -2.8597 0
M  V30 102 H 9.23215 4.61304 -1.73446 0
M  V30 103 H 10.9385 3.30695 -0.371139 0
M  V30 104 H 11.3848 3.62416 -2.0564 0
M  V30 105 H 11.2398 1.41806 -2.6351 0
M  V30 106 H 11.6115 1.25196 -0.955118 0
M  V30 END ATOM
M  V30 BEGIN BOND
M  V30 1 1 1 2
M  V30 2 1 2 3
M  V30 3 1 2 4
M  V30 4 1 4 5
M  V30 5 1 5 6
M  V30 6 1 6 7
M  V30 7 1 7 8
M  V30 8 1 7 9
M  V30 9 1 9 10
M  V30 10 1 10 11
M  V30 11 1 11 12
M  V30 12 1 12 13
M  V30 13 1 13 14
M  V30 14 1 14 15
M  V30 15 2 15 16
M  V30 16 1 16 17
M  V30 17 1 17 18
M  V30 18 1 18 19
M  V30 19 1 19 20
M  V30 20 1 20 21
M  V30 21 1 21 22 CFG=3
M  V30 22 1 21 23
M  V30 23 1 23 24
M  V30 24 1 24 25
M  V30 25 1 25 26
M  V30 26 1 26 27 CFG=3
M  V30 27 1 18 28
M  V30 28 1 28 29
M  V30 29 2 29 30
M  V30 30 1 29 31
M  V30 31 1 31 32
M  V30 32 1 32 33
M  V30 33 1 33 34
M  V30 34 1 34 35
M  V30 35 1 35 36
M  V30 36 1 31 37
M  V30 37 1 37 38
M  V30 38 1 38 39
M  V30 39 1 39 40
M  V30 40 1 40 41
M  V30 41 1 26 9
M  V30 42 1 26 12
M  V30 43 1 23 13
M  V30 44 1 21 16
M  V30 45 1 1 42
M  V30 46 1 1 43
M  V30 47 1 1 44
M  V30 48 1 2 45
M  V30 49 1 3 46
M  V30 50 1 3 47
M  V30 51 1 3 48
M  V30 52 1 4 49
M  V30 53 1 4 50
M  V30 54 1 5 51
M  V30 55 1 5 52
M  V30 56 1 6 53
M  V30 57 1 6 54
M  V30 58 1 7 55 CFG=1
M  V30 59 1 8 56
M  V30 60 1 8 57
M  V30 61 1 8 58
M  V30 62 1 9 59 CFG=3
M  V30 63 1 10 60
M  V30 64 1 10 61
M  V30 65 1 11 62
M  V30 66 1 11 63
M  V30 67 1 12 64
M  V30 68 1 13 65
M  V30 69 1 14 66
M  V30 70 1 14 67
M  V30 71 1 15 68
M  V30 72 1 17 69
M  V30 73 1 17 70
M  V30 74 1 18 71
M  V30 75 1 19 72
M  V30 76 1 19 73
M  V30 77 1 20 74
M  V30 78 1 20 75
M  V30 79 1 22 76
M  V30 80 1 22 77
M  V30 81 1 22 78
M  V30 82 1 23 79
M  V30 83 1 24 80
M  V30 84 1 24 81
M  V30 85 1 25 82
M  V30 86 1 25 83
M  V30 87 1 27 84
M  V30 88 1 27 85
M  V30 89 1 27 86
M  V30 90 1 32 87
M  V30 91 1 32 88
M  V30 92 1 33 89
M  V30 93 1 33 90
M  V30 94 1 34 91
M  V30 95 1 34 92
M  V30 96 1 35 93
M  V30 97 1 35 94
M  V30 98 1 36 95
M  V30 99 1 36 96
M  V30 100 1 37 97
M  V30 101 1 37 98
M  V30 102 1 38 99
M  V30 103 1 38 100
M  V30 104 1 39 101
M  V30 105 1 39 102
M  V30 106 1 40 103
M  V30 107 1 40 104
M  V30 108 1 41 105
M  V30 109 1 41 106
M  V30 END BOND
M  V30 END CTAB
M  END
