
     RDKit          3D

  0  0  0  0  0  0  0  0  0  0999 V3000
M  V30 BEGIN CTAB
M  V30 COUNTS 36 37 0 0 0
M  V30 BEGIN ATOM
M  V30 1 N 5.65363 0.344127 0.52621 0
M  V30 2 C 4.27893 0.127319 0.259866 0
M  V30 3 C 3.94119 -0.214399 -1.03898 0
M  V30 4 C 2.60873 -0.431068 -1.32522 0
M  V30 5 C 1.65068 -0.307481 -0.336478 0
M  V30 6 C 2.04116 0.0403026 0.962966 0
M  V30 7 N 3.33804 0.245832 1.21866 0
M  V30 8 C 0.212274 -0.540634 -0.642919 0 CFG=1
M  V30 9 C -0.260511 -1.73568 0.0813999 0
M  V30 10 C -1.28897 -1.47746 1.14829 0
M  V30 11 C -2.69536 -1.46179 0.591713 0
M  V30 12 C -2.7057 -0.490541 -0.588335 0
M  V30 13 N -1.94198 0.606073 -0.215013 0
M  V30 14 C -0.593907 0.704079 -0.499375 0
M  V30 15 S -2.6928 1.86707 0.606245 0
M  V30 16 O -3.27476 1.40773 1.89084 0
M  V30 17 O -1.65884 2.95904 0.844202 0
M  V30 18 N -3.93341 2.55146 -0.405719 0
M  V30 19 H 6.08931 1.21892 0.203618 0
M  V30 20 H 6.20557 -0.366026 1.03567 0
M  V30 21 H 4.67852 -0.313807 -1.81828 0
M  V30 22 H 2.31797 -0.70405 -2.3527 0
M  V30 23 H 1.24595 0.121056 1.69025 0
M  V30 24 H 0.180467 -0.799261 -1.7408 0
M  V30 25 H -0.671496 -2.53936 -0.600425 0
M  V30 26 H 0.602995 -2.22554 0.578638 0
M  V30 27 H -1.24509 -2.32647 1.86493 0
M  V30 28 H -1.05088 -0.571252 1.71862 0
M  V30 29 H -3.08213 -2.44228 0.347045 0
M  V30 30 H -3.33855 -0.999387 1.36906 0
M  V30 31 H -3.78334 -0.216703 -0.732215 0
M  V30 32 H -2.39249 -0.977731 -1.5274 0
M  V30 33 H -0.101227 1.31756 0.303363 0
M  V30 34 H -0.467116 1.34249 -1.42317 0
M  V30 35 H -4.4129 3.34807 0.0842076 0
M  V30 36 H -3.45395 2.93981 -1.23896 0
M  V30 END ATOM
M  V30 BEGIN BOND
M  V30 1 1 1 2
M  V30 2 2 2 3
M  V30 3 1 3 4
M  V30 4 2 4 5
M  V30 5 1 5 6
M  V30 6 2 6 7
M  V30 7 1 5 8
M  V30 8 1 8 9
M  V30 9 1 9 10
M  V30 10 1 10 11
M  V30 11 1 11 12
M  V30 12 1 12 13
M  V30 13 1 13 14
M  V30 14 1 13 15
M  V30 15 2 15 16
M  V30 16 2 15 17
M  V30 17 1 15 18
M  V30 18 1 7 2
M  V30 19 1 14 8
M  V30 20 1 1 19
M  V30 21 1 1 20
M  V30 22 1 3 21
M  V30 23 1 4 22
M  V30 24 1 6 23
M  V30 25 1 8 24 CFG=3
M  V30 26 1 9 25
M  V30 27 1 9 26
M  V30 28 1 10 27
M  V30 29 1 10 28
M  V30 30 1 11 29
M  V30 31 1 11 30
M  V30 32 1 12 31
M  V30 33 1 12 32
M  V30 34 1 14 33
M  V30 35 1 14 34
M  V30 36 1 18 35
M  V30 37 1 18 36
M  V30 END BOND
M  V30 END CTAB
M  END
