
     RDKit          3D

  0  0  0  0  0  0  0  0  0  0999 V3000
M  V30 BEGIN CTAB
M  V30 COUNTS 61 66 0 0 0
M  V30 BEGIN ATOM
M  V30 1 N -10.8806 0.346116 1.40482 0
M  V30 2 C -9.7325 0.031853 0.606205 0
M  V30 3 C -9.03854 -1.14401 0.799284 0
M  V30 4 C -7.91731 -1.45589 0.0227522 0
M  V30 5 C -7.47414 -0.598729 -0.956297 0
M  V30 6 C -8.16419 0.573256 -1.15019 0
M  V30 7 C -9.2807 0.8851 -0.377765 0
M  V30 8 C -6.29484 -0.89779 -1.7936 0
M  V30 9 C -5.03522 -0.375378 -1.16928 0
M  V30 10 N -4.52168 0.852765 -1.36635 0
M  V30 11 C -3.38032 0.992568 -0.653363 0
M  V30 12 C -3.17951 -0.198893 0.0124731 0
M  V30 13 N -4.20011 -1.00277 -0.323277 0
M  V30 14 C -2.06459 -0.357676 0.839977 0
M  V30 15 C -1.14005 0.649326 1.02016 0
M  V30 16 C -1.35973 1.83359 0.344747 0
M  V30 17 C -2.47038 1.99905 -0.482843 0
M  V30 18 C 0.0391211 0.483781 1.89301 0
M  V30 19 C 1.21404 -0.0447556 1.16568 0
M  V30 20 C 1.41867 -1.4022 1.0677 0
M  V30 21 C 2.49786 -1.94845 0.400854 0
M  V30 22 C 3.40885 -1.09296 -0.191945 0
M  V30 23 C 3.23741 0.263907 -0.114838 0
M  V30 24 C 2.13318 0.788127 0.568262 0
M  V30 25 N 4.26527 0.818671 -0.774257 0
M  V30 26 C 5.04996 -0.174772 -1.24559 0
M  V30 27 N 4.52703 -1.35895 -0.889682 0
M  V30 28 C 6.31338 0.00474727 -2.04373 0
M  V30 29 C 7.45462 0.0778029 -1.12801 0
M  V30 30 C 8.15277 -1.04279 -0.733918 0
M  V30 31 C 9.2295 -1.00618 0.125787 0
M  V30 32 C 9.62464 0.217059 0.613964 0
M  V30 33 C 8.95744 1.3682 0.248755 0
M  V30 34 C 7.88074 1.28263 -0.617883 0
M  V30 35 N 10.737 0.311736 1.5104 0
M  V30 36 H -10.845 1.06088 2.15952 0
M  V30 37 H -11.7766 -0.144142 1.23655 0
M  V30 38 H -9.39561 -1.8174 1.5762 0
M  V30 39 H -7.37905 -2.38164 0.181958 0
M  V30 40 H -7.80637 1.24536 -1.92705 0
M  V30 41 H -9.82053 1.8099 -0.534782 0
M  V30 42 H -6.3967 -0.475151 -2.82462 0
M  V30 43 H -6.13276 -1.98244 -1.9319 0
M  V30 44 H -4.95392 1.58918 -1.98722 0
M  V30 45 H -1.92014 -1.29042 1.35252 0
M  V30 46 H -0.652886 2.64369 0.46472 0
M  V30 47 H -2.6456 2.92874 -1.01464 0
M  V30 48 H -0.17757 -0.175919 2.78014 0
M  V30 49 H 0.310621 1.47616 2.32616 0
M  V30 50 H 0.715454 -2.05872 1.52531 0
M  V30 51 H 2.6771 -3.01063 0.31213 0
M  V30 52 H 2.03876 1.85679 0.603597 0
M  V30 53 H 4.93164 -2.31005 -1.12288 0
M  V30 54 H 6.21276 0.905484 -2.69872 0
M  V30 55 H 6.43194 -0.874987 -2.70872 0
M  V30 56 H 7.83848 -2.00304 -1.12051 0
M  V30 57 H 9.76966 -1.89499 0.427518 0
M  V30 58 H 9.26563 2.34421 0.632693 0
M  V30 59 H 7.38657 2.20362 -0.878761 0
M  V30 60 H 10.6572 0.68256 2.47498 0
M  V30 61 H 11.66 -0.00515197 1.17656 0
M  V30 END ATOM
M  V30 BEGIN BOND
M  V30 1 1 1 2
M  V30 2 2 2 3
M  V30 3 1 3 4
M  V30 4 2 4 5
M  V30 5 1 5 6
M  V30 6 2 6 7
M  V30 7 1 5 8
M  V30 8 1 8 9
M  V30 9 1 9 10
M  V30 10 1 10 11
M  V30 11 2 11 12
M  V30 12 1 12 13
M  V30 13 1 12 14
M  V30 14 2 14 15
M  V30 15 1 15 16
M  V30 16 2 16 17
M  V30 17 1 15 18
M  V30 18 1 18 19
M  V30 19 2 19 20
M  V30 20 1 20 21
M  V30 21 2 21 22
M  V30 22 1 22 23
M  V30 23 2 23 24
M  V30 24 1 23 25
M  V30 25 2 25 26
M  V30 26 1 26 27
M  V30 27 1 26 28
M  V30 28 1 28 29
M  V30 29 2 29 30
M  V30 30 1 30 31
M  V30 31 2 31 32
M  V30 32 1 32 33
M  V30 33 2 33 34
M  V30 34 1 32 35
M  V30 35 1 7 2
M  V30 36 2 13 9
M  V30 37 1 24 19
M  V30 38 1 34 29
M  V30 39 1 17 11
M  V30 40 1 27 22
M  V30 41 1 1 36
M  V30 42 1 1 37
M  V30 43 1 3 38
M  V30 44 1 4 39
M  V30 45 1 6 40
M  V30 46 1 7 41
M  V30 47 1 8 42
M  V30 48 1 8 43
M  V30 49 1 10 44
M  V30 50 1 14 45
M  V30 51 1 16 46
M  V30 52 1 17 47
M  V30 53 1 18 48
M  V30 54 1 18 49
M  V30 55 1 20 50
M  V30 56 1 21 51
M  V30 57 1 24 52
M  V30 58 1 27 53
M  V30 59 1 28 54
M  V30 60 1 28 55
M  V30 61 1 30 56
M  V30 62 1 31 57
M  V30 63 1 33 58
M  V30 64 1 34 59
M  V30 65 1 35 60
M  V30 66 1 35 61
M  V30 END BOND
M  V30 END CTAB
M  END
