
     RDKit          3D

  0  0  0  0  0  0  0  0  0  0999 V3000
M  V30 BEGIN CTAB
M  V30 COUNTS 36 37 0 0 0
M  V30 BEGIN ATOM
M  V30 1 C 4.54593 0.906048 -2.2481 0
M  V30 2 O 4.07395 0.759061 -0.94064 0
M  V30 3 C 2.85473 0.206184 -0.646671 0
M  V30 4 C 1.98819 -0.252215 -1.61368 0
M  V30 5 C 0.761883 -0.80517 -1.25327 0
M  V30 6 C 0.364165 -0.917346 0.0731963 0
M  V30 7 C -0.934749 -1.5186 0.469097 0
M  V30 8 C -2.09122 -0.641749 0.349673 0
M  V30 9 C -2.3832 0.369958 1.22529 0
M  V30 10 O -1.55792 0.620405 2.31085 0
M  V30 11 N -3.48265 1.15832 1.06497 0
M  V30 12 C -4.33303 0.979773 0.0391375 0
M  V30 13 N -5.48213 1.79041 -0.143379 0
M  V30 14 N -4.05607 -0.014772 -0.831326 0
M  V30 15 C -2.9828 -0.816326 -0.711228 0
M  V30 16 N -2.80765 -1.83256 -1.69139 0
M  V30 17 C 1.27552 -0.440827 0.995688 0
M  V30 18 C 2.49192 0.110902 0.693078 0
M  V30 19 O 3.37663 0.578193 1.66056 0
M  V30 20 C 2.95714 0.457722 3.01433 0
M  V30 21 H 5.65953 1.08997 -2.27453 0
M  V30 22 H 4.2865 0.00465412 -2.84443 0
M  V30 23 H 4.10237 1.80027 -2.77335 0
M  V30 24 H 2.27412 -0.174529 -2.65095 0
M  V30 25 H 0.11218 -1.15452 -2.04081 0
M  V30 26 H -1.04689 -2.48345 -0.074033 0
M  V30 27 H -0.776302 -1.84577 1.54332 0
M  V30 28 H -1.34017 1.52543 2.67801 0
M  V30 29 H -5.47281 2.60789 -0.772913 0
M  V30 30 H -6.34461 1.54795 0.371049 0
M  V30 31 H -3.22713 -2.77572 -1.54699 0
M  V30 32 H -2.26862 -1.68501 -2.56932 0
M  V30 33 H 1.03849 -0.504376 2.05275 0
M  V30 34 H 3.71161 0.881262 3.71516 0
M  V30 35 H 2.02767 1.05582 3.20792 0
M  V30 36 H 2.68542 -0.587278 3.26897 0
M  V30 END ATOM
M  V30 BEGIN BOND
M  V30 1 1 1 2
M  V30 2 1 2 3
M  V30 3 2 3 4
M  V30 4 1 4 5
M  V30 5 2 5 6
M  V30 6 1 6 7
M  V30 7 1 7 8
M  V30 8 2 8 9
M  V30 9 1 9 10
M  V30 10 1 9 11
M  V30 11 2 11 12
M  V30 12 1 12 13
M  V30 13 1 12 14
M  V30 14 2 14 15
M  V30 15 1 15 16
M  V30 16 1 6 17
M  V30 17 2 17 18
M  V30 18 1 18 19
M  V30 19 1 19 20
M  V30 20 1 18 3
M  V30 21 1 15 8
M  V30 22 1 1 21
M  V30 23 1 1 22
M  V30 24 1 1 23
M  V30 25 1 4 24
M  V30 26 1 5 25
M  V30 27 1 7 26
M  V30 28 1 7 27
M  V30 29 1 10 28
M  V30 30 1 13 29
M  V30 31 1 13 30
M  V30 32 1 16 31
M  V30 33 1 16 32
M  V30 34 1 17 33
M  V30 35 1 20 34
M  V30 36 1 20 35
M  V30 37 1 20 36
M  V30 END BOND
M  V30 END CTAB
M  END
