
     RDKit          3D

  0  0  0  0  0  0  0  0  0  0999 V3000
M  V30 BEGIN CTAB
M  V30 COUNTS 18 18 0 0 0
M  V30 BEGIN ATOM
M  V30 1 N 3.1044 -0.131054 0.460098 0
M  V30 2 C 1.7304 -0.405655 0.212152 0
M  V30 3 N 1.24776 -1.65092 0.0518872 0
M  V30 4 C -0.0449658 -1.92089 -0.182137 0
M  V30 5 C -0.927612 -0.866239 -0.263012 0
M  V30 6 C -0.472565 0.443785 -0.103249 0
M  V30 7 C 0.865088 0.667112 0.135341 0
M  V30 8 C -1.39444 1.54917 -0.187457 0
M  V30 9 O -2.6026 1.33845 -0.403498 0
M  V30 10 O -0.950837 2.8436 -0.0306212 0
M  V30 11 N -2.29316 -1.14684 -0.509946 0
M  V30 12 H 3.65927 0.45284 -0.177612 0
M  V30 13 H 3.58711 -0.519555 1.30373 0
M  V30 14 H -0.407226 -2.95398 -0.308692 0
M  V30 15 H 1.23785 1.66782 0.261605 0
M  V30 16 H -0.714486 3.13707 0.911038 0
M  V30 17 H -2.94315 -1.22699 0.293023 0
M  V30 18 H -2.68082 -1.27771 -1.46265 0
M  V30 END ATOM
M  V30 BEGIN BOND
M  V30 1 1 1 2
M  V30 2 2 2 3
M  V30 3 1 3 4
M  V30 4 2 4 5
M  V30 5 1 5 6
M  V30 6 2 6 7
M  V30 7 1 6 8
M  V30 8 2 8 9
M  V30 9 1 8 10
M  V30 10 1 5 11
M  V30 11 1 7 2
M  V30 12 1 1 12
M  V30 13 1 1 13
M  V30 14 1 4 14
M  V30 15 1 7 15
M  V30 16 1 10 16
M  V30 17 1 11 17
M  V30 18 1 11 18
M  V30 END BOND
M  V30 END CTAB
M  END
