
     RDKit          3D

  0  0  0  0  0  0  0  0  0  0999 V3000
M  V30 BEGIN CTAB
M  V30 COUNTS 26 28 0 0 0
M  V30 BEGIN ATOM
M  V30 1 N 4.57934 -2.38962 0.225602 0
M  V30 2 C 3.40732 -1.58409 0.168585 0
M  V30 3 N 2.21453 -1.99365 -0.242623 0
M  V30 4 N 1.24936 -1.18705 -0.24836 0
M  V30 5 C 1.34941 0.053327 0.132429 0
M  V30 6 S 3.05377 0.0339418 0.54644 0
M  V30 7 C 0.482203 1.23326 0.200143 0
M  V30 8 C 1.14207 2.4802 0.458469 0
M  V30 9 C 0.456212 3.64252 0.496956 0
M  V30 10 C -0.900333 3.61367 0.282264 0
M  V30 11 C -1.53547 2.42162 0.0364743 0
M  V30 12 C -0.824578 1.1933 -0.00427606 0
M  V30 13 C -1.64329 0.00649894 -0.152291 0
M  V30 14 N -2.91561 0.0376168 -0.672284 0
M  V30 15 N -3.55879 -1.01376 -0.800391 0
M  V30 16 C -3.04234 -2.18377 -0.442949 0
M  V30 17 S -1.52147 -1.66232 0.108237 0
M  V30 18 N -3.62845 -3.48985 -0.515673 0
M  V30 19 H 4.59031 -3.35714 0.596395 0
M  V30 20 H 5.50139 -1.9934 -0.126775 0
M  V30 21 H 2.20781 2.46329 0.621573 0
M  V30 22 H 1.01109 4.56214 0.698181 0
M  V30 23 H -1.4216 4.56365 0.318234 0
M  V30 24 H -2.59682 2.43316 -0.126401 0
M  V30 25 H -3.60367 -4.07921 0.328638 0
M  V30 26 H -4.05239 -3.80435 -1.39072 0
M  V30 END ATOM
M  V30 BEGIN BOND
M  V30 1 1 1 2
M  V30 2 2 2 3
M  V30 3 1 3 4
M  V30 4 2 4 5
M  V30 5 1 5 6
M  V30 6 1 5 7
M  V30 7 2 7 8
M  V30 8 1 8 9
M  V30 9 2 9 10
M  V30 10 1 10 11
M  V30 11 2 11 12
M  V30 12 1 12 13
M  V30 13 2 13 14
M  V30 14 1 14 15
M  V30 15 2 15 16
M  V30 16 1 16 17
M  V30 17 1 16 18
M  V30 18 1 6 2
M  V30 19 1 12 7
M  V30 20 1 17 13
M  V30 21 1 1 19
M  V30 22 1 1 20
M  V30 23 1 8 21
M  V30 24 1 9 22
M  V30 25 1 10 23
M  V30 26 1 11 24
M  V30 27 1 18 25
M  V30 28 1 18 26
M  V30 END BOND
M  V30 END CTAB
M  END
