
     RDKit          3D

  0  0  0  0  0  0  0  0  0  0999 V3000
M  V30 BEGIN CTAB
M  V30 COUNTS 58 59 0 0 0
M  V30 BEGIN ATOM
M  V30 1 N -9.90653 -1.00464 0.132028 0
M  V30 2 C -8.62505 -0.610472 -0.322231 0
M  V30 3 C -7.75164 0.0701788 0.492084 0
M  V30 4 C -6.48106 0.463905 0.0497987 0
M  V30 5 C -6.03088 0.194833 -1.21774 0
M  V30 6 O -4.80409 0.538456 -1.72763 0
M  V30 7 C -3.75645 1.18045 -1.09871 0
M  V30 8 C -3.10598 0.432785 0.041318 0
M  V30 9 C -2.01904 1.30766 0.591459 0
M  V30 10 C -1.26314 0.730819 1.73014 0
M  V30 11 C -0.550737 -0.540136 1.47514 0
M  V30 12 C 0.490893 -0.47837 0.38142 0
M  V30 13 C 1.56675 0.562397 0.75608 0
M  V30 14 C 2.60386 0.627775 -0.313585 0
M  V30 15 C 3.64487 1.6638 0.0340156 0
M  V30 16 C 4.30309 1.27714 1.32988 0
M  V30 17 O 4.89133 0.0377739 1.24485 0
M  V30 18 C 5.92891 -0.393623 0.482302 0
M  V30 19 C 6.26693 -1.75254 0.60935 0
M  V30 20 C 7.29341 -2.3178 -0.0986247 0
M  V30 21 C 8.03116 -1.54311 -0.970159 0
M  V30 22 N 9.10334 -2.08392 -1.72558 0
M  V30 23 C 7.7208 -0.209783 -1.11243 0
M  V30 24 C 6.67226 0.367745 -0.388616 0
M  V30 25 C -6.93644 -0.504342 -2.04629 0
M  V30 26 C -8.17302 -0.879329 -1.59514 0
M  V30 27 H -10.6143 -0.275377 0.341908 0
M  V30 28 H -10.1767 -1.99709 0.267186 0
M  V30 29 H -8.06404 0.303834 1.50222 0
M  V30 30 H -5.83853 1.02426 0.728229 0
M  V30 31 H -4.08575 2.21291 -0.740115 0
M  V30 32 H -3.01131 1.43892 -1.89291 0
M  V30 33 H -2.65266 -0.490671 -0.459037 0
M  V30 34 H -3.83225 0.0517492 0.722743 0
M  V30 35 H -1.34365 1.574 -0.246464 0
M  V30 36 H -2.49291 2.25191 0.929726 0
M  V30 37 H -1.95331 0.539182 2.60555 0
M  V30 38 H -0.548169 1.48035 2.11771 0
M  V30 39 H 0.0374824 -0.768532 2.4173 0
M  V30 40 H -1.21342 -1.42325 1.36301 0
M  V30 41 H 0.0841392 -0.128715 -0.585293 0
M  V30 42 H 0.945373 -1.47539 0.223453 0
M  V30 43 H 1.94276 0.22223 1.74341 0
M  V30 44 H 1.03552 1.51704 0.865476 0
M  V30 45 H 2.16467 0.799852 -1.31439 0
M  V30 46 H 3.11339 -0.382281 -0.320297 0
M  V30 47 H 3.08283 2.63242 0.25992 0
M  V30 48 H 4.29861 1.80058 -0.821055 0
M  V30 49 H 3.52123 1.29537 2.13858 0
M  V30 50 H 5.05557 2.07713 1.63246 0
M  V30 51 H 5.6865 -2.35725 1.29356 0
M  V30 52 H 7.51382 -3.38659 0.0403213 0
M  V30 53 H 8.97555 -2.20552 -2.74857 0
M  V30 54 H 9.97669 -2.33447 -1.20457 0
M  V30 55 H 8.27857 0.4359 -1.78974 0
M  V30 56 H 6.48874 1.41453 -0.523154 0
M  V30 57 H -6.61027 -0.727603 -3.0447 0
M  V30 58 H -8.8777 -1.42184 -2.2356 0
M  V30 END ATOM
M  V30 BEGIN BOND
M  V30 1 1 1 2
M  V30 2 2 2 3
M  V30 3 1 3 4
M  V30 4 2 4 5
M  V30 5 1 5 6
M  V30 6 1 6 7
M  V30 7 1 7 8
M  V30 8 1 8 9
M  V30 9 1 9 10
M  V30 10 1 10 11
M  V30 11 1 11 12
M  V30 12 1 12 13
M  V30 13 1 13 14
M  V30 14 1 14 15
M  V30 15 1 15 16
M  V30 16 1 16 17
M  V30 17 1 17 18
M  V30 18 2 18 19
M  V30 19 1 19 20
M  V30 20 2 20 21
M  V30 21 1 21 22
M  V30 22 1 21 23
M  V30 23 2 23 24
M  V30 24 1 5 25
M  V30 25 2 25 26
M  V30 26 1 26 2
M  V30 27 1 24 18
M  V30 28 1 1 27
M  V30 29 1 1 28
M  V30 30 1 3 29
M  V30 31 1 4 30
M  V30 32 1 7 31
M  V30 33 1 7 32
M  V30 34 1 8 33
M  V30 35 1 8 34
M  V30 36 1 9 35
M  V30 37 1 9 36
M  V30 38 1 10 37
M  V30 39 1 10 38
M  V30 40 1 11 39
M  V30 41 1 11 40
M  V30 42 1 12 41
M  V30 43 1 12 42
M  V30 44 1 13 43
M  V30 45 1 13 44
M  V30 46 1 14 45
M  V30 47 1 14 46
M  V30 48 1 15 47
M  V30 49 1 15 48
M  V30 50 1 16 49
M  V30 51 1 16 50
M  V30 52 1 19 51
M  V30 53 1 20 52
M  V30 54 1 22 53
M  V30 55 1 22 54
M  V30 56 1 23 55
M  V30 57 1 24 56
M  V30 58 1 25 57
M  V30 59 1 26 58
M  V30 END BOND
M  V30 END CTAB
M  END
