
     RDKit          3D

  0  0  0  0  0  0  0  0  0  0999 V3000
M  V30 BEGIN CTAB
M  V30 COUNTS 24 23 0 0 0
M  V30 BEGIN ATOM
M  V30 1 N -0.785091 1.5851 1.14678 0
M  V30 2 C -1.19949 0.872592 -0.0128343 0
M  V30 3 C -0.463576 -0.39075 -0.329974 0
M  V30 4 C 0.954199 -0.33036 -0.600968 0
M  V30 5 C 1.94718 0.150131 0.319342 0
M  V30 6 N 2.71196 -0.666256 0.995378 0
M  V30 7 N 2.15 1.52828 0.542687 0
M  V30 8 C -0.915751 -1.41637 0.692563 0
M  V30 9 C -1.11514 -0.926719 -1.6342 0
M  V30 10 H -0.953127 2.61049 1.03721 0
M  V30 11 H -1.27377 1.28723 2.03067 0
M  V30 12 H -1.19674 1.58839 -0.896652 0
M  V30 13 H -2.30728 0.677619 0.119358 0
M  V30 14 H 1.07235 0.312261 -1.54441 0
M  V30 15 H 1.35465 -1.32595 -1.00244 0
M  V30 16 H 2.59989 -1.67856 0.86506 0
M  V30 17 H 1.90307 2.28116 -0.156773 0
M  V30 18 H 2.56991 1.91412 1.43902 0
M  V30 19 H -0.505234 -2.42667 0.489046 0
M  V30 20 H -0.778831 -1.08521 1.72826 0
M  V30 21 H -2.01448 -1.50891 0.537995 0
M  V30 22 H -2.15084 -1.15338 -1.37191 0
M  V30 23 H -0.5367 -1.7916 -2.01851 0
M  V30 24 H -1.06715 -0.106647 -2.3747 0
M  V30 END ATOM
M  V30 BEGIN BOND
M  V30 1 1 1 2
M  V30 2 1 2 3
M  V30 3 1 3 4
M  V30 4 1 4 5
M  V30 5 2 5 6 CFG=2
M  V30 6 1 5 7
M  V30 7 1 3 8
M  V30 8 1 3 9
M  V30 9 1 1 10
M  V30 10 1 1 11
M  V30 11 1 2 12
M  V30 12 1 2 13
M  V30 13 1 4 14
M  V30 14 1 4 15
M  V30 15 1 6 16
M  V30 16 1 7 17
M  V30 17 1 7 18
M  V30 18 1 8 19
M  V30 19 1 8 20
M  V30 20 1 8 21
M  V30 21 1 9 22
M  V30 22 1 9 23
M  V30 23 1 9 24
M  V30 END BOND
M  V30 END CTAB
M  END
