
     RDKit          3D

  0  0  0  0  0  0  0  0  0  0999 V3000
M  V30 BEGIN CTAB
M  V30 COUNTS 34 35 0 0 0
M  V30 BEGIN ATOM
M  V30 1 N 5.20387 0.788395 -1.36319 0
M  V30 2 C 4.12216 0.226477 -0.626269 0
M  V30 3 C 4.34093 -0.881421 0.180085 0
M  V30 4 C 3.27495 -1.38673 0.868377 0
M  V30 5 C 2.03408 -0.779577 0.734686 0
M  V30 6 C 1.83081 0.314492 -0.065075 0
M  V30 7 N 2.90346 0.785601 -0.728473 0
M  V30 8 C 0.466027 0.922303 -0.164455 0 CFG=2
M  V30 9 O -0.1696 1.08869 0.996815 0
M  V30 10 C -1.1084 0.305448 1.49165 0
M  V30 11 C -1.86697 -0.625792 0.626806 0
M  V30 12 N -2.50148 -0.0570806 -0.506509 0
M  V30 13 C -1.71117 0.884866 -1.23881 0
M  V30 14 C -0.315209 0.300635 -1.30286 0
M  V30 15 S -4.13406 0.332465 -0.343153 0
M  V30 16 O -4.64492 0.857159 -1.65619 0
M  V30 17 O -4.43258 1.329 0.724441 0
M  V30 18 N -5.05454 -1.11169 -0.00826768 0
M  V30 19 H 6.17144 0.643986 -1.00354 0
M  V30 20 H 5.09525 1.33032 -2.23135 0
M  V30 21 H 5.34337 -1.28528 0.220333 0
M  V30 22 H 3.4304 -2.24857 1.49968 0
M  V30 23 H 1.23672 -1.21398 1.29283 0
M  V30 24 H 0.678912 1.97194 -0.552905 0
M  V30 25 H -1.88268 0.955525 2.00991 0
M  V30 26 H -0.70424 -0.304106 2.35493 0
M  V30 27 H -2.67734 -1.08943 1.26558 0
M  V30 28 H -1.21586 -1.47836 0.345383 0
M  V30 29 H -2.15022 1.04252 -2.23174 0
M  V30 30 H -1.73307 1.84973 -0.691881 0
M  V30 31 H 0.100517 0.643513 -2.2958 0
M  V30 32 H -0.284157 -0.784754 -1.32684 0
M  V30 33 H -4.61589 -1.56495 0.816548 0
M  V30 34 H -5.0305 -1.76135 -0.839786 0
M  V30 END ATOM
M  V30 BEGIN BOND
M  V30 1 1 1 2
M  V30 2 2 2 3
M  V30 3 1 3 4
M  V30 4 2 4 5
M  V30 5 1 5 6
M  V30 6 2 6 7
M  V30 7 1 6 8
M  V30 8 1 8 9
M  V30 9 1 9 10
M  V30 10 1 10 11
M  V30 11 1 11 12
M  V30 12 1 12 13
M  V30 13 1 13 14
M  V30 14 1 12 15
M  V30 15 2 15 16
M  V30 16 2 15 17
M  V30 17 1 15 18
M  V30 18 1 7 2
M  V30 19 1 14 8
M  V30 20 1 1 19
M  V30 21 1 1 20
M  V30 22 1 3 21
M  V30 23 1 4 22
M  V30 24 1 5 23
M  V30 25 1 8 24 CFG=3
M  V30 26 1 10 25
M  V30 27 1 10 26
M  V30 28 1 11 27
M  V30 29 1 11 28
M  V30 30 1 13 29
M  V30 31 1 13 30
M  V30 32 1 14 31
M  V30 33 1 14 32
M  V30 34 1 18 33
M  V30 35 1 18 34
M  V30 END BOND
M  V30 END CTAB
M  END
