
     RDKit          3D

  0  0  0  0  0  0  0  0  0  0999 V3000
M  V30 BEGIN CTAB
M  V30 COUNTS 23 23 0 0 0
M  V30 BEGIN ATOM
M  V30 1 N -2.19381 -1.12382 0.562935 0
M  V30 2 C -2.5341 0.205622 0.144038 0
M  V30 3 N -1.57656 0.938072 -0.336499 0
M  V30 4 C -0.263279 0.388057 -0.414003 0
M  V30 5 C 0.0311755 -0.727101 -1.16748 0
M  V30 6 C 1.33651 -1.21009 -1.17874 0
M  V30 7 C 2.33197 -0.592498 -0.452823 0
M  V30 8 C 2.0257 0.520334 0.296481 0
M  V30 9 C 0.740191 1.02052 0.326898 0
M  V30 10 N 0.361607 2.16094 1.08146 0 CHG=1
M  V30 11 O -0.740291 2.33212 1.5866 0
M  V30 12 O 1.34623 3.13328 1.22865 0 CHG=-1
M  V30 13 N 3.65529 -1.09123 -0.471323 0 CHG=1
M  V30 14 O 4.54552 -0.511069 0.19115 0
M  V30 15 O 4.02437 -2.2006 -1.19283 0 CHG=-1
M  V30 16 N -3.85429 0.655026 0.28791 0
M  V30 17 H -1.46916 -1.344 1.26561 0
M  V30 18 H -2.7131 -1.93408 0.132365 0
M  V30 19 H -0.750077 -1.22821 -1.7467 0
M  V30 20 H 1.60972 -2.08202 -1.75512 0
M  V30 21 H 2.76644 1.05135 0.895434 0
M  V30 22 H -4.4639 0.798203 -0.537417 0
M  V30 23 H -4.21615 0.841188 1.2534 0
M  V30 END ATOM
M  V30 BEGIN BOND
M  V30 1 1 1 2
M  V30 2 2 2 3 CFG=2
M  V30 3 1 3 4
M  V30 4 2 4 5
M  V30 5 1 5 6
M  V30 6 2 6 7
M  V30 7 1 7 8
M  V30 8 2 8 9
M  V30 9 1 9 10
M  V30 10 2 10 11
M  V30 11 1 10 12
M  V30 12 1 7 13
M  V30 13 2 13 14
M  V30 14 1 13 15
M  V30 15 1 2 16
M  V30 16 1 9 4
M  V30 17 1 1 17
M  V30 18 1 1 18
M  V30 19 1 5 19
M  V30 20 1 6 20
M  V30 21 1 8 21
M  V30 22 1 16 22
M  V30 23 1 16 23
M  V30 END BOND
M  V30 END CTAB
M  END
