
     RDKit          3D

  0  0  0  0  0  0  0  0  0  0999 V3000
M  V30 BEGIN CTAB
M  V30 COUNTS 49 50 0 0 0
M  V30 BEGIN ATOM
M  V30 1 N 7.76921 1.01323 1.21652 0
M  V30 2 C 7.40178 -0.372888 1.49033 0
M  V30 3 C 6.12412 -0.661002 0.7274 0
M  V30 4 O 5.10537 0.212119 1.16744 0
M  V30 5 C 3.85126 0.116377 0.582894 0
M  V30 6 C 3.56539 -0.802931 -0.421197 0
M  V30 7 C 2.30537 -0.875552 -0.985474 0
M  V30 8 C 1.30316 -0.0320384 -0.558695 0
M  V30 9 C -0.0414179 -0.0966133 -1.15858 0
M  V30 10 C -0.696629 -1.38688 -0.65855 0
M  V30 11 O 0.0993823 -2.08305 0.0452763 0
M  V30 12 N -1.96801 -1.61628 -1.00694 0
M  V30 13 C -3.27366 -1.85285 -1.36416 0
M  V30 14 C -4.29044 -2.066 -0.266286 0
M  V30 15 C -4.46073 -0.937748 0.679454 0
M  V30 16 C -4.91669 0.336011 0.0636735 0
M  V30 17 C -6.27743 0.537686 -0.0542438 0
M  V30 18 C -6.75404 1.70417 -0.606797 0
M  V30 19 C -5.85831 2.66889 -1.04125 0
M  V30 20 Cl -6.39355 4.19037 -1.75208 0
M  V30 21 C -4.50216 2.47346 -0.926826 0
M  V30 22 C -4.0481 1.30653 -0.374469 0
M  V30 23 C 1.56725 0.896018 0.444171 0
M  V30 24 C 2.84553 0.964104 1.01034 0
M  V30 25 N 3.13118 1.90435 2.02523 0
M  V30 26 H 7.27085 1.34501 0.34628 0
M  V30 27 H 8.798 1.06185 0.950557 0
M  V30 28 H 8.19657 -1.06341 1.1555 0
M  V30 29 H 7.28827 -0.488256 2.58386 0
M  V30 30 H 5.87878 -1.72943 0.935181 0
M  V30 31 H 6.33657 -0.589754 -0.357016 0
M  V30 32 H 4.32251 -1.48356 -0.782311 0
M  V30 33 H 2.09131 -1.58817 -1.75903 0
M  V30 34 H 0.0236073 -0.126332 -2.26249 0
M  V30 35 H -0.696962 0.718927 -0.807243 0
M  V30 36 H -1.95253 -2.80341 -0.326837 0
M  V30 37 H -3.36436 -2.75319 -2.04802 0
M  V30 38 H -3.63519 -1.02103 -2.05506 0
M  V30 39 H -3.93773 -2.94973 0.315314 0
M  V30 40 H -5.27565 -2.31066 -0.73956 0
M  V30 41 H -3.46257 -0.709613 1.15558 0
M  V30 42 H -5.18296 -1.27113 1.46144 0
M  V30 43 H -6.99944 -0.219789 0.287621 0
M  V30 44 H -7.79743 1.94037 -0.734936 0
M  V30 45 H -3.80415 3.25705 -1.27973 0
M  V30 46 H -2.97972 1.1524 -0.280514 0
M  V30 47 H 0.816355 1.5879 0.820529 0
M  V30 48 H 3.87637 2.60945 1.87907 0
M  V30 49 H 2.60168 1.89501 2.91183 0
M  V30 END ATOM
M  V30 BEGIN BOND
M  V30 1 1 1 2
M  V30 2 1 2 3
M  V30 3 1 3 4
M  V30 4 1 4 5
M  V30 5 2 5 6
M  V30 6 1 6 7
M  V30 7 2 7 8
M  V30 8 1 8 9
M  V30 9 1 9 10
M  V30 10 2 10 11
M  V30 11 1 10 12
M  V30 12 1 12 13
M  V30 13 1 13 14
M  V30 14 1 14 15
M  V30 15 1 15 16
M  V30 16 2 16 17
M  V30 17 1 17 18
M  V30 18 2 18 19
M  V30 19 1 19 20
M  V30 20 1 19 21
M  V30 21 2 21 22
M  V30 22 1 8 23
M  V30 23 2 23 24
M  V30 24 1 24 25
M  V30 25 1 24 5
M  V30 26 1 22 16
M  V30 27 1 1 26
M  V30 28 1 1 27
M  V30 29 1 2 28
M  V30 30 1 2 29
M  V30 31 1 3 30
M  V30 32 1 3 31
M  V30 33 1 6 32
M  V30 34 1 7 33
M  V30 35 1 9 34
M  V30 36 1 9 35
M  V30 37 1 12 36
M  V30 38 1 13 37
M  V30 39 1 13 38
M  V30 40 1 14 39
M  V30 41 1 14 40
M  V30 42 1 15 41
M  V30 43 1 15 42
M  V30 44 1 17 43
M  V30 45 1 18 44
M  V30 46 1 21 45
M  V30 47 1 22 46
M  V30 48 1 23 47
M  V30 49 1 25 48
M  V30 50 1 25 49
M  V30 END BOND
M  V30 END CTAB
M  END
