
     RDKit          3D

  0  0  0  0  0  0  0  0  0  0999 V3000
M  V30 BEGIN CTAB
M  V30 COUNTS 47 49 0 0 0
M  V30 BEGIN ATOM
M  V30 1 C -2.2734 3.0894 0.213567 0
M  V30 2 C -2.82782 2.11781 -0.808625 0
M  V30 3 C -3.42421 0.911752 -0.227119 0
M  V30 4 C -2.67143 -0.142373 0.176152 0
M  V30 5 N -1.27584 -0.166085 0.0599972 0
M  V30 6 C -0.628496 -0.636722 -1.16287 0
M  V30 7 C 0.496058 -1.62653 -0.841513 0
M  V30 8 N 1.34179 -1.01795 0.16498 0
M  V30 9 C 0.67311 -0.74617 1.42463 0
M  V30 10 C -0.471353 0.250779 1.20285 0
M  V30 11 C 2.69931 -0.683613 -0.0397134 0
M  V30 12 C 3.22764 -0.517565 -1.31932 0
M  V30 13 C 4.53771 -0.206949 -1.5738 0
M  V30 14 C 5.41278 -0.0409493 -0.533406 0
M  V30 15 C 4.93519 -0.195106 0.746407 0
M  V30 16 C 3.60595 -0.51006 0.981765 0
M  V30 17 C 6.83335 0.293795 -0.769044 0
M  V30 18 O 7.32267 0.442076 -2.05975 0
M  V30 19 O 7.60477 0.445553 0.201829 0
M  V30 20 C -3.35938 -1.22012 0.71944 0
M  V30 21 N -2.61063 -2.3473 1.15381 0
M  V30 22 N -4.69724 -1.18839 0.825796 0
M  V30 23 C -5.42401 -0.1355 0.421022 0
M  V30 24 N -6.84844 -0.113413 0.540754 0
M  V30 25 N -4.7878 0.915241 -0.105915 0
M  V30 26 H -1.1572 3.15779 0.143292 0
M  V30 27 H -2.60603 2.78101 1.22362 0
M  V30 28 H -2.65701 4.11521 0.0491313 0
M  V30 29 H -2.05282 1.88189 -1.58053 0
M  V30 30 H -3.61123 2.66495 -1.3722 0
M  V30 31 H -1.37136 -1.18773 -1.75775 0
M  V30 32 H -0.160589 0.181717 -1.72243 0
M  V30 33 H -0.0270551 -2.52446 -0.436912 0
M  V30 34 H 1.04198 -1.82127 -1.75484 0
M  V30 35 H 1.39007 -0.240859 2.08637 0
M  V30 36 H 0.315811 -1.68966 1.86372 0
M  V30 37 H -1.04204 0.273086 2.1473 0
M  V30 38 H -0.0244865 1.25489 1.06786 0
M  V30 39 H 2.54971 -0.636387 -2.1775 0
M  V30 40 H 4.92887 -0.0828255 -2.57925 0
M  V30 41 H 5.64093 -0.0605465 1.55748 0
M  V30 42 H 3.30631 -0.621963 2.01713 0
M  V30 43 H 7.5466 1.37213 -2.38977 0
M  V30 44 H -2.15101 -3.0353 0.527742 0
M  V30 45 H -2.49979 -2.52236 2.19453 0
M  V30 46 H -7.39623 -0.932984 0.229905 0
M  V30 47 H -7.35372 0.702074 0.930702 0
M  V30 END ATOM
M  V30 BEGIN BOND
M  V30 1 1 1 2
M  V30 2 1 2 3
M  V30 3 2 3 4
M  V30 4 1 4 5
M  V30 5 1 5 6
M  V30 6 1 6 7
M  V30 7 1 7 8
M  V30 8 1 8 9
M  V30 9 1 9 10
M  V30 10 1 8 11
M  V30 11 2 11 12
M  V30 12 1 12 13
M  V30 13 2 13 14
M  V30 14 1 14 15
M  V30 15 2 15 16
M  V30 16 1 14 17
M  V30 17 1 17 18
M  V30 18 2 17 19
M  V30 19 1 4 20
M  V30 20 1 20 21
M  V30 21 2 20 22
M  V30 22 1 22 23
M  V30 23 1 23 24
M  V30 24 2 23 25
M  V30 25 1 25 3
M  V30 26 1 10 5
M  V30 27 1 16 11
M  V30 28 1 1 26
M  V30 29 1 1 27
M  V30 30 1 1 28
M  V30 31 1 2 29
M  V30 32 1 2 30
M  V30 33 1 6 31
M  V30 34 1 6 32
M  V30 35 1 7 33
M  V30 36 1 7 34
M  V30 37 1 9 35
M  V30 38 1 9 36
M  V30 39 1 10 37
M  V30 40 1 10 38
M  V30 41 1 12 39
M  V30 42 1 13 40
M  V30 43 1 15 41
M  V30 44 1 16 42
M  V30 45 1 18 43
M  V30 46 1 21 44
M  V30 47 1 21 45
M  V30 48 1 24 46
M  V30 49 1 24 47
M  V30 END BOND
M  V30 END CTAB
M  END
