
     RDKit          3D

  0  0  0  0  0  0  0  0  0  0999 V3000
M  V30 BEGIN CTAB
M  V30 COUNTS 48 51 0 0 0
M  V30 BEGIN ATOM
M  V30 1 N 6.10576 1.13305 1.01206 0
M  V30 2 C 5.2404 0.199303 0.389912 0
M  V30 3 N 5.69491 -0.893977 -0.213253 0
M  V30 4 C 4.85888 -1.7709 -0.799521 0
M  V30 5 N 5.33657 -2.93858 -1.44434 0
M  V30 6 N 3.53161 -1.5096 -0.75937 0
M  V30 7 C 3.00996 -0.42818 -0.1689 0
M  V30 8 C 3.86828 0.465727 0.429254 0
M  V30 9 N 1.62009 -0.156032 -0.127312 0
M  V30 10 C 1.09357 1.03077 0.515165 0
M  V30 11 C -0.262851 1.29809 -0.151677 0
M  V30 12 C -1.26058 0.199182 0.160658 0
M  V30 13 C -0.526378 -1.07926 0.286272 0
M  V30 14 C 0.633277 -1.04898 -0.725105 0
M  V30 15 C -2.15109 0.0930056 -1.04238 0
M  V30 16 N -2.25797 -0.75592 -2.06332 0
M  V30 17 C -3.25866 -0.327133 -2.84079 0
M  V30 18 N -3.77228 0.789431 -2.30009 0
M  V30 19 C -3.09501 1.05453 -1.19179 0
M  V30 20 C -3.21665 2.1446 -0.19845 0
M  V30 21 C -2.74211 1.78368 1.16357 0
M  V30 22 N -2.00831 0.599733 1.29346 0
M  V30 23 S -2.78949 -0.584146 2.19295 0
M  V30 24 O -1.9183 -1.60613 2.81544 0
M  V30 25 O -3.55836 0.0848395 3.3028 0
M  V30 26 C -4.0218 -1.47689 1.23126 0
M  V30 27 H 6.53826 1.90449 0.47703 0
M  V30 28 H 6.31088 1.04363 2.02211 0
M  V30 29 H 4.85801 -3.83696 -1.26983 0
M  V30 30 H 6.14798 -2.91341 -2.08175 0
M  V30 31 H 3.54737 1.35791 0.925996 0
M  V30 32 H 0.979035 0.832869 1.59354 0
M  V30 33 H 1.69615 1.93875 0.305933 0
M  V30 34 H -0.0682149 1.39832 -1.23899 0
M  V30 35 H -0.582467 2.28749 0.243704 0
M  V30 36 H -1.14827 -1.92858 -0.0282088 0
M  V30 37 H -0.0370655 -1.21828 1.27218 0
M  V30 38 H 1.01862 -2.06242 -0.863327 0
M  V30 39 H 0.295032 -0.564564 -1.65787 0
M  V30 40 H -3.58131 -0.811923 -3.74455 0
M  V30 41 H -4.5674 1.30291 -2.73674 0
M  V30 42 H -2.69011 3.04701 -0.62314 0
M  V30 43 H -4.2863 2.43466 -0.155307 0
M  V30 44 H -3.61087 1.75855 1.88551 0
M  V30 45 H -2.11667 2.64449 1.53908 0
M  V30 46 H -4.74721 -0.731544 0.844086 0
M  V30 47 H -3.54718 -2.07022 0.440302 0
M  V30 48 H -4.56175 -2.11337 1.98283 0
M  V30 END ATOM
M  V30 BEGIN BOND
M  V30 1 1 1 2
M  V30 2 2 2 3
M  V30 3 1 3 4
M  V30 4 1 4 5
M  V30 5 2 4 6
M  V30 6 1 6 7
M  V30 7 2 7 8
M  V30 8 1 7 9
M  V30 9 1 9 10
M  V30 10 1 10 11
M  V30 11 1 11 12
M  V30 12 1 12 13
M  V30 13 1 13 14
M  V30 14 1 12 15
M  V30 15 1 15 16
M  V30 16 2 16 17
M  V30 17 1 17 18
M  V30 18 1 18 19
M  V30 19 1 19 20
M  V30 20 1 20 21
M  V30 21 1 21 22
M  V30 22 1 22 23
M  V30 23 2 23 24
M  V30 24 2 23 25
M  V30 25 1 23 26
M  V30 26 1 8 2
M  V30 27 1 14 9
M  V30 28 2 19 15
M  V30 29 1 22 12
M  V30 30 1 1 27
M  V30 31 1 1 28
M  V30 32 1 5 29
M  V30 33 1 5 30
M  V30 34 1 8 31
M  V30 35 1 10 32
M  V30 36 1 10 33
M  V30 37 1 11 34
M  V30 38 1 11 35
M  V30 39 1 13 36
M  V30 40 1 13 37
M  V30 41 1 14 38
M  V30 42 1 14 39
M  V30 43 1 17 40
M  V30 44 1 18 41
M  V30 45 1 20 42
M  V30 46 1 20 43
M  V30 47 1 21 44
M  V30 48 1 21 45
M  V30 49 1 26 46
M  V30 50 1 26 47
M  V30 51 1 26 48
M  V30 END BOND
M  V30 END CTAB
M  END
