
     RDKit          3D

  0  0  0  0  0  0  0  0  0  0999 V3000
M  V30 BEGIN CTAB
M  V30 COUNTS 32 33 0 0 0
M  V30 BEGIN ATOM
M  V30 1 C 5.5903 -0.397025 0.878142 0
M  V30 2 C 4.95304 0.961638 0.693715 0
M  V30 3 O 3.54676 0.874519 0.550531 0
M  V30 4 C 2.92622 0.176004 -0.45673 0
M  V30 5 O 3.63611 -0.42218 -1.3027 0
M  V30 6 C 1.47608 0.0969621 -0.589189 0
M  V30 7 C 0.908694 -0.613171 -1.6153 0
M  V30 8 C -0.449104 -0.671776 -1.71739 0
M  V30 9 N -1.00427 -1.42386 -2.80413 0
M  V30 10 C -1.2951 -0.0222536 -0.796988 0
M  V30 11 C -0.695388 0.669383 0.202802 0
M  V30 12 C 0.676179 0.741428 0.324499 0
M  V30 13 Cl -1.71483 1.49209 1.35888 0
M  V30 14 S -3.00756 -0.217243 -1.10718 0
M  V30 15 C -4.11568 0.558853 0.0172137 0
M  V30 16 N -4.6275 1.81196 -0.0284361 0
M  V30 17 N -5.45674 2.03414 0.967706 0
M  V30 18 C -5.49213 0.890459 1.69366 0
M  V30 19 N -4.66443 -0.014883 1.10484 0
M  V30 20 N -4.4479 -1.31176 1.57983 0
M  V30 21 H 6.07719 -0.74344 -0.0701858 0
M  V30 22 H 4.79642 -1.10632 1.2098 0
M  V30 23 H 6.39288 -0.365733 1.63953 0
M  V30 24 H 5.13481 1.52398 1.64494 0
M  V30 25 H 5.43072 1.54138 -0.112996 0
M  V30 26 H 1.5273 -1.13717 -2.35927 0
M  V30 27 H -1.24633 -2.42345 -2.6853 0
M  V30 28 H -1.16858 -0.974824 -3.71854 0
M  V30 29 H 1.11612 1.30632 1.1409 0
M  V30 30 H -6.0963 0.771894 2.58477 0
M  V30 31 H -3.50363 -1.74585 1.49263 0
M  V30 32 H -5.20335 -1.86008 2.01988 0
M  V30 END ATOM
M  V30 BEGIN BOND
M  V30 1 1 1 2
M  V30 2 1 2 3
M  V30 3 1 3 4
M  V30 4 2 4 5
M  V30 5 1 4 6
M  V30 6 2 6 7
M  V30 7 1 7 8
M  V30 8 1 8 9
M  V30 9 2 8 10
M  V30 10 1 10 11
M  V30 11 2 11 12
M  V30 12 1 11 13
M  V30 13 1 10 14
M  V30 14 1 14 15
M  V30 15 2 15 16
M  V30 16 1 16 17
M  V30 17 2 17 18
M  V30 18 1 18 19
M  V30 19 1 19 20
M  V30 20 1 12 6
M  V30 21 1 19 15
M  V30 22 1 1 21
M  V30 23 1 1 22
M  V30 24 1 1 23
M  V30 25 1 2 24
M  V30 26 1 2 25
M  V30 27 1 7 26
M  V30 28 1 9 27
M  V30 29 1 9 28
M  V30 30 1 12 29
M  V30 31 1 18 30
M  V30 32 1 20 31
M  V30 33 1 20 32
M  V30 END BOND
M  V30 END CTAB
M  END
