
     RDKit          3D

  0  0  0  0  0  0  0  0  0  0999 V3000
M  V30 BEGIN CTAB
M  V30 COUNTS 30 31 0 0 0
M  V30 BEGIN ATOM
M  V30 1 N -4.22107 -2.33459 -0.449379 0
M  V30 2 N -3.01321 -1.66957 -0.321672 0
M  V30 3 C -2.90763 -0.247251 -0.372408 0
M  V30 4 O -3.95282 0.395625 -0.538199 0
M  V30 5 C -1.63763 0.440406 -0.237603 0
M  V30 6 N -0.475311 -0.240175 -0.0547179 0
M  V30 7 N 0.69066 0.360761 0.0704495 0
M  V30 8 C 0.710544 1.70113 0.0121804 0
M  V30 9 O 1.83154 2.27942 0.132491 0
M  V30 10 C -0.419528 2.47374 -0.170669 0
M  V30 11 C -0.378319 3.90825 -0.230426 0
M  V30 12 N -0.360665 5.07349 -0.288146 0
M  V30 13 C -1.62751 1.81653 -0.298773 0
M  V30 14 N -2.85767 2.50574 -0.490904 0
M  V30 15 C 1.90195 -0.399557 0.263364 0
M  V30 16 C 2.43912 -1.16541 -0.752559 0
M  V30 17 C 3.59538 -1.89166 -0.56965 0
M  V30 18 C 4.25649 -1.87417 0.646845 0
M  V30 19 C 3.7302 -1.1129 1.67026 0
M  V30 20 C 2.57178 -0.392043 1.46966 0
M  V30 21 H -4.17919 -2.99556 -1.26321 0
M  V30 22 H -4.45718 -2.89461 0.410763 0
M  V30 23 H -2.15101 -2.24574 -0.182853 0
M  V30 24 H -3.52105 2.67342 0.299318 0
M  V30 25 H -3.1533 2.87443 -1.42677 0
M  V30 26 H 1.95202 -1.19699 -1.69693 0
M  V30 27 H 4.01576 -2.49161 -1.36623 0
M  V30 28 H 5.15744 -2.42879 0.818313 0
M  V30 29 H 4.25342 -1.10808 2.60982 0
M  V30 30 H 2.20679 0.185784 2.30764 0
M  V30 END ATOM
M  V30 BEGIN BOND
M  V30 1 1 1 2
M  V30 2 1 2 3
M  V30 3 2 3 4
M  V30 4 1 3 5
M  V30 5 2 5 6
M  V30 6 1 6 7
M  V30 7 1 7 8
M  V30 8 2 8 9
M  V30 9 1 8 10
M  V30 10 1 10 11
M  V30 11 3 11 12
M  V30 12 2 10 13
M  V30 13 1 13 14
M  V30 14 1 7 15
M  V30 15 2 15 16
M  V30 16 1 16 17
M  V30 17 2 17 18
M  V30 18 1 18 19
M  V30 19 2 19 20
M  V30 20 1 13 5
M  V30 21 1 20 15
M  V30 22 1 1 21
M  V30 23 1 1 22
M  V30 24 1 2 23
M  V30 25 1 14 24
M  V30 26 1 14 25
M  V30 27 1 16 26
M  V30 28 1 17 27
M  V30 29 1 18 28
M  V30 30 1 19 29
M  V30 31 1 20 30
M  V30 END BOND
M  V30 END CTAB
M  END
