
     RDKit          3D

  0  0  0  0  0  0  0  0  0  0999 V3000
M  V30 BEGIN CTAB
M  V30 COUNTS 39 41 0 0 0
M  V30 BEGIN ATOM
M  V30 1 C -5.04148 1.40877 1.14313 0
M  V30 2 O -5.14713 0.0459806 0.826043 0
M  V30 3 C -4.09071 -0.57181 0.175328 0
M  V30 4 C -2.91748 0.0947865 -0.182688 0
M  V30 5 C -1.89579 -0.558469 -0.827642 0
M  V30 6 N -0.699531 0.0992572 -1.22535 0
M  V30 7 N -0.616539 0.898197 -2.31849 0
M  V30 8 C 0.623439 1.3558 -2.43951 0
M  V30 9 C 1.34606 0.83209 -1.39264 0
M  V30 10 C 2.73827 1.10925 -1.15531 0
M  V30 11 O 3.3655 1.82178 -2.02174 0
M  V30 12 N 3.50946 0.681415 -0.0591784 0
M  V30 13 C 4.7883 0.732082 -0.00765388 0
M  V30 14 N 5.57798 1.23322 -1.06737 0
M  V30 15 N 5.42976 0.26296 1.1691 0
M  V30 16 C 0.473418 0.0291001 -0.628977 0
M  V30 17 C 0.938424 -0.698309 0.543039 0
M  V30 18 C 0.134026 -1.30037 1.59195 0
M  V30 19 C 0.787022 0.00761286 1.89607 0
M  V30 20 C -2.05161 -1.88883 -1.11527 0
M  V30 21 Cl -0.805145 -2.83133 -1.94262 0
M  V30 22 C -3.22436 -2.56486 -0.75988 0
M  V30 23 C -4.24485 -1.91472 -0.116542 0
M  V30 24 H -4.68415 2.00056 0.277989 0
M  V30 25 H -6.03878 1.83621 1.4135 0
M  V30 26 H -4.38145 1.56265 2.02475 0
M  V30 27 H -2.85575 1.13881 0.0716744 0
M  V30 28 H 0.959007 2.01593 -3.23115 0
M  V30 29 H 6.16073 2.09596 -0.979651 0
M  V30 30 H 5.58505 0.730672 -1.97365 0
M  V30 31 H 6.19393 -0.453189 1.01471 0
M  V30 32 H 5.19045 0.579729 2.12941 0
M  V30 33 H 1.95452 -1.21571 0.39523 0
M  V30 34 H -0.94721 -1.33377 1.69303 0
M  V30 35 H 0.607307 -2.14392 2.18972 0
M  V30 36 H 1.65978 0.0790825 2.55298 0
M  V30 37 H 0.127041 0.897367 1.93456 0
M  V30 38 H -3.33336 -3.63335 -0.998718 0
M  V30 39 H -5.17414 -2.44061 0.168228 0
M  V30 END ATOM
M  V30 BEGIN BOND
M  V30 1 1 1 2
M  V30 2 1 2 3
M  V30 3 2 3 4
M  V30 4 1 4 5
M  V30 5 1 5 6
M  V30 6 1 6 7
M  V30 7 2 7 8
M  V30 8 1 8 9
M  V30 9 1 9 10
M  V30 10 2 10 11
M  V30 11 1 10 12
M  V30 12 2 12 13
M  V30 13 1 13 14
M  V30 14 1 13 15
M  V30 15 2 9 16
M  V30 16 1 16 17
M  V30 17 1 17 18
M  V30 18 1 18 19
M  V30 19 2 5 20
M  V30 20 1 20 21
M  V30 21 1 20 22
M  V30 22 2 22 23
M  V30 23 1 23 3
M  V30 24 1 16 6
M  V30 25 1 19 17
M  V30 26 1 1 24
M  V30 27 1 1 25
M  V30 28 1 1 26
M  V30 29 1 4 27
M  V30 30 1 8 28
M  V30 31 1 14 29
M  V30 32 1 14 30
M  V30 33 1 15 31
M  V30 34 1 15 32
M  V30 35 1 17 33
M  V30 36 1 18 34
M  V30 37 1 18 35
M  V30 38 1 19 36
M  V30 39 1 19 37
M  V30 40 1 22 38
M  V30 41 1 23 39
M  V30 END BOND
M  V30 END CTAB
M  END
