
     RDKit          3D

  0  0  0  0  0  0  0  0  0  0999 V3000
M  V30 BEGIN CTAB
M  V30 COUNTS 52 53 0 0 0
M  V30 BEGIN ATOM
M  V30 1 N 5.77428 -2.69592 1.13347 0
M  V30 2 C 6.30655 -1.40475 0.928245 0
M  V30 3 C 5.52506 -0.402154 0.326742 0
M  V30 4 N 4.21368 -0.74609 -0.0514213 0
M  V30 5 C 3.26224 0.0890516 -0.663708 0
M  V30 6 O 3.4997 1.26586 -0.94246 0
M  V30 7 C 1.91694 -0.520463 -0.971673 0
M  V30 8 C 1.01635 0.509034 -1.62577 0
M  V30 9 C -0.321139 -0.115359 -1.92662 0
M  V30 10 C -1.26441 0.872738 -2.6005 0
M  V30 11 C -1.47779 2.04822 -1.69494 0
M  V30 12 C -2.04985 1.70948 -0.378572 0
M  V30 13 C -3.41874 1.11134 -0.492704 0
M  V30 14 O -3.93017 1.11594 -1.62478 0
M  V30 15 N -3.99539 0.604057 0.678823 0
M  V30 16 C -5.2501 0.00713977 0.806671 0
M  V30 17 C -5.63642 -0.4362 2.08578 0
M  V30 18 N -4.76612 -0.276407 3.21146 0
M  V30 19 C -6.83918 -1.03594 2.33984 0
M  V30 20 C -7.70483 -1.20706 1.27828 0
M  V30 21 C -7.38511 -0.797689 0.0168966 0
M  V30 22 C -6.14369 -0.189361 -0.194262 0
M  V30 23 C 6.08644 0.832005 0.150056 0
M  V30 24 C 7.40448 1.12746 0.545786 0
M  V30 25 C 8.11267 0.105091 1.12632 0
M  V30 26 C 7.59233 -1.14622 1.32354 0
M  V30 27 H 6.30072 -3.52105 0.754756 0
M  V30 28 H 4.86568 -2.85704 1.65457 0
M  V30 29 H 3.88647 -1.76804 0.145864 0
M  V30 30 H 2.0411 -1.36117 -1.64952 0
M  V30 31 H 1.47436 -0.861654 -0.0177974 0
M  V30 32 H 0.854679 1.28792 -0.823682 0
M  V30 33 H 1.45905 1.00318 -2.48451 0
M  V30 34 H -0.830743 -0.483819 -1.01698 0
M  V30 35 H -0.19761 -1.02792 -2.5824 0
M  V30 36 H -2.15054 0.325852 -2.91745 0
M  V30 37 H -0.746918 1.3031 -3.5235 0
M  V30 38 H -0.482464 2.56124 -1.58976 0
M  V30 39 H -2.17206 2.73996 -2.28233 0
M  V30 40 H -1.39302 1.02974 0.193427 0
M  V30 41 H -2.1097 2.6388 0.241317 0
M  V30 42 H -3.40512 0.687679 1.56065 0
M  V30 43 H -5.08517 0.315876 3.98715 0
M  V30 44 H -3.85576 -0.762258 3.19669 0
M  V30 45 H -7.1248 -1.3739 3.33414 0
M  V30 46 H -8.65676 -1.67782 1.46069 0
M  V30 47 H -8.03309 -0.913857 -0.834667 0
M  V30 48 H -5.9253 0.120629 -1.20092 0
M  V30 49 H 5.57915 1.66379 -0.296765 0
M  V30 50 H 7.83021 2.11357 0.396164 0
M  V30 51 H 9.13192 0.304891 1.44127 0
M  V30 52 H 8.21795 -1.91153 1.79345 0
M  V30 END ATOM
M  V30 BEGIN BOND
M  V30 1 1 1 2
M  V30 2 2 2 3
M  V30 3 1 3 4
M  V30 4 1 4 5
M  V30 5 2 5 6
M  V30 6 1 5 7
M  V30 7 1 7 8
M  V30 8 1 8 9
M  V30 9 1 9 10
M  V30 10 1 10 11
M  V30 11 1 11 12
M  V30 12 1 12 13
M  V30 13 2 13 14
M  V30 14 1 13 15
M  V30 15 1 15 16
M  V30 16 2 16 17
M  V30 17 1 17 18
M  V30 18 1 17 19
M  V30 19 2 19 20
M  V30 20 1 20 21
M  V30 21 2 21 22
M  V30 22 1 3 23
M  V30 23 2 23 24
M  V30 24 1 24 25
M  V30 25 2 25 26
M  V30 26 1 26 2
M  V30 27 1 22 16
M  V30 28 1 1 27
M  V30 29 1 1 28
M  V30 30 1 4 29
M  V30 31 1 7 30
M  V30 32 1 7 31
M  V30 33 1 8 32
M  V30 34 1 8 33
M  V30 35 1 9 34
M  V30 36 1 9 35
M  V30 37 1 10 36
M  V30 38 1 10 37
M  V30 39 1 11 38
M  V30 40 1 11 39
M  V30 41 1 12 40
M  V30 42 1 12 41
M  V30 43 1 15 42
M  V30 44 1 18 43
M  V30 45 1 18 44
M  V30 46 1 19 45
M  V30 47 1 20 46
M  V30 48 1 21 47
M  V30 49 1 22 48
M  V30 50 1 23 49
M  V30 51 1 24 50
M  V30 52 1 25 51
M  V30 53 1 26 52
M  V30 END BOND
M  V30 END CTAB
M  END
