
     RDKit          3D

  0  0  0  0  0  0  0  0  0  0999 V3000
M  V30 BEGIN CTAB
M  V30 COUNTS 26 27 0 0 0
M  V30 BEGIN ATOM
M  V30 1 N -1.2392 2.20643 1.2759 0
M  V30 2 C -1.82541 1.29258 0.355023 0
M  V30 3 C -1.51917 -0.026903 0.136386 0
M  V30 4 C -0.473974 -0.834504 0.812604 0
M  V30 5 C 0.89744 -0.55959 0.319884 0
M  V30 6 C 1.40444 -1.17045 -0.817585 0
M  V30 7 C 2.68588 -0.933231 -1.2876 0
M  V30 8 C 3.46351 -0.0437375 -0.565076 0
M  V30 9 Cl 5.08775 0.243644 -1.17826 0
M  V30 10 C 3.00941 0.585045 0.564321 0
M  V30 11 C 1.7301 0.308393 0.979312 0
M  V30 12 C -2.35699 -0.522551 -0.854577 0
M  V30 13 N -2.37895 -1.84298 -1.38524 0
M  V30 14 N -3.14904 0.50253 -1.21361 0
M  V30 15 N -2.8452 1.56984 -0.510751 0
M  V30 16 H -1.72995 2.41424 2.16085 0
M  V30 17 H -0.3385 2.65688 1.06428 0
M  V30 18 H -0.461929 -0.602248 1.91912 0
M  V30 19 H -0.763911 -1.90014 0.712734 0
M  V30 20 H 0.800489 -1.8636 -1.38147 0
M  V30 21 H 3.06142 -1.42312 -2.18214 0
M  V30 22 H 3.6472 1.26126 1.08569 0
M  V30 23 H 1.37512 0.799725 1.86772 0
M  V30 24 H -3.0036 -2.05903 -2.17288 0
M  V30 25 H -1.77576 -2.57166 -0.983853 0
M  V30 26 H -3.30119 2.51316 -0.580651 0
M  V30 END ATOM
M  V30 BEGIN BOND
M  V30 1 1 1 2
M  V30 2 2 2 3
M  V30 3 1 3 4
M  V30 4 1 4 5
M  V30 5 2 5 6
M  V30 6 1 6 7
M  V30 7 2 7 8
M  V30 8 1 8 9
M  V30 9 1 8 10
M  V30 10 2 10 11
M  V30 11 1 3 12
M  V30 12 1 12 13
M  V30 13 2 12 14
M  V30 14 1 14 15
M  V30 15 1 15 2
M  V30 16 1 11 5
M  V30 17 1 1 16
M  V30 18 1 1 17
M  V30 19 1 4 18
M  V30 20 1 4 19
M  V30 21 1 6 20
M  V30 22 1 7 21
M  V30 23 1 10 22
M  V30 24 1 11 23
M  V30 25 1 13 24
M  V30 26 1 13 25
M  V30 27 1 15 26
M  V30 END BOND
M  V30 END CTAB
M  END
