
     RDKit          3D

  0  0  0  0  0  0  0  0  0  0999 V3000
M  V30 BEGIN CTAB
M  V30 COUNTS 30 31 0 0 0
M  V30 BEGIN ATOM
M  V30 1 N 4.77128 0.851211 1.48214 0
M  V30 2 C 3.81505 0.00448704 0.887049 0
M  V30 3 N 4.11729 -1.20321 0.343747 0
M  V30 4 C 3.1862 -1.98869 -0.21641 0
M  V30 5 O 3.47147 -3.12207 -0.725978 0
M  V30 6 N 1.91662 -1.54859 -0.231039 0
M  V30 7 C 1.53888 -0.356607 0.290631 0
M  V30 8 C 2.50643 0.442387 0.864172 0
M  V30 9 N 2.08251 1.68781 1.40388 0
M  V30 10 N 0.182263 0.0553566 0.246067 0
M  V30 11 C -0.797093 -0.797308 -0.356276 0
M  V30 12 C -2.1574 -0.233377 -0.355062 0
M  V30 13 C -3.25049 -1.09463 -0.416148 0
M  V30 14 C -4.55467 -0.674784 -0.426206 0
M  V30 15 C -4.78624 0.691319 -0.37193 0
M  V30 16 C -3.74622 1.59069 -0.310423 0
M  V30 17 C -2.43143 1.11375 -0.302704 0
M  V30 18 H 5.19268 0.585609 2.3803 0
M  V30 19 H 5.03723 1.7251 1.01206 0
M  V30 20 H 1.2113 -2.17834 -0.672583 0
M  V30 21 H 1.92472 2.54635 0.833058 0
M  V30 22 H 1.91559 1.7612 2.4311 0
M  V30 23 H -0.0803356 0.958598 0.649479 0
M  V30 24 H -0.451485 -0.973706 -1.41869 0
M  V30 25 H -0.815589 -1.81191 0.140726 0
M  V30 26 H -3.02028 -2.16254 -0.457499 0
M  V30 27 H -5.36299 -1.39037 -0.474797 0
M  V30 28 H -5.82265 1.02938 -0.379667 0
M  V30 29 H -3.96303 2.65486 -0.268936 0
M  V30 30 H -1.6296 1.83802 -0.257827 0
M  V30 END ATOM
M  V30 BEGIN BOND
M  V30 1 1 1 2
M  V30 2 2 2 3
M  V30 3 1 3 4
M  V30 4 2 4 5
M  V30 5 1 4 6
M  V30 6 1 6 7
M  V30 7 2 7 8
M  V30 8 1 8 9
M  V30 9 1 7 10
M  V30 10 1 10 11
M  V30 11 1 11 12
M  V30 12 2 12 13
M  V30 13 1 13 14
M  V30 14 2 14 15
M  V30 15 1 15 16
M  V30 16 2 16 17
M  V30 17 1 8 2
M  V30 18 1 17 12
M  V30 19 1 1 18
M  V30 20 1 1 19
M  V30 21 1 6 20
M  V30 22 1 9 21
M  V30 23 1 9 22
M  V30 24 1 10 23
M  V30 25 1 11 24
M  V30 26 1 11 25
M  V30 27 1 13 26
M  V30 28 1 14 27
M  V30 29 1 15 28
M  V30 30 1 16 29
M  V30 31 1 17 30
M  V30 END BOND
M  V30 END CTAB
M  END
