
     RDKit          3D

  0  0  0  0  0  0  0  0  0  0999 V3000
M  V30 BEGIN CTAB
M  V30 COUNTS 39 39 0 0 0
M  V30 BEGIN ATOM
M  V30 1 C 6.21176 -0.0937462 0.845616 0
M  V30 2 O 5.38496 0.28772 -0.22924 0
M  V30 3 C 4.03508 0.0190432 -0.164018 0
M  V30 4 C 3.48043 -0.610963 0.923661 0
M  V30 5 C 2.14407 -0.880905 0.996861 0
M  V30 6 C 1.26131 -0.52973 -0.035781 0
M  V30 7 C 1.80517 0.0972774 -1.12222 0
M  V30 8 C 3.18347 0.364364 -1.17397 0
M  V30 9 N 3.68907 1.01679 -2.32494 0
M  V30 10 N -0.101875 -0.855617 0.102255 0
M  V30 11 C -1.19444 -0.367315 -0.634285 0
M  V30 12 O -1.04153 0.471067 -1.54793 0
M  V30 13 C -2.5782 -0.855921 -0.32577 0 CFG=2
M  V30 14 C -3.5015 0.274488 0.0608172 0
M  V30 15 C -3.59588 1.25809 -1.07259 0
M  V30 16 C -3.02126 0.923439 1.34167 0
M  V30 17 C -4.9003 -0.248126 0.313204 0
M  V30 18 N -2.51138 -1.82492 0.744631 0
M  V30 19 H 6.05184 -1.18051 1.02109 0
M  V30 20 H 7.28076 0.0445815 0.616001 0
M  V30 21 H 5.88522 0.493747 1.7309 0
M  V30 22 H 4.12486 -0.908107 1.76063 0
M  V30 23 H 1.7032 -1.37707 1.85678 0
M  V30 24 H 1.20098 0.392507 -1.96462 0
M  V30 25 H 4.37736 0.52236 -2.9555 0
M  V30 26 H 3.40499 1.98085 -2.57935 0
M  V30 27 H -0.331421 -1.57924 0.870274 0
M  V30 28 H -2.95218 -1.35693 -1.23649 0
M  V30 29 H -4.61735 1.69343 -1.15768 0
M  V30 30 H -3.44175 0.69993 -2.0187 0
M  V30 31 H -2.84228 2.06106 -1.03677 0
M  V30 32 H -3.32999 1.9787 1.42831 0
M  V30 33 H -1.89526 0.898884 1.40808 0
M  V30 34 H -3.37555 0.373247 2.24088 0
M  V30 35 H -4.93208 -0.757288 1.31881 0
M  V30 36 H -5.60597 0.603486 0.404022 0
M  V30 37 H -5.24393 -0.925078 -0.488997 0
M  V30 38 H -1.99631 -2.67811 0.443222 0
M  V30 39 H -2.21415 -1.42707 1.64115 0
M  V30 END ATOM
M  V30 BEGIN BOND
M  V30 1 1 1 2
M  V30 2 1 2 3
M  V30 3 2 3 4
M  V30 4 1 4 5
M  V30 5 2 5 6
M  V30 6 1 6 7
M  V30 7 2 7 8
M  V30 8 1 8 9
M  V30 9 1 6 10
M  V30 10 1 10 11
M  V30 11 2 11 12
M  V30 12 1 11 13
M  V30 13 1 13 14
M  V30 14 1 14 15
M  V30 15 1 14 16
M  V30 16 1 14 17
M  V30 17 1 13 18
M  V30 18 1 8 3
M  V30 19 1 1 19
M  V30 20 1 1 20
M  V30 21 1 1 21
M  V30 22 1 4 22
M  V30 23 1 5 23
M  V30 24 1 7 24
M  V30 25 1 9 25
M  V30 26 1 9 26
M  V30 27 1 10 27
M  V30 28 1 13 28 CFG=3
M  V30 29 1 15 29
M  V30 30 1 15 30
M  V30 31 1 15 31
M  V30 32 1 16 32
M  V30 33 1 16 33
M  V30 34 1 16 34
M  V30 35 1 17 35
M  V30 36 1 17 36
M  V30 37 1 17 37
M  V30 38 1 18 38
M  V30 39 1 18 39
M  V30 END BOND
M  V30 END CTAB
M  END
