
     RDKit          3D

  0  0  0  0  0  0  0  0  0  0999 V3000
M  V30 BEGIN CTAB
M  V30 COUNTS 48 50 0 0 0
M  V30 BEGIN ATOM
M  V30 1 O 2.29305 1.59272 0.322588 0
M  V30 2 C 1.49133 1.19285 -0.589494 0
M  V30 3 N 0.106277 1.08337 -0.333926 0
M  V30 4 C -0.863053 0.689403 -1.28946 0
M  V30 5 C -2.23534 1.31793 -1.11846 0
M  V30 6 C -2.60255 1.54585 0.303165 0
M  V30 7 C -1.65737 0.816 1.25637 0
M  V30 8 C -0.281427 1.41125 1.05495 0
M  V30 9 C -4.02845 1.4231 0.675561 0
M  V30 10 C -4.68789 0.146294 0.436146 0
M  V30 11 C -5.31416 -0.0644704 -0.769839 0
M  V30 12 C -5.9699 -1.23066 -1.09395 0
M  V30 13 C -5.98282 -2.21838 -0.142862 0
M  V30 14 C -5.36363 -2.03347 1.07282 0
M  V30 15 C -4.71655 -0.855698 1.3653 0
M  V30 16 C 2.09795 0.865373 -1.88902 0
M  V30 17 S 2.83167 -0.779177 -1.9386 0
M  V30 18 C 4.28244 -0.89542 -0.91254 0
M  V30 19 N 4.77394 0.125203 -0.193763 0
M  V30 20 C 5.86388 0.0585866 0.584813 0
M  V30 21 N 6.29693 1.19837 1.30558 0
M  V30 22 C 6.5176 -1.14638 0.644433 0
M  V30 23 C 6.03548 -2.22099 -0.0861633 0
M  V30 24 N 4.94508 -2.07611 -0.837523 0
M  V30 25 N 6.72437 -3.47464 -0.0250404 0
M  V30 26 H -0.942306 -0.431227 -1.32272 0
M  V30 27 H -0.51923 0.966633 -2.30678 0
M  V30 28 H -2.21882 2.26363 -1.71976 0
M  V30 29 H -2.92418 0.639277 -1.68202 0
M  V30 30 H -2.33513 2.64073 0.502915 0
M  V30 31 H -1.67235 -0.266559 1.14416 0
M  V30 32 H -1.98901 1.07425 2.2797 0
M  V30 33 H 0.394827 0.985945 1.7945 0
M  V30 34 H -0.34783 2.51279 1.07084 0
M  V30 35 H -4.0787 1.5814 1.79928 0
M  V30 36 H -4.65059 2.29229 0.296176 0
M  V30 37 H -5.31751 0.713495 -1.54596 0
M  V30 38 H -6.46186 -1.36758 -2.06345 0
M  V30 39 H -6.48606 -3.17977 -0.320466 0
M  V30 40 H -5.4059 -2.8588 1.80569 0
M  V30 41 H -4.25882 -0.775241 2.32487 0
M  V30 42 H 1.37753 0.930886 -2.72759 0
M  V30 43 H 2.90468 1.60894 -2.15138 0
M  V30 44 H 7.12497 1.72667 0.963638 0
M  V30 45 H 5.81959 1.53033 2.16816 0
M  V30 46 H 7.39624 -1.25072 1.25468 0
M  V30 47 H 6.3345 -4.33466 0.370233 0
M  V30 48 H 7.69907 -3.47361 -0.4239 0
M  V30 END ATOM
M  V30 BEGIN BOND
M  V30 1 2 1 2
M  V30 2 1 2 3
M  V30 3 1 3 4
M  V30 4 1 4 5
M  V30 5 1 5 6
M  V30 6 1 6 7
M  V30 7 1 7 8
M  V30 8 1 6 9
M  V30 9 1 9 10
M  V30 10 2 10 11
M  V30 11 1 11 12
M  V30 12 2 12 13
M  V30 13 1 13 14
M  V30 14 2 14 15
M  V30 15 1 2 16
M  V30 16 1 16 17
M  V30 17 1 17 18
M  V30 18 2 18 19
M  V30 19 1 19 20
M  V30 20 1 20 21
M  V30 21 2 20 22
M  V30 22 1 22 23
M  V30 23 2 23 24
M  V30 24 1 23 25
M  V30 25 1 8 3
M  V30 26 1 15 10
M  V30 27 1 24 18
M  V30 28 1 4 26
M  V30 29 1 4 27
M  V30 30 1 5 28
M  V30 31 1 5 29
M  V30 32 1 6 30
M  V30 33 1 7 31
M  V30 34 1 7 32
M  V30 35 1 8 33
M  V30 36 1 8 34
M  V30 37 1 9 35
M  V30 38 1 9 36
M  V30 39 1 11 37
M  V30 40 1 12 38
M  V30 41 1 13 39
M  V30 42 1 14 40
M  V30 43 1 15 41
M  V30 44 1 16 42
M  V30 45 1 16 43
M  V30 46 1 21 44
M  V30 47 1 21 45
M  V30 48 1 22 46
M  V30 49 1 25 47
M  V30 50 1 25 48
M  V30 END BOND
M  V30 END CTAB
M  END
