
     RDKit          3D

  0  0  0  0  0  0  0  0  0  0999 V3000
M  V30 BEGIN CTAB
M  V30 COUNTS 22 22 0 0 0
M  V30 BEGIN ATOM
M  V30 1 C -2.27867 -1.3288 -0.905506 0
M  V30 2 C -1.11359 -0.560837 -0.414438 0
M  V30 3 C 0.122521 -1.16464 -0.322723 0
M  V30 4 C 1.22315 -0.468145 0.132407 0
M  V30 5 C 2.55786 -1.11418 0.233193 0
M  V30 6 C 1.0746 0.85474 0.49976 0
M  V30 7 N 2.23594 1.54187 0.965523 0
M  V30 8 C -0.165252 1.47127 0.411067 0
M  V30 9 C -1.25121 0.776731 -0.0402181 0
M  V30 10 N -2.55116 1.36624 -0.150414 0
M  V30 11 H -2.21184 -1.62266 -1.9561 0
M  V30 12 H -3.20438 -0.705423 -0.789189 0
M  V30 13 H -2.46157 -2.23353 -0.254502 0
M  V30 14 H 0.213984 -2.21533 -0.620414 0
M  V30 15 H 3.38145 -0.364389 0.167174 0
M  V30 16 H 2.68546 -1.75228 -0.687236 0
M  V30 17 H 2.65109 -1.76406 1.12797 0
M  V30 18 H 2.90804 1.13182 1.65044 0
M  V30 19 H 2.45513 2.50245 0.626162 0
M  V30 20 H -0.258752 2.5042 0.702898 0
M  V30 21 H -2.8834 1.68546 -1.0937 0
M  V30 22 H -3.1294 1.45951 0.717862 0
M  V30 END ATOM
M  V30 BEGIN BOND
M  V30 1 1 1 2
M  V30 2 2 2 3
M  V30 3 1 3 4
M  V30 4 1 4 5
M  V30 5 2 4 6
M  V30 6 1 6 7
M  V30 7 1 6 8
M  V30 8 2 8 9
M  V30 9 1 9 10
M  V30 10 1 9 2
M  V30 11 1 1 11
M  V30 12 1 1 12
M  V30 13 1 1 13
M  V30 14 1 3 14
M  V30 15 1 5 15
M  V30 16 1 5 16
M  V30 17 1 5 17
M  V30 18 1 7 18
M  V30 19 1 7 19
M  V30 20 1 8 20
M  V30 21 1 10 21
M  V30 22 1 10 22
M  V30 END BOND
M  V30 END CTAB
M  END
