
     RDKit          3D

  0  0  0  0  0  0  0  0  0  0999 V3000
M  V30 BEGIN CTAB
M  V30 COUNTS 30 31 0 0 0
M  V30 BEGIN ATOM
M  V30 1 C 4.36571 1.24225 1.58099 0
M  V30 2 C 3.35082 0.452854 1.28023 0
M  V30 3 C 3.49548 -0.638415 0.300413 0
M  V30 4 N 2.56055 -0.415936 -0.803537 0
M  V30 5 C 2.84457 0.290227 -1.90989 0
M  V30 6 N 1.73557 0.26255 -2.66512 0
M  V30 7 N 0.800626 -0.446275 -2.02758 0
M  V30 8 C 1.30152 -0.888328 -0.841666 0
M  V30 9 S 0.472245 -1.88647 0.389749 0
M  V30 10 C -1.20773 -2.23219 -0.154489 0
M  V30 11 C -2.07262 -1.02763 -0.202118 0
M  V30 12 N -2.23235 -0.227703 -1.25196 0
M  V30 13 C -3.05795 0.837964 -1.14497 0
M  V30 14 N -3.29357 1.7431 -2.19616 0
M  V30 15 N -3.71003 1.08239 0.0164997 0
M  V30 16 C -3.55522 0.281439 1.08028 0
M  V30 17 N -2.74182 -0.760728 0.96107 0
M  V30 18 N -4.22719 0.504631 2.32659 0
M  V30 19 H 5.32814 1.08492 1.09607 0
M  V30 20 H 4.31127 2.05717 2.29278 0
M  V30 21 H 2.40387 0.623086 1.76999 0
M  V30 22 H 4.53475 -0.714455 -0.0791961 0
M  V30 23 H 3.26251 -1.5851 0.832722 0
M  V30 24 H 3.78798 0.773068 -2.12162 0
M  V30 25 H -1.14553 -2.68181 -1.17998 0
M  V30 26 H -1.63195 -2.99109 0.534332 0
M  V30 27 H -3.25734 1.40788 -3.17142 0
M  V30 28 H -3.50189 2.73697 -2.00998 0
M  V30 29 H -4.51643 -0.357614 2.85178 0
M  V30 30 H -4.40399 1.47325 2.66502 0
M  V30 END ATOM
M  V30 BEGIN BOND
M  V30 1 2 1 2 CFG=2
M  V30 2 1 2 3
M  V30 3 1 3 4
M  V30 4 1 4 5
M  V30 5 2 5 6
M  V30 6 1 6 7
M  V30 7 2 7 8
M  V30 8 1 8 9
M  V30 9 1 9 10
M  V30 10 1 10 11
M  V30 11 2 11 12
M  V30 12 1 12 13
M  V30 13 1 13 14
M  V30 14 2 13 15
M  V30 15 1 15 16
M  V30 16 2 16 17
M  V30 17 1 16 18
M  V30 18 1 8 4
M  V30 19 1 17 11
M  V30 20 1 1 19
M  V30 21 1 1 20
M  V30 22 1 2 21
M  V30 23 1 3 22
M  V30 24 1 3 23
M  V30 25 1 5 24
M  V30 26 1 10 25
M  V30 27 1 10 26
M  V30 28 1 14 27
M  V30 29 1 14 28
M  V30 30 1 18 29
M  V30 31 1 18 30
M  V30 END BOND
M  V30 END CTAB
M  END
