
     RDKit          3D

  0  0  0  0  0  0  0  0  0  0999 V3000
M  V30 BEGIN CTAB
M  V30 COUNTS 19 19 0 0 0
M  V30 BEGIN ATOM
M  V30 1 C -2.82906 0.905152 0.168775 0
M  V30 2 C -1.4973 0.254381 0.0368303 0
M  V30 3 N -1.36879 -1.08236 -0.0494282 0
M  V30 4 C -0.15899 -1.69083 -0.170296 0
M  V30 5 N -0.0678389 -3.10626 -0.258422 0
M  V30 6 N 0.924747 -0.893474 -0.201094 0
M  V30 7 C 0.842787 0.448729 -0.117822 0
M  V30 8 C -0.385084 1.06817 0.00496199 0
M  V30 9 C 2.04115 1.28525 -0.154532 0
M  V30 10 S 2.01134 2.77286 -0.794687 0
M  V30 11 N 3.25187 0.800009 0.373759 0
M  V30 12 H -3.12196 1.42529 -0.781846 0
M  V30 13 H -2.88917 1.59319 1.02052 0
M  V30 14 H -3.61696 0.119038 0.307898 0
M  V30 15 H 0.792364 -3.6124 0.0390281 0
M  V30 16 H -0.854564 -3.68325 -0.621782 0
M  V30 17 H -0.450939 2.14665 0.0718785 0
M  V30 18 H 3.44457 0.899646 1.37773 0
M  V30 19 H 3.93183 0.350228 -0.251476 0
M  V30 END ATOM
M  V30 BEGIN BOND
M  V30 1 1 1 2
M  V30 2 2 2 3
M  V30 3 1 3 4
M  V30 4 1 4 5
M  V30 5 2 4 6
M  V30 6 1 6 7
M  V30 7 2 7 8
M  V30 8 1 7 9
M  V30 9 2 9 10
M  V30 10 1 9 11
M  V30 11 1 8 2
M  V30 12 1 1 12
M  V30 13 1 1 13
M  V30 14 1 1 14
M  V30 15 1 5 15
M  V30 16 1 5 16
M  V30 17 1 8 17
M  V30 18 1 11 18
M  V30 19 1 11 19
M  V30 END BOND
M  V30 END CTAB
M  END
