
     RDKit          3D

  0  0  0  0  0  0  0  0  0  0999 V3000
M  V30 BEGIN CTAB
M  V30 COUNTS 68 71 0 0 0
M  V30 BEGIN ATOM
M  V30 1 C -1.7449 3.39514 2.0795 0
M  V30 2 N -2.5518 2.25782 1.77876 0
M  V30 3 C -3.34841 1.64422 2.85306 0
M  V30 4 C -2.64229 1.66148 0.498098 0
M  V30 5 C -1.91701 2.20624 -0.535304 0
M  V30 6 C -1.97815 1.63321 -1.80094 0
M  V30 7 C -2.78217 0.500628 -2.01035 0
M  V30 8 C -3.50547 -0.0418606 -0.979125 0
M  V30 9 C -3.41356 0.559725 0.256602 0
M  V30 10 C -4.42969 -1.14552 -1.16944 0
M  V30 11 C -4.29328 -2.39081 -0.639076 0
M  V30 12 C -5.36191 -3.30362 -0.817961 0
M  V30 13 C -6.51044 -2.98646 -1.50242 0
M  V30 14 C -6.64036 -1.73213 -2.03989 0
M  V30 15 C -5.62754 -0.857428 -1.86892 0
M  V30 16 C -3.0613 -2.83776 -0.0103623 0
M  V30 17 O -2.07773 -1.9662 0.376291 0
M  V30 18 C -0.730539 -2.12361 -0.0474628 0
M  V30 19 N -0.378022 -3.14432 -0.845758 0
M  V30 20 C 0.899788 -3.31427 -1.2592 0
M  V30 21 N 1.28403 -4.39471 -2.09736 0
M  V30 22 N 1.83746 -2.44034 -0.861418 0
M  V30 23 C 1.56224 -1.40061 -0.067482 0
M  V30 24 C 0.253706 -1.24344 0.343655 0
M  V30 25 C 2.65796 -0.51918 0.312929 0
M  V30 26 C 3.94563 -0.754994 -0.147693 0
M  V30 27 C 5.01776 0.0352142 0.19282 0
M  V30 28 C 4.85556 1.13049 1.03279 0
M  V30 29 C 6.01438 1.99025 1.40534 0
M  V30 30 C 6.17666 3.14817 0.458694 0 CFG=2
M  V30 31 N 6.38906 2.68693 -0.896294 0
M  V30 32 C 7.30679 4.02459 0.860518 0
M  V30 33 O 8.34637 4.38338 0.00831823 0
M  V30 34 O 7.35634 4.48979 2.04162 0
M  V30 35 C 3.58336 1.37565 1.49634 0
M  V30 36 C 2.50343 0.571545 1.14708 0
M  V30 37 C -3.17121 -4.05543 0.904836 0
M  V30 38 F -1.89177 -4.29413 1.47265 0
M  V30 39 F -4.15741 -3.9701 1.8204 0
M  V30 40 F -3.35493 -5.2453 0.175234 0
M  V30 41 H -1.66164 4.15461 1.29941 0
M  V30 42 H -0.716642 3.0985 2.44572 0
M  V30 43 H -2.20094 3.9305 2.96571 0
M  V30 44 H -3.06479 2.06311 3.84939 0
M  V30 45 H -4.42794 1.82843 2.73471 0
M  V30 46 H -3.13699 0.547758 2.92579 0
M  V30 47 H -1.28685 3.09269 -0.382741 0
M  V30 48 H -1.39897 2.0835 -2.58855 0
M  V30 49 H -2.83684 0.0478448 -2.98916 0
M  V30 50 H -3.98593 0.125442 1.06485 0
M  V30 51 H -5.28348 -4.28878 -0.385414 0
M  V30 52 H -7.32582 -3.67471 -1.64236 0
M  V30 53 H -7.5223 -1.39678 -2.6023 0
M  V30 54 H -5.7111 0.143403 -2.2892 0
M  V30 55 H -2.53124 -3.38542 -0.943138 0
M  V30 56 H 2.0084 -5.08162 -1.80497 0
M  V30 57 H 0.843423 -4.52226 -3.02927 0
M  V30 58 H 0.00181046 -0.418519 0.977354 0
M  V30 59 H 4.06803 -1.6087 -0.801679 0
M  V30 60 H 6.01994 -0.147774 -0.165914 0
M  V30 61 H 6.97111 1.43558 1.46879 0
M  V30 62 H 5.86264 2.44839 2.42591 0
M  V30 63 H 5.27355 3.80742 0.453996 0
M  V30 64 H 6.80555 3.44509 -1.48423 0
M  V30 65 H 7.13323 1.92832 -0.850568 0
M  V30 66 H 8.69576 3.76758 -0.723599 0
M  V30 67 H 3.46947 2.23489 2.15153 0
M  V30 68 H 1.51792 0.809214 1.54125 0
M  V30 END ATOM
M  V30 BEGIN BOND
M  V30 1 1 1 2
M  V30 2 1 2 3
M  V30 3 1 2 4
M  V30 4 2 4 5
M  V30 5 1 5 6
M  V30 6 2 6 7
M  V30 7 1 7 8
M  V30 8 2 8 9
M  V30 9 1 8 10
M  V30 10 1 10 11
M  V30 11 2 11 12
M  V30 12 1 12 13
M  V30 13 2 13 14
M  V30 14 1 14 15
M  V30 15 1 11 16
M  V30 16 1 16 17
M  V30 17 1 17 18
M  V30 18 2 18 19
M  V30 19 1 19 20
M  V30 20 1 20 21
M  V30 21 2 20 22
M  V30 22 1 22 23
M  V30 23 2 23 24
M  V30 24 1 23 25
M  V30 25 2 25 26
M  V30 26 1 26 27
M  V30 27 2 27 28
M  V30 28 1 28 29
M  V30 29 1 29 30
M  V30 30 1 30 31
M  V30 31 1 30 32
M  V30 32 1 32 33
M  V30 33 2 32 34
M  V30 34 1 28 35
M  V30 35 2 35 36
M  V30 36 1 16 37
M  V30 37 1 37 38
M  V30 38 1 37 39
M  V30 39 1 37 40
M  V30 40 1 9 4
M  V30 41 2 15 10
M  V30 42 1 24 18
M  V30 43 1 36 25
M  V30 44 1 1 41
M  V30 45 1 1 42
M  V30 46 1 1 43
M  V30 47 1 3 44
M  V30 48 1 3 45
M  V30 49 1 3 46
M  V30 50 1 5 47
M  V30 51 1 6 48
M  V30 52 1 7 49
M  V30 53 1 9 50
M  V30 54 1 12 51
M  V30 55 1 13 52
M  V30 56 1 14 53
M  V30 57 1 15 54
M  V30 58 1 16 55
M  V30 59 1 21 56
M  V30 60 1 21 57
M  V30 61 1 24 58
M  V30 62 1 26 59
M  V30 63 1 27 60
M  V30 64 1 29 61
M  V30 65 1 29 62
M  V30 66 1 30 63 CFG=3
M  V30 67 1 31 64
M  V30 68 1 31 65
M  V30 69 1 33 66
M  V30 70 1 35 67
M  V30 71 1 36 68
M  V30 END BOND
M  V30 END CTAB
M  END
