
     RDKit          3D

  0  0  0  0  0  0  0  0  0  0999 V3000
M  V30 BEGIN CTAB
M  V30 COUNTS 49 52 0 0 0
M  V30 BEGIN ATOM
M  V30 1 N 3.14113 -4.07178 -0.410715 0
M  V30 2 C 3.80575 -3.13816 -0.37554 0
M  V30 3 C 4.65886 -1.97646 -0.308898 0
M  V30 4 C 6.03254 -2.18085 -0.48304 0
M  V30 5 C 6.89535 -1.11355 -0.401111 0
M  V30 6 C 6.41464 0.152139 -0.149211 0
M  V30 7 C 5.05817 0.309682 0.0150269 0
M  V30 8 C 4.14174 -0.727511 -0.0568768 0
M  V30 9 N 2.75711 -0.462661 0.0909857 0
M  V30 10 C 2.41334 0.549385 1.09566 0
M  V30 11 C 1.55083 1.6273 0.491057 0
M  V30 12 N 0.397445 0.931909 -0.0858788 0
M  V30 13 C 0.697526 0.011426 -1.14838 0
M  V30 14 C 1.69032 -1.05289 -0.648721 0
M  V30 15 C -0.889298 1.21094 0.431817 0
M  V30 16 C -2.04823 0.612511 -0.0344396 0
M  V30 17 C -3.28642 0.910352 0.495806 0
M  V30 18 N -3.33117 1.81159 1.49209 0
M  V30 19 C -2.23124 2.41723 1.97596 0
M  V30 20 N -1.05185 2.09521 1.42883 0
M  V30 21 N -2.26032 3.36455 3.02022 0
M  V30 22 C -4.5271 0.294479 0.0238209 0 CFG=2
M  V30 23 C -4.39967 -1.23372 0.105531 0
M  V30 24 C -5.26452 -1.25986 -1.15785 0 CFG=2
M  V30 25 C -4.65386 0.111746 -1.47366 0
M  V30 26 N -6.65604 -1.18468 -0.789735 0
M  V30 27 H 6.39264 -3.17587 -0.679352 0
M  V30 28 H 7.95751 -1.28748 -0.538222 0
M  V30 29 H 7.08574 0.980352 -0.0853941 0
M  V30 30 H 4.69907 1.3086 0.206508 0
M  V30 31 H 3.27709 0.997561 1.58177 0
M  V30 32 H 1.87044 -0.0225545 1.88473 0
M  V30 33 H 2.1562 2.12521 -0.296782 0
M  V30 34 H 1.22689 2.3143 1.29151 0
M  V30 35 H -0.16062 -0.489051 -1.5993 0
M  V30 36 H 1.29765 0.577469 -1.92326 0
M  V30 37 H 2.15063 -1.49521 -1.58351 0
M  V30 38 H 1.12061 -1.83726 -0.118292 0
M  V30 39 H -1.99548 -0.110263 -0.836133 0
M  V30 40 H -2.20024 4.37062 2.79626 0
M  V30 41 H -2.34096 3.0583 4.00225 0
M  V30 42 H -5.45243 0.597328 0.508413 0
M  V30 43 H -3.37149 -1.5201 -0.142465 0
M  V30 44 H -4.8574 -1.67585 0.989468 0
M  V30 45 H -4.98956 -2.04161 -1.88376 0
M  V30 46 H -3.69182 -0.048147 -1.97421 0
M  V30 47 H -5.37778 0.769885 -1.97702 0
M  V30 48 H -6.79688 -1.13754 0.25427 0
M  V30 49 H -7.05487 -0.267033 -1.14252 0
M  V30 END ATOM
M  V30 BEGIN BOND
M  V30 1 3 1 2
M  V30 2 1 2 3
M  V30 3 2 3 4
M  V30 4 1 4 5
M  V30 5 2 5 6
M  V30 6 1 6 7
M  V30 7 2 7 8
M  V30 8 1 8 9
M  V30 9 1 9 10
M  V30 10 1 10 11
M  V30 11 1 11 12
M  V30 12 1 12 13
M  V30 13 1 13 14
M  V30 14 1 12 15
M  V30 15 2 15 16
M  V30 16 1 16 17
M  V30 17 2 17 18
M  V30 18 1 18 19
M  V30 19 2 19 20
M  V30 20 1 19 21
M  V30 21 1 17 22
M  V30 22 1 22 23
M  V30 23 1 23 24
M  V30 24 1 24 25
M  V30 25 1 24 26
M  V30 26 1 8 3
M  V30 27 1 14 9
M  V30 28 1 20 15
M  V30 29 1 25 22
M  V30 30 1 4 27
M  V30 31 1 5 28
M  V30 32 1 6 29
M  V30 33 1 7 30
M  V30 34 1 10 31
M  V30 35 1 10 32
M  V30 36 1 11 33
M  V30 37 1 11 34
M  V30 38 1 13 35
M  V30 39 1 13 36
M  V30 40 1 14 37
M  V30 41 1 14 38
M  V30 42 1 16 39
M  V30 43 1 21 40
M  V30 44 1 21 41
M  V30 45 1 22 42 CFG=1
M  V30 46 1 23 43
M  V30 47 1 23 44
M  V30 48 1 24 45 CFG=3
M  V30 49 1 25 46
M  V30 50 1 25 47
M  V30 51 1 26 48
M  V30 52 1 26 49
M  V30 END BOND
M  V30 END CTAB
M  END
