
     RDKit          3D

  0  0  0  0  0  0  0  0  0  0999 V3000
M  V30 BEGIN CTAB
M  V30 COUNTS 23 24 0 0 0
M  V30 BEGIN ATOM
M  V30 1 N -2.94866 0.665915 2.52489 0
M  V30 2 C -2.41943 0.247412 1.25681 0
M  V30 3 N -3.2269 -0.1854 0.268889 0
M  V30 4 C -2.70795 -0.574198 -0.915651 0
M  V30 5 N -3.62294 -1.01902 -1.91064 0
M  V30 6 N -1.37966 -0.535605 -1.12751 0
M  V30 7 C -0.537568 -0.107418 -0.160468 0
M  V30 8 N -1.10597 0.267997 0.999366 0
M  V30 9 C 0.903461 -0.0614747 -0.379259 0
M  V30 10 C 1.52456 -0.436293 -1.55017 0
M  V30 11 O 2.83411 -0.271551 -1.41344 0
M  V30 12 C 3.1407 0.186391 -0.23729 0
M  V30 13 C 1.92726 0.331632 0.448729 0
M  V30 14 C 4.47733 0.510749 0.328443 0
M  V30 15 H -2.28223 1.09287 3.19733 0
M  V30 16 H -3.93993 0.536867 2.72834 0
M  V30 17 H -3.5666 -0.563319 -2.84896 0
M  V30 18 H -4.31047 -1.77426 -1.67583 0
M  V30 19 H 1.05925 -0.807822 -2.45267 0
M  V30 20 H 1.77491 0.688358 1.45834 0
M  V30 21 H 5.07258 1.09209 -0.401531 0
M  V30 22 H 4.3576 1.15215 1.22605 0
M  V30 23 H 4.97654 -0.436064 0.63622 0
M  V30 END ATOM
M  V30 BEGIN BOND
M  V30 1 1 1 2
M  V30 2 2 2 3
M  V30 3 1 3 4
M  V30 4 1 4 5
M  V30 5 2 4 6
M  V30 6 1 6 7
M  V30 7 2 7 8
M  V30 8 1 7 9
M  V30 9 2 9 10
M  V30 10 1 10 11
M  V30 11 1 11 12
M  V30 12 2 12 13
M  V30 13 1 12 14
M  V30 14 1 8 2
M  V30 15 1 13 9
M  V30 16 1 1 15
M  V30 17 1 1 16
M  V30 18 1 5 17
M  V30 19 1 5 18
M  V30 20 1 10 19
M  V30 21 1 13 20
M  V30 22 1 14 21
M  V30 23 1 14 22
M  V30 24 1 14 23
M  V30 END BOND
M  V30 END CTAB
M  END
