
     RDKit          3D

  0  0  0  0  0  0  0  0  0  0999 V3000
M  V30 BEGIN CTAB
M  V30 COUNTS 32 33 0 0 0
M  V30 BEGIN ATOM
M  V30 1 C 4.41454 0.0383262 0.132877 0
M  V30 2 C 3.0242 0.0533857 0.800504 0
M  V30 3 C 2.00225 0.0301173 -0.320891 0
M  V30 4 C 0.587065 -0.00933634 0.118281 0
M  V30 5 N -0.263485 0.959197 0.44677 0
M  V30 6 C -1.53514 0.460801 0.517886 0
M  V30 7 N -1.47332 -0.841524 0.248235 0
M  V30 8 C -0.197177 -1.16823 -0.0107442 0
M  V30 9 N 0.271987 -2.48587 -0.282435 0
M  V30 10 N -2.48875 -1.81755 0.287153 0
M  V30 11 C -2.80655 1.24899 0.72424 0
M  V30 12 C -3.80751 1.0933 -0.438555 0
M  V30 13 C -4.0986 0.672038 0.995296 0
M  V30 14 C 2.13402 1.54146 -0.871019 0
M  V30 15 H 4.67312 -1.05015 -0.0714451 0
M  V30 16 H 4.41237 0.496974 -0.874262 0
M  V30 17 H 5.18746 0.531831 0.710973 0
M  V30 18 H 2.94838 -0.867993 1.41464 0
M  V30 19 H 2.99 0.921459 1.46518 0
M  V30 20 H 2.27065 -0.555407 -1.19824 0
M  V30 21 H 1.042 -2.65069 -0.985125 0
M  V30 22 H -0.142219 -3.32097 0.150525 0
M  V30 23 H -2.96006 -2.18741 -0.532912 0
M  V30 24 H -2.78907 -2.20351 1.23971 0
M  V30 25 H -2.59019 2.32055 0.960536 0
M  V30 26 H -4.23251 2.03033 -0.838846 0
M  V30 27 H -3.65697 0.275379 -1.16029 0
M  V30 28 H -4.34632 -0.360891 1.21945 0
M  V30 29 H -4.87433 1.36695 1.4604 0
M  V30 30 H 1.1506 1.72726 -1.33022 0
M  V30 31 H 2.20614 2.13904 0.0730402 0
M  V30 32 H 2.94741 1.61214 -1.55512 0
M  V30 END ATOM
M  V30 BEGIN BOND
M  V30 1 1 1 2
M  V30 2 1 2 3
M  V30 3 1 3 4
M  V30 4 1 4 5
M  V30 5 2 5 6
M  V30 6 1 6 7
M  V30 7 1 7 8
M  V30 8 1 8 9
M  V30 9 1 7 10
M  V30 10 1 6 11
M  V30 11 1 11 12
M  V30 12 1 12 13
M  V30 13 1 3 14
M  V30 14 2 8 4
M  V30 15 1 13 11
M  V30 16 1 1 15
M  V30 17 1 1 16
M  V30 18 1 1 17
M  V30 19 1 2 18
M  V30 20 1 2 19
M  V30 21 1 3 20
M  V30 22 1 9 21
M  V30 23 1 9 22
M  V30 24 1 10 23
M  V30 25 1 10 24
M  V30 26 1 11 25
M  V30 27 1 12 26
M  V30 28 1 12 27
M  V30 29 1 13 28
M  V30 30 1 13 29
M  V30 31 1 14 30
M  V30 32 1 14 31
M  V30 33 1 14 32
M  V30 END BOND
M  V30 END CTAB
M  END
