
     RDKit          3D

  0  0  0  0  0  0  0  0  0  0999 V3000
M  V30 BEGIN CTAB
M  V30 COUNTS 94 98 0 0 0
M  V30 BEGIN ATOM
M  V30 1 C 8.57411 3.01421 1.32549 0
M  V30 2 C 7.68545 2.32073 2.3157 0
M  V30 3 O 7.56723 0.955898 1.89733 0
M  V30 4 C 8.71706 0.185527 1.80813 0
M  V30 5 O 9.82438 0.741263 2.10643 0
M  V30 6 C 8.70595 -1.20085 1.39641 0
M  V30 7 C 7.61343 -1.95596 1.04094 0
M  V30 8 N 6.27388 -1.50742 1.01193 0
M  V30 9 N 5.46087 -1.974 0.145654 0
M  V30 10 C 4.11446 -1.58177 0.0491472 0
M  V30 11 C 3.12087 -1.92833 0.935694 0
M  V30 12 N 3.22112 -2.73382 2.1126 0
M  V30 13 N 1.97836 -1.36994 0.51321 0
M  V30 14 N 2.24739 -0.705651 -0.586441 0
M  V30 15 C 3.53903 -0.80365 -0.912384 0
M  V30 16 C 4.2018 -0.184348 -2.08884 0
M  V30 17 C 3.1771 0.597979 -2.89128 0
M  V30 18 C 5.30731 0.704559 -1.61116 0
M  V30 19 C 4.75121 -1.26293 -3.02158 0
M  V30 20 C 0.680592 -1.43237 1.08275 0
M  V30 21 C -0.290388 -0.51349 0.769111 0
M  V30 22 C -1.55811 -0.565403 1.31851 0
M  V30 23 N -1.79493 -1.56889 2.18245 0
M  V30 24 C -0.83511 -2.47692 2.49226 0
M  V30 25 N 0.390138 -2.40758 1.94663 0
M  V30 26 N -2.54204 0.403857 0.97118 0
M  V30 27 N -2.38321 1.70302 0.780721 0
M  V30 28 C -3.53382 2.29059 0.466428 0
M  V30 29 C -4.49944 1.32917 0.449019 0
M  V30 30 N -5.89919 1.45115 0.16669 0
M  V30 31 N -6.59114 0.434928 -0.147781 0
M  V30 32 C -7.97866 0.593614 -0.42155 0
M  V30 33 C -8.70792 -0.360793 -1.09825 0
M  V30 34 C -9.9905 0.135102 -1.17248 0
M  V30 35 N -9.99781 1.34755 -0.552096 0
M  V30 36 N -8.78279 1.63123 -0.0951024 0
M  V30 37 C -8.35672 2.82105 0.624863 0
M  V30 38 C -8.2409 -1.64033 -1.63493 0
M  V30 39 O -9.03363 -2.41128 -2.23374 0
M  V30 40 O -6.92955 -2.0597 -1.51367 0
M  V30 41 C -6.49447 -3.32012 -2.04892 0
M  V30 42 C -7.33496 -4.38789 -1.34086 0
M  V30 43 C -3.86647 0.138801 0.768866 0
M  V30 44 N -4.46373 -1.13567 0.87342 0
M  V30 45 C -3.79751 3.74006 0.17176 0
M  V30 46 C -2.50901 4.53452 0.277462 0
M  V30 47 C -4.31921 3.92146 -1.24172 0
M  V30 48 C -4.78871 4.30648 1.14011 0
M  V30 49 N 8.02644 -3.20214 0.721684 0
M  V30 50 C 7.21766 -4.31119 0.295206 0
M  V30 51 N 9.34348 -3.24212 0.868705 0
M  V30 52 C 9.79144 -2.03951 1.27896 0
M  V30 53 H 9.58984 3.17917 1.78405 0
M  V30 54 H 8.19034 4.01178 1.06661 0
M  V30 55 H 8.75002 2.39167 0.402434 0
M  V30 56 H 6.70938 2.78807 2.44973 0
M  V30 57 H 8.18274 2.31549 3.32758 0
M  V30 58 H 3.00185 -3.74884 2.05895 0
M  V30 59 H 3.50738 -2.35186 3.03883 0
M  V30 60 H 2.76278 1.45447 -2.33015 0
M  V30 61 H 3.5524 0.889693 -3.8713 0
M  V30 62 H 2.3091 -0.107229 -3.03476 0
M  V30 63 H 5.12947 1.14982 -0.621241 0
M  V30 64 H 6.27457 0.131695 -1.58637 0
M  V30 65 H 5.4608 1.49024 -2.39476 0
M  V30 66 H 4.89229 -2.18117 -2.42556 0
M  V30 67 H 5.67921 -0.870298 -3.44295 0
M  V30 68 H 4.04681 -1.44021 -3.86838 0
M  V30 69 H -0.086583 0.303912 0.0608213 0
M  V30 70 H -1.07286 -3.27963 3.20262 0
M  V30 71 H -10.8413 -0.321462 -1.62475 0
M  V30 72 H -9.20086 3.45014 0.923061 0
M  V30 73 H -7.7907 2.54724 1.55738 0
M  V30 74 H -7.62639 3.37497 -0.0139898 0
M  V30 75 H -5.44695 -3.50675 -1.74298 0
M  V30 76 H -6.65236 -3.3364 -3.1322 0
M  V30 77 H -7.82429 -3.97582 -0.43479 0
M  V30 78 H -8.16295 -4.74518 -2.00147 0
M  V30 79 H -6.69228 -5.22579 -0.984243 0
M  V30 80 H -5.1976 -1.33304 1.58102 0
M  V30 81 H -4.18102 -1.9109 0.240682 0
M  V30 82 H -2.75463 5.5998 0.174374 0
M  V30 83 H -2.07833 4.37894 1.27802 0
M  V30 84 H -1.78439 4.19092 -0.507659 0
M  V30 85 H -4.52446 5.00587 -1.35571 0
M  V30 86 H -3.56635 3.57534 -1.9907 0
M  V30 87 H -5.26915 3.3996 -1.422 0
M  V30 88 H -4.27574 4.94514 1.88416 0
M  V30 89 H -5.32518 3.4984 1.66638 0
M  V30 90 H -5.56192 4.94212 0.63564 0
M  V30 91 H 6.23742 -4.34472 0.848057 0
M  V30 92 H 7.0579 -4.33602 -0.799332 0
M  V30 93 H 7.73375 -5.24981 0.572589 0
M  V30 94 H 10.8375 -1.76805 1.4856 0
M  V30 END ATOM
M  V30 BEGIN BOND
M  V30 1 1 1 2
M  V30 2 1 2 3
M  V30 3 1 3 4
M  V30 4 2 4 5
M  V30 5 1 4 6
M  V30 6 2 6 7
M  V30 7 1 7 8
M  V30 8 2 8 9 CFG=2
M  V30 9 1 9 10
M  V30 10 2 10 11
M  V30 11 1 11 12
M  V30 12 1 11 13
M  V30 13 1 13 14
M  V30 14 2 14 15
M  V30 15 1 15 16
M  V30 16 1 16 17
M  V30 17 1 16 18
M  V30 18 1 16 19
M  V30 19 1 13 20
M  V30 20 2 20 21
M  V30 21 1 21 22
M  V30 22 2 22 23
M  V30 23 1 23 24
M  V30 24 2 24 25
M  V30 25 1 22 26
M  V30 26 1 26 27
M  V30 27 2 27 28
M  V30 28 1 28 29
M  V30 29 1 29 30
M  V30 30 2 30 31 CFG=2
M  V30 31 1 31 32
M  V30 32 2 32 33
M  V30 33 1 33 34
M  V30 34 2 34 35
M  V30 35 1 35 36
M  V30 36 1 36 37
M  V30 37 1 33 38
M  V30 38 2 38 39
M  V30 39 1 38 40
M  V30 40 1 40 41
M  V30 41 1 41 42
M  V30 42 2 29 43
M  V30 43 1 43 44
M  V30 44 1 28 45
M  V30 45 1 45 46
M  V30 46 1 45 47
M  V30 47 1 45 48
M  V30 48 1 7 49
M  V30 49 1 49 50
M  V30 50 1 49 51
M  V30 51 2 51 52
M  V30 52 1 52 6
M  V30 53 1 15 10
M  V30 54 1 25 20
M  V30 55 1 43 26
M  V30 56 1 36 32
M  V30 57 1 1 53
M  V30 58 1 1 54
M  V30 59 1 1 55
M  V30 60 1 2 56
M  V30 61 1 2 57
M  V30 62 1 12 58
M  V30 63 1 12 59
M  V30 64 1 17 60
M  V30 65 1 17 61
M  V30 66 1 17 62
M  V30 67 1 18 63
M  V30 68 1 18 64
M  V30 69 1 18 65
M  V30 70 1 19 66
M  V30 71 1 19 67
M  V30 72 1 19 68
M  V30 73 1 21 69
M  V30 74 1 24 70
M  V30 75 1 34 71
M  V30 76 1 37 72
M  V30 77 1 37 73
M  V30 78 1 37 74
M  V30 79 1 41 75
M  V30 80 1 41 76
M  V30 81 1 42 77
M  V30 82 1 42 78
M  V30 83 1 42 79
M  V30 84 1 44 80
M  V30 85 1 44 81
M  V30 86 1 46 82
M  V30 87 1 46 83
M  V30 88 1 46 84
M  V30 89 1 47 85
M  V30 90 1 47 86
M  V30 91 1 47 87
M  V30 92 1 48 88
M  V30 93 1 48 89
M  V30 94 1 48 90
M  V30 95 1 50 91
M  V30 96 1 50 92
M  V30 97 1 50 93
M  V30 98 1 52 94
M  V30 END BOND
M  V30 END CTAB
M  END
