
     RDKit          3D

  0  0  0  0  0  0  0  0  0  0999 V3000
M  V30 BEGIN CTAB
M  V30 COUNTS 26 27 0 0 0
M  V30 BEGIN ATOM
M  V30 1 N -1.6604 2.29672 -0.177791 0
M  V30 2 C -2.06573 0.969844 0.140217 0
M  V30 3 C -1.48092 -0.172904 -0.311018 0
M  V30 4 C -0.314755 -0.358312 -1.20986 0
M  V30 5 C 0.987901 -0.122429 -0.537877 0
M  V30 6 C 1.62093 -1.12463 0.192425 0
M  V30 7 C 2.82863 -0.880564 0.797787 0
M  V30 8 C 3.47355 0.335511 0.724394 0
M  V30 9 F 4.67251 0.532717 1.34089 0
M  V30 10 C 2.85532 1.33481 0.00387777 0
M  V30 11 C 1.62595 1.08919 -0.613626 0
M  V30 12 C -2.20334 -1.22823 0.248195 0
M  V30 13 N -1.93204 -2.59851 0.040039 0
M  V30 14 N -3.17149 -0.693675 0.996357 0
M  V30 15 N -3.10328 0.611483 0.942494 0
M  V30 16 H -1.94042 2.71894 -1.07585 0
M  V30 17 H -1.09053 2.82499 0.493534 0
M  V30 18 H -0.323567 -1.37714 -1.63393 0
M  V30 19 H -0.341668 0.335111 -2.07398 0
M  V30 20 H 1.10616 -2.07853 0.24477 0
M  V30 21 H 3.31379 -1.66683 1.36432 0
M  V30 22 H 3.35056 2.29279 -0.0612783 0
M  V30 23 H 1.16502 1.90011 -1.18002 0
M  V30 24 H -1.34556 -3.12813 0.711928 0
M  V30 25 H -2.30249 -3.13902 -0.787238 0
M  V30 26 H -3.72412 1.32667 1.42124 0
M  V30 END ATOM
M  V30 BEGIN BOND
M  V30 1 1 1 2
M  V30 2 2 2 3
M  V30 3 1 3 4
M  V30 4 1 4 5
M  V30 5 2 5 6
M  V30 6 1 6 7
M  V30 7 2 7 8
M  V30 8 1 8 9
M  V30 9 1 8 10
M  V30 10 2 10 11
M  V30 11 1 3 12
M  V30 12 1 12 13
M  V30 13 2 12 14
M  V30 14 1 14 15
M  V30 15 1 15 2
M  V30 16 1 11 5
M  V30 17 1 1 16
M  V30 18 1 1 17
M  V30 19 1 4 18
M  V30 20 1 4 19
M  V30 21 1 6 20
M  V30 22 1 7 21
M  V30 23 1 10 22
M  V30 24 1 11 23
M  V30 25 1 13 24
M  V30 26 1 13 25
M  V30 27 1 15 26
M  V30 END BOND
M  V30 END CTAB
M  END
