
     RDKit          3D

  0  0  0  0  0  0  0  0  0  0999 V3000
M  V30 BEGIN CTAB
M  V30 COUNTS 65 68 0 0 0
M  V30 BEGIN ATOM
M  V30 1 C -1.35554 -0.940873 1.05911 0
M  V30 2 C -2.16479 -0.0094968 0.187709 0 CFG=1
M  V30 3 C -1.53627 0.0064871 -1.18787 0
M  V30 4 N -0.182981 0.457593 -1.19095 0
M  V30 5 N 0.872666 -0.30632 -1.05481 0
M  V30 6 C 2.01296 0.429328 -1.10241 0
M  V30 7 C 1.62552 1.72569 -1.28085 0
M  V30 8 C 2.32226 2.9246 -1.41699 0
M  V30 9 N 3.73943 2.97254 -1.39689 0
M  V30 10 N 1.58066 4.04331 -1.59394 0
M  V30 11 C 0.237757 4.01081 -1.63878 0
M  V30 12 N -0.443644 2.85733 -1.50986 0
M  V30 13 C 0.247072 1.726 -1.33328 0
M  V30 14 C 3.36827 -0.0709636 -1.00785 0
M  V30 15 C 4.19991 0.25432 0.024952 0
M  V30 16 C 5.4682 -0.262101 0.135894 0
M  V30 17 C 5.90834 -1.13745 -0.831142 0
M  V30 18 O 7.19051 -1.65013 -0.704431 0
M  V30 19 C 8.03328 -1.33213 0.338755 0
M  V30 20 C 7.99647 -2.11856 1.47002 0
M  V30 21 C 8.81429 -1.84097 2.52986 0
M  V30 22 C 9.68635 -0.786167 2.50364 0
M  V30 23 C 9.72674 0.00385484 1.3731 0
M  V30 24 C 8.90958 -0.26984 0.308745 0
M  V30 25 C 5.09523 -1.48857 -1.88789 0
M  V30 26 C 3.8152 -0.947068 -1.97108 0
M  V30 27 F 3.03458 -1.31651 -3.03234 0
M  V30 28 N -3.54717 -0.484728 0.0915118 0
M  V30 29 C -4.64578 0.27318 0.500007 0
M  V30 30 O -4.48381 1.42173 0.978952 0
M  V30 31 C -5.99869 -0.240966 0.383791 0
M  V30 32 C -7.05966 0.457603 0.763924 0
M  V30 33 C -8.43393 -0.0800082 0.639091 0
M  V30 34 C -9.39353 0.894388 1.33296 0
M  V30 35 C -8.88743 -0.203114 -0.791264 0
M  V30 36 N -8.6041 -1.34766 1.31418 0
M  V30 37 C -6.20904 -1.56819 -0.168137 0
M  V30 38 N -6.35701 -2.63069 -0.612651 0
M  V30 39 H -0.740221 -1.64179 0.46512 0
M  V30 40 H -2.03685 -1.59743 1.66992 0
M  V30 41 H -0.735991 -0.392868 1.80248 0
M  V30 42 H -2.22583 1.00943 0.623351 0
M  V30 43 H -1.67222 -0.949193 -1.72175 0
M  V30 44 H -2.13506 0.761128 -1.77741 0
M  V30 45 H 4.35763 2.55322 -2.12111 0
M  V30 46 H 4.20891 3.45976 -0.606166 0
M  V30 47 H -0.256375 4.97762 -1.78628 0
M  V30 48 H 3.85225 0.946792 0.809414 0
M  V30 49 H 6.12549 0.0161359 0.982027 0
M  V30 50 H 7.3089 -2.97518 1.53107 0
M  V30 51 H 8.79888 -2.45364 3.43609 0
M  V30 52 H 10.3295 -0.58651 3.36609 0
M  V30 53 H 10.4361 0.843662 1.37873 0
M  V30 54 H 8.95909 0.369142 -0.575512 0
M  V30 55 H 5.46997 -2.18226 -2.63613 0
M  V30 56 H -3.7098 -1.44539 -0.306504 0
M  V30 57 H -6.87929 1.4604 1.17876 0
M  V30 58 H -9.17081 1.89765 0.912332 0
M  V30 59 H -9.25179 0.849265 2.4302 0
M  V30 60 H -10.4417 0.659905 1.03937 0
M  V30 61 H -9.6468 0.576707 -1.05547 0
M  V30 62 H -8.0449 -0.127201 -1.47666 0
M  V30 63 H -9.41109 -1.17834 -0.956279 0
M  V30 64 H -9.29022 -1.9681 0.8328 0
M  V30 65 H -8.77961 -1.24409 2.3387 0
M  V30 END ATOM
M  V30 BEGIN BOND
M  V30 1 1 1 2
M  V30 2 1 2 3
M  V30 3 1 3 4
M  V30 4 1 4 5
M  V30 5 2 5 6
M  V30 6 1 6 7
M  V30 7 2 7 8
M  V30 8 1 8 9
M  V30 9 1 8 10
M  V30 10 2 10 11
M  V30 11 1 11 12
M  V30 12 2 12 13
M  V30 13 1 6 14
M  V30 14 2 14 15
M  V30 15 1 15 16
M  V30 16 2 16 17
M  V30 17 1 17 18
M  V30 18 1 18 19
M  V30 19 2 19 20
M  V30 20 1 20 21
M  V30 21 2 21 22
M  V30 22 1 22 23
M  V30 23 2 23 24
M  V30 24 1 17 25
M  V30 25 2 25 26
M  V30 26 1 26 27
M  V30 27 1 2 28
M  V30 28 1 28 29
M  V30 29 2 29 30
M  V30 30 1 29 31
M  V30 31 2 31 32
M  V30 32 1 32 33
M  V30 33 1 33 34
M  V30 34 1 33 35
M  V30 35 1 33 36
M  V30 36 1 31 37
M  V30 37 3 37 38
M  V30 38 1 13 4
M  V30 39 1 26 14
M  V30 40 1 13 7
M  V30 41 1 24 19
M  V30 42 1 1 39
M  V30 43 1 1 40
M  V30 44 1 1 41
M  V30 45 1 2 42 CFG=1
M  V30 46 1 3 43
M  V30 47 1 3 44
M  V30 48 1 9 45
M  V30 49 1 9 46
M  V30 50 1 11 47
M  V30 51 1 15 48
M  V30 52 1 16 49
M  V30 53 1 20 50
M  V30 54 1 21 51
M  V30 55 1 22 52
M  V30 56 1 23 53
M  V30 57 1 24 54
M  V30 58 1 25 55
M  V30 59 1 28 56
M  V30 60 1 32 57
M  V30 61 1 34 58
M  V30 62 1 34 59
M  V30 63 1 34 60
M  V30 64 1 35 61
M  V30 65 1 35 62
M  V30 66 1 35 63
M  V30 67 1 36 64
M  V30 68 1 36 65
M  V30 END BOND
M  V30 END CTAB
M  END
