
     RDKit          3D

  0  0  0  0  0  0  0  0  0  0999 V3000
M  V30 BEGIN CTAB
M  V30 COUNTS 27 28 0 0 0
M  V30 BEGIN ATOM
M  V30 1 O 4.24683 2.27618 1.47203 0
M  V30 2 N 3.1149 1.59448 1.09052 0
M  V30 3 C 3.13211 0.508324 0.408345 0
M  V30 4 C 1.89631 -0.171247 0.0324116 0
M  V30 5 C 1.78483 -1.33498 -0.693229 0
M  V30 6 N 0.474865 -1.62337 -0.820712 0
M  V30 7 N -0.263208 -0.707427 -0.215868 0
M  V30 8 C 0.592854 0.187762 0.310885 0
M  V30 9 N 0.22084 1.34271 1.05076 0
M  V30 10 C -1.70345 -0.676768 -0.137838 0
M  V30 11 C -2.34902 0.504881 -0.445206 0
M  V30 12 C -3.74342 0.583122 -0.383884 0
M  V30 13 C -4.50192 -0.508097 -0.0181789 0
M  V30 14 C -3.82712 -1.66568 0.28037 0
M  V30 15 C -2.44159 -1.75525 0.222903 0
M  V30 16 F -1.79604 -2.91965 0.525202 0
M  V30 17 N 4.38123 -0.0191402 0.0264349 0
M  V30 18 H 4.34696 3.22167 1.0785 0
M  V30 19 H 2.61331 -1.91886 -1.0934 0
M  V30 20 H -0.374865 1.20495 1.89447 0
M  V30 21 H 0.50184 2.31196 0.807954 0
M  V30 22 H -1.76645 1.38103 -0.737236 0
M  V30 23 H -4.20423 1.53608 -0.63538 0
M  V30 24 H -5.576 -0.396971 0.0141581 0
M  V30 25 H -4.42829 -2.52743 0.569309 0
M  V30 26 H 4.85333 0.322638 -0.820642 0
M  V30 27 H 4.8154 -0.750915 0.605892 0
M  V30 END ATOM
M  V30 BEGIN BOND
M  V30 1 1 1 2
M  V30 2 2 2 3
M  V30 3 1 3 4
M  V30 4 1 4 5
M  V30 5 2 5 6
M  V30 6 1 6 7
M  V30 7 1 7 8
M  V30 8 1 8 9
M  V30 9 1 7 10
M  V30 10 2 10 11
M  V30 11 1 11 12
M  V30 12 2 12 13
M  V30 13 1 13 14
M  V30 14 2 14 15
M  V30 15 1 15 16
M  V30 16 1 3 17
M  V30 17 2 8 4
M  V30 18 1 15 10
M  V30 19 1 1 18
M  V30 20 1 5 19
M  V30 21 1 9 20
M  V30 22 1 9 21
M  V30 23 1 11 22
M  V30 24 1 12 23
M  V30 25 1 13 24
M  V30 26 1 14 25
M  V30 27 1 17 26
M  V30 28 1 17 27
M  V30 END BOND
M  V30 END CTAB
M  END
