
     RDKit          3D

  0  0  0  0  0  0  0  0  0  0999 V3000
M  V30 BEGIN CTAB
M  V30 COUNTS 28 29 0 0 0
M  V30 BEGIN ATOM
M  V30 1 F 6.2535 1.13635 0.213195 0
M  V30 2 C 5.01128 0.585042 0.19872 0
M  V30 3 C 4.85246 -0.753865 0.446726 0
M  V30 4 C 3.58793 -1.28599 0.426254 0
M  V30 5 C 2.47459 -0.51503 0.164072 0
M  V30 6 C 2.6535 0.824159 -0.0820045 0
M  V30 7 C 3.91469 1.39065 -0.0686287 0
M  V30 8 C 1.16259 -1.19018 0.167079 0
M  V30 9 O 0.0974332 -0.312521 -0.111521 0
M  V30 10 N -1.16899 -0.846805 -0.131749 0
M  V30 11 C -2.21127 -0.0923966 -0.127776 0
M  V30 12 C -3.523 -0.721566 -0.150028 0
M  V30 13 N -3.84576 -2.01864 -0.175225 0
M  V30 14 O -5.13523 -2.1202 -0.188131 0
M  V30 15 N -5.68521 -0.937989 -0.172469 0
M  V30 16 C -4.71373 -0.023396 -0.148268 0
M  V30 17 N -4.8974 1.38569 -0.125496 0
M  V30 18 N -2.05225 1.30854 -0.102207 0
M  V30 19 H 5.70745 -1.35265 0.649398 0
M  V30 20 H 3.51719 -2.36036 0.630861 0
M  V30 21 H 1.75704 1.42383 -0.288962 0
M  V30 22 H 3.99736 2.44246 -0.267623 0
M  V30 23 H 1.17579 -1.98846 -0.596273 0
M  V30 24 H 0.992411 -1.58324 1.19686 0
M  V30 25 H -5.51118 1.85564 0.592 0
M  V30 26 H -4.44465 2.0357 -0.805582 0
M  V30 27 H -2.11506 1.90484 0.738182 0
M  V30 28 H -1.85149 1.81041 -1.00696 0
M  V30 END ATOM
M  V30 BEGIN BOND
M  V30 1 1 1 2
M  V30 2 2 2 3
M  V30 3 1 3 4
M  V30 4 2 4 5
M  V30 5 1 5 6
M  V30 6 2 6 7
M  V30 7 1 5 8
M  V30 8 1 8 9
M  V30 9 1 9 10
M  V30 10 2 10 11
M  V30 11 1 11 12
M  V30 12 2 12 13
M  V30 13 1 13 14
M  V30 14 1 14 15
M  V30 15 2 15 16
M  V30 16 1 16 17
M  V30 17 1 11 18
M  V30 18 1 7 2
M  V30 19 1 16 12
M  V30 20 1 3 19
M  V30 21 1 4 20
M  V30 22 1 6 21
M  V30 23 1 7 22
M  V30 24 1 8 23
M  V30 25 1 8 24
M  V30 26 1 17 25
M  V30 27 1 17 26
M  V30 28 1 18 27
M  V30 29 1 18 28
M  V30 END BOND
M  V30 END CTAB
M  END
