
     RDKit          3D

  0  0  0  0  0  0  0  0  0  0999 V3000
M  V30 BEGIN CTAB
M  V30 COUNTS 59 61 0 0 0
M  V30 BEGIN ATOM
M  V30 1 C -2.09343 0.686167 -2.17535 0
M  V30 2 C -2.07852 1.0437 -0.747529 0
M  V30 3 C -1.78727 -0.0300029 0.243669 0
M  V30 4 C -2.72862 -1.17887 0.231413 0
M  V30 5 C -4.14193 -0.750061 0.526354 0
M  V30 6 N -4.96508 -0.370506 -0.434786 0
M  V30 7 C -6.22188 0.0135768 -0.262078 0
M  V30 8 C -6.70419 0.0111445 1.0557 0
M  V30 9 N -5.89191 -0.369098 2.05001 0
M  V30 10 C -4.61552 -0.75354 1.83835 0
M  V30 11 N -7.97844 0.400881 1.21585 0
M  V30 12 C -8.76375 0.775665 0.198522 0
M  V30 13 N -10.1054 1.17213 0.402887 0
M  V30 14 N -8.3265 0.792125 -1.1002 0
M  V30 15 C -7.05493 0.403852 -1.27278 0
M  V30 16 N -6.53967 0.401756 -2.60415 0
M  V30 17 C -0.388178 -0.509735 0.255399 0
M  V30 18 C 0.205679 -1.10688 -0.837225 0
M  V30 19 C 1.55278 -1.52363 -0.779908 0
M  V30 20 C 2.26483 -1.33712 0.353534 0
M  V30 21 C 1.71439 -0.757067 1.44623 0
M  V30 22 C 0.391422 -0.342283 1.40157 0
M  V30 23 C 3.70192 -1.73188 0.395617 0
M  V30 24 O 3.84086 -2.89315 0.864849 0
M  V30 25 N 4.65389 -0.881109 -0.0357242 0
M  V30 26 C 5.64485 0.00440445 -0.484687 0
M  V30 27 C 6.77388 0.202008 0.436544 0
M  V30 28 C 7.86344 1.12547 0.0598423 0
M  V30 29 C 8.81255 1.1621 1.24547 0
M  V30 30 O 9.93805 1.969 1.20756 0
M  V30 31 O 8.60128 0.473233 2.26987 0
M  V30 32 C 5.99555 -0.171409 -1.90038 0
M  V30 33 O 7.23889 -0.133404 -2.44251 0
M  V30 34 O 5.00764 -0.385632 -2.70665 0
M  V30 35 H -1.11334 0.774424 -2.69565 0
M  V30 36 H -2.49565 -0.288475 -2.42923 0
M  V30 37 H -2.74435 1.42698 -2.73292 0
M  V30 38 H -3.00306 1.57961 -0.460111 0
M  V30 39 H -1.25397 1.80794 -0.614754 0
M  V30 40 H -1.95564 0.471637 1.25075 0
M  V30 41 H -2.68865 -1.79404 -0.674678 0
M  V30 42 H -2.45122 -1.84681 1.07818 0
M  V30 43 H -3.98151 -1.05381 2.63834 0
M  V30 44 H -10.3059 2.00342 0.98079 0
M  V30 45 H -10.8744 0.628156 -0.023528 0
M  V30 46 H -5.59277 0.682493 -2.87655 0
M  V30 47 H -7.22886 0.0745359 -3.34454 0
M  V30 48 H -0.344941 -1.27294 -1.74561 0
M  V30 49 H 1.94907 -1.98818 -1.69254 0
M  V30 50 H 2.23378 -0.579396 2.3817 0
M  V30 51 H -0.0700174 0.119452 2.25633 0
M  V30 52 H 5.60803 -1.81956 0.205957 0
M  V30 53 H 5.11881 1.06714 -0.473039 0
M  V30 54 H 7.23907 -0.79197 0.666659 0
M  V30 55 H 6.34128 0.565688 1.41002 0
M  V30 56 H 8.52434 0.790796 -0.770524 0
M  V30 57 H 7.50025 2.15731 -0.0416919 0
M  V30 58 H 10.0378 2.7703 0.600126 0
M  V30 59 H 7.73523 -0.896553 -2.88463 0
M  V30 END ATOM
M  V30 BEGIN BOND
M  V30 1 1 1 2
M  V30 2 1 2 3
M  V30 3 1 3 4
M  V30 4 1 4 5
M  V30 5 2 5 6
M  V30 6 1 6 7
M  V30 7 2 7 8
M  V30 8 1 8 9
M  V30 9 2 9 10
M  V30 10 1 8 11
M  V30 11 2 11 12
M  V30 12 1 12 13
M  V30 13 1 12 14
M  V30 14 2 14 15
M  V30 15 1 15 16
M  V30 16 1 3 17
M  V30 17 2 17 18
M  V30 18 1 18 19
M  V30 19 2 19 20
M  V30 20 1 20 21
M  V30 21 2 21 22
M  V30 22 1 20 23
M  V30 23 2 23 24
M  V30 24 1 23 25
M  V30 25 1 25 26
M  V30 26 1 26 27
M  V30 27 1 27 28
M  V30 28 1 28 29
M  V30 29 1 29 30
M  V30 30 2 29 31
M  V30 31 1 26 32
M  V30 32 1 32 33
M  V30 33 2 32 34
M  V30 34 1 10 5
M  V30 35 1 22 17
M  V30 36 1 15 7
M  V30 37 1 1 35
M  V30 38 1 1 36
M  V30 39 1 1 37
M  V30 40 1 2 38
M  V30 41 1 2 39
M  V30 42 1 3 40
M  V30 43 1 4 41
M  V30 44 1 4 42
M  V30 45 1 10 43
M  V30 46 1 13 44
M  V30 47 1 13 45
M  V30 48 1 16 46
M  V30 49 1 16 47
M  V30 50 1 18 48
M  V30 51 1 19 49
M  V30 52 1 21 50
M  V30 53 1 22 51
M  V30 54 1 25 52
M  V30 55 1 26 53
M  V30 56 1 27 54
M  V30 57 1 27 55
M  V30 58 1 28 56
M  V30 59 1 28 57
M  V30 60 1 30 58
M  V30 61 1 33 59
M  V30 END BOND
M  V30 END CTAB
M  END
