
     RDKit          3D

  0  0  0  0  0  0  0  0  0  0999 V3000
M  V30 BEGIN CTAB
M  V30 COUNTS 27 27 0 0 0
M  V30 BEGIN ATOM
M  V30 1 C 3.41753 -0.166049 0.0684058 0
M  V30 2 C 2.10605 0.500232 -0.267902 0
M  V30 3 N 1.07408 -0.481979 -0.278346 0
M  V30 4 C 0.746097 -1.04711 0.987997 0
M  V30 5 C -0.173053 0.0249439 1.58453 0
M  V30 6 C -1.06331 0.309667 0.393554 0
M  V30 7 C -0.189134 0.00884879 -0.775601 0
M  V30 8 N -1.50442 1.67057 0.477805 0
M  V30 9 C -2.25057 -0.63349 0.450592 0
M  V30 10 N -3.14711 -0.408706 -0.670306 0
M  V30 11 H 3.27559 -1.13658 0.547008 0
M  V30 12 H 4.05368 -0.274578 -0.847357 0
M  V30 13 H 4.0294 0.464642 0.768433 0
M  V30 14 H 1.93041 1.32862 0.448336 0
M  V30 15 H 2.20187 0.94778 -1.27662 0
M  V30 16 H 1.5748 -1.29412 1.64894 0
M  V30 17 H 0.0660107 -1.92282 0.794095 0
M  V30 18 H -0.735334 -0.337176 2.44712 0
M  V30 19 H 0.40587 0.927511 1.87142 0
M  V30 20 H -0.645457 -0.827513 -1.35759 0
M  V30 21 H -0.0893091 0.858551 -1.48233 0
M  V30 22 H -0.673949 2.3012 0.582702 0
M  V30 23 H -2.12556 1.95408 -0.316381 0
M  V30 24 H -1.93048 -1.69475 0.414661 0
M  V30 25 H -2.83938 -0.472667 1.37609 0
M  V30 26 H -3.90991 -1.11933 -0.624869 0
M  V30 27 H -3.60442 0.52023 -0.630941 0
M  V30 END ATOM
M  V30 BEGIN BOND
M  V30 1 1 1 2
M  V30 2 1 2 3
M  V30 3 1 3 4
M  V30 4 1 4 5
M  V30 5 1 5 6
M  V30 6 1 6 7
M  V30 7 1 6 8
M  V30 8 1 6 9
M  V30 9 1 9 10
M  V30 10 1 7 3
M  V30 11 1 1 11
M  V30 12 1 1 12
M  V30 13 1 1 13
M  V30 14 1 2 14
M  V30 15 1 2 15
M  V30 16 1 4 16
M  V30 17 1 4 17
M  V30 18 1 5 18
M  V30 19 1 5 19
M  V30 20 1 7 20
M  V30 21 1 7 21
M  V30 22 1 8 22
M  V30 23 1 8 23
M  V30 24 1 9 24
M  V30 25 1 9 25
M  V30 26 1 10 26
M  V30 27 1 10 27
M  V30 END BOND
M  V30 END CTAB
M  END
