
     RDKit          3D

  0  0  0  0  0  0  0  0  0  0999 V3000
M  V30 BEGIN CTAB
M  V30 COUNTS 32 33 0 0 0
M  V30 BEGIN ATOM
M  V30 1 C 4.15713 0.726631 -0.927926 0
M  V30 2 C 3.48293 -0.143315 0.0866 0
M  V30 3 C 2.00681 -0.0565311 0.0487119 0
M  V30 4 C 1.30194 -0.990753 0.766639 0
M  V30 5 C -0.100724 -0.949039 0.760643 0
M  V30 6 C -0.827964 -0.0127277 0.0690762 0
M  V30 7 C -0.0805641 0.912099 -0.642254 0
M  V30 8 C 1.3136 0.88597 -0.649436 0
M  V30 9 C -2.29266 0.106562 0.113852 0
M  V30 10 C -3.06335 0.797653 -0.827205 0
M  V30 11 N -2.65173 1.42147 -2.03014 0
M  V30 12 C -4.39724 0.752741 -0.402719 0
M  V30 13 N -4.40684 0.0720822 0.724379 0
M  V30 14 N -3.15604 -0.322601 1.05012 0
M  V30 15 C -2.85999 -1.06761 2.27114 0
M  V30 16 N 3.83568 -1.53778 -0.0954372 0
M  V30 17 H 5.251 0.641805 -0.763078 0
M  V30 18 H 3.89594 1.77782 -0.874275 0
M  V30 19 H 3.98601 0.302075 -1.95801 0
M  V30 20 H 3.80483 0.144889 1.10827 0
M  V30 21 H 1.7818 -1.7673 1.3441 0
M  V30 22 H -0.599018 -1.71808 1.30659 0
M  V30 23 H -0.524101 1.71291 -1.20896 0
M  V30 24 H 1.89115 1.61299 -1.20947 0
M  V30 25 H -2.84338 2.41931 -2.1871 0
M  V30 26 H -2.15658 0.881891 -2.75922 0
M  V30 27 H -5.21826 1.22033 -0.959607 0
M  V30 28 H -1.99171 -0.631667 2.76475 0
M  V30 29 H -3.75327 -0.955855 2.96058 0
M  V30 30 H -2.7179 -2.13753 2.08864 0
M  V30 31 H 3.76922 -2.08327 0.796194 0
M  V30 32 H 3.1633 -2.01516 -0.765447 0
M  V30 END ATOM
M  V30 BEGIN BOND
M  V30 1 1 1 2
M  V30 2 1 2 3
M  V30 3 2 3 4
M  V30 4 1 4 5
M  V30 5 2 5 6
M  V30 6 1 6 7
M  V30 7 2 7 8
M  V30 8 1 6 9
M  V30 9 2 9 10
M  V30 10 1 10 11
M  V30 11 1 10 12
M  V30 12 2 12 13
M  V30 13 1 13 14
M  V30 14 1 14 15
M  V30 15 1 2 16
M  V30 16 1 8 3
M  V30 17 1 14 9
M  V30 18 1 1 17
M  V30 19 1 1 18
M  V30 20 1 1 19
M  V30 21 1 2 20
M  V30 22 1 4 21
M  V30 23 1 5 22
M  V30 24 1 7 23
M  V30 25 1 8 24
M  V30 26 1 11 25
M  V30 27 1 11 26
M  V30 28 1 12 27
M  V30 29 1 15 28
M  V30 30 1 15 29
M  V30 31 1 15 30
M  V30 32 1 16 31
M  V30 33 1 16 32
M  V30 END BOND
M  V30 END CTAB
M  END
