
     RDKit          3D

  0  0  0  0  0  0  0  0  0  0999 V3000
M  V30 BEGIN CTAB
M  V30 COUNTS 23 24 0 0 0
M  V30 BEGIN ATOM
M  V30 1 N -4.44047 -0.47775 0.754499 0
M  V30 2 C -3.06821 -0.227054 0.539497 0
M  V30 3 C -2.178 -1.24245 0.778271 0
M  V30 4 C -0.812818 -1.0118 0.570403 0
M  V30 5 C -0.352694 0.210013 0.133003 0
M  V30 6 C -1.26452 1.2134 -0.0997951 0
M  V30 7 C -2.60841 0.985077 0.105234 0
M  V30 8 C 1.07589 0.413162 -0.072246 0
M  V30 9 N 1.65238 1.56779 -0.499504 0
M  V30 10 N 2.95989 1.3881 -0.56992 0
M  V30 11 C 3.2973 0.14582 -0.20406 0
M  V30 12 C 2.101 -0.480683 0.114342 0
M  V30 13 N 4.5792 -0.455263 -0.136652 0
M  V30 14 H -4.81902 -1.45291 0.747572 0
M  V30 15 H -5.1495 0.277052 0.930244 0
M  V30 16 H -2.47672 -2.22865 1.12419 0
M  V30 17 H -0.0842257 -1.79208 0.74951 0
M  V30 18 H -0.886853 2.16487 -0.442318 0
M  V30 19 H -3.32474 1.7991 -0.0859227 0
M  V30 20 H 3.68012 2.09888 -0.868733 0
M  V30 21 H 1.9883 -1.51895 0.458788 0
M  V30 22 H 4.93538 -0.735679 0.799311 0
M  V30 23 H 5.19673 -0.639991 -0.952051 0
M  V30 END ATOM
M  V30 BEGIN BOND
M  V30 1 1 1 2
M  V30 2 2 2 3
M  V30 3 1 3 4
M  V30 4 2 4 5
M  V30 5 1 5 6
M  V30 6 2 6 7
M  V30 7 1 5 8
M  V30 8 2 8 9
M  V30 9 1 9 10
M  V30 10 1 10 11
M  V30 11 2 11 12
M  V30 12 1 11 13
M  V30 13 1 7 2
M  V30 14 1 12 8
M  V30 15 1 1 14
M  V30 16 1 1 15
M  V30 17 1 3 16
M  V30 18 1 4 17
M  V30 19 1 6 18
M  V30 20 1 7 19
M  V30 21 1 10 20
M  V30 22 1 12 21
M  V30 23 1 13 22
M  V30 24 1 13 23
M  V30 END BOND
M  V30 END CTAB
M  END
