
     RDKit          3D

  0  0  0  0  0  0  0  0  0  0999 V3000
M  V30 BEGIN CTAB
M  V30 COUNTS 27 27 0 0 0
M  V30 BEGIN ATOM
M  V30 1 N 3.37202 0.647756 0.836466 0
M  V30 2 C 3.05217 0.199495 -0.51707 0
M  V30 3 C 1.57967 0.363042 -0.767124 0
M  V30 4 N 0.761631 -0.393861 0.144241 0
M  V30 5 C -0.643118 -0.333382 0.0241114 0
M  V30 6 C -1.30855 -1.24754 -0.796824 0
M  V30 7 N -0.544349 -2.21773 -1.49105 0
M  V30 8 C -2.68756 -1.14282 -0.877993 0
M  V30 9 C -3.38655 -0.180415 -0.182245 0
M  V30 10 C -2.71825 0.717003 0.625471 0
M  V30 11 C -1.34899 0.626442 0.716945 0
M  V30 12 C -0.609848 1.57669 1.57603 0
M  V30 13 Cl -3.54265 1.96227 1.53535 0
M  V30 14 H 4.13331 0.00848876 1.18147 0
M  V30 15 H 2.56664 0.565655 1.48151 0
M  V30 16 H 3.58195 0.900533 -1.19737 0
M  V30 17 H 3.39114 -0.846303 -0.671564 0
M  V30 18 H 1.37947 0.0281541 -1.82262 0
M  V30 19 H 1.36317 1.44666 -0.759171 0
M  V30 20 H 1.21672 -0.973004 0.876361 0
M  V30 21 H -0.8174 -2.46542 -2.46389 0
M  V30 22 H 0.283141 -2.71262 -1.1014 0
M  V30 23 H -3.20764 -1.8615 -1.52302 0
M  V30 24 H -4.47758 -0.138007 -0.279245 0
M  V30 25 H -1.29466 1.86584 2.40276 0
M  V30 26 H -0.371162 2.4838 0.996655 0
M  V30 27 H 0.277289 1.12075 2.05322 0
M  V30 END ATOM
M  V30 BEGIN BOND
M  V30 1 1 1 2
M  V30 2 1 2 3
M  V30 3 1 3 4
M  V30 4 1 4 5
M  V30 5 2 5 6
M  V30 6 1 6 7
M  V30 7 1 6 8
M  V30 8 2 8 9
M  V30 9 1 9 10
M  V30 10 2 10 11
M  V30 11 1 11 12
M  V30 12 1 10 13
M  V30 13 1 11 5
M  V30 14 1 1 14
M  V30 15 1 1 15
M  V30 16 1 2 16
M  V30 17 1 2 17
M  V30 18 1 3 18
M  V30 19 1 3 19
M  V30 20 1 4 20
M  V30 21 1 7 21
M  V30 22 1 7 22
M  V30 23 1 8 23
M  V30 24 1 9 24
M  V30 25 1 12 25
M  V30 26 1 12 26
M  V30 27 1 12 27
M  V30 END BOND
M  V30 END CTAB
M  END
