
     RDKit          3D

  0  0  0  0  0  0  0  0  0  0999 V3000
M  V30 BEGIN CTAB
M  V30 COUNTS 41 42 0 0 0
M  V30 BEGIN ATOM
M  V30 1 N -3.76786 1.92289 -0.335835 0
M  V30 2 C -3.78716 0.56985 0.202436 0
M  V30 3 C -3.44572 -0.396192 -0.860157 0
M  V30 4 C -2.19917 -1.18206 -0.648463 0
M  V30 5 C -1.13892 -0.229914 -0.0984235 0
M  V30 6 C 0.157376 -0.968759 -0.0971154 0
M  V30 7 C 1.31813 -0.177539 0.416498 0
M  V30 8 C 1.60714 1.06413 -0.356519 0
M  V30 9 C 3.05546 1.46225 -0.348881 0
M  V30 10 C 3.79999 0.990729 0.860973 0
M  V30 11 C 3.62022 -0.462413 1.15897 0
M  V30 12 C 2.55463 -1.07825 0.301756 0
M  V30 13 N 2.18092 -2.39206 0.731751 0
M  V30 14 C -1.57484 0.0778083 1.31607 0
M  V30 15 C -2.97763 0.501618 1.4495 0
M  V30 16 H -4.6657 2.40918 -0.267501 0
M  V30 17 H -2.93918 2.45858 -0.0666914 0
M  V30 18 H -4.8635 0.388308 0.49943 0
M  V30 19 H -3.33819 0.128639 -1.8556 0
M  V30 20 H -4.27535 -1.14053 -1.04951 0
M  V30 21 H -1.88233 -1.63625 -1.6062 0
M  V30 22 H -2.34345 -1.95223 0.158199 0
M  V30 23 H -1.12765 0.698205 -0.68729 0
M  V30 24 H 0.0424484 -1.85837 0.558756 0
M  V30 25 H 0.387286 -1.33121 -1.12373 0
M  V30 26 H 1.20855 0.0619115 1.48559 0
M  V30 27 H 1.31036 0.978702 -1.44296 0
M  V30 28 H 0.993192 1.92313 0.0237576 0
M  V30 29 H 3.124 2.57535 -0.369677 0
M  V30 30 H 3.58091 1.06834 -1.25065 0
M  V30 31 H 3.60347 1.61964 1.76882 0
M  V30 32 H 4.89568 1.14904 0.646304 0
M  V30 33 H 3.3871 -0.623815 2.25075 0
M  V30 34 H 4.55454 -1.06343 0.992143 0
M  V30 35 H 2.94568 -1.05959 -0.755875 0
M  V30 36 H 1.84813 -3.01417 -0.0253413 0
M  V30 37 H 2.84082 -2.83031 1.39528 0
M  V30 38 H -1.37514 -0.86594 1.90537 0
M  V30 39 H -0.838819 0.814437 1.72734 0
M  V30 40 H -3.48694 -0.136162 2.21254 0
M  V30 41 H -2.98848 1.53644 1.90555 0
M  V30 END ATOM
M  V30 BEGIN BOND
M  V30 1 1 1 2
M  V30 2 1 2 3
M  V30 3 1 3 4
M  V30 4 1 4 5
M  V30 5 1 5 6
M  V30 6 1 6 7
M  V30 7 1 7 8
M  V30 8 1 8 9
M  V30 9 1 9 10
M  V30 10 1 10 11
M  V30 11 1 11 12
M  V30 12 1 12 13
M  V30 13 1 5 14
M  V30 14 1 14 15
M  V30 15 1 15 2
M  V30 16 1 12 7
M  V30 17 1 1 16
M  V30 18 1 1 17
M  V30 19 1 2 18
M  V30 20 1 3 19
M  V30 21 1 3 20
M  V30 22 1 4 21
M  V30 23 1 4 22
M  V30 24 1 5 23
M  V30 25 1 6 24
M  V30 26 1 6 25
M  V30 27 1 7 26
M  V30 28 1 8 27
M  V30 29 1 8 28
M  V30 30 1 9 29
M  V30 31 1 9 30
M  V30 32 1 10 31
M  V30 33 1 10 32
M  V30 34 1 11 33
M  V30 35 1 11 34
M  V30 36 1 12 35
M  V30 37 1 13 36
M  V30 38 1 13 37
M  V30 39 1 14 38
M  V30 40 1 14 39
M  V30 41 1 15 40
M  V30 42 1 15 41
M  V30 END BOND
M  V30 END CTAB
M  END
