
     RDKit          3D

  0  0  0  0  0  0  0  0  0  0999 V3000
M  V30 BEGIN CTAB
M  V30 COUNTS 82 82 0 0 0
M  V30 BEGIN ATOM
M  V30 1 N 9.07941 1.20017 1.63691 0
M  V30 2 C 8.85545 0.176062 0.712391 0
M  V30 3 C 7.61534 0.518738 -0.158131 0
M  V30 4 C 6.42772 0.662257 0.718154 0
M  V30 5 C 5.17374 1.06218 0.0562243 0
M  V30 6 C 4.69502 0.120671 -1.01012 0 CFG=1
M  V30 7 C 3.38653 0.598932 -1.55623 0
M  V30 8 O 3.40029 1.3657 -2.54572 0
M  V30 9 N 2.18952 0.169886 -0.939723 0
M  V30 10 C 2.2375 -0.748904 0.155993 0
M  V30 11 C 2.00949 -2.18625 -0.291703 0
M  V30 12 C 1.58969 -3.05543 0.873455 0
M  V30 13 C 0.206349 -3.6316 0.684071 0
M  V30 14 O -0.68813 -3.11321 1.63666 0
M  V30 15 C -1.97412 -3.3927 1.26467 0
M  V30 16 C -2.77728 -2.17707 0.853615 0 CFG=2
M  V30 17 C -2.61202 -1.04267 1.82611 0 CFG=2
M  V30 18 C -2.92384 0.307016 1.21439 0 CFG=1
M  V30 19 C -1.71917 1.10895 0.851815 0
M  V30 20 N -1.28034 1.03921 -0.498778 0
M  V30 21 C -0.296204 0.0623724 -1.00104 0
M  V30 22 C 0.952742 0.70329 -1.46008 0
M  V30 23 C -1.78585 1.95232 -1.45448 0
M  V30 24 O -2.61104 2.82592 -1.09278 0
M  V30 25 C -1.40049 1.94954 -2.88774 0
M  V30 26 O -3.89686 0.220672 0.235028 0
M  V30 27 C -5.10697 0.840781 0.625286 0
M  V30 28 C -6.14686 0.738152 -0.443108 0
M  V30 29 C -7.40063 1.43624 0.0856136 0
M  V30 30 C -8.45056 1.33571 -0.987274 0
M  V30 31 C -7.10336 2.87516 0.443246 0
M  V30 32 O -1.35958 -0.968666 2.40842 0
M  V30 33 O -4.13003 -2.60093 0.878799 0
M  V30 34 N 5.66908 0.267988 -2.11262 0
M  V30 35 H 9.06407 2.13682 1.26672 0
M  V30 36 H 8.6941 1.11319 2.55313 0
M  V30 37 H 9.71427 0.108366 0.00605677 0
M  V30 38 H 8.67582 -0.787485 1.19686 0
M  V30 39 H 7.86954 1.38987 -0.760538 0
M  V30 40 H 7.55836 -0.391949 -0.823358 0
M  V30 41 H 6.24344 -0.348306 1.20876 0
M  V30 42 H 6.67168 1.36085 1.57917 0
M  V30 43 H 4.39726 1.23432 0.860668 0
M  V30 44 H 5.3083 2.07716 -0.435381 0
M  V30 45 H 4.71747 -0.89503 -0.662185 0
M  V30 46 H 3.23225 -0.746855 0.693234 0
M  V30 47 H 1.50712 -0.535873 0.951962 0
M  V30 48 H 3.00041 -2.58323 -0.644896 0
M  V30 49 H 1.312 -2.26401 -1.14226 0
M  V30 50 H 2.34159 -3.86817 1.08048 0
M  V30 51 H 1.60463 -2.41866 1.78119 0
M  V30 52 H 0.242362 -4.71672 0.798083 0
M  V30 53 H -0.150293 -3.28235 -0.307618 0
M  V30 54 H -1.96868 -4.10497 0.403126 0
M  V30 55 H -2.52508 -3.91777 2.07368 0
M  V30 56 H -2.5727 -1.93506 -0.18689 0
M  V30 57 H -3.33654 -1.21558 2.64844 0
M  V30 58 H -3.40443 0.88956 2.06259 0
M  V30 59 H -0.894954 0.799564 1.52861 0
M  V30 60 H -1.86146 2.20781 1.08416 0
M  V30 61 H -0.834373 -0.495085 -1.80216 0
M  V30 62 H -0.126451 -0.623439 -0.180082 0
M  V30 63 H 0.947452 1.82045 -1.28344 0
M  V30 64 H 0.943553 0.643998 -2.59447 0
M  V30 65 H -2.23503 2.39119 -3.48519 0
M  V30 66 H -0.468659 2.51022 -3.09134 0
M  V30 67 H -1.34877 0.881014 -3.21268 0
M  V30 68 H -4.9462 1.86867 0.987178 0
M  V30 69 H -5.45401 0.251922 1.50773 0
M  V30 70 H -5.86051 1.17402 -1.39943 0
M  V30 71 H -6.44232 -0.319821 -0.599982 0
M  V30 72 H -7.74304 0.896211 1.00968 0
M  V30 73 H -8.90937 0.324076 -0.932295 0
M  V30 74 H -9.2314 2.11851 -0.845624 0
M  V30 75 H -7.94018 1.4201 -1.9615 0
M  V30 76 H -6.76202 2.97553 1.50257 0
M  V30 77 H -6.3353 3.23292 -0.280924 0
M  V30 78 H -8.02198 3.46374 0.289133 0
M  V30 79 H -1.33319 -1.40682 3.29912 0
M  V30 80 H -4.2815 -3.31792 0.221543 0
M  V30 81 H 5.34321 0.935613 -2.82403 0
M  V30 82 H 5.77501 -0.671047 -2.55797 0
M  V30 END ATOM
M  V30 BEGIN BOND
M  V30 1 1 1 2
M  V30 2 1 2 3
M  V30 3 1 3 4
M  V30 4 1 4 5
M  V30 5 1 5 6
M  V30 6 1 6 7
M  V30 7 2 7 8
M  V30 8 1 7 9
M  V30 9 1 9 10
M  V30 10 1 10 11
M  V30 11 1 11 12
M  V30 12 1 12 13
M  V30 13 1 13 14
M  V30 14 1 14 15
M  V30 15 1 15 16
M  V30 16 1 16 17
M  V30 17 1 17 18
M  V30 18 1 18 19
M  V30 19 1 19 20
M  V30 20 1 20 21
M  V30 21 1 21 22
M  V30 22 1 20 23
M  V30 23 2 23 24
M  V30 24 1 23 25
M  V30 25 1 18 26
M  V30 26 1 26 27
M  V30 27 1 27 28
M  V30 28 1 28 29
M  V30 29 1 29 30
M  V30 30 1 29 31
M  V30 31 1 17 32
M  V30 32 1 16 33
M  V30 33 1 6 34
M  V30 34 1 22 9
M  V30 35 1 1 35
M  V30 36 1 1 36
M  V30 37 1 2 37
M  V30 38 1 2 38
M  V30 39 1 3 39
M  V30 40 1 3 40
M  V30 41 1 4 41
M  V30 42 1 4 42
M  V30 43 1 5 43
M  V30 44 1 5 44
M  V30 45 1 6 45 CFG=1
M  V30 46 1 10 46
M  V30 47 1 10 47
M  V30 48 1 11 48
M  V30 49 1 11 49
M  V30 50 1 12 50
M  V30 51 1 12 51
M  V30 52 1 13 52
M  V30 53 1 13 53
M  V30 54 1 15 54
M  V30 55 1 15 55
M  V30 56 1 16 56 CFG=3
M  V30 57 1 17 57 CFG=1
M  V30 58 1 18 58 CFG=1
M  V30 59 1 19 59
M  V30 60 1 19 60
M  V30 61 1 21 61
M  V30 62 1 21 62
M  V30 63 1 22 63
M  V30 64 1 22 64
M  V30 65 1 25 65
M  V30 66 1 25 66
M  V30 67 1 25 67
M  V30 68 1 27 68
M  V30 69 1 27 69
M  V30 70 1 28 70
M  V30 71 1 28 71
M  V30 72 1 29 72
M  V30 73 1 30 73
M  V30 74 1 30 74
M  V30 75 1 30 75
M  V30 76 1 31 76
M  V30 77 1 31 77
M  V30 78 1 31 78
M  V30 79 1 32 79
M  V30 80 1 33 80
M  V30 81 1 34 81
M  V30 82 1 34 82
M  V30 END BOND
M  V30 END CTAB
M  END
