
     RDKit          3D

  0  0  0  0  0  0  0  0  0  0999 V3000
M  V30 BEGIN CTAB
M  V30 COUNTS 54 57 0 0 0
M  V30 BEGIN ATOM
M  V30 1 N -6.1375 -1.70322 -3.29693 0
M  V30 2 C -5.02347 -1.20448 -2.55239 0
M  V30 3 C -4.09488 -0.369491 -3.13632 0
M  V30 4 C -3.03469 0.0788689 -2.34904 0
M  V30 5 C -2.89524 -0.280058 -1.04677 0
M  V30 6 C -3.83294 -1.11917 -0.46883 0
M  V30 7 C -4.87918 -1.5659 -1.2293 0
M  V30 8 N -1.79727 0.221086 -0.260439 0
M  V30 9 C -0.48058 -0.16082 -0.519301 0
M  V30 10 O -0.320735 -1.06101 -1.41365 0
M  V30 11 C 0.653598 0.39164 0.147958 0
M  V30 12 O 0.434452 1.40892 0.911919 0
M  V30 13 N 1.95424 -0.113994 0.0105235 0
M  V30 14 C 3.02251 0.54961 0.709291 0
M  V30 15 C 3.03258 0.474113 2.08668 0
M  V30 16 C 4.05383 1.12288 2.74264 0
M  V30 17 C 5.02626 1.81707 2.08003 0
M  V30 18 C 4.99962 1.88219 0.708067 0
M  V30 19 C 3.98043 1.23749 0.00129918 0
M  V30 20 N 6.043 2.45896 2.81177 0
M  V30 21 C 2.23136 -1.26547 -0.753236 0
M  V30 22 C 2.01571 -2.5029 -0.107421 0
M  V30 23 C 2.27534 -3.66781 -0.755305 0
M  V30 24 C 2.74675 -3.63504 -2.04069 0
M  V30 25 C 2.96508 -2.43792 -2.69363 0
M  V30 26 C 2.70178 -1.25743 -2.03312 0
M  V30 27 C -2.15214 1.08308 0.836128 0
M  V30 28 C -2.58108 2.38014 0.643018 0
M  V30 29 C -2.95793 3.13966 1.74986 0
M  V30 30 C -2.91419 2.63499 3.03274 0
M  V30 31 C -2.48004 1.32527 3.2206 0
M  V30 32 C -2.11103 0.581818 2.13432 0
M  V30 33 H -6.82934 -1.01378 -3.64528 0
M  V30 34 H -6.27721 -2.72895 -3.4956 0
M  V30 35 H -4.20794 -0.091556 -4.16005 0
M  V30 36 H -2.32885 0.746972 -2.84958 0
M  V30 37 H -3.68907 -1.38055 0.569802 0
M  V30 38 H -5.60995 -2.23071 -0.740606 0
M  V30 39 H 2.25507 -0.0812629 2.59018 0
M  V30 40 H 4.05429 1.06181 3.8212 0
M  V30 41 H 5.7522 2.42729 0.125538 0
M  V30 42 H 3.98486 1.30215 -1.07964 0
M  V30 43 H 6.27558 3.4676 2.7008 0
M  V30 44 H 6.60521 1.90082 3.50872 0
M  V30 45 H 1.63935 -2.50819 0.910829 0
M  V30 46 H 2.10049 -4.62828 -0.24592 0
M  V30 47 H 2.94656 -4.56932 -2.55044 0
M  V30 48 H 3.34507 -2.44693 -3.73206 0
M  V30 49 H 2.87217 -0.315143 -2.53685 0
M  V30 50 H -2.63133 2.81007 -0.353272 0
M  V30 51 H -3.31071 4.17573 1.62847 0
M  V30 52 H -3.20073 3.21276 3.89585 0
M  V30 53 H -2.43105 0.894036 4.2334 0
M  V30 54 H -1.75832 -0.447626 2.23403 0
M  V30 END ATOM
M  V30 BEGIN BOND
M  V30 1 1 1 2
M  V30 2 2 2 3
M  V30 3 1 3 4
M  V30 4 2 4 5
M  V30 5 1 5 6
M  V30 6 2 6 7
M  V30 7 1 5 8
M  V30 8 1 8 9
M  V30 9 2 9 10
M  V30 10 1 9 11
M  V30 11 2 11 12
M  V30 12 1 11 13
M  V30 13 1 13 14
M  V30 14 2 14 15
M  V30 15 1 15 16
M  V30 16 2 16 17
M  V30 17 1 17 18
M  V30 18 2 18 19
M  V30 19 1 17 20
M  V30 20 1 13 21
M  V30 21 2 21 22
M  V30 22 1 22 23
M  V30 23 2 23 24
M  V30 24 1 24 25
M  V30 25 2 25 26
M  V30 26 1 8 27
M  V30 27 2 27 28
M  V30 28 1 28 29
M  V30 29 2 29 30
M  V30 30 1 30 31
M  V30 31 2 31 32
M  V30 32 1 7 2
M  V30 33 1 19 14
M  V30 34 1 26 21
M  V30 35 1 32 27
M  V30 36 1 1 33
M  V30 37 1 1 34
M  V30 38 1 3 35
M  V30 39 1 4 36
M  V30 40 1 6 37
M  V30 41 1 7 38
M  V30 42 1 15 39
M  V30 43 1 16 40
M  V30 44 1 18 41
M  V30 45 1 19 42
M  V30 46 1 20 43
M  V30 47 1 20 44
M  V30 48 1 22 45
M  V30 49 1 23 46
M  V30 50 1 24 47
M  V30 51 1 25 48
M  V30 52 1 26 49
M  V30 53 1 28 50
M  V30 54 1 29 51
M  V30 55 1 30 52
M  V30 56 1 31 53
M  V30 57 1 32 54
M  V30 END BOND
M  V30 END CTAB
M  END
