
     RDKit          3D

  0  0  0  0  0  0  0  0  0  0999 V3000
M  V30 BEGIN CTAB
M  V30 COUNTS 44 48 0 0 0
M  V30 BEGIN ATOM
M  V30 1 N -5.52988 3.03806 0.904546 0
M  V30 2 N -4.34695 2.27289 1.01871 0
M  V30 3 C -3.52378 2.01652 -0.0969266 0
M  V30 4 O -3.88956 2.49879 -1.19548 0
M  V30 5 C -2.30632 1.23792 -0.0180916 0
M  V30 6 C -1.5005 0.994931 -1.1446 0
M  V30 7 N -1.73999 1.44955 -2.46449 0
M  V30 8 N -0.465089 0.252406 -0.729978 0
M  V30 9 C -0.551974 0.00375715 0.580881 0
M  V30 10 C -1.69688 0.613889 1.03513 0
M  V30 11 N -2.03477 0.523173 2.34101 0
M  V30 12 C -1.2428 -0.163834 3.17342 0
M  V30 13 C -1.53824 -0.290972 4.52221 0
M  V30 14 C -0.718153 -1.00337 5.38852 0
M  V30 15 C 0.42412 -1.60116 4.88794 0
M  V30 16 C 0.750288 -1.49737 3.55717 0
M  V30 17 C -0.0933497 -0.779641 2.73143 0
M  V30 18 N 0.235551 -0.685909 1.4368 0
M  V30 19 C 0.588649 -0.216645 -1.54823 0
M  V30 20 C 0.246201 -0.800517 -2.7501 0
M  V30 21 C 1.27658 -1.2566 -3.54514 0
M  V30 22 C 2.59593 -1.12631 -3.13924 0
M  V30 23 C 2.93473 -0.541628 -1.93615 0
M  V30 24 C 1.89993 -0.0863717 -1.14326 0
M  V30 25 C 4.25334 -0.412518 -1.53267 0
M  V30 26 C 5.28872 -0.866601 -2.32315 0
M  V30 27 C 4.94519 -1.4505 -3.52521 0
M  V30 28 C 3.63389 -1.58137 -3.93138 0
M  V30 29 H -6.36707 2.40321 1.0272 0
M  V30 30 H -5.52557 3.79773 1.62755 0
M  V30 31 H -4.08871 1.8975 1.94536 0
M  V30 32 H -1.24469 2.28499 -2.80462 0
M  V30 33 H -2.3997 0.94949 -3.07069 0
M  V30 34 H -2.42911 0.177014 4.90494 0
M  V30 35 H -0.943985 -1.10555 6.44117 0
M  V30 36 H 1.06088 -2.1556 5.56622 0
M  V30 37 H 1.66038 -1.97822 3.17812 0
M  V30 38 H -0.800912 -0.896281 -3.05701 0
M  V30 39 H 1.02291 -1.71826 -4.49355 0
M  V30 40 H 2.17668 0.375077 -0.192701 0
M  V30 41 H 4.51121 0.0514059 -0.579279 0
M  V30 42 H 6.33067 -0.766778 -2.00871 0
M  V30 43 H 5.76755 -1.80747 -4.1457 0
M  V30 44 H 3.3746 -2.04881 -4.89194 0
M  V30 END ATOM
M  V30 BEGIN BOND
M  V30 1 1 1 2
M  V30 2 1 2 3
M  V30 3 2 3 4
M  V30 4 1 3 5
M  V30 5 2 5 6
M  V30 6 1 6 7
M  V30 7 1 6 8
M  V30 8 1 8 9
M  V30 9 2 9 10
M  V30 10 1 10 11
M  V30 11 2 11 12
M  V30 12 1 12 13
M  V30 13 2 13 14
M  V30 14 1 14 15
M  V30 15 2 15 16
M  V30 16 1 16 17
M  V30 17 2 17 18
M  V30 18 1 8 19
M  V30 19 2 19 20
M  V30 20 1 20 21
M  V30 21 2 21 22
M  V30 22 1 22 23
M  V30 23 2 23 24
M  V30 24 1 23 25
M  V30 25 2 25 26
M  V30 26 1 26 27
M  V30 27 2 27 28
M  V30 28 1 10 5
M  V30 29 1 17 12
M  V30 30 1 24 19
M  V30 31 1 18 9
M  V30 32 1 28 22
M  V30 33 1 1 29
M  V30 34 1 1 30
M  V30 35 1 2 31
M  V30 36 1 7 32
M  V30 37 1 7 33
M  V30 38 1 13 34
M  V30 39 1 14 35
M  V30 40 1 15 36
M  V30 41 1 16 37
M  V30 42 1 20 38
M  V30 43 1 21 39
M  V30 44 1 24 40
M  V30 45 1 25 41
M  V30 46 1 26 42
M  V30 47 1 27 43
M  V30 48 1 28 44
M  V30 END BOND
M  V30 END CTAB
M  END
