
     RDKit          3D

  0  0  0  0  0  0  0  0  0  0999 V3000
M  V30 BEGIN CTAB
M  V30 COUNTS 21 21 0 0 0
M  V30 BEGIN ATOM
M  V30 1 C 3.69274 -0.0908523 1.1214 0
M  V30 2 S 2.54991 1.05307 0.275156 0
M  V30 3 C 2.2343 0.367642 -1.38813 0
M  V30 4 S 1.28341 -1.17381 -1.08351 0
M  V30 5 C -0.3219 -0.641572 -0.45772 0
M  V30 6 N -0.5322 -0.430959 0.849519 0
M  V30 7 C -1.72761 -0.0437709 1.34427 0
M  V30 8 N -1.89444 0.173168 2.75334 0
M  V30 9 N -2.72851 0.129637 0.469623 0
M  V30 10 C -2.55854 -0.072087 -0.856712 0
M  V30 11 N -1.34417 -0.460391 -1.32054 0
M  V30 12 N -3.58777 0.0961351 -1.80887 0
M  V30 13 H 4.44124 -0.440651 0.339855 0
M  V30 14 H 3.17485 -0.930935 1.60962 0
M  V30 15 H 4.31032 0.422249 1.8959 0
M  V30 16 H 1.6641 1.07456 -2.0221 0
M  V30 17 H 3.18576 0.13213 -1.91174 0
M  V30 18 H -2.09231 -0.599924 3.41905 0
M  V30 19 H -1.82062 1.13389 3.14813 0
M  V30 20 H -4.11029 0.979902 -1.86371 0
M  V30 21 H -3.81828 -0.677436 -2.4582 0
M  V30 END ATOM
M  V30 BEGIN BOND
M  V30 1 1 1 2
M  V30 2 1 2 3
M  V30 3 1 3 4
M  V30 4 1 4 5
M  V30 5 2 5 6
M  V30 6 1 6 7
M  V30 7 1 7 8
M  V30 8 2 7 9
M  V30 9 1 9 10
M  V30 10 2 10 11
M  V30 11 1 10 12
M  V30 12 1 11 5
M  V30 13 1 1 13
M  V30 14 1 1 14
M  V30 15 1 1 15
M  V30 16 1 3 16
M  V30 17 1 3 17
M  V30 18 1 8 18
M  V30 19 1 8 19
M  V30 20 1 12 20
M  V30 21 1 12 21
M  V30 END BOND
M  V30 END CTAB
M  END
