
     RDKit          3D

  0  0  0  0  0  0  0  0  0  0999 V3000
M  V30 BEGIN CTAB
M  V30 COUNTS 26 26 0 0 0
M  V30 BEGIN ATOM
M  V30 1 N 3.75236 -0.0351271 1.43308 0
M  V30 2 N 2.82397 0.154355 0.438253 0
M  V30 3 C 2.74561 -0.624356 -0.56422 0
M  V30 4 S 1.59076 -0.458018 -1.88193 0
M  V30 5 C 0.444703 0.887261 -1.7647 0
M  V30 6 C -0.549658 0.797698 -0.673017 0
M  V30 7 C -0.409123 1.37265 0.565647 0
M  V30 8 C -1.37016 1.24839 1.5663 0
M  V30 9 C -2.51983 0.523357 1.3282 0
M  V30 10 C -2.6902 -0.0637127 0.0985118 0
M  V30 11 C -1.72438 0.0692603 -0.886177 0
M  V30 12 C -3.92362 -0.852373 -0.18443 0
M  V30 13 Cl -3.76938 0.322877 2.53175 0
M  V30 14 N 3.65652 -1.71287 -0.640599 0
M  V30 15 H 4.57557 -0.673855 1.30112 0
M  V30 16 H 3.69357 0.435168 2.35746 0
M  V30 17 H 1.01184 1.86142 -1.71975 0
M  V30 18 H -0.108478 0.952737 -2.73286 0
M  V30 19 H 0.455156 1.94705 0.786658 0
M  V30 20 H -1.21099 1.71841 2.5198 0
M  V30 21 H -1.84208 -0.3861 -1.86095 0
M  V30 22 H -3.6403 -1.92552 -0.000580102 0
M  V30 23 H -4.26768 -0.741928 -1.22646 0
M  V30 24 H -4.67837 -0.599095 0.563248 0
M  V30 25 H 4.53815 -1.61742 -1.15263 0
M  V30 26 H 3.41602 -2.60025 -0.172321 0
M  V30 END ATOM
M  V30 BEGIN BOND
M  V30 1 1 1 2
M  V30 2 2 2 3 CFG=2
M  V30 3 1 3 4
M  V30 4 1 4 5
M  V30 5 1 5 6
M  V30 6 2 6 7
M  V30 7 1 7 8
M  V30 8 2 8 9
M  V30 9 1 9 10
M  V30 10 2 10 11
M  V30 11 1 10 12
M  V30 12 1 9 13
M  V30 13 1 3 14
M  V30 14 1 11 6
M  V30 15 1 1 15
M  V30 16 1 1 16
M  V30 17 1 5 17
M  V30 18 1 5 18
M  V30 19 1 7 19
M  V30 20 1 8 20
M  V30 21 1 11 21
M  V30 22 1 12 22
M  V30 23 1 12 23
M  V30 24 1 12 24
M  V30 25 1 14 25
M  V30 26 1 14 26
M  V30 END BOND
M  V30 END CTAB
M  END
