
     RDKit          3D

  0  0  0  0  0  0  0  0  0  0999 V3000
M  V30 BEGIN CTAB
M  V30 COUNTS 31 32 0 0 0
M  V30 BEGIN ATOM
M  V30 1 N 4.10027 -0.947555 0.220375 0
M  V30 2 C 2.85716 -0.384078 0.62974 0
M  V30 3 C 1.87141 -0.581416 -0.534671 0
M  V30 4 N 0.600192 -0.0279805 -0.202314 0
M  V30 5 C 0.544587 1.43594 -0.0914227 0
M  V30 6 C -0.813665 1.92723 -0.502601 0 CFG=2
M  V30 7 N -0.825665 3.3612 -0.48362 0
M  V30 8 C -1.85941 1.40761 0.466711 0
M  V30 9 C -1.79856 -0.0917999 0.358408 0
M  V30 10 C -0.599018 -0.71637 0.0340351 0
M  V30 11 C -0.585843 -2.07688 -0.0558509 0
M  V30 12 C -1.72115 -2.83139 0.16543 0
M  V30 13 C -2.90148 -2.18891 0.486605 0
M  V30 14 C -2.9287 -0.822344 0.580036 0
M  V30 15 H 4.89278 -0.284765 0.183111 0
M  V30 16 H 4.34146 -1.85553 0.575221 0
M  V30 17 H 2.93316 0.679888 0.867702 0
M  V30 18 H 2.48531 -0.987738 1.48142 0
M  V30 19 H 2.30359 0.0941926 -1.33969 0
M  V30 20 H 1.91569 -1.57245 -0.94987 0
M  V30 21 H 1.27923 1.86451 -0.783868 0
M  V30 22 H 0.768779 1.76846 0.93513 0
M  V30 23 H -1.0382 1.57175 -1.52666 0
M  V30 24 H -0.685845 3.69412 0.476319 0
M  V30 25 H -1.71413 3.7043 -0.865442 0
M  V30 26 H -1.54759 1.69805 1.48412 0
M  V30 27 H -2.83725 1.78639 0.165963 0
M  V30 28 H 0.309127 -2.59449 -0.300824 0
M  V30 29 H -1.71084 -3.91963 0.0943241 0
M  V30 30 H -3.77366 -2.78802 0.654856 0
M  V30 31 H -3.86174 -0.322299 0.83336 0
M  V30 END ATOM
M  V30 BEGIN BOND
M  V30 1 1 1 2
M  V30 2 1 2 3
M  V30 3 1 3 4
M  V30 4 1 4 5
M  V30 5 1 5 6
M  V30 6 1 6 7
M  V30 7 1 6 8
M  V30 8 1 8 9
M  V30 9 2 9 10
M  V30 10 1 10 11
M  V30 11 2 11 12
M  V30 12 1 12 13
M  V30 13 2 13 14
M  V30 14 1 10 4
M  V30 15 1 14 9
M  V30 16 1 1 15
M  V30 17 1 1 16
M  V30 18 1 2 17
M  V30 19 1 2 18
M  V30 20 1 3 19
M  V30 21 1 3 20
M  V30 22 1 5 21
M  V30 23 1 5 22
M  V30 24 1 6 23 CFG=3
M  V30 25 1 7 24
M  V30 26 1 7 25
M  V30 27 1 8 26
M  V30 28 1 8 27
M  V30 29 1 11 28
M  V30 30 1 12 29
M  V30 31 1 13 30
M  V30 32 1 14 31
M  V30 END BOND
M  V30 END CTAB
M  END
