
     RDKit          3D

  0  0  0  0  0  0  0  0  0  0999 V3000
M  V30 BEGIN CTAB
M  V30 COUNTS 46 45 0 0 0
M  V30 BEGIN ATOM
M  V30 1 C 1.76366 -1.94938 -0.182055 0
M  V30 2 N 2.14452 -0.595094 -0.268525 0
M  V30 3 C 3.32375 -0.180669 0.385828 0
M  V30 4 C 4.59153 -0.74565 -0.211236 0
M  V30 5 C 5.73445 -0.186813 0.639203 0
M  V30 6 N 5.71219 1.27994 0.576069 0
M  V30 7 C 1.65368 0.17341 -1.34691 0
M  V30 8 C 0.142592 0.40874 -1.23451 0
M  V30 9 C -0.18831 1.13964 0.0289305 0
M  V30 10 C -1.66705 1.3976 0.187496 0
M  V30 11 N -2.37474 0.181147 0.204087 0
M  V30 12 C -2.21 -0.691335 1.29627 0
M  V30 13 C -3.1772 -0.188006 -0.874907 0
M  V30 14 C -4.40699 0.638996 -1.1079 0
M  V30 15 C -5.36972 0.660792 0.0314256 0
M  V30 16 N -5.86124 -0.680202 0.354538 0
M  V30 17 H 2.59116 -2.67578 -0.108959 0
M  V30 18 H 1.17821 -2.24463 -1.08403 0
M  V30 19 H 1.04054 -2.05749 0.681749 0
M  V30 20 H 3.27753 -0.498639 1.44153 0
M  V30 21 H 3.38585 0.929421 0.345503 0
M  V30 22 H 4.76083 -0.437599 -1.24155 0
M  V30 23 H 4.59878 -1.84293 -0.0490115 0
M  V30 24 H 6.71978 -0.522052 0.301858 0
M  V30 25 H 5.57032 -0.481417 1.70402 0
M  V30 26 H 6.3881 1.63918 1.28826 0
M  V30 27 H 6.04316 1.5296 -0.381293 0
M  V30 28 H 2.16599 1.12374 -1.51908 0
M  V30 29 H 1.79699 -0.423751 -2.29888 0
M  V30 30 H -0.243168 0.959889 -2.08844 0
M  V30 31 H -0.333194 -0.605539 -1.16231 0
M  V30 32 H 0.180266 0.57392 0.930848 0
M  V30 33 H 0.401503 2.10111 0.0473829 0
M  V30 34 H -1.9803 2.10121 -0.593059 0
M  V30 35 H -1.76564 1.91725 1.18759 0
M  V30 36 H -3.11582 -1.21511 1.61825 0
M  V30 37 H -1.82551 -0.133522 2.19063 0
M  V30 38 H -1.41034 -1.45561 1.04899 0
M  V30 39 H -3.47911 -1.24429 -0.784297 0
M  V30 40 H -2.58451 -0.107227 -1.83229 0
M  V30 41 H -4.17395 1.65905 -1.47293 0
M  V30 42 H -4.94822 0.155353 -1.96628 0
M  V30 43 H -6.25293 1.2801 -0.251286 0
M  V30 44 H -4.95892 1.07076 0.969239 0
M  V30 45 H -6.25596 -1.16114 -0.487145 0
M  V30 46 H -6.58256 -0.596996 1.12387 0
M  V30 END ATOM
M  V30 BEGIN BOND
M  V30 1 1 1 2
M  V30 2 1 2 3
M  V30 3 1 3 4
M  V30 4 1 4 5
M  V30 5 1 5 6
M  V30 6 1 2 7
M  V30 7 1 7 8
M  V30 8 1 8 9
M  V30 9 1 9 10
M  V30 10 1 10 11
M  V30 11 1 11 12
M  V30 12 1 11 13
M  V30 13 1 13 14
M  V30 14 1 14 15
M  V30 15 1 15 16
M  V30 16 1 1 17
M  V30 17 1 1 18
M  V30 18 1 1 19
M  V30 19 1 3 20
M  V30 20 1 3 21
M  V30 21 1 4 22
M  V30 22 1 4 23
M  V30 23 1 5 24
M  V30 24 1 5 25
M  V30 25 1 6 26
M  V30 26 1 6 27
M  V30 27 1 7 28
M  V30 28 1 7 29
M  V30 29 1 8 30
M  V30 30 1 8 31
M  V30 31 1 9 32
M  V30 32 1 9 33
M  V30 33 1 10 34
M  V30 34 1 10 35
M  V30 35 1 12 36
M  V30 36 1 12 37
M  V30 37 1 12 38
M  V30 38 1 13 39
M  V30 39 1 13 40
M  V30 40 1 14 41
M  V30 41 1 14 42
M  V30 42 1 15 43
M  V30 43 1 15 44
M  V30 44 1 16 45
M  V30 45 1 16 46
M  V30 END BOND
M  V30 END CTAB
M  END
