
     RDKit          3D

  0  0  0  0  0  0  0  0  0  0999 V3000
M  V30 BEGIN CTAB
M  V30 COUNTS 17 16 0 0 0
M  V30 BEGIN ATOM
M  V30 1 C 3.45966 -0.820489 -0.0352342 0
M  V30 2 S 1.93635 -0.660025 0.927211 0
M  V30 3 C 0.643363 0.0898227 -0.0292361 0
M  V30 4 N 0.881633 0.473169 -1.36003 0
M  V30 5 N -0.504382 0.279577 0.496828 0
M  V30 6 N -1.57134 0.873767 -0.221403 0
M  V30 7 C -2.89935 0.498603 0.0105246 0
M  V30 8 N -3.17549 -0.493573 0.982058 0
M  V30 9 S -4.09598 1.21403 -0.844513 0
M  V30 10 H 4.20068 -0.0503838 0.223676 0
M  V30 11 H 3.22257 -0.685518 -1.12586 0
M  V30 12 H 3.85739 -1.85656 0.0526791 0
M  V30 13 H 1.00889 1.45964 -1.65884 0
M  V30 14 H 0.933844 -0.267459 -2.08626 0
M  V30 15 H -1.33112 1.6069 -0.935271 0
M  V30 16 H -3.5354 -0.169579 1.90247 0
M  V30 17 H -3.03132 -1.49192 0.799165 0
M  V30 END ATOM
M  V30 BEGIN BOND
M  V30 1 1 1 2
M  V30 2 1 2 3
M  V30 3 1 3 4
M  V30 4 2 3 5
M  V30 5 1 5 6
M  V30 6 1 6 7
M  V30 7 1 7 8
M  V30 8 2 7 9
M  V30 9 1 1 10
M  V30 10 1 1 11
M  V30 11 1 1 12
M  V30 12 1 4 13
M  V30 13 1 4 14
M  V30 14 1 6 15
M  V30 15 1 8 16
M  V30 16 1 8 17
M  V30 END BOND
M  V30 END CTAB
M  END
