
     RDKit          3D

  0  0  0  0  0  0  0  0  0  0999 V3000
M  V30 BEGIN CTAB
M  V30 COUNTS 42 42 0 0 0
M  V30 BEGIN ATOM
M  V30 1 C 5.62539 2.33704 -0.817786 0
M  V30 2 S 5.1821 0.955883 0.248982 0
M  V30 3 C 4.28995 -0.25805 -0.749893 0
M  V30 4 C 3.86994 -1.45881 0.0172115 0
M  V30 5 C 2.97585 -1.23215 1.1782 0 CFG=1
M  V30 6 C 1.66814 -0.593232 0.843427 0
M  V30 7 O 1.6584 0.539095 0.315881 0
M  V30 8 N 0.466329 -1.2661 1.12254 0
M  V30 9 C -0.852307 -0.881322 0.904256 0
M  V30 10 C -1.88232 -1.72396 1.33213 0
M  V30 11 C -3.19441 -1.40589 1.14459 0
M  V30 12 C -3.5813 -0.210855 0.509372 0
M  V30 13 C -2.59302 0.62947 0.0834498 0
M  V30 14 C -1.24483 0.276388 0.289358 0
M  V30 15 S -2.96637 2.14972 -0.680444 0
M  V30 16 O -3.68524 2.00488 -1.97428 0
M  V30 17 O -3.74487 3.07312 0.243854 0
M  V30 18 N -1.48222 2.99051 -1.02226 0
M  V30 19 C -5.02635 0.0495995 0.314219 0
M  V30 20 C -5.42865 -0.381106 -1.0743 0
M  V30 21 N 2.70528 -2.49707 1.83311 0
M  V30 22 H 6.66707 2.20345 -1.1669 0
M  V30 23 H 5.49167 3.26488 -0.239344 0
M  V30 24 H 4.95592 2.36627 -1.67369 0
M  V30 25 H 3.45407 0.220991 -1.28314 0
M  V30 26 H 5.01905 -0.557379 -1.56545 0
M  V30 27 H 3.34821 -2.13925 -0.717511 0
M  V30 28 H 4.75611 -2.05096 0.342849 0
M  V30 29 H 3.4853 -0.582655 1.90954 0
M  V30 30 H 0.609291 -2.22834 1.57473 0
M  V30 31 H -1.63421 -2.63762 1.81694 0
M  V30 32 H -3.99253 -2.06414 1.47868 0
M  V30 33 H -0.539392 0.984741 -0.0749145 0
M  V30 34 H -1.63154 3.60121 -1.83462 0
M  V30 35 H -1.20322 3.54229 -0.1786 0
M  V30 36 H -5.60787 -0.536231 1.06486 0
M  V30 37 H -5.23009 1.13659 0.428002 0
M  V30 38 H -6.00314 0.426831 -1.54771 0
M  V30 39 H -4.5234 -0.680711 -1.64024 0
M  V30 40 H -6.08141 -1.30912 -0.980072 0
M  V30 41 H 3.55379 -2.84055 2.34424 0
M  V30 42 H 2.34682 -3.21746 1.16518 0
M  V30 END ATOM
M  V30 BEGIN BOND
M  V30 1 1 1 2
M  V30 2 1 2 3
M  V30 3 1 3 4
M  V30 4 1 4 5
M  V30 5 1 5 6
M  V30 6 2 6 7
M  V30 7 1 6 8
M  V30 8 1 8 9
M  V30 9 2 9 10
M  V30 10 1 10 11
M  V30 11 2 11 12
M  V30 12 1 12 13
M  V30 13 2 13 14
M  V30 14 1 13 15
M  V30 15 2 15 16
M  V30 16 2 15 17
M  V30 17 1 15 18
M  V30 18 1 12 19
M  V30 19 1 19 20
M  V30 20 1 5 21
M  V30 21 1 14 9
M  V30 22 1 1 22
M  V30 23 1 1 23
M  V30 24 1 1 24
M  V30 25 1 3 25
M  V30 26 1 3 26
M  V30 27 1 4 27
M  V30 28 1 4 28
M  V30 29 1 5 29 CFG=1
M  V30 30 1 8 30
M  V30 31 1 10 31
M  V30 32 1 11 32
M  V30 33 1 14 33
M  V30 34 1 18 34
M  V30 35 1 18 35
M  V30 36 1 19 36
M  V30 37 1 19 37
M  V30 38 1 20 38
M  V30 39 1 20 39
M  V30 40 1 20 40
M  V30 41 1 21 41
M  V30 42 1 21 42
M  V30 END BOND
M  V30 END CTAB
M  END
