
     RDKit          3D

  0  0  0  0  0  0  0  0  0  0999 V3000
M  V30 BEGIN CTAB
M  V30 COUNTS 30 30 0 0 0
M  V30 BEGIN ATOM
M  V30 1 C -3.64345 -0.275233 0.770151 0
M  V30 2 N -3.55568 -0.478196 -0.651881 0
M  V30 3 S -2.15968 -1.33175 -1.12799 0
M  V30 4 O -2.15116 -2.67044 -0.446796 0
M  V30 5 O -2.16977 -1.55825 -2.59528 0
M  V30 6 C -0.743779 -0.418617 -0.671875 0
M  V30 7 C -0.578012 0.845899 -1.19791 0
M  V30 8 N -1.54359 1.37482 -2.08831 0
M  V30 9 C 0.53769 1.5436 -0.82611 0
M  V30 10 C 1.49005 0.998608 0.0623051 0
M  V30 11 C 1.32773 -0.255554 0.585468 0
M  V30 12 C 0.17531 -0.967081 0.196819 0
M  V30 13 S 2.42651 -0.984574 1.66697 0
M  V30 14 N 4.00604 -1.27002 1.03195 0
M  V30 15 O 2.48112 -0.370213 3.03275 0
M  V30 16 O 1.92036 -2.40539 1.97228 0
M  V30 17 C 2.65792 1.80505 0.407475 0
M  V30 18 F 2.51556 3.06689 -0.235607 0
M  V30 19 F 2.75354 2.16697 1.73279 0
M  V30 20 F 3.85269 1.36594 -0.139677 0
M  V30 21 H -4.37728 0.553486 0.945056 0
M  V30 22 H -4.03839 -1.15181 1.31842 0
M  V30 23 H -2.68229 -0.00131218 1.23459 0
M  V30 24 H -3.74632 0.396184 -1.15092 0
M  V30 25 H -2.04586 2.25912 -1.90312 0
M  V30 26 H -1.77713 0.872236 -2.97473 0
M  V30 27 H 0.69198 2.54458 -1.22781 0
M  V30 28 H 0.016067 -1.96693 0.594706 0
M  V30 29 H 4.47598 -2.006 1.60556 0
M  V30 30 H 3.88386 -1.68202 0.0807124 0
M  V30 END ATOM
M  V30 BEGIN BOND
M  V30 1 1 1 2
M  V30 2 1 2 3
M  V30 3 2 3 4
M  V30 4 2 3 5
M  V30 5 1 3 6
M  V30 6 2 6 7
M  V30 7 1 7 8
M  V30 8 1 7 9
M  V30 9 2 9 10
M  V30 10 1 10 11
M  V30 11 2 11 12
M  V30 12 1 11 13
M  V30 13 1 13 14
M  V30 14 2 13 15
M  V30 15 2 13 16
M  V30 16 1 10 17
M  V30 17 1 17 18
M  V30 18 1 17 19
M  V30 19 1 17 20
M  V30 20 1 12 6
M  V30 21 1 1 21
M  V30 22 1 1 22
M  V30 23 1 1 23
M  V30 24 1 2 24
M  V30 25 1 8 25
M  V30 26 1 8 26
M  V30 27 1 9 27
M  V30 28 1 12 28
M  V30 29 1 14 29
M  V30 30 1 14 30
M  V30 END BOND
M  V30 END CTAB
M  END
