
     RDKit          3D

  0  0  0  0  0  0  0  0  0  0999 V3000
M  V30 BEGIN CTAB
M  V30 COUNTS 37 38 0 0 0
M  V30 BEGIN ATOM
M  V30 1 N 3.80078 2.29611 -0.0321758 0
M  V30 2 C 3.38504 0.964532 -0.283273 0
M  V30 3 C 1.87925 0.955458 -0.322825 0
M  V30 4 N 1.2768 -0.34034 -0.558199 0
M  V30 5 C 1.55302 -1.14454 0.590194 0
M  V30 6 C 0.959178 -2.48193 0.670122 0
M  V30 7 C -0.329692 -2.66233 -0.0461845 0
M  V30 8 C -1.42567 -1.73925 0.501052 0
M  V30 9 C -1.08692 -0.360054 0.100984 0 CFG=1
M  V30 10 C -0.0997989 -0.218406 -0.975012 0
M  V30 11 C -2.08366 0.685301 0.26802 0
M  V30 12 C -2.1033 1.62056 1.28664 0
M  V30 13 N -3.04229 2.5498 1.04283 0
M  V30 14 N -3.61481 2.22496 -0.0932796 0
M  V30 15 C -3.08149 1.11637 -0.597435 0
M  V30 16 N -3.48859 0.390681 -1.75555 0
M  V30 17 H 4.76794 2.47188 -0.138716 0
M  V30 18 H 3.31644 2.76738 0.703805 0
M  V30 19 H 3.82294 0.687715 -1.29515 0
M  V30 20 H 3.83188 0.346443 0.517668 0
M  V30 21 H 1.50465 1.40727 0.61402 0
M  V30 22 H 1.56939 1.65493 -1.14633 0
M  V30 23 H 2.67948 -1.30185 0.584538 0
M  V30 24 H 1.43549 -0.593882 1.57516 0
M  V30 25 H 0.748926 -2.76325 1.75507 0
M  V30 26 H 1.64444 -3.32084 0.336707 0
M  V30 27 H -0.267144 -2.65281 -1.13526 0
M  V30 28 H -0.682829 -3.70651 0.200627 0
M  V30 29 H -2.3264 -2.14649 -0.0346414 0
M  V30 30 H -1.48516 -1.90519 1.56274 0
M  V30 31 H -0.363669 -0.0919112 1.05203 0
M  V30 32 H -0.305264 -0.815116 -1.87384 0
M  V30 33 H -0.188305 0.854478 -1.34737 0
M  V30 34 H -1.48655 1.695 2.19753 0
M  V30 35 H -3.27452 3.37716 1.61227 0
M  V30 36 H -4.45641 -0.054126 -1.69569 0
M  V30 37 H -2.98316 0.232815 -2.62207 0
M  V30 END ATOM
M  V30 BEGIN BOND
M  V30 1 1 1 2
M  V30 2 1 2 3
M  V30 3 1 3 4
M  V30 4 1 4 5
M  V30 5 1 5 6
M  V30 6 1 6 7
M  V30 7 1 7 8
M  V30 8 1 8 9
M  V30 9 1 9 10
M  V30 10 1 9 11
M  V30 11 2 11 12
M  V30 12 1 12 13
M  V30 13 1 13 14
M  V30 14 2 14 15
M  V30 15 1 15 16
M  V30 16 1 10 4
M  V30 17 1 15 11
M  V30 18 1 1 17
M  V30 19 1 1 18
M  V30 20 1 2 19
M  V30 21 1 2 20
M  V30 22 1 3 21
M  V30 23 1 3 22
M  V30 24 1 5 23
M  V30 25 1 5 24
M  V30 26 1 6 25
M  V30 27 1 6 26
M  V30 28 1 7 27
M  V30 29 1 7 28
M  V30 30 1 8 29
M  V30 31 1 8 30
M  V30 32 1 9 31 CFG=1
M  V30 33 1 10 32
M  V30 34 1 10 33
M  V30 35 1 12 34
M  V30 36 1 13 35
M  V30 37 1 16 36
M  V30 38 1 16 37
M  V30 END BOND
M  V30 END CTAB
M  END
