
     RDKit          3D

  0  0  0  0  0  0  0  0  0  0999 V3000
M  V30 BEGIN CTAB
M  V30 COUNTS 40 41 0 0 0
M  V30 BEGIN ATOM
M  V30 1 N 5.91774 -1.01159 -0.422306 0
M  V30 2 C 5.69721 0.374247 -0.207835 0
M  V30 3 S 6.98599 1.36279 -0.147819 0
M  V30 4 N 4.36545 0.824512 -0.0591245 0
M  V30 5 C 3.24031 -0.0687899 -0.115897 0
M  V30 6 C 1.91327 0.658671 0.0452367 0
M  V30 7 C 0.808432 -0.320817 -0.0369044 0
M  V30 8 O 1.09358 -1.56293 -0.165875 0
M  V30 9 N -0.552829 0.0145283 0.0171263 0
M  V30 10 C -1.57442 -0.998855 -0.0765208 0
M  V30 11 C -2.50921 -0.90485 -1.08181 0
M  V30 12 C -3.5001 -1.85359 -1.21672 0
M  V30 13 C -3.53166 -2.90141 -0.317704 0
M  V30 14 C -2.58171 -2.97953 0.68918 0
M  V30 15 C -1.59294 -2.03561 0.826655 0
M  V30 16 N -4.55062 -3.90194 -0.440207 0
M  V30 17 C -0.961151 1.36821 0.167285 0
M  V30 18 C -0.747263 2.34806 -0.7703 0
M  V30 19 C -1.17271 3.6427 -0.543235 0
M  V30 20 C -1.81552 3.98812 0.613291 0
M  V30 21 C -2.04008 3.01795 1.56679 0
M  V30 22 C -1.61913 1.73099 1.34555 0
M  V30 23 H 5.14571 -1.67935 -0.607857 0
M  V30 24 H 6.87964 -1.43388 -0.404838 0
M  V30 25 H 4.20007 1.83909 0.0975545 0
M  V30 26 H 3.22297 -0.658599 -1.05697 0
M  V30 27 H 3.34297 -0.825164 0.711568 0
M  V30 28 H 1.79696 1.41919 -0.726395 0
M  V30 29 H 1.87465 1.07824 1.09329 0
M  V30 30 H -2.4791 -0.0675944 -1.79666 0
M  V30 31 H -4.24344 -1.7787 -2.01552 0
M  V30 32 H -2.62149 -3.80172 1.38207 0
M  V30 33 H -0.84752 -2.07185 1.59463 0
M  V30 34 H -4.35844 -4.73372 -1.04545 0
M  V30 35 H -5.45646 -3.82507 0.044228 0
M  V30 36 H -0.251717 2.11284 -1.68655 0
M  V30 37 H -0.979438 4.36541 -1.30406 0
M  V30 38 H -2.14761 4.99034 0.797486 0
M  V30 39 H -2.55051 3.30394 2.47645 0
M  V30 40 H -1.79992 0.975722 2.10038 0
M  V30 END ATOM
M  V30 BEGIN BOND
M  V30 1 1 1 2
M  V30 2 2 2 3
M  V30 3 1 2 4
M  V30 4 1 4 5
M  V30 5 1 5 6
M  V30 6 1 6 7
M  V30 7 2 7 8
M  V30 8 1 7 9
M  V30 9 1 9 10
M  V30 10 2 10 11
M  V30 11 1 11 12
M  V30 12 2 12 13
M  V30 13 1 13 14
M  V30 14 2 14 15
M  V30 15 1 13 16
M  V30 16 1 9 17
M  V30 17 2 17 18
M  V30 18 1 18 19
M  V30 19 2 19 20
M  V30 20 1 20 21
M  V30 21 2 21 22
M  V30 22 1 15 10
M  V30 23 1 22 17
M  V30 24 1 1 23
M  V30 25 1 1 24
M  V30 26 1 4 25
M  V30 27 1 5 26
M  V30 28 1 5 27
M  V30 29 1 6 28
M  V30 30 1 6 29
M  V30 31 1 11 30
M  V30 32 1 12 31
M  V30 33 1 14 32
M  V30 34 1 15 33
M  V30 35 1 16 34
M  V30 36 1 16 35
M  V30 37 1 18 36
M  V30 38 1 19 37
M  V30 39 1 20 38
M  V30 40 1 21 39
M  V30 41 1 22 40
M  V30 END BOND
M  V30 END CTAB
M  END
