
     RDKit          3D

  0  0  0  0  0  0  0  0  0  0999 V3000
M  V30 BEGIN CTAB
M  V30 COUNTS 37 39 0 0 0
M  V30 BEGIN ATOM
M  V30 1 N -5.63886 0.367732 1.55429 0
M  V30 2 C -4.41182 0.163719 0.857096 0
M  V30 3 N -4.39637 0.315481 -0.476971 0
M  V30 4 C -3.30435 0.147057 -1.21042 0
M  V30 5 N -3.25761 0.300303 -2.61971 0
M  V30 6 C -2.12158 -0.201045 -0.582103 0
M  V30 7 C -0.870139 -0.400829 -1.38205 0
M  V30 8 C 0.272425 -0.10932 -0.431504 0
M  V30 9 C 1.55562 -0.0463598 -1.16625 0
M  V30 10 C 2.75532 0.227311 -0.401677 0
M  V30 11 C 3.18198 1.52635 -0.188287 0
M  V30 12 C 4.32728 1.82078 0.53536 0
M  V30 13 C 5.08158 0.777951 1.07039 0
M  V30 14 Cl 6.51428 1.20846 1.97269 0
M  V30 15 C 4.66827 -0.518378 0.865471 0
M  V30 16 Cl 5.64324 -1.79819 1.55382 0
M  V30 17 C 3.51708 -0.789773 0.136932 0
M  V30 18 C 0.186563 -1.18364 0.625919 0
M  V30 19 C -0.892859 -0.735882 1.57638 0
M  V30 20 C -2.09324 -0.366344 0.781402 0
M  V30 21 N -3.27637 -0.168936 1.44755 0
M  V30 22 H -6.39342 0.990147 1.1954 0
M  V30 23 H -5.81164 -0.115159 2.4633 0
M  V30 24 H -2.85505 1.12103 -3.09458 0
M  V30 25 H -3.65617 -0.467315 -3.19967 0
M  V30 26 H -0.848694 0.364034 -2.19302 0
M  V30 27 H -0.787824 -1.42899 -1.77339 0
M  V30 28 H 0.0432661 0.881989 0.0277062 0
M  V30 29 H 1.44841 0.758851 -1.94095 0
M  V30 30 H 1.71577 -0.983797 -1.75323 0
M  V30 31 H 2.57471 2.31097 -0.616437 0
M  V30 32 H 4.63963 2.85091 0.687844 0
M  V30 33 H 3.26583 -1.83462 0.0244791 0
M  V30 34 H 1.12544 -1.43689 1.10884 0
M  V30 35 H -0.197497 -2.13763 0.157947 0
M  V30 36 H -0.490511 0.139137 2.12743 0
M  V30 37 H -1.21268 -1.54912 2.26001 0
M  V30 END ATOM
M  V30 BEGIN BOND
M  V30 1 1 1 2
M  V30 2 2 2 3
M  V30 3 1 3 4
M  V30 4 1 4 5
M  V30 5 2 4 6
M  V30 6 1 6 7
M  V30 7 1 7 8
M  V30 8 1 8 9
M  V30 9 1 9 10
M  V30 10 2 10 11
M  V30 11 1 11 12
M  V30 12 2 12 13
M  V30 13 1 13 14
M  V30 14 1 13 15
M  V30 15 1 15 16
M  V30 16 2 15 17
M  V30 17 1 8 18
M  V30 18 1 18 19
M  V30 19 1 19 20
M  V30 20 2 20 21
M  V30 21 1 21 2
M  V30 22 1 20 6
M  V30 23 1 17 10
M  V30 24 1 1 22
M  V30 25 1 1 23
M  V30 26 1 5 24
M  V30 27 1 5 25
M  V30 28 1 7 26
M  V30 29 1 7 27
M  V30 30 1 8 28
M  V30 31 1 9 29
M  V30 32 1 9 30
M  V30 33 1 11 31
M  V30 34 1 12 32
M  V30 35 1 17 33
M  V30 36 1 18 34
M  V30 37 1 18 35
M  V30 38 1 19 36
M  V30 39 1 19 37
M  V30 END BOND
M  V30 END CTAB
M  END
