
     RDKit          3D

  0  0  0  0  0  0  0  0  0  0999 V3000
M  V30 BEGIN CTAB
M  V30 COUNTS 21 22 0 0 0
M  V30 BEGIN ATOM
M  V30 1 N -3.19721 1.6467 0.287427 0
M  V30 2 C -2.35849 0.519573 0.139872 0
M  V30 3 C -2.95655 -0.708931 -0.0246678 0
M  V30 4 C -2.16285 -1.82568 -0.170967 0
M  V30 5 C -0.790284 -1.71082 -0.15236 0
M  V30 6 C -0.17424 -0.488229 0.0114372 0
M  V30 7 C -0.963536 0.63207 0.158217 0
M  V30 8 C 1.29434 -0.369987 0.0307048 0
M  V30 9 O 2.15507 -1.35008 -0.0974062 0
M  V30 10 N 3.37162 -0.895917 -0.0341209 0
M  V30 11 C 3.34728 0.415644 0.140053 0
M  V30 12 N 2.02547 0.746691 0.180826 0
M  V30 13 N 4.45301 1.28139 0.257763 0
M  V30 14 Br 0.337666 -3.23612 -0.352045 0
M  V30 15 H -3.75476 1.81918 1.13925 0
M  V30 16 H -3.25172 2.32336 -0.491513 0
M  V30 17 H -4.02871 -0.812489 -0.0410602 0
M  V30 18 H -2.57033 -2.82089 -0.304076 0
M  V30 19 H -0.499153 1.59968 0.287793 0
M  V30 20 H 5.40691 0.911516 0.297005 0
M  V30 21 H 4.31647 2.32334 0.307351 0
M  V30 END ATOM
M  V30 BEGIN BOND
M  V30 1 1 1 2
M  V30 2 2 2 3
M  V30 3 1 3 4
M  V30 4 2 4 5
M  V30 5 1 5 6
M  V30 6 2 6 7
M  V30 7 1 6 8
M  V30 8 1 8 9
M  V30 9 1 9 10
M  V30 10 2 10 11
M  V30 11 1 11 12
M  V30 12 1 11 13
M  V30 13 1 5 14
M  V30 14 1 7 2
M  V30 15 2 12 8
M  V30 16 1 1 15
M  V30 17 1 1 16
M  V30 18 1 3 17
M  V30 19 1 4 18
M  V30 20 1 7 19
M  V30 21 1 13 20
M  V30 22 1 13 21
M  V30 END BOND
M  V30 END CTAB
M  END
