
     RDKit          3D

  0  0  0  0  0  0  0  0  0  0999 V3000
M  V30 BEGIN CTAB
M  V30 COUNTS 56 58 0 0 0
M  V30 BEGIN ATOM
M  V30 1 C 8.50721 -0.00459248 -0.132236 0
M  V30 2 C 7.02168 -0.232761 -0.276875 0
M  V30 3 O 6.55672 -0.0162288 -1.40478 0
M  V30 4 N 6.25123 -0.657785 0.801136 0
M  V30 5 C 4.88612 -0.92386 0.967689 0
M  V30 6 C 3.85106 0.116041 0.923012 0
M  V30 7 C 3.74617 0.903149 -0.334332 0
M  V30 8 C 2.58494 1.90394 -0.264629 0
M  V30 9 C 1.25974 1.2647 -0.0526314 0
M  V30 10 C 0.83444 0.322645 -1.10292 0
M  V30 11 O 1.52979 0.201249 -2.16846 0
M  V30 12 N -0.329666 -0.480626 -1.00787 0
M  V30 13 C -0.591057 -1.34542 -2.1415 0
M  V30 14 C -1.69967 -2.31283 -1.8913 0
M  V30 15 O -2.94395 -1.75826 -1.78906 0
M  V30 16 C -2.96094 -0.427882 -1.45988 0
M  V30 17 C -2.56728 -0.273721 -0.0228616 0
M  V30 18 C -1.08356 -0.32667 0.196269 0
M  V30 19 O -3.2814 -1.22728 0.733898 0
M  V30 20 C -4.55272 -0.773249 1.02066 0
M  V30 21 C -4.53057 0.59992 0.935347 0
M  V30 22 C -3.15042 1.01823 0.566565 0
M  V30 23 C -5.68962 1.28964 1.18139 0
M  V30 24 N -5.65229 2.70039 1.08998 0
M  V30 25 N -6.82783 0.611156 1.50173 0
M  V30 26 C -6.86132 -0.729601 1.58778 0
M  V30 27 N -5.72394 -1.39826 1.34596 0
M  V30 28 N -8.08139 -1.39563 1.92711 0
M  V30 29 H 8.86745 -0.560836 0.746265 0
M  V30 30 H 8.73131 1.0789 -0.0525516 0
M  V30 31 H 9.05702 -0.392094 -1.01977 0
M  V30 32 H 6.84504 -0.813573 1.71727 0
M  V30 33 H 4.61521 -1.66404 0.119626 0
M  V30 34 H 4.75027 -1.58937 1.87749 0
M  V30 35 H 3.96699 0.857093 1.78476 0
M  V30 36 H 2.85751 -0.423128 1.10055 0
M  V30 37 H 4.68466 1.5556 -0.358156 0
M  V30 38 H 3.75535 0.299238 -1.22815 0
M  V30 39 H 2.63989 2.49229 -1.20401 0
M  V30 40 H 2.78267 2.56619 0.602443 0
M  V30 41 H 1.23353 0.764473 0.919277 0
M  V30 42 H 0.438731 2.04435 -0.0092669 0
M  V30 43 H 0.327599 -1.96118 -2.37544 0
M  V30 44 H -0.74572 -0.721811 -3.04679 0
M  V30 45 H -1.46572 -2.84368 -0.935097 0
M  V30 46 H -1.64632 -3.09935 -2.69185 0
M  V30 47 H -2.37742 0.216165 -2.14596 0
M  V30 48 H -4.02826 -0.0768854 -1.55151 0
M  V30 49 H -0.781077 0.604281 0.711999 0
M  V30 50 H -0.90344 -1.19201 0.893897 0
M  V30 51 H -3.11273 1.77758 -0.211482 0
M  V30 52 H -2.61592 1.26032 1.49442 0
M  V30 53 H -5.86328 3.23213 0.225968 0
M  V30 54 H -5.39601 3.2342 1.9484 0
M  V30 55 H -8.26137 -1.81594 2.84899 0
M  V30 56 H -8.85746 -1.4753 1.21213 0
M  V30 END ATOM
M  V30 BEGIN BOND
M  V30 1 1 1 2
M  V30 2 2 2 3
M  V30 3 1 2 4
M  V30 4 1 4 5
M  V30 5 1 5 6
M  V30 6 1 6 7
M  V30 7 1 7 8
M  V30 8 1 8 9
M  V30 9 1 9 10
M  V30 10 2 10 11
M  V30 11 1 10 12
M  V30 12 1 12 13
M  V30 13 1 13 14
M  V30 14 1 14 15
M  V30 15 1 15 16
M  V30 16 1 16 17
M  V30 17 1 17 18
M  V30 18 1 17 19
M  V30 19 1 19 20
M  V30 20 2 20 21
M  V30 21 1 21 22
M  V30 22 1 21 23
M  V30 23 1 23 24
M  V30 24 2 23 25
M  V30 25 1 25 26
M  V30 26 2 26 27
M  V30 27 1 26 28
M  V30 28 1 18 12
M  V30 29 1 27 20
M  V30 30 1 22 17
M  V30 31 1 1 29
M  V30 32 1 1 30
M  V30 33 1 1 31
M  V30 34 1 4 32
M  V30 35 1 5 33
M  V30 36 1 5 34
M  V30 37 1 6 35
M  V30 38 1 6 36
M  V30 39 1 7 37
M  V30 40 1 7 38
M  V30 41 1 8 39
M  V30 42 1 8 40
M  V30 43 1 9 41
M  V30 44 1 9 42
M  V30 45 1 13 43
M  V30 46 1 13 44
M  V30 47 1 14 45
M  V30 48 1 14 46
M  V30 49 1 16 47
M  V30 50 1 16 48
M  V30 51 1 18 49
M  V30 52 1 18 50
M  V30 53 1 22 51
M  V30 54 1 22 52
M  V30 55 1 24 53
M  V30 56 1 24 54
M  V30 57 1 28 55
M  V30 58 1 28 56
M  V30 END BOND
M  V30 END CTAB
M  END
