
     RDKit          3D

  0  0  0  0  0  0  0  0  0  0999 V3000
M  V30 BEGIN CTAB
M  V30 COUNTS 28 29 0 0 0
M  V30 BEGIN ATOM
M  V30 1 N 2.56625 0.150285 -2.21367 0
M  V30 2 C 2.20117 0.0265661 -0.838296 0
M  V30 3 N 0.930655 0.173915 -0.422164 0
M  V30 4 C 0.55673 0.0627258 0.869265 0
M  V30 5 N -0.799524 0.227963 1.25353 0
M  V30 6 C -1.79297 0.519635 0.243936 0
M  V30 7 C -3.1775 0.662151 0.835651 0
M  V30 8 C -4.05053 0.385347 -0.370861 0
M  V30 9 C -3.26017 -0.688343 -1.06621 0
M  V30 10 C -1.98652 -0.600696 -0.709717 0
M  V30 11 C 1.52382 -0.218322 1.82985 0
M  V30 12 C 2.81987 -0.370575 1.42003 0
M  V30 13 C 3.1736 -0.252863 0.103612 0
M  V30 14 N 4.51736 -0.408117 -0.340537 0
M  V30 15 H 3.34868 -0.357816 -2.65618 0
M  V30 16 H 2.00811 0.795647 -2.81462 0
M  V30 17 H -1.08105 0.142839 2.2367 0
M  V30 18 H -1.54492 1.45622 -0.282177 0
M  V30 19 H -3.39967 -0.138095 1.57649 0
M  V30 20 H -3.34948 1.65896 1.27205 0
M  V30 21 H -4.03735 1.2872 -1.04175 0
M  V30 22 H -5.06279 0.0663349 -0.114947 0
M  V30 23 H -3.71936 -1.39688 -1.74478 0
M  V30 24 H -1.203 -1.25381 -1.06491 0
M  V30 25 H 1.21567 -0.307925 2.87868 0
M  V30 26 H 3.5655 -0.58905 2.17413 0
M  V30 27 H 4.87231 -1.39024 -0.463605 0
M  V30 28 H 5.16511 0.356936 -0.549505 0
M  V30 END ATOM
M  V30 BEGIN BOND
M  V30 1 1 1 2
M  V30 2 2 2 3
M  V30 3 1 3 4
M  V30 4 1 4 5
M  V30 5 1 5 6
M  V30 6 1 6 7
M  V30 7 1 7 8
M  V30 8 1 8 9
M  V30 9 2 9 10
M  V30 10 2 4 11
M  V30 11 1 11 12
M  V30 12 2 12 13
M  V30 13 1 13 14
M  V30 14 1 13 2
M  V30 15 1 10 6
M  V30 16 1 1 15
M  V30 17 1 1 16
M  V30 18 1 5 17
M  V30 19 1 6 18
M  V30 20 1 7 19
M  V30 21 1 7 20
M  V30 22 1 8 21
M  V30 23 1 8 22
M  V30 24 1 9 23
M  V30 25 1 10 24
M  V30 26 1 11 25
M  V30 27 1 12 26
M  V30 28 1 14 27
M  V30 29 1 14 28
M  V30 END BOND
M  V30 END CTAB
M  END
