
     RDKit          3D

  0  0  0  0  0  0  0  0  0  0999 V3000
M  V30 BEGIN CTAB
M  V30 COUNTS 24 25 0 0 0
M  V30 BEGIN ATOM
M  V30 1 N 2.63148 2.42126 0.453397 0
M  V30 2 C 2.0268 1.14799 0.223759 0
M  V30 3 N 0.698409 1.00771 0.0933624 0
M  V30 4 C 0.210653 -0.220319 -0.120189 0
M  V30 5 N 1.06648 -1.25192 -0.194172 0
M  V30 6 C 2.38171 -1.12685 -0.0670157 0
M  V30 7 N 2.87211 0.100935 0.146719 0
M  V30 8 N 3.24886 -2.24259 -0.151872 0
M  V30 9 C -1.22241 -0.508493 -0.280141 0
M  V30 10 C -1.89682 0.36003 -1.30307 0
M  V30 11 O -3.20348 0.534774 -0.936637 0
M  V30 12 C -3.39688 0.0264532 0.323741 0
M  V30 13 C -2.01912 -0.102323 0.969363 0
M  V30 14 H 3.441 2.50728 1.09901 0
M  V30 15 H 2.29708 3.29703 -0.00371287 0
M  V30 16 H 3.71136 -2.44779 -1.05511 0
M  V30 17 H 3.40229 -2.82816 0.687312 0
M  V30 18 H -1.43609 -1.56277 -0.446561 0
M  V30 19 H -1.41386 1.38124 -1.28872 0
M  V30 20 H -1.80911 -0.0809925 -2.33578 0
M  V30 21 H -4.10143 0.581693 0.949622 0
M  V30 22 H -3.79882 -1.02076 0.190762 0
M  V30 23 H -2.0029 -0.869823 1.7395 0
M  V30 24 H -1.68733 0.896385 1.30645 0
M  V30 END ATOM
M  V30 BEGIN BOND
M  V30 1 1 1 2
M  V30 2 2 2 3
M  V30 3 1 3 4
M  V30 4 2 4 5
M  V30 5 1 5 6
M  V30 6 2 6 7
M  V30 7 1 6 8
M  V30 8 1 4 9
M  V30 9 1 9 10
M  V30 10 1 10 11
M  V30 11 1 11 12
M  V30 12 1 12 13
M  V30 13 1 7 2
M  V30 14 1 13 9
M  V30 15 1 1 14
M  V30 16 1 1 15
M  V30 17 1 8 16
M  V30 18 1 8 17
M  V30 19 1 9 18
M  V30 20 1 10 19
M  V30 21 1 10 20
M  V30 22 1 12 21
M  V30 23 1 12 22
M  V30 24 1 13 23
M  V30 25 1 13 24
M  V30 END BOND
M  V30 END CTAB
M  END
