
     RDKit          3D

  0  0  0  0  0  0  0  0  0  0999 V3000
M  V30 BEGIN CTAB
M  V30 COUNTS 35 37 0 0 0
M  V30 BEGIN ATOM
M  V30 1 N 5.91299 0.672308 0.475756 0
M  V30 2 C 5.33495 -0.342815 -0.315998 0
M  V30 3 N 6.15011 -1.08304 -1.2205 0
M  V30 4 N 4.05816 -0.622472 -0.238493 0
M  V30 5 C 3.2223 0.0901787 0.6458 0
M  V30 6 O 3.67457 0.726165 1.60944 0
M  V30 7 C 1.76932 0.0836375 0.42495 0
M  V30 8 C 1.22841 -0.611068 -0.6346 0
M  V30 9 C -0.129953 -0.614492 -0.837381 0
M  V30 10 C -0.978412 0.0766731 0.0145302 0
M  V30 11 C -0.473516 0.781621 1.08368 0
M  V30 12 C 0.913963 0.762526 1.25886 0
M  V30 13 C -2.34977 -0.11909 -0.457948 0
M  V30 14 C -3.53468 0.35661 0.0453168 0
M  V30 15 C -3.70282 1.21662 1.20556 0
M  V30 16 O -5.06933 1.50096 1.44577 0
M  V30 17 C -4.70521 -0.00967901 -0.632504 0
M  V30 18 C -4.69819 -0.807451 -1.75331 0
M  V30 19 C -3.48991 -1.26361 -2.22663 0
M  V30 20 C -2.3339 -0.924444 -1.58845 0
M  V30 21 C -0.953743 -1.26052 -1.86443 0
M  V30 22 O -0.570944 -1.97809 -2.81987 0
M  V30 23 H 6.1273 1.60286 0.0759983 0
M  V30 24 H 6.12297 0.478981 1.46649 0
M  V30 25 H 6.83698 -0.645547 -1.86883 0
M  V30 26 H 6.06492 -2.12007 -1.24549 0
M  V30 27 H 1.87547 -1.16782 -1.32628 0
M  V30 28 H -1.08391 1.33968 1.78843 0
M  V30 29 H 1.34668 1.31095 2.09618 0
M  V30 30 H -3.17007 2.17866 1.16536 0
M  V30 31 H -3.34978 0.683934 2.10691 0
M  V30 32 H -5.32157 2.34559 0.996262 0
M  V30 33 H -5.67106 0.330994 -0.287781 0
M  V30 34 H -5.6112 -1.07855 -2.26148 0
M  V30 35 H -3.44113 -1.89019 -3.10119 0
M  V30 END ATOM
M  V30 BEGIN BOND
M  V30 1 1 1 2
M  V30 2 1 2 3
M  V30 3 2 2 4
M  V30 4 1 4 5
M  V30 5 2 5 6
M  V30 6 1 5 7
M  V30 7 2 7 8
M  V30 8 1 8 9
M  V30 9 2 9 10
M  V30 10 1 10 11
M  V30 11 2 11 12
M  V30 12 1 10 13
M  V30 13 2 13 14
M  V30 14 1 14 15
M  V30 15 1 15 16
M  V30 16 1 14 17
M  V30 17 2 17 18
M  V30 18 1 18 19
M  V30 19 2 19 20
M  V30 20 1 20 21
M  V30 21 2 21 22
M  V30 22 1 12 7
M  V30 23 1 20 13
M  V30 24 1 21 9
M  V30 25 1 1 23
M  V30 26 1 1 24
M  V30 27 1 3 25
M  V30 28 1 3 26
M  V30 29 1 8 27
M  V30 30 1 11 28
M  V30 31 1 12 29
M  V30 32 1 15 30
M  V30 33 1 15 31
M  V30 34 1 16 32
M  V30 35 1 17 33
M  V30 36 1 18 34
M  V30 37 1 19 35
M  V30 END BOND
M  V30 END CTAB
M  END
