
     RDKit          3D

  0  0  0  0  0  0  0  0  0  0999 V3000
M  V30 BEGIN CTAB
M  V30 COUNTS 28 29 0 0 0
M  V30 BEGIN ATOM
M  V30 1 N 2.93671 2.5028 -0.153699 0
M  V30 2 C 2.59579 1.13759 -0.00357738 0
M  V30 3 C 3.56843 0.185547 0.219077 0
M  V30 4 C 3.20142 -1.13791 0.35929 0
M  V30 5 C 1.87147 -1.48538 0.275557 0
M  V30 6 N 1.54515 -2.88362 0.43213 0
M  V30 7 C 0.850662 -0.560988 0.0525396 0
M  V30 8 C 1.24959 0.739435 -0.0826856 0
M  V30 9 C -0.505936 -1.05218 -0.0576808 0
M  V30 10 O -0.693444 -2.33248 -0.0298545 0
M  V30 11 C -1.71427 -0.296775 -0.198742 0
M  V30 12 C -2.76382 -0.780943 -0.986354 0
M  V30 13 C -3.96874 -0.131863 -1.12568 0
M  V30 14 C -4.17196 1.06241 -0.460484 0
M  V30 15 C -3.16387 1.56045 0.317667 0
M  V30 16 C -1.94245 0.885732 0.448901 0
M  V30 17 H 3.80739 2.86611 0.305905 0
M  V30 18 H 2.36111 3.15305 -0.697495 0
M  V30 19 H 4.61757 0.475269 0.284635 0
M  V30 20 H 3.94586 -1.91991 0.536564 0
M  V30 21 H 1.69604 -3.48577 -0.400516 0
M  V30 22 H 1.18447 -3.2014 1.35372 0
M  V30 23 H 0.530243 1.50098 -0.27977 0
M  V30 24 H -2.58342 -1.71652 -1.49854 0
M  V30 25 H -4.75896 -0.540143 -1.74797 0
M  V30 26 H -5.12701 1.59027 -0.563249 0
M  V30 27 H -3.34565 2.50565 0.834173 0
M  V30 28 H -1.22239 1.36058 1.11448 0
M  V30 END ATOM
M  V30 BEGIN BOND
M  V30 1 1 1 2
M  V30 2 2 2 3
M  V30 3 1 3 4
M  V30 4 2 4 5
M  V30 5 1 5 6
M  V30 6 1 5 7
M  V30 7 2 7 8
M  V30 8 1 7 9
M  V30 9 2 9 10
M  V30 10 1 9 11
M  V30 11 2 11 12
M  V30 12 1 12 13
M  V30 13 2 13 14
M  V30 14 1 14 15
M  V30 15 2 15 16
M  V30 16 1 8 2
M  V30 17 1 16 11
M  V30 18 1 1 17
M  V30 19 1 1 18
M  V30 20 1 3 19
M  V30 21 1 4 20
M  V30 22 1 6 21
M  V30 23 1 6 22
M  V30 24 1 8 23
M  V30 25 1 12 24
M  V30 26 1 13 25
M  V30 27 1 14 26
M  V30 28 1 15 27
M  V30 29 1 16 28
M  V30 END BOND
M  V30 END CTAB
M  END
