
     RDKit          3D

  0  0  0  0  0  0  0  0  0  0999 V3000
M  V30 BEGIN CTAB
M  V30 COUNTS 38 40 0 0 0
M  V30 BEGIN ATOM
M  V30 1 N -1.88942 -4.09539 -0.95318 0
M  V30 2 C -1.11729 -3.26528 -0.729776 0
M  V30 3 C -0.145982 -2.25586 -0.497495 0
M  V30 4 C 1.18381 -2.65241 -0.681712 0
M  V30 5 N 1.53389 -3.98856 -0.999118 0
M  V30 6 N 2.13201 -1.73981 -0.551639 0
M  V30 7 C 1.88449 -0.466935 -0.25514 0
M  V30 8 C 0.591515 -0.082608 -0.07498 0
M  V30 9 C -0.48621 -0.979668 -0.190651 0
M  V30 10 C -1.83693 -0.487466 0.103683 0
M  V30 11 C -2.95631 -1.16437 0.442794 0
M  V30 12 C -3.9734 -0.215908 0.62144 0
M  V30 13 C -3.38698 0.996913 0.374386 0
M  V30 14 O -2.14594 0.813164 0.0761422 0
M  V30 15 C -4.11064 2.32993 0.448092 0
M  V30 16 C -5.55035 2.12033 0.825684 0
M  V30 17 C 3.00549 0.516002 -0.122572 0
M  V30 18 N 2.80108 1.76523 0.16559 0
M  V30 19 C 3.81202 2.60014 0.273866 0
M  V30 20 S 5.15213 1.59721 -0.0438883 0
M  V30 21 C 4.31544 0.130224 -0.303168 0
M  V30 22 C 4.85754 -1.23629 -0.641782 0
M  V30 23 N 3.73707 4.01185 0.58805 0
M  V30 24 H 1.15738 -4.48378 -1.81969 0
M  V30 25 H 2.20024 -4.50563 -0.384849 0
M  V30 26 H 0.341975 0.938504 0.167244 0
M  V30 27 H -3.13301 -2.21747 0.602467 0
M  V30 28 H -4.99403 -0.415195 0.895076 0
M  V30 29 H -3.62276 3.01305 1.14936 0
M  V30 30 H -4.03743 2.76085 -0.568841 0
M  V30 31 H -6.00642 1.25338 0.311041 0
M  V30 32 H -5.62042 2.00176 1.92938 0
M  V30 33 H -6.14564 3.01463 0.559538 0
M  V30 34 H 4.47711 -1.58664 -1.61584 0
M  V30 35 H 5.97622 -1.09639 -0.688541 0
M  V30 36 H 4.60612 -1.94696 0.149581 0
M  V30 37 H 3.20078 4.29477 1.438 0
M  V30 38 H 4.19285 4.7247 0.0014398 0
M  V30 END ATOM
M  V30 BEGIN BOND
M  V30 1 3 1 2
M  V30 2 1 2 3
M  V30 3 2 3 4
M  V30 4 1 4 5
M  V30 5 1 4 6
M  V30 6 2 6 7
M  V30 7 1 7 8
M  V30 8 2 8 9
M  V30 9 1 9 10
M  V30 10 2 10 11
M  V30 11 1 11 12
M  V30 12 2 12 13
M  V30 13 1 13 14
M  V30 14 1 13 15
M  V30 15 1 15 16
M  V30 16 1 7 17
M  V30 17 1 17 18
M  V30 18 2 18 19
M  V30 19 1 19 20
M  V30 20 1 20 21
M  V30 21 1 21 22
M  V30 22 1 19 23
M  V30 23 1 9 3
M  V30 24 1 14 10
M  V30 25 2 21 17
M  V30 26 1 5 24
M  V30 27 1 5 25
M  V30 28 1 8 26
M  V30 29 1 11 27
M  V30 30 1 12 28
M  V30 31 1 15 29
M  V30 32 1 15 30
M  V30 33 1 16 31
M  V30 34 1 16 32
M  V30 35 1 16 33
M  V30 36 1 22 34
M  V30 37 1 22 35
M  V30 38 1 22 36
M  V30 39 1 23 37
M  V30 40 1 23 38
M  V30 END BOND
M  V30 END CTAB
M  END
