
     RDKit          3D

  0  0  0  0  0  0  0  0  0  0999 V3000
M  V30 BEGIN CTAB
M  V30 COUNTS 22 23 0 0 0
M  V30 BEGIN ATOM
M  V30 1 C 4.04751 -0.421351 -0.290306 0
M  V30 2 N 2.65474 -0.100556 0.0592476 0
M  V30 3 N 2.23321 0.631963 1.07516 0
M  V30 4 C 0.881942 0.716546 1.08964 0
M  V30 5 C 0.409758 -0.00748584 0.0153336 0
M  V30 6 C 1.54723 -0.494749 -0.592779 0
M  V30 7 C -0.984852 -0.20366 -0.375751 0
M  V30 8 N -1.4638 -0.90506 -1.41827 0
M  V30 9 N -2.78477 -0.846601 -1.43881 0
M  V30 10 C -3.2067 -0.0873423 -0.384515 0
M  V30 11 N -2.06789 0.292347 0.249269 0
M  V30 12 N -4.54552 0.217115 -0.0540813 0
M  V30 13 N 0.0363711 1.40071 2.0028 0
M  V30 14 H 4.6713 -0.5329 0.622158 0
M  V30 15 H 4.05922 -1.43322 -0.780296 0
M  V30 16 H 4.46252 0.284605 -1.00836 0
M  V30 17 H 1.5384 -1.11324 -1.47933 0
M  V30 18 H -0.826198 -1.40987 -2.09105 0
M  V30 19 H -4.77505 1.01618 0.555762 0
M  V30 20 H -5.30379 -0.372183 -0.431132 0
M  V30 21 H -0.347226 2.3381 1.73992 0
M  V30 22 H -0.23643 1.03064 2.9354 0
M  V30 END ATOM
M  V30 BEGIN BOND
M  V30 1 1 1 2
M  V30 2 1 2 3
M  V30 3 2 3 4
M  V30 4 1 4 5
M  V30 5 2 5 6
M  V30 6 1 5 7
M  V30 7 1 7 8
M  V30 8 1 8 9
M  V30 9 2 9 10
M  V30 10 1 10 11
M  V30 11 1 10 12
M  V30 12 1 4 13
M  V30 13 1 6 2
M  V30 14 2 11 7
M  V30 15 1 1 14
M  V30 16 1 1 15
M  V30 17 1 1 16
M  V30 18 1 6 17
M  V30 19 1 8 18
M  V30 20 1 12 19
M  V30 21 1 12 20
M  V30 22 1 13 21
M  V30 23 1 13 22
M  V30 END BOND
M  V30 END CTAB
M  END
