
     RDKit          3D

  0  0  0  0  0  0  0  0  0  0999 V3000
M  V30 BEGIN CTAB
M  V30 COUNTS 24 25 0 0 0
M  V30 BEGIN ATOM
M  V30 1 N -2.85406 -2.59699 -0.374082 0
M  V30 2 C -2.41427 -1.26126 -0.167707 0
M  V30 3 N -3.27714 -0.242507 -0.00327328 0
M  V30 4 C -2.8569 1.02177 0.19206 0
M  V30 5 N -3.85783 2.02732 0.35524 0
M  V30 6 N -1.53332 1.30946 0.229324 0
M  V30 7 C -0.613026 0.342478 0.0726584 0
M  V30 8 C -1.06403 -0.945582 -0.126221 0
M  V30 9 C 0.829046 0.651581 0.112619 0
M  V30 10 N 1.42782 1.81615 0.291354 0
M  V30 11 C 2.77013 1.63344 0.254961 0
M  V30 12 N 3.02281 0.328663 0.0493381 0
M  V30 13 C 1.83165 -0.282317 -0.039334 0
M  V30 14 C 4.32726 -0.307875 -0.0578191 0
M  V30 15 H -3.67799 -2.97441 0.13941 0
M  V30 16 H -2.38228 -3.24866 -1.03568 0
M  V30 17 H -3.99802 2.81511 -0.306227 0
M  V30 18 H -4.52495 2.01753 1.18329 0
M  V30 19 H -0.341558 -1.73262 -0.253596 0
M  V30 20 H 3.49774 2.42528 0.374627 0
M  V30 21 H 1.65824 -1.33652 -0.203279 0
M  V30 22 H 4.33039 -1.14092 -0.79199 0
M  V30 23 H 5.09595 0.453588 -0.286605 0
M  V30 24 H 4.60432 -0.772714 0.921363 0
M  V30 END ATOM
M  V30 BEGIN BOND
M  V30 1 1 1 2
M  V30 2 2 2 3
M  V30 3 1 3 4
M  V30 4 1 4 5
M  V30 5 2 4 6
M  V30 6 1 6 7
M  V30 7 2 7 8
M  V30 8 1 7 9
M  V30 9 1 9 10
M  V30 10 2 10 11
M  V30 11 1 11 12
M  V30 12 1 12 13
M  V30 13 1 12 14
M  V30 14 1 8 2
M  V30 15 2 13 9
M  V30 16 1 1 15
M  V30 17 1 1 16
M  V30 18 1 5 17
M  V30 19 1 5 18
M  V30 20 1 8 19
M  V30 21 1 11 20
M  V30 22 1 13 21
M  V30 23 1 14 22
M  V30 24 1 14 23
M  V30 25 1 14 24
M  V30 END BOND
M  V30 END CTAB
M  END
