
     RDKit          3D

  0  0  0  0  0  0  0  0  0  0999 V3000
M  V30 BEGIN CTAB
M  V30 COUNTS 24 24 0 0 0
M  V30 BEGIN ATOM
M  V30 1 C 2.78066 -1.90943 -0.70497 0
M  V30 2 N 2.57037 -0.486674 -0.605738 0
M  V30 3 C 1.33579 0.100294 -0.217137 0
M  V30 4 C 1.14812 1.4543 -0.124423 0
M  V30 5 C -0.0294114 2.05705 0.247215 0
M  V30 6 N -0.116241 3.47526 0.311209 0
M  V30 7 C -1.09818 1.23969 0.548214 0
M  V30 8 C -0.986958 -0.138824 0.47793 0
M  V30 9 C 0.222837 -0.684581 0.0980611 0
M  V30 10 S -2.32886 -1.19683 0.855054 0
M  V30 11 O -1.78782 -2.46675 1.43969 0
M  V30 12 O -3.1629 -0.533184 1.92214 0
M  V30 13 N -3.29405 -1.56267 -0.491992 0
M  V30 14 H 3.85972 -2.12754 -0.622771 0
M  V30 15 H 2.36321 -2.2169 -1.69411 0
M  V30 16 H 2.2063 -2.49088 0.0489086 0
M  V30 17 H 3.36037 0.149363 -0.82933 0
M  V30 18 H 2.02025 2.07514 -0.371264 0
M  V30 19 H 0.0660167 3.95821 1.23074 0
M  V30 20 H -0.353114 4.07048 -0.511389 0
M  V30 21 H -2.04043 1.68109 0.844493 0
M  V30 22 H 0.298659 -1.77217 0.04611 0
M  V30 23 H -4.22458 -1.10527 -0.500809 0
M  V30 24 H -2.80977 -1.56916 -1.39583 0
M  V30 END ATOM
M  V30 BEGIN BOND
M  V30 1 1 1 2
M  V30 2 1 2 3
M  V30 3 2 3 4
M  V30 4 1 4 5
M  V30 5 1 5 6
M  V30 6 2 5 7
M  V30 7 1 7 8
M  V30 8 2 8 9
M  V30 9 1 8 10
M  V30 10 2 10 11
M  V30 11 2 10 12
M  V30 12 1 10 13
M  V30 13 1 9 3
M  V30 14 1 1 14
M  V30 15 1 1 15
M  V30 16 1 1 16
M  V30 17 1 2 17
M  V30 18 1 4 18
M  V30 19 1 6 19
M  V30 20 1 6 20
M  V30 21 1 7 21
M  V30 22 1 9 22
M  V30 23 1 13 23
M  V30 24 1 13 24
M  V30 END BOND
M  V30 END CTAB
M  END
