
     RDKit          3D

  0  0  0  0  0  0  0  0  0  0999 V3000
M  V30 BEGIN CTAB
M  V30 COUNTS 43 45 0 0 0
M  V30 BEGIN ATOM
M  V30 1 N -7.67409 -1.29972 -2.80557 0
M  V30 2 C -6.61848 -0.922722 -1.92177 0
M  V30 3 C -6.86825 -0.431633 -0.658269 0
M  V30 4 C -5.84132 -0.0689927 0.19105 0
M  V30 5 C -4.50752 -0.179956 -0.182705 0
M  V30 6 C -3.4625 0.219164 0.757927 0
M  V30 7 C -2.1873 0.16533 0.53314 0
M  V30 8 C -1.12785 0.562429 1.46764 0
M  V30 9 C -1.37917 1.051 2.725 0
M  V30 10 C -0.359717 1.4277 3.61047 0
M  V30 11 C 0.929133 1.27953 3.14522 0
M  V30 12 C 1.20229 0.791222 1.88701 0
M  V30 13 C 2.6007 0.654687 1.44367 0
M  V30 14 C 2.92773 0.199194 0.265087 0
M  V30 15 C 4.28969 0.0405585 -0.23181 0
M  V30 16 C 5.40936 0.360288 0.502054 0
M  V30 17 C 6.69437 0.188317 -0.0233275 0
M  V30 18 C 6.88843 -0.307169 -1.29417 0
M  V30 19 N 8.21017 -0.471587 -1.80289 0
M  V30 20 C 5.76784 -0.627762 -2.03016 0
M  V30 21 C 4.4974 -0.454611 -1.50279 0
M  V30 22 N 0.17697 0.452247 1.0977 0
M  V30 23 C -4.26514 -0.670415 -1.4441 0
M  V30 24 C -5.30166 -1.03739 -2.30377 0
M  V30 25 H -8.64582 -0.969744 -2.69181 0
M  V30 26 H -7.46441 -1.92918 -3.59476 0
M  V30 27 H -7.91001 -0.345841 -0.368574 0
M  V30 28 H -6.05447 0.316882 1.18502 0
M  V30 29 H -3.76823 0.596666 1.73708 0
M  V30 30 H -1.88549 -0.216735 -0.457332 0
M  V30 31 H -2.39227 1.15685 3.06376 0
M  V30 32 H -0.585323 1.80918 4.59427 0
M  V30 33 H 1.77551 1.55591 3.78808 0
M  V30 34 H 3.38901 0.942889 2.12047 0
M  V30 35 H 2.08361 -0.0766262 -0.376445 0
M  V30 36 H 5.30238 0.749907 1.4982 0
M  V30 37 H 7.58222 0.444824 0.566135 0
M  V30 38 H 8.78088 0.370973 -2.03802 0
M  V30 39 H 8.64566 -1.39565 -1.95576 0
M  V30 40 H 5.89183 -1.01869 -3.03082 0
M  V30 41 H 3.60377 -0.708171 -2.08439 0
M  V30 42 H -3.26246 -0.780525 -1.7928 0
M  V30 43 H -5.08748 -1.42263 -3.29619 0
M  V30 END ATOM
M  V30 BEGIN BOND
M  V30 1 1 1 2
M  V30 2 2 2 3
M  V30 3 1 3 4
M  V30 4 2 4 5
M  V30 5 1 5 6
M  V30 6 2 6 7
M  V30 7 1 7 8
M  V30 8 2 8 9
M  V30 9 1 9 10
M  V30 10 2 10 11
M  V30 11 1 11 12
M  V30 12 1 12 13
M  V30 13 2 13 14
M  V30 14 1 14 15
M  V30 15 2 15 16
M  V30 16 1 16 17
M  V30 17 2 17 18
M  V30 18 1 18 19
M  V30 19 1 18 20
M  V30 20 2 20 21
M  V30 21 2 12 22
M  V30 22 1 5 23
M  V30 23 2 23 24
M  V30 24 1 24 2
M  V30 25 1 22 8
M  V30 26 1 21 15
M  V30 27 1 1 25
M  V30 28 1 1 26
M  V30 29 1 3 27
M  V30 30 1 4 28
M  V30 31 1 6 29
M  V30 32 1 7 30
M  V30 33 1 9 31
M  V30 34 1 10 32
M  V30 35 1 11 33
M  V30 36 1 13 34
M  V30 37 1 14 35
M  V30 38 1 16 36
M  V30 39 1 17 37
M  V30 40 1 19 38
M  V30 41 1 19 39
M  V30 42 1 20 40
M  V30 43 1 21 41
M  V30 44 1 23 42
M  V30 45 1 24 43
M  V30 END BOND
M  V30 END CTAB
M  END
