
     RDKit          3D

  0  0  0  0  0  0  0  0  0  0999 V3000
M  V30 BEGIN CTAB
M  V30 COUNTS 49 49 0 0 0
M  V30 BEGIN ATOM
M  V30 1 C -1.80102 -1.11654 -0.612578 0
M  V30 2 C -2.1458 0.0532043 0.306346 0 CFG=1
M  V30 3 C -3.42786 -0.25049 0.991882 0
M  V30 4 C -4.582 -0.463583 0.124261 0
M  V30 5 C -5.44043 0.504669 -0.318607 0
M  V30 6 C -6.5038 0.180781 -1.13715 0
M  V30 7 C -6.73563 -1.11949 -1.53319 0
M  V30 8 C -5.88324 -2.10668 -1.0981 0
M  V30 9 C -4.84199 -1.76561 -0.292436 0
M  V30 10 N -1.109 0.10453 1.35172 0
M  V30 11 C -0.229346 1.1998 1.50792 0
M  V30 12 O -0.253638 2.21398 0.777733 0
M  V30 13 C 0.774037 1.1335 2.59959 0 CFG=1
M  V30 14 N 0.65719 -0.0722626 3.38066 0
M  V30 15 C 2.19075 1.2991 2.04696 0
M  V30 16 C 2.45254 0.199213 1.07048 0
M  V30 17 C 3.79702 0.212842 0.434812 0
M  V30 18 C 4.11923 1.45193 -0.350954 0
M  V30 19 N 5.47538 1.24558 -0.88754 0
M  V30 20 C 5.70325 0.257502 -1.88834 0
M  V30 21 N 6.74628 -0.688901 -1.82464 0
M  V30 22 N 4.91303 0.227538 -2.90565 0
M  V30 23 H -1.81701 -2.04954 -0.0441112 0
M  V30 24 H -2.5152 -1.16432 -1.45139 0
M  V30 25 H -0.805144 -0.907508 -1.08993 0
M  V30 26 H -2.08285 1.00676 -0.22072 0
M  V30 27 H -3.28281 -1.14158 1.63537 0
M  V30 28 H -3.69273 0.590715 1.68 0
M  V30 29 H -5.25938 1.5123 -0.0107833 0
M  V30 30 H -7.18855 0.929642 -1.49451 0
M  V30 31 H -7.56582 -1.41168 -2.1785 0
M  V30 32 H -6.04362 -3.14017 -1.39619 0
M  V30 33 H -4.18538 -2.57386 0.0365127 0
M  V30 34 H -1.08256 -0.736042 1.96432 0
M  V30 35 H 0.57706 1.98376 3.27535 0
M  V30 36 H -0.297209 -0.0718351 3.80533 0
M  V30 37 H 0.744675 -0.952908 2.82985 0
M  V30 38 H 2.17147 2.26387 1.48662 0
M  V30 39 H 2.85671 1.31959 2.9115 0
M  V30 40 H 2.38347 -0.773728 1.63995 0
M  V30 41 H 1.63977 0.169945 0.327677 0
M  V30 42 H 3.80779 -0.639705 -0.306121 0
M  V30 43 H 4.60412 -0.0352845 1.15429 0
M  V30 44 H 3.47975 1.57436 -1.24433 0
M  V30 45 H 4.09515 2.37897 0.21726 0
M  V30 46 H 6.28652 1.80263 -0.558131 0
M  V30 47 H 7.66504 -0.590748 -2.29173 0
M  V30 48 H 6.6181 -1.5794 -1.26835 0
M  V30 49 H 5.01369 -0.464837 -3.67958 0
M  V30 END ATOM
M  V30 BEGIN BOND
M  V30 1 1 1 2
M  V30 2 1 2 3
M  V30 3 1 3 4
M  V30 4 2 4 5
M  V30 5 1 5 6
M  V30 6 2 6 7
M  V30 7 1 7 8
M  V30 8 2 8 9
M  V30 9 1 2 10
M  V30 10 1 10 11
M  V30 11 2 11 12
M  V30 12 1 11 13
M  V30 13 1 13 14
M  V30 14 1 13 15
M  V30 15 1 15 16
M  V30 16 1 16 17
M  V30 17 1 17 18
M  V30 18 1 18 19
M  V30 19 1 19 20
M  V30 20 1 20 21
M  V30 21 2 20 22 CFG=2
M  V30 22 1 9 4
M  V30 23 1 1 23
M  V30 24 1 1 24
M  V30 25 1 1 25
M  V30 26 1 2 26 CFG=3
M  V30 27 1 3 27
M  V30 28 1 3 28
M  V30 29 1 5 29
M  V30 30 1 6 30
M  V30 31 1 7 31
M  V30 32 1 8 32
M  V30 33 1 9 33
M  V30 34 1 10 34
M  V30 35 1 13 35 CFG=1
M  V30 36 1 14 36
M  V30 37 1 14 37
M  V30 38 1 15 38
M  V30 39 1 15 39
M  V30 40 1 16 40
M  V30 41 1 16 41
M  V30 42 1 17 42
M  V30 43 1 17 43
M  V30 44 1 18 44
M  V30 45 1 18 45
M  V30 46 1 19 46
M  V30 47 1 21 47
M  V30 48 1 21 48
M  V30 49 1 22 49
M  V30 END BOND
M  V30 END CTAB
M  END
