
     RDKit          3D

  0  0  0  0  0  0  0  0  0  0999 V3000
M  V30 BEGIN CTAB
M  V30 COUNTS 24 25 0 0 0
M  V30 BEGIN ATOM
M  V30 1 C 3.42472 -1.2038 0.556823 0
M  V30 2 C 2.27635 -0.323782 0.169565 0
M  V30 3 C 2.47847 0.934286 -0.362405 0
M  V30 4 C 1.40689 1.73429 -0.714774 0
M  V30 5 Cl 1.62823 3.33905 -1.39377 0
M  V30 6 C 0.0981817 1.31051 -0.550148 0
M  V30 7 C -0.103497 0.0583299 -0.0206709 0
M  V30 8 C 0.970196 -0.73856 0.330399 0
M  V30 9 C -1.41872 -0.38091 0.150446 0
M  V30 10 N -1.5918 -1.66634 0.694381 0
M  V30 11 C -2.50052 0.407909 -0.197295 0
M  V30 12 C -2.2188 1.65454 -0.723471 0
M  V30 13 N -0.951779 2.08175 -0.890049 0
M  V30 14 N -3.82733 -0.0423802 -0.0216309 0
M  V30 15 H 4.29258 -0.650519 0.90167 0
M  V30 16 H 3.67548 -1.7755 -0.383443 0
M  V30 17 H 3.026 -1.94995 1.26477 0
M  V30 18 H 3.48175 1.3115 -0.510835 0
M  V30 19 H 0.808269 -1.71519 0.743304 0
M  V30 20 H -1.60333 -1.743 1.7474 0
M  V30 21 H -1.70905 -2.54519 0.1568 0
M  V30 22 H -3.02179 2.32147 -1.01617 0
M  V30 23 H -4.29908 -0.527015 -0.801255 0
M  V30 24 H -4.32139 0.108505 0.870355 0
M  V30 END ATOM
M  V30 BEGIN BOND
M  V30 1 1 1 2
M  V30 2 2 2 3
M  V30 3 1 3 4
M  V30 4 1 4 5
M  V30 5 2 4 6
M  V30 6 1 6 7
M  V30 7 2 7 8
M  V30 8 1 7 9
M  V30 9 1 9 10
M  V30 10 2 9 11
M  V30 11 1 11 12
M  V30 12 2 12 13
M  V30 13 1 11 14
M  V30 14 1 8 2
M  V30 15 1 13 6
M  V30 16 1 1 15
M  V30 17 1 1 16
M  V30 18 1 1 17
M  V30 19 1 3 18
M  V30 20 1 8 19
M  V30 21 1 10 20
M  V30 22 1 10 21
M  V30 23 1 12 22
M  V30 24 1 14 23
M  V30 25 1 14 24
M  V30 END BOND
M  V30 END CTAB
M  END
