
     RDKit          3D

  0  0  0  0  0  0  0  0  0  0999 V3000
M  V30 BEGIN CTAB
M  V30 COUNTS 40 42 0 0 0
M  V30 BEGIN ATOM
M  V30 1 O -0.139573 -0.366064 0.40161 0
M  V30 2 C 0.414624 -0.368936 -0.703545 0
M  V30 3 N 1.79151 -0.208905 -0.956713 0
M  V30 4 C 2.78222 -0.02 0.019784 0
M  V30 5 C 2.5701 -0.0346976 1.3738 0
M  V30 6 C 3.61162 0.165246 2.2721 0
M  V30 7 C 4.90762 0.388023 1.84783 0
M  V30 8 C 5.13616 0.405967 0.488074 0
M  V30 9 C 4.10681 0.208413 -0.405164 0
M  V30 10 S 6.78666 0.674982 -0.0691163 0
M  V30 11 O 7.54406 1.50721 0.923682 0
M  V30 12 O 6.70932 1.41452 -1.37764 0
M  V30 13 N 7.59745 -0.818764 -0.33748 0
M  V30 14 C -0.448515 -0.573926 -1.94813 0
M  V30 15 S -1.44212 0.909946 -2.16314 0
M  V30 16 C -2.66313 0.977516 -0.864835 0
M  V30 17 N -2.48846 1.5566 0.323376 0
M  V30 18 N -3.59543 1.40961 0.988472 0
M  V30 19 C -4.50392 0.732082 0.23775 0
M  V30 20 N -3.8931 0.475654 -0.911288 0
M  V30 21 N -4.41379 -0.198672 -2.03372 0
M  V30 22 C -5.86256 0.412928 0.68595 0
M  V30 23 C -6.27428 -1.06431 0.865117 0
M  V30 24 C -6.90543 -0.182315 -0.144182 0
M  V30 25 H 2.10685 -0.240504 -1.99427 0
M  V30 26 H 1.58201 -0.208731 1.77014 0
M  V30 27 H 3.41804 0.153396 3.35801 0
M  V30 28 H 5.74124 0.554718 2.50636 0
M  V30 29 H 4.28075 0.226781 -1.4871 0
M  V30 30 H 7.93806 -0.894482 -1.31301 0
M  V30 31 H 7.02496 -1.64912 -0.090316 0
M  V30 32 H -1.06086 -1.46437 -1.67309 0
M  V30 33 H 0.205898 -0.75572 -2.79142 0
M  V30 34 H -4.8999 0.396815 -2.73805 0
M  V30 35 H -4.35546 -1.21317 -2.20791 0
M  V30 36 H -6.22043 1.03417 1.57787 0
M  V30 37 H -6.85736 -1.32687 1.76705 0
M  V30 38 H -5.44122 -1.75488 0.656014 0
M  V30 39 H -7.97878 0.109813 0.0936302 0
M  V30 40 H -6.81168 -0.369967 -1.22546 0
M  V30 END ATOM
M  V30 BEGIN BOND
M  V30 1 2 1 2
M  V30 2 1 2 3
M  V30 3 1 3 4
M  V30 4 2 4 5
M  V30 5 1 5 6
M  V30 6 2 6 7
M  V30 7 1 7 8
M  V30 8 2 8 9
M  V30 9 1 8 10
M  V30 10 2 10 11
M  V30 11 2 10 12
M  V30 12 1 10 13
M  V30 13 1 2 14
M  V30 14 1 14 15
M  V30 15 1 15 16
M  V30 16 2 16 17
M  V30 17 1 17 18
M  V30 18 2 18 19
M  V30 19 1 19 20
M  V30 20 1 20 21
M  V30 21 1 19 22
M  V30 22 1 22 23
M  V30 23 1 23 24
M  V30 24 1 9 4
M  V30 25 1 20 16
M  V30 26 1 24 22
M  V30 27 1 3 25
M  V30 28 1 5 26
M  V30 29 1 6 27
M  V30 30 1 7 28
M  V30 31 1 9 29
M  V30 32 1 13 30
M  V30 33 1 13 31
M  V30 34 1 14 32
M  V30 35 1 14 33
M  V30 36 1 21 34
M  V30 37 1 21 35
M  V30 38 1 22 36
M  V30 39 1 23 37
M  V30 40 1 23 38
M  V30 41 1 24 39
M  V30 42 1 24 40
M  V30 END BOND
M  V30 END CTAB
M  END
