
     RDKit          3D

  0  0  0  0  0  0  0  0  0  0999 V3000
M  V30 BEGIN CTAB
M  V30 COUNTS 23 23 0 0 0
M  V30 BEGIN ATOM
M  V30 1 C 3.37942 -0.642457 0.0143061 0
M  V30 2 N 2.28333 0.289815 0.11704 0
M  V30 3 C 0.926464 -0.09381 0.0193085 0
M  V30 4 C 0.563935 -1.42253 -0.182683 0
M  V30 5 C -0.767104 -1.76337 -0.273204 0
M  V30 6 C -1.77543 -0.814086 -0.168584 0
M  V30 7 N -3.14271 -1.17439 -0.261139 0
M  V30 8 C -1.39688 0.511747 0.0334425 0
M  V30 9 N -2.40185 1.50695 0.142806 0
M  V30 10 C -0.0731644 0.848705 0.123139 0
M  V30 11 N 0.327935 2.20084 0.330457 0 CHG=1
M  V30 12 O 0.242483 3.12936 -0.674168 0 CHG=-1
M  V30 13 O 0.765 2.56702 1.43351 0
M  V30 14 H 3.51802 -1.14542 1.01134 0
M  V30 15 H 3.24407 -1.37954 -0.801834 0
M  V30 16 H 4.31966 -0.0996062 -0.207694 0
M  V30 17 H 2.52126 1.28976 0.271828 0
M  V30 18 H 1.34813 -2.16148 -0.264854 0
M  V30 19 H -1.0657 -2.78871 -0.428431 0
M  V30 20 H -3.8531 -0.42922 -0.312048 0
M  V30 21 H -3.43021 -2.16325 -0.276779 0
M  V30 22 H -2.59221 1.93733 1.07317 0
M  V30 23 H -2.94135 1.79636 -0.718936 0
M  V30 END ATOM
M  V30 BEGIN BOND
M  V30 1 1 1 2
M  V30 2 1 2 3
M  V30 3 2 3 4
M  V30 4 1 4 5
M  V30 5 2 5 6
M  V30 6 1 6 7
M  V30 7 1 6 8
M  V30 8 1 8 9
M  V30 9 2 8 10
M  V30 10 1 10 11
M  V30 11 1 11 12
M  V30 12 2 11 13
M  V30 13 1 10 3
M  V30 14 1 1 14
M  V30 15 1 1 15
M  V30 16 1 1 16
M  V30 17 1 2 17
M  V30 18 1 4 18
M  V30 19 1 5 19
M  V30 20 1 7 20
M  V30 21 1 7 21
M  V30 22 1 9 22
M  V30 23 1 9 23
M  V30 END BOND
M  V30 END CTAB
M  END
