
     RDKit          3D

  0  0  0  0  0  0  0  0  0  0999 V3000
M  V30 BEGIN CTAB
M  V30 COUNTS 29 29 0 0 0
M  V30 BEGIN ATOM
M  V30 1 O 3.06867 -1.67777 -0.273075 0
M  V30 2 C 3.18723 -0.536006 -1.08998 0
M  V30 3 C 1.89175 0.276598 -0.969243 0
M  V30 4 C 0.721915 -0.555339 -1.41901 0
M  V30 5 C -0.211815 -0.917178 -0.295154 0
M  V30 6 C -0.698778 0.387145 0.319157 0
M  V30 7 C 0.441384 1.22049 0.85292 0
M  V30 8 C 1.7896 0.701154 0.472936 0
M  V30 9 N -1.72259 0.180293 1.30318 0
M  V30 10 C -2.9688 -0.0137987 0.999803 0
M  V30 11 N -3.34157 -0.0229702 -0.362923 0
M  V30 12 N -3.96721 -0.215954 1.97036 0
M  V30 13 H 3.55506 -1.55894 0.580018 0
M  V30 14 H 3.34577 -0.887038 -2.12488 0
M  V30 15 H 4.01881 0.0700618 -0.698943 0
M  V30 16 H 2.03056 1.19745 -1.57479 0
M  V30 17 H 1.03457 -1.43305 -2.02588 0
M  V30 18 H 0.124068 0.0928298 -2.12277 0
M  V30 19 H -1.11246 -1.38384 -0.768891 0
M  V30 20 H 0.23569 -1.59431 0.446324 0
M  V30 21 H -1.14735 0.966794 -0.51995 0
M  V30 22 H 0.340598 2.2813 0.595238 0
M  V30 23 H 0.384437 1.17705 1.98017 0
M  V30 24 H 2.08974 -0.102744 1.16993 0
M  V30 25 H 2.52101 1.53733 0.632383 0
M  V30 26 H -3.81652 -0.845941 -0.769515 0
M  V30 27 H -3.13536 0.800197 -0.949836 0
M  V30 28 H -4.28821 0.569114 2.55078 0
M  V30 29 H -4.37019 -1.15422 2.09164 0
M  V30 END ATOM
M  V30 BEGIN BOND
M  V30 1 1 1 2
M  V30 2 1 2 3
M  V30 3 1 3 4
M  V30 4 1 4 5
M  V30 5 1 5 6
M  V30 6 1 6 7
M  V30 7 1 7 8
M  V30 8 1 6 9
M  V30 9 2 9 10 CFG=2
M  V30 10 1 10 11
M  V30 11 1 10 12
M  V30 12 1 8 3
M  V30 13 1 1 13
M  V30 14 1 2 14
M  V30 15 1 2 15
M  V30 16 1 3 16
M  V30 17 1 4 17
M  V30 18 1 4 18
M  V30 19 1 5 19
M  V30 20 1 5 20
M  V30 21 1 6 21
M  V30 22 1 7 22
M  V30 23 1 7 23
M  V30 24 1 8 24
M  V30 25 1 8 25
M  V30 26 1 11 26
M  V30 27 1 11 27
M  V30 28 1 12 28
M  V30 29 1 12 29
M  V30 END BOND
M  V30 END CTAB
M  END
