
     RDKit          3D

  0  0  0  0  0  0  0  0  0  0999 V3000
M  V30 BEGIN CTAB
M  V30 COUNTS 47 49 0 0 0
M  V30 BEGIN ATOM
M  V30 1 C -4.18752 -4.1522 -0.345705 0
M  V30 2 C -4.61743 -3.00357 -1.23674 0
M  V30 3 O -3.96356 -1.80232 -0.869968 0
M  V30 4 C -2.62186 -1.57364 -0.907308 0
M  V30 5 O -1.89673 -2.52307 -1.31516 0
M  V30 6 C -1.9286 -0.343516 -0.529662 0
M  V30 7 S -0.222682 -0.0319164 -0.66306 0
M  V30 8 C -0.205504 1.5595 -0.0580215 0
M  V30 9 N -1.47928 1.76812 0.211519 0
M  V30 10 C -2.37182 0.845569 -0.00801949 0
M  V30 11 C -3.80629 1.13802 0.294542 0
M  V30 12 C -4.443 2.23458 -0.234283 0
M  V30 13 C -5.74724 2.54941 0.0665876 0
M  V30 14 C -6.47373 1.75774 0.92753 0
M  V30 15 C -5.85855 0.653312 1.47089 0
M  V30 16 C -4.52719 0.350348 1.15099 0
M  V30 17 N 0.893572 2.45546 0.0905817 0
M  V30 18 C 2.17636 2.07289 -0.344464 0
M  V30 19 O 2.43547 0.959651 -0.86712 0
M  V30 20 C 3.32134 3.03431 -0.19134 0
M  V30 21 S 4.40908 2.59907 1.15127 0
M  V30 22 C 5.30367 1.10564 0.753676 0
M  V30 23 N 4.83824 -0.104708 1.0762 0
M  V30 24 C 5.51361 -1.22984 0.775601 0
M  V30 25 N 5.00231 -2.50769 1.1325 0
M  V30 26 C 6.70931 -1.09959 0.119826 0
M  V30 27 C 7.217 0.158751 -0.228726 0
M  V30 28 N 6.48681 1.22215 0.105608 0
M  V30 29 N 8.45636 0.251793 -0.908062 0
M  V30 30 H -3.24128 -4.61021 -0.614842 0
M  V30 31 H -4.99613 -4.91805 -0.318521 0
M  V30 32 H -4.1451 -3.74175 0.687112 0
M  V30 33 H -4.43996 -3.23412 -2.31072 0
M  V30 34 H -5.69318 -2.84967 -1.07825 0
M  V30 35 H -3.84764 2.85887 -0.918362 0
M  V30 36 H -6.22563 3.4165 -0.361245 0
M  V30 37 H -7.51301 1.98218 1.18617 0
M  V30 38 H -6.44607 0.0496851 2.14307 0
M  V30 39 H -4.09575 -0.512451 1.61569 0
M  V30 40 H 0.725622 3.37689 0.514351 0
M  V30 41 H 3.88972 3.07061 -1.14765 0
M  V30 42 H 2.86551 4.05355 -0.0450906 0
M  V30 43 H 4.79663 -2.69381 2.13107 0
M  V30 44 H 4.86774 -3.18579 0.3424 0
M  V30 45 H 7.27654 -1.97808 -0.137139 0
M  V30 46 H 8.63815 1.04532 -1.53981 0
M  V30 47 H 9.17167 -0.473943 -0.767918 0
M  V30 END ATOM
M  V30 BEGIN BOND
M  V30 1 1 1 2
M  V30 2 1 2 3
M  V30 3 1 3 4
M  V30 4 2 4 5
M  V30 5 1 4 6
M  V30 6 1 6 7
M  V30 7 1 7 8
M  V30 8 2 8 9
M  V30 9 1 9 10
M  V30 10 1 10 11
M  V30 11 2 11 12
M  V30 12 1 12 13
M  V30 13 2 13 14
M  V30 14 1 14 15
M  V30 15 2 15 16
M  V30 16 1 8 17
M  V30 17 1 17 18
M  V30 18 2 18 19
M  V30 19 1 18 20
M  V30 20 1 20 21
M  V30 21 1 21 22
M  V30 22 2 22 23
M  V30 23 1 23 24
M  V30 24 1 24 25
M  V30 25 2 24 26
M  V30 26 1 26 27
M  V30 27 2 27 28
M  V30 28 1 27 29
M  V30 29 2 10 6
M  V30 30 1 16 11
M  V30 31 1 28 22
M  V30 32 1 1 30
M  V30 33 1 1 31
M  V30 34 1 1 32
M  V30 35 1 2 33
M  V30 36 1 2 34
M  V30 37 1 12 35
M  V30 38 1 13 36
M  V30 39 1 14 37
M  V30 40 1 15 38
M  V30 41 1 16 39
M  V30 42 1 17 40
M  V30 43 1 20 41
M  V30 44 1 20 42
M  V30 45 1 25 43
M  V30 46 1 25 44
M  V30 47 1 26 45
M  V30 48 1 29 46
M  V30 49 1 29 47
M  V30 END BOND
M  V30 END CTAB
M  END
