
     RDKit          3D

  0  0  0  0  0  0  0  0  0  0999 V3000
M  V30 BEGIN CTAB
M  V30 COUNTS 56 59 0 0 0
M  V30 BEGIN ATOM
M  V30 1 N -5.8966 -2.32616 -0.969835 0
M  V30 2 C -4.78522 -2.14517 -0.702135 0
M  V30 3 C -3.39183 -1.91476 -0.371284 0
M  V30 4 C -2.6939 -2.8516 0.35379 0
M  V30 5 N -3.37324 -4.02616 0.757751 0
M  V30 6 N -1.41332 -2.56596 0.617995 0
M  V30 7 C -0.775235 -1.4434 0.228788 0
M  V30 8 C -1.48064 -0.508596 -0.495851 0
M  V30 9 C -2.8219 -0.740477 -0.810051 0
M  V30 10 N -3.57824 0.181482 -1.57415 0
M  V30 11 C -0.822665 0.74614 -0.937783 0
M  V30 12 C -1.55208 1.92379 -0.346424 0
M  V30 13 C -1.65142 2.1242 1.01203 0
M  V30 14 C -2.30636 3.23234 1.5419 0
M  V30 15 C -2.88096 4.17169 0.708039 0
M  V30 16 C -2.77905 3.96704 -0.647513 0
M  V30 17 C -2.128 2.86592 -1.15756 0
M  V30 18 F -3.52427 5.26023 1.22915 0
M  V30 19 C 0.599989 0.815842 -0.568606 0
M  V30 20 C 1.27681 -0.0953776 0.118014 0
M  V30 21 N 0.606206 -1.2629 0.548183 0
M  V30 22 N 1.2107 -2.2758 1.27976 0
M  V30 23 C 1.0729 -3.57754 0.757643 0
M  V30 24 C 1.11696 -2.13616 2.68784 0
M  V30 25 C 2.70461 0.0417527 0.464509 0
M  V30 26 C 3.52591 0.732539 -0.569318 0
M  V30 27 C 2.81681 1.80423 -1.32921 0
M  V30 28 C 1.4086 1.97219 -0.97846 0
M  V30 29 O 0.885475 3.09208 -1.02405 0
M  V30 30 C 4.06507 -0.277703 -1.56177 0
M  V30 31 C 4.72604 1.34261 0.127077 0
M  V30 32 H -4.23762 -3.98854 1.30378 0
M  V30 33 H -2.96046 -4.93901 0.478299 0
M  V30 34 H -3.28573 0.314713 -2.56849 0
M  V30 35 H -4.38618 0.689237 -1.14188 0
M  V30 36 H -0.971785 0.80088 -2.05522 0
M  V30 37 H -1.20394 1.3929 1.67086 0
M  V30 38 H -2.37907 3.38075 2.60555 0
M  V30 39 H -3.22204 4.69076 -1.30907 0
M  V30 40 H -2.07846 2.7563 -2.22362 0
M  V30 41 H 0.411935 -4.25733 1.34515 0
M  V30 42 H 0.807974 -3.53179 -0.307834 0
M  V30 43 H 2.0869 -4.0762 0.793695 0
M  V30 44 H 0.939935 -3.11401 3.1721 0
M  V30 45 H 2.12458 -1.79961 3.0711 0
M  V30 46 H 0.374019 -1.37793 2.99788 0
M  V30 47 H 3.12789 -0.974586 0.594954 0
M  V30 48 H 2.75672 0.531364 1.46189 0
M  V30 49 H 2.84905 1.61492 -2.444 0
M  V30 50 H 3.32529 2.78383 -1.20712 0
M  V30 51 H 4.74141 -1.0051 -1.07573 0
M  V30 52 H 4.63537 0.299231 -2.33458 0
M  V30 53 H 3.21894 -0.776607 -2.07797 0
M  V30 54 H 5.59257 0.62858 0.0847213 0
M  V30 55 H 5.04136 2.26356 -0.4072 0
M  V30 56 H 4.53019 1.56738 1.18424 0
M  V30 END ATOM
M  V30 BEGIN BOND
M  V30 1 3 1 2
M  V30 2 1 2 3
M  V30 3 2 3 4
M  V30 4 1 4 5
M  V30 5 1 4 6
M  V30 6 2 6 7
M  V30 7 1 7 8
M  V30 8 2 8 9
M  V30 9 1 9 10
M  V30 10 1 8 11
M  V30 11 1 11 12
M  V30 12 2 12 13
M  V30 13 1 13 14
M  V30 14 2 14 15
M  V30 15 1 15 16
M  V30 16 2 16 17
M  V30 17 1 15 18
M  V30 18 1 11 19
M  V30 19 2 19 20
M  V30 20 1 20 21
M  V30 21 1 21 22
M  V30 22 1 22 23
M  V30 23 1 22 24
M  V30 24 1 20 25
M  V30 25 1 25 26
M  V30 26 1 26 27
M  V30 27 1 27 28
M  V30 28 2 28 29
M  V30 29 1 26 30
M  V30 30 1 26 31
M  V30 31 1 9 3
M  V30 32 1 17 12
M  V30 33 1 28 19
M  V30 34 1 21 7
M  V30 35 1 5 32
M  V30 36 1 5 33
M  V30 37 1 10 34
M  V30 38 1 10 35
M  V30 39 1 11 36
M  V30 40 1 13 37
M  V30 41 1 14 38
M  V30 42 1 16 39
M  V30 43 1 17 40
M  V30 44 1 23 41
M  V30 45 1 23 42
M  V30 46 1 23 43
M  V30 47 1 24 44
M  V30 48 1 24 45
M  V30 49 1 24 46
M  V30 50 1 25 47
M  V30 51 1 25 48
M  V30 52 1 27 49
M  V30 53 1 27 50
M  V30 54 1 30 51
M  V30 55 1 30 52
M  V30 56 1 30 53
M  V30 57 1 31 54
M  V30 58 1 31 55
M  V30 59 1 31 56
M  V30 END BOND
M  V30 END CTAB
M  END
