
     RDKit          3D

  0  0  0  0  0  0  0  0  0  0999 V3000
M  V30 BEGIN CTAB
M  V30 COUNTS 50 53 0 0 0
M  V30 BEGIN ATOM
M  V30 1 C 7.90219 0.26579 -0.675942 0
M  V30 2 C 6.68013 1.11801 -0.349275 0
M  V30 3 O 5.52056 0.313214 -0.432782 0
M  V30 4 C 4.28134 0.927392 -0.162269 0
M  V30 5 O 4.27152 2.14517 0.135828 0
M  V30 6 C 3.07438 0.141471 -0.236519 0
M  V30 7 C 2.95454 -1.21793 -0.556416 0
M  V30 8 N 4.04731 -2.06676 -0.869978 0
M  V30 9 O 1.67454 -1.52806 -0.507305 0
M  V30 10 C 0.983207 -0.471383 -0.182187 0
M  V30 11 C 1.79853 0.601663 7.45772e-05 0
M  V30 12 C 1.31535 1.83449 0.347795 0
M  V30 13 C -0.0385425 1.99254 0.518051 0
M  V30 14 O -0.734124 3.04629 0.842555 0
M  V30 15 C -1.98592 2.80005 0.903708 0
M  V30 16 C -2.16494 1.42427 0.585273 0
M  V30 17 C -0.904607 0.901854 0.336296 0
M  V30 18 C -0.414556 -0.315095 -0.00783168 0
M  V30 19 C -1.20324 -1.49748 -0.215223 0
M  V30 20 C -1.62504 -1.83977 -1.47505 0
M  V30 21 C -2.26607 -3.03084 -1.71484 0
M  V30 22 C -2.4942 -3.90772 -0.669332 0
M  V30 23 C -2.07982 -3.58641 0.605627 0
M  V30 24 C -1.4292 -2.3671 0.823066 0
M  V30 25 F -3.13565 -5.09241 -0.927847 0
M  V30 26 C -3.44801 0.813774 0.558494 0
M  V30 27 O -3.81641 -0.30599 0.317058 0
M  V30 28 O -4.55584 1.66271 0.876725 0
M  V30 29 C -5.87147 1.07696 0.860372 0
M  V30 30 C -6.23652 0.528606 -0.482441 0
M  V30 31 N -3.04233 3.72194 1.23105 0
M  V30 32 H 7.98652 -0.47479 0.146204 0
M  V30 33 H 8.78365 0.914658 -0.768711 0
M  V30 34 H 7.66218 -0.268876 -1.60837 0
M  V30 35 H 6.64393 1.98425 -1.04618 0
M  V30 36 H 6.74255 1.50748 0.690154 0
M  V30 37 H 4.05024 -2.62904 -1.74025 0
M  V30 38 H 4.87596 -2.15356 -0.243157 0
M  V30 39 H 1.94628 2.7167 0.50154 0
M  V30 40 H -1.45883 -1.17355 -2.30509 0
M  V30 41 H -2.6071 -3.31568 -2.7132 0
M  V30 42 H -2.26335 -4.2824 1.42302 0
M  V30 43 H -1.13269 -2.18012 1.84261 0
M  V30 44 H -6.55553 1.84159 1.22814 0
M  V30 45 H -5.79755 0.24518 1.62004 0
M  V30 46 H -6.51068 -0.564595 -0.418579 0
M  V30 47 H -7.15554 1.02125 -0.876772 0
M  V30 48 H -5.45091 0.661365 -1.25443 0
M  V30 49 H -3.69733 3.96252 0.443063 0
M  V30 50 H -3.1189 4.09838 2.18185 0
M  V30 END ATOM
M  V30 BEGIN BOND
M  V30 1 1 1 2
M  V30 2 1 2 3
M  V30 3 1 3 4
M  V30 4 2 4 5
M  V30 5 1 4 6
M  V30 6 2 6 7
M  V30 7 1 7 8
M  V30 8 1 7 9
M  V30 9 1 9 10
M  V30 10 2 10 11
M  V30 11 1 11 12
M  V30 12 2 12 13
M  V30 13 1 13 14
M  V30 14 1 14 15
M  V30 15 2 15 16
M  V30 16 1 16 17
M  V30 17 2 17 18
M  V30 18 1 18 19
M  V30 19 2 19 20
M  V30 20 1 20 21
M  V30 21 2 21 22
M  V30 22 1 22 23
M  V30 23 2 23 24
M  V30 24 1 22 25
M  V30 25 1 16 26
M  V30 26 2 26 27
M  V30 27 1 26 28
M  V30 28 1 28 29
M  V30 29 1 29 30
M  V30 30 1 15 31
M  V30 31 1 11 6
M  V30 32 1 17 13
M  V30 33 1 24 19
M  V30 34 1 18 10
M  V30 35 1 1 32
M  V30 36 1 1 33
M  V30 37 1 1 34
M  V30 38 1 2 35
M  V30 39 1 2 36
M  V30 40 1 8 37
M  V30 41 1 8 38
M  V30 42 1 12 39
M  V30 43 1 20 40
M  V30 44 1 21 41
M  V30 45 1 23 42
M  V30 46 1 24 43
M  V30 47 1 29 44
M  V30 48 1 29 45
M  V30 49 1 30 46
M  V30 50 1 30 47
M  V30 51 1 30 48
M  V30 52 1 31 49
M  V30 53 1 31 50
M  V30 END BOND
M  V30 END CTAB
M  END
