
     RDKit          3D

  0  0  0  0  0  0  0  0  0  0999 V3000
M  V30 BEGIN CTAB
M  V30 COUNTS 42 43 0 0 0
M  V30 BEGIN ATOM
M  V30 1 N 4.54548 1.26702 1.53766 0
M  V30 2 C 4.08798 -0.0246592 1.12605 0
M  V30 3 C 3.10099 0.0614697 -0.0323212 0
M  V30 4 C 3.81985 0.730495 -1.18353 0
M  V30 5 C 2.66254 -1.29073 -0.4822 0
M  V30 6 C 1.31026 -0.934184 -1.13892 0
M  V30 7 N 0.716122 -0.129511 -0.109462 0
M  V30 8 C 1.83194 0.738071 0.338497 0
M  V30 9 C -0.582261 -0.0711642 0.418105 0
M  V30 10 O -0.769714 0.775438 1.3783 0
M  V30 11 C -1.76696 -0.827046 0.0451966 0
M  V30 12 C -2.93187 0.0574451 -0.265879 0
M  V30 13 C -4.15877 -0.281007 0.2364 0
M  V30 14 C -5.24843 0.539593 -0.0490242 0
M  V30 15 C -5.10335 1.66817 -0.818678 0
M  V30 16 C -3.86075 1.96403 -1.2968 0
M  V30 17 C -2.75859 1.19533 -1.0481 0
M  V30 18 N -1.62118 -1.69858 -1.0907 0
M  V30 19 C -2.22292 -1.72546 1.21322 0
M  V30 20 H 5.5828 1.35206 1.57212 0
M  V30 21 H 4.08994 2.03347 0.996882 0
M  V30 22 H 3.52848 -0.490863 1.96422 0
M  V30 23 H 4.9332 -0.666588 0.824244 0
M  V30 24 H 4.89078 0.461837 -1.10391 0
M  V30 25 H 3.73494 1.82088 -1.17729 0
M  V30 26 H 3.47696 0.344156 -2.16576 0
M  V30 27 H 3.32809 -1.77421 -1.19635 0
M  V30 28 H 2.38009 -1.9455 0.38532 0
M  V30 29 H 0.790517 -1.83563 -1.43501 0
M  V30 30 H 1.49918 -0.25794 -2.01198 0
M  V30 31 H 1.75857 0.736387 1.45708 0
M  V30 32 H 1.71279 1.76104 -0.0219511 0
M  V30 33 H -4.33758 -1.16751 0.854852 0
M  V30 34 H -6.22817 0.31389 0.323022 0
M  V30 35 H -5.93887 2.31327 -1.04791 0
M  V30 36 H -3.72957 2.84817 -1.90376 0
M  V30 37 H -1.76453 1.38889 -1.40246 0
M  V30 38 H -2.4941 -2.25667 -1.17001 0
M  V30 39 H -1.44979 -1.11202 -1.94135 0
M  V30 40 H -2.85702 -2.5561 0.871484 0
M  V30 41 H -2.67838 -1.15386 2.0241 0
M  V30 42 H -1.27865 -2.17187 1.60001 0
M  V30 END ATOM
M  V30 BEGIN BOND
M  V30 1 1 1 2
M  V30 2 1 2 3
M  V30 3 1 3 4
M  V30 4 1 3 5
M  V30 5 1 5 6
M  V30 6 1 6 7
M  V30 7 1 7 8
M  V30 8 1 7 9
M  V30 9 2 9 10
M  V30 10 1 9 11
M  V30 11 1 11 12
M  V30 12 2 12 13
M  V30 13 1 13 14
M  V30 14 2 14 15
M  V30 15 1 15 16
M  V30 16 2 16 17
M  V30 17 1 11 18
M  V30 18 1 11 19
M  V30 19 1 8 3
M  V30 20 1 17 12
M  V30 21 1 1 20
M  V30 22 1 1 21
M  V30 23 1 2 22
M  V30 24 1 2 23
M  V30 25 1 4 24
M  V30 26 1 4 25
M  V30 27 1 4 26
M  V30 28 1 5 27
M  V30 29 1 5 28
M  V30 30 1 6 29
M  V30 31 1 6 30
M  V30 32 1 8 31
M  V30 33 1 8 32
M  V30 34 1 13 33
M  V30 35 1 14 34
M  V30 36 1 15 35
M  V30 37 1 16 36
M  V30 38 1 17 37
M  V30 39 1 18 38
M  V30 40 1 18 39
M  V30 41 1 19 40
M  V30 42 1 19 41
M  V30 43 1 19 42
M  V30 END BOND
M  V30 END CTAB
M  END
