
     RDKit          3D

  0  0  0  0  0  0  0  0  0  0999 V3000
M  V30 BEGIN CTAB
M  V30 COUNTS 38 38 0 0 0
M  V30 BEGIN ATOM
M  V30 1 N 1.15624 -3.07067 -1.57176 0
M  V30 2 C 1.2356 -1.67387 -1.1254 0
M  V30 3 C 1.34638 -1.60579 0.366238 0
M  V30 4 C 1.43262 -0.279065 0.966711 0
M  V30 5 N 0.423473 0.70613 0.760822 0
M  V30 6 C 0.552992 1.68851 -0.232 0
M  V30 7 O -0.439394 2.48561 -0.392967 0
M  V30 8 C 1.67823 1.94984 -1.12396 0
M  V30 9 N 1.36231 3.05323 -2.04711 0
M  V30 10 C 2.94563 2.3946 -0.406343 0
M  V30 11 C -0.76837 0.763224 1.61835 0
M  V30 12 C -1.93415 0.0113417 1.18285 0
M  V30 13 C -2.09002 -1.33775 1.45676 0
M  V30 14 C -3.17488 -2.08869 1.08666 0
M  V30 15 C -4.19486 -1.49367 0.396156 0
M  V30 16 C -4.06784 -0.15683 0.1111 0
M  V30 17 C -2.96592 0.5993 0.489022 0
M  V30 18 H 1.78153 -3.22573 -2.40739 0
M  V30 19 H 1.54408 -3.67063 -0.810539 0
M  V30 20 H 2.19251 -1.26319 -1.53763 0
M  V30 21 H 0.411633 -1.08091 -1.5322 0
M  V30 22 H 2.39213 -2.08623 0.561308 0
M  V30 23 H 0.702668 -2.36324 0.874569 0
M  V30 24 H 1.46015 -0.425149 2.1077 0
M  V30 25 H 2.47505 0.125808 0.785913 0
M  V30 26 H 1.85586 1.09516 -1.78138 0
M  V30 27 H 0.779625 3.77397 -1.57757 0
M  V30 28 H 1.01279 2.7196 -2.94938 0
M  V30 29 H 2.83134 2.48335 0.673254 0
M  V30 30 H 3.38371 3.31865 -0.871625 0
M  V30 31 H 3.71078 1.61316 -0.609309 0
M  V30 32 H -0.428045 0.359826 2.60376 0
M  V30 33 H -1.0557 1.8335 1.74461 0
M  V30 34 H -1.3219 -1.89246 2.0121 0
M  V30 35 H -3.27813 -3.14218 1.30999 0
M  V30 36 H -5.05871 -2.0626 0.0934867 0
M  V30 37 H -4.89755 0.304959 -0.444627 0
M  V30 38 H -2.99188 1.63888 0.219816 0
M  V30 END ATOM
M  V30 BEGIN BOND
M  V30 1 1 1 2
M  V30 2 1 2 3
M  V30 3 1 3 4
M  V30 4 1 4 5
M  V30 5 1 5 6
M  V30 6 2 6 7
M  V30 7 1 6 8
M  V30 8 1 8 9
M  V30 9 1 8 10
M  V30 10 1 5 11
M  V30 11 1 11 12
M  V30 12 2 12 13
M  V30 13 1 13 14
M  V30 14 2 14 15
M  V30 15 1 15 16
M  V30 16 2 16 17
M  V30 17 1 17 12
M  V30 18 1 1 18
M  V30 19 1 1 19
M  V30 20 1 2 20
M  V30 21 1 2 21
M  V30 22 1 3 22
M  V30 23 1 3 23
M  V30 24 1 4 24
M  V30 25 1 4 25
M  V30 26 1 8 26
M  V30 27 1 9 27
M  V30 28 1 9 28
M  V30 29 1 10 29
M  V30 30 1 10 30
M  V30 31 1 10 31
M  V30 32 1 11 32
M  V30 33 1 11 33
M  V30 34 1 13 34
M  V30 35 1 14 35
M  V30 36 1 15 36
M  V30 37 1 16 37
M  V30 38 1 17 38
M  V30 END BOND
M  V30 END CTAB
M  END
