
     RDKit          3D

  0  0  0  0  0  0  0  0  0  0999 V3000
M  V30 BEGIN CTAB
M  V30 COUNTS 33 34 0 0 0
M  V30 BEGIN ATOM
M  V30 1 F -4.01884 3.23611 -1.27602 0
M  V30 2 C -3.4525 2.81975 -0.112087 0
M  V30 3 C -2.97353 1.40696 -0.15529 0
M  V30 4 C -1.6271 1.09014 -0.0264643 0
M  V30 5 C -1.12903 -0.216561 -0.0643117 0
M  V30 6 O 0.184013 -0.39888 0.0591904 0
M  V30 7 C 1.07244 -1.43447 0.096499 0
M  V30 8 C 2.46502 -0.827788 0.148194 0
M  V30 9 N 2.59873 0.42403 -0.308876 0
M  V30 10 C 3.77738 1.02843 -0.308087 0
M  V30 11 N 3.86279 2.37889 -0.799636 0
M  V30 12 N 4.85566 0.383697 0.157454 0
M  V30 13 C 4.73682 -0.896732 0.629592 0
M  V30 14 N 3.51446 -1.47729 0.610881 0
M  V30 15 N 5.91573 -1.55789 1.10956 0
M  V30 16 C -2.07562 -1.21128 -0.246066 0
M  V30 17 C -3.43107 -0.904185 -0.380995 0
M  V30 18 C -3.88524 0.388333 -0.33559 0
M  V30 19 C -4.39685 -1.98659 -0.600082 0
M  V30 20 F -5.55869 -1.58027 -1.22908 0
M  V30 21 F -3.79986 -2.91028 -1.45375 0
M  V30 22 F -4.7796 -2.61608 0.569769 0
M  V30 23 F -4.34582 2.96196 0.946563 0
M  V30 24 F -2.34469 3.60841 0.189555 0
M  V30 25 H -0.917709 1.89753 0.12416 0
M  V30 26 H 1.03691 -2.18646 -0.68493 0
M  V30 27 H 1.007 -1.94301 1.10863 0
M  V30 28 H 3.95206 2.55621 -1.83785 0
M  V30 29 H 3.8256 3.13187 -0.0930231 0
M  V30 30 H 6.52607 -1.00117 1.73245 0
M  V30 31 H 6.07699 -2.52549 0.802095 0
M  V30 32 H -1.72479 -2.23121 -0.279749 0
M  V30 33 H -4.94673 0.593326 -0.433319 0
M  V30 END ATOM
M  V30 BEGIN BOND
M  V30 1 1 1 2
M  V30 2 1 2 3
M  V30 3 2 3 4
M  V30 4 1 4 5
M  V30 5 1 5 6
M  V30 6 1 6 7
M  V30 7 1 7 8
M  V30 8 2 8 9
M  V30 9 1 9 10
M  V30 10 1 10 11
M  V30 11 2 10 12
M  V30 12 1 12 13
M  V30 13 2 13 14
M  V30 14 1 13 15
M  V30 15 2 5 16
M  V30 16 1 16 17
M  V30 17 2 17 18
M  V30 18 1 17 19
M  V30 19 1 19 20
M  V30 20 1 19 21
M  V30 21 1 19 22
M  V30 22 1 2 23
M  V30 23 1 2 24
M  V30 24 1 18 3
M  V30 25 1 14 8
M  V30 26 1 4 25
M  V30 27 1 7 26
M  V30 28 1 7 27
M  V30 29 1 11 28
M  V30 30 1 11 29
M  V30 31 1 15 30
M  V30 32 1 15 31
M  V30 33 1 16 32
M  V30 34 1 18 33
M  V30 END BOND
M  V30 END CTAB
M  END
