
     RDKit          3D

  0  0  0  0  0  0  0  0  0  0999 V3000
M  V30 BEGIN CTAB
M  V30 COUNTS 54 57 0 0 0
M  V30 BEGIN ATOM
M  V30 1 N 3.47594 -2.20801 0.215523 0
M  V30 2 C 2.65276 -1.1088 0.458531 0 CFG=2
M  V30 3 C 1.18346 -1.42641 0.377311 0
M  V30 4 N 0.569122 -0.166582 0.0676126 0
M  V30 5 C 1.61711 0.859094 -0.141554 0
M  V30 6 C 2.77842 -0.0227867 -0.582134 0 CFG=1
M  V30 7 C 4.06872 0.688742 -0.501463 0
M  V30 8 C 4.86214 0.723304 -1.62806 0
M  V30 9 C 6.09469 1.37507 -1.63185 0
M  V30 10 C 6.48745 1.98514 -0.457548 0
M  V30 11 C 5.67831 1.93937 0.661089 0
M  V30 12 C 4.45039 1.28889 0.66083 0
M  V30 13 C -0.810704 0.165263 -0.0597184 0
M  V30 14 O -0.993518 1.40881 -0.322917 0
M  V30 15 C -1.91283 -0.779429 0.08737 0
M  V30 16 N -1.41378 -2.13317 0.194048 0
M  V30 17 C -2.90158 -0.519542 1.20224 0
M  V30 18 C -2.7611 0.711217 2.00125 0
M  V30 19 C -3.70053 1.83296 1.69946 0
M  V30 20 C -5.01034 1.2187 1.2479 0
M  V30 21 O -4.71581 0.593701 0.041658 0
M  V30 22 C -3.99395 -0.569018 0.201075 0
M  V30 23 C -3.007 -0.749074 -0.935407 0
M  V30 24 C -3.02642 0.358925 -1.92707 0
M  V30 25 C -3.29439 -2.0549 -1.65419 0
M  V30 26 H 3.87965 -2.35335 -0.652598 0
M  V30 27 H 3.96932 -2.5357 1.00961 0
M  V30 28 H 2.86509 -0.615812 1.45106 0
M  V30 29 H 0.81047 -1.8709 1.32701 0
M  V30 30 H 1.07303 -2.19697 -0.420765 0
M  V30 31 H 1.28816 1.55841 -0.910569 0
M  V30 32 H 1.79246 1.31181 0.848676 0
M  V30 33 H 2.55957 -0.443771 -1.55848 0
M  V30 34 H 4.53552 0.234918 -2.54847 0
M  V30 35 H 6.71704 1.39968 -2.5233 0
M  V30 36 H 7.44198 2.50616 -0.411644 0
M  V30 37 H 6.02209 2.43204 1.56683 0
M  V30 38 H 3.80826 1.24168 1.51643 0
M  V30 39 H -1.66371 -2.63117 1.04916 0
M  V30 40 H -1.33911 -2.65277 -0.67867 0
M  V30 41 H -3.02169 -1.40576 1.90214 0
M  V30 42 H -1.70658 1.12495 2.01009 0
M  V30 43 H -2.91989 0.511082 3.10902 0
M  V30 44 H -3.93826 2.44175 2.60269 0
M  V30 45 H -3.37355 2.51064 0.893092 0
M  V30 46 H -5.37707 0.480256 1.98104 0
M  V30 47 H -5.79098 1.97547 1.04509 0
M  V30 48 H -4.73303 -1.41842 0.308967 0
M  V30 49 H -2.05666 0.503955 -2.46717 0
M  V30 50 H -3.30503 1.34449 -1.5323 0
M  V30 51 H -3.76685 0.115671 -2.71659 0
M  V30 52 H -3.3409 -2.87872 -0.925272 0
M  V30 53 H -4.29531 -1.9247 -2.12247 0
M  V30 54 H -2.5106 -2.17637 -2.42658 0
M  V30 END ATOM
M  V30 BEGIN BOND
M  V30 1 1 1 2
M  V30 2 1 2 3
M  V30 3 1 3 4
M  V30 4 1 4 5
M  V30 5 1 5 6
M  V30 6 1 6 7
M  V30 7 2 7 8
M  V30 8 1 8 9
M  V30 9 2 9 10
M  V30 10 1 10 11
M  V30 11 2 11 12
M  V30 12 1 4 13
M  V30 13 2 13 14
M  V30 14 1 13 15
M  V30 15 1 15 16
M  V30 16 1 15 17
M  V30 17 1 17 18
M  V30 18 1 18 19
M  V30 19 1 19 20
M  V30 20 1 20 21
M  V30 21 1 21 22
M  V30 22 1 22 23
M  V30 23 1 23 24
M  V30 24 1 23 25
M  V30 25 1 6 2
M  V30 26 1 12 7
M  V30 27 1 23 15
M  V30 28 1 22 17
M  V30 29 1 1 26
M  V30 30 1 1 27
M  V30 31 1 2 28 CFG=1
M  V30 32 1 3 29
M  V30 33 1 3 30
M  V30 34 1 5 31
M  V30 35 1 5 32
M  V30 36 1 6 33 CFG=3
M  V30 37 1 8 34
M  V30 38 1 9 35
M  V30 39 1 10 36
M  V30 40 1 11 37
M  V30 41 1 12 38
M  V30 42 1 16 39
M  V30 43 1 16 40
M  V30 44 1 17 41
M  V30 45 1 18 42
M  V30 46 1 18 43
M  V30 47 1 19 44
M  V30 48 1 19 45
M  V30 49 1 20 46
M  V30 50 1 20 47
M  V30 51 1 22 48
M  V30 52 1 24 49
M  V30 53 1 24 50
M  V30 54 1 24 51
M  V30 55 1 25 52
M  V30 56 1 25 53
M  V30 57 1 25 54
M  V30 END BOND
M  V30 END CTAB
M  END
