
     RDKit          3D

  0  0  0  0  0  0  0  0  0  0999 V3000
M  V30 BEGIN CTAB
M  V30 COUNTS 44 47 0 0 0
M  V30 BEGIN ATOM
M  V30 1 N -5.25948 -2.78334 0.669319 0
M  V30 2 C -4.89134 -1.40754 0.445895 0
M  V30 3 N -3.87365 -1.10227 -0.37677 0
M  V30 4 C -3.49612 0.165026 -0.614313 0
M  V30 5 C -2.36864 0.460335 -1.53312 0
M  V30 6 N -1.14378 0.38352 -0.781997 0
M  V30 7 C -0.9136 -0.887376 -0.190752 0
M  V30 8 C 0.531182 -1.01635 0.217261 0
M  V30 9 N 1.12442 0.296223 0.247456 0
M  V30 10 C 0.361916 1.39897 0.84524 0
M  V30 11 C -0.984286 1.48588 0.150989 0
M  V30 12 C 2.41139 0.488163 -0.294375 0
M  V30 13 N 2.60556 1.33099 -1.32146 0
M  V30 14 C 3.80182 1.55182 -1.87723 0
M  V30 15 N 4.86495 0.895944 -1.38185 0
M  V30 16 C 4.73189 0.0294348 -0.3425 0
M  V30 17 C 3.48706 -0.191705 0.22581 0
M  V30 18 C 3.69232 -1.10251 1.23303 0
M  V30 19 N 4.99395 -1.39661 1.24918 0
M  V30 20 N 5.64061 -0.728085 0.310479 0
M  V30 21 C 7.07893 -0.811036 0.0470293 0
M  V30 22 N -4.16615 1.15666 -0.00278323 0
M  V30 23 C -5.20197 0.871828 0.836053 0
M  V30 24 N -5.54466 -0.405301 1.04424 0
M  V30 25 N -5.86069 1.96109 1.44396 0
M  V30 26 H -4.78315 -3.38741 1.35944 0
M  V30 27 H -6.04481 -3.18269 0.104562 0
M  V30 28 H -2.38703 -0.244245 -2.37543 0
M  V30 29 H -2.48826 1.48837 -1.98946 0
M  V30 30 H -1.2015 -1.66647 -0.930264 0
M  V30 31 H -1.53093 -0.9917 0.725825 0
M  V30 32 H 1.08973 -1.63921 -0.512431 0
M  V30 33 H 0.602212 -1.52132 1.21245 0
M  V30 34 H 0.19659 1.16461 1.91351 0
M  V30 35 H 0.873283 2.36811 0.703937 0
M  V30 36 H -1.1045 2.46666 -0.346835 0
M  V30 37 H -1.7717 1.40417 0.923521 0
M  V30 38 H 3.90987 2.24609 -2.7103 0
M  V30 39 H 2.89691 -1.48603 1.87865 0
M  V30 40 H 7.3835 -1.83286 -0.204107 0
M  V30 41 H 7.3138 -0.163741 -0.823051 0
M  V30 42 H 7.62091 -0.380169 0.914945 0
M  V30 43 H -6.8141 2.217 1.1471 0
M  V30 44 H -5.38244 2.49708 2.18484 0
M  V30 END ATOM
M  V30 BEGIN BOND
M  V30 1 1 1 2
M  V30 2 2 2 3
M  V30 3 1 3 4
M  V30 4 1 4 5
M  V30 5 1 5 6
M  V30 6 1 6 7
M  V30 7 1 7 8
M  V30 8 1 8 9
M  V30 9 1 9 10
M  V30 10 1 10 11
M  V30 11 1 9 12
M  V30 12 2 12 13
M  V30 13 1 13 14
M  V30 14 2 14 15
M  V30 15 1 15 16
M  V30 16 2 16 17
M  V30 17 1 17 18
M  V30 18 2 18 19
M  V30 19 1 19 20
M  V30 20 1 20 21
M  V30 21 2 4 22
M  V30 22 1 22 23
M  V30 23 2 23 24
M  V30 24 1 23 25
M  V30 25 1 24 2
M  V30 26 1 11 6
M  V30 27 1 17 12
M  V30 28 1 20 16
M  V30 29 1 1 26
M  V30 30 1 1 27
M  V30 31 1 5 28
M  V30 32 1 5 29
M  V30 33 1 7 30
M  V30 34 1 7 31
M  V30 35 1 8 32
M  V30 36 1 8 33
M  V30 37 1 10 34
M  V30 38 1 10 35
M  V30 39 1 11 36
M  V30 40 1 11 37
M  V30 41 1 14 38
M  V30 42 1 18 39
M  V30 43 1 21 40
M  V30 44 1 21 41
M  V30 45 1 21 42
M  V30 46 1 25 43
M  V30 47 1 25 44
M  V30 END BOND
M  V30 END CTAB
M  END
