
     RDKit          3D

  0  0  0  0  0  0  0  0  0  0999 V3000
M  V30 BEGIN CTAB
M  V30 COUNTS 15 15 0 0 0
M  V30 BEGIN ATOM
M  V30 1 N 2.06341 -0.244749 0.986433 0
M  V30 2 C 1.31884 -0.160809 -0.196472 0
M  V30 3 N 1.7754 -0.576828 -1.30106 0
M  V30 4 N 0.0339109 0.402206 -0.13886 0
M  V30 5 N -0.176512 1.72649 -0.23271 0
M  V30 6 C -1.47091 2.00069 -0.15012 0
M  V30 7 N -2.0824 0.818526 -0.00115201 0
M  V30 8 C -1.17043 -0.166249 0.00701584 0
M  V30 9 N -1.41882 -1.52974 0.141578 0
M  V30 10 H 2.53109 -1.15942 1.25735 0
M  V30 11 H 2.19598 0.565839 1.64923 0
M  V30 12 H 1.3273 -0.567563 -2.22003 0
M  V30 13 H -1.90365 2.98751 -0.197544 0
M  V30 14 H -1.77302 -2.09465 -0.649901 0
M  V30 15 H -1.2502 -2.00125 1.04625 0
M  V30 END ATOM
M  V30 BEGIN BOND
M  V30 1 1 1 2
M  V30 2 2 2 3 CFG=2
M  V30 3 1 2 4
M  V30 4 1 4 5
M  V30 5 2 5 6
M  V30 6 1 6 7
M  V30 7 2 7 8
M  V30 8 1 8 9
M  V30 9 1 8 4
M  V30 10 1 1 10
M  V30 11 1 1 11
M  V30 12 1 3 12
M  V30 13 1 6 13
M  V30 14 1 9 14
M  V30 15 1 9 15
M  V30 END BOND
M  V30 END CTAB
M  END
