
     RDKit          3D

  0  0  0  0  0  0  0  0  0  0999 V3000
M  V30 BEGIN CTAB
M  V30 COUNTS 25 25 0 0 0
M  V30 BEGIN ATOM
M  V30 1 C -3.98597 0.400018 -0.34484 0
M  V30 2 C -3.20458 1.35192 0.530226 0
M  V30 3 O -1.82271 1.19756 0.28069 0
M  V30 4 C -1.13253 0.0119538 0.465656 0
M  V30 5 O -1.75037 -0.998418 0.878686 0
M  V30 6 C 0.298438 -0.00649377 0.167754 0
M  V30 7 C 0.928185 1.13129 -0.283368 0
M  V30 8 C 2.2767 1.10494 -0.56161 0
M  V30 9 C 3.05279 -0.0239227 -0.410721 0
M  V30 10 C 2.40657 -1.15243 0.0412944 0
M  V30 11 C 1.05357 -1.16719 0.331968 0
M  V30 12 N 0.40858 -2.34766 0.798232 0
M  V30 13 F 3.14155 -2.30093 0.206346 0
M  V30 14 N 4.43666 0.026245 -0.717844 0
M  V30 15 H -3.31551 -0.26787 -0.879853 0
M  V30 16 H -4.52374 1.01648 -1.11753 0
M  V30 17 H -4.73125 -0.108448 0.303346 0
M  V30 18 H -3.45175 2.40808 0.297871 0
M  V30 19 H -3.44897 1.20674 1.61158 0
M  V30 20 H 0.323193 2.03111 -0.406522 0
M  V30 21 H 2.76261 2.01539 -0.918783 0
M  V30 22 H -0.255934 -2.89444 0.228263 0
M  V30 23 H 0.613995 -2.68216 1.76441 0
M  V30 24 H 4.88127 -0.807195 -1.15238 0
M  V30 25 H 5.0392 0.855417 -0.532415 0
M  V30 END ATOM
M  V30 BEGIN BOND
M  V30 1 1 1 2
M  V30 2 1 2 3
M  V30 3 1 3 4
M  V30 4 2 4 5
M  V30 5 1 4 6
M  V30 6 2 6 7
M  V30 7 1 7 8
M  V30 8 2 8 9
M  V30 9 1 9 10
M  V30 10 2 10 11
M  V30 11 1 11 12
M  V30 12 1 10 13
M  V30 13 1 9 14
M  V30 14 1 11 6
M  V30 15 1 1 15
M  V30 16 1 1 16
M  V30 17 1 1 17
M  V30 18 1 2 18
M  V30 19 1 2 19
M  V30 20 1 7 20
M  V30 21 1 8 21
M  V30 22 1 12 22
M  V30 23 1 12 23
M  V30 24 1 14 24
M  V30 25 1 14 25
M  V30 END BOND
M  V30 END CTAB
M  END
