
     RDKit          3D

  0  0  0  0  0  0  0  0  0  0999 V3000
M  V30 BEGIN CTAB
M  V30 COUNTS 18 18 0 0 0
M  V30 BEGIN ATOM
M  V30 1 O 3.23961 0.346864 -0.422669 0
M  V30 2 C 2.07303 -0.367095 -0.459711 0
M  V30 3 O 2.0627 -1.55753 -0.806718 0
M  V30 4 C 0.831774 0.273847 -0.0890542 0
M  V30 5 C 0.759173 1.59495 0.308438 0
M  V30 6 C -0.463764 2.11855 0.64206 0
M  V30 7 N -1.60266 1.40798 0.601959 0
M  V30 8 C -1.58282 0.120501 0.222093 0
M  V30 9 C -0.365123 -0.428002 -0.118051 0
M  V30 10 N -0.356672 -1.80534 -0.522562 0
M  V30 11 N -2.76457 -0.665218 0.166333 0
M  V30 12 H 4.015 0.182169 0.19685 0
M  V30 13 H 1.68694 2.14501 0.33269 0
M  V30 14 H -0.453676 3.17382 0.94953 0
M  V30 15 H -0.423893 -2.5576 0.189902 0
M  V30 16 H -0.285365 -2.0697 -1.50555 0
M  V30 17 H -2.8502 -1.4625 0.825876 0
M  V30 18 H -3.51947 -0.450726 -0.511411 0
M  V30 END ATOM
M  V30 BEGIN BOND
M  V30 1 1 1 2
M  V30 2 2 2 3
M  V30 3 1 2 4
M  V30 4 2 4 5
M  V30 5 1 5 6
M  V30 6 2 6 7
M  V30 7 1 7 8
M  V30 8 2 8 9
M  V30 9 1 9 10
M  V30 10 1 8 11
M  V30 11 1 9 4
M  V30 12 1 1 12
M  V30 13 1 5 13
M  V30 14 1 6 14
M  V30 15 1 10 15
M  V30 16 1 10 16
M  V30 17 1 11 17
M  V30 18 1 11 18
M  V30 END BOND
M  V30 END CTAB
M  END
