
     RDKit          3D

  0  0  0  0  0  0  0  0  0  0999 V3000
M  V30 BEGIN CTAB
M  V30 COUNTS 26 26 0 0 0
M  V30 BEGIN ATOM
M  V30 1 N 2.31253 -2.93398 -0.204447 0
M  V30 2 C 1.82802 -1.61782 -0.176961 0
M  V30 3 N 2.6871 -0.589939 -0.13051 0
M  V30 4 C 2.22777 0.652451 -0.0805958 0
M  V30 5 N 3.10405 1.77685 -0.0256469 0
M  V30 6 N 0.919053 0.881108 -0.0792834 0
M  V30 7 C -0.00387585 -0.123963 -0.12727 0
M  V30 8 C 0.428828 -1.39867 -0.180163 0
M  V30 9 C -1.40889 0.324525 -0.0648718 0
M  V30 10 C -1.53033 1.55752 -0.929659 0
M  V30 11 C -2.43804 -0.63032 -0.517819 0
M  V30 12 C -1.61629 0.803279 1.38674 0
M  V30 13 H 2.8916 -3.26316 -1.00418 0
M  V30 14 H 2.07192 -3.55013 0.639366 0
M  V30 15 H 2.82118 2.48814 0.705223 0
M  V30 16 H 3.94757 1.885 -0.6292 0
M  V30 17 H -0.249063 -2.20309 -0.21856 0
M  V30 18 H -1.08454 2.40521 -0.360498 0
M  V30 19 H -2.60384 1.82 -1.10294 0
M  V30 20 H -0.994841 1.48689 -1.89262 0
M  V30 21 H -3.31918 -0.567912 0.208786 0
M  V30 22 H -2.20301 -1.69702 -0.528174 0
M  V30 23 H -2.88762 -0.384062 -1.48888 0
M  V30 24 H -0.718722 1.43916 1.61096 0
M  V30 25 H -1.7007 -0.068083 2.06483 0
M  V30 26 H -2.48069 1.50803 1.40512 0
M  V30 END ATOM
M  V30 BEGIN BOND
M  V30 1 1 1 2
M  V30 2 2 2 3
M  V30 3 1 3 4
M  V30 4 1 4 5
M  V30 5 2 4 6
M  V30 6 1 6 7
M  V30 7 2 7 8
M  V30 8 1 7 9
M  V30 9 1 9 10
M  V30 10 1 9 11
M  V30 11 1 9 12
M  V30 12 1 8 2
M  V30 13 1 1 13
M  V30 14 1 1 14
M  V30 15 1 5 15
M  V30 16 1 5 16
M  V30 17 1 8 17
M  V30 18 1 10 18
M  V30 19 1 10 19
M  V30 20 1 10 20
M  V30 21 1 11 21
M  V30 22 1 11 22
M  V30 23 1 11 23
M  V30 24 1 12 24
M  V30 25 1 12 25
M  V30 26 1 12 26
M  V30 END BOND
M  V30 END CTAB
M  END
