
     RDKit          3D

  0  0  0  0  0  0  0  0  0  0999 V3000
M  V30 BEGIN CTAB
M  V30 COUNTS 67 70 0 0 0
M  V30 BEGIN ATOM
M  V30 1 N 10.1832 0.298427 -1.48199 0
M  V30 2 C 8.88399 0.0419717 -0.971159 0
M  V30 3 N 8.56054 0.564408 0.218053 0
M  V30 4 C 7.33925 0.343567 0.734878 0
M  V30 5 O 7.10155 0.868022 1.86337 0
M  V30 6 N 6.39014 -0.387771 0.122607 0
M  V30 7 C 6.67411 -0.923614 -1.06126 0
M  V30 8 C 7.93537 -0.71394 -1.62831 0
M  V30 9 C 5.11925 -0.550216 0.782457 0 CFG=2
M  V30 10 O 4.56422 -1.80288 0.609439 0
M  V30 11 C 3.30936 -1.66035 1.19998 0 CFG=2
M  V30 12 C 2.36058 -2.75717 0.771275 0
M  V30 13 O 2.95549 -3.969 1.18152 0
M  V30 14 C 2.79862 -0.291656 0.80855 0 CFG=1
M  V30 15 O 2.52286 0.394952 1.98402 0
M  V30 16 P 0.968015 0.991593 2.06533 0
M  V30 17 O 0.9589 2.69185 2.12668 0
M  V30 18 O 0.323906 0.466304 3.34512 0
M  V30 19 O -0.00590673 0.523508 0.785274 0
M  V30 20 C -0.99463 1.49326 0.626035 0
M  V30 21 C -1.93968 1.1791 -0.505562 0 CFG=1
M  V30 22 O -2.58196 -0.0171002 -0.296359 0
M  V30 23 C -3.86147 0.111594 -0.840324 0 CFG=2
M  V30 24 C -4.25782 1.4881 -0.312811 0 CFG=2
M  V30 25 O -5.34071 2.01675 -0.971318 0
M  V30 26 P -6.61506 2.36294 0.0773236 0
M  V30 27 O -8.11239 1.98723 -0.563436 0
M  V30 28 O -6.5693 4.04393 0.371676 0
M  V30 29 O -6.40192 1.6272 1.37335 0
M  V30 30 C -2.97118 2.26589 -0.574247 0 CFG=2
M  V30 31 O -3.03206 2.80744 -1.84894 0
M  V30 32 N -4.76632 -0.893158 -0.377845 0
M  V30 33 C -5.92085 -1.06799 -1.04393 0
M  V30 34 C -6.81448 -2.02421 -0.628129 0
M  V30 35 C -6.51145 -2.78849 0.465883 0
M  V30 36 N -7.43237 -3.76191 0.880744 0
M  V30 37 N -5.33468 -2.56923 1.0982 0
M  V30 38 C -4.46422 -1.63117 0.685661 0
M  V30 39 O -3.37407 -1.44842 1.29456 0
M  V30 40 C 4.03525 0.326348 0.14201 0 CFG=1
M  V30 41 O 4.18417 1.65249 0.459117 0
M  V30 42 H 10.9989 -0.250672 -1.1397 0
M  V30 43 H 10.3033 1.04074 -2.20014 0
M  V30 44 H 5.95318 -1.51362 -1.58881 0
M  V30 45 H 8.21732 -1.12376 -2.58237 0
M  V30 46 H 5.1727 -0.288564 1.8412 0
M  V30 47 H 3.46678 -1.75151 2.29822 0
M  V30 48 H 1.4079 -2.6027 1.29761 0
M  V30 49 H 2.28027 -2.74715 -0.325753 0
M  V30 50 H 2.44906 -4.74883 0.900742 0
M  V30 51 H 1.94826 -0.32835 0.127301 0
M  V30 52 H 1.427 2.9862 1.29066 0
M  V30 53 H -0.447484 2.44099 0.355433 0
M  V30 54 H -1.52445 1.72559 1.57287 0
M  V30 55 H -1.34208 1.19739 -1.443 0
M  V30 56 H -3.80268 0.153405 -1.94671 0
M  V30 57 H -4.45695 1.40378 0.765863 0
M  V30 58 H -8.14677 1.16066 -1.0826 0
M  V30 59 H -6.02827 4.51159 -0.31238 0
M  V30 60 H -2.8388 3.05392 0.197097 0
M  V30 61 H -3.95439 2.90907 -2.19196 0
M  V30 62 H -6.1649 -0.45913 -1.91744 0
M  V30 63 H -7.73562 -2.1342 -1.19302 0
M  V30 64 H -7.70723 -4.53043 0.23402 0
M  V30 65 H -7.83519 -3.70667 1.83762 0
M  V30 66 H 4.06017 0.101923 -0.936128 0
M  V30 67 H 4.43365 2.21175 -0.338875 0
M  V30 END ATOM
M  V30 BEGIN BOND
M  V30 1 1 1 2
M  V30 2 2 2 3
M  V30 3 1 3 4
M  V30 4 2 4 5
M  V30 5 1 4 6
M  V30 6 1 6 7
M  V30 7 2 7 8
M  V30 8 1 6 9
M  V30 9 1 9 10
M  V30 10 1 10 11
M  V30 11 1 11 12
M  V30 12 1 12 13
M  V30 13 1 11 14
M  V30 14 1 14 15
M  V30 15 1 15 16
M  V30 16 1 16 17
M  V30 17 2 16 18
M  V30 18 1 16 19
M  V30 19 1 19 20
M  V30 20 1 20 21
M  V30 21 1 21 22
M  V30 22 1 22 23
M  V30 23 1 23 24
M  V30 24 1 24 25
M  V30 25 1 25 26
M  V30 26 1 26 27
M  V30 27 1 26 28
M  V30 28 2 26 29
M  V30 29 1 24 30
M  V30 30 1 30 31
M  V30 31 1 23 32
M  V30 32 1 32 33
M  V30 33 2 33 34
M  V30 34 1 34 35
M  V30 35 1 35 36
M  V30 36 2 35 37
M  V30 37 1 37 38
M  V30 38 2 38 39
M  V30 39 1 14 40
M  V30 40 1 40 41
M  V30 41 1 8 2
M  V30 42 1 40 9
M  V30 43 1 30 21
M  V30 44 1 38 32
M  V30 45 1 1 42
M  V30 46 1 1 43
M  V30 47 1 7 44
M  V30 48 1 8 45
M  V30 49 1 9 46 CFG=1
M  V30 50 1 11 47 CFG=1
M  V30 51 1 12 48
M  V30 52 1 12 49
M  V30 53 1 13 50
M  V30 54 1 14 51 CFG=3
M  V30 55 1 17 52
M  V30 56 1 20 53
M  V30 57 1 20 54
M  V30 58 1 21 55 CFG=3
M  V30 59 1 23 56 CFG=3
M  V30 60 1 24 57 CFG=1
M  V30 61 1 27 58
M  V30 62 1 28 59
M  V30 63 1 30 60 CFG=1
M  V30 64 1 31 61
M  V30 65 1 33 62
M  V30 66 1 34 63
M  V30 67 1 36 64
M  V30 68 1 36 65
M  V30 69 1 40 66 CFG=3
M  V30 70 1 41 67
M  V30 END BOND
M  V30 END CTAB
M  END
