
     RDKit          3D

  0  0  0  0  0  0  0  0  0  0999 V3000
M  V30 BEGIN CTAB
M  V30 COUNTS 22 22 0 0 0
M  V30 BEGIN ATOM
M  V30 1 N -1.60148 -0.781713 -1.39286 0
M  V30 2 C -1.03611 -0.331793 -0.1859 0
M  V30 3 C 0.376865 0.00717318 -0.139561 0
M  V30 4 C 1.27924 -0.774638 0.620609 0
M  V30 5 C 2.63052 -0.583378 0.57033 0
M  V30 6 Br 3.85112 -1.68008 1.55621 0
M  V30 7 C 3.12677 0.406554 -0.24379 0
M  V30 8 C 2.29825 1.21506 -1.01996 0
M  V30 9 C 0.958698 0.984706 -0.937512 0
M  V30 10 Cl -0.138773 2.02998 -1.84876 0
M  V30 11 C -1.9332 0.497591 0.721957 0
M  V30 12 N -3.08655 -0.218406 1.21012 0
M  V30 13 H -1.43835 -0.294379 -2.2706 0
M  V30 14 H -1.58584 -1.83924 -1.50298 0
M  V30 15 H -1.04583 -1.3618 0.45064 0
M  V30 16 H 0.917052 -1.57963 1.29324 0
M  V30 17 H 4.20646 0.616085 -0.335797 0
M  V30 18 H 2.6508 2.00517 -1.65843 0
M  V30 19 H -2.40009 1.28153 -0.00794746 0
M  V30 20 H -1.42018 0.995671 1.55384 0
M  V30 21 H -2.83915 -0.992822 1.90484 0
M  V30 22 H -3.77022 0.39835 1.6623 0
M  V30 END ATOM
M  V30 BEGIN BOND
M  V30 1 1 1 2
M  V30 2 1 2 3
M  V30 3 2 3 4
M  V30 4 1 4 5
M  V30 5 1 5 6
M  V30 6 2 5 7
M  V30 7 1 7 8
M  V30 8 2 8 9
M  V30 9 1 9 10
M  V30 10 1 2 11
M  V30 11 1 11 12
M  V30 12 1 9 3
M  V30 13 1 1 13
M  V30 14 1 1 14
M  V30 15 1 2 15
M  V30 16 1 4 16
M  V30 17 1 7 17
M  V30 18 1 8 18
M  V30 19 1 11 19
M  V30 20 1 11 20
M  V30 21 1 12 21
M  V30 22 1 12 22
M  V30 END BOND
M  V30 END CTAB
M  END
