
     RDKit          3D

  0  0  0  0  0  0  0  0  0  0999 V3000
M  V30 BEGIN CTAB
M  V30 COUNTS 27 29 0 0 0
M  V30 BEGIN ATOM
M  V30 1 N -1.5233 -1.99266 0.537656 0
M  V30 2 N -0.656725 -0.968682 0.224745 0
M  V30 3 C -0.908309 0.161663 -0.426068 0
M  V30 4 N 0.295416 0.789474 -0.570258 0
M  V30 5 C 1.24089 0.049894 -0.0131896 0
M  V30 6 C 0.669227 -1.06276 0.488187 0
M  V30 7 N 1.34361 -2.16479 1.14199 0
M  V30 8 C 2.68464 0.398198 0.181666 0
M  V30 9 C 3.39309 0.963423 -1.05524 0
M  V30 10 C 2.95857 1.91246 -0.037316 0
M  V30 11 C -2.19236 0.729831 -0.840458 0
M  V30 12 C -3.4983 0.122629 -0.770434 0
M  V30 13 C -3.14593 0.930277 0.394497 0
M  V30 14 H -1.99004 -2.06709 1.43842 0
M  V30 15 H -1.68752 -2.72272 -0.189375 0
M  V30 16 H 0.974314 -3.11627 1.07837 0
M  V30 17 H 2.2108 -1.97342 1.65704 0
M  V30 18 H 3.20752 0.019374 1.04899 0
M  V30 19 H 4.45347 0.581291 -1.12522 0
M  V30 20 H 2.81907 0.826101 -1.99707 0
M  V30 21 H 3.72034 2.40366 0.590303 0
M  V30 22 H 2.06494 2.51581 -0.20605 0
M  V30 23 H -2.12629 1.68945 -1.4502 0
M  V30 24 H -4.32339 0.582718 -1.39605 0
M  V30 25 H -3.69539 -0.968198 -0.642882 0
M  V30 26 H -3.45772 1.95898 0.597169 0
M  V30 27 H -2.8306 0.401357 1.34077 0
M  V30 END ATOM
M  V30 BEGIN BOND
M  V30 1 1 1 2
M  V30 2 1 2 3
M  V30 3 2 3 4
M  V30 4 1 4 5
M  V30 5 2 5 6
M  V30 6 1 6 7
M  V30 7 1 5 8
M  V30 8 1 8 9
M  V30 9 1 9 10
M  V30 10 1 3 11
M  V30 11 1 11 12
M  V30 12 1 12 13
M  V30 13 1 6 2
M  V30 14 1 10 8
M  V30 15 1 13 11
M  V30 16 1 1 14
M  V30 17 1 1 15
M  V30 18 1 7 16
M  V30 19 1 7 17
M  V30 20 1 8 18
M  V30 21 1 9 19
M  V30 22 1 9 20
M  V30 23 1 10 21
M  V30 24 1 10 22
M  V30 25 1 11 23
M  V30 26 1 12 24
M  V30 27 1 12 25
M  V30 28 1 13 26
M  V30 29 1 13 27
M  V30 END BOND
M  V30 END CTAB
M  END
