
     RDKit          3D

  0  0  0  0  0  0  0  0  0  0999 V3000
M  V30 BEGIN CTAB
M  V30 COUNTS 16 16 0 0 0
M  V30 BEGIN ATOM
M  V30 1 N -1.44389 -0.795821 -1.07885 0
M  V30 2 C -0.691552 -0.0405381 -0.107976 0
M  V30 3 N -1.28822 0.716202 0.745544 0
M  V30 4 N -2.68158 0.842782 0.774115 0
M  V30 5 C 0.759849 -0.111261 -0.0645058 0
M  V30 6 C 1.56768 0.565968 0.817824 0
M  V30 7 C 2.9051 0.246384 0.55323 0
M  V30 8 N 2.85097 -0.617441 -0.485988 0
M  V30 9 N 1.58357 -0.821462 -0.842234 0
M  V30 10 H -2.29874 -1.29768 -0.841199 0
M  V30 11 H -1.08585 -0.818988 -2.05651 0
M  V30 12 H -3.25966 0.0253562 0.477332 0
M  V30 13 H -3.17772 1.70913 1.07565 0
M  V30 14 H 1.22921 1.24445 1.60043 0
M  V30 15 H 3.78703 0.594312 1.04776 0
M  V30 16 H 1.24381 -1.44139 -1.61462 0
M  V30 END ATOM
M  V30 BEGIN BOND
M  V30 1 1 1 2
M  V30 2 2 2 3 CFG=2
M  V30 3 1 3 4
M  V30 4 1 2 5
M  V30 5 2 5 6
M  V30 6 1 6 7
M  V30 7 2 7 8
M  V30 8 1 8 9
M  V30 9 1 9 5
M  V30 10 1 1 10
M  V30 11 1 1 11
M  V30 12 1 4 12
M  V30 13 1 4 13
M  V30 14 1 6 14
M  V30 15 1 7 15
M  V30 16 1 9 16
M  V30 END BOND
M  V30 END CTAB
M  END
