
     RDKit          3D

  0  0  0  0  0  0  0  0  0  0999 V3000
M  V30 BEGIN CTAB
M  V30 COUNTS 40 41 0 0 0
M  V30 BEGIN ATOM
M  V30 1 C -4.37871 1.47465 3.14508 0
M  V30 2 O -4.50968 0.238835 2.46939 0
M  V30 3 C -3.65918 -0.0566601 1.40692 0
M  V30 4 C -2.69569 0.819224 0.99701 0
M  V30 5 C -1.80807 0.565241 -0.0755312 0
M  V30 6 C -1.92367 -0.627877 -0.739771 0
M  V30 7 C -2.9071 -1.5416 -0.33405 0
M  V30 8 C -3.74997 -1.25415 0.715184 0
M  V30 9 O -4.70144 -2.15746 1.09549 0
M  V30 10 C -4.92294 -3.40671 0.50239 0
M  V30 11 N -0.872167 1.53842 -0.412505 0
M  V30 12 C 0.227851 1.42368 -1.27245 0
M  V30 13 O 0.594394 0.414312 -1.9137 0
M  V30 14 C 1.12278 2.62533 -1.49845 0
M  V30 15 S 2.51001 2.25559 -2.58298 0
M  V30 16 C 3.60651 1.12595 -1.74763 0
M  V30 17 N 4.61227 1.599 -0.954091 0
M  V30 18 C 5.45738 0.770463 -0.321335 0
M  V30 19 N 6.5024 1.30061 0.504871 0
M  V30 20 C 5.34592 -0.598202 -0.445934 0
M  V30 21 C 4.33103 -1.07768 -1.24657 0
M  V30 22 N 3.50178 -0.200907 -1.86556 0
M  V30 23 N 4.1807 -2.48602 -1.4039 0
M  V30 24 H -5.30228 1.61849 3.7694 0
M  V30 25 H -4.42931 2.28393 2.36581 0
M  V30 26 H -3.45007 1.55243 3.71824 0
M  V30 27 H -2.61599 1.77197 1.53889 0
M  V30 28 H -1.27883 -0.869434 -1.56776 0
M  V30 29 H -2.94445 -2.46125 -0.89853 0
M  V30 30 H -5.24273 -3.35244 -0.549911 0
M  V30 31 H -3.98462 -4.01067 0.61557 0
M  V30 32 H -5.72175 -3.93088 1.07538 0
M  V30 33 H -1.00252 2.50269 0.0346529 0
M  V30 34 H 1.56725 2.95877 -0.514667 0
M  V30 35 H 0.521567 3.47751 -1.90781 0
M  V30 36 H 7.5076 1.16986 0.272542 0
M  V30 37 H 6.2243 1.83043 1.35938 0
M  V30 38 H 6.03874 -1.25928 0.0737443 0
M  V30 39 H 4.15083 -3.13077 -0.588594 0
M  V30 40 H 4.09789 -2.89539 -2.35642 0
M  V30 END ATOM
M  V30 BEGIN BOND
M  V30 1 1 1 2
M  V30 2 1 2 3
M  V30 3 2 3 4
M  V30 4 1 4 5
M  V30 5 2 5 6
M  V30 6 1 6 7
M  V30 7 2 7 8
M  V30 8 1 8 9
M  V30 9 1 9 10
M  V30 10 1 5 11
M  V30 11 1 11 12
M  V30 12 2 12 13
M  V30 13 1 12 14
M  V30 14 1 14 15
M  V30 15 1 15 16
M  V30 16 2 16 17
M  V30 17 1 17 18
M  V30 18 1 18 19
M  V30 19 2 18 20
M  V30 20 1 20 21
M  V30 21 2 21 22
M  V30 22 1 21 23
M  V30 23 1 8 3
M  V30 24 1 22 16
M  V30 25 1 1 24
M  V30 26 1 1 25
M  V30 27 1 1 26
M  V30 28 1 4 27
M  V30 29 1 6 28
M  V30 30 1 7 29
M  V30 31 1 10 30
M  V30 32 1 10 31
M  V30 33 1 10 32
M  V30 34 1 11 33
M  V30 35 1 14 34
M  V30 36 1 14 35
M  V30 37 1 19 36
M  V30 38 1 19 37
M  V30 39 1 20 38
M  V30 40 1 23 39
M  V30 41 1 23 40
M  V30 END BOND
M  V30 END CTAB
M  END
