
     RDKit          3D

  0  0  0  0  0  0  0  0  0  0999 V3000
M  V30 BEGIN CTAB
M  V30 COUNTS 28 28 0 0 0
M  V30 BEGIN ATOM
M  V30 1 N 3.22668 -0.140179 0.0570847 0
M  V30 2 C 2.13944 0.325779 0.834888 0
M  V30 3 C 0.787816 0.177135 0.163262 0
M  V30 4 N 0.859859 0.962528 -1.07495 0
M  V30 5 C 0.628352 -1.25436 -0.2008 0
M  V30 6 C -0.763941 -1.50195 -0.669838 0
M  V30 7 C -1.83482 -1.05753 0.254999 0
M  V30 8 C -1.6349 0.27572 0.87534 0
M  V30 9 C -0.24792 0.721667 1.08057 0
M  V30 10 C -2.47592 1.29714 0.0963189 0
M  V30 11 F -2.34612 2.55623 0.60773 0
M  V30 12 F -2.16924 1.21429 -1.24717 0
M  V30 13 F -3.81889 0.907046 0.199647 0
M  V30 14 H 3.16082 -1.09439 -0.298856 0
M  V30 15 H 3.71745 0.545598 -0.519955 0
M  V30 16 H 2.33754 1.38052 1.12539 0
M  V30 17 H 2.12245 -0.245735 1.80079 0
M  V30 18 H 1.51713 0.424861 -1.70063 0
M  V30 19 H 1.29313 1.89623 -0.847929 0
M  V30 20 H 0.964386 -1.95243 0.587004 0
M  V30 21 H 1.31044 -1.45446 -1.07856 0
M  V30 22 H -0.874703 -2.6152 -0.808344 0
M  V30 23 H -0.876675 -1.04025 -1.68005 0
M  V30 24 H -1.99281 -1.86827 1.02455 0
M  V30 25 H -2.8006 -1.0677 -0.332751 0
M  V30 26 H -2.13048 0.235328 1.89236 0
M  V30 27 H -0.206133 1.84045 0.985496 0
M  V30 28 H 0.107659 0.531936 2.13395 0
M  V30 END ATOM
M  V30 BEGIN BOND
M  V30 1 1 1 2
M  V30 2 1 2 3
M  V30 3 1 3 4
M  V30 4 1 3 5
M  V30 5 1 5 6
M  V30 6 1 6 7
M  V30 7 1 7 8
M  V30 8 1 8 9
M  V30 9 1 8 10
M  V30 10 1 10 11
M  V30 11 1 10 12
M  V30 12 1 10 13
M  V30 13 1 9 3
M  V30 14 1 1 14
M  V30 15 1 1 15
M  V30 16 1 2 16
M  V30 17 1 2 17
M  V30 18 1 4 18
M  V30 19 1 4 19
M  V30 20 1 5 20
M  V30 21 1 5 21
M  V30 22 1 6 22
M  V30 23 1 6 23
M  V30 24 1 7 24
M  V30 25 1 7 25
M  V30 26 1 8 26
M  V30 27 1 9 27
M  V30 28 1 9 28
M  V30 END BOND
M  V30 END CTAB
M  END
