
     RDKit          3D

  0  0  0  0  0  0  0  0  0  0999 V3000
M  V30 BEGIN CTAB
M  V30 COUNTS 96 97 0 0 0
M  V30 BEGIN ATOM
M  V30 1 C -5.57035 2.13709 1.2255 0
M  V30 2 N -4.48647 2.73217 0.461079 0
M  V30 3 C -4.00607 1.72667 -0.505808 0 CFG=2
M  V30 4 C -3.46254 0.56338 0.18045 0
M  V30 5 O -3.47595 0.579123 1.46062 0
M  V30 6 N -2.92314 -0.576531 -0.446909 0
M  V30 7 C -2.40625 -1.68448 0.388959 0 CFG=2
M  V30 8 C -0.925167 -1.69779 0.217729 0
M  V30 9 O -0.495827 -1.337 -0.89478 0
M  V30 10 N -0.0469548 -2.10026 1.28052 0
M  V30 11 C -0.574256 -2.53596 2.53598 0
M  V30 12 C 0.0659342 -3.81389 2.96559 0
M  V30 13 C 1.47814 -3.99272 2.56231 0
M  V30 14 C 2.1245 -2.61539 2.24773 0 CFG=1
M  V30 15 C 1.39838 -2.04202 1.06859 0 CFG=2
M  V30 16 C 1.70299 -0.55834 0.909778 0
M  V30 17 C 3.13818 -0.377687 0.604983 0
M  V30 18 O 3.94305 -1.35584 0.536929 0
M  V30 19 N 3.58692 0.941517 0.384498 0
M  V30 20 C 5.07515 1.10772 0.0734756 0 CFG=2
M  V30 21 C 5.3248 2.4518 0.603313 0
M  V30 22 O 4.72005 2.68987 1.74297 0
M  V30 23 O 6.07763 3.41281 0.0448001 0
M  V30 24 C 5.212 0.872966 -1.3758 0
M  V30 25 C 6.44366 0.792064 -2.11486 0
M  V30 26 C 7.39399 1.90047 -2.18144 0
M  V30 27 N 8.52606 1.53972 -3.07734 0
M  V30 28 C 9.52082 2.48393 -3.29654 0
M  V30 29 N 10.552 2.18958 -4.01006 0
M  V30 30 N 9.42704 3.77881 -2.74703 0
M  V30 31 O 1.96322 -1.89577 3.42345 0
M  V30 32 C 3.15371 -1.72801 4.06893 0
M  V30 33 C -2.98385 -2.97629 -0.109429 0
M  V30 34 C -4.46694 -3.08916 -0.0666906 0
M  V30 35 C -4.9794 -2.98646 1.33964 0
M  V30 36 N -6.39875 -3.11875 1.43619 0
M  V30 37 C -6.99711 -4.3694 1.16119 0
M  V30 38 N -8.2643 -4.43798 0.981572 0
M  V30 39 N -6.20424 -5.56373 1.07921 0
M  V30 40 C -2.99306 2.46749 -1.36818 0
M  V30 41 C -3.7188 3.59942 -1.98754 0
M  V30 42 C -4.39467 3.52175 -3.17029 0
M  V30 43 C -5.058 4.62228 -3.71589 0
M  V30 44 C -5.0423 5.83139 -3.05766 0
M  V30 45 C -4.35923 5.92584 -1.85355 0
M  V30 46 C -3.70537 4.82035 -1.32659 0
M  V30 47 H -5.30993 2.04769 2.29815 0
M  V30 48 H -5.78867 1.11661 0.843529 0
M  V30 49 H -6.4841 2.7184 1.08568 0
M  V30 50 H -3.65793 2.92945 1.08251 0
M  V30 51 H -4.8626 1.47428 -1.13182 0
M  V30 52 H -2.86935 -0.679068 -1.47825 0
M  V30 53 H -2.72355 -1.45649 1.39151 0
M  V30 54 H -1.6977 -2.66206 2.48652 0
M  V30 55 H -0.400184 -1.74074 3.28925 0
M  V30 56 H -0.123828 -3.97685 4.04752 0
M  V30 57 H -0.523466 -4.64441 2.4709 0
M  V30 58 H 1.61247 -4.64287 1.6963 0
M  V30 59 H 2.06402 -4.43618 3.39403 0
M  V30 60 H 3.17628 -2.85343 2.07264 0
M  V30 61 H 1.64157 -2.58312 0.154303 0
M  V30 62 H 1.05272 -0.0411849 0.20131 0
M  V30 63 H 1.56181 -0.0448402 1.91065 0
M  V30 64 H 2.96174 1.73673 0.426914 0
M  V30 65 H 5.53225 0.277058 0.662661 0
M  V30 66 H 5.73828 4.25179 -0.422043 0
M  V30 67 H 4.49554 1.63165 -1.88473 0
M  V30 68 H 4.60988 -0.0979559 -1.60723 0
M  V30 69 H 7.00531 -0.203149 -1.88964 0
M  V30 70 H 6.15572 0.56361 -3.21305 0
M  V30 71 H 7.95512 2.08402 -1.22173 0
M  V30 72 H 6.9467 2.80768 -2.58362 0
M  V30 73 H 8.5406 0.609019 -3.4982 0
M  V30 74 H 10.6756 1.23241 -4.44687 0
M  V30 75 H 10.298 4.26903 -2.46316 0
M  V30 76 H 8.52003 4.27138 -2.6085 0
M  V30 77 H 2.97635 -1.12982 5.01237 0
M  V30 78 H 3.56254 -2.70872 4.46451 0
M  V30 79 H 3.96863 -1.27842 3.47887 0
M  V30 80 H -2.48776 -3.8257 0.442188 0
M  V30 81 H -2.68495 -3.1119 -1.19672 0
M  V30 82 H -4.82293 -4.05443 -0.499899 0
M  V30 83 H -4.89827 -2.25071 -0.688251 0
M  V30 84 H -4.47664 -3.81432 1.93 0
M  V30 85 H -4.60336 -2.04815 1.78294 0
M  V30 86 H -6.99212 -2.31971 1.70212 0
M  V30 87 H -8.83194 -3.57293 1.04107 0
M  V30 88 H -5.5 -5.7381 1.81328 0
M  V30 89 H -6.37506 -6.20141 0.277829 0
M  V30 90 H -2.54703 1.80011 -2.14782 0
M  V30 91 H -2.1718 2.85397 -0.723424 0
M  V30 92 H -4.4275 2.58747 -3.71665 0
M  V30 93 H -5.5853 4.54751 -4.64238 0
M  V30 94 H -5.55941 6.69082 -3.47913 0
M  V30 95 H -4.36549 6.88614 -1.36263 0
M  V30 96 H -3.16957 4.8951 -0.378148 0
M  V30 END ATOM
M  V30 BEGIN BOND
M  V30 1 1 1 2
M  V30 2 1 2 3
M  V30 3 1 3 4
M  V30 4 2 4 5
M  V30 5 1 4 6
M  V30 6 1 6 7
M  V30 7 1 7 8
M  V30 8 2 8 9
M  V30 9 1 8 10
M  V30 10 1 10 11
M  V30 11 1 11 12
M  V30 12 1 12 13
M  V30 13 1 13 14
M  V30 14 1 14 15
M  V30 15 1 15 16
M  V30 16 1 16 17
M  V30 17 2 17 18
M  V30 18 1 17 19
M  V30 19 1 19 20
M  V30 20 1 20 21
M  V30 21 2 21 22
M  V30 22 1 21 23
M  V30 23 1 20 24
M  V30 24 1 24 25
M  V30 25 1 25 26
M  V30 26 1 26 27
M  V30 27 1 27 28
M  V30 28 2 28 29 CFG=2
M  V30 29 1 28 30
M  V30 30 1 14 31
M  V30 31 1 31 32
M  V30 32 1 7 33
M  V30 33 1 33 34
M  V30 34 1 34 35
M  V30 35 1 35 36
M  V30 36 1 36 37
M  V30 37 2 37 38 CFG=2
M  V30 38 1 37 39
M  V30 39 1 3 40
M  V30 40 1 40 41
M  V30 41 2 41 42
M  V30 42 1 42 43
M  V30 43 2 43 44
M  V30 44 1 44 45
M  V30 45 2 45 46
M  V30 46 1 15 10
M  V30 47 1 46 41
M  V30 48 1 1 47
M  V30 49 1 1 48
M  V30 50 1 1 49
M  V30 51 1 2 50
M  V30 52 1 3 51 CFG=3
M  V30 53 1 6 52
M  V30 54 1 7 53 CFG=1
M  V30 55 1 11 54
M  V30 56 1 11 55
M  V30 57 1 12 56
M  V30 58 1 12 57
M  V30 59 1 13 58
M  V30 60 1 13 59
M  V30 61 1 14 60 CFG=3
M  V30 62 1 15 61 CFG=3
M  V30 63 1 16 62
M  V30 64 1 16 63
M  V30 65 1 19 64
M  V30 66 1 20 65 CFG=1
M  V30 67 1 23 66
M  V30 68 1 24 67
M  V30 69 1 24 68
M  V30 70 1 25 69
M  V30 71 1 25 70
M  V30 72 1 26 71
M  V30 73 1 26 72
M  V30 74 1 27 73
M  V30 75 1 29 74
M  V30 76 1 30 75
M  V30 77 1 30 76
M  V30 78 1 32 77
M  V30 79 1 32 78
M  V30 80 1 32 79
M  V30 81 1 33 80
M  V30 82 1 33 81
M  V30 83 1 34 82
M  V30 84 1 34 83
M  V30 85 1 35 84
M  V30 86 1 35 85
M  V30 87 1 36 86
M  V30 88 1 38 87
M  V30 89 1 39 88
M  V30 90 1 39 89
M  V30 91 1 40 90
M  V30 92 1 40 91
M  V30 93 1 42 92
M  V30 94 1 43 93
M  V30 95 1 44 94
M  V30 96 1 45 95
M  V30 97 1 46 96
M  V30 END BOND
M  V30 END CTAB
M  END
