
     RDKit          3D

  0  0  0  0  0  0  0  0  0  0999 V3000
M  V30 BEGIN CTAB
M  V30 COUNTS 21 22 0 0 0
M  V30 BEGIN ATOM
M  V30 1 Cl 3.93978 2.06668 -0.582003 0
M  V30 2 C 2.71367 0.816673 -0.348858 0
M  V30 3 C 3.07068 -0.523664 -0.272174 0
M  V30 4 C 2.12152 -1.48058 -0.0926063 0
M  V30 5 C 0.77985 -1.13485 0.0171551 0
M  V30 6 C 0.38801 0.186053 -0.0542715 0
M  V30 7 C 1.3731 1.13173 -0.236609 0
M  V30 8 C -0.952919 0.505902 0.0576121 0
M  V30 9 N -1.35817 1.86598 -0.0157469 0
M  V30 10 C -1.92533 -0.464629 0.24075 0
M  V30 11 C -1.48515 -1.7691 0.30577 0
M  V30 12 N -0.169747 -2.07292 0.195177 0
M  V30 13 N -3.30901 -0.157991 0.358165 0
M  V30 14 H 4.14025 -0.719599 -0.366435 0
M  V30 15 H 2.42455 -2.51698 -0.0361116 0
M  V30 16 H 1.09845 2.17057 -0.296228 0
M  V30 17 H -2.25377 2.14716 -0.46855 0
M  V30 18 H -0.774413 2.62638 0.380071 0
M  V30 19 H -2.1809 -2.58487 0.447096 0
M  V30 20 H -3.76774 0.00760659 1.27889 0
M  V30 21 H -3.87272 -0.0995595 -0.511089 0
M  V30 END ATOM
M  V30 BEGIN BOND
M  V30 1 1 1 2
M  V30 2 2 2 3
M  V30 3 1 3 4
M  V30 4 2 4 5
M  V30 5 1 5 6
M  V30 6 2 6 7
M  V30 7 1 6 8
M  V30 8 1 8 9
M  V30 9 2 8 10
M  V30 10 1 10 11
M  V30 11 2 11 12
M  V30 12 1 10 13
M  V30 13 1 7 2
M  V30 14 1 12 5
M  V30 15 1 3 14
M  V30 16 1 4 15
M  V30 17 1 7 16
M  V30 18 1 9 17
M  V30 19 1 9 18
M  V30 20 1 11 19
M  V30 21 1 13 20
M  V30 22 1 13 21
M  V30 END BOND
M  V30 END CTAB
M  END
