
     RDKit          3D

  0  0  0  0  0  0  0  0  0  0999 V3000
M  V30 BEGIN CTAB
M  V30 COUNTS 56 57 0 0 0
M  V30 BEGIN ATOM
M  V30 1 C 7.19505 0.945559 1.38578 0
M  V30 2 C 6.4415 1.15867 0.0936724 0
M  V30 3 C 5.80296 -0.16931 -0.28695 0
M  V30 4 C 4.85129 -0.641303 0.759641 0
M  V30 5 C 3.73689 0.35499 0.966315 0
M  V30 6 C 2.99373 0.521416 -0.320404 0
M  V30 7 C 1.84245 1.52505 -0.176684 0
M  V30 8 C 1.19332 1.58701 -1.53096 0
M  V30 9 O 0.704598 0.35819 -1.90871 0
M  V30 10 C -0.296015 -0.34733 -1.34849 0
M  V30 11 C -0.586704 -1.60498 -1.89155 0
M  V30 12 C -1.59383 -2.35841 -1.36139 0
M  V30 13 C -2.36822 -1.92932 -0.280217 0
M  V30 14 O -3.3507 -2.75686 0.184359 0
M  V30 15 C -3.60182 -4.00831 -0.391479 0
M  V30 16 C -2.11196 -0.721466 0.261094 0
M  V30 17 C -2.83311 -0.0965677 1.3828 0
M  V30 18 C -4.08079 0.531427 0.955088 0
M  V30 19 C -3.96106 1.74207 0.224566 0
M  V30 20 N -5.04837 2.31913 -0.282191 0
M  V30 21 C -6.28515 1.80684 -0.137484 0
M  V30 22 N -7.40624 2.4883 -0.705819 0
M  V30 23 N -6.38675 0.671753 0.550903 0
M  V30 24 C -5.32619 0.0154792 1.10511 0
M  V30 25 N -5.57092 -1.13774 1.90454 0
M  V30 26 C -1.05339 0.0526026 -0.30746 0
M  V30 27 H 7.94113 0.146938 1.22322 0
M  V30 28 H 6.54294 0.78203 2.25449 0
M  V30 29 H 7.76076 1.89133 1.56567 0
M  V30 30 H 5.63879 1.91317 0.196576 0
M  V30 31 H 7.14081 1.50515 -0.685631 0
M  V30 32 H 6.59901 -0.964064 -0.38674 0
M  V30 33 H 5.36062 -0.0823301 -1.28159 0
M  V30 34 H 5.3834 -0.888786 1.69955 0
M  V30 35 H 4.36702 -1.57478 0.366109 0
M  V30 36 H 4.08814 1.32593 1.36916 0
M  V30 37 H 2.98914 -0.0162213 1.71289 0
M  V30 38 H 3.61078 0.923688 -1.14929 0
M  V30 39 H 2.5464 -0.443208 -0.632496 0
M  V30 40 H 1.22167 1.31124 0.674254 0
M  V30 41 H 2.32289 2.52113 0.028293 0
M  V30 42 H 2.00162 1.93221 -2.23069 0
M  V30 43 H 0.395558 2.3741 -1.45949 0
M  V30 44 H -0.0161611 -1.95706 -2.71296 0
M  V30 45 H -1.84757 -3.34902 -1.76601 0
M  V30 46 H -4.50506 -4.48995 0.0670366 0
M  V30 47 H -3.78767 -3.97072 -1.48895 0
M  V30 48 H -2.68942 -4.62987 -0.273743 0
M  V30 49 H -2.98706 -0.878344 2.17017 0
M  V30 50 H -2.19899 0.700724 1.86505 0
M  V30 51 H -2.96927 2.17834 0.0951438 0
M  V30 52 H -7.3578 3.53995 -0.629145 0
M  V30 53 H -8.18328 1.98018 -1.14686 0
M  V30 54 H -4.81204 -1.6434 2.38417 0
M  V30 55 H -6.54578 -1.47003 2.00622 0
M  V30 56 H -0.911149 1.02478 0.155871 0
M  V30 END ATOM
M  V30 BEGIN BOND
M  V30 1 1 1 2
M  V30 2 1 2 3
M  V30 3 1 3 4
M  V30 4 1 4 5
M  V30 5 1 5 6
M  V30 6 1 6 7
M  V30 7 1 7 8
M  V30 8 1 8 9
M  V30 9 1 9 10
M  V30 10 2 10 11
M  V30 11 1 11 12
M  V30 12 2 12 13
M  V30 13 1 13 14
M  V30 14 1 14 15
M  V30 15 1 13 16
M  V30 16 1 16 17
M  V30 17 1 17 18
M  V30 18 2 18 19
M  V30 19 1 19 20
M  V30 20 2 20 21
M  V30 21 1 21 22
M  V30 22 1 21 23
M  V30 23 2 23 24
M  V30 24 1 24 25
M  V30 25 2 16 26
M  V30 26 1 26 10
M  V30 27 1 24 18
M  V30 28 1 1 27
M  V30 29 1 1 28
M  V30 30 1 1 29
M  V30 31 1 2 30
M  V30 32 1 2 31
M  V30 33 1 3 32
M  V30 34 1 3 33
M  V30 35 1 4 34
M  V30 36 1 4 35
M  V30 37 1 5 36
M  V30 38 1 5 37
M  V30 39 1 6 38
M  V30 40 1 6 39
M  V30 41 1 7 40
M  V30 42 1 7 41
M  V30 43 1 8 42
M  V30 44 1 8 43
M  V30 45 1 11 44
M  V30 46 1 12 45
M  V30 47 1 15 46
M  V30 48 1 15 47
M  V30 49 1 15 48
M  V30 50 1 17 49
M  V30 51 1 17 50
M  V30 52 1 19 51
M  V30 53 1 22 52
M  V30 54 1 22 53
M  V30 55 1 25 54
M  V30 56 1 25 55
M  V30 57 1 26 56
M  V30 END BOND
M  V30 END CTAB
M  END
