
     RDKit          3D

  0  0  0  0  0  0  0  0  0  0999 V3000
M  V30 BEGIN CTAB
M  V30 COUNTS 20 21 0 0 0
M  V30 BEGIN ATOM
M  V30 1 N 4.46395 -0.157876 0.551582 0
M  V30 2 C 3.08045 -0.154091 0.244752 0
M  V30 3 N 2.56621 -0.505625 -0.924335 0
M  V30 4 C 1.23867 -0.493023 -1.192 0
M  V30 5 C 0.385209 -0.095571 -0.200239 0
M  V30 6 C 0.913782 0.268219 1.00878 0
M  V30 7 N 2.23893 0.237417 1.2215 0
M  V30 8 C -1.08547 -0.0630497 -0.441331 0
M  V30 9 C -1.60418 -0.431672 -1.66255 0
M  V30 10 S -3.27921 -0.21919 -1.41268 0
M  V30 11 C -3.22188 0.325072 0.227462 0
M  V30 12 N -1.94098 0.307419 0.469324 0
M  V30 13 N -4.33605 0.684686 1.04623 0
M  V30 14 H 4.93179 0.698358 0.904353 0
M  V30 15 H 4.99312 -1.04229 0.412534 0
M  V30 16 H 0.899505 -0.793615 -2.16856 0
M  V30 17 H 0.282615 0.586619 1.81538 0
M  V30 18 H -1.07213 -0.775563 -2.56816 0
M  V30 19 H -5.06271 -0.0110029 1.24512 0
M  V30 20 H -4.39161 1.63478 1.42286 0
M  V30 END ATOM
M  V30 BEGIN BOND
M  V30 1 1 1 2
M  V30 2 2 2 3
M  V30 3 1 3 4
M  V30 4 2 4 5
M  V30 5 1 5 6
M  V30 6 2 6 7
M  V30 7 1 5 8
M  V30 8 2 8 9
M  V30 9 1 9 10
M  V30 10 1 10 11
M  V30 11 2 11 12
M  V30 12 1 11 13
M  V30 13 1 7 2
M  V30 14 1 12 8
M  V30 15 1 1 14
M  V30 16 1 1 15
M  V30 17 1 4 16
M  V30 18 1 6 17
M  V30 19 1 9 18
M  V30 20 1 13 19
M  V30 21 1 13 20
M  V30 END BOND
M  V30 END CTAB
M  END
