
     RDKit          3D

  0  0  0  0  0  0  0  0  0  0999 V3000
M  V30 BEGIN CTAB
M  V30 COUNTS 62 64 0 0 0
M  V30 BEGIN ATOM
M  V30 1 N 11.2268 1.07541 0.619566 0
M  V30 2 C 10.5769 -0.156861 0.396733 0
M  V30 3 N 10.9953 -1.21065 0.981169 0
M  V30 4 N 9.46785 -0.214788 -0.471755 0
M  V30 5 C 8.87332 0.958576 -1.06563 0
M  V30 6 C 8.17201 1.83856 -0.06699 0
M  V30 7 C 7.0586 1.13507 0.621511 0
M  V30 8 C 5.81848 1.18362 0.0230069 0
M  V30 9 C 4.69499 0.564262 0.580496 0
M  V30 10 C 4.84979 -0.107463 1.75822 0
M  V30 11 C 6.09493 -0.150051 2.34895 0
M  V30 12 Br 6.26827 -1.10386 4.00243 0
M  V30 13 C 7.20985 0.455398 1.8114 0
M  V30 14 C 3.41751 0.640638 -0.0788232 0
M  V30 15 C 2.35027 0.723918 -0.639908 0
M  V30 16 C 1.09471 0.83191 -1.32743 0
M  V30 17 C 0.980858 1.53253 -2.52345 0
M  V30 18 C -0.223273 1.63949 -3.18848 0
M  V30 19 C -1.30727 1.02322 -2.61757 0
M  V30 20 C -1.19902 0.31925 -1.41841 0
M  V30 21 C -0.00172424 0.215177 -0.760983 0
M  V30 22 C -2.35676 -0.317353 -0.846193 0
M  V30 23 C -3.33441 -0.854596 -0.387412 0
M  V30 24 C -4.50552 -1.49907 0.133034 0
M  V30 25 C -5.76366 -1.3181 -0.416997 0
M  V30 26 C -6.88219 -1.93855 0.0842981 0
M  V30 27 C -8.21941 -1.74196 -0.504676 0
M  V30 28 C -8.86019 -0.56089 0.211265 0
M  V30 29 N -10.1892 -0.298625 -0.316656 0
M  V30 30 C -10.9917 0.753165 0.183417 0
M  V30 31 N -10.4823 1.99426 0.622568 0
M  V30 32 N -12.2638 0.571919 0.243057 0
M  V30 33 C -6.74494 -2.76855 1.17123 0
M  V30 34 C -5.49886 -2.98333 1.76119 0
M  V30 35 Br -5.32713 -4.13441 3.26309 0
M  V30 36 C -4.40727 -2.33888 1.22266 0
M  V30 37 H 11.7017 1.63513 -0.12513 0
M  V30 38 H 11.2398 1.46711 1.60056 0
M  V30 39 H 10.5189 -2.13646 0.823264 0
M  V30 40 H 9.0631 -1.1729 -0.689014 0
M  V30 41 H 9.6807 1.56953 -1.5224 0
M  V30 42 H 8.18977 0.652292 -1.88495 0
M  V30 43 H 7.75969 2.71233 -0.632497 0
M  V30 44 H 8.91796 2.25344 0.628256 0
M  V30 45 H 5.72315 1.72233 -0.910248 0
M  V30 46 H 4.01411 -0.604891 2.23258 0
M  V30 47 H 8.16124 0.409004 2.29264 0
M  V30 48 H 1.87037 2.00307 -2.933 0
M  V30 49 H -0.348161 2.16986 -4.11102 0
M  V30 50 H -2.28029 1.07345 -3.09447 0
M  V30 51 H 0.0496613 -0.333196 0.159512 0
M  V30 52 H -5.81637 -0.648266 -1.27964 0
M  V30 53 H -8.8644 -2.62565 -0.415381 0
M  V30 54 H -8.0887 -1.47447 -1.58258 0
M  V30 55 H -8.95804 -0.757004 1.29976 0
M  V30 56 H -8.25421 0.353156 0.113078 0
M  V30 57 H -10.5358 -0.914487 -1.08157 0
M  V30 58 H -10.6326 2.36132 1.58831 0
M  V30 59 H -9.92621 2.59239 -0.0292019 0
M  V30 60 H -12.7548 -0.280358 -0.0441303 0
M  V30 61 H -7.59091 -3.28232 1.60624 0
M  V30 62 H -3.43142 -2.50282 1.67872 0
M  V30 END ATOM
M  V30 BEGIN BOND
M  V30 1 1 1 2
M  V30 2 2 2 3 CFG=2
M  V30 3 1 2 4
M  V30 4 1 4 5
M  V30 5 1 5 6
M  V30 6 1 6 7
M  V30 7 2 7 8
M  V30 8 1 8 9
M  V30 9 2 9 10
M  V30 10 1 10 11
M  V30 11 1 11 12
M  V30 12 2 11 13
M  V30 13 1 9 14
M  V30 14 3 14 15
M  V30 15 1 15 16
M  V30 16 2 16 17
M  V30 17 1 17 18
M  V30 18 2 18 19
M  V30 19 1 19 20
M  V30 20 2 20 21
M  V30 21 1 20 22
M  V30 22 3 22 23
M  V30 23 1 23 24
M  V30 24 2 24 25
M  V30 25 1 25 26
M  V30 26 1 26 27
M  V30 27 1 27 28
M  V30 28 1 28 29
M  V30 29 1 29 30
M  V30 30 1 30 31
M  V30 31 2 30 32 CFG=2
M  V30 32 2 26 33
M  V30 33 1 33 34
M  V30 34 1 34 35
M  V30 35 2 34 36
M  V30 36 1 13 7
M  V30 37 1 21 16
M  V30 38 1 36 24
M  V30 39 1 1 37
M  V30 40 1 1 38
M  V30 41 1 3 39
M  V30 42 1 4 40
M  V30 43 1 5 41
M  V30 44 1 5 42
M  V30 45 1 6 43
M  V30 46 1 6 44
M  V30 47 1 8 45
M  V30 48 1 10 46
M  V30 49 1 13 47
M  V30 50 1 17 48
M  V30 51 1 18 49
M  V30 52 1 19 50
M  V30 53 1 21 51
M  V30 54 1 25 52
M  V30 55 1 27 53
M  V30 56 1 27 54
M  V30 57 1 28 55
M  V30 58 1 28 56
M  V30 59 1 29 57
M  V30 60 1 31 58
M  V30 61 1 31 59
M  V30 62 1 32 60
M  V30 63 1 33 61
M  V30 64 1 36 62
M  V30 END BOND
M  V30 END CTAB
M  END
