
     RDKit          3D

  0  0  0  0  0  0  0  0  0  0999 V3000
M  V30 BEGIN CTAB
M  V30 COUNTS 25 25 0 0 0
M  V30 BEGIN ATOM
M  V30 1 C -1.58027 1.21838 -1.03074 0
M  V30 2 C -1.09041 -0.135684 -0.571129 0
M  V30 3 S -1.94797 -0.604193 0.914533 0
M  V30 4 O -1.5985 0.268528 2.05902 0
M  V30 5 O -1.58412 -2.04423 1.24239 0
M  V30 6 C -3.69708 -0.578371 0.602535 0
M  V30 7 C 0.385274 -0.105707 -0.35876 0
M  V30 8 N 1.22536 -0.880109 -1.0688 0
M  V30 9 C 2.57215 -0.862395 -0.885069 0
M  V30 10 N 3.45756 -1.66955 -1.6239 0
M  V30 11 N 3.07554 -0.0185777 0.0625732 0
M  V30 12 C 2.26263 0.765847 0.786467 0
M  V30 13 N 0.93791 0.704951 0.560111 0
M  V30 14 N 2.75232 1.6632 1.78864 0
M  V30 15 H -0.710788 1.72552 -1.50413 0
M  V30 16 H -2.39159 1.14574 -1.77617 0
M  V30 17 H -1.86864 1.86436 -0.165807 0
M  V30 18 H -1.35057 -0.862719 -1.36626 0
M  V30 19 H -4.0735 0.483146 0.643264 0
M  V30 20 H -3.95662 -0.984145 -0.379538 0
M  V30 21 H -4.2583 -1.14447 1.38421 0
M  V30 22 H 3.57809 -1.511 -2.63159 0
M  V30 23 H 3.97978 -2.41557 -1.14735 0
M  V30 24 H 3.72395 2.05862 1.6769 0
M  V30 25 H 2.15779 1.91842 2.61085 0
M  V30 END ATOM
M  V30 BEGIN BOND
M  V30 1 1 1 2
M  V30 2 1 2 3
M  V30 3 2 3 4
M  V30 4 2 3 5
M  V30 5 1 3 6
M  V30 6 1 2 7
M  V30 7 2 7 8
M  V30 8 1 8 9
M  V30 9 1 9 10
M  V30 10 2 9 11
M  V30 11 1 11 12
M  V30 12 2 12 13
M  V30 13 1 12 14
M  V30 14 1 13 7
M  V30 15 1 1 15
M  V30 16 1 1 16
M  V30 17 1 1 17
M  V30 18 1 2 18
M  V30 19 1 6 19
M  V30 20 1 6 20
M  V30 21 1 6 21
M  V30 22 1 10 22
M  V30 23 1 10 23
M  V30 24 1 14 24
M  V30 25 1 14 25
M  V30 END BOND
M  V30 END CTAB
M  END
