
     RDKit          3D

  0  0  0  0  0  0  0  0  0  0999 V3000
M  V30 BEGIN CTAB
M  V30 COUNTS 30 31 0 0 0
M  V30 BEGIN ATOM
M  V30 1 N 7.08303 1.9632 -0.882377 0
M  V30 2 C 5.93092 1.90375 -0.87879 0
M  V30 3 N 4.54391 1.80929 -0.863213 0
M  V30 4 C 3.91748 0.787229 -0.387826 0
M  V30 5 C 2.44765 0.761584 -0.406925 0
M  V30 6 S 1.40138 1.96031 -1.00244 0
M  V30 7 C -0.097753 1.20828 -0.674789 0
M  V30 8 C 0.265955 0.0288707 -0.103038 0
M  V30 9 C 1.60506 -0.210999 0.0401787 0
M  V30 10 N 2.18148 -1.41339 0.627328 0
M  V30 11 C -0.764922 -0.832681 0.288575 0
M  V30 12 C -2.10781 -0.444864 0.0753682 0
M  V30 13 C -2.43429 0.735575 -0.498564 0
M  V30 14 N -1.4004 1.55595 -0.869095 0
M  V30 15 C -3.8207 1.18785 -0.797139 0
M  V30 16 C -3.11876 -1.36365 0.560296 0
M  V30 17 O -2.77383 -2.60095 0.639964 0
M  V30 18 C -4.4549 -1.01167 0.961972 0
M  V30 19 N 4.61818 -0.299087 0.146628 0
M  V30 20 H 2.41056 -1.38072 1.62664 0
M  V30 21 H 2.3527 -2.25726 0.0715908 0
M  V30 22 H -0.578872 -1.79375 0.7543 0
M  V30 23 H -4.21744 1.72142 0.077896 0
M  V30 24 H -3.74059 2.04718 -1.57393 0
M  V30 25 H -4.43966 0.406237 -1.23519 0
M  V30 26 H -5.21603 -1.21987 0.163732 0
M  V30 27 H -4.60498 -0.0303332 1.44099 0
M  V30 28 H -4.76207 -1.78633 1.75971 0
M  V30 29 H 5.1583 -0.935479 -0.469909 0
M  V30 30 H 4.61639 -0.495675 1.16554 0
M  V30 END ATOM
M  V30 BEGIN BOND
M  V30 1 3 1 2
M  V30 2 1 2 3
M  V30 3 2 3 4
M  V30 4 1 4 5
M  V30 5 1 5 6
M  V30 6 1 6 7
M  V30 7 2 7 8
M  V30 8 1 8 9
M  V30 9 1 9 10
M  V30 10 1 8 11
M  V30 11 2 11 12
M  V30 12 1 12 13
M  V30 13 2 13 14
M  V30 14 1 13 15
M  V30 15 1 12 16
M  V30 16 2 16 17
M  V30 17 1 16 18
M  V30 18 1 4 19
M  V30 19 2 9 5
M  V30 20 1 14 7
M  V30 21 1 10 20
M  V30 22 1 10 21
M  V30 23 1 11 22
M  V30 24 1 15 23
M  V30 25 1 15 24
M  V30 26 1 15 25
M  V30 27 1 18 26
M  V30 28 1 18 27
M  V30 29 1 18 28
M  V30 30 1 19 29
M  V30 31 1 19 30
M  V30 END BOND
M  V30 END CTAB
M  END
