
     RDKit          3D

  0  0  0  0  0  0  0  0  0  0999 V3000
M  V30 BEGIN CTAB
M  V30 COUNTS 44 46 0 0 0
M  V30 BEGIN ATOM
M  V30 1 C 6.64756 -0.881975 0.626413 0
M  V30 2 C 5.52469 -1.10335 1.61445 0
M  V30 3 N 4.47496 -0.103507 1.41242 0
M  V30 4 C 4.39606 1.09834 2.00988 0
M  V30 5 N 5.28751 1.6744 2.95705 0
M  V30 6 N 3.28808 1.70486 1.55174 0
M  V30 7 C 2.64044 0.901766 0.654368 0
M  V30 8 C 3.41834 -0.235508 0.589113 0
M  V30 9 N 2.97996 -1.19659 -0.245969 0
M  V30 10 C 1.86434 -1.07642 -0.974713 0
M  V30 11 C 1.08525 0.0584882 -0.911629 0
M  V30 12 C 1.48422 1.07139 -0.07629 0
M  V30 13 C -0.114597 0.129542 -1.72465 0
M  V30 14 O -0.488654 -0.875597 -2.37449 0
M  V30 15 N -0.852068 1.32864 -1.77907 0
M  V30 16 C -2.0719 1.43637 -2.5904 0
M  V30 17 C -3.17204 0.757079 -1.87671 0
M  V30 18 C -3.69201 -0.467577 -2.19094 0
M  V30 19 C -4.73308 -0.990781 -1.42346 0
M  V30 20 C -5.26341 -0.30964 -0.346407 0
M  V30 21 C -4.73669 0.923021 -0.033958 0
M  V30 22 C -3.72245 1.42668 -0.785977 0
M  V30 23 S -6.55919 -1.03835 0.551384 0
M  V30 24 O -7.45789 -1.82858 -0.355427 0
M  V30 25 O -7.40136 0.0884926 1.13569 0
M  V30 26 N -5.94442 -1.99962 1.84279 0
M  V30 27 H 7.42491 -0.179118 1.01995 0
M  V30 28 H 7.16393 -1.85707 0.499106 0
M  V30 29 H 6.29965 -0.563349 -0.365373 0
M  V30 30 H 5.11587 -2.1173 1.40499 0
M  V30 31 H 5.93237 -1.07253 2.62462 0
M  V30 32 H 6.16648 2.18098 2.69825 0
M  V30 33 H 5.09658 1.61502 4.00002 0
M  V30 34 H 1.55748 -1.88095 -1.63067 0
M  V30 35 H 0.940042 1.98761 0.0370887 0
M  V30 36 H -0.555862 2.16257 -1.25209 0
M  V30 37 H -2.28817 2.5083 -2.74856 0
M  V30 38 H -1.87341 0.923795 -3.57372 0
M  V30 39 H -3.28852 -1.00236 -3.02814 0
M  V30 40 H -5.10169 -1.96955 -1.72634 0
M  V30 41 H -5.14065 1.47321 0.809034 0
M  V30 42 H -3.33527 2.40527 -0.504238 0
M  V30 43 H -6.08109 -1.52148 2.75658 0
M  V30 44 H -4.91428 -2.14912 1.72429 0
M  V30 END ATOM
M  V30 BEGIN BOND
M  V30 1 1 1 2
M  V30 2 1 2 3
M  V30 3 1 3 4
M  V30 4 1 4 5
M  V30 5 2 4 6
M  V30 6 1 6 7
M  V30 7 2 7 8
M  V30 8 1 8 9
M  V30 9 2 9 10
M  V30 10 1 10 11
M  V30 11 2 11 12
M  V30 12 1 11 13
M  V30 13 2 13 14
M  V30 14 1 13 15
M  V30 15 1 15 16
M  V30 16 1 16 17
M  V30 17 2 17 18
M  V30 18 1 18 19
M  V30 19 2 19 20
M  V30 20 1 20 21
M  V30 21 2 21 22
M  V30 22 1 20 23
M  V30 23 2 23 24
M  V30 24 2 23 25
M  V30 25 1 23 26
M  V30 26 1 8 3
M  V30 27 1 22 17
M  V30 28 1 12 7
M  V30 29 1 1 27
M  V30 30 1 1 28
M  V30 31 1 1 29
M  V30 32 1 2 30
M  V30 33 1 2 31
M  V30 34 1 5 32
M  V30 35 1 5 33
M  V30 36 1 10 34
M  V30 37 1 12 35
M  V30 38 1 15 36
M  V30 39 1 16 37
M  V30 40 1 16 38
M  V30 41 1 18 39
M  V30 42 1 19 40
M  V30 43 1 21 41
M  V30 44 1 22 42
M  V30 45 1 26 43
M  V30 46 1 26 44
M  V30 END BOND
M  V30 END CTAB
M  END
