
     RDKit          3D

  0  0  0  0  0  0  0  0  0  0999 V3000
M  V30 BEGIN CTAB
M  V30 COUNTS 24 25 0 0 0
M  V30 BEGIN ATOM
M  V30 1 C -1.83998 1.649 -0.258692 0
M  V30 2 C -1.60989 0.186016 -0.0695186 0
M  V30 3 N -2.57705 -0.748977 -0.00177469 0
M  V30 4 C -4.02925 -0.549738 -0.0953139 0
M  V30 5 N -1.95531 -1.90371 0.168529 0
M  V30 6 N -0.629611 -1.71776 0.209119 0
M  V30 7 C -0.371472 -0.406124 0.0616788 0
M  V30 8 C 0.943505 0.246241 0.0449486 0
M  V30 9 N 1.14765 1.56485 -0.105908 0
M  V30 10 N 2.45533 1.78102 -0.0698737 0
M  V30 11 C 3.12618 0.625637 0.102835 0
M  V30 12 N 2.15261 -0.324491 0.172123 0
M  V30 13 N 2.38975 -1.68361 0.348954 0
M  V30 14 N 4.52966 0.415971 0.195299 0
M  V30 15 H -1.3223 1.92647 -1.20369 0
M  V30 16 H -2.92181 1.84548 -0.399201 0
M  V30 17 H -1.43888 2.21525 0.610568 0
M  V30 18 H -4.48245 -1.49785 -0.398751 0
M  V30 19 H -4.43931 -0.231321 0.881006 0
M  V30 20 H -4.22547 0.279377 -0.804096 0
M  V30 21 H 2.43451 -2.10722 1.30607 0
M  V30 22 H 2.52442 -2.28019 -0.519402 0
M  V30 23 H 5.02636 -0.414118 -0.194124 0
M  V30 24 H 5.11281 1.1298 0.681083 0
M  V30 END ATOM
M  V30 BEGIN BOND
M  V30 1 1 1 2
M  V30 2 1 2 3
M  V30 3 1 3 4
M  V30 4 1 3 5
M  V30 5 2 5 6
M  V30 6 1 6 7
M  V30 7 1 7 8
M  V30 8 2 8 9
M  V30 9 1 9 10
M  V30 10 2 10 11
M  V30 11 1 11 12
M  V30 12 1 12 13
M  V30 13 1 11 14
M  V30 14 2 7 2
M  V30 15 1 12 8
M  V30 16 1 1 15
M  V30 17 1 1 16
M  V30 18 1 1 17
M  V30 19 1 4 18
M  V30 20 1 4 19
M  V30 21 1 4 20
M  V30 22 1 13 21
M  V30 23 1 13 22
M  V30 24 1 14 23
M  V30 25 1 14 24
M  V30 END BOND
M  V30 END CTAB
M  END
