
     RDKit          3D

  0  0  0  0  0  0  0  0  0  0999 V3000
M  V30 BEGIN CTAB
M  V30 COUNTS 52 52 0 0 0
M  V30 BEGIN ATOM
M  V30 1 C -6.16166 1.91118 0.867406 0
M  V30 2 C -4.98455 1.80544 -0.0745557 0 CFG=1
M  V30 3 O -3.95937 2.62521 0.44898 0
M  V30 4 C -4.49895 0.368283 -0.0545405 0 CFG=2
M  V30 5 N -3.30128 0.215752 -0.853158 0
M  V30 6 C -2.06061 -0.181093 -0.301784 0
M  V30 7 O -2.00943 -0.407657 0.93417 0
M  V30 8 C -0.839271 -0.339193 -1.10125 0 CFG=2
M  V30 9 C -0.996043 -1.49415 -2.07435 0
M  V30 10 C -0.778692 -2.67126 -1.16053 0
M  V30 11 C 0.295411 -2.19091 -0.212346 0
M  V30 12 N 0.29519 -0.761033 -0.255794 0
M  V30 13 C 1.17956 0.147001 0.360646 0
M  V30 14 O 0.998476 1.42002 0.194657 0
M  V30 15 C 2.31971 -0.251743 1.19668 0 CFG=1
M  V30 16 N 2.23553 -1.65903 1.54704 0
M  V30 17 C 3.65558 -0.0655797 0.488206 0
M  V30 18 C 3.96356 1.31664 0.0735912 0
M  V30 19 C 5.25608 1.50276 -0.626587 0
M  V30 20 C 6.50969 1.15345 0.0748417 0
M  V30 21 N 6.69611 -0.192108 0.463953 0
M  V30 22 C -5.55739 -0.570602 -0.495631 0
M  V30 23 O -6.80761 -0.64939 0.0919276 0
M  V30 24 O -5.31631 -1.34548 -1.4588 0
M  V30 25 H -7.12218 1.77461 0.336254 0
M  V30 26 H -6.05739 1.11823 1.62737 0
M  V30 27 H -6.16227 2.89369 1.4087 0
M  V30 28 H -5.28366 2.14529 -1.06843 0
M  V30 29 H -4.05031 2.58225 1.42561 0
M  V30 30 H -4.23176 0.120707 0.99469 0
M  V30 31 H -3.34651 0.403502 -1.87381 0
M  V30 32 H -0.537774 0.568351 -1.65888 0
M  V30 33 H -2.0048 -1.50231 -2.53007 0
M  V30 34 H -0.182114 -1.46822 -2.80526 0
M  V30 35 H -1.69128 -2.93088 -0.583907 0
M  V30 36 H -0.458938 -3.58042 -1.72503 0
M  V30 37 H 1.24548 -2.63429 -0.605098 0
M  V30 38 H 0.0262331 -2.59288 0.793048 0
M  V30 39 H 2.28534 0.316559 2.1443 0
M  V30 40 H 2.9454 -2.21874 1.03375 0
M  V30 41 H 2.30871 -1.81115 2.57371 0
M  V30 42 H 3.7444 -0.752197 -0.362127 0
M  V30 43 H 4.40413 -0.400062 1.2683 0
M  V30 44 H 3.17072 1.60915 -0.688621 0
M  V30 45 H 3.80417 2.05477 0.8991 0
M  V30 46 H 5.16667 0.98721 -1.6264 0
M  V30 47 H 5.35551 2.59239 -0.933346 0
M  V30 48 H 7.3555 1.42483 -0.62509 0
M  V30 49 H 6.68272 1.82851 0.963509 0
M  V30 50 H 7.06368 -0.834704 -0.253796 0
M  V30 51 H 7.02999 -0.35612 1.42353 0
M  V30 52 H -7.59343 -1.02458 -0.39664 0
M  V30 END ATOM
M  V30 BEGIN BOND
M  V30 1 1 1 2
M  V30 2 1 2 3
M  V30 3 1 2 4
M  V30 4 1 4 5
M  V30 5 1 5 6
M  V30 6 2 6 7
M  V30 7 1 6 8
M  V30 8 1 8 9
M  V30 9 1 9 10
M  V30 10 1 10 11
M  V30 11 1 11 12
M  V30 12 1 12 13
M  V30 13 2 13 14
M  V30 14 1 13 15
M  V30 15 1 15 16
M  V30 16 1 15 17
M  V30 17 1 17 18
M  V30 18 1 18 19
M  V30 19 1 19 20
M  V30 20 1 20 21
M  V30 21 1 4 22
M  V30 22 1 22 23
M  V30 23 2 22 24
M  V30 24 1 12 8
M  V30 25 1 1 25
M  V30 26 1 1 26
M  V30 27 1 1 27
M  V30 28 1 2 28 CFG=3
M  V30 29 1 3 29
M  V30 30 1 4 30 CFG=1
M  V30 31 1 5 31
M  V30 32 1 8 32 CFG=3
M  V30 33 1 9 33
M  V30 34 1 9 34
M  V30 35 1 10 35
M  V30 36 1 10 36
M  V30 37 1 11 37
M  V30 38 1 11 38
M  V30 39 1 15 39 CFG=1
M  V30 40 1 16 40
M  V30 41 1 16 41
M  V30 42 1 17 42
M  V30 43 1 17 43
M  V30 44 1 18 44
M  V30 45 1 18 45
M  V30 46 1 19 46
M  V30 47 1 19 47
M  V30 48 1 20 48
M  V30 49 1 20 49
M  V30 50 1 21 50
M  V30 51 1 21 51
M  V30 52 1 23 52
M  V30 END BOND
M  V30 END CTAB
M  END
