
     RDKit          3D

  0  0  0  0  0  0  0  0  0  0999 V3000
M  V30 BEGIN CTAB
M  V30 COUNTS 34 35 0 0 0
M  V30 BEGIN ATOM
M  V30 1 N 2.64247 2.99113 -0.411759 0
M  V30 2 C 1.54669 2.26538 0.112647 0
M  V30 3 C 1.85374 0.808497 0.0211907 0
M  V30 4 N 0.766269 -0.0140194 0.535841 0
M  V30 5 C 1.28288 -1.26455 0.954457 0
M  V30 6 C 1.46658 -2.30313 -0.0997116 0
M  V30 7 C 0.0137418 -2.57299 -0.577543 0
M  V30 8 C -0.339676 -1.29051 -1.2419 0
M  V30 9 C -0.362909 -0.0711613 -0.413867 0 CFG=1
M  V30 10 C -1.645 0.0521459 0.364302 0
M  V30 11 C -1.86595 -0.339606 1.64283 0
M  V30 12 N -3.08909 0.139922 2.00781 0
M  V30 13 N -3.62078 0.807173 1.00417 0
M  V30 14 C -2.76558 0.778994 -0.0417976 0
M  V30 15 N -3.0601 1.31497 -1.31931 0
M  V30 16 H 3.02536 2.70899 -1.24395 0
M  V30 17 H 3.18356 3.54804 0.175368 0
M  V30 18 H 1.46019 2.57317 1.20752 0
M  V30 19 H 0.620613 2.57139 -0.374625 0
M  V30 20 H 2.76071 0.554037 0.575344 0
M  V30 21 H 1.94414 0.554735 -1.06894 0
M  V30 22 H 0.721317 -1.76129 1.7817 0
M  V30 23 H 2.318 -1.05036 1.3781 0
M  V30 24 H 2.00053 -1.88639 -0.968764 0
M  V30 25 H 1.91414 -3.22238 0.267894 0
M  V30 26 H 0.0381384 -3.39493 -1.31588 0
M  V30 27 H -0.612755 -2.81386 0.291476 0
M  V30 28 H 0.467355 -1.12089 -2.02923 0
M  V30 29 H -1.26985 -1.34542 -1.84838 0
M  V30 30 H -0.285304 0.813747 -1.04366 0
M  V30 31 H -1.26846 -0.922592 2.35322 0
M  V30 32 H -3.49913 -0.00325345 2.95658 0
M  V30 33 H -3.22036 2.29128 -1.53898 0
M  V30 34 H -3.12147 0.603739 -2.09214 0
M  V30 END ATOM
M  V30 BEGIN BOND
M  V30 1 1 1 2
M  V30 2 1 2 3
M  V30 3 1 3 4
M  V30 4 1 4 5
M  V30 5 1 5 6
M  V30 6 1 6 7
M  V30 7 1 7 8
M  V30 8 1 8 9
M  V30 9 1 9 10
M  V30 10 2 10 11
M  V30 11 1 11 12
M  V30 12 1 12 13
M  V30 13 2 13 14
M  V30 14 1 14 15
M  V30 15 1 9 4
M  V30 16 1 14 10
M  V30 17 1 1 16
M  V30 18 1 1 17
M  V30 19 1 2 18
M  V30 20 1 2 19
M  V30 21 1 3 20
M  V30 22 1 3 21
M  V30 23 1 5 22
M  V30 24 1 5 23
M  V30 25 1 6 24
M  V30 26 1 6 25
M  V30 27 1 7 26
M  V30 28 1 7 27
M  V30 29 1 8 28
M  V30 30 1 8 29
M  V30 31 1 9 30 CFG=3
M  V30 32 1 11 31
M  V30 33 1 12 32
M  V30 34 1 15 33
M  V30 35 1 15 34
M  V30 END BOND
M  V30 END CTAB
M  END
