
     RDKit          3D

  0  0  0  0  0  0  0  0  0  0999 V3000
M  V30 BEGIN CTAB
M  V30 COUNTS 24 25 0 0 0
M  V30 BEGIN ATOM
M  V30 1 Cl 3.92843 2.01185 -0.0115931 0
M  V30 2 C 2.36365 1.22462 -0.00635335 0
M  V30 3 C 1.24063 2.00739 0.1685 0
M  V30 4 C -0.0205116 1.42001 0.178702 0
M  V30 5 N -1.11817 2.20534 0.352154 0
M  V30 6 C -2.35872 1.68308 0.369209 0
M  V30 7 C -2.51434 0.331134 0.208043 0
M  V30 8 C -1.39158 -0.486123 0.0288519 0
M  V30 9 C -0.12235 0.0536204 0.0120876 0
M  V30 10 C 1.0208 -0.696199 -0.159934 0
M  V30 11 C 2.28484 -0.143841 -0.174777 0
M  V30 12 C 3.51029 -0.96799 -0.361744 0
M  V30 13 Cl 0.877356 -2.41719 -0.368728 0
M  V30 14 N -1.57085 -1.87304 -0.135233 0
M  V30 15 N -3.81025 -0.264113 0.219556 0
M  V30 16 H 1.33887 3.09066 0.299421 0
M  V30 17 H -3.25687 2.2814 0.505511 0
M  V30 18 H 3.46141 -1.88835 0.290124 0
M  V30 19 H 4.3995 -0.421583 -0.0385412 0
M  V30 20 H 3.62939 -1.33644 -1.3872 0
M  V30 21 H -1.59392 -2.54888 0.658453 0
M  V30 22 H -1.69018 -2.2411 -1.11811 0
M  V30 23 H -4.64648 0.165841 -0.224928 0
M  V30 24 H -3.96092 -1.19009 0.696522 0
M  V30 END ATOM
M  V30 BEGIN BOND
M  V30 1 1 1 2
M  V30 2 2 2 3
M  V30 3 1 3 4
M  V30 4 2 4 5
M  V30 5 1 5 6
M  V30 6 2 6 7
M  V30 7 1 7 8
M  V30 8 2 8 9
M  V30 9 1 9 10
M  V30 10 2 10 11
M  V30 11 1 11 12
M  V30 12 1 10 13
M  V30 13 1 8 14
M  V30 14 1 7 15
M  V30 15 1 11 2
M  V30 16 1 9 4
M  V30 17 1 3 16
M  V30 18 1 6 17
M  V30 19 1 12 18
M  V30 20 1 12 19
M  V30 21 1 12 20
M  V30 22 1 14 21
M  V30 23 1 14 22
M  V30 24 1 15 23
M  V30 25 1 15 24
M  V30 END BOND
M  V30 END CTAB
M  END
