
     RDKit          3D

  0  0  0  0  0  0  0  0  0  0999 V3000
M  V30 BEGIN CTAB
M  V30 COUNTS 33 35 0 0 0
M  V30 BEGIN ATOM
M  V30 1 N -5.77028 1.27656 -0.928265 0
M  V30 2 C -5.08812 0.0513833 -1.03623 0
M  V30 3 S -5.46724 -0.996194 -2.20698 0
M  V30 4 C -4.04379 -0.267789 -0.0932461 0
M  V30 5 C -4.37859 -0.744505 1.17234 0
M  V30 6 C -3.4049 -1.06002 2.10012 0
M  V30 7 C -2.07422 -0.904354 1.77901 0
M  V30 8 C -1.74287 -0.432453 0.526204 0
M  V30 9 C -2.7247 -0.112246 -0.414914 0
M  V30 10 C -0.357109 -0.258594 0.160042 0
M  V30 11 N 0.129843 0.191356 -1.02153 0
M  V30 12 C 1.47609 0.217693 -0.991203 0
M  V30 13 C 1.81236 -0.241108 0.276486 0
M  V30 14 N 0.690157 -0.52057 0.948466 0
M  V30 15 C 3.14823 -0.32255 0.597845 0
M  V30 16 C 4.14009 0.0339665 -0.292631 0
M  V30 17 C 3.81286 0.492093 -1.5578 0
M  V30 18 C 2.45843 0.578076 -1.89286 0
M  V30 19 C 5.54318 -0.0652728 0.0819048 0
M  V30 20 S 6.19086 -1.50422 0.474047 0
M  V30 21 N 6.36652 1.08474 0.11151 0
M  V30 22 H -5.82966 1.8219 -0.0168634 0
M  V30 23 H -6.25802 1.71465 -1.7515 0
M  V30 24 H -5.42949 -0.871177 1.43606 0
M  V30 25 H -3.66411 -1.43159 3.08672 0
M  V30 26 H -1.28903 -1.14911 2.50098 0
M  V30 27 H -2.46473 0.257449 -1.39636 0
M  V30 28 H 0.688296 -0.888232 1.94385 0
M  V30 29 H 3.41954 -0.679146 1.5839 0
M  V30 30 H 4.58991 0.772566 -2.25857 0
M  V30 31 H 2.17659 0.932939 -2.87499 0
M  V30 32 H 6.62887 1.47001 1.03901 0
M  V30 33 H 6.71504 1.55375 -0.74378 0
M  V30 END ATOM
M  V30 BEGIN BOND
M  V30 1 1 1 2
M  V30 2 2 2 3
M  V30 3 1 2 4
M  V30 4 2 4 5
M  V30 5 1 5 6
M  V30 6 2 6 7
M  V30 7 1 7 8
M  V30 8 2 8 9
M  V30 9 1 8 10
M  V30 10 2 10 11
M  V30 11 1 11 12
M  V30 12 2 12 13
M  V30 13 1 13 14
M  V30 14 1 13 15
M  V30 15 2 15 16
M  V30 16 1 16 17
M  V30 17 2 17 18
M  V30 18 1 16 19
M  V30 19 2 19 20
M  V30 20 1 19 21
M  V30 21 1 9 4
M  V30 22 1 14 10
M  V30 23 1 18 12
M  V30 24 1 1 22
M  V30 25 1 1 23
M  V30 26 1 5 24
M  V30 27 1 6 25
M  V30 28 1 7 26
M  V30 29 1 9 27
M  V30 30 1 14 28
M  V30 31 1 15 29
M  V30 32 1 17 30
M  V30 33 1 18 31
M  V30 34 1 21 32
M  V30 35 1 21 33
M  V30 END BOND
M  V30 END CTAB
M  END
