
     RDKit          3D

  0  0  0  0  0  0  0  0  0  0999 V3000
M  V30 BEGIN CTAB
M  V30 COUNTS 22 23 0 0 0
M  V30 BEGIN ATOM
M  V30 1 N 3.97661 0.0616563 0.325748 0
M  V30 2 C 2.58746 -0.0755164 0.136171 0
M  V30 3 N 2.07595 -1.30588 -0.0385432 0
M  V30 4 C 0.755229 -1.52667 -0.226824 0
M  V30 5 C -0.0896052 -0.460224 -0.239882 0
M  V30 6 C 0.404408 0.811599 -0.0637126 0
M  V30 7 N 1.72632 0.963034 0.11855 0
M  V30 8 C -0.541827 1.93421 -0.0847326 0
M  V30 9 O -1.66301 1.65339 -0.82873 0
M  V30 10 C -2.35173 0.537859 -0.431286 0
M  V30 11 C -1.54078 -0.72482 -0.448701 0
M  V30 12 N -1.94517 -1.60837 0.655675 0
M  V30 13 H 4.47455 0.873 -0.0909296 0
M  V30 14 H 4.54493 -0.615634 0.869642 0
M  V30 15 H 0.4063 -2.54847 -0.362246 0
M  V30 16 H -0.733049 2.2522 0.938386 0
M  V30 17 H -0.0215326 2.79179 -0.601904 0
M  V30 18 H -2.79738 0.724058 0.569209 0
M  V30 19 H -3.2041 0.397589 -1.12935 0
M  V30 20 H -1.62386 -1.29255 -1.39939 0
M  V30 21 H -1.4745 -1.2423 1.52507 0
M  V30 22 H -2.96521 -1.59995 0.80779 0
M  V30 END ATOM
M  V30 BEGIN BOND
M  V30 1 1 1 2
M  V30 2 2 2 3
M  V30 3 1 3 4
M  V30 4 2 4 5
M  V30 5 1 5 6
M  V30 6 2 6 7
M  V30 7 1 6 8
M  V30 8 1 8 9
M  V30 9 1 9 10
M  V30 10 1 10 11
M  V30 11 1 11 12
M  V30 12 1 7 2
M  V30 13 1 11 5
M  V30 14 1 1 13
M  V30 15 1 1 14
M  V30 16 1 4 15
M  V30 17 1 8 16
M  V30 18 1 8 17
M  V30 19 1 10 18
M  V30 20 1 10 19
M  V30 21 1 11 20
M  V30 22 1 12 21
M  V30 23 1 12 22
M  V30 END BOND
M  V30 END CTAB
M  END
