
     RDKit          3D

  0  0  0  0  0  0  0  0  0  0999 V3000
M  V30 BEGIN CTAB
M  V30 COUNTS 32 33 0 0 0
M  V30 BEGIN ATOM
M  V30 1 N -2.31108 -0.41913 1.71203 0
M  V30 2 C -2.67305 0.219191 0.509493 0
M  V30 3 C -4.03817 0.340568 0.196525 0
M  V30 4 C -4.46188 0.962006 -0.935311 0
M  V30 5 C -3.51514 1.48291 -1.79204 0
M  V30 6 C -2.18391 1.36575 -1.49092 0
M  V30 7 C -1.71288 0.728902 -0.328283 0
M  V30 8 C -0.266986 0.626515 -0.0928959 0
M  V30 9 C 0.375062 -0.662617 -0.459646 0
M  V30 10 C 1.83142 -0.609504 -0.19832 0
M  V30 11 C 2.33214 -0.751575 1.06579 0
M  V30 12 N 1.48391 -0.977924 2.17023 0
M  V30 13 C 3.70625 -0.683775 1.28982 0
M  V30 14 C 4.55287 -0.471732 0.217288 0
M  V30 15 Cl 6.2941 -0.376745 0.456291 0
M  V30 16 C 4.06535 -0.326911 -1.06229 0
M  V30 17 C 2.70546 -0.393915 -1.28012 0
M  V30 18 H -1.48206 -0.976318 1.87332 0
M  V30 19 H -2.97058 -0.313566 2.54222 0
M  V30 20 H -4.77468 -0.0772091 0.886614 0
M  V30 21 H -5.51494 1.07163 -1.20529 0
M  V30 22 H -3.86 1.98139 -2.70897 0
M  V30 23 H -1.42529 1.76743 -2.15266 0
M  V30 24 H 0.241291 1.42964 -0.704473 0
M  V30 25 H -0.0482811 0.825358 0.988853 0
M  V30 26 H 0.244035 -0.82973 -1.55657 0
M  V30 27 H -0.0469736 -1.52725 0.0951668 0
M  V30 28 H 1.15499 -1.95723 2.41212 0
M  V30 29 H 1.15395 -0.202335 2.78124 0
M  V30 30 H 4.09812 -0.793059 2.29329 0
M  V30 31 H 4.76582 -0.163623 -1.86265 0
M  V30 32 H 2.28115 -0.287148 -2.27158 0
M  V30 END ATOM
M  V30 BEGIN BOND
M  V30 1 1 1 2
M  V30 2 2 2 3
M  V30 3 1 3 4
M  V30 4 2 4 5
M  V30 5 1 5 6
M  V30 6 2 6 7
M  V30 7 1 7 8
M  V30 8 1 8 9
M  V30 9 1 9 10
M  V30 10 2 10 11
M  V30 11 1 11 12
M  V30 12 1 11 13
M  V30 13 2 13 14
M  V30 14 1 14 15
M  V30 15 1 14 16
M  V30 16 2 16 17
M  V30 17 1 7 2
M  V30 18 1 17 10
M  V30 19 1 1 18
M  V30 20 1 1 19
M  V30 21 1 3 20
M  V30 22 1 4 21
M  V30 23 1 5 22
M  V30 24 1 6 23
M  V30 25 1 8 24
M  V30 26 1 8 25
M  V30 27 1 9 26
M  V30 28 1 9 27
M  V30 29 1 12 28
M  V30 30 1 12 29
M  V30 31 1 13 30
M  V30 32 1 16 31
M  V30 33 1 17 32
M  V30 END BOND
M  V30 END CTAB
M  END
