
     RDKit          3D

  0  0  0  0  0  0  0  0  0  0999 V3000
M  V30 BEGIN CTAB
M  V30 COUNTS 32 33 0 0 0
M  V30 BEGIN ATOM
M  V30 1 N 1.47494 1.23658 -2.02645 0
M  V30 2 C 2.0663 1.0474 -0.777124 0
M  V30 3 N 3.25911 1.54652 -0.375482 0
M  V30 4 N 3.56332 1.07238 0.843845 0
M  V30 5 C 2.54769 0.274094 1.19975 0
M  V30 6 C 1.59129 0.236391 0.215076 0
M  V30 7 C 0.303052 -0.440518 0.2737 0 CFG=2
M  V30 8 C 0.564152 -1.7206 -0.52953 0
M  V30 9 C -0.444437 -2.74598 -0.166719 0
M  V30 10 O -1.61157 -2.40306 -0.868206 0
M  V30 11 C -2.50605 -1.73126 -0.110686 0
M  V30 12 C -2.03751 -0.536718 0.599705 0
M  V30 13 N -0.896999 0.185467 0.0610427 0
M  V30 14 S -1.09706 1.80476 0.614772 0
M  V30 15 O -2.23553 1.95385 1.58559 0
M  V30 16 O 0.124593 2.28654 1.35751 0
M  V30 17 N -1.4235 2.91381 -0.659482 0
M  V30 18 H 2.06811 1.3768 -2.86192 0
M  V30 19 H 0.450562 1.21506 -2.14677 0
M  V30 20 H 4.42855 1.31969 1.32773 0
M  V30 21 H 2.50199 -0.270172 2.18368 0
M  V30 22 H 0.213504 -0.906473 1.35389 0
M  V30 23 H 0.390989 -1.42044 -1.61381 0
M  V30 24 H 1.61269 -2.02666 -0.515591 0
M  V30 25 H -0.0601088 -3.72033 -0.586294 0
M  V30 26 H -0.591833 -2.88608 0.902635 0
M  V30 27 H -2.88273 -2.47376 0.658797 0
M  V30 28 H -3.40768 -1.55787 -0.760855 0
M  V30 29 H -2.90806 0.193825 0.588495 0
M  V30 30 H -1.85578 -0.702455 1.68487 0
M  V30 31 H -2.42095 3.15871 -0.773712 0
M  V30 32 H -0.781043 3.72051 -0.678477 0
M  V30 END ATOM
M  V30 BEGIN BOND
M  V30 1 1 1 2
M  V30 2 2 2 3
M  V30 3 1 3 4
M  V30 4 1 4 5
M  V30 5 2 5 6
M  V30 6 1 6 7
M  V30 7 1 7 8
M  V30 8 1 8 9
M  V30 9 1 9 10
M  V30 10 1 10 11
M  V30 11 1 11 12
M  V30 12 1 12 13
M  V30 13 1 13 14
M  V30 14 2 14 15
M  V30 15 2 14 16
M  V30 16 1 14 17
M  V30 17 1 6 2
M  V30 18 1 13 7
M  V30 19 1 1 18
M  V30 20 1 1 19
M  V30 21 1 4 20
M  V30 22 1 5 21
M  V30 23 1 7 22 CFG=1
M  V30 24 1 8 23
M  V30 25 1 8 24
M  V30 26 1 9 25
M  V30 27 1 9 26
M  V30 28 1 11 27
M  V30 29 1 11 28
M  V30 30 1 12 29
M  V30 31 1 12 30
M  V30 32 1 17 31
M  V30 33 1 17 32
M  V30 END BOND
M  V30 END CTAB
M  END
