
     RDKit          3D

  0  0  0  0  0  0  0  0  0  0999 V3000
M  V30 BEGIN CTAB
M  V30 COUNTS 31 33 0 0 0
M  V30 BEGIN ATOM
M  V30 1 C -4.45626 -0.416083 -0.0309083 0
M  V30 2 C -3.14144 0.275515 0.0450181 0
M  V30 3 C -2.01826 -0.552501 -0.0570041 0
M  V30 4 N -2.13268 -1.94721 -0.22057 0
M  V30 5 C -0.771375 0.0312036 0.00652238 0
M  V30 6 C -0.613379 1.38906 0.165592 0
M  V30 7 C -1.75621 2.16876 0.262013 0
M  V30 8 C -3.02763 1.63997 0.205048 0
M  V30 9 C 0.708292 1.98594 0.230392 0
M  V30 10 O 0.851747 3.23925 0.37722 0
M  V30 11 C 1.89797 1.13437 0.125361 0
M  V30 12 C 1.77055 -0.231674 -0.0347977 0
M  V30 13 C 2.84962 -1.07594 -0.138526 0
M  V30 14 N 2.72634 -2.48752 -0.304056 0
M  V30 15 C 4.11202 -0.506262 -0.0766978 0
M  V30 16 C 4.29909 0.848386 0.0818731 0
M  V30 17 C 3.1802 1.6524 0.181035 0
M  V30 18 C 0.434895 -0.791182 -0.0951479 0
M  V30 19 O 0.312107 -2.04662 -0.242321 0
M  V30 20 H -4.39949 -1.32954 0.591148 0
M  V30 21 H -4.60018 -0.718309 -1.08171 0
M  V30 22 H -5.29164 0.226578 0.293282 0
M  V30 23 H -1.94133 -2.55591 0.617582 0
M  V30 24 H -2.39913 -2.31086 -1.1552 0
M  V30 25 H -1.62724 3.23173 0.386541 0
M  V30 26 H -3.91934 2.25581 0.281161 0
M  V30 27 H 2.89869 -2.91169 -1.23623 0
M  V30 28 H 2.46214 -3.02798 0.547061 0
M  V30 29 H 4.96079 -1.16642 -0.157833 0
M  V30 30 H 5.30853 1.28833 0.129497 0
M  V30 31 H 3.32262 2.70841 0.304654 0
M  V30 END ATOM
M  V30 BEGIN BOND
M  V30 1 1 1 2
M  V30 2 2 2 3
M  V30 3 1 3 4
M  V30 4 1 3 5
M  V30 5 2 5 6
M  V30 6 1 6 7
M  V30 7 2 7 8
M  V30 8 1 6 9
M  V30 9 2 9 10
M  V30 10 1 9 11
M  V30 11 2 11 12
M  V30 12 1 12 13
M  V30 13 1 13 14
M  V30 14 2 13 15
M  V30 15 1 15 16
M  V30 16 2 16 17
M  V30 17 1 12 18
M  V30 18 2 18 19
M  V30 19 1 8 2
M  V30 20 1 17 11
M  V30 21 1 18 5
M  V30 22 1 1 20
M  V30 23 1 1 21
M  V30 24 1 1 22
M  V30 25 1 4 23
M  V30 26 1 4 24
M  V30 27 1 7 25
M  V30 28 1 8 26
M  V30 29 1 14 27
M  V30 30 1 14 28
M  V30 31 1 15 29
M  V30 32 1 16 30
M  V30 33 1 17 31
M  V30 END BOND
M  V30 END CTAB
M  END
