
     RDKit          3D

  0  0  0  0  0  0  0  0  0  0999 V3000
M  V30 BEGIN CTAB
M  V30 COUNTS 56 57 0 0 0
M  V30 BEGIN ATOM
M  V30 1 N -10.185 0.962482 -0.104903 0
M  V30 2 C -8.76692 0.865508 -0.0802919 0
M  V30 3 N -8.07974 0.91207 1.07159 0
M  V30 4 C -6.72245 0.821668 1.12151 0
M  V30 5 N -6.02744 0.875078 2.36765 0
M  V30 6 C -5.99284 0.675955 -0.0350745 0
M  V30 7 C -4.50311 0.572071 -0.0310407 0
M  V30 8 C -4.03111 -0.769554 0.416777 0
M  V30 9 C -2.52351 -0.805687 0.38581 0
M  V30 10 C -1.94764 -0.56085 -0.973829 0
M  V30 11 C -0.470085 -0.637692 -0.885862 0
M  V30 12 C 0.297439 0.467359 -0.622562 0
M  V30 13 C 1.66999 0.36072 -0.551952 0
M  V30 14 C 2.3275 -0.837763 -0.738192 0
M  V30 15 C 1.52064 -1.94708 -1.00462 0
M  V30 16 C 0.155061 -1.85583 -1.0778 0
M  V30 17 C 3.77918 -0.987261 -0.668649 0
M  V30 18 O 4.25658 -2.11293 -1.03878 0
M  V30 19 N 4.58278 0.0595953 -0.217423 0
M  V30 20 C 6.05546 -0.151799 -0.170034 0
M  V30 21 C 6.42203 -0.0970907 1.26212 0
M  V30 22 C 7.8441 -0.245837 1.57357 0
M  V30 23 C 8.74901 0.848862 1.21621 0
M  V30 24 O 10.102 0.550551 1.0412 0
M  V30 25 O 8.31908 2.01303 1.07347 0
M  V30 26 C 6.64815 0.76602 -1.11196 0
M  V30 27 O 7.88288 0.486728 -1.71489 0
M  V30 28 O 6.04263 1.8433 -1.40941 0
M  V30 29 C -6.70235 0.628282 -1.22203 0
M  V30 30 O -6.02403 0.494325 -2.28249 0
M  V30 31 N -8.04332 0.72203 -1.2185 0
M  V30 32 H -10.7492 1.32994 -0.898179 0
M  V30 33 H -10.7005 0.639425 0.739629 0
M  V30 34 H -5.51324 1.71702 2.71152 0
M  V30 35 H -6.06402 -0.00898033 2.93755 0
M  V30 36 H -4.02684 1.36826 0.559742 0
M  V30 37 H -4.15583 0.704896 -1.09114 0
M  V30 38 H -4.32039 -0.992778 1.47892 0
M  V30 39 H -4.47933 -1.58371 -0.182499 0
M  V30 40 H -2.09881 -1.73925 0.79529 0
M  V30 41 H -2.16763 0.0254978 1.05365 0
M  V30 42 H -2.15844 0.499173 -1.30609 0
M  V30 43 H -2.35762 -1.29732 -1.70659 0
M  V30 44 H -0.139965 1.45741 -0.461434 0
M  V30 45 H 2.25974 1.26584 -0.340662 0
M  V30 46 H 2.01117 -2.91386 -1.15733 0
M  V30 47 H -0.429482 -2.76541 -1.29045 0
M  V30 48 H 4.19765 0.963949 0.0822794 0
M  V30 49 H 6.18311 -1.21803 -0.575973 0
M  V30 50 H 5.86625 -0.881755 1.85263 0
M  V30 51 H 6.01501 0.877619 1.6681 0
M  V30 52 H 7.93798 -0.430048 2.68161 0
M  V30 53 H 8.21869 -1.18176 1.06674 0
M  V30 54 H 10.6545 0.110455 1.77489 0
M  V30 55 H 7.9574 0.102537 -2.63681 0
M  V30 56 H -8.57518 0.684971 -2.12499 0
M  V30 END ATOM
M  V30 BEGIN BOND
M  V30 1 1 1 2
M  V30 2 2 2 3
M  V30 3 1 3 4
M  V30 4 1 4 5
M  V30 5 2 4 6
M  V30 6 1 6 7
M  V30 7 1 7 8
M  V30 8 1 8 9
M  V30 9 1 9 10
M  V30 10 1 10 11
M  V30 11 2 11 12
M  V30 12 1 12 13
M  V30 13 2 13 14
M  V30 14 1 14 15
M  V30 15 2 15 16
M  V30 16 1 14 17
M  V30 17 2 17 18
M  V30 18 1 17 19
M  V30 19 1 19 20
M  V30 20 1 20 21
M  V30 21 1 21 22
M  V30 22 1 22 23
M  V30 23 1 23 24
M  V30 24 2 23 25
M  V30 25 1 20 26
M  V30 26 1 26 27
M  V30 27 2 26 28
M  V30 28 1 6 29
M  V30 29 2 29 30
M  V30 30 1 29 31
M  V30 31 1 31 2
M  V30 32 1 16 11
M  V30 33 1 1 32
M  V30 34 1 1 33
M  V30 35 1 5 34
M  V30 36 1 5 35
M  V30 37 1 7 36
M  V30 38 1 7 37
M  V30 39 1 8 38
M  V30 40 1 8 39
M  V30 41 1 9 40
M  V30 42 1 9 41
M  V30 43 1 10 42
M  V30 44 1 10 43
M  V30 45 1 12 44
M  V30 46 1 13 45
M  V30 47 1 15 46
M  V30 48 1 16 47
M  V30 49 1 19 48
M  V30 50 1 20 49
M  V30 51 1 21 50
M  V30 52 1 21 51
M  V30 53 1 22 52
M  V30 54 1 22 53
M  V30 55 1 24 54
M  V30 56 1 27 55
M  V30 57 1 31 56
M  V30 END BOND
M  V30 END CTAB
M  END
