
     RDKit          3D

  0  0  0  0  0  0  0  0  0  0999 V3000
M  V30 BEGIN CTAB
M  V30 COUNTS 29 29 0 0 0
M  V30 BEGIN ATOM
M  V30 1 C 5.38019 0.460986 -0.196581 0
M  V30 2 C 4.00597 0.900869 0.274002 0
M  V30 3 O 3.04842 -0.0513571 -0.133111 0
M  V30 4 C 1.68922 0.127433 0.146231 0
M  V30 5 O 1.4009 1.16553 0.777545 0
M  V30 6 C 0.782004 -0.911138 -0.340654 0
M  V30 7 C -0.654371 -0.616717 -0.263453 0
M  V30 8 C -1.18531 0.649015 -0.317733 0
M  V30 9 C -2.56978 0.865051 -0.299297 0
M  V30 10 N -3.08934 2.18382 -0.333386 0
M  V30 11 C -3.44507 -0.196406 -0.226711 0
M  V30 12 C -2.87257 -1.44537 -0.171587 0
M  V30 13 C -1.52827 -1.69537 -0.187527 0
M  V30 14 C -1.00885 -3.05416 -0.123845 0
M  V30 15 N -0.580382 -4.14383 -0.0607318 0
M  V30 16 N -4.83974 0.00747541 -0.233739 0
M  V30 17 H 5.95404 1.34927 -0.514228 0
M  V30 18 H 5.22037 -0.14058 -1.12091 0
M  V30 19 H 5.96381 -0.0882655 0.546952 0
M  V30 20 H 3.77063 1.82889 -0.333082 0
M  V30 21 H 4.01573 1.12132 1.33912 0
M  V30 22 H 0.984831 -1.19574 -1.40847 0
M  V30 23 H 0.94923 -1.84855 0.299801 0
M  V30 24 H -0.573038 1.52838 -0.385841 0
M  V30 25 H -2.82899 2.90101 0.384166 0
M  V30 26 H -3.74354 2.41481 -1.10031 0
M  V30 27 H -3.54347 -2.29667 -0.105558 0
M  V30 28 H -5.43611 -0.390263 0.499705 0
M  V30 29 H -5.26652 0.570556 -0.987492 0
M  V30 END ATOM
M  V30 BEGIN BOND
M  V30 1 1 1 2
M  V30 2 1 2 3
M  V30 3 1 3 4
M  V30 4 2 4 5
M  V30 5 1 4 6
M  V30 6 1 6 7
M  V30 7 2 7 8
M  V30 8 1 8 9
M  V30 9 1 9 10
M  V30 10 2 9 11
M  V30 11 1 11 12
M  V30 12 2 12 13
M  V30 13 1 13 14
M  V30 14 3 14 15
M  V30 15 1 11 16
M  V30 16 1 13 7
M  V30 17 1 1 17
M  V30 18 1 1 18
M  V30 19 1 1 19
M  V30 20 1 2 20
M  V30 21 1 2 21
M  V30 22 1 6 22
M  V30 23 1 6 23
M  V30 24 1 8 24
M  V30 25 1 10 25
M  V30 26 1 10 26
M  V30 27 1 12 27
M  V30 28 1 16 28
M  V30 29 1 16 29
M  V30 END BOND
M  V30 END CTAB
M  END
