
     RDKit          3D

  0  0  0  0  0  0  0  0  0  0999 V3000
M  V30 BEGIN CTAB
M  V30 COUNTS 35 36 0 0 0
M  V30 BEGIN ATOM
M  V30 1 O -1.50391 -0.610132 -1.5882 0
M  V30 2 C -1.89064 0.238717 -0.731965 0
M  V30 3 C -3.07115 -0.088583 0.0555438 0
M  V30 4 C -3.60669 0.737144 1.02148 0
M  V30 5 C -4.74464 0.361661 1.74285 0
M  V30 6 C -5.37553 -0.843548 1.51973 0
M  V30 7 N -4.83642 -1.63228 0.57378 0
M  V30 8 C -3.73975 -1.29236 -0.135073 0
M  V30 9 N -3.20864 -2.17829 -1.13464 0
M  V30 10 N -1.17309 1.45708 -0.572961 0
M  V30 11 C -0.00953558 1.78967 -1.3441 0
M  V30 12 C 1.19774 1.04791 -0.85811 0
M  V30 13 C 2.38476 1.07769 -1.56423 0
M  V30 14 C 3.50682 0.400086 -1.12389 0
M  V30 15 C 3.47569 -0.332615 0.0433715 0
M  V30 16 C 2.27863 -0.343118 0.724808 0
M  V30 17 C 1.14421 0.326328 0.304315 0
M  V30 18 S 4.87126 -1.19927 0.629128 0
M  V30 19 O 5.73281 -1.67563 -0.50132 0
M  V30 20 O 4.44661 -2.38352 1.4201 0
M  V30 21 N 5.75368 -0.0994289 1.64994 0
M  V30 22 H -3.13134 1.68986 1.21776 0
M  V30 23 H -5.16882 1.00223 2.49967 0
M  V30 24 H -6.25603 -1.15224 2.06663 0
M  V30 25 H -2.45412 -2.86422 -0.916489 0
M  V30 26 H -3.57205 -2.15244 -2.11038 0
M  V30 27 H -1.50179 2.14295 0.13378 0
M  V30 28 H -0.206173 1.54718 -2.42305 0
M  V30 29 H 0.229545 2.85901 -1.27065 0
M  V30 30 H 2.43737 1.6381 -2.47331 0
M  V30 31 H 4.43674 0.420497 -1.67257 0
M  V30 32 H 2.23014 -0.918956 1.65529 0
M  V30 33 H 0.215433 0.283758 0.891284 0
M  V30 34 H 5.73446 0.863725 1.23881 0
M  V30 35 H 5.37442 -0.116998 2.62586 0
M  V30 END ATOM
M  V30 BEGIN BOND
M  V30 1 2 1 2
M  V30 2 1 2 3
M  V30 3 2 3 4
M  V30 4 1 4 5
M  V30 5 2 5 6
M  V30 6 1 6 7
M  V30 7 2 7 8
M  V30 8 1 8 9
M  V30 9 1 2 10
M  V30 10 1 10 11
M  V30 11 1 11 12
M  V30 12 2 12 13
M  V30 13 1 13 14
M  V30 14 2 14 15
M  V30 15 1 15 16
M  V30 16 2 16 17
M  V30 17 1 15 18
M  V30 18 2 18 19
M  V30 19 2 18 20
M  V30 20 1 18 21
M  V30 21 1 8 3
M  V30 22 1 17 12
M  V30 23 1 4 22
M  V30 24 1 5 23
M  V30 25 1 6 24
M  V30 26 1 9 25
M  V30 27 1 9 26
M  V30 28 1 10 27
M  V30 29 1 11 28
M  V30 30 1 11 29
M  V30 31 1 13 30
M  V30 32 1 14 31
M  V30 33 1 16 32
M  V30 34 1 17 33
M  V30 35 1 21 34
M  V30 36 1 21 35
M  V30 END BOND
M  V30 END CTAB
M  END
