
     RDKit          3D

  0  0  0  0  0  0  0  0  0  0999 V3000
M  V30 BEGIN CTAB
M  V30 COUNTS 29 30 0 0 0
M  V30 BEGIN ATOM
M  V30 1 C 5.26571 0.784432 1.31809 0
M  V30 2 O 3.99408 0.416365 1.81936 0
M  V30 3 C 2.84744 0.447637 1.07341 0
M  V30 4 C 1.66632 0.0695526 1.65953 0
M  V30 5 I 1.60211 -0.548737 3.66461 0
M  V30 6 C 0.496003 0.102087 0.895855 0
M  V30 7 C 0.528753 0.505948 -0.421899 0
M  V30 8 O -0.557131 0.570137 -1.25478 0
M  V30 9 C -1.84895 0.205621 -1.00933 0
M  V30 10 C -2.88962 1.12469 -0.999399 0
M  V30 11 N -4.12026 0.691071 -0.75454 0
M  V30 12 C -4.45241 -0.591698 -0.509733 0
M  V30 13 N -5.79566 -0.971271 -0.256016 0
M  V30 14 N -3.44308 -1.47525 -0.521143 0
M  V30 15 C -2.15134 -1.11749 -0.763735 0
M  V30 16 N -1.13793 -2.10889 -0.788259 0
M  V30 17 C 1.757 0.885026 -0.983626 0
M  V30 18 I 1.80719 1.50638 -3.00679 0
M  V30 19 C 2.92074 0.859735 -0.246185 0
M  V30 20 H 6.08417 0.410495 1.96412 0
M  V30 21 H 5.32163 1.88666 1.30778 0
M  V30 22 H 5.45007 0.346897 0.294226 0
M  V30 23 H -0.457328 -0.178315 1.34185 0
M  V30 24 H -2.63997 2.15878 -1.19424 0
M  V30 25 H -6.57806 -0.379323 -0.588112 0
M  V30 26 H -5.99265 -1.84138 0.261873 0
M  V30 27 H -1.25152 -2.96892 -0.239025 0
M  V30 28 H -0.29893 -1.95099 -1.35927 0
M  V30 29 H 3.87359 1.16074 -0.70462 0
M  V30 END ATOM
M  V30 BEGIN BOND
M  V30 1 1 1 2
M  V30 2 1 2 3
M  V30 3 2 3 4
M  V30 4 1 4 5
M  V30 5 1 4 6
M  V30 6 2 6 7
M  V30 7 1 7 8
M  V30 8 1 8 9
M  V30 9 2 9 10
M  V30 10 1 10 11
M  V30 11 2 11 12
M  V30 12 1 12 13
M  V30 13 1 12 14
M  V30 14 2 14 15
M  V30 15 1 15 16
M  V30 16 1 7 17
M  V30 17 1 17 18
M  V30 18 2 17 19
M  V30 19 1 19 3
M  V30 20 1 15 9
M  V30 21 1 1 20
M  V30 22 1 1 21
M  V30 23 1 1 22
M  V30 24 1 6 23
M  V30 25 1 10 24
M  V30 26 1 13 25
M  V30 27 1 13 26
M  V30 28 1 16 27
M  V30 29 1 16 28
M  V30 30 1 19 29
M  V30 END BOND
M  V30 END CTAB
M  END
