
     RDKit          3D

  0  0  0  0  0  0  0  0  0  0999 V3000
M  V30 BEGIN CTAB
M  V30 COUNTS 36 38 0 0 0
M  V30 BEGIN ATOM
M  V30 1 N -1.24329 3.82182 1.32657 0
M  V30 2 N -0.622489 2.5723 1.06991 0
M  V30 3 C -1.38804 1.47838 0.579941 0
M  V30 4 N -2.61421 1.22937 0.87132 0
M  V30 5 C -3.01304 0.0443677 0.179046 0
M  V30 6 C -1.98412 -0.46774 -0.577704 0
M  V30 7 C -2.12603 -1.61453 -1.32566 0
M  V30 8 C -3.31268 -2.31375 -1.35661 0
M  V30 9 Cl -3.56547 -3.77553 -2.28219 0
M  V30 10 C -4.3507 -1.80718 -0.600925 0
M  V30 11 C -4.22125 -0.66155 0.15135 0
M  V30 12 C -0.852064 0.471439 -0.37562 0
M  V30 13 O -0.675152 1.13149 -1.60996 0
M  V30 14 C 0.408695 -0.144708 0.0253693 0
M  V30 15 C 0.549892 -0.869438 1.17669 0
M  V30 16 Cl -0.789437 -1.09562 2.26778 0
M  V30 17 C 1.79305 -1.42001 1.46275 0
M  V30 18 C 2.87991 -1.2623 0.633545 0
M  V30 19 C 2.74703 -0.533 -0.529343 0
M  V30 20 C 1.52241 0.0150352 -0.82095 0
M  V30 21 S 4.12539 -0.324572 -1.59486 0
M  V30 22 N 5.0378 1.07216 -1.20592 0
M  V30 23 O 4.93435 -1.5839 -1.52192 0
M  V30 24 O 3.55878 -0.111315 -2.98788 0
M  V30 25 H -0.616748 4.58636 1.05435 0
M  V30 26 H -2.15643 3.89054 0.824952 0
M  V30 27 H 0.410385 2.49829 1.25655 0
M  V30 28 H -1.29649 -2.01716 -1.92804 0
M  V30 29 H -5.31146 -2.34413 -0.605848 0
M  V30 30 H -5.0415 -0.252402 0.754685 0
M  V30 31 H -0.637442 0.423656 -2.28821 0
M  V30 32 H 1.85477 -1.98792 2.38993 0
M  V30 33 H 3.84075 -1.69599 0.868385 0
M  V30 34 H 1.44586 0.582225 -1.73922 0
M  V30 35 H 6.05946 0.878545 -1.09448 0
M  V30 36 H 4.64951 1.58676 -0.37809 0
M  V30 END ATOM
M  V30 BEGIN BOND
M  V30 1 1 1 2
M  V30 2 1 2 3
M  V30 3 2 3 4
M  V30 4 1 4 5
M  V30 5 2 5 6
M  V30 6 1 6 7
M  V30 7 2 7 8
M  V30 8 1 8 9
M  V30 9 1 8 10
M  V30 10 2 10 11
M  V30 11 1 6 12
M  V30 12 1 12 13
M  V30 13 1 12 14
M  V30 14 2 14 15
M  V30 15 1 15 16
M  V30 16 1 15 17
M  V30 17 2 17 18
M  V30 18 1 18 19
M  V30 19 2 19 20
M  V30 20 1 19 21
M  V30 21 1 21 22
M  V30 22 2 21 23
M  V30 23 2 21 24
M  V30 24 1 12 3
M  V30 25 1 20 14
M  V30 26 1 11 5
M  V30 27 1 1 25
M  V30 28 1 1 26
M  V30 29 1 2 27
M  V30 30 1 7 28
M  V30 31 1 10 29
M  V30 32 1 11 30
M  V30 33 1 13 31
M  V30 34 1 17 32
M  V30 35 1 18 33
M  V30 36 1 20 34
M  V30 37 1 22 35
M  V30 38 1 22 36
M  V30 END BOND
M  V30 END CTAB
M  END
