
     RDKit          3D

  0  0  0  0  0  0  0  0  0  0999 V3000
M  V30 BEGIN CTAB
M  V30 COUNTS 25 26 0 0 0
M  V30 BEGIN ATOM
M  V30 1 N 2.91374 -0.249776 1.85737 0
M  V30 2 C 2.71821 -0.272338 0.414288 0
M  V30 3 N 3.76241 -0.390426 -0.249726 0
M  V30 4 C 1.34367 -0.154983 -0.0481136 0
M  V30 5 C 0.314281 -0.0308185 0.881677 0
M  V30 6 C -0.985815 0.0821403 0.515285 0
M  V30 7 C -2.2019 0.221641 1.36525 0
M  V30 8 C -3.27524 0.554393 0.388603 0
M  V30 9 C -2.77756 0.20963 -0.981949 0
M  V30 10 C -1.30625 0.0750317 -0.802841 0
M  V30 11 N -0.330667 -0.0433804 -1.71008 0
M  V30 12 C 0.967201 -0.156964 -1.37301 0
M  V30 13 N 1.9491 -0.279042 -2.38848 0
M  V30 14 H 2.53041 0.517078 2.45021 0
M  V30 15 H 3.44341 -0.9982 2.35109 0
M  V30 16 H 4.08542 -0.447653 -1.18119 0
M  V30 17 H 0.58431 -0.0259914 1.95146 0
M  V30 18 H -2.39262 -0.787332 1.81315 0
M  V30 19 H -2.03687 0.999752 2.14562 0
M  V30 20 H -3.57972 1.60998 0.506656 0
M  V30 21 H -4.19187 -0.0483087 0.642492 0
M  V30 22 H -3.21514 -0.729234 -1.31948 0
M  V30 23 H -2.94413 1.04539 -1.68744 0
M  V30 24 H 2.13159 -1.2196 -2.78169 0
M  V30 25 H 2.49402 0.519009 -2.75915 0
M  V30 END ATOM
M  V30 BEGIN BOND
M  V30 1 1 1 2
M  V30 2 2 2 3 CFG=2
M  V30 3 1 2 4
M  V30 4 2 4 5
M  V30 5 1 5 6
M  V30 6 1 6 7
M  V30 7 1 7 8
M  V30 8 1 8 9
M  V30 9 1 9 10
M  V30 10 1 10 11
M  V30 11 2 11 12
M  V30 12 1 12 13
M  V30 13 1 12 4
M  V30 14 2 10 6
M  V30 15 1 1 14
M  V30 16 1 1 15
M  V30 17 1 3 16
M  V30 18 1 5 17
M  V30 19 1 7 18
M  V30 20 1 7 19
M  V30 21 1 8 20
M  V30 22 1 8 21
M  V30 23 1 9 22
M  V30 24 1 9 23
M  V30 25 1 13 24
M  V30 26 1 13 25
M  V30 END BOND
M  V30 END CTAB
M  END
