
     RDKit          3D

  0  0  0  0  0  0  0  0  0  0999 V3000
M  V30 BEGIN CTAB
M  V30 COUNTS 25 25 0 0 0
M  V30 BEGIN ATOM
M  V30 1 C 4.33888 0.364226 -0.394212 0
M  V30 2 C 3.11393 -0.502361 -0.258767 0
M  V30 3 C 1.886 0.397441 -0.182624 0
M  V30 4 O 0.727854 -0.389193 -0.0556583 0
M  V30 5 C -0.515506 0.200915 0.0322857 0
M  V30 6 N -0.694646 1.53036 0.00298181 0
M  V30 7 C -1.90206 2.11466 0.0880009 0
M  V30 8 C -3.02712 1.33595 0.211854 0
M  V30 9 C -2.89471 -0.0462198 0.246986 0
M  V30 10 C -1.63255 -0.611412 0.156574 0
M  V30 11 N -1.50903 -2.02506 0.193536 0
M  V30 12 N -4.00811 -0.91258 0.37276 0
M  V30 13 F 3.13538 -1.247 0.899611 0
M  V30 14 F 2.99892 -1.39349 -1.32129 0
M  V30 15 H 4.09862 1.37916 -0.760967 0
M  V30 16 H 5.08133 -0.14954 -1.05956 0
M  V30 17 H 4.80894 0.450264 0.608947 0
M  V30 18 H 1.85042 1.10962 -1.0255 0
M  V30 19 H 2.02758 1.0154 0.74394 0
M  V30 20 H -2.00357 3.1981 0.0602345 0
M  V30 21 H -4.03031 1.73676 0.285352 0
M  V30 22 H -1.84382 -2.56994 -0.622908 0
M  V30 23 H -1.09855 -2.53699 1.00138 0
M  V30 24 H -4.10871 -1.83779 -0.0962571 0
M  V30 25 H -4.79914 -0.611298 0.982138 0
M  V30 END ATOM
M  V30 BEGIN BOND
M  V30 1 1 1 2
M  V30 2 1 2 3
M  V30 3 1 3 4
M  V30 4 1 4 5
M  V30 5 2 5 6
M  V30 6 1 6 7
M  V30 7 2 7 8
M  V30 8 1 8 9
M  V30 9 2 9 10
M  V30 10 1 10 11
M  V30 11 1 9 12
M  V30 12 1 2 13
M  V30 13 1 2 14
M  V30 14 1 10 5
M  V30 15 1 1 15
M  V30 16 1 1 16
M  V30 17 1 1 17
M  V30 18 1 3 18
M  V30 19 1 3 19
M  V30 20 1 7 20
M  V30 21 1 8 21
M  V30 22 1 11 22
M  V30 23 1 11 23
M  V30 24 1 12 24
M  V30 25 1 12 25
M  V30 END BOND
M  V30 END CTAB
M  END
