
     RDKit          3D

  0  0  0  0  0  0  0  0  0  0999 V3000
M  V30 BEGIN CTAB
M  V30 COUNTS 41 44 0 0 0
M  V30 BEGIN ATOM
M  V30 1 N -4.78661 -2.37283 0.726019 0
M  V30 2 C -3.53069 -1.67877 0.758688 0
M  V30 3 C -3.25732 -0.754852 1.74646 0
M  V30 4 C -2.0602 -0.0985477 1.77073 0
M  V30 5 C -1.11497 -0.349117 0.814384 0
M  V30 6 C -1.37723 -1.26252 -0.167696 0
M  V30 7 C -2.57745 -1.93029 -0.204375 0
M  V30 8 C 0.20547 0.353353 0.804652 0
M  V30 9 O 0.776158 0.363566 2.05703 0
M  V30 10 S 1.97844 1.5552 1.82198 0
M  V30 11 O 3.14522 1.04636 1.07684 0
M  V30 12 O 2.30885 2.24932 3.08771 0
M  V30 13 C 0.97624 2.57166 0.766254 0
M  V30 14 C 0.995028 3.8814 0.409818 0
M  V30 15 C 0.029983 4.38888 -0.442397 0
M  V30 16 C -0.959129 3.56274 -0.93538 0
M  V30 17 C -0.966276 2.2413 -0.567649 0
M  V30 18 C 0.0106351 1.71185 0.299018 0
M  V30 19 C 1.12736 -0.450275 -0.0624781 0
M  V30 20 C 1.60018 -1.65702 0.413002 0
M  V30 21 C 2.45197 -2.45703 -0.328236 0
M  V30 22 C 2.85057 -2.03934 -1.59628 0
M  V30 23 N 3.72332 -2.85946 -2.35601 0
M  V30 24 C 2.36718 -0.833928 -2.04949 0
M  V30 25 C 1.51821 -0.0270376 -1.32176 0
M  V30 26 H -4.94618 -3.26868 1.22209 0
M  V30 27 H -5.55998 -1.96297 0.187267 0
M  V30 28 H -4.034 -0.585621 2.48549 0
M  V30 29 H -1.8715 0.627855 2.56447 0
M  V30 30 H -0.671409 -1.51724 -0.97093 0
M  V30 31 H -2.82445 -2.66312 -0.967238 0
M  V30 32 H 1.7956 4.49987 0.823087 0
M  V30 33 H 0.0622158 5.44681 -0.717798 0
M  V30 34 H -1.7039 3.99105 -1.60291 0
M  V30 35 H -1.74416 1.60733 -0.959912 0
M  V30 36 H 1.31899 -2.02335 1.39116 0
M  V30 37 H 2.82723 -3.4023 0.0347052 0
M  V30 38 H 3.40796 -3.78818 -2.70094 0
M  V30 39 H 4.68056 -2.53002 -2.56779 0
M  V30 40 H 2.66456 -0.490277 -3.03298 0
M  V30 41 H 1.16353 0.904228 -1.70862 0
M  V30 END ATOM
M  V30 BEGIN BOND
M  V30 1 1 1 2
M  V30 2 2 2 3
M  V30 3 1 3 4
M  V30 4 2 4 5
M  V30 5 1 5 6
M  V30 6 2 6 7
M  V30 7 1 5 8
M  V30 8 1 8 9
M  V30 9 1 9 10
M  V30 10 2 10 11
M  V30 11 2 10 12
M  V30 12 1 10 13
M  V30 13 2 13 14
M  V30 14 1 14 15
M  V30 15 2 15 16
M  V30 16 1 16 17
M  V30 17 2 17 18
M  V30 18 1 8 19
M  V30 19 2 19 20
M  V30 20 1 20 21
M  V30 21 2 21 22
M  V30 22 1 22 23
M  V30 23 1 22 24
M  V30 24 2 24 25
M  V30 25 1 7 2
M  V30 26 1 18 8
M  V30 27 1 25 19
M  V30 28 1 18 13
M  V30 29 1 1 26
M  V30 30 1 1 27
M  V30 31 1 3 28
M  V30 32 1 4 29
M  V30 33 1 6 30
M  V30 34 1 7 31
M  V30 35 1 14 32
M  V30 36 1 15 33
M  V30 37 1 16 34
M  V30 38 1 17 35
M  V30 39 1 20 36
M  V30 40 1 21 37
M  V30 41 1 23 38
M  V30 42 1 23 39
M  V30 43 1 24 40
M  V30 44 1 25 41
M  V30 END BOND
M  V30 END CTAB
M  END
