
     RDKit          3D

  0  0  0  0  0  0  0  0  0  0999 V3000
M  V30 BEGIN CTAB
M  V30 COUNTS 84 83 0 0 0
M  V30 BEGIN ATOM
M  V30 1 N 9.78811 0.583023 2.63536 0
M  V30 2 C 10.1247 1.10711 1.32704 0
M  V30 3 C 9.28317 0.349003 0.277739 0
M  V30 4 C 9.61795 0.877685 -1.0773 0
M  V30 5 C 8.95752 0.220242 -2.21733 0
M  V30 6 C 7.50931 0.214185 -2.39028 0
M  V30 7 C 6.6172 -0.442911 -1.41051 0
M  V30 8 C 6.89824 -1.89843 -1.19695 0
M  V30 9 C 5.98095 -2.45762 -0.147024 0
M  V30 10 C 4.51902 -2.29371 -0.612628 0
M  V30 11 C 3.58919 -2.86056 0.413519 0
M  V30 12 N 2.25588 -2.8458 0.113316 0
M  V30 13 C 1.39874 -1.77342 -0.0113913 0
M  V30 14 C 1.49922 -0.865583 -1.19704 0
M  V30 15 S 0.264428 0.475178 -1.14587 0
M  V30 16 S -1.70303 -0.31238 -1.26949 0
M  V30 17 C -2.29214 -0.599229 0.427646 0
M  V30 18 C -2.42946 0.795913 1.0502 0
M  V30 19 N -3.40041 1.48896 0.228337 0
M  V30 20 C -3.60365 2.80502 0.709398 0
M  V30 21 C -4.27105 2.92129 2.026 0
M  V30 22 C -5.65112 2.38361 2.14727 0
M  V30 23 C -5.80435 0.932286 1.90794 0
M  V30 24 C -7.2451 0.489645 2.11595 0
M  V30 25 C -8.18268 1.19591 1.17045 0
M  V30 26 C -7.8333 0.932738 -0.272335 0
M  V30 27 C -7.87389 -0.516544 -0.626699 0
M  V30 28 C -9.21585 -1.15284 -0.426601 0
M  V30 29 C -10.2971 -0.524382 -1.24992 0
M  V30 30 N -9.93264 -0.658226 -2.66122 0
M  V30 31 H 10.6408 0.25279 3.12435 0
M  V30 32 H 9.02109 -0.100755 2.61725 0
M  V30 33 H 9.81982 2.16776 1.28904 0
M  V30 34 H 11.2004 1.04298 1.09661 0
M  V30 35 H 9.44193 -0.720408 0.399991 0
M  V30 36 H 8.23393 0.60339 0.525815 0
M  V30 37 H 10.7487 0.898252 -1.20126 0
M  V30 38 H 9.34533 1.98544 -1.14992 0
M  V30 39 H 9.37861 0.757212 -3.15243 0
M  V30 40 H 9.39985 -0.834332 -2.25476 0
M  V30 41 H 7.20504 -0.108103 -3.44514 0
M  V30 42 H 7.16951 1.3117 -2.41401 0
M  V30 43 H 6.41794 0.16611 -0.535985 0
M  V30 44 H 5.57057 -0.389198 -1.95355 0
M  V30 45 H 6.69261 -2.3941 -2.20328 0
M  V30 46 H 7.95446 -2.13969 -1.01316 0
M  V30 47 H 6.1872 -3.53319 0.0629145 0
M  V30 48 H 6.04033 -1.91748 0.809753 0
M  V30 49 H 4.3835 -2.72515 -1.59189 0
M  V30 50 H 4.41268 -1.16539 -0.595903 0
M  V30 51 H 3.91464 -3.9554 0.555001 0
M  V30 52 H 3.84209 -2.43203 1.43416 0
M  V30 53 H 1.91012 -3.69128 -0.391216 0
M  V30 54 H 1.42783 -1.13559 0.943723 0
M  V30 55 H 0.298458 -2.10942 0.0205322 0
M  V30 56 H 1.26512 -1.42191 -2.15384 0
M  V30 57 H 2.47188 -0.415555 -1.29484 0
M  V30 58 H -3.26122 -1.1057 0.372581 0
M  V30 59 H -1.59382 -1.17808 1.04038 0
M  V30 60 H -2.67334 0.761709 2.11323 0
M  V30 61 H -1.48057 1.35978 0.950143 0
M  V30 62 H -3.08232 1.42986 -0.758804 0
M  V30 63 H -4.11171 3.43316 -0.0802164 0
M  V30 64 H -2.58327 3.2775 0.791223 0
M  V30 65 H -4.31532 4.01681 2.33168 0
M  V30 66 H -3.62088 2.48463 2.85838 0
M  V30 67 H -6.01583 2.64695 3.17525 0
M  V30 68 H -6.28049 2.95545 1.40439 0
M  V30 69 H -5.57317 0.647368 0.870313 0
M  V30 70 H -5.15328 0.339258 2.56609 0
M  V30 71 H -7.49114 0.720716 3.16271 0
M  V30 72 H -7.31019 -0.589245 1.97235 0
M  V30 73 H -9.22201 0.859775 1.40245 0
M  V30 74 H -8.17546 2.29252 1.32861 0
M  V30 75 H -8.60649 1.45852 -0.896708 0
M  V30 76 H -6.85467 1.35782 -0.499155 0
M  V30 77 H -7.63195 -0.588295 -1.72209 0
M  V30 78 H -7.11617 -1.12065 -0.117216 0
M  V30 79 H -9.50638 -1.21475 0.641492 0
M  V30 80 H -9.12824 -2.21619 -0.769783 0
M  V30 81 H -11.2411 -1.08079 -1.03833 0
M  V30 82 H -10.4624 0.539924 -1.001 0
M  V30 83 H -10.76 -0.993611 -3.21294 0
M  V30 84 H -9.71087 0.289309 -3.05054 0
M  V30 END ATOM
M  V30 BEGIN BOND
M  V30 1 1 1 2
M  V30 2 1 2 3
M  V30 3 1 3 4
M  V30 4 1 4 5
M  V30 5 1 5 6
M  V30 6 1 6 7
M  V30 7 1 7 8
M  V30 8 1 8 9
M  V30 9 1 9 10
M  V30 10 1 10 11
M  V30 11 1 11 12
M  V30 12 1 12 13
M  V30 13 1 13 14
M  V30 14 1 14 15
M  V30 15 1 15 16
M  V30 16 1 16 17
M  V30 17 1 17 18
M  V30 18 1 18 19
M  V30 19 1 19 20
M  V30 20 1 20 21
M  V30 21 1 21 22
M  V30 22 1 22 23
M  V30 23 1 23 24
M  V30 24 1 24 25
M  V30 25 1 25 26
M  V30 26 1 26 27
M  V30 27 1 27 28
M  V30 28 1 28 29
M  V30 29 1 29 30
M  V30 30 1 1 31
M  V30 31 1 1 32
M  V30 32 1 2 33
M  V30 33 1 2 34
M  V30 34 1 3 35
M  V30 35 1 3 36
M  V30 36 1 4 37
M  V30 37 1 4 38
M  V30 38 1 5 39
M  V30 39 1 5 40
M  V30 40 1 6 41
M  V30 41 1 6 42
M  V30 42 1 7 43
M  V30 43 1 7 44
M  V30 44 1 8 45
M  V30 45 1 8 46
M  V30 46 1 9 47
M  V30 47 1 9 48
M  V30 48 1 10 49
M  V30 49 1 10 50
M  V30 50 1 11 51
M  V30 51 1 11 52
M  V30 52 1 12 53
M  V30 53 1 13 54
M  V30 54 1 13 55
M  V30 55 1 14 56
M  V30 56 1 14 57
M  V30 57 1 17 58
M  V30 58 1 17 59
M  V30 59 1 18 60
M  V30 60 1 18 61
M  V30 61 1 19 62
M  V30 62 1 20 63
M  V30 63 1 20 64
M  V30 64 1 21 65
M  V30 65 1 21 66
M  V30 66 1 22 67
M  V30 67 1 22 68
M  V30 68 1 23 69
M  V30 69 1 23 70
M  V30 70 1 24 71
M  V30 71 1 24 72
M  V30 72 1 25 73
M  V30 73 1 25 74
M  V30 74 1 26 75
M  V30 75 1 26 76
M  V30 76 1 27 77
M  V30 77 1 27 78
M  V30 78 1 28 79
M  V30 79 1 28 80
M  V30 80 1 29 81
M  V30 81 1 29 82
M  V30 82 1 30 83
M  V30 83 1 30 84
M  V30 END BOND
M  V30 END CTAB
M  END
