
     RDKit          3D

  0  0  0  0  0  0  0  0  0  0999 V3000
M  V30 BEGIN CTAB
M  V30 COUNTS 35 36 0 0 0
M  V30 BEGIN ATOM
M  V30 1 O -1.44799 2.94917 -0.552669 0
M  V30 2 C -1.14664 1.71691 -0.417682 0
M  V30 3 N -2.17177 0.777522 -0.472885 0
M  V30 4 C -1.89159 -0.62736 -0.327137 0
M  V30 5 C -3.22154 -1.37576 -0.36084 0
M  V30 6 C -4.08286 -0.785209 0.736687 0
M  V30 7 C -4.32832 0.685682 0.534147 0
M  V30 8 C -3.53818 1.19598 -0.677737 0
M  V30 9 C 0.307455 1.46658 -0.214757 0
M  V30 10 O 0.716298 0.212337 -0.064207 0
M  V30 11 N 1.50023 -0.753164 0.111197 0
M  V30 12 C 2.74545 -0.863666 0.251531 0
M  V30 13 C 3.63381 0.27002 0.233828 0
M  V30 14 N 3.47593 1.58436 0.0896816 0
M  V30 15 O 4.61652 2.21374 0.147248 0
M  V30 16 N 5.56923 1.36238 0.329139 0
M  V30 17 C 5.00866 0.129947 0.390544 0
M  V30 18 N 5.7298 -1.07635 0.582821 0
M  V30 19 N 3.24198 -2.21405 0.434424 0
M  V30 20 H -1.47025 -0.819243 0.660033 0
M  V30 21 H -1.24543 -1.02346 -1.11906 0
M  V30 22 H -3.65507 -1.25568 -1.35614 0
M  V30 23 H -3.00154 -2.41721 -0.13195 0
M  V30 24 H -3.53136 -0.904683 1.6956 0
M  V30 25 H -5.03917 -1.35294 0.74591 0
M  V30 26 H -3.93826 1.29226 1.39671 0
M  V30 27 H -5.39027 0.945568 0.42028 0
M  V30 28 H -3.65898 2.29163 -0.684083 0
M  V30 29 H -3.97673 0.797956 -1.60453 0
M  V30 30 H 0.773605 1.89405 -1.16569 0
M  V30 31 H 0.590976 2.16522 0.642572 0
M  V30 32 H 5.65872 -1.54655 1.51002 0
M  V30 33 H 6.31439 -1.50439 -0.144436 0
M  V30 34 H 3.47217 -2.82584 -0.371684 0
M  V30 35 H 3.38071 -2.60574 1.38566 0
M  V30 END ATOM
M  V30 BEGIN BOND
M  V30 1 2 1 2
M  V30 2 1 2 3
M  V30 3 1 3 4
M  V30 4 1 4 5
M  V30 5 1 5 6
M  V30 6 1 6 7
M  V30 7 1 7 8
M  V30 8 1 2 9
M  V30 9 1 9 10
M  V30 10 1 10 11
M  V30 11 2 11 12
M  V30 12 1 12 13
M  V30 13 2 13 14
M  V30 14 1 14 15
M  V30 15 1 15 16
M  V30 16 2 16 17
M  V30 17 1 17 18
M  V30 18 1 12 19
M  V30 19 1 8 3
M  V30 20 1 17 13
M  V30 21 1 4 20
M  V30 22 1 4 21
M  V30 23 1 5 22
M  V30 24 1 5 23
M  V30 25 1 6 24
M  V30 26 1 6 25
M  V30 27 1 7 26
M  V30 28 1 7 27
M  V30 29 1 8 28
M  V30 30 1 8 29
M  V30 31 1 9 30
M  V30 32 1 9 31
M  V30 33 1 18 32
M  V30 34 1 18 33
M  V30 35 1 19 34
M  V30 36 1 19 35
M  V30 END BOND
M  V30 END CTAB
M  END
