
     RDKit          3D

  0  0  0  0  0  0  0  0  0  0999 V3000
M  V30 BEGIN CTAB
M  V30 COUNTS 39 41 0 0 0
M  V30 BEGIN ATOM
M  V30 1 C -4.72081 2.92679 0.462253 0
M  V30 2 O -4.82152 1.52857 0.403698 0
M  V30 3 C -3.72026 0.708788 0.332489 0
M  V30 4 C -2.46447 1.2802 0.31872 0
M  V30 5 C -1.3189 0.521925 0.2478 0
M  V30 6 C -1.49899 -0.840465 0.191133 0
M  V30 7 C -2.74582 -1.42698 0.204149 0
M  V30 8 C -3.86245 -0.658181 0.274685 0
M  V30 9 O -5.14156 -1.18305 0.292306 0
M  V30 10 C -5.45607 -2.55708 0.242213 0
M  V30 11 C 0.035768 1.14268 0.242549 0
M  V30 12 C 0.184705 2.50373 0.335718 0
M  V30 13 S 1.88418 2.67657 0.299131 0
M  V30 14 C 2.29797 1.02932 0.169614 0
M  V30 15 N 1.12206 0.432906 0.160649 0
M  V30 16 C 3.64266 0.384375 0.0925287 0
M  V30 17 C 3.92665 -0.634077 -0.687577 0
M  V30 18 N 2.99825 -1.26062 -1.56335 0
M  V30 19 N 5.27191 -1.03178 -0.552371 0
M  V30 20 C 5.91972 -0.137944 0.375988 0
M  V30 21 C 4.8222 0.744249 0.834619 0
M  V30 22 O 4.91336 1.6535 1.72417 0
M  V30 23 N 5.91407 -2.11726 -1.19936 0
M  V30 24 H -4.07289 3.25636 -0.397455 0
M  V30 25 H -5.74028 3.38998 0.38909 0
M  V30 26 H -4.26966 3.26591 1.42769 0
M  V30 27 H -2.41098 2.35647 0.365938 0
M  V30 28 H -0.640148 -1.47928 0.134919 0
M  V30 29 H -2.86635 -2.51819 0.158062 0
M  V30 30 H -5.49952 -3.01176 1.26781 0
M  V30 31 H -6.49719 -2.60652 -0.193544 0
M  V30 32 H -4.74083 -3.0544 -0.413626 0
M  V30 33 H -0.60905 3.27101 0.412198 0
M  V30 34 H 2.84549 -0.829152 -2.50605 0
M  V30 35 H 2.45471 -2.10959 -1.3542 0
M  V30 36 H 6.72992 0.458251 -0.11125 0
M  V30 37 H 6.34888 -0.725805 1.23718 0
M  V30 38 H 6.62905 -2.50123 -0.539419 0
M  V30 39 H 5.15619 -2.84823 -1.35878 0
M  V30 END ATOM
M  V30 BEGIN BOND
M  V30 1 1 1 2
M  V30 2 1 2 3
M  V30 3 2 3 4
M  V30 4 1 4 5
M  V30 5 2 5 6
M  V30 6 1 6 7
M  V30 7 2 7 8
M  V30 8 1 8 9
M  V30 9 1 9 10
M  V30 10 1 5 11
M  V30 11 2 11 12
M  V30 12 1 12 13
M  V30 13 1 13 14
M  V30 14 2 14 15
M  V30 15 1 14 16
M  V30 16 2 16 17
M  V30 17 1 17 18
M  V30 18 1 17 19
M  V30 19 1 19 20
M  V30 20 1 20 21
M  V30 21 2 21 22
M  V30 22 1 19 23
M  V30 23 1 8 3
M  V30 24 1 15 11
M  V30 25 1 21 16
M  V30 26 1 1 24
M  V30 27 1 1 25
M  V30 28 1 1 26
M  V30 29 1 4 27
M  V30 30 1 6 28
M  V30 31 1 7 29
M  V30 32 1 10 30
M  V30 33 1 10 31
M  V30 34 1 10 32
M  V30 35 1 12 33
M  V30 36 1 18 34
M  V30 37 1 18 35
M  V30 38 1 20 36
M  V30 39 1 20 37
M  V30 40 1 23 38
M  V30 41 1 23 39
M  V30 END BOND
M  V30 END CTAB
M  END
