
     RDKit          3D

  0  0  0  0  0  0  0  0  0  0999 V3000
M  V30 BEGIN CTAB
M  V30 COUNTS 38 39 0 0 0
M  V30 BEGIN ATOM
M  V30 1 C -0.946479 1.43173 0.789211 0
M  V30 2 N -0.702856 0.51935 -0.264167 0
M  V30 3 C -1.57584 0.525275 -1.35376 0
M  V30 4 C -2.9461 0.258637 -0.865987 0
M  V30 5 N -3.76742 1.24914 -0.493539 0
M  V30 6 C -5.02822 0.984288 -0.0399628 0
M  V30 7 N -5.84488 2.074 0.337507 0
M  V30 8 N -5.43007 -0.292078 0.0261351 0
M  V30 9 C -4.64008 -1.29381 -0.335652 0
M  V30 10 N -3.38927 -0.996687 -0.783593 0
M  V30 11 N -5.0361 -2.67298 -0.277557 0
M  V30 12 C 0.266302 -0.46824 -0.107032 0
M  V30 13 C 1.651 0.151537 -0.0476653 0
M  V30 14 O 2.55424 -0.906356 0.108381 0
M  V30 15 C 3.90341 -0.632774 0.200944 0
M  V30 16 C 4.35564 0.663632 0.142464 0
M  V30 17 C 5.72525 0.858341 0.243485 0
M  V30 18 C 6.58791 -0.199863 0.395947 0
M  V30 19 C 6.10784 -1.48398 0.451487 0
M  V30 20 C 4.7574 -1.71389 0.353254 0
M  V30 21 Cl 4.09358 -3.34555 0.414584 0
M  V30 22 H -1.86002 1.05076 1.34194 0
M  V30 23 H -0.149476 1.50294 1.52444 0
M  V30 24 H -1.26113 2.41689 0.388604 0
M  V30 25 H -1.22926 -0.177037 -2.13046 0
M  V30 26 H -1.59235 1.53539 -1.85693 0
M  V30 27 H -5.44738 2.92039 0.784629 0
M  V30 28 H -6.86532 2.02699 0.163874 0
M  V30 29 H -5.5015 -3.05197 -1.12549 0
M  V30 30 H -4.88571 -3.2815 0.537106 0
M  V30 31 H 0.18955 -1.19873 -0.940979 0
M  V30 32 H 0.10416 -1.02799 0.8328 0
M  V30 33 H 1.89977 0.679567 -0.990198 0
M  V30 34 H 1.65682 0.870975 0.813813 0
M  V30 35 H 3.68004 1.51338 0.0215707 0
M  V30 36 H 6.10443 1.87612 0.199413 0
M  V30 37 H 7.67171 -0.0281329 0.477198 0
M  V30 38 H 6.7904 -2.33776 0.572797 0
M  V30 END ATOM
M  V30 BEGIN BOND
M  V30 1 1 1 2
M  V30 2 1 2 3
M  V30 3 1 3 4
M  V30 4 2 4 5
M  V30 5 1 5 6
M  V30 6 1 6 7
M  V30 7 2 6 8
M  V30 8 1 8 9
M  V30 9 2 9 10
M  V30 10 1 9 11
M  V30 11 1 2 12
M  V30 12 1 12 13
M  V30 13 1 13 14
M  V30 14 1 14 15
M  V30 15 2 15 16
M  V30 16 1 16 17
M  V30 17 2 17 18
M  V30 18 1 18 19
M  V30 19 2 19 20
M  V30 20 1 20 21
M  V30 21 1 10 4
M  V30 22 1 20 15
M  V30 23 1 1 22
M  V30 24 1 1 23
M  V30 25 1 1 24
M  V30 26 1 3 25
M  V30 27 1 3 26
M  V30 28 1 7 27
M  V30 29 1 7 28
M  V30 30 1 11 29
M  V30 31 1 11 30
M  V30 32 1 12 31
M  V30 33 1 12 32
M  V30 34 1 13 33
M  V30 35 1 13 34
M  V30 36 1 16 35
M  V30 37 1 17 36
M  V30 38 1 18 37
M  V30 39 1 19 38
M  V30 END BOND
M  V30 END CTAB
M  END
