
     RDKit          3D

  0  0  0  0  0  0  0  0  0  0999 V3000
M  V30 BEGIN CTAB
M  V30 COUNTS 38 39 0 0 0
M  V30 BEGIN ATOM
M  V30 1 O 0.941587 -1.6282 0.861674 0
M  V30 2 C 0.697654 -0.481617 0.463924 0
M  V30 3 C -0.751023 -0.101512 0.300588 0
M  V30 4 S -1.8289 -1.48187 0.748197 0
M  V30 5 C -3.5217 -0.917786 0.515367 0
M  V30 6 N -4.21224 -0.317758 1.50463 0
M  V30 7 C -5.48665 0.110679 1.34054 0
M  V30 8 N -6.14706 0.733087 2.42889 0
M  V30 9 C -6.11181 -0.0705109 0.11306 0
M  V30 10 C -5.41862 -0.67508 -0.886636 0
M  V30 11 N -4.15837 -1.07767 -0.662574 0
M  V30 12 N -6.0638 -0.861131 -2.15072 0
M  V30 13 C -0.919464 0.312333 -1.14589 0
M  V30 14 N 1.70049 0.453325 0.167233 0
M  V30 15 C 3.10024 0.284147 0.252227 0
M  V30 16 C 3.92194 1.41806 0.173353 0
M  V30 17 C 5.29213 1.32063 0.235797 0
M  V30 18 C 5.94058 0.116088 0.378423 0
M  V30 19 C 5.15957 -1.01039 0.457975 0
M  V30 20 C 3.76042 -0.912905 0.394177 0
M  V30 21 C 7.43276 0.0472832 0.44294 0
M  V30 22 H -0.987719 0.772205 0.955535 0
M  V30 23 H -6.01699 1.74143 2.57668 0
M  V30 24 H -6.74421 0.156306 3.04793 0
M  V30 25 H -7.12672 0.288188 0.0338239 0
M  V30 26 H -5.69218 -1.63919 -2.77088 0
M  V30 27 H -6.84698 -0.259633 -2.42517 0
M  V30 28 H -0.651398 1.40331 -1.24118 0
M  V30 29 H -1.92331 0.103833 -1.53627 0
M  V30 30 H -0.208166 -0.265768 -1.79595 0
M  V30 31 H 1.36022 1.4209 -0.173792 0
M  V30 32 H 3.40872 2.3638 0.06309 0
M  V30 33 H 5.90208 2.2204 0.171566 0
M  V30 34 H 5.60085 -1.97145 0.56887 0
M  V30 35 H 3.17722 -1.83025 0.451572 0
M  V30 36 H 7.8973 0.351704 -0.530234 0
M  V30 37 H 7.74625 0.834019 1.17339 0
M  V30 38 H 7.77733 -0.949021 0.714228 0
M  V30 END ATOM
M  V30 BEGIN BOND
M  V30 1 2 1 2
M  V30 2 1 2 3
M  V30 3 1 3 4
M  V30 4 1 4 5
M  V30 5 2 5 6
M  V30 6 1 6 7
M  V30 7 1 7 8
M  V30 8 2 7 9
M  V30 9 1 9 10
M  V30 10 2 10 11
M  V30 11 1 10 12
M  V30 12 1 3 13
M  V30 13 1 2 14
M  V30 14 1 14 15
M  V30 15 2 15 16
M  V30 16 1 16 17
M  V30 17 2 17 18
M  V30 18 1 18 19
M  V30 19 2 19 20
M  V30 20 1 18 21
M  V30 21 1 11 5
M  V30 22 1 20 15
M  V30 23 1 3 22
M  V30 24 1 8 23
M  V30 25 1 8 24
M  V30 26 1 9 25
M  V30 27 1 12 26
M  V30 28 1 12 27
M  V30 29 1 13 28
M  V30 30 1 13 29
M  V30 31 1 13 30
M  V30 32 1 14 31
M  V30 33 1 16 32
M  V30 34 1 17 33
M  V30 35 1 19 34
M  V30 36 1 20 35
M  V30 37 1 21 36
M  V30 38 1 21 37
M  V30 39 1 21 38
M  V30 END BOND
M  V30 END CTAB
M  END
