
     RDKit          3D

  0  0  0  0  0  0  0  0  0  0999 V3000
M  V30 BEGIN CTAB
M  V30 COUNTS 28 28 0 0 0
M  V30 BEGIN ATOM
M  V30 1 C 3.35072 -1.49855 0.210973 0
M  V30 2 C 2.65371 -0.735522 -0.908057 0
M  V30 3 C 1.21893 -0.472509 -0.601378 0
M  V30 4 N 0.131255 -1.0799 -1.03918 0
M  V30 5 N -0.986406 -0.540926 -0.505858 0
M  V30 6 C -0.631528 0.4439 0.300273 0
M  V30 7 C 0.768996 0.506685 0.255446 0
M  V30 8 N 1.60894 1.40658 0.958856 0
M  V30 9 C -1.41207 1.38671 1.13906 0
M  V30 10 C -1.48332 2.69679 0.349344 0
M  V30 11 S -2.59085 -1.06139 -0.842678 0
M  V30 12 O -2.87099 -0.942135 -2.32663 0
M  V30 13 O -3.58504 -0.208594 -0.139322 0
M  V30 14 N -2.84406 -2.70006 -0.364878 0
M  V30 15 H 2.95562 -2.54756 0.198601 0
M  V30 16 H 3.14447 -0.954633 1.14392 0
M  V30 17 H 4.4319 -1.44283 0.0165116 0
M  V30 18 H 3.22546 0.234767 -0.971671 0
M  V30 19 H 2.82595 -1.24539 -1.85951 0
M  V30 20 H 1.90091 1.1821 1.91001 0
M  V30 21 H 1.90475 2.27325 0.477755 0
M  V30 22 H -0.758294 1.61417 2.04209 0
M  V30 23 H -2.38202 1.02402 1.4711 0
M  V30 24 H -2.29358 2.54669 -0.39831 0
M  V30 25 H -0.556578 2.852 -0.243486 0
M  V30 26 H -1.65328 3.52015 1.03935 0
M  V30 27 H -3.84641 -2.89889 -0.427819 0
M  V30 28 H -2.22718 -3.3589 -0.884512 0
M  V30 END ATOM
M  V30 BEGIN BOND
M  V30 1 1 1 2
M  V30 2 1 2 3
M  V30 3 2 3 4
M  V30 4 1 4 5
M  V30 5 1 5 6
M  V30 6 2 6 7
M  V30 7 1 7 8
M  V30 8 1 6 9
M  V30 9 1 9 10
M  V30 10 1 5 11
M  V30 11 2 11 12
M  V30 12 2 11 13
M  V30 13 1 11 14
M  V30 14 1 7 3
M  V30 15 1 1 15
M  V30 16 1 1 16
M  V30 17 1 1 17
M  V30 18 1 2 18
M  V30 19 1 2 19
M  V30 20 1 8 20
M  V30 21 1 8 21
M  V30 22 1 9 22
M  V30 23 1 9 23
M  V30 24 1 10 24
M  V30 25 1 10 25
M  V30 26 1 10 26
M  V30 27 1 14 27
M  V30 28 1 14 28
M  V30 END BOND
M  V30 END CTAB
M  END
