
     RDKit          3D

  0  0  0  0  0  0  0  0  0  0999 V3000
M  V30 BEGIN CTAB
M  V30 COUNTS 28 28 0 0 0
M  V30 BEGIN ATOM
M  V30 1 C 5.2498 0.164263 0.233417 0
M  V30 2 C 3.74003 0.289801 0.106039 0
M  V30 3 C 2.9857 -0.720548 0.496847 0
M  V30 4 C 1.5242 -0.740464 0.433431 0
M  V30 5 N 0.91256 0.422676 -0.0891947 0
M  V30 6 C -0.508842 0.475851 -0.181497 0
M  V30 7 C -1.16541 1.57896 -0.680827 0
M  V30 8 C -2.5422 1.61235 -0.762605 0
M  V30 9 C -3.28131 0.506093 -0.3305 0
M  V30 10 C -2.63868 -0.611409 0.174241 0
M  V30 11 C -1.25898 -0.58957 0.232772 0
M  V30 12 N -3.38755 -1.7425 0.616376 0
M  V30 13 N -4.6874 0.519041 -0.405069 0
M  V30 14 H 5.54367 -0.902407 0.149747 0
M  V30 15 H 5.70289 0.764255 -0.582317 0
M  V30 16 H 5.59424 0.617939 1.18026 0
M  V30 17 H 3.3355 1.20599 -0.301868 0
M  V30 18 H 3.55213 -1.59725 0.895982 0
M  V30 19 H 1.19514 -1.62577 -0.178202 0
M  V30 20 H 1.06419 -0.966634 1.44904 0
M  V30 21 H 1.4326 1.24355 -0.411332 0
M  V30 22 H -0.627486 2.44624 -1.02163 0
M  V30 23 H -3.10766 2.43703 -1.13957 0
M  V30 24 H -0.79818 -1.50004 0.640925 0
M  V30 25 H -4.32377 -1.98314 0.221292 0
M  V30 26 H -3.01257 -2.36653 1.35653 0
M  V30 27 H -5.24746 1.17268 0.182059 0
M  V30 28 H -5.24513 -0.110462 -1.03832 0
M  V30 END ATOM
M  V30 BEGIN BOND
M  V30 1 1 1 2
M  V30 2 2 2 3
M  V30 3 1 3 4
M  V30 4 1 4 5
M  V30 5 1 5 6
M  V30 6 2 6 7
M  V30 7 1 7 8
M  V30 8 2 8 9
M  V30 9 1 9 10
M  V30 10 2 10 11
M  V30 11 1 10 12
M  V30 12 1 9 13
M  V30 13 1 11 6
M  V30 14 1 1 14
M  V30 15 1 1 15
M  V30 16 1 1 16
M  V30 17 1 2 17
M  V30 18 1 3 18
M  V30 19 1 4 19
M  V30 20 1 4 20
M  V30 21 1 5 21
M  V30 22 1 7 22
M  V30 23 1 8 23
M  V30 24 1 11 24
M  V30 25 1 12 25
M  V30 26 1 12 26
M  V30 27 1 13 27
M  V30 28 1 13 28
M  V30 END BOND
M  V30 END CTAB
M  END
