
     RDKit          3D

  0  0  0  0  0  0  0  0  0  0999 V3000
M  V30 BEGIN CTAB
M  V30 COUNTS 24 23 0 0 0
M  V30 BEGIN ATOM
M  V30 1 C 2.4366 0.416118 -0.440798 0
M  V30 2 C 1.18657 -0.224163 -0.97876 0
M  V30 3 C 0.0956602 -0.236226 0.0750038 0
M  V30 4 C -0.171662 1.16509 0.440142 0
M  V30 5 N -0.00628862 1.5498 1.64972 0
M  V30 6 N -0.611865 2.11688 -0.513531 0
M  V30 7 C -1.1001 -0.914265 -0.54957 0
M  V30 8 C -2.27531 -1.00985 0.364551 0
M  V30 9 N 0.4965 -0.959668 1.254 0
M  V30 10 H 2.22587 0.792413 0.571647 0
M  V30 11 H 3.27692 -0.322501 -0.368827 0
M  V30 12 H 2.72423 1.24727 -1.13923 0
M  V30 13 H 1.45082 -1.27939 -1.27971 0
M  V30 14 H 0.852902 0.264008 -1.91194 0
M  V30 15 H 0.316139 0.863459 2.36062 0
M  V30 16 H -1.61402 2.35248 -0.555959 0
M  V30 17 H 0.0381338 2.58774 -1.17345 0
M  V30 18 H -0.747168 -1.92407 -0.882477 0
M  V30 19 H -1.35318 -0.36953 -1.50495 0
M  V30 20 H -2.18998 -0.371189 1.26631 0
M  V30 21 H -3.18529 -0.735227 -0.2371 0
M  V30 22 H -2.41334 -2.0817 0.628154 0
M  V30 23 H -0.354622 -1.05424 1.8596 0
M  V30 24 H 0.922464 -1.87324 1.06656 0
M  V30 END ATOM
M  V30 BEGIN BOND
M  V30 1 1 1 2
M  V30 2 1 2 3
M  V30 3 1 3 4
M  V30 4 2 4 5 CFG=2
M  V30 5 1 4 6
M  V30 6 1 3 7
M  V30 7 1 7 8
M  V30 8 1 3 9
M  V30 9 1 1 10
M  V30 10 1 1 11
M  V30 11 1 1 12
M  V30 12 1 2 13
M  V30 13 1 2 14
M  V30 14 1 5 15
M  V30 15 1 6 16
M  V30 16 1 6 17
M  V30 17 1 7 18
M  V30 18 1 7 19
M  V30 19 1 8 20
M  V30 20 1 8 21
M  V30 21 1 8 22
M  V30 22 1 9 23
M  V30 23 1 9 24
M  V30 END BOND
M  V30 END CTAB
M  END
