
     RDKit          3D

  0  0  0  0  0  0  0  0  0  0999 V3000
M  V30 BEGIN CTAB
M  V30 COUNTS 43 45 0 0 0
M  V30 BEGIN ATOM
M  V30 1 N -6.55479 1.30923 0.236241 0
M  V30 2 C -5.19078 1.67457 -0.0212555 0
M  V30 3 C -4.4285 0.681006 -0.902401 0
M  V30 4 C -3.2147 1.04633 -0.0247288 0
M  V30 5 C -4.1963 1.27811 1.08411 0
M  V30 6 C -2.23808 -0.0300922 0.122255 0
M  V30 7 C -0.933416 0.207908 -0.337235 0
M  V30 8 C 0.0479205 -0.720889 -0.251321 0
M  V30 9 N -0.290313 -1.9157 0.309725 0
M  V30 10 C -1.52337 -2.18388 0.761005 0
M  V30 11 N -2.47843 -1.22448 0.655367 0
M  V30 12 N -1.82501 -3.45268 1.34296 0
M  V30 13 N 1.39809 -0.566705 -0.699619 0
M  V30 14 C 1.80894 0.641338 -1.32121 0
M  V30 15 C 2.7078 1.55153 -0.566956 0
M  V30 16 C 4.01519 0.985621 -0.176479 0
M  V30 17 N 5.12251 1.00938 -0.971296 0
M  V30 18 O 6.08459 0.463919 -0.31917 0
M  V30 19 C 5.6793 0.0845561 0.85129 0
M  V30 20 N 4.39579 0.39759 0.965058 0
M  V30 21 C 6.56122 -0.591951 1.8656 0
M  V30 22 C 2.3481 -1.66767 -0.500167 0
M  V30 23 H -6.70794 0.298088 0.379711 0
M  V30 24 H -6.90444 1.88827 1.01195 0
M  V30 25 H -5.09609 2.69517 -0.384044 0
M  V30 26 H -4.73353 -0.370129 -0.759503 0
M  V30 27 H -4.26793 1.01658 -1.9404 0
M  V30 28 H -2.80167 2.00652 -0.396043 0
M  V30 29 H -4.59431 0.367245 1.57433 0
M  V30 30 H -3.96219 2.11715 1.77923 0
M  V30 31 H -0.713838 1.16734 -0.767366 0
M  V30 32 H -1.19284 -3.89115 2.05154 0
M  V30 33 H -2.68188 -3.97219 1.07703 0
M  V30 34 H 0.957595 1.19902 -1.77881 0
M  V30 35 H 2.39828 0.303783 -2.24257 0
M  V30 36 H 2.20332 1.94443 0.361978 0
M  V30 37 H 2.85296 2.49358 -1.17685 0
M  V30 38 H 7.14188 -1.39648 1.38074 0
M  V30 39 H 5.91716 -1.07463 2.62187 0
M  V30 40 H 7.26165 0.134121 2.30336 0
M  V30 41 H 3.24875 -1.45488 -1.07354 0
M  V30 42 H 1.83987 -2.5477 -1.01935 0
M  V30 43 H 2.53941 -1.90118 0.541843 0
M  V30 END ATOM
M  V30 BEGIN BOND
M  V30 1 1 1 2
M  V30 2 1 2 3
M  V30 3 1 3 4
M  V30 4 1 4 5
M  V30 5 1 4 6
M  V30 6 2 6 7
M  V30 7 1 7 8
M  V30 8 2 8 9
M  V30 9 1 9 10
M  V30 10 2 10 11
M  V30 11 1 10 12
M  V30 12 1 8 13
M  V30 13 1 13 14
M  V30 14 1 14 15
M  V30 15 1 15 16
M  V30 16 2 16 17
M  V30 17 1 17 18
M  V30 18 1 18 19
M  V30 19 2 19 20
M  V30 20 1 19 21
M  V30 21 1 13 22
M  V30 22 1 5 2
M  V30 23 1 11 6
M  V30 24 1 20 16
M  V30 25 1 1 23
M  V30 26 1 1 24
M  V30 27 1 2 25
M  V30 28 1 3 26
M  V30 29 1 3 27
M  V30 30 1 4 28
M  V30 31 1 5 29
M  V30 32 1 5 30
M  V30 33 1 7 31
M  V30 34 1 12 32
M  V30 35 1 12 33
M  V30 36 1 14 34
M  V30 37 1 14 35
M  V30 38 1 15 36
M  V30 39 1 15 37
M  V30 40 1 21 38
M  V30 41 1 21 39
M  V30 42 1 21 40
M  V30 43 1 22 41
M  V30 44 1 22 42
M  V30 45 1 22 43
M  V30 END BOND
M  V30 END CTAB
M  END
