
     RDKit          3D

  0  0  0  0  0  0  0  0  0  0999 V3000
M  V30 BEGIN CTAB
M  V30 COUNTS 16 16 0 0 0
M  V30 BEGIN ATOM
M  V30 1 C -2.2848 0.032511 0.193003 0
M  V30 2 C -0.859623 -0.444833 0.0766259 0
M  V30 3 C 0.264967 0.33188 -0.0294457 0
M  V30 4 N 0.291054 1.75323 -0.0492517 0
M  V30 5 C 1.36074 -0.495933 -0.113209 0
M  V30 6 N 2.73392 -0.115689 -0.235708 0
M  V30 7 N 0.863633 -1.75895 -0.0549468 0
M  V30 8 N -0.453447 -1.72545 0.057616 0
M  V30 9 H -2.44476 0.940008 -0.414026 0
M  V30 10 H -2.93487 -0.821423 -0.125454 0
M  V30 11 H -2.52063 0.224941 1.25368 0
M  V30 12 H 0.566451 2.30177 0.793653 0
M  V30 13 H 0.0375115 2.29796 -0.901636 0
M  V30 14 H 3.10502 0.756682 0.187369 0
M  V30 15 H 3.38786 -0.725219 -0.762667 0
M  V30 16 H -1.11301 -2.5515 0.1244 0
M  V30 END ATOM
M  V30 BEGIN BOND
M  V30 1 1 1 2
M  V30 2 2 2 3
M  V30 3 1 3 4
M  V30 4 1 3 5
M  V30 5 1 5 6
M  V30 6 2 5 7
M  V30 7 1 7 8
M  V30 8 1 8 2
M  V30 9 1 1 9
M  V30 10 1 1 10
M  V30 11 1 1 11
M  V30 12 1 4 12
M  V30 13 1 4 13
M  V30 14 1 6 14
M  V30 15 1 6 15
M  V30 16 1 8 16
M  V30 END BOND
M  V30 END CTAB
M  END
