
     RDKit          3D

  0  0  0  0  0  0  0  0  0  0999 V3000
M  V30 BEGIN CTAB
M  V30 COUNTS 47 49 0 0 0
M  V30 BEGIN ATOM
M  V30 1 O 2.72692 1.27887 3.11458 0
M  V30 2 C 1.93195 0.405417 2.72805 0
M  V30 3 N 2.15618 -0.384681 1.61027 0
M  V30 4 C 3.25949 -0.373849 0.731598 0
M  V30 5 C 4.42787 0.324218 0.921895 0
M  V30 6 C 5.481 0.297341 -0.00516702 0
M  V30 7 C 5.39277 -0.436762 -1.15991 0
M  V30 8 C 4.23227 -1.14444 -1.37213 0
M  V30 9 C 3.20681 -1.11529 -0.464835 0
M  V30 10 S 6.71592 -0.462127 -2.31061 0
M  V30 11 O 6.83208 -1.8165 -2.95363 0
M  V30 12 O 8.03575 -0.208708 -1.5952 0
M  V30 13 N 6.52876 0.79863 -3.46302 0
M  V30 14 C 0.688932 0.236154 3.53964 0
M  V30 15 S -0.560317 1.33726 2.80999 0
M  V30 16 C -0.944895 0.731991 1.18123 0
M  V30 17 N -0.301103 1.10039 0.064027 0
M  V30 18 N -0.865424 0.441269 -0.954614 0
M  V30 19 C -1.86689 -0.347952 -0.50145 0
M  V30 20 N -1.89503 -0.147858 0.833007 0
M  V30 21 N -2.77068 -0.75228 1.76844 0
M  V30 22 C -2.72307 -1.23101 -1.30811 0
M  V30 23 O -4.02877 -1.35428 -0.840397 0
M  V30 24 C -4.9722 -0.386076 -0.686383 0
M  V30 25 C -4.70482 0.931538 -1.01226 0
M  V30 26 C -5.69122 1.91195 -0.84631 0
M  V30 27 C -6.92423 1.55935 -0.359131 0
M  V30 28 C -7.16375 0.243879 -0.0433372 0
M  V30 29 C -6.21067 -0.728592 -0.199111 0
M  V30 30 F -6.44942 -2.0164 0.111479 0
M  V30 31 H 1.39015 -1.10088 1.38536 0
M  V30 32 H 4.56416 0.915326 1.81203 0
M  V30 33 H 6.3704 0.858929 0.190196 0
M  V30 34 H 4.17217 -1.72338 -2.29061 0
M  V30 35 H 2.29013 -1.6849 -0.651834 0
M  V30 36 H 7.19755 1.60385 -3.28625 0
M  V30 37 H 5.56062 1.19305 -3.48999 0
M  V30 38 H 0.342188 -0.813682 3.56431 0
M  V30 39 H 0.86317 0.555253 4.58714 0
M  V30 40 H -3.59372 -0.24073 2.14923 0
M  V30 41 H -2.62368 -1.73155 2.11069 0
M  V30 42 H -2.76844 -0.813701 -2.35215 0
M  V30 43 H -2.2541 -2.24061 -1.35577 0
M  V30 44 H -3.7641 1.27334 -1.3991 0
M  V30 45 H -5.48909 2.95495 -1.10065 0
M  V30 46 H -7.66676 2.32532 -0.239299 0
M  V30 47 H -8.13485 -0.0220465 0.338085 0
M  V30 END ATOM
M  V30 BEGIN BOND
M  V30 1 2 1 2
M  V30 2 1 2 3
M  V30 3 1 3 4
M  V30 4 2 4 5
M  V30 5 1 5 6
M  V30 6 2 6 7
M  V30 7 1 7 8
M  V30 8 2 8 9
M  V30 9 1 7 10
M  V30 10 2 10 11
M  V30 11 2 10 12
M  V30 12 1 10 13
M  V30 13 1 2 14
M  V30 14 1 14 15
M  V30 15 1 15 16
M  V30 16 2 16 17
M  V30 17 1 17 18
M  V30 18 2 18 19
M  V30 19 1 19 20
M  V30 20 1 20 21
M  V30 21 1 19 22
M  V30 22 1 22 23
M  V30 23 1 23 24
M  V30 24 2 24 25
M  V30 25 1 25 26
M  V30 26 2 26 27
M  V30 27 1 27 28
M  V30 28 2 28 29
M  V30 29 1 29 30
M  V30 30 1 9 4
M  V30 31 1 20 16
M  V30 32 1 29 24
M  V30 33 1 3 31
M  V30 34 1 5 32
M  V30 35 1 6 33
M  V30 36 1 8 34
M  V30 37 1 9 35
M  V30 38 1 13 36
M  V30 39 1 13 37
M  V30 40 1 14 38
M  V30 41 1 14 39
M  V30 42 1 21 40
M  V30 43 1 21 41
M  V30 44 1 22 42
M  V30 45 1 22 43
M  V30 46 1 25 44
M  V30 47 1 26 45
M  V30 48 1 27 46
M  V30 49 1 28 47
M  V30 END BOND
M  V30 END CTAB
M  END
