
     RDKit          3D

  0  0  0  0  0  0  0  0  0  0999 V3000
M  V30 BEGIN CTAB
M  V30 COUNTS 19 19 0 0 0
M  V30 BEGIN ATOM
M  V30 1 N -2.44378 -0.509248 1.56034 0
M  V30 2 N -2.51484 -0.233529 0.238875 0
M  V30 3 C -1.54098 -0.00342845 -0.51889 0
M  V30 4 C -0.143335 0.0188612 -0.157 0
M  V30 5 C 0.408625 -0.203803 1.07526 0
M  V30 6 C 1.79876 -0.155199 1.31071 0
M  V30 7 F 2.25138 -0.387651 2.55581 0
M  V30 8 C 2.67457 0.120144 0.307261 0
M  V30 9 C 2.14372 0.34809 -0.942809 0
M  V30 10 C 0.790615 0.299667 -1.16673 0
M  V30 11 F 0.329338 0.53313 -2.41963 0
M  V30 12 Cl 4.41076 0.185827 0.577772 0
M  V30 13 N -1.89571 0.266351 -1.90706 0
M  V30 14 H -2.47644 0.302238 2.24516 0
M  V30 15 H -2.36196 -1.49442 1.89293 0
M  V30 16 H -0.231887 -0.426419 1.90912 0
M  V30 17 H 2.85353 0.567681 -1.73926 0
M  V30 18 H -2.00281 -0.478347 -2.60053 0
M  V30 19 H -2.04956 1.25005 -2.22132 0
M  V30 END ATOM
M  V30 BEGIN BOND
M  V30 1 1 1 2
M  V30 2 2 2 3
M  V30 3 1 3 4
M  V30 4 2 4 5
M  V30 5 1 5 6
M  V30 6 1 6 7
M  V30 7 2 6 8
M  V30 8 1 8 9
M  V30 9 2 9 10
M  V30 10 1 10 11
M  V30 11 1 8 12
M  V30 12 1 3 13
M  V30 13 1 10 4
M  V30 14 1 1 14
M  V30 15 1 1 15
M  V30 16 1 5 16
M  V30 17 1 9 17
M  V30 18 1 13 18
M  V30 19 1 13 19
M  V30 END BOND
M  V30 END CTAB
M  END
