
     RDKit          3D

  0  0  0  0  0  0  0  0  0  0999 V3000
M  V30 BEGIN CTAB
M  V30 COUNTS 43 45 0 0 0
M  V30 BEGIN ATOM
M  V30 1 N -7.66167 -1.61933 0.166521 0
M  V30 2 C -6.46426 -1.16726 0.816583 0
M  V30 3 N -6.54222 -0.686124 1.98666 0
M  V30 4 C -5.18416 -1.25797 0.148854 0
M  V30 5 C -3.98479 -0.858552 0.670841 0
M  V30 6 C -2.77518 -0.958912 0.00701111 0
M  V30 7 O -1.58729 -0.581076 0.487195 0
M  V30 8 C -0.849549 0.55107 0.479848 0
M  V30 9 N 0.374464 0.585596 1.09623 0
M  V30 10 C 1.13075 1.71533 1.09944 0
M  V30 11 O 2.3657 1.69581 1.7413 0
M  V30 12 C 3.58037 1.44561 1.17134 0
M  V30 13 C 4.54963 2.39256 0.983267 0
M  V30 14 C 5.78515 2.0875 0.387321 0
M  V30 15 C 6.01386 0.801447 -0.0116354 0
M  V30 16 C 5.06923 -0.19332 0.155858 0
M  V30 17 C 3.8801 0.14218 0.738745 0
M  V30 18 C 5.40472 -1.52498 -0.297571 0
M  V30 19 N 6.68009 -1.79059 -0.897919 0
M  V30 20 N 4.59601 -2.50023 -0.184167 0
M  V30 21 C 0.692309 2.84958 0.488368 0
M  V30 22 Cl 1.6214 4.34269 0.477475 0
M  V30 23 C -0.552231 2.86162 -0.154824 0
M  V30 24 C -1.28423 1.69347 -0.132682 0
M  V30 25 Cl -2.83992 1.74198 -0.946963 0
M  V30 26 C -2.83234 -1.51259 -1.28231 0
M  V30 27 C -4.0161 -1.92788 -1.84721 0
M  V30 28 C -5.18889 -1.80257 -1.13752 0
M  V30 29 H -8.52651 -1.02508 0.295591 0
M  V30 30 H -7.70219 -2.48691 -0.409166 0
M  V30 31 H -5.73857 -0.340385 2.52339 0
M  V30 32 H -3.95662 -0.436711 1.65849 0
M  V30 33 H 4.38529 3.42154 1.31678 0
M  V30 34 H 6.50705 2.85703 0.261335 0
M  V30 35 H 6.98867 0.587323 -0.475149 0
M  V30 36 H 3.10754 -0.594754 0.893208 0
M  V30 37 H 7.47294 -2.13873 -0.317161 0
M  V30 38 H 6.80193 -1.6309 -1.91999 0
M  V30 39 H 3.66138 -2.39728 0.234592 0
M  V30 40 H -0.911953 3.7629 -0.646753 0
M  V30 41 H -1.92169 -1.61191 -1.83795 0
M  V30 42 H -4.04921 -2.35125 -2.83702 0
M  V30 43 H -6.09899 -2.13993 -1.61515 0
M  V30 END ATOM
M  V30 BEGIN BOND
M  V30 1 1 1 2
M  V30 2 2 2 3 CFG=2
M  V30 3 1 2 4
M  V30 4 2 4 5
M  V30 5 1 5 6
M  V30 6 1 6 7
M  V30 7 1 7 8
M  V30 8 2 8 9
M  V30 9 1 9 10
M  V30 10 1 10 11
M  V30 11 1 11 12
M  V30 12 2 12 13
M  V30 13 1 13 14
M  V30 14 2 14 15
M  V30 15 1 15 16
M  V30 16 2 16 17
M  V30 17 1 16 18
M  V30 18 1 18 19
M  V30 19 2 18 20 CFG=2
M  V30 20 2 10 21
M  V30 21 1 21 22
M  V30 22 1 21 23
M  V30 23 2 23 24
M  V30 24 1 24 25
M  V30 25 2 6 26
M  V30 26 1 26 27
M  V30 27 2 27 28
M  V30 28 1 28 4
M  V30 29 1 24 8
M  V30 30 1 17 12
M  V30 31 1 1 29
M  V30 32 1 1 30
M  V30 33 1 3 31
M  V30 34 1 5 32
M  V30 35 1 13 33
M  V30 36 1 14 34
M  V30 37 1 15 35
M  V30 38 1 17 36
M  V30 39 1 19 37
M  V30 40 1 19 38
M  V30 41 1 20 39
M  V30 42 1 23 40
M  V30 43 1 26 41
M  V30 44 1 27 42
M  V30 45 1 28 43
M  V30 END BOND
M  V30 END CTAB
M  END
