
     RDKit          3D

  0  0  0  0  0  0  0  0  0  0999 V3000
M  V30 BEGIN CTAB
M  V30 COUNTS 23 23 0 0 0
M  V30 BEGIN ATOM
M  V30 1 N 2.94287 -1.11329 0.441703 0
M  V30 2 C 2.78687 0.0394843 -0.416029 0
M  V30 3 C 1.33591 0.181694 -0.811408 0
M  V30 4 N 0.478141 0.354784 0.335222 0
M  V30 5 C -0.909229 0.512028 0.287163 0
M  V30 6 C -1.72945 -0.592399 0.339657 0
M  V30 7 N -1.15511 -1.88223 0.442307 0
M  V30 8 C -3.08752 -0.388414 0.289215 0
M  V30 9 N -3.64819 0.824982 0.192086 0
M  V30 10 C -2.8558 1.91886 0.139556 0
M  V30 11 C -1.46691 1.76417 0.187498 0
M  V30 12 Cl -0.376657 3.13045 0.124591 0
M  V30 13 H 3.78291 -0.949587 1.03871 0
M  V30 14 H 3.08784 -1.99559 -0.10054 0
M  V30 15 H 3.36953 -0.152004 -1.34329 0
M  V30 16 H 3.15648 0.922658 0.13092 0
M  V30 17 H 1.03523 -0.7991 -1.27869 0
M  V30 18 H 1.18036 0.9402 -1.58649 0
M  V30 19 H 0.954227 0.360732 1.2806 0
M  V30 20 H -1.69622 -2.70487 0.106761 0
M  V30 21 H -0.216744 -2.05288 0.836998 0
M  V30 22 H -3.74031 -1.244 0.329419 0
M  V30 23 H -3.22825 2.92432 0.0615591 0
M  V30 END ATOM
M  V30 BEGIN BOND
M  V30 1 1 1 2
M  V30 2 1 2 3
M  V30 3 1 3 4
M  V30 4 1 4 5
M  V30 5 2 5 6
M  V30 6 1 6 7
M  V30 7 1 6 8
M  V30 8 2 8 9
M  V30 9 1 9 10
M  V30 10 2 10 11
M  V30 11 1 11 12
M  V30 12 1 11 5
M  V30 13 1 1 13
M  V30 14 1 1 14
M  V30 15 1 2 15
M  V30 16 1 2 16
M  V30 17 1 3 17
M  V30 18 1 3 18
M  V30 19 1 4 19
M  V30 20 1 7 20
M  V30 21 1 7 21
M  V30 22 1 8 22
M  V30 23 1 10 23
M  V30 END BOND
M  V30 END CTAB
M  END
