
     RDKit          3D

  0  0  0  0  0  0  0  0  0  0999 V3000
M  V30 BEGIN CTAB
M  V30 COUNTS 45 46 0 0 0
M  V30 BEGIN ATOM
M  V30 1 N -2.8989 -2.13772 -1.19457 0
M  V30 2 C -2.81329 -0.692113 -1.23923 0
M  V30 3 C -2.55271 -0.0976991 0.127811 0
M  V30 4 C -2.47318 1.3793 -0.0255579 0
M  V30 5 C -3.61031 2.19191 0.464362 0
M  V30 6 C -4.13895 1.70214 1.80599 0
M  V30 7 C -4.63372 0.319269 1.53291 0
M  V30 8 C -3.5993 -0.625617 1.0477 0
M  V30 9 C -1.22552 -0.582843 0.646876 0
M  V30 10 C -0.0541045 -0.232888 -0.14802 0
M  V30 11 O -0.161908 0.483341 -1.14738 0
M  V30 12 N 1.21533 -0.712932 0.22207 0
M  V30 13 C 2.44322 -0.473839 -0.442934 0
M  V30 14 C 2.5669 -0.0523838 -1.73333 0
M  V30 15 C 3.83432 0.176812 -2.28304 0
M  V30 16 C 4.95823 -0.0243647 -1.51895 0
M  V30 17 C 4.85986 -0.447458 -0.221726 0
M  V30 18 C 3.61832 -0.667419 0.302638 0
M  V30 19 S 6.33355 -0.681624 0.698873 0
M  V30 20 O 6.10064 -1.76686 1.71223 0
M  V30 21 O 7.42951 -1.13623 -0.212139 0
M  V30 22 N 6.79447 0.771912 1.50152 0
M  V30 23 H -3.87421 -2.50385 -1.19585 0
M  V30 24 H -2.45254 -2.53822 -2.06766 0
M  V30 25 H -2.22223 -0.283908 -2.0528 0
M  V30 26 H -3.88071 -0.371046 -1.47838 0
M  V30 27 H -2.32772 1.65672 -1.11471 0
M  V30 28 H -1.53873 1.80335 0.45336 0
M  V30 29 H -4.50111 2.17481 -0.221185 0
M  V30 30 H -3.32248 3.24275 0.581407 0
M  V30 31 H -3.41013 1.79098 2.60893 0
M  V30 32 H -5.03992 2.34415 2.01576 0
M  V30 33 H -5.08714 -0.0759427 2.46212 0
M  V30 34 H -5.47711 0.41171 0.790804 0
M  V30 35 H -3.1551 -1.11569 1.9664 0
M  V30 36 H -4.16092 -1.48949 0.578063 0
M  V30 37 H -1.16509 -0.174022 1.70193 0
M  V30 38 H -1.2333 -1.69465 0.817522 0
M  V30 39 H 1.25745 -1.33522 1.10606 0
M  V30 40 H 1.70969 0.110088 -2.39226 0
M  V30 41 H 3.93711 0.51148 -3.30794 0
M  V30 42 H 5.96487 0.150936 -1.93305 0
M  V30 43 H 3.5633 -1.00547 1.33826 0
M  V30 44 H 6.64214 0.649906 2.5272 0
M  V30 45 H 7.78141 1.04793 1.32988 0
M  V30 END ATOM
M  V30 BEGIN BOND
M  V30 1 1 1 2
M  V30 2 1 2 3
M  V30 3 1 3 4
M  V30 4 1 4 5
M  V30 5 1 5 6
M  V30 6 1 6 7
M  V30 7 1 7 8
M  V30 8 1 3 9
M  V30 9 1 9 10
M  V30 10 2 10 11
M  V30 11 1 10 12
M  V30 12 1 12 13
M  V30 13 2 13 14
M  V30 14 1 14 15
M  V30 15 2 15 16
M  V30 16 1 16 17
M  V30 17 2 17 18
M  V30 18 1 17 19
M  V30 19 2 19 20
M  V30 20 2 19 21
M  V30 21 1 19 22
M  V30 22 1 8 3
M  V30 23 1 18 13
M  V30 24 1 1 23
M  V30 25 1 1 24
M  V30 26 1 2 25
M  V30 27 1 2 26
M  V30 28 1 4 27
M  V30 29 1 4 28
M  V30 30 1 5 29
M  V30 31 1 5 30
M  V30 32 1 6 31
M  V30 33 1 6 32
M  V30 34 1 7 33
M  V30 35 1 7 34
M  V30 36 1 8 35
M  V30 37 1 8 36
M  V30 38 1 9 37
M  V30 39 1 9 38
M  V30 40 1 12 39
M  V30 41 1 14 40
M  V30 42 1 15 41
M  V30 43 1 16 42
M  V30 44 1 18 43
M  V30 45 1 22 44
M  V30 46 1 22 45
M  V30 END BOND
M  V30 END CTAB
M  END
