
     RDKit          3D

  0  0  0  0  0  0  0  0  0  0999 V3000
M  V30 BEGIN CTAB
M  V30 COUNTS 26 27 0 0 0
M  V30 BEGIN ATOM
M  V30 1 N 4.91395 -0.0574721 0.850978 0
M  V30 2 C 3.63464 0.0700414 0.263252 0
M  V30 3 C 3.60215 0.477527 -1.05841 0
M  V30 4 C 2.39106 0.610864 -1.65558 0
M  V30 5 C 1.21502 0.344789 -0.956831 0
M  V30 6 C 1.25286 -0.0550989 0.341001 0
M  V30 7 N 0.14275 -0.34622 1.12978 0
M  V30 8 C -1.22952 -0.306656 0.813721 0
M  V30 9 N -1.75389 0.0379137 -0.372029 0
M  V30 10 C -3.03233 0.084718 -0.698605 0
M  V30 11 N -3.54626 0.455223 -1.96682 0
M  V30 12 C -3.96854 -0.256352 0.275584 0
M  V30 13 C -3.5381 -0.630766 1.54493 0
M  V30 14 C -2.18976 -0.646238 1.7798 0
M  V30 15 N 2.49615 -0.178366 0.910035 0
M  V30 16 H 5.57432 0.732088 0.820075 0
M  V30 17 H 5.18235 -0.938804 1.30825 0
M  V30 18 H 4.52686 0.683302 -1.5967 0
M  V30 19 H 2.33555 0.926263 -2.68272 0
M  V30 20 H 0.28955 0.471416 -1.4931 0
M  V30 21 H 0.328437 -0.655257 2.15415 0
M  V30 22 H -3.69215 -0.202865 -2.7556 0
M  V30 23 H -3.79171 1.45556 -2.10998 0
M  V30 24 H -5.02772 -0.247667 0.102268 0
M  V30 25 H -4.26805 -0.894781 2.29831 0
M  V30 26 H -1.8476 -0.933165 2.75425 0
M  V30 END ATOM
M  V30 BEGIN BOND
M  V30 1 1 1 2
M  V30 2 2 2 3
M  V30 3 1 3 4
M  V30 4 2 4 5
M  V30 5 1 5 6
M  V30 6 1 6 7
M  V30 7 1 7 8
M  V30 8 2 8 9
M  V30 9 1 9 10
M  V30 10 1 10 11
M  V30 11 2 10 12
M  V30 12 1 12 13
M  V30 13 2 13 14
M  V30 14 2 6 15
M  V30 15 1 15 2
M  V30 16 1 14 8
M  V30 17 1 1 16
M  V30 18 1 1 17
M  V30 19 1 3 18
M  V30 20 1 4 19
M  V30 21 1 5 20
M  V30 22 1 7 21
M  V30 23 1 11 22
M  V30 24 1 11 23
M  V30 25 1 12 24
M  V30 26 1 13 25
M  V30 27 1 14 26
M  V30 END BOND
M  V30 END CTAB
M  END
