
     RDKit          3D

  0  0  0  0  0  0  0  0  0  0999 V3000
M  V30 BEGIN CTAB
M  V30 COUNTS 33 34 0 0 0
M  V30 BEGIN ATOM
M  V30 1 N 3.83639 -0.0417724 1.48727 0
M  V30 2 C 3.12514 -0.301627 0.279022 0
M  V30 3 C 1.71252 0.215586 0.455243 0
M  V30 4 C 0.880535 -0.0244842 -0.798754 0 CFG=1
M  V30 5 C 0.782732 -1.4618 -1.1371 0
M  V30 6 N -0.544016 -2.01237 -1.2483 0
M  V30 7 C -1.55612 -1.48567 -0.408713 0
M  V30 8 C -1.47239 -0.146019 -0.0982969 0
M  V30 9 N -0.398459 0.647797 -0.618788 0
M  V30 10 S -0.616909 2.30959 -1.00198 0
M  V30 11 O -2.01355 2.78234 -1.00285 0
M  V30 12 O -0.132496 2.50097 -2.44935 0
M  V30 13 N 0.377029 3.34881 -0.0578911 0
M  V30 14 C -2.40791 0.466435 0.709385 0
M  V30 15 C -3.43489 -0.338709 1.18911 0
M  V30 16 C -3.54569 -1.68161 0.895299 0
M  V30 17 C -2.59373 -2.26445 0.0852681 0
M  V30 18 H 3.31718 0.0573509 2.3293 0
M  V30 19 H 4.78829 0.244098 1.40909 0
M  V30 20 H 3.15756 -1.39695 0.0967811 0
M  V30 21 H 3.57442 0.176161 -0.612434 0
M  V30 22 H 1.27105 -0.349532 1.30049 0
M  V30 23 H 1.79228 1.29714 0.63285 0
M  V30 24 H 1.39599 0.519744 -1.63092 0
M  V30 25 H 1.27918 -1.68327 -2.12146 0
M  V30 26 H 1.30795 -2.12078 -0.380737 0
M  V30 27 H -0.810125 -2.78831 -1.91383 0
M  V30 28 H 0.29084 3.13756 0.969933 0
M  V30 29 H 0.113779 4.33046 -0.228096 0
M  V30 30 H -2.31708 1.52354 0.945316 0
M  V30 31 H -4.1677 0.118778 1.81537 0
M  V30 32 H -4.37606 -2.27803 1.29794 0
M  V30 33 H -2.61573 -3.30098 -0.188184 0
M  V30 END ATOM
M  V30 BEGIN BOND
M  V30 1 1 1 2
M  V30 2 1 2 3
M  V30 3 1 3 4
M  V30 4 1 4 5
M  V30 5 1 5 6
M  V30 6 1 6 7
M  V30 7 2 7 8
M  V30 8 1 8 9
M  V30 9 1 9 10
M  V30 10 2 10 11
M  V30 11 2 10 12
M  V30 12 1 10 13
M  V30 13 1 8 14
M  V30 14 2 14 15
M  V30 15 1 15 16
M  V30 16 2 16 17
M  V30 17 1 9 4
M  V30 18 1 17 7
M  V30 19 1 1 18
M  V30 20 1 1 19
M  V30 21 1 2 20
M  V30 22 1 2 21
M  V30 23 1 3 22
M  V30 24 1 3 23
M  V30 25 1 4 24 CFG=3
M  V30 26 1 5 25
M  V30 27 1 5 26
M  V30 28 1 6 27
M  V30 29 1 13 28
M  V30 30 1 13 29
M  V30 31 1 14 30
M  V30 32 1 15 31
M  V30 33 1 16 32
M  V30 34 1 17 33
M  V30 END BOND
M  V30 END CTAB
M  END
