
     RDKit          3D

  0  0  0  0  0  0  0  0  0  0999 V3000
M  V30 BEGIN CTAB
M  V30 COUNTS 27 27 0 0 0
M  V30 BEGIN ATOM
M  V30 1 N -0.69724 -0.262187 1.5719 0
M  V30 2 C -0.586292 0.420988 0.326532 0
M  V30 3 C -1.91409 0.770518 -0.292035 0
M  V30 4 C -2.67975 1.67392 0.663287 0
M  V30 5 C -2.75629 -0.423797 -0.598417 0
M  V30 6 C 0.157383 -0.449699 -0.652669 0
M  V30 7 C 1.54994 -0.749437 -0.105869 0
M  V30 8 C 1.7562 -1.85509 0.684654 0
M  V30 9 S 3.42489 -1.73406 1.01771 0
M  V30 10 C 3.75934 -0.301482 0.142723 0
M  V30 11 N 2.57245 0.00544628 -0.356965 0
M  V30 12 N 5.00957 0.394166 -0.0122916 0
M  V30 13 H -1.14578 0.266388 2.32991 0
M  V30 14 H -0.942175 -1.26091 1.51456 0
M  V30 15 H -0.0183762 1.35296 0.488234 0
M  V30 16 H -1.74157 1.33269 -1.23248 0
M  V30 17 H -3.32379 2.38865 0.121684 0
M  V30 18 H -1.94431 2.21868 1.26588 0
M  V30 19 H -3.28338 0.980336 1.30837 0
M  V30 20 H -3.72045 -0.0616899 -1.00823 0
M  V30 21 H -2.30384 -1.05305 -1.39764 0
M  V30 22 H -2.91464 -1.01165 0.329986 0
M  V30 23 H 0.245041 0.104925 -1.60294 0
M  V30 24 H -0.364463 -1.3835 -0.853487 0
M  V30 25 H 0.999723 -2.59872 0.994267 0
M  V30 26 H 5.87343 -0.159552 0.0982381 0
M  V30 27 H 4.9885 1.39517 -0.222766 0
M  V30 END ATOM
M  V30 BEGIN BOND
M  V30 1 1 1 2
M  V30 2 1 2 3
M  V30 3 1 3 4
M  V30 4 1 3 5
M  V30 5 1 2 6
M  V30 6 1 6 7
M  V30 7 2 7 8
M  V30 8 1 8 9
M  V30 9 1 9 10
M  V30 10 2 10 11
M  V30 11 1 10 12
M  V30 12 1 11 7
M  V30 13 1 1 13
M  V30 14 1 1 14
M  V30 15 1 2 15
M  V30 16 1 3 16
M  V30 17 1 4 17
M  V30 18 1 4 18
M  V30 19 1 4 19
M  V30 20 1 5 20
M  V30 21 1 5 21
M  V30 22 1 5 22
M  V30 23 1 6 23
M  V30 24 1 6 24
M  V30 25 1 8 25
M  V30 26 1 12 26
M  V30 27 1 12 27
M  V30 END BOND
M  V30 END CTAB
M  END
