
     RDKit          3D

  0  0  0  0  0  0  0  0  0  0999 V3000
M  V30 BEGIN CTAB
M  V30 COUNTS 129 130 0 0 0
M  V30 BEGIN ATOM
M  V30 1 C 4.84601 2.8117 -0.539053 0
M  V30 2 C 3.91142 1.82124 0.192422 0
M  V30 3 C 3.03699 1.13538 -0.787723 0
M  V30 4 C 2.07219 0.168331 -0.213824 0
M  V30 5 C 2.61071 -0.970056 0.546323 0
M  V30 6 O 2.61646 -2.16521 0.0910676 0
M  V30 7 N 3.14783 -0.833283 1.84751 0
M  V30 8 C 3.72344 -1.836 2.67394 0
M  V30 9 C 5.05981 -2.3147 2.33558 0
M  V30 10 O 5.58134 -3.29063 3.02232 0
M  V30 11 N 5.89183 -1.81055 1.33062 0
M  V30 12 C 7.23691 -2.24917 1.05588 0
M  V30 13 C 7.67516 -2.22944 -0.326723 0
M  V30 14 O 6.90225 -1.92296 -1.25468 0
M  V30 15 N 9.04182 -2.57372 -0.581888 0
M  V30 16 C 9.51143 -2.54399 -1.94735 0
M  V30 17 C 10.2087 -3.78201 -2.32288 0
M  V30 18 O 10.3567 -4.70059 -1.48047 0
M  V30 19 O 10.7037 -3.95078 -3.59185 0
M  V30 20 C 10.4641 -1.33507 -2.02696 0
M  V30 21 C 11.5725 -1.52185 -1.05375 0
M  V30 22 C 12.5537 -0.357915 -1.11497 0
M  V30 23 N 13.5947 -0.565178 -0.135969 0
M  V30 24 C 14.5362 -1.60934 -0.246222 0
M  V30 25 N 14.9118 -2.22603 0.832051 0
M  V30 26 N 15.0819 -1.99981 -1.4782 0
M  V30 27 C 8.19509 -1.3647 1.91568 0
M  V30 28 O 8.04006 -0.0536264 1.55747 0
M  V30 29 N 0.93816 0.773697 0.393724 0
M  V30 30 C -0.41023 0.664229 0.0990336 0
M  V30 31 O -0.752303 -0.121788 -0.845651 0
M  V30 32 C -1.48718 1.36116 0.772917 0
M  V30 33 C -1.22639 2.5734 1.58816 0
M  V30 34 C -0.70098 3.75913 0.912479 0
M  V30 35 C -1.60839 4.59622 0.240117 0
M  V30 36 C -1.2392 5.74518 -0.403347 0
M  V30 37 C 0.0906573 6.13726 -0.416898 0
M  V30 38 C 1.00239 5.35697 0.222374 0
M  V30 39 C 0.586941 4.18855 0.872065 0
M  V30 40 O 0.409949 7.32264 -1.09534 0
M  V30 41 N -2.5686 0.5655 1.25929 0
M  V30 42 C -3.93259 0.96258 1.17726 0
M  V30 43 O -4.22415 2.05904 0.652962 0
M  V30 44 C -5.06405 0.143719 1.70129 0
M  V30 45 N -6.30564 0.864534 1.58288 0
M  V30 46 C -6.92792 1.32335 0.40369 0
M  V30 47 O -6.4719 1.10883 -0.747065 0
M  V30 48 C -8.19917 2.1314 0.464917 0
M  V30 49 C -8.10453 2.96641 1.70108 0
M  V30 50 C -9.14577 2.41986 2.61269 0
M  V30 51 C -10.1656 1.77195 1.68011 0
M  V30 52 N -9.34462 1.30886 0.577881 0
M  V30 53 C -9.72543 0.183812 -0.21157 0
M  V30 54 O -8.9749 -0.242923 -1.11602 0
M  V30 55 C -11.017 -0.558366 -0.0327585 0
M  V30 56 N -11.0942 -1.71261 -0.905291 0
M  V30 57 C -11.259 -3.04739 -0.508013 0
M  V30 58 O -11.3312 -3.36383 0.691986 0
M  V30 59 C -11.3625 -4.16492 -1.51872 0
M  V30 60 C -12.4602 -3.81173 -2.51982 0
M  V30 61 S -12.5801 -5.1578 -3.72294 0
M  V30 62 N -11.5885 -5.43841 -0.931364 0
M  V30 63 C -12.0821 0.399318 -0.59219 0
M  V30 64 C -13.4521 -0.137177 -0.518837 0
M  V30 65 O -13.7537 -1.25013 -0.0833641 0
M  V30 66 O -14.5103 0.669835 -0.973657 0
M  V30 67 C 3.8445 0.486825 -1.91093 0
M  V30 68 H 5.2469 2.36002 -1.44183 0
M  V30 69 H 4.30002 3.75118 -0.70525 0
M  V30 70 H 5.69634 3.03856 0.14377 0
M  V30 71 H 4.57694 1.08786 0.736559 0
M  V30 72 H 3.40102 2.41003 0.966422 0
M  V30 73 H 2.39541 1.91792 -1.3177 0
M  V30 74 H 1.66687 -0.372139 -1.19766 0
M  V30 75 H 3.10688 0.150944 2.2541 0
M  V30 76 H 3.65616 -1.53489 3.7559 0
M  V30 77 H 3.02738 -2.74152 2.63254 0
M  V30 78 H 5.51138 -1.04947 0.714565 0
M  V30 79 H 7.35908 -3.26499 1.49476 0
M  V30 80 H 9.68256 -2.84701 0.197074 0
M  V30 81 H 8.66277 -2.357 -2.66145 0
M  V30 82 H 10.3732 -3.33971 -4.33151 0
M  V30 83 H 9.8571 -0.450955 -1.68573 0
M  V30 84 H 10.7791 -1.21266 -3.06544 0
M  V30 85 H 12.143 -2.43145 -1.24288 0
M  V30 86 H 11.186 -1.60904 0.00036705 0
M  V30 87 H 13.0022 -0.278072 -2.11026 0
M  V30 88 H 11.9609 0.564764 -0.880405 0
M  V30 89 H 13.6805 0.0600542 0.703133 0
M  V30 90 H 15.5983 -2.99011 0.774077 0
M  V30 91 H 14.5298 -2.52773 -2.21316 0
M  V30 92 H 16.0748 -1.76488 -1.68474 0
M  V30 93 H 9.18924 -1.79203 1.82022 0
M  V30 94 H 7.74785 -1.46256 2.94916 0
M  V30 95 H 7.20197 0.174898 1.10424 0
M  V30 96 H 1.17376 1.35982 1.25659 0
M  V30 97 H -2.04628 1.87998 -0.184047 0
M  V30 98 H -2.22485 2.90095 2.02316 0
M  V30 99 H -0.626524 2.35553 2.51378 0
M  V30 100 H -2.66478 4.35791 0.21432 0
M  V30 101 H -1.95083 6.39524 -0.91404 0
M  V30 102 H 2.02912 5.62795 0.236599 0
M  V30 103 H 1.37573 3.60801 1.3908 0
M  V30 104 H 0.652272 7.26996 -2.09772 0
M  V30 105 H -2.35138 -0.351672 1.69578 0
M  V30 106 H -5.15113 -0.80774 1.16039 0
M  V30 107 H -4.88498 -0.102531 2.7648 0
M  V30 108 H -6.80009 1.06564 2.50589 0
M  V30 109 H -8.24531 2.78485 -0.461521 0
M  V30 110 H -7.08113 3.01491 2.13933 0
M  V30 111 H -8.33162 4.03546 1.39664 0
M  V30 112 H -8.8172 1.74513 3.39617 0
M  V30 113 H -9.67484 3.29749 3.07456 0
M  V30 114 H -10.9262 2.52416 1.40211 0
M  V30 115 H -10.6979 0.922508 2.16364 0
M  V30 116 H -11.2551 -0.775663 0.997376 0
M  V30 117 H -11.0162 -1.52686 -1.94998 0
M  V30 118 H -10.4117 -4.15728 -2.0758 0
M  V30 119 H -12.1278 -2.89583 -3.09602 0
M  V30 120 H -13.4157 -3.58531 -2.0419 0
M  V30 121 H -13.3362 -6.23357 -3.21169 0
M  V30 122 H -10.724 -5.82522 -0.491843 0
M  V30 123 H -12.3126 -5.41081 -0.159254 0
M  V30 124 H -12.0681 1.39045 -0.11639 0
M  V30 125 H -11.8032 0.618622 -1.67019 0
M  V30 126 H -14.7594 1.52445 -0.4889 0
M  V30 127 H 3.23487 -0.391002 -2.24119 0
M  V30 128 H 4.79456 0.108099 -1.49124 0
M  V30 129 H 3.94418 1.21918 -2.7176 0
M  V30 END ATOM
M  V30 BEGIN BOND
M  V30 1 1 1 2
M  V30 2 1 2 3
M  V30 3 1 3 4
M  V30 4 1 4 5
M  V30 5 2 5 6
M  V30 6 1 5 7
M  V30 7 1 7 8
M  V30 8 1 8 9
M  V30 9 2 9 10
M  V30 10 1 9 11
M  V30 11 1 11 12
M  V30 12 1 12 13
M  V30 13 2 13 14
M  V30 14 1 13 15
M  V30 15 1 15 16
M  V30 16 1 16 17
M  V30 17 2 17 18
M  V30 18 1 17 19
M  V30 19 1 16 20
M  V30 20 1 20 21
M  V30 21 1 21 22
M  V30 22 1 22 23
M  V30 23 1 23 24
M  V30 24 2 24 25 CFG=2
M  V30 25 1 24 26
M  V30 26 1 12 27
M  V30 27 1 27 28
M  V30 28 1 4 29
M  V30 29 1 29 30
M  V30 30 2 30 31
M  V30 31 1 30 32
M  V30 32 1 32 33
M  V30 33 1 33 34
M  V30 34 2 34 35
M  V30 35 1 35 36
M  V30 36 2 36 37
M  V30 37 1 37 38
M  V30 38 2 38 39
M  V30 39 1 37 40
M  V30 40 1 32 41
M  V30 41 1 41 42
M  V30 42 2 42 43
M  V30 43 1 42 44
M  V30 44 1 44 45
M  V30 45 1 45 46
M  V30 46 2 46 47
M  V30 47 1 46 48
M  V30 48 1 48 49
M  V30 49 1 49 50
M  V30 50 1 50 51
M  V30 51 1 51 52
M  V30 52 1 52 53
M  V30 53 2 53 54
M  V30 54 1 53 55
M  V30 55 1 55 56
M  V30 56 1 56 57
M  V30 57 2 57 58
M  V30 58 1 57 59
M  V30 59 1 59 60
M  V30 60 1 60 61
M  V30 61 1 59 62
M  V30 62 1 55 63
M  V30 63 1 63 64
M  V30 64 2 64 65
M  V30 65 1 64 66
M  V30 66 1 3 67
M  V30 67 1 39 34
M  V30 68 1 52 48
M  V30 69 1 1 68
M  V30 70 1 1 69
M  V30 71 1 1 70
M  V30 72 1 2 71
M  V30 73 1 2 72
M  V30 74 1 3 73
M  V30 75 1 4 74
M  V30 76 1 7 75
M  V30 77 1 8 76
M  V30 78 1 8 77
M  V30 79 1 11 78
M  V30 80 1 12 79
M  V30 81 1 15 80
M  V30 82 1 16 81
M  V30 83 1 19 82
M  V30 84 1 20 83
M  V30 85 1 20 84
M  V30 86 1 21 85
M  V30 87 1 21 86
M  V30 88 1 22 87
M  V30 89 1 22 88
M  V30 90 1 23 89
M  V30 91 1 25 90
M  V30 92 1 26 91
M  V30 93 1 26 92
M  V30 94 1 27 93
M  V30 95 1 27 94
M  V30 96 1 28 95
M  V30 97 1 29 96
M  V30 98 1 32 97
M  V30 99 1 33 98
M  V30 100 1 33 99
M  V30 101 1 35 100
M  V30 102 1 36 101
M  V30 103 1 38 102
M  V30 104 1 39 103
M  V30 105 1 40 104
M  V30 106 1 41 105
M  V30 107 1 44 106
M  V30 108 1 44 107
M  V30 109 1 45 108
M  V30 110 1 48 109
M  V30 111 1 49 110
M  V30 112 1 49 111
M  V30 113 1 50 112
M  V30 114 1 50 113
M  V30 115 1 51 114
M  V30 116 1 51 115
M  V30 117 1 55 116
M  V30 118 1 56 117
M  V30 119 1 59 118
M  V30 120 1 60 119
M  V30 121 1 60 120
M  V30 122 1 61 121
M  V30 123 1 62 122
M  V30 124 1 62 123
M  V30 125 1 63 124
M  V30 126 1 63 125
M  V30 127 1 66 126
M  V30 128 1 67 127
M  V30 129 1 67 128
M  V30 130 1 67 129
M  V30 END BOND
M  V30 END CTAB
M  END
