
     RDKit          3D

  0  0  0  0  0  0  0  0  0  0999 V3000
M  V30 BEGIN CTAB
M  V30 COUNTS 22 23 0 0 0
M  V30 BEGIN ATOM
M  V30 1 N -3.80343 -0.651115 -0.0414939 0
M  V30 2 C -2.45559 -0.231774 -0.0460987 0
M  V30 3 C -1.45107 -1.13619 -0.256848 0
M  V30 4 C -0.135317 -0.639034 -0.246393 0
M  V30 5 C 0.135299 0.689703 -0.0353051 0
M  V30 6 N -0.932601 1.51751 0.16597 0
M  V30 7 C -2.19471 1.10683 0.167218 0
M  V30 8 N -3.28535 2.03473 0.386839 0
M  V30 9 S 1.77379 1.36356 -0.0129672 0
M  V30 10 C 3.04836 0.185875 -0.285556 0
M  V30 11 N 3.05257 -1.13416 -0.510754 0
M  V30 12 C 4.29441 -1.60638 -0.661287 0
M  V30 13 N 5.09954 -0.539325 -0.524857 0
M  V30 14 N 4.37322 0.515383 -0.304141 0
M  V30 15 H -4.25645 -0.885859 0.858135 0
M  V30 16 H -4.33186 -0.722839 -0.927133 0
M  V30 17 H -1.60361 -2.18198 -0.4264 0
M  V30 18 H 0.653648 -1.3405 -0.410399 0
M  V30 19 H -3.2503 2.68434 1.19158 0
M  V30 20 H -4.11017 2.07312 -0.239665 0
M  V30 21 H 4.67277 -2.60044 -0.852034 0
M  V30 22 H 4.70686 1.49856 -0.155407 0
M  V30 END ATOM
M  V30 BEGIN BOND
M  V30 1 1 1 2
M  V30 2 2 2 3
M  V30 3 1 3 4
M  V30 4 2 4 5
M  V30 5 1 5 6
M  V30 6 2 6 7
M  V30 7 1 7 8
M  V30 8 1 5 9
M  V30 9 1 9 10
M  V30 10 2 10 11
M  V30 11 1 11 12
M  V30 12 2 12 13
M  V30 13 1 13 14
M  V30 14 1 7 2
M  V30 15 1 14 10
M  V30 16 1 1 15
M  V30 17 1 1 16
M  V30 18 1 3 17
M  V30 19 1 4 18
M  V30 20 1 8 19
M  V30 21 1 8 20
M  V30 22 1 12 21
M  V30 23 1 14 22
M  V30 END BOND
M  V30 END CTAB
M  END
