
     RDKit          3D

  0  0  0  0  0  0  0  0  0  0999 V3000
M  V30 BEGIN CTAB
M  V30 COUNTS 30 31 0 0 0
M  V30 BEGIN ATOM
M  V30 1 N -6.10848 0.0180993 0.000928777 0
M  V30 2 C -4.69141 0.158167 -0.0529449 0
M  V30 3 C -3.88743 -0.0976181 1.02113 0
M  V30 4 C -2.51815 0.0516916 0.923116 0
M  V30 5 C -1.89199 0.455223 -0.226074 0
M  V30 6 C -2.72806 0.714105 -1.31972 0
M  V30 7 C -4.0899 0.571437 -1.24157 0
M  V30 8 C -0.466186 0.625208 -0.368607 0
M  V30 9 O 0.0679463 0.915252 -1.47792 0
M  V30 10 N 0.393213 0.471357 0.742617 0
M  V30 11 N 1.80199 0.639199 0.600004 0
M  V30 12 C 2.48095 -0.397114 0.259648 0
M  V30 13 C 3.91712 -0.323085 0.0906575 0
M  V30 14 C 4.66096 0.814694 0.270431 0
M  V30 15 C 5.99645 0.483455 0.016015 0
M  V30 16 C 5.96717 -0.851771 -0.304794 0
M  V30 17 O 4.71463 -1.27309 -0.244147 0
M  V30 18 N 1.78174 -1.6395 0.0486053 0
M  V30 19 H -6.7046 0.573965 -0.631267 0
M  V30 20 H -6.52977 -0.643607 0.67742 0
M  V30 21 H -4.30756 -0.416028 1.94939 0
M  V30 22 H -1.90247 -0.162649 1.80077 0
M  V30 23 H -2.28034 1.03036 -2.23297 0
M  V30 24 H -4.72359 0.779432 -2.10927 0
M  V30 25 H 0.0139875 0.234879 1.68201 0
M  V30 26 H 4.33073 1.78643 0.549676 0
M  V30 27 H 6.85656 1.13304 0.0619552 0
M  V30 28 H 6.78241 -1.50162 -0.568929 0
M  V30 29 H 1.16279 -1.98352 0.815614 0
M  V30 30 H 1.90129 -2.1664 -0.848366 0
M  V30 END ATOM
M  V30 BEGIN BOND
M  V30 1 1 1 2
M  V30 2 2 2 3
M  V30 3 1 3 4
M  V30 4 2 4 5
M  V30 5 1 5 6
M  V30 6 2 6 7
M  V30 7 1 5 8
M  V30 8 2 8 9
M  V30 9 1 8 10
M  V30 10 1 10 11
M  V30 11 2 11 12
M  V30 12 1 12 13
M  V30 13 2 13 14
M  V30 14 1 14 15
M  V30 15 2 15 16
M  V30 16 1 16 17
M  V30 17 1 12 18
M  V30 18 1 7 2
M  V30 19 1 17 13
M  V30 20 1 1 19
M  V30 21 1 1 20
M  V30 22 1 3 21
M  V30 23 1 4 22
M  V30 24 1 6 23
M  V30 25 1 7 24
M  V30 26 1 10 25
M  V30 27 1 14 26
M  V30 28 1 15 27
M  V30 29 1 16 28
M  V30 30 1 18 29
M  V30 31 1 18 30
M  V30 END BOND
M  V30 END CTAB
M  END
