
     RDKit          3D

  0  0  0  0  0  0  0  0  0  0999 V3000
M  V30 BEGIN CTAB
M  V30 COUNTS 25 26 0 0 0
M  V30 BEGIN ATOM
M  V30 1 N 3.20989 -1.0861 0.669401 0
M  V30 2 N 2.02379 -0.476149 0.269596 0
M  V30 3 C 2.02865 0.804202 -0.122898 0
M  V30 4 N 3.26489 1.49183 -0.112699 0
M  V30 5 N 0.869381 1.35736 -0.500494 0
M  V30 6 C -0.296149 0.65853 -0.494556 0
M  V30 7 C -0.272589 -0.641963 -0.0907767 0
M  V30 8 C -1.55806 -1.39236 -0.0904422 0
M  V30 9 C -2.69232 -0.554087 0.382695 0
M  V30 10 C -2.64617 0.870892 0.00139549 0
M  V30 11 C -1.55296 1.27874 -0.910206 0
M  V30 12 C 0.900989 -1.20955 0.293813 0
M  V30 13 O 0.932475 -2.39413 0.663393 0
M  V30 14 H 3.36184 -1.33136 1.68536 0
M  V30 15 H 3.93274 -1.29032 -0.0537568 0
M  V30 16 H 3.52552 2.11573 0.679734 0
M  V30 17 H 3.94367 1.38903 -0.89966 0
M  V30 18 H -1.42145 -2.24829 0.602645 0
M  V30 19 H -1.74394 -1.83783 -1.11019 0
M  V30 20 H -2.7734 -0.683058 1.50059 0
M  V30 21 H -3.64517 -1.0045 -0.0149054 0
M  V30 22 H -3.61783 1.20685 -0.456362 0
M  V30 23 H -2.56712 1.49155 0.941742 0
M  V30 24 H -1.44939 2.40112 -0.844606 0
M  V30 25 H -1.75729 1.08387 -1.98881 0
M  V30 END ATOM
M  V30 BEGIN BOND
M  V30 1 1 1 2
M  V30 2 1 2 3
M  V30 3 1 3 4
M  V30 4 2 3 5
M  V30 5 1 5 6
M  V30 6 2 6 7
M  V30 7 1 7 8
M  V30 8 1 8 9
M  V30 9 1 9 10
M  V30 10 1 10 11
M  V30 11 1 7 12
M  V30 12 2 12 13
M  V30 13 1 12 2
M  V30 14 1 11 6
M  V30 15 1 1 14
M  V30 16 1 1 15
M  V30 17 1 4 16
M  V30 18 1 4 17
M  V30 19 1 8 18
M  V30 20 1 8 19
M  V30 21 1 9 20
M  V30 22 1 9 21
M  V30 23 1 10 22
M  V30 24 1 10 23
M  V30 25 1 11 24
M  V30 26 1 11 25
M  V30 END BOND
M  V30 END CTAB
M  END
