
     RDKit          3D

  0  0  0  0  0  0  0  0  0  0999 V3000
M  V30 BEGIN CTAB
M  V30 COUNTS 25 26 0 0 0
M  V30 BEGIN ATOM
M  V30 1 N -3.65565 0.455252 -0.497175 0
M  V30 2 C -3.05813 -0.370818 0.472662 0
M  V30 3 N -3.6128 -1.53725 0.9112 0
M  V30 4 N -2.81308 -2.05101 1.79936 0
M  V30 5 N -1.77711 -1.23875 1.9265 0
M  V30 6 N -1.89216 -0.19312 1.12578 0
M  V30 7 C -1.02642 0.936942 0.92066 0
M  V30 8 C -0.0019493 0.722502 -0.162845 0
M  V30 9 C 0.900825 -0.468986 0.176232 0
M  V30 10 N 1.88061 -0.677988 -0.852932 0
M  V30 11 N 1.80127 -1.43022 -1.94043 0
M  V30 12 N 2.89911 -1.37339 -2.65056 0
M  V30 13 N 3.7283 -0.569394 -2.0284 0
M  V30 14 C 3.12093 -0.125507 -0.911963 0
M  V30 15 N 3.72947 0.76536 0.00256027 0
M  V30 16 H -4.10472 1.33323 -0.205844 0
M  V30 17 H -3.64051 0.178544 -1.48743 0
M  V30 18 H -0.482426 1.10414 1.87792 0
M  V30 19 H -1.64787 1.81623 0.664735 0
M  V30 20 H 0.637288 1.62664 -0.192239 0
M  V30 21 H -0.461573 0.606875 -1.1436 0
M  V30 22 H 1.3591 -0.301026 1.17183 0
M  V30 23 H 0.230315 -1.36717 0.296851 0
M  V30 24 H 4.05896 0.399549 0.91182 0
M  V30 25 H 3.82823 1.75936 -0.26373 0
M  V30 END ATOM
M  V30 BEGIN BOND
M  V30 1 1 1 2
M  V30 2 2 2 3
M  V30 3 1 3 4
M  V30 4 2 4 5
M  V30 5 1 5 6
M  V30 6 1 6 7
M  V30 7 1 7 8
M  V30 8 1 8 9
M  V30 9 1 9 10
M  V30 10 1 10 11
M  V30 11 2 11 12
M  V30 12 1 12 13
M  V30 13 2 13 14
M  V30 14 1 14 15
M  V30 15 1 6 2
M  V30 16 1 14 10
M  V30 17 1 1 16
M  V30 18 1 1 17
M  V30 19 1 7 18
M  V30 20 1 7 19
M  V30 21 1 8 20
M  V30 22 1 8 21
M  V30 23 1 9 22
M  V30 24 1 9 23
M  V30 25 1 15 24
M  V30 26 1 15 25
M  V30 END BOND
M  V30 END CTAB
M  END
