
     RDKit          3D

  0  0  0  0  0  0  0  0  0  0999 V3000
M  V30 BEGIN CTAB
M  V30 COUNTS 19 19 0 0 0
M  V30 BEGIN ATOM
M  V30 1 N 2.53907 0.970416 -0.102516 0
M  V30 2 C 1.18144 0.557045 -0.16392 0
M  V30 3 N 0.228836 1.53871 -0.084838 0
M  V30 4 C -1.08747 1.28186 -0.130507 0
M  V30 5 N -2.0385 2.35071 -0.04305 0
M  V30 6 C -1.50504 -0.0266175 -0.262839 0
M  V30 7 S -3.25656 -0.378785 -0.324627 0
M  V30 8 C -3.49665 -2.11956 -0.495772 0
M  V30 9 N -3.6418 -3.26322 -0.59235 0
M  V30 10 C -0.546711 -1.03388 -0.344293 0
M  V30 11 C 0.802594 -0.74814 -0.295321 0
M  V30 12 S 1.9725 -2.05347 -0.402031 0
M  V30 13 C 3.6269 -1.52735 -0.32535 0
M  V30 14 N 4.75738 -1.1985 -0.275912 0
M  V30 15 H 3.03958 1.19211 -0.98756 0
M  V30 16 H 3.04513 1.06224 0.783758 0
M  V30 17 H -1.93326 3.20416 -0.638025 0
M  V30 18 H -2.81865 2.23212 0.628223 0
M  V30 19 H -0.86877 -2.03985 -0.446049 0
M  V30 END ATOM
M  V30 BEGIN BOND
M  V30 1 1 1 2
M  V30 2 2 2 3
M  V30 3 1 3 4
M  V30 4 1 4 5
M  V30 5 2 4 6
M  V30 6 1 6 7
M  V30 7 1 7 8
M  V30 8 3 8 9
M  V30 9 1 6 10
M  V30 10 2 10 11
M  V30 11 1 11 12
M  V30 12 1 12 13
M  V30 13 3 13 14
M  V30 14 1 11 2
M  V30 15 1 1 15
M  V30 16 1 1 16
M  V30 17 1 5 17
M  V30 18 1 5 18
M  V30 19 1 10 19
M  V30 END BOND
M  V30 END CTAB
M  END
