
     RDKit          3D

  0  0  0  0  0  0  0  0  0  0999 V3000
M  V30 BEGIN CTAB
M  V30 COUNTS 40 42 0 0 0
M  V30 BEGIN ATOM
M  V30 1 C -0.968177 1.81283 -0.722821 0
M  V30 2 C -1.12284 0.850092 0.426958 0
M  V30 3 C -0.98784 -0.571092 0.0463428 0
M  V30 4 C -1.86951 -1.40935 -0.594768 0
M  V30 5 C -1.25714 -2.66608 -0.719737 0
M  V30 6 N -0.0644141 -2.54495 -0.166533 0
M  V30 7 N 0.122242 -1.32262 0.293323 0
M  V30 8 C 1.28589 -0.808683 0.954452 0
M  V30 9 C 1.3576 -0.574687 2.3089 0
M  V30 10 C 2.50521 -0.0750122 2.9066 0
M  V30 11 C 3.62818 0.209113 2.1618 0
M  V30 12 N 4.86548 0.69714 2.4745 0
M  V30 13 C 5.55937 0.768668 1.33734 0
M  V30 14 N 4.77204 0.33241 0.321539 0
M  V30 15 C 5.22782 0.28416 -1.04484 0
M  V30 16 C 3.5688 -0.0207447 0.805254 0
M  V30 17 C 2.41606 -0.521169 0.214985 0
M  V30 18 C -3.18855 -1.10159 -1.06937 0
M  V30 19 O -3.85049 -2.03109 -1.64439 0
M  V30 20 N -3.73973 0.188375 -0.906762 0
M  V30 21 C -4.93791 0.357666 -0.471039 0
M  V30 22 N -5.71156 -0.771009 -0.150842 0
M  V30 23 N -5.4419 1.66548 -0.326592 0
M  V30 24 H -1.80903 2.52838 -0.749439 0
M  V30 25 H -0.040149 2.41872 -0.634804 0
M  V30 26 H -0.9817 1.21575 -1.65893 0
M  V30 27 H -0.423695 1.12089 1.25893 0
M  V30 28 H -2.12566 0.998551 0.863294 0
M  V30 29 H -1.66591 -3.55535 -1.172 0
M  V30 30 H 0.475423 -0.792772 2.9263 0
M  V30 31 H 2.54067 0.102658 3.97926 0
M  V30 32 H 6.57243 1.11574 1.25291 0
M  V30 33 H 4.3885 0.331976 -1.77332 0
M  V30 34 H 5.87818 -0.605925 -1.25225 0
M  V30 35 H 5.84507 1.18607 -1.22582 0
M  V30 36 H 2.39379 -0.695582 -0.863552 0
M  V30 37 H -6.33852 -1.18768 -0.848904 0
M  V30 38 H -5.63396 -1.17352 0.80808 0
M  V30 39 H -5.22016 2.19224 0.535754 0
M  V30 40 H -6.0239 2.05198 -1.10523 0
M  V30 END ATOM
M  V30 BEGIN BOND
M  V30 1 1 1 2
M  V30 2 1 2 3
M  V30 3 2 3 4
M  V30 4 1 4 5
M  V30 5 2 5 6
M  V30 6 1 6 7
M  V30 7 1 7 8
M  V30 8 2 8 9
M  V30 9 1 9 10
M  V30 10 2 10 11
M  V30 11 1 11 12
M  V30 12 2 12 13
M  V30 13 1 13 14
M  V30 14 1 14 15
M  V30 15 1 14 16
M  V30 16 2 16 17
M  V30 17 1 4 18
M  V30 18 2 18 19
M  V30 19 1 18 20
M  V30 20 2 20 21
M  V30 21 1 21 22
M  V30 22 1 21 23
M  V30 23 1 7 3
M  V30 24 1 17 8
M  V30 25 1 16 11
M  V30 26 1 1 24
M  V30 27 1 1 25
M  V30 28 1 1 26
M  V30 29 1 2 27
M  V30 30 1 2 28
M  V30 31 1 5 29
M  V30 32 1 9 30
M  V30 33 1 10 31
M  V30 34 1 13 32
M  V30 35 1 15 33
M  V30 36 1 15 34
M  V30 37 1 15 35
M  V30 38 1 17 36
M  V30 39 1 22 37
M  V30 40 1 22 38
M  V30 41 1 23 39
M  V30 42 1 23 40
M  V30 END BOND
M  V30 END CTAB
M  END
