
     RDKit          3D

  0  0  0  0  0  0  0  0  0  0999 V3000
M  V30 BEGIN CTAB
M  V30 COUNTS 46 48 0 0 0
M  V30 BEGIN ATOM
M  V30 1 O 0.754151 -1.99517 -1.47079 0
M  V30 2 C 0.702257 -0.955486 -0.729955 0
M  V30 3 C 1.94004 -0.63229 0.0194542 0
M  V30 4 C 3.13443 -0.501985 -0.911207 0
M  V30 5 C 4.36994 -0.17793 -0.150518 0
M  V30 6 C 5.18431 -1.17136 0.339285 0
M  V30 7 C 6.31453 -0.815822 1.03575 0
M  V30 8 C 6.69634 0.478405 1.28235 0
M  V30 9 C 5.87034 1.47901 0.785487 0
M  V30 10 C 4.7343 1.13371 0.0855408 0
M  V30 11 N 1.78461 0.562294 0.824522 0
M  V30 12 N -0.4682 -0.165825 -0.635474 0
M  V30 13 C -1.63185 -0.521369 -1.378 0
M  V30 14 C -2.03412 0.542038 -2.41103 0
M  V30 15 C -2.07987 1.85594 -1.71245 0
M  V30 16 C -2.98517 1.8418 -0.535279 0
M  V30 17 C -3.48415 0.503359 -0.133229 0
M  V30 18 C -2.84512 -0.654141 -0.523324 0
M  V30 19 C -3.37054 -1.8509 -0.103452 0
M  V30 20 C -4.5046 -1.91269 0.686223 0
M  V30 21 C -5.15805 -0.766396 1.08659 0
M  V30 22 C -4.63473 0.435741 0.668061 0
M  V30 23 N -6.33115 -0.820897 1.9029 0
M  V30 24 H 2.17542 -1.46693 0.722873 0
M  V30 25 H 3.2729 -1.44671 -1.46915 0
M  V30 26 H 2.95393 0.329523 -1.61545 0
M  V30 27 H 4.91876 -2.22329 0.166306 0
M  V30 28 H 6.9294 -1.63532 1.4049 0
M  V30 29 H 7.60521 0.697466 1.84178 0
M  V30 30 H 6.1703 2.49291 0.979195 0
M  V30 31 H 4.09056 1.93333 -0.301496 0
M  V30 32 H 1.43199 1.35859 0.252294 0
M  V30 33 H 1.11736 0.423012 1.61189 0
M  V30 34 H -0.464543 0.665938 -0.0217222 0
M  V30 35 H -1.4385 -1.45002 -1.95727 0
M  V30 36 H -3.06678 0.268916 -2.72972 0
M  V30 37 H -1.35812 0.518375 -3.28173 0
M  V30 38 H -2.36855 2.65812 -2.44484 0
M  V30 39 H -1.0438 2.09136 -1.3445 0
M  V30 40 H -3.89348 2.45573 -0.80884 0
M  V30 41 H -2.52079 2.374 0.329875 0
M  V30 42 H -2.85563 -2.74876 -0.419187 0
M  V30 43 H -4.9201 -2.84782 1.01774 0
M  V30 44 H -5.14972 1.34046 0.983538 0
M  V30 45 H -7.26884 -1.06261 1.51786 0
M  V30 46 H -6.27469 -0.616283 2.92125 0
M  V30 END ATOM
M  V30 BEGIN BOND
M  V30 1 2 1 2
M  V30 2 1 2 3
M  V30 3 1 3 4
M  V30 4 1 4 5
M  V30 5 2 5 6
M  V30 6 1 6 7
M  V30 7 2 7 8
M  V30 8 1 8 9
M  V30 9 2 9 10
M  V30 10 1 3 11
M  V30 11 1 2 12
M  V30 12 1 12 13
M  V30 13 1 13 14
M  V30 14 1 14 15
M  V30 15 1 15 16
M  V30 16 1 16 17
M  V30 17 2 17 18
M  V30 18 1 18 19
M  V30 19 2 19 20
M  V30 20 1 20 21
M  V30 21 2 21 22
M  V30 22 1 21 23
M  V30 23 1 10 5
M  V30 24 1 18 13
M  V30 25 1 22 17
M  V30 26 1 3 24
M  V30 27 1 4 25
M  V30 28 1 4 26
M  V30 29 1 6 27
M  V30 30 1 7 28
M  V30 31 1 8 29
M  V30 32 1 9 30
M  V30 33 1 10 31
M  V30 34 1 11 32
M  V30 35 1 11 33
M  V30 36 1 12 34
M  V30 37 1 13 35
M  V30 38 1 14 36
M  V30 39 1 14 37
M  V30 40 1 15 38
M  V30 41 1 15 39
M  V30 42 1 16 40
M  V30 43 1 16 41
M  V30 44 1 19 42
M  V30 45 1 20 43
M  V30 46 1 22 44
M  V30 47 1 23 45
M  V30 48 1 23 46
M  V30 END BOND
M  V30 END CTAB
M  END
