
     RDKit          3D

  0  0  0  0  0  0  0  0  0  0999 V3000
M  V30 BEGIN CTAB
M  V30 COUNTS 24 25 0 0 0
M  V30 BEGIN ATOM
M  V30 1 N 0.487445 3.69598 -0.0363956 0
M  V30 2 C 0.43516 2.28448 -0.0985481 0
M  V30 3 N 1.55156 1.55793 -0.201409 0
M  V30 4 C 1.48442 0.205563 -0.259905 0
M  V30 5 C 2.66689 -0.504001 -0.366102 0
M  V30 6 C 2.65661 -1.85982 -0.428314 0
M  V30 7 C 1.4536 -2.51407 -0.384066 0
M  V30 8 C 0.26865 -1.82033 -0.278448 0
M  V30 9 C 0.26256 -0.452679 -0.214666 0
M  V30 10 C -0.931903 0.245779 -0.108264 0
M  V30 11 C -0.77199 1.6377 -0.0536882 0
M  V30 12 C -2.2469 -0.340274 -0.0537587 0
M  V30 13 N -3.27204 0.438278 0.04571 0
M  V30 14 N -2.61997 -1.70497 -0.0934722 0
M  V30 15 H 0.457963 4.25506 0.842301 0
M  V30 16 H 0.560872 4.20851 -0.940266 0
M  V30 17 H 3.63231 -0.000704747 -0.402617 0
M  V30 18 H 3.55427 -2.47572 -0.512513 0
M  V30 19 H 1.41569 -3.61097 -0.432564 0
M  V30 20 H -0.619836 -2.40093 -0.250317 0
M  V30 21 H -1.64719 2.2348 0.0282342 0
M  V30 22 H -3.22394 1.42998 0.0884639 0
M  V30 23 H -2.73054 -2.32158 0.757644 0
M  V30 24 H -2.82371 -2.18798 -1.01648 0
M  V30 END ATOM
M  V30 BEGIN BOND
M  V30 1 1 1 2
M  V30 2 2 2 3
M  V30 3 1 3 4
M  V30 4 2 4 5
M  V30 5 1 5 6
M  V30 6 2 6 7
M  V30 7 1 7 8
M  V30 8 2 8 9
M  V30 9 1 9 10
M  V30 10 2 10 11
M  V30 11 1 10 12
M  V30 12 2 12 13 CFG=2
M  V30 13 1 12 14
M  V30 14 1 11 2
M  V30 15 1 9 4
M  V30 16 1 1 15
M  V30 17 1 1 16
M  V30 18 1 5 17
M  V30 19 1 6 18
M  V30 20 1 7 19
M  V30 21 1 8 20
M  V30 22 1 11 21
M  V30 23 1 13 22
M  V30 24 1 14 23
M  V30 25 1 14 24
M  V30 END BOND
M  V30 END CTAB
M  END
