
     RDKit          3D

  0  0  0  0  0  0  0  0  0  0999 V3000
M  V30 BEGIN CTAB
M  V30 COUNTS 33 33 0 0 0
M  V30 BEGIN ATOM
M  V30 1 C -1.09875 1.53663 1.44669 0
M  V30 2 N -0.901542 0.411579 0.519775 0
M  V30 3 C -2.07795 -0.181918 -0.0154245 0
M  V30 4 C -2.76722 0.870996 -0.892246 0
M  V30 5 C -3.03011 -0.366888 1.1776 0
M  V30 6 C -1.93712 -1.45054 -0.756322 0
M  V30 7 C 0.440101 0.0499902 0.263436 0
M  V30 8 C 0.884547 -1.18607 0.667237 0
M  V30 9 C 2.21237 -1.55261 0.411174 0
M  V30 10 C 3.0822 -0.716106 -0.229135 0
M  V30 11 C 2.6387 0.521804 -0.632261 0
M  V30 12 C 1.32449 0.899304 -0.386185 0
M  V30 13 N 3.48143 1.44481 -1.28318 0
M  V30 14 N 4.42516 -1.10405 -0.491594 0
M  V30 15 H -2.14938 1.77581 1.6234 0
M  V30 16 H -0.606541 1.32711 2.41365 0
M  V30 17 H -0.583874 2.40487 0.938833 0
M  V30 18 H -3.28438 1.61983 -0.263269 0
M  V30 19 H -3.545 0.359738 -1.49555 0
M  V30 20 H -2.01162 1.39395 -1.5215 0
M  V30 21 H -3.74461 0.476505 1.26072 0
M  V30 22 H -3.63217 -1.29452 1.07418 0
M  V30 23 H -2.45719 -0.359482 2.13739 0
M  V30 24 H -2.28786 -2.28938 -0.0891145 0
M  V30 25 H -2.64716 -1.4364 -1.6356 0
M  V30 26 H -0.960054 -1.69934 -1.17256 0
M  V30 27 H 0.28816 -1.91755 1.17355 0
M  V30 28 H 2.56898 -2.51403 0.720239 0
M  V30 29 H 0.939379 1.86806 -0.68758 0
M  V30 30 H 4.0942 2.06201 -0.729278 0
M  V30 31 H 3.48911 1.5081 -2.30935 0
M  V30 32 H 4.896 -0.687312 -1.35022 0
M  V30 33 H 4.95771 -1.77487 0.112497 0
M  V30 END ATOM
M  V30 BEGIN BOND
M  V30 1 1 1 2
M  V30 2 1 2 3
M  V30 3 1 3 4
M  V30 4 1 3 5
M  V30 5 1 3 6
M  V30 6 1 2 7
M  V30 7 2 7 8
M  V30 8 1 8 9
M  V30 9 2 9 10
M  V30 10 1 10 11
M  V30 11 2 11 12
M  V30 12 1 11 13
M  V30 13 1 10 14
M  V30 14 1 12 7
M  V30 15 1 1 15
M  V30 16 1 1 16
M  V30 17 1 1 17
M  V30 18 1 4 18
M  V30 19 1 4 19
M  V30 20 1 4 20
M  V30 21 1 5 21
M  V30 22 1 5 22
M  V30 23 1 5 23
M  V30 24 1 6 24
M  V30 25 1 6 25
M  V30 26 1 6 26
M  V30 27 1 8 27
M  V30 28 1 9 28
M  V30 29 1 12 29
M  V30 30 1 13 30
M  V30 31 1 13 31
M  V30 32 1 14 32
M  V30 33 1 14 33
M  V30 END BOND
M  V30 END CTAB
M  END
