
     RDKit          3D

  0  0  0  0  0  0  0  0  0  0999 V3000
M  V30 BEGIN CTAB
M  V30 COUNTS 24 25 0 0 0
M  V30 BEGIN ATOM
M  V30 1 N 2.57953 2.73484 0.64331 0
M  V30 2 C 2.17279 1.41852 0.300731 0
M  V30 3 N 2.96946 0.367763 0.539937 0
M  V30 4 C 2.56071 -0.887186 0.200933 0
M  V30 5 N 3.37667 -2.02001 0.436215 0
M  V30 6 N 1.3688 -1.11853 -0.374614 0
M  V30 7 C 0.515898 -0.104031 -0.644518 0
M  V30 8 C 0.958625 1.17292 -0.286453 0
M  V30 9 N -0.7412 -0.311668 -1.25138 0
M  V30 10 N -1.89396 -0.403511 -0.491458 0
M  V30 11 C -3.15593 -0.622834 -0.977988 0
M  V30 12 C -4.06314 -0.649776 0.0294543 0
M  V30 13 C -3.3659 -0.441399 1.20276 0
M  V30 14 C -2.02261 -0.292365 0.839769 0
M  V30 15 H 2.76103 3.05167 1.60979 0
M  V30 16 H 2.70142 3.42457 -0.130718 0
M  V30 17 H 3.4688 -2.39172 1.38852 0
M  V30 18 H 3.86943 -2.45966 -0.349485 0
M  V30 19 H 0.283086 1.99106 -0.501127 0
M  V30 20 H -0.787111 -0.39022 -2.28111 0
M  V30 21 H -3.38243 -0.753626 -2.04611 0
M  V30 22 H -5.15752 -0.794777 -0.00212626 0
M  V30 23 H -3.77817 -0.405602 2.20533 0
M  V30 24 H -1.23828 -0.114435 1.58655 0
M  V30 END ATOM
M  V30 BEGIN BOND
M  V30 1 1 1 2
M  V30 2 2 2 3
M  V30 3 1 3 4
M  V30 4 1 4 5
M  V30 5 2 4 6
M  V30 6 1 6 7
M  V30 7 2 7 8
M  V30 8 1 7 9
M  V30 9 1 9 10
M  V30 10 1 10 11
M  V30 11 2 11 12
M  V30 12 1 12 13
M  V30 13 2 13 14
M  V30 14 1 8 2
M  V30 15 1 14 10
M  V30 16 1 1 15
M  V30 17 1 1 16
M  V30 18 1 5 17
M  V30 19 1 5 18
M  V30 20 1 8 19
M  V30 21 1 9 20
M  V30 22 1 11 21
M  V30 23 1 12 22
M  V30 24 1 13 23
M  V30 25 1 14 24
M  V30 END BOND
M  V30 END CTAB
M  END
