
     RDKit          3D

  0  0  0  0  0  0  0  0  0  0999 V3000
M  V30 BEGIN CTAB
M  V30 COUNTS 45 45 0 0 0
M  V30 BEGIN ATOM
M  V30 1 N 5.36261 0.513589 -1.07501 0
M  V30 2 C 4.3646 1.12056 -0.249644 0
M  V30 3 C 3.06164 0.303965 -0.246072 0
M  V30 4 C 2.11214 1.02916 0.637779 0
M  V30 5 N 0.826274 0.454839 0.795987 0
M  V30 6 C -0.230665 0.808446 -0.080855 0
M  V30 7 O -0.0308003 1.63977 -1.00833 0
M  V30 8 C -1.59198 0.248471 0.025744 0
M  V30 9 C -2.56053 0.854307 0.799592 0
M  V30 10 C -3.84388 0.341882 0.9108 0
M  V30 11 C -4.1078 -0.813184 0.20405 0
M  V30 12 C -3.1463 -1.42828 -0.57367 0
M  V30 13 C -1.87497 -0.905473 -0.673286 0
M  V30 14 O -0.906877 -1.53328 -1.46225 0
M  V30 15 C -1.19181 -2.71755 -2.18164 0
M  V30 16 S -5.06132 1.11766 1.8934 0
M  V30 17 O -4.43911 1.7638 3.09574 0
M  V30 18 O -6.00871 0.0636785 2.38496 0
M  V30 19 N -5.97108 2.2766 1.00835 0
M  V30 20 C 0.4921 -0.504232 1.82448 0
M  V30 21 C 2.6401 0.176593 -1.67142 0
M  V30 22 C 3.43801 -1.06704 0.257132 0
M  V30 23 H 5.4578 0.916295 -2.01789 0
M  V30 24 H 6.28704 0.39426 -0.592375 0
M  V30 25 H 4.66972 1.21456 0.819977 0
M  V30 26 H 4.13323 2.15987 -0.580349 0
M  V30 27 H 2.6234 1.14511 1.6367 0
M  V30 28 H 2.05553 2.08954 0.251014 0
M  V30 29 H -2.33592 1.75994 1.34728 0
M  V30 30 H -5.12065 -1.20838 0.298249 0
M  V30 31 H -3.3893 -2.33471 -1.11521 0
M  V30 32 H -1.67203 -3.471 -1.50305 0
M  V30 33 H -0.206773 -3.10838 -2.55162 0
M  V30 34 H -1.83819 -2.48632 -3.05382 0
M  V30 35 H -5.88398 2.17015 -0.0165915 0
M  V30 36 H -5.75155 3.23922 1.35741 0
M  V30 37 H -0.580777 -0.44801 2.09613 0
M  V30 38 H 0.644038 -1.51489 1.38823 0
M  V30 39 H 1.05997 -0.350353 2.75753 0
M  V30 40 H 1.77015 -0.468024 -1.84633 0
M  V30 41 H 2.56538 1.1695 -2.20251 0
M  V30 42 H 3.49542 -0.333638 -2.20694 0
M  V30 43 H 4.49355 -1.29949 -0.00183581 0
M  V30 44 H 3.36147 -1.11094 1.35867 0
M  V30 45 H 2.83082 -1.86858 -0.238527 0
M  V30 END ATOM
M  V30 BEGIN BOND
M  V30 1 1 1 2
M  V30 2 1 2 3
M  V30 3 1 3 4
M  V30 4 1 4 5
M  V30 5 1 5 6
M  V30 6 2 6 7
M  V30 7 1 6 8
M  V30 8 2 8 9
M  V30 9 1 9 10
M  V30 10 2 10 11
M  V30 11 1 11 12
M  V30 12 2 12 13
M  V30 13 1 13 14
M  V30 14 1 14 15
M  V30 15 1 10 16
M  V30 16 2 16 17
M  V30 17 2 16 18
M  V30 18 1 16 19
M  V30 19 1 5 20
M  V30 20 1 3 21
M  V30 21 1 3 22
M  V30 22 1 13 8
M  V30 23 1 1 23
M  V30 24 1 1 24
M  V30 25 1 2 25
M  V30 26 1 2 26
M  V30 27 1 4 27
M  V30 28 1 4 28
M  V30 29 1 9 29
M  V30 30 1 11 30
M  V30 31 1 12 31
M  V30 32 1 15 32
M  V30 33 1 15 33
M  V30 34 1 15 34
M  V30 35 1 19 35
M  V30 36 1 19 36
M  V30 37 1 20 37
M  V30 38 1 20 38
M  V30 39 1 20 39
M  V30 40 1 21 40
M  V30 41 1 21 41
M  V30 42 1 21 42
M  V30 43 1 22 43
M  V30 44 1 22 44
M  V30 45 1 22 45
M  V30 END BOND
M  V30 END CTAB
M  END
