
     RDKit          3D

  0  0  0  0  0  0  0  0  0  0999 V3000
M  V30 BEGIN CTAB
M  V30 COUNTS 25 26 0 0 0
M  V30 BEGIN ATOM
M  V30 1 N -3.61413 2.35242 -0.0256161 0
M  V30 2 C -2.89871 1.12007 0.00805827 0
M  V30 3 N -1.55434 1.06023 -0.0109505 0
M  V30 4 C -0.855464 -0.0889096 0.0199572 0
M  V30 5 N -1.51939 -1.23387 0.072197 0
M  V30 6 C -2.86702 -1.22939 0.0932803 0
M  V30 7 N -3.60057 -2.43442 0.148826 0
M  V30 8 N -3.55212 -0.0662249 0.0616429 0
M  V30 9 C 0.62267 -0.0522725 -0.00470254 0
M  V30 10 C 1.35464 -1.19109 0.0252244 0
M  V30 11 C 2.73799 -1.12197 0.000872106 0
M  V30 12 C 3.4279 0.0685717 -0.0533848 0
M  V30 13 C 2.65166 1.22181 -0.0831409 0
M  V30 14 C 1.26794 1.16105 -0.0590824 0
M  V30 15 N 4.8422 0.140479 -0.0783436 0 CHG=1
M  V30 16 O 5.479 1.34779 -0.132394 0 CHG=-1
M  V30 17 O 5.52705 -0.891377 -0.0515515 0
M  V30 18 H -3.57126 2.8884 -0.919645 0
M  V30 19 H -4.15898 2.74086 0.75706 0
M  V30 20 H -3.14149 -3.36133 0.372736 0
M  V30 21 H -4.61612 -2.46903 -0.0256415 0
M  V30 22 H 0.887155 -2.16544 0.0680717 0
M  V30 23 H 3.35049 -2.02459 0.0240893 0
M  V30 24 H 3.15544 2.18001 -0.125996 0
M  V30 25 H 0.645449 2.04823 -0.0815661 0
M  V30 END ATOM
M  V30 BEGIN BOND
M  V30 1 1 1 2
M  V30 2 2 2 3
M  V30 3 1 3 4
M  V30 4 2 4 5
M  V30 5 1 5 6
M  V30 6 1 6 7
M  V30 7 2 6 8
M  V30 8 1 4 9
M  V30 9 2 9 10
M  V30 10 1 10 11
M  V30 11 2 11 12
M  V30 12 1 12 13
M  V30 13 2 13 14
M  V30 14 1 12 15
M  V30 15 1 15 16
M  V30 16 2 15 17
M  V30 17 1 8 2
M  V30 18 1 14 9
M  V30 19 1 1 18
M  V30 20 1 1 19
M  V30 21 1 7 20
M  V30 22 1 7 21
M  V30 23 1 10 22
M  V30 24 1 11 23
M  V30 25 1 13 24
M  V30 26 1 14 25
M  V30 END BOND
M  V30 END CTAB
M  END
