
     RDKit          3D

  0  0  0  0  0  0  0  0  0  0999 V3000
M  V30 BEGIN CTAB
M  V30 COUNTS 28 28 0 0 0
M  V30 BEGIN ATOM
M  V30 1 N 3.42975 -0.424979 0.0803389 0
M  V30 2 C 2.17543 -0.0989739 -0.511372 0
M  V30 3 C 0.985941 -0.571224 0.33387 0
M  V30 4 C -0.243077 -0.162625 -0.406443 0
M  V30 5 C -0.3477 -0.771997 -1.79771 0
M  V30 6 C -0.515626 1.35077 -0.304067 0
M  V30 7 C -1.46993 0.311491 0.208399 0
M  V30 8 C -2.74794 0.210911 -0.620881 0
M  V30 9 C -1.72664 0.19881 1.69092 0
M  V30 10 N 1.0982 -0.04684 1.65411 0
M  V30 11 H 3.54028 -1.39561 0.373744 0
M  V30 12 H 3.82157 0.293909 0.709707 0
M  V30 13 H 2.13059 1.00906 -0.657684 0
M  V30 14 H 2.13146 -0.542709 -1.52615 0
M  V30 15 H 1.06354 -1.68359 0.36956 0
M  V30 16 H 0.38638 -1.5981 -1.94183 0
M  V30 17 H -0.134588 -0.0157911 -2.58412 0
M  V30 18 H -1.34501 -1.21717 -1.98126 0
M  V30 19 H -0.697141 1.84297 -1.26048 0
M  V30 20 H -0.00200738 1.92579 0.464203 0
M  V30 21 H -2.55478 0.401329 -1.69766 0
M  V30 22 H -3.40361 1.06892 -0.29272 0
M  V30 23 H -3.26283 -0.747982 -0.45005 0
M  V30 24 H -1.20371 0.975889 2.27564 0
M  V30 25 H -2.80388 0.280395 1.94511 0
M  V30 26 H -1.41901 -0.832452 1.98722 0
M  V30 27 H 1.67506 -0.701197 2.23406 0
M  V30 28 H 1.43929 0.941 1.70554 0
M  V30 END ATOM
M  V30 BEGIN BOND
M  V30 1 1 1 2
M  V30 2 1 2 3
M  V30 3 1 3 4
M  V30 4 1 4 5
M  V30 5 1 4 6
M  V30 6 1 6 7
M  V30 7 1 7 8
M  V30 8 1 7 9
M  V30 9 1 3 10
M  V30 10 1 7 4
M  V30 11 1 1 11
M  V30 12 1 1 12
M  V30 13 1 2 13
M  V30 14 1 2 14
M  V30 15 1 3 15
M  V30 16 1 5 16
M  V30 17 1 5 17
M  V30 18 1 5 18
M  V30 19 1 6 19
M  V30 20 1 6 20
M  V30 21 1 8 21
M  V30 22 1 8 22
M  V30 23 1 8 23
M  V30 24 1 9 24
M  V30 25 1 9 25
M  V30 26 1 9 26
M  V30 27 1 10 27
M  V30 28 1 10 28
M  V30 END BOND
M  V30 END CTAB
M  END
