
     RDKit          3D

  0  0  0  0  0  0  0  0  0  0999 V3000
M  V30 BEGIN CTAB
M  V30 COUNTS 117 118 0 0 0
M  V30 BEGIN ATOM
M  V30 1 C 8.01352 3.80395 0.91765 0
M  V30 2 S 8.56431 2.09484 1.1646 0
M  V30 3 C 7.32075 1.19824 2.07629 0
M  V30 4 C 7.63086 -0.216045 2.39409 0
M  V30 5 C 7.84732 -1.14664 1.26147 0 CFG=1
M  V30 6 C 6.6862 -1.2883 0.339399 0
M  V30 7 O 6.87381 -1.24671 -0.922014 0
M  V30 8 N 5.36918 -1.47172 0.794877 0
M  V30 9 C 4.2721 -1.61803 -0.130829 0 CFG=2
M  V30 10 C 3.2496 -0.583459 0.123511 0
M  V30 11 O 3.41904 0.259359 1.03905 0
M  V30 12 N 2.05603 -0.502339 -0.642125 0
M  V30 13 C 1.01114 0.489526 -0.442436 0 CFG=2
M  V30 14 C -0.290265 -0.148444 -0.206967 0
M  V30 15 O -0.277784 -1.43718 -0.211813 0
M  V30 16 N -1.53819 0.422781 0.0206712 0
M  V30 17 C -2.74752 -0.351792 0.236542 0 CFG=2
M  V30 18 C -3.52192 -0.653322 -0.981644 0
M  V30 19 O -3.4848 0.0496147 -2.01647 0
M  V30 20 N -4.34706 -1.83415 -0.973182 0
M  V30 21 C -5.12506 -2.33414 -2.03722 0
M  V30 22 C -6.22639 -1.52457 -2.51162 0
M  V30 23 O -6.88426 -1.9781 -3.5334 0
M  V30 24 N -6.65242 -0.300216 -1.9673 0
M  V30 25 C -7.79398 0.362691 -2.60474 0 CFG=2
M  V30 26 C -7.50758 1.77409 -2.9246 0
M  V30 27 O -6.37806 2.28862 -2.63172 0
M  V30 28 O -8.43217 2.57499 -3.54082 0
M  V30 29 C -9.07331 0.14017 -1.87824 0
M  V30 30 C -9.15017 0.608205 -0.498103 0
M  V30 31 C -9.71625 1.84912 -0.154761 0
M  V30 32 N -9.596 1.94815 1.16923 0
M  V30 33 C -8.99682 0.86654 1.70075 0
M  V30 34 C -8.71192 0.0160134 0.662447 0
M  V30 35 C -8.09795 -1.18223 0.971284 0
M  V30 36 C -7.76813 -1.53566 2.27566 0
M  V30 37 C -8.05784 -0.675442 3.29692 0
M  V30 38 C -8.67033 0.519838 3.00425 0
M  V30 39 C -3.44472 -0.00435815 1.47314 0
M  V30 40 C -3.8611 1.3901 1.71573 0
M  V30 41 C -4.76821 2.04063 0.746413 0
M  V30 42 N -5.02957 3.40602 1.2074 0
M  V30 43 C -5.82058 4.30756 0.456762 0
M  V30 44 N -7.05174 4.56472 0.71661 0
M  V30 45 N -5.22594 4.98479 -0.660747 0
M  V30 46 C 0.933852 1.36139 -1.68327 0
M  V30 47 C 0.584112 0.584232 -2.92813 0
M  V30 48 C 0.0624319 2.55025 -1.56685 0
M  V30 49 C 3.68393 -3.01607 -0.0322419 0
M  V30 50 C 4.79617 -4.00322 -0.381069 0
M  V30 51 C 4.32564 -5.38762 -0.31462 0
M  V30 52 O 3.11623 -5.62245 0.00293776 0
M  V30 53 O 5.18322 -6.43797 -0.592868 0
M  V30 54 N 9.04424 -0.988962 0.507036 0
M  V30 55 C 10.0745 -1.98923 0.492513 0
M  V30 56 O 9.86861 -3.01936 1.18692 0
M  V30 57 C 11.3236 -1.87735 -0.270789 0 CFG=2
M  V30 58 C 12.4861 -2.07844 0.694316 0
M  V30 59 O 12.5271 -1.02163 1.59309 0
M  V30 60 N 11.4676 -0.649631 -1.0057 0
M  V30 61 H 8.88172 4.49871 1.08518 0
M  V30 62 H 7.24637 4.10234 1.67151 0
M  V30 63 H 7.58437 3.98245 -0.0664996 0
M  V30 64 H 6.35124 1.32493 1.54447 0
M  V30 65 H 7.17404 1.73146 3.06031 0
M  V30 66 H 6.74739 -0.61444 2.97769 0
M  V30 67 H 8.48314 -0.336834 3.09879 0
M  V30 68 H 7.92209 -2.18381 1.74185 0
M  V30 69 H 5.22998 -1.49669 1.83804 0
M  V30 70 H 4.61101 -1.49972 -1.18815 0
M  V30 71 H 1.94271 -1.22682 -1.408 0
M  V30 72 H 1.31848 1.12799 0.401865 0
M  V30 73 H -1.64603 1.45552 0.0564208 0
M  V30 74 H -2.2895 -1.41315 0.462149 0
M  V30 75 H -4.35763 -2.37094 -0.0568563 0
M  V30 76 H -4.46651 -2.60457 -2.93398 0
M  V30 77 H -5.55184 -3.37033 -1.78046 0
M  V30 78 H -6.23317 0.165321 -1.15962 0
M  V30 79 H -7.95273 -0.137978 -3.61901 0
M  V30 80 H -9.28933 2.85608 -3.09119 0
M  V30 81 H -9.26717 -0.971435 -1.90303 0
M  V30 82 H -9.93275 0.57688 -2.46246 0
M  V30 83 H -10.1571 2.56063 -0.857447 0
M  V30 84 H -9.9259 2.76779 1.74063 0
M  V30 85 H -7.88656 -1.86728 0.164763 0
M  V30 86 H -7.28813 -2.48554 2.45767 0
M  V30 87 H -7.80164 -0.940131 4.33485 0
M  V30 88 H -8.91344 1.22014 3.79312 0
M  V30 89 H -4.35097 -0.652939 1.61995 0
M  V30 90 H -2.77795 -0.292743 2.34704 0
M  V30 91 H -2.98557 2.06016 2.00196 0
M  V30 92 H -4.4353 1.3684 2.70025 0
M  V30 93 H -4.37342 2.1533 -0.271625 0
M  V30 94 H -5.75323 1.51963 0.764488 0
M  V30 95 H -4.62866 3.73862 2.11601 0
M  V30 96 H -7.60702 5.23329 0.144602 0
M  V30 97 H -5.67636 5.77321 -1.14567 0
M  V30 98 H -4.28794 4.67597 -1.01348 0
M  V30 99 H 1.99249 1.73333 -1.8174 0
M  V30 100 H 0.360626 -0.454973 -2.59542 0
M  V30 101 H -0.293034 1.03524 -3.44629 0
M  V30 102 H 1.46736 0.514263 -3.57634 0
M  V30 103 H -0.950212 2.39915 -2.00933 0
M  V30 104 H 0.0482296 3.01339 -0.560902 0
M  V30 105 H 0.512843 3.35377 -2.22699 0
M  V30 106 H 2.92284 -3.10637 -0.826064 0
M  V30 107 H 3.22153 -3.21563 0.933867 0
M  V30 108 H 5.66839 -3.88073 0.292185 0
M  V30 109 H 5.13285 -3.74337 -1.40253 0
M  V30 110 H 6.01558 -6.52862 0.00496797 0
M  V30 111 H 9.24422 -0.15435 -0.077816 0
M  V30 112 H 11.348 -2.73275 -1.00047 0
M  V30 113 H 12.3983 -3.03872 1.23434 0
M  V30 114 H 13.4365 -2.12309 0.0929949 0
M  V30 115 H 12.5507 -1.38524 2.52846 0
M  V30 116 H 12.4681 -0.599952 -1.31639 0
M  V30 117 H 11.2547 0.15553 -0.386308 0
M  V30 END ATOM
M  V30 BEGIN BOND
M  V30 1 1 1 2
M  V30 2 1 2 3
M  V30 3 1 3 4
M  V30 4 1 4 5
M  V30 5 1 5 6
M  V30 6 2 6 7
M  V30 7 1 6 8
M  V30 8 1 8 9
M  V30 9 1 9 10
M  V30 10 2 10 11
M  V30 11 1 10 12
M  V30 12 1 12 13
M  V30 13 1 13 14
M  V30 14 2 14 15
M  V30 15 1 14 16
M  V30 16 1 16 17
M  V30 17 1 17 18
M  V30 18 2 18 19
M  V30 19 1 18 20
M  V30 20 1 20 21
M  V30 21 1 21 22
M  V30 22 2 22 23
M  V30 23 1 22 24
M  V30 24 1 24 25
M  V30 25 1 25 26
M  V30 26 2 26 27
M  V30 27 1 26 28
M  V30 28 1 25 29
M  V30 29 1 29 30
M  V30 30 2 30 31
M  V30 31 1 31 32
M  V30 32 1 32 33
M  V30 33 2 33 34
M  V30 34 1 34 35
M  V30 35 2 35 36
M  V30 36 1 36 37
M  V30 37 2 37 38
M  V30 38 1 17 39
M  V30 39 1 39 40
M  V30 40 1 40 41
M  V30 41 1 41 42
M  V30 42 1 42 43
M  V30 43 2 43 44 CFG=2
M  V30 44 1 43 45
M  V30 45 1 13 46
M  V30 46 1 46 47
M  V30 47 1 46 48
M  V30 48 1 9 49
M  V30 49 1 49 50
M  V30 50 1 50 51
M  V30 51 2 51 52
M  V30 52 1 51 53
M  V30 53 1 5 54
M  V30 54 1 54 55
M  V30 55 2 55 56
M  V30 56 1 55 57
M  V30 57 1 57 58
M  V30 58 1 58 59
M  V30 59 1 57 60
M  V30 60 1 34 30
M  V30 61 1 38 33
M  V30 62 1 1 61
M  V30 63 1 1 62
M  V30 64 1 1 63
M  V30 65 1 3 64
M  V30 66 1 3 65
M  V30 67 1 4 66
M  V30 68 1 4 67
M  V30 69 1 5 68 CFG=1
M  V30 70 1 8 69
M  V30 71 1 9 70 CFG=3
M  V30 72 1 12 71
M  V30 73 1 13 72 CFG=1
M  V30 74 1 16 73
M  V30 75 1 17 74 CFG=1
M  V30 76 1 20 75
M  V30 77 1 21 76
M  V30 78 1 21 77
M  V30 79 1 24 78
M  V30 80 1 25 79 CFG=3
M  V30 81 1 28 80
M  V30 82 1 29 81
M  V30 83 1 29 82
M  V30 84 1 31 83
M  V30 85 1 32 84
M  V30 86 1 35 85
M  V30 87 1 36 86
M  V30 88 1 37 87
M  V30 89 1 38 88
M  V30 90 1 39 89
M  V30 91 1 39 90
M  V30 92 1 40 91
M  V30 93 1 40 92
M  V30 94 1 41 93
M  V30 95 1 41 94
M  V30 96 1 42 95
M  V30 97 1 44 96
M  V30 98 1 45 97
M  V30 99 1 45 98
M  V30 100 1 46 99
M  V30 101 1 47 100
M  V30 102 1 47 101
M  V30 103 1 47 102
M  V30 104 1 48 103
M  V30 105 1 48 104
M  V30 106 1 48 105
M  V30 107 1 49 106
M  V30 108 1 49 107
M  V30 109 1 50 108
M  V30 110 1 50 109
M  V30 111 1 53 110
M  V30 112 1 54 111
M  V30 113 1 57 112 CFG=3
M  V30 114 1 58 113
M  V30 115 1 58 114
M  V30 116 1 59 115
M  V30 117 1 60 116
M  V30 118 1 60 117
M  V30 END BOND
M  V30 END CTAB
M  END
