
     RDKit          3D

  0  0  0  0  0  0  0  0  0  0999 V3000
M  V30 BEGIN CTAB
M  V30 COUNTS 42 43 0 0 0
M  V30 BEGIN ATOM
M  V30 1 C 4.53903 1.75331 -0.302965 0
M  V30 2 C 4.42762 0.245921 -0.233156 0
M  V30 3 C 3.37087 -0.163146 0.761834 0 CFG=1
M  V30 4 C 2.03323 0.337907 0.449313 0
M  V30 5 O 1.91865 1.59091 0.244606 0
M  V30 6 N 0.865177 -0.443993 0.355726 0
M  V30 7 C -0.414595 0.103175 0.0467347 0
M  V30 8 C -1.01053 -0.398992 -1.23873 0
M  V30 9 C -1.22593 -1.86748 -1.10367 0
M  V30 10 C -2.19849 -2.17814 -0.0144163 0
M  V30 11 C -2.03134 -1.42093 1.23591 0
M  V30 12 C -1.43198 -0.064959 1.13315 0
M  V30 13 C -2.49552 0.994831 0.930702 0
M  V30 14 C -2.52916 1.45988 -0.49585 0
M  V30 15 C -2.27799 0.370623 -1.49377 0
M  V30 16 N -3.8945 1.9502 -0.74313 0
M  V30 17 N 3.32811 -1.58971 0.963492 0
M  V30 18 H 5.58627 2.06442 -0.565463 0
M  V30 19 H 3.90619 2.12547 -1.13396 0
M  V30 20 H 4.27559 2.21355 0.66104 0
M  V30 21 H 4.28179 -0.198624 -1.23147 0
M  V30 22 H 5.40065 -0.133077 0.152205 0
M  V30 23 H 3.68101 0.283994 1.74588 0
M  V30 24 H 0.950088 -1.47052 0.522052 0
M  V30 25 H -0.283109 1.21773 -0.0916363 0
M  V30 26 H -0.274811 -0.24311 -2.07277 0
M  V30 27 H -0.25757 -2.34249 -0.86941 0
M  V30 28 H -1.65311 -2.29631 -2.05283 0
M  V30 29 H -3.23124 -2.08378 -0.449937 0
M  V30 30 H -2.09762 -3.2739 0.2136 0
M  V30 31 H -1.46228 -2.01953 2.00519 0
M  V30 32 H -3.05075 -1.29196 1.70526 0
M  V30 33 H -0.92255 0.187439 2.09807 0
M  V30 34 H -3.50111 0.612875 1.25851 0
M  V30 35 H -2.27816 1.90642 1.55809 0
M  V30 36 H -1.87341 2.35891 -0.665943 0
M  V30 37 H -2.20647 0.842183 -2.49281 0
M  V30 38 H -3.17719 -0.275644 -1.5193 0
M  V30 39 H -4.43062 2.0607 0.133454 0
M  V30 40 H -3.9069 2.83837 -1.25534 0
M  V30 41 H 2.90773 -2.00582 0.0999393 0
M  V30 42 H 2.64491 -1.75673 1.7518 0
M  V30 END ATOM
M  V30 BEGIN BOND
M  V30 1 1 1 2
M  V30 2 1 2 3
M  V30 3 1 3 4
M  V30 4 2 4 5
M  V30 5 1 4 6
M  V30 6 1 6 7
M  V30 7 1 7 8
M  V30 8 1 8 9
M  V30 9 1 9 10
M  V30 10 1 10 11
M  V30 11 1 11 12
M  V30 12 1 12 13
M  V30 13 1 13 14
M  V30 14 1 14 15
M  V30 15 1 14 16
M  V30 16 1 3 17
M  V30 17 1 12 7
M  V30 18 1 15 8
M  V30 19 1 1 18
M  V30 20 1 1 19
M  V30 21 1 1 20
M  V30 22 1 2 21
M  V30 23 1 2 22
M  V30 24 1 3 23 CFG=1
M  V30 25 1 6 24
M  V30 26 1 7 25
M  V30 27 1 8 26
M  V30 28 1 9 27
M  V30 29 1 9 28
M  V30 30 1 10 29
M  V30 31 1 10 30
M  V30 32 1 11 31
M  V30 33 1 11 32
M  V30 34 1 12 33
M  V30 35 1 13 34
M  V30 36 1 13 35
M  V30 37 1 14 36
M  V30 38 1 15 37
M  V30 39 1 15 38
M  V30 40 1 16 39
M  V30 41 1 16 40
M  V30 42 1 17 41
M  V30 43 1 17 42
M  V30 END BOND
M  V30 END CTAB
M  END
