
     RDKit          3D

  0  0  0  0  0  0  0  0  0  0999 V3000
M  V30 BEGIN CTAB
M  V30 COUNTS 57 60 0 0 0
M  V30 BEGIN ATOM
M  V30 1 C -1.81491 -3.72916 -2.58001 0
M  V30 2 C -2.70113 -2.57342 -2.2135 0
M  V30 3 N -1.98463 -1.47837 -1.61238 0
M  V30 4 C -2.97893 -0.437194 -1.31741 0
M  V30 5 C -2.30757 0.827066 -0.836701 0
M  V30 6 C -1.32255 0.566248 0.272332 0
M  V30 7 C -0.43567 -0.633218 0.00151311 0
M  V30 8 C -1.34658 -1.81079 -0.379824 0
M  V30 9 C 0.258637 -1.04348 1.26727 0
M  V30 10 C 1.48864 -0.201323 1.54184 0
M  V30 11 N 2.38843 -0.235325 0.41166 0
M  V30 12 C 1.92125 -0.513338 -0.912043 0
M  V30 13 C 0.462941 -0.32269 -1.14442 0
M  V30 14 C 3.76209 0.0129735 0.628396 0
M  V30 15 C 4.71535 -0.0406371 -0.366733 0
M  V30 16 C 6.01776 0.224752 -0.021645 0
M  V30 17 N 7.01158 0.177172 -1.02011 0
M  V30 18 N 6.38248 0.529542 1.23549 0
M  V30 19 C 5.45165 0.581656 2.20651 0
M  V30 20 N 4.19503 0.327088 1.88119 0
M  V30 21 N 5.90189 0.907137 3.50707 0
M  V30 22 C -3.3314 1.74805 -0.333453 0
M  V30 23 C -4.16184 1.43009 0.743841 0
M  V30 24 C -5.09115 2.33368 1.1583 0
M  V30 25 C -5.25408 3.56438 0.557508 0
M  V30 26 C -4.44269 3.88655 -0.502204 0
M  V30 27 C -3.50297 2.97774 -0.924461 0
M  V30 28 H -2.48706 -4.5252 -2.99486 0
M  V30 29 H -1.31758 -4.18559 -1.70196 0
M  V30 30 H -1.11593 -3.48352 -3.40517 0
M  V30 31 H -3.11754 -2.17893 -3.18521 0
M  V30 32 H -3.54828 -2.92238 -1.60744 0
M  V30 33 H -3.50908 -0.209361 -2.26589 0
M  V30 34 H -3.74719 -0.812019 -0.604726 0
M  V30 35 H -1.77767 1.27859 -1.67318 0
M  V30 36 H -1.78144 0.463794 1.26317 0
M  V30 37 H -0.646607 1.45616 0.312739 0
M  V30 38 H -2.07412 -1.8882 0.463444 0
M  V30 39 H -0.678074 -2.68965 -0.441028 0
M  V30 40 H 0.541113 -2.10178 1.20721 0
M  V30 41 H -0.434021 -0.922931 2.10071 0
M  V30 42 H 1.96529 -0.657656 2.45549 0
M  V30 43 H 1.16423 0.797465 1.8293 0
M  V30 44 H 2.45172 0.198595 -1.60021 0
M  V30 45 H 2.2847 -1.52115 -1.21431 0
M  V30 46 H 0.269144 0.716652 -1.53348 0
M  V30 47 H 0.202463 -0.974625 -2.03253 0
M  V30 48 H 4.39864 -0.28821 -1.3659 0
M  V30 49 H 7.34473 -0.70687 -1.443 0
M  V30 50 H 7.42603 1.07767 -1.34297 0
M  V30 51 H 5.4109 1.64611 4.03882 0
M  V30 52 H 6.71237 0.405214 3.90844 0
M  V30 53 H -4.01768 0.46774 1.19675 0
M  V30 54 H -5.73332 2.09495 1.98654 0
M  V30 55 H -6.01776 4.2524 0.932635 0
M  V30 56 H -4.56228 4.84113 -0.975129 0
M  V30 57 H -2.88732 3.29645 -1.77516 0
M  V30 END ATOM
M  V30 BEGIN BOND
M  V30 1 1 1 2
M  V30 2 1 2 3
M  V30 3 1 3 4
M  V30 4 1 4 5
M  V30 5 1 5 6
M  V30 6 1 6 7
M  V30 7 1 7 8
M  V30 8 1 7 9
M  V30 9 1 9 10
M  V30 10 1 10 11
M  V30 11 1 11 12
M  V30 12 1 12 13
M  V30 13 1 11 14
M  V30 14 2 14 15
M  V30 15 1 15 16
M  V30 16 1 16 17
M  V30 17 2 16 18
M  V30 18 1 18 19
M  V30 19 2 19 20
M  V30 20 1 19 21
M  V30 21 1 5 22
M  V30 22 2 22 23
M  V30 23 1 23 24
M  V30 24 2 24 25
M  V30 25 1 25 26
M  V30 26 2 26 27
M  V30 27 1 8 3
M  V30 28 1 20 14
M  V30 29 1 27 22
M  V30 30 1 13 7
M  V30 31 1 1 28
M  V30 32 1 1 29
M  V30 33 1 1 30
M  V30 34 1 2 31
M  V30 35 1 2 32
M  V30 36 1 4 33
M  V30 37 1 4 34
M  V30 38 1 5 35
M  V30 39 1 6 36
M  V30 40 1 6 37
M  V30 41 1 8 38
M  V30 42 1 8 39
M  V30 43 1 9 40
M  V30 44 1 9 41
M  V30 45 1 10 42
M  V30 46 1 10 43
M  V30 47 1 12 44
M  V30 48 1 12 45
M  V30 49 1 13 46
M  V30 50 1 13 47
M  V30 51 1 15 48
M  V30 52 1 17 49
M  V30 53 1 17 50
M  V30 54 1 21 51
M  V30 55 1 21 52
M  V30 56 1 23 53
M  V30 57 1 24 54
M  V30 58 1 25 55
M  V30 59 1 26 56
M  V30 60 1 27 57
M  V30 END BOND
M  V30 END CTAB
M  END
