
     RDKit          3D

  0  0  0  0  0  0  0  0  0  0999 V3000
M  V30 BEGIN CTAB
M  V30 COUNTS 23 24 0 0 0
M  V30 BEGIN ATOM
M  V30 1 N 2.69908 -2.33621 -1.42238 0
M  V30 2 C 2.14063 -1.20368 -0.755323 0
M  V30 3 N 1.03846 -0.582001 -1.20824 0
M  V30 4 C 0.520152 0.480968 -0.576126 0
M  V30 5 C -0.707714 1.16982 -1.08479 0
M  V30 6 N -1.90655 0.594351 -0.518139 0
M  V30 7 C -2.50866 0.9827 0.615969 0
M  V30 8 C -3.6303 0.168768 0.800581 0
M  V30 9 C -3.65585 -0.696859 -0.257573 0
M  V30 10 N -2.60046 -0.406263 -1.02733 0
M  V30 11 N 1.13771 0.912775 0.533183 0
M  V30 12 C 2.23687 0.300914 0.993762 0
M  V30 13 N 2.75857 -0.765124 0.361785 0
M  V30 14 N 2.81111 0.842324 2.17868 0
M  V30 15 H 3.71843 -2.3094 -1.63525 0
M  V30 16 H 2.15501 -3.17287 -1.70333 0
M  V30 17 H -0.620645 2.26551 -0.827975 0
M  V30 18 H -0.713771 1.13234 -2.1975 0
M  V30 19 H -2.15302 1.78135 1.23538 0
M  V30 20 H -4.2822 0.284584 1.6464 0
M  V30 21 H -4.42668 -1.47141 -0.400584 0
M  V30 22 H 3.53228 1.56558 2.16631 0
M  V30 23 H 2.45757 0.46184 3.08249 0
M  V30 END ATOM
M  V30 BEGIN BOND
M  V30 1 1 1 2
M  V30 2 2 2 3
M  V30 3 1 3 4
M  V30 4 1 4 5
M  V30 5 1 5 6
M  V30 6 1 6 7
M  V30 7 2 7 8
M  V30 8 1 8 9
M  V30 9 2 9 10
M  V30 10 2 4 11
M  V30 11 1 11 12
M  V30 12 2 12 13
M  V30 13 1 12 14
M  V30 14 1 13 2
M  V30 15 1 10 6
M  V30 16 1 1 15
M  V30 17 1 1 16
M  V30 18 1 5 17
M  V30 19 1 5 18
M  V30 20 1 7 19
M  V30 21 1 8 20
M  V30 22 1 9 21
M  V30 23 1 14 22
M  V30 24 1 14 23
M  V30 END BOND
M  V30 END CTAB
M  END
