
     RDKit          3D

  0  0  0  0  0  0  0  0  0  0999 V3000
M  V30 BEGIN CTAB
M  V30 COUNTS 39 42 0 0 0
M  V30 BEGIN ATOM
M  V30 1 N -0.0503131 -0.395662 3.36002 0
M  V30 2 C -0.897827 -0.134085 2.64019 0
M  V30 3 C -1.9755 0.218587 1.73177 0
M  V30 4 C -2.78076 1.17506 2.07137 0
M  V30 5 N -2.63227 1.89189 3.32154 0
M  V30 6 O -3.82371 1.55351 1.2475 0
M  V30 7 C -4.04444 0.934168 0.045434 0
M  V30 8 C -3.19149 -0.0960127 -0.34025 0
M  V30 9 C -2.06586 -0.546626 0.483398 0
M  V30 10 C -0.75598 -0.325079 -0.244332 0
M  V30 11 S 0.141198 -1.41735 -1.18664 0
M  V30 12 C 1.43979 -0.399983 -1.62553 0
M  V30 13 C 1.13407 0.776331 -1.01692 0
M  V30 14 C -0.0138945 0.818669 -0.294244 0
M  V30 15 C 2.03071 1.99407 -1.10701 0
M  V30 16 S 2.96864 2.15233 0.377898 0
M  V30 17 C 4.20344 0.89203 0.576856 0
M  V30 18 N 5.05298 0.75702 1.6294 0
M  V30 19 N 5.88223 -0.174894 1.62334 0
M  V30 20 C 5.95101 -1.03204 0.615943 0
M  V30 21 S 4.71267 -0.423585 -0.386338 0
M  V30 22 N 6.83441 -2.1555 0.438315 0
M  V30 23 C -3.68084 -0.490475 -1.56553 0
M  V30 24 C -3.19306 -1.54551 -2.46464 0
M  V30 25 N -4.76965 0.270948 -1.88618 0
M  V30 26 N -4.95494 1.10813 -0.902126 0
M  V30 27 H -2.70646 1.41093 4.22075 0
M  V30 28 H -2.4501 2.89866 3.28 0
M  V30 29 H -2.11844 -1.64227 0.710557 0
M  V30 30 H 2.3029 -0.648864 -2.26877 0
M  V30 31 H -0.385892 1.71798 0.254428 0
M  V30 32 H 2.70334 1.89215 -1.9929 0
M  V30 33 H 1.39187 2.89994 -1.25021 0
M  V30 34 H 6.82164 -2.88245 1.1784 0
M  V30 35 H 7.46158 -2.25686 -0.378662 0
M  V30 36 H -4.02097 -1.95818 -3.09594 0
M  V30 37 H -2.79951 -2.42349 -1.90987 0
M  V30 38 H -2.36999 -1.20132 -3.1369 0
M  V30 39 H -5.35055 0.202172 -2.75413 0
M  V30 END ATOM
M  V30 BEGIN BOND
M  V30 1 3 1 2
M  V30 2 1 2 3
M  V30 3 2 3 4
M  V30 4 1 4 5
M  V30 5 1 4 6
M  V30 6 1 6 7
M  V30 7 1 7 8
M  V30 8 1 8 9
M  V30 9 1 9 10
M  V30 10 1 10 11
M  V30 11 1 11 12
M  V30 12 2 12 13
M  V30 13 1 13 14
M  V30 14 1 13 15
M  V30 15 1 15 16
M  V30 16 1 16 17
M  V30 17 2 17 18
M  V30 18 1 18 19
M  V30 19 2 19 20
M  V30 20 1 20 21
M  V30 21 1 20 22
M  V30 22 2 8 23
M  V30 23 1 23 24
M  V30 24 1 23 25
M  V30 25 1 25 26
M  V30 26 1 9 3
M  V30 27 2 14 10
M  V30 28 1 21 17
M  V30 29 2 26 7
M  V30 30 1 5 27
M  V30 31 1 5 28
M  V30 32 1 9 29
M  V30 33 1 12 30
M  V30 34 1 14 31
M  V30 35 1 15 32
M  V30 36 1 15 33
M  V30 37 1 22 34
M  V30 38 1 22 35
M  V30 39 1 24 36
M  V30 40 1 24 37
M  V30 41 1 24 38
M  V30 42 1 25 39
M  V30 END BOND
M  V30 END CTAB
M  END
