
     RDKit          3D

  0  0  0  0  0  0  0  0  0  0999 V3000
M  V30 BEGIN CTAB
M  V30 COUNTS 40 41 0 0 0
M  V30 BEGIN ATOM
M  V30 1 N -6.07061 -1.1985 0.175274 0
M  V30 2 C -4.82597 -0.508842 0.433485 0
M  V30 3 C -4.09553 -0.316219 -0.88007 0
M  V30 4 C -2.82214 0.38797 -0.610222 0
M  V30 5 C -1.69519 -0.338863 -0.297669 0
M  V30 6 C -0.489105 0.290211 -0.0477133 0
M  V30 7 C -0.491853 1.66081 -0.130779 0
M  V30 8 O 0.679695 2.35705 0.10751 0
M  V30 9 C -1.60882 2.39776 -0.441629 0
M  V30 10 C -2.80971 1.75989 -0.689688 0
M  V30 11 C 0.714149 -0.468197 0.284336 0
M  V30 12 C 0.671124 -1.48283 1.24509 0
M  V30 13 O -0.531209 -1.72985 1.86332 0
M  V30 14 C 1.82786 -2.18009 1.52281 0
M  V30 15 C 3.01778 -1.89413 0.872517 0
M  V30 16 C 3.06438 -0.892058 -0.0776867 0
M  V30 17 C 4.28122 -0.547643 -0.801533 0
M  V30 18 C 5.14401 0.49509 -0.137216 0
M  V30 19 N 4.50387 1.75669 0.0636637 0
M  V30 20 C 1.89477 -0.184466 -0.360939 0
M  V30 21 H -6.77004 -0.84951 0.862565 0
M  V30 22 H -6.38767 -0.979575 -0.811435 0
M  V30 23 H -5.04803 0.4617 0.904786 0
M  V30 24 H -4.21934 -1.10941 1.14767 0
M  V30 25 H -3.94336 -1.32673 -1.33342 0
M  V30 26 H -4.67303 0.282725 -1.58714 0
M  V30 27 H -1.7584 -1.40955 -0.249593 0
M  V30 28 H 0.760046 3.3582 0.0665303 0
M  V30 29 H -1.56449 3.4831 -0.496627 0
M  V30 30 H -3.68282 2.35757 -0.933418 0
M  V30 31 H -0.718657 -2.41075 2.55874 0
M  V30 32 H 1.8075 -2.97553 2.27263 0
M  V30 33 H 3.92945 -2.46183 1.10823 0
M  V30 34 H 3.99879 -0.144873 -1.8139 0
M  V30 35 H 4.89074 -1.45191 -0.981632 0
M  V30 36 H 5.52692 0.0237331 0.808874 0
M  V30 37 H 6.0472 0.662455 -0.768384 0
M  V30 38 H 4.5217 1.95887 1.0987 0
M  V30 39 H 5.04755 2.56149 -0.363195 0
M  V30 40 H 1.87724 0.606029 -1.09704 0
M  V30 END ATOM
M  V30 BEGIN BOND
M  V30 1 1 1 2
M  V30 2 1 2 3
M  V30 3 1 3 4
M  V30 4 2 4 5
M  V30 5 1 5 6
M  V30 6 2 6 7
M  V30 7 1 7 8
M  V30 8 1 7 9
M  V30 9 2 9 10
M  V30 10 1 6 11
M  V30 11 2 11 12
M  V30 12 1 12 13
M  V30 13 1 12 14
M  V30 14 2 14 15
M  V30 15 1 15 16
M  V30 16 1 16 17
M  V30 17 1 17 18
M  V30 18 1 18 19
M  V30 19 2 16 20
M  V30 20 1 10 4
M  V30 21 1 20 11
M  V30 22 1 1 21
M  V30 23 1 1 22
M  V30 24 1 2 23
M  V30 25 1 2 24
M  V30 26 1 3 25
M  V30 27 1 3 26
M  V30 28 1 5 27
M  V30 29 1 8 28
M  V30 30 1 9 29
M  V30 31 1 10 30
M  V30 32 1 13 31
M  V30 33 1 14 32
M  V30 34 1 15 33
M  V30 35 1 17 34
M  V30 36 1 17 35
M  V30 37 1 18 36
M  V30 38 1 18 37
M  V30 39 1 19 38
M  V30 40 1 19 39
M  V30 41 1 20 40
M  V30 END BOND
M  V30 END CTAB
M  END
