
     RDKit          3D

  0  0  0  0  0  0  0  0  0  0999 V3000
M  V30 BEGIN CTAB
M  V30 COUNTS 39 40 0 0 0
M  V30 BEGIN ATOM
M  V30 1 C 3.71319 -1.57122 -0.175841 0
M  V30 2 C 3.83661 -0.0950141 0.0167039 0
M  V30 3 C 2.50729 0.634655 -0.0989264 0
M  V30 4 C 1.49662 0.200452 0.88719 0
M  V30 5 C 0.221747 -0.337943 0.335972 0
M  V30 6 N -0.230651 0.204157 -0.882312 0
M  V30 7 C 0.652661 1.06601 -1.5898 0
M  V30 8 C 2.0574 0.507148 -1.53531 0
M  V30 9 S -1.72248 1.04018 -0.660267 0
M  V30 10 O -2.16317 1.64758 -1.98639 0
M  V30 11 O -1.52256 2.23451 0.26357 0
M  V30 12 C -3.01465 0.0407752 -0.104362 0
M  V30 13 C -2.93048 -1.30484 0.140263 0
M  V30 14 C -4.04542 -1.99429 0.582231 0
M  V30 15 Cl -3.99087 -3.71397 0.909518 0
M  V30 16 C -5.26973 -1.35918 0.790551 0
M  V30 17 N -5.30326 -0.0388414 0.537014 0
M  V30 18 C -4.23767 0.643173 0.110062 0
M  V30 19 N -4.4278 2.05223 -0.118296 0
M  V30 20 N 4.53286 0.258144 1.23972 0
M  V30 21 H 2.66724 -1.93782 -0.225393 0
M  V30 22 H 4.18009 -1.90894 -1.14704 0
M  V30 23 H 4.24949 -2.16704 0.604458 0
M  V30 24 H 4.46551 0.309121 -0.8286 0
M  V30 25 H 2.76476 1.72541 0.0389602 0
M  V30 26 H 1.98318 -0.566302 1.55977 0
M  V30 27 H 1.25405 1.04996 1.55903 0
M  V30 28 H 0.361156 -1.43998 0.209387 0
M  V30 29 H -0.588069 -0.239312 1.11378 0
M  V30 30 H 0.340611 1.07576 -2.65977 0
M  V30 31 H 0.671065 2.06649 -1.13766 0
M  V30 32 H 2.69412 1.18396 -2.14938 0
M  V30 33 H 2.12233 -0.525645 -1.88032 0
M  V30 34 H -1.99082 -1.80982 -0.0182125 0
M  V30 35 H -6.14342 -1.86712 1.13047 0
M  V30 36 H -4.55771 2.72384 0.663322 0
M  V30 37 H -4.43903 2.43697 -1.10298 0
M  V30 38 H 4.24394 -0.347019 2.04079 0
M  V30 39 H 5.56187 0.12377 1.0388 0
M  V30 END ATOM
M  V30 BEGIN BOND
M  V30 1 1 1 2
M  V30 2 1 2 3
M  V30 3 1 3 4
M  V30 4 1 4 5
M  V30 5 1 5 6
M  V30 6 1 6 7
M  V30 7 1 7 8
M  V30 8 1 6 9
M  V30 9 2 9 10
M  V30 10 2 9 11
M  V30 11 1 9 12
M  V30 12 2 12 13
M  V30 13 1 13 14
M  V30 14 1 14 15
M  V30 15 2 14 16
M  V30 16 1 16 17
M  V30 17 2 17 18
M  V30 18 1 18 19
M  V30 19 1 2 20
M  V30 20 1 8 3
M  V30 21 1 18 12
M  V30 22 1 1 21
M  V30 23 1 1 22
M  V30 24 1 1 23
M  V30 25 1 2 24
M  V30 26 1 3 25
M  V30 27 1 4 26
M  V30 28 1 4 27
M  V30 29 1 5 28
M  V30 30 1 5 29
M  V30 31 1 7 30
M  V30 32 1 7 31
M  V30 33 1 8 32
M  V30 34 1 8 33
M  V30 35 1 13 34
M  V30 36 1 16 35
M  V30 37 1 19 36
M  V30 38 1 19 37
M  V30 39 1 20 38
M  V30 40 1 20 39
M  V30 END BOND
M  V30 END CTAB
M  END
