
     RDKit          3D

  0  0  0  0  0  0  0  0  0  0999 V3000
M  V30 BEGIN CTAB
M  V30 COUNTS 29 30 0 0 0
M  V30 BEGIN ATOM
M  V30 1 N -3.67979 0.525062 0.302574 0
M  V30 2 C -2.49635 0.631205 -0.517221 0
M  V30 3 C -1.24046 0.461271 0.262017 0
M  V30 4 C -1.167 -0.890892 0.942571 0
M  V30 5 C 0.0174287 -1.6021 0.34568 0
M  V30 6 C 1.28174 -0.931179 0.824165 0
M  V30 7 C 1.22642 0.454838 0.217225 0
M  V30 8 C 2.41731 0.689743 -0.650658 0
M  V30 9 N 3.67053 0.586219 0.0720873 0
M  V30 10 C -0.0315332 0.43722 -0.648803 0
M  V30 11 C -0.0378451 -1.02363 -1.08039 0
M  V30 12 H -3.4757 0.563638 1.32345 0
M  V30 13 H -4.44434 1.16046 -0.000691411 0
M  V30 14 H -2.44136 1.63536 -1.01984 0
M  V30 15 H -2.54797 -0.119191 -1.32851 0
M  V30 16 H -1.1855 1.29171 0.997597 0
M  V30 17 H -1.05626 -0.772732 2.0394 0
M  V30 18 H -2.09226 -1.45394 0.705168 0
M  V30 19 H 0.00408281 -2.67282 0.379971 0
M  V30 20 H 2.13704 -1.52325 0.432636 0
M  V30 21 H 1.24358 -0.902802 1.93141 0
M  V30 22 H 1.13171 1.19537 1.03703 0
M  V30 23 H 2.49104 -0.012242 -1.49977 0
M  V30 24 H 2.39737 1.72196 -1.09149 0
M  V30 25 H 4.43103 1.12027 -0.388891 0
M  V30 26 H 3.55713 0.827025 1.08325 0
M  V30 27 H -0.0357923 1.14818 -1.45191 0
M  V30 28 H 0.881698 -1.21646 -1.6257 0
M  V30 29 H -0.955926 -1.32829 -1.59234 0
M  V30 END ATOM
M  V30 BEGIN BOND
M  V30 1 1 1 2
M  V30 2 1 2 3
M  V30 3 1 3 4
M  V30 4 1 4 5
M  V30 5 1 5 6
M  V30 6 1 6 7
M  V30 7 1 7 8
M  V30 8 1 8 9
M  V30 9 1 7 10
M  V30 10 1 10 11
M  V30 11 1 10 3
M  V30 12 1 11 5
M  V30 13 1 1 12
M  V30 14 1 1 13
M  V30 15 1 2 14
M  V30 16 1 2 15
M  V30 17 1 3 16
M  V30 18 1 4 17
M  V30 19 1 4 18
M  V30 20 1 5 19
M  V30 21 1 6 20
M  V30 22 1 6 21
M  V30 23 1 7 22
M  V30 24 1 8 23
M  V30 25 1 8 24
M  V30 26 1 9 25
M  V30 27 1 9 26
M  V30 28 1 10 27
M  V30 29 1 11 28
M  V30 30 1 11 29
M  V30 END BOND
M  V30 END CTAB
M  END
