
     RDKit          3D

  0  0  0  0  0  0  0  0  0  0999 V3000
M  V30 BEGIN CTAB
M  V30 COUNTS 94 95 0 0 0
M  V30 BEGIN ATOM
M  V30 1 N -4.68653 4.36018 1.15039 0
M  V30 2 C -3.24281 4.44869 1.19947 0
M  V30 3 C -2.60462 3.86346 2.38885 0
M  V30 4 C -2.73694 2.43333 2.73229 0
M  V30 5 C -2.18452 1.38607 1.82442 0
M  V30 6 C -2.74319 1.15744 0.501558 0 CFG=1
M  V30 7 C -2.03798 0.0908772 -0.286075 0
M  V30 8 O -2.71572 -0.222002 -1.3612 0
M  V30 9 N -0.865291 -0.590705 -0.106645 0
M  V30 10 C -0.530182 -1.54277 -1.24934 0
M  V30 11 C 0.653383 -0.858655 -1.92772 0
M  V30 12 C 1.83203 -0.874464 -0.939048 0 CFG=1
M  V30 13 C 1.48108 -0.171204 0.300354 0 CFG=1
M  V30 14 C 0.150585 -0.671216 0.87343 0
M  V30 15 C 2.45932 -0.31919 1.41379 0
M  V30 16 C 3.82482 0.254977 1.14538 0
M  V30 17 O 3.8461 1.17699 0.289453 0
M  V30 18 N 4.95898 -0.204204 1.79586 0
M  V30 19 C 6.32324 0.0858921 1.84851 0 CFG=2
M  V30 20 C 6.90926 1.2473 1.14948 0
M  V30 21 O 6.26609 2.08992 0.537966 0
M  V30 22 O 8.28852 1.38465 1.19163 0
M  V30 23 C 7.24089 -1.07246 1.90701 0
M  V30 24 C 7.32642 -2.08295 0.854203 0
M  V30 25 C 7.77129 -1.74114 -0.504705 0
M  V30 26 N 6.94168 -0.864172 -1.25702 0
M  V30 27 C 7.34447 -0.321071 -2.51832 0
M  V30 28 N 7.51045 -1.06991 -3.52176 0
M  V30 29 N 7.55243 1.07479 -2.60639 0
M  V30 30 O 2.07866 -2.26107 -0.779223 0
M  V30 31 C 3.27676 -2.5705 -1.40456 0
M  V30 32 N -4.1608 0.816243 0.506033 0
M  V30 33 C -5.11001 1.0837 -0.493218 0
M  V30 34 O -4.80371 1.65791 -1.55718 0
M  V30 35 C -6.54195 0.702821 -0.342448 0 CFG=2
M  V30 36 C -6.82624 -0.63739 0.184787 0
M  V30 37 C -6.34927 -1.79649 -0.547979 0
M  V30 38 C -7.15556 -2.29249 -1.58701 0
M  V30 39 C -6.773 -3.40794 -2.29782 0
M  V30 40 C -5.61502 -4.08849 -2.04769 0
M  V30 41 C -4.81845 -3.60224 -1.02445 0
M  V30 42 C -5.19317 -2.48991 -0.310561 0
M  V30 43 N -7.30209 1.03962 -1.53559 0
M  V30 44 C -7.30841 2.47133 -1.80371 0
M  V30 45 H -5.08928 5.04334 1.79946 0
M  V30 46 H -5.06814 4.48494 0.21383 0
M  V30 47 H -2.74156 4.23228 0.255377 0
M  V30 48 H -3.07215 5.58623 1.30818 0
M  V30 49 H -1.47133 4.03951 2.22667 0
M  V30 50 H -2.75965 4.51986 3.31299 0
M  V30 51 H -2.2542 2.31292 3.76447 0
M  V30 52 H -3.81821 2.17995 2.98024 0
M  V30 53 H -1.10401 1.73985 1.6481 0
M  V30 54 H -2.02783 0.424638 2.40974 0
M  V30 55 H -2.6478 2.04264 -0.160096 0
M  V30 56 H -0.166604 -2.47938 -0.806105 0
M  V30 57 H -1.38147 -1.69231 -1.89083 0
M  V30 58 H 0.887116 -1.49004 -2.80912 0
M  V30 59 H 0.350888 0.143897 -2.22014 0
M  V30 60 H 2.70014 -0.40105 -1.46875 0
M  V30 61 H 1.27474 0.90317 0.0507856 0
M  V30 62 H 0.0494122 -0.192007 1.82726 0
M  V30 63 H 0.310059 -1.79321 1.12474 0
M  V30 64 H 2.06051 0.314889 2.26174 0
M  V30 65 H 2.49329 -1.33848 1.78298 0
M  V30 66 H 4.68272 -1.0629 2.47143 0
M  V30 67 H 6.41411 0.531763 2.96715 0
M  V30 68 H 8.80118 1.91663 0.505855 0
M  V30 69 H 8.2891 -0.625738 2.00622 0
M  V30 70 H 7.08816 -1.59281 2.89079 0
M  V30 71 H 8.0932 -2.85301 1.24051 0
M  V30 72 H 6.41016 -2.7366 0.772367 0
M  V30 73 H 7.8239 -2.70167 -1.13077 0
M  V30 74 H 8.85719 -1.41266 -0.5251 0
M  V30 75 H 5.99646 -0.603114 -0.950756 0
M  V30 76 H 7.34775 -2.11325 -3.41742 0
M  V30 77 H 8.48647 1.46937 -2.86294 0
M  V30 78 H 6.79911 1.78917 -2.42215 0
M  V30 79 H 4.08138 -1.99057 -0.929253 0
M  V30 80 H 3.53578 -3.64418 -1.19882 0
M  V30 81 H 3.23622 -2.39986 -2.50312 0
M  V30 82 H -4.4915 0.304821 1.37711 0
M  V30 83 H -6.92882 1.44707 0.432193 0
M  V30 84 H -6.52234 -0.693109 1.27425 0
M  V30 85 H -7.95513 -0.755166 0.256764 0
M  V30 86 H -8.0876 -1.82319 -1.8573 0
M  V30 87 H -7.4022 -3.78626 -3.10199 0
M  V30 88 H -5.33351 -4.96856 -2.61681 0
M  V30 89 H -3.89986 -4.14368 -0.828144 0
M  V30 90 H -4.51396 -2.18042 0.477115 0
M  V30 91 H -7.04081 0.482189 -2.35218 0
M  V30 92 H -8.3714 2.78557 -1.85231 0
M  V30 93 H -6.79246 3.03119 -0.987794 0
M  V30 94 H -6.85818 2.67385 -2.81374 0
M  V30 END ATOM
M  V30 BEGIN BOND
M  V30 1 1 1 2
M  V30 2 1 2 3
M  V30 3 1 3 4
M  V30 4 1 4 5
M  V30 5 1 5 6
M  V30 6 1 6 7
M  V30 7 2 7 8
M  V30 8 1 7 9
M  V30 9 1 9 10
M  V30 10 1 10 11
M  V30 11 1 11 12
M  V30 12 1 12 13
M  V30 13 1 13 14
M  V30 14 1 13 15
M  V30 15 1 15 16
M  V30 16 2 16 17
M  V30 17 1 16 18
M  V30 18 1 18 19
M  V30 19 1 19 20
M  V30 20 2 20 21
M  V30 21 1 20 22
M  V30 22 1 19 23
M  V30 23 1 23 24
M  V30 24 1 24 25
M  V30 25 1 25 26
M  V30 26 1 26 27
M  V30 27 2 27 28 CFG=2
M  V30 28 1 27 29
M  V30 29 1 12 30
M  V30 30 1 30 31
M  V30 31 1 6 32
M  V30 32 1 32 33
M  V30 33 2 33 34
M  V30 34 1 33 35
M  V30 35 1 35 36
M  V30 36 1 36 37
M  V30 37 2 37 38
M  V30 38 1 38 39
M  V30 39 2 39 40
M  V30 40 1 40 41
M  V30 41 2 41 42
M  V30 42 1 35 43
M  V30 43 1 43 44
M  V30 44 1 14 9
M  V30 45 1 42 37
M  V30 46 1 1 45
M  V30 47 1 1 46
M  V30 48 1 2 47
M  V30 49 1 2 48
M  V30 50 1 3 49
M  V30 51 1 3 50
M  V30 52 1 4 51
M  V30 53 1 4 52
M  V30 54 1 5 53
M  V30 55 1 5 54
M  V30 56 1 6 55 CFG=3
M  V30 57 1 10 56
M  V30 58 1 10 57
M  V30 59 1 11 58
M  V30 60 1 11 59
M  V30 61 1 12 60 CFG=3
M  V30 62 1 13 61 CFG=3
M  V30 63 1 14 62
M  V30 64 1 14 63
M  V30 65 1 15 64
M  V30 66 1 15 65
M  V30 67 1 18 66
M  V30 68 1 19 67 CFG=1
M  V30 69 1 22 68
M  V30 70 1 23 69
M  V30 71 1 23 70
M  V30 72 1 24 71
M  V30 73 1 24 72
M  V30 74 1 25 73
M  V30 75 1 25 74
M  V30 76 1 26 75
M  V30 77 1 28 76
M  V30 78 1 29 77
M  V30 79 1 29 78
M  V30 80 1 31 79
M  V30 81 1 31 80
M  V30 82 1 31 81
M  V30 83 1 32 82
M  V30 84 1 35 83 CFG=1
M  V30 85 1 36 84
M  V30 86 1 36 85
M  V30 87 1 38 86
M  V30 88 1 39 87
M  V30 89 1 40 88
M  V30 90 1 41 89
M  V30 91 1 42 90
M  V30 92 1 43 91
M  V30 93 1 44 92
M  V30 94 1 44 93
M  V30 95 1 44 94
M  V30 END BOND
M  V30 END CTAB
M  END
