
     RDKit          3D

  0  0  0  0  0  0  0  0  0  0999 V3000
M  V30 BEGIN CTAB
M  V30 COUNTS 23 24 0 0 0
M  V30 BEGIN ATOM
M  V30 1 C -3.0039 0.992175 -0.529859 0
M  V30 2 C -2.02521 1.23765 0.582613 0
M  V30 3 C -0.822292 0.357207 0.509527 0
M  V30 4 C -1.02525 -0.948985 0.909474 0
M  V30 5 N -2.26791 -1.45945 1.36241 0
M  V30 6 N 0.062913 -1.7346 0.841289 0
M  V30 7 C 1.27112 -1.25532 0.405287 0
M  V30 8 N 1.47041 0.00872521 0.0172978 0
M  V30 9 C 0.380024 0.854072 0.0700057 0
M  V30 10 O 0.483792 2.07574 -0.283014 0
M  V30 11 N 2.63628 0.344961 -0.369826 0
M  V30 12 C 3.63005 -0.520115 -0.39253 0
M  V30 13 S 2.82769 -1.93725 0.190068 0
M  V30 14 N 4.99131 -0.344806 -0.786643 0
M  V30 15 H -4.03507 1.05933 -0.0768602 0
M  V30 16 H -2.96375 1.7372 -1.33836 0
M  V30 17 H -2.95013 -0.0496391 -0.932425 0
M  V30 18 H -2.49498 1.19176 1.60141 0
M  V30 19 H -1.66227 2.28051 0.478679 0
M  V30 20 H -3.06908 -0.849914 1.59788 0
M  V30 21 H -2.39941 -2.47601 1.46817 0
M  V30 22 H 5.74419 -0.413308 -0.087139 0
M  V30 23 H 5.22146 -0.149923 -1.77144 0
M  V30 END ATOM
M  V30 BEGIN BOND
M  V30 1 1 1 2
M  V30 2 1 2 3
M  V30 3 2 3 4
M  V30 4 1 4 5
M  V30 5 1 4 6
M  V30 6 2 6 7
M  V30 7 1 7 8
M  V30 8 1 8 9
M  V30 9 2 9 10
M  V30 10 1 8 11
M  V30 11 2 11 12
M  V30 12 1 12 13
M  V30 13 1 12 14
M  V30 14 1 9 3
M  V30 15 1 13 7
M  V30 16 1 1 15
M  V30 17 1 1 16
M  V30 18 1 1 17
M  V30 19 1 2 18
M  V30 20 1 2 19
M  V30 21 1 5 20
M  V30 22 1 5 21
M  V30 23 1 14 22
M  V30 24 1 14 23
M  V30 END BOND
M  V30 END CTAB
M  END
