
     RDKit          3D

  0  0  0  0  0  0  0  0  0  0999 V3000
M  V30 BEGIN CTAB
M  V30 COUNTS 38 39 0 0 0
M  V30 BEGIN ATOM
M  V30 1 O -1.60225 1.80796 0.926345 0
M  V30 2 C -2.03802 0.771666 0.314846 0
M  V30 3 C -3.49996 0.554623 0.411006 0
M  V30 4 C -4.09544 -0.664131 0.190341 0
M  V30 5 C -5.48584 -0.808524 0.286306 0
M  V30 6 C -6.31207 0.248466 0.602143 0
M  V30 7 C -5.69951 1.46388 0.82071 0
M  V30 8 C -4.33134 1.61907 0.729119 0
M  V30 9 N -7.72109 0.108383 0.700778 0 CHG=1
M  V30 10 O -8.39145 1.11534 0.990861 0
M  V30 11 O -8.36065 -1.08486 0.489697 0 CHG=-1
M  V30 12 N -1.26242 -0.129201 -0.406456 0
M  V30 13 C 0.134283 -0.120669 -0.627012 0
M  V30 14 C 0.703985 -1.14879 -1.38805 0
M  V30 15 C 2.05712 -1.19555 -1.63796 0
M  V30 16 C 2.92735 -0.243501 -1.15996 0
M  V30 17 C 2.39277 0.775733 -0.410407 0
M  V30 18 C 1.01357 0.824336 -0.155084 0
M  V30 19 S 4.6402 -0.345212 -1.50387 0
M  V30 20 O 5.27137 0.9942 -1.6296 0
M  V30 21 O 4.88944 -1.09677 -2.79282 0
M  V30 22 N 5.37496 -1.26267 -0.243371 0
M  V30 23 C 6.00268 -0.652808 0.692607 0
M  V30 24 N 6.09735 0.749606 0.701286 0
M  V30 25 N 6.5977 -1.42043 1.71587 0
M  V30 26 H -3.50183 -1.51852 -0.0527789 0
M  V30 27 H -5.93721 -1.77629 0.108911 0
M  V30 28 H -6.312 2.32002 1.07138 0
M  V30 29 H -3.84783 2.56979 0.899139 0
M  V30 30 H -1.79855 -0.934487 -0.859705 0
M  V30 31 H 0.0291913 -1.91893 -1.77933 0
M  V30 32 H 2.46108 -2.00455 -2.22962 0
M  V30 33 H 3.05411 1.53956 -0.0209386 0
M  V30 34 H 0.64317 1.64477 0.438256 0
M  V30 35 H 5.33918 1.36641 1.08015 0
M  V30 36 H 6.94345 1.24447 0.323257 0
M  V30 37 H 7.5759 -1.73015 1.61121 0
M  V30 38 H 6.04861 -1.66223 2.5546 0
M  V30 END ATOM
M  V30 BEGIN BOND
M  V30 1 2 1 2
M  V30 2 1 2 3
M  V30 3 2 3 4
M  V30 4 1 4 5
M  V30 5 2 5 6
M  V30 6 1 6 7
M  V30 7 2 7 8
M  V30 8 1 6 9
M  V30 9 2 9 10
M  V30 10 1 9 11
M  V30 11 1 2 12
M  V30 12 1 12 13
M  V30 13 2 13 14
M  V30 14 1 14 15
M  V30 15 2 15 16
M  V30 16 1 16 17
M  V30 17 2 17 18
M  V30 18 1 16 19
M  V30 19 2 19 20
M  V30 20 2 19 21
M  V30 21 1 19 22
M  V30 22 2 22 23 CFG=2
M  V30 23 1 23 24
M  V30 24 1 23 25
M  V30 25 1 8 3
M  V30 26 1 18 13
M  V30 27 1 4 26
M  V30 28 1 5 27
M  V30 29 1 7 28
M  V30 30 1 8 29
M  V30 31 1 12 30
M  V30 32 1 14 31
M  V30 33 1 15 32
M  V30 34 1 17 33
M  V30 35 1 18 34
M  V30 36 1 24 35
M  V30 37 1 24 36
M  V30 38 1 25 37
M  V30 39 1 25 38
M  V30 END BOND
M  V30 END CTAB
M  END
