
     RDKit          3D

  0  0  0  0  0  0  0  0  0  0999 V3000
M  V30 BEGIN CTAB
M  V30 COUNTS 30 31 0 0 0
M  V30 BEGIN ATOM
M  V30 1 N -3.76491 -0.319694 1.09216 0
M  V30 2 N -2.58614 -0.21907 0.317066 0
M  V30 3 C -2.52255 -0.447086 -1.02104 0
M  V30 4 C -3.67359 -0.816389 -1.88352 0
M  V30 5 N -1.21557 -0.25763 -1.35322 0
M  V30 6 C -0.513264 0.0707829 -0.283438 0
M  V30 7 C -1.37945 0.0935469 0.789315 0
M  V30 8 N -1.03337 0.356707 2.16181 0
M  V30 9 C 0.944102 0.454158 -0.172155 0
M  V30 10 C 1.79877 -0.176201 -1.22778 0
M  V30 11 C 3.22388 0.189728 -1.05569 0
M  V30 12 C 3.66763 0.304361 0.359153 0
M  V30 13 C 2.61933 -0.105493 1.35455 0
M  V30 14 O 1.38364 0.397577 1.10551 0
M  V30 15 H -3.92398 -1.12675 1.76862 0
M  V30 16 H -4.53268 0.369444 1.04639 0
M  V30 17 H -4.04702 -1.81746 -1.59965 0
M  V30 18 H -3.45476 -0.690573 -2.95103 0
M  V30 19 H -4.54642 -0.120317 -1.68526 0
M  V30 20 H -0.366459 -0.257716 2.69457 0
M  V30 21 H -1.41596 1.14941 2.70759 0
M  V30 22 H 0.906936 1.5698 -0.492251 0
M  V30 23 H 1.67316 -1.29401 -1.24661 0
M  V30 24 H 1.44262 0.192304 -2.23618 0
M  V30 25 H 3.83518 -0.565536 -1.62151 0
M  V30 26 H 3.42115 1.18626 -1.52981 0
M  V30 27 H 4.01637 1.32792 0.635058 0
M  V30 28 H 4.56479 -0.339134 0.515187 0
M  V30 29 H 2.52855 -1.2068 1.47229 0
M  V30 30 H 2.95001 0.358386 2.33987 0
M  V30 END ATOM
M  V30 BEGIN BOND
M  V30 1 1 1 2
M  V30 2 1 2 3
M  V30 3 1 3 4
M  V30 4 2 3 5
M  V30 5 1 5 6
M  V30 6 2 6 7
M  V30 7 1 7 8
M  V30 8 1 6 9
M  V30 9 1 9 10
M  V30 10 1 10 11
M  V30 11 1 11 12
M  V30 12 1 12 13
M  V30 13 1 13 14
M  V30 14 1 7 2
M  V30 15 1 14 9
M  V30 16 1 1 15
M  V30 17 1 1 16
M  V30 18 1 4 17
M  V30 19 1 4 18
M  V30 20 1 4 19
M  V30 21 1 8 20
M  V30 22 1 8 21
M  V30 23 1 9 22
M  V30 24 1 10 23
M  V30 25 1 10 24
M  V30 26 1 11 25
M  V30 27 1 11 26
M  V30 28 1 12 27
M  V30 29 1 12 28
M  V30 30 1 13 29
M  V30 31 1 13 30
M  V30 END BOND
M  V30 END CTAB
M  END
