
     RDKit          3D

  0  0  0  0  0  0  0  0  0  0999 V3000
M  V30 BEGIN CTAB
M  V30 COUNTS 40 41 0 0 0
M  V30 BEGIN ATOM
M  V30 1 N -4.96462 -0.710408 0.0041211 0
M  V30 2 C -3.66654 -1.06516 0.529293 0
M  V30 3 C -2.96456 0.216692 0.945644 0
M  V30 4 C -1.4604 0.0779753 0.723322 0
M  V30 5 C -1.13772 0.0945316 -0.777573 0
M  V30 6 C -2.29272 -0.593329 -1.47048 0
M  V30 7 C -2.81598 -1.68499 -0.558961 0
M  V30 8 N -0.972886 1.45382 -1.17658 0
M  V30 9 S 0.579922 1.82339 -1.79992 0
M  V30 10 O 0.907531 1.02388 -3.02252 0
M  V30 11 O 0.623974 3.27522 -2.2084 0
M  V30 12 C 1.86199 1.57641 -0.650572 0
M  V30 13 C 2.3023 2.53427 0.220122 0
M  V30 14 C 3.32787 2.23578 1.09168 0
M  V30 15 C 3.92188 0.990126 1.10603 0
M  V30 16 C 3.49257 0.0210417 0.240991 0
M  V30 17 C 2.46824 0.337173 -0.621315 0
M  V30 18 S 4.18614 -1.5852 0.188302 0
M  V30 19 O 5.63562 -1.56403 0.540007 0
M  V30 20 O 3.99924 -2.12213 -1.20131 0
M  V30 21 N 3.34996 -2.66291 1.27225 0
M  V30 22 H -4.82422 0.139455 -0.612994 0
M  V30 23 H -5.38999 -1.43925 -0.581219 0
M  V30 24 H -3.78602 -1.69137 1.41033 0
M  V30 25 H -3.10579 0.388451 2.02076 0
M  V30 26 H -3.31306 1.08789 0.391168 0
M  V30 27 H -1.06398 -0.844985 1.19291 0
M  V30 28 H -0.978861 0.933545 1.24388 0
M  V30 29 H -0.232785 -0.513553 -0.933796 0
M  V30 30 H -1.99874 -1.08996 -2.41292 0
M  V30 31 H -3.08202 0.138979 -1.73409 0
M  V30 32 H -1.94285 -2.18327 -0.0791375 0
M  V30 33 H -3.40859 -2.41033 -1.17635 0
M  V30 34 H -1.24861 2.11233 -0.423584 0
M  V30 35 H 1.82593 3.50303 0.194791 0
M  V30 36 H 3.66601 3.0195 1.78233 0
M  V30 37 H 4.72018 0.766493 1.78845 0
M  V30 38 H 2.13018 -0.448909 -1.31442 0
M  V30 39 H 3.23063 -2.21758 2.21316 0
M  V30 40 H 2.42077 -2.92262 0.846173 0
M  V30 END ATOM
M  V30 BEGIN BOND
M  V30 1 1 1 2
M  V30 2 1 2 3
M  V30 3 1 3 4
M  V30 4 1 4 5
M  V30 5 1 5 6
M  V30 6 1 6 7
M  V30 7 1 5 8
M  V30 8 1 8 9
M  V30 9 2 9 10
M  V30 10 2 9 11
M  V30 11 1 9 12
M  V30 12 2 12 13
M  V30 13 1 13 14
M  V30 14 2 14 15
M  V30 15 1 15 16
M  V30 16 2 16 17
M  V30 17 1 16 18
M  V30 18 2 18 19
M  V30 19 2 18 20
M  V30 20 1 18 21
M  V30 21 1 7 2
M  V30 22 1 17 12
M  V30 23 1 1 22
M  V30 24 1 1 23
M  V30 25 1 2 24
M  V30 26 1 3 25
M  V30 27 1 3 26
M  V30 28 1 4 27
M  V30 29 1 4 28
M  V30 30 1 5 29
M  V30 31 1 6 30
M  V30 32 1 6 31
M  V30 33 1 7 32
M  V30 34 1 7 33
M  V30 35 1 8 34
M  V30 36 1 13 35
M  V30 37 1 14 36
M  V30 38 1 15 37
M  V30 39 1 17 38
M  V30 40 1 21 39
M  V30 41 1 21 40
M  V30 END BOND
M  V30 END CTAB
M  END
