
     RDKit          3D

  0  0  0  0  0  0  0  0  0  0999 V3000
M  V30 BEGIN CTAB
M  V30 COUNTS 19 19 0 0 0
M  V30 BEGIN ATOM
M  V30 1 N -1.79194 1.36612 0.992798 0
M  V30 2 C -1.9385 0.205406 0.177641 0
M  V30 3 C -0.884931 -0.829478 0.296252 0
M  V30 4 C 0.490928 -0.374891 -0.0591602 0
M  V30 5 C 1.0424 0.84289 -0.254206 0
M  V30 6 C 2.34155 0.917269 -0.569641 0
M  V30 7 C 3.02909 -0.262436 -0.673882 0
M  V30 8 S 1.83879 -1.42735 -0.32843 0
M  V30 9 N -1.21419 -1.92195 -0.617901 0
M  V30 10 H -1.82366 2.26597 0.507646 0
M  V30 11 H -1.14519 1.28422 1.78206 0
M  V30 12 H -2.09917 0.498673 -0.881632 0
M  V30 13 H -2.90336 -0.284054 0.490912 0
M  V30 14 H -0.887199 -1.1873 1.35439 0
M  V30 15 H 0.428774 1.76766 -0.157517 0
M  V30 16 H 2.89167 1.8745 -0.750805 0
M  V30 17 H 4.09549 -0.398474 -0.922697 0
M  V30 18 H -0.574797 -2.72132 -0.351039 0
M  V30 19 H -0.895744 -1.61545 -1.56075 0
M  V30 END ATOM
M  V30 BEGIN BOND
M  V30 1 1 1 2
M  V30 2 1 2 3
M  V30 3 1 3 4
M  V30 4 2 4 5
M  V30 5 1 5 6
M  V30 6 2 6 7
M  V30 7 1 7 8
M  V30 8 1 3 9
M  V30 9 1 8 4
M  V30 10 1 1 10
M  V30 11 1 1 11
M  V30 12 1 2 12
M  V30 13 1 2 13
M  V30 14 1 3 14
M  V30 15 1 5 15
M  V30 16 1 6 16
M  V30 17 1 7 17
M  V30 18 1 9 18
M  V30 19 1 9 19
M  V30 END BOND
M  V30 END CTAB
M  END
