
     RDKit          3D

  0  0  0  0  0  0  0  0  0  0999 V3000
M  V30 BEGIN CTAB
M  V30 COUNTS 31 33 0 0 0
M  V30 BEGIN ATOM
M  V30 1 N -1.69106 0.305752 1.97836 0
M  V30 2 C -2.08127 -0.0263926 0.662771 0
M  V30 3 C -3.42278 -0.206297 0.408661 0
M  V30 4 N -4.39544 -0.0667921 1.42241 0
M  V30 5 C -3.76052 -0.531154 -0.895994 0
M  V30 6 N -2.83089 -0.663568 -1.8608 0
M  V30 7 C -1.53194 -0.479658 -1.57162 0
M  V30 8 C -1.08834 -0.154426 -0.308274 0
M  V30 9 C 0.239508 0.0392793 0.0126264 0
M  V30 10 C 1.19583 -0.0943176 -0.968248 0
M  V30 11 C 0.776764 -0.420774 -2.24696 0
M  V30 12 C -0.547491 -0.611251 -2.55498 0
M  V30 13 C 2.63729 0.101646 -0.683434 0
M  V30 14 C 3.0678 -0.715211 0.514755 0
M  V30 15 C 3.62131 0.52665 1.14356 0
M  V30 16 C 2.99117 1.3672 0.0349737 0
M  V30 17 H -1.2299 1.17897 2.26903 0
M  V30 18 H -1.88717 -0.396837 2.72606 0
M  V30 19 H -5.22532 0.525901 1.25442 0
M  V30 20 H -4.29701 -0.54461 2.33103 0
M  V30 21 H -4.82205 -0.672663 -1.09334 0
M  V30 22 H 0.494195 0.290508 1.02413 0
M  V30 23 H 1.55565 -0.518279 -2.99573 0
M  V30 24 H -0.852693 -0.864277 -3.55401 0
M  V30 25 H 3.24618 -0.0472843 -1.59122 0
M  V30 26 H 3.81338 -1.47287 0.183233 0
M  V30 27 H 2.21154 -1.1044 1.09385 0
M  V30 28 H 3.22475 0.733084 2.15503 0
M  V30 29 H 4.72247 0.542728 1.0891 0
M  V30 30 H 3.71717 2.03329 -0.440074 0
M  V30 31 H 2.14885 1.94606 0.460671 0
M  V30 END ATOM
M  V30 BEGIN BOND
M  V30 1 1 1 2
M  V30 2 2 2 3
M  V30 3 1 3 4
M  V30 4 1 3 5
M  V30 5 2 5 6
M  V30 6 1 6 7
M  V30 7 2 7 8
M  V30 8 1 8 9
M  V30 9 2 9 10
M  V30 10 1 10 11
M  V30 11 2 11 12
M  V30 12 1 10 13
M  V30 13 1 13 14
M  V30 14 1 14 15
M  V30 15 1 15 16
M  V30 16 1 8 2
M  V30 17 1 16 13
M  V30 18 1 12 7
M  V30 19 1 1 17
M  V30 20 1 1 18
M  V30 21 1 4 19
M  V30 22 1 4 20
M  V30 23 1 5 21
M  V30 24 1 9 22
M  V30 25 1 11 23
M  V30 26 1 12 24
M  V30 27 1 13 25
M  V30 28 1 14 26
M  V30 29 1 14 27
M  V30 30 1 15 28
M  V30 31 1 15 29
M  V30 32 1 16 30
M  V30 33 1 16 31
M  V30 END BOND
M  V30 END CTAB
M  END
