
     RDKit          3D

  0  0  0  0  0  0  0  0  0  0999 V3000
M  V30 BEGIN CTAB
M  V30 COUNTS 50 50 0 0 0
M  V30 BEGIN ATOM
M  V30 1 C 4.55282 2.18832 -1.12698 0
M  V30 2 C 3.34852 1.63242 -1.14954 0
M  V30 3 C 3.21154 0.283512 -1.67305 0
M  V30 4 C 2.53707 -0.744789 -0.810365 0
M  V30 5 C 1.16886 -0.419409 -0.426067 0
M  V30 6 C 0.335305 0.102975 -1.43856 0
M  V30 7 C -0.970496 0.403544 -1.2026 0
M  V30 8 C -1.56686 0.217354 0.0565641 0
M  V30 9 C -0.769853 -0.287858 1.04522 0
M  V30 10 C 0.563708 -0.588396 0.769334 0
M  V30 11 C -2.95554 0.610785 0.17141 0
M  V30 12 C -3.61703 0.625935 1.4883 0
M  V30 13 C -2.97932 1.56283 2.43573 0
M  V30 14 C -2.7907 1.36504 3.7469 0
M  V30 15 C -3.87316 -0.0996369 -0.808134 0
M  V30 16 C -3.90265 -1.54816 -0.6977 0
M  V30 17 C -3.59123 -2.31022 -1.73392 0
M  V30 18 N -2.97776 2.03822 -0.318314 0
M  V30 19 C 3.39569 -1.45813 0.116442 0
M  V30 20 C 4.18988 -0.757295 1.11868 0
M  V30 21 C 4.06334 -0.963058 2.4173 0
M  V30 22 N 2.26013 -1.84964 -1.86858 0
M  V30 23 H 5.4307 1.63222 -1.50462 0
M  V30 24 H 4.68538 3.1934 -0.747905 0
M  V30 25 H 2.51142 2.22533 -0.770515 0
M  V30 26 H 2.64786 0.349915 -2.65024 0
M  V30 27 H 4.19562 -0.164324 -1.95729 0
M  V30 28 H 0.715954 0.261837 -2.43709 0
M  V30 29 H -1.59993 0.802958 -1.98205 0
M  V30 30 H -1.16512 -0.473842 2.04741 0
M  V30 31 H 1.12447 -0.989323 1.58698 0
M  V30 32 H -4.67554 0.97722 1.33958 0
M  V30 33 H -3.71834 -0.401291 1.94021 0
M  V30 34 H -2.60149 2.5247 2.03035 0
M  V30 35 H -2.31159 2.10413 4.3691 0
M  V30 36 H -3.12889 0.447323 4.21548 0
M  V30 37 H -4.90359 0.31596 -0.607834 0
M  V30 38 H -3.64894 0.236723 -1.85886 0
M  V30 39 H -4.19631 -2.01562 0.238834 0
M  V30 40 H -3.29728 -1.89359 -2.69596 0
M  V30 41 H -3.62623 -3.40153 -1.64431 0
M  V30 42 H -3.59806 2.14919 -1.13405 0
M  V30 43 H -2.02141 2.36819 -0.500644 0
M  V30 44 H 4.18659 -1.98403 -0.541243 0
M  V30 45 H 2.86991 -2.34675 0.540293 0
M  V30 46 H 4.95484 -0.0394862 0.835712 0
M  V30 47 H 3.3446 -1.68835 2.84003 0
M  V30 48 H 4.70598 -0.380614 3.11116 0
M  V30 49 H 1.54506 -2.46868 -1.45477 0
M  V30 50 H 1.94207 -1.346 -2.71981 0
M  V30 END ATOM
M  V30 BEGIN BOND
M  V30 1 2 1 2 CFG=2
M  V30 2 1 2 3
M  V30 3 1 3 4
M  V30 4 1 4 5
M  V30 5 2 5 6
M  V30 6 1 6 7
M  V30 7 2 7 8
M  V30 8 1 8 9
M  V30 9 2 9 10
M  V30 10 1 8 11
M  V30 11 1 11 12
M  V30 12 1 12 13
M  V30 13 2 13 14 CFG=2
M  V30 14 1 11 15
M  V30 15 1 15 16
M  V30 16 2 16 17 CFG=2
M  V30 17 1 11 18
M  V30 18 1 4 19
M  V30 19 1 19 20
M  V30 20 2 20 21 CFG=2
M  V30 21 1 4 22
M  V30 22 1 10 5
M  V30 23 1 1 23
M  V30 24 1 1 24
M  V30 25 1 2 25
M  V30 26 1 3 26
M  V30 27 1 3 27
M  V30 28 1 6 28
M  V30 29 1 7 29
M  V30 30 1 9 30
M  V30 31 1 10 31
M  V30 32 1 12 32
M  V30 33 1 12 33
M  V30 34 1 13 34
M  V30 35 1 14 35
M  V30 36 1 14 36
M  V30 37 1 15 37
M  V30 38 1 15 38
M  V30 39 1 16 39
M  V30 40 1 17 40
M  V30 41 1 17 41
M  V30 42 1 18 42
M  V30 43 1 18 43
M  V30 44 1 19 44
M  V30 45 1 19 45
M  V30 46 1 20 46
M  V30 47 1 21 47
M  V30 48 1 21 48
M  V30 49 1 22 49
M  V30 50 1 22 50
M  V30 END BOND
M  V30 END CTAB
M  END
