
     RDKit          3D

  0  0  0  0  0  0  0  0  0  0999 V3000
M  V30 BEGIN CTAB
M  V30 COUNTS 37 38 0 0 0
M  V30 BEGIN ATOM
M  V30 1 N 6.96597 -0.145558 -0.79665 0
M  V30 2 C 6.13369 -0.302145 0.343247 0
M  V30 3 N 6.70366 -0.511526 1.4682 0
M  V30 4 C 4.69246 -0.214712 0.158542 0
M  V30 5 C 4.13145 0.0153487 -1.0916 0
M  V30 6 C 2.77568 0.100168 -1.28102 0
M  V30 7 C 1.88955 -0.0436327 -0.207395 0
M  V30 8 C 0.468805 0.0630901 -0.512729 0
M  V30 9 C -0.422879 -0.0592936 0.433567 0
M  V30 10 C -1.86424 0.0332502 0.218337 0
M  V30 11 C -2.74911 -0.106425 1.26697 0
M  V30 12 O -2.30848 -0.337173 2.54894 0
M  V30 13 C -4.13921 -0.01533 1.04874 0
M  V30 14 C -4.65502 0.213302 -0.20278 0
M  V30 15 C -3.75901 0.350185 -1.23727 0
M  V30 16 C -2.38669 0.262473 -1.03518 0
M  V30 17 C -6.08928 0.306624 -0.423663 0
M  V30 18 N -6.54676 0.546687 -1.75898 0
M  V30 19 N -6.92617 0.18048 0.533542 0
M  V30 20 C 2.43253 -0.268664 1.01675 0
M  V30 21 C 3.79695 -0.351773 1.19387 0
M  V30 22 H 7.41275 0.765674 -0.977982 0
M  V30 23 H 7.10276 -0.957068 -1.41982 0
M  V30 24 H 6.19765 -0.640772 2.36615 0
M  V30 25 H 4.83536 0.126523 -1.92615 0
M  V30 26 H 2.41115 0.28206 -2.28807 0
M  V30 27 H 0.151357 0.24865 -1.55267 0
M  V30 28 H -0.0604139 -0.238523 1.42489 0
M  V30 29 H -1.35574 -0.413616 2.78256 0
M  V30 30 H -4.76691 -0.136494 1.92526 0
M  V30 31 H -4.16471 0.530929 -2.22715 0
M  V30 32 H -1.72473 0.375972 -1.87386 0
M  V30 33 H -6.48182 1.48383 -2.20591 0
M  V30 34 H -6.96021 -0.229837 -2.31474 0
M  V30 35 H -6.73672 0.00886092 1.5207 0
M  V30 36 H 1.80402 -0.386896 1.87576 0
M  V30 37 H 4.1923 -0.534674 2.19976 0
M  V30 END ATOM
M  V30 BEGIN BOND
M  V30 1 1 1 2
M  V30 2 2 2 3 CFG=2
M  V30 3 1 2 4
M  V30 4 2 4 5
M  V30 5 1 5 6
M  V30 6 2 6 7
M  V30 7 1 7 8
M  V30 8 2 8 9
M  V30 9 1 9 10
M  V30 10 2 10 11
M  V30 11 1 11 12
M  V30 12 1 11 13
M  V30 13 2 13 14
M  V30 14 1 14 15
M  V30 15 2 15 16
M  V30 16 1 14 17
M  V30 17 1 17 18
M  V30 18 2 17 19 CFG=2
M  V30 19 1 7 20
M  V30 20 2 20 21
M  V30 21 1 21 4
M  V30 22 1 16 10
M  V30 23 1 1 22
M  V30 24 1 1 23
M  V30 25 1 3 24
M  V30 26 1 5 25
M  V30 27 1 6 26
M  V30 28 1 8 27
M  V30 29 1 9 28
M  V30 30 1 12 29
M  V30 31 1 13 30
M  V30 32 1 15 31
M  V30 33 1 16 32
M  V30 34 1 18 33
M  V30 35 1 18 34
M  V30 36 1 19 35
M  V30 37 1 20 36
M  V30 38 1 21 37
M  V30 END BOND
M  V30 END CTAB
M  END
