
     RDKit          3D

  0  0  0  0  0  0  0  0  0  0999 V3000
M  V30 BEGIN CTAB
M  V30 COUNTS 143 146 0 0 0
M  V30 BEGIN ATOM
M  V30 1 C -4.28016 2.82988 1.08082 0
M  V30 2 C -4.39545 2.18195 -0.239077 0
M  V30 3 C -5.115 3.00913 -1.22917 0
M  V30 4 C -4.88044 0.710237 -0.161878 0 CFG=2
M  V30 5 N -6.16626 0.672494 0.486089 0
M  V30 6 C -7.41063 0.82041 -0.132524 0
M  V30 7 O -7.46745 1.01071 -1.37913 0
M  V30 8 C -8.67625 0.777273 0.59097 0 CFG=2
M  V30 9 C -9.41818 -0.556795 0.163788 0
M  V30 10 C -8.60337 -1.73769 0.572377 0
M  V30 11 C -9.16686 -3.03777 0.171992 0
M  V30 12 N -10.4284 -3.35722 0.716571 0
M  V30 13 C -11.6585 -2.78295 0.39356 0
M  V30 14 N -12.5939 -2.37261 1.36665 0
M  V30 15 N -11.9512 -2.64621 -0.851517 0
M  V30 16 N -9.59054 1.84542 0.367016 0
M  V30 17 C -10.6127 1.93578 -0.568256 0
M  V30 18 O -10.8593 1.02022 -1.40619 0
M  V30 19 C -11.5274 3.1138 -0.681805 0 CFG=1
M  V30 20 N -11.3941 4.01233 0.453624 0
M  V30 21 C -11.3319 3.93867 -1.91542 0
M  V30 22 C -10.0056 4.54704 -2.05212 0
M  V30 23 O -9.7044 5.3288 -3.15843 0
M  V30 24 O -9.10406 4.37988 -1.17274 0
M  V30 25 C -3.79063 0.0114295 0.502808 0
M  V30 26 O -3.64286 -0.0383488 1.75054 0
M  V30 27 N -2.79557 -0.665268 -0.285477 0
M  V30 28 C -1.65494 -1.29464 0.362815 0 CFG=1
M  V30 29 C -1.79595 -2.80267 0.456494 0
M  V30 30 C -2.93718 -3.27557 1.22754 0
M  V30 31 C -2.8526 -3.47464 2.59745 0
M  V30 32 C -3.98083 -3.93167 3.24572 0
M  V30 33 C -5.17212 -4.1978 2.60997 0
M  V30 34 O -6.30966 -4.66325 3.28742 0
M  V30 35 C -5.23273 -3.99213 1.2436 0
M  V30 36 C -4.10993 -3.53004 0.557742 0
M  V30 37 C -0.477474 -1.07137 -0.506375 0
M  V30 38 O -0.619054 -1.33333 -1.71921 0
M  V30 39 N 0.747392 -0.58645 -0.0297981 0
M  V30 40 C 1.94036 -0.371788 -0.82762 0 CFG=1
M  V30 41 C 1.63275 0.796336 -1.83018 0
M  V30 42 C 1.27866 2.04792 -1.11766 0
M  V30 43 C 2.87231 0.91089 -2.68636 0
M  V30 44 C 3.09873 -0.0329768 -0.042399 0
M  V30 45 O 2.87862 0.771387 0.951491 0
M  V30 46 N 4.41863 -0.458391 -0.215225 0
M  V30 47 C 5.48068 0.0225093 0.682181 0 CFG=1
M  V30 48 C 5.44357 -0.787049 1.97067 0
M  V30 49 C 5.63885 -2.2202 1.80636 0
M  V30 50 C 4.73276 -3.23111 1.58933 0
M  V30 51 N 5.37811 -4.395 1.5202 0
M  V30 52 C 6.67291 -4.16877 1.68511 0
M  V30 53 N 6.84221 -2.83519 1.86178 0
M  V30 54 C 6.78862 0.168981 0.0766038 0
M  V30 55 O 7.15356 -0.761035 -0.722516 0
M  V30 56 N 7.65745 1.2397 0.301989 0
M  V30 57 C 7.33993 2.42633 1.1464 0
M  V30 58 C 7.61683 3.50766 0.0768824 0
M  V30 59 C 8.63567 2.87736 -0.889485 0
M  V30 60 C 8.96976 1.57955 -0.130767 0 CFG=2
M  V30 61 C 9.80177 0.667847 -0.85491 0
M  V30 62 O 10.0586 0.852765 -2.092 0
M  V30 63 N 10.3841 -0.460377 -0.24614 0
M  V30 64 C 11.2615 -1.41706 -0.875544 0 CFG=1
M  V30 65 C 12.5827 -1.49899 -0.0869079 0
M  V30 66 C 13.2478 -0.174414 -0.0644286 0
M  V30 67 C 14.1734 0.126869 -1.04642 0
M  V30 68 C 14.8276 1.36614 -1.07286 0
M  V30 69 C 14.5391 2.30488 -0.0979516 0
M  V30 70 C 13.623 2.02373 0.884234 0
M  V30 71 C 12.9971 0.794941 0.8835 0
M  V30 72 C 10.6887 -2.76221 -0.822315 0
M  V30 73 O 11.3815 -3.8199 -1.38729 0
M  V30 74 O 9.59263 -2.99151 -0.283555 0
M  V30 75 H -4.47339 2.22262 1.94911 0
M  V30 76 H -3.26265 3.27759 1.20948 0
M  V30 77 H -4.96732 3.72613 1.09401 0
M  V30 78 H -3.33847 2.05345 -0.644113 0
M  V30 79 H -6.08702 3.40413 -0.82197 0
M  V30 80 H -4.51669 3.9581 -1.47394 0
M  V30 81 H -5.2773 2.55384 -2.21651 0
M  V30 82 H -4.99019 0.419542 -1.2069 0
M  V30 83 H -6.15293 0.520034 1.52126 0
M  V30 84 H -8.60824 0.601385 1.69619 0
M  V30 85 H -9.33544 -0.54154 -0.964066 0
M  V30 86 H -10.4312 -0.496926 0.474675 0
M  V30 87 H -8.51903 -1.65176 1.71184 0
M  V30 88 H -7.54583 -1.61764 0.191745 0
M  V30 89 H -8.41131 -3.85529 0.407111 0
M  V30 90 H -9.28791 -3.07948 -0.954139 0
M  V30 91 H -10.4479 -4.12858 1.45965 0
M  V30 92 H -12.9091 -1.37628 1.3778 0
M  V30 93 H -13.006 -3.0118 2.10012 0
M  V30 94 H -12.8547 -2.22468 -1.11733 0
M  V30 95 H -9.50052 2.7101 1.02942 0
M  V30 96 H -12.5876 2.74906 -0.677505 0
M  V30 97 H -11.3922 3.40225 1.31071 0
M  V30 98 H -12.2347 4.64727 0.44657 0
M  V30 99 H -12.0702 4.7961 -1.92749 0
M  V30 100 H -11.5831 3.37132 -2.86585 0
M  V30 101 H -8.85254 5.83843 -3.1749 0
M  V30 102 H -2.87314 -0.711029 -1.29904 0
M  V30 103 H -1.51013 -0.833875 1.33079 0
M  V30 104 H -1.93857 -3.12954 -0.61683 0
M  V30 105 H -0.876403 -3.29087 0.778004 0
M  V30 106 H -1.91784 -3.26587 3.09623 0
M  V30 107 H -3.91027 -4.08315 4.31844 0
M  V30 108 H -6.92565 -3.93337 3.63647 0
M  V30 109 H -6.14907 -4.20023 0.746311 0
M  V30 110 H -4.21209 -3.38269 -0.522276 0
M  V30 111 H 0.839302 -0.348923 1.00049 0
M  V30 112 H 2.07561 -1.21392 -1.49962 0
M  V30 113 H 0.836075 0.404314 -2.47786 0
M  V30 114 H 0.928796 1.82176 -0.0925964 0
M  V30 115 H 0.455979 2.57204 -1.68881 0
M  V30 116 H 2.14145 2.7361 -1.15999 0
M  V30 117 H 3.41919 -0.0485134 -2.72983 0
M  V30 118 H 3.54901 1.66318 -2.24439 0
M  V30 119 H 2.59257 1.24005 -3.70862 0
M  V30 120 H 4.67881 -1.10832 -0.967788 0
M  V30 121 H 5.09389 1.03343 1.02329 0
M  V30 122 H 4.44802 -0.572993 2.47514 0
M  V30 123 H 6.19604 -0.409036 2.69657 0
M  V30 124 H 3.67338 -3.09942 1.4941 0
M  V30 125 H 7.41816 -4.96271 1.67568 0
M  V30 126 H 7.78779 -2.39257 2.01344 0
M  V30 127 H 6.32129 2.46459 1.48178 0
M  V30 128 H 8.1081 2.46203 1.93521 0
M  V30 129 H 6.67428 3.66901 -0.454743 0
M  V30 130 H 8.0294 4.38054 0.584765 0
M  V30 131 H 8.17107 2.60592 -1.84618 0
M  V30 132 H 9.49883 3.53836 -0.944482 0
M  V30 133 H 9.55393 2.02116 0.778462 0
M  V30 134 H 10.1683 -0.633663 0.765471 0
M  V30 135 H 11.4463 -1.16651 -1.93467 0
M  V30 136 H 13.2719 -2.21981 -0.533167 0
M  V30 137 H 12.3422 -1.86525 0.92806 0
M  V30 138 H 14.4053 -0.589504 -1.80963 0
M  V30 139 H 15.5502 1.54585 -1.86951 0
M  V30 140 H 15.0277 3.26714 -0.0918345 0
M  V30 141 H 13.4264 2.78972 1.63418 0
M  V30 142 H 12.2818 0.59753 1.66497 0
M  V30 143 H 11.8814 -4.51518 -0.813294 0
M  V30 END ATOM
M  V30 BEGIN BOND
M  V30 1 1 1 2
M  V30 2 1 2 3
M  V30 3 1 2 4
M  V30 4 1 4 5
M  V30 5 1 5 6
M  V30 6 2 6 7
M  V30 7 1 6 8
M  V30 8 1 8 9
M  V30 9 1 9 10
M  V30 10 1 10 11
M  V30 11 1 11 12
M  V30 12 1 12 13
M  V30 13 1 13 14
M  V30 14 2 13 15 CFG=2
M  V30 15 1 8 16
M  V30 16 1 16 17
M  V30 17 2 17 18
M  V30 18 1 17 19
M  V30 19 1 19 20
M  V30 20 1 19 21
M  V30 21 1 21 22
M  V30 22 1 22 23
M  V30 23 2 22 24
M  V30 24 1 4 25
M  V30 25 2 25 26
M  V30 26 1 25 27
M  V30 27 1 27 28
M  V30 28 1 28 29
M  V30 29 1 29 30
M  V30 30 2 30 31
M  V30 31 1 31 32
M  V30 32 2 32 33
M  V30 33 1 33 34
M  V30 34 1 33 35
M  V30 35 2 35 36
M  V30 36 1 28 37
M  V30 37 2 37 38
M  V30 38 1 37 39
M  V30 39 1 39 40
M  V30 40 1 40 41
M  V30 41 1 41 42
M  V30 42 1 41 43
M  V30 43 1 40 44
M  V30 44 2 44 45
M  V30 45 1 44 46
M  V30 46 1 46 47
M  V30 47 1 47 48
M  V30 48 1 48 49
M  V30 49 2 49 50
M  V30 50 1 50 51
M  V30 51 2 51 52
M  V30 52 1 52 53
M  V30 53 1 47 54
M  V30 54 2 54 55
M  V30 55 1 54 56
M  V30 56 1 56 57
M  V30 57 1 57 58
M  V30 58 1 58 59
M  V30 59 1 59 60
M  V30 60 1 60 61
M  V30 61 2 61 62
M  V30 62 1 61 63
M  V30 63 1 63 64
M  V30 64 1 64 65
M  V30 65 1 65 66
M  V30 66 2 66 67
M  V30 67 1 67 68
M  V30 68 2 68 69
M  V30 69 1 69 70
M  V30 70 2 70 71
M  V30 71 1 64 72
M  V30 72 1 72 73
M  V30 73 2 72 74
M  V30 74 1 36 30
M  V30 75 1 53 49
M  V30 76 1 60 56
M  V30 77 1 71 66
M  V30 78 1 1 75
M  V30 79 1 1 76
M  V30 80 1 1 77
M  V30 81 1 2 78
M  V30 82 1 3 79
M  V30 83 1 3 80
M  V30 84 1 3 81
M  V30 85 1 4 82 CFG=3
M  V30 86 1 5 83
M  V30 87 1 8 84 CFG=1
M  V30 88 1 9 85
M  V30 89 1 9 86
M  V30 90 1 10 87
M  V30 91 1 10 88
M  V30 92 1 11 89
M  V30 93 1 11 90
M  V30 94 1 12 91
M  V30 95 1 14 92
M  V30 96 1 14 93
M  V30 97 1 15 94
M  V30 98 1 16 95
M  V30 99 1 19 96 CFG=3
M  V30 100 1 20 97
M  V30 101 1 20 98
M  V30 102 1 21 99
M  V30 103 1 21 100
M  V30 104 1 23 101
M  V30 105 1 27 102
M  V30 106 1 28 103 CFG=1
M  V30 107 1 29 104
M  V30 108 1 29 105
M  V30 109 1 31 106
M  V30 110 1 32 107
M  V30 111 1 34 108
M  V30 112 1 35 109
M  V30 113 1 36 110
M  V30 114 1 39 111
M  V30 115 1 40 112 CFG=3
M  V30 116 1 41 113
M  V30 117 1 42 114
M  V30 118 1 42 115
M  V30 119 1 42 116
M  V30 120 1 43 117
M  V30 121 1 43 118
M  V30 122 1 43 119
M  V30 123 1 46 120
M  V30 124 1 47 121 CFG=1
M  V30 125 1 48 122
M  V30 126 1 48 123
M  V30 127 1 50 124
M  V30 128 1 52 125
M  V30 129 1 53 126
M  V30 130 1 57 127
M  V30 131 1 57 128
M  V30 132 1 58 129
M  V30 133 1 58 130
M  V30 134 1 59 131
M  V30 135 1 59 132
M  V30 136 1 60 133 CFG=1
M  V30 137 1 63 134
M  V30 138 1 64 135 CFG=3
M  V30 139 1 65 136
M  V30 140 1 65 137
M  V30 141 1 67 138
M  V30 142 1 68 139
M  V30 143 1 69 140
M  V30 144 1 70 141
M  V30 145 1 71 142
M  V30 146 1 73 143
M  V30 END BOND
M  V30 END CTAB
M  END
