
     RDKit          3D

  0  0  0  0  0  0  0  0  0  0999 V3000
M  V30 BEGIN CTAB
M  V30 COUNTS 31 33 0 0 0
M  V30 BEGIN ATOM
M  V30 1 N -5.52228 1.98819 -0.297364 0
M  V30 2 C -4.37581 1.19575 -0.0918494 0
M  V30 3 N -3.10993 1.66084 -0.291657 0
M  V30 4 C -2.04894 0.860188 -0.0798161 0
M  V30 5 C -0.764508 1.34734 -0.287463 0
M  V30 6 C 0.314258 0.518543 -0.0673675 0
M  V30 7 C 0.172212 -0.781689 0.352745 0
M  V30 8 S 1.59686 -1.84249 0.632647 0
M  V30 9 C 3.07632 -0.875124 0.263891 0
M  V30 10 C 3.58678 -0.863312 -1.01085 0
M  V30 11 F 2.97578 -1.57424 -1.96916 0
M  V30 12 C 4.7053 -0.130119 -1.28212 0
M  V30 13 F 5.26283 -0.0773044 -2.53261 0
M  V30 14 C 5.36298 0.617118 -0.314486 0
M  V30 15 C 4.83427 0.593208 0.964071 0
M  V30 16 F 5.47591 1.32258 1.90965 0
M  V30 17 C 3.70644 -0.144991 1.2415 0
M  V30 18 F 3.23104 -0.134088 2.50774 0
M  V30 19 C -1.10526 -1.25048 0.55424 0
M  V30 20 C -2.2109 -0.436788 0.340054 0
M  V30 21 C -3.49998 -0.910878 0.54375 0
M  V30 22 N -3.64191 -2.24899 0.975751 0
M  V30 23 N -4.5067 -0.0744426 0.318266 0
M  V30 24 H -5.94657 2.49809 0.490299 0
M  V30 25 H -5.93845 2.05903 -1.23664 0
M  V30 26 H -0.582669 2.36477 -0.619167 0
M  V30 27 H 1.33206 0.896368 -0.229346 0
M  V30 28 H 6.25821 1.19708 -0.555582 0
M  V30 29 H -1.23978 -2.27988 0.887705 0
M  V30 30 H -4.00731 -2.95481 0.313998 0
M  V30 31 H -3.39023 -2.53947 1.93446 0
M  V30 END ATOM
M  V30 BEGIN BOND
M  V30 1 1 1 2
M  V30 2 2 2 3
M  V30 3 1 3 4
M  V30 4 2 4 5
M  V30 5 1 5 6
M  V30 6 2 6 7
M  V30 7 1 7 8
M  V30 8 1 8 9
M  V30 9 2 9 10
M  V30 10 1 10 11
M  V30 11 1 10 12
M  V30 12 1 12 13
M  V30 13 2 12 14
M  V30 14 1 14 15
M  V30 15 1 15 16
M  V30 16 2 15 17
M  V30 17 1 17 18
M  V30 18 1 7 19
M  V30 19 2 19 20
M  V30 20 1 20 21
M  V30 21 1 21 22
M  V30 22 2 21 23
M  V30 23 1 23 2
M  V30 24 1 20 4
M  V30 25 1 17 9
M  V30 26 1 1 24
M  V30 27 1 1 25
M  V30 28 1 5 26
M  V30 29 1 6 27
M  V30 30 1 14 28
M  V30 31 1 19 29
M  V30 32 1 22 30
M  V30 33 1 22 31
M  V30 END BOND
M  V30 END CTAB
M  END
