
     RDKit          3D

  0  0  0  0  0  0  0  0  0  0999 V3000
M  V30 BEGIN CTAB
M  V30 COUNTS 35 36 0 0 0
M  V30 BEGIN ATOM
M  V30 1 N 0.120501 2.65317 -0.93363 0
M  V30 2 C 0.842952 1.51555 -0.498866 0
M  V30 3 C 2.21159 1.56261 -0.474861 0
M  V30 4 C 2.96024 0.486939 -0.061797 0
M  V30 5 C 2.2958 -0.648545 0.330352 0
M  V30 6 C 0.898396 -0.721305 0.314615 0
M  V30 7 C 0.152863 0.355041 -0.0981811 0
M  V30 8 N -1.28147 0.367002 -0.144162 0
M  V30 9 C -2.03324 -0.0464673 -1.28815 0
M  V30 10 C -3.34401 -0.655012 -0.921205 0
M  V30 11 O -3.5277 -0.86325 0.428355 0
M  V30 12 C -3.35818 0.308682 1.16443 0
M  V30 13 C -1.96798 0.862242 1.01255 0
M  V30 14 S 0.111364 -2.1999 0.812692 0
M  V30 15 N 1.36937 -3.32753 1.28042 0
M  V30 16 O -0.756487 -2.05622 1.99858 0
M  V30 17 O -0.571319 -2.88489 -0.358601 0
M  V30 18 C 4.41967 0.554482 -0.0423122 0
M  V30 19 O 5.02568 1.7324 -0.451697 0
M  V30 20 O 5.07769 -0.446565 0.340979 0
M  V30 21 H -0.408722 2.57186 -1.8299 0
M  V30 22 H 0.154099 3.50781 -0.340124 0
M  V30 23 H 2.71455 2.46342 -0.786856 0
M  V30 24 H 2.85043 -1.52181 0.664087 0
M  V30 25 H -1.4457 -0.668943 -1.99796 0
M  V30 26 H -2.26823 0.887282 -1.86291 0
M  V30 27 H -3.37474 -1.67643 -1.40367 0
M  V30 28 H -4.22656 -0.0801572 -1.30498 0
M  V30 29 H -4.16276 1.02019 0.891068 0
M  V30 30 H -3.54633 0.0342451 2.22803 0
M  V30 31 H -2.13204 1.98433 0.890639 0
M  V30 32 H -1.36619 0.754579 1.94485 0
M  V30 33 H 1.10545 -4.29913 1.0585 0
M  V30 34 H 1.62046 -3.18215 2.28471 0
M  V30 35 H 5.84056 1.65648 -1.0426 0
M  V30 END ATOM
M  V30 BEGIN BOND
M  V30 1 1 1 2
M  V30 2 2 2 3
M  V30 3 1 3 4
M  V30 4 2 4 5
M  V30 5 1 5 6
M  V30 6 2 6 7
M  V30 7 1 7 8
M  V30 8 1 8 9
M  V30 9 1 9 10
M  V30 10 1 10 11
M  V30 11 1 11 12
M  V30 12 1 12 13
M  V30 13 1 6 14
M  V30 14 1 14 15
M  V30 15 2 14 16
M  V30 16 2 14 17
M  V30 17 1 4 18
M  V30 18 1 18 19
M  V30 19 2 18 20
M  V30 20 1 7 2
M  V30 21 1 13 8
M  V30 22 1 1 21
M  V30 23 1 1 22
M  V30 24 1 3 23
M  V30 25 1 5 24
M  V30 26 1 9 25
M  V30 27 1 9 26
M  V30 28 1 10 27
M  V30 29 1 10 28
M  V30 30 1 12 29
M  V30 31 1 12 30
M  V30 32 1 13 31
M  V30 33 1 13 32
M  V30 34 1 15 33
M  V30 35 1 15 34
M  V30 36 1 19 35
M  V30 END BOND
M  V30 END CTAB
M  END
