
     RDKit          3D

  0  0  0  0  0  0  0  0  0  0999 V3000
M  V30 BEGIN CTAB
M  V30 COUNTS 12 12 0 0 0
M  V30 BEGIN ATOM
M  V30 1 N -2.22311 0.880214 -0.251694 0
M  V30 2 C -0.985156 0.229765 -0.0618602 0
M  V30 3 N 0.245024 0.75107 -0.238058 0
M  V30 4 C 1.20983 -0.15157 0.0335332 0
M  V30 5 N 2.61594 -0.00442822 -0.027654 0
M  V30 6 N 0.509513 -1.27085 0.390833 0
M  V30 7 N -0.778576 -1.04168 0.333169 0
M  V30 8 H -2.66479 1.3779 0.532768 0
M  V30 9 H -2.68015 0.855223 -1.17238 0
M  V30 10 H 3.0649 0.68566 -0.651251 0
M  V30 11 H 3.227 -0.594787 0.560331 0
M  V30 12 H -1.54043 -1.71651 0.552265 0
M  V30 END ATOM
M  V30 BEGIN BOND
M  V30 1 1 1 2
M  V30 2 2 2 3
M  V30 3 1 3 4
M  V30 4 1 4 5
M  V30 5 2 4 6
M  V30 6 1 6 7
M  V30 7 1 7 2
M  V30 8 1 1 8
M  V30 9 1 1 9
M  V30 10 1 5 10
M  V30 11 1 5 11
M  V30 12 1 7 12
M  V30 END BOND
M  V30 END CTAB
M  END
