
     RDKit          3D

  0  0  0  0  0  0  0  0  0  0999 V3000
M  V30 BEGIN CTAB
M  V30 COUNTS 25 26 0 0 0
M  V30 BEGIN ATOM
M  V30 1 N -2.49656 -1.68627 -0.796083 0
M  V30 2 C -2.86648 -0.330867 -0.620756 0
M  V30 3 N -3.94021 0.267585 -1.00489 0
M  V30 4 N -3.92946 1.61357 -0.639089 0
M  V30 5 C -2.84474 1.90772 -0.0104153 0
M  V30 6 N -2.54898 3.19481 0.484106 0
M  V30 7 C -2.06457 0.687425 0.0584095 0
M  V30 8 N -0.912467 0.591465 0.616795 0
M  V30 9 N -0.153758 -0.556577 0.69407 0
M  V30 10 C 1.2386 -0.575316 0.394953 0
M  V30 11 C 1.96637 -1.72824 0.480153 0
M  V30 12 C 3.3141 -1.76086 0.193655 0
M  V30 13 Cl 4.15133 -3.30285 0.337252 0
M  V30 14 C 3.9637 -0.605958 -0.191809 0
M  V30 15 Cl 5.67944 -0.67448 -0.550825 0
M  V30 16 C 3.23313 0.551163 -0.277287 0
M  V30 17 C 1.88352 0.581235 0.010164 0
M  V30 18 H -2.63322 -2.37015 -0.0197313 0
M  V30 19 H -2.08361 -2.05052 -1.68192 0
M  V30 20 H -2.45524 3.35938 1.49783 0
M  V30 21 H -2.42524 3.97922 -0.174902 0
M  V30 22 H -0.627107 -1.44064 0.983764 0
M  V30 23 H 1.4658 -2.6589 0.78579 0
M  V30 24 H 3.74787 1.47488 -0.584538 0
M  V30 25 H 1.33777 1.53317 -0.0721799 0
M  V30 END ATOM
M  V30 BEGIN BOND
M  V30 1 1 1 2
M  V30 2 2 2 3
M  V30 3 1 3 4
M  V30 4 2 4 5
M  V30 5 1 5 6
M  V30 6 1 5 7
M  V30 7 2 7 8
M  V30 8 1 8 9
M  V30 9 1 9 10
M  V30 10 2 10 11
M  V30 11 1 11 12
M  V30 12 1 12 13
M  V30 13 2 12 14
M  V30 14 1 14 15
M  V30 15 1 14 16
M  V30 16 2 16 17
M  V30 17 1 7 2
M  V30 18 1 17 10
M  V30 19 1 1 18
M  V30 20 1 1 19
M  V30 21 1 6 20
M  V30 22 1 6 21
M  V30 23 1 9 22
M  V30 24 1 11 23
M  V30 25 1 16 24
M  V30 26 1 17 25
M  V30 END BOND
M  V30 END CTAB
M  END
