
     RDKit          3D

  0  0  0  0  0  0  0  0  0  0999 V3000
M  V30 BEGIN CTAB
M  V30 COUNTS 49 50 0 0 0
M  V30 BEGIN ATOM
M  V30 1 N 1.87754 -2.3587 -0.090698 0
M  V30 2 C 2.66499 -1.24182 -0.576465 0
M  V30 3 C 3.86814 -1.1525 0.348375 0
M  V30 4 C 4.7991 -0.0604742 0.346819 0
M  V30 5 C 4.64561 1.1721 1.21544 0
M  V30 6 C 3.25353 1.8598 1.04841 0
M  V30 7 C 2.46712 0.985947 0.249628 0
M  V30 8 C 1.80985 0.0720381 -0.563041 0
M  V30 9 N 0.448873 -0.367057 -0.2994 0
M  V30 10 C -0.459765 0.721819 -0.360031 0
M  V30 11 C -1.88169 0.290802 -0.385013 0
M  V30 12 N -2.19086 -0.549798 -1.53001 0
M  V30 13 C -2.73076 1.55557 -0.563665 0
M  V30 14 C -4.05012 1.14347 -1.14145 0
M  V30 15 C -4.87568 0.557738 -0.0110332 0
M  V30 16 C -4.69047 -0.900515 0.195209 0
M  V30 17 C -3.3932 -1.37274 0.701919 0
M  V30 18 C -2.29969 -0.360798 0.876678 0
M  V30 19 H 1.58873 -2.91451 -0.943716 0
M  V30 20 H 2.39252 -2.95942 0.598465 0
M  V30 21 H 3.03058 -1.36517 -1.59432 0
M  V30 22 H 3.56252 -1.43334 1.40862 0
M  V30 23 H 4.44186 -2.08842 0.0404472 0
M  V30 24 H 5.79931 -0.463014 0.728271 0
M  V30 25 H 5.09359 0.202301 -0.719633 0
M  V30 26 H 5.409 1.88535 0.84081 0
M  V30 27 H 4.83275 0.916261 2.25119 0
M  V30 28 H 2.88215 2.10242 2.06733 0
M  V30 29 H 3.40729 2.89999 0.622208 0
M  V30 30 H 3.28439 1.05031 -0.54506 0
M  V30 31 H 2.46925 0.246648 1.08002 0
M  V30 32 H 1.68257 0.400991 -1.66048 0
M  V30 33 H 0.451508 -0.871525 0.627508 0
M  V30 34 H -0.197471 1.41525 -1.20278 0
M  V30 35 H -0.260103 1.35803 0.554596 0
M  V30 36 H -1.84877 -0.128311 -2.42717 0
M  V30 37 H -1.85549 -1.52777 -1.399 0
M  V30 38 H -2.18878 2.3222 -1.16526 0
M  V30 39 H -2.89862 1.93426 0.483176 0
M  V30 40 H -4.57256 2.0429 -1.59427 0
M  V30 41 H -4.01288 0.411085 -1.9481 0
M  V30 42 H -5.9526 0.689847 -0.346174 0
M  V30 43 H -4.79299 1.15675 0.906672 0
M  V30 44 H -4.88598 -1.39403 -0.801913 0
M  V30 45 H -5.54721 -1.24736 0.833534 0
M  V30 46 H -2.998 -2.25581 0.11992 0
M  V30 47 H -3.56776 -1.80946 1.72988 0
M  V30 48 H -2.59015 0.360548 1.66307 0
M  V30 49 H -1.4212 -0.93187 1.28198 0
M  V30 END ATOM
M  V30 BEGIN BOND
M  V30 1 1 1 2
M  V30 2 1 2 3
M  V30 3 1 3 4
M  V30 4 1 4 5
M  V30 5 1 5 6
M  V30 6 1 6 7
M  V30 7 1 7 8
M  V30 8 1 8 9
M  V30 9 1 9 10
M  V30 10 1 10 11
M  V30 11 1 11 12
M  V30 12 1 11 13
M  V30 13 1 13 14
M  V30 14 1 14 15
M  V30 15 1 15 16
M  V30 16 1 16 17
M  V30 17 1 17 18
M  V30 18 1 8 2
M  V30 19 1 18 11
M  V30 20 1 1 19
M  V30 21 1 1 20
M  V30 22 1 2 21
M  V30 23 1 3 22
M  V30 24 1 3 23
M  V30 25 1 4 24
M  V30 26 1 4 25
M  V30 27 1 5 26
M  V30 28 1 5 27
M  V30 29 1 6 28
M  V30 30 1 6 29
M  V30 31 1 7 30
M  V30 32 1 7 31
M  V30 33 1 8 32
M  V30 34 1 9 33
M  V30 35 1 10 34
M  V30 36 1 10 35
M  V30 37 1 12 36
M  V30 38 1 12 37
M  V30 39 1 13 38
M  V30 40 1 13 39
M  V30 41 1 14 40
M  V30 42 1 14 41
M  V30 43 1 15 42
M  V30 44 1 15 43
M  V30 45 1 16 44
M  V30 46 1 16 45
M  V30 47 1 17 46
M  V30 48 1 17 47
M  V30 49 1 18 48
M  V30 50 1 18 49
M  V30 END BOND
M  V30 END CTAB
M  END
