
     RDKit          3D

  0  0  0  0  0  0  0  0  0  0999 V3000
M  V30 BEGIN CTAB
M  V30 COUNTS 20 19 0 0 0
M  V30 BEGIN ATOM
M  V30 1 N -0.71789 0.370507 1.92708 0
M  V30 2 C -0.0485797 0.700048 0.688052 0
M  V30 3 C -0.832405 0.189062 -0.435917 0
M  V30 4 O -0.455277 0.351218 -1.61712 0
M  V30 5 N -2.04247 -0.504608 -0.21253 0
M  V30 6 N -2.82465 -1.01098 -1.26088 0
M  V30 7 C 1.35838 0.168115 0.732473 0
M  V30 8 C 2.1288 0.451043 -0.484862 0
M  V30 9 C 2.61057 -0.560894 -1.19236 0
M  V30 10 H -1.43994 1.07343 2.15833 0
M  V30 11 H -0.0809541 0.197474 2.71342 0
M  V30 12 H 0.0433936 1.82319 0.675371 0
M  V30 13 H -2.39482 -0.66296 0.749288 0
M  V30 14 H -3.78713 -1.20263 -0.967261 0
M  V30 15 H -2.74292 -0.419135 -2.10309 0
M  V30 16 H 1.31778 -0.926193 0.888045 0
M  V30 17 H 1.93459 0.572051 1.58935 0
M  V30 18 H 2.33767 1.44742 -0.856433 0
M  V30 19 H 3.18996 -0.447398 -2.10336 0
M  V30 20 H 2.4459 -1.60876 -0.88759 0
M  V30 END ATOM
M  V30 BEGIN BOND
M  V30 1 1 1 2
M  V30 2 1 2 3
M  V30 3 2 3 4
M  V30 4 1 3 5
M  V30 5 1 5 6
M  V30 6 1 2 7
M  V30 7 1 7 8
M  V30 8 2 8 9 CFG=2
M  V30 9 1 1 10
M  V30 10 1 1 11
M  V30 11 1 2 12
M  V30 12 1 5 13
M  V30 13 1 6 14
M  V30 14 1 6 15
M  V30 15 1 7 16
M  V30 16 1 7 17
M  V30 17 1 8 18
M  V30 18 1 9 19
M  V30 19 1 9 20
M  V30 END BOND
M  V30 END CTAB
M  END
