
     RDKit          3D

  0  0  0  0  0  0  0  0  0  0999 V3000
M  V30 BEGIN CTAB
M  V30 COUNTS 21 21 0 0 0
M  V30 BEGIN ATOM
M  V30 1 N -1.02606 -1.7927 -1.16701 0
M  V30 2 C -1.28961 -0.606682 -0.426274 0
M  V30 3 C -2.48835 0.0688411 -0.529993 0
M  V30 4 C -2.73469 1.21852 0.192653 0
M  V30 5 C -1.75004 1.70284 1.04265 0
M  V30 6 C -0.561645 1.0076 1.12668 0
M  V30 7 C -0.295381 -0.140766 0.414993 0
M  V30 8 N 0.959572 -0.827915 0.538441 0
M  V30 9 S 2.30515 -0.471244 -0.464506 0
M  V30 10 O 1.79668 -0.035327 -1.81553 0
M  V30 11 O 3.16062 -1.70064 -0.708666 0
M  V30 12 N 3.3028 0.759978 0.221134 0
M  V30 13 F 0.43714 1.45232 1.95458 0
M  V30 14 H -0.752672 -1.70748 -2.16831 0
M  V30 15 H -1.10288 -2.72787 -0.724272 0
M  V30 16 H -3.27198 -0.281074 -1.1803 0
M  V30 17 H -3.66582 1.77032 0.132018 0
M  V30 18 H -1.90292 2.60832 1.63243 0
M  V30 19 H 1.05181 -1.56965 1.26521 0
M  V30 20 H 3.73056 0.343558 1.09871 0
M  V30 21 H 4.09772 0.929048 -0.434648 0
M  V30 END ATOM
M  V30 BEGIN BOND
M  V30 1 1 1 2
M  V30 2 2 2 3
M  V30 3 1 3 4
M  V30 4 2 4 5
M  V30 5 1 5 6
M  V30 6 2 6 7
M  V30 7 1 7 8
M  V30 8 1 8 9
M  V30 9 2 9 10
M  V30 10 2 9 11
M  V30 11 1 9 12
M  V30 12 1 6 13
M  V30 13 1 7 2
M  V30 14 1 1 14
M  V30 15 1 1 15
M  V30 16 1 3 16
M  V30 17 1 4 17
M  V30 18 1 5 18
M  V30 19 1 8 19
M  V30 20 1 12 20
M  V30 21 1 12 21
M  V30 END BOND
M  V30 END CTAB
M  END
