
     RDKit          3D

  0  0  0  0  0  0  0  0  0  0999 V3000
M  V30 BEGIN CTAB
M  V30 COUNTS 41 42 0 0 0
M  V30 BEGIN ATOM
M  V30 1 C 5.19429 -1.87397 1.52063 0
M  V30 2 C 5.90005 -0.682201 0.940659 0
M  V30 3 C 4.88317 0.428622 0.833954 0
M  V30 4 N 4.5988 1.34146 1.75561 0
M  V30 5 N 3.65679 2.13626 1.28611 0
M  V30 6 C 3.30883 1.74087 0.0238462 0
M  V30 7 N 4.09566 0.673674 -0.221336 0
M  V30 8 N 4.08724 -0.0669133 -1.40735 0
M  V30 9 S 2.14964 2.42352 -1.08281 0
M  V30 10 C 0.499208 1.83778 -1.00202 0
M  V30 11 C 0.0481784 0.886068 -0.131022 0
M  V30 12 N 0.948281 0.303915 0.798852 0
M  V30 13 C -1.2934 0.471985 -0.135363 0
M  V30 14 C -2.20749 0.997156 -1.00505 0
M  V30 15 C -1.75169 1.95504 -1.88096 0
M  V30 16 C -0.446974 2.37403 -1.89429 0
M  V30 17 Cl 0.110981 3.59991 -3.02344 0
M  V30 18 C -3.59814 0.565392 -1.00652 0
M  V30 19 O -4.44527 1.04927 -1.80955 0
M  V30 20 O -3.98901 -0.403745 -0.0964226 0
M  V30 21 C -5.32067 -0.873449 -0.0374156 0
M  V30 22 C -5.91663 -0.568792 1.33663 0
M  V30 23 C -5.33288 -2.34425 -0.327483 0
M  V30 24 H 5.07707 -2.66459 0.761564 0
M  V30 25 H 5.81901 -2.27939 2.33909 0
M  V30 26 H 4.19133 -1.60188 1.935 0
M  V30 27 H 6.76208 -0.342832 1.52723 0
M  V30 28 H 6.21968 -0.919297 -0.0950705 0
M  V30 29 H 4.25727 0.411143 -2.30896 0
M  V30 30 H 3.91333 -1.0749 -1.37588 0
M  V30 31 H 1.49842 -0.548694 0.595221 0
M  V30 32 H 1.04765 0.75098 1.72812 0
M  V30 33 H -1.56217 -0.287031 0.589733 0
M  V30 34 H -2.4265 2.42455 -2.61085 0
M  V30 35 H -5.90608 -0.334795 -0.812435 0
M  V30 36 H -5.7114 0.509829 1.56435 0
M  V30 37 H -7.01677 -0.663616 1.3238 0
M  V30 38 H -5.41641 -1.15297 2.11238 0
M  V30 39 H -4.31082 -2.68441 -0.575151 0
M  V30 40 H -5.66584 -2.96084 0.533891 0
M  V30 41 H -5.94882 -2.5529 -1.23725 0
M  V30 END ATOM
M  V30 BEGIN BOND
M  V30 1 1 1 2
M  V30 2 1 2 3
M  V30 3 2 3 4
M  V30 4 1 4 5
M  V30 5 2 5 6
M  V30 6 1 6 7
M  V30 7 1 7 8
M  V30 8 1 6 9
M  V30 9 1 9 10
M  V30 10 2 10 11
M  V30 11 1 11 12
M  V30 12 1 11 13
M  V30 13 2 13 14
M  V30 14 1 14 15
M  V30 15 2 15 16
M  V30 16 1 16 17
M  V30 17 1 14 18
M  V30 18 2 18 19
M  V30 19 1 18 20
M  V30 20 1 20 21
M  V30 21 1 21 22
M  V30 22 1 21 23
M  V30 23 1 7 3
M  V30 24 1 16 10
M  V30 25 1 1 24
M  V30 26 1 1 25
M  V30 27 1 1 26
M  V30 28 1 2 27
M  V30 29 1 2 28
M  V30 30 1 8 29
M  V30 31 1 8 30
M  V30 32 1 12 31
M  V30 33 1 12 32
M  V30 34 1 13 33
M  V30 35 1 15 34
M  V30 36 1 21 35
M  V30 37 1 22 36
M  V30 38 1 22 37
M  V30 39 1 22 38
M  V30 40 1 23 39
M  V30 41 1 23 40
M  V30 42 1 23 41
M  V30 END BOND
M  V30 END CTAB
M  END
