
     RDKit          3D

  0  0  0  0  0  0  0  0  0  0999 V3000
M  V30 BEGIN CTAB
M  V30 COUNTS 26 25 0 0 0
M  V30 BEGIN ATOM
M  V30 1 C 0.565097 2.41423 0.429869 0
M  V30 2 C -0.64929 1.54337 0.443536 0
M  V30 3 C -0.343626 0.129728 -0.0114486 0
M  V30 4 C -1.66969 -0.624953 0.0573989 0
M  V30 5 N -2.65809 -0.019817 -0.801992 0
M  V30 6 C -1.48478 -2.06012 -0.403931 0
M  V30 7 N 0.629514 -0.401761 0.880097 0
M  V30 8 S 2.08457 -0.902728 0.166095 0
M  V30 9 O 2.64259 -2.02547 1.0315 0
M  V30 10 O 1.84654 -1.4882 -1.19149 0
M  V30 11 N 3.2861 0.307883 0.0810337 0
M  V30 12 H 0.229562 3.49231 0.463943 0
M  V30 13 H 1.20886 2.18589 1.28696 0
M  V30 14 H 1.05801 2.28782 -0.557588 0
M  V30 15 H -1.03689 1.45614 1.49958 0
M  V30 16 H -1.46851 1.95322 -0.183698 0
M  V30 17 H 0.00408377 0.137097 -1.06745 0
M  V30 18 H -2.06102 -0.600866 1.08855 0
M  V30 19 H -2.17768 0.489267 -1.5802 0
M  V30 20 H -3.3733 -0.685134 -1.12273 0
M  V30 21 H -0.564507 -2.46886 0.0826353 0
M  V30 22 H -2.31043 -2.70917 -0.0646686 0
M  V30 23 H -1.44398 -2.12749 -1.50877 0
M  V30 24 H 0.212272 -1.15621 1.4379 0
M  V30 25 H 3.24124 0.889398 -0.779627 0
M  V30 26 H 4.23334 -0.0155699 0.324501 0
M  V30 END ATOM
M  V30 BEGIN BOND
M  V30 1 1 1 2
M  V30 2 1 2 3
M  V30 3 1 3 4
M  V30 4 1 4 5
M  V30 5 1 4 6
M  V30 6 1 3 7
M  V30 7 1 7 8
M  V30 8 2 8 9
M  V30 9 2 8 10
M  V30 10 1 8 11
M  V30 11 1 1 12
M  V30 12 1 1 13
M  V30 13 1 1 14
M  V30 14 1 2 15
M  V30 15 1 2 16
M  V30 16 1 3 17
M  V30 17 1 4 18
M  V30 18 1 5 19
M  V30 19 1 5 20
M  V30 20 1 6 21
M  V30 21 1 6 22
M  V30 22 1 6 23
M  V30 23 1 7 24
M  V30 24 1 11 25
M  V30 25 1 11 26
M  V30 END BOND
M  V30 END CTAB
M  END
