
     RDKit          3D

  0  0  0  0  0  0  0  0  0  0999 V3000
M  V30 BEGIN CTAB
M  V30 COUNTS 37 36 0 0 0
M  V30 BEGIN ATOM
M  V30 1 C 2.61729 1.12266 1.58086 0
M  V30 2 C 3.30391 0.165674 0.673143 0
M  V30 3 C 2.55524 -1.09328 0.378029 0 CFG=1
M  V30 4 C 1.24459 -0.900282 -0.277151 0
M  V30 5 O 1.16208 -1.2537 -1.50362 0
M  V30 6 N 0.121114 -0.358567 0.38688 0
M  V30 7 C -1.17633 -0.143198 -0.181768 0
M  V30 8 C -1.82129 -1.41123 -0.674175 0
M  V30 9 N -2.01496 -2.39074 0.349305 0
M  V30 10 C -1.08132 0.8168 -1.33318 0
M  V30 11 C -0.54627 2.16859 -0.975082 0
M  V30 12 C -2.08394 0.494195 0.857381 0
M  V30 13 C -3.45294 0.741252 0.322606 0
M  V30 14 N 3.41226 -1.85326 -0.548786 0
M  V30 15 H 2.21876 0.677438 2.49439 0
M  V30 16 H 1.83021 1.65199 1.02369 0
M  V30 17 H 3.32538 1.93009 1.92525 0
M  V30 18 H 4.28603 -0.11154 1.13457 0
M  V30 19 H 3.59163 0.643734 -0.303789 0
M  V30 20 H 2.44616 -1.67235 1.33339 0
M  V30 21 H 0.252843 -0.0927747 1.40767 0
M  V30 22 H -2.78519 -1.15532 -1.19839 0
M  V30 23 H -1.16412 -1.85377 -1.44537 0
M  V30 24 H -2.88827 -2.30388 0.877072 0
M  V30 25 H -2.03286 -3.33589 -0.114479 0
M  V30 26 H -0.426025 0.441512 -2.16788 0
M  V30 27 H -2.08731 0.923472 -1.83864 0
M  V30 28 H -1.34405 2.94231 -1.17971 0
M  V30 29 H 0.331627 2.47957 -1.58748 0
M  V30 30 H -0.265741 2.30325 0.0665947 0
M  V30 31 H -1.67983 1.43014 1.23787 0
M  V30 32 H -2.17823 -0.188226 1.74441 0
M  V30 33 H -4.02087 -0.194838 0.0683442 0
M  V30 34 H -3.52939 1.41214 -0.532307 0
M  V30 35 H -4.10048 1.20888 1.12914 0
M  V30 36 H 4.30186 -2.03134 -0.00952965 0
M  V30 37 H 3.67843 -1.20953 -1.32796 0
M  V30 END ATOM
M  V30 BEGIN BOND
M  V30 1 1 1 2
M  V30 2 1 2 3
M  V30 3 1 3 4
M  V30 4 2 4 5
M  V30 5 1 4 6
M  V30 6 1 6 7
M  V30 7 1 7 8
M  V30 8 1 8 9
M  V30 9 1 7 10
M  V30 10 1 10 11
M  V30 11 1 7 12
M  V30 12 1 12 13
M  V30 13 1 3 14
M  V30 14 1 1 15
M  V30 15 1 1 16
M  V30 16 1 1 17
M  V30 17 1 2 18
M  V30 18 1 2 19
M  V30 19 1 3 20 CFG=1
M  V30 20 1 6 21
M  V30 21 1 8 22
M  V30 22 1 8 23
M  V30 23 1 9 24
M  V30 24 1 9 25
M  V30 25 1 10 26
M  V30 26 1 10 27
M  V30 27 1 11 28
M  V30 28 1 11 29
M  V30 29 1 11 30
M  V30 30 1 12 31
M  V30 31 1 12 32
M  V30 32 1 13 33
M  V30 33 1 13 34
M  V30 34 1 13 35
M  V30 35 1 14 36
M  V30 36 1 14 37
M  V30 END BOND
M  V30 END CTAB
M  END
