
     RDKit          3D

  0  0  0  0  0  0  0  0  0  0999 V3000
M  V30 BEGIN CTAB
M  V30 COUNTS 30 31 0 0 0
M  V30 BEGIN ATOM
M  V30 1 C -2.15157 1.87051 1.15264 0
M  V30 2 C -1.07467 0.86777 1.40587 0
M  V30 3 N -0.801227 -0.0350266 0.325825 0
M  V30 4 C 0.422199 0.0205728 -0.375011 0
M  V30 5 N 0.544429 0.285728 -1.67288 0
M  V30 6 C 1.70521 0.342639 -2.35039 0
M  V30 7 C 2.88216 0.111822 -1.67337 0
M  V30 8 C 2.8351 -0.168388 -0.328425 0
M  V30 9 C 1.6164 -0.214228 0.316912 0
M  V30 10 N 1.51603 -0.503899 1.71453 0
M  V30 11 N 4.02268 -0.413969 0.414142 0
M  V30 12 C -1.76849 -1.02558 -0.0641563 0
M  V30 13 C -3.12352 -0.667076 -0.548986 0
M  V30 14 C -2.11997 -1.30948 -1.46813 0
M  V30 15 H -3.13686 1.4136 1.3319 0
M  V30 16 H -2.0875 2.32364 0.16225 0
M  V30 17 H -2.00857 2.71868 1.88587 0
M  V30 18 H -0.155474 1.45808 1.69909 0
M  V30 19 H -1.34368 0.325944 2.35561 0
M  V30 20 H 1.74044 0.56735 -3.42849 0
M  V30 21 H 3.82018 0.159903 -2.22938 0
M  V30 22 H 1.80044 0.227086 2.391 0
M  V30 23 H 1.1742 -1.40507 2.0934 0
M  V30 24 H 4.56104 -1.29134 0.281676 0
M  V30 25 H 4.32672 0.316892 1.09154 0
M  V30 26 H -1.69912 -1.96259 0.576223 0
M  V30 27 H -3.96016 -1.29319 -0.16804 0
M  V30 28 H -3.41858 0.356828 -0.793047 0
M  V30 29 H -2.38375 -2.35046 -1.76844 0
M  V30 30 H -1.73407 -0.726748 -2.32973 0
M  V30 END ATOM
M  V30 BEGIN BOND
M  V30 1 1 1 2
M  V30 2 1 2 3
M  V30 3 1 3 4
M  V30 4 2 4 5
M  V30 5 1 5 6
M  V30 6 2 6 7
M  V30 7 1 7 8
M  V30 8 2 8 9
M  V30 9 1 9 10
M  V30 10 1 8 11
M  V30 11 1 3 12
M  V30 12 1 12 13
M  V30 13 1 13 14
M  V30 14 1 9 4
M  V30 15 1 14 12
M  V30 16 1 1 15
M  V30 17 1 1 16
M  V30 18 1 1 17
M  V30 19 1 2 18
M  V30 20 1 2 19
M  V30 21 1 6 20
M  V30 22 1 7 21
M  V30 23 1 10 22
M  V30 24 1 10 23
M  V30 25 1 11 24
M  V30 26 1 11 25
M  V30 27 1 12 26
M  V30 28 1 13 27
M  V30 29 1 13 28
M  V30 30 1 14 29
M  V30 31 1 14 30
M  V30 END BOND
M  V30 END CTAB
M  END
