
     RDKit          3D

  0  0  0  0  0  0  0  0  0  0999 V3000
M  V30 BEGIN CTAB
M  V30 COUNTS 25 25 0 0 0
M  V30 BEGIN ATOM
M  V30 1 C 3.39417 -0.0541854 -0.541793 0
M  V30 2 C 1.9377 0.275983 -0.368354 0
M  V30 3 N 1.47894 1.52769 -0.531185 0
M  V30 4 C 0.181522 1.84022 -0.38016 0
M  V30 5 C -0.758303 0.904678 -0.0505937 0
M  V30 6 C -2.20298 1.23019 0.121878 0
M  V30 7 N -2.48079 2.62126 -0.096747 0
M  V30 8 C -0.341109 -0.39533 0.128129 0
M  V30 9 C -1.32791 -1.45444 0.488686 0
M  V30 10 N -0.651791 -2.72425 0.619782 0
M  V30 11 C 1.0146 -0.693292 -0.035109 0
M  V30 12 O 1.43248 -1.99164 0.143177 0
M  V30 13 H 3.57 -0.664665 -1.44284 0
M  V30 14 H 3.79103 -0.597365 0.347242 0
M  V30 15 H 3.95451 0.901872 -0.583412 0
M  V30 16 H -0.146751 2.85986 -0.520156 0
M  V30 17 H -2.49398 1.01572 1.1925 0
M  V30 18 H -2.83332 0.550132 -0.488689 0
M  V30 19 H -2.12961 3.00839 -0.975368 0
M  V30 20 H -2.05117 3.16626 0.683929 0
M  V30 21 H -2.07162 -1.51436 -0.315947 0
M  V30 22 H -1.85141 -1.14985 1.41186 0
M  V30 23 H -0.750853 -3.23679 -0.27474 0
M  V30 24 H -1.07266 -3.21368 1.4412 0
M  V30 25 H 2.40929 -2.2124 0.0267127 0
M  V30 END ATOM
M  V30 BEGIN BOND
M  V30 1 1 1 2
M  V30 2 2 2 3
M  V30 3 1 3 4
M  V30 4 2 4 5
M  V30 5 1 5 6
M  V30 6 1 6 7
M  V30 7 1 5 8
M  V30 8 1 8 9
M  V30 9 1 9 10
M  V30 10 2 8 11
M  V30 11 1 11 12
M  V30 12 1 11 2
M  V30 13 1 1 13
M  V30 14 1 1 14
M  V30 15 1 1 15
M  V30 16 1 4 16
M  V30 17 1 6 17
M  V30 18 1 6 18
M  V30 19 1 7 19
M  V30 20 1 7 20
M  V30 21 1 9 21
M  V30 22 1 9 22
M  V30 23 1 10 23
M  V30 24 1 10 24
M  V30 25 1 12 25
M  V30 END BOND
M  V30 END CTAB
M  END
