
     RDKit          3D

  0  0  0  0  0  0  0  0  0  0999 V3000
M  V30 BEGIN CTAB
M  V30 COUNTS 72 71 0 0 0
M  V30 BEGIN ATOM
M  V30 1 C -4.10244 1.24452 -1.84967 0
M  V30 2 C -5.43318 0.694531 -1.78976 0
M  V30 3 C -6.24686 1.54264 -0.742807 0
M  V30 4 C -5.75908 -0.716226 -1.56941 0
M  V30 5 C -5.43558 -1.46213 -0.34826 0 CFG=2
M  V30 6 N -4.16834 -1.8444 0.10029 0
M  V30 7 C -3.057 -1.29261 0.737124 0
M  V30 8 O -2.93545 -0.126167 1.0559 0
M  V30 9 C -1.87321 -2.21464 1.06458 0 CFG=2
M  V30 10 C -1.90801 -2.72735 2.44178 0
M  V30 11 C -1.88482 -1.9654 3.65949 0
M  V30 12 C -2.91305 -0.990052 4.01442 0
M  V30 13 O -4.25467 -1.35549 4.12505 0
M  V30 14 O -2.62516 0.203609 4.23291 0
M  V30 15 N -0.72088 -1.69179 0.504823 0
M  V30 16 C 0.248103 -0.703813 0.813977 0
M  V30 17 O 0.173443 -0.0645893 1.81583 0
M  V30 18 C 1.39598 -0.495744 -0.198291 0 CFG=2
M  V30 19 C 2.12659 -1.81925 -0.144976 0
M  V30 20 C 2.66424 -2.09614 1.21408 0
M  V30 21 O 2.65568 -1.22787 2.27783 0
M  V30 22 O 3.19518 -3.23809 1.46165 0
M  V30 23 N 2.21911 0.551728 0.0835313 0
M  V30 24 C 3.00788 1.63601 0.395897 0
M  V30 25 O 2.72904 2.62409 1.08255 0
M  V30 26 C 4.42726 1.69376 -0.168653 0 CFG=1
M  V30 27 N 4.5983 0.615886 -1.06481 0
M  V30 28 C 4.4221 2.97443 -1.05802 0
M  V30 29 C 5.75287 3.13172 -1.71127 0
M  V30 30 C 6.91526 3.18749 -0.773244 0
M  V30 31 C 8.20026 3.40332 -1.57792 0
M  V30 32 N 8.14897 4.66633 -2.27375 0
M  V30 33 C -6.37908 -2.61548 -0.274589 0
M  V30 34 O -7.67682 -2.4155 -0.759033 0
M  V30 35 O -6.03122 -3.70354 0.197979 0
M  V30 36 H -3.72787 1.62829 -0.887044 0
M  V30 37 H -3.34306 0.517469 -2.24203 0
M  V30 38 H -4.06217 2.10311 -2.62333 0
M  V30 39 H -5.97997 0.998776 -2.76262 0
M  V30 40 H -5.55129 1.78806 0.0668099 0
M  V30 41 H -6.61633 2.43757 -1.25601 0
M  V30 42 H -7.05988 0.890243 -0.34855 0
M  V30 43 H -5.26931 -1.30025 -2.43271 0
M  V30 44 H -6.86027 -0.846424 -1.85889 0
M  V30 45 H -5.80083 -0.720213 0.536512 0
M  V30 46 H -3.93881 -2.94772 -0.144326 0
M  V30 47 H -2.14073 -3.15158 0.437652 0
M  V30 48 H -1.14048 -3.55545 2.50307 0
M  V30 49 H -2.88138 -3.37116 2.49285 0
M  V30 50 H -1.96682 -2.75422 4.52536 0
M  V30 51 H -0.84251 -1.57231 3.91057 0
M  V30 52 H -4.71024 -2.04338 3.5529 0
M  V30 53 H -0.476081 -2.14983 -0.482541 0
M  V30 54 H 0.839294 -0.411426 -1.19164 0
M  V30 55 H 1.46339 -2.656 -0.448821 0
M  V30 56 H 3.00292 -1.87896 -0.867336 0
M  V30 57 H 3.545 -0.717131 2.49903 0
M  V30 58 H 1.13002 1.25522 0.540953 0
M  V30 59 H 5.15023 1.89224 0.595044 0
M  V30 60 H 3.77344 0.48218 -1.68335 0
M  V30 61 H 5.03514 -0.244448 -0.728163 0
M  V30 62 H 3.67038 2.66205 -1.85254 0
M  V30 63 H 4.08292 3.83281 -0.504387 0
M  V30 64 H 5.918 2.40433 -2.54273 0
M  V30 65 H 5.72944 4.1408 -2.25556 0
M  V30 66 H 7.01331 2.16226 -0.303026 0
M  V30 67 H 6.84684 3.99457 -0.0458769 0
M  V30 68 H 9.04097 3.41061 -0.886628 0
M  V30 69 H 8.3053 2.53001 -2.26611 0
M  V30 70 H 9.14347 4.94896 -2.4256 0
M  V30 71 H 7.68876 4.63122 -3.20769 0
M  V30 72 H -8.48618 -2.9047 -0.388482 0
M  V30 END ATOM
M  V30 BEGIN BOND
M  V30 1 1 1 2
M  V30 2 1 2 3
M  V30 3 1 2 4
M  V30 4 1 4 5
M  V30 5 1 5 6
M  V30 6 1 6 7
M  V30 7 2 7 8
M  V30 8 1 7 9
M  V30 9 1 9 10
M  V30 10 1 10 11
M  V30 11 1 11 12
M  V30 12 1 12 13
M  V30 13 2 12 14
M  V30 14 1 9 15
M  V30 15 1 15 16
M  V30 16 2 16 17
M  V30 17 1 16 18
M  V30 18 1 18 19
M  V30 19 1 19 20
M  V30 20 1 20 21
M  V30 21 2 20 22
M  V30 22 1 18 23
M  V30 23 1 23 24
M  V30 24 2 24 25
M  V30 25 1 24 26
M  V30 26 1 26 27
M  V30 27 1 26 28
M  V30 28 1 28 29
M  V30 29 1 29 30
M  V30 30 1 30 31
M  V30 31 1 31 32
M  V30 32 1 5 33
M  V30 33 1 33 34
M  V30 34 2 33 35
M  V30 35 1 1 36
M  V30 36 1 1 37
M  V30 37 1 1 38
M  V30 38 1 2 39
M  V30 39 1 3 40
M  V30 40 1 3 41
M  V30 41 1 3 42
M  V30 42 1 4 43
M  V30 43 1 4 44
M  V30 44 1 5 45 CFG=1
M  V30 45 1 6 46
M  V30 46 1 9 47 CFG=3
M  V30 47 1 10 48
M  V30 48 1 10 49
M  V30 49 1 11 50
M  V30 50 1 11 51
M  V30 51 1 13 52
M  V30 52 1 15 53
M  V30 53 1 18 54 CFG=3
M  V30 54 1 19 55
M  V30 55 1 19 56
M  V30 56 1 21 57
M  V30 57 1 23 58
M  V30 58 1 26 59 CFG=1
M  V30 59 1 27 60
M  V30 60 1 27 61
M  V30 61 1 28 62
M  V30 62 1 28 63
M  V30 63 1 29 64
M  V30 64 1 29 65
M  V30 65 1 30 66
M  V30 66 1 30 67
M  V30 67 1 31 68
M  V30 68 1 31 69
M  V30 69 1 32 70
M  V30 70 1 32 71
M  V30 71 1 34 72
M  V30 END BOND
M  V30 END CTAB
M  END
