
     RDKit          3D

  0  0  0  0  0  0  0  0  0  0999 V3000
M  V30 BEGIN CTAB
M  V30 COUNTS 19 20 0 0 0
M  V30 BEGIN ATOM
M  V30 1 N 3.12656 -0.0881632 -1.0431 0
M  V30 2 C 1.97294 -0.706074 -0.48537 0
M  V30 3 N 1.82673 -1.98608 -0.0898818 0
M  V30 4 N 0.59971 -2.15204 0.370576 0
M  V30 5 C -0.0934725 -0.979398 0.288417 0
M  V30 6 N 0.771339 -0.101947 -0.241669 0
M  V30 7 N 0.57149 1.25613 -0.541338 0
M  V30 8 C -1.48736 -0.725261 0.691053 0
M  V30 9 C -1.86432 0.555929 1.31148 0
M  V30 10 C -2.37836 0.181065 -0.07289 0
M  V30 11 H 3.14795 0.900952 -1.32084 0
M  V30 12 H 3.97804 -0.671026 -1.1706 0
M  V30 13 H 0.188419 1.60609 -1.44564 0
M  V30 14 H 0.818523 1.98924 0.174383 0
M  V30 15 H -2.00708 -1.64517 1.1005 0
M  V30 16 H -1.11863 1.35976 1.41508 0
M  V30 17 H -2.62422 0.518533 2.1408 0
M  V30 18 H -3.47064 -0.00718489 -0.130237 0
M  V30 19 H -1.95761 0.69466 -0.950713 0
M  V30 END ATOM
M  V30 BEGIN BOND
M  V30 1 1 1 2
M  V30 2 2 2 3
M  V30 3 1 3 4
M  V30 4 2 4 5
M  V30 5 1 5 6
M  V30 6 1 6 7
M  V30 7 1 5 8
M  V30 8 1 8 9
M  V30 9 1 9 10
M  V30 10 1 6 2
M  V30 11 1 10 8
M  V30 12 1 1 11
M  V30 13 1 1 12
M  V30 14 1 7 13
M  V30 15 1 7 14
M  V30 16 1 8 15
M  V30 17 1 9 16
M  V30 18 1 9 17
M  V30 19 1 10 18
M  V30 20 1 10 19
M  V30 END BOND
M  V30 END CTAB
M  END
