
     RDKit          3D

  0  0  0  0  0  0  0  0  0  0999 V3000
M  V30 BEGIN CTAB
M  V30 COUNTS 17 17 0 0 0
M  V30 BEGIN ATOM
M  V30 1 N -2.8052 -0.845912 -0.156393 0
M  V30 2 N -1.78396 -0.167729 0.463556 0
M  V30 3 C -0.384666 -0.286471 0.201001 0
M  V30 4 N 0.195278 -1.48577 0.119078 0
M  V30 5 N 1.50457 -1.64956 -0.110634 0
M  V30 6 C 2.3329 -0.602717 -0.27623 0
M  V30 7 O 3.55617 -0.792364 -0.489392 0
M  V30 8 C 1.76694 0.655121 -0.196679 0
M  V30 9 C 0.399319 0.851317 0.0445946 0
M  V30 10 N -0.164121 2.13568 0.107605 0
M  V30 11 H -2.64421 -1.1694 -1.10078 0
M  V30 12 H -3.51535 -1.28403 0.42634 0
M  V30 13 H -2.03825 0.514972 1.21524 0
M  V30 14 H 1.93985 -2.60679 -0.181587 0
M  V30 15 H 2.40937 1.50876 -0.336469 0
M  V30 16 H -0.963337 2.31925 0.743186 0
M  V30 17 H 0.194706 2.90565 -0.472439 0
M  V30 END ATOM
M  V30 BEGIN BOND
M  V30 1 1 1 2
M  V30 2 1 2 3
M  V30 3 2 3 4
M  V30 4 1 4 5
M  V30 5 1 5 6
M  V30 6 2 6 7
M  V30 7 1 6 8
M  V30 8 2 8 9
M  V30 9 1 9 10
M  V30 10 1 9 3
M  V30 11 1 1 11
M  V30 12 1 1 12
M  V30 13 1 2 13
M  V30 14 1 5 14
M  V30 15 1 8 15
M  V30 16 1 10 16
M  V30 17 1 10 17
M  V30 END BOND
M  V30 END CTAB
M  END
