
     RDKit          3D

  0  0  0  0  0  0  0  0  0  0999 V3000
M  V30 BEGIN CTAB
M  V30 COUNTS 21 22 0 0 0
M  V30 BEGIN ATOM
M  V30 1 N -0.884536 2.10824 0.0749694 0
M  V30 2 C -0.29192 0.882418 -0.351142 0
M  V30 3 C 1.09986 0.661226 0.199334 0
M  V30 4 C 1.72269 -0.300251 -0.749582 0
M  V30 5 C 1.07779 -1.45023 -0.563841 0
M  V30 6 C 0.0354138 -1.27352 0.495508 0
M  V30 7 C -1.05223 -0.347994 0.0936609 0
M  V30 8 N -1.96104 -0.849742 -0.877036 0
M  V30 9 C 0.846389 -0.287562 1.37098 0
M  V30 10 H -0.502069 2.88117 -0.519533 0
M  V30 11 H -0.719709 2.27948 1.06939 0
M  V30 12 H -0.274982 0.843473 -1.47745 0
M  V30 13 H 1.66053 1.52871 0.432987 0
M  V30 14 H 2.53791 -0.0826973 -1.44347 0
M  V30 15 H 1.32538 -2.34445 -1.13332 0
M  V30 16 H -0.231759 -2.1638 1.01845 0
M  V30 17 H -1.65577 -0.0164774 0.978077 0
M  V30 18 H -1.73723 -0.663657 -1.85678 0
M  V30 19 H -2.96349 -0.769462 -0.618714 0
M  V30 20 H 0.221423 0.159432 2.14779 0
M  V30 21 H 1.74735 -0.794298 1.70973 0
M  V30 END ATOM
M  V30 BEGIN BOND
M  V30 1 1 1 2
M  V30 2 1 2 3
M  V30 3 1 3 4
M  V30 4 2 4 5
M  V30 5 1 5 6
M  V30 6 1 6 7
M  V30 7 1 7 8
M  V30 8 1 6 9
M  V30 9 1 7 2
M  V30 10 1 9 3
M  V30 11 1 1 10
M  V30 12 1 1 11
M  V30 13 1 2 12
M  V30 14 1 3 13
M  V30 15 1 4 14
M  V30 16 1 5 15
M  V30 17 1 6 16
M  V30 18 1 7 17
M  V30 19 1 8 18
M  V30 20 1 8 19
M  V30 21 1 9 20
M  V30 22 1 9 21
M  V30 END BOND
M  V30 END CTAB
M  END
