
     RDKit          3D

  0  0  0  0  0  0  0  0  0  0999 V3000
M  V30 BEGIN CTAB
M  V30 COUNTS 17 16 0 0 0
M  V30 BEGIN ATOM
M  V30 1 C 3.42565 0.321466 0.13911 0
M  V30 2 C 2.45962 -0.445025 0.579006 0
M  V30 3 C 1.34816 -0.810585 -0.336774 0
M  V30 4 O 0.155384 -0.318118 0.258769 0
M  V30 5 N -1.01216 -0.543471 -0.420194 0
M  V30 6 C -2.08901 0.11698 -0.220853 0
M  V30 7 N -2.21408 1.16748 0.728163 0
M  V30 8 N -3.23913 -0.210207 -0.989699 0
M  V30 9 H 3.46999 0.711084 -0.857192 0
M  V30 10 H 4.24881 0.59695 0.804275 0
M  V30 11 H 2.43536 -0.823025 1.57801 0
M  V30 12 H 1.45477 -0.377527 -1.3431 0
M  V30 13 H 1.33774 -1.92659 -0.387118 0
M  V30 14 H -2.28206 2.17636 0.402789 0
M  V30 15 H -2.24218 0.982683 1.75009 0
M  V30 16 H -3.26019 0.157745 -1.97268 0
M  V30 17 H -3.99666 -0.776195 -0.587993 0
M  V30 END ATOM
M  V30 BEGIN BOND
M  V30 1 2 1 2 CFG=2
M  V30 2 1 2 3
M  V30 3 1 3 4
M  V30 4 1 4 5
M  V30 5 2 5 6 CFG=2
M  V30 6 1 6 7
M  V30 7 1 6 8
M  V30 8 1 1 9
M  V30 9 1 1 10
M  V30 10 1 2 11
M  V30 11 1 3 12
M  V30 12 1 3 13
M  V30 13 1 7 14
M  V30 14 1 7 15
M  V30 15 1 8 16
M  V30 16 1 8 17
M  V30 END BOND
M  V30 END CTAB
M  END
