
     RDKit          3D

  0  0  0  0  0  0  0  0  0  0999 V3000
M  V30 BEGIN CTAB
M  V30 COUNTS 26 26 0 0 0
M  V30 BEGIN ATOM
M  V30 1 N 4.88999 0.941987 -0.400267 0
M  V30 2 C 3.51242 0.662721 -0.147254 0
M  V30 3 C 2.73084 1.48118 0.640602 0
M  V30 4 C 1.4136 1.14657 0.837952 0
M  V30 5 C 0.8248 0.0286784 0.287517 0
M  V30 6 N 1.63137 -0.750611 -0.482432 0
M  V30 7 C 2.92374 -0.458398 -0.699855 0
M  V30 8 N -0.539107 -0.298486 0.504595 0
M  V30 9 C -1.18271 -1.44538 -0.0477005 0
M  V30 10 C -2.61921 -1.61542 0.262682 0
M  V30 11 S -3.69661 -0.349505 -0.266834 0
M  V30 12 O -5.09998 -0.742007 0.168513 0
M  V30 13 O -3.70632 -0.228349 -1.78019 0
M  V30 14 N -3.38543 1.19783 0.367188 0
M  V30 15 H 5.67153 0.371956 -0.0020091 0
M  V30 16 H 5.17408 1.74434 -1.00636 0
M  V30 17 H 3.19966 2.35461 1.06788 0
M  V30 18 H 0.795748 1.78326 1.45395 0
M  V30 19 H 3.54368 -1.10806 -1.32508 0
M  V30 20 H -1.08573 0.34499 1.10737 0
M  V30 21 H -0.644028 -2.34384 0.375541 0
M  V30 22 H -1.0518 -1.54494 -1.14449 0
M  V30 23 H -2.72203 -1.87325 1.33453 0
M  V30 24 H -2.95078 -2.55472 -0.274065 0
M  V30 25 H -3.90652 1.30688 1.26402 0
M  V30 26 H -3.72122 1.94795 -0.277563 0
M  V30 END ATOM
M  V30 BEGIN BOND
M  V30 1 1 1 2
M  V30 2 2 2 3
M  V30 3 1 3 4
M  V30 4 2 4 5
M  V30 5 1 5 6
M  V30 6 2 6 7
M  V30 7 1 5 8
M  V30 8 1 8 9
M  V30 9 1 9 10
M  V30 10 1 10 11
M  V30 11 2 11 12
M  V30 12 2 11 13
M  V30 13 1 11 14
M  V30 14 1 7 2
M  V30 15 1 1 15
M  V30 16 1 1 16
M  V30 17 1 3 17
M  V30 18 1 4 18
M  V30 19 1 7 19
M  V30 20 1 8 20
M  V30 21 1 9 21
M  V30 22 1 9 22
M  V30 23 1 10 23
M  V30 24 1 10 24
M  V30 25 1 14 25
M  V30 26 1 14 26
M  V30 END BOND
M  V30 END CTAB
M  END
