
     RDKit          3D

  0  0  0  0  0  0  0  0  0  0999 V3000
M  V30 BEGIN CTAB
M  V30 COUNTS 37 38 0 0 0
M  V30 BEGIN ATOM
M  V30 1 N 3.36742 -1.78004 -1.25614 0
M  V30 2 C 3.19897 -1.80844 0.18122 0
M  V30 3 C 2.79874 -0.486859 0.731952 0
M  V30 4 C 1.49097 0.0488122 0.19346 0 CFG=1
M  V30 5 C 0.33915 -0.861586 0.483326 0
M  V30 6 N -0.92062 -0.145594 0.443242 0
M  V30 7 C -2.12471 -0.867645 0.821134 0
M  V30 8 C -2.47439 -1.93024 -0.187489 0
M  V30 9 N -3.67453 -2.61612 0.244372 0
M  V30 10 C -0.985643 1.22481 0.0393057 0
M  V30 11 C 0.123325 2.03921 0.207744 0
M  V30 12 C 1.31463 1.41096 0.830279 0
M  V30 13 C 0.0928839 3.35545 -0.181901 0
M  V30 14 C -1.07255 3.83539 -0.742579 0
M  V30 15 C -2.18192 3.02963 -0.912679 0
M  V30 16 C -2.15075 1.70166 -0.519597 0
M  V30 17 H 3.95215 -0.964548 -1.53156 0
M  V30 18 H 3.82526 -2.63117 -1.61767 0
M  V30 19 H 4.21952 -2.03859 0.596531 0
M  V30 20 H 2.56058 -2.65135 0.488386 0
M  V30 21 H 3.58353 0.260262 0.483623 0
M  V30 22 H 2.74856 -0.496884 1.85102 0
M  V30 23 H 1.57477 0.168418 -0.907916 0
M  V30 24 H 0.460303 -1.42416 1.43324 0
M  V30 25 H 0.27783 -1.61038 -0.360716 0
M  V30 26 H -2.96611 -0.225813 1.07196 0
M  V30 27 H -1.85122 -1.41997 1.76842 0
M  V30 28 H -2.64448 -1.51195 -1.19952 0
M  V30 29 H -1.67053 -2.6858 -0.272237 0
M  V30 30 H -4.5038 -1.99988 0.139622 0
M  V30 31 H -3.86806 -3.47765 -0.34214 0
M  V30 32 H 1.07642 1.23291 1.91883 0
M  V30 33 H 2.22883 2.02438 0.698168 0
M  V30 34 H 0.980622 3.95203 -0.0346381 0
M  V30 35 H -1.06156 4.88806 -1.04335 0
M  V30 36 H -3.0805 3.42251 -1.35241 0
M  V30 37 H -2.98313 1.04019 -0.629114 0
M  V30 END ATOM
M  V30 BEGIN BOND
M  V30 1 1 1 2
M  V30 2 1 2 3
M  V30 3 1 3 4
M  V30 4 1 4 5
M  V30 5 1 5 6
M  V30 6 1 6 7
M  V30 7 1 7 8
M  V30 8 1 8 9
M  V30 9 1 6 10
M  V30 10 2 10 11
M  V30 11 1 11 12
M  V30 12 1 11 13
M  V30 13 2 13 14
M  V30 14 1 14 15
M  V30 15 2 15 16
M  V30 16 1 12 4
M  V30 17 1 16 10
M  V30 18 1 1 17
M  V30 19 1 1 18
M  V30 20 1 2 19
M  V30 21 1 2 20
M  V30 22 1 3 21
M  V30 23 1 3 22
M  V30 24 1 4 23 CFG=3
M  V30 25 1 5 24
M  V30 26 1 5 25
M  V30 27 1 7 26
M  V30 28 1 7 27
M  V30 29 1 8 28
M  V30 30 1 8 29
M  V30 31 1 9 30
M  V30 32 1 9 31
M  V30 33 1 12 32
M  V30 34 1 12 33
M  V30 35 1 13 34
M  V30 36 1 14 35
M  V30 37 1 15 36
M  V30 38 1 16 37
M  V30 END BOND
M  V30 END CTAB
M  END
