
     RDKit          3D

  0  0  0  0  0  0  0  0  0  0999 V3000
M  V30 BEGIN CTAB
M  V30 COUNTS 34 36 0 0 0
M  V30 BEGIN ATOM
M  V30 1 C 0.347294 -2.20602 -1.23732 0
M  V30 2 C 0.18216 -1.32823 0.017132 0
M  V30 3 C 0.0171781 -2.29916 1.16448 0
M  V30 4 C 1.27996 -0.398947 0.182939 0
M  V30 5 C 1.11391 0.957425 0.181202 0
M  V30 6 O -0.135288 1.5647 0.0184933 0
M  V30 7 C -1.24347 0.736224 -0.147172 0
M  V30 8 C -1.10278 -0.634031 -0.14915 0
M  V30 9 C -2.27157 -1.37512 -0.321807 0
M  V30 10 C -3.50771 -0.794507 -0.483134 0
M  V30 11 C -3.63275 0.576752 -0.478984 0
M  V30 12 C -2.49128 1.32951 -0.30991 0
M  V30 13 N -2.56255 2.75411 -0.297527 0
M  V30 14 C 2.22282 1.81103 0.347354 0
M  V30 15 N 1.998 3.23043 0.338484 0
M  V30 16 C 3.49264 1.32165 0.514743 0
M  V30 17 C 3.66046 -0.0576123 0.51637 0
M  V30 18 C 2.58598 -0.882192 0.355414 0
M  V30 19 H 0.955479 -1.68062 -1.99065 0
M  V30 20 H 0.811027 -3.16873 -0.99575 0
M  V30 21 H -0.657158 -2.43427 -1.68301 0
M  V30 22 H -0.576998 -1.86003 2.00626 0
M  V30 23 H 0.979243 -2.72826 1.5023 0
M  V30 24 H -0.597074 -3.14293 0.784171 0
M  V30 25 H -2.23567 -2.45399 -0.333687 0
M  V30 26 H -4.41606 -1.36558 -0.617241 0
M  V30 27 H -4.58667 1.08192 -0.602591 0
M  V30 28 H -2.4766 3.27798 -1.18701 0
M  V30 29 H -2.70033 3.25302 0.606064 0
M  V30 30 H 1.95531 3.67781 -0.594531 0
M  V30 31 H 1.89838 3.68434 1.25099 0
M  V30 32 H 4.3435 1.98058 0.642295 0
M  V30 33 H 4.66674 -0.474799 0.648575 0
M  V30 34 H 2.68388 -1.95246 0.352215 0
M  V30 END ATOM
M  V30 BEGIN BOND
M  V30 1 1 1 2
M  V30 2 1 2 3
M  V30 3 1 2 4
M  V30 4 2 4 5
M  V30 5 1 5 6
M  V30 6 1 6 7
M  V30 7 2 7 8
M  V30 8 1 8 9
M  V30 9 2 9 10
M  V30 10 1 10 11
M  V30 11 2 11 12
M  V30 12 1 12 13
M  V30 13 1 5 14
M  V30 14 1 14 15
M  V30 15 2 14 16
M  V30 16 1 16 17
M  V30 17 2 17 18
M  V30 18 1 8 2
M  V30 19 1 18 4
M  V30 20 1 12 7
M  V30 21 1 1 19
M  V30 22 1 1 20
M  V30 23 1 1 21
M  V30 24 1 3 22
M  V30 25 1 3 23
M  V30 26 1 3 24
M  V30 27 1 9 25
M  V30 28 1 10 26
M  V30 29 1 11 27
M  V30 30 1 13 28
M  V30 31 1 13 29
M  V30 32 1 15 30
M  V30 33 1 15 31
M  V30 34 1 16 32
M  V30 35 1 17 33
M  V30 36 1 18 34
M  V30 END BOND
M  V30 END CTAB
M  END
