
     RDKit          3D

  0  0  0  0  0  0  0  0  0  0999 V3000
M  V30 BEGIN CTAB
M  V30 COUNTS 46 49 0 0 0
M  V30 BEGIN ATOM
M  V30 1 N 4.87822 0.672045 -1.51839 0
M  V30 2 C 4.55821 0.0165298 -0.295657 0
M  V30 3 N 3.47046 -0.774363 -0.19165 0
M  V30 4 C 3.13897 -1.3873 0.960269 0
M  V30 5 C 1.97595 -2.29338 1.08608 0
M  V30 6 S 0.798167 -2.06445 -0.236435 0
M  V30 7 C 0.0731437 -0.480331 -0.361105 0
M  V30 8 N 0.655417 0.549386 -1.06004 0
M  V30 9 C -0.189393 1.61232 -1.01802 0
M  V30 10 C -1.27138 1.22086 -0.298305 0
M  V30 11 N -1.10694 -0.0695289 0.108403 0
M  V30 12 C -2.00473 -0.758531 0.956689 0
M  V30 13 C -2.8927 -1.74758 0.370038 0
M  V30 14 C -3.44827 -2.68286 1.24585 0
M  V30 15 C -4.26694 -3.70494 0.83153 0
M  V30 16 C -4.56509 -3.83008 -0.500892 0
M  V30 17 C -4.03172 -2.91881 -1.39385 0
M  V30 18 C -3.19948 -1.8863 -0.951124 0
M  V30 19 C -2.28523 2.16578 -0.11425 0
M  V30 20 C -2.18535 3.43851 -0.640917 0
M  V30 21 C -1.07174 3.77962 -1.3551 0
M  V30 22 C -0.0222962 2.87627 -1.57731 0
M  V30 23 C -0.9505 5.14379 -1.90451 0
M  V30 24 F 0.329162 5.65996 -1.77853 0
M  V30 25 F -1.26814 5.13599 -3.25078 0
M  V30 26 F -1.84116 6.01609 -1.29071 0
M  V30 27 N 3.92655 -1.19035 2.01171 0
M  V30 28 C 5.03401 -0.416744 1.98013 0
M  V30 29 N 5.32858 0.184903 0.794367 0
M  V30 30 N 5.88177 -0.241757 3.09354 0
M  V30 31 H 5.11959 0.173107 -2.38823 0
M  V30 32 H 4.86252 1.71771 -1.52078 0
M  V30 33 H 2.36427 -3.33911 1.04231 0
M  V30 34 H 1.52473 -2.09795 2.06986 0
M  V30 35 H -1.47826 -1.22936 1.84359 0
M  V30 36 H -2.71101 -0.0151613 1.47585 0
M  V30 37 H -3.23172 -2.61078 2.31404 0
M  V30 38 H -4.67959 -4.41196 1.54028 0
M  V30 39 H -5.2218 -4.65742 -0.811404 0
M  V30 40 H -4.29569 -3.06638 -2.43518 0
M  V30 41 H -2.79771 -1.19925 -1.67961 0
M  V30 42 H -3.12975 1.83977 0.452089 0
M  V30 43 H -3.01118 4.13512 -0.470141 0
M  V30 44 H 0.859705 3.15723 -2.13548 0
M  V30 45 H 6.20541 -1.11163 3.60362 0
M  V30 46 H 6.17295 0.691321 3.39816 0
M  V30 END ATOM
M  V30 BEGIN BOND
M  V30 1 1 1 2
M  V30 2 2 2 3
M  V30 3 1 3 4
M  V30 4 1 4 5
M  V30 5 1 5 6
M  V30 6 1 6 7
M  V30 7 2 7 8
M  V30 8 1 8 9
M  V30 9 2 9 10
M  V30 10 1 10 11
M  V30 11 1 11 12
M  V30 12 1 12 13
M  V30 13 2 13 14
M  V30 14 1 14 15
M  V30 15 2 15 16
M  V30 16 1 16 17
M  V30 17 2 17 18
M  V30 18 1 10 19
M  V30 19 2 19 20
M  V30 20 1 20 21
M  V30 21 2 21 22
M  V30 22 1 21 23
M  V30 23 1 23 24
M  V30 24 1 23 25
M  V30 25 1 23 26
M  V30 26 2 4 27
M  V30 27 1 27 28
M  V30 28 2 28 29
M  V30 29 1 28 30
M  V30 30 1 29 2
M  V30 31 1 11 7
M  V30 32 1 18 13
M  V30 33 1 22 9
M  V30 34 1 1 31
M  V30 35 1 1 32
M  V30 36 1 5 33
M  V30 37 1 5 34
M  V30 38 1 12 35
M  V30 39 1 12 36
M  V30 40 1 14 37
M  V30 41 1 15 38
M  V30 42 1 16 39
M  V30 43 1 17 40
M  V30 44 1 18 41
M  V30 45 1 19 42
M  V30 46 1 20 43
M  V30 47 1 22 44
M  V30 48 1 30 45
M  V30 49 1 30 46
M  V30 END BOND
M  V30 END CTAB
M  END
