
     RDKit          3D

  0  0  0  0  0  0  0  0  0  0999 V3000
M  V30 BEGIN CTAB
M  V30 COUNTS 24 24 0 0 0
M  V30 BEGIN ATOM
M  V30 1 C 3.87727 -0.135498 1.02694 0
M  V30 2 C 2.53928 -0.291489 0.317449 0
M  V30 3 C 1.7409 0.961741 0.644332 0
M  V30 4 O 0.474533 0.978808 0.0632467 0
M  V30 5 C -0.545779 0.0928343 0.247544 0
M  V30 6 N -0.499844 -0.988259 1.05378 0
M  V30 7 C -1.56443 -1.80414 1.1676 0
M  V30 8 N -2.70994 -1.58899 0.495823 0
M  V30 9 C -2.83154 -0.525526 -0.331643 0
M  V30 10 C -1.73205 0.297336 -0.434837 0
M  V30 11 N -1.86192 1.4268 -1.31401 0
M  V30 12 N -4.01079 -0.255278 -1.05862 0
M  V30 13 H 3.72471 -0.082446 2.12339 0
M  V30 14 H 4.61662 -0.881537 0.711357 0
M  V30 15 H 4.25742 0.879455 0.709501 0
M  V30 16 H 2.7711 -0.354398 -0.760207 0
M  V30 17 H 2.02737 -1.21681 0.608058 0
M  V30 18 H 2.37758 1.81203 0.329823 0
M  V30 19 H 1.60678 1.07935 1.73955 0
M  V30 20 H -1.54841 -2.68301 1.81343 0
M  V30 21 H -2.18288 1.20897 -2.28239 0
M  V30 22 H -1.6502 2.38296 -1.00037 0
M  V30 23 H -4.12156 -0.621773 -2.01222 0
M  V30 24 H -4.75422 0.308848 -0.62736 0
M  V30 END ATOM
M  V30 BEGIN BOND
M  V30 1 1 1 2
M  V30 2 1 2 3
M  V30 3 1 3 4
M  V30 4 1 4 5
M  V30 5 2 5 6
M  V30 6 1 6 7
M  V30 7 2 7 8
M  V30 8 1 8 9
M  V30 9 2 9 10
M  V30 10 1 10 11
M  V30 11 1 9 12
M  V30 12 1 10 5
M  V30 13 1 1 13
M  V30 14 1 1 14
M  V30 15 1 1 15
M  V30 16 1 2 16
M  V30 17 1 2 17
M  V30 18 1 3 18
M  V30 19 1 3 19
M  V30 20 1 7 20
M  V30 21 1 11 21
M  V30 22 1 11 22
M  V30 23 1 12 23
M  V30 24 1 12 24
M  V30 END BOND
M  V30 END CTAB
M  END
