
     RDKit          3D

  0  0  0  0  0  0  0  0  0  0999 V3000
M  V30 BEGIN CTAB
M  V30 COUNTS 36 38 0 0 0
M  V30 BEGIN ATOM
M  V30 1 O -6.51995 0.827956 0.53248 0
M  V30 2 C -5.35533 0.573632 0.100885 0
M  V30 3 C -4.74172 1.31097 -1.01527 0
M  V30 4 C -3.29494 1.63391 -0.774227 0
M  V30 5 C -2.58527 0.527385 -0.0972793 0
M  V30 6 C -3.21627 -0.463031 0.613325 0
M  V30 7 N -4.63683 -0.459528 0.728387 0
M  V30 8 C -2.46543 -1.46191 1.21535 0
M  V30 9 C -1.09572 -1.51043 1.1344 0
M  V30 10 C -0.4556 -0.520636 0.423397 0
M  V30 11 C -1.2049 0.471625 -0.174326 0
M  V30 12 C 1.02947 -0.532903 0.30721 0
M  V30 13 N 1.72137 0.563921 0.484611 0
M  V30 14 C 3.03414 0.538142 0.377318 0
M  V30 15 S 3.34122 -1.09679 0.00902126 0
M  V30 16 C 1.73039 -1.67073 0.0130523 0
M  V30 17 C 1.24906 -3.05743 -0.24287 0
M  V30 18 N 3.90295 1.67143 0.548679 0
M  V30 19 C 5.19098 1.50858 0.414415 0
M  V30 20 N 5.74276 0.239694 0.104247 0
M  V30 21 N 6.01003 2.64271 0.589814 0
M  V30 22 H -5.26587 2.29045 -1.21666 0
M  V30 23 H -4.88534 0.708599 -1.93624 0
M  V30 24 H -3.16227 2.5988 -0.228514 0
M  V30 25 H -2.82616 1.78763 -1.78176 0
M  V30 26 H -5.083 -1.23055 1.27786 0
M  V30 27 H -2.98366 -2.22326 1.76435 0
M  V30 28 H -0.513851 -2.30944 1.61865 0
M  V30 29 H -0.7038 1.26296 -0.741839 0
M  V30 30 H 1.22825 -3.67519 0.652967 0
M  V30 31 H 1.9861 -3.53297 -0.947611 0
M  V30 32 H 0.297036 -3.00725 -0.799381 0
M  V30 33 H 5.75465 -0.100804 -0.88268 0
M  V30 34 H 6.1536 -0.401708 0.822944 0
M  V30 35 H 5.71282 3.42347 1.23797 0
M  V30 36 H 6.91109 2.6727 0.0558009 0
M  V30 END ATOM
M  V30 BEGIN BOND
M  V30 1 2 1 2
M  V30 2 1 2 3
M  V30 3 1 3 4
M  V30 4 1 4 5
M  V30 5 2 5 6
M  V30 6 1 6 7
M  V30 7 1 6 8
M  V30 8 2 8 9
M  V30 9 1 9 10
M  V30 10 2 10 11
M  V30 11 1 10 12
M  V30 12 1 12 13
M  V30 13 2 13 14
M  V30 14 1 14 15
M  V30 15 1 15 16
M  V30 16 1 16 17
M  V30 17 1 14 18
M  V30 18 2 18 19 CFG=2
M  V30 19 1 19 20
M  V30 20 1 19 21
M  V30 21 1 7 2
M  V30 22 2 16 12
M  V30 23 1 11 5
M  V30 24 1 3 22
M  V30 25 1 3 23
M  V30 26 1 4 24
M  V30 27 1 4 25
M  V30 28 1 7 26
M  V30 29 1 8 27
M  V30 30 1 9 28
M  V30 31 1 11 29
M  V30 32 1 17 30
M  V30 33 1 17 31
M  V30 34 1 17 32
M  V30 35 1 20 33
M  V30 36 1 20 34
M  V30 37 1 21 35
M  V30 38 1 21 36
M  V30 END BOND
M  V30 END CTAB
M  END
