
     RDKit          3D

  0  0  0  0  0  0  0  0  0  0999 V3000
M  V30 BEGIN CTAB
M  V30 COUNTS 24 25 0 0 0
M  V30 BEGIN ATOM
M  V30 1 N -3.28875 2.09647 0.520183 0
M  V30 2 C -2.49878 0.960081 0.20467 0
M  V30 3 N -3.02487 -0.216057 -0.165919 0
M  V30 4 C -2.23164 -1.27505 -0.45806 0
M  V30 5 N -2.88081 -2.46316 -0.836265 0
M  V30 6 N -0.899499 -1.19938 -0.391653 0
M  V30 7 C -0.295174 -0.0564229 -0.0284678 0
M  V30 8 C -1.09933 1.01157 0.26602 0
M  V30 9 C 1.15666 0.0417159 0.0486281 0
M  V30 10 C 1.85406 1.16283 0.408322 0
M  V30 11 C 3.25129 1.20063 0.465493 0
M  V30 12 C 3.95049 0.0641502 0.146982 0
M  V30 13 C 3.27334 -1.06481 -0.214405 0
M  V30 14 C 1.902 -1.0967 -0.268954 0
M  V30 15 Cl 1.07711 -2.58119 -0.742009 0
M  V30 16 H -2.95499 3.07193 0.388037 0
M  V30 17 H -4.2425 1.96401 0.899893 0
M  V30 18 H -3.1781 -3.13254 -0.098436 0
M  V30 19 H -3.06968 -2.68742 -1.82934 0
M  V30 20 H -0.689845 1.97115 0.567729 0
M  V30 21 H 1.30849 2.05306 0.657881 0
M  V30 22 H 3.76847 2.0976 0.751942 0
M  V30 23 H 5.0182 0.0539761 0.178943 0
M  V30 24 H 3.79386 -1.97645 -0.471218 0
M  V30 END ATOM
M  V30 BEGIN BOND
M  V30 1 1 1 2
M  V30 2 2 2 3
M  V30 3 1 3 4
M  V30 4 1 4 5
M  V30 5 2 4 6
M  V30 6 1 6 7
M  V30 7 2 7 8
M  V30 8 1 7 9
M  V30 9 2 9 10
M  V30 10 1 10 11
M  V30 11 2 11 12
M  V30 12 1 12 13
M  V30 13 2 13 14
M  V30 14 1 14 15
M  V30 15 1 8 2
M  V30 16 1 14 9
M  V30 17 1 1 16
M  V30 18 1 1 17
M  V30 19 1 5 18
M  V30 20 1 5 19
M  V30 21 1 8 20
M  V30 22 1 10 21
M  V30 23 1 11 22
M  V30 24 1 12 23
M  V30 25 1 13 24
M  V30 END BOND
M  V30 END CTAB
M  END
