
     RDKit          3D

  0  0  0  0  0  0  0  0  0  0999 V3000
M  V30 BEGIN CTAB
M  V30 COUNTS 28 28 0 0 0
M  V30 BEGIN ATOM
M  V30 1 C 2.1202 2.47164 0.174527 0
M  V30 2 O 1.3154 1.42052 -0.288845 0
M  V30 3 C 1.81708 0.214993 -0.747552 0
M  V30 4 O 3.07051 0.0673425 -0.742867 0
M  V30 5 C 0.963922 -0.889598 -1.23568 0 CFG=1
M  V30 6 N 1.7795 -2.00723 -1.70013 0
M  V30 7 C 0.0851384 -1.43551 -0.125964 0 CFG=2
M  V30 8 N -0.744686 -2.53007 -0.651409 0
M  V30 9 C -0.858361 -0.442956 0.417324 0
M  V30 10 C -1.95772 -0.0681841 -0.336645 0
M  V30 11 C -2.8701 0.847693 0.126281 0
M  V30 12 C -2.65843 1.3901 1.37761 0
M  V30 13 C -1.57842 1.03155 2.13564 0
M  V30 14 C -0.683773 0.121313 1.65983 0
M  V30 15 H 2.66817 2.15363 1.08169 0
M  V30 16 H 2.85733 2.8169 -0.590574 0
M  V30 17 H 1.45925 3.31366 0.465889 0
M  V30 18 H 0.313957 -0.50151 -2.03821 0
M  V30 19 H 2.7886 -1.82248 -1.61691 0
M  V30 20 H 1.50885 -2.23744 -2.67239 0
M  V30 21 H 0.67613 -1.85652 0.695748 0
M  V30 22 H -1.50214 -2.66006 0.0791386 0
M  V30 23 H -0.116043 -3.37199 -0.685026 0
M  V30 24 H -2.0965 -0.515348 -1.32186 0
M  V30 25 H -3.71338 1.11054 -0.496401 0
M  V30 26 H -3.39617 2.11369 1.72137 0
M  V30 27 H -1.44284 1.47002 3.10104 0
M  V30 28 H 0.19453 -0.204693 2.21437 0
M  V30 END ATOM
M  V30 BEGIN BOND
M  V30 1 1 1 2
M  V30 2 1 2 3
M  V30 3 2 3 4
M  V30 4 1 3 5
M  V30 5 1 5 6
M  V30 6 1 5 7
M  V30 7 1 7 8
M  V30 8 1 7 9
M  V30 9 2 9 10
M  V30 10 1 10 11
M  V30 11 2 11 12
M  V30 12 1 12 13
M  V30 13 2 13 14
M  V30 14 1 14 9
M  V30 15 1 1 15
M  V30 16 1 1 16
M  V30 17 1 1 17
M  V30 18 1 5 18 CFG=3
M  V30 19 1 6 19
M  V30 20 1 6 20
M  V30 21 1 7 21 CFG=1
M  V30 22 1 8 22
M  V30 23 1 8 23
M  V30 24 1 10 24
M  V30 25 1 11 25
M  V30 26 1 12 26
M  V30 27 1 13 27
M  V30 28 1 14 28
M  V30 END BOND
M  V30 END CTAB
M  END
