
     RDKit          3D

  0  0  0  0  0  0  0  0  0  0999 V3000
M  V30 BEGIN CTAB
M  V30 COUNTS 52 52 0 0 0
M  V30 BEGIN ATOM
M  V30 1 C 7.09253 2.63555 -0.85919 0
M  V30 2 C 6.01888 2.03086 0.00954738 0
M  V30 3 C 4.98463 1.34665 -0.859719 0
M  V30 4 C 3.88441 0.726064 0.0148144 0
M  V30 5 C 2.92693 0.0841598 -0.930412 0
M  V30 6 C 1.73662 -0.590655 -0.204939 0
M  V30 7 C 2.21287 -1.64072 0.708922 0
M  V30 8 C 1.30203 -2.4163 1.54493 0
M  V30 9 C 0.24563 -3.27421 0.998804 0
M  V30 10 C -0.860582 -2.65277 0.209266 0
M  V30 11 C -1.60279 -1.63438 1.0553 0
M  V30 12 C -2.71778 -1.00303 0.25443 0
M  V30 13 C -3.4479 0.00732875 1.1063 0
M  V30 14 C -4.53764 0.594232 0.254283 0
M  V30 15 N -5.77069 0.0481471 0.210721 0
M  V30 16 C -6.75964 0.550525 -0.539521 0
M  V30 17 N -8.02475 -0.0936434 -0.520371 0
M  V30 18 N -6.53123 1.64394 -1.28625 0
M  V30 19 C -5.31455 2.22161 -1.27281 0
M  V30 20 N -5.07177 3.37102 -2.0568 0
M  V30 21 N -4.33824 1.68835 -0.503772 0
M  V30 22 H 7.83691 1.84866 -1.11845 0
M  V30 23 H 6.65369 2.98354 -1.81057 0
M  V30 24 H 7.58606 3.50429 -0.377156 0
M  V30 25 H 6.41318 1.34208 0.760228 0
M  V30 26 H 5.49308 2.85681 0.549757 0
M  V30 27 H 5.47008 0.532611 -1.41599 0
M  V30 28 H 4.5257 2.03604 -1.57459 0
M  V30 29 H 3.45932 1.54306 0.61623 0
M  V30 30 H 4.4204 0.00942882 0.686076 0
M  V30 31 H 2.47989 0.860126 -1.55348 0
M  V30 32 H 3.44856 -0.704948 -1.48234 0
M  V30 33 H 1.0878 -0.885838 -1.03853 0
M  V30 34 H 1.18252 0.218494 0.346962 0
M  V30 35 H 2.92347 -1.10739 1.43685 0
M  V30 36 H 2.93059 -2.28592 0.124232 0
M  V30 37 H 0.834709 -1.71117 2.33226 0
M  V30 38 H 1.97596 -3.03451 2.24692 0
M  V30 39 H 0.644343 -4.19824 0.488152 0
M  V30 40 H -0.28667 -3.74496 1.89884 0
M  V30 41 H -1.58375 -3.51939 -0.0208615 0
M  V30 42 H -0.637258 -2.23386 -0.751303 0
M  V30 43 H -2.08975 -2.15158 1.92179 0
M  V30 44 H -0.914743 -0.845663 1.40172 0
M  V30 45 H -3.45551 -1.74902 -0.0805331 0
M  V30 46 H -2.32193 -0.486065 -0.644127 0
M  V30 47 H -2.71791 0.793018 1.39065 0
M  V30 48 H -3.84026 -0.422512 2.02952 0
M  V30 49 H -8.5071 -0.169862 0.401224 0
M  V30 50 H -8.47788 -0.484487 -1.37781 0
M  V30 51 H -5.62132 4.22201 -1.89917 0
M  V30 52 H -4.33915 3.3425 -2.78486 0
M  V30 END ATOM
M  V30 BEGIN BOND
M  V30 1 1 1 2
M  V30 2 1 2 3
M  V30 3 1 3 4
M  V30 4 1 4 5
M  V30 5 1 5 6
M  V30 6 1 6 7
M  V30 7 1 7 8
M  V30 8 1 8 9
M  V30 9 1 9 10
M  V30 10 1 10 11
M  V30 11 1 11 12
M  V30 12 1 12 13
M  V30 13 1 13 14
M  V30 14 2 14 15
M  V30 15 1 15 16
M  V30 16 1 16 17
M  V30 17 2 16 18
M  V30 18 1 18 19
M  V30 19 1 19 20
M  V30 20 2 19 21
M  V30 21 1 21 14
M  V30 22 1 1 22
M  V30 23 1 1 23
M  V30 24 1 1 24
M  V30 25 1 2 25
M  V30 26 1 2 26
M  V30 27 1 3 27
M  V30 28 1 3 28
M  V30 29 1 4 29
M  V30 30 1 4 30
M  V30 31 1 5 31
M  V30 32 1 5 32
M  V30 33 1 6 33
M  V30 34 1 6 34
M  V30 35 1 7 35
M  V30 36 1 7 36
M  V30 37 1 8 37
M  V30 38 1 8 38
M  V30 39 1 9 39
M  V30 40 1 9 40
M  V30 41 1 10 41
M  V30 42 1 10 42
M  V30 43 1 11 43
M  V30 44 1 11 44
M  V30 45 1 12 45
M  V30 46 1 12 46
M  V30 47 1 13 47
M  V30 48 1 13 48
M  V30 49 1 17 49
M  V30 50 1 17 50
M  V30 51 1 20 51
M  V30 52 1 20 52
M  V30 END BOND
M  V30 END CTAB
M  END
