
     RDKit          3D

  0  0  0  0  0  0  0  0  0  0999 V3000
M  V30 BEGIN CTAB
M  V30 COUNTS 35 36 0 0 0
M  V30 BEGIN ATOM
M  V30 1 O 1.55878 -1.08661 1.60307 0
M  V30 2 C 1.16728 -0.356177 0.619962 0
M  V30 3 N 1.96182 -0.213186 -0.522665 0
M  V30 4 C 3.19138 -1.01697 -0.591763 0
M  V30 5 C 4.30629 -0.25024 0.00867151 0
M  V30 6 C 5.64323 -0.663248 -0.180121 0
M  V30 7 C 6.39966 0.25887 0.503008 0
M  V30 8 C 5.5508 1.18138 1.07634 0
M  V30 9 O 4.34494 0.81567 0.74116 0
M  V30 10 C 1.67737 0.68026 -1.58728 0
M  V30 11 C -0.135681 0.29596 0.78045 0
M  V30 12 S -0.9961 0.481639 -0.780639 0
M  V30 13 C -2.73463 0.192029 -0.542232 0
M  V30 14 N -3.27267 -1.06205 -0.616799 0
M  V30 15 C -4.57838 -1.27859 -0.479216 0
M  V30 16 N -5.12379 -2.57912 -0.558233 0
M  V30 17 C -5.40535 -0.195782 -0.256674 0
M  V30 18 C -4.89667 1.09341 -0.175554 0
M  V30 19 N -3.55599 1.23251 -0.324081 0
M  V30 20 N -5.76882 2.19834 0.0401377 0
M  V30 21 H 3.39534 -1.22106 -1.66441 0
M  V30 22 H 3.06251 -1.98091 -0.0852963 0
M  V30 23 H 5.97256 -1.51465 -0.746034 0
M  V30 24 H 7.48272 0.258418 0.579555 0
M  V30 25 H 5.92285 2.00656 1.66719 0
M  V30 26 H 1.02214 0.28506 -2.37612 0
M  V30 27 H 2.63669 0.976659 -2.13641 0
M  V30 28 H 1.27268 1.6832 -1.28147 0
M  V30 29 H -0.00440448 1.31735 1.20529 0
M  V30 30 H -0.806656 -0.27404 1.48154 0
M  V30 31 H -4.8224 -3.33263 0.090099 0
M  V30 32 H -5.8462 -2.80918 -1.26879 0
M  V30 33 H -6.45494 -0.346137 -0.146896 0
M  V30 34 H -5.3797 3.13515 0.287916 0
M  V30 35 H -6.78668 2.08813 -0.0498996 0
M  V30 END ATOM
M  V30 BEGIN BOND
M  V30 1 2 1 2
M  V30 2 1 2 3
M  V30 3 1 3 4
M  V30 4 1 4 5
M  V30 5 2 5 6
M  V30 6 1 6 7
M  V30 7 2 7 8
M  V30 8 1 8 9
M  V30 9 1 3 10
M  V30 10 1 2 11
M  V30 11 1 11 12
M  V30 12 1 12 13
M  V30 13 2 13 14
M  V30 14 1 14 15
M  V30 15 1 15 16
M  V30 16 2 15 17
M  V30 17 1 17 18
M  V30 18 2 18 19
M  V30 19 1 18 20
M  V30 20 1 9 5
M  V30 21 1 19 13
M  V30 22 1 4 21
M  V30 23 1 4 22
M  V30 24 1 6 23
M  V30 25 1 7 24
M  V30 26 1 8 25
M  V30 27 1 10 26
M  V30 28 1 10 27
M  V30 29 1 10 28
M  V30 30 1 11 29
M  V30 31 1 11 30
M  V30 32 1 16 31
M  V30 33 1 16 32
M  V30 34 1 17 33
M  V30 35 1 20 34
M  V30 36 1 20 35
M  V30 END BOND
M  V30 END CTAB
M  END
