
     RDKit          3D

  0  0  0  0  0  0  0  0  0  0999 V3000
M  V30 BEGIN CTAB
M  V30 COUNTS 23 23 0 0 0
M  V30 BEGIN ATOM
M  V30 1 N -4.1275 -0.0781504 0.289431 0
M  V30 2 C -2.73785 0.350401 0.444656 0
M  V30 3 C -2.06653 0.326638 -0.896997 0
M  V30 4 O -0.765182 0.712628 -0.839551 0
M  V30 5 C 0.321359 0.169326 -0.237155 0
M  V30 6 C 1.55033 0.856899 -0.345102 0
M  V30 7 C 2.69985 0.402742 0.21571 0
M  V30 8 N 3.94433 1.12559 0.0904032 0
M  V30 9 C 2.68918 -0.777255 0.924704 0
M  V30 10 C 1.52407 -1.49358 1.0653 0
M  V30 11 C 0.375935 -0.995982 0.478027 0
M  V30 12 H -4.399 -0.627999 1.12835 0
M  V30 13 H -4.15779 -0.690717 -0.554836 0
M  V30 14 H -2.25212 -0.308651 1.15806 0
M  V30 15 H -2.69576 1.4075 0.800223 0
M  V30 16 H -2.18628 -0.681325 -1.37862 0
M  V30 17 H -2.62642 1.03063 -1.5823 0
M  V30 18 H 1.57304 1.79942 -0.907885 0
M  V30 19 H 3.99204 2.15547 0.160261 0
M  V30 20 H 4.78304 0.527569 -0.0748809 0
M  V30 21 H 3.58564 -1.17509 1.38886 0
M  V30 22 H 1.49352 -2.43808 1.62726 0
M  V30 23 H -0.517874 -1.59798 0.588285 0
M  V30 END ATOM
M  V30 BEGIN BOND
M  V30 1 1 1 2
M  V30 2 1 2 3
M  V30 3 1 3 4
M  V30 4 1 4 5
M  V30 5 2 5 6
M  V30 6 1 6 7
M  V30 7 1 7 8
M  V30 8 2 7 9
M  V30 9 1 9 10
M  V30 10 2 10 11
M  V30 11 1 11 5
M  V30 12 1 1 12
M  V30 13 1 1 13
M  V30 14 1 2 14
M  V30 15 1 2 15
M  V30 16 1 3 16
M  V30 17 1 3 17
M  V30 18 1 6 18
M  V30 19 1 8 19
M  V30 20 1 8 20
M  V30 21 1 9 21
M  V30 22 1 10 22
M  V30 23 1 11 23
M  V30 END BOND
M  V30 END CTAB
M  END
