
     RDKit          3D

  0  0  0  0  0  0  0  0  0  0999 V3000
M  V30 BEGIN CTAB
M  V30 COUNTS 26 26 0 0 0
M  V30 BEGIN ATOM
M  V30 1 N 4.17268 -0.233355 -1.27077 0
M  V30 2 N 3.76174 -0.118257 0.0578637 0
M  V30 3 C 2.3887 -0.124301 0.441966 0
M  V30 4 C 1.73879 -1.29327 0.805869 0
M  V30 5 C 0.409787 -1.29454 1.17639 0
M  V30 6 C -0.343296 -0.121875 1.20264 0
M  V30 7 C 0.299858 1.03722 0.842081 0
M  V30 8 C 1.6368 1.02922 0.471021 0
M  V30 9 S -2.02668 -0.143135 1.68997 0
M  V30 10 O -2.18303 -1.12532 2.84251 0
M  V30 11 O -2.39217 1.22124 2.20124 0
M  V30 12 N -3.07617 -0.644843 0.427091 0
M  V30 13 C -3.13767 0.122684 -0.762022 0
M  V30 14 N -2.69036 1.46549 -0.863568 0
M  V30 15 N -3.62506 -0.389224 -1.84492 0
M  V30 16 H 4.01436 0.64028 -1.80898 0
M  V30 17 H 5.15539 -0.576814 -1.28438 0
M  V30 18 H 4.50579 -0.0252787 0.783345 0
M  V30 19 H 2.30132 -2.22571 0.793991 0
M  V30 20 H -0.114905 -2.20942 1.4657 0
M  V30 21 H -0.273006 1.96696 0.861469 0
M  V30 22 H 2.11669 1.9744 0.187748 0
M  V30 23 H -3.67871 -1.51615 0.524389 0
M  V30 24 H -1.97472 1.70525 -1.58955 0
M  V30 25 H -3.02158 2.24765 -0.261019 0
M  V30 26 H -3.96456 -1.36889 -1.81173 0
M  V30 END ATOM
M  V30 BEGIN BOND
M  V30 1 1 1 2
M  V30 2 1 2 3
M  V30 3 2 3 4
M  V30 4 1 4 5
M  V30 5 2 5 6
M  V30 6 1 6 7
M  V30 7 2 7 8
M  V30 8 1 6 9
M  V30 9 2 9 10
M  V30 10 2 9 11
M  V30 11 1 9 12
M  V30 12 1 12 13
M  V30 13 1 13 14
M  V30 14 2 13 15 CFG=2
M  V30 15 1 8 3
M  V30 16 1 1 16
M  V30 17 1 1 17
M  V30 18 1 2 18
M  V30 19 1 4 19
M  V30 20 1 5 20
M  V30 21 1 7 21
M  V30 22 1 8 22
M  V30 23 1 12 23
M  V30 24 1 14 24
M  V30 25 1 14 25
M  V30 26 1 15 26
M  V30 END BOND
M  V30 END CTAB
M  END
