
     RDKit          3D

  0  0  0  0  0  0  0  0  0  0999 V3000
M  V30 BEGIN CTAB
M  V30 COUNTS 43 44 0 0 0
M  V30 BEGIN ATOM
M  V30 1 C -4.27852 1.26301 2.24849 0
M  V30 2 O -3.80044 0.130861 1.60226 0
M  V30 3 C -2.62986 -0.00761968 0.906062 0
M  V30 4 C -2.33388 -1.23614 0.322124 0
M  V30 5 C -1.16214 -1.41409 -0.386314 0
M  V30 6 C -0.235592 -0.374767 -0.542316 0
M  V30 7 O 0.924265 -0.643424 -1.27432 0
M  V30 8 C 2.19334 -0.748421 -0.791358 0
M  V30 9 C 2.5066 -0.701269 0.556372 0
M  V30 10 N 3.78115 -0.809146 0.937185 0
M  V30 11 C 4.80016 -0.964553 0.0541359 0
M  V30 12 N 6.09436 -1.05615 0.605042 0
M  V30 13 N 4.50942 -1.01173 -1.25201 0
M  V30 14 C 3.24306 -0.909136 -1.69223 0
M  V30 15 N 3.0174 -0.969743 -3.09387 0
M  V30 16 C -0.523976 0.835414 0.0269305 0
M  V30 17 C -1.71982 0.998464 0.745606 0
M  V30 18 C 0.303777 2.02161 -0.173186 0
M  V30 19 C -0.0238937 3.11688 0.848822 0
M  V30 20 C -0.000562133 2.64886 -1.56488 0
M  V30 21 C -3.27848 -2.33403 0.453434 0
M  V30 22 C -3.14494 -3.68898 -0.0645135 0
M  V30 23 O -4.3602 -2.07387 1.10263 0
M  V30 24 H -4.85549 1.94323 1.57638 0
M  V30 25 H -5.04326 0.91587 2.99331 0
M  V30 26 H -3.52385 1.83068 2.82247 0
M  V30 27 H -0.906831 -2.354 -0.845088 0
M  V30 28 H 1.70936 -0.578175 1.30739 0
M  V30 29 H 6.76278 -1.74307 0.224509 0
M  V30 30 H 6.37051 -0.440016 1.38143 0
M  V30 31 H 2.18329 -1.40571 -3.51157 0
M  V30 32 H 3.75795 -0.541674 -3.70956 0
M  V30 33 H -1.97154 1.94761 1.2115 0
M  V30 34 H 1.37371 1.88169 -0.173517 0
M  V30 35 H -0.971612 3.56825 0.532494 0
M  V30 36 H 0.792434 3.8687 0.88455 0
M  V30 37 H -0.0758981 2.64314 1.84343 0
M  V30 38 H 0.575827 2.16025 -2.35806 0
M  V30 39 H 0.355982 3.69553 -1.48237 0
M  V30 40 H -1.07535 2.69661 -1.7273 0
M  V30 41 H -2.8858 -4.35563 0.790867 0
M  V30 42 H -4.10416 -4.04306 -0.531058 0
M  V30 43 H -2.34927 -3.76227 -0.8039 0
M  V30 END ATOM
M  V30 BEGIN BOND
M  V30 1 1 1 2
M  V30 2 1 2 3
M  V30 3 2 3 4
M  V30 4 1 4 5
M  V30 5 2 5 6
M  V30 6 1 6 7
M  V30 7 1 7 8
M  V30 8 2 8 9
M  V30 9 1 9 10
M  V30 10 2 10 11
M  V30 11 1 11 12
M  V30 12 1 11 13
M  V30 13 2 13 14
M  V30 14 1 14 15
M  V30 15 1 6 16
M  V30 16 2 16 17
M  V30 17 1 16 18
M  V30 18 1 18 19
M  V30 19 1 18 20
M  V30 20 1 4 21
M  V30 21 1 21 22
M  V30 22 2 21 23
M  V30 23 1 17 3
M  V30 24 1 14 8
M  V30 25 1 1 24
M  V30 26 1 1 25
M  V30 27 1 1 26
M  V30 28 1 5 27
M  V30 29 1 9 28
M  V30 30 1 12 29
M  V30 31 1 12 30
M  V30 32 1 15 31
M  V30 33 1 15 32
M  V30 34 1 17 33
M  V30 35 1 18 34
M  V30 36 1 19 35
M  V30 37 1 19 36
M  V30 38 1 19 37
M  V30 39 1 20 38
M  V30 40 1 20 39
M  V30 41 1 20 40
M  V30 42 1 22 41
M  V30 43 1 22 42
M  V30 44 1 22 43
M  V30 END BOND
M  V30 END CTAB
M  END
