
     RDKit          3D

  0  0  0  0  0  0  0  0  0  0999 V3000
M  V30 BEGIN CTAB
M  V30 COUNTS 15 15 0 0 0
M  V30 BEGIN ATOM
M  V30 1 N 1.9381 0.831596 -0.278296 0
M  V30 2 C 0.545339 0.605527 -0.0727388 0
M  V30 3 C -0.010693 -0.658945 -0.0278593 0
M  V30 4 N 0.826904 -1.79493 -0.191767 0
M  V30 5 C -1.36991 -0.773228 0.176123 0
M  V30 6 O -1.91928 -1.92151 0.223663 0
M  V30 7 N -2.17729 0.287787 0.333039 0
M  V30 8 N -1.64601 1.50122 0.290322 0
M  V30 9 C -0.323968 1.66583 0.0936129 0
M  V30 10 H 2.58744 0.947954 0.555193 0
M  V30 11 H 2.385 0.893889 -1.21287 0
M  V30 12 H 0.841935 -2.47925 0.593492 0
M  V30 13 H 1.40667 -1.97365 -1.02653 0
M  V30 14 H -3.21543 0.208861 0.489089 0
M  V30 15 H 0.131184 2.65885 0.0555318 0
M  V30 END ATOM
M  V30 BEGIN BOND
M  V30 1 1 1 2
M  V30 2 2 2 3
M  V30 3 1 3 4
M  V30 4 1 3 5
M  V30 5 2 5 6
M  V30 6 1 5 7
M  V30 7 1 7 8
M  V30 8 2 8 9
M  V30 9 1 9 2
M  V30 10 1 1 10
M  V30 11 1 1 11
M  V30 12 1 4 12
M  V30 13 1 4 13
M  V30 14 1 7 14
M  V30 15 1 9 15
M  V30 END BOND
M  V30 END CTAB
M  END
