
     RDKit          3D

  0  0  0  0  0  0  0  0  0  0999 V3000
M  V30 BEGIN CTAB
M  V30 COUNTS 70 74 0 0 0
M  V30 BEGIN ATOM
M  V30 1 N -0.149602 3.92014 -0.67058 0
M  V30 2 C 0.409716 2.91715 -0.804123 0
M  V30 3 C 1.10668 1.64395 -0.953379 0
M  V30 4 C 2.3533 1.55079 -0.518684 0
M  V30 5 N 3.01293 2.66821 0.0861927 0
M  V30 6 N 3.09901 0.344912 -0.628703 0
M  V30 7 C 4.43524 0.293716 -0.147218 0
M  V30 8 C 5.50588 0.604027 -0.958629 0
M  V30 9 C 6.81425 0.557291 -0.493765 0
M  V30 10 C 7.068 0.193138 0.810488 0
M  V30 11 C 6.00412 -0.116 1.61941 0
M  V30 12 C 4.69628 -0.0690935 1.15406 0
M  V30 13 S 8.71837 0.137819 1.38397 0
M  V30 14 O 9.68578 -0.189859 0.285225 0
M  V30 15 O 8.82759 -0.919258 2.44101 0
M  V30 16 N 9.19453 1.6783 2.04494 0
M  V30 17 C 2.46079 -0.772803 -1.22621 0
M  V30 18 C 1.22863 -0.704042 -1.6631 0
M  V30 19 C 0.387618 0.512433 -1.58459 0
M  V30 20 C -0.853598 0.287684 -0.830349 0
M  V30 21 C -0.797185 -0.0253126 0.500068 0
M  V30 22 C -1.99925 -0.230389 1.18137 0
M  V30 23 C -3.20608 -0.12147 0.536149 0
M  V30 24 C -3.28716 0.188438 -0.784908 0
M  V30 25 C -2.06478 0.390927 -1.45238 0
M  V30 26 C -4.49192 0.339816 -1.59812 0
M  V30 27 N -5.74905 0.208294 -0.962591 0
M  V30 28 N -6.44782 -0.907765 -0.841884 0
M  V30 29 C -7.62468 -0.678257 -0.202625 0
M  V30 30 C -7.62842 0.655046 0.0755943 0
M  V30 31 C -6.46096 1.20362 -0.397761 0
M  V30 32 C -6.08669 2.65266 -0.285176 0
M  V30 33 Br -9.05379 1.57961 0.983807 0
M  V30 34 C -8.6951 -1.6537 0.133728 0
M  V30 35 O -4.35624 -0.334894 1.25987 0
M  V30 36 C -4.43582 -0.657841 2.61157 0
M  V30 37 C 0.662586 -1.92396 -2.26901 0
M  V30 38 O -0.251677 -1.84154 -3.128 0
M  V30 39 C 1.14833 -3.26094 -1.88804 0
M  V30 40 C 2.4259 -3.24963 -1.12064 0
M  V30 41 C 3.27224 -2.0286 -1.32884 0
M  V30 42 H 3.53557 3.34524 -0.473294 0
M  V30 43 H 2.95342 2.78548 1.11934 0
M  V30 44 H 5.33342 0.892729 -1.98632 0
M  V30 45 H 7.66592 0.797418 -1.11566 0
M  V30 46 H 6.1953 -0.405324 2.65302 0
M  V30 47 H 3.84646 -0.311182 1.78322 0
M  V30 48 H 9.53226 2.28283 1.26281 0
M  V30 49 H 8.38708 2.14381 2.53107 0
M  V30 50 H 0.145244 0.758447 -2.66821 0
M  V30 51 H 0.12829 -0.120033 1.0424 0
M  V30 52 H -1.92257 -0.476215 2.23112 0
M  V30 53 H -2.09595 0.642837 -2.52137 0
M  V30 54 H -4.3758 -0.388912 -2.46311 0
M  V30 55 H -4.37815 1.33895 -2.12759 0
M  V30 56 H -5.20418 2.87119 -0.919917 0
M  V30 57 H -5.90683 2.88094 0.770085 0
M  V30 58 H -6.92088 3.27187 -0.685354 0
M  V30 59 H -9.65683 -1.38546 -0.38941 0
M  V30 60 H -8.94689 -1.61379 1.22769 0
M  V30 61 H -8.4411 -2.66928 -0.181088 0
M  V30 62 H -3.68896 -0.110029 3.22062 0
M  V30 63 H -4.39299 -1.75783 2.80362 0
M  V30 64 H -5.43879 -0.297321 2.98075 0
M  V30 65 H 0.363855 -3.73512 -1.22968 0
M  V30 66 H 1.22929 -3.92958 -2.78004 0
M  V30 67 H 2.25395 -3.42565 -0.033318 0
M  V30 68 H 3.04278 -4.12933 -1.45714 0
M  V30 69 H 3.83017 -2.06529 -2.29727 0
M  V30 70 H 4.04895 -2.03402 -0.537814 0
M  V30 END ATOM
M  V30 BEGIN BOND
M  V30 1 3 1 2
M  V30 2 1 2 3
M  V30 3 2 3 4
M  V30 4 1 4 5
M  V30 5 1 4 6
M  V30 6 1 6 7
M  V30 7 2 7 8
M  V30 8 1 8 9
M  V30 9 2 9 10
M  V30 10 1 10 11
M  V30 11 2 11 12
M  V30 12 1 10 13
M  V30 13 2 13 14
M  V30 14 2 13 15
M  V30 15 1 13 16
M  V30 16 1 6 17
M  V30 17 2 17 18
M  V30 18 1 18 19
M  V30 19 1 19 20
M  V30 20 2 20 21
M  V30 21 1 21 22
M  V30 22 2 22 23
M  V30 23 1 23 24
M  V30 24 2 24 25
M  V30 25 1 24 26
M  V30 26 1 26 27
M  V30 27 1 27 28
M  V30 28 2 28 29
M  V30 29 1 29 30
M  V30 30 2 30 31
M  V30 31 1 31 32
M  V30 32 1 30 33
M  V30 33 1 29 34
M  V30 34 1 23 35
M  V30 35 1 35 36
M  V30 36 1 18 37
M  V30 37 2 37 38
M  V30 38 1 37 39
M  V30 39 1 39 40
M  V30 40 1 40 41
M  V30 41 1 19 3
M  V30 42 1 25 20
M  V30 43 1 31 27
M  V30 44 1 12 7
M  V30 45 1 41 17
M  V30 46 1 5 42
M  V30 47 1 5 43
M  V30 48 1 8 44
M  V30 49 1 9 45
M  V30 50 1 11 46
M  V30 51 1 12 47
M  V30 52 1 16 48
M  V30 53 1 16 49
M  V30 54 1 19 50
M  V30 55 1 21 51
M  V30 56 1 22 52
M  V30 57 1 25 53
M  V30 58 1 26 54
M  V30 59 1 26 55
M  V30 60 1 32 56
M  V30 61 1 32 57
M  V30 62 1 32 58
M  V30 63 1 34 59
M  V30 64 1 34 60
M  V30 65 1 34 61
M  V30 66 1 36 62
M  V30 67 1 36 63
M  V30 68 1 36 64
M  V30 69 1 39 65
M  V30 70 1 39 66
M  V30 71 1 40 67
M  V30 72 1 40 68
M  V30 73 1 41 69
M  V30 74 1 41 70
M  V30 END BOND
M  V30 END CTAB
M  END
