
     RDKit          3D

  0  0  0  0  0  0  0  0  0  0999 V3000
M  V30 BEGIN CTAB
M  V30 COUNTS 38 39 0 0 0
M  V30 BEGIN ATOM
M  V30 1 S -0.490769 -3.03203 1.43173 0
M  V30 2 C 0.0719284 -1.65773 0.668682 0
M  V30 3 N 1.42777 -1.73068 0.285311 0
M  V30 4 C 2.30406 -0.81115 -0.31255 0
M  V30 5 C 2.24678 0.569933 -0.149879 0
M  V30 6 C 3.19497 1.39955 -0.69923 0
M  V30 7 C 4.22482 0.847832 -1.42467 0
M  V30 8 C 4.31108 -0.525718 -1.6031 0
M  V30 9 C 3.37293 -1.3509 -1.06125 0
M  V30 10 N 3.43986 -2.76577 -1.23889 0
M  V30 11 C 5.2414 1.74824 -2.01263 0
M  V30 12 N -0.760917 -0.586696 0.453391 0
M  V30 13 C -2.0968 -0.307411 0.785863 0
M  V30 14 C -2.93574 -1.11763 1.49376 0
M  V30 15 C -4.25721 -0.795095 1.80609 0
M  V30 16 C -4.76634 0.393569 1.39221 0
M  V30 17 C -3.96319 1.24705 0.675632 0
M  V30 18 C -2.66452 0.910423 0.378464 0
M  V30 19 N -1.90054 1.84221 -0.362885 0
M  V30 20 C -6.16854 0.721665 1.73079 0
M  V30 21 H 1.93804 -2.68978 0.501058 0
M  V30 22 H 1.48499 1.03039 0.448412 0
M  V30 23 H 3.11615 2.46302 -0.553226 0
M  V30 24 H 5.1429 -0.948099 -2.18594 0
M  V30 25 H 2.63972 -3.27022 -1.67015 0
M  V30 26 H 4.32118 -3.22803 -0.913171 0
M  V30 27 H 4.86616 2.77619 -2.04692 0
M  V30 28 H 6.15827 1.74173 -1.37358 0
M  V30 29 H 5.48164 1.44038 -3.04724 0
M  V30 30 H -0.310092 0.193282 -0.152073 0
M  V30 31 H -2.62899 -2.07759 1.87008 0
M  V30 32 H -4.86883 -1.49372 2.3762 0
M  V30 33 H -4.40366 2.18615 0.362426 0
M  V30 34 H -2.0058 1.89293 -1.39421 0
M  V30 35 H -1.24335 2.46845 0.108806 0
M  V30 36 H -6.5424 0.0702371 2.53638 0
M  V30 37 H -6.18586 1.79357 2.0816 0
M  V30 38 H -6.79109 0.651458 0.814722 0
M  V30 END ATOM
M  V30 BEGIN BOND
M  V30 1 2 1 2
M  V30 2 1 2 3
M  V30 3 1 3 4
M  V30 4 2 4 5
M  V30 5 1 5 6
M  V30 6 2 6 7
M  V30 7 1 7 8
M  V30 8 2 8 9
M  V30 9 1 9 10
M  V30 10 1 7 11
M  V30 11 1 2 12
M  V30 12 1 12 13
M  V30 13 2 13 14
M  V30 14 1 14 15
M  V30 15 2 15 16
M  V30 16 1 16 17
M  V30 17 2 17 18
M  V30 18 1 18 19
M  V30 19 1 16 20
M  V30 20 1 9 4
M  V30 21 1 18 13
M  V30 22 1 3 21
M  V30 23 1 5 22
M  V30 24 1 6 23
M  V30 25 1 8 24
M  V30 26 1 10 25
M  V30 27 1 10 26
M  V30 28 1 11 27
M  V30 29 1 11 28
M  V30 30 1 11 29
M  V30 31 1 12 30
M  V30 32 1 14 31
M  V30 33 1 15 32
M  V30 34 1 17 33
M  V30 35 1 19 34
M  V30 36 1 19 35
M  V30 37 1 20 36
M  V30 38 1 20 37
M  V30 39 1 20 38
M  V30 END BOND
M  V30 END CTAB
M  END
