
     RDKit          3D

  0  0  0  0  0  0  0  0  0  0999 V3000
M  V30 BEGIN CTAB
M  V30 COUNTS 24 25 0 0 0
M  V30 BEGIN ATOM
M  V30 1 C 4.70485 0.957536 0.316443 0
M  V30 2 C 3.58598 0.0222296 -0.145696 0
M  V30 3 N 3.92936 -1.10458 -0.777434 0
M  V30 4 S 2.4436 -1.81991 -1.10297 0
M  V30 5 C 1.44038 -0.630191 -0.407573 0
M  V30 6 N 2.31919 0.25444 0.037498 0
M  V30 7 C -0.0419777 -0.579941 -0.314379 0
M  V30 8 C -0.817966 -1.57384 -0.823728 0
M  V30 9 C -2.18643 -1.51947 -0.733367 0
M  V30 10 C -2.75788 -0.418522 -0.105766 0
M  V30 11 C -1.99603 0.602635 0.419122 0
M  V30 12 C -0.630766 0.4963 0.300471 0
M  V30 13 N -2.56859 1.72514 1.05856 0
M  V30 14 N -4.17064 -0.333014 0.00360225 0
M  V30 15 H 5.48678 1.00861 -0.435122 0
M  V30 16 H 5.10787 0.633825 1.27536 0
M  V30 17 H 4.28669 1.98538 0.439794 0
M  V30 18 H -0.35222 -2.42674 -1.31095 0
M  V30 19 H -2.82096 -2.29876 -1.13157 0
M  V30 20 H -0.0183478 1.28303 0.703732 0
M  V30 21 H -2.77488 1.72943 2.08193 0
M  V30 22 H -2.81437 2.60452 0.545267 0
M  V30 23 H -4.58689 -0.0352712 0.904187 0
M  V30 24 H -4.76675 -0.562824 -0.797401 0
M  V30 END ATOM
M  V30 BEGIN BOND
M  V30 1 1 1 2
M  V30 2 2 2 3
M  V30 3 1 3 4
M  V30 4 1 4 5
M  V30 5 2 5 6
M  V30 6 1 5 7
M  V30 7 2 7 8
M  V30 8 1 8 9
M  V30 9 2 9 10
M  V30 10 1 10 11
M  V30 11 2 11 12
M  V30 12 1 11 13
M  V30 13 1 10 14
M  V30 14 1 6 2
M  V30 15 1 12 7
M  V30 16 1 1 15
M  V30 17 1 1 16
M  V30 18 1 1 17
M  V30 19 1 8 18
M  V30 20 1 9 19
M  V30 21 1 12 20
M  V30 22 1 13 21
M  V30 23 1 13 22
M  V30 24 1 14 23
M  V30 25 1 14 24
M  V30 END BOND
M  V30 END CTAB
M  END
