
     RDKit          3D

  0  0  0  0  0  0  0  0  0  0999 V3000
M  V30 BEGIN CTAB
M  V30 COUNTS 45 46 0 0 0
M  V30 BEGIN ATOM
M  V30 1 N -2.26317 -4.8504 0.762343 0
M  V30 2 C -1.6797 -3.5083 0.847251 0
M  V30 3 C -1.08265 -3.11114 -0.448686 0
M  V30 4 N -0.450903 -1.7511 -0.422558 0
M  V30 5 C 0.858459 -1.72099 -0.00632865 0
M  V30 6 O 1.2959 -2.95072 0.300149 0
M  V30 7 C 1.82808 -0.667568 0.16198 0
M  V30 8 C 3.11588 -1.02949 0.628438 0
M  V30 9 C 4.1169 -0.1162 0.822096 0
M  V30 10 C 3.94907 1.22195 0.578758 0
M  V30 11 C 2.71739 1.59983 0.12821 0
M  V30 12 C 1.68823 0.664723 -0.0713894 0
M  V30 13 C 5.03842 2.21208 0.789925 0
M  V30 14 N 5.84341 2.39371 -0.399616 0
M  V30 15 C -1.23812 -0.645575 -0.880609 0
M  V30 16 C -1.93925 0.0225839 0.248213 0
M  V30 17 C -2.74004 1.18972 -0.159099 0
M  V30 18 C -2.22019 2.45854 -0.188494 0
M  V30 19 C -2.99619 3.53162 -0.578103 0
M  V30 20 C -4.31361 3.33493 -0.944651 0
M  V30 21 C -4.84047 2.08218 -0.919707 0
M  V30 22 C -4.04742 0.99925 -0.523544 0
M  V30 23 H -1.53974 -5.58071 0.979774 0
M  V30 24 H -2.73181 -5.00394 -0.151223 0
M  V30 25 H -2.4826 -2.88174 1.24538 0
M  V30 26 H -0.897707 -3.60902 1.65763 0
M  V30 27 H -1.82287 -3.11259 -1.27299 0
M  V30 28 H -0.285175 -3.82532 -0.722936 0
M  V30 29 H 3.28492 -2.08528 0.832454 0
M  V30 30 H 5.10059 -0.435329 1.18443 0
M  V30 31 H 2.52845 2.64295 -0.0802021 0
M  V30 32 H 0.754014 1.03495 -0.422726 0
M  V30 33 H 5.74493 1.8598 1.59608 0
M  V30 34 H 4.59163 3.14419 1.16569 0
M  V30 35 H 6.53036 3.1501 -0.180698 0
M  V30 36 H 6.30386 1.49133 -0.614047 0
M  V30 37 H -0.685226 -0.0460899 -1.58418 0
M  V30 38 H -2.075 -1.09288 -1.58151 0
M  V30 39 H -2.6628 -0.694744 0.695427 0
M  V30 40 H -1.21859 0.397696 1.01007 0
M  V30 41 H -1.18998 2.6815 0.0880249 0
M  V30 42 H -2.55806 4.50326 -0.588604 0
M  V30 43 H -4.92232 4.17172 -1.24955 0
M  V30 44 H -5.87305 1.90252 -1.20328 0
M  V30 45 H -4.53386 0.0279939 -0.527596 0
M  V30 END ATOM
M  V30 BEGIN BOND
M  V30 1 1 1 2
M  V30 2 1 2 3
M  V30 3 1 3 4
M  V30 4 1 4 5
M  V30 5 2 5 6
M  V30 6 1 5 7
M  V30 7 2 7 8
M  V30 8 1 8 9
M  V30 9 2 9 10
M  V30 10 1 10 11
M  V30 11 2 11 12
M  V30 12 1 10 13
M  V30 13 1 13 14
M  V30 14 1 4 15
M  V30 15 1 15 16
M  V30 16 1 16 17
M  V30 17 2 17 18
M  V30 18 1 18 19
M  V30 19 2 19 20
M  V30 20 1 20 21
M  V30 21 2 21 22
M  V30 22 1 12 7
M  V30 23 1 22 17
M  V30 24 1 1 23
M  V30 25 1 1 24
M  V30 26 1 2 25
M  V30 27 1 2 26
M  V30 28 1 3 27
M  V30 29 1 3 28
M  V30 30 1 8 29
M  V30 31 1 9 30
M  V30 32 1 11 31
M  V30 33 1 12 32
M  V30 34 1 13 33
M  V30 35 1 13 34
M  V30 36 1 14 35
M  V30 37 1 14 36
M  V30 38 1 15 37
M  V30 39 1 15 38
M  V30 40 1 16 39
M  V30 41 1 16 40
M  V30 42 1 18 41
M  V30 43 1 19 42
M  V30 44 1 20 43
M  V30 45 1 21 44
M  V30 46 1 22 45
M  V30 END BOND
M  V30 END CTAB
M  END
