
     RDKit          3D

  0  0  0  0  0  0  0  0  0  0999 V3000
M  V30 BEGIN CTAB
M  V30 COUNTS 61 64 0 0 0
M  V30 BEGIN ATOM
M  V30 1 O 5.79431 1.1034 0.505615 0
M  V30 2 C 5.63476 0.375733 -0.505401 0
M  V30 3 C 6.81964 -0.194001 -1.12892 0
M  V30 4 C 8.07314 0.0615649 -0.618365 0
M  V30 5 C 9.22985 -0.453856 -1.16587 0
M  V30 6 C 9.17662 -1.2708 -2.28047 0
M  V30 7 C 7.91824 -1.52936 -2.79609 0
M  V30 8 C 6.76156 -1.01182 -2.24556 0
M  V30 9 N 10.3711 -1.79897 -2.8383 0
M  V30 10 O 4.33978 0.177307 -0.940637 0
M  V30 11 C 3.24622 0.769812 -0.26919 0
M  V30 12 C 2.77223 2.01917 -0.587235 0
M  V30 13 C 1.70308 2.56076 0.0929451 0
M  V30 14 C 1.06912 1.89256 1.10376 0
M  V30 15 C 1.54394 0.636353 1.42513 0
M  V30 16 C 2.61059 0.0839892 0.753898 0
M  V30 17 C -0.0662046 2.52554 1.79081 0
M  V30 18 C -1.36559 1.87472 1.44803 0
M  V30 19 C -2.1715 2.2891 0.414027 0
M  V30 20 C -3.38406 1.64813 0.123122 0
M  V30 21 C -3.81465 0.572334 0.867878 0
M  V30 22 C -2.99876 0.165093 1.9022 0
M  V30 23 C -1.80442 0.792803 2.19272 0
M  V30 24 O -5.00615 -0.0952363 0.62139 0
M  V30 25 C -5.19972 -1.09253 -0.290632 0
M  V30 26 O -4.21655 -1.45773 -0.984655 0
M  V30 27 C -6.49116 -1.73177 -0.476665 0
M  V30 28 C -6.63763 -2.73437 -1.40791 0
M  V30 29 C -7.85745 -3.375 -1.62245 0
M  V30 30 C -8.96391 -2.98913 -0.871176 0
M  V30 31 C -8.82707 -1.98757 0.062275 0
M  V30 32 C -7.60752 -1.37565 0.248792 0
M  V30 33 N -10.2316 -3.63856 -1.07717 0
M  V30 34 C -0.128562 4.0183 1.52112 0
M  V30 35 C 0.121366 2.39703 3.2992 0
M  V30 36 H 8.13563 0.69698 0.251076 0
M  V30 37 H 10.2134 -0.242185 -0.749695 0
M  V30 38 H 7.87805 -2.17938 -3.68206 0
M  V30 39 H 5.79027 -1.2278 -2.66521 0
M  V30 40 H 10.517 -2.82143 -3.00033 0
M  V30 41 H 11.1341 -1.13082 -3.09629 0
M  V30 42 H 3.26636 2.55888 -1.38746 0
M  V30 43 H 1.3991 3.56822 -0.236856 0
M  V30 44 H 1.06416 0.0675935 2.22495 0
M  V30 45 H 2.99965 -0.912402 0.996883 0
M  V30 46 H -1.84651 3.13675 -0.18552 0
M  V30 47 H -3.99711 1.99745 -0.697246 0
M  V30 48 H -3.33193 -0.680164 2.49121 0
M  V30 49 H -1.16443 0.461725 3.01552 0
M  V30 50 H -5.74772 -3.02098 -1.98877 0
M  V30 51 H -7.93879 -4.15618 -2.35879 0
M  V30 52 H -9.69566 -1.70342 0.632924 0
M  V30 53 H -7.52591 -0.591943 0.987702 0
M  V30 54 H -10.4554 -4.54084 -0.611591 0
M  V30 55 H -10.8982 -3.15375 -1.71176 0
M  V30 56 H -0.994727 4.39829 2.1377 0
M  V30 57 H -0.342276 4.28801 0.488031 0
M  V30 58 H 0.777683 4.497 1.93225 0
M  V30 59 H -0.920515 2.53817 3.71646 0
M  V30 60 H 0.728893 3.24312 3.62787 0
M  V30 61 H 0.541708 1.43623 3.60279 0
M  V30 END ATOM
M  V30 BEGIN BOND
M  V30 1 2 1 2
M  V30 2 1 2 3
M  V30 3 2 3 4
M  V30 4 1 4 5
M  V30 5 2 5 6
M  V30 6 1 6 7
M  V30 7 2 7 8
M  V30 8 1 6 9
M  V30 9 1 2 10
M  V30 10 1 10 11
M  V30 11 2 11 12
M  V30 12 1 12 13
M  V30 13 2 13 14
M  V30 14 1 14 15
M  V30 15 2 15 16
M  V30 16 1 14 17
M  V30 17 1 17 18
M  V30 18 2 18 19
M  V30 19 1 19 20
M  V30 20 2 20 21
M  V30 21 1 21 22
M  V30 22 2 22 23
M  V30 23 1 21 24
M  V30 24 1 24 25
M  V30 25 2 25 26
M  V30 26 1 25 27
M  V30 27 2 27 28
M  V30 28 1 28 29
M  V30 29 2 29 30
M  V30 30 1 30 31
M  V30 31 2 31 32
M  V30 32 1 30 33
M  V30 33 1 17 34
M  V30 34 1 17 35
M  V30 35 1 8 3
M  V30 36 1 16 11
M  V30 37 1 23 18
M  V30 38 1 32 27
M  V30 39 1 4 36
M  V30 40 1 5 37
M  V30 41 1 7 38
M  V30 42 1 8 39
M  V30 43 1 9 40
M  V30 44 1 9 41
M  V30 45 1 12 42
M  V30 46 1 13 43
M  V30 47 1 15 44
M  V30 48 1 16 45
M  V30 49 1 19 46
M  V30 50 1 20 47
M  V30 51 1 22 48
M  V30 52 1 23 49
M  V30 53 1 28 50
M  V30 54 1 29 51
M  V30 55 1 31 52
M  V30 56 1 32 53
M  V30 57 1 33 54
M  V30 58 1 33 55
M  V30 59 1 34 56
M  V30 60 1 34 57
M  V30 61 1 34 58
M  V30 62 1 35 59
M  V30 63 1 35 60
M  V30 64 1 35 61
M  V30 END BOND
M  V30 END CTAB
M  END
