
     RDKit          3D

  0  0  0  0  0  0  0  0  0  0999 V3000
M  V30 BEGIN CTAB
M  V30 COUNTS 32 33 0 0 0
M  V30 BEGIN ATOM
M  V30 1 C -1.32343 -1.17858 -1.5459 0
M  V30 2 C -1.39903 0.0891841 -0.686046 0
M  V30 3 C -1.34476 1.28439 -1.61996 0
M  V30 4 N -2.71034 0.0890243 -0.0840819 0
M  V30 5 C -2.99815 0.10725 1.14713 0
M  V30 6 N -4.36644 0.102973 1.52836 0
M  V30 7 N -1.94863 0.131344 2.10751 0
M  V30 8 C -0.740612 0.133541 1.67632 0
M  V30 9 N 0.279388 0.158408 2.69706 0
M  V30 10 N -0.369699 0.113604 0.303191 0
M  V30 11 C 1.02109 0.119635 0.017026 0
M  V30 12 C 1.69399 1.31752 -0.143168 0
M  V30 13 C 3.04562 1.37823 -0.422283 0
M  V30 14 C 3.7647 0.207603 -0.54889 0
M  V30 15 C 3.12789 -1.01532 -0.39566 0
M  V30 16 C 1.76978 -1.03536 -0.115953 0
M  V30 17 C 3.87676 -2.25566 -0.52713 0
M  V30 18 N 4.46441 -3.24836 -0.619822 0
M  V30 19 H -2.35819 -1.50087 -1.85201 0
M  V30 20 H -0.921022 -2.02074 -0.955326 0
M  V30 21 H -0.778208 -0.995292 -2.49103 0
M  V30 22 H -1.79086 2.18952 -1.14936 0
M  V30 23 H -0.337944 1.54013 -1.94024 0
M  V30 24 H -2.02295 1.02718 -2.48088 0
M  V30 25 H -4.69396 -0.474516 2.32004 0
M  V30 26 H -5.04666 0.683131 1.01037 0
M  V30 27 H 0.826255 -0.725936 2.87015 0
M  V30 28 H 0.484145 1.0098 3.25477 0
M  V30 29 H 1.11861 2.24745 -0.0417409 0
M  V30 30 H 3.55906 2.32158 -0.545048 0
M  V30 31 H 4.83883 0.208751 -0.769843 0
M  V30 32 H 1.28034 -2.00962 0.00244305 0
M  V30 END ATOM
M  V30 BEGIN BOND
M  V30 1 1 1 2
M  V30 2 1 2 3
M  V30 3 1 2 4
M  V30 4 2 4 5
M  V30 5 1 5 6
M  V30 6 1 5 7
M  V30 7 2 7 8
M  V30 8 1 8 9
M  V30 9 1 8 10
M  V30 10 1 10 11
M  V30 11 2 11 12
M  V30 12 1 12 13
M  V30 13 2 13 14
M  V30 14 1 14 15
M  V30 15 2 15 16
M  V30 16 1 15 17
M  V30 17 3 17 18
M  V30 18 1 10 2
M  V30 19 1 16 11
M  V30 20 1 1 19
M  V30 21 1 1 20
M  V30 22 1 1 21
M  V30 23 1 3 22
M  V30 24 1 3 23
M  V30 25 1 3 24
M  V30 26 1 6 25
M  V30 27 1 6 26
M  V30 28 1 9 27
M  V30 29 1 9 28
M  V30 30 1 12 29
M  V30 31 1 13 30
M  V30 32 1 14 31
M  V30 33 1 16 32
M  V30 END BOND
M  V30 END CTAB
M  END
