
     RDKit          3D

  0  0  0  0  0  0  0  0  0  0999 V3000
M  V30 BEGIN CTAB
M  V30 COUNTS 16 16 0 0 0
M  V30 BEGIN ATOM
M  V30 1 N 2.79933 0.226386 0.0366125 0
M  V30 2 C 1.38729 0.137157 0.0268268 0
M  V30 3 C 0.607144 1.21311 -0.329685 0
M  V30 4 C -0.770243 1.06481 -0.32013 0
M  V30 5 I -2.0336 2.67593 -0.856507 0
M  V30 6 C -1.39417 -0.115719 0.0315789 0
M  V30 7 N -2.81889 -0.229144 0.0289902 0
M  V30 8 C -0.578316 -1.17641 0.384279 0
M  V30 9 C 0.800548 -1.07773 0.390245 0
M  V30 10 I 2.0083 -2.72389 0.936085 0
M  V30 11 H 3.24058 0.998667 0.574633 0
M  V30 12 H 3.42887 -0.43375 -0.46201 0
M  V30 13 H 1.04078 2.1635 -0.614664 0
M  V30 14 H -3.44721 0.235988 0.686091 0
M  V30 15 H -3.21853 -0.847238 -0.720848 0
M  V30 16 H -1.05187 -2.11167 0.663455 0
M  V30 END ATOM
M  V30 BEGIN BOND
M  V30 1 1 1 2
M  V30 2 2 2 3
M  V30 3 1 3 4
M  V30 4 1 4 5
M  V30 5 2 4 6
M  V30 6 1 6 7
M  V30 7 1 6 8
M  V30 8 2 8 9
M  V30 9 1 9 10
M  V30 10 1 9 2
M  V30 11 1 1 11
M  V30 12 1 1 12
M  V30 13 1 3 13
M  V30 14 1 7 14
M  V30 15 1 7 15
M  V30 16 1 8 16
M  V30 END BOND
M  V30 END CTAB
M  END
