
     RDKit          3D

  0  0  0  0  0  0  0  0  0  0999 V3000
M  V30 BEGIN CTAB
M  V30 COUNTS 34 36 0 0 0
M  V30 BEGIN ATOM
M  V30 1 N -3.50371 -1.86618 -2.66268 0
M  V30 2 C -3.90163 -1.24992 -1.77682 0
M  V30 3 C -4.39043 -0.46777 -0.643649 0
M  V30 4 C -5.73607 -0.323079 -0.425307 0
M  V30 5 C -6.22063 0.407885 0.633953 0
M  V30 6 C -5.36984 1.023 1.5166 0
M  V30 7 C -3.99648 0.883489 1.30555 0
M  V30 8 C -3.50679 0.151143 0.244261 0
M  V30 9 N -2.13103 -0.0144442 -0.00446637 0
M  V30 10 C -1.04642 0.496406 0.725958 0
M  V30 11 O -1.09722 1.19828 1.74018 0
M  V30 12 C 0.302007 0.142819 0.205861 0
M  V30 13 S 0.703607 -0.797702 -1.15546 0
M  V30 14 C 2.40441 -0.716793 -1.05038 0
M  V30 15 C 2.60893 0.0523963 0.0592682 0
M  V30 16 C 1.50884 0.500758 0.714531 0
M  V30 17 N 1.59356 1.33328 1.91651 0
M  V30 18 C 3.97007 0.271279 0.365997 0
M  V30 19 C 4.98952 -0.241474 -0.381724 0
M  V30 20 C 4.71382 -1.0097 -1.48949 0
M  V30 21 N 3.42642 -1.23426 -1.80492 0
M  V30 22 N 5.78166 -1.54723 -2.27332 0
M  V30 23 C 6.37811 0.023196 -0.00906152 0
M  V30 24 N 7.4643 0.242524 0.300083 0
M  V30 25 H -6.42391 -0.807194 -1.11986 0
M  V30 26 H -7.29714 0.473613 0.736373 0
M  V30 27 H -5.77342 1.59145 2.34054 0
M  V30 28 H -3.34684 1.38349 2.02331 0
M  V30 29 H -1.88018 -0.60723 -0.86252 0
M  V30 30 H 1.13459 2.26821 1.94834 0
M  V30 31 H 2.10732 1.01425 2.75519 0
M  V30 32 H 4.26652 0.872621 1.23255 0
M  V30 33 H 5.6837 -1.44168 -3.30783 0
M  V30 34 H 6.58437 -2.00543 -1.79757 0
M  V30 END ATOM
M  V30 BEGIN BOND
M  V30 1 3 1 2
M  V30 2 1 2 3
M  V30 3 2 3 4
M  V30 4 1 4 5
M  V30 5 2 5 6
M  V30 6 1 6 7
M  V30 7 2 7 8
M  V30 8 1 8 9
M  V30 9 1 9 10
M  V30 10 2 10 11
M  V30 11 1 10 12
M  V30 12 1 12 13
M  V30 13 1 13 14
M  V30 14 2 14 15
M  V30 15 1 15 16
M  V30 16 1 16 17
M  V30 17 1 15 18
M  V30 18 2 18 19
M  V30 19 1 19 20
M  V30 20 2 20 21
M  V30 21 1 20 22
M  V30 22 1 19 23
M  V30 23 3 23 24
M  V30 24 1 8 3
M  V30 25 2 16 12
M  V30 26 1 21 14
M  V30 27 1 4 25
M  V30 28 1 5 26
M  V30 29 1 6 27
M  V30 30 1 7 28
M  V30 31 1 9 29
M  V30 32 1 17 30
M  V30 33 1 17 31
M  V30 34 1 18 32
M  V30 35 1 22 33
M  V30 36 1 22 34
M  V30 END BOND
M  V30 END CTAB
M  END
