
     RDKit          3D

  0  0  0  0  0  0  0  0  0  0999 V3000
M  V30 BEGIN CTAB
M  V30 COUNTS 26 25 0 0 0
M  V30 BEGIN ATOM
M  V30 1 N -4.01525 -1.11407 2.27383 0
M  V30 2 N -2.94408 -1.06533 1.37483 0
M  V30 3 C -2.26381 0.141625 1.18158 0
M  V30 4 O -2.58793 1.1855 1.79355 0
M  V30 5 C -1.10021 0.285248 0.234137 0
M  V30 6 C -0.555996 1.64101 0.204991 0
M  V30 7 C 0.566339 1.89187 -0.722005 0
M  V30 8 C 1.82379 1.14716 -0.613054 0
M  V30 9 C 1.87057 -0.278422 -0.932515 0
M  V30 10 O 1.04635 -0.935045 -1.61347 0
M  V30 11 N 2.98837 -1.03015 -0.410706 0
M  V30 12 N 3.13913 -2.39697 -0.649427 0
M  V30 13 H -3.79427 -1.68747 3.11371 0
M  V30 14 H -4.85984 -1.56477 1.8195 0
M  V30 15 H -2.7152 -1.96105 0.891756 0
M  V30 16 H -1.46162 -0.0526381 -0.741446 0
M  V30 17 H -0.337396 -0.410155 0.650397 0
M  V30 18 H -0.333837 2.03637 1.24411 0
M  V30 19 H -1.39644 2.34357 -0.114292 0
M  V30 20 H 0.23652 1.81095 -1.80587 0
M  V30 21 H 0.843906 3.00907 -0.675432 0
M  V30 22 H 2.57867 1.62561 -1.33361 0
M  V30 23 H 2.35231 1.32939 0.382159 0
M  V30 24 H 3.69278 -0.536185 0.154465 0
M  V30 25 H 3.74948 -2.81495 0.0644552 0
M  V30 26 H 3.47767 -2.60018 -1.62256 0
M  V30 END ATOM
M  V30 BEGIN BOND
M  V30 1 1 1 2
M  V30 2 1 2 3
M  V30 3 2 3 4
M  V30 4 1 3 5
M  V30 5 1 5 6
M  V30 6 1 6 7
M  V30 7 1 7 8
M  V30 8 1 8 9
M  V30 9 2 9 10
M  V30 10 1 9 11
M  V30 11 1 11 12
M  V30 12 1 1 13
M  V30 13 1 1 14
M  V30 14 1 2 15
M  V30 15 1 5 16
M  V30 16 1 5 17
M  V30 17 1 6 18
M  V30 18 1 6 19
M  V30 19 1 7 20
M  V30 20 1 7 21
M  V30 21 1 8 22
M  V30 22 1 8 23
M  V30 23 1 11 24
M  V30 24 1 12 25
M  V30 25 1 12 26
M  V30 END BOND
M  V30 END CTAB
M  END
