
     RDKit          3D

  0  0  0  0  0  0  0  0  0  0999 V3000
M  V30 BEGIN CTAB
M  V30 COUNTS 25 26 0 0 0
M  V30 BEGIN ATOM
M  V30 1 N 5.09846 -0.304657 -0.0656209 0
M  V30 2 C 3.94278 -1.13617 -0.269386 0
M  V30 3 C 2.7035 -0.337727 -0.101285 0
M  V30 4 C 2.67363 1.00665 0.205729 0
M  V30 5 C 1.33651 1.35209 0.269126 0
M  V30 6 C 0.609841 0.212411 9.45311e-05 0
M  V30 7 O 1.44967 -0.770453 -0.21483 0
M  V30 8 C -0.845885 0.143799 -0.032551 0
M  V30 9 N -1.62929 -0.925595 -0.286184 0
M  V30 10 N -2.89684 -0.590697 -0.224377 0
M  V30 11 C -2.98925 0.709273 0.0717684 0
M  V30 12 N -1.70946 1.15046 0.187552 0
M  V30 13 N -4.15474 1.50538 0.240226 0
M  V30 14 C -4.0455 -1.47439 -0.439814 0
M  V30 15 H 5.20873 -0.168004 0.970426 0
M  V30 16 H 5.01556 0.615995 -0.531024 0
M  V30 17 H 4.02292 -1.56961 -1.28561 0
M  V30 18 H 3.92884 -1.95149 0.487319 0
M  V30 19 H 3.47062 1.6979 0.373051 0
M  V30 20 H 0.967087 2.34319 0.491405 0
M  V30 21 H -4.12047 2.53468 0.0800828 0
M  V30 22 H -5.0704 1.09717 0.524935 0
M  V30 23 H -3.86179 -2.39126 0.191235 0
M  V30 24 H -4.96982 -0.983789 -0.0956415 0
M  V30 25 H -4.13469 -1.76515 -1.50473 0
M  V30 END ATOM
M  V30 BEGIN BOND
M  V30 1 1 1 2
M  V30 2 1 2 3
M  V30 3 2 3 4
M  V30 4 1 4 5
M  V30 5 2 5 6
M  V30 6 1 6 7
M  V30 7 1 6 8
M  V30 8 2 8 9
M  V30 9 1 9 10
M  V30 10 1 10 11
M  V30 11 2 11 12
M  V30 12 1 11 13
M  V30 13 1 10 14
M  V30 14 1 7 3
M  V30 15 1 12 8
M  V30 16 1 1 15
M  V30 17 1 1 16
M  V30 18 1 2 17
M  V30 19 1 2 18
M  V30 20 1 4 19
M  V30 21 1 5 20
M  V30 22 1 13 21
M  V30 23 1 13 22
M  V30 24 1 14 23
M  V30 25 1 14 24
M  V30 26 1 14 25
M  V30 END BOND
M  V30 END CTAB
M  END
