
     RDKit          3D

  0  0  0  0  0  0  0  0  0  0999 V3000
M  V30 BEGIN CTAB
M  V30 COUNTS 63 66 0 0 0
M  V30 BEGIN ATOM
M  V30 1 C -3.98949 -6.14493 -0.953523 0
M  V30 2 S -3.67921 -5.45378 0.644968 0
M  V30 3 O -2.40876 -6.08123 1.17564 0
M  V30 4 O -4.80844 -5.81603 1.58047 0
M  V30 5 C -3.43531 -3.72538 0.567019 0
M  V30 6 C -2.15694 -3.19174 0.380302 0
M  V30 7 C -1.90887 -1.84671 0.311702 0
M  V30 8 N -0.627414 -1.2771 0.122099 0
M  V30 9 C 0.58942 -1.95056 -0.0197774 0
M  V30 10 O 0.706051 -3.1805 0.000644497 0
M  V30 11 C 1.81856 -1.13016 -0.208081 0
M  V30 12 C 2.92067 -1.75543 -0.782115 0
M  V30 13 C 4.06134 -1.02307 -0.95666 0
M  V30 14 C 4.18125 0.295504 -0.597399 0
M  V30 15 C 3.09662 0.903162 -0.0356513 0
M  V30 16 C 1.90505 0.184228 0.16142 0
M  V30 17 C 5.40638 1.00128 -0.852334 0
M  V30 18 C 5.74695 1.33435 -2.18319 0
M  V30 19 C 6.89078 2.03247 -2.47758 0
M  V30 20 C 7.72627 2.41742 -1.45199 0
M  V30 21 C 7.38557 2.08807 -0.165543 0
M  V30 22 C 6.22885 1.37746 0.171753 0
M  V30 23 S 5.91373 0.988194 1.8089 0
M  V30 24 N 5.75589 -0.706797 2.08931 0
M  V30 25 O 7.13589 1.40047 2.65155 0
M  V30 26 O 4.77245 1.69994 2.45019 0
M  V30 27 C -2.99641 -0.928432 0.434819 0
M  V30 28 O -2.76329 0.36017 0.369714 0
M  V30 29 C -3.11271 1.6099 0.382594 0
M  V30 30 C -4.40145 2.10226 0.527381 0
M  V30 31 C -4.71935 3.44465 0.534443 0
M  V30 32 C -3.69578 4.34711 0.389078 0
M  V30 33 C -2.40146 3.90648 0.242363 0
M  V30 34 C -2.08573 2.58254 0.23515 0
M  V30 35 C -6.09219 3.87594 0.6904 0
M  V30 36 N -7.11759 2.88935 0.836443 0
M  V30 37 N -6.44321 5.11811 0.704545 0
M  V30 38 C -4.24713 -1.4837 0.618343 0
M  V30 39 C -4.47421 -2.84329 0.684453 0
M  V30 40 H -4.53057 -7.10695 -0.80302 0
M  V30 41 H -3.06137 -6.37528 -1.49882 0
M  V30 42 H -4.67101 -5.50741 -1.56587 0
M  V30 43 H -1.37435 -3.92827 0.293572 0
M  V30 44 H -0.617499 -0.199236 0.0796158 0
M  V30 45 H 2.87152 -2.78445 -1.07797 0
M  V30 46 H 4.93898 -1.51027 -1.41051 0
M  V30 47 H 3.06789 1.93652 0.264049 0
M  V30 48 H 1.05884 0.67753 0.613002 0
M  V30 49 H 5.07954 1.02536 -2.98683 0
M  V30 50 H 7.17423 2.3003 -3.49127 0
M  V30 51 H 8.64481 2.97823 -1.68502 0
M  V30 52 H 8.04936 2.39518 0.638449 0
M  V30 53 H 5.12702 -0.920602 2.89151 0
M  V30 54 H 6.67935 -1.18449 2.15273 0
M  V30 55 H -5.2314 1.43396 0.643192 0
M  V30 56 H -3.85846 5.41353 0.383819 0
M  V30 57 H -1.60085 4.65529 0.127783 0
M  V30 58 H -1.06551 2.2764 0.118584 0
M  V30 59 H -7.80178 2.73879 0.0495226 0
M  V30 60 H -7.18217 2.33118 1.70956 0
M  V30 61 H -5.81191 5.93074 0.609777 0
M  V30 62 H -5.08833 -0.795706 0.714688 0
M  V30 63 H -5.47309 -3.20055 0.828872 0
M  V30 END ATOM
M  V30 BEGIN BOND
M  V30 1 1 1 2
M  V30 2 2 2 3
M  V30 3 2 2 4
M  V30 4 1 2 5
M  V30 5 2 5 6
M  V30 6 1 6 7
M  V30 7 1 7 8
M  V30 8 1 8 9
M  V30 9 2 9 10
M  V30 10 1 9 11
M  V30 11 2 11 12
M  V30 12 1 12 13
M  V30 13 2 13 14
M  V30 14 1 14 15
M  V30 15 2 15 16
M  V30 16 1 14 17
M  V30 17 2 17 18
M  V30 18 1 18 19
M  V30 19 2 19 20
M  V30 20 1 20 21
M  V30 21 2 21 22
M  V30 22 1 22 23
M  V30 23 1 23 24
M  V30 24 2 23 25
M  V30 25 2 23 26
M  V30 26 2 7 27
M  V30 27 1 27 28
M  V30 28 1 28 29
M  V30 29 2 29 30
M  V30 30 1 30 31
M  V30 31 2 31 32
M  V30 32 1 32 33
M  V30 33 2 33 34
M  V30 34 1 31 35
M  V30 35 1 35 36
M  V30 36 2 35 37 CFG=2
M  V30 37 1 27 38
M  V30 38 2 38 39
M  V30 39 1 39 5
M  V30 40 1 16 11
M  V30 41 1 22 17
M  V30 42 1 34 29
M  V30 43 1 1 40
M  V30 44 1 1 41
M  V30 45 1 1 42
M  V30 46 1 6 43
M  V30 47 1 8 44
M  V30 48 1 12 45
M  V30 49 1 13 46
M  V30 50 1 15 47
M  V30 51 1 16 48
M  V30 52 1 18 49
M  V30 53 1 19 50
M  V30 54 1 20 51
M  V30 55 1 21 52
M  V30 56 1 24 53
M  V30 57 1 24 54
M  V30 58 1 30 55
M  V30 59 1 32 56
M  V30 60 1 33 57
M  V30 61 1 34 58
M  V30 62 1 36 59
M  V30 63 1 36 60
M  V30 64 1 37 61
M  V30 65 1 38 62
M  V30 66 1 39 63
M  V30 END BOND
M  V30 END CTAB
M  END
