
     RDKit          3D

  0  0  0  0  0  0  0  0  0  0999 V3000
M  V30 BEGIN CTAB
M  V30 COUNTS 17 17 0 0 0
M  V30 BEGIN ATOM
M  V30 1 N 2.13983 -1.76722 -0.326576 0
M  V30 2 C 1.0696 -0.842389 -0.158755 0
M  V30 3 N -0.199525 -1.28144 -0.206615 0
M  V30 4 C -1.24109 -0.458155 -0.0556339 0
M  V30 5 N -2.59709 -0.93298 -0.107674 0
M  V30 6 C -1.08301 0.896494 0.159296 0
M  V30 7 C 0.230141 1.33717 0.206626 0
M  V30 8 C 1.30362 0.497819 0.0524886 0
M  V30 9 C 2.64945 0.957958 0.102346 0
M  V30 10 N 3.74103 1.33463 0.161978 0
M  V30 11 C -2.20313 1.78853 0.322755 0
M  V30 12 N -3.10094 2.50852 0.452092 0
M  V30 13 H 2.80575 -1.89404 0.443067 0
M  V30 14 H 2.23596 -2.29165 -1.20153 0
M  V30 15 H -2.77318 -1.85755 0.367012 0
M  V30 16 H -3.35396 -0.393729 -0.585426 0
M  V30 17 H 0.376539 2.39804 0.374545 0
M  V30 END ATOM
M  V30 BEGIN BOND
M  V30 1 1 1 2
M  V30 2 2 2 3
M  V30 3 1 3 4
M  V30 4 1 4 5
M  V30 5 2 4 6
M  V30 6 1 6 7
M  V30 7 2 7 8
M  V30 8 1 8 9
M  V30 9 3 9 10
M  V30 10 1 6 11
M  V30 11 3 11 12
M  V30 12 1 8 2
M  V30 13 1 1 13
M  V30 14 1 1 14
M  V30 15 1 5 15
M  V30 16 1 5 16
M  V30 17 1 7 17
M  V30 END BOND
M  V30 END CTAB
M  END
