
     RDKit          3D

  0  0  0  0  0  0  0  0  0  0999 V3000
M  V30 BEGIN CTAB
M  V30 COUNTS 33 34 0 0 0
M  V30 BEGIN ATOM
M  V30 1 N -1.45598 1.44448 1.53717 0
M  V30 2 C -1.82191 0.54626 0.455828 0
M  V30 3 C -2.93905 1.1266 -0.387675 0
M  V30 4 C -3.949 0.0252979 -0.512968 0
M  V30 5 C -3.25111 -1.23883 -0.104193 0
M  V30 6 C -2.33249 -0.763334 0.989548 0
M  V30 7 C -0.594658 0.256816 -0.317877 0
M  V30 8 N -0.398966 -0.0229059 -1.60592 0
M  V30 9 O 0.887206 -0.19055 -1.77318 0
M  V30 10 C 1.54485 -0.0388858 -0.686704 0
M  V30 11 N 0.624201 0.246449 0.2549 0
M  V30 12 C 2.99096 -0.126253 -0.358384 0
M  V30 13 N 3.48893 1.16422 0.101518 0
M  V30 14 C 3.11818 -1.0853 0.794686 0
M  V30 15 C 3.82664 -0.578015 -1.52126 0
M  V30 16 H -2.28261 1.82912 2.0241 0
M  V30 17 H -0.813994 2.1612 1.16517 0
M  V30 18 H -2.5962 1.52754 -1.34005 0
M  V30 19 H -3.37299 1.96688 0.202544 0
M  V30 20 H -4.78098 0.18423 0.196971 0
M  V30 21 H -4.30133 0.019646 -1.55933 0
M  V30 22 H -2.58705 -1.53045 -0.950985 0
M  V30 23 H -3.92874 -2.02956 0.209374 0
M  V30 24 H -2.8342 -0.665907 1.96864 0
M  V30 25 H -1.48057 -1.46179 1.16198 0
M  V30 26 H 3.09952 1.91795 -0.527097 0
M  V30 27 H 4.51433 1.14483 0.111975 0
M  V30 28 H 2.8014 -0.550119 1.73251 0
M  V30 29 H 2.50818 -2.01041 0.677032 0
M  V30 30 H 4.20381 -1.29461 0.91404 0
M  V30 31 H 3.67206 -1.65339 -1.65985 0
M  V30 32 H 4.88953 -0.298904 -1.29574 0
M  V30 33 H 3.55201 -0.0222921 -2.44324 0
M  V30 END ATOM
M  V30 BEGIN BOND
M  V30 1 1 1 2
M  V30 2 1 2 3
M  V30 3 1 3 4
M  V30 4 1 4 5
M  V30 5 1 5 6
M  V30 6 1 2 7
M  V30 7 2 7 8
M  V30 8 1 8 9
M  V30 9 1 9 10
M  V30 10 2 10 11
M  V30 11 1 10 12
M  V30 12 1 12 13
M  V30 13 1 12 14
M  V30 14 1 12 15
M  V30 15 1 6 2
M  V30 16 1 11 7
M  V30 17 1 1 16
M  V30 18 1 1 17
M  V30 19 1 3 18
M  V30 20 1 3 19
M  V30 21 1 4 20
M  V30 22 1 4 21
M  V30 23 1 5 22
M  V30 24 1 5 23
M  V30 25 1 6 24
M  V30 26 1 6 25
M  V30 27 1 13 26
M  V30 28 1 13 27
M  V30 29 1 14 28
M  V30 30 1 14 29
M  V30 31 1 14 30
M  V30 32 1 15 31
M  V30 33 1 15 32
M  V30 34 1 15 33
M  V30 END BOND
M  V30 END CTAB
M  END
