
     RDKit          3D

  0  0  0  0  0  0  0  0  0  0999 V3000
M  V30 BEGIN CTAB
M  V30 COUNTS 27 27 0 0 0
M  V30 BEGIN ATOM
M  V30 1 C -4.37379 0.610741 0.780647 0
M  V30 2 C -3.67729 1.28057 -0.374354 0
M  V30 3 O -2.2887 1.13428 -0.356166 0
M  V30 4 C -1.62051 -0.0816413 -0.394346 0
M  V30 5 O -2.29816 -1.12436 -0.44887 0
M  V30 6 C -0.155913 -0.0846743 -0.368963 0
M  V30 7 N 0.558339 1.05229 -0.309945 0
M  V30 8 C 1.9075 1.04916 -0.286591 0
M  V30 9 S 2.78994 2.59925 -0.207714 0
M  V30 10 C 4.57507 2.27728 -0.18984 0
M  V30 11 N 2.52626 -0.139923 -0.324544 0
M  V30 12 C 1.86749 -1.31127 -0.384004 0
M  V30 13 N 2.50951 -2.58023 -0.424828 0
M  V30 14 C 0.48696 -1.3061 -0.407821 0
M  V30 15 N -0.286826 -2.49554 -0.470051 0
M  V30 16 H -5.25431 1.2189 1.10817 0
M  V30 17 H -3.69789 0.530544 1.64359 0
M  V30 18 H -4.7242 -0.411153 0.507437 0
M  V30 19 H -4.14434 0.931835 -1.31394 0
M  V30 20 H -3.89854 2.36905 -0.300538 0
M  V30 21 H 5.10873 2.99953 0.459363 0
M  V30 22 H 4.99616 2.22878 -1.21287 0
M  V30 23 H 4.71279 1.27222 0.260583 0
M  V30 24 H 3.25685 -2.79938 0.28598 0
M  V30 25 H 2.27734 -3.31436 -1.12924 0
M  V30 26 H -0.406654 -3.06341 0.399006 0
M  V30 27 H -0.745808 -2.84238 -1.32841 0
M  V30 END ATOM
M  V30 BEGIN BOND
M  V30 1 1 1 2
M  V30 2 1 2 3
M  V30 3 1 3 4
M  V30 4 2 4 5
M  V30 5 1 4 6
M  V30 6 2 6 7
M  V30 7 1 7 8
M  V30 8 1 8 9
M  V30 9 1 9 10
M  V30 10 2 8 11
M  V30 11 1 11 12
M  V30 12 1 12 13
M  V30 13 2 12 14
M  V30 14 1 14 15
M  V30 15 1 14 6
M  V30 16 1 1 16
M  V30 17 1 1 17
M  V30 18 1 1 18
M  V30 19 1 2 19
M  V30 20 1 2 20
M  V30 21 1 10 21
M  V30 22 1 10 22
M  V30 23 1 10 23
M  V30 24 1 13 24
M  V30 25 1 13 25
M  V30 26 1 15 26
M  V30 27 1 15 27
M  V30 END BOND
M  V30 END CTAB
M  END
