
     RDKit          3D

  0  0  0  0  0  0  0  0  0  0999 V3000
M  V30 BEGIN CTAB
M  V30 COUNTS 24 26 0 0 0
M  V30 BEGIN ATOM
M  V30 1 N 5.042 0.34396 0.233454 0
M  V30 2 C 3.62301 0.260224 0.18942 0
M  V30 3 N 2.71815 1.24925 0.308636 0
M  V30 4 C 1.45929 0.790815 0.215284 0
M  V30 5 C 1.5724 -0.569197 0.025676 0
M  V30 6 N 2.87311 -0.866566 0.0131788 0
M  V30 7 C 0.405574 -1.3074 -0.105115 0
M  V30 8 C -0.820236 -0.701661 -0.0473388 0
M  V30 9 C -2.00344 -1.39925 -0.172752 0
M  V30 10 O -1.96971 -2.64198 -0.347583 0
M  V30 11 N -3.2122 -0.81504 -0.117625 0
M  V30 12 C -3.26802 0.523581 0.0702586 0
M  V30 13 N -4.52067 1.18457 0.135229 0
M  V30 14 N -2.12428 1.22925 0.195919 0
M  V30 15 C -0.898123 0.674454 0.145345 0
M  V30 16 C 0.235193 1.4426 0.279607 0
M  V30 17 H 5.56898 0.597895 -0.609871 0
M  V30 18 H 5.50355 0.13958 1.14136 0
M  V30 19 H 3.2461 -1.81764 -0.112743 0
M  V30 20 H 0.489198 -2.37443 -0.253997 0
M  V30 21 H -4.11034 -1.33596 -0.211613 0
M  V30 22 H -5.12176 1.36788 -0.690928 0
M  V30 23 H -4.86374 1.5075 1.06175 0
M  V30 24 H 0.175956 2.51755 0.430177 0
M  V30 END ATOM
M  V30 BEGIN BOND
M  V30 1 1 1 2
M  V30 2 2 2 3
M  V30 3 1 3 4
M  V30 4 2 4 5
M  V30 5 1 5 6
M  V30 6 1 5 7
M  V30 7 2 7 8
M  V30 8 1 8 9
M  V30 9 2 9 10
M  V30 10 1 9 11
M  V30 11 1 11 12
M  V30 12 1 12 13
M  V30 13 2 12 14
M  V30 14 1 14 15
M  V30 15 2 15 16
M  V30 16 1 6 2
M  V30 17 1 15 8
M  V30 18 1 16 4
M  V30 19 1 1 17
M  V30 20 1 1 18
M  V30 21 1 6 19
M  V30 22 1 7 20
M  V30 23 1 11 21
M  V30 24 1 13 22
M  V30 25 1 13 23
M  V30 26 1 16 24
M  V30 END BOND
M  V30 END CTAB
M  END
