
     RDKit          3D

  0  0  0  0  0  0  0  0  0  0999 V3000
M  V30 BEGIN CTAB
M  V30 COUNTS 62 67 0 0 0
M  V30 BEGIN ATOM
M  V30 1 N 7.09993 4.45759 1.79744 0
M  V30 2 C 6.343 3.58301 0.969313 0
M  V30 3 N 5.63719 2.60257 1.55293 0
M  V30 4 C 4.91162 1.75933 0.799414 0
M  V30 5 N 4.2115 0.783615 1.40448 0
M  V30 6 C 3.49432 -0.0474728 0.639961 0
M  V30 7 C 3.41156 0.0123123 -0.728092 0
M  V30 8 C 2.64485 -0.866442 -1.63253 0
M  V30 9 N 1.71425 -1.7752 -1.0778 0
M  V30 10 C 0.393977 -1.33076 -0.75183 0
M  V30 11 C 0.263786 0.0304724 -0.844381 0
M  V30 12 C -0.936795 0.679069 -0.570777 0
M  V30 13 C -2.0604 -0.00720853 -0.193081 0
M  V30 14 O -3.256 0.647558 0.0791017 0
M  V30 15 C -4.41253 -0.0887826 0.470671 0
M  V30 16 C -5.55734 0.806945 0.706123 0
M  V30 17 C -5.76692 1.32806 1.95977 0
M  V30 18 C -6.82515 2.1553 2.17493 0
M  V30 19 C -7.69745 2.48899 1.17203 0
M  V30 20 C -7.49676 1.9693 -0.0985476 0
M  V30 21 C -6.41967 1.13242 -0.30021 0
M  V30 22 C -8.80267 3.37282 1.46402 0
M  V30 23 O -9.68364 3.7132 0.462604 0
M  V30 24 O -8.95845 3.82406 2.6124 0
M  V30 25 C -1.92127 -1.36943 -0.104316 0
M  V30 26 C -0.737571 -2.03879 -0.371382 0
M  V30 27 C -0.900213 -3.47445 -0.222475 0
M  V30 28 C -0.0103542 -4.4146 -0.271793 0
M  V30 29 C 1.41992 -4.27851 -0.493589 0
M  V30 30 C 2.14596 -3.13391 -0.8328 0
M  V30 31 C 3.51111 -3.26484 -0.972469 0
M  V30 32 C 4.12765 -4.48173 -0.78388 0
M  V30 33 C 3.40208 -5.62592 -0.445464 0
M  V30 34 C 2.03592 -5.51405 -0.300935 0
M  V30 35 N 4.11778 0.995233 -1.3279 0
M  V30 36 C 4.85398 1.854 -0.589429 0
M  V30 37 C 5.58816 2.86831 -1.15095 0
M  V30 38 N 5.61242 3.06894 -2.54339 0
M  V30 39 N 6.29726 3.68644 -0.365448 0
M  V30 40 H 6.6433 5.0713 2.49787 0
M  V30 41 H 8.13219 4.47361 1.6896 0
M  V30 42 H 2.93345 -0.829268 1.12597 0
M  V30 43 H 3.31021 -1.32221 -2.45526 0
M  V30 44 H 2.16086 -0.20754 -2.45327 0
M  V30 45 H 1.10485 0.600937 -1.15014 0
M  V30 46 H -0.9576 1.7487 -0.665575 0
M  V30 47 H -4.19712 -0.648521 1.41371 0
M  V30 48 H -4.64082 -0.884398 -0.288516 0
M  V30 49 H -5.07038 1.05793 2.74814 0
M  V30 50 H -6.95813 2.55 3.18743 0
M  V30 51 H -8.19533 2.24102 -0.886477 0
M  V30 52 H -6.28234 0.733781 -1.31548 0
M  V30 53 H -10.5643 4.17423 0.656167 0
M  V30 54 H -2.77568 -1.96319 0.189269 0
M  V30 55 H -1.92273 -3.79681 -0.0437378 0
M  V30 56 H -0.347807 -5.45009 -0.133272 0
M  V30 57 H 4.09102 -2.44667 -1.21514 0
M  V30 58 H 5.19156 -4.53504 -0.903604 0
M  V30 59 H 3.88606 -6.57922 -0.298032 0
M  V30 60 H 1.42303 -6.38626 -0.0352349 0
M  V30 61 H 5.85419 2.2814 -3.16951 0
M  V30 62 H 5.3865 4.00887 -2.92827 0
M  V30 END ATOM
M  V30 BEGIN BOND
M  V30 1 1 1 2
M  V30 2 2 2 3
M  V30 3 1 3 4
M  V30 4 2 4 5
M  V30 5 1 5 6
M  V30 6 2 6 7
M  V30 7 1 7 8
M  V30 8 1 8 9
M  V30 9 1 9 10
M  V30 10 2 10 11
M  V30 11 1 11 12
M  V30 12 2 12 13
M  V30 13 1 13 14
M  V30 14 1 14 15
M  V30 15 1 15 16
M  V30 16 2 16 17
M  V30 17 1 17 18
M  V30 18 2 18 19
M  V30 19 1 19 20
M  V30 20 2 20 21
M  V30 21 1 19 22
M  V30 22 1 22 23
M  V30 23 2 22 24
M  V30 24 1 13 25
M  V30 25 2 25 26
M  V30 26 1 26 27
M  V30 27 2 27 28
M  V30 28 1 28 29
M  V30 29 2 29 30
M  V30 30 1 30 31
M  V30 31 2 31 32
M  V30 32 1 32 33
M  V30 33 2 33 34
M  V30 34 1 7 35
M  V30 35 2 35 36
M  V30 36 1 36 37
M  V30 37 1 37 38
M  V30 38 2 37 39
M  V30 39 1 39 2
M  V30 40 1 36 4
M  V30 41 1 30 9
M  V30 42 1 26 10
M  V30 43 1 34 29
M  V30 44 1 21 16
M  V30 45 1 1 40
M  V30 46 1 1 41
M  V30 47 1 6 42
M  V30 48 1 8 43
M  V30 49 1 8 44
M  V30 50 1 11 45
M  V30 51 1 12 46
M  V30 52 1 15 47
M  V30 53 1 15 48
M  V30 54 1 17 49
M  V30 55 1 18 50
M  V30 56 1 20 51
M  V30 57 1 21 52
M  V30 58 1 23 53
M  V30 59 1 25 54
M  V30 60 1 27 55
M  V30 61 1 28 56
M  V30 62 1 31 57
M  V30 63 1 32 58
M  V30 64 1 33 59
M  V30 65 1 34 60
M  V30 66 1 38 61
M  V30 67 1 38 62
M  V30 END BOND
M  V30 END CTAB
M  END
