
     RDKit          3D

  0  0  0  0  0  0  0  0  0  0999 V3000
M  V30 BEGIN CTAB
M  V30 COUNTS 28 29 0 0 0
M  V30 BEGIN ATOM
M  V30 1 C -0.57155 -1.40064 0.637675 0
M  V30 2 C -0.504147 0.083099 0.2617 0
M  V30 3 C -1.1209 0.364413 -1.05879 0
M  V30 4 N -2.53064 0.653539 -1.02225 0
M  V30 5 C -3.15047 0.294438 0.212926 0
M  V30 6 C -2.3992 0.886207 1.35065 0
M  V30 7 O -1.05772 0.7546 1.33572 0
M  V30 8 C 0.920972 0.550544 0.219606 0
M  V30 9 N 1.38312 1.71603 0.704217 0
M  V30 10 N 2.70677 1.80764 0.554638 0
M  V30 11 C 3.11124 0.674692 -0.0341186 0
M  V30 12 N 2.00496 -0.0963612 -0.240991 0
M  V30 13 N 2.05841 -1.33802 -0.840486 0
M  V30 14 N 4.46893 0.351961 -0.345725 0
M  V30 15 H -0.746047 -2.05132 -0.242299 0
M  V30 16 H -1.38728 -1.56454 1.37285 0
M  V30 17 H 0.352265 -1.7102 1.18693 0
M  V30 18 H -1.00626 -0.534718 -1.75344 0
M  V30 19 H -0.617339 1.17797 -1.61551 0
M  V30 20 H -3.05437 0.178783 -1.80504 0
M  V30 21 H -4.18353 0.751355 0.221479 0
M  V30 22 H -3.34959 -0.795977 0.325348 0
M  V30 23 H -2.66714 1.97808 1.39599 0
M  V30 24 H -2.80184 0.469403 2.3231 0
M  V30 25 H 2.14316 -2.2139 -0.28595 0
M  V30 26 H 2.01661 -1.44332 -1.86568 0
M  V30 27 H 5.26359 0.663875 0.265741 0
M  V30 28 H 4.718 -0.207616 -1.17552 0
M  V30 END ATOM
M  V30 BEGIN BOND
M  V30 1 1 1 2
M  V30 2 1 2 3
M  V30 3 1 3 4
M  V30 4 1 4 5
M  V30 5 1 5 6
M  V30 6 1 6 7
M  V30 7 1 2 8
M  V30 8 2 8 9
M  V30 9 1 9 10
M  V30 10 2 10 11
M  V30 11 1 11 12
M  V30 12 1 12 13
M  V30 13 1 11 14
M  V30 14 1 7 2
M  V30 15 1 12 8
M  V30 16 1 1 15
M  V30 17 1 1 16
M  V30 18 1 1 17
M  V30 19 1 3 18
M  V30 20 1 3 19
M  V30 21 1 4 20
M  V30 22 1 5 21
M  V30 23 1 5 22
M  V30 24 1 6 23
M  V30 25 1 6 24
M  V30 26 1 13 25
M  V30 27 1 13 26
M  V30 28 1 14 27
M  V30 29 1 14 28
M  V30 END BOND
M  V30 END CTAB
M  END
