
     RDKit          3D

  0  0  0  0  0  0  0  0  0  0999 V3000
M  V30 BEGIN CTAB
M  V30 COUNTS 28 29 0 0 0
M  V30 BEGIN ATOM
M  V30 1 N 6.21814 -0.469231 -0.759885 0
M  V30 2 C 4.95286 -0.17709 -0.202417 0
M  V30 3 N 4.73295 0.838794 0.654482 0
M  V30 4 N 3.45282 0.839454 0.986258 0
M  V30 5 C 2.89838 -0.185546 0.322554 0
M  V30 6 C 1.45116 -0.549421 0.410511 0
M  V30 7 C 0.73717 0.219799 -0.676313 0
M  V30 8 C -0.738451 -0.0691779 -0.698678 0
M  V30 9 C -1.38541 0.309229 0.613193 0
M  V30 10 C -2.8615 0.0170186 0.554595 0
M  V30 11 N -3.4597 -1.13546 0.901405 0
M  V30 12 N -4.76509 -1.03931 0.722531 0
M  V30 13 C -4.99311 0.213222 0.248458 0
M  V30 14 N -6.27576 0.723191 -0.076195 0
M  V30 15 O -3.82355 0.809822 0.164057 0
M  V30 16 O 3.80338 -0.785432 -0.384032 0
M  V30 17 H 6.3805 -0.261156 -1.7607 0
M  V30 18 H 6.95312 -0.878591 -0.176764 0
M  V30 19 H 1.3478 -1.63229 0.319175 0
M  V30 20 H 1.04836 -0.197413 1.38766 0
M  V30 21 H 0.865691 1.30913 -0.417082 0
M  V30 22 H 1.19451 0.0422208 -1.66597 0
M  V30 23 H -0.845583 -1.19089 -0.786797 0
M  V30 24 H -1.2509 0.367427 -1.56696 0
M  V30 25 H -0.957878 -0.310773 1.44426 0
M  V30 26 H -1.18845 1.36841 0.871612 0
M  V30 27 H -6.62133 0.739646 -1.0477 0
M  V30 28 H -6.8701 1.08442 0.686596 0
M  V30 END ATOM
M  V30 BEGIN BOND
M  V30 1 1 1 2
M  V30 2 2 2 3
M  V30 3 1 3 4
M  V30 4 2 4 5
M  V30 5 1 5 6
M  V30 6 1 6 7
M  V30 7 1 7 8
M  V30 8 1 8 9
M  V30 9 1 9 10
M  V30 10 2 10 11
M  V30 11 1 11 12
M  V30 12 2 12 13
M  V30 13 1 13 14
M  V30 14 1 13 15
M  V30 15 1 5 16
M  V30 16 1 16 2
M  V30 17 1 15 10
M  V30 18 1 1 17
M  V30 19 1 1 18
M  V30 20 1 6 19
M  V30 21 1 6 20
M  V30 22 1 7 21
M  V30 23 1 7 22
M  V30 24 1 8 23
M  V30 25 1 8 24
M  V30 26 1 9 25
M  V30 27 1 9 26
M  V30 28 1 14 27
M  V30 29 1 14 28
M  V30 END BOND
M  V30 END CTAB
M  END
