
     RDKit          3D

  0  0  0  0  0  0  0  0  0  0999 V3000
M  V30 BEGIN CTAB
M  V30 COUNTS 41 43 0 0 0
M  V30 BEGIN ATOM
M  V30 1 N 3.99449 -2.22761 -1.04356 0
M  V30 2 C 3.69348 -0.906773 -0.588711 0
M  V30 3 N 2.43538 -0.453819 -0.643205 0
M  V30 4 C 2.13204 0.785431 -0.220263 0
M  V30 5 C 0.734138 1.28625 -0.281827 0
M  V30 6 N -0.10841 0.249874 -0.76341 0
M  V30 7 C -0.109445 -0.929891 0.0838227 0
M  V30 8 C -1.57476 -1.13633 0.518569 0
M  V30 9 C -2.0944 0.202702 0.323079 0
M  V30 10 C -1.43942 0.553817 -1.03309 0
M  V30 11 C -1.90013 1.93958 -1.14422 0
M  V30 12 C -3.38933 1.79613 -0.774921 0
M  V30 13 C -3.48234 0.476687 0.0124479 0
M  V30 14 C -2.13102 -2.22165 -0.319771 0
M  V30 15 C -1.61952 -1.57172 1.9759 0
M  V30 16 N 3.14463 1.53214 0.25243 0
M  V30 17 C 4.39709 1.10143 0.314475 0
M  V30 18 N 4.68866 -0.153578 -0.11669 0
M  V30 19 N 5.47375 1.87895 0.810681 0
M  V30 20 H 3.85878 -3.01915 -0.39269 0
M  V30 21 H 4.34083 -2.32172 -2.02514 0
M  V30 22 H 0.740154 2.19708 -0.870281 0
M  V30 23 H 0.444739 1.47469 0.794568 0
M  V30 24 H 0.45213 -0.682447 1.00292 0
M  V30 25 H 0.260749 -1.83609 -0.437678 0
M  V30 26 H -1.72624 0.884058 1.10863 0
M  V30 27 H -1.91655 -0.0730655 -1.79228 0
M  V30 28 H -1.47791 2.64442 -0.427989 0
M  V30 29 H -1.86376 2.30628 -2.20511 0
M  V30 30 H -3.70598 2.58405 -0.0896887 0
M  V30 31 H -4.02583 1.78809 -1.66155 0
M  V30 32 H -4.09973 0.61974 0.939992 0
M  V30 33 H -4.02491 -0.214871 -0.62022 0
M  V30 34 H -1.38149 -2.65786 -1.04477 0
M  V30 35 H -3.00328 -1.953 -0.930634 0
M  V30 36 H -2.44953 -3.10565 0.296521 0
M  V30 37 H -2.67783 -1.48147 2.29156 0
M  V30 38 H -0.94558 -0.992212 2.60893 0
M  V30 39 H -1.39103 -2.67398 2.00658 0
M  V30 40 H 5.89831 1.60758 1.71896 0
M  V30 41 H 5.84909 2.70392 0.300706 0
M  V30 END ATOM
M  V30 BEGIN BOND
M  V30 1 1 1 2
M  V30 2 2 2 3
M  V30 3 1 3 4
M  V30 4 1 4 5
M  V30 5 1 5 6
M  V30 6 1 6 7
M  V30 7 1 7 8
M  V30 8 1 8 9
M  V30 9 1 9 10
M  V30 10 1 10 11
M  V30 11 1 11 12
M  V30 12 1 12 13
M  V30 13 1 8 14
M  V30 14 1 8 15
M  V30 15 2 4 16
M  V30 16 1 16 17
M  V30 17 2 17 18
M  V30 18 1 17 19
M  V30 19 1 18 2
M  V30 20 1 10 6
M  V30 21 1 13 9
M  V30 22 1 1 20
M  V30 23 1 1 21
M  V30 24 1 5 22
M  V30 25 1 5 23
M  V30 26 1 7 24
M  V30 27 1 7 25
M  V30 28 1 9 26
M  V30 29 1 10 27
M  V30 30 1 11 28
M  V30 31 1 11 29
M  V30 32 1 12 30
M  V30 33 1 12 31
M  V30 34 1 13 32
M  V30 35 1 13 33
M  V30 36 1 14 34
M  V30 37 1 14 35
M  V30 38 1 14 36
M  V30 39 1 15 37
M  V30 40 1 15 38
M  V30 41 1 15 39
M  V30 42 1 19 40
M  V30 43 1 19 41
M  V30 END BOND
M  V30 END CTAB
M  END
