
     RDKit          3D

  0  0  0  0  0  0  0  0  0  0999 V3000
M  V30 BEGIN CTAB
M  V30 COUNTS 50 51 0 0 0
M  V30 BEGIN ATOM
M  V30 1 C -4.56958 0.67518 2.83226 0
M  V30 2 C -3.41572 -0.131951 2.34006 0
M  V30 3 C -3.69169 -1.6136 2.45389 0
M  V30 4 C -2.94602 0.269769 0.967453 0 CFG=2
M  V30 5 N -3.95434 0.138039 -0.0399701 0
M  V30 6 C -4.35982 1.19131 -0.873476 0
M  V30 7 O -3.83542 2.31563 -0.7584 0
M  V30 8 C -5.4036 0.984669 -1.88911 0
M  V30 9 N -5.65741 2.21029 -2.63013 0
M  V30 10 C -1.79925 -0.647185 0.619118 0
M  V30 11 O -1.8479 -1.3585 -0.416903 0
M  V30 12 O -0.678973 -0.732195 1.41445 0
M  V30 13 C 0.445348 -1.5459 1.18845 0
M  V30 14 C 1.17194 -1.24986 -0.101582 0
M  V30 15 O 1.6119 0.0675956 -0.0881798 0
M  V30 16 C 2.28639 0.438166 -1.22151 0
M  V30 17 N 3.47763 -0.33379 -1.49175 0
M  V30 18 C 3.63914 -1.45426 -2.19839 0
M  V30 19 N 4.92568 -1.81783 -2.1809 0
M  V30 20 C 5.62549 -0.938637 -1.46113 0
M  V30 21 C 4.71115 -0.00300157 -1.02693 0
M  V30 22 N 5.10826 1.04401 -0.257015 0
M  V30 23 C 6.39956 1.17954 0.0905876 0
M  V30 24 N 6.84937 2.2721 0.901105 0
M  V30 25 N 7.28603 0.250338 -0.344953 0
M  V30 26 C 6.96193 -0.802623 -1.10419 0
M  V30 27 O 7.77121 -1.66094 -1.50841 0
M  V30 28 H -5.45725 0.00658367 3.02219 0
M  V30 29 H -4.89158 1.4823 2.16572 0
M  V30 30 H -4.37023 1.15614 3.82756 0
M  V30 31 H -2.55291 0.0711451 3.03606 0
M  V30 32 H -4.50889 -1.73443 3.19873 0
M  V30 33 H -2.81702 -2.16734 2.89736 0
M  V30 34 H -3.90621 -2.09314 1.48475 0
M  V30 35 H -2.52197 1.27447 1.02347 0
M  V30 36 H -4.40843 -0.790734 -0.156951 0
M  V30 37 H -5.17875 0.176614 -2.60824 0
M  V30 38 H -6.34904 0.745302 -1.35727 0
M  V30 39 H -5.97854 2.95947 -2.00189 0
M  V30 40 H -6.4224 1.98608 -3.31702 0
M  V30 41 H 1.12354 -1.38765 2.07189 0
M  V30 42 H 0.180298 -2.62861 1.21624 0
M  V30 43 H 0.521494 -1.51703 -0.9347 0
M  V30 44 H 2.09393 -1.90719 -0.0618906 0
M  V30 45 H 1.59603 0.381082 -2.09997 0
M  V30 46 H 2.581 1.49912 -1.11267 0
M  V30 47 H 2.85351 -1.98253 -2.70389 0
M  V30 48 H 7.63064 2.89296 0.613023 0
M  V30 49 H 6.38769 2.4605 1.8089 0
M  V30 50 H 8.28382 0.37052 -0.066168 0
M  V30 END ATOM
M  V30 BEGIN BOND
M  V30 1 1 1 2
M  V30 2 1 2 3
M  V30 3 1 2 4
M  V30 4 1 4 5
M  V30 5 1 5 6
M  V30 6 2 6 7
M  V30 7 1 6 8
M  V30 8 1 8 9
M  V30 9 1 4 10
M  V30 10 2 10 11
M  V30 11 1 10 12
M  V30 12 1 12 13
M  V30 13 1 13 14
M  V30 14 1 14 15
M  V30 15 1 15 16
M  V30 16 1 16 17
M  V30 17 1 17 18
M  V30 18 2 18 19
M  V30 19 1 19 20
M  V30 20 2 20 21
M  V30 21 1 21 22
M  V30 22 2 22 23
M  V30 23 1 23 24
M  V30 24 1 23 25
M  V30 25 1 25 26
M  V30 26 2 26 27
M  V30 27 1 21 17
M  V30 28 1 26 20
M  V30 29 1 1 28
M  V30 30 1 1 29
M  V30 31 1 1 30
M  V30 32 1 2 31
M  V30 33 1 3 32
M  V30 34 1 3 33
M  V30 35 1 3 34
M  V30 36 1 4 35 CFG=1
M  V30 37 1 5 36
M  V30 38 1 8 37
M  V30 39 1 8 38
M  V30 40 1 9 39
M  V30 41 1 9 40
M  V30 42 1 13 41
M  V30 43 1 13 42
M  V30 44 1 14 43
M  V30 45 1 14 44
M  V30 46 1 16 45
M  V30 47 1 16 46
M  V30 48 1 18 47
M  V30 49 1 24 48
M  V30 50 1 24 49
M  V30 51 1 25 50
M  V30 END BOND
M  V30 END CTAB
M  END
