
     RDKit          3D

  0  0  0  0  0  0  0  0  0  0999 V3000
M  V30 BEGIN CTAB
M  V30 COUNTS 19 19 0 0 0
M  V30 BEGIN ATOM
M  V30 1 F 2.54579 -1.59712 0.0503225 0
M  V30 2 C 2.88653 -0.355123 -0.393832 0
M  V30 3 O 1.86858 0.354738 -1.04323 0
M  V30 4 C 0.70301 0.63658 -0.34422 0
M  V30 5 N 0.652655 1.78601 0.358916 0
M  V30 6 C -0.45118 2.07778 1.0353 0
M  V30 7 C -1.5178 1.21924 1.014 0
M  V30 8 C -1.48903 0.0406103 0.303365 0
M  V30 9 C -0.331107 -0.256625 -0.401018 0
M  V30 10 N -0.22335 -1.45128 -1.16193 0
M  V30 11 N -2.59603 -0.821155 0.298584 0
M  V30 12 F 3.30893 0.431855 0.680492 0
M  V30 13 F 3.99178 -0.409124 -1.25314 0
M  V30 14 H -0.507523 2.99116 1.60148 0
M  V30 15 H -2.39758 1.49425 1.57829 0
M  V30 16 H -0.334324 -2.4027 -0.737986 0
M  V30 17 H -0.0259216 -1.45066 -2.19507 0
M  V30 18 H -2.56387 -1.80086 -0.0454711 0
M  V30 19 H -3.51956 -0.487573 0.65515 0
M  V30 END ATOM
M  V30 BEGIN BOND
M  V30 1 1 1 2
M  V30 2 1 2 3
M  V30 3 1 3 4
M  V30 4 2 4 5
M  V30 5 1 5 6
M  V30 6 2 6 7
M  V30 7 1 7 8
M  V30 8 2 8 9
M  V30 9 1 9 10
M  V30 10 1 8 11
M  V30 11 1 2 12
M  V30 12 1 2 13
M  V30 13 1 9 4
M  V30 14 1 6 14
M  V30 15 1 7 15
M  V30 16 1 10 16
M  V30 17 1 10 17
M  V30 18 1 11 18
M  V30 19 1 11 19
M  V30 END BOND
M  V30 END CTAB
M  END
