
     RDKit          3D

  0  0  0  0  0  0  0  0  0  0999 V3000
M  V30 BEGIN CTAB
M  V30 COUNTS 100 101 0 0 0
M  V30 BEGIN ATOM
M  V30 1 C 7.24481 -2.88625 -0.322905 0 CFG=1
M  V30 2 N 6.58142 -4.12434 0.121026 0
M  V30 3 C 6.85451 -2.71434 -1.74929 0
M  V30 4 C 7.39287 -1.52958 -2.42645 0
M  V30 5 C 8.65771 -1.55157 -2.96823 0
M  V30 6 C 9.177 -0.483439 -3.64877 0
M  V30 7 C 8.39739 0.671267 -3.80016 0
M  V30 8 O 8.92623 1.73907 -4.48524 0
M  V30 9 C 7.12333 0.707821 -3.26046 0
M  V30 10 C 6.64852 -0.375949 -2.59294 0
M  V30 11 C 6.854 -1.77147 0.532402 0
M  V30 12 O 5.84974 -1.94893 1.30724 0
M  V30 13 N 7.48735 -0.498384 0.600014 0
M  V30 14 C 7.10815 0.5735 1.4594 0
M  V30 15 C 5.74559 1.10756 1.31199 0
M  V30 16 O 4.97971 0.607188 0.437976 0
M  V30 17 N 5.25847 2.16751 2.12356 0
M  V30 18 C 3.93507 2.668 1.98597 0
M  V30 19 C 2.93048 1.62862 2.30005 0
M  V30 20 O 3.33008 0.495929 2.6398 0
M  V30 21 N 1.54464 1.87594 2.23021 0
M  V30 22 C 0.51297 0.897927 2.52153 0 CFG=1
M  V30 23 C 0.0266424 0.954097 3.91788 0
M  V30 24 C -0.561787 2.17174 4.42395 0
M  V30 25 C -1.9187 2.37125 4.38469 0
M  V30 26 C -2.57856 3.49645 4.8295 0
M  V30 27 C -1.80428 4.51124 5.36216 0
M  V30 28 C -0.442486 4.36836 5.42741 0
M  V30 29 C 0.162125 3.22457 4.96818 0
M  V30 30 C -0.45939 0.757128 1.44422 0
M  V30 31 O -0.330257 1.42538 0.360097 0
M  V30 32 N -1.58716 -0.0869249 1.47493 0
M  V30 33 C -2.52431 -0.22177 0.391004 0 CFG=1
M  V30 34 C -2.64641 -1.58613 -0.152557 0
M  V30 35 C -3.06354 -2.68244 0.730396 0
M  V30 36 C -4.3701 -2.61641 1.40502 0
M  V30 37 C -3.01199 -4.00787 -0.0453455 0
M  V30 38 C -3.72656 0.602279 0.500799 0
M  V30 39 O -3.7898 1.45224 1.41029 0
M  V30 40 N -4.80507 0.46642 -0.383059 0
M  V30 41 C -6.00254 1.26588 -0.345436 0 CFG=1
M  V30 42 C -6.59595 1.53957 -1.68261 0
M  V30 43 C -7.00422 0.288092 -2.42103 0
M  V30 44 C -7.63048 0.623984 -3.76657 0
M  V30 45 N -8.03658 -0.597336 -4.45569 0
M  V30 46 C -7.14261 -1.55351 -4.974 0
M  V30 47 N -7.39412 -2.93731 -4.73394 0
M  V30 48 N -6.11 -1.14227 -5.66211 0
M  V30 49 C -7.00884 0.816245 0.647621 0
M  V30 50 O -8.21298 1.55622 0.68399 0
M  V30 51 O -6.93135 -0.119206 1.44219 0
M  V30 52 H 8.3417 -3.10075 -0.2136 0
M  V30 53 H 6.65786 -4.25844 1.14037 0
M  V30 54 H 6.88015 -4.92751 -0.453562 0
M  V30 55 H 5.722 -2.72086 -1.84141 0
M  V30 56 H 7.14353 -3.63957 -2.3376 0
M  V30 57 H 9.26149 -2.45725 -2.84675 0
M  V30 58 H 10.17 -0.526899 -4.06602 0
M  V30 59 H 9.44298 2.44253 -3.98524 0
M  V30 60 H 6.48986 1.57652 -3.35384 0
M  V30 61 H 5.64771 -0.365376 -2.17137 0
M  V30 62 H 8.33221 -0.335991 -0.0390271 0
M  V30 63 H 7.8806 1.38839 1.43958 0
M  V30 64 H 7.205 0.16951 2.51427 0
M  V30 65 H 5.9396 2.56278 2.83359 0
M  V30 66 H 3.78123 3.46064 2.78917 0
M  V30 67 H 3.74569 3.13202 0.986878 0
M  V30 68 H 1.22903 2.82678 1.95052 0
M  V30 69 H 1.11518 -0.0842324 2.5064 0
M  V30 70 H 0.830336 0.597748 4.60158 0
M  V30 71 H -0.756094 0.140752 4.01346 0
M  V30 72 H -2.59483 1.59314 3.98038 0
M  V30 73 H -3.66078 3.58639 4.7672 0
M  V30 74 H -2.30142 5.4161 5.72386 0
M  V30 75 H 0.106408 5.20604 5.86235 0
M  V30 76 H 1.22251 3.15105 5.03697 0
M  V30 77 H -1.75811 -0.64661 2.3247 0
M  V30 78 H -1.95199 0.34462 -0.469488 0
M  V30 79 H -3.27508 -1.56954 -1.0506 0
M  V30 80 H -1.61237 -1.84648 -0.564814 0
M  V30 81 H -2.26475 -2.8115 1.52477 0
M  V30 82 H -4.53265 -1.7067 2.02195 0
M  V30 83 H -5.2555 -2.77151 0.743179 0
M  V30 84 H -4.40315 -3.47832 2.14074 0
M  V30 85 H -2.02745 -4.14439 -0.525037 0
M  V30 86 H -3.79713 -3.98361 -0.839788 0
M  V30 87 H -3.26739 -4.8467 0.629561 0
M  V30 88 H -4.77002 -0.263949 -1.149 0
M  V30 89 H -5.65589 2.25653 0.090177 0
M  V30 90 H -7.46977 2.20322 -1.66121 0
M  V30 91 H -5.84339 2.06121 -2.32861 0
M  V30 92 H -6.09823 -0.337623 -2.67516 0
M  V30 93 H -7.69466 -0.360927 -1.88463 0
M  V30 94 H -8.52169 1.26485 -3.59486 0
M  V30 95 H -6.90201 1.13576 -4.43832 0
M  V30 96 H -9.08002 -0.775586 -4.56883 0
M  V30 97 H -7.5862 -3.51167 -5.58891 0
M  V30 98 H -7.37878 -3.30583 -3.76348 0
M  V30 99 H -5.47941 -1.89378 -6.02241 0
M  V30 100 H -8.24504 2.55896 0.817048 0
M  V30 END ATOM
M  V30 BEGIN BOND
M  V30 1 1 1 2
M  V30 2 1 1 3
M  V30 3 1 3 4
M  V30 4 2 4 5
M  V30 5 1 5 6
M  V30 6 2 6 7
M  V30 7 1 7 8
M  V30 8 1 7 9
M  V30 9 2 9 10
M  V30 10 1 1 11
M  V30 11 2 11 12
M  V30 12 1 11 13
M  V30 13 1 13 14
M  V30 14 1 14 15
M  V30 15 2 15 16
M  V30 16 1 15 17
M  V30 17 1 17 18
M  V30 18 1 18 19
M  V30 19 2 19 20
M  V30 20 1 19 21
M  V30 21 1 21 22
M  V30 22 1 22 23
M  V30 23 1 23 24
M  V30 24 2 24 25
M  V30 25 1 25 26
M  V30 26 2 26 27
M  V30 27 1 27 28
M  V30 28 2 28 29
M  V30 29 1 22 30
M  V30 30 2 30 31
M  V30 31 1 30 32
M  V30 32 1 32 33
M  V30 33 1 33 34
M  V30 34 1 34 35
M  V30 35 1 35 36
M  V30 36 1 35 37
M  V30 37 1 33 38
M  V30 38 2 38 39
M  V30 39 1 38 40
M  V30 40 1 40 41
M  V30 41 1 41 42
M  V30 42 1 42 43
M  V30 43 1 43 44
M  V30 44 1 44 45
M  V30 45 1 45 46
M  V30 46 1 46 47
M  V30 47 2 46 48 CFG=2
M  V30 48 1 41 49
M  V30 49 1 49 50
M  V30 50 2 49 51
M  V30 51 1 10 4
M  V30 52 1 29 24
M  V30 53 1 1 52 CFG=3
M  V30 54 1 2 53
M  V30 55 1 2 54
M  V30 56 1 3 55
M  V30 57 1 3 56
M  V30 58 1 5 57
M  V30 59 1 6 58
M  V30 60 1 8 59
M  V30 61 1 9 60
M  V30 62 1 10 61
M  V30 63 1 13 62
M  V30 64 1 14 63
M  V30 65 1 14 64
M  V30 66 1 17 65
M  V30 67 1 18 66
M  V30 68 1 18 67
M  V30 69 1 21 68
M  V30 70 1 22 69 CFG=1
M  V30 71 1 23 70
M  V30 72 1 23 71
M  V30 73 1 25 72
M  V30 74 1 26 73
M  V30 75 1 27 74
M  V30 76 1 28 75
M  V30 77 1 29 76
M  V30 78 1 32 77
M  V30 79 1 33 78 CFG=3
M  V30 80 1 34 79
M  V30 81 1 34 80
M  V30 82 1 35 81
M  V30 83 1 36 82
M  V30 84 1 36 83
M  V30 85 1 36 84
M  V30 86 1 37 85
M  V30 87 1 37 86
M  V30 88 1 37 87
M  V30 89 1 40 88
M  V30 90 1 41 89 CFG=1
M  V30 91 1 42 90
M  V30 92 1 42 91
M  V30 93 1 43 92
M  V30 94 1 43 93
M  V30 95 1 44 94
M  V30 96 1 44 95
M  V30 97 1 45 96
M  V30 98 1 47 97
M  V30 99 1 47 98
M  V30 100 1 48 99
M  V30 101 1 50 100
M  V30 END BOND
M  V30 END CTAB
M  END
