
     RDKit          3D

  0  0  0  0  0  0  0  0  0  0999 V3000
M  V30 BEGIN CTAB
M  V30 COUNTS 23 23 0 0 0
M  V30 BEGIN ATOM
M  V30 1 N -1.0581 -2.90624 2.16485 0
M  V30 2 C -0.528913 -2.05282 1.60449 0
M  V30 3 C 0.154202 -0.994339 0.878606 0
M  V30 4 C 1.55803 -1.10591 0.793672 0
M  V30 5 C 2.26758 -0.127846 0.150605 0
M  V30 6 N 3.69099 -0.194093 0.0222589 0
M  V30 7 C 1.60398 0.942554 -0.395945 0
M  V30 8 C 0.222843 1.05477 -0.314697 0
M  V30 9 C -0.506038 0.0484972 0.343017 0
M  V30 10 C -1.94471 0.204511 0.342261 0
M  V30 11 C -2.68244 -0.530787 -0.696297 0
M  V30 12 O -2.94584 -1.76076 -0.519766 0
M  V30 13 O -3.10596 0.05788 -1.87119 0
M  V30 14 N -0.433274 2.16454 -0.889971 0
M  V30 15 H 2.07126 -1.93624 1.22476 0
M  V30 16 H 4.27965 -0.528069 0.80304 0
M  V30 17 H 4.12156 0.11938 -0.878261 0
M  V30 18 H 2.16949 1.68801 -0.898045 0
M  V30 19 H -2.33753 -0.137754 1.35754 0
M  V30 20 H -2.27272 1.2582 0.300281 0
M  V30 21 H -2.94912 -0.474957 -2.74216 0
M  V30 22 H -1.07376 2.77924 -0.316507 0
M  V30 23 H -0.30117 2.43222 -1.88576 0
M  V30 END ATOM
M  V30 BEGIN BOND
M  V30 1 3 1 2
M  V30 2 1 2 3
M  V30 3 2 3 4
M  V30 4 1 4 5
M  V30 5 1 5 6
M  V30 6 2 5 7
M  V30 7 1 7 8
M  V30 8 2 8 9
M  V30 9 1 9 10
M  V30 10 1 10 11
M  V30 11 2 11 12
M  V30 12 1 11 13
M  V30 13 1 8 14
M  V30 14 1 9 3
M  V30 15 1 4 15
M  V30 16 1 6 16
M  V30 17 1 6 17
M  V30 18 1 7 18
M  V30 19 1 10 19
M  V30 20 1 10 20
M  V30 21 1 13 21
M  V30 22 1 14 22
M  V30 23 1 14 23
M  V30 END BOND
M  V30 END CTAB
M  END
