
     RDKit          3D

  0  0  0  0  0  0  0  0  0  0999 V3000
M  V30 BEGIN CTAB
M  V30 COUNTS 23 23 0 0 0
M  V30 BEGIN ATOM
M  V30 1 N -2.1672 1.63938 0.298691 0
M  V30 2 C -0.912331 0.98184 0.414676 0
M  V30 3 C 0.0978461 1.46525 1.23007 0
M  V30 4 C 1.29108 0.7777 1.29594 0
M  V30 5 C 1.53668 -0.38152 0.583936 0
M  V30 6 C 0.517465 -0.846961 -0.222855 0
M  V30 7 C -0.683661 -0.172572 -0.30179 0
M  V30 8 S -1.97615 -0.772981 -1.33212 0
M  V30 9 O -2.36974 0.227821 -2.36084 0
M  V30 10 O -1.50074 -2.00038 -2.03635 0
M  V30 11 N -3.33054 -1.09046 -0.328779 0
M  V30 12 O 2.73979 -1.04461 0.671844 0
M  V30 13 C 3.82468 -0.757803 -0.192261 0
M  V30 14 F 4.89166 -1.5741 0.12907 0
M  V30 15 F 3.49465 -1.02748 -1.50459 0
M  V30 16 F 4.26155 0.548952 -0.0320783 0
M  V30 17 H -2.25216 2.35408 -0.474679 0
M  V30 18 H -2.97873 1.46083 0.913336 0
M  V30 19 H -0.0813203 2.37686 1.79651 0
M  V30 20 H 2.06006 1.18308 1.94331 0
M  V30 21 H 0.633285 -1.75369 -0.815326 0
M  V30 22 H -3.07831 -1.28917 0.66255 0
M  V30 23 H -4.01785 -0.304072 -0.338259 0
M  V30 END ATOM
M  V30 BEGIN BOND
M  V30 1 1 1 2
M  V30 2 2 2 3
M  V30 3 1 3 4
M  V30 4 2 4 5
M  V30 5 1 5 6
M  V30 6 2 6 7
M  V30 7 1 7 8
M  V30 8 2 8 9
M  V30 9 2 8 10
M  V30 10 1 8 11
M  V30 11 1 5 12
M  V30 12 1 12 13
M  V30 13 1 13 14
M  V30 14 1 13 15
M  V30 15 1 13 16
M  V30 16 1 7 2
M  V30 17 1 1 17
M  V30 18 1 1 18
M  V30 19 1 3 19
M  V30 20 1 4 20
M  V30 21 1 6 21
M  V30 22 1 11 22
M  V30 23 1 11 23
M  V30 END BOND
M  V30 END CTAB
M  END
