
     RDKit          3D

  0  0  0  0  0  0  0  0  0  0999 V3000
M  V30 BEGIN CTAB
M  V30 COUNTS 37 38 0 0 0
M  V30 BEGIN ATOM
M  V30 1 N -2.81045 1.7832 -0.59477 0
M  V30 2 C -2.49982 1.524 0.747434 0
M  V30 3 C -1.02499 1.09913 0.917907 0
M  V30 4 N -0.797042 -0.0940247 0.195611 0
M  V30 5 C -1.48311 -1.2142 0.819655 0
M  V30 6 C -2.20113 -1.97513 -0.266042 0
M  V30 7 C -1.1965 -2.27446 -1.40571 0
M  V30 8 O -0.021684 -2.74321 -0.859727 0
M  V30 9 C 0.716002 -1.87556 -0.123861 0
M  V30 10 C 0.442992 -0.389403 -0.420405 0 CFG=2
M  V30 11 C 1.65492 0.288462 0.0562525 0
M  V30 12 C 2.0425 0.334371 1.36622 0
M  V30 13 C 3.14681 1.09933 1.73349 0
M  V30 14 C 3.87059 1.82129 0.783232 0
M  V30 15 N 3.47885 1.76784 -0.492425 0
M  V30 16 C 2.40842 1.03243 -0.869673 0
M  V30 17 N 2.15895 0.996161 -2.27832 0
M  V30 18 H -2.99358 2.70125 -0.795283 0
M  V30 19 H -3.31217 1.11236 -1.12594 0
M  V30 20 H -2.68225 2.41494 1.40241 0
M  V30 21 H -3.20448 0.750668 1.08316 0
M  V30 22 H -0.384706 1.90041 0.596448 0
M  V30 23 H -0.823973 0.888243 2.00615 0
M  V30 24 H -0.884156 -1.9184 1.37084 0
M  V30 25 H -2.22676 -0.80919 1.54006 0
M  V30 26 H -2.45288 -2.99363 0.147272 0
M  V30 27 H -3.09753 -1.51216 -0.676721 0
M  V30 28 H -1.12349 -1.44945 -2.11039 0
M  V30 29 H -1.67128 -3.10455 -1.95643 0
M  V30 30 H 0.888886 -2.08467 0.906773 0
M  V30 31 H 1.7867 -2.00392 -0.577928 0
M  V30 32 H 0.371275 -0.253511 -1.50669 0
M  V30 33 H 1.51694 -0.161585 2.18972 0
M  V30 34 H 3.43591 1.1142 2.79745 0
M  V30 35 H 4.74001 2.38666 1.04535 0
M  V30 36 H 1.50351 1.55407 -2.80909 0
M  V30 37 H 2.72873 0.288044 -2.83601 0
M  V30 END ATOM
M  V30 BEGIN BOND
M  V30 1 1 1 2
M  V30 2 1 2 3
M  V30 3 1 3 4
M  V30 4 1 4 5
M  V30 5 1 5 6
M  V30 6 1 6 7
M  V30 7 1 7 8
M  V30 8 1 8 9
M  V30 9 1 9 10
M  V30 10 1 10 11
M  V30 11 2 11 12
M  V30 12 1 12 13
M  V30 13 2 13 14
M  V30 14 1 14 15
M  V30 15 2 15 16
M  V30 16 1 16 17
M  V30 17 1 10 4
M  V30 18 1 16 11
M  V30 19 1 1 18
M  V30 20 1 1 19
M  V30 21 1 2 20
M  V30 22 1 2 21
M  V30 23 1 3 22
M  V30 24 1 3 23
M  V30 25 1 5 24
M  V30 26 1 5 25
M  V30 27 1 6 26
M  V30 28 1 6 27
M  V30 29 1 7 28
M  V30 30 1 7 29
M  V30 31 1 9 30
M  V30 32 1 9 31
M  V30 33 1 10 32 CFG=3
M  V30 34 1 12 33
M  V30 35 1 13 34
M  V30 36 1 14 35
M  V30 37 1 17 36
M  V30 38 1 17 37
M  V30 END BOND
M  V30 END CTAB
M  END
