
     RDKit          3D

  0  0  0  0  0  0  0  0  0  0999 V3000
M  V30 BEGIN CTAB
M  V30 COUNTS 29 30 0 0 0
M  V30 BEGIN ATOM
M  V30 1 N -0.439618 2.93202 -1.42715 0
M  V30 2 N 0.273464 1.89081 -1.0346 0
M  V30 3 C 0.0693702 0.756629 -0.484075 0
M  V30 4 C 1.35528 0.0231997 -0.310855 0
M  V30 5 C 2.42243 0.246161 -1.1821 0
M  V30 6 C 3.67515 -0.277073 -1.0227 0
M  V30 7 C 3.8961 -1.07761 0.0723411 0
M  V30 8 C 2.89753 -1.34506 0.978619 0
M  V30 9 C 1.6369 -0.778118 0.759369 0
M  V30 10 C -1.2144 0.312809 -0.0101862 0
M  V30 11 C -1.57855 -0.990018 0.226339 0
M  V30 12 N -0.814193 -2.07263 -0.318473 0
M  V30 13 C -2.76991 -1.26729 0.873532 0
M  V30 14 C -3.61306 -0.26087 1.28712 0
M  V30 15 C -3.28922 1.05594 1.06582 0
M  V30 16 C -2.09377 1.32693 0.420428 0
M  V30 17 H -0.493158 3.89455 -0.962667 0
M  V30 18 H -1.049 2.85415 -2.30309 0
M  V30 19 H 2.22352 0.883739 -2.04247 0
M  V30 20 H 4.47945 -0.0880649 -1.71115 0
M  V30 21 H 4.88745 -1.52003 0.239451 0
M  V30 22 H 3.078 -1.97549 1.83797 0
M  V30 23 H 0.899906 -0.986829 1.54957 0
M  V30 24 H -0.639488 -2.92536 0.269503 0
M  V30 25 H -0.416726 -2.05653 -1.28339 0
M  V30 26 H -3.02255 -2.30078 1.0468 0
M  V30 27 H -4.55465 -0.454659 1.7973 0
M  V30 28 H -3.95301 1.85331 1.38877 0
M  V30 29 H -1.85326 2.34616 0.279963 0
M  V30 END ATOM
M  V30 BEGIN BOND
M  V30 1 1 1 2
M  V30 2 2 2 3 CFG=2
M  V30 3 1 3 4
M  V30 4 2 4 5
M  V30 5 1 5 6
M  V30 6 2 6 7
M  V30 7 1 7 8
M  V30 8 2 8 9
M  V30 9 1 3 10
M  V30 10 2 10 11
M  V30 11 1 11 12
M  V30 12 1 11 13
M  V30 13 2 13 14
M  V30 14 1 14 15
M  V30 15 2 15 16
M  V30 16 1 9 4
M  V30 17 1 16 10
M  V30 18 1 1 17
M  V30 19 1 1 18
M  V30 20 1 5 19
M  V30 21 1 6 20
M  V30 22 1 7 21
M  V30 23 1 8 22
M  V30 24 1 9 23
M  V30 25 1 12 24
M  V30 26 1 12 25
M  V30 27 1 13 26
M  V30 28 1 14 27
M  V30 29 1 15 28
M  V30 30 1 16 29
M  V30 END BOND
M  V30 END CTAB
M  END
