
     RDKit          3D

  0  0  0  0  0  0  0  0  0  0999 V3000
M  V30 BEGIN CTAB
M  V30 COUNTS 24 24 0 0 0
M  V30 BEGIN ATOM
M  V30 1 C -3.15255 -0.823848 0.0746437 0
M  V30 2 C -2.3212 -0.312927 -1.05148 0
M  V30 3 C -0.967876 0.190276 -0.610604 0 CFG=2
M  V30 4 C -0.146694 -0.866571 0.0528899 0
M  V30 5 C 1.16953 -0.318121 0.464407 0
M  V30 6 N 2.31194 -0.295549 -0.270428 0
M  V30 7 C 3.30131 0.274018 0.41764 0
M  V30 8 N 2.78321 0.619931 1.6085 0
M  V30 9 N 1.49753 0.264767 1.64141 0
M  V30 10 N 4.65456 0.512822 0.0577659 0
M  V30 11 N -1.18403 1.34749 0.230367 0
M  V30 12 H -4.23033 -0.706747 -0.187795 0
M  V30 13 H -3.00648 -1.90371 0.284053 0
M  V30 14 H -2.99637 -0.196374 0.97767 0
M  V30 15 H -2.891 0.462396 -1.6007 0
M  V30 16 H -2.17987 -1.14841 -1.79595 0
M  V30 17 H -0.410055 0.541883 -1.50245 0
M  V30 18 H 0.0530587 -1.66848 -0.68226 0
M  V30 19 H -0.612142 -1.2981 0.951867 0
M  V30 20 H 0.811024 0.393332 2.4252 0
M  V30 21 H 5.38915 0.239939 0.744287 0
M  V30 22 H 4.97482 0.938782 -0.836727 0
M  V30 23 H -2.20797 1.57432 0.342132 0
M  V30 24 H -0.639558 2.17889 -0.0887322 0
M  V30 END ATOM
M  V30 BEGIN BOND
M  V30 1 1 1 2
M  V30 2 1 2 3
M  V30 3 1 3 4
M  V30 4 1 4 5
M  V30 5 2 5 6
M  V30 6 1 6 7
M  V30 7 2 7 8
M  V30 8 1 8 9
M  V30 9 1 7 10
M  V30 10 1 3 11
M  V30 11 1 9 5
M  V30 12 1 1 12
M  V30 13 1 1 13
M  V30 14 1 1 14
M  V30 15 1 2 15
M  V30 16 1 2 16
M  V30 17 1 3 17 CFG=3
M  V30 18 1 4 18
M  V30 19 1 4 19
M  V30 20 1 9 20
M  V30 21 1 10 21
M  V30 22 1 10 22
M  V30 23 1 11 23
M  V30 24 1 11 24
M  V30 END BOND
M  V30 END CTAB
M  END
