
     RDKit          3D

  0  0  0  0  0  0  0  0  0  0999 V3000
M  V30 BEGIN CTAB
M  V30 COUNTS 39 41 0 0 0
M  V30 BEGIN ATOM
M  V30 1 C 5.80618 0.0820849 1.55962 0
M  V30 2 N 5.13596 0.513729 0.350293 0
M  V30 3 C 5.75581 1.54704 -0.450401 0
M  V30 4 C 3.8912 -0.0579182 -0.0583378 0
M  V30 5 C 3.26649 0.357808 -1.20553 0
M  V30 6 C 2.06162 -0.183462 -1.61728 0
M  V30 7 C 1.46266 -1.16621 -0.865102 0
M  V30 8 S -0.102965 -1.85289 -1.42255 0
M  V30 9 C -1.43951 -0.888497 -0.717842 0
M  V30 10 C -1.15976 0.185442 0.105963 0
M  V30 11 C -2.17738 0.935538 0.65458 0
M  V30 12 C -3.48031 0.600002 0.370365 0
M  V30 13 N -4.51314 1.32348 0.898388 0
M  V30 14 C -5.80097 1.03288 0.64872 0
M  V30 15 N -6.8559 1.809 1.21633 0
M  V30 16 N -6.03476 -0.0180985 -0.156591 0
M  V30 17 C -5.09323 -0.77618 -0.712971 0
M  V30 18 N -5.37471 -1.87684 -1.55715 0
M  V30 19 C -3.74884 -0.469016 -0.449447 0
M  V30 20 C -2.744 -1.22126 -0.99998 0
M  V30 21 C 2.06868 -1.60204 0.29135 0
M  V30 22 C 3.26857 -1.04216 0.673458 0
M  V30 23 H 5.10164 -0.127971 2.39283 0
M  V30 24 H 6.43419 0.924838 1.91335 0
M  V30 25 H 6.4545 -0.79567 1.36635 0
M  V30 26 H 6.34797 1.08194 -1.27059 0
M  V30 27 H 5.02697 2.2876 -0.842523 0
M  V30 28 H 6.46098 2.09896 0.18625 0
M  V30 29 H 3.68835 1.13641 -1.85203 0
M  V30 30 H 1.60248 0.187033 -2.54748 0
M  V30 31 H -0.133244 0.433176 0.317231 0
M  V30 32 H -1.98247 1.78701 1.30714 0
M  V30 33 H -7.65977 1.33307 1.67211 0
M  V30 34 H -6.86436 2.85207 1.19828 0
M  V30 35 H -4.88037 -2.03391 -2.44659 0
M  V30 36 H -6.10691 -2.54543 -1.26252 0
M  V30 37 H -2.99678 -2.06534 -1.64819 0
M  V30 38 H 1.58372 -2.38792 0.887185 0
M  V30 39 H 3.7314 -1.39832 1.58725 0
M  V30 END ATOM
M  V30 BEGIN BOND
M  V30 1 1 1 2
M  V30 2 1 2 3
M  V30 3 1 2 4
M  V30 4 2 4 5
M  V30 5 1 5 6
M  V30 6 2 6 7
M  V30 7 1 7 8
M  V30 8 1 8 9
M  V30 9 2 9 10
M  V30 10 1 10 11
M  V30 11 2 11 12
M  V30 12 1 12 13
M  V30 13 2 13 14
M  V30 14 1 14 15
M  V30 15 1 14 16
M  V30 16 2 16 17
M  V30 17 1 17 18
M  V30 18 1 17 19
M  V30 19 2 19 20
M  V30 20 1 7 21
M  V30 21 2 21 22
M  V30 22 1 22 4
M  V30 23 1 20 9
M  V30 24 1 19 12
M  V30 25 1 1 23
M  V30 26 1 1 24
M  V30 27 1 1 25
M  V30 28 1 3 26
M  V30 29 1 3 27
M  V30 30 1 3 28
M  V30 31 1 5 29
M  V30 32 1 6 30
M  V30 33 1 10 31
M  V30 34 1 11 32
M  V30 35 1 15 33
M  V30 36 1 15 34
M  V30 37 1 18 35
M  V30 38 1 18 36
M  V30 39 1 20 37
M  V30 40 1 21 38
M  V30 41 1 22 39
M  V30 END BOND
M  V30 END CTAB
M  END
