
     RDKit          3D

  0  0  0  0  0  0  0  0  0  0999 V3000
M  V30 BEGIN CTAB
M  V30 COUNTS 31 32 0 0 0
M  V30 BEGIN ATOM
M  V30 1 C -2.14205 -1.51059 0.388738 0
M  V30 2 C -1.15153 -0.339385 0.446749 0
M  V30 3 C -1.60867 0.628908 -0.615091 0
M  V30 4 C -3.0053 1.19881 -0.480992 0
M  V30 5 C -2.65729 0.19421 -1.56321 0
M  V30 6 C 0.17962 -0.899286 0.0976946 0
M  V30 7 C 1.27981 0.120031 0.123186 0
M  V30 8 N 1.18428 1.42337 0.442769 0
M  V30 9 N 2.36843 2.00004 0.349632 0
M  V30 10 C 3.27651 1.05787 -0.0418456 0
M  V30 11 N 2.57726 -0.0754899 -0.170137 0
M  V30 12 N 3.10239 -1.30524 -0.554868 0
M  V30 13 N 4.66046 1.29614 -0.25142 0
M  V30 14 C -1.23974 0.229843 1.82763 0
M  V30 15 H -3.17854 -1.18038 0.468755 0
M  V30 16 H -1.9245 -2.13788 1.30248 0
M  V30 17 H -1.89173 -2.13343 -0.467471 0
M  V30 18 H -0.851937 1.30971 -1.08715 0
M  V30 19 H -3.65613 0.800235 0.318074 0
M  V30 20 H -3.14449 2.25843 -0.739671 0
M  V30 21 H -2.72402 0.649933 -2.58869 0
M  V30 22 H -3.03208 -0.823573 -1.52964 0
M  V30 23 H 0.5128 -1.73095 0.72944 0
M  V30 24 H 0.087519 -1.33177 -0.941628 0
M  V30 25 H 3.11867 -1.52907 -1.57282 0
M  V30 26 H 3.44862 -1.93178 0.189708 0
M  V30 27 H 5.35258 0.948799 0.432859 0
M  V30 28 H 4.9911 1.81461 -1.08219 0
M  V30 29 H -0.661877 -0.425849 2.51012 0
M  V30 30 H -0.957445 1.29618 1.89773 0
M  V30 31 H -2.31269 0.127553 2.16126 0
M  V30 END ATOM
M  V30 BEGIN BOND
M  V30 1 1 1 2
M  V30 2 1 2 3
M  V30 3 1 3 4
M  V30 4 1 4 5
M  V30 5 1 2 6
M  V30 6 1 6 7
M  V30 7 2 7 8
M  V30 8 1 8 9
M  V30 9 2 9 10
M  V30 10 1 10 11
M  V30 11 1 11 12
M  V30 12 1 10 13
M  V30 13 1 2 14
M  V30 14 1 5 3
M  V30 15 1 11 7
M  V30 16 1 1 15
M  V30 17 1 1 16
M  V30 18 1 1 17
M  V30 19 1 3 18
M  V30 20 1 4 19
M  V30 21 1 4 20
M  V30 22 1 5 21
M  V30 23 1 5 22
M  V30 24 1 6 23
M  V30 25 1 6 24
M  V30 26 1 12 25
M  V30 27 1 12 26
M  V30 28 1 13 27
M  V30 29 1 13 28
M  V30 30 1 14 29
M  V30 31 1 14 30
M  V30 32 1 14 31
M  V30 END BOND
M  V30 END CTAB
M  END
