
     RDKit          3D

  0  0  0  0  0  0  0  0  0  0999 V3000
M  V30 BEGIN CTAB
M  V30 COUNTS 25 25 0 0 0
M  V30 BEGIN ATOM
M  V30 1 C 4.119 -0.935832 1.12188 0
M  V30 2 S 4.22151 0.0877361 -0.281273 0
M  V30 3 C 2.83579 0.719075 -1.09568 0
M  V30 4 N 3.20175 1.49861 -2.17892 0
M  V30 5 N 1.46576 0.640977 -0.937923 0
M  V30 6 C 0.667757 -0.00675117 -0.0191846 0
M  V30 7 O 1.13328 -0.697075 0.911552 0
M  V30 8 C -0.831623 0.0995709 -0.110001 0
M  V30 9 N -1.42112 0.818117 -1.07485 0
M  V30 10 C -2.78525 0.882126 -1.11248 0
M  V30 11 Cl -3.56755 1.81438 -2.3637 0
M  V30 12 C -3.58633 0.232591 -0.191146 0
M  V30 13 N -5.00181 0.32711 -0.268721 0
M  V30 14 N -2.96682 -0.481417 0.766371 0
M  V30 15 C -1.60204 -0.552006 0.813005 0
M  V30 16 N -0.950576 -1.30947 1.82897 0
M  V30 17 H 3.65393 -0.404921 2.00481 0
M  V30 18 H 5.16879 -1.2437 1.49424 0
M  V30 19 H 3.61294 -1.90622 0.925421 0
M  V30 20 H 4.19811 1.61393 -2.37439 0
M  V30 21 H 0.897733 1.20226 -1.68761 0
M  V30 22 H -5.64983 -0.374866 0.132538 0
M  V30 23 H -5.40912 1.14698 -0.755573 0
M  V30 24 H -0.721927 -0.860928 2.73945 0
M  V30 25 H -0.682336 -2.31028 1.71321 0
M  V30 END ATOM
M  V30 BEGIN BOND
M  V30 1 1 1 2
M  V30 2 1 2 3
M  V30 3 2 3 4 CFG=2
M  V30 4 1 3 5
M  V30 5 1 5 6
M  V30 6 2 6 7
M  V30 7 1 6 8
M  V30 8 2 8 9
M  V30 9 1 9 10
M  V30 10 1 10 11
M  V30 11 2 10 12
M  V30 12 1 12 13
M  V30 13 1 12 14
M  V30 14 2 14 15
M  V30 15 1 15 16
M  V30 16 1 15 8
M  V30 17 1 1 17
M  V30 18 1 1 18
M  V30 19 1 1 19
M  V30 20 1 4 20
M  V30 21 1 5 21
M  V30 22 1 13 22
M  V30 23 1 13 23
M  V30 24 1 16 24
M  V30 25 1 16 25
M  V30 END BOND
M  V30 END CTAB
M  END
