
     RDKit          3D

  0  0  0  0  0  0  0  0  0  0999 V3000
M  V30 BEGIN CTAB
M  V30 COUNTS 28 28 0 0 0
M  V30 BEGIN ATOM
M  V30 1 C -2.19956 2.15478 -0.669388 0
M  V30 2 C -2.05069 1.256 0.53668 0
M  V30 3 C -0.71193 0.657572 0.54255 0
M  V30 4 C 0.300445 1.27459 1.29122 0
M  V30 5 C 1.58167 0.774823 1.29593 0
M  V30 6 C 1.91306 -0.347813 0.565879 0
M  V30 7 C 0.91278 -0.943079 -0.162423 0
M  V30 8 C -0.40187 -0.451756 -0.18226 0
M  V30 9 S -1.54935 -1.3319 -1.10417 0
M  V30 10 O -2.05488 -0.534738 -2.23366 0
M  V30 11 O -0.865873 -2.57218 -1.68038 0
M  V30 12 N -2.85603 -1.95928 -0.168019 0
M  V30 13 C 3.28241 -0.910533 0.54964 0
M  V30 14 N 4.03801 -0.326117 -0.530685 0
M  V30 15 H -3.10494 1.89541 -1.2342 0
M  V30 16 H -1.28905 2.03412 -1.28913 0
M  V30 17 H -2.21303 3.23676 -0.361526 0
M  V30 18 H -2.87794 0.501377 0.448848 0
M  V30 19 H -2.2199 1.89715 1.44466 0
M  V30 20 H 0.024545 2.15193 1.85614 0
M  V30 21 H 2.37331 1.25758 1.88216 0
M  V30 22 H 1.20131 -1.82642 -0.726817 0
M  V30 23 H -2.54334 -2.26899 0.776304 0
M  V30 24 H -3.29833 -2.72793 -0.713816 0
M  V30 25 H 3.80387 -0.811489 1.5297 0
M  V30 26 H 3.2622 -2.01061 0.351291 0
M  V30 27 H 3.87384 0.688568 -0.596579 0
M  V30 28 H 3.66928 -0.757846 -1.41794 0
M  V30 END ATOM
M  V30 BEGIN BOND
M  V30 1 1 1 2
M  V30 2 1 2 3
M  V30 3 2 3 4
M  V30 4 1 4 5
M  V30 5 2 5 6
M  V30 6 1 6 7
M  V30 7 2 7 8
M  V30 8 1 8 9
M  V30 9 2 9 10
M  V30 10 2 9 11
M  V30 11 1 9 12
M  V30 12 1 6 13
M  V30 13 1 13 14
M  V30 14 1 8 3
M  V30 15 1 1 15
M  V30 16 1 1 16
M  V30 17 1 1 17
M  V30 18 1 2 18
M  V30 19 1 2 19
M  V30 20 1 4 20
M  V30 21 1 5 21
M  V30 22 1 7 22
M  V30 23 1 12 23
M  V30 24 1 12 24
M  V30 25 1 13 25
M  V30 26 1 13 26
M  V30 27 1 14 27
M  V30 28 1 14 28
M  V30 END BOND
M  V30 END CTAB
M  END
