
     RDKit          3D

  0  0  0  0  0  0  0  0  0  0999 V3000
M  V30 BEGIN CTAB
M  V30 COUNTS 45 48 0 0 0
M  V30 BEGIN ATOM
M  V30 1 N -4.38839 2.99668 -0.474061 0
M  V30 2 C -3.4166 2.39441 -0.296707 0
M  V30 3 C -2.19211 1.61423 -0.0905066 0
M  V30 4 C -1.41372 1.90053 0.932225 0
M  V30 5 N -1.84533 2.97304 1.77266 0
M  V30 6 O -0.244117 1.20802 1.18148 0
M  V30 7 C 0.0763194 0.183774 0.289372 0
M  V30 8 C -0.686416 -0.169788 -0.797326 0
M  V30 9 C -1.95198 0.5397 -1.06124 0
M  V30 10 C -3.11878 -0.420396 -0.912155 0
M  V30 11 C -3.38069 -1.04537 0.279697 0
M  V30 12 C -4.46917 -1.90827 0.429686 0
M  V30 13 C -5.27944 -2.11604 -0.662086 0
M  V30 14 C -5.04769 -1.50788 -1.86937 0
M  V30 15 C -3.94948 -0.654457 -1.97328 0
M  V30 16 F -5.87731 -1.75033 -2.90568 0
M  V30 17 C -0.282426 -1.21406 -1.64917 0
M  V30 18 N -1.06504 -1.56224 -2.77425 0
M  V30 19 N 0.861202 -1.84271 -1.35931 0
M  V30 20 C 1.62608 -1.52017 -0.304095 0
M  V30 21 N 1.23074 -0.526915 0.494364 0
M  V30 22 S 3.12519 -2.40356 0.0329351 0
M  V30 23 C 3.91248 -1.71447 1.48868 0
M  V30 24 C 4.44994 -0.343459 1.28355 0
M  V30 25 C 4.38654 0.321949 0.0783393 0
M  V30 26 C 4.92213 1.60848 -0.0605849 0
M  V30 27 C 5.52895 2.25456 0.993065 0
M  V30 28 C 5.58994 1.58521 2.19492 0
M  V30 29 C 5.06205 0.314197 2.33691 0
M  V30 30 Cl 5.14497 -0.53432 3.87872 0
M  V30 31 H -1.59965 2.95599 2.7741 0
M  V30 32 H -2.39509 3.75583 1.38788 0
M  V30 33 H -1.97672 0.958789 -2.10027 0
M  V30 34 H -2.71875 -0.851124 1.10516 0
M  V30 35 H -4.6217 -2.36759 1.38757 0
M  V30 36 H -6.13222 -2.79267 -0.543016 0
M  V30 37 H -3.78866 -0.183139 -2.94819 0
M  V30 38 H -1.16578 -0.854814 -3.53414 0
M  V30 39 H -1.55021 -2.46468 -2.91107 0
M  V30 40 H 4.70173 -2.4177 1.84693 0
M  V30 41 H 3.14151 -1.69239 2.30768 0
M  V30 42 H 3.92519 -0.156423 -0.77489 0
M  V30 43 H 4.87563 2.13622 -1.00279 0
M  V30 44 H 5.93922 3.25486 0.863842 0
M  V30 45 H 6.05767 2.05848 3.04245 0
M  V30 END ATOM
M  V30 BEGIN BOND
M  V30 1 3 1 2
M  V30 2 1 2 3
M  V30 3 2 3 4
M  V30 4 1 4 5
M  V30 5 1 4 6
M  V30 6 1 6 7
M  V30 7 2 7 8
M  V30 8 1 8 9
M  V30 9 1 9 10
M  V30 10 2 10 11
M  V30 11 1 11 12
M  V30 12 2 12 13
M  V30 13 1 13 14
M  V30 14 2 14 15
M  V30 15 1 14 16
M  V30 16 1 8 17
M  V30 17 1 17 18
M  V30 18 2 17 19
M  V30 19 1 19 20
M  V30 20 2 20 21
M  V30 21 1 20 22
M  V30 22 1 22 23
M  V30 23 1 23 24
M  V30 24 2 24 25
M  V30 25 1 25 26
M  V30 26 2 26 27
M  V30 27 1 27 28
M  V30 28 2 28 29
M  V30 29 1 29 30
M  V30 30 1 9 3
M  V30 31 1 15 10
M  V30 32 1 29 24
M  V30 33 1 21 7
M  V30 34 1 5 31
M  V30 35 1 5 32
M  V30 36 1 9 33
M  V30 37 1 11 34
M  V30 38 1 12 35
M  V30 39 1 13 36
M  V30 40 1 15 37
M  V30 41 1 18 38
M  V30 42 1 18 39
M  V30 43 1 23 40
M  V30 44 1 23 41
M  V30 45 1 25 42
M  V30 46 1 26 43
M  V30 47 1 27 44
M  V30 48 1 28 45
M  V30 END BOND
M  V30 END CTAB
M  END
