
     RDKit          3D

  0  0  0  0  0  0  0  0  0  0999 V3000
M  V30 BEGIN CTAB
M  V30 COUNTS 23 22 0 0 0
M  V30 BEGIN ATOM
M  V30 1 C -1.90867 1.26442 -0.778962 0
M  V30 2 C -1.29904 0.0529164 -0.0816389 0
M  V30 3 C 0.18144 0.127187 -0.277291 0
M  V30 4 N 0.914785 -0.950137 0.323558 0
M  V30 5 S 2.58881 -0.644809 -0.0362729 0
M  V30 6 O 3.27578 -1.97344 -0.248974 0
M  V30 7 O 2.70081 0.115663 -1.34617 0
M  V30 8 N 3.34513 0.302977 1.16267 0
M  V30 9 N -1.83059 -1.11431 -0.761697 0
M  V30 10 C -1.74598 0.0712546 1.33552 0
M  V30 11 H -2.92479 1.02123 -1.17799 0
M  V30 12 H -1.8924 2.16225 -0.161837 0
M  V30 13 H -1.27507 1.44268 -1.69345 0
M  V30 14 H 0.596187 1.07887 0.113702 0
M  V30 15 H 0.398443 0.113992 -1.36541 0
M  V30 16 H 0.84526 -0.928476 1.37817 0
M  V30 17 H 2.69656 0.704989 1.86868 0
M  V30 18 H 4.18568 -0.155517 1.57233 0
M  V30 19 H -1.74443 -0.955473 -1.80527 0
M  V30 20 H -1.27547 -1.97082 -0.536232 0
M  V30 21 H -2.82348 -0.26985 1.34143 0
M  V30 22 H -1.79453 1.11405 1.75956 0
M  V30 23 H -1.21444 -0.609648 2.0049 0
M  V30 END ATOM
M  V30 BEGIN BOND
M  V30 1 1 1 2
M  V30 2 1 2 3
M  V30 3 1 3 4
M  V30 4 1 4 5
M  V30 5 2 5 6
M  V30 6 2 5 7
M  V30 7 1 5 8
M  V30 8 1 2 9
M  V30 9 1 2 10
M  V30 10 1 1 11
M  V30 11 1 1 12
M  V30 12 1 1 13
M  V30 13 1 3 14
M  V30 14 1 3 15
M  V30 15 1 4 16
M  V30 16 1 8 17
M  V30 17 1 8 18
M  V30 18 1 9 19
M  V30 19 1 9 20
M  V30 20 1 10 21
M  V30 21 1 10 22
M  V30 22 1 10 23
M  V30 END BOND
M  V30 END CTAB
M  END
