
     RDKit          3D

  0  0  0  0  0  0  0  0  0  0999 V3000
M  V30 BEGIN CTAB
M  V30 COUNTS 44 45 0 0 0
M  V30 BEGIN ATOM
M  V30 1 C -2.35884 4.12748 -0.70223 0
M  V30 2 O -2.8374 2.90419 -0.235556 0
M  V30 3 C -2.18697 1.70705 -0.308645 0
M  V30 4 C -2.83607 0.581142 0.219369 0
M  V30 5 O -4.09134 0.71822 0.788322 0
M  V30 6 C -4.90101 -0.234117 1.35728 0
M  V30 7 C -2.21157 -0.622084 0.158846 0
M  V30 8 C -0.927566 -0.829556 -0.410801 0
M  V30 9 C -0.412596 -2.14226 -0.462817 0
M  V30 10 C -1.491 -3.14717 0.0275715 0
M  V30 11 C 0.838963 -2.65574 0.0129889 0
M  V30 12 C -0.30794 0.275141 -0.918243 0
M  V30 13 C 1.00575 0.218714 -1.45349 0
M  V30 14 C 2.15224 0.376197 -0.511919 0
M  V30 15 C 1.96769 0.880181 0.753764 0
M  V30 16 N 3.00874 1.04129 1.59038 0
M  V30 17 C 4.27491 0.712034 1.21486 0
M  V30 18 N 5.37009 0.890842 2.11972 0
M  V30 19 N 4.42956 0.223753 -0.0208123 0
M  V30 20 C 3.4306 0.0412061 -0.899161 0
M  V30 21 N 3.7085 -0.496304 -2.21815 0
M  V30 22 C -0.949164 1.51828 -0.857902 0
M  V30 23 H -1.26376 4.26105 -0.601507 0
M  V30 24 H -2.59368 4.30676 -1.78597 0
M  V30 25 H -2.82342 4.97132 -0.126163 0
M  V30 26 H -4.54816 -1.25757 1.37653 0
M  V30 27 H -5.06976 0.0621878 2.43368 0
M  V30 28 H -5.90436 -0.260306 0.833742 0
M  V30 29 H -2.75015 -1.45824 0.582583 0
M  V30 30 H -0.411002 -2.43701 -1.57952 0
M  V30 31 H -2.3893 -3.01121 -0.597649 0
M  V30 32 H -1.63189 -3.01652 1.09299 0
M  V30 33 H -1.05976 -4.14563 -0.234398 0
M  V30 34 H 1.18723 -2.20188 0.985312 0
M  V30 35 H 0.739487 -3.7362 0.277272 0
M  V30 36 H 1.68528 -2.68837 -0.738931 0
M  V30 37 H 1.15598 1.10583 -2.15342 0
M  V30 38 H 1.24436 -0.621526 -2.14452 0
M  V30 39 H 0.980452 1.17296 1.14088 0
M  V30 40 H 5.26534 0.89847 3.13955 0
M  V30 41 H 6.30773 1.01583 1.68138 0
M  V30 42 H 3.33333 -0.073364 -3.08475 0
M  V30 43 H 4.30688 -1.32901 -2.24793 0
M  V30 44 H -0.436402 2.35394 -1.26608 0
M  V30 END ATOM
M  V30 BEGIN BOND
M  V30 1 1 1 2
M  V30 2 1 2 3
M  V30 3 2 3 4
M  V30 4 1 4 5
M  V30 5 1 5 6
M  V30 6 1 4 7
M  V30 7 2 7 8
M  V30 8 1 8 9
M  V30 9 1 9 10
M  V30 10 1 9 11
M  V30 11 1 8 12
M  V30 12 1 12 13
M  V30 13 1 13 14
M  V30 14 2 14 15
M  V30 15 1 15 16
M  V30 16 2 16 17
M  V30 17 1 17 18
M  V30 18 1 17 19
M  V30 19 2 19 20
M  V30 20 1 20 21
M  V30 21 2 12 22
M  V30 22 1 22 3
M  V30 23 1 20 14
M  V30 24 1 1 23
M  V30 25 1 1 24
M  V30 26 1 1 25
M  V30 27 1 6 26
M  V30 28 1 6 27
M  V30 29 1 6 28
M  V30 30 1 7 29
M  V30 31 1 9 30
M  V30 32 1 10 31
M  V30 33 1 10 32
M  V30 34 1 10 33
M  V30 35 1 11 34
M  V30 36 1 11 35
M  V30 37 1 11 36
M  V30 38 1 13 37
M  V30 39 1 13 38
M  V30 40 1 15 39
M  V30 41 1 18 40
M  V30 42 1 18 41
M  V30 43 1 21 42
M  V30 44 1 21 43
M  V30 45 1 22 44
M  V30 END BOND
M  V30 END CTAB
M  END
