
     RDKit          3D

  0  0  0  0  0  0  0  0  0  0999 V3000
M  V30 BEGIN CTAB
M  V30 COUNTS 24 25 0 0 0
M  V30 BEGIN ATOM
M  V30 1 N 2.64648 -1.78563 0.407839 0
M  V30 2 C 1.99429 -1.11666 -0.651452 0
M  V30 3 S 2.46323 -1.4531 -2.18641 0
M  V30 4 C 0.938786 -0.159522 -0.371941 0
M  V30 5 C 1.11646 1.20416 -0.198946 0
M  V30 6 N 2.32493 1.94977 -0.253236 0
M  V30 7 C -0.150004 1.69524 0.0415752 0
M  V30 8 C -0.509445 3.05798 0.286384 0
M  V30 9 N -0.798967 4.15954 0.504282 0
M  V30 10 C -1.07957 0.660185 0.0167251 0
M  V30 11 C -2.52715 0.311761 0.160345 0
M  V30 12 C -2.41095 -1.13239 0.610255 0
M  V30 13 C -1.27706 -1.61448 -0.285079 0
M  V30 14 N -0.375875 -0.457263 -0.238802 0
M  V30 15 H 3.13337 -2.69514 0.320788 0
M  V30 16 H 2.64813 -1.34553 1.35616 0
M  V30 17 H 2.42457 2.90181 -0.664398 0
M  V30 18 H 3.18688 1.52157 0.146444 0
M  V30 19 H -2.95648 0.962823 0.924823 0
M  V30 20 H -3.05561 0.381801 -0.826533 0
M  V30 21 H -2.01254 -1.10887 1.64464 0
M  V30 22 H -3.32779 -1.69895 0.492129 0
M  V30 23 H -0.792028 -2.52184 0.103996 0
M  V30 24 H -1.60365 -1.71727 -1.33958 0
M  V30 END ATOM
M  V30 BEGIN BOND
M  V30 1 1 1 2
M  V30 2 2 2 3
M  V30 3 1 2 4
M  V30 4 2 4 5
M  V30 5 1 5 6
M  V30 6 1 5 7
M  V30 7 1 7 8
M  V30 8 3 8 9
M  V30 9 2 7 10
M  V30 10 1 10 11
M  V30 11 1 11 12
M  V30 12 1 12 13
M  V30 13 1 13 14
M  V30 14 1 14 4
M  V30 15 1 14 10
M  V30 16 1 1 15
M  V30 17 1 1 16
M  V30 18 1 6 17
M  V30 19 1 6 18
M  V30 20 1 11 19
M  V30 21 1 11 20
M  V30 22 1 12 21
M  V30 23 1 12 22
M  V30 24 1 13 23
M  V30 25 1 13 24
M  V30 END BOND
M  V30 END CTAB
M  END
