
     RDKit          3D

  0  0  0  0  0  0  0  0  0  0999 V3000
M  V30 BEGIN CTAB
M  V30 COUNTS 33 34 0 0 0
M  V30 BEGIN ATOM
M  V30 1 N -2.88846 0.615798 2.16513 0
M  V30 2 C -2.70421 -0.712785 1.64211 0
M  V30 3 C -1.46698 -0.707706 0.797895 0
M  V30 4 N -1.42108 0.134652 -0.288425 0
M  V30 5 C -2.19417 -0.0110651 -1.43437 0
M  V30 6 C -1.56479 0.914871 -2.496 0
M  V30 7 C -0.133863 1.0891 -2.0459 0
M  V30 8 C -0.209394 0.796711 -0.564022 0 CFG=2
M  V30 9 C 1.02085 0.0898757 -0.196749 0
M  V30 10 C 1.28553 -1.2274 -0.483248 0
M  V30 11 C 2.48778 -1.79678 -0.0785706 0
M  V30 12 C 3.4221 -1.04909 0.610902 0
M  V30 13 C 3.13449 0.262224 0.884242 0
M  V30 14 N 1.96935 0.764007 0.476174 0
M  V30 15 N 4.09773 1.02842 1.5937 0
M  V30 16 H -2.19423 0.731003 2.95594 0
M  V30 17 H -2.68841 1.37896 1.50445 0
M  V30 18 H -3.59243 -1.12773 1.14436 0
M  V30 19 H -2.4986 -1.37064 2.51371 0
M  V30 20 H -1.29637 -1.77789 0.475114 0
M  V30 21 H -0.603491 -0.484131 1.48557 0
M  V30 22 H -3.24951 0.26715 -1.39891 0
M  V30 23 H -2.13019 -1.04687 -1.85626 0
M  V30 24 H -2.03781 1.90362 -2.5001 0
M  V30 25 H -1.62219 0.502087 -3.50043 0
M  V30 26 H 0.576233 0.440384 -2.58823 0
M  V30 27 H 0.212526 2.13525 -2.15814 0
M  V30 28 H -0.231447 1.77495 0.000880169 0
M  V30 29 H 0.567135 -1.79802 -1.01433 0
M  V30 30 H 2.71409 -2.83052 -0.294866 0
M  V30 31 H 4.36418 -1.49415 0.928404 0
M  V30 32 H 4.92311 1.42627 1.09242 0
M  V30 33 H 3.95252 1.17944 2.62754 0
M  V30 END ATOM
M  V30 BEGIN BOND
M  V30 1 1 1 2
M  V30 2 1 2 3
M  V30 3 1 3 4
M  V30 4 1 4 5
M  V30 5 1 5 6
M  V30 6 1 6 7
M  V30 7 1 7 8
M  V30 8 1 8 9
M  V30 9 2 9 10
M  V30 10 1 10 11
M  V30 11 2 11 12
M  V30 12 1 12 13
M  V30 13 2 13 14
M  V30 14 1 13 15
M  V30 15 1 8 4
M  V30 16 1 14 9
M  V30 17 1 1 16
M  V30 18 1 1 17
M  V30 19 1 2 18
M  V30 20 1 2 19
M  V30 21 1 3 20
M  V30 22 1 3 21
M  V30 23 1 5 22
M  V30 24 1 5 23
M  V30 25 1 6 24
M  V30 26 1 6 25
M  V30 27 1 7 26
M  V30 28 1 7 27
M  V30 29 1 8 28 CFG=1
M  V30 30 1 10 29
M  V30 31 1 11 30
M  V30 32 1 12 31
M  V30 33 1 15 32
M  V30 34 1 15 33
M  V30 END BOND
M  V30 END CTAB
M  END
