
     RDKit          3D

  0  0  0  0  0  0  0  0  0  0999 V3000
M  V30 BEGIN CTAB
M  V30 COUNTS 40 42 0 0 0
M  V30 BEGIN ATOM
M  V30 1 N -2.11112 -0.38993 3.30194 0
M  V30 2 C -2.42055 -0.272494 2.17024 0
M  V30 3 C -2.80733 -0.149017 0.747565 0
M  V30 4 C -1.87572 0.141352 -0.188313 0
M  V30 5 N -0.451891 0.33936 -0.00251173 0
M  V30 6 C 0.354682 0.706329 -1.0804 0
M  V30 7 O -0.142218 0.889767 -2.22069 0
M  V30 8 C 1.81009 0.876641 -0.897854 0
M  V30 9 S 2.63914 -0.727896 -0.781545 0
M  V30 10 C 4.37925 -0.465993 -0.500255 0
M  V30 11 N 5.22695 -1.50422 -0.363023 0
M  V30 12 C 6.53539 -1.42134 -0.154284 0
M  V30 13 N 7.35851 -2.57121 -0.0133705 0
M  V30 14 C 7.10509 -0.15836 -0.0666522 0
M  V30 15 C 6.25197 0.936747 -0.204108 0
M  V30 16 N 4.94509 0.76601 -0.411366 0
M  V30 17 N 6.85343 2.2194 -0.124484 0
M  V30 18 S -2.76885 0.146452 -1.65138 0
M  V30 19 C -4.29765 -0.228718 -1.02318 0
M  V30 20 C -4.09039 -0.350637 0.322108 0
M  V30 21 C -5.34724 -0.674522 1.11726 0
M  V30 22 C -6.43324 0.278698 0.723884 0
M  V30 23 C -6.58812 0.478294 -0.761234 0
M  V30 24 C -5.6942 -0.431421 -1.56492 0
M  V30 25 H -0.0863518 0.183259 0.95215 0
M  V30 26 H 1.98597 1.42619 0.0331596 0
M  V30 27 H 2.22406 1.39869 -1.77129 0
M  V30 28 H 8.38604 -2.49708 0.0323836 0
M  V30 29 H 6.92133 -3.51018 0.048167 0
M  V30 30 H 8.1653 -0.0569518 0.103473 0
M  V30 31 H 6.58882 2.97989 -0.81615 0
M  V30 32 H 7.55764 2.49064 0.592873 0
M  V30 33 H -5.66891 -1.71133 0.96575 0
M  V30 34 H -5.16377 -0.522527 2.21279 0
M  V30 35 H -7.40161 -0.114502 1.1037 0
M  V30 36 H -6.28215 1.26402 1.21716 0
M  V30 37 H -7.63877 0.35086 -1.10166 0
M  V30 38 H -6.30437 1.51593 -1.02948 0
M  V30 39 H -6.01822 -1.47796 -1.38356 0
M  V30 40 H -5.69609 -0.152247 -2.62157 0
M  V30 END ATOM
M  V30 BEGIN BOND
M  V30 1 3 1 2
M  V30 2 1 2 3
M  V30 3 2 3 4
M  V30 4 1 4 5
M  V30 5 1 5 6
M  V30 6 2 6 7
M  V30 7 1 6 8
M  V30 8 1 8 9
M  V30 9 1 9 10
M  V30 10 2 10 11
M  V30 11 1 11 12
M  V30 12 1 12 13
M  V30 13 2 12 14
M  V30 14 1 14 15
M  V30 15 2 15 16
M  V30 16 1 15 17
M  V30 17 1 4 18
M  V30 18 1 18 19
M  V30 19 2 19 20
M  V30 20 1 20 21
M  V30 21 1 21 22
M  V30 22 1 22 23
M  V30 23 1 23 24
M  V30 24 1 20 3
M  V30 25 1 16 10
M  V30 26 1 24 19
M  V30 27 1 5 25
M  V30 28 1 8 26
M  V30 29 1 8 27
M  V30 30 1 13 28
M  V30 31 1 13 29
M  V30 32 1 14 30
M  V30 33 1 17 31
M  V30 34 1 17 32
M  V30 35 1 21 33
M  V30 36 1 21 34
M  V30 37 1 22 35
M  V30 38 1 22 36
M  V30 39 1 23 37
M  V30 40 1 23 38
M  V30 41 1 24 39
M  V30 42 1 24 40
M  V30 END BOND
M  V30 END CTAB
M  END
