
     RDKit          3D

  0  0  0  0  0  0  0  0  0  0999 V3000
M  V30 BEGIN CTAB
M  V30 COUNTS 31 33 0 0 0
M  V30 BEGIN ATOM
M  V30 1 N -3.55458 1.65703 -0.187189 0
M  V30 2 C -3.59084 0.240883 -0.214049 0
M  V30 3 C -4.81665 -0.380402 -0.299526 0
M  V30 4 C -4.84917 -1.76156 -0.32555 0
M  V30 5 C -3.688 -2.50545 -0.267779 0
M  V30 6 C -2.48952 -1.83632 -0.183134 0
M  V30 7 C -2.41669 -0.464658 -0.154819 0
M  V30 8 C -1.11264 0.204509 -0.0637271 0
M  V30 9 N -0.883994 1.52972 -0.0267186 0
M  V30 10 N 0.428891 1.73514 0.0568315 0
M  V30 11 C 1.01972 0.539946 0.0720046 0
M  V30 12 O 0.0626783 -0.353525 -0.00185285 0
M  V30 13 C 2.45045 0.224567 0.153664 0
M  V30 14 C 3.39688 1.22494 0.228721 0
M  V30 15 N 2.92328 2.5626 0.223165 0
M  V30 16 C 4.74252 0.933459 0.30561 0
M  V30 17 C 5.20627 -0.366316 0.311236 0
M  V30 18 C 4.2514 -1.35986 0.235781 0
M  V30 19 C 2.90244 -1.07865 0.158512 0
M  V30 20 H -3.36692 2.14598 0.710891 0
M  V30 21 H -3.71841 2.16636 -1.07512 0
M  V30 22 H -5.73757 0.182241 -0.345817 0
M  V30 23 H -5.81637 -2.26135 -0.393161 0
M  V30 24 H -3.76042 -3.57703 -0.290848 0
M  V30 25 H -1.58371 -2.41819 -0.138093 0
M  V30 26 H 2.84121 3.11281 -0.665906 0
M  V30 27 H 2.64891 3.02143 1.10166 0
M  V30 28 H 5.4746 1.7405 0.364242 0
M  V30 29 H 6.26959 -0.580524 0.372277 0
M  V30 30 H 4.59529 -2.39518 0.238709 0
M  V30 31 H 2.17133 -1.88309 0.09998 0
M  V30 END ATOM
M  V30 BEGIN BOND
M  V30 1 1 1 2
M  V30 2 2 2 3
M  V30 3 1 3 4
M  V30 4 2 4 5
M  V30 5 1 5 6
M  V30 6 2 6 7
M  V30 7 1 7 8
M  V30 8 2 8 9
M  V30 9 1 9 10
M  V30 10 2 10 11
M  V30 11 1 11 12
M  V30 12 1 11 13
M  V30 13 2 13 14
M  V30 14 1 14 15
M  V30 15 1 14 16
M  V30 16 2 16 17
M  V30 17 1 17 18
M  V30 18 2 18 19
M  V30 19 1 7 2
M  V30 20 1 12 8
M  V30 21 1 19 13
M  V30 22 1 1 20
M  V30 23 1 1 21
M  V30 24 1 3 22
M  V30 25 1 4 23
M  V30 26 1 5 24
M  V30 27 1 6 25
M  V30 28 1 15 26
M  V30 29 1 15 27
M  V30 30 1 16 28
M  V30 31 1 17 29
M  V30 32 1 18 30
M  V30 33 1 19 31
M  V30 END BOND
M  V30 END CTAB
M  END
