
     RDKit          3D

  0  0  0  0  0  0  0  0  0  0999 V3000
M  V30 BEGIN CTAB
M  V30 COUNTS 7 6 0 0 0
M  V30 BEGIN ATOM
M  V30 1 N 1.38365 0.0350439 -0.227454 0
M  V30 2 Si 0.0444359 -0.722353 0.658689 0 RAD=3 VAL=2
M  V30 3 N -1.54111 -0.250297 0.057297 0
M  V30 4 H 2.26409 -0.0838178 0.285449 0
M  V30 5 H 1.18984 1.00329 -0.532515 0
M  V30 6 H -1.63055 0.770317 -0.0806385 0
M  V30 7 H -1.71036 -0.752182 -0.856403 0
M  V30 END ATOM
M  V30 BEGIN BOND
M  V30 1 1 1 2
M  V30 2 1 2 3
M  V30 3 1 1 4
M  V30 4 1 1 5
M  V30 5 1 3 6
M  V30 6 1 3 7
M  V30 END BOND
M  V30 END CTAB
M  END
