
     RDKit          3D

  0  0  0  0  0  0  0  0  0  0999 V3000
M  V30 BEGIN CTAB
M  V30 COUNTS 39 41 0 0 0
M  V30 BEGIN ATOM
M  V30 1 N 7.17439 2.45688 -0.218395 0
M  V30 2 C 6.0828 1.50907 -0.20476 0
M  V30 3 C 6.43541 0.190664 -0.504224 0
M  V30 4 C 5.41645 -0.744059 -0.532826 0
M  V30 5 N 5.60916 -2.10813 -0.806238 0
M  V30 6 N 4.1806 -0.292846 -0.27416 0
M  V30 7 C 3.86832 0.973585 0.00602384 0
M  V30 8 N 4.83697 1.9282 0.0495837 0
M  V30 9 S 2.12897 1.3687 0.255582 0
M  V30 10 C 1.18967 -0.134753 -0.118283 0
M  V30 11 C -0.262715 0.0154424 -0.038185 0
M  V30 12 C -1.02319 -0.912284 0.670951 0
M  V30 13 C -2.4064 -0.841355 0.67731 0
M  V30 14 C -3.17737 -1.76566 1.3992 0
M  V30 15 C -4.5527 -1.65148 1.38836 0
M  V30 16 C -5.13875 -0.63837 0.674598 0
M  V30 17 C -4.3917 0.278269 -0.0397105 0
M  V30 18 C -3.0048 0.181326 -0.0421147 0
M  V30 19 N -2.27742 1.10248 -0.745465 0
M  V30 20 C -0.943324 1.00951 -0.734274 0
M  V30 21 Cl 0.106689 2.14955 -1.60914 0
M  V30 22 C -5.04807 1.34501 -0.797218 0
M  V30 23 C -6.63202 -0.493953 0.687078 0
M  V30 24 H 8.12709 2.21413 0.136036 0
M  V30 25 H 7.01938 3.40878 -0.584419 0
M  V30 26 H 7.4393 -0.133013 -0.716038 0
M  V30 27 H 5.47803 -2.77986 0.00026066 0
M  V30 28 H 5.84398 -2.47631 -1.72226 0
M  V30 29 H 1.4808 -0.448248 -1.13681 0
M  V30 30 H 1.50483 -0.951678 0.602969 0
M  V30 31 H -0.524375 -1.72563 1.24024 0
M  V30 32 H -2.66789 -2.54382 1.94791 0
M  V30 33 H -5.15505 -2.36316 1.93741 0
M  V30 34 H -5.46183 2.17879 -0.144643 0
M  V30 35 H -4.32465 1.85221 -1.47826 0
M  V30 36 H -5.88653 1.00684 -1.43358 0
M  V30 37 H -6.94409 0.577232 0.712004 0
M  V30 38 H -7.11692 -1.02065 -0.154839 0
M  V30 39 H -6.98301 -0.907634 1.65033 0
M  V30 END ATOM
M  V30 BEGIN BOND
M  V30 1 1 1 2
M  V30 2 2 2 3
M  V30 3 1 3 4
M  V30 4 1 4 5
M  V30 5 2 4 6
M  V30 6 1 6 7
M  V30 7 2 7 8
M  V30 8 1 7 9
M  V30 9 1 9 10
M  V30 10 1 10 11
M  V30 11 2 11 12
M  V30 12 1 12 13
M  V30 13 2 13 14
M  V30 14 1 14 15
M  V30 15 2 15 16
M  V30 16 1 16 17
M  V30 17 2 17 18
M  V30 18 1 18 19
M  V30 19 2 19 20
M  V30 20 1 20 21
M  V30 21 1 17 22
M  V30 22 1 16 23
M  V30 23 1 8 2
M  V30 24 1 20 11
M  V30 25 1 18 13
M  V30 26 1 1 24
M  V30 27 1 1 25
M  V30 28 1 3 26
M  V30 29 1 5 27
M  V30 30 1 5 28
M  V30 31 1 10 29
M  V30 32 1 10 30
M  V30 33 1 12 31
M  V30 34 1 14 32
M  V30 35 1 15 33
M  V30 36 1 22 34
M  V30 37 1 22 35
M  V30 38 1 22 36
M  V30 39 1 23 37
M  V30 40 1 23 38
M  V30 41 1 23 39
M  V30 END BOND
M  V30 END CTAB
M  END
