
     RDKit          3D

  0  0  0  0  0  0  0  0  0  0999 V3000
M  V30 BEGIN CTAB
M  V30 COUNTS 25 26 0 0 0
M  V30 BEGIN ATOM
M  V30 1 N -2.98701 1.96245 -0.827213 0
M  V30 2 C -2.17156 0.863915 -0.430597 0
M  V30 3 C -2.81437 -0.278562 0.0217729 0
M  V30 4 C -2.04071 -1.33915 0.405137 0
M  V30 5 C -0.678818 -1.2919 0.35077 0
M  V30 6 C -0.047088 -0.159416 -0.0976574 0
M  V30 7 C -0.792149 0.93084 -0.492995 0
M  V30 8 N 1.38097 -0.355541 -0.0647364 0
M  V30 9 C 1.55621 -1.80104 -0.129078 0
M  V30 10 C 0.405049 -2.28581 0.704454 0
M  V30 11 S 2.60053 0.858816 0.029444 0
M  V30 12 O 2.5613 1.76555 -1.18313 0
M  V30 13 O 3.94362 0.185226 0.0703393 0
M  V30 14 N 2.46058 1.77972 1.49149 0
M  V30 15 H -3.92305 2.15137 -0.384779 0
M  V30 16 H -2.62455 2.59973 -1.59343 0
M  V30 17 H -3.91494 -0.307289 0.0620848 0
M  V30 18 H -2.50842 -2.25257 0.765583 0
M  V30 19 H -0.291573 1.84288 -0.853659 0
M  V30 20 H 1.49538 -2.09232 -1.18425 0
M  V30 21 H 2.49745 -2.1226 0.364803 0
M  V30 22 H 0.63658 -2.12307 1.75832 0
M  V30 23 H 0.0849107 -3.30911 0.449907 0
M  V30 24 H 1.77846 2.56817 1.36291 0
M  V30 25 H 3.39319 2.20971 1.72532 0
M  V30 END ATOM
M  V30 BEGIN BOND
M  V30 1 1 1 2
M  V30 2 2 2 3
M  V30 3 1 3 4
M  V30 4 2 4 5
M  V30 5 1 5 6
M  V30 6 2 6 7
M  V30 7 1 6 8
M  V30 8 1 8 9
M  V30 9 1 9 10
M  V30 10 1 8 11
M  V30 11 2 11 12
M  V30 12 2 11 13
M  V30 13 1 11 14
M  V30 14 1 7 2
M  V30 15 1 10 5
M  V30 16 1 1 15
M  V30 17 1 1 16
M  V30 18 1 3 17
M  V30 19 1 4 18
M  V30 20 1 7 19
M  V30 21 1 9 20
M  V30 22 1 9 21
M  V30 23 1 10 22
M  V30 24 1 10 23
M  V30 25 1 14 24
M  V30 26 1 14 25
M  V30 END BOND
M  V30 END CTAB
M  END
