
     RDKit          3D

  0  0  0  0  0  0  0  0  0  0999 V3000
M  V30 BEGIN CTAB
M  V30 COUNTS 69 68 0 0 0
M  V30 BEGIN ATOM
M  V30 1 C -6.17847 3.7023 -1.36584 0
M  V30 2 C -6.92665 2.57443 -2.04433 0
M  V30 3 O -6.72648 1.34315 -1.377 0
M  V30 4 C -5.46192 0.782089 -1.21931 0
M  V30 5 O -4.50661 1.43303 -1.70453 0
M  V30 6 C -5.2529 -0.48476 -0.532477 0
M  V30 7 C -4.03858 -0.982816 -0.400905 0
M  V30 8 N -2.86139 -0.389539 -0.878106 0
M  V30 9 N -2.06275 0.530473 -0.238805 0
M  V30 10 C -1.10485 0.261058 0.560318 0
M  V30 11 C -0.335106 1.36319 1.17103 0
M  V30 12 C 1.10012 1.30771 0.826223 0
M  V30 13 N 1.96507 1.20432 1.76599 0
M  V30 14 N 3.33787 1.13949 1.62248 0
M  V30 15 C 4.00264 0.0351341 1.07044 0
M  V30 16 C 4.93717 0.0917774 0.166709 0
M  V30 17 C 5.44598 1.34254 -0.423362 0
M  V30 18 O 6.36127 1.30668 -1.30138 0
M  V30 19 O 4.95314 2.55267 -0.0466626 0
M  V30 20 C 5.47086 3.73008 -0.638547 0
M  V30 21 C 6.95279 3.77966 -0.334239 0
M  V30 22 C 5.57201 -1.14313 -0.340731 0
M  V30 23 O 5.20499 -2.23371 0.104176 0
M  V30 24 O 6.56949 -1.13211 -1.30204 0
M  V30 25 C 7.16357 -2.34701 -1.77187 0
M  V30 26 C 7.82206 -3.10871 -0.637666 0
M  V30 27 N 3.59206 -1.24854 1.56851 0
M  V30 28 C 1.55685 1.37048 -0.58394 0
M  V30 29 C -0.773384 -1.14087 0.867974 0
M  V30 30 N -3.90816 -2.22776 0.281181 0
M  V30 31 C -6.42616 -1.17236 -0.00816142 0
M  V30 32 O -7.58501 -0.680959 -0.139122 0
M  V30 33 O -6.33738 -2.37751 0.648431 0
M  V30 34 C -7.4741 -3.01712 1.14171 0
M  V30 35 C -7.07496 -4.32721 1.80436 0
M  V30 36 H -6.73661 4.63867 -1.58249 0
M  V30 37 H -6.1515 3.58429 -0.249954 0
M  V30 38 H -5.13463 3.81357 -1.76491 0
M  V30 39 H -6.66402 2.57333 -3.10048 0
M  V30 40 H -8.0163 2.82464 -1.97057 0
M  V30 41 H -2.55248 -0.687426 -1.84641 0
M  V30 42 H -0.443561 1.2386 2.28561 0
M  V30 43 H -0.75815 2.34698 0.864037 0
M  V30 44 H 3.88426 1.95482 1.96324 0
M  V30 45 H 5.32243 3.74818 -1.74965 0
M  V30 46 H 4.9858 4.61274 -0.150153 0
M  V30 47 H 7.50385 3.48816 -1.2514 0
M  V30 48 H 7.22033 3.03305 0.435077 0
M  V30 49 H 7.23064 4.80038 0.00505039 0
M  V30 50 H 6.44976 -2.95287 -2.32552 0
M  V30 51 H 7.97573 -2.03913 -2.46549 0
M  V30 52 H 7.11044 -3.82342 -0.172501 0
M  V30 53 H 8.23288 -2.42891 0.127341 0
M  V30 54 H 8.64799 -3.70625 -1.0667 0
M  V30 55 H 2.94584 -1.84898 1.01301 0
M  V30 56 H 3.92737 -1.60497 2.48618 0
M  V30 57 H 2.17217 2.26594 -0.758031 0
M  V30 58 H 0.659651 1.50909 -1.25369 0
M  V30 59 H 2.01342 0.420463 -0.923904 0
M  V30 60 H -1.37337 -1.42546 1.76184 0
M  V30 61 H -0.90363 -1.80984 0.00376398 0
M  V30 62 H 0.293353 -1.25751 1.17936 0
M  V30 63 H -3.82942 -3.14204 -0.24365 0
M  V30 64 H -3.88646 -2.27964 1.32147 0
M  V30 65 H -8.16848 -3.22777 0.307073 0
M  V30 66 H -8.00205 -2.42925 1.92159 0
M  V30 67 H -6.32564 -4.8759 1.1972 0
M  V30 68 H -6.63759 -4.15343 2.80699 0
M  V30 69 H -7.96509 -4.99625 1.9005 0
M  V30 END ATOM
M  V30 BEGIN BOND
M  V30 1 1 1 2
M  V30 2 1 2 3
M  V30 3 1 3 4
M  V30 4 2 4 5
M  V30 5 1 4 6
M  V30 6 2 6 7 CFG=2
M  V30 7 1 7 8
M  V30 8 1 8 9
M  V30 9 2 9 10
M  V30 10 1 10 11
M  V30 11 1 11 12
M  V30 12 2 12 13
M  V30 13 1 13 14
M  V30 14 1 14 15
M  V30 15 2 15 16 CFG=2
M  V30 16 1 16 17
M  V30 17 2 17 18
M  V30 18 1 17 19
M  V30 19 1 19 20
M  V30 20 1 20 21
M  V30 21 1 16 22
M  V30 22 2 22 23
M  V30 23 1 22 24
M  V30 24 1 24 25
M  V30 25 1 25 26
M  V30 26 1 15 27
M  V30 27 1 12 28
M  V30 28 1 10 29
M  V30 29 1 7 30
M  V30 30 1 6 31
M  V30 31 2 31 32
M  V30 32 1 31 33
M  V30 33 1 33 34
M  V30 34 1 34 35
M  V30 35 1 1 36
M  V30 36 1 1 37
M  V30 37 1 1 38
M  V30 38 1 2 39
M  V30 39 1 2 40
M  V30 40 1 8 41
M  V30 41 1 11 42
M  V30 42 1 11 43
M  V30 43 1 14 44
M  V30 44 1 20 45
M  V30 45 1 20 46
M  V30 46 1 21 47
M  V30 47 1 21 48
M  V30 48 1 21 49
M  V30 49 1 25 50
M  V30 50 1 25 51
M  V30 51 1 26 52
M  V30 52 1 26 53
M  V30 53 1 26 54
M  V30 54 1 27 55
M  V30 55 1 27 56
M  V30 56 1 28 57
M  V30 57 1 28 58
M  V30 58 1 28 59
M  V30 59 1 29 60
M  V30 60 1 29 61
M  V30 61 1 29 62
M  V30 62 1 30 63
M  V30 63 1 30 64
M  V30 64 1 34 65
M  V30 65 1 34 66
M  V30 66 1 35 67
M  V30 67 1 35 68
M  V30 68 1 35 69
M  V30 END BOND
M  V30 END CTAB
M  END
