
     RDKit          3D

  0  0  0  0  0  0  0  0  0  0999 V3000
M  V30 BEGIN CTAB
M  V30 COUNTS 30 31 0 0 0
M  V30 BEGIN ATOM
M  V30 1 O -2.01276 0.942249 -2.01441 0
M  V30 2 C -2.30002 0.550368 -0.847154 0
M  V30 3 C -3.6025 0.821196 -0.138105 0
M  V30 4 C -3.38807 0.106205 1.18166 0
M  V30 5 C -2.33806 -0.958272 0.873172 0
M  V30 6 N -1.43912 -0.210862 -0.0118749 0
M  V30 7 C -0.00881884 -0.254796 -0.0129682 0
M  V30 8 C 0.673819 0.947858 -0.223437 0
M  V30 9 C 2.04927 0.94953 -0.200886 0
M  V30 10 C 2.76422 2.23723 -0.435536 0
M  V30 11 C 2.74998 -0.23299 0.0294163 0
M  V30 12 C 2.04563 -1.37841 0.229184 0
M  V30 13 C 0.661355 -1.42398 0.212583 0
M  V30 14 N -0.0872127 -2.6105 0.40347 0
M  V30 15 N 4.17185 -0.16071 0.0561155 0
M  V30 16 H -4.4039 0.386122 -0.726551 0
M  V30 17 H -3.72213 1.91057 0.0475715 0
M  V30 18 H -4.32441 -0.333728 1.55658 0
M  V30 19 H -2.91762 0.793258 1.92576 0
M  V30 20 H -2.76536 -1.78936 0.298356 0
M  V30 21 H -1.87206 -1.22641 1.82512 0
M  V30 22 H 0.0793756 1.85102 -0.401683 0
M  V30 23 H 2.09745 2.87085 -1.06259 0
M  V30 24 H 3.69197 2.10095 -1.02279 0
M  V30 25 H 2.93254 2.80074 0.507774 0
M  V30 26 H 2.55991 -2.30221 0.416243 0
M  V30 27 H -0.119446 -3.0972 1.33581 0
M  V30 28 H -0.622118 -3.01662 -0.411972 0
M  V30 29 H 4.76004 -0.861787 -0.439431 0
M  V30 30 H 4.68623 0.589691 0.568427 0
M  V30 END ATOM
M  V30 BEGIN BOND
M  V30 1 2 1 2
M  V30 2 1 2 3
M  V30 3 1 3 4
M  V30 4 1 4 5
M  V30 5 1 5 6
M  V30 6 1 6 7
M  V30 7 2 7 8
M  V30 8 1 8 9
M  V30 9 1 9 10
M  V30 10 2 9 11
M  V30 11 1 11 12
M  V30 12 2 12 13
M  V30 13 1 13 14
M  V30 14 1 11 15
M  V30 15 1 6 2
M  V30 16 1 13 7
M  V30 17 1 3 16
M  V30 18 1 3 17
M  V30 19 1 4 18
M  V30 20 1 4 19
M  V30 21 1 5 20
M  V30 22 1 5 21
M  V30 23 1 8 22
M  V30 24 1 10 23
M  V30 25 1 10 24
M  V30 26 1 10 25
M  V30 27 1 12 26
M  V30 28 1 14 27
M  V30 29 1 14 28
M  V30 30 1 15 29
M  V30 31 1 15 30
M  V30 END BOND
M  V30 END CTAB
M  END
