
     RDKit          3D

  0  0  0  0  0  0  0  0  0  0999 V3000
M  V30 BEGIN CTAB
M  V30 COUNTS 38 37 0 0 0
M  V30 BEGIN ATOM
M  V30 1 N -6.50881 0.326418 -2.11412 0
M  V30 2 N -5.26903 -0.181552 -1.78895 0
M  V30 3 C -4.30408 0.641452 -1.17682 0
M  V30 4 O -4.58178 1.83496 -0.931456 0
M  V30 5 C -2.95844 0.0635647 -0.831714 0
M  V30 6 C -2.11793 1.13976 -0.192848 0
M  V30 7 C -0.741295 0.62431 0.165391 0
M  V30 8 C -0.788258 -0.513346 1.13748 0
M  V30 9 C 0.594891 -0.995544 1.45939 0
M  V30 10 C 1.4579 0.0517331 2.08787 0
M  V30 11 C 2.83956 -0.477517 2.41247 0
M  V30 12 C 3.60695 -0.979295 1.24863 0
M  V30 13 C 3.90688 -0.0132912 0.190094 0
M  V30 14 O 3.57136 1.18073 0.306705 0
M  V30 15 N 4.58414 -0.407106 -0.991711 0
M  V30 16 N 4.88126 0.495938 -2.01509 0
M  V30 17 H -6.69296 1.24316 -1.6356 0
M  V30 18 H -6.54368 0.508046 -3.14044 0
M  V30 19 H -5.04808 -1.17412 -1.99683 0
M  V30 20 H -3.09412 -0.779272 -0.0992499 0
M  V30 21 H -2.49707 -0.275158 -1.77916 0
M  V30 22 H -2.03168 2.02276 -0.857994 0
M  V30 23 H -2.622 1.51766 0.744452 0
M  V30 24 H -0.236659 0.237805 -0.753188 0
M  V30 25 H -0.137909 1.48539 0.533612 0
M  V30 26 H -1.39962 -1.36034 0.758632 0
M  V30 27 H -1.2975 -0.179719 2.08613 0
M  V30 28 H 1.08178 -1.39119 0.521212 0
M  V30 29 H 0.52465 -1.88565 2.13781 0
M  V30 30 H 0.983065 0.369931 3.06676 0
M  V30 31 H 1.49134 0.972908 1.48911 0
M  V30 32 H 3.37518 0.290475 3.01044 0
M  V30 33 H 2.68435 -1.33616 3.1051 0
M  V30 34 H 3.07186 -1.88504 0.867036 0
M  V30 35 H 4.56699 -1.4156 1.66653 0
M  V30 36 H 4.8756 -1.38885 -1.11906 0
M  V30 37 H 5.67282 0.181179 -2.605 0
M  V30 38 H 5.10035 1.45059 -1.60249 0
M  V30 END ATOM
M  V30 BEGIN BOND
M  V30 1 1 1 2
M  V30 2 1 2 3
M  V30 3 2 3 4
M  V30 4 1 3 5
M  V30 5 1 5 6
M  V30 6 1 6 7
M  V30 7 1 7 8
M  V30 8 1 8 9
M  V30 9 1 9 10
M  V30 10 1 10 11
M  V30 11 1 11 12
M  V30 12 1 12 13
M  V30 13 2 13 14
M  V30 14 1 13 15
M  V30 15 1 15 16
M  V30 16 1 1 17
M  V30 17 1 1 18
M  V30 18 1 2 19
M  V30 19 1 5 20
M  V30 20 1 5 21
M  V30 21 1 6 22
M  V30 22 1 6 23
M  V30 23 1 7 24
M  V30 24 1 7 25
M  V30 25 1 8 26
M  V30 26 1 8 27
M  V30 27 1 9 28
M  V30 28 1 9 29
M  V30 29 1 10 30
M  V30 30 1 10 31
M  V30 31 1 11 32
M  V30 32 1 11 33
M  V30 33 1 12 34
M  V30 34 1 12 35
M  V30 35 1 15 36
M  V30 36 1 16 37
M  V30 37 1 16 38
M  V30 END BOND
M  V30 END CTAB
M  END
