
     RDKit          3D

  0  0  0  0  0  0  0  0  0  0999 V3000
M  V30 BEGIN CTAB
M  V30 COUNTS 45 48 0 0 0
M  V30 BEGIN ATOM
M  V30 1 N -3.41375 -2.88139 -1.78992 0
M  V30 2 C -2.80549 -2.01554 -0.803266 0
M  V30 3 C -1.58834 -1.29516 -1.33435 0
M  V30 4 C -2.44525 -0.0923916 -1.59023 0
M  V30 5 C -3.49294 -0.674924 -0.667096 0
M  V30 6 C -1.9195 1.18147 -1.0271 0
M  V30 7 C -1.45499 1.24382 0.278126 0
M  V30 8 C -0.981022 2.44965 0.736441 0
M  V30 9 N -0.497587 2.54268 2.05618 0
M  V30 10 C -0.42417 1.4675 2.99162 0
M  V30 11 C 0.516721 0.386221 2.59076 0
M  V30 12 C 0.6599 -0.864774 3.15732 0
M  V30 13 O 1.59314 -1.47654 2.50688 0
M  V30 14 C 2.10008 -0.748907 1.54331 0
M  V30 15 N 1.4387 0.413264 1.58455 0
M  V30 16 C 3.1609 -1.08828 0.59963 0
M  V30 17 C 3.76734 -2.32461 0.670206 0
M  V30 18 C 4.77662 -2.68167 -0.208863 0
M  V30 19 C 5.21382 -1.81546 -1.18799 0
M  V30 20 C 4.61324 -0.577333 -1.26603 0
M  V30 21 C 3.59379 -0.219248 -0.376581 0
M  V30 22 N -0.985255 3.51877 -0.0919788 0
M  V30 23 C -1.43567 3.4658 -1.36264 0
M  V30 24 N -1.89893 2.28211 -1.80785 0
M  V30 25 N -1.42678 4.61086 -2.20854 0
M  V30 26 H -3.83804 -3.7291 -1.37696 0
M  V30 27 H -4.15182 -2.36925 -2.31417 0
M  V30 28 H -2.65715 -2.49141 0.191682 0
M  V30 29 H -1.19464 -1.82004 -2.22935 0
M  V30 30 H -0.757279 -1.15292 -0.615749 0
M  V30 31 H -2.79766 -0.0347762 -2.6205 0
M  V30 32 H -3.46278 -0.288679 0.368581 0
M  V30 33 H -4.51225 -0.633316 -1.12855 0
M  V30 34 H -1.50081 0.334797 0.855449 0
M  V30 35 H -0.160763 3.50712 2.36952 0
M  V30 36 H -0.121908 1.81984 3.98575 0
M  V30 37 H -1.42485 0.969735 3.14114 0
M  V30 38 H 0.0544844 -1.21029 4.00681 0
M  V30 39 H 3.42098 -3.0058 1.44364 0
M  V30 40 H 5.25416 -3.64628 -0.159289 0
M  V30 41 H 5.99924 -2.06379 -1.88916 0
M  V30 42 H 4.92936 0.143324 -2.0291 0
M  V30 43 H 3.12474 0.752942 -0.442021 0
M  V30 44 H -0.63028 4.83865 -2.84614 0
M  V30 45 H -2.23732 5.27331 -2.21675 0
M  V30 END ATOM
M  V30 BEGIN BOND
M  V30 1 1 1 2
M  V30 2 1 2 3
M  V30 3 1 3 4
M  V30 4 1 4 5
M  V30 5 1 4 6
M  V30 6 2 6 7
M  V30 7 1 7 8
M  V30 8 1 8 9
M  V30 9 1 9 10
M  V30 10 1 10 11
M  V30 11 2 11 12
M  V30 12 1 12 13
M  V30 13 1 13 14
M  V30 14 2 14 15
M  V30 15 1 14 16
M  V30 16 2 16 17
M  V30 17 1 17 18
M  V30 18 2 18 19
M  V30 19 1 19 20
M  V30 20 2 20 21
M  V30 21 2 8 22
M  V30 22 1 22 23
M  V30 23 2 23 24
M  V30 24 1 23 25
M  V30 25 1 5 2
M  V30 26 1 24 6
M  V30 27 1 15 11
M  V30 28 1 21 16
M  V30 29 1 1 26
M  V30 30 1 1 27
M  V30 31 1 2 28
M  V30 32 1 3 29
M  V30 33 1 3 30
M  V30 34 1 4 31
M  V30 35 1 5 32
M  V30 36 1 5 33
M  V30 37 1 7 34
M  V30 38 1 9 35
M  V30 39 1 10 36
M  V30 40 1 10 37
M  V30 41 1 12 38
M  V30 42 1 17 39
M  V30 43 1 18 40
M  V30 44 1 19 41
M  V30 45 1 20 42
M  V30 46 1 21 43
M  V30 47 1 25 44
M  V30 48 1 25 45
M  V30 END BOND
M  V30 END CTAB
M  END
