
     RDKit          3D

  0  0  0  0  0  0  0  0  0  0999 V3000
M  V30 BEGIN CTAB
M  V30 COUNTS 40 40 0 0 0
M  V30 BEGIN ATOM
M  V30 1 N -4.36424 -0.331411 -0.204899 0
M  V30 2 C -3.40898 0.762715 -0.166904 0
M  V30 3 C -1.96993 0.235179 -0.285429 0
M  V30 4 N -1.93561 -0.459058 -1.58221 0
M  V30 5 C -1.76147 -0.709257 0.852304 0
M  V30 6 C -0.701596 -1.75597 0.540029 0
M  V30 7 C 0.638309 -1.09078 0.862399 0
M  V30 8 C 0.919145 -0.14454 -0.300994 0
M  V30 9 C 0.34228 1.17966 0.041113 0
M  V30 10 C -1.06903 1.40714 -0.293447 0
M  V30 11 C 2.44443 0.0348516 -0.327372 0
M  V30 12 C 2.86705 0.95831 -1.44318 0
M  V30 13 C 3.14791 -1.27931 -0.500862 0
M  V30 14 C 2.90804 0.621072 0.998824 0
M  V30 15 H -4.73376 -0.495919 -1.16484 0
M  V30 16 H -5.15511 -0.0880152 0.438911 0
M  V30 17 H -3.57723 1.50674 -0.967788 0
M  V30 18 H -3.50076 1.26823 0.812825 0
M  V30 19 H -2.68841 -1.204 -1.49322 0
M  V30 20 H -2.33551 0.230385 -2.27879 0
M  V30 21 H -1.46661 -0.133318 1.74239 0
M  V30 22 H -2.72081 -1.27105 1.01639 0
M  V30 23 H -0.671823 -1.96718 -0.558261 0
M  V30 24 H -0.860218 -2.67405 1.10396 0
M  V30 25 H 1.42152 -1.83759 1.00293 0
M  V30 26 H 0.471367 -0.525766 1.8056 0
M  V30 27 H 0.635302 -0.560536 -1.26459 0
M  V30 28 H 0.959971 1.96651 -0.475347 0
M  V30 29 H 0.504711 1.35787 1.13367 0
M  V30 30 H -1.48792 2.17157 0.425091 0
M  V30 31 H -1.1576 1.90714 -1.29629 0
M  V30 32 H 2.16469 0.771954 -2.29964 0
M  V30 33 H 2.88317 2.02113 -1.15261 0
M  V30 34 H 3.89348 0.654274 -1.74938 0
M  V30 35 H 4.12456 -1.06722 -0.996539 0
M  V30 36 H 3.39582 -1.6965 0.495849 0
M  V30 37 H 2.6129 -1.99367 -1.14721 0
M  V30 38 H 2.77658 1.70868 1.04552 0
M  V30 39 H 4.01475 0.431366 1.05125 0
M  V30 40 H 2.44061 0.09038 1.83136 0
M  V30 END ATOM
M  V30 BEGIN BOND
M  V30 1 1 1 2
M  V30 2 1 2 3
M  V30 3 1 3 4
M  V30 4 1 3 5
M  V30 5 1 5 6
M  V30 6 1 6 7
M  V30 7 1 7 8
M  V30 8 1 8 9
M  V30 9 1 9 10
M  V30 10 1 8 11
M  V30 11 1 11 12
M  V30 12 1 11 13
M  V30 13 1 11 14
M  V30 14 1 10 3
M  V30 15 1 1 15
M  V30 16 1 1 16
M  V30 17 1 2 17
M  V30 18 1 2 18
M  V30 19 1 4 19
M  V30 20 1 4 20
M  V30 21 1 5 21
M  V30 22 1 5 22
M  V30 23 1 6 23
M  V30 24 1 6 24
M  V30 25 1 7 25
M  V30 26 1 7 26
M  V30 27 1 8 27
M  V30 28 1 9 28
M  V30 29 1 9 29
M  V30 30 1 10 30
M  V30 31 1 10 31
M  V30 32 1 12 32
M  V30 33 1 12 33
M  V30 34 1 12 34
M  V30 35 1 13 35
M  V30 36 1 13 36
M  V30 37 1 13 37
M  V30 38 1 14 38
M  V30 39 1 14 39
M  V30 40 1 14 40
M  V30 END BOND
M  V30 END CTAB
M  END
