
     RDKit          3D

  0  0  0  0  0  0  0  0  0  0999 V3000
M  V30 BEGIN CTAB
M  V30 COUNTS 37 37 0 0 0
M  V30 BEGIN ATOM
M  V30 1 C 0.935527 0.754457 -0.416207 0 CFG=1
M  V30 2 N 1.10239 1.34398 0.868124 0
M  V30 3 C 1.83808 -0.450525 -0.570739 0
M  V30 4 C 3.26027 0.0366492 -0.401995 0
M  V30 5 C 4.21061 -1.14911 -0.550206 0
M  V30 6 C 5.64653 -0.716727 -0.39005 0
M  V30 7 N 5.87352 -0.123387 0.926784 0
M  V30 8 C -0.500327 0.368782 -0.675493 0
M  V30 9 O -0.675855 -0.152691 -1.79968 0
M  V30 10 N -1.49825 0.600549 0.295515 0
M  V30 11 C -2.87431 0.305952 0.21991 0
M  V30 12 C -3.63638 0.649505 1.34423 0
M  V30 13 C -4.97995 0.384157 1.32189 0
M  V30 14 C -5.61362 -0.206562 0.239911 0
M  V30 15 C -4.87343 -0.548211 -0.87045 0
M  V30 16 C -3.49851 -0.280704 -0.856866 0
M  V30 17 N -7.01674 -0.449683 0.294911 0 CHG=1
M  V30 18 O -7.73417 -0.106975 1.39778 0 CHG=-1
M  V30 19 O -7.57822 -0.979264 -0.677881 0
M  V30 20 H 1.25244 1.48829 -1.18293 0
M  V30 21 H 0.779553 2.32563 0.939699 0
M  V30 22 H 0.864432 0.743468 1.6645 0
M  V30 23 H 1.67629 -0.837797 -1.59465 0
M  V30 24 H 1.62642 -1.24452 0.172362 0
M  V30 25 H 3.52384 0.778034 -1.18142 0
M  V30 26 H 3.3755 0.509383 0.587872 0
M  V30 27 H 3.9557 -1.93248 0.164601 0
M  V30 28 H 4.11154 -1.56505 -1.57185 0
M  V30 29 H 5.96675 0.00978929 -1.13771 0
M  V30 30 H 6.27732 -1.61756 -0.473817 0
M  V30 31 H 6.89594 -0.0404813 1.09154 0
M  V30 32 H 5.45404 0.829285 0.990976 0
M  V30 33 H -1.12858 1.06025 1.19232 0
M  V30 34 H -3.18095 1.12058 2.22889 0
M  V30 35 H -5.56026 0.662871 2.21742 0
M  V30 36 H -5.34268 -1.01417 -1.73732 0
M  V30 37 H -2.93449 -0.555715 -1.73669 0
M  V30 END ATOM
M  V30 BEGIN BOND
M  V30 1 1 1 2
M  V30 2 1 1 3
M  V30 3 1 3 4
M  V30 4 1 4 5
M  V30 5 1 5 6
M  V30 6 1 6 7
M  V30 7 1 1 8
M  V30 8 2 8 9
M  V30 9 1 8 10
M  V30 10 1 10 11
M  V30 11 2 11 12
M  V30 12 1 12 13
M  V30 13 2 13 14
M  V30 14 1 14 15
M  V30 15 2 15 16
M  V30 16 1 14 17
M  V30 17 1 17 18
M  V30 18 2 17 19
M  V30 19 1 16 11
M  V30 20 1 1 20 CFG=3
M  V30 21 1 2 21
M  V30 22 1 2 22
M  V30 23 1 3 23
M  V30 24 1 3 24
M  V30 25 1 4 25
M  V30 26 1 4 26
M  V30 27 1 5 27
M  V30 28 1 5 28
M  V30 29 1 6 29
M  V30 30 1 6 30
M  V30 31 1 7 31
M  V30 32 1 7 32
M  V30 33 1 10 33
M  V30 34 1 12 34
M  V30 35 1 13 35
M  V30 36 1 15 36
M  V30 37 1 16 37
M  V30 END BOND
M  V30 END CTAB
M  END
