
     RDKit          3D

  0  0  0  0  0  0  0  0  0  0999 V3000
M  V30 BEGIN CTAB
M  V30 COUNTS 37 39 0 0 0
M  V30 BEGIN ATOM
M  V30 1 N -2.59464 2.92867 -0.392362 0
M  V30 2 C -2.31169 1.87612 0.615943 0
M  V30 3 C -0.986337 1.28007 0.230064 0
M  V30 4 C 0.0867919 2.14598 0.480715 0
M  V30 5 N -0.212086 3.50149 0.924021 0
M  V30 6 N 1.28024 1.68624 0.253992 0
M  V30 7 C 1.48479 0.412625 -0.215861 0
M  V30 8 N 0.456516 -0.385373 -0.448163 0
M  V30 9 C -0.832679 0.0384674 -0.219852 0
M  V30 10 C -1.86067 -0.990192 -0.19721 0
M  V30 11 C -1.64374 -1.96573 0.783715 0
M  V30 12 F -0.533602 -1.92017 1.5771 0
M  V30 13 C -2.51411 -2.98905 1.02772 0
M  V30 14 C -3.68043 -3.07028 0.253838 0
M  V30 15 C -3.9135 -2.12547 -0.725371 0
M  V30 16 C -2.99835 -1.09117 -0.938354 0
M  V30 17 C 2.85408 -0.0470685 -0.359338 0
M  V30 18 C 3.15538 -0.987775 -1.31805 0
M  V30 19 C 4.4192 -1.48227 -1.39372 0
M  V30 20 C 5.38767 -1.0355 -0.51474 0
M  V30 21 C 5.11118 -0.0916009 0.465808 0
M  V30 22 C 3.84385 0.383758 0.518148 0
M  V30 23 H -3.10266 3.72586 0.00471292 0
M  V30 24 H -2.61758 2.72659 -1.3441 0
M  V30 25 H -3.16034 1.11557 0.293216 0
M  V30 26 H -2.46513 2.18245 1.62131 0
M  V30 27 H -0.781313 3.56093 1.80051 0
M  V30 28 H 0.0979776 4.35922 0.394318 0
M  V30 29 H -2.41257 -3.76134 1.75264 0
M  V30 30 H -4.41204 -3.85803 0.456355 0
M  V30 31 H -4.82009 -2.12756 -1.35016 0
M  V30 32 H -3.18749 -0.315932 -1.70871 0
M  V30 33 H 2.37246 -1.31745 -2.00387 0
M  V30 34 H 4.66339 -2.20844 -2.14145 0
M  V30 35 H 6.3917 -1.46284 -0.602434 0
M  V30 36 H 5.88957 0.211505 1.15156 0
M  V30 37 H 3.54624 1.09769 1.26807 0
M  V30 END ATOM
M  V30 BEGIN BOND
M  V30 1 1 1 2
M  V30 2 1 2 3
M  V30 3 2 3 4
M  V30 4 1 4 5
M  V30 5 1 4 6
M  V30 6 2 6 7
M  V30 7 1 7 8
M  V30 8 2 8 9
M  V30 9 1 9 10
M  V30 10 2 10 11
M  V30 11 1 11 12
M  V30 12 1 11 13
M  V30 13 2 13 14
M  V30 14 1 14 15
M  V30 15 2 15 16
M  V30 16 1 7 17
M  V30 17 2 17 18
M  V30 18 1 18 19
M  V30 19 2 19 20
M  V30 20 1 20 21
M  V30 21 2 21 22
M  V30 22 1 9 3
M  V30 23 1 16 10
M  V30 24 1 22 17
M  V30 25 1 1 23
M  V30 26 1 1 24
M  V30 27 1 2 25
M  V30 28 1 2 26
M  V30 29 1 5 27
M  V30 30 1 5 28
M  V30 31 1 13 29
M  V30 32 1 14 30
M  V30 33 1 15 31
M  V30 34 1 16 32
M  V30 35 1 18 33
M  V30 36 1 19 34
M  V30 37 1 20 35
M  V30 38 1 21 36
M  V30 39 1 22 37
M  V30 END BOND
M  V30 END CTAB
M  END
