
     RDKit          3D

  0  0  0  0  0  0  0  0  0  0999 V3000
M  V30 BEGIN CTAB
M  V30 COUNTS 27 28 0 0 0
M  V30 BEGIN ATOM
M  V30 1 N 3.72802 -0.4196 0.25735 0
M  V30 2 C 2.68035 -1.15091 0.905791 0
M  V30 3 C 1.37725 -0.72172 0.295871 0
M  V30 4 C 1.11585 0.752241 0.489895 0
M  V30 5 C 0.052759 1.11859 -0.526333 0 CFG=2
M  V30 6 N -0.275404 2.52171 -0.449139 0
M  V30 7 C -1.11887 0.248609 -0.243264 0
M  V30 8 C -0.992107 -0.95012 0.431293 0
M  V30 9 O 0.262451 -1.40374 0.883745 0
M  V30 10 C -2.11616 -1.71448 0.664518 0
M  V30 11 C -3.34937 -1.29125 0.232132 0
M  V30 12 C -3.50075 -0.0935233 -0.445897 0
M  V30 13 C -2.3768 0.666451 -0.676745 0
M  V30 14 H 3.9892 0.447196 0.729238 0
M  V30 15 H 3.57183 -0.33704 -0.765614 0
M  V30 16 H 2.65345 -0.827101 1.98271 0
M  V30 17 H 2.80619 -2.23063 0.886086 0
M  V30 18 H 1.37666 -1.01815 -0.774085 0
M  V30 19 H 2.02291 1.36879 0.393878 0
M  V30 20 H 0.655858 0.902354 1.49612 0
M  V30 21 H 0.424244 0.895874 -1.53484 0
M  V30 22 H -0.247047 2.83267 0.549884 0
M  V30 23 H 0.410655 3.08297 -1.00379 0
M  V30 24 H -2.01096 -2.65313 1.19368 0
M  V30 25 H -4.22427 -1.88841 0.414851 0
M  V30 26 H -4.44366 0.27011 -0.798345 0
M  V30 27 H -2.47229 1.59221 -1.19731 0
M  V30 END ATOM
M  V30 BEGIN BOND
M  V30 1 1 1 2
M  V30 2 1 2 3
M  V30 3 1 3 4
M  V30 4 1 4 5
M  V30 5 1 5 6
M  V30 6 1 5 7
M  V30 7 2 7 8
M  V30 8 1 8 9
M  V30 9 1 8 10
M  V30 10 2 10 11
M  V30 11 1 11 12
M  V30 12 2 12 13
M  V30 13 1 9 3
M  V30 14 1 13 7
M  V30 15 1 1 14
M  V30 16 1 1 15
M  V30 17 1 2 16
M  V30 18 1 2 17
M  V30 19 1 3 18
M  V30 20 1 4 19
M  V30 21 1 4 20
M  V30 22 1 5 21 CFG=3
M  V30 23 1 6 22
M  V30 24 1 6 23
M  V30 25 1 10 24
M  V30 26 1 11 25
M  V30 27 1 12 26
M  V30 28 1 13 27
M  V30 END BOND
M  V30 END CTAB
M  END
