
     RDKit          3D

  0  0  0  0  0  0  0  0  0  0999 V3000
M  V30 BEGIN CTAB
M  V30 COUNTS 36 38 0 0 0
M  V30 BEGIN ATOM
M  V30 1 N 2.53356 -3.30463 0.344597 0
M  V30 2 C 2.85863 -2.21138 0.147401 0
M  V30 3 C 3.29358 -0.8441 -0.0947395 0
M  V30 4 C 4.18384 -0.263732 0.792404 0
M  V30 5 N 4.63148 -1.00892 1.9129 0
M  V30 6 C 4.60817 1.02545 0.556194 0
M  V30 7 C 4.12758 1.68873 -0.558597 0
M  V30 8 N 3.26483 1.14779 -1.43172 0
M  V30 9 C 2.84699 -0.131703 -1.19211 0
M  V30 10 S 1.68089 -0.905131 -2.31077 0
M  V30 11 C 0.00369481 -0.545102 -1.83047 0
M  V30 12 C -0.435058 -1.11624 -0.520175 0
M  V30 13 N -1.82233 -0.776038 -0.222176 0
M  V30 14 N -2.91383 -1.4476 -0.531102 0
M  V30 15 C -4.00512 -0.792446 -0.0726368 0
M  V30 16 N -3.57812 0.310845 0.534388 0
M  V30 17 C -2.22837 0.316836 0.439558 0
M  V30 18 O -1.54273 1.25499 0.932528 0
M  V30 19 C -4.46086 1.16304 1.0908 0
M  V30 20 C -5.81714 0.900713 1.03723 0
M  V30 21 C -6.25981 -0.250618 0.403925 0
M  V30 22 C -5.35125 -1.11143 -0.15952 0
M  V30 23 N 4.61161 3.02305 -0.74063 0
M  V30 24 H 4.14584 -0.939094 2.83647 0
M  V30 25 H 5.45438 -1.63176 1.80815 0
M  V30 26 H 5.30674 1.4845 1.24933 0
M  V30 27 H -0.15552 0.571277 -1.75401 0
M  V30 28 H -0.732636 -0.923081 -2.59687 0
M  V30 29 H -0.305255 -2.20905 -0.436717 0
M  V30 30 H 0.152989 -0.676775 0.339265 0
M  V30 31 H -4.11659 2.05756 1.58367 0
M  V30 32 H -6.55528 1.58094 1.48392 0
M  V30 33 H -7.32729 -0.478927 0.350078 0
M  V30 34 H -5.6929 -2.02367 -0.662243 0
M  V30 35 H 4.92117 3.36782 -1.68485 0
M  V30 36 H 4.67411 3.69787 0.0556909 0
M  V30 END ATOM
M  V30 BEGIN BOND
M  V30 1 3 1 2
M  V30 2 1 2 3
M  V30 3 2 3 4
M  V30 4 1 4 5
M  V30 5 1 4 6
M  V30 6 2 6 7
M  V30 7 1 7 8
M  V30 8 2 8 9
M  V30 9 1 9 10
M  V30 10 1 10 11
M  V30 11 1 11 12
M  V30 12 1 12 13
M  V30 13 1 13 14
M  V30 14 2 14 15
M  V30 15 1 15 16
M  V30 16 1 16 17
M  V30 17 2 17 18
M  V30 18 1 16 19
M  V30 19 2 19 20
M  V30 20 1 20 21
M  V30 21 2 21 22
M  V30 22 1 7 23
M  V30 23 1 9 3
M  V30 24 1 17 13
M  V30 25 1 22 15
M  V30 26 1 5 24
M  V30 27 1 5 25
M  V30 28 1 6 26
M  V30 29 1 11 27
M  V30 30 1 11 28
M  V30 31 1 12 29
M  V30 32 1 12 30
M  V30 33 1 19 31
M  V30 34 1 20 32
M  V30 35 1 21 33
M  V30 36 1 22 34
M  V30 37 1 23 35
M  V30 38 1 23 36
M  V30 END BOND
M  V30 END CTAB
M  END
