
     RDKit          3D

  0  0  0  0  0  0  0  0  0  0999 V3000
M  V30 BEGIN CTAB
M  V30 COUNTS 79 84 0 0 0
M  V30 BEGIN ATOM
M  V30 1 N -1.6559 2.5421 2.59777 0
M  V30 2 C -1.85623 1.6852 1.87744 0
M  V30 3 C -2.14626 0.609292 0.978909 0
M  V30 4 C -3.16032 0.860644 0.0409709 0
M  V30 5 C -3.60164 -0.0641164 -0.868814 0
M  V30 6 C -2.95218 -1.31049 -0.791929 0
M  V30 7 C -1.96974 -1.54974 0.118878 0
M  V30 8 C -1.51293 -0.606422 1.05015 0
M  V30 9 C -0.470347 -0.961858 2.02153 0
M  V30 10 C 0.863187 -0.441587 1.93496 0
M  V30 11 C 1.30478 0.508562 2.87845 0
M  V30 12 C 2.58654 1.01731 2.87967 0
M  V30 13 C 3.49102 0.606511 1.94448 0
M  V30 14 C 3.09815 -0.311956 1.01495 0
M  V30 15 C 1.79951 -0.817655 1.02743 0
M  V30 16 C 1.53963 -1.81624 0.0308596 0
M  V30 17 N 1.35854 -2.63416 -0.760903 0
M  V30 18 N 4.84182 1.06702 1.94075 0
M  V30 19 C 5.55182 1.27667 3.1314 0
M  V30 20 O 5.01452 1.04703 4.27553 0
M  V30 21 C 6.95088 1.76943 3.22527 0
M  V30 22 S 7.67529 2.17669 1.64041 0
M  V30 23 C 8.01398 0.794121 0.598874 0
M  V30 24 N 7.80245 -0.403931 1.00512 0
M  V30 25 C 8.05126 -1.55712 0.225208 0
M  V30 26 N 8.5183 -1.4335 -0.96696 0
M  V30 27 C 8.8179 -0.172394 -1.58674 0
M  V30 28 N 8.54151 0.945885 -0.705615 0
M  V30 29 C 10.2445 -0.124114 -2.00003 0
M  V30 30 C 11.0893 0.930762 -1.7766 0
M  V30 31 C 12.3092 0.585358 -2.30728 0
M  V30 32 C 12.1473 -0.681777 -2.83722 0
M  V30 33 O 10.9086 -1.08254 -2.64195 0
M  V30 34 N 7.78322 -2.85254 0.768973 0
M  V30 35 N -4.58923 0.120629 -1.85889 0
M  V30 36 C -4.98654 1.38274 -2.3203 0
M  V30 37 O -4.55661 2.4985 -1.95982 0
M  V30 38 C -6.05509 1.4487 -3.38125 0
M  V30 39 S -6.70516 -0.195996 -3.64473 0
M  V30 40 C -7.65562 -0.741221 -2.2053 0
M  V30 41 N -8.13867 -1.92983 -2.18278 0
M  V30 42 C -8.8953 -2.37775 -1.05215 0
M  V30 43 N -9.10112 -1.59764 -0.0524297 0
M  V30 44 C -8.62765 -0.239129 0.0644963 0
M  V30 45 N -7.85491 0.126146 -1.10158 0
M  V30 46 C -9.81532 0.650692 0.139374 0
M  V30 47 C -10.9424 0.444299 0.910929 0
M  V30 48 C -11.8026 1.52296 0.674458 0
M  V30 49 C -11.1307 2.31528 -0.231685 0
M  V30 50 O -9.98108 1.76645 -0.511077 0
M  V30 51 N -9.39801 -3.70108 -1.08548 0
M  V30 52 H -3.64397 1.83794 0.0299096 0
M  V30 53 H -3.26759 -2.07736 -1.49125 0
M  V30 54 H -1.49151 -2.53278 0.170632 0
M  V30 55 H -0.913744 -0.679643 3.04719 0
M  V30 56 H -0.491102 -2.09526 2.09266 0
M  V30 57 H 0.605681 0.842735 3.63299 0
M  V30 58 H 2.84924 1.75651 3.63419 0
M  V30 59 H 3.81824 -0.629606 0.277074 0
M  V30 60 H 5.33264 1.26628 1.02697 0
M  V30 61 H 6.98391 2.7006 3.85771 0
M  V30 62 H 7.58715 1.03774 3.79412 0
M  V30 63 H 8.19723 -0.00439088 -2.5065 0
M  V30 64 H 8.74421 1.9117 -1.04781 0
M  V30 65 H 10.8483 1.87034 -1.27514 0
M  V30 66 H 13.1958 1.20846 -2.29206 0
M  V30 67 H 12.9434 -1.24119 -3.33742 0
M  V30 68 H 8.40706 -3.22255 1.51993 0
M  V30 69 H 6.98282 -3.41921 0.425171 0
M  V30 70 H -5.02565 -0.768707 -2.24709 0
M  V30 71 H -6.8857 2.12401 -3.0939 0
M  V30 72 H -5.55269 1.82764 -4.30762 0
M  V30 73 H -7.97486 -0.110704 0.967198 0
M  V30 74 H -7.3942 1.08361 -1.17829 0
M  V30 75 H -11.1506 -0.373589 1.57315 0
M  V30 76 H -12.7817 1.70978 1.09892 0
M  V30 77 H -11.4972 3.25851 -0.655275 0
M  V30 78 H -9.56018 -4.16919 -1.99176 0
M  V30 79 H -9.60649 -4.20587 -0.208091 0
M  V30 END ATOM
M  V30 BEGIN BOND
M  V30 1 3 1 2
M  V30 2 1 2 3
M  V30 3 2 3 4
M  V30 4 1 4 5
M  V30 5 2 5 6
M  V30 6 1 6 7
M  V30 7 2 7 8
M  V30 8 1 8 9
M  V30 9 1 9 10
M  V30 10 2 10 11
M  V30 11 1 11 12
M  V30 12 2 12 13
M  V30 13 1 13 14
M  V30 14 2 14 15
M  V30 15 1 15 16
M  V30 16 3 16 17
M  V30 17 1 13 18
M  V30 18 1 18 19
M  V30 19 2 19 20
M  V30 20 1 19 21
M  V30 21 1 21 22
M  V30 22 1 22 23
M  V30 23 2 23 24
M  V30 24 1 24 25
M  V30 25 2 25 26
M  V30 26 1 26 27
M  V30 27 1 27 28
M  V30 28 1 27 29
M  V30 29 2 29 30
M  V30 30 1 30 31
M  V30 31 2 31 32
M  V30 32 1 32 33
M  V30 33 1 25 34
M  V30 34 1 5 35
M  V30 35 1 35 36
M  V30 36 2 36 37
M  V30 37 1 36 38
M  V30 38 1 38 39
M  V30 39 1 39 40
M  V30 40 2 40 41
M  V30 41 1 41 42
M  V30 42 2 42 43
M  V30 43 1 43 44
M  V30 44 1 44 45
M  V30 45 1 44 46
M  V30 46 2 46 47
M  V30 47 1 47 48
M  V30 48 2 48 49
M  V30 49 1 49 50
M  V30 50 1 42 51
M  V30 51 1 8 3
M  V30 52 1 15 10
M  V30 53 1 28 23
M  V30 54 1 33 29
M  V30 55 1 45 40
M  V30 56 1 50 46
M  V30 57 1 4 52
M  V30 58 1 6 53
M  V30 59 1 7 54
M  V30 60 1 9 55
M  V30 61 1 9 56
M  V30 62 1 11 57
M  V30 63 1 12 58
M  V30 64 1 14 59
M  V30 65 1 18 60
M  V30 66 1 21 61
M  V30 67 1 21 62
M  V30 68 1 27 63
M  V30 69 1 28 64
M  V30 70 1 30 65
M  V30 71 1 31 66
M  V30 72 1 32 67
M  V30 73 1 34 68
M  V30 74 1 34 69
M  V30 75 1 35 70
M  V30 76 1 38 71
M  V30 77 1 38 72
M  V30 78 1 44 73
M  V30 79 1 45 74
M  V30 80 1 47 75
M  V30 81 1 48 76
M  V30 82 1 49 77
M  V30 83 1 51 78
M  V30 84 1 51 79
M  V30 END BOND
M  V30 END CTAB
M  END
