
     RDKit          3D

  0  0  0  0  0  0  0  0  0  0999 V3000
M  V30 BEGIN CTAB
M  V30 COUNTS 32 32 0 0 0
M  V30 BEGIN ATOM
M  V30 1 O -0.463803 2.2557 -2.04323 0
M  V30 2 C 0.190518 2.55299 -0.869859 0
M  V30 3 C -0.151071 1.65337 0.245466 0
M  V30 4 C 0.173033 0.187365 0.0928263 0
M  V30 5 C -0.272053 -0.468024 1.40133 0
M  V30 6 C -1.73485 -0.306949 1.56446 0
M  V30 7 C -2.44732 -0.943618 0.433649 0
M  V30 8 C -1.96073 -0.630914 -0.946073 0
M  V30 9 C -0.486564 -0.484423 -1.07235 0
M  V30 10 N 1.59622 0.105429 0.0689808 0
M  V30 11 C 2.41297 -0.834604 0.0747676 0
M  V30 12 N 3.81163 -0.498148 0.0422427 0
M  V30 13 N 2.09692 -2.19839 0.1103 0
M  V30 14 H -0.917203 3.01458 -2.46446 0
M  V30 15 H -0.174956 3.5879 -0.584225 0
M  V30 16 H 1.28489 2.71119 -1.01494 0
M  V30 17 H -1.2177 1.82672 0.503538 0
M  V30 18 H 0.399445 1.96973 1.18214 0
M  V30 19 H 0.341623 -0.0263631 2.2074 0
M  V30 20 H -0.0722173 -1.55462 1.2998 0
M  V30 21 H -1.99385 -0.938594 2.48462 0
M  V30 22 H -2.09417 0.69605 1.86088 0
M  V30 23 H -3.53198 -0.694007 0.52126 0
M  V30 24 H -2.40499 -2.06246 0.5926 0
M  V30 25 H -2.3446 -1.42588 -1.61947 0
M  V30 26 H -2.44947 0.306854 -1.27736 0
M  V30 27 H -0.0655919 -1.538 -1.08924 0
M  V30 28 H -0.150467 -0.0554137 -2.00491 0
M  V30 29 H 4.1538 0.389582 0.447301 0
M  V30 30 H 4.52076 -1.14144 -0.391573 0
M  V30 31 H 1.98919 -2.71189 1.01082 0
M  V30 32 H 1.96259 -2.74372 -0.766703 0
M  V30 END ATOM
M  V30 BEGIN BOND
M  V30 1 1 1 2
M  V30 2 1 2 3
M  V30 3 1 3 4
M  V30 4 1 4 5
M  V30 5 1 5 6
M  V30 6 1 6 7
M  V30 7 1 7 8
M  V30 8 1 8 9
M  V30 9 1 4 10
M  V30 10 2 10 11 CFG=2
M  V30 11 1 11 12
M  V30 12 1 11 13
M  V30 13 1 9 4
M  V30 14 1 1 14
M  V30 15 1 2 15
M  V30 16 1 2 16
M  V30 17 1 3 17
M  V30 18 1 3 18
M  V30 19 1 5 19
M  V30 20 1 5 20
M  V30 21 1 6 21
M  V30 22 1 6 22
M  V30 23 1 7 23
M  V30 24 1 7 24
M  V30 25 1 8 25
M  V30 26 1 8 26
M  V30 27 1 9 27
M  V30 28 1 9 28
M  V30 29 1 12 29
M  V30 30 1 12 30
M  V30 31 1 13 31
M  V30 32 1 13 32
M  V30 END BOND
M  V30 END CTAB
M  END
