
     RDKit          3D

  0  0  0  0  0  0  0  0  0  0999 V3000
M  V30 BEGIN CTAB
M  V30 COUNTS 27 27 0 0 0
M  V30 BEGIN ATOM
M  V30 1 C -1.99742 2.05053 -0.257496 0
M  V30 2 C -0.982792 0.984478 -0.133561 0
M  V30 3 C -1.3502 -0.338295 -0.188581 0
M  V30 4 N -2.71461 -0.6962 -0.360061 0
M  V30 5 C -0.393857 -1.3179 -0.0704001 0
M  V30 6 C -0.788143 -2.74703 -0.138538 0
M  V30 7 C 0.943898 -0.955214 0.106484 0
M  V30 8 C 1.32681 0.377751 0.165263 0
M  V30 9 C 2.7809 0.689189 0.35416 0
M  V30 10 C 0.358757 1.32054 0.0435677 0
M  V30 11 N 0.774594 2.68293 0.100247 0
M  V30 12 N 1.91388 -1.97276 0.244869 0 CHG=1
M  V30 13 O 2.31271 -2.33813 1.53825 0 CHG=-1
M  V30 14 O 2.46958 -2.58339 -0.674405 0
M  V30 15 H -2.87587 1.75977 -0.86223 0
M  V30 16 H -2.38888 2.37781 0.727968 0
M  V30 17 H -1.58401 2.96034 -0.736132 0
M  V30 18 H -3.14555 -0.911357 -1.27518 0
M  V30 19 H -3.28905 -0.743017 0.507624 0
M  V30 20 H 0.104119 -3.37493 -0.322827 0
M  V30 21 H -1.45956 -2.91641 -0.995619 0
M  V30 22 H -1.2381 -3.07784 0.825565 0
M  V30 23 H 3.0998 0.468692 1.3842 0
M  V30 24 H 2.89554 1.78666 0.205445 0
M  V30 25 H 3.40163 0.203652 -0.426383 0
M  V30 26 H 0.4556 3.31249 -0.665536 0
M  V30 27 H 1.3702 2.99766 0.90331 0
M  V30 END ATOM
M  V30 BEGIN BOND
M  V30 1 1 1 2
M  V30 2 2 2 3
M  V30 3 1 3 4
M  V30 4 1 3 5
M  V30 5 1 5 6
M  V30 6 2 5 7
M  V30 7 1 7 8
M  V30 8 1 8 9
M  V30 9 2 8 10
M  V30 10 1 10 11
M  V30 11 1 7 12
M  V30 12 1 12 13
M  V30 13 2 12 14
M  V30 14 1 10 2
M  V30 15 1 1 15
M  V30 16 1 1 16
M  V30 17 1 1 17
M  V30 18 1 4 18
M  V30 19 1 4 19
M  V30 20 1 6 20
M  V30 21 1 6 21
M  V30 22 1 6 22
M  V30 23 1 9 23
M  V30 24 1 9 24
M  V30 25 1 9 25
M  V30 26 1 11 26
M  V30 27 1 11 27
M  V30 END BOND
M  V30 END CTAB
M  END
