
     RDKit          3D

  0  0  0  0  0  0  0  0  0  0999 V3000
M  V30 BEGIN CTAB
M  V30 COUNTS 25 26 0 0 0
M  V30 BEGIN ATOM
M  V30 1 N -0.900361 -1.0787 -1.8508 0
M  V30 2 C -1.0828 -0.535877 -0.539228 0
M  V30 3 C -2.21657 -0.986758 0.24805 0
M  V30 4 C -2.97821 0.284133 0.0528292 0
M  V30 5 C -1.78553 0.8461 -0.642498 0
M  V30 6 C 0.227287 -0.231101 0.139322 0
M  V30 7 N 1.26668 0.0309388 -0.665713 0
M  V30 8 C 2.49623 0.37123 -0.168397 0
M  V30 9 N 3.58584 0.64188 -1.01319 0
M  V30 10 C 2.62113 0.435295 1.20336 0
M  V30 11 C 1.53933 0.165636 2.00654 0
M  V30 12 O 1.59315 0.215009 3.25207 0
M  V30 13 N 0.350083 -0.166025 1.47183 0
M  V30 14 H -0.268196 -0.428211 -2.36374 0
M  V30 15 H -0.464542 -2.05209 -1.7939 0
M  V30 16 H -2.04806 -1.30249 1.30392 0
M  V30 17 H -2.76248 -1.83283 -0.301958 0
M  V30 18 H -3.82895 0.230386 -0.675905 0
M  V30 19 H -3.30386 0.78569 0.97428 0
M  V30 20 H -1.86608 1.17892 -1.67657 0
M  V30 21 H -1.30753 1.62896 0.0233967 0
M  V30 22 H 4.30336 1.33835 -0.739446 0
M  V30 23 H 3.67391 0.135162 -1.916 0
M  V30 24 H 3.61422 0.721582 1.58977 0
M  V30 25 H -0.458027 -0.395193 2.08196 0
M  V30 END ATOM
M  V30 BEGIN BOND
M  V30 1 1 1 2
M  V30 2 1 2 3
M  V30 3 1 3 4
M  V30 4 1 4 5
M  V30 5 1 2 6
M  V30 6 2 6 7
M  V30 7 1 7 8
M  V30 8 1 8 9
M  V30 9 2 8 10
M  V30 10 1 10 11
M  V30 11 2 11 12
M  V30 12 1 11 13
M  V30 13 1 5 2
M  V30 14 1 13 6
M  V30 15 1 1 14
M  V30 16 1 1 15
M  V30 17 1 3 16
M  V30 18 1 3 17
M  V30 19 1 4 18
M  V30 20 1 4 19
M  V30 21 1 5 20
M  V30 22 1 5 21
M  V30 23 1 9 22
M  V30 24 1 9 23
M  V30 25 1 10 24
M  V30 26 1 13 25
M  V30 END BOND
M  V30 END CTAB
M  END
