
     RDKit          3D

  0  0  0  0  0  0  0  0  0  0999 V3000
M  V30 BEGIN CTAB
M  V30 COUNTS 29 29 0 0 0
M  V30 BEGIN ATOM
M  V30 1 C 3.57923 -0.112014 0.200562 0
M  V30 2 C 2.12003 -0.0144742 0.0625211 0
M  V30 3 C 1.40252 -1.14317 -0.285014 0
M  V30 4 N 2.10739 -2.3678 -0.560716 0
M  V30 5 N 0.0650074 -1.03028 -0.364613 0
M  V30 6 C -0.57195 0.151599 -0.113475 0
M  V30 7 N 0.111971 1.22963 0.214856 0
M  V30 8 C 1.43537 1.15621 0.301933 0
M  V30 9 N 2.1696 2.34909 0.633349 0
M  V30 10 C -2.06381 0.0823178 -0.158313 0
M  V30 11 C -2.43329 -0.561565 1.17854 0
M  V30 12 C -2.7452 1.39918 -0.199436 0
M  V30 13 C -2.47979 -0.772438 -1.31168 0
M  V30 14 H 4.12526 -0.465916 -0.686879 0
M  V30 15 H 3.80122 -0.855953 1.01755 0
M  V30 16 H 3.98477 0.831421 0.542161 0
M  V30 17 H 2.64757 -2.80951 0.213177 0
M  V30 18 H 2.07765 -2.80116 -1.50483 0
M  V30 19 H 2.28448 2.54368 1.66494 0
M  V30 20 H 2.56689 2.9964 -0.0792146 0
M  V30 21 H -3.49381 -0.364968 1.46147 0
M  V30 22 H -2.17685 -1.62158 1.2005 0
M  V30 23 H -1.85512 -0.00907651 1.95823 0
M  V30 24 H -2.83219 1.85848 -1.18838 0
M  V30 25 H -2.306 2.04881 0.571766 0
M  V30 26 H -3.82068 1.22047 0.154791 0
M  V30 27 H -3.56854 -0.98579 -1.33462 0
M  V30 28 H -2.23174 -0.231808 -2.25791 0
M  V30 29 H -1.89997 -1.71976 -1.33129 0
M  V30 END ATOM
M  V30 BEGIN BOND
M  V30 1 1 1 2
M  V30 2 2 2 3
M  V30 3 1 3 4
M  V30 4 1 3 5
M  V30 5 2 5 6
M  V30 6 1 6 7
M  V30 7 2 7 8
M  V30 8 1 8 9
M  V30 9 1 6 10
M  V30 10 1 10 11
M  V30 11 1 10 12
M  V30 12 1 10 13
M  V30 13 1 8 2
M  V30 14 1 1 14
M  V30 15 1 1 15
M  V30 16 1 1 16
M  V30 17 1 4 17
M  V30 18 1 4 18
M  V30 19 1 9 19
M  V30 20 1 9 20
M  V30 21 1 11 21
M  V30 22 1 11 22
M  V30 23 1 11 23
M  V30 24 1 12 24
M  V30 25 1 12 25
M  V30 26 1 12 26
M  V30 27 1 13 27
M  V30 28 1 13 28
M  V30 29 1 13 29
M  V30 END BOND
M  V30 END CTAB
M  END
