
     RDKit          3D

  0  0  0  0  0  0  0  0  0  0999 V3000
M  V30 BEGIN CTAB
M  V30 COUNTS 25 25 0 0 0
M  V30 BEGIN ATOM
M  V30 1 N 3.48743 -0.631691 0.742119 0
M  V30 2 C 2.13431 -0.0993382 0.778675 0
M  V30 3 C 1.68023 0.247612 -0.606256 0
M  V30 4 C 0.323858 0.784821 -0.594579 0
M  V30 5 C -0.794841 0.0143246 -0.120134 0
M  V30 6 C -0.776719 -1.33755 0.0862694 0
M  V30 7 C -1.93011 -1.95927 0.530902 0
M  V30 8 C -3.07862 -1.21304 0.75896 0
M  V30 9 N -3.08387 0.11325 0.551652 0
M  V30 10 C -1.97653 0.73748 0.120889 0
M  V30 11 N -2.00534 2.15256 -0.0896124 0
M  V30 12 O 0.0268371 1.23039 -1.90883 0
M  V30 13 F 1.91887 -0.756833 -1.5202 0
M  V30 14 F 2.52458 1.29882 -1.02491 0
M  V30 15 H 4.02204 -0.0521573 0.0531796 0
M  V30 16 H 3.50063 -1.60482 0.384528 0
M  V30 17 H 1.45644 -0.672452 1.39575 0
M  V30 18 H 2.23516 0.896545 1.31287 0
M  V30 19 H 0.357061 1.75129 -0.00516751 0
M  V30 20 H 0.138981 -1.85805 -0.122534 0
M  V30 21 H -1.93557 -3.02113 0.70018 0
M  V30 22 H -3.99184 -1.70858 1.11036 0
M  V30 23 H -1.96372 2.4697 -1.08071 0
M  V30 24 H -2.06257 2.84562 0.665073 0
M  V30 25 H -0.206704 0.372488 -2.38819 0
M  V30 END ATOM
M  V30 BEGIN BOND
M  V30 1 1 1 2
M  V30 2 1 2 3
M  V30 3 1 3 4
M  V30 4 1 4 5
M  V30 5 2 5 6
M  V30 6 1 6 7
M  V30 7 2 7 8
M  V30 8 1 8 9
M  V30 9 2 9 10
M  V30 10 1 10 11
M  V30 11 1 4 12
M  V30 12 1 3 13
M  V30 13 1 3 14
M  V30 14 1 10 5
M  V30 15 1 1 15
M  V30 16 1 1 16
M  V30 17 1 2 17
M  V30 18 1 2 18
M  V30 19 1 4 19
M  V30 20 1 6 20
M  V30 21 1 7 21
M  V30 22 1 8 22
M  V30 23 1 11 23
M  V30 24 1 11 24
M  V30 25 1 12 25
M  V30 END BOND
M  V30 END CTAB
M  END
