
     RDKit          3D

  0  0  0  0  0  0  0  0  0  0999 V3000
M  V30 BEGIN CTAB
M  V30 COUNTS 37 38 0 0 0
M  V30 BEGIN ATOM
M  V30 1 O 0.23175 1.50387 0.840844 0
M  V30 2 C -0.204284 0.948002 -0.182118 0
M  V30 3 C -1.52399 0.380842 -0.234579 0
M  V30 4 C -2.32578 0.554976 0.910128 0
M  V30 5 N -1.76935 1.31155 1.94122 0
M  V30 6 N -3.58131 0.05854 0.977121 0
M  V30 7 C -4.38103 0.340092 2.19101 0
M  V30 8 C -4.04245 -0.617279 -0.0862372 0
M  V30 9 O -5.18745 -1.06332 -0.0534567 0
M  V30 10 N -3.33159 -0.823329 -1.21296 0
M  V30 11 C -2.0773 -0.322082 -1.27392 0
M  V30 12 O -1.41355 -0.512609 -2.32783 0
M  V30 13 C -3.91864 -1.55501 -2.33807 0
M  V30 14 C 0.65549 0.85741 -1.40338 0
M  V30 15 S 2.20108 1.83168 -1.07318 0
M  V30 16 C 3.19677 1.03781 0.180746 0
M  V30 17 N 3.11269 1.13555 1.54055 0
M  V30 18 N 4.0992 0.395912 2.08169 0
M  V30 19 C 4.79644 -0.157596 1.07585 0
M  V30 20 N 4.25438 0.221615 -0.0717704 0
M  V30 21 N 4.67194 -0.128231 -1.39012 0
M  V30 22 C 5.98282 -1.08366 1.2152 0
M  V30 23 F 6.63997 -1.19429 0.022692 0
M  V30 24 F 6.8018 -0.762903 2.23181 0
M  V30 25 F 5.49369 -2.38736 1.46317 0
M  V30 26 H -1.29774 0.874778 2.74207 0
M  V30 27 H -1.81824 2.36651 1.90756 0
M  V30 28 H -5.40207 0.452238 1.81541 0
M  V30 29 H -3.99148 1.2821 2.59419 0
M  V30 30 H -4.25136 -0.560374 2.81206 0
M  V30 31 H -3.45141 -1.20202 -3.27629 0
M  V30 32 H -4.9979 -1.28786 -2.331 0
M  V30 33 H -3.81812 -2.63891 -2.20068 0
M  V30 34 H 0.137753 1.39363 -2.22874 0
M  V30 35 H 0.835433 -0.145812 -1.6417 0
M  V30 36 H 4.05035 -0.721961 -1.93257 0
M  V30 37 H 5.6235 0.217489 -1.75059 0
M  V30 END ATOM
M  V30 BEGIN BOND
M  V30 1 2 1 2
M  V30 2 1 2 3
M  V30 3 2 3 4
M  V30 4 1 4 5
M  V30 5 1 4 6
M  V30 6 1 6 7
M  V30 7 1 6 8
M  V30 8 2 8 9
M  V30 9 1 8 10
M  V30 10 1 10 11
M  V30 11 2 11 12
M  V30 12 1 10 13
M  V30 13 1 2 14
M  V30 14 1 14 15
M  V30 15 1 15 16
M  V30 16 2 16 17
M  V30 17 1 17 18
M  V30 18 2 18 19
M  V30 19 1 19 20
M  V30 20 1 20 21
M  V30 21 1 19 22
M  V30 22 1 22 23
M  V30 23 1 22 24
M  V30 24 1 22 25
M  V30 25 1 11 3
M  V30 26 1 20 16
M  V30 27 1 5 26
M  V30 28 1 5 27
M  V30 29 1 7 28
M  V30 30 1 7 29
M  V30 31 1 7 30
M  V30 32 1 13 31
M  V30 33 1 13 32
M  V30 34 1 13 33
M  V30 35 1 14 34
M  V30 36 1 14 35
M  V30 37 1 21 36
M  V30 38 1 21 37
M  V30 END BOND
M  V30 END CTAB
M  END
