
     RDKit          3D

  0  0  0  0  0  0  0  0  0  0999 V3000
M  V30 BEGIN CTAB
M  V30 COUNTS 35 36 0 0 0
M  V30 BEGIN ATOM
M  V30 1 N -2.66462 1.7764 1.54569 0
M  V30 2 C -1.67336 2.41785 0.739409 0
M  V30 3 C -1.76601 2.06307 -0.721513 0
M  V30 4 C -1.59233 0.608513 -0.857751 0
M  V30 5 C -2.61177 -0.303297 -1.10343 0
M  V30 6 N -2.02954 -1.51424 -1.15599 0
M  V30 7 C -0.687063 -1.38501 -0.951536 0
M  V30 8 C -0.377062 -0.0515614 -0.759338 0
M  V30 9 C 0.925101 0.348331 -0.530991 0
M  V30 10 C 1.96978 -0.5507 -0.483555 0
M  V30 11 C 1.65124 -1.88002 -0.67655 0
M  V30 12 C 0.353761 -2.28904 -0.905323 0
M  V30 13 C 3.37773 -0.114305 -0.235855 0
M  V30 14 S 3.73323 -0.11524 1.52136 0
M  V30 15 O 3.62548 -1.49421 2.07717 0
M  V30 16 O 5.14395 0.395372 1.67143 0
M  V30 17 N 2.66522 0.969406 2.34752 0
M  V30 18 C -2.72972 -2.77583 -1.39615 0
M  V30 19 H -2.23577 1.30061 2.39316 0
M  V30 20 H -3.37159 2.44625 1.94856 0
M  V30 21 H -0.660755 2.14259 1.14235 0
M  V30 22 H -1.78152 3.52602 0.905198 0
M  V30 23 H -2.79667 2.35845 -1.04998 0
M  V30 24 H -1.03428 2.62501 -1.29674 0
M  V30 25 H -3.67093 -0.112729 -1.23184 0
M  V30 26 H 1.11697 1.38829 -0.387863 0
M  V30 27 H 2.46356 -2.5923 -0.641442 0
M  V30 28 H 0.0986877 -3.32668 -1.05755 0
M  V30 29 H 4.0622 -0.757897 -0.785046 0
M  V30 30 H 3.54452 0.92632 -0.585059 0
M  V30 31 H 3.15708 1.31307 3.21342 0
M  V30 32 H 2.46792 1.81493 1.73523 0
M  V30 33 H -2.10875 -3.60063 -1.05055 0
M  V30 34 H -3.69273 -2.71861 -0.863128 0
M  V30 35 H -2.87198 -2.83816 -2.51335 0
M  V30 END ATOM
M  V30 BEGIN BOND
M  V30 1 1 1 2
M  V30 2 1 2 3
M  V30 3 1 3 4
M  V30 4 2 4 5
M  V30 5 1 5 6
M  V30 6 1 6 7
M  V30 7 2 7 8
M  V30 8 1 8 9
M  V30 9 2 9 10
M  V30 10 1 10 11
M  V30 11 2 11 12
M  V30 12 1 10 13
M  V30 13 1 13 14
M  V30 14 2 14 15
M  V30 15 2 14 16
M  V30 16 1 14 17
M  V30 17 1 6 18
M  V30 18 1 8 4
M  V30 19 1 12 7
M  V30 20 1 1 19
M  V30 21 1 1 20
M  V30 22 1 2 21
M  V30 23 1 2 22
M  V30 24 1 3 23
M  V30 25 1 3 24
M  V30 26 1 5 25
M  V30 27 1 9 26
M  V30 28 1 11 27
M  V30 29 1 12 28
M  V30 30 1 13 29
M  V30 31 1 13 30
M  V30 32 1 17 31
M  V30 33 1 17 32
M  V30 34 1 18 33
M  V30 35 1 18 34
M  V30 36 1 18 35
M  V30 END BOND
M  V30 END CTAB
M  END
