
     RDKit          3D

  0  0  0  0  0  0  0  0  0  0999 V3000
M  V30 BEGIN CTAB
M  V30 COUNTS 30 31 0 0 0
M  V30 BEGIN ATOM
M  V30 1 C -3.29051 1.47579 2.03088 0
M  V30 2 O -3.56168 0.646258 0.936153 0
M  V30 3 C -2.55587 0.064089 0.188522 0
M  V30 4 C -1.22017 0.251842 0.461156 0
M  V30 5 C -0.220293 -0.344717 -0.303777 0
M  V30 6 C -0.585491 -1.14988 -1.37018 0
M  V30 7 C -1.91509 -1.35882 -1.6704 0
M  V30 8 C -2.894 -0.754171 -0.893325 0
M  V30 9 N -4.25506 -0.946782 -1.16945 0
M  V30 10 C 1.20018 -0.153155 -0.0304712 0
M  V30 11 C 1.66807 0.0342801 1.24977 0
M  V30 12 C 3.00015 0.221028 1.53115 0
M  V30 13 C 3.90493 0.22 0.477355 0
M  V30 14 N 5.29107 0.406876 0.663153 0
M  V30 15 C 3.43145 0.0311667 -0.803462 0
M  V30 16 C 2.10285 -0.152879 -1.06458 0
M  V30 17 H -3.06933 0.869424 2.95256 0
M  V30 18 H -2.42609 2.12289 1.77473 0
M  V30 19 H -4.13308 2.17567 2.2528 0
M  V30 20 H -0.905217 0.870986 1.28155 0
M  V30 21 H 0.206146 -1.60713 -1.95782 0
M  V30 22 H -2.19027 -1.99134 -2.50503 0
M  V30 23 H -4.73716 -0.512083 -1.98204 0
M  V30 24 H -4.80718 -1.55432 -0.528729 0
M  V30 25 H 0.962704 0.0357928 2.09024 0
M  V30 26 H 3.40738 0.370198 2.50981 0
M  V30 27 H 5.61866 1.21122 1.23215 0
M  V30 28 H 6.00633 -0.222737 0.254192 0
M  V30 29 H 4.15503 0.034744 -1.63059 0
M  V30 30 H 1.81156 -0.294248 -2.11423 0
M  V30 END ATOM
M  V30 BEGIN BOND
M  V30 1 1 1 2
M  V30 2 1 2 3
M  V30 3 2 3 4
M  V30 4 1 4 5
M  V30 5 2 5 6
M  V30 6 1 6 7
M  V30 7 2 7 8
M  V30 8 1 8 9
M  V30 9 1 5 10
M  V30 10 2 10 11
M  V30 11 1 11 12
M  V30 12 2 12 13
M  V30 13 1 13 14
M  V30 14 1 13 15
M  V30 15 2 15 16
M  V30 16 1 8 3
M  V30 17 1 16 10
M  V30 18 1 1 17
M  V30 19 1 1 18
M  V30 20 1 1 19
M  V30 21 1 4 20
M  V30 22 1 6 21
M  V30 23 1 7 22
M  V30 24 1 9 23
M  V30 25 1 9 24
M  V30 26 1 11 25
M  V30 27 1 12 26
M  V30 28 1 14 27
M  V30 29 1 14 28
M  V30 30 1 15 29
M  V30 31 1 16 30
M  V30 END BOND
M  V30 END CTAB
M  END
