
     RDKit          3D

  0  0  0  0  0  0  0  0  0  0999 V3000
M  V30 BEGIN CTAB
M  V30 COUNTS 44 43 0 0 0
M  V30 BEGIN ATOM
M  V30 1 N -5.98337 0.647175 -1.6942 0
M  V30 2 C -5.6541 0.344476 -0.341372 0
M  V30 3 C -4.58673 -0.693495 -0.238534 0
M  V30 4 C -3.27583 -0.314289 -0.872913 0
M  V30 5 C -2.68394 0.930697 -0.242118 0
M  V30 6 C -2.42879 0.72081 1.23859 0
M  V30 7 C -1.46766 -0.391809 1.51214 0
M  V30 8 N -0.160196 -0.221373 0.97953 0
M  V30 9 C 0.662374 -1.35985 1.21958 0
M  V30 10 C 2.08352 -1.21218 0.784426 0
M  V30 11 C 2.8012 -0.105111 1.49936 0
M  V30 12 C 4.22952 0.0618986 1.10206 0
M  V30 13 C 4.35162 0.387777 -0.368294 0
M  V30 14 C 5.8163 0.553967 -0.75003 0
M  V30 15 N 5.93039 0.869278 -2.15079 0
M  V30 16 H -5.20446 0.849107 -2.33684 0
M  V30 17 H -6.76585 0.0768411 -2.08574 0
M  V30 18 H -5.38854 1.28293 0.192663 0
M  V30 19 H -6.56431 -0.0527035 0.157699 0
M  V30 20 H -4.95156 -1.60842 -0.790436 0
M  V30 21 H -4.424 -1.0192 0.817448 0
M  V30 22 H -2.5982 -1.18752 -0.790081 0
M  V30 23 H -3.4532 -0.096493 -1.93447 0
M  V30 24 H -1.72139 1.12542 -0.755571 0
M  V30 25 H -3.36533 1.76475 -0.401392 0
M  V30 26 H -3.40452 0.503403 1.7111 0
M  V30 27 H -2.07987 1.69789 1.67212 0
M  V30 28 H -1.37645 -0.525492 2.6109 0
M  V30 29 H -1.88934 -1.34603 1.11517 0
M  V30 30 H 0.268431 0.700686 1.05205 0
M  V30 31 H 0.635089 -1.56794 2.31225 0
M  V30 32 H 0.22134 -2.22542 0.652762 0
M  V30 33 H 2.12191 -1.06726 -0.318637 0
M  V30 34 H 2.61422 -2.16441 1.0032 0
M  V30 35 H 2.75688 -0.341005 2.58766 0
M  V30 36 H 2.27325 0.840177 1.30871 0
M  V30 37 H 4.7606 -0.923994 1.25829 0
M  V30 38 H 4.7643 0.823357 1.70599 0
M  V30 39 H 3.86511 1.37088 -0.588426 0
M  V30 40 H 3.95034 -0.447103 -0.951115 0
M  V30 41 H 6.39269 -0.388648 -0.581803 0
M  V30 42 H 6.30042 1.34622 -0.163533 0
M  V30 43 H 5.81804 1.87595 -2.37734 0
M  V30 44 H 6.81009 0.486055 -2.53922 0
M  V30 END ATOM
M  V30 BEGIN BOND
M  V30 1 1 1 2
M  V30 2 1 2 3
M  V30 3 1 3 4
M  V30 4 1 4 5
M  V30 5 1 5 6
M  V30 6 1 6 7
M  V30 7 1 7 8
M  V30 8 1 8 9
M  V30 9 1 9 10
M  V30 10 1 10 11
M  V30 11 1 11 12
M  V30 12 1 12 13
M  V30 13 1 13 14
M  V30 14 1 14 15
M  V30 15 1 1 16
M  V30 16 1 1 17
M  V30 17 1 2 18
M  V30 18 1 2 19
M  V30 19 1 3 20
M  V30 20 1 3 21
M  V30 21 1 4 22
M  V30 22 1 4 23
M  V30 23 1 5 24
M  V30 24 1 5 25
M  V30 25 1 6 26
M  V30 26 1 6 27
M  V30 27 1 7 28
M  V30 28 1 7 29
M  V30 29 1 8 30
M  V30 30 1 9 31
M  V30 31 1 9 32
M  V30 32 1 10 33
M  V30 33 1 10 34
M  V30 34 1 11 35
M  V30 35 1 11 36
M  V30 36 1 12 37
M  V30 37 1 12 38
M  V30 38 1 13 39
M  V30 39 1 13 40
M  V30 40 1 14 41
M  V30 41 1 14 42
M  V30 42 1 15 43
M  V30 43 1 15 44
M  V30 END BOND
M  V30 END CTAB
M  END
