
     RDKit          3D

  0  0  0  0  0  0  0  0  0  0999 V3000
M  V30 BEGIN CTAB
M  V30 COUNTS 23 24 0 0 0
M  V30 BEGIN ATOM
M  V30 1 N -3.71268 -0.799098 0.441052 0
M  V30 2 C -2.97778 0.124183 -0.402302 0
M  V30 3 C -1.52959 -0.0582506 -0.131883 0
M  V30 4 C -1.05871 -0.972294 0.781095 0
M  V30 5 N 0.266471 -1.0644 0.956334 0
M  V30 6 C 1.17609 -0.333665 0.310239 0
M  V30 7 N 0.709686 0.565385 -0.587978 0
M  V30 8 C -0.608796 0.708804 -0.812313 0
M  V30 9 N -1.08312 1.6562 -1.75767 0
M  V30 10 C 2.60548 -0.486308 0.550724 0
M  V30 11 N 3.1786 -1.34177 1.41385 0
M  V30 12 N 4.51354 -1.20591 1.36969 0
M  V30 13 C 4.77206 -0.260573 0.474006 0
M  V30 14 N 3.61732 0.181078 -0.0275675 0
M  V30 15 H -3.53862 -0.574203 1.44639 0
M  V30 16 H -4.72871 -0.757025 0.203 0
M  V30 17 H -3.25508 1.15513 -0.0360669 0
M  V30 18 H -3.23465 -0.018139 -1.45535 0
M  V30 19 H -1.77086 -1.58561 1.32672 0
M  V30 20 H -1.79013 2.34988 -1.4304 0
M  V30 21 H -0.782176 1.7126 -2.74696 0
M  V30 22 H 5.75321 0.0840145 0.205321 0
M  V30 23 H 3.47843 0.919963 -0.749869 0
M  V30 END ATOM
M  V30 BEGIN BOND
M  V30 1 1 1 2
M  V30 2 1 2 3
M  V30 3 2 3 4
M  V30 4 1 4 5
M  V30 5 2 5 6
M  V30 6 1 6 7
M  V30 7 2 7 8
M  V30 8 1 8 9
M  V30 9 1 6 10
M  V30 10 2 10 11
M  V30 11 1 11 12
M  V30 12 2 12 13
M  V30 13 1 13 14
M  V30 14 1 8 3
M  V30 15 1 14 10
M  V30 16 1 1 15
M  V30 17 1 1 16
M  V30 18 1 2 17
M  V30 19 1 2 18
M  V30 20 1 4 19
M  V30 21 1 9 20
M  V30 22 1 9 21
M  V30 23 1 13 22
M  V30 24 1 14 23
M  V30 END BOND
M  V30 END CTAB
M  END
