
     RDKit          3D

  0  0  0  0  0  0  0  0  0  0999 V3000
M  V30 BEGIN CTAB
M  V30 COUNTS 26 28 0 0 0
M  V30 BEGIN ATOM
M  V30 1 N -3.80261 -1.12122 -1.44904 0
M  V30 2 C -2.64426 -0.620393 -0.796887 0
M  V30 3 C -1.39065 -0.944665 -1.2677 0
M  V30 4 C -0.266463 -0.446804 -0.618748 0
M  V30 5 N 0.977663 -0.731644 -1.03574 0
M  V30 6 C 2.06012 -0.231463 -0.382604 0
M  V30 7 C 3.33158 -0.535795 -0.826731 0
M  V30 8 C 4.44654 -0.0392491 -0.179307 0
M  V30 9 C 4.3112 0.766445 0.918266 0
M  V30 10 C 3.04641 1.0789 1.37326 0
M  V30 11 C 1.9314 0.581368 0.724499 0
M  V30 12 N 0.688916 0.870266 1.14697 0
M  V30 13 C -0.394184 0.364519 0.486288 0
M  V30 14 C -1.66097 0.684786 0.951978 0
M  V30 15 C -2.78319 0.197286 0.317058 0
M  V30 16 N -4.09998 0.49111 0.748065 0
M  V30 17 H -4.73247 -1.13706 -0.980925 0
M  V30 18 H -3.72584 -1.48454 -2.42391 0
M  V30 19 H -1.26421 -1.59088 -2.14846 0
M  V30 20 H 3.41231 -1.17884 -1.70206 0
M  V30 21 H 5.44548 -0.30256 -0.561119 0
M  V30 22 H 5.21478 1.12663 1.38561 0
M  V30 23 H 2.94766 1.72344 2.25106 0
M  V30 24 H -1.82021 1.31734 1.81497 0
M  V30 25 H -4.66747 -0.252592 1.22729 0
M  V30 26 H -4.56154 1.41561 0.622124 0
M  V30 END ATOM
M  V30 BEGIN BOND
M  V30 1 1 1 2
M  V30 2 2 2 3
M  V30 3 1 3 4
M  V30 4 2 4 5
M  V30 5 1 5 6
M  V30 6 2 6 7
M  V30 7 1 7 8
M  V30 8 2 8 9
M  V30 9 1 9 10
M  V30 10 2 10 11
M  V30 11 1 11 12
M  V30 12 2 12 13
M  V30 13 1 13 14
M  V30 14 2 14 15
M  V30 15 1 15 16
M  V30 16 1 15 2
M  V30 17 1 13 4
M  V30 18 1 11 6
M  V30 19 1 1 17
M  V30 20 1 1 18
M  V30 21 1 3 19
M  V30 22 1 7 20
M  V30 23 1 8 21
M  V30 24 1 9 22
M  V30 25 1 10 23
M  V30 26 1 14 24
M  V30 27 1 16 25
M  V30 28 1 16 26
M  V30 END BOND
M  V30 END CTAB
M  END
