
     RDKit          3D

  0  0  0  0  0  0  0  0  0  0999 V3000
M  V30 BEGIN CTAB
M  V30 COUNTS 36 37 0 0 0
M  V30 BEGIN ATOM
M  V30 1 N -4.97061 1.73511 1.60383 0
M  V30 2 C -4.21379 1.36996 0.471665 0
M  V30 3 N -4.40294 1.97499 -0.632262 0
M  V30 4 C -3.21978 0.316363 0.534194 0
M  V30 5 C -2.48302 -0.0360895 -0.576118 0
M  V30 6 C -1.53373 -1.0329 -0.541595 0
M  V30 7 C -1.26747 -1.7435 0.631764 0
M  V30 8 C -0.244095 -2.81952 0.673442 0
M  V30 9 O 0.699236 -2.60912 -0.313688 0
M  V30 10 C 1.56042 -1.57234 -0.501762 0
M  V30 11 C 2.41662 -1.57221 -1.57648 0
M  V30 12 Br 2.42307 -3.00606 -2.823 0
M  V30 13 C 3.31273 -0.526525 -1.79827 0
M  V30 14 C 3.34778 0.532067 -0.927964 0
M  V30 15 C 2.4897 0.548094 0.163351 0
M  V30 16 C 1.599 -0.513185 0.365154 0
M  V30 17 C 4.24036 1.64677 -1.08603 0
M  V30 18 N 4.25185 2.74073 -0.155689 0
M  V30 19 N 5.06355 1.71133 -2.06392 0
M  V30 20 C -2.00926 -1.38439 1.73819 0
M  V30 21 C -2.95968 -0.387396 1.70632 0
M  V30 22 H -5.22806 1.04301 2.36353 0
M  V30 23 H -5.32807 2.71034 1.77024 0
M  V30 24 H -5.112 2.7315 -0.690176 0
M  V30 25 H -2.67036 0.499432 -1.49764 0
M  V30 26 H -0.94836 -1.32091 -1.40236 0
M  V30 27 H -0.794244 -3.78293 0.564596 0
M  V30 28 H 0.204292 -2.88076 1.70875 0
M  V30 29 H 3.98217 -0.525459 -2.6377 0
M  V30 30 H 2.46203 1.34641 0.887578 0
M  V30 31 H 0.957817 -0.440513 1.24582 0
M  V30 32 H 3.82677 3.6431 -0.393984 0
M  V30 33 H 4.70633 2.58595 0.76829 0
M  V30 34 H 5.20677 1.04524 -2.81902 0
M  V30 35 H -1.81932 -1.92527 2.66693 0
M  V30 36 H -3.5457 -0.101331 2.57401 0
M  V30 END ATOM
M  V30 BEGIN BOND
M  V30 1 1 1 2
M  V30 2 2 2 3 CFG=2
M  V30 3 1 2 4
M  V30 4 2 4 5
M  V30 5 1 5 6
M  V30 6 2 6 7
M  V30 7 1 7 8
M  V30 8 1 8 9
M  V30 9 1 9 10
M  V30 10 2 10 11
M  V30 11 1 11 12
M  V30 12 1 11 13
M  V30 13 2 13 14
M  V30 14 1 14 15
M  V30 15 2 15 16
M  V30 16 1 14 17
M  V30 17 1 17 18
M  V30 18 2 17 19 CFG=2
M  V30 19 1 7 20
M  V30 20 2 20 21
M  V30 21 1 21 4
M  V30 22 1 16 10
M  V30 23 1 1 22
M  V30 24 1 1 23
M  V30 25 1 3 24
M  V30 26 1 5 25
M  V30 27 1 6 26
M  V30 28 1 8 27
M  V30 29 1 8 28
M  V30 30 1 13 29
M  V30 31 1 15 30
M  V30 32 1 16 31
M  V30 33 1 18 32
M  V30 34 1 18 33
M  V30 35 1 19 34
M  V30 36 1 20 35
M  V30 37 1 21 36
M  V30 END BOND
M  V30 END CTAB
M  END
