
     RDKit          3D

  0  0  0  0  0  0  0  0  0  0999 V3000
M  V30 BEGIN CTAB
M  V30 COUNTS 24 24 0 0 0
M  V30 BEGIN ATOM
M  V30 1 N -2.14684 -1.39535 0.0707044 0
M  V30 2 C -1.14276 -0.622078 -0.603463 0
M  V30 3 N -1.53211 0.5398 -1.00541 0
M  V30 4 C -2.82739 1.04893 -0.819495 0
M  V30 5 N -3.13745 2.16351 -1.38926 0
M  V30 6 N -3.8306 0.416204 -0.0399908 0
M  V30 7 N 0.174121 -1.12148 -0.800762 0
M  V30 8 C 1.32869 -0.514083 -0.270581 0
M  V30 9 C 1.25754 0.632153 0.49301 0
M  V30 10 C 2.39577 1.2356 1.01881 0
M  V30 11 C 3.63835 0.676377 0.773464 0
M  V30 12 C 3.72988 -0.469631 0.0121736 0
M  V30 13 C 2.57188 -1.05867 -0.506019 0
M  V30 14 Cl 2.79667 -2.50972 -1.45851 0
M  V30 15 Cl 5.31969 -1.13917 -0.270822 0
M  V30 16 H -2.19392 -1.38624 1.09256 0
M  V30 17 H -2.82338 -1.96228 -0.477414 0
M  V30 18 H -2.46787 2.69038 -1.97425 0
M  V30 19 H -4.62603 -0.0199113 -0.584644 0
M  V30 20 H -3.84909 0.347915 0.978768 0
M  V30 21 H 0.242327 -1.99408 -1.3806 0
M  V30 22 H 0.323959 1.12387 0.725493 0
M  V30 23 H 2.31326 2.13276 1.61365 0
M  V30 24 H 4.4853 1.1852 1.20494 0
M  V30 END ATOM
M  V30 BEGIN BOND
M  V30 1 1 1 2
M  V30 2 2 2 3
M  V30 3 1 3 4
M  V30 4 2 4 5
M  V30 5 1 4 6
M  V30 6 1 2 7
M  V30 7 1 7 8
M  V30 8 2 8 9
M  V30 9 1 9 10
M  V30 10 2 10 11
M  V30 11 1 11 12
M  V30 12 2 12 13
M  V30 13 1 13 14
M  V30 14 1 12 15
M  V30 15 1 13 8
M  V30 16 1 1 16
M  V30 17 1 1 17
M  V30 18 1 5 18
M  V30 19 1 6 19
M  V30 20 1 6 20
M  V30 21 1 7 21
M  V30 22 1 9 22
M  V30 23 1 10 23
M  V30 24 1 11 24
M  V30 END BOND
M  V30 END CTAB
M  END
