
     RDKit          3D

  0  0  0  0  0  0  0  0  0  0999 V3000
M  V30 BEGIN CTAB
M  V30 COUNTS 42 44 0 0 0
M  V30 BEGIN ATOM
M  V30 1 N 7.85708 -0.573853 0.5814 0
M  V30 2 C 7.37293 0.361652 -0.409936 0
M  V30 3 C 5.89295 0.2891 -0.48317 0
M  V30 4 C 5.22194 1.10957 -1.37675 0
M  V30 5 C 3.85451 1.08184 -1.48358 0
M  V30 6 C 3.12531 0.209629 -0.675859 0
M  V30 7 N 1.73454 0.19384 -0.83418 0
M  V30 8 C 0.837211 -0.230855 0.154881 0
M  V30 9 O 1.12664 -0.642042 1.30846 0
M  V30 10 C -0.604201 -0.205994 -0.152802 0
M  V30 11 C -1.03422 -0.236884 -1.44774 0
M  V30 12 C -2.4152 -0.200109 -1.66606 0
M  V30 13 C -3.31636 -0.135688 -0.629573 0
M  V30 14 C -4.69198 -0.0990935 -0.846353 0
M  V30 15 C -5.61576 -0.0349682 0.162211 0
M  V30 16 C -5.14604 -0.00535562 1.465 0
M  V30 17 C -3.78979 -0.0398796 1.724 0
M  V30 18 C -2.88457 -0.104793 0.675036 0
M  V30 19 C -1.52692 -0.140466 0.899689 0
M  V30 20 C -7.05083 0.00424083 -0.0333164 0
M  V30 21 N -7.97016 0.0705876 1.04342 0
M  V30 22 N -7.5427 -0.0203541 -1.20925 0
M  V30 23 C 3.74487 -0.619481 0.220377 0
M  V30 24 C 5.14608 -0.557931 0.29694 0
M  V30 25 H 7.42246 -0.335813 1.50079 0
M  V30 26 H 7.54789 -1.53016 0.335091 0
M  V30 27 H 7.86178 0.110726 -1.37594 0
M  V30 28 H 7.67526 1.3766 -0.0564955 0
M  V30 29 H 5.75229 1.8054 -2.02623 0
M  V30 30 H 3.31459 1.71139 -2.17014 0
M  V30 31 H 1.36671 0.526329 -1.76276 0
M  V30 32 H -0.352272 -0.292759 -2.27627 0
M  V30 33 H -2.75467 -0.22377 -2.67364 0
M  V30 34 H -4.99388 -0.124369 -1.86598 0
M  V30 35 H -5.86883 0.0448495 2.25508 0
M  V30 36 H -3.43946 -0.0158577 2.75191 0
M  V30 37 H -1.17242 -0.116624 1.92615 0
M  V30 38 H -8.72205 0.773338 1.03135 0
M  V30 39 H -7.89539 -0.581855 1.84655 0
M  V30 40 H -6.96655 -0.0672672 -2.03967 0
M  V30 41 H 3.25261 -1.32762 0.864401 0
M  V30 42 H 5.6466 -1.20525 0.9991 0
M  V30 END ATOM
M  V30 BEGIN BOND
M  V30 1 1 1 2
M  V30 2 1 2 3
M  V30 3 2 3 4
M  V30 4 1 4 5
M  V30 5 2 5 6
M  V30 6 1 6 7
M  V30 7 1 7 8
M  V30 8 2 8 9
M  V30 9 1 8 10
M  V30 10 2 10 11
M  V30 11 1 11 12
M  V30 12 2 12 13
M  V30 13 1 13 14
M  V30 14 2 14 15
M  V30 15 1 15 16
M  V30 16 2 16 17
M  V30 17 1 17 18
M  V30 18 2 18 19
M  V30 19 1 15 20
M  V30 20 1 20 21
M  V30 21 2 20 22 CFG=2
M  V30 22 1 6 23
M  V30 23 2 23 24
M  V30 24 1 24 3
M  V30 25 1 19 10
M  V30 26 1 18 13
M  V30 27 1 1 25
M  V30 28 1 1 26
M  V30 29 1 2 27
M  V30 30 1 2 28
M  V30 31 1 4 29
M  V30 32 1 5 30
M  V30 33 1 7 31
M  V30 34 1 11 32
M  V30 35 1 12 33
M  V30 36 1 14 34
M  V30 37 1 16 35
M  V30 38 1 17 36
M  V30 39 1 19 37
M  V30 40 1 21 38
M  V30 41 1 21 39
M  V30 42 1 22 40
M  V30 43 1 23 41
M  V30 44 1 24 42
M  V30 END BOND
M  V30 END CTAB
M  END
