
     RDKit          3D

  0  0  0  0  0  0  0  0  0  0999 V3000
M  V30 BEGIN CTAB
M  V30 COUNTS 54 57 0 0 0
M  V30 BEGIN ATOM
M  V30 1 N -7.64258 1.03798 -1.41178 0
M  V30 2 C -6.61575 0.132041 -1.45193 0 CFG=2
M  V30 3 C -6.24977 -0.557011 -0.132968 0
M  V30 4 C -4.82963 -0.527281 -0.615553 0 CFG=1
M  V30 5 C -5.2008 0.729548 -1.41599 0
M  V30 6 C -3.79101 -0.364171 0.40242 0
M  V30 7 C -2.51212 -0.113253 -0.0638541 0
M  V30 8 C -1.44015 0.014899 0.785835 0
M  V30 9 N -1.67089 -0.104358 2.11109 0
M  V30 10 C -2.8989 -0.349057 2.57733 0
M  V30 11 N -3.95338 -0.481318 1.7131 0
M  V30 12 N -3.03785 -0.465039 3.97836 0
M  V30 13 N -0.130196 0.214808 0.307052 0
M  V30 14 C 0.826621 0.939481 1.16573 0
M  V30 15 C 1.79438 -0.168137 1.56955 0
M  V30 16 N 2.51682 -0.50745 0.333356 0
M  V30 17 C 1.68483 -1.11198 -0.60662 0
M  V30 18 C 0.419772 -0.300088 -0.91873 0
M  V30 19 C 3.31467 0.592188 -0.0605406 0
M  V30 20 C 4.558 0.164718 -0.737605 0
M  V30 21 C 4.67968 -0.156155 -2.04482 0
M  V30 22 C 5.93072 -0.430958 -2.60817 0
M  V30 23 C 7.05311 -0.384147 -1.81689 0
M  V30 24 C 6.90394 -0.0594011 -0.479752 0
M  V30 25 C 5.70956 0.212994 0.0569019 0
M  V30 26 C 5.59052 0.524383 1.49333 0
M  V30 27 H -8.1158 1.29142 -0.609068 0
M  V30 28 H -7.90739 1.44004 -2.26066 0
M  V30 29 H -6.64184 -0.640244 -2.25504 0
M  V30 30 H -6.69416 -1.54401 0.00535531 0
M  V30 31 H -6.38843 0.159085 0.709911 0
M  V30 32 H -4.5386 -1.29834 -1.37603 0
M  V30 33 H -5.12875 1.64718 -0.808418 0
M  V30 34 H -4.72671 0.776229 -2.42467 0
M  V30 35 H -2.28287 -0.00445488 -1.12103 0
M  V30 36 H -3.87993 -0.0670785 4.41096 0
M  V30 37 H -2.3201 -0.896196 4.56294 0
M  V30 38 H 1.31328 1.75504 0.64508 0
M  V30 39 H 0.360784 1.3015 2.08029 0
M  V30 40 H 2.48178 0.169478 2.3696 0
M  V30 41 H 1.22913 -1.04907 1.87261 0
M  V30 42 H 2.16365 -1.34611 -1.55849 0
M  V30 43 H 1.29765 -2.11101 -0.23095 0
M  V30 44 H 0.615959 0.437064 -1.70042 0
M  V30 45 H -0.308386 -1.04866 -1.34915 0
M  V30 46 H 3.47929 1.41796 0.601399 0
M  V30 47 H 2.65841 1.10297 -0.929477 0
M  V30 48 H 3.83613 -0.189622 -2.70242 0
M  V30 49 H 5.97639 -0.657181 -3.66571 0
M  V30 50 H 8.02289 -0.590504 -2.21684 0
M  V30 51 H 7.82093 -0.0850224 0.139572 0
M  V30 52 H 4.97907 1.38593 1.75132 0
M  V30 53 H 6.59664 0.680037 1.93228 0
M  V30 54 H 5.09145 -0.367213 1.99818 0
M  V30 END ATOM
M  V30 BEGIN BOND
M  V30 1 1 1 2
M  V30 2 1 2 3
M  V30 3 1 3 4
M  V30 4 1 4 5
M  V30 5 1 4 6
M  V30 6 2 6 7
M  V30 7 1 7 8
M  V30 8 2 8 9
M  V30 9 1 9 10
M  V30 10 2 10 11
M  V30 11 1 10 12
M  V30 12 1 8 13
M  V30 13 1 13 14
M  V30 14 1 14 15
M  V30 15 1 15 16
M  V30 16 1 16 17
M  V30 17 1 17 18
M  V30 18 1 16 19
M  V30 19 1 19 20
M  V30 20 2 20 21
M  V30 21 1 21 22
M  V30 22 2 22 23
M  V30 23 1 23 24
M  V30 24 2 24 25
M  V30 25 1 25 26
M  V30 26 1 5 2
M  V30 27 1 11 6
M  V30 28 1 18 13
M  V30 29 1 25 20
M  V30 30 1 1 27
M  V30 31 1 1 28
M  V30 32 1 2 29 CFG=3
M  V30 33 1 3 30
M  V30 34 1 3 31
M  V30 35 1 4 32 CFG=3
M  V30 36 1 5 33
M  V30 37 1 5 34
M  V30 38 1 7 35
M  V30 39 1 12 36
M  V30 40 1 12 37
M  V30 41 1 14 38
M  V30 42 1 14 39
M  V30 43 1 15 40
M  V30 44 1 15 41
M  V30 45 1 17 42
M  V30 46 1 17 43
M  V30 47 1 18 44
M  V30 48 1 18 45
M  V30 49 1 19 46
M  V30 50 1 19 47
M  V30 51 1 21 48
M  V30 52 1 22 49
M  V30 53 1 23 50
M  V30 54 1 24 51
M  V30 55 1 26 52
M  V30 56 1 26 53
M  V30 57 1 26 54
M  V30 END BOND
M  V30 END CTAB
M  END
