
     RDKit          3D

  0  0  0  0  0  0  0  0  0  0999 V3000
M  V30 BEGIN CTAB
M  V30 COUNTS 32 34 0 0 0
M  V30 BEGIN ATOM
M  V30 1 N 4.12774 1.14874 0.905119 0
M  V30 2 C 4.6097 0.164182 0.0244309 0
M  V30 3 N 5.74933 0.402913 -0.770323 0
M  V30 4 N 4.01901 -0.963233 -0.0671693 0
M  V30 5 C 2.87563 -1.3555 0.653549 0
M  V30 6 O 3.03953 -2.11294 1.64326 0
M  V30 7 C 1.52494 -0.896249 0.265514 0
M  V30 8 C 0.409308 -1.27886 0.968447 0
M  V30 9 C -0.870123 -0.838036 0.593057 0
M  V30 10 C -1.0515 -0.0127224 -0.484805 0
M  V30 11 C 0.0860596 0.366332 -1.18667 0
M  V30 12 C 1.3412 -0.0667331 -0.817593 0
M  V30 13 C -2.46058 0.319115 -0.691917 0
M  V30 14 C -3.13359 1.09585 -1.62129 0
M  V30 15 C -4.49844 1.24497 -1.59051 0
M  V30 16 C -5.15796 0.577092 -0.581728 0
M  V30 17 C -4.51955 -0.197401 0.350503 0
M  V30 18 C -3.13913 -0.338198 0.305896 0
M  V30 19 C -2.19388 -1.10762 1.17937 0
M  V30 20 H 4.3702 2.15072 0.759149 0
M  V30 21 H 3.52207 0.92162 1.72129 0
M  V30 22 H 5.73499 0.315256 -1.78935 0
M  V30 23 H 6.63541 0.681771 -0.254801 0
M  V30 24 H 0.538142 -1.92663 1.81675 0
M  V30 25 H -0.0734167 1.02378 -2.04278 0
M  V30 26 H 2.1993 0.253092 -1.39256 0
M  V30 27 H -2.57387 1.59523 -2.38683 0
M  V30 28 H -5.08093 1.83255 -2.28114 0
M  V30 29 H -6.23764 0.685718 -0.544834 0
M  V30 30 H -5.06243 -0.724359 1.15024 0
M  V30 31 H -2.26398 -0.771192 2.23764 0
M  V30 32 H -2.46553 -2.18925 1.0838 0
M  V30 END ATOM
M  V30 BEGIN BOND
M  V30 1 1 1 2
M  V30 2 1 2 3
M  V30 3 2 2 4
M  V30 4 1 4 5
M  V30 5 2 5 6
M  V30 6 1 5 7
M  V30 7 2 7 8
M  V30 8 1 8 9
M  V30 9 2 9 10
M  V30 10 1 10 11
M  V30 11 2 11 12
M  V30 12 1 10 13
M  V30 13 2 13 14
M  V30 14 1 14 15
M  V30 15 2 15 16
M  V30 16 1 16 17
M  V30 17 2 17 18
M  V30 18 1 18 19
M  V30 19 1 12 7
M  V30 20 1 18 13
M  V30 21 1 19 9
M  V30 22 1 1 20
M  V30 23 1 1 21
M  V30 24 1 3 22
M  V30 25 1 3 23
M  V30 26 1 8 24
M  V30 27 1 11 25
M  V30 28 1 12 26
M  V30 29 1 14 27
M  V30 30 1 15 28
M  V30 31 1 16 29
M  V30 32 1 17 30
M  V30 33 1 19 31
M  V30 34 1 19 32
M  V30 END BOND
M  V30 END CTAB
M  END
