
     RDKit          3D

  0  0  0  0  0  0  0  0  0  0999 V3000
M  V30 BEGIN CTAB
M  V30 COUNTS 37 37 0 0 0
M  V30 BEGIN ATOM
M  V30 1 C -2.18992 2.63964 -0.582573 0
M  V30 2 C -1.23941 2.04902 -1.55804 0
M  V30 3 C -0.483902 0.845894 -1.10785 0
M  V30 4 S -1.46646 -0.534388 -0.671227 0
M  V30 5 O -2.29387 -0.87856 -1.9072 0
M  V30 6 O -0.5884 -1.73135 -0.452813 0
M  V30 7 C -2.51074 -0.295639 0.720191 0
M  V30 8 C -3.28516 -1.59277 0.963665 0
M  V30 9 C 0.54393 1.23468 -0.0769305 0
M  V30 10 C 1.33968 0.0902484 0.414493 0
M  V30 11 C 1.16422 -0.364684 1.70226 0
M  V30 12 C 1.88668 -1.42913 2.21164 0
M  V30 13 C 2.82607 -2.08589 1.43509 0
M  V30 14 C 3.00736 -1.63736 0.147056 0
M  V30 15 C 2.28311 -0.576422 -0.35149 0
M  V30 16 N 3.96469 -2.2978 -0.661949 0
M  V30 17 N 1.49381 2.11542 -0.775035 0
M  V30 18 H -1.94121 2.42477 0.47134 0
M  V30 19 H -2.1466 3.77099 -0.639857 0
M  V30 20 H -3.2258 2.40158 -0.87633 0
M  V30 21 H -1.78135 1.86484 -2.52154 0
M  V30 22 H -0.467006 2.83034 -1.81037 0
M  V30 23 H 0.119374 0.518693 -2.00931 0
M  V30 24 H -3.30582 0.469648 0.519499 0
M  V30 25 H -1.95717 -0.0313072 1.6158 0
M  V30 26 H -3.73066 -1.91069 -0.0139747 0
M  V30 27 H -4.14346 -1.39653 1.64159 0
M  V30 28 H -2.67045 -2.36593 1.43151 0
M  V30 29 H 0.125909 1.84536 0.734331 0
M  V30 30 H 0.426089 0.133457 2.34786 0
M  V30 31 H 1.70724 -1.74204 3.22724 0
M  V30 32 H 3.38609 -2.91727 1.84238 0
M  V30 33 H 2.43801 -0.240952 -1.3576 0
M  V30 34 H 3.70042 -2.6478 -1.59782 0
M  V30 35 H 4.95104 -2.452 -0.349483 0
M  V30 36 H 2.44035 2.07803 -0.334542 0
M  V30 37 H 1.62332 1.81589 -1.76999 0
M  V30 END ATOM
M  V30 BEGIN BOND
M  V30 1 1 1 2
M  V30 2 1 2 3
M  V30 3 1 3 4
M  V30 4 2 4 5
M  V30 5 2 4 6
M  V30 6 1 4 7
M  V30 7 1 7 8
M  V30 8 1 3 9
M  V30 9 1 9 10
M  V30 10 2 10 11
M  V30 11 1 11 12
M  V30 12 2 12 13
M  V30 13 1 13 14
M  V30 14 2 14 15
M  V30 15 1 14 16
M  V30 16 1 9 17
M  V30 17 1 15 10
M  V30 18 1 1 18
M  V30 19 1 1 19
M  V30 20 1 1 20
M  V30 21 1 2 21
M  V30 22 1 2 22
M  V30 23 1 3 23
M  V30 24 1 7 24
M  V30 25 1 7 25
M  V30 26 1 8 26
M  V30 27 1 8 27
M  V30 28 1 8 28
M  V30 29 1 9 29
M  V30 30 1 11 30
M  V30 31 1 12 31
M  V30 32 1 13 32
M  V30 33 1 15 33
M  V30 34 1 16 34
M  V30 35 1 16 35
M  V30 36 1 17 36
M  V30 37 1 17 37
M  V30 END BOND
M  V30 END CTAB
M  END
