
     RDKit          3D

  0  0  0  0  0  0  0  0  0  0999 V3000
M  V30 BEGIN CTAB
M  V30 COUNTS 44 46 0 0 0
M  V30 BEGIN ATOM
M  V30 1 O -2.98247 -1.00752 2.21527 0
M  V30 2 C -2.63065 -1.36404 1.0671 0
M  V30 3 N -1.43945 -0.875905 0.506546 0
M  V30 4 C -0.656043 0.0635179 1.31444 0
M  V30 5 C 0.676822 -0.620707 1.55296 0
M  V30 6 N 1.28375 -0.953669 0.275606 0
M  V30 7 C 0.525855 -1.08276 -0.936104 0
M  V30 8 C -0.941455 -1.22242 -0.786337 0
M  V30 9 C 2.68367 -1.15147 0.217343 0
M  V30 10 O 3.30195 -1.45189 -0.841075 0
M  V30 11 C 3.4773 -1.00278 1.44665 0
M  V30 12 S 5.24438 -1.24498 1.23339 0
M  V30 13 C 5.97959 0.0186344 0.192974 0
M  V30 14 N 6.16826 -0.063031 -1.13788 0
M  V30 15 N 6.74834 1.06173 -1.56018 0
M  V30 16 C 6.9487 1.89682 -0.509274 0
M  V30 17 N 6.46086 1.21598 0.552521 0
M  V30 18 N 7.52926 3.18252 -0.546893 0
M  V30 19 C -3.50977 -2.31883 0.307881 0
M  V30 20 S -4.3734 -1.42065 -1.0151 0
M  V30 21 C -5.446 -0.200666 -0.22647 0
M  V30 22 N -5.63811 0.0126358 1.09001 0
M  V30 23 N -6.50468 1.0253 1.23938 0
M  V30 24 C -6.8827 1.47384 0.0108772 0
M  V30 25 N -6.21861 0.70631 -0.861712 0
M  V30 26 N -7.78189 2.54739 -0.292418 0
M  V30 27 H -1.13428 0.335667 2.25158 0
M  V30 28 H -0.444994 0.920474 0.625298 0
M  V30 29 H 0.468449 -1.52306 2.17709 0
M  V30 30 H 1.31779 0.0499143 2.14585 0
M  V30 31 H 0.943435 -1.9496 -1.54132 0
M  V30 32 H 0.728256 -0.141408 -1.52818 0
M  V30 33 H -1.48395 -0.545257 -1.518 0
M  V30 34 H -1.21941 -2.27113 -1.01168 0
M  V30 35 H 3.12321 -1.76304 2.20499 0
M  V30 36 H 3.33201 0.0298002 1.84874 0
M  V30 37 H 6.44075 1.55153 1.54767 0
M  V30 38 H 7.2025 3.91417 0.10869 0
M  V30 39 H 8.27857 3.40994 -1.22539 0
M  V30 40 H -2.89053 -3.10727 -0.172807 0
M  V30 41 H -4.21699 -2.80765 0.980073 0
M  V30 42 H -6.26426 0.768964 -1.90356 0
M  V30 43 H -8.47835 2.92538 0.366645 0
M  V30 44 H -7.7257 2.97919 -1.24743 0
M  V30 END ATOM
M  V30 BEGIN BOND
M  V30 1 2 1 2
M  V30 2 1 2 3
M  V30 3 1 3 4
M  V30 4 1 4 5
M  V30 5 1 5 6
M  V30 6 1 6 7
M  V30 7 1 7 8
M  V30 8 1 6 9
M  V30 9 2 9 10
M  V30 10 1 9 11
M  V30 11 1 11 12
M  V30 12 1 12 13
M  V30 13 2 13 14
M  V30 14 1 14 15
M  V30 15 2 15 16
M  V30 16 1 16 17
M  V30 17 1 16 18
M  V30 18 1 2 19
M  V30 19 1 19 20
M  V30 20 1 20 21
M  V30 21 2 21 22
M  V30 22 1 22 23
M  V30 23 2 23 24
M  V30 24 1 24 25
M  V30 25 1 24 26
M  V30 26 1 8 3
M  V30 27 1 17 13
M  V30 28 1 25 21
M  V30 29 1 4 27
M  V30 30 1 4 28
M  V30 31 1 5 29
M  V30 32 1 5 30
M  V30 33 1 7 31
M  V30 34 1 7 32
M  V30 35 1 8 33
M  V30 36 1 8 34
M  V30 37 1 11 35
M  V30 38 1 11 36
M  V30 39 1 17 37
M  V30 40 1 18 38
M  V30 41 1 18 39
M  V30 42 1 19 40
M  V30 43 1 19 41
M  V30 44 1 25 42
M  V30 45 1 26 43
M  V30 46 1 26 44
M  V30 END BOND
M  V30 END CTAB
M  END
