
     RDKit          3D

  0  0  0  0  0  0  0  0  0  0999 V3000
M  V30 BEGIN CTAB
M  V30 COUNTS 16 16 0 0 0
M  V30 BEGIN ATOM
M  V30 1 F 1.14845 2.27647 0.858218 0
M  V30 2 C 0.551269 1.13162 0.427099 0
M  V30 3 C 1.38592 0.157089 -0.0852493 0
M  V30 4 N 2.79696 0.375024 -0.143614 0
M  V30 5 C 0.806428 -1.01434 -0.529818 0
M  V30 6 C -0.562028 -1.18257 -0.454561 0
M  V30 7 C -1.40506 -0.209903 0.0578883 0
M  V30 8 C -0.818451 0.958176 0.50023 0
M  V30 9 F -1.6057 1.94031 1.01074 0
M  V30 10 N -2.81596 -0.430807 0.115008 0
M  V30 11 H 3.34879 0.322389 -1.0244 0
M  V30 12 H 3.35643 0.605193 0.727944 0
M  V30 13 H 1.45671 -1.78134 -0.932364 0
M  V30 14 H -1.02299 -2.11695 -0.809241 0
M  V30 15 H -3.44871 0.163884 -0.460721 0
M  V30 16 H -3.17205 -1.19425 0.742836 0
M  V30 END ATOM
M  V30 BEGIN BOND
M  V30 1 1 1 2
M  V30 2 2 2 3
M  V30 3 1 3 4
M  V30 4 1 3 5
M  V30 5 2 5 6
M  V30 6 1 6 7
M  V30 7 2 7 8
M  V30 8 1 8 9
M  V30 9 1 7 10
M  V30 10 1 8 2
M  V30 11 1 4 11
M  V30 12 1 4 12
M  V30 13 1 5 13
M  V30 14 1 6 14
M  V30 15 1 10 15
M  V30 16 1 10 16
M  V30 END BOND
M  V30 END CTAB
M  END
