
     RDKit          3D

  0  0  0  0  0  0  0  0  0  0999 V3000
M  V30 BEGIN CTAB
M  V30 COUNTS 28 30 0 0 0
M  V30 BEGIN ATOM
M  V30 1 O 0.300706 0.773087 -1.15914 0
M  V30 2 C 0.735992 0.599766 0.00911828 0
M  V30 3 C 2.10952 0.19963 0.27843 0
M  V30 4 C 2.60013 0.00636272 1.54689 0
M  V30 5 C 3.87966 -0.365692 1.7819 0
M  V30 6 C 4.76566 -0.570441 0.713614 0
M  V30 7 C 4.32351 -0.39094 -0.553399 0
M  V30 8 C 2.98321 -0.00279224 -0.762931 0
M  V30 9 N 5.21361 -0.600983 -1.52538 0
M  V30 10 S 6.61692 -1.0327 -0.71646 0
M  V30 11 N 6.03874 -0.936676 0.855835 0
M  V30 12 O -0.192632 0.818494 1.03297 0
M  V30 13 N -1.49133 1.1978 0.755929 0
M  V30 14 C -2.36179 0.458683 0.218702 0
M  V30 15 C -3.7099 1.02171 -0.00897651 0
M  V30 16 N -4.12401 2.25901 0.297761 0
M  V30 17 O -5.35075 2.39664 -0.0420432 0
M  V30 18 N -5.78249 1.29079 -0.570143 0
M  V30 19 C -4.79307 0.385793 -0.577073 0
M  V30 20 N -4.8501 -0.940555 -1.06454 0
M  V30 21 N -2.02763 -0.857901 -0.141387 0
M  V30 22 H 1.87713 0.176051 2.35782 0
M  V30 23 H 4.20293 -0.501649 2.81806 0
M  V30 24 H 2.59858 0.148826 -1.75977 0
M  V30 25 H -4.50497 -1.72414 -0.470342 0
M  V30 26 H -5.24493 -1.11883 -2.03167 0
M  V30 27 H -1.76486 -1.57806 0.547742 0
M  V30 28 H -2.04784 -1.11128 -1.14692 0
M  V30 END ATOM
M  V30 BEGIN BOND
M  V30 1 2 1 2
M  V30 2 1 2 3
M  V30 3 1 3 4
M  V30 4 2 4 5
M  V30 5 1 5 6
M  V30 6 1 6 7
M  V30 7 1 7 8
M  V30 8 2 7 9
M  V30 9 1 9 10
M  V30 10 1 10 11
M  V30 11 1 2 12
M  V30 12 1 12 13
M  V30 13 2 13 14
M  V30 14 1 14 15
M  V30 15 2 15 16
M  V30 16 1 16 17
M  V30 17 1 17 18
M  V30 18 2 18 19
M  V30 19 1 19 20
M  V30 20 1 14 21
M  V30 21 2 8 3
M  V30 22 1 19 15
M  V30 23 2 11 6
M  V30 24 1 4 22
M  V30 25 1 5 23
M  V30 26 1 8 24
M  V30 27 1 20 25
M  V30 28 1 20 26
M  V30 29 1 21 27
M  V30 30 1 21 28
M  V30 END BOND
M  V30 END CTAB
M  END
