
     RDKit          3D

  0  0  0  0  0  0  0  0  0  0999 V3000
M  V30 BEGIN CTAB
M  V30 COUNTS 52 53 0 0 0
M  V30 BEGIN ATOM
M  V30 1 C -6.58838 0.873233 -1.14303 0
M  V30 2 C -5.55094 1.70687 -0.500968 0
M  V30 3 C -5.80466 2.94152 0.0452977 0
M  V30 4 C -4.79649 3.68583 0.636717 0
M  V30 5 O -5.0527 4.81292 1.12969 0
M  V30 6 O -3.58435 3.19442 0.670068 0
M  V30 7 C -3.25494 2.01143 0.166247 0
M  V30 8 C -1.97159 1.53656 0.223819 0
M  V30 9 C -1.65902 0.282891 -0.318485 0
M  V30 10 N -0.307982 -0.0930142 -0.229007 0
M  V30 11 C 0.0875913 -1.43983 -0.144499 0
M  V30 12 O -0.764967 -2.38879 -0.151456 0
M  V30 13 C 1.51725 -1.80256 -0.0536214 0 CFG=2
M  V30 14 C 2.41847 -0.657272 0.180537 0
M  V30 15 C 2.15108 -0.0316332 1.52661 0
M  V30 16 C 3.05119 1.15844 1.7929 0
M  V30 17 N 2.9028 2.21821 0.818561 0
M  V30 18 C 3.70639 3.36168 1.01063 0
M  V30 19 N 4.89247 3.5067 0.289015 0
M  V30 20 N 3.33838 4.25288 1.84428 0
M  V30 21 N 1.94371 -2.82684 -0.957918 0
M  V30 22 C 2.31306 -4.1219 -0.520897 0
M  V30 23 O 2.28108 -4.42728 0.697936 0
M  V30 24 C 2.74175 -5.1262 -1.51538 0
M  V30 25 N 3.08416 -6.39231 -0.894561 0
M  V30 26 C -2.61719 -0.493595 -0.915442 0
M  V30 27 C -3.9216 0.0197554 -0.958482 0
M  V30 28 C -4.23415 1.25324 -0.425474 0
M  V30 29 H -6.56903 0.93506 -2.24749 0
M  V30 30 H -6.60445 -0.167392 -0.760482 0
M  V30 31 H -7.57752 1.31892 -0.838963 0
M  V30 32 H -6.81226 3.33142 0.00821142 0
M  V30 33 H -1.20255 2.14851 0.696161 0
M  V30 34 H 0.387882 0.697381 -0.268471 0
M  V30 35 H 1.56154 -2.36425 1.01608 0
M  V30 36 H 3.4906 -0.975288 0.161819 0
M  V30 37 H 2.31141 0.12388 -0.63163 0
M  V30 38 H 2.49854 -0.795339 2.3075 0
M  V30 39 H 1.14449 0.206331 1.7944 0
M  V30 40 H 2.84548 1.56488 2.78585 0
M  V30 41 H 4.1066 0.767866 1.71542 0
M  V30 42 H 2.24144 2.16236 0.00461778 0
M  V30 43 H 5.79965 3.29443 0.734614 0
M  V30 44 H 4.87591 3.82598 -0.693008 0
M  V30 45 H 3.85368 5.12501 2.05793 0
M  V30 46 H 1.99036 -2.62544 -1.99431 0
M  V30 47 H 3.60688 -4.7467 -2.08414 0
M  V30 48 H 1.86242 -5.32247 -2.17387 0
M  V30 49 H 4.06189 -6.34068 -0.514639 0
M  V30 50 H 2.95377 -7.17269 -1.55864 0
M  V30 51 H -2.4528 -1.45138 -1.36693 0
M  V30 52 H -4.6943 -0.555763 -1.41465 0
M  V30 END ATOM
M  V30 BEGIN BOND
M  V30 1 1 1 2
M  V30 2 2 2 3
M  V30 3 1 3 4
M  V30 4 2 4 5
M  V30 5 1 4 6
M  V30 6 1 6 7
M  V30 7 2 7 8
M  V30 8 1 8 9
M  V30 9 1 9 10
M  V30 10 1 10 11
M  V30 11 2 11 12
M  V30 12 1 11 13
M  V30 13 1 13 14
M  V30 14 1 14 15
M  V30 15 1 15 16
M  V30 16 1 16 17
M  V30 17 1 17 18
M  V30 18 1 18 19
M  V30 19 2 18 20 CFG=2
M  V30 20 1 13 21
M  V30 21 1 21 22
M  V30 22 2 22 23
M  V30 23 1 22 24
M  V30 24 1 24 25
M  V30 25 2 9 26
M  V30 26 1 26 27
M  V30 27 2 27 28
M  V30 28 1 28 2
M  V30 29 1 28 7
M  V30 30 1 1 29
M  V30 31 1 1 30
M  V30 32 1 1 31
M  V30 33 1 3 32
M  V30 34 1 8 33
M  V30 35 1 10 34
M  V30 36 1 13 35 CFG=1
M  V30 37 1 14 36
M  V30 38 1 14 37
M  V30 39 1 15 38
M  V30 40 1 15 39
M  V30 41 1 16 40
M  V30 42 1 16 41
M  V30 43 1 17 42
M  V30 44 1 19 43
M  V30 45 1 19 44
M  V30 46 1 20 45
M  V30 47 1 21 46
M  V30 48 1 24 47
M  V30 49 1 24 48
M  V30 50 1 25 49
M  V30 51 1 25 50
M  V30 52 1 26 51
M  V30 53 1 27 52
M  V30 END BOND
M  V30 END CTAB
M  END
