
     RDKit          3D

  0  0  0  0  0  0  0  0  0  0999 V3000
M  V30 BEGIN CTAB
M  V30 COUNTS 27 28 0 0 0
M  V30 BEGIN ATOM
M  V30 1 N 5.88175 -0.284301 -0.990364 0
M  V30 2 C 4.68511 -0.237324 -0.20529 0
M  V30 3 N 4.53207 -0.603394 1.07516 0
M  V30 4 N 3.2715 -0.402556 1.42221 0
M  V30 5 N 2.5719 0.0879081 0.412814 0
M  V30 6 C 3.44114 0.197311 -0.612688 0
M  V30 7 C 1.19431 0.456415 0.318825 0
M  V30 8 C 0.315121 -0.632496 -0.112457 0
M  V30 9 O 0.735292 -1.77628 -0.373085 0
M  V30 10 N -1.07793 -0.370403 -0.2384 0
M  V30 11 N -2.03264 -1.23238 -0.616809 0
M  V30 12 C -3.23537 -0.646318 -0.624625 0
M  V30 13 C -3.06221 0.658195 -0.233989 0
M  V30 14 C -1.7132 0.799961 -0.0011155 0
M  V30 15 N -4.06831 1.64672 -0.10078 0
M  V30 16 C -4.55801 -1.26729 -0.988106 0
M  V30 17 H 5.88622 0.0619171 -1.95236 0
M  V30 18 H 6.74436 -0.672657 -0.574798 0
M  V30 19 H 3.2067 0.570081 -1.6119 0
M  V30 20 H 1.10412 1.32917 -0.365339 0
M  V30 21 H 0.817144 0.793771 1.32933 0
M  V30 22 H -1.18602 1.70212 0.327356 0
M  V30 23 H -4.52487 1.87287 0.825421 0
M  V30 24 H -4.42829 2.22055 -0.909829 0
M  V30 25 H -5.35956 -0.668243 -0.517097 0
M  V30 26 H -4.60218 -1.28881 -2.08767 0
M  V30 27 H -4.53815 -2.31455 -0.619741 0
M  V30 END ATOM
M  V30 BEGIN BOND
M  V30 1 1 1 2
M  V30 2 1 2 3
M  V30 3 2 3 4
M  V30 4 1 4 5
M  V30 5 1 5 6
M  V30 6 1 5 7
M  V30 7 1 7 8
M  V30 8 2 8 9
M  V30 9 1 8 10
M  V30 10 1 10 11
M  V30 11 2 11 12
M  V30 12 1 12 13
M  V30 13 2 13 14
M  V30 14 1 13 15
M  V30 15 1 12 16
M  V30 16 2 6 2
M  V30 17 1 14 10
M  V30 18 1 1 17
M  V30 19 1 1 18
M  V30 20 1 6 19
M  V30 21 1 7 20
M  V30 22 1 7 21
M  V30 23 1 14 22
M  V30 24 1 15 23
M  V30 25 1 15 24
M  V30 26 1 16 25
M  V30 27 1 16 26
M  V30 28 1 16 27
M  V30 END BOND
M  V30 END CTAB
M  END
