
     RDKit          3D

  0  0  0  0  0  0  0  0  0  0999 V3000
M  V30 BEGIN CTAB
M  V30 COUNTS 24 25 0 0 0
M  V30 BEGIN ATOM
M  V30 1 N 3.42457 -0.871891 0.627071 0
M  V30 2 C 2.00889 -0.716765 0.517413 0
M  V30 3 C 1.14507 -1.58272 1.13492 0
M  V30 4 N -0.185038 -1.42257 1.02162 0
M  V30 5 C -0.646586 -0.395689 0.290268 0
M  V30 6 C 0.2071 0.510348 -0.355783 0
M  V30 7 C 1.57384 0.355358 -0.24619 0
M  V30 8 N 2.4812 1.24587 -0.881229 0
M  V30 9 C -0.266222 1.55148 -1.09728 0
M  V30 10 C -1.63612 1.70032 -1.2025 0
M  V30 11 C -2.49144 0.810063 -0.567685 0
M  V30 12 C -2.01657 -0.245218 0.183889 0
M  V30 13 C -2.9265 -1.20163 0.865859 0
M  V30 14 I -4.58091 1.0229 -0.718031 0
M  V30 15 H 4.0795 -0.0549553 0.512478 0
M  V30 16 H 3.7642 -1.83884 0.826349 0
M  V30 17 H 1.52061 -2.40581 1.72112 0
M  V30 18 H 2.57444 2.25074 -0.640365 0
M  V30 19 H 3.12673 0.912618 -1.65704 0
M  V30 20 H 0.426679 2.22196 -1.5754 0
M  V30 21 H -2.02924 2.52247 -1.78803 0
M  V30 22 H -3.95799 -0.750883 0.914874 0
M  V30 23 H -2.55362 -1.48286 1.86704 0
M  V30 24 H -3.04261 -2.1343 0.246624 0
M  V30 END ATOM
M  V30 BEGIN BOND
M  V30 1 1 1 2
M  V30 2 2 2 3
M  V30 3 1 3 4
M  V30 4 2 4 5
M  V30 5 1 5 6
M  V30 6 2 6 7
M  V30 7 1 7 8
M  V30 8 1 6 9
M  V30 9 2 9 10
M  V30 10 1 10 11
M  V30 11 2 11 12
M  V30 12 1 12 13
M  V30 13 1 11 14
M  V30 14 1 7 2
M  V30 15 1 12 5
M  V30 16 1 1 15
M  V30 17 1 1 16
M  V30 18 1 3 17
M  V30 19 1 8 18
M  V30 20 1 8 19
M  V30 21 1 9 20
M  V30 22 1 10 21
M  V30 23 1 13 22
M  V30 24 1 13 23
M  V30 25 1 13 24
M  V30 END BOND
M  V30 END CTAB
M  END
