
     RDKit          3D

  0  0  0  0  0  0  0  0  0  0999 V3000
M  V30 BEGIN CTAB
M  V30 COUNTS 31 31 0 0 0
M  V30 BEGIN ATOM
M  V30 1 O -0.205671 2.54858 0.479978 0
M  V30 2 C -0.0923733 1.7334 -0.63336 0
M  V30 3 C -0.718204 0.377959 -0.419796 0
M  V30 4 C -2.19899 0.651294 -0.116452 0
M  V30 5 C -2.93196 -0.612598 -0.498756 0
M  V30 6 C -2.13644 -1.7719 0.0475455 0
M  V30 7 C -1.24679 -1.34738 1.20397 0
M  V30 8 C -0.170702 -0.370055 0.751716 0
M  V30 9 N 1.06462 -1.0734 0.480161 0
M  V30 10 C 2.26609 -0.44271 0.0632204 0
M  V30 11 N 2.78674 -0.686892 -1.08085 0
M  V30 12 N 3.96508 -0.0467449 -1.44954 0
M  V30 13 N 2.9179 0.479614 0.920677 0
M  V30 14 H -0.109238 3.49418 0.151229 0
M  V30 15 H -0.720766 2.22918 -1.43264 0
M  V30 16 H 0.924481 1.7212 -1.01826 0
M  V30 17 H -0.608359 -0.256338 -1.32153 0
M  V30 18 H -2.57758 1.47757 -0.75439 0
M  V30 19 H -2.33394 0.841095 0.955878 0
M  V30 20 H -3.98099 -0.617276 -0.139685 0
M  V30 21 H -2.97554 -0.627891 -1.61502 0
M  V30 22 H -1.55855 -2.29587 -0.740578 0
M  V30 23 H -2.85628 -2.50116 0.464238 0
M  V30 24 H -0.799818 -2.28055 1.60621 0
M  V30 25 H -1.91223 -0.879055 1.95763 0
M  V30 26 H -0.0208966 0.332501 1.62534 0
M  V30 27 H 1.0742 -2.10802 0.597625 0
M  V30 28 H 4.23374 -0.0741711 -2.45628 0
M  V30 29 H 4.59358 0.456013 -0.787636 0
M  V30 30 H 3.30284 1.38199 0.570714 0
M  V30 31 H 3.02604 0.267428 1.93738 0
M  V30 END ATOM
M  V30 BEGIN BOND
M  V30 1 1 1 2
M  V30 2 1 2 3
M  V30 3 1 3 4
M  V30 4 1 4 5
M  V30 5 1 5 6
M  V30 6 1 6 7
M  V30 7 1 7 8
M  V30 8 1 8 9
M  V30 9 1 9 10
M  V30 10 2 10 11 CFG=2
M  V30 11 1 11 12
M  V30 12 1 10 13
M  V30 13 1 8 3
M  V30 14 1 1 14
M  V30 15 1 2 15
M  V30 16 1 2 16
M  V30 17 1 3 17
M  V30 18 1 4 18
M  V30 19 1 4 19
M  V30 20 1 5 20
M  V30 21 1 5 21
M  V30 22 1 6 22
M  V30 23 1 6 23
M  V30 24 1 7 24
M  V30 25 1 7 25
M  V30 26 1 8 26
M  V30 27 1 9 27
M  V30 28 1 12 28
M  V30 29 1 12 29
M  V30 30 1 13 30
M  V30 31 1 13 31
M  V30 END BOND
M  V30 END CTAB
M  END
