
     RDKit          3D

  0  0  0  0  0  0  0  0  0  0999 V3000
M  V30 BEGIN CTAB
M  V30 COUNTS 25 25 0 0 0
M  V30 BEGIN ATOM
M  V30 1 N -2.62404 0.339586 1.63004 0
M  V30 2 C -2.69142 0.0384511 0.254883 0
M  V30 3 C -1.35855 -0.242443 -0.372318 0 CFG=2
M  V30 4 C -0.649352 -1.42037 0.260991 0
M  V30 5 C 0.759515 -1.24632 -0.276986 0
M  V30 6 C 0.911335 0.19116 -0.658234 0 CFG=1
M  V30 7 C -0.349493 0.847646 -0.131869 0
M  V30 8 S 2.36773 0.938894 0.0124517 0
M  V30 9 O 2.3231 0.899009 1.50703 0
M  V30 10 O 2.37348 2.37718 -0.40041 0
M  V30 11 N 3.74943 0.143931 -0.622126 0
M  V30 12 H -1.98281 0.991856 1.96832 0
M  V30 13 H -3.49897 0.313603 2.09127 0
M  V30 14 H -3.37516 -0.79468 0.0522244 0
M  V30 15 H -3.11139 0.930418 -0.254096 0
M  V30 16 H -1.44374 -0.443657 -1.44183 0
M  V30 17 H -1.08704 -2.38951 -0.00448782 0
M  V30 18 H -0.595912 -1.24679 1.35636 0
M  V30 19 H 1.5018 -1.58844 0.460324 0
M  V30 20 H 0.818542 -1.9065 -1.19034 0
M  V30 21 H 0.912938 0.281362 -1.76425 0
M  V30 22 H -0.209541 0.985248 0.96045 0
M  V30 23 H -0.584591 1.78682 -0.658268 0
M  V30 24 H 3.48438 -0.611183 -1.28189 0
M  V30 25 H 4.35976 0.824741 -1.08796 0
M  V30 END ATOM
M  V30 BEGIN BOND
M  V30 1 1 1 2
M  V30 2 1 2 3
M  V30 3 1 3 4
M  V30 4 1 4 5
M  V30 5 1 5 6
M  V30 6 1 6 7
M  V30 7 1 6 8
M  V30 8 2 8 9
M  V30 9 2 8 10
M  V30 10 1 8 11
M  V30 11 1 7 3
M  V30 12 1 1 12
M  V30 13 1 1 13
M  V30 14 1 2 14
M  V30 15 1 2 15
M  V30 16 1 3 16 CFG=3
M  V30 17 1 4 17
M  V30 18 1 4 18
M  V30 19 1 5 19
M  V30 20 1 5 20
M  V30 21 1 6 21 CFG=3
M  V30 22 1 7 22
M  V30 23 1 7 23
M  V30 24 1 11 24
M  V30 25 1 11 25
M  V30 END BOND
M  V30 END CTAB
M  END
