
     RDKit          3D

  0  0  0  0  0  0  0  0  0  0999 V3000
M  V30 BEGIN CTAB
M  V30 COUNTS 16 15 0 0 0
M  V30 BEGIN ATOM
M  V30 1 N -2.56826 -0.0843668 -0.849845 0
M  V30 2 C -1.96812 -0.643439 0.355566 0
M  V30 3 C -0.704547 0.107358 0.591951 0
M  V30 4 C 0.47808 -0.498587 0.619789 0
M  V30 5 C 1.71627 0.289827 0.85921 0
M  V30 6 N 2.59884 0.143257 -0.275426 0
M  V30 7 H -1.78096 -0.016136 -1.55843 0
M  V30 8 H -2.8166 0.909006 -0.614657 0
M  V30 9 H -1.76774 -1.71143 0.147618 0
M  V30 10 H -2.71194 -0.490925 1.16456 0
M  V30 11 H -0.77253 1.17859 0.743533 0
M  V30 12 H 0.575669 -1.55351 0.473557 0
M  V30 13 H 1.44907 1.3392 1.0512 0
M  V30 14 H 2.16837 -0.0993021 1.79801 0
M  V30 15 H 3.58005 0.112349 0.116301 0
M  V30 16 H 2.52434 1.01812 -0.847358 0
M  V30 END ATOM
M  V30 BEGIN BOND
M  V30 1 1 1 2
M  V30 2 1 2 3
M  V30 3 2 3 4 CFG=2
M  V30 4 1 4 5
M  V30 5 1 5 6
M  V30 6 1 1 7
M  V30 7 1 1 8
M  V30 8 1 2 9
M  V30 9 1 2 10
M  V30 10 1 3 11
M  V30 11 1 4 12
M  V30 12 1 5 13
M  V30 13 1 5 14
M  V30 14 1 6 15
M  V30 15 1 6 16
M  V30 END BOND
M  V30 END CTAB
M  END
