
     RDKit          3D

  0  0  0  0  0  0  0  0  0  0999 V3000
M  V30 BEGIN CTAB
M  V30 COUNTS 36 36 0 0 0
M  V30 BEGIN ATOM
M  V30 1 N -3.09404 1.98967 0.0396681 0
M  V30 2 C -3.59175 0.772788 0.554978 0
M  V30 3 C -2.56543 -0.135481 1.12882 0
M  V30 4 C -1.5018 -0.632038 0.182713 0 CFG=2
M  V30 5 C -0.605612 -1.53255 1.04252 0
M  V30 6 C 0.256182 -2.43847 0.199332 0
M  V30 7 C 1.63583 -1.84828 -0.00246152 0
M  V30 8 N 1.56511 -0.385423 0.00992374 0
M  V30 9 C 0.598815 0.023871 -0.983861 0
M  V30 10 C -0.715878 0.502106 -0.380579 0
M  V30 11 C 2.87431 0.0786712 -0.402692 0
M  V30 12 C 3.02239 1.56696 -0.43037 0
M  V30 13 N 2.78793 2.15223 0.892514 0
M  V30 14 H -2.71342 2.64939 0.688274 0
M  V30 15 H -3.71046 2.42119 -0.633124 0
M  V30 16 H -4.29888 1.02097 1.40465 0
M  V30 17 H -4.23843 0.247632 -0.196135 0
M  V30 18 H -3.04239 -1.07315 1.5446 0
M  V30 19 H -2.02803 0.402044 1.94551 0
M  V30 20 H -1.94779 -1.28304 -0.620928 0
M  V30 21 H -1.27971 -2.18289 1.64305 0
M  V30 22 H -0.0331442 -0.917467 1.74289 0
M  V30 23 H 0.386327 -3.41704 0.686463 0
M  V30 24 H -0.257112 -2.58824 -0.770836 0
M  V30 25 H 2.35923 -2.13694 0.779229 0
M  V30 26 H 2.03155 -2.14049 -0.98738 0
M  V30 27 H 0.959545 0.842407 -1.637 0
M  V30 28 H 0.306294 -0.843219 -1.64513 0
M  V30 29 H -0.577428 1.2687 0.392763 0
M  V30 30 H -1.29819 0.894928 -1.25754 0
M  V30 31 H 3.08987 -0.373865 -1.37221 0
M  V30 32 H 3.59309 -0.31657 0.356146 0
M  V30 33 H 2.50122 2.08734 -1.23284 0
M  V30 34 H 4.12095 1.75865 -0.621105 0
M  V30 35 H 3.56371 1.75011 1.49846 0
M  V30 36 H 1.84716 1.8155 1.25183 0
M  V30 END ATOM
M  V30 BEGIN BOND
M  V30 1 1 1 2
M  V30 2 1 2 3
M  V30 3 1 3 4
M  V30 4 1 4 5
M  V30 5 1 5 6
M  V30 6 1 6 7
M  V30 7 1 7 8
M  V30 8 1 8 9
M  V30 9 1 9 10
M  V30 10 1 8 11
M  V30 11 1 11 12
M  V30 12 1 12 13
M  V30 13 1 10 4
M  V30 14 1 1 14
M  V30 15 1 1 15
M  V30 16 1 2 16
M  V30 17 1 2 17
M  V30 18 1 3 18
M  V30 19 1 3 19
M  V30 20 1 4 20 CFG=3
M  V30 21 1 5 21
M  V30 22 1 5 22
M  V30 23 1 6 23
M  V30 24 1 6 24
M  V30 25 1 7 25
M  V30 26 1 7 26
M  V30 27 1 9 27
M  V30 28 1 9 28
M  V30 29 1 10 29
M  V30 30 1 10 30
M  V30 31 1 11 31
M  V30 32 1 11 32
M  V30 33 1 12 33
M  V30 34 1 12 34
M  V30 35 1 13 35
M  V30 36 1 13 36
M  V30 END BOND
M  V30 END CTAB
M  END
