
     RDKit          3D

  0  0  0  0  0  0  0  0  0  0999 V3000
M  V30 BEGIN CTAB
M  V30 COUNTS 21 22 0 0 0
M  V30 BEGIN ATOM
M  V30 1 N -2.90372 -0.765015 -1.37117 0
M  V30 2 C -1.59981 -0.661094 -0.769237 0
M  V30 3 C -1.32816 0.759756 -0.443356 0
M  V30 4 O -2.13435 1.78873 -0.658913 0
M  V30 5 C -1.56714 2.89665 -0.244788 0
M  V30 6 N -0.353227 2.55652 0.253047 0
M  V30 7 C -0.174804 1.2311 0.143478 0
M  V30 8 C 0.957339 0.409976 0.535577 0
M  V30 9 N 2.08743 0.855129 1.10819 0
M  V30 10 N 2.9104 -0.170079 1.3318 0
M  V30 11 C 2.31539 -1.29356 0.902892 0
M  V30 12 N 1.11875 -0.9163 0.41818 0
M  V30 13 N 2.84408 -2.63241 0.949024 0
M  V30 14 H -3.22672 0.171325 -1.665 0
M  V30 15 H -2.92798 -1.4013 -2.19965 0
M  V30 16 H -1.63551 -1.2429 0.187252 0
M  V30 17 H -0.799441 -1.09646 -1.41229 0
M  V30 18 H -2.01647 3.89083 -0.304657 0
M  V30 19 H 2.35058 1.83166 1.36663 0
M  V30 20 H 2.78649 -3.23363 1.78208 0
M  V30 21 H 3.29688 -2.97894 0.090908 0
M  V30 END ATOM
M  V30 BEGIN BOND
M  V30 1 1 1 2
M  V30 2 1 2 3
M  V30 3 1 3 4
M  V30 4 1 4 5
M  V30 5 2 5 6
M  V30 6 1 6 7
M  V30 7 1 7 8
M  V30 8 1 8 9
M  V30 9 1 9 10
M  V30 10 2 10 11
M  V30 11 1 11 12
M  V30 12 1 11 13
M  V30 13 2 7 3
M  V30 14 2 12 8
M  V30 15 1 1 14
M  V30 16 1 1 15
M  V30 17 1 2 16
M  V30 18 1 2 17
M  V30 19 1 5 18
M  V30 20 1 9 19
M  V30 21 1 13 20
M  V30 22 1 13 21
M  V30 END BOND
M  V30 END CTAB
M  END
