
     RDKit          3D

  0  0  0  0  0  0  0  0  0  0999 V3000
M  V30 BEGIN CTAB
M  V30 COUNTS 48 48 0 0 0
M  V30 BEGIN ATOM
M  V30 1 N 1.41572 1.08106 -2.77582 0
M  V30 2 C 1.07241 -0.0161625 -1.93552 0 CFG=1
M  V30 3 C 2.24892 -0.899175 -1.61288 0
M  V30 4 C 3.28108 -0.0711161 -0.896762 0
M  V30 5 C 4.50023 -0.907371 -0.545043 0
M  V30 6 N 5.43071 -0.0390483 0.144271 0
M  V30 7 C 5.10766 0.457881 1.4375 0
M  V30 8 N 4.7118 1.7943 1.69353 0
M  V30 9 N 5.17144 -0.345099 2.46299 0
M  V30 10 C 0.520008 0.523884 -0.685015 0
M  V30 11 O 0.330193 1.72116 -0.506271 0
M  V30 12 C 0.171505 -0.401079 0.418646 0
M  V30 13 C -1.3436 -0.14493 0.668686 0 CFG=1
M  V30 14 C -2.11151 -0.449204 -0.556086 0
M  V30 15 C -3.55781 -0.207201 -0.370418 0
M  V30 16 C -3.98767 1.11966 -0.472641 0
M  V30 17 C -5.31112 1.44817 -0.351941 0
M  V30 18 C -6.24339 0.455971 -0.124811 0
M  V30 19 O -7.5795 0.819602 -0.00696617 0
M  V30 20 C -5.81575 -0.845812 -0.0255901 0
M  V30 21 C -4.48769 -1.19804 -0.144952 0
M  V30 22 C -1.64682 -0.843715 1.90464 0
M  V30 23 O -1.06496 -0.381138 3.09316 0
M  V30 24 O -2.38396 -1.82322 1.98897 0
M  V30 25 H 1.1625 1.9633 -2.41451 0
M  V30 26 H 2.30103 1.04894 -3.23242 0
M  V30 27 H 0.312284 -0.630445 -2.47651 0
M  V30 28 H 1.98945 -1.74784 -0.971942 0
M  V30 29 H 2.69025 -1.2956 -2.5545 0
M  V30 30 H 2.81251 0.345073 0.0160348 0
M  V30 31 H 3.61763 0.720128 -1.59855 0
M  V30 32 H 4.94917 -1.25636 -1.47793 0
M  V30 33 H 4.22937 -1.78505 0.0855704 0
M  V30 34 H 6.32619 0.21669 -0.30993 0
M  V30 35 H 3.72994 2.10659 1.76992 0
M  V30 36 H 5.45379 2.53203 1.81603 0
M  V30 37 H 5.45408 -1.3377 2.33433 0
M  V30 38 H 0.73581 -0.163798 1.35313 0
M  V30 39 H 0.323443 -1.46248 0.150698 0
M  V30 40 H -1.40442 0.985902 0.843067 0
M  V30 41 H -1.94605 -1.49316 -0.93618 0
M  V30 42 H -1.78893 0.219159 -1.3865 0
M  V30 43 H -3.21447 1.87782 -0.654809 0
M  V30 44 H -5.62252 2.4776 -0.434908 0
M  V30 45 H -8.2464 0.0634852 0.159256 0
M  V30 46 H -6.54626 -1.63688 0.153765 0
M  V30 47 H -4.16179 -2.23372 -0.0853493 0
M  V30 48 H -1.58446 -0.363057 3.97395 0
M  V30 END ATOM
M  V30 BEGIN BOND
M  V30 1 1 1 2
M  V30 2 1 2 3
M  V30 3 1 3 4
M  V30 4 1 4 5
M  V30 5 1 5 6
M  V30 6 1 6 7
M  V30 7 1 7 8
M  V30 8 2 7 9 CFG=2
M  V30 9 1 2 10
M  V30 10 2 10 11
M  V30 11 1 10 12
M  V30 12 1 12 13
M  V30 13 1 13 14
M  V30 14 1 14 15
M  V30 15 2 15 16
M  V30 16 1 16 17
M  V30 17 2 17 18
M  V30 18 1 18 19
M  V30 19 1 18 20
M  V30 20 2 20 21
M  V30 21 1 13 22
M  V30 22 1 22 23
M  V30 23 2 22 24
M  V30 24 1 21 15
M  V30 25 1 1 25
M  V30 26 1 1 26
M  V30 27 1 2 27 CFG=3
M  V30 28 1 3 28
M  V30 29 1 3 29
M  V30 30 1 4 30
M  V30 31 1 4 31
M  V30 32 1 5 32
M  V30 33 1 5 33
M  V30 34 1 6 34
M  V30 35 1 8 35
M  V30 36 1 8 36
M  V30 37 1 9 37
M  V30 38 1 12 38
M  V30 39 1 12 39
M  V30 40 1 13 40 CFG=1
M  V30 41 1 14 41
M  V30 42 1 14 42
M  V30 43 1 16 43
M  V30 44 1 17 44
M  V30 45 1 19 45
M  V30 46 1 20 46
M  V30 47 1 21 47
M  V30 48 1 23 48
M  V30 END BOND
M  V30 END CTAB
M  END
