
     RDKit          3D

  0  0  0  0  0  0  0  0  0  0999 V3000
M  V30 BEGIN CTAB
M  V30 COUNTS 30 31 0 0 0
M  V30 BEGIN ATOM
M  V30 1 N -1.48497 2.67675 -1.69835 0
M  V30 2 C -1.83125 1.67828 -1.22006 0
M  V30 3 C -2.27272 0.427418 -0.638072 0
M  V30 4 C -3.60326 0.350104 -0.272861 0
M  V30 5 N -4.48264 1.46327 -0.469283 0
M  V30 6 C -4.06814 -0.827272 0.287631 0
M  V30 7 C -3.19453 -1.88619 0.465441 0
M  V30 8 N -1.905 -1.75843 0.0916543 0
M  V30 9 C -1.41414 -0.6345 -0.45531 0
M  V30 10 S 0.293728 -0.462126 -0.952091 0
M  V30 11 C 1.19096 0.202884 0.499578 0
M  V30 12 C 2.61352 0.380749 0.192056 0
M  V30 13 C 3.0692 1.57048 -0.330719 0
M  V30 14 C 4.40894 1.7094 -0.608722 0
M  V30 15 C 5.29436 0.698201 -0.379057 0
M  V30 16 C 4.82303 -0.504736 0.151304 0
M  V30 17 C 3.48769 -0.674317 0.440067 0
M  V30 18 Cl 5.92128 -1.8309 0.463535 0
M  V30 19 Cl 7.00833 0.817915 -0.713033 0
M  V30 20 N -3.62268 -3.12986 1.04121 0
M  V30 21 H -4.0482 2.39353 -0.649867 0
M  V30 22 H -5.50855 1.34337 -0.432342 0
M  V30 23 H -5.08586 -0.947562 0.590004 0
M  V30 24 H 0.686825 1.16316 0.806677 0
M  V30 25 H 1.00406 -0.523839 1.32304 0
M  V30 26 H 2.4171 2.40314 -0.53279 0
M  V30 27 H 4.75447 2.64584 -1.01815 0
M  V30 28 H 3.17374 -1.61987 0.847419 0
M  V30 29 H -3.03557 -3.69756 1.66231 0
M  V30 30 H -4.5897 -3.42733 0.782899 0
M  V30 END ATOM
M  V30 BEGIN BOND
M  V30 1 3 1 2
M  V30 2 1 2 3
M  V30 3 2 3 4
M  V30 4 1 4 5
M  V30 5 1 4 6
M  V30 6 2 6 7
M  V30 7 1 7 8
M  V30 8 2 8 9
M  V30 9 1 9 10
M  V30 10 1 10 11
M  V30 11 1 11 12
M  V30 12 2 12 13
M  V30 13 1 13 14
M  V30 14 2 14 15
M  V30 15 1 15 16
M  V30 16 2 16 17
M  V30 17 1 16 18
M  V30 18 1 15 19
M  V30 19 1 7 20
M  V30 20 1 9 3
M  V30 21 1 17 12
M  V30 22 1 5 21
M  V30 23 1 5 22
M  V30 24 1 6 23
M  V30 25 1 11 24
M  V30 26 1 11 25
M  V30 27 1 13 26
M  V30 28 1 14 27
M  V30 29 1 17 28
M  V30 30 1 20 29
M  V30 31 1 20 30
M  V30 END BOND
M  V30 END CTAB
M  END
