
     RDKit          3D

  0  0  0  0  0  0  0  0  0  0999 V3000
M  V30 BEGIN CTAB
M  V30 COUNTS 22 22 0 0 0
M  V30 BEGIN ATOM
M  V30 1 O 3.73305 1.39495 -0.323061 0
M  V30 2 C 2.43479 1.05099 -0.0105564 0
M  V30 3 O 1.95237 1.42363 1.07668 0
M  V30 4 C 1.63745 0.260483 -0.942998 0
M  V30 5 C 0.269984 -0.0412721 -0.447568 0
M  V30 6 C -0.826015 0.672587 -0.906785 0
M  V30 7 C -2.095 0.383367 -0.424527 0
M  V30 8 N -3.22535 1.10749 -0.88601 0
M  V30 9 C -2.2194 -0.619563 0.508099 0
M  V30 10 C -1.16191 -1.35564 0.994137 0
M  V30 11 C 0.105447 -1.03769 0.485877 0
M  V30 12 N 1.19302 -1.79144 0.96737 0
M  V30 13 I -1.42169 -2.88329 2.42302 0
M  V30 14 H 3.96173 2.20452 -0.850797 0
M  V30 15 H 1.51956 0.787676 -1.91641 0
M  V30 16 H 2.12044 -0.724253 -1.18343 0
M  V30 17 H -0.668521 1.4361 -1.62832 0
M  V30 18 H -3.2046 1.69975 -1.74286 0
M  V30 19 H -4.12416 1.06032 -0.363911 0
M  V30 20 H -3.2169 -0.865861 0.90347 0
M  V30 21 H 1.38595 -2.77759 0.652898 0
M  V30 22 H 1.84976 -1.38528 1.66388 0
M  V30 END ATOM
M  V30 BEGIN BOND
M  V30 1 1 1 2
M  V30 2 2 2 3
M  V30 3 1 2 4
M  V30 4 1 4 5
M  V30 5 2 5 6
M  V30 6 1 6 7
M  V30 7 1 7 8
M  V30 8 2 7 9
M  V30 9 1 9 10
M  V30 10 2 10 11
M  V30 11 1 11 12
M  V30 12 1 10 13
M  V30 13 1 11 5
M  V30 14 1 1 14
M  V30 15 1 4 15
M  V30 16 1 4 16
M  V30 17 1 6 17
M  V30 18 1 8 18
M  V30 19 1 8 19
M  V30 20 1 9 20
M  V30 21 1 12 21
M  V30 22 1 12 22
M  V30 END BOND
M  V30 END CTAB
M  END
