
     RDKit          3D

  0  0  0  0  0  0  0  0  0  0999 V3000
M  V30 BEGIN CTAB
M  V30 COUNTS 39 40 0 0 0
M  V30 BEGIN ATOM
M  V30 1 N 7.39042 0.997051 0.685852 0
M  V30 2 C 6.05722 0.607852 0.329925 0
M  V30 3 C 5.07062 1.57859 0.231506 0
M  V30 4 C 3.79074 1.1968 -0.109575 0
M  V30 5 C 3.49539 -0.12727 -0.347694 0
M  V30 6 C 4.47606 -1.06822 -0.246414 0
M  V30 7 C 5.75502 -0.699891 0.09161 0
M  V30 8 C 2.09163 -0.547735 -0.696011 0
M  V30 9 O 2.04848 -1.45976 -1.49885 0
M  V30 10 N 1.05056 0.122501 -0.0870955 0
M  V30 11 C -0.313867 0.135412 -0.0313241 0
M  V30 12 O -0.703802 1.06896 0.907737 0
M  V30 13 N -1.45008 -0.450875 -0.576424 0
M  V30 14 C -2.75735 -0.0106229 0.00257434 0
M  V30 15 C -3.21938 1.244 -0.265659 0
M  V30 16 C -4.43755 1.68593 0.285023 0
M  V30 17 C -5.17228 0.854755 1.09925 0
M  V30 18 C -4.68467 -0.411658 1.35623 0
M  V30 19 C -3.47113 -0.849114 0.805816 0
M  V30 20 N -6.40558 1.27171 1.68123 0
M  V30 21 C -1.61823 -1.37176 -1.58953 0
M  V30 22 O -0.761793 -1.91275 -2.26415 0
M  V30 23 C -3.04149 -1.79389 -1.94336 0
M  V30 24 H 8.18004 0.339365 0.555612 0
M  V30 25 H 7.61302 1.93138 1.07811 0
M  V30 26 H 5.33489 2.6075 0.427314 0
M  V30 27 H 3.04708 1.96545 -0.180813 0
M  V30 28 H 4.25071 -2.10625 -0.430711 0
M  V30 29 H 6.53747 -1.46422 0.170689 0
M  V30 30 H 1.51184 0.910421 0.618808 0
M  V30 31 H -2.65799 1.90614 -0.899234 0
M  V30 32 H -4.80274 2.6832 0.0698291 0
M  V30 33 H -5.26171 -1.0585 1.99118 0
M  V30 34 H -3.11102 -1.85161 1.02573 0
M  V30 35 H -6.46899 1.48708 2.70529 0
M  V30 36 H -7.27015 1.37422 1.10888 0
M  V30 37 H -3.69351 -0.877506 -1.8329 0
M  V30 38 H -3.36945 -2.59443 -1.2623 0
M  V30 39 H -3.02841 -2.15409 -2.96614 0
M  V30 END ATOM
M  V30 BEGIN BOND
M  V30 1 1 1 2
M  V30 2 2 2 3
M  V30 3 1 3 4
M  V30 4 2 4 5
M  V30 5 1 5 6
M  V30 6 2 6 7
M  V30 7 1 5 8
M  V30 8 2 8 9
M  V30 9 1 8 10
M  V30 10 1 10 11
M  V30 11 2 11 12
M  V30 12 1 11 13
M  V30 13 1 13 14
M  V30 14 2 14 15
M  V30 15 1 15 16
M  V30 16 2 16 17
M  V30 17 1 17 18
M  V30 18 2 18 19
M  V30 19 1 17 20
M  V30 20 1 13 21
M  V30 21 2 21 22
M  V30 22 1 21 23
M  V30 23 1 7 2
M  V30 24 1 19 14
M  V30 25 1 1 24
M  V30 26 1 1 25
M  V30 27 1 3 26
M  V30 28 1 4 27
M  V30 29 1 6 28
M  V30 30 1 7 29
M  V30 31 1 10 30
M  V30 32 1 15 31
M  V30 33 1 16 32
M  V30 34 1 18 33
M  V30 35 1 19 34
M  V30 36 1 20 35
M  V30 37 1 20 36
M  V30 38 1 23 37
M  V30 39 1 23 38
M  V30 40 1 23 39
M  V30 END BOND
M  V30 END CTAB
M  END
