
     RDKit          3D

  0  0  0  0  0  0  0  0  0  0999 V3000
M  V30 BEGIN CTAB
M  V30 COUNTS 81 80 0 0 0
M  V30 BEGIN ATOM
M  V30 1 C 8.48568 4.25491 -1.17318 0
M  V30 2 C 8.86684 2.82819 -1.38167 0
M  V30 3 C 9.28674 2.10804 -0.142881 0
M  V30 4 C 8.24555 2.0471 0.925535 0
M  V30 5 C 6.98503 1.34308 0.467004 0
M  V30 6 C 6.00907 1.3359 1.61805 0
M  V30 7 C 4.73935 0.644296 1.19671 0
M  V30 8 C 4.961 -0.78106 0.776099 0
M  V30 9 C 3.54784 -1.31907 0.385239 0
M  V30 10 C 3.70445 -2.71826 -0.041672 0
M  V30 11 C 2.49785 -3.43211 -0.46714 0
M  V30 12 C 1.44691 -3.80744 0.472089 0
M  V30 13 N 0.824132 -2.8005 1.24588 0
M  V30 14 C -0.286347 -2.08275 0.740054 0
M  V30 15 O -0.807093 -1.20118 1.4583 0
M  V30 16 C -0.817365 -2.36311 -0.595737 0
M  V30 17 C -2.13215 -1.56898 -0.741885 0
M  V30 18 C -2.73729 -1.78864 -2.07343 0
M  V30 19 C -3.97728 -1.11734 -2.45236 0
M  V30 20 C -5.25939 -1.33838 -1.79012 0
M  V30 21 C -5.46851 -1.05609 -0.365911 0
M  V30 22 C -6.94836 -1.34109 -0.035707 0
M  V30 23 C -7.88976 -0.485088 -0.813721 0
M  V30 24 C -7.64967 0.999244 -0.572099 0
M  V30 25 C -7.84686 1.26892 0.893082 0
M  V30 26 C -7.6423 2.71323 1.26916 0
M  V30 27 N -8.54866 3.59146 0.588863 0
M  V30 28 N -8.28681 4.90901 1.00834 0
M  V30 29 N 1.22756 -2.56207 2.60491 0
M  V30 30 H 9.16081 4.96503 -1.73516 0
M  V30 31 H 8.49636 4.58797 -0.133082 0
M  V30 32 H 7.46116 4.48495 -1.58879 0
M  V30 33 H 9.74646 2.81456 -2.07802 0
M  V30 34 H 8.06238 2.28623 -1.91576 0
M  V30 35 H 10.1908 2.57767 0.290128 0
M  V30 36 H 9.51601 1.05157 -0.44026 0
M  V30 37 H 8.6598 1.46145 1.76739 0
M  V30 38 H 7.9593 3.03142 1.32438 0
M  V30 39 H 6.58455 1.91904 -0.373591 0
M  V30 40 H 7.19957 0.315815 0.156706 0
M  V30 41 H 5.73094 2.38747 1.90487 0
M  V30 42 H 6.43776 0.853736 2.51079 0
M  V30 43 H 4.26575 1.16169 0.333178 0
M  V30 44 H 3.97646 0.644522 2.00073 0
M  V30 45 H 5.60423 -0.90718 -0.0983494 0
M  V30 46 H 5.34102 -1.38232 1.61002 0
M  V30 47 H 3.21851 -0.735632 -0.529702 0
M  V30 48 H 2.9224 -1.02186 1.18341 0
M  V30 49 H 4.25358 -3.33568 0.743703 0
M  V30 50 H 4.39977 -2.70836 -0.958905 0
M  V30 51 H 2.90148 -4.38994 -1.00442 0
M  V30 52 H 2.07166 -2.87441 -1.3801 0
M  V30 53 H 1.79404 -4.64548 1.17815 0
M  V30 54 H 0.662784 -4.3925 -0.131341 0
M  V30 55 H -0.982795 -3.42456 -0.779297 0
M  V30 56 H -0.078812 -1.9598 -1.35058 0
M  V30 57 H -1.82479 -0.513666 -0.599077 0
M  V30 58 H -2.81459 -1.84552 0.0671054 0
M  V30 59 H -1.90867 -1.52888 -2.82388 0
M  V30 60 H -2.85178 -2.91223 -2.28814 0
M  V30 61 H -3.73133 -0.0052287 -2.55708 0
M  V30 62 H -4.16104 -1.37425 -3.56427 0
M  V30 63 H -5.53586 -2.42775 -1.95088 0
M  V30 64 H -6.04193 -0.810934 -2.42262 0
M  V30 65 H -5.26938 -0.0479221 -0.0119274 0
M  V30 66 H -4.94722 -1.76988 0.34365 0
M  V30 67 H -7.0977 -1.29847 1.05763 0
M  V30 68 H -7.08852 -2.43423 -0.302879 0
M  V30 69 H -7.92395 -0.650474 -1.88724 0
M  V30 70 H -8.93766 -0.751463 -0.454607 0
M  V30 71 H -8.41926 1.6065 -1.11462 0
M  V30 72 H -6.67143 1.31441 -0.943259 0
M  V30 73 H -7.09659 0.667886 1.4535 0
M  V30 74 H -8.84545 0.889971 1.17196 0
M  V30 75 H -7.83345 2.79014 2.36111 0
M  V30 76 H -6.5689 2.95796 1.04511 0
M  V30 77 H -8.56938 3.50523 -0.434297 0
M  V30 78 H -8.63921 5.06263 1.98487 0
M  V30 79 H -8.88144 5.52248 0.398696 0
M  V30 80 H 0.808339 -1.65002 2.91638 0
M  V30 81 H 0.765075 -3.3419 3.13903 0
M  V30 END ATOM
M  V30 BEGIN BOND
M  V30 1 1 1 2
M  V30 2 1 2 3
M  V30 3 1 3 4
M  V30 4 1 4 5
M  V30 5 1 5 6
M  V30 6 1 6 7
M  V30 7 1 7 8
M  V30 8 1 8 9
M  V30 9 1 9 10
M  V30 10 1 10 11
M  V30 11 1 11 12
M  V30 12 1 12 13
M  V30 13 1 13 14
M  V30 14 2 14 15
M  V30 15 1 14 16
M  V30 16 1 16 17
M  V30 17 1 17 18
M  V30 18 1 18 19
M  V30 19 1 19 20
M  V30 20 1 20 21
M  V30 21 1 21 22
M  V30 22 1 22 23
M  V30 23 1 23 24
M  V30 24 1 24 25
M  V30 25 1 25 26
M  V30 26 1 26 27
M  V30 27 1 27 28
M  V30 28 1 13 29
M  V30 29 1 1 30
M  V30 30 1 1 31
M  V30 31 1 1 32
M  V30 32 1 2 33
M  V30 33 1 2 34
M  V30 34 1 3 35
M  V30 35 1 3 36
M  V30 36 1 4 37
M  V30 37 1 4 38
M  V30 38 1 5 39
M  V30 39 1 5 40
M  V30 40 1 6 41
M  V30 41 1 6 42
M  V30 42 1 7 43
M  V30 43 1 7 44
M  V30 44 1 8 45
M  V30 45 1 8 46
M  V30 46 1 9 47
M  V30 47 1 9 48
M  V30 48 1 10 49
M  V30 49 1 10 50
M  V30 50 1 11 51
M  V30 51 1 11 52
M  V30 52 1 12 53
M  V30 53 1 12 54
M  V30 54 1 16 55
M  V30 55 1 16 56
M  V30 56 1 17 57
M  V30 57 1 17 58
M  V30 58 1 18 59
M  V30 59 1 18 60
M  V30 60 1 19 61
M  V30 61 1 19 62
M  V30 62 1 20 63
M  V30 63 1 20 64
M  V30 64 1 21 65
M  V30 65 1 21 66
M  V30 66 1 22 67
M  V30 67 1 22 68
M  V30 68 1 23 69
M  V30 69 1 23 70
M  V30 70 1 24 71
M  V30 71 1 24 72
M  V30 72 1 25 73
M  V30 73 1 25 74
M  V30 74 1 26 75
M  V30 75 1 26 76
M  V30 76 1 27 77
M  V30 77 1 28 78
M  V30 78 1 28 79
M  V30 79 1 29 80
M  V30 80 1 29 81
M  V30 END BOND
M  V30 END CTAB
M  END
