
     RDKit          3D

  0  0  0  0  0  0  0  0  0  0999 V3000
M  V30 BEGIN CTAB
M  V30 COUNTS 27 27 0 0 0
M  V30 BEGIN ATOM
M  V30 1 N -2.77187 1.22978 0.604138 0
M  V30 2 C -2.43496 -0.0600638 1.18055 0
M  V30 3 C -1.54851 -0.867791 0.26407 0
M  V30 4 C -0.261933 -0.151399 -0.0145842 0
M  V30 5 N 0.938348 -0.681596 0.279873 0
M  V30 6 C 2.10352 -0.0304774 0.0264054 0
M  V30 7 N 3.3478 -0.616619 0.348546 0
M  V30 8 C 3.35785 -1.92292 0.953228 0
M  V30 9 N 2.05721 1.1804 -0.535655 0
M  V30 10 C 0.885687 1.74951 -0.846937 0
M  V30 11 N -0.238692 1.06757 -0.577538 0
M  V30 12 N 0.902437 3.02629 -1.43694 0
M  V30 13 C -2.24897 -1.06714 -1.06363 0
M  V30 14 H -3.69069 1.5855 0.991426 0
M  V30 15 H -2.82661 1.08181 -0.428129 0
M  V30 16 H -1.85746 0.141729 2.10512 0
M  V30 17 H -3.36673 -0.630418 1.36762 0
M  V30 18 H -1.37435 -1.8474 0.723887 0
M  V30 19 H 4.22262 -0.105574 0.148023 0
M  V30 20 H 3.70298 -2.70523 0.263897 0
M  V30 21 H 2.37271 -2.15147 1.41565 0
M  V30 22 H 4.09005 -1.87568 1.80435 0
M  V30 23 H 0.198288 3.27603 -2.17008 0
M  V30 24 H 1.62762 3.70688 -1.12602 0
M  V30 25 H -1.97149 -0.240934 -1.7773 0
M  V30 26 H -1.86935 -1.99823 -1.569 0
M  V30 27 H -3.34549 -1.09255 -0.930949 0
M  V30 END ATOM
M  V30 BEGIN BOND
M  V30 1 1 1 2
M  V30 2 1 2 3
M  V30 3 1 3 4
M  V30 4 2 4 5
M  V30 5 1 5 6
M  V30 6 1 6 7
M  V30 7 1 7 8
M  V30 8 2 6 9
M  V30 9 1 9 10
M  V30 10 2 10 11
M  V30 11 1 10 12
M  V30 12 1 3 13
M  V30 13 1 11 4
M  V30 14 1 1 14
M  V30 15 1 1 15
M  V30 16 1 2 16
M  V30 17 1 2 17
M  V30 18 1 3 18
M  V30 19 1 7 19
M  V30 20 1 8 20
M  V30 21 1 8 21
M  V30 22 1 8 22
M  V30 23 1 12 23
M  V30 24 1 12 24
M  V30 25 1 13 25
M  V30 26 1 13 26
M  V30 27 1 13 27
M  V30 END BOND
M  V30 END CTAB
M  END
