
     RDKit          3D

  0  0  0  0  0  0  0  0  0  0999 V3000
M  V30 BEGIN CTAB
M  V30 COUNTS 38 38 0 0 0
M  V30 BEGIN ATOM
M  V30 1 C -3.25697 -0.233754 0.87847 0
M  V30 2 C -2.6812 -1.39195 0.131632 0
M  V30 3 C -3.41278 -1.60385 -1.14829 0
M  V30 4 C -1.17788 -1.34313 -0.000990328 0
M  V30 5 N -0.701401 -0.180406 -0.692256 0
M  V30 6 C -0.990113 -0.0844733 -2.12945 0
M  V30 7 C 0.0109613 0.902024 -0.12813 0
M  V30 8 C 1.31788 0.821706 0.285372 0
M  V30 9 N 1.92405 1.9049 0.863259 0
M  V30 10 C 1.27327 3.05906 1.03957 0
M  V30 11 Cl 2.01737 4.46341 1.77601 0
M  V30 12 C -0.0363573 3.1638 0.631665 0
M  V30 13 N -0.728317 4.38895 0.817238 0
M  V30 14 N -0.6037 2.10842 0.0773128 0
M  V30 15 C 2.15493 -0.339548 0.114806 0
M  V30 16 O 1.75864 -1.30607 -0.554005 0
M  V30 17 N 3.44171 -0.421642 0.695821 0
M  V30 18 C 4.26635 -1.56497 0.52871 0
M  V30 19 N 3.79783 -2.65789 -0.240714 0
M  V30 20 N 5.43764 -1.67123 1.04381 0
M  V30 21 H -2.66771 -0.0218361 1.78082 0
M  V30 22 H -4.26955 -0.562264 1.24944 0
M  V30 23 H -3.45248 0.655561 0.254963 0
M  V30 24 H -2.8894 -2.30428 0.76815 0
M  V30 25 H -4.45127 -1.95423 -0.871643 0
M  V30 26 H -3.57091 -0.70276 -1.75386 0
M  V30 27 H -2.99285 -2.41995 -1.76622 0
M  V30 28 H -0.750432 -1.44827 1.01388 0
M  V30 29 H -0.926707 -2.24533 -0.638099 0
M  V30 30 H -1.20329 -1.05337 -2.58457 0
M  V30 31 H -1.72886 0.713648 -2.34903 0
M  V30 32 H -0.0309321 0.292817 -2.59155 0
M  V30 33 H -1.62895 4.4572 1.32281 0
M  V30 34 H -0.30825 5.25152 0.426974 0
M  V30 35 H 3.83926 0.359507 1.27426 0
M  V30 36 H 4.25241 -2.77966 -1.19086 0
M  V30 37 H 3.07343 -3.33125 0.0274214 0
M  V30 38 H 5.89459 -0.920399 1.63727 0
M  V30 END ATOM
M  V30 BEGIN BOND
M  V30 1 1 1 2
M  V30 2 1 2 3
M  V30 3 1 2 4
M  V30 4 1 4 5
M  V30 5 1 5 6
M  V30 6 1 5 7
M  V30 7 2 7 8
M  V30 8 1 8 9
M  V30 9 2 9 10
M  V30 10 1 10 11
M  V30 11 1 10 12
M  V30 12 1 12 13
M  V30 13 2 12 14
M  V30 14 1 8 15
M  V30 15 2 15 16
M  V30 16 1 15 17
M  V30 17 1 17 18
M  V30 18 1 18 19
M  V30 19 2 18 20 CFG=2
M  V30 20 1 14 7
M  V30 21 1 1 21
M  V30 22 1 1 22
M  V30 23 1 1 23
M  V30 24 1 2 24
M  V30 25 1 3 25
M  V30 26 1 3 26
M  V30 27 1 3 27
M  V30 28 1 4 28
M  V30 29 1 4 29
M  V30 30 1 6 30
M  V30 31 1 6 31
M  V30 32 1 6 32
M  V30 33 1 13 33
M  V30 34 1 13 34
M  V30 35 1 17 35
M  V30 36 1 19 36
M  V30 37 1 19 37
M  V30 38 1 20 38
M  V30 END BOND
M  V30 END CTAB
M  END
