
     RDKit          3D

  0  0  0  0  0  0  0  0  0  0999 V3000
M  V30 BEGIN CTAB
M  V30 COUNTS 15 14 0 0 0
M  V30 BEGIN ATOM
M  V30 1 N -2.3288 0.0743413 0.242235 0
M  V30 2 C -1.80211 -0.469151 -0.949211 0
M  V30 3 N -0.543988 -0.298801 -1.18392 0
M  V30 4 C 0.271077 0.415314 -0.262456 0
M  V30 5 C -0.0875497 1.7017 0.269882 0
M  V30 6 N -0.362585 2.73825 0.712649 0
M  V30 7 C 1.41272 -0.132292 0.121351 0
M  V30 8 N 1.76777 -1.40893 -0.407464 0
M  V30 9 C 2.29721 0.542537 1.06261 0
M  V30 10 N 3.00078 1.06037 1.81749 0
M  V30 11 H -2.23654 -0.433122 1.13613 0
M  V30 12 H -2.81189 0.983838 0.235803 0
M  V30 13 H -2.36477 -1.0192 -1.68679 0
M  V30 14 H 1.89954 -2.17365 0.303321 0
M  V30 15 H 1.88913 -1.58121 -1.41164 0
M  V30 END ATOM
M  V30 BEGIN BOND
M  V30 1 1 1 2
M  V30 2 2 2 3
M  V30 3 1 3 4
M  V30 4 1 4 5
M  V30 5 3 5 6
M  V30 6 2 4 7
M  V30 7 1 7 8
M  V30 8 1 7 9
M  V30 9 3 9 10
M  V30 10 1 1 11
M  V30 11 1 1 12
M  V30 12 1 2 13
M  V30 13 1 8 14
M  V30 14 1 8 15
M  V30 END BOND
M  V30 END CTAB
M  END
