
     RDKit          3D

  0  0  0  0  0  0  0  0  0  0999 V3000
M  V30 BEGIN CTAB
M  V30 COUNTS 30 30 0 0 0
M  V30 BEGIN ATOM
M  V30 1 C -3.05625 1.28886 0.0433946 0
M  V30 2 C -2.7005 -0.0814403 0.570338 0
M  V30 3 C -1.28698 -0.428439 0.157386 0
M  V30 4 C -0.381263 0.621514 0.750556 0
M  V30 5 C 1.04042 0.389963 0.414319 0
M  V30 6 N 1.62505 -0.571353 -0.307924 0
M  V30 7 N 2.94848 -0.370703 -0.340214 0
M  V30 8 C 3.20684 0.742006 0.377366 0
M  V30 9 N 2.02964 1.1986 0.834315 0
M  V30 10 N 4.50815 1.28292 0.577322 0
M  V30 11 C 3.93332 -1.19382 -1.01992 0
M  V30 12 N -1.19322 -0.536839 -1.26366 0
M  V30 13 C -3.70277 -1.08725 0.0518765 0
M  V30 14 H -2.9732 1.98785 0.909731 0
M  V30 15 H -2.40337 1.64509 -0.75346 0
M  V30 16 H -4.11134 1.34206 -0.292287 0
M  V30 17 H -2.75909 -0.127026 1.68907 0
M  V30 18 H -1.05844 -1.42728 0.613667 0
M  V30 19 H -0.684834 1.63196 0.414535 0
M  V30 20 H -0.558039 0.606231 1.85473 0
M  V30 21 H 4.88631 2.11598 0.101887 0
M  V30 22 H 5.12222 0.79076 1.26168 0
M  V30 23 H 3.55527 -2.23396 -1.04716 0
M  V30 24 H 4.19104 -0.802281 -2.02209 0
M  V30 25 H 4.86367 -1.21136 -0.405269 0
M  V30 26 H -2.06236 -0.137651 -1.68323 0
M  V30 27 H -1.11298 -1.51434 -1.62186 0
M  V30 28 H -3.29368 -2.11193 0.193224 0
M  V30 29 H -4.63794 -0.928212 0.617213 0
M  V30 30 H -3.93416 -0.879917 -1.01329 0
M  V30 END ATOM
M  V30 BEGIN BOND
M  V30 1 1 1 2
M  V30 2 1 2 3
M  V30 3 1 3 4
M  V30 4 1 4 5
M  V30 5 2 5 6
M  V30 6 1 6 7
M  V30 7 1 7 8
M  V30 8 2 8 9
M  V30 9 1 8 10
M  V30 10 1 7 11
M  V30 11 1 3 12
M  V30 12 1 2 13
M  V30 13 1 9 5
M  V30 14 1 1 14
M  V30 15 1 1 15
M  V30 16 1 1 16
M  V30 17 1 2 17
M  V30 18 1 3 18
M  V30 19 1 4 19
M  V30 20 1 4 20
M  V30 21 1 10 21
M  V30 22 1 10 22
M  V30 23 1 11 23
M  V30 24 1 11 24
M  V30 25 1 11 25
M  V30 26 1 12 26
M  V30 27 1 12 27
M  V30 28 1 13 28
M  V30 29 1 13 29
M  V30 30 1 13 30
M  V30 END BOND
M  V30 END CTAB
M  END
