
     RDKit          3D

  0  0  0  0  0  0  0  0  0  0999 V3000
M  V30 BEGIN CTAB
M  V30 COUNTS 31 32 0 0 0
M  V30 BEGIN ATOM
M  V30 1 N 3.33328 -0.206576 0.884677 0
M  V30 2 C 2.32276 -1.17194 0.635961 0
M  V30 3 C 1.41236 -0.741838 -0.514234 0 CFG=1
M  V30 4 C 0.420082 -1.83559 -0.659674 0
M  V30 5 C -0.969833 -1.44483 -1.04545 0
M  V30 6 N -1.35461 -0.354677 -0.136325 0
M  V30 7 C -0.496962 0.78829 -0.142726 0
M  V30 8 C 0.880305 0.613566 -0.359516 0
M  V30 9 C 1.65111 1.74392 -0.389408 0
M  V30 10 C 1.06602 2.98129 -0.208074 0
M  V30 11 C -0.287274 3.14093 0.00610507 0
M  V30 12 C -1.08354 2.02035 0.0389472 0
M  V30 13 S -2.73088 -0.417027 0.866672 0
M  V30 14 O -2.75997 0.545803 1.97416 0
M  V30 15 O -2.61045 -1.77944 1.57306 0
M  V30 16 N -4.20757 -0.548527 -0.0184873 0
M  V30 17 H 4.07672 -0.208774 0.170969 0
M  V30 18 H 3.73129 -0.26535 1.83365 0
M  V30 19 H 1.70554 -1.3628 1.54098 0
M  V30 20 H 2.81908 -2.13649 0.403667 0
M  V30 21 H 2.04331 -0.720598 -1.45375 0
M  V30 22 H 0.794399 -2.5809 -1.39883 0
M  V30 23 H 0.304091 -2.39733 0.323169 0
M  V30 24 H -1.00648 -1.09371 -2.07938 0
M  V30 25 H -1.65093 -2.30383 -0.853752 0
M  V30 26 H 2.70551 1.72932 -0.560766 0
M  V30 27 H 1.70979 3.86108 -0.237332 0
M  V30 28 H -0.735954 4.11932 0.148115 0
M  V30 29 H -2.1715 2.08852 0.206899 0
M  V30 30 H -4.8976 -1.18299 0.444033 0
M  V30 31 H -4.01212 -0.879174 -0.993355 0
M  V30 END ATOM
M  V30 BEGIN BOND
M  V30 1 1 1 2
M  V30 2 1 2 3
M  V30 3 1 3 4
M  V30 4 1 4 5
M  V30 5 1 5 6
M  V30 6 1 6 7
M  V30 7 2 7 8
M  V30 8 1 8 9
M  V30 9 2 9 10
M  V30 10 1 10 11
M  V30 11 2 11 12
M  V30 12 1 6 13
M  V30 13 2 13 14
M  V30 14 2 13 15
M  V30 15 1 13 16
M  V30 16 1 8 3
M  V30 17 1 12 7
M  V30 18 1 1 17
M  V30 19 1 1 18
M  V30 20 1 2 19
M  V30 21 1 2 20
M  V30 22 1 3 21 CFG=3
M  V30 23 1 4 22
M  V30 24 1 4 23
M  V30 25 1 5 24
M  V30 26 1 5 25
M  V30 27 1 9 26
M  V30 28 1 10 27
M  V30 29 1 11 28
M  V30 30 1 12 29
M  V30 31 1 16 30
M  V30 32 1 16 31
M  V30 END BOND
M  V30 END CTAB
M  END
