
     RDKit          3D

  0  0  0  0  0  0  0  0  0  0999 V3000
M  V30 BEGIN CTAB
M  V30 COUNTS 19 19 0 0 0
M  V30 BEGIN ATOM
M  V30 1 C 3.50347 0.159964 0.231707 0
M  V30 2 S 2.21559 -1.06473 -0.128838 0
M  V30 3 C 0.58908 -0.322009 -0.0463145 0
M  V30 4 N 0.410384 0.980788 0.249651 0
M  V30 5 C -0.838238 1.52418 0.306647 0
M  V30 6 N -1.03679 2.88191 0.61437 0
M  V30 7 N -1.88604 0.710848 0.0562587 0
M  V30 8 C -1.75118 -0.589499 -0.241618 0
M  V30 9 C -0.488311 -1.14881 -0.301547 0
M  V30 10 C -0.290407 -2.54138 -0.617538 0
M  V30 11 N -0.120832 -3.65097 -0.872938 0
M  V30 12 N -2.84643 -1.43743 -0.502814 0
M  V30 13 H 3.21511 0.652641 1.20504 0
M  V30 14 H 3.57007 0.927727 -0.562083 0
M  V30 15 H 4.46817 -0.345034 0.331431 0
M  V30 16 H -1.91557 3.17653 1.07741 0
M  V30 17 H -0.31359 3.57844 0.381002 0
M  V30 18 H -3.20651 -2.03188 0.25669 0
M  V30 19 H -3.27797 -1.46128 -1.43651 0
M  V30 END ATOM
M  V30 BEGIN BOND
M  V30 1 1 1 2
M  V30 2 1 2 3
M  V30 3 2 3 4
M  V30 4 1 4 5
M  V30 5 1 5 6
M  V30 6 2 5 7
M  V30 7 1 7 8
M  V30 8 2 8 9
M  V30 9 1 9 10
M  V30 10 3 10 11
M  V30 11 1 8 12
M  V30 12 1 9 3
M  V30 13 1 1 13
M  V30 14 1 1 14
M  V30 15 1 1 15
M  V30 16 1 6 16
M  V30 17 1 6 17
M  V30 18 1 12 18
M  V30 19 1 12 19
M  V30 END BOND
M  V30 END CTAB
M  END
