
     RDKit          3D

  0  0  0  0  0  0  0  0  0  0999 V3000
M  V30 BEGIN CTAB
M  V30 COUNTS 45 47 0 0 0
M  V30 BEGIN ATOM
M  V30 1 N -6.51123 -1.71847 0.630359 0
M  V30 2 C -5.79689 -0.592284 0.0625243 0
M  V30 3 C -6.3577 0.73499 0.599412 0
M  V30 4 C -7.37613 0.649831 -0.513647 0
M  V30 5 C -6.33994 -0.167433 -1.28364 0
M  V30 6 C -4.33919 -0.671133 0.0894692 0
M  V30 7 N -3.54123 -0.530562 1.17726 0
M  V30 8 O -2.31357 -0.665589 0.781842 0
M  V30 9 C -2.2582 -0.889865 -0.516649 0
M  V30 10 N -3.5265 -0.893942 -0.951481 0
M  V30 11 C -1.03213 -1.09647 -1.34479 0
M  V30 12 S -0.558108 0.576505 -1.92255 0
M  V30 13 C -0.0866591 1.51345 -0.450985 0
M  V30 14 C 1.18109 0.955871 0.157064 0
M  V30 15 O 2.25809 1.02619 -0.753374 0
M  V30 16 C 3.53853 0.600337 -0.459718 0
M  V30 17 C 4.49517 0.729558 -1.45109 0
M  V30 18 C 5.80656 0.334672 -1.24699 0
M  V30 19 C 6.19325 -0.204662 -0.0367836 0
M  V30 20 C 5.24931 -0.338591 0.954838 0
M  V30 21 C 3.93349 0.0688376 0.722603 0
M  V30 22 S 7.81569 -0.71643 0.287318 0
M  V30 23 O 8.49335 -1.28306 -0.922613 0
M  V30 24 O 7.79084 -1.82888 1.32303 0
M  V30 25 N 8.80041 0.539987 0.940878 0
M  V30 26 H -6.05939 -2.57777 0.269824 0
M  V30 27 H -6.45647 -1.71038 1.67347 0
M  V30 28 H -6.75807 0.649234 1.62312 0
M  V30 29 H -5.6462 1.58744 0.46053 0
M  V30 30 H -8.23005 0.0135265 -0.218853 0
M  V30 31 H -7.63446 1.61569 -0.983336 0
M  V30 32 H -6.76823 -1.03047 -1.82607 0
M  V30 33 H -5.64607 0.438617 -1.87627 0
M  V30 34 H -1.21796 -1.74219 -2.21911 0
M  V30 35 H -0.270139 -1.52498 -0.696289 0
M  V30 36 H -0.0188548 2.60206 -0.627578 0
M  V30 37 H -0.934609 1.3795 0.289572 0
M  V30 38 H 1.04217 -0.100645 0.441431 0
M  V30 39 H 1.42146 1.50523 1.09365 0
M  V30 40 H 4.27558 1.14664 -2.43707 0
M  V30 41 H 6.56713 0.42381 -1.9979 0
M  V30 42 H 5.46899 -0.752994 1.93794 0
M  V30 43 H 3.17407 -0.0256011 1.50265 0
M  V30 44 H 8.38651 1.48433 0.817813 0
M  V30 45 H 9.7863 0.486077 0.579148 0
M  V30 END ATOM
M  V30 BEGIN BOND
M  V30 1 1 1 2
M  V30 2 1 2 3
M  V30 3 1 3 4
M  V30 4 1 4 5
M  V30 5 1 2 6
M  V30 6 2 6 7
M  V30 7 1 7 8
M  V30 8 1 8 9
M  V30 9 2 9 10
M  V30 10 1 9 11
M  V30 11 1 11 12
M  V30 12 1 12 13
M  V30 13 1 13 14
M  V30 14 1 14 15
M  V30 15 1 15 16
M  V30 16 2 16 17
M  V30 17 1 17 18
M  V30 18 2 18 19
M  V30 19 1 19 20
M  V30 20 2 20 21
M  V30 21 1 19 22
M  V30 22 2 22 23
M  V30 23 2 22 24
M  V30 24 1 22 25
M  V30 25 1 5 2
M  V30 26 1 10 6
M  V30 27 1 21 16
M  V30 28 1 1 26
M  V30 29 1 1 27
M  V30 30 1 3 28
M  V30 31 1 3 29
M  V30 32 1 4 30
M  V30 33 1 4 31
M  V30 34 1 5 32
M  V30 35 1 5 33
M  V30 36 1 11 34
M  V30 37 1 11 35
M  V30 38 1 13 36
M  V30 39 1 13 37
M  V30 40 1 14 38
M  V30 41 1 14 39
M  V30 42 1 17 40
M  V30 43 1 18 41
M  V30 44 1 20 42
M  V30 45 1 21 43
M  V30 46 1 25 44
M  V30 47 1 25 45
M  V30 END BOND
M  V30 END CTAB
M  END
