
     RDKit          3D

  0  0  0  0  0  0  0  0  0  0999 V3000
M  V30 BEGIN CTAB
M  V30 COUNTS 18 18 0 0 0
M  V30 BEGIN ATOM
M  V30 1 N 3.08279 2.28053 0.289354 0
M  V30 2 C 2.12559 1.63566 0.192528 0
M  V30 3 C 0.924592 0.842331 0.0619798 0
M  V30 4 C 0.960917 -0.536016 0.0585873 0
M  V30 5 N 2.21658 -1.18694 0.187281 0
M  V30 6 C -0.164388 -1.3264 -0.0639627 0
M  V30 7 C -1.3986 -0.735684 -0.19075 0
M  V30 8 C -1.45188 0.632858 -0.189193 0
M  V30 9 C -0.319983 1.42218 -0.0659538 0
M  V30 10 O -0.408581 2.79766 -0.0680831 0
M  V30 11 N -2.59493 -1.48862 -0.320569 0
M  V30 12 H 2.57022 -1.33623 1.15487 0
M  V30 13 H 2.71427 -1.47852 -0.680196 0
M  V30 14 H -0.137021 -2.4105 -0.0667446 0
M  V30 15 H -2.43855 1.09545 -0.290601 0
M  V30 16 H 0.383577 3.38654 0.0183485 0
M  V30 17 H -3.52463 -1.11072 -0.0726481 0
M  V30 18 H -2.53998 -2.48357 -0.687494 0
M  V30 END ATOM
M  V30 BEGIN BOND
M  V30 1 3 1 2
M  V30 2 1 2 3
M  V30 3 2 3 4
M  V30 4 1 4 5
M  V30 5 1 4 6
M  V30 6 2 6 7
M  V30 7 1 7 8
M  V30 8 2 8 9
M  V30 9 1 9 10
M  V30 10 1 7 11
M  V30 11 1 9 3
M  V30 12 1 5 12
M  V30 13 1 5 13
M  V30 14 1 6 14
M  V30 15 1 8 15
M  V30 16 1 10 16
M  V30 17 1 11 17
M  V30 18 1 11 18
M  V30 END BOND
M  V30 END CTAB
M  END
