
     RDKit          3D

  0  0  0  0  0  0  0  0  0  0999 V3000
M  V30 BEGIN CTAB
M  V30 COUNTS 30 31 0 0 0
M  V30 BEGIN ATOM
M  V30 1 C -2.90084 1.33511 1.86805 0
M  V30 2 C -3.15067 -0.0193775 1.30728 0
M  V30 3 C -2.24419 -0.332215 0.13569 0 CFG=2
M  V30 4 C -2.473 -1.71834 -0.468032 0
M  V30 5 C -1.24401 -1.43357 0.311584 0 CFG=1
M  V30 6 N 0.01707 -1.40687 -0.410932 0
M  V30 7 C 0.92575 -0.329108 -0.226218 0
M  V30 8 N 0.621076 0.666233 0.616445 0
M  V30 9 C 1.44088 1.72363 0.840091 0
M  V30 10 C 2.65375 1.78743 0.170323 0
M  V30 11 C 2.98054 0.760581 -0.706337 0
M  V30 12 C 2.12158 -0.298331 -0.907996 0
M  V30 13 N 2.43645 -1.35884 -1.80006 0
M  V30 14 N 4.22765 0.834295 -1.3896 0
M  V30 15 H -3.56689 1.49974 2.71887 0
M  V30 16 H -1.87734 1.43272 2.18918 0
M  V30 17 H -3.12143 2.08581 1.10727 0
M  V30 18 H -4.22336 -0.0405706 0.957323 0
M  V30 19 H -3.01877 -0.765874 2.11233 0
M  V30 20 H -2.02737 0.485872 -0.579859 0
M  V30 21 H -2.34396 -1.80737 -1.55949 0
M  V30 22 H -3.22826 -2.37029 0.00453728 0
M  V30 23 H -1.16719 -1.90994 1.31876 0
M  V30 24 H 0.277522 -2.18575 -1.08285 0
M  V30 25 H 1.14121 2.48344 1.52276 0
M  V30 26 H 3.30918 2.62772 0.345731 0
M  V30 27 H 3.16618 -2.05359 -1.58032 0
M  V30 28 H 1.89871 -1.41025 -2.69284 0
M  V30 29 H 4.29778 1.25154 -2.34511 0
M  V30 30 H 5.07197 0.466157 -0.924109 0
M  V30 END ATOM
M  V30 BEGIN BOND
M  V30 1 1 1 2
M  V30 2 1 2 3
M  V30 3 1 3 4
M  V30 4 1 4 5
M  V30 5 1 5 6
M  V30 6 1 6 7
M  V30 7 2 7 8
M  V30 8 1 8 9
M  V30 9 2 9 10
M  V30 10 1 10 11
M  V30 11 2 11 12
M  V30 12 1 12 13
M  V30 13 1 11 14
M  V30 14 1 5 3
M  V30 15 1 12 7
M  V30 16 1 1 15
M  V30 17 1 1 16
M  V30 18 1 1 17
M  V30 19 1 2 18
M  V30 20 1 2 19
M  V30 21 1 3 20 CFG=3
M  V30 22 1 4 21
M  V30 23 1 4 22
M  V30 24 1 5 23 CFG=1
M  V30 25 1 6 24
M  V30 26 1 9 25
M  V30 27 1 10 26
M  V30 28 1 13 27
M  V30 29 1 13 28
M  V30 30 1 14 29
M  V30 31 1 14 30
M  V30 END BOND
M  V30 END CTAB
M  END
