
     RDKit          3D

  0  0  0  0  0  0  0  0  0  0999 V3000
M  V30 BEGIN CTAB
M  V30 COUNTS 32 33 0 0 0
M  V30 BEGIN ATOM
M  V30 1 C -1.96712 -2.77908 -1.17228 0
M  V30 2 S -2.40411 -2.07693 0.389745 0
M  V30 3 C -2.20019 -0.342937 0.576872 0
M  V30 4 N -3.19295 0.504515 0.209045 0
M  V30 5 C -3.13665 1.84569 0.378597 0
M  V30 6 N -4.21415 2.69025 -0.00810706 0
M  V30 7 N -2.01611 2.35488 0.948982 0
M  V30 8 C -0.994028 1.59151 1.33698 0
M  V30 9 C -1.08415 0.187113 1.14645 0
M  V30 10 C 0.0734351 -0.632981 1.50347 0
M  V30 11 C 1.20453 -0.576455 0.556255 0
M  V30 12 C 2.47393 -0.479271 1.14811 0
M  V30 13 C 3.62421 -0.342139 0.40846 0
M  V30 14 C 3.54303 -0.296807 -0.968974 0
M  V30 15 C 2.31422 -0.38968 -1.56856 0
M  V30 16 C 1.15508 -0.52965 -0.79638 0
M  V30 17 O 4.67249 -0.159411 -1.77055 0
M  V30 18 N 0.208139 2.04574 1.89695 0
M  V30 19 H -0.892815 -2.70117 -1.43973 0
M  V30 20 H -2.65422 -2.50712 -2.00418 0
M  V30 21 H -2.12205 -3.89724 -1.06523 0
M  V30 22 H -4.06685 3.53133 -0.590068 0
M  V30 23 H -5.16327 2.43832 0.317885 0
M  V30 24 H 0.409231 -0.445392 2.56133 0
M  V30 25 H -0.238011 -1.71443 1.5085 0
M  V30 26 H 2.58003 -0.51315 2.22301 0
M  V30 27 H 4.60243 -0.276488 0.883145 0
M  V30 28 H 2.25324 -0.353135 -2.64306 0
M  V30 29 H 0.222384 -0.58547 -1.29149 0
M  V30 30 H 5.58693 -0.0830721 -1.29728 0
M  V30 31 H 0.898689 2.51218 1.24647 0
M  V30 32 H 0.524672 1.98048 2.88246 0
M  V30 END ATOM
M  V30 BEGIN BOND
M  V30 1 1 1 2
M  V30 2 1 2 3
M  V30 3 2 3 4
M  V30 4 1 4 5
M  V30 5 1 5 6
M  V30 6 2 5 7
M  V30 7 1 7 8
M  V30 8 2 8 9
M  V30 9 1 9 10
M  V30 10 1 10 11
M  V30 11 2 11 12
M  V30 12 1 12 13
M  V30 13 2 13 14
M  V30 14 1 14 15
M  V30 15 2 15 16
M  V30 16 1 14 17
M  V30 17 1 8 18
M  V30 18 1 9 3
M  V30 19 1 16 11
M  V30 20 1 1 19
M  V30 21 1 1 20
M  V30 22 1 1 21
M  V30 23 1 6 22
M  V30 24 1 6 23
M  V30 25 1 10 24
M  V30 26 1 10 25
M  V30 27 1 12 26
M  V30 28 1 13 27
M  V30 29 1 15 28
M  V30 30 1 16 29
M  V30 31 1 17 30
M  V30 32 1 18 31
M  V30 33 1 18 32
M  V30 END BOND
M  V30 END CTAB
M  END
