
     RDKit          3D

  0  0  0  0  0  0  0  0  0  0999 V3000
M  V30 BEGIN CTAB
M  V30 COUNTS 38 40 0 0 0
M  V30 BEGIN ATOM
M  V30 1 N -4.56429 2.16169 -0.983043 0
M  V30 2 C -3.7484 1.06869 -0.55967 0
M  V30 3 C -2.38139 1.11906 -0.535841 0
M  V30 4 C -1.62207 0.0474146 -0.12199 0
M  V30 5 C -2.28725 -1.09436 0.273463 0
M  V30 6 C -3.65982 -1.19737 0.26864 0
M  V30 7 C -4.37681 -0.0994493 -0.153477 0
M  V30 8 C -5.87838 -0.190985 -0.166435 0
M  V30 9 N -4.35838 -2.35571 0.669087 0
M  V30 10 C -0.147614 0.112208 -0.100127 0
M  V30 11 N 0.674056 -0.873659 0.28454 0
M  V30 12 C 1.96506 -0.483607 0.182144 0
M  V30 13 C 1.92 0.816024 -0.29296 0
M  V30 14 N 0.627626 1.14998 -0.454505 0
M  V30 15 C 3.13056 1.45187 -0.487429 0
M  V30 16 C 4.34315 0.835522 -0.225406 0
M  V30 17 C 4.36258 -0.460718 0.247677 0
M  V30 18 C 3.16856 -1.1214 0.451703 0
M  V30 19 C 5.68766 -1.11692 0.52766 0
M  V30 20 C 5.64098 1.51734 -0.433943 0
M  V30 21 H -5.2471 2.08911 -1.77066 0
M  V30 22 H -4.44857 3.0594 -0.460956 0
M  V30 23 H -1.88898 2.02623 -0.851147 0
M  V30 24 H -1.69562 -1.9266 0.594923 0
M  V30 25 H -6.19481 -0.832377 0.674293 0
M  V30 26 H -6.2978 0.821059 -0.145702 0
M  V30 27 H -6.12838 -0.74014 -1.10044 0
M  V30 28 H -4.98473 -2.30586 1.48736 0
M  V30 29 H -4.25371 -3.2457 0.160373 0
M  V30 30 H 0.38617 -1.82139 0.621132 0
M  V30 31 H 3.14832 2.47082 -0.858299 0
M  V30 32 H 3.1874 -2.13718 0.822525 0
M  V30 33 H 6.32926 -1.06508 -0.391899 0
M  V30 34 H 5.53341 -2.20053 0.710892 0
M  V30 35 H 6.13223 -0.57975 1.37745 0
M  V30 36 H 6.17007 1.67575 0.530427 0
M  V30 37 H 5.41623 2.49703 -0.92365 0
M  V30 38 H 6.3408 0.929577 -1.06955 0
M  V30 END ATOM
M  V30 BEGIN BOND
M  V30 1 1 1 2
M  V30 2 2 2 3
M  V30 3 1 3 4
M  V30 4 2 4 5
M  V30 5 1 5 6
M  V30 6 2 6 7
M  V30 7 1 7 8
M  V30 8 1 6 9
M  V30 9 1 4 10
M  V30 10 1 10 11
M  V30 11 1 11 12
M  V30 12 2 12 13
M  V30 13 1 13 14
M  V30 14 1 13 15
M  V30 15 2 15 16
M  V30 16 1 16 17
M  V30 17 2 17 18
M  V30 18 1 17 19
M  V30 19 1 16 20
M  V30 20 1 7 2
M  V30 21 2 14 10
M  V30 22 1 18 12
M  V30 23 1 1 21
M  V30 24 1 1 22
M  V30 25 1 3 23
M  V30 26 1 5 24
M  V30 27 1 8 25
M  V30 28 1 8 26
M  V30 29 1 8 27
M  V30 30 1 9 28
M  V30 31 1 9 29
M  V30 32 1 11 30
M  V30 33 1 15 31
M  V30 34 1 18 32
M  V30 35 1 19 33
M  V30 36 1 19 34
M  V30 37 1 19 35
M  V30 38 1 20 36
M  V30 39 1 20 37
M  V30 40 1 20 38
M  V30 END BOND
M  V30 END CTAB
M  END
