
     RDKit          3D

  0  0  0  0  0  0  0  0  0  0999 V3000
M  V30 BEGIN CTAB
M  V30 COUNTS 34 35 0 0 0
M  V30 BEGIN ATOM
M  V30 1 N -5.24128 -1.74618 0.407718 0
M  V30 2 C -4.0282 -1.04806 0.174425 0
M  V30 3 C -2.83705 -1.72948 0.151153 0
M  V30 4 C -1.6829 -0.992434 -0.0817763 0
M  V30 5 C -1.66664 0.365103 -0.286828 0
M  V30 6 C -2.90908 0.997469 -0.251268 0
M  V30 7 C -4.07387 0.311643 -0.0254633 0
M  V30 8 N -2.96899 2.39727 -0.454297 0
M  V30 9 N -0.543817 1.15201 -0.558028 0
M  V30 10 C 0.820362 0.799984 -0.47181 0
M  V30 11 C 1.71152 1.29037 -1.40299 0
M  V30 12 C 3.04566 0.986809 -1.30351 0
M  V30 13 C 3.51872 0.192364 -0.279727 0
M  V30 14 C 2.61478 -0.28827 0.641503 0
M  V30 15 C 1.27871 0.015814 0.54254 0
M  V30 16 C 3.13349 -1.14482 1.74319 0
M  V30 17 C 4.98211 -0.117213 -0.205179 0
M  V30 18 H -5.51588 -2.47795 -0.281237 0
M  V30 19 H -5.87466 -1.5789 1.21706 0
M  V30 20 H -2.7725 -2.81203 0.307314 0
M  V30 21 H -0.742956 -1.52471 -0.125344 0
M  V30 22 H -5.0238 0.800633 0.000884587 0
M  V30 23 H -3.21322 2.99507 0.364599 0
M  V30 24 H -2.77932 2.83545 -1.38109 0
M  V30 25 H -0.686708 2.16942 -0.879447 0
M  V30 26 H 1.3502 1.9312 -2.23391 0
M  V30 27 H 3.73879 1.38517 -2.05218 0
M  V30 28 H 0.605926 -0.381336 1.32166 0
M  V30 29 H 3.08409 -2.22064 1.43625 0
M  V30 30 H 4.15725 -0.868639 2.04538 0
M  V30 31 H 2.48765 -0.978006 2.6289 0
M  V30 32 H 5.55767 0.652238 0.306069 0
M  V30 33 H 5.37748 -0.229715 -1.25594 0
M  V30 34 H 5.09644 -1.13966 0.24137 0
M  V30 END ATOM
M  V30 BEGIN BOND
M  V30 1 1 1 2
M  V30 2 2 2 3
M  V30 3 1 3 4
M  V30 4 2 4 5
M  V30 5 1 5 6
M  V30 6 2 6 7
M  V30 7 1 6 8
M  V30 8 1 5 9
M  V30 9 1 9 10
M  V30 10 2 10 11
M  V30 11 1 11 12
M  V30 12 2 12 13
M  V30 13 1 13 14
M  V30 14 2 14 15
M  V30 15 1 14 16
M  V30 16 1 13 17
M  V30 17 1 7 2
M  V30 18 1 15 10
M  V30 19 1 1 18
M  V30 20 1 1 19
M  V30 21 1 3 20
M  V30 22 1 4 21
M  V30 23 1 7 22
M  V30 24 1 8 23
M  V30 25 1 8 24
M  V30 26 1 9 25
M  V30 27 1 11 26
M  V30 28 1 12 27
M  V30 29 1 15 28
M  V30 30 1 16 29
M  V30 31 1 16 30
M  V30 32 1 16 31
M  V30 33 1 17 32
M  V30 34 1 17 33
M  V30 35 1 17 34
M  V30 END BOND
M  V30 END CTAB
M  END
