
     RDKit          3D

  0  0  0  0  0  0  0  0  0  0999 V3000
M  V30 BEGIN CTAB
M  V30 COUNTS 52 54 0 0 0
M  V30 BEGIN ATOM
M  V30 1 C 7.40784 0.0742878 -0.282284 0
M  V30 2 C 7.12172 -0.92712 -1.37819 0
M  V30 3 C 6.45337 -2.1326 -0.774399 0
M  V30 4 C 5.17056 -1.75175 -0.109665 0
M  V30 5 C 4.17366 -1.13317 -1.0371 0
M  V30 6 C 2.91439 -0.788871 -0.266456 0
M  V30 7 O 1.95153 -0.198596 -1.13038 0
M  V30 8 C 0.721993 0.191554 -0.618135 0
M  V30 9 C 0.419005 0.0126476 0.730103 0
M  V30 10 C -0.821867 0.409361 1.23385 0
M  V30 11 C -1.76294 0.976683 0.432059 0
M  V30 12 C -1.47622 1.15956 -0.904072 0
M  V30 13 C -0.253794 0.766428 -1.39006 0
M  V30 14 C -3.07119 1.38096 1.02501 0
M  V30 15 C -3.51298 2.68683 0.523118 0
M  V30 16 C -4.64671 2.95043 -0.0941689 0
M  V30 17 N -4.96871 4.26665 -0.540151 0
M  V30 18 O -5.52128 1.89488 -0.294791 0
M  V30 19 C -5.22968 0.608691 0.131799 0
M  V30 20 C -4.05949 0.303428 0.777571 0
M  V30 21 C -3.78341 -1.00255 1.2024 0
M  V30 22 C -4.68838 -2.01098 0.977246 0
M  V30 23 C -5.88981 -1.72247 0.319326 0
M  V30 24 C -6.13313 -0.434972 -0.0849155 0
M  V30 25 N -6.83913 -2.74922 0.0761427 0
M  V30 26 C -2.61794 3.80371 0.722607 0
M  V30 27 N -1.889 4.69136 0.891328 0
M  V30 28 H 6.51832 0.69634 -0.163676 0
M  V30 29 H 8.2765 0.718416 -0.594656 0
M  V30 30 H 7.61892 -0.471069 0.64361 0
M  V30 31 H 8.11005 -1.18429 -1.82 0
M  V30 32 H 6.5092 -0.50662 -2.18857 0
M  V30 33 H 6.34799 -2.91399 -1.53501 0
M  V30 34 H 7.14266 -2.49 0.0464864 0
M  V30 35 H 5.36416 -1.07814 0.750512 0
M  V30 36 H 4.69798 -2.70179 0.276623 0
M  V30 37 H 3.90512 -1.88011 -1.79988 0
M  V30 38 H 4.59802 -0.267832 -1.5532 0
M  V30 39 H 3.19231 -0.117334 0.567266 0
M  V30 40 H 2.47482 -1.71177 0.158935 0
M  V30 41 H 1.17231 -0.435103 1.34358 0
M  V30 42 H -1.00558 0.24373 2.30531 0
M  V30 43 H -2.24521 1.61217 -1.51051 0
M  V30 44 H -0.0312886 0.910702 -2.43736 0
M  V30 45 H -2.91547 1.39915 2.13974 0
M  V30 46 H -4.58092 4.63431 -1.43712 0
M  V30 47 H -5.5842 4.88111 0.00373319 0
M  V30 48 H -2.84553 -1.21229 1.7161 0
M  V30 49 H -4.51322 -3.04612 1.29224 0
M  V30 50 H -7.04535 -0.18621 -0.590948 0
M  V30 51 H -7.83293 -2.54821 0.246207 0
M  V30 52 H -6.49706 -3.67021 -0.265893 0
M  V30 END ATOM
M  V30 BEGIN BOND
M  V30 1 1 1 2
M  V30 2 1 2 3
M  V30 3 1 3 4
M  V30 4 1 4 5
M  V30 5 1 5 6
M  V30 6 1 6 7
M  V30 7 1 7 8
M  V30 8 2 8 9
M  V30 9 1 9 10
M  V30 10 2 10 11
M  V30 11 1 11 12
M  V30 12 2 12 13
M  V30 13 1 11 14
M  V30 14 1 14 15
M  V30 15 2 15 16
M  V30 16 1 16 17
M  V30 17 1 16 18
M  V30 18 1 18 19
M  V30 19 2 19 20
M  V30 20 1 20 21
M  V30 21 2 21 22
M  V30 22 1 22 23
M  V30 23 2 23 24
M  V30 24 1 23 25
M  V30 25 1 15 26
M  V30 26 3 26 27
M  V30 27 1 13 8
M  V30 28 1 20 14
M  V30 29 1 24 19
M  V30 30 1 1 28
M  V30 31 1 1 29
M  V30 32 1 1 30
M  V30 33 1 2 31
M  V30 34 1 2 32
M  V30 35 1 3 33
M  V30 36 1 3 34
M  V30 37 1 4 35
M  V30 38 1 4 36
M  V30 39 1 5 37
M  V30 40 1 5 38
M  V30 41 1 6 39
M  V30 42 1 6 40
M  V30 43 1 9 41
M  V30 44 1 10 42
M  V30 45 1 12 43
M  V30 46 1 13 44
M  V30 47 1 14 45
M  V30 48 1 17 46
M  V30 49 1 17 47
M  V30 50 1 21 48
M  V30 51 1 22 49
M  V30 52 1 24 50
M  V30 53 1 25 51
M  V30 54 1 25 52
M  V30 END BOND
M  V30 END CTAB
M  END
