
     RDKit          3D

  0  0  0  0  0  0  0  0  0  0999 V3000
M  V30 BEGIN CTAB
M  V30 COUNTS 18 18 0 0 0
M  V30 BEGIN ATOM
M  V30 1 N -1.41942 -1.88921 0.344862 0
M  V30 2 C -1.30662 -0.483002 0.208765 0
M  V30 3 N -2.1834 0.179741 0.902583 0
M  V30 4 N -2.23581 1.5786 0.901362 0
M  V30 5 C -0.361408 0.252715 -0.583716 0
M  V30 6 N 1.01855 0.093167 -0.303825 0
M  V30 7 C 1.95038 -0.75088 -0.764673 0
M  V30 8 N 3.1298 -0.509969 -0.187574 0
M  V30 9 C 2.93598 0.506014 0.653169 0
M  V30 10 N 1.65876 0.856171 0.569801 0
M  V30 11 H -1.4771 -2.4969 -0.485044 0
M  V30 12 H -1.4442 -2.31169 1.29257 0
M  V30 13 H -2.57647 2.06416 0.0477202 0
M  V30 14 H -1.93535 2.08865 1.74647 0
M  V30 15 H -0.573144 -0.00197382 -1.67209 0
M  V30 16 H -0.59793 1.33274 -0.533515 0
M  V30 17 H 1.75925 -1.50935 -1.49584 0
M  V30 18 H 3.65812 1.00101 1.31451 0
M  V30 END ATOM
M  V30 BEGIN BOND
M  V30 1 1 1 2
M  V30 2 2 2 3 CFG=2
M  V30 3 1 3 4
M  V30 4 1 2 5
M  V30 5 1 5 6
M  V30 6 1 6 7
M  V30 7 2 7 8
M  V30 8 1 8 9
M  V30 9 2 9 10
M  V30 10 1 10 6
M  V30 11 1 1 11
M  V30 12 1 1 12
M  V30 13 1 4 13
M  V30 14 1 4 14
M  V30 15 1 5 15
M  V30 16 1 5 16
M  V30 17 1 7 17
M  V30 18 1 9 18
M  V30 END BOND
M  V30 END CTAB
M  END
