
     RDKit          3D

  0  0  0  0  0  0  0  0  0  0999 V3000
M  V30 BEGIN CTAB
M  V30 COUNTS 30 31 0 0 0
M  V30 BEGIN ATOM
M  V30 1 N -5.35269 0.0733685 0.160515 0
M  V30 2 C -3.92892 0.218275 0.18681 0
M  V30 3 C -3.07142 -0.770914 -0.198863 0
M  V30 4 N -3.63076 -2.00123 -0.646843 0
M  V30 5 N -1.73474 -0.621078 -0.169047 0
M  V30 6 C -1.17451 0.524958 0.247471 0
M  V30 7 N 0.233631 0.651446 0.267179 0
M  V30 8 C 1.04386 -0.442543 -0.156631 0
M  V30 9 C 2.50335 -0.213979 -0.0755022 0
M  V30 10 C 3.09537 0.737393 0.721476 0
M  V30 11 C 4.48415 0.916805 0.757261 0
M  V30 12 C 5.30959 0.139667 -0.0109037 0
M  V30 13 F 6.64805 0.318831 0.0291825 0
M  V30 14 C 4.73326 -0.812429 -0.809706 0
M  V30 15 C 3.36743 -0.998006 -0.853163 0
M  V30 16 C -2.00453 1.55314 0.647148 0
M  V30 17 C -3.37595 1.40903 0.620151 0
M  V30 18 H -5.84763 0.101355 -0.759424 0
M  V30 19 H -5.85726 -0.0551951 1.04849 0
M  V30 20 H -3.9475 -2.04137 -1.63807 0
M  V30 21 H -3.73859 -2.84493 -0.0518268 0
M  V30 22 H 0.628985 1.55224 0.592136 0
M  V30 23 H 0.799236 -0.63706 -1.22737 0
M  V30 24 H 0.771716 -1.36765 0.39854 0
M  V30 25 H 2.46953 1.36558 1.34366 0
M  V30 26 H 4.87051 1.69219 1.41524 0
M  V30 27 H 5.40896 -1.42578 -1.41806 0
M  V30 28 H 2.91163 -1.74254 -1.47738 0
M  V30 29 H -1.59591 2.50743 0.995117 0
M  V30 30 H -4.01884 2.213 0.932555 0
M  V30 END ATOM
M  V30 BEGIN BOND
M  V30 1 1 1 2
M  V30 2 2 2 3
M  V30 3 1 3 4
M  V30 4 1 3 5
M  V30 5 2 5 6
M  V30 6 1 6 7
M  V30 7 1 7 8
M  V30 8 1 8 9
M  V30 9 2 9 10
M  V30 10 1 10 11
M  V30 11 2 11 12
M  V30 12 1 12 13
M  V30 13 1 12 14
M  V30 14 2 14 15
M  V30 15 1 6 16
M  V30 16 2 16 17
M  V30 17 1 17 2
M  V30 18 1 15 9
M  V30 19 1 1 18
M  V30 20 1 1 19
M  V30 21 1 4 20
M  V30 22 1 4 21
M  V30 23 1 7 22
M  V30 24 1 8 23
M  V30 25 1 8 24
M  V30 26 1 10 25
M  V30 27 1 11 26
M  V30 28 1 14 27
M  V30 29 1 15 28
M  V30 30 1 16 29
M  V30 31 1 17 30
M  V30 END BOND
M  V30 END CTAB
M  END
