
     RDKit          3D

  0  0  0  0  0  0  0  0  0  0999 V3000
M  V30 BEGIN CTAB
M  V30 COUNTS 20 20 0 0 0
M  V30 BEGIN ATOM
M  V30 1 F -3.34125 0.855366 1.91448 0
M  V30 2 C -2.40051 1.39452 1.037 0
M  V30 3 O -1.99827 0.476648 0.0714542 0
M  V30 4 C -0.702809 0.0746937 -0.0794043 0
M  V30 5 C 0.364563 0.495281 0.667238 0
M  V30 6 C 1.67651 0.0448564 0.46422 0
M  V30 7 N 2.73423 0.547304 1.30331 0
M  V30 8 C 1.93386 -0.8687 -0.531625 0
M  V30 9 C 0.87737 -1.30746 -1.29667 0
M  V30 10 C -0.404235 -0.857689 -1.08704 0
M  V30 11 N -1.50535 -1.30367 -1.87136 0
M  V30 12 Br 3.6879 -1.50433 -0.841753 0
M  V30 13 F -3.01843 2.43749 0.341679 0
M  V30 14 H -1.60038 1.78516 1.68372 0
M  V30 15 H 0.243261 1.2114 1.46739 0
M  V30 16 H 3.11363 0.0170261 2.09821 0
M  V30 17 H 3.12968 1.48582 1.0952 0
M  V30 18 H 1.05402 -2.03856 -2.10074 0
M  V30 19 H -2.18324 -2.00293 -1.50179 0
M  V30 20 H -1.66055 -0.942216 -2.83352 0
M  V30 END ATOM
M  V30 BEGIN BOND
M  V30 1 1 1 2
M  V30 2 1 2 3
M  V30 3 1 3 4
M  V30 4 2 4 5
M  V30 5 1 5 6
M  V30 6 1 6 7
M  V30 7 2 6 8
M  V30 8 1 8 9
M  V30 9 2 9 10
M  V30 10 1 10 11
M  V30 11 1 8 12
M  V30 12 1 2 13
M  V30 13 1 10 4
M  V30 14 1 2 14
M  V30 15 1 5 15
M  V30 16 1 7 16
M  V30 17 1 7 17
M  V30 18 1 9 18
M  V30 19 1 11 19
M  V30 20 1 11 20
M  V30 END BOND
M  V30 END CTAB
M  END
