
     RDKit          3D

  0  0  0  0  0  0  0  0  0  0999 V3000
M  V30 BEGIN CTAB
M  V30 COUNTS 32 34 0 0 0
M  V30 BEGIN ATOM
M  V30 1 O 0.96309 -2.18734 -2.53722 0
M  V30 2 C 0.139711 -1.75915 -1.71808 0
M  V30 3 N -0.899391 -0.827647 -2.04921 0
M  V30 4 C -1.48674 -0.107962 -0.950266 0
M  V30 5 N -2.61097 0.62317 -1.15508 0
M  V30 6 C -3.34377 1.17647 -0.178269 0
M  V30 7 N -4.51114 1.93228 -0.455921 0
M  V30 8 N -2.91295 0.977379 1.09229 0
M  V30 9 C -1.82259 0.276779 1.36817 0
M  V30 10 C -1.07639 -0.281047 0.350197 0
M  V30 11 C 0.207036 -0.978509 0.62156 0
M  V30 12 C 0.208113 -2.22299 -0.307012 0
M  V30 13 C 1.43413 -0.204619 0.274193 0
M  V30 14 C 2.57732 -0.90243 -0.164324 0
M  V30 15 C 3.75754 -0.260186 -0.424528 0
M  V30 16 C 3.90017 1.09801 -0.273583 0
M  V30 17 C 2.82153 1.80851 0.148573 0
M  V30 18 C 1.61672 1.14409 0.411545 0
M  V30 19 F 0.55831 1.9119 0.799794 0
M  V30 20 Cl 5.45304 1.85368 -0.628074 0
M  V30 21 N -1.49779 0.0862486 2.76375 0
M  V30 22 H -1.17948 -0.709086 -3.02081 0
M  V30 23 H -5.12902 1.71591 -1.26214 0
M  V30 24 H -4.75955 2.72799 0.164144 0
M  V30 25 H 0.268693 -1.34755 1.62395 0
M  V30 26 H 0.939685 -2.9248 -0.115955 0
M  V30 27 H -0.801112 -2.70324 -0.103876 0
M  V30 28 H 2.48566 -1.97198 -0.254229 0
M  V30 29 H 4.61762 -0.856611 -0.765628 0
M  V30 30 H 2.86195 2.86237 0.287243 0
M  V30 31 H -1.46221 0.929692 3.37037 0
M  V30 32 H -1.31722 -0.879332 3.08842 0
M  V30 END ATOM
M  V30 BEGIN BOND
M  V30 1 2 1 2
M  V30 2 1 2 3
M  V30 3 1 3 4
M  V30 4 2 4 5
M  V30 5 1 5 6
M  V30 6 1 6 7
M  V30 7 2 6 8
M  V30 8 1 8 9
M  V30 9 2 9 10
M  V30 10 1 10 11
M  V30 11 1 11 12
M  V30 12 1 11 13
M  V30 13 2 13 14
M  V30 14 1 14 15
M  V30 15 2 15 16
M  V30 16 1 16 17
M  V30 17 2 17 18
M  V30 18 1 18 19
M  V30 19 1 16 20
M  V30 20 1 9 21
M  V30 21 1 12 2
M  V30 22 1 18 13
M  V30 23 1 10 4
M  V30 24 1 3 22
M  V30 25 1 7 23
M  V30 26 1 7 24
M  V30 27 1 11 25
M  V30 28 1 12 26
M  V30 29 1 12 27
M  V30 30 1 14 28
M  V30 31 1 15 29
M  V30 32 1 17 30
M  V30 33 1 21 31
M  V30 34 1 21 32
M  V30 END BOND
M  V30 END CTAB
M  END
