
     RDKit          3D

  0  0  0  0  0  0  0  0  0  0999 V3000
M  V30 BEGIN CTAB
M  V30 COUNTS 31 32 0 0 0
M  V30 BEGIN ATOM
M  V30 1 C -2.42656 -0.927893 1.15057 0
M  V30 2 C -3.06431 -1.14643 -0.17647 0
M  V30 3 S -1.90511 -1.13104 -1.53576 0
M  V30 4 O -0.995946 -2.29625 -1.47066 0
M  V30 5 O -2.79791 -1.20418 -2.77751 0
M  V30 6 C -1.12221 0.422621 -1.56233 0
M  V30 7 S -1.73115 1.8164 -2.39708 0
M  V30 8 C -0.522549 2.93527 -1.94671 0
M  V30 9 N 0.25836 2.20191 -1.20501 0
M  V30 10 C 0.000617777 0.937192 -0.983854 0
M  V30 11 C 0.92595 0.167488 -0.095503 0
M  V30 12 C 1.13314 0.616408 1.21387 0
M  V30 13 C 2.00026 -0.00283831 2.06523 0
M  V30 14 C 2.70803 -1.10654 1.65173 0
M  V30 15 C 2.51136 -1.5564 0.362379 0
M  V30 16 C 1.62295 -0.928661 -0.524831 0
M  V30 17 N 3.61294 -1.75423 2.54011 0
M  V30 18 N -0.411034 4.33126 -2.30526 0
M  V30 19 H -1.49258 -1.53829 1.28302 0
M  V30 20 H -3.12334 -1.29627 1.93248 0
M  V30 21 H -2.22803 0.14418 1.37581 0
M  V30 22 H -3.54376 -2.16254 -0.164998 0
M  V30 23 H -3.81679 -0.374484 -0.355811 0
M  V30 24 H 0.58964 1.488 1.57599 0
M  V30 25 H 2.12093 0.383691 3.05954 0
M  V30 26 H 3.03528 -2.41561 -0.0220839 0
M  V30 27 H 1.52845 -1.29954 -1.53693 0
M  V30 28 H 3.2953 -2.51437 3.16931 0
M  V30 29 H 4.5982 -1.4231 2.51979 0
M  V30 30 H -0.915171 5.02559 -1.73183 0
M  V30 31 H 0.155054 4.60867 -3.10721 0
M  V30 END ATOM
M  V30 BEGIN BOND
M  V30 1 1 1 2
M  V30 2 1 2 3
M  V30 3 2 3 4
M  V30 4 2 3 5
M  V30 5 1 3 6
M  V30 6 1 6 7
M  V30 7 1 7 8
M  V30 8 2 8 9
M  V30 9 1 9 10
M  V30 10 1 10 11
M  V30 11 2 11 12
M  V30 12 1 12 13
M  V30 13 2 13 14
M  V30 14 1 14 15
M  V30 15 2 15 16
M  V30 16 1 14 17
M  V30 17 1 8 18
M  V30 18 2 10 6
M  V30 19 1 16 11
M  V30 20 1 1 19
M  V30 21 1 1 20
M  V30 22 1 1 21
M  V30 23 1 2 22
M  V30 24 1 2 23
M  V30 25 1 12 24
M  V30 26 1 13 25
M  V30 27 1 15 26
M  V30 28 1 16 27
M  V30 29 1 17 28
M  V30 30 1 17 29
M  V30 31 1 18 30
M  V30 32 1 18 31
M  V30 END BOND
M  V30 END CTAB
M  END
