
     RDKit          3D

  0  0  0  0  0  0  0  0  0  0999 V3000
M  V30 BEGIN CTAB
M  V30 COUNTS 50 52 0 0 0
M  V30 BEGIN ATOM
M  V30 1 C 7.71734 2.64745 1.56616 0
M  V30 2 O 6.65751 2.41668 0.676587 0
M  V30 3 C 5.95348 1.22097 0.70785 0
M  V30 4 C 4.9323 1.07585 -0.195653 0
M  V30 5 C 4.15259 -0.0881304 -0.258119 0
M  V30 6 N 3.14252 -0.136896 -1.23195 0
M  V30 7 C 2.12937 -1.09522 -1.31699 0
M  V30 8 O 1.96015 -2.0199 -0.499691 0
M  V30 9 N 1.19097 -1.03268 -2.42901 0
M  V30 10 C 0.107002 -1.96908 -2.57707 0
M  V30 11 C -1.02758 -1.50117 -1.73523 0
M  V30 12 C -0.956731 -0.280166 -1.13384 0
M  V30 13 C -2.01791 0.189985 -0.380185 0
M  V30 14 C -3.18002 -0.531296 -0.197879 0
M  V30 15 C -3.22762 -1.76333 -0.813575 0
M  V30 16 C -2.18931 -2.25104 -1.56534 0
M  V30 17 C -4.25245 0.0506974 0.579052 0
M  V30 18 C -5.04563 1.02469 -0.0345886 0
M  V30 19 N -4.73092 1.36918 -1.38629 0
M  V30 20 N -6.06105 1.61318 0.619106 0
M  V30 21 C -6.35655 1.29024 1.88955 0
M  V30 22 N -7.45115 1.94553 2.557 0
M  V30 23 N -5.60389 0.35616 2.49296 0
M  V30 24 C -4.56242 -0.271433 1.87464 0
M  V30 25 C -3.74245 -1.30878 2.5704 0
M  V30 26 C 4.47315 -1.07183 0.636987 0
M  V30 27 C 5.51154 -0.937792 1.56464 0
M  V30 28 C 6.25837 0.215911 1.602 0
M  V30 29 H 7.48665 2.29811 2.57538 0
M  V30 30 H 8.61993 2.16848 1.11517 0
M  V30 31 H 7.91569 3.75762 1.52281 0
M  V30 32 H 4.72842 1.88309 -0.87284 0
M  V30 33 H 3.15466 0.629453 -1.97958 0
M  V30 34 H 1.34253 -0.276208 -3.1139 0
M  V30 35 H -0.239971 -1.96933 -3.61408 0
M  V30 36 H 0.387265 -2.99109 -2.22391 0
M  V30 37 H -0.0658327 0.356327 -1.23557 0
M  V30 38 H -1.90618 1.16381 0.0739341 0
M  V30 39 H -4.12209 -2.36511 -0.696534 0
M  V30 40 H -2.22871 -3.21071 -2.04305 0
M  V30 41 H -5.4855 1.2876 -2.08507 0
M  V30 42 H -3.79679 1.69187 -1.69962 0
M  V30 43 H -8.34732 1.4708 2.78628 0
M  V30 44 H -7.30363 2.96283 2.81337 0
M  V30 45 H -3.5498 -2.12491 1.84758 0
M  V30 46 H -2.78675 -0.784973 2.85117 0
M  V30 47 H -4.23787 -1.65178 3.49148 0
M  V30 48 H 3.91444 -2.00062 0.629643 0
M  V30 49 H 5.67408 -1.77781 2.22324 0
M  V30 50 H 7.06615 0.324777 2.32143 0
M  V30 END ATOM
M  V30 BEGIN BOND
M  V30 1 1 1 2
M  V30 2 1 2 3
M  V30 3 2 3 4
M  V30 4 1 4 5
M  V30 5 1 5 6
M  V30 6 1 6 7
M  V30 7 2 7 8
M  V30 8 1 7 9
M  V30 9 1 9 10
M  V30 10 1 10 11
M  V30 11 2 11 12
M  V30 12 1 12 13
M  V30 13 2 13 14
M  V30 14 1 14 15
M  V30 15 2 15 16
M  V30 16 1 14 17
M  V30 17 2 17 18
M  V30 18 1 18 19
M  V30 19 1 18 20
M  V30 20 2 20 21
M  V30 21 1 21 22
M  V30 22 1 21 23
M  V30 23 2 23 24
M  V30 24 1 24 25
M  V30 25 2 5 26
M  V30 26 1 26 27
M  V30 27 2 27 28
M  V30 28 1 28 3
M  V30 29 1 16 11
M  V30 30 1 24 17
M  V30 31 1 1 29
M  V30 32 1 1 30
M  V30 33 1 1 31
M  V30 34 1 4 32
M  V30 35 1 6 33
M  V30 36 1 9 34
M  V30 37 1 10 35
M  V30 38 1 10 36
M  V30 39 1 12 37
M  V30 40 1 13 38
M  V30 41 1 15 39
M  V30 42 1 16 40
M  V30 43 1 19 41
M  V30 44 1 19 42
M  V30 45 1 22 43
M  V30 46 1 22 44
M  V30 47 1 25 45
M  V30 48 1 25 46
M  V30 49 1 25 47
M  V30 50 1 26 48
M  V30 51 1 27 49
M  V30 52 1 28 50
M  V30 END BOND
M  V30 END CTAB
M  END
