
     RDKit          3D

  0  0  0  0  0  0  0  0  0  0999 V3000
M  V30 BEGIN CTAB
M  V30 COUNTS 18 17 0 0 0
M  V30 BEGIN ATOM
M  V30 1 N -3.87485 0.958252 0.0858737 0
M  V30 2 N -3.00307 -0.133691 0.174484 0
M  V30 3 C -1.61811 0.0125379 -0.0874667 0
M  V30 4 O -1.18117 1.15412 -0.404688 0
M  V30 5 N -0.727242 -1.08567 -0.000862412 0
M  V30 6 N 0.623891 -1.00352 -0.243872 0
M  V30 7 C 1.53509 -0.136582 0.412514 0
M  V30 8 O 1.08578 0.633289 1.30057 0
M  V30 9 N 2.91206 -0.135359 0.0792099 0
M  V30 10 N 3.78262 0.714416 0.725013 0
M  V30 11 H -4.56669 0.914676 0.847558 0
M  V30 12 H -3.30596 1.85046 0.103733 0
M  V30 13 H -3.43414 -1.04504 0.442119 0
M  V30 14 H -1.1126 -2.02461 0.264183 0
M  V30 15 H 0.999068 -1.6557 -0.995128 0
M  V30 16 H 3.28914 -0.776709 -0.659705 0
M  V30 17 H 4.17045 1.47053 0.148513 0
M  V30 18 H 4.42572 0.288609 1.39815 0
M  V30 END ATOM
M  V30 BEGIN BOND
M  V30 1 1 1 2
M  V30 2 1 2 3
M  V30 3 2 3 4
M  V30 4 1 3 5
M  V30 5 1 5 6
M  V30 6 1 6 7
M  V30 7 2 7 8
M  V30 8 1 7 9
M  V30 9 1 9 10
M  V30 10 1 1 11
M  V30 11 1 1 12
M  V30 12 1 2 13
M  V30 13 1 5 14
M  V30 14 1 6 15
M  V30 15 1 9 16
M  V30 16 1 10 17
M  V30 17 1 10 18
M  V30 END BOND
M  V30 END CTAB
M  END
