
     RDKit          3D

  0  0  0  0  0  0  0  0  0  0999 V3000
M  V30 BEGIN CTAB
M  V30 COUNTS 37 38 0 0 0
M  V30 BEGIN ATOM
M  V30 1 N -0.366487 -1.72094 -4.34249 0
M  V30 2 C -0.0623297 -1.6715 -3.22682 0
M  V30 3 C 0.316752 -1.59016 -1.82522 0
M  V30 4 C 1.5112 -2.06128 -1.51383 0
M  V30 5 N 1.95278 -2.01919 -0.178404 0
M  V30 6 C 2.91694 -1.03697 0.253922 0
M  V30 7 C 3.42748 -0.118421 -0.628542 0
M  V30 8 C 4.34272 0.814757 -0.220366 0
M  V30 9 C 4.7602 0.831825 1.10545 0
M  V30 10 C 4.24446 -0.0948043 1.99335 0
M  V30 11 C 3.32811 -1.02166 1.56389 0
M  V30 12 N 5.70772 1.77917 1.58031 0
M  V30 13 C -0.581567 -1.01828 -0.831742 0
M  V30 14 O -0.184699 -0.985715 0.338898 0
M  V30 15 N -1.83331 -0.536687 -1.2265 0
M  V30 16 C -2.84819 0.0481249 -0.449758 0
M  V30 17 C -2.81187 0.269851 0.891934 0
M  V30 18 C -3.87896 0.861814 1.57933 0
M  V30 19 C -5.02569 1.25157 0.927486 0
M  V30 20 C -5.06806 1.02984 -0.429329 0
M  V30 21 C -4.02293 0.45045 -1.10034 0
M  V30 22 Cl -4.17077 0.208245 -2.83484 0
M  V30 23 N -6.11593 1.85547 1.62466 0
M  V30 24 H 2.15987 -2.48546 -2.29458 0
M  V30 25 H 1.60282 -2.68456 0.526278 0
M  V30 26 H 3.10284 -0.133033 -1.65576 0
M  V30 27 H 4.72402 1.52018 -0.933545 0
M  V30 28 H 4.5901 -0.0601025 3.03362 0
M  V30 29 H 2.92098 -1.74637 2.24591 0
M  V30 30 H 6.70576 1.62375 1.36012 0
M  V30 31 H 5.356 2.58496 2.12701 0
M  V30 32 H -2.0206 -0.64249 -2.28932 0
M  V30 33 H -1.92638 -0.0219872 1.44685 0
M  V30 34 H -3.77342 1.00461 2.64758 0
M  V30 35 H -5.98098 1.34142 -0.940939 0
M  V30 36 H -7.09854 1.80753 1.30081 0
M  V30 37 H -5.90006 2.36604 2.4998 0
M  V30 END ATOM
M  V30 BEGIN BOND
M  V30 1 3 1 2
M  V30 2 1 2 3
M  V30 3 2 3 4
M  V30 4 1 4 5
M  V30 5 1 5 6
M  V30 6 2 6 7
M  V30 7 1 7 8
M  V30 8 2 8 9
M  V30 9 1 9 10
M  V30 10 2 10 11
M  V30 11 1 9 12
M  V30 12 1 3 13
M  V30 13 2 13 14
M  V30 14 1 13 15
M  V30 15 1 15 16
M  V30 16 2 16 17
M  V30 17 1 17 18
M  V30 18 2 18 19
M  V30 19 1 19 20
M  V30 20 2 20 21
M  V30 21 1 21 22
M  V30 22 1 19 23
M  V30 23 1 11 6
M  V30 24 1 21 16
M  V30 25 1 4 24
M  V30 26 1 5 25
M  V30 27 1 7 26
M  V30 28 1 8 27
M  V30 29 1 10 28
M  V30 30 1 11 29
M  V30 31 1 12 30
M  V30 32 1 12 31
M  V30 33 1 15 32
M  V30 34 1 17 33
M  V30 35 1 18 34
M  V30 36 1 20 35
M  V30 37 1 23 36
M  V30 38 1 23 37
M  V30 END BOND
M  V30 END CTAB
M  END
