
     RDKit          3D

  0  0  0  0  0  0  0  0  0  0999 V3000
M  V30 BEGIN CTAB
M  V30 COUNTS 76 80 0 0 0
M  V30 BEGIN ATOM
M  V30 1 N -11.6216 -0.380532 2.41502 0
M  V30 2 C -10.1993 -0.201286 2.46918 0
M  V30 3 C -9.64448 0.26477 3.6286 0
M  V30 4 C -8.28404 0.429493 3.67088 0
M  V30 5 C -7.51302 0.124632 2.55508 0
M  V30 6 C -8.04316 -0.342404 1.38313 0
M  V30 7 N -7.35129 -0.666155 0.212321 0
M  V30 8 C -5.99519 -0.425594 -0.0604081 0
M  V30 9 N -5.10672 0.163548 0.74216 0
M  V30 10 C -3.79771 0.36911 0.434012 0
M  V30 11 N -2.97532 1.00726 1.37917 0
M  V30 12 C -1.61165 1.31482 1.29309 0
M  V30 13 C -1.06374 2.09603 2.32185 0
M  V30 14 C 0.264055 2.4353 2.3339 0
M  V30 15 C 1.13653 2.02729 1.33469 0
M  V30 16 C 0.641137 1.26386 0.315006 0
M  V30 17 N 1.43173 0.771787 -0.724815 0
M  V30 18 C 2.81762 0.498045 -0.673511 0
M  V30 19 N 3.59979 0.642635 0.372762 0
M  V30 20 C 4.93733 0.38065 0.432878 0
M  V30 21 N 5.63103 0.607045 1.65079 0
M  V30 22 C 6.98452 0.375887 1.86308 0
M  V30 23 C 7.84013 -0.38156 1.12033 0
M  V30 24 C 9.19595 -0.537367 1.39881 0
M  V30 25 N 10.0348 -1.34742 0.566182 0
M  V30 26 C 9.72568 0.107666 2.49253 0
M  V30 27 C 8.87986 0.885292 3.26828 0
M  V30 28 C 7.55899 1.01702 2.96795 0
M  V30 29 N 5.47182 -0.0647583 -0.699182 0
M  V30 30 C 4.77106 -0.247274 -1.81611 0
M  V30 31 N 5.39465 -0.731098 -3.00432 0
M  V30 32 C 6.78183 -1.04201 -3.07169 0
M  V30 33 C 7.72101 0.100478 -2.85737 0
M  V30 34 O 7.55166 1.12384 -3.79931 0
M  V30 35 N 3.44066 0.0333378 -1.8081 0
M  V30 36 C -0.736407 0.927265 0.326519 0
M  V30 37 N -3.43421 -0.0688675 -0.766987 0
M  V30 38 C -4.24588 -0.67652 -1.6571 0
M  V30 39 N -3.76295 -1.13281 -2.90318 0
M  V30 40 C -4.5155 -1.77058 -3.93025 0
M  V30 41 C -5.43516 -0.876227 -4.71386 0
M  V30 42 O -6.39845 -0.251032 -3.9601 0
M  V30 43 N -5.51582 -0.841541 -1.28042 0
M  V30 44 C -9.44328 -0.502399 1.36721 0
M  V30 45 H -12.1417 -0.452112 1.51232 0
M  V30 46 H -12.1803 -0.445116 3.30028 0
M  V30 47 H -10.2565 0.500335 4.49754 0
M  V30 48 H -7.81536 0.80224 4.59101 0
M  V30 49 H -6.46515 0.26985 2.66659 0
M  V30 50 H -7.91778 -1.1549 -0.557357 0
M  V30 51 H -3.49774 1.28153 2.28591 0
M  V30 52 H -1.72053 2.43314 3.11909 0
M  V30 53 H 0.692831 3.03945 3.1277 0
M  V30 54 H 2.1844 2.33506 1.37575 0
M  V30 55 H 0.943367 0.583721 -1.65361 0
M  V30 56 H 5.0471 0.979588 2.45749 0
M  V30 57 H 7.47166 -0.924376 0.259779 0
M  V30 58 H 10.4066 -0.970499 -0.35096 0
M  V30 59 H 10.2996 -2.31859 0.83701 0
M  V30 60 H 10.7659 -0.000287509 2.72259 0
M  V30 61 H 9.32006 1.38462 4.12815 0
M  V30 62 H 6.94481 1.6353 3.60555 0
M  V30 63 H 4.80261 -0.858881 -3.85253 0
M  V30 64 H 7.02477 -1.79182 -2.2598 0
M  V30 65 H 7.04939 -1.50961 -4.04043 0
M  V30 66 H 7.6633 0.577158 -1.8613 0
M  V30 67 H 8.77257 -0.238794 -2.96757 0
M  V30 68 H 8.35952 1.69525 -3.77162 0
M  V30 69 H -1.08996 0.320111 -0.490555 0
M  V30 70 H -2.728 -0.986185 -3.09708 0
M  V30 71 H -5.20704 -2.52932 -3.4353 0
M  V30 72 H -3.87244 -2.38631 -4.60905 0
M  V30 73 H -4.83714 -0.105691 -5.26227 0
M  V30 74 H -5.96806 -1.54496 -5.44559 0
M  V30 75 H -7.23881 -0.768519 -3.89545 0
M  V30 76 H -9.92909 -0.867164 0.475051 0
M  V30 END ATOM
M  V30 BEGIN BOND
M  V30 1 1 1 2
M  V30 2 2 2 3
M  V30 3 1 3 4
M  V30 4 2 4 5
M  V30 5 1 5 6
M  V30 6 1 6 7
M  V30 7 1 7 8
M  V30 8 2 8 9
M  V30 9 1 9 10
M  V30 10 1 10 11
M  V30 11 1 11 12
M  V30 12 2 12 13
M  V30 13 1 13 14
M  V30 14 2 14 15
M  V30 15 1 15 16
M  V30 16 1 16 17
M  V30 17 1 17 18
M  V30 18 2 18 19
M  V30 19 1 19 20
M  V30 20 1 20 21
M  V30 21 1 21 22
M  V30 22 2 22 23
M  V30 23 1 23 24
M  V30 24 1 24 25
M  V30 25 2 24 26
M  V30 26 1 26 27
M  V30 27 2 27 28
M  V30 28 2 20 29
M  V30 29 1 29 30
M  V30 30 1 30 31
M  V30 31 1 31 32
M  V30 32 1 32 33
M  V30 33 1 33 34
M  V30 34 2 30 35
M  V30 35 2 16 36
M  V30 36 2 10 37
M  V30 37 1 37 38
M  V30 38 1 38 39
M  V30 39 1 39 40
M  V30 40 1 40 41
M  V30 41 1 41 42
M  V30 42 2 38 43
M  V30 43 2 6 44
M  V30 44 1 44 2
M  V30 45 1 43 8
M  V30 46 1 36 12
M  V30 47 1 35 18
M  V30 48 1 28 22
M  V30 49 1 1 45
M  V30 50 1 1 46
M  V30 51 1 3 47
M  V30 52 1 4 48
M  V30 53 1 5 49
M  V30 54 1 7 50
M  V30 55 1 11 51
M  V30 56 1 13 52
M  V30 57 1 14 53
M  V30 58 1 15 54
M  V30 59 1 17 55
M  V30 60 1 21 56
M  V30 61 1 23 57
M  V30 62 1 25 58
M  V30 63 1 25 59
M  V30 64 1 26 60
M  V30 65 1 27 61
M  V30 66 1 28 62
M  V30 67 1 31 63
M  V30 68 1 32 64
M  V30 69 1 32 65
M  V30 70 1 33 66
M  V30 71 1 33 67
M  V30 72 1 34 68
M  V30 73 1 36 69
M  V30 74 1 39 70
M  V30 75 1 40 71
M  V30 76 1 40 72
M  V30 77 1 41 73
M  V30 78 1 41 74
M  V30 79 1 42 75
M  V30 80 1 44 76
M  V30 END BOND
M  V30 END CTAB
M  END
