
     RDKit          3D

  0  0  0  0  0  0  0  0  0  0999 V3000
M  V30 BEGIN CTAB
M  V30 COUNTS 16 15 0 0 0
M  V30 BEGIN ATOM
M  V30 1 C -1.87713 0.139644 0.587551 0
M  V30 2 N -0.69397 -0.323801 -0.0727173 0
M  V30 3 N -0.480206 -1.67996 -0.25073 0
M  V30 4 C 0.264073 0.590931 -0.547784 0
M  V30 5 N -0.00755535 1.26368 -1.62218 0
M  V30 6 N 1.50607 0.818913 0.078893 0
M  V30 7 N 2.3161 -0.255428 0.409926 0
M  V30 8 H -1.79588 1.19412 0.905904 0
M  V30 9 H -2.76168 0.0598362 -0.105027 0
M  V30 10 H -2.15102 -0.462082 1.47581 0
M  V30 11 H -0.636116 -1.87082 -1.284 0
M  V30 12 H -1.08627 -2.28199 0.337019 0
M  V30 13 H 0.646101 1.95251 -2.03029 0
M  V30 14 H 1.79826 1.78464 0.28424 0
M  V30 15 H 1.79969 -1.0123 0.910565 0
M  V30 16 H 3.15955 0.0821085 0.922823 0
M  V30 END ATOM
M  V30 BEGIN BOND
M  V30 1 1 1 2
M  V30 2 1 2 3
M  V30 3 1 2 4
M  V30 4 2 4 5 CFG=2
M  V30 5 1 4 6
M  V30 6 1 6 7
M  V30 7 1 1 8
M  V30 8 1 1 9
M  V30 9 1 1 10
M  V30 10 1 3 11
M  V30 11 1 3 12
M  V30 12 1 5 13
M  V30 13 1 6 14
M  V30 14 1 7 15
M  V30 15 1 7 16
M  V30 END BOND
M  V30 END CTAB
M  END
