
     RDKit          3D

  0  0  0  0  0  0  0  0  0  0999 V3000
M  V30 BEGIN CTAB
M  V30 COUNTS 27 27 0 0 0
M  V30 BEGIN ATOM
M  V30 1 N 0.986079 -1.04783 -1.6895 0
M  V30 2 C 0.0438583 -0.83024 -0.607609 0
M  V30 3 C -1.25947 -0.421981 -1.22358 0
M  V30 4 C -1.73365 0.935168 -0.771138 0
M  V30 5 C -1.94136 1.04691 0.698111 0
M  V30 6 C -1.53626 -0.1602 1.47546 0
M  V30 7 C -0.0391674 -0.105717 1.67482 0
M  V30 8 N 0.563586 0.0639078 0.355411 0
M  V30 9 S 2.24106 7.6554e-05 0.600868 0
M  V30 10 O 2.62761 1.02557 1.63216 0
M  V30 11 O 2.75679 -1.31454 1.07258 0
M  V30 12 N 3.12531 0.401744 -0.850763 0
M  V30 13 H 0.778882 -1.95086 -2.20089 0
M  V30 14 H 0.824346 -0.27608 -2.38603 0
M  V30 15 H -0.101628 -1.83651 -0.12649 0
M  V30 16 H -1.21354 -0.368972 -2.34462 0
M  V30 17 H -2.07535 -1.14724 -1.01226 0
M  V30 18 H -1.0279 1.69941 -1.17895 0
M  V30 19 H -2.7053 1.12239 -1.2735 0
M  V30 20 H -1.3195 1.91413 1.05734 0
M  V30 21 H -2.99653 1.3359 0.971042 0
M  V30 22 H -1.77283 -1.1158 1.00512 0
M  V30 23 H -2.03958 -0.115272 2.47655 0
M  V30 24 H 0.17297 0.746682 2.33193 0
M  V30 25 H 0.339977 -1.07541 2.08592 0
M  V30 26 H 3.19818 1.43628 -0.975 0
M  V30 27 H 4.10343 0.0384969 -0.796987 0
M  V30 END ATOM
M  V30 BEGIN BOND
M  V30 1 1 1 2
M  V30 2 1 2 3
M  V30 3 1 3 4
M  V30 4 1 4 5
M  V30 5 1 5 6
M  V30 6 1 6 7
M  V30 7 1 7 8
M  V30 8 1 8 9
M  V30 9 2 9 10
M  V30 10 2 9 11
M  V30 11 1 9 12
M  V30 12 1 8 2
M  V30 13 1 1 13
M  V30 14 1 1 14
M  V30 15 1 2 15
M  V30 16 1 3 16
M  V30 17 1 3 17
M  V30 18 1 4 18
M  V30 19 1 4 19
M  V30 20 1 5 20
M  V30 21 1 5 21
M  V30 22 1 6 22
M  V30 23 1 6 23
M  V30 24 1 7 24
M  V30 25 1 7 25
M  V30 26 1 12 26
M  V30 27 1 12 27
M  V30 END BOND
M  V30 END CTAB
M  END
