
     RDKit          3D

  0  0  0  0  0  0  0  0  0  0999 V3000
M  V30 BEGIN CTAB
M  V30 COUNTS 30 30 0 0 0
M  V30 BEGIN ATOM
M  V30 1 C -2.07688 -0.448688 -1.63288 0
M  V30 2 C -0.983483 0.118307 -0.699717 0
M  V30 3 C -1.55096 0.0579231 0.700079 0
M  V30 4 N -1.90377 -1.27005 1.10412 0
M  V30 5 C -2.82246 0.892908 0.685167 0
M  V30 6 C 0.265496 -0.640972 -0.918307 0
M  V30 7 C 1.44678 -0.288684 -0.156981 0
M  V30 8 C 1.8499 -0.994889 0.986309 0
M  V30 9 C 2.9673 -0.641692 1.71236 0
M  V30 10 C 3.73811 0.434216 1.33308 0
M  V30 11 N 3.35464 1.10736 0.24295 0
M  V30 12 C 2.24802 0.768345 -0.48816 0
M  V30 13 N 1.98315 1.55182 -1.62542 0
M  V30 14 F -0.896158 1.44556 -1.11922 0
M  V30 15 H -1.62369 -0.737084 -2.60478 0
M  V30 16 H -2.549 -1.3295 -1.17796 0
M  V30 17 H -2.83652 0.335829 -1.86187 0
M  V30 18 H -0.808353 0.481812 1.40738 0
M  V30 19 H -1.1297 -1.90328 1.3257 0
M  V30 20 H -2.66765 -1.26054 1.81957 0
M  V30 21 H -3.17483 1.12372 1.70451 0
M  V30 22 H -3.58133 0.267333 0.168915 0
M  V30 23 H -2.58501 1.82771 0.135597 0
M  V30 24 H -0.005517 -1.73159 -0.738481 0
M  V30 25 H 0.443937 -0.637283 -2.03817 0
M  V30 26 H 1.23788 -1.83948 1.27069 0
M  V30 27 H 3.27814 -1.18606 2.59371 0
M  V30 28 H 4.62611 0.718463 1.9081 0
M  V30 29 H 1.96505 1.19605 -2.59285 0
M  V30 30 H 1.79082 2.58242 -1.44345 0
M  V30 END ATOM
M  V30 BEGIN BOND
M  V30 1 1 1 2
M  V30 2 1 2 3
M  V30 3 1 3 4
M  V30 4 1 3 5
M  V30 5 1 2 6
M  V30 6 1 6 7
M  V30 7 2 7 8
M  V30 8 1 8 9
M  V30 9 2 9 10
M  V30 10 1 10 11
M  V30 11 2 11 12
M  V30 12 1 12 13
M  V30 13 1 2 14
M  V30 14 1 12 7
M  V30 15 1 1 15
M  V30 16 1 1 16
M  V30 17 1 1 17
M  V30 18 1 3 18
M  V30 19 1 4 19
M  V30 20 1 4 20
M  V30 21 1 5 21
M  V30 22 1 5 22
M  V30 23 1 5 23
M  V30 24 1 6 24
M  V30 25 1 6 25
M  V30 26 1 8 26
M  V30 27 1 9 27
M  V30 28 1 10 28
M  V30 29 1 13 29
M  V30 30 1 13 30
M  V30 END BOND
M  V30 END CTAB
M  END
