
     RDKit          3D

  0  0  0  0  0  0  0  0  0  0999 V3000
M  V30 BEGIN CTAB
M  V30 COUNTS 33 35 0 0 0
M  V30 BEGIN ATOM
M  V30 1 N -1.67585 2.98805 -0.29848 0
M  V30 2 N -0.456948 2.33234 -0.338127 0
M  V30 3 C 0.725837 2.89145 -0.597269 0
M  V30 4 N 1.04867 4.24343 -0.884618 0
M  V30 5 N 1.61476 1.91069 -0.540152 0
M  V30 6 C 1.02138 0.711046 -0.244919 0
M  V30 7 C -0.29611 0.993296 -0.118545 0
M  V30 8 C -1.37179 0.0789476 0.194438 0
M  V30 9 C -2.15155 -0.497767 -0.777697 0
M  V30 10 C -3.17931 -1.36456 -0.438068 0
M  V30 11 C -3.44936 -1.67334 0.879313 0
M  V30 12 C -2.64233 -1.07441 1.85416 0
M  V30 13 C -1.63036 -0.219298 1.5028 0
M  V30 14 C 1.73316 -0.549661 -0.121598 0
M  V30 15 C 1.81576 -1.29804 1.02445 0
M  V30 16 C 2.51932 -2.49885 1.07785 0
M  V30 17 C 3.17039 -2.98779 -0.0352394 0
M  V30 18 C 3.09968 -2.25162 -1.19367 0
M  V30 19 C 2.39929 -1.06204 -1.23966 0
M  V30 20 H -2.15501 3.23453 -1.18123 0
M  V30 21 H -2.11005 3.23198 0.602366 0
M  V30 22 H 0.891212 4.58605 -1.85186 0
M  V30 23 H 1.4349 4.91219 -0.190798 0
M  V30 24 H -2.00023 -0.304324 -1.84196 0
M  V30 25 H -3.77274 -1.79898 -1.22716 0
M  V30 26 H -4.24888 -2.34619 1.13697 0
M  V30 27 H -2.88541 -1.34192 2.87207 0
M  V30 28 H -1.02468 0.227488 2.27334 0
M  V30 29 H 1.34578 -0.97532 1.91481 0
M  V30 30 H 2.57582 -3.08099 1.98844 0
M  V30 31 H 3.71516 -3.92911 0.027395 0
M  V30 32 H 3.60525 -2.61685 -2.0812 0
M  V30 33 H 2.33421 -0.470417 -2.14611 0
M  V30 END ATOM
M  V30 BEGIN BOND
M  V30 1 1 1 2
M  V30 2 1 2 3
M  V30 3 1 3 4
M  V30 4 2 3 5
M  V30 5 1 5 6
M  V30 6 2 6 7
M  V30 7 1 7 8
M  V30 8 2 8 9
M  V30 9 1 9 10
M  V30 10 2 10 11
M  V30 11 1 11 12
M  V30 12 2 12 13
M  V30 13 1 6 14
M  V30 14 2 14 15
M  V30 15 1 15 16
M  V30 16 2 16 17
M  V30 17 1 17 18
M  V30 18 2 18 19
M  V30 19 1 7 2
M  V30 20 1 13 8
M  V30 21 1 19 14
M  V30 22 1 1 20
M  V30 23 1 1 21
M  V30 24 1 4 22
M  V30 25 1 4 23
M  V30 26 1 9 24
M  V30 27 1 10 25
M  V30 28 1 11 26
M  V30 29 1 12 27
M  V30 30 1 13 28
M  V30 31 1 15 29
M  V30 32 1 16 30
M  V30 33 1 17 31
M  V30 34 1 18 32
M  V30 35 1 19 33
M  V30 END BOND
M  V30 END CTAB
M  END
