
     RDKit          3D

  0  0  0  0  0  0  0  0  0  0999 V3000
M  V30 BEGIN CTAB
M  V30 COUNTS 23 23 0 0 0
M  V30 BEGIN ATOM
M  V30 1 C -4.13578 -0.0741376 0.0027327 0
M  V30 2 C -2.73376 -0.594385 -0.239094 0
M  V30 3 O -1.81082 0.38223 0.183741 0
M  V30 4 C -0.457137 0.134216 0.0624477 0
M  V30 5 C -0.0235992 -1.06198 -0.469157 0
M  V30 6 C 1.33575 -1.26118 -0.568965 0
M  V30 7 C 2.23181 -0.296825 -0.151311 0
M  V30 8 C 1.81732 0.906512 0.383279 0
M  V30 9 C 0.456411 1.10973 0.484877 0
M  V30 10 F 0.0211366 2.27589 1.00324 0
M  V30 11 N 2.75179 1.89479 0.811163 0
M  V30 12 N 3.62278 -0.51418 -0.259421 0
M  V30 13 H -4.07494 0.623936 0.862019 0
M  V30 14 H -4.47673 0.415056 -0.924754 0
M  V30 15 H -4.81174 -0.894205 0.321424 0
M  V30 16 H -2.63181 -0.815361 -1.33192 0
M  V30 17 H -2.55249 -1.55212 0.312604 0
M  V30 18 H -0.737047 -1.81483 -0.795085 0
M  V30 19 H 1.67182 -2.20959 -0.990374 0
M  V30 20 H 2.98202 2.04261 1.80057 0
M  V30 21 H 3.2293 2.49973 0.106676 0
M  V30 22 H 4.17778 -0.118308 -1.04964 0
M  V30 23 H 4.14792 -1.07761 0.444946 0
M  V30 END ATOM
M  V30 BEGIN BOND
M  V30 1 1 1 2
M  V30 2 1 2 3
M  V30 3 1 3 4
M  V30 4 2 4 5
M  V30 5 1 5 6
M  V30 6 2 6 7
M  V30 7 1 7 8
M  V30 8 2 8 9
M  V30 9 1 9 10
M  V30 10 1 8 11
M  V30 11 1 7 12
M  V30 12 1 9 4
M  V30 13 1 1 13
M  V30 14 1 1 14
M  V30 15 1 1 15
M  V30 16 1 2 16
M  V30 17 1 2 17
M  V30 18 1 5 18
M  V30 19 1 6 19
M  V30 20 1 11 20
M  V30 21 1 11 21
M  V30 22 1 12 22
M  V30 23 1 12 23
M  V30 END BOND
M  V30 END CTAB
M  END
