
     RDKit          3D

  0  0  0  0  0  0  0  0  0  0999 V3000
M  V30 BEGIN CTAB
M  V30 COUNTS 20 21 0 0 0
M  V30 BEGIN ATOM
M  V30 1 N -4.39179 -0.411487 0.195763 0
M  V30 2 C -3.15603 -0.818543 0.86594 0
M  V30 3 C -2.0098 -0.207148 0.121721 0
M  V30 4 O -2.06848 0.563833 -0.948275 0
M  V30 5 N -0.86046 0.907061 -1.31671 0
M  V30 6 C 0.0459819 0.374936 -0.502486 0
M  V30 7 C -0.673246 -0.349673 0.435441 0
M  V30 8 C 1.51598 0.509228 -0.55944 0
M  V30 9 O 2.16376 1.19359 -1.44804 0
M  V30 10 N 3.43849 1.10692 -1.21686 0
M  V30 11 C 3.61312 0.335849 -0.136597 0
M  V30 12 N 2.39173 -0.0343169 0.267875 0
M  V30 13 N 4.88205 0.0103858 0.42392 0
M  V30 14 H -4.77862 0.457889 0.65058 0
M  V30 15 H -4.20454 -0.135516 -0.805025 0
M  V30 16 H -3.08456 -1.93971 0.852979 0
M  V30 17 H -3.20775 -0.444645 1.91104 0
M  V30 18 H -0.2707 -0.918994 1.25697 0
M  V30 19 H 4.99725 0.143695 1.45069 0
M  V30 20 H 5.65762 -0.343352 -0.161208 0
M  V30 END ATOM
M  V30 BEGIN BOND
M  V30 1 1 1 2
M  V30 2 1 2 3
M  V30 3 1 3 4
M  V30 4 1 4 5
M  V30 5 2 5 6
M  V30 6 1 6 7
M  V30 7 1 6 8
M  V30 8 1 8 9
M  V30 9 1 9 10
M  V30 10 2 10 11
M  V30 11 1 11 12
M  V30 12 1 11 13
M  V30 13 2 7 3
M  V30 14 2 12 8
M  V30 15 1 1 14
M  V30 16 1 1 15
M  V30 17 1 2 16
M  V30 18 1 2 17
M  V30 19 1 7 18
M  V30 20 1 13 19
M  V30 21 1 13 20
M  V30 END BOND
M  V30 END CTAB
M  END
