
     RDKit          3D

  0  0  0  0  0  0  0  0  0  0999 V3000
M  V30 BEGIN CTAB
M  V30 COUNTS 56 58 0 0 0
M  V30 BEGIN ATOM
M  V30 1 N 8.75197 2.67456 0.12506 0
M  V30 2 C 7.55824 1.87356 0.0449494 0
M  V30 3 C 6.69688 1.99304 -1.02871 0
M  V30 4 C 5.56588 1.20738 -1.06757 0
M  V30 5 C 5.23049 0.301302 -0.102885 0
M  V30 6 C 6.1093 0.199124 0.964563 0
M  V30 7 C 7.2595 0.961579 1.05849 0
M  V30 8 C 4.0428 -0.544872 -0.103859 0
M  V30 9 O 3.88705 -1.31501 0.916174 0
M  V30 10 O 3.09002 -0.663231 -0.971827 0
M  V30 11 C 2.13345 -0.795848 -1.821 0
M  V30 12 C 0.740922 -0.377356 -1.47614 0
M  V30 13 N 0.105504 -1.03813 -0.395355 0
M  V30 14 C -1.09473 -0.323322 0.162167 0
M  V30 15 C -2.13797 -0.36367 -0.926261 0
M  V30 16 O -3.31728 0.308953 -0.51954 0
M  V30 17 C -4.45173 0.457653 -1.28969 0
M  V30 18 O -4.46891 -0.0401747 -2.43566 0
M  V30 19 C -5.62758 1.18352 -0.796119 0
M  V30 20 C -6.74634 1.30417 -1.59432 0
M  V30 21 C -7.86121 1.98538 -1.15745 0
M  V30 22 C -7.91333 2.58437 0.10593 0
M  V30 23 N -9.09215 3.28152 0.522993 0
M  V30 24 C -6.79939 2.46584 0.900986 0
M  V30 25 C -5.68272 1.77323 0.439843 0
M  V30 26 C 0.382348 -2.27726 0.183908 0
M  V30 27 C 0.591116 -2.3663 1.54621 0
M  V30 28 C 0.818183 -3.57228 2.15583 0
M  V30 29 C 0.84714 -4.75368 1.42499 0
M  V30 30 C 0.639259 -4.68142 0.0455673 0
M  V30 31 C 0.412151 -3.46556 -0.554708 0
M  V30 32 H 9.60303 2.45155 -0.446447 0
M  V30 33 H 8.79399 3.50224 0.746407 0
M  V30 34 H 6.89631 2.6891 -1.83794 0
M  V30 35 H 4.87811 1.30432 -1.91401 0
M  V30 36 H 5.92388 -0.491039 1.77599 0
M  V30 37 H 7.9636 0.893602 1.87517 0
M  V30 38 H 2.03765 -1.82946 -2.32928 0
M  V30 39 H 2.39746 -0.16483 -2.76168 0
M  V30 40 H 0.665393 0.738582 -1.37866 0
M  V30 41 H 0.0672434 -0.581047 -2.38605 0
M  V30 42 H -1.43247 -0.825251 1.06886 0
M  V30 43 H -0.737329 0.690493 0.375669 0
M  V30 44 H -2.3465 -1.40304 -1.27351 0
M  V30 45 H -1.73095 0.19087 -1.79832 0
M  V30 46 H -6.71016 0.838091 -2.57758 0
M  V30 47 H -8.7404 2.09035 -1.75889 0
M  V30 48 H -9.53885 3.14668 1.45747 0
M  V30 49 H -9.53976 3.96069 -0.124595 0
M  V30 50 H -6.78827 2.91468 1.89905 0
M  V30 51 H -4.80506 1.68368 1.07725 0
M  V30 52 H 0.567185 -1.4523 2.14451 0
M  V30 53 H 0.981556 -3.63491 3.23903 0
M  V30 54 H 1.02386 -5.67774 1.9496 0
M  V30 55 H 0.651547 -5.60509 -0.542271 0
M  V30 56 H 0.250054 -3.40728 -1.63323 0
M  V30 END ATOM
M  V30 BEGIN BOND
M  V30 1 1 1 2
M  V30 2 2 2 3
M  V30 3 1 3 4
M  V30 4 2 4 5
M  V30 5 1 5 6
M  V30 6 2 6 7
M  V30 7 1 5 8
M  V30 8 2 8 9
M  V30 9 1 8 10
M  V30 10 1 10 11
M  V30 11 1 11 12
M  V30 12 1 12 13
M  V30 13 1 13 14
M  V30 14 1 14 15
M  V30 15 1 15 16
M  V30 16 1 16 17
M  V30 17 2 17 18
M  V30 18 1 17 19
M  V30 19 2 19 20
M  V30 20 1 20 21
M  V30 21 2 21 22
M  V30 22 1 22 23
M  V30 23 1 22 24
M  V30 24 2 24 25
M  V30 25 1 13 26
M  V30 26 2 26 27
M  V30 27 1 27 28
M  V30 28 2 28 29
M  V30 29 1 29 30
M  V30 30 2 30 31
M  V30 31 1 7 2
M  V30 32 1 25 19
M  V30 33 1 31 26
M  V30 34 1 1 32
M  V30 35 1 1 33
M  V30 36 1 3 34
M  V30 37 1 4 35
M  V30 38 1 6 36
M  V30 39 1 7 37
M  V30 40 1 11 38
M  V30 41 1 11 39
M  V30 42 1 12 40
M  V30 43 1 12 41
M  V30 44 1 14 42
M  V30 45 1 14 43
M  V30 46 1 15 44
M  V30 47 1 15 45
M  V30 48 1 20 46
M  V30 49 1 21 47
M  V30 50 1 23 48
M  V30 51 1 23 49
M  V30 52 1 24 50
M  V30 53 1 25 51
M  V30 54 1 27 52
M  V30 55 1 28 53
M  V30 56 1 29 54
M  V30 57 1 30 55
M  V30 58 1 31 56
M  V30 END BOND
M  V30 END CTAB
M  END
