
     RDKit          3D

  0  0  0  0  0  0  0  0  0  0999 V3000
M  V30 BEGIN CTAB
M  V30 COUNTS 48 51 0 0 0
M  V30 BEGIN ATOM
M  V30 1 N 6.73615 -2.60129 -0.0172377 0
M  V30 2 C 5.79934 -1.54281 -0.126417 0
M  V30 3 C 5.39429 -0.804349 0.971663 0
M  V30 4 C 4.48466 0.227492 0.881997 0
M  V30 5 C 3.93369 0.56713 -0.336258 0
M  V30 6 C 4.33004 -0.161731 -1.43629 0
M  V30 7 C 5.23838 -1.192 -1.34632 0
M  V30 8 O 3.00958 1.60676 -0.462479 0
M  V30 9 C 1.66036 1.2621 -0.320694 0
M  V30 10 C 1.25109 -0.0313027 -0.0687184 0
M  V30 11 C -0.0706782 -0.396015 0.0750142 0
M  V30 12 C -1.0622 0.585285 -0.0377132 0
M  V30 13 C -0.671126 1.88273 -0.28942 0
M  V30 14 C 0.679596 2.22495 -0.430889 0
M  V30 15 C -1.70226 2.91956 -0.412938 0
M  V30 16 C -2.81829 2.70776 -1.17816 0
M  V30 17 C -3.78263 3.7052 -1.27705 0
M  V30 18 C -3.65527 4.91192 -0.626525 0
M  V30 19 C -2.53555 5.11988 0.138932 0
M  V30 20 C -1.57459 4.12149 0.235423 0
M  V30 21 O -2.40557 0.263513 0.100269 0
M  V30 22 C -2.76558 -1.04287 0.35244 0
M  V30 23 C -2.87349 -1.4829 1.6459 0
M  V30 24 C -3.23692 -2.80189 1.905 0
M  V30 25 C -3.49708 -3.69832 0.891336 0
M  V30 26 C -3.382 -3.23217 -0.408907 0
M  V30 27 C -3.02 -1.91824 -0.671773 0
M  V30 28 N -3.86576 -5.03706 1.18247 0
M  V30 29 H 6.84149 -3.26033 -0.78854 0
M  V30 30 H 7.3129 -2.7104 0.836998 0
M  V30 31 H 5.836 -1.07933 1.93695 0
M  V30 32 H 4.1808 0.79151 1.74687 0
M  V30 33 H 3.89635 0.101575 -2.41188 0
M  V30 34 H 5.54487 -1.76282 -2.22598 0
M  V30 35 H 1.99695 -0.806284 0.0226002 0
M  V30 36 H -0.399607 -1.39725 0.270804 0
M  V30 37 H 0.936027 3.25156 -0.626758 0
M  V30 38 H -2.99416 1.79271 -1.72125 0
M  V30 39 H -4.68057 3.55627 -1.88247 0
M  V30 40 H -4.40247 5.68805 -0.70156 0
M  V30 41 H -2.43194 6.05738 0.647014 0
M  V30 42 H -0.680353 4.26693 0.836961 0
M  V30 43 H -2.68836 -0.85102 2.51814 0
M  V30 44 H -3.31781 -3.13471 2.94495 0
M  V30 45 H -3.59018 -3.95018 -1.20296 0
M  V30 46 H -2.95242 -1.633 -1.722 0
M  V30 47 H -3.46211 -5.54303 1.99927 0
M  V30 48 H -4.54358 -5.54047 0.590172 0
M  V30 END ATOM
M  V30 BEGIN BOND
M  V30 1 1 1 2
M  V30 2 2 2 3
M  V30 3 1 3 4
M  V30 4 2 4 5
M  V30 5 1 5 6
M  V30 6 2 6 7
M  V30 7 1 5 8
M  V30 8 1 8 9
M  V30 9 2 9 10
M  V30 10 1 10 11
M  V30 11 2 11 12
M  V30 12 1 12 13
M  V30 13 2 13 14
M  V30 14 1 13 15
M  V30 15 2 15 16
M  V30 16 1 16 17
M  V30 17 2 17 18
M  V30 18 1 18 19
M  V30 19 2 19 20
M  V30 20 1 12 21
M  V30 21 1 21 22
M  V30 22 2 22 23
M  V30 23 1 23 24
M  V30 24 2 24 25
M  V30 25 1 25 26
M  V30 26 2 26 27
M  V30 27 1 25 28
M  V30 28 1 7 2
M  V30 29 1 14 9
M  V30 30 1 20 15
M  V30 31 1 27 22
M  V30 32 1 1 29
M  V30 33 1 1 30
M  V30 34 1 3 31
M  V30 35 1 4 32
M  V30 36 1 6 33
M  V30 37 1 7 34
M  V30 38 1 10 35
M  V30 39 1 11 36
M  V30 40 1 14 37
M  V30 41 1 16 38
M  V30 42 1 17 39
M  V30 43 1 18 40
M  V30 44 1 19 41
M  V30 45 1 20 42
M  V30 46 1 23 43
M  V30 47 1 24 44
M  V30 48 1 26 45
M  V30 49 1 27 46
M  V30 50 1 28 47
M  V30 51 1 28 48
M  V30 END BOND
M  V30 END CTAB
M  END
