
     RDKit          3D

  0  0  0  0  0  0  0  0  0  0999 V3000
M  V30 BEGIN CTAB
M  V30 COUNTS 28 29 0 0 0
M  V30 BEGIN ATOM
M  V30 1 N 4.13514 0.289454 -0.590797 0
M  V30 2 C 2.92417 -0.399822 -0.833562 0
M  V30 3 C 2.36193 -0.791336 0.481123 0 CFG=1
M  V30 4 C 2.0677 0.416892 1.39766 0
M  V30 5 C 1.02055 -0.60917 0.979253 0 CFG=1
M  V30 6 C -0.148814 -0.109457 0.272705 0
M  V30 7 N -0.036695 0.819145 -0.684776 0
M  V30 8 C -1.11215 1.30222 -1.3602 0
M  V30 9 N -0.996488 2.28922 -2.37848 0
M  V30 10 N -2.33103 0.839358 -1.06485 0
M  V30 11 C -2.48949 -0.0908525 -0.112924 0
M  V30 12 N -1.39311 -0.545857 0.536305 0
M  V30 13 N -3.78908 -0.561067 0.177503 0
M  V30 14 C -4.05428 -1.56748 1.19274 0
M  V30 15 H 4.92543 -0.221141 -0.653991 0
M  V30 16 H 4.09004 1.23652 -0.629556 0
M  V30 17 H 2.30807 0.277375 -1.45344 0
M  V30 18 H 3.21647 -1.28644 -1.46467 0
M  V30 19 H 2.9908 -1.5975 0.97909 0
M  V30 20 H 2.50509 0.381916 2.39267 0
M  V30 21 H 2.00473 1.41293 0.924679 0
M  V30 22 H 0.739791 -1.28077 1.84772 0
M  V30 23 H -0.598565 3.22405 -2.10456 0
M  V30 24 H -1.2748 2.15269 -3.36407 0
M  V30 25 H -4.60453 -0.19395 -0.335511 0
M  V30 26 H -3.23945 -1.59287 1.9312 0
M  V30 27 H -4.23604 -2.51936 0.683209 0
M  V30 28 H -4.98538 -1.27469 1.71506 0
M  V30 END ATOM
M  V30 BEGIN BOND
M  V30 1 1 1 2
M  V30 2 1 2 3
M  V30 3 1 3 4
M  V30 4 1 4 5
M  V30 5 1 5 6
M  V30 6 2 6 7
M  V30 7 1 7 8
M  V30 8 1 8 9
M  V30 9 2 8 10
M  V30 10 1 10 11
M  V30 11 2 11 12
M  V30 12 1 11 13
M  V30 13 1 13 14
M  V30 14 1 5 3
M  V30 15 1 12 6
M  V30 16 1 1 15
M  V30 17 1 1 16
M  V30 18 1 2 17
M  V30 19 1 2 18
M  V30 20 1 3 19 CFG=1
M  V30 21 1 4 20
M  V30 22 1 4 21
M  V30 23 1 5 22 CFG=1
M  V30 24 1 9 23
M  V30 25 1 9 24
M  V30 26 1 13 25
M  V30 27 1 14 26
M  V30 28 1 14 27
M  V30 29 1 14 28
M  V30 END BOND
M  V30 END CTAB
M  END
