
     RDKit          3D

  0  0  0  0  0  0  0  0  0  0999 V3000
M  V30 BEGIN CTAB
M  V30 COUNTS 9 8 0 0 0
M  V30 BEGIN ATOM
M  V30 1 H -1.1751 1.31146 0.113472 0 MASS=2
M  V30 2 N -1.34619 0.362356 0.528406 0
M  V30 3 H -2.19287 -0.0811584 0.095181 0 MASS=2
M  V30 4 S 0.0461985 -0.587646 0.131334 0
M  V30 5 O 0.279362 -1.68863 1.09694 0
M  V30 6 O -0.189595 -1.16185 -1.23512 0
M  V30 7 N 1.42411 0.46957 -0.00319615 0
M  V30 8 H 1.05322 1.33075 -0.473111 0 MASS=2
M  V30 9 H 2.10087 0.0451616 -0.670024 0 MASS=2
M  V30 END ATOM
M  V30 BEGIN BOND
M  V30 1 1 1 2
M  V30 2 1 2 3
M  V30 3 1 2 4
M  V30 4 2 4 5
M  V30 5 2 4 6
M  V30 6 1 4 7
M  V30 7 1 7 8
M  V30 8 1 7 9
M  V30 END BOND
M  V30 END CTAB
M  END
