
     RDKit          3D

  0  0  0  0  0  0  0  0  0  0999 V3000
M  V30 BEGIN CTAB
M  V30 COUNTS 54 58 0 0 0
M  V30 BEGIN ATOM
M  V30 1 O 2.62161 1.55623 -0.197853 0
M  V30 2 C 1.77708 1.04351 0.564088 0
M  V30 3 N 0.443675 0.882844 0.106417 0
M  V30 4 N -0.553667 0.289733 0.92878 0
M  V30 5 C -1.60341 0.0748758 0.266121 0
M  V30 6 C -1.44956 0.523696 -1.16942 0
M  V30 7 C -0.142293 1.22817 -1.16629 0
M  V30 8 C -0.329294 2.72939 -1.20946 0
M  V30 9 C -1.34638 3.45887 -1.7655 0
M  V30 10 C -1.28364 4.79071 -1.65479 0
M  V30 11 C -0.210314 5.32036 -0.996272 0
M  V30 12 S 0.681947 3.9398 -0.550034 0
M  V30 13 C -1.53415 -0.687874 -2.07616 0
M  V30 14 C -2.64065 -1.61215 -1.66599 0
M  V30 15 C -3.64014 -0.967577 -0.695818 0
M  V30 16 C -2.92746 -0.531846 0.534698 0
M  V30 17 C -3.33512 -0.65271 1.75165 0
M  V30 18 C -4.62784 -1.23561 2.12842 0
M  V30 19 C -5.86489 -1.05858 1.57172 0
M  V30 20 C -6.89361 -1.71836 2.1068 0
M  V30 21 C -6.63315 -2.52955 3.18127 0
M  V30 22 S -4.95696 -2.34115 3.40563 0
M  V30 23 C 2.20443 0.623032 1.91633 0
M  V30 24 S 3.94474 0.91289 2.22485 0
M  V30 25 C 4.97135 -0.105872 1.18704 0
M  V30 26 N 4.36483 -0.933277 0.321539 0
M  V30 27 C 5.10153 -1.72628 -0.482599 0
M  V30 28 N 4.46335 -2.60169 -1.40197 0
M  V30 29 C 6.48783 -1.68494 -0.413223 0
M  V30 30 C 7.07661 -0.822319 0.488131 0
M  V30 31 N 6.30082 -0.0494068 1.27075 0
M  V30 32 N 8.48785 -0.787183 0.552666 0
M  V30 33 H -2.29509 1.20936 -1.35794 0
M  V30 34 H 0.5377 0.920243 -1.9913 0
M  V30 35 H -2.17379 2.93135 -2.28932 0
M  V30 36 H -2.05419 5.47596 -2.06911 0
M  V30 37 H 0.00295298 6.38909 -0.812284 0
M  V30 38 H -0.590125 -1.2635 -2.0463 0
M  V30 39 H -1.72384 -0.328369 -3.10596 0
M  V30 40 H -2.24249 -2.56713 -1.24244 0
M  V30 41 H -3.23067 -1.89068 -2.56003 0
M  V30 42 H -4.07111 -0.0951045 -1.212 0
M  V30 43 H -4.34994 -1.76466 -0.43599 0
M  V30 44 H -2.71109 -0.313522 2.57272 0
M  V30 45 H -5.96208 -0.372222 0.698201 0
M  V30 46 H -7.93697 -1.64197 1.72909 0
M  V30 47 H -7.35659 -3.14494 3.74453 0
M  V30 48 H 1.6289 1.27824 2.63338 0
M  V30 49 H 1.90637 -0.439884 2.06264 0
M  V30 50 H 5.03792 -2.98345 -2.19253 0
M  V30 51 H 3.46893 -2.86325 -1.31009 0
M  V30 52 H 7.0951 -2.32409 -1.06091 0
M  V30 53 H 8.96218 -0.528628 1.44379 0
M  V30 54 H 9.10283 -1.01055 -0.259664 0
M  V30 END ATOM
M  V30 BEGIN BOND
M  V30 1 2 1 2
M  V30 2 1 2 3
M  V30 3 1 3 4
M  V30 4 2 4 5
M  V30 5 1 5 6
M  V30 6 1 6 7
M  V30 7 1 7 8
M  V30 8 2 8 9
M  V30 9 1 9 10
M  V30 10 2 10 11
M  V30 11 1 11 12
M  V30 12 1 6 13
M  V30 13 1 13 14
M  V30 14 1 14 15
M  V30 15 1 15 16
M  V30 16 2 16 17 CFG=2
M  V30 17 1 17 18
M  V30 18 2 18 19
M  V30 19 1 19 20
M  V30 20 2 20 21
M  V30 21 1 21 22
M  V30 22 1 2 23
M  V30 23 1 23 24
M  V30 24 1 24 25
M  V30 25 2 25 26
M  V30 26 1 26 27
M  V30 27 1 27 28
M  V30 28 2 27 29
M  V30 29 1 29 30
M  V30 30 2 30 31
M  V30 31 1 30 32
M  V30 32 1 7 3
M  V30 33 1 12 8
M  V30 34 1 22 18
M  V30 35 1 31 25
M  V30 36 1 16 5
M  V30 37 1 6 33
M  V30 38 1 7 34
M  V30 39 1 9 35
M  V30 40 1 10 36
M  V30 41 1 11 37
M  V30 42 1 13 38
M  V30 43 1 13 39
M  V30 44 1 14 40
M  V30 45 1 14 41
M  V30 46 1 15 42
M  V30 47 1 15 43
M  V30 48 1 17 44
M  V30 49 1 19 45
M  V30 50 1 20 46
M  V30 51 1 21 47
M  V30 52 1 23 48
M  V30 53 1 23 49
M  V30 54 1 28 50
M  V30 55 1 28 51
M  V30 56 1 29 52
M  V30 57 1 32 53
M  V30 58 1 32 54
M  V30 END BOND
M  V30 END CTAB
M  END
