
     RDKit          3D

  0  0  0  0  0  0  0  0  0  0999 V3000
M  V30 BEGIN CTAB
M  V30 COUNTS 68 71 0 0 0
M  V30 BEGIN ATOM
M  V30 1 C 3.48272 -2.84087 -0.673384 0
M  V30 2 C 2.1618 -3.45907 -0.228312 0
M  V30 3 C 0.986238 -2.64571 -0.543776 0
M  V30 4 N 0.812795 -1.34418 -0.0300352 0
M  V30 5 C 1.33025 -0.188823 -0.709166 0
M  V30 6 C 0.851617 0.101853 -1.95248 0
M  V30 7 O -0.0286163 -0.554501 -2.56308 0
M  V30 8 N 1.3557 1.17033 -2.57684 0
M  V30 9 C 2.31892 1.95815 -2.00762 0
M  V30 10 O 2.71815 2.93965 -2.68478 0
M  V30 11 N 2.82554 1.71544 -0.785943 0
M  V30 12 C 2.29612 0.620515 -0.163306 0
M  V30 13 N 2.78767 0.370247 1.17283 0
M  V30 14 C 3.82732 2.56524 -0.227769 0
M  V30 15 C 5.23553 2.23515 -0.512928 0
M  V30 16 C 6.00177 1.40654 0.264407 0
M  V30 17 C 7.33636 1.09823 0.00878188 0
M  V30 18 C 7.96116 1.64287 -1.08631 0
M  V30 19 C 7.22368 2.47867 -1.88678 0
M  V30 20 C 5.893 2.7795 -1.62318 0
M  V30 21 C 0.1063 -1.0963 1.16869 0
M  V30 22 O -0.120795 0.1128 1.55231 0
M  V30 23 C -0.438502 -2.11091 2.0898 0
M  V30 24 S -1.83405 -1.58571 3.09953 0
M  V30 25 C -3.33121 -1.42072 2.184 0
M  V30 26 N -4.1626 -2.46035 1.92494 0
M  V30 27 N -5.18637 -2.0064 1.2703 0
M  V30 28 C -5.06829 -0.646765 1.07338 0
M  V30 29 N -3.9047 -0.33833 1.65902 0
M  V30 30 N -3.37092 0.956917 1.74342 0
M  V30 31 C -6.05183 0.156125 0.367952 0
M  V30 32 C -5.94611 1.49325 0.167867 0
M  V30 33 C -6.92086 2.22796 -0.523596 0
M  V30 34 C -8.03016 1.59289 -1.0247 0
M  V30 35 C -8.14616 0.237733 -0.826614 0
M  V30 36 C -7.18845 -0.460218 -0.151782 0
M  V30 37 C -9.09135 2.33638 -1.76631 0
M  V30 38 C 2.32529 -4.00311 1.14161 0
M  V30 39 H 4.04055 -2.43704 0.196623 0
M  V30 40 H 3.32814 -2.0724 -1.45878 0
M  V30 41 H 4.16993 -3.58603 -1.12856 0
M  V30 42 H 2.08569 -4.38626 -0.895755 0
M  V30 43 H 0.866763 -2.64697 -1.66726 0
M  V30 44 H 0.0763387 -3.25592 -0.225889 0
M  V30 45 H 1.00548 1.42746 -3.5473 0
M  V30 46 H 2.68582 1.07908 1.93029 0
M  V30 47 H 3.24577 -0.517166 1.38593 0
M  V30 48 H 3.65412 3.65309 -0.500288 0
M  V30 49 H 3.63839 2.57638 0.890907 0
M  V30 50 H 5.60363 0.95165 1.14623 0
M  V30 51 H 7.89839 0.440823 0.648698 0
M  V30 52 H 9.00252 1.40463 -1.29073 0
M  V30 53 H 7.70606 2.91578 -2.75514 0
M  V30 54 H 5.39021 3.46092 -2.29795 0
M  V30 55 H -0.668805 -3.08895 1.614 0
M  V30 56 H 0.422478 -2.30579 2.82106 0
M  V30 57 H -3.58741 1.5724 2.54714 0
M  V30 58 H -2.75249 1.29842 0.992225 0
M  V30 59 H -5.11597 2.06084 0.524295 0
M  V30 60 H -6.77735 3.29946 -0.650732 0
M  V30 61 H -8.99358 -0.31688 -1.19358 0
M  V30 62 H -7.26913 -1.53301 0.0127814 0
M  V30 63 H -9.01778 2.05207 -2.83965 0
M  V30 64 H -8.96455 3.42979 -1.65714 0
M  V30 65 H -10.072 1.9947 -1.35342 0
M  V30 66 H 2.49019 -3.20286 1.92422 0
M  V30 67 H 1.57959 -4.74391 1.42442 0
M  V30 68 H 3.31206 -4.55879 1.16804 0
M  V30 END ATOM
M  V30 BEGIN BOND
M  V30 1 1 1 2
M  V30 2 1 2 3
M  V30 3 1 3 4
M  V30 4 1 4 5
M  V30 5 1 5 6
M  V30 6 2 6 7
M  V30 7 1 6 8
M  V30 8 1 8 9
M  V30 9 2 9 10
M  V30 10 1 9 11
M  V30 11 1 11 12
M  V30 12 1 12 13
M  V30 13 1 11 14
M  V30 14 1 14 15
M  V30 15 2 15 16
M  V30 16 1 16 17
M  V30 17 2 17 18
M  V30 18 1 18 19
M  V30 19 2 19 20
M  V30 20 1 4 21
M  V30 21 2 21 22
M  V30 22 1 21 23
M  V30 23 1 23 24
M  V30 24 1 24 25
M  V30 25 2 25 26
M  V30 26 1 26 27
M  V30 27 2 27 28
M  V30 28 1 28 29
M  V30 29 1 29 30
M  V30 30 1 28 31
M  V30 31 2 31 32
M  V30 32 1 32 33
M  V30 33 2 33 34
M  V30 34 1 34 35
M  V30 35 2 35 36
M  V30 36 1 34 37
M  V30 37 1 2 38
M  V30 38 2 12 5
M  V30 39 1 20 15
M  V30 40 1 29 25
M  V30 41 1 36 31
M  V30 42 1 1 39
M  V30 43 1 1 40
M  V30 44 1 1 41
M  V30 45 1 2 42
M  V30 46 1 3 43
M  V30 47 1 3 44
M  V30 48 1 8 45
M  V30 49 1 13 46
M  V30 50 1 13 47
M  V30 51 1 14 48
M  V30 52 1 14 49
M  V30 53 1 16 50
M  V30 54 1 17 51
M  V30 55 1 18 52
M  V30 56 1 19 53
M  V30 57 1 20 54
M  V30 58 1 23 55
M  V30 59 1 23 56
M  V30 60 1 30 57
M  V30 61 1 30 58
M  V30 62 1 32 59
M  V30 63 1 33 60
M  V30 64 1 35 61
M  V30 65 1 36 62
M  V30 66 1 37 63
M  V30 67 1 37 64
M  V30 68 1 37 65
M  V30 69 1 38 66
M  V30 70 1 38 67
M  V30 71 1 38 68
M  V30 END BOND
M  V30 END CTAB
M  END
