
     RDKit          3D

  0  0  0  0  0  0  0  0  0  0999 V3000
M  V30 BEGIN CTAB
M  V30 COUNTS 56 58 0 0 0
M  V30 BEGIN ATOM
M  V30 1 C -5.572 -1.06507 0.158227 0 CFG=1
M  V30 2 N -5.32981 -0.476148 1.44687 0
M  V30 3 C -6.45469 -0.206547 -0.660827 0
M  V30 4 C -7.81045 0.071889 -0.110552 0
M  V30 5 C -8.54224 0.966483 -1.12683 0
M  V30 6 C -7.70151 0.915966 1.1616 0
M  V30 7 C -4.29052 -1.24914 -0.596081 0
M  V30 8 O -4.3487 -1.75658 -1.74567 0
M  V30 9 O -3.06477 -0.892364 -0.0946069 0
M  V30 10 P -1.60119 -1.11684 -0.988779 0
M  V30 11 O -1.83097 -0.664263 -2.60999 0
M  V30 12 O -1.23652 -2.59022 -0.992355 0
M  V30 13 O -0.354539 -0.201872 -0.357891 0
M  V30 14 C 0.724193 -0.965191 0.0629273 0
M  V30 15 C 1.77431 -0.0247995 0.607914 0 CFG=1
M  V30 16 O 2.88854 -0.716728 1.05032 0
M  V30 17 C 3.95648 0.135579 1.07516 0 CFG=2
M  V30 18 C 3.6188 1.33406 0.212227 0 CFG=2
M  V30 19 O 3.2948 2.44048 0.989094 0
M  V30 20 C 2.37465 0.811924 -0.519439 0 CFG=2
M  V30 21 O 1.54522 1.8333 -0.907208 0
M  V30 22 N 5.18553 -0.495246 0.631165 0
M  V30 23 C 5.34988 -1.7462 0.150451 0
M  V30 24 N 6.66405 -1.95047 -0.154467 0
M  V30 25 C 7.34049 -0.828745 0.131693 0
M  V30 26 C 6.39752 0.063111 0.619658 0
M  V30 27 N 6.87118 1.28526 0.977749 0
M  V30 28 C 8.16901 1.61986 0.870327 0
M  V30 29 N 9.06608 0.715116 0.385781 0
M  V30 30 C 8.67693 -0.514847 0.0100023 0
M  V30 31 N 9.66196 -1.40476 -0.484664 0
M  V30 32 H -5.97087 -2.09856 0.306312 0
M  V30 33 H -4.45179 0.093257 1.45884 0
M  V30 34 H -5.21657 -1.20397 2.20112 0
M  V30 35 H -5.90533 0.7672 -0.823872 0
M  V30 36 H -6.52989 -0.648381 -1.6931 0
M  V30 37 H -8.41278 -0.831116 0.0388683 0
M  V30 38 H -8.13178 0.777186 -2.15413 0
M  V30 39 H -9.619 0.802005 -1.11767 0
M  V30 40 H -8.34815 2.0379 -0.916035 0
M  V30 41 H -6.82805 1.58581 1.10061 0
M  V30 42 H -7.7059 0.296729 2.05732 0
M  V30 43 H -8.58542 1.62015 1.2181 0
M  V30 44 H -1.88388 0.317468 -2.71477 0
M  V30 45 H 0.365961 -1.56804 0.936328 0
M  V30 46 H 1.17753 -1.57562 -0.722212 0
M  V30 47 H 1.37045 0.685225 1.35279 0
M  V30 48 H 4.17638 0.512161 2.1169 0
M  V30 49 H 4.45104 1.52171 -0.475404 0
M  V30 50 H 3.56095 2.26328 1.92899 0
M  V30 51 H 2.69045 0.136641 -1.3226 0
M  V30 52 H 1.31742 1.71506 -1.86418 0
M  V30 53 H 4.55668 -2.47003 0.0285333 0
M  V30 54 H 8.45338 2.61369 1.17925 0
M  V30 55 H 9.6392 -2.39029 -0.154025 0
M  V30 56 H 10.4083 -1.13884 -1.15776 0
M  V30 END ATOM
M  V30 BEGIN BOND
M  V30 1 1 1 2
M  V30 2 1 1 3
M  V30 3 1 3 4
M  V30 4 1 4 5
M  V30 5 1 4 6
M  V30 6 1 1 7
M  V30 7 2 7 8
M  V30 8 1 7 9
M  V30 9 1 9 10
M  V30 10 1 10 11
M  V30 11 2 10 12
M  V30 12 1 10 13
M  V30 13 1 13 14
M  V30 14 1 14 15
M  V30 15 1 15 16
M  V30 16 1 16 17
M  V30 17 1 17 18
M  V30 18 1 18 19
M  V30 19 1 18 20
M  V30 20 1 20 21
M  V30 21 1 17 22
M  V30 22 1 22 23
M  V30 23 2 23 24
M  V30 24 1 24 25
M  V30 25 2 25 26
M  V30 26 1 26 27
M  V30 27 2 27 28
M  V30 28 1 28 29
M  V30 29 2 29 30
M  V30 30 1 30 31
M  V30 31 1 20 15
M  V30 32 1 26 22
M  V30 33 1 30 25
M  V30 34 1 1 32 CFG=1
M  V30 35 1 2 33
M  V30 36 1 2 34
M  V30 37 1 3 35
M  V30 38 1 3 36
M  V30 39 1 4 37
M  V30 40 1 5 38
M  V30 41 1 5 39
M  V30 42 1 5 40
M  V30 43 1 6 41
M  V30 44 1 6 42
M  V30 45 1 6 43
M  V30 46 1 11 44
M  V30 47 1 14 45
M  V30 48 1 14 46
M  V30 49 1 15 47 CFG=1
M  V30 50 1 17 48 CFG=1
M  V30 51 1 18 49 CFG=3
M  V30 52 1 19 50
M  V30 53 1 20 51 CFG=3
M  V30 54 1 21 52
M  V30 55 1 23 53
M  V30 56 1 28 54
M  V30 57 1 31 55
M  V30 58 1 31 56
M  V30 END BOND
M  V30 END CTAB
M  END
