
     RDKit          3D

  0  0  0  0  0  0  0  0  0  0999 V3000
M  V30 BEGIN CTAB
M  V30 COUNTS 33 34 0 0 0
M  V30 BEGIN ATOM
M  V30 1 N 5.34454 1.66616 1.59242 0
M  V30 2 C 4.96617 0.982276 0.406515 0
M  V30 3 N 5.67877 1.13412 -0.635646 0
M  V30 4 C 3.78076 0.137845 0.433725 0
M  V30 5 C 3.30756 -0.576623 -0.643881 0
M  V30 6 C 2.18444 -1.3769 -0.618679 0
M  V30 7 C 1.48159 -1.47805 0.549844 0
M  V30 8 S 0.0122552 -2.48425 0.700195 0
M  V30 9 C -1.37709 -1.41835 0.27441 0
M  V30 10 C -2.6782 -1.9175 0.297306 0
M  V30 11 C -3.75612 -1.12904 -0.0221668 0
M  V30 12 C -3.59945 0.190696 -0.3796 0
M  V30 13 C -2.30917 0.676686 -0.399771 0
M  V30 14 C -1.21697 -0.0993208 -0.0825106 0
M  V30 15 C -4.73502 1.03894 -0.72111 0
M  V30 16 N -6.02337 0.471748 -0.677959 0
M  V30 17 N -4.58915 2.27011 -1.05454 0
M  V30 18 C 1.91566 -0.782614 1.65386 0
M  V30 19 C 3.03513 0.00929822 1.61211 0
M  V30 20 H 5.09595 2.66456 1.70857 0
M  V30 21 H 5.86272 1.16772 2.32909 0
M  V30 22 H 5.48221 0.679283 -1.53874 0
M  V30 23 H 3.86316 -0.500999 -1.5802 0
M  V30 24 H 1.84136 -1.92756 -1.49407 0
M  V30 25 H -2.77439 -2.96352 0.583144 0
M  V30 26 H -4.76435 -1.54255 0.00310411 0
M  V30 27 H -2.17411 1.72498 -0.682726 0
M  V30 28 H -0.211074 0.296873 -0.103119 0
M  V30 29 H -6.69965 0.66522 -1.4296 0
M  V30 30 H -6.28977 -0.138672 0.108321 0
M  V30 31 H -5.38722 2.86629 -1.29456 0
M  V30 32 H 1.34412 -0.873973 2.57787 0
M  V30 33 H 3.38873 0.567106 2.48635 0
M  V30 END ATOM
M  V30 BEGIN BOND
M  V30 1 1 1 2
M  V30 2 2 2 3 CFG=2
M  V30 3 1 2 4
M  V30 4 2 4 5
M  V30 5 1 5 6
M  V30 6 2 6 7
M  V30 7 1 7 8
M  V30 8 1 8 9
M  V30 9 2 9 10
M  V30 10 1 10 11
M  V30 11 2 11 12
M  V30 12 1 12 13
M  V30 13 2 13 14
M  V30 14 1 12 15
M  V30 15 1 15 16
M  V30 16 2 15 17 CFG=2
M  V30 17 1 7 18
M  V30 18 2 18 19
M  V30 19 1 19 4
M  V30 20 1 14 9
M  V30 21 1 1 20
M  V30 22 1 1 21
M  V30 23 1 3 22
M  V30 24 1 5 23
M  V30 25 1 6 24
M  V30 26 1 10 25
M  V30 27 1 11 26
M  V30 28 1 13 27
M  V30 29 1 14 28
M  V30 30 1 16 29
M  V30 31 1 16 30
M  V30 32 1 17 31
M  V30 33 1 18 32
M  V30 34 1 19 33
M  V30 END BOND
M  V30 END CTAB
M  END
