
     RDKit          3D

  0  0  0  0  0  0  0  0  0  0999 V3000
M  V30 BEGIN CTAB
M  V30 COUNTS 43 45 0 0 0
M  V30 BEGIN ATOM
M  V30 1 O 1.22039 2.05788 0.0816069 0
M  V30 2 C 0.974935 0.858372 0.241654 0
M  V30 3 C -0.482611 0.458289 0.345513 0
M  V30 4 C -1.36334 1.62754 0.2312 0
M  V30 5 C -2.7291 1.39519 -0.314549 0
M  V30 6 C -3.65471 0.868637 0.739718 0
M  V30 7 C -4.10406 -0.539586 0.510247 0
M  V30 8 C -3.04118 -1.45079 -0.00584715 0
M  V30 9 C -2.14941 -0.827394 -1.04099 0
M  V30 10 C -0.758374 -0.699233 -0.535418 0
M  V30 11 C -2.65526 0.50767 -1.53217 0
M  V30 12 N -3.89769 0.41494 -2.24413 0
M  V30 13 N 1.96023 -0.139295 0.331126 0
M  V30 14 C 3.35495 -0.0396739 0.267361 0
M  V30 15 C 3.97886 1.15787 0.093457 0
M  V30 16 C 5.37536 1.1986 0.0369782 0
M  V30 17 C 6.14757 0.0748572 0.150264 0
M  V30 18 C 5.48384 -1.11811 0.325056 0
M  V30 19 C 4.10979 -1.19946 0.385819 0
M  V30 20 N 3.49795 -2.48967 0.571011 0
M  V30 21 H -0.562947 0.0723796 1.40778 0
M  V30 22 H -0.859728 2.39417 -0.428185 0
M  V30 23 H -1.4848 2.16285 1.21803 0
M  V30 24 H -3.15834 2.36808 -0.669093 0
M  V30 25 H -3.15449 0.95748 1.73906 0
M  V30 26 H -4.58993 1.49008 0.842717 0
M  V30 27 H -4.42634 -0.94708 1.51391 0
M  V30 28 H -5.0069 -0.588778 -0.122063 0
M  V30 29 H -3.53277 -2.38215 -0.357214 0
M  V30 30 H -2.41165 -1.77311 0.875333 0
M  V30 31 H -2.15803 -1.50935 -1.92668 0
M  V30 32 H -0.0560988 -0.635271 -1.41397 0
M  V30 33 H -0.486941 -1.67982 -0.0448329 0
M  V30 34 H -1.87471 0.92495 -2.20148 0
M  V30 35 H -3.77163 0.599443 -3.28476 0
M  V30 36 H -4.55161 1.18109 -1.92799 0
M  V30 37 H 1.59197 -1.15226 0.472238 0
M  V30 38 H 3.47636 2.12204 -0.00961709 0
M  V30 39 H 5.87918 2.1496 -0.101439 0
M  V30 40 H 7.24816 0.115249 0.104732 0
M  V30 41 H 6.09434 -2.02268 0.416648 0
M  V30 42 H 3.11219 -3.03487 -0.232015 0
M  V30 43 H 3.41657 -2.92867 1.51234 0
M  V30 END ATOM
M  V30 BEGIN BOND
M  V30 1 2 1 2
M  V30 2 1 2 3
M  V30 3 1 3 4
M  V30 4 1 4 5
M  V30 5 1 5 6
M  V30 6 1 6 7
M  V30 7 1 7 8
M  V30 8 1 8 9
M  V30 9 1 9 10
M  V30 10 1 9 11
M  V30 11 1 11 12
M  V30 12 1 2 13
M  V30 13 1 13 14
M  V30 14 2 14 15
M  V30 15 1 15 16
M  V30 16 2 16 17
M  V30 17 1 17 18
M  V30 18 2 18 19
M  V30 19 1 19 20
M  V30 20 1 10 3
M  V30 21 1 19 14
M  V30 22 1 11 5
M  V30 23 1 3 21
M  V30 24 1 4 22
M  V30 25 1 4 23
M  V30 26 1 5 24
M  V30 27 1 6 25
M  V30 28 1 6 26
M  V30 29 1 7 27
M  V30 30 1 7 28
M  V30 31 1 8 29
M  V30 32 1 8 30
M  V30 33 1 9 31
M  V30 34 1 10 32
M  V30 35 1 10 33
M  V30 36 1 11 34
M  V30 37 1 12 35
M  V30 38 1 12 36
M  V30 39 1 13 37
M  V30 40 1 15 38
M  V30 41 1 16 39
M  V30 42 1 17 40
M  V30 43 1 18 41
M  V30 44 1 20 42
M  V30 45 1 20 43
M  V30 END BOND
M  V30 END CTAB
M  END
