
     RDKit          3D

  0  0  0  0  0  0  0  0  0  0999 V3000
M  V30 BEGIN CTAB
M  V30 COUNTS 67 70 0 0 0
M  V30 BEGIN ATOM
M  V30 1 C 1.12514 2.4078 3.61951 0
M  V30 2 O 1.31178 1.06528 3.22143 0
M  V30 3 C 2.31557 0.801343 2.25474 0
M  V30 4 C 3.06838 1.82871 1.73776 0
M  V30 5 C 4.04969 1.58625 0.79647 0
M  V30 6 C 4.26093 0.272035 0.380539 0
M  V30 7 C 3.52921 -0.782407 0.872707 0
M  V30 8 C 2.54974 -0.474211 1.82385 0
M  V30 9 C 3.76417 -2.12935 0.437321 0
M  V30 10 C 3.61884 -2.54251 -0.865405 0
M  V30 11 C 3.9288 -3.85899 -1.20802 0
M  V30 12 C 4.37991 -4.74975 -0.232803 0
M  V30 13 C 4.5273 -4.35586 1.06506 0
M  V30 14 C 5.009 -5.33532 2.07556 0
M  V30 15 C 4.21748 -3.05732 1.37312 0
M  V30 16 C 3.10424 -1.62496 -1.87126 0
M  V30 17 O 1.703 -1.42577 -1.53224 0
M  V30 18 C 1.04573 -0.24141 -1.69071 0
M  V30 19 C -0.296432 -0.220218 -1.31153 0
M  V30 20 C -1.00667 0.933642 -1.44583 0
M  V30 21 N -0.387663 2.03728 -1.94715 0
M  V30 22 C 0.9027 2.04464 -2.31996 0
M  V30 23 N 1.46211 3.24021 -2.83284 0
M  V30 24 N 1.56849 0.892417 -2.17344 0
M  V30 25 C -2.41504 1.07884 -1.08119 0
M  V30 26 C -3.06091 2.2931 -1.21547 0
M  V30 27 C -4.38868 2.47327 -0.889033 0
M  V30 28 C -5.14891 1.43052 -0.404904 0
M  V30 29 C -6.57982 1.63954 -0.0528211 0
M  V30 30 C -6.75826 2.04036 1.39702 0 CFG=2
M  V30 31 N -6.21004 0.941023 2.18935 0
M  V30 32 C -8.22038 2.08301 1.65522 0
M  V30 33 O -8.98484 3.07376 1.02188 0
M  V30 34 O -8.83257 1.29822 2.40033 0
M  V30 35 C -4.51548 0.214684 -0.267184 0
M  V30 36 C -3.16809 0.0317322 -0.597622 0
M  V30 37 C 3.11736 -2.24173 -3.27242 0
M  V30 38 F 2.63653 -1.24225 -4.17185 0
M  V30 39 F 2.2857 -3.33047 -3.3941 0
M  V30 40 F 4.36526 -2.52763 -3.69906 0
M  V30 41 H 0.937457 3.06327 2.71966 0
M  V30 42 H 2.02205 2.82791 4.11372 0
M  V30 43 H 0.26863 2.53648 4.29435 0
M  V30 44 H 2.86367 2.82813 2.09471 0
M  V30 45 H 4.65032 2.39519 0.383185 0
M  V30 46 H 5.06548 0.153872 -0.360394 0
M  V30 47 H 1.98557 -1.30695 2.20042 0
M  V30 48 H 3.86298 -4.27077 -2.19149 0
M  V30 49 H 4.61196 -5.76658 -0.532487 0
M  V30 50 H 5.49778 -4.82439 2.93151 0
M  V30 51 H 4.14372 -5.89255 2.50863 0
M  V30 52 H 5.72232 -6.04898 1.65237 0
M  V30 53 H 4.32712 -2.73473 2.38418 0
M  V30 54 H 3.50266 -0.612455 -1.91539 0
M  V30 55 H -0.760835 -1.10401 -0.919102 0
M  V30 56 H 1.48303 4.08284 -2.22256 0
M  V30 57 H 1.8571 3.32711 -3.79181 0
M  V30 58 H -2.46794 3.1302 -1.60115 0
M  V30 59 H -4.86473 3.45016 -1.01017 0
M  V30 60 H -7.02167 2.45355 -0.665569 0
M  V30 61 H -7.19194 0.734421 -0.222052 0
M  V30 62 H -6.26995 2.99457 1.63912 0
M  V30 63 H -6.55721 0.0203318 1.84773 0
M  V30 64 H -5.18389 0.952288 2.22372 0
M  V30 65 H -8.59268 3.62005 0.289865 0
M  V30 66 H -5.06007 -0.629928 0.103757 0
M  V30 67 H -2.70421 -0.946576 -0.474813 0
M  V30 END ATOM
M  V30 BEGIN BOND
M  V30 1 1 1 2
M  V30 2 1 2 3
M  V30 3 2 3 4
M  V30 4 1 4 5
M  V30 5 2 5 6
M  V30 6 1 6 7
M  V30 7 2 7 8
M  V30 8 1 7 9
M  V30 9 1 9 10
M  V30 10 2 10 11
M  V30 11 1 11 12
M  V30 12 2 12 13
M  V30 13 1 13 14
M  V30 14 1 13 15
M  V30 15 1 10 16
M  V30 16 1 16 17
M  V30 17 1 17 18
M  V30 18 2 18 19
M  V30 19 1 19 20
M  V30 20 2 20 21
M  V30 21 1 21 22
M  V30 22 1 22 23
M  V30 23 2 22 24
M  V30 24 1 20 25
M  V30 25 2 25 26
M  V30 26 1 26 27
M  V30 27 2 27 28
M  V30 28 1 28 29
M  V30 29 1 29 30
M  V30 30 1 30 31
M  V30 31 1 30 32
M  V30 32 1 32 33
M  V30 33 2 32 34
M  V30 34 1 28 35
M  V30 35 2 35 36
M  V30 36 1 16 37
M  V30 37 1 37 38
M  V30 38 1 37 39
M  V30 39 1 37 40
M  V30 40 1 8 3
M  V30 41 2 15 9
M  V30 42 1 24 18
M  V30 43 1 36 25
M  V30 44 1 1 41
M  V30 45 1 1 42
M  V30 46 1 1 43
M  V30 47 1 4 44
M  V30 48 1 5 45
M  V30 49 1 6 46
M  V30 50 1 8 47
M  V30 51 1 11 48
M  V30 52 1 12 49
M  V30 53 1 14 50
M  V30 54 1 14 51
M  V30 55 1 14 52
M  V30 56 1 15 53
M  V30 57 1 16 54
M  V30 58 1 19 55
M  V30 59 1 23 56
M  V30 60 1 23 57
M  V30 61 1 26 58
M  V30 62 1 27 59
M  V30 63 1 29 60
M  V30 64 1 29 61
M  V30 65 1 30 62 CFG=3
M  V30 66 1 31 63
M  V30 67 1 31 64
M  V30 68 1 33 65
M  V30 69 1 35 66
M  V30 70 1 36 67
M  V30 END BOND
M  V30 END CTAB
M  END
