
     RDKit          3D

  0  0  0  0  0  0  0  0  0  0999 V3000
M  V30 BEGIN CTAB
M  V30 COUNTS 68 71 0 0 0
M  V30 BEGIN ATOM
M  V30 1 C -2.7846 3.68951 -3.78569 0
M  V30 2 C -1.6614 2.85445 -4.28674 0
M  V30 3 O -0.99108 2.1236 -3.28554 0
M  V30 4 C -1.61347 1.18153 -2.47898 0
M  V30 5 O -2.83618 1.02137 -2.70548 0
M  V30 6 C -0.877533 0.429484 -1.4337 0
M  V30 7 C 0.396149 0.714615 -1.32691 0
M  V30 8 N 1.00961 1.70282 -2.18788 0
M  V30 9 N 1.27812 0.116932 -0.404324 0
M  V30 10 C 2.64235 0.436835 -0.305601 0
M  V30 11 C 3.51657 -0.297608 -1.0824 0
M  V30 12 C 4.87541 -0.0760886 -1.07088 0
M  V30 13 C 5.39827 0.904334 -0.265969 0
M  V30 14 C 4.52173 1.63737 0.50989 0
M  V30 15 C 3.16009 1.41674 0.499582 0
M  V30 16 S 7.12047 1.17879 -0.256685 0
M  V30 17 O 7.70357 0.763279 -1.59573 0
M  V30 18 O 7.45102 2.61526 0.0464108 0
M  V30 19 N 7.84191 0.197618 0.946277 0
M  V30 20 C 0.666967 -0.878561 0.461507 0
M  V30 21 C -0.595619 -1.17987 0.377446 0
M  V30 22 C -1.49545 -0.553983 -0.578869 0
M  V30 23 C -2.80215 -0.18609 -0.043797 0
M  V30 24 C -3.94057 -0.772633 -0.495251 0
M  V30 25 C -5.19435 -0.448574 -0.011269 0
M  V30 26 C -5.2835 0.507645 0.96701 0
M  V30 27 C -4.14815 1.12403 1.44901 0
M  V30 28 C -2.89109 0.767032 0.931319 0
M  V30 29 S -6.89221 0.947922 1.61332 0
M  V30 30 C -8.20897 0.0139011 0.835452 0
M  V30 31 C -1.10886 -2.21769 1.31796 0
M  V30 32 O -2.31946 -2.2539 1.60032 0
M  V30 33 C -0.157675 -3.18703 1.89805 0
M  V30 34 C 1.10966 -2.49391 2.34612 0
M  V30 35 C 1.62899 -1.4918 1.41944 0
M  V30 36 C 0.899175 -1.85912 3.728 0
M  V30 37 C 2.15133 -3.60195 2.53375 0
M  V30 38 H -2.81142 4.62768 -4.37926 0
M  V30 39 H -3.78429 3.22374 -3.90354 0
M  V30 40 H -2.60548 4.02418 -2.72187 0
M  V30 41 H -0.901792 3.49912 -4.77396 0
M  V30 42 H -1.99684 2.13482 -5.06144 0
M  V30 43 H 1.4031 1.45467 -3.10313 0
M  V30 44 H 1.03547 2.6704 -1.84321 0
M  V30 45 H 3.16998 -1.0919 -1.74509 0
M  V30 46 H 5.56164 -0.666048 -1.69261 0
M  V30 47 H 4.94204 2.41075 1.14376 0
M  V30 48 H 2.46056 1.98427 1.10315 0
M  V30 49 H 8.72249 -0.261372 0.627495 0
M  V30 50 H 7.1493 -0.488121 1.31645 0
M  V30 51 H -1.7304 -1.42399 -1.3118 0
M  V30 52 H -3.93736 -1.54706 -1.27907 0
M  V30 53 H -6.084 -0.917791 -0.374905 0
M  V30 54 H -4.26549 1.86833 2.21636 0
M  V30 55 H -2.05956 1.30224 1.36901 0
M  V30 56 H -8.49192 0.519576 -0.111057 0
M  V30 57 H -7.94296 -1.05335 0.666812 0
M  V30 58 H -9.11421 0.000459134 1.47685 0
M  V30 59 H 0.0821897 -4.02753 1.21371 0
M  V30 60 H -0.612404 -3.63918 2.80438 0
M  V30 61 H 2.44467 -1.96009 0.793568 0
M  V30 62 H 2.1211 -0.684994 2.007 0
M  V30 63 H 1.8782 -1.69271 4.20147 0
M  V30 64 H 0.253452 -2.54908 4.33162 0
M  V30 65 H 0.383659 -0.890569 3.54736 0
M  V30 66 H 1.96977 -4.3417 1.72459 0
M  V30 67 H 2.01426 -4.11587 3.49569 0
M  V30 68 H 3.17714 -3.21511 2.3825 0
M  V30 END ATOM
M  V30 BEGIN BOND
M  V30 1 1 1 2
M  V30 2 1 2 3
M  V30 3 1 3 4
M  V30 4 2 4 5
M  V30 5 1 4 6
M  V30 6 2 6 7
M  V30 7 1 7 8
M  V30 8 1 7 9
M  V30 9 1 9 10
M  V30 10 2 10 11
M  V30 11 1 11 12
M  V30 12 2 12 13
M  V30 13 1 13 14
M  V30 14 2 14 15
M  V30 15 1 13 16
M  V30 16 2 16 17
M  V30 17 2 16 18
M  V30 18 1 16 19
M  V30 19 1 9 20
M  V30 20 2 20 21
M  V30 21 1 21 22
M  V30 22 1 22 23
M  V30 23 2 23 24
M  V30 24 1 24 25
M  V30 25 2 25 26
M  V30 26 1 26 27
M  V30 27 2 27 28
M  V30 28 1 26 29
M  V30 29 1 29 30
M  V30 30 1 21 31
M  V30 31 2 31 32
M  V30 32 1 31 33
M  V30 33 1 33 34
M  V30 34 1 34 35
M  V30 35 1 34 36
M  V30 36 1 34 37
M  V30 37 1 22 6
M  V30 38 1 28 23
M  V30 39 1 15 10
M  V30 40 1 35 20
M  V30 41 1 1 38
M  V30 42 1 1 39
M  V30 43 1 1 40
M  V30 44 1 2 41
M  V30 45 1 2 42
M  V30 46 1 8 43
M  V30 47 1 8 44
M  V30 48 1 11 45
M  V30 49 1 12 46
M  V30 50 1 14 47
M  V30 51 1 15 48
M  V30 52 1 19 49
M  V30 53 1 19 50
M  V30 54 1 22 51
M  V30 55 1 24 52
M  V30 56 1 25 53
M  V30 57 1 27 54
M  V30 58 1 28 55
M  V30 59 1 30 56
M  V30 60 1 30 57
M  V30 61 1 30 58
M  V30 62 1 33 59
M  V30 63 1 33 60
M  V30 64 1 35 61
M  V30 65 1 35 62
M  V30 66 1 36 63
M  V30 67 1 36 64
M  V30 68 1 36 65
M  V30 69 1 37 66
M  V30 70 1 37 67
M  V30 71 1 37 68
M  V30 END BOND
M  V30 END CTAB
M  END
