
     RDKit          3D

  0  0  0  0  0  0  0  0  0  0999 V3000
M  V30 BEGIN CTAB
M  V30 COUNTS 40 42 0 0 0
M  V30 BEGIN ATOM
M  V30 1 N 0.477174 3.25298 0.603511 0
M  V30 2 C 0.237027 2.16369 0.337131 0
M  V30 3 C -0.0863044 0.824206 0.0292542 0
M  V30 4 C 0.885517 -0.119885 -0.188493 0
M  V30 5 N 0.398817 -1.37291 -0.452384 0
M  V30 6 C -0.876435 -1.69857 -0.505529 0
M  V30 7 C -1.86564 -0.773038 -0.29243 0
M  V30 8 C -1.4541 0.511746 -0.0201612 0
M  V30 9 C -2.40878 1.48016 0.201596 0
M  V30 10 C -3.73203 1.15089 0.14773 0
M  V30 11 O -4.69264 2.13059 0.372009 0
M  V30 12 C -6.07627 1.86703 0.333142 0
M  V30 13 N -4.16343 -0.094992 -0.115884 0
M  V30 14 C -3.21497 -1.05561 -0.335875 0
M  V30 15 N -3.59962 -2.39386 -0.620242 0
M  V30 16 N -1.30116 -3.04495 -0.790614 0
M  V30 17 N 2.2735 0.114407 -0.182925 0
M  V30 18 C 3.15946 -1.05736 -0.196595 0
M  V30 19 C 4.21137 -0.948212 0.885037 0
M  V30 20 C 5.0895 0.234348 0.550337 0
M  V30 21 C 4.47068 1.10406 -0.523498 0
M  V30 22 C 2.97336 1.367 -0.193852 0
M  V30 23 H -2.07348 2.48723 0.414852 0
M  V30 24 H -6.42109 1.51637 1.33681 0
M  V30 25 H -6.68666 2.71359 0.00456933 0
M  V30 26 H -6.26329 1.04405 -0.415038 0
M  V30 27 H -3.76786 -2.71438 -1.59683 0
M  V30 28 H -3.72404 -3.08242 0.144135 0
M  V30 29 H -1.41962 -3.68641 0.0226982 0
M  V30 30 H -1.48401 -3.38813 -1.73812 0
M  V30 31 H 2.52182 -1.94359 -0.0292516 0
M  V30 32 H 3.58811 -1.09541 -1.21444 0
M  V30 33 H 3.71472 -0.86716 1.84811 0
M  V30 34 H 4.78627 -1.8944 0.861084 0
M  V30 35 H 6.04157 -0.158106 0.16075 0
M  V30 36 H 5.28021 0.798984 1.47326 0
M  V30 37 H 4.59298 0.710335 -1.52902 0
M  V30 38 H 4.94679 2.10093 -0.457368 0
M  V30 39 H 2.64244 2.05736 -0.977317 0
M  V30 40 H 3.02012 1.75942 0.830841 0
M  V30 END ATOM
M  V30 BEGIN BOND
M  V30 1 3 1 2
M  V30 2 1 2 3
M  V30 3 2 3 4
M  V30 4 1 4 5
M  V30 5 2 5 6
M  V30 6 1 6 7
M  V30 7 2 7 8
M  V30 8 1 8 9
M  V30 9 2 9 10
M  V30 10 1 10 11
M  V30 11 1 11 12
M  V30 12 1 10 13
M  V30 13 2 13 14
M  V30 14 1 14 15
M  V30 15 1 6 16
M  V30 16 1 4 17
M  V30 17 1 17 18
M  V30 18 1 18 19
M  V30 19 1 19 20
M  V30 20 1 20 21
M  V30 21 1 21 22
M  V30 22 1 8 3
M  V30 23 1 22 17
M  V30 24 1 14 7
M  V30 25 1 9 23
M  V30 26 1 12 24
M  V30 27 1 12 25
M  V30 28 1 12 26
M  V30 29 1 15 27
M  V30 30 1 15 28
M  V30 31 1 16 29
M  V30 32 1 16 30
M  V30 33 1 18 31
M  V30 34 1 18 32
M  V30 35 1 19 33
M  V30 36 1 19 34
M  V30 37 1 20 35
M  V30 38 1 20 36
M  V30 39 1 21 37
M  V30 40 1 21 38
M  V30 41 1 22 39
M  V30 42 1 22 40
M  V30 END BOND
M  V30 END CTAB
M  END
