
     RDKit          3D

  0  0  0  0  0  0  0  0  0  0999 V3000
M  V30 BEGIN CTAB
M  V30 COUNTS 29 29 0 0 0
M  V30 BEGIN ATOM
M  V30 1 C -2.24488 1.18754 -0.814794 0
M  V30 2 C -1.99016 -0.052715 0.0117829 0
M  V30 3 N -0.696641 -0.617614 -0.21399 0
M  V30 4 C 0.521566 0.101058 0.0227079 0
M  V30 5 N 0.554781 1.36077 0.473595 0
M  V30 6 C 1.72513 1.9993 0.681865 0
M  V30 7 C 2.94029 1.38086 0.438863 0
M  V30 8 C 2.9527 0.0911141 -0.0235878 0
M  V30 9 C 1.72024 -0.529539 -0.224365 0
M  V30 10 N 1.77904 -1.87127 -0.706318 0
M  V30 11 N 4.17075 -0.600309 -0.292786 0
M  V30 12 C -3.04734 -1.05872 -0.381271 0
M  V30 13 C -2.23559 0.273469 1.47804 0
M  V30 14 H -1.96271 1.02044 -1.86646 0
M  V30 15 H -3.35397 1.35314 -0.790133 0
M  V30 16 H -1.79484 2.09158 -0.37938 0
M  V30 17 H -0.645071 -1.59815 -0.566913 0
M  V30 18 H 1.66903 3.01768 1.04783 0
M  V30 19 H 3.87613 1.91504 0.61386 0
M  V30 20 H 1.50458 -2.15595 -1.66371 0
M  V30 21 H 2.11765 -2.59907 -0.0536306 0
M  V30 22 H 4.19233 -1.62969 -0.164072 0
M  V30 23 H 5.04032 -0.121517 -0.612565 0
M  V30 24 H -4.07137 -0.686543 -0.219309 0
M  V30 25 H -2.85691 -2.02001 0.14352 0
M  V30 26 H -2.92908 -1.27405 -1.46293 0
M  V30 27 H -2.88454 1.15318 1.51433 0
M  V30 28 H -2.74165 -0.601106 1.97457 0
M  V30 29 H -1.3098 0.471067 2.03525 0
M  V30 END ATOM
M  V30 BEGIN BOND
M  V30 1 1 1 2
M  V30 2 1 2 3
M  V30 3 1 3 4
M  V30 4 2 4 5
M  V30 5 1 5 6
M  V30 6 2 6 7
M  V30 7 1 7 8
M  V30 8 2 8 9
M  V30 9 1 9 10
M  V30 10 1 8 11
M  V30 11 1 2 12
M  V30 12 1 2 13
M  V30 13 1 9 4
M  V30 14 1 1 14
M  V30 15 1 1 15
M  V30 16 1 1 16
M  V30 17 1 3 17
M  V30 18 1 6 18
M  V30 19 1 7 19
M  V30 20 1 10 20
M  V30 21 1 10 21
M  V30 22 1 11 22
M  V30 23 1 11 23
M  V30 24 1 12 24
M  V30 25 1 12 25
M  V30 26 1 12 26
M  V30 27 1 13 27
M  V30 28 1 13 28
M  V30 29 1 13 29
M  V30 END BOND
M  V30 END CTAB
M  END
