
     RDKit          3D

  0  0  0  0  0  0  0  0  0  0999 V3000
M  V30 BEGIN CTAB
M  V30 COUNTS 24 23 0 0 0
M  V30 BEGIN ATOM
M  V30 1 N -0.488988 1.51853 2.15392 0
M  V30 2 N -0.906926 1.06054 0.959664 0
M  V30 3 C -0.260911 0.293799 0.0896641 0
M  V30 4 C -1.01877 -0.0312628 -1.14579 0
M  V30 5 C -1.70804 -1.32975 -1.19227 0
M  V30 6 F -2.34762 -1.43742 -2.44599 0
M  V30 7 F -2.80374 -1.35762 -0.284276 0
M  V30 8 F -1.02657 -2.46987 -1.01154 0
M  V30 9 C -2.05211 1.07337 -1.33809 0
M  V30 10 F -1.38391 2.28485 -1.45036 0
M  V30 11 F -2.63175 0.867674 -2.5709 0
M  V30 12 F -3.03146 1.07592 -0.391292 0
M  V30 13 C 1.04052 -0.152179 0.478017 0
M  V30 14 N 1.47138 0.194596 1.65407 0
M  V30 15 N 2.64997 -0.0923403 2.25637 0
M  V30 16 C 1.98049 -0.947417 -0.318465 0
M  V30 17 F 1.84915 -0.812539 -1.6867 0
M  V30 18 F 2.07541 -2.26157 0.0213608 0
M  V30 19 F 3.31269 -0.456165 -0.0176309 0
M  V30 20 H 0.156783 2.34941 2.31586 0
M  V30 21 H -0.798129 1.05046 3.0367 0
M  V30 22 H -0.343599 0.0620101 -2.00944 0
M  V30 23 H 2.95293 -1.10059 2.3609 0
M  V30 24 H 3.31321 0.617551 2.64223 0
M  V30 END ATOM
M  V30 BEGIN BOND
M  V30 1 1 1 2
M  V30 2 2 2 3 CFG=2
M  V30 3 1 3 4
M  V30 4 1 4 5
M  V30 5 1 5 6
M  V30 6 1 5 7
M  V30 7 1 5 8
M  V30 8 1 4 9
M  V30 9 1 9 10
M  V30 10 1 9 11
M  V30 11 1 9 12
M  V30 12 1 3 13
M  V30 13 2 13 14 CFG=2
M  V30 14 1 14 15
M  V30 15 1 13 16
M  V30 16 1 16 17
M  V30 17 1 16 18
M  V30 18 1 16 19
M  V30 19 1 1 20
M  V30 20 1 1 21
M  V30 21 1 4 22
M  V30 22 1 15 23
M  V30 23 1 15 24
M  V30 END BOND
M  V30 END CTAB
M  END
