
     RDKit          3D

  0  0  0  0  0  0  0  0  0  0999 V3000
M  V30 BEGIN CTAB
M  V30 COUNTS 24 24 0 0 0
M  V30 BEGIN ATOM
M  V30 1 C -1.5305 1.8105 -0.822488 0
M  V30 2 C -1.7616 0.370196 -0.485852 0
M  V30 3 C -0.802785 -0.154542 0.546222 0
M  V30 4 C 0.607483 -0.0478578 0.0816069 0
M  V30 5 N 1.11638 -0.623997 -1.01556 0
M  V30 6 N 2.41149 -0.318351 -1.12822 0
M  V30 7 C 2.75606 0.468077 -0.0918981 0
M  V30 8 N 1.63272 0.621497 0.638747 0
M  V30 9 N 4.05559 1.00928 0.14968 0
M  V30 10 C -1.13627 -1.60451 0.822055 0
M  V30 11 N -2.50021 -1.69254 1.31705 0
M  V30 12 H -1.51136 1.91833 -1.94046 0
M  V30 13 H -2.37345 2.45325 -0.470868 0
M  V30 14 H -0.548242 2.18838 -0.443055 0
M  V30 15 H -1.71996 -0.279931 -1.38348 0
M  V30 16 H -2.79122 0.239106 -0.0569568 0
M  V30 17 H -0.969939 0.414427 1.48116 0
M  V30 18 H 2.99001 -0.671758 -1.91946 0
M  V30 19 H 4.58597 1.53428 -0.584715 0
M  V30 20 H 4.46943 0.85851 1.11166 0
M  V30 21 H -0.402512 -1.94891 1.60037 0
M  V30 22 H -0.999 -2.16521 -0.130233 0
M  V30 23 H -2.50364 -2.27896 2.17929 0
M  V30 24 H -3.07446 -2.09927 0.545389 0
M  V30 END ATOM
M  V30 BEGIN BOND
M  V30 1 1 1 2
M  V30 2 1 2 3
M  V30 3 1 3 4
M  V30 4 2 4 5
M  V30 5 1 5 6
M  V30 6 1 6 7
M  V30 7 2 7 8
M  V30 8 1 7 9
M  V30 9 1 3 10
M  V30 10 1 10 11
M  V30 11 1 8 4
M  V30 12 1 1 12
M  V30 13 1 1 13
M  V30 14 1 1 14
M  V30 15 1 2 15
M  V30 16 1 2 16
M  V30 17 1 3 17
M  V30 18 1 6 18
M  V30 19 1 9 19
M  V30 20 1 9 20
M  V30 21 1 10 21
M  V30 22 1 10 22
M  V30 23 1 11 23
M  V30 24 1 11 24
M  V30 END BOND
M  V30 END CTAB
M  END
