
     RDKit          3D

  0  0  0  0  0  0  0  0  0  0999 V3000
M  V30 BEGIN CTAB
M  V30 COUNTS 22 21 0 0 0
M  V30 BEGIN ATOM
M  V30 1 C -3.10223 0.717139 0.696317 0
M  V30 2 C -1.90557 0.145778 -0.0403861 0
M  V30 3 C -1.83999 0.330216 -1.35238 0
M  V30 4 C -0.933394 -0.556237 0.795836 0
M  V30 5 C 0.271212 -1.08978 0.108521 0
M  V30 6 N 1.05422 -0.0613216 -0.516591 0
M  V30 7 C 2.3029 0.14008 -0.300096 0
M  V30 8 N 3.08021 -0.635376 0.594419 0
M  V30 9 N 2.94451 1.1967 -0.992699 0
M  V30 10 H -2.86113 1.77708 0.878998 0
M  V30 11 H -3.32725 0.132433 1.59156 0
M  V30 12 H -3.96661 0.621486 -0.0182835 0
M  V30 13 H -1.03909 -0.0298706 -1.97948 0
M  V30 14 H -2.62338 0.873758 -1.86608 0
M  V30 15 H -0.588232 0.0634215 1.6726 0
M  V30 16 H -1.47299 -1.41805 1.27874 0
M  V30 17 H -0.0796303 -1.80913 -0.669256 0
M  V30 18 H 0.9108 -1.68188 0.791121 0
M  V30 19 H 3.03637 -0.529786 1.63572 0
M  V30 20 H 3.73864 -1.35609 0.224906 0
M  V30 21 H 2.72327 2.20027 -0.84031 0
M  V30 22 H 3.67738 0.969156 -1.69318 0
M  V30 END ATOM
M  V30 BEGIN BOND
M  V30 1 1 1 2
M  V30 2 2 2 3 CFG=2
M  V30 3 1 2 4
M  V30 4 1 4 5
M  V30 5 1 5 6
M  V30 6 2 6 7 CFG=2
M  V30 7 1 7 8
M  V30 8 1 7 9
M  V30 9 1 1 10
M  V30 10 1 1 11
M  V30 11 1 1 12
M  V30 12 1 3 13
M  V30 13 1 3 14
M  V30 14 1 4 15
M  V30 15 1 4 16
M  V30 16 1 5 17
M  V30 17 1 5 18
M  V30 18 1 8 19
M  V30 19 1 8 20
M  V30 20 1 9 21
M  V30 21 1 9 22
M  V30 END BOND
M  V30 END CTAB
M  END
