
     RDKit          3D

  0  0  0  0  0  0  0  0  0  0999 V3000
M  V30 BEGIN CTAB
M  V30 COUNTS 24 24 0 0 0
M  V30 BEGIN ATOM
M  V30 1 C 3.67083 0.822017 -0.231138 0
M  V30 2 C 3.14544 -0.33677 0.560229 0
M  V30 3 O 1.80041 -0.621111 0.25125 0
M  V30 4 C 0.777216 0.282761 0.423807 0
M  V30 5 O 1.07615 1.41099 0.880035 0
M  V30 6 C -0.61596 -0.0390364 0.0938299 0
M  V30 7 C -0.967995 -1.26358 -0.405598 0
M  V30 8 N 0.0183508 -2.24723 -0.612941 0
M  V30 9 N -2.24359 -1.59123 -0.71969 0
M  V30 10 C -3.18478 -0.663978 -0.526002 0
M  V30 11 C -2.92306 0.592383 -0.0287906 0
M  V30 12 N -3.9664 1.52662 0.151842 0
M  V30 13 C -1.59793 0.887774 0.28113 0
M  V30 14 H 3.23444 0.739286 -1.26054 0
M  V30 15 H 4.78355 0.754241 -0.300291 0
M  V30 16 H 3.4394 1.76156 0.268448 0
M  V30 17 H 3.73423 -1.24149 0.227815 0
M  V30 18 H 3.32945 -0.248108 1.64418 0
M  V30 19 H 0.619529 -2.20561 -1.4653 0
M  V30 20 H 0.181897 -3.03089 0.0553211 0
M  V30 21 H -4.21429 -0.93137 -0.780577 0
M  V30 22 H -4.00383 2.39516 -0.42375 0
M  V30 23 H -4.72571 1.3883 0.85366 0
M  V30 24 H -1.36737 1.85932 0.669938 0
M  V30 END ATOM
M  V30 BEGIN BOND
M  V30 1 1 1 2
M  V30 2 1 2 3
M  V30 3 1 3 4
M  V30 4 2 4 5
M  V30 5 1 4 6
M  V30 6 2 6 7
M  V30 7 1 7 8
M  V30 8 1 7 9
M  V30 9 2 9 10
M  V30 10 1 10 11
M  V30 11 1 11 12
M  V30 12 2 11 13
M  V30 13 1 13 6
M  V30 14 1 1 14
M  V30 15 1 1 15
M  V30 16 1 1 16
M  V30 17 1 2 17
M  V30 18 1 2 18
M  V30 19 1 8 19
M  V30 20 1 8 20
M  V30 21 1 10 21
M  V30 22 1 12 22
M  V30 23 1 12 23
M  V30 24 1 13 24
M  V30 END BOND
M  V30 END CTAB
M  END
