
     RDKit          3D

  0  0  0  0  0  0  0  0  0  0999 V3000
M  V30 BEGIN CTAB
M  V30 COUNTS 22 22 0 0 0
M  V30 BEGIN ATOM
M  V30 1 N -2.72555 0.378757 0.78265 0
M  V30 2 C -2.05127 0.0866806 -0.533618 0
M  V30 3 C -0.625341 0.501885 -0.244707 0
M  V30 4 C -0.271712 1.79523 -0.132979 0
M  V30 5 C 1.03778 2.17875 0.0797107 0
M  V30 6 I 1.611 4.21681 0.20355 0
M  V30 7 C 1.97319 1.141 0.173739 0
M  V30 8 C 1.60668 -0.167033 0.047566 0
M  V30 9 C 0.313305 -0.537143 -0.168509 0
M  V30 10 C -0.0620348 -1.96186 -0.376366 0
M  V30 11 N 2.51625 -1.24509 0.336246 0
M  V30 12 H -3.66114 -0.0600816 0.750447 0
M  V30 13 H -2.11416 -0.184039 1.48934 0
M  V30 14 H -2.28973 -0.831729 -0.915834 0
M  V30 15 H -2.47244 0.955384 -1.20249 0
M  V30 16 H -1.03274 2.58962 -0.208627 0
M  V30 17 H 3.03352 1.38663 0.349898 0
M  V30 18 H 0.640499 -2.61351 0.132198 0
M  V30 19 H 0.020973 -2.15054 -1.51028 0
M  V30 20 H -1.1057 -2.17188 -0.168637 0
M  V30 21 H 2.61039 -1.46105 1.3998 0
M  V30 22 H 3.04823 -1.84681 -0.283093 0
M  V30 END ATOM
M  V30 BEGIN BOND
M  V30 1 1 1 2
M  V30 2 1 2 3
M  V30 3 2 3 4
M  V30 4 1 4 5
M  V30 5 1 5 6
M  V30 6 2 5 7
M  V30 7 1 7 8
M  V30 8 2 8 9
M  V30 9 1 9 10
M  V30 10 1 8 11
M  V30 11 1 9 3
M  V30 12 1 1 12
M  V30 13 1 1 13
M  V30 14 1 2 14
M  V30 15 1 2 15
M  V30 16 1 4 16
M  V30 17 1 7 17
M  V30 18 1 10 18
M  V30 19 1 10 19
M  V30 20 1 10 20
M  V30 21 1 11 21
M  V30 22 1 11 22
M  V30 END BOND
M  V30 END CTAB
M  END
