
     RDKit          3D

  0  0  0  0  0  0  0  0  0  0999 V3000
M  V30 BEGIN CTAB
M  V30 COUNTS 21 22 0 0 0
M  V30 BEGIN ATOM
M  V30 1 N 2.40452 -0.0371827 -0.706079 0
M  V30 2 C 0.998884 -0.299477 -0.692439 0
M  V30 3 C 0.533284 -1.08953 0.503292 0
M  V30 4 N 1.44297 -0.960307 1.65335 0
M  V30 5 C -0.604514 -0.145943 0.657434 0
M  V30 6 C 0.153917 0.863893 -0.172224 0
M  V30 7 O -0.692509 1.35547 -1.12661 0
M  V30 8 C -2.0002 1.0453 -0.748388 0
M  V30 9 C -1.80443 -0.388912 -0.238025 0
M  V30 10 H 2.61469 0.884224 -0.244735 0
M  V30 11 H 2.73573 0.0585084 -1.70168 0
M  V30 12 H 0.599037 -0.769656 -1.61844 0
M  V30 13 H 0.308788 -2.14328 0.347817 0
M  V30 14 H 1.65144 0.0710882 1.7443 0
M  V30 15 H 0.85965 -1.20225 2.49599 0
M  V30 16 H -0.856689 0.171893 1.67314 0
M  V30 17 H 0.704904 1.62005 0.38333 0
M  V30 18 H -2.7047 1.11045 -1.56347 0
M  V30 19 H -2.22457 1.64961 0.141821 0
M  V30 20 H -1.4444 -1.02493 -1.07399 0
M  V30 21 H -2.6758 -0.769011 0.2856 0
M  V30 END ATOM
M  V30 BEGIN BOND
M  V30 1 1 1 2
M  V30 2 1 2 3
M  V30 3 1 3 4
M  V30 4 1 3 5
M  V30 5 1 5 6
M  V30 6 1 6 7
M  V30 7 1 7 8
M  V30 8 1 8 9
M  V30 9 1 6 2
M  V30 10 1 9 5
M  V30 11 1 1 10
M  V30 12 1 1 11
M  V30 13 1 2 12
M  V30 14 1 3 13
M  V30 15 1 4 14
M  V30 16 1 4 15
M  V30 17 1 5 16
M  V30 18 1 6 17
M  V30 19 1 8 18
M  V30 20 1 8 19
M  V30 21 1 9 20
M  V30 22 1 9 21
M  V30 END BOND
M  V30 END CTAB
M  END
