
     RDKit          3D

  0  0  0  0  0  0  0  0  0  0999 V3000
M  V30 BEGIN CTAB
M  V30 COUNTS 44 47 0 0 0
M  V30 BEGIN ATOM
M  V30 1 O -0.88987 -4.00663 -0.646186 0
M  V30 2 C -2.10495 -3.29909 -0.731707 0
M  V30 3 C -1.92828 -2.05485 0.10708 0 CFG=1
M  V30 4 O -0.885531 -1.25787 -0.350702 0
M  V30 5 C -1.0309 -0.18029 0.576049 0 CFG=2
M  V30 6 C -2.46006 0.252056 0.170758 0
M  V30 7 C -3.11739 -1.14514 0.076763 0 CFG=1
M  V30 8 O -3.82298 -1.17915 -1.11207 0
M  V30 9 N -0.135768 0.887492 0.34652 0
M  V30 10 C 1.19678 0.872267 0.232003 0
M  V30 11 N 1.62909 2.14954 -0.0482886 0
M  V30 12 C 0.58564 2.94595 -0.103155 0
M  V30 13 C -0.516694 2.18679 0.139006 0
M  V30 14 N -1.71376 2.80866 0.141602 0
M  V30 15 C -1.84545 4.10837 -0.0806786 0
M  V30 16 N -3.15166 4.7201 -0.0657541 0
M  V30 17 N -0.793509 4.89757 -0.324394 0
M  V30 18 C 0.408351 4.3162 -0.334289 0
M  V30 19 O 1.44185 4.98965 -0.555275 0
M  V30 20 C 2.14158 -0.228931 0.327695 0
M  V30 21 C 3.41676 -0.0647557 -0.244218 0
M  V30 22 C 4.40349 -1.0178 -0.159948 0
M  V30 23 C 4.1841 -2.20576 0.504124 0
M  V30 24 C 2.95409 -2.38003 1.06467 0
M  V30 25 C 1.93696 -1.4114 0.985588 0
M  V30 26 N 5.20119 -3.19824 0.594806 0
M  V30 27 H -0.597649 -4.08618 0.302416 0
M  V30 28 H -2.87048 -3.94417 -0.255508 0
M  V30 29 H -2.27034 -3.08741 -1.7869 0
M  V30 30 H -1.69805 -2.29985 1.1637 0
M  V30 31 H -1.05088 -0.630689 1.56876 0
M  V30 32 H -2.47858 0.705918 -0.816258 0
M  V30 33 H -2.90832 0.771055 1.00455 0
M  V30 34 H -3.78465 -1.29402 0.950485 0
M  V30 35 H -3.2632 -1.3113 -1.90078 0
M  V30 36 H -3.74101 4.7822 -0.918646 0
M  V30 37 H -3.44525 5.0895 0.869616 0
M  V30 38 H -0.938649 5.92493 -0.496522 0
M  V30 39 H 3.62364 0.852427 -0.773667 0
M  V30 40 H 5.38371 -0.886816 -0.602398 0
M  V30 41 H 2.75145 -3.31307 1.59802 0
M  V30 42 H 1.0105 -1.62355 1.49517 0
M  V30 43 H 5.22115 -4.00945 -0.0545955 0
M  V30 44 H 5.95353 -3.14422 1.31012 0
M  V30 END ATOM
M  V30 BEGIN BOND
M  V30 1 1 1 2
M  V30 2 1 2 3
M  V30 3 1 3 4
M  V30 4 1 4 5
M  V30 5 1 5 6
M  V30 6 1 6 7
M  V30 7 1 7 8
M  V30 8 1 5 9
M  V30 9 1 9 10
M  V30 10 2 10 11
M  V30 11 1 11 12
M  V30 12 2 12 13
M  V30 13 1 13 14
M  V30 14 2 14 15
M  V30 15 1 15 16
M  V30 16 1 15 17
M  V30 17 1 17 18
M  V30 18 2 18 19
M  V30 19 1 10 20
M  V30 20 2 20 21
M  V30 21 1 21 22
M  V30 22 2 22 23
M  V30 23 1 23 24
M  V30 24 2 24 25
M  V30 25 1 23 26
M  V30 26 1 7 3
M  V30 27 1 13 9
M  V30 28 1 25 20
M  V30 29 1 18 12
M  V30 30 1 1 27
M  V30 31 1 2 28
M  V30 32 1 2 29
M  V30 33 1 3 30 CFG=1
M  V30 34 1 5 31 CFG=1
M  V30 35 1 6 32
M  V30 36 1 6 33
M  V30 37 1 7 34 CFG=1
M  V30 38 1 8 35
M  V30 39 1 16 36
M  V30 40 1 16 37
M  V30 41 1 17 38
M  V30 42 1 21 39
M  V30 43 1 22 40
M  V30 44 1 24 41
M  V30 45 1 25 42
M  V30 46 1 26 43
M  V30 47 1 26 44
M  V30 END BOND
M  V30 END CTAB
M  END
