
     RDKit          3D

  0  0  0  0  0  0  0  0  0  0999 V3000
M  V30 BEGIN CTAB
M  V30 COUNTS 86 87 0 0 0
M  V30 BEGIN ATOM
M  V30 1 C -6.22781 -2.29131 -1.7406 0 CFG=1
M  V30 2 C -5.70052 -3.70575 -1.65234 0
M  V30 3 N -5.3844 -1.36577 -1.03228 0
M  V30 4 C -4.61149 -0.51639 -0.382756 0
M  V30 5 O -4.89693 0.713267 -0.113243 0
M  V30 6 C -3.25739 -0.902534 0.150959 0 CFG=2
M  V30 7 C -3.36967 -1.32314 1.61518 0
M  V30 8 C -3.89345 -0.304302 2.50238 0
M  V30 9 C -3.00222 0.571486 3.10231 0
M  V30 10 C -3.43198 1.54412 3.95974 0
M  V30 11 C -4.76548 1.66794 4.24137 0
M  V30 12 C -5.66423 0.787107 3.64066 0
M  V30 13 C -5.22097 -0.188089 2.7785 0
M  V30 14 N -2.27518 0.144295 0.0657654 0
M  V30 15 C -0.909825 -0.184706 0.00330299 0
M  V30 16 O -0.557137 -1.40822 0.0571683 0
M  V30 17 C 0.151748 0.873647 -0.135406 0 CFG=1
M  V30 18 C -0.043023 1.911 0.893495 0
M  V30 19 C 0.861818 3.07862 0.940201 0
M  V30 20 C 2.28784 2.85089 1.28503 0
M  V30 21 N 2.9978 4.12712 1.23161 0
M  V30 22 C 2.79378 5.19525 2.08867 0
M  V30 23 N 2.16606 6.39552 1.60155 0
M  V30 24 N 3.16312 5.17631 3.34345 0
M  V30 25 N 1.38314 0.140163 -0.0765989 0
M  V30 26 C 2.25752 -0.089119 -1.17365 0
M  V30 27 O 1.89556 0.443527 -2.26498 0
M  V30 28 C 3.48732 -0.877606 -1.07288 0 CFG=2
M  V30 29 C 4.1416 -0.759044 0.250126 0
M  V30 30 C 5.39738 -1.5508 0.393915 0
M  V30 31 C 6.65112 -1.03118 0.214085 0
M  V30 32 C 7.79933 -1.78495 0.336566 0
M  V30 33 C 7.74481 -3.12566 0.651585 0
M  V30 34 O 8.88663 -3.8844 0.773068 0
M  V30 35 C 6.48366 -3.67232 0.837675 0
M  V30 36 C 5.34903 -2.90397 0.711666 0
M  V30 37 N 4.30612 -0.777933 -2.24217 0
M  V30 38 C 4.72359 0.438762 -2.81632 0
M  V30 39 N 5.19778 1.55504 -2.09803 0
M  V30 40 N 4.67021 0.583113 -4.12085 0
M  V30 41 C -6.15943 -1.95729 -3.22721 0
M  V30 42 O -5.48823 -0.923417 -3.52134 0
M  V30 43 N -6.77761 -2.71146 -4.21686 0
M  V30 44 C -6.65251 -2.31115 -5.60682 0
M  V30 45 H -7.3119 -2.19845 -1.52905 0
M  V30 46 H -6.22972 -4.36232 -0.961848 0
M  V30 47 H -5.62698 -4.20676 -2.651 0
M  V30 48 H -4.63981 -3.61979 -1.31358 0
M  V30 49 H -6.35322 -0.423047 -1.26471 0
M  V30 50 H -2.89664 -1.82184 -0.373365 0
M  V30 51 H -4.00952 -2.22868 1.71234 0
M  V30 52 H -2.33987 -1.64556 1.88828 0
M  V30 53 H -1.94473 0.501703 2.91508 0
M  V30 54 H -2.72951 2.23004 4.43367 0
M  V30 55 H -5.13729 2.44578 4.92823 0
M  V30 56 H -6.71434 0.924872 3.89674 0
M  V30 57 H -5.98339 -0.852009 2.34137 0
M  V30 58 H -2.62311 1.11935 0.0453799 0
M  V30 59 H 0.00562032 1.34154 -1.14905 0
M  V30 60 H -1.10747 2.28098 0.888048 0
M  V30 61 H 0.0252508 1.4366 1.93999 0
M  V30 62 H 0.824894 3.60513 -0.0663108 0
M  V30 63 H 0.475406 3.867 1.65437 0
M  V30 64 H 2.82372 2.13171 0.679978 0
M  V30 65 H 2.32639 2.57563 2.37841 0
M  V30 66 H 3.71913 4.22353 0.4657 0
M  V30 67 H 1.14661 6.52135 1.65758 0
M  V30 68 H 2.78255 7.13868 1.18798 0
M  V30 69 H 3.6351 4.30396 3.71812 0
M  V30 70 H 1.6225 -0.233696 0.89049 0
M  V30 71 H 3.06088 -1.97791 -1.05054 0
M  V30 72 H 3.38536 -1.13358 1.01255 0
M  V30 73 H 4.33041 0.284239 0.57436 0
M  V30 74 H 6.74698 0.0254913 -0.0359662 0
M  V30 75 H 8.79002 -1.35472 0.199343 0
M  V30 76 H 9.41294 -4.00724 1.64275 0
M  V30 77 H 6.45446 -4.73898 1.07476 0
M  V30 78 H 4.36904 -3.35083 0.860803 0
M  V30 79 H 4.62703 -1.66799 -2.70696 0
M  V30 80 H 6.18937 1.87031 -2.14087 0
M  V30 81 H 4.5529 2.09875 -1.49107 0
M  V30 82 H 4.94739 1.42049 -4.62373 0
M  V30 83 H -7.31688 -3.55719 -3.97362 0
M  V30 84 H -6.99437 -3.14223 -6.24163 0
M  V30 85 H -7.24598 -1.37026 -5.80627 0
M  V30 86 H -5.55668 -2.10069 -5.78245 0
M  V30 END ATOM
M  V30 BEGIN BOND
M  V30 1 1 1 2
M  V30 2 1 1 3
M  V30 3 1 3 4
M  V30 4 2 4 5
M  V30 5 1 4 6
M  V30 6 1 6 7
M  V30 7 1 7 8
M  V30 8 2 8 9
M  V30 9 1 9 10
M  V30 10 2 10 11
M  V30 11 1 11 12
M  V30 12 2 12 13
M  V30 13 1 6 14
M  V30 14 1 14 15
M  V30 15 2 15 16
M  V30 16 1 15 17
M  V30 17 1 17 18
M  V30 18 1 18 19
M  V30 19 1 19 20
M  V30 20 1 20 21
M  V30 21 1 21 22
M  V30 22 1 22 23
M  V30 23 2 22 24 CFG=2
M  V30 24 1 17 25
M  V30 25 1 25 26
M  V30 26 2 26 27
M  V30 27 1 26 28
M  V30 28 1 28 29
M  V30 29 1 29 30
M  V30 30 2 30 31
M  V30 31 1 31 32
M  V30 32 2 32 33
M  V30 33 1 33 34
M  V30 34 1 33 35
M  V30 35 2 35 36
M  V30 36 1 28 37
M  V30 37 1 37 38
M  V30 38 1 38 39
M  V30 39 2 38 40 CFG=2
M  V30 40 1 1 41
M  V30 41 2 41 42
M  V30 42 1 41 43
M  V30 43 1 43 44
M  V30 44 1 13 8
M  V30 45 1 36 30
M  V30 46 1 1 45 CFG=1
M  V30 47 1 2 46
M  V30 48 1 2 47
M  V30 49 1 2 48
M  V30 50 1 3 49
M  V30 51 1 6 50 CFG=3
M  V30 52 1 7 51
M  V30 53 1 7 52
M  V30 54 1 9 53
M  V30 55 1 10 54
M  V30 56 1 11 55
M  V30 57 1 12 56
M  V30 58 1 13 57
M  V30 59 1 14 58
M  V30 60 1 17 59 CFG=3
M  V30 61 1 18 60
M  V30 62 1 18 61
M  V30 63 1 19 62
M  V30 64 1 19 63
M  V30 65 1 20 64
M  V30 66 1 20 65
M  V30 67 1 21 66
M  V30 68 1 23 67
M  V30 69 1 23 68
M  V30 70 1 24 69
M  V30 71 1 25 70
M  V30 72 1 28 71 CFG=1
M  V30 73 1 29 72
M  V30 74 1 29 73
M  V30 75 1 31 74
M  V30 76 1 32 75
M  V30 77 1 34 76
M  V30 78 1 35 77
M  V30 79 1 36 78
M  V30 80 1 37 79
M  V30 81 1 39 80
M  V30 82 1 39 81
M  V30 83 1 40 82
M  V30 84 1 43 83
M  V30 85 1 44 84
M  V30 86 1 44 85
M  V30 87 1 44 86
M  V30 END BOND
M  V30 END CTAB
M  END
