
     RDKit          3D

  0  0  0  0  0  0  0  0  0  0999 V3000
M  V30 BEGIN CTAB
M  V30 COUNTS 16 17 0 0 0
M  V30 BEGIN ATOM
M  V30 1 N 3.00904 -0.155732 -0.0692994 0
M  V30 2 C 1.59018 -0.119871 -0.0626292 0
M  V30 3 N 0.851406 -1.2625 -0.0375869 0
M  V30 4 C -0.495263 -1.24297 -0.0309869 0
M  V30 5 C -1.1264 -0.0243767 -0.0503576 0
M  V30 6 N -2.43706 -0.272283 -0.0389613 0
M  V30 7 N -2.60814 -1.56477 -0.0140623 0
M  V30 8 N -1.45927 -2.1759 -0.00865944 0
M  V30 9 C -0.386837 1.15818 -0.0761464 0
M  V30 10 N -1.04245 2.41201 -0.0960313 0
M  V30 11 N 0.954063 1.06813 -0.0814077 0
M  V30 12 H 3.49387 -0.953422 -0.537839 0
M  V30 13 H 3.60649 0.570133 0.36774 0
M  V30 14 H -1.29916 -3.23582 0.0102094 0
M  V30 15 H -0.622873 3.29109 0.252289 0
M  V30 16 H -2.02758 2.50811 -0.482752 0
M  V30 END ATOM
M  V30 BEGIN BOND
M  V30 1 1 1 2
M  V30 2 2 2 3
M  V30 3 1 3 4
M  V30 4 2 4 5
M  V30 5 1 5 6
M  V30 6 2 6 7
M  V30 7 1 7 8
M  V30 8 1 5 9
M  V30 9 1 9 10
M  V30 10 2 9 11
M  V30 11 1 11 2
M  V30 12 1 8 4
M  V30 13 1 1 12
M  V30 14 1 1 13
M  V30 15 1 8 14
M  V30 16 1 10 15
M  V30 17 1 10 16
M  V30 END BOND
M  V30 END CTAB
M  END
