
     RDKit          3D

  0  0  0  0  0  0  0  0  0  0999 V3000
M  V30 BEGIN CTAB
M  V30 COUNTS 25 25 0 0 0
M  V30 BEGIN ATOM
M  V30 1 N 2.2536 1.5237 1.13381 0
M  V30 2 S 2.24652 1.15996 -0.533735 0
M  V30 3 O 1.71329 2.38141 -1.25922 0
M  V30 4 O 3.64616 0.860782 -0.978426 0
M  V30 5 N 1.16938 -0.127891 -0.816123 0
M  V30 6 C 1.49786 -1.33886 -0.162545 0
M  V30 7 C 0.400456 -2.31127 0.0238945 0
M  V30 8 O -0.866874 -1.83737 -0.142836 0
M  V30 9 C -1.02943 -0.506884 0.222842 0 CFG=1
M  V30 10 C -0.167229 0.322356 -0.690116 0
M  V30 11 S -2.71623 -0.0545635 -0.128547 0
M  V30 12 O -3.69067 -0.891481 0.620065 0
M  V30 13 O -2.89308 -0.213785 -1.62876 0
M  V30 14 N -2.88708 1.62445 0.229584 0
M  V30 15 H 1.65001 2.30545 1.35175 0
M  V30 16 H 2.15728 0.729423 1.72866 0
M  V30 17 H 2.33229 -1.82807 -0.744431 0
M  V30 18 H 1.97004 -1.09033 0.825637 0
M  V30 19 H 0.503237 -2.78888 1.04154 0
M  V30 20 H 0.528104 -3.17905 -0.688101 0
M  V30 21 H -0.783783 -0.324138 1.28702 0
M  V30 22 H -0.691755 0.338488 -1.68985 0
M  V30 23 H -0.213629 1.38005 -0.333038 0
M  V30 24 H -2.26285 1.93735 1.00606 0
M  V30 25 H -3.86564 1.92915 0.324863 0
M  V30 END ATOM
M  V30 BEGIN BOND
M  V30 1 1 1 2
M  V30 2 2 2 3
M  V30 3 2 2 4
M  V30 4 1 2 5
M  V30 5 1 5 6
M  V30 6 1 6 7
M  V30 7 1 7 8
M  V30 8 1 8 9
M  V30 9 1 9 10
M  V30 10 1 9 11
M  V30 11 2 11 12
M  V30 12 2 11 13
M  V30 13 1 11 14
M  V30 14 1 10 5
M  V30 15 1 1 15
M  V30 16 1 1 16
M  V30 17 1 6 17
M  V30 18 1 6 18
M  V30 19 1 7 19
M  V30 20 1 7 20
M  V30 21 1 9 21 CFG=1
M  V30 22 1 10 22
M  V30 23 1 10 23
M  V30 24 1 14 24
M  V30 25 1 14 25
M  V30 END BOND
M  V30 END CTAB
M  END
