
     RDKit          3D

  0  0  0  0  0  0  0  0  0  0999 V3000
M  V30 BEGIN CTAB
M  V30 COUNTS 45 47 0 0 0
M  V30 BEGIN ATOM
M  V30 1 N -4.88364 4.20816 1.45672 0
M  V30 2 C -4.57245 2.89423 0.958395 0
M  V30 3 N -3.48595 2.23464 1.32799 0
M  V30 4 C -3.14644 0.972229 0.897033 0
M  V30 5 N -3.97833 0.423588 0.0683111 0
M  V30 6 C -5.09687 0.967553 -0.383225 0
M  V30 7 C -5.42075 2.25631 0.0697173 0
M  V30 8 N -5.96998 0.308028 -1.3013 0
M  V30 9 S -1.62418 0.262762 1.45963 0
M  V30 10 C -0.616518 -0.587344 0.273581 0
M  V30 11 C -0.812549 -2.035 0.0796992 0
M  V30 12 C -2.06292 -2.55445 -0.107432 0
M  V30 13 C -2.20269 -3.94396 -0.230858 0
M  V30 14 C -1.11312 -4.77953 -0.16412 0
M  V30 15 C 0.145291 -4.23632 0.0226066 0
M  V30 16 C 0.319272 -2.88874 0.146825 0
M  V30 17 C 0.82739 -0.306447 0.57171 0
M  V30 18 O 1.15454 -0.461936 1.78726 0
M  V30 19 N 1.71932 0.100815 -0.42802 0
M  V30 20 C 3.07747 0.373366 -0.148428 0
M  V30 21 C 4.00001 -0.536891 0.281021 0
M  V30 22 C 5.3031 -0.213019 0.533601 0
M  V30 23 C 5.76857 1.09484 0.362727 0
M  V30 24 C 4.82431 2.00036 -0.0724771 0
M  V30 25 C 3.52102 1.68847 -0.328639 0
M  V30 26 Cl 5.3657 3.66514 -0.303658 0
M  V30 27 C 7.17551 1.48219 0.602262 0
M  V30 28 H -5.85159 4.56686 1.39821 0
M  V30 29 H -4.16779 4.81226 1.86308 0
M  V30 30 H -6.28832 2.74158 -0.286474 0
M  V30 31 H -5.56788 -0.314287 -2.04415 0
M  V30 32 H -6.98706 0.428965 -1.25217 0
M  V30 33 H -0.796806 -0.0912382 -0.776296 0
M  V30 34 H -2.98598 -2.00064 -0.193132 0
M  V30 35 H -3.21624 -4.34874 -0.390375 0
M  V30 36 H -1.20753 -5.84761 -0.260189 0
M  V30 37 H 1.04392 -4.86624 0.0782307 0
M  V30 38 H 1.29271 -2.41972 0.29682 0
M  V30 39 H 1.31648 0.201824 -1.40516 0
M  V30 40 H 3.67453 -1.57969 0.433543 0
M  V30 41 H 6.01636 -0.93838 0.86842 0
M  V30 42 H 2.80155 2.44621 -0.667576 0
M  V30 43 H 7.88607 0.632501 0.467251 0
M  V30 44 H 7.48406 2.26057 -0.158957 0
M  V30 45 H 7.33839 1.92678 1.58844 0
M  V30 END ATOM
M  V30 BEGIN BOND
M  V30 1 1 1 2
M  V30 2 2 2 3
M  V30 3 1 3 4
M  V30 4 2 4 5
M  V30 5 1 5 6
M  V30 6 2 6 7
M  V30 7 1 6 8
M  V30 8 1 4 9
M  V30 9 1 9 10
M  V30 10 1 10 11
M  V30 11 2 11 12
M  V30 12 1 12 13
M  V30 13 2 13 14
M  V30 14 1 14 15
M  V30 15 2 15 16
M  V30 16 1 10 17
M  V30 17 2 17 18
M  V30 18 1 17 19
M  V30 19 1 19 20
M  V30 20 2 20 21
M  V30 21 1 21 22
M  V30 22 2 22 23
M  V30 23 1 23 24
M  V30 24 2 24 25
M  V30 25 1 24 26
M  V30 26 1 23 27
M  V30 27 1 7 2
M  V30 28 1 16 11
M  V30 29 1 25 20
M  V30 30 1 1 28
M  V30 31 1 1 29
M  V30 32 1 7 30
M  V30 33 1 8 31
M  V30 34 1 8 32
M  V30 35 1 10 33
M  V30 36 1 12 34
M  V30 37 1 13 35
M  V30 38 1 14 36
M  V30 39 1 15 37
M  V30 40 1 16 38
M  V30 41 1 19 39
M  V30 42 1 21 40
M  V30 43 1 22 41
M  V30 44 1 25 42
M  V30 45 1 27 43
M  V30 46 1 27 44
M  V30 47 1 27 45
M  V30 END BOND
M  V30 END CTAB
M  END
