
     RDKit          3D

  0  0  0  0  0  0  0  0  0  0999 V3000
M  V30 BEGIN CTAB
M  V30 COUNTS 32 32 0 0 0
M  V30 BEGIN ATOM
M  V30 1 N 2.13133 -0.731395 1.80678 0
M  V30 2 N 1.17383 -0.393492 0.742183 0
M  V30 3 C 1.76541 -0.524958 -0.529668 0
M  V30 4 C 1.83775 0.741057 -1.32991 0
M  V30 5 C 3.26561 -0.889053 -0.294015 0
M  V30 6 C 1.26436 -1.68381 -1.3727 0
M  V30 7 C -0.0499385 -0.0150958 1.20182 0
M  V30 8 O -0.0462585 -0.0318113 2.5669 0
M  V30 9 C -1.32839 0.391714 0.690108 0
M  V30 10 C -1.66525 0.458202 -0.620901 0
M  V30 11 C -2.92687 0.843462 -1.11476 0
M  V30 12 C -3.89587 1.17826 -0.21879 0
M  V30 13 C -3.60172 1.12577 1.12023 0
M  V30 14 C -2.36553 0.748135 1.59221 0
M  V30 15 N -2.10735 0.71071 2.98949 0
M  V30 16 H 1.83837 -1.61527 2.23194 0
M  V30 17 H 2.21265 0.0757921 2.44125 0
M  V30 18 H 1.51489 1.62046 -0.73876 0
M  V30 19 H 1.19663 0.652355 -2.23997 0
M  V30 20 H 2.8581 0.885429 -1.70584 0
M  V30 21 H 3.74104 -0.193619 0.388839 0
M  V30 22 H 3.30694 -1.92497 0.0829571 0
M  V30 23 H 3.73958 -0.859065 -1.29196 0
M  V30 24 H 0.810941 -2.4431 -0.729546 0
M  V30 25 H 2.13774 -2.1313 -1.8798 0
M  V30 26 H 0.587495 -1.35703 -2.1924 0
M  V30 27 H -0.980124 0.206998 -1.39119 0
M  V30 28 H -3.14232 0.879534 -2.1734 0
M  V30 29 H -4.88442 1.48155 -0.556908 0
M  V30 30 H -4.3628 1.39017 1.87667 0
M  V30 31 H -1.71833 1.54198 3.45274 0
M  V30 32 H -2.30751 -0.137603 3.53266 0
M  V30 END ATOM
M  V30 BEGIN BOND
M  V30 1 1 1 2
M  V30 2 1 2 3
M  V30 3 1 3 4
M  V30 4 1 3 5
M  V30 5 1 3 6
M  V30 6 1 2 7
M  V30 7 2 7 8
M  V30 8 1 7 9
M  V30 9 2 9 10
M  V30 10 1 10 11
M  V30 11 2 11 12
M  V30 12 1 12 13
M  V30 13 2 13 14
M  V30 14 1 14 15
M  V30 15 1 14 9
M  V30 16 1 1 16
M  V30 17 1 1 17
M  V30 18 1 4 18
M  V30 19 1 4 19
M  V30 20 1 4 20
M  V30 21 1 5 21
M  V30 22 1 5 22
M  V30 23 1 5 23
M  V30 24 1 6 24
M  V30 25 1 6 25
M  V30 26 1 6 26
M  V30 27 1 10 27
M  V30 28 1 11 28
M  V30 29 1 12 29
M  V30 30 1 13 30
M  V30 31 1 15 31
M  V30 32 1 15 32
M  V30 END BOND
M  V30 END CTAB
M  END
