
     RDKit          3D

  0  0  0  0  0  0  0  0  0  0999 V3000
M  V30 BEGIN CTAB
M  V30 COUNTS 24 25 0 0 0
M  V30 BEGIN ATOM
M  V30 1 N -3.81544 -0.304909 1.26245 0
M  V30 2 C -2.481 -0.214331 0.787058 0
M  V30 3 C -1.41375 -0.539589 1.57198 0
M  V30 4 C -0.110188 -0.437971 1.06974 0
M  V30 5 C 0.191419 -0.021612 -0.195454 0
M  V30 6 C -0.925868 0.305706 -0.979645 0
M  V30 7 C -2.20928 0.207934 -0.492348 0
M  V30 8 N -0.71187 0.754474 -2.32393 0
M  V30 9 C 1.51442 0.126618 -0.762393 0
M  V30 10 N 1.6946 0.42624 -2.09141 0
M  V30 11 N 2.98036 0.520331 -2.34869 0
M  V30 12 N 3.6606 0.297301 -1.25225 0
M  V30 13 N 2.74988 0.0565551 -0.282386 0
M  V30 14 C 3.09379 -0.224673 1.10313 0
M  V30 15 H -4.092 -1.02259 1.96657 0
M  V30 16 H -4.58772 0.331926 0.940321 0
M  V30 17 H -1.60225 -0.872418 2.5762 0
M  V30 18 H 0.67162 -0.720692 1.7406 0
M  V30 19 H -3.07494 0.464887 -1.10659 0
M  V30 20 H -0.785805 0.0333848 -3.07013 0
M  V30 21 H -0.493726 1.74855 -2.54656 0
M  V30 22 H 4.20127 -0.101204 1.23096 0
M  V30 23 H 2.89418 -1.27809 1.37437 0
M  V30 24 H 2.6517 0.464176 1.82842 0
M  V30 END ATOM
M  V30 BEGIN BOND
M  V30 1 1 1 2
M  V30 2 2 2 3
M  V30 3 1 3 4
M  V30 4 2 4 5
M  V30 5 1 5 6
M  V30 6 2 6 7
M  V30 7 1 6 8
M  V30 8 1 5 9
M  V30 9 2 9 10
M  V30 10 1 10 11
M  V30 11 2 11 12
M  V30 12 1 12 13
M  V30 13 1 13 14
M  V30 14 1 7 2
M  V30 15 1 13 9
M  V30 16 1 1 15
M  V30 17 1 1 16
M  V30 18 1 3 17
M  V30 19 1 4 18
M  V30 20 1 7 19
M  V30 21 1 8 20
M  V30 22 1 8 21
M  V30 23 1 14 22
M  V30 24 1 14 23
M  V30 25 1 14 24
M  V30 END BOND
M  V30 END CTAB
M  END
