
     RDKit          3D

  0  0  0  0  0  0  0  0  0  0999 V3000
M  V30 BEGIN CTAB
M  V30 COUNTS 23 22 0 0 0
M  V30 BEGIN ATOM
M  V30 1 C -1.20739 -1.38795 1.12228 0
M  V30 2 C -1.11712 -0.195483 0.245107 0 CFG=2
M  V30 3 C 0.208665 0.518462 0.515326 0 CFG=1
M  V30 4 C 1.37442 -0.380975 0.354805 0
M  V30 5 O 1.5112 -1.39982 1.08032 0
M  V30 6 N 2.38233 -0.137827 -0.61594 0
M  V30 7 N 3.4812 -0.971574 -0.778744 0
M  V30 8 N 0.337688 1.61676 -0.450885 0
M  V30 9 O -2.11414 0.731927 0.403753 0
M  V30 10 C -2.83226 1.02831 -0.726835 0
M  V30 11 H -0.722276 -1.3011 2.10247 0
M  V30 12 H -2.29384 -1.6604 1.21579 0
M  V30 13 H -0.745794 -2.2478 0.602118 0
M  V30 14 H -1.09491 -0.530636 -0.811862 0
M  V30 15 H 0.226787 0.954568 1.53206 0
M  V30 16 H 2.29036 0.700624 -1.2288 0
M  V30 17 H 3.51724 -1.66253 -0.018631 0
M  V30 18 H 4.38754 -0.440068 -0.778025 0
M  V30 19 H 1.20955 2.12685 -0.26195 0
M  V30 20 H 0.322226 1.18749 -1.3931 0
M  V30 21 H -2.16603 1.43727 -1.52204 0
M  V30 22 H -3.39007 0.195826 -1.15888 0
M  V30 23 H -3.56536 1.81808 -0.463723 0
M  V30 END ATOM
M  V30 BEGIN BOND
M  V30 1 1 1 2
M  V30 2 1 2 3
M  V30 3 1 3 4
M  V30 4 2 4 5
M  V30 5 1 4 6
M  V30 6 1 6 7
M  V30 7 1 3 8
M  V30 8 1 2 9
M  V30 9 1 9 10
M  V30 10 1 1 11
M  V30 11 1 1 12
M  V30 12 1 1 13
M  V30 13 1 2 14 CFG=3
M  V30 14 1 3 15 CFG=1
M  V30 15 1 6 16
M  V30 16 1 7 17
M  V30 17 1 7 18
M  V30 18 1 8 19
M  V30 19 1 8 20
M  V30 20 1 10 21
M  V30 21 1 10 22
M  V30 22 1 10 23
M  V30 END BOND
M  V30 END CTAB
M  END
