
     RDKit          3D

  0  0  0  0  0  0  0  0  0  0999 V3000
M  V30 BEGIN CTAB
M  V30 COUNTS 28 30 0 0 0
M  V30 BEGIN ATOM
M  V30 1 N 3.91884 -1.69464 -0.0763721 0
M  V30 2 C 2.7582 -0.873942 -0.021242 0
M  V30 3 N 2.81874 0.45887 -0.024054 0
M  V30 4 C 1.69838 1.20095 0.0291607 0
M  V30 5 N 1.78588 2.61357 0.0250657 0
M  V30 6 C 0.480289 0.562778 0.0869522 0
M  V30 7 C -0.740948 1.38964 0.14496 0
M  V30 8 C -1.9704 0.61595 0.524998 0
M  V30 9 C -2.63978 0.0451444 -0.71766 0
M  V30 10 C -1.69647 -1.06928 -1.08921 0
M  V30 11 C -0.922616 -1.43087 0.153461 0
M  V30 12 C -1.63654 -0.669951 1.27217 0
M  V30 13 C 0.440326 -0.817677 0.0887897 0
M  V30 14 N 1.56589 -1.52014 0.0353273 0
M  V30 15 H 4.67186 -1.39107 -0.732169 0
M  V30 16 H 4.05429 -2.55168 0.481789 0
M  V30 17 H 2.01478 3.10853 0.906301 0
M  V30 18 H 1.6179 3.12736 -0.866114 0
M  V30 19 H -0.566887 2.26995 0.816656 0
M  V30 20 H -0.912155 1.80008 -0.87334 0
M  V30 21 H -2.63373 1.24444 1.1161 0
M  V30 22 H -2.75243 0.807458 -1.51415 0
M  V30 23 H -3.59899 -0.388898 -0.386583 0
M  V30 24 H -2.29521 -1.92209 -1.47688 0
M  V30 25 H -0.970117 -0.712913 -1.86522 0
M  V30 26 H -0.89122 -2.50954 0.357816 0
M  V30 27 H -1.00697 -0.510079 2.1443 0
M  V30 28 H -2.5909 -1.18197 1.45914 0
M  V30 END ATOM
M  V30 BEGIN BOND
M  V30 1 1 1 2
M  V30 2 2 2 3
M  V30 3 1 3 4
M  V30 4 1 4 5
M  V30 5 2 4 6
M  V30 6 1 6 7
M  V30 7 1 7 8
M  V30 8 1 8 9
M  V30 9 1 9 10
M  V30 10 1 10 11
M  V30 11 1 11 12
M  V30 12 1 11 13
M  V30 13 2 13 14
M  V30 14 1 14 2
M  V30 15 1 13 6
M  V30 16 1 12 8
M  V30 17 1 1 15
M  V30 18 1 1 16
M  V30 19 1 5 17
M  V30 20 1 5 18
M  V30 21 1 7 19
M  V30 22 1 7 20
M  V30 23 1 8 21
M  V30 24 1 9 22
M  V30 25 1 9 23
M  V30 26 1 10 24
M  V30 27 1 10 25
M  V30 28 1 11 26
M  V30 29 1 12 27
M  V30 30 1 12 28
M  V30 END BOND
M  V30 END CTAB
M  END
