
     RDKit          3D

  0  0  0  0  0  0  0  0  0  0999 V3000
M  V30 BEGIN CTAB
M  V30 COUNTS 43 44 0 0 0
M  V30 BEGIN ATOM
M  V30 1 C -2.17834 -3.85278 2.23643 0
M  V30 2 C -1.50043 -3.85717 0.879086 0
M  V30 3 O -1.06525 -2.60204 0.532616 0
M  V30 4 C -2.07086 -1.6888 0.460545 0
M  V30 5 C -1.67738 -0.3124 0.0919964 0
M  V30 6 N -2.61398 0.689363 0.155737 0
M  V30 7 C -1.98999 1.81563 -0.226433 0
M  V30 8 C -2.42862 3.11339 -0.353352 0
M  V30 9 N -3.77155 3.42659 -0.0491049 0
M  V30 10 N -1.56387 4.05361 -0.765411 0
M  V30 11 C -0.296903 3.7927 -1.05899 0
M  V30 12 C 0.604057 4.87881 -1.50845 0
M  V30 13 C 0.188959 2.50623 -0.946999 0
M  V30 14 C -0.6807 1.53271 -0.527306 0
M  V30 15 N -0.516339 0.213905 -0.32222 0
M  V30 16 C 0.715273 -0.480074 -0.532199 0
M  V30 17 C 1.59674 -0.561338 0.662444 0
M  V30 18 C 2.87026 -1.31464 0.371362 0
M  V30 19 C 3.68866 -0.675405 -0.714392 0
M  V30 20 N 4.89439 -1.51083 -0.876405 0
M  V30 21 H -1.63306 -3.24862 2.98123 0
M  V30 22 H -2.20683 -4.89195 2.64514 0
M  V30 23 H -3.21451 -3.53575 2.07737 0
M  V30 24 H -0.680916 -4.59169 0.936658 0
M  V30 25 H -2.25481 -4.24942 0.153865 0
M  V30 26 H -2.63377 -1.61334 1.4329 0
M  V30 27 H -2.77475 -2.02448 -0.353151 0
M  V30 28 H -3.99514 4.24753 0.56566 0
M  V30 29 H -4.56273 2.87733 -0.408267 0
M  V30 30 H 0.101864 5.50857 -2.26891 0
M  V30 31 H 1.58134 4.5079 -1.85102 0
M  V30 32 H 0.80044 5.54423 -0.628598 0
M  V30 33 H 1.22013 2.24726 -1.17711 0
M  V30 34 H 1.28909 -0.00124322 -1.3897 0
M  V30 35 H 0.503824 -1.49705 -0.897053 0
M  V30 36 H 1.92943 0.497463 0.890945 0
M  V30 37 H 1.13904 -1.034 1.53785 0
M  V30 38 H 3.47382 -1.487 1.28133 0
M  V30 39 H 2.53787 -2.31221 -0.0447058 0
M  V30 40 H 3.95521 0.376054 -0.512249 0
M  V30 41 H 3.13649 -0.722554 -1.69422 0
M  V30 42 H 4.57821 -2.49243 -0.730093 0
M  V30 43 H 5.50565 -1.27205 -0.0568135 0
M  V30 END ATOM
M  V30 BEGIN BOND
M  V30 1 1 1 2
M  V30 2 1 2 3
M  V30 3 1 3 4
M  V30 4 1 4 5
M  V30 5 2 5 6
M  V30 6 1 6 7
M  V30 7 2 7 8
M  V30 8 1 8 9
M  V30 9 1 8 10
M  V30 10 2 10 11
M  V30 11 1 11 12
M  V30 12 1 11 13
M  V30 13 2 13 14
M  V30 14 1 14 15
M  V30 15 1 15 16
M  V30 16 1 16 17
M  V30 17 1 17 18
M  V30 18 1 18 19
M  V30 19 1 19 20
M  V30 20 1 15 5
M  V30 21 1 14 7
M  V30 22 1 1 21
M  V30 23 1 1 22
M  V30 24 1 1 23
M  V30 25 1 2 24
M  V30 26 1 2 25
M  V30 27 1 4 26
M  V30 28 1 4 27
M  V30 29 1 9 28
M  V30 30 1 9 29
M  V30 31 1 12 30
M  V30 32 1 12 31
M  V30 33 1 12 32
M  V30 34 1 13 33
M  V30 35 1 16 34
M  V30 36 1 16 35
M  V30 37 1 17 36
M  V30 38 1 17 37
M  V30 39 1 18 38
M  V30 40 1 18 39
M  V30 41 1 19 40
M  V30 42 1 19 41
M  V30 43 1 20 42
M  V30 44 1 20 43
M  V30 END BOND
M  V30 END CTAB
M  END
