
     RDKit          3D

  0  0  0  0  0  0  0  0  0  0999 V3000
M  V30 BEGIN CTAB
M  V30 COUNTS 51 55 0 0 0
M  V30 BEGIN ATOM
M  V30 1 N -4.49715 4.45882 -0.240327 0
M  V30 2 C -3.49617 3.49277 0.0658992 0
M  V30 3 C -2.4357 3.8046 0.901103 0
M  V30 4 C -1.45582 2.89117 1.21278 0
M  V30 5 C -1.49667 1.58867 0.68646 0
M  V30 6 C -2.55486 1.30348 -0.136719 0
M  V30 7 C -3.54135 2.22151 -0.451181 0
M  V30 8 N -0.465055 0.697684 1.04666 0
M  V30 9 C -0.162861 -0.608132 0.629259 0
M  V30 10 N 1.10812 -1.05488 1.24441 0
M  V30 11 C 2.36567 -0.587561 0.946299 0
M  V30 12 C 2.91888 0.532973 1.47004 0
M  V30 13 C 4.18676 0.917336 1.12372 0
M  V30 14 C 4.93453 0.190605 0.245089 0
M  V30 15 C 4.40671 -0.940787 -0.297805 0
M  V30 16 C 3.13658 -1.3341 0.0428425 0
M  V30 17 N 6.25537 0.631501 -0.0870699 0
M  V30 18 C 0.100011 -0.639961 -0.83028 0
M  V30 19 C 0.84737 0.184545 -1.61984 0
M  V30 20 C 0.978869 -0.0934396 -2.9615 0
M  V30 21 C 0.365772 -1.19382 -3.51984 0
M  V30 22 C -0.382577 -2.00395 -2.69435 0
M  V30 23 C -0.530372 -1.74557 -1.34802 0
M  V30 24 C -1.31218 -2.37789 -0.274195 0
M  V30 25 C -1.15925 -1.66238 0.888033 0
M  V30 26 C -1.85063 -2.04895 1.99684 0
M  V30 27 C -2.70223 -3.14688 1.98293 0
M  V30 28 C -2.86177 -3.8704 0.831302 0
M  V30 29 C -2.15245 -3.47 -0.302748 0
M  V30 30 H -4.22377 5.46239 -0.174041 0
M  V30 31 H -5.46144 4.21551 -0.519262 0
M  V30 32 H -2.42799 4.82037 1.29524 0
M  V30 33 H -0.673974 3.2352 1.872 0
M  V30 34 H -2.65276 0.329557 -0.570615 0
M  V30 35 H -4.36111 1.97003 -1.10074 0
M  V30 36 H 0.206354 1.08492 1.79522 0
M  V30 37 H 0.998524 -1.80866 1.98672 0
M  V30 38 H 2.4135 1.17814 2.19331 0
M  V30 39 H 4.62915 1.81271 1.54133 0
M  V30 40 H 5.0304 -1.49904 -0.996395 0
M  V30 41 H 2.74571 -2.23637 -0.404748 0
M  V30 42 H 6.80786 1.25282 0.548304 0
M  V30 43 H 6.64556 0.303927 -0.996564 0
M  V30 44 H 1.33784 1.07003 -1.17456 0
M  V30 45 H 1.58802 0.591881 -3.56679 0
M  V30 46 H 0.501501 -1.36836 -4.57845 0
M  V30 47 H -0.86169 -2.86595 -3.13685 0
M  V30 48 H -1.75113 -1.50718 2.91601 0
M  V30 49 H -3.22275 -3.40822 2.88357 0
M  V30 50 H -3.52106 -4.71513 0.835968 0
M  V30 51 H -2.29429 -4.05554 -1.19847 0
M  V30 END ATOM
M  V30 BEGIN BOND
M  V30 1 1 1 2
M  V30 2 2 2 3
M  V30 3 1 3 4
M  V30 4 2 4 5
M  V30 5 1 5 6
M  V30 6 2 6 7
M  V30 7 1 5 8
M  V30 8 1 8 9
M  V30 9 1 9 10
M  V30 10 1 10 11
M  V30 11 2 11 12
M  V30 12 1 12 13
M  V30 13 2 13 14
M  V30 14 1 14 15
M  V30 15 2 15 16
M  V30 16 1 14 17
M  V30 17 1 9 18
M  V30 18 2 18 19
M  V30 19 1 19 20
M  V30 20 2 20 21
M  V30 21 1 21 22
M  V30 22 2 22 23
M  V30 23 1 23 24
M  V30 24 2 24 25
M  V30 25 1 25 26
M  V30 26 2 26 27
M  V30 27 1 27 28
M  V30 28 2 28 29
M  V30 29 1 7 2
M  V30 30 1 25 9
M  V30 31 1 16 11
M  V30 32 1 23 18
M  V30 33 1 29 24
M  V30 34 1 1 30
M  V30 35 1 1 31
M  V30 36 1 3 32
M  V30 37 1 4 33
M  V30 38 1 6 34
M  V30 39 1 7 35
M  V30 40 1 8 36
M  V30 41 1 10 37
M  V30 42 1 12 38
M  V30 43 1 13 39
M  V30 44 1 15 40
M  V30 45 1 16 41
M  V30 46 1 17 42
M  V30 47 1 17 43
M  V30 48 1 19 44
M  V30 49 1 20 45
M  V30 50 1 21 46
M  V30 51 1 22 47
M  V30 52 1 26 48
M  V30 53 1 27 49
M  V30 54 1 28 50
M  V30 55 1 29 51
M  V30 END BOND
M  V30 END CTAB
M  END
