
     RDKit          3D

  0  0  0  0  0  0  0  0  0  0999 V3000
M  V30 BEGIN CTAB
M  V30 COUNTS 47 50 0 0 0
M  V30 BEGIN ATOM
M  V30 1 N -4.39738 3.19521 -0.62015 0
M  V30 2 C -5.02836 1.88762 -0.689733 0
M  V30 3 C -4.15901 0.929422 0.0894597 0
M  V30 4 O -2.84176 0.864237 -0.466909 0
M  V30 5 C -2.31235 -0.384286 -0.0836649 0
M  V30 6 C -3.35046 -1.24552 0.195776 0
M  V30 7 C -4.61145 -0.491121 -0.0260475 0
M  V30 8 C -3.0752 -2.53701 0.595163 0
M  V30 9 C -1.78758 -3.0118 0.729248 0
M  V30 10 C -0.73973 -2.1427 0.447236 0
M  V30 11 C -1.01604 -0.852734 0.0483333 0
M  V30 12 C 0.0594503 0.0829517 -0.255153 0
M  V30 13 N -0.235236 1.35442 -0.647652 0
M  V30 14 C 0.681782 2.27592 -0.944934 0
M  V30 15 N 0.297596 3.5939 -1.35089 0
M  V30 16 N 1.98236 1.94929 -0.857994 0
M  V30 17 C 2.38131 0.724559 -0.48123 0
M  V30 18 C 1.39796 -0.202059 -0.181603 0
M  V30 19 N 3.76449 0.383281 -0.390643 0
M  V30 20 C 4.28896 -0.894227 0.000415913 0
M  V30 21 C 5.719 -0.660247 0.44182 0
M  V30 22 C 5.89948 0.820981 0.385813 0
M  V30 23 C 4.89666 1.24265 -0.670187 0
M  V30 24 C -1.51711 -4.42742 1.16738 0
M  V30 25 H -3.83731 3.31238 0.257432 0
M  V30 26 H -3.79557 3.38437 -1.45662 0
M  V30 27 H -5.9941 1.95271 -0.14971 0
M  V30 28 H -5.15554 1.55095 -1.73853 0
M  V30 29 H -4.13767 1.23964 1.1338 0
M  V30 30 H -5.08943 -0.736265 -0.990938 0
M  V30 31 H -5.34025 -0.76988 0.780176 0
M  V30 32 H -3.87614 -3.22308 0.817504 0
M  V30 33 H 0.264318 -2.52659 0.556062 0
M  V30 34 H 0.633248 4.05167 -2.20846 0
M  V30 35 H -0.375733 4.08437 -0.691789 0
M  V30 36 H 1.69192 -1.19834 0.125212 0
M  V30 37 H 3.74105 -1.34011 0.859745 0
M  V30 38 H 4.31412 -1.57325 -0.885383 0
M  V30 39 H 5.95027 -1.1098 1.41586 0
M  V30 40 H 6.44188 -1.10543 -0.30251 0
M  V30 41 H 6.90942 1.08402 -0.0340202 0
M  V30 42 H 5.7767 1.3346 1.33828 0
M  V30 43 H 4.63287 2.31581 -0.587013 0
M  V30 44 H 5.34513 0.999302 -1.65533 0
M  V30 45 H -2.27261 -5.12132 0.792471 0
M  V30 46 H -0.488215 -4.65269 0.873359 0
M  V30 47 H -1.63573 -4.40837 2.28868 0
M  V30 END ATOM
M  V30 BEGIN BOND
M  V30 1 1 1 2
M  V30 2 1 2 3
M  V30 3 1 3 4
M  V30 4 1 4 5
M  V30 5 2 5 6
M  V30 6 1 6 7
M  V30 7 1 6 8
M  V30 8 2 8 9
M  V30 9 1 9 10
M  V30 10 2 10 11
M  V30 11 1 11 12
M  V30 12 2 12 13
M  V30 13 1 13 14
M  V30 14 1 14 15
M  V30 15 2 14 16
M  V30 16 1 16 17
M  V30 17 2 17 18
M  V30 18 1 17 19
M  V30 19 1 19 20
M  V30 20 1 20 21
M  V30 21 1 21 22
M  V30 22 1 22 23
M  V30 23 1 9 24
M  V30 24 1 7 3
M  V30 25 1 18 12
M  V30 26 1 23 19
M  V30 27 1 11 5
M  V30 28 1 1 25
M  V30 29 1 1 26
M  V30 30 1 2 27
M  V30 31 1 2 28
M  V30 32 1 3 29
M  V30 33 1 7 30
M  V30 34 1 7 31
M  V30 35 1 8 32
M  V30 36 1 10 33
M  V30 37 1 15 34
M  V30 38 1 15 35
M  V30 39 1 18 36
M  V30 40 1 20 37
M  V30 41 1 20 38
M  V30 42 1 21 39
M  V30 43 1 21 40
M  V30 44 1 22 41
M  V30 45 1 22 42
M  V30 46 1 23 43
M  V30 47 1 23 44
M  V30 48 1 24 45
M  V30 49 1 24 46
M  V30 50 1 24 47
M  V30 END BOND
M  V30 END CTAB
M  END
