
     RDKit          3D

  0  0  0  0  0  0  0  0  0  0999 V3000
M  V30 BEGIN CTAB
M  V30 COUNTS 32 32 0 0 0
M  V30 BEGIN ATOM
M  V30 1 N 4.97321 0.377316 1.17933 0
M  V30 2 C 3.76562 1.07437 1.56843 0
M  V30 3 C 2.69997 0.954382 0.478443 0
M  V30 4 C 2.35637 -0.493654 0.234815 0
M  V30 5 N 1.3488 -0.672023 -0.76869 0
M  V30 6 C -0.0506242 -0.601924 -0.536213 0
M  V30 7 C -0.509438 -0.526183 0.785359 0
M  V30 8 C -1.85018 -0.464012 1.11021 0
M  V30 9 C -2.80434 -0.475589 0.119649 0
M  V30 10 C -2.38881 -0.549583 -1.17288 0
M  V30 11 C -1.02419 -0.613071 -1.496 0
M  V30 12 N -0.728922 -0.68033 -2.87151 0 CHG=1
M  V30 13 O 0.196265 -1.33143 -3.31262 0
M  V30 14 O -1.5492 -0.0147364 -3.74566 0 CHG=-1
M  V30 15 S -4.5135 -0.39523 0.526912 0
M  V30 16 O -4.77306 -1.07198 1.85116 0
M  V30 17 O -5.31421 -1.12733 -0.506056 0
M  V30 18 N -5.0122 1.25694 0.579476 0
M  V30 19 F 3.25567 1.51036 -0.683726 0
M  V30 20 F 1.61823 1.72471 0.780718 0
M  V30 21 H 5.77773 0.878363 1.62264 0
M  V30 22 H 4.97246 -0.616783 1.53398 0
M  V30 23 H 3.34377 0.613956 2.47427 0
M  V30 24 H 3.92265 2.16032 1.72177 0
M  V30 25 H 3.30819 -0.954243 -0.154147 0
M  V30 26 H 2.09494 -0.92829 1.22355 0
M  V30 27 H 1.69139 -0.857833 -1.73306 0
M  V30 28 H 0.161578 -0.531529 1.62113 0
M  V30 29 H -2.19407 -0.403888 2.13471 0
M  V30 30 H -3.14329 -0.55862 -1.95226 0
M  V30 31 H -4.22281 1.86485 0.342825 0
M  V30 32 H -5.40801 1.4527 1.52526 0
M  V30 END ATOM
M  V30 BEGIN BOND
M  V30 1 1 1 2
M  V30 2 1 2 3
M  V30 3 1 3 4
M  V30 4 1 4 5
M  V30 5 1 5 6
M  V30 6 2 6 7
M  V30 7 1 7 8
M  V30 8 2 8 9
M  V30 9 1 9 10
M  V30 10 2 10 11
M  V30 11 1 11 12
M  V30 12 2 12 13
M  V30 13 1 12 14
M  V30 14 1 9 15
M  V30 15 2 15 16
M  V30 16 2 15 17
M  V30 17 1 15 18
M  V30 18 1 3 19
M  V30 19 1 3 20
M  V30 20 1 11 6
M  V30 21 1 1 21
M  V30 22 1 1 22
M  V30 23 1 2 23
M  V30 24 1 2 24
M  V30 25 1 4 25
M  V30 26 1 4 26
M  V30 27 1 5 27
M  V30 28 1 7 28
M  V30 29 1 8 29
M  V30 30 1 10 30
M  V30 31 1 18 31
M  V30 32 1 18 32
M  V30 END BOND
M  V30 END CTAB
M  END
