
     RDKit          3D

  0  0  0  0  0  0  0  0  0  0999 V3000
M  V30 BEGIN CTAB
M  V30 COUNTS 31 31 0 0 0
M  V30 BEGIN ATOM
M  V30 1 N -4.79981 -0.976015 -0.0882653 0
M  V30 2 C -3.43182 -0.60728 -0.0345876 0
M  V30 3 C -2.41787 -1.52697 0.19984 0
M  V30 4 C -1.10006 -1.12191 0.243442 0
M  V30 5 C -0.746984 0.21551 0.0546481 0
M  V30 6 C -1.74382 1.12646 -0.176936 0
M  V30 7 C -3.05488 0.727771 -0.221017 0
M  V30 8 N -4.09285 1.67646 -0.462169 0
M  V30 9 N 0.624552 0.534798 0.116733 0
M  V30 10 C 1.65011 -0.445843 0.361818 0
M  V30 11 C 3.02794 0.115648 0.385295 0
M  V30 12 O 3.17739 1.08137 1.38051 0
M  V30 13 C 3.34016 0.676678 -0.980476 0
M  V30 14 C 3.99113 -1.03266 0.657814 0
M  V30 15 H -5.1084 -1.8359 -0.576598 0
M  V30 16 H -5.52993 -0.391078 0.362403 0
M  V30 17 H -2.6807 -2.56493 0.347297 0
M  V30 18 H -0.330618 -1.85985 0.427849 0
M  V30 19 H -1.48858 2.1629 -0.324778 0
M  V30 20 H -4.73006 1.58989 -1.28505 0
M  V30 21 H -4.24799 2.49156 0.181023 0
M  V30 22 H 0.89357 1.52916 -0.0228921 0
M  V30 23 H 1.60232 -1.16741 -0.504883 0
M  V30 24 H 1.41923 -0.947073 1.32081 0
M  V30 25 H 2.95717 1.95145 0.993404 0
M  V30 26 H 3.99107 1.57335 -0.944362 0
M  V30 27 H 2.37677 1.01198 -1.45359 0
M  V30 28 H 3.76614 -0.0872072 -1.6626 0
M  V30 29 H 4.17988 -1.15545 1.74986 0
M  V30 30 H 4.95316 -0.789195 0.180534 0
M  V30 31 H 3.55378 -1.95623 0.203205 0
M  V30 END ATOM
M  V30 BEGIN BOND
M  V30 1 1 1 2
M  V30 2 2 2 3
M  V30 3 1 3 4
M  V30 4 2 4 5
M  V30 5 1 5 6
M  V30 6 2 6 7
M  V30 7 1 7 8
M  V30 8 1 5 9
M  V30 9 1 9 10
M  V30 10 1 10 11
M  V30 11 1 11 12
M  V30 12 1 11 13
M  V30 13 1 11 14
M  V30 14 1 7 2
M  V30 15 1 1 15
M  V30 16 1 1 16
M  V30 17 1 3 17
M  V30 18 1 4 18
M  V30 19 1 6 19
M  V30 20 1 8 20
M  V30 21 1 8 21
M  V30 22 1 9 22
M  V30 23 1 10 23
M  V30 24 1 10 24
M  V30 25 1 12 25
M  V30 26 1 13 26
M  V30 27 1 13 27
M  V30 28 1 13 28
M  V30 29 1 14 29
M  V30 30 1 14 30
M  V30 31 1 14 31
M  V30 END BOND
M  V30 END CTAB
M  END
