
     RDKit          3D

  0  0  0  0  0  0  0  0  0  0999 V3000
M  V30 BEGIN CTAB
M  V30 COUNTS 37 38 0 0 0
M  V30 BEGIN ATOM
M  V30 1 C -2.78722 -2.16876 1.79628 0
M  V30 2 C -2.56963 -1.11429 0.742597 0
M  V30 3 C -1.13464 -0.654842 0.781579 0
M  V30 4 C -0.871935 0.417951 -0.274997 0
M  V30 5 C -1.17345 -0.179564 -1.65459 0
M  V30 6 N -1.76436 1.51859 -0.117709 0
M  V30 7 C -1.41096 2.73052 0.0608208 0
M  V30 8 N -2.48985 3.6735 0.194315 0
M  V30 9 N -0.0546866 3.14156 0.126327 0
M  V30 10 C 0.828076 2.1887 -0.00938664 0
M  V30 11 N 2.2235 2.49352 0.0407452 0
M  V30 12 N 0.495566 0.835491 -0.208462 0
M  V30 13 C 1.55718 -0.143511 -0.347239 0
M  V30 14 C 2.07978 -0.79675 0.750622 0
M  V30 15 C 3.08673 -1.73197 0.663998 0
M  V30 16 C 3.59047 -2.02229 -0.587918 0
M  V30 17 Cl 4.86767 -3.21059 -0.683611 0
M  V30 18 C 3.08698 -1.38289 -1.71401 0
M  V30 19 C 2.07414 -0.448549 -1.58363 0
M  V30 20 H -1.82999 -2.36412 2.35247 0
M  V30 21 H -3.53882 -1.84143 2.53976 0
M  V30 22 H -3.0977 -3.14389 1.36491 0
M  V30 23 H -2.81044 -1.56627 -0.23734 0
M  V30 24 H -3.28432 -0.298378 0.910792 0
M  V30 25 H -0.871456 -0.276605 1.77908 0
M  V30 26 H -0.486581 -1.52071 0.550908 0
M  V30 27 H -0.684792 -1.1773 -1.75374 0
M  V30 28 H -2.27709 -0.245364 -1.75048 0
M  V30 29 H -0.786082 0.44779 -2.4562 0
M  V30 30 H -3.07496 3.71399 1.05675 0
M  V30 31 H -2.66508 4.30841 -0.592194 0
M  V30 32 H 2.798 2.39522 -0.809084 0
M  V30 33 H 2.62944 2.80507 0.922289 0
M  V30 34 H 1.64117 -0.526149 1.71944 0
M  V30 35 H 3.48434 -2.23744 1.55687 0
M  V30 36 H 3.52275 -1.65335 -2.66554 0
M  V30 37 H 1.69825 0.0346955 -2.46443 0
M  V30 END ATOM
M  V30 BEGIN BOND
M  V30 1 1 1 2
M  V30 2 1 2 3
M  V30 3 1 3 4
M  V30 4 1 4 5
M  V30 5 1 4 6
M  V30 6 2 6 7
M  V30 7 1 7 8
M  V30 8 1 7 9
M  V30 9 2 9 10
M  V30 10 1 10 11
M  V30 11 1 10 12
M  V30 12 1 12 13
M  V30 13 2 13 14
M  V30 14 1 14 15
M  V30 15 2 15 16
M  V30 16 1 16 17
M  V30 17 1 16 18
M  V30 18 2 18 19
M  V30 19 1 12 4
M  V30 20 1 19 13
M  V30 21 1 1 20
M  V30 22 1 1 21
M  V30 23 1 1 22
M  V30 24 1 2 23
M  V30 25 1 2 24
M  V30 26 1 3 25
M  V30 27 1 3 26
M  V30 28 1 5 27
M  V30 29 1 5 28
M  V30 30 1 5 29
M  V30 31 1 8 30
M  V30 32 1 8 31
M  V30 33 1 11 32
M  V30 34 1 11 33
M  V30 35 1 14 34
M  V30 36 1 15 35
M  V30 37 1 18 36
M  V30 38 1 19 37
M  V30 END BOND
M  V30 END CTAB
M  END
