
     RDKit          3D

  0  0  0  0  0  0  0  0  0  0999 V3000
M  V30 BEGIN CTAB
M  V30 COUNTS 43 46 0 0 0
M  V30 BEGIN ATOM
M  V30 1 C 5.32692 2.42514 0.320901 0
M  V30 2 S 5.75415 0.866255 -0.434935 0
M  V30 3 O 6.82055 0.213356 0.389975 0
M  V30 4 O 6.16136 1.08878 -1.84868 0
M  V30 5 C 4.30206 -0.134591 -0.379984 0
M  V30 6 C 3.42977 -0.0747761 -1.43463 0
M  V30 7 C 2.27134 -0.860914 -1.41107 0
M  V30 8 C 1.98552 -1.69185 -0.35708 0
M  V30 9 C 0.764081 -2.50191 -0.359067 0
M  V30 10 N -0.364529 -1.83349 0.289733 0
M  V30 11 C -0.658378 -1.90039 1.59259 0
M  V30 12 C -1.79878 -1.13613 1.8732 0
M  V30 13 C -2.19357 -0.594986 0.679513 0
M  V30 14 C -1.29506 -1.04088 -0.271046 0
M  V30 15 C -1.45124 -0.650015 -1.57993 0
M  V30 16 C -2.47916 0.170948 -1.95236 0
M  V30 17 C -3.38269 0.61596 -0.978889 0
M  V30 18 N -4.37924 1.41508 -1.35434 0
M  V30 19 C -5.25413 1.85284 -0.443887 0
M  V30 20 N -6.32104 2.70263 -0.818765 0
M  V30 21 N -5.15139 1.50064 0.863132 0
M  V30 22 C -4.15554 0.693969 1.2765 0
M  V30 23 N -4.09445 0.359182 2.64336 0
M  V30 24 C -3.25148 0.240183 0.342378 0
M  V30 25 C 2.87292 -1.74076 0.696106 0
M  V30 26 C 4.02222 -0.957372 0.667 0
M  V30 27 H 6.23722 3.02909 0.555909 0
M  V30 28 H 4.6384 3.00392 -0.335781 0
M  V30 29 H 4.81854 2.25664 1.29201 0
M  V30 30 H 3.65816 0.578907 -2.25977 0
M  V30 31 H 1.62834 -0.768121 -2.27194 0
M  V30 32 H 0.884421 -3.48236 0.175919 0
M  V30 33 H 0.501081 -2.78234 -1.41733 0
M  V30 34 H -0.114184 -2.45241 2.33241 0
M  V30 35 H -2.24758 -1.01732 2.83281 0
M  V30 36 H -0.741456 -1.0104 -2.30979 0
M  V30 37 H -2.58152 0.462925 -2.9781 0
M  V30 38 H -6.08481 3.69837 -1.04197 0
M  V30 39 H -7.30188 2.38948 -0.88035 0
M  V30 40 H -4.58766 -0.47303 2.98498 0
M  V30 41 H -3.56236 0.923845 3.34699 0
M  V30 42 H 2.65405 -2.3932 1.52968 0
M  V30 43 H 4.72105 -0.990899 1.48819 0
M  V30 END ATOM
M  V30 BEGIN BOND
M  V30 1 1 1 2
M  V30 2 2 2 3
M  V30 3 2 2 4
M  V30 4 1 2 5
M  V30 5 2 5 6
M  V30 6 1 6 7
M  V30 7 2 7 8
M  V30 8 1 8 9
M  V30 9 1 9 10
M  V30 10 1 10 11
M  V30 11 2 11 12
M  V30 12 1 12 13
M  V30 13 2 13 14
M  V30 14 1 14 15
M  V30 15 2 15 16
M  V30 16 1 16 17
M  V30 17 2 17 18
M  V30 18 1 18 19
M  V30 19 1 19 20
M  V30 20 2 19 21
M  V30 21 1 21 22
M  V30 22 1 22 23
M  V30 23 2 22 24
M  V30 24 1 8 25
M  V30 25 2 25 26
M  V30 26 1 26 5
M  V30 27 1 14 10
M  V30 28 1 24 17
M  V30 29 1 24 13
M  V30 30 1 1 27
M  V30 31 1 1 28
M  V30 32 1 1 29
M  V30 33 1 6 30
M  V30 34 1 7 31
M  V30 35 1 9 32
M  V30 36 1 9 33
M  V30 37 1 11 34
M  V30 38 1 12 35
M  V30 39 1 15 36
M  V30 40 1 16 37
M  V30 41 1 20 38
M  V30 42 1 20 39
M  V30 43 1 23 40
M  V30 44 1 23 41
M  V30 45 1 25 42
M  V30 46 1 26 43
M  V30 END BOND
M  V30 END CTAB
M  END
