
     RDKit          3D

  0  0  0  0  0  0  0  0  0  0999 V3000
M  V30 BEGIN CTAB
M  V30 COUNTS 15 15 0 0 0
M  V30 BEGIN ATOM
M  V30 1 Br 0.549816 4.05774 -0.271659 0
M  V30 2 C 0.480627 2.15475 -0.183175 0
M  V30 3 C -0.684583 1.46974 0.0965178 0
M  V30 4 C -0.660181 0.0750137 0.145046 0
M  V30 5 N -1.83496 -0.666422 0.429002 0
M  V30 6 C 0.496479 -0.644285 -0.078592 0
M  V30 7 C 1.63231 0.0912263 -0.353849 0
M  V30 8 N 1.6055 1.44641 -0.400327 0
M  V30 9 Cl 3.1107 -0.811596 -0.640342 0
M  V30 10 N 0.493231 -2.06714 -0.0229581 0
M  V30 11 H -1.61068 2.02107 0.27653 0
M  V30 12 H -2.43556 -0.9123 -0.402255 0
M  V30 13 H -2.12562 -0.9701 1.38077 0
M  V30 14 H 0.45959 -2.56451 0.894577 0
M  V30 15 H 0.523327 -2.67961 -0.869283 0
M  V30 END ATOM
M  V30 BEGIN BOND
M  V30 1 1 1 2
M  V30 2 2 2 3
M  V30 3 1 3 4
M  V30 4 1 4 5
M  V30 5 2 4 6
M  V30 6 1 6 7
M  V30 7 2 7 8
M  V30 8 1 7 9
M  V30 9 1 6 10
M  V30 10 1 8 2
M  V30 11 1 3 11
M  V30 12 1 5 12
M  V30 13 1 5 13
M  V30 14 1 10 14
M  V30 15 1 10 15
M  V30 END BOND
M  V30 END CTAB
M  END
