
     RDKit          3D

  0  0  0  0  0  0  0  0  0  0999 V3000
M  V30 BEGIN CTAB
M  V30 COUNTS 25 26 0 0 0
M  V30 BEGIN ATOM
M  V30 1 N 1.47958 -2.0543 -0.297014 0
M  V30 2 C 1.8036 -0.678831 -0.135012 0
M  V30 3 N 2.97415 -0.103946 -0.544427 0
M  V30 4 C 2.99045 1.19721 -0.251725 0
M  V30 5 N 1.79928 1.43984 0.355786 0
M  V30 6 N 1.08535 0.301674 0.423629 0
M  V30 7 C -0.221247 0.173043 0.993473 0
M  V30 8 C -1.36022 0.416223 0.0659708 0
M  V30 9 C -2.69274 0.259595 0.81238 0
M  V30 10 C -3.23349 -0.413356 -0.44096 0
M  V30 11 C -1.77849 -0.835823 -0.719768 0
M  V30 12 N 4.02776 2.12813 -0.517227 0
M  V30 13 H 0.784036 -2.5186 0.320146 0
M  V30 14 H 1.9296 -2.63067 -1.03635 0
M  V30 15 H -0.321978 -0.885974 1.36892 0
M  V30 16 H -0.360356 0.806979 1.89006 0
M  V30 17 H -1.31659 1.31733 -0.54933 0
M  V30 18 H -3.1735 1.19336 1.09872 0
M  V30 19 H -2.63612 -0.446624 1.65957 0
M  V30 20 H -3.90122 -1.26042 -0.204099 0
M  V30 21 H -3.64679 0.253588 -1.19524 0
M  V30 22 H -1.52708 -0.824462 -1.78471 0
M  V30 23 H -1.50691 -1.75966 -0.157472 0
M  V30 24 H 4.1869 2.45343 -1.47633 0
M  V30 25 H 4.61604 2.47226 0.257333 0
M  V30 END ATOM
M  V30 BEGIN BOND
M  V30 1 1 1 2
M  V30 2 2 2 3
M  V30 3 1 3 4
M  V30 4 2 4 5
M  V30 5 1 5 6
M  V30 6 1 6 7
M  V30 7 1 7 8
M  V30 8 1 8 9
M  V30 9 1 9 10
M  V30 10 1 10 11
M  V30 11 1 4 12
M  V30 12 1 6 2
M  V30 13 1 11 8
M  V30 14 1 1 13
M  V30 15 1 1 14
M  V30 16 1 7 15
M  V30 17 1 7 16
M  V30 18 1 8 17
M  V30 19 1 9 18
M  V30 20 1 9 19
M  V30 21 1 10 20
M  V30 22 1 10 21
M  V30 23 1 11 22
M  V30 24 1 11 23
M  V30 25 1 12 24
M  V30 26 1 12 25
M  V30 END BOND
M  V30 END CTAB
M  END
