
     RDKit          3D

  0  0  0  0  0  0  0  0  0  0999 V3000
M  V30 BEGIN CTAB
M  V30 COUNTS 24 24 0 0 0
M  V30 BEGIN ATOM
M  V30 1 C 1.37801 -0.816921 -1.84724 0
M  V30 2 C 0.623993 -0.00612973 -0.763407 0 CFG=1
M  V30 3 C -0.0429043 1.28666 -1.28797 0
M  V30 4 C -0.809669 0.0155406 -0.92739 0 CFG=2
M  V30 5 C -1.85647 0.201341 0.0484238 0
M  V30 6 O -1.66353 0.763011 1.13892 0
M  V30 7 N -3.17246 -0.258914 -0.203726 0
M  V30 8 N -4.23237 -0.111753 0.697308 0
M  V30 9 C 1.42639 0.213061 0.421876 0
M  V30 10 O 1.08966 0.855923 1.44515 0
M  V30 11 N 2.75013 -0.3383 0.488394 0
M  V30 12 N 3.60942 -0.198318 1.56233 0
M  V30 13 H 2.29243 -0.291905 -2.14662 0
M  V30 14 H 0.738525 -0.930304 -2.74374 0
M  V30 15 H 1.59484 -1.79381 -1.3726 0
M  V30 16 H 0.136586 1.54933 -2.32967 0
M  V30 17 H -0.114461 2.1418 -0.600703 0
M  V30 18 H -1.18997 -0.493656 -1.87027 0
M  V30 19 H -3.39302 -0.736876 -1.10058 0
M  V30 20 H -4.80997 -0.976201 0.78333 0
M  V30 21 H -4.85832 0.658601 0.362705 0
M  V30 22 H 3.12749 -0.898039 -0.326051 0
M  V30 23 H 4.15757 0.665062 1.57084 0
M  V30 24 H 3.2181 -0.4992 2.46501 0
M  V30 END ATOM
M  V30 BEGIN BOND
M  V30 1 1 1 2
M  V30 2 1 2 3
M  V30 3 1 3 4
M  V30 4 1 4 5
M  V30 5 2 5 6
M  V30 6 1 5 7
M  V30 7 1 7 8
M  V30 8 1 2 9 CFG=1
M  V30 9 2 9 10
M  V30 10 1 9 11
M  V30 11 1 11 12
M  V30 12 1 4 2
M  V30 13 1 1 13
M  V30 14 1 1 14
M  V30 15 1 1 15
M  V30 16 1 3 16
M  V30 17 1 3 17
M  V30 18 1 4 18 CFG=3
M  V30 19 1 7 19
M  V30 20 1 8 20
M  V30 21 1 8 21
M  V30 22 1 11 22
M  V30 23 1 12 23
M  V30 24 1 12 24
M  V30 END BOND
M  V30 END CTAB
M  END
