
     RDKit          3D

  0  0  0  0  0  0  0  0  0  0999 V3000
M  V30 BEGIN CTAB
M  V30 COUNTS 49 52 0 0 0
M  V30 BEGIN ATOM
M  V30 1 C 7.6525 1.13695 2.83537 0
M  V30 2 C 7.48638 0.731524 1.39661 0
M  V30 3 O 6.11683 0.476608 1.11558 0
M  V30 4 C 5.68529 0.0883237 -0.128225 0
M  V30 5 O 6.53993 -0.042988 -1.0422 0
M  V30 6 C 4.27317 -0.178187 -0.431714 0
M  V30 7 C 3.86511 -0.56694 -1.68893 0
M  V30 8 C 2.53244 -0.824192 -1.99681 0
M  V30 9 C 1.56401 -0.692765 -1.02615 0
M  V30 10 C 1.97139 -0.303737 0.232434 0
M  V30 11 C 3.29739 -0.0492898 0.533082 0
M  V30 12 C 0.149735 -0.949523 -1.29191 0
M  V30 13 C -0.350332 -1.3416 -2.51623 0
M  V30 14 C -1.711 -1.47757 -2.35529 0
M  V30 15 C -1.98038 -1.16435 -1.04732 0
M  V30 16 O -0.855817 -0.861873 -0.467132 0
M  V30 17 C -3.36862 -1.19707 -0.485238 0
M  V30 18 C -3.41293 -1.86455 0.806121 0
M  V30 19 C -3.95411 -1.3062 1.86101 0
M  V30 20 N -3.93063 -2.07761 3.08219 0
M  V30 21 O -4.53207 -0.0488168 1.86222 0
M  V30 22 C -4.53103 0.655685 0.6543 0
M  V30 23 C -3.98376 0.128537 -0.481491 0
M  V30 24 C -3.98561 0.841394 -1.6993 0
M  V30 25 C -4.55587 2.08524 -1.70691 0
M  V30 26 C -5.11411 2.6404 -0.576742 0
M  V30 27 C -5.09588 1.92006 0.591537 0
M  V30 28 N -5.68263 3.92695 -0.663481 0
M  V30 29 C -2.83324 -3.21583 0.948577 0
M  V30 30 N -2.37349 -4.27404 1.03873 0
M  V30 31 H 6.69923 0.941916 3.375 0
M  V30 32 H 7.80702 2.24555 2.91288 0
M  V30 33 H 8.51958 0.665668 3.33139 0
M  V30 34 H 8.13744 -0.119703 1.11693 0
M  V30 35 H 7.7894 1.59133 0.752591 0
M  V30 36 H 4.60279 -0.680136 -2.47741 0
M  V30 37 H 2.21005 -1.12906 -2.98157 0
M  V30 38 H 1.19378 -0.202265 0.996611 0
M  V30 39 H 3.58034 0.253766 1.53052 0
M  V30 40 H 0.215625 -1.51138 -3.43236 0
M  V30 41 H -2.39426 -1.77657 -3.14003 0
M  V30 42 H -4.01132 -1.82325 -1.19078 0
M  V30 43 H -3.52985 -1.70095 3.94893 0
M  V30 44 H -4.3355 -3.02532 3.04328 0
M  V30 45 H -3.54276 0.399472 -2.60586 0
M  V30 46 H -4.54006 2.60612 -2.66036 0
M  V30 47 H -5.52153 2.31489 1.50193 0
M  V30 48 H -6.12488 4.21914 -1.56395 0
M  V30 49 H -5.63777 4.53622 0.178911 0
M  V30 END ATOM
M  V30 BEGIN BOND
M  V30 1 1 1 2
M  V30 2 1 2 3
M  V30 3 1 3 4
M  V30 4 2 4 5
M  V30 5 1 4 6
M  V30 6 2 6 7
M  V30 7 1 7 8
M  V30 8 2 8 9
M  V30 9 1 9 10
M  V30 10 2 10 11
M  V30 11 1 9 12
M  V30 12 2 12 13
M  V30 13 1 13 14
M  V30 14 2 14 15
M  V30 15 1 15 16
M  V30 16 1 15 17
M  V30 17 1 17 18
M  V30 18 2 18 19
M  V30 19 1 19 20
M  V30 20 1 19 21
M  V30 21 1 21 22
M  V30 22 2 22 23
M  V30 23 1 23 24
M  V30 24 2 24 25
M  V30 25 1 25 26
M  V30 26 2 26 27
M  V30 27 1 26 28
M  V30 28 1 18 29
M  V30 29 3 29 30
M  V30 30 1 11 6
M  V30 31 1 16 12
M  V30 32 1 23 17
M  V30 33 1 27 22
M  V30 34 1 1 31
M  V30 35 1 1 32
M  V30 36 1 1 33
M  V30 37 1 2 34
M  V30 38 1 2 35
M  V30 39 1 7 36
M  V30 40 1 8 37
M  V30 41 1 10 38
M  V30 42 1 11 39
M  V30 43 1 13 40
M  V30 44 1 14 41
M  V30 45 1 17 42
M  V30 46 1 20 43
M  V30 47 1 20 44
M  V30 48 1 24 45
M  V30 49 1 25 46
M  V30 50 1 27 47
M  V30 51 1 28 48
M  V30 52 1 28 49
M  V30 END BOND
M  V30 END CTAB
M  END
