
     RDKit          3D

  0  0  0  0  0  0  0  0  0  0999 V3000
M  V30 BEGIN CTAB
M  V30 COUNTS 33 34 0 0 0
M  V30 BEGIN ATOM
M  V30 1 N 4.64459 0.136131 0.806597 0
M  V30 2 C 3.41549 -0.603115 0.587253 0
M  V30 3 C 3.05728 -0.469816 -0.869387 0
M  V30 4 C 1.554 -0.308724 -0.910863 0
M  V30 5 N 1.12877 -0.00426065 0.421433 0
M  V30 6 C 2.28315 0.0961791 1.28587 0
M  V30 7 C -0.203726 0.176711 0.85936 0
M  V30 8 O -0.470126 0.448653 2.08657 0
M  V30 9 C -1.40638 0.0832082 0.013093 0
M  V30 10 N -1.18751 -0.215374 -1.35747 0
M  V30 11 C -2.22264 1.34986 0.14937 0
M  V30 12 C -3.64863 0.944598 0.36313 0
M  V30 13 C -3.67145 -0.529327 0.016845 0
M  V30 14 C -2.34469 -0.989498 0.573331 0
M  V30 15 H 5.1161 0.397105 -0.079853 0
M  V30 16 H 4.45092 1.02231 1.32486 0
M  V30 17 H 3.58158 -1.63116 0.910281 0
M  V30 18 H 3.41183 -1.37838 -1.39078 0
M  V30 19 H 3.50807 0.414698 -1.34112 0
M  V30 20 H 1.27385 0.54264 -1.5716 0
M  V30 21 H 1.16236 -1.28837 -1.29113 0
M  V30 22 H 2.55189 1.18727 1.32431 0
M  V30 23 H 2.08715 -0.310286 2.29635 0
M  V30 24 H -1.23031 -1.25644 -1.48877 0
M  V30 25 H -1.80618 0.289711 -2.02734 0
M  V30 26 H -1.88568 1.9317 1.03213 0
M  V30 27 H -2.1845 1.96564 -0.771582 0
M  V30 28 H -4.36843 1.52917 -0.243677 0
M  V30 29 H -3.92975 1.00677 1.44776 0
M  V30 30 H -4.5256 -1.02655 0.510757 0
M  V30 31 H -3.71515 -0.676666 -1.08741 0
M  V30 32 H -2.05932 -1.99271 0.257616 0
M  V30 33 H -2.36695 -0.841671 1.66709 0
M  V30 END ATOM
M  V30 BEGIN BOND
M  V30 1 1 1 2
M  V30 2 1 2 3
M  V30 3 1 3 4
M  V30 4 1 4 5
M  V30 5 1 5 6
M  V30 6 1 5 7
M  V30 7 2 7 8
M  V30 8 1 7 9
M  V30 9 1 9 10
M  V30 10 1 9 11
M  V30 11 1 11 12
M  V30 12 1 12 13
M  V30 13 1 13 14
M  V30 14 1 6 2
M  V30 15 1 14 9
M  V30 16 1 1 15
M  V30 17 1 1 16
M  V30 18 1 2 17
M  V30 19 1 3 18
M  V30 20 1 3 19
M  V30 21 1 4 20
M  V30 22 1 4 21
M  V30 23 1 6 22
M  V30 24 1 6 23
M  V30 25 1 10 24
M  V30 26 1 10 25
M  V30 27 1 11 26
M  V30 28 1 11 27
M  V30 29 1 12 28
M  V30 30 1 12 29
M  V30 31 1 13 30
M  V30 32 1 13 31
M  V30 33 1 14 32
M  V30 34 1 14 33
M  V30 END BOND
M  V30 END CTAB
M  END
