
     RDKit          3D

  0  0  0  0  0  0  0  0  0  0999 V3000
M  V30 BEGIN CTAB
M  V30 COUNTS 35 36 0 0 0
M  V30 BEGIN ATOM
M  V30 1 C -3.24046 -1.58199 -0.346552 0
M  V30 2 C -2.53019 -1.05866 0.853963 0
M  V30 3 C -3.35063 0.0553652 1.45828 0
M  V30 4 C -1.10849 -0.61943 0.582374 0
M  V30 5 C -1.12843 0.477966 -0.445632 0
M  V30 6 C -0.0455176 1.1438 -0.974426 0
M  V30 7 N -0.299436 2.0654 -1.85683 0
M  V30 8 C -1.54183 2.32797 -2.20864 0
M  V30 9 N -2.04146 3.28854 -3.14846 0
M  V30 10 S -2.42946 1.2241 -1.25402 0
M  V30 11 C 1.3523 0.816756 -0.548641 0
M  V30 12 C 2.51247 1.40362 -0.995749 0
M  V30 13 C 3.53651 0.793404 -0.338094 0
M  V30 14 C 2.98698 -0.153011 0.49707 0
M  V30 15 O 1.70449 -0.085855 0.323589 0
M  V30 16 P 3.91228 -1.22423 1.5762 0
M  V30 17 N 4.27434 -2.75468 0.808476 0
M  V30 18 O 3.12474 -1.48795 3.04319 0
M  V30 19 O 5.25598 -0.579399 1.91175 0
M  V30 20 H -3.78202 -2.52229 -0.0505087 0
M  V30 21 H -4.02643 -0.874849 -0.643696 0
M  V30 22 H -2.55973 -1.84692 -1.18279 0
M  V30 23 H -2.42649 -1.90832 1.59215 0
M  V30 24 H -3.84188 -0.339689 2.36848 0
M  V30 25 H -2.74595 0.967573 1.6657 0
M  V30 26 H -4.19651 0.342077 0.771591 0
M  V30 27 H -0.572303 -1.45782 0.142466 0
M  V30 28 H -0.692515 -0.248522 1.53968 0
M  V30 29 H -1.4853 3.5366 -3.95183 0
M  V30 30 H -2.96579 3.69974 -2.96943 0
M  V30 31 H 2.61145 2.18788 -1.71863 0
M  V30 32 H 4.61414 0.966881 -0.406835 0
M  V30 33 H 4.99461 -2.67407 0.0742686 0
M  V30 34 H 3.41717 -3.26791 0.530573 0
M  V30 35 H 2.71339 -0.612074 3.30095 0
M  V30 END ATOM
M  V30 BEGIN BOND
M  V30 1 1 1 2
M  V30 2 1 2 3
M  V30 3 1 2 4
M  V30 4 1 4 5
M  V30 5 2 5 6
M  V30 6 1 6 7
M  V30 7 2 7 8
M  V30 8 1 8 9
M  V30 9 1 8 10
M  V30 10 1 6 11
M  V30 11 2 11 12
M  V30 12 1 12 13
M  V30 13 2 13 14
M  V30 14 1 14 15
M  V30 15 1 14 16
M  V30 16 1 16 17
M  V30 17 1 16 18
M  V30 18 2 16 19
M  V30 19 1 10 5
M  V30 20 1 15 11
M  V30 21 1 1 20
M  V30 22 1 1 21
M  V30 23 1 1 22
M  V30 24 1 2 23
M  V30 25 1 3 24
M  V30 26 1 3 25
M  V30 27 1 3 26
M  V30 28 1 4 27
M  V30 29 1 4 28
M  V30 30 1 9 29
M  V30 31 1 9 30
M  V30 32 1 12 31
M  V30 33 1 13 32
M  V30 34 1 17 33
M  V30 35 1 17 34
M  V30 36 1 18 35
M  V30 END BOND
M  V30 END CTAB
M  END
