
     RDKit          3D

  0  0  0  0  0  0  0  0  0  0999 V3000
M  V30 BEGIN CTAB
M  V30 COUNTS 73 76 0 0 0
M  V30 BEGIN ATOM
M  V30 1 C 7.00995 -0.262126 0.613596 0
M  V30 2 N 5.82034 0.129769 1.34387 0
M  V30 3 C 4.65049 -0.341701 0.634699 0 CFG=1
M  V30 4 C 4.70057 -1.85215 0.594774 0
M  V30 5 C 3.52056 -2.3593 -0.180087 0 CFG=1
M  V30 6 N 3.495 -3.80999 -0.0438748 0
M  V30 7 C 2.20131 -1.8341 0.311558 0 CFG=2
M  V30 8 O 1.21511 -2.33229 -0.518492 0
M  V30 9 C 2.24752 -0.327206 0.328339 0 CFG=1
M  V30 10 O 1.09152 0.264994 0.777056 0
M  V30 11 C 0.630082 1.21283 -0.101107 0 CFG=2
M  V30 12 O 0.703334 2.51241 0.44809 0
M  V30 13 C 0.746789 3.36564 -0.680152 0 CFG=2
M  V30 14 C 1.18537 4.71144 -0.212222 0
M  V30 15 O 0.295137 5.21171 0.732665 0
M  V30 16 C -0.664767 3.40166 -1.22167 0 CFG=2
M  V30 17 O -1.45166 3.97538 -0.257617 0
M  V30 18 C -1.125 2.02 -1.62766 0 CFG=2
M  V30 19 O -2.48719 1.88138 -1.61333 0
M  V30 20 C -2.80808 0.840175 -0.694609 0
M  V30 21 O -1.76268 0.970999 0.219732 0
M  V30 22 C -0.698153 0.940751 -0.680276 0 CFG=2
M  V30 23 O -2.69098 -0.334417 -1.32558 0
M  V30 24 C -3.45219 -1.41405 -0.972828 0
M  V30 25 C -2.79536 -2.34432 0.00189145 0 CFG=1
M  V30 26 N -2.45235 -1.76413 1.27324 0
M  V30 27 C -3.6275 -3.57311 0.280149 0
M  V30 28 O -4.05081 -4.22164 -0.869058 0
M  V30 29 C -4.8361 -1.10004 -0.540113 0 CFG=2
M  V30 30 O -5.55483 -0.669876 -1.68458 0
M  V30 31 C -4.90474 0.0251805 0.460008 0 CFG=2
M  V30 32 O -6.23958 0.428832 0.551892 0
M  V30 33 C -4.14553 1.15982 -0.185273 0 CFG=1
M  V30 34 O -4.21134 2.23578 0.684327 0
M  V30 35 C 3.3664 0.0508939 1.30778 0 CFG=2
M  V30 36 O 3.3074 1.3685 1.6872 0
M  V30 37 H 7.76656 0.52799 0.794444 0
M  V30 38 H 7.36866 -1.27318 0.88556 0
M  V30 39 H 6.84168 -0.273595 -0.494163 0
M  V30 40 H 5.88394 -0.312803 2.286 0
M  V30 41 H 4.64242 0.00996285 -0.400948 0
M  V30 42 H 5.61444 -2.13166 0.0244901 0
M  V30 43 H 4.7325 -2.31048 1.58571 0
M  V30 44 H 3.59681 -2.13873 -1.25487 0
M  V30 45 H 3.23197 -4.26577 -0.930764 0
M  V30 46 H 2.95299 -4.11755 0.786581 0
M  V30 47 H 1.9699 -2.16559 1.33792 0
M  V30 48 H 0.897367 -3.21717 -0.280987 0
M  V30 49 H 2.55646 0.0975984 -0.658194 0
M  V30 50 H 1.35267 1.23314 -0.96269 0
M  V30 51 H 1.45343 2.90803 -1.40617 0
M  V30 52 H 1.15655 5.41337 -1.07332 0
M  V30 53 H 2.20421 4.6291 0.221615 0
M  V30 54 H 0.419436 6.16795 0.899012 0
M  V30 55 H -0.655404 4.02683 -2.13579 0
M  V30 56 H -2.15694 4.56648 -0.602193 0
M  V30 57 H -0.687017 1.82245 -2.64371 0
M  V30 58 H -0.660471 -0.00689123 -1.25227 0
M  V30 59 H -3.55436 -2.02866 -1.92301 0
M  V30 60 H -1.84224 -2.7027 -0.507704 0
M  V30 61 H -1.4687 -2.01081 1.50661 0
M  V30 62 H -3.11426 -2.05652 2.04529 0
M  V30 63 H -4.51074 -3.3682 0.90627 0
M  V30 64 H -2.99218 -4.25383 0.914762 0
M  V30 65 H -3.52822 -5.02443 -1.04217 0
M  V30 66 H -5.36401 -1.99219 -0.197094 0
M  V30 67 H -6.45036 -0.362568 -1.45855 0
M  V30 68 H -4.55795 -0.230815 1.45786 0
M  V30 69 H -6.32083 1.34738 0.92381 0
M  V30 70 H -4.77833 1.46072 -1.07615 0
M  V30 71 H -4.28452 3.08863 0.151539 0
M  V30 72 H 3.2221 -0.653852 2.17525 0
M  V30 73 H 2.83442 1.4307 2.55567 0
M  V30 END ATOM
M  V30 BEGIN BOND
M  V30 1 1 1 2
M  V30 2 1 2 3
M  V30 3 1 3 4
M  V30 4 1 4 5
M  V30 5 1 5 6
M  V30 6 1 5 7
M  V30 7 1 7 8
M  V30 8 1 7 9
M  V30 9 1 9 10
M  V30 10 1 10 11
M  V30 11 1 11 12
M  V30 12 1 12 13
M  V30 13 1 13 14
M  V30 14 1 14 15
M  V30 15 1 13 16
M  V30 16 1 16 17
M  V30 17 1 16 18
M  V30 18 1 18 19
M  V30 19 1 19 20
M  V30 20 1 20 21
M  V30 21 1 21 22
M  V30 22 1 20 23
M  V30 23 1 23 24
M  V30 24 1 24 25
M  V30 25 1 25 26
M  V30 26 1 25 27
M  V30 27 1 27 28
M  V30 28 1 24 29
M  V30 29 1 29 30
M  V30 30 1 29 31
M  V30 31 1 31 32
M  V30 32 1 31 33
M  V30 33 1 33 34
M  V30 34 1 9 35
M  V30 35 1 35 36
M  V30 36 1 35 3
M  V30 37 1 22 11
M  V30 38 1 22 18
M  V30 39 1 33 20
M  V30 40 1 1 37
M  V30 41 1 1 38
M  V30 42 1 1 39
M  V30 43 1 2 40
M  V30 44 1 3 41 CFG=3
M  V30 45 1 4 42
M  V30 46 1 4 43
M  V30 47 1 5 44 CFG=3
M  V30 48 1 6 45
M  V30 49 1 6 46
M  V30 50 1 7 47 CFG=1
M  V30 51 1 8 48
M  V30 52 1 9 49 CFG=3
M  V30 53 1 11 50 CFG=3
M  V30 54 1 13 51 CFG=3
M  V30 55 1 14 52
M  V30 56 1 14 53
M  V30 57 1 15 54
M  V30 58 1 16 55 CFG=3
M  V30 59 1 17 56
M  V30 60 1 18 57 CFG=3
M  V30 61 1 22 58 CFG=3
M  V30 62 1 24 59
M  V30 63 1 25 60 CFG=3
M  V30 64 1 26 61
M  V30 65 1 26 62
M  V30 66 1 27 63
M  V30 67 1 27 64
M  V30 68 1 28 65
M  V30 69 1 29 66 CFG=1
M  V30 70 1 30 67
M  V30 71 1 31 68 CFG=1
M  V30 72 1 32 69
M  V30 73 1 33 70 CFG=3
M  V30 74 1 34 71
M  V30 75 1 35 72 CFG=1
M  V30 76 1 36 73
M  V30 END BOND
M  V30 END CTAB
M  END
