
     RDKit          3D

  0  0  0  0  0  0  0  0  0  0999 V3000
M  V30 BEGIN CTAB
M  V30 COUNTS 36 37 0 0 0
M  V30 BEGIN ATOM
M  V30 1 C -4.70456 -0.850665 1.68564 0
M  V30 2 N -5.09087 -0.512269 0.341572 0
M  V30 3 C -4.24843 0.284547 -0.462103 0
M  V30 4 N -3.04866 -0.262536 -0.996768 0
M  V30 5 C -1.78049 0.0908707 -0.477137 0
M  V30 6 C -1.66387 0.985052 0.573921 0
M  V30 7 C -0.438306 1.3402 1.09196 0
M  V30 8 C 0.669958 0.764047 0.515663 0
M  V30 9 C 0.602687 -0.13713 -0.539331 0
M  V30 10 C -0.636582 -0.462547 -1.02392 0
M  V30 11 C 1.84083 -0.730243 -1.12428 0
M  V30 12 C 1.78926 -1.62097 -2.16575 0
M  V30 13 S 3.44512 -1.9581 -2.41702 0
M  V30 14 C 4.09294 -0.958713 -1.19816 0
M  V30 15 N 5.48164 -0.746485 -0.832592 0
M  V30 16 C 5.78185 0.0571333 0.128694 0
M  V30 17 N 7.16383 0.211653 0.426493 0
M  V30 18 N 4.80295 0.76334 0.867446 0
M  V30 19 N 3.01632 -0.419149 -0.66179 0
M  V30 20 N -4.58585 1.50232 -0.69754 0
M  V30 21 C -5.76329 2.01494 -0.164022 0
M  V30 22 N -6.73842 2.45195 0.263976 0
M  V30 23 H -4.19076 -0.0114689 2.16892 0
M  V30 24 H -5.63348 -1.07592 2.25391 0
M  V30 25 H -4.10833 -1.80172 1.70864 0
M  V30 26 H -5.99078 -0.83365 -0.0891288 0
M  V30 27 H -3.09524 -0.935336 -1.78408 0
M  V30 28 H -2.59729 1.38645 0.961677 0
M  V30 29 H -0.412469 2.04125 1.91041 0
M  V30 30 H 1.64496 1.02552 0.903268 0
M  V30 31 H -0.708125 -1.17287 -1.85706 0
M  V30 32 H 0.897079 -2.00924 -2.69391 0
M  V30 33 H 7.50745 1.12001 0.808349 0
M  V30 34 H 7.87211 -0.540243 0.285058 0
M  V30 35 H 4.32509 1.61322 0.459866 0
M  V30 36 H 4.50172 0.497762 1.82914 0
M  V30 END ATOM
M  V30 BEGIN BOND
M  V30 1 1 1 2
M  V30 2 1 2 3
M  V30 3 1 3 4
M  V30 4 1 4 5
M  V30 5 2 5 6
M  V30 6 1 6 7
M  V30 7 2 7 8
M  V30 8 1 8 9
M  V30 9 2 9 10
M  V30 10 1 9 11
M  V30 11 2 11 12
M  V30 12 1 12 13
M  V30 13 1 13 14
M  V30 14 1 14 15
M  V30 15 2 15 16
M  V30 16 1 16 17
M  V30 17 1 16 18
M  V30 18 2 14 19
M  V30 19 2 3 20
M  V30 20 1 20 21
M  V30 21 3 21 22
M  V30 22 1 10 5
M  V30 23 1 19 11
M  V30 24 1 1 23
M  V30 25 1 1 24
M  V30 26 1 1 25
M  V30 27 1 2 26
M  V30 28 1 4 27
M  V30 29 1 6 28
M  V30 30 1 7 29
M  V30 31 1 8 30
M  V30 32 1 10 31
M  V30 33 1 12 32
M  V30 34 1 17 33
M  V30 35 1 17 34
M  V30 36 1 18 35
M  V30 37 1 18 36
M  V30 END BOND
M  V30 END CTAB
M  END
