
     RDKit          3D

  0  0  0  0  0  0  0  0  0  0999 V3000
M  V30 BEGIN CTAB
M  V30 COUNTS 18 19 0 0 0
M  V30 BEGIN ATOM
M  V30 1 O 4.68966 0.782801 -0.0333771 0
M  V30 2 C 3.44915 0.568904 -0.0232429 0
M  V30 3 N 2.40538 1.55901 -0.0262431 0
M  V30 4 C 1.29679 0.917337 -0.0127544 0
M  V30 5 C 1.49745 -0.444754 -0.00063803 0
M  V30 6 N 2.7642 -0.68106 -0.0065009 0
M  V30 7 C 0.430338 -1.31111 0.0147937 0
M  V30 8 C -0.889208 -0.845172 0.0187413 0
M  V30 9 C -1.08329 0.513755 0.00661317 0
M  V30 10 C -0.0107643 1.39032 -0.00895841 0
M  V30 11 N -2.40314 1.03391 0.0100443 0
M  V30 12 N -1.9672 -1.76949 0.0348065 0
M  V30 13 H 0.570118 -2.38036 0.0243902 0
M  V30 14 H -0.238835 2.44403 -0.0178623 0
M  V30 15 H -2.90929 1.2507 0.894443 0
M  V30 16 H -2.89835 1.2114 -0.889495 0
M  V30 17 H -1.7695 -2.78451 -0.0964788 0
M  V30 18 H -2.93351 -1.4557 0.172971 0
M  V30 END ATOM
M  V30 BEGIN BOND
M  V30 1 2 1 2
M  V30 2 1 2 3
M  V30 3 2 3 4
M  V30 4 1 4 5
M  V30 5 2 5 6
M  V30 6 1 5 7
M  V30 7 2 7 8
M  V30 8 1 8 9
M  V30 9 2 9 10
M  V30 10 1 9 11
M  V30 11 1 8 12
M  V30 12 1 6 2
M  V30 13 1 10 4
M  V30 14 1 7 13
M  V30 15 1 10 14
M  V30 16 1 11 15
M  V30 17 1 11 16
M  V30 18 1 12 17
M  V30 19 1 12 18
M  V30 END BOND
M  V30 END CTAB
M  END
