
     RDKit          3D

  0  0  0  0  0  0  0  0  0  0999 V3000
M  V30 BEGIN CTAB
M  V30 COUNTS 40 41 0 0 0
M  V30 BEGIN ATOM
M  V30 1 C -0.786647 -2.12413 0.939713 0
M  V30 2 C -1.73306 -1.24639 0.159776 0
M  V30 3 C -1.06556 0.0891851 -0.202673 0
M  V30 4 C -2.06499 0.908753 -0.976142 0
M  V30 5 C -2.97128 1.72107 -0.0881304 0
M  V30 6 C -2.06234 2.5286 0.835252 0
M  V30 7 C -1.39852 1.498 1.72342 0
M  V30 8 N -0.501775 0.733052 0.916966 0
M  V30 9 C 0.736979 1.4101 0.721565 0
M  V30 10 C 1.86007 0.56863 0.276581 0
M  V30 11 N 2.58572 -0.197543 1.10816 0
M  V30 12 C 3.59548 -0.922927 0.595396 0
M  V30 13 N 4.4062 -1.75551 1.4097 0
M  V30 14 N 3.89659 -0.898366 -0.737969 0
M  V30 15 C 3.1692 -0.131172 -1.56752 0
M  V30 16 N 2.17932 0.572697 -1.02934 0
M  V30 17 N 3.47562 -0.0981948 -2.96369 0
M  V30 18 C -2.08738 -2.00413 -1.1042 0
M  V30 19 H -1.26144 -3.1333 0.982854 0
M  V30 20 H 0.171499 -2.28029 0.374626 0
M  V30 21 H -0.564336 -1.73409 1.94825 0
M  V30 22 H -2.61965 -1.07019 0.787087 0
M  V30 23 H -0.26376 -0.190804 -0.914347 0
M  V30 24 H -2.70884 0.223015 -1.56465 0
M  V30 25 H -1.55596 1.61827 -1.6601 0
M  V30 26 H -3.60309 1.08983 0.571691 0
M  V30 27 H -3.57047 2.38158 -0.741436 0
M  V30 28 H -1.30924 3.00071 0.175329 0
M  V30 29 H -2.64435 3.26985 1.41441 0
M  V30 30 H -0.797161 2.02587 2.49321 0
M  V30 31 H -2.12999 0.883282 2.25544 0
M  V30 32 H 0.552809 2.20863 -0.0535342 0
M  V30 33 H 1.07556 1.9522 1.62959 0
M  V30 34 H 4.71154 -2.67292 1.0601 0
M  V30 35 H 4.678 -1.42058 2.3501 0
M  V30 36 H 2.84413 -0.592604 -3.63025 0
M  V30 37 H 4.32932 0.426677 -3.25519 0
M  V30 38 H -3.18929 -2.02101 -1.17569 0
M  V30 39 H -1.76129 -3.06417 -1.06536 0
M  V30 40 H -1.61761 -1.55166 -1.999 0
M  V30 END ATOM
M  V30 BEGIN BOND
M  V30 1 1 1 2
M  V30 2 1 2 3
M  V30 3 1 3 4
M  V30 4 1 4 5
M  V30 5 1 5 6
M  V30 6 1 6 7
M  V30 7 1 7 8
M  V30 8 1 8 9
M  V30 9 1 9 10
M  V30 10 2 10 11
M  V30 11 1 11 12
M  V30 12 1 12 13
M  V30 13 2 12 14
M  V30 14 1 14 15
M  V30 15 2 15 16
M  V30 16 1 15 17
M  V30 17 1 2 18
M  V30 18 1 8 3
M  V30 19 1 16 10
M  V30 20 1 1 19
M  V30 21 1 1 20
M  V30 22 1 1 21
M  V30 23 1 2 22
M  V30 24 1 3 23
M  V30 25 1 4 24
M  V30 26 1 4 25
M  V30 27 1 5 26
M  V30 28 1 5 27
M  V30 29 1 6 28
M  V30 30 1 6 29
M  V30 31 1 7 30
M  V30 32 1 7 31
M  V30 33 1 9 32
M  V30 34 1 9 33
M  V30 35 1 13 34
M  V30 36 1 13 35
M  V30 37 1 17 36
M  V30 38 1 17 37
M  V30 39 1 18 38
M  V30 40 1 18 39
M  V30 41 1 18 40
M  V30 END BOND
M  V30 END CTAB
M  END
