
     RDKit          3D

  0  0  0  0  0  0  0  0  0  0999 V3000
M  V30 BEGIN CTAB
M  V30 COUNTS 56 58 0 0 0
M  V30 BEGIN ATOM
M  V30 1 N -10.1808 1.40424 1.43229 0
M  V30 2 C -8.86382 0.898203 1.2523 0
M  V30 3 N -7.83622 1.75362 1.45655 0
M  V30 4 C -6.55552 1.38128 1.3142 0
M  V30 5 C -6.30567 0.0720911 0.945286 0
M  V30 6 C -4.98664 -0.337444 0.791972 0
M  V30 7 C -3.9503 0.523796 0.998002 0
M  V30 8 C -2.54788 0.117848 0.843872 0
M  V30 9 C -2.02456 0.323393 -0.569293 0
M  V30 10 C -0.621938 -0.122865 -0.572494 0
M  V30 11 C -0.300982 -1.42417 -0.856793 0
M  V30 12 C 0.999762 -1.88039 -0.868248 0
M  V30 13 C 2.01643 -0.982954 -0.579826 0
M  V30 14 C 1.70923 0.305979 -0.297631 0
M  V30 15 C 0.388117 0.758788 -0.288752 0
M  V30 16 C 3.39279 -1.48507 -0.595307 0
M  V30 17 O 3.63864 -2.65186 -1.00983 0
M  V30 18 N 4.50772 -0.70985 -0.154893 0
M  V30 19 C 5.8448 -1.22339 -0.177246 0
M  V30 20 C 6.83855 -0.448675 -0.949953 0
M  V30 21 C 7.14692 0.908533 -0.580337 0
M  V30 22 C 6.72335 1.51069 0.488188 0
M  V30 23 C 8.01814 1.68182 -1.49246 0
M  V30 24 O 8.49616 1.0792 -2.64752 0
M  V30 25 O 8.33406 2.86148 -1.25033 0
M  V30 26 C 6.34121 -1.60651 1.19588 0
M  V30 27 O 7.64528 -2.07111 1.2658 0
M  V30 28 O 5.6288 -1.5158 2.22116 0
M  V30 29 C -4.22559 1.83091 1.36704 0
M  V30 30 C -5.51558 2.29014 1.53288 0
M  V30 31 C -7.33287 -0.83625 0.726488 0
M  V30 32 N -7.08032 -2.18792 0.347798 0
M  V30 33 N -8.59289 -0.365852 0.895138 0
M  V30 34 H -10.6523 1.77456 0.581291 0
M  V30 35 H -10.6806 1.42291 2.34376 0
M  V30 36 H -4.80322 -1.3644 0.503813 0
M  V30 37 H -1.85737 0.666901 1.51424 0
M  V30 38 H -2.4366 -0.98176 1.0404 0
M  V30 39 H -2.03793 1.38637 -0.875013 0
M  V30 40 H -2.63528 -0.249473 -1.30796 0
M  V30 41 H -1.12678 -2.11229 -1.08148 0
M  V30 42 H 1.24347 -2.9292 -1.09791 0
M  V30 43 H 2.4955 1.02899 -0.0700205 0
M  V30 44 H 0.224422 1.79714 -0.0565763 0
M  V30 45 H 4.30992 0.240649 0.177441 0
M  V30 46 H 5.74159 -2.25563 -0.674238 0
M  V30 47 H 7.75681 -1.09564 -1.05946 0
M  V30 48 H 6.4433 -0.41565 -2.02332 0
M  V30 49 H 6.09215 1.11745 1.25931 0
M  V30 50 H 7.01933 2.56503 0.680353 0
M  V30 51 H 9.15543 1.4945 -3.26198 0
M  V30 52 H 8.17235 -2.40645 0.494717 0
M  V30 53 H -3.39782 2.50938 1.52958 0
M  V30 54 H -5.73498 3.30767 1.81984 0
M  V30 55 H -6.33173 -2.76139 0.748064 0
M  V30 56 H -7.7081 -2.59153 -0.379973 0
M  V30 END ATOM
M  V30 BEGIN BOND
M  V30 1 1 1 2
M  V30 2 2 2 3
M  V30 3 1 3 4
M  V30 4 2 4 5
M  V30 5 1 5 6
M  V30 6 2 6 7
M  V30 7 1 7 8
M  V30 8 1 8 9
M  V30 9 1 9 10
M  V30 10 2 10 11
M  V30 11 1 11 12
M  V30 12 2 12 13
M  V30 13 1 13 14
M  V30 14 2 14 15
M  V30 15 1 13 16
M  V30 16 2 16 17
M  V30 17 1 16 18
M  V30 18 1 18 19
M  V30 19 1 19 20
M  V30 20 1 20 21
M  V30 21 2 21 22 CFG=2
M  V30 22 1 21 23
M  V30 23 1 23 24
M  V30 24 2 23 25
M  V30 25 1 19 26
M  V30 26 1 26 27
M  V30 27 2 26 28
M  V30 28 1 7 29
M  V30 29 2 29 30
M  V30 30 1 5 31
M  V30 31 1 31 32
M  V30 32 2 31 33
M  V30 33 1 33 2
M  V30 34 1 30 4
M  V30 35 1 15 10
M  V30 36 1 1 34
M  V30 37 1 1 35
M  V30 38 1 6 36
M  V30 39 1 8 37
M  V30 40 1 8 38
M  V30 41 1 9 39
M  V30 42 1 9 40
M  V30 43 1 11 41
M  V30 44 1 12 42
M  V30 45 1 14 43
M  V30 46 1 15 44
M  V30 47 1 18 45
M  V30 48 1 19 46
M  V30 49 1 20 47
M  V30 50 1 20 48
M  V30 51 1 22 49
M  V30 52 1 22 50
M  V30 53 1 24 51
M  V30 54 1 27 52
M  V30 55 1 29 53
M  V30 56 1 30 54
M  V30 57 1 32 55
M  V30 58 1 32 56
M  V30 END BOND
M  V30 END CTAB
M  END
