
     RDKit          3D

  0  0  0  0  0  0  0  0  0  0999 V3000
M  V30 BEGIN CTAB
M  V30 COUNTS 26 26 0 0 0
M  V30 BEGIN ATOM
M  V30 1 N -3.7096 1.38653 0.0207323 0
M  V30 2 C -3.85788 0.0268896 -0.443922 0
M  V30 3 C -2.84842 -0.816791 0.32843 0
M  V30 4 C -1.47616 -0.221469 -0.014456 0
M  V30 5 O -0.504392 -0.971516 0.67934 0
M  V30 6 C 0.822499 -0.635461 0.539301 0
M  V30 7 C 1.83729 -1.31729 1.18275 0
M  V30 8 C 3.14449 -0.941175 1.00879 0
M  V30 9 C 3.52192 0.112837 0.202765 0
M  V30 10 N 4.87574 0.497191 0.0267182 0
M  V30 11 C 2.48381 0.779438 -0.430769 0
M  V30 12 C 1.16349 0.422232 -0.273198 0
M  V30 13 H -4.57316 1.7779 0.426931 0
M  V30 14 H -3.20706 2.001 -0.634067 0
M  V30 15 H -3.54148 -0.0120299 -1.51109 0
M  V30 16 H -4.88268 -0.364203 -0.348414 0
M  V30 17 H -3.05014 -0.658654 1.40473 0
M  V30 18 H -2.87496 -1.866 0.0358197 0
M  V30 19 H -1.45319 0.85529 0.26267 0
M  V30 20 H -1.2642 -0.321193 -1.08854 0
M  V30 21 H 1.53952 -2.14348 1.81439 0
M  V30 22 H 3.94419 -1.47426 1.5125 0
M  V30 23 H 5.37258 0.90233 0.839486 0
M  V30 24 H 5.38349 0.391562 -0.869177 0
M  V30 25 H 2.77464 1.62073 -1.07514 0
M  V30 26 H 0.379646 0.9696 -0.786777 0
M  V30 END ATOM
M  V30 BEGIN BOND
M  V30 1 1 1 2
M  V30 2 1 2 3
M  V30 3 1 3 4
M  V30 4 1 4 5
M  V30 5 1 5 6
M  V30 6 2 6 7
M  V30 7 1 7 8
M  V30 8 2 8 9
M  V30 9 1 9 10
M  V30 10 1 9 11
M  V30 11 2 11 12
M  V30 12 1 12 6
M  V30 13 1 1 13
M  V30 14 1 1 14
M  V30 15 1 2 15
M  V30 16 1 2 16
M  V30 17 1 3 17
M  V30 18 1 3 18
M  V30 19 1 4 19
M  V30 20 1 4 20
M  V30 21 1 7 21
M  V30 22 1 8 22
M  V30 23 1 10 23
M  V30 24 1 10 24
M  V30 25 1 11 25
M  V30 26 1 12 26
M  V30 END BOND
M  V30 END CTAB
M  END
