
     RDKit          3D

  0  0  0  0  0  0  0  0  0  0999 V3000
M  V30 BEGIN CTAB
M  V30 COUNTS 43 45 0 0 0
M  V30 BEGIN ATOM
M  V30 1 C -3.14205 1.34001 2.07496 0
M  V30 2 C -3.73112 0.615928 0.905013 0
M  V30 3 C -4.86838 1.05528 0.259165 0
M  V30 4 C -5.38939 0.362185 -0.82187 0
M  V30 5 N -6.56165 0.887903 -1.42363 0
M  V30 6 C -4.76127 -0.790024 -1.26364 0
M  V30 7 C -3.62011 -1.25653 -0.63809 0
M  V30 8 C -2.92136 -2.49673 -1.09304 0
M  V30 9 C -3.13726 -0.538122 0.430556 0
M  V30 10 O -1.99605 -0.968235 1.08811 0
M  V30 11 C -0.770185 -0.477788 0.605579 0
M  V30 12 N -0.70028 0.365253 -0.439296 0
M  V30 13 C 0.46511 0.832961 -0.899834 0
M  V30 14 N 0.550441 1.73159 -2.01246 0
M  V30 15 N 1.59882 0.459155 -0.313362 0
M  V30 16 C 1.6046 -0.367097 0.718559 0
M  V30 17 N 2.78683 -0.77196 1.34926 0
M  V30 18 C 4.09922 -0.406198 1.05355 0
M  V30 19 C 5.12517 -1.24507 1.54367 0
M  V30 20 C 6.45604 -1.00842 1.35271 0
M  V30 21 C 6.83326 0.108821 0.643244 0
M  V30 22 C 5.8546 0.939926 0.156849 0
M  V30 23 C 4.5048 0.682054 0.362067 0
M  V30 24 C 8.20647 0.409626 0.410451 0
M  V30 25 N 9.3259 0.635554 0.228427 0
M  V30 26 N 0.391683 -0.827285 1.16468 0
M  V30 27 H -2.54683 2.21381 1.76006 0
M  V30 28 H -4.0068 1.62381 2.72505 0
M  V30 29 H -2.54999 0.60392 2.66187 0
M  V30 30 H -5.33887 1.97238 0.637506 0
M  V30 31 H -7.42994 0.989504 -0.860634 0
M  V30 32 H -6.57475 1.17648 -2.42127 0
M  V30 33 H -5.1754 -1.33245 -2.11546 0
M  V30 34 H -3.68277 -3.15949 -1.57884 0
M  V30 35 H -2.60178 -3.06156 -0.170004 0
M  V30 36 H -2.05918 -2.29663 -1.72552 0
M  V30 37 H 0.930773 2.69442 -1.92553 0
M  V30 38 H 0.204705 1.36317 -2.93204 0
M  V30 39 H 2.6385 -1.45569 2.17556 0
M  V30 40 H 4.85828 -2.14607 2.11377 0
M  V30 41 H 7.23337 -1.67753 1.74498 0
M  V30 42 H 6.12038 1.83406 -0.409733 0
M  V30 43 H 3.77644 1.38509 -0.0349794 0
M  V30 END ATOM
M  V30 BEGIN BOND
M  V30 1 1 1 2
M  V30 2 2 2 3
M  V30 3 1 3 4
M  V30 4 1 4 5
M  V30 5 2 4 6
M  V30 6 1 6 7
M  V30 7 1 7 8
M  V30 8 2 7 9
M  V30 9 1 9 10
M  V30 10 1 10 11
M  V30 11 2 11 12
M  V30 12 1 12 13
M  V30 13 1 13 14
M  V30 14 2 13 15
M  V30 15 1 15 16
M  V30 16 1 16 17
M  V30 17 1 17 18
M  V30 18 2 18 19
M  V30 19 1 19 20
M  V30 20 2 20 21
M  V30 21 1 21 22
M  V30 22 2 22 23
M  V30 23 1 21 24
M  V30 24 3 24 25
M  V30 25 2 16 26
M  V30 26 1 9 2
M  V30 27 1 26 11
M  V30 28 1 23 18
M  V30 29 1 1 27
M  V30 30 1 1 28
M  V30 31 1 1 29
M  V30 32 1 3 30
M  V30 33 1 5 31
M  V30 34 1 5 32
M  V30 35 1 6 33
M  V30 36 1 8 34
M  V30 37 1 8 35
M  V30 38 1 8 36
M  V30 39 1 14 37
M  V30 40 1 14 38
M  V30 41 1 17 39
M  V30 42 1 19 40
M  V30 43 1 20 41
M  V30 44 1 22 42
M  V30 45 1 23 43
M  V30 END BOND
M  V30 END CTAB
M  END
