
     RDKit          3D

  0  0  0  0  0  0  0  0  0  0999 V3000
M  V30 BEGIN CTAB
M  V30 COUNTS 49 48 0 0 0
M  V30 BEGIN ATOM
M  V30 1 C -0.392737 3.9302 0.0604801 0
M  V30 2 C 0.507419 3.15914 0.990425 0
M  V30 3 C 1.90679 3.75083 0.900205 0
M  V30 4 C 0.0183335 3.3806 2.39691 0
M  V30 5 O 0.604421 1.79667 0.647644 0
M  V30 6 C -0.458635 0.930291 0.59894 0
M  V30 7 O -1.58696 1.40033 0.881984 0
M  V30 8 N -0.280505 -0.443749 0.241131 0
M  V30 9 C -1.40105 -1.34409 0.19289 0
M  V30 10 C -2.12803 -1.43831 -1.08535 0
M  V30 11 O -3.17159 -2.32868 -1.01822 0
M  V30 12 C -4.1352 -1.99227 -0.0954155 0
M  V30 13 C -5.25859 -3.04787 -0.162803 0
M  V30 14 N -5.77082 -2.98906 -1.53668 0
M  V30 15 C 1.02162 -0.973684 -0.0499195 0
M  V30 16 C 1.48063 -0.893426 -1.45007 0
M  V30 17 O 2.74264 -1.44146 -1.57941 0
M  V30 18 C 3.72512 -0.819454 -0.834405 0
M  V30 19 C 5.02533 -1.55493 -1.16252 0
M  V30 20 N 6.14615 -1.00985 -0.451342 0
M  V30 21 H -0.451806 3.35832 -0.888662 0
M  V30 22 H -1.37151 4.07464 0.535369 0
M  V30 23 H 0.0432626 4.90992 -0.129425 0
M  V30 24 H 2.6146 3.17258 1.52849 0
M  V30 25 H 1.89962 4.82349 1.19062 0
M  V30 26 H 2.22883 3.64443 -0.16116 0
M  V30 27 H 0.558508 2.77546 3.13891 0
M  V30 28 H -1.08374 3.28352 2.47252 0
M  V30 29 H 0.240041 4.46057 2.63645 0
M  V30 30 H -2.10036 -1.12009 1.03268 0
M  V30 31 H -1.02041 -2.38146 0.434386 0
M  V30 32 H -1.48941 -1.77289 -1.93386 0
M  V30 33 H -2.61943 -0.445962 -1.34823 0
M  V30 34 H -3.82333 -1.97785 0.948864 0
M  V30 35 H -4.65114 -1.02225 -0.341976 0
M  V30 36 H -4.87604 -4.04772 0.0442387 0
M  V30 37 H -6.07405 -2.71849 0.501321 0
M  V30 38 H -6.00938 -2.00615 -1.79389 0
M  V30 39 H -6.58955 -3.62511 -1.64561 0
M  V30 40 H 1.74444 -0.542267 0.685429 0
M  V30 41 H 1.00586 -2.06854 0.225977 0
M  V30 42 H 0.823687 -1.50536 -2.10391 0
M  V30 43 H 1.57787 0.151445 -1.83657 0
M  V30 44 H 3.80482 0.257603 -0.99081 0
M  V30 45 H 3.59755 -1.00829 0.269682 0
M  V30 46 H 4.86125 -2.6053 -0.823093 0
M  V30 47 H 5.16918 -1.56256 -2.27359 0
M  V30 48 H 6.43749 -1.5857 0.361935 0
M  V30 49 H 6.9588 -0.98722 -1.12394 0
M  V30 END ATOM
M  V30 BEGIN BOND
M  V30 1 1 1 2
M  V30 2 1 2 3
M  V30 3 1 2 4
M  V30 4 1 2 5
M  V30 5 1 5 6
M  V30 6 2 6 7
M  V30 7 1 6 8
M  V30 8 1 8 9
M  V30 9 1 9 10
M  V30 10 1 10 11
M  V30 11 1 11 12
M  V30 12 1 12 13
M  V30 13 1 13 14
M  V30 14 1 8 15
M  V30 15 1 15 16
M  V30 16 1 16 17
M  V30 17 1 17 18
M  V30 18 1 18 19
M  V30 19 1 19 20
M  V30 20 1 1 21
M  V30 21 1 1 22
M  V30 22 1 1 23
M  V30 23 1 3 24
M  V30 24 1 3 25
M  V30 25 1 3 26
M  V30 26 1 4 27
M  V30 27 1 4 28
M  V30 28 1 4 29
M  V30 29 1 9 30
M  V30 30 1 9 31
M  V30 31 1 10 32
M  V30 32 1 10 33
M  V30 33 1 12 34
M  V30 34 1 12 35
M  V30 35 1 13 36
M  V30 36 1 13 37
M  V30 37 1 14 38
M  V30 38 1 14 39
M  V30 39 1 15 40
M  V30 40 1 15 41
M  V30 41 1 16 42
M  V30 42 1 16 43
M  V30 43 1 18 44
M  V30 44 1 18 45
M  V30 45 1 19 46
M  V30 46 1 19 47
M  V30 47 1 20 48
M  V30 48 1 20 49
M  V30 END BOND
M  V30 END CTAB
M  END
