
     RDKit          3D

  0  0  0  0  0  0  0  0  0  0999 V3000
M  V30 BEGIN CTAB
M  V30 COUNTS 51 53 0 0 0
M  V30 BEGIN ATOM
M  V30 1 N 6.67798 -2.70827 -1.47126 0
M  V30 2 C 6.16773 -1.54831 -0.805088 0
M  V30 3 N 5.01761 -1.65439 -0.117887 0
M  V30 4 C 4.47515 -0.591293 0.53945 0
M  V30 5 C 3.21731 -0.720645 1.29267 0
M  V30 6 N 2.0248 -0.5893 0.51823 0
M  V30 7 C 0.892946 -0.762059 1.4299 0
M  V30 8 C -0.411304 -0.714526 0.625948 0
M  V30 9 N -0.55815 0.612185 0.157442 0
M  V30 10 C 0.632754 1.38927 0.124724 0
M  V30 11 C 1.88922 0.624382 -0.222847 0
M  V30 12 S -1.61812 0.865848 -1.15603 0
M  V30 13 O -1.46627 2.29709 -1.64375 0
M  V30 14 O -1.07288 0.0126393 -2.30191 0
M  V30 15 N -3.19982 0.454635 -0.826667 0
M  V30 16 C -3.56692 -0.847604 -0.503597 0
M  V30 17 C -4.27143 -0.910515 0.834041 0
M  V30 18 C -5.72871 -0.642167 0.690566 0
M  V30 19 C -6.13409 0.11069 -0.530178 0
M  V30 20 C -5.46763 1.41443 -0.740829 0
M  V30 21 C -4.04377 1.51025 -0.357478 0
M  V30 22 N 5.15822 0.558916 0.456769 0
M  V30 23 C 6.30935 0.714851 -0.216145 0
M  V30 24 N 6.82741 -0.369501 -0.864593 0
M  V30 25 N 7.00854 1.94011 -0.286469 0
M  V30 26 H 7.03198 -2.70492 -2.43793 0
M  V30 27 H 6.67588 -3.60318 -0.906771 0
M  V30 28 H 3.18647 -1.73911 1.75994 0
M  V30 29 H 3.25055 0.0572398 2.1034 0
M  V30 30 H 0.92345 -1.74823 1.92741 0
M  V30 31 H 0.857773 0.096752 2.12848 0
M  V30 32 H -1.19382 -1.01977 1.32262 0
M  V30 33 H -0.348004 -1.42699 -0.230823 0
M  V30 34 H 0.793067 1.86293 1.11852 0
M  V30 35 H 0.580773 2.23098 -0.611955 0
M  V30 36 H 2.73176 1.29747 0.0326579 0
M  V30 37 H 1.96021 0.39953 -1.30585 0
M  V30 38 H -4.24395 -1.34689 -1.24835 0
M  V30 39 H -2.69131 -1.51506 -0.452295 0
M  V30 40 H -4.1089 -1.92816 1.24529 0
M  V30 41 H -3.767 -0.212872 1.55328 0
M  V30 42 H -6.1359 -0.154243 1.59884 0
M  V30 43 H -6.26019 -1.63813 0.641733 0
M  V30 44 H -6.07639 -0.490048 -1.46059 0
M  V30 45 H -7.24049 0.317723 -0.411034 0
M  V30 46 H -5.5827 1.70598 -1.8039 0
M  V30 47 H -6.0299 2.20027 -0.162741 0
M  V30 48 H -3.63386 2.4629 -0.776727 0
M  V30 49 H -3.98216 1.65456 0.761024 0
M  V30 50 H 7.43676 2.33597 0.571529 0
M  V30 51 H 7.10595 2.45858 -1.18002 0
M  V30 END ATOM
M  V30 BEGIN BOND
M  V30 1 1 1 2
M  V30 2 2 2 3
M  V30 3 1 3 4
M  V30 4 1 4 5
M  V30 5 1 5 6
M  V30 6 1 6 7
M  V30 7 1 7 8
M  V30 8 1 8 9
M  V30 9 1 9 10
M  V30 10 1 10 11
M  V30 11 1 9 12
M  V30 12 2 12 13
M  V30 13 2 12 14
M  V30 14 1 12 15
M  V30 15 1 15 16
M  V30 16 1 16 17
M  V30 17 1 17 18
M  V30 18 1 18 19
M  V30 19 1 19 20
M  V30 20 1 20 21
M  V30 21 2 4 22
M  V30 22 1 22 23
M  V30 23 2 23 24
M  V30 24 1 23 25
M  V30 25 1 24 2
M  V30 26 1 11 6
M  V30 27 1 21 15
M  V30 28 1 1 26
M  V30 29 1 1 27
M  V30 30 1 5 28
M  V30 31 1 5 29
M  V30 32 1 7 30
M  V30 33 1 7 31
M  V30 34 1 8 32
M  V30 35 1 8 33
M  V30 36 1 10 34
M  V30 37 1 10 35
M  V30 38 1 11 36
M  V30 39 1 11 37
M  V30 40 1 16 38
M  V30 41 1 16 39
M  V30 42 1 17 40
M  V30 43 1 17 41
M  V30 44 1 18 42
M  V30 45 1 18 43
M  V30 46 1 19 44
M  V30 47 1 19 45
M  V30 48 1 20 46
M  V30 49 1 20 47
M  V30 50 1 21 48
M  V30 51 1 21 49
M  V30 52 1 25 50
M  V30 53 1 25 51
M  V30 END BOND
M  V30 END CTAB
M  END
