
     RDKit          3D

  0  0  0  0  0  0  0  0  0  0999 V3000
M  V30 BEGIN CTAB
M  V30 COUNTS 18 18 0 0 0
M  V30 BEGIN ATOM
M  V30 1 N -1.42734 -1.82058 0.275349 0
M  V30 2 C -1.08113 -0.498929 0.633245 0 CFG=1
M  V30 3 C 0.287137 -0.153115 0.186224 0
M  V30 4 N 1.28271 0.469717 0.831344 0
M  V30 5 C 2.33907 0.548956 -0.00455953 0
M  V30 6 N 1.96106 -0.0313561 -1.14831 0
M  V30 7 O 0.75326 -0.431509 -1.00176 0
M  V30 8 N 3.61392 1.12787 0.250019 0
M  V30 9 C -2.1269 0.416996 0.0140156 0
M  V30 10 O -2.11173 0.257308 -1.37077 0
M  V30 11 H -1.79806 -2.44269 0.918408 0
M  V30 12 H -0.920393 -2.16603 -0.495353 0
M  V30 13 H -1.172 -0.365065 1.74847 0
M  V30 14 H 4.4742 0.578149 0.0747731 0
M  V30 15 H 3.73124 2.0949 0.610654 0
M  V30 16 H -1.97249 1.46911 0.317601 0
M  V30 17 H -3.11034 0.0363097 0.36242 0
M  V30 18 H -2.7222 0.909951 -1.78338 0
M  V30 END ATOM
M  V30 BEGIN BOND
M  V30 1 1 1 2
M  V30 2 1 2 3
M  V30 3 2 3 4
M  V30 4 1 4 5
M  V30 5 2 5 6
M  V30 6 1 6 7
M  V30 7 1 5 8
M  V30 8 1 2 9
M  V30 9 1 9 10
M  V30 10 1 7 3
M  V30 11 1 1 11
M  V30 12 1 1 12
M  V30 13 1 2 13 CFG=1
M  V30 14 1 8 14
M  V30 15 1 8 15
M  V30 16 1 9 16
M  V30 17 1 9 17
M  V30 18 1 10 18
M  V30 END BOND
M  V30 END CTAB
M  END
