
     RDKit          3D

  0  0  0  0  0  0  0  0  0  0999 V3000
M  V30 BEGIN CTAB
M  V30 COUNTS 52 57 0 0 0
M  V30 BEGIN ATOM
M  V30 1 N -9.82022 -0.287145 0.714416 0
M  V30 2 C -8.57275 -0.955987 0.579678 0
M  V30 3 C -7.39077 -0.261434 0.425262 0
M  V30 4 C -6.18529 -0.910639 0.295129 0
M  V30 5 C -6.17892 -2.28851 0.322136 0
M  V30 6 C -7.36933 -2.98911 0.477674 0
M  V30 7 C -8.58033 -2.33401 0.608343 0
M  V30 8 C -4.94902 -0.161495 0.133156 0
M  V30 9 N -3.72566 -0.69729 -0.00133804 0
M  V30 10 C -2.80159 0.268444 -0.130623 0
M  V30 11 C -1.41159 0.270981 -0.295825 0
M  V30 12 C -0.773987 1.47307 -0.395897 0
M  V30 13 C -1.46029 2.66651 -0.338484 0
M  V30 14 C -2.84284 2.66216 -0.174123 0
M  V30 15 C -3.48739 1.46244 -0.0732826 0
M  V30 16 N -4.7911 1.17274 0.0874414 0
M  V30 17 C 0.673001 1.48469 -0.56808 0
M  V30 18 C 1.32329 2.47812 -1.27321 0
M  V30 19 C 2.69748 2.43049 -1.39952 0
M  V30 20 C 3.42971 1.40374 -0.830731 0
M  V30 21 N 4.7547 1.11489 -0.79822 0
M  V30 22 C 4.95842 -0.016011 -0.103068 0
M  V30 23 N 3.74744 -0.435861 0.301604 0
M  V30 24 C 2.7857 0.40599 -0.123575 0
M  V30 25 C 1.40562 0.458641 0.000208278 0
M  V30 26 C 6.25489 -0.662141 0.159615 0
M  V30 27 C 6.27721 -1.82424 0.895386 0
M  V30 28 C 7.47519 -2.47363 1.1713 0
M  V30 29 C 8.67245 -1.96899 0.714107 0
M  V30 30 C 8.63689 -0.801686 -0.0234593 0
M  V30 31 N 9.83249 -0.234292 -0.520318 0
M  V30 32 C 7.43251 -0.149872 -0.300179 0
M  V30 33 H -10.277 0.233821 -0.0791679 0
M  V30 34 H -10.2942 -0.324101 1.6544 0
M  V30 35 H -7.37305 0.813316 0.401501 0
M  V30 36 H -5.25982 -2.82686 0.223801 0
M  V30 37 H -7.36355 -4.07998 0.49897 0
M  V30 38 H -9.5027 -2.90575 0.729438 0
M  V30 39 H -0.91792 -0.672116 -0.335411 0
M  V30 40 H -0.885122 3.57429 -0.425192 0
M  V30 41 H -3.37779 3.61017 -0.129731 0
M  V30 42 H -5.58623 1.86095 0.167984 0
M  V30 43 H 0.728733 3.26957 -1.7082 0
M  V30 44 H 3.22682 3.18856 -1.94136 0
M  V30 45 H 5.50282 1.69659 -1.25296 0
M  V30 46 H 0.918148 -0.313266 0.546049 0
M  V30 47 H 5.36714 -2.25523 1.27302 0
M  V30 48 H 7.5033 -3.39277 1.75205 0
M  V30 49 H 9.62766 -2.47145 0.924355 0
M  V30 50 H 10.3344 -0.710401 -1.28424 0
M  V30 51 H 10.2016 0.647242 -0.124564 0
M  V30 52 H 7.41082 0.756845 -0.873761 0
M  V30 END ATOM
M  V30 BEGIN BOND
M  V30 1 1 1 2
M  V30 2 2 2 3
M  V30 3 1 3 4
M  V30 4 2 4 5
M  V30 5 1 5 6
M  V30 6 2 6 7
M  V30 7 1 4 8
M  V30 8 2 8 9
M  V30 9 1 9 10
M  V30 10 2 10 11
M  V30 11 1 11 12
M  V30 12 2 12 13
M  V30 13 1 13 14
M  V30 14 2 14 15
M  V30 15 1 15 16
M  V30 16 1 12 17
M  V30 17 2 17 18
M  V30 18 1 18 19
M  V30 19 2 19 20
M  V30 20 1 20 21
M  V30 21 1 21 22
M  V30 22 2 22 23
M  V30 23 1 23 24
M  V30 24 2 24 25
M  V30 25 1 22 26
M  V30 26 2 26 27
M  V30 27 1 27 28
M  V30 28 2 28 29
M  V30 29 1 29 30
M  V30 30 1 30 31
M  V30 31 2 30 32
M  V30 32 1 7 2
M  V30 33 1 16 8
M  V30 34 1 25 17
M  V30 35 1 32 26
M  V30 36 1 15 10
M  V30 37 1 24 20
M  V30 38 1 1 33
M  V30 39 1 1 34
M  V30 40 1 3 35
M  V30 41 1 5 36
M  V30 42 1 6 37
M  V30 43 1 7 38
M  V30 44 1 11 39
M  V30 45 1 13 40
M  V30 46 1 14 41
M  V30 47 1 16 42
M  V30 48 1 18 43
M  V30 49 1 19 44
M  V30 50 1 21 45
M  V30 51 1 25 46
M  V30 52 1 27 47
M  V30 53 1 28 48
M  V30 54 1 29 49
M  V30 55 1 31 50
M  V30 56 1 31 51
M  V30 57 1 32 52
M  V30 END BOND
M  V30 END CTAB
M  END
