
     RDKit          3D

  0  0  0  0  0  0  0  0  0  0999 V3000
M  V30 BEGIN CTAB
M  V30 COUNTS 37 39 0 0 0
M  V30 BEGIN ATOM
M  V30 1 N -6.1274 0.797727 2.83562 0
M  V30 2 C -5.51752 0.497404 1.60433 0
M  V30 3 N -4.27208 0.0108631 1.48187 0
M  V30 4 C -3.71299 -0.268348 0.278856 0
M  V30 5 C -2.32337 -0.809395 0.177557 0
M  V30 6 O -1.45053 0.28801 0.0857483 0
M  V30 7 C -0.0803147 0.157733 -0.022038 0
M  V30 8 C 0.699013 1.29209 -0.106983 0
M  V30 9 C 2.07613 1.21701 -0.216346 0
M  V30 10 C 2.73419 0.0022114 -0.245503 0
M  V30 11 C 1.94386 -1.12568 -0.159806 0
M  V30 12 C 0.569087 -1.05799 -0.0505046 0
M  V30 13 C 4.18704 -0.0704895 -0.361108 0
M  V30 14 C 4.8069 -1.16013 0.260238 0
M  V30 15 C 6.16835 -1.34114 0.223563 0
M  V30 16 C 6.93105 -0.423596 -0.442442 0
M  V30 17 C 6.32881 0.647442 -1.05398 0
M  V30 18 C 4.95808 0.833572 -1.01951 0
M  V30 19 N -4.4697 -0.0341087 -0.805622 0
M  V30 20 C -5.72291 0.452354 -0.741184 0
M  V30 21 N -6.21961 0.708358 0.477648 0
M  V30 22 N -6.50197 0.690229 -1.91865 0
M  V30 23 H -6.3424 1.77423 3.08786 0
M  V30 24 H -6.35975 0.033816 3.4881 0
M  V30 25 H -2.08795 -1.33849 1.12442 0
M  V30 26 H -2.22457 -1.49672 -0.695089 0
M  V30 27 H 0.233411 2.28477 -0.0889408 0
M  V30 28 H 2.64174 2.14012 -0.279959 0
M  V30 29 H 2.41628 -2.09898 -0.178755 0
M  V30 30 H -0.00965419 -1.98013 0.0140534 0
M  V30 31 H 4.21325 -1.88536 0.78551 0
M  V30 32 H 6.61237 -2.19549 0.715487 0
M  V30 33 H 8.02377 -0.551869 -0.482576 0
M  V30 34 H 6.96066 1.35433 -1.57198 0
M  V30 35 H 4.48593 1.67378 -1.49932 0
M  V30 36 H -6.77044 -0.160931 -2.48045 0
M  V30 37 H -6.79676 1.64189 -2.22011 0
M  V30 END ATOM
M  V30 BEGIN BOND
M  V30 1 1 1 2
M  V30 2 2 2 3
M  V30 3 1 3 4
M  V30 4 1 4 5
M  V30 5 1 5 6
M  V30 6 1 6 7
M  V30 7 2 7 8
M  V30 8 1 8 9
M  V30 9 2 9 10
M  V30 10 1 10 11
M  V30 11 2 11 12
M  V30 12 1 10 13
M  V30 13 2 13 14
M  V30 14 1 14 15
M  V30 15 2 15 16
M  V30 16 1 16 17
M  V30 17 2 17 18
M  V30 18 2 4 19
M  V30 19 1 19 20
M  V30 20 2 20 21
M  V30 21 1 20 22
M  V30 22 1 21 2
M  V30 23 1 12 7
M  V30 24 1 18 13
M  V30 25 1 1 23
M  V30 26 1 1 24
M  V30 27 1 5 25
M  V30 28 1 5 26
M  V30 29 1 8 27
M  V30 30 1 9 28
M  V30 31 1 11 29
M  V30 32 1 12 30
M  V30 33 1 14 31
M  V30 34 1 15 32
M  V30 35 1 16 33
M  V30 36 1 17 34
M  V30 37 1 18 35
M  V30 38 1 22 36
M  V30 39 1 22 37
M  V30 END BOND
M  V30 END CTAB
M  END
