
     RDKit          3D

  0  0  0  0  0  0  0  0  0  0999 V3000
M  V30 BEGIN CTAB
M  V30 COUNTS 25 25 0 0 0
M  V30 BEGIN ATOM
M  V30 1 N 3.32634 0.478005 0.137805 0
M  V30 2 C 2.06563 0.0923209 0.682545 0
M  V30 3 C 1.01009 -0.16374 -0.395178 0
M  V30 4 C -0.249614 -0.556755 0.32467 0
M  V30 5 C -0.746025 0.54256 1.28124 0
M  V30 6 C -1.54273 0.0885764 0.0675776 0
M  V30 7 C -2.80141 -0.661996 0.428793 0
M  V30 8 C -1.6216 1.01127 -1.12937 0
M  V30 9 N 1.471 -1.12359 -1.33445 0
M  V30 10 H 3.5943 0.0116429 -0.742528 0
M  V30 11 H 3.4959 1.5113 0.133589 0
M  V30 12 H 2.20517 -0.838967 1.26065 0
M  V30 13 H 1.73498 0.874167 1.38706 0
M  V30 14 H 0.831794 0.797963 -0.89181 0
M  V30 15 H -0.198878 -1.56228 0.807912 0
M  V30 16 H -0.336572 1.55079 1.17802 0
M  V30 17 H -1.07438 0.24262 2.28737 0
M  V30 18 H -2.63916 -1.73738 0.260053 0
M  V30 19 H -3.06778 -0.535517 1.51562 0
M  V30 20 H -3.66232 -0.264879 -0.142339 0
M  V30 21 H -2.67834 1.14588 -1.42265 0
M  V30 22 H -1.12782 0.482639 -1.97419 0
M  V30 23 H -1.07563 1.95335 -0.974585 0
M  V30 24 H 0.744907 -1.76602 -1.70924 0
M  V30 25 H 2.34216 -1.57197 -1.03658 0
M  V30 END ATOM
M  V30 BEGIN BOND
M  V30 1 1 1 2
M  V30 2 1 2 3
M  V30 3 1 3 4
M  V30 4 1 4 5
M  V30 5 1 5 6
M  V30 6 1 6 7
M  V30 7 1 6 8
M  V30 8 1 3 9
M  V30 9 1 6 4
M  V30 10 1 1 10
M  V30 11 1 1 11
M  V30 12 1 2 12
M  V30 13 1 2 13
M  V30 14 1 3 14
M  V30 15 1 4 15
M  V30 16 1 5 16
M  V30 17 1 5 17
M  V30 18 1 7 18
M  V30 19 1 7 19
M  V30 20 1 7 20
M  V30 21 1 8 21
M  V30 22 1 8 22
M  V30 23 1 8 23
M  V30 24 1 9 24
M  V30 25 1 9 25
M  V30 END BOND
M  V30 END CTAB
M  END
