
     RDKit          3D

  0  0  0  0  0  0  0  0  0  0999 V3000
M  V30 BEGIN CTAB
M  V30 COUNTS 41 43 0 0 0
M  V30 BEGIN ATOM
M  V30 1 N -2.3181 4.01586 0.291673 0
M  V30 2 C -2.27838 2.61368 0.067473 0
M  V30 3 C -1.07636 1.95666 0.745672 0
M  V30 4 N -1.07701 0.574905 0.440988 0
M  V30 5 C -2.13656 -0.0687733 1.15097 0
M  V30 6 C -2.19844 -1.55939 1.09246 0
M  V30 7 C -1.2929 -2.13807 0.0722489 0
M  V30 8 C -0.146876 -1.47602 -0.291656 0
M  V30 9 C 0.104189 -0.156627 0.400308 0 CFG=1
M  V30 10 C 1.33144 0.457512 -0.104136 0
M  V30 11 C 1.43745 1.44945 -1.05339 0
M  V30 12 C 2.65396 1.94905 -1.48865 0
M  V30 13 C 3.83433 1.46061 -0.975326 0
M  V30 14 C 3.76171 0.469481 -0.0248826 0
M  V30 15 C 2.53769 -0.0173697 0.398722 0
M  V30 16 N 2.58056 -1.05147 1.38348 0
M  V30 17 C 0.669993 -2.02675 -1.23108 0
M  V30 18 C 0.332323 -3.23465 -1.79869 0
M  V30 19 C -0.8205 -3.91655 -1.44145 0
M  V30 20 C -1.62578 -3.32923 -0.484827 0
M  V30 21 H -2.10381 4.54369 -0.513292 0
M  V30 22 H -2.1309 4.37654 1.16511 0
M  V30 23 H -3.19318 2.20226 0.536133 0
M  V30 24 H -2.29363 2.37021 -1.01377 0
M  V30 25 H -1.34255 2.10481 1.86544 0
M  V30 26 H -0.155814 2.52488 0.6614 0
M  V30 27 H -2.00491 0.261692 2.23558 0
M  V30 28 H -3.11476 0.358604 0.835461 0
M  V30 29 H -1.89889 -1.98084 2.06933 0
M  V30 30 H -3.25278 -1.87866 0.916372 0
M  V30 31 H 0.333089 -0.481995 1.46209 0
M  V30 32 H 0.528173 1.84715 -1.47547 0
M  V30 33 H 2.6909 2.74646 -2.24953 0
M  V30 34 H 4.80403 1.83069 -1.2997 0
M  V30 35 H 4.6867 0.0571537 0.401635 0
M  V30 36 H 3.01812 -1.95306 1.08054 0
M  V30 37 H 2.21772 -0.963966 2.34843 0
M  V30 38 H 1.55316 -1.52942 -1.52334 0
M  V30 39 H 1.00262 -3.63644 -2.53059 0
M  V30 40 H -1.08884 -4.87749 -1.8914 0
M  V30 41 H -2.52721 -3.89457 -0.230324 0
M  V30 END ATOM
M  V30 BEGIN BOND
M  V30 1 1 1 2
M  V30 2 1 2 3
M  V30 3 1 3 4
M  V30 4 1 4 5
M  V30 5 1 5 6
M  V30 6 1 6 7
M  V30 7 2 7 8
M  V30 8 1 8 9
M  V30 9 1 9 10
M  V30 10 2 10 11
M  V30 11 1 11 12
M  V30 12 2 12 13
M  V30 13 1 13 14
M  V30 14 2 14 15
M  V30 15 1 15 16
M  V30 16 1 8 17
M  V30 17 2 17 18
M  V30 18 1 18 19
M  V30 19 2 19 20
M  V30 20 1 9 4
M  V30 21 1 15 10
M  V30 22 1 20 7
M  V30 23 1 1 21
M  V30 24 1 1 22
M  V30 25 1 2 23
M  V30 26 1 2 24
M  V30 27 1 3 25
M  V30 28 1 3 26
M  V30 29 1 5 27
M  V30 30 1 5 28
M  V30 31 1 6 29
M  V30 32 1 6 30
M  V30 33 1 9 31 CFG=1
M  V30 34 1 11 32
M  V30 35 1 12 33
M  V30 36 1 13 34
M  V30 37 1 14 35
M  V30 38 1 16 36
M  V30 39 1 16 37
M  V30 40 1 17 38
M  V30 41 1 18 39
M  V30 42 1 19 40
M  V30 43 1 20 41
M  V30 END BOND
M  V30 END CTAB
M  END
