
     RDKit          3D

  0  0  0  0  0  0  0  0  0  0999 V3000
M  V30 BEGIN CTAB
M  V30 COUNTS 20 20 0 0 0
M  V30 BEGIN ATOM
M  V30 1 N -1.11597 -1.28755 -1.91276 0
M  V30 2 C -0.162883 -0.674967 -1.03539 0
M  V30 3 C 1.10054 -0.325089 -1.47211 0
M  V30 4 C 2.01403 0.269003 -0.607096 0
M  V30 5 Br 3.7626 0.751023 -1.21922 0
M  V30 6 C 1.69509 0.528869 0.708419 0
M  V30 7 C 0.434039 0.179645 1.14431 0
M  V30 8 C -0.48578 -0.416455 0.280587 0
M  V30 9 O -1.74751 -0.762646 0.727821 0
M  V30 10 C -2.86747 0.0929029 0.679621 0
M  V30 11 F -3.19445 0.494074 -0.583901 0
M  V30 12 F -3.95014 -0.666178 1.14732 0
M  V30 13 F -2.70659 1.15909 1.53901 0
M  V30 14 N 2.6458 1.13549 1.5683 0
M  V30 15 H -1.39953 -2.28589 -1.75463 0
M  V30 16 H -1.54697 -0.795878 -2.70428 0
M  V30 17 H 1.34435 -0.529328 -2.49711 0
M  V30 18 H 0.15703 0.36618 2.15126 0
M  V30 19 H 3.67675 1.03468 1.44718 0
M  V30 20 H 2.34705 1.73303 2.39267 0
M  V30 END ATOM
M  V30 BEGIN BOND
M  V30 1 1 1 2
M  V30 2 2 2 3
M  V30 3 1 3 4
M  V30 4 1 4 5
M  V30 5 2 4 6
M  V30 6 1 6 7
M  V30 7 2 7 8
M  V30 8 1 8 9
M  V30 9 1 9 10
M  V30 10 1 10 11
M  V30 11 1 10 12
M  V30 12 1 10 13
M  V30 13 1 6 14
M  V30 14 1 8 2
M  V30 15 1 1 15
M  V30 16 1 1 16
M  V30 17 1 3 17
M  V30 18 1 7 18
M  V30 19 1 14 19
M  V30 20 1 14 20
M  V30 END BOND
M  V30 END CTAB
M  END
