
     RDKit          3D

  0  0  0  0  0  0  0  0  0  0999 V3000
M  V30 BEGIN CTAB
M  V30 COUNTS 22 22 0 0 0
M  V30 BEGIN ATOM
M  V30 1 N -3.27712 -0.536157 0.855003 0
M  V30 2 C -2.65888 0.510518 0.0738348 0
M  V30 3 C -1.29237 0.035243 -0.333232 0
M  V30 4 C -1.14194 -0.653931 -1.51971 0
M  V30 5 C 0.129299 -1.07151 -1.85429 0
M  V30 6 C 1.23773 -0.83346 -1.06658 0
M  V30 7 C 1.06972 -0.136087 0.128857 0
M  V30 8 C -0.201115 0.28285 0.466014 0
M  V30 9 S 2.41898 0.207333 1.18412 0
M  V30 10 O 1.92185 0.988799 2.36201 0
M  V30 11 O 2.96768 -1.10535 1.6805 0
M  V30 12 N 3.61468 1.15068 0.395221 0
M  V30 13 F 2.47769 -1.25267 -1.4143 0
M  V30 14 H -2.63927 -0.763603 1.63895 0
M  V30 15 H -4.21685 -0.261042 1.1878 0
M  V30 16 H -2.52015 1.44161 0.677292 0
M  V30 17 H -3.20562 0.700665 -0.871132 0
M  V30 18 H -2.01446 -0.849537 -2.15449 0
M  V30 19 H 0.276773 -1.61455 -2.77977 0
M  V30 20 H -0.323364 0.826147 1.40015 0
M  V30 21 H 3.44045 2.15779 0.444078 0
M  V30 22 H 3.93629 0.77627 -0.500327 0
M  V30 END ATOM
M  V30 BEGIN BOND
M  V30 1 1 1 2
M  V30 2 1 2 3
M  V30 3 2 3 4
M  V30 4 1 4 5
M  V30 5 2 5 6
M  V30 6 1 6 7
M  V30 7 2 7 8
M  V30 8 1 7 9
M  V30 9 2 9 10
M  V30 10 2 9 11
M  V30 11 1 9 12
M  V30 12 1 6 13
M  V30 13 1 8 3
M  V30 14 1 1 14
M  V30 15 1 1 15
M  V30 16 1 2 16
M  V30 17 1 2 17
M  V30 18 1 4 18
M  V30 19 1 5 19
M  V30 20 1 8 20
M  V30 21 1 12 21
M  V30 22 1 12 22
M  V30 END BOND
M  V30 END CTAB
M  END
