
     RDKit          3D

  0  0  0  0  0  0  0  0  0  0999 V3000
M  V30 BEGIN CTAB
M  V30 COUNTS 19 18 0 0 0
M  V30 BEGIN ATOM
M  V30 1 C -0.836616 1.59571 -0.176973 0
M  V30 2 C -0.0235731 0.470511 -0.751079 0
M  V30 3 C -0.865302 -0.727374 -1.10938 0
M  V30 4 N -1.56337 -1.27716 0.023667 0
M  V30 5 C 0.991601 0.0477798 0.249916 0
M  V30 6 N 0.642104 -0.436186 1.52948 0
M  V30 7 N 2.22594 0.141275 -0.100466 0
M  V30 8 O 3.18302 -0.240755 0.800654 0
M  V30 9 H -1.92071 1.40179 -0.16409 0
M  V30 10 H -0.504574 1.84215 0.866611 0
M  V30 11 H -0.688996 2.55489 -0.745445 0
M  V30 12 H 0.444565 0.84514 -1.68313 0
M  V30 13 H -1.62626 -0.47237 -1.87697 0
M  V30 14 H -0.225495 -1.51296 -1.54896 0
M  V30 15 H -2.11165 -0.546671 0.535756 0
M  V30 16 H -2.28854 -1.94819 -0.366557 0
M  V30 17 H -0.250655 -0.238134 2.01962 0
M  V30 18 H 1.31842 -1.04902 2.05465 0
M  V30 19 H 4.10009 -0.450425 0.442698 0
M  V30 END ATOM
M  V30 BEGIN BOND
M  V30 1 1 1 2
M  V30 2 1 2 3
M  V30 3 1 3 4
M  V30 4 1 2 5
M  V30 5 1 5 6
M  V30 6 2 5 7 CFG=2
M  V30 7 1 7 8
M  V30 8 1 1 9
M  V30 9 1 1 10
M  V30 10 1 1 11
M  V30 11 1 2 12
M  V30 12 1 3 13
M  V30 13 1 3 14
M  V30 14 1 4 15
M  V30 15 1 4 16
M  V30 16 1 6 17
M  V30 17 1 6 18
M  V30 18 1 8 19
M  V30 END BOND
M  V30 END CTAB
M  END
