
     RDKit          3D

  0  0  0  0  0  0  0  0  0  0999 V3000
M  V30 BEGIN CTAB
M  V30 COUNTS 38 38 0 0 0
M  V30 BEGIN ATOM
M  V30 1 N 2.44826 -1.09354 -1.41906 0
M  V30 2 C 2.69649 -0.0423786 -0.469925 0
M  V30 3 C 3.94995 -0.296116 0.341565 0
M  V30 4 C 5.23863 -0.417988 -0.390822 0
M  V30 5 C 4.98839 0.814983 0.432427 0
M  V30 6 C 1.55931 0.117336 0.515877 0
M  V30 7 N 0.30659 0.440611 -0.170392 0
M  V30 8 C -0.846174 0.620487 0.612032 0
M  V30 9 O -0.746846 0.495339 1.86304 0
M  V30 10 C -2.11929 0.946375 -0.0537802 0 CFG=2
M  V30 11 C -3.19336 -0.086313 0.199838 0
M  V30 12 C -4.43319 0.378049 -0.540189 0
M  V30 13 C -2.79102 -1.41844 -0.371222 0
M  V30 14 C -3.56095 -0.188449 1.66244 0
M  V30 15 N -1.91029 1.02006 -1.47449 0
M  V30 16 H 3.24513 -1.71996 -1.58634 0
M  V30 17 H 1.97994 -0.740128 -2.27036 0
M  V30 18 H 2.85448 0.895217 -1.04024 0
M  V30 19 H 3.84588 -0.867781 1.29798 0
M  V30 20 H 5.17104 -0.370989 -1.49971 0
M  V30 21 H 5.96009 -1.16062 0.021827 0
M  V30 22 H 4.76929 1.7797 -0.0689144 0
M  V30 23 H 5.57385 0.919758 1.37053 0
M  V30 24 H 1.83083 0.905101 1.2295 0
M  V30 25 H 1.36237 -0.823389 1.06557 0
M  V30 26 H 0.327639 0.522718 -1.21123 0
M  V30 27 H -2.52007 1.90505 0.354284 0
M  V30 28 H -5.30211 -0.235432 -0.187289 0
M  V30 29 H -4.64526 1.44011 -0.24955 0
M  V30 30 H -4.27326 0.280695 -1.62689 0
M  V30 31 H -3.29036 -2.27638 0.0939609 0
M  V30 32 H -1.68077 -1.5406 -0.393057 0
M  V30 33 H -3.09298 -1.42198 -1.45696 0
M  V30 34 H -3.48136 0.796557 2.16741 0
M  V30 35 H -2.88818 -0.873128 2.21604 0
M  V30 36 H -4.59347 -0.561497 1.78555 0
M  V30 37 H -1.54304 0.109883 -1.8075 0
M  V30 38 H -1.19617 1.7471 -1.66402 0
M  V30 END ATOM
M  V30 BEGIN BOND
M  V30 1 1 1 2
M  V30 2 1 2 3
M  V30 3 1 3 4
M  V30 4 1 4 5
M  V30 5 1 2 6
M  V30 6 1 6 7
M  V30 7 1 7 8
M  V30 8 2 8 9
M  V30 9 1 8 10
M  V30 10 1 10 11
M  V30 11 1 11 12
M  V30 12 1 11 13
M  V30 13 1 11 14
M  V30 14 1 10 15
M  V30 15 1 5 3
M  V30 16 1 1 16
M  V30 17 1 1 17
M  V30 18 1 2 18
M  V30 19 1 3 19
M  V30 20 1 4 20
M  V30 21 1 4 21
M  V30 22 1 5 22
M  V30 23 1 5 23
M  V30 24 1 6 24
M  V30 25 1 6 25
M  V30 26 1 7 26
M  V30 27 1 10 27 CFG=1
M  V30 28 1 12 28
M  V30 29 1 12 29
M  V30 30 1 12 30
M  V30 31 1 13 31
M  V30 32 1 13 32
M  V30 33 1 13 33
M  V30 34 1 14 34
M  V30 35 1 14 35
M  V30 36 1 14 36
M  V30 37 1 15 37
M  V30 38 1 15 38
M  V30 END BOND
M  V30 END CTAB
M  END
