
     RDKit          3D

  0  0  0  0  0  0  0  0  0  0999 V3000
M  V30 BEGIN CTAB
M  V30 COUNTS 22 22 0 0 0
M  V30 BEGIN ATOM
M  V30 1 C 1.62605 -1.34174 0.906985 0
M  V30 2 C 1.50779 -0.672122 -0.418109 0
M  V30 3 C 1.8626 0.773175 -0.540074 0
M  V30 4 C 0.47405 0.282752 -0.795702 0
M  V30 5 C -0.575268 0.829503 0.139221 0
M  V30 6 C -1.46967 -0.239197 0.717887 0
M  V30 7 N -2.12112 -0.890553 -0.408763 0
M  V30 8 N -1.413 1.73019 -0.644738 0
M  V30 9 H 1.34706 -0.693358 1.75956 0
M  V30 10 H 0.958848 -2.22687 0.939552 0
M  V30 11 H 2.66681 -1.73787 1.02292 0
M  V30 12 H 1.93634 -1.29009 -1.26319 0
M  V30 13 H 2.39786 1.15582 -1.43809 0
M  V30 14 H 2.10363 1.34516 0.370766 0
M  V30 15 H 0.111332 0.258213 -1.86158 0
M  V30 16 H -0.112943 1.43538 0.958362 0
M  V30 17 H -2.23428 0.318608 1.33626 0
M  V30 18 H -0.979685 -0.941499 1.39151 0
M  V30 19 H -1.77013 -1.83253 -0.603468 0
M  V30 20 H -3.13641 -0.759029 -0.433077 0
M  V30 21 H -0.871083 2.54859 -0.960896 0
M  V30 22 H -2.30879 1.94746 -0.17535 0
M  V30 END ATOM
M  V30 BEGIN BOND
M  V30 1 1 1 2
M  V30 2 1 2 3
M  V30 3 1 3 4
M  V30 4 1 4 5
M  V30 5 1 5 6
M  V30 6 1 6 7
M  V30 7 1 5 8
M  V30 8 1 4 2
M  V30 9 1 1 9
M  V30 10 1 1 10
M  V30 11 1 1 11
M  V30 12 1 2 12
M  V30 13 1 3 13
M  V30 14 1 3 14
M  V30 15 1 4 15
M  V30 16 1 5 16
M  V30 17 1 6 17
M  V30 18 1 6 18
M  V30 19 1 7 19
M  V30 20 1 7 20
M  V30 21 1 8 21
M  V30 22 1 8 22
M  V30 END BOND
M  V30 END CTAB
M  END
