
     RDKit          3D

  0  0  0  0  0  0  0  0  0  0999 V3000
M  V30 BEGIN CTAB
M  V30 COUNTS 47 48 0 0 0
M  V30 BEGIN ATOM
M  V30 1 N 3.15477 1.2908 -3.09629 0
M  V30 2 C 2.96453 0.287815 -2.03813 0 CFG=1
M  V30 3 C 3.87483 0.638258 -0.925235 0
M  V30 4 O 4.08987 2.03048 -0.853442 0
M  V30 5 O 3.48042 0.145698 0.309126 0
M  V30 6 C 2.22301 0.765517 0.554567 0 CFG=2
M  V30 7 C 2.02498 0.839922 2.00695 0
M  V30 8 O 0.881036 1.49749 2.42423 0
M  V30 9 C 1.24431 -0.0141519 -0.238745 0 CFG=1
M  V30 10 O -0.0326974 0.216827 0.096077 0
M  V30 11 C -0.825923 -0.91814 0.276306 0 CFG=2
M  V30 12 O -1.69208 -0.886131 -0.7965 0
M  V30 13 C -2.90726 -0.339903 -0.68104 0 CFG=2
M  V30 14 C -2.78792 1.16136 -0.775886 0
M  V30 15 O -2.23661 1.56637 -1.9875 0
M  V30 16 C -3.63859 -0.648531 0.597371 0 CFG=1
M  V30 17 O -4.88194 -1.20492 0.330715 0
M  V30 18 C -2.83299 -1.61353 1.44994 0 CFG=2
M  V30 19 O -3.46886 -1.80885 2.65797 0
M  V30 20 C -1.4796 -0.949393 1.60235 0 CFG=1
M  V30 21 N -0.708078 -1.66813 2.60891 0
M  V30 22 C 1.50929 0.229539 -1.74531 0 CFG=2
M  V30 23 O 0.967252 -0.825551 -2.46148 0
M  V30 24 H 4.19365 1.27352 -3.29027 0
M  V30 25 H 2.65555 1.00765 -3.96633 0
M  V30 26 H 3.35241 -0.668678 -2.50085 0
M  V30 27 H 4.89747 0.206212 -1.11297 0
M  V30 28 H 4.81422 2.15768 -0.206183 0
M  V30 29 H 2.28449 1.81242 0.108871 0
M  V30 30 H 2.88935 1.37437 2.50576 0
M  V30 31 H 2.0603 -0.196006 2.42729 0
M  V30 32 H 0.98637 2.47157 2.43711 0
M  V30 33 H 1.50035 -1.11358 -0.163759 0
M  V30 34 H -0.2326 -1.85359 0.14431 0
M  V30 35 H -3.55678 -0.651296 -1.53737 0
M  V30 36 H -3.77814 1.62891 -0.591496 0
M  V30 37 H -2.12291 1.49372 0.0442229 0
M  V30 38 H -2.721 2.37642 -2.26232 0
M  V30 39 H -3.79914 0.256386 1.20775 0
M  V30 40 H -4.87886 -1.82867 -0.424435 0
M  V30 41 H -2.69973 -2.5427 0.872447 0
M  V30 42 H -3.37164 -2.7463 2.99874 0
M  V30 43 H -1.66144 0.11161 1.93817 0
M  V30 44 H -1.12269 -2.62176 2.70978 0
M  V30 45 H -0.861105 -1.17584 3.51299 0
M  V30 46 H 0.958096 1.14509 -1.99931 0
M  V30 47 H 1.29206 -1.70999 -2.16711 0
M  V30 END ATOM
M  V30 BEGIN BOND
M  V30 1 1 1 2
M  V30 2 1 2 3
M  V30 3 1 3 4
M  V30 4 1 3 5
M  V30 5 1 5 6
M  V30 6 1 6 7
M  V30 7 1 7 8
M  V30 8 1 6 9
M  V30 9 1 9 10
M  V30 10 1 10 11
M  V30 11 1 11 12
M  V30 12 1 12 13
M  V30 13 1 13 14
M  V30 14 1 14 15
M  V30 15 1 13 16
M  V30 16 1 16 17
M  V30 17 1 16 18
M  V30 18 1 18 19
M  V30 19 1 18 20
M  V30 20 1 20 21
M  V30 21 1 9 22
M  V30 22 1 22 23
M  V30 23 1 22 2
M  V30 24 1 20 11
M  V30 25 1 1 24
M  V30 26 1 1 25
M  V30 27 1 2 26 CFG=3
M  V30 28 1 3 27
M  V30 29 1 4 28
M  V30 30 1 6 29 CFG=3
M  V30 31 1 7 30
M  V30 32 1 7 31
M  V30 33 1 8 32
M  V30 34 1 9 33 CFG=3
M  V30 35 1 11 34 CFG=3
M  V30 36 1 13 35 CFG=3
M  V30 37 1 14 36
M  V30 38 1 14 37
M  V30 39 1 15 38
M  V30 40 1 16 39 CFG=1
M  V30 41 1 17 40
M  V30 42 1 18 41 CFG=3
M  V30 43 1 19 42
M  V30 44 1 20 43 CFG=1
M  V30 45 1 21 44
M  V30 46 1 21 45
M  V30 47 1 22 46 CFG=3
M  V30 48 1 23 47
M  V30 END BOND
M  V30 END CTAB
M  END
