
     RDKit          3D

  0  0  0  0  0  0  0  0  0  0999 V3000
M  V30 BEGIN CTAB
M  V30 COUNTS 44 45 0 0 0
M  V30 BEGIN ATOM
M  V30 1 C -5.61249 -1.20854 1.33325 0
M  V30 2 C -4.92941 0.0658094 0.906361 0
M  V30 3 C -4.00582 0.522769 2.05132 0
M  V30 4 C -3.34316 1.78381 1.59922 0
M  V30 5 O -2.59572 1.6087 0.469339 0
M  V30 6 C -1.48165 0.868686 0.219589 0
M  V30 7 C -0.979673 0.882568 -1.09593 0
M  V30 8 O -1.64649 1.64834 -2.05139 0
M  V30 9 C -1.19955 1.70789 -3.3871 0
M  V30 10 C 0.135376 0.145998 -1.3738 0
M  V30 11 C 0.798802 -0.611093 -0.439474 0
M  V30 12 C 1.99656 -1.36158 -0.828612 0
M  V30 13 C 3.25232 -0.696412 -0.389896 0
M  V30 14 C 3.30933 0.52618 0.225868 0
M  V30 15 N 4.52868 1.02458 0.565138 0
M  V30 16 C 5.6715 0.385374 0.329979 0
M  V30 17 N 6.9506 0.907869 0.683034 0
M  V30 18 N 5.63575 -0.812752 -0.271567 0
M  V30 19 C 4.43792 -1.34378 -0.62549 0
M  V30 20 N 4.46131 -2.63557 -1.2611 0
M  V30 21 C 0.323072 -0.634405 0.843031 0
M  V30 22 Br 1.17962 -1.66361 2.22056 0
M  V30 23 C -0.803029 0.104495 1.14182 0
M  V30 24 H -6.71749 -1.14595 1.32511 0
M  V30 25 H -5.23974 -1.60642 2.28536 0
M  V30 26 H -5.35727 -1.97531 0.557713 0
M  V30 27 H -5.6674 0.862788 0.769713 0
M  V30 28 H -4.33825 -0.0604588 -0.0259599 0
M  V30 29 H -4.72211 0.819843 2.86775 0
M  V30 30 H -3.37929 -0.314741 2.32411 0
M  V30 31 H -2.76992 2.189 2.47338 0
M  V30 32 H -4.17575 2.53427 1.46906 0
M  V30 33 H -0.922043 0.698659 -3.79516 0
M  V30 34 H -0.35126 2.42803 -3.4142 0
M  V30 35 H -1.98789 2.14038 -4.04026 0
M  V30 36 H 0.481225 0.19526 -2.41754 0
M  V30 37 H 1.90222 -2.39756 -0.452089 0
M  V30 38 H 2.09243 -1.44453 -1.94832 0
M  V30 39 H 2.39592 1.03975 0.414854 0
M  V30 40 H 7.07017 1.91911 0.947499 0
M  V30 41 H 7.81021 0.318848 0.693973 0
M  V30 42 H 4.54612 -2.60501 -2.31417 0
M  V30 43 H 4.4013 -3.5286 -0.75733 0
M  V30 44 H -1.15503 0.0898383 2.17237 0
M  V30 END ATOM
M  V30 BEGIN BOND
M  V30 1 1 1 2
M  V30 2 1 2 3
M  V30 3 1 3 4
M  V30 4 1 4 5
M  V30 5 1 5 6
M  V30 6 2 6 7
M  V30 7 1 7 8
M  V30 8 1 8 9
M  V30 9 1 7 10
M  V30 10 2 10 11
M  V30 11 1 11 12
M  V30 12 1 12 13
M  V30 13 2 13 14
M  V30 14 1 14 15
M  V30 15 2 15 16
M  V30 16 1 16 17
M  V30 17 1 16 18
M  V30 18 2 18 19
M  V30 19 1 19 20
M  V30 20 1 11 21
M  V30 21 1 21 22
M  V30 22 2 21 23
M  V30 23 1 23 6
M  V30 24 1 19 13
M  V30 25 1 1 24
M  V30 26 1 1 25
M  V30 27 1 1 26
M  V30 28 1 2 27
M  V30 29 1 2 28
M  V30 30 1 3 29
M  V30 31 1 3 30
M  V30 32 1 4 31
M  V30 33 1 4 32
M  V30 34 1 9 33
M  V30 35 1 9 34
M  V30 36 1 9 35
M  V30 37 1 10 36
M  V30 38 1 12 37
M  V30 39 1 12 38
M  V30 40 1 14 39
M  V30 41 1 17 40
M  V30 42 1 17 41
M  V30 43 1 20 42
M  V30 44 1 20 43
M  V30 45 1 23 44
M  V30 END BOND
M  V30 END CTAB
M  END
