
     RDKit          3D

  0  0  0  0  0  0  0  0  0  0999 V3000
M  V30 BEGIN CTAB
M  V30 COUNTS 15 15 0 0 0
M  V30 BEGIN ATOM
M  V30 1 N 2.61716 -0.482657 -0.101163 0
M  V30 2 C 1.51006 0.29979 -0.513029 0
M  V30 3 S 1.62975 1.76093 -1.18011 0
M  V30 4 N 0.210638 -0.281579 -0.306016 0
M  V30 5 N -0.183668 -1.50835 -0.54803 0
M  V30 6 C -1.48277 -1.67984 -0.22214 0
M  V30 7 C -1.9038 -0.457953 0.254228 0
M  V30 8 C -0.828562 0.404692 0.193659 0
M  V30 9 N -0.868155 1.78213 0.604883 0
M  V30 10 H 2.96674 -0.528546 0.875746 0
M  V30 11 H 3.11355 -1.04734 -0.81667 0
M  V30 12 H -2.0421 -2.60542 -0.329038 0
M  V30 13 H -2.91683 -0.24086 0.610152 0
M  V30 14 H -0.148055 2.20165 1.21079 0
M  V30 15 H -1.67394 2.38335 0.266738 0
M  V30 END ATOM
M  V30 BEGIN BOND
M  V30 1 1 1 2
M  V30 2 2 2 3
M  V30 3 1 2 4
M  V30 4 1 4 5
M  V30 5 2 5 6
M  V30 6 1 6 7
M  V30 7 2 7 8
M  V30 8 1 8 9
M  V30 9 1 8 4
M  V30 10 1 1 10
M  V30 11 1 1 11
M  V30 12 1 6 12
M  V30 13 1 7 13
M  V30 14 1 9 14
M  V30 15 1 9 15
M  V30 END BOND
M  V30 END CTAB
M  END
