
     RDKit          3D

  0  0  0  0  0  0  0  0  0  0999 V3000
M  V30 BEGIN CTAB
M  V30 COUNTS 30 32 0 0 0
M  V30 BEGIN ATOM
M  V30 1 N -4.87539 -1.48482 0.571476 0
M  V30 2 C -3.65789 -0.813206 0.271919 0
M  V30 3 C -2.43251 -1.36299 0.609379 0
M  V30 4 C -1.23297 -0.728964 0.328666 0
M  V30 5 C -1.29572 0.497329 -0.313186 0
M  V30 6 C 0.0240077 0.888275 -0.462185 0
M  V30 7 C 0.864641 -0.064843 0.0695626 0
M  V30 8 N 0.0647493 -1.03423 0.541678 0
M  V30 9 C 2.33645 -0.0108796 0.102543 0
M  V30 10 C 3.05325 -1.04416 0.670931 0
M  V30 11 C 4.41682 -1.06845 0.740229 0
M  V30 12 C 5.13305 0.0050081 0.210423 0
M  V30 13 C 4.42406 1.04239 -0.359778 0
M  V30 14 C 3.03305 1.04948 -0.421255 0
M  V30 15 C -2.51864 1.03913 -0.646388 0
M  V30 16 N -2.57227 2.29637 -1.30399 0
M  V30 17 C -3.71344 0.412129 -0.369137 0
M  V30 18 H -5.75468 -1.2165 0.0806798 0
M  V30 19 H -4.90395 -2.24763 1.27972 0
M  V30 20 H -2.41879 -2.32944 1.11374 0
M  V30 21 H 0.335031 1.81513 -0.932426 0
M  V30 22 H 0.41154 -1.89533 1.00496 0
M  V30 23 H 2.49058 -1.8729 1.07957 0
M  V30 24 H 4.92507 -1.91483 1.20252 0
M  V30 25 H 6.21283 -0.0150833 0.265742 0
M  V30 26 H 4.99954 1.87438 -0.76955 0
M  V30 27 H 2.51448 1.86984 -0.870414 0
M  V30 28 H -2.88816 2.34282 -2.30221 0
M  V30 29 H -2.29329 3.16314 -0.777093 0
M  V30 30 H -4.68146 0.808827 -0.616114 0
M  V30 END ATOM
M  V30 BEGIN BOND
M  V30 1 1 1 2
M  V30 2 2 2 3
M  V30 3 1 3 4
M  V30 4 2 4 5
M  V30 5 1 5 6
M  V30 6 2 6 7
M  V30 7 1 7 8
M  V30 8 1 7 9
M  V30 9 2 9 10
M  V30 10 1 10 11
M  V30 11 2 11 12
M  V30 12 1 12 13
M  V30 13 2 13 14
M  V30 14 1 5 15
M  V30 15 1 15 16
M  V30 16 2 15 17
M  V30 17 1 17 2
M  V30 18 1 8 4
M  V30 19 1 14 9
M  V30 20 1 1 18
M  V30 21 1 1 19
M  V30 22 1 3 20
M  V30 23 1 6 21
M  V30 24 1 8 22
M  V30 25 1 10 23
M  V30 26 1 11 24
M  V30 27 1 12 25
M  V30 28 1 13 26
M  V30 29 1 14 27
M  V30 30 1 16 28
M  V30 31 1 16 29
M  V30 32 1 17 30
M  V30 END BOND
M  V30 END CTAB
M  END
