
     RDKit          3D

  0  0  0  0  0  0  0  0  0  0999 V3000
M  V30 BEGIN CTAB
M  V30 COUNTS 26 27 0 0 0
M  V30 BEGIN ATOM
M  V30 1 C 0.632987 0.108638 0.701797 0 CFG=2
M  V30 2 C 0.87657 -1.24321 0.0170179 0 CFG=1
M  V30 3 C -0.405941 -1.53311 -0.751132 0
M  V30 4 C -1.42314 -0.808411 0.134571 0 CFG=2
M  V30 5 N -2.72175 -0.759964 -0.434152 0
M  V30 6 C -0.747888 0.541145 0.253105 0 CFG=2
M  V30 7 N -0.609104 1.1902 -1.02493 0
M  V30 8 C -1.4014 1.41612 1.25332 0
M  V30 9 O -1.64969 1.02874 2.55217 0
M  V30 10 O -1.73801 2.56751 0.873989 0
M  V30 11 C 1.6884 -0.0579421 -0.300627 0 CFG=2
M  V30 12 C 3.10338 -0.104193 0.173829 0
M  V30 13 O 4.14654 0.437789 -0.529815 0
M  V30 14 O 3.3286 -0.670745 1.27189 0
M  V30 15 H 0.853697 0.172358 1.75632 0
M  V30 16 H 1.23911 -2.07464 0.637348 0
M  V30 17 H -0.344643 -1.0053 -1.70824 0
M  V30 18 H -0.611641 -2.60405 -0.828428 0
M  V30 19 H -1.37428 -1.30465 1.12602 0
M  V30 20 H -2.97407 0.0938338 -0.939986 0
M  V30 21 H -3.42167 -0.962693 0.340549 0
M  V30 22 H -0.133832 2.10226 -0.862156 0
M  V30 23 H -1.49641 1.37925 -1.50996 0
M  V30 24 H -1.441 1.6464 3.33847 0
M  V30 25 H 1.57057 0.454434 -1.27006 0
M  V30 26 H 5.05459 -0.00975234 -0.462772 0
M  V30 END ATOM
M  V30 BEGIN BOND
M  V30 1 1 1 2
M  V30 2 1 2 3
M  V30 3 1 3 4
M  V30 4 1 4 5
M  V30 5 1 4 6
M  V30 6 1 6 7
M  V30 7 1 6 8 CFG=1
M  V30 8 1 8 9
M  V30 9 2 8 10
M  V30 10 1 2 11
M  V30 11 1 11 12
M  V30 12 1 12 13
M  V30 13 2 12 14
M  V30 14 1 6 1
M  V30 15 1 11 1
M  V30 16 1 1 15 CFG=1
M  V30 17 1 2 16 CFG=1
M  V30 18 1 3 17
M  V30 19 1 3 18
M  V30 20 1 4 19 CFG=1
M  V30 21 1 5 20
M  V30 22 1 5 21
M  V30 23 1 7 22
M  V30 24 1 7 23
M  V30 25 1 9 24
M  V30 26 1 11 25 CFG=3
M  V30 27 1 13 26
M  V30 END BOND
M  V30 END CTAB
M  END
