
     RDKit          3D

  0  0  0  0  0  0  0  0  0  0999 V3000
M  V30 BEGIN CTAB
M  V30 COUNTS 31 30 0 0 0
M  V30 BEGIN ATOM
M  V30 1 C -4.93076 0.456273 0.46867 0
M  V30 2 C -4.04233 -0.759386 0.574983 0
M  V30 3 O -2.71374 -0.352462 0.665049 0
M  V30 4 C -2.03258 0.390452 -0.285379 0
M  V30 5 O -2.66161 0.724643 -1.31104 0
M  V30 6 C -0.633614 0.787283 -0.131179 0
M  V30 7 C 0.297617 -0.400985 0.0599325 0
M  V30 8 C 1.70267 0.141949 0.205982 0
M  V30 9 C 2.70667 -0.969288 0.401667 0
M  V30 10 C 4.1045 -0.481853 0.550033 0
M  V30 11 N 4.63117 0.152642 -0.633447 0
M  V30 12 O 2.58076 -1.90741 -0.611567 0
M  V30 13 N -0.191479 1.55051 -1.27234 0
M  V30 14 H -5.65077 0.508679 1.32579 0
M  V30 15 H -4.29712 1.35961 0.418406 0
M  V30 16 H -5.56086 0.394338 -0.457889 0
M  V30 17 H -4.22476 -1.44071 -0.287713 0
M  V30 18 H -4.3009 -1.28705 1.51632 0
M  V30 19 H -0.491815 1.44689 0.764349 0
M  V30 20 H 0.204318 -1.11199 -0.785521 0
M  V30 21 H 0.060201 -0.898735 1.04444 0
M  V30 22 H 1.95723 0.633359 -0.758987 0
M  V30 23 H 1.68272 0.847561 1.05594 0
M  V30 24 H 2.42618 -1.48452 1.34735 0
M  V30 25 H 4.74891 -1.37509 0.742448 0
M  V30 26 H 4.20876 0.157203 1.44638 0
M  V30 27 H 5.48095 0.699014 -0.330658 0
M  V30 28 H 3.97077 0.802822 -1.08573 0
M  V30 29 H 1.7582 -2.44384 -0.408954 0
M  V30 30 H -0.654699 1.28878 -2.1603 0
M  V30 31 H -0.134592 2.57133 -1.09872 0
M  V30 END ATOM
M  V30 BEGIN BOND
M  V30 1 1 1 2
M  V30 2 1 2 3
M  V30 3 1 3 4
M  V30 4 2 4 5
M  V30 5 1 4 6
M  V30 6 1 6 7
M  V30 7 1 7 8
M  V30 8 1 8 9
M  V30 9 1 9 10
M  V30 10 1 10 11
M  V30 11 1 9 12
M  V30 12 1 6 13
M  V30 13 1 1 14
M  V30 14 1 1 15
M  V30 15 1 1 16
M  V30 16 1 2 17
M  V30 17 1 2 18
M  V30 18 1 6 19
M  V30 19 1 7 20
M  V30 20 1 7 21
M  V30 21 1 8 22
M  V30 22 1 8 23
M  V30 23 1 9 24
M  V30 24 1 10 25
M  V30 25 1 10 26
M  V30 26 1 11 27
M  V30 27 1 11 28
M  V30 28 1 12 29
M  V30 29 1 13 30
M  V30 30 1 13 31
M  V30 END BOND
M  V30 END CTAB
M  END
