
     RDKit          3D

  0  0  0  0  0  0  0  0  0  0999 V3000
M  V30 BEGIN CTAB
M  V30 COUNTS 34 35 0 0 0
M  V30 BEGIN ATOM
M  V30 1 C -2.1891 -1.27145 0.565557 0
M  V30 2 C -1.64224 0.140475 0.395002 0
M  V30 3 C -1.11387 0.636381 1.72159 0
M  V30 4 N -2.75722 0.974539 0.0148763 0
M  V30 5 C -2.83156 1.66257 -1.05523 0
M  V30 6 N -4.01644 2.4454 -1.28829 0
M  V30 7 N -1.75469 1.64009 -1.98055 0
M  V30 8 C -0.68617 0.942806 -1.78354 0
M  V30 9 N 0.399253 0.918079 -2.71294 0
M  V30 10 N -0.580809 0.16791 -0.596041 0
M  V30 11 C 0.590186 -0.605499 -0.359677 0
M  V30 12 C 0.681211 -1.90904 -0.797007 0
M  V30 13 C 1.83713 -2.61033 -0.540711 0
M  V30 14 C 2.88254 -2.02443 0.138269 0
M  V30 15 C 2.8051 -0.72216 0.581167 0
M  V30 16 C 1.66121 -0.0229053 0.329462 0
M  V30 17 C 3.89912 -0.078601 1.30285 0
M  V30 18 O 3.76011 1.22266 1.718 0
M  V30 19 O 4.96096 -0.703578 1.54537 0
M  V30 20 H -2.29528 -1.71958 -0.457813 0
M  V30 21 H -1.51894 -1.88888 1.19454 0
M  V30 22 H -3.17633 -1.26014 1.05002 0
M  V30 23 H -0.62813 1.61767 1.58463 0
M  V30 24 H -1.93576 0.764315 2.44372 0
M  V30 25 H -0.341404 -0.058657 2.10836 0
M  V30 26 H -4.90715 1.93205 -1.39161 0
M  V30 27 H -3.96953 3.49368 -1.34947 0
M  V30 28 H 0.702561 0.0698302 -3.21535 0
M  V30 29 H 0.934907 1.80597 -2.91193 0
M  V30 30 H -0.149696 -2.34836 -1.32714 0
M  V30 31 H 1.93524 -3.64152 -0.875069 0
M  V30 32 H 3.79708 -2.56754 0.345359 0
M  V30 33 H 1.52328 1.01189 0.647475 0
M  V30 34 H 4.12444 1.98635 1.18519 0
M  V30 END ATOM
M  V30 BEGIN BOND
M  V30 1 1 1 2
M  V30 2 1 2 3
M  V30 3 1 2 4
M  V30 4 2 4 5
M  V30 5 1 5 6
M  V30 6 1 5 7
M  V30 7 2 7 8
M  V30 8 1 8 9
M  V30 9 1 8 10
M  V30 10 1 10 11
M  V30 11 2 11 12
M  V30 12 1 12 13
M  V30 13 2 13 14
M  V30 14 1 14 15
M  V30 15 2 15 16
M  V30 16 1 15 17
M  V30 17 1 17 18
M  V30 18 2 17 19
M  V30 19 1 10 2
M  V30 20 1 16 11
M  V30 21 1 1 20
M  V30 22 1 1 21
M  V30 23 1 1 22
M  V30 24 1 3 23
M  V30 25 1 3 24
M  V30 26 1 3 25
M  V30 27 1 6 26
M  V30 28 1 6 27
M  V30 29 1 9 28
M  V30 30 1 9 29
M  V30 31 1 12 30
M  V30 32 1 13 31
M  V30 33 1 14 32
M  V30 34 1 16 33
M  V30 35 1 18 34
M  V30 END BOND
M  V30 END CTAB
M  END
