
     RDKit          3D

  0  0  0  0  0  0  0  0  0  0999 V3000
M  V30 BEGIN CTAB
M  V30 COUNTS 28 28 0 0 0
M  V30 BEGIN ATOM
M  V30 1 C -1.74971 2.4282 -0.781666 0
M  V30 2 C -0.639461 1.47038 -0.504584 0
M  V30 3 C -0.860681 0.294144 0.190893 0
M  V30 4 C 0.177342 -0.563861 0.428818 0
M  V30 5 C -0.0649942 -1.83688 1.18558 0
M  V30 6 C 1.4686 -0.308028 -0.00178657 0
M  V30 7 C 1.64274 0.873103 -0.689201 0
M  V30 8 C 0.63328 1.75115 -0.944496 0
M  V30 9 S 2.81113 -1.37172 0.272674 0
M  V30 10 N 4.24977 -0.654565 -0.413541 0
M  V30 11 O 3.10344 -1.58421 1.72717 0
M  V30 12 O 2.66639 -2.68256 -0.469744 0
M  V30 13 S -2.48206 -0.0578784 0.745366 0
M  V30 14 N -3.3569 -0.951578 -0.428923 0
M  V30 15 O -3.21799 1.20149 1.10591 0
M  V30 16 O -2.43195 -0.868712 2.00907 0
M  V30 17 H -2.6486 1.91288 -1.18213 0
M  V30 18 H -1.41495 3.11284 -1.59021 0
M  V30 19 H -1.94994 3.0574 0.0966025 0
M  V30 20 H 0.798745 -2.52504 1.0973 0
M  V30 21 H -0.933274 -2.39464 0.804333 0
M  V30 22 H -0.122127 -1.63435 2.29417 0
M  V30 23 H 2.66489 1.08366 -1.03429 0
M  V30 24 H 0.867057 2.66031 -1.49603 0
M  V30 25 H 4.47904 0.223972 0.103007 0
M  V30 26 H 4.02681 -0.428817 -1.41374 0
M  V30 27 H -3.75995 -1.8249 -0.0782516 0
M  V30 28 H -3.95665 -0.381778 -1.03231 0
M  V30 END ATOM
M  V30 BEGIN BOND
M  V30 1 1 1 2
M  V30 2 2 2 3
M  V30 3 1 3 4
M  V30 4 1 4 5
M  V30 5 2 4 6
M  V30 6 1 6 7
M  V30 7 2 7 8
M  V30 8 1 6 9
M  V30 9 1 9 10
M  V30 10 2 9 11
M  V30 11 2 9 12
M  V30 12 1 3 13
M  V30 13 1 13 14
M  V30 14 2 13 15
M  V30 15 2 13 16
M  V30 16 1 8 2
M  V30 17 1 1 17
M  V30 18 1 1 18
M  V30 19 1 1 19
M  V30 20 1 5 20
M  V30 21 1 5 21
M  V30 22 1 5 22
M  V30 23 1 7 23
M  V30 24 1 8 24
M  V30 25 1 10 25
M  V30 26 1 10 26
M  V30 27 1 14 27
M  V30 28 1 14 28
M  V30 END BOND
M  V30 END CTAB
M  END
