
     RDKit          3D

  0  0  0  0  0  0  0  0  0  0999 V3000
M  V30 BEGIN CTAB
M  V30 COUNTS 54 56 0 0 0
M  V30 BEGIN ATOM
M  V30 1 C 5.6502 -0.209 -1.00892 0 CFG=2
M  V30 2 C 6.6634 0.814699 -0.890254 0
M  V30 3 C 6.88813 1.40403 0.453138 0
M  V30 4 C 7.49741 0.417588 1.37435 0
M  V30 5 O 7.21633 0.549829 2.74663 0
M  V30 6 O 8.25652 -0.523618 0.998526 0
M  V30 7 N 4.26565 0.291689 -0.665893 0
M  V30 8 C 3.26964 -0.551056 -1.16028 0
M  V30 9 O 3.61652 -1.60874 -1.86146 0
M  V30 10 C 1.84616 -0.454412 -1.02499 0
M  V30 11 C 1.24904 -0.352653 0.24615 0
M  V30 12 C -0.107943 -0.293856 0.383473 0
M  V30 13 C -0.943245 -0.327972 -0.702845 0
M  V30 14 C -0.390385 -0.433316 -1.95807 0
M  V30 15 C 0.975718 -0.49165 -2.07769 0
M  V30 16 N -2.30424 -0.145505 -0.58019 0
M  V30 17 C -2.7538 1.26261 -0.749834 0
M  V30 18 C -3.27486 -1.13375 -0.149542 0
M  V30 19 C -4.61862 -0.527084 -0.526868 0
M  V30 20 C -5.10823 -0.368089 -1.82637 0
M  V30 21 O -6.30244 0.134805 -1.75258 0
M  V30 22 C -6.67246 0.336206 -0.498733 0
M  V30 23 C -5.60163 -0.091888 0.294304 0
M  V30 24 C -5.71526 0.0299837 1.66787 0
M  V30 25 N -4.60955 -0.399824 2.46418 0
M  V30 26 N -6.82396 0.547427 2.2521 0
M  V30 27 C -7.85557 0.952713 1.45289 0
M  V30 28 N -8.99123 1.54124 2.05003 0
M  V30 29 N -7.73967 0.827124 0.115475 0
M  V30 30 C 5.70074 -1.45482 -0.230132 0
M  V30 31 O 6.28704 -2.64419 -0.584969 0
M  V30 32 O 5.12926 -1.44903 0.91321 0
M  V30 33 H 5.53035 -0.550662 -2.0825 0
M  V30 34 H 7.65057 0.404855 -1.29559 0
M  V30 35 H 6.40584 1.64725 -1.62624 0
M  V30 36 H 7.55121 2.31364 0.355374 0
M  V30 37 H 5.92801 1.79397 0.841052 0
M  V30 38 H 7.33691 -0.235018 3.38987 0
M  V30 39 H 4.11064 1.13617 -0.138687 0
M  V30 40 H 1.86706 -0.317061 1.11692 0
M  V30 41 H -0.590725 -0.219044 1.37438 0
M  V30 42 H -1.01702 -0.465714 -2.81569 0
M  V30 43 H 1.45016 -0.566445 -3.08795 0
M  V30 44 H -3.12781 1.50212 0.300267 0
M  V30 45 H -3.47513 1.42151 -1.50529 0
M  V30 46 H -1.90692 1.95193 -0.923463 0
M  V30 47 H -3.17691 -1.49707 0.826788 0
M  V30 48 H -3.16947 -2.01133 -0.87999 0
M  V30 49 H -4.49786 -0.656772 -2.66715 0
M  V30 50 H -3.83153 0.215593 2.74578 0
M  V30 51 H -4.61216 -1.394 2.78489 0
M  V30 52 H -9.90897 1.62283 1.54595 0
M  V30 53 H -8.98588 1.88903 3.03149 0
M  V30 54 H 5.77096 -3.54009 -0.452911 0
M  V30 END ATOM
M  V30 BEGIN BOND
M  V30 1 1 1 2
M  V30 2 1 2 3
M  V30 3 1 3 4
M  V30 4 1 4 5
M  V30 5 2 4 6
M  V30 6 1 1 7
M  V30 7 1 7 8
M  V30 8 2 8 9
M  V30 9 1 8 10
M  V30 10 2 10 11
M  V30 11 1 11 12
M  V30 12 2 12 13
M  V30 13 1 13 14
M  V30 14 2 14 15
M  V30 15 1 13 16
M  V30 16 1 16 17
M  V30 17 1 16 18
M  V30 18 1 18 19
M  V30 19 2 19 20
M  V30 20 1 20 21
M  V30 21 1 21 22
M  V30 22 2 22 23
M  V30 23 1 23 24
M  V30 24 1 24 25
M  V30 25 2 24 26
M  V30 26 1 26 27
M  V30 27 1 27 28
M  V30 28 2 27 29
M  V30 29 1 1 30
M  V30 30 1 30 31
M  V30 31 2 30 32
M  V30 32 1 15 10
M  V30 33 1 23 19
M  V30 34 1 29 22
M  V30 35 1 1 33 CFG=3
M  V30 36 1 2 34
M  V30 37 1 2 35
M  V30 38 1 3 36
M  V30 39 1 3 37
M  V30 40 1 5 38
M  V30 41 1 7 39
M  V30 42 1 11 40
M  V30 43 1 12 41
M  V30 44 1 14 42
M  V30 45 1 15 43
M  V30 46 1 17 44
M  V30 47 1 17 45
M  V30 48 1 17 46
M  V30 49 1 18 47
M  V30 50 1 18 48
M  V30 51 1 20 49
M  V30 52 1 25 50
M  V30 53 1 25 51
M  V30 54 1 28 52
M  V30 55 1 28 53
M  V30 56 1 31 54
M  V30 END BOND
M  V30 END CTAB
M  END
