
     RDKit          3D

  0  0  0  0  0  0  0  0  0  0999 V3000
M  V30 BEGIN CTAB
M  V30 COUNTS 25 26 0 0 0
M  V30 BEGIN ATOM
M  V30 1 N 3.75336 1.1617 0.390879 0
M  V30 2 C 2.36882 0.91112 0.331528 0
M  V30 3 C 1.47094 1.96529 0.357892 0
M  V30 4 C 0.131353 1.74086 0.301232 0
M  V30 5 C -0.404319 0.442758 0.213965 0
M  V30 6 C 0.517546 -0.557355 0.191667 0
M  V30 7 C 1.90728 -0.373415 0.247695 0
M  V30 8 N 2.76555 -1.50656 0.215885 0
M  V30 9 C -1.8492 0.308895 0.171123 0
M  V30 10 N -2.69805 1.38587 0.293164 0
M  V30 11 C -3.96665 0.979997 0.205999 0
M  V30 12 N -3.90508 -0.341985 0.0305517 0
M  V30 13 N -2.61324 -0.738785 0.0106321 0
M  V30 14 C -2.26348 -2.11818 -0.176956 0
M  V30 15 H 4.29758 0.745299 1.15774 0
M  V30 16 H 4.24768 1.74832 -0.305855 0
M  V30 17 H 1.83773 3.00025 0.424896 0
M  V30 18 H -0.540328 2.57363 0.322764 0
M  V30 19 H 0.192017 -1.5676 0.135833 0
M  V30 20 H 2.47246 -2.43658 0.584518 0
M  V30 21 H 3.72088 -1.39824 -0.191596 0
M  V30 22 H -4.82885 1.6347 0.27138 0
M  V30 23 H -1.79737 -2.54076 0.730908 0
M  V30 24 H -1.59999 -2.31819 -1.04456 0
M  V30 25 H -3.21664 -2.70105 -0.413167 0
M  V30 END ATOM
M  V30 BEGIN BOND
M  V30 1 1 1 2
M  V30 2 2 2 3
M  V30 3 1 3 4
M  V30 4 2 4 5
M  V30 5 1 5 6
M  V30 6 2 6 7
M  V30 7 1 7 8
M  V30 8 1 5 9
M  V30 9 2 9 10
M  V30 10 1 10 11
M  V30 11 2 11 12
M  V30 12 1 12 13
M  V30 13 1 13 14
M  V30 14 1 7 2
M  V30 15 1 13 9
M  V30 16 1 1 15
M  V30 17 1 1 16
M  V30 18 1 3 17
M  V30 19 1 4 18
M  V30 20 1 6 19
M  V30 21 1 8 20
M  V30 22 1 8 21
M  V30 23 1 11 22
M  V30 24 1 14 23
M  V30 25 1 14 24
M  V30 26 1 14 25
M  V30 END BOND
M  V30 END CTAB
M  END
