
     RDKit          3D

  0  0  0  0  0  0  0  0  0  0999 V3000
M  V30 BEGIN CTAB
M  V30 COUNTS 19 20 0 0 0
M  V30 BEGIN ATOM
M  V30 1 N 3.56872 -0.249848 -0.551726 0
M  V30 2 N 2.68621 -0.585668 0.445178 0
M  V30 3 C 1.29957 -0.283325 0.311076 0
M  V30 4 N 0.971968 0.978964 0.685669 0
M  V30 5 C -0.3369 1.27952 0.583026 0
M  V30 6 N -0.825481 2.56038 0.9394 0
M  V30 7 C -1.25896 0.338399 0.12172 0
M  V30 8 C -0.902568 -0.917923 -0.247003 0
M  V30 9 N 0.428786 -1.18106 -0.128285 0
M  V30 10 C -1.87023 -1.74017 -0.671656 0
M  V30 11 C -3.14264 -1.26076 -0.704437 0
M  V30 12 S -2.96335 0.352645 -0.132813 0
M  V30 13 H 3.83471 0.759082 -0.604581 0
M  V30 14 H 3.25747 -0.535588 -1.50483 0
M  V30 15 H 2.99304 -1.06171 1.30884 0
M  V30 16 H -0.167433 3.25733 1.3421 0
M  V30 17 H -1.80301 2.84057 0.822564 0
M  V30 18 H -1.70713 -2.78958 -1.00372 0
M  V30 19 H -4.06278 -1.76127 -1.01051 0
M  V30 END ATOM
M  V30 BEGIN BOND
M  V30 1 1 1 2
M  V30 2 1 2 3
M  V30 3 2 3 4
M  V30 4 1 4 5
M  V30 5 1 5 6
M  V30 6 2 5 7
M  V30 7 1 7 8
M  V30 8 2 8 9
M  V30 9 1 8 10
M  V30 10 2 10 11
M  V30 11 1 11 12
M  V30 12 1 9 3
M  V30 13 1 12 7
M  V30 14 1 1 13
M  V30 15 1 1 14
M  V30 16 1 2 15
M  V30 17 1 6 16
M  V30 18 1 6 17
M  V30 19 1 10 18
M  V30 20 1 11 19
M  V30 END BOND
M  V30 END CTAB
M  END
