
     RDKit          3D

  0  0  0  0  0  0  0  0  0  0999 V3000
M  V30 BEGIN CTAB
M  V30 COUNTS 42 43 0 0 0
M  V30 BEGIN ATOM
M  V30 1 N -5.86878 -1.2666 -0.8197 0
M  V30 2 C -4.42127 -1.2449 -0.6213 0
M  V30 3 C -3.7748 -2.51276 -1.05519 0
M  V30 4 C -3.12754 -3.11705 0.157906 0
M  V30 5 C -3.19049 -2.11034 1.2391 0
M  V30 6 C -4.15392 -1.06498 0.833139 0
M  V30 7 C -1.84736 -1.49041 1.41816 0
M  V30 8 O -1.27781 -1.54634 2.52143 0
M  V30 9 N -1.24976 -0.847264 0.315189 0
M  V30 10 C 0.0578334 -0.247536 0.506298 0
M  V30 11 C 0.57618 0.40342 -0.751017 0
M  V30 12 C 1.91453 0.97611 -0.422517 0
M  V30 13 C 2.06692 2.26129 0.0496912 0
M  V30 14 C 3.30982 2.77886 0.349764 0
M  V30 15 C 4.46189 2.02112 0.186867 0
M  V30 16 C 4.33115 0.741059 -0.28151 0
M  V30 17 C 3.08745 0.240239 -0.575683 0
M  V30 18 S 6.04745 2.65151 0.559017 0
M  V30 19 O 6.92335 1.57272 1.1189 0
M  V30 20 O 5.95137 3.72126 1.635 0
M  V30 21 N 6.76046 3.41629 -0.818838 0
M  V30 22 H -6.24646 -0.458975 -0.279655 0
M  V30 23 H -6.01142 -1.03125 -1.83688 0
M  V30 24 H -3.96661 -0.395609 -1.18584 0
M  V30 25 H -3.03167 -2.3188 -1.87056 0
M  V30 26 H -4.58443 -3.17848 -1.45677 0
M  V30 27 H -2.06654 -3.40428 -0.025032 0
M  V30 28 H -3.67067 -4.05383 0.400875 0
M  V30 29 H -3.47458 -2.58177 2.23218 0
M  V30 30 H -5.11787 -1.11443 1.40238 0
M  V30 31 H -3.75264 -0.020836 1.03157 0
M  V30 32 H -1.69402 -0.781673 -0.624059 0
M  V30 33 H 0.778558 -1.01549 0.805003 0
M  V30 34 H -0.0107136 0.531708 1.28928 0
M  V30 35 H -0.119852 1.26258 -0.968853 0
M  V30 36 H 0.603524 -0.260646 -1.61691 0
M  V30 37 H 1.20948 2.90065 0.19781 0
M  V30 38 H 3.38809 3.79038 0.717513 0
M  V30 39 H 5.21747 0.111706 -0.423414 0
M  V30 40 H 3.04374 -0.786134 -0.94558 0
M  V30 41 H 6.2408 3.03068 -1.65734 0
M  V30 42 H 6.68916 4.43879 -0.768084 0
M  V30 END ATOM
M  V30 BEGIN BOND
M  V30 1 1 1 2
M  V30 2 1 2 3
M  V30 3 1 3 4
M  V30 4 1 4 5
M  V30 5 1 5 6
M  V30 6 1 5 7
M  V30 7 2 7 8
M  V30 8 1 7 9
M  V30 9 1 9 10
M  V30 10 1 10 11
M  V30 11 1 11 12
M  V30 12 2 12 13
M  V30 13 1 13 14
M  V30 14 2 14 15
M  V30 15 1 15 16
M  V30 16 2 16 17
M  V30 17 1 15 18
M  V30 18 2 18 19
M  V30 19 2 18 20
M  V30 20 1 18 21
M  V30 21 1 6 2
M  V30 22 1 17 12
M  V30 23 1 1 22
M  V30 24 1 1 23
M  V30 25 1 2 24
M  V30 26 1 3 25
M  V30 27 1 3 26
M  V30 28 1 4 27
M  V30 29 1 4 28
M  V30 30 1 5 29
M  V30 31 1 6 30
M  V30 32 1 6 31
M  V30 33 1 9 32
M  V30 34 1 10 33
M  V30 35 1 10 34
M  V30 36 1 11 35
M  V30 37 1 11 36
M  V30 38 1 13 37
M  V30 39 1 14 38
M  V30 40 1 16 39
M  V30 41 1 17 40
M  V30 42 1 21 41
M  V30 43 1 21 42
M  V30 END BOND
M  V30 END CTAB
M  END
