
     RDKit          3D

  0  0  0  0  0  0  0  0  0  0999 V3000
M  V30 BEGIN CTAB
M  V30 COUNTS 44 44 0 0 0
M  V30 BEGIN ATOM
M  V30 1 C -3.60178 -0.530955 -1.47549 0
M  V30 2 Si -2.74283 0.178059 0.0333115 0 VAL=4
M  V30 3 C -2.39968 1.97214 -0.318076 0
M  V30 4 N -3.9364 0.0662863 1.37453 0
M  V30 5 N -1.31321 -0.73402 0.490516 0
M  V30 6 Si -0.102709 -1.02135 -0.763193 0 VAL=4
M  V30 7 C -0.678759 -0.773294 -2.51377 0
M  V30 8 C 0.718582 -2.66903 -0.545364 0
M  V30 9 N 0.786055 0.37488 -0.143495 0
M  V30 10 Si 2.51577 0.336974 -0.181815 0 VAL=4
M  V30 11 C 3.06564 -0.0129372 -1.95618 0
M  V30 12 C 3.18363 2.04297 0.235898 0
M  V30 13 N 3.30669 -0.829938 0.851315 0
M  V30 14 Si -0.0637943 0.186373 1.38748 0 VAL=4
M  V30 15 C -0.659608 1.73536 2.19779 0
M  V30 16 C 0.751841 -0.937202 2.6308 0
M  V30 17 H -4.71124 -0.331824 -1.39731 0
M  V30 18 H -3.28549 -0.00490126 -2.39643 0
M  V30 19 H -3.50659 -1.62454 -1.52557 0
M  V30 20 H -2.70102 2.57784 0.55376 0
M  V30 21 H -3.04015 2.34686 -1.16982 0
M  V30 22 H -1.36306 2.12367 -0.64398 0
M  V30 23 H -4.56101 -0.76725 1.21546 0
M  V30 24 H -3.472 0.026048 2.30797 0
M  V30 25 H -0.924418 0.271029 -2.72348 0
M  V30 26 H -1.44682 -1.50585 -2.75096 0
M  V30 27 H 0.204077 -1.01925 -3.17087 0
M  V30 28 H 0.936366 -3.16959 -1.51611 0
M  V30 29 H -0.00147002 -3.35206 -0.0179174 0
M  V30 30 H 1.62358 -2.64742 0.0572765 0
M  V30 31 H 3.22021 -1.10171 -2.10711 0
M  V30 32 H 3.9884 0.563493 -2.19182 0
M  V30 33 H 2.2935 0.333963 -2.68104 0
M  V30 34 H 4.22432 2.15529 -0.134432 0
M  V30 35 H 3.08418 2.26147 1.30883 0
M  V30 36 H 2.5571 2.76282 -0.31138 0
M  V30 37 H 3.76982 -1.62079 0.372644 0
M  V30 38 H 3.8076 -0.458751 1.66965 0
M  V30 39 H -0.472191 2.58924 1.53499 0
M  V30 40 H -1.71429 1.64386 2.53157 0
M  V30 41 H -0.0792951 1.95375 3.1412 0
M  V30 42 H 0.12724 -0.878889 3.56284 0
M  V30 43 H 1.75234 -0.53903 2.91053 0
M  V30 44 H 0.860853 -1.97181 2.26725 0
M  V30 END ATOM
M  V30 BEGIN BOND
M  V30 1 1 1 2
M  V30 2 1 2 3
M  V30 3 1 2 4
M  V30 4 1 2 5
M  V30 5 1 5 6
M  V30 6 1 6 7
M  V30 7 1 6 8
M  V30 8 1 6 9
M  V30 9 1 9 10
M  V30 10 1 10 11
M  V30 11 1 10 12
M  V30 12 1 10 13
M  V30 13 1 9 14
M  V30 14 1 14 15
M  V30 15 1 14 16
M  V30 16 1 14 5
M  V30 17 1 1 17
M  V30 18 1 1 18
M  V30 19 1 1 19
M  V30 20 1 3 20
M  V30 21 1 3 21
M  V30 22 1 3 22
M  V30 23 1 4 23
M  V30 24 1 4 24
M  V30 25 1 7 25
M  V30 26 1 7 26
M  V30 27 1 7 27
M  V30 28 1 8 28
M  V30 29 1 8 29
M  V30 30 1 8 30
M  V30 31 1 11 31
M  V30 32 1 11 32
M  V30 33 1 11 33
M  V30 34 1 12 34
M  V30 35 1 12 35
M  V30 36 1 12 36
M  V30 37 1 13 37
M  V30 38 1 13 38
M  V30 39 1 15 39
M  V30 40 1 15 40
M  V30 41 1 15 41
M  V30 42 1 16 42
M  V30 43 1 16 43
M  V30 44 1 16 44
M  V30 END BOND
M  V30 END CTAB
M  END
