
     RDKit          3D

  0  0  0  0  0  0  0  0  0  0999 V3000
M  V30 BEGIN CTAB
M  V30 COUNTS 41 43 0 0 0
M  V30 BEGIN ATOM
M  V30 1 N 4.89074 -1.86169 -1.61393 0
M  V30 2 C 4.6843 -0.79244 -0.694004 0
M  V30 3 C 5.71343 0.0576551 -0.382683 0
M  V30 4 C 5.4891 1.0897 0.514078 0
M  V30 5 C 4.24254 1.24206 1.07316 0
M  V30 6 C 3.16386 0.402976 0.787492 0
M  V30 7 C 3.43163 -0.604745 -0.104314 0
M  V30 8 O 1.97941 0.646723 1.40018 0
M  V30 9 C 0.743565 0.080772 1.35996 0
M  V30 10 C 0.0799413 0.174498 0.022303 0
M  V30 11 N -1.22468 -0.429808 -0.0114769 0
M  V30 12 C -1.41595 -1.78727 -0.345553 0
M  V30 13 O -0.482923 -2.63044 -0.32011 0
M  V30 14 C -2.76342 -2.28323 -0.75077 0
M  V30 15 C -2.93369 -2.11106 -2.26306 0
M  V30 16 O -3.75928 -1.57268 -0.0638966 0
M  V30 17 C -3.59932 -0.236873 0.266207 0
M  V30 18 C -2.38044 0.357657 0.303332 0
M  V30 19 N -2.27572 1.64778 0.627016 0
M  V30 20 C -3.30756 2.43169 0.928513 0
M  V30 21 N -3.13885 3.81954 1.27135 0
M  V30 22 C -4.56737 1.85407 0.899642 0
M  V30 23 C -4.73579 0.527274 0.572582 0
M  V30 24 H 4.1196 -2.1226 -2.26146 0
M  V30 25 H 5.79863 -2.3531 -1.61803 0
M  V30 26 H 6.67199 -0.0747808 -0.825072 0
M  V30 27 H 6.32321 1.74927 0.743473 0
M  V30 28 H 4.10212 2.06055 1.77118 0
M  V30 29 H 2.68913 -1.31536 -0.383902 0
M  V30 30 H 0.119005 0.584677 2.16402 0
M  V30 31 H 0.734396 -0.999171 1.71703 0
M  V30 32 H 0.718398 -0.241028 -0.756503 0
M  V30 33 H -0.0363199 1.28418 -0.210297 0
M  V30 34 H -2.88582 -3.36355 -0.463787 0
M  V30 35 H -3.81386 -1.48963 -2.44126 0
M  V30 36 H -2.00272 -1.72592 -2.68163 0
M  V30 37 H -3.08246 -3.13901 -2.69958 0
M  V30 38 H -3.85523 4.49681 1.00821 0
M  V30 39 H -2.29176 4.13707 1.7855 0
M  V30 40 H -5.43813 2.44983 1.13704 0
M  V30 41 H -5.70371 0.0395997 0.53905 0
M  V30 END ATOM
M  V30 BEGIN BOND
M  V30 1 1 1 2
M  V30 2 2 2 3
M  V30 3 1 3 4
M  V30 4 2 4 5
M  V30 5 1 5 6
M  V30 6 2 6 7
M  V30 7 1 6 8
M  V30 8 1 8 9
M  V30 9 1 9 10
M  V30 10 1 10 11
M  V30 11 1 11 12
M  V30 12 2 12 13
M  V30 13 1 12 14
M  V30 14 1 14 15
M  V30 15 1 14 16
M  V30 16 1 16 17
M  V30 17 2 17 18
M  V30 18 1 18 19
M  V30 19 2 19 20
M  V30 20 1 20 21
M  V30 21 1 20 22
M  V30 22 2 22 23
M  V30 23 1 7 2
M  V30 24 1 18 11
M  V30 25 1 23 17
M  V30 26 1 1 24
M  V30 27 1 1 25
M  V30 28 1 3 26
M  V30 29 1 4 27
M  V30 30 1 5 28
M  V30 31 1 7 29
M  V30 32 1 9 30
M  V30 33 1 9 31
M  V30 34 1 10 32
M  V30 35 1 10 33
M  V30 36 1 14 34
M  V30 37 1 15 35
M  V30 38 1 15 36
M  V30 39 1 15 37
M  V30 40 1 21 38
M  V30 41 1 21 39
M  V30 42 1 22 40
M  V30 43 1 23 41
M  V30 END BOND
M  V30 END CTAB
M  END
