
     RDKit          3D

  0  0  0  0  0  0  0  0  0  0999 V3000
M  V30 BEGIN CTAB
M  V30 COUNTS 58 61 0 0 0
M  V30 BEGIN ATOM
M  V30 1 O -5.69168 3.86008 -1.94231 0
M  V30 2 C -5.25142 3.06686 -0.873435 0
M  V30 3 C -5.41839 1.6134 -1.14856 0
M  V30 4 N -4.9932 0.750364 -0.0811883 0
M  V30 5 C -3.88713 -0.145514 -0.132146 0
M  V30 6 N -3.97572 -1.31094 -0.788182 0
M  V30 7 C -2.95788 -2.17102 -0.886006 0
M  V30 8 N -3.09428 -3.40657 -1.59757 0
M  V30 9 C -1.73373 -1.88457 -0.295735 0
M  V30 10 C -1.62641 -0.662858 0.39809 0
M  V30 11 C -2.67188 0.193231 0.484246 0
M  V30 12 C -2.61037 1.43413 1.20199 0
M  V30 13 N -2.6191 2.46752 1.78085 0
M  V30 14 C -0.400639 -0.342094 1.00756 0
M  V30 15 C 0.0807439 0.823217 1.76251 0
M  V30 16 C 1.45497 0.408197 2.16173 0
M  V30 17 O 2.14759 1.13239 2.92821 0
M  V30 18 N 1.79045 -0.812878 1.58783 0
M  V30 19 C 0.605584 -1.26525 0.872603 0
M  V30 20 N 0.47337 -2.43385 0.197279 0
M  V30 21 C -0.686175 -2.74542 -0.384207 0
M  V30 22 N -0.844266 -3.97998 -1.1052 0
M  V30 23 C 3.05621 -1.56311 1.59109 0
M  V30 24 C 3.9741 -1.40245 0.49564 0
M  V30 25 C 4.69948 -0.271581 0.0459539 0
M  V30 26 C 4.82133 0.965625 0.463412 0
M  V30 27 C 5.71181 1.89297 -0.310457 0
M  V30 28 C 5.42076 1.86149 -1.79355 0
M  V30 29 C 5.02773 0.458035 -2.24174 0
M  V30 30 C 5.54911 -0.518354 -1.22155 0
M  V30 31 C -5.75952 0.777739 1.15545 0
M  V30 32 H -6.44544 4.40207 -1.60786 0
M  V30 33 H -5.80574 3.34246 0.0373594 0
M  V30 34 H -4.16236 3.27557 -0.69728 0
M  V30 35 H -6.48183 1.35515 -1.42377 0
M  V30 36 H -4.83671 1.30319 -2.05548 0
M  V30 37 H -2.90398 -3.52352 -2.59697 0
M  V30 38 H -3.4191 -4.22667 -1.02651 0
M  V30 39 H 0.127287 1.76854 1.18482 0
M  V30 40 H -0.432218 0.926648 2.76216 0
M  V30 41 H -0.624605 -3.99148 -2.12485 0
M  V30 42 H -1.15926 -4.86093 -0.670973 0
M  V30 43 H 3.51096 -1.48404 2.62246 0
M  V30 44 H 2.72626 -2.65226 1.5935 0
M  V30 45 H 4.7484 -2.28683 0.511919 0
M  V30 46 H 3.38411 -1.77543 -0.450268 0
M  V30 47 H 4.30504 1.25672 1.33022 0
M  V30 48 H 6.75833 1.63688 -0.128775 0
M  V30 49 H 5.51676 2.94041 0.0411301 0
M  V30 50 H 4.61831 2.53671 -2.11083 0
M  V30 51 H 6.35713 2.12676 -2.33286 0
M  V30 52 H 3.92183 0.376801 -2.28436 0
M  V30 53 H 5.50764 0.196618 -3.21551 0
M  V30 54 H 6.57125 -0.229736 -0.909901 0
M  V30 55 H 5.48693 -1.5485 -1.55352 0
M  V30 56 H -5.24711 0.230104 1.97451 0
M  V30 57 H -5.88399 1.83013 1.53171 0
M  V30 58 H -6.72932 0.2858 0.983585 0
M  V30 END ATOM
M  V30 BEGIN BOND
M  V30 1 1 1 2
M  V30 2 1 2 3
M  V30 3 1 3 4
M  V30 4 1 4 5
M  V30 5 2 5 6
M  V30 6 1 6 7
M  V30 7 1 7 8
M  V30 8 2 7 9
M  V30 9 1 9 10
M  V30 10 2 10 11
M  V30 11 1 11 12
M  V30 12 3 12 13
M  V30 13 1 10 14
M  V30 14 1 14 15
M  V30 15 1 15 16
M  V30 16 2 16 17
M  V30 17 1 16 18
M  V30 18 1 18 19
M  V30 19 1 19 20
M  V30 20 2 20 21
M  V30 21 1 21 22
M  V30 22 1 18 23
M  V30 23 1 23 24
M  V30 24 1 24 25
M  V30 25 2 25 26
M  V30 26 1 26 27
M  V30 27 1 27 28
M  V30 28 1 28 29
M  V30 29 1 29 30
M  V30 30 1 4 31
M  V30 31 1 11 5
M  V30 32 2 19 14
M  V30 33 1 30 25
M  V30 34 1 21 9
M  V30 35 1 1 32
M  V30 36 1 2 33
M  V30 37 1 2 34
M  V30 38 1 3 35
M  V30 39 1 3 36
M  V30 40 1 8 37
M  V30 41 1 8 38
M  V30 42 1 15 39
M  V30 43 1 15 40
M  V30 44 1 22 41
M  V30 45 1 22 42
M  V30 46 1 23 43
M  V30 47 1 23 44
M  V30 48 1 24 45
M  V30 49 1 24 46
M  V30 50 1 26 47
M  V30 51 1 27 48
M  V30 52 1 27 49
M  V30 53 1 28 50
M  V30 54 1 28 51
M  V30 55 1 29 52
M  V30 56 1 29 53
M  V30 57 1 30 54
M  V30 58 1 30 55
M  V30 59 1 31 56
M  V30 60 1 31 57
M  V30 61 1 31 58
M  V30 END BOND
M  V30 END CTAB
M  END
