
     RDKit          3D

  0  0  0  0  0  0  0  0  0  0999 V3000
M  V30 BEGIN CTAB
M  V30 COUNTS 58 61 0 0 0
M  V30 BEGIN ATOM
M  V30 1 C -7.11219 -1.5453 1.97644 0
M  V30 2 C -7.12282 -0.460148 0.947767 0
M  V30 3 C -8.30351 -0.0627336 0.351602 0
M  V30 4 N -9.50992 -0.700652 0.730391 0
M  V30 5 C -8.24387 0.928311 -0.575311 0
M  V30 6 S -9.7711 1.46474 -1.36712 0
M  V30 7 C -7.07537 1.53857 -0.935691 0
M  V30 8 C -5.86096 1.15624 -0.348108 0
M  V30 9 N -4.67193 1.82481 -0.707734 0
M  V30 10 C -3.41647 1.21971 -0.605395 0
M  V30 11 C -2.30825 2.05295 -0.415681 0
M  V30 12 C -1.03267 1.54388 -0.338718 0
M  V30 13 C -0.77678 0.193529 -0.44348 0
M  V30 14 C -1.85897 -0.635878 -0.630624 0
M  V30 15 C -3.15958 -0.124405 -0.710207 0
M  V30 16 C 0.591619 -0.293124 -0.354983 0
M  V30 17 C 1.67361 0.4367 -0.794209 0
M  V30 18 C 2.96698 -0.0451614 -0.699691 0
M  V30 19 C 3.25467 -1.28145 -0.161322 0
M  V30 20 N 4.55202 -1.80197 -0.027959 0
M  V30 21 C 5.70292 -1.0025 0.0787171 0
M  V30 22 C 6.942 -1.49412 -0.366282 0
M  V30 23 C 8.07713 -0.748422 -0.237172 0
M  V30 24 C 9.37205 -1.28732 -0.71345 0
M  V30 25 C 8.04421 0.502593 0.330322 0
M  V30 26 N 9.2067 1.29058 0.473179 0
M  V30 27 C 6.83955 1.01903 0.780709 0
M  V30 28 S 6.73823 2.62882 1.52155 0
M  V30 29 C 5.70543 0.257239 0.644545 0
M  V30 30 C 2.14561 -2.02622 0.286928 0
M  V30 31 C 0.873494 -1.52991 0.183368 0
M  V30 32 C -5.94454 0.152351 0.587575 0
M  V30 33 H -6.5667 -2.41939 1.59985 0
M  V30 34 H -6.61425 -1.21277 2.91086 0
M  V30 35 H -8.1748 -1.81127 2.22185 0
M  V30 36 H -10.2141 -0.2253 1.33239 0
M  V30 37 H -9.72919 -1.67031 0.415612 0
M  V30 38 H -9.53013 1.6311 -2.74593 0
M  V30 39 H -7.03582 2.32812 -1.67552 0
M  V30 40 H -4.69194 2.8245 -1.07553 0
M  V30 41 H -2.48224 3.11521 -0.330409 0
M  V30 42 H -0.161382 2.19917 -0.189549 0
M  V30 43 H -1.66995 -1.69763 -0.714256 0
M  V30 44 H -3.9884 -0.822918 -0.877124 0
M  V30 45 H 1.50892 1.4141 -1.22539 0
M  V30 46 H 3.76233 0.596441 -1.08864 0
M  V30 47 H 4.68683 -2.8459 -0.00502618 0
M  V30 48 H 6.92439 -2.47998 -0.805628 0
M  V30 49 H 9.16734 -1.83337 -1.66962 0
M  V30 50 H 9.73713 -2.03753 0.00892644 0
M  V30 51 H 10.1089 -0.504365 -0.958265 0
M  V30 52 H 9.92882 1.40184 -0.255955 0
M  V30 53 H 9.38528 1.81976 1.37787 0
M  V30 54 H 7.0855 3.65051 0.598798 0
M  V30 55 H 4.76993 0.696335 1.0323 0
M  V30 56 H 2.33676 -2.99512 0.711539 0
M  V30 57 H -0.00282911 -2.09776 0.528147 0
M  V30 58 H -5.05768 -0.194227 1.10568 0
M  V30 END ATOM
M  V30 BEGIN BOND
M  V30 1 1 1 2
M  V30 2 2 2 3
M  V30 3 1 3 4
M  V30 4 1 3 5
M  V30 5 1 5 6
M  V30 6 2 5 7
M  V30 7 1 7 8
M  V30 8 1 8 9
M  V30 9 1 9 10
M  V30 10 2 10 11
M  V30 11 1 11 12
M  V30 12 2 12 13
M  V30 13 1 13 14
M  V30 14 2 14 15
M  V30 15 1 13 16
M  V30 16 2 16 17
M  V30 17 1 17 18
M  V30 18 2 18 19
M  V30 19 1 19 20
M  V30 20 1 20 21
M  V30 21 2 21 22
M  V30 22 1 22 23
M  V30 23 1 23 24
M  V30 24 2 23 25
M  V30 25 1 25 26
M  V30 26 1 25 27
M  V30 27 1 27 28
M  V30 28 2 27 29
M  V30 29 1 19 30
M  V30 30 2 30 31
M  V30 31 2 8 32
M  V30 32 1 32 2
M  V30 33 1 15 10
M  V30 34 1 31 16
M  V30 35 1 29 21
M  V30 36 1 1 33
M  V30 37 1 1 34
M  V30 38 1 1 35
M  V30 39 1 4 36
M  V30 40 1 4 37
M  V30 41 1 6 38
M  V30 42 1 7 39
M  V30 43 1 9 40
M  V30 44 1 11 41
M  V30 45 1 12 42
M  V30 46 1 14 43
M  V30 47 1 15 44
M  V30 48 1 17 45
M  V30 49 1 18 46
M  V30 50 1 20 47
M  V30 51 1 22 48
M  V30 52 1 24 49
M  V30 53 1 24 50
M  V30 54 1 24 51
M  V30 55 1 26 52
M  V30 56 1 26 53
M  V30 57 1 28 54
M  V30 58 1 29 55
M  V30 59 1 30 56
M  V30 60 1 31 57
M  V30 61 1 32 58
M  V30 END BOND
M  V30 END CTAB
M  END
