
     RDKit          3D

  0  0  0  0  0  0  0  0  0  0999 V3000
M  V30 BEGIN CTAB
M  V30 COUNTS 58 60 0 0 0
M  V30 BEGIN ATOM
M  V30 1 C -1.42682 -2.98011 -1.46663 0
M  V30 2 C -2.08854 -2.58614 -0.205655 0
M  V30 3 C -2.01527 -1.09569 0.083709 0
M  V30 4 C -2.65676 -0.251604 -0.966184 0
M  V30 5 C -4.09663 -0.468727 -1.18907 0
M  V30 6 C -4.68592 -1.31819 -2.14253 0
M  V30 7 O -5.98103 -1.27568 -2.02182 0
M  V30 8 C -6.35604 -0.46839 -1.06674 0
M  V30 9 C -5.18433 0.055906 -0.52255 0
M  V30 10 C -5.33868 0.944024 0.50518 0
M  V30 11 N -4.14039 1.50902 1.05738 0
M  V30 12 N -6.54849 1.3081 0.986485 0
M  V30 13 C -7.66071 0.787589 0.44632 0
M  V30 14 N -8.96376 1.16717 0.93923 0
M  V30 15 N -7.54733 -0.0865488 -0.564538 0
M  V30 16 C -0.632111 -0.637849 0.399048 0
M  V30 17 C -0.223188 -0.381996 1.69039 0
M  V30 18 C 1.05277 0.0697217 1.9678 0
M  V30 19 C 1.97912 0.284182 0.93591 0
M  V30 20 C 1.59052 0.0343031 -0.346992 0
M  V30 21 C 0.306475 -0.416122 -0.581618 0
M  V30 22 C 3.31106 0.767419 1.21639 0
M  V30 23 O 3.74556 0.710926 2.37153 0
M  V30 24 N 4.11736 1.30555 0.178573 0
M  V30 25 C 5.40931 1.77529 0.490977 0 CFG=1
M  V30 26 C 6.54644 1.17241 -0.234525 0
M  V30 27 C 6.76719 -0.277401 -0.055219 0
M  V30 28 C 5.82534 -1.25286 -0.578839 0
M  V30 29 O 6.02625 -2.58424 -0.106506 0
M  V30 30 O 4.88067 -1.07358 -1.37823 0
M  V30 31 C 5.52321 3.26696 0.287171 0
M  V30 32 O 6.75865 3.83214 0.565442 0
M  V30 33 O 4.59303 3.98459 -0.105824 0
M  V30 34 H -0.333377 -3.15279 -1.2832 0
M  V30 35 H -1.5193 -2.31293 -2.30531 0
M  V30 36 H -1.82363 -3.96839 -1.77749 0
M  V30 37 H -3.12434 -2.91334 -0.116302 0
M  V30 38 H -1.52664 -3.0874 0.632954 0
M  V30 39 H -2.59669 -0.988957 1.01744 0
M  V30 40 H -2.1892 -0.423049 -1.98596 0
M  V30 41 H -2.41385 0.826314 -0.785273 0
M  V30 42 H -4.10882 -1.90235 -2.85305 0
M  V30 43 H -3.65064 0.985143 1.80124 0
M  V30 44 H -3.75999 2.42328 0.730009 0
M  V30 45 H -9.34098 0.654315 1.73919 0
M  V30 46 H -9.50339 1.93154 0.502254 0
M  V30 47 H -0.940617 -0.545939 2.51118 0
M  V30 48 H 1.3724 0.272945 2.99399 0
M  V30 49 H 2.25136 0.168528 -1.22105 0
M  V30 50 H 0.0317785 -0.602032 -1.60918 0
M  V30 51 H 3.75734 1.37747 -0.778827 0
M  V30 52 H 5.63969 1.65587 1.60428 0
M  V30 53 H 6.36692 1.3945 -1.35107 0
M  V30 54 H 7.51149 1.75403 -0.0235742 0
M  V30 55 H 7.81437 -0.490371 -0.469345 0
M  V30 56 H 6.91373 -0.515204 1.06623 0
M  V30 57 H 5.27351 -3.0761 0.334775 0
M  V30 58 H 7.01194 4.71473 0.182038 0
M  V30 END ATOM
M  V30 BEGIN BOND
M  V30 1 1 1 2
M  V30 2 1 2 3
M  V30 3 1 3 4
M  V30 4 1 4 5
M  V30 5 2 5 6
M  V30 6 1 6 7
M  V30 7 1 7 8
M  V30 8 2 8 9
M  V30 9 1 9 10
M  V30 10 1 10 11
M  V30 11 2 10 12
M  V30 12 1 12 13
M  V30 13 1 13 14
M  V30 14 2 13 15
M  V30 15 1 3 16
M  V30 16 2 16 17
M  V30 17 1 17 18
M  V30 18 2 18 19
M  V30 19 1 19 20
M  V30 20 2 20 21
M  V30 21 1 19 22
M  V30 22 2 22 23
M  V30 23 1 22 24
M  V30 24 1 24 25
M  V30 25 1 25 26
M  V30 26 1 26 27
M  V30 27 1 27 28
M  V30 28 1 28 29
M  V30 29 2 28 30
M  V30 30 1 25 31
M  V30 31 1 31 32
M  V30 32 2 31 33
M  V30 33 1 9 5
M  V30 34 1 21 16
M  V30 35 1 15 8
M  V30 36 1 1 34
M  V30 37 1 1 35
M  V30 38 1 1 36
M  V30 39 1 2 37
M  V30 40 1 2 38
M  V30 41 1 3 39
M  V30 42 1 4 40
M  V30 43 1 4 41
M  V30 44 1 6 42
M  V30 45 1 11 43
M  V30 46 1 11 44
M  V30 47 1 14 45
M  V30 48 1 14 46
M  V30 49 1 17 47
M  V30 50 1 18 48
M  V30 51 1 20 49
M  V30 52 1 21 50
M  V30 53 1 24 51
M  V30 54 1 25 52 CFG=1
M  V30 55 1 26 53
M  V30 56 1 26 54
M  V30 57 1 27 55
M  V30 58 1 27 56
M  V30 59 1 29 57
M  V30 60 1 32 58
M  V30 END BOND
M  V30 END CTAB
M  END
