
     RDKit          3D

  0  0  0  0  0  0  0  0  0  0999 V3000
M  V30 BEGIN CTAB
M  V30 COUNTS 19 19 0 0 0
M  V30 BEGIN ATOM
M  V30 1 C -1.98959 0.487103 0.7204 0
M  V30 2 N -1.17501 -0.41453 -0.063923 0
M  V30 3 C 0.21332 -0.557187 0.0898763 0
M  V30 4 N 0.769744 -1.73687 0.419466 0
M  V30 5 C 2.11736 -1.86847 0.567095 0
M  V30 6 N 2.89487 -0.782545 0.374924 0
M  V30 7 C 2.41331 0.411455 0.0483748 0
M  V30 8 C 1.02925 0.535859 -0.100681 0
M  V30 9 N 0.421708 1.76389 -0.446193 0
M  V30 10 Cl 3.4333 1.78905 -0.192516 0
M  V30 11 N -1.84768 -1.18299 -1.03401 0
M  V30 12 H -1.48935 0.860795 1.62343 0
M  V30 13 H -2.34349 1.30028 0.045875 0
M  V30 14 H -2.88979 -0.0723546 1.06154 0
M  V30 15 H 2.57196 -2.81227 0.831596 0
M  V30 16 H 0.0939432 2.42725 0.277368 0
M  V30 17 H 0.299895 2.00925 -1.44308 0
M  V30 18 H -2.83493 -1.34954 -0.79465 0
M  V30 19 H -1.68882 -0.808175 -1.9849 0
M  V30 END ATOM
M  V30 BEGIN BOND
M  V30 1 1 1 2
M  V30 2 1 2 3
M  V30 3 2 3 4
M  V30 4 1 4 5
M  V30 5 2 5 6
M  V30 6 1 6 7
M  V30 7 2 7 8
M  V30 8 1 8 9
M  V30 9 1 7 10
M  V30 10 1 2 11
M  V30 11 1 8 3
M  V30 12 1 1 12
M  V30 13 1 1 13
M  V30 14 1 1 14
M  V30 15 1 5 15
M  V30 16 1 9 16
M  V30 17 1 9 17
M  V30 18 1 11 18
M  V30 19 1 11 19
M  V30 END BOND
M  V30 END CTAB
M  END
