
     RDKit          3D

  0  0  0  0  0  0  0  0  0  0999 V3000
M  V30 BEGIN CTAB
M  V30 COUNTS 45 47 0 0 0
M  V30 BEGIN ATOM
M  V30 1 C -4.10574 2.80586 1.06147 0
M  V30 2 C -4.7194 1.83357 0.118753 0
M  V30 3 C -3.80154 0.805486 -0.450082 0
M  V30 4 C -3.15703 -0.0728506 0.614374 0
M  V30 5 C -2.26896 -1.08679 0.0400344 0
M  V30 6 C -2.86712 -2.23241 -0.453542 0
M  V30 7 C -4.31228 -2.38639 -0.350358 0
M  V30 8 N -5.45441 -2.52396 -0.252194 0
M  V30 9 C -2.20242 -3.27175 -1.03515 0
M  V30 10 N -2.85469 -4.43401 -1.53104 0
M  V30 11 N -0.871067 -3.14345 -1.1195 0
M  V30 12 C -0.239236 -2.02484 -0.642956 0
M  V30 13 C -0.86398 -0.965199 -0.0564719 0
M  V30 14 C -0.0754125 0.0644233 0.351163 0
M  V30 15 N -0.583035 1.28536 0.98526 0
M  V30 16 C 1.27122 -0.0609159 0.135609 0
M  V30 17 S 1.40754 -1.57623 -0.61443 0
M  V30 18 C 2.34952 0.861034 0.47682 0
M  V30 19 O 2.01066 1.93879 1.07643 0
M  V30 20 C 3.72445 0.671393 0.208677 0
M  V30 21 C 4.66076 1.23592 1.07659 0
M  V30 22 C 6.01253 1.11583 0.886385 0
M  V30 23 C 6.44502 0.399609 -0.220687 0
M  V30 24 C 5.56662 -0.174503 -1.10416 0
M  V30 25 C 4.20464 -0.0227562 -0.865389 0
M  V30 26 N 7.84403 0.275983 -0.413988 0 CHG=1
M  V30 27 O 8.24705 -0.367376 -1.4065 0
M  V30 28 O 8.74347 0.849298 0.46849 0 CHG=-1
M  V30 29 H -3.31364 2.41881 1.69997 0
M  V30 30 H -4.92252 3.14436 1.75468 0
M  V30 31 H -3.75261 3.7444 0.55537 0
M  V30 32 H -5.10681 2.42482 -0.7588 0
M  V30 33 H -5.65111 1.35121 0.536394 0
M  V30 34 H -3.0238 1.30466 -1.0752 0
M  V30 35 H -4.37603 0.157876 -1.13533 0
M  V30 36 H -4.06165 -0.652078 1.03465 0
M  V30 37 H -2.80892 0.466213 1.48898 0
M  V30 38 H -3.1188 -5.24738 -0.957406 0
M  V30 39 H -3.07169 -4.44319 -2.55083 0
M  V30 40 H -0.603178 1.30938 2.02339 0
M  V30 41 H -0.905583 2.08459 0.421847 0
M  V30 42 H 4.34081 1.80281 1.95328 0
M  V30 43 H 6.75112 1.54424 1.54471 0
M  V30 44 H 5.94158 -0.724255 -1.95338 0
M  V30 45 H 3.57164 -0.485615 -1.60078 0
M  V30 END ATOM
M  V30 BEGIN BOND
M  V30 1 1 1 2
M  V30 2 1 2 3
M  V30 3 1 3 4
M  V30 4 1 4 5
M  V30 5 2 5 6
M  V30 6 1 6 7
M  V30 7 3 7 8
M  V30 8 1 6 9
M  V30 9 1 9 10
M  V30 10 2 9 11
M  V30 11 1 11 12
M  V30 12 2 12 13
M  V30 13 1 13 14
M  V30 14 1 14 15
M  V30 15 2 14 16
M  V30 16 1 16 17
M  V30 17 1 16 18
M  V30 18 2 18 19
M  V30 19 1 18 20
M  V30 20 2 20 21
M  V30 21 1 21 22
M  V30 22 2 22 23
M  V30 23 1 23 24
M  V30 24 2 24 25
M  V30 25 1 23 26
M  V30 26 2 26 27
M  V30 27 1 26 28
M  V30 28 1 13 5
M  V30 29 1 25 20
M  V30 30 1 17 12
M  V30 31 1 1 29
M  V30 32 1 1 30
M  V30 33 1 1 31
M  V30 34 1 2 32
M  V30 35 1 2 33
M  V30 36 1 3 34
M  V30 37 1 3 35
M  V30 38 1 4 36
M  V30 39 1 4 37
M  V30 40 1 10 38
M  V30 41 1 10 39
M  V30 42 1 15 40
M  V30 43 1 15 41
M  V30 44 1 21 42
M  V30 45 1 22 43
M  V30 46 1 24 44
M  V30 47 1 25 45
M  V30 END BOND
M  V30 END CTAB
M  END
