
     RDKit          3D

  0  0  0  0  0  0  0  0  0  0999 V3000
M  V30 BEGIN CTAB
M  V30 COUNTS 28 29 0 0 0
M  V30 BEGIN ATOM
M  V30 1 N 5.02668 -0.0563372 -0.21713 0
M  V30 2 C 3.62565 -0.268715 -0.233835 0
M  V30 3 C 2.81668 0.624456 -0.903577 0
M  V30 4 C 1.46248 0.389254 -0.90027 0
M  V30 5 C 0.868821 -0.676738 -0.271943 0
M  V30 6 N -0.528801 -0.915359 -0.23529 0
M  V30 7 C -1.5399 0.0579198 -0.145958 0
M  V30 8 C -2.86401 -0.334417 -0.322834 0
M  V30 9 N -3.12097 -1.68908 -0.620844 0
M  V30 10 C -3.92908 0.523344 -0.223462 0
M  V30 11 C -3.69661 1.85071 0.0667664 0
M  V30 12 C -2.40991 2.30414 0.254039 0
M  V30 13 C -1.36335 1.38987 0.142201 0
M  V30 14 C 1.70631 -1.57185 0.401581 0
M  V30 15 C 3.0529 -1.36178 0.413212 0
M  V30 16 H 5.50321 0.0194788 0.696264 0
M  V30 17 H 5.58605 0.024978 -1.09027 0
M  V30 18 H 3.24911 1.49479 -1.4214 0
M  V30 19 H 0.848238 1.10021 -1.45823 0
M  V30 20 H -0.797291 -1.94802 -0.281363 0
M  V30 21 H -3.58274 -1.94217 -1.50376 0
M  V30 22 H -2.84532 -2.42057 0.0467426 0
M  V30 23 H -4.96347 0.201262 -0.364851 0
M  V30 24 H -4.52374 2.52836 0.145897 0
M  V30 25 H -2.21347 3.34139 0.481909 0
M  V30 26 H -0.394569 1.79492 0.320829 0
M  V30 27 H 1.27308 -2.44161 0.918909 0
M  V30 28 H 3.75402 -2.01841 0.91685 0
M  V30 END ATOM
M  V30 BEGIN BOND
M  V30 1 1 1 2
M  V30 2 2 2 3
M  V30 3 1 3 4
M  V30 4 2 4 5
M  V30 5 1 5 6
M  V30 6 1 6 7
M  V30 7 2 7 8
M  V30 8 1 8 9
M  V30 9 1 8 10
M  V30 10 2 10 11
M  V30 11 1 11 12
M  V30 12 2 12 13
M  V30 13 1 5 14
M  V30 14 2 14 15
M  V30 15 1 15 2
M  V30 16 1 13 7
M  V30 17 1 1 16
M  V30 18 1 1 17
M  V30 19 1 3 18
M  V30 20 1 4 19
M  V30 21 1 6 20
M  V30 22 1 9 21
M  V30 23 1 9 22
M  V30 24 1 10 23
M  V30 25 1 11 24
M  V30 26 1 12 25
M  V30 27 1 13 26
M  V30 28 1 14 27
M  V30 29 1 15 28
M  V30 END BOND
M  V30 END CTAB
M  END
