
     RDKit          3D

  0  0  0  0  0  0  0  0  0  0999 V3000
M  V30 BEGIN CTAB
M  V30 COUNTS 26 28 0 0 0
M  V30 BEGIN ATOM
M  V30 1 F -6.13467 0.0493154 0.574113 0
M  V30 2 C -4.77874 0.0611351 0.513955 0
M  V30 3 C -4.14132 0.846839 -0.418763 0
M  V30 4 C -2.74942 0.885242 -0.510986 0
M  V30 5 C -1.97751 0.126919 0.341694 0
M  V30 6 C -2.62091 -0.656556 1.27204 0
M  V30 7 C -3.99812 -0.699323 1.36881 0
M  V30 8 N -0.566747 0.196483 0.212666 0
M  V30 9 N 0.218027 -0.822772 -0.0979239 0
M  V30 10 C 1.50912 -0.435017 -0.142871 0
M  V30 11 C 1.49632 0.910427 0.162138 0
M  V30 12 N 0.214799 1.2757 0.376081 0
M  V30 13 N 2.67821 1.56771 0.189219 0
M  V30 14 C 3.82535 0.916735 -0.0754308 0
M  V30 15 N 3.83433 -0.39236 -0.371837 0
M  V30 16 C 2.7 -1.11427 -0.418389 0
M  V30 17 N 2.66725 -2.50162 -0.728186 0
M  V30 18 N 5.06848 1.63814 -0.0401687 0
M  V30 19 H -4.76633 1.44454 -1.09026 0
M  V30 20 H -2.3084 1.51921 -1.26105 0
M  V30 21 H -2.01958 -1.25208 1.94183 0
M  V30 22 H -4.51852 -1.30977 2.09434 0
M  V30 23 H 1.86264 -2.94647 -1.21671 0
M  V30 24 H 3.47067 -3.10942 -0.463128 0
M  V30 25 H 5.06695 2.66874 0.0882346 0
M  V30 26 H 5.96814 1.13253 -0.142628 0
M  V30 END ATOM
M  V30 BEGIN BOND
M  V30 1 1 1 2
M  V30 2 2 2 3
M  V30 3 1 3 4
M  V30 4 2 4 5
M  V30 5 1 5 6
M  V30 6 2 6 7
M  V30 7 1 5 8
M  V30 8 1 8 9
M  V30 9 2 9 10
M  V30 10 1 10 11
M  V30 11 2 11 12
M  V30 12 1 11 13
M  V30 13 2 13 14
M  V30 14 1 14 15
M  V30 15 2 15 16
M  V30 16 1 16 17
M  V30 17 1 14 18
M  V30 18 1 7 2
M  V30 19 1 12 8
M  V30 20 1 16 10
M  V30 21 1 3 19
M  V30 22 1 4 20
M  V30 23 1 6 21
M  V30 24 1 7 22
M  V30 25 1 17 23
M  V30 26 1 17 24
M  V30 27 1 18 25
M  V30 28 1 18 26
M  V30 END BOND
M  V30 END CTAB
M  END
