
     RDKit          3D

  0  0  0  0  0  0  0  0  0  0999 V3000
M  V30 BEGIN CTAB
M  V30 COUNTS 34 36 0 0 0
M  V30 BEGIN ATOM
M  V30 1 N 6.13093 0.0650196 1.91191 0
M  V30 2 N 4.75445 0.0400726 1.7863 0
M  V30 3 C 4.14445 0.0811093 0.53038 0
M  V30 4 O 4.87524 0.141506 -0.498501 0
M  V30 5 C 2.70104 0.058948 0.316168 0
M  V30 6 N 1.84884 -0.0040839 1.35616 0
M  V30 7 N 0.521414 -0.0243777 1.14995 0
M  V30 8 C 0.0315829 0.0181752 -0.101952 0
M  V30 9 N 0.831364 0.0817474 -1.18235 0
M  V30 10 C 2.17416 0.10099 -0.942656 0
M  V30 11 N 3.04989 0.168398 -2.04451 0
M  V30 12 N 0.117615 0.113092 -2.29997 0
M  V30 13 C -1.18436 0.0703299 -1.97207 0
M  V30 14 C -1.25529 0.0106464 -0.596794 0
M  V30 15 C -2.48019 -0.0462611 0.188423 0
M  V30 16 C -3.05422 1.08772 0.752819 0
M  V30 17 C -4.20803 1.0101 1.49123 0
M  V30 18 C -4.82673 -0.213664 1.68906 0
M  V30 19 C -4.27642 -1.37283 1.13493 0
M  V30 20 C -3.12969 -1.25756 0.407775 0
M  V30 21 C -2.37824 0.0805217 -2.86153 0
M  V30 22 H 6.54342 -0.85559 1.59507 0
M  V30 23 H 6.48322 0.837078 1.29419 0
M  V30 24 H 4.18622 -0.0107668 2.64321 0
M  V30 25 H 3.54345 1.03436 -2.36543 0
M  V30 26 H 3.2339 -0.698717 -2.59424 0
M  V30 27 H -2.57317 2.06455 0.603694 0
M  V30 28 H -4.6933 1.86685 1.95028 0
M  V30 29 H -5.73354 -0.344606 2.25906 0
M  V30 30 H -4.71397 -2.34541 1.25954 0
M  V30 31 H -2.65952 -2.12641 -0.0455935 0
M  V30 32 H -2.60768 1.12604 -3.21543 0
M  V30 33 H -2.12386 -0.473032 -3.80138 0
M  V30 34 H -3.27299 -0.283947 -2.3622 0
M  V30 END ATOM
M  V30 BEGIN BOND
M  V30 1 1 1 2
M  V30 2 1 2 3
M  V30 3 2 3 4
M  V30 4 1 3 5
M  V30 5 1 5 6
M  V30 6 2 6 7
M  V30 7 1 7 8
M  V30 8 1 8 9
M  V30 9 1 9 10
M  V30 10 1 10 11
M  V30 11 1 9 12
M  V30 12 2 12 13
M  V30 13 1 13 14
M  V30 14 1 14 15
M  V30 15 2 15 16
M  V30 16 1 16 17
M  V30 17 2 17 18
M  V30 18 1 18 19
M  V30 19 2 19 20
M  V30 20 1 13 21
M  V30 21 2 10 5
M  V30 22 1 20 15
M  V30 23 2 14 8
M  V30 24 1 1 22
M  V30 25 1 1 23
M  V30 26 1 2 24
M  V30 27 1 11 25
M  V30 28 1 11 26
M  V30 29 1 16 27
M  V30 30 1 17 28
M  V30 31 1 18 29
M  V30 32 1 19 30
M  V30 33 1 20 31
M  V30 34 1 21 32
M  V30 35 1 21 33
M  V30 36 1 21 34
M  V30 END BOND
M  V30 END CTAB
M  END
