
     RDKit          3D

  0  0  0  0  0  0  0  0  0  0999 V3000
M  V30 BEGIN CTAB
M  V30 COUNTS 27 26 0 0 0
M  V30 BEGIN ATOM
M  V30 1 N 4.79614 1.1978 -0.189321 0
M  V30 2 C 3.72752 0.253588 -0.102406 0
M  V30 3 N 3.93536 -1.01353 -0.0761823 0
M  V30 4 C 2.35003 0.758999 -0.0413708 0
M  V30 5 C 1.30306 -0.325226 0.0451621 0
M  V30 6 C -0.0399962 0.375182 0.099543 0
M  V30 7 C -1.19129 -0.598262 0.188813 0
M  V30 8 C -2.46514 0.220572 0.236246 0
M  V30 9 C -3.67108 -0.620278 0.324912 0
M  V30 10 N -4.93034 0.0168936 0.37676 0
M  V30 11 N -3.64914 -1.91095 0.358395 0
M  V30 12 H 4.87863 1.82957 -1.00778 0
M  V30 13 H 5.48537 1.24318 0.573263 0
M  V30 14 H 3.12445 -1.65523 -0.0124448 0
M  V30 15 H 2.09128 1.41584 -0.893609 0
M  V30 16 H 2.22096 1.38229 0.890563 0
M  V30 17 H 1.40261 -0.968642 -0.839391 0
M  V30 18 H 1.4704 -0.961821 0.940641 0
M  V30 19 H -0.111816 1.01504 -0.803551 0
M  V30 20 H -0.0542031 1.04856 0.976535 0
M  V30 21 H -1.19441 -1.28989 -0.677838 0
M  V30 22 H -1.0463 -1.21959 1.09461 0
M  V30 23 H -2.4509 0.869556 -0.667721 0
M  V30 24 H -2.44099 0.896548 1.11253 0
M  V30 25 H -5.30544 0.329966 1.28473 0
M  V30 26 H -5.47675 0.171282 -0.484623 0
M  V30 27 H -2.75803 -2.46145 0.324368 0
M  V30 END ATOM
M  V30 BEGIN BOND
M  V30 1 1 1 2
M  V30 2 2 2 3 CFG=2
M  V30 3 1 2 4
M  V30 4 1 4 5
M  V30 5 1 5 6
M  V30 6 1 6 7
M  V30 7 1 7 8
M  V30 8 1 8 9
M  V30 9 1 9 10
M  V30 10 2 9 11 CFG=2
M  V30 11 1 1 12
M  V30 12 1 1 13
M  V30 13 1 3 14
M  V30 14 1 4 15
M  V30 15 1 4 16
M  V30 16 1 5 17
M  V30 17 1 5 18
M  V30 18 1 6 19
M  V30 19 1 6 20
M  V30 20 1 7 21
M  V30 21 1 7 22
M  V30 22 1 8 23
M  V30 23 1 8 24
M  V30 24 1 10 25
M  V30 25 1 10 26
M  V30 26 1 11 27
M  V30 END BOND
M  V30 END CTAB
M  END
