
     RDKit          3D

  0  0  0  0  0  0  0  0  0  0999 V3000
M  V30 BEGIN CTAB
M  V30 COUNTS 31 31 0 0 0
M  V30 BEGIN ATOM
M  V30 1 O -0.685859 -1.73662 1.99641 0
M  V30 2 C -1.47009 -1.70347 0.817324 0
M  V30 3 C -0.983978 -0.442209 0.0891015 0
M  V30 4 C -1.73188 -0.308745 -1.17506 0
M  V30 5 C -3.01292 0.393451 -0.766897 0
M  V30 6 C -2.91886 0.734903 0.678993 0
M  V30 7 C -1.42958 0.738656 0.942481 0
M  V30 8 C 0.489379 -0.518979 0.0338625 0
M  V30 9 N 1.15632 0.559455 -0.605408 0
M  V30 10 C 2.57254 0.607749 -0.536464 0
M  V30 11 N 3.18935 1.48356 0.176432 0
M  V30 12 N 4.56564 1.59649 0.296909 0
M  V30 13 N 3.35365 -0.313278 -1.25538 0
M  V30 14 H 0.135653 -2.28347 1.79849 0
M  V30 15 H -2.54007 -1.68946 1.00684 0
M  V30 16 H -1.17479 -2.59294 0.184955 0
M  V30 17 H -1.25436 0.228547 -1.99332 0
M  V30 18 H -2.05598 -1.32316 -1.54742 0
M  V30 19 H -3.90502 -0.209318 -0.933574 0
M  V30 20 H -3.13637 1.3482 -1.34807 0
M  V30 21 H -3.29009 1.76535 0.905811 0
M  V30 22 H -3.47327 0.0707673 1.36907 0
M  V30 23 H -1.00747 1.69247 0.529627 0
M  V30 24 H -1.21374 0.585318 2.00746 0
M  V30 25 H 0.794611 -1.51711 -0.31251 0
M  V30 26 H 0.832797 -0.490718 1.11789 0
M  V30 27 H 0.646002 1.29161 -1.11645 0
M  V30 28 H 5.202 0.873629 0.693996 0
M  V30 29 H 5.06049 2.46421 -0.0299673 0
M  V30 30 H 4.00964 -0.929243 -0.745019 0
M  V30 31 H 3.27626 -0.375663 -2.28012 0
M  V30 END ATOM
M  V30 BEGIN BOND
M  V30 1 1 1 2
M  V30 2 1 2 3
M  V30 3 1 3 4
M  V30 4 1 4 5
M  V30 5 1 5 6
M  V30 6 1 6 7
M  V30 7 1 3 8
M  V30 8 1 8 9
M  V30 9 1 9 10
M  V30 10 2 10 11 CFG=2
M  V30 11 1 11 12
M  V30 12 1 10 13
M  V30 13 1 7 3
M  V30 14 1 1 14
M  V30 15 1 2 15
M  V30 16 1 2 16
M  V30 17 1 4 17
M  V30 18 1 4 18
M  V30 19 1 5 19
M  V30 20 1 5 20
M  V30 21 1 6 21
M  V30 22 1 6 22
M  V30 23 1 7 23
M  V30 24 1 7 24
M  V30 25 1 8 25
M  V30 26 1 8 26
M  V30 27 1 9 27
M  V30 28 1 12 28
M  V30 29 1 12 29
M  V30 30 1 13 30
M  V30 31 1 13 31
M  V30 END BOND
M  V30 END CTAB
M  END
