
     RDKit          3D

  0  0  0  0  0  0  0  0  0  0999 V3000
M  V30 BEGIN CTAB
M  V30 COUNTS 27 27 0 0 0
M  V30 BEGIN ATOM
M  V30 1 N 3.16108 -0.302437 -2.00685 0
M  V30 2 C 2.82288 -1.07323 -0.832002 0
M  V30 3 C 1.87777 -0.317212 0.0597476 0
M  V30 4 C 2.35797 0.511255 1.05465 0
M  V30 5 C 1.48388 1.20365 1.87121 0
M  V30 6 C 0.118898 1.09344 1.72364 0
M  V30 7 C -0.376397 0.26971 0.734221 0
M  V30 8 C 0.511036 -0.420988 -0.0801635 0
M  V30 9 N -1.78159 0.125566 0.545654 0
M  V30 10 S -2.71846 1.10813 -0.485722 0
M  V30 11 O -4.11405 1.28648 0.0529436 0
M  V30 12 O -2.13475 2.50721 -0.615997 0
M  V30 13 N -2.78186 0.438426 -2.05858 0
M  V30 14 C -2.419 -0.95168 1.30967 0
M  V30 15 H 4.10029 -0.541819 -2.38389 0
M  V30 16 H 2.4265 -0.294823 -2.71947 0
M  V30 17 H 2.36803 -2.06729 -1.10753 0
M  V30 18 H 3.76253 -1.31358 -0.294508 0
M  V30 19 H 3.43658 0.587947 1.15886 0
M  V30 20 H 1.85327 1.85401 2.65212 0
M  V30 21 H -0.541646 1.65105 2.38175 0
M  V30 22 H 0.167727 -1.08623 -0.878562 0
M  V30 23 H -2.15286 -0.368353 -2.20328 0
M  V30 24 H -3.73675 0.310357 -2.42364 0
M  V30 25 H -1.82916 -1.87977 1.08053 0
M  V30 26 H -3.48112 -1.0672 1.05629 0
M  V30 27 H -2.3808 -0.727503 2.40891 0
M  V30 END ATOM
M  V30 BEGIN BOND
M  V30 1 1 1 2
M  V30 2 1 2 3
M  V30 3 2 3 4
M  V30 4 1 4 5
M  V30 5 2 5 6
M  V30 6 1 6 7
M  V30 7 2 7 8
M  V30 8 1 7 9
M  V30 9 1 9 10
M  V30 10 2 10 11
M  V30 11 2 10 12
M  V30 12 1 10 13
M  V30 13 1 9 14
M  V30 14 1 8 3
M  V30 15 1 1 15
M  V30 16 1 1 16
M  V30 17 1 2 17
M  V30 18 1 2 18
M  V30 19 1 4 19
M  V30 20 1 5 20
M  V30 21 1 6 21
M  V30 22 1 8 22
M  V30 23 1 13 23
M  V30 24 1 13 24
M  V30 25 1 14 25
M  V30 26 1 14 26
M  V30 27 1 14 27
M  V30 END BOND
M  V30 END CTAB
M  END
