
     RDKit          3D

  0  0  0  0  0  0  0  0  0  0999 V3000
M  V30 BEGIN CTAB
M  V30 COUNTS 28 28 0 0 0
M  V30 BEGIN ATOM
M  V30 1 N 4.48183 0.445248 0.615066 0
M  V30 2 C 3.49526 -0.508562 0.150434 0
M  V30 3 C 2.14114 0.151464 0.28819 0
M  V30 4 N 1.06915 -0.728245 -0.154992 0
M  V30 5 C -0.251083 -0.20587 -0.0683253 0
M  V30 6 C -0.509347 1.06357 0.408375 0
M  V30 7 C -1.79087 1.56395 0.489893 0
M  V30 8 C -2.07169 2.88502 0.9849 0
M  V30 9 N -2.28239 3.94659 1.39424 0
M  V30 10 C -2.81676 0.730598 0.0691575 0
M  V30 11 C -2.57495 -0.540159 -0.409543 0
M  V30 12 C -1.29331 -1.03854 -0.490269 0
M  V30 13 C -0.98061 -2.39401 -0.995969 0
M  V30 14 N -4.12961 1.23683 0.150172 0
M  V30 15 H 5.39104 0.373263 0.151501 0
M  V30 16 H 4.48517 0.448025 1.64055 0
M  V30 17 H 3.58971 -1.40912 0.790094 0
M  V30 18 H 3.68783 -0.795427 -0.899098 0
M  V30 19 H 2.15984 1.08446 -0.297633 0
M  V30 20 H 1.95398 0.383878 1.35044 0
M  V30 21 H 1.25387 -1.68309 -0.51441 0
M  V30 22 H 0.341161 1.67272 0.725004 0
M  V30 23 H -3.385 -1.19859 -0.741907 0
M  V30 24 H -0.188041 -2.38091 -1.77741 0
M  V30 25 H -0.603987 -3.06808 -0.181609 0
M  V30 26 H -1.91327 -2.87083 -1.35997 0
M  V30 27 H -4.42658 2.09494 -0.357481 0
M  V30 28 H -4.83248 0.740869 0.736049 0
M  V30 END ATOM
M  V30 BEGIN BOND
M  V30 1 1 1 2
M  V30 2 1 2 3
M  V30 3 1 3 4
M  V30 4 1 4 5
M  V30 5 2 5 6
M  V30 6 1 6 7
M  V30 7 1 7 8
M  V30 8 3 8 9
M  V30 9 2 7 10
M  V30 10 1 10 11
M  V30 11 2 11 12
M  V30 12 1 12 13
M  V30 13 1 10 14
M  V30 14 1 12 5
M  V30 15 1 1 15
M  V30 16 1 1 16
M  V30 17 1 2 17
M  V30 18 1 2 18
M  V30 19 1 3 19
M  V30 20 1 3 20
M  V30 21 1 4 21
M  V30 22 1 6 22
M  V30 23 1 11 23
M  V30 24 1 13 24
M  V30 25 1 13 25
M  V30 26 1 13 26
M  V30 27 1 14 27
M  V30 28 1 14 28
M  V30 END BOND
M  V30 END CTAB
M  END
