
     RDKit          3D

  0  0  0  0  0  0  0  0  0  0999 V3000
M  V30 BEGIN CTAB
M  V30 COUNTS 23 24 0 0 0
M  V30 BEGIN ATOM
M  V30 1 N 3.05988 -1.79284 1.56066 0
M  V30 2 C 2.38339 -0.894954 0.683606 0
M  V30 3 N 1.04899 -0.801055 0.730104 0
M  V30 4 C 0.348745 0.022886 -0.0660019 0
M  V30 5 N 1.02227 0.780001 -0.941596 0
M  V30 6 C 2.35008 0.711767 -1.01456 0
M  V30 7 N 3.11711 1.4947 -1.92772 0
M  V30 8 N 3.0284 -0.121877 -0.205775 0
M  V30 9 C -1.0982 0.0569712 0.056199 0
M  V30 10 C -1.75886 -0.732156 0.964263 0
M  V30 11 C -3.14798 -0.709574 1.09236 0
M  V30 12 Br -4.05527 -1.80071 2.34725 0
M  V30 13 C -3.83837 0.149588 0.257983 0
M  V30 14 C -3.21925 0.956824 -0.664717 0
M  V30 15 C -1.82259 0.896999 -0.754201 0
M  V30 16 Br -0.877518 1.98065 -2.00536 0
M  V30 17 H 3.51756 -2.63972 1.1889 0
M  V30 18 H 3.0566 -1.53511 2.57784 0
M  V30 19 H 2.74528 2.396 -2.25378 0
M  V30 20 H 4.04778 1.18684 -2.28076 0
M  V30 21 H -1.20047 -1.39846 1.60883 0
M  V30 22 H -4.93038 0.17169 0.354102 0
M  V30 23 H -3.77719 1.62153 -1.30763 0
M  V30 END ATOM
M  V30 BEGIN BOND
M  V30 1 1 1 2
M  V30 2 2 2 3
M  V30 3 1 3 4
M  V30 4 2 4 5
M  V30 5 1 5 6
M  V30 6 1 6 7
M  V30 7 2 6 8
M  V30 8 1 4 9
M  V30 9 2 9 10
M  V30 10 1 10 11
M  V30 11 1 11 12
M  V30 12 2 11 13
M  V30 13 1 13 14
M  V30 14 2 14 15
M  V30 15 1 15 16
M  V30 16 1 8 2
M  V30 17 1 15 9
M  V30 18 1 1 17
M  V30 19 1 1 18
M  V30 20 1 7 19
M  V30 21 1 7 20
M  V30 22 1 10 21
M  V30 23 1 13 22
M  V30 24 1 14 23
M  V30 END BOND
M  V30 END CTAB
M  END
