
     RDKit          3D

  0  0  0  0  0  0  0  0  0  0999 V3000
M  V30 BEGIN CTAB
M  V30 COUNTS 19 18 0 0 0
M  V30 BEGIN ATOM
M  V30 1 C -2.13938 -0.213881 -0.266673 0
M  V30 2 C -0.896517 0.652904 -0.270217 0 CFG=2
M  V30 3 C 0.296596 -0.277032 -0.207364 0 CFG=1
M  V30 4 C 1.55534 0.562035 -0.254749 0
M  V30 5 N 2.7316 -0.305257 -0.195629 0
M  V30 6 N 0.214135 -1.07348 0.979359 0
M  V30 7 O -0.849842 1.45338 0.862573 0
M  V30 8 H -2.07434 -0.884505 -1.1415 0
M  V30 9 H -3.01136 0.447982 -0.362165 0
M  V30 10 H -2.15036 -0.82211 0.65409 0
M  V30 11 H -0.800234 1.22394 -1.21466 0
M  V30 12 H 0.274775 -0.923287 -1.1107 0
M  V30 13 H 1.63181 1.10416 -1.21808 0
M  V30 14 H 1.60147 1.29306 0.553597 0
M  V30 15 H 2.96305 -0.714374 -1.10975 0
M  V30 16 H 2.71222 -0.958754 0.594384 0
M  V30 17 H -0.329097 -1.94672 0.857101 0
M  V30 18 H -0.0158769 -0.537005 1.82159 0
M  V30 19 H -1.714 1.91894 1.0288 0
M  V30 END ATOM
M  V30 BEGIN BOND
M  V30 1 1 1 2
M  V30 2 1 2 3
M  V30 3 1 3 4
M  V30 4 1 4 5
M  V30 5 1 3 6
M  V30 6 1 2 7
M  V30 7 1 1 8
M  V30 8 1 1 9
M  V30 9 1 1 10
M  V30 10 1 2 11 CFG=3
M  V30 11 1 3 12 CFG=3
M  V30 12 1 4 13
M  V30 13 1 4 14
M  V30 14 1 5 15
M  V30 15 1 5 16
M  V30 16 1 6 17
M  V30 17 1 6 18
M  V30 18 1 7 19
M  V30 END BOND
M  V30 END CTAB
M  END
