
     RDKit          3D

  0  0  0  0  0  0  0  0  0  0999 V3000
M  V30 BEGIN CTAB
M  V30 COUNTS 31 32 0 0 0
M  V30 BEGIN ATOM
M  V30 1 N 5.01537 -0.793861 -0.47991 0
M  V30 2 C 3.68044 -0.498813 -0.120405 0
M  V30 3 N 3.16905 -0.153866 1.05246 0
M  V30 4 N 1.88654 0.017021 0.895422 0
M  V30 5 C 1.53407 -0.216579 -0.399975 0
M  V30 6 N 2.66044 -0.535533 -1.0158 0
M  V30 7 C 0.119451 -0.0921447 -0.859062 0
M  V30 8 C -0.52556 1.10818 -0.518651 0
M  V30 9 C -1.22415 2.26406 -0.134579 0
M  V30 10 C -2.4645 1.77039 0.68752 0
M  V30 11 C -2.30484 0.329015 1.13475 0
M  V30 12 C -2.10296 -0.761227 0.221293 0
M  V30 13 C -0.715292 -1.24325 -0.19259 0
M  V30 14 N -0.88554 -2.31503 -1.11751 0
M  V30 15 H 5.58279 -1.40858 0.126534 0
M  V30 16 H 5.45486 -0.411902 -1.34168 0
M  V30 17 H 3.70609 -0.0429497 1.93267 0
M  V30 18 H 0.197444 -0.350724 -1.95704 0
M  V30 19 H -0.334108 0.865892 0.565913 0
M  V30 20 H -1.44426 0.761786 -1.079 0
M  V30 21 H -1.6037 2.92889 -0.955557 0
M  V30 22 H -0.681065 3.01238 0.510673 0
M  V30 23 H -2.5641 2.37218 1.58408 0
M  V30 24 H -3.36526 1.84198 0.0795456 0
M  V30 25 H -3.29972 0.15369 1.66307 0
M  V30 26 H -1.59392 0.237088 2.01113 0
M  V30 27 H -2.78736 -0.694478 -0.679559 0
M  V30 28 H -2.51187 -1.70358 0.715596 0
M  V30 29 H -0.195532 -1.531 0.746256 0
M  V30 30 H -1.78033 -2.79834 -0.985392 0
M  V30 31 H -0.622473 -2.11067 -2.09021 0
M  V30 END ATOM
M  V30 BEGIN BOND
M  V30 1 1 1 2
M  V30 2 1 2 3
M  V30 3 1 3 4
M  V30 4 2 4 5
M  V30 5 1 5 6
M  V30 6 1 5 7
M  V30 7 1 7 8
M  V30 8 1 8 9
M  V30 9 1 9 10
M  V30 10 1 10 11
M  V30 11 1 11 12
M  V30 12 1 12 13
M  V30 13 1 13 14
M  V30 14 2 6 2
M  V30 15 1 13 7
M  V30 16 1 1 15
M  V30 17 1 1 16
M  V30 18 1 3 17
M  V30 19 1 7 18
M  V30 20 1 8 19
M  V30 21 1 8 20
M  V30 22 1 9 21
M  V30 23 1 9 22
M  V30 24 1 10 23
M  V30 25 1 10 24
M  V30 26 1 11 25
M  V30 27 1 11 26
M  V30 28 1 12 27
M  V30 29 1 12 28
M  V30 30 1 13 29
M  V30 31 1 14 30
M  V30 32 1 14 31
M  V30 END BOND
M  V30 END CTAB
M  END
