
     RDKit          3D

  0  0  0  0  0  0  0  0  0  0999 V3000
M  V30 BEGIN CTAB
M  V30 COUNTS 62 67 0 0 0
M  V30 BEGIN ATOM
M  V30 1 C -0.620196 3.95257 -1.88573 0
M  V30 2 C -0.720857 3.04045 -0.682543 0
M  V30 3 C -0.206307 3.82174 0.504441 0
M  V30 4 C -2.15994 2.66269 -0.509496 0
M  V30 5 C -2.35776 1.23051 -0.197428 0
M  V30 6 N -3.49642 0.685511 -0.436494 0
M  V30 7 N -4.58636 1.32102 -0.971369 0
M  V30 8 C -1.23417 0.476927 0.387492 0
M  V30 9 C 0.0392555 0.768683 0.0528015 0
M  V30 10 C 0.178349 1.86706 -0.920898 0
M  V30 11 N 1.16414 0.102413 0.587176 0
M  V30 12 C 0.928511 -0.935888 1.53221 0
M  V30 13 C -0.361191 -1.25357 1.88654 0
M  V30 14 C -1.57387 -0.61268 1.32075 0
M  V30 15 C -2.42015 -1.66096 0.648147 0
M  V30 16 C -3.51491 -2.12894 1.32228 0
M  V30 17 C -4.28665 -3.10413 0.712253 0
M  V30 18 C -3.98618 -3.60851 -0.537053 0
M  V30 19 C -2.88081 -3.12446 -1.19832 0
M  V30 20 C -2.09056 -2.15373 -0.620494 0
M  V30 21 C -0.229289 -2.27032 2.83582 0
M  V30 22 N -1.27373 -2.95248 3.5225 0
M  V30 23 N 1.07726 -2.5275 3.02 0
M  V30 24 N 1.78017 -1.73911 2.24881 0
M  V30 25 C 2.48054 0.387753 0.224585 0
M  V30 26 C 3.04286 1.58232 0.595131 0
M  V30 27 C 4.31886 1.90353 0.256898 0
M  V30 28 C 5.07669 1.03307 -0.467958 0
M  V30 29 C 4.56077 -0.178671 -0.866567 0
M  V30 30 C 3.23981 -0.489016 -0.506018 0
M  V30 31 C 2.76727 -1.69433 -0.940584 0
M  V30 32 C 3.55904 -2.54644 -1.68776 0
M  V30 33 C 4.85046 -2.22995 -2.03094 0
M  V30 34 C 5.35576 -1.02123 -1.60966 0
M  V30 35 H 0.422912 3.96348 -2.26022 0
M  V30 36 H -1.33467 3.58051 -2.64415 0
M  V30 37 H -0.96822 4.94849 -1.55926 0
M  V30 38 H 0.854 4.09282 0.336594 0
M  V30 39 H -0.773376 4.77249 0.565461 0
M  V30 40 H -0.276586 3.23846 1.44415 0
M  V30 41 H -2.57224 3.27559 0.317091 0
M  V30 42 H -2.76509 2.89648 -1.40707 0
M  V30 43 H -4.94448 1.06972 -1.89571 0
M  V30 44 H -5.04138 2.0822 -0.387782 0
M  V30 45 H 1.19947 2.14217 -1.09261 0
M  V30 46 H -0.178466 1.42141 -1.90546 0
M  V30 47 H -2.18455 -0.233864 2.17954 0
M  V30 48 H -3.81976 -1.7872 2.30402 0
M  V30 49 H -5.16031 -3.47906 1.24789 0
M  V30 50 H -4.62797 -4.37676 -0.97268 0
M  V30 51 H -2.64982 -3.52457 -2.17942 0
M  V30 52 H -1.21102 -1.76225 -1.13613 0
M  V30 53 H -1.49364 -3.92106 3.16714 0
M  V30 54 H -1.80018 -2.54404 4.32455 0
M  V30 55 H 2.82578 -1.74621 2.20937 0
M  V30 56 H 2.48681 2.33033 1.18069 0
M  V30 57 H 4.76595 2.84381 0.547078 0
M  V30 58 H 6.10804 1.2692 -0.75195 0
M  V30 59 H 1.74275 -1.98205 -0.711373 0
M  V30 60 H 3.17301 -3.50316 -2.0275 0
M  V30 61 H 5.43979 -2.93314 -2.62165 0
M  V30 62 H 6.36286 -0.73812 -1.85916 0
M  V30 END ATOM
M  V30 BEGIN BOND
M  V30 1 1 1 2
M  V30 2 1 2 3
M  V30 3 1 2 4
M  V30 4 1 4 5
M  V30 5 2 5 6 CFG=2
M  V30 6 1 6 7
M  V30 7 1 5 8
M  V30 8 2 8 9
M  V30 9 1 9 10
M  V30 10 1 9 11
M  V30 11 1 11 12
M  V30 12 2 12 13
M  V30 13 1 13 14
M  V30 14 1 14 15
M  V30 15 2 15 16
M  V30 16 1 16 17
M  V30 17 2 17 18
M  V30 18 1 18 19
M  V30 19 2 19 20
M  V30 20 1 13 21
M  V30 21 1 21 22
M  V30 22 2 21 23
M  V30 23 1 23 24
M  V30 24 1 11 25
M  V30 25 2 25 26
M  V30 26 1 26 27
M  V30 27 2 27 28
M  V30 28 1 28 29
M  V30 29 2 29 30
M  V30 30 1 30 31
M  V30 31 2 31 32
M  V30 32 1 32 33
M  V30 33 2 33 34
M  V30 34 1 10 2
M  V30 35 1 24 12
M  V30 36 1 30 25
M  V30 37 1 14 8
M  V30 38 1 20 15
M  V30 39 1 34 29
M  V30 40 1 1 35
M  V30 41 1 1 36
M  V30 42 1 1 37
M  V30 43 1 3 38
M  V30 44 1 3 39
M  V30 45 1 3 40
M  V30 46 1 4 41
M  V30 47 1 4 42
M  V30 48 1 7 43
M  V30 49 1 7 44
M  V30 50 1 10 45
M  V30 51 1 10 46
M  V30 52 1 14 47
M  V30 53 1 16 48
M  V30 54 1 17 49
M  V30 55 1 18 50
M  V30 56 1 19 51
M  V30 57 1 20 52
M  V30 58 1 22 53
M  V30 59 1 22 54
M  V30 60 1 24 55
M  V30 61 1 26 56
M  V30 62 1 27 57
M  V30 63 1 28 58
M  V30 64 1 31 59
M  V30 65 1 32 60
M  V30 66 1 33 61
M  V30 67 1 34 62
M  V30 END BOND
M  V30 END CTAB
M  END
