
     RDKit          3D

  0  0  0  0  0  0  0  0  0  0999 V3000
M  V30 BEGIN CTAB
M  V30 COUNTS 25 25 0 0 0
M  V30 BEGIN ATOM
M  V30 1 C 4.22884 -0.265542 -0.679724 0
M  V30 2 O 3.27779 -0.216914 0.36893 0
M  V30 3 C 1.92056 -0.0946765 0.15057 0
M  V30 4 O 1.55536 -0.0284855 -1.05094 0
M  V30 5 C 0.913984 -0.038471 1.23467 0
M  V30 6 C -0.428836 0.0590615 0.61735 0
M  V30 7 C -1.05991 1.30124 0.552597 0
M  V30 8 C -2.30134 1.3535 -0.0439944 0
M  V30 9 N -2.97172 2.59659 -0.134935 0
M  V30 10 C -2.90636 0.210955 -0.563144 0
M  V30 11 C -2.26513 -1.01668 -0.488964 0
M  V30 12 C -1.00905 -1.08312 0.111543 0
M  V30 13 N -0.327071 -2.30126 0.213197 0
M  V30 14 Br -3.03965 -2.61287 -1.17864 0
M  V30 15 H 4.344 0.788693 -1.06464 0
M  V30 16 H 3.89027 -0.885989 -1.53664 0
M  V30 17 H 5.19541 -0.677599 -0.336058 0
M  V30 18 H 1.04541 0.839067 1.89732 0
M  V30 19 H 0.959054 -0.995153 1.83083 0
M  V30 20 H -0.571599 2.18097 0.966955 0
M  V30 21 H -2.68741 3.29736 -0.842912 0
M  V30 22 H -3.75724 2.82435 0.503785 0
M  V30 23 H -3.8702 0.293957 -1.01895 0
M  V30 24 H -0.0733743 -2.68982 1.13988 0
M  V30 25 H -0.0617834 -2.83915 -0.648093 0
M  V30 END ATOM
M  V30 BEGIN BOND
M  V30 1 1 1 2
M  V30 2 1 2 3
M  V30 3 2 3 4
M  V30 4 1 3 5
M  V30 5 1 5 6
M  V30 6 2 6 7
M  V30 7 1 7 8
M  V30 8 1 8 9
M  V30 9 2 8 10
M  V30 10 1 10 11
M  V30 11 2 11 12
M  V30 12 1 12 13
M  V30 13 1 11 14
M  V30 14 1 12 6
M  V30 15 1 1 15
M  V30 16 1 1 16
M  V30 17 1 1 17
M  V30 18 1 5 18
M  V30 19 1 5 19
M  V30 20 1 7 20
M  V30 21 1 9 21
M  V30 22 1 9 22
M  V30 23 1 10 23
M  V30 24 1 13 24
M  V30 25 1 13 25
M  V30 END BOND
M  V30 END CTAB
M  END
