
     RDKit          3D

  0  0  0  0  0  0  0  0  0  0999 V3000
M  V30 BEGIN CTAB
M  V30 COUNTS 24 25 0 0 0
M  V30 BEGIN ATOM
M  V30 1 N 3.55686 -0.551096 1.09632 0
M  V30 2 C 2.25034 -0.309155 0.549033 0
M  V30 3 C 1.13459 -0.545692 1.30233 0
M  V30 4 C -0.149413 -0.320687 0.79965 0
M  V30 5 C -0.314509 0.148026 -0.476125 0
M  V30 6 C 0.843244 0.377247 -1.21323 0
M  V30 7 C 2.10794 0.16039 -0.731348 0
M  V30 8 N 3.26583 0.406177 -1.51412 0
M  V30 9 F 0.747572 0.84456 -2.4917 0
M  V30 10 O -1.48617 0.39487 -1.04811 0
M  V30 11 C -2.80902 0.335532 -0.738885 0
M  V30 12 C -3.47961 -0.659967 0.118381 0
M  V30 13 C -3.3726 0.755729 0.597167 0
M  V30 14 H 3.64229 -1.01954 2.01694 0
M  V30 15 H 4.38205 -0.255126 0.564665 0
M  V30 16 H 1.24374 -0.919476 2.32198 0
M  V30 17 H -0.953649 -0.540672 1.47353 0
M  V30 18 H 3.88636 -0.351129 -1.87545 0
M  V30 19 H 3.50477 1.4089 -1.73795 0
M  V30 20 H -3.48944 0.713024 -1.58084 0
M  V30 21 H -2.93459 -1.48326 0.604525 0
M  V30 22 H -4.53503 -0.966768 -0.107936 0
M  V30 23 H -2.73143 0.992766 1.44896 0
M  V30 24 H -4.31016 1.38534 0.622204 0
M  V30 END ATOM
M  V30 BEGIN BOND
M  V30 1 1 1 2
M  V30 2 2 2 3
M  V30 3 1 3 4
M  V30 4 2 4 5
M  V30 5 1 5 6
M  V30 6 2 6 7
M  V30 7 1 7 8
M  V30 8 1 6 9
M  V30 9 1 5 10
M  V30 10 1 10 11
M  V30 11 1 11 12
M  V30 12 1 12 13
M  V30 13 1 7 2
M  V30 14 1 13 11
M  V30 15 1 1 14
M  V30 16 1 1 15
M  V30 17 1 3 16
M  V30 18 1 4 17
M  V30 19 1 8 18
M  V30 20 1 8 19
M  V30 21 1 11 20
M  V30 22 1 12 21
M  V30 23 1 12 22
M  V30 24 1 13 23
M  V30 25 1 13 24
M  V30 END BOND
M  V30 END CTAB
M  END
