
     RDKit          3D

  0  0  0  0  0  0  0  0  0  0999 V3000
M  V30 BEGIN CTAB
M  V30 COUNTS 26 27 0 0 0
M  V30 BEGIN ATOM
M  V30 1 N -2.95191 -1.26895 1.96454 0
M  V30 2 C -2.29089 -0.723657 0.813233 0
M  V30 3 C -2.98441 -0.406856 -0.332979 0
M  V30 4 C -2.35894 0.114711 -1.4409 0
M  V30 5 C -0.968043 0.33983 -1.42702 0
M  V30 6 C -0.251312 0.037866 -0.304435 0
M  V30 7 C -0.92896 -0.496009 0.813648 0
M  V30 8 C 1.17054 0.373102 -0.190811 0
M  V30 9 C 1.84466 1.4143 -0.782217 0
M  V30 10 N 1.35939 2.52439 -1.5127 0
M  V30 11 C 3.20717 1.24557 -0.482814 0
M  V30 12 N 3.29059 0.152726 0.249345 0
M  V30 13 N 2.1012 -0.396161 0.445195 0
M  V30 14 C 1.90984 -1.6166 1.1743 0
M  V30 15 F -0.406751 0.787773 -2.57006 0
M  V30 16 H -2.51863 -2.03655 2.53489 0
M  V30 17 H -3.88017 -0.93516 2.2863 0
M  V30 18 H -4.0516 -0.581955 -0.338964 0
M  V30 19 H -2.90478 0.363169 -2.33905 0
M  V30 20 H -0.398524 -0.716192 1.72543 0
M  V30 21 H 1.74779 2.76539 -2.44769 0
M  V30 22 H 0.599373 3.12962 -1.13081 0
M  V30 23 H 3.98341 1.90784 -0.81241 0
M  V30 24 H 1.73576 -1.49659 2.2574 0
M  V30 25 H 2.86651 -2.23109 1.08757 0
M  V30 26 H 1.07869 -2.25052 0.761024 0
M  V30 END ATOM
M  V30 BEGIN BOND
M  V30 1 1 1 2
M  V30 2 2 2 3
M  V30 3 1 3 4
M  V30 4 2 4 5
M  V30 5 1 5 6
M  V30 6 2 6 7
M  V30 7 1 6 8
M  V30 8 2 8 9
M  V30 9 1 9 10
M  V30 10 1 9 11
M  V30 11 2 11 12
M  V30 12 1 12 13
M  V30 13 1 13 14
M  V30 14 1 5 15
M  V30 15 1 7 2
M  V30 16 1 13 8
M  V30 17 1 1 16
M  V30 18 1 1 17
M  V30 19 1 3 18
M  V30 20 1 4 19
M  V30 21 1 7 20
M  V30 22 1 10 21
M  V30 23 1 10 22
M  V30 24 1 11 23
M  V30 25 1 14 24
M  V30 26 1 14 25
M  V30 27 1 14 26
M  V30 END BOND
M  V30 END CTAB
M  END
