
     RDKit          3D

  0  0  0  0  0  0  0  0  0  0999 V3000
M  V30 BEGIN CTAB
M  V30 COUNTS 31 32 0 0 0
M  V30 BEGIN ATOM
M  V30 1 N -4.06227 1.39877 -0.0317578 0
M  V30 2 C -3.10614 0.284457 -0.0528883 0
M  V30 3 C -2.37414 0.199486 1.24976 0
M  V30 4 C -0.870137 0.284528 1.09367 0
M  V30 5 C -0.431516 -0.632514 -0.0119113 0
M  V30 6 N -1.07388 -0.371809 -1.26884 0
M  V30 7 C -2.16078 0.55865 -1.19473 0
M  V30 8 C 1.02597 -0.67247 -0.166391 0
M  V30 9 C 1.54541 -1.38331 -1.2398 0
M  V30 10 C 2.91936 -1.43793 -1.41016 0
M  V30 11 C 3.75542 -0.800597 -0.533502 0
M  V30 12 C 3.23084 -0.0902205 0.539552 0
M  V30 13 C 1.87689 -0.0320505 0.713782 0
M  V30 14 N 4.08612 0.567372 1.44449 0
M  V30 15 H -4.64201 1.27403 -0.895981 0
M  V30 16 H -3.51191 2.29293 -0.207252 0
M  V30 17 H -3.64279 -0.673007 -0.285983 0
M  V30 18 H -2.59796 -0.773547 1.76166 0
M  V30 19 H -2.6939 0.984056 1.9752 0
M  V30 20 H -0.493381 1.30408 1.00881 0
M  V30 21 H -0.447276 -0.149739 2.04713 0
M  V30 22 H -0.75109 -1.67107 0.296989 0
M  V30 23 H -0.369199 0.0317258 -1.94187 0
M  V30 24 H -2.75551 0.448543 -2.13249 0
M  V30 25 H -1.80222 1.60366 -1.06931 0
M  V30 26 H 0.88973 -1.89428 -1.94359 0
M  V30 27 H 3.3687 -1.97983 -2.23197 0
M  V30 28 H 4.83622 -0.820721 -0.634079 0
M  V30 29 H 1.41397 0.504789 1.52906 0
M  V30 30 H 3.7552 0.877404 2.3857 0
M  V30 31 H 5.08228 0.768609 1.20669 0
M  V30 END ATOM
M  V30 BEGIN BOND
M  V30 1 1 1 2
M  V30 2 1 2 3
M  V30 3 1 3 4
M  V30 4 1 4 5
M  V30 5 1 5 6
M  V30 6 1 6 7
M  V30 7 1 5 8
M  V30 8 2 8 9
M  V30 9 1 9 10
M  V30 10 2 10 11
M  V30 11 1 11 12
M  V30 12 2 12 13
M  V30 13 1 12 14
M  V30 14 1 7 2
M  V30 15 1 13 8
M  V30 16 1 1 15
M  V30 17 1 1 16
M  V30 18 1 2 17
M  V30 19 1 3 18
M  V30 20 1 3 19
M  V30 21 1 4 20
M  V30 22 1 4 21
M  V30 23 1 5 22
M  V30 24 1 6 23
M  V30 25 1 7 24
M  V30 26 1 7 25
M  V30 27 1 9 26
M  V30 28 1 10 27
M  V30 29 1 11 28
M  V30 30 1 13 29
M  V30 31 1 14 30
M  V30 32 1 14 31
M  V30 END BOND
M  V30 END CTAB
M  END
