
     RDKit          3D

  0  0  0  0  0  0  0  0  0  0999 V3000
M  V30 BEGIN CTAB
M  V30 COUNTS 23 23 0 0 0
M  V30 BEGIN ATOM
M  V30 1 C 3.03971 0.864738 0.641899 0
M  V30 2 O 2.126 -0.151311 0.362514 0
M  V30 3 C 0.775122 0.0352129 0.14069 0
M  V30 4 C 0.19585 1.30611 0.180433 0
M  V30 5 C -1.15204 1.50504 -0.0394519 0
M  V30 6 N -1.72524 2.81151 0.0054185 0
M  V30 7 C -1.90991 0.382497 -0.302874 0
M  V30 8 C -1.35568 -0.885036 -0.34674 0
M  V30 9 C -0.00632378 -1.07048 -0.125063 0
M  V30 10 C 0.639088 -2.40938 -0.160602 0
M  V30 11 N -2.14894 -2.03298 -0.619407 0
M  V30 12 H 3.07033 1.66283 -0.136284 0
M  V30 13 H 4.06323 0.402163 0.630527 0
M  V30 14 H 2.91353 1.31848 1.64824 0
M  V30 15 H 0.831175 2.16778 0.392262 0
M  V30 16 H -2.16942 3.19243 0.88375 0
M  V30 17 H -1.73319 3.446 -0.817311 0
M  V30 18 H -2.98427 0.538359 -0.478427 0
M  V30 19 H 1.67202 -2.26107 -0.528333 0
M  V30 20 H 0.646194 -2.85458 0.859197 0
M  V30 21 H 0.051449 -3.09904 -0.807659 0
M  V30 22 H -2.30853 -2.68997 0.187695 0
M  V30 23 H -2.53014 -2.17931 -1.57048 0
M  V30 END ATOM
M  V30 BEGIN BOND
M  V30 1 1 1 2
M  V30 2 1 2 3
M  V30 3 2 3 4
M  V30 4 1 4 5
M  V30 5 1 5 6
M  V30 6 2 5 7
M  V30 7 1 7 8
M  V30 8 2 8 9
M  V30 9 1 9 10
M  V30 10 1 8 11
M  V30 11 1 9 3
M  V30 12 1 1 12
M  V30 13 1 1 13
M  V30 14 1 1 14
M  V30 15 1 4 15
M  V30 16 1 6 16
M  V30 17 1 6 17
M  V30 18 1 7 18
M  V30 19 1 10 19
M  V30 20 1 10 20
M  V30 21 1 10 21
M  V30 22 1 11 22
M  V30 23 1 11 23
M  V30 END BOND
M  V30 END CTAB
M  END
