
     RDKit          3D

  0  0  0  0  0  0  0  0  0  0999 V3000
M  V30 BEGIN CTAB
M  V30 COUNTS 56 60 0 0 0
M  V30 BEGIN ATOM
M  V30 1 C -7.76755 -0.652273 -0.53276 0
M  V30 2 C -7.19547 -0.359819 0.614567 0
M  V30 3 C -6.26302 -1.30067 1.31596 0
M  V30 4 N -4.9679 -0.608274 1.43475 0
M  V30 5 C -4.51191 0.2029 2.45425 0
M  V30 6 O -5.12207 0.517795 3.51412 0
M  V30 7 C -3.11944 0.709578 2.15518 0
M  V30 8 C -2.83865 0.0882279 0.860096 0
M  V30 9 C -3.91776 -0.673686 0.446748 0
M  V30 10 N -3.92235 -1.35701 -0.721722 0
M  V30 11 C -2.89722 -1.34938 -1.55701 0
M  V30 12 N -2.90893 -2.0783 -2.79649 0
M  V30 13 C -1.79588 -0.607033 -1.19498 0
M  V30 14 C -1.73399 0.121783 0.00386018 0
M  V30 15 C -0.628197 0.84279 0.328376 0
M  V30 16 C -0.553684 1.60344 1.53053 0
M  V30 17 N -0.460937 2.26156 2.5289 0
M  V30 18 C 0.467841 0.883682 -0.504073 0
M  V30 19 N 0.352899 0.153955 -1.66171 0
M  V30 20 C -0.691505 -0.556244 -2.019 0
M  V30 21 N -0.714811 -1.29307 -3.26918 0
M  V30 22 N 1.66288 1.55295 -0.28851 0
M  V30 23 C 2.59928 1.56858 -1.45376 0
M  V30 24 C 3.78743 0.725336 -1.0405 0
M  V30 25 N 4.35851 1.30487 0.14452 0
M  V30 26 C 3.72921 2.52694 0.668314 0
M  V30 27 C 2.21908 2.22145 0.8194 0
M  V30 28 C 5.45543 0.781503 0.803901 0
M  V30 29 O 5.83912 1.42644 1.85187 0
M  V30 30 C 6.22448 -0.395792 0.466933 0
M  V30 31 C 6.11825 -1.31105 -0.551512 0
M  V30 32 C 7.13686 -2.2604 -0.395044 0
M  V30 33 C 7.81147 -1.87097 0.714179 0
M  V30 34 O 7.2794 -0.802607 1.19806 0
M  V30 35 H -7.60791 -1.59161 -1.05392 0
M  V30 36 H -8.42728 0.0497473 -0.998533 0
M  V30 37 H -7.39181 0.592532 1.0877 0
M  V30 38 H -6.66993 -1.4344 2.3296 0
M  V30 39 H -6.16919 -2.23588 0.766378 0
M  V30 40 H -3.27695 1.80453 2.14217 0
M  V30 41 H -2.53963 0.314448 3.00974 0
M  V30 42 H -3.25985 -1.65181 -3.68245 0
M  V30 43 H -2.57094 -3.06229 -2.85536 0
M  V30 44 H -0.387794 -2.26422 -3.35601 0
M  V30 45 H -1.07468 -0.820562 -4.12574 0
M  V30 46 H 2.93464 2.61093 -1.53928 0
M  V30 47 H 2.12321 1.22053 -2.36877 0
M  V30 48 H 4.46751 0.735564 -1.90566 0
M  V30 49 H 3.36663 -0.290802 -0.857951 0
M  V30 50 H 3.90309 3.40377 0.0286339 0
M  V30 51 H 4.12002 2.66314 1.69656 0
M  V30 52 H 2.23356 1.51687 1.67311 0
M  V30 53 H 1.82593 3.22943 1.0221 0
M  V30 54 H 5.39464 -1.3254 -1.34317 0
M  V30 55 H 7.29786 -3.10619 -1.057 0
M  V30 56 H 8.67799 -2.37554 1.14714 0
M  V30 END ATOM
M  V30 BEGIN BOND
M  V30 1 2 1 2 CFG=2
M  V30 2 1 2 3
M  V30 3 1 3 4
M  V30 4 1 4 5
M  V30 5 2 5 6
M  V30 6 1 5 7
M  V30 7 1 7 8
M  V30 8 2 8 9
M  V30 9 1 9 10
M  V30 10 2 10 11
M  V30 11 1 11 12
M  V30 12 1 11 13
M  V30 13 2 13 14
M  V30 14 1 14 15
M  V30 15 1 15 16
M  V30 16 3 16 17
M  V30 17 2 15 18
M  V30 18 1 18 19
M  V30 19 2 19 20
M  V30 20 1 20 21
M  V30 21 1 18 22
M  V30 22 1 22 23
M  V30 23 1 23 24
M  V30 24 1 24 25
M  V30 25 1 25 26
M  V30 26 1 26 27
M  V30 27 1 25 28
M  V30 28 2 28 29
M  V30 29 1 28 30
M  V30 30 2 30 31
M  V30 31 1 31 32
M  V30 32 2 32 33
M  V30 33 1 33 34
M  V30 34 1 9 4
M  V30 35 1 20 13
M  V30 36 1 27 22
M  V30 37 1 34 30
M  V30 38 1 14 8
M  V30 39 1 1 35
M  V30 40 1 1 36
M  V30 41 1 2 37
M  V30 42 1 3 38
M  V30 43 1 3 39
M  V30 44 1 7 40
M  V30 45 1 7 41
M  V30 46 1 12 42
M  V30 47 1 12 43
M  V30 48 1 21 44
M  V30 49 1 21 45
M  V30 50 1 23 46
M  V30 51 1 23 47
M  V30 52 1 24 48
M  V30 53 1 24 49
M  V30 54 1 26 50
M  V30 55 1 26 51
M  V30 56 1 27 52
M  V30 57 1 27 53
M  V30 58 1 31 54
M  V30 59 1 32 55
M  V30 60 1 33 56
M  V30 END BOND
M  V30 END CTAB
M  END
