
     RDKit          3D

  0  0  0  0  0  0  0  0  0  0999 V3000
M  V30 BEGIN CTAB
M  V30 COUNTS 43 43 0 0 0
M  V30 BEGIN ATOM
M  V30 1 C -2.97244 2.26693 0.356163 0
M  V30 2 C -1.7775 1.52853 -0.165858 0
M  V30 3 C -1.94394 0.0463255 -0.353736 0
M  V30 4 C -0.69002 -0.551625 -0.870324 0
M  V30 5 O -0.840386 -1.26027 -1.94466 0
M  V30 6 N 0.611765 -0.48631 -0.403603 0
M  V30 7 C 1.63058 -1.24096 -1.17532 0
M  V30 8 C 2.87909 -0.431 -1.12272 0
M  V30 9 N 3.42078 -0.567315 0.211459 0
M  V30 10 C 2.43204 -0.405204 1.23543 0
M  V30 11 C 1.14483 0.211372 0.718935 0
M  V30 12 S 4.78374 0.459639 0.409566 0
M  V30 13 O 4.39011 1.87861 0.0229009 0
M  V30 14 O 5.2737 0.44061 1.81275 0
M  V30 15 N 5.99054 -0.0301385 -0.725869 0
M  V30 16 C -2.94515 -0.0484586 -1.52042 0
M  V30 17 N -3.27759 -1.37602 -1.88941 0
M  V30 18 C -2.37748 -0.735064 0.81393 0
M  V30 19 C -3.68333 -0.451091 1.44899 0
M  V30 20 H -2.84468 2.51739 1.44733 0
M  V30 21 H -3.92768 1.82789 0.136038 0
M  V30 22 H -3.01263 3.30758 -0.108675 0
M  V30 23 H -0.877759 1.81767 0.422785 0
M  V30 24 H -1.56499 2.0156 -1.17796 0
M  V30 25 H 1.80129 -2.16724 -0.562458 0
M  V30 26 H 1.27578 -1.47487 -2.1823 0
M  V30 27 H 3.59974 -0.839327 -1.84631 0
M  V30 28 H 2.62446 0.630092 -1.29633 0
M  V30 29 H 2.83159 0.277292 2.00897 0
M  V30 30 H 2.20843 -1.36146 1.6938 0
M  V30 31 H 0.468975 0.250471 1.58242 0
M  V30 32 H 1.41267 1.2721 0.494107 0
M  V30 33 H 5.92358 -1.05435 -0.915557 0
M  V30 34 H 6.92301 0.238343 -0.380421 0
M  V30 35 H -2.36731 0.394532 -2.38968 0
M  V30 36 H -3.80142 0.627671 -1.38939 0
M  V30 37 H -3.09453 -1.67677 -2.84353 0
M  V30 38 H -3.42745 -2.06608 -1.16093 0
M  V30 39 H -1.61236 -0.674978 1.61481 0
M  V30 40 H -2.38676 -1.85086 0.574061 0
M  V30 41 H -3.96241 -1.31996 2.12948 0
M  V30 42 H -4.5499 -0.355239 0.784612 0
M  V30 43 H -3.68896 0.415966 2.1349 0
M  V30 END ATOM
M  V30 BEGIN BOND
M  V30 1 1 1 2
M  V30 2 1 2 3
M  V30 3 1 3 4
M  V30 4 2 4 5
M  V30 5 1 4 6
M  V30 6 1 6 7
M  V30 7 1 7 8
M  V30 8 1 8 9
M  V30 9 1 9 10
M  V30 10 1 10 11
M  V30 11 1 9 12
M  V30 12 2 12 13
M  V30 13 2 12 14
M  V30 14 1 12 15
M  V30 15 1 3 16
M  V30 16 1 16 17
M  V30 17 1 3 18
M  V30 18 1 18 19
M  V30 19 1 11 6
M  V30 20 1 1 20
M  V30 21 1 1 21
M  V30 22 1 1 22
M  V30 23 1 2 23
M  V30 24 1 2 24
M  V30 25 1 7 25
M  V30 26 1 7 26
M  V30 27 1 8 27
M  V30 28 1 8 28
M  V30 29 1 10 29
M  V30 30 1 10 30
M  V30 31 1 11 31
M  V30 32 1 11 32
M  V30 33 1 15 33
M  V30 34 1 15 34
M  V30 35 1 16 35
M  V30 36 1 16 36
M  V30 37 1 17 37
M  V30 38 1 17 38
M  V30 39 1 18 39
M  V30 40 1 18 40
M  V30 41 1 19 41
M  V30 42 1 19 42
M  V30 43 1 19 43
M  V30 END BOND
M  V30 END CTAB
M  END
