
     RDKit          3D

  0  0  0  0  0  0  0  0  0  0999 V3000
M  V30 BEGIN CTAB
M  V30 COUNTS 35 36 0 0 0
M  V30 BEGIN ATOM
M  V30 1 O 1.98366 -1.2512 1.75814 0
M  V30 2 C 1.45548 -0.509196 0.902497 0
M  V30 3 C -0.0361289 -0.346224 0.935164 0
M  V30 4 S -0.798295 -0.902312 -0.604774 0
M  V30 5 C -2.56624 -0.659376 -0.447709 0
M  V30 6 N -3.16233 0.489952 -0.809885 0
M  V30 7 C -4.47357 0.710161 -0.708598 0
M  V30 8 N -5.09353 1.93083 -1.09486 0
M  V30 9 C -5.27507 -0.289404 -0.205385 0
M  V30 10 C -4.69516 -1.49201 0.179867 0
M  V30 11 N -3.36294 -1.62798 0.0427698 0
M  V30 12 N -5.45203 -2.56504 0.705578 0
M  V30 13 C -0.393829 1.12643 1.11603 0
M  V30 14 N 2.23865 0.144786 -0.0517348 0
M  V30 15 C 3.62536 0.104835 -0.229371 0
M  V30 16 C 4.5025 -0.753728 0.389573 0
M  V30 17 C 5.8709 -0.712454 0.165493 0
M  V30 18 C 6.42619 0.199094 -0.696919 0
M  V30 19 C 5.58062 1.07015 -1.33153 0
M  V30 20 C 4.23785 1.02372 -1.10634 0
M  V30 21 Cl 6.27529 2.23573 -2.43256 0
M  V30 22 H -0.415306 -0.8955 1.80761 0
M  V30 23 H -5.27416 2.71387 -0.436212 0
M  V30 24 H -5.40467 2.10117 -2.08725 0
M  V30 25 H -6.35134 -0.183355 -0.0931322 0
M  V30 26 H -6.08698 -3.09798 0.0858318 0
M  V30 27 H -5.38049 -2.82647 1.70443 0
M  V30 28 H -1.44826 1.20593 1.44023 0
M  V30 29 H -0.266942 1.66611 0.137633 0
M  V30 30 H 0.265722 1.59866 1.88572 0
M  V30 31 H 1.69303 0.754269 -0.737765 0
M  V30 32 H 4.13918 -1.50497 1.07607 0
M  V30 33 H 6.54281 -1.39792 0.663835 0
M  V30 34 H 7.50889 0.219551 -0.86339 0
M  V30 35 H 3.59115 1.71986 -1.61657 0
M  V30 END ATOM
M  V30 BEGIN BOND
M  V30 1 2 1 2
M  V30 2 1 2 3
M  V30 3 1 3 4
M  V30 4 1 4 5
M  V30 5 2 5 6
M  V30 6 1 6 7
M  V30 7 1 7 8
M  V30 8 2 7 9
M  V30 9 1 9 10
M  V30 10 2 10 11
M  V30 11 1 10 12
M  V30 12 1 3 13
M  V30 13 1 2 14
M  V30 14 1 14 15
M  V30 15 2 15 16
M  V30 16 1 16 17
M  V30 17 2 17 18
M  V30 18 1 18 19
M  V30 19 2 19 20
M  V30 20 1 19 21
M  V30 21 1 11 5
M  V30 22 1 20 15
M  V30 23 1 3 22
M  V30 24 1 8 23
M  V30 25 1 8 24
M  V30 26 1 9 25
M  V30 27 1 12 26
M  V30 28 1 12 27
M  V30 29 1 13 28
M  V30 30 1 13 29
M  V30 31 1 13 30
M  V30 32 1 14 31
M  V30 33 1 16 32
M  V30 34 1 17 33
M  V30 35 1 18 34
M  V30 36 1 20 35
M  V30 END BOND
M  V30 END CTAB
M  END
