
     RDKit          3D

  0  0  0  0  0  0  0  0  0  0999 V3000
M  V30 BEGIN CTAB
M  V30 COUNTS 30 31 0 0 0
M  V30 BEGIN ATOM
M  V30 1 C -1.32175 2.30996 0.482992 0
M  V30 2 C -0.970242 1.22549 1.47173 0
M  V30 3 C -1.20096 -0.0963466 0.849987 0
M  V30 4 C -0.26559 -0.602529 -0.00211067 0
M  V30 5 C -0.510751 -1.83632 -0.574201 0
M  V30 6 N 0.4664 -2.35045 -1.45468 0
M  V30 7 N -1.65356 -2.49032 -0.273521 0
M  V30 8 C -2.58108 -1.99824 0.566021 0
M  V30 9 N -3.78337 -2.73934 0.852512 0
M  V30 10 N -2.35367 -0.799612 1.12799 0
M  V30 11 C 0.954748 0.112788 -0.30142 0
M  V30 12 C 1.12679 0.963023 -1.34822 0
M  V30 13 C 2.31123 1.61592 -1.58585 0
M  V30 14 C 3.37631 1.41103 -0.738228 0
M  V30 15 Br 5.05148 2.27135 -0.992078 0
M  V30 16 C 3.24152 0.558281 0.331981 0
M  V30 17 C 2.05479 -0.0820877 0.551532 0
M  V30 18 H -1.70254 1.91851 -0.48875 0
M  V30 19 H -0.50478 3.02479 0.307905 0
M  V30 20 H -2.19604 2.86324 0.93099 0
M  V30 21 H -1.53684 1.35252 2.4163 0
M  V30 22 H 0.119958 1.38261 1.70644 0
M  V30 23 H 0.199881 -2.35896 -2.48161 0
M  V30 24 H 1.39397 -2.70995 -1.19465 0
M  V30 25 H -4.62809 -2.58599 0.262373 0
M  V30 26 H -3.85608 -3.42452 1.62199 0
M  V30 27 H 0.27217 1.11458 -2.01108 0
M  V30 28 H 2.43194 2.30214 -2.43972 0
M  V30 29 H 4.09137 0.397365 1.00474 0
M  V30 30 H 1.97277 -0.748927 1.40062 0
M  V30 END ATOM
M  V30 BEGIN BOND
M  V30 1 1 1 2
M  V30 2 1 2 3
M  V30 3 2 3 4
M  V30 4 1 4 5
M  V30 5 1 5 6
M  V30 6 2 5 7
M  V30 7 1 7 8
M  V30 8 1 8 9
M  V30 9 2 8 10
M  V30 10 1 4 11
M  V30 11 2 11 12
M  V30 12 1 12 13
M  V30 13 2 13 14
M  V30 14 1 14 15
M  V30 15 1 14 16
M  V30 16 2 16 17
M  V30 17 1 10 3
M  V30 18 1 17 11
M  V30 19 1 1 18
M  V30 20 1 1 19
M  V30 21 1 1 20
M  V30 22 1 2 21
M  V30 23 1 2 22
M  V30 24 1 6 23
M  V30 25 1 6 24
M  V30 26 1 9 25
M  V30 27 1 9 26
M  V30 28 1 12 27
M  V30 29 1 13 28
M  V30 30 1 16 29
M  V30 31 1 17 30
M  V30 END BOND
M  V30 END CTAB
M  END
