
     RDKit          3D

  0  0  0  0  0  0  0  0  0  0999 V3000
M  V30 BEGIN CTAB
M  V30 COUNTS 41 43 0 0 0
M  V30 BEGIN ATOM
M  V30 1 O -3.20798 -3.398 0.779319 0
M  V30 2 C -3.22379 -2.1835 0.473778 0
M  V30 3 N -2.15513 -1.29399 0.492071 0
M  V30 4 C -0.820727 -1.56713 0.858132 0
M  V30 5 C -0.379321 -2.80628 1.26127 0
M  V30 6 C 0.945453 -2.93817 1.59176 0
M  V30 7 C 1.84494 -1.87522 1.53365 0
M  V30 8 C 1.3843 -0.65445 1.13067 0
M  V30 9 N 0.0623514 -0.544866 0.806251 0
M  V30 10 N 2.19966 0.495054 1.03178 0
M  V30 11 C 3.53468 0.709116 1.27559 0
M  V30 12 O 3.96966 1.93449 1.07792 0
M  V30 13 C 4.60714 -0.192329 1.7287 0
M  V30 14 S 6.20659 0.686717 1.87552 0
M  V30 15 C 6.78593 1.21042 0.258271 0
M  V30 16 N 7.55208 0.553903 -0.60762 0
M  V30 17 N 7.86268 1.0839 -1.70711 0
M  V30 18 C 7.42767 2.30303 -2.01111 0
M  V30 19 S 6.51724 2.67505 -0.598498 0
M  V30 20 N 7.65984 3.07101 -3.18247 0
M  V30 21 C -4.6121 -1.71495 0.0461777 0
M  V30 22 S -4.53155 0.0550814 -0.382161 0
M  V30 23 C -6.19677 0.554924 -0.87936 0
M  V30 24 N -7.29614 -0.191472 -0.936275 0
M  V30 25 N -8.38556 0.324 -1.30902 0
M  V30 26 C -8.43354 1.6088 -1.64356 0
M  V30 27 S -6.79635 2.06972 -1.39482 0
M  V30 28 N -9.55954 2.3852 -2.09029 0
M  V30 29 H -2.37899 -0.295083 0.193695 0
M  V30 30 H -1.04455 -3.67689 1.32483 0
M  V30 31 H 1.33021 -3.90006 1.91412 0
M  V30 32 H 2.87089 -2.06802 1.81272 0
M  V30 33 H 1.64374 1.38004 0.696146 0
M  V30 34 H 4.7675 -1.04366 1.00154 0
M  V30 35 H 4.42618 -0.636884 2.73417 0
M  V30 36 H 7.10621 2.91926 -4.03425 0
M  V30 37 H 8.39861 3.79007 -3.16691 0
M  V30 38 H -4.86755 -2.31545 -0.833221 0
M  V30 39 H -5.32455 -1.85816 0.865883 0
M  V30 40 H -9.46581 2.8321 -3.02339 0
M  V30 41 H -10.4236 2.51266 -1.54461 0
M  V30 END ATOM
M  V30 BEGIN BOND
M  V30 1 2 1 2
M  V30 2 1 2 3
M  V30 3 1 3 4
M  V30 4 2 4 5
M  V30 5 1 5 6
M  V30 6 2 6 7
M  V30 7 1 7 8
M  V30 8 2 8 9
M  V30 9 1 8 10
M  V30 10 1 10 11
M  V30 11 2 11 12
M  V30 12 1 11 13
M  V30 13 1 13 14
M  V30 14 1 14 15
M  V30 15 2 15 16
M  V30 16 1 16 17
M  V30 17 2 17 18
M  V30 18 1 18 19
M  V30 19 1 18 20
M  V30 20 1 2 21
M  V30 21 1 21 22
M  V30 22 1 22 23
M  V30 23 2 23 24
M  V30 24 1 24 25
M  V30 25 2 25 26
M  V30 26 1 26 27
M  V30 27 1 26 28
M  V30 28 1 9 4
M  V30 29 1 19 15
M  V30 30 1 27 23
M  V30 31 1 3 29
M  V30 32 1 5 30
M  V30 33 1 6 31
M  V30 34 1 7 32
M  V30 35 1 10 33
M  V30 36 1 13 34
M  V30 37 1 13 35
M  V30 38 1 20 36
M  V30 39 1 20 37
M  V30 40 1 21 38
M  V30 41 1 21 39
M  V30 42 1 28 40
M  V30 43 1 28 41
M  V30 END BOND
M  V30 END CTAB
M  END
