
     RDKit          3D

  0  0  0  0  0  0  0  0  0  0999 V3000
M  V30 BEGIN CTAB
M  V30 COUNTS 26 26 0 0 0
M  V30 BEGIN ATOM
M  V30 1 N -3.20771 1.68349 0.195914 0
M  V30 2 C -2.04977 1.01946 -0.348052 0
M  V30 3 C -1.88968 -0.388008 0.145855 0
M  V30 4 S -0.402135 -1.07227 -0.614153 0
M  V30 5 C 1.10282 -0.336194 -0.0106682 0
M  V30 6 C 1.17661 0.596942 0.991245 0
M  V30 7 C 2.40413 1.13567 1.39759 0
M  V30 8 C 3.58228 0.749987 0.808367 0
M  V30 9 C 3.5111 -0.186331 -0.196779 0
M  V30 10 C 2.29848 -0.724464 -0.604829 0
M  V30 11 N 2.27303 -1.68175 -1.63921 0
M  V30 12 Br 5.2635 1.46998 1.3462 0
M  V30 13 C -3.05784 -1.25018 -0.328201 0
M  V30 14 H -3.34274 1.5152 1.20989 0
M  V30 15 H -4.06715 1.54059 -0.370096 0
M  V30 16 H -2.26045 0.919203 -1.45371 0
M  V30 17 H -1.16392 1.62149 -0.220818 0
M  V30 18 H -1.82543 -0.444578 1.2522 0
M  V30 19 H 0.276043 0.908352 1.47435 0
M  V30 20 H 2.45979 1.86592 2.1818 0
M  V30 21 H 4.451 -0.48233 -0.654397 0
M  V30 22 H 2.59744 -1.4813 -2.59483 0
M  V30 23 H 1.91031 -2.63257 -1.42738 0
M  V30 24 H -2.70522 -2.27466 -0.622657 0
M  V30 25 H -3.4722 -0.769028 -1.23904 0
M  V30 26 H -3.86231 -1.30262 0.428021 0
M  V30 END ATOM
M  V30 BEGIN BOND
M  V30 1 1 1 2
M  V30 2 1 2 3
M  V30 3 1 3 4
M  V30 4 1 4 5
M  V30 5 2 5 6
M  V30 6 1 6 7
M  V30 7 2 7 8
M  V30 8 1 8 9
M  V30 9 2 9 10
M  V30 10 1 10 11
M  V30 11 1 8 12
M  V30 12 1 3 13
M  V30 13 1 10 5
M  V30 14 1 1 14
M  V30 15 1 1 15
M  V30 16 1 2 16
M  V30 17 1 2 17
M  V30 18 1 3 18
M  V30 19 1 6 19
M  V30 20 1 7 20
M  V30 21 1 9 21
M  V30 22 1 11 22
M  V30 23 1 11 23
M  V30 24 1 13 24
M  V30 25 1 13 25
M  V30 26 1 13 26
M  V30 END BOND
M  V30 END CTAB
M  END
