
     RDKit          3D

  0  0  0  0  0  0  0  0  0  0999 V3000
M  V30 BEGIN CTAB
M  V30 COUNTS 164 166 0 0 0
M  V30 BEGIN ATOM
M  V30 1 C 1.66867 -0.901327 -0.617712 0 CFG=1
M  V30 2 C 1.26626 -0.744704 0.811105 0
M  V30 3 C 2.26543 -0.293968 1.79954 0 CFG=1
M  V30 4 O 3.22109 0.591179 1.489 0
M  V30 5 C 4.53211 0.282941 1.55089 0 CFG=2
M  V30 6 O 5.26649 0.959659 2.55651 0
M  V30 7 C 6.4131 0.274063 2.83793 0 CFG=2
M  V30 8 C 7.38138 1.16489 3.59991 0
M  V30 9 C 7.07225 -0.433925 1.69102 0 CFG=1
M  V30 10 O 7.08638 -1.81251 1.8818 0
M  V30 11 C 6.58212 -0.0167538 0.322226 0 CFG=1
M  V30 12 C 5.30334 0.69701 0.28745 0 CFG=2
M  V30 13 O 5.37188 2.09658 0.420849 0
M  V30 14 N 7.67368 0.485526 -0.504501 0
M  V30 15 C 8.56763 -0.541046 -0.771802 0
M  V30 16 C 9.95458 -0.251646 -1.2222 0
M  V30 17 N 10.6938 0.533248 -0.241923 0
M  V30 18 C 12.0497 0.907703 -0.492273 0
M  V30 19 N 13.0643 0.804224 0.488436 0
M  V30 20 N 12.3463 1.3543 -1.6607 0
M  V30 21 C 7.40086 1.58477 -1.27493 0
M  V30 22 C 8.30634 2.04924 -2.3653 0
M  V30 23 N 7.65236 3.26666 -2.91626 0
M  V30 24 C 7.57836 4.43629 -2.11908 0
M  V30 25 N 6.3267 5.05241 -1.8718 0
M  V30 26 N 8.63619 4.95786 -1.60847 0
M  V30 27 C 1.45561 0.371902 2.91624 0
M  V30 28 C 1.46442 1.69419 3.10977 0
M  V30 29 C 2.18029 2.68873 2.36589 0
M  V30 30 C 1.94622 3.35042 1.24892 0
M  V30 31 C 0.87503 3.38266 0.297386 0
M  V30 32 C 0.034576 4.38841 -0.0578508 0
M  V30 33 C -0.036183 5.74702 0.412928 0
M  V30 34 C -0.733148 6.41998 1.27583 0
M  V30 35 C -1.7978 6.17602 2.20015 0
M  V30 36 C -3.14415 6.27917 1.98312 0
M  V30 37 C -3.79109 6.65275 0.753001 0
M  V30 38 C -4.22409 5.91328 -0.262422 0
M  V30 39 C -4.21258 4.50104 -0.482041 0
M  V30 40 C -5.13809 3.58682 -0.219501 0
M  V30 41 C -6.45915 3.71716 0.365612 0 CFG=2
M  V30 42 C -6.69295 4.93603 1.22805 0
M  V30 43 C -6.90557 2.53014 1.20656 0 CFG=1
M  V30 44 O -8.17061 2.91443 1.7126 0
M  V30 45 C -7.00047 1.2428 0.474572 0 CFG=1
M  V30 46 C -6.49746 0.15475 1.43422 0
M  V30 47 C -8.42619 0.936113 0.0364976 0 CFG=2
M  V30 48 C -9.38296 0.720029 1.15862 0
M  V30 49 O -8.45875 -0.0309865 -0.973214 0
M  V30 50 C -9.31731 -1.04402 -1.21837 0
M  V30 51 O -10.2441 -1.02387 -2.10174 0
M  V30 52 C -9.23446 -2.3036 -0.444014 0
M  V30 53 C -8.24 -3.24615 -1.13994 0 CFG=2
M  V30 54 O -8.23591 -3.07858 -2.51432 0
M  V30 55 C -8.51586 -4.665 -0.708883 0
M  V30 56 C -7.76522 -5.70242 -1.48597 0 CFG=2
M  V30 57 O -8.60747 -6.71788 -1.95517 0
M  V30 58 C -6.68504 -6.32196 -0.611452 0
M  V30 59 C -5.77419 -5.16919 -0.199763 0
M  V30 60 C -4.44399 -5.74077 0.232886 0 CFG=1
M  V30 61 O -4.53122 -7.14098 0.368769 0
M  V30 62 C -3.46532 -5.50811 -0.912671 0 CFG=2
M  V30 63 O -2.29282 -6.15655 -0.556255 0
M  V30 64 C -3.27733 -4.0257 -1.18653 0
M  V30 65 C -1.8848 -3.67147 -0.630204 0 CFG=2
M  V30 66 O -2.09233 -3.66163 0.775851 0
M  V30 67 C -1.42987 -2.32437 -1.05996 0
M  V30 68 C 0.0294428 -2.30078 -1.57241 0 CFG=2
M  V30 69 O -0.144015 -2.53646 -2.97494 0
M  V30 70 C 0.698675 -3.45275 -0.922081 0
M  V30 71 C 2.14466 -3.3579 -0.63923 0 CFG=2
M  V30 72 O 2.39085 -3.6755 0.713308 0
M  V30 73 C 2.65606 -1.97271 -0.870957 0 CFG=1
M  V30 74 C 3.25034 -1.85743 -2.25484 0
M  V30 75 O 4.19173 -2.78152 -2.63171 0
M  V30 76 O 2.89242 -0.958995 -3.00987 0
M  V30 77 O 0.494852 -1.05377 -1.34479 0
M  V30 78 H 2.16742 0.0764812 -0.90582 0
M  V30 79 H 0.37884 -0.022237 0.891781 0
M  V30 80 H 0.753123 -1.7093 1.15547 0
M  V30 81 H 2.76959 -1.22024 2.1804 0
M  V30 82 H 4.65699 -0.803974 1.703 0
M  V30 83 H 6.12009 -0.524406 3.58661 0
M  V30 84 H 7.18008 1.15733 4.68378 0
M  V30 85 H 7.2315 2.21033 3.22608 0
M  V30 86 H 8.42882 0.852119 3.36267 0
M  V30 87 H 8.15484 -0.137348 1.73892 0
M  V30 88 H 6.60947 -2.22853 1.11581 0
M  V30 89 H 6.36162 -1.03569 -0.183243 0
M  V30 90 H 4.66637 0.482205 -0.596756 0
M  V30 91 H 4.74093 2.5667 -0.17991 0
M  V30 92 H 8.14058 -1.3015 -1.53727 0
M  V30 93 H 8.68023 -1.23306 0.125727 0
M  V30 94 H 10.1022 0.175249 -2.21146 0
M  V30 95 H 10.5667 -1.22572 -1.2669 0
M  V30 96 H 10.2323 0.812868 0.636009 0
M  V30 97 H 13.8565 0.144381 0.420825 0
M  V30 98 H 13.0066 1.4291 1.31927 0
M  V30 99 H 13.3034 1.63628 -1.88761 0
M  V30 100 H 7.38452 2.51681 -0.574142 0
M  V30 101 H 6.36039 1.5734 -1.7476 0
M  V30 102 H 9.29474 2.39538 -2.07442 0
M  V30 103 H 8.35784 1.32178 -3.22316 0
M  V30 104 H 7.25299 3.26393 -3.8733 0
M  V30 105 H 5.76696 4.77505 -1.03888 0
M  V30 106 H 5.93438 5.78404 -2.49539 0
M  V30 107 H 8.53343 5.83663 -1.01507 0
M  V30 108 H 0.864391 -0.267464 3.54819 0
M  V30 109 H 0.845448 2.03127 3.96975 0
M  V30 110 H 3.14226 3.02583 2.9122 0
M  V30 111 H 2.90549 3.95709 0.973117 0
M  V30 112 H 0.72145 2.45078 -0.30907 0
M  V30 113 H -0.720214 4.13859 -0.864053 0
M  V30 114 H 0.695886 6.43256 -0.212151 0
M  V30 115 H -0.31939 7.52094 1.35129 0
M  V30 116 H -1.52883 5.88175 3.22954 0
M  V30 117 H -3.82405 6.08251 2.85374 0
M  V30 118 H -4.03649 7.76332 0.659184 0
M  V30 119 H -4.62426 6.52705 -1.13439 0
M  V30 120 H -3.29133 4.099 -0.991992 0
M  V30 121 H -4.86083 2.52936 -0.481963 0
M  V30 122 H -7.27218 3.78877 -0.429263 0
M  V30 123 H -6.00226 4.98253 2.09617 0
M  V30 124 H -6.74769 5.86234 0.626456 0
M  V30 125 H -7.71234 4.888 1.71781 0
M  V30 126 H -6.25382 2.4814 2.11678 0
M  V30 127 H -8.65351 3.33531 0.934524 0
M  V30 128 H -6.37362 1.20888 -0.445403 0
M  V30 129 H -6.23519 0.584632 2.43824 0
M  V30 130 H -7.27912 -0.601037 1.62496 0
M  V30 131 H -5.61033 -0.350659 1.04299 0
M  V30 132 H -8.75567 1.89565 -0.470685 0
M  V30 133 H -10.1443 1.55852 1.25536 0
M  V30 134 H -8.93104 0.624854 2.16403 0
M  V30 135 H -10.061 -0.167517 0.953563 0
M  V30 136 H -8.91007 -2.16852 0.612165 0
M  V30 137 H -10.1987 -2.85492 -0.392549 0
M  V30 138 H -7.23016 -2.89096 -0.777795 0
M  V30 139 H -9.08805 -3.18779 -2.95971 0
M  V30 140 H -9.61985 -4.85616 -0.788132 0
M  V30 141 H -8.23631 -4.74143 0.373076 0
M  V30 142 H -7.2267 -5.26085 -2.36874 0
M  V30 143 H -9.10061 -6.47164 -2.77163 0
M  V30 144 H -7.06249 -6.81863 0.280132 0
M  V30 145 H -6.06702 -7.00727 -1.23763 0
M  V30 146 H -5.63452 -4.56857 -1.12446 0
M  V30 147 H -6.2188 -4.57131 0.591578 0
M  V30 148 H -4.08811 -5.28862 1.17107 0
M  V30 149 H -3.71281 -7.39839 0.879689 0
M  V30 150 H -3.83474 -6.02549 -1.83884 0
M  V30 151 H -2.04656 -6.09077 0.379264 0
M  V30 152 H -3.30692 -3.81228 -2.28222 0
M  V30 153 H -4.01187 -3.4409 -0.630553 0
M  V30 154 H -1.25847 -4.52263 -0.952129 0
M  V30 155 H -2.18874 -2.73513 1.09985 0
M  V30 156 H -1.45779 -1.60652 -0.183548 0
M  V30 157 H -2.07454 -1.8651 -1.85169 0
M  V30 158 H -0.760752 -3.30442 -3.02854 0
M  V30 159 H 0.203918 -3.72879 0.0579173 0
M  V30 160 H 0.582478 -4.32858 -1.64045 0
M  V30 161 H 2.76336 -4.03007 -1.29143 0
M  V30 162 H 1.95708 -4.52104 0.967795 0
M  V30 163 H 3.53205 -1.85972 -0.208248 0
M  V30 164 H 4.23078 -3.2013 -3.55509 0
M  V30 END ATOM
M  V30 BEGIN BOND
M  V30 1 1 1 2
M  V30 2 1 2 3
M  V30 3 1 3 4
M  V30 4 1 4 5
M  V30 5 1 5 6
M  V30 6 1 6 7
M  V30 7 1 7 8
M  V30 8 1 7 9
M  V30 9 1 9 10
M  V30 10 1 9 11
M  V30 11 1 11 12
M  V30 12 1 12 13
M  V30 13 1 11 14
M  V30 14 1 14 15
M  V30 15 1 15 16
M  V30 16 1 16 17
M  V30 17 1 17 18
M  V30 18 1 18 19
M  V30 19 2 18 20 CFG=2
M  V30 20 1 14 21
M  V30 21 1 21 22
M  V30 22 1 22 23
M  V30 23 1 23 24
M  V30 24 1 24 25
M  V30 25 2 24 26 CFG=2
M  V30 26 1 3 27
M  V30 27 2 27 28
M  V30 28 1 28 29
M  V30 29 2 29 30
M  V30 30 1 30 31
M  V30 31 2 31 32
M  V30 32 1 32 33
M  V30 33 2 33 34
M  V30 34 1 34 35
M  V30 35 2 35 36
M  V30 36 1 36 37
M  V30 37 2 37 38
M  V30 38 1 38 39
M  V30 39 2 39 40
M  V30 40 1 40 41
M  V30 41 1 41 42
M  V30 42 1 41 43
M  V30 43 1 43 44
M  V30 44 1 43 45
M  V30 45 1 45 46
M  V30 46 1 45 47
M  V30 47 1 47 48
M  V30 48 1 47 49
M  V30 49 1 49 50
M  V30 50 2 50 51
M  V30 51 1 50 52
M  V30 52 1 52 53
M  V30 53 1 53 54
M  V30 54 1 53 55
M  V30 55 1 55 56
M  V30 56 1 56 57
M  V30 57 1 56 58
M  V30 58 1 58 59
M  V30 59 1 59 60
M  V30 60 1 60 61
M  V30 61 1 60 62
M  V30 62 1 62 63
M  V30 63 1 62 64
M  V30 64 1 64 65
M  V30 65 1 65 66
M  V30 66 1 65 67
M  V30 67 1 67 68
M  V30 68 1 68 69 CFG=3
M  V30 69 1 68 70
M  V30 70 1 70 71
M  V30 71 1 71 72
M  V30 72 1 71 73
M  V30 73 1 73 74
M  V30 74 1 74 75
M  V30 75 2 74 76
M  V30 76 1 68 77
M  V30 77 1 73 1
M  V30 78 1 77 1
M  V30 79 1 12 5
M  V30 80 1 1 78 CFG=3
M  V30 81 1 2 79
M  V30 82 1 2 80
M  V30 83 1 3 81 CFG=1
M  V30 84 1 5 82 CFG=1
M  V30 85 1 7 83 CFG=1
M  V30 86 1 8 84
M  V30 87 1 8 85
M  V30 88 1 8 86
M  V30 89 1 9 87 CFG=3
M  V30 90 1 10 88
M  V30 91 1 11 89 CFG=3
M  V30 92 1 12 90 CFG=3
M  V30 93 1 13 91
M  V30 94 1 15 92
M  V30 95 1 15 93
M  V30 96 1 16 94
M  V30 97 1 16 95
M  V30 98 1 17 96
M  V30 99 1 19 97
M  V30 100 1 19 98
M  V30 101 1 20 99
M  V30 102 1 21 100
M  V30 103 1 21 101
M  V30 104 1 22 102
M  V30 105 1 22 103
M  V30 106 1 23 104
M  V30 107 1 25 105
M  V30 108 1 25 106
M  V30 109 1 26 107
M  V30 110 1 27 108
M  V30 111 1 28 109
M  V30 112 1 29 110
M  V30 113 1 30 111
M  V30 114 1 31 112
M  V30 115 1 32 113
M  V30 116 1 33 114
M  V30 117 1 34 115
M  V30 118 1 35 116
M  V30 119 1 36 117
M  V30 120 1 37 118
M  V30 121 1 38 119
M  V30 122 1 39 120
M  V30 123 1 40 121
M  V30 124 1 41 122 CFG=3
M  V30 125 1 42 123
M  V30 126 1 42 124
M  V30 127 1 42 125
M  V30 128 1 43 126 CFG=1
M  V30 129 1 44 127
M  V30 130 1 45 128 CFG=3
M  V30 131 1 46 129
M  V30 132 1 46 130
M  V30 133 1 46 131
M  V30 134 1 47 132 CFG=3
M  V30 135 1 48 133
M  V30 136 1 48 134
M  V30 137 1 48 135
M  V30 138 1 52 136
M  V30 139 1 52 137
M  V30 140 1 53 138 CFG=1
M  V30 141 1 54 139
M  V30 142 1 55 140
M  V30 143 1 55 141
M  V30 144 1 56 142 CFG=3
M  V30 145 1 57 143
M  V30 146 1 58 144
M  V30 147 1 58 145
M  V30 148 1 59 146
M  V30 149 1 59 147
M  V30 150 1 60 148 CFG=1
M  V30 151 1 61 149
M  V30 152 1 62 150 CFG=3
M  V30 153 1 63 151
M  V30 154 1 64 152
M  V30 155 1 64 153
M  V30 156 1 65 154 CFG=1
M  V30 157 1 66 155
M  V30 158 1 67 156
M  V30 159 1 67 157
M  V30 160 1 69 158
M  V30 161 1 70 159
M  V30 162 1 70 160
M  V30 163 1 71 161 CFG=3
M  V30 164 1 72 162
M  V30 165 1 73 163 CFG=1
M  V30 166 1 75 164
M  V30 END BOND
M  V30 END CTAB
M  END
