
     RDKit          3D

  0  0  0  0  0  0  0  0  0  0999 V3000
M  V30 BEGIN CTAB
M  V30 COUNTS 27 27 0 0 0
M  V30 BEGIN ATOM
M  V30 1 C 1.40963 -0.786811 -0.429944 0 CFG=1
M  V30 2 N 2.36807 -0.624183 -1.506 0
M  V30 3 C 1.74175 0.261891 0.599543 0
M  V30 4 O 1.37042 -0.0698573 1.75332 0
M  V30 5 N 2.36637 1.41093 0.251938 0
M  V30 6 N 2.98556 2.54999 -0.0926365 0
M  V30 7 C 0.0626965 -0.552657 -1.03728 0 CFG=1
M  V30 8 O -0.145472 -1.5132 -2.01518 0
M  V30 9 C -1.06896 -0.513798 -0.126448 0
M  V30 10 C -1.72561 -1.61553 0.350728 0
M  V30 11 C -2.80502 -1.52219 1.20775 0
M  V30 12 C -3.26487 -0.286815 1.61866 0
M  V30 13 C -2.61538 0.854556 1.14906 0
M  V30 14 C -1.54482 0.724291 0.298062 0
M  V30 15 H 1.46225 -1.78279 -0.0261668 0
M  V30 16 H 2.43648 -1.46995 -2.08275 0
M  V30 17 H 2.21768 0.272138 -1.99638 0
M  V30 18 H 2.39191 1.89366 1.5399 0
M  V30 19 H 3.81358 2.41919 -0.708888 0
M  V30 20 H 2.4318 3.39245 -0.260195 0
M  V30 21 H 0.08192 0.42707 -1.64074 0
M  V30 22 H -1.10909 -1.74488 -2.02541 0
M  V30 23 H -1.39424 -2.62456 0.0565801 0
M  V30 24 H -3.31487 -2.39821 1.57266 0
M  V30 25 H -4.11151 -0.155367 2.29447 0
M  V30 26 H -2.99904 1.82409 1.49406 0
M  V30 27 H -1.04121 1.63055 -0.0634288 0
M  V30 END ATOM
M  V30 BEGIN BOND
M  V30 1 1 1 2
M  V30 2 1 1 3
M  V30 3 2 3 4
M  V30 4 1 3 5
M  V30 5 1 5 6
M  V30 6 1 1 7
M  V30 7 1 7 8
M  V30 8 1 7 9
M  V30 9 2 9 10
M  V30 10 1 10 11
M  V30 11 2 11 12
M  V30 12 1 12 13
M  V30 13 2 13 14
M  V30 14 1 14 9
M  V30 15 1 1 15 CFG=1
M  V30 16 1 2 16
M  V30 17 1 2 17
M  V30 18 1 5 18
M  V30 19 1 6 19
M  V30 20 1 6 20
M  V30 21 1 7 21 CFG=3
M  V30 22 1 8 22
M  V30 23 1 10 23
M  V30 24 1 11 24
M  V30 25 1 12 25
M  V30 26 1 13 26
M  V30 27 1 14 27
M  V30 END BOND
M  V30 END CTAB
M  END
