
     RDKit          3D

  0  0  0  0  0  0  0  0  0  0999 V3000
M  V30 BEGIN CTAB
M  V30 COUNTS 26 26 0 0 0
M  V30 BEGIN ATOM
M  V30 1 C 1.2381 0.122696 1.76364 0
M  V30 2 C 0.599614 -0.169891 0.457406 0
M  V30 3 N 1.34892 -0.353546 -0.566715 0
M  V30 4 N 2.75 -0.294622 -0.529606 0
M  V30 5 C 3.41833 0.965344 -0.522609 0
M  V30 6 N 4.83521 1.04254 -0.485251 0
M  V30 7 S 2.58515 2.37548 -0.557204 0
M  V30 8 C -0.852605 -0.232631 0.410668 0
M  V30 9 C -1.52378 -0.499956 -0.764495 0
M  V30 10 C -2.89741 -0.563631 -0.830381 0
M  V30 11 N -3.5412 -0.84108 -2.0592 0
M  V30 12 C -3.66616 -0.355786 0.310899 0
M  V30 13 C -2.98641 -0.0866472 1.49333 0
M  V30 14 C -1.61059 -0.0273673 1.53753 0
M  V30 15 H 0.762595 -0.519786 2.56193 0
M  V30 16 H 2.31774 -0.0536174 1.70824 0
M  V30 17 H 1.02693 1.18421 2.07671 0
M  V30 18 H 3.34657 -1.14869 -0.506176 0
M  V30 19 H 5.45085 1.09506 -1.32078 0
M  V30 20 H 5.29154 1.04689 0.448403 0
M  V30 21 H -0.904297 -0.658536 -1.64108 0
M  V30 22 H -3.01086 -0.745322 -2.95029 0
M  V30 23 H -4.52772 -1.13876 -2.1149 0
M  V30 24 H -4.74617 -0.405688 0.259911 0
M  V30 25 H -3.55562 0.0775209 2.3881 0
M  V30 26 H -1.14873 0.185816 2.48709 0
M  V30 END ATOM
M  V30 BEGIN BOND
M  V30 1 1 1 2
M  V30 2 2 2 3
M  V30 3 1 3 4
M  V30 4 1 4 5
M  V30 5 1 5 6
M  V30 6 2 5 7
M  V30 7 1 2 8
M  V30 8 2 8 9
M  V30 9 1 9 10
M  V30 10 1 10 11
M  V30 11 2 10 12
M  V30 12 1 12 13
M  V30 13 2 13 14
M  V30 14 1 14 8
M  V30 15 1 1 15
M  V30 16 1 1 16
M  V30 17 1 1 17
M  V30 18 1 4 18
M  V30 19 1 6 19
M  V30 20 1 6 20
M  V30 21 1 9 21
M  V30 22 1 11 22
M  V30 23 1 11 23
M  V30 24 1 12 24
M  V30 25 1 13 25
M  V30 26 1 14 26
M  V30 END BOND
M  V30 END CTAB
M  END
