
     RDKit          3D

  0  0  0  0  0  0  0  0  0  0999 V3000
M  V30 BEGIN CTAB
M  V30 COUNTS 22 22 0 0 0
M  V30 BEGIN ATOM
M  V30 1 N -0.706301 2.21545 -0.0562101 0
M  V30 2 C -1.24665 0.931538 0.341819 0
M  V30 3 C -0.38908 -0.132434 -0.350823 0
M  V30 4 N 0.971289 0.019308 0.0832775 0
M  V30 5 C 1.37835 0.0677936 1.35158 0
M  V30 6 N 2.70956 0.215209 1.36259 0
M  V30 7 N 3.13142 0.258546 0.111077 0
M  V30 8 C 2.06001 0.137786 -0.681447 0
M  V30 9 O 2.00903 0.128744 -1.94314 0
M  V30 10 C -0.96398 -1.49514 -0.0240906 0
M  V30 11 N -2.30756 -1.53561 -0.507436 0
M  V30 12 H 0.320162 2.16189 -0.241831 0
M  V30 13 H -1.23687 2.63895 -0.849731 0
M  V30 14 H -2.30966 0.813475 0.0734269 0
M  V30 15 H -1.1789 0.834305 1.44318 0
M  V30 16 H -0.440764 0.0312684 -1.43256 0
M  V30 17 H 0.724814 -0.00221942 2.22293 0
M  V30 18 H 4.12819 0.368023 -0.222569 0
M  V30 19 H -0.31709 -2.23729 -0.558934 0
M  V30 20 H -0.857714 -1.73106 1.05281 0
M  V30 21 H -3.03186 -1.64029 0.207079 0
M  V30 22 H -2.44638 -2.04826 -1.38099 0
M  V30 END ATOM
M  V30 BEGIN BOND
M  V30 1 1 1 2
M  V30 2 1 2 3
M  V30 3 1 3 4
M  V30 4 1 4 5
M  V30 5 2 5 6
M  V30 6 1 6 7
M  V30 7 1 7 8
M  V30 8 2 8 9
M  V30 9 1 3 10
M  V30 10 1 10 11
M  V30 11 1 8 4
M  V30 12 1 1 12
M  V30 13 1 1 13
M  V30 14 1 2 14
M  V30 15 1 2 15
M  V30 16 1 3 16
M  V30 17 1 5 17
M  V30 18 1 7 18
M  V30 19 1 10 19
M  V30 20 1 10 20
M  V30 21 1 11 21
M  V30 22 1 11 22
M  V30 END BOND
M  V30 END CTAB
M  END
