
     RDKit          3D

  0  0  0  0  0  0  0  0  0  0999 V3000
M  V30 BEGIN CTAB
M  V30 COUNTS 19 19 0 0 0
M  V30 BEGIN ATOM
M  V30 1 N 0.258852 2.06896 -0.00712363 0
M  V30 2 C -0.441028 0.841122 0.00559925 0
M  V30 3 C 0.13803 -0.368952 -0.314274 0
M  V30 4 C -0.54273 -1.55848 -0.301223 0
M  V30 5 C -1.88085 -1.57998 0.0463771 0
M  V30 6 Br -2.87654 -3.21764 0.079716 0
M  V30 7 C -2.48406 -0.381107 0.371019 0
M  V30 8 C -1.79066 0.811342 0.355059 0
M  V30 9 S 1.84611 -0.312495 -0.753905 0
M  V30 10 N 2.74395 0.331051 0.588274 0
M  V30 11 O 2.35512 -1.62615 -1.2011 0
M  V30 12 O 1.94819 0.744403 -1.84478 0
M  V30 13 H 0.499088 2.55662 -0.887986 0
M  V30 14 H 0.544934 2.5028 0.888395 0
M  V30 15 H -0.0434174 -2.48432 -0.560698 0
M  V30 16 H -3.53202 -0.364868 0.647819 0
M  V30 17 H -2.25844 1.75897 0.609304 0
M  V30 18 H 3.43059 -0.372271 0.954186 0
M  V30 19 H 2.08489 0.650982 1.32534 0
M  V30 END ATOM
M  V30 BEGIN BOND
M  V30 1 1 1 2
M  V30 2 2 2 3
M  V30 3 1 3 4
M  V30 4 2 4 5
M  V30 5 1 5 6
M  V30 6 1 5 7
M  V30 7 2 7 8
M  V30 8 1 3 9
M  V30 9 1 9 10
M  V30 10 2 9 11
M  V30 11 2 9 12
M  V30 12 1 8 2
M  V30 13 1 1 13
M  V30 14 1 1 14
M  V30 15 1 4 15
M  V30 16 1 7 16
M  V30 17 1 8 17
M  V30 18 1 10 18
M  V30 19 1 10 19
M  V30 END BOND
M  V30 END CTAB
M  END
