
     RDKit          3D

  0  0  0  0  0  0  0  0  0  0999 V3000
M  V30 BEGIN CTAB
M  V30 COUNTS 14 14 0 0 0
M  V30 BEGIN ATOM
M  V30 1 N 2.55853 -0.389009 -0.0984317 0
M  V30 2 C 1.15826 -0.561691 0.0105156 0
M  V30 3 N 0.474643 -1.72206 0.215805 0
M  V30 4 N -0.826442 -1.49538 0.262306 0
M  V30 5 C -1.07212 -0.169336 0.0897034 0
M  V30 6 N -2.33759 0.487056 0.0733405 0
M  V30 7 C 0.169626 0.404281 -0.066343 0
M  V30 8 C 0.404494 1.81875 -0.28046 0
M  V30 9 N 0.593 2.94378 -0.452326 0
M  V30 10 H 3.21223 -0.850909 0.550994 0
M  V30 11 H 2.93169 0.214881 -0.84755 0
M  V30 12 H -1.61959 -2.15948 0.40405 0
M  V30 13 H -2.9037 0.570686 -0.797283 0
M  V30 14 H -2.74304 0.908419 0.935679 0
M  V30 END ATOM
M  V30 BEGIN BOND
M  V30 1 1 1 2
M  V30 2 2 2 3
M  V30 3 1 3 4
M  V30 4 1 4 5
M  V30 5 1 5 6
M  V30 6 2 5 7
M  V30 7 1 7 8
M  V30 8 3 8 9
M  V30 9 1 7 2
M  V30 10 1 1 10
M  V30 11 1 1 11
M  V30 12 1 4 12
M  V30 13 1 6 13
M  V30 14 1 6 14
M  V30 END BOND
M  V30 END CTAB
M  END
