
     RDKit          3D

  0  0  0  0  0  0  0  0  0  0999 V3000
M  V30 BEGIN CTAB
M  V30 COUNTS 29 30 0 0 0
M  V30 BEGIN ATOM
M  V30 1 O -0.974698 1.62496 1.4121 0
M  V30 2 C -1.02688 0.257488 0.849825 0
M  V30 3 C -1.99096 0.416531 -0.253235 0
M  V30 4 N -3.26292 1.0367 0.291323 0
M  V30 5 C -1.89362 0.316989 -1.68418 0
M  V30 6 C -2.44738 -0.879199 -0.951745 0
M  V30 7 C 0.360765 -0.0988983 0.59994 0
M  V30 8 C 1.11523 0.184607 -0.502698 0
M  V30 9 C 2.48105 -0.152843 -0.577591 0
M  V30 10 C 3.21091 0.197217 -1.81774 0
M  V30 11 C 3.11017 -0.782309 0.46079 0
M  V30 12 N 2.35907 -1.05741 1.54313 0
M  V30 13 C 1.05343 -0.747305 1.64242 0
M  V30 14 N 0.313819 -1.06266 2.80637 0
M  V30 15 H -0.409114 2.09955 0.765038 0
M  V30 16 H -1.47052 -0.313563 1.67904 0
M  V30 17 H -3.39732 0.59799 1.21091 0
M  V30 18 H -3.15268 2.05087 0.373223 0
M  V30 19 H -1.08716 0.038562 -2.35646 0
M  V30 20 H -2.69388 0.88099 -2.27216 0
M  V30 21 H -3.5169 -1.111 -1.04476 0
M  V30 22 H -1.80641 -1.76277 -0.768412 0
M  V30 23 H 0.679908 0.715743 -1.33469 0
M  V30 24 H 3.0119 1.28806 -1.9739 0
M  V30 25 H 2.8695 -0.410905 -2.68044 0
M  V30 26 H 4.2829 0.0619101 -1.72458 0
M  V30 27 H 4.16606 -1.04463 0.413972 0
M  V30 28 H -0.409404 -1.80069 2.75531 0
M  V30 29 H 0.525135 -0.543986 3.66333 0
M  V30 END ATOM
M  V30 BEGIN BOND
M  V30 1 1 1 2
M  V30 2 1 2 3
M  V30 3 1 3 4
M  V30 4 1 3 5
M  V30 5 1 5 6
M  V30 6 1 2 7
M  V30 7 2 7 8
M  V30 8 1 8 9
M  V30 9 1 9 10
M  V30 10 2 9 11
M  V30 11 1 11 12
M  V30 12 2 12 13
M  V30 13 1 13 14
M  V30 14 1 6 3
M  V30 15 1 13 7
M  V30 16 1 1 15
M  V30 17 1 2 16
M  V30 18 1 4 17
M  V30 19 1 4 18
M  V30 20 1 5 19
M  V30 21 1 5 20
M  V30 22 1 6 21
M  V30 23 1 6 22
M  V30 24 1 8 23
M  V30 25 1 10 24
M  V30 26 1 10 25
M  V30 27 1 10 26
M  V30 28 1 11 27
M  V30 29 1 14 28
M  V30 30 1 14 29
M  V30 END BOND
M  V30 END CTAB
M  END
