
     RDKit          3D

  0  0  0  0  0  0  0  0  0  0999 V3000
M  V30 BEGIN CTAB
M  V30 COUNTS 20 20 0 0 0
M  V30 BEGIN ATOM
M  V30 1 N -3.28476 -0.13512 -0.00863427 0
M  V30 2 N -2.02494 -0.732349 -0.110183 0
M  V30 3 C -0.811817 -0.00480227 -0.0148648 0
M  V30 4 C -0.885209 1.35756 0.175729 0
M  V30 5 C 0.295821 2.06357 0.268116 0
M  V30 6 C 1.54806 1.45101 0.176194 0
M  V30 7 C 1.59864 0.0878075 -0.0140983 0
M  V30 8 C 0.410346 -0.627705 -0.108048 0
M  V30 9 N 0.472274 -2.03163 -0.303051 0 CHG=1
M  V30 10 O 0.208089 -2.78033 0.649249 0
M  V30 11 O 0.817883 -2.53032 -1.50441 0 CHG=-1
M  V30 12 N 2.85373 -0.56718 -0.111157 0
M  V30 13 H -3.29516 0.775266 -0.511691 0
M  V30 14 H -3.56595 0.053549 0.988887 0
M  V30 15 H -1.95472 -1.77898 -0.265481 0
M  V30 16 H -1.80334 1.9221 0.259441 0
M  V30 17 H 0.285663 3.12726 0.413003 0
M  V30 18 H 2.47797 2.00393 0.247331 0
M  V30 19 H 3.21048 -1.04808 0.739405 0
M  V30 20 H 3.44695 -0.605551 -0.965737 0
M  V30 END ATOM
M  V30 BEGIN BOND
M  V30 1 1 1 2
M  V30 2 1 2 3
M  V30 3 2 3 4
M  V30 4 1 4 5
M  V30 5 2 5 6
M  V30 6 1 6 7
M  V30 7 2 7 8
M  V30 8 1 8 9
M  V30 9 2 9 10
M  V30 10 1 9 11
M  V30 11 1 7 12
M  V30 12 1 8 3
M  V30 13 1 1 13
M  V30 14 1 1 14
M  V30 15 1 2 15
M  V30 16 1 4 16
M  V30 17 1 5 17
M  V30 18 1 6 18
M  V30 19 1 12 19
M  V30 20 1 12 20
M  V30 END BOND
M  V30 END CTAB
M  END
