
     RDKit          3D

  0  0  0  0  0  0  0  0  0  0999 V3000
M  V30 BEGIN CTAB
M  V30 COUNTS 37 39 0 0 0
M  V30 BEGIN ATOM
M  V30 1 N -3.26849 0.460967 2.379 0
M  V30 2 C -2.63946 0.659489 1.11704 0
M  V30 3 C -1.8339 1.76323 0.899602 0
M  V30 4 C -1.21441 1.9583 -0.343591 0
M  V30 5 C -1.39732 1.0586 -1.36181 0
M  V30 6 C -2.1984 -0.0370935 -1.14325 0
M  V30 7 C -2.80831 -0.230621 0.0779984 0
M  V30 8 C -3.62201 -1.33564 0.304993 0
M  V30 9 C -3.79558 -2.22615 -0.731493 0
M  V30 10 C -3.20522 -2.07341 -1.97147 0
M  V30 11 C -2.40658 -0.964895 -2.15432 0
M  V30 12 N -0.793916 1.22758 -2.61313 0
M  V30 13 N 0.413774 1.06094 -2.78268 0
M  V30 14 C 1.28077 0.687976 -1.73206 0
M  V30 15 C 2.17817 1.62829 -1.23003 0
M  V30 16 C 3.05733 1.33455 -0.209169 0
M  V30 17 C 3.08914 0.0828204 0.368204 0
M  V30 18 C 2.20566 -0.85451 -0.121067 0
M  V30 19 C 1.32559 -0.556965 -1.14459 0
M  V30 20 S 4.20953 -0.289321 1.66828 0
M  V30 21 O 3.65729 -1.39892 2.5489 0
M  V30 22 O 4.43319 0.897112 2.55458 0
M  V30 23 N 5.67326 -0.882693 0.988888 0
M  V30 24 H -3.08346 -0.36343 2.98668 0
M  V30 25 H -3.95105 1.16578 2.72791 0
M  V30 26 H -1.69224 2.46155 1.69131 0
M  V30 27 H -0.601962 2.82984 -0.470288 0
M  V30 28 H -4.09117 -1.46814 1.27201 0
M  V30 29 H -4.42591 -3.09867 -0.583017 0
M  V30 30 H -3.34991 -2.77958 -2.77581 0
M  V30 31 H -1.90675 -0.76683 -3.09022 0
M  V30 32 H 2.16113 2.62107 -1.67964 0
M  V30 33 H 3.75027 2.07432 0.172532 0
M  V30 34 H 2.24193 -1.83772 0.343904 0
M  V30 35 H 0.64817 -1.31549 -1.50591 0
M  V30 36 H 6.43 -0.168152 0.972818 0
M  V30 37 H 5.53084 -1.32419 0.0549931 0
M  V30 END ATOM
M  V30 BEGIN BOND
M  V30 1 1 1 2
M  V30 2 2 2 3
M  V30 3 1 3 4
M  V30 4 2 4 5
M  V30 5 1 5 6
M  V30 6 2 6 7
M  V30 7 1 7 8
M  V30 8 2 8 9
M  V30 9 1 9 10
M  V30 10 2 10 11
M  V30 11 1 5 12
M  V30 12 2 12 13
M  V30 13 1 13 14
M  V30 14 2 14 15
M  V30 15 1 15 16
M  V30 16 2 16 17
M  V30 17 1 17 18
M  V30 18 2 18 19
M  V30 19 1 17 20
M  V30 20 2 20 21
M  V30 21 2 20 22
M  V30 22 1 20 23
M  V30 23 1 7 2
M  V30 24 1 19 14
M  V30 25 1 11 6
M  V30 26 1 1 24
M  V30 27 1 1 25
M  V30 28 1 3 26
M  V30 29 1 4 27
M  V30 30 1 8 28
M  V30 31 1 9 29
M  V30 32 1 10 30
M  V30 33 1 11 31
M  V30 34 1 15 32
M  V30 35 1 16 33
M  V30 36 1 18 34
M  V30 37 1 19 35
M  V30 38 1 23 36
M  V30 39 1 23 37
M  V30 END BOND
M  V30 END CTAB
M  END
