
     RDKit          3D

  0  0  0  0  0  0  0  0  0  0999 V3000
M  V30 BEGIN CTAB
M  V30 COUNTS 25 25 0 0 0
M  V30 BEGIN ATOM
M  V30 1 C -3.02281 0.685123 0.929785 0
M  V30 2 O -3.33385 0.834048 -0.396524 0
M  V30 3 C -3.32935 -0.31427 -1.13825 0
M  V30 4 C -2.00655 -0.887567 -1.31467 0
M  V30 5 O -1.81295 -2.0736 -1.72545 0
M  V30 6 N -0.830123 -0.0989245 -1.02713 0
M  V30 7 N 0.377763 -0.725247 -1.22423 0
M  V30 8 C 1.42719 -0.505545 -0.592465 0
M  V30 9 C 1.57492 0.444634 0.462771 0
M  V30 10 N 0.704081 1.27882 1.00677 0
M  V30 11 O 1.25036 1.98183 1.95486 0
M  V30 12 N 2.5028 1.65308 2.08823 0
M  V30 13 C 2.75807 0.694398 1.1779 0
M  V30 14 N 3.98958 0.0273058 0.947536 0
M  V30 15 N 2.58585 -1.2957 -0.980542 0
M  V30 16 H -3.03182 1.69518 1.41273 0
M  V30 17 H -3.85934 0.0933715 1.40791 0
M  V30 18 H -2.0982 0.188659 1.19132 0
M  V30 19 H -4.07026 -1.03133 -0.702506 0
M  V30 20 H -3.70705 -0.0709193 -2.17093 0
M  V30 21 H -0.975215 0.885757 -0.723329 0
M  V30 22 H 4.19935 -0.955715 1.21947 0
M  V30 23 H 4.73873 0.569364 0.468148 0
M  V30 24 H 2.80864 -2.19579 -0.534328 0
M  V30 25 H 3.16019 -0.876974 -1.73708 0
M  V30 END ATOM
M  V30 BEGIN BOND
M  V30 1 1 1 2
M  V30 2 1 2 3
M  V30 3 1 3 4
M  V30 4 2 4 5
M  V30 5 1 4 6
M  V30 6 1 6 7
M  V30 7 2 7 8
M  V30 8 1 8 9
M  V30 9 2 9 10
M  V30 10 1 10 11
M  V30 11 1 11 12
M  V30 12 2 12 13
M  V30 13 1 13 14
M  V30 14 1 8 15
M  V30 15 1 13 9
M  V30 16 1 1 16
M  V30 17 1 1 17
M  V30 18 1 1 18
M  V30 19 1 3 19
M  V30 20 1 3 20
M  V30 21 1 6 21
M  V30 22 1 14 22
M  V30 23 1 14 23
M  V30 24 1 15 24
M  V30 25 1 15 25
M  V30 END BOND
M  V30 END CTAB
M  END
