
     RDKit          3D

  0  0  0  0  0  0  0  0  0  0999 V3000
M  V30 BEGIN CTAB
M  V30 COUNTS 19 19 0 0 0
M  V30 BEGIN ATOM
M  V30 1 C -2.01698 -1.01 -0.658166 0
M  V30 2 C -0.754628 -0.358101 -0.235628 0
M  V30 3 C 0.439788 -0.989217 -0.503407 0
M  V30 4 C 1.64757 -0.414579 -0.125396 0
M  V30 5 N 2.87963 -1.05947 -0.398376 0
M  V30 6 C 1.5945 0.802844 0.52275 0
M  V30 7 C 0.393635 1.42651 0.786167 0
M  V30 8 C -0.813241 0.856568 0.410727 0
M  V30 9 N -2.05823 1.46643 0.664201 0
M  V30 10 Br 3.22428 1.63276 1.06199 0
M  V30 11 H -2.09439 -2.00845 -0.154466 0
M  V30 12 H -1.97793 -1.22114 -1.7614 0
M  V30 13 H -2.89297 -0.433876 -0.365401 0
M  V30 14 H 0.493753 -1.94993 -1.01419 0
M  V30 15 H 3.15815 -1.22848 -1.38342 0
M  V30 16 H 3.5036 -1.36319 0.372526 0
M  V30 17 H 0.328745 2.38959 1.29756 0
M  V30 18 H -2.23276 2.41097 0.256213 0
M  V30 19 H -2.8225 1.05075 1.22771 0
M  V30 END ATOM
M  V30 BEGIN BOND
M  V30 1 1 1 2
M  V30 2 2 2 3
M  V30 3 1 3 4
M  V30 4 1 4 5
M  V30 5 2 4 6
M  V30 6 1 6 7
M  V30 7 2 7 8
M  V30 8 1 8 9
M  V30 9 1 6 10
M  V30 10 1 8 2
M  V30 11 1 1 11
M  V30 12 1 1 12
M  V30 13 1 1 13
M  V30 14 1 3 14
M  V30 15 1 5 15
M  V30 16 1 5 16
M  V30 17 1 7 17
M  V30 18 1 9 18
M  V30 19 1 9 19
M  V30 END BOND
M  V30 END CTAB
M  END
