
     RDKit          3D

  0  0  0  0  0  0  0  0  0  0999 V3000
M  V30 BEGIN CTAB
M  V30 COUNTS 43 42 0 0 0
M  V30 BEGIN ATOM
M  V30 1 C -3.65836 0.550535 2.51477 0
M  V30 2 C -2.7309 0.545663 1.27225 0
M  V30 3 C -3.39305 -0.226045 0.188673 0
M  V30 4 C -2.70157 -0.283448 -1.09808 0
M  V30 5 C -1.37822 -0.928493 -1.15706 0
M  V30 6 N -0.38832 -0.305623 -0.357695 0
M  V30 7 C 0.645745 -0.989261 0.330231 0
M  V30 8 O 0.649381 -2.25942 0.199419 0
M  V30 9 C 1.63255 -0.285146 1.13179 0 CFG=2
M  V30 10 C 2.66682 0.499393 0.356287 0
M  V30 11 C 3.57615 1.12552 1.42973 0
M  V30 12 C 3.49769 -0.339183 -0.554894 0
M  V30 13 C 2.043 1.6583 -0.363858 0
M  V30 14 N 2.37803 -1.29792 1.90415 0
M  V30 15 C -0.900535 -1.02492 -2.62884 0
M  V30 16 N -0.79976 0.296251 -3.21823 0
M  V30 17 H -3.28378 1.33515 3.17505 0
M  V30 18 H -4.66847 0.72554 2.11975 0
M  V30 19 H -3.59546 -0.471237 2.92591 0
M  V30 20 H -1.81886 0.0393006 1.63308 0
M  V30 21 H -2.50893 1.56715 0.940464 0
M  V30 22 H -3.54918 -1.27551 0.629128 0
M  V30 23 H -4.43876 0.165237 0.00618392 0
M  V30 24 H -2.62835 0.802819 -1.50064 0
M  V30 25 H -3.39155 -0.715942 -1.91081 0
M  V30 26 H -1.4011 -2.01589 -0.834961 0
M  V30 27 H -0.438668 0.728225 -0.268633 0
M  V30 28 H 1.20096 0.403591 1.88512 0
M  V30 29 H 3.11236 2.00408 1.89106 0
M  V30 30 H 3.78947 0.393005 2.23005 0
M  V30 31 H 4.56303 1.40084 0.988088 0
M  V30 32 H 4.45992 -0.637113 -0.0496329 0
M  V30 33 H 3.81029 0.252998 -1.46033 0
M  V30 34 H 3.01927 -1.28622 -0.864223 0
M  V30 35 H 2.82727 2.44102 -0.61521 0
M  V30 36 H 1.57534 1.41495 -1.31755 0
M  V30 37 H 1.33374 2.2037 0.282877 0
M  V30 38 H 1.6761 -1.73599 2.56884 0
M  V30 39 H 2.61986 -2.0652 1.22465 0
M  V30 40 H 0.0144974 -1.60494 -2.72124 0
M  V30 41 H -1.70893 -1.5597 -3.16728 0
M  V30 42 H -1.67009 0.52427 -3.78086 0
M  V30 43 H -0.0386124 0.229651 -3.95752 0
M  V30 END ATOM
M  V30 BEGIN BOND
M  V30 1 1 1 2
M  V30 2 1 2 3
M  V30 3 1 3 4
M  V30 4 1 4 5
M  V30 5 1 5 6
M  V30 6 1 6 7
M  V30 7 2 7 8
M  V30 8 1 7 9
M  V30 9 1 9 10
M  V30 10 1 10 11
M  V30 11 1 10 12
M  V30 12 1 10 13
M  V30 13 1 9 14
M  V30 14 1 5 15
M  V30 15 1 15 16
M  V30 16 1 1 17
M  V30 17 1 1 18
M  V30 18 1 1 19
M  V30 19 1 2 20
M  V30 20 1 2 21
M  V30 21 1 3 22
M  V30 22 1 3 23
M  V30 23 1 4 24
M  V30 24 1 4 25
M  V30 25 1 5 26
M  V30 26 1 6 27
M  V30 27 1 9 28 CFG=1
M  V30 28 1 11 29
M  V30 29 1 11 30
M  V30 30 1 11 31
M  V30 31 1 12 32
M  V30 32 1 12 33
M  V30 33 1 12 34
M  V30 34 1 13 35
M  V30 35 1 13 36
M  V30 36 1 13 37
M  V30 37 1 14 38
M  V30 38 1 14 39
M  V30 39 1 15 40
M  V30 40 1 15 41
M  V30 41 1 16 42
M  V30 42 1 16 43
M  V30 END BOND
M  V30 END CTAB
M  END
