
     RDKit          3D

  0  0  0  0  0  0  0  0  0  0999 V3000
M  V30 BEGIN CTAB
M  V30 COUNTS 23 24 0 0 0
M  V30 BEGIN ATOM
M  V30 1 N 3.9643 0.832186 -0.840074 0
M  V30 2 C 2.83942 -0.0176823 -0.58565 0
M  V30 3 S 2.79478 -1.70903 -0.359084 0
M  V30 4 C 1.12147 -1.90286 -0.104444 0
M  V30 5 C 0.666639 -0.606148 -0.212198 0
M  V30 6 N 1.56838 0.311365 -0.457773 0
M  V30 7 C -0.783076 -0.248194 -0.0463365 0
M  V30 8 N -1.55929 -1.41316 0.194171 0
M  V30 9 C -0.994806 0.811219 1.00086 0
M  V30 10 O -2.2641 1.29636 0.729173 0
M  V30 11 C -2.5618 1.10944 -0.586847 0
M  V30 12 C -1.34234 0.468533 -1.26589 0
M  V30 13 H 3.89813 1.85921 -0.715186 0
M  V30 14 H 4.8516 0.420833 -1.15613 0
M  V30 15 H 0.500138 -2.79295 0.096345 0
M  V30 16 H -1.40196 -1.87395 1.09487 0
M  V30 17 H -1.61693 -2.03155 -0.632566 0
M  V30 18 H -0.232846 1.61845 0.776 0
M  V30 19 H -0.930354 0.455746 2.03039 0
M  V30 20 H -3.35591 0.335441 -0.64781 0
M  V30 21 H -2.89588 2.01043 -1.12709 0
M  V30 22 H -0.631612 1.27549 -1.6126 0
M  V30 23 H -1.63396 -0.209169 -2.0677 0
M  V30 END ATOM
M  V30 BEGIN BOND
M  V30 1 1 1 2
M  V30 2 1 2 3
M  V30 3 1 3 4
M  V30 4 2 4 5
M  V30 5 1 5 6
M  V30 6 1 5 7
M  V30 7 1 7 8
M  V30 8 1 7 9
M  V30 9 1 9 10
M  V30 10 1 10 11
M  V30 11 1 11 12
M  V30 12 2 6 2
M  V30 13 1 12 7
M  V30 14 1 1 13
M  V30 15 1 1 14
M  V30 16 1 4 15
M  V30 17 1 8 16
M  V30 18 1 8 17
M  V30 19 1 9 18
M  V30 20 1 9 19
M  V30 21 1 11 20
M  V30 22 1 11 21
M  V30 23 1 12 22
M  V30 24 1 12 23
M  V30 END BOND
M  V30 END CTAB
M  END
