
     RDKit          3D

  0  0  0  0  0  0  0  0  0  0999 V3000
M  V30 BEGIN CTAB
M  V30 COUNTS 26 28 0 0 0
M  V30 BEGIN ATOM
M  V30 1 N 5.26363 -0.502493 0.542924 0
M  V30 2 C 3.86701 -0.346528 0.349024 0
M  V30 3 N 3.34481 -0.510415 -0.873798 0
M  V30 4 C 2.00028 -0.352828 -1.02194 0
M  V30 5 N 1.41172 -0.533249 -2.32705 0
M  V30 6 C 1.17467 -0.0362689 0.023267 0
M  V30 7 N 1.75209 0.120272 1.24854 0
M  V30 8 N 3.05498 -0.0367992 1.37028 0
M  V30 9 C -0.262331 0.136393 -0.0728152 0
M  V30 10 C -0.776532 0.913378 -1.08233 0
M  V30 11 C -2.14142 1.10409 -1.22177 0
M  V30 12 C -2.96204 0.489813 -0.315846 0
M  V30 13 O -4.35315 0.475435 -0.174505 0
M  V30 14 C -4.64211 0.125438 1.18505 0
M  V30 15 O -3.59254 -0.78023 1.46406 0
M  V30 16 C -2.4982 -0.306069 0.724176 0
M  V30 17 C -1.12959 -0.458522 0.811106 0
M  V30 18 H 5.80921 -1.19722 -0.0167534 0
M  V30 19 H 5.75706 0.0728282 1.24348 0
M  V30 20 H 1.88549 -0.176789 -3.16987 0
M  V30 21 H 0.49781 -1.02969 -2.41463 0
M  V30 22 H -0.148621 1.42057 -1.81587 0
M  V30 23 H -2.49306 1.72377 -2.0324 0
M  V30 24 H -4.47549 1.05644 1.76628 0
M  V30 25 H -5.6409 -0.305909 1.3024 0
M  V30 26 H -0.702752 -1.06542 1.59773 0
M  V30 END ATOM
M  V30 BEGIN BOND
M  V30 1 1 1 2
M  V30 2 2 2 3
M  V30 3 1 3 4
M  V30 4 1 4 5
M  V30 5 2 4 6
M  V30 6 1 6 7
M  V30 7 2 7 8
M  V30 8 1 6 9
M  V30 9 2 9 10
M  V30 10 1 10 11
M  V30 11 2 11 12
M  V30 12 1 12 13
M  V30 13 1 13 14
M  V30 14 1 14 15
M  V30 15 1 15 16
M  V30 16 2 16 17
M  V30 17 1 8 2
M  V30 18 1 17 9
M  V30 19 1 16 12
M  V30 20 1 1 18
M  V30 21 1 1 19
M  V30 22 1 5 20
M  V30 23 1 5 21
M  V30 24 1 10 22
M  V30 25 1 11 23
M  V30 26 1 14 24
M  V30 27 1 14 25
M  V30 28 1 17 26
M  V30 END BOND
M  V30 END CTAB
M  END
