
     RDKit          3D

  0  0  0  0  0  0  0  0  0  0999 V3000
M  V30 BEGIN CTAB
M  V30 COUNTS 58 60 0 0 0
M  V30 BEGIN ATOM
M  V30 1 C -2.15988 -1.14498 -2.06111 0
M  V30 2 N -1.70725 -1.07763 -0.651735 0
M  V30 3 C -2.54522 -1.48447 0.403209 0
M  V30 4 C -3.85247 -0.798096 0.4733 0
M  V30 5 N -4.2779 0.122618 -0.375135 0
M  V30 6 C -5.50477 0.686354 -0.238193 0
M  V30 7 C -5.87505 1.64057 -1.17211 0
M  V30 8 N -4.97235 1.99165 -2.21584 0
M  V30 9 N -7.09294 2.18778 -1.02782 0
M  V30 10 C -7.93576 1.84844 -0.0361036 0
M  V30 11 N -9.22728 2.45178 0.0832384 0
M  V30 12 N -7.56814 0.916551 0.872479 0
M  V30 13 C -6.3556 0.324189 0.787383 0
M  V30 14 N -5.92992 -0.611526 1.65483 0
M  V30 15 C -4.691 -1.16938 1.5025 0
M  V30 16 C -4.24603 -2.20777 2.49191 0
M  V30 17 C -0.407377 -0.580504 -0.414631 0
M  V30 18 C 0.352545 -0.0612445 -1.47821 0
M  V30 19 C 1.62919 0.421669 -1.31767 0
M  V30 20 C 2.24864 0.42481 -0.086686 0
M  V30 21 C 1.5333 -0.0766494 0.976872 0
M  V30 22 C 0.243212 -0.561183 0.799398 0
M  V30 23 C 3.60498 0.950072 0.0844189 0
M  V30 24 O 3.9374 2.06341 -0.364352 0
M  V30 25 N 4.55625 0.168432 0.775834 0
M  V30 26 C 5.91425 0.63187 0.984225 0
M  V30 27 C 6.89828 -0.169357 0.151205 0
M  V30 28 C 6.49186 0.0278155 -1.2983 0
M  V30 29 C 7.37697 -0.707962 -2.23683 0
M  V30 30 O 8.40468 -1.50442 -1.75225 0
M  V30 31 O 7.16895 -0.588485 -3.45832 0
M  V30 32 C 6.22649 0.603519 2.42175 0
M  V30 33 O 7.48217 1.00684 2.83638 0
M  V30 34 O 5.38577 0.22593 3.253 0
M  V30 35 H -3.10419 -1.68968 -2.13711 0
M  V30 36 H -2.17226 -0.146523 -2.53298 0
M  V30 37 H -1.40273 -1.73988 -2.64257 0
M  V30 38 H -2.02316 -1.51127 1.35909 0
M  V30 39 H -2.81284 -2.57101 0.200487 0
M  V30 40 H -4.14886 2.59065 -2.10355 0
M  V30 41 H -5.19589 1.58602 -3.17312 0
M  V30 42 H -9.36648 3.5012 0.0976326 0
M  V30 43 H -10.0632 1.86742 0.158527 0
M  V30 44 H -3.85635 -3.09349 1.9515 0
M  V30 45 H -3.4872 -1.77745 3.1995 0
M  V30 46 H -5.14072 -2.55139 3.04233 0
M  V30 47 H -0.14475 -0.0683071 -2.44485 0
M  V30 48 H 2.1523 0.802951 -2.17121 0
M  V30 49 H 1.97268 -0.0985091 1.96996 0
M  V30 50 H -0.270925 -0.947696 1.69056 0
M  V30 51 H 4.30724 -0.780507 1.16377 0
M  V30 52 H 5.99204 1.67861 0.598096 0
M  V30 53 H 7.89863 0.295065 0.298547 0
M  V30 54 H 6.95568 -1.22249 0.417427 0
M  V30 55 H 5.45664 -0.284019 -1.49559 0
M  V30 56 H 6.56449 1.10224 -1.58659 0
M  V30 57 H 8.85749 -1.38655 -0.860199 0
M  V30 58 H 7.92637 0.493975 3.6074 0
M  V30 END ATOM
M  V30 BEGIN BOND
M  V30 1 1 1 2
M  V30 2 1 2 3
M  V30 3 1 3 4
M  V30 4 2 4 5
M  V30 5 1 5 6
M  V30 6 2 6 7
M  V30 7 1 7 8
M  V30 8 1 7 9
M  V30 9 2 9 10
M  V30 10 1 10 11
M  V30 11 1 10 12
M  V30 12 2 12 13
M  V30 13 1 13 14
M  V30 14 2 14 15
M  V30 15 1 15 16
M  V30 16 1 2 17
M  V30 17 2 17 18
M  V30 18 1 18 19
M  V30 19 2 19 20
M  V30 20 1 20 21
M  V30 21 2 21 22
M  V30 22 1 20 23
M  V30 23 2 23 24
M  V30 24 1 23 25
M  V30 25 1 25 26
M  V30 26 1 26 27
M  V30 27 1 27 28
M  V30 28 1 28 29
M  V30 29 1 29 30
M  V30 30 2 29 31
M  V30 31 1 26 32
M  V30 32 1 32 33
M  V30 33 2 32 34
M  V30 34 1 15 4
M  V30 35 1 22 17
M  V30 36 1 13 6
M  V30 37 1 1 35
M  V30 38 1 1 36
M  V30 39 1 1 37
M  V30 40 1 3 38
M  V30 41 1 3 39
M  V30 42 1 8 40
M  V30 43 1 8 41
M  V30 44 1 11 42
M  V30 45 1 11 43
M  V30 46 1 16 44
M  V30 47 1 16 45
M  V30 48 1 16 46
M  V30 49 1 18 47
M  V30 50 1 19 48
M  V30 51 1 21 49
M  V30 52 1 22 50
M  V30 53 1 25 51
M  V30 54 1 26 52
M  V30 55 1 27 53
M  V30 56 1 27 54
M  V30 57 1 28 55
M  V30 58 1 28 56
M  V30 59 1 30 57
M  V30 60 1 33 58
M  V30 END BOND
M  V30 END CTAB
M  END
