
     RDKit          3D

  0  0  0  0  0  0  0  0  0  0999 V3000
M  V30 BEGIN CTAB
M  V30 COUNTS 22 22 0 0 0
M  V30 BEGIN ATOM
M  V30 1 N -0.628515 2.29709 0.305375 0
M  V30 2 C -0.0274003 1.02266 0.180876 0
M  V30 3 C -0.809132 -0.105359 -0.0944178 0
M  V30 4 C -0.171812 -1.28714 -0.234951 0
M  V30 5 C 1.188 -1.36665 -0.109592 0
M  V30 6 C 1.96606 -0.251619 0.16451 0
M  V30 7 C 1.33966 0.948499 0.304685 0
M  V30 8 C 3.44039 -0.362246 0.351677 0
M  V30 9 F 3.76607 -0.736951 1.66781 0
M  V30 10 F 4.02861 0.840965 0.0813674 0
M  V30 11 F 3.96702 -1.35078 -0.441622 0
M  V30 12 S -2.52052 0.123381 -0.169128 0
M  V30 13 N -3.40481 -1.2636 -0.610324 0
M  V30 14 O -2.84768 1.26694 -1.05578 0
M  V30 15 O -2.97302 0.511895 1.2655 0
M  V30 16 H -0.634701 2.90207 -0.559227 0
M  V30 17 H -1.01269 2.59163 1.19894 0
M  V30 18 H -0.779827 -2.17499 -0.440334 0
M  V30 19 H 1.74314 -2.28026 -0.221646 0
M  V30 20 H 1.89351 1.85668 0.517687 0
M  V30 21 H -4.41466 -1.08157 -0.342301 0
M  V30 22 H -3.10767 -2.10065 -0.0523815 0
M  V30 END ATOM
M  V30 BEGIN BOND
M  V30 1 1 1 2
M  V30 2 2 2 3
M  V30 3 1 3 4
M  V30 4 2 4 5
M  V30 5 1 5 6
M  V30 6 2 6 7
M  V30 7 1 6 8
M  V30 8 1 8 9
M  V30 9 1 8 10
M  V30 10 1 8 11
M  V30 11 1 3 12
M  V30 12 1 12 13
M  V30 13 2 12 14
M  V30 14 2 12 15
M  V30 15 1 7 2
M  V30 16 1 1 16
M  V30 17 1 1 17
M  V30 18 1 4 18
M  V30 19 1 5 19
M  V30 20 1 7 20
M  V30 21 1 13 21
M  V30 22 1 13 22
M  V30 END BOND
M  V30 END CTAB
M  END
