
     RDKit          3D

  0  0  0  0  0  0  0  0  0  0999 V3000
M  V30 BEGIN CTAB
M  V30 COUNTS 66 68 0 0 0
M  V30 BEGIN ATOM
M  V30 1 N 0.705188 6.44765 -2.05688 0
M  V30 2 C 1.11606 6.10002 -0.758056 0
M  V30 3 N 1.472 7.11538 0.166846 0
M  V30 4 N 1.16132 4.86153 -0.430742 0
M  V30 5 C 1.58343 4.49861 0.903658 0
M  V30 6 C 1.77255 2.97012 1.00453 0
M  V30 7 C 0.512835 2.25445 0.707924 0
M  V30 8 C 0.631868 0.777779 0.85762 0 CFG=1
M  V30 9 N -0.68264 0.15845 0.529235 0
M  V30 10 C -1.32598 -0.75408 1.37646 0
M  V30 11 O -0.68444 -1.00976 2.46622 0
M  V30 12 C -2.59542 -1.41285 1.15532 0
M  V30 13 C -3.72957 -0.484117 0.910052 0
M  V30 14 C -4.67746 -0.179263 1.8672 0
M  V30 15 C -5.73223 0.677439 1.5996 0
M  V30 16 C -5.88629 1.26926 0.358975 0
M  V30 17 C -4.96103 0.979551 -0.595602 0
M  V30 18 C -3.90323 0.120669 -0.328372 0
M  V30 19 C -2.5917 -2.57739 0.239967 0
M  V30 20 C -3.22731 -3.77254 0.579152 0
M  V30 21 C -3.24504 -4.87276 -0.24836 0
M  V30 22 C -2.61243 -4.82845 -1.48406 0
M  V30 23 C -1.9791 -3.66089 -1.84 0
M  V30 24 C -1.9727 -2.55091 -0.982547 0
M  V30 25 C 1.57852 0.217991 -0.125142 0
M  V30 26 O 1.13434 -0.413548 -1.15081 0
M  V30 27 N 3.00126 0.312409 -0.031769 0
M  V30 28 C 3.8342 -0.278642 -1.05986 0
M  V30 29 C 3.93095 -1.73464 -0.924937 0
M  V30 30 C 4.52182 -2.51758 -1.88658 0
M  V30 31 C 4.61634 -3.89441 -1.75517 0
M  V30 32 C 4.11276 -4.50592 -0.644298 0
M  V30 33 O 4.21056 -5.90351 -0.514128 0
M  V30 34 C 3.5171 -3.73346 0.328662 0
M  V30 35 C 3.42737 -2.35622 0.188264 0
M  V30 36 H 0.253325 5.768 -2.68706 0
M  V30 37 H 0.85153 7.40278 -2.4055 0
M  V30 38 H 2.41026 7.54468 0.211017 0
M  V30 39 H 0.717823 7.43097 0.834653 0
M  V30 40 H 2.52814 5.0229 1.12439 0
M  V30 41 H 0.819958 4.839 1.60667 0
M  V30 42 H 2.48681 2.76959 0.147239 0
M  V30 43 H 2.23565 2.77577 1.97447 0
M  V30 44 H 0.156403 2.44774 -0.348699 0
M  V30 45 H -0.286327 2.69415 1.3494 0
M  V30 46 H 0.92221 0.439237 1.86219 0
M  V30 47 H -1.09309 0.452803 -0.361786 0
M  V30 48 H -2.8807 -1.87478 2.18476 0
M  V30 49 H -4.55776 -0.644775 2.84608 0
M  V30 50 H -6.44748 0.886529 2.37416 0
M  V30 51 H -6.70735 1.93935 0.140629 0
M  V30 52 H -5.0456 1.42939 -1.59574 0
M  V30 53 H -3.23234 -0.0498496 -1.15486 0
M  V30 54 H -3.72444 -3.81203 1.5463 0
M  V30 55 H -3.73578 -5.80126 0.00874921 0
M  V30 56 H -2.63848 -5.70488 -2.12168 0
M  V30 57 H -1.48387 -3.61526 -2.798 0
M  V30 58 H -1.46634 -1.66069 -1.304 0
M  V30 59 H 3.4752 0.793434 0.785111 0
M  V30 60 H 3.44243 -0.0419706 -2.0864 0
M  V30 61 H 4.85352 0.167687 -1.01253 0
M  V30 62 H 4.92644 -2.06917 -2.77157 0
M  V30 63 H 5.08243 -4.48529 -2.52092 0
M  V30 64 H 5.01423 -6.34464 -0.0676129 0
M  V30 65 H 3.12478 -4.23981 1.19914 0
M  V30 66 H 2.96452 -1.77996 0.95435 0
M  V30 END ATOM
M  V30 BEGIN BOND
M  V30 1 1 1 2
M  V30 2 1 2 3
M  V30 3 2 2 4
M  V30 4 1 4 5
M  V30 5 1 5 6
M  V30 6 1 6 7
M  V30 7 1 7 8
M  V30 8 1 8 9
M  V30 9 1 9 10
M  V30 10 2 10 11
M  V30 11 1 10 12
M  V30 12 1 12 13
M  V30 13 2 13 14
M  V30 14 1 14 15
M  V30 15 2 15 16
M  V30 16 1 16 17
M  V30 17 2 17 18
M  V30 18 1 12 19
M  V30 19 2 19 20
M  V30 20 1 20 21
M  V30 21 2 21 22
M  V30 22 1 22 23
M  V30 23 2 23 24
M  V30 24 1 8 25
M  V30 25 2 25 26
M  V30 26 1 25 27
M  V30 27 1 27 28
M  V30 28 1 28 29
M  V30 29 2 29 30
M  V30 30 1 30 31
M  V30 31 2 31 32
M  V30 32 1 32 33
M  V30 33 1 32 34
M  V30 34 2 34 35
M  V30 35 1 18 13
M  V30 36 1 24 19
M  V30 37 1 35 29
M  V30 38 1 1 36
M  V30 39 1 1 37
M  V30 40 1 3 38
M  V30 41 1 3 39
M  V30 42 1 5 40
M  V30 43 1 5 41
M  V30 44 1 6 42
M  V30 45 1 6 43
M  V30 46 1 7 44
M  V30 47 1 7 45
M  V30 48 1 8 46 CFG=1
M  V30 49 1 9 47
M  V30 50 1 12 48
M  V30 51 1 14 49
M  V30 52 1 15 50
M  V30 53 1 16 51
M  V30 54 1 17 52
M  V30 55 1 18 53
M  V30 56 1 20 54
M  V30 57 1 21 55
M  V30 58 1 22 56
M  V30 59 1 23 57
M  V30 60 1 24 58
M  V30 61 1 27 59
M  V30 62 1 28 60
M  V30 63 1 28 61
M  V30 64 1 30 62
M  V30 65 1 31 63
M  V30 66 1 33 64
M  V30 67 1 34 65
M  V30 68 1 35 66
M  V30 END BOND
M  V30 END CTAB
M  END
