
     RDKit          3D

  0  0  0  0  0  0  0  0  0  0999 V3000
M  V30 BEGIN CTAB
M  V30 COUNTS 18 18 0 0 0
M  V30 BEGIN ATOM
M  V30 1 N 2.65828 1.35367 0.351227 0
M  V30 2 N 2.49782 -0.0553033 0.296415 0
M  V30 3 C 1.36156 -0.579705 0.0241245 0
M  V30 4 N 0.233836 0.231725 -0.229792 0
M  V30 5 C -1.06893 -0.280316 -0.547353 0
M  V30 6 C -2.15293 0.77348 -0.786935 0
M  V30 7 C -2.21736 -0.145463 0.376655 0
M  V30 8 N 1.25658 -1.98056 -0.0176105 0
M  V30 9 H 3.02956 1.87404 -0.469105 0
M  V30 10 H 2.4046 1.87088 1.21342 0
M  V30 11 H 0.323503 1.29426 -0.190744 0
M  V30 12 H -1.04747 -1.09852 -1.30592 0
M  V30 13 H -2.80712 0.66741 -1.66478 0
M  V30 14 H -1.88941 1.83978 -0.574766 0
M  V30 15 H -2.93752 -1.01132 0.344654 0
M  V30 16 H -2.07801 0.258648 1.37583 0
M  V30 17 H 1.19105 -2.45161 -0.938841 0
M  V30 18 H 1.24196 -2.56109 0.8323 0
M  V30 END ATOM
M  V30 BEGIN BOND
M  V30 1 1 1 2
M  V30 2 2 2 3 CFG=2
M  V30 3 1 3 4
M  V30 4 1 4 5
M  V30 5 1 5 6
M  V30 6 1 6 7
M  V30 7 1 3 8
M  V30 8 1 7 5
M  V30 9 1 1 9
M  V30 10 1 1 10
M  V30 11 1 4 11
M  V30 12 1 5 12
M  V30 13 1 6 13
M  V30 14 1 6 14
M  V30 15 1 7 15
M  V30 16 1 7 16
M  V30 17 1 8 17
M  V30 18 1 8 18
M  V30 END BOND
M  V30 END CTAB
M  END
