
     RDKit          3D

  0  0  0  0  0  0  0  0  0  0999 V3000
M  V30 BEGIN CTAB
M  V30 COUNTS 33 34 0 0 0
M  V30 BEGIN ATOM
M  V30 1 N -5.573 1.80801 0.740424 0
M  V30 2 C -4.28538 1.24095 0.536131 0
M  V30 3 C -3.22603 2.11339 0.456115 0
M  V30 4 C -1.95657 1.61056 0.258417 0
M  V30 5 C -1.7084 0.252862 0.136951 0
M  V30 6 C -2.84441 -0.593283 0.228637 0
M  V30 7 C -4.11115 -0.125898 0.423651 0
M  V30 8 C -2.65484 -2.07346 0.106697 0
M  V30 9 F -3.86356 -2.72401 0.22071 0
M  V30 10 F -2.1011 -2.34284 -1.14835 0
M  V30 11 F -1.75547 -2.49931 1.03917 0
M  V30 12 O -0.562938 -0.351228 -0.0513291 0
M  V30 13 C 0.740207 -0.275248 -0.215325 0
M  V30 14 C 1.49446 0.872681 -0.237589 0
M  V30 15 C 2.87398 0.887909 -0.415478 0
M  V30 16 C 3.52284 -0.300051 -0.577797 0
M  V30 17 C 2.83152 -1.49146 -0.566557 0
M  V30 18 C 1.49435 -1.46205 -0.391223 0
M  V30 19 S 5.26877 -0.382841 -0.808663 0
M  V30 20 O 5.55105 -1.55882 -1.68003 0
M  V30 21 O 5.6628 0.895158 -1.49584 0
M  V30 22 N 6.08609 -0.524209 0.696761 0
M  V30 23 H -6.01065 2.47718 0.0636155 0
M  V30 24 H -6.12661 1.56529 1.59029 0
M  V30 25 H -3.39311 3.17727 0.547747 0
M  V30 26 H -1.13315 2.28539 0.19601 0
M  V30 27 H -4.97996 -0.778338 0.493424 0
M  V30 28 H 1.0495 1.83235 -0.116728 0
M  V30 29 H 3.43229 1.82974 -0.425894 0
M  V30 30 H 3.39875 -2.42874 -0.701799 0
M  V30 31 H 0.937985 -2.38061 -0.379531 0
M  V30 32 H 6.52758 0.361553 0.993066 0
M  V30 33 H 5.41416 -0.917895 1.37984 0
M  V30 END ATOM
M  V30 BEGIN BOND
M  V30 1 1 1 2
M  V30 2 2 2 3
M  V30 3 1 3 4
M  V30 4 2 4 5
M  V30 5 1 5 6
M  V30 6 2 6 7
M  V30 7 1 6 8
M  V30 8 1 8 9
M  V30 9 1 8 10
M  V30 10 1 8 11
M  V30 11 1 5 12
M  V30 12 1 12 13
M  V30 13 2 13 14
M  V30 14 1 14 15
M  V30 15 2 15 16
M  V30 16 1 16 17
M  V30 17 2 17 18
M  V30 18 1 16 19
M  V30 19 2 19 20
M  V30 20 2 19 21
M  V30 21 1 19 22
M  V30 22 1 7 2
M  V30 23 1 18 13
M  V30 24 1 1 23
M  V30 25 1 1 24
M  V30 26 1 3 25
M  V30 27 1 4 26
M  V30 28 1 7 27
M  V30 29 1 14 28
M  V30 30 1 15 29
M  V30 31 1 17 30
M  V30 32 1 18 31
M  V30 33 1 22 32
M  V30 34 1 22 33
M  V30 END BOND
M  V30 END CTAB
M  END
