
     RDKit          3D

  0  0  0  0  0  0  0  0  0  0999 V3000
M  V30 BEGIN CTAB
M  V30 COUNTS 38 39 0 0 0
M  V30 BEGIN ATOM
M  V30 1 O 6.41639 1.25496 0.411195 0 CHG=-1
M  V30 2 N 5.4673 0.374919 -0.017261 0 CHG=1
M  V30 3 O 5.77036 -0.786909 -0.314529 0
M  V30 4 C 4.11461 0.776321 -0.129851 0
M  V30 5 C 3.87404 2.09868 -0.456459 0
M  V30 6 C 2.58324 2.53318 -0.576905 0
M  V30 7 C 1.54991 1.60639 -0.360959 0
M  V30 8 C 1.75618 0.287434 -0.0354437 0
M  V30 9 C 3.09998 -0.114677 0.0775712 0
M  V30 10 N 3.3744 -1.4789 0.415439 0
M  V30 11 C 0.740554 -0.69577 0.191641 0
M  V30 12 O 1.1478 -1.89484 0.480733 0
M  V30 13 N -0.66774 -0.579157 0.153417 0
M  V30 14 C -1.55797 0.515798 -0.110347 0
M  V30 15 C -2.96677 0.0321212 0.0193751 0
M  V30 16 C -2.83502 -1.45977 -0.167492 0
M  V30 17 C -1.49492 -1.7927 0.42968 0
M  V30 18 C -1.56212 -2.06068 1.90588 0
M  V30 19 C -3.86262 0.54038 -1.08456 0
M  V30 20 N -3.92782 1.98815 -1.10956 0
M  V30 21 H 4.70993 2.76271 -0.610055 0
M  V30 22 H 2.32592 3.55699 -0.830465 0
M  V30 23 H 0.541409 1.97462 -0.463971 0
M  V30 24 H 3.43985 -1.80798 1.39466 0
M  V30 25 H 3.51346 -2.1659 -0.360391 0
M  V30 26 H -1.39889 1.37406 0.585417 0
M  V30 27 H -1.3797 0.89401 -1.143 0
M  V30 28 H -3.36267 0.252758 1.02488 0
M  V30 29 H -3.65169 -1.96384 0.360439 0
M  V30 30 H -2.84467 -1.73624 -1.24335 0
M  V30 31 H -1.0256 -2.60684 -0.121813 0
M  V30 32 H -1.16775 -3.10522 2.07233 0
M  V30 33 H -2.60116 -2.07916 2.29405 0
M  V30 34 H -0.907902 -1.39942 2.49013 0
M  V30 35 H -4.89428 0.175111 -0.907307 0
M  V30 36 H -3.48274 0.188908 -2.04642 0
M  V30 37 H -4.00252 2.29481 -0.102874 0
M  V30 38 H -4.83079 2.24569 -1.56865 0
M  V30 END ATOM
M  V30 BEGIN BOND
M  V30 1 1 1 2
M  V30 2 2 2 3
M  V30 3 1 2 4
M  V30 4 2 4 5
M  V30 5 1 5 6
M  V30 6 2 6 7
M  V30 7 1 7 8
M  V30 8 2 8 9
M  V30 9 1 9 10
M  V30 10 1 8 11
M  V30 11 2 11 12
M  V30 12 1 11 13
M  V30 13 1 13 14
M  V30 14 1 14 15
M  V30 15 1 15 16
M  V30 16 1 16 17
M  V30 17 1 17 18
M  V30 18 1 15 19
M  V30 19 1 19 20
M  V30 20 1 9 4
M  V30 21 1 17 13
M  V30 22 1 5 21
M  V30 23 1 6 22
M  V30 24 1 7 23
M  V30 25 1 10 24
M  V30 26 1 10 25
M  V30 27 1 14 26
M  V30 28 1 14 27
M  V30 29 1 15 28
M  V30 30 1 16 29
M  V30 31 1 16 30
M  V30 32 1 17 31
M  V30 33 1 18 32
M  V30 34 1 18 33
M  V30 35 1 18 34
M  V30 36 1 19 35
M  V30 37 1 19 36
M  V30 38 1 20 37
M  V30 39 1 20 38
M  V30 END BOND
M  V30 END CTAB
M  END
