
     RDKit          3D

  0  0  0  0  0  0  0  0  0  0999 V3000
M  V30 BEGIN CTAB
M  V30 COUNTS 25 26 0 0 0
M  V30 BEGIN ATOM
M  V30 1 N -3.83667 0.227489 1.09139 0
M  V30 2 C -3.40397 0.311118 -0.307692 0
M  V30 3 C -1.91454 0.361927 -0.270835 0
M  V30 4 C -1.28259 1.58704 -0.195537 0
M  V30 5 C 0.0867369 1.73521 -0.156617 0
M  V30 6 C 0.856987 0.585032 -0.195872 0
M  V30 7 C 0.248331 -0.651115 -0.271183 0
M  V30 8 C -1.12634 -0.759355 -0.308244 0
M  V30 9 C 1.0374 -1.78795 -0.309332 0
M  V30 10 C 2.40621 -1.63035 -0.269953 0
M  V30 11 C 3.02911 -0.400715 -0.194642 0
M  V30 12 C 2.25025 0.716681 -0.157219 0
M  V30 13 N 4.43939 -0.259595 -0.155126 0
M  V30 14 H -3.70242 -0.773625 1.36041 0
M  V30 15 H -4.81793 0.536441 1.12618 0
M  V30 16 H -3.75073 1.25883 -0.757329 0
M  V30 17 H -3.74277 -0.583445 -0.871632 0
M  V30 18 H -1.87351 2.51657 -0.163104 0
M  V30 19 H 0.5815 2.70139 -0.0973155 0
M  V30 20 H -1.62375 -1.72014 -0.367343 0
M  V30 21 H 0.551944 -2.74602 -0.368015 0
M  V30 22 H 3.04898 -2.50955 -0.298695 0
M  V30 23 H 2.66792 1.70566 -0.0985622 0
M  V30 24 H 4.95632 -0.0933989 -1.03225 0
M  V30 25 H 4.91415 -0.328132 0.762054 0
M  V30 END ATOM
M  V30 BEGIN BOND
M  V30 1 1 1 2
M  V30 2 1 2 3
M  V30 3 2 3 4
M  V30 4 1 4 5
M  V30 5 2 5 6
M  V30 6 1 6 7
M  V30 7 2 7 8
M  V30 8 1 7 9
M  V30 9 2 9 10
M  V30 10 1 10 11
M  V30 11 2 11 12
M  V30 12 1 11 13
M  V30 13 1 8 3
M  V30 14 1 12 6
M  V30 15 1 1 14
M  V30 16 1 1 15
M  V30 17 1 2 16
M  V30 18 1 2 17
M  V30 19 1 4 18
M  V30 20 1 5 19
M  V30 21 1 8 20
M  V30 22 1 9 21
M  V30 23 1 10 22
M  V30 24 1 12 23
M  V30 25 1 13 24
M  V30 26 1 13 25
M  V30 END BOND
M  V30 END CTAB
M  END
