
     RDKit          3D

  0  0  0  0  0  0  0  0  0  0999 V3000
M  V30 BEGIN CTAB
M  V30 COUNTS 29 29 0 0 0
M  V30 BEGIN ATOM
M  V30 1 C -1.66105 -2.11167 -0.229114 0
M  V30 2 C -1.83373 -0.722385 -0.766683 0
M  V30 3 C -1.02824 0.2255 0.091607 0
M  V30 4 N 0.379616 -0.094054 0.0934106 0
M  V30 5 N 1.12172 -0.665718 -0.834174 0
M  V30 6 C 2.39852 -0.783759 -0.437012 0
M  V30 7 C 2.49106 -0.251376 0.837451 0
M  V30 8 C 1.20098 0.176686 1.14723 0
M  V30 9 N 0.842495 0.793684 2.38019 0
M  V30 10 C 3.66036 -0.159575 1.6615 0
M  V30 11 N 4.61167 -0.0716423 2.3145 0
M  V30 12 N 3.51463 -1.33648 -1.12501 0
M  V30 13 C -1.20144 1.66058 -0.420285 0
M  V30 14 C -2.65511 2.05435 -0.361036 0
M  V30 15 H -2.4572 -2.32474 0.507383 0
M  V30 16 H -0.672434 -2.1631 0.288009 0
M  V30 17 H -1.7449 -2.86794 -1.04485 0
M  V30 18 H -1.56531 -0.615688 -1.82011 0
M  V30 19 H -2.9017 -0.433437 -0.635981 0
M  V30 20 H -1.41157 0.240565 1.13277 0
M  V30 21 H -0.0781696 0.576943 2.82078 0
M  V30 22 H 1.45492 1.46756 2.88874 0
M  V30 23 H 3.99293 -2.21181 -0.754888 0
M  V30 24 H 3.91804 -0.947224 -1.9872 0
M  V30 25 H -0.553693 2.29294 0.205059 0
M  V30 26 H -0.819933 1.71004 -1.44848 0
M  V30 27 H -2.68538 3.09602 0.0609973 0
M  V30 28 H -3.04841 2.0996 -1.40461 0
M  V30 29 H -3.26867 1.36614 0.253969 0
M  V30 END ATOM
M  V30 BEGIN BOND
M  V30 1 1 1 2
M  V30 2 1 2 3
M  V30 3 1 3 4
M  V30 4 1 4 5
M  V30 5 2 5 6
M  V30 6 1 6 7
M  V30 7 2 7 8
M  V30 8 1 8 9
M  V30 9 1 7 10
M  V30 10 3 10 11
M  V30 11 1 6 12
M  V30 12 1 3 13
M  V30 13 1 13 14
M  V30 14 1 8 4
M  V30 15 1 1 15
M  V30 16 1 1 16
M  V30 17 1 1 17
M  V30 18 1 2 18
M  V30 19 1 2 19
M  V30 20 1 3 20
M  V30 21 1 9 21
M  V30 22 1 9 22
M  V30 23 1 12 23
M  V30 24 1 12 24
M  V30 25 1 13 25
M  V30 26 1 13 26
M  V30 27 1 14 27
M  V30 28 1 14 28
M  V30 29 1 14 29
M  V30 END BOND
M  V30 END CTAB
M  END
