
     RDKit          3D

  0  0  0  0  0  0  0  0  0  0999 V3000
M  V30 BEGIN CTAB
M  V30 COUNTS 42 44 0 0 0
M  V30 BEGIN ATOM
M  V30 1 N -4.37343 2.4111 0.817214 0
M  V30 2 C -3.06706 1.89951 0.600572 0
M  V30 3 N -2.87113 0.640748 0.480573 0
M  V30 4 C -1.64185 0.00770053 0.265518 0
M  V30 5 C -1.35018 -0.989029 1.36549 0
M  V30 6 C -2.34237 -2.10279 1.27428 0
M  V30 7 C -2.26489 -2.82141 -0.0537646 0
M  V30 8 C -2.61885 -1.83472 -1.12806 0
M  V30 9 C -1.63584 -0.696637 -1.0734 0
M  V30 10 N -0.538845 0.996261 0.186933 0
M  V30 11 O 0.665026 0.471543 -0.0177309 0
M  V30 12 C 1.77938 1.19096 -0.0759672 0
M  V30 13 C 2.99928 0.297352 -0.318446 0
M  V30 14 C 2.90519 -1.04829 -0.450469 0
M  V30 15 C 4.05264 -1.78961 -0.667939 0
M  V30 16 C 5.27024 -1.14998 -0.746733 0
M  V30 17 C 5.37768 0.218041 -0.61394 0
M  V30 18 C 4.21404 0.926391 -0.398028 0
M  V30 19 C -0.773288 2.37562 0.321292 0
M  V30 20 N 0.2726 3.37815 0.252576 0
M  V30 21 N -1.98968 2.79434 0.519091 0
M  V30 22 H -4.76704 3.0163 0.0399187 0
M  V30 23 H -4.95314 2.24649 1.64489 0
M  V30 24 H -1.50115 -0.467804 2.32217 0
M  V30 25 H -0.304629 -1.30445 1.29487 0
M  V30 26 H -2.23596 -2.82968 2.10648 0
M  V30 27 H -3.35836 -1.65938 1.34362 0
M  V30 28 H -1.25803 -3.21548 -0.272413 0
M  V30 29 H -3.01227 -3.63555 -0.027032 0
M  V30 30 H -2.48455 -2.3342 -2.10807 0
M  V30 31 H -3.6695 -1.50385 -1.08331 0
M  V30 32 H -1.88709 0.0296628 -1.85405 0
M  V30 33 H -0.62854 -1.09849 -1.24051 0
M  V30 34 H 1.79645 1.82882 -1.00918 0
M  V30 35 H 2.09658 1.75451 0.833141 0
M  V30 36 H 1.93722 -1.52908 -0.384878 0
M  V30 37 H 4.01491 -2.85437 -0.776839 0
M  V30 38 H 6.174 -1.75361 -0.920122 0
M  V30 39 H 6.36467 0.646516 -0.687403 0
M  V30 40 H 4.29317 1.99996 -0.293189 0
M  V30 41 H 0.586611 3.82427 -0.612973 0
M  V30 42 H 0.727963 3.66415 1.14584 0
M  V30 END ATOM
M  V30 BEGIN BOND
M  V30 1 1 1 2
M  V30 2 2 2 3
M  V30 3 1 3 4
M  V30 4 1 4 5
M  V30 5 1 5 6
M  V30 6 1 6 7
M  V30 7 1 7 8
M  V30 8 1 8 9
M  V30 9 1 4 10
M  V30 10 1 10 11
M  V30 11 1 11 12
M  V30 12 1 12 13
M  V30 13 2 13 14
M  V30 14 1 14 15
M  V30 15 2 15 16
M  V30 16 1 16 17
M  V30 17 2 17 18
M  V30 18 1 10 19
M  V30 19 1 19 20
M  V30 20 2 19 21
M  V30 21 1 21 2
M  V30 22 1 9 4
M  V30 23 1 18 13
M  V30 24 1 1 22
M  V30 25 1 1 23
M  V30 26 1 5 24
M  V30 27 1 5 25
M  V30 28 1 6 26
M  V30 29 1 6 27
M  V30 30 1 7 28
M  V30 31 1 7 29
M  V30 32 1 8 30
M  V30 33 1 8 31
M  V30 34 1 9 32
M  V30 35 1 9 33
M  V30 36 1 12 34
M  V30 37 1 12 35
M  V30 38 1 14 36
M  V30 39 1 15 37
M  V30 40 1 16 38
M  V30 41 1 17 39
M  V30 42 1 18 40
M  V30 43 1 20 41
M  V30 44 1 20 42
M  V30 END BOND
M  V30 END CTAB
M  END
