
     RDKit          3D

  0  0  0  0  0  0  0  0  0  0999 V3000
M  V30 BEGIN CTAB
M  V30 COUNTS 28 28 0 0 0
M  V30 BEGIN ATOM
M  V30 1 C -3.01935 1.39281 0.0274266 0
M  V30 2 C -2.3288 0.0847997 0.257937 0
M  V30 3 C -0.860723 0.226246 0.49607 0
M  V30 4 O -0.504552 0.99576 1.5971 0
M  V30 5 C 0.00397668 0.537042 -0.691328 0
M  V30 6 N 1.05613 -0.247036 -0.01907 0
M  V30 7 C -0.060111 -1.05706 0.497989 0
M  V30 8 C 2.45839 -0.212296 0.0678497 0
M  V30 9 N 3.1117 -1.32371 0.0857046 0
M  V30 10 N 4.49355 -1.36223 0.169912 0
M  V30 11 N 3.1498 1.02453 0.135212 0
M  V30 12 C -2.65612 -0.892543 -0.843377 0
M  V30 13 H -3.43286 1.47359 -1.01152 0
M  V30 14 H -3.82961 1.60289 0.759597 0
M  V30 15 H -2.2472 2.19534 0.148863 0
M  V30 16 H -2.78801 -0.349154 1.19443 0
M  V30 17 H -0.929582 0.713263 2.42852 0
M  V30 18 H 0.274813 1.60003 -0.81715 0
M  V30 19 H -0.254913 -0.00275824 -1.62127 0
M  V30 20 H -0.310453 -1.80306 -0.251828 0
M  V30 21 H 0.0974992 -1.409 1.53211 0
M  V30 22 H 5.10714 -0.508011 0.105149 0
M  V30 23 H 4.9565 -2.2863 0.304959 0
M  V30 24 H 3.92301 1.22868 -0.53489 0
M  V30 25 H 2.89928 1.74336 0.848612 0
M  V30 26 H -2.31651 -1.9229 -0.555715 0
M  V30 27 H -2.21172 -0.525218 -1.77047 0
M  V30 28 H -3.78128 -0.917071 -0.94286 0
M  V30 END ATOM
M  V30 BEGIN BOND
M  V30 1 1 1 2
M  V30 2 1 2 3
M  V30 3 1 3 4
M  V30 4 1 3 5
M  V30 5 1 5 6
M  V30 6 1 6 7
M  V30 7 1 6 8
M  V30 8 2 8 9 CFG=2
M  V30 9 1 9 10
M  V30 10 1 8 11
M  V30 11 1 2 12
M  V30 12 1 7 3
M  V30 13 1 1 13
M  V30 14 1 1 14
M  V30 15 1 1 15
M  V30 16 1 2 16
M  V30 17 1 4 17
M  V30 18 1 5 18
M  V30 19 1 5 19
M  V30 20 1 7 20
M  V30 21 1 7 21
M  V30 22 1 10 22
M  V30 23 1 10 23
M  V30 24 1 11 24
M  V30 25 1 11 25
M  V30 26 1 12 26
M  V30 27 1 12 27
M  V30 28 1 12 28
M  V30 END BOND
M  V30 END CTAB
M  END
