
     RDKit          3D

  0  0  0  0  0  0  0  0  0  0999 V3000
M  V30 BEGIN CTAB
M  V30 COUNTS 44 47 0 0 0
M  V30 BEGIN ATOM
M  V30 1 N 7.3936 -0.435836 0.443809 0
M  V30 2 C 5.98697 -0.110502 0.260633 0
M  V30 3 C 5.09508 -0.563647 1.39923 0
M  V30 4 C 4.11482 -1.06862 0.375036 0
M  V30 5 C 5.24541 -1.03805 -0.652853 0
M  V30 6 C 2.98719 -0.159339 0.0649924 0
M  V30 7 C 1.67883 -0.58527 0.000830598 0
M  V30 8 C 0.660721 0.316681 -0.295271 0
M  V30 9 N -0.696453 -0.105245 -0.365782 0
M  V30 10 C -1.69914 0.870716 -0.674926 0
M  V30 11 C -3.06156 0.315404 -0.719356 0
M  V30 12 C -3.58265 -0.179851 -1.89102 0
M  V30 13 N -4.84242 -0.686075 -1.90246 0
M  V30 14 C -5.59206 -0.70611 -0.761384 0
M  V30 15 C -5.11177 -0.220692 0.43669 0
M  V30 16 C -3.81077 0.299 0.435852 0
M  V30 17 C -5.86029 -0.237882 1.58763 0
M  V30 18 C -7.15609 -0.765514 1.54762 0
M  V30 19 C -7.67215 -1.26017 0.370185 0
M  V30 20 C -6.87889 -1.21925 -0.756841 0
M  V30 21 N 1.02337 1.5915 -0.508365 0
M  V30 22 C 2.28488 1.97719 -0.441513 0
M  V30 23 N 3.25403 1.13103 -0.16213 0
M  V30 24 N 2.62361 3.35089 -0.677075 0
M  V30 25 H 7.80567 -0.463709 -0.523514 0
M  V30 26 H 7.82989 0.38839 0.914813 0
M  V30 27 H 5.89275 0.964911 0.00439994 0
M  V30 28 H 5.55316 -1.4238 1.92872 0
M  V30 29 H 4.74327 0.265565 2.02389 0
M  V30 30 H 3.74561 -2.10036 0.538774 0
M  V30 31 H 4.93852 -0.638671 -1.63108 0
M  V30 32 H 5.75347 -2.02931 -0.680424 0
M  V30 33 H 1.41611 -1.61903 0.177203 0
M  V30 34 H -0.913926 -1.10745 -0.190512 0
M  V30 35 H -1.62297 1.73117 0.0499472 0
M  V30 36 H -1.40772 1.32972 -1.66502 0
M  V30 37 H -3.047 -0.195189 -2.82742 0
M  V30 38 H -3.39215 0.687543 1.33908 0
M  V30 39 H -5.4352 0.153791 2.49306 0
M  V30 40 H -7.75414 -0.781789 2.45681 0
M  V30 41 H -8.68836 -1.67907 0.317989 0
M  V30 42 H -7.28121 -1.60711 -1.68386 0
M  V30 43 H 2.58371 4.02209 0.111465 0
M  V30 44 H 2.89625 3.59194 -1.6564 0
M  V30 END ATOM
M  V30 BEGIN BOND
M  V30 1 1 1 2
M  V30 2 1 2 3
M  V30 3 1 3 4
M  V30 4 1 4 5
M  V30 5 1 4 6
M  V30 6 2 6 7
M  V30 7 1 7 8
M  V30 8 1 8 9
M  V30 9 1 9 10
M  V30 10 1 10 11
M  V30 11 2 11 12
M  V30 12 1 12 13
M  V30 13 2 13 14
M  V30 14 1 14 15
M  V30 15 2 15 16
M  V30 16 1 15 17
M  V30 17 2 17 18
M  V30 18 1 18 19
M  V30 19 2 19 20
M  V30 20 2 8 21
M  V30 21 1 21 22
M  V30 22 2 22 23
M  V30 23 1 22 24
M  V30 24 1 5 2
M  V30 25 1 23 6
M  V30 26 1 16 11
M  V30 27 1 20 14
M  V30 28 1 1 25
M  V30 29 1 1 26
M  V30 30 1 2 27
M  V30 31 1 3 28
M  V30 32 1 3 29
M  V30 33 1 4 30
M  V30 34 1 5 31
M  V30 35 1 5 32
M  V30 36 1 7 33
M  V30 37 1 9 34
M  V30 38 1 10 35
M  V30 39 1 10 36
M  V30 40 1 12 37
M  V30 41 1 16 38
M  V30 42 1 17 39
M  V30 43 1 18 40
M  V30 44 1 19 41
M  V30 45 1 20 42
M  V30 46 1 24 43
M  V30 47 1 24 44
M  V30 END BOND
M  V30 END CTAB
M  END
