
     RDKit          3D

  0  0  0  0  0  0  0  0  0  0999 V3000
M  V30 BEGIN CTAB
M  V30 COUNTS 34 35 0 0 0
M  V30 BEGIN ATOM
M  V30 1 N -4.81641 1.08253 0.315047 0
M  V30 2 C -3.44079 0.824562 0.146159 0
M  V30 3 C -2.93595 -0.437032 -0.0423461 0
M  V30 4 C -1.58833 -0.703951 -0.207928 0
M  V30 5 C -1.11295 -2.10168 -0.39292 0
M  V30 6 O -2.25037 -2.92763 -0.340718 0
M  V30 7 C -0.737269 0.390527 -0.174708 0
M  V30 8 C -1.19768 1.65886 0.0105358 0
M  V30 9 C -2.55443 1.87602 0.170537 0
M  V30 10 C 0.665913 0.113859 -0.381762 0
M  V30 11 C 1.5367 0.420303 0.644821 0
M  V30 12 C 1.10728 0.964138 1.94666 0
M  V30 13 O 2.27075 1.13243 2.73996 0
M  V30 14 C 2.87732 0.176146 0.403251 0
M  V30 15 C 3.37604 -0.341384 -0.775592 0
M  V30 16 N 4.76879 -0.581606 -0.963947 0
M  V30 17 C 2.49434 -0.637957 -1.7876 0
M  V30 18 C 1.14444 -0.398675 -1.5593 0
M  V30 19 H -5.40499 1.66842 -0.338294 0
M  V30 20 H -5.35558 0.690763 1.13678 0
M  V30 21 H -3.61183 -1.30878 -0.0708345 0
M  V30 22 H -0.457194 -2.46663 0.394377 0
M  V30 23 H -0.734846 -2.28641 -1.43398 0
M  V30 24 H -2.03061 -3.77468 -0.787007 0
M  V30 25 H -0.507669 2.5362 0.0195351 0
M  V30 26 H -2.88365 2.88891 0.313664 0
M  V30 27 H 0.505117 0.238796 2.55444 0
M  V30 28 H 0.685524 1.98014 1.93004 0
M  V30 29 H 2.67758 2.01892 2.58282 0
M  V30 30 H 3.59388 0.410638 1.20072 0
M  V30 31 H 5.51294 0.0474754 -0.641351 0
M  V30 32 H 5.05041 -1.46394 -1.46376 0
M  V30 33 H 2.86202 -1.05339 -2.73148 0
M  V30 34 H 0.491491 -0.635879 -2.41584 0
M  V30 END ATOM
M  V30 BEGIN BOND
M  V30 1 1 1 2
M  V30 2 2 2 3
M  V30 3 1 3 4
M  V30 4 1 4 5
M  V30 5 1 5 6
M  V30 6 2 4 7
M  V30 7 1 7 8
M  V30 8 2 8 9
M  V30 9 1 7 10
M  V30 10 2 10 11
M  V30 11 1 11 12
M  V30 12 1 12 13
M  V30 13 1 11 14
M  V30 14 2 14 15
M  V30 15 1 15 16
M  V30 16 1 15 17
M  V30 17 2 17 18
M  V30 18 1 9 2
M  V30 19 1 18 10
M  V30 20 1 1 19
M  V30 21 1 1 20
M  V30 22 1 3 21
M  V30 23 1 5 22
M  V30 24 1 5 23
M  V30 25 1 6 24
M  V30 26 1 8 25
M  V30 27 1 9 26
M  V30 28 1 12 27
M  V30 29 1 12 28
M  V30 30 1 13 29
M  V30 31 1 14 30
M  V30 32 1 16 31
M  V30 33 1 16 32
M  V30 34 1 17 33
M  V30 35 1 18 34
M  V30 END BOND
M  V30 END CTAB
M  END
