
     RDKit          3D

  0  0  0  0  0  0  0  0  0  0999 V3000
M  V30 BEGIN CTAB
M  V30 COUNTS 21 21 0 0 0
M  V30 BEGIN ATOM
M  V30 1 N -3.27634 -1.28779 0.478984 0
M  V30 2 N -2.62427 -0.773517 -0.623817 0
M  V30 3 C -1.45853 -0.00392698 -0.454848 0
M  V30 4 C -0.378216 -0.595714 0.121354 0
M  V30 5 C 0.786037 0.13708 0.286208 0
M  V30 6 C 0.848481 1.43837 -0.125565 0
M  V30 7 Cl 2.29665 2.42743 0.0584073 0
M  V30 8 C -0.247252 2.03238 -0.708882 0
M  V30 9 C -1.40391 1.30932 -0.873509 0
M  V30 10 S 2.18818 -0.593194 1.01495 0
M  V30 11 N 3.45043 -0.597245 -0.103999 0
M  V30 12 O 1.8641 -1.97117 1.43612 0
M  V30 13 O 2.56597 0.306955 2.18766 0
M  V30 14 H -3.19934 -0.650786 1.30931 0
M  V30 15 H -2.70989 -2.14177 0.766053 0
M  V30 16 H -2.99163 -0.948792 -1.57085 0
M  V30 17 H -0.418342 -1.60661 0.448308 0
M  V30 18 H -0.225158 3.07065 -1.04579 0
M  V30 19 H -2.27224 1.79097 -1.34144 0
M  V30 20 H 3.4624 0.174078 -0.789661 0
M  V30 21 H 3.74286 -1.51672 -0.46898 0
M  V30 END ATOM
M  V30 BEGIN BOND
M  V30 1 1 1 2
M  V30 2 1 2 3
M  V30 3 2 3 4
M  V30 4 1 4 5
M  V30 5 2 5 6
M  V30 6 1 6 7
M  V30 7 1 6 8
M  V30 8 2 8 9
M  V30 9 1 5 10
M  V30 10 1 10 11
M  V30 11 2 10 12
M  V30 12 2 10 13
M  V30 13 1 9 3
M  V30 14 1 1 14
M  V30 15 1 1 15
M  V30 16 1 2 16
M  V30 17 1 4 17
M  V30 18 1 8 18
M  V30 19 1 9 19
M  V30 20 1 11 20
M  V30 21 1 11 21
M  V30 END BOND
M  V30 END CTAB
M  END
