
     RDKit          3D

  0  0  0  0  0  0  0  0  0  0999 V3000
M  V30 BEGIN CTAB
M  V30 COUNTS 28 28 0 0 0
M  V30 BEGIN ATOM
M  V30 1 N -2.24159 1.82469 -0.405452 0
M  V30 2 C -2.63199 0.608238 0.191132 0
M  V30 3 C -1.98646 -0.638406 -0.208422 0
M  V30 4 C -0.592019 -0.980783 -0.0051669 0
M  V30 5 C 0.559146 -0.242281 -0.544228 0
M  V30 6 C 0.820928 1.15382 -0.142797 0
M  V30 7 C 2.35651 1.26742 0.0280479 0
M  V30 8 C 2.90547 0.00141967 -0.538897 0
M  V30 9 C 1.84305 -1.00407 -0.144937 0
M  V30 10 N -0.437831 -2.37609 -0.556747 0
M  V30 11 H -2.42615 1.94816 -1.40205 0
M  V30 12 H -2.29321 2.65512 0.188797 0
M  V30 13 H -2.57865 0.769833 1.30661 0
M  V30 14 H -3.74938 0.476496 -0.00387543 0
M  V30 15 H -2.26157 -0.828609 -1.32263 0
M  V30 16 H -2.65178 -1.48115 0.248572 0
M  V30 17 H -0.416281 -1.19715 1.11523 0
M  V30 18 H 0.528546 -0.328848 -1.69091 0
M  V30 19 H 0.610294 1.8732 -0.959503 0
M  V30 20 H 0.373577 1.42205 0.839915 0
M  V30 21 H 2.61333 1.42246 1.09583 0
M  V30 22 H 2.76603 2.13924 -0.515902 0
M  V30 23 H 3.86599 -0.23464 -0.0199352 0
M  V30 24 H 3.02686 0.0394485 -1.62485 0
M  V30 25 H 1.95308 -1.93237 -0.699986 0
M  V30 26 H 1.86678 -1.14053 0.949551 0
M  V30 27 H -1.17411 -2.97668 -0.13693 0
M  V30 28 H -0.648586 -2.23998 -1.57237 0
M  V30 END ATOM
M  V30 BEGIN BOND
M  V30 1 1 1 2
M  V30 2 1 2 3
M  V30 3 1 3 4
M  V30 4 1 4 5
M  V30 5 1 5 6
M  V30 6 1 6 7
M  V30 7 1 7 8
M  V30 8 1 8 9
M  V30 9 1 4 10
M  V30 10 1 9 5
M  V30 11 1 1 11
M  V30 12 1 1 12
M  V30 13 1 2 13
M  V30 14 1 2 14
M  V30 15 1 3 15
M  V30 16 1 3 16
M  V30 17 1 4 17
M  V30 18 1 5 18
M  V30 19 1 6 19
M  V30 20 1 6 20
M  V30 21 1 7 21
M  V30 22 1 7 22
M  V30 23 1 8 23
M  V30 24 1 8 24
M  V30 25 1 9 25
M  V30 26 1 9 26
M  V30 27 1 10 27
M  V30 28 1 10 28
M  V30 END BOND
M  V30 END CTAB
M  END
