
     RDKit          3D

  0  0  0  0  0  0  0  0  0  0999 V3000
M  V30 BEGIN CTAB
M  V30 COUNTS 48 50 0 0 0
M  V30 BEGIN ATOM
M  V30 1 N -4.64214 3.99122 -1.03878 0
M  V30 2 C -3.91329 2.79454 -0.840473 0
M  V30 3 C -2.79698 2.78885 0.00533929 0
M  V30 4 C -2.0959 1.6276 0.195628 0
M  V30 5 C -2.42641 0.430793 -0.40794 0
M  V30 6 C -3.53849 0.438851 -1.24989 0
M  V30 7 C -4.25084 1.60144 -1.44818 0
M  V30 8 N -1.66757 -0.73685 -0.175362 0
M  V30 9 C -2.12663 -1.74048 0.712254 0
M  V30 10 C -2.54741 -1.45902 2.0095 0
M  V30 11 C -2.98978 -2.45807 2.84643 0
M  V30 12 C -3.03664 -3.772 2.44624 0
M  V30 13 C -2.62745 -4.07362 1.1742 0
M  V30 14 C -2.18479 -3.06256 0.33945 0
M  V30 15 C -0.434153 -0.891725 -0.85257 0
M  V30 16 O 0.22767 -1.95484 -0.61178 0
M  V30 17 N 0.0692906 0.0813306 -1.76888 0
M  V30 18 C 1.32848 -0.164809 -2.4063 0
M  V30 19 C 2.47988 0.0967254 -1.48033 0
M  V30 20 C 2.39535 1.03646 -0.473438 0
M  V30 21 C 3.46927 1.27383 0.38354 0
M  V30 22 C 4.65414 0.573221 0.249865 0
M  V30 23 C 4.72549 -0.363857 -0.760976 0
M  V30 24 C 3.65943 -0.600894 -1.61286 0
M  V30 25 S 6.00651 0.878557 1.324 0
M  V30 26 O 6.03982 2.34089 1.73621 0
M  V30 27 O 7.30304 0.611448 0.616663 0
M  V30 28 N 5.92962 -0.0952643 2.74341 0
M  V30 29 H -4.77893 4.65605 -0.259921 0
M  V30 30 H -5.04269 4.20734 -1.9657 0
M  V30 31 H -2.53461 3.73173 0.482164 0
M  V30 32 H -1.22126 1.61275 0.854862 0
M  V30 33 H -3.80026 -0.516184 -1.72914 0
M  V30 34 H -5.10465 1.60584 -2.09548 0
M  V30 35 H -2.53697 -0.450122 2.39044 0
M  V30 36 H -3.32132 -2.25418 3.8607 0
M  V30 37 H -3.3849 -4.56245 3.10337 0
M  V30 38 H -2.65464 -5.08639 0.835273 0
M  V30 39 H -1.8564 -3.29939 -0.681491 0
M  V30 40 H -0.5114 0.929898 -1.92816 0
M  V30 41 H 1.31539 -1.22912 -2.73884 0
M  V30 42 H 1.43568 0.43883 -3.34075 0
M  V30 43 H 1.4586 1.58427 -0.373675 0
M  V30 44 H 3.36714 2.01729 1.16116 0
M  V30 45 H 5.64483 -0.920816 -0.878187 0
M  V30 46 H 3.72011 -1.33928 -2.40609 0
M  V30 47 H 6.09515 0.479878 3.60994 0
M  V30 48 H 6.70161 -0.797694 2.72942 0
M  V30 END ATOM
M  V30 BEGIN BOND
M  V30 1 1 1 2
M  V30 2 2 2 3
M  V30 3 1 3 4
M  V30 4 2 4 5
M  V30 5 1 5 6
M  V30 6 2 6 7
M  V30 7 1 5 8
M  V30 8 1 8 9
M  V30 9 2 9 10
M  V30 10 1 10 11
M  V30 11 2 11 12
M  V30 12 1 12 13
M  V30 13 2 13 14
M  V30 14 1 8 15
M  V30 15 2 15 16
M  V30 16 1 15 17
M  V30 17 1 17 18
M  V30 18 1 18 19
M  V30 19 2 19 20
M  V30 20 1 20 21
M  V30 21 2 21 22
M  V30 22 1 22 23
M  V30 23 2 23 24
M  V30 24 1 22 25
M  V30 25 2 25 26
M  V30 26 2 25 27
M  V30 27 1 25 28
M  V30 28 1 7 2
M  V30 29 1 14 9
M  V30 30 1 24 19
M  V30 31 1 1 29
M  V30 32 1 1 30
M  V30 33 1 3 31
M  V30 34 1 4 32
M  V30 35 1 6 33
M  V30 36 1 7 34
M  V30 37 1 10 35
M  V30 38 1 11 36
M  V30 39 1 12 37
M  V30 40 1 13 38
M  V30 41 1 14 39
M  V30 42 1 17 40
M  V30 43 1 18 41
M  V30 44 1 18 42
M  V30 45 1 20 43
M  V30 46 1 21 44
M  V30 47 1 23 45
M  V30 48 1 24 46
M  V30 49 1 28 47
M  V30 50 1 28 48
M  V30 END BOND
M  V30 END CTAB
M  END
