
     RDKit          3D

  0  0  0  0  0  0  0  0  0  0999 V3000
M  V30 BEGIN CTAB
M  V30 COUNTS 38 38 0 0 0
M  V30 BEGIN ATOM
M  V30 1 O -0.336093 -1.50348 1.0392 0
M  V30 2 C -0.224431 -0.765891 0.0310557 0
M  V30 3 C -1.43852 -0.521215 -0.773534 0
M  V30 4 C -2.53477 0.0966522 0.0163122 0
M  V30 5 C -3.83532 -0.357186 -0.080065 0
M  V30 6 C -4.86666 0.20609 0.647318 0
M  V30 7 C -4.63817 1.25146 1.50504 0
M  V30 8 C -3.34962 1.72012 1.61708 0
M  V30 9 C -2.31885 1.15471 0.887965 0
M  V30 10 Br -6.07841 2.03203 2.51557 0
M  V30 11 N -1.18809 0.340164 -1.9059 0
M  V30 12 C -1.91245 -1.85685 -1.30682 0
M  V30 13 N 1.04683 -0.224388 -0.26215 0
M  V30 14 C 2.1697 -0.519507 0.579969 0
M  V30 15 C 3.44349 0.13877 0.121451 0
M  V30 16 N 3.32413 1.57067 0.0951773 0
M  V30 17 C 3.94364 -0.381268 -1.18793 0
M  V30 18 C 4.50651 -0.201714 1.17109 0
M  V30 19 H -4.10061 -1.17743 -0.733308 0
M  V30 20 H -5.89881 -0.146467 0.577464 0
M  V30 21 H -3.16267 2.55991 2.30536 0
M  V30 22 H -1.33586 1.56005 1.01509 0
M  V30 23 H -1.10637 1.32605 -1.60805 0
M  V30 24 H -1.94539 0.176531 -2.60127 0
M  V30 25 H -2.65671 -1.75209 -2.10775 0
M  V30 26 H -2.28402 -2.45545 -0.436483 0
M  V30 27 H -0.994292 -2.39914 -1.65361 0
M  V30 28 H 1.21928 0.401986 -1.08909 0
M  V30 29 H 2.32864 -1.59964 0.74203 0
M  V30 30 H 1.93426 -0.0960151 1.59147 0
M  V30 31 H 3.04629 1.89718 1.05838 0
M  V30 32 H 2.58203 1.91475 -0.541531 0
M  V30 33 H 5.01667 -0.0789223 -1.27726 0
M  V30 34 H 3.43658 0.0680152 -2.06576 0
M  V30 35 H 3.90385 -1.47054 -1.26827 0
M  V30 36 H 4.71119 -1.28822 1.08877 0
M  V30 37 H 4.14703 0.0497229 2.18252 0
M  V30 38 H 5.446 0.330544 0.912099 0
M  V30 END ATOM
M  V30 BEGIN BOND
M  V30 1 2 1 2
M  V30 2 1 2 3
M  V30 3 1 3 4
M  V30 4 2 4 5
M  V30 5 1 5 6
M  V30 6 2 6 7
M  V30 7 1 7 8
M  V30 8 2 8 9
M  V30 9 1 7 10
M  V30 10 1 3 11
M  V30 11 1 3 12
M  V30 12 1 2 13
M  V30 13 1 13 14
M  V30 14 1 14 15
M  V30 15 1 15 16
M  V30 16 1 15 17
M  V30 17 1 15 18
M  V30 18 1 9 4
M  V30 19 1 5 19
M  V30 20 1 6 20
M  V30 21 1 8 21
M  V30 22 1 9 22
M  V30 23 1 11 23
M  V30 24 1 11 24
M  V30 25 1 12 25
M  V30 26 1 12 26
M  V30 27 1 12 27
M  V30 28 1 13 28
M  V30 29 1 14 29
M  V30 30 1 14 30
M  V30 31 1 16 31
M  V30 32 1 16 32
M  V30 33 1 17 33
M  V30 34 1 17 34
M  V30 35 1 17 35
M  V30 36 1 18 36
M  V30 37 1 18 37
M  V30 38 1 18 38
M  V30 END BOND
M  V30 END CTAB
M  END
