
     RDKit          3D

  0  0  0  0  0  0  0  0  0  0999 V3000
M  V30 BEGIN CTAB
M  V30 COUNTS 37 38 0 0 0
M  V30 BEGIN ATOM
M  V30 1 O -5.07247 1.06151 2.42832 0 CHG=-1
M  V30 2 N -4.6569 7.13747e-05 1.65268 0 CHG=1
M  V30 3 O -4.56029 -1.1274 2.15387 0
M  V30 4 C -4.36404 0.297345 0.295319 0
M  V30 5 C -3.06659 0.341656 -0.147306 0
M  V30 6 N -1.99378 0.0835684 0.736056 0
M  V30 7 C -0.643833 0.145428 0.227673 0
M  V30 8 C 0.359701 -0.206487 1.30873 0
M  V30 9 C 1.7006 -0.115961 0.695414 0
M  V30 10 C 2.47621 1.02305 0.703175 0
M  V30 11 C 3.71945 1.05833 0.108794 0
M  V30 12 C 4.22846 -0.0561651 -0.517332 0
M  V30 13 C 3.42629 -1.18648 -0.508948 0
M  V30 14 C 2.18851 -1.24636 0.0746292 0
M  V30 15 S 5.79946 -0.0586479 -1.28408 0
M  V30 16 O 6.18219 1.35079 -1.69581 0
M  V30 17 O 5.82144 -0.973103 -2.47875 0
M  V30 18 N 6.95716 -0.583999 -0.118607 0
M  V30 19 N -2.83137 0.627453 -1.43223 0
M  V30 20 C -3.83586 0.869633 -2.28975 0
M  V30 21 N -5.10451 0.825419 -1.85421 0
M  V30 22 C -5.40868 0.54225 -0.566427 0
M  V30 23 N -6.76864 0.501857 -0.129822 0
M  V30 24 H -2.12687 -0.150747 1.74271 0
M  V30 25 H -0.494903 1.19824 -0.120883 0
M  V30 26 H -0.491271 -0.482586 -0.657394 0
M  V30 27 H 0.309603 0.512296 2.14847 0
M  V30 28 H 0.212539 -1.22767 1.69273 0
M  V30 29 H 2.09679 1.93382 1.19577 0
M  V30 30 H 4.35209 1.94504 0.100873 0
M  V30 31 H 3.81838 -2.06745 -1.00053 0
M  V30 32 H 1.61398 -2.1773 0.0387306 0
M  V30 33 H 7.78537 0.0200845 -0.0654488 0
M  V30 34 H 6.51203 -0.739902 0.807058 0
M  V30 35 H -3.59748 1.09667 -3.31976 0
M  V30 36 H -7.37476 -0.333044 -0.276476 0
M  V30 37 H -7.16801 1.34008 0.35275 0
M  V30 END ATOM
M  V30 BEGIN BOND
M  V30 1 1 1 2
M  V30 2 2 2 3
M  V30 3 1 2 4
M  V30 4 2 4 5
M  V30 5 1 5 6
M  V30 6 1 6 7
M  V30 7 1 7 8
M  V30 8 1 8 9
M  V30 9 2 9 10
M  V30 10 1 10 11
M  V30 11 2 11 12
M  V30 12 1 12 13
M  V30 13 2 13 14
M  V30 14 1 12 15
M  V30 15 2 15 16
M  V30 16 2 15 17
M  V30 17 1 15 18
M  V30 18 1 5 19
M  V30 19 2 19 20
M  V30 20 1 20 21
M  V30 21 2 21 22
M  V30 22 1 22 23
M  V30 23 1 22 4
M  V30 24 1 14 9
M  V30 25 1 6 24
M  V30 26 1 7 25
M  V30 27 1 7 26
M  V30 28 1 8 27
M  V30 29 1 8 28
M  V30 30 1 10 29
M  V30 31 1 11 30
M  V30 32 1 13 31
M  V30 33 1 14 32
M  V30 34 1 18 33
M  V30 35 1 18 34
M  V30 36 1 20 35
M  V30 37 1 23 36
M  V30 38 1 23 37
M  V30 END BOND
M  V30 END CTAB
M  END
