
     RDKit          3D

  0  0  0  0  0  0  0  0  0  0999 V3000
M  V30 BEGIN CTAB
M  V30 COUNTS 67 71 0 0 0
M  V30 BEGIN ATOM
M  V30 1 O -6.98916 2.4877 0.087768 0
M  V30 2 C -6.15331 1.54903 0.424166 0 CFG=1
M  V30 3 C -6.81395 0.200192 0.538699 0
M  V30 4 N -6.17651 -0.661719 -0.40725 0
M  V30 5 C -4.86407 -0.0908183 -0.696858 0 CFG=1
M  V30 6 C -5.15378 1.3972 -0.724977 0
M  V30 7 C -3.9446 -0.479761 0.382825 0
M  V30 8 O -4.36958 -1.11243 1.36877 0
M  V30 9 N -2.57649 -0.13167 0.293801 0
M  V30 10 C -1.6621 -0.511063 1.36909 0
M  V30 11 C -0.50206 0.436444 1.33088 0
M  V30 12 C 0.280161 0.189273 0.0576007 0
M  V30 13 C -0.647875 -0.0406402 -1.1137 0
M  V30 14 C -1.98863 0.588947 -0.815426 0
M  V30 15 O 1.00392 1.34937 -0.203629 0
M  V30 16 C 2.25758 1.32262 0.400807 0
M  V30 17 C 3.15923 0.348233 -0.355226 0 CFG=2
M  V30 18 C 2.42523 -0.9529 -0.556879 0 CFG=2
M  V30 19 C 1.18098 -0.997399 0.302926 0
M  V30 20 C 3.25938 -2.15781 -0.213281 0
M  V30 21 O 2.00461 -1.09371 -1.88263 0
M  V30 22 N 4.36778 0.216517 0.39751 0
M  V30 23 C 4.45334 -0.273641 1.64233 0
M  V30 24 N 5.75474 -0.223357 1.97682 0
M  V30 25 C 6.48373 0.286819 0.969753 0
M  V30 26 C 5.58585 0.566475 -0.0399973 0
M  V30 27 N 6.07881 1.09857 -1.18467 0
M  V30 28 C 7.38715 1.3575 -1.36476 0
M  V30 29 N 7.81691 1.91665 -2.59877 0
M  V30 30 N 8.27384 1.08131 -0.36755 0
M  V30 31 C 7.82812 0.552471 0.785712 0
M  V30 32 N 8.77263 0.27313 1.81109 0
M  V30 33 C -6.67517 -1.85731 -0.989058 0
M  V30 34 O -5.99854 -2.51801 -1.81344 0
M  V30 35 C -8.03165 -2.31474 -0.596033 0
M  V30 36 H -7.78331 2.60265 0.249707 0
M  V30 37 H -5.63837 1.86023 1.36392 0
M  V30 38 H -7.88677 0.304672 0.237013 0
M  V30 39 H -6.78493 -0.187939 1.5837 0
M  V30 40 H -4.51857 -0.398605 -1.70081 0
M  V30 41 H -5.59374 1.64218 -1.69575 0
M  V30 42 H -4.23289 1.96992 -0.510236 0
M  V30 43 H -2.16978 -0.561437 2.33915 0
M  V30 44 H -1.27177 -1.52011 1.09032 0
M  V30 45 H 0.15464 0.180082 2.21012 0
M  V30 46 H -0.788908 1.49279 1.44072 0
M  V30 47 H -0.720081 -1.11211 -1.36891 0
M  V30 48 H -0.242054 0.485679 -2.0188 0
M  V30 49 H -1.76628 1.63896 -0.478503 0
M  V30 50 H -2.64757 0.573712 -1.69766 0
M  V30 51 H 2.22706 1.12349 1.47397 0
M  V30 52 H 2.71094 2.32265 0.258505 0
M  V30 53 H 3.31992 0.799273 -1.35279 0
M  V30 54 H 1.44933 -1.09205 1.35905 0
M  V30 55 H 0.611475 -1.91137 0.0206774 0
M  V30 56 H 4.3362 -2.00628 -0.427474 0
M  V30 57 H 3.07899 -2.49216 0.840999 0
M  V30 58 H 2.92044 -3.0125 -0.846336 0
M  V30 59 H 2.74387 -1.16977 -2.51893 0
M  V30 60 H 3.62781 -0.64584 2.27342 0
M  V30 61 H 8.3023 1.31664 -3.29729 0
M  V30 62 H 7.6259 2.92798 -2.76152 0
M  V30 63 H 8.4608 0.288312 2.81217 0
M  V30 64 H 9.75963 0.0538967 1.61885 0
M  V30 65 H -8.10629 -2.27849 0.515617 0
M  V30 66 H -8.80872 -1.63247 -1.0036 0
M  V30 67 H -8.19583 -3.36345 -0.912446 0
M  V30 END ATOM
M  V30 BEGIN BOND
M  V30 1 1 1 2
M  V30 2 1 2 3
M  V30 3 1 3 4
M  V30 4 1 4 5
M  V30 5 1 5 6
M  V30 6 1 5 7
M  V30 7 2 7 8
M  V30 8 1 7 9
M  V30 9 1 9 10
M  V30 10 1 10 11
M  V30 11 1 11 12
M  V30 12 1 12 13
M  V30 13 1 13 14
M  V30 14 1 12 15
M  V30 15 1 15 16
M  V30 16 1 16 17
M  V30 17 1 17 18
M  V30 18 1 18 19
M  V30 19 1 18 20
M  V30 20 1 18 21 CFG=3
M  V30 21 1 17 22
M  V30 22 1 22 23
M  V30 23 2 23 24
M  V30 24 1 24 25
M  V30 25 2 25 26
M  V30 26 1 26 27
M  V30 27 2 27 28
M  V30 28 1 28 29
M  V30 29 1 28 30
M  V30 30 2 30 31
M  V30 31 1 31 32
M  V30 32 1 4 33
M  V30 33 2 33 34
M  V30 34 1 33 35
M  V30 35 1 6 2
M  V30 36 1 14 9
M  V30 37 1 26 22
M  V30 38 1 19 12
M  V30 39 1 31 25
M  V30 40 1 1 36
M  V30 41 1 2 37 CFG=1
M  V30 42 1 3 38
M  V30 43 1 3 39
M  V30 44 1 5 40 CFG=3
M  V30 45 1 6 41
M  V30 46 1 6 42
M  V30 47 1 10 43
M  V30 48 1 10 44
M  V30 49 1 11 45
M  V30 50 1 11 46
M  V30 51 1 13 47
M  V30 52 1 13 48
M  V30 53 1 14 49
M  V30 54 1 14 50
M  V30 55 1 16 51
M  V30 56 1 16 52
M  V30 57 1 17 53 CFG=3
M  V30 58 1 19 54
M  V30 59 1 19 55
M  V30 60 1 20 56
M  V30 61 1 20 57
M  V30 62 1 20 58
M  V30 63 1 21 59
M  V30 64 1 23 60
M  V30 65 1 29 61
M  V30 66 1 29 62
M  V30 67 1 32 63
M  V30 68 1 32 64
M  V30 69 1 35 65
M  V30 70 1 35 66
M  V30 71 1 35 67
M  V30 END BOND
M  V30 END CTAB
M  END
