
     RDKit          3D

  0  0  0  0  0  0  0  0  0  0999 V3000
M  V30 BEGIN CTAB
M  V30 COUNTS 15 15 0 0 0
M  V30 BEGIN ATOM
M  V30 1 N -0.827939 -1.80606 0.398501 0
M  V30 2 C 0.0123083 -0.692088 0.0869327 0
M  V30 3 C 1.36921 -0.827294 -0.137671 0
M  V30 4 C 2.18445 0.243513 -0.438542 0
M  V30 5 Cl 3.90625 0.0657445 -0.722706 0
M  V30 6 N 1.59013 1.4541 -0.505987 0
M  V30 7 C 0.266911 1.61374 -0.290954 0
M  V30 8 Cl -0.497872 3.20415 -0.38244 0
M  V30 9 C -0.574271 0.557703 0.0124485 0
M  V30 10 N -1.97783 0.74552 0.23788 0
M  V30 11 H -1.19137 -2.47339 -0.296876 0
M  V30 12 H -1.07566 -1.93051 1.40302 0
M  V30 13 H 1.83259 -1.79475 -0.0816797 0
M  V30 14 H -2.33395 0.878142 1.22393 0
M  V30 15 H -2.68294 0.761471 -0.505859 0
M  V30 END ATOM
M  V30 BEGIN BOND
M  V30 1 1 1 2
M  V30 2 2 2 3
M  V30 3 1 3 4
M  V30 4 1 4 5
M  V30 5 2 4 6
M  V30 6 1 6 7
M  V30 7 1 7 8
M  V30 8 2 7 9
M  V30 9 1 9 10
M  V30 10 1 9 2
M  V30 11 1 1 11
M  V30 12 1 1 12
M  V30 13 1 3 13
M  V30 14 1 10 14
M  V30 15 1 10 15
M  V30 END BOND
M  V30 END CTAB
M  END
