
     RDKit          3D

  0  0  0  0  0  0  0  0  0  0999 V3000
M  V30 BEGIN CTAB
M  V30 COUNTS 30 32 0 0 0
M  V30 BEGIN ATOM
M  V30 1 N 6.04585 1.02336 0.740546 0
M  V30 2 C 4.92396 0.470092 0.0674601 0
M  V30 3 N 4.78463 0.323042 -1.26112 0
M  V30 4 N 3.60269 -0.232206 -1.5309 0
M  V30 5 N 2.97046 -0.448368 -0.390314 0
M  V30 6 C 3.75037 -0.0296385 0.619591 0
M  V30 7 C 1.65874 -1.03425 -0.207652 0
M  V30 8 C 0.59171 -0.00680533 -0.216952 0
M  V30 9 O 0.924685 1.17841 -0.372164 0
M  V30 10 N -0.747716 -0.422474 -0.0495588 0
M  V30 11 N -1.17373 -1.68526 0.122399 0
M  V30 12 C -2.50189 -1.70232 0.246904 0
M  V30 13 C -2.94433 -0.394075 0.150413 0
M  V30 14 C -1.81953 0.392318 -0.0360862 0
M  V30 15 C -1.98961 1.75283 -0.16323 0
M  V30 16 C -3.25438 2.28009 -0.101736 0
M  V30 17 C -4.38126 1.49493 0.0848278 0
M  V30 18 C -4.21903 0.134273 0.212712 0
M  V30 19 N -3.36935 -2.81692 0.444086 0
M  V30 20 H 5.93633 1.61177 1.58867 0
M  V30 21 H 7.0145 0.851717 0.398017 0
M  V30 22 H 3.57155 -0.0437991 1.68884 0
M  V30 23 H 1.61982 -1.59102 0.757597 0
M  V30 24 H 1.4185 -1.76948 -1.01164 0
M  V30 25 H -1.14146 2.38832 -0.308322 0
M  V30 26 H -3.40311 3.36009 -0.201394 0
M  V30 27 H -5.37688 1.91196 0.133028 0
M  V30 28 H -5.08055 -0.529337 0.361993 0
M  V30 29 H -3.35579 -3.4115 1.30133 0
M  V30 30 H -4.05519 -3.05578 -0.303035 0
M  V30 END ATOM
M  V30 BEGIN BOND
M  V30 1 1 1 2
M  V30 2 1 2 3
M  V30 3 2 3 4
M  V30 4 1 4 5
M  V30 5 1 5 6
M  V30 6 1 5 7
M  V30 7 1 7 8
M  V30 8 2 8 9
M  V30 9 1 8 10
M  V30 10 1 10 11
M  V30 11 2 11 12
M  V30 12 1 12 13
M  V30 13 2 13 14
M  V30 14 1 14 15
M  V30 15 2 15 16
M  V30 16 1 16 17
M  V30 17 2 17 18
M  V30 18 1 12 19
M  V30 19 2 6 2
M  V30 20 1 14 10
M  V30 21 1 18 13
M  V30 22 1 1 20
M  V30 23 1 1 21
M  V30 24 1 6 22
M  V30 25 1 7 23
M  V30 26 1 7 24
M  V30 27 1 15 25
M  V30 28 1 16 26
M  V30 29 1 17 27
M  V30 30 1 18 28
M  V30 31 1 19 29
M  V30 32 1 19 30
M  V30 END BOND
M  V30 END CTAB
M  END
