
     RDKit          3D

  0  0  0  0  0  0  0  0  0  0999 V3000
M  V30 BEGIN CTAB
M  V30 COUNTS 24 24 0 0 0
M  V30 BEGIN ATOM
M  V30 1 N 5.03281 1.53893 0.0139834 0
M  V30 2 C 3.85473 0.70283 0.0578515 0
M  V30 3 N 3.18832 0.185076 -0.969896 0
M  V30 4 N 2.17381 -0.526828 -0.767352 0
M  V30 5 C 1.75103 -0.773845 0.470385 0
M  V30 6 S 2.944 0.112329 1.37352 0
M  V30 7 S 0.375916 -1.7287 1.05207 0
M  V30 8 C -1.14192 -0.859974 1.29239 0
M  V30 9 C -1.77549 -0.375877 0.0403095 0
M  V30 10 N -2.04665 -1.49728 -0.852164 0
M  V30 11 C -3.19848 0.147076 0.39013 0
M  V30 12 C -1.0159 0.706413 -0.650517 0
M  V30 13 H 5.02872 2.51743 0.349931 0
M  V30 14 H 5.91346 1.10556 -0.38095 0
M  V30 15 H -1.04648 -0.00477604 2.02667 0
M  V30 16 H -1.87951 -1.59743 1.74756 0
M  V30 17 H -2.52793 -2.25881 -0.333791 0
M  V30 18 H -2.653 -1.10257 -1.61792 0
M  V30 19 H -3.73631 -0.723206 0.784734 0
M  V30 20 H -3.68577 0.548029 -0.500051 0
M  V30 21 H -3.0549 0.950487 1.13281 0
M  V30 22 H -0.570255 0.302074 -1.56419 0
M  V30 23 H -1.70856 1.55932 -0.890312 0
M  V30 24 H -0.221649 1.07372 0.026019 0
M  V30 END ATOM
M  V30 BEGIN BOND
M  V30 1 1 1 2
M  V30 2 2 2 3
M  V30 3 1 3 4
M  V30 4 2 4 5
M  V30 5 1 5 6
M  V30 6 1 5 7
M  V30 7 1 7 8
M  V30 8 1 8 9
M  V30 9 1 9 10
M  V30 10 1 9 11
M  V30 11 1 9 12
M  V30 12 1 6 2
M  V30 13 1 1 13
M  V30 14 1 1 14
M  V30 15 1 8 15
M  V30 16 1 8 16
M  V30 17 1 10 17
M  V30 18 1 10 18
M  V30 19 1 11 19
M  V30 20 1 11 20
M  V30 21 1 11 21
M  V30 22 1 12 22
M  V30 23 1 12 23
M  V30 24 1 12 24
M  V30 END BOND
M  V30 END CTAB
M  END
