
     RDKit          3D

  0  0  0  0  0  0  0  0  0  0999 V3000
M  V30 BEGIN CTAB
M  V30 COUNTS 20 20 0 0 0
M  V30 BEGIN ATOM
M  V30 1 F -3.2255 -0.474354 1.43999 0
M  V30 2 C -2.56427 -1.19963 0.49163 0
M  V30 3 C -1.2235 -0.572942 0.196523 0
M  V30 4 C -1.09715 0.745475 -0.108439 0
M  V30 5 C 0.147262 1.27509 -0.370885 0
M  V30 6 N 0.224159 2.67001 -0.686889 0
M  V30 7 C 1.27121 0.486574 -0.329122 0
M  V30 8 C 1.13929 -0.838352 -0.0220805 0
M  V30 9 C -0.108442 -1.37936 0.243265 0
M  V30 10 N 2.2932 -1.66569 0.0247115 0
M  V30 11 O 2.5246 1.01195 -0.591682 0
M  V30 12 F -3.28221 -1.07434 -0.704944 0
M  V30 13 H -2.46502 -2.26294 0.714048 0
M  V30 14 H -2.00455 1.33934 -0.132735 0
M  V30 15 H 0.191583 3.00605 -1.67569 0
M  V30 16 H 0.313784 3.32422 0.121514 0
M  V30 17 H -0.207138 -2.4474 0.489889 0
M  V30 18 H 2.29067 -2.54506 -0.532432 0
M  V30 19 H 3.10213 -1.37666 0.606865 0
M  V30 20 H 2.67988 1.97801 -0.822493 0
M  V30 END ATOM
M  V30 BEGIN BOND
M  V30 1 1 1 2
M  V30 2 1 2 3
M  V30 3 2 3 4
M  V30 4 1 4 5
M  V30 5 1 5 6
M  V30 6 2 5 7
M  V30 7 1 7 8
M  V30 8 2 8 9
M  V30 9 1 8 10
M  V30 10 1 7 11
M  V30 11 1 2 12
M  V30 12 1 9 3
M  V30 13 1 2 13
M  V30 14 1 4 14
M  V30 15 1 6 15
M  V30 16 1 6 16
M  V30 17 1 9 17
M  V30 18 1 10 18
M  V30 19 1 10 19
M  V30 20 1 11 20
M  V30 END BOND
M  V30 END CTAB
M  END
