
     RDKit          3D

  0  0  0  0  0  0  0  0  0  0999 V3000
M  V30 BEGIN CTAB
M  V30 COUNTS 34 37 0 0 0
M  V30 BEGIN ATOM
M  V30 1 N -0.664357 2.41883 1.5924 0
M  V30 2 C 0.179455 1.56809 0.848016 0 CFG=2
M  V30 3 C -0.0681389 1.68741 -0.61562 0 CFG=1
M  V30 4 N 0.845838 2.58646 -1.28899 0
M  V30 5 C -0.143838 0.335827 -1.29574 0
M  V30 6 C 1.0729 -0.428027 -0.84528 0
M  V30 7 C 1.19527 -0.551735 0.525769 0
M  V30 8 C 2.25086 -1.22159 1.09068 0
M  V30 9 C 3.20447 -1.77854 0.236174 0
M  V30 10 C 3.0698 -1.64741 -1.12928 0
M  V30 11 C 1.99305 -0.964212 -1.70369 0
M  V30 12 C 0.098956 0.0966715 1.3124 0
M  V30 13 C -1.14721 -0.488483 0.753775 0
M  V30 14 C -1.29127 -0.371218 -0.612292 0
M  V30 15 C -2.38116 -0.859814 -1.258 0
M  V30 16 C -3.36374 -1.49018 -0.503085 0
M  V30 17 C -3.25047 -1.62458 0.868 0
M  V30 18 C -2.11432 -1.10974 1.50245 0
M  V30 19 H -0.180029 2.91718 2.3538 0
M  V30 20 H -1.11208 3.12172 0.98435 0
M  V30 21 H 1.26053 1.84465 1.02333 0
M  V30 22 H -1.09123 2.14436 -0.743618 0
M  V30 23 H 1.82365 2.35065 -1.09314 0
M  V30 24 H 0.57732 3.56066 -0.970364 0
M  V30 25 H -0.251229 0.391424 -2.36732 0
M  V30 26 H 2.32683 -1.30613 2.16029 0
M  V30 27 H 4.02836 -2.30189 0.692382 0
M  V30 28 H 3.80378 -2.07631 -1.77995 0
M  V30 29 H 1.86848 -0.849766 -2.77297 0
M  V30 30 H 0.207858 0.00882075 2.38168 0
M  V30 31 H -2.45121 -0.744773 -2.33069 0
M  V30 32 H -4.23312 -1.88 -1.01764 0
M  V30 33 H -4.03567 -2.12193 1.42616 0
M  V30 34 H -2.02833 -1.21642 2.57601 0
M  V30 END ATOM
M  V30 BEGIN BOND
M  V30 1 1 1 2
M  V30 2 1 2 3
M  V30 3 1 3 4
M  V30 4 1 3 5
M  V30 5 1 5 6
M  V30 6 2 6 7
M  V30 7 1 7 8
M  V30 8 2 8 9
M  V30 9 1 9 10
M  V30 10 2 10 11
M  V30 11 1 7 12
M  V30 12 1 12 13
M  V30 13 2 13 14
M  V30 14 1 14 15
M  V30 15 2 15 16
M  V30 16 1 16 17
M  V30 17 2 17 18
M  V30 18 1 12 2
M  V30 19 1 18 13
M  V30 20 1 14 5
M  V30 21 1 11 6
M  V30 22 1 1 19
M  V30 23 1 1 20
M  V30 24 1 2 21 CFG=3
M  V30 25 1 3 22 CFG=1
M  V30 26 1 4 23
M  V30 27 1 4 24
M  V30 28 1 5 25
M  V30 29 1 8 26
M  V30 30 1 9 27
M  V30 31 1 10 28
M  V30 32 1 11 29
M  V30 33 1 12 30
M  V30 34 1 15 31
M  V30 35 1 16 32
M  V30 36 1 17 33
M  V30 37 1 18 34
M  V30 END BOND
M  V30 END CTAB
M  END
