
     RDKit          3D

  0  0  0  0  0  0  0  0  0  0999 V3000
M  V30 BEGIN CTAB
M  V30 COUNTS 50 51 0 0 0
M  V30 BEGIN ATOM
M  V30 1 C 6.06244 -1.17704 0.201958 0
M  V30 2 C 4.62598 -0.794681 0.19864 0
M  V30 3 C 3.93445 -0.339144 1.27116 0
M  V30 4 C 2.59009 0.0104688 1.22551 0
M  V30 5 C 2.02825 0.456078 2.52612 0
M  V30 6 C 1.87847 -0.0923603 0.0522849 0
M  V30 7 C 0.514179 0.393816 -0.0648358 0 CFG=1
M  V30 8 N 0.14794 1.08576 -1.22217 0
M  V30 9 C -0.57816 -0.427467 0.572386 0 CFG=2
M  V30 10 N -0.441818 -1.78318 0.114062 0
M  V30 11 C -1.93803 0.0699474 0.154382 0
M  V30 12 C -2.52316 1.02885 0.941883 0
M  V30 13 C -1.83803 1.70561 2.07756 0
M  V30 14 C -3.81326 1.46235 0.698306 0
M  V30 15 C -4.56367 0.947514 -0.35139 0
M  V30 16 C -5.94341 1.43683 -0.593873 0
M  V30 17 C -3.95116 -0.00501386 -1.11524 0
M  V30 18 C -2.63778 -0.475779 -0.895009 0
M  V30 19 C -2.15522 -1.6088 -1.75142 0
M  V30 20 C 2.58708 -0.566203 -1.07926 0
M  V30 21 C 1.98132 -0.599555 -2.40881 0
M  V30 22 C 3.93197 -0.904027 -0.97909 0
M  V30 23 H 6.69889 -0.516522 -0.415929 0
M  V30 24 H 6.40369 -0.988964 1.26427 0
M  V30 25 H 6.21219 -2.24975 0.0467461 0
M  V30 26 H 4.48105 -0.253558 2.21817 0
M  V30 27 H 2.81655 1.01855 3.12366 0
M  V30 28 H 1.92314 -0.496954 3.14396 0
M  V30 29 H 1.08497 0.944636 2.53727 0
M  V30 30 H 0.582314 1.34059 0.686913 0
M  V30 31 H 0.428851 2.09841 -1.29798 0
M  V30 32 H -0.528591 0.773152 -1.87821 0
M  V30 33 H -0.594805 -0.452137 1.66172 0
M  V30 34 H 0.232647 -2.04306 -0.554854 0
M  V30 35 H -0.594802 -2.48775 0.894356 0
M  V30 36 H -2.59011 2.24073 2.72919 0
M  V30 37 H -1.28383 1.06097 2.74484 0
M  V30 38 H -1.26741 2.54263 1.61051 0
M  V30 39 H -4.27228 2.22327 1.32485 0
M  V30 40 H -6.19491 1.46922 -1.6765 0
M  V30 41 H -6.03425 2.47187 -0.144572 0
M  V30 42 H -6.64793 0.735937 -0.109219 0
M  V30 43 H -4.50243 -0.413421 -1.94047 0
M  V30 44 H -2.22218 -2.60078 -1.23802 0
M  V30 45 H -1.25691 -1.41825 -2.33015 0
M  V30 46 H -2.9534 -1.73791 -2.56003 0
M  V30 47 H 1.99407 0.439819 -2.89489 0
M  V30 48 H 2.69342 -1.13018 -3.12066 0
M  V30 49 H 1.04705 -1.12992 -2.54154 0
M  V30 50 H 4.44653 -1.26458 -1.87054 0
M  V30 END ATOM
M  V30 BEGIN BOND
M  V30 1 1 1 2
M  V30 2 2 2 3
M  V30 3 1 3 4
M  V30 4 1 4 5
M  V30 5 2 4 6
M  V30 6 1 6 7
M  V30 7 1 7 8
M  V30 8 1 7 9
M  V30 9 1 9 10
M  V30 10 1 9 11
M  V30 11 2 11 12
M  V30 12 1 12 13
M  V30 13 1 12 14
M  V30 14 2 14 15
M  V30 15 1 15 16
M  V30 16 1 15 17
M  V30 17 2 17 18
M  V30 18 1 18 19
M  V30 19 1 6 20
M  V30 20 1 20 21
M  V30 21 2 20 22
M  V30 22 1 22 2
M  V30 23 1 18 11
M  V30 24 1 1 23
M  V30 25 1 1 24
M  V30 26 1 1 25
M  V30 27 1 3 26
M  V30 28 1 5 27
M  V30 29 1 5 28
M  V30 30 1 5 29
M  V30 31 1 7 30 CFG=1
M  V30 32 1 8 31
M  V30 33 1 8 32
M  V30 34 1 9 33 CFG=1
M  V30 35 1 10 34
M  V30 36 1 10 35
M  V30 37 1 13 36
M  V30 38 1 13 37
M  V30 39 1 13 38
M  V30 40 1 14 39
M  V30 41 1 16 40
M  V30 42 1 16 41
M  V30 43 1 16 42
M  V30 44 1 17 43
M  V30 45 1 19 44
M  V30 46 1 19 45
M  V30 47 1 19 46
M  V30 48 1 21 47
M  V30 49 1 21 48
M  V30 50 1 21 49
M  V30 51 1 22 50
M  V30 END BOND
M  V30 END CTAB
M  END
