
     RDKit          3D

  0  0  0  0  0  0  0  0  0  0999 V3000
M  V30 BEGIN CTAB
M  V30 COUNTS 28 29 0 0 0
M  V30 BEGIN ATOM
M  V30 1 N -1.39098 3.10273 1.94299 0
M  V30 2 C -1.45368 2.13883 1.30618 0
M  V30 3 C -1.51001 0.917749 0.513378 0
M  V30 4 C -2.47392 0.881969 -0.377274 0
M  V30 5 N -3.40733 1.93138 -0.581182 0
M  V30 6 S -2.59322 -0.610224 -1.3887 0
M  V30 7 C -1.80285 -1.89601 -0.404683 0
M  V30 8 C -0.922309 -1.50284 0.494694 0
M  V30 9 C -0.516852 -0.11324 0.778089 0
M  V30 10 C 0.806708 0.20777 0.140524 0
M  V30 11 C 1.07809 0.300417 -1.20346 0
M  V30 12 C 2.42997 0.617334 -1.35943 0
M  V30 13 C 2.91231 0.700582 -0.0662814 0
M  V30 14 O 1.91725 0.451804 0.749922 0
M  V30 15 C 4.28937 1.01 0.380789 0
M  V30 16 C -0.32001 -2.59797 1.25815 0
M  V30 17 N 0.167718 -3.44929 1.87241 0
M  V30 18 N -2.13298 -3.26759 -0.609868 0
M  V30 19 H -3.84036 2.14577 -1.49968 0
M  V30 20 H -3.70366 2.55336 0.227377 0
M  V30 21 H -0.342642 -0.0956983 1.90131 0
M  V30 22 H 0.429967 0.168467 -2.03022 0
M  V30 23 H 2.98566 0.766124 -2.26111 0
M  V30 24 H 4.91121 1.13033 -0.521277 0
M  V30 25 H 4.68677 0.166535 1.01083 0
M  V30 26 H 4.31389 1.90883 1.04912 0
M  V30 27 H -2.177 -3.7131 -1.54365 0
M  V30 28 H -2.34109 -3.85401 0.221047 0
M  V30 END ATOM
M  V30 BEGIN BOND
M  V30 1 3 1 2
M  V30 2 1 2 3
M  V30 3 2 3 4
M  V30 4 1 4 5
M  V30 5 1 4 6
M  V30 6 1 6 7
M  V30 7 2 7 8
M  V30 8 1 8 9
M  V30 9 1 9 10
M  V30 10 2 10 11
M  V30 11 1 11 12
M  V30 12 2 12 13
M  V30 13 1 13 14
M  V30 14 1 13 15
M  V30 15 1 8 16
M  V30 16 3 16 17
M  V30 17 1 7 18
M  V30 18 1 9 3
M  V30 19 1 14 10
M  V30 20 1 5 19
M  V30 21 1 5 20
M  V30 22 1 9 21
M  V30 23 1 11 22
M  V30 24 1 12 23
M  V30 25 1 15 24
M  V30 26 1 15 25
M  V30 27 1 15 26
M  V30 28 1 18 27
M  V30 29 1 18 28
M  V30 END BOND
M  V30 END CTAB
M  END
