
     RDKit          3D

  0  0  0  0  0  0  0  0  0  0999 V3000
M  V30 BEGIN CTAB
M  V30 COUNTS 66 69 0 0 0
M  V30 BEGIN ATOM
M  V30 1 C 9.78701 1.85278 -1.43412 0
M  V30 2 C 9.36879 1.7313 0.00911628 0
M  V30 3 O 8.03159 1.28345 0.0836693 0
M  V30 4 C 7.62283 0.0734549 -0.451254 0
M  V30 5 O 8.45178 -0.664085 -1.02558 0
M  V30 6 C 6.20955 -0.3492 -0.345775 0
M  V30 7 C 5.27465 0.738372 -0.853027 0
M  V30 8 C 3.85509 0.320076 -0.749927 0
M  V30 9 C 3.08788 0.54994 0.364394 0
M  V30 10 C 1.77324 0.144516 0.408838 0
M  V30 11 C 1.1733 -0.501765 -0.647041 0
M  V30 12 C 1.96783 -0.72803 -1.7731 0
M  V30 13 C 3.27977 -0.319565 -1.80844 0
M  V30 14 C -0.204071 -0.949187 -0.657819 0
M  V30 15 C -1.08269 -0.788014 0.382454 0
M  V30 16 C -2.40747 -1.24288 0.313477 0
M  V30 17 N -2.752 -1.83988 -0.827944 0
M  V30 18 C -1.9453 -2.02254 -1.86451 0
M  V30 19 N -0.686501 -1.57283 -1.75776 0
M  V30 20 N -2.39258 -2.67128 -3.05266 0
M  V30 21 O -3.17554 -1.02279 1.41203 0
M  V30 22 C -4.53507 -1.3655 1.60242 0
M  V30 23 C -4.56767 -2.70227 2.32963 0
M  V30 24 F -5.83867 -3.15336 2.58788 0
M  V30 25 F -4.04878 -3.69168 1.45662 0
M  V30 26 F -3.7187 -2.68005 3.3842 0
M  V30 27 C -5.27606 -0.289613 2.26157 0
M  V30 28 C -5.71159 -0.416721 3.55449 0
M  V30 29 C -6.39254 0.602886 4.17453 0
M  V30 30 C -6.65369 1.77712 3.51168 0
M  V30 31 C -6.23269 1.9304 2.22655 0
M  V30 32 C -5.53587 0.88924 1.58862 0
M  V30 33 N -5.15164 1.13335 0.246552 0
M  V30 34 C -4.29794 2.07233 -0.161242 0
M  V30 35 C -4.19925 2.00394 -1.56011 0
M  V30 36 C -5.03726 0.98171 -1.92772 0
M  V30 37 N -5.58384 0.493278 -0.803809 0
M  V30 38 C -5.31601 0.480288 -3.28842 0
M  V30 39 Cl -7.52068 3.10124 4.27202 0
M  V30 40 N 5.98746 -1.61698 -0.975459 0
M  V30 41 H 10.5637 1.08684 -1.71061 0
M  V30 42 H 10.2363 2.84115 -1.62028 0
M  V30 43 H 8.89041 1.7589 -2.07824 0
M  V30 44 H 9.40433 2.75209 0.471003 0
M  V30 45 H 10.037 1.10141 0.616734 0
M  V30 46 H 5.95925 -0.47775 0.745075 0
M  V30 47 H 5.50567 0.882984 -1.92789 0
M  V30 48 H 5.45958 1.69617 -0.336877 0
M  V30 49 H 3.56235 1.06253 1.20299 0
M  V30 50 H 1.19973 0.341242 1.2999 0
M  V30 51 H 1.57381 -1.22916 -2.64446 0
M  V30 52 H 3.87611 -0.514627 -2.71383 0
M  V30 53 H -0.723655 -0.291054 1.27736 0
M  V30 54 H -3.35727 -2.60739 -3.41056 0
M  V30 55 H -1.69543 -3.24002 -3.58091 0
M  V30 56 H -4.96502 -1.57897 0.606429 0
M  V30 57 H -5.54063 -1.32894 4.15871 0
M  V30 58 H -6.74552 0.510549 5.21041 0
M  V30 59 H -6.43212 2.85692 1.68767 0
M  V30 60 H -3.73164 2.80406 0.400668 0
M  V30 61 H -3.5871 2.63111 -2.20047 0
M  V30 62 H -6.31692 0.811624 -3.63424 0
M  V30 63 H -4.52383 0.816155 -4.00093 0
M  V30 64 H -5.31801 -0.630273 -3.31385 0
M  V30 65 H 5.93324 -1.51613 -2.01119 0
M  V30 66 H 5.12891 -2.11084 -0.656784 0
M  V30 END ATOM
M  V30 BEGIN BOND
M  V30 1 1 1 2
M  V30 2 1 2 3
M  V30 3 1 3 4
M  V30 4 2 4 5
M  V30 5 1 4 6
M  V30 6 1 6 7
M  V30 7 1 7 8
M  V30 8 2 8 9
M  V30 9 1 9 10
M  V30 10 2 10 11
M  V30 11 1 11 12
M  V30 12 2 12 13
M  V30 13 1 11 14
M  V30 14 2 14 15
M  V30 15 1 15 16
M  V30 16 2 16 17
M  V30 17 1 17 18
M  V30 18 2 18 19
M  V30 19 1 18 20
M  V30 20 1 16 21
M  V30 21 1 21 22
M  V30 22 1 22 23
M  V30 23 1 23 24
M  V30 24 1 23 25
M  V30 25 1 23 26
M  V30 26 1 22 27
M  V30 27 2 27 28
M  V30 28 1 28 29
M  V30 29 2 29 30
M  V30 30 1 30 31
M  V30 31 2 31 32
M  V30 32 1 32 33
M  V30 33 1 33 34
M  V30 34 2 34 35
M  V30 35 1 35 36
M  V30 36 2 36 37
M  V30 37 1 36 38
M  V30 38 1 30 39
M  V30 39 1 6 40
M  V30 40 1 13 8
M  V30 41 1 19 14
M  V30 42 1 32 27
M  V30 43 1 37 33
M  V30 44 1 1 41
M  V30 45 1 1 42
M  V30 46 1 1 43
M  V30 47 1 2 44
M  V30 48 1 2 45
M  V30 49 1 6 46
M  V30 50 1 7 47
M  V30 51 1 7 48
M  V30 52 1 9 49
M  V30 53 1 10 50
M  V30 54 1 12 51
M  V30 55 1 13 52
M  V30 56 1 15 53
M  V30 57 1 20 54
M  V30 58 1 20 55
M  V30 59 1 22 56
M  V30 60 1 28 57
M  V30 61 1 29 58
M  V30 62 1 31 59
M  V30 63 1 34 60
M  V30 64 1 35 61
M  V30 65 1 38 62
M  V30 66 1 38 63
M  V30 67 1 38 64
M  V30 68 1 40 65
M  V30 69 1 40 66
M  V30 END BOND
M  V30 END CTAB
M  END
