
     RDKit          3D

  0  0  0  0  0  0  0  0  0  0999 V3000
M  V30 BEGIN CTAB
M  V30 COUNTS 20 20 0 0 0
M  V30 BEGIN ATOM
M  V30 1 N -3.83475 -0.254698 0.336013 0
M  V30 2 C -2.65295 0.479705 -0.0545545 0
M  V30 3 C -1.3839 -0.333413 0.220721 0
M  V30 4 C -0.231333 0.530719 -0.224343 0
M  V30 5 C 1.08026 -0.133898 -0.016043 0
M  V30 6 O 1.37081 -1.30433 0.473909 0
M  V30 7 N 2.67529 -1.45537 0.459884 0
M  V30 8 C 3.24184 -0.359419 -0.050027 0
M  V30 9 N 2.23397 0.474709 -0.350371 0
M  V30 10 N 4.60449 -0.0428865 -0.270426 0
M  V30 11 H -4.44837 0.397153 0.866602 0
M  V30 12 H -4.35322 -0.543554 -0.523578 0
M  V30 13 H -2.65664 0.672219 -1.15061 0
M  V30 14 H -2.55443 1.40737 0.521245 0
M  V30 15 H -1.4357 -1.23104 -0.426593 0
M  V30 16 H -1.32688 -0.637792 1.26695 0
M  V30 17 H -0.22348 1.50061 0.307103 0
M  V30 18 H -0.344201 0.69417 -1.31458 0
M  V30 19 H 5.18577 -0.645817 -0.880579 0
M  V30 20 H 5.05343 0.785561 0.163434 0
M  V30 END ATOM
M  V30 BEGIN BOND
M  V30 1 1 1 2
M  V30 2 1 2 3
M  V30 3 1 3 4
M  V30 4 1 4 5
M  V30 5 1 5 6
M  V30 6 1 6 7
M  V30 7 2 7 8
M  V30 8 1 8 9
M  V30 9 1 8 10
M  V30 10 2 9 5
M  V30 11 1 1 11
M  V30 12 1 1 12
M  V30 13 1 2 13
M  V30 14 1 2 14
M  V30 15 1 3 15
M  V30 16 1 3 16
M  V30 17 1 4 17
M  V30 18 1 4 18
M  V30 19 1 10 19
M  V30 20 1 10 20
M  V30 END BOND
M  V30 END CTAB
M  END
