
     RDKit          3D

  0  0  0  0  0  0  0  0  0  0999 V3000
M  V30 BEGIN CTAB
M  V30 COUNTS 28 28 0 0 0
M  V30 BEGIN ATOM
M  V30 1 C -3.488 0.0664401 -0.893933 0
M  V30 2 C -2.93721 -0.894122 0.10191 0
M  V30 3 C -1.4515 -0.870301 0.135478 0
M  V30 4 C -0.826064 0.436764 0.501131 0
M  V30 5 C 0.655063 0.21857 0.476127 0
M  V30 6 C 1.27849 0.040738 1.68895 0
M  V30 7 C 2.6426 -0.163611 1.68863 0
M  V30 8 C 3.3348 -0.18435 0.496817 0
M  V30 9 C 2.72794 -0.00868928 -0.72089 0
M  V30 10 C 1.35039 0.197217 -0.714457 0
M  V30 11 N 3.47221 -0.0360419 -1.92957 0
M  V30 12 N -1.11296 1.52879 -0.367858 0
M  V30 13 H -2.83518 0.226113 -1.77099 0
M  V30 14 H -3.64384 1.07331 -0.421958 0
M  V30 15 H -4.48504 -0.346067 -1.23277 0
M  V30 16 H -3.30281 -0.670548 1.14767 0
M  V30 17 H -3.2502 -1.93388 -0.174667 0
M  V30 18 H -0.978775 -1.21626 -0.811957 0
M  V30 19 H -1.13439 -1.59861 0.938779 0
M  V30 20 H -1.16862 0.697025 1.52215 0
M  V30 21 H 0.705827 0.0622514 2.61239 0
M  V30 22 H 3.16466 -0.30742 2.63081 0
M  V30 23 H 4.42247 -0.346937 0.491904 0
M  V30 24 H 0.880709 0.332261 -1.66395 0
M  V30 25 H 3.10725 0.329721 -2.82311 0
M  V30 26 H 4.42889 -0.441938 -1.91951 0
M  V30 27 H -0.755703 2.40187 0.0287031 0
M  V30 28 H -0.801001 1.40769 -1.33434 0
M  V30 END ATOM
M  V30 BEGIN BOND
M  V30 1 1 1 2
M  V30 2 1 2 3
M  V30 3 1 3 4
M  V30 4 1 4 5
M  V30 5 2 5 6
M  V30 6 1 6 7
M  V30 7 2 7 8
M  V30 8 1 8 9
M  V30 9 2 9 10
M  V30 10 1 9 11
M  V30 11 1 4 12
M  V30 12 1 10 5
M  V30 13 1 1 13
M  V30 14 1 1 14
M  V30 15 1 1 15
M  V30 16 1 2 16
M  V30 17 1 2 17
M  V30 18 1 3 18
M  V30 19 1 3 19
M  V30 20 1 4 20
M  V30 21 1 6 21
M  V30 22 1 7 22
M  V30 23 1 8 23
M  V30 24 1 10 24
M  V30 25 1 11 25
M  V30 26 1 11 26
M  V30 27 1 12 27
M  V30 28 1 12 28
M  V30 END BOND
M  V30 END CTAB
M  END
