
     RDKit          3D

  0  0  0  0  0  0  0  0  0  0999 V3000
M  V30 BEGIN CTAB
M  V30 COUNTS 25 25 0 0 0
M  V30 BEGIN ATOM
M  V30 1 N 3.14276 1.47387 -0.92006 0
M  V30 2 C 2.94986 0.107503 -0.505288 0
M  V30 3 C 1.80393 -0.568178 -1.21822 0
M  V30 4 C 0.505145 0.0862245 -1.00963 0
M  V30 5 O 0.227525 1.08806 -1.72742 0
M  V30 6 C -0.47602 -0.352442 -0.0269513 0
M  V30 7 C -1.67992 0.307507 0.115054 0
M  V30 8 N -1.90853 1.42117 -0.73328 0
M  V30 9 C -2.63432 -0.0751275 1.03318 0
M  V30 10 O -3.81169 0.659837 1.0919 0
M  V30 11 C -2.39291 -1.1581 1.85006 0
M  V30 12 C -1.17779 -1.8434 1.72359 0
M  V30 13 C -0.23579 -1.43687 0.79191 0
M  V30 14 H 4.10768 1.76763 -0.588047 0
M  V30 15 H 2.4685 2.11709 -0.470822 0
M  V30 16 H 2.83273 0.0848162 0.597595 0
M  V30 17 H 3.87268 -0.446847 -0.789848 0
M  V30 18 H 1.7948 -1.62827 -0.935896 0
M  V30 19 H 2.051 -0.519284 -2.31026 0
M  V30 20 H -1.57447 2.36179 -0.521457 0
M  V30 21 H -2.44294 1.26454 -1.61201 0
M  V30 22 H -3.99654 1.44565 0.504068 0
M  V30 23 H -3.13332 -1.46691 2.57302 0
M  V30 24 H -0.964488 -2.71015 2.36425 0
M  V30 25 H 0.672125 -1.98013 0.724559 0
M  V30 END ATOM
M  V30 BEGIN BOND
M  V30 1 1 1 2
M  V30 2 1 2 3
M  V30 3 1 3 4
M  V30 4 2 4 5
M  V30 5 1 4 6
M  V30 6 2 6 7
M  V30 7 1 7 8
M  V30 8 1 7 9
M  V30 9 1 9 10
M  V30 10 2 9 11
M  V30 11 1 11 12
M  V30 12 2 12 13
M  V30 13 1 13 6
M  V30 14 1 1 14
M  V30 15 1 1 15
M  V30 16 1 2 16
M  V30 17 1 2 17
M  V30 18 1 3 18
M  V30 19 1 3 19
M  V30 20 1 8 20
M  V30 21 1 8 21
M  V30 22 1 10 22
M  V30 23 1 11 23
M  V30 24 1 12 24
M  V30 25 1 13 25
M  V30 END BOND
M  V30 END CTAB
M  END
