
     RDKit          3D

  0  0  0  0  0  0  0  0  0  0999 V3000
M  V30 BEGIN CTAB
M  V30 COUNTS 71 74 0 0 0
M  V30 BEGIN ATOM
M  V30 1 C 9.31822 1.31611 -0.831728 0
M  V30 2 C 8.07898 1.92765 -0.246188 0
M  V30 3 O 7.81135 3.083 -0.629083 0
M  V30 4 N 7.31163 1.17665 0.678734 0
M  V30 5 C 6.11261 1.68538 1.28498 0
M  V30 6 C 5.02371 2.03668 0.325459 0
M  V30 7 C 4.5708 0.856095 -0.501851 0
M  V30 8 C 4.04169 -0.260381 0.376306 0
M  V30 9 C 3.591 -1.43718 -0.498177 0 CFG=1
M  V30 10 C 2.5168 -1.01574 -1.4267 0
M  V30 11 O 2.82836 -0.810118 -2.62844 0
M  V30 12 N 1.1777 -0.841682 -1.00948 0
M  V30 13 C 0.156043 -0.393153 -1.92973 0
M  V30 14 C -1.16744 -1.03999 -1.79238 0
M  V30 15 C -1.53208 -1.44104 -0.388441 0
M  V30 16 C -0.348815 -2.18364 0.200715 0
M  V30 17 C 0.750239 -1.11389 0.341939 0
M  V30 18 O -1.81846 -0.388866 0.441024 0
M  V30 19 C -2.93896 0.33283 0.120067 0
M  V30 20 C -4.14955 -0.499648 -0.165905 0 CFG=1
M  V30 21 C -3.92357 -1.91651 0.239245 0 CFG=1
M  V30 22 C -2.68804 -2.41702 -0.488742 0
M  V30 23 C -3.75793 -2.12129 1.70724 0
M  V30 24 O -4.99707 -2.67732 -0.280562 0
M  V30 25 N -5.37822 0.0684156 0.350453 0
M  V30 26 C -6.33276 -0.508257 1.08317 0
M  V30 27 N -7.2906 0.38768 1.33777 0
M  V30 28 C -6.95912 1.55874 0.766903 0
M  V30 29 C -5.74606 1.33476 0.147554 0
M  V30 30 N -5.21835 2.40072 -0.501762 0
M  V30 31 C -5.836 3.59509 -0.539371 0
M  V30 32 N -7.01862 3.81941 0.0624985 0
M  V30 33 C -7.60075 2.7823 0.733597 0
M  V30 34 N -8.8476 2.95985 1.38747 0
M  V30 35 N 4.80131 -1.80617 -1.23871 0
M  V30 36 H 8.95166 0.568098 -1.58166 0
M  V30 37 H 9.80351 0.730567 -0.0146895 0
M  V30 38 H 9.97617 2.06321 -1.27986 0
M  V30 39 H 7.64381 0.199729 0.927365 0
M  V30 40 H 6.38084 2.63849 1.82312 0
M  V30 41 H 5.77392 0.995778 2.0899 0
M  V30 42 H 4.1703 2.51757 0.857875 0
M  V30 43 H 5.401 2.7955 -0.385033 0
M  V30 44 H 5.39181 0.534381 -1.14473 0
M  V30 45 H 3.70584 1.20583 -1.11596 0
M  V30 46 H 4.90188 -0.64075 0.963037 0
M  V30 47 H 3.27869 0.106373 1.05235 0
M  V30 48 H 3.31088 -2.31755 0.100706 0
M  V30 49 H 0.524613 -0.599512 -2.97725 0
M  V30 50 H 0.101129 0.73315 -1.89525 0
M  V30 51 H -1.95574 -0.320936 -2.1424 0
M  V30 52 H -1.24815 -1.92539 -2.4491 0
M  V30 53 H -0.010561 -2.89883 -0.585053 0
M  V30 54 H -0.546449 -2.64041 1.16661 0
M  V30 55 H 0.327251 -0.176158 0.753067 0
M  V30 56 H 1.55571 -1.4843 1.00293 0
M  V30 57 H -3.18959 0.960035 1.0254 0
M  V30 58 H -2.74344 1.07454 -0.687286 0
M  V30 59 H -4.27277 -0.503167 -1.28917 0
M  V30 60 H -2.99962 -2.59566 -1.53966 0
M  V30 61 H -2.43875 -3.3992 -0.0322825 0
M  V30 62 H -3.99966 -1.21892 2.30928 0
M  V30 63 H -4.48913 -2.92549 2.01609 0
M  V30 64 H -2.77792 -2.47248 2.02716 0
M  V30 65 H -4.75422 -3.62706 -0.265393 0
M  V30 66 H -6.35197 -1.53325 1.42783 0
M  V30 67 H -5.39225 4.43177 -1.06602 0
M  V30 68 H -9.59885 2.24067 1.36103 0
M  V30 69 H -9.03138 3.83619 1.91628 0
M  V30 70 H 4.61589 -2.58652 -1.90916 0
M  V30 71 H 5.44513 -2.21578 -0.505023 0
M  V30 END ATOM
M  V30 BEGIN BOND
M  V30 1 1 1 2
M  V30 2 2 2 3
M  V30 3 1 2 4
M  V30 4 1 4 5
M  V30 5 1 5 6
M  V30 6 1 6 7
M  V30 7 1 7 8
M  V30 8 1 8 9
M  V30 9 1 9 10
M  V30 10 2 10 11
M  V30 11 1 10 12
M  V30 12 1 12 13
M  V30 13 1 13 14
M  V30 14 1 14 15
M  V30 15 1 15 16
M  V30 16 1 16 17
M  V30 17 1 15 18
M  V30 18 1 18 19
M  V30 19 1 19 20
M  V30 20 1 20 21
M  V30 21 1 21 22
M  V30 22 1 21 23
M  V30 23 1 21 24 CFG=3
M  V30 24 1 20 25
M  V30 25 1 25 26
M  V30 26 2 26 27
M  V30 27 1 27 28
M  V30 28 2 28 29
M  V30 29 1 29 30
M  V30 30 2 30 31
M  V30 31 1 31 32
M  V30 32 2 32 33
M  V30 33 1 33 34
M  V30 34 1 9 35
M  V30 35 1 17 12
M  V30 36 1 29 25
M  V30 37 1 22 15
M  V30 38 1 33 28
M  V30 39 1 1 36
M  V30 40 1 1 37
M  V30 41 1 1 38
M  V30 42 1 4 39
M  V30 43 1 5 40
M  V30 44 1 5 41
M  V30 45 1 6 42
M  V30 46 1 6 43
M  V30 47 1 7 44
M  V30 48 1 7 45
M  V30 49 1 8 46
M  V30 50 1 8 47
M  V30 51 1 9 48 CFG=1
M  V30 52 1 13 49
M  V30 53 1 13 50
M  V30 54 1 14 51
M  V30 55 1 14 52
M  V30 56 1 16 53
M  V30 57 1 16 54
M  V30 58 1 17 55
M  V30 59 1 17 56
M  V30 60 1 19 57
M  V30 61 1 19 58
M  V30 62 1 20 59 CFG=3
M  V30 63 1 22 60
M  V30 64 1 22 61
M  V30 65 1 23 62
M  V30 66 1 23 63
M  V30 67 1 23 64
M  V30 68 1 24 65
M  V30 69 1 26 66
M  V30 70 1 31 67
M  V30 71 1 34 68
M  V30 72 1 34 69
M  V30 73 1 35 70
M  V30 74 1 35 71
M  V30 END BOND
M  V30 END CTAB
M  END
