
     RDKit          3D

  0  0  0  0  0  0  0  0  0  0999 V3000
M  V30 BEGIN CTAB
M  V30 COUNTS 16 16 0 0 0
M  V30 BEGIN ATOM
M  V30 1 N -2.06324 -1.62698 0.173924 0
M  V30 2 N -2.29584 -0.283029 -0.0441316 0
M  V30 3 C -1.30703 0.51833 -0.130431 0
M  V30 4 C 0.0784937 0.0286532 -0.000540384 0
M  V30 5 S 0.605679 -1.59137 0.271858 0
M  V30 6 C 2.28641 -1.34264 0.298338 0
M  V30 7 C 2.39069 0.00320768 0.0930681 0
M  V30 8 C 1.26429 0.705928 -0.0598973 0
M  V30 9 I 1.20983 2.83009 -0.392412 0
M  V30 10 N -1.51733 1.88602 -0.351323 0
M  V30 11 H -2.00519 -2.28791 -0.621854 0
M  V30 12 H -1.9408 -2.01227 1.13024 0
M  V30 13 H 3.08286 -2.07694 0.443422 0
M  V30 14 H 3.40032 0.469415 0.0597126 0
M  V30 15 H -1.49567 2.25711 -1.32612 0
M  V30 16 H -1.69348 2.52237 0.456145 0
M  V30 END ATOM
M  V30 BEGIN BOND
M  V30 1 1 1 2
M  V30 2 2 2 3
M  V30 3 1 3 4
M  V30 4 1 4 5
M  V30 5 1 5 6
M  V30 6 2 6 7
M  V30 7 1 7 8
M  V30 8 1 8 9
M  V30 9 1 3 10
M  V30 10 2 8 4
M  V30 11 1 1 11
M  V30 12 1 1 12
M  V30 13 1 6 13
M  V30 14 1 7 14
M  V30 15 1 10 15
M  V30 16 1 10 16
M  V30 END BOND
M  V30 END CTAB
M  END
