
     RDKit          3D

  0  0  0  0  0  0  0  0  0  0999 V3000
M  V30 BEGIN CTAB
M  V30 COUNTS 47 50 0 0 0
M  V30 BEGIN ATOM
M  V30 1 N -3.95773 -0.598367 3.07011 0
M  V30 2 C -3.89067 -0.0255245 1.78328 0
M  V30 3 N -4.44644 1.18173 1.60617 0
M  V30 4 C -4.43958 1.82341 0.412791 0
M  V30 5 N -5.03746 3.10088 0.260625 0
M  V30 6 N -3.84 1.2033 -0.639123 0
M  V30 7 C -3.27559 -0.00370943 -0.493611 0
M  V30 8 N -3.31029 -0.603675 0.72538 0
M  V30 9 C -2.60043 -0.741767 -1.60308 0
M  V30 10 N -1.19844 -0.585038 -1.43349 0
M  V30 11 C -0.641781 0.769321 -1.46882 0
M  V30 12 C 0.537991 0.954135 -0.577504 0
M  V30 13 N 1.06912 -0.232313 0.018689 0
M  V30 14 C 0.792221 -1.52335 -0.493145 0
M  V30 15 C -0.367626 -1.71684 -1.23899 0
M  V30 16 C -0.730874 -2.92055 -1.77947 0
M  V30 17 C 0.112154 -4.00035 -1.56515 0
M  V30 18 C 1.28044 -3.8655 -0.830239 0
M  V30 19 C 1.60169 -2.61966 -0.30356 0
M  V30 20 C 1.91865 -0.123449 1.18514 0
M  V30 21 C 3.1345 0.675614 0.86387 0
M  V30 22 C 3.08587 2.03979 1.02706 0
M  V30 23 C 4.1927 2.79149 0.737448 0
M  V30 24 C 5.35527 2.1893 0.283261 0
M  V30 25 C 5.42698 0.823964 0.112248 0
M  V30 26 C 4.29981 0.0969586 0.411434 0
M  V30 27 H -4.86371 -0.938312 3.4271 0
M  V30 28 H -3.10511 -0.673762 3.6442 0
M  V30 29 H -4.87518 3.81164 0.995825 0
M  V30 30 H -5.62765 3.353 -0.551847 0
M  V30 31 H -2.90373 -0.200755 -2.54571 0
M  V30 32 H -2.99664 -1.74451 -1.56207 0
M  V30 33 H -0.258641 0.869532 -2.53114 0
M  V30 34 H -1.40735 1.53889 -1.37163 0
M  V30 35 H 0.241045 1.62124 0.286445 0
M  V30 36 H 1.35588 1.50471 -1.10914 0
M  V30 37 H -1.64319 -3.00799 -2.34905 0
M  V30 38 H -0.115437 -4.9882 -1.9668 0
M  V30 39 H 1.93705 -4.71594 -0.665987 0
M  V30 40 H 2.50054 -2.47405 0.270942 0
M  V30 41 H 2.1544 -1.08124 1.65068 0
M  V30 42 H 1.30923 0.437404 1.95479 0
M  V30 43 H 2.1834 2.50777 1.37947 0
M  V30 44 H 4.12855 3.86183 0.87421 0
M  V30 45 H 6.20787 2.82128 0.0659853 0
M  V30 46 H 6.3411 0.380905 -0.241247 0
M  V30 47 H 4.3671 -0.973216 0.273646 0
M  V30 END ATOM
M  V30 BEGIN BOND
M  V30 1 1 1 2
M  V30 2 2 2 3
M  V30 3 1 3 4
M  V30 4 1 4 5
M  V30 5 2 4 6
M  V30 6 1 6 7
M  V30 7 2 7 8
M  V30 8 1 7 9
M  V30 9 1 9 10
M  V30 10 1 10 11
M  V30 11 1 11 12
M  V30 12 1 12 13
M  V30 13 1 13 14
M  V30 14 2 14 15
M  V30 15 1 15 16
M  V30 16 2 16 17
M  V30 17 1 17 18
M  V30 18 2 18 19
M  V30 19 1 13 20
M  V30 20 1 20 21
M  V30 21 2 21 22
M  V30 22 1 22 23
M  V30 23 2 23 24
M  V30 24 1 24 25
M  V30 25 2 25 26
M  V30 26 1 8 2
M  V30 27 1 15 10
M  V30 28 1 26 21
M  V30 29 1 19 14
M  V30 30 1 1 27
M  V30 31 1 1 28
M  V30 32 1 5 29
M  V30 33 1 5 30
M  V30 34 1 9 31
M  V30 35 1 9 32
M  V30 36 1 11 33
M  V30 37 1 11 34
M  V30 38 1 12 35
M  V30 39 1 12 36
M  V30 40 1 16 37
M  V30 41 1 17 38
M  V30 42 1 18 39
M  V30 43 1 19 40
M  V30 44 1 20 41
M  V30 45 1 20 42
M  V30 46 1 22 43
M  V30 47 1 23 44
M  V30 48 1 24 45
M  V30 49 1 25 46
M  V30 50 1 26 47
M  V30 END BOND
M  V30 END CTAB
M  END
