
     RDKit          3D

  0  0  0  0  0  0  0  0  0  0999 V3000
M  V30 BEGIN CTAB
M  V30 COUNTS 27 28 0 0 0
M  V30 BEGIN ATOM
M  V30 1 N -3.70543 -0.402493 -1.99584 0
M  V30 2 C -2.86964 -0.277319 -0.853941 0
M  V30 3 N -1.53724 -0.0772916 -0.981779 0
M  V30 4 C -0.714319 0.04596 0.0580379 0
M  V30 5 N -1.2522 -0.0350937 1.28599 0
M  V30 6 C -2.57961 -0.234392 1.50629 0
M  V30 7 N -3.11715 -0.315402 2.81205 0
M  V30 8 N -3.34685 -0.349273 0.402198 0
M  V30 9 N 0.687243 0.256387 -0.0574012 0
M  V30 10 C 1.51059 0.379292 1.104 0
M  V30 11 C 2.97044 0.19574 0.826394 0
M  V30 12 N 3.18502 -0.654673 -0.341111 0
M  V30 13 C 2.66246 0.0167129 -1.51383 0
M  V30 14 C 1.21538 0.336839 -1.4162 0
M  V30 15 H -3.52017 0.233191 -2.7988 0
M  V30 16 H -4.48947 -1.07841 -2.09688 0
M  V30 17 H -3.74456 0.419239 3.17015 0
M  V30 18 H -2.88022 -1.11909 3.41687 0
M  V30 19 H 1.3962 1.36978 1.61034 0
M  V30 20 H 1.19506 -0.370498 1.8743 0
M  V30 21 H 3.50141 1.1613 0.670217 0
M  V30 22 H 3.43887 -0.267524 1.71482 0
M  V30 23 H 4.24002 -0.670382 -0.472225 0
M  V30 24 H 3.27877 0.917867 -1.72251 0
M  V30 25 H 2.81669 -0.662807 -2.38869 0
M  V30 26 H 0.579312 -0.236199 -2.10026 0
M  V30 27 H 1.07938 1.41854 -1.71222 0
M  V30 END ATOM
M  V30 BEGIN BOND
M  V30 1 1 1 2
M  V30 2 2 2 3
M  V30 3 1 3 4
M  V30 4 2 4 5
M  V30 5 1 5 6
M  V30 6 1 6 7
M  V30 7 2 6 8
M  V30 8 1 4 9
M  V30 9 1 9 10
M  V30 10 1 10 11
M  V30 11 1 11 12
M  V30 12 1 12 13
M  V30 13 1 13 14
M  V30 14 1 8 2
M  V30 15 1 14 9
M  V30 16 1 1 15
M  V30 17 1 1 16
M  V30 18 1 7 17
M  V30 19 1 7 18
M  V30 20 1 10 19
M  V30 21 1 10 20
M  V30 22 1 11 21
M  V30 23 1 11 22
M  V30 24 1 12 23
M  V30 25 1 13 24
M  V30 26 1 13 25
M  V30 27 1 14 26
M  V30 28 1 14 27
M  V30 END BOND
M  V30 END CTAB
M  END
