
     RDKit          3D

  0  0  0  0  0  0  0  0  0  0999 V3000
M  V30 BEGIN CTAB
M  V30 COUNTS 28 30 0 0 0
M  V30 BEGIN ATOM
M  V30 1 N 5.55366 -0.22732 -0.923963 0
M  V30 2 C 4.24455 -0.0211196 -0.397133 0
M  V30 3 C 3.12137 -0.432749 -1.1177 0
M  V30 4 C 1.85808 -0.235891 -0.613582 0
M  V30 5 C 1.68022 0.365465 0.600251 0
M  V30 6 O 0.398544 0.420256 0.822968 0
M  V30 7 C -0.288955 -0.101876 -0.156355 0
M  V30 8 N 0.597927 -0.514949 -1.05789 0
M  V30 9 C -1.74495 -0.198644 -0.220148 0
M  V30 10 C -2.36202 -0.774412 -1.31261 0
M  V30 11 C -3.74943 -0.862001 -1.36419 0
M  V30 12 C -4.49128 -0.362271 -0.302804 0
M  V30 13 C -3.89919 0.217895 0.800638 0
M  V30 14 N -4.66506 0.728753 1.88629 0
M  V30 15 C -2.5201 0.283373 0.808889 0
M  V30 16 C 2.80032 0.763559 1.29413 0
M  V30 17 C 4.08022 0.585901 0.826796 0
M  V30 18 H 5.97607 0.516469 -1.51373 0
M  V30 19 H 6.11428 -1.08526 -0.750867 0
M  V30 20 H 3.24825 -0.910014 -2.07978 0
M  V30 21 H -1.73173 -1.14396 -2.10472 0
M  V30 22 H -4.20866 -1.31764 -2.23128 0
M  V30 23 H -5.5843 -0.424765 -0.330485 0
M  V30 24 H -5.57454 0.283483 2.13853 0
M  V30 25 H -4.37059 1.54452 2.46667 0
M  V30 26 H -2.07574 0.748551 1.69633 0
M  V30 27 H 2.63311 1.24104 2.26022 0
M  V30 28 H 4.95993 0.913604 1.40178 0
M  V30 END ATOM
M  V30 BEGIN BOND
M  V30 1 1 1 2
M  V30 2 2 2 3
M  V30 3 1 3 4
M  V30 4 2 4 5
M  V30 5 1 5 6
M  V30 6 1 6 7
M  V30 7 2 7 8
M  V30 8 1 7 9
M  V30 9 2 9 10
M  V30 10 1 10 11
M  V30 11 2 11 12
M  V30 12 1 12 13
M  V30 13 1 13 14
M  V30 14 2 13 15
M  V30 15 1 5 16
M  V30 16 2 16 17
M  V30 17 1 17 2
M  V30 18 1 8 4
M  V30 19 1 15 9
M  V30 20 1 1 18
M  V30 21 1 1 19
M  V30 22 1 3 20
M  V30 23 1 10 21
M  V30 24 1 11 22
M  V30 25 1 12 23
M  V30 26 1 14 24
M  V30 27 1 14 25
M  V30 28 1 15 26
M  V30 29 1 16 27
M  V30 30 1 17 28
M  V30 END BOND
M  V30 END CTAB
M  END
