
     RDKit          3D

  0  0  0  0  0  0  0  0  0  0999 V3000
M  V30 BEGIN CTAB
M  V30 COUNTS 34 33 0 0 0
M  V30 BEGIN ATOM
M  V30 1 C 3.65337 0.839315 -0.0315721 0 CFG=2
M  V30 2 C 4.5829 0.0949486 0.89842 0
M  V30 3 N 3.3628 2.11406 0.510851 0
M  V30 4 C 2.44321 0.0319796 -0.391278 0
M  V30 5 O 2.72843 -1.1068 -0.847526 0
M  V30 6 N 1.14392 0.491708 -0.237594 0
M  V30 7 C -0.0880672 -0.18635 -0.561794 0 CFG=2
M  V30 8 C -0.709897 -0.814048 0.612217 0
M  V30 9 C -1.9855 -1.53775 0.471791 0
M  V30 10 C -3.12502 -0.707736 -0.0610745 0
M  V30 11 C -3.43813 0.472699 0.82561 0
M  V30 12 N -4.54525 1.19145 0.215807 0
M  V30 13 C 0.0265575 -0.987379 -1.79478 0
M  V30 14 O -0.681983 -2.13148 -2.08808 0
M  V30 15 O 0.850038 -0.626747 -2.71215 0
M  V30 16 H 4.19849 0.979067 -0.99593 0
M  V30 17 H 4.29653 0.268726 1.95307 0
M  V30 18 H 4.60766 -1.00091 0.658757 0
M  V30 19 H 5.60537 0.511648 0.757057 0
M  V30 20 H 2.97946 2.11184 1.47528 0
M  V30 21 H 2.98684 2.8225 -0.123375 0
M  V30 22 H 1.04381 1.47332 0.179059 0
M  V30 23 H -0.774702 0.693692 -0.901438 0
M  V30 24 H 0.0403991 -1.56953 1.01815 0
M  V30 25 H -0.785931 -0.0680262 1.46422 0
M  V30 26 H -1.89736 -2.44641 -0.130945 0
M  V30 27 H -2.30684 -1.92309 1.50331 0
M  V30 28 H -4.01751 -1.36938 -0.079573 0
M  V30 29 H -2.86595 -0.381567 -1.08039 0
M  V30 30 H -3.80779 0.11047 1.80841 0
M  V30 31 H -2.58609 1.13539 0.987557 0
M  V30 32 H -5.09076 1.7347 0.923425 0
M  V30 33 H -4.24821 1.8195 -0.550738 0
M  V30 34 H -1.59479 -2.03983 -2.49969 0
M  V30 END ATOM
M  V30 BEGIN BOND
M  V30 1 1 1 2
M  V30 2 1 1 3
M  V30 3 1 1 4
M  V30 4 2 4 5
M  V30 5 1 4 6
M  V30 6 1 6 7
M  V30 7 1 7 8
M  V30 8 1 8 9
M  V30 9 1 9 10
M  V30 10 1 10 11
M  V30 11 1 11 12
M  V30 12 1 7 13
M  V30 13 1 13 14
M  V30 14 2 13 15
M  V30 15 1 1 16 CFG=3
M  V30 16 1 2 17
M  V30 17 1 2 18
M  V30 18 1 2 19
M  V30 19 1 3 20
M  V30 20 1 3 21
M  V30 21 1 6 22
M  V30 22 1 7 23 CFG=3
M  V30 23 1 8 24
M  V30 24 1 8 25
M  V30 25 1 9 26
M  V30 26 1 9 27
M  V30 27 1 10 28
M  V30 28 1 10 29
M  V30 29 1 11 30
M  V30 30 1 11 31
M  V30 31 1 12 32
M  V30 32 1 12 33
M  V30 33 1 14 34
M  V30 END BOND
M  V30 END CTAB
M  END
