
     RDKit          3D

  0  0  0  0  0  0  0  0  0  0999 V3000
M  V30 BEGIN CTAB
M  V30 COUNTS 39 39 0 0 0
M  V30 BEGIN ATOM
M  V30 1 N -2.3761 2.00902 -0.814844 0
M  V30 2 C -3.3521 1.51364 0.0960176 0
M  V30 3 C -3.13207 0.136416 0.626674 0
M  V30 4 N -3.06161 -0.907575 -0.340031 0
M  V30 5 C -1.81295 -1.3033 -0.896651 0
M  V30 6 S -1.73689 -2.47811 -2.06277 0
M  V30 7 N -0.586818 -0.753408 -0.466562 0
M  V30 8 C 0.637624 -1.20949 -1.09749 0
M  V30 9 C 1.85577 -0.570992 -0.608354 0
M  V30 10 C 1.83415 0.697596 -0.0771157 0
M  V30 11 C 3.03142 1.25703 0.380311 0
M  V30 12 C 4.21045 0.545749 0.298052 0
M  V30 13 C 4.19862 -0.725973 -0.240868 0
M  V30 14 C 3.03348 -1.30099 -0.698846 0
M  V30 15 S 5.66791 1.31194 0.890822 0
M  V30 16 O 6.81819 0.716145 0.107869 0
M  V30 17 O 5.63714 2.79037 0.724906 0
M  V30 18 N 5.80459 0.891745 2.57341 0
M  V30 19 C -4.24798 -1.60424 -0.787971 0
M  V30 20 O -4.21208 -2.51856 -1.64896 0
M  V30 21 C -5.54364 -1.2124 -0.197556 0
M  V30 22 H -2.14092 3.01107 -0.69871 0
M  V30 23 H -2.52965 1.72536 -1.80626 0
M  V30 24 H -3.29624 2.19893 1.00256 0
M  V30 25 H -4.37016 1.66074 -0.311977 0
M  V30 26 H -4.00756 -0.120199 1.30444 0
M  V30 27 H -2.26103 0.100853 1.30839 0
M  V30 28 H -0.574934 -0.0483362 0.296991 0
M  V30 29 H 0.513787 -1.01387 -2.20252 0
M  V30 30 H 0.719945 -2.32874 -0.991863 0
M  V30 31 H 0.916104 1.25479 -0.0155563 0
M  V30 32 H 3.00052 2.25287 0.794907 0
M  V30 33 H 5.15099 -1.23573 -0.280036 0
M  V30 34 H 3.0455 -2.30682 -1.12115 0
M  V30 35 H 6.02657 -0.101602 2.69375 0
M  V30 36 H 4.83401 1.0459 2.97807 0
M  V30 37 H -5.57746 -1.28483 0.911613 0
M  V30 38 H -5.78991 -0.193665 -0.557722 0
M  V30 39 H -6.32668 -1.90134 -0.646441 0
M  V30 END ATOM
M  V30 BEGIN BOND
M  V30 1 1 1 2
M  V30 2 1 2 3
M  V30 3 1 3 4
M  V30 4 1 4 5
M  V30 5 2 5 6
M  V30 6 1 5 7
M  V30 7 1 7 8
M  V30 8 1 8 9
M  V30 9 2 9 10
M  V30 10 1 10 11
M  V30 11 2 11 12
M  V30 12 1 12 13
M  V30 13 2 13 14
M  V30 14 1 12 15
M  V30 15 2 15 16
M  V30 16 2 15 17
M  V30 17 1 15 18
M  V30 18 1 4 19
M  V30 19 2 19 20
M  V30 20 1 19 21
M  V30 21 1 14 9
M  V30 22 1 1 22
M  V30 23 1 1 23
M  V30 24 1 2 24
M  V30 25 1 2 25
M  V30 26 1 3 26
M  V30 27 1 3 27
M  V30 28 1 7 28
M  V30 29 1 8 29
M  V30 30 1 8 30
M  V30 31 1 10 31
M  V30 32 1 11 32
M  V30 33 1 13 33
M  V30 34 1 14 34
M  V30 35 1 18 35
M  V30 36 1 18 36
M  V30 37 1 21 37
M  V30 38 1 21 38
M  V30 39 1 21 39
M  V30 END BOND
M  V30 END CTAB
M  END
