
     RDKit          3D

  0  0  0  0  0  0  0  0  0  0999 V3000
M  V30 BEGIN CTAB
M  V30 COUNTS 38 40 0 0 0
M  V30 BEGIN ATOM
M  V30 1 N -2.57235 -2.76444 1.05891 0
M  V30 2 C -2.48621 -1.43358 0.576727 0
M  V30 3 C -3.64253 -0.697185 0.36647 0
M  V30 4 C -3.61144 0.59572 -0.0994701 0
M  V30 5 C -2.39373 1.18431 -0.36809 0
M  V30 6 O -2.33384 2.48993 -0.839903 0
M  V30 7 C -1.22198 0.444997 -0.157514 0
M  V30 8 C -1.26814 -0.848432 0.309314 0
M  V30 9 C -0.0275059 -1.58096 0.514197 0
M  V30 10 O -0.0293453 -2.76995 0.941422 0
M  V30 11 C 1.2871 -0.985412 0.238498 0
M  V30 12 C 1.30016 0.31744 -0.230154 0
M  V30 13 C 0.0731406 1.07551 -0.444853 0
M  V30 14 O 0.0620668 2.25462 -0.867919 0
M  V30 15 C 2.53872 0.895858 -0.496111 0
M  V30 16 O 2.721 2.15099 -0.955565 0
M  V30 17 C 3.7038 0.131101 -0.276093 0
M  V30 18 C 3.6312 -1.15606 0.189711 0
M  V30 19 C 2.43043 -1.73868 0.455404 0
M  V30 20 N 2.35179 -3.06997 0.937338 0
M  V30 21 S 5.28357 0.856061 -0.610478 0
M  V30 22 O 5.40653 2.20123 0.382391 0
M  V30 23 O 6.34154 -0.155976 -0.355926 0
M  V30 24 O 5.27149 1.30512 -2.05925 0
M  V30 25 S -5.09907 1.4973 -0.353891 0
M  V30 26 O -5.15762 2.88026 0.575109 0
M  V30 27 O -6.26594 0.586415 -0.0315772 0
M  V30 28 O -5.25556 1.89744 -1.79643 0
M  V30 29 H -2.89619 -3.56265 0.445345 0
M  V30 30 H -2.30048 -2.92225 2.05177 0
M  V30 31 H -4.60717 -1.17635 0.583913 0
M  V30 32 H -3.20135 2.98373 -0.976365 0
M  V30 33 H 2.17916 2.88722 -1.19461 0
M  V30 34 H 4.52338 -1.74678 0.36002 0
M  V30 35 H 2.53586 -3.3448 1.92856 0
M  V30 36 H 2.08861 -3.81937 0.233999 0
M  V30 37 H 6.35414 2.44287 0.575222 0
M  V30 38 H -5.71325 2.69474 1.37959 0
M  V30 END ATOM
M  V30 BEGIN BOND
M  V30 1 1 1 2
M  V30 2 2 2 3
M  V30 3 1 3 4
M  V30 4 2 4 5
M  V30 5 1 5 6
M  V30 6 1 5 7
M  V30 7 2 7 8
M  V30 8 1 8 9
M  V30 9 2 9 10
M  V30 10 1 9 11
M  V30 11 2 11 12
M  V30 12 1 12 13
M  V30 13 2 13 14
M  V30 14 1 12 15
M  V30 15 1 15 16
M  V30 16 2 15 17
M  V30 17 1 17 18
M  V30 18 2 18 19
M  V30 19 1 19 20
M  V30 20 1 17 21
M  V30 21 1 21 22
M  V30 22 2 21 23
M  V30 23 2 21 24
M  V30 24 1 4 25
M  V30 25 1 25 26
M  V30 26 2 25 27
M  V30 27 2 25 28
M  V30 28 1 8 2
M  V30 29 1 19 11
M  V30 30 1 13 7
M  V30 31 1 1 29
M  V30 32 1 1 30
M  V30 33 1 3 31
M  V30 34 1 6 32
M  V30 35 1 16 33
M  V30 36 1 18 34
M  V30 37 1 20 35
M  V30 38 1 20 36
M  V30 39 1 22 37
M  V30 40 1 26 38
M  V30 END BOND
M  V30 END CTAB
M  END
