
     RDKit          3D

  0  0  0  0  0  0  0  0  0  0999 V3000
M  V30 BEGIN CTAB
M  V30 COUNTS 32 33 0 0 0
M  V30 BEGIN ATOM
M  V30 1 O 3.64963 0.990911 1.19637 0
M  V30 2 C 3.035 0.762788 -0.0210243 0
M  V30 3 C 1.51181 0.780127 0.169843 0
M  V30 4 C 1.16883 -0.292585 1.13386 0
M  V30 5 C -0.211499 -0.850199 1.00056 0
M  V30 6 C -0.0460408 -2.23852 0.356456 0
M  V30 7 C 0.402352 -1.81098 -1.0362 0
M  V30 8 C -0.170732 -0.428779 -1.25261 0
M  V30 9 C 0.906646 0.639243 -1.18568 0
M  V30 10 N -0.98815 -0.208922 -0.0486278 0
M  V30 11 C -2.199 0.465529 -0.0344058 0
M  V30 12 N -2.22862 1.71712 -0.297686 0
M  V30 13 N -3.36033 2.50936 -0.318951 0
M  V30 14 N -3.41253 -0.188921 0.263765 0
M  V30 15 H 4.38265 0.321503 1.34206 0
M  V30 16 H 3.30135 1.49116 -0.802358 0
M  V30 17 H 3.34302 -0.244181 -0.431164 0
M  V30 18 H 1.2935 1.78139 0.64219 0
M  V30 19 H 1.25088 0.131 2.17835 0
M  V30 20 H 1.9601 -1.0898 1.10519 0
M  V30 21 H -0.765658 -0.905359 1.94027 0
M  V30 22 H 0.765628 -2.78764 0.864743 0
M  V30 23 H -1.0085 -2.74803 0.359644 0
M  V30 24 H -0.0826888 -2.49382 -1.78235 0
M  V30 25 H 1.50967 -1.82387 -1.12228 0
M  V30 26 H -0.748144 -0.328853 -2.17081 0
M  V30 27 H 0.377664 1.60728 -1.4149 0
M  V30 28 H 1.65446 0.518891 -1.99351 0
M  V30 29 H -4.20451 2.16025 -0.82354 0
M  V30 30 H -3.31745 3.4274 0.174703 0
M  V30 31 H -4.12515 0.290305 0.879458 0
M  V30 32 H -3.64419 -1.15379 -0.107895 0
M  V30 END ATOM
M  V30 BEGIN BOND
M  V30 1 1 1 2
M  V30 2 1 2 3
M  V30 3 1 3 4
M  V30 4 1 4 5
M  V30 5 1 5 6
M  V30 6 1 6 7
M  V30 7 1 7 8
M  V30 8 1 8 9
M  V30 9 1 8 10
M  V30 10 1 10 11
M  V30 11 2 11 12 CFG=2
M  V30 12 1 12 13
M  V30 13 1 11 14
M  V30 14 1 9 3
M  V30 15 1 10 5
M  V30 16 1 1 15
M  V30 17 1 2 16
M  V30 18 1 2 17
M  V30 19 1 3 18
M  V30 20 1 4 19
M  V30 21 1 4 20
M  V30 22 1 5 21
M  V30 23 1 6 22
M  V30 24 1 6 23
M  V30 25 1 7 24
M  V30 26 1 7 25
M  V30 27 1 8 26
M  V30 28 1 9 27
M  V30 29 1 9 28
M  V30 30 1 13 29
M  V30 31 1 13 30
M  V30 32 1 14 31
M  V30 33 1 14 32
M  V30 END BOND
M  V30 END CTAB
M  END
