
     RDKit          3D

  0  0  0  0  0  0  0  0  0  0999 V3000
M  V30 BEGIN CTAB
M  V30 COUNTS 31 32 0 0 0
M  V30 BEGIN ATOM
M  V30 1 C -1.02336 -2.75708 -1.02446 0
M  V30 2 C -0.412156 -2.47227 0.332387 0
M  V30 3 C 0.27777 -1.13725 0.364374 0
M  V30 4 S 1.97759 -0.815737 0.325976 0
M  V30 5 C 1.91601 0.884413 0.379281 0
M  V30 6 N 0.626223 1.12453 0.42325 0
M  V30 7 C -0.230731 0.130643 0.417704 0
M  V30 8 C -1.69924 0.41871 0.443292 0
M  V30 9 C -2.25302 1.32924 -0.450198 0
M  V30 10 C -3.57818 1.64681 -0.459077 0
M  V30 11 C -4.42512 1.05473 0.444885 0
M  V30 12 C -3.90887 0.152728 1.3391 0
M  V30 13 C -2.54882 -0.166926 1.34144 0
M  V30 14 N 2.97817 1.86452 0.379568 0
M  V30 15 C 4.19027 1.47837 0.335099 0
M  V30 16 N 5.2056 2.49324 0.337502 0
M  V30 17 N 4.50348 0.0970032 0.286087 0
M  V30 18 H -1.5518 -1.87381 -1.44767 0
M  V30 19 H -1.75863 -3.59189 -0.852218 0
M  V30 20 H -0.261294 -3.16005 -1.73297 0
M  V30 21 H -1.06024 -2.66267 1.17801 0
M  V30 22 H 0.429185 -3.2298 0.435844 0
M  V30 23 H -1.55584 1.77939 -1.15099 0
M  V30 24 H -3.98274 2.35609 -1.16358 0
M  V30 25 H -5.48772 1.32074 0.425254 0
M  V30 26 H -4.58991 -0.306118 2.04647 0
M  V30 27 H -2.21057 -0.869533 2.07567 0
M  V30 28 H 6.126 2.3438 0.796561 0
M  V30 29 H 5.05946 3.4228 -0.122568 0
M  V30 30 H 4.70464 -0.356185 -0.653132 0
M  V30 31 H 4.54385 -0.498435 1.15867 0
M  V30 END ATOM
M  V30 BEGIN BOND
M  V30 1 1 1 2
M  V30 2 1 2 3
M  V30 3 1 3 4
M  V30 4 1 4 5
M  V30 5 2 5 6
M  V30 6 1 6 7
M  V30 7 1 7 8
M  V30 8 2 8 9
M  V30 9 1 9 10
M  V30 10 2 10 11
M  V30 11 1 11 12
M  V30 12 2 12 13
M  V30 13 1 5 14
M  V30 14 2 14 15 CFG=2
M  V30 15 1 15 16
M  V30 16 1 15 17
M  V30 17 2 7 3
M  V30 18 1 13 8
M  V30 19 1 1 18
M  V30 20 1 1 19
M  V30 21 1 1 20
M  V30 22 1 2 21
M  V30 23 1 2 22
M  V30 24 1 9 23
M  V30 25 1 10 24
M  V30 26 1 11 25
M  V30 27 1 12 26
M  V30 28 1 13 27
M  V30 29 1 16 28
M  V30 30 1 16 29
M  V30 31 1 17 30
M  V30 32 1 17 31
M  V30 END BOND
M  V30 END CTAB
M  END
