
     RDKit          3D

  0  0  0  0  0  0  0  0  0  0999 V3000
M  V30 BEGIN CTAB
M  V30 COUNTS 42 45 0 0 0
M  V30 BEGIN ATOM
M  V30 1 N 4.29143 1.84874 1.35297 0
M  V30 2 C 5.03815 0.765568 0.761718 0
M  V30 3 C 4.50594 -0.570187 1.20563 0
M  V30 4 C 3.77867 -0.666034 -0.154895 0
M  V30 5 C 4.62428 0.521275 -0.653266 0
M  V30 6 O 2.50695 -0.41005 -0.113708 0
M  V30 7 C 1.24092 -0.252255 -0.122651 0
M  V30 8 C 0.663486 0.901756 0.428774 0
M  V30 9 C -0.671023 1.07458 0.419349 0
M  V30 10 C -1.53706 0.109086 -0.142078 0
M  V30 11 C -2.94576 0.46286 -0.0563065 0
M  V30 12 C -3.86453 0.341609 -1.05246 0
M  V30 13 C -5.18338 0.799987 -0.949115 0
M  V30 14 C -5.59759 1.41117 0.21101 0
M  V30 15 C -4.66078 1.53138 1.21368 0
M  V30 16 N -5.06571 2.15645 2.41195 0
M  V30 17 N -3.40944 1.08203 1.08306 0
M  V30 18 C -1.00734 -1.01878 -0.678377 0
M  V30 19 C 0.360977 -1.20022 -0.672226 0
M  V30 20 C 0.952658 -2.33874 -1.17314 0
M  V30 21 C 0.144627 -3.32664 -1.69254 0
M  V30 22 C -1.21122 -3.14135 -1.6906 0
M  V30 23 C -1.81398 -1.99471 -1.18746 0
M  V30 24 H 3.68021 2.3445 0.676686 0
M  V30 25 H 4.85144 2.45941 1.96343 0
M  V30 26 H 6.15651 0.865636 0.874586 0
M  V30 27 H 5.24277 -1.34934 1.37667 0
M  V30 28 H 3.74691 -0.49219 2.0343 0
M  V30 29 H 4.15689 -1.62956 -0.627272 0
M  V30 30 H 5.43882 0.198269 -1.34681 0
M  V30 31 H 3.99472 1.3258 -1.10442 0
M  V30 32 H 1.29045 1.67757 0.874245 0
M  V30 33 H -1.12061 1.97921 0.852277 0
M  V30 34 H -3.59593 -0.0943846 -2.02131 0
M  V30 35 H -5.87698 0.676351 -1.77501 0
M  V30 36 H -6.60435 1.78121 0.337781 0
M  V30 37 H -4.72906 3.10689 2.62495 0
M  V30 38 H -5.69195 1.66656 3.06701 0
M  V30 39 H 2.03432 -2.48197 -1.17157 0
M  V30 40 H 0.588511 -4.24274 -2.09861 0
M  V30 41 H -1.82841 -3.93145 -2.10242 0
M  V30 42 H -2.87454 -1.94729 -1.18381 0
M  V30 END ATOM
M  V30 BEGIN BOND
M  V30 1 1 1 2
M  V30 2 1 2 3
M  V30 3 1 3 4
M  V30 4 1 4 5
M  V30 5 1 4 6
M  V30 6 1 6 7
M  V30 7 2 7 8
M  V30 8 1 8 9
M  V30 9 2 9 10
M  V30 10 1 10 11
M  V30 11 2 11 12
M  V30 12 1 12 13
M  V30 13 2 13 14
M  V30 14 1 14 15
M  V30 15 1 15 16
M  V30 16 2 15 17
M  V30 17 1 10 18
M  V30 18 2 18 19
M  V30 19 1 19 20
M  V30 20 2 20 21
M  V30 21 1 21 22
M  V30 22 2 22 23
M  V30 23 1 5 2
M  V30 24 1 19 7
M  V30 25 1 17 11
M  V30 26 1 23 18
M  V30 27 1 1 24
M  V30 28 1 1 25
M  V30 29 1 2 26
M  V30 30 1 3 27
M  V30 31 1 3 28
M  V30 32 1 4 29
M  V30 33 1 5 30
M  V30 34 1 5 31
M  V30 35 1 8 32
M  V30 36 1 9 33
M  V30 37 1 12 34
M  V30 38 1 13 35
M  V30 39 1 14 36
M  V30 40 1 16 37
M  V30 41 1 16 38
M  V30 42 1 20 39
M  V30 43 1 21 40
M  V30 44 1 22 41
M  V30 45 1 23 42
M  V30 END BOND
M  V30 END CTAB
M  END
