
     RDKit          3D

  0  0  0  0  0  0  0  0  0  0999 V3000
M  V30 BEGIN CTAB
M  V30 COUNTS 39 40 0 0 0
M  V30 BEGIN ATOM
M  V30 1 N -6.00282 2.42088 0.620111 0
M  V30 2 C -6.14108 1.13374 -0.0410351 0
M  V30 3 C -4.86835 0.401919 -0.0955093 0
M  V30 4 C -3.71092 0.832808 0.520816 0
M  V30 5 C -2.55189 0.102052 0.422765 0
M  V30 6 C -2.50251 -1.07939 -0.289824 0
M  V30 7 C -3.65544 -1.50821 -0.902996 0
M  V30 8 C -4.81539 -0.777711 -0.805174 0
M  V30 9 C -1.25112 -1.85138 -0.405095 0
M  V30 10 O -1.36223 -3.01601 -0.853105 0
M  V30 11 N 0.00352912 -1.31265 -0.0360184 0
M  V30 12 C 1.17305 -2.17325 -0.202789 0
M  V30 13 C 2.41962 -1.3649 -0.186398 0
M  V30 14 C 2.93682 -0.816471 -1.33612 0
M  V30 15 C 4.08786 -0.0481557 -1.28263 0
M  V30 16 C 4.75238 0.192435 -0.0887982 0
M  V30 17 C 4.22445 -0.362542 1.04875 0
M  V30 18 C 3.07649 -1.12721 0.992477 0
M  V30 19 S 6.18612 1.18416 -0.0255054 0
M  V30 20 O 7.18151 0.608691 0.910675 0
M  V30 21 O 6.79266 1.14913 -1.41202 0
M  V30 22 N 5.81823 2.79732 0.434619 0
M  V30 23 H -6.86439 2.98224 0.404911 0
M  V30 24 H -5.20011 2.90945 0.145615 0
M  V30 25 H -6.49839 1.31399 -1.07601 0
M  V30 26 H -6.89379 0.489678 0.452665 0
M  V30 27 H -3.76934 1.764 1.07633 0
M  V30 28 H -1.67048 0.465805 0.913664 0
M  V30 29 H -3.62364 -2.42924 -1.46303 0
M  V30 30 H -5.71041 -1.15172 -1.30748 0
M  V30 31 H 0.0748406 -0.341251 0.331234 0
M  V30 32 H 1.1847 -2.82712 0.693732 0
M  V30 33 H 1.04665 -2.79591 -1.0943 0
M  V30 34 H 2.43995 -0.988925 -2.3065 0
M  V30 35 H 4.51065 0.390563 -2.18548 0
M  V30 36 H 4.7253 -0.187623 1.98437 0
M  V30 37 H 2.65745 -1.56362 1.9025 0
M  V30 38 H 5.18738 3.23837 -0.235459 0
M  V30 39 H 6.61266 3.34607 0.759271 0
M  V30 END ATOM
M  V30 BEGIN BOND
M  V30 1 1 1 2
M  V30 2 1 2 3
M  V30 3 2 3 4
M  V30 4 1 4 5
M  V30 5 2 5 6
M  V30 6 1 6 7
M  V30 7 2 7 8
M  V30 8 1 6 9
M  V30 9 2 9 10
M  V30 10 1 9 11
M  V30 11 1 11 12
M  V30 12 1 12 13
M  V30 13 2 13 14
M  V30 14 1 14 15
M  V30 15 2 15 16
M  V30 16 1 16 17
M  V30 17 2 17 18
M  V30 18 1 16 19
M  V30 19 2 19 20
M  V30 20 2 19 21
M  V30 21 1 19 22
M  V30 22 1 8 3
M  V30 23 1 18 13
M  V30 24 1 1 23
M  V30 25 1 1 24
M  V30 26 1 2 25
M  V30 27 1 2 26
M  V30 28 1 4 27
M  V30 29 1 5 28
M  V30 30 1 7 29
M  V30 31 1 8 30
M  V30 32 1 11 31
M  V30 33 1 12 32
M  V30 34 1 12 33
M  V30 35 1 14 34
M  V30 36 1 15 35
M  V30 37 1 17 36
M  V30 38 1 18 37
M  V30 39 1 22 38
M  V30 40 1 22 39
M  V30 END BOND
M  V30 END CTAB
M  END
