
     RDKit          3D

  0  0  0  0  0  0  0  0  0  0999 V3000
M  V30 BEGIN CTAB
M  V30 COUNTS 22 23 0 0 0
M  V30 BEGIN ATOM
M  V30 1 N -3.25652 0.955105 1.56172 0
M  V30 2 C -2.49171 0.365694 0.515033 0
M  V30 3 C -3.17819 -0.200275 -0.550724 0
M  V30 4 C -2.43069 -0.769507 -1.56121 0
M  V30 5 C -1.03917 -0.764433 -1.49248 0
M  V30 6 C -0.36359 -0.201855 -0.43339 0
M  V30 7 C -1.10515 0.365229 0.573411 0
M  V30 8 C 1.10351 -0.205967 -0.378214 0
M  V30 9 N 1.93015 -0.724944 -1.2933 0
M  V30 10 N 3.19487 -0.557455 -0.932507 0
M  V30 11 C 3.18874 0.0911912 0.255121 0
M  V30 12 N 1.89967 0.298795 0.580208 0
M  V30 13 N 4.28599 0.504042 1.05808 0
M  V30 14 F -0.296828 -1.3224 -2.48256 0
M  V30 15 H -2.88556 0.983603 2.53637 0
M  V30 16 H -4.19205 1.36953 1.39674 0
M  V30 17 H -4.25574 -0.171296 -0.543674 0
M  V30 18 H -2.94349 -1.22567 -2.41851 0
M  V30 19 H -0.583053 0.81698 1.42299 0
M  V30 20 H 4.05957 -0.863071 -1.45525 0
M  V30 21 H 5.015 1.17214 0.768128 0
M  V30 22 H 4.34425 0.0845648 2.02366 0
M  V30 END ATOM
M  V30 BEGIN BOND
M  V30 1 1 1 2
M  V30 2 2 2 3
M  V30 3 1 3 4
M  V30 4 2 4 5
M  V30 5 1 5 6
M  V30 6 2 6 7
M  V30 7 1 6 8
M  V30 8 2 8 9
M  V30 9 1 9 10
M  V30 10 1 10 11
M  V30 11 2 11 12
M  V30 12 1 11 13
M  V30 13 1 5 14
M  V30 14 1 7 2
M  V30 15 1 12 8
M  V30 16 1 1 15
M  V30 17 1 1 16
M  V30 18 1 3 17
M  V30 19 1 4 18
M  V30 20 1 7 19
M  V30 21 1 10 20
M  V30 22 1 13 21
M  V30 23 1 13 22
M  V30 END BOND
M  V30 END CTAB
M  END
