
     RDKit          3D

  0  0  0  0  0  0  0  0  0  0999 V3000
M  V30 BEGIN CTAB
M  V30 COUNTS 41 44 0 0 0
M  V30 BEGIN ATOM
M  V30 1 O 1.35132 0.984958 -2.27109 0
M  V30 2 C 1.82775 0.427328 -1.25656 0
M  V30 3 C 3.25147 0.645408 -0.985566 0
M  V30 4 C 4.02103 1.42795 -1.81282 0
M  V30 5 C 5.35526 1.59931 -1.5105 0
M  V30 6 C 5.88104 0.982442 -0.388715 0
M  V30 7 C 5.12761 0.207267 0.434433 0
M  V30 8 C 3.7782 0.0245877 0.142398 0
M  V30 9 C 2.94982 -0.807148 1.01732 0
M  V30 10 O 3.44519 -1.36149 2.03488 0
M  V30 11 C 1.53674 -1.00125 0.715613 0
M  V30 12 C 0.993876 -0.403161 -0.385741 0
M  V30 13 C -0.362633 -0.583399 -0.684308 0
M  V30 14 N -0.859619 0.0643848 -1.84409 0
M  V30 15 C -1.16632 -1.35511 0.113073 0
M  V30 16 C -0.589067 -1.95022 1.22424 0
M  V30 17 C 0.757395 -1.77157 1.52089 0
M  V30 18 N 1.33699 -2.38635 2.66184 0
M  V30 19 S -2.85598 -1.60619 -0.214391 0
M  V30 20 O -3.45255 -2.54522 0.789179 0
M  V30 21 O -3.02363 -2.22369 -1.59273 0
M  V30 22 C -3.7881 -0.132239 -0.218158 0
M  V30 23 C -4.12956 0.526198 -1.37548 0
M  V30 24 C -4.85375 1.69333 -1.3937 0
M  V30 25 C -5.27195 2.25435 -0.212497 0
M  V30 26 C -4.93762 1.60503 0.961426 0
M  V30 27 C -4.21457 0.439326 0.987694 0
M  V30 28 H 3.57473 1.89696 -2.68502 0
M  V30 29 H 5.97302 2.22239 -2.16709 0
M  V30 30 H 6.92536 1.12807 -0.168925 0
M  V30 31 H 5.51888 -0.290118 1.32538 0
M  V30 32 H -1.05546 1.10143 -1.75146 0
M  V30 33 H -1.01403 -0.469682 -2.72142 0
M  V30 34 H -1.13949 -2.57555 1.91203 0
M  V30 35 H 1.69772 -3.35134 2.63388 0
M  V30 36 H 1.40561 -1.86001 3.55624 0
M  V30 37 H -3.81762 0.0977919 -2.34135 0
M  V30 38 H -5.10863 2.19025 -2.30903 0
M  V30 39 H -5.84777 3.17557 -0.155462 0
M  V30 40 H -5.26885 2.04951 1.89238 0
M  V30 41 H -3.95179 -0.0701135 1.90051 0
M  V30 END ATOM
M  V30 BEGIN BOND
M  V30 1 2 1 2
M  V30 2 1 2 3
M  V30 3 2 3 4
M  V30 4 1 4 5
M  V30 5 2 5 6
M  V30 6 1 6 7
M  V30 7 2 7 8
M  V30 8 1 8 9
M  V30 9 2 9 10
M  V30 10 1 9 11
M  V30 11 2 11 12
M  V30 12 1 12 13
M  V30 13 1 13 14
M  V30 14 2 13 15
M  V30 15 1 15 16
M  V30 16 2 16 17
M  V30 17 1 17 18
M  V30 18 1 15 19
M  V30 19 2 19 20
M  V30 20 2 19 21
M  V30 21 1 19 22
M  V30 22 2 22 23
M  V30 23 1 23 24
M  V30 24 2 24 25
M  V30 25 1 25 26
M  V30 26 2 26 27
M  V30 27 1 12 2
M  V30 28 1 27 22
M  V30 29 1 8 3
M  V30 30 1 17 11
M  V30 31 1 4 28
M  V30 32 1 5 29
M  V30 33 1 6 30
M  V30 34 1 7 31
M  V30 35 1 14 32
M  V30 36 1 14 33
M  V30 37 1 16 34
M  V30 38 1 18 35
M  V30 39 1 18 36
M  V30 40 1 23 37
M  V30 41 1 24 38
M  V30 42 1 25 39
M  V30 43 1 26 40
M  V30 44 1 27 41
M  V30 END BOND
M  V30 END CTAB
M  END
