
     RDKit          3D

  0  0  0  0  0  0  0  0  0  0999 V3000
M  V30 BEGIN CTAB
M  V30 COUNTS 16 16 0 0 0
M  V30 BEGIN ATOM
M  V30 1 N 2.86278 0.0841717 0.125546 0
M  V30 2 C 1.43954 0.0574322 0.0647718 0
M  V30 3 C 0.674852 1.1668 0.347434 0
M  V30 4 C -0.714068 1.11277 0.280292 0
M  V30 5 Cl -1.67126 2.53299 0.643044 0
M  V30 6 C -1.37307 -0.0566309 -0.0724973 0
M  V30 7 N -2.77245 -0.0895913 -0.134109 0
M  V30 8 C -0.591262 -1.15289 -0.350836 0
M  V30 9 Cl -1.40828 -2.63533 -0.797417 0
M  V30 10 C 0.793489 -1.11211 -0.287569 0
M  V30 11 H 3.44908 -0.292902 -0.650657 0
M  V30 12 H 3.38275 0.482374 0.94969 0
M  V30 13 H 1.18707 2.06336 0.618147 0
M  V30 14 H -3.31667 0.137115 0.744199 0
M  V30 15 H -3.34369 -0.318818 -0.972083 0
M  V30 16 H 1.4012 -1.97874 -0.507955 0
M  V30 END ATOM
M  V30 BEGIN BOND
M  V30 1 1 1 2
M  V30 2 2 2 3
M  V30 3 1 3 4
M  V30 4 1 4 5
M  V30 5 2 4 6
M  V30 6 1 6 7
M  V30 7 1 6 8
M  V30 8 1 8 9
M  V30 9 2 8 10
M  V30 10 1 10 2
M  V30 11 1 1 11
M  V30 12 1 1 12
M  V30 13 1 3 13
M  V30 14 1 7 14
M  V30 15 1 7 15
M  V30 16 1 10 16
M  V30 END BOND
M  V30 END CTAB
M  END
