
     RDKit          3D

  0  0  0  0  0  0  0  0  0  0999 V3000
M  V30 BEGIN CTAB
M  V30 COUNTS 22 23 0 0 0
M  V30 BEGIN ATOM
M  V30 1 N -2.15811 -0.502178 -1.14594 0
M  V30 2 C -1.7612 0.419781 -0.122294 0 CFG=1
M  V30 3 C -1.52817 -0.330253 1.17314 0
M  V30 4 O -0.198216 -0.775113 1.01422 0
M  V30 5 C 0.44709 0.425398 0.738588 0 CFG=2
M  V30 6 C -0.379296 0.9496 -0.423595 0 CFG=1
M  V30 7 O 0.115945 0.409479 -1.57158 0
M  V30 8 C 1.25946 -0.295296 -1.30636 0
M  V30 9 C 1.77294 0.210708 0.0353408 0 CFG=2
M  V30 10 N 2.63059 -0.711329 0.691871 0
M  V30 11 H -2.89577 -0.177508 -1.74196 0
M  V30 12 H -2.14047 -1.45902 -0.89616 0
M  V30 13 H -2.50605 1.23017 0.00531748 0
M  V30 14 H -1.50068 0.376974 2.0303 0
M  V30 15 H -2.23099 -1.16095 1.30201 0
M  V30 16 H 0.50018 1.11289 1.57918 0
M  V30 17 H -0.355898 2.07356 -0.439736 0
M  V30 18 H 2.02087 -0.219293 -2.10202 0
M  V30 19 H 1.01553 -1.38408 -1.22326 0
M  V30 20 H 2.20509 1.20241 -0.146335 0
M  V30 21 H 2.2316 -1.23579 1.47492 0
M  V30 22 H 3.45554 -0.160168 1.07435 0
M  V30 END ATOM
M  V30 BEGIN BOND
M  V30 1 1 1 2
M  V30 2 1 2 3
M  V30 3 1 3 4
M  V30 4 1 4 5
M  V30 5 1 5 6
M  V30 6 1 6 7
M  V30 7 1 7 8
M  V30 8 1 8 9
M  V30 9 1 9 10
M  V30 10 1 6 2
M  V30 11 1 9 5
M  V30 12 1 1 11
M  V30 13 1 1 12
M  V30 14 1 2 13 CFG=1
M  V30 15 1 3 14
M  V30 16 1 3 15
M  V30 17 1 5 16 CFG=1
M  V30 18 1 6 17 CFG=3
M  V30 19 1 8 18
M  V30 20 1 8 19
M  V30 21 1 9 20 CFG=3
M  V30 22 1 10 21
M  V30 23 1 10 22
M  V30 END BOND
M  V30 END CTAB
M  END
