
     RDKit          3D

  0  0  0  0  0  0  0  0  0  0999 V3000
M  V30 BEGIN CTAB
M  V30 COUNTS 23 23 0 0 0
M  V30 BEGIN ATOM
M  V30 1 N 4.05675 0.924011 0.116687 0
M  V30 2 C 3.1671 -0.218616 0.281635 0
M  V30 3 C 1.73363 0.231205 0.104113 0
M  V30 4 N 0.872759 -0.908963 0.270474 0
M  V30 5 C -0.561834 -0.806423 0.160145 0
M  V30 6 C -1.14604 0.413242 -0.112645 0
M  V30 7 C -2.51297 0.55834 -0.226964 0
M  V30 8 N -3.08556 1.8104 -0.505307 0
M  V30 9 C -3.28798 -0.595222 -0.0527234 0
M  V30 10 C -2.67548 -1.79998 0.218971 0
M  V30 11 N -1.33995 -1.89197 0.321037 0
M  V30 12 Cl -3.72907 -3.19183 0.421714 0
M  V30 13 H 5.02975 0.531074 0.140566 0
M  V30 14 H 3.83618 1.35084 -0.795841 0
M  V30 15 H 3.4429 -1.01536 -0.435851 0
M  V30 16 H 3.26725 -0.606828 1.31849 0
M  V30 17 H 1.50967 1.04979 0.807722 0
M  V30 18 H 1.60317 0.687172 -0.921316 0
M  V30 19 H 1.25205 -1.84141 0.474867 0
M  V30 20 H -0.475882 1.25876 -0.2339 0
M  V30 21 H -3.03948 2.21065 -1.45379 0
M  V30 22 H -3.55811 2.33903 0.242964 0
M  V30 23 H -4.35887 -0.487916 -0.141047 0
M  V30 END ATOM
M  V30 BEGIN BOND
M  V30 1 1 1 2
M  V30 2 1 2 3
M  V30 3 1 3 4
M  V30 4 1 4 5
M  V30 5 2 5 6
M  V30 6 1 6 7
M  V30 7 1 7 8
M  V30 8 2 7 9
M  V30 9 1 9 10
M  V30 10 2 10 11
M  V30 11 1 10 12
M  V30 12 1 11 5
M  V30 13 1 1 13
M  V30 14 1 1 14
M  V30 15 1 2 15
M  V30 16 1 2 16
M  V30 17 1 3 17
M  V30 18 1 3 18
M  V30 19 1 4 19
M  V30 20 1 6 20
M  V30 21 1 8 21
M  V30 22 1 8 22
M  V30 23 1 9 23
M  V30 END BOND
M  V30 END CTAB
M  END
