
     RDKit          3D

  0  0  0  0  0  0  0  0  0  0999 V3000
M  V30 BEGIN CTAB
M  V30 COUNTS 37 39 0 0 0
M  V30 BEGIN ATOM
M  V30 1 O 1.17846 0.52135 -2.44279 0
M  V30 2 C 0.594253 0.0889011 -1.38497 0
M  V30 3 C -0.853124 -0.107802 -1.53205 0
M  V30 4 N -1.58579 -0.625887 -0.43857 0
M  V30 5 C -1.4664 -1.96729 -0.0239076 0
M  V30 6 N -1.28247 -2.3874 1.23497 0
M  V30 7 O -1.2521 -3.68295 1.26761 0
M  V30 8 N -1.40999 -4.14357 0.069845 0
M  V30 9 C -1.54922 -3.11674 -0.781432 0
M  V30 10 N -1.74635 -3.1388 -2.18483 0
M  V30 11 N -2.46686 0.186373 0.281458 0
M  V30 12 N -2.15559 0.898067 1.25791 0
M  V30 13 C -3.0567 1.72004 1.9835 0
M  V30 14 N -3.46463 1.67455 3.26389 0
M  V30 15 O -4.31474 2.64878 3.49527 0
M  V30 16 N -4.49728 3.35364 2.41505 0
M  V30 17 C -3.72021 2.79945 1.43684 0
M  V30 18 N -3.63799 3.27833 0.108063 0
M  V30 19 N 1.33639 -0.149775 -0.227276 0
M  V30 20 C 2.72173 0.0336541 -0.0579468 0
M  V30 21 C 3.4852 0.865908 -0.819044 0
M  V30 22 C 4.87428 0.985379 -0.618909 0
M  V30 23 C 5.48329 0.257181 0.357036 0
M  V30 24 C 4.72473 -0.589987 1.13746 0
M  V30 25 C 3.37591 -0.705235 0.941642 0
M  V30 26 H -1.07226 -0.678887 -2.49912 0
M  V30 27 H -1.28944 0.909534 -1.78701 0
M  V30 28 H -2.63441 -2.84449 -2.62411 0
M  V30 29 H -0.964016 -3.46376 -2.77956 0
M  V30 30 H -3.49506 2.6174 -0.687374 0
M  V30 31 H -3.71517 4.29127 -0.127638 0
M  V30 32 H 0.819432 -0.491415 0.64993 0
M  V30 33 H 3.05154 1.47658 -1.59202 0
M  V30 34 H 5.45847 1.6516 -1.23565 0
M  V30 35 H 6.5456 0.351767 0.506444 0
M  V30 36 H 5.21817 -1.15662 1.90208 0
M  V30 37 H 2.76235 -1.35914 1.5352 0
M  V30 END ATOM
M  V30 BEGIN BOND
M  V30 1 2 1 2
M  V30 2 1 2 3
M  V30 3 1 3 4
M  V30 4 1 4 5
M  V30 5 2 5 6
M  V30 6 1 6 7
M  V30 7 1 7 8
M  V30 8 2 8 9
M  V30 9 1 9 10
M  V30 10 1 4 11
M  V30 11 2 11 12
M  V30 12 1 12 13
M  V30 13 2 13 14
M  V30 14 1 14 15
M  V30 15 1 15 16
M  V30 16 2 16 17
M  V30 17 1 17 18
M  V30 18 1 2 19
M  V30 19 1 19 20
M  V30 20 2 20 21
M  V30 21 1 21 22
M  V30 22 2 22 23
M  V30 23 1 23 24
M  V30 24 2 24 25
M  V30 25 1 9 5
M  V30 26 1 17 13
M  V30 27 1 25 20
M  V30 28 1 3 26
M  V30 29 1 3 27
M  V30 30 1 10 28
M  V30 31 1 10 29
M  V30 32 1 18 30
M  V30 33 1 18 31
M  V30 34 1 19 32
M  V30 35 1 21 33
M  V30 36 1 22 34
M  V30 37 1 23 35
M  V30 38 1 24 36
M  V30 39 1 25 37
M  V30 END BOND
M  V30 END CTAB
M  END
