
     RDKit          3D

  0  0  0  0  0  0  0  0  0  0999 V3000
M  V30 BEGIN CTAB
M  V30 COUNTS 18 17 0 0 0
M  V30 BEGIN ATOM
M  V30 1 C 1.94432 1.21088 0.208777 0
M  V30 2 C 0.754452 0.431911 -0.311783 0
M  V30 3 C -0.173514 0.166031 0.847559 0
M  V30 4 C -1.36708 -0.583199 0.472829 0
M  V30 5 N -1.62709 -1.71761 0.997996 0
M  V30 6 N -2.26674 -0.0708097 -0.482617 0
M  V30 7 N 1.27826 -0.79111 -0.877906 0
M  V30 8 H 2.89546 0.874163 -0.247729 0
M  V30 9 H 1.7469 2.28035 0.0600813 0
M  V30 10 H 2.03379 1.0474 1.30244 0
M  V30 11 H 0.208433 0.99514 -1.10359 0
M  V30 12 H -0.411258 1.17622 1.29064 0
M  V30 13 H 0.43827 -0.338902 1.63074 0
M  V30 14 H -2.43814 -2.312 0.796639 0
M  V30 15 H -2.21988 -0.267822 -1.50884 0
M  V30 16 H -3.03765 0.557817 -0.103739 0
M  V30 17 H 0.711334 -1.17316 -1.64886 0
M  V30 18 H 1.53013 -1.4853 -0.139065 0
M  V30 END ATOM
M  V30 BEGIN BOND
M  V30 1 1 1 2
M  V30 2 1 2 3
M  V30 3 1 3 4
M  V30 4 2 4 5 CFG=2
M  V30 5 1 4 6
M  V30 6 1 2 7
M  V30 7 1 1 8
M  V30 8 1 1 9
M  V30 9 1 1 10
M  V30 10 1 2 11
M  V30 11 1 3 12
M  V30 12 1 3 13
M  V30 13 1 5 14
M  V30 14 1 6 15
M  V30 15 1 6 16
M  V30 16 1 7 17
M  V30 17 1 7 18
M  V30 END BOND
M  V30 END CTAB
M  END
