
     RDKit          3D

  0  0  0  0  0  0  0  0  0  0999 V3000
M  V30 BEGIN CTAB
M  V30 COUNTS 59 62 0 0 0
M  V30 BEGIN ATOM
M  V30 1 N -8.71479 -3.20412 1.51642 0
M  V30 2 C -7.89609 -3.30364 0.33042 0
M  V30 3 N -7.90087 -4.40265 -0.275056 0
M  V30 4 C -7.13095 -2.14509 -0.0809401 0
M  V30 5 C -6.33821 -2.19916 -1.20579 0
M  V30 6 C -5.60345 -1.12413 -1.621 0
M  V30 7 C -5.63347 0.0865356 -0.904442 0
M  V30 8 O -4.87446 1.11311 -1.38386 0
M  V30 9 C -4.66264 2.37869 -0.931732 0
M  V30 10 C -3.99999 2.57025 0.386218 0
M  V30 11 C -2.61085 1.96225 0.437997 0
M  V30 12 C -1.69027 2.54813 -0.575047 0
M  V30 13 O -0.43223 2.04658 -0.581121 0
M  V30 14 C 0.614663 2.01146 0.281838 0
M  V30 15 C 1.78656 1.33952 -0.114055 0
M  V30 16 C 2.90231 1.24314 0.672825 0
M  V30 17 C 2.84186 1.84645 1.91128 0
M  V30 18 C 1.70938 2.50962 2.32256 0
M  V30 19 C 0.575736 2.60447 1.51545 0
M  V30 20 C 4.1105 0.53916 0.240632 0
M  V30 21 C 4.2744 -0.0953981 -0.972649 0
M  V30 22 C 5.54774 -0.628627 -0.981098 0
M  V30 23 C 6.28713 -1.34996 -1.86787 0
M  V30 24 C 7.57051 -1.72514 -1.52883 0
M  V30 25 C 8.16316 -1.41017 -0.326521 0
M  V30 26 C 7.39797 -0.67613 0.564485 0
M  V30 27 C 6.09898 -0.289006 0.237146 0
M  V30 28 O 5.20827 0.394878 0.908968 0
M  V30 29 C 9.52325 -1.82968 -0.0141599 0
M  V30 30 N 10.1641 -1.52615 1.20656 0
M  V30 31 N 10.1705 -2.51007 -0.895308 0
M  V30 32 C -6.43351 0.111346 0.212721 0
M  V30 33 C -7.16861 -0.973993 0.623326 0
M  V30 34 H -8.34773 -2.81562 2.40151 0
M  V30 35 H -9.69852 -3.54761 1.42665 0
M  V30 36 H -7.3991 -4.67067 -1.11724 0
M  V30 37 H -6.30213 -3.14017 -1.78034 0
M  V30 38 H -4.99763 -1.1944 -2.49679 0
M  V30 39 H -5.68601 2.87156 -0.826634 0
M  V30 40 H -4.18857 2.99756 -1.7414 0
M  V30 41 H -4.57453 2.1767 1.20854 0
M  V30 42 H -3.88782 3.66982 0.538874 0
M  V30 43 H -2.66728 0.843809 0.310294 0
M  V30 44 H -2.24329 2.12024 1.45254 0
M  V30 45 H -1.71034 3.68087 -0.547359 0
M  V30 46 H -2.16213 2.30308 -1.58542 0
M  V30 47 H 1.80736 0.867617 -1.1063 0
M  V30 48 H 3.72745 1.7785 2.55493 0
M  V30 49 H 1.67109 2.97658 3.28867 0
M  V30 50 H -0.280883 3.16122 1.90337 0
M  V30 51 H 3.54577 -0.171869 -1.78518 0
M  V30 52 H 5.83213 -1.60626 -2.82196 0
M  V30 53 H 8.16475 -2.30484 -2.24147 0
M  V30 54 H 7.84826 -0.420237 1.51352 0
M  V30 55 H 10.3733 -2.22587 1.95394 0
M  V30 56 H 10.458 -0.542918 1.39793 0
M  V30 57 H 11.1431 -2.85128 -0.760224 0
M  V30 58 H -6.48528 1.04484 0.771905 0
M  V30 59 H -7.7965 -0.913129 1.52429 0
M  V30 END ATOM
M  V30 BEGIN BOND
M  V30 1 1 1 2
M  V30 2 2 2 3 CFG=2
M  V30 3 1 2 4
M  V30 4 2 4 5
M  V30 5 1 5 6
M  V30 6 2 6 7
M  V30 7 1 7 8
M  V30 8 1 8 9
M  V30 9 1 9 10
M  V30 10 1 10 11
M  V30 11 1 11 12
M  V30 12 1 12 13
M  V30 13 1 13 14
M  V30 14 2 14 15
M  V30 15 1 15 16
M  V30 16 2 16 17
M  V30 17 1 17 18
M  V30 18 2 18 19
M  V30 19 1 16 20
M  V30 20 2 20 21
M  V30 21 1 21 22
M  V30 22 2 22 23
M  V30 23 1 23 24
M  V30 24 2 24 25
M  V30 25 1 25 26
M  V30 26 2 26 27
M  V30 27 1 27 28
M  V30 28 1 25 29
M  V30 29 1 29 30
M  V30 30 2 29 31 CFG=2
M  V30 31 1 7 32
M  V30 32 2 32 33
M  V30 33 1 33 4
M  V30 34 1 19 14
M  V30 35 1 28 20
M  V30 36 1 27 22
M  V30 37 1 1 34
M  V30 38 1 1 35
M  V30 39 1 3 36
M  V30 40 1 5 37
M  V30 41 1 6 38
M  V30 42 1 9 39
M  V30 43 1 9 40
M  V30 44 1 10 41
M  V30 45 1 10 42
M  V30 46 1 11 43
M  V30 47 1 11 44
M  V30 48 1 12 45
M  V30 49 1 12 46
M  V30 50 1 15 47
M  V30 51 1 17 48
M  V30 52 1 18 49
M  V30 53 1 19 50
M  V30 54 1 21 51
M  V30 55 1 23 52
M  V30 56 1 24 53
M  V30 57 1 26 54
M  V30 58 1 30 55
M  V30 59 1 30 56
M  V30 60 1 31 57
M  V30 61 1 32 58
M  V30 62 1 33 59
M  V30 END BOND
M  V30 END CTAB
M  END
