
     RDKit          3D

  0  0  0  0  0  0  0  0  0  0999 V3000
M  V30 BEGIN CTAB
M  V30 COUNTS 55 60 0 0 0
M  V30 BEGIN ATOM
M  V30 1 N -8.93303 -0.609964 -3.45563 0
M  V30 2 C -8.06749 -0.162485 -2.42749 0
M  V30 3 N -6.75705 -0.492407 -2.23265 0
M  V30 4 C -6.29661 0.143803 -1.14324 0
M  V30 5 C -7.34203 0.880672 -0.657146 0
M  V30 6 O -8.36554 0.665884 -1.44992 0
M  V30 7 C -7.1453 1.64544 0.476201 0
M  V30 8 C -5.89378 1.65526 1.10626 0
M  V30 9 C -4.84106 0.923636 0.633321 0
M  V30 10 C -5.06082 0.17286 -0.495529 0
M  V30 11 C -3.53888 0.928637 1.31946 0
M  V30 12 N -2.56529 0.205561 0.750832 0
M  V30 13 C -1.36006 0.134446 1.29158 0
M  V30 14 C -0.419256 -0.647259 0.625796 0
M  V30 15 C 0.844816 -0.746935 1.16347 0
M  V30 16 C 1.11142 -0.0658375 2.33475 0
M  V30 17 N 0.185904 0.695022 2.97733 0
M  V30 18 C -1.04489 0.794908 2.45864 0
M  V30 19 C -2.04471 1.54092 3.04653 0
M  V30 20 C -3.29911 1.60954 2.47457 0
M  V30 21 N 1.83435 -1.51115 0.503363 0
M  V30 22 C 3.03204 -1.95036 1.19966 0
M  V30 23 C 4.14398 -1.03909 0.627827 0
M  V30 24 N 4.11996 -1.0166 -0.807117 0
M  V30 25 C 3.09118 -1.71696 -1.55902 0
M  V30 26 C 1.77525 -1.89269 -0.896848 0
M  V30 27 C 5.11068 -0.30353 -1.52154 0
M  V30 28 O 5.00489 -0.360759 -2.80386 0
M  V30 29 C 6.21035 0.472819 -0.958902 0
M  V30 30 N 6.33933 0.569713 0.462018 0
M  V30 31 C 7.48511 0.402886 -1.78999 0
M  V30 32 C 6.68723 1.68995 -1.69704 0
M  V30 33 H -9.15923 -1.61554 -3.5678 0
M  V30 34 H -9.35195 0.0703194 -4.11376 0
M  V30 35 H -7.93971 2.22971 0.876264 0
M  V30 36 H -5.75665 2.26352 1.99377 0
M  V30 37 H -4.26001 -0.418827 -0.901665 0
M  V30 38 H -0.673388 -1.16443 -0.288782 0
M  V30 39 H 2.12757 -0.153133 2.74562 0
M  V30 40 H -1.84846 2.07752 3.96499 0
M  V30 41 H -4.08735 2.20913 2.96109 0
M  V30 42 H 3.24185 -2.99555 0.853185 0
M  V30 43 H 3.02 -1.8515 2.269 0
M  V30 44 H 3.98522 -0.0456525 1.08431 0
M  V30 45 H 5.07015 -1.49072 1.06636 0
M  V30 46 H 2.95305 -1.17038 -2.54826 0
M  V30 47 H 3.47078 -2.73489 -1.87589 0
M  V30 48 H 1.46221 -2.97296 -0.94719 0
M  V30 49 H 1.01359 -1.25265 -1.39894 0
M  V30 50 H 7.20593 0.100882 0.76763 0
M  V30 51 H 6.27703 1.54225 0.827314 0
M  V30 52 H 8.45656 0.343327 -1.26656 0
M  V30 53 H 7.45502 -0.0906492 -2.76018 0
M  V30 54 H 7.21541 2.48317 -1.14193 0
M  V30 55 H 6.12081 2.02112 -2.59534 0
M  V30 END ATOM
M  V30 BEGIN BOND
M  V30 1 1 1 2
M  V30 2 2 2 3
M  V30 3 1 3 4
M  V30 4 2 4 5
M  V30 5 1 5 6
M  V30 6 1 5 7
M  V30 7 2 7 8
M  V30 8 1 8 9
M  V30 9 2 9 10
M  V30 10 1 9 11
M  V30 11 2 11 12
M  V30 12 1 12 13
M  V30 13 2 13 14
M  V30 14 1 14 15
M  V30 15 2 15 16
M  V30 16 1 16 17
M  V30 17 2 17 18
M  V30 18 1 18 19
M  V30 19 2 19 20
M  V30 20 1 15 21
M  V30 21 1 21 22
M  V30 22 1 22 23
M  V30 23 1 23 24
M  V30 24 1 24 25
M  V30 25 1 25 26
M  V30 26 1 24 27
M  V30 27 2 27 28
M  V30 28 1 27 29
M  V30 29 1 29 30
M  V30 30 1 29 31
M  V30 31 1 31 32
M  V30 32 1 6 2
M  V30 33 1 20 11
M  V30 34 1 26 21
M  V30 35 1 32 29
M  V30 36 1 10 4
M  V30 37 1 18 13
M  V30 38 1 1 33
M  V30 39 1 1 34
M  V30 40 1 7 35
M  V30 41 1 8 36
M  V30 42 1 10 37
M  V30 43 1 14 38
M  V30 44 1 16 39
M  V30 45 1 19 40
M  V30 46 1 20 41
M  V30 47 1 22 42
M  V30 48 1 22 43
M  V30 49 1 23 44
M  V30 50 1 23 45
M  V30 51 1 25 46
M  V30 52 1 25 47
M  V30 53 1 26 48
M  V30 54 1 26 49
M  V30 55 1 30 50
M  V30 56 1 30 51
M  V30 57 1 31 52
M  V30 58 1 31 53
M  V30 59 1 32 54
M  V30 60 1 32 55
M  V30 END BOND
M  V30 END CTAB
M  END
