
     RDKit          3D

  0  0  0  0  0  0  0  0  0  0999 V3000
M  V30 BEGIN CTAB
M  V30 COUNTS 32 34 0 0 0
M  V30 BEGIN ATOM
M  V30 1 O -1.66418 -0.913721 2.0228 0
M  V30 2 N -2.47359 0.100175 1.62469 0
M  V30 3 C -2.53007 0.43006 0.391476 0
M  V30 4 C -1.6992 -0.311304 -0.591833 0
M  V30 5 C -2.25983 -0.453096 -1.95993 0
M  V30 6 C -2.44108 -1.60786 -1.04919 0
M  V30 7 C -0.280978 -0.60389 -0.294513 0
M  V30 8 N 0.122384 -1.91051 -0.163127 0
M  V30 9 C 1.37067 -2.26294 0.156099 0
M  V30 10 C 2.34305 -1.32246 0.375673 0
M  V30 11 C 2.00537 0.0123651 0.258434 0
M  V30 12 C 0.705649 0.334329 -0.0733612 0
M  V30 13 C 0.385314 1.67217 -0.206361 0
M  V30 14 C 1.31881 2.68979 -0.0154676 0
M  V30 15 C 2.60657 2.32952 0.317337 0
M  V30 16 C 2.93376 1.0001 0.449676 0
M  V30 17 N 3.66922 -1.68029 0.715601 0
M  V30 18 N -3.38194 1.4873 0.00427733 0
M  V30 19 H -0.958461 -0.679279 2.73848 0
M  V30 20 H -1.58775 -0.515134 -2.84146 0
M  V30 21 H -3.18032 0.125321 -2.17843 0
M  V30 22 H -3.39264 -1.84625 -0.577911 0
M  V30 23 H -1.82745 -2.49969 -1.26021 0
M  V30 24 H 1.63017 -3.30354 0.245622 0
M  V30 25 H -0.60776 1.96837 -0.487063 0
M  V30 26 H 0.997835 3.72174 -0.135531 0
M  V30 27 H 3.34397 3.12462 0.469249 0
M  V30 28 H 3.94022 0.696738 0.710175 0
M  V30 29 H 4.42357 -1.41286 0.0369344 0
M  V30 30 H 3.87297 -2.19353 1.61635 0
M  V30 31 H -2.95894 2.40373 -0.259324 0
M  V30 32 H -4.42537 1.42002 -0.0391537 0
M  V30 END ATOM
M  V30 BEGIN BOND
M  V30 1 1 1 2
M  V30 2 2 2 3
M  V30 3 1 3 4
M  V30 4 1 4 5
M  V30 5 1 5 6
M  V30 6 1 4 7
M  V30 7 2 7 8
M  V30 8 1 8 9
M  V30 9 2 9 10
M  V30 10 1 10 11
M  V30 11 2 11 12
M  V30 12 1 12 13
M  V30 13 2 13 14
M  V30 14 1 14 15
M  V30 15 2 15 16
M  V30 16 1 10 17
M  V30 17 1 3 18
M  V30 18 1 6 4
M  V30 19 1 12 7
M  V30 20 1 16 11
M  V30 21 1 1 19
M  V30 22 1 5 20
M  V30 23 1 5 21
M  V30 24 1 6 22
M  V30 25 1 6 23
M  V30 26 1 9 24
M  V30 27 1 13 25
M  V30 28 1 14 26
M  V30 29 1 15 27
M  V30 30 1 16 28
M  V30 31 1 17 29
M  V30 32 1 17 30
M  V30 33 1 18 31
M  V30 34 1 18 32
M  V30 END BOND
M  V30 END CTAB
M  END
