
     RDKit          3D

  0  0  0  0  0  0  0  0  0  0999 V3000
M  V30 BEGIN CTAB
M  V30 COUNTS 33 35 0 0 0
M  V30 BEGIN ATOM
M  V30 1 N -5.30439 1.21877 0.81394 0
M  V30 2 C -5.02472 0.812143 -0.565049 0
M  V30 3 C -3.9072 -0.191109 -0.567793 0
M  V30 4 N -4.20179 -1.49812 -0.469342 0
M  V30 5 C -3.187 -2.38554 -0.473616 0
M  V30 6 C -1.89756 -1.94999 -0.576146 0
M  V30 7 C -1.55125 -0.630945 -0.678059 0
M  V30 8 C -2.62763 0.270834 -0.671227 0
M  V30 9 C -0.183931 -0.133877 -0.78065 0
M  V30 10 O 0.0724898 0.537976 -1.83091 0
M  V30 11 N 0.808407 -0.371754 0.212539 0
M  V30 12 C 0.688123 -0.991525 1.39553 0
M  V30 13 O -0.363838 -1.48108 1.8907 0
M  V30 14 O 1.88601 -0.999637 1.96813 0
M  V30 15 C 2.75369 -0.409858 1.19421 0
M  V30 16 C 2.1148 0.0223663 0.0341294 0
M  V30 17 C 2.82226 0.676874 -0.943745 0
M  V30 18 C 4.1866 0.917331 -0.789248 0
M  V30 19 C 4.84902 0.503655 0.344826 0
M  V30 20 C 4.10441 -0.148527 1.30068 0
M  V30 21 N 6.24621 0.746516 0.509912 0
M  V30 22 H -5.22002 0.414537 1.47558 0
M  V30 23 H -4.76724 2.0563 1.09586 0
M  V30 24 H -5.92744 0.338465 -1.00636 0
M  V30 25 H -4.69651 1.68205 -1.16068 0
M  V30 26 H -3.43791 -3.44264 -0.393216 0
M  V30 27 H -1.11188 -2.71757 -0.581721 0
M  V30 28 H -2.3616 1.32508 -0.75219 0
M  V30 29 H 2.35133 1.0089 -1.82722 0
M  V30 30 H 4.76042 1.43109 -1.54815 0
M  V30 31 H 4.60427 -0.481259 2.19754 0
M  V30 32 H 6.97674 0.247109 -0.0209628 0
M  V30 33 H 6.54711 1.46586 1.20271 0
M  V30 END ATOM
M  V30 BEGIN BOND
M  V30 1 1 1 2
M  V30 2 1 2 3
M  V30 3 2 3 4
M  V30 4 1 4 5
M  V30 5 2 5 6
M  V30 6 1 6 7
M  V30 7 2 7 8
M  V30 8 1 7 9
M  V30 9 2 9 10
M  V30 10 1 9 11
M  V30 11 1 11 12
M  V30 12 2 12 13
M  V30 13 1 12 14
M  V30 14 1 14 15
M  V30 15 2 15 16
M  V30 16 1 16 17
M  V30 17 2 17 18
M  V30 18 1 18 19
M  V30 19 2 19 20
M  V30 20 1 19 21
M  V30 21 1 8 3
M  V30 22 1 16 11
M  V30 23 1 20 15
M  V30 24 1 1 22
M  V30 25 1 1 23
M  V30 26 1 2 24
M  V30 27 1 2 25
M  V30 28 1 5 26
M  V30 29 1 6 27
M  V30 30 1 8 28
M  V30 31 1 17 29
M  V30 32 1 18 30
M  V30 33 1 20 31
M  V30 34 1 21 32
M  V30 35 1 21 33
M  V30 END BOND
M  V30 END CTAB
M  END
