
     RDKit          3D

  0  0  0  0  0  0  0  0  0  0999 V3000
M  V30 BEGIN CTAB
M  V30 COUNTS 35 35 0 0 0
M  V30 BEGIN ATOM
M  V30 1 C -4.19086 2.76117 0.387324 0
M  V30 2 C -2.82663 2.33749 -0.179645 0
M  V30 3 C -3.03206 1.19926 -1.12774 0
M  V30 4 C -3.65301 0.00818379 -0.470468 0
M  V30 5 N -1.82101 0.801019 -1.83971 0
M  V30 6 C -0.669369 0.292085 -1.20105 0
M  V30 7 N -0.624702 0.127194 0.157811 0
M  V30 8 C 0.465484 -0.361672 0.772058 0
M  V30 9 N 0.55357 -0.548365 2.17629 0
M  V30 10 C 1.55136 -0.697778 -0.00470982 0
M  V30 11 N 1.51469 -0.53594 -1.36396 0
M  V30 12 C 0.422771 -0.0470451 -1.97233 0
M  V30 13 Cl 0.366221 0.165375 -3.72599 0
M  V30 14 C 2.7396 -1.22747 0.635431 0
M  V30 15 O 2.75396 -1.36803 1.87744 0
M  V30 16 N 3.90056 -1.59695 -0.101085 0
M  V30 17 C 5.0638 -2.11337 0.50592 0
M  V30 18 N 5.17943 -2.3104 1.9065 0
M  V30 19 N 6.06966 -2.42232 -0.234993 0
M  V30 20 H -4.08413 3.27542 1.34821 0
M  V30 21 H -4.6525 3.3859 -0.407443 0
M  V30 22 H -4.86278 1.8612 0.470165 0
M  V30 23 H -2.41839 3.22846 -0.671781 0
M  V30 24 H -2.20684 2.06147 0.693142 0
M  V30 25 H -3.79722 1.55593 -1.88089 0
M  V30 26 H -3.10774 -0.937185 -0.653882 0
M  V30 27 H -4.70582 -0.171119 -0.752475 0
M  V30 28 H -3.65647 0.210935 0.634784 0
M  V30 29 H -1.79067 0.89406 -2.89922 0
M  V30 30 H 0.932929 0.182314 2.82609 0
M  V30 31 H 0.237765 -1.44052 2.63368 0
M  V30 32 H 3.85773 -1.46822 -1.13235 0
M  V30 33 H 5.39683 -1.53092 2.55629 0
M  V30 34 H 5.04373 -3.26855 2.31425 0
M  V30 35 H 6.05011 -2.30162 -1.27567 0
M  V30 END ATOM
M  V30 BEGIN BOND
M  V30 1 1 1 2
M  V30 2 1 2 3
M  V30 3 1 3 4
M  V30 4 1 3 5
M  V30 5 1 5 6
M  V30 6 2 6 7
M  V30 7 1 7 8
M  V30 8 1 8 9
M  V30 9 2 8 10
M  V30 10 1 10 11
M  V30 11 2 11 12
M  V30 12 1 12 13
M  V30 13 1 10 14
M  V30 14 2 14 15
M  V30 15 1 14 16
M  V30 16 1 16 17
M  V30 17 1 17 18
M  V30 18 2 17 19 CFG=2
M  V30 19 1 12 6
M  V30 20 1 1 20
M  V30 21 1 1 21
M  V30 22 1 1 22
M  V30 23 1 2 23
M  V30 24 1 2 24
M  V30 25 1 3 25
M  V30 26 1 4 26
M  V30 27 1 4 27
M  V30 28 1 4 28
M  V30 29 1 5 29
M  V30 30 1 9 30
M  V30 31 1 9 31
M  V30 32 1 16 32
M  V30 33 1 18 33
M  V30 34 1 18 34
M  V30 35 1 19 35
M  V30 END BOND
M  V30 END CTAB
M  END
