
     RDKit          3D

  0  0  0  0  0  0  0  0  0  0999 V3000
M  V30 BEGIN CTAB
M  V30 COUNTS 26 26 0 0 0
M  V30 BEGIN ATOM
M  V30 1 N 4.73878 0.57665 0.552291 0
M  V30 2 C 3.39351 0.358556 0.144896 0
M  V30 3 N 2.834 1.10652 -0.839097 0
M  V30 4 C 1.57262 0.918712 -1.23562 0
M  V30 5 C 0.767228 -0.0748389 -0.639471 0
M  V30 6 C 1.32485 -0.823097 0.340484 0
M  V30 7 N 2.61932 -0.580406 0.700504 0
M  V30 8 N 0.601977 -1.88207 0.942088 0
M  V30 9 S -0.87443 -0.203297 -1.15205 0
M  V30 10 O -1.27043 -1.66103 -1.34177 0
M  V30 11 O -1.02695 0.455687 -2.53245 0
M  V30 12 C -1.9969 0.525467 -0.0181437 0
M  V30 13 C -2.10199 -0.168483 1.27572 0
M  V30 14 C -3.39485 0.646445 -0.689047 0
M  V30 15 H 5.468 0.736905 -0.154189 0
M  V30 16 H 4.96738 0.571448 1.55374 0
M  V30 17 H 1.10991 1.51064 -2.02377 0
M  V30 18 H 0.192153 -2.69423 0.432126 0
M  V30 19 H 0.459596 -1.86314 1.97487 0
M  V30 20 H -1.67941 1.60501 0.13718 0
M  V30 21 H -1.27704 0.105245 1.96898 0
M  V30 22 H -2.2414 -1.25735 1.12422 0
M  V30 23 H -3.08423 0.115857 1.81337 0
M  V30 24 H -3.91265 -0.293366 -0.405164 0
M  V30 25 H -3.91003 1.47689 -0.164511 0
M  V30 26 H -3.27901 0.791278 -1.76519 0
M  V30 END ATOM
M  V30 BEGIN BOND
M  V30 1 1 1 2
M  V30 2 2 2 3
M  V30 3 1 3 4
M  V30 4 2 4 5
M  V30 5 1 5 6
M  V30 6 2 6 7
M  V30 7 1 6 8
M  V30 8 1 5 9
M  V30 9 2 9 10
M  V30 10 2 9 11
M  V30 11 1 9 12
M  V30 12 1 12 13
M  V30 13 1 12 14
M  V30 14 1 7 2
M  V30 15 1 1 15
M  V30 16 1 1 16
M  V30 17 1 4 17
M  V30 18 1 8 18
M  V30 19 1 8 19
M  V30 20 1 12 20
M  V30 21 1 13 21
M  V30 22 1 13 22
M  V30 23 1 13 23
M  V30 24 1 14 24
M  V30 25 1 14 25
M  V30 26 1 14 26
M  V30 END BOND
M  V30 END CTAB
M  END
