
     RDKit          3D

  0  0  0  0  0  0  0  0  0  0999 V3000
M  V30 BEGIN CTAB
M  V30 COUNTS 34 34 0 0 0
M  V30 BEGIN ATOM
M  V30 1 C -2.79907 1.02202 -0.560987 0
M  V30 2 C -3.56417 -0.144093 0.0124867 0
M  V30 3 C -2.59161 -0.965796 0.895522 0 CFG=1
M  V30 4 C -1.52121 -1.39732 -0.00437371 0
M  V30 5 O -1.99159 -1.95196 -1.08902 0
M  V30 6 N -0.137692 -1.31074 0.112187 0
M  V30 7 C 0.663955 -0.80346 1.17072 0
M  V30 8 C 1.32208 0.492451 0.73032 0
M  V30 9 N 1.66171 0.463634 -0.67619 0
M  V30 10 C 1.87973 -0.877731 -1.17222 0
M  V30 11 C 0.686948 -1.78928 -1.03335 0
M  V30 12 S 3.16008 1.30799 -0.844302 0
M  V30 13 O 4.26091 0.63511 -0.0463084 0
M  V30 14 O 3.60934 1.2854 -2.29457 0
M  V30 15 N 3.05464 2.93511 -0.361287 0
M  V30 16 N -2.17154 -0.191271 2.00125 0
M  V30 17 H -3.07071 1.18521 -1.6245 0
M  V30 18 H -2.95232 1.89485 0.0787015 0
M  V30 19 H -1.71992 0.774702 -0.545178 0
M  V30 20 H -4.39573 0.246263 0.611468 0
M  V30 21 H -3.94493 -0.751485 -0.819244 0
M  V30 22 H -3.22011 -1.82995 1.24704 0
M  V30 23 H 0.241336 -0.690656 2.15542 0
M  V30 24 H 1.51792 -1.55617 1.3277 0
M  V30 25 H 0.625966 1.32815 0.891241 0
M  V30 26 H 2.24196 0.631138 1.32921 0
M  V30 27 H 2.09628 -0.783299 -2.25654 0
M  V30 28 H 2.78814 -1.27931 -0.666434 0
M  V30 29 H 1.04087 -2.78905 -0.735044 0
M  V30 30 H 0.0427529 -1.82115 -1.90737 0
M  V30 31 H 3.3207 3.61378 -1.10848 0
M  V30 32 H 3.55162 3.14897 0.538249 0
M  V30 33 H -2.0161 -0.684985 2.86496 0
M  V30 34 H -1.67026 0.65293 1.77893 0
M  V30 END ATOM
M  V30 BEGIN BOND
M  V30 1 1 1 2
M  V30 2 1 2 3
M  V30 3 1 3 4
M  V30 4 2 4 5
M  V30 5 1 4 6
M  V30 6 1 6 7
M  V30 7 1 7 8
M  V30 8 1 8 9
M  V30 9 1 9 10
M  V30 10 1 10 11
M  V30 11 1 9 12
M  V30 12 2 12 13
M  V30 13 2 12 14
M  V30 14 1 12 15
M  V30 15 1 3 16
M  V30 16 1 11 6
M  V30 17 1 1 17
M  V30 18 1 1 18
M  V30 19 1 1 19
M  V30 20 1 2 20
M  V30 21 1 2 21
M  V30 22 1 3 22 CFG=1
M  V30 23 1 7 23
M  V30 24 1 7 24
M  V30 25 1 8 25
M  V30 26 1 8 26
M  V30 27 1 10 27
M  V30 28 1 10 28
M  V30 29 1 11 29
M  V30 30 1 11 30
M  V30 31 1 15 31
M  V30 32 1 15 32
M  V30 33 1 16 33
M  V30 34 1 16 34
M  V30 END BOND
M  V30 END CTAB
M  END
