
     RDKit          3D

  0  0  0  0  0  0  0  0  0  0999 V3000
M  V30 BEGIN CTAB
M  V30 COUNTS 36 37 0 0 0
M  V30 BEGIN ATOM
M  V30 1 N 6.26776 0.069861 0.0717808 0
M  V30 2 C 4.85391 0.00760545 0.0740194 0
M  V30 3 C 4.13881 -0.810646 -0.773415 0
M  V30 4 C 2.76255 -0.852838 -0.75138 0
M  V30 5 C 2.03244 -0.0794814 0.118559 0
M  V30 6 C 2.73121 0.743234 0.97161 0
M  V30 7 C 4.10832 0.793618 0.958369 0
M  V30 8 C 0.59747 -0.149897 0.113032 0
M  V30 9 C -0.608888 -0.217132 0.126099 0
M  V30 10 C -2.05268 -0.319355 0.153743 0
M  V30 11 C -2.66109 -1.57866 0.127294 0
M  V30 12 C -4.03682 -1.68198 0.153441 0
M  V30 13 C -4.79258 -0.530395 0.20565 0
M  V30 14 N -6.2134 -0.657009 0.232035 0
M  V30 15 C -4.1782 0.698873 0.23103 0
M  V30 16 C -2.79162 0.844673 0.205983 0
M  V30 17 S -2.04018 2.40086 0.238674 0
M  V30 18 O -1.03409 2.62234 1.55273 0
M  V30 19 O -1.29214 2.70743 -1.03247 0
M  V30 20 O -3.13393 3.45472 0.337161 0
M  V30 21 S 1.86519 -1.90171 -1.83886 0
M  V30 22 O 0.926312 -3.00344 -0.990896 0
M  V30 23 O 1.02644 -1.05551 -2.74952 0
M  V30 24 O 2.86479 -2.68881 -2.63277 0
M  V30 25 H 6.82545 -0.350379 0.832238 0
M  V30 26 H 6.7455 0.546897 -0.709498 0
M  V30 27 H 4.71151 -1.42862 -1.46804 0
M  V30 28 H 2.13816 1.34755 1.6525 0
M  V30 29 H 4.59831 1.4462 1.63816 0
M  V30 30 H -2.05858 -2.45607 0.0869516 0
M  V30 31 H -4.54522 -2.64723 0.134066 0
M  V30 32 H -6.66268 -0.769596 1.16424 0
M  V30 33 H -6.7398 -0.633666 -0.652892 0
M  V30 34 H -4.76842 1.61724 0.272392 0
M  V30 35 H -0.919158 1.837 2.11127 0
M  V30 36 H 1.33533 -3.30166 -0.163281 0
M  V30 END ATOM
M  V30 BEGIN BOND
M  V30 1 1 1 2
M  V30 2 2 2 3
M  V30 3 1 3 4
M  V30 4 2 4 5
M  V30 5 1 5 6
M  V30 6 2 6 7
M  V30 7 1 5 8
M  V30 8 3 8 9
M  V30 9 1 9 10
M  V30 10 2 10 11
M  V30 11 1 11 12
M  V30 12 2 12 13
M  V30 13 1 13 14
M  V30 14 1 13 15
M  V30 15 2 15 16
M  V30 16 1 16 17
M  V30 17 1 17 18
M  V30 18 2 17 19
M  V30 19 2 17 20
M  V30 20 1 4 21
M  V30 21 1 21 22
M  V30 22 2 21 23
M  V30 23 2 21 24
M  V30 24 1 7 2
M  V30 25 1 16 10
M  V30 26 1 1 25
M  V30 27 1 1 26
M  V30 28 1 3 27
M  V30 29 1 6 28
M  V30 30 1 7 29
M  V30 31 1 11 30
M  V30 32 1 12 31
M  V30 33 1 14 32
M  V30 34 1 14 33
M  V30 35 1 15 34
M  V30 36 1 18 35
M  V30 37 1 22 36
M  V30 END BOND
M  V30 END CTAB
M  END
