
     RDKit          3D

  0  0  0  0  0  0  0  0  0  0999 V3000
M  V30 BEGIN CTAB
M  V30 COUNTS 38 38 0 0 0
M  V30 BEGIN ATOM
M  V30 1 N -2.80813 -1.25469 0.896449 0
M  V30 2 C -2.5211 0.113824 0.680248 0
M  V30 3 C -1.45687 0.468136 -0.311552 0
M  V30 4 C -0.0408414 0.0982592 0.111787 0
M  V30 5 C 0.256663 0.843487 1.39872 0
M  V30 6 N 1.54016 0.630541 1.95091 0
M  V30 7 C 0.0369075 -1.36051 0.465426 0
M  V30 8 C 1.37094 -2.01029 0.393464 0
M  V30 9 C 2.21346 -1.56726 -0.764409 0
M  V30 10 C 2.30678 -0.0981558 -0.831551 0
M  V30 11 C 0.958604 0.544685 -0.915798 0
M  V30 12 C 1.25724 2.03364 -0.879568 0
M  V30 13 O -1.45821 1.89632 -0.271092 0
M  V30 14 C -1.87072 0.0970365 -1.66275 0
M  V30 15 H -3.30713 -1.35082 1.80578 0
M  V30 16 H -3.32692 -1.76108 0.189003 0
M  V30 17 H -3.52182 0.558395 0.363143 0
M  V30 18 H -2.38998 0.605007 1.67162 0
M  V30 19 H -0.456625 0.45962 2.20705 0
M  V30 20 H 0.0332214 1.91641 1.3669 0
M  V30 21 H 2.02383 1.50771 2.24912 0
M  V30 22 H 1.5856 -0.0147682 2.76804 0
M  V30 23 H -0.615967 -1.92329 -0.20862 0
M  V30 24 H -0.331267 -1.50776 1.50075 0
M  V30 25 H 1.23741 -3.10726 0.264237 0
M  V30 26 H 1.98828 -1.92611 1.31297 0
M  V30 27 H 3.24892 -1.97859 -0.595028 0
M  V30 28 H 1.84836 -1.99756 -1.70497 0
M  V30 29 H 2.80993 0.124669 -1.83098 0
M  V30 30 H 3.00889 0.363064 -0.111101 0
M  V30 31 H 0.604519 0.257253 -1.96324 0
M  V30 32 H 2.20775 2.17676 -1.48692 0
M  V30 33 H 0.520731 2.65413 -1.40433 0
M  V30 34 H 1.48403 2.43267 0.0998991 0
M  V30 35 H -2.33814 2.25637 -0.491954 0
M  V30 36 H -1.94106 0.891645 -2.42116 0
M  V30 37 H -1.25211 -0.701615 -2.15674 0
M  V30 38 H -2.90532 -0.36989 -1.68373 0
M  V30 END ATOM
M  V30 BEGIN BOND
M  V30 1 1 1 2
M  V30 2 1 2 3
M  V30 3 1 3 4
M  V30 4 1 4 5
M  V30 5 1 5 6
M  V30 6 1 4 7
M  V30 7 1 7 8
M  V30 8 1 8 9
M  V30 9 1 9 10
M  V30 10 1 10 11
M  V30 11 1 11 12
M  V30 12 1 3 13
M  V30 13 1 3 14
M  V30 14 1 11 4
M  V30 15 1 1 15
M  V30 16 1 1 16
M  V30 17 1 2 17
M  V30 18 1 2 18
M  V30 19 1 5 19
M  V30 20 1 5 20
M  V30 21 1 6 21
M  V30 22 1 6 22
M  V30 23 1 7 23
M  V30 24 1 7 24
M  V30 25 1 8 25
M  V30 26 1 8 26
M  V30 27 1 9 27
M  V30 28 1 9 28
M  V30 29 1 10 29
M  V30 30 1 10 30
M  V30 31 1 11 31
M  V30 32 1 12 32
M  V30 33 1 12 33
M  V30 34 1 12 34
M  V30 35 1 13 35
M  V30 36 1 14 36
M  V30 37 1 14 37
M  V30 38 1 14 38
M  V30 END BOND
M  V30 END CTAB
M  END
