
     RDKit          3D

  0  0  0  0  0  0  0  0  0  0999 V3000
M  V30 BEGIN CTAB
M  V30 COUNTS 21 21 0 0 0
M  V30 BEGIN ATOM
M  V30 1 N -2.70295 -1.33775 0.47775 0
M  V30 2 C -2.1127 -0.0602966 0.159244 0
M  V30 3 C -0.641717 -0.244362 0.0660831 0
M  V30 4 C -0.0496832 -1.47337 0.268849 0
M  V30 5 N 1.28868 -1.64099 0.184112 0
M  V30 6 C 2.13756 -0.634053 -0.101226 0
M  V30 7 C 1.57913 0.606435 -0.309386 0
M  V30 8 C 0.219832 0.808157 -0.229873 0
M  V30 9 C -0.403785 2.13413 -0.449963 0
M  V30 10 N 3.55298 -0.83485 -0.185935 0
M  V30 11 H -3.7489 -1.31451 0.423211 0
M  V30 12 H -2.36937 -1.63969 1.42659 0
M  V30 13 H -2.39075 0.635788 0.979279 0
M  V30 14 H -2.47175 0.33418 -0.793492 0
M  V30 15 H -0.682769 -2.31983 0.501522 0
M  V30 16 H 2.24682 1.42104 -0.538514 0
M  V30 17 H -1.09696 2.08243 -1.30616 0
M  V30 18 H 0.425616 2.86136 -0.606794 0
M  V30 19 H -0.948653 2.43822 0.474005 0
M  V30 20 H 4.19773 -0.601146 0.602317 0
M  V30 21 H 3.97163 -1.22089 -1.04163 0
M  V30 END ATOM
M  V30 BEGIN BOND
M  V30 1 1 1 2
M  V30 2 1 2 3
M  V30 3 2 3 4
M  V30 4 1 4 5
M  V30 5 2 5 6
M  V30 6 1 6 7
M  V30 7 2 7 8
M  V30 8 1 8 9
M  V30 9 1 6 10
M  V30 10 1 8 3
M  V30 11 1 1 11
M  V30 12 1 1 12
M  V30 13 1 2 13
M  V30 14 1 2 14
M  V30 15 1 4 15
M  V30 16 1 7 16
M  V30 17 1 9 17
M  V30 18 1 9 18
M  V30 19 1 9 19
M  V30 20 1 10 20
M  V30 21 1 10 21
M  V30 END BOND
M  V30 END CTAB
M  END
