
     RDKit          3D

  0  0  0  0  0  0  0  0  0  0999 V3000
M  V30 BEGIN CTAB
M  V30 COUNTS 49 51 0 0 0
M  V30 BEGIN ATOM
M  V30 1 N -4.16424 -2.3072 -0.0762429 0
M  V30 2 C -3.99794 -1.39722 -1.17027 0
M  V30 3 C -2.67764 -0.692278 -1.17335 0 CFG=2
M  V30 4 C -1.50207 -1.64275 -1.26067 0
M  V30 5 N -0.418795 -0.894757 -0.653915 0
M  V30 6 C -0.899145 0.358698 -0.113287 0
M  V30 7 C -2.37637 0.0137744 0.123884 0 CFG=1
M  V30 8 C -3.19092 1.19193 0.366387 0
M  V30 9 C -3.29468 2.20687 -0.54779 0
M  V30 10 C -4.08004 3.33928 -0.310209 0
M  V30 11 C -4.76568 3.43687 0.870853 0
M  V30 12 C -4.681 2.42979 1.81228 0
M  V30 13 C -3.8902 1.31281 1.54763 0
M  V30 14 C 0.931689 -1.33007 -0.596154 0
M  V30 15 O 1.26865 -2.4433 -1.09485 0
M  V30 16 C 1.97029 -0.488473 0.0491082 0
M  V30 17 C 3.2887 -1.21256 -0.0470893 0
M  V30 18 C 4.41849 -0.489132 0.553432 0
M  V30 19 C 5.69562 -0.950792 0.264015 0
M  V30 20 C 6.77145 -0.290727 0.812771 0
M  V30 21 C 6.56125 0.808401 1.63346 0
M  V30 22 C 5.28932 1.25159 1.90914 0
M  V30 23 C 4.1958 0.586822 1.35599 0
M  V30 24 N 3.5943 -1.45155 -1.44818 0
M  V30 25 H -3.67021 -3.21143 -0.199694 0
M  V30 26 H -5.18872 -2.5416 -0.0117215 0
M  V30 27 H -4.09232 -1.94437 -2.12366 0
M  V30 28 H -4.7875 -0.626997 -1.09423 0
M  V30 29 H -2.64327 0.00211174 -2.0238 0
M  V30 30 H -1.29538 -1.97961 -2.27616 0
M  V30 31 H -1.70874 -2.501 -0.561363 0
M  V30 32 H -0.809787 1.11895 -0.910743 0
M  V30 33 H -0.404674 0.637641 0.829775 0
M  V30 34 H -2.38018 -0.72473 0.940056 0
M  V30 35 H -2.76698 2.15147 -1.47831 0
M  V30 36 H -4.16373 4.14189 -1.03002 0
M  V30 37 H -5.37547 4.31837 1.05286 0
M  V30 38 H -5.21894 2.48976 2.75703 0
M  V30 39 H -3.8649 0.552594 2.3308 0
M  V30 40 H 1.72504 -0.354933 1.14217 0
M  V30 41 H 1.9938 0.498206 -0.455703 0
M  V30 42 H 3.12207 -2.20963 0.449959 0
M  V30 43 H 5.8083 -1.80466 -0.375895 0
M  V30 44 H 7.76625 -0.650364 0.5873 0
M  V30 45 H 7.43194 1.30706 2.05074 0
M  V30 46 H 5.09536 2.10154 2.54232 0
M  V30 47 H 3.21162 0.949385 1.58334 0
M  V30 48 H 4.13512 -0.67937 -1.85305 0
M  V30 49 H 4.03446 -2.38631 -1.53463 0
M  V30 END ATOM
M  V30 BEGIN BOND
M  V30 1 1 1 2
M  V30 2 1 2 3
M  V30 3 1 3 4
M  V30 4 1 4 5
M  V30 5 1 5 6
M  V30 6 1 6 7
M  V30 7 1 7 8
M  V30 8 2 8 9
M  V30 9 1 9 10
M  V30 10 2 10 11
M  V30 11 1 11 12
M  V30 12 2 12 13
M  V30 13 1 5 14
M  V30 14 2 14 15
M  V30 15 1 14 16
M  V30 16 1 16 17
M  V30 17 1 17 18
M  V30 18 2 18 19
M  V30 19 1 19 20
M  V30 20 2 20 21
M  V30 21 1 21 22
M  V30 22 2 22 23
M  V30 23 1 17 24
M  V30 24 1 7 3
M  V30 25 1 13 8
M  V30 26 1 23 18
M  V30 27 1 1 25
M  V30 28 1 1 26
M  V30 29 1 2 27
M  V30 30 1 2 28
M  V30 31 1 3 29 CFG=3
M  V30 32 1 4 30
M  V30 33 1 4 31
M  V30 34 1 6 32
M  V30 35 1 6 33
M  V30 36 1 7 34 CFG=1
M  V30 37 1 9 35
M  V30 38 1 10 36
M  V30 39 1 11 37
M  V30 40 1 12 38
M  V30 41 1 13 39
M  V30 42 1 16 40
M  V30 43 1 16 41
M  V30 44 1 17 42
M  V30 45 1 19 43
M  V30 46 1 20 44
M  V30 47 1 21 45
M  V30 48 1 22 46
M  V30 49 1 23 47
M  V30 50 1 24 48
M  V30 51 1 24 49
M  V30 END BOND
M  V30 END CTAB
M  END
