
     RDKit          3D

  0  0  0  0  0  0  0  0  0  0999 V3000
M  V30 BEGIN CTAB
M  V30 COUNTS 26 26 0 0 0
M  V30 BEGIN ATOM
M  V30 1 C 1.2 -0.625343 1.81725 0
M  V30 2 C 1.36381 -0.49793 0.323063 0
M  V30 3 N 2.80317 -0.29998 0.0965522 0
M  V30 4 N 3.07007 -0.14877 -1.26845 0
M  V30 5 C 0.567662 0.643131 -0.205977 0
M  V30 6 C -0.872478 0.59057 0.00589233 0
M  V30 7 C -1.50238 1.36776 0.951868 0
M  V30 8 N -2.84571 1.31017 1.13404 0
M  V30 9 C -3.6093 0.491723 0.396768 0
M  V30 10 C -3.05123 -0.303449 -0.555684 0
M  V30 11 C -1.67023 -0.244009 -0.74279 0
M  V30 12 N -1.07288 -1.05048 -1.72138 0
M  V30 13 H 1.104 -1.68502 2.13995 0
M  V30 14 H 0.302031 -0.114538 2.1898 0
M  V30 15 H 2.06007 -0.173768 2.37052 0
M  V30 16 H 1.13933 -1.46232 -0.189112 0
M  V30 17 H 3.16929 0.508276 0.642776 0
M  V30 18 H 4.09192 -0.337413 -1.43843 0
M  V30 19 H 2.90567 0.841157 -1.56407 0
M  V30 20 H 0.770449 0.662101 -1.32155 0
M  V30 21 H 1.02242 1.61976 0.129988 0
M  V30 22 H -0.906768 2.02617 1.54618 0
M  V30 23 H -4.67287 0.522126 0.621703 0
M  V30 24 H -3.6716 -0.961829 -1.1471 0
M  V30 25 H -0.870136 -0.642169 -2.657 0
M  V30 26 H -0.824321 -2.03592 -1.55481 0
M  V30 END ATOM
M  V30 BEGIN BOND
M  V30 1 1 1 2
M  V30 2 1 2 3
M  V30 3 1 3 4
M  V30 4 1 2 5
M  V30 5 1 5 6
M  V30 6 2 6 7
M  V30 7 1 7 8
M  V30 8 2 8 9
M  V30 9 1 9 10
M  V30 10 2 10 11
M  V30 11 1 11 12
M  V30 12 1 11 6
M  V30 13 1 1 13
M  V30 14 1 1 14
M  V30 15 1 1 15
M  V30 16 1 2 16
M  V30 17 1 3 17
M  V30 18 1 4 18
M  V30 19 1 4 19
M  V30 20 1 5 20
M  V30 21 1 5 21
M  V30 22 1 7 22
M  V30 23 1 9 23
M  V30 24 1 10 24
M  V30 25 1 12 25
M  V30 26 1 12 26
M  V30 END BOND
M  V30 END CTAB
M  END
