
     RDKit          3D

  0  0  0  0  0  0  0  0  0  0999 V3000
M  V30 BEGIN CTAB
M  V30 COUNTS 41 42 0 0 0
M  V30 BEGIN ATOM
M  V30 1 C 5.44902 -1.65903 1.20771 0
M  V30 2 C 5.01633 -0.222724 0.965411 0
M  V30 3 C 3.56712 -0.144804 1.30294 0
M  V30 4 N 3.0785 0.147401 2.51496 0
M  V30 5 N 1.75685 0.118295 2.40997 0
M  V30 6 C 1.40789 -0.192096 1.13255 0
M  V30 7 N 2.55116 -0.351297 0.462045 0
M  V30 8 N 2.66643 -0.674758 -0.874804 0
M  V30 9 S -0.243979 -0.337564 0.552253 0
M  V30 10 C -0.848502 1.25585 -0.0450599 0
M  V30 11 C -0.0558064 2.37917 -0.0128853 0
M  V30 12 C -0.510963 3.6014 -0.46774 0
M  V30 13 C -1.80483 3.66597 -0.963874 0
M  V30 14 C -2.62229 2.57322 -1.01241 0
M  V30 15 C -2.12858 1.3589 -0.545065 0
M  V30 16 C -2.94477 0.161737 -0.568757 0
M  V30 17 O -4.10353 0.218926 -1.01322 0
M  V30 18 O -2.44825 -1.02159 -0.107323 0
M  V30 19 C -3.24361 -2.18461 -0.131336 0
M  V30 20 C -2.52817 -3.19445 -1.0092 0
M  V30 21 C -3.35536 -2.68228 1.29378 0
M  V30 22 N -2.32905 4.90556 -1.44845 0
M  V30 23 H 5.74118 -1.77659 2.26296 0
M  V30 24 H 4.57945 -2.3111 1.03579 0
M  V30 25 H 6.31047 -1.93549 0.552789 0
M  V30 26 H 5.58289 0.486093 1.59587 0
M  V30 27 H 5.12457 0.0377683 -0.0925514 0
M  V30 28 H 3.1517 -1.55415 -1.16441 0
M  V30 29 H 2.28868 -0.080777 -1.65196 0
M  V30 30 H 0.947153 2.24849 0.39051 0
M  V30 31 H 0.0980299 4.47054 -0.444396 0
M  V30 32 H -3.63181 2.57781 -1.38881 0
M  V30 33 H -4.22772 -1.92484 -0.558337 0
M  V30 34 H -3.14798 -4.05339 -1.27095 0
M  V30 35 H -2.25537 -2.67336 -1.9485 0
M  V30 36 H -1.5955 -3.47239 -0.443498 0
M  V30 37 H -4.36651 -3.15526 1.38093 0
M  V30 38 H -2.56664 -3.40041 1.54369 0
M  V30 39 H -3.35438 -1.84196 2.02093 0
M  V30 40 H -2.95219 5.43594 -0.818127 0
M  V30 41 H -2.05161 5.20185 -2.41022 0
M  V30 END ATOM
M  V30 BEGIN BOND
M  V30 1 1 1 2
M  V30 2 1 2 3
M  V30 3 2 3 4
M  V30 4 1 4 5
M  V30 5 2 5 6
M  V30 6 1 6 7
M  V30 7 1 7 8
M  V30 8 1 6 9
M  V30 9 1 9 10
M  V30 10 2 10 11
M  V30 11 1 11 12
M  V30 12 2 12 13
M  V30 13 1 13 14
M  V30 14 2 14 15
M  V30 15 1 15 16
M  V30 16 2 16 17
M  V30 17 1 16 18
M  V30 18 1 18 19
M  V30 19 1 19 20
M  V30 20 1 19 21
M  V30 21 1 13 22
M  V30 22 1 7 3
M  V30 23 1 15 10
M  V30 24 1 1 23
M  V30 25 1 1 24
M  V30 26 1 1 25
M  V30 27 1 2 26
M  V30 28 1 2 27
M  V30 29 1 8 28
M  V30 30 1 8 29
M  V30 31 1 11 30
M  V30 32 1 12 31
M  V30 33 1 14 32
M  V30 34 1 19 33
M  V30 35 1 20 34
M  V30 36 1 20 35
M  V30 37 1 20 36
M  V30 38 1 21 37
M  V30 39 1 21 38
M  V30 40 1 21 39
M  V30 41 1 22 40
M  V30 42 1 22 41
M  V30 END BOND
M  V30 END CTAB
M  END
