
     RDKit          3D

  0  0  0  0  0  0  0  0  0  0999 V3000
M  V30 BEGIN CTAB
M  V30 COUNTS 45 48 0 0 0
M  V30 BEGIN ATOM
M  V30 1 C 0.656803 2.73228 1.00125 0
M  V30 2 O 0.679569 1.33823 1.14956 0
M  V30 3 C -0.402916 0.556949 0.822187 0
M  V30 4 C -1.53291 1.15465 0.33906 0
M  V30 5 C -2.63964 0.394553 0.000377445 0
M  V30 6 C -2.63421 -0.966248 0.138552 0
M  V30 7 C -1.46152 -1.5678 0.638108 0
M  V30 8 C -0.366313 -0.831366 0.97473 0
M  V30 9 N 0.818898 -1.39248 1.47747 0
M  V30 10 C 1.1174 -2.73512 1.71383 0
M  V30 11 O 0.335216 -3.66351 1.50016 0
M  V30 12 C 2.46424 -3.15394 2.26555 0
M  V30 13 S 3.5379 -3.43056 0.815429 0
M  V30 14 C 3.78323 -1.85226 0.017494 0
M  V30 15 N 2.91401 -1.46893 -0.933885 0
M  V30 16 C 3.0266 -0.294532 -1.58389 0
M  V30 17 N 2.08622 0.0671149 -2.57954 0
M  V30 18 C 4.06958 0.531223 -1.25456 0
M  V30 19 C 4.98065 0.174671 -0.285939 0
M  V30 20 N 4.78946 -1.02601 0.316531 0
M  V30 21 N 6.05011 1.03198 0.0451856 0
M  V30 22 O -3.78405 -1.44758 -0.244109 0
M  V30 23 C -4.57362 -0.45922 -0.638744 0
M  V30 24 C -3.88494 0.714102 -0.498106 0
M  V30 25 C -4.4665 1.90206 -0.834782 0
M  V30 26 C -5.75652 1.91297 -1.31906 0
M  V30 27 C -6.48487 0.745945 -1.47524 0
M  V30 28 C -5.85513 -0.434243 -1.1213 0
M  V30 29 H 0.409675 3.03991 -0.0491341 0
M  V30 30 H 1.71019 3.09663 1.15272 0
M  V30 31 H 0.0412436 3.25451 1.74471 0
M  V30 32 H -1.56191 2.23085 0.220296 0
M  V30 33 H -1.49648 -2.62976 0.731538 0
M  V30 34 H 1.64322 -0.717314 1.7307 0
M  V30 35 H 2.37705 -4.0581 2.87554 0
M  V30 36 H 2.81559 -2.33546 2.89819 0
M  V30 37 H 2.10331 -0.399666 -3.5054 0
M  V30 38 H 1.38107 0.795129 -2.38999 0
M  V30 39 H 4.22599 1.49654 -1.73669 0
M  V30 40 H 6.85683 0.66025 0.56864 0
M  V30 41 H 6.02546 2.02391 -0.234325 0
M  V30 42 H -3.88992 2.79833 -0.708344 0
M  V30 43 H -6.22001 2.85161 -1.58645 0
M  V30 44 H -7.50113 0.743416 -1.85586 0
M  V30 45 H -6.38695 -1.3837 -1.22546 0
M  V30 END ATOM
M  V30 BEGIN BOND
M  V30 1 1 1 2
M  V30 2 1 2 3
M  V30 3 2 3 4
M  V30 4 1 4 5
M  V30 5 2 5 6
M  V30 6 1 6 7
M  V30 7 2 7 8
M  V30 8 1 8 9
M  V30 9 1 9 10
M  V30 10 2 10 11
M  V30 11 1 10 12
M  V30 12 1 12 13
M  V30 13 1 13 14
M  V30 14 2 14 15
M  V30 15 1 15 16
M  V30 16 1 16 17
M  V30 17 2 16 18
M  V30 18 1 18 19
M  V30 19 2 19 20
M  V30 20 1 19 21
M  V30 21 1 6 22
M  V30 22 1 22 23
M  V30 23 2 23 24
M  V30 24 1 24 25
M  V30 25 2 25 26
M  V30 26 1 26 27
M  V30 27 2 27 28
M  V30 28 1 8 3
M  V30 29 1 20 14
M  V30 30 1 28 23
M  V30 31 1 24 5
M  V30 32 1 1 29
M  V30 33 1 1 30
M  V30 34 1 1 31
M  V30 35 1 4 32
M  V30 36 1 7 33
M  V30 37 1 9 34
M  V30 38 1 12 35
M  V30 39 1 12 36
M  V30 40 1 17 37
M  V30 41 1 17 38
M  V30 42 1 18 39
M  V30 43 1 21 40
M  V30 44 1 21 41
M  V30 45 1 25 42
M  V30 46 1 26 43
M  V30 47 1 27 44
M  V30 48 1 28 45
M  V30 END BOND
M  V30 END CTAB
M  END
