
     RDKit          3D

  0  0  0  0  0  0  0  0  0  0999 V3000
M  V30 BEGIN CTAB
M  V30 COUNTS 27 28 0 0 0
M  V30 BEGIN ATOM
M  V30 1 N 1.78737 -1.09035 1.31676 0
M  V30 2 N 1.89354 -0.258999 0.202728 0
M  V30 3 C 1.11669 -0.235233 -0.88849 0
M  V30 4 N 1.61791 0.726198 -1.6753 0
M  V30 5 N 2.67126 1.27583 -1.08338 0
M  V30 6 C 2.86247 0.672412 0.0974057 0
M  V30 7 N 3.89621 0.975433 1.0393 0
M  V30 8 C -0.0476164 -1.10082 -1.13851 0
M  V30 9 C -1.34651 -0.583553 -0.693626 0
M  V30 10 C -1.77284 0.718869 -1.32055 0
M  V30 11 N -2.99154 1.00338 -0.55195 0
M  V30 12 C -2.82136 0.456093 0.759805 0
M  V30 13 C -1.42795 -0.190685 0.772714 0
M  V30 14 H 1.4336 -0.628812 2.20065 0
M  V30 15 H 2.04023 -2.08143 1.26363 0
M  V30 16 H 3.76779 1.55522 1.88021 0
M  V30 17 H 4.83598 0.569328 0.838114 0
M  V30 18 H 0.120857 -2.09204 -0.625373 0
M  V30 19 H -0.144627 -1.37726 -2.22153 0
M  V30 20 H -2.17285 -1.30234 -0.858673 0
M  V30 21 H -2.02285 0.603948 -2.37919 0
M  V30 22 H -1.05742 1.53616 -1.10626 0
M  V30 23 H -3.75386 0.452983 -1.03443 0
M  V30 24 H -3.52754 -0.396502 0.968808 0
M  V30 25 H -2.89911 1.2144 1.57285 0
M  V30 26 H -1.36865 -1.04305 1.45991 0
M  V30 27 H -0.689198 0.620821 0.977174 0
M  V30 END ATOM
M  V30 BEGIN BOND
M  V30 1 1 1 2
M  V30 2 1 2 3
M  V30 3 2 3 4
M  V30 4 1 4 5
M  V30 5 2 5 6
M  V30 6 1 6 7
M  V30 7 1 3 8
M  V30 8 1 8 9
M  V30 9 1 9 10
M  V30 10 1 10 11
M  V30 11 1 11 12
M  V30 12 1 12 13
M  V30 13 1 6 2
M  V30 14 1 13 9
M  V30 15 1 1 14
M  V30 16 1 1 15
M  V30 17 1 7 16
M  V30 18 1 7 17
M  V30 19 1 8 18
M  V30 20 1 8 19
M  V30 21 1 9 20
M  V30 22 1 10 21
M  V30 23 1 10 22
M  V30 24 1 11 23
M  V30 25 1 12 24
M  V30 26 1 12 25
M  V30 27 1 13 26
M  V30 28 1 13 27
M  V30 END BOND
M  V30 END CTAB
M  END
