
     RDKit          3D

  0  0  0  0  0  0  0  0  0  0999 V3000
M  V30 BEGIN CTAB
M  V30 COUNTS 28 29 0 0 0
M  V30 BEGIN ATOM
M  V30 1 C 4.11853 2.54304 0.564164 0
M  V30 2 S 3.53204 1.69259 -0.902721 0
M  V30 3 C 2.2582 0.505905 -0.557467 0
M  V30 4 N 2.62523 -0.755677 -0.269881 0
M  V30 5 C 1.73662 -1.73573 0.00790429 0
M  V30 6 N 2.15857 -3.04931 0.30558 0
M  V30 7 C 0.389173 -1.37302 -0.0172639 0
M  V30 8 C -0.00966747 -0.0953831 -0.307455 0
M  V30 9 N 0.934462 0.822205 -0.572617 0
M  V30 10 C -1.41925 0.248921 -0.320646 0
M  V30 11 C -2.40357 -0.471726 -0.921188 0
M  V30 12 C -3.72457 -0.0707102 -0.880495 0
M  V30 13 C -4.08086 1.08532 -0.221253 0
M  V30 14 C -3.11834 1.84318 0.398671 0
M  V30 15 C -1.8147 1.41788 0.34036 0
M  V30 16 N -0.544783 -2.38123 0.274692 0
M  V30 17 H 3.58245 2.24153 1.49143 0
M  V30 18 H 4.00923 3.64439 0.420824 0
M  V30 19 H 5.2006 2.3696 0.763888 0
M  V30 20 H 2.99537 -3.18744 0.893584 0
M  V30 21 H 1.64515 -3.867 -0.0545741 0
M  V30 22 H -2.16379 -1.36666 -1.4412 0
M  V30 23 H -4.5122 -0.653693 -1.36507 0
M  V30 24 H -5.12657 1.39703 -0.192373 0
M  V30 25 H -3.36385 2.75424 0.923348 0
M  V30 26 H -1.05619 2.00891 0.825592 0
M  V30 27 H -0.86719 -3.11148 -0.419902 0
M  V30 28 H -0.980097 -2.45568 1.23407 0
M  V30 END ATOM
M  V30 BEGIN BOND
M  V30 1 1 1 2
M  V30 2 1 2 3
M  V30 3 2 3 4
M  V30 4 1 4 5
M  V30 5 1 5 6
M  V30 6 2 5 7
M  V30 7 1 7 8
M  V30 8 2 8 9
M  V30 9 1 8 10
M  V30 10 2 10 11
M  V30 11 1 11 12
M  V30 12 2 12 13
M  V30 13 1 13 14
M  V30 14 2 14 15
M  V30 15 1 7 16
M  V30 16 1 9 3
M  V30 17 1 15 10
M  V30 18 1 1 17
M  V30 19 1 1 18
M  V30 20 1 1 19
M  V30 21 1 6 20
M  V30 22 1 6 21
M  V30 23 1 11 22
M  V30 24 1 12 23
M  V30 25 1 13 24
M  V30 26 1 14 25
M  V30 27 1 15 26
M  V30 28 1 16 27
M  V30 29 1 16 28
M  V30 END BOND
M  V30 END CTAB
M  END
