
     RDKit          3D

  0  0  0  0  0  0  0  0  0  0999 V3000
M  V30 BEGIN CTAB
M  V30 COUNTS 19 19 0 0 0
M  V30 BEGIN ATOM
M  V30 1 N 2.24286 0.163089 0.388258 0
M  V30 2 C 1.4577 -1.0562 0.367394 0
M  V30 3 C 0.492952 -0.991073 -0.813482 0
M  V30 4 C -0.383183 0.190896 -0.608264 0
M  V30 5 N -0.390072 1.39142 -1.16936 0
M  V30 6 C -1.38146 2.16207 -0.668888 0
M  V30 7 N -1.99702 1.38114 0.236269 0
M  V30 8 C -1.42416 0.166848 0.310672 0
M  V30 9 N -1.80488 -0.919919 1.15301 0
M  V30 10 H 2.81381 0.233687 1.26044 0
M  V30 11 H 1.63636 1.0083 0.366691 0
M  V30 12 H 0.899986 -1.18987 1.32419 0
M  V30 13 H 2.14157 -1.92806 0.282385 0
M  V30 14 H 1.05518 -0.917944 -1.7533 0
M  V30 15 H -0.13844 -1.90696 -0.771946 0
M  V30 16 H 0.302481 1.68607 -1.91224 0
M  V30 17 H -1.62388 3.18577 -0.941374 0
M  V30 18 H -1.65482 -1.88734 0.845979 0
M  V30 19 H -2.245 -0.771911 2.10355 0
M  V30 END ATOM
M  V30 BEGIN BOND
M  V30 1 1 1 2
M  V30 2 1 2 3
M  V30 3 1 3 4
M  V30 4 1 4 5
M  V30 5 1 5 6
M  V30 6 2 6 7
M  V30 7 1 7 8
M  V30 8 1 8 9
M  V30 9 2 8 4
M  V30 10 1 1 10
M  V30 11 1 1 11
M  V30 12 1 2 12
M  V30 13 1 2 13
M  V30 14 1 3 14
M  V30 15 1 3 15
M  V30 16 1 5 16
M  V30 17 1 6 17
M  V30 18 1 9 18
M  V30 19 1 9 19
M  V30 END BOND
M  V30 END CTAB
M  END
