
     RDKit          3D

  0  0  0  0  0  0  0  0  0  0999 V3000
M  V30 BEGIN CTAB
M  V30 COUNTS 43 46 0 0 0
M  V30 BEGIN ATOM
M  V30 1 N -4.28397 -4.02295 0.275187 0
M  V30 2 N -4.09746 -2.63723 0.439251 0
M  V30 3 C -2.85831 -2.00737 0.219731 0
M  V30 4 N -1.79261 -2.70114 -0.157607 0
M  V30 5 C -0.580915 -2.11415 -0.375234 0
M  V30 6 N 0.5142 -2.88958 -0.780677 0
M  V30 7 C -0.404862 -0.745659 -0.209299 0
M  V30 8 C -1.52933 -0.055811 0.179193 0
M  V30 9 N -2.73086 -0.702219 0.386418 0
M  V30 10 C -1.53669 1.38159 0.312622 0
M  V30 11 C -2.64995 2.08614 0.761647 0
M  V30 12 C -2.61524 3.45927 0.930102 0
M  V30 13 C -1.42618 4.12911 0.636544 0
M  V30 14 C -0.310158 3.4521 0.18926 0
M  V30 15 C -0.392053 2.05925 0.0323274 0
M  V30 16 C 0.801863 1.39997 -0.502319 0
M  V30 17 C 0.870152 -0.096456 -0.354918 0
M  V30 18 C 1.60858 -0.34694 0.986828 0
M  V30 19 C 2.92927 0.309933 1.06979 0
M  V30 20 C 3.8048 0.119861 -0.137429 0
M  V30 21 C 3.02493 0.410939 -1.37668 0
M  V30 22 C 1.83123 -0.570522 -1.39519 0
M  V30 23 H -4.50416 -4.25043 -0.723748 0
M  V30 24 H -3.44905 -4.50899 0.640534 0
M  V30 25 H -4.92055 -2.04286 0.739704 0
M  V30 26 H 1.2064 -3.36602 -0.1634 0
M  V30 27 H 0.69906 -3.04164 -1.8195 0
M  V30 28 H -3.55258 1.53133 0.978438 0
M  V30 29 H -3.49664 3.97126 1.2796 0
M  V30 30 H -1.41057 5.21349 0.774184 0
M  V30 31 H 0.567322 4.017 -0.0180901 0
M  V30 32 H 0.812813 1.67937 -1.60513 0
M  V30 33 H 1.66381 1.89016 0.0298405 0
M  V30 34 H 1.70676 -1.43522 1.13096 0
M  V30 35 H 0.961177 0.0392056 1.79509 0
M  V30 36 H 3.48649 -0.2518 1.89831 0
M  V30 37 H 2.93618 1.35282 1.45835 0
M  V30 38 H 4.06729 -0.975942 -0.17586 0
M  V30 39 H 4.72392 0.737142 -0.0460314 0
M  V30 40 H 3.69637 0.143353 -2.25807 0
M  V30 41 H 2.76595 1.44288 -1.49271 0
M  V30 42 H 1.47696 -0.542587 -2.42798 0
M  V30 43 H 2.38661 -1.52066 -1.12402 0
M  V30 END ATOM
M  V30 BEGIN BOND
M  V30 1 1 1 2
M  V30 2 1 2 3
M  V30 3 2 3 4
M  V30 4 1 4 5
M  V30 5 1 5 6
M  V30 6 2 5 7
M  V30 7 1 7 8
M  V30 8 2 8 9
M  V30 9 1 8 10
M  V30 10 2 10 11
M  V30 11 1 11 12
M  V30 12 2 12 13
M  V30 13 1 13 14
M  V30 14 2 14 15
M  V30 15 1 15 16
M  V30 16 1 16 17
M  V30 17 1 17 18
M  V30 18 1 18 19
M  V30 19 1 19 20
M  V30 20 1 20 21
M  V30 21 1 21 22
M  V30 22 1 9 3
M  V30 23 1 15 10
M  V30 24 1 22 17
M  V30 25 1 17 7
M  V30 26 1 1 23
M  V30 27 1 1 24
M  V30 28 1 2 25
M  V30 29 1 6 26
M  V30 30 1 6 27
M  V30 31 1 11 28
M  V30 32 1 12 29
M  V30 33 1 13 30
M  V30 34 1 14 31
M  V30 35 1 16 32
M  V30 36 1 16 33
M  V30 37 1 18 34
M  V30 38 1 18 35
M  V30 39 1 19 36
M  V30 40 1 19 37
M  V30 41 1 20 38
M  V30 42 1 20 39
M  V30 43 1 21 40
M  V30 44 1 21 41
M  V30 45 1 22 42
M  V30 46 1 22 43
M  V30 END BOND
M  V30 END CTAB
M  END
