
     RDKit          3D

  0  0  0  0  0  0  0  0  0  0999 V3000
M  V30 BEGIN CTAB
M  V30 COUNTS 36 38 0 0 0
M  V30 BEGIN ATOM
M  V30 1 F 5.09534 3.32812 -0.941688 0
M  V30 2 C 4.42341 2.1595 -0.693044 0
M  V30 3 C 3.05233 2.20328 -0.517112 0
M  V30 4 C 2.33858 1.04973 -0.24089 0
M  V30 5 C 0.885532 1.08838 -0.107141 0
M  V30 6 O 0.158464 2.1551 -0.129536 0
M  V30 7 N -1.10172 1.81344 0.00714592 0
M  V30 8 C -1.20797 0.487325 0.125728 0
M  V30 9 N 0.0555164 0.0410967 0.0536652 0
M  V30 10 C -2.41682 -0.336243 0.261644 0
M  V30 11 N -2.1352 -1.69882 0.61683 0
M  V30 12 C -3.28001 -0.319245 -0.967978 0
M  V30 13 C -4.71785 -0.323327 -0.518084 0
M  V30 14 C -4.64723 -0.59804 0.967115 0
M  V30 15 C -3.3838 0.214732 1.33309 0
M  V30 16 C 3.02634 -0.150893 -0.141975 0
M  V30 17 C 4.39656 -0.216491 -0.316756 0
M  V30 18 C 5.05962 0.959185 -0.591099 0
M  V30 19 N 5.07464 -1.46705 -0.245265 0 CHG=1
M  V30 20 O 6.26936 -1.52546 0.0641308 0
M  V30 21 O 4.41865 -2.6449 -0.523791 0 CHG=-1
M  V30 22 N 2.33504 -1.33667 0.172543 0
M  V30 23 H 2.47508 3.1279 -0.573201 0
M  V30 24 H -1.40056 -1.67529 1.32382 0
M  V30 25 H -1.83509 -2.18228 -0.265936 0
M  V30 26 H -3.08095 -1.24963 -1.54926 0
M  V30 27 H -3.0744 0.5443 -1.6608 0
M  V30 28 H -5.34153 -1.04398 -1.05591 0
M  V30 29 H -5.07826 0.729389 -0.612831 0
M  V30 30 H -4.47614 -1.67197 1.17179 0
M  V30 31 H -5.52673 -0.184049 1.49045 0
M  V30 32 H -3.04196 0.0481538 2.35341 0
M  V30 33 H -3.62506 1.27168 1.08519 0
M  V30 34 H 6.14831 0.959548 -0.749106 0
M  V30 35 H 2.23831 -1.60833 1.19642 0
M  V30 36 H 1.92023 -1.94819 -0.520799 0
M  V30 END ATOM
M  V30 BEGIN BOND
M  V30 1 1 1 2
M  V30 2 2 2 3
M  V30 3 1 3 4
M  V30 4 1 4 5
M  V30 5 1 5 6
M  V30 6 1 6 7
M  V30 7 2 7 8
M  V30 8 1 8 9
M  V30 9 1 8 10
M  V30 10 1 10 11
M  V30 11 1 10 12
M  V30 12 1 12 13
M  V30 13 1 13 14
M  V30 14 1 14 15
M  V30 15 2 4 16
M  V30 16 1 16 17
M  V30 17 2 17 18
M  V30 18 1 17 19
M  V30 19 2 19 20
M  V30 20 1 19 21
M  V30 21 1 16 22
M  V30 22 1 18 2
M  V30 23 2 9 5
M  V30 24 1 15 10
M  V30 25 1 3 23
M  V30 26 1 11 24
M  V30 27 1 11 25
M  V30 28 1 12 26
M  V30 29 1 12 27
M  V30 30 1 13 28
M  V30 31 1 13 29
M  V30 32 1 14 30
M  V30 33 1 14 31
M  V30 34 1 15 32
M  V30 35 1 15 33
M  V30 36 1 18 34
M  V30 37 1 22 35
M  V30 38 1 22 36
M  V30 END BOND
M  V30 END CTAB
M  END
