
     RDKit          3D

  0  0  0  0  0  0  0  0  0  0999 V3000
M  V30 BEGIN CTAB
M  V30 COUNTS 18 18 0 0 0
M  V30 BEGIN ATOM
M  V30 1 N 2.59698 -1.15305 -0.171546 0
M  V30 2 C 1.43866 -0.327013 -0.125623 0
M  V30 3 C 0.176842 -0.856874 0.0584004 0
M  V30 4 O 0.0877924 -2.2352 0.197092 0
M  V30 5 C -0.951312 -0.0495018 0.102836 0
M  V30 6 N -2.23749 -0.626813 0.293873 0
M  V30 7 C -0.855367 1.31911 -0.0356722 0
M  V30 8 O -2.00196 2.12022 0.0113158 0
M  V30 9 C 0.400387 1.85333 -0.219455 0
M  V30 10 C 1.51621 1.04331 -0.262334 0
M  V30 11 H 3.00856 -1.49896 0.736969 0
M  V30 12 H 3.07381 -1.44521 -1.03526 0
M  V30 13 H -0.830991 -2.63022 0.331933 0
M  V30 14 H -2.42451 -1.42217 0.940538 0
M  V30 15 H -3.05608 -0.252317 -0.229963 0
M  V30 16 H -2.92028 1.74852 0.143929 0
M  V30 17 H 0.468222 2.93726 -0.328297 0
M  V30 18 H 2.51054 1.47559 -0.408735 0
M  V30 END ATOM
M  V30 BEGIN BOND
M  V30 1 1 1 2
M  V30 2 2 2 3
M  V30 3 1 3 4
M  V30 4 1 3 5
M  V30 5 1 5 6
M  V30 6 2 5 7
M  V30 7 1 7 8
M  V30 8 1 7 9
M  V30 9 2 9 10
M  V30 10 1 10 2
M  V30 11 1 1 11
M  V30 12 1 1 12
M  V30 13 1 4 13
M  V30 14 1 6 14
M  V30 15 1 6 15
M  V30 16 1 8 16
M  V30 17 1 9 17
M  V30 18 1 10 18
M  V30 END BOND
M  V30 END CTAB
M  END
