
     RDKit          3D

  0  0  0  0  0  0  0  0  0  0999 V3000
M  V30 BEGIN CTAB
M  V30 COUNTS 28 29 0 0 0
M  V30 BEGIN ATOM
M  V30 1 N -2.90172 -2.72885 -0.148237 0
M  V30 2 C -2.88939 -1.31364 0.139239 0
M  V30 3 C -3.77637 -0.756955 1.02323 0
M  V30 4 C -3.78093 0.588748 1.3107 0
M  V30 5 C -2.82724 1.35656 0.648083 0
M  V30 6 Br -2.84395 3.23001 1.05725 0
M  V30 7 C -1.93153 0.820358 -0.239146 0
M  V30 8 C -1.96053 -0.524007 -0.497315 0
M  V30 9 S -0.781805 -1.21042 -1.66084 0
M  V30 10 S 1.00295 -1.83577 -0.699884 0
M  V30 11 C 2.20019 -0.515621 -0.633451 0
M  V30 12 C 2.24809 0.339857 0.446034 0
M  V30 13 N 1.35621 0.213005 1.54679 0
M  V30 14 C 3.19954 1.33375 0.430954 0
M  V30 15 C 4.0925 1.50247 -0.607714 0
M  V30 16 C 4.05465 0.651844 -1.69467 0
M  V30 17 Br 5.27982 0.858724 -3.15259 0
M  V30 18 C 3.10463 -0.346797 -1.6881 0
M  V30 19 H -3.81664 -3.13616 -0.379945 0
M  V30 20 H -2.00386 -3.22881 -0.102324 0
M  V30 21 H -4.50405 -1.41509 1.5136 0
M  V30 22 H -4.47894 1.01716 2.00433 0
M  V30 23 H -1.21571 1.46872 -0.721308 0
M  V30 24 H 0.479145 -0.340074 1.48439 0
M  V30 25 H 1.5507 0.671366 2.45841 0
M  V30 26 H 3.22332 2.00088 1.29178 0
M  V30 27 H 4.82695 2.30363 -0.573818 0
M  V30 28 H 3.09395 -1.00493 -2.55545 0
M  V30 END ATOM
M  V30 BEGIN BOND
M  V30 1 1 1 2
M  V30 2 2 2 3
M  V30 3 1 3 4
M  V30 4 2 4 5
M  V30 5 1 5 6
M  V30 6 1 5 7
M  V30 7 2 7 8
M  V30 8 1 8 9
M  V30 9 1 9 10
M  V30 10 1 10 11
M  V30 11 2 11 12
M  V30 12 1 12 13
M  V30 13 1 12 14
M  V30 14 2 14 15
M  V30 15 1 15 16
M  V30 16 1 16 17
M  V30 17 2 16 18
M  V30 18 1 8 2
M  V30 19 1 18 11
M  V30 20 1 1 19
M  V30 21 1 1 20
M  V30 22 1 3 21
M  V30 23 1 4 22
M  V30 24 1 7 23
M  V30 25 1 13 24
M  V30 26 1 13 25
M  V30 27 1 14 26
M  V30 28 1 15 27
M  V30 29 1 18 28
M  V30 END BOND
M  V30 END CTAB
M  END
