
     RDKit          3D

  0  0  0  0  0  0  0  0  0  0999 V3000
M  V30 BEGIN CTAB
M  V30 COUNTS 39 41 0 0 0
M  V30 BEGIN ATOM
M  V30 1 N -1.79568 2.62586 -2.67886 0
M  V30 2 C -2.34047 1.74376 -2.14851 0
M  V30 3 C -3.00532 0.639508 -1.51158 0
M  V30 4 C -4.31768 0.585736 -1.67544 0
M  V30 5 N -5.0611 1.53011 -2.41979 0
M  V30 6 S -5.13077 -0.788663 -0.881979 0
M  V30 7 C -4.07848 -1.29328 0.45939 0
M  V30 8 C -2.80393 -0.999781 0.353939 0
M  V30 9 C -2.21369 -0.306141 -0.761706 0
M  V30 10 C -0.938128 0.381103 -0.341388 0
M  V30 11 C -0.985181 1.42029 0.567912 0
M  V30 12 C 0.139157 2.08622 0.990655 0
M  V30 13 C 1.38586 1.70205 0.484187 0
M  V30 14 C 1.46478 0.680345 -0.414425 0
M  V30 15 C 0.29229 0.0383451 -0.809668 0
M  V30 16 O 2.65485 0.256594 -0.947287 0
M  V30 17 C 3.75664 -0.233242 -0.346118 0
M  V30 18 C 4.85342 0.550204 -0.0998392 0
M  V30 19 C 5.95493 -0.0126538 0.524174 0
M  V30 20 C 5.9909 -1.3348 0.907856 0
M  V30 21 C 4.88734 -2.12434 0.659817 0
M  V30 22 C 3.79385 -1.555 0.0376911 0
M  V30 23 F 2.50202 2.38 0.92087 0
M  V30 24 C -1.94575 -1.40695 1.43984 0
M  V30 25 N -1.24963 -1.74144 2.30297 0
M  V30 26 N -4.63811 -1.97936 1.57128 0
M  V30 27 H -5.03421 1.46444 -3.45809 0
M  V30 28 H -5.61146 2.25985 -1.93538 0
M  V30 29 H -1.87335 -1.09805 -1.49676 0
M  V30 30 H -1.95317 1.74386 0.983113 0
M  V30 31 H 0.117806 2.89879 1.69953 0
M  V30 32 H 0.372906 -0.771689 -1.52455 0
M  V30 33 H 4.92978 1.60708 -0.374848 0
M  V30 34 H 6.81937 0.632719 0.710977 0
M  V30 35 H 6.8514 -1.75258 1.38924 0
M  V30 36 H 4.93068 -3.15234 0.964428 0
M  V30 37 H 2.95085 -2.23267 -0.13104 0
M  V30 38 H -5.4839 -2.53968 1.42627 0
M  V30 39 H -4.18882 -1.9042 2.50064 0
M  V30 END ATOM
M  V30 BEGIN BOND
M  V30 1 3 1 2
M  V30 2 1 2 3
M  V30 3 2 3 4
M  V30 4 1 4 5
M  V30 5 1 4 6
M  V30 6 1 6 7
M  V30 7 2 7 8
M  V30 8 1 8 9
M  V30 9 1 9 10
M  V30 10 2 10 11
M  V30 11 1 11 12
M  V30 12 2 12 13
M  V30 13 1 13 14
M  V30 14 2 14 15
M  V30 15 1 14 16
M  V30 16 1 16 17
M  V30 17 2 17 18
M  V30 18 1 18 19
M  V30 19 2 19 20
M  V30 20 1 20 21
M  V30 21 2 21 22
M  V30 22 1 13 23
M  V30 23 1 8 24
M  V30 24 3 24 25
M  V30 25 1 7 26
M  V30 26 1 9 3
M  V30 27 1 15 10
M  V30 28 1 22 17
M  V30 29 1 5 27
M  V30 30 1 5 28
M  V30 31 1 9 29
M  V30 32 1 11 30
M  V30 33 1 12 31
M  V30 34 1 15 32
M  V30 35 1 18 33
M  V30 36 1 19 34
M  V30 37 1 20 35
M  V30 38 1 21 36
M  V30 39 1 22 37
M  V30 40 1 26 38
M  V30 41 1 26 39
M  V30 END BOND
M  V30 END CTAB
M  END
