
     RDKit          3D

  0  0  0  0  0  0  0  0  0  0999 V3000
M  V30 BEGIN CTAB
M  V30 COUNTS 28 29 0 0 0
M  V30 BEGIN ATOM
M  V30 1 N 5.12793 2.02266 0.961622 0
M  V30 2 C 4.14402 1.00466 0.918114 0
M  V30 3 N 3.57284 0.307394 1.89271 0
M  V30 4 C 2.68319 -0.58723 1.60982 0
M  V30 5 C 2.35564 -0.787823 0.294092 0
M  V30 6 S 3.37396 0.352243 -0.474012 0
M  V30 7 C 1.37609 -1.74304 -0.298104 0
M  V30 8 C 0.029327 -1.17995 -0.427474 0
M  V30 9 C -0.428562 -0.502684 -1.53197 0
M  V30 10 C -1.71268 -0.0015689 -1.57724 0
M  V30 11 C -2.58397 -0.164805 -0.509403 0
M  V30 12 C -2.14541 -0.833002 0.59108 0
M  V30 13 C -0.847763 -1.33641 0.630309 0
M  V30 14 S -4.21694 0.472548 -0.567213 0
M  V30 15 O -5.0827 -0.37565 0.310215 0
M  V30 16 O -4.76013 0.426455 -1.96784 0
M  V30 17 N -4.22477 2.08016 0.0551791 0
M  V30 18 H 5.62077 2.2121 1.84309 0
M  V30 19 H 5.3415 2.56338 0.113336 0
M  V30 20 H 2.18451 -1.18987 2.40324 0
M  V30 21 H 1.74543 -1.96065 -1.33073 0
M  V30 22 H 1.32549 -2.69313 0.235222 0
M  V30 23 H 0.264182 -0.38463 -2.35537 0
M  V30 24 H -2.06356 0.533731 -2.45924 0
M  V30 25 H -2.8365 -0.958024 1.42832 0
M  V30 26 H -0.572836 -1.85585 1.53966 0
M  V30 27 H -4.35296 2.0098 1.0891 0
M  V30 28 H -3.3161 2.56919 -0.0932105 0
M  V30 END ATOM
M  V30 BEGIN BOND
M  V30 1 1 1 2
M  V30 2 2 2 3
M  V30 3 1 3 4
M  V30 4 2 4 5
M  V30 5 1 5 6
M  V30 6 1 5 7
M  V30 7 1 7 8
M  V30 8 2 8 9
M  V30 9 1 9 10
M  V30 10 2 10 11
M  V30 11 1 11 12
M  V30 12 2 12 13
M  V30 13 1 11 14
M  V30 14 2 14 15
M  V30 15 2 14 16
M  V30 16 1 14 17
M  V30 17 1 6 2
M  V30 18 1 13 8
M  V30 19 1 1 18
M  V30 20 1 1 19
M  V30 21 1 4 20
M  V30 22 1 7 21
M  V30 23 1 7 22
M  V30 24 1 9 23
M  V30 25 1 10 24
M  V30 26 1 12 25
M  V30 27 1 13 26
M  V30 28 1 17 27
M  V30 29 1 17 28
M  V30 END BOND
M  V30 END CTAB
M  END
