
     RDKit          3D

  0  0  0  0  0  0  0  0  0  0999 V3000
M  V30 BEGIN CTAB
M  V30 COUNTS 30 31 0 0 0
M  V30 BEGIN ATOM
M  V30 1 N -2.52628 -3.63932 0.232302 0
M  V30 2 C -2.40514 -2.49348 0.0404706 0
M  V30 3 C -2.25057 -1.08317 -0.179222 0
M  V30 4 C -3.17501 -0.194895 0.329617 0
M  V30 5 N -4.28686 -0.655515 1.07689 0
M  V30 6 C -2.97427 1.15533 0.0867479 0
M  V30 7 C -1.88361 1.56475 -0.638526 0
M  V30 8 N -1.01218 0.673407 -1.11371 0
M  V30 9 C -1.16016 -0.649335 -0.906356 0
M  V30 10 S 0.0368134 -1.81477 -1.55617 0
M  V30 11 C 1.37126 -2.09805 -0.346526 0
M  V30 12 C 2.20177 -0.91596 -0.12571 0
M  V30 13 C 1.90533 0.021515 0.834028 0
M  V30 14 C 2.71898 1.14291 1.02565 0
M  V30 15 C 3.8403 1.3127 0.238427 0
M  V30 16 C 4.15799 0.400063 -0.719792 0
M  V30 17 C 3.34891 -0.685347 -0.888401 0
M  V30 18 Cl 5.59939 0.687251 -1.67618 0
M  V30 19 N -1.68489 2.97124 -0.882985 0
M  V30 20 H -5.0218 -1.19373 0.57361 0
M  V30 21 H -4.41129 -0.48676 2.09839 0
M  V30 22 H -3.65261 1.88768 0.451382 0
M  V30 23 H 0.916445 -2.50533 0.59018 0
M  V30 24 H 1.9968 -2.93865 -0.759321 0
M  V30 25 H 1.03169 -0.122417 1.43977 0
M  V30 26 H 2.45823 1.87218 1.79715 0
M  V30 27 H 4.46581 2.19453 0.403039 0
M  V30 28 H 3.59811 -1.42667 -1.65855 0
M  V30 29 H -2.47547 3.63829 -1.0002 0
M  V30 30 H -0.727663 3.38154 -0.952053 0
M  V30 END ATOM
M  V30 BEGIN BOND
M  V30 1 3 1 2
M  V30 2 1 2 3
M  V30 3 2 3 4
M  V30 4 1 4 5
M  V30 5 1 4 6
M  V30 6 2 6 7
M  V30 7 1 7 8
M  V30 8 2 8 9
M  V30 9 1 9 10
M  V30 10 1 10 11
M  V30 11 1 11 12
M  V30 12 2 12 13
M  V30 13 1 13 14
M  V30 14 2 14 15
M  V30 15 1 15 16
M  V30 16 2 16 17
M  V30 17 1 16 18
M  V30 18 1 7 19
M  V30 19 1 9 3
M  V30 20 1 17 12
M  V30 21 1 5 20
M  V30 22 1 5 21
M  V30 23 1 6 22
M  V30 24 1 11 23
M  V30 25 1 11 24
M  V30 26 1 13 25
M  V30 27 1 14 26
M  V30 28 1 15 27
M  V30 29 1 17 28
M  V30 30 1 19 29
M  V30 31 1 19 30
M  V30 END BOND
M  V30 END CTAB
M  END
