
     RDKit          3D

  0  0  0  0  0  0  0  0  0  0999 V3000
M  V30 BEGIN CTAB
M  V30 COUNTS 21 21 0 0 0
M  V30 BEGIN ATOM
M  V30 1 C 2.17529 -0.600972 -0.608642 0
M  V30 2 C 1.8167 0.0393376 0.736756 0
M  V30 3 S 0.195258 -0.342092 1.16014 0
M  V30 4 O 0.0976303 -1.84945 1.34367 0
M  V30 5 O -0.152275 0.257864 2.49142 0
M  V30 6 C -1.01649 0.207685 0.0115912 0
M  V30 7 C -1.41762 -0.587646 -1.01816 0
M  V30 8 N -0.937973 -1.93299 -1.30739 0
M  V30 9 N -2.33712 -0.0890061 -1.84124 0
M  V30 10 S -2.66938 1.43913 -1.24607 0
M  V30 11 C -1.60768 1.43318 0.0816589 0
M  V30 12 N -1.42986 2.49759 1.00959 0
M  V30 13 H 1.60926 -0.0566316 -1.37482 0
M  V30 14 H 3.26103 -0.438773 -0.821737 0
M  V30 15 H 2.01281 -1.67843 -0.578789 0
M  V30 16 H 2.50174 -0.433325 1.4723 0
M  V30 17 H 2.09887 1.08762 0.666875 0
M  V30 18 H -1.25244 -2.76731 -0.795953 0
M  V30 19 H -0.250463 -2.00867 -2.06935 0
M  V30 20 H -0.840487 3.30735 0.726056 0
M  V30 21 H -1.85681 2.51555 1.9621 0
M  V30 END ATOM
M  V30 BEGIN BOND
M  V30 1 1 1 2
M  V30 2 1 2 3
M  V30 3 2 3 4
M  V30 4 2 3 5
M  V30 5 1 3 6
M  V30 6 1 6 7
M  V30 7 1 7 8
M  V30 8 2 7 9
M  V30 9 1 9 10
M  V30 10 1 10 11
M  V30 11 1 11 12
M  V30 12 2 11 6
M  V30 13 1 1 13
M  V30 14 1 1 14
M  V30 15 1 1 15
M  V30 16 1 2 16
M  V30 17 1 2 17
M  V30 18 1 8 18
M  V30 19 1 8 19
M  V30 20 1 12 20
M  V30 21 1 12 21
M  V30 END BOND
M  V30 END CTAB
M  END
