
     RDKit          3D

  0  0  0  0  0  0  0  0  0  0999 V3000
M  V30 BEGIN CTAB
M  V30 COUNTS 26 26 0 0 0
M  V30 BEGIN ATOM
M  V30 1 N 3.65681 1.25989 -0.856427 0
M  V30 2 N 2.56733 0.401763 -0.967562 0
M  V30 3 C 1.74764 0.162619 0.148374 0
M  V30 4 O 1.99619 0.716472 1.23048 0
M  V30 5 C 0.592052 -0.746056 0.0346522 0
M  V30 6 C -0.719724 -0.0503031 0.180244 0
M  V30 7 C -0.989782 0.865661 1.15594 0
M  V30 8 C -2.23597 1.48206 1.23939 0
M  V30 9 C -3.22998 1.19337 0.351271 0
M  V30 10 C -2.95233 0.270818 -0.627823 0
M  V30 11 C -1.71401 -0.340886 -0.709861 0
M  V30 12 N 0.615153 -1.36537 -1.27476 0
M  V30 13 C 0.64907 -1.8649 1.06055 0
M  V30 14 H 4.09649 1.27763 0.0684654 0
M  V30 15 H 3.47017 2.19826 -1.27381 0
M  V30 16 H 2.34132 -0.0732478 -1.8671 0
M  V30 17 H -0.255274 1.12168 1.87454 0
M  V30 18 H -2.46122 2.21369 2.01322 0
M  V30 19 H -4.21179 1.64093 0.370316 0
M  V30 20 H -3.73093 0.00842793 -1.36763 0
M  V30 21 H -1.59171 -1.06773 -1.52762 0
M  V30 22 H 0.309809 -0.73811 -2.03467 0
M  V30 23 H 0.0222624 -2.20818 -1.23775 0
M  V30 24 H -0.221643 -1.83698 1.73355 0
M  V30 25 H 1.55023 -1.67176 1.70285 0
M  V30 26 H 0.699823 -2.84975 0.581179 0
M  V30 END ATOM
M  V30 BEGIN BOND
M  V30 1 1 1 2
M  V30 2 1 2 3
M  V30 3 2 3 4
M  V30 4 1 3 5
M  V30 5 1 5 6
M  V30 6 2 6 7
M  V30 7 1 7 8
M  V30 8 2 8 9
M  V30 9 1 9 10
M  V30 10 2 10 11
M  V30 11 1 5 12
M  V30 12 1 5 13
M  V30 13 1 11 6
M  V30 14 1 1 14
M  V30 15 1 1 15
M  V30 16 1 2 16
M  V30 17 1 7 17
M  V30 18 1 8 18
M  V30 19 1 9 19
M  V30 20 1 10 20
M  V30 21 1 11 21
M  V30 22 1 12 22
M  V30 23 1 12 23
M  V30 24 1 13 24
M  V30 25 1 13 25
M  V30 26 1 13 26
M  V30 END BOND
M  V30 END CTAB
M  END
