
     RDKit          3D

  0  0  0  0  0  0  0  0  0  0999 V3000
M  V30 BEGIN CTAB
M  V30 COUNTS 25 26 0 0 0
M  V30 BEGIN ATOM
M  V30 1 N 1.71647 -0.715733 -1.83778 0
M  V30 2 N 1.97751 0.00106294 -0.679896 0
M  V30 3 C 3.08383 -0.128772 0.0758657 0
M  V30 4 N 4.17104 -1.00573 -0.16354 0
M  V30 5 N 2.91619 0.749347 1.0864 0
M  V30 6 N 1.76397 1.38228 0.951575 0
M  V30 7 C 1.14799 0.92288 -0.166044 0
M  V30 8 C -0.155697 1.39017 -0.644744 0
M  V30 9 C -1.30234 0.665547 -0.144054 0
M  V30 10 C -1.93486 1.04715 1.0105 0
M  V30 11 C -3.0322 0.349094 1.48448 0
M  V30 12 C -3.50161 -0.74268 0.795545 0
M  V30 13 C -2.88873 -1.14193 -0.356311 0
M  V30 14 C -1.78744 -0.427407 -0.816313 0
M  V30 15 H 1.97569 -0.403672 -2.79273 0
M  V30 16 H 1.22154 -1.63837 -1.73527 0
M  V30 17 H 4.41186 -1.81332 0.442844 0
M  V30 18 H 4.75297 -0.80432 -1.01286 0
M  V30 19 H -0.184983 1.38244 -1.7709 0
M  V30 20 H -0.250467 2.48105 -0.379124 0
M  V30 21 H -1.59942 1.8974 1.58161 0
M  V30 22 H -3.53428 0.639995 2.38743 0
M  V30 23 H -4.36107 -1.28635 1.17022 0
M  V30 24 H -3.26101 -2.00241 -0.896646 0
M  V30 25 H -1.34494 -0.797732 -1.74024 0
M  V30 END ATOM
M  V30 BEGIN BOND
M  V30 1 1 1 2
M  V30 2 1 2 3
M  V30 3 1 3 4
M  V30 4 2 3 5
M  V30 5 1 5 6
M  V30 6 2 6 7
M  V30 7 1 7 8
M  V30 8 1 8 9
M  V30 9 2 9 10
M  V30 10 1 10 11
M  V30 11 2 11 12
M  V30 12 1 12 13
M  V30 13 2 13 14
M  V30 14 1 7 2
M  V30 15 1 14 9
M  V30 16 1 1 15
M  V30 17 1 1 16
M  V30 18 1 4 17
M  V30 19 1 4 18
M  V30 20 1 8 19
M  V30 21 1 8 20
M  V30 22 1 10 21
M  V30 23 1 11 22
M  V30 24 1 12 23
M  V30 25 1 13 24
M  V30 26 1 14 25
M  V30 END BOND
M  V30 END CTAB
M  END
