
     RDKit          3D

  0  0  0  0  0  0  0  0  0  0999 V3000
M  V30 BEGIN CTAB
M  V30 COUNTS 86 94 0 0 0
M  V30 BEGIN ATOM
M  V30 1 I -0.0194372 -4.91615 -5.25948 0
M  V30 2 C 1.01797 -3.57517 -4.00592 0
M  V30 3 C 1.30545 -3.93042 -2.71877 0
M  V30 4 C 1.98313 -3.06308 -1.88607 0
M  V30 5 C 2.40332 -1.81544 -2.2872 0
M  V30 6 C 2.10045 -1.46674 -3.60981 0
M  V30 7 C 1.42485 -2.3207 -4.45355 0
M  V30 8 C 3.12624 -0.923121 -1.40811 0
M  V30 9 N 4.43061 -0.58596 -1.66099 0
M  V30 10 C 5.12796 0.236705 -0.857147 0
M  V30 11 C 6.44044 0.578161 -1.11136 0
M  V30 12 C 7.15782 1.42542 -0.28588 0
M  V30 13 C 6.57269 1.96643 0.839601 0
M  V30 14 C 5.26097 1.62246 1.08976 0
M  V30 15 C 4.54129 0.777814 0.269445 0
M  V30 16 N 3.26504 0.443348 0.510103 0
M  V30 17 C 2.54477 -0.394606 -0.303531 0
M  V30 18 C 1.15779 -0.698016 0.0159323 0
M  V30 19 C 0.846461 -1.41259 1.16004 0
M  V30 20 C -0.484667 -1.63186 1.43379 0
M  V30 21 C -1.50597 -1.1773 0.628983 0
M  V30 22 C -1.13534 -0.473573 -0.497357 0
M  V30 23 C 0.177568 -0.216706 -0.833023 0
M  V30 24 C -2.91256 -1.36096 0.908403 0
M  V30 25 N -3.70734 -0.260514 1.08696 0
M  V30 26 C -5.01785 -0.338129 1.353 0
M  V30 27 C -5.78254 0.796473 1.52739 0
M  V30 28 C -7.1319 0.719357 1.80218 0
M  V30 29 C -7.68117 -0.539586 1.89457 0
M  V30 30 C -6.91168 -1.67989 1.71929 0
M  V30 31 C -5.56181 -1.60178 1.44447 0
M  V30 32 N -4.79299 -2.68415 1.27134 0
M  V30 33 C -3.45377 -2.61754 0.999693 0
M  V30 34 C -2.71095 -3.8588 0.829543 0
M  V30 35 C -2.58686 -4.69277 1.91989 0
M  V30 36 C -1.8975 -5.90178 1.80303 0
M  V30 37 C -1.34104 -6.27315 0.618166 0
M  V30 38 C -1.4523 -5.4655 -0.466972 0
M  V30 39 C -2.13972 -4.25671 -0.354954 0
M  V30 40 I -0.303827 -8.12037 0.48962 0
M  V30 41 O -7.89681 1.85155 1.97712 0
M  V30 42 C -8.55449 2.53177 0.973336 0
M  V30 43 C -8.52186 2.16657 -0.357229 0
M  V30 44 C -9.20369 2.89236 -1.3112 0
M  V30 45 C -9.94407 4.00616 -0.993913 0
M  V30 46 C -9.98629 4.38664 0.343401 0
M  V30 47 C -9.30324 3.65438 1.28104 0
M  V30 48 N -10.6571 4.77193 -1.96473 0
M  V30 49 O 7.23557 2.82233 1.70783 0
M  V30 50 C 8.52507 3.22283 1.52971 0
M  V30 51 C 8.79012 4.35861 0.806542 0
M  V30 52 C 10.085 4.79846 0.603603 0
M  V30 53 C 11.092 4.04017 1.16289 0
M  V30 54 C 10.8561 2.89793 1.89234 0
M  V30 55 C 9.55639 2.49864 2.06846 0
M  V30 56 N 12.4616 4.43698 0.993887 0
M  V30 57 H 0.983271 -4.90838 -2.38776 0
M  V30 58 H 2.19549 -3.37951 -0.875865 0
M  V30 59 H 2.41672 -0.496371 -3.94982 0
M  V30 60 H 1.18102 -2.0763 -5.47465 0
M  V30 61 H 6.89397 0.14389 -2.00552 0
M  V30 62 H 8.19489 1.67812 -0.511024 0
M  V30 63 H 4.77664 2.0323 1.96532 0
M  V30 64 H 1.66852 -1.75423 1.7692 0
M  V30 65 H -0.726035 -2.19753 2.34206 0
M  V30 66 H -1.91437 -0.102323 -1.15375 0
M  V30 67 H 0.393637 0.350101 -1.73758 0
M  V30 68 H -5.33723 1.79664 1.4522 0
M  V30 69 H -8.73941 -0.61631 2.10938 0
M  V30 70 H -7.35191 -2.66697 1.79484 0
M  V30 71 H -2.99725 -4.47285 2.88933 0
M  V30 72 H -1.80822 -6.54387 2.66466 0
M  V30 73 H -1.00351 -5.78448 -1.38886 0
M  V30 74 H -2.22397 -3.62551 -1.21039 0
M  V30 75 H -7.96073 1.30915 -0.656893 0
M  V30 76 H -9.17971 2.60726 -2.36431 0
M  V30 77 H -10.5612 5.26348 0.644336 0
M  V30 78 H -9.34385 3.96215 2.31831 0
M  V30 79 H -11.563 4.4185 -2.29885 0
M  V30 80 H -10.2032 5.65892 -2.2785 0
M  V30 81 H 8.0093 4.97072 0.35688 0
M  V30 82 H 10.3354 5.67754 0.0456552 0
M  V30 83 H 11.6764 2.31187 2.32653 0
M  V30 84 H 9.37011 1.58495 2.65243 0
M  V30 85 H 13.1278 3.91363 0.403793 0
M  V30 86 H 12.8025 5.29498 1.49025 0
M  V30 END ATOM
M  V30 BEGIN BOND
M  V30 1 1 1 2
M  V30 2 2 2 3
M  V30 3 1 3 4
M  V30 4 2 4 5
M  V30 5 1 5 6
M  V30 6 2 6 7
M  V30 7 1 5 8
M  V30 8 2 8 9
M  V30 9 1 9 10
M  V30 10 2 10 11
M  V30 11 1 11 12
M  V30 12 2 12 13
M  V30 13 1 13 14
M  V30 14 2 14 15
M  V30 15 1 15 16
M  V30 16 2 16 17
M  V30 17 1 17 18
M  V30 18 2 18 19
M  V30 19 1 19 20
M  V30 20 2 20 21
M  V30 21 1 21 22
M  V30 22 2 22 23
M  V30 23 1 21 24
M  V30 24 2 24 25
M  V30 25 1 25 26
M  V30 26 2 26 27
M  V30 27 1 27 28
M  V30 28 2 28 29
M  V30 29 1 29 30
M  V30 30 2 30 31
M  V30 31 1 31 32
M  V30 32 2 32 33
M  V30 33 1 33 34
M  V30 34 2 34 35
M  V30 35 1 35 36
M  V30 36 2 36 37
M  V30 37 1 37 38
M  V30 38 2 38 39
M  V30 39 1 37 40
M  V30 40 1 28 41
M  V30 41 1 41 42
M  V30 42 2 42 43
M  V30 43 1 43 44
M  V30 44 2 44 45
M  V30 45 1 45 46
M  V30 46 2 46 47
M  V30 47 1 45 48
M  V30 48 1 13 49
M  V30 49 1 49 50
M  V30 50 2 50 51
M  V30 51 1 51 52
M  V30 52 2 52 53
M  V30 53 1 53 54
M  V30 54 2 54 55
M  V30 55 1 53 56
M  V30 56 1 7 2
M  V30 57 1 17 8
M  V30 58 1 23 18
M  V30 59 1 33 24
M  V30 60 1 39 34
M  V30 61 1 47 42
M  V30 62 1 55 50
M  V30 63 1 15 10
M  V30 64 1 31 26
M  V30 65 1 3 57
M  V30 66 1 4 58
M  V30 67 1 6 59
M  V30 68 1 7 60
M  V30 69 1 11 61
M  V30 70 1 12 62
M  V30 71 1 14 63
M  V30 72 1 19 64
M  V30 73 1 20 65
M  V30 74 1 22 66
M  V30 75 1 23 67
M  V30 76 1 27 68
M  V30 77 1 29 69
M  V30 78 1 30 70
M  V30 79 1 35 71
M  V30 80 1 36 72
M  V30 81 1 38 73
M  V30 82 1 39 74
M  V30 83 1 43 75
M  V30 84 1 44 76
M  V30 85 1 46 77
M  V30 86 1 47 78
M  V30 87 1 48 79
M  V30 88 1 48 80
M  V30 89 1 51 81
M  V30 90 1 52 82
M  V30 91 1 54 83
M  V30 92 1 55 84
M  V30 93 1 56 85
M  V30 94 1 56 86
M  V30 END BOND
M  V30 END CTAB
M  END
