
     RDKit          3D

  0  0  0  0  0  0  0  0  0  0999 V3000
M  V30 BEGIN CTAB
M  V30 COUNTS 17 17 0 0 0
M  V30 BEGIN ATOM
M  V30 1 N 2.73071 0.00173646 0.386707 0
M  V30 2 N 1.72234 -0.524637 -0.366294 0
M  V30 3 C 0.338649 -0.565592 -0.0601053 0
M  V30 4 N -0.295665 -1.65282 0.443051 0
M  V30 5 C -1.61174 -1.64587 0.719154 0
M  V30 6 N -2.31625 -0.529194 0.48723 0
M  V30 7 C -1.77464 0.5931 -0.00854385 0
M  V30 8 O -2.44685 1.64301 -0.227007 0
M  V30 9 C -0.404262 0.565379 -0.28695 0
M  V30 10 N 0.227848 1.72164 -0.789948 0
M  V30 11 H 2.99544 -0.453402 1.25243 0
M  V30 12 H 3.41836 0.558755 -0.116447 0
M  V30 13 H 1.96742 -0.969887 -1.30345 0
M  V30 14 H -2.10685 -2.54664 1.1299 0
M  V30 15 H -3.35038 -0.538316 0.703327 0
M  V30 16 H -0.319781 2.6026 -0.897233 0
M  V30 17 H 1.22566 1.74014 -1.06582 0
M  V30 END ATOM
M  V30 BEGIN BOND
M  V30 1 1 1 2
M  V30 2 1 2 3
M  V30 3 1 3 4
M  V30 4 2 4 5
M  V30 5 1 5 6
M  V30 6 1 6 7
M  V30 7 2 7 8
M  V30 8 1 7 9
M  V30 9 1 9 10
M  V30 10 2 9 3
M  V30 11 1 1 11
M  V30 12 1 1 12
M  V30 13 1 2 13
M  V30 14 1 5 14
M  V30 15 1 6 15
M  V30 16 1 10 16
M  V30 17 1 10 17
M  V30 END BOND
M  V30 END CTAB
M  END
