
     RDKit          3D

  0  0  0  0  0  0  0  0  0  0999 V3000
M  V30 BEGIN CTAB
M  V30 COUNTS 27 28 0 0 0
M  V30 BEGIN ATOM
M  V30 1 N -4.10701 2.11408 -0.916273 0
M  V30 2 C -3.05706 1.1975 -0.6301 0
M  V30 3 N -3.23203 0.0738607 0.0599964 0
M  V30 4 C -2.21656 -0.791313 0.325269 0
M  V30 5 N -2.45188 -1.99655 1.07912 0
M  V30 6 C -0.966092 -0.497022 -0.134835 0
M  V30 7 C 0.153689 -1.43623 0.162977 0
M  V30 8 C 1.46136 -0.695687 0.131264 0
M  V30 9 C 2.38609 -0.883476 -0.876511 0
M  V30 10 C 3.5494 -0.135061 -0.803669 0
M  V30 11 Cl 4.75105 -0.360536 -2.04995 0
M  V30 12 C 3.80474 0.766265 0.212773 0
M  V30 13 Cl 5.28772 1.67483 0.240695 0
M  V30 14 C 2.86566 0.936963 1.20543 0
M  V30 15 Cl 3.21498 2.09908 2.46923 0
M  V30 16 C 1.70458 0.203747 1.15328 0
M  V30 17 C -0.761795 0.667939 -0.854335 0
M  V30 18 N -1.81311 1.46884 -1.0739 0
M  V30 19 H -3.92265 3.07528 -1.25988 0
M  V30 20 H -5.11119 1.85534 -0.791614 0
M  V30 21 H -2.77872 -2.87084 0.570595 0
M  V30 22 H -2.30528 -2.01141 2.11786 0
M  V30 23 H 0.0399975 -1.83903 1.1843 0
M  V30 24 H 0.16294 -2.25554 -0.585209 0
M  V30 25 H 2.15664 -1.5924 -1.65303 0
M  V30 26 H 0.969648 0.330832 1.92816 0
M  V30 27 H 0.214874 0.900531 -1.21162 0
M  V30 END ATOM
M  V30 BEGIN BOND
M  V30 1 1 1 2
M  V30 2 2 2 3
M  V30 3 1 3 4
M  V30 4 1 4 5
M  V30 5 2 4 6
M  V30 6 1 6 7
M  V30 7 1 7 8
M  V30 8 2 8 9
M  V30 9 1 9 10
M  V30 10 1 10 11
M  V30 11 2 10 12
M  V30 12 1 12 13
M  V30 13 1 12 14
M  V30 14 1 14 15
M  V30 15 2 14 16
M  V30 16 1 6 17
M  V30 17 2 17 18
M  V30 18 1 18 2
M  V30 19 1 16 8
M  V30 20 1 1 19
M  V30 21 1 1 20
M  V30 22 1 5 21
M  V30 23 1 5 22
M  V30 24 1 7 23
M  V30 25 1 7 24
M  V30 26 1 9 25
M  V30 27 1 16 26
M  V30 28 1 17 27
M  V30 END BOND
M  V30 END CTAB
M  END
