
     RDKit          3D

  0  0  0  0  0  0  0  0  0  0999 V3000
M  V30 BEGIN CTAB
M  V30 COUNTS 31 32 0 0 0
M  V30 BEGIN ATOM
M  V30 1 N -1.08941 -2.67847 -2.79763 0
M  V30 2 C -1.30843 -1.97431 -1.90441 0
M  V30 3 C -1.56049 -1.08316 -0.776622 0
M  V30 4 C -2.28917 -1.60238 0.191978 0
M  V30 5 N -2.79143 -2.94135 0.133207 0
M  V30 6 S -2.61117 -0.540076 1.57714 0
M  V30 7 C -2.2155 1.12622 1.10296 0
M  V30 8 C -1.50237 1.28234 0.0185046 0
M  V30 9 C -0.989696 0.243338 -0.854033 0
M  V30 10 C 0.499537 0.233863 -0.731789 0
M  V30 11 C 1.31823 0.605552 -1.7767 0
M  V30 12 C 2.69568 0.61054 -1.70429 0
M  V30 13 C 3.29054 0.219907 -0.514045 0
M  V30 14 C 2.5118 -0.159569 0.556389 0
M  V30 15 C 1.14472 -0.147015 0.432852 0
M  V30 16 C 3.19837 -0.567636 1.80392 0
M  V30 17 C -1.18698 2.65706 -0.356011 0
M  V30 18 N -0.935853 3.75141 -0.635394 0
M  V30 19 N -2.66456 2.22407 1.8824 0
M  V30 20 H -2.20259 -3.78025 0.201235 0
M  V30 21 H -3.82742 -3.06341 0.0129499 0
M  V30 22 H -1.18815 0.597295 -1.91414 0
M  V30 23 H 0.877116 0.92081 -2.73482 0
M  V30 24 H 3.27299 0.916178 -2.56962 0
M  V30 25 H 4.374 0.212594 -0.42391 0
M  V30 26 H 0.567268 -0.445305 1.27635 0
M  V30 27 H 3.81883 0.317799 2.12309 0
M  V30 28 H 2.47895 -0.879765 2.55668 0
M  V30 29 H 3.9313 -1.36274 1.51376 0
M  V30 30 H -2.22106 3.15596 1.71798 0
M  V30 31 H -3.39506 2.15051 2.592 0
M  V30 END ATOM
M  V30 BEGIN BOND
M  V30 1 3 1 2
M  V30 2 1 2 3
M  V30 3 2 3 4
M  V30 4 1 4 5
M  V30 5 1 4 6
M  V30 6 1 6 7
M  V30 7 2 7 8
M  V30 8 1 8 9
M  V30 9 1 9 10
M  V30 10 2 10 11
M  V30 11 1 11 12
M  V30 12 2 12 13
M  V30 13 1 13 14
M  V30 14 2 14 15
M  V30 15 1 14 16
M  V30 16 1 8 17
M  V30 17 3 17 18
M  V30 18 1 7 19
M  V30 19 1 9 3
M  V30 20 1 15 10
M  V30 21 1 5 20
M  V30 22 1 5 21
M  V30 23 1 9 22
M  V30 24 1 11 23
M  V30 25 1 12 24
M  V30 26 1 13 25
M  V30 27 1 15 26
M  V30 28 1 16 27
M  V30 29 1 16 28
M  V30 30 1 16 29
M  V30 31 1 19 30
M  V30 32 1 19 31
M  V30 END BOND
M  V30 END CTAB
M  END
