
     RDKit          3D

  0  0  0  0  0  0  0  0  0  0999 V3000
M  V30 BEGIN CTAB
M  V30 COUNTS 52 55 0 0 0
M  V30 BEGIN ATOM
M  V30 1 C 7.26281 1.58175 1.50397 0
M  V30 2 C 7.08492 1.2557 -0.0272029 0
M  V30 3 O 8.03198 1.58705 -0.718853 0
M  V30 4 N 5.90037 0.680522 -0.268105 0
M  V30 5 C 4.68633 0.0910114 -0.515155 0
M  V30 6 C 3.72116 0.557485 -1.35789 0
M  V30 7 C 2.50566 -0.066926 -1.5563 0
M  V30 8 C 2.24004 -1.25382 -0.858168 0
M  V30 9 C 3.19697 -1.74024 -0.00491405 0
M  V30 10 C 4.39204 -1.10843 0.181996 0
M  V30 11 C 1.01613 -1.99081 -1.03012 0
M  V30 12 N -0.00491683 -1.75572 0.00347296 0
M  V30 13 C -1.0503 -2.72096 -0.371704 0
M  V30 14 C -1.934 -3.02872 0.799048 0
M  V30 15 O -3.02304 -2.13858 0.715734 0
M  V30 16 C -2.52094 -0.942056 1.2455 0
M  V30 17 C -1.82545 -0.10599 0.254281 0
M  V30 18 C -0.445134 -0.411302 -0.12552 0
M  V30 19 O -2.61981 -0.1472 -0.949005 0
M  V30 20 C -3.78474 0.587699 -0.700425 0
M  V30 21 C -3.48941 1.50255 0.262576 0
M  V30 22 C -2.06692 1.35994 0.624146 0
M  V30 23 C -4.50675 2.35353 0.683289 0
M  V30 24 N -4.19608 3.27984 1.70519 0
M  V30 25 N -5.73642 2.24352 0.113334 0
M  V30 26 C -6.00749 1.33377 -0.8483 0
M  V30 27 N -5.01271 0.521655 -1.22727 0
M  V30 28 N -7.28165 1.23725 -1.4929 0
M  V30 29 H 6.28983 2.10581 1.7357 0
M  V30 30 H 8.12379 2.23416 1.58383 0
M  V30 31 H 7.33544 0.592595 1.98795 0
M  V30 32 H 6.1841 0.64877 -1.61309 0
M  V30 33 H 3.95042 1.50331 -1.88585 0
M  V30 34 H 1.80659 0.336792 -2.22394 0
M  V30 35 H 2.99161 -2.63579 0.531535 0
M  V30 36 H 5.16294 -1.46862 0.848046 0
M  V30 37 H 0.505449 -1.76284 -2.00026 0
M  V30 38 H 1.21589 -3.10052 -1.0851 0
M  V30 39 H -0.544714 -3.66683 -0.746037 0
M  V30 40 H -1.64593 -2.34996 -1.20792 0
M  V30 41 H -2.28342 -4.08122 0.811111 0
M  V30 42 H -1.35709 -2.83855 1.72734 0
M  V30 43 H -3.42177 -0.399231 1.60762 0
M  V30 44 H -1.92425 -1.18358 2.16457 0
M  V30 45 H -0.242472 -0.072259 -1.18647 0
M  V30 46 H 0.250544 0.218808 0.500084 0
M  V30 47 H -1.89014 1.42139 1.72302 0
M  V30 48 H -1.40521 2.02509 0.0329951 0
M  V30 49 H -3.48003 4.03832 1.50055 0
M  V30 50 H -4.65868 3.22125 2.645 0
M  V30 51 H -7.60958 2.04992 -2.07928 0
M  V30 52 H -7.88595 0.400655 -1.41209 0
M  V30 END ATOM
M  V30 BEGIN BOND
M  V30 1 1 1 2
M  V30 2 2 2 3
M  V30 3 1 2 4
M  V30 4 1 4 5
M  V30 5 2 5 6
M  V30 6 1 6 7
M  V30 7 2 7 8
M  V30 8 1 8 9
M  V30 9 2 9 10
M  V30 10 1 8 11
M  V30 11 1 11 12
M  V30 12 1 12 13
M  V30 13 1 13 14
M  V30 14 1 14 15
M  V30 15 1 15 16
M  V30 16 1 16 17
M  V30 17 1 17 18
M  V30 18 1 17 19
M  V30 19 1 19 20
M  V30 20 2 20 21
M  V30 21 1 21 22
M  V30 22 1 21 23
M  V30 23 1 23 24
M  V30 24 2 23 25
M  V30 25 1 25 26
M  V30 26 2 26 27
M  V30 27 1 26 28
M  V30 28 1 10 5
M  V30 29 1 18 12
M  V30 30 1 27 20
M  V30 31 1 22 17
M  V30 32 1 1 29
M  V30 33 1 1 30
M  V30 34 1 1 31
M  V30 35 1 4 32
M  V30 36 1 6 33
M  V30 37 1 7 34
M  V30 38 1 9 35
M  V30 39 1 10 36
M  V30 40 1 11 37
M  V30 41 1 11 38
M  V30 42 1 13 39
M  V30 43 1 13 40
M  V30 44 1 14 41
M  V30 45 1 14 42
M  V30 46 1 16 43
M  V30 47 1 16 44
M  V30 48 1 18 45
M  V30 49 1 18 46
M  V30 50 1 22 47
M  V30 51 1 22 48
M  V30 52 1 24 49
M  V30 53 1 24 50
M  V30 54 1 28 51
M  V30 55 1 28 52
M  V30 END BOND
M  V30 END CTAB
M  END
