
     RDKit          3D

  0  0  0  0  0  0  0  0  0  0999 V3000
M  V30 BEGIN CTAB
M  V30 COUNTS 23 24 0 0 0
M  V30 BEGIN ATOM
M  V30 1 C -1.91082 -2.23104 -0.152816 0
M  V30 2 C -2.06779 -0.77973 -0.123665 0
M  V30 3 N -3.3421 -0.292641 -0.0971365 0
M  V30 4 N -3.65264 0.964885 -0.0694664 0
M  V30 5 C -2.68551 1.89158 -0.065459 0
M  V30 6 C -1.35553 1.45103 -0.0918967 0
M  V30 7 C -1.00875 0.127604 -0.121304 0
M  V30 8 C 0.356096 -0.3853 -0.149848 0
M  V30 9 N 0.735594 -1.67487 -0.18107 0
M  V30 10 N 2.03121 -1.77476 -0.200159 0
M  V30 11 C 2.53991 -0.545262 -0.181852 0
M  V30 12 N 1.48847 0.327561 -0.150258 0
M  V30 13 N 1.73272 1.69725 -0.12554 0
M  V30 14 N 3.91955 -0.250089 -0.19401 0
M  V30 15 H -1.43833 -2.64972 -1.06106 0
M  V30 16 H -1.43411 -2.55948 0.801425 0
M  V30 17 H -2.93969 -2.69809 -0.104277 0
M  V30 18 H -2.88043 2.95263 -0.0430216 0
M  V30 19 H -0.624681 2.2137 -0.0877685 0
M  V30 20 H 2.05985 2.16441 0.756091 0
M  V30 21 H 1.61324 2.33092 -0.94669 0
M  V30 22 H 4.42404 -0.0883974 0.696844 0
M  V30 23 H 4.4397 -0.192185 -1.08766 0
M  V30 END ATOM
M  V30 BEGIN BOND
M  V30 1 1 1 2
M  V30 2 2 2 3
M  V30 3 1 3 4
M  V30 4 2 4 5
M  V30 5 1 5 6
M  V30 6 2 6 7
M  V30 7 1 7 8
M  V30 8 2 8 9
M  V30 9 1 9 10
M  V30 10 2 10 11
M  V30 11 1 11 12
M  V30 12 1 12 13
M  V30 13 1 11 14
M  V30 14 1 7 2
M  V30 15 1 12 8
M  V30 16 1 1 15
M  V30 17 1 1 16
M  V30 18 1 1 17
M  V30 19 1 5 18
M  V30 20 1 6 19
M  V30 21 1 13 20
M  V30 22 1 13 21
M  V30 23 1 14 22
M  V30 24 1 14 23
M  V30 END BOND
M  V30 END CTAB
M  END
