
     RDKit          3D

  0  0  0  0  0  0  0  0  0  0999 V3000
M  V30 BEGIN CTAB
M  V30 COUNTS 30 30 0 0 0
M  V30 BEGIN ATOM
M  V30 1 O -0.93681 -1.66654 -1.36425 0
M  V30 2 C -1.66044 -1.22428 -0.264 0
M  V30 3 C -2.85398 -0.385984 -0.66606 0
M  V30 4 C -2.66612 1.08243 -0.617696 0
M  V30 5 C -1.78381 1.6332 0.440137 0
M  V30 6 C -1.36814 0.603008 1.46497 0
M  V30 7 C -0.764666 -0.533369 0.687977 0
M  V30 8 S 0.756272 0.0445727 -0.0695428 0
M  V30 9 C 2.20254 -0.625494 0.736828 0
M  V30 10 N 3.34256 -0.441138 0.186853 0
M  V30 11 C 3.57654 0.249356 -1.00725 0
M  V30 12 N 3.91343 -0.392278 -2.07479 0
M  V30 13 N 3.45725 1.66998 -1.12184 0
M  V30 14 N 2.15396 -1.34495 1.95098 0
M  V30 15 H -1.25752 -2.52132 -1.73759 0
M  V30 16 H -2.09927 -2.15123 0.198667 0
M  V30 17 H -3.75699 -0.673698 -0.0671993 0
M  V30 18 H -3.11528 -0.666709 -1.70152 0
M  V30 19 H -3.69105 1.53901 -0.460446 0
M  V30 20 H -2.35579 1.5064 -1.6118 0
M  V30 21 H -0.821947 2.0035 -0.0188788 0
M  V30 22 H -2.18415 2.49011 1.00529 0
M  V30 23 H -2.17989 0.280505 2.13495 0
M  V30 24 H -0.51298 1.047 2.04228 0
M  V30 25 H -0.492071 -1.29903 1.50018 0
M  V30 26 H 4.02848 -1.43402 -2.09909 0
M  V30 27 H 2.57405 2.05073 -1.51573 0
M  V30 28 H 4.19605 2.32488 -0.83702 0
M  V30 29 H 1.8025 -2.30293 2.05551 0
M  V30 30 H 2.49726 -0.861715 2.83008 0
M  V30 END ATOM
M  V30 BEGIN BOND
M  V30 1 1 1 2
M  V30 2 1 2 3
M  V30 3 1 3 4
M  V30 4 1 4 5
M  V30 5 1 5 6
M  V30 6 1 6 7
M  V30 7 1 7 8
M  V30 8 1 8 9
M  V30 9 2 9 10 CFG=2
M  V30 10 1 10 11
M  V30 11 2 11 12 CFG=2
M  V30 12 1 11 13
M  V30 13 1 9 14
M  V30 14 1 7 2
M  V30 15 1 1 15
M  V30 16 1 2 16
M  V30 17 1 3 17
M  V30 18 1 3 18
M  V30 19 1 4 19
M  V30 20 1 4 20
M  V30 21 1 5 21
M  V30 22 1 5 22
M  V30 23 1 6 23
M  V30 24 1 6 24
M  V30 25 1 7 25
M  V30 26 1 12 26
M  V30 27 1 13 27
M  V30 28 1 13 28
M  V30 29 1 14 29
M  V30 30 1 14 30
M  V30 END BOND
M  V30 END CTAB
M  END
