
     RDKit          3D

  0  0  0  0  0  0  0  0  0  0999 V3000
M  V30 BEGIN CTAB
M  V30 COUNTS 19 19 0 0 0
M  V30 BEGIN ATOM
M  V30 1 N 2.99505 0.731933 -0.271792 0
M  V30 2 C 1.71083 0.165491 -0.113248 0
M  V30 3 C 1.52009 -1.19607 0.10495 0
M  V30 4 C 0.252149 -1.70381 0.253588 0
M  V30 5 C -0.880523 -0.918463 0.19758 0
M  V30 6 C -0.704021 0.431412 -0.0180378 0
M  V30 7 C 0.567781 0.941981 -0.167322 0
M  V30 8 Br 0.827438 2.82409 -0.468654 0
M  V30 9 C -1.88701 1.34227 -0.0904122 0
M  V30 10 F -1.77584 2.29558 0.901694 0
M  V30 11 F -1.83674 1.93264 -1.35641 0
M  V30 12 N -2.17802 -1.48701 0.357137 0
M  V30 13 H 3.47284 1.33131 0.433086 0
M  V30 14 H 3.50758 0.53942 -1.15788 0
M  V30 15 H 2.40916 -1.82985 0.151543 0
M  V30 16 H 0.0873987 -2.76378 0.424365 0
M  V30 17 H -2.83003 0.812146 0.0433348 0
M  V30 18 H -2.33691 -2.40872 -0.142613 0
M  V30 19 H -2.92122 -1.04056 0.919086 0
M  V30 END ATOM
M  V30 BEGIN BOND
M  V30 1 1 1 2
M  V30 2 2 2 3
M  V30 3 1 3 4
M  V30 4 2 4 5
M  V30 5 1 5 6
M  V30 6 2 6 7
M  V30 7 1 7 8
M  V30 8 1 6 9
M  V30 9 1 9 10
M  V30 10 1 9 11
M  V30 11 1 5 12
M  V30 12 1 7 2
M  V30 13 1 1 13
M  V30 14 1 1 14
M  V30 15 1 3 15
M  V30 16 1 4 16
M  V30 17 1 9 17
M  V30 18 1 12 18
M  V30 19 1 12 19
M  V30 END BOND
M  V30 END CTAB
M  END
