
     RDKit          3D

  0  0  0  0  0  0  0  0  0  0999 V3000
M  V30 BEGIN CTAB
M  V30 COUNTS 29 29 0 0 0
M  V30 BEGIN ATOM
M  V30 1 N -2.50403 -1.93163 -0.348589 0
M  V30 2 C -2.54758 -0.487282 -0.302309 0
M  V30 3 C -1.23252 0.101605 0.202401 0
M  V30 4 C -0.0858873 -0.287184 -0.691501 0
M  V30 5 C 1.17068 0.294694 -0.200991 0
M  V30 6 C 1.65207 -0.0781072 1.15066 0
M  V30 7 O 3.04924 -0.0318254 1.12946 0
M  V30 8 C 3.43039 0.508459 -0.0741631 0
M  V30 9 C 2.39966 -0.121595 -1.02545 0
M  V30 10 N -1.05471 -0.348422 1.54166 0
M  V30 11 C -1.40106 1.6189 0.10896 0
M  V30 12 H -3.23341 -2.2537 -1.05126 0
M  V30 13 H -2.68796 -2.37188 0.579939 0
M  V30 14 H -2.76151 -0.0793074 -1.3062 0
M  V30 15 H -3.32964 -0.10586 0.387977 0
M  V30 16 H -0.0264889 -1.39059 -0.819762 0
M  V30 17 H -0.288741 0.101495 -1.7294 0
M  V30 18 H 1.17981 1.4151 -0.293173 0
M  V30 19 H 1.28694 0.595981 1.95035 0
M  V30 20 H 1.35034 -1.11645 1.46147 0
M  V30 21 H 4.44541 0.304629 -0.375256 0
M  V30 22 H 3.17771 1.6016 -0.0410596 0
M  V30 23 H 2.57123 -1.20444 -0.981234 0
M  V30 24 H 2.4126 0.326935 -2.01104 0
M  V30 25 H -1.13495 0.385876 2.27051 0
M  V30 26 H -1.46959 -1.25451 1.77527 0
M  V30 27 H -0.629906 2.11903 0.712926 0
M  V30 28 H -1.3099 1.85678 -0.989577 0
M  V30 29 H -2.42821 1.8317 0.432952 0
M  V30 END ATOM
M  V30 BEGIN BOND
M  V30 1 1 1 2
M  V30 2 1 2 3
M  V30 3 1 3 4
M  V30 4 1 4 5
M  V30 5 1 5 6
M  V30 6 1 6 7
M  V30 7 1 7 8
M  V30 8 1 8 9
M  V30 9 1 3 10
M  V30 10 1 3 11
M  V30 11 1 9 5
M  V30 12 1 1 12
M  V30 13 1 1 13
M  V30 14 1 2 14
M  V30 15 1 2 15
M  V30 16 1 4 16
M  V30 17 1 4 17
M  V30 18 1 5 18
M  V30 19 1 6 19
M  V30 20 1 6 20
M  V30 21 1 8 21
M  V30 22 1 8 22
M  V30 23 1 9 23
M  V30 24 1 9 24
M  V30 25 1 10 25
M  V30 26 1 10 26
M  V30 27 1 11 27
M  V30 28 1 11 28
M  V30 29 1 11 29
M  V30 END BOND
M  V30 END CTAB
M  END
