
     RDKit          3D

  0  0  0  0  0  0  0  0  0  0999 V3000
M  V30 BEGIN CTAB
M  V30 COUNTS 52 53 0 0 0
M  V30 BEGIN ATOM
M  V30 1 O -4.69836 0.322951 -1.55131 0
M  V30 2 C -4.1749 0.260297 -0.396051 0
M  V30 3 C -5.02126 0.471917 0.766 0
M  V30 4 C -4.54125 0.422385 2.04549 0
M  V30 5 C -5.33692 0.622206 3.16298 0
M  V30 6 C -6.67305 0.881875 2.95204 0
M  V30 7 C -7.16137 0.932973 1.66987 0
M  V30 8 C -6.36211 0.732995 0.567858 0
M  V30 9 N -6.90617 0.793872 -0.752141 0
M  V30 10 N -2.78257 -0.0155015 -0.320881 0
M  V30 11 C -2.00935 -0.213348 -1.50546 0
M  V30 12 C -0.531141 -0.508049 -1.22194 0
M  V30 13 C -0.384902 -1.73535 -0.430603 0
M  V30 14 C 0.91855 -2.22392 -0.00940624 0
M  V30 15 C 1.9688 -2.63837 -0.942974 0
M  V30 16 C 2.50551 -1.63251 -1.91254 0
M  V30 17 N 3.04703 -0.430411 -1.3117 0
M  V30 18 C 4.14967 -0.457854 -0.448683 0
M  V30 19 O 4.69657 -1.57473 -0.191581 0
M  V30 20 C 4.65944 0.762997 0.141447 0
M  V30 21 C 4.15335 2.01805 -0.0616861 0
M  V30 22 C 4.71763 3.14431 0.556745 0
M  V30 23 C 5.80285 3.01516 1.38993 0
M  V30 24 C 6.32364 1.7614 1.60483 0
M  V30 25 C 5.75585 0.664733 0.988232 0
M  V30 26 N 6.31824 -0.600605 1.23406 0
M  V30 27 H -3.48268 0.215719 2.18736 0
M  V30 28 H -4.88437 0.567358 4.14505 0
M  V30 29 H -7.28586 1.03661 3.83571 0
M  V30 30 H -8.22255 1.1398 1.51879 0
M  V30 31 H -6.95539 1.66716 -1.30239 0
M  V30 32 H -7.26249 -0.100179 -1.15297 0
M  V30 33 H -2.30081 -0.0736022 0.59959 0
M  V30 34 H -2.11002 0.684883 -2.14857 0
M  V30 35 H -2.46146 -1.0591 -2.08716 0
M  V30 36 H -0.207122 0.353098 -0.560885 0
M  V30 37 H -0.0524338 -0.447885 -2.19222 0
M  V30 38 H -0.912389 -2.55982 -0.993485 0
M  V30 39 H -1.02117 -1.60773 0.506295 0
M  V30 40 H 1.42002 -1.46828 0.70141 0
M  V30 41 H 0.782243 -3.10231 0.717853 0
M  V30 42 H 1.7039 -3.60294 -1.49293 0
M  V30 43 H 2.83866 -2.9948 -0.314231 0
M  V30 44 H 1.85182 -1.44242 -2.7792 0
M  V30 45 H 3.45284 -2.10007 -2.41284 0
M  V30 46 H 2.60536 0.510096 -1.5223 0
M  V30 47 H 3.29812 2.14572 -0.714187 0
M  V30 48 H 4.27607 4.11266 0.359848 0
M  V30 49 H 6.25753 3.88491 1.88239 0
M  V30 50 H 7.18219 1.68804 2.26847 0
M  V30 51 H 7.03008 -1.05955 0.632017 0
M  V30 52 H 6.02613 -1.16487 2.08261 0
M  V30 END ATOM
M  V30 BEGIN BOND
M  V30 1 2 1 2
M  V30 2 1 2 3
M  V30 3 2 3 4
M  V30 4 1 4 5
M  V30 5 2 5 6
M  V30 6 1 6 7
M  V30 7 2 7 8
M  V30 8 1 8 9
M  V30 9 1 2 10
M  V30 10 1 10 11
M  V30 11 1 11 12
M  V30 12 1 12 13
M  V30 13 1 13 14
M  V30 14 1 14 15
M  V30 15 1 15 16
M  V30 16 1 16 17
M  V30 17 1 17 18
M  V30 18 2 18 19
M  V30 19 1 18 20
M  V30 20 2 20 21
M  V30 21 1 21 22
M  V30 22 2 22 23
M  V30 23 1 23 24
M  V30 24 2 24 25
M  V30 25 1 25 26
M  V30 26 1 8 3
M  V30 27 1 25 20
M  V30 28 1 4 27
M  V30 29 1 5 28
M  V30 30 1 6 29
M  V30 31 1 7 30
M  V30 32 1 9 31
M  V30 33 1 9 32
M  V30 34 1 10 33
M  V30 35 1 11 34
M  V30 36 1 11 35
M  V30 37 1 12 36
M  V30 38 1 12 37
M  V30 39 1 13 38
M  V30 40 1 13 39
M  V30 41 1 14 40
M  V30 42 1 14 41
M  V30 43 1 15 42
M  V30 44 1 15 43
M  V30 45 1 16 44
M  V30 46 1 16 45
M  V30 47 1 17 46
M  V30 48 1 21 47
M  V30 49 1 22 48
M  V30 50 1 23 49
M  V30 51 1 24 50
M  V30 52 1 26 51
M  V30 53 1 26 52
M  V30 END BOND
M  V30 END CTAB
M  END
