
     RDKit          3D

  0  0  0  0  0  0  0  0  0  0999 V3000
M  V30 BEGIN CTAB
M  V30 COUNTS 87 89 0 0 0
M  V30 BEGIN ATOM
M  V30 1 C 7.43448 -1.57514 -1.9804 0 CFG=2
M  V30 2 C 8.93134 -1.82946 -1.74929 0
M  V30 3 C 9.50956 -0.543542 -1.18737 0
M  V30 4 C 10.9587 -0.720416 -0.938531 0
M  V30 5 O 11.6929 0.339394 -0.410469 0
M  V30 6 O 11.4867 -1.82105 -1.21033 0
M  V30 7 N 6.87807 -1.24344 -0.701629 0
M  V30 8 C 6.40249 0.107979 -0.41087 0
M  V30 9 O 6.52446 0.907607 -1.35084 0
M  V30 10 C 5.87201 0.30405 0.912368 0
M  V30 11 C 5.35297 1.60852 1.29722 0
M  V30 12 C 4.16324 2.12839 0.602378 0 CFG=2
M  V30 13 N 3.09279 1.14235 0.766989 0
M  V30 14 C 2.3684 1.13917 1.98921 0
M  V30 15 O 2.68088 1.96534 2.90538 0
M  V30 16 C 1.26363 0.170534 2.1582 0
M  V30 17 C 0.907685 0.0794899 3.63402 0
M  V30 18 C -0.306407 -0.872309 3.71824 0 CFG=2
M  V30 19 N -1.34879 -0.206574 2.95289 0
M  V30 20 C -1.93814 -0.80503 1.82224 0
M  V30 21 O -1.58069 -1.93807 1.43623 0
M  V30 22 C -2.98265 -0.0446887 1.11767 0
M  V30 23 C -3.68346 0.90488 1.81793 0
M  V30 24 C -4.6416 1.66628 1.195 0
M  V30 25 C -4.95189 1.52204 -0.153845 0
M  V30 26 C -4.25008 0.572737 -0.84142 0
M  V30 27 C -3.27713 -0.201197 -0.213553 0
M  V30 28 N -5.93656 2.36703 -0.709448 0
M  V30 29 C -6.59831 3.33098 0.170888 0
M  V30 30 C -6.34643 2.36633 -2.07657 0
M  V30 31 C -7.01125 1.11266 -2.52463 0
M  V30 32 N -7.74903 0.355827 -1.69061 0
M  V30 33 C -8.34556 -0.770623 -2.12278 0
M  V30 34 C -8.23083 -1.20074 -3.42822 0
M  V30 35 N -7.48811 -0.445867 -4.28219 0
M  V30 36 C -6.89871 0.674918 -3.83985 0
M  V30 37 N -8.84197 -2.32589 -3.83056 0
M  V30 38 C -9.59127 -3.09196 -3.0033 0
M  V30 39 N -10.227 -4.27655 -3.46536 0
M  V30 40 N -9.69476 -2.66056 -1.73365 0
M  V30 41 C -9.1092 -1.54367 -1.26422 0
M  V30 42 N -9.23871 -1.11185 0.0797637 0
M  V30 43 C -0.650576 -1.02483 5.14429 0
M  V30 44 O 0.219529 -1.62338 6.02542 0
M  V30 45 O -1.74957 -0.603507 5.56004 0
M  V30 46 C 4.23754 2.73827 -0.696308 0
M  V30 47 O 5.11828 3.78819 -0.934209 0
M  V30 48 O 3.51633 2.35565 -1.64673 0
M  V30 49 C 6.76722 -2.77364 -2.51637 0
M  V30 50 O 7.15831 -3.29424 -3.72951 0
M  V30 51 O 5.84889 -3.32379 -1.87974 0
M  V30 52 H 7.33166 -0.686096 -2.64369 0
M  V30 53 H 9.4272 -2.02506 -2.69838 0
M  V30 54 H 9.04753 -2.59467 -0.977806 0
M  V30 55 H 9.04384 -0.255557 -0.225411 0
M  V30 56 H 9.31309 0.325196 -1.87803 0
M  V30 57 H 11.4081 1.28027 -0.639605 0
M  V30 58 H 6.81545 -1.9741 0.025386 0
M  V30 59 H 5.00809 -0.443555 1.04019 0
M  V30 60 H 6.62473 -0.0258901 1.71556 0
M  V30 61 H 6.17635 2.40083 1.36141 0
M  V30 62 H 5.05573 1.5324 2.40072 0
M  V30 63 H 3.79613 2.98761 1.31852 0
M  V30 64 H 2.86987 0.457533 0.00248904 0
M  V30 65 H 0.395904 0.456668 1.55071 0
M  V30 66 H 1.57834 -0.854503 1.83549 0
M  V30 67 H 1.76369 -0.322177 4.21273 0
M  V30 68 H 0.639305 1.05567 4.07684 0
M  V30 69 H -0.0364667 -1.86295 3.32472 0
M  V30 70 H -1.6097 0.743501 3.31029 0
M  V30 71 H -3.49939 1.07058 2.89195 0
M  V30 72 H -5.16036 2.40001 1.80708 0
M  V30 73 H -4.45043 0.417695 -1.88912 0
M  V30 74 H -2.70822 -0.966822 -0.760315 0
M  V30 75 H -5.80766 3.96045 0.626031 0
M  V30 76 H -7.30189 3.99065 -0.350824 0
M  V30 77 H -7.09646 2.80487 1.03407 0
M  V30 78 H -7.09194 3.17654 -2.29005 0
M  V30 79 H -5.49591 2.61579 -2.77111 0
M  V30 80 H -6.29109 1.31716 -4.48799 0
M  V30 81 H -10.9187 -4.2026 -4.23727 0
M  V30 82 H -10.0271 -5.21548 -3.061 0
M  V30 83 H -10.216 -1.06067 0.452052 0
M  V30 84 H -8.46294 -0.856516 0.692348 0
M  V30 85 H 1.05708 -2.13526 5.76578 0
M  V30 86 H 5.11496 4.60187 -0.299471 0
M  V30 87 H 7.98964 -3.88996 -3.83432 0
M  V30 END ATOM
M  V30 BEGIN BOND
M  V30 1 1 1 2
M  V30 2 1 2 3
M  V30 3 1 3 4
M  V30 4 1 4 5
M  V30 5 2 4 6
M  V30 6 1 1 7
M  V30 7 1 7 8
M  V30 8 2 8 9
M  V30 9 1 8 10
M  V30 10 1 10 11
M  V30 11 1 11 12
M  V30 12 1 12 13
M  V30 13 1 13 14
M  V30 14 2 14 15
M  V30 15 1 14 16
M  V30 16 1 16 17
M  V30 17 1 17 18
M  V30 18 1 18 19
M  V30 19 1 19 20
M  V30 20 2 20 21
M  V30 21 1 20 22
M  V30 22 2 22 23
M  V30 23 1 23 24
M  V30 24 2 24 25
M  V30 25 1 25 26
M  V30 26 2 26 27
M  V30 27 1 25 28
M  V30 28 1 28 29
M  V30 29 1 28 30
M  V30 30 1 30 31
M  V30 31 2 31 32
M  V30 32 1 32 33
M  V30 33 2 33 34
M  V30 34 1 34 35
M  V30 35 2 35 36
M  V30 36 1 34 37
M  V30 37 2 37 38
M  V30 38 1 38 39
M  V30 39 1 38 40
M  V30 40 2 40 41
M  V30 41 1 41 42
M  V30 42 1 18 43
M  V30 43 1 43 44
M  V30 44 2 43 45
M  V30 45 1 12 46
M  V30 46 1 46 47
M  V30 47 2 46 48
M  V30 48 1 1 49
M  V30 49 1 49 50
M  V30 50 2 49 51
M  V30 51 1 27 22
M  V30 52 1 36 31
M  V30 53 1 41 33
M  V30 54 1 1 52 CFG=3
M  V30 55 1 2 53
M  V30 56 1 2 54
M  V30 57 1 3 55
M  V30 58 1 3 56
M  V30 59 1 5 57
M  V30 60 1 7 58
M  V30 61 1 10 59
M  V30 62 1 10 60
M  V30 63 1 11 61
M  V30 64 1 11 62
M  V30 65 1 12 63 CFG=1
M  V30 66 1 13 64
M  V30 67 1 16 65
M  V30 68 1 16 66
M  V30 69 1 17 67
M  V30 70 1 17 68
M  V30 71 1 18 69 CFG=3
M  V30 72 1 19 70
M  V30 73 1 23 71
M  V30 74 1 24 72
M  V30 75 1 26 73
M  V30 76 1 27 74
M  V30 77 1 29 75
M  V30 78 1 29 76
M  V30 79 1 29 77
M  V30 80 1 30 78
M  V30 81 1 30 79
M  V30 82 1 36 80
M  V30 83 1 39 81
M  V30 84 1 39 82
M  V30 85 1 42 83
M  V30 86 1 42 84
M  V30 87 1 44 85
M  V30 88 1 47 86
M  V30 89 1 50 87
M  V30 END BOND
M  V30 END CTAB
M  END
