
     RDKit          3D

  0  0  0  0  0  0  0  0  0  0999 V3000
M  V30 BEGIN CTAB
M  V30 COUNTS 40 42 0 0 0
M  V30 BEGIN ATOM
M  V30 1 N -2.63357 -3.24348 -0.735941 0
M  V30 2 C -2.64442 -1.80096 -0.474867 0
M  V30 3 C -1.27455 -1.31913 -0.283619 0
M  V30 4 C -1.04036 0.0137045 -0.0371345 0
M  V30 5 N 0.254373 0.449257 0.109078 0
M  V30 6 C 1.28747 -0.399535 0.0176027 0
M  V30 7 N 1.02816 -1.67725 -0.219524 0
M  V30 8 C -0.208363 -2.20967 -0.380496 0
M  V30 9 N -0.356437 -3.59946 -0.629777 0
M  V30 10 N 2.59434 0.128793 0.175546 0
M  V30 11 C 3.72564 -0.76509 0.270991 0
M  V30 12 C 4.99415 -0.0757396 -0.132737 0
M  V30 13 O 5.21383 1.14415 0.46883 0
M  V30 14 C 4.11848 1.73755 1.03866 0
M  V30 15 C 2.83878 1.551 0.241775 0
M  V30 16 C -2.11916 0.985798 0.0581945 0
M  V30 17 C -3.08948 0.957555 1.03371 0
M  V30 18 C -4.08556 1.92632 1.12071 0
M  V30 19 C -4.14572 2.96361 0.23001 0
M  V30 20 Cl -5.40788 4.1765 0.358247 0
M  V30 21 C -3.17862 3.01232 -0.760587 0
M  V30 22 C -2.19738 2.04888 -0.838544 0
M  V30 23 Cl -0.982524 2.12179 -2.09508 0
M  V30 24 H -2.86019 -3.81649 0.0825315 0
M  V30 25 H -3.16864 -3.52501 -1.55962 0
M  V30 26 H -3.2021 -1.69843 0.471369 0
M  V30 27 H -3.1615 -1.31443 -1.32947 0
M  V30 28 H -0.466582 -4.23641 0.186533 0
M  V30 29 H -0.35445 -4.0158 -1.5838 0
M  V30 30 H 3.8529 -1.18796 1.29791 0
M  V30 31 H 3.61399 -1.63058 -0.446288 0
M  V30 32 H 5.09508 -0.0381869 -1.24593 0
M  V30 33 H 5.8255 -0.774263 0.190039 0
M  V30 34 H 4.31736 2.82473 1.17575 0
M  V30 35 H 3.88565 1.31081 2.05975 0
M  V30 36 H 2.03353 2.11076 0.754394 0
M  V30 37 H 3.03515 1.97359 -0.782301 0
M  V30 38 H -3.10498 0.192951 1.77526 0
M  V30 39 H -4.82717 1.86144 1.90662 0
M  V30 40 H -3.20475 3.83638 -1.48781 0
M  V30 END ATOM
M  V30 BEGIN BOND
M  V30 1 1 1 2
M  V30 2 1 2 3
M  V30 3 2 3 4
M  V30 4 1 4 5
M  V30 5 2 5 6
M  V30 6 1 6 7
M  V30 7 2 7 8
M  V30 8 1 8 9
M  V30 9 1 6 10
M  V30 10 1 10 11
M  V30 11 1 11 12
M  V30 12 1 12 13
M  V30 13 1 13 14
M  V30 14 1 14 15
M  V30 15 1 4 16
M  V30 16 2 16 17
M  V30 17 1 17 18
M  V30 18 2 18 19
M  V30 19 1 19 20
M  V30 20 1 19 21
M  V30 21 2 21 22
M  V30 22 1 22 23
M  V30 23 1 8 3
M  V30 24 1 15 10
M  V30 25 1 22 16
M  V30 26 1 1 24
M  V30 27 1 1 25
M  V30 28 1 2 26
M  V30 29 1 2 27
M  V30 30 1 9 28
M  V30 31 1 9 29
M  V30 32 1 11 30
M  V30 33 1 11 31
M  V30 34 1 12 32
M  V30 35 1 12 33
M  V30 36 1 14 34
M  V30 37 1 14 35
M  V30 38 1 15 36
M  V30 39 1 15 37
M  V30 40 1 17 38
M  V30 41 1 18 39
M  V30 42 1 21 40
M  V30 END BOND
M  V30 END CTAB
M  END
