
     RDKit          3D

  0  0  0  0  0  0  0  0  0  0999 V3000
M  V30 BEGIN CTAB
M  V30 COUNTS 31 32 0 0 0
M  V30 BEGIN ATOM
M  V30 1 C -0.588486 -0.595641 1.85209 0
M  V30 2 C -0.310559 -0.0120848 0.499975 0
M  V30 3 C -0.780479 -0.898377 -0.597017 0
M  V30 4 C -2.29428 -0.987825 -0.573742 0
M  V30 5 C -2.95594 0.333775 -0.777151 0
M  V30 6 C -2.40609 1.39163 0.131299 0
M  V30 7 C -0.955662 1.35212 0.339435 0
M  V30 8 C 1.14951 0.282185 0.446329 0
M  V30 9 N 1.67342 1.2721 1.20648 0
M  V30 10 N 2.971 1.35023 0.974757 0
M  V30 11 C 3.27148 0.410599 0.0717222 0
M  V30 12 N 2.15216 -0.235896 -0.241618 0
M  V30 13 N 2.05019 -1.32178 -1.10285 0
M  V30 14 N 4.56185 0.210416 -0.464091 0
M  V30 15 H -0.00719579 -1.56781 1.89686 0
M  V30 16 H -0.163105 0.056011 2.65069 0
M  V30 17 H -1.67688 -0.751675 2.05652 0
M  V30 18 H -0.43908 -1.93994 -0.524065 0
M  V30 19 H -0.512994 -0.427352 -1.56108 0
M  V30 20 H -2.6043 -1.65066 -1.41518 0
M  V30 21 H -2.62329 -1.50238 0.368247 0
M  V30 22 H -2.85844 0.600455 -1.86458 0
M  V30 23 H -4.04068 0.217586 -0.536888 0
M  V30 24 H -2.99057 1.42544 1.06975 0
M  V30 25 H -2.64646 2.3687 -0.3957 0
M  V30 26 H -0.709676 2.03621 1.19017 0
M  V30 27 H -0.414252 1.82194 -0.544708 0
M  V30 28 H 2.32807 -2.25116 -0.735075 0
M  V30 29 H 1.73393 -1.29359 -2.08371 0
M  V30 30 H 4.88936 0.796485 -1.27497 0
M  V30 31 H 5.19744 -0.489692 -0.0618876 0
M  V30 END ATOM
M  V30 BEGIN BOND
M  V30 1 1 1 2
M  V30 2 1 2 3
M  V30 3 1 3 4
M  V30 4 1 4 5
M  V30 5 1 5 6
M  V30 6 1 6 7
M  V30 7 1 2 8
M  V30 8 2 8 9
M  V30 9 1 9 10
M  V30 10 2 10 11
M  V30 11 1 11 12
M  V30 12 1 12 13
M  V30 13 1 11 14
M  V30 14 1 7 2
M  V30 15 1 12 8
M  V30 16 1 1 15
M  V30 17 1 1 16
M  V30 18 1 1 17
M  V30 19 1 3 18
M  V30 20 1 3 19
M  V30 21 1 4 20
M  V30 22 1 4 21
M  V30 23 1 5 22
M  V30 24 1 5 23
M  V30 25 1 6 24
M  V30 26 1 6 25
M  V30 27 1 7 26
M  V30 28 1 7 27
M  V30 29 1 13 28
M  V30 30 1 13 29
M  V30 31 1 14 30
M  V30 32 1 14 31
M  V30 END BOND
M  V30 END CTAB
M  END
