
     RDKit          3D

  0  0  0  0  0  0  0  0  0  0999 V3000
M  V30 BEGIN CTAB
M  V30 COUNTS 24 24 0 0 0
M  V30 BEGIN ATOM
M  V30 1 C -1.62689 -1.97884 -0.250901 0
M  V30 2 C -0.576783 -0.93647 -0.123886 0
M  V30 3 C -1.08306 0.387906 -0.0801503 0
M  V30 4 C -2.52966 0.593876 -0.313346 0
M  V30 5 N -2.98357 1.93761 -0.370364 0
M  V30 6 N -0.179433 1.37254 0.149581 0
M  V30 7 C 1.13315 1.12019 0.313806 0
M  V30 8 O 2.01452 1.96991 0.507291 0
M  V30 9 C 1.59056 -0.22374 0.244498 0
M  V30 10 C 2.98181 -0.438245 0.667471 0
M  V30 11 N 3.83018 -0.626257 -0.503367 0
M  V30 12 N 0.698813 -1.19694 0.0356223 0
M  V30 13 H -1.17457 -2.99004 -0.330393 0
M  V30 14 H -2.23906 -1.8551 -1.1348 0
M  V30 15 H -2.2581 -1.91663 0.694186 0
M  V30 16 H -3.10459 0.058492 0.51982 0
M  V30 17 H -2.77292 0.167779 -1.33384 0
M  V30 18 H -2.35959 2.72087 -0.2319 0
M  V30 19 H -3.92108 2.07908 0.0267448 0
M  V30 20 H -0.501016 2.34157 0.191254 0
M  V30 21 H 2.98501 -1.43338 1.28312 0
M  V30 22 H 3.39327 0.348818 1.32265 0
M  V30 23 H 4.04945 -1.5766 -0.769194 0
M  V30 24 H 4.63355 0.0735975 -0.513903 0
M  V30 END ATOM
M  V30 BEGIN BOND
M  V30 1 1 1 2
M  V30 2 2 2 3
M  V30 3 1 3 4
M  V30 4 1 4 5
M  V30 5 1 3 6
M  V30 6 1 6 7
M  V30 7 2 7 8
M  V30 8 1 7 9
M  V30 9 1 9 10
M  V30 10 1 10 11
M  V30 11 2 9 12
M  V30 12 1 12 2
M  V30 13 1 1 13
M  V30 14 1 1 14
M  V30 15 1 1 15
M  V30 16 1 4 16
M  V30 17 1 4 17
M  V30 18 1 5 18
M  V30 19 1 5 19
M  V30 20 1 6 20
M  V30 21 1 10 21
M  V30 22 1 10 22
M  V30 23 1 11 23
M  V30 24 1 11 24
M  V30 END BOND
M  V30 END CTAB
M  END
