
     RDKit          3D

  0  0  0  0  0  0  0  0  0  0999 V3000
M  V30 BEGIN CTAB
M  V30 COUNTS 21 21 0 0 0
M  V30 BEGIN ATOM
M  V30 1 N -2.01668 1.97297 0.250859 0
M  V30 2 C -1.30757 0.76404 -0.0989728 0
M  V30 3 N -0.106165 0.76831 -0.580267 0
M  V30 4 C 0.493863 -0.36809 -0.882453 0
M  V30 5 S -0.689063 -1.52119 -0.470889 0
M  V30 6 C -1.91429 -0.455331 0.0780347 0
M  V30 7 C -3.29144 -0.750384 0.614 0
M  V30 8 C 1.86884 -0.548165 -1.4439 0
M  V30 9 S 3.01077 -0.702697 -0.0947213 0
M  V30 10 O 4.38988 -0.966165 -0.562768 0
M  V30 11 O 2.52026 -1.83975 0.788347 0
M  V30 12 N 2.90103 0.758803 0.835196 0
M  V30 13 H -1.75768 2.59617 1.03265 0
M  V30 14 H -2.8358 2.21168 -0.334044 0
M  V30 15 H -3.95748 -0.837394 -0.276927 0
M  V30 16 H -3.5689 0.100307 1.25996 0
M  V30 17 H -3.24405 -1.67971 1.20546 0
M  V30 18 H 2.10483 0.38879 -1.99878 0
M  V30 19 H 1.91649 -1.3686 -2.16037 0
M  V30 20 H 3.57907 0.690581 1.6453 0
M  V30 21 H 1.90408 0.785819 1.19427 0
M  V30 END ATOM
M  V30 BEGIN BOND
M  V30 1 1 1 2
M  V30 2 1 2 3
M  V30 3 2 3 4
M  V30 4 1 4 5
M  V30 5 1 5 6
M  V30 6 1 6 7
M  V30 7 1 4 8
M  V30 8 1 8 9
M  V30 9 2 9 10
M  V30 10 2 9 11
M  V30 11 1 9 12
M  V30 12 2 6 2
M  V30 13 1 1 13
M  V30 14 1 1 14
M  V30 15 1 7 15
M  V30 16 1 7 16
M  V30 17 1 7 17
M  V30 18 1 8 18
M  V30 19 1 8 19
M  V30 20 1 12 20
M  V30 21 1 12 21
M  V30 END BOND
M  V30 END CTAB
M  END
