
     RDKit          3D

  0  0  0  0  0  0  0  0  0  0999 V3000
M  V30 BEGIN CTAB
M  V30 COUNTS 36 35 0 0 0
M  V30 BEGIN ATOM
M  V30 1 C -4.96854 1.39178 0.137233 0
M  V30 2 C -4.64118 -0.0523773 -0.144928 0
M  V30 3 C -3.28747 -0.341051 0.518873 0
M  V30 4 C -2.30711 0.602569 -0.118589 0
M  V30 5 C -0.907165 0.486642 0.397536 0
M  V30 6 C -0.400415 -0.913956 0.144638 0
M  V30 7 C 1.00601 -1.1337 0.630607 0
M  V30 8 C 1.91833 -0.169776 -0.0902469 0
M  V30 9 C 3.37184 -0.357664 0.368438 0
M  V30 10 N 3.74034 -1.71264 0.0600918 0
M  V30 11 C 4.18768 0.63712 -0.468441 0
M  V30 12 N 5.58011 0.54385 -0.115179 0
M  V30 13 H -4.60745 2.04504 -0.666145 0
M  V30 14 H -6.07614 1.49472 0.167349 0
M  V30 15 H -4.53108 1.64705 1.12643 0
M  V30 16 H -4.48183 -0.250086 -1.22825 0
M  V30 17 H -5.4063 -0.744397 0.255472 0
M  V30 18 H -3.05696 -1.40978 0.258428 0
M  V30 19 H -3.3333 -0.179609 1.60508 0
M  V30 20 H -2.32155 0.421141 -1.21758 0
M  V30 21 H -2.68227 1.64347 0.033226 0
M  V30 22 H -0.800298 0.764338 1.45132 0
M  V30 23 H -0.31297 1.2414 -0.196758 0
M  V30 24 H -1.07886 -1.66027 0.605713 0
M  V30 25 H -0.385504 -1.06354 -0.955922 0
M  V30 26 H 1.0097 -0.893355 1.72555 0
M  V30 27 H 1.28666 -2.17645 0.458544 0
M  V30 28 H 1.64607 0.874283 0.161912 0
M  V30 29 H 1.91669 -0.316005 -1.17157 0
M  V30 30 H 3.45855 -0.0978128 1.4361 0
M  V30 31 H 3.23158 -2.09916 -0.748704 0
M  V30 32 H 3.65608 -2.33801 0.89979 0
M  V30 33 H 3.7722 1.65412 -0.315084 0
M  V30 34 H 4.00693 0.397568 -1.54509 0
M  V30 35 H 5.68025 0.899833 0.854361 0
M  V30 36 H 6.11737 1.16473 -0.758778 0
M  V30 END ATOM
M  V30 BEGIN BOND
M  V30 1 1 1 2
M  V30 2 1 2 3
M  V30 3 1 3 4
M  V30 4 1 4 5
M  V30 5 1 5 6
M  V30 6 1 6 7
M  V30 7 1 7 8
M  V30 8 1 8 9
M  V30 9 1 9 10
M  V30 10 1 9 11
M  V30 11 1 11 12
M  V30 12 1 1 13
M  V30 13 1 1 14
M  V30 14 1 1 15
M  V30 15 1 2 16
M  V30 16 1 2 17
M  V30 17 1 3 18
M  V30 18 1 3 19
M  V30 19 1 4 20
M  V30 20 1 4 21
M  V30 21 1 5 22
M  V30 22 1 5 23
M  V30 23 1 6 24
M  V30 24 1 6 25
M  V30 25 1 7 26
M  V30 26 1 7 27
M  V30 27 1 8 28
M  V30 28 1 8 29
M  V30 29 1 9 30
M  V30 30 1 10 31
M  V30 31 1 10 32
M  V30 32 1 11 33
M  V30 33 1 11 34
M  V30 34 1 12 35
M  V30 35 1 12 36
M  V30 END BOND
M  V30 END CTAB
M  END
