
     RDKit          3D

  0  0  0  0  0  0  0  0  0  0999 V3000
M  V30 BEGIN CTAB
M  V30 COUNTS 58 62 0 0 0
M  V30 BEGIN ATOM
M  V30 1 N -9.24253 0.00947974 0.485638 0
M  V30 2 C -8.27386 0.525263 0.106134 0
M  V30 3 C -7.06343 1.17993 -0.360367 0
M  V30 4 C -7.2343 2.38547 -1.0096 0
M  V30 5 N -8.5026 2.97194 -1.22377 0
M  V30 6 N -6.09228 2.95821 -1.42476 0
M  V30 7 C -4.86491 2.38985 -1.21857 0
M  V30 8 C -4.6689 1.19413 -0.577073 0
M  V30 9 C -5.85541 0.587669 -0.139497 0
M  V30 10 C -5.85807 -0.714425 0.586371 0
M  V30 11 C -5.90132 -0.708163 1.96447 0
M  V30 12 S -5.90919 -2.36507 2.35976 0
M  V30 13 C -5.8582 -3.02589 0.793304 0
M  V30 14 C -5.83614 -1.91473 -0.00823753 0
M  V30 15 C -3.40412 0.764662 -0.450227 0
M  V30 16 N -2.98713 -0.470644 0.194061 0
M  V30 17 C -2.41226 1.55128 -0.969624 0
M  V30 18 S -3.26632 2.86773 -1.62064 0
M  V30 19 C -0.963898 1.35094 -0.986468 0
M  V30 20 O -0.223725 2.19098 -1.51292 0
M  V30 21 O -0.406018 0.218641 -0.413093 0
M  V30 22 C 0.979731 -0.0438475 -0.391038 0
M  V30 23 C 1.3085 -1.37301 -1.0401 0
M  V30 24 C 2.56506 -1.97777 -0.463328 0
M  V30 25 N 3.4509 -1.03995 0.148595 0
M  V30 26 C 2.91023 -0.0975264 1.09089 0
M  V30 27 C 1.39319 -0.1767 1.06469 0
M  V30 28 C 4.87179 -1.00449 -0.146878 0
M  V30 29 O 5.25145 -1.85111 -0.978444 0
M  V30 30 N 5.66843 -0.049783 0.509152 0
M  V30 31 C 7.04261 0.177006 0.386814 0
M  V30 32 C 7.68377 1.0637 1.27397 0
M  V30 33 C 9.01729 1.32366 1.18747 0
M  V30 34 C 9.7936 0.725204 0.22287 0
M  V30 35 C 9.17876 -0.141792 -0.648042 0
M  V30 36 C 7.80697 -0.427979 -0.582483 0
M  V30 37 H -9.30998 2.48079 -1.67859 0
M  V30 38 H -8.67292 3.95393 -0.919661 0
M  V30 39 H -5.92452 0.180433 2.62599 0
M  V30 40 H -5.84441 -4.07408 0.441909 0
M  V30 41 H -5.80039 -1.99932 -1.12165 0
M  V30 42 H -2.87469 -0.519648 1.22819 0
M  V30 43 H -2.79609 -1.30608 -0.382439 0
M  V30 44 H 1.56587 0.736714 -0.872374 0
M  V30 45 H 1.40341 -1.26803 -2.11915 0
M  V30 46 H 0.43207 -2.05819 -0.858697 0
M  V30 47 H 3.13524 -2.46468 -1.30491 0
M  V30 48 H 2.28594 -2.80806 0.216662 0
M  V30 49 H 3.19805 0.924254 0.745351 0
M  V30 50 H 3.31038 -0.25962 2.11797 0
M  V30 51 H 1.11981 -1.18817 1.42708 0
M  V30 52 H 0.940667 0.620938 1.68472 0
M  V30 53 H 5.15212 0.597006 1.19827 0
M  V30 54 H 7.0624 1.54082 2.04508 0
M  V30 55 H 9.47985 2.01347 1.88912 0
M  V30 56 H 10.8575 0.936235 0.15743 0
M  V30 57 H 9.78658 -0.62819 -1.42596 0
M  V30 58 H 7.39542 -1.11433 -1.30336 0
M  V30 END ATOM
M  V30 BEGIN BOND
M  V30 1 3 1 2
M  V30 2 1 2 3
M  V30 3 2 3 4
M  V30 4 1 4 5
M  V30 5 1 4 6
M  V30 6 2 6 7
M  V30 7 1 7 8
M  V30 8 2 8 9
M  V30 9 1 9 10
M  V30 10 2 10 11
M  V30 11 1 11 12
M  V30 12 1 12 13
M  V30 13 2 13 14
M  V30 14 1 8 15
M  V30 15 1 15 16
M  V30 16 2 15 17
M  V30 17 1 17 18
M  V30 18 1 17 19
M  V30 19 2 19 20
M  V30 20 1 19 21
M  V30 21 1 21 22
M  V30 22 1 22 23
M  V30 23 1 23 24
M  V30 24 1 24 25
M  V30 25 1 25 26
M  V30 26 1 26 27
M  V30 27 1 25 28
M  V30 28 2 28 29
M  V30 29 1 28 30
M  V30 30 1 30 31
M  V30 31 2 31 32
M  V30 32 1 32 33
M  V30 33 2 33 34
M  V30 34 1 34 35
M  V30 35 2 35 36
M  V30 36 1 9 3
M  V30 37 1 14 10
M  V30 38 1 27 22
M  V30 39 1 36 31
M  V30 40 1 18 7
M  V30 41 1 5 37
M  V30 42 1 5 38
M  V30 43 1 11 39
M  V30 44 1 13 40
M  V30 45 1 14 41
M  V30 46 1 16 42
M  V30 47 1 16 43
M  V30 48 1 22 44
M  V30 49 1 23 45
M  V30 50 1 23 46
M  V30 51 1 24 47
M  V30 52 1 24 48
M  V30 53 1 26 49
M  V30 54 1 26 50
M  V30 55 1 27 51
M  V30 56 1 27 52
M  V30 57 1 30 53
M  V30 58 1 32 54
M  V30 59 1 33 55
M  V30 60 1 34 56
M  V30 61 1 35 57
M  V30 62 1 36 58
M  V30 END BOND
M  V30 END CTAB
M  END
