
     RDKit          3D

  0  0  0  0  0  0  0  0  0  0999 V3000
M  V30 BEGIN CTAB
M  V30 COUNTS 29 29 0 0 0
M  V30 BEGIN ATOM
M  V30 1 C 4.05041 0.875402 -0.993375 0
M  V30 2 C 3.93708 0.431309 0.428206 0
M  V30 3 O 2.72339 0.706479 1.05039 0
M  V30 4 C 1.48277 0.277795 0.665001 0
M  V30 5 O 1.41439 -0.440663 -0.36335 0
M  V30 6 C 0.217208 0.597233 1.36731 0
M  V30 7 C -0.947199 0.00711743 0.670731 0
M  V30 8 C -1.53423 -1.14436 1.1816 0
M  V30 9 C -2.62747 -1.69722 0.516493 0
M  V30 10 N -3.2324 -2.86979 1.02587 0
M  V30 11 C -3.10884 -1.08929 -0.64097 0
M  V30 12 C -2.5014 0.0516518 -1.11828 0
M  V30 13 C -1.4207 0.611098 -0.473994 0
M  V30 14 N -0.766593 1.78425 -0.925383 0
M  V30 15 C -2.98547 0.707548 -2.32445 0
M  V30 16 N -3.35161 1.22571 -3.29048 0
M  V30 17 H 5.13821 1.01773 -1.26387 0
M  V30 18 H 3.55665 1.81644 -1.2435 0
M  V30 19 H 3.72735 0.0377856 -1.67961 0
M  V30 20 H 4.72324 0.977647 1.0297 0
M  V30 21 H 4.25474 -0.636993 0.492774 0
M  V30 22 H 0.271228 0.222032 2.43074 0
M  V30 23 H 0.120184 1.71312 1.48397 0
M  V30 24 H -1.14088 -1.60056 2.08545 0
M  V30 25 H -3.99559 -2.78155 1.71598 0
M  V30 26 H -2.89597 -3.78976 0.695704 0
M  V30 27 H -3.95659 -1.53169 -1.14097 0
M  V30 28 H -1.20976 2.68854 -0.57955 0
M  V30 29 H 0.0578712 1.83299 -1.52841 0
M  V30 END ATOM
M  V30 BEGIN BOND
M  V30 1 1 1 2
M  V30 2 1 2 3
M  V30 3 1 3 4
M  V30 4 2 4 5
M  V30 5 1 4 6
M  V30 6 1 6 7
M  V30 7 2 7 8
M  V30 8 1 8 9
M  V30 9 1 9 10
M  V30 10 2 9 11
M  V30 11 1 11 12
M  V30 12 2 12 13
M  V30 13 1 13 14
M  V30 14 1 12 15
M  V30 15 3 15 16
M  V30 16 1 13 7
M  V30 17 1 1 17
M  V30 18 1 1 18
M  V30 19 1 1 19
M  V30 20 1 2 20
M  V30 21 1 2 21
M  V30 22 1 6 22
M  V30 23 1 6 23
M  V30 24 1 8 24
M  V30 25 1 10 25
M  V30 26 1 10 26
M  V30 27 1 11 27
M  V30 28 1 14 28
M  V30 29 1 14 29
M  V30 END BOND
M  V30 END CTAB
M  END
