
     RDKit          3D

  0  0  0  0  0  0  0  0  0  0999 V3000
M  V30 BEGIN CTAB
M  V30 COUNTS 21 21 0 0 0
M  V30 BEGIN ATOM
M  V30 1 N -2.98255 0.666142 -0.362011 0
M  V30 2 C -2.05624 -0.342595 0.159824 0
M  V30 3 C -0.670032 0.138992 -0.0877262 0
M  V30 4 C -0.448744 1.37549 -0.711063 0
M  V30 5 C 0.818465 1.86142 -0.953417 0
M  V30 6 C 1.89806 1.10186 -0.567809 0
M  V30 7 C 1.74631 -0.11575 0.0460251 0
M  V30 8 C 0.445048 -0.576888 0.275656 0
M  V30 9 N 0.321236 -1.83394 0.904822 0 CHG=1
M  V30 10 O -0.769812 -2.3656 1.15877 0
M  V30 11 O 1.42363 -2.57877 1.28788 0 CHG=-1
M  V30 12 N 2.86643 -0.908512 0.44853 0
M  V30 13 H -3.21099 1.32012 0.41208 0
M  V30 14 H -3.82402 0.234872 -0.798446 0
M  V30 15 H -2.31257 -1.26916 -0.387061 0
M  V30 16 H -2.28771 -0.485007 1.2373 0
M  V30 17 H -1.3423 1.92479 -0.990147 0
M  V30 18 H 0.927347 2.82317 -1.43846 0
M  V30 19 H 2.91807 1.46627 -0.749335 0
M  V30 20 H 3.1708 -1.64493 -0.225718 0
M  V30 21 H 3.36957 -0.79196 1.34031 0
M  V30 END ATOM
M  V30 BEGIN BOND
M  V30 1 1 1 2
M  V30 2 1 2 3
M  V30 3 2 3 4
M  V30 4 1 4 5
M  V30 5 2 5 6
M  V30 6 1 6 7
M  V30 7 2 7 8
M  V30 8 1 8 9
M  V30 9 2 9 10
M  V30 10 1 9 11
M  V30 11 1 7 12
M  V30 12 1 8 3
M  V30 13 1 1 13
M  V30 14 1 1 14
M  V30 15 1 2 15
M  V30 16 1 2 16
M  V30 17 1 4 17
M  V30 18 1 5 18
M  V30 19 1 6 19
M  V30 20 1 12 20
M  V30 21 1 12 21
M  V30 END BOND
M  V30 END CTAB
M  END
