
     RDKit          3D

  0  0  0  0  0  0  0  0  0  0999 V3000
M  V30 BEGIN CTAB
M  V30 COUNTS 45 47 0 0 0
M  V30 BEGIN ATOM
M  V30 1 N -6.70322 0.0729365 1.56577 0
M  V30 2 C -5.83564 -0.0442023 0.450784 0
M  V30 3 N -6.26697 -0.470913 -0.7409 0
M  V30 4 C -5.46605 -0.594698 -1.82995 0
M  V30 5 N -5.99186 -1.05574 -3.06832 0
M  V30 6 N -4.17691 -0.265221 -1.67773 0
M  V30 7 C -3.64977 0.175162 -0.513959 0
M  V30 8 C -4.48534 0.288949 0.567751 0
M  V30 9 N -2.28527 0.512888 -0.381104 0
M  V30 10 C -1.331 0.310835 -1.47533 0
M  V30 11 C 0.0507496 0.0214994 -0.923743 0
M  V30 12 N 0.51259 1.08397 -0.0578819 0
M  V30 13 C -0.537542 1.89868 0.453404 0
M  V30 14 C -1.75758 1.07592 0.833852 0
M  V30 15 C 1.21733 0.472301 1.04812 0
M  V30 16 C 2.47115 -0.130435 0.509975 0
M  V30 17 C 3.66221 0.248522 0.933793 0
M  V30 18 C 4.9229 -0.296108 0.453232 0
M  V30 19 C 5.04304 -1.2772 -0.501055 0
M  V30 20 C 6.25619 -1.76663 -0.930853 0
M  V30 21 C 7.43499 -1.28102 -0.408603 0
M  V30 22 C 7.35311 -0.292868 0.554101 0
M  V30 23 C 6.13053 0.183302 0.970399 0
M  V30 24 H -7.71161 -0.146566 1.43179 0
M  V30 25 H -6.3772 0.367751 2.50975 0
M  V30 26 H -5.62499 -1.97057 -3.42612 0
M  V30 27 H -6.69958 -0.493087 -3.56577 0
M  V30 28 H -4.16577 0.631538 1.55816 0
M  V30 29 H -1.35515 1.12276 -2.20347 0
M  V30 30 H -1.6661 -0.615842 -1.99055 0
M  V30 31 H 0.733335 -0.0522292 -1.79488 0
M  V30 32 H 0.0223422 -0.924917 -0.380559 0
M  V30 33 H -0.909705 2.66207 -0.288687 0
M  V30 34 H -0.216091 2.42747 1.38199 0
M  V30 35 H -2.48057 1.69118 1.4066 0
M  V30 36 H -1.39477 0.202852 1.44751 0
M  V30 37 H 0.573345 -0.302735 1.52448 0
M  V30 38 H 1.45576 1.26208 1.78919 0
M  V30 39 H 2.4285 -0.895787 -0.244526 0
M  V30 40 H 3.69156 1.01952 1.69209 0
M  V30 41 H 4.14428 -1.68268 -0.933427 0
M  V30 42 H 6.25032 -2.54186 -1.68882 0
M  V30 43 H 8.37799 -1.67781 -0.757877 0
M  V30 44 H 8.28782 0.0791148 0.955297 0
M  V30 45 H 6.06867 0.967817 1.73404 0
M  V30 END ATOM
M  V30 BEGIN BOND
M  V30 1 1 1 2
M  V30 2 2 2 3
M  V30 3 1 3 4
M  V30 4 1 4 5
M  V30 5 2 4 6
M  V30 6 1 6 7
M  V30 7 2 7 8
M  V30 8 1 7 9
M  V30 9 1 9 10
M  V30 10 1 10 11
M  V30 11 1 11 12
M  V30 12 1 12 13
M  V30 13 1 13 14
M  V30 14 1 12 15
M  V30 15 1 15 16
M  V30 16 2 16 17
M  V30 17 1 17 18
M  V30 18 2 18 19
M  V30 19 1 19 20
M  V30 20 2 20 21
M  V30 21 1 21 22
M  V30 22 2 22 23
M  V30 23 1 8 2
M  V30 24 1 14 9
M  V30 25 1 23 18
M  V30 26 1 1 24
M  V30 27 1 1 25
M  V30 28 1 5 26
M  V30 29 1 5 27
M  V30 30 1 8 28
M  V30 31 1 10 29
M  V30 32 1 10 30
M  V30 33 1 11 31
M  V30 34 1 11 32
M  V30 35 1 13 33
M  V30 36 1 13 34
M  V30 37 1 14 35
M  V30 38 1 14 36
M  V30 39 1 15 37
M  V30 40 1 15 38
M  V30 41 1 16 39
M  V30 42 1 17 40
M  V30 43 1 19 41
M  V30 44 1 20 42
M  V30 45 1 21 43
M  V30 46 1 22 44
M  V30 47 1 23 45
M  V30 END BOND
M  V30 END CTAB
M  END
