
     RDKit          3D

  0  0  0  0  0  0  0  0  0  0999 V3000
M  V30 BEGIN CTAB
M  V30 COUNTS 37 39 0 0 0
M  V30 BEGIN ATOM
M  V30 1 N 3.64095 1.50409 1.80948 0
M  V30 2 C 3.11135 0.797311 0.689083 0
M  V30 3 N 3.89225 0.243375 -0.249464 0
M  V30 4 C 3.36921 -0.416783 -1.29455 0
M  V30 5 C 2.00125 -0.520166 -1.39326 0
M  V30 6 C 1.13882 0.0228777 -0.46828 0
M  V30 7 C 1.72307 0.692486 0.589063 0
M  V30 8 C -0.329785 -0.122686 -0.630922 0 CFG=1
M  V30 9 C -0.886089 -1.2521 0.167988 0
M  V30 10 C -0.125192 -2.35163 0.474693 0
M  V30 11 C -0.682081 -3.36785 1.21296 0
M  V30 12 C -1.98703 -3.34638 1.67259 0
M  V30 13 C -2.71398 -2.22355 1.34133 0
M  V30 14 C -2.18936 -1.199 0.610325 0
M  V30 15 C -3.01336 0.0228859 0.262881 0
M  V30 16 C -2.04707 1.19045 0.454829 0
M  V30 17 N -0.935459 1.12216 -0.390592 0
M  V30 18 S -0.846569 2.26076 -1.64167 0
M  V30 19 O -1.3862 1.65229 -2.92981 0
M  V30 20 O -1.58982 3.51289 -1.37854 0
M  V30 21 N 0.81761 2.61679 -1.94294 0
M  V30 22 H 3.17972 1.50395 2.74212 0
M  V30 23 H 4.52538 2.05599 1.7317 0
M  V30 24 H 3.97734 -0.872715 -2.0653 0
M  V30 25 H 1.57464 -1.04907 -2.2302 0
M  V30 26 H 1.11268 1.14259 1.35047 0
M  V30 27 H -0.531532 -0.404664 -1.70719 0
M  V30 28 H 0.920936 -2.42378 0.135363 0
M  V30 29 H -0.0941767 -4.26233 1.47369 0
M  V30 30 H -2.41369 -4.15361 2.25335 0
M  V30 31 H -3.75327 -2.12606 1.6649 0
M  V30 32 H -3.28738 -0.00150781 -0.810917 0
M  V30 33 H -3.85966 0.119166 0.943621 0
M  V30 34 H -1.80048 1.28285 1.54022 0
M  V30 35 H -2.64032 2.11062 0.211176 0
M  V30 36 H 0.974956 2.90805 -2.92972 0
M  V30 37 H 1.15235 3.3323 -1.26847 0
M  V30 END ATOM
M  V30 BEGIN BOND
M  V30 1 1 1 2
M  V30 2 2 2 3
M  V30 3 1 3 4
M  V30 4 2 4 5
M  V30 5 1 5 6
M  V30 6 2 6 7
M  V30 7 1 6 8
M  V30 8 1 8 9
M  V30 9 2 9 10
M  V30 10 1 10 11
M  V30 11 2 11 12
M  V30 12 1 12 13
M  V30 13 2 13 14
M  V30 14 1 14 15
M  V30 15 1 15 16
M  V30 16 1 16 17
M  V30 17 1 17 18
M  V30 18 2 18 19
M  V30 19 2 18 20
M  V30 20 1 18 21
M  V30 21 1 7 2
M  V30 22 1 17 8
M  V30 23 1 14 9
M  V30 24 1 1 22
M  V30 25 1 1 23
M  V30 26 1 4 24
M  V30 27 1 5 25
M  V30 28 1 7 26
M  V30 29 1 8 27 CFG=3
M  V30 30 1 10 28
M  V30 31 1 11 29
M  V30 32 1 12 30
M  V30 33 1 13 31
M  V30 34 1 15 32
M  V30 35 1 15 33
M  V30 36 1 16 34
M  V30 37 1 16 35
M  V30 38 1 21 36
M  V30 39 1 21 37
M  V30 END BOND
M  V30 END CTAB
M  END
