
     RDKit          3D

  0  0  0  0  0  0  0  0  0  0999 V3000
M  V30 BEGIN CTAB
M  V30 COUNTS 24 25 0 0 0
M  V30 BEGIN ATOM
M  V30 1 N -1.08237 -1.79601 0.54742 0
M  V30 2 C -0.512158 -0.437789 0.35963 0
M  V30 3 C -0.898029 -0.125596 -1.12986 0
M  V30 4 C -2.25889 0.494476 -0.910501 0
M  V30 5 C -1.93312 1.48139 0.202332 0
M  V30 6 C -1.19759 0.548311 1.17923 0
M  V30 7 C 0.969353 -0.547742 0.376989 0
M  V30 8 O 1.63096 -1.44104 1.00419 0
M  V30 9 N 2.92708 -1.26335 0.753189 0
M  V30 10 C 3.07937 -0.239154 -0.0529967 0
M  V30 11 N 1.80499 0.239069 -0.324775 0
M  V30 12 N 4.21137 0.301754 -0.721158 0
M  V30 13 H -0.625555 -2.17659 1.42981 0
M  V30 14 H -2.08985 -1.68518 0.788746 0
M  V30 15 H -0.155403 0.638313 -1.45099 0
M  V30 16 H -0.914565 -1.01737 -1.75075 0
M  V30 17 H -2.63415 0.995747 -1.82642 0
M  V30 18 H -2.91692 -0.321799 -0.553337 0
M  V30 19 H -2.82132 1.94722 0.619274 0
M  V30 20 H -1.22254 2.20957 -0.254158 0
M  V30 21 H -2.05148 0.0447859 1.74854 0
M  V30 22 H -0.555183 1.08684 1.86806 0
M  V30 23 H 4.45199 1.27186 -0.476279 0
M  V30 24 H 4.794 -0.207732 -1.42621 0
M  V30 END ATOM
M  V30 BEGIN BOND
M  V30 1 1 1 2
M  V30 2 1 2 3
M  V30 3 1 3 4
M  V30 4 1 4 5
M  V30 5 1 5 6
M  V30 6 1 2 7
M  V30 7 1 7 8
M  V30 8 1 8 9
M  V30 9 2 9 10
M  V30 10 1 10 11
M  V30 11 1 10 12
M  V30 12 1 6 2
M  V30 13 2 11 7
M  V30 14 1 1 13
M  V30 15 1 1 14
M  V30 16 1 3 15
M  V30 17 1 3 16
M  V30 18 1 4 17
M  V30 19 1 4 18
M  V30 20 1 5 19
M  V30 21 1 5 20
M  V30 22 1 6 21
M  V30 23 1 6 22
M  V30 24 1 12 23
M  V30 25 1 12 24
M  V30 END BOND
M  V30 END CTAB
M  END
