
     RDKit          3D

  0  0  0  0  0  0  0  0  0  0999 V3000
M  V30 BEGIN CTAB
M  V30 COUNTS 50 52 0 0 0
M  V30 BEGIN ATOM
M  V30 1 N -3.81346 1.76363 3.96809 0
M  V30 2 C -3.43749 1.16029 2.72694 0
M  V30 3 C -3.52313 -0.201988 2.54354 0
M  V30 4 C -3.14594 -0.793422 1.35944 0
M  V30 5 C -2.65489 -0.043668 0.27935 0
M  V30 6 C -2.57751 1.31581 0.484024 0
M  V30 7 C -2.95692 1.90967 1.67198 0
M  V30 8 N -2.25917 -0.688809 -0.924965 0
M  V30 9 C -1.0279 -1.38014 -1.00233 0
M  V30 10 O -0.770274 -2.02605 -2.08153 0
M  V30 11 C -0.0448175 -1.40061 0.0584842 0
M  V30 12 O -0.134626 -0.674855 1.09692 0
M  V30 13 N 1.08903 -2.24038 0.00201357 0
M  V30 14 C 2.07437 -2.2646 1.01789 0
M  V30 15 C 3.09384 -1.17417 0.807148 0
M  V30 16 C 2.98906 -0.19345 -0.112742 0
M  V30 17 C 3.9868 0.774034 -0.321047 0
M  V30 18 C 5.12517 0.7175 0.450709 0
M  V30 19 C 5.23293 -0.279521 1.39052 0
M  V30 20 C 4.24947 -1.23929 1.60003 0
M  V30 21 S 6.44345 1.84901 0.19218 0
M  V30 22 O 7.71666 1.15511 0.608699 0
M  V30 23 O 6.52418 2.17706 -1.29187 0
M  V30 24 N 6.19176 3.25519 1.13506 0
M  V30 25 C -3.05844 -0.632782 -2.08907 0
M  V30 26 C -4.15287 -1.3962 -2.30109 0
M  V30 27 C -4.87673 -1.26446 -3.49003 0
M  V30 28 C -4.47283 -0.35398 -4.45118 0
M  V30 29 C -3.36281 0.423086 -4.24323 0
M  V30 30 C -2.67253 0.269453 -3.06064 0
M  V30 31 H -4.24382 1.18839 4.71445 0
M  V30 32 H -3.65706 2.77351 4.12119 0
M  V30 33 H -3.89838 -0.833673 3.36498 0
M  V30 34 H -3.19954 -1.87544 1.18721 0
M  V30 35 H -2.19363 1.90548 -0.356682 0
M  V30 36 H -2.88158 2.98583 1.77956 0
M  V30 37 H 1.19224 -2.87262 -0.829639 0
M  V30 38 H 1.59371 -2.12358 2.03143 0
M  V30 39 H 2.67932 -3.198 1.06233 0
M  V30 40 H 2.10523 -0.115244 -0.73795 0
M  V30 41 H 3.88287 1.55144 -1.06467 0
M  V30 42 H 6.13565 -0.315746 1.99207 0
M  V30 43 H 4.33293 -2.01196 2.32381 0
M  V30 44 H 7.06354 3.4248 1.69971 0
M  V30 45 H 5.40465 3.19117 1.80747 0
M  V30 46 H -4.53426 -2.12775 -1.60245 0
M  V30 47 H -5.75594 -1.87064 -3.6691 0
M  V30 48 H -5.03025 -0.249492 -5.37209 0
M  V30 49 H -2.99034 1.15535 -4.95397 0
M  V30 50 H -1.77971 0.896716 -2.89854 0
M  V30 END ATOM
M  V30 BEGIN BOND
M  V30 1 1 1 2
M  V30 2 2 2 3
M  V30 3 1 3 4
M  V30 4 2 4 5
M  V30 5 1 5 6
M  V30 6 2 6 7
M  V30 7 1 5 8
M  V30 8 1 8 9
M  V30 9 2 9 10
M  V30 10 1 9 11
M  V30 11 2 11 12
M  V30 12 1 11 13
M  V30 13 1 13 14
M  V30 14 1 14 15
M  V30 15 2 15 16
M  V30 16 1 16 17
M  V30 17 2 17 18
M  V30 18 1 18 19
M  V30 19 2 19 20
M  V30 20 1 18 21
M  V30 21 2 21 22
M  V30 22 2 21 23
M  V30 23 1 21 24
M  V30 24 1 8 25
M  V30 25 2 25 26
M  V30 26 1 26 27
M  V30 27 2 27 28
M  V30 28 1 28 29
M  V30 29 2 29 30
M  V30 30 1 7 2
M  V30 31 1 20 15
M  V30 32 1 30 25
M  V30 33 1 1 31
M  V30 34 1 1 32
M  V30 35 1 3 33
M  V30 36 1 4 34
M  V30 37 1 6 35
M  V30 38 1 7 36
M  V30 39 1 13 37
M  V30 40 1 14 38
M  V30 41 1 14 39
M  V30 42 1 16 40
M  V30 43 1 17 41
M  V30 44 1 19 42
M  V30 45 1 20 43
M  V30 46 1 24 44
M  V30 47 1 24 45
M  V30 48 1 26 46
M  V30 49 1 27 47
M  V30 50 1 28 48
M  V30 51 1 29 49
M  V30 52 1 30 50
M  V30 END BOND
M  V30 END CTAB
M  END
