
     RDKit          3D

  0  0  0  0  0  0  0  0  0  0999 V3000
M  V30 BEGIN CTAB
M  V30 COUNTS 29 30 0 0 0
M  V30 BEGIN ATOM
M  V30 1 C 5.68593 0.149919 -0.900607 0
M  V30 2 O 4.69626 -0.710964 -0.430362 0
M  V30 3 C 3.36723 -0.419001 -0.304372 0
M  V30 4 C 2.82032 0.803192 -0.637235 0
M  V30 5 C 1.46943 1.06769 -0.497904 0
M  V30 6 C 0.620973 0.109882 -0.0180459 0
M  V30 7 C 1.14628 -1.11953 0.32104 0
M  V30 8 C 2.50627 -1.38221 0.179517 0
M  V30 9 N -0.771118 0.30003 0.154304 0
M  V30 10 N -1.63576 -0.26546 -0.595008 0
M  V30 11 C -3.00775 -0.0374723 -0.374299 0
M  V30 12 C -3.61708 -0.0705651 0.88508 0
M  V30 13 N -2.95877 -0.335108 2.12047 0
M  V30 14 N -4.90694 0.195047 0.649369 0
M  V30 15 N -5.122 0.383728 -0.638162 0
M  V30 16 C -3.96089 0.249065 -1.32877 0
M  V30 17 N -3.77275 0.377094 -2.73605 0
M  V30 18 H 6.69325 -0.201818 -0.540164 0
M  V30 19 H 5.5764 1.17683 -0.493799 0
M  V30 20 H 5.77254 0.159244 -2.01058 0
M  V30 21 H 3.47752 1.56289 -1.01513 0
M  V30 22 H 1.05657 2.03788 -0.765787 0
M  V30 23 H 0.485105 -1.90373 0.708182 0
M  V30 24 H 2.92249 -2.34812 0.445327 0
M  V30 25 H -2.39058 -1.19464 2.28726 0
M  V30 26 H -3.04789 0.356445 2.88761 0
M  V30 27 H -5.65126 0.245029 1.4063 0
M  V30 28 H -4.45074 -0.114191 -3.38897 0
M  V30 29 H -3.00304 0.928841 -3.1435 0
M  V30 END ATOM
M  V30 BEGIN BOND
M  V30 1 1 1 2
M  V30 2 1 2 3
M  V30 3 2 3 4
M  V30 4 1 4 5
M  V30 5 2 5 6
M  V30 6 1 6 7
M  V30 7 2 7 8
M  V30 8 1 6 9
M  V30 9 2 9 10 CFG=2
M  V30 10 1 10 11
M  V30 11 2 11 12
M  V30 12 1 12 13
M  V30 13 1 12 14
M  V30 14 1 14 15
M  V30 15 2 15 16
M  V30 16 1 16 17
M  V30 17 1 8 3
M  V30 18 1 16 11
M  V30 19 1 1 18
M  V30 20 1 1 19
M  V30 21 1 1 20
M  V30 22 1 4 21
M  V30 23 1 5 22
M  V30 24 1 7 23
M  V30 25 1 8 24
M  V30 26 1 13 25
M  V30 27 1 13 26
M  V30 28 1 14 27
M  V30 29 1 17 28
M  V30 30 1 17 29
M  V30 END BOND
M  V30 END CTAB
M  END
