
     RDKit          3D

  0  0  0  0  0  0  0  0  0  0999 V3000
M  V30 BEGIN CTAB
M  V30 COUNTS 35 36 0 0 0
M  V30 BEGIN ATOM
M  V30 1 N 5.38373 -0.00702463 1.90807 0
M  V30 2 C 4.15213 0.0254497 1.18915 0
M  V30 3 C 3.86545 -1.02681 0.339079 0
M  V30 4 C 2.67025 -1.02588 -0.37827 0
M  V30 5 C 1.76097 0.00288654 -0.261732 0
M  V30 6 C 2.07004 1.02928 0.585126 0
M  V30 7 C 3.25447 1.06281 1.3182 0
M  V30 8 C 0.512177 -0.0636776 -1.05473 0 CFG=1
M  V30 9 O 0.00383328 -1.34003 -0.94829 0
M  V30 10 C -0.882013 -1.50657 0.0972865 0
M  V30 11 C -2.27096 -1.38999 -0.45898 0
M  V30 12 N -2.65764 -0.0757435 -0.687366 0
M  V30 13 C -1.78051 0.822172 -1.30947 0
M  V30 14 C -0.450171 1.01315 -0.637945 0
M  V30 15 S -4.29604 0.296655 -0.675229 0
M  V30 16 O -5.01988 -0.61718 -1.64559 0
M  V30 17 O -4.51957 1.73167 -0.990963 0
M  V30 18 N -4.93901 -0.0616278 0.895642 0
M  V30 19 H 5.40676 -0.460387 2.83932 0
M  V30 20 H 6.21504 0.430651 1.46167 0
M  V30 21 H 4.57772 -1.82447 0.253075 0
M  V30 22 H 2.48129 -1.86497 -1.03233 0
M  V30 23 H 1.37624 1.83569 0.687856 0
M  V30 24 H 3.51067 1.8652 1.989 0
M  V30 25 H 0.74968 0.113127 -2.13308 0
M  V30 26 H -0.689194 -0.882844 0.96976 0
M  V30 27 H -0.764442 -2.57352 0.444883 0
M  V30 28 H -2.95763 -1.86103 0.293203 0
M  V30 29 H -2.31803 -2.06937 -1.35012 0
M  V30 30 H -1.55397 0.542977 -2.37985 0
M  V30 31 H -2.25979 1.82146 -1.37649 0
M  V30 32 H -0.0346179 1.97574 -1.03744 0
M  V30 33 H -0.530181 1.14844 0.449483 0
M  V30 34 H -5.80913 0.499874 0.987545 0
M  V30 35 H -4.25766 0.195779 1.64954 0
M  V30 END ATOM
M  V30 BEGIN BOND
M  V30 1 1 1 2
M  V30 2 2 2 3
M  V30 3 1 3 4
M  V30 4 2 4 5
M  V30 5 1 5 6
M  V30 6 2 6 7
M  V30 7 1 5 8
M  V30 8 1 8 9
M  V30 9 1 9 10
M  V30 10 1 10 11
M  V30 11 1 11 12
M  V30 12 1 12 13
M  V30 13 1 13 14
M  V30 14 1 12 15
M  V30 15 2 15 16
M  V30 16 2 15 17
M  V30 17 1 15 18
M  V30 18 1 7 2
M  V30 19 1 14 8
M  V30 20 1 1 19
M  V30 21 1 1 20
M  V30 22 1 3 21
M  V30 23 1 4 22
M  V30 24 1 6 23
M  V30 25 1 7 24
M  V30 26 1 8 25 CFG=3
M  V30 27 1 10 26
M  V30 28 1 10 27
M  V30 29 1 11 28
M  V30 30 1 11 29
M  V30 31 1 13 30
M  V30 32 1 13 31
M  V30 33 1 14 32
M  V30 34 1 14 33
M  V30 35 1 18 34
M  V30 36 1 18 35
M  V30 END BOND
M  V30 END CTAB
M  END
