
     RDKit          3D

  0  0  0  0  0  0  0  0  0  0999 V3000
M  V30 BEGIN CTAB
M  V30 COUNTS 45 47 0 0 0
M  V30 BEGIN ATOM
M  V30 1 O 0.952595 0.868731 3.57487 0
M  V30 2 C 1.60427 1.39657 2.63625 0
M  V30 3 N 1.05299 1.52765 1.35517 0
M  V30 4 C -0.216836 1.13477 0.90029 0
M  V30 5 C -1.28626 0.902311 1.72279 0
M  V30 6 C -2.5239 0.493702 1.21254 0
M  V30 7 C -2.7216 0.307615 -0.133116 0
M  V30 8 C -1.64766 0.53945 -0.974931 0
M  V30 9 C -0.436511 0.940985 -0.459985 0
M  V30 10 N -3.99499 -0.100751 -0.637014 0
M  V30 11 C -5.11873 -0.100054 0.26198 0
M  V30 12 C -6.4229 -0.400223 -0.41476 0
M  V30 13 O -6.37026 -0.176509 -1.80915 0
M  V30 14 C -5.42088 -1.06818 -2.31069 0
M  V30 15 C -4.05043 -0.495794 -2.02975 0
M  V30 16 C 2.96717 1.8657 2.97056 0
M  V30 17 S 3.97557 2.36476 1.58749 0
M  V30 18 C 4.55124 1.00337 0.599834 0
M  V30 19 N 5.73917 0.384187 0.89187 0
M  V30 20 C 6.21984 -0.63461 0.176294 0
M  V30 21 N 7.46663 -1.26276 0.503141 0
M  V30 22 C 5.51264 -1.11142 -0.914364 0
M  V30 23 C 4.32307 -0.508648 -1.22461 0
M  V30 24 N 3.90766 0.506616 -0.460804 0
M  V30 25 N 3.60689 -1.0039 -2.33329 0
M  V30 26 H 1.6564 2.0099 0.626129 0
M  V30 27 H -1.24828 1.02288 2.78964 0
M  V30 28 H -3.37469 0.310313 1.88789 0
M  V30 29 H -1.79073 0.394594 -2.0383 0
M  V30 30 H 0.411354 1.12436 -1.11582 0
M  V30 31 H -5.20046 0.945597 0.68957 0
M  V30 32 H -5.01019 -0.75103 1.13353 0
M  V30 33 H -6.63007 -1.49392 -0.32366 0
M  V30 34 H -7.2197 0.224725 0.0361104 0
M  V30 35 H -5.52518 -1.25695 -3.38315 0
M  V30 36 H -5.50808 -1.99523 -1.71176 0
M  V30 37 H -3.77466 0.36264 -2.64163 0
M  V30 38 H -3.32827 -1.32076 -2.19384 0
M  V30 39 H 2.88579 2.72883 3.69204 0
M  V30 40 H 3.5247 1.07352 3.56185 0
M  V30 41 H 8.07669 -0.868646 1.23767 0
M  V30 42 H 7.77797 -2.12205 0.00874039 0
M  V30 43 H 5.91082 -1.93529 -1.48571 0
M  V30 44 H 3.40712 -2.01805 -2.38791 0
M  V30 45 H 3.29067 -0.358171 -3.07201 0
M  V30 END ATOM
M  V30 BEGIN BOND
M  V30 1 2 1 2
M  V30 2 1 2 3
M  V30 3 1 3 4
M  V30 4 2 4 5
M  V30 5 1 5 6
M  V30 6 2 6 7
M  V30 7 1 7 8
M  V30 8 2 8 9
M  V30 9 1 7 10
M  V30 10 1 10 11
M  V30 11 1 11 12
M  V30 12 1 12 13
M  V30 13 1 13 14
M  V30 14 1 14 15
M  V30 15 1 2 16
M  V30 16 1 16 17
M  V30 17 1 17 18
M  V30 18 2 18 19
M  V30 19 1 19 20
M  V30 20 1 20 21
M  V30 21 2 20 22
M  V30 22 1 22 23
M  V30 23 2 23 24
M  V30 24 1 23 25
M  V30 25 1 9 4
M  V30 26 1 15 10
M  V30 27 1 24 18
M  V30 28 1 3 26
M  V30 29 1 5 27
M  V30 30 1 6 28
M  V30 31 1 8 29
M  V30 32 1 9 30
M  V30 33 1 11 31
M  V30 34 1 11 32
M  V30 35 1 12 33
M  V30 36 1 12 34
M  V30 37 1 14 35
M  V30 38 1 14 36
M  V30 39 1 15 37
M  V30 40 1 15 38
M  V30 41 1 16 39
M  V30 42 1 16 40
M  V30 43 1 21 41
M  V30 44 1 21 42
M  V30 45 1 22 43
M  V30 46 1 25 44
M  V30 47 1 25 45
M  V30 END BOND
M  V30 END CTAB
M  END
