
     RDKit          3D

  0  0  0  0  0  0  0  0  0  0999 V3000
M  V30 BEGIN CTAB
M  V30 COUNTS 35 36 0 0 0
M  V30 BEGIN ATOM
M  V30 1 C 3.14657 -3.28974 0.57216 0
M  V30 2 O 3.44119 -1.94206 0.797087 0
M  V30 3 C 2.62702 -0.946867 0.323429 0
M  V30 4 C 1.45958 -1.16443 -0.405146 0
M  V30 5 C 0.67745 -0.127827 -0.856471 0
M  V30 6 C -0.581507 -0.306921 -1.62104 0
M  V30 7 C -1.80538 -0.130829 -0.817165 0
M  V30 8 C -2.32647 -1.0622 0.0556638 0
M  V30 9 N -1.68592 -2.30396 0.221715 0
M  V30 10 N -3.47014 -0.752541 0.742213 0
M  V30 11 C -4.10997 0.416316 0.606174 0
M  V30 12 N -5.30107 0.690056 1.34728 0
M  V30 13 N -3.62485 1.33411 -0.23316 0
M  V30 14 C -2.50738 1.0778 -0.928094 0
M  V30 15 C 1.1125 1.16684 -0.548223 0
M  V30 16 C 2.25624 1.4275 0.166668 0
M  V30 17 O 2.68183 2.70337 0.468276 0
M  V30 18 C 2.04902 3.88763 0.113207 0
M  V30 19 C 3.01296 0.364238 0.602047 0
M  V30 20 F 4.14366 0.601448 1.30933 0
M  V30 21 H 3.46727 -3.6226 -0.446605 0
M  V30 22 H 3.69079 -3.89051 1.3574 0
M  V30 23 H 2.06737 -3.43803 0.70485 0
M  V30 24 H 1.18387 -2.18282 -0.618942 0
M  V30 25 H -0.538622 0.352707 -2.49609 0
M  V30 26 H -0.601803 -1.37373 -1.97708 0
M  V30 27 H -1.27056 -2.79299 -0.586337 0
M  V30 28 H -1.62812 -2.73352 1.15858 0
M  V30 29 H -5.53731 0.0609714 2.13584 0
M  V30 30 H -5.91472 1.49104 1.10938 0
M  V30 31 H -2.14894 1.84286 -1.5935 0
M  V30 32 H 0.541354 2.03855 -0.874747 0
M  V30 33 H 2.66472 4.73732 0.433991 0
M  V30 34 H 1.73143 3.9231 -0.942299 0
M  V30 35 H 1.09795 3.94573 0.719619 0
M  V30 END ATOM
M  V30 BEGIN BOND
M  V30 1 1 1 2
M  V30 2 1 2 3
M  V30 3 2 3 4
M  V30 4 1 4 5
M  V30 5 1 5 6
M  V30 6 1 6 7
M  V30 7 2 7 8
M  V30 8 1 8 9
M  V30 9 1 8 10
M  V30 10 2 10 11
M  V30 11 1 11 12
M  V30 12 1 11 13
M  V30 13 2 13 14
M  V30 14 2 5 15
M  V30 15 1 15 16
M  V30 16 1 16 17
M  V30 17 1 17 18
M  V30 18 2 16 19
M  V30 19 1 19 20
M  V30 20 1 19 3
M  V30 21 1 14 7
M  V30 22 1 1 21
M  V30 23 1 1 22
M  V30 24 1 1 23
M  V30 25 1 4 24
M  V30 26 1 6 25
M  V30 27 1 6 26
M  V30 28 1 9 27
M  V30 29 1 9 28
M  V30 30 1 12 29
M  V30 31 1 12 30
M  V30 32 1 14 31
M  V30 33 1 15 32
M  V30 34 1 18 33
M  V30 35 1 18 34
M  V30 36 1 18 35
M  V30 END BOND
M  V30 END CTAB
M  END
