
     RDKit          3D

  0  0  0  0  0  0  0  0  0  0999 V3000
M  V30 BEGIN CTAB
M  V30 COUNTS 51 53 0 0 0
M  V30 BEGIN ATOM
M  V30 1 N -6.19234 2.92395 -0.306719 0
M  V30 2 C -6.536 1.58954 -0.716415 0
M  V30 3 C -6.02314 0.568192 0.298195 0
M  V30 4 C -5.6261 -0.297171 -0.879772 0
M  V30 5 C -5.62175 0.955821 -1.73517 0
M  V30 6 C -4.29427 -0.935049 -0.717321 0
M  V30 7 C -3.16203 -0.22388 -0.419326 0
M  V30 8 C -1.92328 -0.855606 -0.273537 0
M  V30 9 N -0.758448 -0.11469 0.0334637 0
M  V30 10 C 0.479864 -0.844297 0.167098 0
M  V30 11 C 1.65265 0.0528022 0.492154 0
M  V30 12 C 2.86839 -0.840365 0.601906 0
M  V30 13 N 4.05767 -0.184233 0.901233 0
M  V30 14 C 5.24136 -0.943483 1.01901 0
M  V30 15 C 6.49948 -0.101105 1.01947 0
M  V30 16 C 6.39995 1.05395 0.052804 0
M  V30 17 C 5.12918 1.82646 0.159879 0
M  V30 18 C 4.11859 1.19103 1.0941 0
M  V30 19 O 7.49069 1.87024 0.243775 0
M  V30 20 N -1.92467 -2.18702 -0.44391 0
M  V30 21 C -3.02307 -2.90532 -0.736611 0
M  V30 22 N -4.19701 -2.26426 -0.869483 0
M  V30 23 N -2.87521 -4.30805 -0.889141 0
M  V30 24 H -5.54038 2.92202 0.496036 0
M  V30 25 H -5.89037 3.5277 -1.1026 0
M  V30 26 H -7.59965 1.40975 -0.907958 0
M  V30 27 H -5.13938 0.968178 0.868208 0
M  V30 28 H -6.81383 0.159186 0.944115 0
M  V30 29 H -6.44389 -1.00217 -1.12263 0
M  V30 30 H -6.03637 0.778872 -2.72829 0
M  V30 31 H -4.6027 1.39968 -1.73298 0
M  V30 32 H -3.26213 0.844988 -0.30075 0
M  V30 33 H -0.836138 0.911088 0.149557 0
M  V30 34 H 0.6996 -1.28178 -0.843777 0
M  V30 35 H 0.42836 -1.6534 0.914751 0
M  V30 36 H 1.8265 0.753782 -0.359617 0
M  V30 37 H 1.50713 0.587472 1.45203 0
M  V30 38 H 2.98964 -1.39924 -0.37259 0
M  V30 39 H 2.6941 -1.66122 1.35351 0
M  V30 40 H 5.32436 -1.62288 0.138984 0
M  V30 41 H 5.2281 -1.58834 1.91818 0
M  V30 42 H 7.39655 -0.706938 0.801162 0
M  V30 43 H 6.62075 0.318158 2.03746 0
M  V30 44 H 6.47908 0.624342 -0.965954 0
M  V30 45 H 5.35949 2.84855 0.525816 0
M  V30 46 H 4.62036 1.9662 -0.827162 0
M  V30 47 H 3.14131 1.66914 0.89159 0
M  V30 48 H 4.35929 1.46764 2.16035 0
M  V30 49 H 7.39393 2.41071 1.05023 0
M  V30 50 H -2.05887 -4.75528 -1.34858 0
M  V30 51 H -3.62532 -4.92366 -0.520781 0
M  V30 END ATOM
M  V30 BEGIN BOND
M  V30 1 1 1 2
M  V30 2 1 2 3
M  V30 3 1 3 4
M  V30 4 1 4 5
M  V30 5 1 4 6
M  V30 6 2 6 7
M  V30 7 1 7 8
M  V30 8 1 8 9
M  V30 9 1 9 10
M  V30 10 1 10 11
M  V30 11 1 11 12
M  V30 12 1 12 13
M  V30 13 1 13 14
M  V30 14 1 14 15
M  V30 15 1 15 16
M  V30 16 1 16 17
M  V30 17 1 17 18
M  V30 18 1 16 19
M  V30 19 2 8 20
M  V30 20 1 20 21
M  V30 21 2 21 22
M  V30 22 1 21 23
M  V30 23 1 5 2
M  V30 24 1 22 6
M  V30 25 1 18 13
M  V30 26 1 1 24
M  V30 27 1 1 25
M  V30 28 1 2 26
M  V30 29 1 3 27
M  V30 30 1 3 28
M  V30 31 1 4 29
M  V30 32 1 5 30
M  V30 33 1 5 31
M  V30 34 1 7 32
M  V30 35 1 9 33
M  V30 36 1 10 34
M  V30 37 1 10 35
M  V30 38 1 11 36
M  V30 39 1 11 37
M  V30 40 1 12 38
M  V30 41 1 12 39
M  V30 42 1 14 40
M  V30 43 1 14 41
M  V30 44 1 15 42
M  V30 45 1 15 43
M  V30 46 1 16 44
M  V30 47 1 17 45
M  V30 48 1 17 46
M  V30 49 1 18 47
M  V30 50 1 18 48
M  V30 51 1 19 49
M  V30 52 1 23 50
M  V30 53 1 23 51
M  V30 END BOND
M  V30 END CTAB
M  END
