
     RDKit          3D

  0  0  0  0  0  0  0  0  0  0999 V3000
M  V30 BEGIN CTAB
M  V30 COUNTS 46 47 0 0 0
M  V30 BEGIN ATOM
M  V30 1 C -1.60707 -2.33376 3.02725 0
M  V30 2 C -0.341516 -2.01096 2.17133 0
M  V30 3 C -0.670187 -0.837821 1.33435 0
M  V30 4 C 0.345585 -0.258899 0.4877 0
M  V30 5 O 0.616987 1.03941 0.650521 0
M  V30 6 O 1.08738 -0.773044 -0.506378 0
M  V30 7 C 1.99157 -0.316276 -1.36676 0
M  V30 8 C 3.32333 0.196156 -1.06531 0
M  V30 9 N 4.3314 -0.10141 -1.95687 0
M  V30 10 C 5.59248 0.299296 -1.82773 0
M  V30 11 N 6.57264 -0.0758828 -2.81133 0
M  V30 12 N 5.88777 1.03913 -0.750983 0
M  V30 13 C 4.91911 1.35484 0.15366 0
M  V30 14 N 3.652 0.919205 -0.0332727 0
M  V30 15 N 5.32531 2.12085 1.25852 0
M  V30 16 N -2.01305 -0.90795 0.73685 0
M  V30 17 C -2.71579 0.0177236 0.0245212 0
M  V30 18 C -2.28076 1.1582 -0.579848 0
M  V30 19 C -3.13978 2.10213 -1.18774 0
M  V30 20 C -4.47775 1.90055 -1.19168 0
M  V30 21 C -4.92738 0.745192 -0.594063 0
M  V30 22 C -4.13505 -0.180434 -0.0124645 0
M  V30 23 Cl -4.77835 -1.67326 0.668935 0
M  V30 24 C -5.39741 2.92849 -1.736 0
M  V30 25 F -5.19421 3.15007 -3.04264 0
M  V30 26 F -6.68971 2.53062 -1.54452 0
M  V30 27 F -5.24594 4.09708 -0.969257 0
M  V30 28 C -0.011779 -3.25378 1.41634 0
M  V30 29 H -2.42966 -1.59426 2.76167 0
M  V30 30 H -1.385 -2.20315 4.10841 0
M  V30 31 H -1.95898 -3.34846 2.79944 0
M  V30 32 H 0.445983 -1.78581 2.89233 0
M  V30 33 H -0.856835 0.0155894 2.17297 0
M  V30 34 H 2.07006 -1.08611 -2.2279 0
M  V30 35 H 1.49289 0.549235 -2.02506 0
M  V30 36 H 7.13524 0.638524 -3.25698 0
M  V30 37 H 6.68 -1.07403 -3.03989 0
M  V30 38 H 5.9959 1.6577 1.93308 0
M  V30 39 H 5.06309 3.08126 1.5163 0
M  V30 40 H -2.43404 -1.89371 0.859167 0
M  V30 41 H -1.25671 1.38976 -0.678299 0
M  V30 42 H -2.74138 3.00568 -1.64962 0
M  V30 43 H -6.01354 0.586017 -0.617268 0
M  V30 44 H 0.835412 -3.7812 1.8635 0
M  V30 45 H 0.203621 -3.05959 0.353882 0
M  V30 46 H -0.865878 -3.97289 1.48114 0
M  V30 END ATOM
M  V30 BEGIN BOND
M  V30 1 1 1 2
M  V30 2 1 2 3
M  V30 3 1 3 4
M  V30 4 2 4 5
M  V30 5 1 4 6
M  V30 6 1 6 7
M  V30 7 1 7 8
M  V30 8 2 8 9
M  V30 9 1 9 10
M  V30 10 1 10 11
M  V30 11 2 10 12
M  V30 12 1 12 13
M  V30 13 2 13 14
M  V30 14 1 13 15
M  V30 15 1 3 16
M  V30 16 1 16 17
M  V30 17 2 17 18
M  V30 18 1 18 19
M  V30 19 2 19 20
M  V30 20 1 20 21
M  V30 21 2 21 22
M  V30 22 1 22 23
M  V30 23 1 20 24
M  V30 24 1 24 25
M  V30 25 1 24 26
M  V30 26 1 24 27
M  V30 27 1 2 28
M  V30 28 1 14 8
M  V30 29 1 22 17
M  V30 30 1 1 29
M  V30 31 1 1 30
M  V30 32 1 1 31
M  V30 33 1 2 32
M  V30 34 1 3 33
M  V30 35 1 7 34
M  V30 36 1 7 35
M  V30 37 1 11 36
M  V30 38 1 11 37
M  V30 39 1 15 38
M  V30 40 1 15 39
M  V30 41 1 16 40
M  V30 42 1 18 41
M  V30 43 1 19 42
M  V30 44 1 21 43
M  V30 45 1 28 44
M  V30 46 1 28 45
M  V30 47 1 28 46
M  V30 END BOND
M  V30 END CTAB
M  END
