
     RDKit          3D

  0  0  0  0  0  0  0  0  0  0999 V3000
M  V30 BEGIN CTAB
M  V30 COUNTS 53 55 0 0 0
M  V30 BEGIN ATOM
M  V30 1 C -1.38367 -3.19503 -1.51267 0
M  V30 2 C -0.223648 -2.89307 -0.624432 0
M  V30 3 N -0.444977 -1.78569 0.286964 0
M  V30 4 C 0.49377 -0.718981 0.234152 0
M  V30 5 C 1.60739 -0.73409 1.0378 0
M  V30 6 C 2.52347 0.297066 0.963616 0
M  V30 7 C 2.39962 1.36195 0.123939 0
M  V30 8 C 1.25809 1.37393 -0.696187 0
M  V30 9 C 0.33859 0.351422 -0.629625 0
M  V30 10 N 3.34786 2.40326 -0.00517493 0
M  V30 11 C 4.74665 2.30313 0.14296 0
M  V30 12 C 5.48706 3.4668 0.333769 0
M  V30 13 C 6.85987 3.4621 0.444252 0
M  V30 14 C 7.57402 2.26625 0.366376 0
M  V30 15 C 6.85017 1.11614 0.179118 0
M  V30 16 C 5.45488 1.13739 0.0690738 0
M  V30 17 C -1.51229 -1.75915 1.18062 0
M  V30 18 O -2.3399 -2.73991 1.11774 0
M  V30 19 C -1.81254 -0.740484 2.19621 0
M  V30 20 S -2.28524 0.821265 1.42408 0
M  V30 21 C -3.78783 0.731112 0.505354 0
M  V30 22 N -4.5165 -0.407572 0.374198 0
M  V30 23 C -5.65444 -0.400229 -0.340143 0
M  V30 24 N -6.40741 -1.61905 -0.463859 0
M  V30 25 C -6.0767 0.765999 -0.937637 0
M  V30 26 C -5.33542 1.94081 -0.808582 0
M  V30 27 N -4.20583 1.87587 -0.0826076 0
M  V30 28 N -5.73925 3.16417 -1.40857 0
M  V30 29 C 0.120098 -4.16227 0.149716 0
M  V30 30 H -1.0866 -3.67515 -2.46714 0
M  V30 31 H -2.08959 -3.93181 -1.02049 0
M  V30 32 H -1.99592 -2.29607 -1.77483 0
M  V30 33 H 0.665151 -2.68384 -1.25067 0
M  V30 34 H 1.74734 -1.55044 1.71812 0
M  V30 35 H 3.38828 0.239663 1.63826 0
M  V30 36 H 1.14486 2.20932 -1.3639 0
M  V30 37 H -0.552741 0.358133 -1.27057 0
M  V30 38 H 2.93686 3.37028 -0.243975 0
M  V30 39 H 4.9756 4.44252 0.402518 0
M  V30 40 H 7.4532 4.36434 0.593005 0
M  V30 41 H 8.66085 2.2752 0.452355 0
M  V30 42 H 7.40778 0.186077 0.11951 0
M  V30 43 H 4.94702 0.204001 -0.090179 0
M  V30 44 H -2.61908 -1.08528 2.89499 0
M  V30 45 H -0.938281 -0.549395 2.87207 0
M  V30 46 H -6.19807 -2.28851 -1.23475 0
M  V30 47 H -7.1648 -1.8363 0.215614 0
M  V30 48 H -6.99056 0.795204 -1.51416 0
M  V30 49 H -5.19557 3.55162 -2.20566 0
M  V30 50 H -6.56191 3.68112 -1.07157 0
M  V30 51 H 1.21136 -4.14441 0.371448 0
M  V30 52 H -0.0675723 -5.05411 -0.481731 0
M  V30 53 H -0.413521 -4.2653 1.09127 0
M  V30 END ATOM
M  V30 BEGIN BOND
M  V30 1 1 1 2
M  V30 2 1 2 3
M  V30 3 1 3 4
M  V30 4 2 4 5
M  V30 5 1 5 6
M  V30 6 2 6 7
M  V30 7 1 7 8
M  V30 8 2 8 9
M  V30 9 1 7 10
M  V30 10 1 10 11
M  V30 11 2 11 12
M  V30 12 1 12 13
M  V30 13 2 13 14
M  V30 14 1 14 15
M  V30 15 2 15 16
M  V30 16 1 3 17
M  V30 17 2 17 18
M  V30 18 1 17 19
M  V30 19 1 19 20
M  V30 20 1 20 21
M  V30 21 2 21 22
M  V30 22 1 22 23
M  V30 23 1 23 24
M  V30 24 2 23 25
M  V30 25 1 25 26
M  V30 26 2 26 27
M  V30 27 1 26 28
M  V30 28 1 2 29
M  V30 29 1 9 4
M  V30 30 1 16 11
M  V30 31 1 27 21
M  V30 32 1 1 30
M  V30 33 1 1 31
M  V30 34 1 1 32
M  V30 35 1 2 33
M  V30 36 1 5 34
M  V30 37 1 6 35
M  V30 38 1 8 36
M  V30 39 1 9 37
M  V30 40 1 10 38
M  V30 41 1 12 39
M  V30 42 1 13 40
M  V30 43 1 14 41
M  V30 44 1 15 42
M  V30 45 1 16 43
M  V30 46 1 19 44
M  V30 47 1 19 45
M  V30 48 1 24 46
M  V30 49 1 24 47
M  V30 50 1 25 48
M  V30 51 1 28 49
M  V30 52 1 28 50
M  V30 53 1 29 51
M  V30 54 1 29 52
M  V30 55 1 29 53
M  V30 END BOND
M  V30 END CTAB
M  END
