
     RDKit          3D

  0  0  0  0  0  0  0  0  0  0999 V3000
M  V30 BEGIN CTAB
M  V30 COUNTS 22 22 0 0 0
M  V30 BEGIN ATOM
M  V30 1 C -2.04515 -2.24126 0.457115 0
M  V30 2 C -1.06028 -1.17658 0.152787 0
M  V30 3 N 0.247524 -1.35005 -0.124279 0
M  V30 4 N 0.827664 -0.191034 -0.3461 0
M  V30 5 C -0.11371 0.765164 -0.213202 0
M  V30 6 C -1.33282 0.180833 0.104784 0
M  V30 7 N -2.56698 0.856877 0.325252 0
M  V30 8 C 0.120608 2.21393 -0.381304 0
M  V30 9 S 2.51095 0.0712126 -0.741538 0
M  V30 10 O 2.77056 1.5123 -0.999124 0
M  V30 11 O 2.8466 -0.73957 -1.94934 0
M  V30 12 N 3.50893 -0.499195 0.562293 0
M  V30 13 H -3.0751 -1.8852 0.36797 0
M  V30 14 H -1.85202 -3.0868 -0.262319 0
M  V30 15 H -1.84809 -2.62401 1.4968 0
M  V30 16 H -3.22662 1.07321 -0.4532 0
M  V30 17 H -2.87407 1.17081 1.28094 0
M  V30 18 H 0.51044 2.41214 -1.40016 0
M  V30 19 H 0.880895 2.52207 0.344429 0
M  V30 20 H -0.798554 2.79297 -0.239024 0
M  V30 21 H 3.5721 -1.53983 0.565483 0
M  V30 22 H 2.99711 -0.237991 1.45173 0
M  V30 END ATOM
M  V30 BEGIN BOND
M  V30 1 1 1 2
M  V30 2 2 2 3
M  V30 3 1 3 4
M  V30 4 1 4 5
M  V30 5 2 5 6
M  V30 6 1 6 7
M  V30 7 1 5 8
M  V30 8 1 4 9
M  V30 9 2 9 10
M  V30 10 2 9 11
M  V30 11 1 9 12
M  V30 12 1 6 2
M  V30 13 1 1 13
M  V30 14 1 1 14
M  V30 15 1 1 15
M  V30 16 1 7 16
M  V30 17 1 7 17
M  V30 18 1 8 18
M  V30 19 1 8 19
M  V30 20 1 8 20
M  V30 21 1 12 21
M  V30 22 1 12 22
M  V30 END BOND
M  V30 END CTAB
M  END
