
     RDKit          3D

  0  0  0  0  0  0  0  0  0  0999 V3000
M  V30 BEGIN CTAB
M  V30 COUNTS 55 58 0 0 0
M  V30 BEGIN ATOM
M  V30 1 N 8.39173 0.695428 2.60197 0
M  V30 2 C 8.35418 0.882969 1.21111 0
M  V30 3 C 6.98932 0.447506 0.693877 0
M  V30 4 C 5.92351 1.26486 1.34096 0
M  V30 5 O 4.66485 0.925486 0.907202 0
M  V30 6 C 4.04516 0.985002 -0.296007 0
M  V30 7 C 4.57493 1.46719 -1.47465 0
M  V30 8 C 3.82431 1.46653 -2.6474 0
M  V30 9 C 2.54164 0.993373 -2.6822 0
M  V30 10 C 1.99322 0.504949 -1.50376 0
M  V30 11 C 2.7336 0.504703 -0.344565 0
M  V30 12 C 0.623221 0.00279825 -1.55783 0
M  V30 13 O 0.00569968 0.0471461 -2.64962 0
M  V30 14 N -0.0594663 -0.539515 -0.434494 0
M  V30 15 C -1.41994 -1.02077 -0.561128 0 CFG=1
M  V30 16 C -1.52815 -2.46851 -0.129661 0
M  V30 17 C -3.01802 -2.61542 0.0592117 0
M  V30 18 C -3.43368 -1.35119 0.730273 0 CFG=1
M  V30 19 C -2.35276 -0.342358 0.416532 0 CFG=1
M  V30 20 O -1.71209 0.115276 1.55207 0
M  V30 21 N -4.73384 -0.899282 0.233789 0
M  V30 22 C -5.14968 -0.936682 -1.04457 0
M  V30 23 N -6.41533 -0.431663 -1.12992 0
M  V30 24 C -6.80655 -0.0703525 0.1058 0
M  V30 25 C -5.73404 -0.376156 0.92886 0
M  V30 26 N -5.88651 -0.0994378 2.24422 0
M  V30 27 C -7.03521 0.449077 2.71954 0
M  V30 28 N -8.05663 0.732899 1.89038 0
M  V30 29 C -7.97992 0.48642 0.569369 0
M  V30 30 N -9.0741 0.796367 -0.282193 0
M  V30 31 H 7.97595 1.41982 3.11894 0
M  V30 32 H 9.25399 0.363812 2.9439 0
M  V30 33 H 8.4459 1.95502 0.961017 0
M  V30 34 H 9.12905 0.274438 0.725748 0
M  V30 35 H 6.94783 0.400593 -0.392616 0
M  V30 36 H 6.8063 -0.622472 1.03103 0
M  V30 37 H 5.96621 1.10733 2.45444 0
M  V30 38 H 6.13153 2.37039 1.24088 0
M  V30 39 H 5.58062 1.86542 -1.48543 0
M  V30 40 H 4.32584 1.86668 -3.53135 0
M  V30 41 H 1.99371 1.01022 -3.61074 0
M  V30 42 H 2.27461 0.117064 0.554746 0
M  V30 43 H 0.390931 -0.611836 0.52241 0
M  V30 44 H -1.8075 -0.906596 -1.59149 0
M  V30 45 H -1.13878 -3.07895 -0.98121 0
M  V30 46 H -0.953325 -2.59126 0.792525 0
M  V30 47 H -3.45746 -2.69198 -0.958925 0
M  V30 48 H -3.21888 -3.52501 0.666484 0
M  V30 49 H -3.54161 -1.48148 1.84101 0
M  V30 50 H -2.84018 0.516674 -0.086715 0
M  V30 51 H -1.77272 -0.555782 2.26329 0
M  V30 52 H -4.60788 -1.29754 -1.89968 0
M  V30 53 H -7.14688 0.668913 3.78704 0
M  V30 54 H -9.44243 1.76667 -0.420024 0
M  V30 55 H -9.56428 0.0432241 -0.816913 0
M  V30 END ATOM
M  V30 BEGIN BOND
M  V30 1 1 1 2
M  V30 2 1 2 3
M  V30 3 1 3 4
M  V30 4 1 4 5
M  V30 5 1 5 6
M  V30 6 2 6 7
M  V30 7 1 7 8
M  V30 8 2 8 9
M  V30 9 1 9 10
M  V30 10 2 10 11
M  V30 11 1 10 12
M  V30 12 2 12 13
M  V30 13 1 12 14
M  V30 14 1 14 15
M  V30 15 1 15 16
M  V30 16 1 16 17
M  V30 17 1 17 18
M  V30 18 1 18 19
M  V30 19 1 19 20
M  V30 20 1 18 21
M  V30 21 1 21 22
M  V30 22 2 22 23
M  V30 23 1 23 24
M  V30 24 2 24 25
M  V30 25 1 25 26
M  V30 26 2 26 27
M  V30 27 1 27 28
M  V30 28 2 28 29
M  V30 29 1 29 30
M  V30 30 1 11 6
M  V30 31 1 19 15
M  V30 32 1 25 21
M  V30 33 1 29 24
M  V30 34 1 1 31
M  V30 35 1 1 32
M  V30 36 1 2 33
M  V30 37 1 2 34
M  V30 38 1 3 35
M  V30 39 1 3 36
M  V30 40 1 4 37
M  V30 41 1 4 38
M  V30 42 1 7 39
M  V30 43 1 8 40
M  V30 44 1 9 41
M  V30 45 1 11 42
M  V30 46 1 14 43
M  V30 47 1 15 44 CFG=3
M  V30 48 1 16 45
M  V30 49 1 16 46
M  V30 50 1 17 47
M  V30 51 1 17 48
M  V30 52 1 18 49 CFG=1
M  V30 53 1 19 50 CFG=3
M  V30 54 1 20 51
M  V30 55 1 22 52
M  V30 56 1 27 53
M  V30 57 1 30 54
M  V30 58 1 30 55
M  V30 END BOND
M  V30 END CTAB
M  END
