
     RDKit          3D

  0  0  0  0  0  0  0  0  0  0999 V3000
M  V30 BEGIN CTAB
M  V30 COUNTS 30 32 0 0 0
M  V30 BEGIN ATOM
M  V30 1 N 5.35534 0.844035 0.377816 0
M  V30 2 C 4.03966 0.357008 0.221194 0
M  V30 3 C 3.04441 1.06632 -0.394616 0
M  V30 4 C 1.76844 0.506285 -0.513131 0
M  V30 5 C 1.48352 -0.749654 -0.0256702 0
M  V30 6 C 2.49913 -1.46941 0.602507 0
M  V30 7 C 3.75615 -0.90628 0.715388 0
M  V30 8 O 1.97351 -2.59521 0.962825 0
M  V30 9 C 0.718956 -2.66463 0.62262 0
M  V30 10 O -0.024676 -3.67109 0.865415 0
M  V30 11 N 0.358676 -1.5071 -0.0141957 0
M  V30 12 C -0.896709 -1.23563 -0.564185 0
M  V30 13 O -1.75962 -2.22742 -0.31918 0
M  V30 14 C -1.47541 -0.163689 -1.32703 0
M  V30 15 N -2.51514 0.504356 -0.52693 0
M  V30 16 N -2.27523 1.51825 0.263905 0
M  V30 17 C -3.4584 1.86184 0.813138 0
M  V30 18 C -4.41045 1.00349 0.30935 0
M  V30 19 N -3.79676 0.15719 -0.532432 0
M  V30 20 N -5.80959 0.998342 0.607401 0
M  V30 21 H 6.12829 0.408183 -0.150444 0
M  V30 22 H 5.55156 1.63142 1.01563 0
M  V30 23 H 3.26029 2.05116 -0.783324 0
M  V30 24 H 1.00548 1.10375 -0.991799 0
M  V30 25 H 4.54816 -1.4698 1.20622 0
M  V30 26 H -0.882525 0.619457 -1.76199 0
M  V30 27 H -2.00762 -0.650711 -2.22492 0
M  V30 28 H -3.60194 2.6875 1.52715 0
M  V30 29 H -6.4648 0.940204 -0.196968 0
M  V30 30 H -6.11272 1.05184 1.59531 0
M  V30 END ATOM
M  V30 BEGIN BOND
M  V30 1 1 1 2
M  V30 2 2 2 3
M  V30 3 1 3 4
M  V30 4 2 4 5
M  V30 5 1 5 6
M  V30 6 2 6 7
M  V30 7 1 6 8
M  V30 8 1 8 9
M  V30 9 2 9 10
M  V30 10 1 9 11
M  V30 11 1 11 12
M  V30 12 2 12 13
M  V30 13 1 12 14
M  V30 14 1 14 15
M  V30 15 1 15 16
M  V30 16 2 16 17
M  V30 17 1 17 18
M  V30 18 2 18 19
M  V30 19 1 18 20
M  V30 20 1 7 2
M  V30 21 1 19 15
M  V30 22 1 11 5
M  V30 23 1 1 21
M  V30 24 1 1 22
M  V30 25 1 3 23
M  V30 26 1 4 24
M  V30 27 1 7 25
M  V30 28 1 14 26
M  V30 29 1 14 27
M  V30 30 1 17 28
M  V30 31 1 20 29
M  V30 32 1 20 30
M  V30 END BOND
M  V30 END CTAB
M  END
