
     RDKit          3D

  0  0  0  0  0  0  0  0  0  0999 V3000
M  V30 BEGIN CTAB
M  V30 COUNTS 39 40 0 0 0
M  V30 BEGIN ATOM
M  V30 1 O 1.20259 -0.827453 1.27175 0
M  V30 2 C 1.12103 -1.89123 0.646758 0
M  V30 3 N 0.0119583 -2.32336 -0.0489008 0
M  V30 4 C -1.20837 -1.62314 -0.153526 0
M  V30 5 C -2.1362 -2.00332 -1.13202 0
M  V30 6 C -3.34673 -1.40196 -1.30237 0
M  V30 7 C -3.70541 -0.338129 -0.459954 0
M  V30 8 C -2.83635 0.0673363 0.506816 0
M  V30 9 C -1.59065 -0.590959 0.64315 0
M  V30 10 N -4.95932 0.278329 -0.677477 0
M  V30 11 C -5.65495 1.1358 0.179754 0
M  V30 12 O -5.23443 1.47557 1.30508 0
M  V30 13 C -6.98586 1.67904 -0.283626 0
M  V30 14 C 2.35514 -2.77356 0.662629 0
M  V30 15 S 3.40508 -2.25503 -0.721155 0
M  V30 16 C 3.99585 -0.589226 -0.386827 0
M  V30 17 N 5.14896 -0.402883 0.291797 0
M  V30 18 C 5.60305 0.85438 0.549485 0
M  V30 19 N 6.81901 0.991057 1.26603 0
M  V30 20 C 4.90494 1.96657 0.12911 0
M  V30 21 C 3.74369 1.753 -0.55402 0
M  V30 22 N 3.324 0.499663 -0.791574 0
M  V30 23 N 2.99412 2.8751 -1.00433 0
M  V30 24 H 0.0994554 -3.28273 -0.550913 0
M  V30 25 H -1.84894 -2.82163 -1.77189 0
M  V30 26 H -4.06348 -1.69527 -2.05746 0
M  V30 27 H -3.02312 0.871478 1.18114 0
M  V30 28 H -0.939377 -0.239309 1.43811 0
M  V30 29 H -5.46756 0.0860588 -1.61583 0
M  V30 30 H -6.98201 1.86444 -1.37304 0
M  V30 31 H -7.13564 2.65068 0.25629 0
M  V30 32 H -7.77361 0.9545 0.0181579 0
M  V30 33 H 2.02692 -3.83805 0.481411 0
M  V30 34 H 2.87753 -2.7221 1.62076 0
M  V30 35 H 7.65511 0.434371 1.00172 0
M  V30 36 H 6.90313 1.64649 2.06851 0
M  V30 37 H 5.32896 2.93034 0.370847 0
M  V30 38 H 3.36682 3.83888 -0.99374 0
M  V30 39 H 2.00463 2.76627 -1.37535 0
M  V30 END ATOM
M  V30 BEGIN BOND
M  V30 1 2 1 2
M  V30 2 1 2 3
M  V30 3 1 3 4
M  V30 4 2 4 5
M  V30 5 1 5 6
M  V30 6 2 6 7
M  V30 7 1 7 8
M  V30 8 2 8 9
M  V30 9 1 7 10
M  V30 10 1 10 11
M  V30 11 2 11 12
M  V30 12 1 11 13
M  V30 13 1 2 14
M  V30 14 1 14 15
M  V30 15 1 15 16
M  V30 16 2 16 17
M  V30 17 1 17 18
M  V30 18 1 18 19
M  V30 19 2 18 20
M  V30 20 1 20 21
M  V30 21 2 21 22
M  V30 22 1 21 23
M  V30 23 1 9 4
M  V30 24 1 22 16
M  V30 25 1 3 24
M  V30 26 1 5 25
M  V30 27 1 6 26
M  V30 28 1 8 27
M  V30 29 1 9 28
M  V30 30 1 10 29
M  V30 31 1 13 30
M  V30 32 1 13 31
M  V30 33 1 13 32
M  V30 34 1 14 33
M  V30 35 1 14 34
M  V30 36 1 19 35
M  V30 37 1 19 36
M  V30 38 1 20 37
M  V30 39 1 23 38
M  V30 40 1 23 39
M  V30 END BOND
M  V30 END CTAB
M  END
