
     RDKit          3D

  0  0  0  0  0  0  0  0  0  0999 V3000
M  V30 BEGIN CTAB
M  V30 COUNTS 32 33 0 0 0
M  V30 BEGIN ATOM
M  V30 1 N -1.04702 -1.01843 -2.13445 0
M  V30 2 N -0.200211 -0.442423 -1.18078 0
M  V30 3 C 1.14123 -0.376749 -1.25072 0
M  V30 4 N 1.97455 -0.823897 -2.31444 0
M  V30 5 C 1.58407 0.180694 -0.0103614 0
M  V30 6 N 0.505024 0.424625 0.743638 0
M  V30 7 C -0.618568 0.0364916 0.015368 0
M  V30 8 C -1.99562 0.223222 0.450246 0
M  V30 9 C -2.99412 0.199734 -0.708725 0
M  V30 10 C -2.42498 -0.854438 1.42259 0
M  V30 11 C -2.212 1.57969 1.15232 0
M  V30 12 C 3.0065 0.50876 0.16309 0
M  V30 13 C 3.90627 -0.398927 0.904763 0
M  V30 14 C 3.37715 0.76767 1.64403 0
M  V30 15 H -1.34158 -0.512474 -2.98226 0
M  V30 16 H -1.40481 -2.01925 -1.96008 0
M  V30 17 H 2.52791 -1.73461 -2.16955 0
M  V30 18 H 2.06658 -0.310788 -3.19282 0
M  V30 19 H -3.95121 0.673295 -0.335474 0
M  V30 20 H -2.67636 0.862178 -1.53098 0
M  V30 21 H -3.31531 -0.82448 -0.952718 0
M  V30 22 H -2.10551 -0.610868 2.45054 0
M  V30 23 H -3.52536 -0.893695 1.40173 0
M  V30 24 H -1.99845 -1.8548 1.08437 0
M  V30 25 H -1.57728 1.64609 2.02527 0
M  V30 26 H -3.29897 1.53349 1.44597 0
M  V30 27 H -2.05484 2.42108 0.44961 0
M  V30 28 H 3.4218 1.25979 -0.549315 0
M  V30 29 H 3.55675 -1.42213 1.16738 0
M  V30 30 H 4.9743 -0.428653 0.531543 0
M  V30 31 H 2.58006 0.599214 2.3611 0
M  V30 32 H 4.12001 1.61058 1.81731 0
M  V30 END ATOM
M  V30 BEGIN BOND
M  V30 1 1 1 2
M  V30 2 1 2 3
M  V30 3 1 3 4
M  V30 4 2 3 5
M  V30 5 1 5 6
M  V30 6 2 6 7
M  V30 7 1 7 8
M  V30 8 1 8 9
M  V30 9 1 8 10
M  V30 10 1 8 11
M  V30 11 1 5 12
M  V30 12 1 12 13
M  V30 13 1 13 14
M  V30 14 1 7 2
M  V30 15 1 14 12
M  V30 16 1 1 15
M  V30 17 1 1 16
M  V30 18 1 4 17
M  V30 19 1 4 18
M  V30 20 1 9 19
M  V30 21 1 9 20
M  V30 22 1 9 21
M  V30 23 1 10 22
M  V30 24 1 10 23
M  V30 25 1 10 24
M  V30 26 1 11 25
M  V30 27 1 11 26
M  V30 28 1 11 27
M  V30 29 1 12 28
M  V30 30 1 13 29
M  V30 31 1 13 30
M  V30 32 1 14 31
M  V30 33 1 14 32
M  V30 END BOND
M  V30 END CTAB
M  END
