
     RDKit          3D

  0  0  0  0  0  0  0  0  0  0999 V3000
M  V30 BEGIN CTAB
M  V30 COUNTS 33 34 0 0 0
M  V30 BEGIN ATOM
M  V30 1 N 0.161319 -1.71418 -2.8607 0
M  V30 2 C -0.566251 -1.19579 -2.10371 0
M  V30 3 C -1.45017 -0.570299 -1.15557 0
M  V30 4 C -2.43049 -1.34699 -0.57543 0
M  V30 5 N -2.52739 -2.73775 -0.88206 0
M  V30 6 C -3.3239 -0.769517 0.305843 0
M  V30 7 C -3.1984 0.5795 0.573783 0
M  V30 8 N -2.23152 1.29934 -0.0103864 0
M  V30 9 C -1.328 0.770126 -0.885177 0
M  V30 10 S -0.0367542 1.77183 -1.58248 0
M  V30 11 C 1.37393 1.94309 -0.481763 0
M  V30 12 C 2.06318 0.66818 -0.212653 0
M  V30 13 C 1.67159 -0.232423 0.766378 0
M  V30 14 C 2.39555 -1.39841 0.958667 0
M  V30 15 C 3.50588 -1.68223 0.189583 0
M  V30 16 C 3.89414 -0.779466 -0.788931 0
M  V30 17 C 3.19009 0.381132 -0.995069 0
M  V30 18 F 4.21817 -2.81438 0.370994 0
M  V30 19 C 0.949905 2.63575 0.813085 0
M  V30 20 N -4.11211 1.17869 1.47675 0
M  V30 21 H -3.46561 -3.16269 -1.02191 0
M  V30 22 H -1.64811 -3.27874 -0.954226 0
M  V30 23 H -4.08744 -1.38966 0.752842 0
M  V30 24 H 2.12121 2.65244 -0.990752 0
M  V30 25 H 0.798835 -0.00156463 1.36482 0
M  V30 26 H 2.08857 -2.11351 1.73274 0
M  V30 27 H 4.76965 -0.993707 -1.40169 0
M  V30 28 H 3.54085 1.04659 -1.7727 0
M  V30 29 H 0.533592 3.62928 0.475017 0
M  V30 30 H 0.197829 1.98444 1.27301 0
M  V30 31 H 1.81382 2.85545 1.44542 0
M  V30 32 H -3.7641 1.63689 2.3287 0
M  V30 33 H -5.11786 1.14858 1.26853 0
M  V30 END ATOM
M  V30 BEGIN BOND
M  V30 1 3 1 2
M  V30 2 1 2 3
M  V30 3 2 3 4
M  V30 4 1 4 5
M  V30 5 1 4 6
M  V30 6 2 6 7
M  V30 7 1 7 8
M  V30 8 2 8 9
M  V30 9 1 9 10
M  V30 10 1 10 11
M  V30 11 1 11 12
M  V30 12 2 12 13
M  V30 13 1 13 14
M  V30 14 2 14 15
M  V30 15 1 15 16
M  V30 16 2 16 17
M  V30 17 1 15 18
M  V30 18 1 11 19
M  V30 19 1 7 20
M  V30 20 1 9 3
M  V30 21 1 17 12
M  V30 22 1 5 21
M  V30 23 1 5 22
M  V30 24 1 6 23
M  V30 25 1 11 24
M  V30 26 1 13 25
M  V30 27 1 14 26
M  V30 28 1 16 27
M  V30 29 1 17 28
M  V30 30 1 19 29
M  V30 31 1 19 30
M  V30 32 1 19 31
M  V30 33 1 20 32
M  V30 34 1 20 33
M  V30 END BOND
M  V30 END CTAB
M  END
