
     RDKit          3D

  0  0  0  0  0  0  0  0  0  0999 V3000
M  V30 BEGIN CTAB
M  V30 COUNTS 48 50 0 0 0
M  V30 BEGIN ATOM
M  V30 1 N -7.72817 0.50912 0.134451 0
M  V30 2 C -6.4366 0.999339 -0.26993 0
M  V30 3 C -5.54325 -0.101554 -0.793468 0
M  V30 4 C -4.99916 -0.243345 0.626707 0
M  V30 5 C -5.44304 1.16206 0.882524 0
M  V30 6 C -3.50958 -0.425664 0.533058 0
M  V30 7 C -2.70902 0.418992 -0.165313 0
M  V30 8 C -1.32628 0.184607 -0.20746 0
M  V30 9 N -0.517576 1.07758 -0.951707 0
M  V30 10 C 0.904162 0.927672 -1.03713 0
M  V30 11 C 1.59628 1.10988 0.287349 0
M  V30 12 C 3.09415 0.942229 0.11822 0
M  V30 13 C 3.45492 -0.427834 -0.409122 0
M  V30 14 C 4.9552 -0.440825 -0.518091 0
M  V30 15 C 5.73705 -0.854069 0.541493 0
M  V30 16 C 7.12084 -0.873781 0.462132 0
M  V30 17 C 7.76451 -0.476695 -0.690598 0
M  V30 18 C 6.98231 -0.0640517 -1.7485 0
M  V30 19 C 5.60535 -0.0447072 -1.66879 0
M  V30 20 N -0.850439 -0.881688 0.455635 0
M  V30 21 C -1.62863 -1.7355 1.15701 0
M  V30 22 N -2.95324 -1.4718 1.17046 0
M  V30 23 N -1.05486 -2.83349 1.82747 0
M  V30 24 H -8.17404 1.05399 0.882469 0
M  V30 25 H -7.76095 -0.523299 0.272027 0
M  V30 26 H -6.4793 1.88682 -0.947773 0
M  V30 27 H -4.80546 0.298363 -1.5009 0
M  V30 28 H -6.07365 -0.998505 -1.16168 0
M  V30 29 H -5.48663 -1.01732 1.23035 0
M  V30 30 H -4.69552 1.93269 0.610394 0
M  V30 31 H -5.92853 1.34141 1.86917 0
M  V30 32 H -3.11086 1.25654 -0.682031 0
M  V30 33 H -0.961798 1.88174 -1.46365 0
M  V30 34 H 1.36682 1.57203 -1.8061 0
M  V30 35 H 1.11405 -0.116387 -1.35957 0
M  V30 36 H 1.19899 0.481779 1.09022 0
M  V30 37 H 1.38425 2.1678 0.598839 0
M  V30 38 H 3.56444 1.11805 1.10727 0
M  V30 39 H 3.4568 1.74321 -0.547087 0
M  V30 40 H 3.10258 -0.50961 -1.46353 0
M  V30 41 H 3.11238 -1.23174 0.241979 0
M  V30 42 H 5.23493 -1.16651 1.44807 0
M  V30 43 H 7.74566 -1.19502 1.28419 0
M  V30 44 H 8.85806 -0.485739 -0.771246 0
M  V30 45 H 7.51445 0.245516 -2.6501 0
M  V30 46 H 4.99909 0.277649 -2.49568 0
M  V30 47 H -0.956664 -2.82101 2.85132 0
M  V30 48 H -0.73403 -3.64893 1.28822 0
M  V30 END ATOM
M  V30 BEGIN BOND
M  V30 1 1 1 2
M  V30 2 1 2 3
M  V30 3 1 3 4
M  V30 4 1 4 5
M  V30 5 1 4 6
M  V30 6 2 6 7
M  V30 7 1 7 8
M  V30 8 1 8 9
M  V30 9 1 9 10
M  V30 10 1 10 11
M  V30 11 1 11 12
M  V30 12 1 12 13
M  V30 13 1 13 14
M  V30 14 2 14 15
M  V30 15 1 15 16
M  V30 16 2 16 17
M  V30 17 1 17 18
M  V30 18 2 18 19
M  V30 19 2 8 20
M  V30 20 1 20 21
M  V30 21 2 21 22
M  V30 22 1 21 23
M  V30 23 1 5 2
M  V30 24 1 22 6
M  V30 25 1 19 14
M  V30 26 1 1 24
M  V30 27 1 1 25
M  V30 28 1 2 26
M  V30 29 1 3 27
M  V30 30 1 3 28
M  V30 31 1 4 29
M  V30 32 1 5 30
M  V30 33 1 5 31
M  V30 34 1 7 32
M  V30 35 1 9 33
M  V30 36 1 10 34
M  V30 37 1 10 35
M  V30 38 1 11 36
M  V30 39 1 11 37
M  V30 40 1 12 38
M  V30 41 1 12 39
M  V30 42 1 13 40
M  V30 43 1 13 41
M  V30 44 1 15 42
M  V30 45 1 16 43
M  V30 46 1 17 44
M  V30 47 1 18 45
M  V30 48 1 19 46
M  V30 49 1 23 47
M  V30 50 1 23 48
M  V30 END BOND
M  V30 END CTAB
M  END
