
     RDKit          3D

  0  0  0  0  0  0  0  0  0  0999 V3000
M  V30 BEGIN CTAB
M  V30 COUNTS 20 21 0 0 0
M  V30 BEGIN ATOM
M  V30 1 N 2.2182 2.37294 -1.56691 0
M  V30 2 C 1.54263 1.31857 -0.909954 0
M  V30 3 N 0.204535 1.19618 -0.882347 0
M  V30 4 C -0.441139 0.193408 -0.257691 0
M  V30 5 N 0.301483 -0.73686 0.373618 0
M  V30 6 C 1.64688 -0.666686 0.380129 0
M  V30 7 N 2.25013 0.35451 -0.258101 0
M  V30 8 N 2.37279 -1.67029 1.0583 0
M  V30 9 C -1.94491 0.110451 -0.262029 0
M  V30 10 C -2.60698 -1.17218 0.00854673 0
M  V30 11 C -2.53393 -0.2047 1.13025 0
M  V30 12 H 1.76748 2.9303 -2.3158 0
M  V30 13 H 3.19346 2.61557 -1.31055 0
M  V30 14 H 2.27281 -1.76375 2.08267 0
M  V30 15 H 3.00214 -2.3133 0.550672 0
M  V30 16 H -2.43181 0.931705 -0.812847 0
M  V30 17 H -3.60952 -1.35933 -0.399646 0
M  V30 18 H -1.96483 -2.07233 0.0437139 0
M  V30 19 H -3.41983 0.400806 1.41236 0
M  V30 20 H -1.81957 -0.465008 1.93563 0
M  V30 END ATOM
M  V30 BEGIN BOND
M  V30 1 1 1 2
M  V30 2 2 2 3
M  V30 3 1 3 4
M  V30 4 2 4 5
M  V30 5 1 5 6
M  V30 6 2 6 7
M  V30 7 1 6 8
M  V30 8 1 4 9
M  V30 9 1 9 10
M  V30 10 1 10 11
M  V30 11 1 7 2
M  V30 12 1 11 9
M  V30 13 1 1 12
M  V30 14 1 1 13
M  V30 15 1 8 14
M  V30 16 1 8 15
M  V30 17 1 9 16
M  V30 18 1 10 17
M  V30 19 1 10 18
M  V30 20 1 11 19
M  V30 21 1 11 20
M  V30 END BOND
M  V30 END CTAB
M  END
