
     RDKit          3D

  0  0  0  0  0  0  0  0  0  0999 V3000
M  V30 BEGIN CTAB
M  V30 COUNTS 62 65 0 0 0
M  V30 BEGIN ATOM
M  V30 1 N 5.94713 0.601224 2.0879 0
M  V30 2 S 5.98271 1.56071 0.654453 0
M  V30 3 O 5.48642 2.95143 0.961196 0
M  V30 4 O 7.36069 1.5816 0.0493159 0
M  V30 5 C 4.84833 0.89446 -0.531361 0
M  V30 6 C 5.29857 0.0205806 -1.48877 0
M  V30 7 C 4.40165 -0.502327 -2.39852 0
M  V30 8 C 3.06375 -0.170831 -2.37123 0
M  V30 9 C 2.60519 0.701844 -1.41074 0
M  V30 10 C 3.50705 1.22613 -0.491976 0
M  V30 11 C 1.22515 1.11583 -1.33419 0
M  V30 12 N 0.824369 2.37863 -1.69703 0
M  V30 13 C -0.455417 2.77696 -1.65233 0
M  V30 14 N -1.38524 1.88389 -1.23222 0
M  V30 15 C -1.0341 0.616047 -0.864929 0
M  V30 16 N -2.02162 -0.305507 -0.464018 0
M  V30 17 C -3.38032 0.129514 -0.372634 0
M  V30 18 C -3.84092 0.248287 1.06092 0
M  V30 19 C -5.0551 1.16013 1.05297 0
M  V30 20 C -5.93643 0.883706 -0.140101 0
M  V30 21 O -7.29183 1.08306 0.128009 0
M  V30 22 C -5.76901 -0.548702 -0.607991 0
M  V30 23 C -4.33358 -0.811232 -1.04779 0
M  V30 24 C 0.294522 0.23609 -0.920246 0
M  V30 25 C 0.617897 -1.09115 -0.402975 0
M  V30 26 C 0.84252 -1.21923 0.983089 0
M  V30 27 C 1.13818 -2.44264 1.56481 0
M  V30 28 C 1.21773 -3.57123 0.742463 0
M  V30 29 C 1.00422 -3.47753 -0.60744 0
M  V30 30 C 0.707923 -2.24173 -1.13632 0
M  V30 31 S 1.38932 -2.58104 3.26386 0
M  V30 32 N 3.04196 -2.21851 3.61419 0
M  V30 33 O 1.03422 -3.99547 3.75794 0
M  V30 34 O 0.453663 -1.6849 4.08569 0
M  V30 35 C -0.824339 4.1933 -2.01871 0
M  V30 36 F 0.29811 4.96565 -1.9421 0
M  V30 37 F -1.26865 4.2355 -3.34279 0
M  V30 38 F -1.81591 4.63807 -1.18853 0
M  V30 39 H 6.64925 0.903042 2.80364 0
M  V30 40 H 4.99639 0.765518 2.54287 0
M  V30 41 H 6.32017 -0.29378 -1.5681 0
M  V30 42 H 4.75578 -1.17129 -3.14803 0
M  V30 43 H 2.35773 -0.544553 -3.10303 0
M  V30 44 H 3.17489 1.9258 0.281824 0
M  V30 45 H -1.75632 -1.28031 -0.26677 0
M  V30 46 H -3.49008 1.19052 -0.807437 0
M  V30 47 H -4.15938 -0.752905 1.41748 0
M  V30 48 H -3.10662 0.701955 1.72993 0
M  V30 49 H -5.70216 1.01536 1.97076 0
M  V30 50 H -4.75675 2.21821 0.985785 0
M  V30 51 H -5.64934 1.53115 -1.00845 0
M  V30 52 H -7.46161 1.36153 1.09578 0
M  V30 53 H -6.1094 -1.27068 0.129515 0
M  V30 54 H -6.42308 -0.698428 -1.50101 0
M  V30 55 H -4.07198 -1.83827 -0.909192 0
M  V30 56 H -4.27591 -0.528938 -2.14721 0
M  V30 57 H 0.757383 -0.335148 1.60921 0
M  V30 58 H 1.44097 -4.56024 1.10977 0
M  V30 59 H 1.04546 -4.28897 -1.27738 0
M  V30 60 H 0.509562 -2.19931 -2.22642 0
M  V30 61 H 3.63536 -3.05965 3.31558 0
M  V30 62 H 3.14088 -2.01122 4.62901 0
M  V30 END ATOM
M  V30 BEGIN BOND
M  V30 1 1 1 2
M  V30 2 2 2 3
M  V30 3 2 2 4
M  V30 4 1 2 5
M  V30 5 2 5 6
M  V30 6 1 6 7
M  V30 7 2 7 8
M  V30 8 1 8 9
M  V30 9 2 9 10
M  V30 10 1 9 11
M  V30 11 2 11 12
M  V30 12 1 12 13
M  V30 13 2 13 14
M  V30 14 1 14 15
M  V30 15 1 15 16
M  V30 16 1 16 17
M  V30 17 1 17 18
M  V30 18 1 18 19
M  V30 19 1 19 20
M  V30 20 1 20 21
M  V30 21 1 20 22
M  V30 22 1 22 23
M  V30 23 2 15 24
M  V30 24 1 24 25
M  V30 25 2 25 26
M  V30 26 1 26 27
M  V30 27 2 27 28
M  V30 28 1 28 29
M  V30 29 2 29 30
M  V30 30 1 27 31
M  V30 31 1 31 32
M  V30 32 2 31 33
M  V30 33 2 31 34
M  V30 34 1 13 35
M  V30 35 1 35 36
M  V30 36 1 35 37
M  V30 37 1 35 38
M  V30 38 1 10 5
M  V30 39 1 24 11
M  V30 40 1 30 25
M  V30 41 1 23 17
M  V30 42 1 1 39
M  V30 43 1 1 40
M  V30 44 1 6 41
M  V30 45 1 7 42
M  V30 46 1 8 43
M  V30 47 1 10 44
M  V30 48 1 16 45
M  V30 49 1 17 46
M  V30 50 1 18 47
M  V30 51 1 18 48
M  V30 52 1 19 49
M  V30 53 1 19 50
M  V30 54 1 20 51
M  V30 55 1 21 52
M  V30 56 1 22 53
M  V30 57 1 22 54
M  V30 58 1 23 55
M  V30 59 1 23 56
M  V30 60 1 26 57
M  V30 61 1 28 58
M  V30 62 1 29 59
M  V30 63 1 30 60
M  V30 64 1 32 61
M  V30 65 1 32 62
M  V30 END BOND
M  V30 END CTAB
M  END
