
     RDKit          3D

  0  0  0  0  0  0  0  0  0  0999 V3000
M  V30 BEGIN CTAB
M  V30 COUNTS 38 40 0 0 0
M  V30 BEGIN ATOM
M  V30 1 C -8.18516 1.07378 0.0885275 0
M  V30 2 O -7.04424 1.56185 0.77489 0
M  V30 3 C -5.82395 0.978584 0.463038 0
M  V30 4 C -4.69568 1.44933 1.13066 0
M  V30 5 C -3.48974 0.869533 0.819324 0
M  V30 6 C -3.32036 -0.139238 -0.102015 0
M  V30 7 C -4.44494 -0.595454 -0.755173 0
M  V30 8 C -5.68902 -0.0301539 -0.465103 0
M  V30 9 C -1.99973 -0.713298 -0.384922 0
M  V30 10 O -1.70434 -1.66442 -1.2278 0
M  V30 11 C -0.410129 -1.9231 -1.21706 0
M  V30 12 C 0.179576 -1.06845 -0.290606 0
M  V30 13 N -0.844276 -0.342759 0.194643 0
M  V30 14 C 1.62996 -1.00045 0.0605154 0
M  V30 15 S 2.47754 0.181997 -1.00978 0
M  V30 16 C 4.21005 0.213116 -0.536012 0
M  V30 17 N 5.02479 -0.656557 -1.15434 0
M  V30 18 C 6.35438 -0.695311 -0.850578 0
M  V30 19 N 7.22447 -1.59703 -1.48519 0
M  V30 20 C 6.80987 0.179491 0.098029 0
M  V30 21 C 5.98529 1.06522 0.729117 0
M  V30 22 N 4.67664 1.06087 0.389724 0
M  V30 23 N 6.51691 1.94014 1.69717 0
M  V30 24 H -8.18165 -0.0364786 0.213296 0
M  V30 25 H -8.14635 1.35715 -0.999726 0
M  V30 26 H -9.13235 1.45193 0.510212 0
M  V30 27 H -4.80924 2.24133 1.85779 0
M  V30 28 H -2.60982 1.22774 1.33139 0
M  V30 29 H -4.36307 -1.38633 -1.48753 0
M  V30 30 H -6.56312 -0.388869 -0.976788 0
M  V30 31 H 0.0821753 -2.66754 -1.82519 0
M  V30 32 H 1.75104 -0.733749 1.12532 0
M  V30 33 H 2.08578 -2.02457 -0.0493894 0
M  V30 34 H 7.45896 -2.52113 -1.06211 0
M  V30 35 H 7.66279 -1.36668 -2.40208 0
M  V30 36 H 7.87425 0.163111 0.355092 0
M  V30 37 H 7.51777 2.20974 1.64366 0
M  V30 38 H 5.93491 2.32666 2.4682 0
M  V30 END ATOM
M  V30 BEGIN BOND
M  V30 1 1 1 2
M  V30 2 1 2 3
M  V30 3 2 3 4
M  V30 4 1 4 5
M  V30 5 2 5 6
M  V30 6 1 6 7
M  V30 7 2 7 8
M  V30 8 1 6 9
M  V30 9 1 9 10
M  V30 10 1 10 11
M  V30 11 2 11 12
M  V30 12 1 12 13
M  V30 13 1 12 14
M  V30 14 1 14 15
M  V30 15 1 15 16
M  V30 16 2 16 17
M  V30 17 1 17 18
M  V30 18 1 18 19
M  V30 19 2 18 20
M  V30 20 1 20 21
M  V30 21 2 21 22
M  V30 22 1 21 23
M  V30 23 1 8 3
M  V30 24 2 13 9
M  V30 25 1 22 16
M  V30 26 1 1 24
M  V30 27 1 1 25
M  V30 28 1 1 26
M  V30 29 1 4 27
M  V30 30 1 5 28
M  V30 31 1 7 29
M  V30 32 1 8 30
M  V30 33 1 11 31
M  V30 34 1 14 32
M  V30 35 1 14 33
M  V30 36 1 19 34
M  V30 37 1 19 35
M  V30 38 1 20 36
M  V30 39 1 23 37
M  V30 40 1 23 38
M  V30 END BOND
M  V30 END CTAB
M  END
