
     RDKit          3D

  0  0  0  0  0  0  0  0  0  0999 V3000
M  V30 BEGIN CTAB
M  V30 COUNTS 42 45 0 0 0
M  V30 BEGIN ATOM
M  V30 1 N -7.37951 1.28731 0.328357 0
M  V30 2 C -5.99578 1.04178 0.267772 0
M  V30 3 C -5.57697 -0.276038 0.28706 0
M  V30 4 N -6.48837 -1.35023 0.364361 0
M  V30 5 C -4.2404 -0.581143 0.230602 0
M  V30 6 C -3.31552 0.405115 0.155307 0
M  V30 7 C -3.69011 1.71648 0.13404 0
M  V30 8 C -5.03248 2.02154 0.190785 0
M  V30 9 C -1.89432 0.0533819 0.0961124 0
M  V30 10 N -0.849039 0.894759 0.0193479 0
M  V30 11 C 0.301718 0.200596 -0.0161857 0
M  V30 12 C 1.64731 0.531813 -0.0922612 0
M  V30 13 C 2.64682 -0.400262 -0.113175 0
M  V30 14 C 2.30017 -1.7339 -0.0558534 0
M  V30 15 C 0.957808 -2.1109 0.0214625 0
M  V30 16 C -0.0203945 -1.13763 0.0400811 0
M  V30 17 N -1.37126 -1.18231 0.107775 0
M  V30 18 N 4.0273 -0.0662837 -0.191989 0
M  V30 19 C 5.04949 -1.0946 -0.187373 0
M  V30 20 C 6.38576 -0.489837 0.175204 0
M  V30 21 O 6.7652 0.549434 -0.630007 0
M  V30 22 C 5.74138 1.29862 -1.13807 0
M  V30 23 C 4.49586 1.30501 -0.281683 0
M  V30 24 H -7.72697 1.9588 1.05803 0
M  V30 25 H -8.06174 0.838322 -0.309615 0
M  V30 26 H -7.22601 -1.33243 1.09073 0
M  V30 27 H -6.43628 -2.14549 -0.281017 0
M  V30 28 H -3.91244 -1.61952 0.245905 0
M  V30 29 H -2.96018 2.51534 0.0739974 0
M  V30 30 H -5.36872 3.06496 0.175738 0
M  V30 31 H 1.89347 1.57681 -0.135594 0
M  V30 32 H 3.04591 -2.52621 -0.0688273 0
M  V30 33 H 0.698186 -3.15654 0.065819 0
M  V30 34 H -1.92009 -2.07595 0.161737 0
M  V30 35 H 5.04604 -1.57886 -1.16656 0
M  V30 36 H 4.83695 -1.84993 0.624683 0
M  V30 37 H 7.14385 -1.30866 0.0544432 0
M  V30 38 H 6.3824 -0.240365 1.25693 0
M  V30 39 H 6.0773 2.37501 -1.19625 0
M  V30 40 H 5.44209 0.94334 -2.1476 0
M  V30 41 H 3.78821 1.99038 -0.747332 0
M  V30 42 H 4.79337 1.68825 0.725864 0
M  V30 END ATOM
M  V30 BEGIN BOND
M  V30 1 1 1 2
M  V30 2 2 2 3
M  V30 3 1 3 4
M  V30 4 1 3 5
M  V30 5 2 5 6
M  V30 6 1 6 7
M  V30 7 2 7 8
M  V30 8 1 6 9
M  V30 9 2 9 10
M  V30 10 1 10 11
M  V30 11 2 11 12
M  V30 12 1 12 13
M  V30 13 2 13 14
M  V30 14 1 14 15
M  V30 15 2 15 16
M  V30 16 1 16 17
M  V30 17 1 13 18
M  V30 18 1 18 19
M  V30 19 1 19 20
M  V30 20 1 20 21
M  V30 21 1 21 22
M  V30 22 1 22 23
M  V30 23 1 8 2
M  V30 24 1 17 9
M  V30 25 1 23 18
M  V30 26 1 16 11
M  V30 27 1 1 24
M  V30 28 1 1 25
M  V30 29 1 4 26
M  V30 30 1 4 27
M  V30 31 1 5 28
M  V30 32 1 7 29
M  V30 33 1 8 30
M  V30 34 1 12 31
M  V30 35 1 14 32
M  V30 36 1 15 33
M  V30 37 1 17 34
M  V30 38 1 19 35
M  V30 39 1 19 36
M  V30 40 1 20 37
M  V30 41 1 20 38
M  V30 42 1 22 39
M  V30 43 1 22 40
M  V30 44 1 23 41
M  V30 45 1 23 42
M  V30 END BOND
M  V30 END CTAB
M  END
