
     RDKit          3D

  0  0  0  0  0  0  0  0  0  0999 V3000
M  V30 BEGIN CTAB
M  V30 COUNTS 32 33 0 0 0
M  V30 BEGIN ATOM
M  V30 1 F 6.86606 -0.0449536 -0.226658 0
M  V30 2 C 5.51679 -0.0779875 -0.152241 0
M  V30 3 C 4.88426 -0.733798 0.877442 0
M  V30 4 C 3.5166 -0.780296 0.972873 0
M  V30 5 C 2.6877 -0.157563 0.0193754 0
M  V30 6 C 3.35272 0.487287 -0.993515 0
M  V30 7 C 4.74264 0.539242 -1.09795 0
M  V30 8 F 2.69625 1.1351 -1.98024 0
M  V30 9 C 1.25631 -0.234006 0.151166 0
M  V30 10 O 0.83023 -0.82698 1.20998 0
M  V30 11 N 0.277202 0.243205 -0.706567 0
M  V30 12 C -1.12954 0.077829 -0.413674 0
M  V30 13 C -1.7535 -1.06 -0.876938 0
M  V30 14 N -1.00602 -2.01548 -1.61381 0
M  V30 15 N -3.07299 -1.2134 -0.601311 0
M  V30 16 C -3.73714 -0.283402 0.0986648 0
M  V30 17 N -3.1319 0.838409 0.558125 0
M  V30 18 C -1.83621 1.01994 0.304691 0
M  V30 19 O -1.25048 2.05324 0.720183 0
M  V30 20 C -3.90011 1.81189 1.31066 0
M  V30 21 N -5.12325 -0.457168 0.381229 0
M  V30 22 H 5.51497 -1.2238 1.62826 0
M  V30 23 H 3.05631 -1.30535 1.79605 0
M  V30 24 H 5.24208 1.05053 -1.90078 0
M  V30 25 H 0.475517 0.730295 -1.58411 0
M  V30 26 H -1.38204 -2.42998 -2.49502 0
M  V30 27 H -0.0614364 -2.34245 -1.31363 0
M  V30 28 H -4.9385 1.89637 0.951811 0
M  V30 29 H -3.43102 2.81746 1.25747 0
M  V30 30 H -3.92304 1.53936 2.3991 0
M  V30 31 H -5.84748 -0.289987 -0.322054 0
M  V30 32 H -5.39099 -0.763557 1.33568 0
M  V30 END ATOM
M  V30 BEGIN BOND
M  V30 1 1 1 2
M  V30 2 2 2 3
M  V30 3 1 3 4
M  V30 4 2 4 5
M  V30 5 1 5 6
M  V30 6 2 6 7
M  V30 7 1 6 8
M  V30 8 1 5 9
M  V30 9 2 9 10
M  V30 10 1 9 11
M  V30 11 1 11 12
M  V30 12 2 12 13
M  V30 13 1 13 14
M  V30 14 1 13 15
M  V30 15 2 15 16
M  V30 16 1 16 17
M  V30 17 1 17 18
M  V30 18 2 18 19
M  V30 19 1 17 20
M  V30 20 1 16 21
M  V30 21 1 7 2
M  V30 22 1 18 12
M  V30 23 1 3 22
M  V30 24 1 4 23
M  V30 25 1 7 24
M  V30 26 1 11 25
M  V30 27 1 14 26
M  V30 28 1 14 27
M  V30 29 1 20 28
M  V30 30 1 20 29
M  V30 31 1 20 30
M  V30 32 1 21 31
M  V30 33 1 21 32
M  V30 END BOND
M  V30 END CTAB
M  END
