
     RDKit          3D

  0  0  0  0  0  0  0  0  0  0999 V3000
M  V30 BEGIN CTAB
M  V30 COUNTS 21 22 0 0 0
M  V30 BEGIN ATOM
M  V30 1 C -2.56275 -1.5798 0.0386948 0
M  V30 2 N -2.40787 -0.158217 0.250016 0
M  V30 3 N -3.37744 0.629802 0.613694 0
M  V30 4 N -2.91293 1.84085 0.717447 0
M  V30 5 C -1.58009 1.8192 0.402441 0
M  V30 6 C -1.22897 0.547609 0.0997724 0
M  V30 7 C 0.0455141 -0.0836109 -0.243928 0
M  V30 8 N 0.0980675 -1.34089 -0.826174 0
M  V30 9 N 1.33515 -1.71873 -0.999284 0
M  V30 10 C 2.13901 -0.773566 -0.559514 0
M  V30 11 N 1.31064 0.23412 -0.0928293 0
M  V30 12 N 1.8417 1.40649 0.499369 0
M  V30 13 N 3.55154 -0.6863 -0.517414 0
M  V30 14 Br -0.58092 3.4221 0.380438 0
M  V30 15 H -1.85561 -2.1812 0.643576 0
M  V30 16 H -3.58797 -1.91893 0.288766 0
M  V30 17 H -2.43449 -1.82148 -1.0437 0
M  V30 18 H 2.29627 2.08294 -0.146568 0
M  V30 19 H 1.80425 1.58978 1.50108 0
M  V30 20 H 4.05519 -0.301195 -1.32988 0
M  V30 21 H 4.05173 -1.00897 0.324009 0
M  V30 END ATOM
M  V30 BEGIN BOND
M  V30 1 1 1 2
M  V30 2 1 2 3
M  V30 3 2 3 4
M  V30 4 1 4 5
M  V30 5 2 5 6
M  V30 6 1 6 7
M  V30 7 2 7 8
M  V30 8 1 8 9
M  V30 9 2 9 10
M  V30 10 1 10 11
M  V30 11 1 11 12
M  V30 12 1 10 13
M  V30 13 1 5 14
M  V30 14 1 6 2
M  V30 15 1 11 7
M  V30 16 1 1 15
M  V30 17 1 1 16
M  V30 18 1 1 17
M  V30 19 1 12 18
M  V30 20 1 12 19
M  V30 21 1 13 20
M  V30 22 1 13 21
M  V30 END BOND
M  V30 END CTAB
M  END
