
     RDKit          3D

  0  0  0  0  0  0  0  0  0  0999 V3000
M  V30 BEGIN CTAB
M  V30 COUNTS 42 43 0 0 0
M  V30 BEGIN ATOM
M  V30 1 C -2.11923 3.98495 -0.404675 0
M  V30 2 C -1.43337 2.74937 0.204912 0
M  V30 3 C -0.784185 3.22159 1.48768 0
M  V30 4 C -0.475283 2.25469 -0.802234 0
M  V30 5 C 0.319972 1.07465 -0.466778 0
M  V30 6 N 1.61127 1.21274 -0.0210055 0
M  V30 7 C 2.37664 0.165945 0.313829 0
M  V30 8 C 1.86195 -1.12051 0.213153 0
M  V30 9 N 0.631345 -1.30088 -0.209074 0
M  V30 10 C -0.140161 -0.221314 -0.548375 0
M  V30 11 C -1.52581 -0.436335 -1.05475 0
M  V30 12 C -1.78011 -1.92981 -1.11786 0
M  V30 13 C -1.65606 -2.5277 0.252165 0
M  V30 14 C -3.19326 -2.11559 -1.61339 0
M  V30 15 C 2.63291 -2.21016 0.550843 0
M  V30 16 N 2.14185 -3.55797 0.461405 0
M  V30 17 N 3.8846 -2.02278 0.97773 0
M  V30 18 C 4.41466 -0.787137 1.08715 0
M  V30 19 N 5.76067 -0.606596 1.54645 0
M  V30 20 N 3.63879 0.262989 0.750252 0
M  V30 21 H -1.98683 4.01052 -1.49591 0
M  V30 22 H -3.18058 4.04128 -0.0968002 0
M  V30 23 H -1.64274 4.91677 -0.00490378 0
M  V30 24 H -2.24505 2.08749 0.486842 0
M  V30 25 H -1.50532 3.94178 1.95108 0
M  V30 26 H -0.772735 2.32965 2.17046 0
M  V30 27 H 0.200046 3.67113 1.35193 0
M  V30 28 H 0.240051 3.09984 -1.02872 0
M  V30 29 H -1.03695 2.13936 -1.76923 0
M  V30 30 H -1.65602 -0.036042 -2.0826 0
M  V30 31 H -2.3049 -0.0634488 -0.34723 0
M  V30 32 H -1.02837 -2.33292 -1.83136 0
M  V30 33 H -2.61355 -3.06921 0.528481 0
M  V30 34 H -1.55899 -1.76267 1.06591 0
M  V30 35 H -0.885858 -3.32192 0.311291 0
M  V30 36 H -3.43315 -1.37476 -2.39926 0
M  V30 37 H -3.86027 -2.01012 -0.714005 0
M  V30 38 H -3.33729 -3.16482 -1.96562 0
M  V30 39 H 2.38354 -4.26416 1.20011 0
M  V30 40 H 1.54448 -3.88128 -0.314169 0
M  V30 41 H 6.39628 -0.0372139 0.959455 0
M  V30 42 H 6.11702 -1.00942 2.41683 0
M  V30 END ATOM
M  V30 BEGIN BOND
M  V30 1 1 1 2
M  V30 2 1 2 3
M  V30 3 1 2 4
M  V30 4 1 4 5
M  V30 5 2 5 6
M  V30 6 1 6 7
M  V30 7 2 7 8
M  V30 8 1 8 9
M  V30 9 2 9 10
M  V30 10 1 10 11
M  V30 11 1 11 12
M  V30 12 1 12 13
M  V30 13 1 12 14
M  V30 14 1 8 15
M  V30 15 1 15 16
M  V30 16 2 15 17
M  V30 17 1 17 18
M  V30 18 1 18 19
M  V30 19 2 18 20
M  V30 20 1 10 5
M  V30 21 1 20 7
M  V30 22 1 1 21
M  V30 23 1 1 22
M  V30 24 1 1 23
M  V30 25 1 2 24
M  V30 26 1 3 25
M  V30 27 1 3 26
M  V30 28 1 3 27
M  V30 29 1 4 28
M  V30 30 1 4 29
M  V30 31 1 11 30
M  V30 32 1 11 31
M  V30 33 1 12 32
M  V30 34 1 13 33
M  V30 35 1 13 34
M  V30 36 1 13 35
M  V30 37 1 14 36
M  V30 38 1 14 37
M  V30 39 1 14 38
M  V30 40 1 16 39
M  V30 41 1 16 40
M  V30 42 1 19 41
M  V30 43 1 19 42
M  V30 END BOND
M  V30 END CTAB
M  END
