
     RDKit          3D

  0  0  0  0  0  0  0  0  0  0999 V3000
M  V30 BEGIN CTAB
M  V30 COUNTS 28 29 0 0 0
M  V30 BEGIN ATOM
M  V30 1 N 5.0751 0.174109 -0.17631 0
M  V30 2 C 3.68997 -0.187798 -0.112935 0
M  V30 3 N 3.06203 -0.970836 0.750246 0
M  V30 4 C 1.79285 -1.18373 0.638089 0
M  V30 5 C 1.12479 -0.576546 -0.395634 0
M  V30 6 S 2.39312 0.278232 -1.15358 0
M  V30 7 C -0.291978 -0.622088 -0.803689 0
M  V30 8 F -0.508795 -1.10233 -2.08146 0
M  V30 9 C -1.13582 -1.42489 0.196701 0
M  V30 10 C -2.26828 -0.485254 -0.249145 0
M  V30 11 C -1.17077 0.544887 -0.453983 0
M  V30 12 C -1.41136 1.4667 -1.62864 0
M  V30 13 C -0.776862 1.31232 0.755308 0
M  V30 14 N -3.24481 -0.201637 0.745497 0
M  V30 15 H 5.3451 1.12266 0.102003 0
M  V30 16 H 5.76184 -0.533465 -0.499024 0
M  V30 17 H 1.24319 -1.83992 1.34944 0
M  V30 18 H -0.867643 -1.21498 1.25193 0
M  V30 19 H -1.27137 -2.47225 -0.0803813 0
M  V30 20 H -2.64067 -0.817295 -1.23362 0
M  V30 21 H -0.514277 2.11263 -1.72523 0
M  V30 22 H -1.53978 0.920651 -2.57742 0
M  V30 23 H -2.26396 2.13676 -1.41421 0
M  V30 24 H -0.281514 0.718083 1.55079 0
M  V30 25 H -0.0324736 2.08435 0.436961 0
M  V30 26 H -1.64222 1.81908 1.25603 0
M  V30 27 H -3.48931 -1.10066 1.25533 0
M  V30 28 H -4.13611 0.043219 0.236063 0
M  V30 END ATOM
M  V30 BEGIN BOND
M  V30 1 1 1 2
M  V30 2 2 2 3
M  V30 3 1 3 4
M  V30 4 2 4 5
M  V30 5 1 5 6
M  V30 6 1 5 7
M  V30 7 1 7 8
M  V30 8 1 7 9
M  V30 9 1 9 10
M  V30 10 1 10 11
M  V30 11 1 11 12
M  V30 12 1 11 13
M  V30 13 1 10 14
M  V30 14 1 6 2
M  V30 15 1 11 7
M  V30 16 1 1 15
M  V30 17 1 1 16
M  V30 18 1 4 17
M  V30 19 1 9 18
M  V30 20 1 9 19
M  V30 21 1 10 20
M  V30 22 1 12 21
M  V30 23 1 12 22
M  V30 24 1 12 23
M  V30 25 1 13 24
M  V30 26 1 13 25
M  V30 27 1 13 26
M  V30 28 1 14 27
M  V30 29 1 14 28
M  V30 END BOND
M  V30 END CTAB
M  END
