
     RDKit          3D

  0  0  0  0  0  0  0  0  0  0999 V3000
M  V30 BEGIN CTAB
M  V30 COUNTS 15 15 0 0 0
M  V30 BEGIN ATOM
M  V30 1 Br -3.04395 1.57368 -0.0377104 0
M  V30 2 C -1.29528 0.81954 0.00774176 0
M  V30 3 C -0.195771 1.61947 0.229967 0
M  V30 4 C 1.04803 1.03129 0.254436 0
M  V30 5 Br 2.56245 2.14242 0.56194 0
M  V30 6 C 1.23081 -0.318559 0.0660154 0
M  V30 7 N 0.129113 -1.06998 -0.149035 0
M  V30 8 C -1.10841 -0.539389 -0.181679 0
M  V30 9 N -2.23277 -1.38076 -0.412465 0
M  V30 10 N 2.53614 -0.918186 0.0943647 0
M  V30 11 H -0.318626 2.68068 0.379991 0
M  V30 12 H -3.1985 -1.09215 -0.142259 0
M  V30 13 H -2.14949 -2.32014 -0.859363 0
M  V30 14 H 3.32531 -0.353749 -0.278912 0
M  V30 15 H 2.71095 -1.87417 0.466968 0
M  V30 END ATOM
M  V30 BEGIN BOND
M  V30 1 1 1 2
M  V30 2 2 2 3
M  V30 3 1 3 4
M  V30 4 1 4 5
M  V30 5 2 4 6
M  V30 6 1 6 7
M  V30 7 2 7 8
M  V30 8 1 8 9
M  V30 9 1 6 10
M  V30 10 1 8 2
M  V30 11 1 3 11
M  V30 12 1 9 12
M  V30 13 1 9 13
M  V30 14 1 10 14
M  V30 15 1 10 15
M  V30 END BOND
M  V30 END CTAB
M  END
