
     RDKit          3D

  0  0  0  0  0  0  0  0  0  0999 V3000
M  V30 BEGIN CTAB
M  V30 COUNTS 20 21 0 0 0
M  V30 BEGIN ATOM
M  V30 1 N 4.15956 -0.831389 -0.800401 0
M  V30 2 C 2.96017 -0.0399113 -0.651917 0
M  V30 3 S 2.36108 1.20117 -1.65804 0
M  V30 4 C 0.94693 1.58493 -0.780869 0
M  V30 5 C 1.02008 0.708036 0.268404 0
M  V30 6 N 2.04955 -0.0975297 0.302104 0
M  V30 7 C -0.036632 0.65034 1.35785 0
M  V30 8 C -1.08568 -0.283502 0.945277 0
M  V30 9 O -1.1222 -1.56178 1.18748 0
M  V30 10 N -2.19734 -2.08716 0.675753 0
M  V30 11 C -2.89686 -1.11163 0.071493 0
M  V30 12 N -2.18423 0.0139941 0.250581 0
M  V30 13 N -4.13112 -1.25603 -0.610392 0
M  V30 14 H 4.02674 -1.85358 -0.871706 0
M  V30 15 H 5.1116 -0.444876 -0.838019 0
M  V30 16 H 0.160815 2.33705 -0.981383 0
M  V30 17 H -0.379634 1.6966 1.48141 0
M  V30 18 H 0.435483 0.374454 2.32953 0
M  V30 19 H -4.42164 -0.658468 -1.41663 0
M  V30 20 H -4.77669 -2.02256 -0.260526 0
M  V30 END ATOM
M  V30 BEGIN BOND
M  V30 1 1 1 2
M  V30 2 1 2 3
M  V30 3 1 3 4
M  V30 4 2 4 5
M  V30 5 1 5 6
M  V30 6 1 5 7
M  V30 7 1 7 8
M  V30 8 1 8 9
M  V30 9 1 9 10
M  V30 10 2 10 11
M  V30 11 1 11 12
M  V30 12 1 11 13
M  V30 13 2 6 2
M  V30 14 2 12 8
M  V30 15 1 1 14
M  V30 16 1 1 15
M  V30 17 1 4 16
M  V30 18 1 7 17
M  V30 19 1 7 18
M  V30 20 1 13 19
M  V30 21 1 13 20
M  V30 END BOND
M  V30 END CTAB
M  END
