
     RDKit          3D

  0  0  0  0  0  0  0  0  0  0999 V3000
M  V30 BEGIN CTAB
M  V30 COUNTS 35 36 0 0 0
M  V30 BEGIN ATOM
M  V30 1 C -3.80125 0.365542 -1.18479 0
M  V30 2 C -3.31329 -0.139685 0.146671 0
M  V30 3 C -1.82586 -0.0710468 0.145152 0
M  V30 4 C -1.06777 -1.20047 0.339278 0
M  V30 5 C 0.283357 -1.11344 0.330302 0
M  V30 6 C 0.944357 0.0952138 0.128413 0
M  V30 7 C 0.210428 1.23361 -0.0670664 0
M  V30 8 C -1.17484 1.1315 -0.0554681 0
M  V30 9 C 2.39786 0.0854941 0.132803 0
M  V30 10 N 3.13638 -0.999322 0.325361 0
M  V30 11 C 4.48384 -1.00703 0.323843 0
M  V30 12 N 5.22828 -2.1908 0.534635 0
M  V30 13 N 5.08996 0.189062 0.107594 0
M  V30 14 C 4.39869 1.3154 -0.0929402 0
M  V30 15 N 3.04903 1.24886 -0.0775521 0
M  V30 16 N 5.00372 2.57052 -0.322387 0
M  V30 17 C -3.80246 0.707832 1.29524 0
M  V30 18 C -3.78053 -1.5537 0.304965 0
M  V30 19 H -4.63828 1.06043 -1.00941 0
M  V30 20 H -4.1259 -0.478071 -1.85729 0
M  V30 21 H -3.01946 0.899193 -1.76573 0
M  V30 22 H -1.54733 -2.1465 0.4979 0
M  V30 23 H 0.869705 -2.01492 0.486103 0
M  V30 24 H 0.692496 2.21073 -0.228052 0
M  V30 25 H -1.79812 2.02558 -0.212245 0
M  V30 26 H 5.84283 -2.56466 -0.207163 0
M  V30 27 H 5.16508 -2.69256 1.43486 0
M  V30 28 H 5.65506 2.70636 -1.11461 0
M  V30 29 H 4.79509 3.35967 0.305287 0
M  V30 30 H -4.85645 0.482509 1.50667 0
M  V30 31 H -3.16589 0.455697 2.17809 0
M  V30 32 H -3.64739 1.77808 1.06077 0
M  V30 33 H -3.31098 -2.16246 -0.522837 0
M  V30 34 H -4.87077 -1.56961 0.102254 0
M  V30 35 H -3.49958 -2.01702 1.24835 0
M  V30 END ATOM
M  V30 BEGIN BOND
M  V30 1 1 1 2
M  V30 2 1 2 3
M  V30 3 2 3 4
M  V30 4 1 4 5
M  V30 5 2 5 6
M  V30 6 1 6 7
M  V30 7 2 7 8
M  V30 8 1 6 9
M  V30 9 2 9 10
M  V30 10 1 10 11
M  V30 11 1 11 12
M  V30 12 2 11 13
M  V30 13 1 13 14
M  V30 14 2 14 15
M  V30 15 1 14 16
M  V30 16 1 2 17
M  V30 17 1 2 18
M  V30 18 1 8 3
M  V30 19 1 15 9
M  V30 20 1 1 19
M  V30 21 1 1 20
M  V30 22 1 1 21
M  V30 23 1 4 22
M  V30 24 1 5 23
M  V30 25 1 7 24
M  V30 26 1 8 25
M  V30 27 1 12 26
M  V30 28 1 12 27
M  V30 29 1 16 28
M  V30 30 1 16 29
M  V30 31 1 17 30
M  V30 32 1 17 31
M  V30 33 1 17 32
M  V30 34 1 18 33
M  V30 35 1 18 34
M  V30 36 1 18 35
M  V30 END BOND
M  V30 END CTAB
M  END
