
     RDKit          3D

  0  0  0  0  0  0  0  0  0  0999 V3000
M  V30 BEGIN CTAB
M  V30 COUNTS 20 21 0 0 0
M  V30 BEGIN ATOM
M  V30 1 N -3.05334 -2.14954 0.344981 0
M  V30 2 C -2.19252 -1.03845 0.0931284 0
M  V30 3 N -2.66443 0.152744 -0.318475 0
M  V30 4 C -1.89037 1.22384 -0.5669 0
M  V30 5 N -2.43005 2.46979 -1.0021 0
M  V30 6 N -0.556367 1.0571 -0.380542 0
M  V30 7 C -0.0354181 -0.110561 0.028857 0
M  V30 8 N -0.845825 -1.14509 0.262425 0
M  V30 9 C 1.41427 -0.276304 0.226606 0
M  V30 10 C 2.40191 0.655523 0.0423069 0
M  V30 11 C 3.66258 0.265338 0.289383 0
M  V30 12 C 3.85482 -1.0208 0.701604 0
M  V30 13 S 2.27258 -1.65411 0.734415 0
M  V30 14 Cl 5.34862 -1.86295 1.11034 0
M  V30 15 H -4.0507 -1.99878 0.609547 0
M  V30 16 H -2.66745 -3.10808 0.259667 0
M  V30 17 H -1.948 3.37063 -0.718068 0
M  V30 18 H -3.28052 2.54775 -1.5899 0
M  V30 19 H 2.12568 1.68261 -0.299342 0
M  V30 20 H 4.53454 0.939339 0.172063 0
M  V30 END ATOM
M  V30 BEGIN BOND
M  V30 1 1 1 2
M  V30 2 2 2 3
M  V30 3 1 3 4
M  V30 4 1 4 5
M  V30 5 2 4 6
M  V30 6 1 6 7
M  V30 7 2 7 8
M  V30 8 1 7 9
M  V30 9 2 9 10
M  V30 10 1 10 11
M  V30 11 2 11 12
M  V30 12 1 12 13
M  V30 13 1 12 14
M  V30 14 1 8 2
M  V30 15 1 13 9
M  V30 16 1 1 15
M  V30 17 1 1 16
M  V30 18 1 5 17
M  V30 19 1 5 18
M  V30 20 1 10 19
M  V30 21 1 11 20
M  V30 END BOND
M  V30 END CTAB
M  END
