
     RDKit          3D

  0  0  0  0  0  0  0  0  0  0999 V3000
M  V30 BEGIN CTAB
M  V30 COUNTS 34 35 0 0 0
M  V30 BEGIN ATOM
M  V30 1 C -2.94073 -3.16625 1.40873 0
M  V30 2 O -2.25507 -2.03512 0.956212 0
M  V30 3 C -2.83466 -0.923178 0.403778 0
M  V30 4 O -4.12417 -1.00706 0.331038 0
M  V30 5 C -2.19504 0.280961 -0.0887513 0
M  V30 6 C -0.845966 0.537919 -0.0760288 0
M  V30 7 N 0.0339019 -0.343927 0.573461 0
M  V30 8 C 1.44948 -0.437984 0.393537 0
M  V30 9 C 2.09742 -0.226969 -0.802058 0
M  V30 10 C 3.46623 -0.304591 -0.957476 0
M  V30 11 C 4.20285 -0.613233 0.164693 0
M  V30 12 N 5.63554 -0.709439 0.0696072 0
M  V30 13 C 3.60149 -0.832885 1.37951 0
M  V30 14 C 2.24205 -0.746057 1.49113 0
M  V30 15 C -0.313366 1.70637 -0.618457 0
M  V30 16 C -1.15445 2.6263 -1.18066 0
M  V30 17 C -2.50924 2.39985 -1.20832 0
M  V30 18 N -3.32592 3.40729 -1.81195 0
M  V30 19 C -3.03147 1.25267 -0.675285 0
M  V30 20 H -3.72213 -2.80754 2.12687 0
M  V30 21 H -2.22832 -3.76221 2.03499 0
M  V30 22 H -3.38096 -3.77714 0.608444 0
M  V30 23 H -0.358692 -1.00606 1.30477 0
M  V30 24 H 1.50655 0.00720347 -1.70252 0
M  V30 25 H 3.96474 -0.137475 -1.89698 0
M  V30 26 H 6.20089 -1.23393 0.771209 0
M  V30 27 H 6.14029 -0.25299 -0.708814 0
M  V30 28 H 4.2165 -1.08017 2.26835 0
M  V30 29 H 1.74144 -0.919628 2.46054 0
M  V30 30 H 0.762925 1.91306 -0.580008 0
M  V30 31 H -0.75074 3.5412 -1.60792 0
M  V30 32 H -3.00279 3.7392 -2.76124 0
M  V30 33 H -4.18265 3.79002 -1.34881 0
M  V30 34 H -4.10594 1.12178 -0.721591 0
M  V30 END ATOM
M  V30 BEGIN BOND
M  V30 1 1 1 2
M  V30 2 1 2 3
M  V30 3 2 3 4
M  V30 4 1 3 5
M  V30 5 2 5 6
M  V30 6 1 6 7
M  V30 7 1 7 8
M  V30 8 2 8 9
M  V30 9 1 9 10
M  V30 10 2 10 11
M  V30 11 1 11 12
M  V30 12 1 11 13
M  V30 13 2 13 14
M  V30 14 1 6 15
M  V30 15 2 15 16
M  V30 16 1 16 17
M  V30 17 1 17 18
M  V30 18 2 17 19
M  V30 19 1 19 5
M  V30 20 1 14 8
M  V30 21 1 1 20
M  V30 22 1 1 21
M  V30 23 1 1 22
M  V30 24 1 7 23
M  V30 25 1 9 24
M  V30 26 1 10 25
M  V30 27 1 12 26
M  V30 28 1 12 27
M  V30 29 1 13 28
M  V30 30 1 14 29
M  V30 31 1 15 30
M  V30 32 1 16 31
M  V30 33 1 18 32
M  V30 34 1 18 33
M  V30 35 1 19 34
M  V30 END BOND
M  V30 END CTAB
M  END
