
     RDKit          3D

  0  0  0  0  0  0  0  0  0  0999 V3000
M  V30 BEGIN CTAB
M  V30 COUNTS 24 24 0 0 0
M  V30 BEGIN ATOM
M  V30 1 N 1.25432 2.64202 0.262462 0
M  V30 2 N 1.04705 1.39637 0.90496 0
M  V30 3 C 0.137971 0.472998 0.33929 0
M  V30 4 C -1.22111 0.474821 0.671324 0
M  V30 5 C -2.08565 -0.440033 0.103184 0
M  V30 6 C -3.50753 -0.409512 0.475024 0
M  V30 7 C -1.57503 -1.35188 -0.796771 0
M  V30 8 C -0.219268 -1.36636 -1.13879 0
M  V30 9 C 0.623783 -0.44389 -0.558934 0
M  V30 10 S 2.31912 -0.41575 -0.947326 0
M  V30 11 O 2.61774 -1.55725 -1.86427 0
M  V30 12 O 2.73644 0.839194 -1.64469 0
M  V30 13 N 3.27596 -0.674529 0.491619 0
M  V30 14 H 1.05274 3.39463 0.962268 0
M  V30 15 H 0.582635 2.76709 -0.53151 0
M  V30 16 H 1.58843 1.22682 1.77769 0
M  V30 17 H -1.61311 1.1868 1.37228 0
M  V30 18 H -4.0448 -1.20598 -0.111247 0
M  V30 19 H -3.67524 -0.684969 1.54693 0
M  V30 20 H -3.98221 0.552712 0.219521 0
M  V30 21 H -2.26298 -2.0707 -1.24088 0
M  V30 22 H 0.179216 -2.07961 -1.84209 0
M  V30 23 H 2.68328 -0.99402 1.27892 0
M  V30 24 H 4.08824 -1.25898 0.271028 0
M  V30 END ATOM
M  V30 BEGIN BOND
M  V30 1 1 1 2
M  V30 2 1 2 3
M  V30 3 2 3 4
M  V30 4 1 4 5
M  V30 5 1 5 6
M  V30 6 2 5 7
M  V30 7 1 7 8
M  V30 8 2 8 9
M  V30 9 1 9 10
M  V30 10 2 10 11
M  V30 11 2 10 12
M  V30 12 1 10 13
M  V30 13 1 9 3
M  V30 14 1 1 14
M  V30 15 1 1 15
M  V30 16 1 2 16
M  V30 17 1 4 17
M  V30 18 1 6 18
M  V30 19 1 6 19
M  V30 20 1 6 20
M  V30 21 1 7 21
M  V30 22 1 8 22
M  V30 23 1 13 23
M  V30 24 1 13 24
M  V30 END BOND
M  V30 END CTAB
M  END
