
     RDKit          3D

  0  0  0  0  0  0  0  0  0  0999 V3000
M  V30 BEGIN CTAB
M  V30 COUNTS 44 46 0 0 0
M  V30 BEGIN ATOM
M  V30 1 O -0.52046 -2.3439 -0.0838955 0
M  V30 2 C -0.220734 -1.204 0.401799 0
M  V30 3 N -1.16527 -0.232082 0.710924 0
M  V30 4 C -0.749155 1.04881 1.25103 0
M  V30 5 C -1.09704 2.11372 0.268836 0
M  V30 6 C -2.13527 1.74697 -0.736124 0
M  V30 7 C -3.15314 0.7636 -0.255089 0
M  V30 8 C -2.59775 -0.36334 0.554232 0
M  V30 9 C -3.07085 -1.70887 0.113039 0
M  V30 10 C -4.60953 -1.648 0.149478 0
M  V30 11 C -5.05988 -0.687857 -0.95659 0
M  V30 12 C -3.90638 0.169181 -1.42915 0
M  V30 13 C 1.2211 -0.971642 0.619707 0
M  V30 14 S 1.95189 0.0905726 -0.666483 0
M  V30 15 C 3.71577 0.172087 -0.348816 0
M  V30 16 N 4.54608 -0.738054 -0.93798 0
M  V30 17 C 5.86518 -0.736874 -0.734456 0
M  V30 18 N 6.68756 -1.72176 -1.39142 0
M  V30 19 N 6.3893 0.179844 0.0681936 0
M  V30 20 C 5.62855 1.1164 0.689428 0
M  V30 21 N 4.28858 1.07922 0.453894 0
M  V30 22 N 6.20424 2.07805 1.54322 0
M  V30 23 H -1.3245 1.22584 2.21182 0
M  V30 24 H 0.322309 1.06201 1.52004 0
M  V30 25 H -1.40588 3.01794 0.850526 0
M  V30 26 H -0.171276 2.41356 -0.256736 0
M  V30 27 H -2.65912 2.68418 -1.02539 0
M  V30 28 H -1.70234 1.35201 -1.68325 0
M  V30 29 H -3.9337 1.32913 0.330156 0
M  V30 30 H -2.99957 -0.255225 1.61101 0
M  V30 31 H -2.77389 -2.44691 0.882175 0
M  V30 32 H -2.736 -2.02138 -0.899444 0
M  V30 33 H -4.88547 -1.2938 1.15544 0
M  V30 34 H -5.03015 -2.6518 -0.0127193 0
M  V30 35 H -5.40208 -1.32904 -1.80606 0
M  V30 36 H -5.90096 -0.0636632 -0.593543 0
M  V30 37 H -3.25421 -0.450162 -2.07462 0
M  V30 38 H -4.37475 0.99617 -2.03647 0
M  V30 39 H 1.77359 -1.9516 0.532597 0
M  V30 40 H 1.47514 -0.527216 1.60373 0
M  V30 41 H 7.40588 -2.25815 -0.885761 0
M  V30 42 H 6.53924 -1.89226 -2.42845 0
M  V30 43 H 6.06336 2.0022 2.56429 0
M  V30 44 H 6.76157 2.85608 1.15686 0
M  V30 END ATOM
M  V30 BEGIN BOND
M  V30 1 2 1 2
M  V30 2 1 2 3
M  V30 3 1 3 4
M  V30 4 1 4 5
M  V30 5 1 5 6
M  V30 6 1 6 7
M  V30 7 1 7 8
M  V30 8 1 8 9
M  V30 9 1 9 10
M  V30 10 1 10 11
M  V30 11 1 11 12
M  V30 12 1 2 13
M  V30 13 1 13 14
M  V30 14 1 14 15
M  V30 15 2 15 16
M  V30 16 1 16 17
M  V30 17 1 17 18
M  V30 18 2 17 19
M  V30 19 1 19 20
M  V30 20 2 20 21
M  V30 21 1 20 22
M  V30 22 1 8 3
M  V30 23 1 21 15
M  V30 24 1 12 7
M  V30 25 1 4 23
M  V30 26 1 4 24
M  V30 27 1 5 25
M  V30 28 1 5 26
M  V30 29 1 6 27
M  V30 30 1 6 28
M  V30 31 1 7 29
M  V30 32 1 8 30
M  V30 33 1 9 31
M  V30 34 1 9 32
M  V30 35 1 10 33
M  V30 36 1 10 34
M  V30 37 1 11 35
M  V30 38 1 11 36
M  V30 39 1 12 37
M  V30 40 1 12 38
M  V30 41 1 13 39
M  V30 42 1 13 40
M  V30 43 1 18 41
M  V30 44 1 18 42
M  V30 45 1 22 43
M  V30 46 1 22 44
M  V30 END BOND
M  V30 END CTAB
M  END
