
     RDKit          3D

  0  0  0  0  0  0  0  0  0  0999 V3000
M  V30 BEGIN CTAB
M  V30 COUNTS 37 39 0 0 0
M  V30 BEGIN ATOM
M  V30 1 N 7.40393 -0.631283 0.243751 0
M  V30 2 C 5.98307 -0.533364 0.368258 0
M  V30 3 N 5.31444 -1.43355 1.114 0
M  V30 4 C 3.97346 -1.38931 1.26649 0
M  V30 5 N 3.31282 -2.36218 2.06392 0
M  V30 6 C 3.25723 -0.390445 0.639749 0
M  V30 7 N 1.90083 -0.292836 0.755619 0
M  V30 8 C 1.22931 0.686923 0.136606 0
M  V30 9 C -0.242042 0.802171 0.254602 0
M  V30 10 C -0.908218 0.000726912 -0.866659 0
M  V30 11 C -2.38139 0.126169 -0.734702 0
M  V30 12 C -3.07469 1.13933 -1.36304 0
M  V30 13 C -4.44429 1.26801 -1.24909 0
M  V30 14 C -5.17158 0.374141 -0.492287 0
M  V30 15 C -4.47537 -0.650722 0.144083 0
M  V30 16 C -3.10538 -0.77047 0.0236021 0
M  V30 17 C -6.61604 0.471951 -0.344672 0
M  V30 18 O -7.29582 -0.448048 0.423804 0
M  V30 19 O -7.20535 1.40994 -0.934298 0
M  V30 20 C 1.89467 1.61557 -0.629356 0
M  V30 21 N 3.23536 1.50301 -0.732205 0
M  V30 22 C 3.94128 0.532287 -0.124485 0
M  V30 23 N 5.29741 0.441031 -0.24492 0
M  V30 24 H 7.91178 -1.40033 0.689132 0
M  V30 25 H 7.9173 0.079837 -0.299455 0
M  V30 26 H 2.88323 -3.1793 1.57296 0
M  V30 27 H 3.24991 -2.27561 3.1205 0
M  V30 28 H -0.530504 1.85831 0.0807267 0
M  V30 29 H -0.604834 0.440445 1.25226 0
M  V30 30 H -0.55586 -1.03328 -0.756735 0
M  V30 31 H -0.553323 0.450165 -1.81101 0
M  V30 32 H -2.49536 1.83357 -1.953 0
M  V30 33 H -4.95369 2.07772 -1.75803 0
M  V30 34 H -5.07367 -1.34036 0.733608 0
M  V30 35 H -2.61232 -1.601 0.550077 0
M  V30 36 H -7.75448 -1.26723 -0.00234114 0
M  V30 37 H 1.34818 2.41887 -1.13745 0
M  V30 END ATOM
M  V30 BEGIN BOND
M  V30 1 1 1 2
M  V30 2 2 2 3
M  V30 3 1 3 4
M  V30 4 1 4 5
M  V30 5 2 4 6
M  V30 6 1 6 7
M  V30 7 2 7 8
M  V30 8 1 8 9
M  V30 9 1 9 10
M  V30 10 1 10 11
M  V30 11 2 11 12
M  V30 12 1 12 13
M  V30 13 2 13 14
M  V30 14 1 14 15
M  V30 15 2 15 16
M  V30 16 1 14 17
M  V30 17 1 17 18
M  V30 18 2 17 19
M  V30 19 1 8 20
M  V30 20 2 20 21
M  V30 21 1 21 22
M  V30 22 2 22 23
M  V30 23 1 23 2
M  V30 24 1 22 6
M  V30 25 1 16 11
M  V30 26 1 1 24
M  V30 27 1 1 25
M  V30 28 1 5 26
M  V30 29 1 5 27
M  V30 30 1 9 28
M  V30 31 1 9 29
M  V30 32 1 10 30
M  V30 33 1 10 31
M  V30 34 1 12 32
M  V30 35 1 13 33
M  V30 36 1 15 34
M  V30 37 1 16 35
M  V30 38 1 18 36
M  V30 39 1 20 37
M  V30 END BOND
M  V30 END CTAB
M  END
