
     RDKit          3D

  0  0  0  0  0  0  0  0  0  0999 V3000
M  V30 BEGIN CTAB
M  V30 COUNTS 58 61 0 0 0
M  V30 BEGIN ATOM
M  V30 1 C -6.9407 -0.420497 -4.19961 0
M  V30 2 C -6.32389 -0.421549 -2.85494 0
M  V30 3 C -6.87826 -1.18506 -1.85449 0
M  V30 4 C -6.35398 -1.22633 -0.594879 0
M  V30 5 C -7.03768 -2.08814 0.40918 0
M  V30 6 C -5.21462 -0.488034 -0.25012 0
M  V30 7 C -4.6999 0.254797 -1.27702 0
M  V30 8 N -5.23345 0.289718 -2.53842 0
M  V30 9 S -3.35254 1.01903 -0.555071 0
M  V30 10 C -3.47947 0.378614 1.01921 0
M  V30 11 C -4.58445 -0.424349 0.936209 0
M  V30 12 N -5.00464 -1.15262 2.12578 0
M  V30 13 C -2.60706 0.634389 2.178 0
M  V30 14 O -2.86444 0.0690042 3.25213 0
M  V30 15 O -1.53175 1.46892 2.10572 0
M  V30 16 C -0.649125 1.78131 3.12397 0
M  V30 17 C 0.437611 2.74411 2.70769 0
M  V30 18 N 1.25262 2.25028 1.64355 0
M  V30 19 C 2.40578 1.5083 1.93999 0
M  V30 20 O 2.72643 1.27504 3.15316 0
M  V30 21 C 3.30269 0.961364 0.904268 0
M  V30 22 S 3.18215 1.07811 -0.789392 0
M  V30 23 C 4.5772 0.19955 -1.22815 0
M  V30 24 C 5.10382 -0.164494 -0.020027 0
M  V30 25 C 4.44575 0.228643 1.08977 0
M  V30 26 N 4.89173 -0.0874938 2.44168 0
M  V30 27 C 6.29686 -0.923025 -0.0916655 0
M  V30 28 C 6.99788 -1.39852 1.13378 0
M  V30 29 C 6.819 -1.22665 -1.32647 0
M  V30 30 C 6.27057 -0.848776 -2.53189 0
M  V30 31 N 5.13941 -0.130149 -2.43963 0
M  V30 32 C 6.8346 -1.17717 -3.84839 0
M  V30 33 C 0.867244 2.52789 0.288526 0
M  V30 34 H -6.42787 -1.17257 -4.83061 0
M  V30 35 H -6.83611 0.607741 -4.61291 0
M  V30 36 H -8.01744 -0.669132 -4.13153 0
M  V30 37 H -7.7813 -1.78826 -2.07568 0
M  V30 38 H -7.41176 -1.47052 1.26513 0
M  V30 39 H -6.33823 -2.85895 0.727978 0
M  V30 40 H -7.9493 -2.55081 -0.0206065 0
M  V30 41 H -4.68901 -2.10976 2.34259 0
M  V30 42 H -5.64722 -0.657845 2.75757 0
M  V30 43 H -1.22307 2.289 3.93738 0
M  V30 44 H -0.1579 0.909697 3.60503 0
M  V30 45 H -0.00791651 3.71804 2.36377 0
M  V30 46 H 1.04639 3.01123 3.59457 0
M  V30 47 H 4.58268 -0.95405 2.91692 0
M  V30 48 H 5.52679 0.540754 2.96408 0
M  V30 49 H 7.90329 -1.94245 0.835145 0
M  V30 50 H 6.38023 -2.08891 1.73767 0
M  V30 51 H 7.33894 -0.504199 1.69892 0
M  V30 52 H 7.74248 -1.81328 -1.40397 0
M  V30 53 H 7.93079 -1.33461 -3.83541 0
M  V30 54 H 6.38999 -2.08969 -4.27903 0
M  V30 55 H 6.64727 -0.360829 -4.57676 0
M  V30 56 H -0.0577361 3.18979 0.258786 0
M  V30 57 H 1.64205 3.1676 -0.178829 0
M  V30 58 H 0.618586 1.62578 -0.308896 0
M  V30 END ATOM
M  V30 BEGIN BOND
M  V30 1 1 1 2
M  V30 2 2 2 3
M  V30 3 1 3 4
M  V30 4 1 4 5
M  V30 5 2 4 6
M  V30 6 1 6 7
M  V30 7 2 7 8
M  V30 8 1 7 9
M  V30 9 1 9 10
M  V30 10 2 10 11
M  V30 11 1 11 12
M  V30 12 1 10 13
M  V30 13 2 13 14
M  V30 14 1 13 15
M  V30 15 1 15 16
M  V30 16 1 16 17
M  V30 17 1 17 18
M  V30 18 1 18 19
M  V30 19 2 19 20
M  V30 20 1 19 21
M  V30 21 1 21 22
M  V30 22 1 22 23
M  V30 23 2 23 24
M  V30 24 1 24 25
M  V30 25 1 25 26
M  V30 26 1 24 27
M  V30 27 1 27 28
M  V30 28 2 27 29
M  V30 29 1 29 30
M  V30 30 2 30 31
M  V30 31 1 30 32
M  V30 32 1 18 33
M  V30 33 1 8 2
M  V30 34 2 25 21
M  V30 35 1 11 6
M  V30 36 1 31 23
M  V30 37 1 1 34
M  V30 38 1 1 35
M  V30 39 1 1 36
M  V30 40 1 3 37
M  V30 41 1 5 38
M  V30 42 1 5 39
M  V30 43 1 5 40
M  V30 44 1 12 41
M  V30 45 1 12 42
M  V30 46 1 16 43
M  V30 47 1 16 44
M  V30 48 1 17 45
M  V30 49 1 17 46
M  V30 50 1 26 47
M  V30 51 1 26 48
M  V30 52 1 28 49
M  V30 53 1 28 50
M  V30 54 1 28 51
M  V30 55 1 29 52
M  V30 56 1 32 53
M  V30 57 1 32 54
M  V30 58 1 32 55
M  V30 59 1 33 56
M  V30 60 1 33 57
M  V30 61 1 33 58
M  V30 END BOND
M  V30 END CTAB
M  END
