
     RDKit          3D

  0  0  0  0  0  0  0  0  0  0999 V3000
M  V30 BEGIN CTAB
M  V30 COUNTS 49 50 0 0 0
M  V30 BEGIN ATOM
M  V30 1 N 6.60623 1.3126 0.20867 0
M  V30 2 C 6.00883 1.16836 -1.09939 0
M  V30 3 C 4.62087 1.76125 -1.04386 0
M  V30 4 N 3.75643 1.12879 -0.0795621 0
M  V30 5 C 3.41002 -0.239931 -0.136603 0
M  V30 6 O 3.86872 -0.944284 -1.06522 0
M  V30 7 C 2.51081 -0.813769 0.903945 0
M  V30 8 C 2.3063 -2.26284 0.612959 0
M  V30 9 C 0.975075 -2.67523 1.20194 0
M  V30 10 C -0.0794095 -2.02906 0.257109 0
M  V30 11 N 0.122869 -0.603188 0.306224 0
M  V30 12 C 1.24756 -0.0390498 1.06095 0
M  V30 13 C -0.736519 0.281858 -0.356019 0
M  V30 14 O -0.415742 1.54081 -0.198614 0
M  V30 15 C -1.90338 -0.042881 -1.16799 0
M  V30 16 C -3.20488 0.369209 -0.566467 0
M  V30 17 C -4.36996 -0.0345443 -1.17899 0
M  V30 18 C -5.61718 0.297533 -0.687753 0
M  V30 19 C -5.72508 1.05595 0.449749 0
M  V30 20 C -4.57292 1.47038 1.07835 0
M  V30 21 C -3.31463 1.12551 0.568113 0
M  V30 22 C -7.08256 1.42184 0.990938 0
M  V30 23 N -1.98599 -1.44024 -1.45416 0
M  V30 24 H 6.19618 0.594227 0.860967 0
M  V30 25 H 7.62503 1.1182 0.171169 0
M  V30 26 H 6.63327 1.7017 -1.85919 0
M  V30 27 H 6.03867 0.109491 -1.39908 0
M  V30 28 H 4.64998 2.86155 -0.930337 0
M  V30 29 H 4.19481 1.6038 -2.07997 0
M  V30 30 H 3.38254 1.75477 0.695354 0
M  V30 31 H 3.10958 -0.764441 1.86244 0
M  V30 32 H 2.22633 -2.3685 -0.501901 0
M  V30 33 H 3.15143 -2.85757 0.986182 0
M  V30 34 H 0.826146 -2.29296 2.21968 0
M  V30 35 H 0.852955 -3.75648 1.09575 0
M  V30 36 H 0.182112 -2.46218 -0.72701 0
M  V30 37 H -1.03384 -2.38168 0.661622 0
M  V30 38 H 0.946436 -0.0833292 2.12857 0
M  V30 39 H 1.37905 1.03525 0.817371 0
M  V30 40 H -1.88028 0.486348 -2.1608 0
M  V30 41 H -4.34601 -0.634432 -2.07907 0
M  V30 42 H -6.51653 -0.0497737 -1.21406 0
M  V30 43 H -4.64676 2.07169 1.98029 0
M  V30 44 H -2.45033 1.4773 1.10665 0
M  V30 45 H -7.74532 0.53849 1.01481 0
M  V30 46 H -6.96829 1.92147 1.96147 0
M  V30 47 H -7.51443 2.13769 0.262449 0
M  V30 48 H -2.76388 -1.89092 -0.927091 0
M  V30 49 H -1.95434 -1.67879 -2.45825 0
M  V30 END ATOM
M  V30 BEGIN BOND
M  V30 1 1 1 2
M  V30 2 1 2 3
M  V30 3 1 3 4
M  V30 4 1 4 5
M  V30 5 2 5 6
M  V30 6 1 5 7
M  V30 7 1 7 8
M  V30 8 1 8 9
M  V30 9 1 9 10
M  V30 10 1 10 11
M  V30 11 1 11 12
M  V30 12 1 11 13
M  V30 13 2 13 14
M  V30 14 1 13 15
M  V30 15 1 15 16
M  V30 16 2 16 17
M  V30 17 1 17 18
M  V30 18 2 18 19
M  V30 19 1 19 20
M  V30 20 2 20 21
M  V30 21 1 19 22
M  V30 22 1 15 23
M  V30 23 1 12 7
M  V30 24 1 21 16
M  V30 25 1 1 24
M  V30 26 1 1 25
M  V30 27 1 2 26
M  V30 28 1 2 27
M  V30 29 1 3 28
M  V30 30 1 3 29
M  V30 31 1 4 30
M  V30 32 1 7 31
M  V30 33 1 8 32
M  V30 34 1 8 33
M  V30 35 1 9 34
M  V30 36 1 9 35
M  V30 37 1 10 36
M  V30 38 1 10 37
M  V30 39 1 12 38
M  V30 40 1 12 39
M  V30 41 1 15 40
M  V30 42 1 17 41
M  V30 43 1 18 42
M  V30 44 1 20 43
M  V30 45 1 21 44
M  V30 46 1 22 45
M  V30 47 1 22 46
M  V30 48 1 22 47
M  V30 49 1 23 48
M  V30 50 1 23 49
M  V30 END BOND
M  V30 END CTAB
M  END
