
     RDKit          3D

  0  0  0  0  0  0  0  0  0  0999 V3000
M  V30 BEGIN CTAB
M  V30 COUNTS 41 41 0 0 0
M  V30 BEGIN ATOM
M  V30 1 N -3.68564 2.57832 -1.0232 0
M  V30 2 C -2.43149 1.89857 -1.28454 0
M  V30 3 C -1.88508 1.30602 0.0194117 0
M  V30 4 N -0.653527 0.617857 -0.138405 0
M  V30 5 C 0.576294 1.05628 0.468368 0
M  V30 6 O 0.587428 2.10805 1.18424 0
M  V30 7 C 1.83453 0.349006 0.305117 0
M  V30 8 C 2.98285 0.934986 0.783714 0
M  V30 9 C 4.20258 0.323163 0.666048 0
M  V30 10 C 4.30908 -0.902169 0.061357 0
M  V30 11 C 3.16512 -1.47792 -0.411325 0
M  V30 12 C 1.92194 -0.888543 -0.308698 0
M  V30 13 C 5.64674 -1.52603 -0.043869 0
M  V30 14 N 6.65347 -0.66941 0.549097 0
M  V30 15 C -2.95976 0.622568 0.778072 0
M  V30 16 C -3.66478 -0.502958 0.128542 0
M  V30 17 C -2.79257 -1.66969 -0.254575 0
M  V30 18 C -4.67868 -1.04125 1.15162 0
M  V30 19 H -4.26054 2.68591 -1.8743 0
M  V30 20 H -3.50222 3.50802 -0.613849 0
M  V30 21 H -2.59185 1.10776 -2.02271 0
M  V30 22 H -1.71877 2.67388 -1.62884 0
M  V30 23 H -1.63739 2.24165 0.626554 0
M  V30 24 H -0.603771 -0.235966 -0.716267 0
M  V30 25 H 2.94918 1.91931 1.27737 0
M  V30 26 H 5.07385 0.823277 1.05733 0
M  V30 27 H 3.22496 -2.444 -0.891901 0
M  V30 28 H 1.03039 -1.36417 -0.688917 0
M  V30 29 H 5.9434 -1.64516 -1.12588 0
M  V30 30 H 5.7052 -2.50673 0.456906 0
M  V30 31 H 7.5795 -0.997936 0.24033 0
M  V30 32 H 6.63793 -0.701749 1.59442 0
M  V30 33 H -2.51253 0.228954 1.73768 0
M  V30 34 H -3.74244 1.38371 1.07112 0
M  V30 35 H -4.29546 -0.205819 -0.739111 0
M  V30 36 H -3.37458 -2.6409 -0.209269 0
M  V30 37 H -1.95338 -1.82469 0.430168 0
M  V30 38 H -2.44212 -1.62516 -1.3112 0
M  V30 39 H -5.27522 -0.186576 1.53894 0
M  V30 40 H -5.29619 -1.79667 0.629363 0
M  V30 41 H -4.06644 -1.51379 1.94272 0
M  V30 END ATOM
M  V30 BEGIN BOND
M  V30 1 1 1 2
M  V30 2 1 2 3
M  V30 3 1 3 4
M  V30 4 1 4 5
M  V30 5 2 5 6
M  V30 6 1 5 7
M  V30 7 2 7 8
M  V30 8 1 8 9
M  V30 9 2 9 10
M  V30 10 1 10 11
M  V30 11 2 11 12
M  V30 12 1 10 13
M  V30 13 1 13 14
M  V30 14 1 3 15
M  V30 15 1 15 16
M  V30 16 1 16 17
M  V30 17 1 16 18
M  V30 18 1 12 7
M  V30 19 1 1 19
M  V30 20 1 1 20
M  V30 21 1 2 21
M  V30 22 1 2 22
M  V30 23 1 3 23
M  V30 24 1 4 24
M  V30 25 1 8 25
M  V30 26 1 9 26
M  V30 27 1 11 27
M  V30 28 1 12 28
M  V30 29 1 13 29
M  V30 30 1 13 30
M  V30 31 1 14 31
M  V30 32 1 14 32
M  V30 33 1 15 33
M  V30 34 1 15 34
M  V30 35 1 16 35
M  V30 36 1 17 36
M  V30 37 1 17 37
M  V30 38 1 17 38
M  V30 39 1 18 39
M  V30 40 1 18 40
M  V30 41 1 18 41
M  V30 END BOND
M  V30 END CTAB
M  END
