
     RDKit          3D

  0  0  0  0  0  0  0  0  0  0999 V3000
M  V30 BEGIN CTAB
M  V30 COUNTS 35 36 0 0 0
M  V30 BEGIN ATOM
M  V30 1 N 6.4772 -2.36373 0.164983 0
M  V30 2 C 6.30898 -0.982557 0.404518 0
M  V30 3 N 7.1749 -0.102761 0.054348 0
M  V30 4 N 5.13038 -0.542024 1.06214 0
M  V30 5 C 4.19823 0.290095 0.390019 0
M  V30 6 N 3.05484 0.784013 0.864039 0
M  V30 7 C 2.511 1.51204 -0.125942 0
M  V30 8 C 1.227 2.23762 -0.0148716 0
M  V30 9 S -0.15408 1.16088 -0.52956 0
M  V30 10 C -1.70698 2.08608 -0.379049 0
M  V30 11 C -2.82253 1.1819 -0.8065 0
M  V30 12 N -2.85255 0.0147325 0.0426185 0
M  V30 13 C -3.8594 -1.0158 -0.181772 0
M  V30 14 N -3.54848 -2.0568 -0.862603 0
M  V30 15 S -4.98011 -3.01821 -0.90358 0
M  V30 16 O -5.50397 -3.1776 -2.29569 0
M  V30 17 O -4.77833 -4.33537 -0.212855 0
M  V30 18 N -5.96222 -1.94449 0.0248457 0
M  V30 19 C -5.20336 -0.959555 0.308881 0
M  V30 20 N -5.72142 0.144214 1.09519 0
M  V30 21 N 3.31518 1.46013 -1.18768 0
M  V30 22 O 4.31405 0.723634 -0.849966 0
M  V30 23 H 5.95811 -2.80075 -0.634328 0
M  V30 24 H 7.08295 -2.99722 0.723372 0
M  V30 25 H 7.04435 0.906406 0.233316 0
M  V30 26 H 4.92707 -0.819314 2.04636 0
M  V30 27 H 1.26641 3.08963 -0.723056 0
M  V30 28 H 1.10432 2.56412 1.03491 0
M  V30 29 H -1.60735 2.98271 -1.0212 0
M  V30 30 H -1.88111 2.37828 0.670965 0
M  V30 31 H -2.7135 0.867322 -1.86683 0
M  V30 32 H -3.7865 1.74966 -0.764799 0
M  V30 33 H -2.17097 -0.118623 0.820286 0
M  V30 34 H -5.15256 0.602862 1.82709 0
M  V30 35 H -6.68957 0.498483 0.933225 0
M  V30 END ATOM
M  V30 BEGIN BOND
M  V30 1 1 1 2
M  V30 2 2 2 3 CFG=2
M  V30 3 1 2 4
M  V30 4 1 4 5
M  V30 5 2 5 6
M  V30 6 1 6 7
M  V30 7 1 7 8
M  V30 8 1 8 9
M  V30 9 1 9 10
M  V30 10 1 10 11
M  V30 11 1 11 12
M  V30 12 1 12 13
M  V30 13 2 13 14
M  V30 14 1 14 15
M  V30 15 2 15 16
M  V30 16 2 15 17
M  V30 17 1 15 18
M  V30 18 2 18 19
M  V30 19 1 19 20
M  V30 20 2 7 21
M  V30 21 1 21 22
M  V30 22 1 22 5
M  V30 23 1 19 13
M  V30 24 1 1 23
M  V30 25 1 1 24
M  V30 26 1 3 25
M  V30 27 1 4 26
M  V30 28 1 8 27
M  V30 29 1 8 28
M  V30 30 1 10 29
M  V30 31 1 10 30
M  V30 32 1 11 31
M  V30 33 1 11 32
M  V30 34 1 12 33
M  V30 35 1 20 34
M  V30 36 1 20 35
M  V30 END BOND
M  V30 END CTAB
M  END
