
     RDKit          3D

  0  0  0  0  0  0  0  0  0  0999 V3000
M  V30 BEGIN CTAB
M  V30 COUNTS 37 37 0 0 0
M  V30 BEGIN ATOM
M  V30 1 N 6.25002 0.146301 -0.592701 0
M  V30 2 C 5.62427 -0.136302 0.680074 0
M  V30 3 C 4.2121 -0.635629 0.443484 0
M  V30 4 S 3.65829 -2.23134 0.20903 0
M  V30 5 C 1.9891 -1.89228 0.0244298 0
M  V30 6 C 1.96562 -0.525974 0.159887 0
M  V30 7 N 3.10529 0.0673574 0.369543 0
M  V30 8 C 0.677192 0.235544 0.0687488 0
M  V30 9 O 0.682648 1.47952 0.19445 0
M  V30 10 N -0.544915 -0.428625 -0.156936 0
M  V30 11 C -1.84363 0.170098 -0.261363 0
M  V30 12 C -1.841 1.18141 -1.37668 0
M  V30 13 N -3.17477 1.80299 -1.4996 0
M  V30 14 C -2.51143 0.569895 0.987037 0
M  V30 15 C -1.88775 1.56267 1.87715 0
M  V30 16 C -2.76365 -0.961073 -0.850528 0
M  V30 17 C -2.79664 -2.148 0.048109 0
M  V30 18 H 5.56226 0.702794 -1.14853 0
M  V30 19 H 7.09374 0.735615 -0.402886 0
M  V30 20 H 5.50638 0.80143 1.2646 0
M  V30 21 H 6.1351 -0.902714 1.27189 0
M  V30 22 H 1.15252 -2.59624 -0.1567 0
M  V30 23 H -0.467279 -1.48465 -0.255873 0
M  V30 24 H -1.05869 1.92576 -1.35762 0
M  V30 25 H -1.70457 0.608828 -2.32967 0
M  V30 26 H -3.06253 2.66584 -2.0949 0
M  V30 27 H -3.82178 1.1842 -2.03965 0
M  V30 28 H -2.67981 -0.378527 1.58584 0
M  V30 29 H -3.56954 0.8997 0.765239 0
M  V30 30 H -1.02359 1.17264 2.46113 0
M  V30 31 H -2.63057 1.82593 2.70396 0
M  V30 32 H -1.65854 2.53554 1.42854 0
M  V30 33 H -2.33822 -1.21992 -1.82402 0
M  V30 34 H -3.77525 -0.538072 -0.946022 0
M  V30 35 H -3.79747 -2.32006 0.504824 0
M  V30 36 H -2.6284 -3.05823 -0.590536 0
M  V30 37 H -2.03449 -2.15131 0.836249 0
M  V30 END ATOM
M  V30 BEGIN BOND
M  V30 1 1 1 2
M  V30 2 1 2 3
M  V30 3 1 3 4
M  V30 4 1 4 5
M  V30 5 2 5 6
M  V30 6 1 6 7
M  V30 7 1 6 8
M  V30 8 2 8 9
M  V30 9 1 8 10
M  V30 10 1 10 11
M  V30 11 1 11 12
M  V30 12 1 12 13
M  V30 13 1 11 14
M  V30 14 1 14 15
M  V30 15 1 11 16
M  V30 16 1 16 17
M  V30 17 2 7 3
M  V30 18 1 1 18
M  V30 19 1 1 19
M  V30 20 1 2 20
M  V30 21 1 2 21
M  V30 22 1 5 22
M  V30 23 1 10 23
M  V30 24 1 12 24
M  V30 25 1 12 25
M  V30 26 1 13 26
M  V30 27 1 13 27
M  V30 28 1 14 28
M  V30 29 1 14 29
M  V30 30 1 15 30
M  V30 31 1 15 31
M  V30 32 1 15 32
M  V30 33 1 16 33
M  V30 34 1 16 34
M  V30 35 1 17 35
M  V30 36 1 17 36
M  V30 37 1 17 37
M  V30 END BOND
M  V30 END CTAB
M  END
