
     RDKit          3D

  0  0  0  0  0  0  0  0  0  0999 V3000
M  V30 BEGIN CTAB
M  V30 COUNTS 26 26 0 0 0
M  V30 BEGIN ATOM
M  V30 1 N 4.15231 -0.340057 -0.12842 0
M  V30 2 N 3.01999 -0.823813 0.501475 0
M  V30 3 C 1.71006 -0.457694 0.0276649 0
M  V30 4 O 1.64499 0.307369 -0.966032 0
M  V30 5 C 0.499206 -0.943289 0.660145 0
M  V30 6 C -0.801961 -0.427542 0.126691 0
M  V30 7 C -0.863544 1.07321 0.283815 0
M  V30 8 C -2.16393 1.74271 -0.202556 0
M  V30 9 C -0.880415 1.92286 -0.929003 0
M  V30 10 N -1.01264 -0.810148 -1.26255 0
M  V30 11 C -1.95428 -0.982439 0.937792 0
M  V30 12 H 3.96129 -0.0788215 -1.1225 0
M  V30 13 H 4.42791 0.547989 0.380477 0
M  V30 14 H 3.08816 -1.45413 1.32018 0
M  V30 15 H 0.527135 -0.614162 1.74644 0
M  V30 16 H 0.450484 -2.06047 0.73945 0
M  V30 17 H -0.510024 1.49075 1.22313 0
M  V30 18 H -2.51891 2.64477 0.337019 0
M  V30 19 H -2.91427 1.05098 -0.579238 0
M  V30 20 H -0.849949 1.42502 -1.92952 0
M  V30 21 H -0.306205 2.85759 -0.888719 0
M  V30 22 H -1.829 -1.42392 -1.33112 0
M  V30 23 H -0.139431 -1.26237 -1.61134 0
M  V30 24 H -1.82677 -2.05792 1.15806 0
M  V30 25 H -2.02191 -0.434801 1.904 0
M  V30 26 H -2.88831 -0.891689 0.346489 0
M  V30 END ATOM
M  V30 BEGIN BOND
M  V30 1 1 1 2
M  V30 2 1 2 3
M  V30 3 2 3 4
M  V30 4 1 3 5
M  V30 5 1 5 6
M  V30 6 1 6 7
M  V30 7 1 7 8
M  V30 8 1 8 9
M  V30 9 1 6 10
M  V30 10 1 6 11
M  V30 11 1 9 7
M  V30 12 1 1 12
M  V30 13 1 1 13
M  V30 14 1 2 14
M  V30 15 1 5 15
M  V30 16 1 5 16
M  V30 17 1 7 17
M  V30 18 1 8 18
M  V30 19 1 8 19
M  V30 20 1 9 20
M  V30 21 1 9 21
M  V30 22 1 10 22
M  V30 23 1 10 23
M  V30 24 1 11 24
M  V30 25 1 11 25
M  V30 26 1 11 26
M  V30 END BOND
M  V30 END CTAB
M  END
