
     RDKit          3D

  0  0  0  0  0  0  0  0  0  0999 V3000
M  V30 BEGIN CTAB
M  V30 COUNTS 39 39 0 0 0
M  V30 BEGIN ATOM
M  V30 1 N -4.71716 1.72077 -0.987704 0
M  V30 2 C -3.43878 1.0324 -1.09248 0
M  V30 3 C -3.52656 -0.262403 -0.306908 0
M  V30 4 C -2.35663 -1.16679 -0.494944 0
M  V30 5 C -1.09574 -0.505802 -0.0385058 0
M  V30 6 O -1.07284 0.564283 0.572265 0
M  V30 7 N 0.10858 -1.17769 -0.344771 0
M  V30 8 C 1.368 -0.656845 0.0445852 0
M  V30 9 C 2.46777 -0.948488 -0.767557 0
M  V30 10 C 3.71398 -0.507205 -0.430581 0
M  V30 11 C 4.85916 -0.840742 -1.32292 0
M  V30 12 N 4.98114 0.134795 -2.42376 0
M  V30 13 C 3.95231 0.237955 0.713336 0
M  V30 14 C 2.85805 0.511639 1.4929 0
M  V30 15 C 1.59466 0.0802635 1.17625 0
M  V30 16 C 3.06812 1.31072 2.73539 0
M  V30 17 F 4.10408 2.19483 2.49668 0
M  V30 18 F 3.4394 0.477152 3.78408 0
M  V30 19 F 1.91356 1.94848 3.08917 0
M  V30 20 O -3.79231 -0.0231813 1.02461 0
M  V30 21 C -5.03691 -0.477752 1.44607 0
M  V30 22 H -5.23343 1.48778 -1.88257 0
M  V30 23 H -4.57373 2.76273 -0.994112 0
M  V30 24 H -2.68301 1.72681 -0.756935 0
M  V30 25 H -3.19533 0.74612 -2.15048 0
M  V30 26 H -4.44563 -0.78759 -0.702404 0
M  V30 27 H -2.22703 -1.51346 -1.52924 0
M  V30 28 H -2.48514 -2.10285 0.113072 0
M  V30 29 H 0.127042 -2.09044 -0.870837 0
M  V30 30 H 2.26822 -1.54032 -1.66825 0
M  V30 31 H 5.79835 -0.791747 -0.748942 0
M  V30 32 H 4.71058 -1.86264 -1.69735 0
M  V30 33 H 4.81351 1.0732 -1.95163 0
M  V30 34 H 4.15148 0.0286698 -3.08369 0
M  V30 35 H 4.92721 0.599023 1.00194 0
M  V30 36 H 0.793792 0.335575 1.87699 0
M  V30 37 H -5.18304 -0.25497 2.51578 0
M  V30 38 H -5.16672 -1.5608 1.31133 0
M  V30 39 H -5.78897 0.0985229 0.852127 0
M  V30 END ATOM
M  V30 BEGIN BOND
M  V30 1 1 1 2
M  V30 2 1 2 3
M  V30 3 1 3 4
M  V30 4 1 4 5
M  V30 5 2 5 6
M  V30 6 1 5 7
M  V30 7 1 7 8
M  V30 8 2 8 9
M  V30 9 1 9 10
M  V30 10 1 10 11
M  V30 11 1 11 12
M  V30 12 2 10 13
M  V30 13 1 13 14
M  V30 14 2 14 15
M  V30 15 1 14 16
M  V30 16 1 16 17
M  V30 17 1 16 18
M  V30 18 1 16 19
M  V30 19 1 3 20
M  V30 20 1 20 21
M  V30 21 1 15 8
M  V30 22 1 1 22
M  V30 23 1 1 23
M  V30 24 1 2 24
M  V30 25 1 2 25
M  V30 26 1 3 26
M  V30 27 1 4 27
M  V30 28 1 4 28
M  V30 29 1 7 29
M  V30 30 1 9 30
M  V30 31 1 11 31
M  V30 32 1 11 32
M  V30 33 1 12 33
M  V30 34 1 12 34
M  V30 35 1 13 35
M  V30 36 1 15 36
M  V30 37 1 21 37
M  V30 38 1 21 38
M  V30 39 1 21 39
M  V30 END BOND
M  V30 END CTAB
M  END
