
     RDKit          3D

  0  0  0  0  0  0  0  0  0  0999 V3000
M  V30 BEGIN CTAB
M  V30 COUNTS 27 27 0 0 0
M  V30 BEGIN ATOM
M  V30 1 N -4.23499 0.103945 -0.381029 0
M  V30 2 C -2.78575 0.299525 -0.499696 0
M  V30 3 C -2.14939 0.207041 0.877864 0
M  V30 4 C -0.675153 0.409809 0.729357 0
M  V30 5 C 0.00264633 -0.59131 -0.147875 0
M  V30 6 C 1.45464 -0.245893 -0.186097 0
M  V30 7 C 1.98692 0.457334 -1.27146 0
M  V30 8 C 3.32325 0.787057 -1.32859 0
M  V30 9 C 4.12784 0.403893 -0.282178 0
M  V30 10 C 3.61908 -0.281377 0.779607 0
M  V30 11 N 2.30669 -0.585514 0.799144 0
M  V30 12 N -0.121881 -1.94144 0.263377 0
M  V30 13 H -4.61767 0.626281 0.417113 0
M  V30 14 H -4.63172 0.531586 -1.26435 0
M  V30 15 H -2.41692 -0.547299 -1.1063 0
M  V30 16 H -2.6031 1.28849 -0.943698 0
M  V30 17 H -2.38209 -0.73627 1.36679 0
M  V30 18 H -2.54236 1.04554 1.48957 0
M  V30 19 H -0.130998 0.456062 1.68596 0
M  V30 20 H -0.501284 1.42107 0.254056 0
M  V30 21 H -0.381406 -0.482474 -1.204 0
M  V30 22 H 1.28752 0.7211 -2.05233 0
M  V30 23 H 3.67639 1.32943 -2.18956 0
M  V30 24 H 5.16601 0.650231 -0.308323 0
M  V30 25 H 4.21526 -0.600337 1.62011 0
M  V30 26 H -0.833721 -2.13231 0.986998 0
M  V30 27 H -0.157821 -2.59417 -0.545182 0
M  V30 END ATOM
M  V30 BEGIN BOND
M  V30 1 1 1 2
M  V30 2 1 2 3
M  V30 3 1 3 4
M  V30 4 1 4 5
M  V30 5 1 5 6
M  V30 6 2 6 7
M  V30 7 1 7 8
M  V30 8 2 8 9
M  V30 9 1 9 10
M  V30 10 2 10 11
M  V30 11 1 5 12
M  V30 12 1 11 6
M  V30 13 1 1 13
M  V30 14 1 1 14
M  V30 15 1 2 15
M  V30 16 1 2 16
M  V30 17 1 3 17
M  V30 18 1 3 18
M  V30 19 1 4 19
M  V30 20 1 4 20
M  V30 21 1 5 21
M  V30 22 1 7 22
M  V30 23 1 8 23
M  V30 24 1 9 24
M  V30 25 1 10 25
M  V30 26 1 12 26
M  V30 27 1 12 27
M  V30 END BOND
M  V30 END CTAB
M  END
