
     RDKit          3D

 28 29  0  0  0  0  0  0  0  0999 V2000
    1.8358    5.0323    0.0987 N   0  0  0  0  0  0  0  0  0  0  0  0
    0.4893    4.6468    0.5026 C   0  0  0  0  0  0  0  0  0  0  0  0
    0.2687    3.1650    0.3388 C   0  0  0  0  0  0  0  0  0  0  0  0
    0.2834    2.5827   -0.9340 C   0  0  0  0  0  0  0  0  0  0  0  0
    0.0769    1.2106   -1.0911 C   0  0  0  0  0  0  0  0  0  0  0  0
   -0.1489    0.3879    0.0223 C   0  0  0  0  0  0  0  0  0  0  0  0
   -0.3604   -0.9919   -0.1196 C   0  0  0  0  0  0  0  0  0  0  0  0
   -0.5834   -1.7996    0.9978 C   0  0  0  0  0  0  0  0  0  0  0  0
   -0.5922   -1.2459    2.2826 C   0  0  0  0  0  0  0  0  0  0  0  0
   -0.8602   -2.1098    3.4873 C   0  0  0  0  0  0  0  0  0  0  0  0
   -2.2864   -2.1757    3.7829 N   0  0  0  0  0  0  0  0  0  0  0  0
   -0.3891    0.1352    2.4280 C   0  0  0  0  0  0  0  0  0  0  0  0
   -0.1638    0.9609    1.3129 C   0  0  0  0  0  0  0  0  0  0  0  0
    0.0460    2.3441    1.4547 C   0  0  0  0  0  0  0  0  0  0  0  0
    1.9891    6.0097    0.3367 H   0  0  0  0  0  0  0  0  0  0  0  0
    2.5083    4.4929    0.6422 H   0  0  0  0  0  0  0  0  0  0  0  0
    0.3278    4.9442    1.5450 H   0  0  0  0  0  0  0  0  0  0  0  0
   -0.2479    5.1892   -0.1001 H   0  0  0  0  0  0  0  0  0  0  0  0
    0.4667    3.2014   -1.8105 H   0  0  0  0  0  0  0  0  0  0  0  0
    0.0973    0.7891   -2.0934 H   0  0  0  0  0  0  0  0  0  0  0  0
   -0.3542   -1.4494   -1.1064 H   0  0  0  0  0  0  0  0  0  0  0  0
   -0.7491   -2.8657    0.8581 H   0  0  0  0  0  0  0  0  0  0  0  0
   -0.4732   -3.1214    3.3189 H   0  0  0  0  0  0  0  0  0  0  0  0
   -0.3224   -1.7181    4.3583 H   0  0  0  0  0  0  0  0  0  0  0  0
   -2.6360   -1.2273    3.9143 H   0  0  0  0  0  0  0  0  0  0  0  0
   -2.7728   -2.5294    2.9599 H   0  0  0  0  0  0  0  0  0  0  0  0
   -0.4063    0.5710    3.4254 H   0  0  0  0  0  0  0  0  0  0  0  0
    0.0364    2.7872    2.4486 H   0  0  0  0  0  0  0  0  0  0  0  0
  1  2  1  0
  2  3  1  0
  3  4  2  0
  4  5  1  0
  5  6  2  0
  6  7  1  0
  7  8  2  0
  8  9  1  0
  9 10  1  0
 10 11  1  0
  9 12  2  0
  6 13  1  0
 13 14  2  0
 14  3  1  0
 13 12  1  0
  1 15  1  0
  1 16  1  0
  2 17  1  0
  2 18  1  0
  4 19  1  0
  5 20  1  0
  7 21  1  0
  8 22  1  0
 10 23  1  0
 10 24  1  0
 11 25  1  0
 11 26  1  0
 12 27  1  0
 14 28  1  0
M  END
