
     RDKit          3D

  0  0  0  0  0  0  0  0  0  0999 V3000
M  V30 BEGIN CTAB
M  V30 COUNTS 29 30 0 0 0
M  V30 BEGIN ATOM
M  V30 1 C 5.17993 -0.221529 0.399698 0
M  V30 2 O 4.20718 -1.14098 0.0832095 0
M  V30 3 C 2.87077 -0.974517 0.111922 0
M  V30 4 C 2.31972 0.236303 0.487321 0
M  V30 5 C 0.939964 0.372421 0.501472 0
M  V30 6 C 0.0700409 -0.656757 0.154769 0
M  V30 7 C 0.614847 -1.85795 -0.2183 0
M  V30 8 C 1.9759 -2.00222 -0.236492 0
M  V30 9 F -0.206881 -2.89152 -0.562667 0
M  V30 10 C -1.38672 -0.412321 0.19745 0
M  V30 11 N -2.16843 -1.21851 0.921816 0
M  V30 12 C -3.52162 -0.987278 0.972311 0
M  V30 13 C -4.08804 0.070813 0.281398 0
M  V30 14 C -3.30625 0.919114 -0.4753 0
M  V30 15 C -1.94722 0.64797 -0.497512 0
M  V30 16 N -1.08122 1.46221 -1.25432 0
M  V30 17 N -3.87537 2.00674 -1.19089 0
M  V30 18 H 4.87748 0.806543 0.619787 0
M  V30 19 H 5.68229 -0.596851 1.34822 0
M  V30 20 H 5.95607 -0.125478 -0.403773 0
M  V30 21 H 2.93883 1.10068 0.779126 0
M  V30 22 H 0.487937 1.32585 0.794036 0
M  V30 23 H 2.45433 -2.94182 -0.529414 0
M  V30 24 H -4.19183 -1.61111 1.54033 0
M  V30 25 H -5.15138 0.247823 0.320476 0
M  V30 26 H -0.848129 2.40613 -0.922012 0
M  V30 27 H -0.681834 1.11385 -2.14037 0
M  V30 28 H -4.64792 1.94344 -1.86034 0
M  V30 29 H -3.47244 2.97895 -1.02835 0
M  V30 END ATOM
M  V30 BEGIN BOND
M  V30 1 1 1 2
M  V30 2 1 2 3
M  V30 3 2 3 4
M  V30 4 1 4 5
M  V30 5 2 5 6
M  V30 6 1 6 7
M  V30 7 2 7 8
M  V30 8 1 7 9
M  V30 9 1 6 10
M  V30 10 2 10 11
M  V30 11 1 11 12
M  V30 12 2 12 13
M  V30 13 1 13 14
M  V30 14 2 14 15
M  V30 15 1 15 16
M  V30 16 1 14 17
M  V30 17 1 8 3
M  V30 18 1 15 10
M  V30 19 1 1 18
M  V30 20 1 1 19
M  V30 21 1 1 20
M  V30 22 1 4 21
M  V30 23 1 5 22
M  V30 24 1 8 23
M  V30 25 1 12 24
M  V30 26 1 13 25
M  V30 27 1 16 26
M  V30 28 1 16 27
M  V30 29 1 17 28
M  V30 30 1 17 29
M  V30 END BOND
M  V30 END CTAB
M  END
