
     RDKit          3D

  0  0  0  0  0  0  0  0  0  0999 V3000
M  V30 BEGIN CTAB
M  V30 COUNTS 21 22 0 0 0
M  V30 BEGIN ATOM
M  V30 1 Cl 5.3269 1.0366 1.92648 0
M  V30 2 C 4.35094 0.50161 0.53487 0
M  V30 3 C 4.62886 0.967452 -0.722932 0
M  V30 4 S 3.41727 0.151321 -1.6489 0
M  V30 5 C 2.66812 -0.700871 -0.387548 0
M  V30 6 N 3.36598 -0.329708 0.66769 0
M  V30 7 S 1.29223 -1.82295 -0.409402 0
M  V30 8 C -0.263396 -0.987754 -0.189107 0
M  V30 9 N -1.35891 -1.7677 -0.193537 0
M  V30 10 C -2.61204 -1.29984 -0.0399479 0
M  V30 11 N -3.75509 -2.12839 -0.0463481 0
M  V30 12 C -2.7464 0.0700532 0.130478 0
M  V30 13 C -1.61586 0.860953 0.133417 0
M  V30 14 N -0.383088 0.332678 -0.0256131 0
M  V30 15 N -1.815 2.25799 0.312136 0
M  V30 16 H 5.41879 1.67274 -1.03321 0
M  V30 17 H -4.01872 -2.62064 0.821711 0
M  V30 18 H -4.31687 -2.24031 -0.902177 0
M  V30 19 H -3.75282 0.473514 0.257059 0
M  V30 20 H -1.33676 2.97565 -0.236706 0
M  V30 21 H -2.49415 2.5976 1.05159 0
M  V30 END ATOM
M  V30 BEGIN BOND
M  V30 1 1 1 2
M  V30 2 2 2 3
M  V30 3 1 3 4
M  V30 4 1 4 5
M  V30 5 2 5 6
M  V30 6 1 5 7
M  V30 7 1 7 8
M  V30 8 2 8 9
M  V30 9 1 9 10
M  V30 10 1 10 11
M  V30 11 2 10 12
M  V30 12 1 12 13
M  V30 13 2 13 14
M  V30 14 1 13 15
M  V30 15 1 6 2
M  V30 16 1 14 8
M  V30 17 1 3 16
M  V30 18 1 11 17
M  V30 19 1 11 18
M  V30 20 1 12 19
M  V30 21 1 15 20
M  V30 22 1 15 21
M  V30 END BOND
M  V30 END CTAB
M  END
