
     RDKit          3D

  0  0  0  0  0  0  0  0  0  0999 V3000
M  V30 BEGIN CTAB
M  V30 COUNTS 26 27 0 0 0
M  V30 BEGIN ATOM
M  V30 1 N -3.16685 1.70908 0.314743 0
M  V30 2 N -3.12568 0.305191 0.255893 0
M  V30 3 C -4.20579 -0.481876 0.320651 0
M  V30 4 N -5.56949 -0.0862963 0.457048 0
M  V30 5 N -3.72575 -1.75048 0.228229 0
M  V30 6 N -2.40361 -1.70998 0.112663 0
M  V30 7 C -2.00659 -0.424129 0.12805 0
M  V30 8 S -0.342776 0.237391 0.0066478 0
M  V30 9 C 0.860015 -1.08091 -0.15181 0
M  V30 10 C 2.21395 -0.472736 -0.247714 0
M  V30 11 C 2.77717 -0.126428 -1.47327 0
M  V30 12 C 4.02209 0.434104 -1.57826 0
M  V30 13 C 4.76609 0.675061 -0.446212 0
M  V30 14 C 4.23905 0.34337 0.79749 0
M  V30 15 C 2.98347 -0.219075 0.866741 0
M  V30 16 H -2.68695 2.21267 -0.469168 0
M  V30 17 H -3.63131 2.2383 1.06755 0
M  V30 18 H -6.16495 -0.338975 1.27063 0
M  V30 19 H -5.98695 0.488718 -0.30575 0
M  V30 20 H 0.79682 -1.80842 0.682174 0
M  V30 21 H 0.621434 -1.67888 -1.07802 0
M  V30 22 H 2.1647 -0.32918 -2.34944 0
M  V30 23 H 4.39383 0.676216 -2.55913 0
M  V30 24 H 5.7613 1.12175 -0.512168 0
M  V30 25 H 4.85464 0.548205 1.66471 0
M  V30 26 H 2.56215 -0.482689 1.84135 0
M  V30 END ATOM
M  V30 BEGIN BOND
M  V30 1 1 1 2
M  V30 2 1 2 3
M  V30 3 1 3 4
M  V30 4 2 3 5
M  V30 5 1 5 6
M  V30 6 2 6 7
M  V30 7 1 7 8
M  V30 8 1 8 9
M  V30 9 1 9 10
M  V30 10 2 10 11
M  V30 11 1 11 12
M  V30 12 2 12 13
M  V30 13 1 13 14
M  V30 14 2 14 15
M  V30 15 1 7 2
M  V30 16 1 15 10
M  V30 17 1 1 16
M  V30 18 1 1 17
M  V30 19 1 4 18
M  V30 20 1 4 19
M  V30 21 1 9 20
M  V30 22 1 9 21
M  V30 23 1 11 22
M  V30 24 1 12 23
M  V30 25 1 13 24
M  V30 26 1 14 25
M  V30 27 1 15 26
M  V30 END BOND
M  V30 END CTAB
M  END
