
     RDKit          3D

  0  0  0  0  0  0  0  0  0  0999 V3000
M  V30 BEGIN CTAB
M  V30 COUNTS 46 48 0 0 0
M  V30 BEGIN ATOM
M  V30 1 N 6.58964 1.32354 0.49551 0
M  V30 2 C 5.49872 0.639021 1.02217 0 CFG=2
M  V30 3 C 4.83537 -0.367109 0.0713096 0
M  V30 4 C 3.51436 0.0335785 0.712191 0 CFG=1
M  V30 5 C 4.16472 1.39564 0.993507 0
M  V30 6 C 2.37457 0.0925108 -0.203807 0
M  V30 7 C 1.21751 -0.576844 0.118751 0
M  V30 8 C 0.0959512 -0.563498 -0.705838 0
M  V30 9 N -1.09084 -1.26307 -0.352636 0
M  V30 10 C -1.18296 -2.00595 0.857381 0
M  V30 11 C -2.53785 -2.48652 1.1891 0
M  V30 12 C -3.54492 -1.45602 1.51783 0
M  V30 13 N -3.87665 -0.462846 0.573831 0
M  V30 14 C -3.34291 0.911293 0.499057 0
M  V30 15 C -4.68951 1.66456 0.458412 0
M  V30 16 C -5.37005 0.877919 -0.653143 0
M  V30 17 C -4.84826 -0.516297 -0.468884 0
M  V30 18 O -5.17937 -1.54099 -1.08975 0
M  V30 19 N 0.199013 0.143169 -1.84586 0
M  V30 20 C 1.32338 0.813353 -2.19322 0
M  V30 21 N 2.37717 0.771016 -1.36727 0
M  V30 22 N 1.38895 1.55185 -3.41466 0
M  V30 23 H 7.07939 0.837641 -0.22142 0
M  V30 24 H 7.18442 1.77389 1.16411 0
M  V30 25 H 5.62789 0.184431 2.03452 0
M  V30 26 H 5.14646 -1.4048 0.250186 0
M  V30 27 H 4.94732 0.00483077 -0.971932 0
M  V30 28 H 3.32491 -0.563146 1.60204 0
M  V30 29 H 3.83072 1.76344 1.96733 0
M  V30 30 H 4.02198 2.04327 0.12596 0
M  V30 31 H 1.13805 -1.14306 1.03444 0
M  V30 32 H -1.87893 -1.23869 -1.02115 0
M  V30 33 H -0.490407 -2.88478 0.764095 0
M  V30 34 H -0.785949 -1.34902 1.6809 0
M  V30 35 H -2.48153 -3.16001 2.11634 0
M  V30 36 H -2.92495 -3.22064 0.417108 0
M  V30 37 H -4.50027 -1.96669 1.89466 0
M  V30 38 H -3.15912 -0.94339 2.46328 0
M  V30 39 H -2.75292 1.17913 1.3689 0
M  V30 40 H -2.8794 1.0852 -0.486746 0
M  V30 41 H -5.20893 1.54734 1.42299 0
M  V30 42 H -4.47537 2.69951 0.20423 0
M  V30 43 H -5.05019 1.21428 -1.64215 0
M  V30 44 H -6.46434 0.918247 -0.537398 0
M  V30 45 H 1.17465 2.57041 -3.47468 0
M  V30 46 H 1.66048 1.07429 -4.29846 0
M  V30 END ATOM
M  V30 BEGIN BOND
M  V30 1 1 1 2
M  V30 2 1 2 3
M  V30 3 1 3 4
M  V30 4 1 4 5
M  V30 5 1 4 6
M  V30 6 2 6 7
M  V30 7 1 7 8
M  V30 8 1 8 9
M  V30 9 1 9 10
M  V30 10 1 10 11
M  V30 11 1 11 12
M  V30 12 1 12 13
M  V30 13 1 13 14
M  V30 14 1 14 15
M  V30 15 1 15 16
M  V30 16 1 16 17
M  V30 17 2 17 18
M  V30 18 2 8 19
M  V30 19 1 19 20
M  V30 20 2 20 21
M  V30 21 1 20 22
M  V30 22 1 5 2
M  V30 23 1 21 6
M  V30 24 1 17 13
M  V30 25 1 1 23
M  V30 26 1 1 24
M  V30 27 1 2 25 CFG=1
M  V30 28 1 3 26
M  V30 29 1 3 27
M  V30 30 1 4 28 CFG=1
M  V30 31 1 5 29
M  V30 32 1 5 30
M  V30 33 1 7 31
M  V30 34 1 9 32
M  V30 35 1 10 33
M  V30 36 1 10 34
M  V30 37 1 11 35
M  V30 38 1 11 36
M  V30 39 1 12 37
M  V30 40 1 12 38
M  V30 41 1 14 39
M  V30 42 1 14 40
M  V30 43 1 15 41
M  V30 44 1 15 42
M  V30 45 1 16 43
M  V30 46 1 16 44
M  V30 47 1 22 45
M  V30 48 1 22 46
M  V30 END BOND
M  V30 END CTAB
M  END
