
     RDKit          3D

  0  0  0  0  0  0  0  0  0  0999 V3000
M  V30 BEGIN CTAB
M  V30 COUNTS 41 43 0 0 0
M  V30 BEGIN ATOM
M  V30 1 C -1.53661 -1.92987 2.54038 0
M  V30 2 C -1.06256 -2.11407 1.11177 0
M  V30 3 C -2.30342 -1.92152 0.225694 0
M  V30 4 C -2.24416 -0.448212 0.0472102 0
M  V30 5 C -0.770915 -0.274076 -0.313486 0
M  V30 6 N -0.146299 -1.02539 0.728901 0
M  V30 7 C 1.15033 -1.57528 0.392398 0
M  V30 8 C 2.15025 -0.562575 0.000680901 0
M  V30 9 N 2.90839 0.118151 0.90724 0
M  V30 10 C 3.81932 1.03265 0.528895 0
M  V30 11 N 4.61602 1.74907 1.46495 0
M  V30 12 N 4.01161 1.30613 -0.773361 0
M  V30 13 C 3.27947 0.651204 -1.68622 0
M  V30 14 N 2.37852 -0.254812 -1.28851 0
M  V30 15 N 3.49238 0.948782 -3.04901 0
M  V30 16 C -0.516837 1.20562 -0.286656 0
M  V30 17 C -1.74964 2.03183 -0.0538683 0
M  V30 18 C -2.90725 1.64442 -0.936146 0
M  V30 19 C -3.06503 0.133275 -1.03478 0
M  V30 20 H -1.61548 -2.96785 2.97031 0
M  V30 21 H -2.55742 -1.50933 2.5993 0
M  V30 22 H -0.855724 -1.29176 3.12647 0
M  V30 23 H -0.591234 -3.09052 0.942651 0
M  V30 24 H -2.15262 -2.47834 -0.696917 0
M  V30 25 H -3.2177 -2.26422 0.748942 0
M  V30 26 H -2.43678 0.0586541 1.01116 0
M  V30 27 H -0.578561 -0.735512 -1.30223 0
M  V30 28 H 1.49806 -2.14055 1.27265 0
M  V30 29 H 0.996391 -2.30232 -0.418981 0
M  V30 30 H 5.17164 1.20596 2.15359 0
M  V30 31 H 4.65987 2.80112 1.4817 0
M  V30 32 H 4.32739 0.62591 -3.57371 0
M  V30 33 H 2.79175 1.51456 -3.56265 0
M  V30 34 H -0.0582153 1.53953 -1.22539 0
M  V30 35 H 0.18487 1.41485 0.543824 0
M  V30 36 H -1.4867 3.08646 -0.320458 0
M  V30 37 H -2.0045 2.05026 1.02516 0
M  V30 38 H -3.82978 2.01502 -0.442229 0
M  V30 39 H -2.86083 2.12996 -1.93159 0
M  V30 40 H -2.76379 -0.201931 -2.03149 0
M  V30 41 H -4.12421 -0.175281 -0.896204 0
M  V30 END ATOM
M  V30 BEGIN BOND
M  V30 1 1 1 2
M  V30 2 1 2 3
M  V30 3 1 3 4
M  V30 4 1 4 5
M  V30 5 1 5 6
M  V30 6 1 6 7
M  V30 7 1 7 8
M  V30 8 2 8 9
M  V30 9 1 9 10
M  V30 10 1 10 11
M  V30 11 2 10 12
M  V30 12 1 12 13
M  V30 13 2 13 14
M  V30 14 1 13 15
M  V30 15 1 5 16
M  V30 16 1 16 17
M  V30 17 1 17 18
M  V30 18 1 18 19
M  V30 19 1 6 2
M  V30 20 1 14 8
M  V30 21 1 19 4
M  V30 22 1 1 20
M  V30 23 1 1 21
M  V30 24 1 1 22
M  V30 25 1 2 23
M  V30 26 1 3 24
M  V30 27 1 3 25
M  V30 28 1 4 26
M  V30 29 1 5 27
M  V30 30 1 7 28
M  V30 31 1 7 29
M  V30 32 1 11 30
M  V30 33 1 11 31
M  V30 34 1 15 32
M  V30 35 1 15 33
M  V30 36 1 16 34
M  V30 37 1 16 35
M  V30 38 1 17 36
M  V30 39 1 17 37
M  V30 40 1 18 38
M  V30 41 1 18 39
M  V30 42 1 19 40
M  V30 43 1 19 41
M  V30 END BOND
M  V30 END CTAB
M  END
