
     RDKit          3D

  0  0  0  0  0  0  0  0  0  0999 V3000
M  V30 BEGIN CTAB
M  V30 COUNTS 30 30 0 0 0
M  V30 BEGIN ATOM
M  V30 1 N 4.34249 0.267928 -0.292107 0
M  V30 2 C 3.1153 0.700627 0.275383 0
M  V30 3 C 2.08027 -0.362385 0.105939 0
M  V30 4 N 0.815231 0.028969 0.664415 0
M  V30 5 C 0.175966 1.10037 -0.0445815 0
M  V30 6 C -1.12227 1.42929 0.659666 0
M  V30 7 C -2.29684 0.812555 -0.070298 0
M  V30 8 C -2.40606 -0.62274 0.414335 0 CFG=2
M  V30 9 C -1.12775 -1.31414 -0.0248047 0
M  V30 10 C -0.0402156 -1.07126 0.975453 0
M  V30 11 N -3.58666 -1.27275 -0.111874 0
M  V30 12 H 4.54255 -0.693275 -0.169338 0
M  V30 13 H 4.67335 0.676172 -1.12093 0
M  V30 14 H 2.7833 1.5975 -0.298704 0
M  V30 15 H 3.2361 0.969237 1.34944 0
M  V30 16 H 1.9671 -0.640822 -0.949501 0
M  V30 17 H 2.42567 -1.25363 0.697103 0
M  V30 18 H 0.818108 2.00127 0.0571137 0
M  V30 19 H 0.0276627 0.900455 -1.11293 0
M  V30 20 H -1.27717 2.52121 0.766205 0
M  V30 21 H -1.11134 1.02239 1.69341 0
M  V30 22 H -2.00922 0.787254 -1.15836 0
M  V30 23 H -3.2256 1.38168 0.0566792 0
M  V30 24 H -2.42654 -0.586232 1.52313 0
M  V30 25 H -1.34256 -2.40801 -0.0557295 0
M  V30 26 H -0.821363 -0.984198 -1.04529 0
M  V30 27 H 0.603472 -1.98696 1.05349 0
M  V30 28 H -0.488575 -0.895817 1.97335 0
M  V30 29 H -4.26045 -1.3998 0.687787 0
M  V30 30 H -4.06397 -0.704887 -0.832855 0
M  V30 END ATOM
M  V30 BEGIN BOND
M  V30 1 1 1 2
M  V30 2 1 2 3
M  V30 3 1 3 4
M  V30 4 1 4 5
M  V30 5 1 5 6
M  V30 6 1 6 7
M  V30 7 1 7 8
M  V30 8 1 8 9
M  V30 9 1 9 10
M  V30 10 1 8 11
M  V30 11 1 10 4
M  V30 12 1 1 12
M  V30 13 1 1 13
M  V30 14 1 2 14
M  V30 15 1 2 15
M  V30 16 1 3 16
M  V30 17 1 3 17
M  V30 18 1 5 18
M  V30 19 1 5 19
M  V30 20 1 6 20
M  V30 21 1 6 21
M  V30 22 1 7 22
M  V30 23 1 7 23
M  V30 24 1 8 24 CFG=1
M  V30 25 1 9 25
M  V30 26 1 9 26
M  V30 27 1 10 27
M  V30 28 1 10 28
M  V30 29 1 11 29
M  V30 30 1 11 30
M  V30 END BOND
M  V30 END CTAB
M  END
