
     RDKit          3D

  0  0  0  0  0  0  0  0  0  0999 V3000
M  V30 BEGIN CTAB
M  V30 COUNTS 40 41 0 0 0
M  V30 BEGIN ATOM
M  V30 1 N -4.66552 1.9336 -0.864453 0
M  V30 2 C -3.96719 0.88484 -0.114881 0
M  V30 3 C -2.51034 1.03015 -0.425944 0
M  V30 4 N -1.66366 0.0837918 0.239544 0
M  V30 5 C -1.88005 -1.28941 -0.177452 0
M  V30 6 C -1.57323 -2.2116 0.990704 0
M  V30 7 C -0.131614 -2.53091 1.11953 0
M  V30 8 C 0.792058 -1.74493 0.290161 0
M  V30 9 C 0.761008 -0.274708 0.391608 0 CFG=2
M  V30 10 C -0.302415 0.390998 -0.350485 0
M  V30 11 C 2.10027 0.324602 0.379293 0
M  V30 12 C 2.74283 0.744837 1.5386 0
M  V30 13 C 3.94678 1.38777 1.53013 0
M  V30 14 C 4.53102 1.62374 0.311668 0
M  V30 15 C 3.92875 1.22822 -0.859056 0
M  V30 16 C 2.72503 0.583321 -0.838488 0
M  V30 17 N 2.16226 0.101795 -2.03155 0
M  V30 18 H -4.35124 2.84814 -0.542574 0
M  V30 19 H -4.45029 1.86837 -1.89369 0
M  V30 20 H -4.37704 -0.067869 -0.582019 0
M  V30 21 H -4.25499 0.997897 0.936368 0
M  V30 22 H -2.22029 2.04662 -0.0280162 0
M  V30 23 H -2.37044 1.07527 -1.51907 0
M  V30 24 H -2.91511 -1.49078 -0.504555 0
M  V30 25 H -1.24099 -1.58539 -1.03087 0
M  V30 26 H -1.97555 -1.74216 1.92478 0
M  V30 27 H -2.12686 -3.15115 0.800238 0
M  V30 28 H 0.074848 -3.62163 0.882681 0
M  V30 29 H 0.173274 -2.44644 2.20593 0
M  V30 30 H 0.746825 -2.1114 -0.770456 0
M  V30 31 H 1.84945 -2.05545 0.589605 0
M  V30 32 H 0.425344 -0.0933856 1.53057 0
M  V30 33 H -0.397012 0.186175 -1.42077 0
M  V30 34 H -0.212448 1.5035 -0.188134 0
M  V30 35 H 2.28457 0.558059 2.51767 0
M  V30 36 H 4.44191 1.73345 2.44958 0
M  V30 37 H 5.49408 2.12981 0.280072 0
M  V30 38 H 4.39765 1.40323 -1.85023 0
M  V30 39 H 2.48123 -0.886284 -2.30257 0
M  V30 40 H 1.5271 0.635306 -2.61345 0
M  V30 END ATOM
M  V30 BEGIN BOND
M  V30 1 1 1 2
M  V30 2 1 2 3
M  V30 3 1 3 4
M  V30 4 1 4 5
M  V30 5 1 5 6
M  V30 6 1 6 7
M  V30 7 1 7 8
M  V30 8 1 8 9
M  V30 9 1 9 10
M  V30 10 1 9 11
M  V30 11 2 11 12
M  V30 12 1 12 13
M  V30 13 2 13 14
M  V30 14 1 14 15
M  V30 15 2 15 16
M  V30 16 1 16 17
M  V30 17 1 10 4
M  V30 18 1 16 11
M  V30 19 1 1 18
M  V30 20 1 1 19
M  V30 21 1 2 20
M  V30 22 1 2 21
M  V30 23 1 3 22
M  V30 24 1 3 23
M  V30 25 1 5 24
M  V30 26 1 5 25
M  V30 27 1 6 26
M  V30 28 1 6 27
M  V30 29 1 7 28
M  V30 30 1 7 29
M  V30 31 1 8 30
M  V30 32 1 8 31
M  V30 33 1 9 32 CFG=1
M  V30 34 1 10 33
M  V30 35 1 10 34
M  V30 36 1 12 35
M  V30 37 1 13 36
M  V30 38 1 14 37
M  V30 39 1 15 38
M  V30 40 1 17 39
M  V30 41 1 17 40
M  V30 END BOND
M  V30 END CTAB
M  END
