
     RDKit          3D

  0  0  0  0  0  0  0  0  0  0999 V3000
M  V30 BEGIN CTAB
M  V30 COUNTS 36 37 0 0 0
M  V30 BEGIN ATOM
M  V30 1 O -0.502844 -0.00340734 -3.12015 0
M  V30 2 C 0.0202693 -0.480335 -2.10394 0
M  V30 3 N -0.669192 -0.66426 -0.907313 0
M  V30 4 C -2.0086 -0.361195 -0.630426 0
M  V30 5 C -2.54854 -0.824157 0.578234 0
M  V30 6 C -3.85391 -0.54359 0.903838 0
M  V30 7 C -4.68578 0.183671 0.0939632 0
M  V30 8 C -4.16087 0.639684 -1.09172 0
M  V30 9 C -2.82822 0.357788 -1.43215 0
M  V30 10 O -6.00982 0.463064 0.433474 0
M  V30 11 C -6.25655 1.64895 1.16074 0
M  V30 12 F -5.5568 1.57545 2.35731 0
M  V30 13 F -5.8009 2.76734 0.504223 0
M  V30 14 F -7.60611 1.79074 1.36204 0
M  V30 15 C 1.44869 -0.857784 -2.21873 0
M  V30 16 O 1.8766 -1.3512 -0.965422 0
M  V30 17 N 3.16797 -1.78109 -0.862556 0
M  V30 18 C 4.00305 -1.1281 -0.134859 0
M  V30 19 C 3.59294 0.0684682 0.585314 0
M  V30 20 N 2.38964 0.659653 0.624864 0
M  V30 21 O 2.41866 1.69859 1.37182 0
M  V30 22 N 3.61347 1.83577 1.84683 0
M  V30 23 C 4.40102 0.841572 1.38969 0
M  V30 24 N 5.76136 0.585426 1.63771 0
M  V30 25 N 5.36592 -1.55506 -0.0073066 0
M  V30 26 H -0.0625036 -1.09626 -0.105293 0
M  V30 27 H -1.9099 -1.40913 1.24812 0
M  V30 28 H -4.25953 -0.906733 1.84035 0
M  V30 29 H -4.77999 1.22199 -1.77058 0
M  V30 30 H -2.50078 0.760839 -2.37415 0
M  V30 31 H 2.08009 0.0139462 -2.52761 0
M  V30 32 H 1.59973 -1.69215 -2.95145 0
M  V30 33 H 6.46467 0.630987 0.867223 0
M  V30 34 H 6.03215 0.346558 2.63572 0
M  V30 35 H 5.67753 -2.13383 0.800281 0
M  V30 36 H 6.08706 -1.30221 -0.714411 0
M  V30 END ATOM
M  V30 BEGIN BOND
M  V30 1 2 1 2
M  V30 2 1 2 3
M  V30 3 1 3 4
M  V30 4 2 4 5
M  V30 5 1 5 6
M  V30 6 2 6 7
M  V30 7 1 7 8
M  V30 8 2 8 9
M  V30 9 1 7 10
M  V30 10 1 10 11
M  V30 11 1 11 12
M  V30 12 1 11 13
M  V30 13 1 11 14
M  V30 14 1 2 15
M  V30 15 1 15 16
M  V30 16 1 16 17
M  V30 17 2 17 18
M  V30 18 1 18 19
M  V30 19 2 19 20
M  V30 20 1 20 21
M  V30 21 1 21 22
M  V30 22 2 22 23
M  V30 23 1 23 24
M  V30 24 1 18 25
M  V30 25 1 9 4
M  V30 26 1 23 19
M  V30 27 1 3 26
M  V30 28 1 5 27
M  V30 29 1 6 28
M  V30 30 1 8 29
M  V30 31 1 9 30
M  V30 32 1 15 31
M  V30 33 1 15 32
M  V30 34 1 24 33
M  V30 35 1 24 34
M  V30 36 1 25 35
M  V30 37 1 25 36
M  V30 END BOND
M  V30 END CTAB
M  END
