
     RDKit          3D

  0  0  0  0  0  0  0  0  0  0999 V3000
M  V30 BEGIN CTAB
M  V30 COUNTS 37 38 0 0 0
M  V30 BEGIN ATOM
M  V30 1 O -3.30192 0.15765 0.676547 0
M  V30 2 C -2.37151 0.983305 0.411325 0
M  V30 3 C -1.09214 0.482578 -0.178626 0
M  V30 4 C -1.14516 -0.990768 -0.359229 0
M  V30 5 C -1.06221 -1.57664 -1.60102 0
M  V30 6 C -1.11463 -2.95056 -1.73398 0
M  V30 7 C -1.25062 -3.76061 -0.629679 0
M  V30 8 C -1.33291 -3.16529 0.609714 0
M  V30 9 C -1.28099 -1.81251 0.73701 0
M  V30 10 S 0.232392 0.971818 0.951481 0
M  V30 11 C 1.83245 0.432723 0.36825 0
M  V30 12 N 2.58089 1.20578 -0.439546 0
M  V30 13 C 3.80079 0.795164 -0.884162 0
M  V30 14 N 4.57173 1.62154 -1.73207 0
M  V30 15 N 4.25976 -0.394793 -0.510949 0
M  V30 16 C 3.5405 -1.21354 0.30498 0
M  V30 17 N 2.34857 -0.761692 0.712961 0
M  V30 18 N 4.07419 -2.47075 0.673038 0
M  V30 19 N -2.60002 2.34131 0.691457 0
M  V30 20 C -3.8446 2.77407 1.25827 0
M  V30 21 C -1.57731 3.31152 0.408146 0
M  V30 22 H -0.97707 0.9721 -1.16611 0
M  V30 23 H -0.954445 -0.964951 -2.49278 0
M  V30 24 H -1.0505 -3.43408 -2.71109 0
M  V30 25 H -1.29373 -4.85752 -0.72012 0
M  V30 26 H -1.4404 -3.78162 1.49529 0
M  V30 27 H -1.35219 -1.40077 1.7545 0
M  V30 28 H 4.73444 1.40746 -2.74831 0
M  V30 29 H 4.98891 2.47892 -1.30668 0
M  V30 30 H 4.94605 -2.54542 1.22716 0
M  V30 31 H 3.58891 -3.33894 0.386348 0
M  V30 32 H -4.12143 3.8113 0.952016 0
M  V30 33 H -4.65289 2.05607 1.01317 0
M  V30 34 H -3.75629 2.78076 2.36334 0
M  V30 35 H -0.932573 3.41272 1.30694 0
M  V30 36 H -2.01566 4.3387 0.251462 0
M  V30 37 H -0.978374 3.08499 -0.481766 0
M  V30 END ATOM
M  V30 BEGIN BOND
M  V30 1 2 1 2
M  V30 2 1 2 3
M  V30 3 1 3 4
M  V30 4 2 4 5
M  V30 5 1 5 6
M  V30 6 2 6 7
M  V30 7 1 7 8
M  V30 8 2 8 9
M  V30 9 1 3 10
M  V30 10 1 10 11
M  V30 11 2 11 12
M  V30 12 1 12 13
M  V30 13 1 13 14
M  V30 14 2 13 15
M  V30 15 1 15 16
M  V30 16 2 16 17
M  V30 17 1 16 18
M  V30 18 1 2 19
M  V30 19 1 19 20
M  V30 20 1 19 21
M  V30 21 1 9 4
M  V30 22 1 17 11
M  V30 23 1 3 22
M  V30 24 1 5 23
M  V30 25 1 6 24
M  V30 26 1 7 25
M  V30 27 1 8 26
M  V30 28 1 9 27
M  V30 29 1 14 28
M  V30 30 1 14 29
M  V30 31 1 18 30
M  V30 32 1 18 31
M  V30 33 1 20 32
M  V30 34 1 20 33
M  V30 35 1 20 34
M  V30 36 1 21 35
M  V30 37 1 21 36
M  V30 38 1 21 37
M  V30 END BOND
M  V30 END CTAB
M  END
