
     RDKit          3D

  0  0  0  0  0  0  0  0  0  0999 V3000
M  V30 BEGIN CTAB
M  V30 COUNTS 42 44 0 0 0
M  V30 BEGIN ATOM
M  V30 1 C 1.3136 -2.51887 -2.60414 0
M  V30 2 O 1.02763 -1.59457 -1.60064 0
M  V30 3 C 1.98971 -0.990552 -0.809082 0
M  V30 4 C 3.34052 -1.3216 -1.02097 0
M  V30 5 C 4.30568 -0.736449 -0.250247 0
M  V30 6 C 4.02001 0.171774 0.735244 0
M  V30 7 C 2.7055 0.497552 0.945518 0
M  V30 8 C 1.6732 -0.086784 0.167768 0
M  V30 9 C 0.307061 0.298229 0.438393 0
M  V30 10 O 0.165742 1.17317 1.40359 0
M  V30 11 N -0.85194 -0.136212 -0.186137 0
M  V30 12 C -2.18368 0.363703 0.217491 0 CFG=2
M  V30 13 C -3.09016 -0.829957 0.437683 0 CFG=1
M  V30 14 N -3.42488 -1.07226 1.82553 0
M  V30 15 C -4.14157 -0.12153 -0.361944 0 CFG=2
M  V30 16 C -3.05953 0.75748 -0.93413 0 CFG=1
M  V30 17 O -3.50359 2.04541 -0.949536 0
M  V30 18 C -4.77441 2.11309 -0.452394 0
M  V30 19 C -4.99524 0.862953 0.387592 0
M  V30 20 S 5.28676 0.886137 1.6866 0
M  V30 21 O 4.77945 1.16409 3.08418 0
M  V30 22 O 6.44237 -0.0572171 1.81717 0
M  V30 23 N 5.8533 2.34474 0.937544 0
M  V30 24 H 1.84923 -2.08589 -3.47875 0
M  V30 25 H 1.99332 -3.31096 -2.18372 0
M  V30 26 H 0.349962 -2.9893 -2.93477 0
M  V30 27 H 3.55138 -2.04597 -1.80898 0
M  V30 28 H 5.35264 -1.00004 -0.422331 0
M  V30 29 H 2.4354 1.22033 1.72473 0
M  V30 30 H -0.894566 -0.810665 -0.94808 0
M  V30 31 H -2.13127 1.08827 1.03672 0
M  V30 32 H -2.7575 -1.74035 -0.0963578 0
M  V30 33 H -2.64042 -1.67942 2.20775 0
M  V30 34 H -4.2679 -1.69588 1.83829 0
M  V30 35 H -4.67889 -0.750429 -1.10223 0
M  V30 36 H -2.66168 0.380133 -1.91381 0
M  V30 37 H -4.98112 3.02143 0.162209 0
M  V30 38 H -5.52295 2.04355 -1.29026 0
M  V30 39 H -4.58074 1.06616 1.38947 0
M  V30 40 H -6.06513 0.573722 0.410768 0
M  V30 41 H 5.55854 3.13575 1.55386 0
M  V30 42 H 6.90616 2.36724 0.940975 0
M  V30 END ATOM
M  V30 BEGIN BOND
M  V30 1 1 1 2
M  V30 2 1 2 3
M  V30 3 2 3 4
M  V30 4 1 4 5
M  V30 5 2 5 6
M  V30 6 1 6 7
M  V30 7 2 7 8
M  V30 8 1 8 9
M  V30 9 2 9 10
M  V30 10 1 9 11
M  V30 11 1 11 12
M  V30 12 1 12 13
M  V30 13 1 13 14
M  V30 14 1 13 15
M  V30 15 1 15 16
M  V30 16 1 16 17
M  V30 17 1 17 18
M  V30 18 1 18 19
M  V30 19 1 6 20
M  V30 20 2 20 21
M  V30 21 2 20 22
M  V30 22 1 20 23
M  V30 23 1 8 3
M  V30 24 1 16 12
M  V30 25 1 19 15
M  V30 26 1 1 24
M  V30 27 1 1 25
M  V30 28 1 1 26
M  V30 29 1 4 27
M  V30 30 1 5 28
M  V30 31 1 7 29
M  V30 32 1 11 30
M  V30 33 1 12 31 CFG=1
M  V30 34 1 13 32 CFG=3
M  V30 35 1 14 33
M  V30 36 1 14 34
M  V30 37 1 15 35 CFG=3
M  V30 38 1 16 36 CFG=3
M  V30 39 1 18 37
M  V30 40 1 18 38
M  V30 41 1 19 39
M  V30 42 1 19 40
M  V30 43 1 23 41
M  V30 44 1 23 42
M  V30 END BOND
M  V30 END CTAB
M  END
