
     RDKit          3D

  0  0  0  0  0  0  0  0  0  0999 V3000
M  V30 BEGIN CTAB
M  V30 COUNTS 47 49 0 0 0
M  V30 BEGIN ATOM
M  V30 1 C 1.53356 0.692772 1.34679 0
M  V30 2 N 0.955724 -0.284985 0.507007 0
M  V30 3 C -0.272581 -0.798453 0.919497 0
M  V30 4 C -1.11213 -1.43502 -0.11821 0
M  V30 5 C -0.787374 -2.59691 -0.722645 0
M  V30 6 C -1.58116 -3.14595 -1.69637 0
M  V30 7 C -2.7136 -2.51557 -2.05841 0
M  V30 8 C -3.08308 -1.34519 -1.4632 0
M  V30 9 C -2.27163 -0.772574 -0.446847 0
M  V30 10 N -2.7863 0.390491 0.179651 0
M  V30 11 C -2.11502 1.61337 0.355412 0
M  V30 12 C -3.21934 2.7123 0.442459 0
M  V30 13 O -3.913 2.45827 1.60159 0
M  V30 14 C -4.63786 1.28896 1.56724 0
M  V30 15 C -4.20493 0.317461 0.535052 0
M  V30 16 C 1.45841 -0.439423 -0.804476 0
M  V30 17 C 2.98133 -0.266865 -0.714024 0
M  V30 18 N 3.63127 -0.934113 0.197003 0
M  V30 19 C 4.92904 -0.70196 0.461159 0
M  V30 20 N 5.53271 -1.27719 1.62819 0
M  V30 21 N 5.55774 0.25717 -0.251413 0
M  V30 22 C 4.90573 0.947667 -1.2064 0
M  V30 23 N 3.60256 0.678354 -1.44662 0
M  V30 24 N 5.56078 2.02378 -1.87002 0
M  V30 25 H 0.725105 0.972625 2.09508 0
M  V30 26 H 2.40821 0.373487 1.90981 0
M  V30 27 H 1.70555 1.64045 0.813628 0
M  V30 28 H 0.145259 -1.79713 1.53786 0
M  V30 29 H -0.766347 -0.312397 1.71089 0
M  V30 30 H 0.0898305 -3.20232 -0.420981 0
M  V30 31 H -1.3258 -4.1254 -2.12196 0
M  V30 32 H -3.31177 -2.89982 -2.91264 0
M  V30 33 H -3.9703 -0.776729 -1.73329 0
M  V30 34 H -1.52748 1.90146 -0.569595 0
M  V30 35 H -1.54515 1.76125 1.28289 0
M  V30 36 H -3.8463 2.6563 -0.468352 0
M  V30 37 H -2.7046 3.66011 0.467217 0
M  V30 38 H -5.7035 1.58421 1.33909 0
M  V30 39 H -4.66548 0.853611 2.61179 0
M  V30 40 H -4.69774 0.684512 -0.436183 0
M  V30 41 H -4.5629 -0.686709 0.739314 0
M  V30 42 H 1.09164 0.274587 -1.50577 0
M  V30 43 H 1.37562 -1.462 -1.252 0
M  V30 44 H 5.85929 -0.574584 2.36398 0
M  V30 45 H 5.63114 -2.26363 1.81789 0
M  V30 46 H 5.09201 2.5888 -2.5919 0
M  V30 47 H 6.55289 2.28293 -1.61919 0
M  V30 END ATOM
M  V30 BEGIN BOND
M  V30 1 1 1 2
M  V30 2 1 2 3
M  V30 3 1 3 4
M  V30 4 2 4 5
M  V30 5 1 5 6
M  V30 6 2 6 7
M  V30 7 1 7 8
M  V30 8 2 8 9
M  V30 9 1 9 10
M  V30 10 1 10 11
M  V30 11 1 11 12
M  V30 12 1 12 13
M  V30 13 1 13 14
M  V30 14 1 14 15
M  V30 15 1 2 16
M  V30 16 1 16 17
M  V30 17 2 17 18
M  V30 18 1 18 19
M  V30 19 1 19 20
M  V30 20 2 19 21
M  V30 21 1 21 22
M  V30 22 2 22 23
M  V30 23 1 22 24
M  V30 24 1 9 4
M  V30 25 1 15 10
M  V30 26 1 23 17
M  V30 27 1 1 25
M  V30 28 1 1 26
M  V30 29 1 1 27
M  V30 30 1 3 28
M  V30 31 1 3 29
M  V30 32 1 5 30
M  V30 33 1 6 31
M  V30 34 1 7 32
M  V30 35 1 8 33
M  V30 36 1 11 34
M  V30 37 1 11 35
M  V30 38 1 12 36
M  V30 39 1 12 37
M  V30 40 1 14 38
M  V30 41 1 14 39
M  V30 42 1 15 40
M  V30 43 1 15 41
M  V30 44 1 16 42
M  V30 45 1 16 43
M  V30 46 1 20 44
M  V30 47 1 20 45
M  V30 48 1 24 46
M  V30 49 1 24 47
M  V30 END BOND
M  V30 END CTAB
M  END
