
     RDKit          3D

  0  0  0  0  0  0  0  0  0  0999 V3000
M  V30 BEGIN CTAB
M  V30 COUNTS 40 43 0 0 0
M  V30 BEGIN ATOM
M  V30 1 N 5.9528 0.565001 -0.645444 0
M  V30 2 C 4.62602 0.0506446 -0.788756 0
M  V30 3 C 3.55939 0.731089 -0.20489 0
M  V30 4 N 3.81074 1.92423 0.527018 0
M  V30 5 C 2.273 0.222594 -0.351711 0
M  V30 6 C 2.03764 -0.934696 -1.05987 0
M  V30 7 C 3.10934 -1.58882 -1.62734 0
M  V30 8 C 4.39399 -1.10479 -1.49587 0
M  V30 9 N 0.793848 -1.42675 -1.20286 0
M  V30 10 C -0.28019 -0.791135 -0.647167 0
M  V30 11 C -1.6283 -1.32508 -0.800173 0
M  V30 12 C -1.89458 -2.59274 -0.251799 0
M  V30 13 C -3.11825 -3.17158 -0.347331 0
M  V30 14 C -4.11144 -2.47995 -1.00402 0
M  V30 15 C -3.89995 -1.23421 -1.5592 0
M  V30 16 C -2.64522 -0.682713 -1.44047 0
M  V30 17 C -0.0536861 0.359458 0.0581237 0
M  V30 18 N 1.22451 0.852546 0.196744 0
M  V30 19 C -1.16901 1.06182 0.659294 0
M  V30 20 C -1.95815 0.508004 1.62846 0
M  V30 21 C -3.01046 1.27425 2.14806 0
M  V30 22 C -3.26762 2.55708 1.71218 0
M  V30 23 C -2.47826 3.10072 0.748207 0
M  V30 24 C -1.43924 2.33947 0.237786 0
M  V30 25 H 6.74103 0.0439062 -1.08679 0
M  V30 26 H 6.15135 1.43336 -0.120554 0
M  V30 27 H 4.11816 2.82271 0.0959958 0
M  V30 28 H 3.6734 1.8781 1.56367 0
M  V30 29 H 2.88452 -2.49686 -2.17676 0
M  V30 30 H 5.18366 -1.6664 -1.96451 0
M  V30 31 H -1.07408 -3.11714 0.265994 0
M  V30 32 H -3.30487 -4.15886 0.0864065 0
M  V30 33 H -5.08157 -2.9723 -1.06275 0
M  V30 34 H -4.68006 -0.717508 -2.06133 0
M  V30 35 H -2.40516 0.296237 -1.86694 0
M  V30 36 H -1.79878 -0.479132 2.00953 0
M  V30 37 H -3.62814 0.849874 2.90216 0
M  V30 38 H -4.09138 3.12605 2.13414 0
M  V30 39 H -2.67989 4.11003 0.405463 0
M  V30 40 H -0.83513 2.83351 -0.539741 0
M  V30 END ATOM
M  V30 BEGIN BOND
M  V30 1 1 1 2
M  V30 2 2 2 3
M  V30 3 1 3 4
M  V30 4 1 3 5
M  V30 5 2 5 6
M  V30 6 1 6 7
M  V30 7 2 7 8
M  V30 8 1 6 9
M  V30 9 2 9 10
M  V30 10 1 10 11
M  V30 11 2 11 12
M  V30 12 1 12 13
M  V30 13 2 13 14
M  V30 14 1 14 15
M  V30 15 2 15 16
M  V30 16 1 10 17
M  V30 17 2 17 18
M  V30 18 1 17 19
M  V30 19 2 19 20
M  V30 20 1 20 21
M  V30 21 2 21 22
M  V30 22 1 22 23
M  V30 23 2 23 24
M  V30 24 1 8 2
M  V30 25 1 16 11
M  V30 26 1 24 19
M  V30 27 1 18 5
M  V30 28 1 1 25
M  V30 29 1 1 26
M  V30 30 1 4 27
M  V30 31 1 4 28
M  V30 32 1 7 29
M  V30 33 1 8 30
M  V30 34 1 12 31
M  V30 35 1 13 32
M  V30 36 1 14 33
M  V30 37 1 15 34
M  V30 38 1 16 35
M  V30 39 1 20 36
M  V30 40 1 21 37
M  V30 41 1 22 38
M  V30 42 1 23 39
M  V30 43 1 24 40
M  V30 END BOND
M  V30 END CTAB
M  END
