
     RDKit          3D

  0  0  0  0  0  0  0  0  0  0999 V3000
M  V30 BEGIN CTAB
M  V30 COUNTS 48 49 0 0 0
M  V30 BEGIN ATOM
M  V30 1 C -5.08865 -1.12963 -0.0913221 0
M  V30 2 C -4.23921 -0.558223 1.00736 0
M  V30 3 N -3.12805 0.206369 0.420581 0
M  V30 4 C -1.91785 -0.462843 0.14162 0
M  V30 5 O -1.82689 -1.68744 0.412306 0
M  V30 6 C -0.726645 0.200177 -0.460548 0 CFG=2
M  V30 7 C -1.02874 0.499678 -1.91924 0
M  V30 8 C -0.118454 -0.391541 -2.7429 0 CFG=1
M  V30 9 C 0.218926 -1.48631 -1.73768 0
M  V30 10 N 0.395794 -0.700638 -0.541278 0
M  V30 11 C 1.48369 -0.823531 0.358434 0
M  V30 12 O 2.41478 -1.67631 0.153978 0
M  V30 13 C 1.61624 0.00962951 1.57817 0
M  V30 14 C 2.93242 -0.125953 2.22846 0
M  V30 15 C 4.04431 0.37311 1.31903 0
M  V30 16 C 3.8283 1.00465 0.122161 0
M  V30 17 S 5.4285 1.29163 -0.413964 0
M  V30 18 C 6.26053 0.600579 0.89946 0
M  V30 19 N 5.29001 0.186792 1.67855 0
M  V30 20 N 7.68802 0.494828 1.10653 0
M  V30 21 N -0.773433 -0.913652 -3.91531 0
M  V30 22 C -3.372 1.61306 0.183297 0
M  V30 23 C -2.97928 2.39799 1.44391 0
M  V30 24 H -4.84176 -0.604885 -1.05151 0
M  V30 25 H -4.88104 -2.20606 -0.235824 0
M  V30 26 H -6.1691 -1.00767 0.0735253 0
M  V30 27 H -3.85273 -1.37975 1.6493 0
M  V30 28 H -4.85755 0.106323 1.64865 0
M  V30 29 H -0.461725 1.12144 0.0973072 0
M  V30 30 H -2.09228 0.266695 -2.14342 0
M  V30 31 H -0.787805 1.57155 -2.08768 0
M  V30 32 H 0.830325 0.129259 -2.98083 0
M  V30 33 H 1.15585 -2.01488 -2.02402 0
M  V30 34 H -0.590768 -2.23339 -1.64258 0
M  V30 35 H 1.2918 1.05687 1.40337 0
M  V30 36 H 0.849808 -0.392923 2.30352 0
M  V30 37 H 3.00043 0.33182 3.22332 0
M  V30 38 H 3.12184 -1.22349 2.38803 0
M  V30 39 H 2.86754 1.26523 -0.362995 0
M  V30 40 H 8.26261 -0.0295417 0.411634 0
M  V30 41 H 8.1508 0.930268 1.9324 0
M  V30 42 H -0.0628113 -1.17112 -4.6375 0
M  V30 43 H -1.32914 -1.77588 -3.71283 0
M  V30 44 H -2.82264 2.02156 -0.689933 0
M  V30 45 H -4.464 1.75218 0.0563266 0
M  V30 46 H -1.9856 2.06143 1.7939 0
M  V30 47 H -3.78804 2.21705 2.17174 0
M  V30 48 H -2.94632 3.4688 1.1845 0
M  V30 END ATOM
M  V30 BEGIN BOND
M  V30 1 1 1 2
M  V30 2 1 2 3
M  V30 3 1 3 4
M  V30 4 2 4 5
M  V30 5 1 4 6
M  V30 6 1 6 7
M  V30 7 1 7 8
M  V30 8 1 8 9
M  V30 9 1 9 10
M  V30 10 1 10 11
M  V30 11 2 11 12
M  V30 12 1 11 13
M  V30 13 1 13 14
M  V30 14 1 14 15
M  V30 15 2 15 16
M  V30 16 1 16 17
M  V30 17 1 17 18
M  V30 18 2 18 19
M  V30 19 1 18 20
M  V30 20 1 8 21
M  V30 21 1 3 22
M  V30 22 1 22 23
M  V30 23 1 10 6
M  V30 24 1 19 15
M  V30 25 1 1 24
M  V30 26 1 1 25
M  V30 27 1 1 26
M  V30 28 1 2 27
M  V30 29 1 2 28
M  V30 30 1 6 29 CFG=1
M  V30 31 1 7 30
M  V30 32 1 7 31
M  V30 33 1 8 32 CFG=3
M  V30 34 1 9 33
M  V30 35 1 9 34
M  V30 36 1 13 35
M  V30 37 1 13 36
M  V30 38 1 14 37
M  V30 39 1 14 38
M  V30 40 1 16 39
M  V30 41 1 20 40
M  V30 42 1 20 41
M  V30 43 1 21 42
M  V30 44 1 21 43
M  V30 45 1 22 44
M  V30 46 1 22 45
M  V30 47 1 23 46
M  V30 48 1 23 47
M  V30 49 1 23 48
M  V30 END BOND
M  V30 END CTAB
M  END
