
     RDKit          3D

  0  0  0  0  0  0  0  0  0  0999 V3000
M  V30 BEGIN CTAB
M  V30 COUNTS 26 27 0 0 0
M  V30 BEGIN ATOM
M  V30 1 N -3.60887 -0.641999 -0.0896195 0
M  V30 2 C -2.42823 0.12324 0.0279017 0
M  V30 3 C -1.19267 -0.564844 -0.0655977 0
M  V30 4 C 0.0143078 0.0656296 0.0358078 0
M  V30 5 C -0.0424455 1.45525 0.238329 0
M  V30 6 C -1.22423 2.15461 0.332742 0
M  V30 7 C -2.40304 1.46143 0.224237 0
M  V30 8 C 1.12941 2.20045 0.321695 0
M  V30 9 C 2.32928 1.55214 0.200741 0
M  V30 10 C 2.4038 0.202548 0.00375084 0
M  V30 11 N 3.63796 -0.4797 -0.122973 0
M  V30 12 C 1.23155 -0.54095 -0.0763332 0
M  V30 13 N 1.42086 -1.91149 -0.260269 0 CHG=1
M  V30 14 O 1.56089 -2.60729 -1.41274 0 CHG=-1
M  V30 15 O 1.62147 -2.58575 0.804027 0
M  V30 16 N -1.32009 -1.94983 -0.297626 0 CHG=1
M  V30 17 O -1.27087 -2.89145 0.646335 0 CHG=-1
M  V30 18 O -1.56804 -2.28712 -1.49139 0
M  V30 19 H -3.9386 -1.19765 0.749469 0
M  V30 20 H -4.19918 -0.709872 -0.942948 0
M  V30 21 H -1.25414 3.23366 0.490946 0
M  V30 22 H -3.36868 1.97277 0.297306 0
M  V30 23 H 1.05993 3.26998 0.477906 0
M  V30 24 H 3.2569 2.1263 0.264606 0
M  V30 25 H 3.86183 -0.855251 -1.06869 0
M  V30 26 H 4.2909 -0.594797 0.712392 0
M  V30 END ATOM
M  V30 BEGIN BOND
M  V30 1 1 1 2
M  V30 2 2 2 3
M  V30 3 1 3 4
M  V30 4 2 4 5
M  V30 5 1 5 6
M  V30 6 2 6 7
M  V30 7 1 5 8
M  V30 8 2 8 9
M  V30 9 1 9 10
M  V30 10 1 10 11
M  V30 11 2 10 12
M  V30 12 1 12 13
M  V30 13 1 13 14
M  V30 14 2 13 15
M  V30 15 1 3 16
M  V30 16 1 16 17
M  V30 17 2 16 18
M  V30 18 1 7 2
M  V30 19 1 12 4
M  V30 20 1 1 19
M  V30 21 1 1 20
M  V30 22 1 6 21
M  V30 23 1 7 22
M  V30 24 1 8 23
M  V30 25 1 9 24
M  V30 26 1 11 25
M  V30 27 1 11 26
M  V30 END BOND
M  V30 END CTAB
M  END
