
     RDKit          3D

  0  0  0  0  0  0  0  0  0  0999 V3000
M  V30 BEGIN CTAB
M  V30 COUNTS 15 15 0 0 0
M  V30 BEGIN ATOM
M  V30 1 N -1.59289 1.76592 0.0881766 0
M  V30 2 C -1.09076 0.447173 0.155543 0
M  V30 3 N -1.91973 -0.485807 0.429984 0
M  V30 4 N -1.65284 -1.82085 0.544414 0
M  V30 5 C 0.326119 0.141207 -0.0778327 0
M  V30 6 C 1.35116 0.999472 -0.380517 0
M  V30 7 N 2.5318 0.499439 -0.544603 0
M  V30 8 C 2.71898 -0.805695 -0.418651 0
M  V30 9 S 1.14992 -1.36539 -0.0488035 0
M  V30 10 H -2.01307 2.24952 0.916661 0
M  V30 11 H -1.53761 2.26629 -0.825859 0
M  V30 12 H -2.03854 -2.49251 -0.138108 0
M  V30 13 H -1.06229 -2.16918 1.31569 0
M  V30 14 H 1.14058 2.08368 -0.474599 0
M  V30 15 H 3.68916 -1.31328 -0.541496 0
M  V30 END ATOM
M  V30 BEGIN BOND
M  V30 1 1 1 2
M  V30 2 2 2 3 CFG=2
M  V30 3 1 3 4
M  V30 4 1 2 5
M  V30 5 2 5 6
M  V30 6 1 6 7
M  V30 7 2 7 8
M  V30 8 1 8 9
M  V30 9 1 9 5
M  V30 10 1 1 10
M  V30 11 1 1 11
M  V30 12 1 4 12
M  V30 13 1 4 13
M  V30 14 1 6 14
M  V30 15 1 8 15
M  V30 END BOND
M  V30 END CTAB
M  END
