
     RDKit          3D

  0  0  0  0  0  0  0  0  0  0999 V3000
M  V30 BEGIN CTAB
M  V30 COUNTS 70 74 0 0 0
M  V30 BEGIN ATOM
M  V30 1 N 8.76942 -1.81607 0.294839 0
M  V30 2 C 8.37585 -0.458639 0.18071 0
M  V30 3 N 7.08887 -0.0518794 0.301274 0
M  V30 4 C 6.79568 1.25504 0.180015 0
M  V30 5 C 7.77465 2.21718 -0.0674296 0
M  V30 6 N 7.14025 3.40991 -0.129524 0
M  V30 7 C 5.82623 3.19499 0.0707606 0
M  V30 8 N 5.60205 1.87004 0.262725 0
M  V30 9 C 4.33019 1.31013 0.499705 0 CFG=2
M  V30 10 O 4.32377 0.149255 1.25649 0
M  V30 11 C 3.05096 -0.360773 1.167 0 CFG=2
M  V30 12 C 3.15694 -1.87063 0.958779 0
M  V30 13 O 3.85609 -2.15991 -0.208389 0
M  V30 14 C 2.40269 0.231223 -0.0659331 0 CFG=1
M  V30 15 O 1.61145 1.33238 0.220385 0
M  V30 16 P 0.0915519 1.29303 -0.430991 0
M  V30 17 O -0.365821 2.84117 -1.00202 0
M  V30 18 O 0.150548 0.4106 -1.68428 0
M  V30 19 O -1.08293 0.650124 0.565529 0
M  V30 20 C -1.9259 -0.213384 -0.132144 0
M  V30 21 C -2.99141 -0.808848 0.728524 0 CFG=1
M  V30 22 O -3.81927 0.152364 1.30129 0
M  V30 23 C -5.02966 -0.428172 1.58079 0 CFG=2
M  V30 24 C -5.17071 -1.66939 0.748696 0 CFG=2
M  V30 25 O -5.02513 -2.82504 1.53309 0
M  V30 26 C -3.95712 -1.55083 -0.175422 0 CFG=2
M  V30 27 O -3.49968 -2.79077 -0.557308 0
M  V30 28 P -3.56447 -2.95772 -2.23605 0
M  V30 29 O -2.17168 -3.80331 -2.70952 0
M  V30 30 O -4.9455 -3.81411 -2.71319 0
M  V30 31 O -3.61306 -1.58638 -2.84851 0
M  V30 32 N -6.10312 0.497292 1.18959 0
M  V30 33 C -7.38392 0.0951446 1.14917 0
M  V30 34 C -8.39866 0.969228 0.77942 0
M  V30 35 C -8.09062 2.28676 0.443456 0
M  V30 36 N -9.10388 3.18966 0.065579 0
M  V30 37 N -6.7985 2.64103 0.498805 0
M  V30 38 C -5.83965 1.77301 0.860113 0
M  V30 39 O -4.63945 2.14342 0.899832 0
M  V30 40 C 3.63462 0.806947 -0.764874 0 CFG=1
M  V30 41 O 3.27081 1.85835 -1.6004 0
M  V30 42 C 9.06596 1.77023 -0.183644 0
M  V30 43 O 9.96047 2.62708 -0.407014 0
M  V30 44 N 9.3437 0.445853 -0.058209 0
M  V30 45 H 9.44002 -2.24898 -0.384368 0
M  V30 46 H 8.41342 -2.42683 1.04612 0
M  V30 47 H 5.10015 3.99864 0.068538 0
M  V30 48 H 3.61903 2.01598 0.977411 0
M  V30 49 H 2.44041 -0.222012 2.07808 0
M  V30 50 H 3.6883 -2.31931 1.83463 0
M  V30 51 H 2.17641 -2.34098 0.883771 0
M  V30 52 H 4.27878 -3.05429 -0.16863 0
M  V30 53 H 1.89608 -0.516382 -0.693349 0
M  V30 54 H -0.77929 3.30437 -0.208667 0
M  V30 55 H -1.30982 -1.03563 -0.538968 0
M  V30 56 H -2.41891 0.291675 -0.989579 0
M  V30 57 H -2.59968 -1.51813 1.48596 0
M  V30 58 H -5.08805 -0.6773 2.65629 0
M  V30 59 H -6.11578 -1.70737 0.177185 0
M  V30 60 H -4.36591 -3.44168 1.16444 0
M  V30 61 H -4.27268 -0.91109 -1.01002 0
M  V30 62 H -2.44368 -4.7222 -2.91072 0
M  V30 63 H -5.73671 -3.2144 -2.71691 0
M  V30 64 H -7.59628 -0.933398 1.41488 0
M  V30 65 H -9.41617 0.639689 0.750104 0
M  V30 66 H -9.55048 3.83122 0.746852 0
M  V30 67 H -9.42794 3.22918 -0.922776 0
M  V30 68 H 4.22199 0.0321656 -1.27756 0
M  V30 69 H 3.40318 1.52234 -2.53283 0
M  V30 70 H 10.341 0.169152 -0.156395 0
M  V30 END ATOM
M  V30 BEGIN BOND
M  V30 1 1 1 2
M  V30 2 2 2 3
M  V30 3 1 3 4
M  V30 4 2 4 5
M  V30 5 1 5 6
M  V30 6 2 6 7
M  V30 7 1 7 8
M  V30 8 1 8 9
M  V30 9 1 9 10
M  V30 10 1 10 11
M  V30 11 1 11 12
M  V30 12 1 12 13
M  V30 13 1 11 14
M  V30 14 1 14 15
M  V30 15 1 15 16
M  V30 16 1 16 17
M  V30 17 2 16 18
M  V30 18 1 16 19
M  V30 19 1 19 20
M  V30 20 1 20 21
M  V30 21 1 21 22
M  V30 22 1 22 23
M  V30 23 1 23 24
M  V30 24 1 24 25
M  V30 25 1 24 26
M  V30 26 1 26 27
M  V30 27 1 27 28
M  V30 28 1 28 29
M  V30 29 1 28 30
M  V30 30 2 28 31
M  V30 31 1 23 32
M  V30 32 1 32 33
M  V30 33 2 33 34
M  V30 34 1 34 35
M  V30 35 1 35 36
M  V30 36 2 35 37
M  V30 37 1 37 38
M  V30 38 2 38 39
M  V30 39 1 14 40
M  V30 40 1 40 41
M  V30 41 1 5 42
M  V30 42 2 42 43
M  V30 43 1 42 44
M  V30 44 1 44 2
M  V30 45 1 8 4
M  V30 46 1 40 9
M  V30 47 1 26 21
M  V30 48 1 38 32
M  V30 49 1 1 45
M  V30 50 1 1 46
M  V30 51 1 7 47
M  V30 52 1 9 48 CFG=1
M  V30 53 1 11 49 CFG=1
M  V30 54 1 12 50
M  V30 55 1 12 51
M  V30 56 1 13 52
M  V30 57 1 14 53 CFG=3
M  V30 58 1 17 54
M  V30 59 1 20 55
M  V30 60 1 20 56
M  V30 61 1 21 57 CFG=1
M  V30 62 1 23 58 CFG=1
M  V30 63 1 24 59 CFG=3
M  V30 64 1 25 60
M  V30 65 1 26 61 CFG=3
M  V30 66 1 29 62
M  V30 67 1 30 63
M  V30 68 1 33 64
M  V30 69 1 34 65
M  V30 70 1 36 66
M  V30 71 1 36 67
M  V30 72 1 40 68 CFG=3
M  V30 73 1 41 69
M  V30 74 1 44 70
M  V30 END BOND
M  V30 END CTAB
M  END
