
     RDKit          3D

  0  0  0  0  0  0  0  0  0  0999 V3000
M  V30 BEGIN CTAB
M  V30 COUNTS 45 47 0 0 0
M  V30 BEGIN ATOM
M  V30 1 C 4.45539 -2.82308 -1.00872 0
M  V30 2 C 3.25458 -2.07268 -0.584228 0
M  V30 3 C 3.26823 -1.44874 0.624528 0
M  V30 4 C 2.17399 -0.748366 1.04303 0
M  V30 5 C 1.0331 -0.654206 0.258845 0
M  V30 6 C 1.02017 -1.28397 -0.960607 0
M  V30 7 C 2.1117 -1.98361 -1.37987 0
M  V30 8 C -0.138304 0.126153 0.764681 0
M  V30 9 C -0.047582 1.5364 0.359162 0
M  V30 10 C -1.0931 2.40695 0.575864 0
M  V30 11 C -1.00272 3.72543 0.191277 0
M  V30 12 C 0.128508 4.22286 -0.420999 0
M  V30 13 C 1.1901 3.35865 -0.646241 0
M  V30 14 C 1.07709 2.03739 -0.251363 0
M  V30 15 N 0.162646 5.59318 -0.795015 0
M  V30 16 C -1.35452 -0.553044 0.301984 0
M  V30 17 C -2.12552 -0.17585 -0.777751 0
M  V30 18 C -3.25338 -0.833562 -1.17954 0
M  V30 19 C -3.67283 -1.94784 -0.482171 0
M  V30 20 C -2.93661 -2.36392 0.603258 0
M  V30 21 C -1.78603 -1.67052 0.991279 0
M  V30 22 N -4.83029 -2.67861 -0.840508 0
M  V30 23 C -0.13483 0.00266118 2.29659 0
M  V30 24 H 5.33871 -2.14762 -0.865686 0
M  V30 25 H 4.59391 -3.67472 -0.313397 0
M  V30 26 H 4.39105 -3.13183 -2.0719 0
M  V30 27 H 4.15845 -1.51087 1.25767 0
M  V30 28 H 2.19952 -0.249632 2.02176 0
M  V30 29 H 0.15788 -1.23901 -1.60508 0
M  V30 30 H 2.17198 -2.50373 -2.32664 0
M  V30 31 H -2.0202 2.09878 1.05161 0
M  V30 32 H -1.83248 4.43169 0.359148 0
M  V30 33 H 2.07654 3.75888 -1.12881 0
M  V30 34 H 1.95823 1.42225 -0.467349 0
M  V30 35 H 1.07775 6.0924 -0.805147 0
M  V30 36 H -0.713505 6.09036 -1.05486 0
M  V30 37 H -1.81964 0.68617 -1.33563 0
M  V30 38 H -3.82882 -0.51461 -2.02188 0
M  V30 39 H -3.2671 -3.24444 1.15543 0
M  V30 40 H -1.2834 -2.07961 1.85375 0
M  V30 41 H -5.0608 -2.80506 -1.8466 0
M  V30 42 H -5.42907 -3.07575 -0.0884965 0
M  V30 43 H 0.492229 0.811608 2.74611 0
M  V30 44 H -1.16578 0.00406726 2.67028 0
M  V30 45 H 0.304758 -0.991015 2.51737 0
M  V30 END ATOM
M  V30 BEGIN BOND
M  V30 1 1 1 2
M  V30 2 2 2 3
M  V30 3 1 3 4
M  V30 4 2 4 5
M  V30 5 1 5 6
M  V30 6 2 6 7
M  V30 7 1 5 8
M  V30 8 1 8 9
M  V30 9 2 9 10
M  V30 10 1 10 11
M  V30 11 2 11 12
M  V30 12 1 12 13
M  V30 13 2 13 14
M  V30 14 1 12 15
M  V30 15 1 8 16
M  V30 16 2 16 17
M  V30 17 1 17 18
M  V30 18 2 18 19
M  V30 19 1 19 20
M  V30 20 2 20 21
M  V30 21 1 19 22
M  V30 22 1 8 23
M  V30 23 1 7 2
M  V30 24 1 14 9
M  V30 25 1 21 16
M  V30 26 1 1 24
M  V30 27 1 1 25
M  V30 28 1 1 26
M  V30 29 1 3 27
M  V30 30 1 4 28
M  V30 31 1 6 29
M  V30 32 1 7 30
M  V30 33 1 10 31
M  V30 34 1 11 32
M  V30 35 1 13 33
M  V30 36 1 14 34
M  V30 37 1 15 35
M  V30 38 1 15 36
M  V30 39 1 17 37
M  V30 40 1 18 38
M  V30 41 1 20 39
M  V30 42 1 21 40
M  V30 43 1 22 41
M  V30 44 1 22 42
M  V30 45 1 23 43
M  V30 46 1 23 44
M  V30 47 1 23 45
M  V30 END BOND
M  V30 END CTAB
M  END
