
     RDKit          3D

  0  0  0  0  0  0  0  0  0  0999 V3000
M  V30 BEGIN CTAB
M  V30 COUNTS 25 27 0 0 0
M  V30 BEGIN ATOM
M  V30 1 N -3.11832 1.6843 0.0300092 0
M  V30 2 C -1.80888 1.12555 0.00862375 0
M  V30 3 C -1.56232 -0.230699 0.0831932 0
M  V30 4 N -2.67034 -1.1128 0.186386 0
M  V30 5 C -0.295828 -0.775494 0.0628119 0
M  V30 6 C 0.790327 0.060766 -0.0365536 0
M  V30 7 C 2.06697 -0.491349 -0.0569128 0
M  V30 8 C 2.28935 -1.85034 0.0188771 0
M  V30 9 C 1.196 -2.69108 0.118831 0
M  V30 10 C -0.064614 -2.13316 0.138133 0
M  V30 11 C 3.22609 0.398519 -0.162801 0
M  V30 12 O 4.38342 -0.0896232 -0.182041 0
M  V30 13 O 3.00533 1.76171 -0.238923 0
M  V30 14 C 1.72663 2.30033 -0.217619 0
M  V30 15 O 1.50277 3.53607 -0.285593 0
M  V30 16 C 0.580066 1.41755 -0.112721 0
M  V30 17 C -0.700421 1.94595 -0.0907054 0
M  V30 18 H -3.63021 1.94622 -0.840967 0
M  V30 19 H -3.64003 1.86239 0.939108 0
M  V30 20 H -3.03583 -1.44231 1.10114 0
M  V30 21 H -3.10829 -1.4205 -0.708499 0
M  V30 22 H 3.29951 -2.25877 0.000987713 0
M  V30 23 H 1.36672 -3.75759 0.178486 0
M  V30 24 H -0.909244 -2.79933 0.2164 0
M  V30 25 H -0.888872 3.0137 -0.149653 0
M  V30 END ATOM
M  V30 BEGIN BOND
M  V30 1 1 1 2
M  V30 2 2 2 3
M  V30 3 1 3 4
M  V30 4 1 3 5
M  V30 5 2 5 6
M  V30 6 1 6 7
M  V30 7 2 7 8
M  V30 8 1 8 9
M  V30 9 2 9 10
M  V30 10 1 7 11
M  V30 11 2 11 12
M  V30 12 1 11 13
M  V30 13 1 13 14
M  V30 14 2 14 15
M  V30 15 1 14 16
M  V30 16 2 16 17
M  V30 17 1 17 2
M  V30 18 1 10 5
M  V30 19 1 16 6
M  V30 20 1 1 18
M  V30 21 1 1 19
M  V30 22 1 4 20
M  V30 23 1 4 21
M  V30 24 1 8 22
M  V30 25 1 9 23
M  V30 26 1 10 24
M  V30 27 1 17 25
M  V30 END BOND
M  V30 END CTAB
M  END
