
     RDKit          3D

  0  0  0  0  0  0  0  0  0  0999 V3000
M  V30 BEGIN CTAB
M  V30 COUNTS 52 53 0 0 0
M  V30 BEGIN ATOM
M  V30 1 N 7.31999 1.5004 0.553725 0
M  V30 2 C 6.60938 1.76761 -0.6654 0
M  V30 3 C 5.23234 1.10635 -0.510466 0
M  V30 4 C 4.39182 1.31743 -1.71738 0
M  V30 5 C 3.07969 0.629007 -1.63742 0
M  V30 6 C 2.1449 0.976104 -0.538661 0 CFG=2
M  V30 7 N 2.58735 0.723201 0.795728 0
M  V30 8 C 0.757318 0.463336 -0.821134 0
M  V30 9 O 0.297612 0.847535 -1.96156 0
M  V30 10 N -0.00559763 -0.354452 0.0370642 0
M  V30 11 C 0.26955 -0.93939 1.30487 0
M  V30 12 C -0.710353 -2.11804 1.42727 0
M  V30 13 C -1.29321 -2.23932 0.0106078 0
M  V30 14 C -1.36685 -0.734825 -0.301254 0 CFG=1
M  V30 15 C -2.36904 -0.0649142 0.522251 0
M  V30 16 O -2.02088 0.706348 1.44506 0
M  V30 17 N -3.735 -0.272552 0.294889 0
M  V30 18 C -4.28045 -1.12379 -0.7374 0
M  V30 19 C -5.57401 -0.467531 -1.16856 0
M  V30 20 C -5.80937 0.626293 -0.171752 0
M  V30 21 C -4.90203 0.263303 0.97602 0 CFG=1
M  V30 22 C -5.53621 -0.706685 1.86761 0
M  V30 23 O -5.02804 -1.98303 2.02878 0
M  V30 24 O -6.5627 -0.392288 2.50718 0
M  V30 25 H 7.3872 2.31389 1.18281 0
M  V30 26 H 8.16846 0.973565 0.463378 0
M  V30 27 H 7.15343 1.21256 -1.47204 0
M  V30 28 H 6.54209 2.82271 -0.928618 0
M  V30 29 H 4.81231 1.64264 0.392039 0
M  V30 30 H 5.41083 0.0512632 -0.2767 0
M  V30 31 H 4.28306 2.40943 -1.97163 0
M  V30 32 H 4.97318 0.929496 -2.61897 0
M  V30 33 H 2.52258 0.794967 -2.61974 0
M  V30 34 H 3.30634 -0.473218 -1.67303 0
M  V30 35 H 2.06445 2.12326 -0.581142 0
M  V30 36 H 3.24673 -0.0356081 0.939549 0
M  V30 37 H 2.66873 1.52251 1.41922 0
M  V30 38 H 0.104001 -0.276213 2.1769 0
M  V30 39 H 1.30786 -1.32303 1.43489 0
M  V30 40 H -0.168869 -3.05016 1.67963 0
M  V30 41 H -1.49082 -1.86804 2.15442 0
M  V30 42 H -2.25658 -2.7333 -0.0110197 0
M  V30 43 H -0.509392 -2.66032 -0.622201 0
M  V30 44 H -1.61088 -0.575785 -1.37171 0
M  V30 45 H -4.53815 -2.14379 -0.381617 0
M  V30 46 H -3.62551 -1.20804 -1.62739 0
M  V30 47 H -5.44468 0.0466519 -2.1634 0
M  V30 48 H -6.41108 -1.18423 -1.24294 0
M  V30 49 H -5.61608 1.64015 -0.579948 0
M  V30 50 H -6.87023 0.537794 0.186667 0
M  V30 51 H -4.60759 1.20179 1.49198 0
M  V30 52 H -4.29759 -2.22107 2.6806 0
M  V30 END ATOM
M  V30 BEGIN BOND
M  V30 1 1 1 2
M  V30 2 1 2 3
M  V30 3 1 3 4
M  V30 4 1 4 5
M  V30 5 1 5 6
M  V30 6 1 6 7
M  V30 7 1 6 8
M  V30 8 2 8 9
M  V30 9 1 8 10
M  V30 10 1 10 11
M  V30 11 1 11 12
M  V30 12 1 12 13
M  V30 13 1 13 14
M  V30 14 1 14 15
M  V30 15 2 15 16
M  V30 16 1 15 17
M  V30 17 1 17 18
M  V30 18 1 18 19
M  V30 19 1 19 20
M  V30 20 1 20 21
M  V30 21 1 21 22
M  V30 22 1 22 23
M  V30 23 2 22 24
M  V30 24 1 14 10
M  V30 25 1 21 17
M  V30 26 1 1 25
M  V30 27 1 1 26
M  V30 28 1 2 27
M  V30 29 1 2 28
M  V30 30 1 3 29
M  V30 31 1 3 30
M  V30 32 1 4 31
M  V30 33 1 4 32
M  V30 34 1 5 33
M  V30 35 1 5 34
M  V30 36 1 6 35 CFG=1
M  V30 37 1 7 36
M  V30 38 1 7 37
M  V30 39 1 11 38
M  V30 40 1 11 39
M  V30 41 1 12 40
M  V30 42 1 12 41
M  V30 43 1 13 42
M  V30 44 1 13 43
M  V30 45 1 14 44 CFG=3
M  V30 46 1 18 45
M  V30 47 1 18 46
M  V30 48 1 19 47
M  V30 49 1 19 48
M  V30 50 1 20 49
M  V30 51 1 20 50
M  V30 52 1 21 51 CFG=1
M  V30 53 1 23 52
M  V30 END BOND
M  V30 END CTAB
M  END
