
     RDKit          3D

  0  0  0  0  0  0  0  0  0  0999 V3000
M  V30 BEGIN CTAB
M  V30 COUNTS 39 42 0 0 0
M  V30 BEGIN ATOM
M  V30 1 N -6.89586 -0.0436729 0.0500127 0
M  V30 2 C -5.47109 -0.0636388 -0.0156357 0
M  V30 3 C -4.78918 1.10904 -0.242654 0
M  V30 4 N -5.52838 2.30939 -0.405588 0
M  V30 5 C -3.42287 1.05345 -0.299469 0
M  V30 6 C -2.7084 -0.120098 -0.139776 0
M  V30 7 C -3.41721 -1.26994 0.084535 0
M  V30 8 C -4.82257 -1.25622 0.150284 0
M  V30 9 C -1.22758 -0.128119 -0.218129 0
M  V30 10 O -0.731437 0.885433 -0.772313 0
M  V30 11 N -0.476561 -1.2046 0.300149 0
M  V30 12 C 0.931322 -1.23234 0.244386 0
M  V30 13 C 1.52216 -2.50088 0.349733 0
M  V30 14 C 2.88998 -2.60301 0.329234 0
M  V30 15 C 3.69199 -1.48258 0.207137 0
M  V30 16 N 5.03509 -1.28377 0.158826 0
M  V30 17 C 5.32259 0.0221654 0.0308905 0
M  V30 18 C 6.48343 0.767051 -0.0641769 0
M  V30 19 N 6.46465 2.11326 -0.189038 0
M  V30 20 C 5.31942 2.82476 -0.229847 0
M  V30 21 C 4.1472 2.10432 -0.136803 0
M  V30 22 C 4.12975 0.725434 -0.00809708 0
M  V30 23 C 3.13859 -0.224943 0.102358 0
M  V30 24 C 1.73812 -0.134892 0.125062 0
M  V30 25 H -7.41709 -0.831904 0.493458 0
M  V30 26 H -7.47794 0.733829 -0.328788 0
M  V30 27 H -6.04865 2.76641 0.359291 0
M  V30 28 H -5.55703 2.76682 -1.34383 0
M  V30 29 H -2.89587 1.99646 -0.480992 0
M  V30 30 H -2.89025 -2.20866 0.209321 0
M  V30 31 H -5.34123 -2.20225 0.331903 0
M  V30 32 H -1.00794 -2.00903 0.751337 0
M  V30 33 H 0.874509 -3.38252 0.446141 0
M  V30 34 H 3.32567 -3.58747 0.411481 0
M  V30 35 H 5.73695 -2.03758 0.213409 0
M  V30 36 H 7.42318 0.220908 -0.0341844 0
M  V30 37 H 5.36233 3.90057 -0.330906 0
M  V30 38 H 3.21533 2.63282 -0.165312 0
M  V30 39 H 1.37488 0.875973 0.0565924 0
M  V30 END ATOM
M  V30 BEGIN BOND
M  V30 1 1 1 2
M  V30 2 2 2 3
M  V30 3 1 3 4
M  V30 4 1 3 5
M  V30 5 2 5 6
M  V30 6 1 6 7
M  V30 7 2 7 8
M  V30 8 1 6 9
M  V30 9 2 9 10
M  V30 10 1 9 11
M  V30 11 1 11 12
M  V30 12 2 12 13
M  V30 13 1 13 14
M  V30 14 2 14 15
M  V30 15 1 15 16
M  V30 16 1 16 17
M  V30 17 2 17 18
M  V30 18 1 18 19
M  V30 19 2 19 20
M  V30 20 1 20 21
M  V30 21 2 21 22
M  V30 22 1 22 23
M  V30 23 2 23 24
M  V30 24 1 8 2
M  V30 25 1 24 12
M  V30 26 1 23 15
M  V30 27 1 22 17
M  V30 28 1 1 25
M  V30 29 1 1 26
M  V30 30 1 4 27
M  V30 31 1 4 28
M  V30 32 1 5 29
M  V30 33 1 7 30
M  V30 34 1 8 31
M  V30 35 1 11 32
M  V30 36 1 13 33
M  V30 37 1 14 34
M  V30 38 1 16 35
M  V30 39 1 18 36
M  V30 40 1 20 37
M  V30 41 1 21 38
M  V30 42 1 24 39
M  V30 END BOND
M  V30 END CTAB
M  END
