
     RDKit          3D

  0  0  0  0  0  0  0  0  0  0999 V3000
M  V30 BEGIN CTAB
M  V30 COUNTS 24 25 0 0 0
M  V30 BEGIN ATOM
M  V30 1 N 3.7336 -1.21661 0.387251 0
M  V30 2 C 2.32848 -0.865208 0.319971 0
M  V30 3 C 2.20537 0.35462 -0.504918 0
M  V30 4 O 3.17798 1.04049 -1.09828 0
M  V30 5 C 2.67878 2.06466 -1.74162 0
M  V30 6 N 1.32557 2.05846 -1.56908 0
M  V30 7 C 1.03076 0.99569 -0.800404 0
M  V30 8 C -0.314486 0.603339 -0.362922 0
M  V30 9 N -0.671439 -0.439789 0.399956 0
M  V30 10 N -2.00056 -0.431915 0.559718 0
M  V30 11 C -2.51208 0.622362 -0.102906 0
M  V30 12 N -1.45743 1.24351 -0.661836 0
M  V30 13 N -3.88751 0.992241 -0.186739 0
M  V30 14 C -2.81484 -1.3738 1.30976 0
M  V30 15 H 4.08344 -1.34196 1.34466 0
M  V30 16 H 3.98665 -1.98396 -0.269974 0
M  V30 17 H 1.93822 -0.72844 1.35247 0
M  V30 18 H 1.79752 -1.73845 -0.123755 0
M  V30 19 H 3.27492 2.77776 -2.30692 0
M  V30 20 H -4.49264 0.365229 -0.764244 0
M  V30 21 H -4.28601 1.82705 0.287079 0
M  V30 22 H -3.80228 -1.52334 0.80831 0
M  V30 23 H -2.34957 -2.37122 1.39251 0
M  V30 24 H -2.97248 -0.930728 2.33191 0
M  V30 END ATOM
M  V30 BEGIN BOND
M  V30 1 1 1 2
M  V30 2 1 2 3
M  V30 3 1 3 4
M  V30 4 1 4 5
M  V30 5 2 5 6
M  V30 6 1 6 7
M  V30 7 1 7 8
M  V30 8 2 8 9
M  V30 9 1 9 10
M  V30 10 1 10 11
M  V30 11 2 11 12
M  V30 12 1 11 13
M  V30 13 1 10 14
M  V30 14 2 7 3
M  V30 15 1 12 8
M  V30 16 1 1 15
M  V30 17 1 1 16
M  V30 18 1 2 17
M  V30 19 1 2 18
M  V30 20 1 5 19
M  V30 21 1 13 20
M  V30 22 1 13 21
M  V30 23 1 14 22
M  V30 24 1 14 23
M  V30 25 1 14 24
M  V30 END BOND
M  V30 END CTAB
M  END
