
     RDKit          3D

  0  0  0  0  0  0  0  0  0  0999 V3000
M  V30 BEGIN CTAB
M  V30 COUNTS 19 19 0 0 0
M  V30 BEGIN ATOM
M  V30 1 N 3.03514 -1.03161 -0.376049 0
M  V30 2 C 1.78035 -0.418761 -0.146054 0
M  V30 3 C 1.73998 0.820695 0.457266 0
M  V30 4 C 0.533029 1.43581 0.691035 0
M  V30 5 Br 0.448568 3.14681 1.5223 0
M  V30 6 C -0.633307 0.79082 0.311407 0
M  V30 7 C -0.613004 -0.462536 -0.29982 0
M  V30 8 C 0.614854 -1.05584 -0.521778 0
M  V30 9 C -1.84474 -1.11748 -0.687926 0
M  V30 10 O -1.79719 -2.23768 -1.2326 0
M  V30 11 O -3.06391 -0.524472 -0.465614 0
M  V30 12 N -1.91467 1.36481 0.521007 0
M  V30 13 H 3.79683 -0.414035 -0.74465 0
M  V30 14 H 3.1831 -2.03474 -0.187767 0
M  V30 15 H 2.62823 1.33122 0.755807 0
M  V30 16 H 0.603817 -2.02806 -0.997384 0
M  V30 17 H -3.71177 -0.772671 0.265716 0
M  V30 18 H -2.55429 1.12324 1.29559 0
M  V30 19 H -2.23102 2.08448 -0.16049 0
M  V30 END ATOM
M  V30 BEGIN BOND
M  V30 1 1 1 2
M  V30 2 2 2 3
M  V30 3 1 3 4
M  V30 4 1 4 5
M  V30 5 2 4 6
M  V30 6 1 6 7
M  V30 7 2 7 8
M  V30 8 1 7 9
M  V30 9 2 9 10
M  V30 10 1 9 11
M  V30 11 1 6 12
M  V30 12 1 8 2
M  V30 13 1 1 13
M  V30 14 1 1 14
M  V30 15 1 3 15
M  V30 16 1 8 16
M  V30 17 1 11 17
M  V30 18 1 12 18
M  V30 19 1 12 19
M  V30 END BOND
M  V30 END CTAB
M  END
