
     RDKit          3D

  0  0  0  0  0  0  0  0  0  0999 V3000
M  V30 BEGIN CTAB
M  V30 COUNTS 52 52 0 0 0
M  V30 BEGIN ATOM
M  V30 1 C 4.92407 2.86165 -1.52703 0
M  V30 2 O 4.99264 1.48102 -1.28934 0
M  V30 3 C 4.15038 0.841488 -0.408526 0
M  V30 4 C 3.19064 1.52898 0.289928 0
M  V30 5 C 2.3145 0.906185 1.19705 0
M  V30 6 C 1.32743 1.73989 1.92785 0
M  V30 7 C 2.47408 -0.449241 1.34715 0
M  V30 8 C 3.42892 -1.18515 0.663635 0
M  V30 9 C 4.25614 -0.519159 -0.208695 0
M  V30 10 C 5.3014 -1.2772 -0.962896 0
M  V30 11 C 3.54566 -2.66035 0.87011 0
M  V30 12 S 1.43331 -1.33337 2.41325 0
M  V30 13 O 2.23849 -2.3539 3.21997 0
M  V30 14 O 0.866152 -0.401937 3.44297 0
M  V30 15 N 0.151609 -2.08963 1.58686 0
M  V30 16 C -0.811501 -1.35155 0.86144 0
M  V30 17 N -1.93225 -0.959622 1.3483 0
M  V30 18 C -2.84346 -0.201288 0.49281 0
M  V30 19 C -4.26562 -0.425463 0.864592 0
M  V30 20 C -5.30022 0.293856 0.0997284 0
M  V30 21 C -5.39799 0.0537794 -1.36226 0 CFG=1
M  V30 22 C -6.54054 0.905178 -1.85097 0
M  V30 23 O -7.66969 0.792806 -1.32055 0
M  V30 24 O -6.36075 1.80138 -2.86854 0
M  V30 25 N -4.26663 0.40579 -2.15057 0
M  V30 26 N -0.514763 -1.03018 -0.488524 0
M  V30 27 H 4.0364 3.1172 -2.11467 0
M  V30 28 H 4.88815 3.35942 -0.533107 0
M  V30 29 H 5.8325 3.16957 -2.06222 0
M  V30 30 H 3.08725 2.60147 0.150667 0
M  V30 31 H 0.32227 1.32113 1.81038 0
M  V30 32 H 1.30896 2.74061 1.42884 0
M  V30 33 H 1.58423 1.87066 2.9997 0
M  V30 34 H 4.88409 -1.7544 -1.8495 0
M  V30 35 H 5.74162 -2.08298 -0.321913 0
M  V30 36 H 6.07772 -0.551422 -1.25953 0
M  V30 37 H 3.97676 -3.06373 -0.093882 0
M  V30 38 H 4.2269 -2.93655 1.67067 0
M  V30 39 H 2.5377 -3.13842 0.913665 0
M  V30 40 H 0.0273744 -3.14937 1.58589 0
M  V30 41 H -2.60588 0.881092 0.688057 0
M  V30 42 H -2.55677 -0.446674 -0.529958 0
M  V30 43 H -4.51813 -1.51281 0.89149 0
M  V30 44 H -4.36587 -0.0738701 1.93836 0
M  V30 45 H -5.27433 1.39165 0.349712 0
M  V30 46 H -6.30025 -0.0267058 0.531191 0
M  V30 47 H -5.69531 -0.982623 -1.62103 0
M  V30 48 H -6.88983 2.67768 -2.84143 0
M  V30 49 H -3.98707 -0.262186 -2.87177 0
M  V30 50 H -4.21897 1.40808 -2.43142 0
M  V30 51 H -0.460445 -1.83919 -1.16098 0
M  V30 52 H -0.351115 -0.0916006 -0.86094 0
M  V30 END ATOM
M  V30 BEGIN BOND
M  V30 1 1 1 2
M  V30 2 1 2 3
M  V30 3 2 3 4
M  V30 4 1 4 5
M  V30 5 1 5 6
M  V30 6 2 5 7
M  V30 7 1 7 8
M  V30 8 2 8 9
M  V30 9 1 9 10
M  V30 10 1 8 11
M  V30 11 1 7 12
M  V30 12 2 12 13
M  V30 13 2 12 14
M  V30 14 1 12 15
M  V30 15 1 15 16
M  V30 16 2 16 17
M  V30 17 1 17 18
M  V30 18 1 18 19
M  V30 19 1 19 20
M  V30 20 1 20 21
M  V30 21 1 21 22
M  V30 22 2 22 23
M  V30 23 1 22 24
M  V30 24 1 21 25
M  V30 25 1 16 26
M  V30 26 1 9 3
M  V30 27 1 1 27
M  V30 28 1 1 28
M  V30 29 1 1 29
M  V30 30 1 4 30
M  V30 31 1 6 31
M  V30 32 1 6 32
M  V30 33 1 6 33
M  V30 34 1 10 34
M  V30 35 1 10 35
M  V30 36 1 10 36
M  V30 37 1 11 37
M  V30 38 1 11 38
M  V30 39 1 11 39
M  V30 40 1 15 40
M  V30 41 1 18 41
M  V30 42 1 18 42
M  V30 43 1 19 43
M  V30 44 1 19 44
M  V30 45 1 20 45
M  V30 46 1 20 46
M  V30 47 1 21 47 CFG=1
M  V30 48 1 24 48
M  V30 49 1 25 49
M  V30 50 1 25 50
M  V30 51 1 26 51
M  V30 52 1 26 52
M  V30 END BOND
M  V30 END CTAB
M  END
