
     RDKit          3D

  0  0  0  0  0  0  0  0  0  0999 V3000
M  V30 BEGIN CTAB
M  V30 COUNTS 32 32 0 0 0
M  V30 BEGIN ATOM
M  V30 1 N -7.44932 0.141994 -0.505716 0
M  V30 2 N -6.0835 0.335288 -0.749857 0
M  V30 3 C -5.07621 -0.232919 0.0697601 0
M  V30 4 O -5.43774 -0.934292 1.04889 0
M  V30 5 C -3.68248 0.0178327 -0.254612 0
M  V30 6 C -2.75579 -0.519095 0.51939 0
M  V30 7 C -1.32314 -0.351583 0.312886 0
M  V30 8 C -0.462133 -0.972298 1.20344 0
M  V30 9 C 0.888379 -0.844841 1.0516 0
M  V30 10 C 1.45082 -0.110886 0.0306947 0
M  V30 11 C 0.584667 0.502983 -0.850334 0
M  V30 12 C -0.780539 0.391485 -0.721244 0
M  V30 13 C 2.88768 0.0519265 -0.169124 0
M  V30 14 C 3.82313 -0.476352 0.592909 0
M  V30 15 C 5.26241 -0.275616 0.339799 0
M  V30 16 O 6.0726 -0.828891 1.13445 0
M  V30 17 N 5.77537 0.486127 -0.721201 0
M  V30 18 N 7.13614 0.625094 -0.889016 0
M  V30 19 H -7.6262 0.222108 0.525172 0
M  V30 20 H -8.01889 0.888212 -0.950433 0
M  V30 21 H -5.83178 0.915387 -1.56064 0
M  V30 22 H -3.41644 0.613564 -1.0871 0
M  V30 23 H -3.08588 -1.12485 1.36467 0
M  V30 24 H -0.854195 -1.57242 2.03956 0
M  V30 25 H 1.55491 -1.34153 1.76376 0
M  V30 26 H 0.937843 1.10122 -1.68461 0
M  V30 27 H -1.46663 0.875735 -1.4163 0
M  V30 28 H 3.2043 0.654741 -1.01056 0
M  V30 29 H 3.50227 -1.07674 1.43085 0
M  V30 30 H 5.15193 0.970387 -1.41498 0
M  V30 31 H 7.42345 1.56507 -1.23882 0
M  V30 32 H 7.69496 0.303158 -0.0720312 0
M  V30 END ATOM
M  V30 BEGIN BOND
M  V30 1 1 1 2
M  V30 2 1 2 3
M  V30 3 2 3 4
M  V30 4 1 3 5
M  V30 5 2 5 6
M  V30 6 1 6 7
M  V30 7 2 7 8
M  V30 8 1 8 9
M  V30 9 2 9 10
M  V30 10 1 10 11
M  V30 11 2 11 12
M  V30 12 1 10 13
M  V30 13 2 13 14
M  V30 14 1 14 15
M  V30 15 2 15 16
M  V30 16 1 15 17
M  V30 17 1 17 18
M  V30 18 1 12 7
M  V30 19 1 1 19
M  V30 20 1 1 20
M  V30 21 1 2 21
M  V30 22 1 5 22
M  V30 23 1 6 23
M  V30 24 1 8 24
M  V30 25 1 9 25
M  V30 26 1 11 26
M  V30 27 1 12 27
M  V30 28 1 13 28
M  V30 29 1 14 29
M  V30 30 1 17 30
M  V30 31 1 18 31
M  V30 32 1 18 32
M  V30 END BOND
M  V30 END CTAB
M  END
