
     RDKit          3D

  0  0  0  0  0  0  0  0  0  0999 V3000
M  V30 BEGIN CTAB
M  V30 COUNTS 34 35 0 0 0
M  V30 BEGIN ATOM
M  V30 1 C 6.75503 -0.258694 0.348677 0
M  V30 2 O 5.819 -1.27463 -0.0312176 0
M  V30 3 C 4.4759 -0.895331 -0.166466 0
M  V30 4 C 4.05679 0.391881 0.055884 0
M  V30 5 C 2.71585 0.774579 -0.0812559 0
M  V30 6 C 1.75945 -0.139031 -0.449172 0
M  V30 7 C 2.19548 -1.44665 -0.672372 0
M  V30 8 C 3.51502 -1.82266 -0.536796 0
M  V30 9 C 0.338415 0.186455 -0.640248 0
M  V30 10 O -0.448591 -0.710779 -0.986449 0
M  V30 11 C -0.172266 1.55583 -0.435503 0
M  V30 12 S -1.24345 1.78186 0.973252 0
M  V30 13 C -2.81034 0.982953 0.671883 0
M  V30 14 N -3.11082 0.321613 -0.45396 0
M  V30 15 C -4.27513 -0.279466 -0.718736 0
M  V30 16 N -4.53639 -0.966556 -1.92816 0
M  V30 17 C -5.25658 -0.224029 0.233654 0
M  V30 18 C -4.98876 0.443646 1.40182 0
M  V30 19 N -3.79817 1.02564 1.60326 0
M  V30 20 N -6.0017 0.509949 2.38668 0
M  V30 21 H 6.72176 0.501855 -0.47336 0
M  V30 22 H 7.77284 -0.678601 0.447204 0
M  V30 23 H 6.40013 0.258094 1.26121 0
M  V30 24 H 4.80963 1.13356 0.348017 0
M  V30 25 H 2.46142 1.799 0.109964 0
M  V30 26 H 1.44218 -2.15698 -0.959426 0
M  V30 27 H 3.84633 -2.83975 -0.711718 0
M  V30 28 H -0.788262 1.79962 -1.36327 0
M  V30 29 H 0.640095 2.33301 -0.427355 0
M  V30 30 H -4.06813 -1.85266 -2.21006 0
M  V30 31 H -5.25297 -0.565628 -2.60328 0
M  V30 32 H -6.2203 -0.709779 0.0362729 0
M  V30 33 H -6.46225 1.39156 2.64901 0
M  V30 34 H -6.29123 -0.369904 2.86298 0
M  V30 END ATOM
M  V30 BEGIN BOND
M  V30 1 1 1 2
M  V30 2 1 2 3
M  V30 3 2 3 4
M  V30 4 1 4 5
M  V30 5 2 5 6
M  V30 6 1 6 7
M  V30 7 2 7 8
M  V30 8 1 6 9
M  V30 9 2 9 10
M  V30 10 1 9 11
M  V30 11 1 11 12
M  V30 12 1 12 13
M  V30 13 2 13 14
M  V30 14 1 14 15
M  V30 15 1 15 16
M  V30 16 2 15 17
M  V30 17 1 17 18
M  V30 18 2 18 19
M  V30 19 1 18 20
M  V30 20 1 8 3
M  V30 21 1 19 13
M  V30 22 1 1 21
M  V30 23 1 1 22
M  V30 24 1 1 23
M  V30 25 1 4 24
M  V30 26 1 5 25
M  V30 27 1 7 26
M  V30 28 1 8 27
M  V30 29 1 11 28
M  V30 30 1 11 29
M  V30 31 1 16 30
M  V30 32 1 16 31
M  V30 33 1 17 32
M  V30 34 1 20 33
M  V30 35 1 20 34
M  V30 END BOND
M  V30 END CTAB
M  END
