
     RDKit          3D

  0  0  0  0  0  0  0  0  0  0999 V3000
M  V30 BEGIN CTAB
M  V30 COUNTS 57 59 0 0 0
M  V30 BEGIN ATOM
M  V30 1 C -2.00072 3.9567 1.4576 0
M  V30 2 O -1.24803 2.8378 1.03542 0
M  V30 3 C -0.30412 3.019 0.0372178 0
M  V30 4 C -0.123189 4.27518 -0.515244 0
M  V30 5 C 0.807161 4.45939 -1.50602 0
M  V30 6 C 1.54313 3.37888 -1.93117 0
M  V30 7 C 1.34999 2.13816 -1.3708 0
M  V30 8 C 0.418774 1.92208 -0.366898 0
M  V30 9 C 0.191036 0.591081 0.275897 0
M  V30 10 C 1.40029 -0.199787 0.292797 0
M  V30 11 C 1.56549 -1.46564 -0.208991 0
M  V30 12 N 0.488163 -2.18988 -0.841032 0
M  V30 13 N 2.77287 -2.08844 -0.108823 0
M  V30 14 C 3.84709 -1.53 0.467757 0
M  V30 15 N 3.67371 -0.296176 0.953023 0
M  V30 16 C 2.52898 0.383249 0.896474 0
M  V30 17 O 2.50201 1.53774 1.39432 0
M  V30 18 N 5.08648 -2.21004 0.572337 0
M  V30 19 C 5.27764 -3.06573 1.73195 0
M  V30 20 C 6.12044 -2.08327 -0.39508 0
M  V30 21 C -1.12342 0.0370224 0.0882961 0
M  V30 22 C -1.82282 -0.0292241 -1.09616 0
M  V30 23 N -1.29739 0.557474 -2.2725 0
M  V30 24 N -3.04205 -0.602159 -1.17308 0
M  V30 25 C -3.6592 -1.14201 -0.116575 0
M  V30 26 N -3.00452 -1.096 1.06417 0
M  V30 27 C -1.78898 -0.535305 1.17923 0
M  V30 28 O -1.20442 -0.509506 2.29813 0
M  V30 29 N -4.94364 -1.75125 -0.152078 0
M  V30 30 C -6.10777 -0.931746 -0.430153 0
M  V30 31 C -5.14165 -3.16213 0.0899897 0
M  V30 32 H -2.88833 3.64011 2.08248 0
M  V30 33 H -2.49816 4.37301 0.528778 0
M  V30 34 H -1.42873 4.74141 1.95416 0
M  V30 35 H -0.722051 5.095 -0.153141 0
M  V30 36 H 0.96556 5.46201 -1.95788 0
M  V30 37 H 2.26955 3.5236 -2.70342 0
M  V30 38 H 1.91498 1.2502 -1.67916 0
M  V30 39 H 0.171368 0.955194 1.43044 0
M  V30 40 H -0.159213 -2.77548 -0.288426 0
M  V30 41 H 0.410351 -2.09011 -1.87092 0
M  V30 42 H 4.52677 0.150204 1.40927 0
M  V30 43 H 5.19209 -2.40962 2.6219 0
M  V30 44 H 4.42831 -3.81366 1.7682 0
M  V30 45 H 6.25255 -3.59691 1.69969 0
M  V30 46 H 5.77775 -1.83802 -1.39238 0
M  V30 47 H 6.73412 -3.01258 -0.459953 0
M  V30 48 H 6.83124 -1.28176 -0.0413456 0
M  V30 49 H -1.67199 1.51994 -2.49006 0
M  V30 50 H -0.605124 0.114074 -2.90323 0
M  V30 51 H -3.49281 -1.52268 1.89221 0
M  V30 52 H -6.32859 -0.877999 -1.52216 0
M  V30 53 H -7.02102 -1.34227 0.089438 0
M  V30 54 H -5.97916 0.0938272 -0.0465107 0
M  V30 55 H -6.18947 -3.39123 0.345445 0
M  V30 56 H -4.5458 -3.3845 1.02592 0
M  V30 57 H -4.70552 -3.78724 -0.68935 0
M  V30 END ATOM
M  V30 BEGIN BOND
M  V30 1 1 1 2
M  V30 2 1 2 3
M  V30 3 2 3 4
M  V30 4 1 4 5
M  V30 5 2 5 6
M  V30 6 1 6 7
M  V30 7 2 7 8
M  V30 8 1 8 9
M  V30 9 1 9 10
M  V30 10 2 10 11
M  V30 11 1 11 12
M  V30 12 1 11 13
M  V30 13 2 13 14
M  V30 14 1 14 15
M  V30 15 1 15 16
M  V30 16 2 16 17
M  V30 17 1 14 18
M  V30 18 1 18 19
M  V30 19 1 18 20
M  V30 20 1 9 21
M  V30 21 2 21 22
M  V30 22 1 22 23
M  V30 23 1 22 24
M  V30 24 2 24 25
M  V30 25 1 25 26
M  V30 26 1 26 27
M  V30 27 2 27 28
M  V30 28 1 25 29
M  V30 29 1 29 30
M  V30 30 1 29 31
M  V30 31 1 8 3
M  V30 32 1 16 10
M  V30 33 1 27 21
M  V30 34 1 1 32
M  V30 35 1 1 33
M  V30 36 1 1 34
M  V30 37 1 4 35
M  V30 38 1 5 36
M  V30 39 1 6 37
M  V30 40 1 7 38
M  V30 41 1 9 39
M  V30 42 1 12 40
M  V30 43 1 12 41
M  V30 44 1 15 42
M  V30 45 1 19 43
M  V30 46 1 19 44
M  V30 47 1 19 45
M  V30 48 1 20 46
M  V30 49 1 20 47
M  V30 50 1 20 48
M  V30 51 1 23 49
M  V30 52 1 23 50
M  V30 53 1 26 51
M  V30 54 1 30 52
M  V30 55 1 30 53
M  V30 56 1 30 54
M  V30 57 1 31 55
M  V30 58 1 31 56
M  V30 59 1 31 57
M  V30 END BOND
M  V30 END CTAB
M  END
