
     RDKit          3D

  0  0  0  0  0  0  0  0  0  0999 V3000
M  V30 BEGIN CTAB
M  V30 COUNTS 10 9 0 0 0
M  V30 BEGIN ATOM
M  V30 1 N -1.59809 0.100067 -0.682177 0
M  V30 2 N -0.372818 0.582371 -0.190903 0
M  V30 3 N 0.489243 -0.483952 -0.0103728 0
M  V30 4 N 1.76782 -0.287211 -0.45493 0
M  V30 5 H -2.05154 -0.576725 -0.035186 0
M  V30 6 H -2.28488 0.897282 -0.769762 0
M  V30 7 H -0.534642 1.10149 0.693098 0
M  V30 8 H 0.450148 -0.911023 0.932428 0
M  V30 9 H 2.14464 -1.06885 -1.01404 0
M  V30 10 H 1.99012 0.646544 -0.819517 0
M  V30 END ATOM
M  V30 BEGIN BOND
M  V30 1 1 1 2
M  V30 2 1 2 3
M  V30 3 1 3 4
M  V30 4 1 1 5
M  V30 5 1 1 6
M  V30 6 1 2 7
M  V30 7 1 3 8
M  V30 8 1 4 9
M  V30 9 1 4 10
M  V30 END BOND
M  V30 END CTAB
M  END
