
     RDKit          3D

  0  0  0  0  0  0  0  0  0  0999 V3000
M  V30 BEGIN CTAB
M  V30 COUNTS 19 19 0 0 0
M  V30 BEGIN ATOM
M  V30 1 I 3.39038 -1.4706 1.23471 0
M  V30 2 C 1.99715 -0.162171 0.347176 0
M  V30 3 C 2.38598 1.10097 -0.0687921 0
M  V30 4 C 1.46485 1.93908 -0.644608 0
M  V30 5 C 0.160552 1.51455 -0.803212 0
M  V30 6 C -0.205706 0.235449 -0.374995 0
M  V30 7 C 0.70542 -0.612319 0.20221 0
M  V30 8 N 0.308614 -1.88759 0.621059 0
M  V30 9 S -1.82931 -0.29702 -0.57138 0
M  V30 10 O -2.65038 0.831688 -1.12255 0
M  V30 11 O -1.97009 -1.45046 -1.51444 0
M  V30 12 N -2.50642 -0.675646 0.988496 0
M  V30 13 H 3.40321 1.44455 0.0498082 0
M  V30 14 H 1.73276 2.93618 -0.982899 0
M  V30 15 H -0.559818 2.19089 -1.26204 0
M  V30 16 H -0.297185 -2.54172 0.0752146 0
M  V30 17 H 0.622415 -2.26291 1.55849 0
M  V30 18 H -3.45291 -1.09675 0.82503 0
M  V30 19 H -2.6995 0.26384 1.44272 0
M  V30 END ATOM
M  V30 BEGIN BOND
M  V30 1 1 1 2
M  V30 2 2 2 3
M  V30 3 1 3 4
M  V30 4 2 4 5
M  V30 5 1 5 6
M  V30 6 2 6 7
M  V30 7 1 7 8
M  V30 8 1 6 9
M  V30 9 2 9 10
M  V30 10 2 9 11
M  V30 11 1 9 12
M  V30 12 1 7 2
M  V30 13 1 3 13
M  V30 14 1 4 14
M  V30 15 1 5 15
M  V30 16 1 8 16
M  V30 17 1 8 17
M  V30 18 1 12 18
M  V30 19 1 12 19
M  V30 END BOND
M  V30 END CTAB
M  END
