
     RDKit          3D

  0  0  0  0  0  0  0  0  0  0999 V3000
M  V30 BEGIN CTAB
M  V30 COUNTS 44 47 0 0 0
M  V30 BEGIN ATOM
M  V30 1 N 5.18171 -1.60831 -0.28863 0
M  V30 2 C 4.18435 -0.628367 0.0161284 0
M  V30 3 N 3.11428 -0.464467 -0.753468 0
M  V30 4 C 2.13934 0.465315 -0.490332 0
M  V30 5 N 2.34057 1.19264 0.59119 0
M  V30 6 C 3.41168 1.03874 1.3741 0
M  V30 7 N 4.36496 0.125087 1.11118 0
M  V30 8 N 3.6292 1.82587 2.54436 0
M  V30 9 C 0.98655 0.529604 -1.38989 0
M  V30 10 N -0.281851 0.170836 -0.76086 0
M  V30 11 C -1.18769 1.05509 -0.418576 0
M  V30 12 N -2.30306 0.551618 0.240094 0
M  V30 13 C -2.4425 -0.757226 0.506609 0
M  V30 14 C -1.5094 -1.67977 0.153569 0
M  V30 15 C -0.384803 -1.16977 -0.510509 0
M  V30 16 O 0.538243 -1.93723 -0.882776 0
M  V30 17 C -1.76195 -2.97729 0.476846 0
M  V30 18 C -0.824891 -4.13831 0.160158 0
M  V30 19 C -2.93468 -3.22928 1.12804 0
M  V30 20 S -3.65233 -1.69895 1.27889 0
M  V30 21 C -3.4576 -4.57232 1.59949 0
M  V30 22 C -1.24875 2.45576 -0.769417 0
M  V30 23 C -2.55929 2.96202 -0.919813 0
M  V30 24 C -2.84697 4.26574 -1.20192 0
M  V30 25 C -1.78395 5.12404 -1.34452 0
M  V30 26 C -0.489758 4.69728 -1.21011 0
M  V30 27 C -0.261992 3.36146 -0.922738 0
M  V30 28 H 4.93675 -2.50676 -0.752223 0
M  V30 29 H 6.1692 -1.40582 -0.0360414 0
M  V30 30 H 3.54221 1.42184 3.48685 0
M  V30 31 H 3.87955 2.82374 2.43728 0
M  V30 32 H 1.1235 -0.345506 -2.15348 0
M  V30 33 H 0.96259 1.36988 -2.0604 0
M  V30 34 H -1.11111 -5.04656 0.713332 0
M  V30 35 H -0.83463 -4.31574 -0.931789 0
M  V30 36 H 0.206275 -3.89458 0.545035 0
M  V30 37 H -3.83648 -5.16274 0.762616 0
M  V30 38 H -4.21826 -4.37924 2.39793 0
M  V30 39 H -2.61758 -5.06707 2.0856 0
M  V30 40 H -3.42504 2.28043 -0.812199 0
M  V30 41 H -3.87911 4.62453 -1.31472 0
M  V30 42 H -1.98306 6.15895 -1.56807 0
M  V30 43 H 0.362509 5.39127 -1.32548 0
M  V30 44 H 0.763286 3.09355 -0.791324 0
M  V30 END ATOM
M  V30 BEGIN BOND
M  V30 1 1 1 2
M  V30 2 2 2 3
M  V30 3 1 3 4
M  V30 4 2 4 5
M  V30 5 1 5 6
M  V30 6 2 6 7
M  V30 7 1 6 8
M  V30 8 1 4 9
M  V30 9 1 9 10
M  V30 10 1 10 11
M  V30 11 2 11 12
M  V30 12 1 12 13
M  V30 13 2 13 14
M  V30 14 1 14 15
M  V30 15 2 15 16
M  V30 16 1 14 17
M  V30 17 1 17 18
M  V30 18 2 17 19
M  V30 19 1 19 20
M  V30 20 1 19 21
M  V30 21 1 11 22
M  V30 22 2 22 23
M  V30 23 1 23 24
M  V30 24 2 24 25
M  V30 25 1 25 26
M  V30 26 2 26 27
M  V30 27 1 7 2
M  V30 28 1 15 10
M  V30 29 1 27 22
M  V30 30 1 20 13
M  V30 31 1 1 28
M  V30 32 1 1 29
M  V30 33 1 8 30
M  V30 34 1 8 31
M  V30 35 1 9 32
M  V30 36 1 9 33
M  V30 37 1 18 34
M  V30 38 1 18 35
M  V30 39 1 18 36
M  V30 40 1 21 37
M  V30 41 1 21 38
M  V30 42 1 21 39
M  V30 43 1 23 40
M  V30 44 1 24 41
M  V30 45 1 25 42
M  V30 46 1 26 43
M  V30 47 1 27 44
M  V30 END BOND
M  V30 END CTAB
M  END
