
     RDKit          3D

  0  0  0  0  0  0  0  0  0  0999 V3000
M  V30 BEGIN CTAB
M  V30 COUNTS 57 60 0 0 0
M  V30 BEGIN ATOM
M  V30 1 N -8.03381 1.17039 -0.672475 0
M  V30 2 C -7.66451 2.17581 0.278934 0 CFG=1
M  V30 3 C -7.06218 1.60194 1.52329 0
M  V30 4 C -5.85525 0.827575 1.21516 0
M  V30 5 C -5.98507 -0.533396 0.907128 0
M  V30 6 C -4.88947 -1.31138 0.615714 0
M  V30 7 C -3.62323 -0.798318 0.611847 0
M  V30 8 C -3.46895 0.536445 0.911474 0
M  V30 9 C -4.58037 1.33674 1.20978 0
M  V30 10 C -2.46648 -1.61633 0.304829 0
M  V30 11 N -1.21121 -1.13982 0.291665 0
M  V30 12 C -0.158207 -1.93871 -0.00109598 0
M  V30 13 N 1.1566 -1.40429 -0.00736421 0
M  V30 14 C 2.27146 -2.27458 -0.323765 0
M  V30 15 C 3.51226 -1.45899 -0.262511 0
M  V30 16 C 3.96114 -0.773266 -1.37969 0
M  V30 17 C 5.11028 -0.0121122 -1.33344 0
M  V30 18 C 5.86808 0.106598 -0.182637 0
M  V30 19 C 5.41735 -0.578226 0.927668 0
M  V30 20 C 4.26762 -1.34125 0.885686 0
M  V30 21 C 7.08121 0.912509 -0.133095 0
M  V30 22 C 7.86131 1.03092 -1.27441 0
M  V30 23 C 9.01803 1.78211 -1.27903 0
M  V30 24 F 9.77724 1.89687 -2.39097 0
M  V30 25 C 9.42723 2.43724 -0.138935 0
M  V30 26 C 8.67248 2.34005 1.01624 0
M  V30 27 C 7.52595 1.58365 0.986202 0
M  V30 28 N -0.391706 -3.21088 -0.276742 0
M  V30 29 C -1.64444 -3.74095 -0.276426 0
M  V30 30 N -1.77486 -5.10633 -0.583883 0
M  V30 31 N -2.65269 -2.91338 0.0186125 0
M  V30 32 C -6.75541 3.18483 -0.30441 0
M  V30 33 O -6.26739 3.0825 -1.59831 0
M  V30 34 O -6.43207 4.1665 0.436266 0
M  V30 35 H -8.84128 0.61881 -0.449387 0
M  V30 36 H -7.89522 1.4198 -1.64982 0
M  V30 37 H -8.60703 2.72811 0.52564 0
M  V30 38 H -6.77881 2.48024 2.17499 0
M  V30 39 H -7.79305 1.02856 2.13372 0
M  V30 40 H -6.95849 -0.969926 0.90006 0
M  V30 41 H -4.99038 -2.37515 0.374968 0
M  V30 42 H -2.49038 0.96905 0.916903 0
M  V30 43 H -4.42914 2.38877 1.44757 0
M  V30 44 H 1.32301 -0.393804 0.21338 0
M  V30 45 H 2.15571 -2.77811 -1.30589 0
M  V30 46 H 2.30918 -3.04579 0.499115 0
M  V30 47 H 3.36035 -0.865326 -2.29828 0
M  V30 48 H 5.45289 0.521742 -2.21652 0
M  V30 49 H 6.00951 -0.488643 1.83496 0
M  V30 50 H 3.9421 -1.86471 1.7718 0
M  V30 51 H 7.55441 0.524236 -2.17454 0
M  V30 52 H 10.3252 3.01896 -0.147606 0
M  V30 53 H 9.01092 2.86476 1.90862 0
M  V30 54 H 6.9343 1.50243 1.87736 0
M  V30 55 H -2.17207 -5.38842 -1.49352 0
M  V30 56 H -1.47929 -5.85657 0.0870529 0
M  V30 57 H -5.95335 3.94051 -2.06325 0
M  V30 END ATOM
M  V30 BEGIN BOND
M  V30 1 1 1 2
M  V30 2 1 2 3
M  V30 3 1 3 4
M  V30 4 2 4 5
M  V30 5 1 5 6
M  V30 6 2 6 7
M  V30 7 1 7 8
M  V30 8 2 8 9
M  V30 9 1 7 10
M  V30 10 2 10 11
M  V30 11 1 11 12
M  V30 12 1 12 13
M  V30 13 1 13 14
M  V30 14 1 14 15
M  V30 15 2 15 16
M  V30 16 1 16 17
M  V30 17 2 17 18
M  V30 18 1 18 19
M  V30 19 2 19 20
M  V30 20 1 18 21
M  V30 21 2 21 22
M  V30 22 1 22 23
M  V30 23 1 23 24
M  V30 24 2 23 25
M  V30 25 1 25 26
M  V30 26 2 26 27
M  V30 27 2 12 28
M  V30 28 1 28 29
M  V30 29 1 29 30
M  V30 30 2 29 31
M  V30 31 1 2 32
M  V30 32 1 32 33
M  V30 33 2 32 34
M  V30 34 1 9 4
M  V30 35 1 31 10
M  V30 36 1 20 15
M  V30 37 1 27 21
M  V30 38 1 1 35
M  V30 39 1 1 36
M  V30 40 1 2 37 CFG=1
M  V30 41 1 3 38
M  V30 42 1 3 39
M  V30 43 1 5 40
M  V30 44 1 6 41
M  V30 45 1 8 42
M  V30 46 1 9 43
M  V30 47 1 13 44
M  V30 48 1 14 45
M  V30 49 1 14 46
M  V30 50 1 16 47
M  V30 51 1 17 48
M  V30 52 1 19 49
M  V30 53 1 20 50
M  V30 54 1 22 51
M  V30 55 1 25 52
M  V30 56 1 26 53
M  V30 57 1 27 54
M  V30 58 1 30 55
M  V30 59 1 30 56
M  V30 60 1 33 57
M  V30 END BOND
M  V30 END CTAB
M  END
