
     RDKit          3D

  0  0  0  0  0  0  0  0  0  0999 V3000
M  V30 BEGIN CTAB
M  V30 COUNTS 44 46 0 0 0
M  V30 BEGIN ATOM
M  V30 1 N 0.0745459 0.108132 -2.49284 0
M  V30 2 C 0.418957 0.722614 -1.22663 0 CFG=1
M  V30 3 C -0.781089 0.77474 -0.301593 0 CFG=2
M  V30 4 O -0.430668 1.36512 0.903611 0
M  V30 5 C -1.35534 -0.582697 -0.0441104 0
M  V30 6 N -2.50395 -0.468026 0.842377 0
M  V30 7 C -2.57016 -0.532293 2.18068 0
M  V30 8 N -3.84991 -0.381908 2.609 0
M  V30 9 C -4.6328 -0.217057 1.53666 0
M  V30 10 C -3.79831 -0.270533 0.442152 0
M  V30 11 N -4.29674 -0.13536 -0.794187 0
M  V30 12 C -5.62355 0.0555774 -0.992984 0
M  V30 13 N -6.16306 0.200145 -2.29922 0
M  V30 14 N -6.43065 0.105728 0.0944092 0
M  V30 15 C -5.99959 -0.0216051 1.35457 0
M  V30 16 O -6.74861 0.0249633 2.36318 0
M  V30 17 C 1.54448 0.0276703 -0.570872 0
M  V30 18 O 2.09193 -1.00166 -1.0533 0
M  V30 19 O 2.0225 0.526302 0.626325 0
M  V30 20 C 3.07353 -0.01091 1.36434 0
M  V30 21 C 4.37433 -0.0507876 0.6655 0
M  V30 22 C 5.39924 -0.83034 1.16606 0
M  V30 23 C 6.63846 -0.912136 0.572418 0
M  V30 24 C 6.89963 -0.195868 -0.574341 0
M  V30 25 C 5.88818 0.586149 -1.08593 0
M  V30 26 C 4.63165 0.663565 -0.476207 0
M  V30 27 H 0.261192 0.733421 -3.29957 0
M  V30 28 H 0.595429 -0.77071 -2.65076 0
M  V30 29 H 0.727799 1.76668 -1.44054 0
M  V30 30 H -1.58045 1.44526 -0.735163 0
M  V30 31 H -0.231755 0.652798 1.55389 0
M  V30 32 H -1.67334 -1.08973 -0.964683 0
M  V30 33 H -0.602382 -1.18905 0.511402 0
M  V30 34 H -1.69989 -0.689874 2.83855 0
M  V30 35 H -6.45998 1.12551 -2.63585 0
M  V30 36 H -6.25197 -0.629665 -2.90029 0
M  V30 37 H -7.45201 0.254604 -0.0933 0
M  V30 38 H 3.23798 0.617138 2.28489 0
M  V30 39 H 2.85198 -1.03005 1.76405 0
M  V30 40 H 5.20926 -1.39735 2.06428 0
M  V30 41 H 7.40412 -1.54002 1.00978 0
M  V30 42 H 7.88251 -0.26375 -1.04106 0
M  V30 43 H 6.04494 1.1673 -1.98487 0
M  V30 44 H 3.86358 1.28796 -0.903326 0
M  V30 END ATOM
M  V30 BEGIN BOND
M  V30 1 1 1 2
M  V30 2 1 2 3
M  V30 3 1 3 4
M  V30 4 1 3 5
M  V30 5 1 5 6
M  V30 6 1 6 7
M  V30 7 2 7 8
M  V30 8 1 8 9
M  V30 9 2 9 10
M  V30 10 1 10 11
M  V30 11 2 11 12
M  V30 12 1 12 13
M  V30 13 1 12 14
M  V30 14 1 14 15
M  V30 15 2 15 16
M  V30 16 1 2 17
M  V30 17 2 17 18
M  V30 18 1 17 19
M  V30 19 1 19 20
M  V30 20 1 20 21
M  V30 21 2 21 22
M  V30 22 1 22 23
M  V30 23 2 23 24
M  V30 24 1 24 25
M  V30 25 2 25 26
M  V30 26 1 10 6
M  V30 27 1 26 21
M  V30 28 1 15 9
M  V30 29 1 1 27
M  V30 30 1 1 28
M  V30 31 1 2 29 CFG=3
M  V30 32 1 3 30 CFG=3
M  V30 33 1 4 31
M  V30 34 1 5 32
M  V30 35 1 5 33
M  V30 36 1 7 34
M  V30 37 1 13 35
M  V30 38 1 13 36
M  V30 39 1 14 37
M  V30 40 1 20 38
M  V30 41 1 20 39
M  V30 42 1 22 40
M  V30 43 1 23 41
M  V30 44 1 24 42
M  V30 45 1 25 43
M  V30 46 1 26 44
M  V30 END BOND
M  V30 END CTAB
M  END
