
     RDKit          3D

  0  0  0  0  0  0  0  0  0  0999 V3000
M  V30 BEGIN CTAB
M  V30 COUNTS 25 26 0 0 0
M  V30 BEGIN ATOM
M  V30 1 C -4.21983 -0.574123 0.742676 0
M  V30 2 N -2.96525 -0.125911 0.128845 0
M  V30 3 C -2.56106 -0.41212 -1.11711 0
M  V30 4 C -1.33156 0.189404 -1.32366 0
M  V30 5 C -1.0154 0.848779 -0.148241 0
M  V30 6 N -2.03519 0.622078 0.685729 0
M  V30 7 C 0.224339 1.63843 0.0892121 0
M  V30 8 C 1.31027 0.776446 0.64544 0
M  V30 9 N 1.61241 0.497506 1.90714 0
M  V30 10 N 2.65524 -0.312876 1.94961 0
M  V30 11 C 3.03543 -0.562263 0.661958 0
M  V30 12 N 2.18608 0.124372 -0.125737 0
M  V30 13 N 2.25703 0.119434 -1.54326 0
M  V30 14 N 4.11374 -1.38433 0.255737 0
M  V30 15 H -4.85798 -1.03118 -0.041093 0
M  V30 16 H -4.77915 0.310808 1.13171 0
M  V30 17 H -3.98912 -1.31965 1.51192 0
M  V30 18 H -3.06479 -1.00311 -1.87115 0
M  V30 19 H -0.72394 0.159278 -2.22273 0
M  V30 20 H 0.542062 2.19241 -0.809404 0
M  V30 21 H -0.0238918 2.37307 0.891981 0
M  V30 22 H 1.68231 -0.508326 -2.12258 0
M  V30 23 H 2.9146 0.773228 -2.04488 0
M  V30 24 H 4.60012 -1.23272 -0.646496 0
M  V30 25 H 4.43354 -2.15863 0.865405 0
M  V30 END ATOM
M  V30 BEGIN BOND
M  V30 1 1 1 2
M  V30 2 1 2 3
M  V30 3 2 3 4
M  V30 4 1 4 5
M  V30 5 2 5 6
M  V30 6 1 5 7
M  V30 7 1 7 8
M  V30 8 2 8 9
M  V30 9 1 9 10
M  V30 10 2 10 11
M  V30 11 1 11 12
M  V30 12 1 12 13
M  V30 13 1 11 14
M  V30 14 1 6 2
M  V30 15 1 12 8
M  V30 16 1 1 15
M  V30 17 1 1 16
M  V30 18 1 1 17
M  V30 19 1 3 18
M  V30 20 1 4 19
M  V30 21 1 7 20
M  V30 22 1 7 21
M  V30 23 1 13 22
M  V30 24 1 13 23
M  V30 25 1 14 24
M  V30 26 1 14 25
M  V30 END BOND
M  V30 END CTAB
M  END
