
     RDKit          3D

  0  0  0  0  0  0  0  0  0  0999 V3000
M  V30 BEGIN CTAB
M  V30 COUNTS 44 44 0 0 0
M  V30 BEGIN ATOM
M  V30 1 C -6.46944 1.56776 1.18628 0
M  V30 2 Si -5.87667 0.116796 0.162532 0 VAL=4
M  V30 3 C -6.46759 -1.45946 0.975367 0
M  V30 4 C -6.53661 0.205295 -1.57321 0
M  V30 5 C -4.05297 0.133731 0.056871 0
M  V30 6 C -2.84303 0.126394 -0.0120185 0
M  V30 7 C -1.39802 0.0935805 -0.0912958 0
M  V30 8 C -0.827009 -0.0302731 -1.33508 0
M  V30 9 C 0.538903 -0.0669446 -1.47217 0
M  V30 10 C 1.38785 0.019455 -0.363609 0
M  V30 11 C 2.81712 -0.0196337 -0.514681 0
M  V30 12 C 4.03043 -0.0739156 -0.645936 0
M  V30 13 Si 5.83551 -0.18639 -0.838668 0 VAL=4
M  V30 14 C 6.42958 1.39055 -1.59701 0
M  V30 15 C 6.66507 -0.52118 0.817338 0
M  V30 16 C 6.19215 -1.63656 -1.99179 0
M  V30 17 C 0.772664 0.142691 0.864871 0
M  V30 18 N 1.60155 0.232 2.00132 0
M  V30 19 C -0.604289 0.182817 1.0376 0
M  V30 20 N -1.1936 0.309798 2.31209 0
M  V30 21 H -7.50557 1.37935 1.51708 0
M  V30 22 H -6.36979 2.52082 0.615425 0
M  V30 23 H -5.78214 1.6546 2.0591 0
M  V30 24 H -7.20374 -1.96893 0.308188 0
M  V30 25 H -6.86035 -1.28239 1.98604 0
M  V30 26 H -5.58864 -2.15991 1.05094 0
M  V30 27 H -6.05073 1.02355 -2.1016 0
M  V30 28 H -7.64678 0.261069 -1.58901 0
M  V30 29 H -6.27515 -0.763113 -2.0668 0
M  V30 30 H -1.45892 -0.098293 -2.20053 0
M  V30 31 H 1.00389 -0.162173 -2.42357 0
M  V30 32 H 7.54083 1.4897 -1.5002 0
M  V30 33 H 5.93154 2.27759 -1.17713 0
M  V30 34 H 6.21221 1.33172 -2.70309 0
M  V30 35 H 5.95449 -0.229654 1.60335 0
M  V30 36 H 7.53441 0.162777 0.902965 0
M  V30 37 H 6.92119 -1.57399 0.942609 0
M  V30 38 H 7.24762 -1.94211 -1.91835 0
M  V30 39 H 5.91048 -1.28708 -3.01845 0
M  V30 40 H 5.47835 -2.43307 -1.69222 0
M  V30 41 H 1.92743 1.1593 2.32968 0
M  V30 42 H 1.9009 -0.607332 2.52746 0
M  V30 43 H -1.76199 1.14175 2.5298 0
M  V30 44 H -1.06113 -0.420699 3.02645 0
M  V30 END ATOM
M  V30 BEGIN BOND
M  V30 1 1 1 2
M  V30 2 1 2 3
M  V30 3 1 2 4
M  V30 4 1 2 5
M  V30 5 3 5 6
M  V30 6 1 6 7
M  V30 7 2 7 8
M  V30 8 1 8 9
M  V30 9 2 9 10
M  V30 10 1 10 11
M  V30 11 3 11 12
M  V30 12 1 12 13
M  V30 13 1 13 14
M  V30 14 1 13 15
M  V30 15 1 13 16
M  V30 16 1 10 17
M  V30 17 1 17 18
M  V30 18 2 17 19
M  V30 19 1 19 20
M  V30 20 1 19 7
M  V30 21 1 1 21
M  V30 22 1 1 22
M  V30 23 1 1 23
M  V30 24 1 3 24
M  V30 25 1 3 25
M  V30 26 1 3 26
M  V30 27 1 4 27
M  V30 28 1 4 28
M  V30 29 1 4 29
M  V30 30 1 8 30
M  V30 31 1 9 31
M  V30 32 1 14 32
M  V30 33 1 14 33
M  V30 34 1 14 34
M  V30 35 1 15 35
M  V30 36 1 15 36
M  V30 37 1 15 37
M  V30 38 1 16 38
M  V30 39 1 16 39
M  V30 40 1 16 40
M  V30 41 1 18 41
M  V30 42 1 18 42
M  V30 43 1 20 43
M  V30 44 1 20 44
M  V30 END BOND
M  V30 END CTAB
M  END
