
     RDKit          3D

  0  0  0  0  0  0  0  0  0  0999 V3000
M  V30 BEGIN CTAB
M  V30 COUNTS 24 24 0 0 0
M  V30 BEGIN ATOM
M  V30 1 C 1.20197 -2.11711 1.34021 0
M  V30 2 O 0.564356 -0.901032 1.68102 0
M  V30 3 C 0.343852 0.124442 0.774331 0
M  V30 4 C 1.35222 1.07146 0.657165 0
M  V30 5 N 2.52842 0.967244 1.43443 0
M  V30 6 C 1.1737 2.11 -0.234021 0
M  V30 7 C 0.0163158 2.21648 -1.00182 0
M  V30 8 C -0.969258 1.25467 -0.859883 0
M  V30 9 C -0.811291 0.205651 0.0270606 0
M  V30 10 O -1.82409 -0.716409 0.123169 0
M  V30 11 C -1.93126 -1.87515 -0.646362 0
M  V30 12 F -3.02139 -1.79973 -1.53037 0
M  V30 13 F -2.09827 -3.03497 0.0425533 0
M  V30 14 N -2.13993 1.3431 -1.62183 0
M  V30 15 H 2.23376 -2.18577 1.7058 0
M  V30 16 H 0.64167 -2.99625 1.72897 0
M  V30 17 H 1.16711 -2.19819 0.215574 0
M  V30 18 H 2.50709 0.92016 2.46885 0
M  V30 19 H 3.44951 0.936085 0.962963 0
M  V30 20 H 1.97413 2.853 -0.320402 0
M  V30 21 H -0.118874 3.03152 -1.69834 0
M  V30 22 H -1.05027 -1.98335 -1.34309 0
M  V30 23 H -3.09787 1.14746 -1.26694 0
M  V30 24 H -2.0916 1.6267 -2.63905 0
M  V30 END ATOM
M  V30 BEGIN BOND
M  V30 1 1 1 2
M  V30 2 1 2 3
M  V30 3 2 3 4
M  V30 4 1 4 5
M  V30 5 1 4 6
M  V30 6 2 6 7
M  V30 7 1 7 8
M  V30 8 2 8 9
M  V30 9 1 9 10
M  V30 10 1 10 11
M  V30 11 1 11 12
M  V30 12 1 11 13
M  V30 13 1 8 14
M  V30 14 1 9 3
M  V30 15 1 1 15
M  V30 16 1 1 16
M  V30 17 1 1 17
M  V30 18 1 5 18
M  V30 19 1 5 19
M  V30 20 1 6 20
M  V30 21 1 7 21
M  V30 22 1 11 22
M  V30 23 1 14 23
M  V30 24 1 14 24
M  V30 END BOND
M  V30 END CTAB
M  END
