
     RDKit          3D

  0  0  0  0  0  0  0  0  0  0999 V3000
M  V30 BEGIN CTAB
M  V30 COUNTS 23 23 0 0 0
M  V30 BEGIN ATOM
M  V30 1 N -0.223382 0.659242 2.04318 0
M  V30 2 C -0.513795 -0.161494 0.909324 0
M  V30 3 C 0.740511 -0.700856 0.321679 0
M  V30 4 O 0.99069 -1.9272 -0.0746828 0
M  V30 5 N 2.21578 -2.00429 -0.536433 0
M  V30 6 C 2.8077 -0.792673 -0.447921 0
M  V30 7 N 1.86471 0.00213237 0.0910118 0
M  V30 8 N 4.11642 -0.401004 -0.822939 0
M  V30 9 C -1.33034 0.544553 -0.144929 0
M  V30 10 C -2.65259 1.0132 0.355599 0
M  V30 11 C -1.4211 -0.312797 -1.3831 0
M  V30 12 H -1.02133 0.729146 2.70315 0
M  V30 13 H 0.244785 1.54828 1.82335 0
M  V30 14 H -1.13907 -1.01838 1.27381 0
M  V30 15 H 4.93687 -0.879445 -0.405554 0
M  V30 16 H 4.26975 0.35962 -1.51106 0
M  V30 17 H -0.732353 1.4538 -0.445786 0
M  V30 18 H -2.50447 1.94047 0.940054 0
M  V30 19 H -3.28103 1.2831 -0.526492 0
M  V30 20 H -3.10388 0.197434 0.960029 0
M  V30 21 H -2.07102 -1.19964 -1.23605 0
M  V30 22 H -0.415045 -0.657298 -1.65226 0
M  V30 23 H -1.7778 0.324096 -2.23399 0
M  V30 END ATOM
M  V30 BEGIN BOND
M  V30 1 1 1 2
M  V30 2 1 2 3
M  V30 3 1 3 4
M  V30 4 1 4 5
M  V30 5 2 5 6
M  V30 6 1 6 7
M  V30 7 1 6 8
M  V30 8 1 2 9
M  V30 9 1 9 10
M  V30 10 1 9 11
M  V30 11 2 7 3
M  V30 12 1 1 12
M  V30 13 1 1 13
M  V30 14 1 2 14
M  V30 15 1 8 15
M  V30 16 1 8 16
M  V30 17 1 9 17
M  V30 18 1 10 18
M  V30 19 1 10 19
M  V30 20 1 10 20
M  V30 21 1 11 21
M  V30 22 1 11 22
M  V30 23 1 11 23
M  V30 END BOND
M  V30 END CTAB
M  END
