
     RDKit          3D

  0  0  0  0  0  0  0  0  0  0999 V3000
M  V30 BEGIN CTAB
M  V30 COUNTS 28 28 0 0 0
M  V30 BEGIN ATOM
M  V30 1 N 3.76794 -0.523569 0.651351 0
M  V30 2 C 3.34838 0.817224 0.269878 0
M  V30 3 C 1.90226 0.727212 -0.22272 0
M  V30 4 C 1.09995 0.197481 0.923272 0
M  V30 5 C -0.334602 0.0426735 0.628388 0
M  V30 6 C -1.22001 1.06524 0.857277 0
M  V30 7 C -2.58072 0.901672 0.571434 0
M  V30 8 C -3.0274 -0.292195 0.0586164 0
M  V30 9 C -2.16236 -1.32512 -0.177457 0
M  V30 10 C -0.815966 -1.13464 0.115895 0
M  V30 11 C -4.48204 -0.508223 -0.262071 0
M  V30 12 N 1.75659 -0.124606 -1.35433 0
M  V30 13 H 3.57213 -0.728631 1.65869 0
M  V30 14 H 4.81994 -0.621382 0.541583 0
M  V30 15 H 4.02157 1.24261 -0.469206 0
M  V30 16 H 3.29168 1.45591 1.19577 0
M  V30 17 H 1.5189 1.72998 -0.487554 0
M  V30 18 H 1.18772 0.956276 1.75471 0
M  V30 19 H 1.54422 -0.732759 1.35401 0
M  V30 20 H -0.931237 2.02073 1.2563 0
M  V30 21 H -3.29996 1.6798 0.738084 0
M  V30 22 H -2.50614 -2.28627 -0.587668 0
M  V30 23 H -0.101474 -1.94182 -0.0622042 0
M  V30 24 H -4.53359 -0.956925 -1.25812 0
M  V30 25 H -5.04583 0.424592 -0.261934 0
M  V30 26 H -4.83594 -1.24213 0.504167 0
M  V30 27 H 2.09658 0.274005 -2.25071 0
M  V30 28 H 1.94942 -1.11712 -1.20758 0
M  V30 END ATOM
M  V30 BEGIN BOND
M  V30 1 1 1 2
M  V30 2 1 2 3
M  V30 3 1 3 4
M  V30 4 1 4 5
M  V30 5 2 5 6
M  V30 6 1 6 7
M  V30 7 2 7 8
M  V30 8 1 8 9
M  V30 9 2 9 10
M  V30 10 1 8 11
M  V30 11 1 3 12
M  V30 12 1 10 5
M  V30 13 1 1 13
M  V30 14 1 1 14
M  V30 15 1 2 15
M  V30 16 1 2 16
M  V30 17 1 3 17
M  V30 18 1 4 18
M  V30 19 1 4 19
M  V30 20 1 6 20
M  V30 21 1 7 21
M  V30 22 1 9 22
M  V30 23 1 10 23
M  V30 24 1 11 24
M  V30 25 1 11 25
M  V30 26 1 11 26
M  V30 27 1 12 27
M  V30 28 1 12 28
M  V30 END BOND
M  V30 END CTAB
M  END
