
     RDKit          3D

  0  0  0  0  0  0  0  0  0  0999 V3000
M  V30 BEGIN CTAB
M  V30 COUNTS 55 58 0 0 0
M  V30 BEGIN ATOM
M  V30 1 C -5.57449 -1.63699 3.17586 0
M  V30 2 O -5.26758 -1.95918 1.83258 0
M  V30 3 C -4.07042 -1.58885 1.23874 0
M  V30 4 C -2.98605 -2.43774 1.30754 0
M  V30 5 O -3.0932 -3.66043 1.96967 0
M  V30 6 C -1.99763 -4.55242 2.05676 0
M  V30 7 C -1.78194 -2.1156 0.736479 0
M  V30 8 C -1.57498 -0.907412 0.0482326 0
M  V30 9 C -2.65153 -0.0843027 -0.0108181 0
M  V30 10 C -3.89385 -0.408674 0.574595 0
M  V30 11 O -4.9686 0.451875 0.496367 0
M  V30 12 C -5.02821 1.69096 -0.118677 0
M  V30 13 C -0.273794 -0.652169 -0.550325 0
M  V30 14 N 0.724164 -1.62226 -0.596279 0
M  V30 15 N 1.78605 -1.11056 -1.16435 0
M  V30 16 C 1.56507 0.158991 -1.50849 0
M  V30 17 N 0.26602 0.408805 -1.10735 0
M  V30 18 C -0.290175 1.70557 -1.30914 0
M  V30 19 C -0.826822 2.08484 -2.54481 0
M  V30 20 C -1.32074 3.3544 -2.75271 0
M  V30 21 C -1.31443 4.31479 -1.764 0
M  V30 22 C -0.789872 3.95448 -0.545496 0
M  V30 23 C -0.293453 2.69191 -0.323037 0
M  V30 24 F 0.226616 2.32972 0.879999 0
M  V30 25 S 2.68213 1.31051 -2.31361 0
M  V30 26 C 4.27418 0.525861 -2.64576 0
M  V30 27 C 5.01952 0.183404 -1.41037 0
M  V30 28 N 4.90285 -0.993232 -0.773275 0
M  V30 29 C 5.57257 -1.30438 0.33881 0
M  V30 30 N 5.39659 -2.56219 0.951022 0
M  V30 31 N 6.41077 -0.394602 0.853666 0
M  V30 32 C 6.57767 0.803499 0.269746 0
M  V30 33 N 5.88643 1.07373 -0.843688 0
M  V30 34 N 7.47241 1.72172 0.85476 0
M  V30 35 H -5.14959 -2.36797 3.87102 0
M  V30 36 H -5.18977 -0.626909 3.46595 0
M  V30 37 H -6.6694 -1.59206 3.35298 0
M  V30 38 H -1.06382 -4.0425 2.39115 0
M  V30 39 H -1.79657 -4.91297 1.02673 0
M  V30 40 H -2.23272 -5.43262 2.68682 0
M  V30 41 H -0.935386 -2.78016 0.792791 0
M  V30 42 H -2.61286 0.839939 -0.514764 0
M  V30 43 H -4.89875 2.52577 0.631981 0
M  V30 44 H -6.0512 1.77374 -0.592318 0
M  V30 45 H -4.31611 1.87896 -0.919431 0
M  V30 46 H -0.842724 1.3365 -3.34823 0
M  V30 47 H -1.74296 3.6521 -3.72524 0
M  V30 48 H -1.71363 5.29589 -1.97748 0
M  V30 49 H -0.774487 4.68858 0.241781 0
M  V30 50 H 4.13703 -0.383177 -3.30127 0
M  V30 51 H 4.84763 1.2413 -3.26679 0
M  V30 52 H 5.07688 -2.55985 1.96547 0
M  V30 53 H 5.56886 -3.47774 0.443438 0
M  V30 54 H 8.43061 1.46226 1.16612 0
M  V30 55 H 7.16368 2.70688 0.983067 0
M  V30 END ATOM
M  V30 BEGIN BOND
M  V30 1 1 1 2
M  V30 2 1 2 3
M  V30 3 2 3 4
M  V30 4 1 4 5
M  V30 5 1 5 6
M  V30 6 1 4 7
M  V30 7 2 7 8
M  V30 8 1 8 9
M  V30 9 2 9 10
M  V30 10 1 10 11
M  V30 11 1 11 12
M  V30 12 1 8 13
M  V30 13 2 13 14
M  V30 14 1 14 15
M  V30 15 2 15 16
M  V30 16 1 16 17
M  V30 17 1 17 18
M  V30 18 2 18 19
M  V30 19 1 19 20
M  V30 20 2 20 21
M  V30 21 1 21 22
M  V30 22 2 22 23
M  V30 23 1 23 24
M  V30 24 1 16 25
M  V30 25 1 25 26
M  V30 26 1 26 27
M  V30 27 2 27 28
M  V30 28 1 28 29
M  V30 29 1 29 30
M  V30 30 2 29 31
M  V30 31 1 31 32
M  V30 32 2 32 33
M  V30 33 1 32 34
M  V30 34 1 10 3
M  V30 35 1 17 13
M  V30 36 1 23 18
M  V30 37 1 33 27
M  V30 38 1 1 35
M  V30 39 1 1 36
M  V30 40 1 1 37
M  V30 41 1 6 38
M  V30 42 1 6 39
M  V30 43 1 6 40
M  V30 44 1 7 41
M  V30 45 1 9 42
M  V30 46 1 12 43
M  V30 47 1 12 44
M  V30 48 1 12 45
M  V30 49 1 19 46
M  V30 50 1 20 47
M  V30 51 1 21 48
M  V30 52 1 22 49
M  V30 53 1 26 50
M  V30 54 1 26 51
M  V30 55 1 30 52
M  V30 56 1 30 53
M  V30 57 1 34 54
M  V30 58 1 34 55
M  V30 END BOND
M  V30 END CTAB
M  END
