
     RDKit          3D

  0  0  0  0  0  0  0  0  0  0999 V3000
M  V30 BEGIN CTAB
M  V30 COUNTS 31 31 0 0 0
M  V30 BEGIN ATOM
M  V30 1 N 3.25097 1.50123 1.2616 0
M  V30 2 N 2.08171 0.7609 1.14873 0
M  V30 3 C 1.73436 0.111198 0.094158 0
M  V30 4 N 0.520049 -0.605797 0.100149 0
M  V30 5 C 0.558783 -2.01251 0.445995 0
M  V30 6 C -0.687172 -2.67364 -0.152718 0
M  V30 7 C -1.8605 -2.02063 0.5034 0
M  V30 8 C -1.92954 -0.535143 0.371733 0
M  V30 9 C -0.704931 0.0731326 -0.237224 0
M  V30 10 C -0.608913 1.55107 -0.0959761 0
M  V30 11 O 0.366147 2.12226 -0.914143 0
M  V30 12 C -1.86536 2.32288 -0.307389 0
M  V30 13 N 2.63151 0.166343 -1.01812 0
M  V30 14 H 4.08753 1.19932 0.729978 0
M  V30 15 H 3.32099 2.34532 1.85729 0
M  V30 16 H 1.41834 -2.54428 0.0399423 0
M  V30 17 H 0.516033 -2.15377 1.5399 0
M  V30 18 H -0.732215 -2.52966 -1.23839 0
M  V30 19 H -0.671813 -3.73361 0.167156 0
M  V30 20 H -2.81984 -2.51017 0.15403 0
M  V30 21 H -1.8146 -2.3395 1.58987 0
M  V30 22 H -2.18455 -0.135657 1.37012 0
M  V30 23 H -2.79639 -0.306661 -0.307599 0
M  V30 24 H -0.821877 -0.116495 -1.35282 0
M  V30 25 H -0.277062 1.77527 0.947157 0
M  V30 26 H -0.0303091 2.12318 -1.83754 0
M  V30 27 H -2.78881 1.81489 -0.0588067 0
M  V30 28 H -1.85291 3.26697 0.297939 0
M  V30 29 H -1.95235 2.67272 -1.36692 0
M  V30 30 H 3.05714 1.09187 -1.24145 0
M  V30 31 H 2.85556 -0.681016 -1.58732 0
M  V30 END ATOM
M  V30 BEGIN BOND
M  V30 1 1 1 2
M  V30 2 2 2 3 CFG=2
M  V30 3 1 3 4
M  V30 4 1 4 5
M  V30 5 1 5 6
M  V30 6 1 6 7
M  V30 7 1 7 8
M  V30 8 1 8 9
M  V30 9 1 9 10
M  V30 10 1 10 11
M  V30 11 1 10 12
M  V30 12 1 3 13
M  V30 13 1 9 4
M  V30 14 1 1 14
M  V30 15 1 1 15
M  V30 16 1 5 16
M  V30 17 1 5 17
M  V30 18 1 6 18
M  V30 19 1 6 19
M  V30 20 1 7 20
M  V30 21 1 7 21
M  V30 22 1 8 22
M  V30 23 1 8 23
M  V30 24 1 9 24
M  V30 25 1 10 25
M  V30 26 1 11 26
M  V30 27 1 12 27
M  V30 28 1 12 28
M  V30 29 1 12 29
M  V30 30 1 13 30
M  V30 31 1 13 31
M  V30 END BOND
M  V30 END CTAB
M  END
