
     RDKit          3D

  0  0  0  0  0  0  0  0  0  0999 V3000
M  V30 BEGIN CTAB
M  V30 COUNTS 38 39 0 0 0
M  V30 BEGIN ATOM
M  V30 1 N -1.1747 -0.259715 1.7874 0
M  V30 2 C -0.75029 -0.105736 0.394173 0
M  V30 3 C -0.950105 1.28609 -0.103479 0
M  V30 4 C -2.32491 1.74959 0.232402 0
M  V30 5 C -3.4118 0.79757 -0.0975295 0
M  V30 6 C -3.08143 -0.641785 0.0506685 0
M  V30 7 C -1.67419 -0.987305 -0.421823 0
M  V30 8 C 0.681899 -0.577817 0.318983 0
M  V30 9 N 0.687972 -1.97698 0.740921 0
M  V30 10 C 1.21749 -0.537779 -1.09221 0
M  V30 11 C 2.67834 -0.86828 -1.08274 0
M  V30 12 C 3.50957 0.182816 -0.386764 0
M  V30 13 C 2.60823 1.01741 0.480342 0
M  V30 14 C 1.58359 0.202341 1.21388 0
M  V30 15 H -0.652881 -0.994991 2.27241 0
M  V30 16 H -1.26842 0.638239 2.27882 0
M  V30 17 H -0.215254 2.01255 0.265818 0
M  V30 18 H -0.876783 1.24821 -1.22531 0
M  V30 19 H -2.50918 2.69194 -0.363287 0
M  V30 20 H -2.33049 2.10026 1.29771 0
M  V30 21 H -3.80489 0.948473 -1.14201 0
M  V30 22 H -4.27504 1.01646 0.597871 0
M  V30 23 H -3.23228 -0.942428 1.12258 0
M  V30 24 H -3.8432 -1.22966 -0.519878 0
M  V30 25 H -1.51108 -2.05393 -0.257095 0
M  V30 26 H -1.63611 -0.70026 -1.49229 0
M  V30 27 H 1.55911 -2.22124 1.23151 0
M  V30 28 H 0.476379 -2.62521 -0.0456968 0
M  V30 29 H 1.09782 0.474695 -1.53233 0
M  V30 30 H 0.711128 -1.27056 -1.75291 0
M  V30 31 H 2.87531 -1.86012 -0.631624 0
M  V30 32 H 3.02201 -0.908916 -2.14284 0
M  V30 33 H 4.30404 -0.294788 0.201435 0
M  V30 34 H 3.97351 0.887783 -1.13034 0
M  V30 35 H 3.23795 1.52169 1.24953 0
M  V30 36 H 2.14871 1.82751 -0.117053 0
M  V30 37 H 1.02559 0.922274 1.87332 0
M  V30 38 H 2.12438 -0.468414 1.92389 0
M  V30 END ATOM
M  V30 BEGIN BOND
M  V30 1 1 1 2
M  V30 2 1 2 3
M  V30 3 1 3 4
M  V30 4 1 4 5
M  V30 5 1 5 6
M  V30 6 1 6 7
M  V30 7 1 2 8
M  V30 8 1 8 9
M  V30 9 1 8 10
M  V30 10 1 10 11
M  V30 11 1 11 12
M  V30 12 1 12 13
M  V30 13 1 13 14
M  V30 14 1 7 2
M  V30 15 1 14 8
M  V30 16 1 1 15
M  V30 17 1 1 16
M  V30 18 1 3 17
M  V30 19 1 3 18
M  V30 20 1 4 19
M  V30 21 1 4 20
M  V30 22 1 5 21
M  V30 23 1 5 22
M  V30 24 1 6 23
M  V30 25 1 6 24
M  V30 26 1 7 25
M  V30 27 1 7 26
M  V30 28 1 9 27
M  V30 29 1 9 28
M  V30 30 1 10 29
M  V30 31 1 10 30
M  V30 32 1 11 31
M  V30 33 1 11 32
M  V30 34 1 12 33
M  V30 35 1 12 34
M  V30 36 1 13 35
M  V30 37 1 13 36
M  V30 38 1 14 37
M  V30 39 1 14 38
M  V30 END BOND
M  V30 END CTAB
M  END
