
     RDKit          3D

  0  0  0  0  0  0  0  0  0  0999 V3000
M  V30 BEGIN CTAB
M  V30 COUNTS 30 31 0 0 0
M  V30 BEGIN ATOM
M  V30 1 N -5.17003 0.360043 0.679826 0
M  V30 2 C -3.78341 0.25424 0.466037 0
M  V30 3 C -2.84305 0.542267 1.43259 0
M  V30 4 C -1.48944 0.431235 1.19989 0
M  V30 5 C -1.03567 0.0181684 -0.0393413 0
M  V30 6 C -1.97265 -0.279509 -1.03543 0
M  V30 7 C -3.33576 -0.157597 -0.769885 0
M  V30 8 N -4.27578 -0.459128 -1.77811 0
M  V30 9 F -1.52397 -0.683633 -2.24743 0
M  V30 10 O 0.318226 -0.107905 -0.318507 0
M  V30 11 C 1.23516 0.193973 0.688942 0
M  V30 12 C 2.64684 0.0120634 0.241802 0
M  V30 13 C 2.96396 -0.408813 -1.03359 0
M  V30 14 C 4.28354 -0.570496 -1.42576 0
M  V30 15 C 5.33725 -0.318771 -0.561449 0
M  V30 16 C 5.01778 0.100795 0.709699 0
M  V30 17 C 3.70565 0.261067 1.09812 0
M  V30 18 H -5.83693 0.848103 0.0404374 0
M  V30 19 H -5.5583 -0.0877587 1.55025 0
M  V30 20 H -3.1655 0.867608 2.41147 0
M  V30 21 H -0.737386 0.655853 1.95518 0
M  V30 22 H -4.08529 -1.19784 -2.4734 0
M  V30 23 H -5.16305 0.0672156 -1.81762 0
M  V30 24 H 1.06213 -0.497525 1.5338 0
M  V30 25 H 1.08286 1.22825 1.07116 0
M  V30 26 H 2.15141 -0.611761 -1.72739 0
M  V30 27 H 4.5496 -0.903204 -2.43269 0
M  V30 28 H 6.36498 -0.451186 -0.886972 0
M  V30 29 H 5.82235 0.301906 1.39717 0
M  V30 30 H 3.43447 0.592345 2.10023 0
M  V30 END ATOM
M  V30 BEGIN BOND
M  V30 1 1 1 2
M  V30 2 2 2 3
M  V30 3 1 3 4
M  V30 4 2 4 5
M  V30 5 1 5 6
M  V30 6 2 6 7
M  V30 7 1 7 8
M  V30 8 1 6 9
M  V30 9 1 5 10
M  V30 10 1 10 11
M  V30 11 1 11 12
M  V30 12 2 12 13
M  V30 13 1 13 14
M  V30 14 2 14 15
M  V30 15 1 15 16
M  V30 16 2 16 17
M  V30 17 1 7 2
M  V30 18 1 17 12
M  V30 19 1 1 18
M  V30 20 1 1 19
M  V30 21 1 3 20
M  V30 22 1 4 21
M  V30 23 1 8 22
M  V30 24 1 8 23
M  V30 25 1 11 24
M  V30 26 1 11 25
M  V30 27 1 13 26
M  V30 28 1 14 27
M  V30 29 1 15 28
M  V30 30 1 16 29
M  V30 31 1 17 30
M  V30 END BOND
M  V30 END CTAB
M  END
