
     RDKit          3D

  0  0  0  0  0  0  0  0  0  0999 V3000
M  V30 BEGIN CTAB
M  V30 COUNTS 27 27 0 0 0
M  V30 BEGIN ATOM
M  V30 1 N 4.08454 0.245229 -0.678752 0
M  V30 2 C 2.70001 -0.0190521 -0.493149 0
M  V30 3 C 2.1184 -1.16608 -0.989352 0
M  V30 4 C 0.785874 -1.44883 -0.826307 0
M  V30 5 C -0.0730577 -0.574686 -0.13567 0
M  V30 6 C 0.503319 0.570055 0.360251 0
M  V30 7 C 1.86856 0.837367 0.180928 0
M  V30 8 S -0.473237 1.71646 1.22287 0
M  V30 9 O -0.912851 1.26594 2.55338 0
M  V30 10 O 0.38937 2.96966 1.44039 0
M  V30 11 N -1.82656 2.27222 0.32088 0
M  V30 12 N -1.44256 -0.921901 0.00780645 0
M  V30 13 C -1.95076 -1.33804 1.28718 0
M  V30 14 C -2.3699 -0.873483 -1.10584 0
M  V30 15 H 4.47178 1.00173 -1.25723 0
M  V30 16 H 4.79293 -0.37396 -0.191723 0
M  V30 17 H 2.7642 -1.86852 -1.53367 0
M  V30 18 H 0.327814 -2.35813 -1.22039 0
M  V30 19 H 2.30341 1.75126 0.583141 0
M  V30 20 H -1.67278 2.21513 -0.708847 0
M  V30 21 H -2.10337 3.24786 0.54826 0
M  V30 22 H -2.44122 -2.3474 1.11281 0
M  V30 23 H -2.78333 -0.704438 1.67339 0
M  V30 24 H -1.16898 -1.53306 2.0473 0
M  V30 25 H -1.93687 -0.259846 -1.93285 0
M  V30 26 H -2.61371 -1.8946 -1.46411 0
M  V30 27 H -3.34104 -0.410895 -0.800692 0
M  V30 END ATOM
M  V30 BEGIN BOND
M  V30 1 1 1 2
M  V30 2 2 2 3
M  V30 3 1 3 4
M  V30 4 2 4 5
M  V30 5 1 5 6
M  V30 6 2 6 7
M  V30 7 1 6 8
M  V30 8 2 8 9
M  V30 9 2 8 10
M  V30 10 1 8 11
M  V30 11 1 5 12
M  V30 12 1 12 13
M  V30 13 1 12 14
M  V30 14 1 7 2
M  V30 15 1 1 15
M  V30 16 1 1 16
M  V30 17 1 3 17
M  V30 18 1 4 18
M  V30 19 1 7 19
M  V30 20 1 11 20
M  V30 21 1 11 21
M  V30 22 1 13 22
M  V30 23 1 13 23
M  V30 24 1 13 24
M  V30 25 1 14 25
M  V30 26 1 14 26
M  V30 27 1 14 27
M  V30 END BOND
M  V30 END CTAB
M  END
