
     RDKit          3D

  0  0  0  0  0  0  0  0  0  0999 V3000
M  V30 BEGIN CTAB
M  V30 COUNTS 28 29 0 0 0
M  V30 BEGIN ATOM
M  V30 1 N -4.29162 1.30374 -0.723691 0
M  V30 2 C -3.03818 0.64499 -0.526224 0
M  V30 3 C -1.86786 1.23854 -0.922876 0
M  V30 4 C -0.644299 0.596329 -0.730428 0
M  V30 5 C -0.546989 -0.646687 -0.141767 0
M  V30 6 C -1.76193 -1.22562 0.251938 0
M  V30 7 C -2.97054 -0.597018 0.0645291 0
M  V30 8 N -4.1791 -1.22254 0.480168 0
M  V30 9 S 0.97604 -1.51542 0.139844 0
M  V30 10 C 2.34965 -0.511929 -0.398733 0
M  V30 11 C 3.68706 -1.24667 -0.248322 0
M  V30 12 O 4.65953 -0.296175 -0.100343 0
M  V30 13 C 4.08342 0.906496 0.203852 0
M  V30 14 C 2.63595 0.607833 0.616394 0
M  V30 15 H -4.58063 2.11458 -0.131533 0
M  V30 16 H -4.94995 0.984915 -1.47102 0
M  V30 17 H -1.89286 2.21337 -1.38935 0
M  V30 18 H 0.268102 1.07681 -1.05386 0
M  V30 19 H -1.71175 -2.19997 0.715896 0
M  V30 20 H -4.19442 -2.14354 0.980324 0
M  V30 21 H -5.10333 -0.790056 0.304367 0
M  V30 22 H 2.30208 -0.123035 -1.41526 0
M  V30 23 H 3.87384 -1.90351 -1.12807 0
M  V30 24 H 3.67126 -1.87116 0.667785 0
M  V30 25 H 4.02222 1.52652 -0.717839 0
M  V30 26 H 4.60638 1.4884 0.987858 0
M  V30 27 H 2.59639 0.115857 1.61225 0
M  V30 28 H 2.00154 1.47496 0.508045 0
M  V30 END ATOM
M  V30 BEGIN BOND
M  V30 1 1 1 2
M  V30 2 2 2 3
M  V30 3 1 3 4
M  V30 4 2 4 5
M  V30 5 1 5 6
M  V30 6 2 6 7
M  V30 7 1 7 8
M  V30 8 1 5 9
M  V30 9 1 9 10
M  V30 10 1 10 11
M  V30 11 1 11 12
M  V30 12 1 12 13
M  V30 13 1 13 14
M  V30 14 1 7 2
M  V30 15 1 14 10
M  V30 16 1 1 15
M  V30 17 1 1 16
M  V30 18 1 3 17
M  V30 19 1 4 18
M  V30 20 1 6 19
M  V30 21 1 8 20
M  V30 22 1 8 21
M  V30 23 1 10 22
M  V30 24 1 11 23
M  V30 25 1 11 24
M  V30 26 1 13 25
M  V30 27 1 13 26
M  V30 28 1 14 27
M  V30 29 1 14 28
M  V30 END BOND
M  V30 END CTAB
M  END
