
     RDKit          3D

  0  0  0  0  0  0  0  0  0  0999 V3000
M  V30 BEGIN CTAB
M  V30 COUNTS 37 39 0 0 0
M  V30 BEGIN ATOM
M  V30 1 N -1.50711 -0.976477 1.67319 0
M  V30 2 C -1.99935 0.159204 0.989366 0
M  V30 3 N -2.84037 0.950318 1.67401 0
M  V30 4 C -3.35256 2.043 1.12634 0
M  V30 5 C -3.00861 2.35766 -0.161783 0
M  V30 6 C -2.14872 1.55244 -0.868698 0
M  V30 7 C -1.59883 0.392579 -0.300176 0
M  V30 8 C -0.756695 -0.428104 -1.13755 0 CFG=1
M  V30 9 C -0.173249 0.483973 -2.24146 0
M  V30 10 C 0.708614 1.49895 -1.63419 0
M  V30 11 C 1.54042 0.964694 -0.552463 0
M  V30 12 C 1.37646 -0.309113 -0.0413612 0
M  V30 13 N 0.351918 -1.15311 -0.623518 0
M  V30 14 S 0.646025 -2.81381 -0.715258 0
M  V30 15 O 0.663498 -3.23013 -2.2304 0
M  V30 16 O 2.0607 -3.23183 -0.317623 0
M  V30 17 N -0.410039 -3.89733 -0.00628052 0
M  V30 18 C 2.20005 -0.702536 0.979021 0
M  V30 19 C 3.17785 0.125542 1.50604 0
M  V30 20 C 3.35176 1.38997 1.00898 0
M  V30 21 C 2.52921 1.80644 -0.0223209 0
M  V30 22 H -0.658531 -0.866874 2.25851 0
M  V30 23 H -1.94903 -1.91382 1.63019 0
M  V30 24 H -4.02539 2.69081 1.65769 0
M  V30 25 H -3.42861 3.2641 -0.627014 0
M  V30 26 H -1.95217 1.88427 -1.87912 0
M  V30 27 H -1.45336 -1.07639 -1.73876 0
M  V30 28 H 0.538886 -0.250632 -2.78566 0
M  V30 29 H -0.893475 0.791428 -2.98404 0
M  V30 30 H 1.37387 1.98219 -2.43712 0
M  V30 31 H 0.21672 2.40533 -1.20318 0
M  V30 32 H -0.0209978 -4.60128 0.624131 0
M  V30 33 H -1.21421 -4.24489 -0.515473 0
M  V30 34 H 2.04717 -1.69848 1.37236 0
M  V30 35 H 3.80368 -0.212104 2.30323 0
M  V30 36 H 4.12461 2.05628 1.42116 0
M  V30 37 H 2.67984 2.80773 -0.400127 0
M  V30 END ATOM
M  V30 BEGIN BOND
M  V30 1 1 1 2
M  V30 2 2 2 3
M  V30 3 1 3 4
M  V30 4 2 4 5
M  V30 5 1 5 6
M  V30 6 2 6 7
M  V30 7 1 7 8
M  V30 8 1 8 9
M  V30 9 1 9 10
M  V30 10 1 10 11
M  V30 11 2 11 12
M  V30 12 1 12 13
M  V30 13 1 13 14
M  V30 14 2 14 15
M  V30 15 2 14 16
M  V30 16 1 14 17
M  V30 17 1 12 18
M  V30 18 2 18 19
M  V30 19 1 19 20
M  V30 20 2 20 21
M  V30 21 1 7 2
M  V30 22 1 13 8
M  V30 23 1 21 11
M  V30 24 1 1 22
M  V30 25 1 1 23
M  V30 26 1 4 24
M  V30 27 1 5 25
M  V30 28 1 6 26
M  V30 29 1 8 27 CFG=3
M  V30 30 1 9 28
M  V30 31 1 9 29
M  V30 32 1 10 30
M  V30 33 1 10 31
M  V30 34 1 17 32
M  V30 35 1 17 33
M  V30 36 1 18 34
M  V30 37 1 19 35
M  V30 38 1 20 36
M  V30 39 1 21 37
M  V30 END BOND
M  V30 END CTAB
M  END
