
     RDKit          3D

  0  0  0  0  0  0  0  0  0  0999 V3000
M  V30 BEGIN CTAB
M  V30 COUNTS 45 47 0 0 0
M  V30 BEGIN ATOM
M  V30 1 N -2.52409 -2.87444 -3.22241 0
M  V30 2 C -2.26993 -2.43378 -1.87759 0
M  V30 3 N -2.82236 -1.44252 -1.33816 0
M  V30 4 C -2.62465 -0.946677 -0.00213951 0
M  V30 5 N -1.58739 -1.62048 0.665605 0
M  V30 6 C -0.996729 -1.28123 1.95621 0
M  V30 7 C -0.111919 -0.0942007 1.97318 0
M  V30 8 C 1.08757 -0.229716 1.05539 0
M  V30 9 O 1.87293 0.930179 1.12324 0
M  V30 10 C 3.03687 1.11852 0.403316 0
M  V30 11 C 3.75012 2.28673 0.52629 0
M  V30 12 C 4.91256 2.46031 -0.200406 0
M  V30 13 C 5.38777 1.47106 -1.06555 0
M  V30 14 Cl 6.87283 1.74003 -1.96882 0
M  V30 15 C 4.66839 0.30312 -1.18399 0
M  V30 16 C 3.51288 0.148368 -0.452152 0
M  V30 17 C -0.962393 -2.77067 0.0555583 0
M  V30 18 N 0.0448874 -3.53385 0.7693 0
M  V30 19 N -1.28809 -3.13378 -1.12787 0
M  V30 20 C -2.61846 0.529527 -0.0395898 0
M  V30 21 C -3.37768 1.25759 0.849536 0
M  V30 22 C -3.44632 2.62858 0.848809 0
M  V30 23 C -2.70681 3.29507 -0.102538 0
M  V30 24 C -1.93915 2.57776 -1.00297 0
M  V30 25 Cl -1.01619 3.47078 -2.19547 0
M  V30 26 C -1.8869 1.20425 -0.982123 0
M  V30 27 F -1.1127 0.522219 -1.90066 0
M  V30 28 H -2.62057 -2.20907 -4.00989 0
M  V30 29 H -2.60406 -3.91854 -3.3461 0
M  V30 30 H -3.58626 -1.2266 0.589884 0
M  V30 31 H -0.428519 -2.12846 2.38973 0
M  V30 32 H -1.87658 -1.1713 2.65201 0
M  V30 33 H 0.349133 -0.07495 3.0168 0
M  V30 34 H -0.566166 0.869237 1.84337 0
M  V30 35 H 1.76073 -1.06286 1.42112 0
M  V30 36 H 0.844229 -0.469212 0.0190456 0
M  V30 37 H 3.40588 3.0776 1.1922 0
M  V30 38 H 5.50129 3.36216 -0.131718 0
M  V30 39 H 5.02138 -0.468187 -1.84616 0
M  V30 40 H 2.94683 -0.789604 -0.554795 0
M  V30 41 H 1.02421 -3.57414 0.465235 0
M  V30 42 H -0.215933 -4.07288 1.63257 0
M  V30 43 H -3.9832 0.744402 1.62643 0
M  V30 44 H -4.07046 3.15121 1.58414 0
M  V30 45 H -2.75698 4.37849 -0.107892 0
M  V30 END ATOM
M  V30 BEGIN BOND
M  V30 1 1 1 2
M  V30 2 2 2 3
M  V30 3 1 3 4
M  V30 4 1 4 5
M  V30 5 1 5 6
M  V30 6 1 6 7
M  V30 7 1 7 8
M  V30 8 1 8 9
M  V30 9 1 9 10
M  V30 10 2 10 11
M  V30 11 1 11 12
M  V30 12 2 12 13
M  V30 13 1 13 14
M  V30 14 1 13 15
M  V30 15 2 15 16
M  V30 16 1 5 17
M  V30 17 1 17 18
M  V30 18 2 17 19
M  V30 19 1 4 20
M  V30 20 2 20 21
M  V30 21 1 21 22
M  V30 22 2 22 23
M  V30 23 1 23 24
M  V30 24 1 24 25
M  V30 25 2 24 26
M  V30 26 1 26 27
M  V30 27 1 19 2
M  V30 28 1 26 20
M  V30 29 1 16 10
M  V30 30 1 1 28
M  V30 31 1 1 29
M  V30 32 1 4 30
M  V30 33 1 6 31
M  V30 34 1 6 32
M  V30 35 1 7 33
M  V30 36 1 7 34
M  V30 37 1 8 35
M  V30 38 1 8 36
M  V30 39 1 11 37
M  V30 40 1 12 38
M  V30 41 1 15 39
M  V30 42 1 16 40
M  V30 43 1 18 41
M  V30 44 1 18 42
M  V30 45 1 21 43
M  V30 46 1 22 44
M  V30 47 1 23 45
M  V30 END BOND
M  V30 END CTAB
M  END
