
     RDKit          3D

  0  0  0  0  0  0  0  0  0  0999 V3000
M  V30 BEGIN CTAB
M  V30 COUNTS 26 26 0 0 0
M  V30 BEGIN ATOM
M  V30 1 C 4.4899 0.387912 0.623923 0
M  V30 2 O 3.20832 0.89651 0.325935 0
M  V30 3 C 2.27571 0.307094 -0.511219 0
M  V30 4 O 2.60516 -0.77461 -1.05666 0
M  V30 5 C 0.98227 0.905193 -0.749665 0
M  V30 6 C -0.209976 0.266239 -0.211112 0
M  V30 7 C -1.4267 0.809628 -0.665906 0
M  V30 8 C -2.64076 0.348294 -0.255774 0
M  V30 9 N -3.83788 0.954015 -0.752122 0
M  V30 10 C -2.71273 -0.707879 0.653231 0
M  V30 11 C -1.53049 -1.24641 1.10382 0
M  V30 12 C -0.304066 -0.756849 0.669879 0
M  V30 13 N 0.862409 -1.35335 1.18541 0
M  V30 14 C -4.01576 -1.15384 1.05362 0
M  V30 15 N -5.07189 -1.51452 1.35804 0
M  V30 16 H 4.53549 -0.71911 0.616969 0
M  V30 17 H 4.77673 0.780542 1.62443 0
M  V30 18 H 5.20626 0.812574 -0.140235 0
M  V30 19 H 0.923782 1.98686 -0.409879 0
M  V30 20 H 0.792486 1.02667 -1.86653 0
M  V30 21 H -1.41532 1.6441 -1.3797 0
M  V30 22 H -4.1097 1.8588 -0.294815 0
M  V30 23 H -4.38779 0.525605 -1.50917 0
M  V30 24 H -1.60268 -2.07609 1.81765 0
M  V30 25 H 1.51633 -0.879498 1.83533 0
M  V30 26 H 1.0909 -2.32787 0.903762 0
M  V30 END ATOM
M  V30 BEGIN BOND
M  V30 1 1 1 2
M  V30 2 1 2 3
M  V30 3 2 3 4
M  V30 4 1 3 5
M  V30 5 1 5 6
M  V30 6 2 6 7
M  V30 7 1 7 8
M  V30 8 1 8 9
M  V30 9 2 8 10
M  V30 10 1 10 11
M  V30 11 2 11 12
M  V30 12 1 12 13
M  V30 13 1 10 14
M  V30 14 3 14 15
M  V30 15 1 12 6
M  V30 16 1 1 16
M  V30 17 1 1 17
M  V30 18 1 1 18
M  V30 19 1 5 19
M  V30 20 1 5 20
M  V30 21 1 7 21
M  V30 22 1 9 22
M  V30 23 1 9 23
M  V30 24 1 11 24
M  V30 25 1 13 25
M  V30 26 1 13 26
M  V30 END BOND
M  V30 END CTAB
M  END
