
     RDKit          3D

  0  0  0  0  0  0  0  0  0  0999 V3000
M  V30 BEGIN CTAB
M  V30 COUNTS 19 19 0 0 0
M  V30 BEGIN ATOM
M  V30 1 N 2.81188 -1.15883 -0.0292237 0
M  V30 2 C 2.30364 0.178583 0.0350579 0
M  V30 3 C 0.815885 0.150493 -0.00028537 0
M  V30 4 C 0.100662 -1.02673 -0.0832475 0
M  V30 5 C -1.2781 -1.04022 -0.115302 0
M  V30 6 C -2.01624 0.12227 -0.0661575 0
M  V30 7 C -1.30577 1.30511 0.0170181 0
M  V30 8 C 0.0729162 1.31782 0.0490271 0
M  V30 9 I 1.16802 3.12935 0.176589 0
M  V30 10 N -3.44279 0.124422 -0.0983991 0
M  V30 11 H 3.80558 -1.22044 -0.311057 0
M  V30 12 H 2.52849 -1.76909 0.742553 0
M  V30 13 H 2.65592 0.612906 1.01638 0
M  V30 14 H 2.73541 0.757552 -0.807939 0
M  V30 15 H 0.685793 -1.94744 -0.122152 0
M  V30 16 H -1.82673 -1.97112 -0.180522 0
M  V30 17 H -1.85618 2.2309 0.0570045 0
M  V30 18 H -3.90613 -0.44698 -0.833864 0
M  V30 19 H -4.05225 0.651441 0.554523 0
M  V30 END ATOM
M  V30 BEGIN BOND
M  V30 1 1 1 2
M  V30 2 1 2 3
M  V30 3 2 3 4
M  V30 4 1 4 5
M  V30 5 2 5 6
M  V30 6 1 6 7
M  V30 7 2 7 8
M  V30 8 1 8 9
M  V30 9 1 6 10
M  V30 10 1 8 3
M  V30 11 1 1 11
M  V30 12 1 1 12
M  V30 13 1 2 13
M  V30 14 1 2 14
M  V30 15 1 4 15
M  V30 16 1 5 16
M  V30 17 1 7 17
M  V30 18 1 10 18
M  V30 19 1 10 19
M  V30 END BOND
M  V30 END CTAB
M  END
