
     RDKit          3D

  0  0  0  0  0  0  0  0  0  0999 V3000
M  V30 BEGIN CTAB
M  V30 COUNTS 44 45 0 0 0
M  V30 BEGIN ATOM
M  V30 1 O -0.469887 -2.27446 -0.261964 0
M  V30 2 C -0.341366 -1.0275 -0.0117601 0
M  V30 3 C -1.55111 -0.211099 -0.0870527 0
M  V30 4 C -1.96783 0.408494 1.22776 0
M  V30 5 C -2.85303 1.59706 0.895939 0
M  V30 6 C -3.75311 1.28056 -0.246053 0
M  V30 7 C -4.01965 -0.188511 -0.459312 0
M  V30 8 C -2.74672 -0.985035 -0.606342 0
M  V30 9 C -2.52635 -1.30702 -2.05734 0
M  V30 10 N -2.8989 -2.19163 0.187058 0
M  V30 11 N 0.942419 -0.561969 0.310551 0
M  V30 12 C 1.18085 0.836956 0.6004 0
M  V30 13 C 2.55744 1.17802 0.0260781 0
M  V30 14 N 3.528 0.484777 0.819225 0
M  V30 15 C 3.09744 -0.789737 1.30556 0
M  V30 16 C 2.10879 -1.43467 0.376283 0
M  V30 17 S 5.08752 0.45963 0.101775 0
M  V30 18 O 5.10567 -0.161063 -1.24765 0
M  V30 19 O 6.02603 -0.267016 1.0221 0
M  V30 20 N 5.62763 2.1107 -0.0556876 0
M  V30 21 H -1.43423 0.651047 -0.810214 0
M  V30 22 H -1.14711 0.735708 1.86515 0
M  V30 23 H -2.59366 -0.329982 1.8066 0
M  V30 24 H -2.17247 2.44225 0.585559 0
M  V30 25 H -3.39192 1.96844 1.78668 0
M  V30 26 H -4.73932 1.76088 -0.0633083 0
M  V30 27 H -3.38828 1.68294 -1.21872 0
M  V30 28 H -4.66391 -0.60356 0.338167 0
M  V30 29 H -4.59275 -0.288577 -1.40093 0
M  V30 30 H -3.02218 -0.485756 -2.64381 0
M  V30 31 H -2.99813 -2.27834 -2.31966 0
M  V30 32 H -1.44565 -1.27439 -2.29254 0
M  V30 33 H -3.62778 -2.08134 0.915612 0
M  V30 34 H -3.05024 -3.0266 -0.427031 0
M  V30 35 H 0.399459 1.42441 0.114262 0
M  V30 36 H 1.24375 1.03937 1.68815 0
M  V30 37 H 2.74789 2.26098 0.122287 0
M  V30 38 H 2.60073 0.923721 -1.05367 0
M  V30 39 H 3.94382 -1.49712 1.4679 0
M  V30 40 H 2.57833 -0.625219 2.27335 0
M  V30 41 H 2.48093 -1.5372 -0.661743 0
M  V30 42 H 1.87611 -2.43011 0.752689 0
M  V30 43 H 6.53845 2.07899 -0.565262 0
M  V30 44 H 5.72435 2.53297 0.895824 0
M  V30 END ATOM
M  V30 BEGIN BOND
M  V30 1 2 1 2
M  V30 2 1 2 3
M  V30 3 1 3 4
M  V30 4 1 4 5
M  V30 5 1 5 6
M  V30 6 1 6 7
M  V30 7 1 7 8
M  V30 8 1 8 9
M  V30 9 1 8 10
M  V30 10 1 2 11
M  V30 11 1 11 12
M  V30 12 1 12 13
M  V30 13 1 13 14
M  V30 14 1 14 15
M  V30 15 1 15 16
M  V30 16 1 14 17
M  V30 17 2 17 18
M  V30 18 2 17 19
M  V30 19 1 17 20
M  V30 20 1 8 3
M  V30 21 1 16 11
M  V30 22 1 3 21
M  V30 23 1 4 22
M  V30 24 1 4 23
M  V30 25 1 5 24
M  V30 26 1 5 25
M  V30 27 1 6 26
M  V30 28 1 6 27
M  V30 29 1 7 28
M  V30 30 1 7 29
M  V30 31 1 9 30
M  V30 32 1 9 31
M  V30 33 1 9 32
M  V30 34 1 10 33
M  V30 35 1 10 34
M  V30 36 1 12 35
M  V30 37 1 12 36
M  V30 38 1 13 37
M  V30 39 1 13 38
M  V30 40 1 15 39
M  V30 41 1 15 40
M  V30 42 1 16 41
M  V30 43 1 16 42
M  V30 44 1 20 43
M  V30 45 1 20 44
M  V30 END BOND
M  V30 END CTAB
M  END
