
     RDKit          3D

  0  0  0  0  0  0  0  0  0  0999 V3000
M  V30 BEGIN CTAB
M  V30 COUNTS 24 24 0 0 0
M  V30 BEGIN ATOM
M  V30 1 N 3.9095 0.422924 -0.236701 0
M  V30 2 C 3.32715 -0.864695 0.0875889 0
M  V30 3 C 1.85501 -0.912009 -0.209159 0
M  V30 4 N 1.11352 0.0714198 0.535085 0
M  V30 5 C -0.29589 0.178742 0.386233 0
M  V30 6 C -1.01577 -0.63904 -0.46412 0
M  V30 7 C -2.37905 -0.531694 -0.604988 0
M  V30 8 C -3.08959 0.412166 0.109486 0
M  V30 9 C -2.39967 1.24434 0.967425 0
M  V30 10 C -1.01953 1.11716 1.09361 0
M  V30 11 Cl -0.166414 2.18949 2.1929 0
M  V30 12 N -4.48559 0.484942 -0.0677492 0
M  V30 13 H 4.12024 0.531115 -1.23569 0
M  V30 14 H 4.73328 0.618715 0.37682 0
M  V30 15 H 3.81223 -1.62275 -0.585042 0
M  V30 16 H 3.51022 -1.16189 1.1295 0
M  V30 17 H 1.4896 -1.91142 0.12635 0
M  V30 18 H 1.64391 -0.789017 -1.28578 0
M  V30 19 H 1.59622 0.713752 1.18867 0
M  V30 20 H -0.437931 -1.37547 -1.01751 0
M  V30 21 H -2.88892 -1.20121 -1.28741 0
M  V30 22 H -2.93865 1.99878 1.54353 0
M  V30 23 H -4.90335 1.30714 -0.527826 0
M  V30 24 H -5.09052 -0.281486 0.261245 0
M  V30 END ATOM
M  V30 BEGIN BOND
M  V30 1 1 1 2
M  V30 2 1 2 3
M  V30 3 1 3 4
M  V30 4 1 4 5
M  V30 5 2 5 6
M  V30 6 1 6 7
M  V30 7 2 7 8
M  V30 8 1 8 9
M  V30 9 2 9 10
M  V30 10 1 10 11
M  V30 11 1 8 12
M  V30 12 1 10 5
M  V30 13 1 1 13
M  V30 14 1 1 14
M  V30 15 1 2 15
M  V30 16 1 2 16
M  V30 17 1 3 17
M  V30 18 1 3 18
M  V30 19 1 4 19
M  V30 20 1 6 20
M  V30 21 1 7 21
M  V30 22 1 9 22
M  V30 23 1 12 23
M  V30 24 1 12 24
M  V30 END BOND
M  V30 END CTAB
M  END
