
     RDKit          3D

  0  0  0  0  0  0  0  0  0  0999 V3000
M  V30 BEGIN CTAB
M  V30 COUNTS 19 20 0 0 0
M  V30 BEGIN ATOM
M  V30 1 N -2.24874 -2.20396 0.829405 0
M  V30 2 C -1.66009 -1.05358 0.261339 0
M  V30 3 N -0.318457 -0.852047 0.447389 0
M  V30 4 C 0.292549 0.213308 -0.0634951 0
M  V30 5 N -0.429539 1.08344 -0.76233 0
M  V30 6 C -1.75138 0.932821 -0.974973 0
M  V30 7 N -2.34362 -0.14694 -0.450943 0
M  V30 8 N -2.46018 1.91239 -1.73773 0
M  V30 9 C 1.74564 0.428607 0.139831 0
M  V30 10 C 2.54238 -0.416023 0.84025 0
M  V30 11 C 3.86369 -0.0810961 0.940005 0
M  V30 12 S 3.94386 1.37591 0.0671426 0
M  V30 13 N 2.3399 1.50957 -0.384453 0
M  V30 14 H -2.33473 -3.08763 0.281203 0
M  V30 15 H -2.59728 -2.15318 1.81129 0
M  V30 16 H -1.92074 2.51793 -2.39793 0
M  V30 17 H -3.47521 2.01442 -1.63554 0
M  V30 18 H 2.15142 -1.3473 1.31982 0
M  V30 19 H 4.66054 -0.646629 1.46971 0
M  V30 END ATOM
M  V30 BEGIN BOND
M  V30 1 1 1 2
M  V30 2 2 2 3
M  V30 3 1 3 4
M  V30 4 2 4 5
M  V30 5 1 5 6
M  V30 6 2 6 7
M  V30 7 1 6 8
M  V30 8 1 4 9
M  V30 9 1 9 10
M  V30 10 2 10 11
M  V30 11 1 11 12
M  V30 12 1 12 13
M  V30 13 1 7 2
M  V30 14 2 13 9
M  V30 15 1 1 14
M  V30 16 1 1 15
M  V30 17 1 8 16
M  V30 18 1 8 17
M  V30 19 1 10 18
M  V30 20 1 11 19
M  V30 END BOND
M  V30 END CTAB
M  END
